# Generated by pormake.
# Topology gar, (4,6)-cn, num edge types: 1
# Building blocks:
#     Node 0, Type 0, BuildingBlock: TATPOV_clean_sbu_0, # of connection points: 4
#     Node 1, Type 0, BuildingBlock: TATPOV_clean_sbu_0, # of connection points: 4
#     Node 2, Type 0, BuildingBlock: TATPOV_clean_sbu_0, # of connection points: 4
#     Node 3, Type 0, BuildingBlock: TATPOV_clean_sbu_0, # of connection points: 4
#     Node 4, Type 0, BuildingBlock: TATPOV_clean_sbu_0, # of connection points: 4
#     Node 5, Type 0, BuildingBlock: TATPOV_clean_sbu_0, # of connection points: 4
#     Node 6, Type 0, BuildingBlock: TATPOV_clean_sbu_0, # of connection points: 4
#     Node 7, Type 0, BuildingBlock: TATPOV_clean_sbu_0, # of connection points: 4
#     Node 8, Type 0, BuildingBlock: TATPOV_clean_sbu_0, # of connection points: 4
#     Node 9, Type 0, BuildingBlock: TATPOV_clean_sbu_0, # of connection points: 4
#     Node 10, Type 0, BuildingBlock: TATPOV_clean_sbu_0, # of connection points: 4
#     Node 11, Type 0, BuildingBlock: TATPOV_clean_sbu_0, # of connection points: 4
#     Node 12, Type 0, BuildingBlock: TATPOV_clean_sbu_0, # of connection points: 4
#     Node 13, Type 0, BuildingBlock: TATPOV_clean_sbu_0, # of connection points: 4
#     Node 14, Type 0, BuildingBlock: TATPOV_clean_sbu_0, # of connection points: 4
#     Node 15, Type 0, BuildingBlock: TATPOV_clean_sbu_0, # of connection points: 4
#     Node 16, Type 0, BuildingBlock: TATPOV_clean_sbu_0, # of connection points: 4
#     Node 17, Type 0, BuildingBlock: TATPOV_clean_sbu_0, # of connection points: 4
#     Node 18, Type 0, BuildingBlock: TATPOV_clean_sbu_0, # of connection points: 4
#     Node 19, Type 0, BuildingBlock: TATPOV_clean_sbu_0, # of connection points: 4
#     Node 20, Type 0, BuildingBlock: TATPOV_clean_sbu_0, # of connection points: 4
#     Node 21, Type 0, BuildingBlock: TATPOV_clean_sbu_0, # of connection points: 4
#     Node 22, Type 0, BuildingBlock: TATPOV_clean_sbu_0, # of connection points: 4
#     Node 23, Type 0, BuildingBlock: TATPOV_clean_sbu_0, # of connection points: 4
#     Node 24, Type 1, BuildingBlock: BETDIP_clean_sbu_0, # of connection points: 6
#     Node 25, Type 1, BuildingBlock: BETDIP_clean_sbu_0, # of connection points: 6
#     Node 26, Type 1, BuildingBlock: BETDIP_clean_sbu_0, # of connection points: 6
#     Node 27, Type 1, BuildingBlock: BETDIP_clean_sbu_0, # of connection points: 6
#     Node 28, Type 1, BuildingBlock: BETDIP_clean_sbu_0, # of connection points: 6
#     Node 29, Type 1, BuildingBlock: BETDIP_clean_sbu_0, # of connection points: 6
#     Node 30, Type 1, BuildingBlock: BETDIP_clean_sbu_0, # of connection points: 6
#     Node 31, Type 1, BuildingBlock: BETDIP_clean_sbu_0, # of connection points: 6
#     Node 32, Type 1, BuildingBlock: BETDIP_clean_sbu_0, # of connection points: 6
#     Node 33, Type 1, BuildingBlock: BETDIP_clean_sbu_0, # of connection points: 6
#     Node 34, Type 1, BuildingBlock: BETDIP_clean_sbu_0, # of connection points: 6
#     Node 35, Type 1, BuildingBlock: BETDIP_clean_sbu_0, # of connection points: 6
#     Node 36, Type 1, BuildingBlock: BETDIP_clean_sbu_0, # of connection points: 6
#     Node 37, Type 1, BuildingBlock: BETDIP_clean_sbu_0, # of connection points: 6
#     Node 38, Type 1, BuildingBlock: BETDIP_clean_sbu_0, # of connection points: 6
#     Node 39, Type 1, BuildingBlock: BETDIP_clean_sbu_0, # of connection points: 6
#     Edge 40, Type (0, 1), BuildingBlock: ZUJKAS_clean_linker_0, # of connection points: 2
#     Edge 41, Type (0, 1), BuildingBlock: ZUJKAS_clean_linker_0, # of connection points: 2
#     Edge 42, Type (0, 1), BuildingBlock: ZUJKAS_clean_linker_0, # of connection points: 2
#     Edge 43, Type (0, 1), BuildingBlock: ZUJKAS_clean_linker_0, # of connection points: 2
#     Edge 44, Type (0, 1), BuildingBlock: ZUJKAS_clean_linker_0, # of connection points: 2
#     Edge 45, Type (0, 1), BuildingBlock: ZUJKAS_clean_linker_0, # of connection points: 2
#     Edge 46, Type (0, 1), BuildingBlock: ZUJKAS_clean_linker_0, # of connection points: 2
#     Edge 47, Type (0, 1), BuildingBlock: ZUJKAS_clean_linker_0, # of connection points: 2
#     Edge 48, Type (0, 1), BuildingBlock: ZUJKAS_clean_linker_0, # of connection points: 2
#     Edge 49, Type (0, 1), BuildingBlock: ZUJKAS_clean_linker_0, # of connection points: 2
#     Edge 50, Type (0, 1), BuildingBlock: ZUJKAS_clean_linker_0, # of connection points: 2
#     Edge 51, Type (0, 1), BuildingBlock: ZUJKAS_clean_linker_0, # of connection points: 2
#     Edge 52, Type (0, 1), BuildingBlock: ZUJKAS_clean_linker_0, # of connection points: 2
#     Edge 53, Type (0, 1), BuildingBlock: ZUJKAS_clean_linker_0, # of connection points: 2
#     Edge 54, Type (0, 1), BuildingBlock: ZUJKAS_clean_linker_0, # of connection points: 2
#     Edge 55, Type (0, 1), BuildingBlock: ZUJKAS_clean_linker_0, # of connection points: 2
#     Edge 56, Type (0, 1), BuildingBlock: ZUJKAS_clean_linker_0, # of connection points: 2
#     Edge 57, Type (0, 1), BuildingBlock: ZUJKAS_clean_linker_0, # of connection points: 2
#     Edge 58, Type (0, 1), BuildingBlock: ZUJKAS_clean_linker_0, # of connection points: 2
#     Edge 59, Type (0, 1), BuildingBlock: ZUJKAS_clean_linker_0, # of connection points: 2
#     Edge 60, Type (0, 1), BuildingBlock: ZUJKAS_clean_linker_0, # of connection points: 2
#     Edge 61, Type (0, 1), BuildingBlock: ZUJKAS_clean_linker_0, # of connection points: 2
#     Edge 62, Type (0, 1), BuildingBlock: ZUJKAS_clean_linker_0, # of connection points: 2
#     Edge 63, Type (0, 1), BuildingBlock: ZUJKAS_clean_linker_0, # of connection points: 2
#     Edge 64, Type (0, 1), BuildingBlock: ZUJKAS_clean_linker_0, # of connection points: 2
#     Edge 65, Type (0, 1), BuildingBlock: ZUJKAS_clean_linker_0, # of connection points: 2
#     Edge 66, Type (0, 1), BuildingBlock: ZUJKAS_clean_linker_0, # of connection points: 2
#     Edge 67, Type (0, 1), BuildingBlock: ZUJKAS_clean_linker_0, # of connection points: 2
#     Edge 68, Type (0, 1), BuildingBlock: ZUJKAS_clean_linker_0, # of connection points: 2
#     Edge 69, Type (0, 1), BuildingBlock: ZUJKAS_clean_linker_0, # of connection points: 2
#     Edge 70, Type (0, 1), BuildingBlock: ZUJKAS_clean_linker_0, # of connection points: 2
#     Edge 71, Type (0, 1), BuildingBlock: ZUJKAS_clean_linker_0, # of connection points: 2
#     Edge 72, Type (0, 1), BuildingBlock: ZUJKAS_clean_linker_0, # of connection points: 2
#     Edge 73, Type (0, 1), BuildingBlock: ZUJKAS_clean_linker_0, # of connection points: 2
#     Edge 74, Type (0, 1), BuildingBlock: ZUJKAS_clean_linker_0, # of connection points: 2
#     Edge 75, Type (0, 1), BuildingBlock: ZUJKAS_clean_linker_0, # of connection points: 2
#     Edge 76, Type (0, 1), BuildingBlock: ZUJKAS_clean_linker_0, # of connection points: 2
#     Edge 77, Type (0, 1), BuildingBlock: ZUJKAS_clean_linker_0, # of connection points: 2
#     Edge 78, Type (0, 1), BuildingBlock: ZUJKAS_clean_linker_0, # of connection points: 2
#     Edge 79, Type (0, 1), BuildingBlock: ZUJKAS_clean_linker_0, # of connection points: 2
#     Edge 80, Type (0, 1), BuildingBlock: ZUJKAS_clean_linker_0, # of connection points: 2
#     Edge 81, Type (0, 1), BuildingBlock: ZUJKAS_clean_linker_0, # of connection points: 2
#     Edge 82, Type (0, 1), BuildingBlock: ZUJKAS_clean_linker_0, # of connection points: 2
#     Edge 83, Type (0, 1), BuildingBlock: ZUJKAS_clean_linker_0, # of connection points: 2
#     Edge 84, Type (0, 1), BuildingBlock: ZUJKAS_clean_linker_0, # of connection points: 2
#     Edge 85, Type (0, 1), BuildingBlock: ZUJKAS_clean_linker_0, # of connection points: 2
#     Edge 86, Type (0, 1), BuildingBlock: ZUJKAS_clean_linker_0, # of connection points: 2
#     Edge 87, Type (0, 1), BuildingBlock: ZUJKAS_clean_linker_0, # of connection points: 2
#     Edge 88, Type (0, 1), BuildingBlock: ZUJKAS_clean_linker_0, # of connection points: 2
#     Edge 89, Type (0, 1), BuildingBlock: ZUJKAS_clean_linker_0, # of connection points: 2
#     Edge 90, Type (0, 1), BuildingBlock: ZUJKAS_clean_linker_0, # of connection points: 2
#     Edge 91, Type (0, 1), BuildingBlock: ZUJKAS_clean_linker_0, # of connection points: 2
#     Edge 92, Type (0, 1), BuildingBlock: ZUJKAS_clean_linker_0, # of connection points: 2
#     Edge 93, Type (0, 1), BuildingBlock: ZUJKAS_clean_linker_0, # of connection points: 2
#     Edge 94, Type (0, 1), BuildingBlock: ZUJKAS_clean_linker_0, # of connection points: 2
#     Edge 95, Type (0, 1), BuildingBlock: ZUJKAS_clean_linker_0, # of connection points: 2
#     Edge 96, Type (0, 1), BuildingBlock: ZUJKAS_clean_linker_0, # of connection points: 2
#     Edge 97, Type (0, 1), BuildingBlock: ZUJKAS_clean_linker_0, # of connection points: 2
#     Edge 98, Type (0, 1), BuildingBlock: ZUJKAS_clean_linker_0, # of connection points: 2
#     Edge 99, Type (0, 1), BuildingBlock: ZUJKAS_clean_linker_0, # of connection points: 2
#     Edge 100, Type (0, 1), BuildingBlock: ZUJKAS_clean_linker_0, # of connection points: 2
#     Edge 101, Type (0, 1), BuildingBlock: ZUJKAS_clean_linker_0, # of connection points: 2
#     Edge 102, Type (0, 1), BuildingBlock: ZUJKAS_clean_linker_0, # of connection points: 2
#     Edge 103, Type (0, 1), BuildingBlock: ZUJKAS_clean_linker_0, # of connection points: 2
#     Edge 104, Type (0, 1), BuildingBlock: ZUJKAS_clean_linker_0, # of connection points: 2
#     Edge 105, Type (0, 1), BuildingBlock: ZUJKAS_clean_linker_0, # of connection points: 2
#     Edge 106, Type (0, 1), BuildingBlock: ZUJKAS_clean_linker_0, # of connection points: 2
#     Edge 107, Type (0, 1), BuildingBlock: ZUJKAS_clean_linker_0, # of connection points: 2
#     Edge 108, Type (0, 1), BuildingBlock: ZUJKAS_clean_linker_0, # of connection points: 2
#     Edge 109, Type (0, 1), BuildingBlock: ZUJKAS_clean_linker_0, # of connection points: 2
#     Edge 110, Type (0, 1), BuildingBlock: ZUJKAS_clean_linker_0, # of connection points: 2
#     Edge 111, Type (0, 1), BuildingBlock: ZUJKAS_clean_linker_0, # of connection points: 2
#     Edge 112, Type (0, 1), BuildingBlock: ZUJKAS_clean_linker_0, # of connection points: 2
#     Edge 113, Type (0, 1), BuildingBlock: ZUJKAS_clean_linker_0, # of connection points: 2
#     Edge 114, Type (0, 1), BuildingBlock: ZUJKAS_clean_linker_0, # of connection points: 2
#     Edge 115, Type (0, 1), BuildingBlock: ZUJKAS_clean_linker_0, # of connection points: 2
#     Edge 116, Type (0, 1), BuildingBlock: ZUJKAS_clean_linker_0, # of connection points: 2
#     Edge 117, Type (0, 1), BuildingBlock: ZUJKAS_clean_linker_0, # of connection points: 2
#     Edge 118, Type (0, 1), BuildingBlock: ZUJKAS_clean_linker_0, # of connection points: 2
#     Edge 119, Type (0, 1), BuildingBlock: ZUJKAS_clean_linker_0, # of connection points: 2
#     Edge 120, Type (0, 1), BuildingBlock: ZUJKAS_clean_linker_0, # of connection points: 2
#     Edge 121, Type (0, 1), BuildingBlock: ZUJKAS_clean_linker_0, # of connection points: 2
#     Edge 122, Type (0, 1), BuildingBlock: ZUJKAS_clean_linker_0, # of connection points: 2
#     Edge 123, Type (0, 1), BuildingBlock: ZUJKAS_clean_linker_0, # of connection points: 2
#     Edge 124, Type (0, 1), BuildingBlock: ZUJKAS_clean_linker_0, # of connection points: 2
#     Edge 125, Type (0, 1), BuildingBlock: ZUJKAS_clean_linker_0, # of connection points: 2
#     Edge 126, Type (0, 1), BuildingBlock: ZUJKAS_clean_linker_0, # of connection points: 2
#     Edge 127, Type (0, 1), BuildingBlock: ZUJKAS_clean_linker_0, # of connection points: 2
#     Edge 128, Type (0, 1), BuildingBlock: ZUJKAS_clean_linker_0, # of connection points: 2
#     Edge 129, Type (0, 1), BuildingBlock: ZUJKAS_clean_linker_0, # of connection points: 2
#     Edge 130, Type (0, 1), BuildingBlock: ZUJKAS_clean_linker_0, # of connection points: 2
#     Edge 131, Type (0, 1), BuildingBlock: ZUJKAS_clean_linker_0, # of connection points: 2
#     Edge 132, Type (0, 1), BuildingBlock: ZUJKAS_clean_linker_0, # of connection points: 2
#     Edge 133, Type (0, 1), BuildingBlock: ZUJKAS_clean_linker_0, # of connection points: 2
#     Edge 134, Type (0, 1), BuildingBlock: ZUJKAS_clean_linker_0, # of connection points: 2
#     Edge 135, Type (0, 1), BuildingBlock: ZUJKAS_clean_linker_0, # of connection points: 2
# Relax obj value: 0.163
# Max RMSD: 0.274
# Mean RMSD: 0.158
data_MOF--net-gar--node1-TATPOV_clean_sbu_0--node2-BETDIP_clean_sbu_0--edge1-ZUJKAS_clean_linker_0
_symmetry_space_group_name_H-M    P1
_symmetry_Int_Tables_number       1
_symmetry_cell_setting            triclinic
loop_
_symmetry_equiv_pos_as_xyz
'x, y, z'
_cell_length_a     79.471816
_cell_length_b     73.584671
_cell_length_c     71.493577
_cell_angle_alpha  97.155371
_cell_angle_beta   98.76231
_cell_angle_gamma 102.31086
loop_
_atom_site_label
_atom_site_type_symbol
_atom_site_fract_x
_atom_site_fract_y
_atom_site_fract_z
_atom_type_partial_charge
Zn0 Zn 1.0005 0.2849 0.40186 0.0
Zn1 Zn 0.02288 0.29129 0.38408 0.0
O2 O 0.02495 0.31772 0.39774 0.0
O3 O 0.99732 0.31067 0.40063 0.0
O4 O 0.04139 0.29097 0.36905 0.0
O5 O 0.01429 0.27919 0.42507 0.0
O6 O 0.02553 0.27103 0.40014 0.0
C7 C 0.01127 0.32291 0.40114 0.0
C8 C 0.98806 0.27024 0.36526 0.0
O9 O 1.0008 0.28359 0.3643 0.0
O10 O 0.98785 0.26363 0.38071 0.0
C11 C 0.04617 0.30245 0.35803 0.0
O12 O 0.03958 0.31729 0.35702 0.0
C13 C 0.02237 0.26863 0.41667 0.0
Zn14 Zn 0.05163 0.72509 0.70339 0.0
Zn15 Zn 0.05326 0.75433 0.68154 0.0
O16 O 0.02983 0.75257 0.68776 0.0
O17 O 0.03166 0.73549 0.71108 0.0
O18 O 0.05725 0.77544 0.66728 0.0
O19 O 0.07686 0.73822 0.71202 0.0
O20 O 0.0725 0.76474 0.7037 0.0
C21 C 0.02385 0.74547 0.70131 0.0
C22 C 0.0518 0.71444 0.6636 0.0
O23 O 0.05509 0.73206 0.66342 0.0
O24 O 0.04805 0.70773 0.67834 0.0
C25 C 0.05305 0.77413 0.64929 0.0
O26 O 0.04446 0.75789 0.63888 0.0
C27 C 0.08258 0.75538 0.71099 0.0
Zn28 Zn 0.49671 0.78348 0.8984 0.0
Zn29 Zn 0.52038 0.78993 0.88254 0.0
O30 O 0.52156 0.81579 0.89683 0.0
O31 O 0.49386 0.80944 0.89961 0.0
O32 O 0.54119 0.79226 0.87048 0.0
O33 O 0.50866 0.77606 0.92154 0.0
O34 O 0.52247 0.76922 0.89834 0.0
C35 C 0.50821 0.82125 0.90084 0.0
C36 C 0.48568 0.76964 0.86087 0.0
O37 O 0.49948 0.78211 0.86091 0.0
O38 O 0.48331 0.7637 0.87632 0.0
C39 C 0.5418 0.79757 0.85436 0.0
O40 O 0.52837 0.8028 0.8454 0.0
C41 C 0.51812 0.76643 0.91432 0.0
Zn42 Zn 0.55336 0.22538 0.2025 0.0
Zn43 Zn 0.55123 0.25316 0.17997 0.0
O44 O 0.53042 0.25135 0.19203 0.0
O45 O 0.53354 0.23251 0.21334 0.0
O46 O 0.55056 0.27359 0.16497 0.0
O47 O 0.5784 0.24025 0.21144 0.0
O48 O 0.57393 0.26384 0.19679 0.0
C49 C 0.52518 0.24318 0.20537 0.0
C50 C 0.54829 0.21327 0.16194 0.0
O51 O 0.55076 0.23069 0.1611 0.0
O52 O 0.54737 0.20713 0.17762 0.0
C53 C 0.55588 0.27357 0.14914 0.0
O54 O 0.56041 0.25871 0.14121 0.0
C55 C 0.58367 0.25666 0.20775 0.0
Zn56 Zn 0.07673 0.78642 0.11079 0.0
Zn57 Zn 0.05175 0.78227 0.13118 0.0
O58 O 0.04969 0.8065 0.11797 0.0
O59 O 0.07192 0.81009 0.10267 0.0
O60 O 0.02995 0.77615 0.14407 0.0
O61 O 0.06641 0.76149 0.09382 0.0
O62 O 0.04684 0.75713 0.11244 0.0
C63 C 0.0589 0.81562 0.10734 0.0
C64 C 0.09068 0.78548 0.14996 0.0
O65 O 0.0747 0.78426 0.15196 0.0
O66 O 0.09491 0.78678 0.13374 0.0
C67 C 0.02616 0.78536 0.15852 0.0
O68 O 0.03718 0.80112 0.16732 0.0
C69 C 0.05352 0.75095 0.09856 0.0
Zn70 Zn 0.48992 0.74974 0.43864 0.0
Zn71 Zn 0.51307 0.75342 0.41638 0.0
O72 O 0.51972 0.77902 0.43465 0.0
O73 O 0.50023 0.77549 0.45353 0.0
O74 O 0.53426 0.75584 0.40221 0.0
O75 O 0.49612 0.72825 0.44976 0.0
O76 O 0.51502 0.72956 0.43014 0.0
C77 C 0.51327 0.78556 0.44858 0.0
C78 C 0.47343 0.7492 0.39995 0.0
O79 O 0.4893 0.75229 0.39708 0.0
O80 O 0.47026 0.74632 0.4163 0.0
C81 C 0.54036 0.76966 0.39406 0.0
O82 O 0.53193 0.78312 0.39272 0.0
C83 C 0.50797 0.72196 0.44314 0.0
Zn84 Zn 0.57605 0.28652 0.6097 0.0
Zn85 Zn 0.5524 0.28277 0.63309 0.0
O86 O 0.54949 0.30673 0.62003 0.0
O87 O 0.56742 0.30785 0.59925 0.0
O88 O 0.53294 0.2775 0.64921 0.0
O89 O 0.566 0.25959 0.59643 0.0
O90 O 0.54636 0.25713 0.6152 0.0
C91 C 0.55599 0.31428 0.60668 0.0
C92 C 0.59205 0.28831 0.6493 0.0
O93 O 0.57613 0.28494 0.65174 0.0
O94 O 0.59563 0.29086 0.633 0.0
C95 C 0.52024 0.28557 0.64907 0.0
O96 O 0.51985 0.29938 0.63913 0.0
C97 C 0.55295 0.24995 0.60177 0.0
Zn98 Zn 0.99044 0.25238 0.94102 0.0
Zn99 Zn 0.01241 0.25373 0.91648 0.0
O100 O 0.01806 0.27952 0.93389 0.0
O101 O 1.00428 0.27639 0.95813 0.0
O102 O 0.03301 0.25645 0.90115 0.0
O103 O 0.99341 0.22743 0.94749 0.0
O104 O 0.01487 0.23065 0.93105 0.0
C105 C 0.01485 0.28639 0.94981 0.0
C106 C 0.97389 0.25365 0.90198 0.0
O107 O 0.98848 0.25153 0.89751 0.0
O108 O 0.97193 0.25478 0.91931 0.0
C109 C 0.04455 0.27196 0.90294 0.0
O110 O 0.04266 0.28696 0.91365 0.0
C111 C 0.00614 0.22177 0.94215 0.0
Zn112 Zn 0.42097 0.01349 0.25581 0.0
Zn113 Zn 0.40438 0.04018 0.25886 0.0
O114 O 0.4214 0.0415 0.28799 0.0
O115 O 0.4347 0.01847 0.28283 0.0
O116 O 0.39155 0.06543 0.26075 0.0
O117 O 0.43179 0.01762 0.23267 0.0
O118 O 0.4171 0.03987 0.23199 0.0
C119 C 0.43178 0.0313 0.29454 0.0
C120 C 0.38491 0.99666 0.25347 0.0
O121 O 0.38403 0.01411 0.2564 0.0
O122 O 0.39937 0.99275 0.25172 0.0
C123 C 0.37697 0.06763 0.25121 0.0
O124 O 0.36762 0.05329 0.23837 0.0
C125 C 0.42702 0.03027 0.2242 0.0
Zn126 Zn 0.252 0.18251 0.50995 0.0
Zn127 Zn 0.27171 0.16014 0.51071 0.0
O128 O 0.2752 0.17309 0.48573 0.0
O129 O 0.25684 0.19155 0.48636 0.0
O130 O 0.29028 0.14411 0.51401 0.0
O131 O 0.26334 0.199 0.53449 0.0
O132 O 0.27969 0.17854 0.53692 0.0
C133 C 0.26806 0.18533 0.47843 0.0
C134 C 0.23139 0.14605 0.50929 0.0
O135 O 0.24635 0.14192 0.50958 0.0
O136 O 0.23042 0.16296 0.5092 0.0
C137 C 0.3051 0.14857 0.50876 0.0
O138 O 0.30815 0.1629 0.49948 0.0
C139 C 0.27531 0.19328 0.54402 0.0
Zn140 Zn 0.1121 0.05351 0.79212 0.0
Zn141 Zn 0.13227 0.02975 0.79298 0.0
O142 O 0.12055 0.02661 0.81694 0.0
O143 O 0.10558 0.04863 0.81704 0.0
O144 O 0.14426 0.00851 0.78973 0.0
O145 O 0.09696 0.04048 0.76708 0.0
O146 O 0.11651 0.02342 0.76672 0.0
C147 C 0.1107 0.03571 0.8247 0.0
C148 C 0.14861 0.07081 0.79288 0.0
O149 O 0.15111 0.05449 0.79468 0.0
O150 O 0.1333 0.07354 0.79144 0.0
C151 C 0.15913 0.00742 0.79823 0.0
O152 O 0.16839 0.02123 0.81173 0.0
C153 C 0.10304 0.02796 0.75855 0.0
Zn154 Zn 0.26195 0.80899 0.99573 0.0
Zn155 Zn 0.23743 0.84032 1.00055 0.0
O156 O 0.22598 0.83443 0.97254 0.0
O157 O 0.24405 0.81664 0.97762 0.0
O158 O 0.22639 0.85832 0.01349 0.0
O159 O 0.25438 0.80278 0.02083 0.0
O160 O 0.23367 0.8157 0.01026 0.0
C161 C 0.23277 0.82145 0.96617 0.0
C162 C 0.27837 0.85034 0.00142 0.0
O163 O 0.2632 0.8532 0.00236 0.0
O164 O 0.28104 0.83376 0.99891 0.0
C165 C 0.22705 0.87283 0.00553 0.0
O166 O 0.23447 0.87423 0.99041 0.0
C167 C 0.24292 0.81167 0.02444 0.0
Zn168 Zn 0.31455 0.36051 0.04312 0.0
Zn169 Zn 0.29441 0.38285 0.04109 0.0
O170 O 0.28681 0.36438 0.01526 0.0
O171 O 0.30348 0.34429 0.01831 0.0
O172 O 0.27532 0.39843 0.03787 0.0
O173 O 0.30852 0.35073 0.06601 0.0
O174 O 0.29015 0.36932 0.06561 0.0
C175 C 0.29139 0.34968 0.00858 0.0
C176 C 0.33497 0.39691 0.04284 0.0
O177 O 0.31988 0.4009 0.04168 0.0
O178 O 0.33614 0.38027 0.04436 0.0
C179 C 0.25952 0.38931 0.03095 0.0
O180 O 0.25626 0.37085 0.02675 0.0
C181 C 0.29669 0.35672 0.07299 0.0
Zn182 Zn 0.81267 0.2197 0.04989 0.0
Zn183 Zn 0.8279 0.19404 0.05781 0.0
O184 O 0.82644 0.19435 0.02972 0.0
O185 O 0.82994 0.2247 0.03203 0.0
O186 O 0.84296 0.17697 0.06192 0.0
O187 O 0.82087 0.23081 0.07762 0.0
O188 O 0.84232 0.21695 0.07552 0.0
C189 C 0.82957 0.20908 0.02218 0.0
C190 C 0.79075 0.18311 0.05195 0.0
O191 O 0.80427 0.18187 0.06325 0.0
O192 O 0.79157 0.19654 0.04231 0.0
C193 C 0.8384 0.15924 0.06003 0.0
O194 O 0.82178 0.15065 0.0578 0.0
C195 C 0.83556 0.22826 0.08487 0.0
Zn196 Zn 0.13945 0.51939 0.28632 0.0
Zn197 Zn 0.16031 0.499 0.28941 0.0
O198 O 0.14661 0.50059 0.31578 0.0
O199 O 0.12802 0.518 0.30868 0.0
O200 O 0.17335 0.47371 0.28925 0.0
O201 O 0.12482 0.51244 0.26037 0.0
O202 O 0.14492 0.49611 0.25871 0.0
C203 C 0.13472 0.50912 0.32063 0.0
C204 C 0.17519 0.54226 0.29267 0.0
O205 O 0.17954 0.52636 0.29343 0.0
O206 O 0.15908 0.54216 0.28962 0.0
C207 C 0.18915 0.47195 0.29552 0.0
O208 O 0.20078 0.48739 0.30407 0.0
C209 C 0.13189 0.50211 0.25024 0.0
Zn210 Zn 0.81625 0.86069 0.54564 0.0
Zn211 Zn 0.79426 0.88169 0.5415 0.0
O212 O 0.78713 0.86283 0.51616 0.0
O213 O 0.80487 0.84398 0.52083 0.0
O214 O 0.7742 0.89591 0.53964 0.0
O215 O 0.81122 0.85236 0.56973 0.0
O216 O 0.79075 0.86833 0.56589 0.0
C217 C 0.79257 0.84842 0.51036 0.0
C218 C 0.83463 0.89775 0.54371 0.0
O219 O 0.81911 0.90073 0.54177 0.0
O220 O 0.83675 0.88161 0.54614 0.0
C221 C 0.76582 0.89833 0.52376 0.0
O222 O 0.77111 0.89323 0.5078 0.0
C223 C 0.79836 0.85755 0.57512 0.0
Zn224 Zn 0.94877 0.97988 0.2513 0.0
Zn225 Zn 0.93085 0.00693 0.25376 0.0
O226 O 0.94813 0.01255 0.27911 0.0
O227 O 0.96373 0.99131 0.27713 0.0
O228 O 0.91722 0.02748 0.25572 0.0
O229 O 0.9562 0.98689 0.22745 0.0
O230 O 0.94275 0.01021 0.22981 0.0
C231 C 0.96029 0.00543 0.28644 0.0
C232 C 0.9126 0.96511 0.25128 0.0
O233 O 0.91205 0.98242 0.25297 0.0
O234 O 0.92672 0.96028 0.24965 0.0
C235 C 0.92125 0.04074 0.27005 0.0
O236 O 0.93453 0.04134 0.28365 0.0
C237 C 0.95212 1.00102 0.22127 0.0
Zn238 Zn 0.31309 0.72057 0.54933 0.0
Zn239 Zn 0.32766 0.69363 0.55742 0.0
O240 O 0.32683 0.69442 0.52943 0.0
O241 O 0.33114 0.7249 0.53225 0.0
O242 O 0.34051 0.67421 0.56169 0.0
O243 O 0.32108 0.73041 0.57733 0.0
O244 O 0.34246 0.71649 0.57499 0.0
C245 C 0.3305 0.7093 0.52219 0.0
C246 C 0.29016 0.68461 0.55108 0.0
O247 O 0.30349 0.68312 0.56252 0.0
O248 O 0.29145 0.69792 0.54126 0.0
C249 C 0.33414 0.6587 0.55054 0.0
O250 O 0.31878 0.65612 0.5394 0.0
C251 C 0.33538 0.72714 0.58482 0.0
Zn252 Zn 0.44669 0.48057 0.75005 0.0
Zn253 Zn 0.43035 0.5072 0.75333 0.0
O254 O 0.4479 0.51268 0.77867 0.0
O255 O 0.45942 0.48806 0.77698 0.0
O256 O 0.41777 0.52853 0.75598 0.0
O257 O 0.45829 0.48999 0.72958 0.0
O258 O 0.44216 0.5109 0.72929 0.0
C259 C 0.45793 0.50322 0.78629 0.0
C260 C 0.41108 0.46521 0.74828 0.0
O261 O 0.41122 0.48264 0.75248 0.0
O262 O 0.42469 0.46043 0.74442 0.0
C263 C 0.41766 0.5374 0.77243 0.0
O264 O 0.42505 0.5321 0.78787 0.0
C265 C 0.45357 0.50343 0.72257 0.0
Zn266 Zn 0.64327 0.02382 0.79085 0.0
Zn267 Zn 0.66049 0.99838 0.78912 0.0
O268 O 0.647 0.99866 0.81571 0.0
O269 O 0.63272 0.0212 0.81407 0.0
O270 O 0.67429 0.97356 0.78707 0.0
O271 O 0.62835 0.01749 0.76482 0.0
O272 O 0.64355 0.99637 0.75942 0.0
C273 C 0.63707 0.00867 0.82298 0.0
C274 C 0.6789 0.04241 0.79404 0.0
O275 O 0.68066 0.02521 0.79265 0.0
O276 O 0.66383 0.04547 0.79372 0.0
C277 C 0.68307 0.96634 0.80001 0.0
O278 O 0.68482 0.97417 0.81796 0.0
C279 C 0.63198 0.00535 0.75295 0.0
Zn280 Zn 0.7513 0.68162 0.01007 0.0
Zn281 Zn 0.77236 0.65872 0.00956 0.0
O282 O 0.77546 0.67223 0.98521 0.0
O283 O 0.75701 0.69066 0.98627 0.0
O284 O 0.79083 0.64282 0.01184 0.0
O285 O 0.76431 0.69691 0.03504 0.0
O286 O 0.78062 0.67626 0.03597 0.0
C287 C 0.76837 0.68467 0.97833 0.0
C288 C 0.73255 0.64364 0.00912 0.0
O289 O 0.74763 0.64025 0.00843 0.0
O290 O 0.73062 0.66032 0.00989 0.0
C291 C 0.80657 0.64977 0.01014 0.0
O292 O 0.81042 0.66659 0.00525 0.0
C293 C 0.7765 0.69085 0.04376 0.0
Zn294 Zn 0.92225 0.51484 0.7569 0.0
Zn295 Zn 0.90438 0.5402 0.75792 0.0
O296 O 0.92069 0.54178 0.78767 0.0
O297 O 0.93658 0.52097 0.78356 0.0
O298 O 0.89179 0.56554 0.75888 0.0
O299 O 0.93372 0.51909 0.73441 0.0
O300 O 0.91746 0.5396 0.73113 0.0
C301 C 0.93225 0.5331 0.7948 0.0
C302 C 0.88563 0.49704 0.75289 0.0
O303 O 0.88409 0.51427 0.755 0.0
O304 O 0.90055 0.49372 0.75246 0.0
C305 C 0.87569 0.56653 0.75311 0.0
O306 O 0.86432 0.55061 0.74545 0.0
C307 C 0.92842 0.5306 0.72463 0.0
Zn308 Zn 0.77196 0.31152 0.49884 0.0
Zn309 Zn 0.74218 0.34293 0.50402 0.0
O310 O 0.74075 0.34255 0.47555 0.0
O311 O 0.76182 0.33161 0.48868 0.0
O312 O 0.72435 0.3548 0.51217 0.0
O313 O 0.75558 0.29774 0.51562 0.0
O314 O 0.73863 0.31508 0.5051 0.0
C315 C 0.75203 0.33299 0.47368 0.0
C316 C 0.7819 0.3568 0.51656 0.0
O317 O 0.7664 0.35903 0.51664 0.0
O318 O 0.78473 0.34092 0.50975 0.0
C319 C 0.72364 0.36933 0.50454 0.0
O320 O 0.73393 0.37419 0.49235 0.0
C321 C 0.74315 0.30575 0.51788 0.0
Zn322 Zn 0.61159 0.55261 0.29218 0.0
Zn323 Zn 0.63274 0.5294 0.29396 0.0
O324 O 0.62104 0.52574 0.31796 0.0
O325 O 0.60411 0.54585 0.31625 0.0
O326 O 0.64563 0.50907 0.28978 0.0
O327 O 0.59726 0.53985 0.2668 0.0
O328 O 0.61709 0.52309 0.26746 0.0
C329 C 0.60984 0.53362 0.32461 0.0
C330 C 0.64838 0.57033 0.29383 0.0
O331 O 0.65113 0.55424 0.29612 0.0
O332 O 0.63298 0.57287 0.29194 0.0
C333 C 0.65633 0.50324 0.3012 0.0
O334 O 0.66036 0.51088 0.3194 0.0
C335 C 0.60374 0.52744 0.25874 0.0
Tb336 Tb 0.0163 0.01303 0.01762 0.0
Tb337 Tb 0.05376 0.02827 0.03413 0.0
C338 C 0.98394 0.00883 0.01006 0.0
C339 C 0.97344 0.02294 0.00968 0.0
C340 C 0.97338 0.03491 0.0266 0.0
C341 C 0.96332 0.04815 0.02613 0.0
C342 C 0.95335 0.04973 0.00877 0.0
C343 C 0.95399 0.03853 0.99171 0.0
C344 C 0.96395 0.02509 0.99218 0.0
C345 C 0.03741 0.00985 0.99321 0.0
C346 C 0.03384 0.05734 0.0208 0.0
C347 C 0.0861 0.03211 0.04088 0.0
C348 C 0.09616 0.0176 0.04238 0.0
C349 C 0.09747 0.00592 0.02582 0.0
C350 C 0.10579 0.99125 0.02734 0.0
C351 C 0.11294 0.98795 0.04543 0.0
C352 C 0.11162 0.99955 0.06201 0.0
C353 C 0.10333 0.01432 0.06049 0.0
C354 C 0.03269 0.03158 0.0586 0.0
C355 C 0.03592 0.98394 0.03161 0.0
O356 O 0.99236 0.00769 0.02695 0.0
O357 O 0.99356 0.00834 0.99679 0.0
O358 O 0.03877 0.02366 0.00607 0.0
O359 O 0.02331 0.99718 0.99325 0.0
O360 O 0.01947 0.04391 0.01986 0.0
O361 O 0.04955 0.05401 0.02472 0.0
O362 O 0.07723 0.03188 0.02379 0.0
O363 O 0.07701 0.03444 0.05442 0.0
O364 O 0.03129 0.01778 0.0457 0.0
O365 O 0.047 0.04407 0.05875 0.0
O366 O 0.05042 0.99735 0.03289 0.0
O367 O 0.02029 0.98731 0.02713 0.0
H368 H 0.98086 0.03391 0.04027 0.0
H369 H 0.96293 0.05684 0.0394 0.0
H370 H 0.94622 0.03963 0.97824 0.0
H371 H 0.96407 0.01621 0.97895 0.0
H372 H 0.09202 0.00799 0.01162 0.0
H373 H 0.10699 0.98279 0.0143 0.0
H374 H 0.11702 0.99722 0.07612 0.0
H375 H 0.10235 0.02302 0.07347 0.0
Tb376 Tb 0.28401 0.76374 0.26219 0.0
Tb377 Tb 0.27664 0.78043 0.29953 0.0
C378 C 0.2821 0.75703 0.22712 0.0
C379 C 0.29044 0.77045 0.21591 0.0
C380 C 0.28689 0.78844 0.21683 0.0
C381 C 0.29498 0.80139 0.20656 0.0
C382 C 0.30632 0.79635 0.19482 0.0
C383 C 0.31097 0.77903 0.19496 0.0
C384 C 0.30311 0.76613 0.2056 0.0
C385 C 0.3128 0.76885 0.28861 0.0
C386 C 0.29687 0.80846 0.27689 0.0
C387 C 0.27209 0.78737 0.33315 0.0
C388 C 0.26398 0.77475 0.34525 0.0
C389 C 0.27057 0.75917 0.34936 0.0
C390 C 0.2623 0.74687 0.36018 0.0
C391 C 0.24727 0.74987 0.36701 0.0
C392 C 0.24037 0.76509 0.36242 0.0
C393 C 0.24867 0.77744 0.35154 0.0
C394 C 0.25337 0.7808 0.26905 0.0
C395 C 0.26682 0.73493 0.28649 0.0
O396 O 0.2694 0.76176 0.23485 0.0
O397 O 0.29291 0.75082 0.23902 0.0
O398 O 0.29836 0.77257 0.2907 0.0
O399 O 0.31136 0.76194 0.27078 0.0
O400 O 0.29162 0.79453 0.26204 0.0
O401 O 0.29453 0.80547 0.29429 0.0
O402 O 0.28707 0.78507 0.32889 0.0
O403 O 0.26128 0.78945 0.31833 0.0
O404 O 0.2606 0.7674 0.27224 0.0
O405 O 0.25948 0.7946 0.28321 0.0
O406 O 0.26713 0.7497 0.2995 0.0
O407 O 0.27263 0.73692 0.27033 0.0
H408 H 0.27739 0.79237 0.22491 0.0
H409 H 0.29089 0.81451 0.20612 0.0
H410 H 0.31941 0.77486 0.18553 0.0
H411 H 0.30639 0.75254 0.20518 0.0
H412 H 0.2822 0.75655 0.34444 0.0
H413 H 0.2682 0.73553 0.364 0.0
H414 H 0.22892 0.76772 0.36775 0.0
H415 H 0.24321 0.7892 0.34816 0.0
Tb416 Tb 0.5483 0.01913 0.51849 0.0
Tb417 Tb 0.51162 0.0145 0.52867 0.0
C418 C 0.57869 0.01561 0.51505 0.0
C419 C 0.58931 1.00119 0.51422 0.0
C420 C 0.59544 0.99404 0.53064 0.0
C421 C 0.60735 0.98245 0.53002 0.0
C422 C 0.61346 0.97767 0.51297 0.0
C423 C 0.60667 0.9842 0.49639 0.0
C424 C 0.59486 0.99585 0.49705 0.0
C425 C 0.52367 0.02439 0.49072 0.0
C426 C 0.52305 0.97811 0.51492 0.0
C427 C 0.48004 0.01671 0.52544 0.0
C428 C 0.46971 0.03103 0.52937 0.0
C429 C 0.46262 0.0391 0.51412 0.0
C430 C 0.45155 0.05126 0.51682 0.0
C431 C 0.44717 0.05584 0.53489 0.0
C432 C 0.45457 0.04807 0.55032 0.0
C433 C 0.46566 0.03577 0.54758 0.0
C434 C 0.53541 0.01474 0.56063 0.0
C435 C 0.53756 0.05492 0.53513 0.0
O436 O 0.57435 0.02103 0.53145 0.0
O437 O 0.566 0.01408 0.50053 0.0
O438 O 0.52176 0.01217 0.50198 0.0
O439 O 0.53989 0.03393 0.49517 0.0
O440 O 0.5388 0.98876 0.5153 0.0
O441 O 0.50968 0.9849 0.51897 0.0
O442 O 0.4894 0.01915 0.51202 0.0
O443 O 0.48822 0.01067 0.53987 0.0
O444 O 0.53764 0.01615 0.54359 0.0
O445 O 0.51878 0.01354 0.55993 0.0
O446 O 0.52128 0.04474 0.53153 0.0
O447 O 0.55113 0.04755 0.53337 0.0
H448 H 0.59151 0.99789 0.54416 0.0
H449 H 0.61231 0.97792 0.54317 0.0
H450 H 0.61066 0.98056 0.48287 0.0
H451 H 0.59044 1.00114 0.48416 0.0
H452 H 0.46523 0.0356 0.49984 0.0
H453 H 0.44593 0.05651 0.50443 0.0
H454 H 0.45173 0.05137 0.56451 0.0
H455 H 0.4708 0.02976 0.55966 0.0
Tb456 Tb 0.26624 0.2723 0.77528 0.0
Tb457 Tb 0.30467 0.26493 0.78102 0.0
C458 C 0.23628 0.27657 0.77949 0.0
C459 C 0.22504 0.27806 0.79421 0.0
C460 C 0.21886 0.26285 0.80345 0.0
C461 C 0.20637 0.2639 0.81524 0.0
C462 C 0.19971 0.28013 0.81806 0.0
C463 C 0.20657 0.29563 0.80951 0.0
C464 C 0.21902 0.29457 0.79773 0.0
C465 C 0.2921 0.29837 0.76898 0.0
C466 C 0.2905 0.27869 0.81697 0.0
C467 C 0.33618 0.27021 0.77713 0.0
C468 C 0.34695 0.26367 0.7635 0.0
C469 C 0.34823 0.27144 0.7466 0.0
C470 C 0.36029 0.26757 0.73522 0.0
C471 C 0.37162 0.25599 0.74047 0.0
C472 C 0.36968 0.24737 0.7568 0.0
C473 C 0.35753 0.25122 0.7682 0.0
C474 C 0.28044 0.23412 0.78174 0.0
C475 C 0.27852 0.25369 0.74004 0.0
O476 O 0.23953 0.26018 0.77404 0.0
O477 O 0.24994 0.29057 0.78084 0.0
O478 O 0.29273 0.28829 0.78186 0.0
O479 O 0.27613 0.29486 0.75965 0.0
O480 O 0.27465 0.27494 0.80618 0.0
O481 O 0.30486 0.27713 0.81025 0.0
O482 O 0.32554 0.28044 0.77085 0.0
O483 O 0.32927 0.25844 0.78787 0.0
O484 O 0.27864 0.25023 0.77925 0.0
O485 O 0.29716 0.23497 0.78431 0.0
O486 O 0.29464 0.25767 0.75026 0.0
O487 O 0.26463 0.25675 0.74701 0.0
H488 H 0.22327 0.24994 0.80116 0.0
H489 H 0.20168 0.25181 0.82187 0.0
H490 H 0.20172 0.30831 0.81116 0.0
H491 H 0.22347 0.30649 0.79075 0.0
H492 H 0.34032 0.28108 0.74241 0.0
H493 H 0.36099 0.27409 0.72251 0.0
H494 H 0.37815 0.23839 0.76137 0.0
H495 H 0.35693 0.24502 0.78112 0.0
Tb496 Tb 0.03057 0.03949 0.52633 0.0
Tb497 Tb 0.03502 0.99707 0.51888 0.0
C498 C 0.03563 0.07381 0.52573 0.0
C499 C 0.02669 0.08408 0.51279 0.0
C500 C 0.03496 0.09081 0.49816 0.0
C501 C 0.02627 0.09912 0.48457 0.0
C502 C 0.00932 0.10116 0.48565 0.0
C503 C 1.0009 0.09432 0.50008 0.0
C504 C 0.00948 0.08564 0.51352 0.0
C505 C 1.00056 0.01389 0.52437 0.0
C506 C 0.01985 0.0152 0.48442 0.0
C507 C 0.02979 0.96266 0.51914 0.0
C508 C 0.03767 0.95191 0.53249 0.0
C509 C 0.02732 0.94278 0.54435 0.0
C510 C 0.03432 0.93246 0.55717 0.0
C511 C 0.05172 0.93108 0.55823 0.0
C512 C 0.0624 0.9408 0.54708 0.0
C513 C 0.05541 0.95126 0.53425 0.0
C514 C 0.06539 0.02247 0.52081 0.0
C515 C 0.04344 0.02079 0.56103 0.0
O516 O 0.04396 0.06282 0.51702 0.0
O517 O 0.02688 0.06571 0.53791 0.0
O518 O 0.01565 0.01176 0.52315 0.0
O519 O 1.00203 0.03198 0.52687 0.0
O520 O 0.02345 0.03191 0.49545 0.0
O521 O 0.02247 0.99958 0.49052 0.0
O522 O 0.0203 0.97318 0.52655 0.0
O523 O 0.03979 0.97118 0.50825 0.0
O524 O 0.05041 0.025 0.52241 0.0
O525 O 0.06343 0.00432 0.51808 0.0
O526 O 0.03993 0.00415 0.54988 0.0
O527 O 0.04259 0.03681 0.55474 0.0
H528 H 0.04817 0.08959 0.4972 0.0
H529 H 0.0331 0.10475 0.47375 0.0
H530 H 0.98787 0.09609 0.50116 0.0
H531 H 1.00269 0.08027 0.52445 0.0
H532 H 0.01372 0.94338 0.54349 0.0
H533 H 0.02596 0.92493 0.56574 0.0
H534 H 0.07583 0.93962 0.54772 0.0
H535 H 0.06377 0.95848 0.52552 0.0
Tb536 Tb 0.28949 0.75351 0.77689 0.0
Tb537 Tb 0.28583 0.79467 0.777 0.0
C538 C 0.29211 0.7205 0.76779 0.0
C539 C 0.30558 0.70989 0.77246 0.0
C540 C 0.31718 0.70766 0.75987 0.0
C541 C 0.32892 0.69631 0.7631 0.0
C542 C 0.32937 0.68704 0.77909 0.0
C543 C 0.31845 0.68998 0.79229 0.0
C544 C 0.30655 0.70123 0.78894 0.0
C545 C 0.28829 0.77186 0.80984 0.0
C546 C 0.32221 0.78631 0.79285 0.0
C547 C 0.28424 0.82852 0.7815 0.0
C548 C 0.27036 0.83858 0.77686 0.0
C549 C 0.25907 0.84121 0.78978 0.0
C550 C 0.24701 0.85215 0.78619 0.0
C551 C 0.24598 0.86053 0.76963 0.0
C552 C 0.25662 0.85731 0.75627 0.0
C553 C 0.26881 0.84646 0.75991 0.0
C554 C 0.28702 0.77531 0.74463 0.0
C555 C 0.25229 0.7625 0.76673 0.0
O556 O 0.29604 0.73378 0.7574 0.0
O557 O 0.28409 0.72553 0.78162 0.0
O558 O 0.28009 0.77317 0.79385 0.0
O559 O 0.29636 0.75831 0.80813 0.0
O560 O 0.31655 0.7682 0.78565 0.0
O561 O 0.31249 0.79875 0.79204 0.0
O562 O 0.28237 0.81787 0.79472 0.0
O563 O 0.28985 0.82057 0.76702 0.0
O564 O 0.29587 0.77515 0.76057 0.0
O565 O 0.27736 0.78732 0.74587 0.0
O566 O 0.25902 0.78036 0.77442 0.0
O567 O 0.26192 0.75012 0.764 0.0
H568 H 0.31694 0.7144 0.74728 0.0
H569 H 0.33738 0.69441 0.75284 0.0
H570 H 0.31854 0.68287 0.80469 0.0
H571 H 0.29782 0.70273 0.79898 0.0
H572 H 0.25989 0.83533 0.80295 0.0
H573 H 0.23888 0.85462 0.79666 0.0
H574 H 0.25608 0.86391 0.74353 0.0
H575 H 0.27738 0.84472 0.74974 0.0
Tb576 Tb 0.51004 0.02377 0.00517 0.0
Tb577 Tb 0.54408 0.03024 0.03304 0.0
C578 C 0.47953 0.00987 0.98722 0.0
C579 C 0.46244 1.00359 0.99295 0.0
C580 C 0.45817 0.98624 0.99951 0.0
C581 C 0.44151 0.9796 0.00334 0.0
C582 C 0.42887 0.99017 0.00079 0.0
C583 C 0.43325 0.0079 0.99521 0.0
C584 C 0.44995 0.01456 0.99124 0.0
C585 C 0.52597 0.05883 0.0183 0.0
C586 C 0.51011 0.02424 0.05143 0.0
C587 C 0.57466 0.04474 0.05004 0.0
C588 C 0.59126 0.04962 0.04298 0.0
C589 C 0.59513 0.06548 0.03384 0.0
C590 C 0.61133 0.07068 0.02834 0.0
C591 C 0.6239 0.0602 0.03202 0.0
C592 C 0.61977 0.04383 0.04017 0.0
C593 C 0.60351 0.03852 0.04556 0.0
C594 C 0.52856 0.99517 0.01857 0.0
C595 C 0.54456 0.02879 0.98691 0.0
O596 O 0.49106 0.99984 0.99107 0.0
O597 O 0.48653 0.02805 0.99079 0.0
O598 O 0.52463 0.0453 0.02743 0.0
O599 O 0.51679 0.05315 0.00112 0.0
O600 O 0.50128 0.01903 0.0333 0.0
O601 O 0.5274 0.03084 0.05485 0.0
O602 O 0.5632 0.05465 0.04542 0.0
O603 O 0.56746 0.0267 0.04844 0.0
O604 O 0.52966 0.00935 0.01057 0.0
O605 O 0.53785 1.00017 0.03578 0.0
O606 O 0.55323 0.03404 0.00506 0.0
O607 O 0.52715 0.02262 0.98342 0.0
H608 H 0.46747 0.97747 0.00111 0.0
H609 H 0.43824 0.96581 0.00756 0.0
H610 H 0.42352 0.01612 0.99302 0.0
H611 H 0.45292 0.028 0.98627 0.0
H612 H 0.58592 0.07426 0.03148 0.0
H613 H 0.61444 0.08354 0.02233 0.0
H614 H 0.62943 0.03567 0.04317 0.0
H615 H 0.60078 0.02612 0.05235 0.0
Tb616 Tb 0.2635 0.25505 0.26774 0.0
Tb617 Tb 0.29734 0.28073 0.2794 0.0
C618 C 0.23296 0.23819 0.26874 0.0
C619 C 0.2176 0.24509 0.27259 0.0
C620 C 0.21759 0.25515 0.29067 0.0
C621 C 0.20293 0.26154 0.29414 0.0
C622 C 0.18809 0.25798 0.27963 0.0
C623 C 0.1882 0.24836 0.26147 0.0
C624 C 0.20289 0.24197 0.25796 0.0
C625 C 0.27612 0.26802 0.23889 0.0
C626 C 0.266 0.30063 0.28073 0.0
C627 C 0.32779 0.29759 0.27833 0.0
C628 C 0.34256 0.29039 0.27298 0.0
C629 C 0.34313 0.28516 0.25353 0.0
C630 C 0.357 0.27829 0.2484 0.0
C631 C 0.37059 0.27668 0.26257 0.0
C632 C 0.36983 0.28123 0.282 0.0
C633 C 0.35589 0.28813 0.28719 0.0
C634 C 0.2843 0.26774 0.30803 0.0
C635 C 0.29518 0.23538 0.26657 0.0
O636 O 0.24599 0.24123 0.28325 0.0
O637 O 0.2382 0.24161 0.25277 0.0
O638 O 0.277 0.27715 0.2553 0.0
O639 O 0.26738 0.25079 0.23805 0.0
O640 O 0.2562 0.28285 0.27641 0.0
O641 O 0.28323 0.30347 0.2821 0.0
O642 O 0.31449 0.29568 0.26436 0.0
O643 O 0.32289 0.29328 0.29422 0.0
O644 O 0.28384 0.25862 0.29177 0.0
O645 O 0.293 0.28501 0.30893 0.0
O646 O 0.30486 0.25316 0.27098 0.0
O647 O 0.27789 0.23237 0.265 0.0
H648 H 0.2288 0.25795 0.30222 0.0
H649 H 0.20301 0.26878 0.30833 0.0
H650 H 0.17687 0.24564 0.25007 0.0
H651 H 0.20272 0.23446 0.24387 0.0
H652 H 0.33296 0.28648 0.24219 0.0
H653 H 0.35728 0.27456 0.23331 0.0
H654 H 0.38029 0.28011 0.29312 0.0
H655 H 0.35565 0.29189 0.30226 0.0
Tb656 Tb 0.53183 0.5395 0.02765 0.0
Tb657 Tb 0.53656 0.49967 0.01826 0.0
C658 C 0.53738 0.57391 0.02778 0.0
C659 C 0.52869 0.58404 0.01436 0.0
C660 C 0.53724 0.59073 0.9999 0.0
C661 C 0.52871 0.59888 0.98598 0.0
C662 C 0.51157 0.60069 0.98647 0.0
C663 C 0.50288 0.5938 1.00069 0.0
C664 C 0.51135 0.58543 0.01452 0.0
C665 C 0.50097 0.51489 0.02428 0.0
C666 C 0.52167 0.51733 0.98487 0.0
C667 C 0.53857 0.46629 0.01754 0.0
C668 C 0.54325 0.45533 0.03239 0.0
C669 C 0.53246 0.45062 0.04576 0.0
C670 C 0.53708 0.43951 0.05918 0.0
C671 C 0.55253 0.43314 0.05937 0.0
C672 C 0.56376 0.43883 0.04678 0.0
C673 C 0.55909 0.44971 0.03329 0.0
C674 C 0.56286 0.52735 0.01528 0.0
C675 C 0.54237 0.52005 0.06178 0.0
O676 O 0.54668 0.56336 0.02002 0.0
O677 O 0.52793 0.56552 0.03922 0.0
O678 O 0.51566 0.51182 0.02249 0.0
O679 O 0.50335 0.53305 0.02802 0.0
O680 O 0.527 0.5337 0.99648 0.0
O681 O 0.52192 0.50115 0.99086 0.0
O682 O 0.5237 0.47143 0.01693 0.0
O683 O 0.55144 0.47976 0.01537 0.0
O684 O 0.55381 0.52699 0.02835 0.0
O685 O 0.55722 0.51175 0.00327 0.0
O686 O 0.53972 0.50419 0.04955 0.0
O687 O 0.54166 0.53637 0.05636 0.0
H688 H 0.55054 0.5896 0.99932 0.0
H689 H 0.53577 0.60447 0.97533 0.0
H690 H 0.48966 0.59521 0.00129 0.0
H691 H 0.50429 0.58009 0.02527 0.0
H692 H 0.52031 0.45509 0.04557 0.0
H693 H 0.52818 0.43515 0.06873 0.0
H694 H 0.57588 0.43428 0.04692 0.0
H695 H 0.56773 0.45345 0.0233 0.0
Tb696 Tb 0.79128 0.25463 0.27448 0.0
Tb697 Tb 0.78802 0.2958 0.27775 0.0
C698 C 0.797 0.22274 0.26623 0.0
C699 C 0.80949 0.21196 0.27353 0.0
C700 C 0.82256 0.20889 0.26318 0.0
C701 C 0.83298 0.19668 0.26846 0.0
C702 C 0.83036 0.18729 0.28403 0.0
C703 C 0.81784 0.19083 0.29489 0.0
C704 C 0.80752 0.20319 0.28976 0.0
C705 C 0.79176 0.27191 0.30903 0.0
C706 C 0.82488 0.28864 0.28108 0.0
C707 C 0.78146 0.32708 0.28694 0.0
C708 C 0.76794 0.33697 0.2805 0.0
C709 C 0.75552 0.33936 0.29198 0.0
C710 C 0.74396 0.3506 0.28741 0.0
C711 C 0.74474 0.35981 0.27139 0.0
C712 C 0.75643 0.35656 0.25922 0.0
C713 C 0.768 0.34524 0.26377 0.0
C714 C 0.78635 0.27831 0.24299 0.0
C715 C 0.75422 0.26212 0.27092 0.0
O716 O 0.80306 0.23711 0.25799 0.0
O717 O 0.78595 0.22623 0.27723 0.0
O718 O 0.79827 0.27866 0.29599 0.0
O719 O 0.78588 0.25397 0.30353 0.0
O720 O 0.81767 0.27077 0.27345 0.0
O721 O 0.81564 0.30008 0.28758 0.0
O722 O 0.77644 0.31249 0.29529 0.0
O723 O 0.79218 0.32429 0.27523 0.0
O724 O 0.7808 0.27163 0.25652 0.0
O725 O 0.79178 0.2964 0.2478 0.0
O726 O 0.76167 0.27986 0.27876 0.0
O727 O 0.76349 0.25055 0.2646 0.0
H728 H 0.82424 0.21532 0.25055 0.0
H729 H 0.84248 0.19382 0.2598 0.0
H730 H 0.81562 0.18349 0.30685 0.0
H731 H 0.79755 0.20522 0.29804 0.0
H732 H 0.75513 0.33308 0.30489 0.0
H733 H 0.73482 0.35266 0.29682 0.0
H734 H 0.75727 0.36355 0.24681 0.0
H735 H 0.77738 0.34357 0.25456 0.0
Tb736 Tb 0.01127 0.52538 0.50479 0.0
Tb737 Tb 0.04434 0.52924 0.53331 0.0
C738 C 0.98106 0.51253 0.48569 0.0
C739 C 0.96399 0.50535 0.49103 0.0
C740 C 0.95937 0.48676 0.4946 0.0
C741 C 0.94352 0.48012 0.50023 0.0
C742 C 0.9319 0.49185 0.50226 0.0
C743 C 0.93636 0.51038 0.49858 0.0
C744 C 0.95234 0.51711 0.49303 0.0
C745 C 0.02818 0.55984 0.51923 0.0
C746 C 0.00977 0.52458 0.5507 0.0
C747 C 0.07506 0.54258 0.55073 0.0
C748 C 0.09176 0.54784 0.54392 0.0
C749 C 0.09577 0.56423 0.53559 0.0
C750 C 0.11196 0.56972 0.53017 0.0
C751 C 0.12449 0.55902 0.53309 0.0
C752 C 0.12022 0.54219 0.54052 0.0
C753 C 0.10396 0.53663 0.54587 0.0
C754 C 0.02687 0.49482 0.51959 0.0
C755 C 0.04596 0.52875 0.48751 0.0
O756 O 0.99259 0.50231 0.48846 0.0
O757 O 0.988 0.53062 0.491 0.0
O758 O 0.0262 0.54583 0.52772 0.0
O759 O 0.01934 0.55503 0.50181 0.0
O760 O 1.00131 0.52133 0.5324 0.0
O761 O 0.0272 0.5293 0.55474 0.0
O762 O 0.06386 0.55289 0.54673 0.0
O763 O 0.06755 0.52454 0.54811 0.0
O764 O 0.02915 0.50857 0.51072 0.0
O765 O 0.03614 0.49992 0.53681 0.0
O766 O 0.05429 0.53098 0.50564 0.0
O767 O 0.02862 0.52573 0.48342 0.0
H768 H 0.96796 0.47727 0.49304 0.0
H769 H 0.94016 0.46562 0.50258 0.0
H770 H 0.92751 0.5196 0.49999 0.0
H771 H 0.95556 0.53149 0.49032 0.0
H772 H 0.08663 0.57316 0.53373 0.0
H773 H 0.11505 0.58289 0.52471 0.0
H774 H 0.12972 0.53371 0.54281 0.0
H775 H 0.10112 0.52384 0.55203 0.0
Tb776 Tb 0.76573 0.77166 0.27369 0.0
Tb777 Tb 0.80215 0.76376 0.28037 0.0
C778 C 0.73489 0.77384 0.27669 0.0
C779 C 0.72417 0.7776 0.29156 0.0
C780 C 0.71863 0.76419 0.30313 0.0
C781 C 0.70654 0.76686 0.31505 0.0
C782 C 0.69959 0.783 0.31574 0.0
C783 C 0.70582 0.7968 0.30481 0.0
C784 C 0.71785 0.7941 0.29287 0.0
C785 C 0.7917 0.79883 0.26975 0.0
C786 C 0.78834 0.77766 0.31613 0.0
C787 C 0.83316 0.76216 0.27772 0.0
C788 C 0.8443 0.75968 0.26299 0.0
C789 C 0.85217 0.77508 0.25493 0.0
C790 C 0.86471 0.77341 0.24342 0.0
C791 C 0.86982 0.75633 0.23963 0.0
C792 C 0.86128 0.74062 0.24681 0.0
C793 C 0.84876 0.74231 0.25845 0.0
C794 C 0.77651 0.73659 0.28479 0.0
C795 C 0.77915 0.75732 0.23801 0.0
O796 O 0.74003 0.75802 0.27536 0.0
O797 O 0.74699 0.78798 0.27418 0.0
O798 O 0.79201 0.7883 0.28227 0.0
O799 O 0.77609 0.79513 0.25947 0.0
O800 O 0.77291 0.77428 0.30469 0.0
O801 O 0.80284 0.77629 0.30968 0.0
O802 O 0.82801 0.77795 0.28012 0.0
O803 O 0.8209 0.74757 0.27896 0.0
O804 O 0.77589 0.74711 0.27222 0.0
O805 O 0.79231 0.74028 0.29464 0.0
O806 O 0.79476 0.76078 0.24915 0.0
O807 O 0.76472 0.75843 0.24468 0.0
H808 H 0.72314 0.75128 0.30252 0.0
H809 H 0.70206 0.7558 0.32305 0.0
H810 H 0.70115 0.8096 0.30517 0.0
H811 H 0.72182 0.80472 0.28416 0.0
H812 H 0.84912 0.78867 0.25804 0.0
H813 H 0.87076 0.78571 0.23782 0.0
H814 H 0.86489 0.72727 0.24424 0.0
H815 H 0.84305 0.73018 0.26449 0.0
Tb816 Tb 0.78366 0.26447 0.76277 0.0
Tb817 Tb 0.77836 0.28006 0.79816 0.0
C818 C 0.78638 0.25856 0.72843 0.0
C819 C 0.79379 0.2719 0.71657 0.0
C820 C 0.78619 0.28692 0.71264 0.0
C821 C 0.79323 0.29927 0.70111 0.0
C822 C 0.80785 0.29669 0.69329 0.0
C823 C 0.81614 0.28251 0.69823 0.0
C824 C 0.80915 0.27017 0.70984 0.0
C825 C 0.80938 0.26389 0.79081 0.0
C826 C 0.79623 0.30944 0.77592 0.0
C827 C 0.7751 0.28702 0.83235 0.0
C828 C 0.76632 0.27486 0.84444 0.0
C829 C 0.77208 0.25885 0.84875 0.0
C830 C 0.76337 0.24718 0.85981 0.0
C831 C 0.74875 0.25128 0.86676 0.0
C832 C 0.74267 0.26694 0.86202 0.0
C833 C 0.75138 0.27864 0.85085 0.0
C834 C 0.75293 0.28057 0.76973 0.0
C835 C 0.76591 0.23494 0.78494 0.0
O836 O 0.77186 0.26071 0.73391 0.0
O837 O 0.79766 0.25559 0.74229 0.0
O838 O 0.80221 0.27752 0.78887 0.0
O839 O 0.80192 0.25012 0.77698 0.0
O840 O 0.79097 0.29518 0.76144 0.0
O841 O 0.79461 0.30628 0.79336 0.0
O842 O 0.78921 0.28305 0.82727 0.0
O843 O 0.76466 0.29061 0.8181 0.0
O844 O 0.75993 0.26695 0.77213 0.0
O845 O 0.7603 0.29448 0.7834 0.0
O846 O 0.77093 0.24922 0.79947 0.0
O847 O 0.76774 0.23812 0.76755 0.0
H848 H 0.77455 0.28887 0.71799 0.0
H849 H 0.78643 0.3099 0.69709 0.0
H850 H 0.8273 0.28024 0.69206 0.0
H851 H 0.81541 0.25893 0.71308 0.0
H852 H 0.78344 0.25543 0.84383 0.0
H853 H 0.76864 0.23548 0.86375 0.0
H854 H 0.73156 0.27042 0.86747 0.0
H855 H 0.74659 0.29077 0.84741 0.0
Tb856 Tb 0.76383 0.75473 0.76789 0.0
Tb857 Tb 0.79791 0.78018 0.77882 0.0
C858 C 0.73343 0.73855 0.77016 0.0
C859 C 0.71863 0.74611 0.77479 0.0
C860 C 0.71988 0.75716 0.79271 0.0
C861 C 0.70576 0.76414 0.79702 0.0
C862 C 0.69015 0.76025 0.78353 0.0
C863 C 0.68908 0.74978 0.76539 0.0
C864 C 0.70323 0.74273 0.76107 0.0
C865 C 0.77609 0.76622 0.73833 0.0
C866 C 0.76673 0.80046 0.77993 0.0
C867 C 0.82877 0.79615 0.77811 0.0
C868 C 0.84327 0.78811 0.77323 0.0
C869 C 0.84389 0.78195 0.75397 0.0
C870 C 0.85727 0.77377 0.74942 0.0
C871 C 0.87027 0.77157 0.76401 0.0
C872 C 0.8695 0.77735 0.78325 0.0
C873 C 0.85614 0.78563 0.78783 0.0
C874 C 0.78527 0.76761 0.80791 0.0
C875 C 0.7952 0.73473 0.76606 0.0
O876 O 0.74685 0.74134 0.78417 0.0
O877 O 0.73812 0.74163 0.75384 0.0
O878 O 0.77754 0.77612 0.75456 0.0
O879 O 0.76685 0.74933 0.73816 0.0
O880 O 0.7568 0.78279 0.77542 0.0
O881 O 0.784 0.80321 0.78166 0.0
O882 O 0.81571 0.79455 0.76398 0.0
O883 O 0.82346 0.79227 0.79392 0.0
O884 O 0.78447 0.75836 0.79162 0.0
O885 O 0.79389 0.78483 0.8085 0.0
O886 O 0.80492 0.75248 0.76972 0.0
O887 O 0.77801 0.73187 0.76543 0.0
H888 H 0.73171 0.76034 0.8035 0.0
H889 H 0.70701 0.77246 0.811 0.0
H890 H 0.67713 0.74651 0.75478 0.0
H891 H 0.70209 0.73445 0.7471 0.0
H892 H 0.83412 0.78354 0.74234 0.0
H893 H 0.85774 0.76976 0.73444 0.0
H894 H 0.87935 0.77568 0.79475 0.0
H895 H 0.85587 0.79009 0.80278 0.0
Tb896 Tb 0.51476 0.51492 0.51954 0.0
Tb897 Tb 0.55292 0.5248 0.53152 0.0
C898 C 0.4823 0.50859 0.51626 0.0
C899 C 0.47139 0.52241 0.51442 0.0
C900 C 0.46858 0.53294 0.53096 0.0
C901 C 0.46036 0.54773 0.52948 0.0
C902 C 0.45464 0.55223 0.51145 0.0
C903 C 0.45707 0.54152 0.49486 0.0
C904 C 0.46539 0.52673 0.49633 0.0
C905 C 0.53202 0.51472 0.49099 0.0
C906 C 0.53406 0.55635 0.51934 0.0
C907 C 0.58534 0.53217 0.53544 0.0
C908 C 0.59629 0.51869 0.538 0.0
C909 C 0.59239 0.50165 0.52513 0.0
C910 C 0.60224 0.48848 0.52779 0.0
C911 C 0.61599 0.49204 0.54347 0.0
C912 C 0.61939 0.50845 0.55701 0.0
C913 C 0.60954 0.52181 0.55426 0.0
C914 C 0.53578 0.52533 0.56004 0.0
C915 C 0.53391 0.48319 0.53189 0.0
O916 O 0.49283 0.51084 0.53279 0.0
O917 O 0.49005 0.50501 0.50181 0.0
O918 O 0.53592 0.50857 0.50642 0.0
O919 O 0.51764 0.52024 0.49085 0.0
O920 O 0.51908 0.54536 0.52095 0.0
O921 O 0.54877 0.55063 0.52137 0.0
O922 O 0.57505 0.52945 0.51869 0.0
O923 O 0.57733 0.5356 0.54967 0.0
O924 O 0.53183 0.53132 0.54455 0.0
O925 O 0.55011 0.51976 0.56021 0.0
O926 O 0.54898 0.49459 0.53108 0.0
O927 O 0.51893 0.48844 0.52869 0.0
H928 H 0.473 0.52999 0.54511 0.0
H929 H 0.45824 0.55548 0.54249 0.0
H930 H 0.45271 0.54471 0.48079 0.0
H931 H 0.46745 0.51896 0.48331 0.0
H932 H 0.58181 0.49845 0.51288 0.0
H933 H 0.5995 0.47576 0.51729 0.0
H934 H 0.63005 0.51124 0.56917 0.0
H935 H 0.61232 0.53458 0.56467 0.0
Tb936 Tb 0.04829 0.51929 0.02002 0.0
Tb937 Tb 0.01168 0.5142 0.02942 0.0
C938 C 0.07964 0.51623 0.02418 0.0
C939 C 0.08991 0.50225 0.01877 0.0
C940 C 0.09105 0.48739 0.02926 0.0
C941 C 0.10271 0.47596 0.02617 0.0
C942 C 0.11369 0.47912 0.01264 0.0
C943 C 0.11198 0.49339 0.00155 0.0
C944 C 0.10027 0.50482 0.0046 0.0
C945 C 0.02545 0.51893 0.9873 0.0
C946 C 0.02203 0.47881 0.01244 0.0
C947 C 0.98168 0.5176 0.03447 0.0
C948 C 0.97134 0.53215 0.03589 0.0
C949 C 0.96646 0.54102 0.02029 0.0
C950 C 0.95514 0.5532 0.02158 0.0
C951 C 0.94844 0.55678 0.03848 0.0
C952 C 0.95399 0.54848 0.05429 0.0
C953 C 0.96522 0.5363 0.05297 0.0
C954 C 0.03639 0.5093 0.05743 0.0
C955 C 0.03605 0.55534 0.03302 0.0
O956 O 0.06916 0.51182 0.03619 0.0
O957 O 0.07275 0.52468 0.0109 0.0
O958 O 0.02231 0.51717 0.00406 0.0
O959 O 0.04228 0.52095 0.98902 0.0
O960 O 0.03833 0.48892 0.01624 0.0
O961 O 0.00847 0.48608 0.01422 0.0
O962 O 0.98522 0.51188 0.01773 0.0
O963 O 0.99494 0.51944 0.04841 0.0
O964 O 0.03802 0.52162 0.04634 0.0
O965 O 0.02035 0.49933 0.05266 0.0
O966 O 0.02015 0.54437 0.03062 0.0
O967 O 0.04997 0.54871 0.0308 0.0
H968 H 0.08342 0.485 0.04043 0.0
H969 H 0.10374 0.46524 0.03511 0.0
H970 H 0.12004 0.49603 0.9908 0.0
H971 H 0.0998 0.51612 0.99631 0.0
H972 H 0.97097 0.53817 0.00691 0.0
H973 H 0.95109 0.5592 0.00904 0.0
H974 H 0.94945 0.55118 0.06766 0.0
H975 H 0.96881 0.52971 0.06524 0.0
H976 H 0.98386 0.19097 0.94907 0.0
H977 H 0.99103 0.16471 0.96395 0.0
H978 H 0.04609 0.18923 0.96837 0.0
H979 H 0.03894 0.21553 0.95299 0.0
H980 H 0.01369 0.13982 0.94961 0.0
H981 H 0.03733 0.17794 0.02454 0.0
H982 H 0.02273 0.18599 0.00724 0.0
H983 H 0.04536 0.18889 0.00539 0.0
C984 C 0.99751 0.19071 0.95304 0.0
C985 C 0.01083 0.2052 0.94964 0.0
C986 C 1.00158 0.17574 0.96163 0.0
C987 C 0.01908 0.1751 0.96744 0.0
C988 C 0.03249 0.18952 0.96409 0.0
H989 H 0.06018 0.08855 0.02125 0.0
H990 H 0.05747 0.11771 0.00911 0.0
C991 C 0.0284 0.2044 0.95512 0.0
C992 C 0.02302 0.15888 0.97633 0.0
H993 H 0.03707 0.14558 0.01909 0.0
C994 C 0.01889 0.14109 0.96478 0.0
C995 C 0.02981 0.16058 0.99612 0.0
C996 C 0.03403 0.17932 0.00919 0.0
C997 C 0.02129 0.12496 0.97246 0.0
C998 C 0.02763 0.12652 0.99234 0.0
C999 C 0.03213 0.14438 0.00387 0.0
C1000 C 0.02922 0.10959 0.00129 0.0
C1001 C 0.01713 0.10632 0.9592 0.0
C1002 C 0.0142 0.09555 0.00143 0.0
C1003 C 0.01566 0.0789 0.00844 0.0
C1004 C 0.03221 0.0759 0.01546 0.0
C1005 C 0.04722 0.09032 0.01594 0.0
C1006 C 0.04572 0.10704 0.00901 0.0
H1007 H 0.0162 0.10818 0.94392 0.0
H1008 H 0.02728 0.09837 0.96276 0.0
H1009 H 0.00435 0.0977 0.96093 0.0
H1010 H 1.00131 0.09732 0.99577 0.0
H1011 H 1.00382 0.06817 0.00784 0.0
H1012 H 0.10331 0.75446 0.15193 0.0
H1013 H 0.1296 0.75131 0.17287 0.0
H1014 H 0.13663 0.80811 0.202 0.0
H1015 H 0.10997 0.81102 0.18125 0.0
H1016 H 0.16237 0.77007 0.17553 0.0
H1017 H 0.14511 0.78215 0.24736 0.0
H1018 H 0.12899 0.77752 0.22559 0.0
H1019 H 0.14266 0.80086 0.2341 0.0
C1020 C 0.11014 0.76603 0.16327 0.0
C1021 C 0.10427 0.78276 0.16537 0.0
C1022 C 0.12531 0.7643 0.17512 0.0
C1023 C 0.13514 0.77934 0.18934 0.0
C1024 C 0.12912 0.79605 0.1916 0.0
H1025 H 0.23598 0.80836 0.26476 0.0
H1026 H 0.20753 0.80643 0.24515 0.0
C1027 C 0.11382 0.79773 0.17977 0.0
C1028 C 0.15219 0.7779 0.20082 0.0
H1029 H 0.17535 0.78401 0.24656 0.0
C1030 C 0.1651 0.77295 0.19108 0.0
C1031 C 0.15591 0.7815 0.22115 0.0
C1032 C 0.14238 0.78561 0.23268 0.0
C1033 C 0.18168 0.7722 0.20098 0.0
C1034 C 0.18556 0.77634 0.22128 0.0
C1035 C 0.17253 0.78092 0.23102 0.0
C1036 C 0.20331 0.77714 0.23269 0.0
C1037 C 0.19512 0.76761 0.18954 0.0
C1038 C 0.21069 0.7613 0.23234 0.0
C1039 C 0.22717 0.76238 0.24367 0.0
C1040 C 0.23657 0.77931 0.25563 0.0
C1041 C 0.22919 0.79509 0.25573 0.0
C1042 C 0.21282 0.794 0.24453 0.0
H1043 H 0.19155 0.76888 0.1742 0.0
H1044 H 0.20824 0.77705 0.19552 0.0
H1045 H 0.19608 0.75288 0.19028 0.0
H1046 H 0.20357 0.748 0.22361 0.0
H1047 H 0.23237 0.7499 0.24338 0.0
H1048 H 0.50831 0.80121 0.48317 0.0
H1049 H 0.51248 0.8347 0.49509 0.0
H1050 H 0.53563 0.84865 0.4464 0.0
H1051 H 0.53143 0.815 0.43423 0.0
H1052 H 0.5424 0.86719 0.50311 0.0
H1053 H 0.49021 0.86919 0.44229 0.0
H1054 H 0.49397 0.84735 0.44903 0.0
H1055 H 0.50859 0.86068 0.43617 0.0
C1056 C 0.51463 0.81139 0.47518 0.0
C1057 C 0.51935 0.80551 0.45764 0.0
C1058 C 0.51703 0.8305 0.48204 0.0
C1059 C 0.52407 0.84402 0.47143 0.0
C1060 C 0.52998 0.83831 0.45463 0.0
H1061 H 0.53398 0.96338 0.48414 0.0
H1062 H 0.53343 0.93034 0.47371 0.0
C1063 C 0.52769 0.81913 0.44779 0.0
C1064 C 0.52357 0.86382 0.47711 0.0
H1065 H 0.50241 0.89736 0.46413 0.0
C1066 C 0.5337 0.87383 0.49462 0.0
C1067 C 0.51206 0.87229 0.46599 0.0
C1068 C 0.50046 0.86185 0.44738 0.0
C1069 C 0.53275 0.89229 0.50121 0.0
C1070 C 0.52113 0.90063 0.49016 0.0
C1071 C 0.51111 0.8907 0.47262 0.0
C1072 C 0.52014 0.9202 0.49595 0.0
C1073 C 0.5444 0.90295 0.51969 0.0
C1074 C 0.51233 0.92521 0.51158 0.0
C1075 C 0.51238 0.94411 0.51741 0.0
C1076 C 0.5205 0.95802 0.5078 0.0
C1077 C 0.52777 0.95282 0.49183 0.0
C1078 C 0.52747 0.93403 0.48587 0.0
H1079 H 0.55422 0.89532 0.52531 0.0
H1080 H 0.55139 0.91707 0.51749 0.0
H1081 H 0.53623 0.90512 0.53067 0.0
H1082 H 0.5065 0.91456 0.51939 0.0
H1083 H 0.50679 0.94792 0.52982 0.0
H1084 H 0.51251 0.25279 0.66443 0.0
H1085 H 0.48671 0.24104 0.6785 0.0
H1086 H 0.46856 0.29105 0.66982 0.0
H1087 H 0.494 0.30275 0.65567 0.0
H1088 H 0.47446 0.25746 0.7106 0.0
H1089 H 0.42597 0.24819 0.64382 0.0
H1090 H 0.44899 0.24973 0.64395 0.0
H1091 H 0.44121 0.2708 0.6486 0.0
C1092 C 0.50306 0.26133 0.66561 0.0
C1093 C 0.50533 0.27871 0.6588 0.0
C1094 C 0.48829 0.25455 0.67361 0.0
C1095 C 0.47548 0.26497 0.67486 0.0
C1096 C 0.47801 0.28252 0.66857 0.0
H1097 H 0.39139 0.2832 0.72473 0.0
H1098 H 0.41553 0.28099 0.708 0.0
C1099 C 0.49266 0.28925 0.66057 0.0
C1100 C 0.45954 0.258 0.68298 0.0
H1101 H 0.41498 0.25148 0.67332 0.0
C1102 C 0.46142 0.25572 0.70236 0.0
C1103 C 0.44248 0.25537 0.67216 0.0
C1104 C 0.43948 0.25593 0.65092 0.0
C1105 C 0.4468 0.25242 0.71152 0.0
C1106 C 0.42994 0.25146 0.70105 0.0
C1107 C 0.42795 0.25246 0.68139 0.0
C1108 C 0.41468 0.25191 0.71071 0.0
C1109 C 0.44951 0.25106 0.73258 0.0
C1110 C 0.40597 0.23616 0.71764 0.0
C1111 C 0.39184 0.23727 0.72707 0.0
C1112 C 0.38617 0.25417 0.72976 0.0
C1113 C 0.39498 0.26981 0.72262 0.0
C1114 C 0.40895 0.26864 0.71315 0.0
H1115 H 0.46355 0.25286 0.73889 0.0
H1116 H 0.44433 0.26197 0.7405 0.0
H1117 H 0.44211 0.23708 0.73464 0.0
H1118 H 0.4101 0.22305 0.71577 0.0
H1119 H 0.38531 0.22487 0.73216 0.0
H1120 H 0.07609 0.80723 0.66565 0.0
H1121 H 0.08099 0.83667 0.65263 0.0
H1122 H 0.04487 0.809 0.60057 0.0
H1123 H 0.03979 0.77939 0.61345 0.0
H1124 H 0.09081 0.84485 0.61459 0.0
H1125 H 0.02519 0.85339 0.62657 0.0
H1126 H 0.03659 0.83816 0.63871 0.0
H1127 H 0.02557 0.83069 0.61421 0.0
C1128 C 0.06929 0.80736 0.65135 0.0
C1129 C 0.05734 0.79114 0.6406 0.0
C1130 C 0.07221 0.82412 0.64396 0.0
C1131 C 0.06314 0.82483 0.62584 0.0
C1132 C 0.05186 0.80852 0.61468 0.0
H1133 H 0.03982 0.8939 0.54868 0.0
H1134 H 0.04593 0.86987 0.56759 0.0
C1135 C 0.04899 0.7917 0.62202 0.0
C1136 C 0.06434 0.84291 0.61911 0.0
H1137 H 0.03951 0.87353 0.60735 0.0
C1138 C 0.07976 0.85137 0.61322 0.0
C1139 C 0.04993 0.85131 0.61779 0.0
C1140 C 0.03341 0.84305 0.6248 0.0
C1141 C 0.08063 0.86757 0.60465 0.0
C1142 C 0.06581 0.87527 0.60229 0.0
C1143 C 0.05082 0.86743 0.60927 0.0
C1144 C 0.06444 0.8897 0.59024 0.0
C1145 C 0.09689 0.87577 0.59723 0.0
C1146 C 0.0732 0.90863 0.59672 0.0
C1147 C 0.06978 0.92237 0.58584 0.0
C1148 C 0.05751 0.91708 0.56867 0.0
C1149 C 0.04932 0.89809 0.56195 0.0
C1150 C 0.05279 0.88446 0.57267 0.0
H1151 H 0.1069 0.86734 0.59918 0.0
H1152 H 0.09346 0.87654 0.58174 0.0
H1153 H 0.1027 0.89035 0.60491 0.0
H1154 H 0.08209 0.91277 0.61042 0.0
H1155 H 0.07606 0.93707 0.59116 0.0
H1156 H 0.453 0.74808 0.8592 0.0
H1157 H 0.42634 0.75555 0.84406 0.0
H1158 H 0.4564 0.79441 0.81424 0.0
H1159 H 0.48338 0.78724 0.82946 0.0
H1160 H 0.43231 0.80507 0.84806 0.0
H1161 H 0.40214 0.75182 0.78227 0.0
H1162 H 0.41435 0.74527 0.80272 0.0
H1163 H 0.42565 0.76074 0.78882 0.0
C1164 C 0.45395 0.7576 0.84879 0.0
C1165 C 0.4703 0.76748 0.84589 0.0
C1166 C 0.43873 0.76193 0.84031 0.0
C1167 C 0.43974 0.77572 0.82849 0.0
C1168 C 0.45567 0.78384 0.82357 0.0
H1169 H 0.34769 0.8118 0.78319 0.0
H1170 H 0.37923 0.81553 0.79437 0.0
C1171 C 0.47097 0.77957 0.83211 0.0
C1172 C 0.42441 0.78306 0.82331 0.0
H1173 H 0.3851 0.77211 0.7932 0.0
C1174 C 0.4221 0.79826 0.83581 0.0
C1175 C 0.41124 0.77369 0.80762 0.0
C1176 C 0.41332 0.75695 0.79448 0.0
C1177 C 0.40633 0.80392 0.83324 0.0
C1178 C 0.39308 0.79429 0.81774 0.0
C1179 C 0.39565 0.77958 0.80487 0.0
C1180 C 0.37553 0.79738 0.81572 0.0
C1181 C 0.40344 0.81934 0.8475 0.0
C1182 C 0.36349 0.78643 0.82464 0.0
C1183 C 0.34572 0.7839 0.81797 0.0
C1184 C 0.3401 0.79263 0.80268 0.0
C1185 C 0.35207 0.80515 0.79512 0.0
C1186 C 0.3699 0.80735 0.80151 0.0
H1187 H 0.4158 0.82712 0.8573 0.0
H1188 H 0.39761 0.82944 0.83989 0.0
H1189 H 0.394 0.81304 0.85622 0.0
H1190 H 0.36782 0.77847 0.83544 0.0
H1191 H 0.33644 0.77415 0.82379 0.0
H1192 H 0.52215 0.18243 0.14828 0.0
H1193 H 0.51941 0.15978 0.1191 0.0
H1194 H 0.56761 0.1923 0.10751 0.0
H1195 H 0.57013 0.21527 0.13648 0.0
H1196 H 0.52038 0.16672 0.07879 0.0
H1197 H 0.57345 0.13685 0.11406 0.0
H1198 H 0.56233 0.15153 0.12735 0.0
H1199 H 0.57851 0.16196 0.11442 0.0
C1200 C 0.53206 0.18467 0.1394 0.0
C1201 C 0.54643 0.20019 0.14445 0.0
C1202 C 0.53044 0.17193 0.1228 0.0
C1203 C 0.54337 0.1745 0.11144 0.0
C1204 C 0.55756 0.19026 0.11625 0.0
H1205 H 0.5519 0.08957 0.01862 0.0
H1206 H 0.55721 0.12023 0.03967 0.0
C1207 C 0.559 0.20323 0.13267 0.0
C1208 C 0.54251 0.15987 0.09533 0.0
H1209 H 0.55971 0.12262 0.08248 0.0
C1210 C 0.52913 0.15723 0.07936 0.0
C1211 C 0.55383 0.1475 0.09655 0.0
C1212 C 0.56778 0.14941 0.11405 0.0
C1213 C 0.52657 0.14214 0.0645 0.0
C1214 C 0.53774 0.12963 0.06582 0.0
C1215 C 0.55144 0.13257 0.08153 0.0
C1216 C 0.53412 0.11217 0.05217 0.0
C1217 C 0.51163 0.13923 0.04781 0.0
C1218 C 0.51947 0.09787 0.05253 0.0
C1219 C 0.51649 0.08067 0.04069 0.0
C1220 C 0.5281 0.07769 0.02837 0.0
C1221 C 0.54266 0.092 0.02777 0.0
C1222 C 0.54572 0.10928 0.03978 0.0
H1223 H 0.50691 0.15228 0.04666 0.0
H1224 H 0.51561 0.13452 0.03413 0.0
H1225 H 0.50054 0.12808 0.04985 0.0
H1226 H 0.51065 0.09986 0.06237 0.0
H1227 H 0.5054 0.06949 0.04151 0.0
H1228 H 0.04885 0.26793 0.34305 0.0
H1229 H 0.07164 0.2603 0.32622 0.0
H1230 H 0.09455 0.31957 0.32971 0.0
H1231 H 0.07152 0.3274 0.34642 0.0
H1232 H 0.08453 0.278 0.29016 0.0
H1233 H 0.13047 0.28917 0.36004 0.0
H1234 H 0.10697 0.28239 0.35808 0.0
H1235 H 0.11736 0.30603 0.35613 0.0
C1236 C 0.05863 0.27934 0.34 0.0
C1237 C 0.05864 0.29826 0.34607 0.0
C1238 C 0.07151 0.27494 0.33036 0.0
C1239 C 0.08461 0.28942 0.32692 0.0
C1240 C 0.08435 0.30832 0.33231 0.0
H1241 H 0.18515 0.29197 0.29682 0.0
H1242 H 0.15894 0.29951 0.30677 0.0
C1243 C 0.07128 0.31276 0.34175 0.0
C1244 C 0.09929 0.28471 0.31898 0.0
H1245 H 0.14153 0.28203 0.33203 0.0
C1246 C 0.09706 0.27891 0.29919 0.0
C1247 C 0.11531 0.28565 0.33106 0.0
C1248 C 0.11779 0.29104 0.35255 0.0
C1249 C 0.11088 0.27456 0.29094 0.0
C1250 C 0.12709 0.27588 0.303 0.0
C1251 C 0.12911 0.28131 0.32287 0.0
C1252 C 0.14225 0.27176 0.29541 0.0
C1253 C 0.10813 0.26899 0.26946 0.0
C1254 C 0.14137 0.25374 0.2857 0.0
C1255 C 0.15619 0.24952 0.27983 0.0
C1256 C 0.17212 0.26317 0.28396 0.0
C1257 C 0.17295 0.28127 0.29351 0.0
C1258 C 0.15806 0.28556 0.29916 0.0
H1259 H 0.09666 0.27335 0.26204 0.0
H1260 H 0.11991 0.27531 0.26382 0.0
H1261 H 0.10563 0.25342 0.26587 0.0
H1262 H 0.12939 0.24278 0.2832 0.0
H1263 H 0.1554 0.23536 0.2728 0.0
H1264 H 0.95169 0.97788 0.18883 0.0
H1265 H 0.9658 0.98567 0.16179 0.0
H1266 H 0.98268 0.04397 0.18868 0.0
H1267 H 0.96815 0.03623 0.21577 0.0
H1268 H 0.95942 0.01527 0.138 0.0
H1269 H 0.02808 0.0249 0.17609 0.0
H1270 H 0.00951 0.0116 0.18425 0.0
H1271 H 0.01396 0.03684 0.18776 0.0
C1272 C 0.95819 0.99241 0.18882 0.0
C1273 C 0.95869 0.00653 0.20417 0.0
C1274 C 0.9663 0.9968 0.17346 0.0
C1275 C 0.97538 0.01532 0.1734 0.0
C1276 C 0.97577 0.02957 0.1886 0.0
H1277 H 0.03752 0.05797 0.09057 0.0
H1278 H 0.02356 0.05485 0.11873 0.0
C1279 C 0.96734 0.02521 0.20388 0.0
C1280 C 0.98409 0.01954 0.15709 0.0
H1281 H 0.02405 0.02889 0.14362 0.0
C1282 C 0.97355 0.01839 0.13921 0.0
C1283 C 1.00251 0.02346 0.15882 0.0
C1284 C 0.01427 0.0242 0.1777 0.0
C1285 C 0.98093 0.02115 0.12289 0.0
C1286 C 0.99935 0.02476 0.12447 0.0
C1287 C 0.00993 0.02615 0.14246 0.0
C1288 C 0.00778 0.02668 0.10749 0.0
C1289 C 0.96891 0.02031 0.10414 0.0
C1290 C 1.00364 0.01183 0.09195 0.0
C1291 C 0.01142 0.01366 0.07584 0.0
C1292 C 0.02368 0.03029 0.0751 0.0
C1293 C 0.02797 0.04509 0.09072 0.0
C1294 C 0.0201 0.04328 0.10683 0.0
H1295 H 0.95606 0.02295 0.10645 0.0
H1296 H 0.97488 0.03078 0.09566 0.0
H1297 H 0.9664 0.00604 0.09557 0.0
H1298 H 0.9945 0.99872 0.09236 0.0
H1299 H 0.00807 1.0019 0.06413 0.0
H1300 H 0.31229 0.67845 0.49619 0.0
H1301 H 0.29317 0.68064 0.46695 0.0
H1302 H 0.31814 0.73973 0.47281 0.0
H1303 H 0.33772 0.73753 0.5016 0.0
H1304 H 0.27044 0.70426 0.47102 0.0
H1305 H 0.31066 0.72338 0.41614 0.0
H1306 H 0.31881 0.71365 0.43668 0.0
H1307 H 0.31851 0.73821 0.43903 0.0
C1308 C 0.31443 0.69165 0.49066 0.0
C1309 C 0.32614 0.70802 0.50138 0.0
C1310 C 0.30329 0.69292 0.47412 0.0
C1311 C 0.30412 0.71039 0.46805 0.0
C1312 C 0.31741 0.72609 0.47726 0.0
H1313 H 0.24307 0.76458 0.40202 0.0
H1314 H 0.24965 0.75031 0.4303 0.0
C1315 C 0.32864 0.7248 0.49366 0.0
C1316 C 0.28987 0.71283 0.45372 0.0
H1317 H 0.2817 0.72831 0.41125 0.0
C1318 C 0.27278 0.70921 0.45776 0.0
C1319 C 0.29319 0.7197 0.43679 0.0
C1320 C 0.31127 0.72382 0.43182 0.0
C1321 C 0.25883 0.7124 0.44512 0.0
C1322 C 0.2622 0.71905 0.42817 0.0
C1323 C 0.27926 0.7228 0.42424 0.0
C1324 C 0.24863 0.72309 0.4142 0.0
C1325 C 0.24068 0.70886 0.44979 0.0
C1326 C 0.24412 0.71179 0.39607 0.0
C1327 C 0.24048 0.71994 0.37985 0.0
C1328 C 0.24137 0.73936 0.38189 0.0
C1329 C 0.24238 0.74958 0.40013 0.0
C1330 C 0.24609 0.74143 0.41635 0.0
H1331 H 0.24018 0.70346 0.46358 0.0
H1332 H 0.23614 0.72216 0.45064 0.0
H1333 H 0.23145 0.69851 0.4381 0.0
H1334 H 0.24612 0.69761 0.39429 0.0
H1335 H 0.23953 0.71181 0.36585 0.0
H1336 H 0.63464 0.9826 0.71834 0.0
H1337 H 0.62053 0.98318 0.68502 0.0
H1338 H 0.59508 0.02545 0.70618 0.0
H1339 H 0.6087 0.02498 0.73867 0.0
H1340 H 0.58491 0.97676 0.66496 0.0
H1341 H 0.61733 0.0513 0.66648 0.0
H1342 H 0.62446 0.03794 0.68438 0.0
H1343 H 0.60599 0.04819 0.68613 0.0
C1344 C 0.62599 0.99196 0.71596 0.0
C1345 C 0.62311 1.00373 0.73182 0.0
C1346 C 0.61785 0.99233 0.6967 0.0
C1347 C 0.60676 0.0047 0.69249 0.0
C1348 C 0.60373 0.01606 0.70838 0.0
H1349 H 0.53572 0.03076 0.59737 0.0
H1350 H 0.55357 0.02821 0.62769 0.0
C1351 C 0.61162 0.0156 0.72735 0.0
C1352 C 0.59825 0.00608 0.67196 0.0
H1353 H 0.5925 0.03805 0.64138 0.0
C1354 C 0.58689 0.99015 0.65979 0.0
C1355 C 0.60033 0.02348 0.66467 0.0
C1356 C 0.61281 0.04117 0.67599 0.0
C1357 C 0.57747 0.99126 0.64138 0.0
C1358 C 0.57936 0.0087 0.63429 0.0
C1359 C 0.59084 0.02456 0.64635 0.0
C1360 C 0.56897 0.01088 0.61497 0.0
C1361 C 0.56486 0.9738 0.62986 0.0
C1362 C 0.57159 1.00251 0.59699 0.0
C1363 C 0.56159 0.00448 0.57928 0.0
C1364 C 0.54829 0.01458 0.57886 0.0
C1365 C 0.54583 0.02298 0.59684 0.0
C1366 C 0.55609 0.02146 0.6144 0.0
H1367 H 0.56281 0.96203 0.63823 0.0
H1368 H 0.55199 0.9769 0.62485 0.0
H1369 H 0.57004 0.96916 0.61698 0.0
H1370 H 0.58138 0.99432 0.5966 0.0
H1371 H 0.56383 0.99747 0.56596 0.0
H1372 H 0.27327 0.36253 0.97925 0.0
H1373 H 0.26815 0.34937 0.94508 0.0
H1374 H 0.28916 0.30232 0.95925 0.0
H1375 H 0.29393 0.31504 0.99312 0.0
H1376 H 0.29641 0.34632 0.92898 0.0
H1377 H 0.24983 0.27664 0.9154 0.0
H1378 H 0.2515 0.2939 0.93633 0.0
H1379 H 0.2665 0.27867 0.936 0.0
C1380 C 0.27619 0.34904 0.97508 0.0
C1381 C 0.28427 0.33996 0.98878 0.0
C1382 C 0.27329 0.34157 0.95559 0.0
C1383 C 0.27823 0.32485 0.94969 0.0
C1384 C 0.28493 0.31503 0.96348 0.0
H1385 H 0.30821 0.27062 0.84977 0.0
H1386 H 0.30661 0.28341 0.8829 0.0
C1387 C 0.28783 0.32246 0.98286 0.0
C1388 C 0.27946 0.31934 0.9295 0.0
H1389 H 0.27041 0.28144 0.8938 0.0
C1390 C 0.29048 0.33224 0.92114 0.0
C1391 C 0.27183 0.30092 0.91942 0.0
C1392 C 0.25911 0.28683 0.9272 0.0
C1393 C 0.2946 0.32696 0.90323 0.0
C1394 C 0.2875 0.30835 0.89356 0.0
C1395 C 0.27614 0.29558 0.90161 0.0
C1396 C 0.29045 0.30228 0.87425 0.0
C1397 C 0.30674 0.34113 0.89488 0.0
C1398 C 0.2821 0.30893 0.8588 0.0
C1399 C 0.2828 0.30156 0.84019 0.0
C1400 C 0.29194 0.28751 0.83678 0.0
C1401 C 0.30111 0.28147 0.85222 0.0
C1402 C 0.30017 0.2887 0.87099 0.0
H1403 H 0.31371 0.3537 0.90571 0.0
H1404 H 0.31655 0.33462 0.88888 0.0
H1405 H 0.299 0.34592 0.88299 0.0
H1406 H 0.27446 0.3193 0.86112 0.0
H1407 H 0.27581 0.30654 0.82838 0.0
H1408 H 0.95185 0.03064 0.31291 0.0
H1409 H 0.96265 0.03688 0.34749 0.0
H1410 H 0.99817 1.00074 0.34037 0.0
H1411 H 0.98774 0.99466 0.30585 0.0
H1412 H 0.95906 0.00744 0.36899 0.0
H1413 H 0.02857 0.04599 0.37873 0.0
H1414 H 0.01267 0.04521 0.3575 0.0
H1415 H 0.02282 0.0258 0.3601 0.0
C1416 C 0.96233 0.02446 0.3186 0.0
C1417 C 0.96889 0.01206 0.30663 0.0
C1418 C 0.96841 0.028 0.33837 0.0
C1419 C 0.98126 0.01937 0.34636 0.0
C1420 C 0.98848 0.00781 0.33438 0.0
H1421 H 0.0221 0.99068 0.4534 0.0
H1422 H 0.01083 0.99139 0.4196 0.0
C1423 C 0.98241 0.00426 0.31466 0.0
C1424 C 0.98568 0.02041 0.36725 0.0
H1425 H 0.02039 0.02979 0.40427 0.0
C1426 C 0.9724 0.01261 0.37682 0.0
C1427 C 1.00309 0.02717 0.3773 0.0
C1428 C 0.01758 0.03669 0.36793 0.0
C1429 C 0.9763 0.01061 0.39611 0.0
C1430 C 0.99384 0.01655 0.40581 0.0
C1431 C 0.007 0.02494 0.39648 0.0
C1432 C 0.99884 0.01468 0.42591 0.0
C1433 C 0.96185 1.00172 0.4059 0.0
C1434 C 0.99558 0.02744 0.4403 0.0
C1435 C 1.00212 0.02722 0.45941 0.0
C1436 C 0.01195 0.01418 0.46433 0.0
C1437 C 0.01458 1.00086 0.44991 0.0
C1438 C 0.00818 1.00125 0.43071 0.0
H1439 H 0.94923 0.99597 0.39572 0.0
H1440 H 0.96557 0.99017 0.41297 0.0
H1441 H 0.9599 0.01243 0.41722 0.0
H1442 H 0.98845 0.03793 0.43671 0.0
H1443 H 0.9997 0.03746 0.47033 0.0
H1444 H 0.33544 0.69642 0.60111 0.0
H1445 H 0.32383 0.69183 0.63025 0.0
H1446 H 0.32728 0.75152 0.64303 0.0
H1447 H 0.3381 0.75612 0.61327 0.0
H1448 H 0.33407 0.7122 0.67226 0.0
H1449 H 0.27306 0.72176 0.62945 0.0
H1450 H 0.28993 0.71377 0.61865 0.0
H1451 H 0.29259 0.73838 0.62748 0.0
C1452 C 0.3347 0.70873 0.61071 0.0
C1453 C 0.3376 0.72668 0.60518 0.0
C1454 C 0.32784 0.70599 0.62713 0.0
C1455 C 0.3244 0.72127 0.63818 0.0
C1456 C 0.32969 0.7396 0.6342 0.0
H1457 H 0.31207 0.78193 0.72401 0.0
H1458 H 0.31738 0.75961 0.69855 0.0
C1459 C 0.33611 0.7423 0.61752 0.0
C1460 C 0.31345 0.71818 0.65251 0.0
H1461 H 0.27682 0.72997 0.66387 0.0
C1462 C 0.32122 0.71528 0.67039 0.0
C1463 C 0.29651 0.72165 0.6496 0.0
C1464 C 0.28743 0.72389 0.63019 0.0
C1465 C 0.31353 0.71877 0.6863 0.0
C1466 C 0.29797 0.72521 0.68388 0.0
C1467 C 0.28884 0.72509 0.66553 0.0
C1468 C 0.2945 0.73777 0.6994 0.0
C1469 C 0.32303 0.71777 0.70588 0.0
C1470 C 0.27944 0.73298 0.7073 0.0
C1471 C 0.2762 0.74591 0.72144 0.0
C1472 C 0.28801 0.76351 0.72745 0.0
C1473 C 0.30278 0.76843 0.71917 0.0
C1474 C 0.30594 0.75564 0.70503 0.0
H1475 H 0.33195 0.70806 0.70508 0.0
H1476 H 0.331 0.73201 0.71271 0.0
H1477 H 0.31342 0.71292 0.71498 0.0
H1478 H 0.27044 0.71928 0.70272 0.0
H1479 H 0.26491 0.74193 0.72811 0.0
H1480 H 0.61283 0.98091 0.83509 0.0
H1481 H 0.59839 0.98475 0.86309 0.0
H1482 H 0.63244 0.04 0.88237 0.0
H1483 H 0.64645 0.03631 0.8544 0.0
H1484 H 0.60598 0.99025 0.90165 0.0
H1485 H 0.58772 0.05516 0.88349 0.0
H1486 H 0.5971 0.04097 0.86749 0.0
H1487 H 0.61095 0.05755 0.88743 0.0
C1488 C 0.61765 0.99363 0.84559 0.0
C1489 C 0.63136 0.00801 0.84244 0.0
C1490 C 0.60915 0.996 0.86165 0.0
C1491 C 0.61372 0.01297 0.87509 0.0
C1492 C 0.62794 0.02694 0.87232 0.0
H1493 H 0.57853 0.04784 0.98512 0.0
H1494 H 0.59507 0.0448 0.95883 0.0
C1495 C 0.63634 0.02461 0.85633 0.0
C1496 C 0.60368 0.01617 0.89167 0.0
H1497 H 0.58263 0.0471 0.91367 0.0
C1498 C 0.60086 1.00269 0.90405 0.0
C1499 C 0.59675 0.03239 0.89547 0.0
C1500 C 0.59811 0.04726 0.88268 0.0
C1501 C 0.59183 0.00502 0.91968 0.0
C1502 C 0.58495 0.02115 0.9234 0.0
C1503 C 0.58779 0.03469 0.91117 0.0
C1504 C 0.57447 0.02376 0.93953 0.0
C1505 C 0.58988 0.99023 0.9325 0.0
C1506 C 0.55705 0.01329 0.93788 0.0
C1507 C 0.54738 0.01531 0.95286 0.0
C1508 C 0.55474 0.02767 0.97038 0.0
C1509 C 0.5722 0.03817 0.97203 0.0
C1510 C 0.58176 0.03643 0.95685 0.0
H1511 H 0.5978 0.97982 0.92956 0.0
H1512 H 0.59393 0.99698 0.94779 0.0
H1513 H 0.5759 0.98264 0.93029 0.0
H1514 H 0.55087 1.00339 0.92491 0.0
H1515 H 0.53414 0.00674 0.95084 0.0
H1516 H 0.28574 0.37234 0.1051 0.0
H1517 H 0.28038 0.35709 0.13323 0.0
H1518 H 0.28758 0.30515 0.10407 0.0
H1519 H 0.29331 0.32023 0.07655 0.0
H1520 H 0.25713 0.32504 0.13984 0.0
H1521 H 0.32498 0.31524 0.15157 0.0
H1522 H 0.3178 0.32977 0.13493 0.0
H1523 H 0.31283 0.30453 0.12814 0.0
C1524 C 0.28591 0.35762 0.10467 0.0
C1525 C 0.29027 0.3476 0.08878 0.0
C1526 C 0.28292 0.34893 0.12074 0.0
C1527 C 0.28416 0.33013 0.12101 0.0
C1528 C 0.28714 0.31981 0.10452 0.0
H1529 H 0.27477 0.251 0.20229 0.0
H1530 H 0.27607 0.26597 0.17349 0.0
C1531 C 0.29032 0.32847 0.08873 0.0
C1532 C 0.28311 0.32132 0.13862 0.0
H1533 H 0.30567 0.29938 0.16987 0.0
C1534 C 0.2678 0.3196 0.1465 0.0
C1535 C 0.29701 0.31407 0.1473 0.0
C1536 C 0.31414 0.31614 0.14017 0.0
C1537 C 0.26595 0.31057 0.16259 0.0
C1538 C 0.2798 0.30326 0.1711 0.0
C1539 C 0.29506 0.30496 0.16326 0.0
C1540 C 0.27888 0.29418 0.18845 0.0
C1541 C 0.24911 0.30856 0.17023 0.0
C1542 C 0.28039 0.30513 0.20642 0.0
C1543 C 0.27998 0.29668 0.22289 0.0
C1544 C 0.27785 0.27707 0.22166 0.0
C1545 C 0.27644 0.26613 0.20366 0.0
C1546 C 0.27711 0.27464 0.18722 0.0
H1547 H 0.23867 0.31238 0.16037 0.0
H1548 H 0.24436 0.29384 0.1726 0.0
H1549 H 0.25153 0.3179 0.18428 0.0
H1550 H 0.28195 0.32025 0.2077 0.0
H1551 H 0.281 0.30548 0.23654 0.0
H1552 H 0.19559 0.87335 0.98627 0.0
H1553 H 0.17614 0.89307 0.9961 0.0
H1554 H 0.2153 0.92039 0.04606 0.0
H1555 H 0.23469 0.9004 0.03634 0.0
H1556 H 0.16588 0.89447 0.03498 0.0
H1557 H 0.19938 0.96316 0.01739 0.0
H1558 H 0.20194 0.94081 0.00603 0.0
H1559 H 0.21284 0.95023 0.03024 0.0
C1560 C 0.20003 0.88378 0.99918 0.0
C1561 C 0.21645 0.8857 0.0106 0.0
C1562 C 0.189 0.89489 0.00477 0.0
C1563 C 0.19448 0.90808 0.02167 0.0
C1564 C 0.21107 0.91028 0.0329 0.0
H1565 H 0.14435 0.99118 0.06835 0.0
H1566 H 0.16371 0.96971 0.06597 0.0
C1567 C 0.22203 0.89898 0.02741 0.0
C1568 C 0.18245 0.91894 0.02799 0.0
H1569 H 0.17488 0.96284 0.03226 0.0
C1570 C 0.16781 0.90944 0.03452 0.0
C1571 C 0.18523 0.93836 0.02725 0.0
C1572 C 0.20062 0.94882 0.01975 0.0
C1573 C 0.15568 0.91904 0.04049 0.0
C1574 C 0.15831 0.93845 0.03954 0.0
C1575 C 0.17309 0.94795 0.03315 0.0
C1576 C 0.14539 0.9491 0.04384 0.0
C1577 C 0.14025 0.90836 0.04775 0.0
C1578 C 0.12854 0.94413 0.03262 0.0
C1579 C 0.11734 0.95618 0.03419 0.0
C1580 C 0.12306 0.97347 0.0467 0.0
C1581 C 0.13955 0.97784 0.05874 0.0
C1582 C 0.15066 0.96569 0.05731 0.0
H1583 H 0.14304 0.89561 0.05319 0.0
H1584 H 0.13659 0.91737 0.05938 0.0
H1585 H 0.12883 0.90366 0.03577 0.0
H1586 H 0.12441 0.93152 0.02189 0.0
H1587 H 0.10458 0.95243 0.02492 0.0
H1588 H 0.70951 0.61822 0.98046 0.0
H1589 H 0.68095 0.59863 0.98302 0.0
H1590 H 0.69212 0.61721 0.04421 0.0
H1591 H 0.72039 0.63704 0.04153 0.0
H1592 H 0.6708 0.56962 0.00263 0.0
H1593 H 0.64575 0.63063 0.03008 0.0
H1594 H 0.66562 0.63344 0.02032 0.0
H1595 H 0.66568 0.62866 0.0444 0.0
C1596 C 0.70599 0.61772 0.99447 0.0
C1597 C 0.71727 0.62883 0.01085 0.0
C1598 C 0.68961 0.60667 0.99594 0.0
C1599 C 0.68411 0.6067 0.01377 0.0
C1600 C 0.69576 0.61724 0.03022 0.0
H1601 H 0.58461 0.55234 0.04582 0.0
H1602 H 0.61411 0.57169 0.04618 0.0
C1603 C 0.71206 0.62833 0.02873 0.0
C1604 C 0.66619 0.59584 0.01507 0.0
H1605 H 0.62758 0.60031 0.02881 0.0
C1606 C 0.66135 0.57637 0.00831 0.0
C1607 C 0.65382 0.60453 0.02267 0.0
C1608 C 0.65787 0.62549 0.02963 0.0
C1609 C 0.64469 0.56537 0.00903 0.0
C1610 C 0.63213 0.57409 0.01619 0.0
C1611 C 0.63706 0.59354 0.02325 0.0
C1612 C 0.61377 0.56331 0.01596 0.0
C1613 C 0.64091 0.54436 0.00249 0.0
C1614 C 0.60338 0.55266 0.9988 0.0
C1615 C 0.58672 0.54145 0.99866 0.0
C1616 C 0.57975 0.54094 0.01555 0.0
C1617 C 0.58964 0.55242 0.03256 0.0
C1618 C 0.60652 0.56345 0.03277 0.0
H1619 H 0.65316 0.53927 0.00353 0.0
H1620 H 0.63227 0.53652 0.01111 0.0
H1621 H 0.63429 0.54098 0.98723 0.0
H1622 H 0.60824 0.55279 0.98546 0.0
H1623 H 0.57932 0.53297 0.98527 0.0
H1624 H 0.65218 0.48644 0.26388 0.0
H1625 H 0.66444 0.46056 0.25153 0.0
H1626 H 0.69002 0.45931 0.30887 0.0
H1627 H 0.67789 0.4852 0.32144 0.0
H1628 H 0.7024 0.45897 0.2573 0.0
H1629 H 0.65906 0.40432 0.28659 0.0
H1630 H 0.65359 0.42623 0.28222 0.0
H1631 H 0.66893 0.42568 0.30328 0.0
C1632 C 0.66043 0.48069 0.2739 0.0
C1633 C 0.66401 0.48782 0.29371 0.0
C1634 C 0.66743 0.46595 0.26677 0.0
C1635 C 0.67794 0.45802 0.27933 0.0
C1636 C 0.68175 0.46522 0.29902 0.0
H1637 H 0.74218 0.38754 0.2985 0.0
H1638 H 0.72454 0.41064 0.29518 0.0
C1639 C 0.67484 0.48001 0.30617 0.0
C1640 C 0.68493 0.44205 0.27213 0.0
H1641 H 0.68518 0.397 0.27839 0.0
C1642 C 0.69841 0.44525 0.26146 0.0
C1643 C 0.67942 0.42415 0.27734 0.0
C1644 C 0.66433 0.41976 0.28784 0.0
C1645 C 0.70757 0.43135 0.25735 0.0
C1646 C 0.70299 0.41406 0.26406 0.0
C1647 C 0.68863 0.41038 0.27335 0.0
C1648 C 0.71464 0.40105 0.26486 0.0
C1649 C 0.72284 0.43557 0.24709 0.0
C1650 C 0.715 0.38824 0.24875 0.0
C1651 C 0.72506 0.37488 0.25063 0.0
C1652 C 0.73462 0.37419 0.26868 0.0
C1653 C 0.73458 0.38748 0.28455 0.0
C1654 C 0.72466 0.40075 0.28265 0.0
H1655 H 0.72447 0.44957 0.24238 0.0
H1656 H 0.73508 0.43522 0.25673 0.0
H1657 H 0.72091 0.42456 0.23434 0.0
H1658 H 0.70722 0.38831 0.23495 0.0
H1659 H 0.72498 0.3648 0.2382 0.0
H1660 H 0.81639 0.36295 0.53331 0.0
H1661 H 0.83997 0.39021 0.53206 0.0
H1662 H 0.80242 0.41486 0.50025 0.0
H1663 H 0.7789 0.38848 0.5026 0.0
H1664 H 0.84999 0.4002 0.50035 0.0
H1665 H 0.82886 0.46014 0.5375 0.0
H1666 H 0.81887 0.43594 0.53852 0.0
H1667 H 0.81297 0.44617 0.5176 0.0
C1668 C 0.81321 0.37452 0.52664 0.0
C1669 C 0.79588 0.3739 0.51849 0.0
C1670 C 0.82661 0.38999 0.5258 0.0
C1671 C 0.82288 0.40475 0.51639 0.0
C1672 C 0.80554 0.40406 0.50823 0.0
H1673 H 0.89988 0.49324 0.48339 0.0
H1674 H 0.8715 0.47395 0.48661 0.0
C1675 C 0.79212 0.38893 0.50956 0.0
C1676 C 0.83732 0.42005 0.51384 0.0
H1677 H 0.85361 0.46779 0.52269 0.0
C1678 C 0.85077 0.41495 0.50531 0.0
C1679 C 0.83806 0.43935 0.51981 0.0
C1680 C 0.82398 0.44575 0.529 0.0
C1681 C 0.86527 0.42857 0.50324 0.0
C1682 C 0.86638 0.4477 0.51006 0.0
C1683 C 0.85264 0.453 0.51772 0.0
C1684 C 0.88242 0.46206 0.51048 0.0
C1685 C 0.87948 0.42244 0.49404 0.0
C1686 C 0.89757 0.46225 0.52347 0.0
C1687 C 0.91365 0.47316 0.52169 0.0
C1688 C 0.91471 0.484 0.50691 0.0
C1689 C 0.8993 0.48502 0.49493 0.0
C1690 C 0.88317 0.47402 0.4967 0.0
H1691 H 0.87499 0.40782 0.48603 0.0
H1692 H 0.88396 0.43208 0.48407 0.0
H1693 H 0.89089 0.423 0.50536 0.0
H1694 H 0.89707 0.45314 0.53427 0.0
H1695 H 0.92538 0.47237 0.5312 0.0
H1696 H 0.38904 0.10251 0.27757 0.0
H1697 H 0.37574 0.13003 0.28011 0.0
H1698 H 0.33513 0.10203 0.23203 0.0
H1699 H 0.34786 0.0748 0.2298 0.0
H1700 H 0.36899 0.15617 0.25896 0.0
H1701 H 0.30287 0.11676 0.26384 0.0
H1702 H 0.32119 0.10585 0.26529 0.0
H1703 H 0.30974 0.10841 0.24233 0.0
C1704 C 0.37721 0.10206 0.26758 0.0
C1705 C 0.36972 0.08573 0.25357 0.0
C1706 C 0.36946 0.11805 0.26902 0.0
C1707 C 0.35375 0.11857 0.25668 0.0
C1708 C 0.34665 0.10243 0.24246 0.0
H1709 H 0.28217 0.19885 0.24547 0.0
H1710 H 0.29623 0.17221 0.24264 0.0
C1711 C 0.35427 0.08658 0.24106 0.0
C1712 C 0.34506 0.13575 0.2582 0.0
H1713 H 0.30562 0.14847 0.25936 0.0
C1714 C 0.35513 0.15432 0.25921 0.0
C1715 C 0.32676 0.13415 0.25813 0.0
C1716 C 0.31453 0.11526 0.25751 0.0
C1717 C 0.34778 0.17058 0.25969 0.0
C1718 C 0.32956 0.16909 0.26022 0.0
C1719 C 0.31949 0.15045 0.25913 0.0
C1720 C 0.32075 0.18628 0.26174 0.0
C1721 C 0.35981 0.18909 0.25854 0.0
C1722 C 0.32904 0.20393 0.27352 0.0
C1723 C 0.32109 0.21962 0.27458 0.0
C1724 C 0.304 0.21851 0.26459 0.0
C1725 C 0.29534 0.20074 0.25338 0.0
C1726 C 0.30352 0.18519 0.25184 0.0
H1727 H 0.3707 0.18689 0.25113 0.0
H1728 H 0.35271 0.19815 0.25073 0.0
H1729 H 0.3658 0.19661 0.27327 0.0
H1730 H 0.34173 0.2057 0.28241 0.0
H1731 H 0.32828 0.23264 0.2838 0.0
H1732 H 0.33412 0.14864 0.49263 0.0
H1733 H 0.35834 0.13405 0.50189 0.0
H1734 H 0.33344 0.11264 0.54682 0.0
H1735 H 0.30879 0.12678 0.53719 0.0
H1736 H 0.38166 0.13993 0.53566 0.0
H1737 H 0.34338 0.06536 0.52077 0.0
H1738 H 0.33437 0.08413 0.51263 0.0
H1739 H 0.33607 0.08101 0.53733 0.0
C1740 C 0.33366 0.14067 0.50438 0.0
C1741 C 0.31934 0.13872 0.51399 0.0
C1742 C 0.34761 0.13239 0.50972 0.0
C1743 C 0.34772 0.12198 0.52492 0.0
C1744 C 0.33353 0.12016 0.53473 0.0
H1745 H 0.42206 0.05316 0.55791 0.0
H1746 H 0.39939 0.07088 0.55903 0.0
C1747 C 0.31942 0.12828 0.52922 0.0
C1748 C 0.36278 0.11323 0.53029 0.0
H1749 H 0.37359 0.07083 0.53211 0.0
C1750 C 0.37987 0.12482 0.53496 0.0
C1751 C 0.36055 0.09354 0.52975 0.0
C1752 C 0.34264 0.08022 0.52472 0.0
C1753 C 0.39469 0.11727 0.5387 0.0
C1754 C 0.3925 0.09747 0.53712 0.0
C1755 C 0.37538 0.08597 0.53321 0.0
C1756 C 0.40764 0.08825 0.53824 0.0
C1757 C 0.41252 0.13071 0.54451 0.0
C1758 C 0.42015 0.09219 0.52645 0.0
C1759 C 0.4334 0.08236 0.5261 0.0
C1760 C 0.43431 0.06789 0.53715 0.0
C1761 C 0.42201 0.06427 0.54932 0.0
C1762 C 0.40887 0.07431 0.54984 0.0
H1763 H 0.41161 0.14454 0.55198 0.0
H1764 H 0.4217 0.12496 0.55409 0.0
H1765 H 0.41805 0.13328 0.53147 0.0
H1766 H 0.41937 0.10248 0.51697 0.0
H1767 H 0.44274 0.0859 0.5168 0.0
H1768 H 0.64547 0.59662 0.27129 0.0
H1769 H 0.66803 0.62342 0.26778 0.0
H1770 H 0.70587 0.60641 0.3077 0.0
H1771 H 0.68327 0.57884 0.31061 0.0
H1772 H 0.68438 0.65172 0.29521 0.0
H1773 H 0.73361 0.61862 0.26636 0.0
H1774 H 0.71179 0.60541 0.26679 0.0
H1775 H 0.72841 0.61102 0.28813 0.0
C1776 C 0.65864 0.5985 0.27924 0.0
C1777 C 0.66262 0.58584 0.29145 0.0
C1778 C 0.67153 0.61378 0.27715 0.0
C1779 C 0.68865 0.61691 0.2874 0.0
C1780 C 0.69282 0.60406 0.29934 0.0
H1781 H 0.77788 0.71166 0.30945 0.0
H1782 H 0.75606 0.68269 0.30954 0.0
C1783 C 0.67991 0.58844 0.30115 0.0
C1784 C 0.70155 0.63447 0.28662 0.0
H1785 H 0.7422 0.6518 0.2771 0.0
C1786 C 0.69698 0.65171 0.29112 0.0
C1787 C 0.71794 0.63443 0.28121 0.0
C1788 C 0.72319 0.61638 0.27516 0.0
C1789 C 0.70844 0.66891 0.29066 0.0
C1790 C 0.72491 0.66887 0.2856 0.0
C1791 C 0.72952 0.65169 0.28104 0.0
C1792 C 0.73777 0.68657 0.28554 0.0
C1793 C 0.70301 0.68703 0.29595 0.0
C1794 C 0.73462 0.69828 0.272 0.0
C1795 C 0.74709 0.71482 0.27187 0.0
C1796 C 0.76283 0.71981 0.28533 0.0
C1797 C 0.76583 0.70814 0.29895 0.0
C1798 C 0.75344 0.69159 0.29899 0.0
H1799 H 0.69131 0.68479 0.3029 0.0
H1800 H 0.71389 0.69752 0.3058 0.0
H1801 H 0.69978 0.69309 0.28277 0.0
H1802 H 0.72264 0.69448 0.26138 0.0
H1803 H 0.74457 0.72348 0.26107 0.0
H1804 H 0.86762 0.48769 0.78156 0.0
H1805 H 0.85081 0.45618 0.78402 0.0
H1806 H 0.85447 0.43623 0.72582 0.0
H1807 H 0.87205 0.46736 0.72382 0.0
H1808 H 0.82166 0.43178 0.76852 0.0
H1809 H 0.87421 0.39833 0.74967 0.0
H1810 H 0.877 0.42353 0.75331 0.0
H1811 H 0.86559 0.40938 0.73068 0.0
C1812 C 0.86437 0.47673 0.7691 0.0
C1813 C 0.87092 0.48027 0.75235 0.0
C1814 C 0.85489 0.45854 0.77057 0.0
C1815 C 0.8517 0.44331 0.75534 0.0
C1816 C 0.85719 0.44727 0.73813 0.0
H1817 H 0.80242 0.3215 0.74198 0.0
H1818 H 0.81491 0.35352 0.73667 0.0
C1819 C 0.86694 0.46531 0.73681 0.0
C1820 C 0.84316 0.42339 0.75767 0.0
H1821 H 0.84765 0.37765 0.75213 0.0
C1822 C 0.82747 0.42004 0.76499 0.0
C1823 C 0.8505 0.4077 0.75315 0.0
C1824 C 0.86783 0.40992 0.74646 0.0
C1825 C 0.81899 0.40179 0.76764 0.0
C1826 C 0.82633 0.3862 0.76307 0.0
C1827 C 0.84188 0.38945 0.7556 0.0
C1828 C 0.81834 0.36653 0.7663 0.0
C1829 C 0.80196 0.39932 0.77497 0.0
C1830 C 0.81618 0.36279 0.78474 0.0
C1831 C 0.80906 0.3444 0.78782 0.0
C1832 C 0.8039 0.32908 0.77256 0.0
C1833 C 0.80616 0.33282 0.75411 0.0
C1834 C 0.81335 0.35122 0.75105 0.0
H1835 H 0.7957 0.41124 0.77294 0.0
H1836 H 0.79261 0.38598 0.76762 0.0
H1837 H 0.80456 0.39872 0.79055 0.0
H1838 H 0.82024 0.3741 0.7969 0.0
H1839 H 0.80766 0.34221 0.80226 0.0
H1840 H 0.08069 0.84215 0.09334 0.0
H1841 H 0.07452 0.86912 0.07961 0.0
H1842 H 0.02134 0.85421 0.0891 0.0
H1843 H 0.02774 0.82732 0.10374 0.0
H1844 H 0.0538 0.87204 0.04919 0.0
H1845 H 0.0331 0.90844 0.11136 0.0
H1846 H 0.04272 0.8885 0.11306 0.0
H1847 H 0.01994 0.88503 0.10263 0.0
C1848 C 0.06769 0.84465 0.09276 0.0
C1849 C 0.05477 0.83259 0.09991 0.0
C1850 C 0.06415 0.86013 0.08477 0.0
C1851 C 0.04753 0.86406 0.08348 0.0
C1852 C 0.03445 0.85192 0.09038 0.0
H1853 H 0.00926 0.95549 0.03651 0.0
H1854 H 0.0114 0.9259 0.0478 0.0
C1855 C 0.03808 0.83647 0.09871 0.0
C1856 C 0.04418 0.88072 0.07466 0.0
H1857 H 0.03083 0.92181 0.08297 0.0
C1858 C 0.04878 0.88289 0.05665 0.0
C1859 C 0.0376 0.89502 0.08423 0.0
C1860 C 0.03321 0.89427 0.10396 0.0
C1861 C 0.04713 0.89883 0.04812 0.0
C1862 C 0.04076 0.91316 0.05782 0.0
C1863 C 0.03575 0.91084 0.07555 0.0
C1864 C 0.0395 0.93082 0.05001 0.0
C1865 C 0.05207 0.90015 0.0287 0.0
C1866 C 0.05459 0.94354 0.04745 0.0
C1867 C 0.05344 0.96058 0.04103 0.0
C1868 C 0.03715 0.96527 0.03699 0.0
C1869 C 0.02203 0.95235 0.03932 0.0
C1870 C 0.02322 0.93541 0.04586 0.0
H1871 H 0.05259 0.8862 0.02114 0.0
H1872 H 0.04261 0.90597 0.01954 0.0
H1873 H 0.06523 0.90977 0.03053 0.0
H1874 H 0.06735 0.94049 0.05084 0.0
H1875 H 0.06536 0.97019 0.03952 0.0
H1876 H 0.9587 0.28304 0.90501 0.0
H1877 H 0.93211 0.28696 0.88523 0.0
H1878 H 0.929 0.23509 0.84801 0.0
H1879 H 0.95599 0.2313 0.86773 0.0
H1880 H 0.9223 0.28749 0.84357 0.0
H1881 H 0.88177 0.22819 0.86987 0.0
H1882 H 0.90378 0.24001 0.8819 0.0
H1883 H 0.90032 0.22321 0.86037 0.0
C1884 C 0.95254 0.27265 0.89236 0.0
C1885 C 0.95948 0.2569 0.88785 0.0
C1886 C 0.93732 0.27491 0.88108 0.0
C1887 C 0.9284 0.26126 0.86521 0.0
C1888 C 0.9356 0.24578 0.86025 0.0
H1889 H 0.82808 0.23712 0.78975 0.0
H1890 H 0.85707 0.23833 0.80758 0.0
C1891 C 0.95109 0.24367 0.87141 0.0
C1892 C 0.91108 0.26273 0.85466 0.0
H1893 H 0.86726 0.24179 0.84609 0.0
C1894 C 0.91025 0.2775 0.84409 0.0
C1895 C 0.89529 0.24995 0.85563 0.0
C1896 C 0.89518 0.23451 0.86766 0.0
C1897 C 0.89417 0.27936 0.83389 0.0
C1898 C 0.8784 0.26628 0.83451 0.0
C1899 C 0.87927 0.25178 0.84545 0.0
C1900 C 0.86094 0.26649 0.82315 0.0
C1901 C 0.89428 0.29495 0.82205 0.0
C1902 C 0.85318 0.28193 0.82586 0.0
C1903 C 0.8364 0.28129 0.81551 0.0
C1904 C 0.82702 0.26512 0.80236 0.0
C1905 C 0.83484 0.24978 0.79978 0.0
C1906 C 0.85151 0.25045 0.80999 0.0
H1907 H 0.90769 0.30129 0.81985 0.0
H1908 H 0.88564 0.28963 0.80782 0.0
H1909 H 0.88925 0.30623 0.82954 0.0
H1910 H 0.85995 0.29435 0.8362 0.0
H1911 H 0.83075 0.29335 0.81785 0.0
H1912 H 0.5682 0.22512 0.61769 0.0
H1913 H 0.56335 0.19133 0.60617 0.0
H1914 H 0.52237 0.19488 0.56061 0.0
H1915 H 0.52753 0.229 0.57203 0.0
H1916 H 0.53423 0.16113 0.60029 0.0
H1917 H 0.55647 0.17365 0.53187 0.0
H1918 H 0.55944 0.19242 0.55176 0.0
H1919 H 0.53831 0.18332 0.53657 0.0
C1920 C 0.55804 0.21859 0.60533 0.0
C1921 C 0.54826 0.22946 0.59563 0.0
C1922 C 0.55526 0.19934 0.59879 0.0
C1923 C 0.5427 0.19067 0.58238 0.0
C1924 C 0.53236 0.2014 0.57311 0.0
H1925 H 0.51628 0.07623 0.52177 0.0
H1926 H 0.51744 0.10914 0.53366 0.0
C1927 C 0.5352 0.22078 0.57965 0.0
C1928 C 0.54125 0.17065 0.5746 0.0
H1929 H 0.54788 0.14208 0.53631 0.0
C1930 C 0.53718 0.15695 0.5863 0.0
C1931 C 0.54518 0.16526 0.55635 0.0
C1932 C 0.55024 0.17942 0.54343 0.0
C1933 C 0.53695 0.13799 0.58019 0.0
C1934 C 0.54112 0.13274 0.5621 0.0
C1935 C 0.54488 0.14631 0.55028 0.0
C1936 C 0.541 0.11305 0.5548 0.0
C1937 C 0.53201 0.12362 0.59293 0.0
C1938 C 0.55421 0.1046 0.56245 0.0
C1939 C 0.55375 0.08581 0.55544 0.0
C1940 C 0.53994 0.07532 0.54091 0.0
C1941 C 0.52703 0.08403 0.53304 0.0
C1942 C 0.52763 0.10277 0.53982 0.0
H1943 H 0.52688 0.12952 0.60536 0.0
H1944 H 0.52193 0.11125 0.5846 0.0
H1945 H 0.54372 0.11855 0.59843 0.0
H1946 H 0.56472 0.11248 0.57392 0.0
H1947 H 0.56373 0.0793 0.56184 0.0
H1948 H 0.55208 0.79002 0.3671 0.0
H1949 H 0.58024 0.79355 0.35637 0.0
H1950 H 0.59625 0.7583 0.39622 0.0
H1951 H 0.56769 0.75387 0.40616 0.0
H1952 H 0.6126 0.80837 0.37246 0.0
H1953 H 0.60804 0.73236 0.35027 0.0
H1954 H 0.58979 0.74087 0.35693 0.0
H1955 H 0.60699 0.73799 0.37511 0.0
C1956 C 0.56151 0.7828 0.3734 0.0
C1957 C 0.55743 0.77135 0.38724 0.0
C1958 C 0.57771 0.78492 0.36732 0.0
C1959 C 0.59043 0.77587 0.37507 0.0
C1960 C 0.58656 0.76489 0.38937 0.0
H1961 H 0.69474 0.77166 0.35041 0.0
H1962 H 0.66955 0.77169 0.3663 0.0
C1963 C 0.57019 0.76242 0.39515 0.0
C1964 C 0.60764 0.77804 0.36821 0.0
H1965 H 0.6351 0.7532 0.35014 0.0
C1966 C 0.61744 0.79626 0.36754 0.0
C1967 C 0.6142 0.76234 0.36175 0.0
C1968 C 0.60413 0.7423 0.36086 0.0
C1969 C 0.63342 0.79914 0.36071 0.0
C1970 C 0.63985 0.78342 0.35422 0.0
C1971 C 0.63026 0.76529 0.35519 0.0
C1972 C 0.65605 0.78524 0.34558 0.0
C1973 C 0.64338 0.81903 0.36072 0.0
C1974 C 0.65704 0.79294 0.32865 0.0
C1975 C 0.67137 0.79276 0.31937 0.0
C1976 C 0.68514 0.7848 0.32673 0.0
C1977 C 0.68434 0.77761 0.34404 0.0
C1978 C 0.66995 0.77774 0.35327 0.0
H1979 H 0.6394 0.82941 0.37076 0.0
H1980 H 0.65773 0.82051 0.36473 0.0
H1981 H 0.64064 0.82258 0.34609 0.0
H1982 H 0.64638 0.79845 0.32214 0.0
H1983 H 0.67123 0.79815 0.30596 0.0
H1984 H 0.02154 0.2588 0.45206 0.0
H1985 H 0.01393 0.2265 0.45892 0.0
H1986 H 0.01113 0.20464 0.39935 0.0
H1987 H 0.01948 0.23644 0.39257 0.0
H1988 H 0.98312 0.19822 0.44151 0.0
H1989 H 0.04427 0.17793 0.42756 0.0
H1990 H 0.04254 0.20212 0.43089 0.0
H1991 H 0.03282 0.18686 0.40848 0.0
C1992 C 0.01989 0.24705 0.44065 0.0
C1993 C 0.02161 0.25005 0.42198 0.0
C1994 C 0.01529 0.22874 0.44448 0.0
C1995 C 0.01219 0.21344 0.4296 0.0
C1996 C 0.0139 0.21639 0.41101 0.0
H1997 H 1.00349 0.09782 0.44672 0.0
H1998 H 0.99852 0.12291 0.42844 0.0
C1999 C 0.01887 0.23457 0.40726 0.0
C2000 C 0.00733 0.19424 0.43351 0.0
H2001 H 0.02254 0.15467 0.43545 0.0
C2002 C 0.9916 0.18856 0.44006 0.0
C2003 C 0.01836 0.18178 0.43114 0.0
C2004 C 0.03551 0.18747 0.42427 0.0
C2005 C 0.98689 0.1707 0.44509 0.0
C2006 C 0.99842 0.15862 0.4438 0.0
C2007 C 0.01367 0.16398 0.43624 0.0
C2008 C 0.99672 0.142 0.45329 0.0
C2009 C 0.9699 0.16515 0.45221 0.0
C2010 C 0.99686 0.14443 0.47307 0.0
C2011 C 0.99927 0.13012 0.48331 0.0
C2012 C 1.00203 0.11345 0.47395 0.0
C2013 C 1.00108 0.11057 0.45402 0.0
C2014 C 0.9983 0.12481 0.44367 0.0
H2015 H 0.95987 0.17188 0.4453 0.0
H2016 H 0.96464 0.14962 0.44945 0.0
H2017 H 0.97215 0.17013 0.4679 0.0
H2018 H 0.99646 0.15788 0.48089 0.0
H2019 H 1.00051 0.13274 0.49877 0.0
H2020 H 0.60213 0.24831 0.18165 0.0
H2021 H 0.634 0.25525 0.18565 0.0
H2022 H 0.63824 0.28868 0.24099 0.0
H2023 H 0.60607 0.28157 0.23704 0.0
H2024 H 0.66864 0.2901 0.2056 0.0
H2025 H 0.64357 0.22958 0.24203 0.0
H2026 H 0.62992 0.23606 0.22267 0.0
H2027 H 0.63518 0.2503 0.246 0.0
C2028 C 0.60997 0.25767 0.19436 0.0
C2029 C 0.60217 0.264 0.20942 0.0
C2030 C 0.62801 0.26195 0.19639 0.0
C2031 C 0.63815 0.27238 0.21356 0.0
C2032 C 0.63033 0.28073 0.2276 0.0
H2033 H 0.72961 0.27567 0.2862 0.0
H2034 H 0.70131 0.27712 0.26824 0.0
C2035 C 0.61217 0.27637 0.22559 0.0
C2036 C 0.65511 0.26858 0.21947 0.0
H2037 H 0.6739 0.23993 0.2452 0.0
C2038 C 0.66993 0.27913 0.21416 0.0
C2039 C 0.65627 0.25379 0.23009 0.0
C2040 C 0.64041 0.24166 0.23549 0.0
C2041 C 0.68639 0.2759 0.22043 0.0
C2042 C 0.68753 0.26184 0.23196 0.0
C2043 C 0.67262 0.25064 0.23627 0.0
C2044 C 0.70411 0.26035 0.24229 0.0
C2045 C 0.70251 0.28788 0.21552 0.0
C2046 C 0.71408 0.2495 0.23364 0.0
C2047 C 0.72995 0.2483 0.24394 0.0
C2048 C 0.73579 0.25811 0.26279 0.0
C2049 C 0.72517 0.26794 0.27173 0.0
C2050 C 0.70931 0.26905 0.26146 0.0
H2051 H 0.69922 0.29763 0.20562 0.0
H2052 H 0.71109 0.29629 0.22886 0.0
H2053 H 0.71007 0.27869 0.20875 0.0
H2054 H 0.70982 0.24249 0.21888 0.0
H2055 H 0.73816 0.24091 0.23668 0.0
H2056 H 0.53115 0.85299 0.8961 0.0
H2057 H 0.53518 0.88492 0.9141 0.0
H2058 H 0.49334 0.86408 0.94359 0.0
H2059 H 0.48908 0.83262 0.92579 0.0
H2060 H 0.50203 0.90548 0.92131 0.0
H2061 H 0.54563 0.88877 0.98216 0.0
H2062 H 0.54343 0.87756 0.95765 0.0
H2063 H 0.52642 0.87061 0.97102 0.0
C2064 C 0.52273 0.85542 0.90626 0.0
C2065 C 0.50983 0.84057 0.90965 0.0
C2066 C 0.525 0.87348 0.91639 0.0
C2067 C 0.51454 0.87645 0.93002 0.0
C2068 C 0.50138 0.86179 0.93297 0.0
H2069 H 0.51092 0.9605 0.02377 0.0
H2070 H 0.50571 0.93086 0.00095 0.0
C2071 C 0.49897 0.84393 0.92277 0.0
C2072 C 0.51774 0.8945 0.94232 0.0
H2073 H 0.53397 0.91549 0.98852 0.0
C2074 C 0.5092 0.90793 0.93593 0.0
C2075 C 0.52689 0.89713 0.96132 0.0
C2076 C 0.53624 0.88282 0.9685 0.0
C2077 C 0.5093 0.92409 0.94846 0.0
C2078 C 0.51819 0.92655 0.96762 0.0
C2079 C 0.52691 0.91319 0.97386 0.0
C2080 C 0.52032 0.94389 0.9809 0.0
C2081 C 0.49973 0.93822 0.94126 0.0
C2082 C 0.53064 0.96039 0.97718 0.0
C2083 C 0.53379 0.97685 0.99007 0.0
C2084 C 0.52666 0.97703 0.00688 0.0
C2085 C 0.51662 0.96044 0.01093 0.0
C2086 C 0.51349 0.94376 0.9979 0.0
H2087 H 0.4899 0.93192 0.92799 0.0
H2088 H 0.49302 0.94396 0.95234 0.0
H2089 H 0.50932 0.95013 0.93788 0.0
H2090 H 0.5364 0.96049 0.96437 0.0
H2091 H 0.54178 0.9895 0.98681 0.0
H2092 H 0.99194 0.72936 0.68045 0.0
H2093 H 0.96382 0.73298 0.68885 0.0
H2094 H 0.99156 0.77235 0.73966 0.0
H2095 H 0.0196 0.76849 0.7314 0.0
H2096 H 0.95574 0.72546 0.72709 0.0
H2097 H 0.95372 0.7973 0.71156 0.0
H2098 H 0.96624 0.78293 0.70005 0.0
H2099 H 0.97425 0.79483 0.72428 0.0
C2100 C 0.99185 0.7389 0.69325 0.0
C2101 C 0.00749 0.74862 0.70548 0.0
C2102 C 0.97598 0.74097 0.69797 0.0
C2103 C 0.97589 0.75301 0.7147 0.0
C2104 C 0.99161 0.76317 0.72658 0.0
H2105 H 0.90444 0.78644 0.78003 0.0
H2106 H 0.92991 0.77931 0.76832 0.0
C2107 C 0.00745 0.76091 0.722 0.0
C2108 C 0.95941 0.75377 0.72081 0.0
H2109 H 0.93348 0.78365 0.73016 0.0
C2110 C 0.95064 0.73803 0.72758 0.0
C2111 C 0.95319 0.77031 0.7214 0.0
C2112 C 0.96223 0.7873 0.71381 0.0
C2113 C 0.93586 0.73868 0.73571 0.0
C2114 C 0.9298 0.75537 0.73667 0.0
C2115 C 0.93836 0.77093 0.72942 0.0
C2116 C 0.91469 0.75724 0.74541 0.0
C2117 C 0.92724 0.72187 0.74384 0.0
C2118 C 0.89792 0.74668 0.73663 0.0
C2119 C 0.88335 0.7505 0.74345 0.0
C2120 C 0.88549 0.76508 0.75895 0.0
C2121 C 0.90242 0.77495 0.76825 0.0
C2122 C 0.91695 0.77104 0.7615 0.0
H2123 H 0.93567 0.7117 0.74547 0.0
H2124 H 0.92408 0.72642 0.75803 0.0
H2125 H 0.91479 0.71445 0.73403 0.0
H2126 H 0.89606 0.73612 0.72402 0.0
H2127 H 0.87041 0.74258 0.73617 0.0
H2128 H 0.10671 0.06109 0.85327 0.0
H2129 H 0.09503 0.05508 0.88209 0.0
H2130 H 0.08888 0.99531 0.86496 0.0
H2131 H 0.10155 1.00146 0.83644 0.0
H2132 H 0.0639 0.03723 0.88502 0.0
H2133 H 0.11181 1.0011 0.91956 0.0
H2134 H 0.11543 0.01296 0.89941 0.0
H2135 H 0.10146 0.98958 0.89572 0.0
C2136 C 0.10315 0.04668 0.85584 0.0
C2137 C 0.10514 0.03173 0.84278 0.0
C2138 C 0.0964 0.04326 0.87226 0.0
C2139 C 0.09122 0.02477 0.87585 0.0
C2140 C 0.09323 0.00974 0.8628 0.0
H2141 H 0.03463 0.98239 0.96279 0.0
H2142 H 0.04732 0.98572 0.93378 0.0
C2143 C 0.10041 0.01323 0.8465 0.0
C2144 C 0.08311 0.02144 0.89287 0.0
H2145 H 0.08651 1.00129 0.93341 0.0
C2146 C 0.0689 0.0294 0.8956 0.0
C2147 C 0.08966 0.0113 0.90675 0.0
C2148 C 0.10554 1.00341 0.90535 0.0
C2149 C 0.06111 0.02751 0.9118 0.0
C2150 C 0.06758 0.01723 0.92549 0.0
C2151 C 0.08157 0.00906 0.92272 0.0
C2152 C 0.0602 0.01518 0.94305 0.0
C2153 C 0.04602 0.03648 0.91422 0.0
C2154 C 0.06356 0.0306 0.95785 0.0
C2155 C 0.05655 0.02868 0.97446 0.0
C2156 C 0.04597 0.01134 0.9764 0.0
C2157 C 0.04279 0.99587 0.96164 0.0
C2158 C 0.04996 0.99776 0.9451 0.0
H2159 H 0.04078 0.04137 0.90093 0.0
H2160 H 0.03526 0.02638 0.91838 0.0
H2161 H 0.05053 0.04883 0.9259 0.0
H2162 H 0.07156 0.04411 0.95652 0.0
H2163 H 0.05913 0.04087 0.98558 0.0
H2164 H 0.73574 0.28296 0.54347 0.0
H2165 H 0.74805 0.29176 0.57761 0.0
H2166 H 0.76181 0.35021 0.57085 0.0
H2167 H 0.74842 0.34155 0.53705 0.0
H2168 H 0.78569 0.31093 0.57623 0.0
H2169 H 0.75516 0.34905 0.62911 0.0
H2170 H 0.7418 0.33313 0.60827 0.0
H2171 H 0.7551 0.35518 0.60543 0.0
C2172 C 0.74031 0.29778 0.54958 0.0
C2173 C 0.74183 0.31156 0.53772 0.0
C2174 C 0.74735 0.3028 0.56901 0.0
C2175 C 0.75614 0.32154 0.57643 0.0
C2176 C 0.75505 0.33569 0.56526 0.0
H2177 H 0.81636 0.33399 0.68975 0.0
H2178 H 0.81119 0.34609 0.65941 0.0
C2179 C 0.74754 0.33068 0.54589 0.0
C2180 C 0.77035 0.32494 0.59296 0.0
H2181 H 0.78045 0.3393 0.64103 0.0
C2182 C 0.78479 0.31743 0.59042 0.0
C2183 C 0.76939 0.33417 0.61103 0.0
C2184 C 0.75456 0.3434 0.61381 0.0
C2185 C 0.79756 0.31724 0.60602 0.0
C2186 C 0.79548 0.32434 0.62461 0.0
C2187 C 0.78201 0.3337 0.6268 0.0
C2188 C 0.80422 0.31848 0.64174 0.0
C2189 C 0.81253 0.30846 0.60239 0.0
C2190 C 0.80294 0.29915 0.64171 0.0
C2191 C 0.80658 0.29245 0.65874 0.0
C2192 C 0.81084 0.30485 0.67617 0.0
C2193 C 0.81335 0.32432 0.67631 0.0
C2194 C 0.81028 0.33115 0.65907 0.0
H2195 H 0.81713 0.31248 0.58924 0.0
H2196 H 0.82376 0.31274 0.6146 0.0
H2197 H 0.80785 0.29287 0.59979 0.0
H2198 H 0.79749 0.28893 0.6288 0.0
H2199 H 0.80405 0.27733 0.65841 0.0
H2200 H 0.43319 1.0014 0.3132 0.0
H2201 H 0.44675 1.00013 0.34581 0.0
H2202 H 0.46283 0.06079 0.35707 0.0
H2203 H 0.4482 0.06202 0.32444 0.0
H2204 H 0.47613 0.00606 0.36534 0.0
H2205 H 0.44793 0.05704 0.4058 0.0
H2206 H 0.44045 0.04914 0.38044 0.0
H2207 H 0.4598 0.06801 0.3892 0.0
C2208 C 0.43931 0.01461 0.32267 0.0
C2209 C 0.43913 0.03185 0.31582 0.0
C2210 C 0.44731 0.01385 0.34159 0.0
C2211 C 0.45589 0.03031 0.35485 0.0
C2212 C 0.4559 0.04766 0.34797 0.0
H2213 H 0.52566 0.05241 0.46871 0.0
H2214 H 0.50921 0.05284 0.43693 0.0
C2215 C 0.4475 0.04844 0.329 0.0
C2216 C 0.46505 0.02897 0.37527 0.0
H2217 H 0.47209 0.04822 0.42328 0.0
C2218 C 0.47496 0.01527 0.3779 0.0
C2219 C 0.46383 0.04058 0.39236 0.0
C2220 C 0.45227 0.05435 0.39187 0.0
C2221 C 0.4837 0.01327 0.3963 0.0
C2222 C 0.48295 0.02534 0.41318 0.0
C2223 C 0.47301 0.03893 0.41065 0.0
C2224 C 0.49285 0.02468 0.43332 0.0
C2225 C 0.49411 0.99844 0.39747 0.0
C2226 C 0.48931 0.00885 0.44284 0.0
C2227 C 0.49866 0.00871 0.46154 0.0
C2228 C 0.5121 0.02432 0.47142 0.0
C2229 C 0.51548 0.04008 0.46188 0.0
C2230 C 0.50599 0.04034 0.44346 0.0
H2231 H 0.49599 0.99238 0.38312 0.0
H2232 H 0.50715 0.00442 0.40677 0.0
H2233 H 0.48707 0.98683 0.40396 0.0
H2234 H 0.4792 0.99653 0.43584 0.0
H2235 H 0.49558 0.99619 0.46808 0.0
H2236 H 0.78969 0.67398 0.07283 0.0
H2237 H 0.79415 0.68605 0.10727 0.0
H2238 H 0.78461 0.73905 0.09432 0.0
H2239 H 0.77979 0.72703 0.06006 0.0
H2240 H 0.81462 0.72103 0.13462 0.0
H2241 H 0.74256 0.71325 0.11859 0.0
H2242 H 0.75423 0.70271 0.10213 0.0
H2243 H 0.75449 0.72736 0.10394 0.0
C2244 C 0.78913 0.68841 0.07737 0.0
C2245 C 0.78407 0.69947 0.06384 0.0
C2246 C 0.79167 0.69527 0.09701 0.0
C2247 C 0.78934 0.71327 0.1032 0.0
C2248 C 0.78621 0.72502 0.08973 0.0
H2249 H 0.77676 0.77651 0.20808 0.0
H2250 H 0.77991 0.76541 0.17511 0.0
C2251 C 0.78346 0.71813 0.07019 0.0
C2252 C 0.78745 0.71881 0.12318 0.0
H2253 H 0.75728 0.72867 0.14968 0.0
C2254 C 0.80211 0.72261 0.13799 0.0
C2255 C 0.77101 0.72061 0.12746 0.0
C2256 C 0.75462 0.7156 0.11224 0.0
C2257 C 0.80079 0.72879 0.157 0.0
C2258 C 0.78446 0.73115 0.16106 0.0
C2259 C 0.7698 0.72703 0.14634 0.0
C2260 C 0.7822 0.73768 0.18061 0.0
C2261 C 0.81684 0.73315 0.1726 0.0
C2262 C 0.78196 0.72551 0.1942 0.0
C2263 C 0.78002 0.73175 0.21279 0.0
C2264 C 0.7781 0.75011 0.21786 0.0
C2265 C 0.77785 0.76216 0.20418 0.0
C2266 C 0.77983 0.75592 0.18555 0.0
H2267 H 0.82892 0.7325 0.16678 0.0
H2268 H 0.81857 0.7474 0.18097 0.0
H2269 H 0.81509 0.72284 0.18265 0.0
H2270 H 0.78352 0.71131 0.19048 0.0
H2271 H 0.78045 0.72242 0.22336 0.0
H2272 H 0.07867 0.99744 0.73741 0.0
H2273 H 0.06936 0.99175 0.70222 0.0
H2274 H 0.10674 0.04273 0.69885 0.0
H2275 H 0.11637 0.04794 0.73357 0.0
H2276 H 0.0549 0.0177 0.68407 0.0
H2277 H 0.11294 0.00621 0.65441 0.0
H2278 H 0.11042 1.00325 0.67863 0.0
H2279 H 0.11817 0.02638 0.67298 0.0
C2280 C 0.08505 0.00708 0.72895 0.0
C2281 C 0.09806 0.02313 0.73782 0.0
C2282 C 0.0798 1.00387 0.70902 0.0
C2283 C 0.08752 0.01675 0.69804 0.0
C2284 C 0.10093 0.03242 0.70702 0.0
H2285 H 0.06487 0.04961 0.5875 0.0
H2286 H 0.07481 0.04866 0.62158 0.0
C2287 C 0.10625 0.0355 0.72679 0.0
C2288 C 0.08012 0.0155 0.67768 0.0
H2289 H 0.09147 0.01673 0.6337 0.0
C2290 C 0.06277 0.01715 0.67297 0.0
C2291 C 0.09055 0.015 0.66338 0.0
C2292 C 0.109 0.01243 0.66756 0.0
C2293 C 0.05576 0.01899 0.65434 0.0
C2294 C 0.06637 0.01902 0.64024 0.0
C2295 C 0.08355 0.01695 0.64479 0.0
C2296 C 0.05957 0.02027 0.62038 0.0
C2297 C 0.03726 0.02141 0.64988 0.0
C2298 C 0.04774 0.00465 0.60882 0.0
C2299 C 0.04225 0.00507 0.58954 0.0
C2300 C 0.04847 0.02117 0.58162 0.0
C2301 C 0.0599 0.03708 0.59337 0.0
C2302 C 0.06558 0.03654 0.61269 0.0
H2303 H 0.03181 0.02421 0.66308 0.0
H2304 H 0.0368 0.0332 0.64165 0.0
H2305 H 0.02875 0.00837 0.64084 0.0
H2306 H 0.0431 0.99199 0.61464 0.0
H2307 H 0.03325 0.99272 0.58077 0.0
H2308 H 0.72371 0.31744 0.44566 0.0
H2309 H 0.72458 0.3018 0.41367 0.0
H2310 H 0.78021 0.30697 0.43075 0.0
H2311 H 0.77916 0.32149 0.46274 0.0
H2312 H 0.74411 0.32591 0.39609 0.0
H2313 H 0.76738 0.26012 0.39265 0.0
H2314 H 0.75844 0.26871 0.41283 0.0
H2315 H 0.78113 0.27769 0.41152 0.0
C2316 C 0.73593 0.3146 0.44259 0.0
C2317 C 0.7515 0.32101 0.45605 0.0
C2318 C 0.73635 0.30549 0.42458 0.0
C2319 C 0.75242 0.30336 0.42006 0.0
C2320 C 0.76761 0.30811 0.43418 0.0
H2321 H 0.80749 0.30467 0.33216 0.0
H2322 H 0.7942 0.32176 0.35534 0.0
C2323 C 0.76709 0.31673 0.45227 0.0
C2324 C 0.7545 0.30147 0.40019 0.0
H2325 H 0.77505 0.28004 0.36911 0.0
C2326 C 0.7504 0.31553 0.38987 0.0
C2327 C 0.76322 0.28833 0.39266 0.0
C2328 C 0.76763 0.2728 0.40301 0.0
C2329 C 0.75513 0.31692 0.37206 0.0
C2330 C 0.76412 0.30403 0.36486 0.0
C2331 C 0.76817 0.28997 0.37509 0.0
C2332 C 0.76838 0.3032 0.34595 0.0
C2333 C 0.75089 0.33211 0.36116 0.0
C2334 C 0.75781 0.28811 0.33251 0.0
C2335 C 0.76562 0.27744 0.32078 0.0
C2336 C 0.78367 0.28295 0.32132 0.0
C2337 C 0.79363 0.29998 0.33232 0.0
C2338 C 0.78597 0.31012 0.34486 0.0
H2339 H 0.7447 0.34182 0.36943 0.0
H2340 H 0.76304 0.34039 0.35758 0.0
H2341 H 0.74185 0.32551 0.34744 0.0
H2342 H 0.74419 0.28273 0.33337 0.0
H2343 H 0.75768 0.26462 0.31178 0.0
H2344 H 0.45052 0.05886 0.21246 0.0
H2345 H 0.46325 0.05704 0.18303 0.0
H2346 H 0.42972 1.00171 0.16264 0.0
H2347 H 0.41718 1.00351 0.1919 0.0
H2348 H 0.48185 0.0311 0.16902 0.0
H2349 H 0.42273 0.02433 0.11396 0.0
H2350 H 0.4233 0.03204 0.13909 0.0
H2351 H 0.4207 0.00748 0.1301 0.0
C2352 C 0.44537 0.0466 0.20142 0.0
C2353 C 0.43215 0.03169 0.20455 0.0
C2354 C 0.45289 0.0454 0.18453 0.0
C2355 C 0.44744 0.02933 0.16993 0.0
C2356 C 0.43409 0.01456 0.17302 0.0
H2357 H 0.47812 1.00134 0.0553 0.0
H2358 H 0.46366 1.00128 0.08345 0.0
C2359 C 0.42676 0.01567 0.18993 0.0
C2360 C 0.45624 0.02759 0.15219 0.0
H2361 H 0.44838 0.0207 0.10267 0.0
C2362 C 0.47445 0.02899 0.15455 0.0
C2363 C 0.44689 0.0241 0.13292 0.0
C2364 C 0.42734 0.02201 0.12875 0.0
C2365 C 0.48333 0.02702 0.13876 0.0
C2366 C 0.47418 0.02464 0.11944 0.0
C2367 C 0.45585 0.02283 0.11709 0.0
C2368 C 0.48328 0.02427 0.10176 0.0
C2369 C 0.50239 0.02658 0.14322 0.0
C2370 C 0.49923 0.03723 0.1017 0.0
C2371 C 0.50778 0.03688 0.08569 0.0
C2372 C 0.50054 0.02405 0.06849 0.0
C2373 C 0.48429 0.01147 0.06812 0.0
C2374 C 0.47592 0.01148 0.08442 0.0
H2375 H 0.50539 0.02098 0.15676 0.0
H2376 H 0.50614 0.0177 0.13157 0.0
H2377 H 0.51062 0.04114 0.14525 0.0
H2378 H 0.50514 0.04799 0.11405 0.0
H2379 H 0.52003 0.04711 0.08669 0.0
H2380 H 0.76565 0.71894 0.97003 0.0
H2381 H 0.77069 0.73219 0.94127 0.0
H2382 H 0.78723 0.68293 0.91928 0.0
H2383 H 0.78222 0.6694 0.94842 0.0
H2384 H 0.80173 0.73976 0.92427 0.0
H2385 H 0.74567 0.68713 0.8773 0.0
H2386 H 0.74805 0.69112 0.90311 0.0
H2387 H 0.7615 0.67807 0.89184 0.0
C2388 C 0.77044 0.71087 0.95915 0.0
C2389 C 0.77331 0.69295 0.96142 0.0
C2390 C 0.77337 0.71854 0.94272 0.0
C2391 C 0.77907 0.70845 0.92799 0.0
C2392 C 0.78259 0.69084 0.9304 0.0
H2393 H 0.78473 0.73111 0.81188 0.0
H2394 H 0.78432 0.71714 0.84115 0.0
C2395 C 0.77983 0.68317 0.94707 0.0
C2396 C 0.78068 0.71633 0.90999 0.0
H2397 H 0.76143 0.71046 0.86286 0.0
C2398 C 0.79304 0.7333 0.91077 0.0
C2399 C 0.76921 0.70798 0.89247 0.0
C2400 C 0.75524 0.69014 0.891 0.0
C2401 C 0.79441 0.74202 0.89445 0.0
C2402 C 0.78272 0.73384 0.87692 0.0
C2403 C 0.77043 0.71678 0.8762 0.0
C2404 C 0.78299 0.74257 0.85914 0.0
C2405 C 0.80866 0.7597 0.89618 0.0
C2406 C 0.78203 0.76146 0.85924 0.0
C2407 C 0.78264 0.76959 0.84256 0.0
C2408 C 0.78362 0.75883 0.82529 0.0
C2409 C 0.78389 0.73975 0.82498 0.0
C2410 C 0.7837 0.73175 0.84174 0.0
H2411 H 0.81961 0.76058 0.9082 0.0
H2412 H 0.81402 0.7604 0.88276 0.0
H2413 H 0.80318 0.7722 0.8992 0.0
H2414 H 0.78078 0.76996 0.87221 0.0
H2415 H 0.78226 0.78427 0.84314 0.0
H2416 H 0.8404 0.12344 0.06493 0.0
H2417 H 0.86112 0.10635 0.05308 0.0
H2418 H 0.88418 0.15473 0.02916 0.0
H2419 H 0.86455 0.172 0.0417 0.0
H2420 H 0.86362 0.09756 0.01617 0.0
H2421 H 0.92718 0.14318 0.05604 0.0
H2422 H 0.90649 0.1455 0.06224 0.0
H2423 H 0.91395 0.15561 0.04243 0.0
C2424 C 0.85018 0.13042 0.05749 0.0
C2425 C 0.85113 0.149 0.05447 0.0
C2426 C 0.8619 0.12074 0.05073 0.0
C2427 C 0.87434 0.12953 0.04065 0.0
C2428 C 0.87512 0.14801 0.03752 0.0
H2429 H 0.95183 0.07997 0.99063 0.0
H2430 H 0.93131 0.10059 0.99374 0.0
C2431 C 0.86381 0.15778 0.04464 0.0
C2432 C 0.88575 0.11902 0.0322 0.0
H2433 H 0.92847 0.11892 0.03161 0.0
C2434 C 0.8778 0.10223 0.01951 0.0
C2435 C 0.90421 0.12552 0.0363 0.0
C2436 C 0.91346 0.14336 0.05012 0.0
C2437 C 0.8879 0.09123 0.01137 0.0
C2438 C 0.90629 0.09729 0.01614 0.0
C2439 C 0.91428 0.11457 0.02794 0.0
C2440 C 0.91734 0.08434 0.01223 0.0
C2441 C 0.87887 0.0729 0.9983 0.0
C2442 C 0.9161 0.06875 0.02176 0.0
C2443 C 0.92772 0.05732 0.0202 0.0
C2444 C 0.94069 0.06138 0.0091 0.0
C2445 C 0.94175 0.07672 0.99915 0.0
C2446 C 0.93014 0.08836 0.00089 0.0
H2447 H 0.86541 0.07313 0.99143 0.0
H2448 H 0.88644 0.06984 0.98694 0.0
H2449 H 0.87779 0.06125 0.00686 0.0
H2450 H 0.90649 0.0658 0.03091 0.0
H2451 H 0.92678 0.04546 0.02791 0.0
H2452 H 0.3391 0.43149 0.02973 0.0
H2453 H 0.36655 0.45123 0.02401 0.0
H2454 H 0.39526 0.41258 0.04604 0.0
H2455 H 0.36839 0.39312 0.05176 0.0
H2456 H 0.39859 0.46892 0.04993 0.0
H2457 H 0.41041 0.41611 0.99423 0.0
H2458 H 0.38934 0.41445 0.00132 0.0
H2459 H 0.40647 0.40716 0.0158 0.0
C2460 C 0.35129 0.42735 0.03354 0.0
C2461 C 0.35138 0.41062 0.04118 0.0
C2462 C 0.36698 0.43856 0.03013 0.0
C2463 C 0.383 0.43317 0.03411 0.0
C2464 C 0.38311 0.41684 0.04229 0.0
H2465 H 0.49434 0.47802 0.03142 0.0
H2466 H 0.46562 0.45785 0.03291 0.0
C2467 C 0.36761 0.40577 0.04572 0.0
C2468 C 0.39983 0.44472 0.0305 0.0
H2469 H 0.43445 0.4423 0.00765 0.0
C2470 C 0.40631 0.46317 0.0405 0.0
C2471 C 0.41014 0.43719 0.01839 0.0
C2472 C 0.4037 0.4177 0.00667 0.0
C2473 C 0.42288 0.47407 0.03919 0.0
C2474 C 0.43324 0.46659 0.0271 0.0
C2475 C 0.42669 0.44813 0.01696 0.0
C2476 C 0.45067 0.47793 0.02462 0.0
C2477 C 0.42936 0.49332 0.05141 0.0
C2478 C 0.45196 0.49562 0.01876 0.0
C2479 C 0.46828 0.50716 0.01817 0.0
C2480 C 0.48384 0.50119 0.02287 0.0
C2481 C 0.4826 0.483 0.02761 0.0
C2482 C 0.46616 0.4715 0.02852 0.0
H2483 H 0.42263 0.49456 0.06387 0.0
H2484 H 0.4437 0.49646 0.05683 0.0
H2485 H 0.4266 0.50415 0.04267 0.0
H2486 H 0.44029 0.50074 0.01498 0.0
H2487 H 0.46875 0.52098 0.01423 0.0
H2488 H 0.42242 0.56399 0.8041 0.0
H2489 H 0.40872 0.59066 0.8079 0.0
H2490 H 0.38125 0.57463 0.74931 0.0
H2491 H 0.395 0.54789 0.74527 0.0
H2492 H 0.40907 0.62119 0.78454 0.0
H2493 H 0.34292 0.57674 0.78398 0.0
H2494 H 0.36269 0.5684 0.78886 0.0
H2495 H 0.35342 0.56962 0.76465 0.0
C2496 C 0.41345 0.5661 0.792 0.0
C2497 C 0.40965 0.55374 0.77441 0.0
C2498 C 0.40572 0.58139 0.7942 0.0
C2499 C 0.3939 0.58441 0.77896 0.0
C2500 C 0.39026 0.57234 0.76128 0.0
H2501 H 0.33003 0.65868 0.75157 0.0
H2502 H 0.34683 0.63465 0.75399 0.0
C2503 C 0.39814 0.55713 0.75899 0.0
C2504 C 0.38509 0.6 0.78164 0.0
H2505 H 0.34484 0.60904 0.78208 0.0
C2506 C 0.39506 0.61862 0.78419 0.0
C2507 C 0.36689 0.59647 0.78145 0.0
C2508 C 0.35582 0.57674 0.77976 0.0
C2509 C 0.38705 0.63387 0.78561 0.0
C2510 C 0.36873 0.63024 0.78464 0.0
C2511 C 0.3589 0.61167 0.78279 0.0
C2512 C 0.3592 0.64528 0.78357 0.0
C2513 C 0.39803 0.65365 0.78736 0.0
C2514 C 0.36062 0.6591 0.79951 0.0
C2515 C 0.35096 0.67286 0.79818 0.0
C2516 C 0.33996 0.67295 0.78084 0.0
C2517 C 0.33865 0.65908 0.76498 0.0
C2518 C 0.34814 0.64532 0.76636 0.0
H2519 H 0.41167 0.65385 0.78544 0.0
H2520 H 0.39206 0.66116 0.77656 0.0
H2521 H 0.39848 0.66155 0.80178 0.0
H2522 H 0.369 0.65909 0.81296 0.0
H2523 H 0.35212 0.68344 0.81058 0.0
H2524 H 0.27706 0.66421 0.5772 0.0
H2525 H 0.24976 0.6395 0.57166 0.0
H2526 H 0.23963 0.64663 0.51237 0.0
H2527 H 0.26661 0.67162 0.51787 0.0
H2528 H 0.21347 0.64807 0.55051 0.0
H2529 H 0.23557 0.58597 0.51905 0.0
H2530 H 0.25028 0.60496 0.53625 0.0
H2531 H 0.24339 0.60864 0.51225 0.0
C2532 C 0.26898 0.66048 0.563 0.0
C2533 C 0.27373 0.66996 0.54802 0.0
C2534 C 0.25351 0.64636 0.55986 0.0
C2535 C 0.2429 0.64125 0.54159 0.0
C2536 C 0.24778 0.65041 0.52653 0.0
H2537 H 0.13616 0.57341 0.50261 0.0
H2538 H 0.1658 0.59212 0.50265 0.0
C2539 C 0.26304 0.66476 0.52974 0.0
C2540 C 0.226 0.62737 0.53853 0.0
H2541 H 0.20558 0.58134 0.52099 0.0
C2542 C 0.2117 0.6335 0.54403 0.0
C2543 C 0.22387 0.60846 0.52999 0.0
C2544 C 0.23905 0.60144 0.52404 0.0
C2545 C 0.1952 0.62108 0.54123 0.0
C2546 C 0.1931 0.60213 0.53288 0.0
C2547 C 0.20735 0.59597 0.52726 0.0
C2548 C 0.17636 0.58839 0.53127 0.0
C2549 C 0.18011 0.62814 0.54746 0.0
C2550 C 0.17288 0.57981 0.54711 0.0
C2551 C 0.15616 0.56914 0.54708 0.0
C2552 C 0.14268 0.56702 0.53124 0.0
C2553 C 0.14641 0.57487 0.51496 0.0
C2554 C 0.16324 0.58546 0.51495 0.0
H2555 H 0.18357 0.64364 0.55225 0.0
H2556 H 0.16868 0.62448 0.53546 0.0
H2557 H 0.17604 0.62112 0.55946 0.0
H2558 H 0.18287 0.58217 0.55987 0.0
H2559 H 0.1535 0.56354 0.55993 0.0
H2560 H 0.69968 0.9484 0.82641 0.0
H2561 H 0.71358 0.92209 0.82243 0.0
H2562 H 0.70027 0.91748 0.76114 0.0
H2563 H 0.68635 0.94435 0.76512 0.0
H2564 H 0.70511 0.88669 0.81052 0.0
H2565 H 0.74918 0.91297 0.76229 0.0
H2566 H 0.73711 0.92762 0.77404 0.0
H2567 H 0.7267 0.91142 0.75229 0.0
C2568 C 0.69961 0.94203 0.81191 0.0
C2569 C 0.69156 0.94922 0.79617 0.0
C2570 C 0.70774 0.92658 0.80964 0.0
C2571 C 0.70864 0.91721 0.79143 0.0
C2572 C 0.70053 0.92422 0.77554 0.0
H2573 H 0.74175 0.81039 0.75387 0.0
H2574 H 0.72883 0.83805 0.75655 0.0
C2575 C 0.69224 0.93977 0.77782 0.0
C2576 C 0.71761 0.90018 0.78949 0.0
H2577 H 0.74667 0.88093 0.7663 0.0
C2578 C 0.71422 0.88571 0.80081 0.0
C2579 C 0.72998 0.89816 0.77722 0.0
C2580 C 0.73616 0.91344 0.76593 0.0
C2581 C 0.72206 0.8698 0.79982 0.0
C2582 C 0.73393 0.86754 0.78712 0.0
C2583 C 0.7375 0.88201 0.77593 0.0
C2584 C 0.74254 0.85038 0.78533 0.0
C2585 C 0.7173 0.85517 0.81231 0.0
C2586 C 0.75509 0.84741 0.80032 0.0
C2587 C 0.76293 0.83161 0.79857 0.0
C2588 C 0.75827 0.81756 0.78197 0.0
C2589 C 0.74568 0.82047 0.76705 0.0
C2590 C 0.73824 0.83656 0.76857 0.0
H2591 H 0.70604 0.85709 0.81919 0.0
H2592 H 0.71402 0.84079 0.80374 0.0
H2593 H 0.72874 0.85614 0.82376 0.0
H2594 H 0.75903 0.85749 0.81349 0.0
H2595 H 0.77255 0.83025 0.81047 0.0
H2596 H 0.74535 0.90139 0.55137 0.0
H2597 H 0.71784 0.91179 0.54868 0.0
H2598 H 0.72221 0.92254 0.49148 0.0
H2599 H 0.74922 0.91156 0.49382 0.0
H2600 H 0.71084 0.94436 0.54445 0.0
H2601 H 0.6726 0.89355 0.48086 0.0
H2602 H 0.69316 0.8909 0.49351 0.0
H2603 H 0.69281 0.90657 0.47606 0.0
C2604 C 0.74044 0.90596 0.53822 0.0
C2605 C 0.74956 0.9056 0.52282 0.0
C2606 C 0.72464 0.91184 0.53665 0.0
C2607 C 0.71758 0.91758 0.51968 0.0
C2608 C 0.7269 0.9176 0.50448 0.0
H2609 H 0.64031 0.98178 0.49239 0.0
H2610 H 0.66415 0.96557 0.4934 0.0
C2611 C 0.74255 0.91151 0.50594 0.0
C2612 C 0.70105 0.92448 0.51826 0.0
H2613 H 0.6611 0.92027 0.4898 0.0
C2614 C 0.69992 0.93888 0.5326 0.0
C2615 C 0.68663 0.91741 0.50282 0.0
C2616 C 0.68626 0.90112 0.48756 0.0
C2617 C 0.68516 0.94667 0.53166 0.0
C2618 C 0.67107 0.93998 0.516 0.0
C2619 C 0.67198 0.92546 0.50176 0.0
C2620 C 0.65554 0.94838 0.5141 0.0
C2621 C 0.68482 0.96238 0.54721 0.0
C2622 C 0.64252 0.94383 0.52512 0.0
C2623 C 0.62863 0.9529 0.52441 0.0
C2624 C 0.62751 0.96686 0.51273 0.0
C2625 C 0.64043 0.97097 0.50135 0.0
C2626 C 0.65421 0.96179 0.50197 0.0
H2627 H 0.69731 0.96693 0.55776 0.0
H2628 H 0.68222 0.97471 0.54076 0.0
H2629 H 0.674 0.95759 0.55494 0.0
H2630 H 0.64325 0.93344 0.53451 0.0
H2631 H 0.61884 0.94901 0.53311 0.0
H2632 H 0.3879 0.46714 0.77279 0.0
H2633 H 0.36785 0.44028 0.7812 0.0
H2634 H 0.38152 0.40266 0.7379 0.0
H2635 H 0.40166 0.42916 0.72974 0.0
H2636 H 0.33916 0.41307 0.76007 0.0
H2637 H 0.39245 0.37972 0.78597 0.0
H2638 H 0.39644 0.40397 0.78222 0.0
H2639 H 0.39338 0.38522 0.76235 0.0
C2640 C 0.38629 0.45318 0.7648 0.0
C2641 C 0.39632 0.4502 0.7506 0.0
C2642 C 0.375 0.43786 0.76975 0.0
C2643 C 0.37362 0.41944 0.76054 0.0
C2644 C 0.38281 0.41668 0.74559 0.0
H2645 H 0.31283 0.30757 0.74318 0.0
H2646 H 0.33358 0.33792 0.74428 0.0
C2647 C 0.39414 0.43186 0.74077 0.0
C2648 C 0.36255 0.40292 0.76622 0.0
H2649 H 0.3634 0.35933 0.77754 0.0
C2650 C 0.34447 0.40145 0.76425 0.0
C2651 C 0.36957 0.38791 0.77197 0.0
C2652 C 0.38905 0.38934 0.77597 0.0
C2653 C 0.33306 0.38479 0.76653 0.0
C2654 C 0.33999 0.36933 0.77088 0.0
C2655 C 0.35815 0.37115 0.7739 0.0
C2656 C 0.32844 0.35078 0.77109 0.0
C2657 C 0.31361 0.38347 0.76345 0.0
C2658 C 0.31906 0.34798 0.786 0.0
C2659 C 0.30744 0.33067 0.78546 0.0
C2660 C 0.30494 0.31612 0.7699 0.0
C2661 C 0.31452 0.31877 0.75517 0.0
C2662 C 0.32635 0.33598 0.75585 0.0
H2663 H 0.31019 0.39594 0.75795 0.0
H2664 H 0.30647 0.37057 0.75316 0.0
H2665 H 0.30901 0.38243 0.77726 0.0
H2666 H 0.3206 0.35924 0.79789 0.0
H2667 H 0.30012 0.32876 0.79698 0.0
H2668 H 0.16655 0.57605 0.29254 0.0
H2669 H 0.1846 0.60713 0.29415 0.0
H2670 H 0.23084 0.58507 0.30048 0.0
H2671 H 0.21236 0.55294 0.29816 0.0
H2672 H 0.20809 0.63062 0.31981 0.0
H2673 H 0.24033 0.61426 0.25826 0.0
H2674 H 0.22244 0.59746 0.2638 0.0
H2675 H 0.2442 0.6013 0.2775 0.0
C2676 C 0.18055 0.57744 0.29418 0.0
C2677 C 0.18776 0.56145 0.29491 0.0
C2678 C 0.19098 0.59558 0.29521 0.0
C2679 C 0.20924 0.59885 0.29709 0.0
C2680 C 0.21676 0.58312 0.29847 0.0
H2681 H 0.2834 0.70661 0.29253 0.0
H2682 H 0.27044 0.6742 0.29664 0.0
C2683 C 0.20616 0.56464 0.29731 0.0
C2684 C 0.21976 0.61876 0.29738 0.0
H2685 H 0.24771 0.64573 0.27381 0.0
C2686 C 0.21681 0.63381 0.30975 0.0
C2687 C 0.23126 0.62335 0.28437 0.0
C2688 C 0.23468 0.6083 0.2701 0.0
C2689 C 0.22469 0.6529 0.30938 0.0
C2690 C 0.23581 0.65748 0.29601 0.0
C2691 C 0.23919 0.64247 0.28403 0.0
C2692 C 0.24383 0.67762 0.29404 0.0
C2693 C 0.22115 0.66796 0.32358 0.0
C2694 C 0.23339 0.69068 0.29107 0.0
C2695 C 0.24091 0.70938 0.28917 0.0
C2696 C 0.25901 0.71545 0.28969 0.0
C2697 C 0.26943 0.70239 0.29222 0.0
C2698 C 0.26197 0.68379 0.2945 0.0
H2699 H 0.21725 0.66228 0.33638 0.0
H2700 H 0.23282 0.67993 0.32842 0.0
H2701 H 0.21017 0.6734 0.31669 0.0
H2702 H 0.21933 0.68637 0.28989 0.0
H2703 H 0.23247 0.71897 0.28679 0.0
H2704 H 0.51844 0.69186 0.42533 0.0
H2705 H 0.52461 0.66463 0.43955 0.0
H2706 H 0.51794 0.69074 0.49455 0.0
H2707 H 0.51076 0.71711 0.48022 0.0
H2708 H 0.54818 0.65906 0.4663 0.0
H2709 H 0.48514 0.64198 0.49181 0.0
H2710 H 0.48952 0.65953 0.4766 0.0
H2711 H 0.49763 0.66527 0.50211 0.0
C2712 C 0.51833 0.69171 0.44044 0.0
C2713 C 0.51384 0.70643 0.45158 0.0
C2714 C 0.52181 0.67616 0.44858 0.0
C2715 C 0.52113 0.67522 0.46804 0.0
C2716 C 0.51777 0.69058 0.47936 0.0
H2717 H 0.53565 0.59017 0.54104 0.0
H2718 H 0.53428 0.62008 0.5294 0.0
C2719 C 0.51386 0.70579 0.47117 0.0
C2720 C 0.52396 0.65832 0.47655 0.0
H2721 H 0.50642 0.62563 0.50275 0.0
C2722 C 0.53896 0.65171 0.47415 0.0
C2723 C 0.51203 0.64868 0.48699 0.0
C2724 C 0.49511 0.65412 0.48937 0.0
C2725 C 0.54238 0.63592 0.48189 0.0
C2726 C 0.53044 0.62634 0.49223 0.0
C2727 C 0.51561 0.63305 0.49491 0.0
C2728 C 0.53255 0.60874 0.49953 0.0
C2729 C 0.55888 0.62973 0.47917 0.0
C2730 C 0.53198 0.59249 0.48664 0.0
C2731 C 0.53281 0.57555 0.49328 0.0
C2732 C 0.53401 0.57453 0.51288 0.0
C2733 C 0.53469 0.59073 0.52586 0.0
C2734 C 0.53393 0.60774 0.51922 0.0
H2735 H 0.56868 0.6411 0.47522 0.0
H2736 H 0.56489 0.62535 0.49241 0.0
H2737 H 0.5556 0.61747 0.46743 0.0
H2738 H 0.53048 0.59278 0.47138 0.0
H2739 H 0.53216 0.56313 0.48306 0.0
H2740 H 0.61939 0.31627 0.66973 0.0
H2741 H 0.64535 0.31257 0.69116 0.0
H2742 H 0.62376 0.25258 0.68282 0.0
H2743 H 0.59765 0.25637 0.66175 0.0
H2744 H 0.64815 0.29512 0.726 0.0
H2745 H 0.67292 0.25838 0.66702 0.0
H2746 H 0.65625 0.27138 0.66253 0.0
H2747 H 0.65077 0.24855 0.66947 0.0
C2748 C 0.62006 0.30238 0.67284 0.0
C2749 C 0.60639 0.28666 0.66443 0.0
C2750 C 0.63492 0.30024 0.68498 0.0
C2751 C 0.63666 0.28227 0.68848 0.0
C2752 C 0.62284 0.26657 0.68027 0.0
H2753 H 0.72903 0.24931 0.74798 0.0
H2754 H 0.70018 0.24843 0.72897 0.0
C2755 C 0.60783 0.26877 0.66843 0.0
C2756 C 0.65304 0.28004 0.70043 0.0
H2757 H 0.68967 0.26295 0.69816 0.0
C2758 C 0.65721 0.28806 0.71992 0.0
C2759 C 0.66479 0.27058 0.69261 0.0
C2760 C 0.66111 0.26181 0.67174 0.0
C2761 C 0.67275 0.28698 0.73174 0.0
C2762 C 0.68494 0.27825 0.72377 0.0
C2763 C 0.68052 0.26978 0.70436 0.0
C2764 C 0.70258 0.27855 0.7351 0.0
C2765 C 0.67575 0.29495 0.75279 0.0
C2766 C 0.71386 0.29573 0.74453 0.0
C2767 C 0.73018 0.29621 0.75547 0.0
C2768 C 0.73593 0.27958 0.75703 0.0
C2769 C 0.72499 0.26238 0.74708 0.0
C2770 C 0.70847 0.26188 0.73623 0.0
H2771 H 0.66315 0.2949 0.75774 0.0
H2772 H 0.6831 0.28685 0.76171 0.0
H2773 H 0.68339 0.3098 0.75522 0.0
H2774 H 0.71005 0.30889 0.74343 0.0
H2775 H 0.73835 0.30972 0.76278 0.0
H2776 H 0.02421 0.30449 0.98687 0.0
H2777 H 0.0281 0.33839 0.99781 0.0
H2778 H 0.02101 0.34773 0.93908 0.0
H2779 H 0.01763 0.31406 0.92808 0.0
H2780 H 0.05168 0.37544 0.98055 0.0
H2781 H 0.97889 0.35959 0.97279 0.0
H2782 H 0.99108 0.34206 0.97754 0.0
H2783 H 0.9885 0.34892 0.95429 0.0
C2784 C 0.02401 0.3139 0.97638 0.0
C2785 C 0.02069 0.30678 0.95669 0.0
C2786 C 0.02623 0.33316 0.98261 0.0
C2787 C 0.02479 0.34536 0.96919 0.0
C2788 C 0.02233 0.33845 0.94958 0.0
H2789 H 1.00355 0.45667 0.97927 0.0
H2790 H 0.00444 0.42388 0.96833 0.0
C2791 C 0.02046 0.31928 0.94335 0.0
C2792 C 0.02373 0.36479 0.97551 0.0
H2793 H 0.9942 0.39126 0.9825 0.0
C2794 C 0.03918 0.37899 0.98104 0.0
C2795 C 0.00732 0.36917 0.97589 0.0
C2796 C 0.99043 0.3542 0.96989 0.0
C2797 C 0.03862 0.39772 0.98699 0.0
C2798 C 0.02218 0.40207 0.98773 0.0
C2799 C 0.00674 0.38782 0.98198 0.0
C2800 C 0.02071 0.4213 0.99463 0.0
C2801 C 0.05557 0.41271 0.99202 0.0
C2802 C 0.02899 0.4303 0.01321 0.0
C2803 C 0.02861 0.4489 0.0193 0.0
C2804 C 0.01954 0.45852 0.0071 0.0
C2805 C 0.01038 0.44927 0.98893 0.0
C2806 C 0.01102 0.4307 0.98268 0.0
H2807 H 0.06623 0.408 0.98583 0.0
H2808 H 0.05388 0.42593 0.98683 0.0
H2809 H 0.0598 0.41588 0.00784 0.0
H2810 H 0.03606 0.42308 0.02285 0.0
H2811 H 0.03576 0.45594 0.03338 0.0
H2812 H 0.01373 0.80256 0.18788 0.0
H2813 H 0.98584 0.79251 0.19828 0.0
H2814 H 0.97198 0.74303 0.15479 0.0
H2815 H 1.00007 0.75298 0.14425 0.0
H2816 H 0.95224 0.78656 0.17469 0.0
H2817 H 0.96064 0.72164 0.20383 0.0
H2818 H 0.97908 0.739 0.2 0.0
H2819 H 0.96456 0.72353 0.17992 0.0
C2820 C 0.00488 0.78946 0.18055 0.0
C2821 C 0.00926 0.77865 0.16517 0.0
C2822 C 0.98887 0.78371 0.18655 0.0
C2823 C 0.9768 0.76691 0.17749 0.0
C2824 C 0.98115 0.75589 0.16225 0.0
H2825 H 0.87306 0.72848 0.21139 0.0
H2826 H 0.89781 0.72853 0.19435 0.0
C2827 C 0.9972 0.76168 0.15616 0.0
C2828 C 0.95938 0.76188 0.18348 0.0
H2829 H 0.9348 0.7316 0.20721 0.0
C2830 C 0.9484 0.77443 0.18164 0.0
C2831 C 0.95408 0.74583 0.19218 0.0
C2832 C 0.96517 0.7317 0.19425 0.0
C2833 C 0.93275 0.77187 0.18892 0.0
C2834 C 0.92807 0.75664 0.1989 0.0
C2835 C 0.93848 0.74342 0.1998 0.0
C2836 C 0.91338 0.7555 0.20985 0.0
C2837 C 0.92141 0.78568 0.18603 0.0
C2838 C 0.91404 0.77032 0.22455 0.0
C2839 C 0.89998 0.77039 0.23414 0.0
C2840 C 0.88486 0.75553 0.22947 0.0
C2841 C 0.88446 0.74021 0.21529 0.0
C2842 C 0.8986 0.74021 0.20554 0.0
H2843 H 0.92369 0.79265 0.17341 0.0
H2844 H 0.90729 0.7786 0.18399 0.0
H2845 H 0.92466 0.79682 0.19887 0.0
H2846 H 0.92545 0.78203 0.22852 0.0
H2847 H 0.90101 0.78214 0.24534 0.0
H2848 H 0.55752 0.2769 0.11195 0.0
H2849 H 0.56065 0.306 0.09809 0.0
H2850 H 0.56293 0.33788 0.15372 0.0
H2851 H 0.5599 0.30905 0.16767 0.0
H2852 H 0.53621 0.32848 0.09998 0.0
H2853 H 0.60392 0.36862 0.13323 0.0
H2854 H 0.59652 0.34352 0.13256 0.0
H2855 H 0.59074 0.35981 0.14994 0.0
C2856 C 0.55891 0.29016 0.1212 0.0
C2857 C 0.5583 0.29081 0.14076 0.0
C2858 C 0.56075 0.30668 0.11333 0.0
C2859 C 0.56227 0.32392 0.12504 0.0
C2860 C 0.56209 0.32466 0.14463 0.0
H2861 H 0.5504 0.43237 0.09711 0.0
H2862 H 0.55351 0.40625 0.11474 0.0
C2863 C 0.56011 0.30818 0.15247 0.0
C2864 C 0.5621 0.34086 0.11645 0.0
H2865 H 0.58547 0.38546 0.11679 0.0
C2866 C 0.547 0.34092 0.10355 0.0
C2867 C 0.57618 0.35697 0.12145 0.0
C2868 C 0.59283 0.35724 0.13494 0.0
C2869 C 0.54557 0.35687 0.09539 0.0
C2870 C 0.55965 0.37293 0.10033 0.0
C2871 C 0.57471 0.37301 0.11334 0.0
C2872 C 0.55938 0.38921 0.09078 0.0
C2873 C 0.52912 0.35648 0.08149 0.0
C2874 C 0.56196 0.38799 0.07183 0.0
C2875 C 0.56015 0.40262 0.06185 0.0
C2876 C 0.55584 0.41867 0.07079 0.0
C2877 C 0.5537 0.42006 0.09001 0.0
C2878 C 0.55555 0.40533 0.10004 0.0
H2879 H 0.51835 0.34413 0.08172 0.0
H2880 H 0.52458 0.36957 0.08484 0.0
H2881 H 0.53199 0.35575 0.06673 0.0
H2882 H 0.56485 0.37547 0.06462 0.0
H2883 H 0.56151 0.40107 0.04692 0.0
H2884 H 0.95597 0.25937 0.37397 0.0
H2885 H 0.92936 0.26621 0.3581 0.0
H2886 H 0.95549 0.28473 0.3128 0.0
H2887 H 0.98274 0.27847 0.32898 0.0
H2888 H 0.93157 0.30764 0.34599 0.0
H2889 H 0.90403 0.24129 0.29336 0.0
H2890 H 0.91888 0.24221 0.31543 0.0
H2891 H 0.92704 0.25236 0.29611 0.0
C2892 C 0.95601 0.26427 0.3603 0.0
C2893 C 0.97139 0.26835 0.3526 0.0
C2894 C 0.94088 0.26844 0.35149 0.0
C2895 C 0.94086 0.27614 0.33465 0.0
C2896 C 0.95565 0.27892 0.32601 0.0
H2897 H 0.85176 0.29208 0.26185 0.0
H2898 H 0.88235 0.29392 0.27598 0.0
C2899 C 0.97099 0.27509 0.33505 0.0
C2900 C 0.92519 0.28141 0.32632 0.0
H2901 H 0.88775 0.26439 0.29359 0.0
C2902 C 0.92202 0.29844 0.33431 0.0
C2903 C 0.91286 0.26892 0.31163 0.0
C2904 C 0.91571 0.25008 0.30361 0.0
C2905 C 0.90653 0.3035 0.32757 0.0
C2906 C 0.89431 0.29113 0.31254 0.0
C2907 C 0.89751 0.27401 0.30478 0.0
C2908 C 0.87755 0.29488 0.30508 0.0
C2909 C 0.9033 0.3218 0.33663 0.0
C2910 C 0.8652 0.29535 0.31702 0.0
C2911 C 0.84806 0.29481 0.30906 0.0
C2912 C 0.84322 0.29326 0.28915 0.0
C2913 C 0.85559 0.29349 0.27726 0.0
C2914 C 0.87287 0.29456 0.28529 0.0
H2915 H 0.91571 0.33182 0.34413 0.0
H2916 H 0.89651 0.32861 0.32575 0.0
H2917 H 0.89482 0.31887 0.34742 0.0
H2918 H 0.86851 0.29488 0.3322 0.0
H2919 H 0.83834 0.2942 0.31825 0.0
H2920 H 0.04228 0.71937 0.62685 0.0
H2921 H 0.03855 0.69618 0.5979 0.0
H2922 H 0.05808 0.6583 0.63233 0.0
H2923 H 0.06123 0.68113 0.66137 0.0
H2924 H 0.06124 0.67628 0.58132 0.0
H2925 H 0.008 0.62947 0.60692 0.0
H2926 H 0.01659 0.65396 0.61743 0.0
H2927 H 0.02824 0.63652 0.62385 0.0
C2928 C 0.04595 0.70616 0.62815 0.0
C2929 C 0.05166 0.7017 0.64621 0.0
C2930 C 0.04386 0.69303 0.61168 0.0
C2931 C 0.04767 0.67551 0.6132 0.0
C2932 C 0.05467 0.67165 0.63108 0.0
H2933 H 0.04274 0.57026 0.55659 0.0
H2934 H 0.04739 0.60073 0.57608 0.0
C2935 C 0.05644 0.6846 0.64757 0.0
C2936 C 0.04311 0.66065 0.5964 0.0
H2937 H 0.01895 0.61582 0.58071 0.0
C2938 C 0.05184 0.66311 0.58095 0.0
C2939 C 0.03055 0.64377 0.596 0.0
C2940 C 0.02017 0.6408 0.61185 0.0
C2941 C 0.04932 0.64836 0.56564 0.0
C2942 C 0.03763 0.63107 0.56591 0.0
C2943 C 0.02799 0.62915 0.5807 0.0
C2944 C 0.03709 0.61387 0.55286 0.0
C2945 C 0.05986 0.6509 0.54991 0.0
C2946 C 0.03034 0.61145 0.53317 0.0
C2947 C 0.0284 0.59405 0.52166 0.0
C2948 C 0.03286 0.579 0.52996 0.0
C2949 C 0.03989 0.58174 0.54959 0.0
C2950 C 0.04225 0.59908 0.56086 0.0
H2951 H 0.06978 0.66455 0.55299 0.0
H2952 H 0.06663 0.63926 0.54787 0.0
H2953 H 0.05092 0.65042 0.53623 0.0
H2954 H 0.02599 0.62269 0.5269 0.0
H2955 H 0.02262 0.5921 0.50661 0.0
H2956 H 0.54638 0.80377 0.8183 0.0
H2957 H 0.57038 0.79784 0.80235 0.0
H2958 H 0.59468 0.78123 0.85357 0.0
H2959 H 0.57097 0.78698 0.86956 0.0
H2960 H 0.60785 0.81382 0.81526 0.0
H2961 H 0.58912 0.73601 0.81019 0.0
H2962 H 0.57416 0.7508 0.81437 0.0
H2963 H 0.59058 0.74872 0.83374 0.0
C2964 C 0.5569 0.79898 0.82617 0.0
C2965 C 0.55676 0.79572 0.8451 0.0
C2966 C 0.57051 0.79556 0.81705 0.0
C2967 C 0.58395 0.78877 0.82675 0.0
C2968 C 0.58414 0.7861 0.84581 0.0
H2969 H 0.67833 0.75752 0.81696 0.0
H2970 H 0.65201 0.76559 0.82554 0.0
C2971 C 0.57064 0.78952 0.85492 0.0
C2972 C 0.59809 0.78464 0.81724 0.0
H2973 H 0.61802 0.74934 0.80549 0.0
C2974 C 0.61 0.79972 0.81278 0.0
C2975 C 0.60066 0.76619 0.81414 0.0
C2976 C 0.58787 0.74946 0.81819 0.0
C2977 C 0.62511 0.79695 0.80621 0.0
C2978 C 0.628 0.77859 0.80376 0.0
C2979 C 0.61568 0.7634 0.80747 0.0
C2980 C 0.64429 0.77493 0.79868 0.0
C2981 C 0.63826 0.81375 0.80286 0.0
C2982 C 0.6486 0.77769 0.7808 0.0
C2983 C 0.66377 0.77332 0.77593 0.0
C2984 C 0.67467 0.76602 0.78888 0.0
C2985 C 0.67032 0.76344 0.80684 0.0
C2986 C 0.65525 0.76787 0.8117 0.0
H2987 H 0.63573 0.82729 0.80911 0.0
H2988 H 0.65179 0.81325 0.80914 0.0
H2989 H 0.6375 0.81351 0.78721 0.0
H2990 H 0.6401 0.78291 0.77052 0.0
H2991 H 0.66692 0.77552 0.76204 0.0
H2992 H 0.48613 0.5024 0.71688 0.0
H2993 H 0.4992 0.50949 0.68921 0.0
H2994 H 0.45289 0.52611 0.66458 0.0
H2995 H 0.43979 0.51941 0.69277 0.0
H2996 H 0.48517 0.49082 0.65301 0.0
H2997 H 0.49245 0.56794 0.65573 0.0
H2998 H 0.48896 0.55634 0.67611 0.0
H2999 H 0.47093 0.55484 0.65703 0.0
C3000 C 0.4788 0.50784 0.70571 0.0
C3001 C 0.46187 0.51021 0.70685 0.0
C3002 C 0.48631 0.5119 0.68993 0.0
C3003 C 0.47705 0.51834 0.67486 0.0
C3004 C 0.46038 0.52144 0.67622 0.0
H3005 H 0.50514 0.53632 0.56338 0.0
H3006 H 0.48965 0.53424 0.59062 0.0
C3007 C 0.45288 0.51756 0.69225 0.0
C3008 C 0.48438 0.5201 0.65716 0.0
H3009 H 0.49908 0.55131 0.62833 0.0
C3010 C 0.48817 0.50404 0.64759 0.0
C3011 C 0.48825 0.53734 0.65013 0.0
C3012 C 0.4851 0.55517 0.66033 0.0
C3013 C 0.49576 0.50472 0.63118 0.0
C3014 C 0.49991 0.52204 0.62427 0.0
C3015 C 0.49582 0.53805 0.63362 0.0
C3016 C 0.50928 0.52394 0.60796 0.0
C3017 C 0.49918 0.4868 0.62141 0.0
C3018 C 0.52558 0.51934 0.6089 0.0
C3019 C 0.53408 0.51999 0.59328 0.0
C3020 C 0.5267 0.52573 0.57654 0.0
C3021 C 0.51085 0.53135 0.57591 0.0
C3022 C 0.50211 0.53033 0.59151 0.0
H3023 H 0.49045 0.47409 0.62462 0.0
H3024 H 0.49732 0.48617 0.60561 0.0
H3025 H 0.51289 0.48624 0.62677 0.0
H3026 H 0.53168 0.51504 0.62169 0.0
H3027 H 0.54646 0.51589 0.59432 0.0
H3028 H 0.80991 0.17833 0.99715 0.0
H3029 H 0.79073 0.18064 0.968 0.0
H3030 H 0.81811 0.23869 0.97178 0.0
H3031 H 0.83757 0.23644 1.00075 0.0
H3032 H 0.76993 0.20791 0.97241 0.0
H3033 H 0.80909 0.21824 0.91473 0.0
H3034 H 0.81621 0.20812 0.93543 0.0
H3035 H 0.81854 0.23315 0.93737 0.0
C3036 C 0.81253 0.19127 0.9912 0.0
C3037 C 0.82493 0.20742 0.00137 0.0
C3038 C 0.80137 0.19262 0.97473 0.0
C3039 C 0.80291 0.20989 0.96812 0.0
C3040 C 0.81682 0.22522 0.97675 0.0
H3041 H 0.74605 0.26711 0.90197 0.0
H3042 H 0.75183 0.25261 0.93026 0.0
C3043 C 0.82799 0.22389 0.99319 0.0
C3044 C 0.78888 0.21264 0.95378 0.0
H3045 H 0.78104 0.22523 0.90983 0.0
C3046 C 0.77218 0.21138 0.95855 0.0
C3047 C 0.79216 0.21754 0.93607 0.0
C3048 C 0.80994 0.21923 0.9305 0.0
C3049 C 0.75857 0.21512 0.94584 0.0
C3050 C 0.76187 0.21983 0.92808 0.0
C3051 C 0.77856 0.22111 0.9234 0.0
C3052 C 0.74883 0.22484 0.91421 0.0
C3053 C 0.7409 0.2143 0.95136 0.0
C3054 C 0.74352 0.21348 0.89613 0.0
C3055 C 0.74037 0.22177 0.8799 0.0
C3056 C 0.74251 0.24138 0.88187 0.0
C3057 C 0.74437 0.25195 0.90013 0.0
C3058 C 0.74761 0.24366 0.91636 0.0
H3059 H 0.74018 0.20946 0.96539 0.0
H3060 H 0.73811 0.22851 0.95221 0.0
H3061 H 0.73055 0.20465 0.94013 0.0
H3062 H 0.7445 0.19892 0.89434 0.0
H3063 H 0.7388 0.21338 0.86589 0.0
H3064 H 0.14618 0.52114 0.22329 0.0
H3065 H 0.13151 0.52357 0.19111 0.0
H3066 H 0.08693 0.48082 0.19641 0.0
H3067 H 0.10133 0.47905 0.22878 0.0
H3068 H 0.11948 0.50395 0.15696 0.0
H3069 H 0.06063 0.51801 0.18199 0.0
H3070 H 0.07987 0.51707 0.19845 0.0
H3071 H 0.06389 0.49569 0.18718 0.0
C3072 C 0.13349 0.51176 0.21736 0.0
C3073 C 0.12538 0.4993 0.22867 0.0
C3074 C 0.12488 0.51336 0.19886 0.0
C3075 C 0.10763 0.50276 0.19089 0.0
C3076 C 0.09987 0.48975 0.20193 0.0
H3077 H 0.03006 0.4862 0.08412 0.0
H3078 H 0.04753 0.48596 0.11529 0.0
C3079 C 0.10839 0.48832 0.22047 0.0
C3080 C 0.09782 0.50535 0.17138 0.0
H3081 H 0.05807 0.51031 0.14807 0.0
C3082 C 0.10608 0.50546 0.1552 0.0
C3083 C 0.08029 0.50773 0.16846 0.0
C3084 C 0.07073 0.50985 0.18498 0.0
C3085 C 0.09735 0.50693 0.13662 0.0
C3086 C 0.0796 0.50851 0.13357 0.0
C3087 C 0.07149 0.50885 0.14984 0.0
C3088 C 0.06899 0.50904 0.11376 0.0
C3089 C 0.10718 0.50612 0.12021 0.0
C3090 C 0.07467 0.52221 0.10176 0.0
C3091 C 0.06447 0.5224 0.08356 0.0
C3092 C 0.04813 0.50943 0.07658 0.0
C3093 C 0.04251 0.49641 0.08864 0.0
C3094 C 0.05259 0.49629 0.10675 0.0
H3095 H 0.11873 0.50003 0.12356 0.0
H3096 H 0.09856 0.4976 0.10695 0.0
H3097 H 0.11198 0.52063 0.11737 0.0
H3098 H 0.08692 0.53266 0.10658 0.0
H3099 H 0.06934 0.53283 0.07504 0.0
H3100 H 0.79927 0.81546 0.49554 0.0
H3101 H 0.79484 0.80204 0.46185 0.0
H3102 H 0.76695 0.84392 0.4466 0.0
H3103 H 0.77177 0.85792 0.48052 0.0
H3104 H 0.76702 0.7879 0.43158 0.0
H3105 H 0.80969 0.85498 0.4208 0.0
H3106 H 0.80689 0.84991 0.44433 0.0
H3107 H 0.78996 0.85703 0.42935 0.0
C3108 C 0.79193 0.82169 0.4851 0.0
C3109 C 0.78624 0.83804 0.49064 0.0
C3110 C 0.78934 0.81392 0.46584 0.0
C3111 C 0.78098 0.8223 0.45178 0.0
C3112 C 0.7738 0.83755 0.4573 0.0
H3113 H 0.76665 0.79708 0.33 0.0
H3114 H 0.76542 0.80718 0.36333 0.0
C3115 C 0.77646 0.84544 0.47667 0.0
C3116 C 0.78162 0.81616 0.43153 0.0
H3117 H 0.8003 0.83054 0.39429 0.0
C3118 C 0.77423 0.79722 0.42338 0.0
C3119 C 0.79127 0.82836 0.42103 0.0
C3120 C 0.80004 0.84867 0.42931 0.0
C3121 C 0.77621 0.79017 0.40492 0.0
C3122 C 0.78592 0.80235 0.39461 0.0
C3123 C 0.79314 0.82128 0.40257 0.0
C3124 C 0.78725 0.79615 0.37472 0.0
C3125 C 0.76784 0.76986 0.39637 0.0
C3126 C 0.80021 0.78689 0.37031 0.0
C3127 C 0.80109 0.78115 0.35112 0.0
C3128 C 0.78884 0.7845 0.33641 0.0
C3129 C 0.77612 0.79407 0.34107 0.0
C3130 C 0.77538 0.79989 0.36005 0.0
H3131 H 0.76053 0.76222 0.40623 0.0
H3132 H 0.75868 0.76916 0.38278 0.0
H3133 H 0.7781 0.76255 0.39284 0.0
H3134 H 0.80951 0.78404 0.38165 0.0
H3135 H 0.81096 0.77375 0.34782 0.0
H3136 H 0.47824 0.48457 0.8067 0.0
H3137 H 0.48982 0.49116 0.84089 0.0
H3138 H 0.46908 0.54079 0.84623 0.0
H3139 H 0.45701 0.53411 0.81174 0.0
H3140 H 0.5133 0.5231 0.86326 0.0
H3141 H 0.44764 0.50921 0.88454 0.0
H3142 H 0.4505 0.50232 0.86031 0.0
H3143 H 0.45181 0.5266 0.86917 0.0
C3144 C 0.47623 0.49701 0.81502 0.0
C3145 C 0.4666 0.50875 0.80653 0.0
C3146 C 0.48288 0.50073 0.83456 0.0
C3147 C 0.48009 0.51629 0.84598 0.0
C3148 C 0.47108 0.52854 0.83757 0.0
H3149 H 0.51411 0.54682 0.96881 0.0
H3150 H 0.50474 0.5476 0.9349 0.0
C3151 C 0.46431 0.52476 0.8179 0.0
C3152 C 0.48636 0.51907 0.86676 0.0
H3153 H 0.47232 0.51541 0.90917 0.0
C3154 C 0.50439 0.52163 0.87336 0.0
C3155 C 0.47457 0.51693 0.87972 0.0
C3156 C 0.45503 0.51348 0.87316 0.0
C3157 C 0.51094 0.52172 0.89266 0.0
C3158 C 0.49913 0.51923 0.90545 0.0
C3159 C 0.48119 0.51722 0.89906 0.0
C3160 C 0.50516 0.51864 0.92565 0.0
C3161 C 0.53035 0.52415 0.89929 0.0
C3162 C 0.50833 0.50196 0.93135 0.0
C3163 C 0.51358 0.50136 0.95073 0.0
C3164 C 0.51575 0.5175 0.96447 0.0
C3165 C 0.51258 0.53417 0.95855 0.0
C3166 C 0.50724 0.53469 0.93925 0.0
H3167 H 0.53795 0.52763 0.88786 0.0
H3168 H 0.5352 0.53551 0.91195 0.0
H3169 H 0.53282 0.51091 0.9038 0.0
H3170 H 0.50667 0.48946 0.92084 0.0
H3171 H 0.51606 0.48838 0.95491 0.0
H3172 H 0.83968 0.26005 0.11036 0.0
H3173 H 0.82944 0.25884 0.14081 0.0
H3174 H 0.82701 0.19922 0.13471 0.0
H3175 H 0.83835 0.2006 0.1051 0.0
H3176 H 0.79429 0.23032 0.12945 0.0
H3177 H 0.83774 0.22043 0.19463 0.0
H3178 H 0.84695 0.23377 0.1775 0.0
H3179 H 0.8384 0.20881 0.17105 0.0
C3180 C 0.83831 0.24711 0.11635 0.0
C3181 C 0.83959 0.23045 0.10556 0.0
C3182 C 0.8323 0.24633 0.13353 0.0
C3183 C 0.82725 0.22885 0.13951 0.0
C3184 C 0.83103 0.21278 0.13025 0.0
H3185 H 0.77324 0.24074 0.2333 0.0
H3186 H 0.77459 0.22107 0.20393 0.0
C3187 C 0.83763 0.21369 0.11343 0.0
C3188 C 0.81431 0.22684 0.15189 0.0
H3189 H 0.81129 0.22861 0.19871 0.0
C3190 C 0.79772 0.22942 0.14455 0.0
C3191 C 0.81881 0.22499 0.17119 0.0
C3192 C 0.83642 0.2218 0.1792 0.0
C3193 C 0.78634 0.23287 0.15682 0.0
C3194 C 0.79183 0.23344 0.17654 0.0
C3195 C 0.80728 0.22813 0.18342 0.0
C3196 C 0.78508 0.24461 0.19048 0.0
C3197 C 0.76945 0.2378 0.14905 0.0
C3198 C 0.79015 0.26431 0.19215 0.0
C3199 C 0.78986 0.27562 0.20909 0.0
C3200 C 0.78438 0.26718 0.22425 0.0
C3201 C 0.77775 0.24756 0.22182 0.0
C3202 C 0.77822 0.23627 0.20501 0.0
H3203 H 0.76471 0.23159 0.13368 0.0
H3204 H 0.75915 0.23284 0.15739 0.0
H3205 H 0.7717 0.25336 0.1503 0.0
H3206 H 0.79585 0.27083 0.18105 0.0
H3207 H 0.79482 0.29074 0.21072 0.0
H3208 H 0.12205 0.53761 0.33668 0.0
H3209 H 0.10925 0.54102 0.36519 0.0
H3210 H 0.12048 0.48895 0.37864 0.0
H3211 H 0.13362 0.48535 0.34949 0.0
H3212 H 0.0806 0.51985 0.37364 0.0
H3213 H 0.13609 0.52205 0.43162 0.0
H3214 H 0.13902 0.52578 0.40772 0.0
H3215 H 0.13169 0.5023 0.41259 0.0
C3216 C 0.122 0.52672 0.34558 0.0
C3217 C 0.12893 0.511 0.34018 0.0
C3218 C 0.11454 0.5288 0.36215 0.0
C3219 C 0.11363 0.51536 0.37454 0.0
C3220 C 0.12105 0.49983 0.36972 0.0
H3221 H 0.06709 0.50474 0.47941 0.0
H3222 H 0.08277 0.50194 0.45251 0.0
C3223 C 0.12862 0.4977 0.35287 0.0
C3224 C 0.10408 0.5175 0.39156 0.0
H3225 H 0.10857 0.52082 0.44066 0.0
C3226 C 0.0868 0.52 0.38827 0.0
C3227 C 0.11191 0.51812 0.41096 0.0
C3228 C 0.13075 0.51712 0.4161 0.0
C3229 C 0.07713 0.52234 0.40326 0.0
C3230 C 0.08483 0.52265 0.42273 0.0
C3231 C 0.10225 0.52042 0.42603 0.0
C3232 C 0.07508 0.52477 0.43965 0.0
C3233 C 0.05846 0.52388 0.39773 0.0
C3234 C 0.06538 0.53869 0.44225 0.0
C3235 C 0.05588 0.5399 0.45748 0.0
C3236 C 0.05626 0.52779 0.47128 0.0
C3237 C 0.06646 0.51439 0.46921 0.0
C3238 C 0.07553 0.51282 0.45368 0.0
H3239 H 0.05292 0.51763 0.38249 0.0
H3240 H 0.04991 0.51672 0.40684 0.0
H3241 H 0.05812 0.53898 0.39941 0.0
H3242 H 0.06516 0.54883 0.43255 0.0
H3243 H 0.04843 0.55059 0.45864 0.0
H3244 H 0.7684 0.83153 0.57551 0.0
H3245 H 0.76187 0.81453 0.60216 0.0
H3246 H 0.80923 0.84902 0.63822 0.0
H3247 H 0.81585 0.8657 0.61164 0.0
H3248 H 0.78634 0.79476 0.62313 0.0
H3249 H 0.76926 0.85144 0.67006 0.0
H3250 H 0.76796 0.85094 0.64453 0.0
H3251 H 0.78883 0.85853 0.66043 0.0
C3252 C 0.77705 0.83583 0.58935 0.0
C3253 C 0.79232 0.85031 0.59183 0.0
C3254 C 0.77345 0.82598 0.60444 0.0
C3255 C 0.78497 0.83068 0.62222 0.0
C3256 C 0.80003 0.84538 0.62473 0.0
H3257 H 0.79601 0.80037 0.73487 0.0
H3258 H 0.79794 0.81426 0.70576 0.0
C3259 C 0.80374 0.855 0.60963 0.0
C3260 C 0.7818 0.81996 0.63811 0.0
H3261 H 0.77479 0.82536 0.68415 0.0
C3262 C 0.78362 0.8013 0.63645 0.0
C3263 C 0.77836 0.8286 0.65543 0.0
C3264 C 0.77584 0.84844 0.65777 0.0
C3265 C 0.78287 0.79132 0.65199 0.0
C3266 C 0.77974 0.80012 0.66954 0.0
C3267 C 0.77736 0.8186 0.67086 0.0
C3268 C 0.77934 0.79083 0.68694 0.0
C3269 C 0.78623 0.77181 0.64964 0.0
C3270 C 0.76833 0.77297 0.68623 0.0
C3271 C 0.76777 0.7647 0.70281 0.0
C3272 C 0.77775 0.77438 0.72059 0.0
C3273 C 0.78847 0.79238 0.72137 0.0
C3274 C 0.78943 0.80041 0.70471 0.0
H3275 H 0.79355 0.76956 0.63783 0.0
H3276 H 0.79377 0.76922 0.66303 0.0
H3277 H 0.7735 0.76121 0.64597 0.0
H3278 H 0.75988 0.76554 0.67295 0.0
H3279 H 0.75908 0.75096 0.70179 0.0
H3280 H 0.71131 0.3943 0.48465 0.0
H3281 H 0.69313 0.4152 0.49515 0.0
H3282 H 0.69306 0.39254 0.54797 0.0
H3283 H 0.71104 0.37148 0.53759 0.0
H3284 H 0.65806 0.3993 0.51027 0.0
H3285 H 0.71132 0.45445 0.55896 0.0
H3286 H 0.71534 0.44042 0.53824 0.0
H3287 H 0.71139 0.42995 0.55896 0.0
C3288 C 0.70739 0.39382 0.49848 0.0
C3289 C 0.71243 0.38137 0.51036 0.0
C3290 C 0.6971 0.40568 0.5044 0.0
C3291 C 0.69209 0.40528 0.5223 0.0
C3292 C 0.69704 0.3929 0.53415 0.0
H3293 H 0.62231 0.46889 0.56934 0.0
H3294 H 0.64114 0.44626 0.56699 0.0
C3295 C 0.70714 0.38089 0.52817 0.0
C3296 C 0.68115 0.41747 0.52841 0.0
H3297 H 0.68258 0.45884 0.55641 0.0
C3298 C 0.66328 0.41221 0.52052 0.0
C3299 C 0.68833 0.43417 0.54172 0.0
C3300 C 0.70766 0.44025 0.55 0.0
C3301 C 0.65224 0.42366 0.52542 0.0
C3302 C 0.65944 0.44054 0.53848 0.0
C3303 C 0.67725 0.44558 0.54672 0.0
C3304 C 0.64926 0.45452 0.54111 0.0
C3305 C 0.63313 0.41817 0.51609 0.0
C3306 C 0.64816 0.46645 0.52748 0.0
C3307 C 0.6376 0.47907 0.52876 0.0
C3308 C 0.62818 0.47989 0.54375 0.0
C3309 C 0.62969 0.46837 0.55781 0.0
C3310 C 0.64027 0.45557 0.55646 0.0
H3311 H 0.62925 0.40358 0.50794 0.0
H3312 H 0.62482 0.41931 0.52713 0.0
H3313 H 0.63051 0.42801 0.50604 0.0
H3314 H 0.65514 0.46565 0.51562 0.0
H3315 H 0.63649 0.48796 0.51785 0.0
H3316 H 0.19826 0.15115 0.50293 0.0
H3317 H 0.17112 0.1303 0.506 0.0
H3318 H 0.19891 0.08791 0.51954 0.0
H3319 H 0.22667 0.1092 0.5169 0.0
H3320 H 0.15342 0.09679 0.48667 0.0
H3321 H 0.17182 0.09069 0.5632 0.0
H3322 H 0.18461 0.10794 0.55188 0.0
H3323 H 0.18656 0.08391 0.54845 0.0
C3324 C 0.19878 0.1374 0.50657 0.0
C3325 C 0.21485 0.13197 0.50973 0.0
C3326 C 0.1831 0.12543 0.5083 0.0
C3327 C 0.18283 0.10756 0.51329 0.0
C3328 C 0.19875 0.10178 0.51607 0.0
H3329 H 0.09756 0.01511 0.52367 0.0
H3330 H 0.1256 0.03601 0.52234 0.0
C3331 C 0.21462 0.11388 0.51433 0.0
C3332 C 0.16574 0.09518 0.51521 0.0
H3333 H 0.14451 0.0714 0.54641 0.0
C3334 C 0.15151 0.09127 0.49976 0.0
C3335 C 0.16301 0.08817 0.53238 0.0
C3336 C 0.17723 0.09301 0.55001 0.0
C3337 C 0.13493 0.08027 0.50083 0.0
C3338 C 0.13232 0.07292 0.51783 0.0
C3339 C 0.14648 0.0769 0.53333 0.0
C3340 C 0.11518 0.06056 0.51953 0.0
C3341 C 0.12037 0.07633 0.48358 0.0
C3342 C 0.0999 0.06737 0.51884 0.0
C3343 C 0.08379 0.0554 0.51982 0.0
C3344 C 0.08244 0.03629 0.52134 0.0
C3345 C 0.09791 0.0297 0.52242 0.0
C3346 C 0.11404 0.04166 0.52167 0.0
H3347 H 0.12534 0.0798 0.47044 0.0
H3348 H 0.11319 0.06128 0.4809 0.0
H3349 H 0.11091 0.08502 0.48635 0.0
H3350 H 0.10039 0.08196 0.51746 0.0
H3351 H 0.07253 0.06116 0.519 0.0
H3352 H 0.18863 0.99819 0.81536 0.0
H3353 H 0.20001 0.97092 0.80522 0.0
H3354 H 0.15673 0.95205 0.75754 0.0
H3355 H 0.14524 0.9793 0.76748 0.0
H3356 H 0.18094 0.93218 0.80081 0.0
H3357 H 0.2011 0.95138 0.73313 0.0
H3358 H 0.19703 0.96853 0.75122 0.0
H3359 H 0.17903 0.9515 0.73605 0.0
C3360 C 0.18157 0.98831 0.80268 0.0
C3361 C 0.16606 0.99093 0.79225 0.0
C3362 C 0.18808 0.97276 0.7969 0.0
C3363 C 0.1793 0.95968 0.78051 0.0
C3364 C 0.16382 0.96219 0.77004 0.0
H3365 H 0.21674 0.85852 0.74299 0.0
H3366 H 0.19805 0.88139 0.7426 0.0
C3367 C 0.15724 0.97769 0.77586 0.0
C3368 C 0.18606 0.943 0.7751 0.0
H3369 H 0.20752 0.92377 0.74278 0.0
C3370 C 0.18655 0.9302 0.78801 0.0
C3371 C 0.19308 0.94034 0.7582 0.0
C3372 C 0.19267 0.95367 0.74383 0.0
C3373 C 0.19465 0.91528 0.78495 0.0
C3374 C 0.20272 0.91338 0.76877 0.0
C3375 C 0.20135 0.92544 0.75521 0.0
C3376 C 0.21445 0.90051 0.76726 0.0
C3377 C 0.19506 0.90202 0.79941 0.0
C3378 C 0.22992 0.90414 0.78088 0.0
C3379 C 0.24031 0.89119 0.78124 0.0
C3380 C 0.23551 0.87457 0.7678 0.0
C3381 C 0.22053 0.87131 0.75348 0.0
C3382 C 0.20996 0.88429 0.75324 0.0
H3383 H 0.18449 0.90218 0.80793 0.0
H3384 H 0.19367 0.88736 0.79222 0.0
H3385 H 0.20782 0.90645 0.80949 0.0
H3386 H 0.23366 0.91676 0.79161 0.0
H3387 H 0.25197 0.89396 0.79223 0.0
H3388 H 0.30553 0.85432 0.98204 0.0
H3389 H 0.32872 0.8829 0.98389 0.0
H3390 H 0.30726 0.9121 0.02712 0.0
H3391 H 0.28383 0.88374 0.02504 0.0
H3392 H 0.32095 0.9229 0.9801 0.0
H3393 H 0.36271 0.91598 0.04774 0.0
H3394 H 0.3476 0.89583 0.03254 0.0
H3395 H 0.33942 0.91267 0.04668 0.0
C3396 C 0.30591 0.86679 0.99206 0.0
C3397 C 0.29304 0.86689 0.00346 0.0
C3398 C 0.31903 0.88307 0.99302 0.0
C3399 C 0.31961 0.89947 0.00567 0.0
C3400 C 0.30694 0.89952 0.01729 0.0
H3401 H 0.4095 0.99754 0.02811 0.0
H3402 H 0.38022 0.97898 0.03008 0.0
C3403 C 0.29365 0.88337 0.01609 0.0
C3404 C 0.33348 0.91656 0.00657 0.0
H3405 H 0.37341 0.94098 0.03205 0.0
C3406 C 0.33235 0.92704 0.99155 0.0
C3407 C 0.34809 0.92199 0.0217 0.0
C3408 C 0.34971 0.91107 0.03812 0.0
C3409 C 0.34591 0.9425 0.99089 0.0
C3410 C 0.36106 0.94723 0.00541 0.0
C3411 C 0.36174 0.93734 0.02097 0.0
C3412 C 0.37731 0.96026 0.00328 0.0
C3413 C 0.34406 0.95337 0.97445 0.0
C3414 C 0.38521 0.95586 0.9876 0.0
C3415 C 0.40171 0.96628 0.98655 0.0
C3416 C 0.41063 0.98122 0.00118 0.0
C3417 C 0.40263 0.98613 0.01662 0.0
C3418 C 0.38603 0.97558 0.01774 0.0
H3419 H 0.33006 0.95261 0.9688 0.0
H3420 H 0.35113 0.96841 0.97884 0.0
H3421 H 0.34963 0.94711 0.96259 0.0
H3422 H 0.37896 0.94379 0.9766 0.0
H3423 H 0.40783 0.96226 0.97463 0.0
H3424 H 0.89329 0.60551 0.76517 0.0
H3425 H 0.8805 0.63344 0.76672 0.0
H3426 H 0.8292 0.59739 0.7452 0.0
H3427 H 0.84162 0.56992 0.74389 0.0
H3428 H 0.86186 0.65074 0.74132 0.0
H3429 H 0.81655 0.62635 0.78927 0.0
H3430 H 0.83365 0.61474 0.78461 0.0
H3431 H 0.81339 0.6099 0.76762 0.0
C3432 C 0.87926 0.60342 0.76091 0.0
C3433 C 0.86875 0.58484 0.75461 0.0
C3434 C 0.87182 0.61963 0.76173 0.0
C3435 C 0.85348 0.61812 0.75659 0.0
C3436 C 0.84317 0.5996 0.74997 0.0
H3437 H 0.77977 0.69593 0.75733 0.0
H3438 H 0.79353 0.66908 0.75436 0.0
C3439 C 0.85052 0.58357 0.74907 0.0
C3440 C 0.84507 0.63547 0.75787 0.0
H3441 H 0.81219 0.65283 0.77517 0.0
C3442 C 0.85111 0.65113 0.74894 0.0
C3443 C 0.83063 0.63656 0.76736 0.0
C3444 C 0.82325 0.62109 0.7779 0.0
C3445 C 0.84327 0.66702 0.74892 0.0
C3446 C 0.82907 0.66831 0.75881 0.0
C3447 C 0.82298 0.65256 0.76761 0.0
C3448 C 0.8204 0.6855 0.76018 0.0
C3449 C 0.84992 0.68188 0.73735 0.0
C3450 C 0.8303 0.7045 0.76466 0.0
C3451 C 0.82228 0.72013 0.7662 0.0
C3452 C 0.80386 0.71777 0.76364 0.0
C3453 C 0.79393 0.6988 0.75937 0.0
C3454 C 0.80194 0.68317 0.75772 0.0
H3455 H 0.85583 0.676 0.72556 0.0
H3456 H 0.83925 0.68807 0.73097 0.0
H3457 H 0.86027 0.69327 0.74678 0.0
H3458 H 0.84445 0.70744 0.76744 0.0
H3459 H 0.83069 0.73422 0.76972 0.0
H3460 H 0.83869 0.65618 0.99967 0.0
H3461 H 0.86263 0.64096 0.00819 0.0
H3462 H 0.83129 0.60665 0.04086 0.0
H3463 H 0.80699 0.6214 0.03179 0.0
H3464 H 0.88166 0.63946 0.04267 0.0
H3465 H 0.84587 0.56684 0.00772 0.0
H3466 H 0.83747 0.5872 0.0036 0.0
H3467 H 0.83564 0.57761 0.02535 0.0
C3468 C 0.83679 0.64526 0.00852 0.0
C3469 C 0.82079 0.63983 0.01481 0.0
C3470 C 0.85056 0.63662 0.01347 0.0
C3471 C 0.84876 0.62242 0.02495 0.0
C3472 C 0.8329 0.61719 0.03156 0.0
H3473 H 0.91969 0.55043 0.05582 0.0
H3474 H 0.89662 0.56764 0.05548 0.0
C3475 C 0.81899 0.62565 0.02638 0.0
C3476 C 0.86349 0.61314 0.02974 0.0
H3477 H 0.87466 0.57068 0.02417 0.0
C3478 C 0.8801 0.62441 0.03865 0.0
C3479 C 0.86151 0.59346 0.0247 0.0
C3480 C 0.84422 0.58055 0.01468 0.0
C3481 C 0.89474 0.61659 0.04244 0.0
C3482 C 0.89283 0.59702 0.03679 0.0
C3483 C 0.87615 0.58569 0.02842 0.0
C3484 C 0.90797 0.58796 0.03876 0.0
C3485 C 0.91204 0.62933 0.05266 0.0
C3486 C 0.92221 0.59371 0.02962 0.0
C3487 C 0.93559 0.58397 0.02993 0.0
C3488 C 0.93496 0.56815 0.03928 0.0
C3489 C 0.92083 0.56269 0.04873 0.0
C3490 C 0.90751 0.57245 0.04844 0.0
H3491 H 0.91019 0.64228 0.06108 0.0
H3492 H 0.91939 0.62196 0.06249 0.0
H3493 H 0.92012 0.63373 0.04192 0.0
H3494 H 0.92274 0.60539 0.02172 0.0
H3495 H 0.94632 0.58872 0.02267 0.0
H3496 H 0.18413 0.0725 0.79716 0.0
H3497 H 0.20744 0.09971 0.79472 0.0
H3498 H 0.16874 0.13171 0.78215 0.0
H3499 H 0.14571 0.10518 0.78481 0.0
H3500 H 0.21133 0.12081 0.76328 0.0
H3501 H 0.20316 0.16514 0.82845 0.0
H3502 H 0.19463 0.1399 0.82346 0.0
H3503 H 0.18313 0.15507 0.81161 0.0
C3504 C 0.18066 0.08539 0.794 0.0
C3505 C 0.16309 0.08675 0.79153 0.0
C3506 C 0.19394 0.10086 0.79254 0.0
C3507 C 0.18978 0.11781 0.78865 0.0
C3508 C 0.17226 0.11893 0.78562 0.0
H3509 H 0.24464 0.22897 0.77377 0.0
H3510 H 0.22244 0.20042 0.77473 0.0
C3511 C 0.15909 0.10366 0.78715 0.0
C3512 C 0.20358 0.13457 0.7878 0.0
H3513 H 0.22028 0.18074 0.80804 0.0
C3514 C 0.21346 0.13386 0.77318 0.0
C3515 C 0.20614 0.15162 0.80063 0.0
C3516 C 0.19632 0.153 0.81703 0.0
C3517 C 0.22565 0.14992 0.77084 0.0
C3518 C 0.2281 0.16697 0.78359 0.0
C3519 C 0.21827 0.16765 0.79823 0.0
C3520 C 0.24133 0.18411 0.78249 0.0
C3521 C 0.23555 0.14871 0.7545 0.0
C3522 C 0.2592 0.18443 0.78677 0.0
C3523 C 0.27179 0.20079 0.78651 0.0
C3524 C 0.26675 0.21713 0.78201 0.0
C3525 C 0.24885 0.21676 0.77762 0.0
C3526 C 0.23621 0.20041 0.77801 0.0
H3527 H 0.22957 0.13584 0.74368 0.0
H3528 H 0.236 0.16129 0.7473 0.0
H3529 H 0.24923 0.14831 0.76021 0.0
H3530 H 0.26341 0.17209 0.79056 0.0
H3531 H 0.28551 0.20064 0.78993 0.0
H3532 H 0.38026 0.98186 0.28552 0.0
H3533 H 0.36388 0.95028 0.28764 0.0
H3534 H 0.34194 0.94168 0.22733 0.0
H3535 H 0.3592 0.9731 0.2251 0.0
H3536 H 0.33204 0.93212 0.28345 0.0
H3537 H 0.3587 0.89513 0.22667 0.0
H3538 H 0.36665 0.92007 0.23522 0.0
H3539 H 0.34648 0.91122 0.2181 0.0
C3540 C 0.37148 0.97349 0.27282 0.0
C3541 C 0.3706 0.98041 0.2553 0.0
C3542 C 0.36223 0.95521 0.27397 0.0
C3543 C 0.35179 0.94304 0.25759 0.0
C3544 C 0.35021 0.95029 0.24017 0.0
H3545 H 0.29283 0.82392 0.24383 0.0
H3546 H 0.3054 0.85597 0.23884 0.0
C3547 C 0.35974 0.96856 0.23898 0.0
C3548 C 0.34285 0.92298 0.2591 0.0
H3549 H 0.33753 0.87629 0.24041 0.0
C3550 C 0.33335 0.91998 0.274 0.0
C3551 C 0.34423 0.90679 0.2468 0.0
C3552 C 0.35469 0.9084 0.23091 0.0
C3553 C 0.32537 0.90172 0.27697 0.0
C3554 C 0.32706 0.88556 0.26496 0.0
C3555 C 0.33621 0.88849 0.24977 0.0
C3556 C 0.31956 0.86564 0.26798 0.0
C3557 C 0.31485 0.90005 0.2928 0.0
C3558 C 0.32339 0.85984 0.28591 0.0
C3559 C 0.31603 0.84144 0.28882 0.0
C3560 C 0.30494 0.82804 0.27377 0.0
C3561 C 0.30146 0.83367 0.25571 0.0
C3562 C 0.30863 0.85215 0.25286 0.0
H3563 H 0.31014 0.91299 0.2964 0.0
H3564 H 0.30334 0.88782 0.2888 0.0
H3565 H 0.32328 0.89812 0.30592 0.0
H3566 H 0.3322 0.86954 0.29774 0.0
H3567 H 0.31922 0.83765 0.30287 0.0
H3568 H 0.53865 0.31504 0.57108 0.0
H3569 H 0.5332 0.34273 0.55733 0.0
H3570 H 0.55698 0.37824 0.61158 0.0
H3571 H 0.56205 0.35044 0.62547 0.0
H3572 H 0.51451 0.37164 0.57092 0.0
H3573 H 0.58492 0.40052 0.5704 0.0
H3574 H 0.57618 0.37614 0.57209 0.0
H3575 H 0.57983 0.39408 0.59272 0.0
C3576 C 0.54235 0.32872 0.58016 0.0
C3577 C 0.55046 0.33056 0.59944 0.0
C3578 C 0.53932 0.34454 0.57227 0.0
C3579 C 0.5448 0.36262 0.58335 0.0
C3580 C 0.5527 0.36445 0.60271 0.0
H3581 H 0.55508 0.47744 0.56271 0.0
H3582 H 0.55614 0.44791 0.5745 0.0
C3583 C 0.55543 0.34856 0.61071 0.0
C3584 C 0.54258 0.37958 0.57457 0.0
H3585 H 0.56559 0.41955 0.56199 0.0
C3586 C 0.52565 0.38216 0.56894 0.0
C3587 C 0.55709 0.39321 0.57182 0.0
C3588 C 0.57555 0.39089 0.5769 0.0
C3589 C 0.52286 0.39839 0.56147 0.0
C3590 C 0.53744 0.41225 0.55891 0.0
C3591 C 0.55434 0.40923 0.56405 0.0
C3592 C 0.53581 0.43034 0.5518 0.0
C3593 C 0.50432 0.4007 0.55718 0.0
C3594 C 0.52395 0.43072 0.53508 0.0
C3595 C 0.52291 0.44788 0.52872 0.0
C3596 C 0.53427 0.46489 0.53842 0.0
C3597 C 0.54629 0.4645 0.55484 0.0
C3598 C 0.54689 0.44754 0.56157 0.0
H3599 H 0.49569 0.39218 0.56536 0.0
H3600 H 0.50378 0.41566 0.56069 0.0
H3601 H 0.49892 0.39567 0.54171 0.0
H3602 H 0.51566 0.41777 0.52672 0.0
H3603 H 0.5136 0.44778 0.51593 0.0
H3604 H 0.47258 0.77357 0.37348 0.0
H3605 H 0.4462 0.77991 0.35501 0.0
H3606 H 0.41382 0.73472 0.37563 0.0
H3607 H 0.43984 0.72882 0.39438 0.0
H3608 H 0.41914 0.76008 0.32683 0.0
H3609 H 0.39206 0.77705 0.39176 0.0
H3610 H 0.41427 0.77453 0.39294 0.0
H3611 H 0.39641 0.75404 0.38997 0.0
C3612 C 0.45985 0.76475 0.37371 0.0
C3613 C 0.45836 0.75064 0.38538 0.0
C3614 C 0.44473 0.7685 0.36329 0.0
C3615 C 0.42785 0.7582 0.36433 0.0
C3616 C 0.42653 0.74336 0.37504 0.0
H3617 H 0.31831 0.74791 0.31691 0.0
H3618 H 0.34676 0.74681 0.33532 0.0
C3619 C 0.4415 0.73979 0.38556 0.0
C3620 C 0.41153 0.76278 0.35445 0.0
H3621 H 0.37199 0.77096 0.3619 0.0
C3622 C 0.40892 0.76267 0.33454 0.0
C3623 C 0.39812 0.76636 0.36442 0.0
C3624 C 0.40042 0.76822 0.38598 0.0
C3625 C 0.39308 0.76504 0.32428 0.0
C3626 C 0.3794 0.7679 0.33418 0.0
C3627 C 0.38225 0.76856 0.35417 0.0
C3628 C 0.36191 0.76969 0.32409 0.0
C3629 C 0.39095 0.7637 0.30278 0.0
C3630 C 0.36064 0.78334 0.31214 0.0
C3631 C 0.34438 0.78387 0.30156 0.0
C3632 C 0.32889 0.7712 0.30315 0.0
C3633 C 0.32996 0.75819 0.31583 0.0
C3634 C 0.34628 0.75746 0.3262 0.0
H3635 H 0.40046 0.75653 0.29695 0.0
H3636 H 0.3775 0.75593 0.29559 0.0
H3637 H 0.39335 0.77811 0.29908 0.0
H3638 H 0.37229 0.79335 0.31061 0.0
H3639 H 0.34397 0.79383 0.29163 0.0
H3640 H 0.02751 0.7231 0.10618 0.0
H3641 H 0.02221 0.68903 0.09516 0.0
H3642 H 0.0621 0.69925 0.06057 0.0
H3643 H 0.06743 0.73305 0.07122 0.0
H3644 H 0.01551 0.66669 0.05377 0.0
H3645 H 0.07694 0.66505 0.10176 0.0
H3646 H 0.06525 0.68331 0.10566 0.0
H3647 H 0.07878 0.68379 0.08769 0.0
C3648 C 0.03491 0.71811 0.09594 0.0
C3649 C 0.048 0.73081 0.0897 0.0
C3650 C 0.03188 0.69868 0.08971 0.0
C3651 C 0.04196 0.69177 0.0773 0.0
C3652 C 0.05432 0.70441 0.07029 0.0
H3653 H 0.06087 0.58611 0.02838 0.0
H3654 H 0.06187 0.6195 0.03941 0.0
C3655 C 0.05729 0.72373 0.07637 0.0
C3656 C 0.04053 0.67137 0.07236 0.0
H3657 H 0.06405 0.63804 0.07802 0.0
C3658 C 0.02599 0.66031 0.05917 0.0
C3659 C 0.05423 0.66321 0.07959 0.0
C3660 C 0.06964 0.67436 0.09459 0.0
C3661 C 0.02514 0.64134 0.05239 0.0
C3662 C 0.03919 0.63338 0.05909 0.0
C3663 C 0.05349 0.64434 0.07267 0.0
C3664 C 0.03897 0.61347 0.05267 0.0
C3665 C 0.00946 0.63009 0.03775 0.0
C3666 C 0.02609 0.59926 0.05693 0.0
C3667 C 0.02542 0.58046 0.05057 0.0
C3668 C 0.03779 0.57544 0.04003 0.0
C3669 C 0.05116 0.58964 0.03637 0.0
C3670 C 0.0517 0.60862 0.04263 0.0
H3671 H 1.00184 0.63931 0.03091 0.0
H3672 H 0.01358 0.6212 0.02639 0.0
H3673 H 1.00063 0.62061 0.04492 0.0
H3674 H 0.0165 0.60271 0.06516 0.0
H3675 H 0.01518 0.56981 0.05402 0.0
H3676 H 0.07246 0.30222 0.90803 0.0
H3677 H 0.09904 0.30498 0.89441 0.0
H3678 H 0.08014 0.24788 0.86452 0.0
H3679 H 0.05328 0.24495 0.87813 0.0
H3680 H 0.12461 0.28422 0.89776 0.0
H3681 H 0.09301 0.27807 0.82184 0.0
H3682 H 0.08221 0.28319 0.84164 0.0
H3683 H 0.08332 0.2594 0.83366 0.0
C3684 C 0.07381 0.29021 0.89847 0.0
C3685 C 0.06055 0.27336 0.89409 0.0
C3686 C 0.08913 0.29184 0.89074 0.0
C3687 C 0.09158 0.27675 0.87825 0.0
C3688 C 0.07845 0.25985 0.87388 0.0
H3689 H 0.17098 0.25153 0.8169 0.0
H3690 H 0.14585 0.25217 0.83257 0.0
C3691 C 0.0631 0.25815 0.88172 0.0
C3692 C 0.10792 0.27872 0.86998 0.0
H3693 H 0.1228 0.27632 0.82752 0.0
C3694 C 0.12423 0.28258 0.88241 0.0
C3695 C 0.10751 0.27698 0.84997 0.0
C3696 C 0.09061 0.27438 0.83597 0.0
C3697 C 0.14 0.28388 0.87532 0.0
C3698 C 0.13947 0.28134 0.85526 0.0
C3699 C 0.12321 0.27804 0.84289 0.0
C3700 C 0.15543 0.28112 0.84667 0.0
C3701 C 0.15703 0.28739 0.88931 0.0
C3702 C 0.16931 0.2972 0.84937 0.0
C3703 C 0.18386 0.29686 0.84046 0.0
C3704 C 0.18484 0.28041 0.82864 0.0
C3705 C 0.17093 0.26434 0.82615 0.0
C3706 C 0.15643 0.26472 0.83499 0.0
H3707 H 0.1549 0.28546 0.90401 0.0
H3708 H 0.16516 0.27778 0.88456 0.0
H3709 H 0.16453 0.30208 0.88997 0.0
H3710 H 0.16877 0.31013 0.85808 0.0
H3711 H 0.19431 0.3095 0.84279 0.0
H3712 H 0.51429 0.75725 0.94937 0.0
H3713 H 0.50875 0.72529 0.95722 0.0
H3714 H 0.51598 0.70349 0.90085 0.0
H3715 H 0.5222 0.73517 0.89317 0.0
H3716 H 0.48168 0.69424 0.9369 0.0
H3717 H 0.54839 0.68192 0.93674 0.0
H3718 H 0.54409 0.70509 0.93784 0.0
H3719 H 0.53876 0.68921 0.91542 0.0
C3720 C 0.51526 0.74567 0.93895 0.0
C3721 C 0.51898 0.74863 0.92085 0.0
C3722 C 0.51185 0.72752 0.94331 0.0
C3723 C 0.51206 0.71229 0.92956 0.0
C3724 C 0.51611 0.71524 0.91167 0.0
H3725 H 0.50917 0.59823 0.94774 0.0
H3726 H 0.50389 0.62292 0.92911 0.0
C3727 C 0.51982 0.73335 0.90743 0.0
C3728 C 0.50807 0.69319 0.93389 0.0
H3729 H 0.52646 0.65639 0.94067 0.0
C3730 C 0.49137 0.68582 0.93763 0.0
C3731 C 0.52077 0.68242 0.93453 0.0
C3732 C 0.53905 0.69008 0.93108 0.0
C3733 C 0.48714 0.66783 0.94252 0.0
C3734 C 0.50005 0.65731 0.94383 0.0
C3735 C 0.51652 0.66446 0.93934 0.0
C3736 C 0.49805 0.64037 0.95281 0.0
C3737 C 0.46908 0.66043 0.9466 0.0
C3738 C 0.49587 0.6419 0.97197 0.0
C3739 C 0.49869 0.62787 0.98247 0.0
C3740 C 0.50403 0.61235 0.974 0.0
C3741 C 0.505 0.61014 0.95445 0.0
C3742 C 0.50196 0.62411 0.94385 0.0
H3743 H 0.45922 0.66648 0.93834 0.0
H3744 H 0.46499 0.64481 0.94308 0.0
H3745 H 0.46912 0.66465 0.96207 0.0
H3746 H 0.49349 0.65464 0.9793 0.0
H3747 H 0.49824 0.63001 0.99764 0.0
H3748 H 0.10457 0.78961 0.72615 0.0
H3749 H 0.13635 0.79779 0.72684 0.0
H3750 H 0.13204 0.74409 0.69198 0.0
H3751 H 0.10083 0.73583 0.69173 0.0
H3752 H 0.14396 0.76683 0.74507 0.0
H3753 H 0.17905 0.77599 0.68419 0.0
H3754 H 0.15882 0.78327 0.68546 0.0
H3755 H 0.15844 0.75888 0.67819 0.0
C3756 C 0.11055 0.77983 0.71845 0.0
C3757 C 0.10091 0.76165 0.71015 0.0
C3758 C 0.12843 0.78473 0.71825 0.0
C3759 C 0.13639 0.77141 0.70962 0.0
C3760 C 0.1261 0.75456 0.69864 0.0
H3761 H 0.23247 0.73579 0.73691 0.0
H3762 H 0.20172 0.73416 0.72328 0.0
C3763 C 0.10844 0.74954 0.69919 0.0
C3764 C 0.1537 0.77043 0.71883 0.0
H3765 H 0.19218 0.7619 0.70961 0.0
C3766 C 0.15473 0.7662 0.73748 0.0
C3767 C 0.16702 0.76849 0.70839 0.0
C3768 C 0.16585 0.77201 0.68796 0.0
C3769 C 0.16854 0.75944 0.74586 0.0
C3770 C 0.18236 0.75827 0.73585 0.0
C3771 C 0.18147 0.7627 0.7172 0.0
C3772 C 0.1989 0.7555 0.74564 0.0
C3773 C 0.16781 0.75315 0.76512 0.0
C3774 C 0.20691 0.76728 0.76301 0.0
C3775 C 0.22383 0.76756 0.77107 0.0
C3776 C 0.23339 0.75692 0.76131 0.0
C3777 C 0.22517 0.74405 0.74462 0.0
C3778 C 0.20781 0.7433 0.73678 0.0
H3779 H 0.15411 0.74658 0.76617 0.0
H3780 H 0.17592 0.74285 0.76775 0.0
H3781 H 0.17245 0.76563 0.77664 0.0
H3782 H 0.20059 0.7773 0.76975 0.0
H3783 H 0.22993 0.77743 0.78411 0.0
H3784 H 0.98433 0.33685 0.41084 0.0
H3785 H 0.98633 0.36768 0.42889 0.0
H3786 H 0.04108 0.38441 0.42564 0.0
H3787 H 0.03939 0.35323 0.40764 0.0
H3788 H 0.01609 0.37911 0.46582 0.0
H3789 H 0.01334 0.42905 0.41339 0.0
H3790 H 1.00297 0.40419 0.40688 0.0
H3791 H 0.02635 0.41188 0.41061 0.0
C3792 C 0.99675 0.34716 0.41356 0.0
C3793 C 0.01184 0.34258 0.40819 0.0
C3794 C 0.9978 0.36473 0.42381 0.0
C3795 C 0.01383 0.37799 0.42851 0.0
C3796 C 0.02863 0.37412 0.42196 0.0
H3797 H 0.05123 0.48305 0.50301 0.0
H3798 H 0.04731 0.45363 0.48092 0.0
C3799 C 0.02764 0.3564 0.41176 0.0
C3800 C 0.01548 0.39483 0.44232 0.0
H3801 H 0.01752 0.44176 0.44633 0.0
C3802 C 0.01636 0.39285 0.46166 0.0
C3803 C 0.01575 0.41243 0.43652 0.0
C3804 C 0.01449 0.41468 0.41572 0.0
C3805 C 0.01777 0.4084 0.47562 0.0
C3806 C 0.01809 0.42605 0.46985 0.0
C3807 C 0.01713 0.42801 0.45048 0.0
C3808 C 0.02046 0.44294 0.48392 0.0
C3809 C 0.01932 0.40606 0.49644 0.0
C3810 C 0.00664 0.44622 0.49289 0.0
C3811 C 0.00887 0.46296 0.5055 0.0
C3812 C 0.02497 0.47617 0.50918 0.0
C3813 C 0.03886 0.47265 0.50051 0.0
C3814 C 0.0366 0.45608 0.48787 0.0
H3815 H 0.02082 0.39178 0.49868 0.0
H3816 H 0.03074 0.41672 0.50525 0.0
H3817 H 0.0074 0.40845 0.50169 0.0
H3818 H 0.99407 0.43611 0.48972 0.0
H3819 H 0.99798 0.46586 0.51184 0.0
H3820 H 0.50755 0.22408 0.22933 0.0
H3821 H 0.47951 0.22723 0.23753 0.0
H3822 H 0.47764 0.27004 0.20163 0.0
H3823 H 0.50553 0.26689 0.19307 0.0
H3824 H 0.47471 0.26212 0.25506 0.0
H3825 H 0.4288 0.23307 0.18567 0.0
H3826 H 0.45021 0.22816 0.19086 0.0
H3827 H 0.44808 0.25056 0.1846 0.0
C3828 C 0.50115 0.23414 0.22316 0.0
C3829 C 0.50868 0.24534 0.21071 0.0
C3830 C 0.48517 0.23579 0.22773 0.0
C3831 C 0.47664 0.24862 0.21988 0.0
C3832 C 0.48403 0.2598 0.20741 0.0
H3833 H 0.38876 0.29189 0.23714 0.0
H3834 H 0.41473 0.28404 0.22729 0.0
C3835 C 0.49999 0.25811 0.20275 0.0
C3836 C 0.46075 0.2515 0.22616 0.0
H3837 H 0.41748 0.24812 0.21063 0.0
C3838 C 0.46211 0.25891 0.24547 0.0
C3839 C 0.44462 0.2474 0.21334 0.0
C3840 C 0.44273 0.23922 0.19247 0.0
C3841 C 0.44757 0.26271 0.25239 0.0
C3842 C 0.43139 0.25856 0.23961 0.0
C3843 C 0.43001 0.25104 0.22029 0.0
C3844 C 0.41589 0.26299 0.24575 0.0
C3845 C 0.44975 0.27166 0.27306 0.0
C3846 C 0.40818 0.2536 0.25931 0.0
C3847 C 0.39335 0.25805 0.26497 0.0
C3848 C 0.38616 0.27175 0.25689 0.0
C3849 C 0.39398 0.28106 0.2433 0.0
C3850 C 0.40876 0.27668 0.23774 0.0
H3851 H 0.46376 0.27748 0.27975 0.0
H3852 H 0.44274 0.28318 0.27424 0.0
H3853 H 0.44405 0.26087 0.28134 0.0
H3854 H 0.41356 0.24282 0.26537 0.0
H3855 H 0.38739 0.25066 0.2754 0.0
H3856 H 0.57942 0.53872 0.3345 0.0
H3857 H 0.56851 0.53312 0.36378 0.0
H3858 H 0.61358 0.51208 0.38355 0.0
H3859 H 0.62474 0.51769 0.35393 0.0
H3860 H 0.56091 0.4985 0.37872 0.0
H3861 H 0.61225 0.55504 0.42773 0.0
H3862 H 0.60773 0.55446 0.4021 0.0
H3863 H 0.61965 0.53864 0.41193 0.0
C3864 C 0.58707 0.53288 0.34503 0.0
C3865 C 0.60304 0.52878 0.34197 0.0
C3866 C 0.58077 0.52965 0.36175 0.0
C3867 C 0.59034 0.52244 0.37592 0.0
C3868 C 0.60613 0.51791 0.37284 0.0
H3869 H 0.56154 0.50183 0.48702 0.0
H3870 H 0.57703 0.50302 0.4597 0.0
C3871 C 0.61241 0.52097 0.3559 0.0
C3872 C 0.58354 0.51975 0.39381 0.0
H3873 H 0.59029 0.53762 0.44154 0.0
C3874 C 0.56744 0.50687 0.3925 0.0
C3875 C 0.59197 0.53091 0.4117 0.0
C3876 C 0.6088 0.54567 0.41358 0.0
C3877 C 0.55948 0.50493 0.4086 0.0
C3878 C 0.5678 0.51623 0.42643 0.0
C3879 C 0.58407 0.52884 0.42787 0.0
C3880 C 0.55909 0.51607 0.44333 0.0
C3881 C 0.54208 0.491 0.40636 0.0
C3882 C 0.54414 0.5233 0.44326 0.0
C3883 C 0.53552 0.52288 0.45886 0.0
C3884 C 0.54164 0.51516 0.47485 0.0
C3885 C 0.5567 0.50803 0.475 0.0
C3886 C 0.56547 0.50864 0.45939 0.0
H3887 H 0.5394 0.48048 0.39305 0.0
H3888 H 0.54163 0.48346 0.41886 0.0
H3889 H 0.53147 0.4987 0.4056 0.0
H3890 H 0.53911 0.52926 0.43108 0.0
H3891 H 0.52398 0.52855 0.45834 0.0
H3892 H 0.27027 0.84173 0.03388 0.0
H3893 H 0.2858 0.85455 0.06613 0.0
H3894 H 0.2437 0.82208 0.08834 0.0
H3895 H 0.22767 0.80973 0.05559 0.0
H3896 H 0.27534 0.86195 0.11338 0.0
H3897 H 0.29092 0.79673 0.0784 0.0
H3898 H 0.28672 0.81454 0.06442 0.0
H3899 H 0.26919 0.80048 0.07318 0.0
C3900 C 0.26362 0.83863 0.04551 0.0
C3901 C 0.24784 0.82486 0.04237 0.0
C3902 C 0.27255 0.84597 0.06404 0.0
C3903 C 0.26592 0.83905 0.07941 0.0
C3904 C 0.24886 0.82763 0.07648 0.0
H3905 H 0.28335 0.784 0.16296 0.0
H3906 H 0.27948 0.79941 0.13516 0.0
C3907 C 0.23979 0.82045 0.05783 0.0
C3908 C 0.27856 0.83744 0.09584 0.0
H3909 H 0.30286 0.80733 0.11061 0.0
C3910 C 0.28164 0.85023 0.11287 0.0
C3911 C 0.28684 0.82224 0.09467 0.0
C3912 C 0.28333 0.80766 0.07674 0.0
C3913 C 0.29168 0.84713 0.12952 0.0
C3914 C 0.29887 0.83112 0.12864 0.0
C3915 C 0.29741 0.81968 0.11103 0.0
C3916 C 0.30243 0.82244 0.14566 0.0
C3917 C 0.29325 0.85988 0.14823 0.0
C3918 C 0.31661 0.83043 0.16077 0.0
C3919 C 0.31863 0.8217 0.17699 0.0
C3920 C 0.30671 0.80484 0.17763 0.0
C3921 C 0.29289 0.79678 0.16233 0.0
C3922 C 0.29065 0.8056 0.14657 0.0
H3923 H 0.28691 0.87177 0.14637 0.0
H3924 H 0.28711 0.8517 0.1585 0.0
H3925 H 0.30729 0.86575 0.15465 0.0
H3926 H 0.32581 0.84341 0.16012 0.0
H3927 H 0.32913 0.82814 0.18903 0.0
H3928 H 0.96677 0.537 0.81044 0.0
H3929 H 0.98011 0.53462 0.843 0.0
H3930 H 0.93001 0.52976 0.86031 0.0
H3931 H 0.91661 0.53245 0.82754 0.0
H3932 H 0.98394 0.55582 0.87897 0.0
H3933 H 0.94484 0.484 0.87952 0.0
H3934 H 0.9461 0.49386 0.85773 0.0
H3935 H 0.93221 0.50073 0.87353 0.0
C3936 C 0.95856 0.53592 0.82123 0.0
C3937 C 0.94055 0.53554 0.81606 0.0
C3938 C 0.96628 0.53435 0.84004 0.0
C3939 C 0.9563 0.5317 0.85464 0.0
C3940 C 0.93827 0.53152 0.84964 0.0
H3941 H 0.98871 0.51653 0.97814 0.0
H3942 H 0.97144 0.51922 0.94705 0.0
C3943 C 0.93057 0.53346 0.83079 0.0
C3944 C 0.96495 0.52939 0.87481 0.0
H3945 H 0.96426 0.49928 0.90835 0.0
C3946 C 0.97948 0.54342 0.88528 0.0
C3947 C 0.9596 0.51325 0.88358 0.0
C3948 C 0.94495 0.49697 0.87303 0.0
C3949 C 0.98834 0.54202 0.90378 0.0
C3950 C 0.9831 0.52587 0.91258 0.0
C3951 C 0.96849 0.51182 0.90216 0.0
C3952 C 0.99324 0.52317 0.93189 0.0
C3953 C 1.00323 0.55826 0.91394 0.0
C3954 C 0.01135 0.52396 0.93434 0.0
C3955 C 0.02118 0.52241 0.95208 0.0
C3956 C 0.01356 0.51987 0.96851 0.0
C3957 C 0.9953 0.51857 0.96612 0.0
C3958 C 0.98534 0.52009 0.94813 0.0
H3959 H 1.00219 0.57158 0.90855 0.0
H3960 H 1.00358 0.56047 0.92966 0.0
H3961 H 0.01581 0.55519 0.9113 0.0
H3962 H 0.01806 0.52578 0.92237 0.0
H3963 H 0.03507 0.52332 0.95289 0.0
H3964 H 0.27099 0.2266 0.56124 0.0
H3965 H 0.27513 0.23753 0.59556 0.0
H3966 H 0.29864 0.19152 0.60715 0.0
H3967 H 0.29446 0.18023 0.57256 0.0
H3968 H 0.25906 0.20239 0.61825 0.0
H3969 H 0.32565 0.24943 0.64509 0.0
H3970 H 0.31426 0.24863 0.621 0.0
H3971 H 0.32239 0.22881 0.62709 0.0
C3972 C 0.27749 0.21903 0.571 0.0
C3973 C 0.2821 0.20231 0.56419 0.0
C3974 C 0.27988 0.22538 0.59061 0.0
C3975 C 0.28708 0.21525 0.60372 0.0
C3976 C 0.2931 0.19949 0.59709 0.0
H3977 H 0.29556 0.22867 0.72618 0.0
H3978 H 0.29651 0.21831 0.69267 0.0
C3979 C 0.29071 0.19309 0.57737 0.0
C3980 C 0.28548 0.21942 0.62394 0.0
H3981 H 0.30643 0.24551 0.66716 0.0
C3982 C 0.26941 0.21174 0.62902 0.0
C3983 C 0.29903 0.23165 0.63772 0.0
C3984 C 0.31637 0.2402 0.63262 0.0
C3985 C 0.26649 0.21609 0.64771 0.0
C3986 C 0.27994 0.22856 0.66146 0.0
C3987 C 0.29611 0.23606 0.65643 0.0
C3988 C 0.27778 0.23346 0.68141 0.0
C3989 C 0.24918 0.20719 0.65272 0.0
C3990 C 0.26653 0.24501 0.68603 0.0
C3991 C 0.26584 0.25086 0.70524 0.0
C3992 C 0.27658 0.24536 0.71988 0.0
C3993 C 0.28726 0.23321 0.7151 0.0
C3994 C 0.28785 0.22731 0.69603 0.0
H3995 H 0.24116 0.19572 0.6412 0.0
H3996 H 0.25134 0.20136 0.66625 0.0
H3997 H 0.24164 0.21809 0.65502 0.0
H3998 H 0.25878 0.25 0.67484 0.0
H3999 H 0.25767 0.26039 0.70865 0.0
H4000 H 0.57885 0.49722 0.23809 0.0
H4001 H 0.569 0.49146 0.20301 0.0
H4002 H 0.6078 0.54094 0.19864 0.0
H4003 H 0.6178 0.54633 0.23333 0.0
H4004 H 0.55541 0.5174 0.18495 0.0
H4005 H 0.61231 0.50391 0.15402 0.0
H4006 H 0.61033 0.5016 0.1785 0.0
H4007 H 0.61798 0.52446 0.17217 0.0
C4008 C 0.58545 0.50647 0.22943 0.0
C4009 C 0.59899 0.52214 0.23803 0.0
C4010 C 0.5799 0.50322 0.20955 0.0
C4011 C 0.58789 0.51563 0.1983 0.0
C4012 C 0.60182 0.53091 0.20699 0.0
H4013 H 0.56279 0.54857 0.0889 0.0
H4014 H 0.5729 0.54704 0.12267 0.0
C4015 C 0.6074 0.53408 0.22675 0.0
C4016 C 0.58023 0.51433 0.178 0.0
H4017 H 0.59047 0.5139 0.13338 0.0
C4018 C 0.56294 0.51627 0.1736 0.0
C4019 C 0.59026 0.51317 0.16337 0.0
C4020 C 0.6087 0.5105 0.16721 0.0
C4021 C 0.55556 0.5176 0.15494 0.0
C4022 C 0.56571 0.5168 0.14049 0.0
C4023 C 0.58286 0.51456 0.14472 0.0
C4024 C 0.55868 0.51811 0.12073 0.0
C4025 C 0.53719 0.52044 0.15081 0.0
C4026 C 0.54732 0.50235 0.10884 0.0
C4027 C 0.54172 0.50308 0.0896 0.0
C4028 C 0.54731 0.51966 0.08222 0.0
C4029 C 0.55825 0.53566 0.09435 0.0
C4030 C 0.56405 0.53481 0.11353 0.0
H4031 H 0.53176 0.52283 0.16408 0.0
H4032 H 0.53703 0.53268 0.14318 0.0
H4033 H 0.52852 0.5078 0.14126 0.0
H4034 H 0.54314 0.48938 0.11435 0.0
H4035 H 0.53316 0.49066 0.08048 0.0
H4036 H 0.22828 0.84195 0.93716 0.0
H4037 H 0.24205 0.83844 0.90886 0.0
H4038 H 0.25444 0.78731 0.92461 0.0
H4039 H 0.23866 0.78925 0.95056 0.0
H4040 H 0.27493 0.84133 0.91075 0.0
H4041 H 0.24211 0.77078 0.8703 0.0
H4042 H 0.23283 0.78169 0.88886 0.0
H4043 H 0.24885 0.7681 0.89457 0.0
C4044 C 0.23273 0.82926 0.93355 0.0
C4045 C 0.23252 0.81587 0.94591 0.0
C4046 C 0.24099 0.82751 0.91776 0.0
C4047 C 0.24921 0.81258 0.91463 0.0
C4048 C 0.24765 0.79854 0.9262 0.0
H4049 H 0.3131 0.77734 0.8421 0.0
H4050 H 0.31426 0.79806 0.87211 0.0
C4051 C 0.2386 0.79969 0.94111 0.0
C4052 C 0.26086 0.81228 0.90065 0.0
H4053 H 0.27209 0.78218 0.86757 0.0
C4054 C 0.27415 0.82851 0.90103 0.0
C4055 C 0.25996 0.79547 0.88823 0.0
C4056 C 0.24502 0.77817 0.88537 0.0
C4057 C 0.28633 0.82833 0.88882 0.0
C4058 C 0.28554 0.81139 0.87694 0.0
C4059 C 0.27289 0.79502 0.87734 0.0
C4060 C 0.29376 0.81072 0.86015 0.0
C4061 C 0.29954 0.84613 0.88808 0.0
C4062 C 0.28268 0.81209 0.84345 0.0
C4063 C 0.28062 0.79889 0.82721 0.0
C4064 C 0.29137 0.78616 0.82668 0.0
C4065 C 0.30464 0.78708 0.84235 0.0
C4066 C 0.3058 0.79937 0.8592 0.0
H4067 H 0.30072 0.85717 0.90062 0.0
H4068 H 0.31258 0.84311 0.8875 0.0
H4069 H 0.29542 0.85166 0.8748 0.0
H4070 H 0.27307 0.82052 0.84411 0.0
H4071 H 0.26971 0.7977 0.81567 0.0
H4072 H 0.91396 0.54059 0.68933 0.0
H4073 H 0.92509 0.53846 0.65875 0.0
H4074 H 0.96997 0.52165 0.68647 0.0
H4075 H 0.95902 0.52347 0.71637 0.0
H4076 H 0.95371 0.55486 0.64508 0.0
H4077 H 0.95616 0.48037 0.64178 0.0
H4078 H 0.94531 0.4916 0.65864 0.0
H4079 H 0.96867 0.49392 0.664 0.0
C4080 C 0.92631 0.53668 0.68901 0.0
C4081 C 0.93543 0.53228 0.70582 0.0
C4082 C 0.93269 0.53529 0.67131 0.0
C4083 C 0.94835 0.52931 0.66963 0.0
C4084 C 0.95763 0.52562 0.68661 0.0
H4085 H 0.02195 0.52459 0.58919 0.0
H4086 H 0.00625 0.52485 0.61621 0.0
C4087 C 0.95132 0.52694 0.70406 0.0
C4088 C 0.9554 0.5272 0.65068 0.0
H4089 H 0.97327 0.49781 0.62208 0.0
C4090 C 0.95771 0.54222 0.64004 0.0
C4091 C 0.96075 0.51077 0.6434 0.0
C4092 C 0.95742 0.49318 0.65242 0.0
C4093 C 0.96566 0.54159 0.6234 0.0
C4094 C 0.97167 0.52552 0.6167 0.0
C4095 C 0.96901 0.51033 0.62701 0.0
C4096 C 0.9811 0.52452 0.59948 0.0
C4097 C 0.96816 0.55851 0.61334 0.0
C4098 C 0.97247 0.52385 0.58047 0.0
C4099 C 0.98148 0.52342 0.56472 0.0
C4100 C 0.99959 0.52389 0.5673 0.0
C4101 C 0.00811 0.52431 0.58631 0.0
C4102 C 0.99905 0.52444 0.60196 0.0
H4103 H 0.96501 0.57081 0.62151 0.0
H4104 H 0.9819 0.56255 0.61109 0.0
H4105 H 0.95951 0.55488 0.59902 0.0
H4106 H 0.95865 0.52366 0.57775 0.0
H4107 H 0.97425 0.52305 0.5505 0.0
H4108 H 0.25523 0.21231 0.46257 0.0
H4109 H 0.26095 0.22512 0.43407 0.0
H4110 H 0.29684 0.18967 0.42578 0.0
H4111 H 0.29088 0.17622 0.45472 0.0
H4112 H 0.29125 0.24457 0.42576 0.0
H4113 H 0.26394 0.17824 0.37355 0.0
H4114 H 0.26041 0.18044 0.39799 0.0
H4115 H 0.28116 0.17754 0.39273 0.0
C4116 C 0.26433 0.20702 0.45479 0.0
C4117 C 0.27245 0.19297 0.46095 0.0
C4118 C 0.26763 0.21451 0.43842 0.0
C4119 C 0.27913 0.20824 0.42758 0.0
C4120 C 0.28763 0.19447 0.43374 0.0
H4121 H 0.29925 0.23941 0.31734 0.0
H4122 H 0.2993 0.22543 0.34673 0.0
C4123 C 0.28429 0.18685 0.45031 0.0
C4124 C 0.28188 0.21639 0.40993 0.0
H4125 H 0.27412 0.2057 0.36103 0.0
C4126 C 0.28766 0.23605 0.4116 0.0
C4127 C 0.27709 0.20531 0.39145 0.0
C4128 C 0.27016 0.18423 0.38868 0.0
C4129 C 0.28866 0.24494 0.39538 0.0
C4130 C 0.28344 0.2339 0.37684 0.0
C4131 C 0.27807 0.21419 0.37519 0.0
C4132 C 0.28333 0.24246 0.359 0.0
C4133 C 0.29548 0.26606 0.39836 0.0
C4134 C 0.27413 0.2565 0.35588 0.0
C4135 C 0.27447 0.26481 0.3393 0.0
C4136 C 0.28346 0.25873 0.32525 0.0
C4137 C 0.29214 0.24425 0.32798 0.0
C4138 C 0.29218 0.23629 0.34477 0.0
H4139 H 0.30376 0.27148 0.41278 0.0
H4140 H 0.30328 0.27039 0.38735 0.0
H4141 H 0.28424 0.27284 0.39735 0.0
H4142 H 0.26665 0.26104 0.36624 0.0
H4143 H 0.26754 0.27582 0.33733 0.0
H4144 H 0.33104 0.63408 0.51795 0.0
H4145 H 0.35325 0.6181 0.50882 0.0
H4146 H 0.38614 0.64044 0.56419 0.0
H4147 H 0.36405 0.65667 0.57349 0.0
H4148 H 0.3926 0.63945 0.51201 0.0
H4149 H 0.37769 0.57957 0.55232 0.0
H4150 H 0.36183 0.59289 0.54522 0.0
H4151 H 0.3797 0.60299 0.5648 0.0
C4152 C 0.34283 0.63527 0.52833 0.0
C4153 C 0.34585 0.64648 0.54645 0.0
C4154 C 0.35553 0.62637 0.523 0.0
C4155 C 0.3712 0.62838 0.53582 0.0
C4156 C 0.37405 0.63895 0.55417 0.0
H4157 H 0.46305 0.58718 0.53324 0.0
H4158 H 0.44359 0.60867 0.53608 0.0
C4159 C 0.36142 0.64802 0.55947 0.0
C4160 C 0.38452 0.61909 0.53007 0.0
H4161 H 0.40177 0.58136 0.53638 0.0
C4162 C 0.39468 0.62675 0.51727 0.0
C4163 C 0.38691 0.60257 0.53701 0.0
C4164 C 0.37592 0.59387 0.55052 0.0
C4165 C 0.40751 0.61817 0.51132 0.0
C4166 C 0.40994 0.60172 0.51838 0.0
C4167 C 0.3997 0.59406 0.53108 0.0
C4168 C 0.42317 0.59205 0.51308 0.0
C4169 C 0.41841 0.62654 0.49762 0.0
C4170 C 0.41812 0.5761 0.49881 0.0
C4171 C 0.42906 0.56374 0.49727 0.0
C4172 C 0.44505 0.56722 0.51013 0.0
C4173 C 0.45066 0.58408 0.52336 0.0
C4174 C 0.4397 0.59642 0.52487 0.0
H4175 H 0.41474 0.63935 0.49327 0.0
H4176 H 0.43248 0.63025 0.50445 0.0
H4177 H 0.41681 0.61592 0.48461 0.0
H4178 H 0.40523 0.57254 0.48982 0.0
H4179 H 0.42441 0.5508 0.48704 0.0
H4180 H 0.83781 0.92699 0.52227 0.0
H4181 H 0.86536 0.94613 0.51612 0.0
H4182 H 0.89502 0.91934 0.55512 0.0
H4183 H 0.86794 0.90036 0.56115 0.0
H4184 H 0.89455 0.97138 0.54074 0.0
H4185 H 0.91543 0.91012 0.50683 0.0
H4186 H 0.89323 0.9088 0.51046 0.0
H4187 H 0.90993 0.90748 0.52993 0.0
C4188 C 0.85021 0.92549 0.52979 0.0
C4189 C 0.8506 0.9121 0.54221 0.0
C4190 C 0.86598 0.93629 0.52612 0.0
C4191 C 0.88237 0.93383 0.53472 0.0
C4192 C 0.88266 0.92115 0.54781 0.0
H4193 H 0.99415 0.98171 0.54103 0.0
H4194 H 0.96532 0.96167 0.54204 0.0
C4195 C 0.86707 0.91042 0.55142 0.0
C4196 C 0.8993 0.94456 0.53052 0.0
H4197 H 0.93738 0.93896 0.51605 0.0
C4198 C 0.90381 0.9643 0.53512 0.0
C4199 C 0.91155 0.93539 0.52329 0.0
C4200 C 0.90726 0.91429 0.51716 0.0
C4201 C 0.92033 0.97501 0.53339 0.0
C4202 C 0.93271 0.96585 0.52639 0.0
C4203 C 0.92807 0.94609 0.52149 0.0
C4204 C 0.95044 0.97661 0.52411 0.0
C4205 C 0.92457 0.99606 0.53985 0.0
C4206 C 0.95192 0.99121 0.51307 0.0
C4207 C 0.96834 1.00266 0.51259 0.0
C4208 C 0.98382 0.99952 0.52263 0.0
C4209 C 0.98253 0.98422 0.53275 0.0
C4210 C 0.96599 0.97287 0.53348 0.0
H4211 H 0.9161 1.00008 0.54988 0.0
H4212 H 0.93847 1.00146 0.54706 0.0
H4213 H 0.92228 1.0031 0.52717 0.0
H4214 H 0.9403 0.99409 0.50516 0.0
H4215 H 0.96891 0.01432 0.50464 0.0
H4216 H 0.88881 0.04065 0.25002 0.0
H4217 H 0.87258 0.06543 0.25399 0.0
H4218 H 0.9152 0.09874 0.29773 0.0
H4219 H 0.93137 0.07426 0.29406 0.0
H4220 H 0.86547 0.08265 0.29363 0.0
H4221 H 0.90426 0.13251 0.25472 0.0
H4222 H 0.90245 0.10738 0.25016 0.0
H4223 H 0.91621 0.12143 0.27155 0.0
C4224 C 0.89473 0.0533 0.2604 0.0
C4225 C 0.91137 0.05554 0.2717 0.0
C4226 C 0.88544 0.06735 0.26269 0.0
C4227 C 0.89283 0.08382 0.27608 0.0
C4228 C 0.9094 0.08611 0.28728 0.0
H4229 H 0.86387 0.19005 0.30149 0.0
H4230 H 0.87902 0.16422 0.30241 0.0
C4231 C 0.91857 0.07208 0.28516 0.0
C4232 C 0.88331 0.09877 0.27862 0.0
H4233 H 0.88372 0.14354 0.27076 0.0
C4234 C 0.86932 0.09595 0.28856 0.0
C4235 C 0.8887 0.11611 0.27226 0.0
C4236 C 0.90367 0.11963 0.26147 0.0
C4237 C 0.86058 0.11025 0.29246 0.0
C4238 C 0.86577 0.12752 0.28579 0.0
C4239 C 0.87984 0.13031 0.27593 0.0
C4240 C 0.8562 0.14255 0.28781 0.0
C4241 C 0.84616 0.10689 0.30403 0.0
C4242 C 0.83838 0.1388 0.27957 0.0
C4243 C 0.82977 0.1534 0.27934 0.0
C4244 C 0.83895 0.17193 0.28705 0.0
C4245 C 0.85664 0.17573 0.29566 0.0
C4246 C 0.86522 0.16106 0.29612 0.0
H4247 H 0.84752 0.09577 0.31296 0.0
H4248 H 0.84609 0.12 0.31354 0.0
H4249 H 0.83332 0.10207 0.29413 0.0
H4250 H 0.83133 0.12475 0.27255 0.0
H4251 H 0.81615 0.15038 0.27235 0.0
H4252 H 0.77474 0.16649 0.0787 0.0
H4253 H 0.74714 0.14206 0.07268 0.0
H4254 H 0.74368 0.14108 0.01177 0.0
H4255 H 0.77089 0.16583 0.0177 0.0
H4256 H 0.71324 0.14901 0.04242 0.0
H4257 H 0.73648 0.0829 0.03012 0.0
H4258 H 0.74986 0.10363 0.04612 0.0
H4259 H 0.74646 0.10343 0.02074 0.0
C4260 C 0.76808 0.16094 0.06407 0.0
C4261 C 0.77465 0.16811 0.04865 0.0
C4262 C 0.75245 0.14702 0.06066 0.0
C4263 C 0.74359 0.13982 0.0418 0.0
C4264 C 0.75045 0.14652 0.02639 0.0
H4265 H 0.63774 0.06791 1.00028 0.0
H4266 H 0.66768 0.08611 1.00024 0.0
C4267 C 0.76584 0.16069 0.0298 0.0
C4268 C 0.72636 0.1265 0.03819 0.0
H4269 H 0.70598 0.07973 0.0276 0.0
C4270 C 0.71159 0.13388 0.03906 0.0
C4271 C 0.72443 0.10686 0.03371 0.0
C4272 C 0.7401 0.09857 0.03261 0.0
C4273 C 0.69482 0.12196 0.03584 0.0
C4274 C 0.69292 0.10229 0.03177 0.0
C4275 C 0.70763 0.09489 0.03056 0.0
C4276 C 0.67593 0.08933 0.031 0.0
C4277 C 0.67923 0.13034 0.0373 0.0
C4278 C 0.67109 0.08495 0.04821 0.0
C4279 C 0.65432 0.07451 0.04821 0.0
C4280 C 0.64215 0.06845 0.03101 0.0
C4281 C 0.64709 0.07238 0.01364 0.0
C4282 C 0.66405 0.08269 0.01362 0.0
H4283 H 0.68267 0.14593 0.03832 0.0
H4284 H 0.66866 0.12423 0.02464 0.0
H4285 H 0.67397 0.12679 0.05026 0.0
H4286 H 0.6801 0.09022 0.06173 0.0
H4287 H 0.65057 0.07194 0.06177 0.0
H4288 H 0.22283 0.46705 0.30458 0.0
H4289 H 0.23431 0.43891 0.30215 0.0
H4290 H 0.18209 0.40482 0.28079 0.0
H4291 H 0.17056 0.43341 0.28244 0.0
H4292 H 0.23514 0.41058 0.31665 0.0
H4293 H 0.20157 0.37749 0.24326 0.0
H4294 H 0.20063 0.4009 0.25311 0.0
H4295 H 0.18615 0.38054 0.25851 0.0
C4296 C 0.21357 0.45367 0.29911 0.0
C4297 C 0.19549 0.45322 0.29351 0.0
C4298 C 0.22032 0.43719 0.29779 0.0
C4299 C 0.20954 0.41891 0.29078 0.0
C4300 C 0.19133 0.41829 0.28555 0.0
H4301 H 0.23055 0.30218 0.27669 0.0
H4302 H 0.21765 0.32978 0.2796 0.0
C4303 C 0.18452 0.43495 0.2867 0.0
C4304 C 0.21748 0.40107 0.2895 0.0
H4305 H 0.21628 0.35874 0.26121 0.0
C4306 C 0.23091 0.39943 0.30433 0.0
C4307 C 0.21259 0.38584 0.27366 0.0
C4308 C 0.19959 0.38632 0.25615 0.0
C4309 C 0.23896 0.38368 0.304 0.0
C4310 C 0.23387 0.36839 0.28826 0.0
C4311 C 0.22044 0.36995 0.27349 0.0
C4312 C 0.24218 0.35093 0.28674 0.0
C4313 C 0.25264 0.38348 0.32103 0.0
C4314 C 0.26055 0.35265 0.28943 0.0
C4315 C 0.26803 0.33663 0.28771 0.0
C4316 C 0.25764 0.31785 0.28313 0.0
C4317 C 0.23928 0.31609 0.28033 0.0
C4318 C 0.23179 0.33215 0.28197 0.0
H4319 H 0.25122 0.39253 0.33408 0.0
H4320 H 0.25187 0.36897 0.3242 0.0
H4321 H 0.26584 0.3891 0.3179 0.0
H4322 H 0.26932 0.36652 0.29252 0.0
H4323 H 0.28217 0.33909 0.28985 0.0
H4324 H 0.22455 0.37264 0.02239 0.0
H4325 H 0.19987 0.38733 0.0169 0.0
H4326 H 0.23554 0.44199 0.02598 0.0
H4327 H 0.26057 0.42732 0.03171 0.0
H4328 H 0.19176 0.41516 0.04327 0.0
H4329 H 0.201 0.43948 0.97434 0.0
H4330 H 0.21084 0.4215 0.9832 0.0
H4331 H 0.22026 0.4459 0.9929 0.0
C4332 C 0.22727 0.38781 0.02321 0.0
C4333 C 0.24467 0.39878 0.02761 0.0
C4334 C 0.21306 0.39618 0.02003 0.0
C4335 C 0.21578 0.41575 0.02085 0.0
C4336 C 0.2331 0.42682 0.02504 0.0
H4337 H 0.14772 0.49337 0.00961 0.0
H4338 H 0.17165 0.47731 0.0107 0.0
C4339 C 0.24741 0.41844 0.02846 0.0
C4340 C 0.20041 0.42448 0.01826 0.0
H4341 H 0.17949 0.44986 0.98955 0.0
C4342 C 0.18904 0.42272 0.0315 0.0
C4343 C 0.19673 0.43415 0.00278 0.0
C4344 C 0.20772 0.43529 0.98735 0.0
C4345 C 0.17447 0.43085 0.03011 0.0
C4346 C 0.17084 0.44075 0.01473 0.0
C4347 C 0.18218 0.44236 0.00137 0.0
C4348 C 0.15574 0.45003 0.01262 0.0
C4349 C 0.1635 0.42919 0.04557 0.0
C4350 C 0.13853 0.44003 0.01263 0.0
C4351 C 0.12479 0.44929 0.01225 0.0
C4352 C 0.12782 0.46869 0.01131 0.0
C4353 C 0.14484 0.47842 0.01023 0.0
C4354 C 0.15861 0.46923 0.01091 0.0
H4355 H 0.17088 0.42632 0.05894 0.0
H4356 H 0.15893 0.44223 0.04907 0.0
H4357 H 0.15187 0.41722 0.04052 0.0
H4358 H 0.13572 0.42507 0.01316 0.0
H4359 H 0.11179 0.44127 0.01276 0.0
H4360 H 0.8912 0.96637 0.2776 0.0
H4361 H 0.87067 0.93926 0.28501 0.0
H4362 H 0.87985 0.90384 0.23663 0.0
H4363 H 0.90081 0.93055 0.22978 0.0
H4364 H 0.84059 0.9144 0.26565 0.0
H4365 H 0.89287 0.87634 0.27997 0.0
H4366 H 0.89748 0.90102 0.27784 0.0
H4367 H 0.89171 0.88322 0.25671 0.0
C4368 C 0.88847 0.95285 0.26835 0.0
C4369 C 0.8975 0.95043 0.25313 0.0
C4370 C 0.87691 0.93739 0.27267 0.0
C4371 C 0.87418 0.91944 0.26171 0.0
C4372 C 0.88223 0.91742 0.24567 0.0
H4373 H 0.8054 0.81162 0.24018 0.0
H4374 H 0.82645 0.84169 0.24112 0.0
C4375 C 0.89399 0.93271 0.2416 0.0
C4376 C 0.86323 0.90259 0.26699 0.0
H4377 H 0.86322 0.85738 0.27357 0.0
C4378 C 0.84559 0.90204 0.2677 0.0
C4379 C 0.86989 0.8866 0.2701 0.0
C4380 C 0.88908 0.88688 0.27135 0.0
C4381 C 0.83416 0.88545 0.27009 0.0
C4382 C 0.84056 0.86912 0.27166 0.0
C4383 C 0.85836 0.86993 0.27203 0.0
C4384 C 0.82867 0.85074 0.27155 0.0
C4385 C 0.81516 0.88517 0.27027 0.0
C4386 C 0.82337 0.84586 0.28846 0.0
C4387 C 0.81171 0.82858 0.28799 0.0
C4388 C 0.80498 0.81624 0.27055 0.0
C4389 C 0.81041 0.82106 0.25371 0.0
C4390 C 0.82236 0.83813 0.25425 0.0
H4391 H 0.81209 0.89891 0.26825 0.0
H4392 H 0.80667 0.87402 0.25875 0.0
H4393 H 0.81191 0.88167 0.28417 0.0
H4394 H 0.82813 0.85549 0.3019 0.0
H4395 H 0.80752 0.8251 0.30111 0.0
H4396 H 0.70551 0.06316 0.82363 0.0
H4397 H 0.7222 0.09589 0.82498 0.0
H4398 H 0.69919 0.09416 0.76604 0.0
H4399 H 0.68279 0.0617 0.76465 0.0
H4400 H 0.74658 0.11499 0.80116 0.0
H4401 H 0.6848 0.13906 0.79625 0.0
H4402 H 0.68679 0.11686 0.80354 0.0
H4403 H 0.684 0.11909 0.77857 0.0
C4404 C 0.70464 0.06946 0.81072 0.0
C4405 C 0.69324 0.05938 0.79378 0.0
C4406 C 0.71401 0.08836 0.81157 0.0
C4407 C 0.71192 0.09781 0.79566 0.0
C4408 C 0.70107 0.08746 0.77861 0.0
H4409 H 0.74685 0.20478 0.75796 0.0
H4410 H 0.73446 0.17248 0.76241 0.0
C4411 C 0.69187 0.06867 0.77772 0.0
C4412 C 0.72018 0.11859 0.79681 0.0
H4413 H 0.70981 0.16088 0.79126 0.0
C4414 C 0.73852 0.12502 0.79924 0.0
C4415 C 0.70986 0.13201 0.7945 0.0
C4416 C 0.69028 0.12654 0.79325 0.0
C4417 C 0.74658 0.14406 0.79854 0.0
C4418 C 0.73616 0.1572 0.79536 0.0
C4419 C 0.7179 0.15091 0.79352 0.0
C4420 C 0.74387 0.17724 0.79301 0.0
C4421 C 0.76621 0.14995 0.80054 0.0
C4422 C 0.75324 0.19105 0.80874 0.0
C4423 C 0.76018 0.20978 0.80628 0.0
C4424 C 0.75816 0.21518 0.78796 0.0
C4425 C 0.7488 0.20128 0.77228 0.0
C4426 C 0.74165 0.1827 0.7748 0.0
H4427 H 0.77246 0.13788 0.80147 0.0
H4428 H 0.76966 0.15667 0.78812 0.0
H4429 H 0.7717 0.16059 0.81368 0.0
H4430 H 0.75512 0.18737 0.82299 0.0
H4431 H 0.76733 0.21997 0.8187 0.0
loop_
_geom_bond_atom_site_label_1
_geom_bond_atom_site_label_2
_geom_bond_distance
_geom_bond_site_symmetry_2
_ccdc_geom_bond_type
Zn0 O3 2.031 . S
Zn0 O5 2.049 . S
Zn0 O10 2.067 . S
Zn1 O2 1.962 . S
Zn1 O4 1.986 . S
Zn1 O6 1.996 . S
Zn1 O9 1.943 1_455 S
O2 Zn1 1.962 . S
O2 C7 1.254 . S
O3 Zn0 2.031 . S
O3 C7 1.269 1_655 S
O4 Zn1 1.986 . S
O4 C11 1.262 . S
O5 Zn0 2.049 . S
O5 C13 1.260 . S
O6 Zn1 1.996 . S
O6 C13 1.257 1_455 S
C7 O2 1.254 . S
C7 O3 1.269 1_455 S
C8 O9 1.249 . S
C8 O10 1.270 . S
O9 Zn1 1.943 1_655 S
O9 C8 1.249 . S
O10 Zn0 2.067 . S
O10 C8 1.270 . S
C11 O4 1.262 . S
C11 O12 1.232 . S
O12 C11 1.232 . S
C13 O5 1.260 . S
C13 O6 1.257 1_655 S
Zn14 O17 2.031 . S
Zn14 O19 2.049 . S
Zn14 O24 2.067 . S
Zn15 O16 1.962 . S
Zn15 O18 1.986 . S
Zn15 O20 1.996 . S
Zn15 O23 1.943 . S
O16 Zn15 1.962 . S
O16 C21 1.254 . S
O17 Zn14 2.031 . S
O17 C21 1.269 . S
O18 Zn15 1.986 . S
O18 C25 1.262 . S
O19 Zn14 2.049 . S
O19 C27 1.260 . S
O20 Zn15 1.996 . S
O20 C27 1.257 . S
C21 O16 1.254 . S
C21 O17 1.269 . S
C22 O23 1.249 . S
C22 O24 1.270 . S
O23 Zn15 1.943 . S
O23 C22 1.249 . S
O24 Zn14 2.067 . S
O24 C22 1.270 . S
C25 O18 1.262 . S
C25 O26 1.232 . S
O26 C25 1.232 . S
C27 O19 1.260 . S
C27 O20 1.257 . S
Zn28 O31 2.031 . S
Zn28 O33 2.049 . S
Zn28 O38 2.067 . S
Zn29 O30 1.962 . S
Zn29 O32 1.986 . S
Zn29 O34 1.996 . S
Zn29 O37 1.943 . S
O30 Zn29 1.962 . S
O30 C35 1.254 . S
O31 Zn28 2.031 . S
O31 C35 1.269 . S
O32 Zn29 1.986 . S
O32 C39 1.262 . S
O33 Zn28 2.049 . S
O33 C41 1.260 . S
O34 Zn29 1.996 . S
O34 C41 1.257 . S
C35 O30 1.254 . S
C35 O31 1.269 . S
C36 O37 1.249 . S
C36 O38 1.270 . S
O37 Zn29 1.943 . S
O37 C36 1.249 . S
O38 Zn28 2.067 . S
O38 C36 1.270 . S
C39 O32 1.262 . S
C39 O40 1.232 . S
O40 C39 1.232 . S
C41 O33 1.260 . S
C41 O34 1.257 . S
Zn42 O45 2.031 . S
Zn42 O47 2.049 . S
Zn42 O52 2.067 . S
Zn43 O44 1.962 . S
Zn43 O46 1.986 . S
Zn43 O48 1.996 . S
Zn43 O51 1.943 . S
O44 Zn43 1.962 . S
O44 C49 1.254 . S
O45 Zn42 2.031 . S
O45 C49 1.269 . S
O46 Zn43 1.986 . S
O46 C53 1.262 . S
O47 Zn42 2.049 . S
O47 C55 1.260 . S
O48 Zn43 1.996 . S
O48 C55 1.257 . S
C49 O44 1.254 . S
C49 O45 1.269 . S
C50 O51 1.249 . S
C50 O52 1.270 . S
O51 Zn43 1.943 . S
O51 C50 1.249 . S
O52 Zn42 2.067 . S
O52 C50 1.270 . S
C53 O46 1.262 . S
C53 O54 1.232 . S
O54 C53 1.232 . S
C55 O47 1.260 . S
C55 O48 1.257 . S
Zn56 O59 2.031 . S
Zn56 O61 2.049 . S
Zn56 O66 2.067 . S
Zn57 O58 1.962 . S
Zn57 O60 1.986 . S
Zn57 O62 1.996 . S
Zn57 O65 1.943 . S
O58 Zn57 1.962 . S
O58 C63 1.254 . S
O59 Zn56 2.031 . S
O59 C63 1.269 . S
O60 Zn57 1.986 . S
O60 C67 1.262 . S
O61 Zn56 2.049 . S
O61 C69 1.260 . S
O62 Zn57 1.996 . S
O62 C69 1.257 . S
C63 O58 1.254 . S
C63 O59 1.269 . S
C64 O65 1.249 . S
C64 O66 1.270 . S
O65 Zn57 1.943 . S
O65 C64 1.249 . S
O66 Zn56 2.067 . S
O66 C64 1.270 . S
C67 O60 1.262 . S
C67 O68 1.232 . S
O68 C67 1.232 . S
C69 O61 1.260 . S
C69 O62 1.257 . S
Zn70 O73 2.031 . S
Zn70 O75 2.049 . S
Zn70 O80 2.067 . S
Zn71 O72 1.962 . S
Zn71 O74 1.986 . S
Zn71 O76 1.996 . S
Zn71 O79 1.943 . S
O72 Zn71 1.962 . S
O72 C77 1.254 . S
O73 Zn70 2.031 . S
O73 C77 1.269 . S
O74 Zn71 1.986 . S
O74 C81 1.262 . S
O75 Zn70 2.049 . S
O75 C83 1.260 . S
O76 Zn71 1.996 . S
O76 C83 1.257 . S
C77 O72 1.254 . S
C77 O73 1.269 . S
C78 O79 1.249 . S
C78 O80 1.270 . S
O79 Zn71 1.943 . S
O79 C78 1.249 . S
O80 Zn70 2.067 . S
O80 C78 1.270 . S
C81 O74 1.262 . S
C81 O82 1.232 . S
O82 C81 1.232 . S
C83 O75 1.260 . S
C83 O76 1.257 . S
Zn84 O87 2.031 . S
Zn84 O89 2.049 . S
Zn84 O94 2.067 . S
Zn85 O86 1.962 . S
Zn85 O88 1.986 . S
Zn85 O90 1.996 . S
Zn85 O93 1.943 . S
O86 Zn85 1.962 . S
O86 C91 1.254 . S
O87 Zn84 2.031 . S
O87 C91 1.269 . S
O88 Zn85 1.986 . S
O88 C95 1.262 . S
O89 Zn84 2.049 . S
O89 C97 1.260 . S
O90 Zn85 1.996 . S
O90 C97 1.257 . S
C91 O86 1.254 . S
C91 O87 1.269 . S
C92 O93 1.249 . S
C92 O94 1.270 . S
O93 Zn85 1.943 . S
O93 C92 1.249 . S
O94 Zn84 2.067 . S
O94 C92 1.270 . S
C95 O88 1.262 . S
C95 O96 1.232 . S
O96 C95 1.232 . S
C97 O89 1.260 . S
C97 O90 1.257 . S
Zn98 O101 2.031 . S
Zn98 O103 2.049 . S
Zn98 O108 2.067 . S
Zn99 O100 1.962 . S
Zn99 O102 1.986 . S
Zn99 O104 1.996 . S
Zn99 O107 1.943 1_455 S
O100 Zn99 1.962 . S
O100 C105 1.254 . S
O101 Zn98 2.031 . S
O101 C105 1.269 1_655 S
O102 Zn99 1.986 . S
O102 C109 1.262 . S
O103 Zn98 2.049 . S
O103 C111 1.260 1_655 S
O104 Zn99 1.996 . S
O104 C111 1.257 . S
C105 O100 1.254 . S
C105 O101 1.269 1_455 S
C106 O107 1.249 . S
C106 O108 1.270 . S
O107 Zn99 1.943 1_655 S
O107 C106 1.249 . S
O108 Zn98 2.067 . S
O108 C106 1.270 . S
C109 O102 1.262 . S
C109 O110 1.232 . S
O110 C109 1.232 . S
C111 O103 1.260 1_455 S
C111 O104 1.257 . S
Zn112 O115 2.031 1_565 S
Zn112 O117 2.049 . S
Zn112 O122 2.067 . S
Zn113 O114 1.962 . S
Zn113 O116 1.986 . S
Zn113 O118 1.996 . S
Zn113 O121 1.943 . S
O114 Zn113 1.962 . S
O114 C119 1.254 . S
O115 Zn112 2.031 1_545 S
O115 C119 1.269 . S
O116 Zn113 1.986 . S
O116 C123 1.262 . S
O117 Zn112 2.049 . S
O117 C125 1.260 1_565 S
O118 Zn113 1.996 . S
O118 C125 1.257 . S
C119 O114 1.254 . S
C119 O115 1.269 . S
C120 O121 1.249 1_565 S
C120 O122 1.270 . S
O121 Zn113 1.943 . S
O121 C120 1.249 1_545 S
O122 Zn112 2.067 . S
O122 C120 1.270 . S
C123 O116 1.262 . S
C123 O124 1.232 . S
O124 C123 1.232 . S
C125 O117 1.260 1_545 S
C125 O118 1.257 . S
Zn126 O129 2.031 . S
Zn126 O131 2.049 . S
Zn126 O136 2.067 . S
Zn127 O128 1.962 . S
Zn127 O130 1.986 . S
Zn127 O132 1.996 . S
Zn127 O135 1.943 . S
O128 Zn127 1.962 . S
O128 C133 1.254 . S
O129 Zn126 2.031 . S
O129 C133 1.269 . S
O130 Zn127 1.986 . S
O130 C137 1.262 . S
O131 Zn126 2.049 . S
O131 C139 1.260 . S
O132 Zn127 1.996 . S
O132 C139 1.257 . S
C133 O128 1.254 . S
C133 O129 1.269 . S
C134 O135 1.249 . S
C134 O136 1.270 . S
O135 Zn127 1.943 . S
O135 C134 1.249 . S
O136 Zn126 2.067 . S
O136 C134 1.270 . S
C137 O130 1.262 . S
C137 O138 1.232 . S
O138 C137 1.232 . S
C139 O131 1.260 . S
C139 O132 1.257 . S
Zn140 O143 2.031 . S
Zn140 O145 2.049 . S
Zn140 O150 2.067 . S
Zn141 O142 1.962 . S
Zn141 O144 1.986 1_545 S
Zn141 O146 1.996 . S
Zn141 O149 1.943 . S
O142 Zn141 1.962 . S
O142 C147 1.254 . S
O143 Zn140 2.031 . S
O143 C147 1.269 . S
O144 Zn141 1.986 1_565 S
O144 C151 1.262 . S
O145 Zn140 2.049 . S
O145 C153 1.260 . S
O146 Zn141 1.996 . S
O146 C153 1.257 . S
C147 O142 1.254 . S
C147 O143 1.269 . S
C148 O149 1.249 . S
C148 O150 1.270 . S
O149 Zn141 1.943 . S
O149 C148 1.249 . S
O150 Zn140 2.067 . S
O150 C148 1.270 . S
C151 O144 1.262 . S
C151 O152 1.208 1_565 S
O152 C151 1.208 1_545 S
C153 O145 1.260 . S
C153 O146 1.257 . S
Zn154 O157 2.031 1_554 S
Zn154 O159 2.049 . S
Zn154 O164 2.067 . S
Zn155 O156 1.962 . S
Zn155 O158 1.986 1_556 S
Zn155 O160 1.996 1_556 S
Zn155 O163 1.943 1_556 S
O156 Zn155 1.962 . S
O156 C161 1.254 . S
O157 Zn154 2.031 1_556 S
O157 C161 1.269 . S
O158 Zn155 1.986 1_554 S
O158 C165 1.262 1_554 S
O159 Zn154 2.049 . S
O159 C167 1.260 . S
O160 Zn155 1.996 1_554 S
O160 C167 1.257 . S
C161 O156 1.254 . S
C161 O157 1.269 . S
C162 O163 1.249 . S
C162 O164 1.270 . S
O163 Zn155 1.943 1_554 S
O163 C162 1.249 . S
O164 Zn154 2.067 . S
O164 C162 1.270 . S
C165 O158 1.262 1_556 S
C165 O166 1.232 . S
O166 C165 1.232 . S
C167 O159 1.260 . S
C167 O160 1.257 . S
Zn168 O171 2.031 . S
Zn168 O173 2.049 . S
Zn168 O178 2.067 . S
Zn169 O170 1.962 1_554 S
Zn169 O172 1.986 . S
Zn169 O174 1.996 . S
Zn169 O177 1.943 . S
O170 Zn169 1.962 1_556 S
O170 C175 1.254 . S
O171 Zn168 2.031 . S
O171 C175 1.269 1_554 S
O172 Zn169 1.986 . S
O172 C179 1.262 . S
O173 Zn168 2.049 . S
O173 C181 1.260 . S
O174 Zn169 1.996 . S
O174 C181 1.257 . S
C175 O170 1.254 . S
C175 O171 1.269 1_556 S
C176 O177 1.249 . S
C176 O178 1.270 . S
O177 Zn169 1.943 . S
O177 C176 1.249 . S
O178 Zn168 2.067 . S
O178 C176 1.270 . S
C179 O172 1.262 . S
C179 O180 1.232 . S
O180 C179 1.232 . S
C181 O173 1.260 . S
C181 O174 1.257 . S
Zn182 O185 2.031 . S
Zn182 O187 2.049 . S
Zn182 O192 2.067 . S
Zn183 O184 1.962 . S
Zn183 O186 1.986 . S
Zn183 O188 1.996 . S
Zn183 O191 1.943 . S
O184 Zn183 1.962 . S
O184 C189 1.254 . S
O185 Zn182 2.031 . S
O185 C189 1.269 . S
O186 Zn183 1.986 . S
O186 C193 1.262 . S
O187 Zn182 2.049 . S
O187 C195 1.260 . S
O188 Zn183 1.996 . S
O188 C195 1.257 . S
C189 O184 1.254 . S
C189 O185 1.269 . S
C190 O191 1.249 . S
C190 O192 1.270 . S
O191 Zn183 1.943 . S
O191 C190 1.249 . S
O192 Zn182 2.067 . S
O192 C190 1.270 . S
C193 O186 1.262 . S
C193 O194 1.232 . S
O194 C193 1.232 . S
C195 O187 1.260 . S
C195 O188 1.257 . S
Zn196 O199 2.031 . S
Zn196 O201 2.049 . S
Zn196 O206 2.067 . S
Zn197 O198 1.962 . S
Zn197 O200 1.986 . S
Zn197 O202 1.996 . S
Zn197 O205 1.943 . S
O198 Zn197 1.962 . S
O198 C203 1.254 . S
O199 Zn196 2.031 . S
O199 C203 1.269 . S
O200 Zn197 1.986 . S
O200 C207 1.262 . S
O201 Zn196 2.049 . S
O201 C209 1.260 . S
O202 Zn197 1.996 . S
O202 C209 1.257 . S
C203 O198 1.254 . S
C203 O199 1.269 . S
C204 O205 1.249 . S
C204 O206 1.270 . S
O205 Zn197 1.943 . S
O205 C204 1.249 . S
O206 Zn196 2.067 . S
O206 C204 1.270 . S
C207 O200 1.262 . S
C207 O208 1.232 . S
O208 C207 1.232 . S
C209 O201 1.260 . S
C209 O202 1.257 . S
Zn210 O213 2.031 . S
Zn210 O215 2.049 . S
Zn210 O220 2.067 . S
Zn211 O212 1.962 . S
Zn211 O214 1.986 . S
Zn211 O216 1.996 . S
Zn211 O219 1.943 . S
O212 Zn211 1.962 . S
O212 C217 1.254 . S
O213 Zn210 2.031 . S
O213 C217 1.269 . S
O214 Zn211 1.986 . S
O214 C221 1.262 . S
O215 Zn210 2.049 . S
O215 C223 1.260 . S
O216 Zn211 1.996 . S
O216 C223 1.257 . S
C217 O212 1.254 . S
C217 O213 1.269 . S
C218 O219 1.249 . S
C218 O220 1.270 . S
O219 Zn211 1.943 . S
O219 C218 1.249 . S
O220 Zn210 2.067 . S
O220 C218 1.270 . S
C221 O214 1.262 . S
C221 O222 1.232 . S
O222 C221 1.232 . S
C223 O215 1.260 . S
C223 O216 1.257 . S
Zn224 O227 2.031 . S
Zn224 O229 2.049 . S
Zn224 O234 2.067 . S
Zn225 O226 1.962 . S
Zn225 O228 1.986 . S
Zn225 O230 1.996 . S
Zn225 O233 1.943 1_545 S
O226 Zn225 1.962 . S
O226 C231 1.254 . S
O227 Zn224 2.031 . S
O227 C231 1.269 1_565 S
O228 Zn225 1.986 . S
O228 C235 1.262 . S
O229 Zn224 2.049 . S
O229 C237 1.260 1_565 S
O230 Zn225 1.996 . S
O230 C237 1.257 . S
C231 O226 1.254 . S
C231 O227 1.269 1_545 S
C232 O233 1.249 . S
C232 O234 1.270 . S
O233 Zn225 1.943 1_565 S
O233 C232 1.249 . S
O234 Zn224 2.067 . S
O234 C232 1.270 . S
C235 O228 1.262 . S
C235 O236 1.232 . S
O236 C235 1.232 . S
C237 O229 1.260 1_545 S
C237 O230 1.257 . S
Zn238 O241 2.031 . S
Zn238 O243 2.049 . S
Zn238 O248 2.067 . S
Zn239 O240 1.962 . S
Zn239 O242 1.986 . S
Zn239 O244 1.996 . S
Zn239 O247 1.943 . S
O240 Zn239 1.962 . S
O240 C245 1.254 . S
O241 Zn238 2.031 . S
O241 C245 1.269 . S
O242 Zn239 1.986 . S
O242 C249 1.262 . S
O243 Zn238 2.049 . S
O243 C251 1.260 . S
O244 Zn239 1.996 . S
O244 C251 1.257 . S
C245 O240 1.254 . S
C245 O241 1.269 . S
C246 O247 1.249 . S
C246 O248 1.270 . S
O247 Zn239 1.943 . S
O247 C246 1.249 . S
O248 Zn238 2.067 . S
O248 C246 1.270 . S
C249 O242 1.262 . S
C249 O250 1.232 . S
O250 C249 1.232 . S
C251 O243 1.260 . S
C251 O244 1.257 . S
Zn252 O255 2.031 . S
Zn252 O257 2.049 . S
Zn252 O262 2.067 . S
Zn253 O254 1.962 . S
Zn253 O256 1.986 . S
Zn253 O258 1.996 . S
Zn253 O261 1.943 . S
O254 Zn253 1.962 . S
O254 C259 1.254 . S
O255 Zn252 2.031 . S
O255 C259 1.269 . S
O256 Zn253 1.986 . S
O256 C263 1.262 . S
O257 Zn252 2.049 . S
O257 C265 1.260 . S
O258 Zn253 1.996 . S
O258 C265 1.257 . S
C259 O254 1.254 . S
C259 O255 1.269 . S
C260 O261 1.249 . S
C260 O262 1.270 . S
O261 Zn253 1.943 . S
O261 C260 1.249 . S
O262 Zn252 2.067 . S
O262 C260 1.270 . S
C263 O256 1.262 . S
C263 O264 1.232 . S
O264 C263 1.232 . S
C265 O257 1.260 . S
C265 O258 1.257 . S
Zn266 O269 2.031 . S
Zn266 O271 2.049 . S
Zn266 O276 2.067 . S
Zn267 O268 1.961 . S
Zn267 O270 1.986 1_545 S
Zn267 O272 1.996 . S
Zn267 O275 1.943 . S
O268 Zn267 1.961 . S
O268 C273 1.248 . S
O269 Zn266 2.031 . S
O269 C273 1.269 . S
O270 Zn267 1.986 1_565 S
O270 C277 1.262 . S
O271 Zn266 2.049 . S
O271 C279 1.260 . S
O272 Zn267 1.996 . S
O272 C279 1.257 . S
C273 O268 1.248 . S
C273 O269 1.269 . S
C274 O275 1.249 . S
C274 O276 1.270 . S
O275 Zn267 1.943 . S
O275 C274 1.249 . S
O276 Zn266 2.067 . S
O276 C274 1.270 . S
C277 O270 1.262 . S
C277 O278 1.232 . S
O278 C277 1.232 . S
C279 O271 1.260 . S
C279 O272 1.257 . S
Zn280 O283 2.015 1_554 S
Zn280 O285 2.049 . S
Zn280 O290 2.067 . S
Zn281 O282 1.962 . S
Zn281 O284 1.986 . S
Zn281 O286 1.996 . S
Zn281 O289 1.943 . S
O282 Zn281 1.962 . S
O282 C287 1.254 1_554 S
O283 Zn280 2.015 1_556 S
O283 C287 1.278 . S
O284 Zn281 1.986 . S
O284 C291 1.262 . S
O285 Zn280 2.049 . S
O285 C293 1.260 . S
O286 Zn281 1.996 . S
O286 C293 1.257 . S
C287 O282 1.254 1_556 S
C287 O283 1.278 . S
C288 O289 1.249 . S
C288 O290 1.270 . S
O289 Zn281 1.943 . S
O289 C288 1.249 . S
O290 Zn280 2.067 . S
O290 C288 1.270 . S
C291 O284 1.262 . S
C291 O292 1.232 . S
O292 C291 1.232 . S
C293 O285 1.260 . S
C293 O286 1.257 . S
Zn294 O297 2.031 . S
Zn294 O299 2.049 . S
Zn294 O304 2.067 . S
Zn295 O296 1.962 . S
Zn295 O298 1.986 . S
Zn295 O300 1.996 . S
Zn295 O303 1.943 . S
O296 Zn295 1.962 . S
O296 C301 1.254 . S
O297 Zn294 2.031 . S
O297 C301 1.269 . S
O298 Zn295 1.986 . S
O298 C305 1.262 . S
O299 Zn294 2.049 . S
O299 C307 1.260 . S
O300 Zn295 1.996 . S
O300 C307 1.257 . S
C301 O296 1.254 . S
C301 O297 1.269 . S
C302 O303 1.249 . S
C302 O304 1.270 . S
O303 Zn295 1.943 . S
O303 C302 1.249 . S
O304 Zn294 2.067 . S
O304 C302 1.270 . S
C305 O298 1.262 . S
C305 O306 1.232 . S
O306 C305 1.232 . S
C307 O299 1.260 . S
C307 O300 1.257 . S
Zn308 O311 2.031 . S
Zn308 O313 2.049 . S
Zn308 O318 2.067 . S
Zn309 O310 1.962 . S
Zn309 O312 1.986 . S
Zn309 O314 1.996 . S
Zn309 O317 1.943 . S
O310 Zn309 1.962 . S
O310 C315 1.254 . S
O311 Zn308 2.031 . S
O311 C315 1.269 . S
O312 Zn309 1.986 . S
O312 C319 1.262 . S
O313 Zn308 2.049 . S
O313 C321 1.260 . S
O314 Zn309 1.996 . S
O314 C321 1.257 . S
C315 O310 1.254 . S
C315 O311 1.269 . S
C316 O317 1.249 . S
C316 O318 1.270 . S
O317 Zn309 1.943 . S
O317 C316 1.249 . S
O318 Zn308 2.067 . S
O318 C316 1.270 . S
C319 O312 1.262 . S
C319 O320 1.232 . S
O320 C319 1.232 . S
C321 O313 1.260 . S
C321 O314 1.257 . S
Zn322 O325 2.031 . S
Zn322 O327 2.049 . S
Zn322 O332 2.067 . S
Zn323 O324 1.962 . S
Zn323 O326 1.986 . S
Zn323 O328 1.996 . S
Zn323 O331 1.943 . S
O324 Zn323 1.962 . S
O324 C329 1.254 . S
O325 Zn322 2.031 . S
O325 C329 1.269 . S
O326 Zn323 1.986 . S
O326 C333 1.262 . S
O327 Zn322 2.049 . S
O327 C335 1.260 . S
O328 Zn323 1.996 . S
O328 C335 1.257 . S
C329 O324 1.254 . S
C329 O325 1.269 . S
C330 O331 1.249 . S
C330 O332 1.270 . S
O331 Zn323 1.943 . S
O331 C330 1.249 . S
O332 Zn322 2.067 . S
O332 C330 1.270 . S
C333 O326 1.262 . S
C333 O334 1.232 . S
O334 C333 1.232 . S
C335 O327 1.260 . S
C335 O328 1.257 . S
Tb336 C338 2.809 1_455 S
Tb336 O356 2.484 1_455 S
Tb336 O357 2.440 1_454 S
Tb336 O358 2.658 . S
Tb336 O359 2.409 1_554 S
Tb336 O360 2.378 . S
Tb336 O364 2.325 . S
Tb336 O367 2.341 1_545 S
Tb337 C347 2.809 . S
Tb337 O358 2.325 . S
Tb337 O361 2.341 . S
Tb337 O362 2.484 . S
Tb337 O363 2.440 . S
Tb337 O364 2.658 . S
Tb337 O365 2.409 . S
Tb337 O366 2.378 1_545 S
C338 Tb336 2.809 1_655 S
C338 C339 1.514 . S
C338 O356 1.248 . S
C338 O357 1.266 1_554 S
C339 C338 1.514 . S
C339 C340 1.359 . S
C339 C344 1.348 1_554 S
C340 C339 1.359 . S
C340 C341 1.380 . S
C340 H368 0.929 . S
C341 C340 1.380 . S
C341 C342 1.347 . S
C341 H369 0.931 . S
C342 C341 1.347 . S
C342 C343 1.369 1_554 S
C343 C342 1.369 1_556 S
C343 C344 1.408 . S
C343 H370 0.930 . S
C344 C339 1.348 1_556 S
C344 C343 1.408 . S
C344 H371 0.930 . S
C345 O358 1.281 1_556 S
C345 O359 1.254 . S
C346 O360 1.236 . S
C346 O361 1.266 . S
C347 Tb337 2.809 . S
C347 C348 1.514 1_545 S
C347 O362 1.248 . S
C347 O363 1.266 . S
C348 C347 1.514 1_565 S
C348 C349 1.359 . S
C348 C353 1.348 . S
C349 C348 1.359 . S
C349 C350 1.380 . S
C349 H372 0.929 . S
C350 C349 1.380 . S
C350 C351 1.347 . S
C350 H373 0.931 . S
C351 C350 1.347 . S
C351 C352 1.369 . S
C352 C351 1.369 . S
C352 C353 1.408 . S
C352 H374 0.930 . S
C353 C348 1.348 . S
C353 C352 1.408 . S
C353 H375 0.930 . S
C354 O364 1.281 . S
C354 O365 1.254 . S
C355 O366 1.236 . S
C355 O367 1.266 . S
O356 Tb336 2.484 1_655 S
O356 C338 1.248 . S
O357 Tb336 2.440 1_656 S
O357 C338 1.266 1_556 S
O358 Tb336 2.658 . S
O358 Tb337 2.325 . S
O358 C345 1.281 1_554 S
O359 Tb336 2.409 1_556 S
O359 C345 1.254 . S
O360 Tb336 2.378 . S
O360 C346 1.236 . S
O361 Tb337 2.341 . S
O361 C346 1.266 . S
O362 Tb337 2.484 . S
O362 C347 1.248 . S
O363 Tb337 2.440 . S
O363 C347 1.266 . S
O364 Tb336 2.325 . S
O364 Tb337 2.658 . S
O364 C354 1.281 . S
O365 Tb337 2.409 . S
O365 C354 1.254 . S
O366 Tb337 2.378 1_565 S
O366 C355 1.236 . S
O367 Tb336 2.341 1_565 S
O367 C355 1.266 . S
H368 C340 0.929 . S
H369 C341 0.931 . S
H370 C343 0.930 . S
H371 C344 0.930 . S
H372 C349 0.929 . S
H373 C350 0.931 . S
H374 C352 0.930 . S
H375 C353 0.930 . S
Tb376 C378 2.809 . S
Tb376 O396 2.484 . S
Tb376 O397 2.440 . S
Tb376 O398 2.658 . S
Tb376 O399 2.409 . S
Tb376 O400 2.378 . S
Tb376 O404 2.325 . S
Tb376 O407 2.341 . S
Tb377 C387 2.809 . S
Tb377 O398 2.325 . S
Tb377 O401 2.341 . S
Tb377 O402 2.484 . S
Tb377 O403 2.440 . S
Tb377 O404 2.658 . S
Tb377 O405 2.409 . S
Tb377 O406 2.378 . S
C378 Tb376 2.809 . S
C378 C379 1.514 . S
C378 O396 1.248 . S
C378 O397 1.266 . S
C379 C378 1.514 . S
C379 C380 1.359 . S
C379 C384 1.348 . S
C380 C379 1.359 . S
C380 C381 1.380 . S
C380 H408 0.929 . S
C381 C380 1.380 . S
C381 C382 1.347 . S
C381 H409 0.931 . S
C382 C381 1.347 . S
C382 C383 1.369 . S
C383 C382 1.369 . S
C383 C384 1.408 . S
C383 H410 0.930 . S
C384 C379 1.348 . S
C384 C383 1.408 . S
C384 H411 0.930 . S
C385 O398 1.281 . S
C385 O399 1.254 . S
C386 O400 1.236 . S
C386 O401 1.266 . S
C387 Tb377 2.809 . S
C387 C388 1.514 . S
C387 O402 1.248 . S
C387 O403 1.266 . S
C388 C387 1.514 . S
C388 C389 1.359 . S
C388 C393 1.348 . S
C389 C388 1.359 . S
C389 C390 1.380 . S
C389 H412 0.929 . S
C390 C389 1.380 . S
C390 C391 1.347 . S
C390 H413 0.931 . S
C391 C390 1.347 . S
C391 C392 1.369 . S
C392 C391 1.369 . S
C392 C393 1.408 . S
C392 H414 0.930 . S
C393 C388 1.348 . S
C393 C392 1.408 . S
C393 H415 0.930 . S
C394 O404 1.281 . S
C394 O405 1.254 . S
C395 O406 1.236 . S
C395 O407 1.266 . S
O396 Tb376 2.484 . S
O396 C378 1.248 . S
O397 Tb376 2.440 . S
O397 C378 1.266 . S
O398 Tb376 2.658 . S
O398 Tb377 2.325 . S
O398 C385 1.281 . S
O399 Tb376 2.409 . S
O399 C385 1.254 . S
O400 Tb376 2.378 . S
O400 C386 1.236 . S
O401 Tb377 2.341 . S
O401 C386 1.266 . S
O402 Tb377 2.484 . S
O402 C387 1.248 . S
O403 Tb377 2.440 . S
O403 C387 1.266 . S
O404 Tb376 2.325 . S
O404 Tb377 2.658 . S
O404 C394 1.281 . S
O405 Tb377 2.409 . S
O405 C394 1.254 . S
O406 Tb377 2.378 . S
O406 C395 1.236 . S
O407 Tb376 2.341 . S
O407 C395 1.266 . S
H408 C380 0.929 . S
H409 C381 0.931 . S
H410 C383 0.930 . S
H411 C384 0.930 . S
H412 C389 0.929 . S
H413 C390 0.931 . S
H414 C392 0.930 . S
H415 C393 0.930 . S
Tb416 C418 2.809 1_545 S
Tb416 O436 2.484 1_545 S
Tb416 O437 2.440 . S
Tb416 O438 2.658 . S
Tb416 O439 2.409 . S
Tb416 O440 2.378 1_545 S
Tb416 O444 2.325 . S
Tb416 O447 2.341 . S
Tb417 C427 2.809 . S
Tb417 O438 2.325 . S
Tb417 O441 2.341 1_545 S
Tb417 O442 2.484 . S
Tb417 O443 2.440 . S
Tb417 O444 2.658 . S
Tb417 O445 2.409 . S
Tb417 O446 2.378 . S
C418 Tb416 2.809 1_565 S
C418 C419 1.514 . S
C418 O436 1.248 . S
C418 O437 1.266 1_565 S
C419 C418 1.514 . S
C419 C420 1.359 . S
C419 C424 1.348 . S
C420 C419 1.359 . S
C420 C421 1.380 . S
C420 H448 0.929 . S
C421 C420 1.380 . S
C421 C422 1.347 . S
C421 H449 0.931 . S
C422 C421 1.347 . S
C422 C423 1.369 . S
C423 C422 1.369 . S
C423 C424 1.408 . S
C423 H450 0.930 . S
C424 C419 1.348 . S
C424 C423 1.408 . S
C424 H451 0.930 . S
C425 O438 1.281 . S
C425 O439 1.254 . S
C426 O440 1.236 . S
C426 O441 1.266 . S
C427 Tb417 2.809 . S
C427 C428 1.514 . S
C427 O442 1.248 . S
C427 O443 1.266 . S
C428 C427 1.514 . S
C428 C429 1.359 . S
C428 C433 1.348 . S
C429 C428 1.359 . S
C429 C430 1.380 . S
C429 H452 0.929 . S
C430 C429 1.380 . S
C430 C431 1.347 . S
C430 H453 0.931 . S
C431 C430 1.347 . S
C431 C432 1.369 . S
C432 C431 1.369 . S
C432 C433 1.408 . S
C432 H454 0.930 . S
C433 C428 1.348 . S
C433 C432 1.408 . S
C433 H455 0.930 . S
C434 O444 1.281 . S
C434 O445 1.254 . S
C435 O446 1.236 . S
C435 O447 1.266 . S
O436 Tb416 2.484 1_565 S
O436 C418 1.248 . S
O437 Tb416 2.440 . S
O437 C418 1.266 1_545 S
O438 Tb416 2.658 . S
O438 Tb417 2.325 . S
O438 C425 1.281 . S
O439 Tb416 2.409 . S
O439 C425 1.254 . S
O440 Tb416 2.378 1_565 S
O440 C426 1.236 . S
O441 Tb417 2.341 1_565 S
O441 C426 1.266 . S
O442 Tb417 2.484 . S
O442 C427 1.248 . S
O443 Tb417 2.440 . S
O443 C427 1.266 . S
O444 Tb416 2.325 . S
O444 Tb417 2.658 . S
O444 C434 1.281 . S
O445 Tb417 2.409 . S
O445 C434 1.254 . S
O446 Tb417 2.378 . S
O446 C435 1.236 . S
O447 Tb416 2.341 . S
O447 C435 1.266 . S
H448 C420 0.929 . S
H449 C421 0.931 . S
H450 C423 0.930 . S
H451 C424 0.930 . S
H452 C429 0.929 . S
H453 C430 0.931 . S
H454 C432 0.930 . S
H455 C433 0.930 . S
Tb456 C458 2.809 . S
Tb456 O476 2.484 . S
Tb456 O477 2.440 . S
Tb456 O478 2.658 . S
Tb456 O479 2.409 . S
Tb456 O480 2.378 . S
Tb456 O484 2.325 . S
Tb456 O487 2.341 . S
Tb457 C467 2.809 . S
Tb457 O478 2.325 . S
Tb457 O481 2.341 . S
Tb457 O482 2.484 . S
Tb457 O483 2.440 . S
Tb457 O484 2.658 . S
Tb457 O485 2.409 . S
Tb457 O486 2.378 . S
C458 Tb456 2.809 . S
C458 C459 1.514 . S
C458 O476 1.248 . S
C458 O477 1.266 . S
C459 C458 1.514 . S
C459 C460 1.359 . S
C459 C464 1.348 . S
C460 C459 1.359 . S
C460 C461 1.380 . S
C460 H488 0.929 . S
C461 C460 1.380 . S
C461 C462 1.347 . S
C461 H489 0.931 . S
C462 C461 1.347 . S
C462 C463 1.369 . S
C463 C462 1.369 . S
C463 C464 1.408 . S
C463 H490 0.930 . S
C464 C459 1.348 . S
C464 C463 1.408 . S
C464 H491 0.930 . S
C465 O478 1.281 . S
C465 O479 1.254 . S
C466 O480 1.236 . S
C466 O481 1.266 . S
C467 Tb457 2.809 . S
C467 C468 1.514 . S
C467 O482 1.248 . S
C467 O483 1.266 . S
C468 C467 1.514 . S
C468 C469 1.359 . S
C468 C473 1.348 . S
C469 C468 1.359 . S
C469 C470 1.380 . S
C469 H492 0.929 . S
C470 C469 1.380 . S
C470 C471 1.347 . S
C470 H493 0.931 . S
C471 C470 1.347 . S
C471 C472 1.369 . S
C472 C471 1.369 . S
C472 C473 1.408 . S
C472 H494 0.930 . S
C473 C468 1.348 . S
C473 C472 1.408 . S
C473 H495 0.930 . S
C474 O484 1.281 . S
C474 O485 1.254 . S
C475 O486 1.236 . S
C475 O487 1.266 . S
O476 Tb456 2.484 . S
O476 C458 1.248 . S
O477 Tb456 2.440 . S
O477 C458 1.266 . S
O478 Tb456 2.658 . S
O478 Tb457 2.325 . S
O478 C465 1.281 . S
O479 Tb456 2.409 . S
O479 C465 1.254 . S
O480 Tb456 2.378 . S
O480 C466 1.236 . S
O481 Tb457 2.341 . S
O481 C466 1.266 . S
O482 Tb457 2.484 . S
O482 C467 1.248 . S
O483 Tb457 2.440 . S
O483 C467 1.266 . S
O484 Tb456 2.325 . S
O484 Tb457 2.658 . S
O484 C474 1.281 . S
O485 Tb457 2.409 . S
O485 C474 1.254 . S
O486 Tb457 2.378 . S
O486 C475 1.236 . S
O487 Tb456 2.341 . S
O487 C475 1.266 . S
H488 C460 0.929 . S
H489 C461 0.931 . S
H490 C463 0.930 . S
H491 C464 0.930 . S
H492 C469 0.929 . S
H493 C470 0.931 . S
H494 C472 0.930 . S
H495 C473 0.930 . S
Tb496 C498 2.809 . S
Tb496 O516 2.484 . S
Tb496 O517 2.440 . S
Tb496 O518 2.658 . S
Tb496 O519 2.409 1_455 S
Tb496 O520 2.378 . S
Tb496 O524 2.325 . S
Tb496 O527 2.341 . S
Tb497 C507 2.809 . S
Tb497 O518 2.325 1_565 S
Tb497 O521 2.341 1_565 S
Tb497 O522 2.484 . S
Tb497 O523 2.440 . S
Tb497 O524 2.658 1_565 S
Tb497 O525 2.409 1_565 S
Tb497 O526 2.378 1_565 S
C498 Tb496 2.809 . S
C498 C499 1.514 . S
C498 O516 1.248 . S
C498 O517 1.266 . S
C499 C498 1.514 . S
C499 C500 1.359 . S
C499 C504 1.348 1_455 S
C500 C499 1.359 . S
C500 C501 1.380 . S
C500 H528 0.929 . S
C501 C500 1.380 . S
C501 C502 1.347 . S
C501 H529 0.931 . S
C502 C501 1.347 . S
C502 C503 1.369 1_455 S
C503 C502 1.369 1_655 S
C503 C504 1.408 . S
C503 H530 0.930 . S
C504 C499 1.348 1_655 S
C504 C503 1.408 . S
C504 H531 0.930 . S
C505 O518 1.281 1_655 S
C505 O519 1.254 . S
C506 O520 1.236 . S
C506 O521 1.267 . S
C507 Tb497 2.809 . S
C507 C508 1.514 . S
C507 O522 1.248 . S
C507 O523 1.266 . S
C508 C507 1.514 . S
C508 C509 1.359 . S
C508 C513 1.348 . S
C509 C508 1.359 . S
C509 C510 1.380 . S
C509 H532 0.929 . S
C510 C509 1.380 . S
C510 C511 1.347 . S
C510 H533 0.931 . S
C511 C510 1.347 . S
C511 C512 1.369 . S
C512 C511 1.369 . S
C512 C513 1.408 . S
C512 H534 0.930 . S
C513 C508 1.348 . S
C513 C512 1.408 . S
C513 H535 0.930 . S
C514 O524 1.281 . S
C514 O525 1.254 . S
C515 O526 1.236 . S
C515 O527 1.266 . S
O516 Tb496 2.484 . S
O516 C498 1.248 . S
O517 Tb496 2.440 . S
O517 C498 1.266 . S
O518 Tb496 2.658 . S
O518 Tb497 2.325 1_545 S
O518 C505 1.281 1_455 S
O519 Tb496 2.409 1_655 S
O519 C505 1.254 . S
O520 Tb496 2.378 . S
O520 C506 1.236 . S
O521 Tb497 2.341 1_545 S
O521 C506 1.267 . S
O522 Tb497 2.484 . S
O522 C507 1.248 . S
O523 Tb497 2.440 . S
O523 C507 1.266 . S
O524 Tb496 2.325 . S
O524 Tb497 2.658 1_545 S
O524 C514 1.281 . S
O525 Tb497 2.409 1_545 S
O525 C514 1.254 . S
O526 Tb497 2.378 1_545 S
O526 C515 1.236 . S
O527 Tb496 2.341 . S
O527 C515 1.266 . S
H528 C500 0.929 . S
H529 C501 0.931 . S
H530 C503 0.930 . S
H531 C504 0.930 . S
H532 C509 0.929 . S
H533 C510 0.931 . S
H534 C512 0.930 . S
H535 C513 0.930 . S
Tb536 C538 2.809 . S
Tb536 O556 2.484 . S
Tb536 O557 2.440 . S
Tb536 O558 2.658 . S
Tb536 O559 2.409 . S
Tb536 O560 2.378 . S
Tb536 O564 2.325 . S
Tb536 O567 2.341 . S
Tb537 C547 2.809 . S
Tb537 O558 2.325 . S
Tb537 O561 2.341 . S
Tb537 O562 2.484 . S
Tb537 O563 2.440 . S
Tb537 O564 2.658 . S
Tb537 O565 2.409 . S
Tb537 O566 2.378 . S
C538 Tb536 2.809 . S
C538 C539 1.514 . S
C538 O556 1.248 . S
C538 O557 1.266 . S
C539 C538 1.514 . S
C539 C540 1.359 . S
C539 C544 1.348 . S
C540 C539 1.359 . S
C540 C541 1.380 . S
C540 H568 0.929 . S
C541 C540 1.380 . S
C541 C542 1.347 . S
C541 H569 0.931 . S
C542 C541 1.347 . S
C542 C543 1.369 . S
C543 C542 1.369 . S
C543 C544 1.408 . S
C543 H570 0.930 . S
C544 C539 1.348 . S
C544 C543 1.408 . S
C544 H571 0.930 . S
C545 O558 1.281 . S
C545 O559 1.254 . S
C546 O560 1.236 . S
C546 O561 1.266 . S
C547 Tb537 2.809 . S
C547 C548 1.514 . S
C547 O562 1.248 . S
C547 O563 1.266 . S
C548 C547 1.514 . S
C548 C549 1.359 . S
C548 C553 1.348 . S
C549 C548 1.359 . S
C549 C550 1.380 . S
C549 H572 0.929 . S
C550 C549 1.380 . S
C550 C551 1.347 . S
C550 H573 0.931 . S
C551 C550 1.347 . S
C551 C552 1.369 . S
C552 C551 1.369 . S
C552 C553 1.408 . S
C552 H574 0.930 . S
C553 C548 1.348 . S
C553 C552 1.408 . S
C553 H575 0.930 . S
C554 O564 1.281 . S
C554 O565 1.254 . S
C555 O566 1.236 . S
C555 O567 1.266 . S
O556 Tb536 2.484 . S
O556 C538 1.248 . S
O557 Tb536 2.440 . S
O557 C538 1.266 . S
O558 Tb536 2.658 . S
O558 Tb537 2.325 . S
O558 C545 1.281 . S
O559 Tb536 2.409 . S
O559 C545 1.254 . S
O560 Tb536 2.378 . S
O560 C546 1.236 . S
O561 Tb537 2.341 . S
O561 C546 1.266 . S
O562 Tb537 2.484 . S
O562 C547 1.248 . S
O563 Tb537 2.440 . S
O563 C547 1.266 . S
O564 Tb536 2.325 . S
O564 Tb537 2.658 . S
O564 C554 1.281 . S
O565 Tb537 2.409 . S
O565 C554 1.254 . S
O566 Tb537 2.378 . S
O566 C555 1.236 . S
O567 Tb536 2.341 . S
O567 C555 1.266 . S
H568 C540 0.929 . S
H569 C541 0.931 . S
H570 C543 0.930 . S
H571 C544 0.930 . S
H572 C549 0.929 . S
H573 C550 0.931 . S
H574 C552 0.930 . S
H575 C553 0.930 . S
Tb576 C578 2.824 . S
Tb576 O596 2.500 1_545 S
Tb576 O597 2.452 . S
Tb576 O598 2.679 . S
Tb576 O599 2.425 . S
Tb576 O600 2.430 . S
Tb576 O604 2.340 . S
Tb576 O607 2.307 1_554 S
Tb577 C587 2.809 . S
Tb577 O598 2.325 . S
Tb577 O601 2.341 . S
Tb577 O602 2.484 . S
Tb577 O603 2.440 . S
Tb577 O604 2.658 . S
Tb577 O605 2.409 1_545 S
Tb577 O606 2.383 . S
C578 Tb576 2.824 . S
C578 C579 1.514 1_545 S
C578 O596 1.248 1_545 S
C578 O597 1.266 . S
C579 C578 1.514 1_565 S
C579 C580 1.359 . S
C579 C584 1.348 1_565 S
C580 C579 1.359 . S
C580 C581 1.380 . S
C580 H608 0.929 . S
C581 C580 1.380 . S
C581 C582 1.347 . S
C581 H609 0.931 . S
C582 C581 1.347 . S
C582 C583 1.326 1_565 S
C583 C582 1.326 1_545 S
C583 C584 1.417 . S
C583 H610 0.965 . S
C584 C579 1.348 1_545 S
C584 C583 1.417 . S
C584 H611 0.930 . S
C585 O598 1.281 . S
C585 O599 1.254 . S
C586 O600 1.236 . S
C586 O601 1.266 . S
C587 Tb577 2.809 . S
C587 C588 1.514 . S
C587 O602 1.248 . S
C587 O603 1.266 . S
C588 C587 1.514 . S
C588 C589 1.359 . S
C588 C593 1.348 . S
C589 C588 1.359 . S
C589 C590 1.380 . S
C589 H612 0.929 . S
C590 C589 1.380 . S
C590 C591 1.347 . S
C590 H613 0.931 . S
C591 C590 1.347 . S
C591 C592 1.369 . S
C592 C591 1.369 . S
C592 C593 1.408 . S
C592 H614 0.930 . S
C593 C588 1.348 . S
C593 C592 1.408 . S
C593 H615 0.930 . S
C594 O604 1.281 1_565 S
C594 O605 1.254 . S
C595 O606 1.233 1_556 S
C595 O607 1.266 . S
O596 Tb576 2.500 1_565 S
O596 C578 1.248 1_565 S
O597 Tb576 2.452 . S
O597 C578 1.266 . S
O598 Tb576 2.679 . S
O598 Tb577 2.325 . S
O598 C585 1.281 . S
O599 Tb576 2.425 . S
O599 C585 1.254 . S
O600 Tb576 2.430 . S
O600 C586 1.236 . S
O601 Tb577 2.341 . S
O601 C586 1.266 . S
O602 Tb577 2.484 . S
O602 C587 1.248 . S
O603 Tb577 2.440 . S
O603 C587 1.266 . S
O604 Tb576 2.340 . S
O604 Tb577 2.658 . S
O604 C594 1.281 1_545 S
O605 Tb577 2.409 1_565 S
O605 C594 1.254 . S
O606 Tb577 2.383 . S
O606 C595 1.233 1_554 S
O607 Tb576 2.307 1_556 S
O607 C595 1.266 . S
H608 C580 0.929 . S
H609 C581 0.931 . S
H610 C583 0.965 . S
H611 C584 0.930 . S
H612 C589 0.929 . S
H613 C590 0.931 . S
H614 C592 0.930 . S
H615 C593 0.930 . S
Tb616 C618 2.809 . S
Tb616 O636 2.484 . S
Tb616 O637 2.440 . S
Tb616 O638 2.658 . S
Tb616 O639 2.409 . S
Tb616 O640 2.378 . S
Tb616 O644 2.325 . S
Tb616 O647 2.341 . S
Tb617 C627 2.809 . S
Tb617 O638 2.325 . S
Tb617 O641 2.341 . S
Tb617 O642 2.484 . S
Tb617 O643 2.440 . S
Tb617 O644 2.658 . S
Tb617 O645 2.409 . S
Tb617 O646 2.378 . S
C618 Tb616 2.809 . S
C618 C619 1.514 . S
C618 O636 1.248 . S
C618 O637 1.266 . S
C619 C618 1.514 . S
C619 C620 1.359 . S
C619 C624 1.348 . S
C620 C619 1.359 . S
C620 C621 1.380 . S
C620 H648 0.929 . S
C621 C620 1.380 . S
C621 C622 1.347 . S
C621 H649 0.931 . S
C622 C621 1.347 . S
C622 C623 1.369 . S
C623 C622 1.369 . S
C623 C624 1.408 . S
C623 H650 0.930 . S
C624 C619 1.348 . S
C624 C623 1.408 . S
C624 H651 0.930 . S
C625 O638 1.281 . S
C625 O639 1.254 . S
C626 O640 1.236 . S
C626 O641 1.266 . S
C627 Tb617 2.809 . S
C627 C628 1.514 . S
C627 O642 1.248 . S
C627 O643 1.266 . S
C628 C627 1.514 . S
C628 C629 1.359 . S
C628 C633 1.348 . S
C629 C628 1.359 . S
C629 C630 1.380 . S
C629 H652 0.929 . S
C630 C629 1.380 . S
C630 C631 1.347 . S
C630 H653 0.931 . S
C631 C630 1.347 . S
C631 C632 1.369 . S
C632 C631 1.369 . S
C632 C633 1.408 . S
C632 H654 0.930 . S
C633 C628 1.348 . S
C633 C632 1.408 . S
C633 H655 0.930 . S
C634 O644 1.281 . S
C634 O645 1.254 . S
C635 O646 1.236 . S
C635 O647 1.266 . S
O636 Tb616 2.484 . S
O636 C618 1.248 . S
O637 Tb616 2.440 . S
O637 C618 1.266 . S
O638 Tb616 2.658 . S
O638 Tb617 2.325 . S
O638 C625 1.281 . S
O639 Tb616 2.409 . S
O639 C625 1.254 . S
O640 Tb616 2.378 . S
O640 C626 1.236 . S
O641 Tb617 2.341 . S
O641 C626 1.266 . S
O642 Tb617 2.484 . S
O642 C627 1.248 . S
O643 Tb617 2.440 . S
O643 C627 1.266 . S
O644 Tb616 2.325 . S
O644 Tb617 2.658 . S
O644 C634 1.281 . S
O645 Tb617 2.409 . S
O645 C634 1.254 . S
O646 Tb617 2.378 . S
O646 C635 1.236 . S
O647 Tb616 2.341 . S
O647 C635 1.266 . S
H648 C620 0.929 . S
H649 C621 0.931 . S
H650 C623 0.930 . S
H651 C624 0.930 . S
H652 C629 0.929 . S
H653 C630 0.931 . S
H654 C632 0.930 . S
H655 C633 0.930 . S
Tb656 C658 2.809 . S
Tb656 O676 2.484 . S
Tb656 O677 2.440 . S
Tb656 O678 2.658 . S
Tb656 O679 2.409 . S
Tb656 O680 2.378 1_554 S
Tb656 O684 2.325 . S
Tb656 O687 2.341 . S
Tb657 C667 2.809 . S
Tb657 O678 2.325 . S
Tb657 O681 2.341 1_554 S
Tb657 O682 2.484 . S
Tb657 O683 2.440 . S
Tb657 O684 2.658 . S
Tb657 O685 2.409 . S
Tb657 O686 2.378 . S
C658 Tb656 2.809 . S
C658 C659 1.514 1_554 S
C658 O676 1.248 . S
C658 O677 1.266 . S
C659 C658 1.514 1_556 S
C659 C660 1.359 . S
C659 C664 1.348 . S
C660 C659 1.359 . S
C660 C661 1.380 . S
C660 H688 0.929 . S
C661 C660 1.380 . S
C661 C662 1.347 . S
C661 H689 0.931 . S
C662 C661 1.347 . S
C662 C663 1.369 . S
C663 C662 1.369 . S
C663 C664 1.408 . S
C663 H690 0.930 . S
C664 C659 1.348 . S
C664 C663 1.408 . S
C664 H691 0.930 . S
C665 O678 1.281 . S
C665 O679 1.254 . S
C666 O680 1.236 . S
C666 O681 1.266 . S
C667 Tb657 2.809 . S
C667 C668 1.514 . S
C667 O682 1.248 . S
C667 O683 1.266 . S
C668 C667 1.514 . S
C668 C669 1.359 . S
C668 C673 1.348 . S
C669 C668 1.359 . S
C669 C670 1.380 . S
C669 H692 0.929 . S
C670 C669 1.380 . S
C670 C671 1.347 . S
C670 H693 0.931 . S
C671 C670 1.347 . S
C671 C672 1.369 . S
C672 C671 1.369 . S
C672 C673 1.408 . S
C672 H694 0.930 . S
C673 C668 1.348 . S
C673 C672 1.408 . S
C673 H695 0.930 . S
C674 O684 1.281 . S
C674 O685 1.254 . S
C675 O686 1.236 . S
C675 O687 1.266 . S
O676 Tb656 2.484 . S
O676 C658 1.248 . S
O677 Tb656 2.440 . S
O677 C658 1.266 . S
O678 Tb656 2.658 . S
O678 Tb657 2.325 . S
O678 C665 1.281 . S
O679 Tb656 2.409 . S
O679 C665 1.254 . S
O680 Tb656 2.378 1_556 S
O680 C666 1.236 . S
O681 Tb657 2.341 1_556 S
O681 C666 1.266 . S
O682 Tb657 2.484 . S
O682 C667 1.248 . S
O683 Tb657 2.440 . S
O683 C667 1.266 . S
O684 Tb656 2.325 . S
O684 Tb657 2.658 . S
O684 C674 1.281 . S
O685 Tb657 2.409 . S
O685 C674 1.254 . S
O686 Tb657 2.378 . S
O686 C675 1.236 . S
O687 Tb656 2.341 . S
O687 C675 1.266 . S
H688 C660 0.929 . S
H689 C661 0.931 . S
H690 C663 0.930 . S
H691 C664 0.930 . S
H692 C669 0.929 . S
H693 C670 0.931 . S
H694 C672 0.930 . S
H695 C673 0.930 . S
Tb696 C698 2.809 . S
Tb696 O716 2.484 . S
Tb696 O717 2.440 . S
Tb696 O718 2.658 . S
Tb696 O719 2.409 . S
Tb696 O720 2.378 . S
Tb696 O724 2.325 . S
Tb696 O727 2.341 . S
Tb697 C707 2.809 . S
Tb697 O718 2.325 . S
Tb697 O721 2.341 . S
Tb697 O722 2.484 . S
Tb697 O723 2.440 . S
Tb697 O724 2.658 . S
Tb697 O725 2.409 . S
Tb697 O726 2.378 . S
C698 Tb696 2.809 . S
C698 C699 1.514 . S
C698 O716 1.248 . S
C698 O717 1.266 . S
C699 C698 1.514 . S
C699 C700 1.359 . S
C699 C704 1.348 . S
C700 C699 1.359 . S
C700 C701 1.380 . S
C700 H728 0.929 . S
C701 C700 1.380 . S
C701 C702 1.347 . S
C701 H729 0.931 . S
C702 C701 1.347 . S
C702 C703 1.369 . S
C703 C702 1.369 . S
C703 C704 1.408 . S
C703 H730 0.930 . S
C704 C699 1.348 . S
C704 C703 1.408 . S
C704 H731 0.930 . S
C705 O718 1.281 . S
C705 O719 1.254 . S
C706 O720 1.236 . S
C706 O721 1.266 . S
C707 Tb697 2.809 . S
C707 C708 1.514 . S
C707 O722 1.248 . S
C707 O723 1.266 . S
C708 C707 1.514 . S
C708 C709 1.359 . S
C708 C713 1.348 . S
C709 C708 1.359 . S
C709 C710 1.380 . S
C709 H732 0.929 . S
C710 C709 1.380 . S
C710 C711 1.347 . S
C710 H733 0.931 . S
C711 C710 1.347 . S
C711 C712 1.369 . S
C712 C711 1.369 . S
C712 C713 1.408 . S
C712 H734 0.930 . S
C713 C708 1.348 . S
C713 C712 1.408 . S
C713 H735 0.930 . S
C714 O724 1.281 . S
C714 O725 1.254 . S
C715 O726 1.236 . S
C715 O727 1.266 . S
O716 Tb696 2.484 . S
O716 C698 1.248 . S
O717 Tb696 2.440 . S
O717 C698 1.266 . S
O718 Tb696 2.658 . S
O718 Tb697 2.325 . S
O718 C705 1.281 . S
O719 Tb696 2.409 . S
O719 C705 1.254 . S
O720 Tb696 2.378 . S
O720 C706 1.236 . S
O721 Tb697 2.341 . S
O721 C706 1.266 . S
O722 Tb697 2.484 . S
O722 C707 1.248 . S
O723 Tb697 2.440 . S
O723 C707 1.266 . S
O724 Tb696 2.325 . S
O724 Tb697 2.658 . S
O724 C714 1.281 . S
O725 Tb697 2.409 . S
O725 C714 1.254 . S
O726 Tb697 2.378 . S
O726 C715 1.236 . S
O727 Tb696 2.341 . S
O727 C715 1.266 . S
H728 C700 0.929 . S
H729 C701 0.931 . S
H730 C703 0.930 . S
H731 C704 0.930 . S
H732 C709 0.929 . S
H733 C710 0.931 . S
H734 C712 0.930 . S
H735 C713 0.930 . S
Tb736 C738 2.829 . S
Tb736 O756 2.498 . S
Tb736 O757 2.463 . S
Tb736 O758 2.644 1_655 S
Tb736 O759 2.412 1_655 S
Tb736 O760 2.382 . S
Tb736 O764 2.309 1_655 S
Tb736 O767 2.323 1_655 S
Tb737 C747 2.809 . S
Tb737 O758 2.325 . S
Tb737 O761 2.341 . S
Tb737 O762 2.484 . S
Tb737 O763 2.440 . S
Tb737 O764 2.658 . S
Tb737 O765 2.409 . S
Tb737 O766 2.378 . S
C738 Tb736 2.829 . S
C738 C739 1.514 . S
C738 O756 1.248 . S
C738 O757 1.266 . S
C739 C738 1.514 . S
C739 C740 1.359 . S
C739 C744 1.348 . S
C740 C739 1.359 . S
C740 C741 1.380 . S
C740 H768 0.929 . S
C741 C740 1.380 . S
C741 C742 1.347 . S
C741 H769 0.931 . S
C742 C741 1.347 . S
C742 C743 1.369 . S
C743 C742 1.369 . S
C743 C744 1.408 . S
C743 H770 0.930 . S
C744 C739 1.348 . S
C744 C743 1.408 . S
C744 H771 0.930 . S
C745 O758 1.281 . S
C745 O759 1.254 . S
C746 O760 1.236 1_455 S
C746 O761 1.266 . S
C747 Tb737 2.809 . S
C747 C748 1.514 . S
C747 O762 1.248 . S
C747 O763 1.266 . S
C748 C747 1.514 . S
C748 C749 1.359 . S
C748 C753 1.348 . S
C749 C748 1.359 . S
C749 C750 1.380 . S
C749 H772 0.929 . S
C750 C749 1.380 . S
C750 C751 1.347 . S
C750 H773 0.931 . S
C751 C750 1.347 . S
C751 C752 1.369 . S
C752 C751 1.369 . S
C752 C753 1.408 . S
C752 H774 0.930 . S
C753 C748 1.348 . S
C753 C752 1.408 . S
C753 H775 0.930 . S
C754 O764 1.281 . S
C754 O765 1.254 . S
C755 O766 1.236 . S
C755 O767 1.266 . S
O756 Tb736 2.498 . S
O756 C738 1.248 . S
O757 Tb736 2.463 . S
O757 C738 1.266 . S
O758 Tb736 2.644 1_455 S
O758 Tb737 2.325 . S
O758 C745 1.281 . S
O759 Tb736 2.412 1_455 S
O759 C745 1.254 . S
O760 Tb736 2.382 . S
O760 C746 1.236 1_655 S
O761 Tb737 2.341 . S
O761 C746 1.266 . S
O762 Tb737 2.484 . S
O762 C747 1.248 . S
O763 Tb737 2.440 . S
O763 C747 1.266 . S
O764 Tb736 2.309 1_455 S
O764 Tb737 2.658 . S
O764 C754 1.281 . S
O765 Tb737 2.409 . S
O765 C754 1.254 . S
O766 Tb737 2.378 . S
O766 C755 1.236 . S
O767 Tb736 2.323 1_455 S
O767 C755 1.266 . S
H768 C740 0.929 . S
H769 C741 0.931 . S
H770 C743 0.930 . S
H771 C744 0.930 . S
H772 C749 0.929 . S
H773 C750 0.931 . S
H774 C752 0.930 . S
H775 C753 0.930 . S
Tb776 C778 2.809 . S
Tb776 O796 2.484 . S
Tb776 O797 2.440 . S
Tb776 O798 2.658 . S
Tb776 O799 2.409 . S
Tb776 O800 2.378 . S
Tb776 O804 2.325 . S
Tb776 O807 2.341 . S
Tb777 C787 2.809 . S
Tb777 O798 2.325 . S
Tb777 O801 2.341 . S
Tb777 O802 2.484 . S
Tb777 O803 2.440 . S
Tb777 O804 2.658 . S
Tb777 O805 2.409 . S
Tb777 O806 2.378 . S
C778 Tb776 2.809 . S
C778 C779 1.514 . S
C778 O796 1.248 . S
C778 O797 1.266 . S
C779 C778 1.514 . S
C779 C780 1.359 . S
C779 C784 1.348 . S
C780 C779 1.359 . S
C780 C781 1.380 . S
C780 H808 0.929 . S
C781 C780 1.380 . S
C781 C782 1.347 . S
C781 H809 0.931 . S
C782 C781 1.347 . S
C782 C783 1.369 . S
C783 C782 1.369 . S
C783 C784 1.408 . S
C783 H810 0.930 . S
C784 C779 1.348 . S
C784 C783 1.408 . S
C784 H811 0.930 . S
C785 O798 1.281 . S
C785 O799 1.254 . S
C786 O800 1.236 . S
C786 O801 1.266 . S
C787 Tb777 2.809 . S
C787 C788 1.514 . S
C787 O802 1.248 . S
C787 O803 1.266 . S
C788 C787 1.514 . S
C788 C789 1.359 . S
C788 C793 1.348 . S
C789 C788 1.359 . S
C789 C790 1.380 . S
C789 H812 0.929 . S
C790 C789 1.380 . S
C790 C791 1.347 . S
C790 H813 0.931 . S
C791 C790 1.347 . S
C791 C792 1.369 . S
C792 C791 1.369 . S
C792 C793 1.408 . S
C792 H814 0.930 . S
C793 C788 1.348 . S
C793 C792 1.408 . S
C793 H815 0.930 . S
C794 O804 1.281 . S
C794 O805 1.254 . S
C795 O806 1.236 . S
C795 O807 1.266 . S
O796 Tb776 2.484 . S
O796 C778 1.248 . S
O797 Tb776 2.440 . S
O797 C778 1.266 . S
O798 Tb776 2.658 . S
O798 Tb777 2.325 . S
O798 C785 1.281 . S
O799 Tb776 2.409 . S
O799 C785 1.254 . S
O800 Tb776 2.378 . S
O800 C786 1.236 . S
O801 Tb777 2.341 . S
O801 C786 1.266 . S
O802 Tb777 2.484 . S
O802 C787 1.248 . S
O803 Tb777 2.440 . S
O803 C787 1.266 . S
O804 Tb776 2.325 . S
O804 Tb777 2.658 . S
O804 C794 1.281 . S
O805 Tb777 2.409 . S
O805 C794 1.254 . S
O806 Tb777 2.378 . S
O806 C795 1.236 . S
O807 Tb776 2.341 . S
O807 C795 1.266 . S
H808 C780 0.929 . S
H809 C781 0.931 . S
H810 C783 0.930 . S
H811 C784 0.930 . S
H812 C789 0.929 . S
H813 C790 0.931 . S
H814 C792 0.930 . S
H815 C793 0.930 . S
Tb816 C818 2.809 . S
Tb816 O836 2.484 . S
Tb816 O837 2.440 . S
Tb816 O838 2.658 . S
Tb816 O839 2.409 . S
Tb816 O840 2.378 . S
Tb816 O844 2.325 . S
Tb816 O847 2.341 . S
Tb817 C827 2.809 . S
Tb817 O838 2.325 . S
Tb817 O841 2.341 . S
Tb817 O842 2.484 . S
Tb817 O843 2.440 . S
Tb817 O844 2.658 . S
Tb817 O845 2.409 . S
Tb817 O846 2.378 . S
C818 Tb816 2.809 . S
C818 C819 1.514 . S
C818 O836 1.248 . S
C818 O837 1.266 . S
C819 C818 1.514 . S
C819 C820 1.359 . S
C819 C824 1.348 . S
C820 C819 1.359 . S
C820 C821 1.380 . S
C820 H848 0.929 . S
C821 C820 1.380 . S
C821 C822 1.347 . S
C821 H849 0.931 . S
C822 C821 1.347 . S
C822 C823 1.369 . S
C823 C822 1.369 . S
C823 C824 1.408 . S
C823 H850 0.930 . S
C824 C819 1.348 . S
C824 C823 1.408 . S
C824 H851 0.930 . S
C825 O838 1.281 . S
C825 O839 1.254 . S
C826 O840 1.236 . S
C826 O841 1.266 . S
C827 Tb817 2.809 . S
C827 C828 1.514 . S
C827 O842 1.248 . S
C827 O843 1.266 . S
C828 C827 1.514 . S
C828 C829 1.359 . S
C828 C833 1.348 . S
C829 C828 1.359 . S
C829 C830 1.380 . S
C829 H852 0.929 . S
C830 C829 1.380 . S
C830 C831 1.347 . S
C830 H853 0.931 . S
C831 C830 1.347 . S
C831 C832 1.369 . S
C832 C831 1.369 . S
C832 C833 1.408 . S
C832 H854 0.930 . S
C833 C828 1.348 . S
C833 C832 1.408 . S
C833 H855 0.930 . S
C834 O844 1.281 . S
C834 O845 1.254 . S
C835 O846 1.236 . S
C835 O847 1.266 . S
O836 Tb816 2.484 . S
O836 C818 1.248 . S
O837 Tb816 2.440 . S
O837 C818 1.266 . S
O838 Tb816 2.658 . S
O838 Tb817 2.325 . S
O838 C825 1.281 . S
O839 Tb816 2.409 . S
O839 C825 1.254 . S
O840 Tb816 2.378 . S
O840 C826 1.236 . S
O841 Tb817 2.341 . S
O841 C826 1.266 . S
O842 Tb817 2.484 . S
O842 C827 1.248 . S
O843 Tb817 2.440 . S
O843 C827 1.266 . S
O844 Tb816 2.325 . S
O844 Tb817 2.658 . S
O844 C834 1.281 . S
O845 Tb817 2.409 . S
O845 C834 1.254 . S
O846 Tb817 2.378 . S
O846 C835 1.236 . S
O847 Tb816 2.341 . S
O847 C835 1.266 . S
H848 C820 0.929 . S
H849 C821 0.931 . S
H850 C823 0.930 . S
H851 C824 0.930 . S
H852 C829 0.929 . S
H853 C830 0.931 . S
H854 C832 0.930 . S
H855 C833 0.930 . S
Tb856 C858 2.809 . S
Tb856 O876 2.484 . S
Tb856 O877 2.440 . S
Tb856 O878 2.658 . S
Tb856 O879 2.409 . S
Tb856 O880 2.378 . S
Tb856 O884 2.325 . S
Tb856 O887 2.341 . S
Tb857 C867 2.809 . S
Tb857 O878 2.325 . S
Tb857 O881 2.341 . S
Tb857 O882 2.484 . S
Tb857 O883 2.440 . S
Tb857 O884 2.658 . S
Tb857 O885 2.409 . S
Tb857 O886 2.378 . S
C858 Tb856 2.809 . S
C858 C859 1.514 . S
C858 O876 1.248 . S
C858 O877 1.266 . S
C859 C858 1.514 . S
C859 C860 1.359 . S
C859 C864 1.348 . S
C860 C859 1.359 . S
C860 C861 1.380 . S
C860 H888 0.929 . S
C861 C860 1.380 . S
C861 C862 1.347 . S
C861 H889 0.931 . S
C862 C861 1.347 . S
C862 C863 1.369 . S
C863 C862 1.369 . S
C863 C864 1.408 . S
C863 H890 0.930 . S
C864 C859 1.348 . S
C864 C863 1.408 . S
C864 H891 0.930 . S
C865 O878 1.281 . S
C865 O879 1.254 . S
C866 O880 1.236 . S
C866 O881 1.266 . S
C867 Tb857 2.809 . S
C867 C868 1.514 . S
C867 O882 1.248 . S
C867 O883 1.266 . S
C868 C867 1.514 . S
C868 C869 1.359 . S
C868 C873 1.348 . S
C869 C868 1.359 . S
C869 C870 1.380 . S
C869 H892 0.929 . S
C870 C869 1.380 . S
C870 C871 1.347 . S
C870 H893 0.931 . S
C871 C870 1.347 . S
C871 C872 1.369 . S
C872 C871 1.369 . S
C872 C873 1.408 . S
C872 H894 0.930 . S
C873 C868 1.348 . S
C873 C872 1.408 . S
C873 H895 0.930 . S
C874 O884 1.281 . S
C874 O885 1.254 . S
C875 O886 1.236 . S
C875 O887 1.266 . S
O876 Tb856 2.484 . S
O876 C858 1.248 . S
O877 Tb856 2.440 . S
O877 C858 1.266 . S
O878 Tb856 2.658 . S
O878 Tb857 2.325 . S
O878 C865 1.281 . S
O879 Tb856 2.409 . S
O879 C865 1.254 . S
O880 Tb856 2.378 . S
O880 C866 1.236 . S
O881 Tb857 2.341 . S
O881 C866 1.266 . S
O882 Tb857 2.484 . S
O882 C867 1.248 . S
O883 Tb857 2.440 . S
O883 C867 1.266 . S
O884 Tb856 2.325 . S
O884 Tb857 2.658 . S
O884 C874 1.281 . S
O885 Tb857 2.409 . S
O885 C874 1.254 . S
O886 Tb857 2.378 . S
O886 C875 1.236 . S
O887 Tb856 2.341 . S
O887 C875 1.266 . S
H888 C860 0.929 . S
H889 C861 0.931 . S
H890 C863 0.930 . S
H891 C864 0.930 . S
H892 C869 0.929 . S
H893 C870 0.931 . S
H894 C872 0.930 . S
H895 C873 0.930 . S
Tb896 C898 2.809 . S
Tb896 O916 2.484 . S
Tb896 O917 2.440 . S
Tb896 O918 2.658 . S
Tb896 O919 2.409 . S
Tb896 O920 2.378 . S
Tb896 O924 2.325 . S
Tb896 O927 2.341 . S
Tb897 C907 2.809 . S
Tb897 O918 2.325 . S
Tb897 O921 2.341 . S
Tb897 O922 2.484 . S
Tb897 O923 2.440 . S
Tb897 O924 2.658 . S
Tb897 O925 2.409 . S
Tb897 O926 2.378 . S
C898 Tb896 2.809 . S
C898 C899 1.514 . S
C898 O916 1.248 . S
C898 O917 1.266 . S
C899 C898 1.514 . S
C899 C900 1.359 . S
C899 C904 1.348 . S
C900 C899 1.359 . S
C900 C901 1.380 . S
C900 H928 0.929 . S
C901 C900 1.380 . S
C901 C902 1.347 . S
C901 H929 0.931 . S
C902 C901 1.347 . S
C902 C903 1.369 . S
C903 C902 1.369 . S
C903 C904 1.408 . S
C903 H930 0.930 . S
C904 C899 1.348 . S
C904 C903 1.408 . S
C904 H931 0.930 . S
C905 O918 1.281 . S
C905 O919 1.254 . S
C906 O920 1.236 . S
C906 O921 1.266 . S
C907 Tb897 2.809 . S
C907 C908 1.514 . S
C907 O922 1.248 . S
C907 O923 1.266 . S
C908 C907 1.514 . S
C908 C909 1.359 . S
C908 C913 1.348 . S
C909 C908 1.359 . S
C909 C910 1.380 . S
C909 H932 0.929 . S
C910 C909 1.380 . S
C910 C911 1.347 . S
C910 H933 0.931 . S
C911 C910 1.347 . S
C911 C912 1.369 . S
C912 C911 1.369 . S
C912 C913 1.408 . S
C912 H934 0.930 . S
C913 C908 1.348 . S
C913 C912 1.408 . S
C913 H935 0.930 . S
C914 O924 1.281 . S
C914 O925 1.254 . S
C915 O926 1.236 . S
C915 O927 1.266 . S
O916 Tb896 2.484 . S
O916 C898 1.248 . S
O917 Tb896 2.440 . S
O917 C898 1.266 . S
O918 Tb896 2.658 . S
O918 Tb897 2.325 . S
O918 C905 1.281 . S
O919 Tb896 2.409 . S
O919 C905 1.254 . S
O920 Tb896 2.378 . S
O920 C906 1.236 . S
O921 Tb897 2.341 . S
O921 C906 1.266 . S
O922 Tb897 2.484 . S
O922 C907 1.248 . S
O923 Tb897 2.440 . S
O923 C907 1.266 . S
O924 Tb896 2.325 . S
O924 Tb897 2.658 . S
O924 C914 1.281 . S
O925 Tb897 2.409 . S
O925 C914 1.254 . S
O926 Tb897 2.378 . S
O926 C915 1.236 . S
O927 Tb896 2.341 . S
O927 C915 1.266 . S
H928 C900 0.929 . S
H929 C901 0.931 . S
H930 C903 0.930 . S
H931 C904 0.930 . S
H932 C909 0.929 . S
H933 C910 0.931 . S
H934 C912 0.930 . S
H935 C913 0.930 . S
Tb936 C938 2.809 . S
Tb936 O956 2.484 . S
Tb936 O957 2.410 1_554 S
Tb936 O958 2.658 . S
Tb936 O959 2.409 1_554 S
Tb936 O960 2.378 . S
Tb936 O964 2.325 . S
Tb936 O967 2.341 . S
Tb937 C947 2.809 1_455 S
Tb937 O958 2.325 . S
Tb937 O961 2.341 . S
Tb937 O962 2.484 1_455 S
Tb937 O963 2.440 1_455 S
Tb937 O964 2.658 . S
Tb937 O965 2.409 . S
Tb937 O966 2.378 . S
C938 Tb936 2.809 . S
C938 C939 1.514 . S
C938 O956 1.248 . S
C938 O957 1.228 1_554 S
C939 C938 1.514 . S
C939 C940 1.359 . S
C939 C944 1.348 1_554 S
C940 C939 1.359 . S
C940 C941 1.380 . S
C940 H968 0.929 . S
C941 C940 1.380 . S
C941 C942 1.347 . S
C941 H969 0.931 . S
C942 C941 1.347 . S
C942 C943 1.369 1_554 S
C943 C942 1.369 1_556 S
C943 C944 1.408 . S
C943 H970 0.930 . S
C944 C939 1.348 1_556 S
C944 C943 1.408 . S
C944 H971 0.930 . S
C945 O958 1.281 1_556 S
C945 O959 1.254 . S
C946 O960 1.236 . S
C946 O961 1.266 . S
C947 Tb937 2.809 1_655 S
C947 C948 1.514 . S
C947 O962 1.248 . S
C947 O963 1.266 . S
C948 C947 1.514 . S
C948 C949 1.359 . S
C948 C953 1.348 . S
C949 C948 1.359 . S
C949 C950 1.380 . S
C949 H972 0.929 . S
C950 C949 1.380 . S
C950 C951 1.347 . S
C950 H973 0.931 . S
C951 C950 1.347 . S
C951 C952 1.369 . S
C952 C951 1.369 . S
C952 C953 1.408 . S
C952 H974 0.930 . S
C953 C948 1.348 . S
C953 C952 1.408 . S
C953 H975 0.930 . S
C954 O964 1.281 . S
C954 O965 1.254 . S
C955 O966 1.236 . S
C955 O967 1.266 . S
O956 Tb936 2.484 . S
O956 C938 1.248 . S
O957 Tb936 2.410 1_556 S
O957 C938 1.228 1_556 S
O958 Tb936 2.658 . S
O958 Tb937 2.325 . S
O958 C945 1.281 1_554 S
O959 Tb936 2.409 1_556 S
O959 C945 1.254 . S
O960 Tb936 2.378 . S
O960 C946 1.236 . S
O961 Tb937 2.341 . S
O961 C946 1.266 . S
O962 Tb937 2.484 1_655 S
O962 C947 1.248 . S
O963 Tb937 2.440 1_655 S
O963 C947 1.266 . S
O964 Tb936 2.325 . S
O964 Tb937 2.658 . S
O964 C954 1.281 . S
O965 Tb937 2.409 . S
O965 C954 1.254 . S
O966 Tb937 2.378 . S
O966 C955 1.236 . S
O967 Tb936 2.341 . S
O967 C955 1.266 . S
H968 C940 0.929 . S
H969 C941 0.931 . S
H970 C943 0.930 . S
H971 C944 0.930 . S
H972 C949 0.929 . S
H973 C950 0.931 . S
H974 C952 0.930 . S
H975 C953 0.930 . S
H976 C984 0.929 . S
H977 C986 0.930 . S
H978 C988 0.930 . S
H979 C991 0.929 . S
H980 C994 0.930 . S
H981 C996 0.960 . S
H982 C996 0.960 . S
H983 C996 0.960 . S
C984 H976 0.929 . S
C984 C985 1.377 1_655 S
C984 C986 1.384 . S
C985 C984 1.377 1_455 S
C985 C991 1.390 . S
C986 H977 0.930 . S
C986 C984 1.384 . S
C986 C987 1.372 1_655 S
C987 C986 1.372 1_455 S
C987 C988 1.400 . S
C987 C992 1.490 . S
C988 H978 0.930 . S
C988 C987 1.400 . S
C988 C991 1.386 . S
H989 C1005 0.930 . S
H990 C1006 0.931 . S
C991 H979 0.929 . S
C991 C985 1.390 . S
C991 C988 1.386 . S
C992 C987 1.490 . S
C992 C994 1.395 . S
C992 C995 1.403 . S
H993 C999 0.930 . S
C994 H980 0.930 . S
C994 C992 1.395 . S
C994 C997 1.403 . S
C995 C992 1.403 . S
C995 C996 1.524 1_556 S
C995 C999 1.400 1_556 S
C996 H981 0.960 . S
C996 H982 0.960 . S
C996 H983 0.960 . S
C996 C995 1.524 1_554 S
C997 C994 1.403 . S
C997 C998 1.392 . S
C997 C1001 1.495 . S
C998 C997 1.392 . S
C998 C999 1.385 1_556 S
C998 C1000 1.478 . S
C999 H993 0.930 . S
C999 C995 1.400 1_554 S
C999 C998 1.385 1_554 S
C1000 C998 1.478 . S
C1000 C1002 1.381 . S
C1000 C1006 1.383 1_556 S
C1001 C997 1.495 . S
C1001 H1007 0.959 . S
C1001 H1008 0.961 . S
C1001 H1009 0.960 . S
C1002 C1000 1.381 . S
C1002 C1003 1.394 1_556 S
C1002 H1010 0.930 1_455 S
C1003 C1002 1.394 1_554 S
C1003 C1004 1.383 . S
C1003 H1011 0.929 . S
C1004 C1003 1.383 . S
C1004 C1005 1.377 . S
C1005 H989 0.930 . S
C1005 C1004 1.377 . S
C1005 C1006 1.379 . S
C1006 H990 0.931 . S
C1006 C1000 1.383 1_554 S
C1006 C1005 1.379 . S
H1007 C1001 0.959 . S
H1008 C1001 0.961 . S
H1009 C1001 0.960 . S
H1010 C1002 0.930 1_655 S
H1011 C1003 0.929 . S
H1012 C1020 0.929 . S
H1013 C1022 0.930 . S
H1014 C1024 0.930 . S
H1015 C1027 0.929 . S
H1016 C1030 0.930 . S
H1017 C1032 0.960 . S
H1018 C1032 0.960 . S
H1019 C1032 0.960 . S
C1020 H1012 0.929 . S
C1020 C1021 1.377 . S
C1020 C1022 1.384 . S
C1021 C1020 1.377 . S
C1021 C1027 1.390 . S
C1022 H1013 0.930 . S
C1022 C1020 1.384 . S
C1022 C1023 1.372 . S
C1023 C1022 1.372 . S
C1023 C1024 1.400 . S
C1023 C1028 1.490 . S
C1024 H1014 0.930 . S
C1024 C1023 1.400 . S
C1024 C1027 1.386 . S
H1025 C1041 0.930 . S
H1026 C1042 0.931 . S
C1027 H1015 0.929 . S
C1027 C1021 1.390 . S
C1027 C1024 1.386 . S
C1028 C1023 1.490 . S
C1028 C1030 1.395 . S
C1028 C1031 1.403 . S
H1029 C1035 0.930 . S
C1030 H1016 0.930 . S
C1030 C1028 1.395 . S
C1030 C1033 1.403 . S
C1031 C1028 1.403 . S
C1031 C1032 1.524 . S
C1031 C1035 1.400 . S
C1032 H1017 0.960 . S
C1032 H1018 0.960 . S
C1032 H1019 0.960 . S
C1032 C1031 1.524 . S
C1033 C1030 1.403 . S
C1033 C1034 1.392 . S
C1033 C1037 1.495 . S
C1034 C1033 1.392 . S
C1034 C1035 1.385 . S
C1034 C1036 1.478 . S
C1035 H1029 0.930 . S
C1035 C1031 1.400 . S
C1035 C1034 1.385 . S
C1036 C1034 1.478 . S
C1036 C1038 1.381 . S
C1036 C1042 1.383 . S
C1037 C1033 1.495 . S
C1037 H1043 0.959 . S
C1037 H1044 0.961 . S
C1037 H1045 0.960 . S
C1038 C1036 1.381 . S
C1038 C1039 1.394 . S
C1038 H1046 0.930 . S
C1039 C1038 1.394 . S
C1039 C1040 1.383 . S
C1039 H1047 0.929 . S
C1040 C1039 1.383 . S
C1040 C1041 1.377 . S
C1041 H1025 0.930 . S
C1041 C1040 1.377 . S
C1041 C1042 1.379 . S
C1042 H1026 0.931 . S
C1042 C1036 1.383 . S
C1042 C1041 1.379 . S
H1043 C1037 0.959 . S
H1044 C1037 0.961 . S
H1045 C1037 0.960 . S
H1046 C1038 0.930 . S
H1047 C1039 0.929 . S
H1048 C1056 0.929 . S
H1049 C1058 0.930 . S
H1050 C1060 0.930 . S
H1051 C1063 0.929 . S
H1052 C1066 0.930 . S
H1053 C1068 0.960 . S
H1054 C1068 0.960 . S
H1055 C1068 0.960 . S
C1056 H1048 0.929 . S
C1056 C1057 1.377 . S
C1056 C1058 1.384 . S
C1057 C1056 1.377 . S
C1057 C1063 1.390 . S
C1058 H1049 0.930 . S
C1058 C1056 1.384 . S
C1058 C1059 1.372 . S
C1059 C1058 1.372 . S
C1059 C1060 1.400 . S
C1059 C1064 1.490 . S
C1060 H1050 0.930 . S
C1060 C1059 1.400 . S
C1060 C1063 1.386 . S
H1061 C1077 0.930 . S
H1062 C1078 0.931 . S
C1063 H1051 0.929 . S
C1063 C1057 1.390 . S
C1063 C1060 1.386 . S
C1064 C1059 1.490 . S
C1064 C1066 1.395 . S
C1064 C1067 1.403 . S
H1065 C1071 0.930 . S
C1066 H1052 0.930 . S
C1066 C1064 1.395 . S
C1066 C1069 1.403 . S
C1067 C1064 1.403 . S
C1067 C1068 1.524 . S
C1067 C1071 1.400 . S
C1068 H1053 0.960 . S
C1068 H1054 0.960 . S
C1068 H1055 0.960 . S
C1068 C1067 1.524 . S
C1069 C1066 1.403 . S
C1069 C1070 1.392 . S
C1069 C1073 1.495 . S
C1070 C1069 1.392 . S
C1070 C1071 1.385 . S
C1070 C1072 1.478 . S
C1071 H1065 0.930 . S
C1071 C1067 1.400 . S
C1071 C1070 1.385 . S
C1072 C1070 1.478 . S
C1072 C1074 1.381 . S
C1072 C1078 1.383 . S
C1073 C1069 1.495 . S
C1073 H1079 0.959 . S
C1073 H1080 0.961 . S
C1073 H1081 0.960 . S
C1074 C1072 1.381 . S
C1074 C1075 1.394 . S
C1074 H1082 0.930 . S
C1075 C1074 1.394 . S
C1075 C1076 1.383 . S
C1075 H1083 0.929 . S
C1076 C1075 1.383 . S
C1076 C1077 1.377 . S
C1077 H1061 0.930 . S
C1077 C1076 1.377 . S
C1077 C1078 1.379 . S
C1078 H1062 0.931 . S
C1078 C1072 1.383 . S
C1078 C1077 1.379 . S
H1079 C1073 0.959 . S
H1080 C1073 0.961 . S
H1081 C1073 0.960 . S
H1082 C1074 0.930 . S
H1083 C1075 0.929 . S
H1084 C1092 0.929 . S
H1085 C1094 0.930 . S
H1086 C1096 0.930 . S
H1087 C1099 0.929 . S
H1088 C1102 0.930 . S
H1089 C1104 0.960 . S
H1090 C1104 0.960 . S
H1091 C1104 0.960 . S
C1092 H1084 0.929 . S
C1092 C1093 1.377 . S
C1092 C1094 1.384 . S
C1093 C1092 1.377 . S
C1093 C1099 1.390 . S
C1094 H1085 0.930 . S
C1094 C1092 1.384 . S
C1094 C1095 1.372 . S
C1095 C1094 1.372 . S
C1095 C1096 1.400 . S
C1095 C1100 1.490 . S
C1096 H1086 0.930 . S
C1096 C1095 1.400 . S
C1096 C1099 1.386 . S
H1097 C1113 0.930 . S
H1098 C1114 0.931 . S
C1099 H1087 0.929 . S
C1099 C1093 1.390 . S
C1099 C1096 1.386 . S
C1100 C1095 1.490 . S
C1100 C1102 1.395 . S
C1100 C1103 1.403 . S
H1101 C1107 0.930 . S
C1102 H1088 0.930 . S
C1102 C1100 1.395 . S
C1102 C1105 1.403 . S
C1103 C1100 1.403 . S
C1103 C1104 1.524 . S
C1103 C1107 1.400 . S
C1104 H1089 0.960 . S
C1104 H1090 0.960 . S
C1104 H1091 0.960 . S
C1104 C1103 1.524 . S
C1105 C1102 1.403 . S
C1105 C1106 1.392 . S
C1105 C1109 1.495 . S
C1106 C1105 1.392 . S
C1106 C1107 1.385 . S
C1106 C1108 1.478 . S
C1107 H1101 0.930 . S
C1107 C1103 1.400 . S
C1107 C1106 1.385 . S
C1108 C1106 1.478 . S
C1108 C1110 1.381 . S
C1108 C1114 1.383 . S
C1109 C1105 1.495 . S
C1109 H1115 0.959 . S
C1109 H1116 0.961 . S
C1109 H1117 0.960 . S
C1110 C1108 1.381 . S
C1110 C1111 1.394 . S
C1110 H1118 0.930 . S
C1111 C1110 1.394 . S
C1111 C1112 1.383 . S
C1111 H1119 0.929 . S
C1112 C1111 1.383 . S
C1112 C1113 1.377 . S
C1113 H1097 0.930 . S
C1113 C1112 1.377 . S
C1113 C1114 1.379 . S
C1114 H1098 0.931 . S
C1114 C1108 1.383 . S
C1114 C1113 1.379 . S
H1115 C1109 0.959 . S
H1116 C1109 0.961 . S
H1117 C1109 0.960 . S
H1118 C1110 0.930 . S
H1119 C1111 0.929 . S
H1120 C1128 0.929 . S
H1121 C1130 0.930 . S
H1122 C1132 0.930 . S
H1123 C1135 0.929 . S
H1124 C1138 0.930 . S
H1125 C1140 0.960 . S
H1126 C1140 0.960 . S
H1127 C1140 0.960 . S
C1128 H1120 0.929 . S
C1128 C1129 1.377 . S
C1128 C1130 1.384 . S
C1129 C1128 1.377 . S
C1129 C1135 1.390 . S
C1130 H1121 0.930 . S
C1130 C1128 1.384 . S
C1130 C1131 1.372 . S
C1131 C1130 1.372 . S
C1131 C1132 1.400 . S
C1131 C1136 1.490 . S
C1132 H1122 0.930 . S
C1132 C1131 1.400 . S
C1132 C1135 1.386 . S
H1133 C1149 0.930 . S
H1134 C1150 0.931 . S
C1135 H1123 0.929 . S
C1135 C1129 1.390 . S
C1135 C1132 1.386 . S
C1136 C1131 1.490 . S
C1136 C1138 1.395 . S
C1136 C1139 1.403 . S
H1137 C1143 0.930 . S
C1138 H1124 0.930 . S
C1138 C1136 1.395 . S
C1138 C1141 1.403 . S
C1139 C1136 1.403 . S
C1139 C1140 1.524 . S
C1139 C1143 1.400 . S
C1140 H1125 0.960 . S
C1140 H1126 0.960 . S
C1140 H1127 0.960 . S
C1140 C1139 1.524 . S
C1141 C1138 1.403 . S
C1141 C1142 1.392 . S
C1141 C1145 1.495 . S
C1142 C1141 1.392 . S
C1142 C1143 1.385 . S
C1142 C1144 1.478 . S
C1143 H1137 0.930 . S
C1143 C1139 1.400 . S
C1143 C1142 1.385 . S
C1144 C1142 1.478 . S
C1144 C1146 1.381 . S
C1144 C1150 1.383 . S
C1145 C1141 1.495 . S
C1145 H1151 0.959 . S
C1145 H1152 0.961 . S
C1145 H1153 0.960 . S
C1146 C1144 1.381 . S
C1146 C1147 1.394 . S
C1146 H1154 0.930 . S
C1147 C1146 1.394 . S
C1147 C1148 1.383 . S
C1147 H1155 0.929 . S
C1148 C1147 1.383 . S
C1148 C1149 1.377 . S
C1149 H1133 0.930 . S
C1149 C1148 1.377 . S
C1149 C1150 1.379 . S
C1150 H1134 0.931 . S
C1150 C1144 1.383 . S
C1150 C1149 1.379 . S
H1151 C1145 0.959 . S
H1152 C1145 0.961 . S
H1153 C1145 0.960 . S
H1154 C1146 0.930 . S
H1155 C1147 0.929 . S
H1156 C1164 0.929 . S
H1157 C1166 0.930 . S
H1158 C1168 0.930 . S
H1159 C1171 0.929 . S
H1160 C1174 0.930 . S
H1161 C1176 0.960 . S
H1162 C1176 0.960 . S
H1163 C1176 0.960 . S
C1164 H1156 0.929 . S
C1164 C1165 1.377 . S
C1164 C1166 1.384 . S
C1165 C1164 1.377 . S
C1165 C1171 1.390 . S
C1166 H1157 0.930 . S
C1166 C1164 1.384 . S
C1166 C1167 1.372 . S
C1167 C1166 1.372 . S
C1167 C1168 1.400 . S
C1167 C1172 1.490 . S
C1168 H1158 0.930 . S
C1168 C1167 1.400 . S
C1168 C1171 1.386 . S
H1169 C1185 0.930 . S
H1170 C1186 0.931 . S
C1171 H1159 0.929 . S
C1171 C1165 1.390 . S
C1171 C1168 1.386 . S
C1172 C1167 1.490 . S
C1172 C1174 1.395 . S
C1172 C1175 1.403 . S
H1173 C1179 0.930 . S
C1174 H1160 0.930 . S
C1174 C1172 1.395 . S
C1174 C1177 1.403 . S
C1175 C1172 1.403 . S
C1175 C1176 1.524 . S
C1175 C1179 1.400 . S
C1176 H1161 0.960 . S
C1176 H1162 0.960 . S
C1176 H1163 0.960 . S
C1176 C1175 1.524 . S
C1177 C1174 1.403 . S
C1177 C1178 1.392 . S
C1177 C1181 1.495 . S
C1178 C1177 1.392 . S
C1178 C1179 1.385 . S
C1178 C1180 1.478 . S
C1179 H1173 0.930 . S
C1179 C1175 1.400 . S
C1179 C1178 1.385 . S
C1180 C1178 1.478 . S
C1180 C1182 1.381 . S
C1180 C1186 1.383 . S
C1181 C1177 1.495 . S
C1181 H1187 0.959 . S
C1181 H1188 0.961 . S
C1181 H1189 0.960 . S
C1182 C1180 1.381 . S
C1182 C1183 1.394 . S
C1182 H1190 0.930 . S
C1183 C1182 1.394 . S
C1183 C1184 1.383 . S
C1183 H1191 0.929 . S
C1184 C1183 1.383 . S
C1184 C1185 1.377 . S
C1185 H1169 0.930 . S
C1185 C1184 1.377 . S
C1185 C1186 1.379 . S
C1186 H1170 0.931 . S
C1186 C1180 1.383 . S
C1186 C1185 1.379 . S
H1187 C1181 0.959 . S
H1188 C1181 0.961 . S
H1189 C1181 0.960 . S
H1190 C1182 0.930 . S
H1191 C1183 0.929 . S
H1192 C1200 0.929 . S
H1193 C1202 0.930 . S
H1194 C1204 0.930 . S
H1195 C1207 0.929 . S
H1196 C1210 0.930 . S
H1197 C1212 0.960 . S
H1198 C1212 0.960 . S
H1199 C1212 0.960 . S
C1200 H1192 0.929 . S
C1200 C1201 1.377 . S
C1200 C1202 1.384 . S
C1201 C1200 1.377 . S
C1201 C1207 1.390 . S
C1202 H1193 0.930 . S
C1202 C1200 1.384 . S
C1202 C1203 1.372 . S
C1203 C1202 1.372 . S
C1203 C1204 1.400 . S
C1203 C1208 1.490 . S
C1204 H1194 0.930 . S
C1204 C1203 1.400 . S
C1204 C1207 1.386 . S
H1205 C1221 0.930 . S
H1206 C1222 0.931 . S
C1207 H1195 0.929 . S
C1207 C1201 1.390 . S
C1207 C1204 1.386 . S
C1208 C1203 1.490 . S
C1208 C1210 1.395 . S
C1208 C1211 1.403 . S
H1209 C1215 0.930 . S
C1210 H1196 0.930 . S
C1210 C1208 1.395 . S
C1210 C1213 1.403 . S
C1211 C1208 1.403 . S
C1211 C1212 1.524 . S
C1211 C1215 1.400 . S
C1212 H1197 0.960 . S
C1212 H1198 0.960 . S
C1212 H1199 0.960 . S
C1212 C1211 1.524 . S
C1213 C1210 1.403 . S
C1213 C1214 1.392 . S
C1213 C1217 1.495 . S
C1214 C1213 1.392 . S
C1214 C1215 1.385 . S
C1214 C1216 1.478 . S
C1215 H1209 0.930 . S
C1215 C1211 1.400 . S
C1215 C1214 1.385 . S
C1216 C1214 1.478 . S
C1216 C1218 1.381 . S
C1216 C1222 1.383 . S
C1217 C1213 1.495 . S
C1217 H1223 0.959 . S
C1217 H1224 0.961 . S
C1217 H1225 0.960 . S
C1218 C1216 1.381 . S
C1218 C1219 1.394 . S
C1218 H1226 0.930 . S
C1219 C1218 1.394 . S
C1219 C1220 1.383 . S
C1219 H1227 0.929 . S
C1220 C1219 1.383 . S
C1220 C1221 1.377 . S
C1221 H1205 0.930 . S
C1221 C1220 1.377 . S
C1221 C1222 1.379 . S
C1222 H1206 0.931 . S
C1222 C1216 1.383 . S
C1222 C1221 1.379 . S
H1223 C1217 0.959 . S
H1224 C1217 0.961 . S
H1225 C1217 0.960 . S
H1226 C1218 0.930 . S
H1227 C1219 0.929 . S
H1228 C1236 0.929 . S
H1229 C1238 0.930 . S
H1230 C1240 0.930 . S
H1231 C1243 0.929 . S
H1232 C1246 0.930 . S
H1233 C1248 0.960 . S
H1234 C1248 0.960 . S
H1235 C1248 0.960 . S
C1236 H1228 0.929 . S
C1236 C1237 1.377 . S
C1236 C1238 1.384 . S
C1237 C1236 1.377 . S
C1237 C1243 1.390 . S
C1238 H1229 0.930 . S
C1238 C1236 1.384 . S
C1238 C1239 1.372 . S
C1239 C1238 1.372 . S
C1239 C1240 1.400 . S
C1239 C1244 1.490 . S
C1240 H1230 0.930 . S
C1240 C1239 1.400 . S
C1240 C1243 1.386 . S
H1241 C1257 0.930 . S
H1242 C1258 0.931 . S
C1243 H1231 0.929 . S
C1243 C1237 1.390 . S
C1243 C1240 1.386 . S
C1244 C1239 1.490 . S
C1244 C1246 1.395 . S
C1244 C1247 1.403 . S
H1245 C1251 0.930 . S
C1246 H1232 0.930 . S
C1246 C1244 1.395 . S
C1246 C1249 1.403 . S
C1247 C1244 1.403 . S
C1247 C1248 1.524 . S
C1247 C1251 1.400 . S
C1248 H1233 0.960 . S
C1248 H1234 0.960 . S
C1248 H1235 0.960 . S
C1248 C1247 1.524 . S
C1249 C1246 1.403 . S
C1249 C1250 1.392 . S
C1249 C1253 1.495 . S
C1250 C1249 1.392 . S
C1250 C1251 1.385 . S
C1250 C1252 1.478 . S
C1251 H1245 0.930 . S
C1251 C1247 1.400 . S
C1251 C1250 1.385 . S
C1252 C1250 1.478 . S
C1252 C1254 1.381 . S
C1252 C1258 1.383 . S
C1253 C1249 1.495 . S
C1253 H1259 0.959 . S
C1253 H1260 0.961 . S
C1253 H1261 0.960 . S
C1254 C1252 1.381 . S
C1254 C1255 1.394 . S
C1254 H1262 0.930 . S
C1255 C1254 1.394 . S
C1255 C1256 1.383 . S
C1255 H1263 0.929 . S
C1256 C1255 1.383 . S
C1256 C1257 1.377 . S
C1257 H1241 0.930 . S
C1257 C1256 1.377 . S
C1257 C1258 1.379 . S
C1258 H1242 0.931 . S
C1258 C1252 1.383 . S
C1258 C1257 1.379 . S
H1259 C1253 0.959 . S
H1260 C1253 0.961 . S
H1261 C1253 0.960 . S
H1262 C1254 0.930 . S
H1263 C1255 0.929 . S
H1264 C1272 0.929 . S
H1265 C1274 0.930 . S
H1266 C1276 0.930 . S
H1267 C1279 0.929 . S
H1268 C1282 0.930 . S
H1269 C1284 0.960 . S
H1270 C1284 0.960 . S
H1271 C1284 0.960 . S
C1272 H1264 0.929 . S
C1272 C1273 1.377 1_565 S
C1272 C1274 1.384 . S
C1273 C1272 1.377 1_545 S
C1273 C1279 1.390 . S
C1274 H1265 0.930 . S
C1274 C1272 1.384 . S
C1274 C1275 1.372 1_565 S
C1275 C1274 1.372 1_545 S
C1275 C1276 1.400 . S
C1275 C1280 1.490 . S
C1276 H1266 0.930 . S
C1276 C1275 1.400 . S
C1276 C1279 1.386 . S
H1277 C1293 0.930 . S
H1278 C1294 0.931 . S
C1279 H1267 0.929 . S
C1279 C1273 1.390 . S
C1279 C1276 1.386 . S
C1280 C1275 1.490 . S
C1280 C1282 1.395 . S
C1280 C1283 1.403 . S
H1281 C1287 0.930 . S
C1282 H1268 0.930 . S
C1282 C1280 1.395 . S
C1282 C1285 1.403 . S
C1283 C1280 1.403 . S
C1283 C1284 1.524 1_655 S
C1283 C1287 1.400 1_655 S
C1284 H1269 0.960 . S
C1284 H1270 0.960 . S
C1284 H1271 0.960 . S
C1284 C1283 1.524 1_455 S
C1285 C1282 1.403 . S
C1285 C1286 1.392 . S
C1285 C1289 1.495 . S
C1286 C1285 1.392 . S
C1286 C1287 1.385 1_655 S
C1286 C1288 1.457 1_655 S
C1287 H1281 0.930 . S
C1287 C1283 1.400 1_455 S
C1287 C1286 1.385 1_455 S
C1288 C1286 1.457 1_455 S
C1288 C1290 1.387 1_455 S
C1288 C1294 1.401 . S
C1289 C1285 1.495 . S
C1289 H1295 0.959 . S
C1289 H1296 0.961 . S
C1289 H1297 0.960 . S
C1290 C1288 1.387 1_655 S
C1290 C1291 1.394 1_655 S
C1290 H1298 0.930 1_545 S
C1291 C1290 1.394 1_455 S
C1291 C1292 1.383 . S
C1291 H1299 0.929 1_545 S
C1292 C1291 1.383 . S
C1292 C1293 1.377 . S
C1293 H1277 0.930 . S
C1293 C1292 1.377 . S
C1293 C1294 1.379 . S
C1294 H1278 0.931 . S
C1294 C1288 1.401 . S
C1294 C1293 1.379 . S
H1295 C1289 0.959 . S
H1296 C1289 0.961 . S
H1297 C1289 0.960 . S
H1298 C1290 0.930 1_565 S
H1299 C1291 0.929 1_565 S
H1300 C1308 0.929 . S
H1301 C1310 0.930 . S
H1302 C1312 0.930 . S
H1303 C1315 0.929 . S
H1304 C1318 0.930 . S
H1305 C1320 0.960 . S
H1306 C1320 0.960 . S
H1307 C1320 0.960 . S
C1308 H1300 0.929 . S
C1308 C1309 1.377 . S
C1308 C1310 1.384 . S
C1309 C1308 1.377 . S
C1309 C1315 1.390 . S
C1310 H1301 0.930 . S
C1310 C1308 1.384 . S
C1310 C1311 1.372 . S
C1311 C1310 1.372 . S
C1311 C1312 1.400 . S
C1311 C1316 1.490 . S
C1312 H1302 0.930 . S
C1312 C1311 1.400 . S
C1312 C1315 1.386 . S
H1313 C1329 0.930 . S
H1314 C1330 0.931 . S
C1315 H1303 0.929 . S
C1315 C1309 1.390 . S
C1315 C1312 1.386 . S
C1316 C1311 1.490 . S
C1316 C1318 1.395 . S
C1316 C1319 1.403 . S
H1317 C1323 0.930 . S
C1318 H1304 0.930 . S
C1318 C1316 1.395 . S
C1318 C1321 1.403 . S
C1319 C1316 1.403 . S
C1319 C1320 1.524 . S
C1319 C1323 1.400 . S
C1320 H1305 0.960 . S
C1320 H1306 0.960 . S
C1320 H1307 0.960 . S
C1320 C1319 1.524 . S
C1321 C1318 1.403 . S
C1321 C1322 1.392 . S
C1321 C1325 1.495 . S
C1322 C1321 1.392 . S
C1322 C1323 1.385 . S
C1322 C1324 1.478 . S
C1323 H1317 0.930 . S
C1323 C1319 1.400 . S
C1323 C1322 1.385 . S
C1324 C1322 1.478 . S
C1324 C1326 1.381 . S
C1324 C1330 1.383 . S
C1325 C1321 1.495 . S
C1325 H1331 0.959 . S
C1325 H1332 0.961 . S
C1325 H1333 0.960 . S
C1326 C1324 1.381 . S
C1326 C1327 1.394 . S
C1326 H1334 0.930 . S
C1327 C1326 1.394 . S
C1327 C1328 1.383 . S
C1327 H1335 0.929 . S
C1328 C1327 1.383 . S
C1328 C1329 1.377 . S
C1329 H1313 0.930 . S
C1329 C1328 1.377 . S
C1329 C1330 1.379 . S
C1330 H1314 0.931 . S
C1330 C1324 1.383 . S
C1330 C1329 1.379 . S
H1331 C1325 0.959 . S
H1332 C1325 0.961 . S
H1333 C1325 0.960 . S
H1334 C1326 0.930 . S
H1335 C1327 0.929 . S
H1336 C1344 0.929 . S
H1337 C1346 0.930 . S
H1338 C1348 0.930 . S
H1339 C1351 0.929 . S
H1340 C1354 0.930 . S
H1341 C1356 0.960 . S
H1342 C1356 0.960 . S
H1343 C1356 0.960 . S
C1344 H1336 0.929 . S
C1344 C1345 1.377 1_565 S
C1344 C1346 1.384 . S
C1345 C1344 1.377 1_545 S
C1345 C1351 1.390 . S
C1346 H1337 0.930 . S
C1346 C1344 1.384 . S
C1346 C1347 1.372 1_565 S
C1347 C1346 1.372 1_545 S
C1347 C1348 1.400 . S
C1347 C1352 1.490 . S
C1348 H1338 0.930 . S
C1348 C1347 1.400 . S
C1348 C1351 1.386 . S
H1349 C1365 0.930 . S
H1350 C1366 0.931 . S
C1351 H1339 0.929 . S
C1351 C1345 1.390 . S
C1351 C1348 1.386 . S
C1352 C1347 1.490 . S
C1352 C1354 1.395 1_545 S
C1352 C1355 1.403 . S
H1353 C1359 0.930 . S
C1354 H1340 0.930 . S
C1354 C1352 1.395 1_565 S
C1354 C1357 1.403 . S
C1355 C1352 1.403 . S
C1355 C1356 1.524 . S
C1355 C1359 1.400 . S
C1356 H1341 0.960 . S
C1356 H1342 0.960 . S
C1356 H1343 0.960 . S
C1356 C1355 1.524 . S
C1357 C1354 1.403 . S
C1357 C1358 1.392 1_565 S
C1357 C1361 1.495 . S
C1358 C1357 1.392 1_545 S
C1358 C1359 1.385 . S
C1358 C1360 1.478 . S
C1359 H1353 0.930 . S
C1359 C1355 1.400 . S
C1359 C1358 1.385 . S
C1360 C1358 1.478 . S
C1360 C1362 1.381 1_545 S
C1360 C1366 1.383 . S
C1361 C1357 1.495 . S
C1361 H1367 0.959 . S
C1361 H1368 0.961 . S
C1361 H1369 0.960 . S
C1362 C1360 1.381 1_565 S
C1362 C1363 1.394 . S
C1362 H1370 0.930 . S
C1363 C1362 1.394 . S
C1363 C1364 1.383 1_565 S
C1363 H1371 0.929 . S
C1364 C1363 1.383 1_545 S
C1364 C1365 1.377 . S
C1365 H1349 0.930 . S
C1365 C1364 1.377 . S
C1365 C1366 1.379 . S
C1366 H1350 0.931 . S
C1366 C1360 1.383 . S
C1366 C1365 1.379 . S
H1367 C1361 0.959 . S
H1368 C1361 0.961 . S
H1369 C1361 0.960 . S
H1370 C1362 0.930 . S
H1371 C1363 0.929 . S
H1372 C1380 0.929 . S
H1373 C1382 0.930 . S
H1374 C1384 0.930 . S
H1375 C1387 0.929 . S
H1376 C1390 0.930 . S
H1377 C1392 0.960 . S
H1378 C1392 0.960 . S
H1379 C1392 0.960 . S
C1380 H1372 0.929 . S
C1380 C1381 1.377 . S
C1380 C1382 1.384 . S
C1381 C1380 1.377 . S
C1381 C1387 1.390 . S
C1382 H1373 0.930 . S
C1382 C1380 1.384 . S
C1382 C1383 1.372 . S
C1383 C1382 1.372 . S
C1383 C1384 1.400 . S
C1383 C1388 1.490 . S
C1384 H1374 0.930 . S
C1384 C1383 1.400 . S
C1384 C1387 1.386 . S
H1385 C1401 0.930 . S
H1386 C1402 0.931 . S
C1387 H1375 0.929 . S
C1387 C1381 1.390 . S
C1387 C1384 1.386 . S
C1388 C1383 1.490 . S
C1388 C1390 1.395 . S
C1388 C1391 1.403 . S
H1389 C1395 0.930 . S
C1390 H1376 0.930 . S
C1390 C1388 1.395 . S
C1390 C1393 1.403 . S
C1391 C1388 1.403 . S
C1391 C1392 1.524 . S
C1391 C1395 1.400 . S
C1392 H1377 0.960 . S
C1392 H1378 0.960 . S
C1392 H1379 0.960 . S
C1392 C1391 1.524 . S
C1393 C1390 1.403 . S
C1393 C1394 1.392 . S
C1393 C1397 1.495 . S
C1394 C1393 1.392 . S
C1394 C1395 1.385 . S
C1394 C1396 1.478 . S
C1395 H1389 0.930 . S
C1395 C1391 1.400 . S
C1395 C1394 1.385 . S
C1396 C1394 1.478 . S
C1396 C1398 1.381 . S
C1396 C1402 1.383 . S
C1397 C1393 1.495 . S
C1397 H1403 0.959 . S
C1397 H1404 0.961 . S
C1397 H1405 0.960 . S
C1398 C1396 1.381 . S
C1398 C1399 1.394 . S
C1398 H1406 0.930 . S
C1399 C1398 1.394 . S
C1399 C1400 1.383 . S
C1399 H1407 0.929 . S
C1400 C1399 1.383 . S
C1400 C1401 1.377 . S
C1401 H1385 0.930 . S
C1401 C1400 1.377 . S
C1401 C1402 1.379 . S
C1402 H1386 0.931 . S
C1402 C1396 1.383 . S
C1402 C1401 1.379 . S
H1403 C1397 0.959 . S
H1404 C1397 0.961 . S
H1405 C1397 0.960 . S
H1406 C1398 0.930 . S
H1407 C1399 0.929 . S
H1408 C1416 0.929 . S
H1409 C1418 0.930 . S
H1410 C1420 0.930 1_565 S
H1411 C1423 0.929 1_565 S
H1412 C1426 0.930 . S
H1413 C1428 0.960 . S
H1414 C1428 0.960 . S
H1415 C1428 0.960 . S
C1416 H1408 0.929 . S
C1416 C1417 1.377 . S
C1416 C1418 1.384 . S
C1417 C1416 1.377 . S
C1417 C1423 1.390 . S
C1418 H1409 0.930 . S
C1418 C1416 1.384 . S
C1418 C1419 1.372 . S
C1419 C1418 1.372 . S
C1419 C1420 1.400 . S
C1419 C1424 1.490 . S
C1420 H1410 0.930 1_545 S
C1420 C1419 1.400 . S
C1420 C1423 1.386 . S
H1421 C1437 0.930 1_565 S
H1422 C1438 0.931 1_565 S
C1423 H1411 0.929 1_545 S
C1423 C1417 1.390 . S
C1423 C1420 1.386 . S
C1424 C1419 1.490 . S
C1424 C1426 1.395 . S
C1424 C1427 1.403 . S
H1425 C1431 0.930 . S
C1426 H1412 0.930 . S
C1426 C1424 1.395 . S
C1426 C1429 1.403 . S
C1427 C1424 1.403 . S
C1427 C1428 1.524 1_655 S
C1427 C1431 1.400 1_655 S
C1428 H1413 0.960 . S
C1428 H1414 0.960 . S
C1428 H1415 0.960 . S
C1428 C1427 1.524 1_455 S
C1429 C1426 1.403 . S
C1429 C1430 1.392 . S
C1429 C1433 1.479 1_545 S
C1430 C1429 1.392 . S
C1430 C1431 1.385 1_655 S
C1430 C1432 1.478 . S
C1431 H1425 0.930 . S
C1431 C1427 1.400 1_455 S
C1431 C1430 1.385 1_455 S
C1432 C1430 1.478 . S
C1432 C1434 1.381 . S
C1432 C1438 1.383 1_655 S
C1433 C1429 1.479 1_565 S
C1433 H1439 0.960 . S
C1433 H1440 1.016 . S
C1433 H1441 0.923 1_565 S
C1434 C1432 1.381 . S
C1434 C1435 1.394 1_655 S
C1434 H1442 0.930 . S
C1435 C1434 1.394 1_455 S
C1435 C1436 1.383 . S
C1435 H1443 0.940 . S
C1436 C1435 1.383 . S
C1436 C1437 1.377 . S
C1437 H1421 0.930 1_545 S
C1437 C1436 1.377 . S
C1437 C1438 1.379 . S
C1438 H1422 0.931 1_545 S
C1438 C1432 1.383 1_455 S
C1438 C1437 1.379 . S
H1439 C1433 0.960 . S
H1440 C1433 1.016 . S
H1441 C1433 0.923 1_545 S
H1442 C1434 0.930 . S
H1443 C1435 0.940 . S
H1444 C1452 0.929 . S
H1445 C1454 0.930 . S
H1446 C1456 0.930 . S
H1447 C1459 0.929 . S
H1448 C1462 0.930 . S
H1449 C1464 0.960 . S
H1450 C1464 0.960 . S
H1451 C1464 0.960 . S
C1452 H1444 0.929 . S
C1452 C1453 1.377 . S
C1452 C1454 1.384 . S
C1453 C1452 1.377 . S
C1453 C1459 1.390 . S
C1454 H1445 0.930 . S
C1454 C1452 1.384 . S
C1454 C1455 1.372 . S
C1455 C1454 1.372 . S
C1455 C1456 1.400 . S
C1455 C1460 1.490 . S
C1456 H1446 0.930 . S
C1456 C1455 1.400 . S
C1456 C1459 1.386 . S
H1457 C1473 0.930 . S
H1458 C1474 0.931 . S
C1459 H1447 0.929 . S
C1459 C1453 1.390 . S
C1459 C1456 1.386 . S
C1460 C1455 1.490 . S
C1460 C1462 1.395 . S
C1460 C1463 1.403 . S
H1461 C1467 0.930 . S
C1462 H1448 0.930 . S
C1462 C1460 1.395 . S
C1462 C1465 1.403 . S
C1463 C1460 1.403 . S
C1463 C1464 1.524 . S
C1463 C1467 1.400 . S
C1464 H1449 0.960 . S
C1464 H1450 0.960 . S
C1464 H1451 0.960 . S
C1464 C1463 1.524 . S
C1465 C1462 1.403 . S
C1465 C1466 1.392 . S
C1465 C1469 1.495 . S
C1466 C1465 1.392 . S
C1466 C1467 1.385 . S
C1466 C1468 1.478 . S
C1467 H1461 0.930 . S
C1467 C1463 1.400 . S
C1467 C1466 1.385 . S
C1468 C1466 1.478 . S
C1468 C1470 1.381 . S
C1468 C1474 1.383 . S
C1469 C1465 1.495 . S
C1469 H1475 0.959 . S
C1469 H1476 0.961 . S
C1469 H1477 0.960 . S
C1470 C1468 1.381 . S
C1470 C1471 1.394 . S
C1470 H1478 0.930 . S
C1471 C1470 1.394 . S
C1471 C1472 1.383 . S
C1471 H1479 0.929 . S
C1472 C1471 1.383 . S
C1472 C1473 1.377 . S
C1473 H1457 0.930 . S
C1473 C1472 1.377 . S
C1473 C1474 1.379 . S
C1474 H1458 0.931 . S
C1474 C1468 1.383 . S
C1474 C1473 1.379 . S
H1475 C1469 0.959 . S
H1476 C1469 0.961 . S
H1477 C1469 0.960 . S
H1478 C1470 0.930 . S
H1479 C1471 0.929 . S
H1480 C1488 0.929 1_565 S
H1481 C1490 0.930 1_565 S
H1482 C1492 0.930 . S
H1483 C1495 0.929 . S
H1484 C1498 0.930 1_565 S
H1485 C1500 0.960 . S
H1486 C1500 0.960 . S
H1487 C1500 0.960 . S
C1488 H1480 0.929 1_545 S
C1488 C1489 1.377 . S
C1488 C1490 1.384 . S
C1489 C1488 1.377 . S
C1489 C1495 1.390 . S
C1490 H1481 0.930 1_545 S
C1490 C1488 1.384 . S
C1490 C1491 1.372 . S
C1491 C1490 1.372 . S
C1491 C1492 1.400 . S
C1491 C1496 1.490 . S
C1492 H1482 0.930 . S
C1492 C1491 1.400 . S
C1492 C1495 1.386 . S
H1493 C1509 0.930 . S
H1494 C1510 0.931 . S
C1495 H1483 0.929 . S
C1495 C1489 1.390 . S
C1495 C1492 1.386 . S
C1496 C1491 1.490 . S
C1496 C1498 1.395 . S
C1496 C1499 1.403 . S
H1497 C1503 0.930 . S
C1498 H1484 0.930 1_545 S
C1498 C1496 1.395 . S
C1498 C1501 1.403 . S
C1499 C1496 1.403 . S
C1499 C1500 1.524 . S
C1499 C1503 1.400 . S
C1500 H1485 0.960 . S
C1500 H1486 0.960 . S
C1500 H1487 0.960 . S
C1500 C1499 1.524 . S
C1501 C1498 1.403 . S
C1501 C1502 1.392 . S
C1501 C1505 1.495 1_545 S
C1502 C1501 1.392 . S
C1502 C1503 1.385 . S
C1502 C1504 1.478 . S
C1503 H1497 0.930 . S
C1503 C1499 1.400 . S
C1503 C1502 1.385 . S
C1504 C1502 1.478 . S
C1504 C1506 1.381 . S
C1504 C1510 1.383 . S
C1505 C1501 1.495 1_565 S
C1505 H1511 0.959 . S
C1505 H1512 0.958 1_565 S
C1505 H1513 0.960 . S
C1506 C1504 1.381 . S
C1506 C1507 1.394 . S
C1506 H1514 0.930 . S
C1507 C1506 1.394 . S
C1507 C1508 1.383 . S
C1507 H1515 0.929 . S
C1508 C1507 1.383 . S
C1508 C1509 1.377 . S
C1509 H1493 0.930 . S
C1509 C1508 1.377 . S
C1509 C1510 1.379 . S
C1510 H1494 0.931 . S
C1510 C1504 1.383 . S
C1510 C1509 1.379 . S
H1511 C1505 0.959 . S
H1512 C1505 0.958 1_545 S
H1513 C1505 0.960 . S
H1514 C1506 0.930 . S
H1515 C1507 0.929 . S
H1516 C1524 0.929 . S
H1517 C1526 0.930 . S
H1518 C1528 0.930 . S
H1519 C1531 0.929 . S
H1520 C1534 0.930 . S
H1521 C1536 0.960 . S
H1522 C1536 0.960 . S
H1523 C1536 0.960 . S
C1524 H1516 0.929 . S
C1524 C1525 1.377 . S
C1524 C1526 1.384 . S
C1525 C1524 1.377 . S
C1525 C1531 1.390 . S
C1526 H1517 0.930 . S
C1526 C1524 1.384 . S
C1526 C1527 1.372 . S
C1527 C1526 1.372 . S
C1527 C1528 1.400 . S
C1527 C1532 1.490 . S
C1528 H1518 0.930 . S
C1528 C1527 1.400 . S
C1528 C1531 1.386 . S
H1529 C1545 0.930 . S
H1530 C1546 0.931 . S
C1531 H1519 0.929 . S
C1531 C1525 1.390 . S
C1531 C1528 1.386 . S
C1532 C1527 1.490 . S
C1532 C1534 1.395 . S
C1532 C1535 1.403 . S
H1533 C1539 0.930 . S
C1534 H1520 0.930 . S
C1534 C1532 1.395 . S
C1534 C1537 1.403 . S
C1535 C1532 1.403 . S
C1535 C1536 1.524 . S
C1535 C1539 1.400 . S
C1536 H1521 0.960 . S
C1536 H1522 0.960 . S
C1536 H1523 0.960 . S
C1536 C1535 1.524 . S
C1537 C1534 1.403 . S
C1537 C1538 1.392 . S
C1537 C1541 1.495 . S
C1538 C1537 1.392 . S
C1538 C1539 1.385 . S
C1538 C1540 1.478 . S
C1539 H1533 0.930 . S
C1539 C1535 1.400 . S
C1539 C1538 1.385 . S
C1540 C1538 1.478 . S
C1540 C1542 1.381 . S
C1540 C1546 1.383 . S
C1541 C1537 1.495 . S
C1541 H1547 0.959 . S
C1541 H1548 0.961 . S
C1541 H1549 0.960 . S
C1542 C1540 1.381 . S
C1542 C1543 1.394 . S
C1542 H1550 0.930 . S
C1543 C1542 1.394 . S
C1543 C1544 1.383 . S
C1543 H1551 0.929 . S
C1544 C1543 1.383 . S
C1544 C1545 1.377 . S
C1545 H1529 0.930 . S
C1545 C1544 1.377 . S
C1545 C1546 1.379 . S
C1546 H1530 0.931 . S
C1546 C1540 1.383 . S
C1546 C1545 1.379 . S
H1547 C1541 0.959 . S
H1548 C1541 0.961 . S
H1549 C1541 0.960 . S
H1550 C1542 0.930 . S
H1551 C1543 0.929 . S
H1552 C1560 0.929 . S
H1553 C1562 0.930 . S
H1554 C1564 0.930 . S
H1555 C1567 0.929 . S
H1556 C1570 0.930 . S
H1557 C1572 0.960 . S
H1558 C1572 0.967 . S
H1559 C1572 0.960 . S
C1560 H1552 0.929 . S
C1560 C1561 1.364 1_556 S
C1560 C1562 1.384 . S
C1561 C1560 1.364 1_554 S
C1561 C1567 1.420 . S
C1562 H1553 0.930 . S
C1562 C1560 1.384 . S
C1562 C1563 1.372 1_556 S
C1563 C1562 1.372 1_554 S
C1563 C1564 1.400 . S
C1563 C1568 1.490 . S
C1564 H1554 0.930 . S
C1564 C1563 1.400 . S
C1564 C1567 1.386 . S
H1565 C1581 0.930 . S
H1566 C1582 0.931 . S
C1567 H1555 0.929 . S
C1567 C1561 1.420 . S
C1567 C1564 1.386 . S
C1568 C1563 1.490 . S
C1568 C1570 1.395 . S
C1568 C1571 1.403 . S
H1569 C1575 0.930 . S
C1570 H1556 0.930 . S
C1570 C1568 1.395 . S
C1570 C1573 1.403 . S
C1571 C1568 1.403 . S
C1571 C1572 1.524 . S
C1571 C1575 1.400 . S
C1572 H1557 0.960 . S
C1572 H1558 0.967 . S
C1572 H1559 0.960 . S
C1572 C1571 1.524 . S
C1573 C1570 1.403 . S
C1573 C1574 1.392 . S
C1573 C1577 1.495 . S
C1574 C1573 1.392 . S
C1574 C1575 1.385 . S
C1574 C1576 1.478 . S
C1575 H1569 0.930 . S
C1575 C1571 1.400 . S
C1575 C1574 1.385 . S
C1576 C1574 1.478 . S
C1576 C1578 1.381 . S
C1576 C1582 1.383 . S
C1577 C1573 1.495 . S
C1577 H1583 0.959 . S
C1577 H1584 0.961 . S
C1577 H1585 0.960 . S
C1578 C1576 1.381 . S
C1578 C1579 1.394 . S
C1578 H1586 0.930 . S
C1579 C1578 1.394 . S
C1579 C1580 1.383 . S
C1579 H1587 0.929 . S
C1580 C1579 1.383 . S
C1580 C1581 1.377 . S
C1581 H1565 0.930 . S
C1581 C1580 1.377 . S
C1581 C1582 1.379 . S
C1582 H1566 0.931 . S
C1582 C1576 1.383 . S
C1582 C1581 1.379 . S
H1583 C1577 0.959 . S
H1584 C1577 0.961 . S
H1585 C1577 0.960 . S
H1586 C1578 0.930 . S
H1587 C1579 0.929 . S
H1588 C1596 0.929 . S
H1589 C1598 0.930 . S
H1590 C1600 0.930 . S
H1591 C1603 0.929 . S
H1592 C1606 0.930 . S
H1593 C1608 0.960 . S
H1594 C1608 0.960 . S
H1595 C1608 0.960 . S
C1596 H1588 0.929 . S
C1596 C1597 1.377 1_556 S
C1596 C1598 1.384 . S
C1597 C1596 1.377 1_554 S
C1597 C1603 1.390 . S
C1598 H1589 0.930 . S
C1598 C1596 1.384 . S
C1598 C1599 1.372 1_556 S
C1599 C1598 1.372 1_554 S
C1599 C1600 1.400 . S
C1599 C1604 1.490 . S
C1600 H1590 0.930 . S
C1600 C1599 1.400 . S
C1600 C1603 1.386 . S
H1601 C1617 0.930 . S
H1602 C1618 0.931 . S
C1603 H1591 0.929 . S
C1603 C1597 1.390 . S
C1603 C1600 1.386 . S
C1604 C1599 1.490 . S
C1604 C1606 1.395 . S
C1604 C1607 1.403 . S
H1605 C1611 0.930 . S
C1606 H1592 0.930 . S
C1606 C1604 1.395 . S
C1606 C1609 1.403 . S
C1607 C1604 1.403 . S
C1607 C1608 1.524 . S
C1607 C1611 1.400 . S
C1608 H1593 0.960 . S
C1608 H1594 0.960 . S
C1608 H1595 0.960 . S
C1608 C1607 1.524 . S
C1609 C1606 1.403 . S
C1609 C1610 1.392 . S
C1609 C1613 1.496 1_554 S
C1610 C1609 1.392 . S
C1610 C1611 1.385 . S
C1610 C1612 1.478 . S
C1611 H1605 0.930 . S
C1611 C1607 1.400 . S
C1611 C1610 1.385 . S
C1612 C1610 1.478 . S
C1612 C1614 1.381 1_554 S
C1612 C1618 1.383 . S
C1613 C1609 1.496 1_556 S
C1613 H1619 0.957 . S
C1613 H1620 0.966 1_556 S
C1613 H1621 0.956 . S
C1614 C1612 1.381 1_556 S
C1614 C1615 1.405 . S
C1614 H1622 0.930 . S
C1615 C1614 1.405 . S
C1615 C1616 1.345 1_556 S
C1615 H1623 0.958 . S
C1616 C1615 1.345 1_554 S
C1616 C1617 1.377 . S
C1617 H1601 0.930 . S
C1617 C1616 1.377 . S
C1617 C1618 1.379 . S
C1618 H1602 0.931 . S
C1618 C1612 1.383 . S
C1618 C1617 1.379 . S
H1619 C1613 0.957 . S
H1620 C1613 0.966 1_554 S
H1621 C1613 0.956 . S
H1622 C1614 0.930 . S
H1623 C1615 0.958 . S
H1624 C1632 0.929 . S
H1625 C1634 0.930 . S
H1626 C1636 0.930 . S
H1627 C1639 0.929 . S
H1628 C1642 0.930 . S
H1629 C1644 0.960 . S
H1630 C1644 0.960 . S
H1631 C1644 0.960 . S
C1632 H1624 0.929 . S
C1632 C1633 1.377 . S
C1632 C1634 1.384 . S
C1633 C1632 1.377 . S
C1633 C1639 1.390 . S
C1634 H1625 0.930 . S
C1634 C1632 1.384 . S
C1634 C1635 1.372 . S
C1635 C1634 1.372 . S
C1635 C1636 1.400 . S
C1635 C1640 1.490 . S
C1636 H1626 0.930 . S
C1636 C1635 1.400 . S
C1636 C1639 1.386 . S
H1637 C1653 0.930 . S
H1638 C1654 0.931 . S
C1639 H1627 0.929 . S
C1639 C1633 1.390 . S
C1639 C1636 1.386 . S
C1640 C1635 1.490 . S
C1640 C1642 1.395 . S
C1640 C1643 1.403 . S
H1641 C1647 0.930 . S
C1642 H1628 0.930 . S
C1642 C1640 1.395 . S
C1642 C1645 1.403 . S
C1643 C1640 1.403 . S
C1643 C1644 1.524 . S
C1643 C1647 1.400 . S
C1644 H1629 0.960 . S
C1644 H1630 0.960 . S
C1644 H1631 0.960 . S
C1644 C1643 1.524 . S
C1645 C1642 1.403 . S
C1645 C1646 1.392 . S
C1645 C1649 1.495 . S
C1646 C1645 1.392 . S
C1646 C1647 1.385 . S
C1646 C1648 1.478 . S
C1647 H1641 0.930 . S
C1647 C1643 1.400 . S
C1647 C1646 1.385 . S
C1648 C1646 1.478 . S
C1648 C1650 1.381 . S
C1648 C1654 1.383 . S
C1649 C1645 1.495 . S
C1649 H1655 0.959 . S
C1649 H1656 0.961 . S
C1649 H1657 0.960 . S
C1650 C1648 1.381 . S
C1650 C1651 1.394 . S
C1650 H1658 0.930 . S
C1651 C1650 1.394 . S
C1651 C1652 1.383 . S
C1651 H1659 0.929 . S
C1652 C1651 1.383 . S
C1652 C1653 1.377 . S
C1653 H1637 0.930 . S
C1653 C1652 1.377 . S
C1653 C1654 1.379 . S
C1654 H1638 0.931 . S
C1654 C1648 1.383 . S
C1654 C1653 1.379 . S
H1655 C1649 0.959 . S
H1656 C1649 0.961 . S
H1657 C1649 0.960 . S
H1658 C1650 0.930 . S
H1659 C1651 0.929 . S
H1660 C1668 0.929 . S
H1661 C1670 0.930 . S
H1662 C1672 0.930 . S
H1663 C1675 0.929 . S
H1664 C1678 0.930 . S
H1665 C1680 0.960 . S
H1666 C1680 0.960 . S
H1667 C1680 0.960 . S
C1668 H1660 0.929 . S
C1668 C1669 1.377 . S
C1668 C1670 1.384 . S
C1669 C1668 1.377 . S
C1669 C1675 1.390 . S
C1670 H1661 0.930 . S
C1670 C1668 1.384 . S
C1670 C1671 1.372 . S
C1671 C1670 1.372 . S
C1671 C1672 1.400 . S
C1671 C1676 1.490 . S
C1672 H1662 0.930 . S
C1672 C1671 1.400 . S
C1672 C1675 1.386 . S
H1673 C1689 0.930 . S
H1674 C1690 0.931 . S
C1675 H1663 0.929 . S
C1675 C1669 1.390 . S
C1675 C1672 1.386 . S
C1676 C1671 1.490 . S
C1676 C1678 1.395 . S
C1676 C1679 1.403 . S
H1677 C1683 0.930 . S
C1678 H1664 0.930 . S
C1678 C1676 1.395 . S
C1678 C1681 1.403 . S
C1679 C1676 1.403 . S
C1679 C1680 1.524 . S
C1679 C1683 1.400 . S
C1680 H1665 0.960 . S
C1680 H1666 0.960 . S
C1680 H1667 0.960 . S
C1680 C1679 1.524 . S
C1681 C1678 1.403 . S
C1681 C1682 1.392 . S
C1681 C1685 1.495 . S
C1682 C1681 1.392 . S
C1682 C1683 1.385 . S
C1682 C1684 1.478 . S
C1683 H1677 0.930 . S
C1683 C1679 1.400 . S
C1683 C1682 1.385 . S
C1684 C1682 1.478 . S
C1684 C1686 1.381 . S
C1684 C1690 1.383 . S
C1685 C1681 1.495 . S
C1685 H1691 0.959 . S
C1685 H1692 0.961 . S
C1685 H1693 0.960 . S
C1686 C1684 1.381 . S
C1686 C1687 1.394 . S
C1686 H1694 0.930 . S
C1687 C1686 1.394 . S
C1687 C1688 1.383 . S
C1687 H1695 0.929 . S
C1688 C1687 1.383 . S
C1688 C1689 1.377 . S
C1689 H1673 0.930 . S
C1689 C1688 1.377 . S
C1689 C1690 1.379 . S
C1690 H1674 0.931 . S
C1690 C1684 1.383 . S
C1690 C1689 1.379 . S
H1691 C1685 0.959 . S
H1692 C1685 0.961 . S
H1693 C1685 0.960 . S
H1694 C1686 0.930 . S
H1695 C1687 0.929 . S
H1696 C1704 0.929 . S
H1697 C1706 0.930 . S
H1698 C1708 0.930 . S
H1699 C1711 0.929 . S
H1700 C1714 0.930 . S
H1701 C1716 0.960 . S
H1702 C1716 0.960 . S
H1703 C1716 0.960 . S
C1704 H1696 0.929 . S
C1704 C1705 1.377 . S
C1704 C1706 1.384 . S
C1705 C1704 1.377 . S
C1705 C1711 1.390 . S
C1706 H1697 0.930 . S
C1706 C1704 1.384 . S
C1706 C1707 1.372 . S
C1707 C1706 1.372 . S
C1707 C1708 1.400 . S
C1707 C1712 1.490 . S
C1708 H1698 0.930 . S
C1708 C1707 1.400 . S
C1708 C1711 1.386 . S
H1709 C1725 0.930 . S
H1710 C1726 0.931 . S
C1711 H1699 0.929 . S
C1711 C1705 1.390 . S
C1711 C1708 1.386 . S
C1712 C1707 1.490 . S
C1712 C1714 1.395 . S
C1712 C1715 1.403 . S
H1713 C1719 0.930 . S
C1714 H1700 0.930 . S
C1714 C1712 1.395 . S
C1714 C1717 1.403 . S
C1715 C1712 1.403 . S
C1715 C1716 1.524 . S
C1715 C1719 1.400 . S
C1716 H1701 0.960 . S
C1716 H1702 0.960 . S
C1716 H1703 0.960 . S
C1716 C1715 1.524 . S
C1717 C1714 1.403 . S
C1717 C1718 1.392 . S
C1717 C1721 1.495 . S
C1718 C1717 1.392 . S
C1718 C1719 1.385 . S
C1718 C1720 1.478 . S
C1719 H1713 0.930 . S
C1719 C1715 1.400 . S
C1719 C1718 1.385 . S
C1720 C1718 1.478 . S
C1720 C1722 1.381 . S
C1720 C1726 1.383 . S
C1721 C1717 1.495 . S
C1721 H1727 0.959 . S
C1721 H1728 0.961 . S
C1721 H1729 0.960 . S
C1722 C1720 1.381 . S
C1722 C1723 1.394 . S
C1722 H1730 0.930 . S
C1723 C1722 1.394 . S
C1723 C1724 1.383 . S
C1723 H1731 0.929 . S
C1724 C1723 1.383 . S
C1724 C1725 1.377 . S
C1725 H1709 0.930 . S
C1725 C1724 1.377 . S
C1725 C1726 1.379 . S
C1726 H1710 0.931 . S
C1726 C1720 1.383 . S
C1726 C1725 1.379 . S
H1727 C1721 0.959 . S
H1728 C1721 0.961 . S
H1729 C1721 0.960 . S
H1730 C1722 0.930 . S
H1731 C1723 0.929 . S
H1732 C1740 0.929 . S
H1733 C1742 0.930 . S
H1734 C1744 0.930 . S
H1735 C1747 0.929 . S
H1736 C1750 0.930 . S
H1737 C1752 0.960 . S
H1738 C1752 0.960 . S
H1739 C1752 0.960 . S
C1740 H1732 0.929 . S
C1740 C1741 1.377 . S
C1740 C1742 1.384 . S
C1741 C1740 1.377 . S
C1741 C1747 1.390 . S
C1742 H1733 0.930 . S
C1742 C1740 1.384 . S
C1742 C1743 1.372 . S
C1743 C1742 1.372 . S
C1743 C1744 1.400 . S
C1743 C1748 1.490 . S
C1744 H1734 0.930 . S
C1744 C1743 1.400 . S
C1744 C1747 1.386 . S
H1745 C1761 0.930 . S
H1746 C1762 0.931 . S
C1747 H1735 0.929 . S
C1747 C1741 1.390 . S
C1747 C1744 1.386 . S
C1748 C1743 1.490 . S
C1748 C1750 1.395 . S
C1748 C1751 1.403 . S
H1749 C1755 0.930 . S
C1750 H1736 0.930 . S
C1750 C1748 1.395 . S
C1750 C1753 1.403 . S
C1751 C1748 1.403 . S
C1751 C1752 1.524 . S
C1751 C1755 1.400 . S
C1752 H1737 0.960 . S
C1752 H1738 0.960 . S
C1752 H1739 0.960 . S
C1752 C1751 1.524 . S
C1753 C1750 1.403 . S
C1753 C1754 1.392 . S
C1753 C1757 1.495 . S
C1754 C1753 1.392 . S
C1754 C1755 1.385 . S
C1754 C1756 1.478 . S
C1755 H1749 0.930 . S
C1755 C1751 1.400 . S
C1755 C1754 1.385 . S
C1756 C1754 1.478 . S
C1756 C1758 1.381 . S
C1756 C1762 1.383 . S
C1757 C1753 1.495 . S
C1757 H1763 0.959 . S
C1757 H1764 0.961 . S
C1757 H1765 0.960 . S
C1758 C1756 1.381 . S
C1758 C1759 1.394 . S
C1758 H1766 0.930 . S
C1759 C1758 1.394 . S
C1759 C1760 1.383 . S
C1759 H1767 0.929 . S
C1760 C1759 1.383 . S
C1760 C1761 1.377 . S
C1761 H1745 0.930 . S
C1761 C1760 1.377 . S
C1761 C1762 1.379 . S
C1762 H1746 0.931 . S
C1762 C1756 1.383 . S
C1762 C1761 1.379 . S
H1763 C1757 0.959 . S
H1764 C1757 0.961 . S
H1765 C1757 0.960 . S
H1766 C1758 0.930 . S
H1767 C1759 0.929 . S
H1768 C1776 0.929 . S
H1769 C1778 0.930 . S
H1770 C1780 0.930 . S
H1771 C1783 0.929 . S
H1772 C1786 0.930 . S
H1773 C1788 0.960 . S
H1774 C1788 0.960 . S
H1775 C1788 0.960 . S
C1776 H1768 0.929 . S
C1776 C1777 1.377 . S
C1776 C1778 1.384 . S
C1777 C1776 1.377 . S
C1777 C1783 1.390 . S
C1778 H1769 0.930 . S
C1778 C1776 1.384 . S
C1778 C1779 1.372 . S
C1779 C1778 1.372 . S
C1779 C1780 1.400 . S
C1779 C1784 1.490 . S
C1780 H1770 0.930 . S
C1780 C1779 1.400 . S
C1780 C1783 1.386 . S
H1781 C1797 0.930 . S
H1782 C1798 0.931 . S
C1783 H1771 0.929 . S
C1783 C1777 1.390 . S
C1783 C1780 1.386 . S
C1784 C1779 1.490 . S
C1784 C1786 1.395 . S
C1784 C1787 1.403 . S
H1785 C1791 0.930 . S
C1786 H1772 0.930 . S
C1786 C1784 1.395 . S
C1786 C1789 1.403 . S
C1787 C1784 1.403 . S
C1787 C1788 1.524 . S
C1787 C1791 1.400 . S
C1788 H1773 0.960 . S
C1788 H1774 0.960 . S
C1788 H1775 0.960 . S
C1788 C1787 1.524 . S
C1789 C1786 1.403 . S
C1789 C1790 1.392 . S
C1789 C1793 1.495 . S
C1790 C1789 1.392 . S
C1790 C1791 1.385 . S
C1790 C1792 1.478 . S
C1791 H1785 0.930 . S
C1791 C1787 1.400 . S
C1791 C1790 1.385 . S
C1792 C1790 1.478 . S
C1792 C1794 1.381 . S
C1792 C1798 1.383 . S
C1793 C1789 1.495 . S
C1793 H1799 0.959 . S
C1793 H1800 0.961 . S
C1793 H1801 0.960 . S
C1794 C1792 1.381 . S
C1794 C1795 1.394 . S
C1794 H1802 0.930 . S
C1795 C1794 1.394 . S
C1795 C1796 1.383 . S
C1795 H1803 0.929 . S
C1796 C1795 1.383 . S
C1796 C1797 1.377 . S
C1797 H1781 0.930 . S
C1797 C1796 1.377 . S
C1797 C1798 1.379 . S
C1798 H1782 0.931 . S
C1798 C1792 1.383 . S
C1798 C1797 1.379 . S
H1799 C1793 0.959 . S
H1800 C1793 0.961 . S
H1801 C1793 0.960 . S
H1802 C1794 0.930 . S
H1803 C1795 0.929 . S
H1804 C1812 0.929 . S
H1805 C1814 0.930 . S
H1806 C1816 0.930 . S
H1807 C1819 0.929 . S
H1808 C1822 0.930 . S
H1809 C1824 0.960 . S
H1810 C1824 0.960 . S
H1811 C1824 0.960 . S
C1812 H1804 0.929 . S
C1812 C1813 1.377 . S
C1812 C1814 1.384 . S
C1813 C1812 1.377 . S
C1813 C1819 1.390 . S
C1814 H1805 0.930 . S
C1814 C1812 1.384 . S
C1814 C1815 1.372 . S
C1815 C1814 1.372 . S
C1815 C1816 1.400 . S
C1815 C1820 1.490 . S
C1816 H1806 0.930 . S
C1816 C1815 1.400 . S
C1816 C1819 1.386 . S
H1817 C1833 0.930 . S
H1818 C1834 0.931 . S
C1819 H1807 0.929 . S
C1819 C1813 1.390 . S
C1819 C1816 1.386 . S
C1820 C1815 1.490 . S
C1820 C1822 1.395 . S
C1820 C1823 1.403 . S
H1821 C1827 0.930 . S
C1822 H1808 0.930 . S
C1822 C1820 1.395 . S
C1822 C1825 1.403 . S
C1823 C1820 1.403 . S
C1823 C1824 1.524 . S
C1823 C1827 1.400 . S
C1824 H1809 0.960 . S
C1824 H1810 0.960 . S
C1824 H1811 0.960 . S
C1824 C1823 1.524 . S
C1825 C1822 1.403 . S
C1825 C1826 1.392 . S
C1825 C1829 1.495 . S
C1826 C1825 1.392 . S
C1826 C1827 1.385 . S
C1826 C1828 1.478 . S
C1827 H1821 0.930 . S
C1827 C1823 1.400 . S
C1827 C1826 1.385 . S
C1828 C1826 1.478 . S
C1828 C1830 1.381 . S
C1828 C1834 1.383 . S
C1829 C1825 1.495 . S
C1829 H1835 0.959 . S
C1829 H1836 0.961 . S
C1829 H1837 0.960 . S
C1830 C1828 1.381 . S
C1830 C1831 1.394 . S
C1830 H1838 0.930 . S
C1831 C1830 1.394 . S
C1831 C1832 1.383 . S
C1831 H1839 0.929 . S
C1832 C1831 1.383 . S
C1832 C1833 1.377 . S
C1833 H1817 0.930 . S
C1833 C1832 1.377 . S
C1833 C1834 1.379 . S
C1834 H1818 0.931 . S
C1834 C1828 1.383 . S
C1834 C1833 1.379 . S
H1835 C1829 0.959 . S
H1836 C1829 0.961 . S
H1837 C1829 0.960 . S
H1838 C1830 0.930 . S
H1839 C1831 0.929 . S
H1840 C1848 0.929 . S
H1841 C1850 0.930 . S
H1842 C1852 0.930 . S
H1843 C1855 0.929 . S
H1844 C1858 0.930 . S
H1845 C1860 0.960 . S
H1846 C1860 0.960 . S
H1847 C1860 0.960 . S
C1848 H1840 0.929 . S
C1848 C1849 1.377 . S
C1848 C1850 1.384 . S
C1849 C1848 1.377 . S
C1849 C1855 1.390 . S
C1850 H1841 0.930 . S
C1850 C1848 1.384 . S
C1850 C1851 1.372 . S
C1851 C1850 1.372 . S
C1851 C1852 1.400 . S
C1851 C1856 1.490 . S
C1852 H1842 0.930 . S
C1852 C1851 1.400 . S
C1852 C1855 1.386 . S
H1853 C1869 0.930 . S
H1854 C1870 0.931 . S
C1855 H1843 0.929 . S
C1855 C1849 1.390 . S
C1855 C1852 1.386 . S
C1856 C1851 1.490 . S
C1856 C1858 1.395 . S
C1856 C1859 1.403 . S
H1857 C1863 0.930 . S
C1858 H1844 0.930 . S
C1858 C1856 1.395 . S
C1858 C1861 1.403 . S
C1859 C1856 1.403 . S
C1859 C1860 1.524 . S
C1859 C1863 1.400 . S
C1860 H1845 0.960 . S
C1860 H1846 0.960 . S
C1860 H1847 0.960 . S
C1860 C1859 1.524 . S
C1861 C1858 1.403 . S
C1861 C1862 1.392 . S
C1861 C1865 1.495 . S
C1862 C1861 1.392 . S
C1862 C1863 1.385 . S
C1862 C1864 1.478 . S
C1863 H1857 0.930 . S
C1863 C1859 1.400 . S
C1863 C1862 1.385 . S
C1864 C1862 1.478 . S
C1864 C1866 1.381 . S
C1864 C1870 1.383 . S
C1865 C1861 1.495 . S
C1865 H1871 0.959 . S
C1865 H1872 0.961 . S
C1865 H1873 0.960 . S
C1866 C1864 1.381 . S
C1866 C1867 1.394 . S
C1866 H1874 0.930 . S
C1867 C1866 1.394 . S
C1867 C1868 1.383 . S
C1867 H1875 0.929 . S
C1868 C1867 1.383 . S
C1868 C1869 1.377 . S
C1869 H1853 0.930 . S
C1869 C1868 1.377 . S
C1869 C1870 1.379 . S
C1870 H1854 0.931 . S
C1870 C1864 1.383 . S
C1870 C1869 1.379 . S
H1871 C1865 0.959 . S
H1872 C1865 0.961 . S
H1873 C1865 0.960 . S
H1874 C1866 0.930 . S
H1875 C1867 0.929 . S
H1876 C1884 0.929 . S
H1877 C1886 0.930 . S
H1878 C1888 0.930 . S
H1879 C1891 0.929 . S
H1880 C1894 0.930 . S
H1881 C1896 0.960 . S
H1882 C1896 0.960 . S
H1883 C1896 0.960 . S
C1884 H1876 0.929 . S
C1884 C1885 1.377 . S
C1884 C1886 1.384 . S
C1885 C1884 1.377 . S
C1885 C1891 1.390 . S
C1886 H1877 0.930 . S
C1886 C1884 1.384 . S
C1886 C1887 1.372 . S
C1887 C1886 1.372 . S
C1887 C1888 1.400 . S
C1887 C1892 1.490 . S
C1888 H1878 0.930 . S
C1888 C1887 1.400 . S
C1888 C1891 1.386 . S
H1889 C1905 0.930 . S
H1890 C1906 0.931 . S
C1891 H1879 0.929 . S
C1891 C1885 1.390 . S
C1891 C1888 1.386 . S
C1892 C1887 1.490 . S
C1892 C1894 1.395 . S
C1892 C1895 1.403 . S
H1893 C1899 0.930 . S
C1894 H1880 0.930 . S
C1894 C1892 1.395 . S
C1894 C1897 1.403 . S
C1895 C1892 1.403 . S
C1895 C1896 1.524 . S
C1895 C1899 1.400 . S
C1896 H1881 0.960 . S
C1896 H1882 0.960 . S
C1896 H1883 0.960 . S
C1896 C1895 1.524 . S
C1897 C1894 1.403 . S
C1897 C1898 1.392 . S
C1897 C1901 1.495 . S
C1898 C1897 1.392 . S
C1898 C1899 1.385 . S
C1898 C1900 1.478 . S
C1899 H1893 0.930 . S
C1899 C1895 1.400 . S
C1899 C1898 1.385 . S
C1900 C1898 1.478 . S
C1900 C1902 1.381 . S
C1900 C1906 1.383 . S
C1901 C1897 1.495 . S
C1901 H1907 0.959 . S
C1901 H1908 0.961 . S
C1901 H1909 0.960 . S
C1902 C1900 1.381 . S
C1902 C1903 1.394 . S
C1902 H1910 0.930 . S
C1903 C1902 1.394 . S
C1903 C1904 1.383 . S
C1903 H1911 0.929 . S
C1904 C1903 1.383 . S
C1904 C1905 1.377 . S
C1905 H1889 0.930 . S
C1905 C1904 1.377 . S
C1905 C1906 1.379 . S
C1906 H1890 0.931 . S
C1906 C1900 1.383 . S
C1906 C1905 1.379 . S
H1907 C1901 0.959 . S
H1908 C1901 0.961 . S
H1909 C1901 0.960 . S
H1910 C1902 0.930 . S
H1911 C1903 0.929 . S
H1912 C1920 0.929 . S
H1913 C1922 0.930 . S
H1914 C1924 0.930 . S
H1915 C1927 0.929 . S
H1916 C1930 0.930 . S
H1917 C1932 0.960 . S
H1918 C1932 0.960 . S
H1919 C1932 0.960 . S
C1920 H1912 0.929 . S
C1920 C1921 1.377 . S
C1920 C1922 1.384 . S
C1921 C1920 1.377 . S
C1921 C1927 1.390 . S
C1922 H1913 0.930 . S
C1922 C1920 1.384 . S
C1922 C1923 1.372 . S
C1923 C1922 1.372 . S
C1923 C1924 1.400 . S
C1923 C1928 1.490 . S
C1924 H1914 0.930 . S
C1924 C1923 1.400 . S
C1924 C1927 1.386 . S
H1925 C1941 0.930 . S
H1926 C1942 0.931 . S
C1927 H1915 0.929 . S
C1927 C1921 1.390 . S
C1927 C1924 1.386 . S
C1928 C1923 1.490 . S
C1928 C1930 1.395 . S
C1928 C1931 1.403 . S
H1929 C1935 0.930 . S
C1930 H1916 0.930 . S
C1930 C1928 1.395 . S
C1930 C1933 1.403 . S
C1931 C1928 1.403 . S
C1931 C1932 1.524 . S
C1931 C1935 1.400 . S
C1932 H1917 0.960 . S
C1932 H1918 0.960 . S
C1932 H1919 0.960 . S
C1932 C1931 1.524 . S
C1933 C1930 1.403 . S
C1933 C1934 1.392 . S
C1933 C1937 1.495 . S
C1934 C1933 1.392 . S
C1934 C1935 1.385 . S
C1934 C1936 1.478 . S
C1935 H1929 0.930 . S
C1935 C1931 1.400 . S
C1935 C1934 1.385 . S
C1936 C1934 1.478 . S
C1936 C1938 1.381 . S
C1936 C1942 1.383 . S
C1937 C1933 1.495 . S
C1937 H1943 0.959 . S
C1937 H1944 0.961 . S
C1937 H1945 0.960 . S
C1938 C1936 1.381 . S
C1938 C1939 1.394 . S
C1938 H1946 0.930 . S
C1939 C1938 1.394 . S
C1939 C1940 1.383 . S
C1939 H1947 0.929 . S
C1940 C1939 1.383 . S
C1940 C1941 1.377 . S
C1941 H1925 0.930 . S
C1941 C1940 1.377 . S
C1941 C1942 1.379 . S
C1942 H1926 0.931 . S
C1942 C1936 1.383 . S
C1942 C1941 1.379 . S
H1943 C1937 0.959 . S
H1944 C1937 0.961 . S
H1945 C1937 0.960 . S
H1946 C1938 0.930 . S
H1947 C1939 0.929 . S
H1948 C1956 0.929 . S
H1949 C1958 0.930 . S
H1950 C1960 0.930 . S
H1951 C1963 0.929 . S
H1952 C1966 0.930 . S
H1953 C1968 0.960 . S
H1954 C1968 0.960 . S
H1955 C1968 0.960 . S
C1956 H1948 0.929 . S
C1956 C1957 1.377 . S
C1956 C1958 1.384 . S
C1957 C1956 1.377 . S
C1957 C1963 1.390 . S
C1958 H1949 0.930 . S
C1958 C1956 1.384 . S
C1958 C1959 1.372 . S
C1959 C1958 1.372 . S
C1959 C1960 1.400 . S
C1959 C1964 1.490 . S
C1960 H1950 0.930 . S
C1960 C1959 1.400 . S
C1960 C1963 1.386 . S
H1961 C1977 0.930 . S
H1962 C1978 0.931 . S
C1963 H1951 0.929 . S
C1963 C1957 1.390 . S
C1963 C1960 1.386 . S
C1964 C1959 1.490 . S
C1964 C1966 1.395 . S
C1964 C1967 1.403 . S
H1965 C1971 0.930 . S
C1966 H1952 0.930 . S
C1966 C1964 1.395 . S
C1966 C1969 1.403 . S
C1967 C1964 1.403 . S
C1967 C1968 1.524 . S
C1967 C1971 1.400 . S
C1968 H1953 0.960 . S
C1968 H1954 0.960 . S
C1968 H1955 0.960 . S
C1968 C1967 1.524 . S
C1969 C1966 1.403 . S
C1969 C1970 1.392 . S
C1969 C1973 1.495 . S
C1970 C1969 1.392 . S
C1970 C1971 1.385 . S
C1970 C1972 1.478 . S
C1971 H1965 0.930 . S
C1971 C1967 1.400 . S
C1971 C1970 1.385 . S
C1972 C1970 1.478 . S
C1972 C1974 1.381 . S
C1972 C1978 1.383 . S
C1973 C1969 1.495 . S
C1973 H1979 0.959 . S
C1973 H1980 0.961 . S
C1973 H1981 0.960 . S
C1974 C1972 1.381 . S
C1974 C1975 1.394 . S
C1974 H1982 0.930 . S
C1975 C1974 1.394 . S
C1975 C1976 1.383 . S
C1975 H1983 0.929 . S
C1976 C1975 1.383 . S
C1976 C1977 1.377 . S
C1977 H1961 0.930 . S
C1977 C1976 1.377 . S
C1977 C1978 1.379 . S
C1978 H1962 0.931 . S
C1978 C1972 1.383 . S
C1978 C1977 1.379 . S
H1979 C1973 0.959 . S
H1980 C1973 0.961 . S
H1981 C1973 0.960 . S
H1982 C1974 0.930 . S
H1983 C1975 0.929 . S
H1984 C1992 0.929 . S
H1985 C1994 0.930 . S
H1986 C1996 0.934 . S
H1987 C1999 0.935 1_655 S
H1988 C2002 0.930 . S
H1989 C2004 0.960 . S
H1990 C2004 0.960 . S
H1991 C2004 0.960 . S
C1992 H1984 0.929 . S
C1992 C1993 1.373 . S
C1992 C1994 1.384 . S
C1993 C1992 1.373 . S
C1993 C1999 1.402 . S
C1994 H1985 0.930 . S
C1994 C1992 1.384 . S
C1994 C1995 1.372 . S
C1995 C1994 1.372 . S
C1995 C1996 1.395 . S
C1995 C2000 1.490 . S
C1996 H1986 0.934 . S
C1996 C1995 1.395 . S
C1996 C1999 1.380 . S
H1997 C2013 0.919 . S
H1998 C2014 0.931 . S
C1999 H1987 0.935 1_455 S
C1999 C1993 1.402 . S
C1999 C1996 1.380 . S
C2000 C1995 1.490 . S
C2000 C2002 1.395 1_455 S
C2000 C2003 1.403 . S
H2001 C2007 0.930 . S
C2002 H1988 0.930 . S
C2002 C2000 1.395 1_655 S
C2002 C2005 1.403 . S
C2003 C2000 1.403 . S
C2003 C2004 1.524 . S
C2003 C2007 1.400 . S
C2004 H1989 0.960 . S
C2004 H1990 0.960 . S
C2004 H1991 0.960 . S
C2004 C2003 1.524 . S
C2005 C2002 1.403 . S
C2005 C2006 1.410 . S
C2005 C2009 1.495 . S
C2006 C2005 1.410 . S
C2006 C2007 1.370 1_655 S
C2006 C2008 1.477 . S
C2007 H2001 0.930 . S
C2007 C2003 1.400 . S
C2007 C2006 1.370 1_455 S
C2008 C2006 1.477 . S
C2008 C2010 1.381 1_655 S
C2008 C2014 1.380 . S
C2009 C2005 1.495 . S
C2009 H2015 0.959 . S
C2009 H2016 0.961 . S
C2009 H2017 0.960 . S
C2010 C2008 1.381 1_455 S
C2010 C2011 1.394 . S
C2010 H2018 0.930 . S
C2011 C2010 1.394 . S
C2011 C2012 1.383 . S
C2011 H2019 0.929 . S
C2012 C2011 1.383 . S
C2012 C2013 1.377 1_455 S
C2013 H1997 0.919 . S
C2013 C2012 1.377 1_655 S
C2013 C2014 1.395 . S
C2014 H1998 0.931 . S
C2014 C2008 1.380 . S
C2014 C2013 1.395 . S
H2015 C2009 0.959 . S
H2016 C2009 0.961 . S
H2017 C2009 0.960 . S
H2018 C2010 0.930 . S
H2019 C2011 0.929 . S
H2020 C2028 0.929 . S
H2021 C2030 0.930 . S
H2022 C2032 0.930 . S
H2023 C2035 0.929 . S
H2024 C2038 0.930 . S
H2025 C2040 0.960 . S
H2026 C2040 0.960 . S
H2027 C2040 0.960 . S
C2028 H2020 0.929 . S
C2028 C2029 1.377 . S
C2028 C2030 1.384 . S
C2029 C2028 1.377 . S
C2029 C2035 1.390 . S
C2030 H2021 0.930 . S
C2030 C2028 1.384 . S
C2030 C2031 1.372 . S
C2031 C2030 1.372 . S
C2031 C2032 1.400 . S
C2031 C2036 1.490 . S
C2032 H2022 0.930 . S
C2032 C2031 1.400 . S
C2032 C2035 1.386 . S
H2033 C2049 0.930 . S
H2034 C2050 0.931 . S
C2035 H2023 0.929 . S
C2035 C2029 1.390 . S
C2035 C2032 1.386 . S
C2036 C2031 1.490 . S
C2036 C2038 1.395 . S
C2036 C2039 1.403 . S
H2037 C2043 0.930 . S
C2038 H2024 0.930 . S
C2038 C2036 1.395 . S
C2038 C2041 1.403 . S
C2039 C2036 1.403 . S
C2039 C2040 1.524 . S
C2039 C2043 1.400 . S
C2040 H2025 0.960 . S
C2040 H2026 0.960 . S
C2040 H2027 0.960 . S
C2040 C2039 1.524 . S
C2041 C2038 1.403 . S
C2041 C2042 1.392 . S
C2041 C2045 1.495 . S
C2042 C2041 1.392 . S
C2042 C2043 1.385 . S
C2042 C2044 1.478 . S
C2043 H2037 0.930 . S
C2043 C2039 1.400 . S
C2043 C2042 1.385 . S
C2044 C2042 1.478 . S
C2044 C2046 1.381 . S
C2044 C2050 1.383 . S
C2045 C2041 1.495 . S
C2045 H2051 0.959 . S
C2045 H2052 0.961 . S
C2045 H2053 0.960 . S
C2046 C2044 1.381 . S
C2046 C2047 1.394 . S
C2046 H2054 0.930 . S
C2047 C2046 1.394 . S
C2047 C2048 1.383 . S
C2047 H2055 0.929 . S
C2048 C2047 1.383 . S
C2048 C2049 1.377 . S
C2049 H2033 0.930 . S
C2049 C2048 1.377 . S
C2049 C2050 1.379 . S
C2050 H2034 0.931 . S
C2050 C2044 1.383 . S
C2050 C2049 1.379 . S
H2051 C2045 0.959 . S
H2052 C2045 0.961 . S
H2053 C2045 0.960 . S
H2054 C2046 0.930 . S
H2055 C2047 0.929 . S
H2056 C2064 0.929 . S
H2057 C2066 0.930 . S
H2058 C2068 0.930 . S
H2059 C2071 0.929 . S
H2060 C2074 0.930 . S
H2061 C2076 0.960 . S
H2062 C2076 0.960 . S
H2063 C2076 0.960 . S
C2064 H2056 0.929 . S
C2064 C2065 1.377 . S
C2064 C2066 1.384 . S
C2065 C2064 1.377 . S
C2065 C2071 1.390 . S
C2066 H2057 0.930 . S
C2066 C2064 1.384 . S
C2066 C2067 1.372 . S
C2067 C2066 1.372 . S
C2067 C2068 1.400 . S
C2067 C2072 1.490 . S
C2068 H2058 0.930 . S
C2068 C2067 1.400 . S
C2068 C2071 1.386 . S
H2069 C2085 0.930 . S
H2070 C2086 0.931 . S
C2071 H2059 0.929 . S
C2071 C2065 1.390 . S
C2071 C2068 1.386 . S
C2072 C2067 1.490 . S
C2072 C2074 1.395 . S
C2072 C2075 1.403 . S
H2073 C2079 0.930 . S
C2074 H2060 0.930 . S
C2074 C2072 1.395 . S
C2074 C2077 1.403 . S
C2075 C2072 1.403 . S
C2075 C2076 1.524 . S
C2075 C2079 1.400 . S
C2076 H2061 0.960 . S
C2076 H2062 0.960 . S
C2076 H2063 0.960 . S
C2076 C2075 1.524 . S
C2077 C2074 1.403 . S
C2077 C2078 1.392 . S
C2077 C2081 1.495 . S
C2078 C2077 1.392 . S
C2078 C2079 1.385 . S
C2078 C2080 1.478 . S
C2079 H2073 0.930 . S
C2079 C2075 1.400 . S
C2079 C2078 1.385 . S
C2080 C2078 1.478 . S
C2080 C2082 1.381 . S
C2080 C2086 1.383 . S
C2081 C2077 1.495 . S
C2081 H2087 0.959 . S
C2081 H2088 0.961 . S
C2081 H2089 0.960 . S
C2082 C2080 1.381 . S
C2082 C2083 1.394 . S
C2082 H2090 0.930 . S
C2083 C2082 1.394 . S
C2083 C2084 1.383 . S
C2083 H2091 0.929 . S
C2084 C2083 1.383 . S
C2084 C2085 1.377 1_556 S
C2085 H2069 0.930 . S
C2085 C2084 1.377 1_554 S
C2085 C2086 1.379 1_554 S
C2086 H2070 0.931 . S
C2086 C2080 1.383 . S
C2086 C2085 1.379 1_556 S
H2087 C2081 0.959 . S
H2088 C2081 0.961 . S
H2089 C2081 0.960 . S
H2090 C2082 0.930 . S
H2091 C2083 0.929 . S
H2092 C2100 0.918 . S
H2093 C2102 0.930 . S
H2094 C2104 0.930 . S
H2095 C2107 0.929 . S
H2096 C2110 0.930 . S
H2097 C2112 0.960 . S
H2098 C2112 0.960 . S
H2099 C2112 0.960 . S
C2100 H2092 0.918 . S
C2100 C2101 1.331 1_655 S
C2100 C2102 1.445 . S
C2101 C2100 1.331 1_455 S
C2101 C2107 1.390 . S
C2102 H2093 0.930 . S
C2102 C2100 1.445 . S
C2102 C2103 1.372 . S
C2103 C2102 1.372 . S
C2103 C2104 1.400 1_655 S
C2103 C2108 1.490 . S
C2104 H2094 0.930 . S
C2104 C2103 1.400 1_455 S
C2104 C2107 1.386 . S
H2105 C2121 0.930 . S
H2106 C2122 0.931 . S
C2107 H2095 0.929 . S
C2107 C2101 1.390 . S
C2107 C2104 1.386 . S
C2108 C2103 1.490 . S
C2108 C2110 1.395 . S
C2108 C2111 1.403 . S
H2109 C2115 0.930 . S
C2110 H2096 0.930 . S
C2110 C2108 1.395 . S
C2110 C2113 1.403 . S
C2111 C2108 1.403 . S
C2111 C2112 1.524 . S
C2111 C2115 1.400 . S
C2112 H2097 0.960 . S
C2112 H2098 0.960 . S
C2112 H2099 0.960 . S
C2112 C2111 1.524 . S
C2113 C2110 1.403 . S
C2113 C2114 1.392 . S
C2113 C2117 1.495 . S
C2114 C2113 1.392 . S
C2114 C2115 1.385 . S
C2114 C2116 1.478 . S
C2115 H2109 0.930 . S
C2115 C2111 1.400 . S
C2115 C2114 1.385 . S
C2116 C2114 1.478 . S
C2116 C2118 1.381 . S
C2116 C2122 1.383 . S
C2117 C2113 1.495 . S
C2117 H2123 0.959 . S
C2117 H2124 0.961 . S
C2117 H2125 0.960 . S
C2118 C2116 1.381 . S
C2118 C2119 1.394 . S
C2118 H2126 0.930 . S
C2119 C2118 1.394 . S
C2119 C2120 1.383 . S
C2119 H2127 0.929 . S
C2120 C2119 1.383 . S
C2120 C2121 1.377 . S
C2121 H2105 0.930 . S
C2121 C2120 1.377 . S
C2121 C2122 1.379 . S
C2122 H2106 0.931 . S
C2122 C2116 1.383 . S
C2122 C2121 1.379 . S
H2123 C2117 0.959 . S
H2124 C2117 0.961 . S
H2125 C2117 0.960 . S
H2126 C2118 0.930 . S
H2127 C2119 0.929 . S
H2128 C2136 0.929 . S
H2129 C2138 0.930 . S
H2130 C2140 0.930 1_565 S
H2131 C2143 0.929 1_565 S
H2132 C2146 0.930 . S
H2133 C2148 0.960 1_565 S
H2134 C2148 0.960 . S
H2135 C2148 0.960 1_565 S
C2136 H2128 0.929 . S
C2136 C2137 1.377 . S
C2136 C2138 1.384 . S
C2137 C2136 1.377 . S
C2137 C2143 1.390 . S
C2138 H2129 0.930 . S
C2138 C2136 1.384 . S
C2138 C2139 1.372 . S
C2139 C2138 1.372 . S
C2139 C2140 1.400 . S
C2139 C2144 1.490 . S
C2140 H2130 0.930 1_545 S
C2140 C2139 1.400 . S
C2140 C2143 1.386 . S
H2141 C2157 0.930 . S
H2142 C2158 0.932 . S
C2143 H2131 0.929 1_545 S
C2143 C2137 1.390 . S
C2143 C2140 1.386 . S
C2144 C2139 1.490 . S
C2144 C2146 1.395 . S
C2144 C2147 1.403 . S
H2145 C2151 0.930 . S
C2146 H2132 0.930 . S
C2146 C2144 1.395 . S
C2146 C2149 1.403 . S
C2147 C2144 1.403 . S
C2147 C2148 1.524 . S
C2147 C2151 1.400 . S
C2148 H2133 0.960 1_545 S
C2148 H2134 0.960 . S
C2148 H2135 0.960 1_545 S
C2148 C2147 1.524 . S
C2149 C2146 1.403 . S
C2149 C2150 1.392 . S
C2149 C2153 1.495 . S
C2150 C2149 1.392 . S
C2150 C2151 1.385 . S
C2150 C2152 1.478 . S
C2151 H2145 0.930 . S
C2151 C2147 1.400 . S
C2151 C2150 1.385 . S
C2152 C2150 1.478 . S
C2152 C2154 1.381 . S
C2152 C2158 1.382 1_545 S
C2153 C2149 1.495 . S
C2153 H2159 0.959 . S
C2153 H2160 0.961 . S
C2153 H2161 0.960 . S
C2154 C2152 1.381 . S
C2154 C2155 1.394 . S
C2154 H2162 0.930 . S
C2155 C2154 1.394 . S
C2155 C2156 1.383 . S
C2155 H2163 0.929 . S
C2156 C2155 1.383 . S
C2156 C2157 1.377 1_545 S
C2157 H2141 0.930 . S
C2157 C2156 1.377 1_565 S
C2157 C2158 1.380 . S
C2158 H2142 0.932 . S
C2158 C2152 1.382 1_565 S
C2158 C2157 1.380 . S
H2159 C2153 0.959 . S
H2160 C2153 0.961 . S
H2161 C2153 0.960 . S
H2162 C2154 0.930 . S
H2163 C2155 0.929 . S
H2164 C2172 0.929 . S
H2165 C2174 0.930 . S
H2166 C2176 0.930 . S
H2167 C2179 0.929 . S
H2168 C2182 0.930 . S
H2169 C2184 0.960 . S
H2170 C2184 0.960 . S
H2171 C2184 0.960 . S
C2172 H2164 0.929 . S
C2172 C2173 1.377 . S
C2172 C2174 1.384 . S
C2173 C2172 1.377 . S
C2173 C2179 1.390 . S
C2174 H2165 0.930 . S
C2174 C2172 1.384 . S
C2174 C2175 1.372 . S
C2175 C2174 1.372 . S
C2175 C2176 1.400 . S
C2175 C2180 1.490 . S
C2176 H2166 0.930 . S
C2176 C2175 1.400 . S
C2176 C2179 1.386 . S
H2177 C2193 0.930 . S
H2178 C2194 0.931 . S
C2179 H2167 0.929 . S
C2179 C2173 1.390 . S
C2179 C2176 1.386 . S
C2180 C2175 1.490 . S
C2180 C2182 1.395 . S
C2180 C2183 1.403 . S
H2181 C2187 0.930 . S
C2182 H2168 0.930 . S
C2182 C2180 1.395 . S
C2182 C2185 1.403 . S
C2183 C2180 1.403 . S
C2183 C2184 1.524 . S
C2183 C2187 1.400 . S
C2184 H2169 0.960 . S
C2184 H2170 0.960 . S
C2184 H2171 0.960 . S
C2184 C2183 1.524 . S
C2185 C2182 1.403 . S
C2185 C2186 1.392 . S
C2185 C2189 1.495 . S
C2186 C2185 1.392 . S
C2186 C2187 1.385 . S
C2186 C2188 1.478 . S
C2187 H2181 0.930 . S
C2187 C2183 1.400 . S
C2187 C2186 1.385 . S
C2188 C2186 1.478 . S
C2188 C2190 1.381 . S
C2188 C2194 1.383 . S
C2189 C2185 1.495 . S
C2189 H2195 0.959 . S
C2189 H2196 0.961 . S
C2189 H2197 0.960 . S
C2190 C2188 1.381 . S
C2190 C2191 1.394 . S
C2190 H2198 0.930 . S
C2191 C2190 1.394 . S
C2191 C2192 1.383 . S
C2191 H2199 0.929 . S
C2192 C2191 1.383 . S
C2192 C2193 1.377 . S
C2193 H2177 0.930 . S
C2193 C2192 1.377 . S
C2193 C2194 1.379 . S
C2194 H2178 0.931 . S
C2194 C2188 1.383 . S
C2194 C2193 1.379 . S
H2195 C2189 0.959 . S
H2196 C2189 0.961 . S
H2197 C2189 0.960 . S
H2198 C2190 0.930 . S
H2199 C2191 0.929 . S
H2200 C2208 0.929 1_565 S
H2201 C2210 0.930 1_565 S
H2202 C2212 0.930 . S
H2203 C2215 0.929 . S
H2204 C2218 0.930 1_565 S
H2205 C2220 0.960 . S
H2206 C2220 0.960 . S
H2207 C2220 0.960 . S
C2208 H2200 0.929 1_545 S
C2208 C2209 1.377 . S
C2208 C2210 1.384 . S
C2209 C2208 1.377 . S
C2209 C2215 1.390 . S
C2210 H2201 0.930 1_545 S
C2210 C2208 1.384 . S
C2210 C2211 1.372 . S
C2211 C2210 1.372 . S
C2211 C2212 1.400 . S
C2211 C2216 1.490 . S
C2212 H2202 0.930 . S
C2212 C2211 1.400 . S
C2212 C2215 1.386 . S
H2213 C2229 0.930 . S
H2214 C2230 0.931 . S
C2215 H2203 0.929 . S
C2215 C2209 1.390 . S
C2215 C2212 1.386 . S
C2216 C2211 1.490 . S
C2216 C2218 1.395 . S
C2216 C2219 1.403 . S
H2217 C2223 0.930 . S
C2218 H2204 0.930 1_545 S
C2218 C2216 1.395 . S
C2218 C2221 1.403 . S
C2219 C2216 1.403 . S
C2219 C2220 1.524 . S
C2219 C2223 1.400 . S
C2220 H2205 0.960 . S
C2220 H2206 0.960 . S
C2220 H2207 0.960 . S
C2220 C2219 1.524 . S
C2221 C2218 1.403 . S
C2221 C2222 1.392 . S
C2221 C2225 1.495 1_545 S
C2222 C2221 1.392 . S
C2222 C2223 1.385 . S
C2222 C2224 1.478 . S
C2223 H2217 0.930 . S
C2223 C2219 1.400 . S
C2223 C2222 1.385 . S
C2224 C2222 1.478 . S
C2224 C2226 1.381 1_545 S
C2224 C2230 1.383 . S
C2225 C2221 1.495 1_565 S
C2225 H2231 0.959 . S
C2225 H2232 0.961 . S
C2225 H2233 0.960 . S
C2226 C2224 1.381 1_565 S
C2226 C2227 1.394 . S
C2226 H2234 0.930 . S
C2227 C2226 1.394 . S
C2227 C2228 1.383 1_565 S
C2227 H2235 0.929 . S
C2228 C2227 1.383 1_545 S
C2228 C2229 1.377 . S
C2229 H2213 0.930 . S
C2229 C2228 1.377 . S
C2229 C2230 1.379 . S
C2230 H2214 0.931 . S
C2230 C2224 1.383 . S
C2230 C2229 1.379 . S
H2231 C2225 0.959 . S
H2232 C2225 0.961 . S
H2233 C2225 0.960 . S
H2234 C2226 0.930 . S
H2235 C2227 0.929 . S
H2236 C2244 0.929 . S
H2237 C2246 0.930 . S
H2238 C2248 0.930 . S
H2239 C2251 0.929 . S
H2240 C2254 0.930 . S
H2241 C2256 0.960 . S
H2242 C2256 0.960 . S
H2243 C2256 0.960 . S
C2244 H2236 0.929 . S
C2244 C2245 1.377 . S
C2244 C2246 1.384 . S
C2245 C2244 1.377 . S
C2245 C2251 1.390 . S
C2246 H2237 0.930 . S
C2246 C2244 1.384 . S
C2246 C2247 1.372 . S
C2247 C2246 1.372 . S
C2247 C2248 1.400 . S
C2247 C2252 1.490 . S
C2248 H2238 0.930 . S
C2248 C2247 1.400 . S
C2248 C2251 1.386 . S
H2249 C2265 0.930 . S
H2250 C2266 0.931 . S
C2251 H2239 0.929 . S
C2251 C2245 1.390 . S
C2251 C2248 1.386 . S
C2252 C2247 1.490 . S
C2252 C2254 1.395 . S
C2252 C2255 1.403 . S
H2253 C2259 0.930 . S
C2254 H2240 0.930 . S
C2254 C2252 1.395 . S
C2254 C2257 1.403 . S
C2255 C2252 1.403 . S
C2255 C2256 1.524 . S
C2255 C2259 1.400 . S
C2256 H2241 0.960 . S
C2256 H2242 0.960 . S
C2256 H2243 0.960 . S
C2256 C2255 1.524 . S
C2257 C2254 1.403 . S
C2257 C2258 1.392 . S
C2257 C2261 1.495 . S
C2258 C2257 1.392 . S
C2258 C2259 1.385 . S
C2258 C2260 1.478 . S
C2259 H2253 0.930 . S
C2259 C2255 1.400 . S
C2259 C2258 1.385 . S
C2260 C2258 1.478 . S
C2260 C2262 1.381 . S
C2260 C2266 1.383 . S
C2261 C2257 1.495 . S
C2261 H2267 0.959 . S
C2261 H2268 0.961 . S
C2261 H2269 0.960 . S
C2262 C2260 1.381 . S
C2262 C2263 1.394 . S
C2262 H2270 0.930 . S
C2263 C2262 1.394 . S
C2263 C2264 1.383 . S
C2263 H2271 0.929 . S
C2264 C2263 1.383 . S
C2264 C2265 1.377 . S
C2265 H2249 0.930 . S
C2265 C2264 1.377 . S
C2265 C2266 1.379 . S
C2266 H2250 0.931 . S
C2266 C2260 1.383 . S
C2266 C2265 1.379 . S
H2267 C2261 0.959 . S
H2268 C2261 0.961 . S
H2269 C2261 0.960 . S
H2270 C2262 0.930 . S
H2271 C2263 0.929 . S
H2272 C2280 0.929 1_565 S
H2273 C2282 0.930 1_565 S
H2274 C2284 0.930 . S
H2275 C2287 0.929 . S
H2276 C2290 0.930 . S
H2277 C2292 0.960 . S
H2278 C2292 0.944 1_565 S
H2279 C2292 0.960 . S
C2280 H2272 0.929 1_545 S
C2280 C2281 1.377 . S
C2280 C2282 1.384 . S
C2281 C2280 1.377 . S
C2281 C2287 1.390 . S
C2282 H2273 0.930 1_545 S
C2282 C2280 1.384 . S
C2282 C2283 1.372 . S
C2283 C2282 1.372 . S
C2283 C2284 1.400 . S
C2283 C2288 1.490 . S
C2284 H2274 0.930 . S
C2284 C2283 1.400 . S
C2284 C2287 1.386 . S
H2285 C2301 0.930 . S
H2286 C2302 0.931 . S
C2287 H2275 0.929 . S
C2287 C2281 1.390 . S
C2287 C2284 1.386 . S
C2288 C2283 1.490 . S
C2288 C2290 1.395 . S
C2288 C2291 1.403 . S
H2289 C2295 0.930 . S
C2290 H2276 0.930 . S
C2290 C2288 1.395 . S
C2290 C2293 1.403 . S
C2291 C2288 1.403 . S
C2291 C2292 1.524 . S
C2291 C2295 1.400 . S
C2292 H2277 0.960 . S
C2292 H2278 0.944 1_545 S
C2292 H2279 0.960 . S
C2292 C2291 1.524 . S
C2293 C2290 1.403 . S
C2293 C2294 1.392 . S
C2293 C2297 1.495 . S
C2294 C2293 1.392 . S
C2294 C2295 1.385 . S
C2294 C2296 1.478 . S
C2295 H2289 0.930 . S
C2295 C2291 1.400 . S
C2295 C2294 1.385 . S
C2296 C2294 1.478 . S
C2296 C2298 1.396 . S
C2296 C2302 1.383 . S
C2297 C2293 1.495 . S
C2297 H2303 0.959 . S
C2297 H2304 0.961 . S
C2297 H2305 0.960 . S
C2298 C2296 1.396 . S
C2298 C2299 1.399 . S
C2298 H2306 0.910 1_545 S
C2299 C2298 1.399 . S
C2299 C2300 1.385 . S
C2299 H2307 0.928 1_545 S
C2300 C2299 1.385 . S
C2300 C2301 1.377 . S
C2301 H2285 0.930 . S
C2301 C2300 1.377 . S
C2301 C2302 1.379 . S
C2302 H2286 0.931 . S
C2302 C2296 1.383 . S
C2302 C2301 1.379 . S
H2303 C2297 0.959 . S
H2304 C2297 0.961 . S
H2305 C2297 0.960 . S
H2306 C2298 0.910 1_565 S
H2307 C2299 0.928 1_565 S
H2308 C2316 0.929 . S
H2309 C2318 0.930 . S
H2310 C2320 0.930 . S
H2311 C2323 0.929 . S
H2312 C2326 0.930 . S
H2313 C2328 0.960 . S
H2314 C2328 0.960 . S
H2315 C2328 0.960 . S
C2316 H2308 0.929 . S
C2316 C2317 1.377 . S
C2316 C2318 1.384 . S
C2317 C2316 1.377 . S
C2317 C2323 1.390 . S
C2318 H2309 0.930 . S
C2318 C2316 1.384 . S
C2318 C2319 1.372 . S
C2319 C2318 1.372 . S
C2319 C2320 1.400 . S
C2319 C2324 1.490 . S
C2320 H2310 0.930 . S
C2320 C2319 1.400 . S
C2320 C2323 1.386 . S
H2321 C2337 0.930 . S
H2322 C2338 0.931 . S
C2323 H2311 0.929 . S
C2323 C2317 1.390 . S
C2323 C2320 1.386 . S
C2324 C2319 1.490 . S
C2324 C2326 1.395 . S
C2324 C2327 1.403 . S
H2325 C2331 0.930 . S
C2326 H2312 0.930 . S
C2326 C2324 1.395 . S
C2326 C2329 1.403 . S
C2327 C2324 1.403 . S
C2327 C2328 1.524 . S
C2327 C2331 1.400 . S
C2328 H2313 0.960 . S
C2328 H2314 0.960 . S
C2328 H2315 0.960 . S
C2328 C2327 1.524 . S
C2329 C2326 1.403 . S
C2329 C2330 1.392 . S
C2329 C2333 1.495 . S
C2330 C2329 1.392 . S
C2330 C2331 1.385 . S
C2330 C2332 1.478 . S
C2331 H2325 0.930 . S
C2331 C2327 1.400 . S
C2331 C2330 1.385 . S
C2332 C2330 1.478 . S
C2332 C2334 1.381 . S
C2332 C2338 1.383 . S
C2333 C2329 1.495 . S
C2333 H2339 0.959 . S
C2333 H2340 0.961 . S
C2333 H2341 0.960 . S
C2334 C2332 1.381 . S
C2334 C2335 1.394 . S
C2334 H2342 0.930 . S
C2335 C2334 1.394 . S
C2335 C2336 1.383 . S
C2335 H2343 0.929 . S
C2336 C2335 1.383 . S
C2336 C2337 1.377 . S
C2337 H2321 0.930 . S
C2337 C2336 1.377 . S
C2337 C2338 1.379 . S
C2338 H2322 0.931 . S
C2338 C2332 1.383 . S
C2338 C2337 1.379 . S
H2339 C2333 0.959 . S
H2340 C2333 0.961 . S
H2341 C2333 0.960 . S
H2342 C2334 0.930 . S
H2343 C2335 0.929 . S
H2344 C2352 0.929 . S
H2345 C2354 0.930 . S
H2346 C2356 0.930 1_565 S
H2347 C2359 0.929 1_565 S
H2348 C2362 0.930 . S
H2349 C2364 0.960 . S
H2350 C2364 0.960 . S
H2351 C2364 0.960 . S
C2352 H2344 0.929 . S
C2352 C2353 1.377 . S
C2352 C2354 1.384 . S
C2353 C2352 1.377 . S
C2353 C2359 1.390 . S
C2354 H2345 0.930 . S
C2354 C2352 1.384 . S
C2354 C2355 1.372 . S
C2355 C2354 1.372 . S
C2355 C2356 1.400 . S
C2355 C2360 1.490 . S
C2356 H2346 0.930 1_545 S
C2356 C2355 1.400 . S
C2356 C2359 1.386 . S
H2357 C2373 0.930 . S
H2358 C2374 0.931 . S
C2359 H2347 0.929 1_545 S
C2359 C2353 1.390 . S
C2359 C2356 1.386 . S
C2360 C2355 1.490 . S
C2360 C2362 1.395 . S
C2360 C2363 1.403 . S
H2361 C2367 0.930 . S
C2362 H2348 0.930 . S
C2362 C2360 1.395 . S
C2362 C2365 1.403 . S
C2363 C2360 1.403 . S
C2363 C2364 1.524 . S
C2363 C2367 1.400 . S
C2364 H2349 0.960 . S
C2364 H2350 0.960 . S
C2364 H2351 0.960 . S
C2364 C2363 1.524 . S
C2365 C2362 1.403 . S
C2365 C2366 1.392 . S
C2365 C2369 1.495 . S
C2366 C2365 1.392 . S
C2366 C2367 1.385 . S
C2366 C2368 1.478 . S
C2367 H2361 0.930 . S
C2367 C2363 1.400 . S
C2367 C2366 1.385 . S
C2368 C2366 1.478 . S
C2368 C2370 1.381 . S
C2368 C2374 1.383 1_545 S
C2369 C2365 1.495 . S
C2369 H2375 0.959 . S
C2369 H2376 0.961 . S
C2369 H2377 0.960 . S
C2370 C2368 1.381 . S
C2370 C2371 1.394 . S
C2370 H2378 0.930 . S
C2371 C2370 1.394 . S
C2371 C2372 1.383 . S
C2371 H2379 0.929 . S
C2372 C2371 1.383 . S
C2372 C2373 1.377 1_545 S
C2373 H2357 0.930 . S
C2373 C2372 1.377 1_565 S
C2373 C2374 1.379 . S
C2374 H2358 0.931 . S
C2374 C2368 1.383 1_565 S
C2374 C2373 1.379 . S
H2375 C2369 0.959 . S
H2376 C2369 0.961 . S
H2377 C2369 0.960 . S
H2378 C2370 0.930 . S
H2379 C2371 0.929 . S
H2380 C2388 0.929 . S
H2381 C2390 0.930 . S
H2382 C2392 0.930 . S
H2383 C2395 0.929 . S
H2384 C2398 0.930 . S
H2385 C2400 0.960 . S
H2386 C2400 0.960 . S
H2387 C2400 0.960 . S
C2388 H2380 0.929 . S
C2388 C2389 1.377 . S
C2388 C2390 1.384 . S
C2389 C2388 1.377 . S
C2389 C2395 1.390 . S
C2390 H2381 0.930 . S
C2390 C2388 1.384 . S
C2390 C2391 1.372 . S
C2391 C2390 1.372 . S
C2391 C2392 1.400 . S
C2391 C2396 1.490 . S
C2392 H2382 0.930 . S
C2392 C2391 1.400 . S
C2392 C2395 1.386 . S
H2393 C2409 0.930 . S
H2394 C2410 0.931 . S
C2395 H2383 0.929 . S
C2395 C2389 1.390 . S
C2395 C2392 1.386 . S
C2396 C2391 1.490 . S
C2396 C2398 1.395 . S
C2396 C2399 1.403 . S
H2397 C2403 0.930 . S
C2398 H2384 0.930 . S
C2398 C2396 1.395 . S
C2398 C2401 1.403 . S
C2399 C2396 1.403 . S
C2399 C2400 1.524 . S
C2399 C2403 1.400 . S
C2400 H2385 0.960 . S
C2400 H2386 0.960 . S
C2400 H2387 0.960 . S
C2400 C2399 1.524 . S
C2401 C2398 1.403 . S
C2401 C2402 1.392 . S
C2401 C2405 1.495 . S
C2402 C2401 1.392 . S
C2402 C2403 1.385 . S
C2402 C2404 1.478 . S
C2403 H2397 0.930 . S
C2403 C2399 1.400 . S
C2403 C2402 1.385 . S
C2404 C2402 1.478 . S
C2404 C2406 1.381 . S
C2404 C2410 1.383 . S
C2405 C2401 1.495 . S
C2405 H2411 0.959 . S
C2405 H2412 0.961 . S
C2405 H2413 0.960 . S
C2406 C2404 1.381 . S
C2406 C2407 1.394 . S
C2406 H2414 0.930 . S
C2407 C2406 1.394 . S
C2407 C2408 1.383 . S
C2407 H2415 0.929 . S
C2408 C2407 1.383 . S
C2408 C2409 1.377 . S
C2409 H2393 0.930 . S
C2409 C2408 1.377 . S
C2409 C2410 1.379 . S
C2410 H2394 0.931 . S
C2410 C2404 1.383 . S
C2410 C2409 1.379 . S
H2411 C2405 0.959 . S
H2412 C2405 0.961 . S
H2413 C2405 0.960 . S
H2414 C2406 0.930 . S
H2415 C2407 0.929 . S
H2416 C2424 0.929 . S
H2417 C2426 0.930 . S
H2418 C2428 0.930 . S
H2419 C2431 0.929 . S
H2420 C2434 0.930 . S
H2421 C2436 0.960 . S
H2422 C2436 0.960 . S
H2423 C2436 0.960 . S
C2424 H2416 0.929 . S
C2424 C2425 1.377 . S
C2424 C2426 1.384 . S
C2425 C2424 1.377 . S
C2425 C2431 1.390 . S
C2426 H2417 0.930 . S
C2426 C2424 1.384 . S
C2426 C2427 1.372 . S
C2427 C2426 1.372 . S
C2427 C2428 1.400 . S
C2427 C2432 1.490 . S
C2428 H2418 0.930 . S
C2428 C2427 1.400 . S
C2428 C2431 1.386 . S
H2429 C2445 0.930 . S
H2430 C2446 0.931 . S
C2431 H2419 0.929 . S
C2431 C2425 1.390 . S
C2431 C2428 1.386 . S
C2432 C2427 1.490 . S
C2432 C2434 1.395 . S
C2432 C2435 1.403 . S
H2433 C2439 0.930 . S
C2434 H2420 0.930 . S
C2434 C2432 1.395 . S
C2434 C2437 1.403 . S
C2435 C2432 1.403 . S
C2435 C2436 1.524 . S
C2435 C2439 1.400 . S
C2436 H2421 0.960 . S
C2436 H2422 0.960 . S
C2436 H2423 0.960 . S
C2436 C2435 1.524 . S
C2437 C2434 1.403 . S
C2437 C2438 1.392 . S
C2437 C2441 1.495 . S
C2438 C2437 1.392 . S
C2438 C2439 1.385 . S
C2438 C2440 1.478 . S
C2439 H2433 0.930 . S
C2439 C2435 1.400 . S
C2439 C2438 1.385 . S
C2440 C2438 1.478 . S
C2440 C2442 1.381 . S
C2440 C2446 1.383 1_554 S
C2441 C2437 1.495 . S
C2441 H2447 0.959 . S
C2441 H2448 0.961 1_554 S
C2441 H2449 0.960 . S
C2442 C2440 1.381 . S
C2442 C2443 1.394 . S
C2442 H2450 0.930 . S
C2443 C2442 1.394 . S
C2443 C2444 1.388 . S
C2443 H2451 0.929 . S
C2444 C2443 1.388 . S
C2444 C2445 1.374 1_554 S
C2445 H2429 0.930 . S
C2445 C2444 1.374 1_556 S
C2445 C2446 1.379 . S
C2446 H2430 0.931 . S
C2446 C2440 1.383 1_556 S
C2446 C2445 1.379 . S
H2447 C2441 0.959 . S
H2448 C2441 0.961 1_556 S
H2449 C2441 0.960 . S
H2450 C2442 0.930 . S
H2451 C2443 0.929 . S
H2452 C2460 0.929 . S
H2453 C2462 0.930 . S
H2454 C2464 0.930 . S
H2455 C2467 0.929 . S
H2456 C2470 0.930 . S
H2457 C2472 0.960 1_556 S
H2458 C2472 0.960 1_556 S
H2459 C2472 0.960 . S
C2460 H2452 0.929 . S
C2460 C2461 1.377 . S
C2460 C2462 1.384 . S
C2461 C2460 1.377 . S
C2461 C2467 1.390 . S
C2462 H2453 0.930 . S
C2462 C2460 1.384 . S
C2462 C2463 1.372 . S
C2463 C2462 1.372 . S
C2463 C2464 1.400 . S
C2463 C2468 1.490 . S
C2464 H2454 0.930 . S
C2464 C2463 1.400 . S
C2464 C2467 1.386 . S
H2465 C2481 0.930 . S
H2466 C2482 0.931 . S
C2467 H2455 0.929 . S
C2467 C2461 1.390 . S
C2467 C2464 1.386 . S
C2468 C2463 1.490 . S
C2468 C2470 1.395 . S
C2468 C2471 1.403 . S
H2469 C2475 0.930 . S
C2470 H2456 0.930 . S
C2470 C2468 1.395 . S
C2470 C2473 1.403 . S
C2471 C2468 1.403 . S
C2471 C2472 1.524 . S
C2471 C2475 1.400 . S
C2472 H2457 0.960 1_554 S
C2472 H2458 0.960 1_554 S
C2472 H2459 0.960 . S
C2472 C2471 1.524 . S
C2473 C2470 1.403 . S
C2473 C2474 1.392 . S
C2473 C2477 1.495 . S
C2474 C2473 1.392 . S
C2474 C2475 1.385 . S
C2474 C2476 1.478 . S
C2475 H2469 0.930 . S
C2475 C2471 1.400 . S
C2475 C2474 1.385 . S
C2476 C2474 1.478 . S
C2476 C2478 1.381 . S
C2476 C2482 1.383 . S
C2477 C2473 1.495 . S
C2477 H2483 0.959 . S
C2477 H2484 0.961 . S
C2477 H2485 0.960 . S
C2478 C2476 1.381 . S
C2478 C2479 1.394 . S
C2478 H2486 0.930 . S
C2479 C2478 1.394 . S
C2479 C2480 1.383 . S
C2479 H2487 0.929 . S
C2480 C2479 1.383 . S
C2480 C2481 1.377 . S
C2481 H2465 0.930 . S
C2481 C2480 1.377 . S
C2481 C2482 1.379 . S
C2482 H2466 0.931 . S
C2482 C2476 1.383 . S
C2482 C2481 1.379 . S
H2483 C2477 0.959 . S
H2484 C2477 0.961 . S
H2485 C2477 0.960 . S
H2486 C2478 0.930 . S
H2487 C2479 0.929 . S
H2488 C2496 0.929 . S
H2489 C2498 0.930 . S
H2490 C2500 0.930 . S
H2491 C2503 0.929 . S
H2492 C2506 0.930 . S
H2493 C2508 0.960 . S
H2494 C2508 0.960 . S
H2495 C2508 0.960 . S
C2496 H2488 0.929 . S
C2496 C2497 1.377 . S
C2496 C2498 1.384 . S
C2497 C2496 1.377 . S
C2497 C2503 1.390 . S
C2498 H2489 0.930 . S
C2498 C2496 1.384 . S
C2498 C2499 1.372 . S
C2499 C2498 1.372 . S
C2499 C2500 1.400 . S
C2499 C2504 1.490 . S
C2500 H2490 0.930 . S
C2500 C2499 1.400 . S
C2500 C2503 1.386 . S
H2501 C2517 0.930 . S
H2502 C2518 0.931 . S
C2503 H2491 0.929 . S
C2503 C2497 1.390 . S
C2503 C2500 1.386 . S
C2504 C2499 1.490 . S
C2504 C2506 1.395 . S
C2504 C2507 1.403 . S
H2505 C2511 0.930 . S
C2506 H2492 0.930 . S
C2506 C2504 1.395 . S
C2506 C2509 1.403 . S
C2507 C2504 1.403 . S
C2507 C2508 1.524 . S
C2507 C2511 1.400 . S
C2508 H2493 0.960 . S
C2508 H2494 0.960 . S
C2508 H2495 0.960 . S
C2508 C2507 1.524 . S
C2509 C2506 1.403 . S
C2509 C2510 1.392 . S
C2509 C2513 1.495 . S
C2510 C2509 1.392 . S
C2510 C2511 1.385 . S
C2510 C2512 1.478 . S
C2511 H2505 0.930 . S
C2511 C2507 1.400 . S
C2511 C2510 1.385 . S
C2512 C2510 1.478 . S
C2512 C2514 1.381 . S
C2512 C2518 1.383 . S
C2513 C2509 1.495 . S
C2513 H2519 0.959 . S
C2513 H2520 0.961 . S
C2513 H2521 0.960 . S
C2514 C2512 1.381 . S
C2514 C2515 1.394 . S
C2514 H2522 0.930 . S
C2515 C2514 1.394 . S
C2515 C2516 1.383 . S
C2515 H2523 0.929 . S
C2516 C2515 1.383 . S
C2516 C2517 1.377 . S
C2517 H2501 0.930 . S
C2517 C2516 1.377 . S
C2517 C2518 1.379 . S
C2518 H2502 0.931 . S
C2518 C2512 1.383 . S
C2518 C2517 1.379 . S
H2519 C2513 0.959 . S
H2520 C2513 0.961 . S
H2521 C2513 0.960 . S
H2522 C2514 0.930 . S
H2523 C2515 0.929 . S
H2524 C2532 0.929 . S
H2525 C2534 0.930 . S
H2526 C2536 0.930 . S
H2527 C2539 0.929 . S
H2528 C2542 0.930 . S
H2529 C2544 0.960 . S
H2530 C2544 0.960 . S
H2531 C2544 0.960 . S
C2532 H2524 0.929 . S
C2532 C2533 1.377 . S
C2532 C2534 1.384 . S
C2533 C2532 1.377 . S
C2533 C2539 1.390 . S
C2534 H2525 0.930 . S
C2534 C2532 1.384 . S
C2534 C2535 1.372 . S
C2535 C2534 1.372 . S
C2535 C2536 1.400 . S
C2535 C2540 1.490 . S
C2536 H2526 0.930 . S
C2536 C2535 1.400 . S
C2536 C2539 1.386 . S
H2537 C2553 0.930 . S
H2538 C2554 0.931 . S
C2539 H2527 0.929 . S
C2539 C2533 1.390 . S
C2539 C2536 1.386 . S
C2540 C2535 1.490 . S
C2540 C2542 1.395 . S
C2540 C2543 1.403 . S
H2541 C2547 0.930 . S
C2542 H2528 0.930 . S
C2542 C2540 1.395 . S
C2542 C2545 1.403 . S
C2543 C2540 1.403 . S
C2543 C2544 1.524 . S
C2543 C2547 1.400 . S
C2544 H2529 0.960 . S
C2544 H2530 0.960 . S
C2544 H2531 0.960 . S
C2544 C2543 1.524 . S
C2545 C2542 1.403 . S
C2545 C2546 1.392 . S
C2545 C2549 1.495 . S
C2546 C2545 1.392 . S
C2546 C2547 1.385 . S
C2546 C2548 1.478 . S
C2547 H2541 0.930 . S
C2547 C2543 1.400 . S
C2547 C2546 1.385 . S
C2548 C2546 1.478 . S
C2548 C2550 1.381 . S
C2548 C2554 1.383 . S
C2549 C2545 1.495 . S
C2549 H2555 0.959 . S
C2549 H2556 0.961 . S
C2549 H2557 0.960 . S
C2550 C2548 1.381 . S
C2550 C2551 1.394 . S
C2550 H2558 0.930 . S
C2551 C2550 1.394 . S
C2551 C2552 1.383 . S
C2551 H2559 0.929 . S
C2552 C2551 1.383 . S
C2552 C2553 1.377 . S
C2553 H2537 0.930 . S
C2553 C2552 1.377 . S
C2553 C2554 1.379 . S
C2554 H2538 0.931 . S
C2554 C2548 1.383 . S
C2554 C2553 1.379 . S
H2555 C2549 0.959 . S
H2556 C2549 0.961 . S
H2557 C2549 0.960 . S
H2558 C2550 0.930 . S
H2559 C2551 0.929 . S
H2560 C2568 0.929 . S
H2561 C2570 0.930 . S
H2562 C2572 0.930 . S
H2563 C2575 0.929 . S
H2564 C2578 0.930 . S
H2565 C2580 0.960 . S
H2566 C2580 0.960 . S
H2567 C2580 0.960 . S
C2568 H2560 0.929 . S
C2568 C2569 1.377 . S
C2568 C2570 1.384 . S
C2569 C2568 1.377 . S
C2569 C2575 1.390 . S
C2570 H2561 0.930 . S
C2570 C2568 1.384 . S
C2570 C2571 1.372 . S
C2571 C2570 1.372 . S
C2571 C2572 1.400 . S
C2571 C2576 1.490 . S
C2572 H2562 0.930 . S
C2572 C2571 1.400 . S
C2572 C2575 1.386 . S
H2573 C2589 0.930 . S
H2574 C2590 0.931 . S
C2575 H2563 0.929 . S
C2575 C2569 1.390 . S
C2575 C2572 1.386 . S
C2576 C2571 1.490 . S
C2576 C2578 1.395 . S
C2576 C2579 1.403 . S
H2577 C2583 0.930 . S
C2578 H2564 0.930 . S
C2578 C2576 1.395 . S
C2578 C2581 1.403 . S
C2579 C2576 1.403 . S
C2579 C2580 1.524 . S
C2579 C2583 1.400 . S
C2580 H2565 0.960 . S
C2580 H2566 0.960 . S
C2580 H2567 0.960 . S
C2580 C2579 1.524 . S
C2581 C2578 1.403 . S
C2581 C2582 1.392 . S
C2581 C2585 1.495 . S
C2582 C2581 1.392 . S
C2582 C2583 1.385 . S
C2582 C2584 1.478 . S
C2583 H2577 0.930 . S
C2583 C2579 1.400 . S
C2583 C2582 1.385 . S
C2584 C2582 1.478 . S
C2584 C2586 1.381 . S
C2584 C2590 1.383 . S
C2585 C2581 1.495 . S
C2585 H2591 0.959 . S
C2585 H2592 0.961 . S
C2585 H2593 0.960 . S
C2586 C2584 1.381 . S
C2586 C2587 1.394 . S
C2586 H2594 0.930 . S
C2587 C2586 1.394 . S
C2587 C2588 1.383 . S
C2587 H2595 0.929 . S
C2588 C2587 1.383 . S
C2588 C2589 1.377 . S
C2589 H2573 0.930 . S
C2589 C2588 1.377 . S
C2589 C2590 1.379 . S
C2590 H2574 0.931 . S
C2590 C2584 1.383 . S
C2590 C2589 1.379 . S
H2591 C2585 0.959 . S
H2592 C2585 0.961 . S
H2593 C2585 0.960 . S
H2594 C2586 0.930 . S
H2595 C2587 0.929 . S
H2596 C2604 0.929 . S
H2597 C2606 0.930 . S
H2598 C2608 0.930 . S
H2599 C2611 0.929 . S
H2600 C2614 0.930 . S
H2601 C2616 0.960 . S
H2602 C2616 0.960 . S
H2603 C2616 0.960 . S
C2604 H2596 0.929 . S
C2604 C2605 1.377 . S
C2604 C2606 1.384 . S
C2605 C2604 1.377 . S
C2605 C2611 1.390 . S
C2606 H2597 0.930 . S
C2606 C2604 1.384 . S
C2606 C2607 1.372 . S
C2607 C2606 1.372 . S
C2607 C2608 1.400 . S
C2607 C2612 1.490 . S
C2608 H2598 0.930 . S
C2608 C2607 1.400 . S
C2608 C2611 1.386 . S
H2609 C2625 0.930 . S
H2610 C2626 0.931 . S
C2611 H2599 0.929 . S
C2611 C2605 1.390 . S
C2611 C2608 1.386 . S
C2612 C2607 1.490 . S
C2612 C2614 1.395 . S
C2612 C2615 1.403 . S
H2613 C2619 0.930 . S
C2614 H2600 0.930 . S
C2614 C2612 1.395 . S
C2614 C2617 1.403 . S
C2615 C2612 1.403 . S
C2615 C2616 1.524 . S
C2615 C2619 1.400 . S
C2616 H2601 0.960 . S
C2616 H2602 0.960 . S
C2616 H2603 0.960 . S
C2616 C2615 1.524 . S
C2617 C2614 1.403 . S
C2617 C2618 1.392 . S
C2617 C2621 1.495 . S
C2618 C2617 1.392 . S
C2618 C2619 1.385 . S
C2618 C2620 1.478 . S
C2619 H2613 0.930 . S
C2619 C2615 1.400 . S
C2619 C2618 1.385 . S
C2620 C2618 1.478 . S
C2620 C2622 1.381 . S
C2620 C2626 1.383 . S
C2621 C2617 1.495 . S
C2621 H2627 0.959 . S
C2621 H2628 0.961 . S
C2621 H2629 0.960 . S
C2622 C2620 1.381 . S
C2622 C2623 1.394 . S
C2622 H2630 0.930 . S
C2623 C2622 1.394 . S
C2623 C2624 1.383 . S
C2623 H2631 0.929 . S
C2624 C2623 1.383 . S
C2624 C2625 1.377 . S
C2625 H2609 0.930 . S
C2625 C2624 1.377 . S
C2625 C2626 1.379 . S
C2626 H2610 0.931 . S
C2626 C2620 1.383 . S
C2626 C2625 1.379 . S
H2627 C2621 0.959 . S
H2628 C2621 0.961 . S
H2629 C2621 0.960 . S
H2630 C2622 0.930 . S
H2631 C2623 0.929 . S
H2632 C2640 0.929 . S
H2633 C2642 0.930 . S
H2634 C2644 0.930 . S
H2635 C2647 0.929 . S
H2636 C2650 0.930 . S
H2637 C2652 0.960 . S
H2638 C2652 0.960 . S
H2639 C2652 0.960 . S
C2640 H2632 0.929 . S
C2640 C2641 1.377 . S
C2640 C2642 1.384 . S
C2641 C2640 1.377 . S
C2641 C2647 1.390 . S
C2642 H2633 0.930 . S
C2642 C2640 1.384 . S
C2642 C2643 1.372 . S
C2643 C2642 1.372 . S
C2643 C2644 1.400 . S
C2643 C2648 1.490 . S
C2644 H2634 0.930 . S
C2644 C2643 1.400 . S
C2644 C2647 1.386 . S
H2645 C2661 0.930 . S
H2646 C2662 0.931 . S
C2647 H2635 0.929 . S
C2647 C2641 1.390 . S
C2647 C2644 1.386 . S
C2648 C2643 1.490 . S
C2648 C2650 1.395 . S
C2648 C2651 1.403 . S
H2649 C2655 0.930 . S
C2650 H2636 0.930 . S
C2650 C2648 1.395 . S
C2650 C2653 1.403 . S
C2651 C2648 1.403 . S
C2651 C2652 1.524 . S
C2651 C2655 1.400 . S
C2652 H2637 0.960 . S
C2652 H2638 0.960 . S
C2652 H2639 0.960 . S
C2652 C2651 1.524 . S
C2653 C2650 1.403 . S
C2653 C2654 1.392 . S
C2653 C2657 1.495 . S
C2654 C2653 1.392 . S
C2654 C2655 1.385 . S
C2654 C2656 1.478 . S
C2655 H2649 0.930 . S
C2655 C2651 1.400 . S
C2655 C2654 1.385 . S
C2656 C2654 1.478 . S
C2656 C2658 1.381 . S
C2656 C2662 1.383 . S
C2657 C2653 1.495 . S
C2657 H2663 0.959 . S
C2657 H2664 0.961 . S
C2657 H2665 0.960 . S
C2658 C2656 1.381 . S
C2658 C2659 1.394 . S
C2658 H2666 0.930 . S
C2659 C2658 1.394 . S
C2659 C2660 1.383 . S
C2659 H2667 0.929 . S
C2660 C2659 1.383 . S
C2660 C2661 1.377 . S
C2661 H2645 0.930 . S
C2661 C2660 1.377 . S
C2661 C2662 1.379 . S
C2662 H2646 0.931 . S
C2662 C2656 1.383 . S
C2662 C2661 1.379 . S
H2663 C2657 0.959 . S
H2664 C2657 0.961 . S
H2665 C2657 0.960 . S
H2666 C2658 0.930 . S
H2667 C2659 0.929 . S
H2668 C2676 0.929 . S
H2669 C2678 0.930 . S
H2670 C2680 0.930 . S
H2671 C2683 0.929 . S
H2672 C2686 0.930 . S
H2673 C2688 0.960 . S
H2674 C2688 0.960 . S
H2675 C2688 0.960 . S
C2676 H2668 0.929 . S
C2676 C2677 1.377 . S
C2676 C2678 1.384 . S
C2677 C2676 1.377 . S
C2677 C2683 1.390 . S
C2678 H2669 0.930 . S
C2678 C2676 1.384 . S
C2678 C2679 1.372 . S
C2679 C2678 1.372 . S
C2679 C2680 1.400 . S
C2679 C2684 1.490 . S
C2680 H2670 0.930 . S
C2680 C2679 1.400 . S
C2680 C2683 1.386 . S
H2681 C2697 0.930 . S
H2682 C2698 0.931 . S
C2683 H2671 0.929 . S
C2683 C2677 1.390 . S
C2683 C2680 1.386 . S
C2684 C2679 1.490 . S
C2684 C2686 1.395 . S
C2684 C2687 1.403 . S
H2685 C2691 0.930 . S
C2686 H2672 0.930 . S
C2686 C2684 1.395 . S
C2686 C2689 1.403 . S
C2687 C2684 1.403 . S
C2687 C2688 1.524 . S
C2687 C2691 1.400 . S
C2688 H2673 0.960 . S
C2688 H2674 0.960 . S
C2688 H2675 0.960 . S
C2688 C2687 1.524 . S
C2689 C2686 1.403 . S
C2689 C2690 1.392 . S
C2689 C2693 1.495 . S
C2690 C2689 1.392 . S
C2690 C2691 1.385 . S
C2690 C2692 1.478 . S
C2691 H2685 0.930 . S
C2691 C2687 1.400 . S
C2691 C2690 1.385 . S
C2692 C2690 1.478 . S
C2692 C2694 1.381 . S
C2692 C2698 1.383 . S
C2693 C2689 1.495 . S
C2693 H2699 0.959 . S
C2693 H2700 0.961 . S
C2693 H2701 0.960 . S
C2694 C2692 1.381 . S
C2694 C2695 1.394 . S
C2694 H2702 0.930 . S
C2695 C2694 1.394 . S
C2695 C2696 1.383 . S
C2695 H2703 0.929 . S
C2696 C2695 1.383 . S
C2696 C2697 1.377 . S
C2697 H2681 0.930 . S
C2697 C2696 1.377 . S
C2697 C2698 1.379 . S
C2698 H2682 0.931 . S
C2698 C2692 1.383 . S
C2698 C2697 1.379 . S
H2699 C2693 0.959 . S
H2700 C2693 0.961 . S
H2701 C2693 0.960 . S
H2702 C2694 0.930 . S
H2703 C2695 0.929 . S
H2704 C2712 0.929 . S
H2705 C2714 0.930 . S
H2706 C2716 0.930 . S
H2707 C2719 0.929 . S
H2708 C2722 0.930 . S
H2709 C2724 0.960 . S
H2710 C2724 0.960 . S
H2711 C2724 0.960 . S
C2712 H2704 0.929 . S
C2712 C2713 1.377 . S
C2712 C2714 1.384 . S
C2713 C2712 1.377 . S
C2713 C2719 1.390 . S
C2714 H2705 0.930 . S
C2714 C2712 1.384 . S
C2714 C2715 1.372 . S
C2715 C2714 1.372 . S
C2715 C2716 1.400 . S
C2715 C2720 1.490 . S
C2716 H2706 0.930 . S
C2716 C2715 1.400 . S
C2716 C2719 1.386 . S
H2717 C2733 0.930 . S
H2718 C2734 0.931 . S
C2719 H2707 0.929 . S
C2719 C2713 1.390 . S
C2719 C2716 1.386 . S
C2720 C2715 1.490 . S
C2720 C2722 1.395 . S
C2720 C2723 1.403 . S
H2721 C2727 0.930 . S
C2722 H2708 0.930 . S
C2722 C2720 1.395 . S
C2722 C2725 1.403 . S
C2723 C2720 1.403 . S
C2723 C2724 1.524 . S
C2723 C2727 1.400 . S
C2724 H2709 0.960 . S
C2724 H2710 0.960 . S
C2724 H2711 0.960 . S
C2724 C2723 1.524 . S
C2725 C2722 1.403 . S
C2725 C2726 1.392 . S
C2725 C2729 1.495 . S
C2726 C2725 1.392 . S
C2726 C2727 1.385 . S
C2726 C2728 1.478 . S
C2727 H2721 0.930 . S
C2727 C2723 1.400 . S
C2727 C2726 1.385 . S
C2728 C2726 1.478 . S
C2728 C2730 1.381 . S
C2728 C2734 1.383 . S
C2729 C2725 1.495 . S
C2729 H2735 0.959 . S
C2729 H2736 0.961 . S
C2729 H2737 0.960 . S
C2730 C2728 1.381 . S
C2730 C2731 1.394 . S
C2730 H2738 0.930 . S
C2731 C2730 1.394 . S
C2731 C2732 1.383 . S
C2731 H2739 0.929 . S
C2732 C2731 1.383 . S
C2732 C2733 1.377 . S
C2733 H2717 0.930 . S
C2733 C2732 1.377 . S
C2733 C2734 1.379 . S
C2734 H2718 0.931 . S
C2734 C2728 1.383 . S
C2734 C2733 1.379 . S
H2735 C2729 0.959 . S
H2736 C2729 0.961 . S
H2737 C2729 0.960 . S
H2738 C2730 0.930 . S
H2739 C2731 0.929 . S
H2740 C2748 0.929 . S
H2741 C2750 0.930 . S
H2742 C2752 0.930 . S
H2743 C2755 0.929 . S
H2744 C2758 0.930 . S
H2745 C2760 0.960 . S
H2746 C2760 0.960 . S
H2747 C2760 0.960 . S
C2748 H2740 0.929 . S
C2748 C2749 1.377 . S
C2748 C2750 1.384 . S
C2749 C2748 1.377 . S
C2749 C2755 1.390 . S
C2750 H2741 0.930 . S
C2750 C2748 1.384 . S
C2750 C2751 1.372 . S
C2751 C2750 1.372 . S
C2751 C2752 1.400 . S
C2751 C2756 1.490 . S
C2752 H2742 0.930 . S
C2752 C2751 1.400 . S
C2752 C2755 1.386 . S
H2753 C2769 0.930 . S
H2754 C2770 0.931 . S
C2755 H2743 0.929 . S
C2755 C2749 1.390 . S
C2755 C2752 1.386 . S
C2756 C2751 1.490 . S
C2756 C2758 1.395 . S
C2756 C2759 1.403 . S
H2757 C2763 0.930 . S
C2758 H2744 0.930 . S
C2758 C2756 1.395 . S
C2758 C2761 1.403 . S
C2759 C2756 1.403 . S
C2759 C2760 1.524 . S
C2759 C2763 1.400 . S
C2760 H2745 0.960 . S
C2760 H2746 0.960 . S
C2760 H2747 0.960 . S
C2760 C2759 1.524 . S
C2761 C2758 1.403 . S
C2761 C2762 1.392 . S
C2761 C2765 1.495 . S
C2762 C2761 1.392 . S
C2762 C2763 1.385 . S
C2762 C2764 1.478 . S
C2763 H2757 0.930 . S
C2763 C2759 1.400 . S
C2763 C2762 1.385 . S
C2764 C2762 1.478 . S
C2764 C2766 1.381 . S
C2764 C2770 1.383 . S
C2765 C2761 1.495 . S
C2765 H2771 0.959 . S
C2765 H2772 0.961 . S
C2765 H2773 0.960 . S
C2766 C2764 1.381 . S
C2766 C2767 1.394 . S
C2766 H2774 0.930 . S
C2767 C2766 1.394 . S
C2767 C2768 1.383 . S
C2767 H2775 0.929 . S
C2768 C2767 1.383 . S
C2768 C2769 1.377 . S
C2769 H2753 0.930 . S
C2769 C2768 1.377 . S
C2769 C2770 1.379 . S
C2770 H2754 0.931 . S
C2770 C2764 1.383 . S
C2770 C2769 1.379 . S
H2771 C2765 0.959 . S
H2772 C2765 0.961 . S
H2773 C2765 0.960 . S
H2774 C2766 0.930 . S
H2775 C2767 0.929 . S
H2776 C2784 0.929 . S
H2777 C2786 0.930 . S
H2778 C2788 0.930 . S
H2779 C2791 0.929 . S
H2780 C2794 0.930 . S
H2781 C2796 0.960 . S
H2782 C2796 0.960 . S
H2783 C2796 0.960 . S
C2784 H2776 0.929 . S
C2784 C2785 1.377 . S
C2784 C2786 1.384 . S
C2785 C2784 1.377 . S
C2785 C2791 1.390 . S
C2786 H2777 0.930 . S
C2786 C2784 1.384 . S
C2786 C2787 1.372 . S
C2787 C2786 1.372 . S
C2787 C2788 1.400 . S
C2787 C2792 1.490 . S
C2788 H2778 0.930 . S
C2788 C2787 1.400 . S
C2788 C2791 1.386 . S
H2789 C2805 0.930 . S
H2790 C2806 0.931 . S
C2791 H2779 0.929 . S
C2791 C2785 1.390 . S
C2791 C2788 1.386 . S
C2792 C2787 1.490 . S
C2792 C2794 1.395 . S
C2792 C2795 1.403 . S
H2793 C2799 0.930 1_655 S
C2794 H2780 0.930 . S
C2794 C2792 1.395 . S
C2794 C2797 1.403 . S
C2795 C2792 1.403 . S
C2795 C2796 1.524 1_455 S
C2795 C2799 1.400 . S
C2796 H2781 0.960 . S
C2796 H2782 0.960 . S
C2796 H2783 0.960 . S
C2796 C2795 1.524 1_655 S
C2797 C2794 1.403 . S
C2797 C2798 1.392 . S
C2797 C2801 1.495 . S
C2798 C2797 1.392 . S
C2798 C2799 1.385 . S
C2798 C2800 1.478 . S
C2799 H2793 0.930 1_455 S
C2799 C2795 1.400 . S
C2799 C2798 1.385 . S
C2800 C2798 1.478 . S
C2800 C2802 1.381 1_556 S
C2800 C2806 1.383 . S
C2801 C2797 1.495 . S
C2801 H2807 0.959 . S
C2801 H2808 0.961 . S
C2801 H2809 0.960 1_556 S
C2802 C2800 1.381 1_554 S
C2802 C2803 1.394 . S
C2802 H2810 0.930 . S
C2803 C2802 1.394 . S
C2803 C2804 1.383 . S
C2803 H2811 0.929 . S
C2804 C2803 1.383 . S
C2804 C2805 1.377 1_554 S
C2805 H2789 0.930 . S
C2805 C2804 1.377 1_556 S
C2805 C2806 1.379 . S
C2806 H2790 0.931 . S
C2806 C2800 1.383 . S
C2806 C2805 1.379 . S
H2807 C2801 0.959 . S
H2808 C2801 0.961 . S
H2809 C2801 0.960 1_554 S
H2810 C2802 0.930 . S
H2811 C2803 0.929 . S
H2812 C2820 0.922 1_455 S
H2813 C2822 0.930 . S
H2814 C2824 0.930 . S
H2815 C2827 0.929 . S
H2816 C2830 0.930 . S
H2817 C2832 0.960 . S
H2818 C2832 0.960 . S
H2819 C2832 0.960 . S
C2820 H2812 0.922 1_655 S
C2820 C2821 1.373 1_655 S
C2820 C2822 1.396 . S
C2821 C2820 1.373 1_455 S
C2821 C2827 1.390 1_455 S
C2822 H2813 0.930 . S
C2822 C2820 1.396 . S
C2822 C2823 1.372 . S
C2823 C2822 1.372 . S
C2823 C2824 1.400 . S
C2823 C2828 1.490 . S
C2824 H2814 0.930 . S
C2824 C2823 1.400 . S
C2824 C2827 1.386 . S
H2825 C2841 0.930 . S
H2826 C2842 0.931 . S
C2827 H2815 0.929 . S
C2827 C2821 1.390 1_655 S
C2827 C2824 1.386 . S
C2828 C2823 1.490 . S
C2828 C2830 1.395 . S
C2828 C2831 1.403 . S
H2829 C2835 0.930 . S
C2830 H2816 0.930 . S
C2830 C2828 1.395 . S
C2830 C2833 1.403 . S
C2831 C2828 1.403 . S
C2831 C2832 1.524 . S
C2831 C2835 1.400 . S
C2832 H2817 0.960 . S
C2832 H2818 0.960 . S
C2832 H2819 0.960 . S
C2832 C2831 1.524 . S
C2833 C2830 1.403 . S
C2833 C2834 1.392 . S
C2833 C2837 1.495 . S
C2834 C2833 1.392 . S
C2834 C2835 1.385 . S
C2834 C2836 1.478 . S
C2835 H2829 0.930 . S
C2835 C2831 1.400 . S
C2835 C2834 1.385 . S
C2836 C2834 1.478 . S
C2836 C2838 1.381 . S
C2836 C2842 1.383 . S
C2837 C2833 1.495 . S
C2837 H2843 0.959 . S
C2837 H2844 0.961 . S
C2837 H2845 0.960 . S
C2838 C2836 1.381 . S
C2838 C2839 1.394 . S
C2838 H2846 0.930 . S
C2839 C2838 1.394 . S
C2839 C2840 1.383 . S
C2839 H2847 0.929 . S
C2840 C2839 1.383 . S
C2840 C2841 1.377 . S
C2841 H2825 0.930 . S
C2841 C2840 1.377 . S
C2841 C2842 1.379 . S
C2842 H2826 0.931 . S
C2842 C2836 1.383 . S
C2842 C2841 1.379 . S
H2843 C2837 0.959 . S
H2844 C2837 0.961 . S
H2845 C2837 0.960 . S
H2846 C2838 0.930 . S
H2847 C2839 0.929 . S
H2848 C2856 0.929 . S
H2849 C2858 0.930 . S
H2850 C2860 0.930 . S
H2851 C2863 0.929 . S
H2852 C2866 0.930 . S
H2853 C2868 0.960 . S
H2854 C2868 0.960 . S
H2855 C2868 0.960 . S
C2856 H2848 0.929 . S
C2856 C2857 1.377 . S
C2856 C2858 1.384 . S
C2857 C2856 1.377 . S
C2857 C2863 1.390 . S
C2858 H2849 0.930 . S
C2858 C2856 1.384 . S
C2858 C2859 1.372 . S
C2859 C2858 1.372 . S
C2859 C2860 1.400 . S
C2859 C2864 1.490 . S
C2860 H2850 0.930 . S
C2860 C2859 1.400 . S
C2860 C2863 1.386 . S
H2861 C2877 0.930 . S
H2862 C2878 0.931 . S
C2863 H2851 0.929 . S
C2863 C2857 1.390 . S
C2863 C2860 1.386 . S
C2864 C2859 1.490 . S
C2864 C2866 1.395 . S
C2864 C2867 1.403 . S
H2865 C2871 0.930 . S
C2866 H2852 0.930 . S
C2866 C2864 1.395 . S
C2866 C2869 1.403 . S
C2867 C2864 1.403 . S
C2867 C2868 1.524 . S
C2867 C2871 1.400 . S
C2868 H2853 0.960 . S
C2868 H2854 0.960 . S
C2868 H2855 0.960 . S
C2868 C2867 1.524 . S
C2869 C2866 1.403 . S
C2869 C2870 1.392 . S
C2869 C2873 1.495 . S
C2870 C2869 1.392 . S
C2870 C2871 1.385 . S
C2870 C2872 1.478 . S
C2871 H2865 0.930 . S
C2871 C2867 1.400 . S
C2871 C2870 1.385 . S
C2872 C2870 1.478 . S
C2872 C2874 1.381 . S
C2872 C2878 1.383 . S
C2873 C2869 1.495 . S
C2873 H2879 0.959 . S
C2873 H2880 0.961 . S
C2873 H2881 0.960 . S
C2874 C2872 1.381 . S
C2874 C2875 1.394 . S
C2874 H2882 0.930 . S
C2875 C2874 1.394 . S
C2875 C2876 1.383 . S
C2875 H2883 0.929 . S
C2876 C2875 1.383 . S
C2876 C2877 1.377 . S
C2877 H2861 0.930 . S
C2877 C2876 1.377 . S
C2877 C2878 1.379 . S
C2878 H2862 0.931 . S
C2878 C2872 1.383 . S
C2878 C2877 1.379 . S
H2879 C2873 0.959 . S
H2880 C2873 0.961 . S
H2881 C2873 0.960 . S
H2882 C2874 0.930 . S
H2883 C2875 0.929 . S
H2884 C2892 0.929 . S
H2885 C2894 0.930 . S
H2886 C2896 0.930 . S
H2887 C2899 0.929 . S
H2888 C2902 0.930 . S
H2889 C2904 0.960 . S
H2890 C2904 0.960 . S
H2891 C2904 0.960 . S
C2892 H2884 0.929 . S
C2892 C2893 1.377 . S
C2892 C2894 1.384 . S
C2893 C2892 1.377 . S
C2893 C2899 1.390 . S
C2894 H2885 0.930 . S
C2894 C2892 1.384 . S
C2894 C2895 1.372 . S
C2895 C2894 1.372 . S
C2895 C2896 1.400 . S
C2895 C2900 1.490 . S
C2896 H2886 0.930 . S
C2896 C2895 1.400 . S
C2896 C2899 1.386 . S
H2897 C2913 0.930 . S
H2898 C2914 0.931 . S
C2899 H2887 0.929 . S
C2899 C2893 1.390 . S
C2899 C2896 1.386 . S
C2900 C2895 1.490 . S
C2900 C2902 1.395 . S
C2900 C2903 1.403 . S
H2901 C2907 0.930 . S
C2902 H2888 0.930 . S
C2902 C2900 1.395 . S
C2902 C2905 1.403 . S
C2903 C2900 1.403 . S
C2903 C2904 1.524 . S
C2903 C2907 1.400 . S
C2904 H2889 0.960 . S
C2904 H2890 0.960 . S
C2904 H2891 0.960 . S
C2904 C2903 1.524 . S
C2905 C2902 1.403 . S
C2905 C2906 1.392 . S
C2905 C2909 1.495 . S
C2906 C2905 1.392 . S
C2906 C2907 1.385 . S
C2906 C2908 1.478 . S
C2907 H2901 0.930 . S
C2907 C2903 1.400 . S
C2907 C2906 1.385 . S
C2908 C2906 1.478 . S
C2908 C2910 1.381 . S
C2908 C2914 1.383 . S
C2909 C2905 1.495 . S
C2909 H2915 0.959 . S
C2909 H2916 0.961 . S
C2909 H2917 0.960 . S
C2910 C2908 1.381 . S
C2910 C2911 1.394 . S
C2910 H2918 0.930 . S
C2911 C2910 1.394 . S
C2911 C2912 1.383 . S
C2911 H2919 0.929 . S
C2912 C2911 1.383 . S
C2912 C2913 1.377 . S
C2913 H2897 0.930 . S
C2913 C2912 1.377 . S
C2913 C2914 1.379 . S
C2914 H2898 0.931 . S
C2914 C2908 1.383 . S
C2914 C2913 1.379 . S
H2915 C2909 0.959 . S
H2916 C2909 0.961 . S
H2917 C2909 0.960 . S
H2918 C2910 0.930 . S
H2919 C2911 0.929 . S
H2920 C2928 0.929 . S
H2921 C2930 0.930 . S
H2922 C2932 0.930 . S
H2923 C2935 0.929 . S
H2924 C2938 0.930 . S
H2925 C2940 0.960 . S
H2926 C2940 0.960 . S
H2927 C2940 0.960 . S
C2928 H2920 0.929 . S
C2928 C2929 1.377 . S
C2928 C2930 1.384 . S
C2929 C2928 1.377 . S
C2929 C2935 1.390 . S
C2930 H2921 0.930 . S
C2930 C2928 1.384 . S
C2930 C2931 1.372 . S
C2931 C2930 1.372 . S
C2931 C2932 1.400 . S
C2931 C2936 1.490 . S
C2932 H2922 0.930 . S
C2932 C2931 1.400 . S
C2932 C2935 1.386 . S
H2933 C2949 0.930 . S
H2934 C2950 0.931 . S
C2935 H2923 0.929 . S
C2935 C2929 1.390 . S
C2935 C2932 1.386 . S
C2936 C2931 1.490 . S
C2936 C2938 1.395 . S
C2936 C2939 1.403 . S
H2937 C2943 0.930 . S
C2938 H2924 0.930 . S
C2938 C2936 1.395 . S
C2938 C2941 1.403 . S
C2939 C2936 1.403 . S
C2939 C2940 1.524 . S
C2939 C2943 1.400 . S
C2940 H2925 0.960 . S
C2940 H2926 0.960 . S
C2940 H2927 0.960 . S
C2940 C2939 1.524 . S
C2941 C2938 1.403 . S
C2941 C2942 1.392 . S
C2941 C2945 1.495 . S
C2942 C2941 1.392 . S
C2942 C2943 1.385 . S
C2942 C2944 1.478 . S
C2943 H2937 0.930 . S
C2943 C2939 1.400 . S
C2943 C2942 1.385 . S
C2944 C2942 1.478 . S
C2944 C2946 1.381 . S
C2944 C2950 1.383 . S
C2945 C2941 1.495 . S
C2945 H2951 0.959 . S
C2945 H2952 0.961 . S
C2945 H2953 0.960 . S
C2946 C2944 1.381 . S
C2946 C2947 1.394 . S
C2946 H2954 0.930 . S
C2947 C2946 1.394 . S
C2947 C2948 1.383 . S
C2947 H2955 0.929 . S
C2948 C2947 1.383 . S
C2948 C2949 1.377 . S
C2949 H2933 0.930 . S
C2949 C2948 1.377 . S
C2949 C2950 1.379 . S
C2950 H2934 0.931 . S
C2950 C2944 1.383 . S
C2950 C2949 1.379 . S
H2951 C2945 0.959 . S
H2952 C2945 0.961 . S
H2953 C2945 0.960 . S
H2954 C2946 0.930 . S
H2955 C2947 0.929 . S
H2956 C2964 0.929 . S
H2957 C2966 0.930 . S
H2958 C2968 0.930 . S
H2959 C2971 0.929 . S
H2960 C2974 0.930 . S
H2961 C2976 0.960 . S
H2962 C2976 0.960 . S
H2963 C2976 0.960 . S
C2964 H2956 0.929 . S
C2964 C2965 1.377 . S
C2964 C2966 1.384 . S
C2965 C2964 1.377 . S
C2965 C2971 1.390 . S
C2966 H2957 0.930 . S
C2966 C2964 1.384 . S
C2966 C2967 1.372 . S
C2967 C2966 1.372 . S
C2967 C2968 1.400 . S
C2967 C2972 1.490 . S
C2968 H2958 0.930 . S
C2968 C2967 1.400 . S
C2968 C2971 1.386 . S
H2969 C2985 0.930 . S
H2970 C2986 0.931 . S
C2971 H2959 0.929 . S
C2971 C2965 1.390 . S
C2971 C2968 1.386 . S
C2972 C2967 1.490 . S
C2972 C2974 1.395 . S
C2972 C2975 1.403 . S
H2973 C2979 0.930 . S
C2974 H2960 0.930 . S
C2974 C2972 1.395 . S
C2974 C2977 1.403 . S
C2975 C2972 1.403 . S
C2975 C2976 1.524 . S
C2975 C2979 1.400 . S
C2976 H2961 0.960 . S
C2976 H2962 0.960 . S
C2976 H2963 0.960 . S
C2976 C2975 1.524 . S
C2977 C2974 1.403 . S
C2977 C2978 1.392 . S
C2977 C2981 1.495 . S
C2978 C2977 1.392 . S
C2978 C2979 1.385 . S
C2978 C2980 1.478 . S
C2979 H2973 0.930 . S
C2979 C2975 1.400 . S
C2979 C2978 1.385 . S
C2980 C2978 1.478 . S
C2980 C2982 1.381 . S
C2980 C2986 1.383 . S
C2981 C2977 1.495 . S
C2981 H2987 0.959 . S
C2981 H2988 0.961 . S
C2981 H2989 0.960 . S
C2982 C2980 1.381 . S
C2982 C2983 1.394 . S
C2982 H2990 0.930 . S
C2983 C2982 1.394 . S
C2983 C2984 1.383 . S
C2983 H2991 0.929 . S
C2984 C2983 1.383 . S
C2984 C2985 1.377 . S
C2985 H2969 0.930 . S
C2985 C2984 1.377 . S
C2985 C2986 1.379 . S
C2986 H2970 0.931 . S
C2986 C2980 1.383 . S
C2986 C2985 1.379 . S
H2987 C2981 0.959 . S
H2988 C2981 0.961 . S
H2989 C2981 0.960 . S
H2990 C2982 0.930 . S
H2991 C2983 0.929 . S
H2992 C3000 0.929 . S
H2993 C3002 0.930 . S
H2994 C3004 0.930 . S
H2995 C3007 0.929 . S
H2996 C3010 0.930 . S
H2997 C3012 0.960 . S
H2998 C3012 0.960 . S
H2999 C3012 0.960 . S
C3000 H2992 0.929 . S
C3000 C3001 1.377 . S
C3000 C3002 1.384 . S
C3001 C3000 1.377 . S
C3001 C3007 1.390 . S
C3002 H2993 0.930 . S
C3002 C3000 1.384 . S
C3002 C3003 1.372 . S
C3003 C3002 1.372 . S
C3003 C3004 1.400 . S
C3003 C3008 1.490 . S
C3004 H2994 0.930 . S
C3004 C3003 1.400 . S
C3004 C3007 1.386 . S
H3005 C3021 0.930 . S
H3006 C3022 0.931 . S
C3007 H2995 0.929 . S
C3007 C3001 1.390 . S
C3007 C3004 1.386 . S
C3008 C3003 1.490 . S
C3008 C3010 1.395 . S
C3008 C3011 1.403 . S
H3009 C3015 0.930 . S
C3010 H2996 0.930 . S
C3010 C3008 1.395 . S
C3010 C3013 1.403 . S
C3011 C3008 1.403 . S
C3011 C3012 1.524 . S
C3011 C3015 1.400 . S
C3012 H2997 0.960 . S
C3012 H2998 0.960 . S
C3012 H2999 0.960 . S
C3012 C3011 1.524 . S
C3013 C3010 1.403 . S
C3013 C3014 1.392 . S
C3013 C3017 1.495 . S
C3014 C3013 1.392 . S
C3014 C3015 1.385 . S
C3014 C3016 1.478 . S
C3015 H3009 0.930 . S
C3015 C3011 1.400 . S
C3015 C3014 1.385 . S
C3016 C3014 1.478 . S
C3016 C3018 1.381 . S
C3016 C3022 1.383 . S
C3017 C3013 1.495 . S
C3017 H3023 0.959 . S
C3017 H3024 0.961 . S
C3017 H3025 0.960 . S
C3018 C3016 1.381 . S
C3018 C3019 1.394 . S
C3018 H3026 0.930 . S
C3019 C3018 1.394 . S
C3019 C3020 1.383 . S
C3019 H3027 0.929 . S
C3020 C3019 1.383 . S
C3020 C3021 1.377 . S
C3021 H3005 0.930 . S
C3021 C3020 1.377 . S
C3021 C3022 1.379 . S
C3022 H3006 0.931 . S
C3022 C3016 1.383 . S
C3022 C3021 1.379 . S
H3023 C3017 0.959 . S
H3024 C3017 0.961 . S
H3025 C3017 0.960 . S
H3026 C3018 0.930 . S
H3027 C3019 0.929 . S
H3028 C3036 0.929 . S
H3029 C3038 0.930 . S
H3030 C3040 0.934 . S
H3031 C3043 0.929 . S
H3032 C3046 0.930 . S
H3033 C3048 0.960 . S
H3034 C3048 0.960 . S
H3035 C3048 0.960 . S
C3036 H3028 0.929 . S
C3036 C3037 1.377 . S
C3036 C3038 1.384 1_554 S
C3037 C3036 1.377 . S
C3037 C3043 1.390 . S
C3038 H3029 0.930 . S
C3038 C3036 1.384 1_556 S
C3038 C3039 1.372 . S
C3039 C3038 1.372 . S
C3039 C3040 1.400 1_556 S
C3039 C3044 1.490 . S
C3040 H3030 0.934 . S
C3040 C3039 1.400 1_554 S
C3040 C3043 1.386 . S
H3041 C3057 0.930 . S
H3042 C3058 0.931 . S
C3043 H3031 0.929 . S
C3043 C3037 1.390 . S
C3043 C3040 1.386 . S
C3044 C3039 1.490 . S
C3044 C3046 1.395 . S
C3044 C3047 1.403 . S
H3045 C3051 0.930 . S
C3046 H3032 0.930 . S
C3046 C3044 1.395 . S
C3046 C3049 1.403 . S
C3047 C3044 1.403 . S
C3047 C3048 1.524 . S
C3047 C3051 1.400 . S
C3048 H3033 0.960 . S
C3048 H3034 0.960 . S
C3048 H3035 0.960 . S
C3048 C3047 1.524 . S
C3049 C3046 1.403 . S
C3049 C3050 1.392 . S
C3049 C3053 1.495 . S
C3050 C3049 1.392 . S
C3050 C3051 1.385 . S
C3050 C3052 1.478 . S
C3051 H3045 0.930 . S
C3051 C3047 1.400 . S
C3051 C3050 1.385 . S
C3052 C3050 1.478 . S
C3052 C3054 1.381 . S
C3052 C3058 1.383 . S
C3053 C3049 1.495 . S
C3053 H3059 0.959 . S
C3053 H3060 0.961 . S
C3053 H3061 0.960 . S
C3054 C3052 1.381 . S
C3054 C3055 1.394 . S
C3054 H3062 0.930 . S
C3055 C3054 1.394 . S
C3055 C3056 1.383 . S
C3055 H3063 0.929 . S
C3056 C3055 1.383 . S
C3056 C3057 1.377 . S
C3057 H3041 0.930 . S
C3057 C3056 1.377 . S
C3057 C3058 1.379 . S
C3058 H3042 0.931 . S
C3058 C3052 1.383 . S
C3058 C3057 1.379 . S
H3059 C3053 0.959 . S
H3060 C3053 0.961 . S
H3061 C3053 0.960 . S
H3062 C3054 0.930 . S
H3063 C3055 0.929 . S
H3064 C3072 0.929 . S
H3065 C3074 0.930 . S
H3066 C3076 0.930 . S
H3067 C3079 0.929 . S
H3068 C3082 0.930 . S
H3069 C3084 0.960 . S
H3070 C3084 0.960 . S
H3071 C3084 0.960 . S
C3072 H3064 0.929 . S
C3072 C3073 1.377 . S
C3072 C3074 1.384 . S
C3073 C3072 1.377 . S
C3073 C3079 1.390 . S
C3074 H3065 0.930 . S
C3074 C3072 1.384 . S
C3074 C3075 1.372 . S
C3075 C3074 1.372 . S
C3075 C3076 1.400 . S
C3075 C3080 1.490 . S
C3076 H3066 0.930 . S
C3076 C3075 1.400 . S
C3076 C3079 1.386 . S
H3077 C3093 0.930 . S
H3078 C3094 0.931 . S
C3079 H3067 0.929 . S
C3079 C3073 1.390 . S
C3079 C3076 1.386 . S
C3080 C3075 1.490 . S
C3080 C3082 1.395 . S
C3080 C3083 1.403 . S
H3081 C3087 0.930 . S
C3082 H3068 0.930 . S
C3082 C3080 1.395 . S
C3082 C3085 1.403 . S
C3083 C3080 1.403 . S
C3083 C3084 1.524 . S
C3083 C3087 1.400 . S
C3084 H3069 0.960 . S
C3084 H3070 0.960 . S
C3084 H3071 0.960 . S
C3084 C3083 1.524 . S
C3085 C3082 1.403 . S
C3085 C3086 1.392 . S
C3085 C3089 1.495 . S
C3086 C3085 1.392 . S
C3086 C3087 1.385 . S
C3086 C3088 1.478 . S
C3087 H3081 0.930 . S
C3087 C3083 1.400 . S
C3087 C3086 1.385 . S
C3088 C3086 1.478 . S
C3088 C3090 1.381 . S
C3088 C3094 1.383 . S
C3089 C3085 1.495 . S
C3089 H3095 0.959 . S
C3089 H3096 0.961 . S
C3089 H3097 0.960 . S
C3090 C3088 1.381 . S
C3090 C3091 1.394 . S
C3090 H3098 0.930 . S
C3091 C3090 1.394 . S
C3091 C3092 1.383 . S
C3091 H3099 0.929 . S
C3092 C3091 1.383 . S
C3092 C3093 1.377 . S
C3093 H3077 0.930 . S
C3093 C3092 1.377 . S
C3093 C3094 1.379 . S
C3094 H3078 0.931 . S
C3094 C3088 1.383 . S
C3094 C3093 1.379 . S
H3095 C3089 0.959 . S
H3096 C3089 0.961 . S
H3097 C3089 0.960 . S
H3098 C3090 0.930 . S
H3099 C3091 0.929 . S
H3100 C3108 0.929 . S
H3101 C3110 0.930 . S
H3102 C3112 0.930 . S
H3103 C3115 0.929 . S
H3104 C3118 0.930 . S
H3105 C3120 0.960 . S
H3106 C3120 0.960 . S
H3107 C3120 0.960 . S
C3108 H3100 0.929 . S
C3108 C3109 1.377 . S
C3108 C3110 1.384 . S
C3109 C3108 1.377 . S
C3109 C3115 1.390 . S
C3110 H3101 0.930 . S
C3110 C3108 1.384 . S
C3110 C3111 1.372 . S
C3111 C3110 1.372 . S
C3111 C3112 1.400 . S
C3111 C3116 1.490 . S
C3112 H3102 0.930 . S
C3112 C3111 1.400 . S
C3112 C3115 1.386 . S
H3113 C3129 0.930 . S
H3114 C3130 0.931 . S
C3115 H3103 0.929 . S
C3115 C3109 1.390 . S
C3115 C3112 1.386 . S
C3116 C3111 1.490 . S
C3116 C3118 1.395 . S
C3116 C3119 1.403 . S
H3117 C3123 0.930 . S
C3118 H3104 0.930 . S
C3118 C3116 1.395 . S
C3118 C3121 1.403 . S
C3119 C3116 1.403 . S
C3119 C3120 1.524 . S
C3119 C3123 1.400 . S
C3120 H3105 0.960 . S
C3120 H3106 0.960 . S
C3120 H3107 0.960 . S
C3120 C3119 1.524 . S
C3121 C3118 1.403 . S
C3121 C3122 1.392 . S
C3121 C3125 1.495 . S
C3122 C3121 1.392 . S
C3122 C3123 1.385 . S
C3122 C3124 1.478 . S
C3123 H3117 0.930 . S
C3123 C3119 1.400 . S
C3123 C3122 1.385 . S
C3124 C3122 1.478 . S
C3124 C3126 1.381 . S
C3124 C3130 1.383 . S
C3125 C3121 1.495 . S
C3125 H3131 0.959 . S
C3125 H3132 0.961 . S
C3125 H3133 0.960 . S
C3126 C3124 1.381 . S
C3126 C3127 1.394 . S
C3126 H3134 0.930 . S
C3127 C3126 1.394 . S
C3127 C3128 1.383 . S
C3127 H3135 0.929 . S
C3128 C3127 1.383 . S
C3128 C3129 1.377 . S
C3129 H3113 0.930 . S
C3129 C3128 1.377 . S
C3129 C3130 1.379 . S
C3130 H3114 0.931 . S
C3130 C3124 1.383 . S
C3130 C3129 1.379 . S
H3131 C3125 0.959 . S
H3132 C3125 0.961 . S
H3133 C3125 0.960 . S
H3134 C3126 0.930 . S
H3135 C3127 0.929 . S
H3136 C3144 0.929 . S
H3137 C3146 0.930 . S
H3138 C3148 0.930 . S
H3139 C3151 0.929 . S
H3140 C3154 0.930 . S
H3141 C3156 0.960 . S
H3142 C3156 0.960 . S
H3143 C3156 0.960 . S
C3144 H3136 0.929 . S
C3144 C3145 1.377 . S
C3144 C3146 1.384 . S
C3145 C3144 1.377 . S
C3145 C3151 1.390 . S
C3146 H3137 0.930 . S
C3146 C3144 1.384 . S
C3146 C3147 1.372 . S
C3147 C3146 1.372 . S
C3147 C3148 1.400 . S
C3147 C3152 1.490 . S
C3148 H3138 0.930 . S
C3148 C3147 1.400 . S
C3148 C3151 1.386 . S
H3149 C3165 0.930 . S
H3150 C3166 0.931 . S
C3151 H3139 0.929 . S
C3151 C3145 1.390 . S
C3151 C3148 1.386 . S
C3152 C3147 1.490 . S
C3152 C3154 1.395 . S
C3152 C3155 1.403 . S
H3153 C3159 0.930 . S
C3154 H3140 0.930 . S
C3154 C3152 1.395 . S
C3154 C3157 1.403 . S
C3155 C3152 1.403 . S
C3155 C3156 1.524 . S
C3155 C3159 1.400 . S
C3156 H3141 0.960 . S
C3156 H3142 0.960 . S
C3156 H3143 0.960 . S
C3156 C3155 1.524 . S
C3157 C3154 1.403 . S
C3157 C3158 1.392 . S
C3157 C3161 1.495 . S
C3158 C3157 1.392 . S
C3158 C3159 1.385 . S
C3158 C3160 1.478 . S
C3159 H3153 0.930 . S
C3159 C3155 1.400 . S
C3159 C3158 1.385 . S
C3160 C3158 1.478 . S
C3160 C3162 1.381 . S
C3160 C3166 1.383 . S
C3161 C3157 1.495 . S
C3161 H3167 0.959 . S
C3161 H3168 0.961 . S
C3161 H3169 0.960 . S
C3162 C3160 1.381 . S
C3162 C3163 1.394 . S
C3162 H3170 0.930 . S
C3163 C3162 1.394 . S
C3163 C3164 1.383 . S
C3163 H3171 0.929 . S
C3164 C3163 1.383 . S
C3164 C3165 1.377 . S
C3165 H3149 0.930 . S
C3165 C3164 1.377 . S
C3165 C3166 1.379 . S
C3166 H3150 0.931 . S
C3166 C3160 1.383 . S
C3166 C3165 1.379 . S
H3167 C3161 0.959 . S
H3168 C3161 0.961 . S
H3169 C3161 0.960 . S
H3170 C3162 0.930 . S
H3171 C3163 0.929 . S
H3172 C3180 0.929 . S
H3173 C3182 0.930 . S
H3174 C3184 0.930 . S
H3175 C3187 0.929 . S
H3176 C3190 0.930 . S
H3177 C3192 0.960 . S
H3178 C3192 0.960 . S
H3179 C3192 0.960 . S
C3180 H3172 0.929 . S
C3180 C3181 1.377 . S
C3180 C3182 1.384 . S
C3181 C3180 1.377 . S
C3181 C3187 1.390 . S
C3182 H3173 0.930 . S
C3182 C3180 1.384 . S
C3182 C3183 1.372 . S
C3183 C3182 1.372 . S
C3183 C3184 1.400 . S
C3183 C3188 1.490 . S
C3184 H3174 0.930 . S
C3184 C3183 1.400 . S
C3184 C3187 1.386 . S
H3185 C3201 0.930 . S
H3186 C3202 0.931 . S
C3187 H3175 0.929 . S
C3187 C3181 1.390 . S
C3187 C3184 1.386 . S
C3188 C3183 1.490 . S
C3188 C3190 1.395 . S
C3188 C3191 1.403 . S
H3189 C3195 0.930 . S
C3190 H3176 0.930 . S
C3190 C3188 1.395 . S
C3190 C3193 1.403 . S
C3191 C3188 1.403 . S
C3191 C3192 1.524 . S
C3191 C3195 1.400 . S
C3192 H3177 0.960 . S
C3192 H3178 0.960 . S
C3192 H3179 0.960 . S
C3192 C3191 1.524 . S
C3193 C3190 1.403 . S
C3193 C3194 1.392 . S
C3193 C3197 1.495 . S
C3194 C3193 1.392 . S
C3194 C3195 1.385 . S
C3194 C3196 1.478 . S
C3195 H3189 0.930 . S
C3195 C3191 1.400 . S
C3195 C3194 1.385 . S
C3196 C3194 1.478 . S
C3196 C3198 1.381 . S
C3196 C3202 1.383 . S
C3197 C3193 1.495 . S
C3197 H3203 0.959 . S
C3197 H3204 0.961 . S
C3197 H3205 0.960 . S
C3198 C3196 1.381 . S
C3198 C3199 1.394 . S
C3198 H3206 0.930 . S
C3199 C3198 1.394 . S
C3199 C3200 1.383 . S
C3199 H3207 0.929 . S
C3200 C3199 1.383 . S
C3200 C3201 1.377 . S
C3201 H3185 0.930 . S
C3201 C3200 1.377 . S
C3201 C3202 1.379 . S
C3202 H3186 0.931 . S
C3202 C3196 1.383 . S
C3202 C3201 1.379 . S
H3203 C3197 0.959 . S
H3204 C3197 0.961 . S
H3205 C3197 0.960 . S
H3206 C3198 0.930 . S
H3207 C3199 0.929 . S
H3208 C3216 0.929 . S
H3209 C3218 0.930 . S
H3210 C3220 0.930 . S
H3211 C3223 0.929 . S
H3212 C3226 0.930 . S
H3213 C3228 0.960 . S
H3214 C3228 0.960 . S
H3215 C3228 0.960 . S
C3216 H3208 0.929 . S
C3216 C3217 1.377 . S
C3216 C3218 1.384 . S
C3217 C3216 1.377 . S
C3217 C3223 1.390 . S
C3218 H3209 0.930 . S
C3218 C3216 1.384 . S
C3218 C3219 1.372 . S
C3219 C3218 1.372 . S
C3219 C3220 1.400 . S
C3219 C3224 1.490 . S
C3220 H3210 0.930 . S
C3220 C3219 1.400 . S
C3220 C3223 1.386 . S
H3221 C3237 0.930 . S
H3222 C3238 0.931 . S
C3223 H3211 0.929 . S
C3223 C3217 1.390 . S
C3223 C3220 1.386 . S
C3224 C3219 1.490 . S
C3224 C3226 1.395 . S
C3224 C3227 1.403 . S
H3225 C3231 0.930 . S
C3226 H3212 0.930 . S
C3226 C3224 1.395 . S
C3226 C3229 1.403 . S
C3227 C3224 1.403 . S
C3227 C3228 1.524 . S
C3227 C3231 1.400 . S
C3228 H3213 0.960 . S
C3228 H3214 0.960 . S
C3228 H3215 0.960 . S
C3228 C3227 1.524 . S
C3229 C3226 1.403 . S
C3229 C3230 1.392 . S
C3229 C3233 1.495 . S
C3230 C3229 1.392 . S
C3230 C3231 1.385 . S
C3230 C3232 1.478 . S
C3231 H3225 0.930 . S
C3231 C3227 1.400 . S
C3231 C3230 1.385 . S
C3232 C3230 1.478 . S
C3232 C3234 1.381 . S
C3232 C3238 1.383 . S
C3233 C3229 1.495 . S
C3233 H3239 0.959 . S
C3233 H3240 0.961 . S
C3233 H3241 0.960 . S
C3234 C3232 1.381 . S
C3234 C3235 1.394 . S
C3234 H3242 0.930 . S
C3235 C3234 1.394 . S
C3235 C3236 1.383 . S
C3235 H3243 0.929 . S
C3236 C3235 1.383 . S
C3236 C3237 1.377 . S
C3237 H3221 0.930 . S
C3237 C3236 1.377 . S
C3237 C3238 1.379 . S
C3238 H3222 0.931 . S
C3238 C3232 1.383 . S
C3238 C3237 1.379 . S
H3239 C3233 0.959 . S
H3240 C3233 0.961 . S
H3241 C3233 0.960 . S
H3242 C3234 0.930 . S
H3243 C3235 0.929 . S
H3244 C3252 0.929 . S
H3245 C3254 0.930 . S
H3246 C3256 0.930 . S
H3247 C3259 0.929 . S
H3248 C3262 0.930 . S
H3249 C3264 0.960 . S
H3250 C3264 0.960 . S
H3251 C3264 0.960 . S
C3252 H3244 0.929 . S
C3252 C3253 1.377 . S
C3252 C3254 1.384 . S
C3253 C3252 1.377 . S
C3253 C3259 1.390 . S
C3254 H3245 0.930 . S
C3254 C3252 1.384 . S
C3254 C3255 1.372 . S
C3255 C3254 1.372 . S
C3255 C3256 1.400 . S
C3255 C3260 1.490 . S
C3256 H3246 0.930 . S
C3256 C3255 1.400 . S
C3256 C3259 1.386 . S
H3257 C3273 0.930 . S
H3258 C3274 0.931 . S
C3259 H3247 0.929 . S
C3259 C3253 1.390 . S
C3259 C3256 1.386 . S
C3260 C3255 1.490 . S
C3260 C3262 1.395 . S
C3260 C3263 1.403 . S
H3261 C3267 0.930 . S
C3262 H3248 0.930 . S
C3262 C3260 1.395 . S
C3262 C3265 1.403 . S
C3263 C3260 1.403 . S
C3263 C3264 1.524 . S
C3263 C3267 1.400 . S
C3264 H3249 0.960 . S
C3264 H3250 0.960 . S
C3264 H3251 0.960 . S
C3264 C3263 1.524 . S
C3265 C3262 1.403 . S
C3265 C3266 1.392 . S
C3265 C3269 1.495 . S
C3266 C3265 1.392 . S
C3266 C3267 1.385 . S
C3266 C3268 1.478 . S
C3267 H3261 0.930 . S
C3267 C3263 1.400 . S
C3267 C3266 1.385 . S
C3268 C3266 1.478 . S
C3268 C3270 1.381 . S
C3268 C3274 1.383 . S
C3269 C3265 1.495 . S
C3269 H3275 0.959 . S
C3269 H3276 0.961 . S
C3269 H3277 0.960 . S
C3270 C3268 1.381 . S
C3270 C3271 1.394 . S
C3270 H3278 0.930 . S
C3271 C3270 1.394 . S
C3271 C3272 1.383 . S
C3271 H3279 0.929 . S
C3272 C3271 1.383 . S
C3272 C3273 1.377 . S
C3273 H3257 0.930 . S
C3273 C3272 1.377 . S
C3273 C3274 1.379 . S
C3274 H3258 0.931 . S
C3274 C3268 1.383 . S
C3274 C3273 1.379 . S
H3275 C3269 0.959 . S
H3276 C3269 0.961 . S
H3277 C3269 0.960 . S
H3278 C3270 0.930 . S
H3279 C3271 0.929 . S
H3280 C3288 0.929 . S
H3281 C3290 0.930 . S
H3282 C3292 0.930 . S
H3283 C3295 0.929 . S
H3284 C3298 0.930 . S
H3285 C3300 0.960 . S
H3286 C3300 0.960 . S
H3287 C3300 0.960 . S
C3288 H3280 0.929 . S
C3288 C3289 1.377 . S
C3288 C3290 1.384 . S
C3289 C3288 1.377 . S
C3289 C3295 1.390 . S
C3290 H3281 0.930 . S
C3290 C3288 1.384 . S
C3290 C3291 1.372 . S
C3291 C3290 1.372 . S
C3291 C3292 1.400 . S
C3291 C3296 1.490 . S
C3292 H3282 0.930 . S
C3292 C3291 1.400 . S
C3292 C3295 1.386 . S
H3293 C3309 0.930 . S
H3294 C3310 0.931 . S
C3295 H3283 0.929 . S
C3295 C3289 1.390 . S
C3295 C3292 1.386 . S
C3296 C3291 1.490 . S
C3296 C3298 1.395 . S
C3296 C3299 1.403 . S
H3297 C3303 0.930 . S
C3298 H3284 0.930 . S
C3298 C3296 1.395 . S
C3298 C3301 1.403 . S
C3299 C3296 1.403 . S
C3299 C3300 1.524 . S
C3299 C3303 1.400 . S
C3300 H3285 0.960 . S
C3300 H3286 0.960 . S
C3300 H3287 0.960 . S
C3300 C3299 1.524 . S
C3301 C3298 1.403 . S
C3301 C3302 1.392 . S
C3301 C3305 1.495 . S
C3302 C3301 1.392 . S
C3302 C3303 1.385 . S
C3302 C3304 1.478 . S
C3303 H3297 0.930 . S
C3303 C3299 1.400 . S
C3303 C3302 1.385 . S
C3304 C3302 1.478 . S
C3304 C3306 1.381 . S
C3304 C3310 1.383 . S
C3305 C3301 1.495 . S
C3305 H3311 0.959 . S
C3305 H3312 0.961 . S
C3305 H3313 0.960 . S
C3306 C3304 1.381 . S
C3306 C3307 1.394 . S
C3306 H3314 0.930 . S
C3307 C3306 1.394 . S
C3307 C3308 1.383 . S
C3307 H3315 0.929 . S
C3308 C3307 1.383 . S
C3308 C3309 1.377 . S
C3309 H3293 0.930 . S
C3309 C3308 1.377 . S
C3309 C3310 1.379 . S
C3310 H3294 0.931 . S
C3310 C3304 1.383 . S
C3310 C3309 1.379 . S
H3311 C3305 0.959 . S
H3312 C3305 0.961 . S
H3313 C3305 0.960 . S
H3314 C3306 0.930 . S
H3315 C3307 0.929 . S
H3316 C3324 0.929 . S
H3317 C3326 0.930 . S
H3318 C3328 0.930 . S
H3319 C3331 0.929 . S
H3320 C3334 0.930 . S
H3321 C3336 0.960 . S
H3322 C3336 0.960 . S
H3323 C3336 0.960 . S
C3324 H3316 0.929 . S
C3324 C3325 1.377 . S
C3324 C3326 1.384 . S
C3325 C3324 1.377 . S
C3325 C3331 1.390 . S
C3326 H3317 0.930 . S
C3326 C3324 1.384 . S
C3326 C3327 1.372 . S
C3327 C3326 1.372 . S
C3327 C3328 1.400 . S
C3327 C3332 1.490 . S
C3328 H3318 0.930 . S
C3328 C3327 1.400 . S
C3328 C3331 1.386 . S
H3329 C3345 0.930 . S
H3330 C3346 0.931 . S
C3331 H3319 0.929 . S
C3331 C3325 1.390 . S
C3331 C3328 1.386 . S
C3332 C3327 1.490 . S
C3332 C3334 1.395 . S
C3332 C3335 1.403 . S
H3333 C3339 0.930 . S
C3334 H3320 0.930 . S
C3334 C3332 1.395 . S
C3334 C3337 1.403 . S
C3335 C3332 1.403 . S
C3335 C3336 1.524 . S
C3335 C3339 1.400 . S
C3336 H3321 0.960 . S
C3336 H3322 0.960 . S
C3336 H3323 0.960 . S
C3336 C3335 1.524 . S
C3337 C3334 1.403 . S
C3337 C3338 1.392 . S
C3337 C3341 1.495 . S
C3338 C3337 1.392 . S
C3338 C3339 1.385 . S
C3338 C3340 1.478 . S
C3339 H3333 0.930 . S
C3339 C3335 1.400 . S
C3339 C3338 1.385 . S
C3340 C3338 1.478 . S
C3340 C3342 1.381 . S
C3340 C3346 1.383 . S
C3341 C3337 1.495 . S
C3341 H3347 0.959 . S
C3341 H3348 0.961 . S
C3341 H3349 0.960 . S
C3342 C3340 1.381 . S
C3342 C3343 1.394 . S
C3342 H3350 0.930 . S
C3343 C3342 1.394 . S
C3343 C3344 1.383 . S
C3343 H3351 0.929 . S
C3344 C3343 1.383 . S
C3344 C3345 1.377 . S
C3345 H3329 0.930 . S
C3345 C3344 1.377 . S
C3345 C3346 1.379 . S
C3346 H3330 0.931 . S
C3346 C3340 1.383 . S
C3346 C3345 1.379 . S
H3347 C3341 0.959 . S
H3348 C3341 0.961 . S
H3349 C3341 0.960 . S
H3350 C3342 0.930 . S
H3351 C3343 0.929 . S
H3352 C3360 0.929 . S
H3353 C3362 0.930 . S
H3354 C3364 0.930 . S
H3355 C3367 0.929 . S
H3356 C3370 0.930 . S
H3357 C3372 0.960 . S
H3358 C3372 0.960 . S
H3359 C3372 0.960 . S
C3360 H3352 0.929 . S
C3360 C3361 1.377 . S
C3360 C3362 1.384 . S
C3361 C3360 1.377 . S
C3361 C3367 1.390 . S
C3362 H3353 0.930 . S
C3362 C3360 1.384 . S
C3362 C3363 1.372 . S
C3363 C3362 1.372 . S
C3363 C3364 1.400 . S
C3363 C3368 1.490 . S
C3364 H3354 0.930 . S
C3364 C3363 1.400 . S
C3364 C3367 1.386 . S
H3365 C3381 0.930 . S
H3366 C3382 0.931 . S
C3367 H3355 0.929 . S
C3367 C3361 1.390 . S
C3367 C3364 1.386 . S
C3368 C3363 1.490 . S
C3368 C3370 1.395 . S
C3368 C3371 1.403 . S
H3369 C3375 0.930 . S
C3370 H3356 0.930 . S
C3370 C3368 1.395 . S
C3370 C3373 1.403 . S
C3371 C3368 1.403 . S
C3371 C3372 1.524 . S
C3371 C3375 1.400 . S
C3372 H3357 0.960 . S
C3372 H3358 0.960 . S
C3372 H3359 0.960 . S
C3372 C3371 1.524 . S
C3373 C3370 1.403 . S
C3373 C3374 1.392 . S
C3373 C3377 1.495 . S
C3374 C3373 1.392 . S
C3374 C3375 1.385 . S
C3374 C3376 1.478 . S
C3375 H3369 0.930 . S
C3375 C3371 1.400 . S
C3375 C3374 1.385 . S
C3376 C3374 1.478 . S
C3376 C3378 1.381 . S
C3376 C3382 1.383 . S
C3377 C3373 1.495 . S
C3377 H3383 0.959 . S
C3377 H3384 0.961 . S
C3377 H3385 0.960 . S
C3378 C3376 1.381 . S
C3378 C3379 1.394 . S
C3378 H3386 0.930 . S
C3379 C3378 1.394 . S
C3379 C3380 1.383 . S
C3379 H3387 0.929 . S
C3380 C3379 1.383 . S
C3380 C3381 1.377 . S
C3381 H3365 0.930 . S
C3381 C3380 1.377 . S
C3381 C3382 1.379 . S
C3382 H3366 0.931 . S
C3382 C3376 1.383 . S
C3382 C3381 1.379 . S
H3383 C3377 0.959 . S
H3384 C3377 0.961 . S
H3385 C3377 0.960 . S
H3386 C3378 0.930 . S
H3387 C3379 0.929 . S
H3388 C3396 0.929 . S
H3389 C3398 0.930 . S
H3390 C3400 0.930 . S
H3391 C3403 0.929 . S
H3392 C3406 0.930 . S
H3393 C3408 0.960 . S
H3394 C3408 0.960 . S
H3395 C3408 0.960 . S
C3396 H3388 0.929 . S
C3396 C3397 1.377 1_556 S
C3396 C3398 1.384 . S
C3397 C3396 1.377 1_554 S
C3397 C3403 1.390 . S
C3398 H3389 0.930 . S
C3398 C3396 1.384 . S
C3398 C3399 1.372 1_556 S
C3399 C3398 1.372 1_554 S
C3399 C3400 1.400 . S
C3399 C3404 1.490 . S
C3400 H3390 0.930 . S
C3400 C3399 1.400 . S
C3400 C3403 1.386 . S
H3401 C3417 0.930 . S
H3402 C3418 0.931 . S
C3403 H3391 0.929 . S
C3403 C3397 1.390 . S
C3403 C3400 1.386 . S
C3404 C3399 1.490 . S
C3404 C3406 1.395 1_554 S
C3404 C3407 1.403 . S
H3405 C3411 0.930 . S
C3406 H3392 0.930 . S
C3406 C3404 1.395 1_556 S
C3406 C3409 1.403 . S
C3407 C3404 1.403 . S
C3407 C3408 1.524 . S
C3407 C3411 1.400 . S
C3408 H3393 0.960 . S
C3408 H3394 0.960 . S
C3408 H3395 0.960 . S
C3408 C3407 1.524 . S
C3409 C3406 1.403 . S
C3409 C3410 1.392 1_556 S
C3409 C3413 1.495 . S
C3410 C3409 1.392 1_554 S
C3410 C3411 1.385 . S
C3410 C3412 1.478 . S
C3411 H3405 0.930 . S
C3411 C3407 1.400 . S
C3411 C3410 1.385 . S
C3412 C3410 1.478 . S
C3412 C3414 1.381 1_554 S
C3412 C3418 1.383 . S
C3413 C3409 1.495 . S
C3413 H3419 0.959 . S
C3413 H3420 0.961 . S
C3413 H3421 0.960 . S
C3414 C3412 1.381 1_556 S
C3414 C3415 1.394 . S
C3414 H3422 0.930 . S
C3415 C3414 1.394 . S
C3415 C3416 1.383 1_556 S
C3415 H3423 0.929 . S
C3416 C3415 1.383 1_554 S
C3416 C3417 1.377 . S
C3417 H3401 0.930 . S
C3417 C3416 1.377 . S
C3417 C3418 1.379 . S
C3418 H3402 0.931 . S
C3418 C3412 1.383 . S
C3418 C3417 1.379 . S
H3419 C3413 0.959 . S
H3420 C3413 0.961 . S
H3421 C3413 0.960 . S
H3422 C3414 0.930 . S
H3423 C3415 0.929 . S
H3424 C3432 0.929 . S
H3425 C3434 0.930 . S
H3426 C3436 0.930 . S
H3427 C3439 0.929 . S
H3428 C3442 0.930 . S
H3429 C3444 0.960 . S
H3430 C3444 0.960 . S
H3431 C3444 0.960 . S
C3432 H3424 0.929 . S
C3432 C3433 1.377 . S
C3432 C3434 1.384 . S
C3433 C3432 1.377 . S
C3433 C3439 1.390 . S
C3434 H3425 0.930 . S
C3434 C3432 1.384 . S
C3434 C3435 1.372 . S
C3435 C3434 1.372 . S
C3435 C3436 1.400 . S
C3435 C3440 1.490 . S
C3436 H3426 0.930 . S
C3436 C3435 1.400 . S
C3436 C3439 1.386 . S
H3437 C3453 0.930 . S
H3438 C3454 0.931 . S
C3439 H3427 0.929 . S
C3439 C3433 1.390 . S
C3439 C3436 1.386 . S
C3440 C3435 1.490 . S
C3440 C3442 1.395 . S
C3440 C3443 1.403 . S
H3441 C3447 0.930 . S
C3442 H3428 0.930 . S
C3442 C3440 1.395 . S
C3442 C3445 1.403 . S
C3443 C3440 1.403 . S
C3443 C3444 1.524 . S
C3443 C3447 1.400 . S
C3444 H3429 0.960 . S
C3444 H3430 0.960 . S
C3444 H3431 0.960 . S
C3444 C3443 1.524 . S
C3445 C3442 1.403 . S
C3445 C3446 1.392 . S
C3445 C3449 1.495 . S
C3446 C3445 1.392 . S
C3446 C3447 1.385 . S
C3446 C3448 1.478 . S
C3447 H3441 0.930 . S
C3447 C3443 1.400 . S
C3447 C3446 1.385 . S
C3448 C3446 1.478 . S
C3448 C3450 1.381 . S
C3448 C3454 1.383 . S
C3449 C3445 1.495 . S
C3449 H3455 0.959 . S
C3449 H3456 0.961 . S
C3449 H3457 0.960 . S
C3450 C3448 1.381 . S
C3450 C3451 1.394 . S
C3450 H3458 0.930 . S
C3451 C3450 1.394 . S
C3451 C3452 1.383 . S
C3451 H3459 0.929 . S
C3452 C3451 1.383 . S
C3452 C3453 1.377 . S
C3453 H3437 0.930 . S
C3453 C3452 1.377 . S
C3453 C3454 1.379 . S
C3454 H3438 0.931 . S
C3454 C3448 1.383 . S
C3454 C3453 1.379 . S
H3455 C3449 0.959 . S
H3456 C3449 0.961 . S
H3457 C3449 0.960 . S
H3458 C3450 0.930 . S
H3459 C3451 0.929 . S
H3460 C3468 0.929 . S
H3461 C3470 0.930 . S
H3462 C3472 0.930 . S
H3463 C3475 0.929 . S
H3464 C3478 0.930 . S
H3465 C3480 0.960 . S
H3466 C3480 0.960 . S
H3467 C3480 0.960 . S
C3468 H3460 0.929 . S
C3468 C3469 1.377 . S
C3468 C3470 1.384 . S
C3469 C3468 1.377 . S
C3469 C3475 1.390 . S
C3470 H3461 0.930 . S
C3470 C3468 1.384 . S
C3470 C3471 1.372 . S
C3471 C3470 1.372 . S
C3471 C3472 1.400 . S
C3471 C3476 1.490 . S
C3472 H3462 0.930 . S
C3472 C3471 1.400 . S
C3472 C3475 1.386 . S
H3473 C3489 0.930 . S
H3474 C3490 0.931 . S
C3475 H3463 0.929 . S
C3475 C3469 1.390 . S
C3475 C3472 1.386 . S
C3476 C3471 1.490 . S
C3476 C3478 1.395 . S
C3476 C3479 1.403 . S
H3477 C3483 0.930 . S
C3478 H3464 0.930 . S
C3478 C3476 1.395 . S
C3478 C3481 1.403 . S
C3479 C3476 1.403 . S
C3479 C3480 1.524 . S
C3479 C3483 1.400 . S
C3480 H3465 0.960 . S
C3480 H3466 0.960 . S
C3480 H3467 0.960 . S
C3480 C3479 1.524 . S
C3481 C3478 1.403 . S
C3481 C3482 1.392 . S
C3481 C3485 1.495 . S
C3482 C3481 1.392 . S
C3482 C3483 1.385 . S
C3482 C3484 1.478 . S
C3483 H3477 0.930 . S
C3483 C3479 1.400 . S
C3483 C3482 1.385 . S
C3484 C3482 1.478 . S
C3484 C3486 1.381 . S
C3484 C3490 1.383 . S
C3485 C3481 1.495 . S
C3485 H3491 0.959 . S
C3485 H3492 0.961 . S
C3485 H3493 0.960 . S
C3486 C3484 1.381 . S
C3486 C3487 1.394 . S
C3486 H3494 0.930 . S
C3487 C3486 1.394 . S
C3487 C3488 1.383 . S
C3487 H3495 0.929 . S
C3488 C3487 1.383 . S
C3488 C3489 1.377 . S
C3489 H3473 0.930 . S
C3489 C3488 1.377 . S
C3489 C3490 1.379 . S
C3490 H3474 0.931 . S
C3490 C3484 1.383 . S
C3490 C3489 1.379 . S
H3491 C3485 0.959 . S
H3492 C3485 0.961 . S
H3493 C3485 0.960 . S
H3494 C3486 0.930 . S
H3495 C3487 0.929 . S
H3496 C3504 0.929 . S
H3497 C3506 0.930 . S
H3498 C3508 0.930 . S
H3499 C3511 0.929 . S
H3500 C3514 0.930 . S
H3501 C3516 0.960 . S
H3502 C3516 0.960 . S
H3503 C3516 0.960 . S
C3504 H3496 0.929 . S
C3504 C3505 1.377 . S
C3504 C3506 1.384 . S
C3505 C3504 1.377 . S
C3505 C3511 1.390 . S
C3506 H3497 0.930 . S
C3506 C3504 1.384 . S
C3506 C3507 1.372 . S
C3507 C3506 1.372 . S
C3507 C3508 1.400 . S
C3507 C3512 1.490 . S
C3508 H3498 0.930 . S
C3508 C3507 1.400 . S
C3508 C3511 1.386 . S
H3509 C3525 0.930 . S
H3510 C3526 0.931 . S
C3511 H3499 0.929 . S
C3511 C3505 1.390 . S
C3511 C3508 1.386 . S
C3512 C3507 1.490 . S
C3512 C3514 1.395 . S
C3512 C3515 1.403 . S
H3513 C3519 0.930 . S
C3514 H3500 0.930 . S
C3514 C3512 1.395 . S
C3514 C3517 1.403 . S
C3515 C3512 1.403 . S
C3515 C3516 1.524 . S
C3515 C3519 1.400 . S
C3516 H3501 0.960 . S
C3516 H3502 0.960 . S
C3516 H3503 0.960 . S
C3516 C3515 1.524 . S
C3517 C3514 1.403 . S
C3517 C3518 1.392 . S
C3517 C3521 1.495 . S
C3518 C3517 1.392 . S
C3518 C3519 1.385 . S
C3518 C3520 1.478 . S
C3519 H3513 0.930 . S
C3519 C3515 1.400 . S
C3519 C3518 1.385 . S
C3520 C3518 1.478 . S
C3520 C3522 1.381 . S
C3520 C3526 1.383 . S
C3521 C3517 1.495 . S
C3521 H3527 0.959 . S
C3521 H3528 0.961 . S
C3521 H3529 0.960 . S
C3522 C3520 1.381 . S
C3522 C3523 1.394 . S
C3522 H3530 0.930 . S
C3523 C3522 1.394 . S
C3523 C3524 1.383 . S
C3523 H3531 0.929 . S
C3524 C3523 1.383 . S
C3524 C3525 1.377 . S
C3525 H3509 0.930 . S
C3525 C3524 1.377 . S
C3525 C3526 1.379 . S
C3526 H3510 0.931 . S
C3526 C3520 1.383 . S
C3526 C3525 1.379 . S
H3527 C3521 0.959 . S
H3528 C3521 0.961 . S
H3529 C3521 0.960 . S
H3530 C3522 0.930 . S
H3531 C3523 0.929 . S
H3532 C3540 0.929 . S
H3533 C3542 0.930 . S
H3534 C3544 0.930 . S
H3535 C3547 0.929 . S
H3536 C3550 0.930 . S
H3537 C3552 0.960 . S
H3538 C3552 0.960 . S
H3539 C3552 0.960 . S
C3540 H3532 0.929 . S
C3540 C3541 1.377 . S
C3540 C3542 1.384 . S
C3541 C3540 1.377 . S
C3541 C3547 1.390 . S
C3542 H3533 0.930 . S
C3542 C3540 1.384 . S
C3542 C3543 1.372 . S
C3543 C3542 1.372 . S
C3543 C3544 1.400 . S
C3543 C3548 1.490 . S
C3544 H3534 0.930 . S
C3544 C3543 1.400 . S
C3544 C3547 1.386 . S
H3545 C3561 0.930 . S
H3546 C3562 0.931 . S
C3547 H3535 0.929 . S
C3547 C3541 1.390 . S
C3547 C3544 1.386 . S
C3548 C3543 1.490 . S
C3548 C3550 1.395 . S
C3548 C3551 1.403 . S
H3549 C3555 0.930 . S
C3550 H3536 0.930 . S
C3550 C3548 1.395 . S
C3550 C3553 1.403 . S
C3551 C3548 1.403 . S
C3551 C3552 1.524 . S
C3551 C3555 1.400 . S
C3552 H3537 0.960 . S
C3552 H3538 0.960 . S
C3552 H3539 0.960 . S
C3552 C3551 1.524 . S
C3553 C3550 1.403 . S
C3553 C3554 1.392 . S
C3553 C3557 1.495 . S
C3554 C3553 1.392 . S
C3554 C3555 1.385 . S
C3554 C3556 1.478 . S
C3555 H3549 0.930 . S
C3555 C3551 1.400 . S
C3555 C3554 1.385 . S
C3556 C3554 1.478 . S
C3556 C3558 1.381 . S
C3556 C3562 1.383 . S
C3557 C3553 1.495 . S
C3557 H3563 0.959 . S
C3557 H3564 0.961 . S
C3557 H3565 0.960 . S
C3558 C3556 1.381 . S
C3558 C3559 1.394 . S
C3558 H3566 0.930 . S
C3559 C3558 1.394 . S
C3559 C3560 1.383 . S
C3559 H3567 0.929 . S
C3560 C3559 1.383 . S
C3560 C3561 1.377 . S
C3561 H3545 0.930 . S
C3561 C3560 1.377 . S
C3561 C3562 1.379 . S
C3562 H3546 0.931 . S
C3562 C3556 1.383 . S
C3562 C3561 1.379 . S
H3563 C3557 0.959 . S
H3564 C3557 0.961 . S
H3565 C3557 0.960 . S
H3566 C3558 0.930 . S
H3567 C3559 0.929 . S
H3568 C3576 0.929 . S
H3569 C3578 0.930 . S
H3570 C3580 0.930 . S
H3571 C3583 0.929 . S
H3572 C3586 0.930 . S
H3573 C3588 0.960 . S
H3574 C3588 0.960 . S
H3575 C3588 0.960 . S
C3576 H3568 0.929 . S
C3576 C3577 1.377 . S
C3576 C3578 1.384 . S
C3577 C3576 1.377 . S
C3577 C3583 1.390 . S
C3578 H3569 0.930 . S
C3578 C3576 1.384 . S
C3578 C3579 1.372 . S
C3579 C3578 1.372 . S
C3579 C3580 1.400 . S
C3579 C3584 1.490 . S
C3580 H3570 0.930 . S
C3580 C3579 1.400 . S
C3580 C3583 1.386 . S
H3581 C3597 0.930 . S
H3582 C3598 0.931 . S
C3583 H3571 0.929 . S
C3583 C3577 1.390 . S
C3583 C3580 1.386 . S
C3584 C3579 1.490 . S
C3584 C3586 1.395 . S
C3584 C3587 1.403 . S
H3585 C3591 0.930 . S
C3586 H3572 0.930 . S
C3586 C3584 1.395 . S
C3586 C3589 1.403 . S
C3587 C3584 1.403 . S
C3587 C3588 1.524 . S
C3587 C3591 1.400 . S
C3588 H3573 0.960 . S
C3588 H3574 0.960 . S
C3588 H3575 0.960 . S
C3588 C3587 1.524 . S
C3589 C3586 1.403 . S
C3589 C3590 1.392 . S
C3589 C3593 1.495 . S
C3590 C3589 1.392 . S
C3590 C3591 1.385 . S
C3590 C3592 1.478 . S
C3591 H3585 0.930 . S
C3591 C3587 1.400 . S
C3591 C3590 1.385 . S
C3592 C3590 1.478 . S
C3592 C3594 1.381 . S
C3592 C3598 1.383 . S
C3593 C3589 1.495 . S
C3593 H3599 0.959 . S
C3593 H3600 0.961 . S
C3593 H3601 0.960 . S
C3594 C3592 1.381 . S
C3594 C3595 1.394 . S
C3594 H3602 0.930 . S
C3595 C3594 1.394 . S
C3595 C3596 1.383 . S
C3595 H3603 0.929 . S
C3596 C3595 1.383 . S
C3596 C3597 1.377 . S
C3597 H3581 0.930 . S
C3597 C3596 1.377 . S
C3597 C3598 1.379 . S
C3598 H3582 0.931 . S
C3598 C3592 1.383 . S
C3598 C3597 1.379 . S
H3599 C3593 0.959 . S
H3600 C3593 0.961 . S
H3601 C3593 0.960 . S
H3602 C3594 0.930 . S
H3603 C3595 0.929 . S
H3604 C3612 0.929 . S
H3605 C3614 0.930 . S
H3606 C3616 0.930 . S
H3607 C3619 0.929 . S
H3608 C3622 0.930 . S
H3609 C3624 0.960 . S
H3610 C3624 0.960 . S
H3611 C3624 0.960 . S
C3612 H3604 0.929 . S
C3612 C3613 1.377 . S
C3612 C3614 1.384 . S
C3613 C3612 1.377 . S
C3613 C3619 1.390 . S
C3614 H3605 0.930 . S
C3614 C3612 1.384 . S
C3614 C3615 1.372 . S
C3615 C3614 1.372 . S
C3615 C3616 1.400 . S
C3615 C3620 1.490 . S
C3616 H3606 0.930 . S
C3616 C3615 1.400 . S
C3616 C3619 1.386 . S
H3617 C3633 0.930 . S
H3618 C3634 0.931 . S
C3619 H3607 0.929 . S
C3619 C3613 1.390 . S
C3619 C3616 1.386 . S
C3620 C3615 1.490 . S
C3620 C3622 1.395 . S
C3620 C3623 1.403 . S
H3621 C3627 0.930 . S
C3622 H3608 0.930 . S
C3622 C3620 1.395 . S
C3622 C3625 1.403 . S
C3623 C3620 1.403 . S
C3623 C3624 1.524 . S
C3623 C3627 1.400 . S
C3624 H3609 0.960 . S
C3624 H3610 0.960 . S
C3624 H3611 0.960 . S
C3624 C3623 1.524 . S
C3625 C3622 1.403 . S
C3625 C3626 1.392 . S
C3625 C3629 1.495 . S
C3626 C3625 1.392 . S
C3626 C3627 1.385 . S
C3626 C3628 1.478 . S
C3627 H3621 0.930 . S
C3627 C3623 1.400 . S
C3627 C3626 1.385 . S
C3628 C3626 1.478 . S
C3628 C3630 1.381 . S
C3628 C3634 1.383 . S
C3629 C3625 1.495 . S
C3629 H3635 0.959 . S
C3629 H3636 0.961 . S
C3629 H3637 0.960 . S
C3630 C3628 1.381 . S
C3630 C3631 1.394 . S
C3630 H3638 0.930 . S
C3631 C3630 1.394 . S
C3631 C3632 1.383 . S
C3631 H3639 0.929 . S
C3632 C3631 1.383 . S
C3632 C3633 1.377 . S
C3633 H3617 0.930 . S
C3633 C3632 1.377 . S
C3633 C3634 1.379 . S
C3634 H3618 0.931 . S
C3634 C3628 1.383 . S
C3634 C3633 1.379 . S
H3635 C3629 0.959 . S
H3636 C3629 0.961 . S
H3637 C3629 0.960 . S
H3638 C3630 0.930 . S
H3639 C3631 0.929 . S
H3640 C3648 0.929 . S
H3641 C3650 0.930 . S
H3642 C3652 0.930 . S
H3643 C3655 0.929 . S
H3644 C3658 0.930 . S
H3645 C3660 0.960 . S
H3646 C3660 0.960 . S
H3647 C3660 0.960 . S
C3648 H3640 0.929 . S
C3648 C3649 1.377 . S
C3648 C3650 1.384 . S
C3649 C3648 1.377 . S
C3649 C3655 1.390 . S
C3650 H3641 0.930 . S
C3650 C3648 1.384 . S
C3650 C3651 1.372 . S
C3651 C3650 1.372 . S
C3651 C3652 1.400 . S
C3651 C3656 1.490 . S
C3652 H3642 0.930 . S
C3652 C3651 1.400 . S
C3652 C3655 1.386 . S
H3653 C3669 0.930 . S
H3654 C3670 0.931 . S
C3655 H3643 0.929 . S
C3655 C3649 1.390 . S
C3655 C3652 1.386 . S
C3656 C3651 1.490 . S
C3656 C3658 1.395 . S
C3656 C3659 1.403 . S
H3657 C3663 0.930 . S
C3658 H3644 0.930 . S
C3658 C3656 1.395 . S
C3658 C3661 1.403 . S
C3659 C3656 1.403 . S
C3659 C3660 1.524 . S
C3659 C3663 1.400 . S
C3660 H3645 0.960 . S
C3660 H3646 0.960 . S
C3660 H3647 0.960 . S
C3660 C3659 1.524 . S
C3661 C3658 1.403 . S
C3661 C3662 1.392 . S
C3661 C3665 1.450 1_455 S
C3662 C3661 1.392 . S
C3662 C3663 1.385 . S
C3662 C3664 1.478 . S
C3663 H3657 0.930 . S
C3663 C3659 1.400 . S
C3663 C3662 1.385 . S
C3664 C3662 1.478 . S
C3664 C3666 1.381 . S
C3664 C3670 1.383 . S
C3665 C3661 1.450 1_655 S
C3665 H3671 1.012 . S
C3665 H3672 0.931 1_655 S
C3665 H3673 0.989 . S
C3666 C3664 1.381 . S
C3666 C3667 1.394 . S
C3666 H3674 0.930 . S
C3667 C3666 1.394 . S
C3667 C3668 1.383 . S
C3667 H3675 0.929 . S
C3668 C3667 1.383 . S
C3668 C3669 1.377 . S
C3669 H3653 0.930 . S
C3669 C3668 1.377 . S
C3669 C3670 1.379 . S
C3670 H3654 0.931 . S
C3670 C3664 1.383 . S
C3670 C3669 1.379 . S
H3671 C3665 1.012 . S
H3672 C3665 0.931 1_455 S
H3673 C3665 0.989 . S
H3674 C3666 0.930 . S
H3675 C3667 0.929 . S
H3676 C3684 0.929 . S
H3677 C3686 0.930 . S
H3678 C3688 0.930 . S
H3679 C3691 0.929 . S
H3680 C3694 0.930 . S
H3681 C3696 0.960 . S
H3682 C3696 0.960 . S
H3683 C3696 0.960 . S
C3684 H3676 0.929 . S
C3684 C3685 1.377 . S
C3684 C3686 1.384 . S
C3685 C3684 1.377 . S
C3685 C3691 1.390 . S
C3686 H3677 0.930 . S
C3686 C3684 1.384 . S
C3686 C3687 1.372 . S
C3687 C3686 1.372 . S
C3687 C3688 1.400 . S
C3687 C3692 1.490 . S
C3688 H3678 0.930 . S
C3688 C3687 1.400 . S
C3688 C3691 1.386 . S
H3689 C3705 0.930 . S
H3690 C3706 0.931 . S
C3691 H3679 0.929 . S
C3691 C3685 1.390 . S
C3691 C3688 1.386 . S
C3692 C3687 1.490 . S
C3692 C3694 1.395 . S
C3692 C3695 1.403 . S
H3693 C3699 0.930 . S
C3694 H3680 0.930 . S
C3694 C3692 1.395 . S
C3694 C3697 1.403 . S
C3695 C3692 1.403 . S
C3695 C3696 1.524 . S
C3695 C3699 1.400 . S
C3696 H3681 0.960 . S
C3696 H3682 0.960 . S
C3696 H3683 0.960 . S
C3696 C3695 1.524 . S
C3697 C3694 1.403 . S
C3697 C3698 1.392 . S
C3697 C3701 1.495 . S
C3698 C3697 1.392 . S
C3698 C3699 1.385 . S
C3698 C3700 1.478 . S
C3699 H3693 0.930 . S
C3699 C3695 1.400 . S
C3699 C3698 1.385 . S
C3700 C3698 1.478 . S
C3700 C3702 1.381 . S
C3700 C3706 1.383 . S
C3701 C3697 1.495 . S
C3701 H3707 0.959 . S
C3701 H3708 0.961 . S
C3701 H3709 0.960 . S
C3702 C3700 1.381 . S
C3702 C3703 1.394 . S
C3702 H3710 0.930 . S
C3703 C3702 1.394 . S
C3703 C3704 1.383 . S
C3703 H3711 0.929 . S
C3704 C3703 1.383 . S
C3704 C3705 1.377 . S
C3705 H3689 0.930 . S
C3705 C3704 1.377 . S
C3705 C3706 1.379 . S
C3706 H3690 0.931 . S
C3706 C3700 1.383 . S
C3706 C3705 1.379 . S
H3707 C3701 0.959 . S
H3708 C3701 0.961 . S
H3709 C3701 0.960 . S
H3710 C3702 0.930 . S
H3711 C3703 0.929 . S
H3712 C3720 0.929 . S
H3713 C3722 0.930 . S
H3714 C3724 0.930 . S
H3715 C3727 0.929 . S
H3716 C3730 0.930 . S
H3717 C3732 0.960 . S
H3718 C3732 0.960 . S
H3719 C3732 0.960 . S
C3720 H3712 0.929 . S
C3720 C3721 1.377 . S
C3720 C3722 1.384 . S
C3721 C3720 1.377 . S
C3721 C3727 1.390 . S
C3722 H3713 0.930 . S
C3722 C3720 1.384 . S
C3722 C3723 1.372 . S
C3723 C3722 1.372 . S
C3723 C3724 1.400 . S
C3723 C3728 1.490 . S
C3724 H3714 0.930 . S
C3724 C3723 1.400 . S
C3724 C3727 1.386 . S
H3725 C3741 0.930 . S
H3726 C3742 0.931 . S
C3727 H3715 0.929 . S
C3727 C3721 1.390 . S
C3727 C3724 1.386 . S
C3728 C3723 1.490 . S
C3728 C3730 1.395 . S
C3728 C3731 1.403 . S
H3729 C3735 0.930 . S
C3730 H3716 0.930 . S
C3730 C3728 1.395 . S
C3730 C3733 1.403 . S
C3731 C3728 1.403 . S
C3731 C3732 1.524 . S
C3731 C3735 1.400 . S
C3732 H3717 0.960 . S
C3732 H3718 0.960 . S
C3732 H3719 0.960 . S
C3732 C3731 1.524 . S
C3733 C3730 1.403 . S
C3733 C3734 1.392 . S
C3733 C3737 1.495 . S
C3734 C3733 1.392 . S
C3734 C3735 1.385 . S
C3734 C3736 1.478 . S
C3735 H3729 0.930 . S
C3735 C3731 1.400 . S
C3735 C3734 1.385 . S
C3736 C3734 1.478 . S
C3736 C3738 1.381 . S
C3736 C3742 1.383 . S
C3737 C3733 1.495 . S
C3737 H3743 0.959 . S
C3737 H3744 0.961 . S
C3737 H3745 0.960 . S
C3738 C3736 1.381 . S
C3738 C3739 1.394 . S
C3738 H3746 0.930 . S
C3739 C3738 1.394 . S
C3739 C3740 1.383 . S
C3739 H3747 0.929 . S
C3740 C3739 1.383 . S
C3740 C3741 1.377 . S
C3741 H3725 0.930 . S
C3741 C3740 1.377 . S
C3741 C3742 1.379 . S
C3742 H3726 0.931 . S
C3742 C3736 1.383 . S
C3742 C3741 1.379 . S
H3743 C3737 0.959 . S
H3744 C3737 0.961 . S
H3745 C3737 0.960 . S
H3746 C3738 0.930 . S
H3747 C3739 0.929 . S
H3748 C3756 0.929 . S
H3749 C3758 0.930 . S
H3750 C3760 0.930 . S
H3751 C3763 0.929 . S
H3752 C3766 0.930 . S
H3753 C3768 0.960 . S
H3754 C3768 0.960 . S
H3755 C3768 0.960 . S
C3756 H3748 0.929 . S
C3756 C3757 1.377 . S
C3756 C3758 1.384 . S
C3757 C3756 1.377 . S
C3757 C3763 1.390 . S
C3758 H3749 0.930 . S
C3758 C3756 1.384 . S
C3758 C3759 1.372 . S
C3759 C3758 1.372 . S
C3759 C3760 1.400 . S
C3759 C3764 1.490 . S
C3760 H3750 0.930 . S
C3760 C3759 1.400 . S
C3760 C3763 1.386 . S
H3761 C3777 0.930 . S
H3762 C3778 0.931 . S
C3763 H3751 0.929 . S
C3763 C3757 1.390 . S
C3763 C3760 1.386 . S
C3764 C3759 1.490 . S
C3764 C3766 1.395 . S
C3764 C3767 1.403 . S
H3765 C3771 0.930 . S
C3766 H3752 0.930 . S
C3766 C3764 1.395 . S
C3766 C3769 1.403 . S
C3767 C3764 1.403 . S
C3767 C3768 1.524 . S
C3767 C3771 1.400 . S
C3768 H3753 0.960 . S
C3768 H3754 0.960 . S
C3768 H3755 0.960 . S
C3768 C3767 1.524 . S
C3769 C3766 1.403 . S
C3769 C3770 1.392 . S
C3769 C3773 1.495 . S
C3770 C3769 1.392 . S
C3770 C3771 1.385 . S
C3770 C3772 1.478 . S
C3771 H3765 0.930 . S
C3771 C3767 1.400 . S
C3771 C3770 1.385 . S
C3772 C3770 1.478 . S
C3772 C3774 1.381 . S
C3772 C3778 1.383 . S
C3773 C3769 1.495 . S
C3773 H3779 0.959 . S
C3773 H3780 0.961 . S
C3773 H3781 0.960 . S
C3774 C3772 1.381 . S
C3774 C3775 1.394 . S
C3774 H3782 0.930 . S
C3775 C3774 1.394 . S
C3775 C3776 1.383 . S
C3775 H3783 0.929 . S
C3776 C3775 1.383 . S
C3776 C3777 1.377 . S
C3777 H3761 0.930 . S
C3777 C3776 1.377 . S
C3777 C3778 1.379 . S
C3778 H3762 0.931 . S
C3778 C3772 1.383 . S
C3778 C3777 1.379 . S
H3779 C3773 0.959 . S
H3780 C3773 0.961 . S
H3781 C3773 0.960 . S
H3782 C3774 0.930 . S
H3783 C3775 0.929 . S
H3784 C3792 0.929 . S
H3785 C3794 0.930 . S
H3786 C3796 0.930 . S
H3787 C3799 0.929 . S
H3788 C3802 0.930 . S
H3789 C3804 0.960 . S
H3790 C3804 0.960 1_655 S
H3791 C3804 0.960 . S
C3792 H3784 0.929 . S
C3792 C3793 1.377 1_655 S
C3792 C3794 1.384 . S
C3793 C3792 1.377 1_455 S
C3793 C3799 1.390 . S
C3794 H3785 0.930 . S
C3794 C3792 1.384 . S
C3794 C3795 1.372 1_655 S
C3795 C3794 1.372 1_455 S
C3795 C3796 1.400 . S
C3795 C3800 1.490 . S
C3796 H3786 0.930 . S
C3796 C3795 1.400 . S
C3796 C3799 1.386 . S
H3797 C3813 0.930 . S
H3798 C3814 0.931 . S
C3799 H3787 0.929 . S
C3799 C3793 1.390 . S
C3799 C3796 1.386 . S
C3800 C3795 1.490 . S
C3800 C3802 1.395 . S
C3800 C3803 1.403 . S
H3801 C3807 0.930 . S
C3802 H3788 0.930 . S
C3802 C3800 1.395 . S
C3802 C3805 1.403 . S
C3803 C3800 1.403 . S
C3803 C3804 1.524 . S
C3803 C3807 1.400 . S
C3804 H3789 0.960 . S
C3804 H3790 0.960 1_455 S
C3804 H3791 0.960 . S
C3804 C3803 1.524 . S
C3805 C3802 1.403 . S
C3805 C3806 1.392 . S
C3805 C3809 1.495 . S
C3806 C3805 1.392 . S
C3806 C3807 1.385 . S
C3806 C3808 1.478 . S
C3807 H3801 0.930 . S
C3807 C3803 1.400 . S
C3807 C3806 1.385 . S
C3808 C3806 1.478 . S
C3808 C3810 1.381 . S
C3808 C3814 1.383 . S
C3809 C3805 1.495 . S
C3809 H3815 0.959 . S
C3809 H3816 0.961 . S
C3809 H3817 0.960 . S
C3810 C3808 1.381 . S
C3810 C3811 1.394 . S
C3810 H3818 0.930 1_455 S
C3811 C3810 1.394 . S
C3811 C3812 1.383 . S
C3811 H3819 0.929 1_455 S
C3812 C3811 1.383 . S
C3812 C3813 1.377 . S
C3813 H3797 0.930 . S
C3813 C3812 1.377 . S
C3813 C3814 1.379 . S
C3814 H3798 0.931 . S
C3814 C3808 1.383 . S
C3814 C3813 1.379 . S
H3815 C3809 0.959 . S
H3816 C3809 0.961 . S
H3817 C3809 0.960 . S
H3818 C3810 0.930 1_655 S
H3819 C3811 0.929 1_655 S
H3820 C3828 0.929 . S
H3821 C3830 0.930 . S
H3822 C3832 0.930 . S
H3823 C3835 0.929 . S
H3824 C3838 0.930 . S
H3825 C3840 0.960 . S
H3826 C3840 0.960 . S
H3827 C3840 0.960 . S
C3828 H3820 0.929 . S
C3828 C3829 1.377 . S
C3828 C3830 1.384 . S
C3829 C3828 1.377 . S
C3829 C3835 1.390 . S
C3830 H3821 0.930 . S
C3830 C3828 1.384 . S
C3830 C3831 1.372 . S
C3831 C3830 1.372 . S
C3831 C3832 1.400 . S
C3831 C3836 1.490 . S
C3832 H3822 0.930 . S
C3832 C3831 1.400 . S
C3832 C3835 1.386 . S
H3833 C3849 0.930 . S
H3834 C3850 0.931 . S
C3835 H3823 0.929 . S
C3835 C3829 1.390 . S
C3835 C3832 1.386 . S
C3836 C3831 1.490 . S
C3836 C3838 1.395 . S
C3836 C3839 1.403 . S
H3837 C3843 0.930 . S
C3838 H3824 0.930 . S
C3838 C3836 1.395 . S
C3838 C3841 1.403 . S
C3839 C3836 1.403 . S
C3839 C3840 1.524 . S
C3839 C3843 1.400 . S
C3840 H3825 0.960 . S
C3840 H3826 0.960 . S
C3840 H3827 0.960 . S
C3840 C3839 1.524 . S
C3841 C3838 1.403 . S
C3841 C3842 1.392 . S
C3841 C3845 1.495 . S
C3842 C3841 1.392 . S
C3842 C3843 1.385 . S
C3842 C3844 1.478 . S
C3843 H3837 0.930 . S
C3843 C3839 1.400 . S
C3843 C3842 1.385 . S
C3844 C3842 1.478 . S
C3844 C3846 1.381 . S
C3844 C3850 1.383 . S
C3845 C3841 1.495 . S
C3845 H3851 0.959 . S
C3845 H3852 0.961 . S
C3845 H3853 0.960 . S
C3846 C3844 1.381 . S
C3846 C3847 1.394 . S
C3846 H3854 0.930 . S
C3847 C3846 1.394 . S
C3847 C3848 1.383 . S
C3847 H3855 0.929 . S
C3848 C3847 1.383 . S
C3848 C3849 1.377 . S
C3849 H3833 0.930 . S
C3849 C3848 1.377 . S
C3849 C3850 1.379 . S
C3850 H3834 0.931 . S
C3850 C3844 1.383 . S
C3850 C3849 1.379 . S
H3851 C3845 0.959 . S
H3852 C3845 0.961 . S
H3853 C3845 0.960 . S
H3854 C3846 0.930 . S
H3855 C3847 0.929 . S
H3856 C3864 0.929 . S
H3857 C3866 0.930 . S
H3858 C3868 0.930 . S
H3859 C3871 0.929 . S
H3860 C3874 0.930 . S
H3861 C3876 0.960 . S
H3862 C3876 0.960 . S
H3863 C3876 0.960 . S
C3864 H3856 0.929 . S
C3864 C3865 1.377 . S
C3864 C3866 1.384 . S
C3865 C3864 1.377 . S
C3865 C3871 1.390 . S
C3866 H3857 0.930 . S
C3866 C3864 1.384 . S
C3866 C3867 1.372 . S
C3867 C3866 1.372 . S
C3867 C3868 1.400 . S
C3867 C3872 1.490 . S
C3868 H3858 0.930 . S
C3868 C3867 1.400 . S
C3868 C3871 1.386 . S
H3869 C3885 0.930 . S
H3870 C3886 0.931 . S
C3871 H3859 0.929 . S
C3871 C3865 1.390 . S
C3871 C3868 1.386 . S
C3872 C3867 1.490 . S
C3872 C3874 1.395 . S
C3872 C3875 1.403 . S
H3873 C3879 0.930 . S
C3874 H3860 0.930 . S
C3874 C3872 1.395 . S
C3874 C3877 1.403 . S
C3875 C3872 1.403 . S
C3875 C3876 1.524 . S
C3875 C3879 1.400 . S
C3876 H3861 0.960 . S
C3876 H3862 0.960 . S
C3876 H3863 0.960 . S
C3876 C3875 1.524 . S
C3877 C3874 1.403 . S
C3877 C3878 1.392 . S
C3877 C3881 1.495 . S
C3878 C3877 1.392 . S
C3878 C3879 1.385 . S
C3878 C3880 1.478 . S
C3879 H3873 0.930 . S
C3879 C3875 1.400 . S
C3879 C3878 1.385 . S
C3880 C3878 1.478 . S
C3880 C3882 1.381 . S
C3880 C3886 1.383 . S
C3881 C3877 1.495 . S
C3881 H3887 0.959 . S
C3881 H3888 0.961 . S
C3881 H3889 0.960 . S
C3882 C3880 1.381 . S
C3882 C3883 1.394 . S
C3882 H3890 0.930 . S
C3883 C3882 1.394 . S
C3883 C3884 1.383 . S
C3883 H3891 0.929 . S
C3884 C3883 1.383 . S
C3884 C3885 1.377 . S
C3885 H3869 0.930 . S
C3885 C3884 1.377 . S
C3885 C3886 1.379 . S
C3886 H3870 0.931 . S
C3886 C3880 1.383 . S
C3886 C3885 1.379 . S
H3887 C3881 0.959 . S
H3888 C3881 0.961 . S
H3889 C3881 0.960 . S
H3890 C3882 0.930 . S
H3891 C3883 0.929 . S
H3892 C3900 0.929 . S
H3893 C3902 0.930 . S
H3894 C3904 0.930 . S
H3895 C3907 0.929 . S
H3896 C3910 0.930 . S
H3897 C3912 0.960 . S
H3898 C3912 0.960 . S
H3899 C3912 0.960 . S
C3900 H3892 0.929 . S
C3900 C3901 1.377 . S
C3900 C3902 1.384 . S
C3901 C3900 1.377 . S
C3901 C3907 1.390 . S
C3902 H3893 0.930 . S
C3902 C3900 1.384 . S
C3902 C3903 1.372 . S
C3903 C3902 1.372 . S
C3903 C3904 1.400 . S
C3903 C3908 1.490 . S
C3904 H3894 0.930 . S
C3904 C3903 1.400 . S
C3904 C3907 1.386 . S
H3905 C3921 0.930 . S
H3906 C3922 0.931 . S
C3907 H3895 0.929 . S
C3907 C3901 1.390 . S
C3907 C3904 1.386 . S
C3908 C3903 1.490 . S
C3908 C3910 1.395 . S
C3908 C3911 1.403 . S
H3909 C3915 0.930 . S
C3910 H3896 0.930 . S
C3910 C3908 1.395 . S
C3910 C3913 1.403 . S
C3911 C3908 1.403 . S
C3911 C3912 1.524 . S
C3911 C3915 1.400 . S
C3912 H3897 0.960 . S
C3912 H3898 0.960 . S
C3912 H3899 0.960 . S
C3912 C3911 1.524 . S
C3913 C3910 1.403 . S
C3913 C3914 1.392 . S
C3913 C3917 1.495 . S
C3914 C3913 1.392 . S
C3914 C3915 1.385 . S
C3914 C3916 1.478 . S
C3915 H3909 0.930 . S
C3915 C3911 1.400 . S
C3915 C3914 1.385 . S
C3916 C3914 1.478 . S
C3916 C3918 1.381 . S
C3916 C3922 1.383 . S
C3917 C3913 1.495 . S
C3917 H3923 0.959 . S
C3917 H3924 0.961 . S
C3917 H3925 0.960 . S
C3918 C3916 1.381 . S
C3918 C3919 1.394 . S
C3918 H3926 0.930 . S
C3919 C3918 1.394 . S
C3919 C3920 1.383 . S
C3919 H3927 0.929 . S
C3920 C3919 1.383 . S
C3920 C3921 1.377 . S
C3921 H3905 0.930 . S
C3921 C3920 1.377 . S
C3921 C3922 1.379 . S
C3922 H3906 0.931 . S
C3922 C3916 1.383 . S
C3922 C3921 1.379 . S
H3923 C3917 0.959 . S
H3924 C3917 0.961 . S
H3925 C3917 0.960 . S
H3926 C3918 0.930 . S
H3927 C3919 0.929 . S
H3928 C3936 0.929 . S
H3929 C3938 0.930 . S
H3930 C3940 0.930 . S
H3931 C3943 0.929 . S
H3932 C3946 0.930 . S
H3933 C3948 0.960 . S
H3934 C3948 0.960 . S
H3935 C3948 0.960 . S
C3936 H3928 0.929 . S
C3936 C3937 1.377 . S
C3936 C3938 1.384 . S
C3937 C3936 1.377 . S
C3937 C3943 1.390 . S
C3938 H3929 0.930 . S
C3938 C3936 1.384 . S
C3938 C3939 1.372 . S
C3939 C3938 1.372 . S
C3939 C3940 1.400 . S
C3939 C3944 1.490 . S
C3940 H3930 0.930 . S
C3940 C3939 1.400 . S
C3940 C3943 1.386 . S
H3941 C3957 0.930 . S
H3942 C3958 0.931 . S
C3943 H3931 0.929 . S
C3943 C3937 1.390 . S
C3943 C3940 1.386 . S
C3944 C3939 1.490 . S
C3944 C3946 1.395 . S
C3944 C3947 1.403 . S
H3945 C3951 0.930 . S
C3946 H3932 0.930 . S
C3946 C3944 1.395 . S
C3946 C3949 1.403 . S
C3947 C3944 1.403 . S
C3947 C3948 1.524 . S
C3947 C3951 1.400 . S
C3948 H3933 0.960 . S
C3948 H3934 0.960 . S
C3948 H3935 0.960 . S
C3948 C3947 1.524 . S
C3949 C3946 1.403 . S
C3949 C3950 1.392 . S
C3949 C3953 1.495 . S
C3950 C3949 1.392 . S
C3950 C3951 1.385 . S
C3950 C3952 1.478 . S
C3951 H3945 0.930 . S
C3951 C3947 1.400 . S
C3951 C3950 1.385 . S
C3952 C3950 1.478 . S
C3952 C3954 1.381 1_655 S
C3952 C3958 1.383 . S
C3953 C3949 1.495 . S
C3953 H3959 0.959 . S
C3953 H3960 0.961 . S
C3953 H3961 0.960 1_655 S
C3954 C3952 1.381 1_455 S
C3954 C3955 1.394 . S
C3954 H3962 0.930 . S
C3955 C3954 1.394 . S
C3955 C3956 1.383 . S
C3955 H3963 0.929 . S
C3956 C3955 1.383 . S
C3956 C3957 1.377 1_455 S
C3957 H3941 0.930 . S
C3957 C3956 1.377 1_655 S
C3957 C3958 1.379 . S
C3958 H3942 0.931 . S
C3958 C3952 1.383 . S
C3958 C3957 1.379 . S
H3959 C3953 0.959 . S
H3960 C3953 0.961 . S
H3961 C3953 0.960 1_455 S
H3962 C3954 0.930 . S
H3963 C3955 0.929 . S
H3964 C3972 0.929 . S
H3965 C3974 0.930 . S
H3966 C3976 0.930 . S
H3967 C3979 0.929 . S
H3968 C3982 0.930 . S
H3969 C3984 0.960 . S
H3970 C3984 0.960 . S
H3971 C3984 0.960 . S
C3972 H3964 0.929 . S
C3972 C3973 1.377 . S
C3972 C3974 1.384 . S
C3973 C3972 1.377 . S
C3973 C3979 1.390 . S
C3974 H3965 0.930 . S
C3974 C3972 1.384 . S
C3974 C3975 1.372 . S
C3975 C3974 1.372 . S
C3975 C3976 1.400 . S
C3975 C3980 1.490 . S
C3976 H3966 0.930 . S
C3976 C3975 1.400 . S
C3976 C3979 1.386 . S
H3977 C3993 0.930 . S
H3978 C3994 0.931 . S
C3979 H3967 0.929 . S
C3979 C3973 1.390 . S
C3979 C3976 1.386 . S
C3980 C3975 1.490 . S
C3980 C3982 1.395 . S
C3980 C3983 1.403 . S
H3981 C3987 0.930 . S
C3982 H3968 0.930 . S
C3982 C3980 1.395 . S
C3982 C3985 1.403 . S
C3983 C3980 1.403 . S
C3983 C3984 1.524 . S
C3983 C3987 1.400 . S
C3984 H3969 0.960 . S
C3984 H3970 0.960 . S
C3984 H3971 0.960 . S
C3984 C3983 1.524 . S
C3985 C3982 1.403 . S
C3985 C3986 1.392 . S
C3985 C3989 1.495 . S
C3986 C3985 1.392 . S
C3986 C3987 1.385 . S
C3986 C3988 1.478 . S
C3987 H3981 0.930 . S
C3987 C3983 1.400 . S
C3987 C3986 1.385 . S
C3988 C3986 1.478 . S
C3988 C3990 1.381 . S
C3988 C3994 1.383 . S
C3989 C3985 1.495 . S
C3989 H3995 0.959 . S
C3989 H3996 0.961 . S
C3989 H3997 0.960 . S
C3990 C3988 1.381 . S
C3990 C3991 1.394 . S
C3990 H3998 0.930 . S
C3991 C3990 1.394 . S
C3991 C3992 1.383 . S
C3991 H3999 0.929 . S
C3992 C3991 1.383 . S
C3992 C3993 1.377 . S
C3993 H3977 0.930 . S
C3993 C3992 1.377 . S
C3993 C3994 1.379 . S
C3994 H3978 0.931 . S
C3994 C3988 1.383 . S
C3994 C3993 1.379 . S
H3995 C3989 0.959 . S
H3996 C3989 0.961 . S
H3997 C3989 0.960 . S
H3998 C3990 0.930 . S
H3999 C3991 0.929 . S
H4000 C4008 0.929 . S
H4001 C4010 0.930 . S
H4002 C4012 0.930 . S
H4003 C4015 0.929 . S
H4004 C4018 0.930 . S
H4005 C4020 0.960 . S
H4006 C4020 0.960 . S
H4007 C4020 0.960 . S
C4008 H4000 0.929 . S
C4008 C4009 1.377 . S
C4008 C4010 1.384 . S
C4009 C4008 1.377 . S
C4009 C4015 1.390 . S
C4010 H4001 0.930 . S
C4010 C4008 1.384 . S
C4010 C4011 1.372 . S
C4011 C4010 1.372 . S
C4011 C4012 1.400 . S
C4011 C4016 1.490 . S
C4012 H4002 0.930 . S
C4012 C4011 1.400 . S
C4012 C4015 1.386 . S
H4013 C4029 0.930 . S
H4014 C4030 0.931 . S
C4015 H4003 0.929 . S
C4015 C4009 1.390 . S
C4015 C4012 1.386 . S
C4016 C4011 1.490 . S
C4016 C4018 1.395 . S
C4016 C4019 1.403 . S
H4017 C4023 0.930 . S
C4018 H4004 0.930 . S
C4018 C4016 1.395 . S
C4018 C4021 1.403 . S
C4019 C4016 1.403 . S
C4019 C4020 1.524 . S
C4019 C4023 1.400 . S
C4020 H4005 0.960 . S
C4020 H4006 0.960 . S
C4020 H4007 0.960 . S
C4020 C4019 1.524 . S
C4021 C4018 1.403 . S
C4021 C4022 1.392 . S
C4021 C4025 1.495 . S
C4022 C4021 1.392 . S
C4022 C4023 1.385 . S
C4022 C4024 1.478 . S
C4023 H4017 0.930 . S
C4023 C4019 1.400 . S
C4023 C4022 1.385 . S
C4024 C4022 1.478 . S
C4024 C4026 1.381 . S
C4024 C4030 1.383 . S
C4025 C4021 1.495 . S
C4025 H4031 0.959 . S
C4025 H4032 0.961 . S
C4025 H4033 0.960 . S
C4026 C4024 1.381 . S
C4026 C4027 1.394 . S
C4026 H4034 0.930 . S
C4027 C4026 1.394 . S
C4027 C4028 1.383 . S
C4027 H4035 0.929 . S
C4028 C4027 1.383 . S
C4028 C4029 1.377 . S
C4029 H4013 0.930 . S
C4029 C4028 1.377 . S
C4029 C4030 1.379 . S
C4030 H4014 0.931 . S
C4030 C4024 1.383 . S
C4030 C4029 1.379 . S
H4031 C4025 0.959 . S
H4032 C4025 0.961 . S
H4033 C4025 0.960 . S
H4034 C4026 0.930 . S
H4035 C4027 0.929 . S
H4036 C4044 0.929 . S
H4037 C4046 0.930 . S
H4038 C4048 0.930 . S
H4039 C4051 0.929 . S
H4040 C4054 0.930 . S
H4041 C4056 0.960 . S
H4042 C4056 0.960 . S
H4043 C4056 0.960 . S
C4044 H4036 0.929 . S
C4044 C4045 1.377 . S
C4044 C4046 1.384 . S
C4045 C4044 1.377 . S
C4045 C4051 1.390 . S
C4046 H4037 0.930 . S
C4046 C4044 1.384 . S
C4046 C4047 1.372 . S
C4047 C4046 1.372 . S
C4047 C4048 1.400 . S
C4047 C4052 1.490 . S
C4048 H4038 0.930 . S
C4048 C4047 1.400 . S
C4048 C4051 1.386 . S
H4049 C4065 0.930 . S
H4050 C4066 0.931 . S
C4051 H4039 0.929 . S
C4051 C4045 1.390 . S
C4051 C4048 1.386 . S
C4052 C4047 1.490 . S
C4052 C4054 1.395 . S
C4052 C4055 1.403 . S
H4053 C4059 0.930 . S
C4054 H4040 0.930 . S
C4054 C4052 1.395 . S
C4054 C4057 1.403 . S
C4055 C4052 1.403 . S
C4055 C4056 1.524 . S
C4055 C4059 1.400 . S
C4056 H4041 0.960 . S
C4056 H4042 0.960 . S
C4056 H4043 0.960 . S
C4056 C4055 1.524 . S
C4057 C4054 1.403 . S
C4057 C4058 1.392 . S
C4057 C4061 1.495 . S
C4058 C4057 1.392 . S
C4058 C4059 1.385 . S
C4058 C4060 1.478 . S
C4059 H4053 0.930 . S
C4059 C4055 1.400 . S
C4059 C4058 1.385 . S
C4060 C4058 1.478 . S
C4060 C4062 1.381 . S
C4060 C4066 1.383 . S
C4061 C4057 1.495 . S
C4061 H4067 0.959 . S
C4061 H4068 0.961 . S
C4061 H4069 0.960 . S
C4062 C4060 1.381 . S
C4062 C4063 1.394 . S
C4062 H4070 0.930 . S
C4063 C4062 1.394 . S
C4063 C4064 1.383 . S
C4063 H4071 0.929 . S
C4064 C4063 1.383 . S
C4064 C4065 1.377 . S
C4065 H4049 0.930 . S
C4065 C4064 1.377 . S
C4065 C4066 1.379 . S
C4066 H4050 0.931 . S
C4066 C4060 1.383 . S
C4066 C4065 1.379 . S
H4067 C4061 0.959 . S
H4068 C4061 0.961 . S
H4069 C4061 0.960 . S
H4070 C4062 0.930 . S
H4071 C4063 0.929 . S
H4072 C4080 0.929 . S
H4073 C4082 0.930 . S
H4074 C4084 0.930 . S
H4075 C4087 0.929 . S
H4076 C4090 0.930 . S
H4077 C4092 0.960 . S
H4078 C4092 0.960 . S
H4079 C4092 0.960 . S
C4080 H4072 0.929 . S
C4080 C4081 1.377 . S
C4080 C4082 1.384 . S
C4081 C4080 1.377 . S
C4081 C4087 1.390 . S
C4082 H4073 0.930 . S
C4082 C4080 1.384 . S
C4082 C4083 1.372 . S
C4083 C4082 1.372 . S
C4083 C4084 1.400 . S
C4083 C4088 1.490 . S
C4084 H4074 0.930 . S
C4084 C4083 1.400 . S
C4084 C4087 1.386 . S
H4085 C4101 0.930 . S
H4086 C4102 0.936 . S
C4087 H4075 0.929 . S
C4087 C4081 1.390 . S
C4087 C4084 1.386 . S
C4088 C4083 1.490 . S
C4088 C4090 1.395 . S
C4088 C4091 1.403 . S
H4089 C4095 0.930 . S
C4090 H4076 0.930 . S
C4090 C4088 1.395 . S
C4090 C4093 1.403 . S
C4091 C4088 1.403 . S
C4091 C4092 1.524 . S
C4091 C4095 1.400 . S
C4092 H4077 0.960 . S
C4092 H4078 0.960 . S
C4092 H4079 0.960 . S
C4092 C4091 1.524 . S
C4093 C4090 1.403 . S
C4093 C4094 1.392 . S
C4093 C4097 1.495 . S
C4094 C4093 1.392 . S
C4094 C4095 1.385 . S
C4094 C4096 1.478 . S
C4095 H4089 0.930 . S
C4095 C4091 1.400 . S
C4095 C4094 1.385 . S
C4096 C4094 1.478 . S
C4096 C4098 1.381 . S
C4096 C4102 1.383 . S
C4097 C4093 1.495 . S
C4097 H4103 0.959 . S
C4097 H4104 0.961 . S
C4097 H4105 0.960 . S
C4098 C4096 1.381 . S
C4098 C4099 1.394 . S
C4098 H4106 0.930 . S
C4099 C4098 1.394 . S
C4099 C4100 1.383 . S
C4099 H4107 0.929 . S
C4100 C4099 1.383 . S
C4100 C4101 1.377 1_655 S
C4101 H4085 0.930 . S
C4101 C4100 1.377 1_455 S
C4101 C4102 1.379 1_455 S
C4102 H4086 0.936 . S
C4102 C4096 1.383 . S
C4102 C4101 1.379 1_655 S
H4103 C4097 0.959 . S
H4104 C4097 0.961 . S
H4105 C4097 0.960 . S
H4106 C4098 0.930 . S
H4107 C4099 0.929 . S
H4108 C4116 0.929 . S
H4109 C4118 0.930 . S
H4110 C4120 0.930 . S
H4111 C4123 0.929 . S
H4112 C4126 0.930 . S
H4113 C4128 0.960 . S
H4114 C4128 0.960 . S
H4115 C4128 0.960 . S
C4116 H4108 0.929 . S
C4116 C4117 1.377 . S
C4116 C4118 1.384 . S
C4117 C4116 1.377 . S
C4117 C4123 1.390 . S
C4118 H4109 0.930 . S
C4118 C4116 1.384 . S
C4118 C4119 1.372 . S
C4119 C4118 1.372 . S
C4119 C4120 1.400 . S
C4119 C4124 1.490 . S
C4120 H4110 0.930 . S
C4120 C4119 1.400 . S
C4120 C4123 1.386 . S
H4121 C4137 0.930 . S
H4122 C4138 0.931 . S
C4123 H4111 0.929 . S
C4123 C4117 1.390 . S
C4123 C4120 1.386 . S
C4124 C4119 1.490 . S
C4124 C4126 1.395 . S
C4124 C4127 1.403 . S
H4125 C4131 0.930 . S
C4126 H4112 0.930 . S
C4126 C4124 1.395 . S
C4126 C4129 1.403 . S
C4127 C4124 1.403 . S
C4127 C4128 1.524 . S
C4127 C4131 1.400 . S
C4128 H4113 0.960 . S
C4128 H4114 0.960 . S
C4128 H4115 0.960 . S
C4128 C4127 1.524 . S
C4129 C4126 1.403 . S
C4129 C4130 1.392 . S
C4129 C4133 1.495 . S
C4130 C4129 1.392 . S
C4130 C4131 1.385 . S
C4130 C4132 1.478 . S
C4131 H4125 0.930 . S
C4131 C4127 1.400 . S
C4131 C4130 1.385 . S
C4132 C4130 1.478 . S
C4132 C4134 1.381 . S
C4132 C4138 1.383 . S
C4133 C4129 1.495 . S
C4133 H4139 0.959 . S
C4133 H4140 0.961 . S
C4133 H4141 0.960 . S
C4134 C4132 1.381 . S
C4134 C4135 1.394 . S
C4134 H4142 0.930 . S
C4135 C4134 1.394 . S
C4135 C4136 1.383 . S
C4135 H4143 0.929 . S
C4136 C4135 1.383 . S
C4136 C4137 1.377 . S
C4137 H4121 0.930 . S
C4137 C4136 1.377 . S
C4137 C4138 1.379 . S
C4138 H4122 0.931 . S
C4138 C4132 1.383 . S
C4138 C4137 1.379 . S
H4139 C4133 0.959 . S
H4140 C4133 0.961 . S
H4141 C4133 0.960 . S
H4142 C4134 0.930 . S
H4143 C4135 0.929 . S
H4144 C4152 0.929 . S
H4145 C4154 0.930 . S
H4146 C4156 0.930 . S
H4147 C4159 0.929 . S
H4148 C4162 0.930 . S
H4149 C4164 0.960 . S
H4150 C4164 0.960 . S
H4151 C4164 0.960 . S
C4152 H4144 0.929 . S
C4152 C4153 1.377 . S
C4152 C4154 1.384 . S
C4153 C4152 1.377 . S
C4153 C4159 1.390 . S
C4154 H4145 0.930 . S
C4154 C4152 1.384 . S
C4154 C4155 1.372 . S
C4155 C4154 1.372 . S
C4155 C4156 1.400 . S
C4155 C4160 1.490 . S
C4156 H4146 0.930 . S
C4156 C4155 1.400 . S
C4156 C4159 1.386 . S
H4157 C4173 0.930 . S
H4158 C4174 0.931 . S
C4159 H4147 0.929 . S
C4159 C4153 1.390 . S
C4159 C4156 1.386 . S
C4160 C4155 1.490 . S
C4160 C4162 1.395 . S
C4160 C4163 1.403 . S
H4161 C4167 0.930 . S
C4162 H4148 0.930 . S
C4162 C4160 1.395 . S
C4162 C4165 1.403 . S
C4163 C4160 1.403 . S
C4163 C4164 1.524 . S
C4163 C4167 1.400 . S
C4164 H4149 0.960 . S
C4164 H4150 0.960 . S
C4164 H4151 0.960 . S
C4164 C4163 1.524 . S
C4165 C4162 1.403 . S
C4165 C4166 1.392 . S
C4165 C4169 1.495 . S
C4166 C4165 1.392 . S
C4166 C4167 1.385 . S
C4166 C4168 1.478 . S
C4167 H4161 0.930 . S
C4167 C4163 1.400 . S
C4167 C4166 1.385 . S
C4168 C4166 1.478 . S
C4168 C4170 1.381 . S
C4168 C4174 1.383 . S
C4169 C4165 1.495 . S
C4169 H4175 0.959 . S
C4169 H4176 0.961 . S
C4169 H4177 0.960 . S
C4170 C4168 1.381 . S
C4170 C4171 1.394 . S
C4170 H4178 0.930 . S
C4171 C4170 1.394 . S
C4171 C4172 1.383 . S
C4171 H4179 0.929 . S
C4172 C4171 1.383 . S
C4172 C4173 1.377 . S
C4173 H4157 0.930 . S
C4173 C4172 1.377 . S
C4173 C4174 1.379 . S
C4174 H4158 0.931 . S
C4174 C4168 1.383 . S
C4174 C4173 1.379 . S
H4175 C4169 0.959 . S
H4176 C4169 0.961 . S
H4177 C4169 0.960 . S
H4178 C4170 0.930 . S
H4179 C4171 0.929 . S
H4180 C4188 0.929 . S
H4181 C4190 0.930 . S
H4182 C4192 0.930 . S
H4183 C4195 0.929 . S
H4184 C4198 0.930 . S
H4185 C4200 0.960 . S
H4186 C4200 0.960 . S
H4187 C4200 0.960 . S
C4188 H4180 0.929 . S
C4188 C4189 1.377 . S
C4188 C4190 1.384 . S
C4189 C4188 1.377 . S
C4189 C4195 1.390 . S
C4190 H4181 0.930 . S
C4190 C4188 1.384 . S
C4190 C4191 1.372 . S
C4191 C4190 1.372 . S
C4191 C4192 1.400 . S
C4191 C4196 1.490 . S
C4192 H4182 0.930 . S
C4192 C4191 1.400 . S
C4192 C4195 1.386 . S
H4193 C4209 0.930 . S
H4194 C4210 0.931 . S
C4195 H4183 0.929 . S
C4195 C4189 1.390 . S
C4195 C4192 1.386 . S
C4196 C4191 1.490 . S
C4196 C4198 1.395 . S
C4196 C4199 1.403 . S
H4197 C4203 0.930 . S
C4198 H4184 0.930 . S
C4198 C4196 1.395 . S
C4198 C4201 1.403 . S
C4199 C4196 1.403 . S
C4199 C4200 1.524 . S
C4199 C4203 1.400 . S
C4200 H4185 0.960 . S
C4200 H4186 0.960 . S
C4200 H4187 0.960 . S
C4200 C4199 1.524 . S
C4201 C4198 1.403 . S
C4201 C4202 1.392 . S
C4201 C4205 1.495 . S
C4202 C4201 1.392 . S
C4202 C4203 1.385 . S
C4202 C4204 1.478 . S
C4203 H4197 0.930 . S
C4203 C4199 1.400 . S
C4203 C4202 1.385 . S
C4204 C4202 1.478 . S
C4204 C4206 1.381 . S
C4204 C4210 1.383 . S
C4205 C4201 1.495 . S
C4205 H4211 0.959 . S
C4205 H4212 0.961 . S
C4205 H4213 0.960 . S
C4206 C4204 1.381 . S
C4206 C4207 1.394 . S
C4206 H4214 0.930 . S
C4207 C4206 1.394 . S
C4207 C4208 1.383 . S
C4207 H4215 0.929 . S
C4208 C4207 1.383 . S
C4208 C4209 1.377 . S
C4209 H4193 0.930 . S
C4209 C4208 1.377 . S
C4209 C4210 1.379 . S
C4210 H4194 0.931 . S
C4210 C4204 1.383 . S
C4210 C4209 1.379 . S
H4211 C4205 0.959 . S
H4212 C4205 0.961 . S
H4213 C4205 0.960 . S
H4214 C4206 0.930 . S
H4215 C4207 0.929 . S
H4216 C4224 0.929 . S
H4217 C4226 0.930 . S
H4218 C4228 0.930 . S
H4219 C4231 0.929 . S
H4220 C4234 0.930 . S
H4221 C4236 0.960 . S
H4222 C4236 0.960 . S
H4223 C4236 0.960 . S
C4224 H4216 0.929 . S
C4224 C4225 1.377 . S
C4224 C4226 1.384 . S
C4225 C4224 1.377 . S
C4225 C4231 1.390 . S
C4226 H4217 0.930 . S
C4226 C4224 1.384 . S
C4226 C4227 1.372 . S
C4227 C4226 1.372 . S
C4227 C4228 1.400 . S
C4227 C4232 1.490 . S
C4228 H4218 0.930 . S
C4228 C4227 1.400 . S
C4228 C4231 1.386 . S
H4229 C4245 0.930 . S
H4230 C4246 0.931 . S
C4231 H4219 0.929 . S
C4231 C4225 1.390 . S
C4231 C4228 1.386 . S
C4232 C4227 1.490 . S
C4232 C4234 1.395 . S
C4232 C4235 1.403 . S
H4233 C4239 0.930 . S
C4234 H4220 0.930 . S
C4234 C4232 1.395 . S
C4234 C4237 1.403 . S
C4235 C4232 1.403 . S
C4235 C4236 1.524 . S
C4235 C4239 1.400 . S
C4236 H4221 0.960 . S
C4236 H4222 0.960 . S
C4236 H4223 0.960 . S
C4236 C4235 1.524 . S
C4237 C4234 1.403 . S
C4237 C4238 1.392 . S
C4237 C4241 1.495 . S
C4238 C4237 1.392 . S
C4238 C4239 1.385 . S
C4238 C4240 1.478 . S
C4239 H4233 0.930 . S
C4239 C4235 1.400 . S
C4239 C4238 1.385 . S
C4240 C4238 1.478 . S
C4240 C4242 1.381 . S
C4240 C4246 1.383 . S
C4241 C4237 1.495 . S
C4241 H4247 0.959 . S
C4241 H4248 0.961 . S
C4241 H4249 0.960 . S
C4242 C4240 1.381 . S
C4242 C4243 1.394 . S
C4242 H4250 0.930 . S
C4243 C4242 1.394 . S
C4243 C4244 1.383 . S
C4243 H4251 0.929 . S
C4244 C4243 1.383 . S
C4244 C4245 1.377 . S
C4245 H4229 0.930 . S
C4245 C4244 1.377 . S
C4245 C4246 1.379 . S
C4246 H4230 0.931 . S
C4246 C4240 1.383 . S
C4246 C4245 1.379 . S
H4247 C4241 0.959 . S
H4248 C4241 0.961 . S
H4249 C4241 0.960 . S
H4250 C4242 0.930 . S
H4251 C4243 0.929 . S
H4252 C4260 0.929 . S
H4253 C4262 0.930 . S
H4254 C4264 0.930 . S
H4255 C4267 0.929 . S
H4256 C4270 0.930 . S
H4257 C4272 0.960 . S
H4258 C4272 0.960 . S
H4259 C4272 0.960 . S
C4260 H4252 0.929 . S
C4260 C4261 1.377 . S
C4260 C4262 1.384 . S
C4261 C4260 1.377 . S
C4261 C4267 1.390 . S
C4262 H4253 0.930 . S
C4262 C4260 1.384 . S
C4262 C4263 1.372 . S
C4263 C4262 1.372 . S
C4263 C4264 1.400 . S
C4263 C4268 1.490 . S
C4264 H4254 0.930 . S
C4264 C4263 1.400 . S
C4264 C4267 1.386 . S
H4265 C4281 0.887 1_556 S
H4266 C4282 0.931 . S
C4267 H4255 0.929 . S
C4267 C4261 1.390 . S
C4267 C4264 1.386 . S
C4268 C4263 1.490 . S
C4268 C4270 1.395 . S
C4268 C4271 1.403 . S
H4269 C4275 0.930 . S
C4270 H4256 0.930 . S
C4270 C4268 1.395 . S
C4270 C4273 1.403 . S
C4271 C4268 1.403 . S
C4271 C4272 1.524 . S
C4271 C4275 1.400 . S
C4272 H4257 0.960 . S
C4272 H4258 0.960 . S
C4272 H4259 0.960 . S
C4272 C4271 1.524 . S
C4273 C4270 1.403 . S
C4273 C4274 1.392 . S
C4273 C4277 1.495 . S
C4274 C4273 1.392 . S
C4274 C4275 1.385 . S
C4274 C4276 1.478 . S
C4275 H4269 0.930 . S
C4275 C4271 1.400 . S
C4275 C4274 1.385 . S
C4276 C4274 1.478 . S
C4276 C4278 1.381 . S
C4276 C4282 1.383 . S
C4277 C4273 1.495 . S
C4277 H4283 0.959 . S
C4277 H4284 0.961 . S
C4277 H4285 0.960 . S
C4278 C4276 1.381 . S
C4278 C4279 1.394 . S
C4278 H4286 0.930 . S
C4279 C4278 1.394 . S
C4279 C4280 1.383 . S
C4279 H4287 0.929 . S
C4280 C4279 1.383 . S
C4280 C4281 1.377 . S
C4281 H4265 0.887 1_554 S
C4281 C4280 1.377 . S
C4281 C4282 1.379 . S
C4282 H4266 0.931 . S
C4282 C4276 1.383 . S
C4282 C4281 1.379 . S
H4283 C4277 0.959 . S
H4284 C4277 0.961 . S
H4285 C4277 0.960 . S
H4286 C4278 0.930 . S
H4287 C4279 0.929 . S
H4288 C4296 0.929 . S
H4289 C4298 0.930 . S
H4290 C4300 0.930 . S
H4291 C4303 0.929 . S
H4292 C4306 0.930 . S
H4293 C4308 0.960 . S
H4294 C4308 0.960 . S
H4295 C4308 0.960 . S
C4296 H4288 0.929 . S
C4296 C4297 1.377 . S
C4296 C4298 1.384 . S
C4297 C4296 1.377 . S
C4297 C4303 1.390 . S
C4298 H4289 0.930 . S
C4298 C4296 1.384 . S
C4298 C4299 1.372 . S
C4299 C4298 1.372 . S
C4299 C4300 1.400 . S
C4299 C4304 1.490 . S
C4300 H4290 0.930 . S
C4300 C4299 1.400 . S
C4300 C4303 1.386 . S
H4301 C4317 0.930 . S
H4302 C4318 0.931 . S
C4303 H4291 0.929 . S
C4303 C4297 1.390 . S
C4303 C4300 1.386 . S
C4304 C4299 1.490 . S
C4304 C4306 1.395 . S
C4304 C4307 1.403 . S
H4305 C4311 0.930 . S
C4306 H4292 0.930 . S
C4306 C4304 1.395 . S
C4306 C4309 1.403 . S
C4307 C4304 1.403 . S
C4307 C4308 1.524 . S
C4307 C4311 1.400 . S
C4308 H4293 0.960 . S
C4308 H4294 0.960 . S
C4308 H4295 0.960 . S
C4308 C4307 1.524 . S
C4309 C4306 1.403 . S
C4309 C4310 1.392 . S
C4309 C4313 1.495 . S
C4310 C4309 1.392 . S
C4310 C4311 1.385 . S
C4310 C4312 1.478 . S
C4311 H4305 0.930 . S
C4311 C4307 1.400 . S
C4311 C4310 1.385 . S
C4312 C4310 1.478 . S
C4312 C4314 1.381 . S
C4312 C4318 1.383 . S
C4313 C4309 1.495 . S
C4313 H4319 0.959 . S
C4313 H4320 0.961 . S
C4313 H4321 0.960 . S
C4314 C4312 1.381 . S
C4314 C4315 1.394 . S
C4314 H4322 0.930 . S
C4315 C4314 1.394 . S
C4315 C4316 1.383 . S
C4315 H4323 0.929 . S
C4316 C4315 1.383 . S
C4316 C4317 1.377 . S
C4317 H4301 0.930 . S
C4317 C4316 1.377 . S
C4317 C4318 1.379 . S
C4318 H4302 0.931 . S
C4318 C4312 1.383 . S
C4318 C4317 1.379 . S
H4319 C4313 0.959 . S
H4320 C4313 0.961 . S
H4321 C4313 0.960 . S
H4322 C4314 0.930 . S
H4323 C4315 0.929 . S
H4324 C4332 0.929 . S
H4325 C4334 0.930 . S
H4326 C4336 0.930 . S
H4327 C4339 0.929 . S
H4328 C4342 0.930 . S
H4329 C4344 0.960 . S
H4330 C4344 0.960 . S
H4331 C4344 0.960 . S
C4332 H4324 0.929 . S
C4332 C4333 1.377 . S
C4332 C4334 1.384 . S
C4333 C4332 1.377 . S
C4333 C4339 1.390 . S
C4334 H4325 0.930 . S
C4334 C4332 1.384 . S
C4334 C4335 1.372 . S
C4335 C4334 1.372 . S
C4335 C4336 1.400 . S
C4335 C4340 1.490 . S
C4336 H4326 0.930 . S
C4336 C4335 1.400 . S
C4336 C4339 1.386 . S
H4337 C4353 0.930 . S
H4338 C4354 0.931 . S
C4339 H4327 0.929 . S
C4339 C4333 1.390 . S
C4339 C4336 1.386 . S
C4340 C4335 1.490 . S
C4340 C4342 1.395 . S
C4340 C4343 1.396 1_554 S
H4341 C4347 0.982 . S
C4342 H4328 0.930 . S
C4342 C4340 1.395 . S
C4342 C4345 1.403 . S
C4343 C4340 1.396 1_556 S
C4343 C4344 1.530 . S
C4343 C4347 1.403 . S
C4344 H4329 0.960 . S
C4344 H4330 0.960 . S
C4344 H4331 0.960 . S
C4344 C4343 1.530 . S
C4345 C4342 1.403 . S
C4345 C4346 1.392 . S
C4345 C4349 1.495 . S
C4346 C4345 1.392 . S
C4346 C4347 1.334 1_554 S
C4346 C4348 1.478 . S
C4347 H4341 0.982 . S
C4347 C4343 1.403 . S
C4347 C4346 1.334 1_556 S
C4348 C4346 1.478 . S
C4348 C4350 1.381 . S
C4348 C4354 1.383 . S
C4349 C4345 1.495 . S
C4349 H4355 0.959 . S
C4349 H4356 0.961 . S
C4349 H4357 0.960 . S
C4350 C4348 1.381 . S
C4350 C4351 1.394 . S
C4350 H4358 0.930 . S
C4351 C4350 1.394 . S
C4351 C4352 1.383 . S
C4351 H4359 0.929 1_554 S
C4352 C4351 1.383 . S
C4352 C4353 1.377 . S
C4353 H4337 0.930 . S
C4353 C4352 1.377 . S
C4353 C4354 1.379 . S
C4354 H4338 0.931 . S
C4354 C4348 1.383 . S
C4354 C4353 1.379 . S
H4355 C4349 0.959 . S
H4356 C4349 0.961 . S
H4357 C4349 0.960 . S
H4358 C4350 0.930 . S
H4359 C4351 0.929 1_556 S
H4360 C4368 0.929 . S
H4361 C4370 0.930 . S
H4362 C4372 0.930 . S
H4363 C4375 0.929 . S
H4364 C4378 0.930 . S
H4365 C4380 0.960 . S
H4366 C4380 0.960 . S
H4367 C4380 0.960 . S
C4368 H4360 0.929 . S
C4368 C4369 1.377 . S
C4368 C4370 1.384 . S
C4369 C4368 1.377 . S
C4369 C4375 1.390 . S
C4370 H4361 0.930 . S
C4370 C4368 1.384 . S
C4370 C4371 1.372 . S
C4371 C4370 1.372 . S
C4371 C4372 1.400 . S
C4371 C4376 1.490 . S
C4372 H4362 0.930 . S
C4372 C4371 1.400 . S
C4372 C4375 1.386 . S
H4373 C4389 0.930 . S
H4374 C4390 0.931 . S
C4375 H4363 0.929 . S
C4375 C4369 1.390 . S
C4375 C4372 1.386 . S
C4376 C4371 1.490 . S
C4376 C4378 1.395 . S
C4376 C4379 1.403 . S
H4377 C4383 0.930 . S
C4378 H4364 0.930 . S
C4378 C4376 1.395 . S
C4378 C4381 1.403 . S
C4379 C4376 1.403 . S
C4379 C4380 1.524 . S
C4379 C4383 1.400 . S
C4380 H4365 0.960 . S
C4380 H4366 0.960 . S
C4380 H4367 0.960 . S
C4380 C4379 1.524 . S
C4381 C4378 1.403 . S
C4381 C4382 1.392 . S
C4381 C4385 1.495 . S
C4382 C4381 1.392 . S
C4382 C4383 1.385 . S
C4382 C4384 1.478 . S
C4383 H4377 0.930 . S
C4383 C4379 1.400 . S
C4383 C4382 1.385 . S
C4384 C4382 1.478 . S
C4384 C4386 1.381 . S
C4384 C4390 1.383 . S
C4385 C4381 1.495 . S
C4385 H4391 0.959 . S
C4385 H4392 0.961 . S
C4385 H4393 0.960 . S
C4386 C4384 1.381 . S
C4386 C4387 1.394 . S
C4386 H4394 0.930 . S
C4387 C4386 1.394 . S
C4387 C4388 1.383 . S
C4387 H4395 0.929 . S
C4388 C4387 1.383 . S
C4388 C4389 1.377 . S
C4389 H4373 0.930 . S
C4389 C4388 1.377 . S
C4389 C4390 1.379 . S
C4390 H4374 0.931 . S
C4390 C4384 1.383 . S
C4390 C4389 1.379 . S
H4391 C4385 0.959 . S
H4392 C4385 0.961 . S
H4393 C4385 0.960 . S
H4394 C4386 0.930 . S
H4395 C4387 0.929 . S
H4396 C4404 0.929 . S
H4397 C4406 0.930 . S
H4398 C4408 0.930 . S
H4399 C4411 0.929 . S
H4400 C4414 0.930 . S
H4401 C4416 0.960 . S
H4402 C4416 0.960 . S
H4403 C4416 0.960 . S
C4404 H4396 0.929 . S
C4404 C4405 1.377 . S
C4404 C4406 1.384 . S
C4405 C4404 1.377 . S
C4405 C4411 1.390 . S
C4406 H4397 0.930 . S
C4406 C4404 1.384 . S
C4406 C4407 1.372 . S
C4407 C4406 1.372 . S
C4407 C4408 1.400 . S
C4407 C4412 1.490 . S
C4408 H4398 0.930 . S
C4408 C4407 1.400 . S
C4408 C4411 1.386 . S
H4409 C4425 0.930 . S
H4410 C4426 0.931 . S
C4411 H4399 0.929 . S
C4411 C4405 1.390 . S
C4411 C4408 1.386 . S
C4412 C4407 1.490 . S
C4412 C4414 1.395 . S
C4412 C4415 1.403 . S
H4413 C4419 0.930 . S
C4414 H4400 0.930 . S
C4414 C4412 1.395 . S
C4414 C4417 1.403 . S
C4415 C4412 1.403 . S
C4415 C4416 1.524 . S
C4415 C4419 1.400 . S
C4416 H4401 0.960 . S
C4416 H4402 0.960 . S
C4416 H4403 0.960 . S
C4416 C4415 1.524 . S
C4417 C4414 1.403 . S
C4417 C4418 1.392 . S
C4417 C4421 1.495 . S
C4418 C4417 1.392 . S
C4418 C4419 1.385 . S
C4418 C4420 1.478 . S
C4419 H4413 0.930 . S
C4419 C4415 1.400 . S
C4419 C4418 1.385 . S
C4420 C4418 1.478 . S
C4420 C4422 1.381 . S
C4420 C4426 1.383 . S
C4421 C4417 1.495 . S
C4421 H4427 0.959 . S
C4421 H4428 0.961 . S
C4421 H4429 0.960 . S
C4422 C4420 1.381 . S
C4422 C4423 1.394 . S
C4422 H4430 0.930 . S
C4423 C4422 1.394 . S
C4423 C4424 1.383 . S
C4423 H4431 0.929 . S
C4424 C4423 1.383 . S
C4424 C4425 1.377 . S
C4425 H4409 0.930 . S
C4425 C4424 1.377 . S
C4425 C4426 1.379 . S
C4426 H4410 0.931 . S
C4426 C4420 1.383 . S
C4426 C4425 1.379 . S
H4427 C4421 0.959 . S
H4428 C4421 0.961 . S
H4429 C4421 0.960 . S
H4430 C4422 0.930 . S
H4431 C4423 0.929 . S
C985 C111 2.146 . S
C1004 C346 2.119 . S
C1021 C64 1.954 . S
C1040 C394 2.021 . S
C1057 C77 1.010 . S
C1076 C426 1.024 . S
C1112 C471 1.330 . S
C1093 C95 1.351 . S
C1129 C25 0.664 . S
C1148 C511 0.686 . S
C1184 C546 0.689 . S
C1165 C36 0.709 . S
C1220 C585 1.150 . S
C1201 C50 1.153 . S
C1237 C11 1.046 . S
C1256 C622 1.060 . S
C1292 C354 1.885 . S
C1273 C237 1.813 . S
C1309 C245 0.405 . S
C1328 C391 0.589 . S
C1364 C434 2.325 . S
C1345 C279 2.219 . S
C1400 C466 0.818 . S
C1381 C175 0.853 . S
C1417 C231 0.956 . S
C1436 C506 0.920 . S
C1472 C554 0.410 . S
C1453 C251 0.548 . S
C1508 C595 1.768 . S
C1489 C273 1.855 . S
C1544 C625 1.853 . S
C1525 C181 1.819 . S
C1580 C351 0.993 . S
C1561 C165 1.005 1_554 S
C1597 C288 2.098 . S
C1616 C674 2.128 . S
C1652 C711 1.077 . S
C1633 C333 1.075 . S
C1688 C742 0.321 . S
C1669 C316 0.324 . S
C1705 C123 2.655 . S
C1724 C635 2.617 . S
C1741 C137 1.264 . S
C1760 C431 1.253 . S
C1777 C330 1.695 . S
C1796 C794 1.748 . S
C1832 C826 1.693 . S
C1813 C302 1.673 . S
C1868 C355 2.264 . S
C1849 C63 2.312 . S
C1904 C825 2.087 . S
C1885 C106 2.080 . S
C1921 C97 1.073 . S
C1940 C435 1.102 . S
C1957 C81 1.419 . S
C1976 C782 1.429 . S
C2012 C502 0.832 . S
C1993 C13 0.782 1_455 S
C2029 C55 0.801 . S
C2048 C715 0.807 . S
C2084 C594 1.100 1_556 S
C2065 C35 1.096 . S
C2120 C871 1.247 . S
C2101 C21 1.250 . S
C2156 C345 2.012 . S
C2137 C147 2.045 . S
C2192 C822 0.531 . S
C2173 C321 0.713 . S
C2209 C119 2.443 . S
C2228 C425 2.409 . S
C2245 C293 0.982 . S
C2264 C795 1.027 . S
C2281 C153 1.120 . S
C2300 C515 1.169 . S
C2336 C705 0.540 . S
C2317 C315 0.488 . S
C2353 C125 1.778 . S
C2372 C586 1.832 . S
C2389 C287 1.996 . S
C2408 C874 1.953 . S
C2425 C193 1.029 . S
C2444 C342 1.042 . S
C2461 C176 2.204 . S
C2480 C665 2.190 . S
C2497 C263 1.058 . S
C2516 C542 1.060 . S
C2533 C246 0.413 . S
C2552 C751 0.322 . S
C2588 C866 2.780 . S
C2569 C277 2.821 . S
C2605 C221 1.310 . S
C2624 C422 1.294 . S
C2660 C465 1.789 . S
C2641 C260 1.808 . S
C2696 C395 1.803 . S
C2677 C204 1.712 . S
C2713 C83 2.150 . S
C2732 C906 2.130 . S
C2768 C834 2.004 . S
C2749 C92 1.956 . S
C2785 C105 1.012 . S
C2804 C946 1.009 . S
C2821 C67 1.353 . S
C2840 C791 1.314 . S
C2857 C53 0.674 . S
C2876 C671 0.646 . S
C2912 C706 0.694 . S
C2893 C8 0.707 . S
C2948 C745 1.177 . S
C2929 C22 1.160 . S
C2984 C862 1.038 . S
C2965 C39 1.049 . S
C3020 C914 1.870 . S
C3001 C265 1.816 . S
C3037 C189 0.403 . S
C3056 C831 0.588 . S
C3092 C954 2.342 . S
C3073 C209 2.211 . S
C3128 C786 0.874 . S
C3109 C217 0.846 . S
C3164 C666 0.968 . S
C3145 C259 0.951 . S
C3181 C195 0.570 . S
C3200 C714 0.403 . S
C3236 C755 1.792 . S
C3217 C203 1.857 . S
C3253 C223 1.822 . S
C3272 C865 1.864 . S
C3308 C911 0.960 . S
C3289 C319 1.013 . S
C3325 C134 2.093 . S
C3344 C514 2.140 . S
C3380 C551 1.044 . S
C3361 C151 1.075 . S
C3416 C582 0.442 . S
C3397 C162 0.332 . S
C3452 C875 2.624 . S
C3433 C305 2.655 . S
C3469 C291 1.264 . S
C3488 C951 1.258 . S
C3524 C474 1.741 . S
C3505 C148 1.704 . S
C3560 C386 1.686 . S
C3541 C120 1.672 . S
C3577 C91 2.311 . S
C3596 C915 2.246 . S
C3632 C385 2.078 . S
C3613 C78 2.082 . S
C3649 C69 1.086 . S
C3668 C955 1.134 . S
C3685 C109 1.414 . S
C3704 C462 1.411 . S
C3721 C41 0.810 . S
C3740 C662 0.834 . S
C3776 C555 0.841 . S
C3757 C27 0.820 . S
C3793 C7 1.093 . S
C3812 C754 1.074 . S
C3829 C49 1.251 . S
C3848 C631 1.255 . S
C3884 C905 2.016 . S
C3865 C329 2.044 . S
C3901 C167 0.684 . S
C3920 C382 0.501 . S
C3956 C945 2.407 . S
C3937 C301 2.441 . S
C3973 C139 0.979 . S
C3992 C475 1.001 . S
C4009 C335 1.120 . S
C4028 C675 1.170 . S
C4064 C545 0.557 . S
C4045 C161 0.495 . S
C4081 C307 1.773 . S
C4100 C746 1.809 1_655 S
C4136 C634 1.957 . S
C4117 C133 1.996 . S
C4172 C902 1.036 . S
C4153 C249 1.019 . S
C4208 C505 2.189 1_565 S
C4189 C218 2.203 . S
C4225 C235 1.068 . S
C4244 C702 1.077 . S
C4280 C591 0.324 . S
C4261 C190 0.409 . S
C4297 C207 2.822 . S
C4316 C626 2.783 . S
C4333 C179 1.307 . S
C4352 C942 1.293 . S
C4388 C785 1.790 . S
C4369 C232 1.808 . S
C4424 C835 1.817 . S
C4405 C274 1.720 . S
