# Generated by pormake.
# Topology zzz, (3,6)-cn, num edge types: 1
# Building blocks:
#     Node 0, Type 0, BuildingBlock: OLANEW_clean_sbu_2, # of connection points: 3
#     Node 1, Type 0, BuildingBlock: OLANEW_clean_sbu_2, # of connection points: 3
#     Node 2, Type 0, BuildingBlock: OLANEW_clean_sbu_2, # of connection points: 3
#     Node 3, Type 0, BuildingBlock: OLANEW_clean_sbu_2, # of connection points: 3
#     Node 4, Type 0, BuildingBlock: OLANEW_clean_sbu_2, # of connection points: 3
#     Node 5, Type 0, BuildingBlock: OLANEW_clean_sbu_2, # of connection points: 3
#     Node 6, Type 0, BuildingBlock: OLANEW_clean_sbu_2, # of connection points: 3
#     Node 7, Type 0, BuildingBlock: OLANEW_clean_sbu_2, # of connection points: 3
#     Node 8, Type 1, BuildingBlock: PAMTUU_clean_sbu_0, # of connection points: 6
#     Node 9, Type 1, BuildingBlock: PAMTUU_clean_sbu_0, # of connection points: 6
#     Node 10, Type 1, BuildingBlock: PAMTUU_clean_sbu_0, # of connection points: 6
#     Node 11, Type 1, BuildingBlock: PAMTUU_clean_sbu_0, # of connection points: 6
#     Edge 12, Type (0, 1), BuildingBlock: KIFKEQ_clean_linker_1, # of connection points: 2
#     Edge 13, Type (0, 1), BuildingBlock: KIFKEQ_clean_linker_1, # of connection points: 2
#     Edge 14, Type (0, 1), BuildingBlock: KIFKEQ_clean_linker_1, # of connection points: 2
#     Edge 15, Type (0, 1), BuildingBlock: KIFKEQ_clean_linker_1, # of connection points: 2
#     Edge 16, Type (0, 1), BuildingBlock: KIFKEQ_clean_linker_1, # of connection points: 2
#     Edge 17, Type (0, 1), BuildingBlock: KIFKEQ_clean_linker_1, # of connection points: 2
#     Edge 18, Type (0, 1), BuildingBlock: KIFKEQ_clean_linker_1, # of connection points: 2
#     Edge 19, Type (0, 1), BuildingBlock: KIFKEQ_clean_linker_1, # of connection points: 2
#     Edge 20, Type (0, 1), BuildingBlock: KIFKEQ_clean_linker_1, # of connection points: 2
#     Edge 21, Type (0, 1), BuildingBlock: KIFKEQ_clean_linker_1, # of connection points: 2
#     Edge 22, Type (0, 1), BuildingBlock: KIFKEQ_clean_linker_1, # of connection points: 2
#     Edge 23, Type (0, 1), BuildingBlock: KIFKEQ_clean_linker_1, # of connection points: 2
#     Edge 24, Type (0, 1), BuildingBlock: KIFKEQ_clean_linker_1, # of connection points: 2
#     Edge 25, Type (0, 1), BuildingBlock: KIFKEQ_clean_linker_1, # of connection points: 2
#     Edge 26, Type (0, 1), BuildingBlock: KIFKEQ_clean_linker_1, # of connection points: 2
#     Edge 27, Type (0, 1), BuildingBlock: KIFKEQ_clean_linker_1, # of connection points: 2
#     Edge 28, Type (0, 1), BuildingBlock: KIFKEQ_clean_linker_1, # of connection points: 2
#     Edge 29, Type (0, 1), BuildingBlock: KIFKEQ_clean_linker_1, # of connection points: 2
#     Edge 30, Type (0, 1), BuildingBlock: KIFKEQ_clean_linker_1, # of connection points: 2
#     Edge 31, Type (0, 1), BuildingBlock: KIFKEQ_clean_linker_1, # of connection points: 2
#     Edge 32, Type (0, 1), BuildingBlock: KIFKEQ_clean_linker_1, # of connection points: 2
#     Edge 33, Type (0, 1), BuildingBlock: KIFKEQ_clean_linker_1, # of connection points: 2
#     Edge 34, Type (0, 1), BuildingBlock: KIFKEQ_clean_linker_1, # of connection points: 2
#     Edge 35, Type (0, 1), BuildingBlock: KIFKEQ_clean_linker_1, # of connection points: 2
# Relax obj value: 0.199
# Max RMSD: 0.227
# Mean RMSD: 0.130
data_MOF--net-zzz--node1-OLANEW_clean_sbu_2--node2-PAMTUU_clean_sbu_0--edge1-KIFKEQ_clean_linker_1
_symmetry_space_group_name_H-M    P1
_symmetry_Int_Tables_number       1
_symmetry_cell_setting            triclinic
loop_
_symmetry_equiv_pos_as_xyz
'x, y, z'
_cell_length_a     56.150039
_cell_length_b     58.512401
_cell_length_c     17.816098
_cell_angle_alpha  99.683667
_cell_angle_beta   90.421265
_cell_angle_gamma 90.657861
loop_
_atom_site_label
_atom_site_type_symbol
_atom_site_fract_x
_atom_site_fract_y
_atom_site_fract_z
_atom_type_partial_charge
O0 O 0.76421 0.53129 0.31691 0.0
Cd1 Cd 0.72769 0.55305 0.34867 0.0
O2 O 0.76849 0.526 0.43496 0.0
Cd3 Cd 0.78272 0.51185 0.53209 0.0
O4 O 0.77187 0.50059 0.64386 0.0
C5 C 0.78424 0.50021 0.70437 0.0
O6 O 0.77108 0.50035 0.64397 0.0
C7 C 0.77612 0.52311 0.36707 0.0
C8 C 0.68994 0.53853 0.24835 0.0
O9 O 0.70551 0.55324 0.23324 0.0
O10 O 0.69233 0.53049 0.31059 0.0
O11 O 0.94219 0.75662 0.15031 0.0
Cd12 Cd 0.91809 0.72651 0.19355 0.0
O13 O 0.96213 0.75714 0.256 0.0
Cd14 Cd 0.98433 0.77263 0.35172 0.0
O15 O 0.98905 0.80052 0.44708 0.0
C16 C 0.97967 0.81946 0.43738 0.0
O17 O 0.96921 0.82059 0.37188 0.0
C18 C 0.95882 0.76537 0.19511 0.0
C19 C 0.9356 0.68296 0.13651 0.0
O20 O 0.91976 0.69247 0.10015 0.0
O21 O 0.94304 0.69403 0.2008 0.0
O22 O 0.76949 0.93403 0.27809 0.0
Cd23 Cd 0.80746 0.91802 0.30838 0.0
O24 O 0.76852 0.95464 0.39262 0.0
Cd25 Cd 0.74934 0.97495 0.4861 0.0
O26 O 0.71782 0.98246 0.55502 0.0
C27 C 0.70565 0.00064 0.55533 0.0
O28 O 0.713 0.01642 0.51607 0.0
C29 C 0.75894 0.94857 0.32727 0.0
C30 C 0.84402 0.94146 0.24846 0.0
O31 O 0.83285 0.92452 0.20767 0.0
O32 O 0.83816 0.94718 0.31844 0.0
O33 O 0.56849 0.72134 0.83469 0.0
Cd34 Cd 0.59377 0.75605 0.84235 0.0
O35 O 0.57126 0.71958 0.95683 0.0
Cd36 Cd 0.56659 0.69892 0.04741 0.0
O37 O 0.56112 0.67249 0.11904 0.0
C38 C 0.5647 0.65121 0.09303 0.0
O39 O 0.57173 0.64528 0.02231 0.0
C40 C 0.56363 0.71118 0.89048 0.0
C41 C 0.57062 0.79853 0.86457 0.0
O42 O 0.58132 0.79144 0.92 0.0
O43 O 0.57035 0.78535 0.7994 0.0
O44 O 0.26042 0.45866 0.27786 0.0
Cd45 Cd 0.29861 0.43946 0.24943 0.0
O46 O 0.25016 0.45014 0.15775 0.0
Cd47 Cd 0.23083 0.44922 0.04989 0.0
O48 O 0.24034 0.44686 0.92438 0.0
C49 C 0.22911 0.45542 0.873 0.0
O50 O 0.24112 0.44641 0.9234 0.0
C51 C 0.245 0.45921 0.22556 0.0
C52 C 0.33408 0.45464 0.3577 0.0
O53 O 0.33288 0.46287 0.29552 0.0
O54 O 0.31847 0.43944 0.36882 0.0
O55 O 0.00297 0.22991 0.29805 0.0
Cd56 Cd 0.01207 0.25995 0.22266 0.0
O57 O 0.03658 0.23546 0.36336 0.0
Cd58 Cd 0.0542 0.25004 0.27338 0.0
O59 O 0.06745 0.22375 0.18306 0.0
C60 C 0.05415 0.21709 0.12544 0.0
O61 O 0.03491 0.22893 0.11642 0.0
C62 C 0.01598 0.2261 0.35325 0.0
C63 C 0.01305 0.30218 0.32108 0.0
O64 O 0.99352 0.29393 0.28939 0.0
O65 O 0.03217 0.29081 0.30421 0.0
O66 O 0.2312 0.97045 0.26747 0.0
Cd67 Cd 0.19156 0.97417 0.21521 0.0
O68 O 0.23507 0.00781 0.26789 0.0
Cd69 Cd 0.25908 0.03756 0.27414 0.0
O70 O 0.29582 0.04099 0.24027 0.0
C71 C 0.29972 0.0434 0.17194 0.0
O72 O 0.28158 0.04613 0.12745 0.0
C73 C 0.24363 0.98894 0.28216 0.0
C74 C 0.1593 0.98195 0.33392 0.0
O75 O 0.16263 0.96147 0.29718 0.0
O76 O 0.17096 -0.00119 0.31359 0.0
O77 O 0.4302 0.28291 0.83076 0.0
Cd78 Cd 0.40413 0.24863 0.80617 0.0
O79 O 0.4218 0.28726 0.7137 0.0
Cd80 Cd 0.42172 0.30798 0.62237 0.0
O81 O 0.42064 0.33218 0.54155 0.0
C82 C 0.44001 0.3404 0.52021 0.0
O83 O 0.46027 0.33385 0.54666 0.0
C84 C 0.43258 0.2943 0.77649 0.0
C85 C 0.42653 0.20695 0.81661 0.0
O86 O 0.4263 0.21496 0.75392 0.0
O87 O 0.4165 0.21886 0.87456 0.0
Tb88 Tb 0.99199 0.0182 0.82647 0.0
Tb89 Tb 0.03178 -0.00325 0.9326 0.0
C90 C 0.97897 0.00474 0.98249 0.0
C91 C 0.96775 0.05554 0.7005 0.0
C92 C 0.97569 0.0925 0.62054 0.0
C93 C 0.95277 0.08261 0.62278 0.0
C94 C 0.94883 0.06427 0.66271 0.0
C95 C 0.99066 0.06508 0.69748 0.0
C96 C 0.99458 0.08344 0.65823 0.0
C97 C 0.96364 0.03736 0.74649 0.0
O98 O 0.019 0.04466 0.85904 0.0
O99 O 0.03263 0.03421 0.97007 0.0
O100 O 0.05231 0.00746 0.84132 0.0
O101 O 0.02171 0.00598 0.75364 0.0
O102 O 0.04316 0.99267 0.04231 0.0
O103 O 0.06087 0.97514 0.94256 0.0
O104 O 0.01873 0.96894 0.84518 0.0
O105 O 0.98168 0.98214 0.82008 0.0
O106 O 0.97702 0.02068 0.9394 0.0
O107 O 0.99678 0.99037 0.97528 0.0
C108 C 0.02993 0.04969 0.92508 0.0
O109 O 0.97385 0.01761 0.72248 0.0
O110 O 0.96687 0.04399 0.81942 0.0
C111 C 0.04455 0.0061 0.77081 0.0
C112 C 0.0513 0.95325 0.03678 0.0
C113 C 0.0384 0.90969 0.07337 0.0
C114 C 0.05936 0.92122 0.10406 0.0
C115 C 0.06583 0.94288 0.0856 0.0
C116 C 0.0303 0.94187 0.00725 0.0
C117 C 0.02391 0.92042 0.02526 0.0
C118 C 0.05732 0.97581 0.01514 0.0
C119 C 0.99705 0.96529 0.81729 0.0
H120 H 0.9379 0.089 0.59363 0.0
H121 H 0.93103 0.05708 0.6647 0.0
H122 H 0.00546 0.05857 0.72665 0.0
H123 H 0.01236 0.09086 0.65896 0.0
H124 H 0.07088 0.91337 0.1413 0.0
H125 H 0.08209 0.95144 0.1091 0.0
H126 H 0.01871 0.9496 0.96999 0.0
H127 H 0.00739 0.91235 0.00201 0.0
Tb128 Tb 0.48915 0.9946 0.77683 0.0
Tb129 Tb 0.51461 0.01431 0.9447 0.0
C130 C 0.51259 0.96157 0.87677 0.0
C131 C 0.44924 0.98195 0.60395 0.0
C132 C 0.40657 0.98522 0.5226 0.0
C133 C 0.42242 0.96703 0.49937 0.0
C134 C 0.44357 0.96544 0.53972 0.0
C135 C 0.43381 0.00047 0.62665 0.0
C136 C 0.41264 0.00215 0.58598 0.0
C137 C 0.47049 0.97853 0.64893 0.0
O138 O 0.45987 0.00649 0.85099 0.0
O139 O 0.47791 0.00542 0.96697 0.0
O140 O 0.49491 0.04347 0.91734 0.0
O141 O 0.49088 0.03228 0.78715 0.0
O142 O 0.51898 0.01104 0.05935 0.0
O143 O 0.538 0.03759 0.01286 0.0
O144 O 0.53948 0.02018 0.85698 0.0
O145 O 0.52729 0.9908 0.7626 0.0
O146 O 0.49418 0.96519 0.83481 0.0
O147 O 0.5258 0.97867 0.91238 0.0
C148 C 0.45884 0.00692 0.92482 0.0
O149 O 0.48638 0.99523 0.65936 0.0
O150 O 0.46653 0.97025 0.71115 0.0
C151 C 0.49011 0.04811 0.84917 0.0
C152 C 0.55822 0.01952 0.1026 0.0
C153 C 0.60103 0.00559 0.16397 0.0
C154 C 0.5917 0.02767 0.19053 0.0
C155 C 0.57039 0.03454 0.16017 0.0
C156 C 0.56764 -0.00239 0.07532 0.0
C157 C 0.58878 0.99068 0.10593 0.0
C158 C 0.53585 0.02676 0.07068 0.0
C159 C 0.54344 0.00593 0.7934 0.0
H160 H 0.41838 0.95391 0.45028 0.0
H161 H 0.4553 0.95102 0.52161 0.0
H162 H 0.43788 0.01327 0.67662 0.0
H163 H 0.40067 0.01625 0.6056 0.0
H164 H 0.60071 0.03948 0.23543 0.0
H165 H 0.56341 0.05154 0.18169 0.0
H166 H 0.55865 0.98583 0.03031 0.0
H167 H 0.59572 0.97373 0.08339 0.0
Tb168 Tb 0.48998 0.50361 0.90334 0.0
Tb169 Tb 0.52236 0.49649 0.74689 0.0
C170 C 0.46775 0.49744 0.74042 0.0
C171 C 0.45599 0.48885 0.06571 0.0
C172 C 0.44463 0.45486 0.15496 0.0
C173 C 0.44414 0.47857 0.18656 0.0
C174 C 0.44983 0.49541 0.14226 0.0
C175 C 0.45544 0.46531 0.03285 0.0
C176 C 0.44974 0.44845 0.07704 0.0
C177 C 0.46602 0.50622 0.02395 0.0
O178 O 0.50199 0.46797 0.88653 0.0
O179 O 0.50826 0.46242 0.75755 0.0
O180 O 0.54546 0.4911 0.84097 0.0
O181 O 0.52598 0.5156 0.93287 0.0
O182 O 0.52517 0.48285 0.6304 0.0
O183 O 0.55457 0.50137 0.69231 0.0
O184 O 0.5218 0.53366 0.7859 0.0
O185 O 0.49082 0.53797 0.8723 0.0
O186 O 0.46729 0.49002 0.80594 0.0
O187 O 0.48702 0.50713 0.71829 0.0
C188 C 0.50381 0.45428 0.82048 0.0
O189 O 0.48917 0.5066 0.02202 0.0
O190 O 0.45667 0.50733 0.95744 0.0
C191 C 0.5452 0.50441 0.90812 0.0
C192 C 0.54798 0.50738 0.567 0.0
C193 C 0.55219 0.53657 0.45693 0.0
C194 C 0.56197 0.51422 0.44385 0.0
C195 C 0.55994 0.49976 0.49875 0.0
C196 C 0.53781 0.52945 0.57948 0.0
C197 C 0.53997 0.54395 0.52515 0.0
C198 C 0.54601 0.49249 0.62538 0.0
C199 C 0.50669 0.54651 0.83016 0.0
H200 H 0.44058 0.48411 0.24648 0.0
H201 H 0.45047 0.5135 0.16867 0.0
H202 H 0.46032 0.45992 0.97385 0.0
H203 H 0.44996 0.43037 0.05069 0.0
H204 H 0.57157 0.50814 0.39195 0.0
H205 H 0.56781 0.48272 0.48815 0.0
H206 H 0.52826 0.53549 0.63147 0.0
H207 H 0.53193 0.56091 0.53635 0.0
Tb208 Tb 0.01515 0.50083 0.72266 0.0
Tb209 Tb 0.00151 0.47647 0.87267 0.0
C210 C 0.00054 0.53077 0.87812 0.0
C211 C 0.04828 0.5144 0.55532 0.0
C212 C 0.08829 0.50737 0.45914 0.0
C213 C 0.09052 0.52 0.53338 0.0
C214 C 0.07076 0.52346 0.58099 0.0
C215 C 0.04594 0.50223 0.48057 0.0
C216 C 0.06575 0.49864 0.43309 0.0
C217 C 0.02733 0.51708 0.60593 0.0
O218 O 0.04745 0.5018 0.79143 0.0
O219 O 0.03957 0.47209 0.85803 0.0
O220 O 0.99911 0.45004 0.77088 0.0
O221 O 0.02661 0.4653 0.69898 0.0
O222 O 0.00675 0.47321 0.98731 0.0
O223 O 0.98144 0.4513 0.91639 0.0
O224 O 0.9687 0.49082 0.8381 0.0
O225 O 0.97722 0.49189 0.71254 0.0
O226 O 0.99966 0.52811 0.80351 0.0
O227 O 0.00513 0.51355 0.91475 0.0
C228 C 0.05445 0.4865 0.83296 0.0
O229 O 0.01375 0.49873 0.60381 0.0
O230 O 0.0307 0.52791 0.67554 0.0
C231 C 0.01375 0.44778 0.71313 0.0
C232 C 0.97108 0.46318 0.04372 0.0
C233 C 0.93251 0.47158 0.14448 0.0
C234 C 0.94288 0.44953 0.12943 0.0
C235 C 0.96205 0.44539 0.07951 0.0
C236 C 0.96113 0.48534 0.05969 0.0
C237 C 0.94209 0.48953 0.10997 0.0
C238 C 0.98949 0.45802 0.98538 0.0
C239 C 0.96189 0.49198 0.7682 0.0
H240 H 0.1077 0.52669 0.55551 0.0
H241 H 0.07324 0.53294 0.63823 0.0
H242 H 0.02879 0.49521 0.45911 0.0
H243 H 0.06342 0.48902 0.37596 0.0
H244 H 0.93594 0.43541 0.15547 0.0
H245 H 0.96944 0.42815 0.06737 0.0
H246 H 0.96765 0.49922 0.0317 0.0
H247 H 0.93425 0.50659 0.11942 0.0
H248 H 0.12546 0.95217 0.37155 0.0
H249 H 0.15575 0.02071 0.44246 0.0
H250 H 0.09809 0.95869 0.47868 0.0
H251 H 0.12843 0.02708 0.55011 0.0
H252 H 0.09273 0.01471 0.77857 0.0
H253 H 0.12093 0.00936 0.67288 0.0
H254 H 0.06333 0.98633 0.51555 0.0
H255 H 0.0352 0.99174 0.62011 0.0
C256 C 0.12629 0.9686 0.41004 0.0
C257 C 0.14268 0.98596 0.3985 0.0
C258 C 0.11059 0.97234 0.47113 0.0
C259 C 0.1112 0.99338 0.52246 0.0
C260 C 0.12774 0.01066 0.51155 0.0
C261 C 0.14323 0.00705 0.44974 0.0
C262 C 0.08611 0.00857 0.72139 0.0
C263 C 0.06176 0.00362 0.70773 0.0
C264 C 0.10221 0.00562 0.66103 0.0
C265 C 0.09425 -0.00266 0.58633 0.0
C266 C 0.06993 0.99252 0.57274 0.0
C267 C 0.05384 0.99577 0.63266 0.0
H268 H 0.42586 0.18357 0.93692 0.0
H269 H 0.4517 0.17904 0.70712 0.0
H270 H 0.44213 0.14558 0.94325 0.0
H271 H 0.46864 0.14125 0.71421 0.0
H272 H 0.47065 0.06323 0.72503 0.0
H273 H 0.45633 0.10191 0.71708 0.0
H274 H 0.47877 0.12563 0.94998 0.0
H275 H 0.49246 0.08687 0.95865 0.0
C276 C 0.43524 0.17457 0.88799 0.0
C277 C 0.43745 0.18433 0.82148 0.0
C278 C 0.44471 0.15281 0.89176 0.0
C279 C 0.45674 0.14032 0.82926 0.0
C280 C 0.45919 0.15023 0.76302 0.0
C281 C 0.44962 0.17197 0.75912 0.0
C282 C 0.47266 0.07673 0.77442 0.0
C283 C 0.48261 0.0719 0.84259 0.0
C284 C 0.46454 0.09896 0.76974 0.0
C285 C 0.46629 0.1169 0.833 0.0
C286 C 0.47672 0.11214 0.9006 0.0
C287 C 0.4847 0.08991 0.90542 0.0
H288 H 0.33375 0.45201 0.50883 0.0
H289 H 0.37723 0.47426 0.33521 0.0
H290 H 0.36499 0.46395 0.6029 0.0
H291 H 0.40933 0.48473 0.42778 0.0
H292 H 0.45594 0.51983 0.62288 0.0
H293 H 0.42303 0.5108 0.53235 0.0
H294 H 0.40171 0.4538 0.64442 0.0
H295 H 0.43367 0.46382 0.7371 0.0
C296 C 0.35015 0.45926 0.49069 0.0
C297 C 0.35308 0.46217 0.4147 0.0
C298 C 0.36821 0.46595 0.54452 0.0
C299 C 0.38993 0.47523 0.52337 0.0
C300 C 0.39278 0.47811 0.44698 0.0
C301 C 0.37445 0.47192 0.39354 0.0
C302 C 0.44401 0.50553 0.6284 0.0
C303 C 0.44725 0.49265 0.68736 0.0
C304 C 0.42525 0.50017 0.57604 0.0
C305 C 0.40956 0.48149 0.58049 0.0
C306 C 0.41295 0.46864 0.63977 0.0
C307 C 0.4314 0.4743 0.69294 0.0
H308 H 0.97514 0.32809 0.37879 0.0
H309 H 0.05189 0.32476 0.39229 0.0
H310 H 0.97585 0.36282 0.47631 0.0
H311 H 0.05252 0.35929 0.4902 0.0
H312 H 0.04436 0.43626 0.59506 0.0
H313 H 0.04419 0.40103 0.50057 0.0
H314 H 0.98532 0.37386 0.61473 0.0
H315 H 0.98523 0.40932 0.70926 0.0
C316 C 0.99215 0.3348 0.4024 0.0
C317 C 0.01346 0.32373 0.37773 0.0
C318 C 0.99253 0.35455 0.45867 0.0
C319 C 0.01423 0.36368 0.49102 0.0
C320 C 0.03555 0.35274 0.46582 0.0
C321 C 0.03517 0.33294 0.40988 0.0
C322 C 0.03146 0.42274 0.60047 0.0
C323 C 0.01477 0.42561 0.65965 0.0
C324 C 0.03144 0.40252 0.54642 0.0
C325 C 0.01469 0.38476 0.55015 0.0
C326 C 0.99825 0.38742 0.60999 0.0
C327 C 0.99833 0.40763 0.66442 0.0
H328 H 0.87967 0.96856 0.32336 0.0
H329 H 0.85128 0.94276 0.09856 0.0
H330 H 0.9122 0.98798 0.26661 0.0
H331 H 0.88344 0.96247 0.04245 0.0
H332 H 0.93256 0.01754 0.97328 0.0
H333 H 0.89894 0.00536 0.04442 0.0
H334 H 0.94714 0.97044 0.17583 0.0
H335 H 0.98075 0.98224 0.10417 0.0
C336 C 0.88025 0.96725 0.26202 0.0
C337 C 0.86307 0.95405 0.21526 0.0
C338 C 0.89882 0.97832 0.22974 0.0
C339 C 0.90014 0.97678 0.15039 0.0
C340 C 0.88261 0.96412 0.10387 0.0
C341 C 0.86436 0.9527 0.13595 0.0
C342 C 0.93603 0.00767 0.01837 0.0
C343 C 0.95922 0.00068 0.03291 0.0
C344 C 0.9168 0.00064 0.05871 0.0
C345 C 0.92054 0.98692 0.11516 0.0
C346 C 0.94386 0.98113 0.13283 0.0
C347 C 0.96303 0.98779 0.09161 0.0
H348 H 0.53138 0.81166 0.79297 0.0
H349 H 0.58619 0.83772 0.95691 0.0
H350 H 0.51519 0.85041 0.80279 0.0
H351 H 0.57153 0.87689 0.96235 0.0
H352 H 0.50783 0.92428 0.76439 0.0
H353 H 0.521 0.88501 0.76518 0.0
H354 H 0.54443 0.9049 -0.00046 0.0
H355 H 0.53294 0.94472 0.99556 0.0
C356 C 0.54002 0.82581 0.83084 0.0
C357 C 0.55999 0.82176 0.87416 0.0
C358 C 0.53094 0.84815 0.83598 0.0
C359 C 0.54215 0.86718 0.88257 0.0
C360 C 0.56201 0.86287 0.9268 0.0
C361 C 0.57059 0.84038 0.92342 0.0
C362 C 0.51575 0.92016 0.81606 0.0
C363 C 0.51939 0.93748 0.87987 0.0
C364 C 0.52315 0.89751 0.81696 0.0
C365 C 0.53377 0.89139 0.88263 0.0
C366 C 0.53686 0.90881 0.9472 0.0
C367 C 0.53009 0.93166 0.94538 0.0
H368 H 0.68424 0.54573 0.10165 0.0
H369 H 0.64931 0.51559 0.27774 0.0
H370 H 0.64966 0.53568 0.01797 0.0
H371 H 0.61471 0.50571 0.19412 0.0
H372 H 0.54808 0.52285 0.05891 0.0
H373 H 0.58356 0.5294 0.13934 0.0
H374 H 0.62693 0.4999 0.94919 0.0
H375 H 0.59126 0.49318 0.86801 0.0
C376 C 0.66925 0.53686 0.12235 0.0
C377 C 0.66948 0.5315 0.19637 0.0
C378 C 0.64953 0.53099 0.07426 0.0
C379 C 0.62952 0.51994 0.0996 0.0
C380 C 0.62985 0.51436 0.17331 0.0
C381 C 0.64969 0.51993 0.22101 0.0
C382 C 0.56514 0.51765 0.03407 0.0
C383 C 0.56685 0.5075 0.95691 0.0
C384 C 0.58544 0.52129 0.0804 0.0
C385 C 0.60798 0.51513 0.05054 0.0
C386 C 0.60976 0.50492 0.97351 0.0
C387 C 0.58936 0.50098 0.92722 0.0
H388 H 0.92402 0.65639 0.00044 0.0
H389 H 0.96934 0.658 0.19857 0.0
H390 H 0.94127 0.61975 0.94301 0.0
H391 H 0.98685 0.62121 0.14016 0.0
H392 H 0.99542 0.57119 0.82367 0.0
H393 H 0.98068 0.60779 0.8906 0.0
H394 H 0.97582 0.57895 0.09782 0.0
H395 H 0.9909 0.54206 0.03082 0.0
C396 C 0.93765 0.64891 0.03183 0.0
C397 C 0.94542 0.66017 0.10384 0.0
C398 C 0.94764 0.62798 -0.00131 0.0
C399 C 0.9656 0.61779 0.03675 0.0
C400 C 0.97298 0.62867 0.10968 0.0
C401 C 0.96302 0.64974 0.14288 0.0
C402 C 0.9914 0.5726 0.88364 0.0
C403 C 0.99409 0.5536 0.92169 0.0
C404 C 0.98284 0.59357 0.92186 0.0
C405 C 0.97674 0.59608 -0.00096 0.0
C406 C 0.98042 0.57748 0.03828 0.0
C407 C 0.98902 0.55638 -0.00012 0.0
H408 H 0.97228 0.20488 0.35442 0.0
H409 H 0.04227 0.20836 0.45889 0.0
H410 H 0.96133 0.17313 0.42123 0.0
H411 H 0.03124 0.17671 0.52529 0.0
H412 H 0.01415 0.10026 0.53461 0.0
H413 H 0.0227 0.13417 0.47639 0.0
H414 H 0.95547 0.16372 0.55539 0.0
H415 H 0.94706 0.12999 0.61584 0.0
C416 C 0.98521 0.19911 0.39234 0.0
C417 C 0.00821 0.20903 0.40087 0.0
C418 C 0.97889 0.18098 0.43068 0.0
C419 C 0.99555 0.17233 0.47759 0.0
C420 C 0.01819 0.18285 0.48849 0.0
C421 C 0.02443 0.20108 0.45083 0.0
C422 C 0.00126 0.11405 0.54035 0.0
C423 C 0.98001 0.11247 0.58057 0.0
C424 C 0.00617 0.13346 0.50691 0.0
C425 C 0.98986 0.15165 0.51219 0.0
C426 C 0.9683 0.14988 0.55037 0.0
C427 C 0.96346 0.13051 0.58458 0.0
H428 H 0.26479 0.02101 0.39093 0.0
H429 H 0.27692 0.95536 0.24642 0.0
H430 H 0.30481 0.02043 0.44417 0.0
H431 H 0.31724 0.95474 0.29904 0.0
H432 H 0.37559 0.94924 0.47735 0.0
H433 H 0.33688 0.95017 0.41564 0.0
H434 H 0.34636 0.02355 0.41501 0.0
H435 H 0.38502 0.02263 0.47826 0.0
C436 C 0.27626 0.00668 0.36947 0.0
C437 C 0.26798 0.98846 0.31354 0.0
C438 C 0.29919 0.00631 0.39999 0.0
C439 C 0.31436 0.98763 0.37555 0.0
C440 C 0.30597 0.96931 0.31969 0.0
C441 C 0.28294 0.96966 0.28937 0.0
C442 C 0.36951 0.96552 0.4633 0.0
C443 C 0.38334 0.98587 0.4827 0.0
C444 C 0.34733 0.96605 0.4277 0.0
C445 C 0.33846 0.98693 0.41031 0.0
C446 C 0.35247 0.00724 0.42872 0.0
C447 C 0.37462 0.00673 0.46483 0.0
H448 H 0.4642 0.30844 0.67864 0.0
H449 H 0.43254 0.32902 0.89898 0.0
H450 H 0.48536 0.34554 0.69213 0.0
H451 H 0.4525 0.36674 0.91137 0.0
H452 H 0.50103 0.42908 0.93674 0.0
H453 H 0.48732 0.38908 0.92909 0.0
H454 H 0.4776 0.3839 0.68562 0.0
H455 H 0.49246 0.42325 0.69305 0.0
C456 C 0.46168 0.32107 0.72976 0.0
C457 C 0.44654 0.31611 0.78728 0.0
C458 C 0.47369 0.34239 0.73748 0.0
C459 C 0.47043 0.35945 0.80233 0.0
C460 C 0.45577 0.35406 0.86099 0.0
C461 C 0.44416 0.3325 0.85384 0.0
C462 C 0.49636 0.41921 0.88147 0.0
C463 C 0.49793 0.42934 0.81549 0.0
C464 C 0.48825 0.39631 0.87709 0.0
C465 C 0.48116 0.38312 0.80677 0.0
C466 C 0.4833 0.39319 0.74067 0.0
C467 C 0.49175 0.41591 0.74493 0.0
H468 H 0.23496 0.49224 0.3467 0.0
H469 H 0.202 0.44942 0.15167 0.0
H470 H 0.19604 0.50585 0.39168 0.0
H471 H 0.16287 0.46358 0.19569 0.0
H472 H 0.1005 0.46642 0.37069 0.0
H473 H 0.13749 0.45737 0.30195 0.0
H474 H 0.16149 0.52833 0.36912 0.0
H475 H 0.1245 0.53733 0.43836 0.0
C476 C 0.2194 0.4861 0.31254 0.0
C477 C 0.22159 0.46981 0.24547 0.0
C478 C 0.19707 0.49405 0.33805 0.0
C479 C 0.1763 0.48579 0.29737 0.0
C480 C 0.17853 0.47015 0.22861 0.0
C481 C 0.20098 0.46227 0.2028 0.0
C482 C 0.11346 0.4802 0.3695 0.0
C483 C 0.10967 0.50254 0.41061 0.0
C484 C 0.13466 0.47503 0.3299 0.0
C485 C 0.15254 0.49209 0.33042 0.0
C486 C 0.14826 0.5147 0.36866 0.0
C487 C 0.12709 0.51985 0.4084 0.0
H488 H 0.00414 0.78006 0.24295 0.0
H489 H 0.94474 0.7964 0.10685 0.0
H490 H 0.02568 0.81432 0.21624 0.0
H491 H 0.96655 0.83002 0.07812 0.0
H492 H 0.02065 0.87257 0.97493 0.0
H493 H 0.00316 0.83703 0.00537 0.0
H494 H 0.02206 0.85879 0.24213 0.0
H495 H 0.03939 0.89477 0.21178 0.0
C496 C 0.99545 0.79117 0.20877 0.0
C497 C 0.97243 0.78581 0.17874 0.0
C498 C 0.00793 0.81065 0.19277 0.0
C499 C 0.99782 0.82483 0.14506 0.0
C500 C 0.97493 0.81928 0.11441 0.0
C501 C 0.96241 0.80003 0.13103 0.0
C502 C 0.02115 0.8698 0.03353 0.0
C503 C 0.03104 0.8867 0.09117 0.0
C504 C 0.01113 0.84943 0.0509 0.0
C505 C 0.01089 0.84531 0.12628 0.0
C506 C 0.02202 0.86151 0.18347 0.0
C507 C 0.03198 0.88206 0.16608 0.0
H508 H 0.72497 0.92568 0.23339 0.0
H509 H 0.74019 0.9915 0.37618 0.0
H510 H 0.68655 0.94002 0.19886 0.0
H511 H 0.70117 0.00551 0.34509 0.0
H512 H 0.64261 0.03042 0.19428 0.0
H513 H 0.68041 0.01703 0.23847 0.0
H514 H 0.64795 0.95043 0.25062 0.0
H515 H 0.61034 0.96375 0.20545 0.0
C516 C 0.71993 0.94312 0.2583 0.0
C517 C 0.73534 0.95725 0.30904 0.0
C518 C 0.69782 0.95128 0.23908 0.0
C519 C 0.69062 0.97384 0.26988 0.0
C520 C 0.70614 0.98805 0.32031 0.0
C521 C 0.72832 0.97988 0.33935 0.0
C522 C 0.64352 0.01303 0.2073 0.0
C523 C 0.62358 -0.00193 0.1958 0.0
C524 C 0.66516 0.00535 0.23274 0.0
C525 C 0.66728 0.98258 0.24756 0.0
C526 C 0.64709 0.9679 0.23821 0.0
C527 C 0.62553 0.97553 0.21246 0.0
H528 H 0.57222 0.67518 0.77786 0.0
H529 H 0.52749 0.69617 0.97231 0.0
H530 H 0.55524 0.63625 0.76175 0.0
H531 H 0.50938 0.65744 0.95458 0.0
H532 H 0.50633 0.57883 0.95901 0.0
H533 H 0.51757 0.61968 0.9711 0.0
H534 H 0.52307 0.61195 0.72589 0.0
H535 H 0.51346 0.57085 0.71521 0.0
C536 C 0.55834 0.67149 0.8162 0.0
C537 C 0.55134 0.68847 0.8768 0.0
C538 C 0.54843 0.64919 0.80683 0.0
C539 C 0.53085 0.64351 0.8569 0.0
C540 C 0.52319 0.66094 0.91582 0.0
C541 C 0.53345 0.68316 0.9259 0.0
C542 C 0.50957 0.58608 0.90786 0.0
C543 C 0.50917 0.57181 0.83626 0.0
C544 C 0.51596 0.60953 0.91457 0.0
C545 C 0.52154 0.61924 0.8495 0.0
C546 C 0.51962 0.60505 0.7775 0.0
C547 C 0.51387 0.58154 0.77111 0.0
H548 H 0.7868 0.49807 0.22965 0.0
H549 H 0.8163 0.52143 0.45436 0.0
H550 H 0.82525 0.48228 0.18682 0.0
H551 H 0.85489 0.50533 0.41158 0.0
H552 H 0.92262 0.50855 0.25528 0.0
H553 H 0.88469 0.51737 0.31948 0.0
H554 H 0.85527 0.45233 0.20347 0.0
H555 H 0.89302 0.44368 0.13836 0.0
C556 C 0.80142 0.49941 0.27029 0.0
C557 C 0.79852 0.51086 0.34541 0.0
C558 C 0.8234 0.49023 0.24591 0.0
C559 C 0.84308 0.49256 0.29587 0.0
C560 C 0.84002 0.50334 0.37184 0.0
C561 C 0.81787 0.51232 0.39654 0.0
C562 C 0.90812 0.49604 0.24421 0.0
C563 C 0.91073 0.47553 0.19133 0.0
C564 C 0.8865 0.50097 0.28153 0.0
C565 C 0.86699 0.48558 0.26616 0.0
C566 C 0.86995 0.46458 0.21597 0.0
C567 C 0.89162 0.45956 0.17914 0.0
H568 H 0.08647 0.1842 0.14867 0.0
H569 H 0.02761 0.19647 0.00344 0.0
H570 H 0.08533 0.14314 0.09311 0.0
H571 H 0.02626 0.15551 0.94906 0.0
H572 H 0.035 0.08269 0.83516 0.0
H573 H 0.04625 0.12317 0.87354 0.0
H574 H 0.05678 0.11171 0.10475 0.0
H575 H 0.04592 0.07085 0.06598 0.0
C576 C 0.07362 0.17826 0.10382 0.0
C577 C 0.05692 0.19356 0.08107 0.0
C578 C 0.07285 0.15469 0.07253 0.0
C579 C 0.05551 0.14603 0.01753 0.0
C580 C 0.03994 0.16163 0.99103 0.0
C581 C 0.04066 0.18514 0.02242 0.0
C582 C 0.03993 0.08868 0.89414 0.0
C583 C 0.03923 0.07361 0.94789 0.0
C584 C 0.04636 0.11193 0.91604 0.0
C585 C 0.05216 0.12071 0.99225 0.0
C586 C 0.0526 0.10541 0.04538 0.0
C587 C 0.04624 0.08204 0.02334 0.0
H588 H 0.31574 0.05365 0.03723 0.0
H589 H 0.33802 0.02471 0.23375 0.0
H590 H 0.35443 0.04483 0.97935 0.0
H591 H 0.37635 0.01501 0.17471 0.0
H592 H 0.45066 0.02028 0.07668 0.0
H593 H 0.41282 0.03034 0.1382 0.0
H594 H 0.37652 0.01248 0.92097 0.0
H595 H 0.41453 0.00329 0.85902 0.0
C596 C 0.32894 0.04544 0.06809 0.0
C597 C 0.32385 0.03991 0.13999 0.0
C598 C 0.35104 0.04016 0.03462 0.0
C599 C 0.36847 0.02896 0.0719 0.0
C600 C 0.3635 0.02387 0.14466 0.0
C601 C 0.34149 0.0294 0.17851 0.0
C602 C 0.43459 0.01832 0.0421 0.0
C603 C 0.43561 0.01102 0.96291 0.0
C604 C 0.41284 0.02406 0.07746 0.0
C605 C 0.39158 0.02238 0.03459 0.0
C606 C 0.39258 0.01448 0.95559 0.0
C607 C 0.41436 0.009 0.9201 0.0
H608 H 0.47826 0.36004 0.46065 0.0
H609 H 0.40128 0.35858 0.45785 0.0
H610 H 0.47809 0.38726 0.37128 0.0
H611 H 0.40116 0.38568 0.36748 0.0
H612 H 0.4132 0.45412 0.2719 0.0
H613 H 0.41149 0.42647 0.36046 0.0
H614 H 0.46795 0.38732 0.23762 0.0
H615 H 0.47025 0.41531 0.15122 0.0
C616 C 0.46129 0.36546 0.44081 0.0
C617 C 0.43979 0.35705 0.46617 0.0
C618 C 0.4612 0.38097 0.38922 0.0
C619 C 0.43961 0.3885 0.36189 0.0
C620 C 0.41808 0.38031 0.38787 0.0
C621 C 0.41817 0.3647 0.43933 0.0
C622 C 0.42522 0.4396 0.26391 0.0
C623 C 0.44186 0.43696 0.20455 0.0
C624 C 0.42411 0.42366 0.31421 0.0
C625 C 0.43971 0.40479 0.30632 0.0
C626 C 0.45592 0.40185 0.24586 0.0
C627 C 0.457 0.41774 0.19564 0.0
H628 H 0.2092 0.49004 0.81599 0.0
H629 H 0.19322 0.43741 0.95146 0.0
H630 H 0.16749 0.50063 0.81664 0.0
H631 H 0.151 0.44643 0.9471 0.0
H632 H 0.07601 0.47384 0.95736 0.0
H633 H 0.11854 0.46938 0.97893 0.0
H634 H 0.13287 0.48778 0.75795 0.0
H635 H 0.09076 0.4939 0.74003 0.0
C636 C 0.19663 0.48084 0.84632 0.0
C637 C 0.20435 0.46312 0.88404 0.0
C638 C 0.1726 0.48661 0.84579 0.0
C639 C 0.15548 0.47409 0.88036 0.0
C640 C 0.16347 0.45674 0.92048 0.0
C641 C 0.18772 0.45147 0.92297 0.0
C642 C 0.08842 0.47716 0.91406 0.0
C643 C 0.08017 0.48435 0.8473 0.0
C644 C 0.11283 0.47443 0.92601 0.0
C645 C 0.12948 0.47823 0.87044 0.0
C646 C 0.12095 0.48533 0.80344 0.0
C647 C 0.09668 0.48868 0.7926 0.0
H648 H 0.96598 0.86344 0.42856 0.0
H649 H 0.9938 0.82126 0.58541 0.0
H650 H 0.96728 0.8972 0.5289 0.0
H651 H 0.99442 0.85496 0.68666 0.0
H652 H 0.02381 0.92633 0.80434 0.0
H653 H 0.01732 0.89009 0.71795 0.0
H654 H 0.94992 0.91499 0.64758 0.0
H655 H 0.95681 0.95178 0.73256 0.0
C656 C 0.97215 0.86133 0.48472 0.0
C657 C 0.97997 0.83975 0.49897 0.0
C658 C 0.97267 0.88065 0.54248 0.0
C659 C 0.98088 0.87877 0.61589 0.0
C660 C 0.98825 0.85704 0.63048 0.0
C661 C 0.98788 0.83774 0.57253 0.0
C662 C 0.00746 0.92404 0.7711 0.0
C663 C 0.99101 0.9421 0.77431 0.0
C664 C 0.00365 0.90313 0.72193 0.0
C665 C 0.98323 0.89974 0.67519 0.0
C666 C 0.96607 0.91727 0.68179 0.0
C667 C 0.96992 0.93828 0.7309 0.0
H668 H 0.68234 0.96773 0.61913 0.0
H669 H 0.67629 0.03826 0.57857 0.0
H670 H 0.64301 0.97007 0.67606 0.0
H671 H 0.63674 0.04053 0.63627 0.0
H672 H 0.5785 0.03912 0.82451 0.0
H673 H 0.618 0.03893 0.76759 0.0
H674 H 0.60108 0.9736 0.62421 0.0
H675 H 0.56165 0.9737 0.68058 0.0
C676 C 0.6727 0.9838 0.62279 0.0
C677 C 0.68242 0.0028 0.59412 0.0
C678 C 0.65011 0.98506 0.65497 0.0
C679 C 0.63682 0.0054 0.65992 0.0
C680 C 0.6467 0.02466 0.63322 0.0
C681 C 0.66927 0.02333 0.60011 0.0
C682 C 0.58318 0.02475 0.78066 0.0
C683 C 0.56699 0.00636 0.75726 0.0
C684 C 0.60572 0.02474 0.74789 0.0
C685 C 0.61256 0.0062 0.69192 0.0
C686 C 0.5963 0.98798 0.66789 0.0
C687 C 0.5737 0.98811 0.69992 0.0
H688 H 0.54595 0.65694 0.23566 0.0
H689 H 0.57699 0.60539 0.06306 0.0
H690 H 0.54271 0.62848 0.32 0.0
H691 H 0.57453 0.577 0.14874 0.0
H692 H 0.54569 0.52674 0.30198 0.0
H693 H 0.54805 0.55375 0.21126 0.0
H694 H 0.56804 0.60897 0.39472 0.0
H695 H 0.56508 0.58218 0.48489 0.0
C696 C 0.55218 0.63954 0.2158 0.0
C697 C 0.56191 0.63351 0.14287 0.0
C698 C 0.55048 0.62322 0.26442 0.0
C699 C 0.55868 0.60049 0.24173 0.0
C700 C 0.56791 0.59429 0.168 0.0
C701 C 0.56944 0.61061 0.11901 0.0
C702 C 0.55073 0.54464 0.32257 0.0
C703 C 0.55493 0.55243 0.40062 0.0
C704 C 0.55213 0.56011 0.27065 0.0
C705 C 0.55795 0.58364 0.29572 0.0
C706 C 0.56286 0.59115 0.37356 0.0
C707 C 0.56126 0.57578 0.42532 0.0
H708 H 0.81629 0.49058 0.58522 0.0
H709 H 0.81099 0.51473 0.82694 0.0
H710 H 0.85971 0.48975 0.59725 0.0
H711 H 0.85416 0.51495 0.83893 0.0
H712 H 0.92536 0.4826 0.85789 0.0
H713 H 0.88307 0.48631 0.8369 0.0
H714 H 0.89718 0.51016 0.62449 0.0
H715 H 0.93994 0.50555 0.64446 0.0
C716 C 0.82446 0.49637 0.64047 0.0
C717 C 0.81037 0.5028 0.70539 0.0
C718 C 0.84935 0.49587 0.64748 0.0
C719 C 0.8605 0.50188 0.71935 0.0
C720 C 0.84624 0.50953 0.78306 0.0
C721 C 0.82151 0.50967 0.7762 0.0
C722 C 0.91954 0.48865 0.80662 0.0
C723 C 0.93607 0.4939 0.75307 0.0
C724 C 0.89519 0.49098 0.7948 0.0
C725 C 0.88661 0.49895 0.72958 0.0
C726 C 0.90312 0.50389 0.67521 0.0
C727 C 0.92762 0.50132 0.68674 0.0
loop_
_geom_bond_atom_site_label_1
_geom_bond_atom_site_label_2
_geom_bond_distance
_geom_bond_site_symmetry_2
_ccdc_geom_bond_type
O0 Cd1 2.300 . S
O0 C7 1.275 . S
Cd1 O0 2.300 . S
Cd1 O9 2.381 . S
Cd1 O10 2.378 . S
O2 Cd3 2.385 . S
O2 C7 1.255 . S
Cd3 O2 2.385 . S
Cd3 O4 2.317 . S
O4 Cd3 2.317 . S
O4 C5 1.232 . S
C5 O4 1.232 . S
C5 O6 1.218 . S
O6 C5 1.218 . S
C7 O0 1.275 . S
C7 O2 1.255 . S
C8 O9 1.258 . S
C8 O10 1.256 . S
O9 Cd1 2.381 . S
O9 C8 1.258 . S
O10 Cd1 2.378 . S
O10 C8 1.256 . S
O11 Cd12 2.300 1_655 S
O11 C18 1.275 . S
Cd12 O11 2.300 1_455 S
Cd12 O20 2.381 1_455 S
Cd12 O21 2.378 . S
O13 Cd14 2.385 . S
O13 C18 1.255 1_455 S
Cd14 O13 2.385 . S
Cd14 O15 2.317 . S
O15 Cd14 2.317 . S
O15 C16 1.235 . S
C16 O15 1.235 . S
C16 O17 1.224 . S
O17 C16 1.224 . S
C18 O11 1.275 . S
C18 O13 1.255 1_655 S
C19 O20 1.258 . S
C19 O21 1.256 1_655 S
O20 Cd12 2.381 1_655 S
O20 C19 1.258 . S
O21 Cd12 2.378 . S
O21 C19 1.256 1_455 S
O22 Cd23 2.300 1_565 S
O22 C29 1.275 1_565 S
Cd23 O22 2.300 1_545 S
Cd23 O31 2.381 1_545 S
Cd23 O32 2.378 . S
O24 Cd25 2.385 . S
O24 C29 1.255 . S
Cd25 O24 2.385 . S
Cd25 O26 2.317 . S
O26 Cd25 2.317 . S
O26 C27 1.232 . S
C27 O26 1.232 . S
C27 O28 1.218 . S
O28 C27 1.218 . S
C29 O22 1.275 1_545 S
C29 O24 1.255 . S
C30 O31 1.258 1_545 S
C30 O32 1.256 . S
O31 Cd23 2.381 1_565 S
O31 C30 1.258 1_565 S
O32 Cd23 2.378 . S
O32 C30 1.256 . S
O33 Cd34 2.300 . S
O33 C40 1.275 . S
Cd34 O33 2.300 . S
Cd34 O42 2.381 . S
Cd34 O43 2.378 . S
O35 Cd36 2.385 1_556 S
O35 C40 1.255 . S
Cd36 O35 2.385 1_554 S
Cd36 O37 2.317 . S
O37 Cd36 2.317 . S
O37 C38 1.232 . S
C38 O37 1.232 . S
C38 O39 1.218 . S
O39 C38 1.218 . S
C40 O33 1.275 . S
C40 O35 1.255 . S
C41 O42 1.258 . S
C41 O43 1.256 . S
O42 Cd34 2.381 . S
O42 C41 1.258 . S
O43 Cd34 2.378 . S
O43 C41 1.256 . S
O44 Cd45 2.300 . S
O44 C51 1.275 . S
Cd45 O44 2.300 . S
Cd45 O53 2.381 . S
Cd45 O54 2.378 . S
O46 Cd47 2.385 . S
O46 C51 1.255 . S
Cd47 O46 2.385 . S
Cd47 O48 2.317 . S
O48 Cd47 2.317 . S
O48 C49 1.232 . S
C49 O48 1.232 . S
C49 O50 1.218 . S
O50 C49 1.218 . S
C51 O44 1.275 . S
C51 O46 1.255 . S
C52 O53 1.258 . S
C52 O54 1.256 . S
O53 Cd45 2.381 . S
O53 C52 1.258 . S
O54 Cd45 2.378 . S
O54 C52 1.256 . S
O55 Cd56 2.300 . S
O55 C62 1.275 . S
Cd56 O55 2.300 . S
Cd56 O64 2.381 . S
Cd56 O65 2.378 . S
O57 Cd58 2.385 . S
O57 C62 1.255 . S
Cd58 O57 2.385 . S
Cd58 O59 2.317 . S
O59 Cd58 2.317 . S
O59 C60 1.232 . S
C60 O59 1.232 . S
C60 O61 1.218 . S
O61 C60 1.218 . S
C62 O55 1.275 . S
C62 O57 1.255 . S
C63 O64 1.258 . S
C63 O65 1.256 . S
O64 Cd56 2.381 . S
O64 C63 1.258 . S
O65 Cd56 2.378 . S
O65 C63 1.256 . S
O66 Cd67 2.300 1_565 S
O66 C73 1.275 1_565 S
Cd67 O66 2.300 1_545 S
Cd67 O75 2.381 1_545 S
Cd67 O76 2.378 . S
O68 Cd69 2.385 . S
O68 C73 1.255 . S
Cd69 O68 2.385 . S
Cd69 O70 2.317 . S
O70 Cd69 2.317 . S
O70 C71 1.232 . S
C71 O70 1.232 . S
C71 O72 1.218 . S
O72 C71 1.218 . S
C73 O66 1.275 1_545 S
C73 O68 1.255 . S
C74 O75 1.258 1_545 S
C74 O76 1.256 . S
O75 Cd67 2.381 1_565 S
O75 C74 1.258 1_565 S
O76 Cd67 2.378 . S
O76 C74 1.256 . S
O77 Cd78 2.300 . S
O77 C84 1.275 . S
Cd78 O77 2.300 . S
Cd78 O86 2.381 . S
Cd78 O87 2.378 . S
O79 Cd80 2.385 . S
O79 C84 1.255 . S
Cd80 O79 2.385 . S
Cd80 O81 2.317 . S
O81 Cd80 2.317 . S
O81 C82 1.232 . S
C82 O81 1.232 . S
C82 O83 1.218 . S
O83 C82 1.218 . S
C84 O77 1.275 . S
C84 O79 1.255 . S
C85 O86 1.258 . S
C85 O87 1.256 . S
O86 Cd78 2.381 . S
O86 C85 1.258 . S
O87 Cd78 2.378 . S
O87 C85 1.256 . S
Tb88 C97 2.764 . S
Tb88 O98 2.325 . S
Tb88 O101 2.303 1_655 S
Tb88 O105 2.322 1_545 S
Tb88 O106 2.349 . S
Tb88 O109 2.415 1_655 S
Tb88 O110 2.399 . S
Tb89 O99 2.322 1_565 S
Tb89 O100 2.349 . S
Tb89 O102 2.415 . S
Tb89 O103 2.399 . S
Tb89 O104 2.325 . S
Tb89 O107 2.303 1_455 S
Tb89 C118 2.764 . S
C90 O106 1.261 . S
C90 O107 1.257 1_545 S
C91 C94 1.358 . S
C91 C95 1.313 1_655 S
C91 C97 1.504 . S
C92 C93 1.373 . S
C92 C96 1.308 . S
C93 C92 1.373 . S
C93 C94 1.429 . S
C93 H120 0.932 . S
C94 C91 1.358 . S
C94 C93 1.429 . S
C94 H121 0.930 . S
C95 C91 1.313 1_455 S
C95 C96 1.392 1_455 S
C95 H122 0.954 . S
C96 C92 1.308 . S
C96 C95 1.392 1_655 S
C96 H123 0.929 1_655 S
C97 Tb88 2.764 . S
C97 C91 1.504 . S
C97 O109 1.239 1_655 S
C97 O110 1.263 . S
O98 Tb88 2.325 . S
O98 C108 1.236 1_655 S
O99 Tb89 2.322 1_545 S
O99 C108 1.257 . S
O100 Tb89 2.349 . S
O100 C111 1.261 . S
O101 Tb88 2.303 1_455 S
O101 C111 1.257 1_545 S
O102 Tb89 2.415 . S
O102 C118 1.239 . S
O103 Tb89 2.399 . S
O103 C118 1.263 . S
O104 Tb89 2.325 . S
O104 C119 1.236 1_455 S
O105 Tb88 2.322 1_565 S
O105 C119 1.257 . S
O106 Tb88 2.349 . S
O106 C90 1.261 . S
O107 Tb89 2.303 1_655 S
O107 C90 1.257 1_565 S
C108 O98 1.236 1_455 S
C108 O99 1.257 . S
O109 Tb88 2.415 1_455 S
O109 C97 1.239 1_455 S
O110 Tb88 2.399 . S
O110 C97 1.263 . S
C111 O100 1.261 . S
C111 O101 1.257 1_565 S
C112 C115 1.358 1_556 S
C112 C116 1.332 1_556 S
C112 C118 1.504 . S
C113 C114 1.373 . S
C113 C117 1.308 . S
C114 C113 1.373 . S
C114 C115 1.429 . S
C114 H124 0.932 . S
C115 C112 1.358 1_554 S
C115 C114 1.429 . S
C115 H125 0.930 1_554 S
C116 C112 1.332 1_554 S
C116 C117 1.394 . S
C116 H126 0.930 1_454 S
C117 C113 1.308 . S
C117 C116 1.394 . S
C117 H127 0.929 1_455 S
C118 Tb89 2.764 . S
C118 O102 1.239 . S
C118 O103 1.263 . S
C118 C112 1.504 . S
C119 O104 1.236 1_655 S
C119 O105 1.257 . S
H120 C93 0.932 . S
H121 C94 0.930 . S
H122 C95 0.954 . S
H123 C96 0.929 1_455 S
H124 C114 0.932 . S
H125 C115 0.930 1_556 S
H126 C116 0.930 1_656 S
H127 C117 0.929 1_655 S
Tb128 C137 2.764 . S
Tb128 O138 2.325 . S
Tb128 O141 2.303 1_565 S
Tb128 O145 2.322 . S
Tb128 O146 2.349 . S
Tb128 O149 2.415 1_565 S
Tb128 O150 2.399 . S
Tb129 O139 2.322 . S
Tb129 O140 2.349 . S
Tb129 O142 2.415 1_545 S
Tb129 O143 2.399 . S
Tb129 O144 2.325 . S
Tb129 O147 2.303 1_545 S
Tb129 C158 2.764 . S
C130 O146 1.261 . S
C130 O147 1.257 . S
C131 C134 1.358 . S
C131 C135 1.332 1_565 S
C131 C137 1.504 . S
C132 C133 1.373 . S
C132 C136 1.308 1_565 S
C133 C132 1.373 . S
C133 C134 1.429 . S
C133 H160 0.932 . S
C134 C131 1.358 . S
C134 C133 1.429 . S
C134 H161 0.930 . S
C135 C131 1.332 1_545 S
C135 C136 1.394 . S
C135 H162 0.932 . S
C136 C132 1.308 1_545 S
C136 C135 1.394 . S
C136 H163 0.929 . S
C137 Tb128 2.764 . S
C137 C131 1.504 . S
C137 O149 1.239 1_565 S
C137 O150 1.263 . S
O138 Tb128 2.325 . S
O138 C148 1.236 1_565 S
O139 Tb129 2.322 . S
O139 C148 1.257 . S
O140 Tb129 2.349 . S
O140 C151 1.261 . S
O141 Tb128 2.303 1_545 S
O141 C151 1.257 . S
O142 Tb129 2.415 1_565 S
O142 C158 1.239 1_565 S
O143 Tb129 2.399 . S
O143 C158 1.263 . S
O144 Tb129 2.325 . S
O144 C159 1.236 1_545 S
O145 Tb128 2.322 . S
O145 C159 1.257 . S
O146 Tb128 2.349 . S
O146 C130 1.261 . S
O147 Tb129 2.303 1_565 S
O147 C130 1.257 . S
C148 O138 1.236 1_545 S
C148 O139 1.257 . S
O149 Tb128 2.415 1_545 S
O149 C137 1.239 1_545 S
O150 Tb128 2.399 . S
O150 C137 1.263 . S
C151 O140 1.261 . S
C151 O141 1.257 . S
C152 C155 1.358 . S
C152 C156 1.332 1_545 S
C152 C158 1.504 1_554 S
C153 C154 1.373 . S
C153 C157 1.308 1_545 S
C154 C153 1.373 . S
C154 C155 1.429 . S
C154 H164 0.932 . S
C155 C152 1.358 . S
C155 C154 1.429 . S
C155 H165 0.930 . S
C156 C152 1.332 1_565 S
C156 C157 1.394 . S
C156 H166 0.927 1_554 S
C157 C153 1.308 1_565 S
C157 C156 1.394 . S
C157 H167 0.929 . S
C158 Tb129 2.764 . S
C158 O142 1.239 1_545 S
C158 O143 1.263 . S
C158 C152 1.504 1_556 S
C159 O144 1.236 1_565 S
C159 O145 1.257 . S
H160 C133 0.932 . S
H161 C134 0.930 . S
H162 C135 0.932 . S
H163 C136 0.929 . S
H164 C154 0.932 . S
H165 C155 0.930 . S
H166 C156 0.927 1_556 S
H167 C157 0.929 . S
Tb168 C177 2.764 1_556 S
Tb168 O178 2.325 . S
Tb168 O181 2.303 . S
Tb168 O185 2.322 . S
Tb168 O186 2.349 . S
Tb168 O189 2.415 1_556 S
Tb168 O190 2.399 . S
Tb169 O179 2.322 . S
Tb169 O180 2.349 . S
Tb169 O182 2.415 . S
Tb169 O183 2.399 . S
Tb169 O184 2.325 . S
Tb169 O187 2.303 . S
Tb169 C198 2.764 . S
C170 O186 1.261 . S
C170 O187 1.257 . S
C171 C174 1.358 . S
C171 C175 1.332 . S
C171 C177 1.504 . S
C172 C173 1.373 . S
C172 C176 1.308 . S
C173 C172 1.373 . S
C173 C174 1.429 . S
C173 H200 0.932 . S
C174 C171 1.358 . S
C174 C173 1.429 . S
C174 H201 0.930 . S
C175 C171 1.332 . S
C175 C176 1.394 . S
C175 H202 0.932 . S
C176 C172 1.308 . S
C176 C175 1.394 . S
C176 H203 0.929 . S
C177 Tb168 2.764 1_554 S
C177 C171 1.504 . S
C177 O189 1.239 . S
C177 O190 1.263 1_554 S
O178 Tb168 2.325 . S
O178 C188 1.236 . S
O179 Tb169 2.322 . S
O179 C188 1.257 . S
O180 Tb169 2.349 . S
O180 C191 1.261 . S
O181 Tb168 2.303 . S
O181 C191 1.257 . S
O182 Tb169 2.415 . S
O182 C198 1.239 . S
O183 Tb169 2.399 . S
O183 C198 1.263 . S
O184 Tb169 2.325 . S
O184 C199 1.236 . S
O185 Tb168 2.322 . S
O185 C199 1.257 . S
O186 Tb168 2.349 . S
O186 C170 1.261 . S
O187 Tb169 2.303 . S
O187 C170 1.257 . S
C188 O178 1.236 . S
C188 O179 1.257 . S
O189 Tb168 2.415 1_554 S
O189 C177 1.239 . S
O190 Tb168 2.399 . S
O190 C177 1.263 1_556 S
C191 O180 1.261 . S
C191 O181 1.257 . S
C192 C195 1.358 . S
C192 C196 1.332 . S
C192 C198 1.504 . S
C193 C194 1.373 . S
C193 C197 1.308 . S
C194 C193 1.373 . S
C194 C195 1.429 . S
C194 H204 0.932 . S
C195 C192 1.358 . S
C195 C194 1.429 . S
C195 H205 0.930 . S
C196 C192 1.332 . S
C196 C197 1.394 . S
C196 H206 0.932 . S
C197 C193 1.308 . S
C197 C196 1.394 . S
C197 H207 0.929 . S
C198 Tb169 2.764 . S
C198 O182 1.239 . S
C198 O183 1.263 . S
C198 C192 1.504 . S
C199 O184 1.236 . S
C199 O185 1.257 . S
H200 C173 0.932 . S
H201 C174 0.930 . S
H202 C175 0.932 . S
H203 C176 0.929 . S
H204 C194 0.932 . S
H205 C195 0.930 . S
H206 C196 0.932 . S
H207 C197 0.929 . S
Tb208 C217 2.764 . S
Tb208 O218 2.325 . S
Tb208 O221 2.303 . S
Tb208 O225 2.322 1_455 S
Tb208 O226 2.349 . S
Tb208 O229 2.415 . S
Tb208 O230 2.399 . S
Tb209 O219 2.322 1_655 S
Tb209 O220 2.349 . S
Tb209 O222 2.415 . S
Tb209 O223 2.399 . S
Tb209 O224 2.325 . S
Tb209 O227 2.308 . S
Tb209 C238 2.764 . S
C210 O226 1.261 . S
C210 O227 1.254 1_455 S
C211 C214 1.358 . S
C211 C215 1.332 . S
C211 C217 1.504 . S
C212 C213 1.373 . S
C212 C216 1.308 . S
C213 C212 1.373 . S
C213 C214 1.429 . S
C213 H240 0.932 . S
C214 C211 1.358 . S
C214 C213 1.429 . S
C214 H241 0.930 . S
C215 C211 1.332 . S
C215 C216 1.394 . S
C215 H242 0.932 . S
C216 C212 1.308 . S
C216 C215 1.394 . S
C216 H243 0.929 . S
C217 Tb208 2.764 . S
C217 C211 1.504 . S
C217 O229 1.239 . S
C217 O230 1.263 . S
O218 Tb208 2.325 . S
O218 C228 1.236 . S
O219 Tb209 2.322 1_455 S
O219 C228 1.257 . S
O220 Tb209 2.349 . S
O220 C231 1.261 1_655 S
O221 Tb208 2.303 . S
O221 C231 1.257 . S
O222 Tb209 2.415 . S
O222 C238 1.239 . S
O223 Tb209 2.399 . S
O223 C238 1.263 . S
O224 Tb209 2.325 . S
O224 C239 1.236 . S
O225 Tb208 2.322 1_655 S
O225 C239 1.257 . S
O226 Tb208 2.349 . S
O226 C210 1.261 . S
O227 Tb209 2.308 . S
O227 C210 1.254 1_655 S
C228 O218 1.236 . S
C228 O219 1.257 . S
O229 Tb208 2.415 . S
O229 C217 1.239 . S
O230 Tb208 2.399 . S
O230 C217 1.263 . S
C231 O220 1.261 1_455 S
C231 O221 1.257 . S
C232 C235 1.358 . S
C232 C236 1.332 . S
C232 C238 1.504 1_554 S
C233 C234 1.373 . S
C233 C237 1.308 . S
C234 C233 1.373 . S
C234 C235 1.429 . S
C234 H244 0.932 . S
C235 C232 1.358 . S
C235 C234 1.429 . S
C235 H245 0.930 . S
C236 C232 1.332 . S
C236 C237 1.394 . S
C236 H246 0.932 . S
C237 C233 1.308 . S
C237 C236 1.394 . S
C237 H247 0.929 . S
C238 Tb209 2.764 . S
C238 O222 1.239 . S
C238 O223 1.263 . S
C238 C232 1.504 1_556 S
C239 O224 1.236 . S
C239 O225 1.257 . S
H240 C213 0.932 . S
H241 C214 0.930 . S
H242 C215 0.932 . S
H243 C216 0.929 . S
H244 C234 0.932 . S
H245 C235 0.930 . S
H246 C236 0.932 . S
H247 C237 0.929 . S
H248 C256 0.950 . S
H249 C261 0.950 . S
H250 C258 0.950 . S
H251 C260 0.950 . S
H252 C262 0.960 . S
H253 C264 0.950 . S
H254 C266 0.950 . S
H255 C267 0.950 . S
C256 H248 0.950 . S
C256 C257 1.382 1_545 S
C256 C258 1.391 . S
C257 C256 1.382 1_565 S
C257 C261 1.400 . S
C258 H250 0.950 . S
C258 C256 1.391 . S
C258 C259 1.410 . S
C259 C258 1.410 . S
C259 C260 1.392 1_545 S
C259 C265 1.488 . S
C260 H251 0.950 . S
C260 C259 1.392 1_565 S
C260 C261 1.391 . S
C261 H249 0.950 . S
C261 C257 1.400 . S
C261 C260 1.391 . S
C262 H252 0.960 . S
C262 C263 1.380 1_565 S
C262 C264 1.388 . S
C263 C262 1.380 1_545 S
C263 C267 1.393 . S
C264 H253 0.950 . S
C264 C262 1.388 . S
C264 C265 1.400 1_565 S
C265 C259 1.488 . S
C265 C264 1.400 1_545 S
C265 C266 1.398 . S
C266 H254 0.950 . S
C266 C265 1.398 . S
C266 C267 1.391 . S
C267 H255 0.950 . S
C267 C263 1.393 . S
C267 C266 1.391 . S
H268 C276 0.950 . S
H269 C281 0.950 . S
H270 C278 0.950 . S
H271 C280 0.950 . S
H272 C282 0.950 . S
H273 C284 0.950 . S
H274 C286 0.950 . S
H275 C287 0.950 . S
C276 H268 0.950 . S
C276 C277 1.386 . S
C276 C278 1.391 . S
C277 C276 1.386 . S
C277 C281 1.393 . S
C278 H270 0.950 . S
C278 C276 1.391 . S
C278 C279 1.400 . S
C279 C278 1.400 . S
C279 C280 1.398 . S
C279 C285 1.491 . S
C280 H271 0.950 . S
C280 C279 1.398 . S
C280 C281 1.391 . S
C281 H269 0.950 . S
C281 C277 1.393 . S
C281 C280 1.391 . S
C282 H272 0.950 . S
C282 C283 1.386 . S
C282 C284 1.391 . S
C283 C282 1.386 . S
C283 C287 1.393 . S
C284 H273 0.950 . S
C284 C282 1.391 . S
C284 C285 1.400 . S
C285 C279 1.491 . S
C285 C284 1.400 . S
C285 C286 1.398 . S
C286 H274 0.950 . S
C286 C285 1.398 . S
C286 C287 1.391 . S
C287 H275 0.950 . S
C287 C283 1.393 . S
C287 C286 1.391 . S
H288 C296 0.950 . S
H289 C301 0.950 . S
H290 C298 0.950 . S
H291 C300 0.950 . S
H292 C302 0.950 . S
H293 C304 0.950 . S
H294 C306 0.950 . S
H295 C307 0.950 . S
C296 H288 0.950 . S
C296 C297 1.386 . S
C296 C298 1.391 . S
C297 C296 1.386 . S
C297 C301 1.393 . S
C298 H290 0.950 . S
C298 C296 1.391 . S
C298 C299 1.400 . S
C299 C298 1.400 . S
C299 C300 1.398 . S
C299 C305 1.491 . S
C300 H291 0.950 . S
C300 C299 1.398 . S
C300 C301 1.391 . S
C301 H289 0.950 . S
C301 C297 1.393 . S
C301 C300 1.391 . S
C302 H292 0.950 . S
C302 C303 1.386 . S
C302 C304 1.391 . S
C303 C302 1.386 . S
C303 C307 1.393 . S
C304 H293 0.950 . S
C304 C302 1.391 . S
C304 C305 1.400 . S
C305 C299 1.491 . S
C305 C304 1.400 . S
C305 C306 1.398 . S
C306 H294 0.950 . S
C306 C305 1.398 . S
C306 C307 1.391 . S
C307 H295 0.950 . S
C307 C303 1.393 . S
C307 C306 1.391 . S
H308 C316 0.950 . S
H309 C321 0.950 . S
H310 C318 0.950 . S
H311 C320 0.950 . S
H312 C322 0.950 . S
H313 C324 0.950 . S
H314 C326 0.950 . S
H315 C327 0.950 . S
C316 H308 0.950 . S
C316 C317 1.386 1_655 S
C316 C318 1.391 . S
C317 C316 1.386 1_455 S
C317 C321 1.393 . S
C318 H310 0.950 . S
C318 C316 1.391 . S
C318 C319 1.400 1_655 S
C319 C318 1.400 1_455 S
C319 C320 1.398 . S
C319 C325 1.491 . S
C320 H311 0.950 . S
C320 C319 1.398 . S
C320 C321 1.391 . S
C321 H309 0.950 . S
C321 C317 1.393 . S
C321 C320 1.391 . S
C322 H312 0.950 . S
C322 C323 1.386 . S
C322 C324 1.391 . S
C323 C322 1.386 . S
C323 C327 1.393 1_455 S
C324 H313 0.950 . S
C324 C322 1.391 . S
C324 C325 1.400 . S
C325 C319 1.491 . S
C325 C324 1.400 . S
C325 C326 1.398 1_455 S
C326 H314 0.950 . S
C326 C325 1.398 1_655 S
C326 C327 1.391 . S
C327 H315 0.950 . S
C327 C323 1.393 1_655 S
C327 C326 1.391 . S
H328 C336 0.950 . S
H329 C341 0.950 . S
H330 C338 0.950 . S
H331 C340 0.950 . S
H332 C342 0.950 . S
H333 C344 0.950 . S
H334 C346 0.950 . S
H335 C347 0.950 . S
C336 H328 0.950 . S
C336 C337 1.367 1_545 S
C336 C338 1.391 . S
C337 C336 1.367 1_565 S
C337 C341 1.407 . S
C338 H330 0.950 . S
C338 C336 1.391 . S
C338 C339 1.400 1_545 S
C339 C338 1.400 1_565 S
C339 C340 1.398 . S
C339 C345 1.498 . S
C340 H331 0.950 . S
C340 C339 1.398 . S
C340 C341 1.391 . S
C341 H329 0.950 . S
C341 C337 1.407 . S
C341 C340 1.391 . S
C342 H332 0.950 . S
C342 C343 1.386 . S
C342 C344 1.391 1_556 S
C343 C342 1.386 . S
C343 C347 1.393 1_566 S
C344 H333 0.950 . S
C344 C342 1.391 1_554 S
C344 C345 1.410 . S
C345 C339 1.498 . S
C345 C344 1.410 . S
C345 C346 1.382 1_565 S
C346 H334 0.950 . S
C346 C345 1.382 1_545 S
C346 C347 1.391 . S
C347 H335 0.950 . S
C347 C343 1.393 1_544 S
C347 C346 1.391 . S
H348 C356 0.950 . S
H349 C361 0.950 . S
H350 C358 0.950 . S
H351 C360 0.950 . S
H352 C362 0.950 . S
H353 C364 0.950 . S
H354 C366 0.950 . S
H355 C367 0.950 . S
C356 H348 0.950 . S
C356 C357 1.386 . S
C356 C358 1.391 . S
C357 C356 1.386 . S
C357 C361 1.393 . S
C358 H350 0.950 . S
C358 C356 1.391 . S
C358 C359 1.400 . S
C359 C358 1.400 . S
C359 C360 1.398 . S
C359 C365 1.491 . S
C360 H351 0.950 . S
C360 C359 1.398 . S
C360 C361 1.391 . S
C361 H349 0.950 . S
C361 C357 1.393 . S
C361 C360 1.391 . S
C362 H352 0.950 . S
C362 C363 1.386 . S
C362 C364 1.391 . S
C363 C362 1.386 . S
C363 C367 1.393 . S
C364 H353 0.950 . S
C364 C362 1.391 . S
C364 C365 1.400 . S
C365 C359 1.491 . S
C365 C364 1.400 . S
C365 C366 1.398 . S
C366 H354 0.950 . S
C366 C365 1.398 . S
C366 C367 1.391 . S
C367 H355 0.950 . S
C367 C363 1.393 . S
C367 C366 1.391 . S
H368 C376 0.950 . S
H369 C381 0.950 . S
H370 C378 0.950 . S
H371 C380 0.950 . S
H372 C382 0.950 . S
H373 C384 0.950 . S
H374 C386 0.950 . S
H375 C387 0.950 . S
C376 H368 0.950 . S
C376 C377 1.386 . S
C376 C378 1.391 . S
C377 C376 1.386 . S
C377 C381 1.393 . S
C378 H370 0.950 . S
C378 C376 1.391 . S
C378 C379 1.400 . S
C379 C378 1.400 . S
C379 C380 1.398 . S
C379 C385 1.491 . S
C380 H371 0.950 . S
C380 C379 1.398 . S
C380 C381 1.391 . S
C381 H369 0.950 . S
C381 C377 1.393 . S
C381 C380 1.391 . S
C382 H372 0.950 . S
C382 C383 1.386 1_554 S
C382 C384 1.391 . S
C383 C382 1.386 1_556 S
C383 C387 1.393 . S
C384 H373 0.950 . S
C384 C382 1.391 . S
C384 C385 1.400 . S
C385 C379 1.491 . S
C385 C384 1.400 . S
C385 C386 1.398 . S
C386 H374 0.950 . S
C386 C385 1.398 . S
C386 C387 1.391 1_554 S
C387 H375 0.950 . S
C387 C383 1.393 . S
C387 C386 1.391 1_556 S
H388 C396 0.950 . S
H389 C401 0.957 . S
H390 C398 0.950 . S
H391 C400 0.950 1_455 S
H392 C402 0.950 . S
H393 C404 0.950 . S
H394 C406 0.950 . S
H395 C407 0.950 . S
C396 H388 0.950 . S
C396 C397 1.386 . S
C396 C398 1.391 . S
C397 C396 1.386 . S
C397 C401 1.393 . S
C398 H390 0.950 . S
C398 C396 1.391 . S
C398 C399 1.400 . S
C399 C398 1.400 . S
C399 C400 1.398 . S
C399 C405 1.491 . S
C400 H391 0.950 1_655 S
C400 C399 1.398 . S
C400 C401 1.391 . S
C401 H389 0.957 . S
C401 C397 1.393 . S
C401 C400 1.391 . S
C402 H392 0.950 . S
C402 C403 1.389 . S
C402 C404 1.391 . S
C403 C402 1.389 . S
C403 C407 1.389 1_456 S
C404 H393 0.950 . S
C404 C402 1.391 . S
C404 C405 1.400 1_456 S
C405 C399 1.491 . S
C405 C404 1.400 1_654 S
C405 C406 1.398 . S
C406 H394 0.950 . S
C406 C405 1.398 . S
C406 C407 1.391 . S
C407 H395 0.950 . S
C407 C403 1.389 1_654 S
C407 C406 1.391 . S
H408 C416 0.950 . S
H409 C421 0.950 . S
H410 C418 0.950 . S
H411 C420 0.950 . S
H412 C422 0.947 . S
H413 C424 0.950 . S
H414 C426 0.950 . S
H415 C427 0.950 . S
C416 H408 0.950 . S
C416 C417 1.386 1_655 S
C416 C418 1.391 . S
C417 C416 1.386 1_455 S
C417 C421 1.393 . S
C418 H410 0.950 . S
C418 C416 1.391 . S
C418 C419 1.370 1_655 S
C419 C418 1.370 1_455 S
C419 C420 1.445 . S
C419 C425 1.476 1_455 S
C420 H411 0.950 . S
C420 C419 1.445 . S
C420 C421 1.391 . S
C421 H409 0.950 . S
C421 C417 1.393 . S
C421 C420 1.391 . S
C422 H412 0.947 . S
C422 C423 1.389 1_455 S
C422 C424 1.390 . S
C423 C422 1.389 1_655 S
C423 C427 1.393 . S
C424 H413 0.950 . S
C424 C422 1.390 . S
C424 C425 1.400 1_455 S
C425 C419 1.476 1_655 S
C425 C424 1.400 1_655 S
C425 C426 1.398 . S
C426 H414 0.950 . S
C426 C425 1.398 . S
C426 C427 1.391 . S
C427 H415 0.950 . S
C427 C423 1.393 . S
C427 C426 1.391 . S
H428 C436 0.950 . S
H429 C441 0.950 . S
H430 C438 0.950 . S
H431 C440 0.950 . S
H432 C442 0.950 . S
H433 C444 0.950 . S
H434 C446 0.950 . S
H435 C447 0.959 . S
C436 H428 0.950 . S
C436 C437 1.386 . S
C436 C438 1.391 . S
C437 C436 1.386 . S
C437 C441 1.393 1_545 S
C438 H430 0.950 . S
C438 C436 1.391 . S
C438 C439 1.400 1_545 S
C439 C438 1.400 1_565 S
C439 C440 1.398 . S
C439 C445 1.491 . S
C440 H431 0.950 . S
C440 C439 1.398 . S
C440 C441 1.391 . S
C441 H429 0.950 . S
C441 C437 1.393 1_565 S
C441 C440 1.391 . S
C442 H432 0.950 . S
C442 C443 1.386 . S
C442 C444 1.391 . S
C443 C442 1.386 . S
C443 C447 1.380 1_565 S
C444 H433 0.950 . S
C444 C442 1.391 . S
C444 C445 1.400 . S
C445 C439 1.491 . S
C445 C444 1.400 . S
C445 C446 1.398 1_565 S
C446 H434 0.950 . S
C446 C445 1.398 1_545 S
C446 C447 1.394 . S
C447 H435 0.959 . S
C447 C443 1.380 1_545 S
C447 C446 1.394 . S
H448 C456 0.950 . S
H449 C461 0.950 . S
H450 C458 0.950 . S
H451 C460 0.950 . S
H452 C462 0.950 . S
H453 C464 0.950 . S
H454 C466 0.950 . S
H455 C467 0.950 . S
C456 H448 0.950 . S
C456 C457 1.386 . S
C456 C458 1.391 . S
C457 C456 1.386 . S
C457 C461 1.393 . S
C458 H450 0.950 . S
C458 C456 1.391 . S
C458 C459 1.400 . S
C459 C458 1.400 . S
C459 C460 1.398 . S
C459 C465 1.491 . S
C460 H451 0.950 . S
C460 C459 1.398 . S
C460 C461 1.391 . S
C461 H449 0.950 . S
C461 C457 1.393 . S
C461 C460 1.391 . S
C462 H452 0.950 . S
C462 C463 1.386 . S
C462 C464 1.391 . S
C463 C462 1.386 . S
C463 C467 1.393 . S
C464 H453 0.950 . S
C464 C462 1.391 . S
C464 C465 1.400 . S
C465 C459 1.491 . S
C465 C464 1.400 . S
C465 C466 1.398 . S
C466 H454 0.950 . S
C466 C465 1.398 . S
C466 C467 1.391 . S
C467 H455 0.950 . S
C467 C463 1.393 . S
C467 C466 1.391 . S
H468 C476 0.950 . S
H469 C481 0.950 . S
H470 C478 0.950 . S
H471 C480 0.950 . S
H472 C482 0.950 . S
H473 C484 0.950 . S
H474 C486 0.950 . S
H475 C487 0.950 . S
C476 H468 0.950 . S
C476 C477 1.386 . S
C476 C478 1.391 . S
C477 C476 1.386 . S
C477 C481 1.393 . S
C478 H470 0.950 . S
C478 C476 1.391 . S
C478 C479 1.400 . S
C479 C478 1.400 . S
C479 C480 1.398 . S
C479 C485 1.491 . S
C480 H471 0.950 . S
C480 C479 1.398 . S
C480 C481 1.391 . S
C481 H469 0.950 . S
C481 C477 1.393 . S
C481 C480 1.391 . S
C482 H472 0.950 . S
C482 C483 1.386 . S
C482 C484 1.391 . S
C483 C482 1.386 . S
C483 C487 1.393 . S
C484 H473 0.950 . S
C484 C482 1.391 . S
C484 C485 1.400 . S
C485 C479 1.491 . S
C485 C484 1.400 . S
C485 C486 1.398 . S
C486 H474 0.950 . S
C486 C485 1.398 . S
C486 C487 1.391 . S
C487 H475 0.950 . S
C487 C483 1.393 . S
C487 C486 1.391 . S
H488 C496 0.950 . S
H489 C501 0.950 . S
H490 C498 0.950 . S
H491 C500 0.950 . S
H492 C502 0.950 1_655 S
H493 C504 0.953 . S
H494 C506 0.950 . S
H495 C507 0.950 . S
C496 H488 0.950 . S
C496 C497 1.386 1_455 S
C496 C498 1.391 . S
C497 C496 1.386 1_655 S
C497 C501 1.393 . S
C498 H490 0.950 . S
C498 C496 1.391 . S
C498 C499 1.400 . S
C499 C498 1.400 . S
C499 C500 1.398 1_455 S
C499 C505 1.491 . S
C500 H491 0.950 . S
C500 C499 1.398 1_655 S
C500 C501 1.391 . S
C501 H489 0.950 . S
C501 C497 1.393 . S
C501 C500 1.391 . S
C502 H492 0.950 1_455 S
C502 C503 1.386 . S
C502 C504 1.390 1_455 S
C503 C502 1.386 . S
C503 C507 1.393 . S
C504 H493 0.953 . S
C504 C502 1.390 1_655 S
C504 C505 1.398 1_655 S
C505 C499 1.491 . S
C505 C504 1.398 1_455 S
C505 C506 1.398 . S
C506 H494 0.950 . S
C506 C505 1.398 . S
C506 C507 1.391 . S
C507 H495 0.950 . S
C507 C503 1.393 . S
C507 C506 1.391 . S
H508 C516 0.950 . S
H509 C521 0.950 . S
H510 C518 0.950 . S
H511 C520 0.950 . S
H512 C522 0.950 . S
H513 C524 0.950 . S
H514 C526 0.950 . S
H515 C527 0.981 . S
C516 H508 0.950 . S
C516 C517 1.399 . S
C516 C518 1.391 . S
C517 C516 1.399 . S
C517 C521 1.373 1_565 S
C518 H510 0.950 . S
C518 C516 1.391 . S
C518 C519 1.400 1_565 S
C519 C518 1.400 1_545 S
C519 C520 1.398 . S
C519 C525 1.491 . S
C520 H511 0.950 . S
C520 C519 1.398 . S
C520 C521 1.391 . S
C521 H509 0.950 . S
C521 C517 1.373 1_545 S
C521 C520 1.391 . S
C522 H512 0.950 . S
C522 C523 1.386 . S
C522 C524 1.391 . S
C523 C522 1.386 . S
C523 C527 1.350 1_545 S
C524 H513 0.950 . S
C524 C522 1.391 . S
C524 C525 1.400 . S
C525 C519 1.491 . S
C525 C524 1.400 . S
C525 C526 1.398 1_545 S
C526 H514 0.950 . S
C526 C525 1.398 1_565 S
C526 C527 1.404 . S
C527 H515 0.981 . S
C527 C523 1.350 1_565 S
C527 C526 1.404 . S
H528 C536 0.950 . S
H529 C541 0.950 . S
H530 C538 0.950 . S
H531 C540 0.950 . S
H532 C542 0.950 . S
H533 C544 0.950 . S
H534 C546 0.950 . S
H535 C547 0.950 . S
C536 H528 0.950 . S
C536 C537 1.386 . S
C536 C538 1.391 . S
C537 C536 1.386 . S
C537 C541 1.393 . S
C538 H530 0.950 . S
C538 C536 1.391 . S
C538 C539 1.400 . S
C539 C538 1.400 . S
C539 C540 1.398 . S
C539 C545 1.491 . S
C540 H531 0.950 . S
C540 C539 1.398 . S
C540 C541 1.391 . S
C541 H529 0.950 . S
C541 C537 1.393 . S
C541 C540 1.391 . S
C542 H532 0.950 . S
C542 C543 1.386 . S
C542 C544 1.391 . S
C543 C542 1.386 . S
C543 C547 1.393 . S
C544 H533 0.950 . S
C544 C542 1.391 . S
C544 C545 1.400 . S
C545 C539 1.491 . S
C545 C544 1.400 . S
C545 C546 1.398 . S
C546 H534 0.950 . S
C546 C545 1.398 . S
C546 C547 1.391 . S
C547 H535 0.950 . S
C547 C543 1.393 . S
C547 C546 1.391 . S
H548 C556 0.950 . S
H549 C561 0.950 . S
H550 C558 0.950 . S
H551 C560 0.950 . S
H552 C562 0.950 . S
H553 C564 0.950 . S
H554 C566 0.950 . S
H555 C567 0.950 . S
C556 H548 0.950 . S
C556 C557 1.386 . S
C556 C558 1.391 . S
C557 C556 1.386 . S
C557 C561 1.393 . S
C558 H550 0.950 . S
C558 C556 1.391 . S
C558 C559 1.400 . S
C559 C558 1.400 . S
C559 C560 1.398 . S
C559 C565 1.491 . S
C560 H551 0.950 . S
C560 C559 1.398 . S
C560 C561 1.391 . S
C561 H549 0.950 . S
C561 C557 1.393 . S
C561 C560 1.391 . S
C562 H552 0.950 . S
C562 C563 1.386 . S
C562 C564 1.391 . S
C563 C562 1.386 . S
C563 C567 1.393 . S
C564 H553 0.950 . S
C564 C562 1.391 . S
C564 C565 1.400 . S
C565 C559 1.491 . S
C565 C564 1.400 . S
C565 C566 1.398 . S
C566 H554 0.950 . S
C566 C565 1.398 . S
C566 C567 1.391 . S
C567 H555 0.950 . S
C567 C563 1.393 . S
C567 C566 1.391 . S
H568 C576 0.950 . S
H569 C581 0.950 . S
H570 C578 0.950 1_556 S
H571 C580 0.950 . S
H572 C582 0.950 . S
H573 C584 0.950 . S
H574 C586 0.950 . S
H575 C587 0.950 . S
C576 H568 0.950 . S
C576 C577 1.386 . S
C576 C578 1.391 . S
C577 C576 1.386 . S
C577 C581 1.393 1_455 S
C578 H570 0.950 1_554 S
C578 C576 1.391 . S
C578 C579 1.400 . S
C579 C578 1.400 . S
C579 C580 1.398 1_455 S
C579 C585 1.491 1_554 S
C580 H571 0.950 . S
C580 C579 1.398 1_655 S
C580 C581 1.391 . S
C581 H569 0.950 . S
C581 C577 1.393 1_655 S
C581 C580 1.391 . S
C582 H572 0.950 . S
C582 C583 1.386 1_655 S
C582 C584 1.391 . S
C583 C582 1.386 1_455 S
C583 C587 1.393 . S
C584 H573 0.950 . S
C584 C582 1.391 . S
C584 C585 1.400 1_655 S
C585 C579 1.491 1_556 S
C585 C584 1.400 1_455 S
C585 C586 1.398 . S
C586 H574 0.950 . S
C586 C585 1.398 . S
C586 C587 1.391 . S
C587 H575 0.950 . S
C587 C583 1.393 . S
C587 C586 1.391 . S
H588 C596 0.950 . S
H589 C601 0.950 . S
H590 C598 0.950 . S
H591 C600 0.950 . S
H592 C602 0.950 1_554 S
H593 C604 0.950 . S
H594 C606 0.950 . S
H595 C607 0.950 . S
C596 H588 0.950 . S
C596 C597 1.386 1_556 S
C596 C598 1.391 . S
C597 C596 1.386 1_554 S
C597 C601 1.393 1_545 S
C598 H590 0.950 . S
C598 C596 1.391 . S
C598 C599 1.400 . S
C599 C598 1.400 . S
C599 C600 1.398 1_546 S
C599 C605 1.491 . S
C600 H591 0.950 . S
C600 C599 1.398 1_564 S
C600 C601 1.391 . S
C601 H589 0.950 . S
C601 C597 1.393 1_565 S
C601 C600 1.391 . S
C602 H592 0.950 1_556 S
C602 C603 1.386 1_565 S
C602 C604 1.391 1_556 S
C603 C602 1.386 1_545 S
C603 C607 1.393 . S
C604 H593 0.950 . S
C604 C602 1.391 1_554 S
C604 C605 1.400 1_564 S
C605 C599 1.491 . S
C605 C604 1.400 1_546 S
C605 C606 1.398 . S
C606 H594 0.950 . S
C606 C605 1.398 . S
C606 C607 1.391 . S
C607 H595 0.950 . S
C607 C603 1.393 . S
C607 C606 1.391 . S
H608 C616 0.950 . S
H609 C621 0.950 . S
H610 C618 0.950 . S
H611 C620 0.950 . S
H612 C622 0.950 . S
H613 C624 0.950 . S
H614 C626 0.950 . S
H615 C627 0.950 . S
C616 H608 0.950 . S
C616 C617 1.386 . S
C616 C618 1.391 . S
C617 C616 1.386 . S
C617 C621 1.393 . S
C618 H610 0.950 . S
C618 C616 1.391 . S
C618 C619 1.400 . S
C619 C618 1.400 . S
C619 C620 1.398 . S
C619 C625 1.491 . S
C620 H611 0.950 . S
C620 C619 1.398 . S
C620 C621 1.391 . S
C621 H609 0.950 . S
C621 C617 1.393 . S
C621 C620 1.391 . S
C622 H612 0.950 . S
C622 C623 1.386 . S
C622 C624 1.391 . S
C623 C622 1.386 . S
C623 C627 1.393 . S
C624 H613 0.950 . S
C624 C622 1.391 . S
C624 C625 1.400 . S
C625 C619 1.491 . S
C625 C624 1.400 . S
C625 C626 1.398 . S
C626 H614 0.950 . S
C626 C625 1.398 . S
C626 C627 1.391 . S
C627 H615 0.950 . S
C627 C623 1.393 . S
C627 C626 1.391 . S
H628 C636 0.950 . S
H629 C641 0.950 . S
H630 C638 0.950 . S
H631 C640 0.950 . S
H632 C642 0.950 . S
H633 C644 0.950 . S
H634 C646 0.950 . S
H635 C647 0.950 . S
C636 H628 0.950 . S
C636 C637 1.384 1_556 S
C636 C638 1.391 . S
C637 C636 1.384 1_554 S
C637 C641 1.394 . S
C638 H630 0.950 . S
C638 C636 1.391 . S
C638 C639 1.400 . S
C639 C638 1.400 . S
C639 C640 1.398 1_556 S
C639 C645 1.491 . S
C640 H631 0.950 . S
C640 C639 1.398 1_554 S
C640 C641 1.391 . S
C641 H629 0.950 . S
C641 C637 1.394 . S
C641 C640 1.391 . S
C642 H632 0.950 . S
C642 C643 1.386 . S
C642 C644 1.391 . S
C643 C642 1.386 . S
C643 C647 1.393 . S
C644 H633 0.950 . S
C644 C642 1.391 . S
C644 C645 1.400 . S
C645 C639 1.491 . S
C645 C644 1.400 . S
C645 C646 1.398 . S
C646 H634 0.950 . S
C646 C645 1.398 . S
C646 C647 1.391 . S
C647 H635 0.950 . S
C647 C643 1.393 . S
C647 C646 1.391 . S
H648 C656 0.950 . S
H649 C661 0.950 . S
H650 C658 0.950 . S
H651 C660 0.950 . S
H652 C662 0.950 . S
H653 C664 0.950 . S
H654 C666 0.950 . S
H655 C667 0.950 . S
C656 H648 0.950 . S
C656 C657 1.386 . S
C656 C658 1.391 . S
C657 C656 1.386 . S
C657 C661 1.393 1_655 S
C658 H650 0.950 . S
C658 C656 1.391 . S
C658 C659 1.400 . S
C659 C658 1.400 . S
C659 C660 1.398 1_655 S
C659 C665 1.491 . S
C660 H651 0.950 . S
C660 C659 1.398 1_455 S
C660 C661 1.391 . S
C661 H649 0.950 . S
C661 C657 1.393 1_455 S
C661 C660 1.391 . S
C662 H652 0.950 . S
C662 C663 1.386 1_455 S
C662 C664 1.391 . S
C663 C662 1.386 1_655 S
C663 C667 1.393 . S
C664 H653 0.950 . S
C664 C662 1.391 . S
C664 C665 1.400 1_455 S
C665 C659 1.491 . S
C665 C664 1.400 1_655 S
C665 C666 1.398 . S
C666 H654 0.950 . S
C666 C665 1.398 . S
C666 C667 1.391 . S
C667 H655 0.950 . S
C667 C663 1.393 . S
C667 C666 1.391 . S
H668 C676 0.950 . S
H669 C681 0.950 . S
H670 C678 0.950 . S
H671 C680 0.950 . S
H672 C682 0.950 . S
H673 C684 0.950 . S
H674 C686 0.950 . S
H675 C687 0.950 . S
C676 H668 0.950 . S
C676 C677 1.386 . S
C676 C678 1.391 . S
C677 C676 1.386 . S
C677 C681 1.393 1_565 S
C678 H670 0.950 . S
C678 C676 1.391 . S
C678 C679 1.400 . S
C679 C678 1.400 . S
C679 C680 1.398 1_565 S
C679 C685 1.491 . S
C680 H671 0.950 . S
C680 C679 1.398 1_545 S
C680 C681 1.391 . S
C681 H669 0.950 . S
C681 C677 1.393 1_545 S
C681 C680 1.391 . S
C682 H672 0.950 . S
C682 C683 1.386 1_545 S
C682 C684 1.391 . S
C683 C682 1.386 1_565 S
C683 C687 1.393 . S
C684 H673 0.950 . S
C684 C682 1.391 . S
C684 C685 1.400 1_545 S
C685 C679 1.491 . S
C685 C684 1.400 1_565 S
C685 C686 1.398 . S
C686 H674 0.950 . S
C686 C685 1.398 . S
C686 C687 1.391 . S
C687 H675 0.950 . S
C687 C683 1.393 . S
C687 C686 1.391 . S
H688 C696 0.950 . S
H689 C701 0.950 . S
H690 C698 0.950 . S
H691 C700 0.950 . S
H692 C702 0.950 . S
H693 C704 0.950 . S
H694 C706 0.950 . S
H695 C707 0.950 . S
C696 H688 0.950 . S
C696 C697 1.386 . S
C696 C698 1.391 . S
C697 C696 1.386 . S
C697 C701 1.393 . S
C698 H690 0.950 . S
C698 C696 1.391 . S
C698 C699 1.400 . S
C699 C698 1.400 . S
C699 C700 1.398 . S
C699 C705 1.491 . S
C700 H691 0.950 . S
C700 C699 1.398 . S
C700 C701 1.391 . S
C701 H689 0.950 . S
C701 C697 1.393 . S
C701 C700 1.391 . S
C702 H692 0.950 . S
C702 C703 1.386 . S
C702 C704 1.391 . S
C703 C702 1.386 . S
C703 C707 1.393 . S
C704 H693 0.950 . S
C704 C702 1.391 . S
C704 C705 1.400 . S
C705 C699 1.491 . S
C705 C704 1.400 . S
C705 C706 1.398 . S
C706 H694 0.950 . S
C706 C705 1.398 . S
C706 C707 1.391 . S
C707 H695 0.950 . S
C707 C703 1.393 . S
C707 C706 1.391 . S
H708 C716 0.950 . S
H709 C721 0.950 . S
H710 C718 0.950 . S
H711 C720 0.950 . S
H712 C722 0.950 . S
H713 C724 0.950 . S
H714 C726 0.950 . S
H715 C727 0.950 . S
C716 H708 0.950 . S
C716 C717 1.386 . S
C716 C718 1.391 . S
C717 C716 1.386 . S
C717 C721 1.393 . S
C718 H710 0.950 . S
C718 C716 1.391 . S
C718 C719 1.400 . S
C719 C718 1.400 . S
C719 C720 1.398 . S
C719 C725 1.491 . S
C720 H711 0.950 . S
C720 C719 1.398 . S
C720 C721 1.391 . S
C721 H709 0.950 . S
C721 C717 1.393 . S
C721 C720 1.391 . S
C722 H712 0.950 . S
C722 C723 1.386 . S
C722 C724 1.391 . S
C723 C722 1.386 . S
C723 C727 1.393 . S
C724 H713 0.950 . S
C724 C722 1.391 . S
C724 C725 1.400 . S
C725 C719 1.491 . S
C725 C724 1.400 . S
C725 C726 1.398 . S
C726 H714 0.950 . S
C726 C725 1.398 . S
C726 C727 1.391 . S
C727 H715 0.950 . S
C727 C723 1.393 . S
C727 C726 1.391 . S
C257 C74 1.814 1_565 S
C263 C111 1.916 1_545 S
C283 C151 1.699 . S
C277 C85 1.720 . S
C303 C170 1.943 . S
C297 C52 1.862 . S
C323 C231 1.357 . S
C317 C63 1.296 . S
C343 C90 1.906 1_565 S
C337 C30 1.824 1_565 S
C357 C41 1.697 . S
C363 C130 1.705 . S
C377 C8 1.821 . S
C383 C191 1.932 . S
C397 C19 1.301 . S
C403 C210 1.354 . S
C423 C92 0.922 . S
C417 C62 0.946 . S
C443 C132 0.442 . S
C437 C73 0.391 . S
C463 C188 1.004 . S
C457 C84 0.998 . S
C477 C51 0.503 . S
C483 C212 0.524 . S
C497 C18 0.900 . S
C503 C113 0.927 . S
C523 C153 0.405 . S
C517 C29 0.453 1_565 S
C543 C199 0.992 . S
C537 C40 0.957 . S
C557 C7 0.592 . S
C563 C233 0.545 . S
C577 C60 1.240 . S
C583 C108 1.616 . S
C597 C71 1.807 . S
C603 C148 2.309 . S
C623 C172 1.488 . S
C617 C82 1.237 . S
C643 C228 2.314 . S
C637 C49 1.867 . S
C657 C16 1.279 1_655 S
C663 C119 1.628 . S
C683 C159 2.310 . S
C677 C27 1.876 1_565 S
C703 C193 1.485 . S
C697 C38 1.272 . S
C717 C5 1.840 . S
C723 C239 2.311 . S
