# Generated by pormake.
# Topology gar, (4,6)-cn, num edge types: 1
# Building blocks:
#     Node 0, Type 0, BuildingBlock: UXUYUI_clean_sbu_0, # of connection points: 4
#     Node 1, Type 0, BuildingBlock: UXUYUI_clean_sbu_0, # of connection points: 4
#     Node 2, Type 0, BuildingBlock: UXUYUI_clean_sbu_0, # of connection points: 4
#     Node 3, Type 0, BuildingBlock: UXUYUI_clean_sbu_0, # of connection points: 4
#     Node 4, Type 0, BuildingBlock: UXUYUI_clean_sbu_0, # of connection points: 4
#     Node 5, Type 0, BuildingBlock: UXUYUI_clean_sbu_0, # of connection points: 4
#     Node 6, Type 0, BuildingBlock: UXUYUI_clean_sbu_0, # of connection points: 4
#     Node 7, Type 0, BuildingBlock: UXUYUI_clean_sbu_0, # of connection points: 4
#     Node 8, Type 0, BuildingBlock: UXUYUI_clean_sbu_0, # of connection points: 4
#     Node 9, Type 0, BuildingBlock: UXUYUI_clean_sbu_0, # of connection points: 4
#     Node 10, Type 0, BuildingBlock: UXUYUI_clean_sbu_0, # of connection points: 4
#     Node 11, Type 0, BuildingBlock: UXUYUI_clean_sbu_0, # of connection points: 4
#     Node 12, Type 0, BuildingBlock: UXUYUI_clean_sbu_0, # of connection points: 4
#     Node 13, Type 0, BuildingBlock: UXUYUI_clean_sbu_0, # of connection points: 4
#     Node 14, Type 0, BuildingBlock: UXUYUI_clean_sbu_0, # of connection points: 4
#     Node 15, Type 0, BuildingBlock: UXUYUI_clean_sbu_0, # of connection points: 4
#     Node 16, Type 0, BuildingBlock: UXUYUI_clean_sbu_0, # of connection points: 4
#     Node 17, Type 0, BuildingBlock: UXUYUI_clean_sbu_0, # of connection points: 4
#     Node 18, Type 0, BuildingBlock: UXUYUI_clean_sbu_0, # of connection points: 4
#     Node 19, Type 0, BuildingBlock: UXUYUI_clean_sbu_0, # of connection points: 4
#     Node 20, Type 0, BuildingBlock: UXUYUI_clean_sbu_0, # of connection points: 4
#     Node 21, Type 0, BuildingBlock: UXUYUI_clean_sbu_0, # of connection points: 4
#     Node 22, Type 0, BuildingBlock: UXUYUI_clean_sbu_0, # of connection points: 4
#     Node 23, Type 0, BuildingBlock: UXUYUI_clean_sbu_0, # of connection points: 4
#     Node 24, Type 1, BuildingBlock: KUMBOL_clean_sbu_1, # of connection points: 6
#     Node 25, Type 1, BuildingBlock: KUMBOL_clean_sbu_1, # of connection points: 6
#     Node 26, Type 1, BuildingBlock: KUMBOL_clean_sbu_1, # of connection points: 6
#     Node 27, Type 1, BuildingBlock: KUMBOL_clean_sbu_1, # of connection points: 6
#     Node 28, Type 1, BuildingBlock: KUMBOL_clean_sbu_1, # of connection points: 6
#     Node 29, Type 1, BuildingBlock: KUMBOL_clean_sbu_1, # of connection points: 6
#     Node 30, Type 1, BuildingBlock: KUMBOL_clean_sbu_1, # of connection points: 6
#     Node 31, Type 1, BuildingBlock: KUMBOL_clean_sbu_1, # of connection points: 6
#     Node 32, Type 1, BuildingBlock: KUMBOL_clean_sbu_1, # of connection points: 6
#     Node 33, Type 1, BuildingBlock: KUMBOL_clean_sbu_1, # of connection points: 6
#     Node 34, Type 1, BuildingBlock: KUMBOL_clean_sbu_1, # of connection points: 6
#     Node 35, Type 1, BuildingBlock: KUMBOL_clean_sbu_1, # of connection points: 6
#     Node 36, Type 1, BuildingBlock: KUMBOL_clean_sbu_1, # of connection points: 6
#     Node 37, Type 1, BuildingBlock: KUMBOL_clean_sbu_1, # of connection points: 6
#     Node 38, Type 1, BuildingBlock: KUMBOL_clean_sbu_1, # of connection points: 6
#     Node 39, Type 1, BuildingBlock: KUMBOL_clean_sbu_1, # of connection points: 6
#     Edge 40, Type (0, 1), None
#     Edge 41, Type (0, 1), None
#     Edge 42, Type (0, 1), None
#     Edge 43, Type (0, 1), None
#     Edge 44, Type (0, 1), None
#     Edge 45, Type (0, 1), None
#     Edge 46, Type (0, 1), None
#     Edge 47, Type (0, 1), None
#     Edge 48, Type (0, 1), None
#     Edge 49, Type (0, 1), None
#     Edge 50, Type (0, 1), None
#     Edge 51, Type (0, 1), None
#     Edge 52, Type (0, 1), None
#     Edge 53, Type (0, 1), None
#     Edge 54, Type (0, 1), None
#     Edge 55, Type (0, 1), None
#     Edge 56, Type (0, 1), None
#     Edge 57, Type (0, 1), None
#     Edge 58, Type (0, 1), None
#     Edge 59, Type (0, 1), None
#     Edge 60, Type (0, 1), None
#     Edge 61, Type (0, 1), None
#     Edge 62, Type (0, 1), None
#     Edge 63, Type (0, 1), None
#     Edge 64, Type (0, 1), None
#     Edge 65, Type (0, 1), None
#     Edge 66, Type (0, 1), None
#     Edge 67, Type (0, 1), None
#     Edge 68, Type (0, 1), None
#     Edge 69, Type (0, 1), None
#     Edge 70, Type (0, 1), None
#     Edge 71, Type (0, 1), None
#     Edge 72, Type (0, 1), None
#     Edge 73, Type (0, 1), None
#     Edge 74, Type (0, 1), None
#     Edge 75, Type (0, 1), None
#     Edge 76, Type (0, 1), None
#     Edge 77, Type (0, 1), None
#     Edge 78, Type (0, 1), None
#     Edge 79, Type (0, 1), None
#     Edge 80, Type (0, 1), None
#     Edge 81, Type (0, 1), None
#     Edge 82, Type (0, 1), None
#     Edge 83, Type (0, 1), None
#     Edge 84, Type (0, 1), None
#     Edge 85, Type (0, 1), None
#     Edge 86, Type (0, 1), None
#     Edge 87, Type (0, 1), None
#     Edge 88, Type (0, 1), None
#     Edge 89, Type (0, 1), None
#     Edge 90, Type (0, 1), None
#     Edge 91, Type (0, 1), None
#     Edge 92, Type (0, 1), None
#     Edge 93, Type (0, 1), None
#     Edge 94, Type (0, 1), None
#     Edge 95, Type (0, 1), None
#     Edge 96, Type (0, 1), None
#     Edge 97, Type (0, 1), None
#     Edge 98, Type (0, 1), None
#     Edge 99, Type (0, 1), None
#     Edge 100, Type (0, 1), None
#     Edge 101, Type (0, 1), None
#     Edge 102, Type (0, 1), None
#     Edge 103, Type (0, 1), None
#     Edge 104, Type (0, 1), None
#     Edge 105, Type (0, 1), None
#     Edge 106, Type (0, 1), None
#     Edge 107, Type (0, 1), None
#     Edge 108, Type (0, 1), None
#     Edge 109, Type (0, 1), None
#     Edge 110, Type (0, 1), None
#     Edge 111, Type (0, 1), None
#     Edge 112, Type (0, 1), None
#     Edge 113, Type (0, 1), None
#     Edge 114, Type (0, 1), None
#     Edge 115, Type (0, 1), None
#     Edge 116, Type (0, 1), None
#     Edge 117, Type (0, 1), None
#     Edge 118, Type (0, 1), None
#     Edge 119, Type (0, 1), None
#     Edge 120, Type (0, 1), None
#     Edge 121, Type (0, 1), None
#     Edge 122, Type (0, 1), None
#     Edge 123, Type (0, 1), None
#     Edge 124, Type (0, 1), None
#     Edge 125, Type (0, 1), None
#     Edge 126, Type (0, 1), None
#     Edge 127, Type (0, 1), None
#     Edge 128, Type (0, 1), None
#     Edge 129, Type (0, 1), None
#     Edge 130, Type (0, 1), None
#     Edge 131, Type (0, 1), None
#     Edge 132, Type (0, 1), None
#     Edge 133, Type (0, 1), None
#     Edge 134, Type (0, 1), None
#     Edge 135, Type (0, 1), None
# Relax obj value: 0.130
# Max RMSD: 0.227
# Mean RMSD: 0.164
data_MOF--net-gar--node1-UXUYUI_clean_sbu_0--node2-KUMBOL_clean_sbu_1--edge1-none
_symmetry_space_group_name_H-M    P1
_symmetry_Int_Tables_number       1
_symmetry_cell_setting            triclinic
loop_
_symmetry_equiv_pos_as_xyz
'x, y, z'
_cell_length_a     42.313187
_cell_length_b     42.30172
_cell_length_c     39.174602
_cell_angle_alpha  97.344548
_cell_angle_beta   97.350732
_cell_angle_gamma 102.71216
loop_
_atom_site_label
_atom_site_type_symbol
_atom_site_fract_x
_atom_site_fract_y
_atom_site_fract_z
_atom_type_partial_charge
Li0 Li 0.04351 0.34551 0.34912 0.0
Li1 Li 0.08662 0.38862 0.39577 0.0
Li2 Li 0.11596 0.3494 0.35616 0.0
Li3 Li 0.0793 0.32909 0.3996 0.0
C4 C 0.09015 0.41207 0.33249 0.0
N5 N 0.10148 0.47396 0.31416 0.0
C6 C 0.06425 0.42301 0.31591 0.0
C7 C 0.12185 0.43239 0.33939 0.0
C8 C 0.07049 0.45444 0.30687 0.0
C9 C 0.12705 0.46366 0.32999 0.0
C10 C 1.02804 0.36973 0.41948 0.0
C11 C 1.008 0.37899 0.47392 0.0
N12 N 0.99036 0.39898 0.46024 0.0
C13 C 1.00975 0.39042 0.40596 0.0
C14 C 1.02723 0.36398 0.45374 0.0
C15 C 0.99083 0.40495 0.42698 0.0
C16 C 0.97186 0.32038 0.35067 0.0
N17 N 0.99187 0.33632 0.33008 0.0
C18 C 0.94222 0.34349 0.29543 0.0
C19 C 0.97708 0.34768 0.30248 0.0
C20 C 0.92118 0.32794 0.31698 0.0
C21 C 0.93714 0.31605 0.34474 0.0
H22 H 0.98282 0.31163 0.37287 0.0
H23 H 0.99216 0.36058 0.28591 0.0
C24 C 0.07674 0.45813 0.40969 0.0
N25 N 0.08587 0.43281 0.42373 0.0
C26 C 0.07157 0.48564 0.43105 0.0
C27 C 0.08511 0.46112 0.48113 0.0
C28 C 0.08985 0.43421 0.459 0.0
C29 C 0.07568 0.48767 0.46756 0.0
H30 H 0.07206 0.45674 0.38183 0.0
H31 H 0.09518 0.41356 0.47013 0.0
C32 C 0.06543 0.2776 0.34628 0.0
N33 N 0.04974 0.21032 0.34406 0.0
C34 C 0.08979 0.26155 0.35644 0.0
C35 C 0.03315 0.25939 0.33467 0.0
C36 C 0.08135 0.22753 0.35521 0.0
C37 C 1.0257 0.2254 0.33382 0.0
C38 C 0.14345 0.35505 0.43275 0.0
C39 C 0.16023 0.3313 0.42254 0.0
C40 C 0.14894 0.36972 0.46773 0.0
C41 C 0.18199 0.32248 0.44744 0.0
C42 C 0.17084 0.3602 0.4919 0.0
N43 N 0.18677 0.33697 0.48134 0.0
C44 C 0.19069 0.36761 0.34666 0.0
C45 C 0.1652 0.31339 0.3213 0.0
C46 C 0.22199 0.363 0.33924 0.0
N47 N 0.16225 0.34306 0.33784 0.0
C48 C 0.19608 0.30779 0.31365 0.0
C49 C 0.22586 0.33256 0.32242 0.0
H50 H 0.18964 0.39111 0.36047 0.0
H51 H 0.14366 0.29317 0.31462 0.0
C52 C 0.03595 0.28135 0.42158 0.0
N53 N 0.06858 0.29574 0.4292 0.0
C54 C 1.02143 0.25788 0.44035 0.0
C55 C 0.07442 0.26328 0.47473 0.0
C56 C 0.08809 0.28683 0.45495 0.0
C57 C 0.04042 0.24902 0.46798 0.0
H58 H 1.02097 0.28857 0.40102 0.0
H59 H 0.11398 0.2983 0.46084 0.0
O60 O 0.08446 0.38165 0.3421 0.0
O61 O 0.04711 0.3557 0.39945 0.0
O62 O 0.07302 0.31096 0.34771 0.0
O63 O 0.12222 0.36416 0.40856 0.0
H64 H 0.03957 0.40756 0.31052 0.0
H65 H 0.14212 0.4242 0.35217 0.0
H66 H 0.05069 0.46339 0.29427 0.0
H67 H 0.15137 0.47975 0.33538 0.0
H68 H 1.00719 0.3748 0.50049 0.0
H69 H 1.01044 0.39546 0.37962 0.0
H70 H 0.04146 0.34827 0.46469 0.0
H71 H 0.97662 0.42106 0.41688 0.0
H72 H 0.93188 0.35242 0.27301 0.0
H73 H 0.92293 0.30371 0.36238 0.0
H74 H 0.06351 0.50462 0.41891 0.0
H75 H 0.08806 0.46045 0.50887 0.0
H76 H 0.11487 0.27519 0.36538 0.0
H77 H 1.01402 0.27145 0.32665 0.0
H78 H 0.09993 0.21481 0.36312 0.0
H79 H 1.00079 0.21101 0.32505 0.0
H80 H 0.15636 0.31957 0.39576 0.0
H81 H 0.13659 0.38833 0.47624 0.0
H82 H 0.19499 0.30405 0.43985 0.0
H83 H 0.17521 0.37133 0.51904 0.0
H84 H 0.2433 0.38341 0.34724 0.0
H85 H 0.19648 0.28357 0.30156 0.0
H86 H 0.99528 0.24715 0.43359 0.0
H87 H 0.09003 0.25726 0.49583 0.0
Li88 Li 0.05375 0.79679 0.70128 0.0
Li89 Li 0.09058 0.7768 0.74544 0.0
Li90 Li 0.04537 0.73668 0.69598 0.0
Li91 Li 1.01831 0.77291 0.74303 0.0
C92 C 0.10853 0.77359 0.67275 0.0
N93 N 0.1556 0.78039 0.62952 0.0
C94 C 0.13821 0.79727 0.68313 0.0
C95 C 0.10271 0.75368 0.64014 0.0
C96 C 0.16176 0.80016 0.66102 0.0
C97 C 0.12677 0.75751 0.61867 0.0
C98 C 0.06909 0.84387 0.76169 0.0
C99 C 0.05621 0.89376 0.78669 0.0
N100 N 0.08264 0.91163 0.77561 0.0
C101 C 0.09672 0.86273 0.75147 0.0
C102 C 0.04899 0.85948 0.77998 0.0
C103 C 0.10282 0.89696 0.7583 0.0
C104 C 0.03933 0.85637 0.68656 0.0
N105 N 0.05706 0.83446 0.67696 0.0
C106 C 0.08657 0.87205 0.6446 0.0
C107 C 0.07918 0.84117 0.65492 0.0
C108 C 0.07103 0.89621 0.65709 0.0
C109 C 0.04621 0.88767 0.67723 0.0
H110 H 1.0214 0.85034 0.70353 0.0
H111 H 0.09224 0.82327 0.64642 0.0
C112 C 0.1577 0.76155 0.75257 0.0
N113 N 0.14199 0.78481 0.76463 0.0
C114 C 0.19263 0.76733 0.75776 0.0
C115 C 0.19631 0.82081 0.78849 0.0
C116 C 0.1612 0.81424 0.7825 0.0
C117 C 0.21316 0.79729 0.77606 0.0
H118 H 0.14319 0.7387 0.73716 0.0
H119 H 0.14953 0.83346 0.79118 0.0
C120 C 0.99579 0.77321 0.66227 0.0
N121 N 0.96757 0.79653 0.60612 0.0
C122 C 0.96754 0.78492 0.66421 0.0
C123 C 1.00945 0.773 0.63161 0.0
C124 C 0.95367 0.79667 0.63556 0.0
C125 C 0.9949 0.78501 0.60356 0.0
C126 C 0.04399 0.70632 0.75401 0.0
C127 C 1.01314 0.68521 0.74146 0.0
C128 C 0.06933 0.69407 0.76972 0.0
C129 C 1.00829 0.65198 0.74444 0.0
C130 C 0.06336 0.66074 0.77256 0.0
N131 N 0.03324 0.64055 0.75988 0.0
C132 C 0.061 0.6731 0.67292 0.0
C133 C 1.0228 0.68668 0.63143 0.0
C134 C 0.06222 0.64521 0.64949 0.0
N135 N 0.04152 0.69351 0.66382 0.0
C136 C 1.02406 0.65957 0.60686 0.0
C137 C 0.04402 0.63822 0.61557 0.0
H138 H 0.07667 0.67899 0.69803 0.0
H139 H 1.00771 0.703 0.62395 0.0
C140 C 0.96369 0.80822 0.75847 0.0
N141 N 0.97359 0.78008 0.76351 0.0
C142 C 0.93373 0.81443 0.76784 0.0
C143 C 0.9225 0.76285 0.7877 0.0
C144 C 0.95292 0.75755 0.77804 0.0
C145 C 0.91194 0.79189 0.78297 0.0
H146 H 0.97864 0.82607 0.74604 0.0
H147 H 0.95955 0.73486 0.78193 0.0
O148 O 0.0855 0.76962 0.69448 0.0
O149 O 0.06159 0.81032 0.75381 0.0
O150 O 1.01025 0.76232 0.69031 0.0
O151 O 0.04952 0.73867 0.75021 0.0
H152 H 0.14295 0.81349 0.70782 0.0
H153 H 0.07985 0.73554 0.63133 0.0
H154 H 0.18491 0.81819 0.66885 0.0
H155 H 0.1225 0.74227 0.59337 0.0
H156 H 0.04078 0.90616 0.80063 0.0
H157 H 0.11265 0.85108 0.73744 0.0
H158 H 1.02812 0.84529 0.78905 0.0
H159 H 0.12332 0.91189 0.74949 0.0
H160 H 0.10567 0.87756 0.62879 0.0
H161 H 0.0332 0.90544 0.68688 0.0
H162 H 0.20347 0.7487 0.74613 0.0
H163 H 0.21018 0.84459 0.80242 0.0
H164 H 0.95634 0.7848 0.68749 0.0
H165 H 1.03142 0.76421 0.62974 0.0
H166 H 0.93186 0.80588 0.63672 0.0
H167 H 1.0054 0.78528 0.57979 0.0
H168 H 0.99334 0.69433 0.72908 0.0
H169 H 0.09339 0.71012 0.77944 0.0
H170 H 0.98468 0.63529 0.73446 0.0
H171 H 0.08271 0.65089 0.78466 0.0
H172 H 0.07868 0.63022 0.65733 0.0
H173 H 1.00967 0.6555 0.58107 0.0
H174 H 0.92734 0.83683 0.76231 0.0
H175 H 0.9073 0.74405 0.79884 0.0
Li176 Li 0.5426 0.84498 0.84832 0.0
Li177 Li 0.58553 0.88775 0.89553 0.0
Li178 Li 0.61505 0.84879 0.8556 0.0
Li179 Li 0.57802 0.82809 0.89862 0.0
C180 C 0.58825 0.9117 0.83244 0.0
N181 N 0.59736 0.97377 0.81477 0.0
C182 C 0.56137 0.92255 0.81804 0.0
C183 C 0.61979 0.93217 0.83743 0.0
C184 C 0.5665 0.95407 0.80926 0.0
C185 C 0.62386 0.96354 0.82842 0.0
C186 C 0.52552 0.8688 0.91694 0.0
C187 C 0.50069 0.8767 0.96847 0.0
N188 N 0.48496 0.89769 0.95386 0.0
C189 C 0.50917 0.8905 0.90245 0.0
C190 C 0.52134 0.86186 0.95024 0.0
C191 C 0.48875 0.90483 0.92152 0.0
C192 C 0.47064 0.82003 0.84866 0.0
N193 N 0.49104 0.8362 0.82857 0.0
C194 C 0.44183 0.84416 0.79368 0.0
C195 C 0.47665 0.848 0.80106 0.0
C196 C 0.42041 0.82849 0.8148 0.0
C197 C 0.43596 0.81605 0.84241 0.0
H198 H 0.48126 0.81078 0.8707 0.0
H199 H 0.49201 0.86098 0.78477 0.0
C200 C 0.57835 0.95827 0.91112 0.0
N201 N 0.58509 0.9316 0.92436 0.0
C202 C 0.57337 0.98557 0.93297 0.0
C203 C 0.58252 0.95821 0.98196 0.0
C204 C 0.58693 0.93147 0.95931 0.0
C205 C 0.57547 0.9861 0.9692 0.0
H206 H 0.57558 0.95827 0.88346 0.0
H207 H 0.59038 0.90983 0.9697 0.0
C208 C 0.56466 0.77701 0.84544 0.0
N209 N 0.54945 0.70981 0.84376 0.0
C210 C 0.58914 0.76126 0.85605 0.0
C211 C 0.53249 0.75855 0.83372 0.0
C212 C 0.58095 0.72728 0.85507 0.0
C213 C 0.52529 0.7246 0.83311 0.0
C214 C 0.64215 0.85442 0.93253 0.0
C215 C 0.65964 0.83117 0.92277 0.0
C216 C 0.64694 0.86909 0.96745 0.0
C217 C 0.68136 0.8228 0.94809 0.0
C218 C 0.66882 0.86002 0.99203 0.0
N219 N 0.68542 0.83725 0.98193 0.0
C220 C 0.68984 0.86733 0.84604 0.0
C221 C 0.66466 0.81281 0.82154 0.0
C222 C 0.72121 0.86276 0.83876 0.0
N223 N 0.66151 0.84261 0.83757 0.0
C224 C 0.69559 0.80725 0.81409 0.0
C225 C 0.72526 0.8322 0.82247 0.0
H226 H 0.68865 0.89094 0.85944 0.0
H227 H 0.64321 0.79247 0.81513 0.0
C228 C 0.5347 0.78018 0.92081 0.0
N229 N 0.56736 0.79455 0.92803 0.0
C230 C 0.52048 0.75664 0.9397 0.0
C231 C 0.57381 0.76191 0.97327 0.0
C232 C 0.58716 0.7855 0.9534 0.0
C233 C 0.53982 0.74769 0.967 0.0
H234 H 0.51946 0.78751 0.90052 0.0
H235 H 0.61307 0.79691 0.95895 0.0
O236 O 0.58365 0.88124 0.84185 0.0
O237 O 0.54586 0.85479 0.89874 0.0
O238 O 0.57202 0.81035 0.84666 0.0
O239 O 0.62097 0.86311 0.90795 0.0
H240 H 0.53681 0.90702 0.81422 0.0
H241 H 0.64082 0.92404 0.8485 0.0
H242 H 0.54595 0.96298 0.79838 0.0
H243 H 0.64804 0.97977 0.83236 0.0
H244 H 0.4972 0.87158 0.99428 0.0
H245 H 0.51244 0.89641 0.87685 0.0
H246 H 0.53401 0.84532 0.96193 0.0
H247 H 0.47597 0.92169 0.91064 0.0
H248 H 0.43182 0.85343 0.77138 0.0
H249 H 0.42145 0.80351 0.8597 0.0
H250 H 0.56724 1.00567 0.92137 0.0
H251 H 0.58388 0.95643 1.00941 0.0
H252 H 0.61413 0.77513 0.86519 0.0
H253 H 0.51327 0.77039 0.82539 0.0
H254 H 0.59962 0.71478 0.86333 0.0
H255 H 0.50048 0.71 0.82423 0.0
H256 H 0.65633 0.81946 0.89603 0.0
H257 H 0.63409 0.88739 0.97558 0.0
H258 H 0.69489 0.80474 0.94086 0.0
H259 H 0.67264 0.87114 0.01914 0.0
H260 H 0.74242 0.88332 0.84645 0.0
H261 H 0.69615 0.78292 0.80248 0.0
H262 H 0.49431 0.74595 0.93331 0.0
H263 H 0.58969 0.75582 0.9941 0.0
Li264 Li 0.55439 0.29556 0.20271 0.0
Li265 Li 0.59134 0.27646 0.24761 0.0
Li266 Li 0.54634 0.2355 0.19859 0.0
Li267 Li 0.51905 0.27231 0.24481 0.0
C268 C 0.60925 0.27262 0.17485 0.0
N269 N 0.65595 0.28026 0.13125 0.0
C270 C 0.63863 0.29676 0.18501 0.0
C271 C 0.60358 0.25257 0.14234 0.0
C272 C 0.66199 0.3001 0.1627 0.0
C273 C 0.62744 0.25685 0.12066 0.0
C274 C 0.56928 0.34345 0.2628 0.0
C275 C 0.55585 0.39306 0.28779 0.0
N276 N 0.58197 0.41119 0.27645 0.0
C277 C 0.59661 0.3626 0.25232 0.0
C278 C 0.54908 0.3588 0.28123 0.0
C279 C 0.60226 0.39681 0.25901 0.0
C280 C 0.53958 0.35469 0.18705 0.0
N281 N 0.55738 0.33279 0.17764 0.0
C282 C 0.58632 0.36994 0.14444 0.0
C283 C 0.57923 0.33925 0.15526 0.0
C284 C 0.57076 0.39416 0.15677 0.0
C285 C 0.54617 0.3858 0.17723 0.0
H286 H 0.52184 0.34884 0.20425 0.0
H287 H 0.59231 0.32133 0.14688 0.0
C288 C 0.6584 0.26132 0.25585 0.0
N289 N 0.64274 0.28491 0.26703 0.0
C290 C 0.69331 0.267 0.26124 0.0
C291 C 0.6971 0.32116 0.29025 0.0
C292 C 0.66199 0.31464 0.28411 0.0
C293 C 0.7139 0.29724 0.27878 0.0
H294 H 0.64387 0.23819 0.24103 0.0
H295 H 0.65035 0.33412 0.29204 0.0
C296 C 0.49658 0.27121 0.16376 0.0
N297 N 0.46836 0.29344 0.10681 0.0
C298 C 0.46838 0.28308 0.16534 0.0
C299 C 0.5102 0.2703 0.13306 0.0
C300 C 0.45451 0.29427 0.13628 0.0
C301 C 0.49564 0.28177 0.1046 0.0
C302 C 0.54506 0.206 0.25664 0.0
C303 C 0.51455 0.18459 0.24324 0.0
C304 C 0.57034 0.194 0.27289 0.0
C305 C 0.50999 0.1513 0.24584 0.0
C306 C 0.56465 0.16061 0.27538 0.0
N307 N 0.53488 0.14012 0.26182 0.0
C308 C 0.56255 0.17182 0.17642 0.0
C309 C 0.52332 0.18418 0.13513 0.0
C310 C 0.56363 0.14356 0.15343 0.0
N311 N 0.54265 0.19183 0.16719 0.0
C312 C 0.52436 0.15666 0.111 0.0
C313 C 0.54481 0.13573 0.11978 0.0
H314 H 0.57866 0.17833 0.20127 0.0
H315 H 0.50786 0.20014 0.12753 0.0
C316 C 0.46444 0.30788 0.25936 0.0
N317 N 0.47427 0.27981 0.26488 0.0
C318 C 0.43447 0.31428 0.26845 0.0
C319 C 0.42305 0.263 0.28894 0.0
C320 C 0.4535 0.25751 0.27957 0.0
C321 C 0.41257 0.29198 0.28372 0.0
H322 H 0.47948 0.32552 0.24678 0.0
H323 H 0.46006 0.23486 0.28381 0.0
O324 O 0.58634 0.26841 0.19667 0.0
O325 O 0.56215 0.3099 0.25508 0.0
O326 O 0.51106 0.26087 0.19218 0.0
O327 O 0.55042 0.23838 0.25295 0.0
H328 H 0.64323 0.31302 0.20966 0.0
H329 H 0.58097 0.23398 0.13378 0.0
H330 H 0.68488 0.31856 0.17033 0.0
H331 H 0.62326 0.24158 0.09539 0.0
H332 H 0.54033 0.40525 0.30181 0.0
H333 H 0.61263 0.35117 0.2382 0.0
H334 H 0.52849 0.34441 0.29055 0.0
H335 H 0.62246 0.41198 0.25 0.0
H336 H 0.60523 0.3753 0.12838 0.0
H337 H 0.53316 0.4036 0.18677 0.0
H338 H 0.70411 0.24803 0.25033 0.0
H339 H 0.71101 0.34517 0.30352 0.0
H340 H 0.45724 0.28352 0.18865 0.0
H341 H 0.53212 0.26137 0.13147 0.0
H342 H 0.43273 0.3036 0.13715 0.0
H343 H 0.5061 0.28149 0.0808 0.0
H344 H 0.49482 0.19351 0.23039 0.0
H345 H 0.59415 0.21028 0.28325 0.0
H346 H 0.48667 0.13435 0.23515 0.0
H347 H 0.58396 0.15095 0.28787 0.0
H348 H 0.58047 0.12897 0.16134 0.0
H349 H 0.5095 0.15203 0.08541 0.0
H350 H 0.42814 0.33661 0.26258 0.0
H351 H 0.40777 0.24439 0.30024 0.0
Li352 Li 0.11603 0.86914 0.11277 0.0
Li353 Li 0.15241 0.842 0.15985 0.0
Li354 Li 0.1125 0.79687 0.11007 0.0
Li355 Li 0.09234 0.83339 0.15438 0.0
C356 C 0.18357 0.84603 0.10437 0.0
N357 N 0.2508 0.86134 0.10671 0.0
C358 C 0.20166 0.87855 0.11416 0.0
C359 C 0.19953 0.82134 0.09519 0.0
C360 C 0.23564 0.88578 0.11517 0.0
C361 C 0.23361 0.82955 0.09686 0.0
C362 C 0.11588 0.89105 0.19392 0.0
C363 C 0.10519 0.89147 0.25299 0.0
N364 N 0.09295 0.91844 0.25082 0.0
C365 C 0.10344 0.91892 0.19238 0.0
C366 C 0.11701 0.87734 0.22456 0.0
C367 C 0.0919 0.93237 0.2214 0.0
C368 C 0.08057 0.92397 0.09806 0.0
N369 N 0.10844 0.91383 0.09233 0.0
C370 C 0.12503 0.96455 0.06725 0.0
C371 C 0.13046 0.93416 0.07691 0.0
C372 C 0.09634 0.97542 0.07284 0.0
C373 C 0.07421 0.95389 0.08869 0.0
H374 H 0.06302 0.90917 0.11095 0.0
H375 H 0.15279 0.9272 0.0722 0.0
C376 C 0.2153 0.82525 0.18485 0.0
N377 N 0.1958 0.8462 0.19243 0.0
C378 C 0.24367 0.82512 0.2082 0.0
C379 C 0.23126 0.86683 0.24825 0.0
C380 C 0.20376 0.86708 0.22357 0.0
C381 C 0.2519 0.8457 0.24085 0.0
H382 H 0.20829 0.80755 0.16115 0.0
H383 H 0.18815 0.88328 0.23001 0.0
C384 C 0.04536 0.81852 0.09364 0.0
N385 N 0.97767 0.80545 0.07874 0.0
C386 C 1.02609 0.79093 0.10356 0.0
C387 C 1.03019 0.83884 0.07521 0.0
C388 C 0.9919 0.78508 0.09621 0.0
C389 C 0.99595 0.83186 0.06799 0.0
C390 C 0.11516 0.77868 0.18269 0.0
C391 C 0.09122 0.74921 0.17209 0.0
C392 C 0.13463 0.78441 0.21555 0.0
C393 C 0.08744 0.72583 0.19437 0.0
C394 C 0.12991 0.76053 0.23718 0.0
N395 N 0.10669 0.73194 0.22619 0.0
C396 C 0.12762 0.72949 0.10101 0.0
C397 C 0.07439 0.72636 0.07287 0.0
C398 C 0.12183 0.69453 0.09502 0.0
N399 N 0.10414 0.74541 0.09016 0.0
C400 C 0.06773 0.69123 0.06625 0.0
C401 C 0.09154 0.67416 0.07732 0.0
H402 H 0.15077 0.74381 0.11597 0.0
H403 H 0.055 0.73817 0.06513 0.0
C404 C 0.03273 0.8477 0.16888 0.0
N405 N 0.05465 0.83004 0.17867 0.0
C406 C 1.00144 0.84093 0.17823 0.0
C407 C 1.0171 0.80087 0.21131 0.0
C408 C 0.04797 0.80815 0.20096 0.0
C409 C 0.99292 0.8163 0.19861 0.0
H410 H 0.03875 0.86552 0.15179 0.0
H411 H 0.0659 0.79521 0.20968 0.0
O412 O 0.15063 0.83831 0.10544 0.0
O413 O 0.12658 0.87697 0.16554 0.0
O414 O 0.07887 0.82576 0.1019 0.0
O415 O 0.1197 0.80166 0.16097 0.0
H416 H 0.18962 0.8979 0.1215 0.0
H417 H 0.18584 0.79601 0.08772 0.0
H418 H 0.24995 0.91079 0.12295 0.0
H419 H 0.24641 0.81066 0.09036 0.0
H420 H 0.10565 0.88094 0.27675 0.0
H421 H 0.10282 0.93014 0.16911 0.0
H422 H 0.12643 0.8557 0.22614 0.0
H423 H 0.08212 0.95388 0.22054 0.0
H424 H 0.14342 0.97944 0.05535 0.0
H425 H 0.05204 0.96045 0.09474 0.0
H426 H 0.25807 0.8077 0.20147 0.0
H427 H 0.23617 0.88294 0.27313 0.0
H428 H 0.03738 0.77484 0.11771 0.0
H429 H 0.04471 0.85971 0.06641 0.0
H430 H 0.97662 0.76461 0.10471 0.0
H431 H 0.98389 0.84743 0.05391 0.0
H432 H 0.07541 0.74455 0.14715 0.0
H433 H 0.1531 0.80708 0.2244 0.0
H434 H 0.0691 0.70289 0.18644 0.0
H435 H 0.1447 0.76476 0.26273 0.0
H436 H 0.14077 0.68352 0.1056 0.0
H437 H 0.04369 0.67751 0.05287 0.0
H438 H 0.98367 0.85388 0.16844 0.0
H439 H 1.01163 0.78194 0.22734 0.0
Li440 Li 0.54412 0.84334 0.508 0.0
Li441 Li 0.50043 0.80078 0.46144 0.0
Li442 Li 0.53996 0.77086 0.50088 0.0
Li443 Li 0.56003 0.80783 0.45761 0.0
C444 C 0.47764 0.79747 0.52516 0.0
N445 N 0.41611 0.7871 0.54425 0.0
C446 C 0.4656 0.82417 0.5378 0.0
C447 C 0.45862 0.76552 0.52263 0.0
C448 C 0.43437 0.8184 0.54731 0.0
C449 C 0.42752 0.7608 0.53236 0.0
C450 C 0.52032 0.86262 0.44223 0.0
C451 C 0.51497 0.89386 0.39534 0.0
N452 N 0.4933 0.90772 0.41105 0.0
C453 C 0.49792 0.87711 0.45785 0.0
C454 C 0.52888 0.87097 0.41068 0.0
C455 C 0.48457 0.89988 0.4417 0.0
C456 C 0.57062 0.91529 0.50833 0.0
N457 N 0.55329 0.89491 0.52766 0.0
C458 C 0.544 0.94411 0.5612 0.0
C459 C 0.54025 0.9093 0.55413 0.0
C460 C 0.56077 0.9655 0.54073 0.0
C461 C 0.57448 0.94996 0.51423 0.0
H462 H 0.58079 0.90467 0.48705 0.0
H463 H 0.52626 0.89393 0.56969 0.0
C464 C 0.42837 0.80423 0.44636 0.0
N465 N 0.45645 0.80187 0.43333 0.0
C466 C 0.40116 0.81047 0.42545 0.0
C467 C 0.43138 0.81113 0.37771 0.0
C468 C 0.45789 0.80516 0.39938 0.0
C469 C 0.40219 0.81419 0.39038 0.0
H470 H 0.42698 0.80215 0.47323 0.0
H471 H 0.48035 0.80456 0.38924 0.0
C472 C 0.6116 0.81956 0.50938 0.0
N473 N 0.67839 0.83168 0.50875 0.0
C474 C 0.62564 0.79415 0.49736 0.0
C475 C 0.63153 0.8511 0.52128 0.0
C476 C 0.65945 0.80078 0.49719 0.0
C477 C 0.66526 0.85674 0.52072 0.0
C478 C 0.53223 0.74489 0.42236 0.0
C479 C 0.55356 0.7248 0.4299 0.0
C480 C 0.51827 0.74379 0.38778 0.0
C481 C 0.56073 0.70413 0.4027 0.0
C482 C 0.5261 0.72284 0.36129 0.0
N483 N 0.547 0.70362 0.36923 0.0
C484 C 0.52185 0.696 0.51032 0.0
C485 C 0.5764 0.72121 0.53456 0.0
C486 C 0.52649 0.66463 0.51756 0.0
N487 N 0.54654 0.72435 0.51868 0.0
C488 C 0.58204 0.69027 0.54201 0.0
C489 C 0.55711 0.66058 0.5337 0.0
H490 H 0.49818 0.69716 0.49705 0.0
H491 H 0.59672 0.74268 0.54094 0.0
C492 C 0.60765 0.85088 0.43501 0.0
N493 N 0.59323 0.81824 0.42773 0.0
C494 C 0.63093 0.86518 0.41592 0.0
C495 C 0.62554 0.81189 0.38217 0.0
C496 C 0.60218 0.79846 0.40225 0.0
C497 C 0.63965 0.84592 0.38841 0.0
H498 H 0.60055 0.86603 0.45552 0.0
H499 H 0.59093 0.77251 0.39684 0.0
O500 O 0.50786 0.80258 0.51515 0.0
O501 O 0.53348 0.8401 0.45764 0.0
O502 O 0.57848 0.81369 0.50928 0.0
O503 O 0.52466 0.76504 0.44873 0.0
H504 H 0.48002 0.84904 0.53978 0.0
H505 H 0.46769 0.74463 0.51297 0.0
H506 H 0.42455 0.83878 0.55685 0.0
H507 H 0.41243 0.73625 0.5304 0.0
H508 H 0.52135 0.90057 0.37092 0.0
H509 H 0.4908 0.87068 0.48211 0.0
H510 H 0.54595 0.85979 0.39808 0.0
H511 H 0.46721 0.91125 0.4535 0.0
H512 H 0.53371 0.95411 0.58273 0.0
H513 H 0.5879 0.96447 0.49752 0.0
H514 H 0.37976 0.81265 0.43687 0.0
H515 H 0.43428 0.81395 0.35112 0.0
H516 H 0.61053 0.76965 0.48792 0.0
H517 H 0.621 0.87104 0.53063 0.0
H518 H 0.67063 0.78138 0.48783 0.0
H519 H 0.681 0.88103 0.52975 0.0
H520 H 0.56469 0.72529 0.4564 0.0
H521 H 0.50152 0.75885 0.3814 0.0
H522 H 0.57731 0.68859 0.40818 0.0
H523 H 0.51553 0.72184 0.33441 0.0
H524 H 0.50593 0.64341 0.50993 0.0
H525 H 0.60638 0.68973 0.55362 0.0
H526 H 0.64161 0.89136 0.42232 0.0
H527 H 0.63154 0.79606 0.36124 0.0
Li528 Li 0.61447 0.36751 0.61483 0.0
Li529 Li 0.65143 0.34063 0.66123 0.0
Li530 Li 0.61081 0.29538 0.61191 0.0
Li531 Li 0.59141 0.33171 0.65726 0.0
C532 C 0.68111 0.34208 0.60317 0.0
N533 N 0.74698 0.35264 0.59787 0.0
C534 C 0.7024 0.37268 0.61655 0.0
C535 C 0.69325 0.3169 0.58691 0.0
C536 C 0.73569 0.37742 0.61389 0.0
C537 C 0.72663 0.32279 0.58434 0.0
C538 C 0.61503 0.39003 0.69582 0.0
C539 C 0.60404 0.39115 0.75483 0.0
N540 N 0.59248 0.41848 0.75241 0.0
C541 C 0.6033 0.41829 0.69402 0.0
C542 C 0.61567 0.37649 0.72656 0.0
C543 C 0.59194 0.43227 0.72289 0.0
C544 C 0.57948 0.42264 0.59979 0.0
N545 N 0.60711 0.41204 0.59401 0.0
C546 C 0.62403 0.46216 0.5681 0.0
C547 C 0.6292 0.43185 0.5782 0.0
C548 C 0.59555 0.47345 0.5736 0.0
C549 C 0.57338 0.45249 0.58994 0.0
H550 H 0.56195 0.40828 0.61304 0.0
H551 H 0.65141 0.42459 0.57357 0.0
C552 C 0.71543 0.32555 0.68403 0.0
N553 N 0.69488 0.34489 0.69308 0.0
C554 C 0.74359 0.32481 0.70733 0.0
C555 C 0.72928 0.36321 0.74972 0.0
C556 C 0.70184 0.36394 0.72529 0.0
C557 C 0.75079 0.34342 0.74106 0.0
H558 H 0.70944 0.30962 0.65906 0.0
H559 H 0.68544 0.37893 0.73275 0.0
C560 C 0.54357 0.3171 0.59683 0.0
N561 N 0.4759 0.30386 0.58196 0.0
C562 C 0.52439 0.28941 0.60664 0.0
C563 C 0.52832 0.3375 0.57861 0.0
C564 C 0.49019 0.28345 0.59929 0.0
C565 C 0.49409 0.33044 0.57142 0.0
C566 C 0.61462 0.277 0.68433 0.0
C567 C 0.59034 0.24774 0.67381 0.0
C568 C 0.63425 0.28247 0.71706 0.0
C569 C 0.58644 0.22431 0.69602 0.0
C570 C 0.62934 0.25858 0.73866 0.0
N571 N 0.60583 0.23019 0.72774 0.0
C572 C 0.62604 0.22836 0.60335 0.0
C573 C 0.57286 0.22485 0.57476 0.0
C574 C 0.62039 0.19345 0.59774 0.0
N575 N 0.60249 0.24406 0.59213 0.0
C576 C 0.56639 0.18973 0.5684 0.0
C577 C 0.59026 0.1729 0.57993 0.0
H578 H 0.64908 0.24286 0.61838 0.0
H579 H 0.55343 0.23651 0.56678 0.0
C580 C 0.53162 0.34457 0.67371 0.0
N581 N 0.55434 0.32759 0.68289 0.0
C582 C 0.50062 0.3368 0.68363 0.0
C583 C 0.51816 0.29726 0.71613 0.0
C584 C 0.54883 0.30576 0.70548 0.0
C585 C 0.49304 0.31163 0.70365 0.0
H586 H 0.53672 0.36248 0.65652 0.0
H587 H 0.56747 0.29362 0.71411 0.0
O588 O 0.64873 0.33656 0.60681 0.0
O589 O 0.62554 0.37547 0.66758 0.0
O590 O 0.57708 0.32429 0.60485 0.0
O591 O 0.6191 0.30015 0.66281 0.0
H592 H 0.69337 0.39234 0.62939 0.0
H593 H 0.67707 0.29303 0.57656 0.0
H594 H 0.75255 0.40082 0.62458 0.0
H595 H 0.73639 0.30357 0.57181 0.0
H596 H 0.6041 0.38074 0.77866 0.0
H597 H 0.60312 0.42942 0.67069 0.0
H598 H 0.62451 0.35452 0.72832 0.0
H599 H 0.58271 0.4541 0.72184 0.0
H600 H 0.64251 0.47669 0.556 0.0
H601 H 0.55139 0.45944 0.596 0.0
H602 H 0.7586 0.30835 0.69959 0.0
H603 H 0.73342 0.37783 0.7754 0.0
H604 H 0.53575 0.27326 0.62063 0.0
H605 H 0.54278 0.35843 0.56988 0.0
H606 H 0.47496 0.26287 0.60765 0.0
H607 H 0.48195 0.34609 0.55753 0.0
H608 H 0.57432 0.24334 0.64904 0.0
H609 H 0.65288 0.30502 0.7259 0.0
H610 H 0.56784 0.20155 0.68814 0.0
H611 H 0.64416 0.26268 0.76417 0.0
H612 H 0.6393 0.18262 0.6087 0.0
H613 H 0.54246 0.17584 0.55491 0.0
H614 H 0.48216 0.34909 0.67407 0.0
H615 H 0.51353 0.27803 0.73193 0.0
Li616 Li 0.04274 0.34419 1.0085 0.0
Li617 Li 0.99941 0.3013 0.9623 0.0
Li618 Li 0.03802 0.27169 1.00201 0.0
Li619 Li 0.05876 0.30752 0.95845 0.0
C620 C 0.97571 0.29856 0.02513 0.0
N621 N 0.91331 0.2884 0.04201 0.0
C622 C 0.96517 0.32472 0.04176 0.0
C623 C 0.95475 0.26717 0.01753 0.0
C624 C 0.93348 0.31906 0.05008 0.0
C625 C 0.92323 0.26257 0.02617 0.0
C626 C 1.01881 0.35981 0.93857 0.0
C627 C 1.00989 0.38123 0.88491 0.0
N628 N 0.98974 0.39845 0.89896 0.0
C629 C 0.99797 0.37769 0.95247 0.0
C630 C 1.02481 0.36153 0.90451 0.0
C631 C 0.98353 0.39709 0.93203 0.0
C632 C 0.06826 0.4157 1.00648 0.0
N633 N 0.05217 0.39591 0.02717 0.0
C634 C 0.04484 0.44581 0.0612 0.0
C635 C 0.0407 0.41093 0.05453 0.0
C636 C 0.06039 0.46661 0.03945 0.0
C637 C 0.07247 0.45042 0.01199 0.0
H638 H 0.0772 0.40453 0.98451 0.0
H639 H 1.02776 0.39604 0.07121 0.0
C640 C 0.93023 0.31174 0.94812 0.0
N641 N 0.95551 0.30236 0.93426 0.0
C642 C 0.9029 0.31701 0.92662 0.0
C643 C 0.92757 0.30314 0.87673 0.0
C644 C 0.9543 0.2983 0.89902 0.0
C645 C 0.90105 0.31278 0.89015 0.0
H646 H 0.93154 0.31657 0.97595 0.0
H647 H 0.97498 0.29283 0.88805 0.0
C648 C 0.11019 0.3215 0.01177 0.0
N649 N 0.17746 0.33659 0.01404 0.0
C650 C 0.12604 0.29686 1.00201 0.0
C651 C 0.1286 0.35377 0.02301 0.0
C652 C 0.16006 0.305 1.00326 0.0
C653 C 0.16258 0.36091 0.0239 0.0
C654 C 1.03111 0.24285 0.92584 0.0
C655 C 0.05491 0.2261 0.93592 0.0
C656 C 1.01509 0.23612 0.89128 0.0
C657 C 0.06246 0.20313 0.91129 0.0
C658 C 1.02338 0.21305 0.86737 0.0
N659 N 0.0467 0.19717 0.87778 0.0
C660 C 1.01971 0.1969 1.01051 0.0
C661 C 0.07362 0.22251 0.03694 0.0
C662 C 1.0244 0.1655 0.0175 0.0
N663 N 0.04408 0.22542 0.02005 0.0
C664 C 0.07928 0.19157 0.04417 0.0
C665 C 0.05472 0.16169 0.03463 0.0
H666 H 0.99636 0.19797 0.99638 0.0
H667 H 0.09369 0.24415 0.04415 0.0
C668 C 0.10725 0.34928 0.93579 0.0
N669 N 0.09223 0.31678 0.92895 0.0
C670 C 0.13119 0.36259 0.91692 0.0
C671 C 0.12487 0.30866 0.88413 0.0
C672 C 0.1009 0.29623 0.90398 0.0
C673 C 0.13977 0.34248 0.89003 0.0
H674 H 0.10012 0.36511 0.95571 0.0
H675 H 0.08886 0.27046 0.89868 0.0
O676 O 1.00628 0.30375 0.01598 0.0
O677 O 0.0328 0.34032 0.95807 0.0
O678 O 0.07684 0.31421 1.01031 0.0
O679 O 1.02314 0.26519 0.94979 0.0
H680 H 0.98109 0.34917 0.04767 0.0
H681 H 0.96263 0.24671 1.00468 0.0
H682 H 0.92482 0.33908 0.06267 0.0
H683 H 0.9066 0.23853 0.02015 0.0
H684 H 1.01428 0.3828 0.8585 0.0
H685 H 0.99274 0.37631 0.97865 0.0
H686 H 0.04069 0.34766 0.89329 0.0
H687 H 0.9673 0.41099 0.94242 0.0
H688 H 0.03583 0.45633 0.08346 0.0
H689 H 0.08488 0.46445 0.99425 0.0
H690 H 0.88394 0.32525 0.93863 0.0
H691 H 0.92829 0.30003 0.84901 0.0
H692 H 0.11225 0.27178 0.99334 0.0
H693 H 0.11671 0.37312 0.03073 0.0
H694 H 0.17263 0.28619 0.99564 0.0
H695 H 0.17713 0.3858 0.03238 0.0
H696 H 0.06773 0.23097 0.96234 0.0
H697 H 0.99632 0.24835 0.88295 0.0
H698 H 0.08094 0.19014 0.91877 0.0
H699 H 1.0112 0.20771 0.84055 0.0
H700 H 1.00417 0.14411 1.00892 0.0
H701 H 0.10341 0.19119 0.05648 0.0
H702 H 0.14231 0.38871 0.92279 0.0
H703 H 0.13062 0.2923 0.8635 0.0
Li704 Li 0.47448 0.06049 0.35986 0.0
Li705 Li 0.42188 0.0255 0.3338 0.0
Li706 Li 0.46376 0.03952 0.2997 0.0
Li707 Li 0.43644 0.0809 0.32132 0.0
C708 C 0.47852 0.98976 0.32669 0.0
N709 N 0.50661 0.94011 0.3013 0.0
C710 C 0.45914 0.95794 0.31458 0.0
C711 C 0.51224 0.9962 0.32542 0.0
C712 C 0.4738 0.93321 0.30205 0.0
C713 C 0.52594 0.97084 0.31258 0.0
C714 C 0.40894 0.05764 0.38898 0.0
C715 C 0.35332 0.04014 0.39956 0.0
N716 N 0.36495 0.03657 0.43249 0.0
C717 C 0.42032 0.05372 0.4229 0.0
C718 C 0.37517 0.05091 0.37722 0.0
C719 C 0.39769 0.04308 0.44452 0.0
C720 C 0.50862 0.09717 0.4246 0.0
N721 N 0.50514 0.06961 0.40107 0.0
C722 C 0.53903 0.04791 0.44057 0.0
C723 C 0.52007 0.04539 0.40835 0.0
C724 C 0.54162 0.07515 0.46592 0.0
C725 C 0.52696 0.10048 0.4576 0.0
H726 H 0.4955 0.1155 0.41851 0.0
H727 H 0.51554 1.02302 0.39026 0.0
C728 C 0.36468 0.97605 0.3125 0.0
N729 N 0.39027 0.98865 0.33885 0.0
C730 C 0.34827 0.94312 0.30839 0.0
C731 C 0.38414 0.9374 0.35944 0.0
C732 C 0.39923 0.97071 0.3632 0.0
C733 C 0.35931 0.92331 0.33095 0.0
H734 H 0.35879 0.99077 0.29316 0.0
H735 H 0.4203 0.98139 0.38329 0.0
C736 C 0.51209 0.10803 0.33825 0.0
N737 N 0.56739 0.15318 0.37479 0.0
C738 C 0.5095 0.13837 0.35501 0.0
C739 C 0.54283 0.10063 0.34028 0.0
C740 C 0.53775 0.16089 0.37324 0.0
C741 C 0.57047 0.12376 0.35886 0.0
C742 C 0.40667 0.04895 0.25751 0.0
C743 C 0.4296 0.06521 0.23894 0.0
C744 C 0.37317 0.04494 0.24592 0.0
C745 C 0.41858 0.0767 0.20881 0.0
C746 C 0.36316 0.05706 0.21587 0.0
N747 N 0.38587 0.07249 0.19804 0.0
C748 C 0.45933 0.9907 0.24504 0.0
C749 C 0.51003 0.03091 0.2557 0.0
C750 C 0.471 0.9708 0.22111 0.0
N751 N 0.47915 1.01968 0.26212 0.0
C752 C 0.52255 1.01195 0.23172 0.0
C753 C 0.50291 0.98153 0.21436 0.0
H754 H 0.43493 0.98254 0.25115 0.0
H755 H 0.52507 0.05404 0.2698 0.0
C756 C 0.43916 0.13804 0.29191 0.0
N757 N 0.41957 0.1159 0.30707 0.0
C758 C 0.42589 0.15908 0.27295 0.0
C759 C 0.37259 0.13473 0.28635 0.0
C760 C 0.38699 0.11433 0.30532 0.0
C761 C 0.39198 0.15696 0.26908 0.0
H762 H 0.46471 0.13796 0.2927 0.0
H763 H 0.37177 0.09568 0.3165 0.0
O764 O 0.46461 1.01454 0.33903 0.0
O765 O 0.43073 0.06833 0.36753 0.0
O766 O 0.48466 0.08561 0.32029 0.0
O767 O 0.41686 0.03941 0.28835 0.0
H768 H 0.43294 0.95238 0.31392 0.0
H769 H 0.52765 1.02071 0.33375 0.0
H770 H 0.45906 0.90859 0.29265 0.0
H771 H 0.55193 0.97565 0.31139 0.0
H772 H 0.32713 0.0346 0.39072 0.0
H773 H 0.44634 0.05889 0.4325 0.0
H774 H 0.36592 0.05345 0.35093 0.0
H775 H 0.40613 0.04003 0.47088 0.0
H776 H 0.54927 0.02752 0.44643 0.0
H777 H 0.52826 0.12167 0.47692 0.0
H778 H 0.32873 0.93273 0.28649 0.0
H779 H 0.39256 0.92261 0.37765 0.0
H780 H 0.48588 0.14432 0.35448 0.0
H781 H 0.54538 0.07722 0.32789 0.0
H782 H 0.53606 0.18442 0.38637 0.0
H783 H 0.59438 0.11831 0.36064 0.0
H784 H 0.45564 0.06983 0.24815 0.0
H785 H 0.35506 0.03337 0.26046 0.0
H786 H 0.43606 0.0894 0.19429 0.0
H787 H 0.33734 0.05457 0.20703 0.0
H788 H 0.45523 0.94767 0.20765 0.0
H789 H 0.54724 1.02081 0.22666 0.0
H790 H 0.44187 0.17593 0.26038 0.0
H791 H 0.34626 0.13166 0.28358 0.0
Li792 Li 0.29772 0.24669 0.57678 0.0
Li793 Li 0.32011 0.20502 0.54284 0.0
Li794 Li 0.29396 0.24247 0.50679 0.0
Li795 Li 0.26121 0.20073 0.53668 0.0
C796 C 0.35232 0.28536 0.55681 0.0
N797 N 0.38934 0.34906 0.57778 0.0
C798 C 0.38248 0.29163 0.57891 0.0
C799 C 0.34096 0.31148 0.54551 0.0
C800 C 0.40082 0.32403 0.58921 0.0
C801 C 0.36007 0.34351 0.55634 0.0
C802 C 0.30823 0.188 0.60457 0.0
C803 C 0.31492 0.1447 0.63746 0.0
N804 N 0.34421 0.16377 0.65463 0.0
C805 C 0.33838 0.20713 0.62259 0.0
C806 C 0.29655 0.15633 0.6118 0.0
C807 C 0.35628 0.19439 0.64767 0.0
C808 C 0.28196 0.25298 0.64535 0.0
N809 N 0.30234 0.26976 0.62592 0.0
C810 C 0.33122 0.3067 0.67826 0.0
C811 C 0.32626 0.29678 0.64175 0.0
C812 C 0.31119 0.28902 0.69892 0.0
C813 C 0.28584 0.26224 0.6817 0.0
H814 H 0.26339 0.23129 0.6328 0.0
H815 H 0.34249 0.31001 0.62648 0.0
C816 C 0.38641 0.20531 0.5466 0.0
N817 N 0.35679 0.18521 0.54753 0.0
C818 C 0.41534 0.19677 0.55872 0.0
C819 C 0.38296 0.14566 0.56988 0.0
C820 C 0.35453 0.15513 0.55724 0.0
C821 C 0.41386 0.16726 0.57208 0.0
H822 H 0.38757 0.22881 0.53815 0.0
H823 H 0.33069 0.13941 0.55743 0.0
C824 C 0.22755 0.24608 0.53362 0.0
N825 N 0.16039 0.23905 0.52271 0.0
C826 C 0.21099 0.24579 0.5003 0.0
C827 C 0.21004 0.24302 0.56145 0.0
C828 C 0.177 0.24226 0.49533 0.0
C829 C 0.17606 0.23932 0.55535 0.0
C830 C 0.26766 0.16674 0.47776 0.0
C831 C 0.24962 0.17007 0.44651 0.0
C832 C 0.26438 0.13581 0.48782 0.0
C833 C 0.22837 0.14226 0.42583 0.0
C834 C 0.24282 0.10862 0.46645 0.0
N835 N 0.22541 0.11239 0.43617 0.0
C836 C 0.3155 0.24515 0.43983 0.0
C837 C 0.28876 0.28754 0.45276 0.0
C838 C 0.32064 0.25486 0.40739 0.0
N839 N 0.29975 0.26132 0.46206 0.0
C840 C 0.29366 0.29825 0.42058 0.0
C841 C 0.3097 0.28181 0.39703 0.0
H842 H 0.32414 0.22435 0.4472 0.0
H843 H 0.2761 0.30026 0.47021 0.0
C844 C 0.21501 0.1587 0.56654 0.0
N845 N 0.21864 0.17008 0.53593 0.0
C846 C 0.18653 0.13599 0.56979 0.0
C847 C 0.164 0.13909 0.51093 0.0
C848 C 0.1936 0.16092 0.50835 0.0
C849 C 0.16046 0.126 0.54186 0.0
H850 H 0.23401 0.16785 0.58891 0.0
H851 H 0.19629 0.17089 0.48455 0.0
O852 O 0.33388 0.25387 0.54643 0.0
O853 O 0.29146 0.19937 0.57835 0.0
O854 O 0.26076 0.24924 0.53892 0.0
O855 O 0.28827 0.19368 0.49856 0.0
H856 H 0.39151 0.27177 0.58831 0.0
H857 H 0.31755 0.30707 0.52871 0.0
H858 H 0.4241 0.32932 0.60643 0.0
H859 H 0.35159 0.36396 0.54777 0.0
H860 H 0.30614 0.12029 0.6433 0.0
H861 H 0.34827 0.23109 0.61629 0.0
H862 H 0.27404 0.14042 0.5972 0.0
H863 H 0.38002 0.20853 0.66121 0.0
H864 H 0.35094 0.32768 0.69029 0.0
H865 H 0.26984 0.24773 0.69637 0.0
H866 H 0.43864 0.21374 0.55887 0.0
H867 H 0.3806 0.12264 0.57979 0.0
H868 H 0.22423 0.24812 0.4785 0.0
H869 H 0.22251 0.24322 0.58739 0.0
H870 H 0.16383 0.242 0.46969 0.0
H871 H 0.16214 0.23667 0.57658 0.0
H872 H 0.25181 0.1939 0.43845 0.0
H873 H 0.2781 0.13292 0.51204 0.0
H874 H 0.21413 0.14445 0.40165 0.0
H875 H 0.23989 0.08454 0.47395 0.0
H876 H 0.33346 0.24149 0.39072 0.0
H877 H 0.28468 0.31917 0.41409 0.0
H878 H 0.18437 0.12739 0.59448 0.0
H879 H 0.14418 0.13238 0.48896 0.0
Li880 Li 0.19084 0.12498 0.81998 0.0
Li881 Li 0.14757 0.09372 0.84968 0.0
Li882 Li 0.18331 0.06551 0.81329 0.0
Li883 Li 0.14405 0.09117 0.77991 0.0
C884 C 0.2225 0.11756 0.87954 0.0
N885 N 0.27597 0.15952 0.92282 0.0
C886 C 0.21807 0.13672 0.90955 0.0
C887 C 0.25407 0.1196 0.87157 0.0
C888 C 0.24544 0.1578 0.9311 0.0
C889 C 0.2808 0.14101 0.89378 0.0
C890 C 0.1468 0.16123 0.82374 0.0
C891 C 0.15435 0.21287 0.80224 0.0
N892 N 0.15377 0.22839 0.83471 0.0
C893 C 0.14618 0.17764 0.85687 0.0
C894 C 0.15076 0.17889 0.79612 0.0
C895 C 0.14974 0.21163 0.86188 0.0
C896 C 0.23707 0.1697 0.79205 0.0
N897 N 0.22318 0.16677 0.82137 0.0
C898 C 0.25258 0.22196 0.84626 0.0
C899 C 0.23054 0.19235 0.84832 0.0
C900 C 0.26779 0.2251 0.81655 0.0
C901 C 0.25996 0.19836 0.78937 0.0
H902 H 0.22965 0.1501 0.77014 0.0
H903 H 0.21879 0.19015 0.87111 0.0
C904 C 0.14407 0.07227 0.91672 0.0
N905 N 0.12837 0.08837 0.89445 0.0
C906 C 0.1341 0.06723 0.94908 0.0
C907 C 0.09137 0.09497 0.93576 0.0
C908 C 0.10237 0.09981 0.90368 0.0
C909 C 0.10732 0.07857 0.95932 0.0
H910 H 0.16468 0.06325 0.90942 0.0
H911 H 0.09001 0.11277 0.88626 0.0
C912 C 0.19882 0.07518 0.75062 0.0
N913 N 0.21556 0.03493 0.69799 0.0
C914 C 0.17666 0.04591 0.73424 0.0
C915 C 0.22967 0.08374 0.74037 0.0
C916 C 0.18564 0.02585 0.70782 0.0
C917 C 0.23751 0.06326 0.7135 0.0
C918 C 0.10188 0.03852 0.7989 0.0
C919 C 0.09305 1.00809 0.77698 0.0
C920 C 0.07747 0.05284 0.81014 0.0
C921 C 0.05982 0.99235 0.76698 0.0
C922 C 0.04453 0.03635 0.79949 0.0
N923 N 0.03647 1.00669 0.77835 0.0
C924 C 0.18017 0.99814 0.80689 0.0
C925 C 0.23141 0.02957 0.79835 0.0
C926 C 0.18795 0.96915 0.79342 0.0
N927 N 0.20126 0.02763 0.80776 0.0
C928 C 0.24007 1.00113 0.78431 0.0
C929 C 0.21757 0.97049 0.78036 0.0
H930 H 0.1565 0.99724 0.81483 0.0
H931 H 0.24776 0.05334 0.79929 0.0
C932 C 0.14171 0.1041 0.71049 0.0
N933 N 0.12128 0.08917 0.73109 0.0
C934 C 0.1323 0.10011 0.67422 0.0
C935 C 0.07912 0.06884 0.68049 0.0
C936 C 0.09005 0.07225 0.71674 0.0
C937 C 0.10081 0.08192 0.65855 0.0
H938 H 0.16612 0.1182 0.72205 0.0
H939 H 0.07386 0.06046 0.73303 0.0
O940 O 0.19602 0.09711 0.85787 0.0
O941 O 0.14321 0.12798 0.81833 0.0
O942 O 0.19123 0.09404 0.77817 0.0
O943 O 0.13425 0.05432 0.80918 0.0
H944 H 0.19375 0.13556 0.91595 0.0
H945 H 0.25782 0.10499 0.84834 0.0
H946 H 0.24241 0.17292 0.95433 0.0
H947 H 0.30538 0.14294 0.88791 0.0
H948 H 0.1575 0.2269 0.78118 0.0
H949 H 0.14307 0.16426 0.87847 0.0
H950 H 0.15122 0.16648 0.7703 0.0
H951 H 0.14933 0.2247 0.88738 0.0
H952 H 0.25764 0.24222 0.86768 0.0
H953 H 0.27035 0.20007 0.76559 0.0
H954 H 0.14711 0.05413 0.96576 0.0
H955 H 0.07061 0.10428 0.94216 0.0
H956 H 0.15312 0.03837 0.74251 0.0
H957 H 0.24783 0.10546 0.75348 0.0
H958 H 0.16909 1.00283 0.69544 0.0
H959 H 0.26127 0.06964 0.70534 0.0
H960 H 0.11159 0.99674 0.76775 0.0
H961 H 0.0839 0.07655 0.82671 0.0
H962 H 0.05257 0.96874 0.75019 0.0
H963 H 1.02537 0.04715 0.808 0.0
H964 H 0.17034 0.946 0.79199 0.0
H965 H 0.26318 1.0034 0.77463 0.0
H966 H 0.14963 0.11117 0.65849 0.0
H967 H 0.05449 0.05473 0.66951 0.0
Li968 Li 0.30722 0.95394 0.03276 0.0
Li969 Li 0.34057 0.92069 0.05575 0.0
Li970 Li 0.36454 0.96765 0.02839 0.0
Li971 Li 0.32774 0.91774 0.99334 0.0
C972 C 0.33178 0.98369 0.09664 0.0
N973 N 0.30249 1.0145 0.14595 0.0
C974 C 0.31173 0.96521 0.11635 0.0
C975 C 0.33707 1.01789 0.10223 0.0
C976 C 0.29719 0.98124 0.14118 0.0
C977 C 0.32199 0.03299 0.12721 0.0
C978 C 0.28489 0.87119 0.02004 0.0
C979 C 0.29256 0.81711 1.00136 0.0
N980 N 0.26067 0.8038 1.00335 0.0
C981 C 0.252 0.85695 0.02132 0.0
C982 C 0.30506 0.85108 1.00925 0.0
C983 C 0.24028 0.82288 0.01292 0.0
C984 C 0.24828 0.9507 0.05635 0.0
N985 N 0.27095 0.97118 0.04267 0.0
C986 C 0.25061 1.01711 0.06343 0.0
C987 C 0.27161 1.00361 0.04451 0.0
C988 C 0.22881 0.99692 0.08043 0.0
C989 C 0.2268 0.96306 0.07532 0.0
H990 H 0.24904 0.92533 0.05554 0.0
H991 H 0.29042 1.01962 0.03439 0.0
C992 C 0.37075 0.92011 0.12162 0.0
N993 N 0.35534 0.8992 0.09196 0.0
C994 C 0.39098 0.91004 0.1465 0.0
C995 C 0.37932 0.85682 0.11027 0.0
C996 C 0.35899 0.86786 0.08609 0.0
C997 C 0.39582 0.87828 0.14055 0.0
H998 H 0.3694 0.9454 0.12503 0.0
H999 H 0.34806 0.85192 0.06197 0.0
C1000 C 0.32544 0.99115 0.97627 0.0
N1001 N 0.32389 0.04617 0.94555 0.0
C1002 C 0.3115 0.98777 0.94128 0.0
C1003 C 0.33891 1.02248 0.99553 0.0
C1004 C 0.31083 1.0159 0.92625 0.0
C1005 C 0.33781 0.05 0.97956 0.0
C1006 C 0.39912 0.91587 0.0369 0.0
C1007 C 0.41873 0.93769 0.06553 0.0
C1008 C 0.40798 0.88682 0.02538 0.0
C1009 C 0.44696 0.93035 0.0818 0.0
C1010 C 0.43652 0.88044 0.04227 0.0
N1011 N 0.45524 0.90213 0.06991 0.0
C1012 C 0.41722 1.02341 0.05319 0.0
C1013 C 0.42293 0.98591 1.00508 0.0
C1014 C 0.45023 0.03947 0.05703 0.0
N1015 N 0.40454 0.99695 0.02781 0.0
C1016 C 0.45627 1.00052 1.00875 0.0
C1017 C 0.47011 0.02715 0.03541 0.0
H1018 H 0.40226 0.03092 0.07151 0.0
H1019 H 0.4121 0.96441 0.98558 0.0
C1020 C 0.29181 0.88085 0.93064 0.0
N1021 N 0.32182 0.89118 0.95084 0.0
C1022 C 0.28823 0.86094 0.8986 0.0
C1023 C 0.34609 0.86152 0.91018 0.0
C1024 C 0.34873 0.88221 0.94136 0.0
C1025 C 0.31573 0.85143 0.88827 0.0
H1026 H 0.271 0.88857 0.93924 0.0
H1027 H 0.37234 0.89174 0.95767 0.0
O1028 O 0.34559 0.96824 0.07161 0.0
O1029 O 0.29605 0.90472 0.02534 0.0
O1030 O 0.3274 0.96382 0.99086 0.0
O1031 O 0.37067 0.92216 0.0213 0.0
H1032 H 0.30701 0.93869 0.11208 0.0
H1033 H 0.35203 0.03267 0.087 0.0
H1034 H 0.28147 0.96724 0.15643 0.0
H1035 H 0.32565 0.0594 0.13157 0.0
H1036 H 0.30816 0.80137 0.9934 0.0
H1037 H 0.23544 0.87194 0.02827 0.0
H1038 H 0.3302 0.86157 1.00684 0.0
H1039 H 0.21493 0.81161 0.01396 0.0
H1040 H 0.25341 0.04344 0.06699 0.0
H1041 H 0.2103 0.94654 0.08767 0.0
H1042 H 0.40324 0.92711 0.16984 0.0
H1043 H 0.38213 0.83187 0.10539 0.0
H1044 H 0.30143 0.96364 0.92588 0.0
H1045 H 0.35 0.0255 0.02254 0.0
H1046 H 0.30004 1.01366 0.89922 0.0
H1047 H 0.34807 0.0744 0.99419 0.0
H1048 H 0.41177 0.95965 0.07582 0.0
H1049 H 0.39278 0.86905 1.004 0.0
H1050 H 0.46202 0.94691 0.10416 0.0
H1051 H 0.44362 0.85807 0.03359 0.0
H1052 H 0.46047 0.06033 0.07758 0.0
H1053 H 0.47107 0.99105 0.99122 0.0
H1054 H 0.26458 0.85362 0.88177 0.0
H1055 H 0.36786 0.85522 0.90228 0.0
Li1056 Li 0.33162 0.42763 0.06705 0.0
Li1057 Li 0.35265 0.3866 0.09867 0.0
Li1058 Li 0.38905 0.4276 0.06763 0.0
Li1059 Li 0.34739 0.38188 0.03088 0.0
C1060 C 0.39217 0.45477 0.13167 0.0
N1061 N 0.44691 0.4928 0.17653 0.0
C1062 C 0.41199 0.44 0.15265 0.0
C1063 C 0.4003 0.48887 0.13335 0.0
C1064 C 0.43951 0.45967 0.17524 0.0
C1065 C 0.42806 0.50767 0.15622 0.0
C1066 C 0.28445 0.36737 0.07472 0.0
C1067 C 0.23616 0.32475 0.07504 0.0
N1068 N 0.2289 0.34338 0.10254 0.0
C1069 C 0.27651 0.38611 0.10294 0.0
C1070 C 0.26415 0.33646 0.06058 0.0
C1071 C 0.24832 0.37353 0.11666 0.0
C1072 C 0.2813 0.456 0.03992 0.0
N1073 N 0.30355 0.45657 0.06839 0.0
C1074 C 0.29193 0.50481 0.09754 0.0
C1075 C 0.30867 0.47986 0.09716 0.0
C1076 C 0.26949 0.50545 0.06816 0.0
C1077 C 0.26365 0.48026 0.03935 0.0
H1078 H 0.2781 0.43732 0.0173 0.0
H1079 H 0.32643 0.47956 0.11946 0.0
C1080 C 0.3456 0.33607 0.14796 0.0
N1081 N 0.3454 0.36751 0.14334 0.0
C1082 C 0.33893 0.32478 0.17942 0.0
C1083 C 0.33194 0.37799 0.2015 0.0
C1084 C 0.33867 0.38826 0.16969 0.0
C1085 C 0.33191 0.34575 0.20705 0.0
H1086 H 0.35079 0.31945 0.12729 0.0
H1087 H 0.33827 0.41309 0.16606 0.0
C1088 C 0.36999 0.43483 0.99883 0.0
N1089 N 0.39502 0.44289 0.93791 0.0
C1090 C 0.39557 0.42057 0.99089 0.0
C1091 C 0.35738 0.45346 0.97595 0.0
C1092 C 0.40789 0.42494 0.95997 0.0
C1093 C 0.37033 0.45718 0.94523 0.0
C1094 C 0.39544 0.3509 0.05747 0.0
C1095 C 0.4256 0.3517 0.04618 0.0
C1096 C 0.37444 0.32077 0.05892 0.0
C1097 C 0.43432 0.3222 0.03667 0.0
C1098 C 0.38408 0.2918 0.04922 0.0
N1099 N 0.41356 0.29311 0.03838 0.0
C1100 C 0.46009 0.45292 0.07584 0.0
C1101 C 0.42775 0.48727 0.05422 0.0
C1102 C 0.48875 0.47523 0.07194 0.0
N1103 N 0.43025 0.45912 0.06677 0.0
C1104 C 0.45574 0.50994 0.04924 0.0
C1105 C 0.48692 0.50419 0.05813 0.0
H1106 H 0.46164 0.4305 0.08576 0.0
H1107 H 0.40379 0.49191 0.04737 0.0
C1108 C 0.31867 0.37039 0.95864 0.0
N1109 N 0.33798 0.35797 0.98147 0.0
C1110 C 0.31645 0.36178 0.92232 0.0
C1111 C 0.35103 0.32485 0.93286 0.0
C1112 C 0.35365 0.33507 0.96901 0.0
C1113 C 0.33333 0.33914 0.90867 0.0
H1114 H 0.30638 0.38863 0.96861 0.0
H1115 H 0.36922 0.32539 0.98683 0.0
O1116 O 0.3657 0.43582 0.10865 0.0
O1117 O 0.31215 0.37898 0.06115 0.0
O1118 O 0.35653 0.42966 0.02823 0.0
O1119 O 0.38647 0.3795 0.06687 0.0
H1120 H 0.4064 0.4136 0.15124 0.0
H1121 H 0.38557 0.50066 0.11685 0.0
H1122 H 0.45506 0.44857 0.19162 0.0
H1123 H 0.43469 0.53406 0.15775 0.0
H1124 H 0.22021 0.30088 0.06437 0.0
H1125 H 0.29206 0.41001 0.11428 0.0
H1126 H 0.27002 0.32166 0.03873 0.0
H1127 H 0.24193 0.38773 0.13858 0.0
H1128 H 0.29675 0.52362 0.12036 0.0
H1129 H 0.24662 0.48011 0.01616 0.0
H1130 H 0.33945 0.29971 0.18204 0.0
H1131 H 0.32672 0.3953 0.22158 0.0
H1132 H 0.40552 0.40594 1.00821 0.0
H1133 H 0.3375 0.46453 0.98168 0.0
H1134 H 0.42759 0.41398 0.95345 0.0
H1135 H 0.36067 0.47134 0.92714 0.0
H1136 H 0.44207 0.37486 0.04478 0.0
H1137 H 0.35072 0.31978 0.06686 0.0
H1138 H 0.45762 0.32242 0.02801 0.0
H1139 H 0.36805 0.26827 0.05013 0.0
H1140 H 0.51211 0.46952 0.07943 0.0
H1141 H 0.45286 0.53162 0.03841 0.0
H1142 H 0.30191 0.37318 0.90511 0.0
H1143 H 0.36358 0.30653 0.92412 0.0
Li1144 Li 0.79768 0.19954 0.09572 0.0
Li1145 Li 0.81723 0.16259 0.05668 0.0
Li1146 Li 0.77783 0.19346 0.03366 0.0
Li1147 Li 0.76112 0.15055 0.06608 0.0
C1148 C 0.84574 0.23811 0.07567 0.0
N1149 N 0.88806 0.29305 0.11624 0.0
C1150 C 0.87401 0.23515 0.09645 0.0
C1151 C 0.83924 0.26905 0.07505 0.0
C1152 C 0.89508 0.26323 0.11686 0.0
C1153 C 0.86087 0.29652 0.09589 0.0
C1154 C 0.79369 0.13811 0.12846 0.0
C1155 C 0.79373 0.09168 0.15859 0.0
N1156 N 0.78065 0.10624 0.18446 0.0
C1157 C 0.78017 0.15254 0.15541 0.0
C1158 C 0.80068 0.10747 0.13025 0.0
C1159 C 0.77385 0.13607 0.18349 0.0
C1160 C 0.79047 0.25457 0.13833 0.0
N1161 N 0.80761 0.23093 0.13574 0.0
C1162 C 0.83474 0.24849 0.19405 0.0
C1163 C 0.83015 0.22813 0.16227 0.0
C1164 C 0.81574 0.27171 0.19839 0.0
C1165 C 0.79411 0.27544 0.16984 0.0
H1166 H 0.77304 0.25631 0.11633 0.0
H1167 H 0.8435 0.20916 0.15905 0.0
C1168 C 0.87168 0.16401 0.0244 0.0
N1169 N 0.85241 0.14609 0.04368 0.0
C1170 C 0.89461 0.15101 1.00834 0.0
C1171 C 0.8772 0.10128 0.03233 0.0
C1172 C 0.85519 0.11558 0.04855 0.0
C1173 C 0.897 0.11886 0.01145 0.0
H1174 H 0.86828 0.18792 0.0204 0.0
H1175 H 0.83917 0.10167 0.06348 0.0
C1176 C 0.72238 0.19387 0.07681 0.0
N1177 N 0.65812 0.1911 0.08568 0.0
C1178 C 0.69774 0.1883 0.04781 0.0
C1179 C 0.71432 0.19819 0.11036 0.0
C1180 C 0.66546 0.18708 0.05285 0.0
C1181 C 0.68167 0.19658 0.11429 0.0
C1182 C 0.77662 0.11385 1.00959 0.0
C1183 C 0.77907 0.1037 0.97501 0.0
C1184 C 0.77349 0.09091 0.03246 0.0
C1185 C 0.77793 0.07068 0.96358 0.0
C1186 C 0.77254 0.05818 0.02018 0.0
N1187 N 0.77472 0.0488 0.98623 0.0
C1188 C 0.75447 0.20206 0.96491 0.0
C1189 C 0.75185 0.24198 0.01232 0.0
C1190 C 0.73733 0.21718 0.94164 0.0
N1191 N 0.76125 0.21478 0.99942 0.0
C1192 C 0.73421 0.2574 0.99023 0.0
C1193 C 0.7266 0.24486 0.95455 0.0
H1194 H 0.76165 0.17987 0.9557 0.0
H1195 H 0.75712 0.25097 0.04005 0.0
C1196 C 0.70551 0.11846 0.09352 0.0
N1197 N 0.72027 0.12106 0.06485 0.0
C1198 C 0.67159 0.10674 0.0896 0.0
C1199 C 0.66939 0.09797 0.02701 0.0
C1200 C 0.70298 0.1108 0.03207 0.0
C1201 C 0.65321 0.09679 0.05594 0.0
H1202 H 0.71934 0.12835 0.11916 0.0
H1203 H 0.71459 0.11514 1.00961 0.0
O1204 O 0.82393 0.21068 0.05706 0.0
O1205 O 0.80149 0.15428 0.10128 0.0
O1206 O 0.75423 0.19525 0.07239 0.0
O1207 O 0.77696 0.14607 0.02063 0.0
H1208 H 0.8793 0.21133 0.09729 0.0
H1209 H 0.8175 0.27176 0.05905 0.0
H1210 H 0.9169 0.26129 0.13331 0.0
H1211 H 0.85602 0.32058 0.09592 0.0
H1212 H 0.79895 0.06795 0.16013 0.0
H1213 H 0.77433 0.17604 0.15465 0.0
H1214 H 0.81148 0.09592 0.11006 0.0
H1215 H 0.76362 0.14697 0.20458 0.0
H1216 H 0.85213 0.24517 0.21529 0.0
H1217 H 0.77927 0.29321 0.17218 0.0
H1218 H 0.90972 0.16575 0.99309 0.0
H1219 H 0.8776 0.07622 0.03502 0.0
H1220 H 0.70336 0.18458 0.02163 0.0
H1221 H 0.73295 0.20245 0.13316 0.0
H1222 H 0.64628 0.18295 0.03065 0.0
H1223 H 0.67506 0.19971 0.14008 0.0
H1224 H 0.78187 0.12147 0.95747 0.0
H1225 H 0.77174 0.09812 0.05938 0.0
H1226 H 0.77954 0.06234 0.93674 0.0
H1227 H 0.77005 0.04026 0.03764 0.0
H1228 H 0.73204 0.20717 0.91409 0.0
H1229 H 0.72691 0.27914 1.00086 0.0
H1230 H 0.65984 0.10695 0.11257 0.0
H1231 H 0.65611 0.09085 1.00061 0.0
Li1232 Li 0.23756 0.62959 0.29079 0.0
Li1233 Li 0.19413 0.61206 0.32208 0.0
Li1234 Li 0.22605 0.57339 0.29957 0.0
Li1235 Li 0.18932 0.59271 0.2599 0.0
C1236 C 0.27359 0.61373 0.34789 0.0
N1237 N 0.3381 0.61444 0.37235 0.0
C1238 C 0.28262 0.60896 0.38196 0.0
C1239 C 0.29736 0.61841 0.32608 0.0
C1240 C 0.3154 0.60954 0.39395 0.0
C1241 C 0.32981 0.61881 0.33891 0.0
C1242 C 0.19386 0.66747 0.27826 0.0
C1243 C 0.19232 0.70743 0.23965 0.0
N1244 N 0.19646 0.7313 0.26772 0.0
C1245 C 0.19797 0.69241 0.30671 0.0
C1246 C 0.1908 0.67499 0.24442 0.0
C1247 C 0.19916 0.72448 0.30081 0.0
C1248 C 0.27068 0.68585 0.2647 0.0
N1249 N 0.26659 0.67089 0.29304 0.0
C1250 C 0.28848 0.72153 0.33162 0.0
C1251 C 0.27541 0.68795 0.32601 0.0
C1252 C 0.29149 0.73792 0.30295 0.0
C1253 C 0.28279 0.71976 0.2691 0.0
H1254 H 0.26192 0.67215 0.2388 0.0
H1255 H 0.26995 0.67606 0.34806 0.0
C1256 C 0.18398 0.63549 0.39015 0.0
N1257 N 0.17172 0.62797 0.35555 0.0
C1258 C 0.16789 0.65216 0.41274 0.0
C1259 C 0.1276 0.65324 0.3633 0.0
C1260 C 0.14408 0.63621 0.34189 0.0
C1261 C 0.13962 0.66156 0.39909 0.0
H1262 H 0.20656 0.62931 0.39995 0.0
H1263 H 0.13553 0.63048 0.31408 0.0
C1264 C 0.25225 0.59848 0.22922 0.0
N1265 N 0.28653 0.61378 0.17547 0.0
C1266 C 0.23807 0.61115 0.20142 0.0
C1267 C 0.28384 0.59336 0.22936 0.0
C1268 C 0.25576 0.61865 0.1745 0.0
C1269 C 0.30084 0.60148 0.20216 0.0
C1270 C 0.15097 0.54353 0.27937 0.0
C1271 C 0.15495 0.5156 0.25879 0.0
C1272 C 0.11954 0.54881 0.27983 0.0
C1273 C 0.12739 0.49361 0.23853 0.0
C1274 C 0.09261 0.52628 0.25913 0.0
N1275 N 0.09707 0.49941 0.23904 0.0
C1276 C 0.22408 0.51822 0.33073 0.0
C1277 C 0.27342 0.53588 0.30853 0.0
C1278 C 0.23671 0.49488 0.34641 0.0
N1279 N 0.2426 0.53822 0.31254 0.0
C1280 C 0.28733 0.51343 0.3244 0.0
C1281 C 0.26906 0.49277 0.34405 0.0
H1282 H 0.19992 0.52127 0.33408 0.0
H1283 H 0.28778 0.55249 0.29448 0.0
C1284 C 0.13429 0.59908 0.21683 0.0
N1285 N 0.15838 0.58251 0.21955 0.0
C1286 C 0.11334 0.59498 0.18531 0.0
C1287 C 0.14121 0.55511 0.16128 0.0
C1288 C 0.16165 0.56015 0.19308 0.0
C1289 C 0.11741 0.57346 0.15685 0.0
H1290 H 0.13218 0.61635 0.23879 0.0
H1291 H 0.18096 0.54723 0.19641 0.0
O1292 O 0.2415 0.61332 0.33609 0.0
O1293 O 0.19266 0.63585 0.28352 0.0
O1294 O 0.23497 0.58965 0.25532 0.0
O1295 O 0.17782 0.56608 0.29811 0.0
H1296 H 0.26419 0.60464 0.39862 0.0
H1297 H 0.29097 0.62159 0.29948 0.0
H1298 H 0.3229 0.60608 0.42036 0.0
H1299 H 0.34837 0.62251 0.32225 0.0
H1300 H 0.19019 0.71362 0.21363 0.0
H1301 H 0.20058 0.68718 0.33311 0.0
H1302 H 0.18755 0.6561 0.22206 0.0
H1303 H 0.20219 0.74391 0.32253 0.0
H1304 H 0.29453 0.73463 0.35813 0.0
H1305 H 0.28396 0.73167 0.24628 0.0
H1306 H 0.17762 0.65811 0.44035 0.0
H1307 H 0.10548 0.65951 0.35207 0.0
H1308 H 0.21378 0.61539 0.20059 0.0
H1309 H 0.29521 0.58311 0.25016 0.0
H1310 H 0.24507 0.62825 0.15276 0.0
H1311 H 0.32533 0.59778 0.20215 0.0
H1312 H 0.17915 0.51125 0.25806 0.0
H1313 H 0.11603 0.57025 0.29568 0.0
H1314 H 0.13012 0.47202 0.22227 0.0
H1315 H 0.06817 0.53015 0.25903 0.0
H1316 H 0.22146 0.47913 0.36071 0.0
H1317 H 0.31256 0.51323 0.32235 0.0
H1318 H 0.09513 0.60934 0.18291 0.0
H1319 H 0.14486 0.53785 0.14011 0.0
Li1320 Li 0.83253 0.9279 0.56887 0.0
Li1321 Li 0.8538 0.88666 0.60006 0.0
Li1322 Li 0.89033 0.92743 0.56818 0.0
Li1323 Li 0.84795 0.88173 0.53236 0.0
C1324 C 0.89417 0.95469 0.63265 0.0
N1325 N 0.94938 0.99226 0.67714 0.0
C1326 C 0.9139 0.93969 0.65344 0.0
C1327 C 0.90264 0.98878 0.63431 0.0
C1328 C 0.94166 0.95912 0.67585 0.0
C1329 C 0.93064 1.00734 0.657 0.0
C1330 C 0.78519 0.86812 0.57658 0.0
C1331 C 0.73584 0.82661 0.57629 0.0
N1332 N 0.72925 0.84519 0.60425 0.0
C1333 C 0.7779 0.88683 0.60525 0.0
C1334 C 0.76401 0.83779 0.56189 0.0
C1335 C 0.74951 0.8748 0.61889 0.0
C1336 C 0.78189 0.95654 0.54309 0.0
N1337 N 0.80476 0.95705 0.57097 0.0
C1338 C 0.79375 1.00518 0.60106 0.0
C1339 C 0.81053 0.98026 0.59989 0.0
C1340 C 0.77063 1.00589 0.5723 0.0
C1341 C 0.76423 0.98082 0.54329 0.0
H1342 H 0.77813 0.93787 0.52035 0.0
H1343 H 0.82876 0.97987 0.62173 0.0
C1344 C 0.84516 0.83598 0.64863 0.0
N1345 N 0.84638 0.86779 0.64458 0.0
C1346 C 0.83806 0.82461 0.67991 0.0
C1347 C 0.83324 0.87848 0.70282 0.0
C1348 C 0.8405 0.88884 0.67122 0.0
C1349 C 0.8319 0.84588 0.70784 0.0
H1350 H 0.84943 0.81911 0.62759 0.0
H1351 H 0.84107 0.91394 0.66793 0.0
C1352 C 0.86657 0.93669 0.49929 0.0
N1353 N 0.88404 0.94908 0.43587 0.0
C1354 C 0.89166 0.92429 0.48678 0.0
C1355 C 0.85062 0.9557 0.47973 0.0
C1356 C 0.90012 0.93081 0.45464 0.0
C1357 C 0.85978 0.96164 0.44768 0.0
C1358 C 0.89937 0.85338 0.55556 0.0
C1359 C 0.92742 0.85874 0.53965 0.0
C1360 C 0.88392 0.82145 0.55907 0.0
C1361 C 0.93947 0.83197 0.52737 0.0
C1362 C 0.89677 0.79533 0.5465 0.0
N1363 N 0.92403 0.80108 0.53101 0.0
C1364 C 0.96145 0.95342 0.57637 0.0
C1365 C 0.92862 0.98674 0.55343 0.0
C1366 C 0.98998 0.97603 0.57257 0.0
N1367 N 0.93142 0.95893 0.56655 0.0
C1368 C 0.95645 1.00968 0.54854 0.0
C1369 C 0.98783 1.00463 0.55819 0.0
H1370 H 0.96329 0.93137 0.58696 0.0
H1371 H 0.90457 0.99105 0.5463 0.0
C1372 C 0.81783 0.87011 0.46089 0.0
N1373 N 0.83759 0.85762 0.48312 0.0
C1374 C 0.81454 0.8613 0.42451 0.0
C1375 C 0.84862 0.82369 0.43385 0.0
C1376 C 0.85236 0.83416 0.47009 0.0
C1377 C 0.83073 0.83831 0.41021 0.0
H1378 H 0.80591 0.88849 0.47133 0.0
H1379 H 0.86787 0.82406 0.48748 0.0
O1380 O 0.86748 0.93597 0.60977 0.0
O1381 O 0.81303 0.87923 0.56304 0.0
O1382 O 0.85689 0.92942 0.52998 0.0
O1383 O 0.88737 0.87928 0.56807 0.0
H1384 H 0.90805 0.91329 0.65202 0.0
H1385 H 0.88798 1.00075 0.61794 0.0
H1386 H 0.95715 0.94784 0.69209 0.0
H1387 H 0.93751 0.03372 0.65854 0.0
H1388 H 0.71923 0.80316 0.56522 0.0
H1389 H 0.79409 0.91032 0.61697 0.0
H1390 H 0.76933 0.82303 0.53967 0.0
H1391 H 0.74362 0.88897 0.64116 0.0
H1392 H 0.799 1.02386 0.62404 0.0
H1393 H 0.74668 0.98071 0.52055 0.0
H1394 H 0.83748 0.79924 0.68212 0.0
H1395 H 0.82864 0.89599 0.72312 0.0
H1396 H 0.90413 0.90944 0.50154 0.0
H1397 H 0.83111 0.96542 0.48905 0.0
H1398 H 0.91939 0.92129 0.44458 0.0
H1399 H 0.84753 0.97613 0.43214 0.0
H1400 H 0.93979 0.88331 0.53687 0.0
H1401 H 0.86198 0.81687 0.5709 0.0
H1402 H 0.96115 0.83574 0.51501 0.0
H1403 H 0.88501 0.77047 0.54894 0.0
H1404 H 1.01349 0.97089 0.58071 0.0
H1405 H 0.95332 0.03108 0.53729 0.0
H1406 H 0.79975 0.87288 0.40779 0.0
H1407 H 0.8603 0.8048 0.42457 0.0
Li1408 Li 1.00509 0.04038 0.32362 0.0
Li1409 Li 0.95947 0.99794 0.28776 0.0
Li1410 Li 1.00008 0.03451 0.25589 0.0
Li1411 Li 0.95886 0.05571 0.28726 0.0
C1412 C 0.03362 0.98913 0.30035 0.0
N1413 N 0.08614 0.96465 0.32463 0.0
C1414 C 1.02844 0.96097 0.3161 0.0
C1415 C 0.06549 1.0048 0.29691 0.0
C1416 C 0.05532 0.94901 0.32824 0.0
C1417 C 0.09172 0.99203 0.30932 0.0
C1418 C 0.95019 1.02123 0.35663 0.0
C1419 C 0.92499 0.02728 0.40814 0.0
N1420 N 0.93786 1.00313 0.41982 0.0
C1421 C 0.9629 0.99626 0.36899 0.0
C1422 C 0.9309 0.03675 0.37621 0.0
C1423 C 0.95641 0.98747 0.40101 0.0
C1424 C 1.01653 0.0704 0.39506 0.0
N1425 N 1.02922 0.05082 0.37284 0.0
C1426 C 0.06343 0.04017 0.42215 0.0
C1427 C 0.0529 0.03632 0.38589 0.0
C1428 C 0.04862 0.05786 0.44577 0.0
C1429 C 1.02538 0.07376 0.43143 0.0
H1430 H 0.99797 0.08209 0.3846 0.0
H1431 H 0.06315 1.02094 0.36852 0.0
C1432 C 0.93413 0.92684 0.27957 0.0
N1433 N 0.9282 0.9567 0.28933 0.0
C1434 C 0.91184 0.8981 0.28336 0.0
C1435 C 0.87758 0.93105 0.30715 0.0
C1436 C 0.90025 0.95912 0.30233 0.0
C1437 C 0.8831 0.89985 0.29763 0.0
H1438 H 0.95626 0.92531 0.26905 0.0
H1439 H 0.89564 0.98304 0.30946 0.0
C1440 C 1.0181 0.1031 0.27906 0.0
N1441 N 0.03999 0.15887 0.25067 0.0
C1442 C 0.9991 0.10978 0.25022 0.0
C1443 C 0.04819 0.1248 0.29355 0.0
C1444 C 1.01061 0.13809 0.23622 0.0
C1445 C 0.05885 0.15286 0.27879 0.0
C1446 C 0.93193 0.99413 0.22348 0.0
C1447 C 0.9468 0.97427 0.20269 0.0
C1448 C 0.89786 0.98575 0.22197 0.0
C1449 C 0.92727 0.94647 0.18042 0.0
C1450 C 0.8792 0.95772 0.1994 0.0
N1451 N 0.89415 0.93884 0.17926 0.0
C1452 C 0.05092 0.04326 0.20761 0.0
C1453 C 0.99796 0.0471 0.18436 0.0
C1454 C 0.0624 0.0501 0.17632 0.0
N1455 N 1.019 0.04174 0.21134 0.0
C1456 C 1.00843 0.05407 0.15272 0.0
C1457 C 0.04115 0.05569 0.14803 0.0
H1458 H 0.06779 0.03944 0.22891 0.0
H1459 H 0.97276 0.04631 0.18739 0.0
C1460 C 0.93075 0.10637 0.3138 0.0
N1461 N 0.92972 0.08354 0.28569 0.0
C1462 C 0.90652 0.12407 0.31433 0.0
C1463 C 0.88114 0.0947 0.25678 0.0
C1464 C 0.90602 0.07787 0.25721 0.0
C1465 C 0.88096 0.11775 0.28583 0.0
H1466 H 0.94977 0.11004 0.33618 0.0
H1467 H 0.906 0.05967 0.23518 0.0
O1468 O 1.0076 1.001 0.28791 0.0
O1469 O 0.95745 0.03125 0.32606 0.0
O1470 O 1.00753 0.07532 0.29292 0.0
O1471 O 0.95076 1.02087 0.24624 0.0
H1472 H 1.00393 0.94842 0.31887 0.0
H1473 H 0.06995 0.02686 0.28527 0.0
H1474 H 0.05168 0.92724 0.34048 0.0
H1475 H 0.11653 1.00396 0.30691 0.0
H1476 H 0.91028 0.03919 0.4237 0.0
H1477 H 0.97798 0.98413 0.35421 0.0
H1478 H 0.92095 0.05618 0.36701 0.0
H1479 H 0.96618 0.96829 0.41098 0.0
H1480 H 0.0825 0.02872 0.43144 0.0
H1481 H 1.01364 0.08839 0.44814 0.0
H1482 H 0.91734 0.87474 0.27531 0.0
H1483 H 0.85603 0.93386 0.31827 0.0
H1484 H 0.9758 0.09317 0.23864 0.0
H1485 H 0.06318 0.11994 0.31589 0.0
H1486 H 0.9962 0.14352 0.21382 0.0
H1487 H 0.08211 0.16987 0.28969 0.0
H1488 H 0.97319 0.98005 0.20401 0.0
H1489 H 0.886 1.0005 0.23836 0.0
H1490 H 0.93844 0.93088 0.16417 0.0
H1491 H 0.85283 0.95092 0.19798 0.0
H1492 H 0.08787 0.05094 0.1744 0.0
H1493 H 0.99091 0.05823 0.13212 0.0
H1494 H 0.90705 0.14155 0.33728 0.0
H1495 H 0.86206 0.08951 0.23417 0.0
Li1496 Li 0.29756 0.69846 0.59392 0.0
Li1497 Li 0.31708 0.66078 0.55564 0.0
Li1498 Li 0.27835 0.69181 0.53152 0.0
Li1499 Li 0.26086 0.64949 0.56489 0.0
C1500 C 0.34577 0.73646 0.57393 0.0
N1501 N 0.38715 0.79185 0.61472 0.0
C1502 C 0.37371 0.73386 0.59557 0.0
C1503 C 0.33915 0.76726 0.57255 0.0
C1504 C 0.39428 0.76216 0.6161 0.0
C1505 C 0.3603 0.79496 0.5935 0.0
C1506 C 0.29296 0.63707 0.62727 0.0
C1507 C 0.29217 0.59031 0.65699 0.0
N1508 N 0.2791 0.6049 0.68284 0.0
C1509 C 0.2795 0.65159 0.65422 0.0
C1510 C 0.29954 0.60625 0.62887 0.0
C1511 C 0.27275 0.63495 0.68208 0.0
C1512 C 0.2908 0.75415 0.63589 0.0
N1513 N 0.30753 0.73016 0.6337 0.0
C1514 C 0.33504 0.7484 0.69182 0.0
C1515 C 0.32998 0.72743 0.66037 0.0
C1516 C 0.31653 0.77209 0.69575 0.0
C1517 C 0.2949 0.77561 0.66707 0.0
H1518 H 0.27342 0.7558 0.61381 0.0
H1519 H 0.343 0.70816 0.65748 0.0
C1520 C 0.37189 0.66224 0.52424 0.0
N1521 N 0.35221 0.64402 0.54296 0.0
C1522 C 0.3949 0.64936 0.50826 0.0
C1523 C 0.37682 0.59914 0.53119 0.0
C1524 C 0.35467 0.61331 0.54734 0.0
C1525 C 0.39701 0.61705 0.51087 0.0
H1526 H 0.36876 0.68632 0.52059 0.0
H1527 H 0.33834 0.59917 0.56182 0.0
C1528 C 0.22235 0.69337 0.57356 0.0
N1529 N 0.15789 0.6917 0.58071 0.0
C1530 C 0.19823 0.68755 0.54404 0.0
C1531 C 0.21365 0.69837 0.60675 0.0
C1532 C 0.16584 0.68694 0.5482 0.0
C1533 C 0.18091 0.69732 0.60981 0.0
C1534 C 0.27627 0.61204 0.50828 0.0
C1535 C 0.27889 0.60216 0.4737 0.0
C1536 C 0.27268 0.58885 0.53084 0.0
C1537 C 0.27754 0.56916 0.46194 0.0
C1538 C 0.27154 0.55614 0.51826 0.0
N1539 N 0.27394 0.54703 0.48431 0.0
C1540 C 0.25775 0.69981 0.46174 0.0
C1541 C 0.25216 0.73941 0.50795 0.0
C1542 C 0.241 0.71425 0.43739 0.0
N1543 N 0.26272 0.71259 0.49618 0.0
C1544 C 0.23469 0.754 0.48477 0.0
C1545 C 0.22865 0.74114 0.44919 0.0
H1546 H 0.26599 0.67804 0.45338 0.0
H1547 H 0.25621 0.74861 0.5356 0.0
C1548 C 0.20484 0.61878 0.59288 0.0
N1549 N 0.21981 0.62045 0.56424 0.0
C1550 C 0.17083 0.60763 0.58889 0.0
C1551 C 0.16893 0.59759 0.52641 0.0
C1552 C 0.20261 0.60972 0.5315 0.0
C1553 C 0.15253 0.5975 0.55521 0.0
H1554 H 0.21861 0.62902 0.61847 0.0
H1555 H 0.2144 0.61326 0.50901 0.0
O1556 O 0.32428 0.7088 0.55537 0.0
O1557 O 0.30109 0.65334 0.60027 0.0
O1558 O 0.25433 0.69441 0.56998 0.0
O1559 O 0.27684 0.64424 0.51961 0.0
H1560 H 0.37907 0.71015 0.59701 0.0
H1561 H 0.31762 0.76966 0.55593 0.0
H1562 H 0.41582 0.7605 0.63323 0.0
H1563 H 0.35535 0.81893 0.59294 0.0
H1564 H 0.29705 0.56641 0.65838 0.0
H1565 H 0.27397 0.67526 0.65357 0.0
H1566 H 0.31035 0.59469 0.60869 0.0
H1567 H 0.2625 0.64586 0.70316 0.0
H1568 H 0.35237 0.74517 0.71317 0.0
H1569 H 0.28035 0.79368 0.66911 0.0
H1570 H 0.41034 0.66433 0.49346 0.0
H1571 H 0.37705 0.57396 0.53348 0.0
H1572 H 0.20433 0.68321 0.51814 0.0
H1573 H 0.23189 0.70272 0.62993 0.0
H1574 H 0.14708 0.68271 0.52556 0.0
H1575 H 0.1738 0.70099 0.63531 0.0
H1576 H 0.28197 0.62012 0.45641 0.0
H1577 H 0.27071 0.5959 0.55775 0.0
H1578 H 0.2793 0.56106 0.43509 0.0
H1579 H 0.26872 0.53801 0.53547 0.0
H1580 H 0.23703 0.70417 0.4099 0.0
H1581 H 0.22609 0.77521 0.4945 0.0
H1582 H 0.15895 0.60849 0.61177 0.0
H1583 H 0.15581 0.59008 0.5 0.0
Li1584 Li 0.4593 0.49937 0.7856 0.0
Li1585 Li 0.50513 0.54091 0.82251 0.0
Li1586 Li 0.45966 0.55747 0.78616 0.0
Li1587 Li 0.50094 0.53607 0.75505 0.0
C1588 C 0.45002 0.52241 0.85503 0.0
N1589 N 0.43749 0.50451 0.91824 0.0
C1590 C 0.46185 0.49681 0.86706 0.0
C1591 C 0.4315 0.53866 0.87496 0.0
C1592 C 0.45528 0.48815 0.89911 0.0
C1593 C 0.42547 0.52928 0.9069 0.0
C1594 C 0.53233 0.48858 0.79889 0.0
C1595 C 0.58992 0.48921 0.80915 0.0
N1596 N 0.58276 0.46167 0.824 0.0
C1597 C 0.52551 0.46014 0.81402 0.0
C1598 C 0.56475 0.50319 0.79629 0.0
C1599 C 0.55137 0.44697 0.82666 0.0
C1600 C 0.43215 0.42874 0.77185 0.0
N1601 N 0.42742 0.4582 0.78541 0.0
C1602 C 0.37775 0.4313 0.80412 0.0
C1603 C 0.40032 0.45989 0.80042 0.0
C1604 C 0.38227 0.40046 0.79103 0.0
C1605 C 0.40971 0.39959 0.77406 0.0
H1606 H 0.45355 0.42785 0.75967 0.0
H1607 H 0.39644 0.48355 0.81025 0.0
C1608 C 0.5168 0.57032 0.8943 0.0
N1609 N 0.52897 0.55041 0.87188 0.0
C1610 C 0.52556 0.57328 0.93065 0.0
C1611 C 0.56246 0.53848 0.92097 0.0
C1612 C 0.55203 0.53509 0.88475 0.0
C1613 C 0.54819 0.5566 0.94477 0.0
H1614 H 0.49875 0.58267 0.88401 0.0
H1615 H 0.56185 0.51942 0.86724 0.0
C1616 C 0.43314 0.49693 0.72099 0.0
N1617 N 0.39591 0.44279 0.67467 0.0
C1618 C 0.44841 0.47733 0.70036 0.0
C1619 C 0.39896 0.4888 0.71831 0.0
C1620 C 0.42914 0.45012 0.67703 0.0
C1621 C 0.38057 0.46138 0.69466 0.0
C1622 C 0.5199 0.60446 0.77934 0.0
C1623 C 0.50135 0.6122 0.75083 0.0
C1624 C 0.55037 0.62529 0.79415 0.0
C1625 C 0.51369 0.64069 0.7375 0.0
C1626 C 0.56186 0.65357 0.78007 0.0
N1627 N 0.54343 0.66062 0.75227 0.0
C1628 C 0.43098 0.60776 0.81291 0.0
C1629 C 0.40744 0.58009 0.7557 0.0
C1630 C 0.40647 0.62512 0.81327 0.0
N1631 N 0.43066 0.58547 0.78457 0.0
C1632 C 0.38227 0.59654 0.7551 0.0
C1633 C 0.38133 0.61896 0.78436 0.0
H1634 H 0.44962 0.6112 0.8356 0.0
H1635 H 0.40797 0.56233 0.73349 0.0
C1636 C 0.552 0.54321 0.70696 0.0
N1637 N 0.52045 0.54332 0.71098 0.0
C1638 C 0.56369 0.5497 0.67567 0.0
C1639 C 0.51064 0.55662 0.65275 0.0
C1640 C 0.49998 0.55 0.68436 0.0
C1641 C 0.54297 0.55655 0.64772 0.0
H1642 H 0.56838 0.53821 0.72798 0.0
H1643 H 0.47507 0.5504 0.68763 0.0
O1644 O 0.45735 0.53225 0.82441 0.0
O1645 O 0.50736 0.50179 0.78626 0.0
O1646 O 0.45168 0.52314 0.74467 0.0
O1647 O 0.50849 0.57652 0.7926 0.0
H1648 H 0.47631 0.4841 0.85201 0.0
H1649 H 0.42221 0.55857 0.86602 0.0
H1650 H 0.46439 0.46849 0.90881 0.0
H1651 H 0.41136 0.54176 0.92273 0.0
H1652 H 0.61514 0.50033 0.80746 0.0
H1653 H 0.50053 0.4483 0.81592 0.0
H1654 H 0.57045 0.52537 0.78498 0.0
H1655 H 0.54648 0.42503 0.83851 0.0
H1656 H 0.35739 0.43344 0.81767 0.0
H1657 H 0.41439 0.37651 0.76324 0.0
H1658 H 0.51427 0.58825 0.94751 0.0
H1659 H 0.58105 0.52639 0.93009 0.0
H1660 H 0.47487 0.48283 0.70261 0.0
H1661 H 0.38677 0.50328 0.73458 0.0
H1662 H 0.44063 0.43475 0.6609 0.0
H1663 H 0.35411 0.45485 0.69222 0.0
H1664 H 0.47777 0.59628 0.73902 0.0
H1665 H 0.56501 0.61961 0.81625 0.0
H1666 H 0.49964 0.64694 0.71538 0.0
H1667 H 0.5854 0.66993 0.79125 0.0
H1668 H 0.40641 0.64215 0.83637 0.0
H1669 H 0.36355 0.59153 0.73218 0.0
H1670 H 0.58881 0.54917 0.67342 0.0
H1671 H 0.49355 0.56176 0.6324 0.0
Li1672 Li 0.69224 0.10972 0.82536 0.0
Li1673 Li 0.73452 0.12704 0.7923 0.0
Li1674 Li 0.6859 0.09023 0.76299 0.0
Li1675 Li 0.72357 0.07094 0.80167 0.0
C1676 C 0.69096 0.16525 0.78207 0.0
N1677 N 0.69438 0.22951 0.77275 0.0
C1678 C 0.69616 0.19 0.81093 0.0
C1679 C 0.68723 0.1732 0.74843 0.0
C1680 C 0.69774 0.22229 0.80566 0.0
C1681 C 0.68917 0.20585 0.74428 0.0
C1682 C 0.77211 0.11174 0.84871 0.0
C1683 C 0.82797 0.11698 0.83838 0.0
N1684 N 0.83711 0.11334 0.87191 0.0
C1685 C 0.782 0.10772 0.88285 0.0
C1686 C 0.79527 0.11614 0.82618 0.0
C1687 C 0.81501 0.10875 0.89421 0.0
C1688 C 0.68415 0.13176 0.89476 0.0
N1689 N 0.6712 0.12573 0.86031 0.0
C1690 C 0.62896 0.15292 0.87085 0.0
C1691 C 0.64401 0.13549 0.84812 0.0
C1692 C 0.64183 0.15988 0.90646 0.0
C1693 C 0.66936 0.14861 0.91867 0.0
H1694 H 0.70628 0.12427 0.90344 0.0
H1695 H 0.63478 0.13077 0.82044 0.0
C1696 C 0.76629 0.18271 0.76444 0.0
N1697 N 0.76341 0.1681 0.79318 0.0
C1698 C 0.77806 0.21662 0.76824 0.0
C1699 C 0.78601 0.21909 0.83087 0.0
C1700 C 0.77325 0.18551 0.82591 0.0
C1701 C 0.78773 0.23514 0.80186 0.0
H1702 H 0.75675 0.16875 0.73879 0.0
H1703 H 0.76875 0.1739 0.84836 0.0
C1704 C 0.64802 0.04189 0.7829 0.0
N1705 N 0.59315 0.99992 0.74182 0.0
C1706 C 0.65098 1.01371 0.76193 0.0
C1707 C 0.61712 0.04847 0.78344 0.0
C1708 C 0.62294 0.99283 0.74127 0.0
C1709 C 0.58968 0.02702 0.76234 0.0
C1710 C 0.74787 0.09499 0.73031 0.0
C1711 C 0.73347 0.10772 0.70267 0.0
C1712 C 0.77903 0.08896 0.7296 0.0
C1713 C 0.75052 0.11428 0.67505 0.0
C1714 C 0.79538 0.09617 0.70172 0.0
N1715 N 0.78087 0.10849 0.67519 0.0
C1716 C 0.63082 0.09707 0.71981 0.0
C1717 C 0.65765 0.0574 0.69665 0.0
C1718 C 0.61014 0.09307 0.6881 0.0
N1719 N 0.65455 0.08007 0.72289 0.0
C1720 C 0.63747 0.05244 0.66471 0.0
C1721 C 0.61416 0.07126 0.65986 0.0
H1722 H 0.62886 0.11465 0.74157 0.0
H1723 H 0.67671 0.04421 0.70022 0.0
C1724 C 0.72258 1.01608 0.83316 0.0
N1725 N 0.74062 0.03594 0.81447 0.0
C1726 C 0.73562 0.99298 0.84885 0.0
C1727 C 0.78569 1.01151 0.82587 0.0
C1728 C 0.77137 0.03371 0.81001 0.0
C1729 C 0.76793 0.99101 0.84602 0.0
H1730 H 0.69852 1.01911 0.83696 0.0
H1731 H 0.78541 0.05023 0.79567 0.0
O1732 O 0.68955 0.13345 0.78673 0.0
O1733 O 0.73985 0.1112 0.83767 0.0
O1734 O 0.67544 0.06361 0.80165 0.0
O1735 O 0.73113 0.08688 0.75702 0.0
H1736 H 0.69944 0.18446 0.83717 0.0
H1737 H 0.68332 0.15448 0.72576 0.0
H1738 H 0.70167 0.24157 0.82775 0.0
H1739 H 0.68657 0.21238 0.71843 0.0
H1740 H 0.84606 0.12048 0.82117 0.0
H1741 H 0.76404 0.1037 0.90007 0.0
H1742 H 0.78822 0.11884 0.79953 0.0
H1743 H 0.82316 0.10593 0.92069 0.0
H1744 H 0.60732 0.16065 0.86076 0.0
H1745 H 0.6796 0.15338 0.94615 0.0
H1746 H 0.77831 0.22825 0.74518 0.0
H1747 H 0.79293 0.23241 0.85722 0.0
H1748 H 0.67478 1.00838 0.76114 0.0
H1749 H 0.61442 0.07018 0.79953 0.0
H1750 H 0.62489 0.97109 0.72467 0.0
H1751 H 0.56565 0.03195 0.76224 0.0
H1752 H 0.70955 0.11277 0.70254 0.0
H1753 H 0.79056 0.0787 0.75027 0.0
H1754 H 0.73967 0.12388 0.65343 0.0
H1755 H 0.81954 0.09173 0.70105 0.0
H1756 H 0.59231 0.10782 0.68535 0.0
H1757 H 0.64103 0.03493 0.64372 0.0
H1758 H 0.72076 0.97736 0.86358 0.0
H1759 H 0.81088 1.01145 0.82347 0.0
Li1760 Li 0.79629 0.74363 0.07597 0.0
Li1761 Li 0.82072 0.704 0.04157 0.0
Li1762 Li 0.793 0.74068 1.00628 0.0
Li1763 Li 0.76157 0.69787 0.03591 0.0
C1764 C 0.84908 0.7853 0.05653 0.0
N1765 N 0.88198 0.85042 0.07719 0.0
C1766 C 0.87987 0.79358 0.07773 0.0
C1767 C 0.83496 0.81012 0.04604 0.0
C1768 C 0.89614 0.82666 0.08781 0.0
C1769 C 0.85199 0.8429 0.05673 0.0
C1770 C 0.81198 0.68909 0.10479 0.0
C1771 C 0.82415 0.65135 0.14305 0.0
N1772 N 0.85293 0.67313 0.1574 0.0
C1773 C 0.84172 0.71112 0.12004 0.0
C1774 C 0.80332 0.65878 0.11621 0.0
C1775 C 0.86212 0.70252 0.14644 0.0
C1776 C 0.78422 0.74587 0.14569 0.0
N1777 N 0.79913 0.76622 0.12501 0.0
C1778 C 0.8203 0.80817 0.17565 0.0
C1779 C 0.81649 0.79731 0.13935 0.0
C1780 C 0.80723 0.78653 0.19763 0.0
C1781 C 0.78867 0.75516 0.182 0.0
H1782 H 0.76973 0.7216 0.13414 0.0
H1783 H 0.82824 0.81344 0.12299 0.0
C1784 C 0.88754 0.70624 0.04533 0.0
N1785 N 0.85818 0.68555 0.04591 0.0
C1786 C 0.91674 0.69828 0.05768 0.0
C1787 C 0.88509 0.64675 0.06874 0.0
C1788 C 0.85641 0.65561 0.05584 0.0
C1789 C 0.91574 0.66883 0.07107 0.0
H1790 H 0.88826 0.72979 0.03712 0.0
H1791 H 0.83272 0.63964 0.05614 0.0
C1792 C 0.72638 0.74296 0.03476 0.0
N1793 N 0.65954 0.73767 0.02759 0.0
C1794 C 0.7088 0.74478 1.00263 0.0
C1795 C 0.71007 0.73869 0.06331 0.0
C1796 C 0.67499 0.74204 0.99954 0.0
C1797 C 0.67623 0.73594 0.05911 0.0
C1798 C 0.76749 0.66556 0.97655 0.0
C1799 C 0.74834 0.66965 0.94637 0.0
C1800 C 0.76462 0.63427 0.98561 0.0
C1801 C 0.72642 0.64224 0.92575 0.0
C1802 C 0.74232 0.6075 0.96437 0.0
N1803 N 0.72385 0.61201 0.93514 0.0
C1804 C 0.81439 0.74398 0.93953 0.0
C1805 C 0.78741 0.78616 0.95256 0.0
C1806 C 0.81958 0.75386 0.90719 0.0
N1807 N 0.79849 0.75997 0.96177 0.0
C1808 C 0.79239 0.79705 0.92047 0.0
C1809 C 0.80859 0.7808 0.89694 0.0
H1810 H 0.82313 0.72322 0.94685 0.0
H1811 H 0.77462 0.79873 0.96999 0.0
C1812 C 0.71697 0.65169 0.06341 0.0
N1813 N 0.7194 0.66629 0.03452 0.0
C1814 C 0.68821 0.62923 0.06644 0.0
C1815 C 0.66351 0.63835 1.01074 0.0
C1816 C 0.69326 0.65999 1.00829 0.0
C1817 C 0.66084 0.6225 0.04008 0.0
H1818 H 0.7371 0.65821 0.08475 0.0
H1819 H 0.69517 0.67225 0.98581 0.0
O1820 O 0.83274 0.75308 0.04625 0.0
O1821 O 0.79277 0.6961 0.07712 0.0
O1822 O 0.75949 0.74573 0.03831 0.0
O1823 O 0.78864 0.69213 0.99741 0.0
H1824 H 0.89111 0.77472 0.08633 0.0
H1825 H 0.811 0.80412 0.03 0.0
H1826 H 0.92002 0.83348 0.10405 0.0
H1827 H 0.84135 0.86236 0.0488 0.0
H1828 H 0.81768 0.62801 0.1521 0.0
H1829 H 0.84932 0.73425 0.11096 0.0
H1830 H 0.78121 0.64069 0.10403 0.0
H1831 H 0.8855 0.71892 0.15789 0.0
H1832 H 0.83468 0.83271 0.18661 0.0
H1833 H 0.77758 0.7379 0.19777 0.0
H1834 H 0.93983 0.71566 0.05804 0.0
H1835 H 0.88308 0.62383 0.07879 0.0
H1836 H 0.72114 0.74818 0.98033 0.0
H1837 H 0.72338 0.73732 0.08838 0.0
H1838 H 0.66102 0.74339 0.97485 0.0
H1839 H 0.66323 0.73251 0.08092 0.0
H1840 H 0.75017 0.69376 0.93911 0.0
H1841 H 0.77918 0.6308 1.00902 0.0
H1842 H 0.71133 0.64502 0.90238 0.0
H1843 H 0.73965 0.58316 0.97116 0.0
H1844 H 0.83254 0.74063 0.89054 0.0
H1845 H 0.78336 0.81797 0.91405 0.0
H1846 H 0.68697 0.61833 0.08995 0.0
H1847 H 0.6428 0.63412 0.98997 0.0
Li1848 Li 0.91936 0.52205 0.82914 0.0
Li1849 Li 0.97112 0.55736 0.85675 0.0
Li1850 Li 0.93349 0.57764 0.81711 0.0
Li1851 Li 0.96138 0.5365 0.7965 0.0
C1852 C 0.90442 0.55316 0.88348 0.0
N1853 N 0.85897 0.5297 0.9246 0.0
C1854 C 0.91488 0.54786 0.91712 0.0
C1855 C 0.87083 0.54667 0.87082 0.0
C1856 C 0.89152 0.53599 0.93751 0.0
C1857 C 0.84825 0.53472 0.89196 0.0
C1858 C 0.97655 0.48707 0.82383 0.0
C1859 C 1.02458 0.46904 0.81031 0.0
N1860 N 1.00575 0.43806 0.79918 0.0
C1861 C 0.95769 0.455 0.81195 0.0
C1862 C 1.01031 0.49408 0.82282 0.0
C1863 C 0.97291 0.43061 0.79977 0.0
C1864 C 0.86336 0.47151 0.80592 0.0
N1865 N 0.8878 0.48489 0.83329 0.0
C1866 C 0.88067 0.43447 0.85563 0.0
C1867 C 0.89582 0.46768 0.85876 0.0
C1868 C 0.85687 0.41963 0.82644 0.0
C1869 C 0.84699 0.4386 0.80226 0.0
H1870 H 0.85828 0.48566 0.78572 0.0
H1871 H 0.91609 0.47891 0.8796 0.0
C1872 C 1.00369 0.59418 0.92215 0.0
N1873 N 1.00115 0.56685 0.89861 0.0
C1874 C 1.02244 0.5982 0.95507 0.0
C1875 C 0.03633 0.54653 0.93818 0.0
C1876 C 1.01706 0.54335 0.90598 0.0
C1877 C 0.03839 0.57374 0.96342 0.0
H1878 H 0.98982 0.61192 0.91601 0.0
H1879 H 1.01335 0.52113 0.88781 0.0
C1880 C 0.90711 0.54534 0.75186 0.0
N1881 N 0.89143 0.56692 0.68955 0.0
C1882 C 0.93169 0.56403 0.73696 0.0
C1883 C 0.87451 0.53798 0.73516 0.0
C1884 C 0.92328 0.57455 0.70538 0.0
C1885 C 0.86709 0.54906 0.70369 0.0
C1886 C 1.00913 0.60515 0.83582 0.0
C1887 C 1.00599 0.63492 0.85345 0.0
C1888 C 0.04016 0.59845 0.83737 0.0
C1889 C 0.03398 0.65762 0.87197 0.0
C1890 C 0.06755 0.62177 0.85619 0.0
N1891 N 0.06392 0.65064 0.87293 0.0
C1892 C 0.93714 0.63623 0.78988 0.0
C1893 C 0.88391 0.60984 0.79842 0.0
C1894 C 0.92447 0.65804 0.77158 0.0
N1895 N 0.91681 0.61259 0.80255 0.0
C1896 C 0.87012 0.63101 0.78006 0.0
C1897 C 0.89043 0.65517 0.76577 0.0
H1898 H 0.96298 0.63698 0.79223 0.0
H1899 H 0.86818 0.58995 0.80744 0.0
C1900 C 0.95819 0.48777 0.74209 0.0
N1901 N 0.97756 0.51694 0.75927 0.0
C1902 C 0.97008 0.46851 0.71773 0.0
C1903 C 1.02116 0.51032 0.7287 0.0
C1904 C 1.00834 0.52875 0.75288 0.0
C1905 C 1.00186 0.47997 0.71095 0.0
H1906 H 0.93382 0.47915 0.7481 0.0
H1907 H 1.02303 0.55201 0.76702 0.0
O1908 O 0.92692 0.56468 0.86308 0.0
O1909 O 0.96207 0.51153 0.83576 0.0
O1910 O 0.91432 0.53639 0.78383 0.0
O1911 O 0.98198 0.58259 0.81749 0.0
H1912 H 0.94076 0.55285 0.92739 0.0
H1913 H 0.86229 0.55028 0.84473 0.0
H1914 H 0.89924 0.53179 0.96361 0.0
H1915 H 0.82219 0.52937 0.88239 0.0
H1916 H 0.0506 0.47428 0.80927 0.0
H1917 H 0.93149 0.44896 0.81129 0.0
H1918 H 1.02532 0.51878 0.83106 0.0
H1919 H 0.95858 0.40579 0.79055 0.0
H1920 H 0.88814 0.42032 0.87505 0.0
H1921 H 0.82823 0.42761 0.77981 0.0
H1922 H 1.02326 0.61934 0.97425 0.0
H1923 H 0.04757 0.52676 0.94403 0.0
H1924 H 0.95692 0.571 0.74988 0.0
H1925 H 0.85503 0.52421 0.74659 0.0
H1926 H 0.94205 0.58897 0.69357 0.0
H1927 H 0.84196 0.54347 0.69051 0.0
H1928 H 0.98214 0.64026 0.8534 0.0
H1929 H 0.04316 0.57545 0.8244 0.0
H1930 H 1.03186 0.68071 0.88577 0.0
H1931 H 0.09168 0.6169 0.8575 0.0
H1932 H 0.9411 0.67625 0.76118 0.0
H1933 H 0.84368 0.62729 0.7756 0.0
H1934 H 0.95446 0.44544 0.70388 0.0
H1935 H 0.04578 0.51955 0.72368 0.0
Li1936 Li 0.8572 0.42209 0.55874 0.0
Li1937 Li 0.81414 0.45012 0.54422 0.0
Li1938 Li 0.83312 0.41402 0.5005 0.0
Li1939 Li 0.86921 0.46539 0.52818 0.0
C1940 C 0.78763 0.37473 0.52225 0.0
N1941 N 0.74188 0.32064 0.48409 0.0
C1942 C 0.75844 0.37851 0.50393 0.0
C1943 C 0.79365 0.34341 0.52081 0.0
C1944 C 0.73559 0.35088 0.4849 0.0
C1945 C 0.77019 0.31639 0.50148 0.0
C1946 C 0.86228 0.47091 0.60991 0.0
C1947 C 0.89829 0.48828 0.66524 0.0
N1948 N 0.87463 0.4714 0.681 0.0
C1949 C 0.83817 0.45399 0.6267 0.0
C1950 C 0.89246 0.48852 0.6294 0.0
C1951 C 0.84491 0.45453 0.66266 0.0
C1952 C 0.90938 0.41846 0.60786 0.0
N1953 N 0.87756 0.40374 0.59404 0.0
C1954 C 0.87809 0.36029 0.62666 0.0
C1955 C 0.86163 0.3753 0.603 0.0
C1956 C 0.91076 0.37517 0.64153 0.0
C1957 C 0.9267 0.40432 0.63166 0.0
H1958 H 0.92142 0.44103 0.6 0.0
H1959 H 0.8363 0.36438 0.59179 0.0
C1960 C 0.75343 0.4459 0.56865 0.0
N1961 N 0.78007 0.46677 0.56126 0.0
C1962 C 0.73029 0.45812 0.58516 0.0
C1963 C 0.76248 0.51316 0.58638 0.0
C1964 C 0.785 0.49983 0.56979 0.0
C1965 C 0.73475 0.49219 0.59455 0.0
H1966 H 0.7507 0.41973 0.56285 0.0
H1967 H 0.80706 0.51582 0.56486 0.0
C1968 C 0.90465 0.40755 0.52715 0.0
N1969 N 0.95396 0.37649 0.54613 0.0
C1970 C 0.93758 0.42511 0.53445 0.0
C1971 C 0.89703 0.37408 0.52981 0.0
C1972 C 0.96207 0.40899 0.54387 0.0
C1973 C 0.92222 0.35887 0.53938 0.0
C1974 C 0.83458 0.48152 0.47709 0.0
C1975 C 0.84176 0.47215 0.44399 0.0
C1976 C 0.83804 0.51477 0.48955 0.0
C1977 C 0.85243 0.49625 0.42393 0.0
C1978 C 0.84891 0.53814 0.46877 0.0
N1979 N 0.8558 0.52847 0.43666 0.0
C1980 C 0.79499 0.38467 0.43402 0.0
C1981 C 0.84371 0.36748 0.44998 0.0
C1982 C 0.7905 0.36655 0.40065 0.0
N1983 N 0.82159 0.38506 0.45768 0.0
C1984 C 0.84013 0.34897 0.41737 0.0
C1985 C 0.8138 0.34909 0.39201 0.0
H1986 H 0.77828 0.39968 0.44047 0.0
H1987 H 0.86531 0.36925 0.46824 0.0
C1988 C 0.9159 0.5245 0.54908 0.0
N1989 N 0.90391 0.49878 0.52274 0.0
C1990 C 0.94839 0.54207 0.55273 0.0
C1991 C 0.95426 0.50778 0.50053 0.0
C1992 C 0.92148 0.49137 0.49744 0.0
C1993 C 0.96811 0.53226 0.52937 0.0
H1994 H 0.90107 0.52962 0.56865 0.0
H1995 H 0.91117 0.47037 0.47717 0.0
O1996 O 0.8103 0.40156 0.54106 0.0
O1997 O 0.85689 0.46895 0.57441 0.0
O1998 O 0.8801 0.423 0.51793 0.0
O1999 O 0.82479 0.45833 0.49742 0.0
H2000 H 0.75373 0.40261 0.50378 0.0
H2001 H 0.81619 0.33988 0.53431 0.0
H2002 H 0.71296 0.35351 0.47056 0.0
H2003 H 0.77452 0.29204 0.50028 0.0
H2004 H 0.92167 0.5015 0.68047 0.0
H2005 H 0.81483 0.43989 0.612 0.0
H2006 H 0.91158 0.50146 0.61691 0.0
H2007 H 0.82661 0.44128 0.67593 0.0
H2008 H 0.86543 0.33766 0.63388 0.0
H2009 H 0.95176 0.41654 0.64303 0.0
H2010 H 0.70939 0.44098 0.59091 0.0
H2011 H 0.7674 0.53954 0.59383 0.0
H2012 H 0.94435 0.45106 0.53384 0.0
H2013 H 0.87181 0.36007 0.5252 0.0
H2014 H 0.98754 0.42239 0.54958 0.0
H2015 H 0.9165 0.3331 0.54168 0.0
H2016 H 0.83929 0.44656 0.43396 0.0
H2017 H 0.83289 0.52251 0.5152 0.0
H2018 H 0.8581 0.48938 0.39828 0.0
H2019 H 0.85195 0.56397 0.47821 0.0
H2020 H 0.77001 0.36738 0.38141 0.0
H2021 H 0.85904 0.3365 0.41146 0.0
H2022 H 0.95857 0.56156 0.57472 0.0
H2023 H 0.96896 0.5005 0.48161 0.0
Li2024 Li 0.64608 0.59378 0.34851 0.0
Li2025 Li 0.68882 0.62534 0.31896 0.0
Li2026 Li 0.64321 0.59058 0.27886 0.0
Li2027 Li 0.68285 0.56627 0.31337 0.0
C2028 C 0.64383 0.66046 0.31992 0.0
N2029 N 0.64952 0.72737 0.3268 0.0
C2030 C 0.64209 0.67821 0.35197 0.0
C2031 C 0.64822 0.67664 0.29128 0.0
C2032 C 0.64501 0.71206 0.35492 0.0
C2033 C 0.65118 0.71052 0.29535 0.0
C2034 C 0.72109 0.6195 0.37845 0.0
C2035 C 0.7791 0.64485 0.39083 0.0
N2036 N 0.77447 0.66316 0.42011 0.0
C2037 C 0.71688 0.63848 0.40868 0.0
C2038 C 0.75242 0.62255 0.36946 0.0
C2039 C 0.7442 0.66042 0.42942 0.0
C2040 C 0.64268 0.57137 0.41459 0.0
N2041 N 0.6269 0.58793 0.39295 0.0
C2042 C 0.59043 0.5941 0.43489 0.0
C2043 C 0.60108 0.59935 0.40276 0.0
C2044 C 0.60654 0.57728 0.45785 0.0
C2045 C 0.63302 0.56587 0.44693 0.0
H2046 H 0.66312 0.56235 0.40678 0.0
H2047 H 0.58867 0.61263 0.38578 0.0
C2048 C 0.73474 0.66993 0.2913 0.0
N2049 N 0.72035 0.66749 0.32031 0.0
C2050 C 0.75723 0.69865 0.28823 0.0
C2051 C 0.74853 0.72329 0.34414 0.0
C2052 C 0.72685 0.69358 0.34662 0.0
C2053 C 0.76419 0.72596 0.31468 0.0
H2054 H 0.72805 0.64985 0.2699 0.0
H2055 H 0.71473 0.69166 0.36919 0.0
C2056 C 0.60158 0.53776 0.29833 0.0
N2057 N 0.53644 0.50495 0.27778 0.0
C2058 C 0.59323 0.50696 0.27715 0.0
C2059 C 0.57682 0.55193 0.30889 0.0
C2060 C 0.56014 0.49074 0.2671 0.0
C2061 C 0.54402 0.53494 0.29825 0.0
C2062 C 0.69776 0.57498 0.25013 0.0
C2063 C 0.67583 0.54516 0.23497 0.0
C2064 C 0.72802 0.58375 0.23863 0.0
C2065 C 0.68446 0.52477 0.20858 0.0
C2066 C 0.73548 0.56293 0.2118 0.0
N2067 N 0.71378 0.53406 0.19754 0.0
C2068 C 0.64106 0.60262 0.20911 0.0
C2069 C 0.58961 0.57039 0.21545 0.0
C2070 C 0.63177 0.59818 0.1728 0.0
N2071 N 0.6207 0.58772 0.2298 0.0
C2072 C 0.57875 0.56658 0.17916 0.0
C2073 C 0.6004 0.57965 0.15718 0.0
H2074 H 0.66532 0.61711 0.22066 0.0
H2075 H 0.57347 0.55865 0.23181 0.0
C2076 C 0.68089 0.49957 0.30988 0.0
N2077 N 0.70145 0.52899 0.30922 0.0
C2078 C 0.68904 0.47044 0.29768 0.0
C2079 C 0.74043 0.50232 0.28655 0.0
C2080 C 0.7314 0.53092 0.29934 0.0
C2081 C 0.71851 0.47158 0.28431 0.0
H2082 H 0.6573 0.49875 0.31803 0.0
H2083 H 0.74725 0.55466 0.29897 0.0
O2084 O 0.64093 0.62734 0.3165 0.0
O2085 O 0.69461 0.59834 0.35747 0.0
O2086 O 0.6338 0.55407 0.30853 0.0
O2087 O 0.69074 0.59417 0.2778 0.0
H2088 H 0.6386 0.66598 0.37434 0.0
H2089 H 0.64953 0.6632 0.26627 0.0
H2090 H 0.64373 0.72615 0.37956 0.0
H2091 H 0.65473 0.72342 0.27348 0.0
H2092 H 0.80346 0.64766 0.3841 0.0
H2093 H 0.69274 0.6365 0.41589 0.0
H2094 H 0.75599 0.60811 0.34602 0.0
H2095 H 0.74133 0.67539 0.45283 0.0
H2096 H 0.56984 0.60343 0.44183 0.0
H2097 H 0.64604 0.55235 0.46307 0.0
H2098 H 0.76797 0.69991 0.26463 0.0
H2099 H 0.75294 0.74397 0.36498 0.0
H2100 H 0.61205 0.49568 0.26852 0.0
H2101 H 0.58286 0.57589 0.32495 0.0
H2102 H 0.55326 0.46686 0.25084 0.0
H2103 H 0.5246 0.54562 0.30623 0.0
H2104 H 0.65274 0.53748 0.24411 0.0
H2105 H 0.74604 0.60594 0.25074 0.0
H2106 H 0.66813 0.50133 0.1972 0.0
H2107 H 0.75877 0.56948 0.20269 0.0
H2108 H 0.64902 0.60928 0.15703 0.0
H2109 H 0.55421 0.55225 0.1682 0.0
H2110 H 0.6718 0.44728 0.29741 0.0
H2111 H 0.76335 0.50445 0.27649 0.0
C2112 C 1.02804 0.97181 0.99147 0.0
C2113 C 1.00129 0.9336 0.02644 0.0
C2114 C 1.01315 0.96596 0.02048 0.0
C2115 C 1.00554 0.90713 1.00346 0.0
C2116 C 1.03073 0.94504 0.96742 0.0
C2117 C 1.02035 0.91285 0.97414 0.0
N2118 N 0.03773 1.00335 0.98555 0.0
C2119 C 0.04555 1.00889 0.95365 0.0
C2120 C 0.04244 0.95125 0.93655 0.0
C2121 C 0.04909 0.98324 0.92928 0.0
Gd2122 Gd 0.11862 0.08772 0.07642 0.0
Gd2123 Gd 1.0312 0.04426 0.02971 0.0
N2124 N 1.01018 0.99206 0.04293 0.0
C2125 C 0.98525 0.92883 0.05519 0.0
C2126 C 0.99344 0.98759 0.07017 0.0
C2127 C 0.98099 0.95594 0.07692 0.0
H2128 H 0.98989 1.0085 0.08676 0.0
H2129 H 0.96816 0.95248 0.09886 0.0
H2130 H 0.1691 0.10022 0.01652 0.0
H2131 H 0.04767 0.03266 0.94591 0.0
H2132 H 0.2052 0.14683 0.99815 0.0
H2133 H 0.97567 0.90437 0.06058 0.0
H2134 H 0.99694 0.88211 1.00776 0.0
H2135 H 0.08589 0.12095 0.14262 0.0
H2136 H 0.04469 0.93136 0.91735 0.0
H2137 H 0.05605 0.98806 0.90445 0.0
H2138 H 0.19902 0.24061 0.07759 0.0
H2139 H 1.02289 0.89211 0.95635 0.0
H2140 H 0.12505 0.22435 0.16014 0.0
H2141 H 0.08915 0.17547 0.1749 0.0
N2142 N 0.11936 0.1385 0.10921 0.0
C2143 C 0.14111 0.16496 0.10227 0.0
C2144 C 0.10173 0.14187 0.13574 0.0
C2145 C 0.1246 0.20037 0.14647 0.0
C2146 C 0.10378 0.17284 0.15445 0.0
C2147 C 0.14403 0.19669 0.12059 0.0
H2148 H 0.1678 0.24834 0.1255 0.0
N2149 N 0.1541 0.12988 0.05643 0.0
C2150 C 0.15847 0.16058 0.07476 0.0
C2151 C 0.19621 0.1828 0.03749 0.0
C2152 C 0.1795 0.18789 0.06556 0.0
C2153 C 0.17097 0.12473 0.02957 0.0
C2154 C 0.192 0.15108 0.01953 0.0
O2155 O 0.05936 1.01348 0.06274 0.0
O2156 O 0.1125 0.03223 0.05653 0.0
O2157 O 0.17089 0.0912 0.08773 0.0
O2158 O 0.14073 0.08188 0.1276 0.0
O2159 O 1.03209 0.0643 0.08683 0.0
O2160 O 0.08437 0.0652 0.11219 0.0
O2161 O 0.0892 0.12586 0.0595 0.0
O2162 O 0.03805 0.10009 0.02802 0.0
O2163 O 0.98312 0.05095 0.03773 0.0
O2164 O 0.99015 0.02908 0.98724 0.0
O2165 O 0.11515 0.06617 0.01932 0.0
O2166 O 0.06501 0.07276 0.99689 0.0
C2167 C 0.08918 1.00825 0.06298 0.0
C2168 C 0.05299 0.06233 0.11404 0.0
C2169 C 0.18292 0.0539 0.12479 0.0
C2170 C 0.21073 1.01146 0.1059 0.0
C2171 C 0.19166 1.01389 0.16199 0.0
C2172 C 0.17977 0.04126 0.15596 0.0
C2173 C 0.20715 0.99911 0.13727 0.0
C2174 C 0.19831 0.03875 0.09982 0.0
C2175 C 0.16914 0.08208 0.11806 0.0
C2176 C 0.18297 0.2194 0.08432 0.0
C2177 C 0.16525 0.22379 0.11168 0.0
H2178 H 0.21253 0.20315 0.02961 0.0
C2179 C 0.0608 0.12746 0.04149 0.0
C2180 C 0.09563 0.07275 0.99363 0.0
C2181 C 0.95461 0.06505 0.98837 0.0
C2182 C 0.91905 0.10322 0.99212 0.0
C2183 C 0.94409 0.09431 0.94029 0.0
C2184 C 0.95933 0.07202 0.95496 0.0
C2185 C 0.92395 0.10974 0.95859 0.0
C2186 C 0.93465 0.08089 1.00677 0.0
C2187 C 0.97081 0.042 1.0048 0.0
H2188 H 0.18912 1.00426 0.18607 0.0
H2189 H 0.16792 0.05244 0.17555 0.0
H2190 H 0.21697 0.9785 0.14316 0.0
H2191 H 0.20037 0.04795 0.07543 0.0
H2192 H 0.94772 0.09949 0.91452 0.0
H2193 H 0.9748 0.06039 0.94017 0.0
H2194 H 0.91179 0.12626 0.94614 0.0
H2195 H 0.93166 0.076 0.03281 0.0
C2196 C 0.34898 0.75579 0.23515 0.0
C2197 C 0.32878 0.75939 0.1751 0.0
C2198 C 0.33859 0.77393 0.2105 0.0
C2199 C 0.32842 0.72625 0.165 0.0
C2200 C 0.34901 0.72253 0.22479 0.0
C2201 C 0.3384 0.70786 0.18977 0.0
N2202 N 0.35873 0.7704 0.2691 0.0
C2203 C 0.3695 0.75316 0.29361 0.0
C2204 C 0.35947 0.7048 0.24996 0.0
C2205 C 0.36988 0.72024 0.28444 0.0
Gd2206 Gd 0.29707 0.83786 0.35575 0.0
Gd2207 Gd 0.35423 0.82528 0.28071 0.0
N2208 N 0.33853 0.80581 0.22087 0.0
C2209 C 0.31988 0.77869 0.15075 0.0
C2210 C 0.33101 0.82504 0.19703 0.0
C2211 C 0.32133 0.81175 0.16173 0.0
H2212 H 0.33221 0.85071 0.20525 0.0
H2213 H 0.31498 0.827 0.14303 0.0
H2214 H 0.30511 0.78619 0.41216 0.0
H2215 H 0.37713 0.76397 0.32057 0.0
H2216 H 0.3234 0.78854 0.47522 0.0
H2217 H 0.31228 0.76842 0.12336 0.0
H2218 H 0.32066 0.71464 0.13801 0.0
H2219 H 0.28056 0.91246 0.3503 0.0
H2220 H 0.3596 0.67919 0.24304 0.0
H2221 H 0.37797 0.70668 0.30411 0.0
H2222 H 0.35737 0.90407 0.51991 0.0
H2223 H 0.33803 0.68232 0.18152 0.0
H2224 H 0.32753 0.97717 0.44489 0.0
H2225 H 0.29608 0.96791 0.38528 0.0
N2226 N 0.3061 0.89114 0.38825 0.0
C2227 C 0.32091 0.89521 0.4219 0.0
C2228 C 0.29524 0.91636 0.37588 0.0
C2229 C 0.32153 0.95295 0.42931 0.0
C2230 C 0.30367 0.94779 0.39574 0.0
C2231 C 0.32943 0.92631 0.44323 0.0
H2232 H 0.35118 0.95324 0.49482 0.0
N2233 N 0.31398 0.83792 0.41529 0.0
C2234 C 0.32454 0.86763 0.43602 0.0
C2235 C 0.3365 0.84145 0.48589 0.0
C2236 C 0.33669 0.87028 0.47179 0.0
C2237 C 0.31284 0.80967 0.42904 0.0
C2238 C 0.32386 0.81098 0.46455 0.0
O2239 O 0.30739 0.78891 0.28203 0.0
O2240 O 0.30954 0.78994 0.34047 0.0
O2241 O 0.2535 0.84242 0.37782 0.0
O2242 O 0.25207 0.79945 0.34095 0.0
O2243 O 0.30821 0.84083 0.258 0.0
O2244 O 0.274 0.84233 0.30046 0.0
O2245 O 0.31414 0.87838 0.32663 0.0
O2246 O 0.36309 0.86714 0.32503 0.0
O2247 O 0.3829 0.86739 0.2635 0.0
O2248 O 0.40331 0.82523 0.27074 0.0
O2249 O 0.34729 0.82715 0.37762 0.0
O2250 O 0.37816 0.81928 0.33324 0.0
C2251 C 0.30275 0.7738 0.30864 0.0
C2252 C 0.27968 0.84277 0.26785 0.0
C2253 C 0.21565 0.79417 0.38183 0.0
C2254 C 0.21151 0.75767 0.42471 0.0
C2255 C 0.16707 0.78361 0.40941 0.0
C2256 C 0.18469 0.79941 0.38605 0.0
C2257 C 0.18081 0.76345 0.42941 0.0
C2258 C 0.22815 0.772 0.39986 0.0
C2259 C 0.23587 0.81422 0.36123 0.0
C2260 C 0.34741 0.90146 0.49252 0.0
C2261 C 0.34392 0.92946 0.47822 0.0
H2262 H 0.34543 0.84242 0.51329 0.0
C2263 C 0.34483 0.8881 0.32442 0.0
C2264 C 0.37407 0.82075 0.36613 0.0
C2265 C 0.42043 0.85464 0.22678 0.0
C2266 C 0.41503 0.86659 0.16785 0.0
C2267 C 0.45602 0.83814 0.18746 0.0
C2268 C 0.44602 0.83961 0.22021 0.0
C2269 C 0.4401 0.85103 0.16099 0.0
C2270 C 0.40622 0.86933 0.20095 0.0
C2271 C 0.40727 0.85342 0.25962 0.0
H2272 H 0.14337 0.78798 0.41302 0.0
H2273 H 0.17458 0.81632 0.37198 0.0
H2274 H 0.16788 0.7529 0.44898 0.0
H2275 H 0.25165 0.76743 0.39608 0.0
H2276 H 0.47555 0.82632 0.18236 0.0
H2277 H 0.4578 0.82851 0.24012 0.0
H2278 H 0.44727 0.84894 0.13538 0.0
H2279 H 0.38688 0.88153 0.20585 0.0
C2280 C 0.65397 0.13417 0.51982 0.0
C2281 C 0.69005 0.17265 0.56792 0.0
C2282 C 0.66652 0.14283 0.55524 0.0
C2283 C 0.69966 0.19436 0.5448 0.0
C2284 C 0.66447 0.15549 0.4964 0.0
C2285 C 0.68682 0.18586 0.50917 0.0
N2286 N 0.63303 0.10423 0.50802 0.0
C2287 C 0.62378 0.09321 0.47307 0.0
C2288 C 0.65301 0.14522 0.46068 0.0
C2289 C 0.63293 0.11377 0.44895 0.0
Gd2290 Gd 0.52929 0.06464 0.5749 0.0
Gd2291 Gd 0.61909 0.07222 0.55109 0.0
N2292 N 0.65639 0.12161 0.57722 0.0
C2293 C 0.70357 0.17954 0.60341 0.0
C2294 C 0.67066 0.12738 0.61148 0.0
C2295 C 0.69389 0.15677 0.62524 0.0
H2296 H 0.66372 0.10942 0.62812 0.0
H2297 H 0.70433 0.16186 0.65264 0.0
H2298 H 0.48807 0.05065 0.49163 0.0
H2299 H 0.60979 0.06834 0.4636 0.0
H2300 H 0.45099 1.00445 0.45087 0.0
H2301 H 0.72168 0.20221 0.61413 0.0
H2302 H 0.71743 0.21755 0.55411 0.0
H2303 H 0.53827 0.03866 0.65154 0.0
H2304 H 0.66045 0.16091 0.44187 0.0
H2305 H 0.62497 0.10512 0.4213 0.0
H2306 H 0.42401 0.92084 0.52119 0.0
H2307 H 0.69498 0.2026 0.49157 0.0
H2308 H 0.47394 0.94317 0.64143 0.0
H2309 H 0.5153 0.99008 0.6776 0.0
N2310 N 0.51074 1.01892 0.60117 0.0
C2311 C 0.48725 0.9939 0.58102 0.0
C2312 C 0.5205 1.01812 0.63553 0.0
C2313 C 0.48387 0.96441 0.6299 0.0
C2314 C 0.50736 0.99078 0.65037 0.0
C2315 C 0.47358 0.96568 0.59476 0.0
H2316 H 0.44017 0.91744 0.58293 0.0
N2317 N 0.49156 1.02372 0.53362 0.0
C2318 C 0.4781 0.99598 0.54608 0.0
C2319 C 0.44586 0.97255 0.48937 0.0
C2320 C 0.45501 0.96963 0.52419 0.0
C2321 C 0.48075 0.02751 0.5004 0.0
C2322 C 0.45866 1.00168 0.47751 0.0
O2323 O 0.60865 0.12048 0.57881 0.0
O2324 O 0.55326 0.11669 0.56487 0.0
O2325 O 0.48088 0.07488 0.56848 0.0
O2326 O 0.51124 0.08628 0.61932 0.0
O2327 O 0.60569 0.05326 0.59897 0.0
O2328 O 0.57109 0.08249 0.61981 0.0
O2329 O 0.54904 1.01681 0.57021 0.0
O2330 O 0.58321 1.02211 0.52913 0.0
O2331 O 0.65209 0.04646 0.57622 0.0
O2332 O 0.6568 0.05743 0.52441 0.0
O2333 O 0.5393 0.08513 0.52617 0.0
O2334 O 0.57574 0.05648 0.50847 0.0
C2335 C 0.58379 0.13485 0.57405 0.0
C2336 C 0.59642 0.06958 0.62473 0.0
C2337 C 0.47901 0.12339 0.60464 0.0
C2338 C 0.44419 0.16064 0.59055 0.0
C2339 C 0.49638 0.18124 0.62968 0.0
C2340 C 0.5023 0.14997 0.62564 0.0
C2341 C 0.46746 0.18647 0.61265 0.0
C2342 C 0.45 0.12892 0.58704 0.0
C2343 C 0.48509 0.09009 0.60037 0.0
C2344 C 0.4416 0.94134 0.53772 0.0
C2345 C 0.45074 0.93943 0.57291 0.0
H2346 H 0.42835 0.95281 0.47168 0.0
C2347 C 0.56429 1.00316 0.54679 0.0
C2348 C 0.55484 0.07439 0.50206 0.0
C2349 C 0.70453 0.05289 0.56021 0.0
C2350 C 0.75416 0.0333 0.57203 0.0
C2351 C 0.75707 0.09186 0.58017 0.0
C2352 C 0.72326 0.08539 0.56914 0.0
C2353 C 0.7725 0.06598 0.58182 0.0
C2354 C 0.72009 0.02697 0.56141 0.0
C2355 C 0.6687 0.04513 0.55054 0.0
H2356 H 0.51417 0.20149 0.64627 0.0
H2357 H 0.52507 0.1467 0.6391 0.0
H2358 H 0.46302 0.21068 0.61732 0.0
H2359 H 0.43227 0.10866 0.5703 0.0
H2360 H 0.77137 0.11698 0.58732 0.0
H2361 H 0.71195 0.10571 0.56759 0.0
H2362 H 0.79882 0.07152 0.59002 0.0
H2363 H 0.70561 1.00183 0.55446 0.0
C2364 C 0.26133 0.34164 0.72125 0.0
C2365 C 0.21952 0.29321 0.69238 0.0
C2366 C 0.2417 0.31087 0.72212 0.0
C2367 C 0.21774 0.30665 0.66142 0.0
C2368 C 0.25873 0.35569 0.69052 0.0
C2369 C 0.23731 0.3378 0.6605 0.0
N2370 N 0.28213 0.35821 0.75067 0.0
C2371 C 0.29785 0.39033 0.75207 0.0
C2372 C 0.27713 0.38763 0.69113 0.0
C2373 C 0.29621 0.40525 0.72226 0.0
Gd2374 Gd 0.36447 0.29395 0.80734 0.0
Gd2375 Gd 0.28388 0.32961 0.7987 0.0
N2376 N 0.245 0.29778 0.75197 0.0
C2377 C 0.19996 0.26245 0.69462 0.0
C2378 C 0.22481 0.26863 0.75492 0.0
C2379 C 0.20241 0.25025 0.72613 0.0
H2380 H 0.22627 0.25943 0.77939 0.0
H2381 H 0.18717 0.22669 0.72831 0.0
H2382 H 0.41545 0.37004 0.83563 0.0
H2383 H 0.31084 0.40503 0.77631 0.0
H2384 H 0.45431 0.39899 0.88778 0.0
H2385 H 0.18272 0.24819 0.67228 0.0
H2386 H 0.20113 0.29327 0.63815 0.0
H2387 H 0.34065 0.216 0.82037 0.0
H2388 H 0.27576 0.39933 0.66812 0.0
H2389 H 0.30915 0.43057 0.72355 0.0
H2390 H 0.45731 0.31721 0.96132 0.0
H2391 H 0.23528 0.34809 0.63658 0.0
H2392 H 0.38986 0.20881 0.92047 0.0
H2393 H 0.35096 0.1831 0.86634 0.0
N2394 N 0.37232 0.26027 0.84884 0.0
C2395 C 0.39483 0.27469 0.87774 0.0
C2396 C 0.35716 0.22771 0.84417 0.0
C2397 C 0.38532 0.22347 0.90045 0.0
C2398 C 0.36321 0.20889 0.87001 0.0
C2399 C 0.40159 0.25668 0.90457 0.0
H2400 H 0.42948 0.25888 0.9556 0.0
N2401 N 0.40326 0.32495 0.855 0.0
C2402 C 0.41064 0.30785 0.88096 0.0
C2403 C 0.44886 0.35669 0.91374 0.0
C2404 C 0.43341 0.32346 0.91118 0.0
C2405 C 0.41928 0.35702 0.85688 0.0
C2406 C 0.44195 0.37345 0.88635 0.0
O2407 O 0.29226 0.29234 0.75532 0.0
O2408 O 0.34684 0.30814 0.75527 0.0
O2409 O 0.41461 0.29548 0.79925 0.0
O2410 O 0.37549 0.25352 0.77458 0.0
O2411 O 0.28133 0.28403 0.82413 0.0
O2412 O 0.31493 0.25665 0.79605 0.0
O2413 O 0.34363 0.30548 0.8576 0.0
O2414 O 0.32043 0.34866 0.84878 0.0
O2415 O 0.243 0.32178 0.82911 0.0
O2416 O 0.25499 0.36542 0.80447 0.0
O2417 O 0.37042 0.34236 0.788 0.0
O2418 O 0.33257 0.36886 0.80884 0.0
C2419 C 0.31691 0.29775 0.738 0.0
C2420 C 0.28964 0.25677 0.81277 0.0
C2421 C 0.41616 0.27486 0.74102 0.0
C2422 C 0.45836 0.29758 0.70725 0.0
C2423 C 0.40145 0.27749 0.67958 0.0
C2424 C 0.39249 0.26903 0.71082 0.0
C2425 C 0.43398 0.29152 0.6777 0.0
C2426 C 0.4493 0.28894 0.73897 0.0
C2427 C 0.40579 0.26966 0.77511 0.0
C2428 C 0.43997 0.30555 0.93795 0.0
C2429 C 0.42413 0.2723 0.93467 0.0
H2430 H 0.46642 0.36955 0.93656 0.0
C2431 C 0.33241 0.33071 0.86985 0.0
C2432 C 0.36014 0.36907 0.79605 0.0
C2433 C 0.20824 0.36154 0.83479 0.0
C2434 C 0.16151 0.35792 0.86655 0.0
C2435 C 0.17607 0.40257 0.83362 0.0
C2436 C 0.20204 0.39029 0.82381 0.0
C2437 C 0.15595 0.38658 0.8547 0.0
C2438 C 0.18764 0.34515 0.8561 0.0
C2439 C 0.23554 0.34888 0.82249 0.0
H2440 H 0.38313 0.27315 0.65659 0.0
H2441 H 0.36688 0.25834 0.71133 0.0
H2442 H 0.44015 0.29708 0.65279 0.0
H2443 H 0.46776 0.29391 0.76212 0.0
H2444 H 0.17144 0.42458 0.82474 0.0
H2445 H 0.21712 0.40329 0.80725 0.0
H2446 H 0.13574 0.39662 0.86158 0.0
H2447 H 0.19213 0.32301 0.86482 0.0
C2448 C 0.04212 0.13174 0.63381 0.0
C2449 C 0.09297 0.16893 0.66402 0.0
C2450 C 0.07459 0.14782 0.63385 0.0
C2451 C 0.07873 0.17281 0.6943 0.0
C2452 C 1.02763 0.13582 0.66402 0.0
C2453 C 0.04615 0.15632 0.69429 0.0
N2454 N 1.02518 0.11098 0.60457 0.0
C2455 C 0.99329 0.0948 0.60321 0.0
C2456 C 0.99503 0.11887 0.663 0.0
C2457 C 0.97773 0.09848 0.63237 0.0
Gd2458 Gd 0.09597 0.0301 0.54946 0.0
Gd2459 Gd 0.05372 0.10539 0.55753 0.0
N2460 N 0.08819 0.14271 0.6045 0.0
C2461 C 0.12503 0.18582 0.66276 0.0
C2462 C 0.11824 0.16155 0.60226 0.0
C2463 C 0.13749 0.18263 0.63152 0.0
H2464 H 0.12706 0.16156 0.57778 0.0
H2465 H 0.16166 0.19683 0.62972 0.0
H2466 H 1.02645 0.98444 0.50057 0.0
H2467 H 0.97976 0.07932 0.57952 0.0
H2468 H 1.00938 0.94643 0.44443 0.0
H2469 H 0.13983 0.2022 0.68539 0.0
H2470 H 0.09264 0.1887 0.7178 0.0
H2471 H 0.17797 0.05623 0.55998 0.0
H2472 H 0.98298 0.12143 0.68564 0.0
H2473 H 0.95241 0.08559 0.6312 0.0
H2474 H 0.11027 0.94723 0.40012 0.0
H2475 H 0.0355 0.15962 0.71783 0.0
H2476 H 0.21007 1.01407 0.46924 0.0
H2477 H 0.22268 0.04985 0.5268 0.0
N2478 N 0.1404 0.02563 0.52078 0.0
C2479 C 0.13294 1.00553 0.48942 0.0
C2480 C 0.17213 0.04116 0.53452 0.0
C2481 C 0.19031 1.01706 0.48348 0.0
C2482 C 0.19753 0.03734 0.51595 0.0
C2483 C 0.15773 1.00065 0.46992 0.0
H2484 H 0.168 0.97558 0.42226 0.0
N2485 N 0.07686 0.99612 0.4954 0.0
C2486 C 0.10032 0.98975 0.47671 0.0
C2487 C 0.05858 0.95287 0.43273 0.0
C2488 C 0.09175 0.96834 0.44452 0.0
C2489 C 0.04464 0.98029 0.48471 0.0
C2490 C 0.03498 0.9587 0.45305 0.0
O2491 O 0.06333 0.08065 0.60546 0.0
O2492 O 0.11174 0.06676 0.59988 0.0
O2493 O 0.0748 0.98331 0.56381 0.0
O2494 O 0.1273 1.00311 0.57612 0.0
O2495 O 0.10132 0.11104 0.53464 0.0
O2496 O 0.1299 0.08046 0.56492 0.0
O2497 O 0.08124 0.0474 0.49756 0.0
O2498 O 0.03879 0.07274 0.5048 0.0
O2499 O 0.06254 0.15136 0.53614 0.0
O2500 O 1.01326 0.12809 0.54469 0.0
O2501 O 0.04642 1.02318 0.56696 0.0
O2502 O 1.01658 0.05605 0.54167 0.0
C2503 C 0.09142 0.07591 0.61964 0.0
C2504 C 0.12914 0.10393 0.54615 0.0
C2505 C 0.10066 0.97167 0.6152 0.0
C2506 C 0.08276 0.93081 0.65203 0.0
C2507 C 0.10091 0.98874 0.67678 0.0
C2508 C 0.10705 0.99647 0.64431 0.0
C2509 C 0.08899 0.95618 0.68072 0.0
C2510 C 0.08871 0.93878 0.6192 0.0
C2511 C 0.10243 0.98012 0.58004 0.0
C2512 C 0.11639 0.96341 0.42503 0.0
C2513 C 0.14927 0.97959 0.43764 0.0
H2514 H 0.05098 0.93626 0.40814 0.0
C2515 C 0.05701 0.05987 0.48475 0.0
C2516 C 1.01831 0.02872 0.55408 0.0
C2517 C 1.01913 0.1797 0.52183 0.0
C2518 C 1.0238 0.22686 0.49055 0.0
C2519 C 0.97675 0.21017 0.51975 0.0
C2520 C 0.98913 0.18449 0.53037 0.0
C2521 C 0.99386 0.23118 0.50012 0.0
C2522 C 0.03666 0.20119 0.50207 0.0
C2523 C 1.032 0.15278 0.53463 0.0
H2524 H 0.1056 1.00802 0.69904 0.0
H2525 H 0.11646 1.02181 0.64184 0.0
H2526 H 0.08521 0.95075 0.70637 0.0
H2527 H 0.08326 0.91956 0.59666 0.0
H2528 H 0.95375 0.21384 0.5268 0.0
H2529 H 0.97536 0.16861 0.54574 0.0
H2530 H 0.98363 0.25105 0.49251 0.0
H2531 H 0.0597 0.19752 0.49507 0.0
C2532 C 0.25124 0.73578 0.83557 0.0
C2533 C 0.21361 0.6986 0.78756 0.0
C2534 C 0.24327 0.72234 0.80032 0.0
C2535 C 0.19141 0.68956 0.81037 0.0
C2536 C 0.22938 0.72589 0.85869 0.0
C2537 C 0.19922 0.70323 0.84579 0.0
N2538 N 0.28096 0.75711 0.84754 0.0
C2539 C 0.29116 0.76744 0.8825 0.0
C2540 C 0.23889 0.73825 0.8943 0.0
C2541 C 0.27007 0.75877 0.90627 0.0
Gd2542 Gd 0.32031 0.85816 0.7789 0.0
Gd2543 Gd 0.31397 0.76957 0.80486 0.0
N2544 N 0.26493 0.73192 0.77859 0.0
C2545 C 0.20731 0.68438 0.75229 0.0
C2546 C 0.25973 0.71701 0.7446 0.0
C2547 C 0.2305 0.69358 0.73076 0.0
H2548 H 0.27802 0.72357 0.72823 0.0
H2549 H 0.22587 0.68261 0.70353 0.0
H2550 H 0.32135 0.90524 0.85602 0.0
H2551 H 0.31579 0.78188 0.89238 0.0
H2552 H 0.36144 0.94693 0.89958 0.0
H2553 H 0.18476 0.66612 0.7415 0.0
H2554 H 0.16834 0.67163 0.80097 0.0
H2555 H 0.35408 0.8513 0.70707 0.0
H2556 H 0.22279 0.73124 0.91288 0.0
H2557 H 0.2781 0.76742 0.93389 0.0
H2558 H 0.45722 0.97022 0.84485 0.0
H2559 H 0.18209 0.69552 0.86317 0.0
H2560 H 0.44912 0.91814 0.72679 0.0
H2561 H 0.40565 0.87602 0.68664 0.0
N2562 N 0.36889 0.87878 0.75811 0.0
C2563 C 0.39174 0.90299 0.78012 0.0
C2564 C 0.37309 0.86959 0.72464 0.0
C2565 C 0.42657 0.90749 0.73578 0.0
C2566 C 0.40212 0.88363 0.71305 0.0
C2567 C 0.42156 0.91751 0.76977 0.0
H2568 H 0.46857 0.95253 0.7863 0.0
N2569 N 0.35549 0.89954 0.82169 0.0
C2570 C 0.38521 0.91297 0.81317 0.0
C2571 C 0.40021 0.94929 0.86861 0.0
C2572 C 0.40851 0.93792 0.83661 0.0
C2573 C 0.34626 0.91275 0.85138 0.0
C2574 C 0.36869 0.93712 0.8757 0.0
O2575 O 0.26602 0.77965 0.77574 0.0
O2576 O 0.26923 0.83455 0.79155 0.0
O2577 O 0.31 0.90624 0.77914 0.0
O2578 O 0.29569 0.87043 0.73204 0.0
O2579 O 0.33357 0.78137 0.7568 0.0
O2580 O 0.3048 0.81578 0.73446 0.0
O2581 O 0.36881 0.83931 0.78442 0.0
O2582 O 0.36391 0.80589 0.82625 0.0
O2583 O 0.34058 0.73646 0.78158 0.0
O2584 O 0.32757 0.73196 0.83266 0.0
O2585 O 0.30024 0.84762 0.82766 0.0
O2586 O 0.33079 0.81327 0.84706 0.0
C2587 C 0.2512 0.80406 0.78151 0.0
C2588 C 0.31805 0.7906 0.73045 0.0
C2589 C 0.25999 0.90543 0.74409 0.0
C2590 C 0.22349 0.94052 0.76029 0.0
C2591 C 0.20248 0.89058 0.7177 0.0
C2592 C 0.23341 0.88381 0.72133 0.0
C2593 C 0.19759 0.91878 0.73673 0.0
C2594 C 0.25482 0.93381 0.76349 0.0
C2595 C 0.29301 0.89853 0.74793 0.0
C2596 C 0.43885 0.95145 0.82695 0.0
C2597 C 0.44529 0.94141 0.79357 0.0
H2598 H 0.41741 0.96843 0.88732 0.0
C2599 C 0.3827 0.82464 0.80832 0.0
C2600 C 0.31401 0.83528 0.85287 0.0
C2601 C 0.33345 0.68416 0.79785 0.0
C2602 C 0.35364 0.635 0.78524 0.0
C2603 C 0.29496 0.63138 0.77764 0.0
C2604 C 0.30107 0.66513 0.78898 0.0
C2605 C 0.32107 0.61634 0.77554 0.0
C2606 C 0.35961 0.66897 0.79625 0.0
C2607 C 0.34089 0.71998 0.80741 0.0
H2608 H 0.18222 0.87408 0.69981 0.0
H2609 H 0.23648 0.86175 0.70614 0.0
H2610 H 0.17365 0.92395 0.73237 0.0
H2611 H 0.27508 0.95045 0.78135 0.0
H2612 H 0.26993 0.61683 0.77052 0.0
H2613 H 0.28059 0.6762 0.79074 0.0
H2614 H 0.31581 0.59007 0.76702 0.0
H2615 H 0.38465 0.6837 0.80308 0.0
C2616 C 0.64046 0.04068 0.12291 0.0
C2617 C 0.6401 0.06318 0.18317 0.0
C2618 C 0.62371 0.05179 0.14856 0.0
C2619 C 0.67356 0.064 0.19151 0.0
C2620 C 0.67408 0.04116 0.13153 0.0
C2621 C 0.69048 0.05305 0.16578 0.0
N2622 N 0.62423 0.02996 0.08963 0.0
C2623 C 0.6403 1.01872 0.06418 0.0
C2624 C 0.69049 0.03007 0.10541 0.0
C2625 C 0.67348 1.01869 0.07168 0.0
Gd2626 Gd 0.55172 0.09061 1.00457 0.0
Gd2627 Gd 0.5691 0.03464 0.08075 0.0
N2628 N 0.59147 0.05134 0.13989 0.0
C2629 C 0.62238 0.07341 0.20852 0.0
C2630 C 0.57378 0.06006 0.16481 0.0
C2631 C 0.58903 0.07163 0.19932 0.0
H2632 H 0.54793 0.05886 0.15801 0.0
H2633 H 0.57505 0.07928 0.21878 0.0
H2634 H 0.6059 0.08376 0.951 0.0
H2635 H 0.62848 1.01037 0.03766 0.0
H2636 H 0.60617 0.06678 0.88822 0.0
H2637 H 0.63415 0.08244 0.23529 0.0
H2638 H 0.68656 0.07295 0.21786 0.0
H2639 H 0.47426 0.10052 1.00827 0.0
H2640 H 0.71631 0.0303 0.11098 0.0
H2641 H 0.68603 1.01017 0.05124 0.0
H2642 H 0.49185 0.03161 0.83861 0.0
H2643 H 0.71631 0.05381 0.17266 0.0
H2644 H 0.4138 0.05291 0.91149 0.0
H2645 H 0.41974 0.08199 0.97172 0.0
N2646 N 0.49875 0.0787 0.97065 0.0
C2647 C 0.49635 0.06511 0.93678 0.0
C2648 C 0.47198 0.08668 0.98251 0.0
C2649 C 0.43776 0.06027 0.92771 0.0
C2650 C 0.44101 0.07668 0.96169 0.0
C2651 C 0.46577 0.05531 0.91444 0.0
H2652 H 0.44098 0.03416 0.8619 0.0
N2653 N 0.55396 0.07424 0.94553 0.0
C2654 C 0.5249 0.06338 0.92367 0.0
C2655 C 0.5534 0.05332 0.87515 0.0
C2656 C 0.52378 0.0521 0.88794 0.0
C2657 C 0.58296 0.07589 0.93319 0.0
C2658 C 0.58314 0.06571 0.89782 0.0
O2659 O 0.60229 0.08272 0.07742 0.0
O2660 O 0.60083 0.08023 0.01899 0.0
O2661 O 0.54383 0.13374 0.9835 0.0
O2662 O 0.58917 0.13641 0.01729 0.0
O2663 O 0.55338 0.08054 0.10379 0.0
O2664 O 0.54725 0.11293 0.06015 0.0
O2665 O 0.51224 0.07331 0.03479 0.0
O2666 O 0.52669 0.02605 0.03732 0.0
O2667 O 0.52629 1.00646 0.09701 0.0
O2668 O 0.56881 0.9858 0.09253 0.0
O2669 O 0.56131 0.04007 0.98263 0.0
O2670 O 0.57418 1.01109 0.02744 0.0
C2671 C 0.61729 0.08643 0.05065 0.0
C2672 C 0.54871 0.10807 0.0932 0.0
C2673 C 0.59018 0.17212 0.97556 0.0
C2674 C 0.6246 0.17653 0.93067 0.0
C2675 C 0.59554 0.21873 0.94472 0.0
C2676 C 0.58215 0.20166 0.96981 0.0
C2677 C 0.61603 0.20578 0.92453 0.0
C2678 C 0.61267 0.1606 0.95719 0.0
C2679 C 0.5725 0.15198 0.99803 0.0
C2680 C 0.49327 0.0408 0.86602 0.0
C2681 C 0.4643 0.04222 0.8793 0.0
H2682 H 0.55358 0.04507 0.84784 0.0
C2683 C 0.50485 0.04315 0.03976 0.0
C2684 C 0.57005 1.01431 0.99419 0.0
C2685 C 0.53281 0.96438 0.12988 0.0
C2686 C 0.51409 0.96361 0.18567 0.0
C2687 C 0.52365 0.91407 0.15486 0.0
C2688 C 0.53316 0.93109 0.12801 0.0
C2689 C 0.51384 0.93021 0.18363 0.0
C2690 C 0.52333 0.98034 0.15875 0.0
C2691 C 0.53922 0.98134 0.10027 0.0
H2692 H 0.58904 0.24133 0.94 0.0
H2693 H 0.56492 0.21101 0.98405 0.0
H2694 H 0.62478 0.21825 0.90382 0.0
H2695 H 0.61943 0.13828 0.96214 0.0
H2696 H 0.52348 0.88829 0.15315 0.0
H2697 H 0.53996 0.91813 0.10547 0.0
H2698 H 0.50613 0.9168 0.20411 0.0
H2699 H 0.52156 1.00553 0.15972 0.0
C2700 C 0.41582 0.36206 0.36412 0.0
C2701 C 0.45366 0.38867 0.32871 0.0
C2702 C 0.42139 0.37641 0.33471 0.0
C2703 C 0.48033 0.3854 0.3521 0.0
C2704 C 0.44277 0.3603 0.3885 0.0
C2705 C 0.47489 0.37114 0.38181 0.0
N2706 N 0.38434 0.35201 0.37008 0.0
C2707 C 0.37894 0.34461 0.40216 0.0
C2708 C 0.43677 0.34904 0.41964 0.0
C2709 C 0.40478 0.34194 0.42684 0.0
Gd2710 Gd 0.30023 0.26916 0.27991 0.0
Gd2711 Gd 0.34313 0.35718 0.32543 0.0
N2712 N 0.39512 0.37852 0.31193 0.0
C2713 C 0.45813 0.40416 0.29954 0.0
C2714 C 0.39928 0.39473 0.28425 0.0
C2715 C 0.43082 0.4075 0.27743 0.0
H2716 H 0.37822 0.39763 0.26739 0.0
H2717 H 0.43405 0.41991 0.25515 0.0
H2718 H 0.28817 0.21894 0.34001 0.0
H2719 H 0.35512 0.34215 0.40982 0.0
H2720 H 0.24179 0.18256 0.35849 0.0
H2721 H 0.48252 0.414 0.29411 0.0
H2722 H 0.50529 0.39437 0.34781 0.0
H2723 H 0.26649 0.30231 0.21431 0.0
H2724 H 0.4568 0.34746 0.43907 0.0
H2725 H 0.40009 0.33531 0.45183 0.0
H2726 H 0.14763 0.18833 0.27935 0.0
H2727 H 0.49578 0.3694 0.39992 0.0
H2728 H 0.16318 0.26284 0.19721 0.0
H2729 H 0.21183 0.29906 0.18243 0.0
N2730 N 0.24928 0.26843 0.24745 0.0
C2731 C 0.22294 0.24653 0.25441 0.0
C2732 C 0.24569 0.28629 0.22116 0.0
C2733 C 0.18722 0.26325 0.21067 0.0
C2734 C 0.21463 0.28426 0.20269 0.0
C2735 C 0.19112 0.24364 0.23634 0.0
H2736 H 0.13955 0.21973 0.23167 0.0
N2737 N 0.25827 0.23357 0.30001 0.0
C2738 C 0.22752 0.22907 0.28179 0.0
C2739 C 0.20564 0.19127 0.31916 0.0
C2740 C 0.20034 0.20795 0.2911 0.0
C2741 C 0.2636 0.21683 0.32694 0.0
C2742 C 0.23741 0.19568 0.33707 0.0
O2743 O 0.37437 0.32893 0.29319 0.0
O2744 O 0.35576 0.27583 0.29976 0.0
O2745 O 0.29882 0.21716 0.27004 0.0
O2746 O 0.30412 0.24596 0.22848 0.0
O2747 O 0.32296 0.35525 0.26812 0.0
O2748 O 0.32281 0.30294 0.24361 0.0
O2749 O 0.26185 0.29806 0.29762 0.0
O2750 O 0.28734 0.34988 0.32766 0.0
O2751 O 0.33522 0.40466 0.31645 0.0
O2752 O 0.35834 0.39901 0.36699 0.0
O2753 O 0.3219 0.2733 0.33706 0.0
O2754 O 0.31533 0.32365 0.35894 0.0
C2755 C 0.37966 0.29916 0.29324 0.0
C2756 C 0.32542 0.3342 0.24126 0.0
C2757 C 0.33398 0.20503 0.23021 0.0
C2758 C 0.37661 0.17609 0.24535 0.0
C2759 C 0.3728 0.19805 0.1909 0.0
C2760 C 0.3458 0.2097 0.19885 0.0
C2761 C 0.38808 0.18126 0.21385 0.0
C2762 C 0.34961 0.18828 0.25337 0.0
C2763 C 0.30584 0.21821 0.23875 0.0
C2764 C 0.16875 0.20444 0.27253 0.0
C2765 C 0.16415 0.22227 0.2453 0.0
H2766 H 0.18539 0.17489 0.32713 0.0
C2767 C 0.26007 0.32668 0.31507 0.0
C2768 C 0.31548 0.29313 0.36257 0.0
C2769 C 0.32152 0.43364 0.36572 0.0
C2770 C 0.28406 0.46994 0.36273 0.0
C2771 C 0.29119 0.44267 0.41322 0.0
C2772 C 0.31356 0.42763 0.39846 0.0
C2773 C 0.27661 0.46381 0.39564 0.0
C2774 C 0.30654 0.45459 0.34801 0.0
C2775 C 0.34461 0.41766 0.34915 0.0
H2776 H 0.38175 0.20177 0.16669 0.0
H2777 H 0.33423 0.22249 0.18052 0.0
H2778 H 0.40839 0.17172 0.20646 0.0
H2779 H 0.34099 0.18497 0.27785 0.0
H2780 H 0.28526 0.43806 0.43849 0.0
H2781 H 0.32445 0.41127 0.41264 0.0
H2782 H 0.25994 0.47573 0.40813 0.0
H2783 H 0.31215 0.45852 0.32242 0.0
C2784 C 0.5446 0.63124 0.1336 0.0
C2785 C 0.59634 0.66735 0.16299 0.0
C2786 C 0.57714 0.64661 0.13299 0.0
C2787 C 0.58282 0.67159 0.1937 0.0
C2788 C 0.53083 0.63569 0.16426 0.0
C2789 C 0.55016 0.65584 0.19433 0.0
N2790 N 0.52689 0.61069 0.10457 0.0
C2791 C 0.49493 0.59511 0.10388 0.0
C2792 C 0.49815 0.61938 0.1639 0.0
C2793 C 0.48007 0.5992 0.1335 0.0
Gd2794 Gd 0.59474 0.52745 0.04803 0.0
Gd2795 Gd 0.55425 0.60416 0.0567 0.0
N2796 N 0.59 0.64113 0.1032 0.0
C2797 C 0.62854 0.68344 0.16117 0.0
C2798 C 0.6202 0.65934 0.10045 0.0
C2799 C 0.64029 0.67993 0.12955 0.0
H2800 H 0.62856 0.65923 0.07572 0.0
H2801 H 0.66462 0.69348 0.12736 0.0
H2802 H 0.52374 0.48308 1.00059 0.0
H2803 H 0.48082 0.57973 0.08038 0.0
H2804 H 0.50486 0.44497 0.94471 0.0
H2805 H 0.64402 0.69942 0.18369 0.0
H2806 H 0.59738 0.68719 0.21707 0.0
H2807 H 0.67671 0.55189 0.05625 0.0
H2808 H 0.48665 0.62224 0.18691 0.0
H2809 H 0.4547 0.58677 0.13286 0.0
H2810 H 0.60393 0.44273 0.89769 0.0
H2811 H 0.54007 0.6594 0.2182 0.0
H2812 H 0.70567 0.50805 0.96427 0.0
H2813 H 0.72014 0.54421 0.02165 0.0
N2814 N 0.63802 0.52168 0.01799 0.0
C2815 C 0.62953 0.50138 0.98674 0.0
C2816 C 0.67007 0.53668 0.03086 0.0
C2817 C 0.68647 0.51162 0.97913 0.0
C2818 C 0.69474 0.53211 0.0115 0.0
C2819 C 0.65356 0.49575 0.96646 0.0
H2820 H 0.66218 0.46996 0.91835 0.0
N2821 N 0.57387 0.49341 0.99424 0.0
C2822 C 0.5966 0.48623 0.97487 0.0
C2823 C 0.55352 0.45001 0.93174 0.0
C2824 C 0.58696 0.46473 0.94275 0.0
C2825 C 0.54138 0.47835 0.98426 0.0
C2826 C 0.53068 0.45668 0.95272 0.0
O2827 O 0.56307 0.57887 0.10428 0.0
O2828 O 0.61104 0.56415 0.09843 0.0
O2829 O 0.5735 0.48086 0.06279 0.0
O2830 O 0.62607 0.50022 0.07433 0.0
O2831 O 0.60165 0.60878 0.03347 0.0
O2832 O 0.62961 0.57732 0.06321 0.0
O2833 O 0.58038 0.5452 0.99631 0.0
O2834 O 0.53873 0.5716 1.00393 0.0
O2835 O 0.56307 0.65021 0.03533 0.0
O2836 O 0.51391 0.62705 0.04423 0.0
O2837 O 0.54548 0.52145 0.06596 0.0
O2838 O 0.5163 0.55525 0.04135 0.0
C2839 C 0.59094 0.57359 0.11831 0.0
C2840 C 0.62923 0.601 0.04463 0.0
C2841 C 0.59979 0.46922 0.11397 0.0
C2842 C 0.58233 0.42868 0.15131 0.0
C2843 C 0.60067 0.48671 0.17561 0.0
C2844 C 0.60649 0.49419 0.14297 0.0
C2845 C 0.58879 0.45424 0.17985 0.0
C2846 C 0.58794 0.43639 0.1183 0.0
C2847 C 0.60119 0.47746 0.07867 0.0
C2848 C 0.61087 0.45901 0.92254 0.0
C2849 C 0.64405 0.47455 0.9343 0.0
H2850 H 0.54511 0.43336 0.90723 0.0
C2851 C 0.55655 0.55829 0.98372 0.0
C2852 C 0.51759 0.52778 0.0537 0.0
C2853 C 0.51957 0.67864 0.02145 0.0
C2854 C 0.5236 0.72558 0.98986 0.0
C2855 C 0.47716 0.70908 0.01998 0.0
C2856 C 0.48975 0.68349 0.0305 0.0
C2857 C 0.49386 0.72995 0.99993 0.0
C2858 C 0.53669 0.69999 1.00128 0.0
C2859 C 0.53256 0.65168 0.03402 0.0
H2860 H 0.6056 0.50613 0.19779 0.0
H2861 H 0.61588 0.51946 0.14027 0.0
H2862 H 0.58526 0.44901 0.20564 0.0
H2863 H 0.58229 0.41703 0.09588 0.0
H2864 H 0.45431 0.71279 0.02743 0.0
H2865 H 0.47629 0.66772 0.04618 0.0
H2866 H 0.48346 0.74975 0.99244 0.0
H2867 H 0.55958 0.69627 0.99388 0.0
C2868 C 0.75266 0.23499 0.33952 0.0
C2869 C 0.71434 0.19806 0.29188 0.0
C2870 C 0.7441 0.22176 0.30425 0.0
C2871 C 0.69256 0.189 0.3151 0.0
C2872 C 0.73129 0.22501 0.36307 0.0
C2873 C 0.70096 0.20252 0.35056 0.0
N2874 N 0.78256 0.25605 0.35107 0.0
C2875 C 0.79353 0.26589 0.38595 0.0
C2876 C 0.74151 0.23709 0.39868 0.0
C2877 C 0.77294 0.25725 0.41019 0.0
Gd2878 Gd 0.82164 0.35765 0.28146 0.0
Gd2879 Gd 0.81466 0.26907 0.30784 0.0
N2880 N 0.76538 0.23138 0.28216 0.0
C2881 C 0.70757 0.18383 0.2566 0.0
C2882 C 0.75975 0.21643 0.24815 0.0
C2883 C 0.73043 0.19298 0.23469 0.0
H2884 H 0.77776 0.22296 0.23147 0.0
H2885 H 0.72546 0.18197 0.20747 0.0
H2886 H 0.83736 0.40144 0.36367 0.0
H2887 H 0.81841 0.27985 0.39528 0.0
H2888 H 0.88425 0.43938 0.40268 0.0
H2889 H 0.68495 0.16558 0.24611 0.0
H2890 H 0.66941 0.17112 0.30601 0.0
H2891 H 0.84579 0.34626 0.20401 0.0
H2892 H 0.7258 0.23004 0.41759 0.0
H2893 H 0.78158 0.26562 0.43778 0.0
H2894 H 0.96582 0.46353 0.32947 0.0
H2895 H 0.68418 0.19476 0.36826 0.0
H2896 H 0.94111 0.4098 0.21052 0.0
H2897 H 0.89361 0.3678 0.17625 0.0
N2898 N 0.86654 0.37509 0.25355 0.0
C2899 C 0.89187 0.39897 0.27262 0.0
C2900 C 0.8666 0.36425 0.21925 0.0
C2901 C 0.92021 0.40046 0.22281 0.0
C2902 C 0.89351 0.37661 0.20342 0.0
C2903 C 0.91968 0.41191 0.25786 0.0
H2904 H 0.96791 0.44528 0.26782 0.0
N2905 N 0.8632 0.39651 0.32097 0.0
C2906 C 0.89053 0.40931 0.30751 0.0
C2907 C 0.91511 0.44307 0.36317 0.0
C2908 C 0.91724 0.43284 0.32833 0.0
C2909 C 0.86017 0.40835 0.35416 0.0
C2910 C 0.88638 0.43092 0.37603 0.0
O2911 O 0.76637 0.27896 0.2796 0.0
O2912 O 0.77011 0.33428 0.29325 0.0
O2913 O 0.81142 0.40606 0.28613 0.0
O2914 O 0.79874 0.3738 0.23637 0.0
O2915 O 0.83335 0.28082 0.25935 0.0
O2916 O 0.80363 0.31473 0.23777 0.0
O2917 O 0.86955 0.33818 0.28664 0.0
O2918 O 0.86472 0.3054 0.32902 0.0
O2919 O 0.84104 0.23606 0.28389 0.0
O2920 O 0.82902 0.23161 0.33535 0.0
O2921 O 0.80224 0.34956 0.33126 0.0
O2922 O 0.8306 0.31307 0.34971 0.0
C2923 C 0.75194 0.30375 0.28441 0.0
C2924 C 0.81711 0.28974 0.2333 0.0
C2925 C 0.76197 0.40652 0.25075 0.0
C2926 C 0.72482 0.44117 0.26571 0.0
C2927 C 0.70397 0.38912 0.22638 0.0
C2928 C 0.73526 0.38329 0.22986 0.0
C2929 C 0.69883 0.41792 0.24381 0.0
C2930 C 0.75653 0.43539 0.26872 0.0
C2931 C 0.7953 0.40056 0.2545 0.0
C2932 C 0.94509 0.44556 0.31378 0.0
C2933 C 0.94624 0.43523 0.27863 0.0
H2934 H 0.93518 0.4609 0.38009 0.0
C2935 C 0.88347 0.32387 0.31078 0.0
C2936 C 0.81343 0.33476 0.35586 0.0
C2937 C 0.83405 0.18371 0.30008 0.0
C2938 C 0.85356 0.13418 0.28701 0.0
C2939 C 0.79502 0.13114 0.28051 0.0
C2940 C 0.80155 0.16492 0.29185 0.0
C2941 C 0.82085 0.11579 0.27789 0.0
C2942 C 0.85994 0.16822 0.29791 0.0
C2943 C 0.84181 0.21956 0.30969 0.0
H2944 H 0.68361 0.37141 0.20989 0.0
H2945 H 0.73847 0.36064 0.21604 0.0
H2946 H 0.67457 0.42231 0.23953 0.0
H2947 H 0.7769 0.45308 0.28534 0.0
H2948 H 0.76988 0.11679 0.27388 0.0
H2949 H 0.78127 0.17617 0.29415 0.0
H2950 H 0.81527 0.08948 0.26948 0.0
H2951 H 0.88509 0.18274 0.3043 0.0
C2952 C 0.13405 0.54304 0.62517 0.0
C2953 C 0.12937 0.5654 0.68416 0.0
C2954 C 0.11527 0.55381 0.64886 0.0
C2955 C 0.16261 0.56676 0.69516 0.0
C2956 C 0.16738 0.54391 0.63646 0.0
C2957 C 0.18155 0.55606 0.67139 0.0
N2958 N 0.11999 0.53208 0.59121 0.0
C2959 C 0.13786 0.52084 0.56765 0.0
C2960 C 0.18571 0.53286 0.61226 0.0
C2961 C 0.17083 0.52113 0.57779 0.0
Gd2962 Gd 0.05223 0.59266 0.50073 0.0
Gd2963 Gd 0.06512 0.53619 0.57753 0.0
N2964 N 0.08325 0.55267 0.63762 0.0
C2965 C 0.10963 0.57528 0.70749 0.0
C2966 C 0.0635 0.56071 0.66064 0.0
C2967 C 0.07651 0.57276 0.69569 0.0
H2968 H 0.03776 0.55872 0.65183 0.0
H2969 H 0.06096 0.58005 0.71359 0.0
H2970 H 0.11086 0.58682 0.45273 0.0
H2971 H 0.12759 0.51234 0.54067 0.0
H2972 H 0.11573 0.56842 0.39148 0.0
H2973 H 0.11961 0.58452 0.73472 0.0
H2974 H 0.17387 0.57589 0.72208 0.0
H2975 H 0.97298 0.60023 0.49705 0.0
H2976 H 0.21138 0.53335 0.61989 0.0
H2977 H 0.18487 0.51264 0.55884 0.0
H2978 H 1.0039 0.52942 0.33387 0.0
H2979 H 0.20715 0.55719 0.68032 0.0
H2980 H 0.91938 0.54931 0.39817 0.0
H2981 H 0.9207 0.57947 0.45693 0.0
N2982 N 1.00098 0.5788 0.46305 0.0
C2983 C 1.00116 0.56484 0.42985 0.0
C2984 C 0.97282 0.58597 0.47206 0.0
C2985 C 0.94243 0.55774 0.41599 0.0
C2986 C 0.94306 0.5747 0.44913 0.0
C2987 C 0.97185 0.55361 0.40552 0.0
H2988 H 0.9507 0.53067 0.35237 0.0
N2989 N 0.05879 0.57583 0.44313 0.0
C2990 C 1.03103 0.56393 0.41938 0.0
C2991 C 0.0634 0.55367 0.37439 0.0
C2992 C 0.03253 0.55197 0.38445 0.0
C2993 C 0.08898 0.5778 0.43347 0.0
C2994 C 0.09176 0.56697 0.39897 0.0
O2995 O 0.10144 0.58311 0.57624 0.0
O2996 O 0.10053 0.58151 0.51777 0.0
O2997 O 0.04287 0.6355 0.48019 0.0
O2998 O 0.09003 0.63817 0.5105 0.0
O2999 O 0.04879 0.58192 0.59918 0.0
O3000 O 0.04899 0.61601 0.55645 0.0
O3001 O 1.01112 0.57759 0.52949 0.0
O3002 O 1.02434 0.52998 0.53288 0.0
O3003 O 1.0219 0.50744 0.59282 0.0
O3004 O 0.06382 0.48642 0.58633 0.0
O3005 O 0.06061 0.54128 0.47983 0.0
O3006 O 0.07336 0.51309 0.52535 0.0
C3007 C 0.11654 0.58789 0.54966 0.0
C3008 C 0.04767 0.61048 0.58903 0.0
C3009 C 0.08768 0.67317 0.46815 0.0
C3010 C 0.1208 0.67745 0.42209 0.0
C3011 C 0.08761 0.71655 0.43323 0.0
C3012 C 0.07652 0.70061 0.46009 0.0
C3013 C 0.10903 0.70452 0.41365 0.0
C3014 C 0.11101 0.66276 0.45023 0.0
C3015 C 0.07216 0.65361 0.49242 0.0
C3016 C 1.00331 0.53922 0.36066 0.0
C3017 C 0.97301 0.53987 0.37122 0.0
H3018 H 0.0656 0.54493 0.34776 0.0
C3019 C 1.00298 0.5477 0.53506 0.0
C3020 C 0.06953 0.51587 0.492 0.0
C3021 C 1.02951 0.46489 0.62487 0.0
C3022 C 1.01318 0.46315 0.68172 0.0
C3023 C 1.029 0.41651 0.65249 0.0
C3024 C 0.03469 0.43316 0.62435 0.0
C3025 C 1.01821 0.43147 0.68126 0.0
C3026 C 1.01842 0.47946 0.65347 0.0
C3027 C 0.03462 0.48205 0.59507 0.0
H3028 H 0.07868 0.73748 0.42675 0.0
H3029 H 0.05855 0.70908 0.4739 0.0
H3030 H 0.11617 0.71608 0.39177 0.0
H3031 H 0.12006 0.64201 0.45681 0.0
H3032 H 0.03291 0.39203 0.65197 0.0
H3033 H 0.0429 0.42123 0.60215 0.0
H3034 H 1.01389 0.41853 0.70301 0.0
H3035 H 1.01321 0.50341 0.65376 0.0
C3036 C 0.75621 0.84316 0.22169 0.0
C3037 C 0.72011 0.79162 0.19167 0.0
C3038 C 0.74078 0.81053 0.22187 0.0
C3039 C 0.71597 0.80554 0.1612 0.0
C3040 C 0.75186 0.85731 0.19128 0.0
C3041 C 0.73176 0.83829 0.16102 0.0
N3042 N 0.77671 0.86057 0.25089 0.0
C3043 C 0.79235 0.8926 0.252 0.0
C3044 C 0.7682 0.89008 0.19207 0.0
C3045 C 0.78832 0.90785 0.22265 0.0
Gd3046 Gd 0.85925 0.7916 0.30668 0.0
Gd3047 Gd 0.78298 0.83261 0.2983 0.0
N3048 N 0.74616 0.79729 0.25142 0.0
C3049 C 0.70401 0.75931 0.19305 0.0
C3050 C 0.72795 0.76696 0.25375 0.0
C3051 C 0.70744 0.74715 0.22444 0.0
H3052 H 0.72802 0.75827 0.27831 0.0
H3053 H 0.6939 0.72273 0.22632 0.0
H3054 H 0.90425 0.86172 0.35507 0.0
H3055 H 0.8077 0.90646 0.27563 0.0
H3056 H 0.94229 0.87951 0.41112 0.0
H3057 H 0.68809 0.74403 0.17035 0.0
H3058 H 0.70042 0.79122 0.13769 0.0
H3059 H 0.83415 0.70954 0.29686 0.0
H3060 H 0.7654 0.90188 0.16927 0.0
H3061 H 0.80075 0.93328 0.22363 0.0
H3062 H 0.94287 0.77928 0.45643 0.0
H3063 H 0.72827 0.84869 0.13733 0.0
H3064 H 0.87685 0.67865 0.38816 0.0
H3065 H 0.84104 0.6653 0.3306 0.0
N3066 N 0.86439 0.74758 0.33581 0.0
C3067 C 0.88452 0.75545 0.36717 0.0
C3068 C 0.84919 0.71569 0.32235 0.0
C3069 C 0.87362 0.6982 0.37369 0.0
C3070 C 0.85332 0.69056 0.34121 0.0
C3071 C 0.88974 0.73093 0.38695 0.0
H3072 H 0.91508 0.72131 0.43479 0.0
N3073 N 0.89322 0.81138 0.36065 0.0
C3074 C 0.89996 0.7882 0.37959 0.0
C3075 C 0.93648 0.8305 0.42329 0.0
C3076 C 0.92138 0.7972 0.41178 0.0
C3077 C 0.90867 0.84373 0.3711 0.0
C3078 C 0.93028 0.85381 0.40273 0.0
O3079 O 0.80828 0.82383 0.25069 0.0
O3080 O 0.8226 0.77563 0.25627 0.0
O3081 O 0.90582 0.81304 0.29204 0.0
O3082 O 0.88649 0.76045 0.28016 0.0
O3083 O 0.77809 0.78515 0.32141 0.0
O3084 O 0.80922 0.75714 0.2913 0.0
O3085 O 0.84175 0.80606 0.3585 0.0
O3086 O 0.81547 0.84786 0.35113 0.0
O3087 O 0.73688 0.82346 0.31947 0.0
O3088 O 0.75998 0.87284 0.31103 0.0
O3089 O 0.86569 0.84121 0.28935 0.0
O3090 O 0.83194 0.87039 0.31406 0.0
C3091 C 0.8134 0.79592 0.23651 0.0
C3092 C 0.78574 0.75754 0.31013 0.0
C3093 C 0.91759 0.78702 0.2408 0.0
C3094 C 0.95834 0.80468 0.20378 0.0
C3095 C 0.90038 0.78645 0.17917 0.0
C3096 C 0.89274 0.78046 0.21172 0.0
C3097 C 0.93291 0.79835 0.17513 0.0
C3098 C 0.95045 0.79892 0.23668 0.0
C3099 C 0.90925 0.78542 0.27602 0.0
C3100 C 0.92667 0.77284 0.43153 0.0
C3101 C 0.91081 0.73981 0.41921 0.0
H3102 H 0.9531 0.83843 0.44786 0.0
C3103 C 0.8288 0.82996 0.37123 0.0
C3104 C 0.85944 0.86911 0.30181 0.0
C3105 C 0.7083 0.86671 0.33365 0.0
C3106 C 0.66147 0.86226 0.36538 0.0
C3107 C 0.67744 0.90878 0.33521 0.0
C3108 C 0.70314 0.89644 0.32461 0.0
C3109 C 0.65677 0.89191 0.35533 0.0
C3110 C 0.68715 0.84942 0.35387 0.0
C3111 C 0.73534 0.85397 0.32102 0.0
H3112 H 0.88106 0.78161 0.15691 0.0
H3113 H 0.86744 0.77105 0.21427 0.0
H3114 H 0.93827 0.80199 0.14942 0.0
H3115 H 0.9697 0.80447 0.25919 0.0
H3116 H 0.67349 0.93157 0.32778 0.0
H3117 H 0.71876 0.91003 0.30889 0.0
H3118 H 0.63689 0.90212 0.36292 0.0
H3119 H 0.69111 0.8266 0.36127 0.0
C3120 C 0.84467 0.25048 0.73511 0.0
C3121 C 0.82214 0.25281 0.67542 0.0
C3122 C 0.83403 0.26827 0.71027 0.0
C3123 C 0.82064 0.21931 0.66597 0.0
C3124 C 0.8435 0.21682 0.7254 0.0
C3125 C 0.83132 0.2014 0.69085 0.0
N3126 N 0.85543 0.26572 0.76873 0.0
C3127 C 0.86606 0.24866 0.79351 0.0
C3128 C 0.85409 0.1994 0.7508 0.0
C3129 C 0.86552 0.21543 0.78493 0.0
Gd3130 Gd 0.79604 0.33522 0.85586 0.0
Gd3131 Gd 0.85223 0.32116 0.77955 0.0
N3132 N 0.83531 0.30059 0.72001 0.0
C3133 C 0.81195 0.27146 0.65102 0.0
C3134 C 0.82701 0.31925 0.69591 0.0
C3135 C 0.81448 0.30483 0.66131 0.0
H3136 H 0.82927 0.34524 0.70349 0.0
H3137 H 0.80689 0.31952 0.64257 0.0
H3138 H 0.80279 0.27735 0.90483 0.0
H3139 H 0.87424 0.25981 0.82029 0.0
H3140 H 0.82079 0.27336 0.96645 0.0
H3141 H 0.80239 0.2604 0.62412 0.0
H3142 H 0.81134 0.20703 0.6394 0.0
H3143 H 0.78684 0.41367 0.85805 0.0
H3144 H 0.85335 0.17352 0.74439 0.0
H3145 H 0.87355 0.20207 0.80482 0.0
H3146 H 0.85704 0.38573 0.02297 0.0
H3147 H 0.83001 0.17555 0.68312 0.0
H3148 H 0.83542 0.46871 0.95718 0.0
H3149 H 0.8058 0.46631 0.89787 0.0
N3150 N 0.80853 0.38663 0.89296 0.0
C3151 C 0.82223 0.38698 0.9264 0.0
C3152 C 0.80082 0.41436 0.88335 0.0
C3153 C 0.82775 0.44554 0.93953 0.0
C3154 C 0.8111 0.4443 0.90607 0.0
C3155 C 0.83257 0.4165 0.95047 0.0
H3156 H 0.85464 0.4384 1.00369 0.0
N3157 N 0.81256 0.32937 0.91381 0.0
C3158 C 0.82373 0.35739 0.93731 0.0
C3159 C 0.83436 0.3258 0.98295 0.0
C3160 C 0.83548 0.35642 0.97245 0.0
C3161 C 0.8111 0.29941 0.92391 0.0
C3162 C 0.82177 0.29715 0.95862 0.0
O3163 O 0.80491 0.28529 0.78013 0.0
O3164 O 0.80795 0.28734 0.83869 0.0
O3165 O 0.7527 0.34319 0.87641 0.0
O3166 O 0.75078 0.29703 0.84449 0.0
O3167 O 0.80709 0.33841 0.75762 0.0
O3168 O 0.773 0.339 0.80028 0.0
O3169 O 0.81188 0.37637 0.82722 0.0
O3170 O 0.85973 0.36343 0.82315 0.0
O3171 O 0.88123 0.36196 0.76046 0.0
O3172 O 0.90176 0.3207 0.77154 0.0
O3173 O 0.84722 0.32715 0.87748 0.0
O3174 O 0.87591 0.31503 0.8323 0.0
C3175 C 0.79905 0.271 0.807 0.0
C3176 C 0.77858 0.33998 0.76769 0.0
C3177 C 0.71489 0.29714 0.886 0.0
C3178 C 0.71022 0.26276 0.93091 0.0
C3179 C 0.66925 0.29355 0.91815 0.0
C3180 C 0.68608 0.30632 0.8926 0.0
C3181 C 0.68172 0.27248 0.93792 0.0
C3182 C 0.72587 0.27414 0.90399 0.0
C3183 C 0.73488 0.31405 0.86291 0.0
C3184 C 0.84741 0.38591 0.99601 0.0
C3185 C 0.8461 0.41591 0.985 0.0
H3186 H 0.84297 0.32401 1.00974 0.0
C3187 C 0.84175 0.38464 0.82146 0.0
C3188 C 0.87293 0.31878 0.86557 0.0
C3189 C 0.92328 0.35026 0.72945 0.0
C3190 C 0.92602 0.36319 0.6713 0.0
C3191 C 0.97083 0.34569 0.70205 0.0
C3192 C 0.95412 0.34282 0.73053 0.0
C3193 C 0.95686 0.35596 0.6724 0.0
C3194 C 0.90959 0.36063 0.69988 0.0
C3195 C 0.90632 0.34854 0.75977 0.0
H3196 H 0.64723 0.30094 0.92353 0.0
H3197 H 0.67714 0.32395 0.87865 0.0
H3198 H 0.66949 0.26416 0.95894 0.0
H3199 H 0.74767 0.26658 0.89847 0.0
H3200 H 0.99467 0.34011 0.70303 0.0
H3201 H 0.96537 0.33513 0.75348 0.0
H3202 H 0.96993 0.3582 0.65046 0.0
H3203 H 0.8864 0.36759 0.69922 0.0
C3204 C 0.91544 0.86055 0.8641 0.0
C3205 C 0.95325 0.88773 0.829 0.0
C3206 C 0.921 0.87556 0.83509 0.0
C3207 C 0.97992 0.88373 0.85186 0.0
C3208 C 0.94241 0.85809 0.88803 0.0
C3209 C 0.9745 0.86884 0.8812 0.0
N3210 N 0.88398 0.85048 0.87013 0.0
C3211 C 0.87868 0.84251 0.90203 0.0
C3212 C 0.93647 0.84624 0.9189 0.0
C3213 C 0.90454 0.8392 0.92629 0.0
Gd3214 Gd 0.79961 0.76882 0.77999 0.0
Gd3215 Gd 0.84272 0.85667 0.82611 0.0
N3216 N 0.89472 0.87826 0.81272 0.0
C3217 C 0.95772 0.9038 0.80022 0.0
C3218 C 0.89889 0.89501 0.78544 0.0
C3219 C 0.93043 0.90776 0.77857 0.0
H3220 H 0.87785 0.89836 0.76893 0.0
H3221 H 0.93365 0.9206 0.75659 0.0
H3222 H 0.78778 0.71781 0.83934 0.0
H3223 H 0.85496 0.84011 0.90992 0.0
H3224 H 0.74152 0.68088 0.85742 0.0
H3225 H 0.98211 0.91358 0.79473 0.0
H3226 H 1.00487 0.89256 0.84744 0.0
H3227 H 0.76555 0.80319 0.7156 0.0
H3228 H 0.95652 0.84416 0.93801 0.0
H3229 H 0.89992 0.83213 0.95113 0.0
H3230 H 0.64717 0.68731 0.779 0.0
H3231 H 0.99538 0.86648 0.89891 0.0
H3232 H 0.66219 0.76365 0.69877 0.0
H3233 H 0.71075 0.8004 0.6843 0.0
N3234 N 0.74855 0.76844 0.74794 0.0
C3235 C 0.72228 0.7463 0.75466 0.0
C3236 C 0.74481 0.78687 0.7222 0.0
C3237 C 0.68633 0.76383 0.71184 0.0
C3238 C 0.71367 0.78512 0.70408 0.0
C3239 C 0.69039 0.74364 0.73689 0.0
H3240 H 0.63886 0.71956 0.73213 0.0
N3241 N 0.75776 0.73276 0.79971 0.0
C3242 C 0.72697 0.72839 0.78163 0.0
C3243 C 0.70526 0.68994 0.81844 0.0
C3244 C 0.69987 0.707 0.79074 0.0
C3245 C 0.76319 0.71571 0.82634 0.0
C3246 C 0.73706 0.69427 0.83624 0.0
O3247 O 0.87381 0.82874 0.79329 0.0
O3248 O 0.85525 0.77548 0.79934 0.0
O3249 O 0.7988 0.71696 0.76981 0.0
O3250 O 0.80282 0.74587 0.72824 0.0
O3251 O 0.82286 0.85529 0.76885 0.0
O3252 O 0.82203 0.80287 0.74394 0.0
O3253 O 0.76132 0.79747 0.79836 0.0
O3254 O 0.78674 0.84975 0.82728 0.0
O3255 O 0.8355 0.90463 0.81819 0.0
O3256 O 0.85789 0.89776 0.86852 0.0
O3257 O 0.82115 0.77268 0.8371 0.0
O3258 O 0.81461 0.82296 0.85926 0.0
C3259 C 0.87909 0.79892 0.79287 0.0
C3260 C 0.825 0.83422 0.74185 0.0
C3261 C 0.83392 0.70588 0.72958 0.0
C3262 C 0.87601 0.67598 0.74342 0.0
C3263 C 0.87514 0.70297 0.69218 0.0
C3264 C 0.84753 0.7136 0.69989 0.0
C3265 C 0.8893 0.68424 0.71367 0.0
C3266 C 0.84834 0.68704 0.75118 0.0
C3267 C 0.80539 0.71827 0.73839 0.0
C3268 C 0.66823 0.70365 0.77236 0.0
C3269 C 0.6635 0.72197 0.74559 0.0
H3270 H 0.68507 0.67334 0.82625 0.0
C3271 C 0.7595 0.82632 0.81523 0.0
C3272 C 0.81454 0.79234 0.86263 0.0
C3273 C 0.82152 0.93286 0.86779 0.0
C3274 C 0.78346 0.96858 0.86481 0.0
C3275 C 0.79178 0.94217 0.91576 0.0
C3276 C 0.81416 0.92726 0.90085 0.0
C3277 C 0.7766 0.96282 0.89801 0.0
C3278 C 0.80594 0.95334 0.84994 0.0
C3279 C 0.84461 0.91697 0.85109 0.0
H3280 H 0.8855 0.7091 0.66931 0.0
H3281 H 0.83695 0.72804 0.68272 0.0
H3282 H 0.91025 0.67571 0.70654 0.0
H3283 H 0.83831 0.68134 0.77437 0.0
H3284 H 0.78633 0.93787 0.94126 0.0
H3285 H 0.82556 0.91132 0.9152 0.0
H3286 H 0.75996 0.97467 0.91062 0.0
H3287 H 0.8111 0.95699 0.82414 0.0
C3288 C 0.52743 0.46974 0.49337 0.0
C3289 C 0.49976 0.43294 0.52914 0.0
C3290 C 0.51223 0.46492 0.52242 0.0
C3291 C 0.50349 0.4058 0.50679 0.0
C3292 C 0.52975 0.44228 0.47004 0.0
C3293 C 0.51856 0.41046 0.47743 0.0
N3294 N 0.538 0.50096 0.48679 0.0
C3295 C 0.54635 0.50553 0.45485 0.0
C3296 C 0.54198 0.44747 0.4392 0.0
C3297 C 0.54953 0.47916 0.4312 0.0
Gd3298 Gd 0.62021 0.58521 0.57466 0.0
Gd3299 Gd 0.53171 0.54308 0.52976 0.0
N3300 N 0.50985 0.49165 0.54434 0.0
C3301 C 0.48374 0.42922 0.55806 0.0
C3302 C 0.49323 0.48822 0.57182 0.0
C3303 C 0.48018 0.45698 0.57929 0.0
H3304 H 0.49024 0.50963 0.58804 0.0
H3305 H 0.46744 0.45433 0.6014 0.0
H3306 H 0.67086 0.59436 0.51472 0.0
H3307 H 0.54906 0.52903 0.4464 0.0
H3308 H 0.70813 0.63935 0.49507 0.0
H3309 H 0.47374 0.40507 0.56403 0.0
H3310 H 0.49436 0.38105 0.51165 0.0
H3311 H 0.58941 0.62128 0.64062 0.0
H3312 H 0.544 0.42704 0.42056 0.0
H3313 H 0.55688 0.48321 0.40633 0.0
H3314 H 0.70493 0.73583 0.57227 0.0
H3315 H 0.52073 0.3892 0.46015 0.0
H3316 H 0.63186 0.72412 0.65604 0.0
H3317 H 0.59469 0.67668 0.67204 0.0
N3318 N 0.62304 0.63696 0.60667 0.0
C3319 C 0.64527 0.66258 0.59895 0.0
C3320 C 0.60579 0.64158 0.63329 0.0
C3321 C 0.63043 0.69975 0.64277 0.0
C3322 C 0.60896 0.67303 0.65146 0.0
C3323 C 0.6493 0.69476 0.61666 0.0
H3324 H 0.67452 0.74586 0.62039 0.0
N3325 N 0.65691 0.62577 0.55388 0.0
C3326 C 0.66222 0.65689 0.57143 0.0
C3327 C 0.7003 0.67684 0.53351 0.0
C3328 C 0.68391 0.6833 0.56151 0.0
C3329 C 0.67352 0.61926 0.52717 0.0
C3330 C 0.69517 0.64467 0.51638 0.0
O3331 O 0.5593 0.51219 0.56329 0.0
O3332 O 0.61215 0.52938 0.55559 0.0
O3333 O 0.67138 0.58283 0.58361 0.0
O3334 O 0.64377 0.58259 0.6263 0.0
O3335 O 0.5338 0.5647 0.58653 0.0
O3336 O 0.58591 0.56428 0.61128 0.0
O3337 O 0.59197 0.62419 0.5571 0.0
O3338 O 0.5392 0.59919 0.52911 0.0
O3339 O 0.48348 0.54962 0.53737 0.0
O3340 O 0.49101 0.52823 0.48692 0.0
O3341 O 0.61501 0.56388 0.5173 0.0
O3342 O 0.56477 0.57093 0.49591 0.0
C3343 C 0.58877 0.50621 0.56319 0.0
C3344 C 0.55476 0.56256 0.61359 0.0
C3345 C 0.68041 0.54765 0.6245 0.0
C3346 C 0.71124 0.5057 0.61372 0.0
C3347 C 0.67526 0.50232 0.65752 0.0
C3348 C 0.66693 0.53116 0.65025 0.0
C3349 C 0.69724 0.48963 0.63946 0.0
C3350 C 0.70271 0.5348 0.60651 0.0
C3351 C 0.67028 0.57732 0.61544 0.0
C3352 C 0.68838 0.71528 0.57956 0.0
C3353 C 0.67111 0.721 0.60702 0.0
H3354 H 0.7171 0.69646 0.52507 0.0
C3355 C 0.56295 0.62626 0.5408 0.0
C3356 C 0.59533 0.57113 0.49224 0.0
C3357 C 0.4552 0.5639 0.48799 0.0
C3358 C 0.41925 0.60167 0.49164 0.0
C3359 C 0.44496 0.59353 0.44016 0.0
C3360 C 0.46025 0.57126 0.45479 0.0
C3361 C 0.42448 0.60858 0.45831 0.0
C3362 C 0.43485 0.57931 0.50622 0.0
C3363 C 0.47142 0.54086 0.50437 0.0
H3364 H 0.66463 0.48975 0.67726 0.0
H3365 H 0.6497 0.54033 0.66462 0.0
H3366 H 0.70358 0.46746 0.64603 0.0
H3367 H 0.71288 0.54709 0.58633 0.0
H3368 H 0.44884 0.599 0.41455 0.0
H3369 H 0.47602 0.55994 0.44012 0.0
H3370 H 0.41233 0.62514 0.44593 0.0
H3371 H 0.43156 0.5741 0.5321 0.0
C3372 C 0.15243 0.63446 0.01428 0.0
C3373 C 0.18987 0.67306 0.06132 0.0
C3374 C 0.16612 0.64325 0.0494 0.0
C3375 C 0.19855 0.69463 0.03779 0.0
C3376 C 0.16202 0.65562 0.99041 0.0
C3377 C 0.18459 0.68599 1.00247 0.0
N3378 N 0.13127 0.60453 1.00315 0.0
C3379 C 0.12098 0.59333 0.96836 0.0
C3380 C 0.14949 0.64517 0.95492 0.0
C3381 C 0.12925 0.6137 0.94382 0.0
Gd3382 Gd 1.03069 0.56644 0.07411 0.0
Gd3383 Gd 0.11888 0.57286 0.04691 0.0
N3384 N 0.1569 0.62216 0.0718 0.0
C3385 C 0.20456 0.68004 0.09646 0.0
C3386 C 0.17232 0.62799 0.10566 0.0
C3387 C 0.19585 0.65734 0.11866 0.0
H3388 H 0.16606 0.61011 0.12256 0.0
H3389 H 0.20717 0.66252 0.14578 0.0
H3390 H 0.98651 0.55069 0.99212 0.0
H3391 H 0.10688 0.56844 0.9593 0.0
H3392 H 0.94854 0.50372 0.95321 0.0
H3393 H 0.22286 0.70272 0.10661 0.0
H3394 H 0.21648 0.71781 0.04653 0.0
H3395 H 0.04232 0.54251 0.15165 0.0
H3396 H 0.15623 0.66072 0.93578 0.0
H3397 H 0.12052 0.60489 0.91632 0.0
H3398 H 0.92464 0.42232 0.02671 0.0
H3399 H 0.19206 0.70261 0.98451 0.0
H3400 H 0.97861 0.44732 0.14558 0.0
H3401 H 1.02074 0.49483 0.17964 0.0
N3402 N 1.01334 0.52166 0.10221 0.0
C3403 C 0.98941 0.4963 0.08324 0.0
C3404 C 1.02425 0.52169 0.13651 0.0
C3405 C 0.98796 0.46816 0.13319 0.0
C3406 C 1.01188 0.49486 0.15247 0.0
C3407 C 0.97646 0.46859 0.09813 0.0
H3408 H 0.94301 0.42039 0.08838 0.0
N3409 N 0.99178 0.52483 0.03475 0.0
C3410 C 0.97901 0.49754 0.04833 0.0
C3411 C 0.94506 0.47289 0.99279 0.0
C3412 C 0.95541 0.47083 0.02762 0.0
C3413 C 0.97975 0.52784 1.00162 0.0
C3414 C 0.95714 0.5016 0.97983 0.0
O3415 O 0.10955 0.62144 0.0753 0.0
O3416 O 0.05421 0.61805 0.06257 0.0
O3417 O 0.98226 0.57662 0.06928 0.0
O3418 O 1.01443 0.58945 0.11908 0.0
O3419 O 0.10771 0.55493 0.09599 0.0
O3420 O 0.07374 0.5846 0.11761 0.0
O3421 O 0.05023 0.51852 0.06936 0.0
O3422 O 0.08238 0.52281 0.02643 0.0
O3423 O 0.15179 0.54623 0.07057 0.0
O3424 O 0.15607 0.55831 0.01912 0.0
O3425 O 0.0388 0.58571 0.02426 0.0
O3426 O 0.07455 0.55664 1.00541 0.0
C3427 C 0.08482 0.63606 0.07117 0.0
C3428 C 0.09897 0.57146 0.12199 0.0
C3429 C 0.98135 0.62594 0.10464 0.0
C3430 C 0.94622 0.66272 0.08978 0.0
C3431 C 0.9981 0.6839 0.12932 0.0
C3432 C 1.00431 0.65275 0.1257 0.0
C3433 C 0.96919 0.68879 0.11188 0.0
C3434 C 0.95236 0.63115 0.08664 0.0
C3435 C 0.98763 0.59272 0.1009 0.0
C3436 C 0.94268 0.44305 0.0423 0.0
C3437 C 0.95307 0.44199 0.07747 0.0
H3438 H 0.92717 0.45281 0.97596 0.0
C3439 C 0.06429 0.50432 0.04517 0.0
C3440 C 0.05305 0.57403 0.99943 0.0
C3441 C 0.20397 0.55288 0.05405 0.0
C3442 C 0.25328 0.53298 0.06699 0.0
C3443 C 0.25671 0.59161 0.07365 0.0
C3444 C 0.22296 0.58531 0.06232 0.0
C3445 C 0.27185 0.56563 0.07621 0.0
C3446 C 0.21927 0.52682 0.05607 0.0
C3447 C 0.16812 0.54536 0.04465 0.0
H3448 H 1.01562 0.70433 0.14596 0.0
H3449 H 1.02702 0.64973 0.13955 0.0
H3450 H 0.96448 0.71292 0.1163 0.0
H3451 H 0.93486 0.6107 0.06991 0.0
H3452 H 0.2712 0.6167 0.08034 0.0
H3453 H 0.21187 0.60571 0.06005 0.0
H3454 H 0.29813 0.57102 0.08464 0.0
H3455 H 0.20462 0.50172 0.04962 0.0
loop_
_geom_bond_atom_site_label_1
_geom_bond_atom_site_label_2
_geom_bond_distance
_geom_bond_site_symmetry_2
_ccdc_geom_bond_type
Li0 N17 1.990 1_455 S
Li0 O60 1.956 . S
Li0 O61 1.970 . S
Li0 O62 1.961 . S
Li1 N25 1.990 . S
Li1 O60 1.970 . S
Li1 O61 1.956 . S
Li1 O63 1.961 . S
Li2 N47 1.990 . S
Li2 O60 1.961 . S
Li2 O62 1.956 . S
Li2 O63 1.970 . S
Li3 N53 1.990 . S
Li3 O61 1.961 . S
Li3 O62 1.970 . S
Li3 O63 1.956 . S
C4 C6 1.348 . S
C4 C7 1.356 . S
C4 O60 1.325 . S
N5 C8 1.314 . S
N5 C9 1.279 . S
C6 C4 1.348 . S
C6 C8 1.353 . S
C6 H64 0.929 . S
C7 C4 1.356 . S
C7 C9 1.358 . S
C7 H65 0.930 . S
C8 N5 1.314 . S
C8 C6 1.353 . S
C8 H66 0.930 . S
C9 N5 1.279 . S
C9 C7 1.358 . S
C9 H67 0.930 . S
C10 C13 1.348 . S
C10 C14 1.356 1_655 S
C10 O61 1.325 1_655 S
C11 N12 1.279 . S
C11 C14 1.358 1_655 S
C11 H68 0.930 . S
N12 C11 1.279 . S
N12 C15 1.314 . S
C13 C10 1.348 . S
C13 C15 1.353 . S
C13 H69 0.929 . S
C14 C10 1.356 1_455 S
C14 C11 1.358 1_455 S
C14 H70 0.930 . S
C15 N12 1.314 . S
C15 C13 1.353 . S
C15 H71 0.930 . S
C16 N17 1.314 . S
C16 C21 1.353 . S
C16 H22 0.930 . S
N17 Li0 1.990 1_655 S
N17 C16 1.314 . S
N17 C19 1.279 . S
C18 C19 1.358 . S
C18 C20 1.356 . S
C18 H72 0.930 . S
C19 N17 1.279 . S
C19 C18 1.358 . S
C19 H23 0.930 . S
C20 C18 1.356 . S
C20 C21 1.348 . S
C21 C16 1.353 . S
C21 C20 1.348 . S
C21 H73 0.929 . S
H22 C16 0.930 . S
H23 C19 0.930 . S
C24 N25 1.314 . S
C24 C26 1.353 . S
C24 H30 0.930 . S
N25 Li1 1.990 . S
N25 C24 1.314 . S
N25 C28 1.279 . S
C26 C24 1.353 . S
C26 C29 1.348 . S
C26 H74 0.929 . S
C27 C28 1.358 . S
C27 C29 1.356 . S
C27 H75 0.930 . S
C28 N25 1.279 . S
C28 C27 1.358 . S
C28 H31 0.930 . S
C29 C26 1.348 . S
C29 C27 1.356 . S
H30 C24 0.930 . S
H31 C28 0.930 . S
C32 C34 1.348 . S
C32 C35 1.356 . S
C32 O62 1.325 . S
N33 C36 1.314 . S
N33 C37 1.279 . S
C34 C32 1.348 . S
C34 C36 1.353 . S
C34 H76 0.929 . S
C35 C32 1.356 . S
C35 C37 1.358 . S
C35 H77 0.930 . S
C36 N33 1.314 . S
C36 C34 1.353 . S
C36 H78 0.930 . S
C37 N33 1.279 . S
C37 C35 1.358 . S
C37 H79 0.930 . S
C38 C39 1.348 . S
C38 C40 1.356 . S
C38 O63 1.325 . S
C39 C38 1.348 . S
C39 C41 1.353 . S
C39 H80 0.929 . S
C40 C38 1.356 . S
C40 C42 1.358 . S
C40 H81 0.930 . S
C41 C39 1.353 . S
C41 N43 1.314 . S
C41 H82 0.930 . S
C42 C40 1.358 . S
C42 N43 1.279 . S
C42 H83 0.930 . S
N43 C41 1.314 . S
N43 C42 1.279 . S
C44 C46 1.353 . S
C44 N47 1.314 . S
C44 H50 0.930 . S
C45 N47 1.279 . S
C45 C48 1.358 . S
C45 H51 0.930 . S
C46 C44 1.353 . S
C46 C49 1.348 . S
C46 H84 0.929 . S
N47 Li2 1.990 . S
N47 C44 1.314 . S
N47 C45 1.279 . S
C48 C45 1.358 . S
C48 C49 1.356 . S
C48 H85 0.930 . S
C49 C46 1.348 . S
C49 C48 1.356 . S
H50 C44 0.930 . S
H51 C45 0.930 . S
C52 N53 1.314 . S
C52 C54 1.353 . S
C52 H58 0.930 . S
N53 Li3 1.990 . S
N53 C52 1.314 . S
N53 C56 1.279 . S
C54 C52 1.353 . S
C54 C57 1.348 . S
C54 H86 0.929 1_455 S
C55 C56 1.358 . S
C55 C57 1.356 . S
C55 H87 0.930 . S
C56 N53 1.279 . S
C56 C55 1.358 . S
C56 H59 0.930 . S
C57 C54 1.348 . S
C57 C55 1.356 . S
H58 C52 0.930 . S
H59 C56 0.930 . S
O60 Li0 1.956 . S
O60 Li1 1.970 . S
O60 Li2 1.961 . S
O60 C4 1.325 . S
O61 Li0 1.970 . S
O61 Li1 1.956 . S
O61 Li3 1.961 . S
O61 C10 1.325 1_455 S
O62 Li0 1.961 . S
O62 Li2 1.956 . S
O62 Li3 1.970 . S
O62 C32 1.325 . S
O63 Li1 1.961 . S
O63 Li2 1.970 . S
O63 Li3 1.956 . S
O63 C38 1.325 . S
H64 C6 0.929 . S
H65 C7 0.930 . S
H66 C8 0.930 . S
H67 C9 0.930 . S
H68 C11 0.930 . S
H69 C13 0.929 . S
H70 C14 0.930 . S
H71 C15 0.930 . S
H72 C18 0.930 . S
H73 C21 0.929 . S
H74 C26 0.929 . S
H75 C27 0.930 . S
H76 C34 0.929 . S
H77 C35 0.930 . S
H78 C36 0.930 . S
H79 C37 0.930 . S
H80 C39 0.929 . S
H81 C40 0.930 . S
H82 C41 0.930 . S
H83 C42 0.930 . S
H84 C46 0.929 . S
H85 C48 0.930 . S
H86 C54 0.929 1_655 S
H87 C55 0.930 . S
Li88 N105 1.990 . S
Li88 O148 1.956 . S
Li88 O149 1.970 . S
Li88 O150 1.961 1_455 S
Li89 N113 1.990 . S
Li89 O148 1.970 . S
Li89 O149 1.956 . S
Li89 O151 1.961 . S
Li90 N135 1.990 . S
Li90 O148 1.961 . S
Li90 O150 1.956 1_455 S
Li90 O151 1.970 . S
Li91 N141 1.990 1_455 S
Li91 O149 1.961 . S
Li91 O150 1.970 1_455 S
Li91 O151 1.956 . S
C92 C94 1.348 . S
C92 C95 1.356 . S
C92 O148 1.325 . S
N93 C96 1.314 . S
N93 C97 1.279 . S
C94 C92 1.348 . S
C94 C96 1.353 . S
C94 H152 0.929 . S
C95 C92 1.356 . S
C95 C97 1.358 . S
C95 H153 0.930 . S
C96 N93 1.314 . S
C96 C94 1.353 . S
C96 H154 0.930 . S
C97 N93 1.279 . S
C97 C95 1.358 . S
C97 H155 0.930 . S
C98 C101 1.348 . S
C98 C102 1.356 . S
C98 O149 1.325 . S
C99 N100 1.279 . S
C99 C102 1.358 . S
C99 H156 0.930 . S
N100 C99 1.279 . S
N100 C103 1.314 . S
C101 C98 1.348 . S
C101 C103 1.353 . S
C101 H157 0.929 . S
C102 C98 1.356 . S
C102 C99 1.358 . S
C102 H158 0.930 . S
C103 N100 1.314 . S
C103 C101 1.353 . S
C103 H159 0.930 . S
C104 N105 1.314 . S
C104 C109 1.353 . S
C104 H110 0.930 1_455 S
N105 Li88 1.990 . S
N105 C104 1.314 . S
N105 C107 1.279 . S
C106 C107 1.358 . S
C106 C108 1.356 . S
C106 H160 0.930 . S
C107 N105 1.279 . S
C107 C106 1.358 . S
C107 H111 0.930 . S
C108 C106 1.356 . S
C108 C109 1.348 . S
C109 C104 1.353 . S
C109 C108 1.348 . S
C109 H161 0.929 1_455 S
H110 C104 0.930 1_655 S
H111 C107 0.930 . S
C112 N113 1.314 . S
C112 C114 1.353 . S
C112 H118 0.930 . S
N113 Li89 1.990 . S
N113 C112 1.314 . S
N113 C116 1.279 . S
C114 C112 1.353 . S
C114 C117 1.348 . S
C114 H162 0.929 . S
C115 C116 1.358 . S
C115 C117 1.356 . S
C115 H163 0.930 . S
C116 N113 1.279 . S
C116 C115 1.358 . S
C116 H119 0.930 . S
C117 C114 1.348 . S
C117 C115 1.356 . S
H118 C112 0.930 . S
H119 C116 0.930 . S
C120 C122 1.348 . S
C120 C123 1.356 . S
C120 O150 1.325 . S
N121 C124 1.314 . S
N121 C125 1.279 . S
C122 C120 1.348 . S
C122 C124 1.353 . S
C122 H164 0.929 . S
C123 C120 1.356 . S
C123 C125 1.358 . S
C123 H165 0.930 . S
C124 N121 1.314 . S
C124 C122 1.353 . S
C124 H166 0.930 . S
C125 N121 1.279 . S
C125 C123 1.358 . S
C125 H167 0.930 . S
C126 C127 1.348 . S
C126 C128 1.356 . S
C126 O151 1.325 . S
C127 C126 1.348 . S
C127 C129 1.353 . S
C127 H168 0.929 . S
C128 C126 1.356 . S
C128 C130 1.358 . S
C128 H169 0.930 . S
C129 C127 1.353 . S
C129 N131 1.314 . S
C129 H170 0.930 . S
C130 C128 1.358 . S
C130 N131 1.279 . S
C130 H171 0.930 . S
N131 C129 1.314 . S
N131 C130 1.279 . S
C132 C134 1.353 . S
C132 N135 1.314 . S
C132 H138 0.930 . S
C133 N135 1.279 1_655 S
C133 C136 1.358 . S
C133 H139 0.930 . S
C134 C132 1.353 . S
C134 C137 1.348 . S
C134 H172 0.929 . S
N135 Li90 1.990 . S
N135 C132 1.314 . S
N135 C133 1.279 1_455 S
C136 C133 1.358 . S
C136 C137 1.356 1_655 S
C136 H173 0.930 . S
C137 C134 1.348 . S
C137 C136 1.356 1_455 S
H138 C132 0.930 . S
H139 C133 0.930 . S
C140 N141 1.314 . S
C140 C142 1.353 . S
C140 H146 0.930 . S
N141 Li91 1.990 1_655 S
N141 C140 1.314 . S
N141 C144 1.279 . S
C142 C140 1.353 . S
C142 C145 1.348 . S
C142 H174 0.929 . S
C143 C144 1.358 . S
C143 C145 1.356 . S
C143 H175 0.930 . S
C144 N141 1.279 . S
C144 C143 1.358 . S
C144 H147 0.930 . S
C145 C142 1.348 . S
C145 C143 1.356 . S
H146 C140 0.930 . S
H147 C144 0.930 . S
O148 Li88 1.956 . S
O148 Li89 1.970 . S
O148 Li90 1.961 . S
O148 C92 1.325 . S
O149 Li88 1.970 . S
O149 Li89 1.956 . S
O149 Li91 1.961 . S
O149 C98 1.325 . S
O150 Li88 1.961 1_655 S
O150 Li90 1.956 1_655 S
O150 Li91 1.970 1_655 S
O150 C120 1.325 . S
O151 Li89 1.961 . S
O151 Li90 1.970 . S
O151 Li91 1.956 . S
O151 C126 1.325 . S
H152 C94 0.929 . S
H153 C95 0.930 . S
H154 C96 0.930 . S
H155 C97 0.930 . S
H156 C99 0.930 . S
H157 C101 0.929 . S
H158 C102 0.930 . S
H159 C103 0.930 . S
H160 C106 0.930 . S
H161 C109 0.929 1_655 S
H162 C114 0.929 . S
H163 C115 0.930 . S
H164 C122 0.929 . S
H165 C123 0.930 . S
H166 C124 0.930 . S
H167 C125 0.930 . S
H168 C127 0.929 . S
H169 C128 0.930 . S
H170 C129 0.930 . S
H171 C130 0.930 . S
H172 C134 0.929 . S
H173 C136 0.930 . S
H174 C142 0.929 . S
H175 C143 0.930 . S
Li176 N193 1.990 . S
Li176 O236 1.956 . S
Li176 O237 1.970 . S
Li176 O238 1.961 . S
Li177 N201 1.990 . S
Li177 O236 1.970 . S
Li177 O237 1.956 . S
Li177 O239 1.961 . S
Li178 N223 1.990 . S
Li178 O236 1.961 . S
Li178 O238 1.956 . S
Li178 O239 1.970 . S
Li179 N229 1.990 . S
Li179 O237 1.961 . S
Li179 O238 1.970 . S
Li179 O239 1.956 . S
C180 C182 1.348 . S
C180 C183 1.356 . S
C180 O236 1.325 . S
N181 C184 1.314 . S
N181 C185 1.279 . S
C182 C180 1.348 . S
C182 C184 1.353 . S
C182 H240 0.929 . S
C183 C180 1.356 . S
C183 C185 1.358 . S
C183 H241 0.930 . S
C184 N181 1.314 . S
C184 C182 1.353 . S
C184 H242 0.930 . S
C185 N181 1.279 . S
C185 C183 1.358 . S
C185 H243 0.930 . S
C186 C189 1.348 . S
C186 C190 1.356 . S
C186 O237 1.325 . S
C187 N188 1.279 . S
C187 C190 1.358 . S
C187 H244 0.930 . S
N188 C187 1.279 . S
N188 C191 1.314 . S
C189 C186 1.348 . S
C189 C191 1.353 . S
C189 H245 0.929 . S
C190 C186 1.356 . S
C190 C187 1.358 . S
C190 H246 0.930 . S
C191 N188 1.314 . S
C191 C189 1.353 . S
C191 H247 0.930 . S
C192 N193 1.314 . S
C192 C197 1.353 . S
C192 H198 0.930 . S
N193 Li176 1.990 . S
N193 C192 1.314 . S
N193 C195 1.279 . S
C194 C195 1.358 . S
C194 C196 1.356 . S
C194 H248 0.930 . S
C195 N193 1.279 . S
C195 C194 1.358 . S
C195 H199 0.930 . S
C196 C194 1.356 . S
C196 C197 1.348 . S
C197 C192 1.353 . S
C197 C196 1.348 . S
C197 H249 0.929 . S
H198 C192 0.930 . S
H199 C195 0.930 . S
C200 N201 1.314 . S
C200 C202 1.353 . S
C200 H206 0.930 . S
N201 Li177 1.990 . S
N201 C200 1.314 . S
N201 C204 1.279 . S
C202 C200 1.353 . S
C202 C205 1.348 . S
C202 H250 0.929 . S
C203 C204 1.358 . S
C203 C205 1.356 . S
C203 H251 0.930 . S
C204 N201 1.279 . S
C204 C203 1.358 . S
C204 H207 0.930 . S
C205 C202 1.348 . S
C205 C203 1.356 . S
H206 C200 0.930 . S
H207 C204 0.930 . S
C208 C210 1.348 . S
C208 C211 1.356 . S
C208 O238 1.325 . S
N209 C212 1.314 . S
N209 C213 1.279 . S
C210 C208 1.348 . S
C210 C212 1.353 . S
C210 H252 0.929 . S
C211 C208 1.356 . S
C211 C213 1.358 . S
C211 H253 0.930 . S
C212 N209 1.314 . S
C212 C210 1.353 . S
C212 H254 0.930 . S
C213 N209 1.279 . S
C213 C211 1.358 . S
C213 H255 0.930 . S
C214 C215 1.348 . S
C214 C216 1.356 . S
C214 O239 1.325 . S
C215 C214 1.348 . S
C215 C217 1.353 . S
C215 H256 0.929 . S
C216 C214 1.356 . S
C216 C218 1.358 . S
C216 H257 0.930 . S
C217 C215 1.353 . S
C217 N219 1.314 . S
C217 H258 0.930 . S
C218 C216 1.358 . S
C218 N219 1.279 . S
C218 H259 0.930 . S
N219 C217 1.314 . S
N219 C218 1.279 . S
C220 C222 1.353 . S
C220 N223 1.314 . S
C220 H226 0.930 . S
C221 N223 1.279 . S
C221 C224 1.358 . S
C221 H227 0.930 . S
C222 C220 1.353 . S
C222 C225 1.348 . S
C222 H260 0.929 . S
N223 Li178 1.990 . S
N223 C220 1.314 . S
N223 C221 1.279 . S
C224 C221 1.358 . S
C224 C225 1.356 . S
C224 H261 0.930 . S
C225 C222 1.348 . S
C225 C224 1.356 . S
H226 C220 0.930 . S
H227 C221 0.930 . S
C228 N229 1.314 . S
C228 C230 1.353 . S
C228 H234 0.930 . S
N229 Li179 1.990 . S
N229 C228 1.314 . S
N229 C232 1.279 . S
C230 C228 1.353 . S
C230 C233 1.348 . S
C230 H262 0.929 . S
C231 C232 1.358 . S
C231 C233 1.356 . S
C231 H263 0.930 . S
C232 N229 1.279 . S
C232 C231 1.358 . S
C232 H235 0.930 . S
C233 C230 1.348 . S
C233 C231 1.356 . S
H234 C228 0.930 . S
H235 C232 0.930 . S
O236 Li176 1.956 . S
O236 Li177 1.970 . S
O236 Li178 1.961 . S
O236 C180 1.325 . S
O237 Li176 1.970 . S
O237 Li177 1.956 . S
O237 Li179 1.961 . S
O237 C186 1.325 . S
O238 Li176 1.961 . S
O238 Li178 1.956 . S
O238 Li179 1.970 . S
O238 C208 1.325 . S
O239 Li177 1.961 . S
O239 Li178 1.970 . S
O239 Li179 1.956 . S
O239 C214 1.325 . S
H240 C182 0.929 . S
H241 C183 0.930 . S
H242 C184 0.930 . S
H243 C185 0.930 . S
H244 C187 0.930 . S
H245 C189 0.929 . S
H246 C190 0.930 . S
H247 C191 0.930 . S
H248 C194 0.930 . S
H249 C197 0.929 . S
H250 C202 0.929 . S
H251 C203 0.930 . S
H252 C210 0.929 . S
H253 C211 0.930 . S
H254 C212 0.930 . S
H255 C213 0.930 . S
H256 C215 0.929 . S
H257 C216 0.930 . S
H258 C217 0.930 . S
H259 C218 0.930 . S
H260 C222 0.929 . S
H261 C224 0.930 . S
H262 C230 0.929 . S
H263 C231 0.930 . S
Li264 N281 1.990 . S
Li264 O324 1.956 . S
Li264 O325 1.970 . S
Li264 O326 1.961 . S
Li265 N289 1.990 . S
Li265 O324 1.970 . S
Li265 O325 1.956 . S
Li265 O327 1.961 . S
Li266 N311 1.990 . S
Li266 O324 1.961 . S
Li266 O326 1.956 . S
Li266 O327 1.970 . S
Li267 N317 1.990 . S
Li267 O325 1.961 . S
Li267 O326 1.970 . S
Li267 O327 1.956 . S
C268 C270 1.348 . S
C268 C271 1.356 . S
C268 O324 1.325 . S
N269 C272 1.314 . S
N269 C273 1.279 . S
C270 C268 1.348 . S
C270 C272 1.353 . S
C270 H328 0.929 . S
C271 C268 1.356 . S
C271 C273 1.358 . S
C271 H329 0.930 . S
C272 N269 1.314 . S
C272 C270 1.353 . S
C272 H330 0.930 . S
C273 N269 1.279 . S
C273 C271 1.358 . S
C273 H331 0.930 . S
C274 C277 1.348 . S
C274 C278 1.356 . S
C274 O325 1.325 . S
C275 N276 1.279 . S
C275 C278 1.358 . S
C275 H332 0.930 . S
N276 C275 1.279 . S
N276 C279 1.314 . S
C277 C274 1.348 . S
C277 C279 1.353 . S
C277 H333 0.929 . S
C278 C274 1.356 . S
C278 C275 1.358 . S
C278 H334 0.930 . S
C279 N276 1.314 . S
C279 C277 1.353 . S
C279 H335 0.930 . S
C280 N281 1.314 . S
C280 C285 1.353 . S
C280 H286 0.930 . S
N281 Li264 1.990 . S
N281 C280 1.314 . S
N281 C283 1.279 . S
C282 C283 1.358 . S
C282 C284 1.356 . S
C282 H336 0.930 . S
C283 N281 1.279 . S
C283 C282 1.358 . S
C283 H287 0.930 . S
C284 C282 1.356 . S
C284 C285 1.348 . S
C285 C280 1.353 . S
C285 C284 1.348 . S
C285 H337 0.929 . S
H286 C280 0.930 . S
H287 C283 0.930 . S
C288 N289 1.314 . S
C288 C290 1.353 . S
C288 H294 0.930 . S
N289 Li265 1.990 . S
N289 C288 1.314 . S
N289 C292 1.279 . S
C290 C288 1.353 . S
C290 C293 1.348 . S
C290 H338 0.929 . S
C291 C292 1.358 . S
C291 C293 1.356 . S
C291 H339 0.930 . S
C292 N289 1.279 . S
C292 C291 1.358 . S
C292 H295 0.930 . S
C293 C290 1.348 . S
C293 C291 1.356 . S
H294 C288 0.930 . S
H295 C292 0.930 . S
C296 C298 1.348 . S
C296 C299 1.356 . S
C296 O326 1.325 . S
N297 C300 1.314 . S
N297 C301 1.279 . S
C298 C296 1.348 . S
C298 C300 1.353 . S
C298 H340 0.929 . S
C299 C296 1.356 . S
C299 C301 1.358 . S
C299 H341 0.930 . S
C300 N297 1.314 . S
C300 C298 1.353 . S
C300 H342 0.930 . S
C301 N297 1.279 . S
C301 C299 1.358 . S
C301 H343 0.930 . S
C302 C303 1.348 . S
C302 C304 1.356 . S
C302 O327 1.325 . S
C303 C302 1.348 . S
C303 C305 1.353 . S
C303 H344 0.929 . S
C304 C302 1.356 . S
C304 C306 1.358 . S
C304 H345 0.930 . S
C305 C303 1.353 . S
C305 N307 1.314 . S
C305 H346 0.930 . S
C306 C304 1.358 . S
C306 N307 1.279 . S
C306 H347 0.930 . S
N307 C305 1.314 . S
N307 C306 1.279 . S
C308 C310 1.353 . S
C308 N311 1.314 . S
C308 H314 0.930 . S
C309 N311 1.279 . S
C309 C312 1.358 . S
C309 H315 0.930 . S
C310 C308 1.353 . S
C310 C313 1.348 . S
C310 H348 0.929 . S
N311 Li266 1.990 . S
N311 C308 1.314 . S
N311 C309 1.279 . S
C312 C309 1.358 . S
C312 C313 1.356 . S
C312 H349 0.930 . S
C313 C310 1.348 . S
C313 C312 1.356 . S
H314 C308 0.930 . S
H315 C309 0.930 . S
C316 N317 1.314 . S
C316 C318 1.353 . S
C316 H322 0.930 . S
N317 Li267 1.990 . S
N317 C316 1.314 . S
N317 C320 1.279 . S
C318 C316 1.353 . S
C318 C321 1.348 . S
C318 H350 0.929 . S
C319 C320 1.358 . S
C319 C321 1.356 . S
C319 H351 0.930 . S
C320 N317 1.279 . S
C320 C319 1.358 . S
C320 H323 0.930 . S
C321 C318 1.348 . S
C321 C319 1.356 . S
H322 C316 0.930 . S
H323 C320 0.930 . S
O324 Li264 1.956 . S
O324 Li265 1.970 . S
O324 Li266 1.961 . S
O324 C268 1.325 . S
O325 Li264 1.970 . S
O325 Li265 1.956 . S
O325 Li267 1.961 . S
O325 C274 1.325 . S
O326 Li264 1.961 . S
O326 Li266 1.956 . S
O326 Li267 1.970 . S
O326 C296 1.325 . S
O327 Li265 1.961 . S
O327 Li266 1.970 . S
O327 Li267 1.956 . S
O327 C302 1.325 . S
H328 C270 0.929 . S
H329 C271 0.930 . S
H330 C272 0.930 . S
H331 C273 0.930 . S
H332 C275 0.930 . S
H333 C277 0.929 . S
H334 C278 0.930 . S
H335 C279 0.930 . S
H336 C282 0.930 . S
H337 C285 0.929 . S
H338 C290 0.929 . S
H339 C291 0.930 . S
H340 C298 0.929 . S
H341 C299 0.930 . S
H342 C300 0.930 . S
H343 C301 0.930 . S
H344 C303 0.929 . S
H345 C304 0.930 . S
H346 C305 0.930 . S
H347 C306 0.930 . S
H348 C310 0.929 . S
H349 C312 0.930 . S
H350 C318 0.929 . S
H351 C319 0.930 . S
Li352 N369 1.990 . S
Li352 O412 1.956 . S
Li352 O413 1.970 . S
Li352 O414 1.961 . S
Li353 N377 1.990 . S
Li353 O412 1.970 . S
Li353 O413 1.956 . S
Li353 O415 1.961 . S
Li354 N399 1.990 . S
Li354 O412 1.961 . S
Li354 O414 1.956 . S
Li354 O415 1.970 . S
Li355 N405 1.990 . S
Li355 O413 1.961 . S
Li355 O414 1.970 . S
Li355 O415 1.956 . S
C356 C358 1.348 . S
C356 C359 1.356 . S
C356 O412 1.325 . S
N357 C360 1.314 . S
N357 C361 1.279 . S
C358 C356 1.348 . S
C358 C360 1.353 . S
C358 H416 0.929 . S
C359 C356 1.356 . S
C359 C361 1.358 . S
C359 H417 0.930 . S
C360 N357 1.314 . S
C360 C358 1.353 . S
C360 H418 0.930 . S
C361 N357 1.279 . S
C361 C359 1.358 . S
C361 H419 0.930 1_554 S
C362 C365 1.348 . S
C362 C366 1.356 . S
C362 O413 1.325 . S
C363 N364 1.279 . S
C363 C366 1.358 . S
C363 H420 0.930 . S
N364 C363 1.279 . S
N364 C367 1.314 . S
C365 C362 1.348 . S
C365 C367 1.353 . S
C365 H421 0.929 . S
C366 C362 1.356 . S
C366 C363 1.358 . S
C366 H422 0.930 . S
C367 N364 1.314 . S
C367 C365 1.353 . S
C367 H423 0.930 . S
C368 N369 1.314 . S
C368 C373 1.353 . S
C368 H374 0.930 . S
N369 Li352 1.990 . S
N369 C368 1.314 . S
N369 C371 1.279 . S
C370 C371 1.358 . S
C370 C372 1.356 . S
C370 H424 0.930 . S
C371 N369 1.279 . S
C371 C370 1.358 . S
C371 H375 0.930 . S
C372 C370 1.356 . S
C372 C373 1.348 . S
C373 C368 1.353 . S
C373 C372 1.348 . S
C373 H425 0.929 . S
H374 C368 0.930 . S
H375 C371 0.930 . S
C376 N377 1.314 . S
C376 C378 1.353 . S
C376 H382 0.930 . S
N377 Li353 1.990 . S
N377 C376 1.314 . S
N377 C380 1.279 . S
C378 C376 1.353 . S
C378 C381 1.348 . S
C378 H426 0.929 . S
C379 C380 1.358 . S
C379 C381 1.356 . S
C379 H427 0.930 . S
C380 N377 1.279 . S
C380 C379 1.358 . S
C380 H383 0.930 . S
C381 C378 1.348 . S
C381 C379 1.356 . S
H382 C376 0.930 . S
H383 C380 0.930 . S
C384 C386 1.348 1_455 S
C384 C387 1.356 . S
C384 O414 1.325 . S
N385 C388 1.314 . S
N385 C389 1.279 . S
C386 C384 1.348 1_655 S
C386 C388 1.353 . S
C386 H428 0.929 . S
C387 C384 1.356 . S
C387 C389 1.358 1_455 S
C387 H429 0.930 . S
C388 N385 1.314 . S
C388 C386 1.353 . S
C388 H430 0.930 . S
C389 N385 1.279 . S
C389 C387 1.358 1_655 S
C389 H431 0.930 1_554 S
C390 C391 1.348 . S
C390 C392 1.356 . S
C390 O415 1.325 . S
C391 C390 1.348 . S
C391 C393 1.353 . S
C391 H432 0.929 . S
C392 C390 1.356 . S
C392 C394 1.358 . S
C392 H433 0.930 . S
C393 C391 1.353 . S
C393 N395 1.314 . S
C393 H434 0.930 . S
C394 C392 1.358 . S
C394 N395 1.279 . S
C394 H435 0.930 . S
N395 C393 1.314 . S
N395 C394 1.279 . S
C396 C398 1.353 . S
C396 N399 1.314 . S
C396 H402 0.930 . S
C397 N399 1.279 . S
C397 C400 1.358 . S
C397 H403 0.930 . S
C398 C396 1.353 . S
C398 C401 1.348 . S
C398 H436 0.929 . S
N399 Li354 1.990 . S
N399 C396 1.314 . S
N399 C397 1.279 . S
C400 C397 1.358 . S
C400 C401 1.356 . S
C400 H437 0.937 . S
C401 C398 1.348 . S
C401 C400 1.356 . S
H402 C396 0.930 . S
H403 C397 0.930 . S
C404 N405 1.314 . S
C404 C406 1.353 1_455 S
C404 H410 0.930 . S
N405 Li355 1.990 . S
N405 C404 1.314 . S
N405 C408 1.279 . S
C406 C404 1.353 1_655 S
C406 C409 1.348 . S
C406 H438 0.929 . S
C407 C408 1.358 1_655 S
C407 C409 1.356 . S
C407 H439 0.930 . S
C408 N405 1.279 . S
C408 C407 1.358 1_455 S
C408 H411 0.930 . S
C409 C406 1.348 . S
C409 C407 1.356 . S
H410 C404 0.930 . S
H411 C408 0.930 . S
O412 Li352 1.956 . S
O412 Li353 1.970 . S
O412 Li354 1.961 . S
O412 C356 1.325 . S
O413 Li352 1.970 . S
O413 Li353 1.956 . S
O413 Li355 1.961 . S
O413 C362 1.325 . S
O414 Li352 1.961 . S
O414 Li354 1.956 . S
O414 Li355 1.970 . S
O414 C384 1.325 . S
O415 Li353 1.961 . S
O415 Li354 1.970 . S
O415 Li355 1.956 . S
O415 C390 1.325 . S
H416 C358 0.929 . S
H417 C359 0.930 . S
H418 C360 0.930 . S
H419 C361 0.930 1_556 S
H420 C363 0.930 . S
H421 C365 0.929 . S
H422 C366 0.930 . S
H423 C367 0.930 . S
H424 C370 0.930 . S
H425 C373 0.929 . S
H426 C378 0.929 . S
H427 C379 0.930 . S
H428 C386 0.929 . S
H429 C387 0.930 . S
H430 C388 0.930 . S
H431 C389 0.930 1_556 S
H432 C391 0.929 . S
H433 C392 0.930 . S
H434 C393 0.930 . S
H435 C394 0.930 . S
H436 C398 0.929 . S
H437 C400 0.937 . S
H438 C406 0.929 . S
H439 C407 0.930 . S
Li440 N457 1.990 . S
Li440 O500 1.956 . S
Li440 O501 1.970 . S
Li440 O502 1.961 . S
Li441 N465 1.990 . S
Li441 O500 1.970 . S
Li441 O501 1.956 . S
Li441 O503 1.961 . S
Li442 N487 1.990 . S
Li442 O500 1.961 . S
Li442 O502 1.956 . S
Li442 O503 1.970 . S
Li443 N493 1.990 . S
Li443 O501 1.961 . S
Li443 O502 1.970 . S
Li443 O503 1.956 . S
C444 C446 1.348 . S
C444 C447 1.356 . S
C444 O500 1.325 . S
N445 C448 1.314 . S
N445 C449 1.279 . S
C446 C444 1.348 . S
C446 C448 1.353 . S
C446 H504 0.929 . S
C447 C444 1.356 . S
C447 C449 1.358 . S
C447 H505 0.930 . S
C448 N445 1.314 . S
C448 C446 1.353 . S
C448 H506 0.930 . S
C449 N445 1.279 . S
C449 C447 1.358 . S
C449 H507 0.930 . S
C450 C453 1.348 . S
C450 C454 1.356 . S
C450 O501 1.325 . S
C451 N452 1.279 . S
C451 C454 1.358 . S
C451 H508 0.930 . S
N452 C451 1.279 . S
N452 C455 1.314 . S
C453 C450 1.348 . S
C453 C455 1.353 . S
C453 H509 0.929 . S
C454 C450 1.356 . S
C454 C451 1.358 . S
C454 H510 0.930 . S
C455 N452 1.314 . S
C455 C453 1.353 . S
C455 H511 0.930 . S
C456 N457 1.314 . S
C456 C461 1.353 . S
C456 H462 0.930 . S
N457 Li440 1.990 . S
N457 C456 1.314 . S
N457 C459 1.279 . S
C458 C459 1.358 . S
C458 C460 1.356 . S
C458 H512 0.930 . S
C459 N457 1.279 . S
C459 C458 1.358 . S
C459 H463 0.930 . S
C460 C458 1.356 . S
C460 C461 1.348 . S
C461 C456 1.353 . S
C461 C460 1.348 . S
C461 H513 0.929 . S
H462 C456 0.930 . S
H463 C459 0.930 . S
C464 N465 1.314 . S
C464 C466 1.353 . S
C464 H470 0.930 . S
N465 Li441 1.990 . S
N465 C464 1.314 . S
N465 C468 1.279 . S
C466 C464 1.353 . S
C466 C469 1.348 . S
C466 H514 0.929 . S
C467 C468 1.358 . S
C467 C469 1.356 . S
C467 H515 0.930 . S
C468 N465 1.279 . S
C468 C467 1.358 . S
C468 H471 0.930 . S
C469 C466 1.348 . S
C469 C467 1.356 . S
H470 C464 0.930 . S
H471 C468 0.930 . S
C472 C474 1.348 . S
C472 C475 1.356 . S
C472 O502 1.325 . S
N473 C476 1.314 . S
N473 C477 1.279 . S
C474 C472 1.348 . S
C474 C476 1.353 . S
C474 H516 0.929 . S
C475 C472 1.356 . S
C475 C477 1.358 . S
C475 H517 0.930 . S
C476 N473 1.314 . S
C476 C474 1.353 . S
C476 H518 0.930 . S
C477 N473 1.279 . S
C477 C475 1.358 . S
C477 H519 0.930 . S
C478 C479 1.348 . S
C478 C480 1.356 . S
C478 O503 1.325 . S
C479 C478 1.348 . S
C479 C481 1.353 . S
C479 H520 0.929 . S
C480 C478 1.356 . S
C480 C482 1.358 . S
C480 H521 0.930 . S
C481 C479 1.353 . S
C481 N483 1.314 . S
C481 H522 0.930 . S
C482 C480 1.358 . S
C482 N483 1.279 . S
C482 H523 0.930 . S
N483 C481 1.314 . S
N483 C482 1.279 . S
C484 C486 1.353 . S
C484 N487 1.314 . S
C484 H490 0.930 . S
C485 N487 1.279 . S
C485 C488 1.358 . S
C485 H491 0.930 . S
C486 C484 1.353 . S
C486 C489 1.348 . S
C486 H524 0.929 . S
N487 Li442 1.990 . S
N487 C484 1.314 . S
N487 C485 1.279 . S
C488 C485 1.358 . S
C488 C489 1.356 . S
C488 H525 0.930 . S
C489 C486 1.348 . S
C489 C488 1.356 . S
H490 C484 0.930 . S
H491 C485 0.930 . S
C492 N493 1.314 . S
C492 C494 1.353 . S
C492 H498 0.930 . S
N493 Li443 1.990 . S
N493 C492 1.314 . S
N493 C496 1.279 . S
C494 C492 1.353 . S
C494 C497 1.348 . S
C494 H526 0.929 . S
C495 C496 1.358 . S
C495 C497 1.356 . S
C495 H527 0.930 . S
C496 N493 1.279 . S
C496 C495 1.358 . S
C496 H499 0.930 . S
C497 C494 1.348 . S
C497 C495 1.356 . S
H498 C492 0.930 . S
H499 C496 0.930 . S
O500 Li440 1.956 . S
O500 Li441 1.970 . S
O500 Li442 1.961 . S
O500 C444 1.325 . S
O501 Li440 1.970 . S
O501 Li441 1.956 . S
O501 Li443 1.961 . S
O501 C450 1.325 . S
O502 Li440 1.961 . S
O502 Li442 1.956 . S
O502 Li443 1.970 . S
O502 C472 1.325 . S
O503 Li441 1.961 . S
O503 Li442 1.970 . S
O503 Li443 1.956 . S
O503 C478 1.325 . S
H504 C446 0.929 . S
H505 C447 0.930 . S
H506 C448 0.930 . S
H507 C449 0.930 . S
H508 C451 0.930 . S
H509 C453 0.929 . S
H510 C454 0.930 . S
H511 C455 0.930 . S
H512 C458 0.930 . S
H513 C461 0.929 . S
H514 C466 0.929 . S
H515 C467 0.930 . S
H516 C474 0.929 . S
H517 C475 0.930 . S
H518 C476 0.930 . S
H519 C477 0.930 . S
H520 C479 0.929 . S
H521 C480 0.930 . S
H522 C481 0.930 . S
H523 C482 0.930 . S
H524 C486 0.929 . S
H525 C488 0.930 . S
H526 C494 0.929 . S
H527 C495 0.930 . S
Li528 N545 1.990 . S
Li528 O588 1.956 . S
Li528 O589 1.970 . S
Li528 O590 1.961 . S
Li529 N553 1.990 . S
Li529 O588 1.970 . S
Li529 O589 1.956 . S
Li529 O591 1.961 . S
Li530 N575 1.990 . S
Li530 O588 1.961 . S
Li530 O590 1.956 . S
Li530 O591 1.970 . S
Li531 N581 1.990 . S
Li531 O589 1.961 . S
Li531 O590 1.970 . S
Li531 O591 1.956 . S
C532 C534 1.348 . S
C532 C535 1.356 . S
C532 O588 1.325 . S
N533 C536 1.314 . S
N533 C537 1.279 . S
C534 C532 1.348 . S
C534 C536 1.353 . S
C534 H592 0.929 . S
C535 C532 1.356 . S
C535 C537 1.358 . S
C535 H593 0.930 . S
C536 N533 1.314 . S
C536 C534 1.353 . S
C536 H594 0.930 . S
C537 N533 1.279 . S
C537 C535 1.358 . S
C537 H595 0.930 . S
C538 C541 1.348 . S
C538 C542 1.356 . S
C538 O589 1.325 . S
C539 N540 1.279 . S
C539 C542 1.358 . S
C539 H596 0.930 . S
N540 C539 1.279 . S
N540 C543 1.314 . S
C541 C538 1.348 . S
C541 C543 1.353 . S
C541 H597 0.929 . S
C542 C538 1.356 . S
C542 C539 1.358 . S
C542 H598 0.930 . S
C543 N540 1.314 . S
C543 C541 1.353 . S
C543 H599 0.930 . S
C544 N545 1.314 . S
C544 C549 1.353 . S
C544 H550 0.930 . S
N545 Li528 1.990 . S
N545 C544 1.314 . S
N545 C547 1.279 . S
C546 C547 1.358 . S
C546 C548 1.356 . S
C546 H600 0.930 . S
C547 N545 1.279 . S
C547 C546 1.358 . S
C547 H551 0.930 . S
C548 C546 1.356 . S
C548 C549 1.348 . S
C549 C544 1.353 . S
C549 C548 1.348 . S
C549 H601 0.929 . S
H550 C544 0.930 . S
H551 C547 0.930 . S
C552 N553 1.314 . S
C552 C554 1.353 . S
C552 H558 0.930 . S
N553 Li529 1.990 . S
N553 C552 1.314 . S
N553 C556 1.279 . S
C554 C552 1.353 . S
C554 C557 1.348 . S
C554 H602 0.929 . S
C555 C556 1.358 . S
C555 C557 1.356 . S
C555 H603 0.930 . S
C556 N553 1.279 . S
C556 C555 1.358 . S
C556 H559 0.930 . S
C557 C554 1.348 . S
C557 C555 1.356 . S
H558 C552 0.930 . S
H559 C556 0.930 . S
C560 C562 1.348 . S
C560 C563 1.356 . S
C560 O590 1.325 . S
N561 C564 1.314 . S
N561 C565 1.279 . S
C562 C560 1.348 . S
C562 C564 1.353 . S
C562 H604 0.929 . S
C563 C560 1.356 . S
C563 C565 1.358 . S
C563 H605 0.930 . S
C564 N561 1.314 . S
C564 C562 1.353 . S
C564 H606 0.930 . S
C565 N561 1.279 . S
C565 C563 1.358 . S
C565 H607 0.930 . S
C566 C567 1.348 . S
C566 C568 1.356 . S
C566 O591 1.325 . S
C567 C566 1.348 . S
C567 C569 1.353 . S
C567 H608 0.929 . S
C568 C566 1.356 . S
C568 C570 1.358 . S
C568 H609 0.930 . S
C569 C567 1.353 . S
C569 N571 1.314 . S
C569 H610 0.930 . S
C570 C568 1.358 . S
C570 N571 1.279 . S
C570 H611 0.930 . S
N571 C569 1.314 . S
N571 C570 1.279 . S
C572 C574 1.353 . S
C572 N575 1.314 . S
C572 H578 0.930 . S
C573 N575 1.279 . S
C573 C576 1.358 . S
C573 H579 0.930 . S
C574 C572 1.353 . S
C574 C577 1.348 . S
C574 H612 0.929 . S
N575 Li530 1.990 . S
N575 C572 1.314 . S
N575 C573 1.279 . S
C576 C573 1.358 . S
C576 C577 1.356 . S
C576 H613 0.930 . S
C577 C574 1.348 . S
C577 C576 1.356 . S
H578 C572 0.930 . S
H579 C573 0.930 . S
C580 N581 1.314 . S
C580 C582 1.353 . S
C580 H586 0.930 . S
N581 Li531 1.990 . S
N581 C580 1.314 . S
N581 C584 1.279 . S
C582 C580 1.353 . S
C582 C585 1.348 . S
C582 H614 0.929 . S
C583 C584 1.358 . S
C583 C585 1.356 . S
C583 H615 0.930 . S
C584 N581 1.279 . S
C584 C583 1.358 . S
C584 H587 0.930 . S
C585 C582 1.348 . S
C585 C583 1.356 . S
H586 C580 0.930 . S
H587 C584 0.930 . S
O588 Li528 1.956 . S
O588 Li529 1.970 . S
O588 Li530 1.961 . S
O588 C532 1.325 . S
O589 Li528 1.970 . S
O589 Li529 1.956 . S
O589 Li531 1.961 . S
O589 C538 1.325 . S
O590 Li528 1.961 . S
O590 Li530 1.956 . S
O590 Li531 1.970 . S
O590 C560 1.325 . S
O591 Li529 1.961 . S
O591 Li530 1.970 . S
O591 Li531 1.956 . S
O591 C566 1.325 . S
H592 C534 0.929 . S
H593 C535 0.930 . S
H594 C536 0.930 . S
H595 C537 0.930 . S
H596 C539 0.930 . S
H597 C541 0.929 . S
H598 C542 0.930 . S
H599 C543 0.930 . S
H600 C546 0.930 . S
H601 C549 0.929 . S
H602 C554 0.929 . S
H603 C555 0.930 . S
H604 C562 0.929 . S
H605 C563 0.930 . S
H606 C564 0.930 . S
H607 C565 0.930 . S
H608 C567 0.929 . S
H609 C568 0.930 . S
H610 C569 0.930 . S
H611 C570 0.930 . S
H612 C574 0.929 . S
H613 C576 0.930 . S
H614 C582 0.929 . S
H615 C583 0.930 . S
Li616 N633 1.990 1_556 S
Li616 O676 1.956 1_455 S
Li616 O677 1.970 . S
Li616 O678 1.961 . S
Li617 N641 1.990 . S
Li617 O676 1.970 . S
Li617 O677 1.956 1_655 S
Li617 O679 1.961 . S
Li618 N663 1.990 1_556 S
Li618 O676 1.961 1_455 S
Li618 O678 1.956 . S
Li618 O679 1.970 1_455 S
Li619 N669 1.990 . S
Li619 O677 1.961 . S
Li619 O678 1.970 . S
Li619 O679 1.956 1_455 S
C620 C622 1.348 1_554 S
C620 C623 1.356 . S
C620 O676 1.325 1_554 S
N621 C624 1.314 . S
N621 C625 1.279 . S
C622 C620 1.348 1_556 S
C622 C624 1.353 1_556 S
C622 H680 0.929 . S
C623 C620 1.356 . S
C623 C625 1.358 . S
C623 H681 0.930 . S
C624 N621 1.314 . S
C624 C622 1.353 1_554 S
C624 H682 0.930 . S
C625 N621 1.279 . S
C625 C623 1.358 . S
C625 H683 0.930 . S
C626 C629 1.348 . S
C626 C630 1.356 . S
C626 O677 1.325 . S
C627 N628 1.279 . S
C627 C630 1.358 . S
C627 H684 0.930 . S
N628 C627 1.279 . S
N628 C631 1.314 . S
C629 C626 1.348 . S
C629 C631 1.353 . S
C629 H685 0.929 1_455 S
C630 C626 1.356 . S
C630 C627 1.358 . S
C630 H686 0.930 . S
C631 N628 1.314 . S
C631 C629 1.353 . S
C631 H687 0.940 . S
C632 N633 1.314 . S
C632 C637 1.353 . S
C632 H638 0.930 . S
N633 Li616 1.990 1_554 S
N633 C632 1.314 . S
N633 C635 1.279 1_455 S
C634 C635 1.360 1_455 S
C634 C636 1.363 . S
C634 H688 0.921 1_455 S
C635 N633 1.279 1_655 S
C635 C634 1.360 1_655 S
C635 H639 0.930 . S
C636 C634 1.363 . S
C636 C637 1.348 . S
C637 C632 1.353 . S
C637 C636 1.348 . S
C637 H689 0.929 . S
H638 C632 0.930 . S
H639 C635 0.930 . S
C640 N641 1.314 . S
C640 C642 1.353 . S
C640 H646 0.930 . S
N641 Li617 1.990 . S
N641 C640 1.314 . S
N641 C644 1.279 . S
C642 C640 1.353 . S
C642 C645 1.348 . S
C642 H690 0.929 . S
C643 C644 1.358 . S
C643 C645 1.356 . S
C643 H691 0.930 . S
C644 N641 1.279 . S
C644 C643 1.358 . S
C644 H647 0.930 . S
C645 C642 1.348 . S
C645 C643 1.356 . S
H646 C640 0.930 . S
H647 C644 0.930 . S
C648 C650 1.348 . S
C648 C651 1.356 . S
C648 O678 1.325 1_554 S
N649 C652 1.314 . S
N649 C653 1.279 . S
C650 C648 1.348 . S
C650 C652 1.353 . S
C650 H692 0.929 1_554 S
C651 C648 1.356 . S
C651 C653 1.358 . S
C651 H693 0.930 . S
C652 N649 1.314 . S
C652 C650 1.353 . S
C652 H694 0.930 . S
C653 N649 1.279 . S
C653 C651 1.358 . S
C653 H695 0.930 . S
C654 C655 1.348 . S
C654 C656 1.356 . S
C654 O679 1.325 . S
C655 C654 1.348 . S
C655 C657 1.353 . S
C655 H696 0.929 1_655 S
C656 C654 1.356 . S
C656 C658 1.358 . S
C656 H697 0.930 . S
C657 C655 1.353 . S
C657 N659 1.314 . S
C657 H698 0.930 . S
C658 C656 1.358 . S
C658 N659 1.279 . S
C658 H699 0.930 . S
N659 C657 1.314 . S
N659 C658 1.279 . S
C660 C662 1.353 . S
C660 N663 1.314 1_655 S
C660 H666 0.930 . S
C661 N663 1.279 . S
C661 C664 1.358 . S
C661 H667 0.930 . S
C662 C660 1.353 . S
C662 C665 1.348 . S
C662 H700 0.929 . S
N663 Li618 1.990 1_554 S
N663 C660 1.314 1_455 S
N663 C661 1.279 . S
C664 C661 1.358 . S
C664 C665 1.356 1_455 S
C664 H701 0.930 . S
C665 C662 1.348 . S
C665 C664 1.356 1_655 S
H666 C660 0.930 . S
H667 C661 0.930 . S
C668 N669 1.314 . S
C668 C670 1.353 . S
C668 H674 0.930 . S
N669 Li619 1.990 . S
N669 C668 1.314 . S
N669 C672 1.279 . S
C670 C668 1.353 . S
C670 C673 1.348 . S
C670 H702 0.929 . S
C671 C672 1.358 . S
C671 C673 1.356 . S
C671 H703 0.930 . S
C672 N669 1.279 . S
C672 C671 1.358 . S
C672 H675 0.930 . S
C673 C670 1.348 . S
C673 C671 1.356 . S
H674 C668 0.930 . S
H675 C672 0.930 . S
O676 Li616 1.956 1_655 S
O676 Li617 1.970 . S
O676 Li618 1.961 1_655 S
O676 C620 1.325 1_556 S
O677 Li616 1.970 . S
O677 Li617 1.956 1_455 S
O677 Li619 1.961 . S
O677 C626 1.325 . S
O678 Li616 1.961 . S
O678 Li618 1.956 . S
O678 Li619 1.970 . S
O678 C648 1.325 1_556 S
O679 Li617 1.961 . S
O679 Li618 1.970 1_655 S
O679 Li619 1.956 1_655 S
O679 C654 1.325 . S
H680 C622 0.929 . S
H681 C623 0.930 . S
H682 C624 0.930 . S
H683 C625 0.930 . S
H684 C627 0.930 . S
H685 C629 0.929 1_655 S
H686 C630 0.930 . S
H687 C631 0.940 . S
H688 C634 0.921 1_655 S
H689 C637 0.929 . S
H690 C642 0.929 . S
H691 C643 0.930 . S
H692 C650 0.929 1_556 S
H693 C651 0.930 . S
H694 C652 0.930 . S
H695 C653 0.930 . S
H696 C655 0.929 1_455 S
H697 C656 0.930 . S
H698 C657 0.930 . S
H699 C658 0.930 . S
H700 C662 0.929 . S
H701 C664 0.930 . S
H702 C670 0.929 . S
H703 C671 0.930 . S
Li704 N721 1.990 . S
Li704 O764 1.956 1_545 S
Li704 O765 1.970 . S
Li704 O766 1.961 . S
Li705 N729 1.990 . S
Li705 O764 1.970 . S
Li705 O765 1.956 1_565 S
Li705 O767 1.961 . S
Li706 N751 1.990 . S
Li706 O764 1.961 1_545 S
Li706 O766 1.956 . S
Li706 O767 1.970 1_545 S
Li707 N757 1.990 . S
Li707 O765 1.961 . S
Li707 O766 1.970 . S
Li707 O767 1.956 1_545 S
C708 C710 1.348 . S
C708 C711 1.356 . S
C708 O764 1.325 . S
N709 C712 1.314 . S
N709 C713 1.279 . S
C710 C708 1.348 . S
C710 C712 1.353 . S
C710 H768 0.929 . S
C711 C708 1.356 . S
C711 C713 1.358 . S
C711 H769 0.930 . S
C712 N709 1.314 . S
C712 C710 1.353 . S
C712 H770 0.930 . S
C713 N709 1.279 . S
C713 C711 1.358 . S
C713 H771 0.930 . S
C714 C717 1.338 1_545 S
C714 C718 1.353 . S
C714 O765 1.326 . S
C715 N716 1.289 . S
C715 C718 1.358 1_565 S
C715 H772 0.914 1_565 S
N716 C715 1.289 . S
N716 C719 1.314 . S
C717 C714 1.338 1_565 S
C717 C719 1.353 . S
C717 H773 0.929 . S
C718 C714 1.353 . S
C718 C715 1.358 1_545 S
C718 H774 0.941 . S
C719 N716 1.314 . S
C719 C717 1.353 . S
C719 H775 0.930 . S
C720 N721 1.314 . S
C720 C725 1.353 . S
C720 H726 0.930 . S
N721 Li704 1.990 . S
N721 C720 1.314 . S
N721 C723 1.279 1_545 S
C722 C723 1.357 . S
C722 C724 1.349 1_565 S
C722 H776 0.938 . S
C723 N721 1.279 1_565 S
C723 C722 1.357 . S
C723 H727 0.930 . S
C724 C722 1.349 1_545 S
C724 C725 1.348 . S
C725 C720 1.353 . S
C725 C724 1.348 . S
C725 H777 0.929 . S
H726 C720 0.930 . S
H727 C723 0.930 . S
C728 N729 1.314 . S
C728 C730 1.353 . S
C728 H734 0.930 . S
N729 Li705 1.990 . S
N729 C728 1.314 . S
N729 C732 1.279 . S
C730 C728 1.353 . S
C730 C733 1.348 . S
C730 H778 0.929 . S
C731 C732 1.358 . S
C731 C733 1.356 . S
C731 H779 0.930 . S
C732 N729 1.279 . S
C732 C731 1.358 . S
C732 H735 0.930 . S
C733 C730 1.348 . S
C733 C731 1.356 . S
H734 C728 0.930 . S
H735 C732 0.930 . S
C736 C738 1.348 . S
C736 C739 1.356 . S
C736 O766 1.325 . S
N737 C740 1.314 . S
N737 C741 1.279 . S
C738 C736 1.348 . S
C738 C740 1.353 . S
C738 H780 0.929 . S
C739 C736 1.356 . S
C739 C741 1.358 . S
C739 H781 0.930 . S
C740 N737 1.314 . S
C740 C738 1.353 . S
C740 H782 0.930 . S
C741 N737 1.279 . S
C741 C739 1.358 . S
C741 H783 0.930 . S
C742 C743 1.348 . S
C742 C744 1.356 . S
C742 O767 1.325 . S
C743 C742 1.348 . S
C743 C745 1.353 . S
C743 H784 0.929 1_565 S
C744 C742 1.356 . S
C744 C746 1.358 . S
C744 H785 0.930 . S
C745 C743 1.353 . S
C745 N747 1.314 . S
C745 H786 0.930 . S
C746 C744 1.358 . S
C746 N747 1.279 . S
C746 H787 0.930 . S
N747 C745 1.314 . S
N747 C746 1.279 . S
C748 C750 1.353 . S
C748 N751 1.314 1_565 S
C748 H754 0.930 . S
C749 N751 1.279 . S
C749 C752 1.358 . S
C749 H755 0.930 . S
C750 C748 1.353 . S
C750 C753 1.348 1_565 S
C750 H788 0.929 . S
N751 Li706 1.990 . S
N751 C748 1.314 1_545 S
N751 C749 1.279 . S
C752 C749 1.358 . S
C752 C753 1.356 . S
C752 H789 0.930 . S
C753 C750 1.348 1_545 S
C753 C752 1.356 . S
H754 C748 0.930 . S
H755 C749 0.930 . S
C756 N757 1.314 . S
C756 C758 1.353 . S
C756 H762 0.930 . S
N757 Li707 1.990 . S
N757 C756 1.314 . S
N757 C760 1.279 . S
C758 C756 1.353 . S
C758 C761 1.348 . S
C758 H790 0.929 . S
C759 C760 1.358 . S
C759 C761 1.356 . S
C759 H791 0.930 . S
C760 N757 1.279 . S
C760 C759 1.358 . S
C760 H763 0.930 . S
C761 C758 1.348 . S
C761 C759 1.356 . S
H762 C756 0.930 . S
H763 C760 0.930 . S
O764 Li704 1.956 1_565 S
O764 Li705 1.970 . S
O764 Li706 1.961 1_565 S
O764 C708 1.325 . S
O765 Li704 1.970 . S
O765 Li705 1.956 1_545 S
O765 Li707 1.961 . S
O765 C714 1.326 . S
O766 Li704 1.961 . S
O766 Li706 1.956 . S
O766 Li707 1.970 . S
O766 C736 1.325 . S
O767 Li705 1.961 . S
O767 Li706 1.970 1_565 S
O767 Li707 1.956 1_565 S
O767 C742 1.325 . S
H768 C710 0.929 . S
H769 C711 0.930 . S
H770 C712 0.930 . S
H771 C713 0.930 . S
H772 C715 0.914 1_545 S
H773 C717 0.929 . S
H774 C718 0.941 . S
H775 C719 0.930 . S
H776 C722 0.938 . S
H777 C725 0.929 . S
H778 C730 0.929 . S
H779 C731 0.930 . S
H780 C738 0.929 . S
H781 C739 0.930 . S
H782 C740 0.930 . S
H783 C741 0.930 . S
H784 C743 0.929 1_545 S
H785 C744 0.930 . S
H786 C745 0.930 . S
H787 C746 0.930 . S
H788 C750 0.929 . S
H789 C752 0.930 . S
H790 C758 0.929 . S
H791 C759 0.930 . S
Li792 N809 1.990 . S
Li792 O852 1.956 . S
Li792 O853 1.970 . S
Li792 O854 1.961 . S
Li793 N817 1.990 . S
Li793 O852 1.970 . S
Li793 O853 1.956 . S
Li793 O855 1.961 . S
Li794 N839 1.990 . S
Li794 O852 1.961 . S
Li794 O854 1.956 . S
Li794 O855 1.970 . S
Li795 N845 1.990 . S
Li795 O853 1.961 . S
Li795 O854 1.970 . S
Li795 O855 1.956 . S
C796 C798 1.348 . S
C796 C799 1.356 . S
C796 O852 1.325 . S
N797 C800 1.314 . S
N797 C801 1.279 . S
C798 C796 1.348 . S
C798 C800 1.353 . S
C798 H856 0.929 . S
C799 C796 1.356 . S
C799 C801 1.358 . S
C799 H857 0.930 . S
C800 N797 1.314 . S
C800 C798 1.353 . S
C800 H858 0.930 . S
C801 N797 1.279 . S
C801 C799 1.358 . S
C801 H859 0.930 . S
C802 C805 1.348 . S
C802 C806 1.356 . S
C802 O853 1.325 . S
C803 N804 1.279 . S
C803 C806 1.358 . S
C803 H860 0.930 . S
N804 C803 1.279 . S
N804 C807 1.314 . S
C805 C802 1.348 . S
C805 C807 1.353 . S
C805 H861 0.929 . S
C806 C802 1.356 . S
C806 C803 1.358 . S
C806 H862 0.930 . S
C807 N804 1.314 . S
C807 C805 1.353 . S
C807 H863 0.930 . S
C808 N809 1.314 . S
C808 C813 1.353 . S
C808 H814 0.930 . S
N809 Li792 1.990 . S
N809 C808 1.314 . S
N809 C811 1.279 . S
C810 C811 1.358 . S
C810 C812 1.356 . S
C810 H864 0.930 . S
C811 N809 1.279 . S
C811 C810 1.358 . S
C811 H815 0.930 . S
C812 C810 1.356 . S
C812 C813 1.348 . S
C813 C808 1.353 . S
C813 C812 1.348 . S
C813 H865 0.929 . S
H814 C808 0.930 . S
H815 C811 0.930 . S
C816 N817 1.314 . S
C816 C818 1.353 . S
C816 H822 0.930 . S
N817 Li793 1.990 . S
N817 C816 1.314 . S
N817 C820 1.279 . S
C818 C816 1.353 . S
C818 C821 1.348 . S
C818 H866 0.929 . S
C819 C820 1.358 . S
C819 C821 1.356 . S
C819 H867 0.930 . S
C820 N817 1.279 . S
C820 C819 1.358 . S
C820 H823 0.930 . S
C821 C818 1.348 . S
C821 C819 1.356 . S
H822 C816 0.930 . S
H823 C820 0.930 . S
C824 C826 1.348 . S
C824 C827 1.356 . S
C824 O854 1.325 . S
N825 C828 1.314 . S
N825 C829 1.279 . S
C826 C824 1.348 . S
C826 C828 1.353 . S
C826 H868 0.929 . S
C827 C824 1.356 . S
C827 C829 1.358 . S
C827 H869 0.930 . S
C828 N825 1.314 . S
C828 C826 1.353 . S
C828 H870 0.930 . S
C829 N825 1.279 . S
C829 C827 1.358 . S
C829 H871 0.930 . S
C830 C831 1.348 . S
C830 C832 1.356 . S
C830 O855 1.325 . S
C831 C830 1.348 . S
C831 C833 1.353 . S
C831 H872 0.929 . S
C832 C830 1.356 . S
C832 C834 1.358 . S
C832 H873 0.930 . S
C833 C831 1.353 . S
C833 N835 1.314 . S
C833 H874 0.930 . S
C834 C832 1.358 . S
C834 N835 1.279 . S
C834 H875 0.930 . S
N835 C833 1.314 . S
N835 C834 1.279 . S
C836 C838 1.353 . S
C836 N839 1.314 . S
C836 H842 0.930 . S
C837 N839 1.279 . S
C837 C840 1.358 . S
C837 H843 0.930 . S
C838 C836 1.353 . S
C838 C841 1.348 . S
C838 H876 0.929 . S
N839 Li794 1.990 . S
N839 C836 1.314 . S
N839 C837 1.279 . S
C840 C837 1.358 . S
C840 C841 1.356 . S
C840 H877 0.930 . S
C841 C838 1.348 . S
C841 C840 1.356 . S
H842 C836 0.930 . S
H843 C837 0.930 . S
C844 N845 1.314 . S
C844 C846 1.353 . S
C844 H850 0.930 . S
N845 Li795 1.990 . S
N845 C844 1.314 . S
N845 C848 1.279 . S
C846 C844 1.353 . S
C846 C849 1.348 . S
C846 H878 0.929 . S
C847 C848 1.358 . S
C847 C849 1.356 . S
C847 H879 0.930 . S
C848 N845 1.279 . S
C848 C847 1.358 . S
C848 H851 0.930 . S
C849 C846 1.348 . S
C849 C847 1.356 . S
H850 C844 0.930 . S
H851 C848 0.930 . S
O852 Li792 1.956 . S
O852 Li793 1.970 . S
O852 Li794 1.961 . S
O852 C796 1.325 . S
O853 Li792 1.970 . S
O853 Li793 1.956 . S
O853 Li795 1.961 . S
O853 C802 1.325 . S
O854 Li792 1.961 . S
O854 Li794 1.956 . S
O854 Li795 1.970 . S
O854 C824 1.325 . S
O855 Li793 1.961 . S
O855 Li794 1.970 . S
O855 Li795 1.956 . S
O855 C830 1.325 . S
H856 C798 0.929 . S
H857 C799 0.930 . S
H858 C800 0.930 . S
H859 C801 0.930 . S
H860 C803 0.930 . S
H861 C805 0.929 . S
H862 C806 0.930 . S
H863 C807 0.930 . S
H864 C810 0.930 . S
H865 C813 0.929 . S
H866 C818 0.929 . S
H867 C819 0.930 . S
H868 C826 0.929 . S
H869 C827 0.930 . S
H870 C828 0.930 . S
H871 C829 0.930 . S
H872 C831 0.929 . S
H873 C832 0.930 . S
H874 C833 0.930 . S
H875 C834 0.930 . S
H876 C838 0.929 . S
H877 C840 0.930 . S
H878 C846 0.929 . S
H879 C847 0.930 . S
Li880 N897 1.990 . S
Li880 O940 1.956 . S
Li880 O941 1.970 . S
Li880 O942 1.961 . S
Li881 N905 1.990 . S
Li881 O940 1.970 . S
Li881 O941 1.956 . S
Li881 O943 1.961 . S
Li882 N927 1.990 . S
Li882 O940 1.961 . S
Li882 O942 1.956 . S
Li882 O943 1.970 . S
Li883 N933 1.990 . S
Li883 O941 1.961 . S
Li883 O942 1.970 . S
Li883 O943 1.956 . S
C884 C886 1.348 . S
C884 C887 1.356 . S
C884 O940 1.325 . S
N885 C888 1.314 . S
N885 C889 1.279 . S
C886 C884 1.348 . S
C886 C888 1.353 . S
C886 H944 0.929 . S
C887 C884 1.356 . S
C887 C889 1.358 . S
C887 H945 0.930 . S
C888 N885 1.314 . S
C888 C886 1.353 . S
C888 H946 0.930 . S
C889 N885 1.279 . S
C889 C887 1.358 . S
C889 H947 0.930 . S
C890 C893 1.348 . S
C890 C894 1.356 . S
C890 O941 1.325 . S
C891 N892 1.279 . S
C891 C894 1.358 . S
C891 H948 0.930 . S
N892 C891 1.279 . S
N892 C895 1.314 . S
C893 C890 1.348 . S
C893 C895 1.353 . S
C893 H949 0.929 . S
C894 C890 1.356 . S
C894 C891 1.358 . S
C894 H950 0.930 . S
C895 N892 1.314 . S
C895 C893 1.353 . S
C895 H951 0.930 . S
C896 N897 1.314 . S
C896 C901 1.353 . S
C896 H902 0.930 . S
N897 Li880 1.990 . S
N897 C896 1.314 . S
N897 C899 1.279 . S
C898 C899 1.358 . S
C898 C900 1.356 . S
C898 H952 0.930 . S
C899 N897 1.279 . S
C899 C898 1.358 . S
C899 H903 0.930 . S
C900 C898 1.356 . S
C900 C901 1.348 . S
C901 C896 1.353 . S
C901 C900 1.348 . S
C901 H953 0.929 . S
H902 C896 0.930 . S
H903 C899 0.930 . S
C904 N905 1.314 . S
C904 C906 1.353 . S
C904 H910 0.930 . S
N905 Li881 1.990 . S
N905 C904 1.314 . S
N905 C908 1.279 . S
C906 C904 1.353 . S
C906 C909 1.348 . S
C906 H954 0.929 . S
C907 C908 1.358 . S
C907 C909 1.356 . S
C907 H955 0.930 . S
C908 N905 1.279 . S
C908 C907 1.358 . S
C908 H911 0.930 . S
C909 C906 1.348 . S
C909 C907 1.356 . S
H910 C904 0.930 . S
H911 C908 0.930 . S
C912 C914 1.348 . S
C912 C915 1.356 . S
C912 O942 1.325 . S
N913 C916 1.314 . S
N913 C917 1.279 . S
C914 C912 1.348 . S
C914 C916 1.353 . S
C914 H956 0.929 . S
C915 C912 1.356 . S
C915 C917 1.358 . S
C915 H957 0.930 . S
C916 N913 1.314 . S
C916 C914 1.353 . S
C916 H958 0.930 . S
C917 N913 1.279 . S
C917 C915 1.358 . S
C917 H959 0.930 . S
C918 C919 1.348 1_545 S
C918 C920 1.356 1_545 S
C918 O943 1.325 . S
C919 C918 1.348 1_565 S
C919 C921 1.353 . S
C919 H960 0.929 . S
C920 C918 1.356 1_565 S
C920 C922 1.358 . S
C920 H961 0.930 1_565 S
C921 C919 1.353 . S
C921 N923 1.314 . S
C921 H962 0.930 . S
C922 C920 1.358 . S
C922 N923 1.279 . S
C922 H963 0.930 . S
N923 C921 1.314 . S
N923 C922 1.279 . S
C924 C926 1.353 . S
C924 N927 1.314 1_565 S
C924 H930 0.921 1_565 S
C925 N927 1.279 1_565 S
C925 C928 1.358 . S
C925 H931 0.930 1_565 S
C926 C924 1.353 . S
C926 C929 1.348 . S
C926 H964 0.929 . S
N927 Li882 1.990 . S
N927 C924 1.314 1_545 S
N927 C925 1.279 1_545 S
C928 C925 1.358 . S
C928 C929 1.356 . S
C928 H965 0.930 . S
C929 C926 1.348 . S
C929 C928 1.356 . S
H930 C924 0.921 1_545 S
H931 C925 0.930 1_545 S
C932 N933 1.314 . S
C932 C934 1.353 . S
C932 H938 0.930 . S
N933 Li883 1.990 . S
N933 C932 1.314 . S
N933 C936 1.279 . S
C934 C932 1.353 . S
C934 C937 1.348 . S
C934 H966 0.929 . S
C935 C936 1.358 . S
C935 C937 1.356 . S
C935 H967 0.930 1_545 S
C936 N933 1.279 . S
C936 C935 1.358 . S
C936 H939 0.930 . S
C937 C934 1.348 . S
C937 C935 1.356 . S
H938 C932 0.930 . S
H939 C936 0.930 . S
O940 Li880 1.956 . S
O940 Li881 1.970 . S
O940 Li882 1.961 . S
O940 C884 1.325 . S
O941 Li880 1.970 . S
O941 Li881 1.956 . S
O941 Li883 1.961 . S
O941 C890 1.325 . S
O942 Li880 1.961 . S
O942 Li882 1.956 . S
O942 Li883 1.970 . S
O942 C912 1.325 . S
O943 Li881 1.961 . S
O943 Li882 1.970 . S
O943 Li883 1.956 . S
O943 C918 1.325 . S
H944 C886 0.929 . S
H945 C887 0.930 . S
H946 C888 0.930 . S
H947 C889 0.930 . S
H948 C891 0.930 . S
H949 C893 0.929 . S
H950 C894 0.930 . S
H951 C895 0.930 . S
H952 C898 0.930 . S
H953 C901 0.929 . S
H954 C906 0.929 . S
H955 C907 0.930 . S
H956 C914 0.929 . S
H957 C915 0.930 . S
H958 C916 0.930 . S
H959 C917 0.930 . S
H960 C919 0.929 . S
H961 C920 0.930 1_545 S
H962 C921 0.930 . S
H963 C922 0.930 . S
H964 C926 0.929 . S
H965 C928 0.930 . S
H966 C934 0.929 . S
H967 C935 0.930 1_565 S
Li968 N985 1.991 . S
Li968 O1028 1.977 . S
Li968 O1029 1.972 1_554 S
Li968 O1030 1.935 1_554 S
Li969 N993 1.990 . S
Li969 O1028 1.970 . S
Li969 O1029 1.956 1_554 S
Li969 O1031 1.961 . S
Li970 N1015 1.990 1_565 S
Li970 O1028 1.961 . S
Li970 O1030 1.956 1_554 S
Li970 O1031 1.970 . S
Li971 N1021 1.990 . S
Li971 O1029 1.961 . S
Li971 O1030 1.970 . S
Li971 O1031 1.956 1_556 S
C972 C974 1.348 . S
C972 C975 1.356 1_565 S
C972 O1028 1.325 . S
N973 C976 1.314 . S
N973 C977 1.279 . S
C974 C972 1.348 . S
C974 C976 1.353 1_565 S
C974 H1032 0.929 . S
C975 C972 1.356 1_545 S
C975 C977 1.358 . S
C975 H1033 0.930 . S
C976 N973 1.314 . S
C976 C974 1.353 1_545 S
C976 H1034 0.928 . S
C977 N973 1.279 . S
C977 C975 1.358 . S
C977 H1035 0.930 . S
C978 C981 1.348 . S
C978 C982 1.356 . S
C978 O1029 1.325 . S
C979 N980 1.279 . S
C979 C982 1.358 . S
C979 H1036 0.930 . S
N980 C979 1.279 . S
N980 C983 1.314 . S
C981 C978 1.348 . S
C981 C983 1.353 . S
C981 H1037 0.929 1_556 S
C982 C978 1.356 . S
C982 C979 1.358 . S
C982 H1038 0.930 . S
C983 N980 1.314 . S
C983 C981 1.353 . S
C983 H1039 0.930 . S
C984 N985 1.314 1_556 S
C984 C989 1.353 1_565 S
C984 H990 0.930 . S
N985 Li968 1.991 . S
N985 C984 1.314 1_554 S
N985 C987 1.279 1_565 S
C986 C987 1.358 . S
C986 C988 1.356 1_554 S
C986 H1040 0.930 . S
C987 N985 1.279 1_545 S
C987 C986 1.358 . S
C987 H991 0.930 . S
C988 C986 1.356 1_556 S
C988 C989 1.348 . S
C989 C984 1.353 1_545 S
C989 C988 1.348 . S
C989 H1041 0.929 . S
H990 C984 0.930 . S
H991 C987 0.930 . S
C992 N993 1.314 . S
C992 C994 1.353 . S
C992 H998 0.930 . S
N993 Li969 1.990 . S
N993 C992 1.314 . S
N993 C996 1.279 . S
C994 C992 1.353 . S
C994 C997 1.348 . S
C994 H1042 0.929 . S
C995 C996 1.358 . S
C995 C997 1.356 . S
C995 H1043 0.930 . S
C996 N993 1.279 . S
C996 C995 1.358 . S
C996 H999 0.930 . S
C997 C994 1.348 . S
C997 C995 1.356 . S
H998 C992 0.930 . S
H999 C996 0.930 . S
C1000 C1002 1.348 . S
C1000 C1003 1.356 1_565 S
C1000 O1030 1.325 . S
N1001 C1004 1.314 1_545 S
N1001 C1005 1.279 . S
C1002 C1000 1.348 . S
C1002 C1004 1.353 . S
C1002 H1044 0.929 . S
C1003 C1000 1.356 1_545 S
C1003 C1005 1.358 . S
C1003 H1045 0.930 . S
C1004 N1001 1.314 1_565 S
C1004 C1002 1.353 . S
C1004 H1046 0.930 . S
C1005 N1001 1.279 . S
C1005 C1003 1.358 . S
C1005 H1047 0.930 . S
C1006 C1007 1.337 1_554 S
C1006 C1008 1.363 . S
C1006 O1031 1.326 . S
C1007 C1006 1.337 1_556 S
C1007 C1009 1.353 . S
C1007 H1048 0.929 . S
C1008 C1006 1.363 . S
C1008 C1010 1.358 . S
C1008 H1049 0.930 . S
C1009 C1007 1.353 . S
C1009 N1011 1.314 . S
C1009 H1050 0.930 . S
C1010 C1008 1.358 . S
C1010 N1011 1.279 1_554 S
C1010 H1051 0.930 . S
N1011 C1009 1.314 . S
N1011 C1010 1.279 1_556 S
C1012 C1014 1.353 . S
C1012 N1015 1.314 . S
C1012 H1018 0.930 . S
C1013 N1015 1.279 1_556 S
C1013 C1016 1.358 . S
C1013 H1019 0.930 . S
C1014 C1012 1.353 . S
C1014 C1017 1.348 . S
C1014 H1052 0.929 . S
N1015 Li970 1.990 1_545 S
N1015 C1012 1.314 . S
N1015 C1013 1.279 1_554 S
C1016 C1013 1.358 . S
C1016 C1017 1.356 1_556 S
C1016 H1053 0.930 . S
C1017 C1014 1.348 . S
C1017 C1016 1.356 1_554 S
H1018 C1012 0.930 . S
H1019 C1013 0.930 . S
C1020 N1021 1.314 . S
C1020 C1022 1.353 . S
C1020 H1026 0.930 . S
N1021 Li971 1.990 . S
N1021 C1020 1.314 . S
N1021 C1024 1.279 . S
C1022 C1020 1.353 . S
C1022 C1025 1.348 . S
C1022 H1054 0.929 . S
C1023 C1024 1.358 . S
C1023 C1025 1.356 . S
C1023 H1055 0.930 . S
C1024 N1021 1.279 . S
C1024 C1023 1.358 . S
C1024 H1027 0.930 . S
C1025 C1022 1.348 . S
C1025 C1023 1.356 . S
H1026 C1020 0.930 . S
H1027 C1024 0.930 . S
O1028 Li968 1.977 . S
O1028 Li969 1.970 . S
O1028 Li970 1.961 . S
O1028 C972 1.325 . S
O1029 Li968 1.972 1_556 S
O1029 Li969 1.956 1_556 S
O1029 Li971 1.961 . S
O1029 C978 1.325 . S
O1030 Li968 1.935 1_556 S
O1030 Li970 1.956 1_556 S
O1030 Li971 1.970 . S
O1030 C1000 1.325 . S
O1031 Li969 1.961 . S
O1031 Li970 1.970 . S
O1031 Li971 1.956 1_554 S
O1031 C1006 1.326 . S
H1032 C974 0.929 . S
H1033 C975 0.930 . S
H1034 C976 0.928 . S
H1035 C977 0.930 . S
H1036 C979 0.930 . S
H1037 C981 0.929 1_554 S
H1038 C982 0.930 . S
H1039 C983 0.930 . S
H1040 C986 0.930 . S
H1041 C989 0.929 . S
H1042 C994 0.929 . S
H1043 C995 0.930 . S
H1044 C1002 0.929 . S
H1045 C1003 0.930 . S
H1046 C1004 0.930 . S
H1047 C1005 0.930 . S
H1048 C1007 0.929 . S
H1049 C1008 0.930 . S
H1050 C1009 0.930 . S
H1051 C1010 0.930 . S
H1052 C1014 0.929 . S
H1053 C1016 0.930 . S
H1054 C1022 0.929 . S
H1055 C1023 0.930 . S
Li1056 N1073 1.990 . S
Li1056 O1116 1.956 . S
Li1056 O1117 1.970 . S
Li1056 O1118 1.961 . S
Li1057 N1081 1.990 . S
Li1057 O1116 1.970 . S
Li1057 O1117 1.956 . S
Li1057 O1119 1.961 . S
Li1058 N1103 1.990 . S
Li1058 O1116 1.961 . S
Li1058 O1118 1.956 . S
Li1058 O1119 1.970 . S
Li1059 N1109 1.990 1_554 S
Li1059 O1117 1.961 . S
Li1059 O1118 1.970 . S
Li1059 O1119 1.956 . S
C1060 C1062 1.348 . S
C1060 C1063 1.356 . S
C1060 O1116 1.325 . S
N1061 C1064 1.314 . S
N1061 C1065 1.279 . S
C1062 C1060 1.348 . S
C1062 C1064 1.353 . S
C1062 H1120 0.929 . S
C1063 C1060 1.356 . S
C1063 C1065 1.358 . S
C1063 H1121 0.930 . S
C1064 N1061 1.314 . S
C1064 C1062 1.353 . S
C1064 H1122 0.930 . S
C1065 N1061 1.279 . S
C1065 C1063 1.358 . S
C1065 H1123 0.930 . S
C1066 C1069 1.348 . S
C1066 C1070 1.356 . S
C1066 O1117 1.325 . S
C1067 N1068 1.279 . S
C1067 C1070 1.358 . S
C1067 H1124 0.930 . S
N1068 C1067 1.279 . S
N1068 C1071 1.314 . S
C1069 C1066 1.348 . S
C1069 C1071 1.353 . S
C1069 H1125 0.929 . S
C1070 C1066 1.356 . S
C1070 C1067 1.358 . S
C1070 H1126 0.930 . S
C1071 N1068 1.314 . S
C1071 C1069 1.353 . S
C1071 H1127 0.930 . S
C1072 N1073 1.314 . S
C1072 C1077 1.353 . S
C1072 H1078 0.930 . S
N1073 Li1056 1.990 . S
N1073 C1072 1.314 . S
N1073 C1075 1.279 . S
C1074 C1075 1.358 . S
C1074 C1076 1.356 . S
C1074 H1128 0.930 . S
C1075 N1073 1.279 . S
C1075 C1074 1.358 . S
C1075 H1079 0.930 . S
C1076 C1074 1.356 . S
C1076 C1077 1.348 . S
C1077 C1072 1.353 . S
C1077 C1076 1.348 . S
C1077 H1129 0.929 . S
H1078 C1072 0.930 . S
H1079 C1075 0.930 . S
C1080 N1081 1.314 . S
C1080 C1082 1.353 . S
C1080 H1086 0.930 . S
N1081 Li1057 1.990 . S
N1081 C1080 1.314 . S
N1081 C1084 1.279 . S
C1082 C1080 1.353 . S
C1082 C1085 1.348 . S
C1082 H1130 0.929 . S
C1083 C1084 1.358 . S
C1083 C1085 1.356 . S
C1083 H1131 0.930 . S
C1084 N1081 1.279 . S
C1084 C1083 1.358 . S
C1084 H1087 0.930 . S
C1085 C1082 1.348 . S
C1085 C1083 1.356 . S
H1086 C1080 0.930 . S
H1087 C1084 0.930 . S
C1088 C1090 1.348 . S
C1088 C1091 1.356 1_556 S
C1088 O1118 1.325 1_556 S
N1089 C1092 1.314 . S
N1089 C1093 1.279 . S
C1090 C1088 1.348 . S
C1090 C1092 1.353 . S
C1090 H1132 0.929 . S
C1091 C1088 1.356 1_554 S
C1091 C1093 1.358 1_554 S
C1091 H1133 0.930 . S
C1092 N1089 1.314 . S
C1092 C1090 1.353 . S
C1092 H1134 0.930 . S
C1093 N1089 1.279 . S
C1093 C1091 1.358 1_556 S
C1093 H1135 0.930 . S
C1094 C1095 1.348 . S
C1094 C1096 1.356 . S
C1094 O1119 1.325 . S
C1095 C1094 1.348 . S
C1095 C1097 1.353 . S
C1095 H1136 0.929 . S
C1096 C1094 1.356 . S
C1096 C1098 1.358 . S
C1096 H1137 0.930 . S
C1097 C1095 1.353 . S
C1097 N1099 1.314 . S
C1097 H1138 0.930 . S
C1098 C1096 1.358 . S
C1098 N1099 1.279 . S
C1098 H1139 0.930 . S
N1099 C1097 1.314 . S
N1099 C1098 1.279 . S
C1100 C1102 1.353 . S
C1100 N1103 1.314 . S
C1100 H1106 0.930 . S
C1101 N1103 1.279 . S
C1101 C1104 1.358 . S
C1101 H1107 0.930 . S
C1102 C1100 1.353 . S
C1102 C1105 1.348 . S
C1102 H1140 0.929 . S
N1103 Li1058 1.990 . S
N1103 C1100 1.314 . S
N1103 C1101 1.279 . S
C1104 C1101 1.358 . S
C1104 C1105 1.356 . S
C1104 H1141 0.930 . S
C1105 C1102 1.348 . S
C1105 C1104 1.356 . S
H1106 C1100 0.930 . S
H1107 C1101 0.930 . S
C1108 N1109 1.314 . S
C1108 C1110 1.353 . S
C1108 H1114 0.930 . S
N1109 Li1059 1.990 1_556 S
N1109 C1108 1.314 . S
N1109 C1112 1.279 . S
C1110 C1108 1.353 . S
C1110 C1113 1.348 . S
C1110 H1142 0.929 . S
C1111 C1112 1.358 . S
C1111 C1113 1.356 . S
C1111 H1143 0.930 . S
C1112 N1109 1.279 . S
C1112 C1111 1.358 . S
C1112 H1115 0.930 . S
C1113 C1110 1.348 . S
C1113 C1111 1.356 . S
H1114 C1108 0.930 . S
H1115 C1112 0.930 . S
O1116 Li1056 1.956 . S
O1116 Li1057 1.970 . S
O1116 Li1058 1.961 . S
O1116 C1060 1.325 . S
O1117 Li1056 1.970 . S
O1117 Li1057 1.956 . S
O1117 Li1059 1.961 . S
O1117 C1066 1.325 . S
O1118 Li1056 1.961 . S
O1118 Li1058 1.956 . S
O1118 Li1059 1.970 . S
O1118 C1088 1.325 1_554 S
O1119 Li1057 1.961 . S
O1119 Li1058 1.970 . S
O1119 Li1059 1.956 . S
O1119 C1094 1.325 . S
H1120 C1062 0.929 . S
H1121 C1063 0.930 . S
H1122 C1064 0.930 . S
H1123 C1065 0.930 . S
H1124 C1067 0.930 . S
H1125 C1069 0.929 . S
H1126 C1070 0.930 . S
H1127 C1071 0.930 . S
H1128 C1074 0.930 . S
H1129 C1077 0.929 . S
H1130 C1082 0.929 . S
H1131 C1083 0.930 . S
H1132 C1090 0.929 . S
H1133 C1091 0.930 . S
H1134 C1092 0.930 . S
H1135 C1093 0.930 . S
H1136 C1095 0.929 . S
H1137 C1096 0.930 . S
H1138 C1097 0.930 . S
H1139 C1098 0.930 . S
H1140 C1102 0.929 . S
H1141 C1104 0.930 . S
H1142 C1110 0.929 . S
H1143 C1111 0.930 . S
Li1144 N1161 1.990 . S
Li1144 O1204 1.956 . S
Li1144 O1205 1.970 . S
Li1144 O1206 1.961 . S
Li1145 N1169 1.990 . S
Li1145 O1204 1.970 . S
Li1145 O1205 1.956 . S
Li1145 O1207 1.961 . S
Li1146 N1191 1.990 . S
Li1146 O1204 1.961 . S
Li1146 O1206 1.956 . S
Li1146 O1207 1.970 . S
Li1147 N1197 1.990 . S
Li1147 O1205 1.961 . S
Li1147 O1206 1.970 . S
Li1147 O1207 1.956 . S
C1148 C1150 1.348 . S
C1148 C1151 1.356 . S
C1148 O1204 1.325 . S
N1149 C1152 1.314 . S
N1149 C1153 1.279 . S
C1150 C1148 1.348 . S
C1150 C1152 1.353 . S
C1150 H1208 0.929 . S
C1151 C1148 1.356 . S
C1151 C1153 1.358 . S
C1151 H1209 0.930 . S
C1152 N1149 1.314 . S
C1152 C1150 1.353 . S
C1152 H1210 0.930 . S
C1153 N1149 1.279 . S
C1153 C1151 1.358 . S
C1153 H1211 0.930 . S
C1154 C1157 1.348 . S
C1154 C1158 1.356 . S
C1154 O1205 1.325 . S
C1155 N1156 1.279 . S
C1155 C1158 1.358 . S
C1155 H1212 0.930 . S
N1156 C1155 1.279 . S
N1156 C1159 1.314 . S
C1157 C1154 1.348 . S
C1157 C1159 1.353 . S
C1157 H1213 0.929 . S
C1158 C1154 1.356 . S
C1158 C1155 1.358 . S
C1158 H1214 0.930 . S
C1159 N1156 1.314 . S
C1159 C1157 1.353 . S
C1159 H1215 0.930 . S
C1160 N1161 1.314 . S
C1160 C1165 1.353 . S
C1160 H1166 0.930 . S
N1161 Li1144 1.990 . S
N1161 C1160 1.314 . S
N1161 C1163 1.279 . S
C1162 C1163 1.358 . S
C1162 C1164 1.356 . S
C1162 H1216 0.930 . S
C1163 N1161 1.279 . S
C1163 C1162 1.358 . S
C1163 H1167 0.930 . S
C1164 C1162 1.356 . S
C1164 C1165 1.348 . S
C1165 C1160 1.353 . S
C1165 C1164 1.348 . S
C1165 H1217 0.929 . S
H1166 C1160 0.930 . S
H1167 C1163 0.930 . S
C1168 N1169 1.314 . S
C1168 C1170 1.353 . S
C1168 H1174 0.930 . S
N1169 Li1145 1.990 . S
N1169 C1168 1.314 . S
N1169 C1172 1.279 . S
C1170 C1168 1.353 . S
C1170 C1173 1.348 . S
C1170 H1218 0.929 . S
C1171 C1172 1.358 . S
C1171 C1173 1.356 . S
C1171 H1219 0.930 . S
C1172 N1169 1.279 . S
C1172 C1171 1.358 . S
C1172 H1175 0.930 . S
C1173 C1170 1.348 . S
C1173 C1171 1.356 . S
H1174 C1168 0.930 . S
H1175 C1172 0.930 . S
C1176 C1178 1.348 . S
C1176 C1179 1.356 . S
C1176 O1206 1.325 . S
N1177 C1180 1.314 . S
N1177 C1181 1.279 . S
C1178 C1176 1.348 . S
C1178 C1180 1.353 . S
C1178 H1220 0.929 . S
C1179 C1176 1.356 . S
C1179 C1181 1.358 . S
C1179 H1221 0.930 . S
C1180 N1177 1.314 . S
C1180 C1178 1.353 . S
C1180 H1222 0.930 . S
C1181 N1177 1.279 . S
C1181 C1179 1.358 . S
C1181 H1223 0.930 . S
C1182 C1183 1.348 1_554 S
C1182 C1184 1.356 . S
C1182 O1207 1.325 . S
C1183 C1182 1.348 1_556 S
C1183 C1185 1.353 . S
C1183 H1224 0.929 . S
C1184 C1182 1.356 . S
C1184 C1186 1.358 1_554 S
C1184 H1225 0.930 . S
C1185 C1183 1.353 . S
C1185 N1187 1.314 . S
C1185 H1226 0.930 . S
C1186 C1184 1.358 1_556 S
C1186 N1187 1.279 . S
C1186 H1227 0.930 . S
N1187 C1185 1.314 . S
N1187 C1186 1.279 . S
C1188 C1190 1.334 1_554 S
C1188 N1191 1.328 . S
C1188 H1194 0.936 . S
C1189 N1191 1.279 . S
C1189 C1192 1.358 1_554 S
C1189 H1195 0.930 . S
C1190 C1188 1.334 1_556 S
C1190 C1193 1.348 . S
C1190 H1228 0.929 . S
N1191 Li1146 1.990 . S
N1191 C1188 1.328 . S
N1191 C1189 1.279 . S
C1192 C1189 1.358 1_556 S
C1192 C1193 1.356 . S
C1192 H1229 0.930 . S
C1193 C1190 1.348 . S
C1193 C1192 1.356 . S
H1194 C1188 0.936 . S
H1195 C1189 0.930 . S
C1196 N1197 1.314 . S
C1196 C1198 1.353 . S
C1196 H1202 0.930 . S
N1197 Li1147 1.990 . S
N1197 C1196 1.314 . S
N1197 C1200 1.279 . S
C1198 C1196 1.353 . S
C1198 C1201 1.348 . S
C1198 H1230 0.929 . S
C1199 C1200 1.358 . S
C1199 C1201 1.356 . S
C1199 H1231 0.930 . S
C1200 N1197 1.279 . S
C1200 C1199 1.358 . S
C1200 H1203 0.930 . S
C1201 C1198 1.348 . S
C1201 C1199 1.356 . S
H1202 C1196 0.930 . S
H1203 C1200 0.930 . S
O1204 Li1144 1.956 . S
O1204 Li1145 1.970 . S
O1204 Li1146 1.961 . S
O1204 C1148 1.325 . S
O1205 Li1144 1.970 . S
O1205 Li1145 1.956 . S
O1205 Li1147 1.961 . S
O1205 C1154 1.325 . S
O1206 Li1144 1.961 . S
O1206 Li1146 1.956 . S
O1206 Li1147 1.970 . S
O1206 C1176 1.325 . S
O1207 Li1145 1.961 . S
O1207 Li1146 1.970 . S
O1207 Li1147 1.956 . S
O1207 C1182 1.325 . S
H1208 C1150 0.929 . S
H1209 C1151 0.930 . S
H1210 C1152 0.930 . S
H1211 C1153 0.930 . S
H1212 C1155 0.930 . S
H1213 C1157 0.929 . S
H1214 C1158 0.930 . S
H1215 C1159 0.930 . S
H1216 C1162 0.930 . S
H1217 C1165 0.929 . S
H1218 C1170 0.929 . S
H1219 C1171 0.930 . S
H1220 C1178 0.929 . S
H1221 C1179 0.930 . S
H1222 C1180 0.930 . S
H1223 C1181 0.930 . S
H1224 C1183 0.929 . S
H1225 C1184 0.930 . S
H1226 C1185 0.930 . S
H1227 C1186 0.930 . S
H1228 C1190 0.929 . S
H1229 C1192 0.930 . S
H1230 C1198 0.929 . S
H1231 C1199 0.930 . S
Li1232 N1249 1.990 . S
Li1232 O1292 1.956 . S
Li1232 O1293 1.970 . S
Li1232 O1294 1.961 . S
Li1233 N1257 1.990 . S
Li1233 O1292 1.970 . S
Li1233 O1293 1.956 . S
Li1233 O1295 1.961 . S
Li1234 N1279 1.990 . S
Li1234 O1292 1.961 . S
Li1234 O1294 1.956 . S
Li1234 O1295 1.970 . S
Li1235 N1285 1.990 . S
Li1235 O1293 1.961 . S
Li1235 O1294 1.970 . S
Li1235 O1295 1.956 . S
C1236 C1238 1.348 . S
C1236 C1239 1.356 . S
C1236 O1292 1.325 . S
N1237 C1240 1.314 . S
N1237 C1241 1.279 . S
C1238 C1236 1.348 . S
C1238 C1240 1.353 . S
C1238 H1296 0.929 . S
C1239 C1236 1.356 . S
C1239 C1241 1.358 . S
C1239 H1297 0.930 . S
C1240 N1237 1.314 . S
C1240 C1238 1.353 . S
C1240 H1298 0.930 . S
C1241 N1237 1.279 . S
C1241 C1239 1.358 . S
C1241 H1299 0.930 . S
C1242 C1245 1.348 . S
C1242 C1246 1.356 . S
C1242 O1293 1.325 . S
C1243 N1244 1.279 . S
C1243 C1246 1.358 . S
C1243 H1300 0.930 . S
N1244 C1243 1.279 . S
N1244 C1247 1.314 . S
C1245 C1242 1.348 . S
C1245 C1247 1.353 . S
C1245 H1301 0.929 . S
C1246 C1242 1.356 . S
C1246 C1243 1.358 . S
C1246 H1302 0.930 . S
C1247 N1244 1.314 . S
C1247 C1245 1.353 . S
C1247 H1303 0.930 . S
C1248 N1249 1.314 . S
C1248 C1253 1.353 . S
C1248 H1254 0.930 . S
N1249 Li1232 1.990 . S
N1249 C1248 1.314 . S
N1249 C1251 1.279 . S
C1250 C1251 1.358 . S
C1250 C1252 1.356 . S
C1250 H1304 0.930 . S
C1251 N1249 1.279 . S
C1251 C1250 1.358 . S
C1251 H1255 0.930 . S
C1252 C1250 1.356 . S
C1252 C1253 1.348 . S
C1253 C1248 1.353 . S
C1253 C1252 1.348 . S
C1253 H1305 0.929 . S
H1254 C1248 0.930 . S
H1255 C1251 0.930 . S
C1256 N1257 1.314 . S
C1256 C1258 1.353 . S
C1256 H1262 0.930 . S
N1257 Li1233 1.990 . S
N1257 C1256 1.314 . S
N1257 C1260 1.279 . S
C1258 C1256 1.353 . S
C1258 C1261 1.348 . S
C1258 H1306 0.929 . S
C1259 C1260 1.358 . S
C1259 C1261 1.356 . S
C1259 H1307 0.930 . S
C1260 N1257 1.279 . S
C1260 C1259 1.358 . S
C1260 H1263 0.930 . S
C1261 C1258 1.348 . S
C1261 C1259 1.356 . S
H1262 C1256 0.930 . S
H1263 C1260 0.930 . S
C1264 C1266 1.348 . S
C1264 C1267 1.356 . S
C1264 O1294 1.325 . S
N1265 C1268 1.314 . S
N1265 C1269 1.279 . S
C1266 C1264 1.348 . S
C1266 C1268 1.353 . S
C1266 H1308 0.929 . S
C1267 C1264 1.356 . S
C1267 C1269 1.358 . S
C1267 H1309 0.930 . S
C1268 N1265 1.314 . S
C1268 C1266 1.353 . S
C1268 H1310 0.930 . S
C1269 N1265 1.279 . S
C1269 C1267 1.358 . S
C1269 H1311 0.930 . S
C1270 C1271 1.348 . S
C1270 C1272 1.356 . S
C1270 O1295 1.325 . S
C1271 C1270 1.348 . S
C1271 C1273 1.353 . S
C1271 H1312 0.929 . S
C1272 C1270 1.356 . S
C1272 C1274 1.358 . S
C1272 H1313 0.930 . S
C1273 C1271 1.353 . S
C1273 N1275 1.314 . S
C1273 H1314 0.930 . S
C1274 C1272 1.358 . S
C1274 N1275 1.279 . S
C1274 H1315 0.930 . S
N1275 C1273 1.314 . S
N1275 C1274 1.279 . S
C1276 C1278 1.353 . S
C1276 N1279 1.314 . S
C1276 H1282 0.930 . S
C1277 N1279 1.279 . S
C1277 C1280 1.358 . S
C1277 H1283 0.930 . S
C1278 C1276 1.353 . S
C1278 C1281 1.348 . S
C1278 H1316 0.929 . S
N1279 Li1234 1.990 . S
N1279 C1276 1.314 . S
N1279 C1277 1.279 . S
C1280 C1277 1.358 . S
C1280 C1281 1.356 . S
C1280 H1317 0.930 . S
C1281 C1278 1.348 . S
C1281 C1280 1.356 . S
H1282 C1276 0.930 . S
H1283 C1277 0.930 . S
C1284 N1285 1.314 . S
C1284 C1286 1.353 . S
C1284 H1290 0.930 . S
N1285 Li1235 1.990 . S
N1285 C1284 1.314 . S
N1285 C1288 1.279 . S
C1286 C1284 1.353 . S
C1286 C1289 1.348 . S
C1286 H1318 0.929 . S
C1287 C1288 1.358 . S
C1287 C1289 1.356 . S
C1287 H1319 0.930 . S
C1288 N1285 1.279 . S
C1288 C1287 1.358 . S
C1288 H1291 0.930 . S
C1289 C1286 1.348 . S
C1289 C1287 1.356 . S
H1290 C1284 0.930 . S
H1291 C1288 0.930 . S
O1292 Li1232 1.956 . S
O1292 Li1233 1.970 . S
O1292 Li1234 1.961 . S
O1292 C1236 1.325 . S
O1293 Li1232 1.970 . S
O1293 Li1233 1.956 . S
O1293 Li1235 1.961 . S
O1293 C1242 1.325 . S
O1294 Li1232 1.961 . S
O1294 Li1234 1.956 . S
O1294 Li1235 1.970 . S
O1294 C1264 1.325 . S
O1295 Li1233 1.961 . S
O1295 Li1234 1.970 . S
O1295 Li1235 1.956 . S
O1295 C1270 1.325 . S
H1296 C1238 0.929 . S
H1297 C1239 0.930 . S
H1298 C1240 0.930 . S
H1299 C1241 0.930 . S
H1300 C1243 0.930 . S
H1301 C1245 0.929 . S
H1302 C1246 0.930 . S
H1303 C1247 0.930 . S
H1304 C1250 0.930 . S
H1305 C1253 0.929 . S
H1306 C1258 0.929 . S
H1307 C1259 0.930 . S
H1308 C1266 0.929 . S
H1309 C1267 0.930 . S
H1310 C1268 0.930 . S
H1311 C1269 0.930 . S
H1312 C1271 0.929 . S
H1313 C1272 0.930 . S
H1314 C1273 0.930 . S
H1315 C1274 0.930 . S
H1316 C1278 0.929 . S
H1317 C1280 0.930 . S
H1318 C1286 0.929 . S
H1319 C1287 0.930 . S
Li1320 N1337 1.990 . S
Li1320 O1380 1.956 . S
Li1320 O1381 1.970 . S
Li1320 O1382 1.961 . S
Li1321 N1345 1.990 . S
Li1321 O1380 1.970 . S
Li1321 O1381 1.956 . S
Li1321 O1383 1.961 . S
Li1322 N1367 1.990 . S
Li1322 O1380 1.961 . S
Li1322 O1382 1.956 . S
Li1322 O1383 1.970 . S
Li1323 N1373 1.990 . S
Li1323 O1381 1.961 . S
Li1323 O1382 1.970 . S
Li1323 O1383 1.956 . S
C1324 C1326 1.348 . S
C1324 C1327 1.356 . S
C1324 O1380 1.325 . S
N1325 C1328 1.314 . S
N1325 C1329 1.279 . S
C1326 C1324 1.348 . S
C1326 C1328 1.353 . S
C1326 H1384 0.929 . S
C1327 C1324 1.356 . S
C1327 C1329 1.358 . S
C1327 H1385 0.930 . S
C1328 N1325 1.314 . S
C1328 C1326 1.353 . S
C1328 H1386 0.930 . S
C1329 N1325 1.279 . S
C1329 C1327 1.358 . S
C1329 H1387 0.930 1_565 S
C1330 C1333 1.348 . S
C1330 C1334 1.356 . S
C1330 O1381 1.325 . S
C1331 N1332 1.279 . S
C1331 C1334 1.358 . S
C1331 H1388 0.930 . S
N1332 C1331 1.279 . S
N1332 C1335 1.314 . S
C1333 C1330 1.348 . S
C1333 C1335 1.353 . S
C1333 H1389 0.929 . S
C1334 C1330 1.356 . S
C1334 C1331 1.358 . S
C1334 H1390 0.930 . S
C1335 N1332 1.314 . S
C1335 C1333 1.353 . S
C1335 H1391 0.930 . S
C1336 N1337 1.314 . S
C1336 C1341 1.353 . S
C1336 H1342 0.930 . S
N1337 Li1320 1.990 . S
N1337 C1336 1.314 . S
N1337 C1339 1.279 . S
C1338 C1339 1.358 . S
C1338 C1340 1.356 . S
C1338 H1392 0.930 . S
C1339 N1337 1.279 . S
C1339 C1338 1.358 . S
C1339 H1343 0.930 . S
C1340 C1338 1.356 . S
C1340 C1341 1.348 . S
C1341 C1336 1.353 . S
C1341 C1340 1.348 . S
C1341 H1393 0.929 . S
H1342 C1336 0.930 . S
H1343 C1339 0.930 . S
C1344 N1345 1.314 . S
C1344 C1346 1.353 . S
C1344 H1350 0.930 . S
N1345 Li1321 1.990 . S
N1345 C1344 1.314 . S
N1345 C1348 1.279 . S
C1346 C1344 1.353 . S
C1346 C1349 1.348 . S
C1346 H1394 0.929 . S
C1347 C1348 1.358 . S
C1347 C1349 1.356 . S
C1347 H1395 0.930 . S
C1348 N1345 1.279 . S
C1348 C1347 1.358 . S
C1348 H1351 0.930 . S
C1349 C1346 1.348 . S
C1349 C1347 1.356 . S
H1350 C1344 0.930 . S
H1351 C1348 0.930 . S
C1352 C1354 1.348 . S
C1352 C1355 1.356 . S
C1352 O1382 1.325 . S
N1353 C1356 1.314 . S
N1353 C1357 1.279 . S
C1354 C1352 1.348 . S
C1354 C1356 1.353 . S
C1354 H1396 0.929 . S
C1355 C1352 1.356 . S
C1355 C1357 1.358 . S
C1355 H1397 0.930 . S
C1356 N1353 1.314 . S
C1356 C1354 1.353 . S
C1356 H1398 0.930 . S
C1357 N1353 1.279 . S
C1357 C1355 1.358 . S
C1357 H1399 0.930 . S
C1358 C1359 1.348 . S
C1358 C1360 1.356 . S
C1358 O1383 1.325 . S
C1359 C1358 1.348 . S
C1359 C1361 1.353 . S
C1359 H1400 0.929 . S
C1360 C1358 1.356 . S
C1360 C1362 1.358 . S
C1360 H1401 0.930 . S
C1361 C1359 1.353 . S
C1361 N1363 1.314 . S
C1361 H1402 0.930 . S
C1362 C1360 1.358 . S
C1362 N1363 1.279 . S
C1362 H1403 0.930 . S
N1363 C1361 1.314 . S
N1363 C1362 1.279 . S
C1364 C1366 1.353 . S
C1364 N1367 1.314 . S
C1364 H1370 0.930 . S
C1365 N1367 1.279 . S
C1365 C1368 1.358 . S
C1365 H1371 0.930 . S
C1366 C1364 1.353 . S
C1366 C1369 1.348 . S
C1366 H1404 0.929 . S
N1367 Li1322 1.990 . S
N1367 C1364 1.314 . S
N1367 C1365 1.279 . S
C1368 C1365 1.358 . S
C1368 C1369 1.356 . S
C1368 H1405 0.930 . S
C1369 C1366 1.348 . S
C1369 C1368 1.356 . S
H1370 C1364 0.930 . S
H1371 C1365 0.930 . S
C1372 N1373 1.314 . S
C1372 C1374 1.353 . S
C1372 H1378 0.930 . S
N1373 Li1323 1.990 . S
N1373 C1372 1.314 . S
N1373 C1376 1.279 . S
C1374 C1372 1.353 . S
C1374 C1377 1.348 . S
C1374 H1406 0.929 . S
C1375 C1376 1.358 . S
C1375 C1377 1.356 . S
C1375 H1407 0.930 . S
C1376 N1373 1.279 . S
C1376 C1375 1.358 . S
C1376 H1379 0.930 . S
C1377 C1374 1.348 . S
C1377 C1375 1.356 . S
H1378 C1372 0.930 . S
H1379 C1376 0.930 . S
O1380 Li1320 1.956 . S
O1380 Li1321 1.970 . S
O1380 Li1322 1.961 . S
O1380 C1324 1.325 . S
O1381 Li1320 1.970 . S
O1381 Li1321 1.956 . S
O1381 Li1323 1.961 . S
O1381 C1330 1.325 . S
O1382 Li1320 1.961 . S
O1382 Li1322 1.956 . S
O1382 Li1323 1.970 . S
O1382 C1352 1.325 . S
O1383 Li1321 1.961 . S
O1383 Li1322 1.970 . S
O1383 Li1323 1.956 . S
O1383 C1358 1.325 . S
H1384 C1326 0.929 . S
H1385 C1327 0.930 . S
H1386 C1328 0.930 . S
H1387 C1329 0.930 1_545 S
H1388 C1331 0.930 . S
H1389 C1333 0.929 . S
H1390 C1334 0.930 . S
H1391 C1335 0.930 . S
H1392 C1338 0.930 . S
H1393 C1341 0.929 . S
H1394 C1346 0.929 . S
H1395 C1347 0.930 . S
H1396 C1354 0.929 . S
H1397 C1355 0.930 . S
H1398 C1356 0.930 . S
H1399 C1357 0.930 . S
H1400 C1359 0.929 . S
H1401 C1360 0.930 . S
H1402 C1361 0.930 . S
H1403 C1362 0.930 . S
H1404 C1366 0.929 . S
H1405 C1368 0.930 . S
H1406 C1374 0.929 . S
H1407 C1375 0.930 . S
Li1408 N1425 1.990 . S
Li1408 O1468 1.956 1_545 S
Li1408 O1469 1.970 . S
Li1408 O1470 1.961 . S
Li1409 N1433 1.990 . S
Li1409 O1468 1.970 . S
Li1409 O1469 1.956 1_565 S
Li1409 O1471 1.961 1_565 S
Li1410 N1455 1.990 . S
Li1410 O1468 1.961 1_545 S
Li1410 O1470 1.956 . S
Li1410 O1471 1.970 . S
Li1411 N1461 1.990 . S
Li1411 O1469 1.961 . S
Li1411 O1470 1.970 . S
Li1411 O1471 1.956 . S
C1412 C1414 1.348 . S
C1412 C1415 1.356 1_655 S
C1412 O1468 1.325 . S
N1413 C1416 1.314 1_455 S
N1413 C1417 1.279 . S
C1414 C1412 1.348 . S
C1414 C1416 1.353 . S
C1414 H1472 0.929 . S
C1415 C1412 1.356 1_455 S
C1415 C1417 1.358 . S
C1415 H1473 0.930 . S
C1416 N1413 1.314 1_655 S
C1416 C1414 1.353 . S
C1416 H1474 0.930 . S
C1417 N1413 1.279 . S
C1417 C1415 1.358 . S
C1417 H1475 0.930 . S
C1418 C1421 1.348 . S
C1418 C1422 1.356 . S
C1418 O1469 1.325 . S
C1419 N1420 1.279 . S
C1419 C1422 1.358 . S
C1419 H1476 0.930 . S
N1420 C1419 1.279 . S
N1420 C1423 1.314 . S
C1421 C1418 1.348 . S
C1421 C1423 1.353 . S
C1421 H1477 0.929 . S
C1422 C1418 1.356 . S
C1422 C1419 1.358 . S
C1422 H1478 0.930 . S
C1423 N1420 1.314 . S
C1423 C1421 1.353 . S
C1423 H1479 0.930 . S
C1424 N1425 1.314 1_455 S
C1424 C1429 1.353 . S
C1424 H1430 0.930 1_455 S
N1425 Li1408 1.990 . S
N1425 C1424 1.314 1_655 S
N1425 C1427 1.279 1_655 S
C1426 C1427 1.358 . S
C1426 C1428 1.356 . S
C1426 H1480 0.930 1_545 S
C1427 N1425 1.279 1_455 S
C1427 C1426 1.358 . S
C1427 H1431 0.930 1_545 S
C1428 C1426 1.356 . S
C1428 C1429 1.348 . S
C1429 C1424 1.353 . S
C1429 C1428 1.348 . S
C1429 H1481 0.929 . S
H1430 C1424 0.930 1_655 S
H1431 C1427 0.930 1_565 S
C1432 N1433 1.314 . S
C1432 C1434 1.353 . S
C1432 H1438 0.930 . S
N1433 Li1409 1.990 . S
N1433 C1432 1.314 . S
N1433 C1436 1.279 . S
C1434 C1432 1.353 . S
C1434 C1437 1.348 . S
C1434 H1482 0.929 . S
C1435 C1436 1.358 . S
C1435 C1437 1.356 . S
C1435 H1483 0.930 . S
C1436 N1433 1.279 . S
C1436 C1435 1.358 . S
C1436 H1439 0.930 . S
C1437 C1434 1.348 . S
C1437 C1435 1.356 . S
H1438 C1432 0.930 . S
H1439 C1436 0.930 . S
C1440 C1442 1.348 . S
C1440 C1443 1.356 1_655 S
C1440 O1470 1.325 . S
N1441 C1444 1.314 . S
N1441 C1445 1.279 . S
C1442 C1440 1.348 . S
C1442 C1444 1.353 1_655 S
C1442 H1484 0.929 . S
C1443 C1440 1.356 1_455 S
C1443 C1445 1.358 . S
C1443 H1485 0.930 . S
C1444 N1441 1.314 . S
C1444 C1442 1.353 1_455 S
C1444 H1486 0.930 1_455 S
C1445 N1441 1.279 . S
C1445 C1443 1.358 . S
C1445 H1487 0.930 . S
C1446 C1447 1.348 . S
C1446 C1448 1.356 1_545 S
C1446 O1471 1.325 . S
C1447 C1446 1.348 . S
C1447 C1449 1.353 . S
C1447 H1488 0.929 . S
C1448 C1446 1.356 1_565 S
C1448 C1450 1.358 . S
C1448 H1489 0.930 . S
C1449 C1447 1.353 . S
C1449 N1451 1.314 1_545 S
C1449 H1490 0.930 . S
C1450 C1448 1.358 . S
C1450 N1451 1.279 . S
C1450 H1491 0.930 . S
N1451 C1449 1.314 1_565 S
N1451 C1450 1.279 . S
C1452 C1454 1.353 1_655 S
C1452 N1455 1.314 1_565 S
C1452 H1458 0.930 . S
C1453 N1455 1.279 1_455 S
C1453 C1456 1.358 . S
C1453 H1459 0.930 . S
C1454 C1452 1.353 1_455 S
C1454 C1457 1.348 1_565 S
C1454 H1492 0.929 . S
N1455 Li1410 1.990 . S
N1455 C1452 1.314 1_545 S
N1455 C1453 1.279 1_655 S
C1456 C1453 1.358 . S
C1456 C1457 1.356 . S
C1456 H1493 0.930 . S
C1457 C1454 1.348 1_545 S
C1457 C1456 1.356 . S
H1458 C1452 0.930 . S
H1459 C1453 0.930 . S
C1460 N1461 1.314 . S
C1460 C1462 1.353 . S
C1460 H1466 0.930 . S
N1461 Li1411 1.990 . S
N1461 C1460 1.314 . S
N1461 C1464 1.279 . S
C1462 C1460 1.353 . S
C1462 C1465 1.348 . S
C1462 H1494 0.929 . S
C1463 C1464 1.358 . S
C1463 C1465 1.356 . S
C1463 H1495 0.930 . S
C1464 N1461 1.279 . S
C1464 C1463 1.358 . S
C1464 H1467 0.930 . S
C1465 C1462 1.348 . S
C1465 C1463 1.356 . S
H1466 C1460 0.930 . S
H1467 C1464 0.930 . S
O1468 Li1408 1.956 1_565 S
O1468 Li1409 1.970 . S
O1468 Li1410 1.961 1_565 S
O1468 C1412 1.325 . S
O1469 Li1408 1.970 . S
O1469 Li1409 1.956 1_545 S
O1469 Li1411 1.961 . S
O1469 C1418 1.325 . S
O1470 Li1408 1.961 . S
O1470 Li1410 1.956 . S
O1470 Li1411 1.970 . S
O1470 C1440 1.325 . S
O1471 Li1409 1.961 1_545 S
O1471 Li1410 1.970 . S
O1471 Li1411 1.956 . S
O1471 C1446 1.325 . S
H1472 C1414 0.929 . S
H1473 C1415 0.930 . S
H1474 C1416 0.930 . S
H1475 C1417 0.930 . S
H1476 C1419 0.930 . S
H1477 C1421 0.929 . S
H1478 C1422 0.930 . S
H1479 C1423 0.930 . S
H1480 C1426 0.930 1_565 S
H1481 C1429 0.929 . S
H1482 C1434 0.929 . S
H1483 C1435 0.930 . S
H1484 C1442 0.929 . S
H1485 C1443 0.930 . S
H1486 C1444 0.930 1_655 S
H1487 C1445 0.930 . S
H1488 C1447 0.929 . S
H1489 C1448 0.930 . S
H1490 C1449 0.930 . S
H1491 C1450 0.930 . S
H1492 C1454 0.929 . S
H1493 C1456 0.930 . S
H1494 C1462 0.929 . S
H1495 C1463 0.930 . S
Li1496 N1513 1.990 . S
Li1496 O1556 1.956 . S
Li1496 O1557 1.970 . S
Li1496 O1558 1.961 . S
Li1497 N1521 1.990 . S
Li1497 O1556 1.970 . S
Li1497 O1557 1.956 . S
Li1497 O1559 1.961 . S
Li1498 N1543 1.990 . S
Li1498 O1556 1.961 . S
Li1498 O1558 1.956 . S
Li1498 O1559 1.970 . S
Li1499 N1549 1.990 . S
Li1499 O1557 1.961 . S
Li1499 O1558 1.970 . S
Li1499 O1559 1.956 . S
C1500 C1502 1.348 . S
C1500 C1503 1.356 . S
C1500 O1556 1.325 . S
N1501 C1504 1.314 . S
N1501 C1505 1.279 . S
C1502 C1500 1.348 . S
C1502 C1504 1.353 . S
C1502 H1560 0.929 . S
C1503 C1500 1.356 . S
C1503 C1505 1.358 . S
C1503 H1561 0.930 . S
C1504 N1501 1.314 . S
C1504 C1502 1.353 . S
C1504 H1562 0.930 . S
C1505 N1501 1.279 . S
C1505 C1503 1.358 . S
C1505 H1563 0.930 . S
C1506 C1509 1.348 . S
C1506 C1510 1.356 . S
C1506 O1557 1.325 . S
C1507 N1508 1.279 . S
C1507 C1510 1.358 . S
C1507 H1564 0.930 . S
N1508 C1507 1.279 . S
N1508 C1511 1.314 . S
C1509 C1506 1.348 . S
C1509 C1511 1.353 . S
C1509 H1565 0.929 . S
C1510 C1506 1.356 . S
C1510 C1507 1.358 . S
C1510 H1566 0.930 . S
C1511 N1508 1.314 . S
C1511 C1509 1.353 . S
C1511 H1567 0.930 . S
C1512 N1513 1.314 . S
C1512 C1517 1.353 . S
C1512 H1518 0.930 . S
N1513 Li1496 1.990 . S
N1513 C1512 1.314 . S
N1513 C1515 1.279 . S
C1514 C1515 1.358 . S
C1514 C1516 1.356 . S
C1514 H1568 0.930 . S
C1515 N1513 1.279 . S
C1515 C1514 1.358 . S
C1515 H1519 0.930 . S
C1516 C1514 1.356 . S
C1516 C1517 1.348 . S
C1517 C1512 1.353 . S
C1517 C1516 1.348 . S
C1517 H1569 0.929 . S
H1518 C1512 0.930 . S
H1519 C1515 0.930 . S
C1520 N1521 1.314 . S
C1520 C1522 1.353 . S
C1520 H1526 0.930 . S
N1521 Li1497 1.990 . S
N1521 C1520 1.314 . S
N1521 C1524 1.279 . S
C1522 C1520 1.353 . S
C1522 C1525 1.348 . S
C1522 H1570 0.929 . S
C1523 C1524 1.358 . S
C1523 C1525 1.356 . S
C1523 H1571 0.930 . S
C1524 N1521 1.279 . S
C1524 C1523 1.358 . S
C1524 H1527 0.930 . S
C1525 C1522 1.348 . S
C1525 C1523 1.356 . S
H1526 C1520 0.930 . S
H1527 C1524 0.930 . S
C1528 C1530 1.348 . S
C1528 C1531 1.356 . S
C1528 O1558 1.325 . S
N1529 C1532 1.314 . S
N1529 C1533 1.279 . S
C1530 C1528 1.348 . S
C1530 C1532 1.353 . S
C1530 H1572 0.929 . S
C1531 C1528 1.356 . S
C1531 C1533 1.358 . S
C1531 H1573 0.930 . S
C1532 N1529 1.314 . S
C1532 C1530 1.353 . S
C1532 H1574 0.930 . S
C1533 N1529 1.279 . S
C1533 C1531 1.358 . S
C1533 H1575 0.930 . S
C1534 C1535 1.348 . S
C1534 C1536 1.356 . S
C1534 O1559 1.325 . S
C1535 C1534 1.348 . S
C1535 C1537 1.353 . S
C1535 H1576 0.929 . S
C1536 C1534 1.356 . S
C1536 C1538 1.358 . S
C1536 H1577 0.930 . S
C1537 C1535 1.353 . S
C1537 N1539 1.314 . S
C1537 H1578 0.930 . S
C1538 C1536 1.358 . S
C1538 N1539 1.279 . S
C1538 H1579 0.930 . S
N1539 C1537 1.314 . S
N1539 C1538 1.279 . S
C1540 C1542 1.353 . S
C1540 N1543 1.314 . S
C1540 H1546 0.930 . S
C1541 N1543 1.279 . S
C1541 C1544 1.358 . S
C1541 H1547 0.930 . S
C1542 C1540 1.353 . S
C1542 C1545 1.348 . S
C1542 H1580 0.929 . S
N1543 Li1498 1.990 . S
N1543 C1540 1.314 . S
N1543 C1541 1.279 . S
C1544 C1541 1.358 . S
C1544 C1545 1.356 . S
C1544 H1581 0.930 . S
C1545 C1542 1.348 . S
C1545 C1544 1.356 . S
H1546 C1540 0.930 . S
H1547 C1541 0.930 . S
C1548 N1549 1.314 . S
C1548 C1550 1.353 . S
C1548 H1554 0.930 . S
N1549 Li1499 1.990 . S
N1549 C1548 1.314 . S
N1549 C1552 1.279 . S
C1550 C1548 1.353 . S
C1550 C1553 1.348 . S
C1550 H1582 0.929 . S
C1551 C1552 1.358 . S
C1551 C1553 1.356 . S
C1551 H1583 0.930 . S
C1552 N1549 1.279 . S
C1552 C1551 1.358 . S
C1552 H1555 0.930 . S
C1553 C1550 1.348 . S
C1553 C1551 1.356 . S
H1554 C1548 0.930 . S
H1555 C1552 0.930 . S
O1556 Li1496 1.956 . S
O1556 Li1497 1.970 . S
O1556 Li1498 1.961 . S
O1556 C1500 1.325 . S
O1557 Li1496 1.970 . S
O1557 Li1497 1.956 . S
O1557 Li1499 1.961 . S
O1557 C1506 1.325 . S
O1558 Li1496 1.961 . S
O1558 Li1498 1.956 . S
O1558 Li1499 1.970 . S
O1558 C1528 1.325 . S
O1559 Li1497 1.961 . S
O1559 Li1498 1.970 . S
O1559 Li1499 1.956 . S
O1559 C1534 1.325 . S
H1560 C1502 0.929 . S
H1561 C1503 0.930 . S
H1562 C1504 0.930 . S
H1563 C1505 0.930 . S
H1564 C1507 0.930 . S
H1565 C1509 0.929 . S
H1566 C1510 0.930 . S
H1567 C1511 0.930 . S
H1568 C1514 0.930 . S
H1569 C1517 0.929 . S
H1570 C1522 0.929 . S
H1571 C1523 0.930 . S
H1572 C1530 0.929 . S
H1573 C1531 0.930 . S
H1574 C1532 0.930 . S
H1575 C1533 0.930 . S
H1576 C1535 0.929 . S
H1577 C1536 0.930 . S
H1578 C1537 0.930 . S
H1579 C1538 0.930 . S
H1580 C1542 0.929 . S
H1581 C1544 0.930 . S
H1582 C1550 0.929 . S
H1583 C1551 0.930 . S
Li1584 N1601 1.990 . S
Li1584 O1644 1.956 . S
Li1584 O1645 1.970 . S
Li1584 O1646 1.961 . S
Li1585 N1609 1.990 . S
Li1585 O1644 1.970 . S
Li1585 O1645 1.956 . S
Li1585 O1647 1.961 . S
Li1586 N1631 1.990 . S
Li1586 O1644 1.961 . S
Li1586 O1646 1.956 . S
Li1586 O1647 1.970 . S
Li1587 N1637 1.990 . S
Li1587 O1645 1.961 . S
Li1587 O1646 1.970 . S
Li1587 O1647 1.956 . S
C1588 C1590 1.348 . S
C1588 C1591 1.356 . S
C1588 O1644 1.325 . S
N1589 C1592 1.314 . S
N1589 C1593 1.279 . S
C1590 C1588 1.348 . S
C1590 C1592 1.353 . S
C1590 H1648 0.929 . S
C1591 C1588 1.356 . S
C1591 C1593 1.358 . S
C1591 H1649 0.930 . S
C1592 N1589 1.314 . S
C1592 C1590 1.353 . S
C1592 H1650 0.930 . S
C1593 N1589 1.279 . S
C1593 C1591 1.358 . S
C1593 H1651 0.930 . S
C1594 C1597 1.348 . S
C1594 C1598 1.356 . S
C1594 O1645 1.325 . S
C1595 N1596 1.279 . S
C1595 C1598 1.358 . S
C1595 H1652 0.930 . S
N1596 C1595 1.279 . S
N1596 C1599 1.314 . S
C1597 C1594 1.348 . S
C1597 C1599 1.353 . S
C1597 H1653 0.929 . S
C1598 C1594 1.356 . S
C1598 C1595 1.358 . S
C1598 H1654 0.930 . S
C1599 N1596 1.314 . S
C1599 C1597 1.353 . S
C1599 H1655 0.930 . S
C1600 N1601 1.314 . S
C1600 C1605 1.353 . S
C1600 H1606 0.930 . S
N1601 Li1584 1.990 . S
N1601 C1600 1.314 . S
N1601 C1603 1.279 . S
C1602 C1603 1.358 . S
C1602 C1604 1.356 . S
C1602 H1656 0.930 . S
C1603 N1601 1.279 . S
C1603 C1602 1.358 . S
C1603 H1607 0.930 . S
C1604 C1602 1.356 . S
C1604 C1605 1.348 . S
C1605 C1600 1.353 . S
C1605 C1604 1.348 . S
C1605 H1657 0.929 . S
H1606 C1600 0.930 . S
H1607 C1603 0.930 . S
C1608 N1609 1.314 . S
C1608 C1610 1.353 . S
C1608 H1614 0.930 . S
N1609 Li1585 1.990 . S
N1609 C1608 1.314 . S
N1609 C1612 1.279 . S
C1610 C1608 1.353 . S
C1610 C1613 1.348 . S
C1610 H1658 0.929 . S
C1611 C1612 1.358 . S
C1611 C1613 1.356 . S
C1611 H1659 0.930 . S
C1612 N1609 1.279 . S
C1612 C1611 1.358 . S
C1612 H1615 0.930 . S
C1613 C1610 1.348 . S
C1613 C1611 1.356 . S
H1614 C1608 0.930 . S
H1615 C1612 0.930 . S
C1616 C1618 1.348 . S
C1616 C1619 1.356 . S
C1616 O1646 1.325 . S
N1617 C1620 1.314 . S
N1617 C1621 1.279 . S
C1618 C1616 1.348 . S
C1618 C1620 1.353 . S
C1618 H1660 0.929 . S
C1619 C1616 1.356 . S
C1619 C1621 1.358 . S
C1619 H1661 0.930 . S
C1620 N1617 1.314 . S
C1620 C1618 1.353 . S
C1620 H1662 0.930 . S
C1621 N1617 1.279 . S
C1621 C1619 1.358 . S
C1621 H1663 0.930 . S
C1622 C1623 1.348 . S
C1622 C1624 1.356 . S
C1622 O1647 1.325 . S
C1623 C1622 1.348 . S
C1623 C1625 1.353 . S
C1623 H1664 0.929 . S
C1624 C1622 1.356 . S
C1624 C1626 1.358 . S
C1624 H1665 0.930 . S
C1625 C1623 1.353 . S
C1625 N1627 1.314 . S
C1625 H1666 0.930 . S
C1626 C1624 1.358 . S
C1626 N1627 1.279 . S
C1626 H1667 0.930 . S
N1627 C1625 1.314 . S
N1627 C1626 1.279 . S
C1628 C1630 1.353 . S
C1628 N1631 1.314 . S
C1628 H1634 0.930 . S
C1629 N1631 1.279 . S
C1629 C1632 1.358 . S
C1629 H1635 0.930 . S
C1630 C1628 1.353 . S
C1630 C1633 1.348 . S
C1630 H1668 0.929 . S
N1631 Li1586 1.990 . S
N1631 C1628 1.314 . S
N1631 C1629 1.279 . S
C1632 C1629 1.358 . S
C1632 C1633 1.356 . S
C1632 H1669 0.930 . S
C1633 C1630 1.348 . S
C1633 C1632 1.356 . S
H1634 C1628 0.930 . S
H1635 C1629 0.930 . S
C1636 N1637 1.314 . S
C1636 C1638 1.353 . S
C1636 H1642 0.930 . S
N1637 Li1587 1.990 . S
N1637 C1636 1.314 . S
N1637 C1640 1.279 . S
C1638 C1636 1.353 . S
C1638 C1641 1.348 . S
C1638 H1670 0.929 . S
C1639 C1640 1.358 . S
C1639 C1641 1.356 . S
C1639 H1671 0.930 . S
C1640 N1637 1.279 . S
C1640 C1639 1.358 . S
C1640 H1643 0.930 . S
C1641 C1638 1.348 . S
C1641 C1639 1.356 . S
H1642 C1636 0.930 . S
H1643 C1640 0.930 . S
O1644 Li1584 1.956 . S
O1644 Li1585 1.970 . S
O1644 Li1586 1.961 . S
O1644 C1588 1.325 . S
O1645 Li1584 1.970 . S
O1645 Li1585 1.956 . S
O1645 Li1587 1.961 . S
O1645 C1594 1.325 . S
O1646 Li1584 1.961 . S
O1646 Li1586 1.956 . S
O1646 Li1587 1.970 . S
O1646 C1616 1.325 . S
O1647 Li1585 1.961 . S
O1647 Li1586 1.970 . S
O1647 Li1587 1.956 . S
O1647 C1622 1.325 . S
H1648 C1590 0.929 . S
H1649 C1591 0.930 . S
H1650 C1592 0.930 . S
H1651 C1593 0.930 . S
H1652 C1595 0.930 . S
H1653 C1597 0.929 . S
H1654 C1598 0.930 . S
H1655 C1599 0.930 . S
H1656 C1602 0.930 . S
H1657 C1605 0.929 . S
H1658 C1610 0.929 . S
H1659 C1611 0.930 . S
H1660 C1618 0.929 . S
H1661 C1619 0.930 . S
H1662 C1620 0.930 . S
H1663 C1621 0.930 . S
H1664 C1623 0.929 . S
H1665 C1624 0.930 . S
H1666 C1625 0.930 . S
H1667 C1626 0.930 . S
H1668 C1630 0.929 . S
H1669 C1632 0.930 . S
H1670 C1638 0.929 . S
H1671 C1639 0.930 . S
Li1672 N1689 1.990 . S
Li1672 O1732 1.956 . S
Li1672 O1733 1.970 . S
Li1672 O1734 1.961 . S
Li1673 N1697 1.990 . S
Li1673 O1732 1.970 . S
Li1673 O1733 1.956 . S
Li1673 O1735 1.961 . S
Li1674 N1719 1.990 . S
Li1674 O1732 1.961 . S
Li1674 O1734 1.956 . S
Li1674 O1735 1.970 . S
Li1675 N1725 1.990 . S
Li1675 O1733 1.961 . S
Li1675 O1734 1.970 . S
Li1675 O1735 1.956 . S
C1676 C1678 1.348 . S
C1676 C1679 1.356 . S
C1676 O1732 1.325 . S
N1677 C1680 1.314 . S
N1677 C1681 1.279 . S
C1678 C1676 1.348 . S
C1678 C1680 1.353 . S
C1678 H1736 0.929 . S
C1679 C1676 1.356 . S
C1679 C1681 1.358 . S
C1679 H1737 0.930 . S
C1680 N1677 1.314 . S
C1680 C1678 1.353 . S
C1680 H1738 0.930 . S
C1681 N1677 1.279 . S
C1681 C1679 1.358 . S
C1681 H1739 0.930 . S
C1682 C1685 1.348 . S
C1682 C1686 1.356 . S
C1682 O1733 1.325 . S
C1683 N1684 1.279 . S
C1683 C1686 1.358 . S
C1683 H1740 0.930 . S
N1684 C1683 1.279 . S
N1684 C1687 1.314 . S
C1685 C1682 1.348 . S
C1685 C1687 1.353 . S
C1685 H1741 0.929 . S
C1686 C1682 1.356 . S
C1686 C1683 1.358 . S
C1686 H1742 0.930 . S
C1687 N1684 1.314 . S
C1687 C1685 1.353 . S
C1687 H1743 0.930 . S
C1688 N1689 1.314 . S
C1688 C1693 1.353 . S
C1688 H1694 0.930 . S
N1689 Li1672 1.990 . S
N1689 C1688 1.314 . S
N1689 C1691 1.279 . S
C1690 C1691 1.358 . S
C1690 C1692 1.356 . S
C1690 H1744 0.930 . S
C1691 N1689 1.279 . S
C1691 C1690 1.358 . S
C1691 H1695 0.930 . S
C1692 C1690 1.356 . S
C1692 C1693 1.348 . S
C1693 C1688 1.353 . S
C1693 C1692 1.348 . S
C1693 H1745 0.929 . S
H1694 C1688 0.930 . S
H1695 C1691 0.930 . S
C1696 N1697 1.314 . S
C1696 C1698 1.353 . S
C1696 H1702 0.930 . S
N1697 Li1673 1.990 . S
N1697 C1696 1.314 . S
N1697 C1700 1.279 . S
C1698 C1696 1.353 . S
C1698 C1701 1.348 . S
C1698 H1746 0.929 . S
C1699 C1700 1.358 . S
C1699 C1701 1.356 . S
C1699 H1747 0.930 . S
C1700 N1697 1.279 . S
C1700 C1699 1.358 . S
C1700 H1703 0.930 . S
C1701 C1698 1.348 . S
C1701 C1699 1.356 . S
H1702 C1696 0.930 . S
H1703 C1700 0.930 . S
C1704 C1706 1.348 1_545 S
C1704 C1707 1.356 . S
C1704 O1734 1.325 . S
N1705 C1708 1.314 . S
N1705 C1709 1.279 . S
C1706 C1704 1.348 1_565 S
C1706 C1708 1.353 . S
C1706 H1748 0.929 . S
C1707 C1704 1.356 . S
C1707 C1709 1.358 1_545 S
C1707 H1749 0.930 . S
C1708 N1705 1.314 . S
C1708 C1706 1.353 . S
C1708 H1750 0.930 . S
C1709 N1705 1.279 . S
C1709 C1707 1.358 1_565 S
C1709 H1751 0.930 . S
C1710 C1711 1.348 . S
C1710 C1712 1.356 . S
C1710 O1735 1.325 . S
C1711 C1710 1.348 . S
C1711 C1713 1.353 . S
C1711 H1752 0.929 . S
C1712 C1710 1.356 . S
C1712 C1714 1.358 . S
C1712 H1753 0.930 . S
C1713 C1711 1.353 . S
C1713 N1715 1.314 . S
C1713 H1754 0.930 . S
C1714 C1712 1.358 . S
C1714 N1715 1.279 . S
C1714 H1755 0.930 . S
N1715 C1713 1.314 . S
N1715 C1714 1.279 . S
C1716 C1718 1.353 . S
C1716 N1719 1.314 . S
C1716 H1722 0.930 . S
C1717 N1719 1.279 . S
C1717 C1720 1.358 . S
C1717 H1723 0.930 . S
C1718 C1716 1.353 . S
C1718 C1721 1.348 . S
C1718 H1756 0.929 . S
N1719 Li1674 1.990 . S
N1719 C1716 1.314 . S
N1719 C1717 1.279 . S
C1720 C1717 1.358 . S
C1720 C1721 1.356 . S
C1720 H1757 0.930 . S
C1721 C1718 1.348 . S
C1721 C1720 1.356 . S
H1722 C1716 0.930 . S
H1723 C1717 0.930 . S
C1724 N1725 1.314 . S
C1724 C1726 1.353 1_545 S
C1724 H1730 0.930 . S
N1725 Li1675 1.990 . S
N1725 C1724 1.314 . S
N1725 C1728 1.279 . S
C1726 C1724 1.353 1_565 S
C1726 C1729 1.348 . S
C1726 H1758 0.929 . S
C1727 C1728 1.358 1_565 S
C1727 C1729 1.356 . S
C1727 H1759 0.930 . S
C1728 N1725 1.279 . S
C1728 C1727 1.358 1_545 S
C1728 H1731 0.930 . S
C1729 C1726 1.348 . S
C1729 C1727 1.356 . S
H1730 C1724 0.930 . S
H1731 C1728 0.930 . S
O1732 Li1672 1.956 . S
O1732 Li1673 1.970 . S
O1732 Li1674 1.961 . S
O1732 C1676 1.325 . S
O1733 Li1672 1.970 . S
O1733 Li1673 1.956 . S
O1733 Li1675 1.961 . S
O1733 C1682 1.325 . S
O1734 Li1672 1.961 . S
O1734 Li1674 1.956 . S
O1734 Li1675 1.970 . S
O1734 C1704 1.325 . S
O1735 Li1673 1.961 . S
O1735 Li1674 1.970 . S
O1735 Li1675 1.956 . S
O1735 C1710 1.325 . S
H1736 C1678 0.929 . S
H1737 C1679 0.930 . S
H1738 C1680 0.930 . S
H1739 C1681 0.930 . S
H1740 C1683 0.930 . S
H1741 C1685 0.929 . S
H1742 C1686 0.930 . S
H1743 C1687 0.930 . S
H1744 C1690 0.930 . S
H1745 C1693 0.929 . S
H1746 C1698 0.929 . S
H1747 C1699 0.930 . S
H1748 C1706 0.929 . S
H1749 C1707 0.930 . S
H1750 C1708 0.930 . S
H1751 C1709 0.930 . S
H1752 C1711 0.929 . S
H1753 C1712 0.930 . S
H1754 C1713 0.930 . S
H1755 C1714 0.930 . S
H1756 C1718 0.929 . S
H1757 C1720 0.930 . S
H1758 C1726 0.929 . S
H1759 C1727 0.930 . S
Li1760 N1777 1.990 . S
Li1760 O1820 1.956 . S
Li1760 O1821 1.970 . S
Li1760 O1822 1.961 . S
Li1761 N1785 1.990 . S
Li1761 O1820 1.970 . S
Li1761 O1821 1.956 . S
Li1761 O1823 1.961 1_554 S
Li1762 N1807 1.990 . S
Li1762 O1820 1.961 1_556 S
Li1762 O1822 1.956 1_556 S
Li1762 O1823 1.970 . S
Li1763 N1813 1.990 . S
Li1763 O1821 1.961 . S
Li1763 O1822 1.970 . S
Li1763 O1823 1.956 1_554 S
C1764 C1766 1.348 . S
C1764 C1767 1.356 . S
C1764 O1820 1.325 . S
N1765 C1768 1.314 . S
N1765 C1769 1.279 . S
C1766 C1764 1.348 . S
C1766 C1768 1.353 . S
C1766 H1824 0.929 . S
C1767 C1764 1.356 . S
C1767 C1769 1.358 . S
C1767 H1825 0.930 . S
C1768 N1765 1.314 . S
C1768 C1766 1.353 . S
C1768 H1826 0.930 . S
C1769 N1765 1.279 . S
C1769 C1767 1.358 . S
C1769 H1827 0.930 . S
C1770 C1773 1.348 . S
C1770 C1774 1.356 . S
C1770 O1821 1.325 . S
C1771 N1772 1.279 . S
C1771 C1774 1.358 . S
C1771 H1828 0.930 . S
N1772 C1771 1.279 . S
N1772 C1775 1.314 . S
C1773 C1770 1.348 . S
C1773 C1775 1.353 . S
C1773 H1829 0.929 . S
C1774 C1770 1.356 . S
C1774 C1771 1.358 . S
C1774 H1830 0.930 . S
C1775 N1772 1.314 . S
C1775 C1773 1.353 . S
C1775 H1831 0.930 . S
C1776 N1777 1.314 . S
C1776 C1781 1.353 . S
C1776 H1782 0.930 . S
N1777 Li1760 1.990 . S
N1777 C1776 1.314 . S
N1777 C1779 1.279 . S
C1778 C1779 1.358 . S
C1778 C1780 1.356 . S
C1778 H1832 0.930 . S
C1779 N1777 1.279 . S
C1779 C1778 1.358 . S
C1779 H1783 0.930 . S
C1780 C1778 1.356 . S
C1780 C1781 1.348 . S
C1781 C1776 1.353 . S
C1781 C1780 1.348 . S
C1781 H1833 0.929 . S
H1782 C1776 0.930 . S
H1783 C1779 0.930 . S
C1784 N1785 1.314 . S
C1784 C1786 1.356 . S
C1784 H1790 0.930 1_554 S
N1785 Li1761 1.990 . S
N1785 C1784 1.314 . S
N1785 C1788 1.279 . S
C1786 C1784 1.356 . S
C1786 C1789 1.370 . S
C1786 H1834 0.905 1_554 S
C1787 C1788 1.358 . S
C1787 C1789 1.356 . S
C1787 H1835 0.930 . S
C1788 N1785 1.279 . S
C1788 C1787 1.358 . S
C1788 H1791 0.930 . S
C1789 C1786 1.370 . S
C1789 C1787 1.356 . S
H1790 C1784 0.930 1_556 S
H1791 C1788 0.930 . S
C1792 C1794 1.348 . S
C1792 C1795 1.356 . S
C1792 O1822 1.325 . S
N1793 C1796 1.314 . S
N1793 C1797 1.279 . S
C1794 C1792 1.348 . S
C1794 C1796 1.353 . S
C1794 H1836 0.929 . S
C1795 C1792 1.356 . S
C1795 C1797 1.358 . S
C1795 H1837 0.930 . S
C1796 N1793 1.314 . S
C1796 C1794 1.353 . S
C1796 H1838 0.930 . S
C1797 N1793 1.279 . S
C1797 C1795 1.358 . S
C1797 H1839 0.930 . S
C1798 C1799 1.348 . S
C1798 C1800 1.356 . S
C1798 O1823 1.325 . S
C1799 C1798 1.348 . S
C1799 C1801 1.353 . S
C1799 H1840 0.929 . S
C1800 C1798 1.356 . S
C1800 C1802 1.358 . S
C1800 H1841 0.930 . S
C1801 C1799 1.353 . S
C1801 N1803 1.314 . S
C1801 H1842 0.930 . S
C1802 C1800 1.358 . S
C1802 N1803 1.279 . S
C1802 H1843 0.930 . S
N1803 C1801 1.314 . S
N1803 C1802 1.279 . S
C1804 C1806 1.353 . S
C1804 N1807 1.314 . S
C1804 H1810 0.930 . S
C1805 N1807 1.279 . S
C1805 C1808 1.358 . S
C1805 H1811 0.930 . S
C1806 C1804 1.353 . S
C1806 C1809 1.348 . S
C1806 H1844 0.929 . S
N1807 Li1762 1.990 . S
N1807 C1804 1.314 . S
N1807 C1805 1.279 . S
C1808 C1805 1.358 . S
C1808 C1809 1.356 . S
C1808 H1845 0.930 . S
C1809 C1806 1.348 . S
C1809 C1808 1.356 . S
H1810 C1804 0.930 . S
H1811 C1805 0.930 . S
C1812 N1813 1.314 . S
C1812 C1814 1.353 . S
C1812 H1818 0.930 . S
N1813 Li1763 1.990 . S
N1813 C1812 1.314 . S
N1813 C1816 1.279 1_554 S
C1814 C1812 1.353 . S
C1814 C1817 1.348 . S
C1814 H1846 0.929 . S
C1815 C1816 1.358 . S
C1815 C1817 1.356 1_556 S
C1815 H1847 0.930 . S
C1816 N1813 1.279 1_556 S
C1816 C1815 1.358 . S
C1816 H1819 0.930 . S
C1817 C1814 1.348 . S
C1817 C1815 1.356 1_554 S
H1818 C1812 0.930 . S
H1819 C1816 0.930 . S
O1820 Li1760 1.956 . S
O1820 Li1761 1.970 . S
O1820 Li1762 1.961 1_554 S
O1820 C1764 1.325 . S
O1821 Li1760 1.970 . S
O1821 Li1761 1.956 . S
O1821 Li1763 1.961 . S
O1821 C1770 1.325 . S
O1822 Li1760 1.961 . S
O1822 Li1762 1.956 1_554 S
O1822 Li1763 1.970 . S
O1822 C1792 1.325 . S
O1823 Li1761 1.961 1_556 S
O1823 Li1762 1.970 . S
O1823 Li1763 1.956 1_556 S
O1823 C1798 1.325 . S
H1824 C1766 0.929 . S
H1825 C1767 0.930 . S
H1826 C1768 0.930 . S
H1827 C1769 0.930 . S
H1828 C1771 0.930 . S
H1829 C1773 0.929 . S
H1830 C1774 0.930 . S
H1831 C1775 0.930 . S
H1832 C1778 0.930 . S
H1833 C1781 0.929 . S
H1834 C1786 0.905 1_556 S
H1835 C1787 0.930 . S
H1836 C1794 0.929 . S
H1837 C1795 0.930 . S
H1838 C1796 0.930 . S
H1839 C1797 0.930 . S
H1840 C1799 0.929 . S
H1841 C1800 0.930 . S
H1842 C1801 0.930 . S
H1843 C1802 0.930 . S
H1844 C1806 0.929 . S
H1845 C1808 0.930 . S
H1846 C1814 0.929 . S
H1847 C1815 0.930 . S
Li1848 N1865 1.990 . S
Li1848 O1908 1.956 . S
Li1848 O1909 1.970 . S
Li1848 O1910 1.961 . S
Li1849 N1873 1.990 . S
Li1849 O1908 1.970 . S
Li1849 O1909 1.956 . S
Li1849 O1911 1.961 . S
Li1850 N1895 1.990 . S
Li1850 O1908 1.961 . S
Li1850 O1910 1.956 . S
Li1850 O1911 1.970 . S
Li1851 N1901 1.990 . S
Li1851 O1909 1.961 . S
Li1851 O1910 1.970 . S
Li1851 O1911 1.956 . S
C1852 C1854 1.348 . S
C1852 C1855 1.356 . S
C1852 O1908 1.325 . S
N1853 C1856 1.314 . S
N1853 C1857 1.279 . S
C1854 C1852 1.348 . S
C1854 C1856 1.353 . S
C1854 H1912 0.929 . S
C1855 C1852 1.356 . S
C1855 C1857 1.358 . S
C1855 H1913 0.930 . S
C1856 N1853 1.314 . S
C1856 C1854 1.353 . S
C1856 H1914 0.930 . S
C1857 N1853 1.279 . S
C1857 C1855 1.358 . S
C1857 H1915 0.930 . S
C1858 C1861 1.348 . S
C1858 C1862 1.356 . S
C1858 O1909 1.325 . S
C1859 N1860 1.279 . S
C1859 C1862 1.358 . S
C1859 H1916 0.930 . S
N1860 C1859 1.279 . S
N1860 C1863 1.314 . S
C1861 C1858 1.348 . S
C1861 C1863 1.353 . S
C1861 H1917 0.929 . S
C1862 C1858 1.356 . S
C1862 C1859 1.358 . S
C1862 H1918 0.930 . S
C1863 N1860 1.314 . S
C1863 C1861 1.353 . S
C1863 H1919 0.930 . S
C1864 N1865 1.314 . S
C1864 C1869 1.353 . S
C1864 H1870 0.930 . S
N1865 Li1848 1.990 . S
N1865 C1864 1.314 . S
N1865 C1867 1.279 . S
C1866 C1867 1.358 . S
C1866 C1868 1.356 . S
C1866 H1920 0.930 . S
C1867 N1865 1.279 . S
C1867 C1866 1.358 . S
C1867 H1871 0.930 . S
C1868 C1866 1.356 . S
C1868 C1869 1.348 . S
C1869 C1864 1.353 . S
C1869 C1868 1.348 . S
C1869 H1921 0.929 . S
H1870 C1864 0.930 . S
H1871 C1867 0.930 . S
C1872 N1873 1.314 . S
C1872 C1874 1.353 . S
C1872 H1878 0.930 . S
N1873 Li1849 1.990 . S
N1873 C1872 1.314 . S
N1873 C1876 1.279 . S
C1874 C1872 1.353 . S
C1874 C1877 1.348 . S
C1874 H1922 0.929 . S
C1875 C1876 1.358 . S
C1875 C1877 1.356 . S
C1875 H1923 0.930 . S
C1876 N1873 1.279 . S
C1876 C1875 1.358 . S
C1876 H1879 0.930 . S
C1877 C1874 1.348 . S
C1877 C1875 1.356 . S
H1878 C1872 0.930 . S
H1879 C1876 0.930 . S
C1880 C1882 1.348 . S
C1880 C1883 1.356 . S
C1880 O1910 1.325 . S
N1881 C1884 1.314 . S
N1881 C1885 1.279 . S
C1882 C1880 1.348 . S
C1882 C1884 1.353 . S
C1882 H1924 0.929 . S
C1883 C1880 1.356 . S
C1883 C1885 1.358 . S
C1883 H1925 0.930 . S
C1884 N1881 1.314 . S
C1884 C1882 1.353 . S
C1884 H1926 0.930 . S
C1885 N1881 1.279 . S
C1885 C1883 1.358 . S
C1885 H1927 0.930 . S
C1886 C1887 1.348 . S
C1886 C1888 1.356 . S
C1886 O1911 1.325 . S
C1887 C1886 1.348 . S
C1887 C1889 1.353 . S
C1887 H1928 0.929 . S
C1888 C1886 1.356 . S
C1888 C1890 1.358 . S
C1888 H1929 0.930 . S
C1889 C1887 1.353 . S
C1889 N1891 1.314 . S
C1889 H1930 0.930 . S
C1890 C1888 1.358 . S
C1890 N1891 1.279 . S
C1890 H1931 0.930 1_655 S
N1891 C1889 1.314 . S
N1891 C1890 1.279 . S
C1892 C1894 1.353 . S
C1892 N1895 1.314 . S
C1892 H1898 0.930 . S
C1893 N1895 1.279 . S
C1893 C1896 1.358 . S
C1893 H1899 0.930 . S
C1894 C1892 1.353 . S
C1894 C1897 1.348 . S
C1894 H1932 0.929 . S
N1895 Li1850 1.990 . S
N1895 C1892 1.314 . S
N1895 C1893 1.279 . S
C1896 C1893 1.358 . S
C1896 C1897 1.356 . S
C1896 H1933 0.930 . S
C1897 C1894 1.348 . S
C1897 C1896 1.356 . S
H1898 C1892 0.930 . S
H1899 C1893 0.930 . S
C1900 N1901 1.314 . S
C1900 C1902 1.353 . S
C1900 H1906 0.930 . S
N1901 Li1851 1.990 . S
N1901 C1900 1.314 . S
N1901 C1904 1.279 . S
C1902 C1900 1.353 . S
C1902 C1905 1.348 . S
C1902 H1934 0.929 . S
C1903 C1904 1.358 . S
C1903 C1905 1.356 . S
C1903 H1935 0.930 . S
C1904 N1901 1.279 . S
C1904 C1903 1.358 . S
C1904 H1907 0.930 . S
C1905 C1902 1.348 . S
C1905 C1903 1.356 . S
H1906 C1900 0.930 . S
H1907 C1904 0.930 . S
O1908 Li1848 1.956 . S
O1908 Li1849 1.970 . S
O1908 Li1850 1.961 . S
O1908 C1852 1.325 . S
O1909 Li1848 1.970 . S
O1909 Li1849 1.956 . S
O1909 Li1851 1.961 . S
O1909 C1858 1.325 . S
O1910 Li1848 1.961 . S
O1910 Li1850 1.956 . S
O1910 Li1851 1.970 . S
O1910 C1880 1.325 . S
O1911 Li1849 1.961 . S
O1911 Li1850 1.970 . S
O1911 Li1851 1.956 . S
O1911 C1886 1.325 . S
H1912 C1854 0.929 . S
H1913 C1855 0.930 . S
H1914 C1856 0.930 . S
H1915 C1857 0.930 . S
H1916 C1859 0.930 . S
H1917 C1861 0.929 . S
H1918 C1862 0.930 . S
H1919 C1863 0.930 . S
H1920 C1866 0.930 . S
H1921 C1869 0.929 . S
H1922 C1874 0.929 . S
H1923 C1875 0.930 . S
H1924 C1882 0.929 . S
H1925 C1883 0.930 . S
H1926 C1884 0.930 . S
H1927 C1885 0.930 . S
H1928 C1887 0.929 . S
H1929 C1888 0.930 . S
H1930 C1889 0.930 . S
H1931 C1890 0.930 1_455 S
H1932 C1894 0.929 . S
H1933 C1896 0.930 . S
H1934 C1902 0.929 . S
H1935 C1903 0.930 . S
Li1936 N1953 1.990 . S
Li1936 O1996 1.956 . S
Li1936 O1997 1.970 . S
Li1936 O1998 1.961 . S
Li1937 N1961 1.990 . S
Li1937 O1996 1.970 . S
Li1937 O1997 1.956 . S
Li1937 O1999 1.961 . S
Li1938 N1983 1.990 . S
Li1938 O1996 1.961 . S
Li1938 O1998 1.956 . S
Li1938 O1999 1.970 . S
Li1939 N1989 1.990 . S
Li1939 O1997 1.961 . S
Li1939 O1998 1.970 . S
Li1939 O1999 1.956 . S
C1940 C1942 1.348 . S
C1940 C1943 1.356 . S
C1940 O1996 1.325 . S
N1941 C1944 1.314 . S
N1941 C1945 1.279 . S
C1942 C1940 1.348 . S
C1942 C1944 1.353 . S
C1942 H2000 0.929 . S
C1943 C1940 1.356 . S
C1943 C1945 1.358 . S
C1943 H2001 0.930 . S
C1944 N1941 1.314 . S
C1944 C1942 1.353 . S
C1944 H2002 0.930 . S
C1945 N1941 1.279 . S
C1945 C1943 1.358 . S
C1945 H2003 0.930 . S
C1946 C1949 1.348 . S
C1946 C1950 1.356 . S
C1946 O1997 1.325 . S
C1947 N1948 1.279 . S
C1947 C1950 1.358 . S
C1947 H2004 0.930 . S
N1948 C1947 1.279 . S
N1948 C1951 1.314 . S
C1949 C1946 1.348 . S
C1949 C1951 1.353 . S
C1949 H2005 0.929 . S
C1950 C1946 1.356 . S
C1950 C1947 1.358 . S
C1950 H2006 0.930 . S
C1951 N1948 1.314 . S
C1951 C1949 1.353 . S
C1951 H2007 0.930 . S
C1952 N1953 1.314 . S
C1952 C1957 1.353 . S
C1952 H1958 0.930 . S
N1953 Li1936 1.990 . S
N1953 C1952 1.314 . S
N1953 C1955 1.279 . S
C1954 C1955 1.358 . S
C1954 C1956 1.356 . S
C1954 H2008 0.930 . S
C1955 N1953 1.279 . S
C1955 C1954 1.358 . S
C1955 H1959 0.930 . S
C1956 C1954 1.356 . S
C1956 C1957 1.348 . S
C1957 C1952 1.353 . S
C1957 C1956 1.348 . S
C1957 H2009 0.929 . S
H1958 C1952 0.930 . S
H1959 C1955 0.930 . S
C1960 N1961 1.314 . S
C1960 C1962 1.353 . S
C1960 H1966 0.930 . S
N1961 Li1937 1.990 . S
N1961 C1960 1.314 . S
N1961 C1964 1.279 . S
C1962 C1960 1.353 . S
C1962 C1965 1.348 . S
C1962 H2010 0.929 . S
C1963 C1964 1.358 . S
C1963 C1965 1.356 . S
C1963 H2011 0.930 . S
C1964 N1961 1.279 . S
C1964 C1963 1.358 . S
C1964 H1967 0.930 . S
C1965 C1962 1.348 . S
C1965 C1963 1.356 . S
H1966 C1960 0.930 . S
H1967 C1964 0.930 . S
C1968 C1970 1.348 . S
C1968 C1971 1.356 . S
C1968 O1998 1.325 . S
N1969 C1972 1.314 . S
N1969 C1973 1.279 . S
C1970 C1968 1.348 . S
C1970 C1972 1.353 . S
C1970 H2012 0.929 . S
C1971 C1968 1.356 . S
C1971 C1973 1.358 . S
C1971 H2013 0.930 . S
C1972 N1969 1.314 . S
C1972 C1970 1.353 . S
C1972 H2014 0.930 . S
C1973 N1969 1.279 . S
C1973 C1971 1.358 . S
C1973 H2015 0.930 . S
C1974 C1975 1.348 . S
C1974 C1976 1.356 . S
C1974 O1999 1.325 . S
C1975 C1974 1.348 . S
C1975 C1977 1.353 . S
C1975 H2016 0.929 . S
C1976 C1974 1.356 . S
C1976 C1978 1.358 . S
C1976 H2017 0.930 . S
C1977 C1975 1.353 . S
C1977 N1979 1.314 . S
C1977 H2018 0.930 . S
C1978 C1976 1.358 . S
C1978 N1979 1.279 . S
C1978 H2019 0.930 . S
N1979 C1977 1.314 . S
N1979 C1978 1.279 . S
C1980 C1982 1.353 . S
C1980 N1983 1.314 . S
C1980 H1986 0.930 . S
C1981 N1983 1.279 . S
C1981 C1984 1.358 . S
C1981 H1987 0.930 . S
C1982 C1980 1.353 . S
C1982 C1985 1.348 . S
C1982 H2020 0.929 . S
N1983 Li1938 1.990 . S
N1983 C1980 1.314 . S
N1983 C1981 1.279 . S
C1984 C1981 1.358 . S
C1984 C1985 1.356 . S
C1984 H2021 0.930 . S
C1985 C1982 1.348 . S
C1985 C1984 1.356 . S
H1986 C1980 0.930 . S
H1987 C1981 0.930 . S
C1988 N1989 1.314 . S
C1988 C1990 1.353 . S
C1988 H1994 0.930 . S
N1989 Li1939 1.990 . S
N1989 C1988 1.314 . S
N1989 C1992 1.279 . S
C1990 C1988 1.353 . S
C1990 C1993 1.348 . S
C1990 H2022 0.929 . S
C1991 C1992 1.358 . S
C1991 C1993 1.356 . S
C1991 H2023 0.930 . S
C1992 N1989 1.279 . S
C1992 C1991 1.358 . S
C1992 H1995 0.930 . S
C1993 C1990 1.348 . S
C1993 C1991 1.356 . S
H1994 C1988 0.930 . S
H1995 C1992 0.930 . S
O1996 Li1936 1.956 . S
O1996 Li1937 1.970 . S
O1996 Li1938 1.961 . S
O1996 C1940 1.325 . S
O1997 Li1936 1.970 . S
O1997 Li1937 1.956 . S
O1997 Li1939 1.961 . S
O1997 C1946 1.325 . S
O1998 Li1936 1.961 . S
O1998 Li1938 1.956 . S
O1998 Li1939 1.970 . S
O1998 C1968 1.325 . S
O1999 Li1937 1.961 . S
O1999 Li1938 1.970 . S
O1999 Li1939 1.956 . S
O1999 C1974 1.325 . S
H2000 C1942 0.929 . S
H2001 C1943 0.930 . S
H2002 C1944 0.930 . S
H2003 C1945 0.930 . S
H2004 C1947 0.930 . S
H2005 C1949 0.929 . S
H2006 C1950 0.930 . S
H2007 C1951 0.930 . S
H2008 C1954 0.930 . S
H2009 C1957 0.929 . S
H2010 C1962 0.929 . S
H2011 C1963 0.930 . S
H2012 C1970 0.929 . S
H2013 C1971 0.930 . S
H2014 C1972 0.930 . S
H2015 C1973 0.930 . S
H2016 C1975 0.929 . S
H2017 C1976 0.930 . S
H2018 C1977 0.930 . S
H2019 C1978 0.930 . S
H2020 C1982 0.929 . S
H2021 C1984 0.930 . S
H2022 C1990 0.929 . S
H2023 C1991 0.930 . S
Li2024 N2041 1.990 . S
Li2024 O2084 1.956 . S
Li2024 O2085 1.970 . S
Li2024 O2086 1.961 . S
Li2025 N2049 1.990 . S
Li2025 O2084 1.970 . S
Li2025 O2085 1.956 . S
Li2025 O2087 1.961 . S
Li2026 N2071 1.990 . S
Li2026 O2084 1.961 . S
Li2026 O2086 1.956 . S
Li2026 O2087 1.970 . S
Li2027 N2077 1.990 . S
Li2027 O2085 1.961 . S
Li2027 O2086 1.970 . S
Li2027 O2087 1.956 . S
C2028 C2030 1.348 . S
C2028 C2031 1.356 . S
C2028 O2084 1.325 . S
N2029 C2032 1.314 . S
N2029 C2033 1.279 . S
C2030 C2028 1.348 . S
C2030 C2032 1.353 . S
C2030 H2088 0.929 . S
C2031 C2028 1.356 . S
C2031 C2033 1.358 . S
C2031 H2089 0.930 . S
C2032 N2029 1.314 . S
C2032 C2030 1.353 . S
C2032 H2090 0.930 . S
C2033 N2029 1.279 . S
C2033 C2031 1.358 . S
C2033 H2091 0.930 . S
C2034 C2037 1.348 . S
C2034 C2038 1.356 . S
C2034 O2085 1.325 . S
C2035 N2036 1.279 . S
C2035 C2038 1.358 . S
C2035 H2092 0.930 . S
N2036 C2035 1.279 . S
N2036 C2039 1.314 . S
C2037 C2034 1.348 . S
C2037 C2039 1.353 . S
C2037 H2093 0.929 . S
C2038 C2034 1.356 . S
C2038 C2035 1.358 . S
C2038 H2094 0.930 . S
C2039 N2036 1.314 . S
C2039 C2037 1.353 . S
C2039 H2095 0.930 . S
C2040 N2041 1.314 . S
C2040 C2045 1.353 . S
C2040 H2046 0.930 . S
N2041 Li2024 1.990 . S
N2041 C2040 1.314 . S
N2041 C2043 1.279 . S
C2042 C2043 1.358 . S
C2042 C2044 1.356 . S
C2042 H2096 0.930 . S
C2043 N2041 1.279 . S
C2043 C2042 1.358 . S
C2043 H2047 0.930 . S
C2044 C2042 1.356 . S
C2044 C2045 1.348 . S
C2045 C2040 1.353 . S
C2045 C2044 1.348 . S
C2045 H2097 0.929 . S
H2046 C2040 0.930 . S
H2047 C2043 0.930 . S
C2048 N2049 1.314 . S
C2048 C2050 1.353 . S
C2048 H2054 0.930 . S
N2049 Li2025 1.990 . S
N2049 C2048 1.314 . S
N2049 C2052 1.279 . S
C2050 C2048 1.353 . S
C2050 C2053 1.348 . S
C2050 H2098 0.929 . S
C2051 C2052 1.358 . S
C2051 C2053 1.356 . S
C2051 H2099 0.930 . S
C2052 N2049 1.279 . S
C2052 C2051 1.358 . S
C2052 H2055 0.930 . S
C2053 C2050 1.348 . S
C2053 C2051 1.356 . S
H2054 C2048 0.930 . S
H2055 C2052 0.930 . S
C2056 C2058 1.348 . S
C2056 C2059 1.356 . S
C2056 O2086 1.325 . S
N2057 C2060 1.314 . S
N2057 C2061 1.279 . S
C2058 C2056 1.348 . S
C2058 C2060 1.353 . S
C2058 H2100 0.929 . S
C2059 C2056 1.356 . S
C2059 C2061 1.358 . S
C2059 H2101 0.930 . S
C2060 N2057 1.314 . S
C2060 C2058 1.353 . S
C2060 H2102 0.930 . S
C2061 N2057 1.279 . S
C2061 C2059 1.358 . S
C2061 H2103 0.930 . S
C2062 C2063 1.348 . S
C2062 C2064 1.356 . S
C2062 O2087 1.325 . S
C2063 C2062 1.348 . S
C2063 C2065 1.353 . S
C2063 H2104 0.929 . S
C2064 C2062 1.356 . S
C2064 C2066 1.358 . S
C2064 H2105 0.930 . S
C2065 C2063 1.353 . S
C2065 N2067 1.314 . S
C2065 H2106 0.930 . S
C2066 C2064 1.358 . S
C2066 N2067 1.279 . S
C2066 H2107 0.930 . S
N2067 C2065 1.314 . S
N2067 C2066 1.279 . S
C2068 C2070 1.353 . S
C2068 N2071 1.314 . S
C2068 H2074 0.930 . S
C2069 N2071 1.279 . S
C2069 C2072 1.358 . S
C2069 H2075 0.930 . S
C2070 C2068 1.353 . S
C2070 C2073 1.348 . S
C2070 H2108 0.929 . S
N2071 Li2026 1.990 . S
N2071 C2068 1.314 . S
N2071 C2069 1.279 . S
C2072 C2069 1.358 . S
C2072 C2073 1.356 . S
C2072 H2109 0.930 . S
C2073 C2070 1.348 . S
C2073 C2072 1.356 . S
H2074 C2068 0.930 . S
H2075 C2069 0.930 . S
C2076 N2077 1.314 . S
C2076 C2078 1.353 . S
C2076 H2082 0.930 . S
N2077 Li2027 1.990 . S
N2077 C2076 1.314 . S
N2077 C2080 1.279 . S
C2078 C2076 1.353 . S
C2078 C2081 1.348 . S
C2078 H2110 0.929 . S
C2079 C2080 1.358 . S
C2079 C2081 1.356 . S
C2079 H2111 0.930 . S
C2080 N2077 1.279 . S
C2080 C2079 1.358 . S
C2080 H2083 0.930 . S
C2081 C2078 1.348 . S
C2081 C2079 1.356 . S
H2082 C2076 0.930 . S
H2083 C2080 0.930 . S
O2084 Li2024 1.956 . S
O2084 Li2025 1.970 . S
O2084 Li2026 1.961 . S
O2084 C2028 1.325 . S
O2085 Li2024 1.970 . S
O2085 Li2025 1.956 . S
O2085 Li2027 1.961 . S
O2085 C2034 1.325 . S
O2086 Li2024 1.961 . S
O2086 Li2026 1.956 . S
O2086 Li2027 1.970 . S
O2086 C2056 1.325 . S
O2087 Li2025 1.961 . S
O2087 Li2026 1.970 . S
O2087 Li2027 1.956 . S
O2087 C2062 1.325 . S
H2088 C2030 0.929 . S
H2089 C2031 0.930 . S
H2090 C2032 0.930 . S
H2091 C2033 0.930 . S
H2092 C2035 0.930 . S
H2093 C2037 0.929 . S
H2094 C2038 0.930 . S
H2095 C2039 0.930 . S
H2096 C2042 0.930 . S
H2097 C2045 0.929 . S
H2098 C2050 0.929 . S
H2099 C2051 0.930 . S
H2100 C2058 0.929 . S
H2101 C2059 0.930 . S
H2102 C2060 0.930 . S
H2103 C2061 0.930 . S
H2104 C2063 0.929 . S
H2105 C2064 0.930 . S
H2106 C2065 0.930 . S
H2107 C2066 0.930 . S
H2108 C2070 0.929 . S
H2109 C2072 0.930 . S
H2110 C2078 0.929 . S
H2111 C2079 0.930 . S
C2112 C2114 1.422 1_556 S
C2112 C2116 1.415 . S
C2112 N2118 1.369 . S
C2113 C2114 1.421 . S
C2113 C2115 1.417 1_554 S
C2113 C2125 1.422 . S
C2114 C2112 1.422 1_554 S
C2114 C2113 1.421 . S
C2114 N2124 1.359 . S
C2115 C2113 1.417 1_556 S
C2115 C2117 1.329 . S
C2115 H2134 0.930 . S
C2116 C2112 1.415 . S
C2116 C2117 1.437 . S
C2116 C2120 1.413 . S
C2117 C2115 1.329 . S
C2117 C2116 1.437 . S
C2117 H2139 0.929 . S
N2118 C2112 1.369 . S
N2118 C2119 1.338 . S
N2118 Gd2123 2.622 1_566 S
C2119 N2118 1.338 . S
C2119 C2121 1.378 . S
C2119 H2131 0.929 . S
C2120 C2116 1.413 . S
C2120 C2121 1.348 . S
C2120 H2136 0.931 . S
C2121 C2119 1.378 . S
C2121 C2120 1.348 . S
C2121 H2137 0.930 . S
Gd2122 N2142 2.622 . S
Gd2122 N2149 2.570 . S
Gd2122 O2156 2.353 . S
Gd2122 O2157 2.468 . S
Gd2122 O2158 2.427 . S
Gd2122 O2160 2.388 . S
Gd2122 O2161 2.386 . S
Gd2122 O2165 2.307 . S
Gd2122 C2175 2.805 . S
Gd2123 N2118 2.622 1_544 S
Gd2123 N2124 2.570 1_545 S
Gd2123 O2155 2.386 1_645 S
Gd2123 O2159 2.307 1_655 S
Gd2123 O2162 2.353 1_655 S
Gd2123 O2163 2.468 . S
Gd2123 O2164 2.427 1_554 S
Gd2123 O2166 2.388 1_654 S
Gd2123 C2187 2.805 . S
N2124 C2114 1.359 . S
N2124 Gd2123 2.570 1_565 S
N2124 C2126 1.343 . S
C2125 C2113 1.422 . S
C2125 C2127 1.321 . S
C2125 H2133 0.931 . S
C2126 N2124 1.343 . S
C2126 C2127 1.390 . S
C2126 H2128 0.931 . S
C2127 C2125 1.321 . S
C2127 C2126 1.390 . S
C2127 H2129 0.930 . S
H2128 C2126 0.931 . S
H2129 C2127 0.930 . S
H2130 C2153 0.931 . S
H2131 C2119 0.929 . S
H2132 C2154 0.930 1_556 S
H2133 C2125 0.931 . S
H2134 C2115 0.930 . S
H2135 C2144 0.929 . S
H2136 C2120 0.931 . S
H2137 C2121 0.930 . S
H2138 C2176 0.930 . S
H2139 C2117 0.929 . S
H2140 C2145 0.931 . S
H2141 C2146 0.930 . S
N2142 Gd2122 2.622 . S
N2142 C2143 1.369 . S
N2142 C2144 1.338 . S
C2143 N2142 1.369 . S
C2143 C2147 1.415 . S
C2143 C2150 1.422 . S
C2144 H2135 0.929 . S
C2144 N2142 1.338 . S
C2144 C2146 1.378 . S
C2145 H2140 0.931 . S
C2145 C2146 1.348 . S
C2145 C2147 1.413 . S
C2146 H2141 0.930 . S
C2146 C2144 1.378 . S
C2146 C2145 1.348 . S
C2147 C2143 1.415 . S
C2147 C2145 1.413 . S
C2147 C2177 1.437 . S
H2148 C2177 0.929 . S
N2149 Gd2122 2.570 . S
N2149 C2150 1.359 . S
N2149 C2153 1.343 . S
C2150 C2143 1.422 . S
C2150 N2149 1.359 . S
C2150 C2152 1.421 . S
C2151 C2152 1.422 . S
C2151 C2154 1.321 . S
C2151 H2178 0.931 . S
C2152 C2150 1.421 . S
C2152 C2151 1.422 . S
C2152 C2176 1.417 . S
C2153 H2130 0.931 . S
C2153 N2149 1.343 . S
C2153 C2154 1.390 . S
C2154 H2132 0.930 1_554 S
C2154 C2151 1.321 . S
C2154 C2153 1.390 . S
O2155 Gd2123 2.386 1_465 S
O2155 C2167 1.265 . S
O2156 Gd2122 2.353 . S
O2156 C2167 1.242 1_545 S
O2157 Gd2122 2.468 . S
O2157 C2175 1.263 . S
O2158 Gd2122 2.427 . S
O2158 C2175 1.252 . S
O2159 Gd2123 2.307 1_455 S
O2159 C2168 1.261 . S
O2160 Gd2122 2.388 . S
O2160 C2168 1.252 . S
O2161 Gd2122 2.386 . S
O2161 C2179 1.265 . S
O2162 Gd2123 2.353 1_455 S
O2162 C2179 1.242 . S
O2163 Gd2123 2.468 . S
O2163 C2187 1.263 . S
O2164 Gd2123 2.427 1_556 S
O2164 C2187 1.252 1_556 S
O2165 Gd2122 2.307 . S
O2165 C2180 1.261 1_554 S
O2166 Gd2123 2.388 1_456 S
O2166 C2180 1.252 . S
C2167 O2155 1.265 . S
C2167 O2156 1.242 1_565 S
C2168 O2159 1.261 . S
C2168 O2160 1.252 . S
C2169 C2172 1.394 . S
C2169 C2174 1.370 . S
C2169 C2175 1.500 . S
C2170 C2173 1.383 . S
C2170 C2174 1.395 . S
C2171 C2172 1.396 . S
C2171 C2173 1.365 . S
C2171 H2188 0.929 . S
C2172 C2169 1.394 . S
C2172 C2171 1.396 . S
C2172 H2189 0.930 . S
C2173 C2170 1.383 . S
C2173 C2171 1.365 . S
C2173 H2190 0.931 . S
C2174 C2169 1.370 . S
C2174 C2170 1.395 . S
C2174 H2191 0.930 . S
C2175 Gd2122 2.805 . S
C2175 O2157 1.263 . S
C2175 O2158 1.252 . S
C2175 C2169 1.500 . S
C2176 H2138 0.930 . S
C2176 C2152 1.417 . S
C2176 C2177 1.329 . S
C2177 C2147 1.437 . S
C2177 H2148 0.929 . S
C2177 C2176 1.329 . S
H2178 C2151 0.931 . S
C2179 O2161 1.265 . S
C2179 O2162 1.242 . S
C2180 O2165 1.261 1_556 S
C2180 O2166 1.252 . S
C2181 C2184 1.394 1_554 S
C2181 C2186 1.370 . S
C2181 C2187 1.500 . S
C2182 C2185 1.383 1_554 S
C2182 C2186 1.395 . S
C2183 C2184 1.396 . S
C2183 C2185 1.365 . S
C2183 H2192 0.929 . S
C2184 C2181 1.394 1_556 S
C2184 C2183 1.396 . S
C2184 H2193 0.930 . S
C2185 C2182 1.383 1_556 S
C2185 C2183 1.365 . S
C2185 H2194 0.931 . S
C2186 C2181 1.370 . S
C2186 C2182 1.395 . S
C2186 H2195 0.930 . S
C2187 Gd2123 2.805 . S
C2187 O2163 1.263 . S
C2187 O2164 1.252 1_554 S
C2187 C2181 1.500 . S
H2188 C2171 0.929 . S
H2189 C2172 0.930 . S
H2190 C2173 0.931 . S
H2191 C2174 0.930 . S
H2192 C2183 0.929 . S
H2193 C2184 0.930 . S
H2194 C2185 0.931 . S
H2195 C2186 0.930 . S
C2196 C2198 1.422 . S
C2196 C2200 1.415 . S
C2196 N2202 1.369 . S
C2197 C2198 1.421 . S
C2197 C2199 1.417 . S
C2197 C2209 1.422 . S
C2198 C2196 1.422 . S
C2198 C2197 1.421 . S
C2198 N2208 1.359 . S
C2199 C2197 1.417 . S
C2199 C2201 1.329 . S
C2199 H2218 0.930 . S
C2200 C2196 1.415 . S
C2200 C2201 1.437 . S
C2200 C2204 1.413 . S
C2201 C2199 1.329 . S
C2201 C2200 1.437 . S
C2201 H2223 0.929 . S
N2202 C2196 1.369 . S
N2202 C2203 1.338 . S
N2202 Gd2207 2.622 . S
C2203 N2202 1.338 . S
C2203 C2205 1.378 . S
C2203 H2215 0.929 . S
C2204 C2200 1.413 . S
C2204 C2205 1.348 . S
C2204 H2220 0.931 . S
C2205 C2203 1.378 . S
C2205 C2204 1.348 . S
C2205 H2221 0.930 . S
Gd2206 N2226 2.622 . S
Gd2206 N2233 2.570 . S
Gd2206 O2240 2.353 . S
Gd2206 O2241 2.468 . S
Gd2206 O2242 2.427 . S
Gd2206 O2244 2.388 . S
Gd2206 O2245 2.386 . S
Gd2206 O2249 2.307 . S
Gd2206 C2259 2.805 . S
Gd2207 N2202 2.622 . S
Gd2207 N2208 2.570 . S
Gd2207 O2239 2.386 . S
Gd2207 O2243 2.307 . S
Gd2207 O2246 2.353 . S
Gd2207 O2247 2.468 . S
Gd2207 O2248 2.427 . S
Gd2207 O2250 2.388 . S
Gd2207 C2271 2.805 . S
N2208 C2198 1.359 . S
N2208 Gd2207 2.570 . S
N2208 C2210 1.343 . S
C2209 C2197 1.422 . S
C2209 C2211 1.321 . S
C2209 H2217 0.931 . S
C2210 N2208 1.343 . S
C2210 C2211 1.390 . S
C2210 H2212 0.931 . S
C2211 C2209 1.321 . S
C2211 C2210 1.390 . S
C2211 H2213 0.930 . S
H2212 C2210 0.931 . S
H2213 C2211 0.930 . S
H2214 C2237 0.931 . S
H2215 C2203 0.929 . S
H2216 C2238 0.930 . S
H2217 C2209 0.931 . S
H2218 C2199 0.930 . S
H2219 C2228 0.929 . S
H2220 C2204 0.931 . S
H2221 C2205 0.930 . S
H2222 C2260 0.930 . S
H2223 C2201 0.929 . S
H2224 C2229 0.931 . S
H2225 C2230 0.930 . S
N2226 Gd2206 2.622 . S
N2226 C2227 1.369 . S
N2226 C2228 1.338 . S
C2227 N2226 1.369 . S
C2227 C2231 1.415 . S
C2227 C2234 1.422 . S
C2228 H2219 0.929 . S
C2228 N2226 1.338 . S
C2228 C2230 1.378 . S
C2229 H2224 0.931 . S
C2229 C2230 1.348 . S
C2229 C2231 1.413 . S
C2230 H2225 0.930 . S
C2230 C2228 1.378 . S
C2230 C2229 1.348 . S
C2231 C2227 1.415 . S
C2231 C2229 1.413 . S
C2231 C2261 1.437 . S
H2232 C2261 0.929 . S
N2233 Gd2206 2.570 . S
N2233 C2234 1.359 . S
N2233 C2237 1.343 . S
C2234 C2227 1.422 . S
C2234 N2233 1.359 . S
C2234 C2236 1.421 . S
C2235 C2236 1.422 . S
C2235 C2238 1.321 . S
C2235 H2262 0.931 . S
C2236 C2234 1.421 . S
C2236 C2235 1.422 . S
C2236 C2260 1.417 . S
C2237 H2214 0.931 . S
C2237 N2233 1.343 . S
C2237 C2238 1.390 . S
C2238 H2216 0.930 . S
C2238 C2235 1.321 . S
C2238 C2237 1.390 . S
O2239 Gd2207 2.386 . S
O2239 C2251 1.265 . S
O2240 Gd2206 2.353 . S
O2240 C2251 1.242 . S
O2241 Gd2206 2.468 . S
O2241 C2259 1.263 . S
O2242 Gd2206 2.427 . S
O2242 C2259 1.252 . S
O2243 Gd2207 2.307 . S
O2243 C2252 1.261 . S
O2244 Gd2206 2.388 . S
O2244 C2252 1.252 . S
O2245 Gd2206 2.386 . S
O2245 C2263 1.265 . S
O2246 Gd2207 2.353 . S
O2246 C2263 1.242 . S
O2247 Gd2207 2.468 . S
O2247 C2271 1.263 . S
O2248 Gd2207 2.427 . S
O2248 C2271 1.252 . S
O2249 Gd2206 2.307 . S
O2249 C2264 1.261 . S
O2250 Gd2207 2.388 . S
O2250 C2264 1.252 . S
C2251 O2239 1.265 . S
C2251 O2240 1.242 . S
C2252 O2243 1.261 . S
C2252 O2244 1.252 . S
C2253 C2256 1.394 . S
C2253 C2258 1.370 . S
C2253 C2259 1.500 . S
C2254 C2257 1.383 . S
C2254 C2258 1.395 . S
C2255 C2256 1.396 . S
C2255 C2257 1.365 . S
C2255 H2272 0.929 . S
C2256 C2253 1.394 . S
C2256 C2255 1.396 . S
C2256 H2273 0.930 . S
C2257 C2254 1.383 . S
C2257 C2255 1.365 . S
C2257 H2274 0.931 . S
C2258 C2253 1.370 . S
C2258 C2254 1.395 . S
C2258 H2275 0.930 . S
C2259 Gd2206 2.805 . S
C2259 O2241 1.263 . S
C2259 O2242 1.252 . S
C2259 C2253 1.500 . S
C2260 H2222 0.930 . S
C2260 C2236 1.417 . S
C2260 C2261 1.329 . S
C2261 C2231 1.437 . S
C2261 H2232 0.929 . S
C2261 C2260 1.329 . S
H2262 C2235 0.931 . S
C2263 O2245 1.265 . S
C2263 O2246 1.242 . S
C2264 O2249 1.261 . S
C2264 O2250 1.252 . S
C2265 C2268 1.394 . S
C2265 C2270 1.370 . S
C2265 C2271 1.500 . S
C2266 C2269 1.383 . S
C2266 C2270 1.395 . S
C2267 C2268 1.396 . S
C2267 C2269 1.365 . S
C2267 H2276 0.929 . S
C2268 C2265 1.394 . S
C2268 C2267 1.396 . S
C2268 H2277 0.930 . S
C2269 C2266 1.383 . S
C2269 C2267 1.365 . S
C2269 H2278 0.931 . S
C2270 C2265 1.370 . S
C2270 C2266 1.395 . S
C2270 H2279 0.930 . S
C2271 Gd2207 2.805 . S
C2271 O2247 1.263 . S
C2271 O2248 1.252 . S
C2271 C2265 1.500 . S
H2272 C2255 0.929 . S
H2273 C2256 0.930 . S
H2274 C2257 0.931 . S
H2275 C2258 0.930 . S
H2276 C2267 0.929 . S
H2277 C2268 0.930 . S
H2278 C2269 0.931 . S
H2279 C2270 0.930 . S
C2280 C2282 1.422 . S
C2280 C2284 1.415 . S
C2280 N2286 1.369 . S
C2281 C2282 1.421 . S
C2281 C2283 1.417 . S
C2281 C2293 1.422 . S
C2282 C2280 1.422 . S
C2282 C2281 1.421 . S
C2282 N2292 1.359 . S
C2283 C2281 1.417 . S
C2283 C2285 1.329 . S
C2283 H2302 0.930 . S
C2284 C2280 1.415 . S
C2284 C2285 1.437 . S
C2284 C2288 1.413 . S
C2285 C2283 1.329 . S
C2285 C2284 1.437 . S
C2285 H2307 0.929 . S
N2286 C2280 1.369 . S
N2286 C2287 1.338 . S
N2286 Gd2291 2.622 . S
C2287 N2286 1.338 . S
C2287 C2289 1.378 . S
C2287 H2299 0.929 . S
C2288 C2284 1.413 . S
C2288 C2289 1.348 . S
C2288 H2304 0.931 . S
C2289 C2287 1.378 . S
C2289 C2288 1.348 . S
C2289 H2305 0.930 . S
Gd2290 N2310 2.622 . S
Gd2290 N2317 2.570 1_545 S
Gd2290 O2324 2.353 . S
Gd2290 O2325 2.468 . S
Gd2290 O2326 2.427 . S
Gd2290 O2328 2.388 . S
Gd2290 O2329 2.386 1_545 S
Gd2290 O2333 2.307 . S
Gd2290 C2343 2.805 . S
Gd2291 N2286 2.622 . S
Gd2291 N2292 2.570 . S
Gd2291 O2323 2.386 . S
Gd2291 O2327 2.307 . S
Gd2291 O2330 2.353 1_545 S
Gd2291 O2331 2.468 . S
Gd2291 O2332 2.427 . S
Gd2291 O2334 2.388 . S
Gd2291 C2355 2.805 . S
N2292 C2282 1.359 . S
N2292 Gd2291 2.570 . S
N2292 C2294 1.343 . S
C2293 C2281 1.422 . S
C2293 C2295 1.321 . S
C2293 H2301 0.931 . S
C2294 N2292 1.343 . S
C2294 C2295 1.390 . S
C2294 H2296 0.931 . S
C2295 C2293 1.321 . S
C2295 C2294 1.390 . S
C2295 H2297 0.930 . S
H2296 C2294 0.931 . S
H2297 C2295 0.930 . S
H2298 C2321 0.931 . S
H2299 C2287 0.929 . S
H2300 C2322 0.930 . S
H2301 C2293 0.931 . S
H2302 C2283 0.930 . S
H2303 C2312 0.929 . S
H2304 C2288 0.931 . S
H2305 C2289 0.930 . S
H2306 C2344 0.930 . S
H2307 C2285 0.929 . S
H2308 C2313 0.931 . S
H2309 C2314 0.930 1_545 S
N2310 Gd2290 2.622 . S
N2310 C2311 1.369 1_545 S
N2310 C2312 1.338 . S
C2311 N2310 1.369 1_565 S
C2311 C2315 1.415 . S
C2311 C2318 1.422 . S
C2312 H2303 0.929 . S
C2312 N2310 1.338 . S
C2312 C2314 1.378 1_545 S
C2313 H2308 0.931 . S
C2313 C2314 1.348 . S
C2313 C2315 1.413 . S
C2314 H2309 0.930 1_565 S
C2314 C2312 1.378 1_565 S
C2314 C2313 1.348 . S
C2315 C2311 1.415 . S
C2315 C2313 1.413 . S
C2315 C2345 1.437 . S
H2316 C2345 0.929 . S
N2317 Gd2290 2.570 1_565 S
N2317 C2318 1.359 . S
N2317 C2321 1.343 . S
C2318 C2311 1.422 . S
C2318 N2317 1.359 . S
C2318 C2320 1.421 . S
C2319 C2320 1.422 . S
C2319 C2322 1.321 . S
C2319 H2346 0.931 . S
C2320 C2318 1.421 . S
C2320 C2319 1.422 . S
C2320 C2344 1.417 . S
C2321 H2298 0.931 . S
C2321 N2317 1.343 . S
C2321 C2322 1.390 . S
C2322 H2300 0.930 . S
C2322 C2319 1.321 . S
C2322 C2321 1.390 . S
O2323 Gd2291 2.386 . S
O2323 C2335 1.265 . S
O2324 Gd2290 2.353 . S
O2324 C2335 1.242 . S
O2325 Gd2290 2.468 . S
O2325 C2343 1.263 . S
O2326 Gd2290 2.427 . S
O2326 C2343 1.252 . S
O2327 Gd2291 2.307 . S
O2327 C2336 1.261 . S
O2328 Gd2290 2.388 . S
O2328 C2336 1.252 . S
O2329 Gd2290 2.386 1_565 S
O2329 C2347 1.265 . S
O2330 Gd2291 2.353 1_565 S
O2330 C2347 1.242 . S
O2331 Gd2291 2.468 . S
O2331 C2355 1.263 . S
O2332 Gd2291 2.427 . S
O2332 C2355 1.252 . S
O2333 Gd2290 2.307 . S
O2333 C2348 1.261 . S
O2334 Gd2291 2.388 . S
O2334 C2348 1.252 . S
C2335 O2323 1.265 . S
C2335 O2324 1.242 . S
C2336 O2327 1.261 . S
C2336 O2328 1.252 . S
C2337 C2340 1.394 . S
C2337 C2342 1.370 . S
C2337 C2343 1.500 . S
C2338 C2341 1.383 . S
C2338 C2342 1.395 . S
C2339 C2340 1.396 . S
C2339 C2341 1.365 . S
C2339 H2356 0.929 . S
C2340 C2337 1.394 . S
C2340 C2339 1.396 . S
C2340 H2357 0.930 . S
C2341 C2338 1.383 . S
C2341 C2339 1.365 . S
C2341 H2358 0.931 . S
C2342 C2337 1.370 . S
C2342 C2338 1.395 . S
C2342 H2359 0.930 . S
C2343 Gd2290 2.805 . S
C2343 O2325 1.263 . S
C2343 O2326 1.252 . S
C2343 C2337 1.500 . S
C2344 H2306 0.930 . S
C2344 C2320 1.417 . S
C2344 C2345 1.329 . S
C2345 C2315 1.437 . S
C2345 H2316 0.929 . S
C2345 C2344 1.329 . S
H2346 C2319 0.931 . S
C2347 O2329 1.265 . S
C2347 O2330 1.242 . S
C2348 O2333 1.261 . S
C2348 O2334 1.252 . S
C2349 C2352 1.394 . S
C2349 C2354 1.370 . S
C2349 C2355 1.500 1_565 S
C2350 C2353 1.383 . S
C2350 C2354 1.395 . S
C2351 C2352 1.396 . S
C2351 C2353 1.365 . S
C2351 H2360 0.929 . S
C2352 C2349 1.394 . S
C2352 C2351 1.396 . S
C2352 H2361 0.930 . S
C2353 C2350 1.383 . S
C2353 C2351 1.365 . S
C2353 H2362 0.931 . S
C2354 C2349 1.370 . S
C2354 C2350 1.395 . S
C2354 H2363 0.930 . S
C2355 Gd2291 2.805 . S
C2355 O2331 1.263 . S
C2355 O2332 1.252 . S
C2355 C2349 1.500 1_545 S
H2356 C2339 0.929 . S
H2357 C2340 0.930 . S
H2358 C2341 0.931 . S
H2359 C2342 0.930 . S
H2360 C2351 0.929 . S
H2361 C2352 0.930 . S
H2362 C2353 0.931 . S
H2363 C2354 0.930 . S
C2364 C2366 1.422 . S
C2364 C2368 1.415 . S
C2364 N2370 1.369 . S
C2365 C2366 1.421 . S
C2365 C2367 1.417 . S
C2365 C2377 1.422 . S
C2366 C2364 1.422 . S
C2366 C2365 1.421 . S
C2366 N2376 1.359 . S
C2367 C2365 1.417 . S
C2367 C2369 1.329 . S
C2367 H2386 0.930 . S
C2368 C2364 1.415 . S
C2368 C2369 1.437 . S
C2368 C2372 1.413 . S
C2369 C2367 1.329 . S
C2369 C2368 1.437 . S
C2369 H2391 0.929 . S
N2370 C2364 1.369 . S
N2370 C2371 1.338 . S
N2370 Gd2375 2.622 . S
C2371 N2370 1.338 . S
C2371 C2373 1.378 . S
C2371 H2383 0.929 . S
C2372 C2368 1.413 . S
C2372 C2373 1.348 . S
C2372 H2388 0.931 . S
C2373 C2371 1.378 . S
C2373 C2372 1.348 . S
C2373 H2389 0.930 . S
Gd2374 N2394 2.622 . S
Gd2374 N2401 2.570 . S
Gd2374 O2408 2.353 . S
Gd2374 O2409 2.468 . S
Gd2374 O2410 2.427 . S
Gd2374 O2412 2.388 . S
Gd2374 O2413 2.386 . S
Gd2374 O2417 2.307 . S
Gd2374 C2427 2.805 . S
Gd2375 N2370 2.622 . S
Gd2375 N2376 2.570 . S
Gd2375 O2407 2.386 . S
Gd2375 O2411 2.307 . S
Gd2375 O2414 2.353 . S
Gd2375 O2415 2.468 . S
Gd2375 O2416 2.427 . S
Gd2375 O2418 2.388 . S
Gd2375 C2439 2.805 . S
N2376 C2366 1.359 . S
N2376 Gd2375 2.570 . S
N2376 C2378 1.343 . S
C2377 C2365 1.422 . S
C2377 C2379 1.321 . S
C2377 H2385 0.931 . S
C2378 N2376 1.343 . S
C2378 C2379 1.390 . S
C2378 H2380 0.931 . S
C2379 C2377 1.321 . S
C2379 C2378 1.390 . S
C2379 H2381 0.930 . S
H2380 C2378 0.931 . S
H2381 C2379 0.930 . S
H2382 C2405 0.931 . S
H2383 C2371 0.929 . S
H2384 C2406 0.930 . S
H2385 C2377 0.931 . S
H2386 C2367 0.930 . S
H2387 C2396 0.929 . S
H2388 C2372 0.931 . S
H2389 C2373 0.930 . S
H2390 C2428 0.930 . S
H2391 C2369 0.929 . S
H2392 C2397 0.931 . S
H2393 C2398 0.930 . S
N2394 Gd2374 2.622 . S
N2394 C2395 1.369 . S
N2394 C2396 1.338 . S
C2395 N2394 1.369 . S
C2395 C2399 1.415 . S
C2395 C2402 1.422 . S
C2396 H2387 0.929 . S
C2396 N2394 1.338 . S
C2396 C2398 1.378 . S
C2397 H2392 0.931 . S
C2397 C2398 1.348 . S
C2397 C2399 1.413 . S
C2398 H2393 0.930 . S
C2398 C2396 1.378 . S
C2398 C2397 1.348 . S
C2399 C2395 1.415 . S
C2399 C2397 1.413 . S
C2399 C2429 1.437 . S
H2400 C2429 0.929 . S
N2401 Gd2374 2.570 . S
N2401 C2402 1.359 . S
N2401 C2405 1.343 . S
C2402 C2395 1.422 . S
C2402 N2401 1.359 . S
C2402 C2404 1.421 . S
C2403 C2404 1.422 . S
C2403 C2406 1.321 . S
C2403 H2430 0.931 . S
C2404 C2402 1.421 . S
C2404 C2403 1.422 . S
C2404 C2428 1.417 . S
C2405 H2382 0.931 . S
C2405 N2401 1.343 . S
C2405 C2406 1.390 . S
C2406 H2384 0.930 . S
C2406 C2403 1.321 . S
C2406 C2405 1.390 . S
O2407 Gd2375 2.386 . S
O2407 C2419 1.265 . S
O2408 Gd2374 2.353 . S
O2408 C2419 1.242 . S
O2409 Gd2374 2.468 . S
O2409 C2427 1.263 . S
O2410 Gd2374 2.427 . S
O2410 C2427 1.252 . S
O2411 Gd2375 2.307 . S
O2411 C2420 1.261 . S
O2412 Gd2374 2.388 . S
O2412 C2420 1.252 . S
O2413 Gd2374 2.386 . S
O2413 C2431 1.265 . S
O2414 Gd2375 2.353 . S
O2414 C2431 1.242 . S
O2415 Gd2375 2.468 . S
O2415 C2439 1.263 . S
O2416 Gd2375 2.427 . S
O2416 C2439 1.252 . S
O2417 Gd2374 2.307 . S
O2417 C2432 1.261 . S
O2418 Gd2375 2.388 . S
O2418 C2432 1.252 . S
C2419 O2407 1.265 . S
C2419 O2408 1.242 . S
C2420 O2411 1.261 . S
C2420 O2412 1.252 . S
C2421 C2424 1.394 . S
C2421 C2426 1.370 . S
C2421 C2427 1.500 . S
C2422 C2425 1.383 . S
C2422 C2426 1.395 . S
C2423 C2424 1.396 . S
C2423 C2425 1.365 . S
C2423 H2440 0.929 . S
C2424 C2421 1.394 . S
C2424 C2423 1.396 . S
C2424 H2441 0.930 . S
C2425 C2422 1.383 . S
C2425 C2423 1.365 . S
C2425 H2442 0.931 . S
C2426 C2421 1.370 . S
C2426 C2422 1.395 . S
C2426 H2443 0.930 . S
C2427 Gd2374 2.805 . S
C2427 O2409 1.263 . S
C2427 O2410 1.252 . S
C2427 C2421 1.500 . S
C2428 H2390 0.930 . S
C2428 C2404 1.417 . S
C2428 C2429 1.329 . S
C2429 C2399 1.437 . S
C2429 H2400 0.929 . S
C2429 C2428 1.329 . S
H2430 C2403 0.931 . S
C2431 O2413 1.265 . S
C2431 O2414 1.242 . S
C2432 O2417 1.261 . S
C2432 O2418 1.252 . S
C2433 C2436 1.394 . S
C2433 C2438 1.370 . S
C2433 C2439 1.500 . S
C2434 C2437 1.383 . S
C2434 C2438 1.395 . S
C2435 C2436 1.396 . S
C2435 C2437 1.365 . S
C2435 H2444 0.929 . S
C2436 C2433 1.394 . S
C2436 C2435 1.396 . S
C2436 H2445 0.930 . S
C2437 C2434 1.383 . S
C2437 C2435 1.365 . S
C2437 H2446 0.931 . S
C2438 C2433 1.370 . S
C2438 C2434 1.395 . S
C2438 H2447 0.930 . S
C2439 Gd2375 2.805 . S
C2439 O2415 1.263 . S
C2439 O2416 1.252 . S
C2439 C2433 1.500 . S
H2440 C2423 0.929 . S
H2441 C2424 0.930 . S
H2442 C2425 0.931 . S
H2443 C2426 0.930 . S
H2444 C2435 0.929 . S
H2445 C2436 0.930 . S
H2446 C2437 0.931 . S
H2447 C2438 0.930 . S
C2448 C2450 1.422 . S
C2448 C2452 1.415 1_455 S
C2448 N2454 1.369 1_455 S
C2449 C2450 1.421 . S
C2449 C2451 1.417 . S
C2449 C2461 1.422 . S
C2450 C2448 1.422 . S
C2450 C2449 1.421 . S
C2450 N2460 1.359 . S
C2451 C2449 1.417 . S
C2451 C2453 1.329 . S
C2451 H2470 0.930 . S
C2452 C2448 1.415 1_655 S
C2452 C2453 1.437 1_655 S
C2452 C2456 1.413 . S
C2453 C2451 1.329 . S
C2453 C2452 1.437 1_455 S
C2453 H2475 0.929 1_455 S
N2454 C2448 1.369 1_655 S
N2454 C2455 1.338 . S
N2454 Gd2459 2.622 1_655 S
C2455 N2454 1.338 . S
C2455 C2457 1.378 . S
C2455 H2467 0.929 . S
C2456 C2452 1.413 . S
C2456 C2457 1.348 . S
C2456 H2472 0.931 . S
C2457 C2455 1.378 . S
C2457 C2456 1.348 . S
C2457 H2473 0.930 . S
Gd2458 N2478 2.621 . S
Gd2458 N2485 2.568 . S
Gd2458 O2492 2.354 1_565 S
Gd2458 O2493 2.465 . S
Gd2458 O2494 2.425 . S
Gd2458 O2496 2.390 1_565 S
Gd2458 O2497 2.387 1_565 S
Gd2458 O2501 2.308 1_565 S
Gd2458 C2511 2.803 . S
Gd2459 N2454 2.622 1_455 S
Gd2459 N2460 2.570 . S
Gd2459 O2491 2.386 . S
Gd2459 O2495 2.307 . S
Gd2459 O2498 2.353 . S
Gd2459 O2499 2.468 . S
Gd2459 O2500 2.427 1_455 S
Gd2459 O2502 2.388 1_455 S
Gd2459 C2523 2.805 . S
N2460 C2450 1.359 . S
N2460 Gd2459 2.570 . S
N2460 C2462 1.343 . S
C2461 C2449 1.422 . S
C2461 C2463 1.321 . S
C2461 H2469 0.931 . S
C2462 N2460 1.343 . S
C2462 C2463 1.390 . S
C2462 H2464 0.931 . S
C2463 C2461 1.321 . S
C2463 C2462 1.390 . S
C2463 H2465 0.930 . S
H2464 C2462 0.931 . S
H2465 C2463 0.930 . S
H2466 C2489 0.931 . S
H2467 C2455 0.929 . S
H2468 C2490 0.930 . S
H2469 C2461 0.931 . S
H2470 C2451 0.930 . S
H2471 C2480 0.929 1_545 S
H2472 C2456 0.931 . S
H2473 C2457 0.930 . S
H2474 C2512 0.930 . S
H2475 C2453 0.929 1_655 S
H2476 C2481 0.931 . S
H2477 C2482 0.930 1_545 S
N2478 Gd2458 2.621 . S
N2478 C2479 1.369 . S
N2478 C2480 1.338 . S
C2479 N2478 1.369 . S
C2479 C2483 1.415 . S
C2479 C2486 1.422 . S
C2480 H2471 0.929 1_565 S
C2480 N2478 1.338 . S
C2480 C2482 1.378 . S
C2481 H2476 0.931 . S
C2481 C2482 1.348 . S
C2481 C2483 1.413 . S
C2482 H2477 0.930 1_565 S
C2482 C2480 1.378 . S
C2482 C2481 1.348 . S
C2483 C2479 1.415 . S
C2483 C2481 1.413 . S
C2483 C2513 1.437 . S
H2484 C2513 0.929 . S
N2485 Gd2458 2.568 . S
N2485 C2486 1.359 . S
N2485 C2489 1.343 1_455 S
C2486 C2479 1.422 . S
C2486 N2485 1.359 . S
C2486 C2488 1.421 . S
C2487 C2488 1.422 1_655 S
C2487 C2490 1.321 . S
C2487 H2514 0.931 . S
C2488 C2486 1.421 . S
C2488 C2487 1.422 1_455 S
C2488 C2512 1.417 . S
C2489 H2466 0.931 . S
C2489 N2485 1.343 1_655 S
C2489 C2490 1.390 . S
C2490 H2468 0.930 . S
C2490 C2487 1.321 . S
C2490 C2489 1.390 . S
O2491 Gd2459 2.386 . S
O2491 C2503 1.265 . S
O2492 Gd2458 2.354 1_545 S
O2492 C2503 1.242 . S
O2493 Gd2458 2.465 . S
O2493 C2511 1.263 . S
O2494 Gd2458 2.425 . S
O2494 C2511 1.252 . S
O2495 Gd2459 2.307 . S
O2495 C2504 1.261 . S
O2496 Gd2458 2.390 1_545 S
O2496 C2504 1.252 . S
O2497 Gd2458 2.387 1_545 S
O2497 C2515 1.265 . S
O2498 Gd2459 2.353 . S
O2498 C2515 1.242 . S
O2499 Gd2459 2.468 . S
O2499 C2523 1.263 . S
O2500 Gd2459 2.427 1_655 S
O2500 C2523 1.252 1_655 S
O2501 Gd2458 2.308 1_545 S
O2501 C2516 1.261 1_455 S
O2502 Gd2459 2.388 1_655 S
O2502 C2516 1.252 . S
C2503 O2491 1.265 . S
C2503 O2492 1.242 . S
C2504 O2495 1.261 . S
C2504 O2496 1.252 . S
C2505 C2508 1.394 . S
C2505 C2510 1.370 . S
C2505 C2511 1.500 . S
C2506 C2509 1.383 . S
C2506 C2510 1.395 . S
C2507 C2508 1.396 . S
C2507 C2509 1.365 . S
C2507 H2524 0.929 . S
C2508 C2505 1.394 . S
C2508 C2507 1.396 . S
C2508 H2525 0.930 . S
C2509 C2506 1.383 . S
C2509 C2507 1.365 . S
C2509 H2526 0.931 . S
C2510 C2505 1.370 . S
C2510 C2506 1.395 . S
C2510 H2527 0.930 . S
C2511 Gd2458 2.803 . S
C2511 O2493 1.263 . S
C2511 O2494 1.252 . S
C2511 C2505 1.500 . S
C2512 H2474 0.930 . S
C2512 C2488 1.417 . S
C2512 C2513 1.329 . S
C2513 C2483 1.437 . S
C2513 H2484 0.929 . S
C2513 C2512 1.329 . S
H2514 C2487 0.931 . S
C2515 O2497 1.265 . S
C2515 O2498 1.242 . S
C2516 O2501 1.261 1_655 S
C2516 O2502 1.252 . S
C2517 C2520 1.394 1_455 S
C2517 C2522 1.370 . S
C2517 C2523 1.500 . S
C2518 C2521 1.383 1_455 S
C2518 C2522 1.395 . S
C2519 C2520 1.396 . S
C2519 C2521 1.365 . S
C2519 H2528 0.929 . S
C2520 C2517 1.394 1_655 S
C2520 C2519 1.396 . S
C2520 H2529 0.930 . S
C2521 C2518 1.383 1_655 S
C2521 C2519 1.365 . S
C2521 H2530 0.931 . S
C2522 C2517 1.370 . S
C2522 C2518 1.395 . S
C2522 H2531 0.930 . S
C2523 Gd2459 2.805 . S
C2523 O2499 1.263 . S
C2523 O2500 1.252 1_455 S
C2523 C2517 1.500 . S
H2524 C2507 0.929 . S
H2525 C2508 0.930 . S
H2526 C2509 0.931 . S
H2527 C2510 0.930 . S
H2528 C2519 0.929 . S
H2529 C2520 0.930 . S
H2530 C2521 0.931 . S
H2531 C2522 0.930 . S
C2532 C2534 1.422 . S
C2532 C2536 1.415 . S
C2532 N2538 1.369 . S
C2533 C2534 1.421 . S
C2533 C2535 1.417 . S
C2533 C2545 1.422 . S
C2534 C2532 1.422 . S
C2534 C2533 1.421 . S
C2534 N2544 1.359 . S
C2535 C2533 1.417 . S
C2535 C2537 1.329 . S
C2535 H2554 0.930 . S
C2536 C2532 1.415 . S
C2536 C2537 1.437 . S
C2536 C2540 1.413 . S
C2537 C2535 1.329 . S
C2537 C2536 1.437 . S
C2537 H2559 0.929 . S
N2538 C2532 1.369 . S
N2538 C2539 1.338 . S
N2538 Gd2543 2.622 . S
C2539 N2538 1.338 . S
C2539 C2541 1.378 . S
C2539 H2551 0.929 . S
C2540 C2536 1.413 . S
C2540 C2541 1.348 . S
C2540 H2556 0.931 . S
C2541 C2539 1.378 . S
C2541 C2540 1.348 . S
C2541 H2557 0.930 . S
Gd2542 N2562 2.622 . S
Gd2542 N2569 2.570 . S
Gd2542 O2576 2.353 . S
Gd2542 O2577 2.468 . S
Gd2542 O2578 2.427 . S
Gd2542 O2580 2.388 . S
Gd2542 O2581 2.386 . S
Gd2542 O2585 2.307 . S
Gd2542 C2595 2.805 . S
Gd2543 N2538 2.622 . S
Gd2543 N2544 2.570 . S
Gd2543 O2575 2.386 . S
Gd2543 O2579 2.307 . S
Gd2543 O2582 2.353 . S
Gd2543 O2583 2.468 . S
Gd2543 O2584 2.427 . S
Gd2543 O2586 2.388 . S
Gd2543 C2607 2.805 . S
N2544 C2534 1.359 . S
N2544 Gd2543 2.570 . S
N2544 C2546 1.343 . S
C2545 C2533 1.422 . S
C2545 C2547 1.321 . S
C2545 H2553 0.931 . S
C2546 N2544 1.343 . S
C2546 C2547 1.390 . S
C2546 H2548 0.931 . S
C2547 C2545 1.321 . S
C2547 C2546 1.390 . S
C2547 H2549 0.930 . S
H2548 C2546 0.931 . S
H2549 C2547 0.930 . S
H2550 C2573 0.931 . S
H2551 C2539 0.929 . S
H2552 C2574 0.930 . S
H2553 C2545 0.931 . S
H2554 C2535 0.930 . S
H2555 C2564 0.929 . S
H2556 C2540 0.931 . S
H2557 C2541 0.930 . S
H2558 C2596 0.930 . S
H2559 C2537 0.929 . S
H2560 C2565 0.931 . S
H2561 C2566 0.930 . S
N2562 Gd2542 2.622 . S
N2562 C2563 1.369 . S
N2562 C2564 1.338 . S
C2563 N2562 1.369 . S
C2563 C2567 1.415 . S
C2563 C2570 1.422 . S
C2564 H2555 0.929 . S
C2564 N2562 1.338 . S
C2564 C2566 1.378 . S
C2565 H2560 0.931 . S
C2565 C2566 1.348 . S
C2565 C2567 1.413 . S
C2566 H2561 0.930 . S
C2566 C2564 1.378 . S
C2566 C2565 1.348 . S
C2567 C2563 1.415 . S
C2567 C2565 1.413 . S
C2567 C2597 1.437 . S
H2568 C2597 0.929 . S
N2569 Gd2542 2.570 . S
N2569 C2570 1.359 . S
N2569 C2573 1.343 . S
C2570 C2563 1.422 . S
C2570 N2569 1.359 . S
C2570 C2572 1.421 . S
C2571 C2572 1.422 . S
C2571 C2574 1.321 . S
C2571 H2598 0.931 . S
C2572 C2570 1.421 . S
C2572 C2571 1.422 . S
C2572 C2596 1.417 . S
C2573 H2550 0.931 . S
C2573 N2569 1.343 . S
C2573 C2574 1.390 . S
C2574 H2552 0.930 . S
C2574 C2571 1.321 . S
C2574 C2573 1.390 . S
O2575 Gd2543 2.386 . S
O2575 C2587 1.265 . S
O2576 Gd2542 2.353 . S
O2576 C2587 1.242 . S
O2577 Gd2542 2.468 . S
O2577 C2595 1.263 . S
O2578 Gd2542 2.427 . S
O2578 C2595 1.252 . S
O2579 Gd2543 2.307 . S
O2579 C2588 1.261 . S
O2580 Gd2542 2.388 . S
O2580 C2588 1.252 . S
O2581 Gd2542 2.386 . S
O2581 C2599 1.265 . S
O2582 Gd2543 2.353 . S
O2582 C2599 1.242 . S
O2583 Gd2543 2.468 . S
O2583 C2607 1.263 . S
O2584 Gd2543 2.427 . S
O2584 C2607 1.252 . S
O2585 Gd2542 2.307 . S
O2585 C2600 1.261 . S
O2586 Gd2543 2.388 . S
O2586 C2600 1.252 . S
C2587 O2575 1.265 . S
C2587 O2576 1.242 . S
C2588 O2579 1.261 . S
C2588 O2580 1.252 . S
C2589 C2592 1.394 . S
C2589 C2594 1.370 . S
C2589 C2595 1.500 . S
C2590 C2593 1.383 . S
C2590 C2594 1.395 . S
C2591 C2592 1.396 . S
C2591 C2593 1.365 . S
C2591 H2608 0.929 . S
C2592 C2589 1.394 . S
C2592 C2591 1.396 . S
C2592 H2609 0.930 . S
C2593 C2590 1.383 . S
C2593 C2591 1.365 . S
C2593 H2610 0.931 . S
C2594 C2589 1.370 . S
C2594 C2590 1.395 . S
C2594 H2611 0.930 . S
C2595 Gd2542 2.805 . S
C2595 O2577 1.263 . S
C2595 O2578 1.252 . S
C2595 C2589 1.500 . S
C2596 H2558 0.930 . S
C2596 C2572 1.417 . S
C2596 C2597 1.329 . S
C2597 C2567 1.437 . S
C2597 H2568 0.929 . S
C2597 C2596 1.329 . S
H2598 C2571 0.931 . S
C2599 O2581 1.265 . S
C2599 O2582 1.242 . S
C2600 O2585 1.261 . S
C2600 O2586 1.252 . S
C2601 C2604 1.394 . S
C2601 C2606 1.370 . S
C2601 C2607 1.500 . S
C2602 C2605 1.383 . S
C2602 C2606 1.395 . S
C2603 C2604 1.396 . S
C2603 C2605 1.365 . S
C2603 H2612 0.929 . S
C2604 C2601 1.394 . S
C2604 C2603 1.396 . S
C2604 H2613 0.930 . S
C2605 C2602 1.383 . S
C2605 C2603 1.365 . S
C2605 H2614 0.931 . S
C2606 C2601 1.370 . S
C2606 C2602 1.395 . S
C2606 H2615 0.930 . S
C2607 Gd2543 2.805 . S
C2607 O2583 1.263 . S
C2607 O2584 1.252 . S
C2607 C2601 1.500 . S
H2608 C2591 0.929 . S
H2609 C2592 0.930 . S
H2610 C2593 0.931 . S
H2611 C2594 0.930 . S
H2612 C2603 0.929 . S
H2613 C2604 0.930 . S
H2614 C2605 0.931 . S
H2615 C2606 0.930 . S
C2616 C2618 1.422 1_565 S
C2616 C2620 1.415 . S
C2616 N2622 1.369 . S
C2617 C2618 1.421 . S
C2617 C2619 1.417 . S
C2617 C2629 1.422 . S
C2618 C2616 1.422 1_545 S
C2618 C2617 1.421 . S
C2618 N2628 1.359 . S
C2619 C2617 1.417 . S
C2619 C2621 1.329 1_545 S
C2619 H2638 0.930 . S
C2620 C2616 1.415 . S
C2620 C2621 1.437 . S
C2620 C2624 1.413 . S
C2621 C2619 1.329 1_565 S
C2621 C2620 1.437 . S
C2621 H2643 0.929 . S
N2622 C2616 1.369 . S
N2622 C2623 1.338 . S
N2622 Gd2627 2.622 1_565 S
C2623 N2622 1.338 . S
C2623 C2625 1.378 . S
C2623 H2635 0.929 . S
C2624 C2620 1.413 . S
C2624 C2625 1.348 . S
C2624 H2640 0.931 . S
C2625 C2623 1.378 . S
C2625 C2624 1.348 . S
C2625 H2641 0.930 . S
Gd2626 N2646 2.629 . S
Gd2626 N2653 2.590 . S
Gd2626 O2660 2.343 1_556 S
Gd2626 O2661 2.492 . S
Gd2626 O2662 2.445 . S
Gd2626 O2664 2.367 1_556 S
Gd2626 O2665 2.372 1_556 S
Gd2626 O2669 2.304 . S
Gd2626 C2679 2.829 . S
Gd2627 N2622 2.622 1_545 S
Gd2627 N2628 2.570 . S
Gd2627 O2659 2.386 . S
Gd2627 O2663 2.307 . S
Gd2627 O2666 2.353 . S
Gd2627 O2667 2.468 . S
Gd2627 O2668 2.427 1_545 S
Gd2627 O2670 2.388 1_545 S
Gd2627 C2691 2.805 1_545 S
N2628 C2618 1.359 . S
N2628 Gd2627 2.570 . S
N2628 C2630 1.343 . S
C2629 C2617 1.422 . S
C2629 C2631 1.321 . S
C2629 H2637 0.931 . S
C2630 N2628 1.343 . S
C2630 C2631 1.390 . S
C2630 H2632 0.931 . S
C2631 C2629 1.321 . S
C2631 C2630 1.390 . S
C2631 H2633 0.930 . S
H2632 C2630 0.931 . S
H2633 C2631 0.930 . S
H2634 C2657 0.931 . S
H2635 C2623 0.929 . S
H2636 C2658 0.930 . S
H2637 C2629 0.931 . S
H2638 C2619 0.930 . S
H2639 C2648 0.929 1_554 S
H2640 C2624 0.931 . S
H2641 C2625 0.930 . S
H2642 C2680 0.930 . S
H2643 C2621 0.929 . S
H2644 C2649 0.931 . S
H2645 C2650 0.930 1_554 S
N2646 Gd2626 2.629 . S
N2646 C2647 1.369 . S
N2646 C2648 1.338 . S
C2647 N2646 1.369 . S
C2647 C2651 1.415 . S
C2647 C2654 1.422 . S
C2648 H2639 0.929 1_556 S
C2648 N2646 1.338 . S
C2648 C2650 1.378 . S
C2649 H2644 0.931 . S
C2649 C2650 1.348 . S
C2649 C2651 1.413 . S
C2650 H2645 0.930 1_556 S
C2650 C2648 1.378 . S
C2650 C2649 1.348 . S
C2651 C2647 1.415 . S
C2651 C2649 1.413 . S
C2651 C2681 1.437 . S
H2652 C2681 0.929 . S
N2653 Gd2626 2.590 . S
N2653 C2654 1.359 . S
N2653 C2657 1.343 . S
C2654 C2647 1.422 . S
C2654 N2653 1.359 . S
C2654 C2656 1.421 . S
C2655 C2656 1.422 . S
C2655 C2658 1.321 1_545 S
C2655 H2682 0.931 . S
C2656 C2654 1.421 . S
C2656 C2655 1.422 . S
C2656 C2680 1.417 . S
C2657 H2634 0.931 . S
C2657 N2653 1.343 . S
C2657 C2658 1.390 1_545 S
C2658 H2636 0.930 . S
C2658 C2655 1.321 1_565 S
C2658 C2657 1.390 1_565 S
O2659 Gd2627 2.386 . S
O2659 C2671 1.265 . S
O2660 Gd2626 2.343 1_554 S
O2660 C2671 1.242 . S
O2661 Gd2626 2.492 . S
O2661 C2679 1.263 . S
O2662 Gd2626 2.445 . S
O2662 C2679 1.252 . S
O2663 Gd2627 2.307 . S
O2663 C2672 1.261 . S
O2664 Gd2626 2.367 1_554 S
O2664 C2672 1.252 . S
O2665 Gd2626 2.372 1_554 S
O2665 C2683 1.265 . S
O2666 Gd2627 2.353 . S
O2666 C2683 1.242 . S
O2667 Gd2627 2.468 . S
O2667 C2691 1.263 1_545 S
O2668 Gd2627 2.427 1_565 S
O2668 C2691 1.252 . S
O2669 Gd2626 2.304 . S
O2669 C2684 1.259 1_546 S
O2670 Gd2627 2.388 1_565 S
O2670 C2684 1.252 . S
C2671 O2659 1.265 . S
C2671 O2660 1.242 . S
C2672 O2663 1.261 . S
C2672 O2664 1.252 . S
C2673 C2676 1.394 . S
C2673 C2678 1.370 . S
C2673 C2679 1.500 . S
C2674 C2677 1.383 . S
C2674 C2678 1.395 . S
C2675 C2676 1.396 . S
C2675 C2677 1.365 . S
C2675 H2692 0.929 . S
C2676 C2673 1.394 . S
C2676 C2675 1.396 . S
C2676 H2693 0.930 . S
C2677 C2674 1.383 . S
C2677 C2675 1.365 . S
C2677 H2694 0.931 . S
C2678 C2673 1.370 . S
C2678 C2674 1.395 . S
C2678 H2695 0.930 . S
C2679 Gd2626 2.829 . S
C2679 O2661 1.263 . S
C2679 O2662 1.252 . S
C2679 C2673 1.500 . S
C2680 H2642 0.930 . S
C2680 C2656 1.417 . S
C2680 C2681 1.329 . S
C2681 C2651 1.437 . S
C2681 H2652 0.929 . S
C2681 C2680 1.329 . S
H2682 C2655 0.931 . S
C2683 O2665 1.265 . S
C2683 O2666 1.242 . S
C2684 O2669 1.259 1_564 S
C2684 O2670 1.252 . S
C2685 C2688 1.394 . S
C2685 C2690 1.370 1_565 S
C2685 C2691 1.500 . S
C2686 C2689 1.383 . S
C2686 C2690 1.395 1_565 S
C2687 C2688 1.396 . S
C2687 C2689 1.365 . S
C2687 H2696 0.929 . S
C2688 C2685 1.394 . S
C2688 C2687 1.396 . S
C2688 H2697 0.930 . S
C2689 C2686 1.383 . S
C2689 C2687 1.365 . S
C2689 H2698 0.931 . S
C2690 C2685 1.370 1_545 S
C2690 C2686 1.395 1_545 S
C2690 H2699 0.930 . S
C2691 Gd2627 2.805 1_565 S
C2691 O2667 1.263 1_565 S
C2691 O2668 1.252 . S
C2691 C2685 1.500 . S
H2692 C2675 0.929 . S
H2693 C2676 0.930 . S
H2694 C2677 0.931 . S
H2695 C2678 0.930 . S
H2696 C2687 0.929 . S
H2697 C2688 0.930 . S
H2698 C2689 0.931 . S
H2699 C2690 0.930 . S
C2700 C2702 1.422 . S
C2700 C2704 1.415 . S
C2700 N2706 1.369 . S
C2701 C2702 1.421 . S
C2701 C2703 1.417 . S
C2701 C2713 1.422 . S
C2702 C2700 1.422 . S
C2702 C2701 1.421 . S
C2702 N2712 1.359 . S
C2703 C2701 1.417 . S
C2703 C2705 1.329 . S
C2703 H2722 0.930 . S
C2704 C2700 1.415 . S
C2704 C2705 1.437 . S
C2704 C2708 1.413 . S
C2705 C2703 1.329 . S
C2705 C2704 1.437 . S
C2705 H2727 0.929 . S
N2706 C2700 1.369 . S
N2706 C2707 1.338 . S
N2706 Gd2711 2.622 . S
C2707 N2706 1.338 . S
C2707 C2709 1.378 . S
C2707 H2719 0.929 . S
C2708 C2704 1.413 . S
C2708 C2709 1.348 . S
C2708 H2724 0.931 . S
C2709 C2707 1.378 . S
C2709 C2708 1.348 . S
C2709 H2725 0.930 . S
Gd2710 N2730 2.622 . S
Gd2710 N2737 2.570 . S
Gd2710 O2744 2.353 . S
Gd2710 O2745 2.468 . S
Gd2710 O2746 2.427 . S
Gd2710 O2748 2.388 . S
Gd2710 O2749 2.386 . S
Gd2710 O2753 2.307 . S
Gd2710 C2763 2.805 . S
Gd2711 N2706 2.622 . S
Gd2711 N2712 2.570 . S
Gd2711 O2743 2.386 . S
Gd2711 O2747 2.307 . S
Gd2711 O2750 2.353 . S
Gd2711 O2751 2.468 . S
Gd2711 O2752 2.427 . S
Gd2711 O2754 2.388 . S
Gd2711 C2775 2.805 . S
N2712 C2702 1.359 . S
N2712 Gd2711 2.570 . S
N2712 C2714 1.343 . S
C2713 C2701 1.422 . S
C2713 C2715 1.321 . S
C2713 H2721 0.931 . S
C2714 N2712 1.343 . S
C2714 C2715 1.390 . S
C2714 H2716 0.931 . S
C2715 C2713 1.321 . S
C2715 C2714 1.390 . S
C2715 H2717 0.930 . S
H2716 C2714 0.931 . S
H2717 C2715 0.930 . S
H2718 C2741 0.931 . S
H2719 C2707 0.929 . S
H2720 C2742 0.930 . S
H2721 C2713 0.931 . S
H2722 C2703 0.930 . S
H2723 C2732 0.929 . S
H2724 C2708 0.931 . S
H2725 C2709 0.930 . S
H2726 C2764 0.930 . S
H2727 C2705 0.929 . S
H2728 C2733 0.931 . S
H2729 C2734 0.930 . S
N2730 Gd2710 2.622 . S
N2730 C2731 1.369 . S
N2730 C2732 1.338 . S
C2731 N2730 1.369 . S
C2731 C2735 1.415 . S
C2731 C2738 1.422 . S
C2732 H2723 0.929 . S
C2732 N2730 1.338 . S
C2732 C2734 1.378 . S
C2733 H2728 0.931 . S
C2733 C2734 1.348 . S
C2733 C2735 1.413 . S
C2734 H2729 0.930 . S
C2734 C2732 1.378 . S
C2734 C2733 1.348 . S
C2735 C2731 1.415 . S
C2735 C2733 1.413 . S
C2735 C2765 1.437 . S
H2736 C2765 0.929 . S
N2737 Gd2710 2.570 . S
N2737 C2738 1.359 . S
N2737 C2741 1.343 . S
C2738 C2731 1.422 . S
C2738 N2737 1.359 . S
C2738 C2740 1.421 . S
C2739 C2740 1.422 . S
C2739 C2742 1.321 . S
C2739 H2766 0.931 . S
C2740 C2738 1.421 . S
C2740 C2739 1.422 . S
C2740 C2764 1.417 . S
C2741 H2718 0.931 . S
C2741 N2737 1.343 . S
C2741 C2742 1.390 . S
C2742 H2720 0.930 . S
C2742 C2739 1.321 . S
C2742 C2741 1.390 . S
O2743 Gd2711 2.386 . S
O2743 C2755 1.265 . S
O2744 Gd2710 2.353 . S
O2744 C2755 1.242 . S
O2745 Gd2710 2.468 . S
O2745 C2763 1.263 . S
O2746 Gd2710 2.427 . S
O2746 C2763 1.252 . S
O2747 Gd2711 2.307 . S
O2747 C2756 1.261 . S
O2748 Gd2710 2.388 . S
O2748 C2756 1.252 . S
O2749 Gd2710 2.386 . S
O2749 C2767 1.265 . S
O2750 Gd2711 2.353 . S
O2750 C2767 1.242 . S
O2751 Gd2711 2.468 . S
O2751 C2775 1.263 . S
O2752 Gd2711 2.427 . S
O2752 C2775 1.252 . S
O2753 Gd2710 2.307 . S
O2753 C2768 1.261 . S
O2754 Gd2711 2.388 . S
O2754 C2768 1.252 . S
C2755 O2743 1.265 . S
C2755 O2744 1.242 . S
C2756 O2747 1.261 . S
C2756 O2748 1.252 . S
C2757 C2760 1.394 . S
C2757 C2762 1.370 . S
C2757 C2763 1.500 . S
C2758 C2761 1.383 . S
C2758 C2762 1.395 . S
C2759 C2760 1.396 . S
C2759 C2761 1.365 . S
C2759 H2776 0.929 . S
C2760 C2757 1.394 . S
C2760 C2759 1.396 . S
C2760 H2777 0.930 . S
C2761 C2758 1.383 . S
C2761 C2759 1.365 . S
C2761 H2778 0.931 . S
C2762 C2757 1.370 . S
C2762 C2758 1.395 . S
C2762 H2779 0.930 . S
C2763 Gd2710 2.805 . S
C2763 O2745 1.263 . S
C2763 O2746 1.252 . S
C2763 C2757 1.500 . S
C2764 H2726 0.930 . S
C2764 C2740 1.417 . S
C2764 C2765 1.329 . S
C2765 C2735 1.437 . S
C2765 H2736 0.929 . S
C2765 C2764 1.329 . S
H2766 C2739 0.931 . S
C2767 O2749 1.265 . S
C2767 O2750 1.242 . S
C2768 O2753 1.261 . S
C2768 O2754 1.252 . S
C2769 C2772 1.394 . S
C2769 C2774 1.370 . S
C2769 C2775 1.500 . S
C2770 C2773 1.383 . S
C2770 C2774 1.395 . S
C2771 C2772 1.396 . S
C2771 C2773 1.365 . S
C2771 H2780 0.929 . S
C2772 C2769 1.394 . S
C2772 C2771 1.396 . S
C2772 H2781 0.930 . S
C2773 C2770 1.383 . S
C2773 C2771 1.365 . S
C2773 H2782 0.931 . S
C2774 C2769 1.370 . S
C2774 C2770 1.395 . S
C2774 H2783 0.930 . S
C2775 Gd2711 2.805 . S
C2775 O2751 1.263 . S
C2775 O2752 1.252 . S
C2775 C2769 1.500 . S
H2776 C2759 0.929 . S
H2777 C2760 0.930 . S
H2778 C2761 0.931 . S
H2779 C2762 0.930 . S
H2780 C2771 0.929 . S
H2781 C2772 0.930 . S
H2782 C2773 0.931 . S
H2783 C2774 0.930 . S
C2784 C2786 1.422 . S
C2784 C2788 1.415 . S
C2784 N2790 1.369 . S
C2785 C2786 1.421 . S
C2785 C2787 1.417 . S
C2785 C2797 1.422 . S
C2786 C2784 1.422 . S
C2786 C2785 1.421 . S
C2786 N2796 1.359 . S
C2787 C2785 1.417 . S
C2787 C2789 1.329 . S
C2787 H2806 0.930 . S
C2788 C2784 1.415 . S
C2788 C2789 1.437 . S
C2788 C2792 1.413 . S
C2789 C2787 1.329 . S
C2789 C2788 1.437 . S
C2789 H2811 0.929 . S
N2790 C2784 1.369 . S
N2790 C2791 1.338 . S
N2790 Gd2795 2.622 . S
C2791 N2790 1.338 . S
C2791 C2793 1.378 . S
C2791 H2803 0.929 . S
C2792 C2788 1.413 . S
C2792 C2793 1.348 . S
C2792 H2808 0.931 . S
C2793 C2791 1.378 . S
C2793 C2792 1.348 . S
C2793 H2809 0.930 . S
Gd2794 N2814 2.622 1_554 S
Gd2794 N2821 2.570 1_554 S
Gd2794 O2828 2.353 . S
Gd2794 O2829 2.468 . S
Gd2794 O2830 2.427 . S
Gd2794 O2832 2.388 . S
Gd2794 O2833 2.386 1_554 S
Gd2794 O2837 2.307 . S
Gd2794 C2847 2.805 . S
Gd2795 N2790 2.622 . S
Gd2795 N2796 2.570 . S
Gd2795 O2827 2.386 . S
Gd2795 O2831 2.307 . S
Gd2795 O2834 2.353 1_554 S
Gd2795 O2835 2.468 . S
Gd2795 O2836 2.427 . S
Gd2795 O2838 2.388 . S
Gd2795 C2859 2.805 . S
N2796 C2786 1.359 . S
N2796 Gd2795 2.570 . S
N2796 C2798 1.343 . S
C2797 C2785 1.422 . S
C2797 C2799 1.321 . S
C2797 H2805 0.931 . S
C2798 N2796 1.343 . S
C2798 C2799 1.390 . S
C2798 H2800 0.931 . S
C2799 C2797 1.321 . S
C2799 C2798 1.390 . S
C2799 H2801 0.930 . S
H2800 C2798 0.931 . S
H2801 C2799 0.930 . S
H2802 C2825 0.931 1_554 S
H2803 C2791 0.929 . S
H2804 C2826 0.930 . S
H2805 C2797 0.931 . S
H2806 C2787 0.930 . S
H2807 C2816 0.929 1_554 S
H2808 C2792 0.931 . S
H2809 C2793 0.930 . S
H2810 C2848 0.930 . S
H2811 C2789 0.929 . S
H2812 C2817 0.931 . S
H2813 C2818 0.930 . S
N2814 Gd2794 2.622 1_556 S
N2814 C2815 1.369 . S
N2814 C2816 1.338 . S
C2815 N2814 1.369 . S
C2815 C2819 1.415 . S
C2815 C2822 1.422 . S
C2816 H2807 0.929 1_556 S
C2816 N2814 1.338 . S
C2816 C2818 1.378 . S
C2817 H2812 0.931 . S
C2817 C2818 1.348 . S
C2817 C2819 1.413 . S
C2818 H2813 0.930 . S
C2818 C2816 1.378 . S
C2818 C2817 1.348 . S
C2819 C2815 1.415 . S
C2819 C2817 1.413 . S
C2819 C2849 1.437 . S
H2820 C2849 0.929 . S
N2821 Gd2794 2.570 1_556 S
N2821 C2822 1.359 . S
N2821 C2825 1.343 . S
C2822 C2815 1.422 . S
C2822 N2821 1.359 . S
C2822 C2824 1.421 . S
C2823 C2824 1.422 . S
C2823 C2826 1.321 . S
C2823 H2850 0.931 . S
C2824 C2822 1.421 . S
C2824 C2823 1.422 . S
C2824 C2848 1.417 . S
C2825 H2802 0.931 1_556 S
C2825 N2821 1.343 . S
C2825 C2826 1.390 . S
C2826 H2804 0.930 . S
C2826 C2823 1.321 . S
C2826 C2825 1.390 . S
O2827 Gd2795 2.386 . S
O2827 C2839 1.265 . S
O2828 Gd2794 2.353 . S
O2828 C2839 1.242 . S
O2829 Gd2794 2.468 . S
O2829 C2847 1.263 . S
O2830 Gd2794 2.427 . S
O2830 C2847 1.252 . S
O2831 Gd2795 2.307 . S
O2831 C2840 1.261 . S
O2832 Gd2794 2.388 . S
O2832 C2840 1.252 . S
O2833 Gd2794 2.386 1_556 S
O2833 C2851 1.265 . S
O2834 Gd2795 2.353 1_556 S
O2834 C2851 1.242 . S
O2835 Gd2795 2.468 . S
O2835 C2859 1.263 . S
O2836 Gd2795 2.427 . S
O2836 C2859 1.252 . S
O2837 Gd2794 2.307 . S
O2837 C2852 1.261 . S
O2838 Gd2795 2.388 . S
O2838 C2852 1.252 . S
C2839 O2827 1.265 . S
C2839 O2828 1.242 . S
C2840 O2831 1.261 . S
C2840 O2832 1.252 . S
C2841 C2844 1.394 . S
C2841 C2846 1.370 . S
C2841 C2847 1.500 . S
C2842 C2845 1.383 . S
C2842 C2846 1.395 . S
C2843 C2844 1.396 . S
C2843 C2845 1.365 . S
C2843 H2860 0.929 . S
C2844 C2841 1.394 . S
C2844 C2843 1.396 . S
C2844 H2861 0.930 . S
C2845 C2842 1.383 . S
C2845 C2843 1.365 . S
C2845 H2862 0.931 . S
C2846 C2841 1.370 . S
C2846 C2842 1.395 . S
C2846 H2863 0.930 . S
C2847 Gd2794 2.805 . S
C2847 O2829 1.263 . S
C2847 O2830 1.252 . S
C2847 C2841 1.500 . S
C2848 H2810 0.930 . S
C2848 C2824 1.417 . S
C2848 C2849 1.329 . S
C2849 C2819 1.437 . S
C2849 H2820 0.929 . S
C2849 C2848 1.329 . S
H2850 C2823 0.931 . S
C2851 O2833 1.265 . S
C2851 O2834 1.242 . S
C2852 O2837 1.261 . S
C2852 O2838 1.252 . S
C2853 C2856 1.394 . S
C2853 C2858 1.370 . S
C2853 C2859 1.500 1_556 S
C2854 C2857 1.383 . S
C2854 C2858 1.395 . S
C2855 C2856 1.396 . S
C2855 C2857 1.365 . S
C2855 H2864 0.929 . S
C2856 C2853 1.394 . S
C2856 C2855 1.396 . S
C2856 H2865 0.930 . S
C2857 C2854 1.383 . S
C2857 C2855 1.365 . S
C2857 H2866 0.931 . S
C2858 C2853 1.370 . S
C2858 C2854 1.395 . S
C2858 H2867 0.930 . S
C2859 Gd2795 2.805 . S
C2859 O2835 1.263 . S
C2859 O2836 1.252 . S
C2859 C2853 1.500 1_554 S
H2860 C2843 0.929 . S
H2861 C2844 0.930 . S
H2862 C2845 0.931 . S
H2863 C2846 0.930 . S
H2864 C2855 0.929 . S
H2865 C2856 0.930 . S
H2866 C2857 0.931 . S
H2867 C2858 0.930 . S
C2868 C2870 1.422 . S
C2868 C2872 1.415 . S
C2868 N2874 1.369 . S
C2869 C2870 1.421 . S
C2869 C2871 1.417 . S
C2869 C2881 1.422 . S
C2870 C2868 1.422 . S
C2870 C2869 1.421 . S
C2870 N2880 1.359 . S
C2871 C2869 1.417 . S
C2871 C2873 1.329 . S
C2871 H2890 0.930 . S
C2872 C2868 1.415 . S
C2872 C2873 1.437 . S
C2872 C2876 1.413 . S
C2873 C2871 1.329 . S
C2873 C2872 1.437 . S
C2873 H2895 0.929 . S
N2874 C2868 1.369 . S
N2874 C2875 1.338 . S
N2874 Gd2879 2.622 . S
C2875 N2874 1.338 . S
C2875 C2877 1.378 . S
C2875 H2887 0.929 . S
C2876 C2872 1.413 . S
C2876 C2877 1.348 . S
C2876 H2892 0.931 . S
C2877 C2875 1.378 . S
C2877 C2876 1.348 . S
C2877 H2893 0.930 . S
Gd2878 N2898 2.622 . S
Gd2878 N2905 2.570 . S
Gd2878 O2912 2.353 . S
Gd2878 O2913 2.468 . S
Gd2878 O2914 2.427 . S
Gd2878 O2916 2.388 . S
Gd2878 O2917 2.386 . S
Gd2878 O2921 2.307 . S
Gd2878 C2931 2.805 . S
Gd2879 N2874 2.622 . S
Gd2879 N2880 2.570 . S
Gd2879 O2911 2.386 . S
Gd2879 O2915 2.307 . S
Gd2879 O2918 2.353 . S
Gd2879 O2919 2.468 . S
Gd2879 O2920 2.427 . S
Gd2879 O2922 2.388 . S
Gd2879 C2943 2.805 . S
N2880 C2870 1.359 . S
N2880 Gd2879 2.570 . S
N2880 C2882 1.343 . S
C2881 C2869 1.422 . S
C2881 C2883 1.321 . S
C2881 H2889 0.931 . S
C2882 N2880 1.343 . S
C2882 C2883 1.390 . S
C2882 H2884 0.931 . S
C2883 C2881 1.321 . S
C2883 C2882 1.390 . S
C2883 H2885 0.930 . S
H2884 C2882 0.931 . S
H2885 C2883 0.930 . S
H2886 C2909 0.931 . S
H2887 C2875 0.929 . S
H2888 C2910 0.930 . S
H2889 C2881 0.931 . S
H2890 C2871 0.930 . S
H2891 C2900 0.929 . S
H2892 C2876 0.931 . S
H2893 C2877 0.930 . S
H2894 C2932 0.930 . S
H2895 C2873 0.929 . S
H2896 C2901 0.931 . S
H2897 C2902 0.930 . S
N2898 Gd2878 2.622 . S
N2898 C2899 1.369 . S
N2898 C2900 1.338 . S
C2899 N2898 1.369 . S
C2899 C2903 1.415 . S
C2899 C2906 1.422 . S
C2900 H2891 0.929 . S
C2900 N2898 1.338 . S
C2900 C2902 1.378 . S
C2901 H2896 0.931 . S
C2901 C2902 1.348 . S
C2901 C2903 1.413 . S
C2902 H2897 0.930 . S
C2902 C2900 1.378 . S
C2902 C2901 1.348 . S
C2903 C2899 1.415 . S
C2903 C2901 1.413 . S
C2903 C2933 1.437 . S
H2904 C2933 0.929 . S
N2905 Gd2878 2.570 . S
N2905 C2906 1.359 . S
N2905 C2909 1.343 . S
C2906 C2899 1.422 . S
C2906 N2905 1.359 . S
C2906 C2908 1.421 . S
C2907 C2908 1.422 . S
C2907 C2910 1.321 . S
C2907 H2934 0.931 . S
C2908 C2906 1.421 . S
C2908 C2907 1.422 . S
C2908 C2932 1.417 . S
C2909 H2886 0.931 . S
C2909 N2905 1.343 . S
C2909 C2910 1.390 . S
C2910 H2888 0.930 . S
C2910 C2907 1.321 . S
C2910 C2909 1.390 . S
O2911 Gd2879 2.386 . S
O2911 C2923 1.265 . S
O2912 Gd2878 2.353 . S
O2912 C2923 1.242 . S
O2913 Gd2878 2.468 . S
O2913 C2931 1.263 . S
O2914 Gd2878 2.427 . S
O2914 C2931 1.252 . S
O2915 Gd2879 2.307 . S
O2915 C2924 1.261 . S
O2916 Gd2878 2.388 . S
O2916 C2924 1.252 . S
O2917 Gd2878 2.386 . S
O2917 C2935 1.265 . S
O2918 Gd2879 2.353 . S
O2918 C2935 1.242 . S
O2919 Gd2879 2.468 . S
O2919 C2943 1.263 . S
O2920 Gd2879 2.427 . S
O2920 C2943 1.252 . S
O2921 Gd2878 2.307 . S
O2921 C2936 1.261 . S
O2922 Gd2879 2.388 . S
O2922 C2936 1.252 . S
C2923 O2911 1.265 . S
C2923 O2912 1.242 . S
C2924 O2915 1.261 . S
C2924 O2916 1.252 . S
C2925 C2928 1.394 . S
C2925 C2930 1.370 . S
C2925 C2931 1.500 . S
C2926 C2929 1.383 . S
C2926 C2930 1.395 . S
C2927 C2928 1.396 . S
C2927 C2929 1.365 . S
C2927 H2944 0.929 . S
C2928 C2925 1.394 . S
C2928 C2927 1.396 . S
C2928 H2945 0.930 . S
C2929 C2926 1.383 . S
C2929 C2927 1.365 . S
C2929 H2946 0.931 . S
C2930 C2925 1.370 . S
C2930 C2926 1.395 . S
C2930 H2947 0.930 . S
C2931 Gd2878 2.805 . S
C2931 O2913 1.263 . S
C2931 O2914 1.252 . S
C2931 C2925 1.500 . S
C2932 H2894 0.930 . S
C2932 C2908 1.417 . S
C2932 C2933 1.329 . S
C2933 C2903 1.437 . S
C2933 H2904 0.929 . S
C2933 C2932 1.329 . S
H2934 C2907 0.931 . S
C2935 O2917 1.265 . S
C2935 O2918 1.242 . S
C2936 O2921 1.261 . S
C2936 O2922 1.252 . S
C2937 C2940 1.394 . S
C2937 C2942 1.370 . S
C2937 C2943 1.500 . S
C2938 C2941 1.383 . S
C2938 C2942 1.395 . S
C2939 C2940 1.396 . S
C2939 C2941 1.365 . S
C2939 H2948 0.929 . S
C2940 C2937 1.394 . S
C2940 C2939 1.396 . S
C2940 H2949 0.930 . S
C2941 C2938 1.383 . S
C2941 C2939 1.365 . S
C2941 H2950 0.931 . S
C2942 C2937 1.370 . S
C2942 C2938 1.395 . S
C2942 H2951 0.930 . S
C2943 Gd2879 2.805 . S
C2943 O2919 1.263 . S
C2943 O2920 1.252 . S
C2943 C2937 1.500 . S
H2944 C2927 0.929 . S
H2945 C2928 0.930 . S
H2946 C2929 0.931 . S
H2947 C2930 0.930 . S
H2948 C2939 0.929 . S
H2949 C2940 0.930 . S
H2950 C2941 0.931 . S
H2951 C2942 0.930 . S
C2952 C2954 1.422 . S
C2952 C2956 1.415 . S
C2952 N2958 1.369 . S
C2953 C2954 1.421 . S
C2953 C2955 1.417 . S
C2953 C2965 1.422 . S
C2954 C2952 1.422 . S
C2954 C2953 1.421 . S
C2954 N2964 1.359 . S
C2955 C2953 1.417 . S
C2955 C2957 1.329 . S
C2955 H2974 0.930 . S
C2956 C2952 1.415 . S
C2956 C2957 1.437 . S
C2956 C2960 1.413 . S
C2957 C2955 1.329 . S
C2957 C2956 1.437 . S
C2957 H2979 0.929 . S
N2958 C2952 1.369 . S
N2958 C2959 1.338 . S
N2958 Gd2963 2.622 . S
C2959 N2958 1.338 . S
C2959 C2961 1.378 . S
C2959 H2971 0.929 . S
C2960 C2956 1.413 . S
C2960 C2961 1.348 . S
C2960 H2976 0.931 . S
C2961 C2959 1.378 . S
C2961 C2960 1.348 . S
C2961 H2977 0.930 . S
Gd2962 N2982 2.615 1_455 S
Gd2962 N2989 2.570 1_455 S
Gd2962 O2996 2.353 . S
Gd2962 O2997 2.468 . S
Gd2962 O2998 2.427 . S
Gd2962 O3000 2.388 . S
Gd2962 O3001 2.386 1_455 S
Gd2962 O3005 2.307 . S
Gd2962 C3015 2.805 . S
Gd2963 N2958 2.622 . S
Gd2963 N2964 2.570 . S
Gd2963 O2995 2.386 . S
Gd2963 O2999 2.307 . S
Gd2963 O3002 2.353 1_455 S
Gd2963 O3003 2.468 . S
Gd2963 O3004 2.427 . S
Gd2963 O3006 2.388 . S
Gd2963 C3027 2.805 . S
N2964 C2954 1.359 . S
N2964 Gd2963 2.570 . S
N2964 C2966 1.343 . S
C2965 C2953 1.422 . S
C2965 C2967 1.321 . S
C2965 H2973 0.931 . S
C2966 N2964 1.343 . S
C2966 C2967 1.390 . S
C2966 H2968 0.931 . S
C2967 C2965 1.321 . S
C2967 C2966 1.390 . S
C2967 H2969 0.930 . S
H2968 C2966 0.931 . S
H2969 C2967 0.930 . S
H2970 C2993 0.931 1_455 S
H2971 C2959 0.929 . S
H2972 C2994 0.930 . S
H2973 C2965 0.931 . S
H2974 C2955 0.930 . S
H2975 C2984 0.929 . S
H2976 C2960 0.931 . S
H2977 C2961 0.930 . S
H2978 C3016 0.930 . S
H2979 C2957 0.929 . S
H2980 C2985 0.931 . S
H2981 C2986 0.930 . S
N2982 Gd2962 2.615 1_655 S
N2982 C2983 1.375 . S
N2982 C2984 1.340 1_655 S
C2983 N2982 1.375 . S
C2983 C2987 1.415 . S
C2983 C2990 1.422 . S
C2984 H2975 0.929 . S
C2984 N2982 1.340 1_455 S
C2984 C2986 1.378 1_455 S
C2985 H2980 0.931 . S
C2985 C2986 1.348 . S
C2985 C2987 1.413 . S
C2986 H2981 0.930 . S
C2986 C2984 1.378 1_655 S
C2986 C2985 1.348 . S
C2987 C2983 1.415 . S
C2987 C2985 1.413 . S
C2987 C3017 1.437 . S
H2988 C3017 0.929 . S
N2989 Gd2962 2.570 1_655 S
N2989 C2990 1.359 . S
N2989 C2993 1.343 . S
C2990 C2983 1.422 . S
C2990 N2989 1.359 . S
C2990 C2992 1.421 . S
C2991 C2992 1.422 . S
C2991 C2994 1.321 . S
C2991 H3018 0.931 . S
C2992 C2990 1.421 . S
C2992 C2991 1.422 . S
C2992 C3016 1.417 . S
C2993 H2970 0.931 1_655 S
C2993 N2989 1.343 . S
C2993 C2994 1.390 . S
C2994 H2972 0.930 . S
C2994 C2991 1.321 . S
C2994 C2993 1.390 . S
O2995 Gd2963 2.386 . S
O2995 C3007 1.265 . S
O2996 Gd2962 2.353 . S
O2996 C3007 1.242 . S
O2997 Gd2962 2.468 . S
O2997 C3015 1.263 . S
O2998 Gd2962 2.427 . S
O2998 C3015 1.252 . S
O2999 Gd2963 2.307 . S
O2999 C3008 1.261 . S
O3000 Gd2962 2.388 . S
O3000 C3008 1.252 . S
O3001 Gd2962 2.386 1_655 S
O3001 C3019 1.265 . S
O3002 Gd2963 2.353 1_655 S
O3002 C3019 1.242 . S
O3003 Gd2963 2.468 . S
O3003 C3027 1.263 . S
O3004 Gd2963 2.427 . S
O3004 C3027 1.252 . S
O3005 Gd2962 2.307 . S
O3005 C3020 1.261 . S
O3006 Gd2963 2.388 . S
O3006 C3020 1.252 . S
C3007 O2995 1.265 . S
C3007 O2996 1.242 . S
C3008 O2999 1.261 . S
C3008 O3000 1.252 . S
C3009 C3012 1.394 . S
C3009 C3014 1.370 . S
C3009 C3015 1.500 . S
C3010 C3013 1.383 . S
C3010 C3014 1.395 . S
C3011 C3012 1.396 . S
C3011 C3013 1.365 . S
C3011 H3028 0.929 . S
C3012 C3009 1.394 . S
C3012 C3011 1.396 . S
C3012 H3029 0.930 . S
C3013 C3010 1.383 . S
C3013 C3011 1.365 . S
C3013 H3030 0.931 . S
C3014 C3009 1.370 . S
C3014 C3010 1.395 . S
C3014 H3031 0.930 . S
C3015 Gd2962 2.805 . S
C3015 O2997 1.263 . S
C3015 O2998 1.252 . S
C3015 C3009 1.500 . S
C3016 H2978 0.930 . S
C3016 C2992 1.417 . S
C3016 C3017 1.329 . S
C3017 C2987 1.437 . S
C3017 H2988 0.929 . S
C3017 C3016 1.329 . S
H3018 C2991 0.931 . S
C3019 O3001 1.265 . S
C3019 O3002 1.242 . S
C3020 O3005 1.261 . S
C3020 O3006 1.252 . S
C3021 C3024 1.394 . S
C3021 C3026 1.370 . S
C3021 C3027 1.500 1_655 S
C3022 C3025 1.383 . S
C3022 C3026 1.395 . S
C3023 C3024 1.396 . S
C3023 C3025 1.365 . S
C3023 H3032 0.929 . S
C3024 C3021 1.394 . S
C3024 C3023 1.396 . S
C3024 H3033 0.930 . S
C3025 C3022 1.383 . S
C3025 C3023 1.365 . S
C3025 H3034 0.931 . S
C3026 C3021 1.370 . S
C3026 C3022 1.395 . S
C3026 H3035 0.930 . S
C3027 Gd2963 2.805 . S
C3027 O3003 1.263 . S
C3027 O3004 1.252 . S
C3027 C3021 1.500 1_455 S
H3028 C3011 0.929 . S
H3029 C3012 0.930 . S
H3030 C3013 0.931 . S
H3031 C3014 0.930 . S
H3032 C3023 0.929 . S
H3033 C3024 0.930 . S
H3034 C3025 0.931 . S
H3035 C3026 0.930 . S
C3036 C3038 1.422 . S
C3036 C3040 1.415 . S
C3036 N3042 1.369 . S
C3037 C3038 1.421 . S
C3037 C3039 1.417 . S
C3037 C3049 1.422 . S
C3038 C3036 1.422 . S
C3038 C3037 1.421 . S
C3038 N3048 1.359 . S
C3039 C3037 1.417 . S
C3039 C3041 1.329 . S
C3039 H3058 0.930 . S
C3040 C3036 1.415 . S
C3040 C3041 1.437 . S
C3040 C3044 1.413 . S
C3041 C3039 1.329 . S
C3041 C3040 1.437 . S
C3041 H3063 0.929 . S
N3042 C3036 1.369 . S
N3042 C3043 1.338 . S
N3042 Gd3047 2.622 . S
C3043 N3042 1.338 . S
C3043 C3045 1.378 . S
C3043 H3055 0.929 . S
C3044 C3040 1.413 . S
C3044 C3045 1.348 . S
C3044 H3060 0.931 . S
C3045 C3043 1.378 . S
C3045 C3044 1.348 . S
C3045 H3061 0.930 . S
Gd3046 N3066 2.622 . S
Gd3046 N3073 2.570 . S
Gd3046 O3080 2.353 . S
Gd3046 O3081 2.468 . S
Gd3046 O3082 2.427 . S
Gd3046 O3084 2.388 . S
Gd3046 O3085 2.386 . S
Gd3046 O3089 2.307 . S
Gd3046 C3099 2.805 . S
Gd3047 N3042 2.622 . S
Gd3047 N3048 2.570 . S
Gd3047 O3079 2.386 . S
Gd3047 O3083 2.307 . S
Gd3047 O3086 2.353 . S
Gd3047 O3087 2.468 . S
Gd3047 O3088 2.427 . S
Gd3047 O3090 2.388 . S
Gd3047 C3111 2.805 . S
N3048 C3038 1.359 . S
N3048 Gd3047 2.570 . S
N3048 C3050 1.343 . S
C3049 C3037 1.422 . S
C3049 C3051 1.321 . S
C3049 H3057 0.931 . S
C3050 N3048 1.343 . S
C3050 C3051 1.390 . S
C3050 H3052 0.931 . S
C3051 C3049 1.321 . S
C3051 C3050 1.390 . S
C3051 H3053 0.930 . S
H3052 C3050 0.931 . S
H3053 C3051 0.930 . S
H3054 C3077 0.931 . S
H3055 C3043 0.929 . S
H3056 C3078 0.930 . S
H3057 C3049 0.931 . S
H3058 C3039 0.930 . S
H3059 C3068 0.929 . S
H3060 C3044 0.931 . S
H3061 C3045 0.930 . S
H3062 C3100 0.930 . S
H3063 C3041 0.929 . S
H3064 C3069 0.931 . S
H3065 C3070 0.930 . S
N3066 Gd3046 2.622 . S
N3066 C3067 1.369 . S
N3066 C3068 1.338 . S
C3067 N3066 1.369 . S
C3067 C3071 1.415 . S
C3067 C3074 1.422 . S
C3068 H3059 0.929 . S
C3068 N3066 1.338 . S
C3068 C3070 1.378 . S
C3069 H3064 0.931 . S
C3069 C3070 1.348 . S
C3069 C3071 1.413 . S
C3070 H3065 0.930 . S
C3070 C3068 1.378 . S
C3070 C3069 1.348 . S
C3071 C3067 1.415 . S
C3071 C3069 1.413 . S
C3071 C3101 1.437 . S
H3072 C3101 0.929 . S
N3073 Gd3046 2.570 . S
N3073 C3074 1.359 . S
N3073 C3077 1.343 . S
C3074 C3067 1.422 . S
C3074 N3073 1.359 . S
C3074 C3076 1.421 . S
C3075 C3076 1.422 . S
C3075 C3078 1.321 . S
C3075 H3102 0.931 . S
C3076 C3074 1.421 . S
C3076 C3075 1.422 . S
C3076 C3100 1.417 . S
C3077 H3054 0.931 . S
C3077 N3073 1.343 . S
C3077 C3078 1.390 . S
C3078 H3056 0.930 . S
C3078 C3075 1.321 . S
C3078 C3077 1.390 . S
O3079 Gd3047 2.386 . S
O3079 C3091 1.265 . S
O3080 Gd3046 2.353 . S
O3080 C3091 1.242 . S
O3081 Gd3046 2.468 . S
O3081 C3099 1.263 . S
O3082 Gd3046 2.427 . S
O3082 C3099 1.252 . S
O3083 Gd3047 2.307 . S
O3083 C3092 1.261 . S
O3084 Gd3046 2.388 . S
O3084 C3092 1.252 . S
O3085 Gd3046 2.386 . S
O3085 C3103 1.265 . S
O3086 Gd3047 2.353 . S
O3086 C3103 1.242 . S
O3087 Gd3047 2.468 . S
O3087 C3111 1.263 . S
O3088 Gd3047 2.427 . S
O3088 C3111 1.252 . S
O3089 Gd3046 2.307 . S
O3089 C3104 1.261 . S
O3090 Gd3047 2.388 . S
O3090 C3104 1.252 . S
C3091 O3079 1.265 . S
C3091 O3080 1.242 . S
C3092 O3083 1.261 . S
C3092 O3084 1.252 . S
C3093 C3096 1.394 . S
C3093 C3098 1.370 . S
C3093 C3099 1.500 . S
C3094 C3097 1.383 . S
C3094 C3098 1.395 . S
C3095 C3096 1.396 . S
C3095 C3097 1.365 . S
C3095 H3112 0.929 . S
C3096 C3093 1.394 . S
C3096 C3095 1.396 . S
C3096 H3113 0.930 . S
C3097 C3094 1.383 . S
C3097 C3095 1.365 . S
C3097 H3114 0.931 . S
C3098 C3093 1.370 . S
C3098 C3094 1.395 . S
C3098 H3115 0.930 . S
C3099 Gd3046 2.805 . S
C3099 O3081 1.263 . S
C3099 O3082 1.252 . S
C3099 C3093 1.500 . S
C3100 H3062 0.930 . S
C3100 C3076 1.417 . S
C3100 C3101 1.329 . S
C3101 C3071 1.437 . S
C3101 H3072 0.929 . S
C3101 C3100 1.329 . S
H3102 C3075 0.931 . S
C3103 O3085 1.265 . S
C3103 O3086 1.242 . S
C3104 O3089 1.261 . S
C3104 O3090 1.252 . S
C3105 C3108 1.394 . S
C3105 C3110 1.370 . S
C3105 C3111 1.500 . S
C3106 C3109 1.383 . S
C3106 C3110 1.395 . S
C3107 C3108 1.396 . S
C3107 C3109 1.365 . S
C3107 H3116 0.929 . S
C3108 C3105 1.394 . S
C3108 C3107 1.396 . S
C3108 H3117 0.930 . S
C3109 C3106 1.383 . S
C3109 C3107 1.365 . S
C3109 H3118 0.931 . S
C3110 C3105 1.370 . S
C3110 C3106 1.395 . S
C3110 H3119 0.930 . S
C3111 Gd3047 2.805 . S
C3111 O3087 1.263 . S
C3111 O3088 1.252 . S
C3111 C3105 1.500 . S
H3112 C3095 0.929 . S
H3113 C3096 0.930 . S
H3114 C3097 0.931 . S
H3115 C3098 0.930 . S
H3116 C3107 0.929 . S
H3117 C3108 0.930 . S
H3118 C3109 0.931 . S
H3119 C3110 0.930 . S
C3120 C3122 1.422 . S
C3120 C3124 1.415 . S
C3120 N3126 1.369 . S
C3121 C3122 1.421 . S
C3121 C3123 1.417 . S
C3121 C3133 1.422 . S
C3122 C3120 1.422 . S
C3122 C3121 1.421 . S
C3122 N3132 1.359 . S
C3123 C3121 1.417 . S
C3123 C3125 1.329 . S
C3123 H3142 0.930 . S
C3124 C3120 1.415 . S
C3124 C3125 1.437 . S
C3124 C3128 1.413 . S
C3125 C3123 1.329 . S
C3125 C3124 1.437 . S
C3125 H3147 0.929 . S
N3126 C3120 1.369 . S
N3126 C3127 1.338 . S
N3126 Gd3131 2.622 . S
C3127 N3126 1.338 . S
C3127 C3129 1.378 . S
C3127 H3139 0.929 . S
C3128 C3124 1.413 . S
C3128 C3129 1.348 . S
C3128 H3144 0.931 . S
C3129 C3127 1.378 . S
C3129 C3128 1.348 . S
C3129 H3145 0.930 . S
Gd3130 N3150 2.622 . S
Gd3130 N3157 2.570 . S
Gd3130 O3164 2.353 . S
Gd3130 O3165 2.468 . S
Gd3130 O3166 2.427 . S
Gd3130 O3168 2.388 . S
Gd3130 O3169 2.386 . S
Gd3130 O3173 2.307 . S
Gd3130 C3183 2.805 . S
Gd3131 N3126 2.622 . S
Gd3131 N3132 2.570 . S
Gd3131 O3163 2.386 . S
Gd3131 O3167 2.307 . S
Gd3131 O3170 2.353 . S
Gd3131 O3171 2.468 . S
Gd3131 O3172 2.427 . S
Gd3131 O3174 2.388 . S
Gd3131 C3195 2.805 . S
N3132 C3122 1.359 . S
N3132 Gd3131 2.570 . S
N3132 C3134 1.343 . S
C3133 C3121 1.422 . S
C3133 C3135 1.321 . S
C3133 H3141 0.931 . S
C3134 N3132 1.343 . S
C3134 C3135 1.390 . S
C3134 H3136 0.931 . S
C3135 C3133 1.321 . S
C3135 C3134 1.390 . S
C3135 H3137 0.930 . S
H3136 C3134 0.931 . S
H3137 C3135 0.930 . S
H3138 C3161 0.931 . S
H3139 C3127 0.929 . S
H3140 C3162 0.930 . S
H3141 C3133 0.931 . S
H3142 C3123 0.930 . S
H3143 C3152 0.929 . S
H3144 C3128 0.931 . S
H3145 C3129 0.930 . S
H3146 C3184 0.930 . S
H3147 C3125 0.929 . S
H3148 C3153 0.931 . S
H3149 C3154 0.930 . S
N3150 Gd3130 2.622 . S
N3150 C3151 1.369 . S
N3150 C3152 1.338 . S
C3151 N3150 1.369 . S
C3151 C3155 1.415 . S
C3151 C3158 1.422 . S
C3152 H3143 0.929 . S
C3152 N3150 1.338 . S
C3152 C3154 1.378 . S
C3153 H3148 0.931 . S
C3153 C3154 1.348 . S
C3153 C3155 1.413 . S
C3154 H3149 0.930 . S
C3154 C3152 1.378 . S
C3154 C3153 1.348 . S
C3155 C3151 1.415 . S
C3155 C3153 1.413 . S
C3155 C3185 1.437 . S
H3156 C3185 0.929 . S
N3157 Gd3130 2.570 . S
N3157 C3158 1.359 . S
N3157 C3161 1.343 . S
C3158 C3151 1.422 . S
C3158 N3157 1.359 . S
C3158 C3160 1.421 . S
C3159 C3160 1.422 . S
C3159 C3162 1.321 . S
C3159 H3186 0.931 . S
C3160 C3158 1.421 . S
C3160 C3159 1.422 . S
C3160 C3184 1.417 . S
C3161 H3138 0.931 . S
C3161 N3157 1.343 . S
C3161 C3162 1.390 . S
C3162 H3140 0.930 . S
C3162 C3159 1.321 . S
C3162 C3161 1.390 . S
O3163 Gd3131 2.386 . S
O3163 C3175 1.265 . S
O3164 Gd3130 2.353 . S
O3164 C3175 1.242 . S
O3165 Gd3130 2.468 . S
O3165 C3183 1.263 . S
O3166 Gd3130 2.427 . S
O3166 C3183 1.252 . S
O3167 Gd3131 2.307 . S
O3167 C3176 1.261 . S
O3168 Gd3130 2.388 . S
O3168 C3176 1.252 . S
O3169 Gd3130 2.386 . S
O3169 C3187 1.265 . S
O3170 Gd3131 2.353 . S
O3170 C3187 1.242 . S
O3171 Gd3131 2.468 . S
O3171 C3195 1.263 . S
O3172 Gd3131 2.427 . S
O3172 C3195 1.252 . S
O3173 Gd3130 2.307 . S
O3173 C3188 1.261 . S
O3174 Gd3131 2.388 . S
O3174 C3188 1.252 . S
C3175 O3163 1.265 . S
C3175 O3164 1.242 . S
C3176 O3167 1.261 . S
C3176 O3168 1.252 . S
C3177 C3180 1.394 . S
C3177 C3182 1.370 . S
C3177 C3183 1.500 . S
C3178 C3181 1.383 . S
C3178 C3182 1.395 . S
C3179 C3180 1.396 . S
C3179 C3181 1.365 . S
C3179 H3196 0.929 . S
C3180 C3177 1.394 . S
C3180 C3179 1.396 . S
C3180 H3197 0.930 . S
C3181 C3178 1.383 . S
C3181 C3179 1.365 . S
C3181 H3198 0.931 . S
C3182 C3177 1.370 . S
C3182 C3178 1.395 . S
C3182 H3199 0.930 . S
C3183 Gd3130 2.805 . S
C3183 O3165 1.263 . S
C3183 O3166 1.252 . S
C3183 C3177 1.500 . S
C3184 H3146 0.930 . S
C3184 C3160 1.417 . S
C3184 C3185 1.329 . S
C3185 C3155 1.437 . S
C3185 H3156 0.929 . S
C3185 C3184 1.329 . S
H3186 C3159 0.931 . S
C3187 O3169 1.265 . S
C3187 O3170 1.242 . S
C3188 O3173 1.261 . S
C3188 O3174 1.252 . S
C3189 C3192 1.394 . S
C3189 C3194 1.370 . S
C3189 C3195 1.500 . S
C3190 C3193 1.383 . S
C3190 C3194 1.395 . S
C3191 C3192 1.396 . S
C3191 C3193 1.365 . S
C3191 H3200 0.929 . S
C3192 C3189 1.394 . S
C3192 C3191 1.396 . S
C3192 H3201 0.930 . S
C3193 C3190 1.383 . S
C3193 C3191 1.365 . S
C3193 H3202 0.931 . S
C3194 C3189 1.370 . S
C3194 C3190 1.395 . S
C3194 H3203 0.930 . S
C3195 Gd3131 2.805 . S
C3195 O3171 1.263 . S
C3195 O3172 1.252 . S
C3195 C3189 1.500 . S
H3196 C3179 0.929 . S
H3197 C3180 0.930 . S
H3198 C3181 0.931 . S
H3199 C3182 0.930 . S
H3200 C3191 0.929 . S
H3201 C3192 0.930 . S
H3202 C3193 0.931 . S
H3203 C3194 0.930 . S
C3204 C3206 1.422 . S
C3204 C3208 1.415 . S
C3204 N3210 1.369 . S
C3205 C3206 1.421 . S
C3205 C3207 1.417 . S
C3205 C3217 1.422 . S
C3206 C3204 1.422 . S
C3206 C3205 1.421 . S
C3206 N3216 1.359 . S
C3207 C3205 1.417 . S
C3207 C3209 1.329 . S
C3207 H3226 0.930 . S
C3208 C3204 1.415 . S
C3208 C3209 1.437 . S
C3208 C3212 1.413 . S
C3209 C3207 1.329 . S
C3209 C3208 1.437 . S
C3209 H3231 0.929 . S
N3210 C3204 1.369 . S
N3210 C3211 1.338 . S
N3210 Gd3215 2.622 . S
C3211 N3210 1.338 . S
C3211 C3213 1.378 . S
C3211 H3223 0.929 . S
C3212 C3208 1.413 . S
C3212 C3213 1.348 . S
C3212 H3228 0.931 . S
C3213 C3211 1.378 . S
C3213 C3212 1.348 . S
C3213 H3229 0.930 . S
Gd3214 N3234 2.622 . S
Gd3214 N3241 2.570 . S
Gd3214 O3248 2.353 . S
Gd3214 O3249 2.468 . S
Gd3214 O3250 2.427 . S
Gd3214 O3252 2.388 . S
Gd3214 O3253 2.386 . S
Gd3214 O3257 2.307 . S
Gd3214 C3267 2.805 . S
Gd3215 N3210 2.622 . S
Gd3215 N3216 2.570 . S
Gd3215 O3247 2.386 . S
Gd3215 O3251 2.307 . S
Gd3215 O3254 2.353 . S
Gd3215 O3255 2.468 . S
Gd3215 O3256 2.427 . S
Gd3215 O3258 2.388 . S
Gd3215 C3279 2.805 . S
N3216 C3206 1.359 . S
N3216 Gd3215 2.570 . S
N3216 C3218 1.343 . S
C3217 C3205 1.422 . S
C3217 C3219 1.321 . S
C3217 H3225 0.931 . S
C3218 N3216 1.343 . S
C3218 C3219 1.390 . S
C3218 H3220 0.931 . S
C3219 C3217 1.321 . S
C3219 C3218 1.390 . S
C3219 H3221 0.930 . S
H3220 C3218 0.931 . S
H3221 C3219 0.930 . S
H3222 C3245 0.931 . S
H3223 C3211 0.929 . S
H3224 C3246 0.930 . S
H3225 C3217 0.931 . S
H3226 C3207 0.930 . S
H3227 C3236 0.929 . S
H3228 C3212 0.931 . S
H3229 C3213 0.930 . S
H3230 C3268 0.930 . S
H3231 C3209 0.929 . S
H3232 C3237 0.931 . S
H3233 C3238 0.930 . S
N3234 Gd3214 2.622 . S
N3234 C3235 1.369 . S
N3234 C3236 1.338 . S
C3235 N3234 1.369 . S
C3235 C3239 1.415 . S
C3235 C3242 1.422 . S
C3236 H3227 0.929 . S
C3236 N3234 1.338 . S
C3236 C3238 1.378 . S
C3237 H3232 0.931 . S
C3237 C3238 1.348 . S
C3237 C3239 1.413 . S
C3238 H3233 0.930 . S
C3238 C3236 1.378 . S
C3238 C3237 1.348 . S
C3239 C3235 1.415 . S
C3239 C3237 1.413 . S
C3239 C3269 1.437 . S
H3240 C3269 0.929 . S
N3241 Gd3214 2.570 . S
N3241 C3242 1.359 . S
N3241 C3245 1.343 . S
C3242 C3235 1.422 . S
C3242 N3241 1.359 . S
C3242 C3244 1.421 . S
C3243 C3244 1.422 . S
C3243 C3246 1.321 . S
C3243 H3270 0.931 . S
C3244 C3242 1.421 . S
C3244 C3243 1.422 . S
C3244 C3268 1.417 . S
C3245 H3222 0.931 . S
C3245 N3241 1.343 . S
C3245 C3246 1.390 . S
C3246 H3224 0.930 . S
C3246 C3243 1.321 . S
C3246 C3245 1.390 . S
O3247 Gd3215 2.386 . S
O3247 C3259 1.265 . S
O3248 Gd3214 2.353 . S
O3248 C3259 1.242 . S
O3249 Gd3214 2.468 . S
O3249 C3267 1.263 . S
O3250 Gd3214 2.427 . S
O3250 C3267 1.252 . S
O3251 Gd3215 2.307 . S
O3251 C3260 1.261 . S
O3252 Gd3214 2.388 . S
O3252 C3260 1.252 . S
O3253 Gd3214 2.386 . S
O3253 C3271 1.265 . S
O3254 Gd3215 2.353 . S
O3254 C3271 1.242 . S
O3255 Gd3215 2.468 . S
O3255 C3279 1.263 . S
O3256 Gd3215 2.427 . S
O3256 C3279 1.252 . S
O3257 Gd3214 2.307 . S
O3257 C3272 1.261 . S
O3258 Gd3215 2.388 . S
O3258 C3272 1.252 . S
C3259 O3247 1.265 . S
C3259 O3248 1.242 . S
C3260 O3251 1.261 . S
C3260 O3252 1.252 . S
C3261 C3264 1.394 . S
C3261 C3266 1.370 . S
C3261 C3267 1.500 . S
C3262 C3265 1.383 . S
C3262 C3266 1.395 . S
C3263 C3264 1.396 . S
C3263 C3265 1.365 . S
C3263 H3280 0.929 . S
C3264 C3261 1.394 . S
C3264 C3263 1.396 . S
C3264 H3281 0.930 . S
C3265 C3262 1.383 . S
C3265 C3263 1.365 . S
C3265 H3282 0.931 . S
C3266 C3261 1.370 . S
C3266 C3262 1.395 . S
C3266 H3283 0.930 . S
C3267 Gd3214 2.805 . S
C3267 O3249 1.263 . S
C3267 O3250 1.252 . S
C3267 C3261 1.500 . S
C3268 H3230 0.930 . S
C3268 C3244 1.417 . S
C3268 C3269 1.329 . S
C3269 C3239 1.437 . S
C3269 H3240 0.929 . S
C3269 C3268 1.329 . S
H3270 C3243 0.931 . S
C3271 O3253 1.265 . S
C3271 O3254 1.242 . S
C3272 O3257 1.261 . S
C3272 O3258 1.252 . S
C3273 C3276 1.394 . S
C3273 C3278 1.370 . S
C3273 C3279 1.500 . S
C3274 C3277 1.383 . S
C3274 C3278 1.395 . S
C3275 C3276 1.396 . S
C3275 C3277 1.365 . S
C3275 H3284 0.929 . S
C3276 C3273 1.394 . S
C3276 C3275 1.396 . S
C3276 H3285 0.930 . S
C3277 C3274 1.383 . S
C3277 C3275 1.365 . S
C3277 H3286 0.931 1_565 S
C3278 C3273 1.370 . S
C3278 C3274 1.395 . S
C3278 H3287 0.930 . S
C3279 Gd3215 2.805 . S
C3279 O3255 1.263 . S
C3279 O3256 1.252 . S
C3279 C3273 1.500 . S
H3280 C3263 0.929 . S
H3281 C3264 0.930 . S
H3282 C3265 0.931 . S
H3283 C3266 0.930 . S
H3284 C3275 0.929 . S
H3285 C3276 0.930 . S
H3286 C3277 0.931 1_545 S
H3287 C3278 0.930 . S
C3288 C3290 1.422 . S
C3288 C3292 1.415 . S
C3288 N3294 1.369 . S
C3289 C3290 1.421 . S
C3289 C3291 1.417 . S
C3289 C3301 1.422 . S
C3290 C3288 1.422 . S
C3290 C3289 1.421 . S
C3290 N3300 1.359 . S
C3291 C3289 1.417 . S
C3291 C3293 1.329 . S
C3291 H3310 0.930 . S
C3292 C3288 1.415 . S
C3292 C3293 1.437 . S
C3292 C3296 1.413 . S
C3293 C3291 1.329 . S
C3293 C3292 1.437 . S
C3293 H3315 0.929 . S
N3294 C3288 1.369 . S
N3294 C3295 1.338 . S
N3294 Gd3299 2.622 . S
C3295 N3294 1.338 . S
C3295 C3297 1.378 . S
C3295 H3307 0.929 . S
C3296 C3292 1.413 . S
C3296 C3297 1.348 . S
C3296 H3312 0.931 . S
C3297 C3295 1.378 . S
C3297 C3296 1.348 . S
C3297 H3313 0.930 . S
Gd3298 N3318 2.622 . S
Gd3298 N3325 2.570 . S
Gd3298 O3332 2.353 . S
Gd3298 O3333 2.468 . S
Gd3298 O3334 2.427 . S
Gd3298 O3336 2.388 . S
Gd3298 O3337 2.386 . S
Gd3298 O3341 2.307 . S
Gd3298 C3351 2.805 . S
Gd3299 N3294 2.622 . S
Gd3299 N3300 2.570 . S
Gd3299 O3331 2.386 . S
Gd3299 O3335 2.307 . S
Gd3299 O3338 2.353 . S
Gd3299 O3339 2.468 . S
Gd3299 O3340 2.427 . S
Gd3299 O3342 2.388 . S
Gd3299 C3363 2.805 . S
N3300 C3290 1.359 . S
N3300 Gd3299 2.570 . S
N3300 C3302 1.343 . S
C3301 C3289 1.422 . S
C3301 C3303 1.321 . S
C3301 H3309 0.931 . S
C3302 N3300 1.343 . S
C3302 C3303 1.390 . S
C3302 H3304 0.931 . S
C3303 C3301 1.321 . S
C3303 C3302 1.390 . S
C3303 H3305 0.930 . S
H3304 C3302 0.931 . S
H3305 C3303 0.930 . S
H3306 C3329 0.931 . S
H3307 C3295 0.929 . S
H3308 C3330 0.930 . S
H3309 C3301 0.931 . S
H3310 C3291 0.930 . S
H3311 C3320 0.929 . S
H3312 C3296 0.931 . S
H3313 C3297 0.930 . S
H3314 C3352 0.930 . S
H3315 C3293 0.929 . S
H3316 C3321 0.931 . S
H3317 C3322 0.930 . S
N3318 Gd3298 2.622 . S
N3318 C3319 1.369 . S
N3318 C3320 1.338 . S
C3319 N3318 1.369 . S
C3319 C3323 1.415 . S
C3319 C3326 1.422 . S
C3320 H3311 0.929 . S
C3320 N3318 1.338 . S
C3320 C3322 1.378 . S
C3321 H3316 0.931 . S
C3321 C3322 1.348 . S
C3321 C3323 1.413 . S
C3322 H3317 0.930 . S
C3322 C3320 1.378 . S
C3322 C3321 1.348 . S
C3323 C3319 1.415 . S
C3323 C3321 1.413 . S
C3323 C3353 1.437 . S
H3324 C3353 0.929 . S
N3325 Gd3298 2.570 . S
N3325 C3326 1.359 . S
N3325 C3329 1.343 . S
C3326 C3319 1.422 . S
C3326 N3325 1.359 . S
C3326 C3328 1.421 . S
C3327 C3328 1.422 . S
C3327 C3330 1.321 . S
C3327 H3354 0.931 . S
C3328 C3326 1.421 . S
C3328 C3327 1.422 . S
C3328 C3352 1.417 . S
C3329 H3306 0.931 . S
C3329 N3325 1.343 . S
C3329 C3330 1.390 . S
C3330 H3308 0.930 . S
C3330 C3327 1.321 . S
C3330 C3329 1.390 . S
O3331 Gd3299 2.386 . S
O3331 C3343 1.265 . S
O3332 Gd3298 2.353 . S
O3332 C3343 1.242 . S
O3333 Gd3298 2.468 . S
O3333 C3351 1.263 . S
O3334 Gd3298 2.427 . S
O3334 C3351 1.252 . S
O3335 Gd3299 2.307 . S
O3335 C3344 1.261 . S
O3336 Gd3298 2.388 . S
O3336 C3344 1.252 . S
O3337 Gd3298 2.386 . S
O3337 C3355 1.265 . S
O3338 Gd3299 2.353 . S
O3338 C3355 1.242 . S
O3339 Gd3299 2.468 . S
O3339 C3363 1.263 . S
O3340 Gd3299 2.427 . S
O3340 C3363 1.252 . S
O3341 Gd3298 2.307 . S
O3341 C3356 1.261 . S
O3342 Gd3299 2.388 . S
O3342 C3356 1.252 . S
C3343 O3331 1.265 . S
C3343 O3332 1.242 . S
C3344 O3335 1.261 . S
C3344 O3336 1.252 . S
C3345 C3348 1.394 . S
C3345 C3350 1.370 . S
C3345 C3351 1.500 . S
C3346 C3349 1.383 . S
C3346 C3350 1.395 . S
C3347 C3348 1.396 . S
C3347 C3349 1.365 . S
C3347 H3364 0.929 . S
C3348 C3345 1.394 . S
C3348 C3347 1.396 . S
C3348 H3365 0.930 . S
C3349 C3346 1.383 . S
C3349 C3347 1.365 . S
C3349 H3366 0.931 . S
C3350 C3345 1.370 . S
C3350 C3346 1.395 . S
C3350 H3367 0.930 . S
C3351 Gd3298 2.805 . S
C3351 O3333 1.263 . S
C3351 O3334 1.252 . S
C3351 C3345 1.500 . S
C3352 H3314 0.930 . S
C3352 C3328 1.417 . S
C3352 C3353 1.329 . S
C3353 C3323 1.437 . S
C3353 H3324 0.929 . S
C3353 C3352 1.329 . S
H3354 C3327 0.931 . S
C3355 O3337 1.265 . S
C3355 O3338 1.242 . S
C3356 O3341 1.261 . S
C3356 O3342 1.252 . S
C3357 C3360 1.394 . S
C3357 C3362 1.370 . S
C3357 C3363 1.500 . S
C3358 C3361 1.383 . S
C3358 C3362 1.395 . S
C3359 C3360 1.396 . S
C3359 C3361 1.365 . S
C3359 H3368 0.929 . S
C3360 C3357 1.394 . S
C3360 C3359 1.396 . S
C3360 H3369 0.930 . S
C3361 C3358 1.383 . S
C3361 C3359 1.365 . S
C3361 H3370 0.931 . S
C3362 C3357 1.370 . S
C3362 C3358 1.395 . S
C3362 H3371 0.930 . S
C3363 Gd3299 2.805 . S
C3363 O3339 1.263 . S
C3363 O3340 1.252 . S
C3363 C3357 1.500 . S
H3364 C3347 0.929 . S
H3365 C3348 0.930 . S
H3366 C3349 0.931 . S
H3367 C3350 0.930 . S
H3368 C3359 0.929 . S
H3369 C3360 0.930 . S
H3370 C3361 0.931 . S
H3371 C3362 0.930 . S
C3372 C3374 1.422 1_556 S
C3372 C3376 1.415 . S
C3372 N3378 1.369 . S
C3373 C3374 1.421 . S
C3373 C3375 1.417 1_554 S
C3373 C3385 1.422 . S
C3374 C3372 1.422 1_554 S
C3374 C3373 1.421 . S
C3374 N3384 1.359 . S
C3375 C3373 1.417 1_556 S
C3375 C3377 1.329 . S
C3375 H3394 0.930 . S
C3376 C3372 1.415 . S
C3376 C3377 1.437 . S
C3376 C3380 1.413 . S
C3377 C3375 1.329 . S
C3377 C3376 1.437 . S
C3377 H3399 0.929 . S
N3378 C3372 1.369 . S
N3378 C3379 1.338 . S
N3378 Gd3383 2.622 1_556 S
C3379 N3378 1.338 . S
C3379 C3381 1.378 . S
C3379 H3391 0.929 . S
C3380 C3376 1.413 . S
C3380 C3381 1.348 . S
C3380 H3396 0.931 . S
C3381 C3379 1.378 . S
C3381 C3380 1.348 . S
C3381 H3397 0.930 . S
Gd3382 N3402 2.622 1_455 S
Gd3382 N3409 2.570 1_455 S
Gd3382 O3416 2.353 . S
Gd3382 O3417 2.468 1_455 S
Gd3382 O3418 2.427 1_455 S
Gd3382 O3420 2.388 . S
Gd3382 O3421 2.386 . S
Gd3382 O3425 2.306 . S
Gd3382 C3435 2.805 1_455 S
Gd3383 N3378 2.622 1_554 S
Gd3383 N3384 2.570 . S
Gd3383 O3415 2.386 . S
Gd3383 O3419 2.307 . S
Gd3383 O3422 2.353 . S
Gd3383 O3423 2.468 . S
Gd3383 O3424 2.427 1_554 S
Gd3383 O3426 2.388 1_554 S
Gd3383 C3447 2.805 . S
N3384 C3374 1.359 . S
N3384 Gd3383 2.570 . S
N3384 C3386 1.343 . S
C3385 C3373 1.422 . S
C3385 C3387 1.321 . S
C3385 H3393 0.931 . S
C3386 N3384 1.343 . S
C3386 C3387 1.390 . S
C3386 H3388 0.931 . S
C3387 C3385 1.321 . S
C3387 C3386 1.390 . S
C3387 H3389 0.930 . S
H3388 C3386 0.931 . S
H3389 C3387 0.930 . S
H3390 C3413 0.931 . S
H3391 C3379 0.929 . S
H3392 C3414 0.930 1_556 S
H3393 C3385 0.931 . S
H3394 C3375 0.930 . S
H3395 C3404 0.929 . S
H3396 C3380 0.931 . S
H3397 C3381 0.930 . S
H3398 C3436 0.930 . S
H3399 C3377 0.929 . S
H3400 C3405 0.931 . S
H3401 C3406 0.930 1_455 S
N3402 Gd3382 2.622 1_655 S
N3402 C3403 1.369 . S
N3402 C3404 1.338 1_655 S
C3403 N3402 1.369 . S
C3403 C3407 1.415 . S
C3403 C3410 1.422 . S
C3404 H3395 0.929 . S
C3404 N3402 1.338 1_455 S
C3404 C3406 1.378 1_455 S
C3405 H3400 0.931 . S
C3405 C3406 1.348 . S
C3405 C3407 1.413 . S
C3406 H3401 0.930 1_655 S
C3406 C3404 1.378 1_655 S
C3406 C3405 1.348 . S
C3407 C3403 1.415 . S
C3407 C3405 1.413 . S
C3407 C3437 1.437 . S
H3408 C3437 0.929 . S
N3409 Gd3382 2.570 1_655 S
N3409 C3410 1.359 . S
N3409 C3413 1.343 . S
C3410 C3403 1.422 . S
C3410 N3409 1.359 . S
C3410 C3412 1.421 . S
C3411 C3412 1.422 . S
C3411 C3414 1.321 . S
C3411 H3438 0.931 . S
C3412 C3410 1.421 . S
C3412 C3411 1.422 . S
C3412 C3436 1.417 . S
C3413 H3390 0.931 . S
C3413 N3409 1.343 . S
C3413 C3414 1.390 . S
C3414 H3392 0.930 1_554 S
C3414 C3411 1.321 . S
C3414 C3413 1.390 . S
O3415 Gd3383 2.386 . S
O3415 C3427 1.265 . S
O3416 Gd3382 2.353 . S
O3416 C3427 1.242 . S
O3417 Gd3382 2.468 1_655 S
O3417 C3435 1.263 . S
O3418 Gd3382 2.427 1_655 S
O3418 C3435 1.252 . S
O3419 Gd3383 2.307 . S
O3419 C3428 1.261 . S
O3420 Gd3382 2.388 . S
O3420 C3428 1.252 . S
O3421 Gd3382 2.386 . S
O3421 C3439 1.265 . S
O3422 Gd3383 2.353 . S
O3422 C3439 1.242 . S
O3423 Gd3383 2.468 . S
O3423 C3447 1.263 . S
O3424 Gd3383 2.427 1_556 S
O3424 C3447 1.252 1_556 S
O3425 Gd3382 2.306 . S
O3425 C3440 1.264 1_554 S
O3426 Gd3383 2.388 1_556 S
O3426 C3440 1.252 . S
C3427 O3415 1.265 . S
C3427 O3416 1.242 . S
C3428 O3419 1.261 . S
C3428 O3420 1.252 . S
C3429 C3432 1.394 . S
C3429 C3434 1.370 . S
C3429 C3435 1.500 . S
C3430 C3433 1.383 . S
C3430 C3434 1.395 . S
C3431 C3432 1.396 . S
C3431 C3433 1.365 . S
C3431 H3448 0.929 . S
C3432 C3429 1.394 . S
C3432 C3431 1.396 . S
C3432 H3449 0.930 . S
C3433 C3430 1.383 . S
C3433 C3431 1.365 . S
C3433 H3450 0.931 . S
C3434 C3429 1.370 . S
C3434 C3430 1.395 . S
C3434 H3451 0.930 . S
C3435 Gd3382 2.805 1_655 S
C3435 O3417 1.263 . S
C3435 O3418 1.252 . S
C3435 C3429 1.500 . S
C3436 H3398 0.930 . S
C3436 C3412 1.417 . S
C3436 C3437 1.329 . S
C3437 C3407 1.437 . S
C3437 H3408 0.929 . S
C3437 C3436 1.329 . S
H3438 C3411 0.931 . S
C3439 O3421 1.265 . S
C3439 O3422 1.242 . S
C3440 O3425 1.264 1_556 S
C3440 O3426 1.252 . S
C3441 C3444 1.394 . S
C3441 C3446 1.370 1_556 S
C3441 C3447 1.500 1_556 S
C3442 C3445 1.383 1_554 S
C3442 C3446 1.395 . S
C3443 C3444 1.396 . S
C3443 C3445 1.365 . S
C3443 H3452 0.929 . S
C3444 C3441 1.394 . S
C3444 C3443 1.396 . S
C3444 H3453 0.930 . S
C3445 C3442 1.383 1_556 S
C3445 C3443 1.365 . S
C3445 H3454 0.931 . S
C3446 C3441 1.370 1_554 S
C3446 C3442 1.395 . S
C3446 H3455 0.930 . S
C3447 Gd3383 2.805 . S
C3447 O3423 1.263 . S
C3447 O3424 1.252 1_554 S
C3447 C3441 1.500 1_554 S
H3448 C3431 0.929 . S
H3449 C3432 0.930 . S
H3450 C3433 0.931 . S
H3451 C3434 0.930 . S
H3452 C3443 0.929 . S
H3453 C3444 0.930 . S
H3454 C3445 0.931 . S
H3455 C3446 0.930 . S
C665 C2179 3.830 1_655 S
C381 C2252 2.743 . S
C460 C2347 3.476 . S
C2422 C585 1.369 . S
C108 C2506 1.369 . S
C2599 C196 3.476 . S
C2672 C313 2.743 . S
C49 C2767 3.829 . S
C2168 C1457 2.474 . S
C1545 C2254 0.506 . S
C2336 C1721 1.173 . S
C2431 C1113 2.404 . S
C1428 C2515 2.404 . S
C2588 C1516 1.173 . S
C2674 C1692 0.506 . S
C2756 C1085 2.474 . S
C2170 C988 2.530 1_554 S
C1817 C2840 2.139 . S
C2926 C2081 1.896 . S
C3019 C1993 1.547 . S
C761 C2758 2.532 . S
C821 C2338 1.896 . S
C2053 C3092 2.139 . S
C3187 C1868 1.547 . S
C2167 C372 3.830 . S
C3188 C645 2.732 . S
C577 C2335 3.467 . S
C497 C3106 1.377 . S
C2518 C57 1.377 . S
C293 C2923 3.466 . S
C2684 C205 2.732 1_554 S
C3259 C145 3.830 . S
C2180 C909 2.474 . S
C3190 C1956 0.519 . S
C724 C2348 1.179 . S
C1780 C3091 2.396 . S
C937 C2503 2.396 . S
C2936 C1985 1.179 . S
C753 C2686 0.519 1_545 S
C1809 C3272 2.474 . S
C1173 C2182 2.547 . S
C1105 C2852 2.129 . S
C1633 C2602 1.912 . S
C1553 C3007 1.528 . S
C3274 C1729 2.547 . S
C1340 C2350 1.912 . S
C2432 C1604 2.129 . S
C2251 C1252 1.529 . S
C489 C3355 3.829 . S
C3176 C557 2.743 . S
C636 C3439 3.476 . S
C409 C3094 1.369 . S
C284 C2842 1.369 . S
C2935 C20 3.476 . S
C3008 C137 2.743 . S
C3271 C225 3.829 . S
C3344 C1641 2.474 . S
C1193 C3178 0.506 . S
C3428 C1289 1.173 . S
C3103 C1377 2.404 . S
C2851 C1613 2.404 . S
C1164 C2924 1.173 . S
C3010 C1261 0.506 . S
C1349 C3260 2.474 . S
C3346 C1965 2.532 . S
C849 C2504 2.139 . S
C2590 C929 1.895 . S
C2683 C1017 1.546 . S
C3262 C1897 2.532 . S
C1789 C3430 1.896 . S
C2420 C900 2.139 . S
C2263 C733 1.546 . S
C548 C3343 3.830 . S
C2264 C469 2.732 . S
C401 C3427 3.467 . S
C673 C2434 1.377 . S
C233 C2854 1.377 . S
C2587 C117 3.466 . S
C29 C3020 2.732 . S
C321 C2755 3.830 . S
C3356 C2044 2.474 . S
C997 C2266 0.518 . S
C3440 C1877 1.180 1_455 S
C812 C2419 2.396 . S
C2073 C2839 2.396 . S
C2600 C1025 1.180 . S
C1905 C3022 0.519 . S
C2768 C841 2.474 . S
C3358 C1525 2.547 . S
C2516 C1369 2.129 1_545 S
C1465 C2938 1.912 . S
C2671 C1201 1.528 . S
C1281 C2770 2.547 . S
C1076 C3442 1.912 . S
C3104 C1437 2.129 . S
C3175 C1701 1.529 . S
