# Generated by pormake.
# Topology iac, (4,6)-cn, num edge types: 1
# Building blocks:
#     Node 0, Type 0, BuildingBlock: CEKHIL_clean_sbu_0, # of connection points: 4
#     Node 1, Type 0, BuildingBlock: CEKHIL_clean_sbu_0, # of connection points: 4
#     Node 2, Type 0, BuildingBlock: CEKHIL_clean_sbu_0, # of connection points: 4
#     Node 3, Type 0, BuildingBlock: CEKHIL_clean_sbu_0, # of connection points: 4
#     Node 4, Type 0, BuildingBlock: CEKHIL_clean_sbu_0, # of connection points: 4
#     Node 5, Type 0, BuildingBlock: CEKHIL_clean_sbu_0, # of connection points: 4
#     Node 6, Type 0, BuildingBlock: CEKHIL_clean_sbu_0, # of connection points: 4
#     Node 7, Type 0, BuildingBlock: CEKHIL_clean_sbu_0, # of connection points: 4
#     Node 8, Type 0, BuildingBlock: CEKHIL_clean_sbu_0, # of connection points: 4
#     Node 9, Type 0, BuildingBlock: CEKHIL_clean_sbu_0, # of connection points: 4
#     Node 10, Type 0, BuildingBlock: CEKHIL_clean_sbu_0, # of connection points: 4
#     Node 11, Type 0, BuildingBlock: CEKHIL_clean_sbu_0, # of connection points: 4
#     Node 12, Type 0, BuildingBlock: CEKHIL_clean_sbu_0, # of connection points: 4
#     Node 13, Type 0, BuildingBlock: CEKHIL_clean_sbu_0, # of connection points: 4
#     Node 14, Type 0, BuildingBlock: CEKHIL_clean_sbu_0, # of connection points: 4
#     Node 15, Type 0, BuildingBlock: CEKHIL_clean_sbu_0, # of connection points: 4
#     Node 16, Type 0, BuildingBlock: CEKHIL_clean_sbu_0, # of connection points: 4
#     Node 17, Type 0, BuildingBlock: CEKHIL_clean_sbu_0, # of connection points: 4
#     Node 18, Type 0, BuildingBlock: CEKHIL_clean_sbu_0, # of connection points: 4
#     Node 19, Type 0, BuildingBlock: CEKHIL_clean_sbu_0, # of connection points: 4
#     Node 20, Type 0, BuildingBlock: CEKHIL_clean_sbu_0, # of connection points: 4
#     Node 21, Type 0, BuildingBlock: CEKHIL_clean_sbu_0, # of connection points: 4
#     Node 22, Type 0, BuildingBlock: CEKHIL_clean_sbu_0, # of connection points: 4
#     Node 23, Type 0, BuildingBlock: CEKHIL_clean_sbu_0, # of connection points: 4
#     Node 24, Type 1, BuildingBlock: FUNLAD_clean_sbu_0, # of connection points: 6
#     Node 25, Type 1, BuildingBlock: FUNLAD_clean_sbu_0, # of connection points: 6
#     Node 26, Type 1, BuildingBlock: FUNLAD_clean_sbu_0, # of connection points: 6
#     Node 27, Type 1, BuildingBlock: FUNLAD_clean_sbu_0, # of connection points: 6
#     Node 28, Type 1, BuildingBlock: FUNLAD_clean_sbu_0, # of connection points: 6
#     Node 29, Type 1, BuildingBlock: FUNLAD_clean_sbu_0, # of connection points: 6
#     Node 30, Type 1, BuildingBlock: FUNLAD_clean_sbu_0, # of connection points: 6
#     Node 31, Type 1, BuildingBlock: FUNLAD_clean_sbu_0, # of connection points: 6
#     Node 32, Type 1, BuildingBlock: FUNLAD_clean_sbu_0, # of connection points: 6
#     Node 33, Type 1, BuildingBlock: FUNLAD_clean_sbu_0, # of connection points: 6
#     Node 34, Type 1, BuildingBlock: FUNLAD_clean_sbu_0, # of connection points: 6
#     Node 35, Type 1, BuildingBlock: FUNLAD_clean_sbu_0, # of connection points: 6
#     Node 36, Type 1, BuildingBlock: FUNLAD_clean_sbu_0, # of connection points: 6
#     Node 37, Type 1, BuildingBlock: FUNLAD_clean_sbu_0, # of connection points: 6
#     Node 38, Type 1, BuildingBlock: FUNLAD_clean_sbu_0, # of connection points: 6
#     Node 39, Type 1, BuildingBlock: FUNLAD_clean_sbu_0, # of connection points: 6
#     Edge 40, Type (0, 1), BuildingBlock: ZUJKAS_clean_linker_0, # of connection points: 2
#     Edge 41, Type (0, 1), BuildingBlock: ZUJKAS_clean_linker_0, # of connection points: 2
#     Edge 42, Type (0, 1), BuildingBlock: ZUJKAS_clean_linker_0, # of connection points: 2
#     Edge 43, Type (0, 1), BuildingBlock: ZUJKAS_clean_linker_0, # of connection points: 2
#     Edge 44, Type (0, 1), BuildingBlock: ZUJKAS_clean_linker_0, # of connection points: 2
#     Edge 45, Type (0, 1), BuildingBlock: ZUJKAS_clean_linker_0, # of connection points: 2
#     Edge 46, Type (0, 1), BuildingBlock: ZUJKAS_clean_linker_0, # of connection points: 2
#     Edge 47, Type (0, 1), BuildingBlock: ZUJKAS_clean_linker_0, # of connection points: 2
#     Edge 48, Type (0, 1), BuildingBlock: ZUJKAS_clean_linker_0, # of connection points: 2
#     Edge 49, Type (0, 1), BuildingBlock: ZUJKAS_clean_linker_0, # of connection points: 2
#     Edge 50, Type (0, 1), BuildingBlock: ZUJKAS_clean_linker_0, # of connection points: 2
#     Edge 51, Type (0, 1), BuildingBlock: ZUJKAS_clean_linker_0, # of connection points: 2
#     Edge 52, Type (0, 1), BuildingBlock: ZUJKAS_clean_linker_0, # of connection points: 2
#     Edge 53, Type (0, 1), BuildingBlock: ZUJKAS_clean_linker_0, # of connection points: 2
#     Edge 54, Type (0, 1), BuildingBlock: ZUJKAS_clean_linker_0, # of connection points: 2
#     Edge 55, Type (0, 1), BuildingBlock: ZUJKAS_clean_linker_0, # of connection points: 2
#     Edge 56, Type (0, 1), BuildingBlock: ZUJKAS_clean_linker_0, # of connection points: 2
#     Edge 57, Type (0, 1), BuildingBlock: ZUJKAS_clean_linker_0, # of connection points: 2
#     Edge 58, Type (0, 1), BuildingBlock: ZUJKAS_clean_linker_0, # of connection points: 2
#     Edge 59, Type (0, 1), BuildingBlock: ZUJKAS_clean_linker_0, # of connection points: 2
#     Edge 60, Type (0, 1), BuildingBlock: ZUJKAS_clean_linker_0, # of connection points: 2
#     Edge 61, Type (0, 1), BuildingBlock: ZUJKAS_clean_linker_0, # of connection points: 2
#     Edge 62, Type (0, 1), BuildingBlock: ZUJKAS_clean_linker_0, # of connection points: 2
#     Edge 63, Type (0, 1), BuildingBlock: ZUJKAS_clean_linker_0, # of connection points: 2
#     Edge 64, Type (0, 1), BuildingBlock: ZUJKAS_clean_linker_0, # of connection points: 2
#     Edge 65, Type (0, 1), BuildingBlock: ZUJKAS_clean_linker_0, # of connection points: 2
#     Edge 66, Type (0, 1), BuildingBlock: ZUJKAS_clean_linker_0, # of connection points: 2
#     Edge 67, Type (0, 1), BuildingBlock: ZUJKAS_clean_linker_0, # of connection points: 2
#     Edge 68, Type (0, 1), BuildingBlock: ZUJKAS_clean_linker_0, # of connection points: 2
#     Edge 69, Type (0, 1), BuildingBlock: ZUJKAS_clean_linker_0, # of connection points: 2
#     Edge 70, Type (0, 1), BuildingBlock: ZUJKAS_clean_linker_0, # of connection points: 2
#     Edge 71, Type (0, 1), BuildingBlock: ZUJKAS_clean_linker_0, # of connection points: 2
#     Edge 72, Type (0, 1), BuildingBlock: ZUJKAS_clean_linker_0, # of connection points: 2
#     Edge 73, Type (0, 1), BuildingBlock: ZUJKAS_clean_linker_0, # of connection points: 2
#     Edge 74, Type (0, 1), BuildingBlock: ZUJKAS_clean_linker_0, # of connection points: 2
#     Edge 75, Type (0, 1), BuildingBlock: ZUJKAS_clean_linker_0, # of connection points: 2
#     Edge 76, Type (0, 1), BuildingBlock: ZUJKAS_clean_linker_0, # of connection points: 2
#     Edge 77, Type (0, 1), BuildingBlock: ZUJKAS_clean_linker_0, # of connection points: 2
#     Edge 78, Type (0, 1), BuildingBlock: ZUJKAS_clean_linker_0, # of connection points: 2
#     Edge 79, Type (0, 1), BuildingBlock: ZUJKAS_clean_linker_0, # of connection points: 2
#     Edge 80, Type (0, 1), BuildingBlock: ZUJKAS_clean_linker_0, # of connection points: 2
#     Edge 81, Type (0, 1), BuildingBlock: ZUJKAS_clean_linker_0, # of connection points: 2
#     Edge 82, Type (0, 1), BuildingBlock: ZUJKAS_clean_linker_0, # of connection points: 2
#     Edge 83, Type (0, 1), BuildingBlock: ZUJKAS_clean_linker_0, # of connection points: 2
#     Edge 84, Type (0, 1), BuildingBlock: ZUJKAS_clean_linker_0, # of connection points: 2
#     Edge 85, Type (0, 1), BuildingBlock: ZUJKAS_clean_linker_0, # of connection points: 2
#     Edge 86, Type (0, 1), BuildingBlock: ZUJKAS_clean_linker_0, # of connection points: 2
#     Edge 87, Type (0, 1), BuildingBlock: ZUJKAS_clean_linker_0, # of connection points: 2
#     Edge 88, Type (0, 1), BuildingBlock: ZUJKAS_clean_linker_0, # of connection points: 2
#     Edge 89, Type (0, 1), BuildingBlock: ZUJKAS_clean_linker_0, # of connection points: 2
#     Edge 90, Type (0, 1), BuildingBlock: ZUJKAS_clean_linker_0, # of connection points: 2
#     Edge 91, Type (0, 1), BuildingBlock: ZUJKAS_clean_linker_0, # of connection points: 2
#     Edge 92, Type (0, 1), BuildingBlock: ZUJKAS_clean_linker_0, # of connection points: 2
#     Edge 93, Type (0, 1), BuildingBlock: ZUJKAS_clean_linker_0, # of connection points: 2
#     Edge 94, Type (0, 1), BuildingBlock: ZUJKAS_clean_linker_0, # of connection points: 2
#     Edge 95, Type (0, 1), BuildingBlock: ZUJKAS_clean_linker_0, # of connection points: 2
#     Edge 96, Type (0, 1), BuildingBlock: ZUJKAS_clean_linker_0, # of connection points: 2
#     Edge 97, Type (0, 1), BuildingBlock: ZUJKAS_clean_linker_0, # of connection points: 2
#     Edge 98, Type (0, 1), BuildingBlock: ZUJKAS_clean_linker_0, # of connection points: 2
#     Edge 99, Type (0, 1), BuildingBlock: ZUJKAS_clean_linker_0, # of connection points: 2
#     Edge 100, Type (0, 1), BuildingBlock: ZUJKAS_clean_linker_0, # of connection points: 2
#     Edge 101, Type (0, 1), BuildingBlock: ZUJKAS_clean_linker_0, # of connection points: 2
#     Edge 102, Type (0, 1), BuildingBlock: ZUJKAS_clean_linker_0, # of connection points: 2
#     Edge 103, Type (0, 1), BuildingBlock: ZUJKAS_clean_linker_0, # of connection points: 2
#     Edge 104, Type (0, 1), BuildingBlock: ZUJKAS_clean_linker_0, # of connection points: 2
#     Edge 105, Type (0, 1), BuildingBlock: ZUJKAS_clean_linker_0, # of connection points: 2
#     Edge 106, Type (0, 1), BuildingBlock: ZUJKAS_clean_linker_0, # of connection points: 2
#     Edge 107, Type (0, 1), BuildingBlock: ZUJKAS_clean_linker_0, # of connection points: 2
#     Edge 108, Type (0, 1), BuildingBlock: ZUJKAS_clean_linker_0, # of connection points: 2
#     Edge 109, Type (0, 1), BuildingBlock: ZUJKAS_clean_linker_0, # of connection points: 2
#     Edge 110, Type (0, 1), BuildingBlock: ZUJKAS_clean_linker_0, # of connection points: 2
#     Edge 111, Type (0, 1), BuildingBlock: ZUJKAS_clean_linker_0, # of connection points: 2
#     Edge 112, Type (0, 1), BuildingBlock: ZUJKAS_clean_linker_0, # of connection points: 2
#     Edge 113, Type (0, 1), BuildingBlock: ZUJKAS_clean_linker_0, # of connection points: 2
#     Edge 114, Type (0, 1), BuildingBlock: ZUJKAS_clean_linker_0, # of connection points: 2
#     Edge 115, Type (0, 1), BuildingBlock: ZUJKAS_clean_linker_0, # of connection points: 2
#     Edge 116, Type (0, 1), BuildingBlock: ZUJKAS_clean_linker_0, # of connection points: 2
#     Edge 117, Type (0, 1), BuildingBlock: ZUJKAS_clean_linker_0, # of connection points: 2
#     Edge 118, Type (0, 1), BuildingBlock: ZUJKAS_clean_linker_0, # of connection points: 2
#     Edge 119, Type (0, 1), BuildingBlock: ZUJKAS_clean_linker_0, # of connection points: 2
#     Edge 120, Type (0, 1), BuildingBlock: ZUJKAS_clean_linker_0, # of connection points: 2
#     Edge 121, Type (0, 1), BuildingBlock: ZUJKAS_clean_linker_0, # of connection points: 2
#     Edge 122, Type (0, 1), BuildingBlock: ZUJKAS_clean_linker_0, # of connection points: 2
#     Edge 123, Type (0, 1), BuildingBlock: ZUJKAS_clean_linker_0, # of connection points: 2
#     Edge 124, Type (0, 1), BuildingBlock: ZUJKAS_clean_linker_0, # of connection points: 2
#     Edge 125, Type (0, 1), BuildingBlock: ZUJKAS_clean_linker_0, # of connection points: 2
#     Edge 126, Type (0, 1), BuildingBlock: ZUJKAS_clean_linker_0, # of connection points: 2
#     Edge 127, Type (0, 1), BuildingBlock: ZUJKAS_clean_linker_0, # of connection points: 2
#     Edge 128, Type (0, 1), BuildingBlock: ZUJKAS_clean_linker_0, # of connection points: 2
#     Edge 129, Type (0, 1), BuildingBlock: ZUJKAS_clean_linker_0, # of connection points: 2
#     Edge 130, Type (0, 1), BuildingBlock: ZUJKAS_clean_linker_0, # of connection points: 2
#     Edge 131, Type (0, 1), BuildingBlock: ZUJKAS_clean_linker_0, # of connection points: 2
#     Edge 132, Type (0, 1), BuildingBlock: ZUJKAS_clean_linker_0, # of connection points: 2
#     Edge 133, Type (0, 1), BuildingBlock: ZUJKAS_clean_linker_0, # of connection points: 2
#     Edge 134, Type (0, 1), BuildingBlock: ZUJKAS_clean_linker_0, # of connection points: 2
#     Edge 135, Type (0, 1), BuildingBlock: ZUJKAS_clean_linker_0, # of connection points: 2
# Relax obj value: 0.298
# Max RMSD: 0.267
# Mean RMSD: 0.128
data_MOF--net-iac--node1-CEKHIL_clean_sbu_0--node2-FUNLAD_clean_sbu_0--edge1-ZUJKAS_clean_linker_0
_symmetry_space_group_name_H-M    P1
_symmetry_Int_Tables_number       1
_symmetry_cell_setting            triclinic
loop_
_symmetry_equiv_pos_as_xyz
'x, y, z'
_cell_length_a     71.116241
_cell_length_b     68.182657
_cell_length_c     73.568062
_cell_angle_alpha  90.016824
_cell_angle_beta   91.95828
_cell_angle_gamma 90.655767
loop_
_atom_site_label
_atom_site_type_symbol
_atom_site_fract_x
_atom_site_fract_y
_atom_site_fract_z
_atom_type_partial_charge
Co0 Co 0.03086 0.2436 0.15252 0.0
O1 O 0.00518 0.23841 0.15783 0.0
O2 O 0.02967 0.22995 0.17552 0.0
C3 C 0.02783 0.2749 0.14399 0.0
O4 O 0.0592 0.24728 0.15137 0.0
Co5 Co 0.04118 0.25307 0.1127 0.0
O6 O 0.06562 0.26108 0.12444 0.0
C7 C 0.03104 0.21275 0.12265 0.0
C8 C 0.01152 0.22984 0.1725 0.0
C9 C 0.07058 0.25572 0.14049 0.0
O10 O 0.03173 0.21782 0.13946 0.0
O11 O 0.03295 0.22496 0.10961 0.0
O12 O 0.02917 0.27049 0.16118 0.0
O13 O 0.02589 0.26022 0.13294 0.0
Co14 Co 0.03052 0.76413 0.38637 0.0
O15 O 0.05765 0.76242 0.38954 0.0
O16 O 0.04166 0.75442 0.36437 0.0
C17 C 0.02849 0.79458 0.39881 0.0
O18 O 0.00283 0.76473 0.37717 0.0
Co19 Co 0.00363 0.76935 0.41837 0.0
O20 O 0.98507 0.77703 0.39904 0.0
C21 C 0.0202 0.73031 0.41135 0.0
C22 C 0.05794 0.75639 0.37281 0.0
C23 C 0.98717 0.77165 0.38266 0.0
O24 O 0.02733 0.7365 0.39643 0.0
O25 O 0.01154 0.74151 0.42218 0.0
O26 O 0.03289 0.79255 0.3819 0.0
O27 O 0.02653 0.77844 0.40767 0.0
Co28 Co 0.5481 0.73703 0.66372 0.0
O29 O 0.52197 0.72965 0.66274 0.0
O30 O 0.54003 0.73148 0.68792 0.0
C31 C 0.54603 0.76299 0.64522 0.0
O32 O 0.57504 0.74526 0.67016 0.0
Co33 Co 0.57216 0.73522 0.62933 0.0
O34 O 0.59041 0.75086 0.64439 0.0
C35 C 0.56 0.69877 0.64694 0.0
C36 C 0.52364 0.72766 0.68028 0.0
C37 C 0.58921 0.75201 0.6616 0.0
O38 O 0.55494 0.70876 0.66069 0.0
O39 O 0.56604 0.70664 0.63243 0.0
O40 O 0.54161 0.76458 0.66216 0.0
O41 O 0.54942 0.74544 0.63962 0.0
Co42 Co 0.53 0.26275 0.88523 0.0
O43 O 0.55721 0.26173 0.88693 0.0
O44 O 0.54 0.25324 0.8626 0.0
C45 C 0.52778 0.2931 0.89776 0.0
O46 O 0.50186 0.26261 0.87778 0.0
Co47 Co 0.50586 0.26668 0.91953 0.0
O48 O 0.48454 0.27001 0.90181 0.0
C49 C 0.52482 0.22937 0.91181 0.0
C50 C 0.55665 0.25552 0.87023 0.0
C51 C 0.48594 0.26635 0.88492 0.0
O52 O 0.52823 0.23508 0.89549 0.0
O53 O 0.51791 0.24062 0.92375 0.0
O54 O 0.5313 0.29123 0.88061 0.0
O55 O 0.52703 0.27692 0.90672 0.0
Co56 Co 0.14344 0.99427 0.26197 0.0
O57 O 0.14371 0.96621 0.265 0.0
O58 O 0.16725 0.98418 0.25473 0.0
C59 C 0.13132 0.00174 0.28893 0.0
O60 O 0.14899 0.02323 0.25776 0.0
Co61 Co 0.10642 0.01795 0.26068 0.0
O62 O 0.12356 0.04091 0.26403 0.0
C63 C 0.11644 0.99422 0.22896 0.0
C64 C 0.16066 0.96697 0.25892 0.0
C65 C 0.14095 0.03971 0.26059 0.0
O66 O 0.13267 0.99077 0.23645 0.0
O67 O 0.1036 0.00373 0.23684 0.0
O68 O 0.14917 0.99812 0.28787 0.0
O69 O 0.12126 -0.00116 0.2742 0.0
Co70 Co 0.26276 0.89691 0.52573 0.0
O71 O 0.23582 0.89565 0.5266 0.0
O72 O 0.25351 0.9205 0.53682 0.0
C73 C 0.26469 0.88687 0.49673 0.0
O74 O 0.29073 0.9038 0.52621 0.0
Co75 Co 0.2859 0.85916 0.51879 0.0
O76 O 0.30699 0.8781 0.51606 0.0
C77 C 0.26763 0.86488 0.55366 0.0
C78 C 0.23678 0.91296 0.53394 0.0
C79 C 0.30606 0.89597 0.52103 0.0
O80 O 0.26507 0.88318 0.55007 0.0
O81 O 0.27369 0.85259 0.54216 0.0
O82 O 0.26107 0.90512 0.50018 0.0
O83 O 0.26519 0.87533 0.51058 0.0
Co84 Co 0.39711 0.01384 0.75425 0.0
O85 O 0.39794 0.04208 0.75413 0.0
O86 O 0.37404 0.02374 0.74355 0.0
C87 C 0.40785 0.00976 0.78307 0.0
O88 O 0.39025 0.98484 0.75295 0.0
Co89 Co 0.4327 0.98831 0.7601 0.0
O90 O 0.41422 0.96691 0.76422 0.0
C91 C 0.426 0.00908 0.72526 0.0
C92 C 0.38106 0.04112 0.74679 0.0
C93 C 0.3971 0.96857 0.75885 0.0
O94 O 0.4092 0.01337 0.72981 0.0
O95 O 0.43784 0.00051 0.736 0.0
O96 O 0.39025 0.01381 0.77975 0.0
O97 O 0.41849 0.01009 0.7692 0.0
Co98 Co 0.30476 0.11189 0.01519 0.0
O99 O 0.33029 0.10373 0.01878 0.0
O100 O 0.30535 0.08848 0.02986 0.0
C101 C 0.30511 0.11744 0.98525 0.0
O102 O 0.27644 0.11539 0.01365 0.0
Co103 Co 0.29499 0.15408 0.00258 0.0
O104 O 0.26995 0.14199 0.99666 0.0
C105 C 0.30988 0.14738 0.03984 0.0
C106 C 0.32348 0.08938 0.02825 0.0
C107 C 0.26494 0.12598 0.00412 0.0
O108 O 0.30767 0.1288 0.0375 0.0
O109 O 0.30681 0.15994 0.02718 0.0
O110 O 0.30304 0.09966 0.9913 0.0
O111 O 0.30921 0.13067 0.99739 0.0
Co112 Co 0.77266 0.39941 0.02857 0.0
O113 O 0.74596 0.39507 0.03025 0.0
O114 O 0.76069 0.42336 0.0357 0.0
C115 C 0.77576 0.38415 0.00173 0.0
O116 O 0.79959 0.40997 0.02725 0.0
Co117 Co 0.80098 0.36491 0.02758 0.0
O118 O 0.81865 0.38547 0.01955 0.0
C119 C 0.78414 0.37597 0.06221 0.0
C120 C 0.74494 0.41348 0.03462 0.0
C121 C 0.81557 0.40361 0.02212 0.0
O122 O 0.77654 0.39122 0.05484 0.0
O123 O 0.79331 0.36328 0.05338 0.0
O124 O 0.76978 0.40209 0.00213 0.0
O125 O 0.77794 0.37566 0.0173 0.0
Co126 Co 0.89833 0.51739 0.2554 0.0
O127 O 0.89832 0.54557 0.25553 0.0
O128 O 0.87564 0.52677 0.24326 0.0
C129 C 0.90739 0.51355 0.28476 0.0
O130 O 0.89282 0.48803 0.25361 0.0
Co131 Co 0.93478 0.49375 0.26305 0.0
O132 O 0.9164 0.47262 0.26863 0.0
C133 C 0.92875 0.51333 0.22754 0.0
C134 C 0.88205 0.5443 0.24703 0.0
C135 C 0.89975 0.47285 0.26167 0.0
O136 O 0.91184 0.51757 0.23171 0.0
O137 O 0.94043 0.50494 0.23858 0.0
O138 O 0.88984 0.51687 0.28039 0.0
O139 O 0.9189 0.51449 0.27158 0.0
Co140 Co 0.81173 0.62577 0.50549 0.0
O141 O 0.83695 0.617 0.5092 0.0
O142 O 0.8126 0.60665 0.52487 0.0
C143 C 0.80961 0.62375 0.47516 0.0
O144 O 0.78366 0.63107 0.50472 0.0
Co145 Co 0.80428 0.66491 0.48523 0.0
O146 O 0.77788 0.65506 0.48436 0.0
C147 C 0.81881 0.66612 0.52295 0.0
C148 C 0.83055 0.606 0.52206 0.0
C149 C 0.77228 0.64138 0.49476 0.0
O150 O 0.8167 0.64739 0.5237 0.0
O151 O 0.81584 0.67599 0.50836 0.0
O152 O 0.80757 0.60808 0.48498 0.0
O153 O 0.81568 0.63921 0.48385 0.0
Co154 Co 0.65008 0.49818 0.7625 0.0
O155 O 0.65025 0.47018 0.76582 0.0
O156 O 0.6736 0.48778 0.75471 0.0
C157 C 0.63868 0.5059 0.78975 0.0
O158 O 0.65562 0.52704 0.75792 0.0
Co159 Co 0.613 0.52186 0.76204 0.0
O160 O 0.63006 0.54511 0.76285 0.0
C161 C 0.62205 0.49768 0.73033 0.0
C162 C 0.66704 0.4707 0.75938 0.0
C163 C 0.64746 0.54367 0.75952 0.0
O164 O 0.63869 0.4948 0.73718 0.0
O165 O 0.60928 0.50661 0.73885 0.0
O166 O 0.65646 0.50218 0.78831 0.0
O167 O 0.6283 0.50297 0.77525 0.0
Co168 Co 0.99173 0.8118 0.86354 0.0
O169 O 0.01693 0.8197 0.85839 0.0
O170 O 0.00083 0.7958 0.84421 0.0
C171 C 0.97986 0.84203 0.86479 0.0
O172 O 0.96566 0.79988 0.86487 0.0
Co173 Co 0.97393 0.82391 0.89998 0.0
O174 O 0.95149 0.80927 0.8903 0.0
C175 C 0.00145 0.79199 0.8997 0.0
C176 C 0.01628 0.80613 0.84599 0.0
C177 C 0.95166 0.79962 0.87547 0.0
O178 O 0.0013 0.79238 0.8822 0.0
O179 O 0.99309 0.8047 0.90925 0.0
O180 O 0.9818 0.83379 0.84905 0.0
O181 O 0.98675 0.83274 0.87869 0.0
Co182 Co 0.01258 0.26457 0.65302 0.0
O183 O 0.98545 0.26331 0.6506 0.0
O184 O 0.00187 0.25406 0.67505 0.0
C185 C 0.01517 0.29558 0.64206 0.0
O186 O 0.04061 0.26451 0.66091 0.0
Co187 Co 0.03725 0.2707 0.61935 0.0
O188 O 0.0579 0.27495 0.63771 0.0
C189 C 0.01942 0.23193 0.62587 0.0
C190 C 0.98545 0.25666 0.66711 0.0
C191 C 0.05647 0.26985 0.65427 0.0
O192 O 0.01444 0.23741 0.64181 0.0
O193 O 0.02705 0.24362 0.61458 0.0
O194 O 0.01141 0.29262 0.659 0.0
O195 O 0.01595 0.27998 0.63224 0.0
Co196 Co 0.49474 0.31022 0.37185 0.0
O197 O 0.52147 0.30767 0.37199 0.0
O198 O 0.50173 0.29455 0.35124 0.0
C199 C 0.49513 0.3427 0.37691 0.0
O200 O 0.4664 0.3101 0.36747 0.0
Co201 Co 0.47536 0.32438 0.40671 0.0
O202 O 0.45233 0.32457 0.3908 0.0
C203 C 0.48903 0.28374 0.40442 0.0
C204 C 0.51898 0.29752 0.35719 0.0
C205 C 0.45166 0.31633 0.37523 0.0
O206 O 0.49265 0.28626 0.38756 0.0
O207 O 0.48364 0.29758 0.41475 0.0
O208 O 0.49675 0.33603 0.36052 0.0
O209 O 0.49481 0.3297 0.38965 0.0
Co210 Co 0.5133 0.76318 0.15069 0.0
O211 O 0.48617 0.76234 0.14777 0.0
O212 O 0.5019 0.75337 0.17269 0.0
C213 C 0.5168 0.79388 0.13916 0.0
O214 O 0.54126 0.76279 0.15907 0.0
Co215 Co 0.53862 0.76796 0.1172 0.0
O216 O 0.55894 0.77248 0.13585 0.0
C217 C 0.51994 0.72978 0.12426 0.0
C218 C 0.48568 0.75604 0.16438 0.0
C219 C 0.55726 0.76779 0.1525 0.0
O220 O 0.51496 0.73568 0.14006 0.0
O221 O 0.52783 0.74106 0.11279 0.0
O222 O 0.51248 0.79145 0.15603 0.0
O223 O 0.51743 0.77801 0.12971 0.0
Co224 Co 0.90132 0.00965 0.8 0.0
O225 O 0.90075 0.03731 0.79474 0.0
O226 O 0.87818 0.01595 0.78698 0.0
C227 C 0.91088 0.01292 0.82938 0.0
O228 O 0.8962 0.98052 0.80351 0.0
Co229 Co 0.93785 0.9881 0.8119 0.0
O230 O 0.92087 0.96569 0.81723 0.0
C231 C 0.93091 0.99833 0.77313 0.0
C232 C 0.88413 0.03404 0.7874 0.0
C233 C 0.90396 0.96542 0.81093 0.0
O234 O 0.91427 0.00427 0.77658 0.0
O235 O 0.94279 0.9928 0.78552 0.0
O236 O 0.89324 0.01477 0.82459 0.0
O237 O 0.92226 0.01061 0.81625 0.0
Co238 Co 0.77259 0.11563 0.48428 0.0
O239 O 0.79946 0.11766 0.48771 0.0
O240 O 0.78231 0.09157 0.49464 0.0
C241 C 0.77178 0.12803 0.45586 0.0
O242 O 0.74485 0.10786 0.48233 0.0
Co243 Co 0.74791 0.15247 0.47699 0.0
O244 O 0.72725 0.13315 0.4725 0.0
C245 C 0.7634 0.1442 0.51408 0.0
C246 C 0.79884 0.09983 0.49384 0.0
C247 C 0.72895 0.11525 0.47718 0.0
O248 O 0.769 0.12716 0.50915 0.0
O249 O 0.75641 0.15682 0.50294 0.0
O250 O 0.77547 0.10959 0.45845 0.0
O251 O 0.76994 0.13832 0.47035 0.0
Co252 Co 0.6516 0.00666 0.29863 0.0
O253 O 0.64864 0.97889 0.29458 0.0
O254 O 0.67476 0.99603 0.29024 0.0
C255 C 0.6381 0.00645 0.3259 0.0
O256 O 0.6605 0.03491 0.30173 0.0
Co257 Co 0.61784 0.03444 0.3036 0.0
O258 O 0.63718 0.05488 0.30934 0.0
C259 C 0.62714 0.02044 0.26679 0.0
C260 C 0.66619 0.97908 0.29024 0.0
C261 C 0.65441 0.05187 0.30618 0.0
O262 O 0.64239 0.01248 0.273 0.0
O263 O 0.61503 0.02821 0.277 0.0
O264 O 0.65571 0.00193 0.32468 0.0
O265 O 0.62913 0.00988 0.31073 0.0
Co266 Co 0.73739 0.89647 0.01308 0.0
O267 O 0.7149 0.91042 0.01778 0.0
O268 O 0.74228 0.92427 0.01123 0.0
C269 C 0.72403 0.87427 0.99389 0.0
O270 O 0.76339 0.88703 0.00735 0.0
Co271 Co 0.74157 0.85259 0.02394 0.0
O272 O 0.76691 0.85496 0.0135 0.0
C273 C 0.74487 0.88362 0.05193 0.0
C274 C 0.72469 0.92628 0.01505 0.0
C275 C 0.77332 0.8714 0.00805 0.0
O276 O 0.74486 0.89694 0.0396 0.0
O277 O 0.74169 0.86542 0.04857 0.0
O278 O 0.72869 0.8916 0.98811 0.0
O279 O 0.726 0.87155 0.01121 0.0
Co280 Co 0.27974 0.62059 0.98977 0.0
O281 O 0.30664 0.62066 0.99288 0.0
O282 O 0.28817 0.59459 0.99639 0.0
C283 C 0.27876 0.6373 0.96336 0.0
O284 O 0.25161 0.61496 0.98749 0.0
Co285 Co 0.25777 0.65996 0.98886 0.0
O286 O 0.23579 0.6429 0.98231 0.0
C287 C 0.27323 0.64434 0.02368 0.0
C288 C 0.30506 0.60213 0.99659 0.0
C289 C 0.23626 0.62431 0.9841 0.0
O290 O 0.27724 0.62799 0.01607 0.0
O291 O 0.26724 0.65934 0.01485 0.0
O292 O 0.28166 0.61851 0.96335 0.0
O293 O 0.2782 0.64539 0.97915 0.0
Co294 Co 0.15256 0.50483 0.79922 0.0
O295 O 0.15065 0.47691 0.79547 0.0
O296 O 0.17637 0.49497 0.79184 0.0
C297 C 0.13794 0.5049 0.82591 0.0
O298 O 0.16054 0.53331 0.80216 0.0
Co299 Co 0.11781 0.53168 0.80214 0.0
O300 O 0.13634 0.55302 0.80765 0.0
C301 C 0.12917 0.51729 0.76614 0.0
C302 C 0.16835 0.47775 0.79165 0.0
C303 C 0.15383 0.55028 0.80559 0.0
O304 O 0.14434 0.50993 0.77318 0.0
O305 O 0.11631 0.52483 0.77562 0.0
O306 O 0.1557 0.50074 0.82544 0.0
O307 O 0.12946 0.50765 0.81036 0.0
Co308 Co 0.24516 0.37946 0.50512 0.0
O309 O 0.22203 0.3776 0.51772 0.0
O310 O 0.24309 0.40165 0.52107 0.0
C311 C 0.23165 0.37252 0.47776 0.0
O312 O 0.27008 0.38705 0.49447 0.0
Co313 Co 0.26202 0.34493 0.48438 0.0
O314 O 0.28131 0.36391 0.4763 0.0
C315 C 0.26701 0.34733 0.52448 0.0
C316 C 0.22667 0.39446 0.52487 0.0
C317 C 0.28253 0.38077 0.48371 0.0
O318 O 0.25872 0.36398 0.52453 0.0
O319 O 0.26859 0.33692 0.51012 0.0
O320 O 0.23161 0.39027 0.48412 0.0
O321 O 0.23917 0.35938 0.4883 0.0
Co322 Co 0.39758 0.50648 0.29913 0.0
O323 O 0.39883 0.53408 0.29361 0.0
O324 O 0.37436 0.51457 0.28727 0.0
C325 C 0.40895 0.50952 0.32798 0.0
O326 O 0.39031 0.47799 0.30322 0.0
Co327 Co 0.43248 0.48178 0.30944 0.0
O328 O 0.41439 0.46026 0.31447 0.0
C329 C 0.42483 0.49287 0.27103 0.0
C330 C 0.38163 0.53214 0.28728 0.0
C331 C 0.39714 0.4619 0.30953 0.0
O332 O 0.40872 0.49974 0.2751 0.0
O333 O 0.43686 0.48666 0.28298 0.0
O334 O 0.3913 0.51261 0.32402 0.0
O335 O 0.41938 0.5059 0.31436 0.0
C336 C 0.99957 0.00785 0.00418 0.0
N337 N 0.98821 0.96922 0.04618 0.0
C338 C 0.97261 0.98002 0.04892 0.0
C339 C 0.95523 0.97075 0.05092 0.0
C340 C 0.95389 0.95019 0.04979 0.0
C341 C 0.97053 0.93941 0.04869 0.0
C342 C 0.98765 0.94929 0.04695 0.0
Zn343 Zn 0.01116 0.98254 0.03568 0.0
C344 C 0.02405 0.95935 0.00383 0.0
N345 N 0.05807 0.00889 0.01063 0.0
C346 C 0.05782 0.02857 0.00762 0.0
C347 C 0.07333 0.998 0.00679 0.0
C348 C 0.08939 0.00698 0.0001 0.0
C349 C 0.08979 0.02739 0.99747 0.0
C350 C 0.07361 0.03817 0.00105 0.0
Zn351 Zn 0.0355 0.99573 0.02192 0.0
O352 O 0.99319 0.9975 0.01697 0.0
C353 C 0.02181 0.01987 0.0528 0.0
O354 O 0.01725 0.01017 0.00312 0.0
H355 H 0.07317 0.98236 0.00923 0.0
H356 H 0.97338 0.99585 0.04822 0.0
H357 H 0.04551 0.03693 0.01075 0.0
O358 O 0.00988 0.00601 0.0544 0.0
O359 O 0.03376 0.019 0.04039 0.0
H360 H 0.00024 0.94099 0.04475 0.0
O361 O 0.05351 0.98114 0.04098 0.0
O362 O 0.02932 0.96751 0.05404 0.0
O363 O 0.03671 0.97256 0.00321 0.0
O364 O 0.01239 0.95974 0.0165 0.0
C365 C 0.04699 0.97016 0.05329 0.0
H366 H 0.94281 0.97963 0.05219 0.0
H367 H 0.97021 0.92357 0.04768 0.0
H368 H 0.10146 0.99807 0.99728 0.0
H369 H 0.07337 0.05395 -0.00054 0.0
C370 C 0.30483 0.75228 0.24921 0.0
N371 N 0.25163 0.73205 0.2304 0.0
C372 C 0.25602 0.73991 0.21408 0.0
C373 C 0.25185 0.72958 0.19806 0.0
C374 C 0.2432 0.71099 0.19891 0.0
C375 C 0.2376 0.70392 0.21582 0.0
C376 C 0.24195 0.71478 0.2315 0.0
Zn377 Zn 0.26331 0.74385 0.25356 0.0
C378 C 0.2806 0.7113 0.27637 0.0
N379 N 0.28951 0.76565 0.30224 0.0
C380 C 0.30055 0.78196 0.30063 0.0
C381 C 0.28447 0.75893 0.31878 0.0
C382 C 0.28943 0.76953 0.33448 0.0
C383 C 0.29974 0.78716 0.33309 0.0
C384 C 0.30592 0.79293 0.31597 0.0
Zn385 Zn 0.27759 0.75375 0.2792 0.0
O386 O 0.2899 0.74709 0.24035 0.0
C387 C 0.26033 0.78627 0.25617 0.0
O388 O 0.30379 0.75626 0.26602 0.0
H389 H 0.27566 0.74595 0.31971 0.0
H390 H 0.26382 0.75359 0.21357 0.0
H391 H 0.30433 0.78709 0.28733 0.0
O392 O 0.25535 0.77235 0.24552 0.0
O393 O 0.26988 0.78244 0.27062 0.0
H394 H 0.23861 0.70883 0.24464 0.0
O395 O 0.25104 0.75097 0.29226 0.0
O396 O 0.23708 0.74074 0.26695 0.0
O397 O 0.28521 0.725 0.28744 0.0
O398 O 0.2714 0.71544 0.26181 0.0
C399 C 0.23613 0.74522 0.28369 0.0
H400 H 0.25658 0.73547 0.18531 0.0
H401 H 0.23075 0.68973 0.21699 0.0
H402 H 0.28416 0.76461 0.34736 0.0
H403 H 0.31412 0.80626 0.31432 0.0
C404 C 0.5055 0.02712 0.55264 0.0
N405 N 0.53191 0.97741 0.53261 0.0
C406 C 0.54326 0.97657 0.54785 0.0
C407 C 0.54905 0.95847 0.55474 0.0
C408 C 0.54289 0.9412 0.54593 0.0
C409 C 0.53161 0.94252 0.52998 0.0
C410 C 0.52634 0.96089 0.52347 0.0
Zn411 Zn 0.52224 0.00355 0.52328 0.0
C412 C 0.48129 0.00047 0.512 0.0
N413 N 0.50102 0.05761 0.50335 0.0
C414 C 0.50536 0.07416 0.51299 0.0
C415 C 0.49219 0.05844 0.48669 0.0
C416 C 0.48827 0.07654 0.47865 0.0
C417 C 0.49341 0.0939 0.48793 0.0
C418 C 0.50155 0.09254 0.50555 0.0
Zn419 Zn 0.51038 0.03148 0.51305 0.0
O420 O 0.51427 0.01134 0.54975 0.0
C421 C 0.55149 0.03435 0.52364 0.0
O422 O 0.50205 0.03876 0.53951 0.0
H423 H 0.48888 0.04507 0.47928 0.0
H424 H 0.54748 0.98993 0.55488 0.0
H425 H 0.51242 0.07314 0.5262 0.0
O426 O 0.54911 0.01643 0.52774 0.0
O427 O 0.53745 0.04424 0.51793 0.0
H428 H 0.51747 0.96192 0.51128 0.0
O429 O 0.51898 0.02387 0.48673 0.0
O430 O 0.53028 0.99608 0.49695 0.0
O431 O 0.48352 0.01846 0.50802 0.0
O432 O 0.4952 0.99087 0.51843 0.0
C433 C 0.52756 0.00799 0.48391 0.0
H434 H 0.55763 0.95794 0.56718 0.0
H435 H 0.52672 0.92947 0.52278 0.0
H436 H 0.48213 0.07687 0.46499 0.0
H437 H 0.5054 0.10554 0.51334 0.0
C438 C 0.28078 0.21997 0.75656 0.0
N439 N 0.25355 0.24119 0.80144 0.0
C440 C 0.24093 0.22618 0.79898 0.0
C441 C 0.23514 0.21518 0.81376 0.0
C442 C 0.24275 0.21932 0.83121 0.0
C443 C 0.25462 0.23587 0.83352 0.0
C444 C 0.2598 0.24671 0.81836 0.0
Zn445 Zn 0.26573 0.25243 0.77901 0.0
C446 C 0.30713 0.26017 0.78522 0.0
N447 N 0.29136 0.27325 0.73139 0.0
C448 C 0.2882 0.26299 0.71571 0.0
C449 C 0.30259 0.28956 0.73197 0.0
C450 C 0.31089 0.29635 0.71619 0.0
C451 C 0.30781 0.28598 0.69987 0.0
C452 C 0.29644 0.26904 0.69976 0.0
Zn453 Zn 0.27906 0.26318 0.7541 0.0
O454 O 0.27206 0.22331 0.77099 0.0
C455 C 0.23768 0.25589 0.74785 0.0
O456 O 0.28541 0.23427 0.7466 0.0
H457 H 0.30498 0.2974 0.74464 0.0
H458 H 0.23622 0.22189 0.78542 0.0
H459 H 0.27909 0.25019 0.71551 0.0
O460 O 0.23932 0.251 0.76449 0.0
O461 O 0.25231 0.26138 0.73966 0.0
H462 H 0.26977 0.25872 0.82001 0.0
O463 O 0.27262 0.29197 0.7619 0.0
O464 O 0.25948 0.28154 0.78676 0.0
O465 O 0.30551 0.26505 0.76857 0.0
O466 O 0.29257 0.25431 0.79332 0.0
C467 C 0.26402 0.29561 0.77636 0.0
H468 H 0.22568 0.20281 0.81137 0.0
H469 H 0.26101 0.23957 0.84666 0.0
H470 H 0.31948 0.30957 0.71667 0.0
H471 H 0.29338 0.26095 0.68732 0.0
C472 C 0.05596 -0.00016 0.53096 0.0
N473 N 0.03015 0.03053 0.4879 0.0
C474 C 0.04589 0.04209 0.48836 0.0
C475 C 0.05364 0.04853 0.47219 0.0
C476 C 0.0451 0.04302 0.45543 0.0
C477 C 0.02814 0.03223 0.45546 0.0
C478 C 0.02091 0.02608 0.47192 0.0
Zn479 Zn 0.02225 0.0164 0.51093 0.0
C480 C 0.01597 0.97305 0.50288 0.0
N481 N 0.00706 0.98497 0.55839 0.0
C482 C 0.01739 0.9891 0.57383 0.0
C483 C 0.99064 0.97455 0.55894 0.0
C484 C 0.98343 0.96902 0.57566 0.0
C485 C 0.99329 0.97418 0.59187 0.0
C486 C 0.0108 0.98376 0.59076 0.0
Zn487 Zn 0.01473 0.99878 0.53509 0.0
O488 O 0.05098 0.01043 0.51747 0.0
C489 C 0.02095 0.04216 0.54295 0.0
O490 O 0.04344 0.99273 0.54105 0.0
H491 H 0.98262 0.97146 0.5465 0.0
H492 H 0.053 0.04547 0.50122 0.0
H493 H 0.03025 0.99765 0.57315 0.0
O494 O 0.02419 0.04289 0.52608 0.0
O495 O 0.01698 0.0257 0.55007 0.0
H496 H 0.00849 0.01677 0.47186 0.0
O497 O 0.98618 0.00506 0.52883 0.0
O498 O 0.99341 0.02223 0.5048 0.0
O499 O 0.01249 0.97214 0.51973 0.0
O500 O 0.02022 0.98957 0.49601 0.0
C501 C 0.98104 0.01546 0.51528 0.0
H502 H 0.06661 0.05703 0.47278 0.0
H503 H 0.02119 0.02742 0.44288 0.0
H504 H 0.96995 0.96149 0.57592 0.0
H505 H 0.01875 0.98831 0.60288 0.0
C506 C 0.271 0.76631 0.72517 0.0
N507 N 0.31258 0.73893 0.75768 0.0
C508 C 0.3166 0.72603 0.74429 0.0
C509 C 0.33487 0.71901 0.74287 0.0
C510 C 0.34904 0.72559 0.75521 0.0
C511 C 0.34443 0.73863 0.76905 0.0
C512 C 0.32599 0.74505 0.77012 0.0
Zn513 Zn 0.28618 0.74967 0.7596 0.0
C514 C 0.2876 0.79263 0.76902 0.0
N515 N 0.23163 0.77285 0.76528 0.0
C516 C 0.21874 0.76764 0.752 0.0
C517 C 0.22661 0.78306 0.78019 0.0
C518 C 0.20778 0.78769 0.78254 0.0
C519 C 0.19407 0.78176 0.76938 0.0
C520 C 0.19983 0.77205 0.75375 0.0
Zn521 Zn 0.25818 0.76272 0.76324 0.0
O522 O 0.28536 0.75737 0.73156 0.0
C523 C 0.25663 0.71966 0.75454 0.0
O524 O 0.2575 0.7699 0.73547 0.0
H525 H 0.23711 0.78698 0.79058 0.0
H526 H 0.30571 0.72139 0.73456 0.0
H527 H 0.22301 0.75944 0.74029 0.0
O528 O 0.27439 0.72151 0.75393 0.0
O529 O 0.24682 0.73467 0.75757 0.0
H530 H 0.32243 0.75511 0.7808 0.0
O531 O 0.25917 0.75528 0.79119 0.0
O532 O 0.28683 0.74235 0.7874 0.0
O533 O 0.2698 0.79081 0.76909 0.0
O534 O 0.29752 0.77778 0.76565 0.0
C535 C 0.27338 0.74621 0.79768 0.0
H536 H 0.33802 0.70911 0.7319 0.0
H537 H 0.35504 0.74393 0.77883 0.0
H538 H 0.20392 0.79502 0.79491 0.0
H539 H 0.18977 0.76749 0.74315 0.0
C540 C 0.53308 0.97334 0.03865 0.0
N541 N 0.54129 0.03187 0.0548 0.0
C542 C 0.53457 0.02568 0.07092 0.0
C543 C 0.54321 0.03181 0.08725 0.0
C544 C 0.55903 0.04431 0.08697 0.0
C545 C 0.5649 0.05153 0.07019 0.0
C546 C 0.55569 0.04515 0.05415 0.0
Zn547 Zn 0.53233 0.01738 0.03182 0.0
C548 C 0.56526 0.00818 0.00914 0.0
N549 N 0.51605 0.98449 0.98464 0.0
C550 C 0.50203 0.9708 0.98551 0.0
C551 C 0.52263 0.99054 0.96842 0.0
C552 C 0.51421 0.98378 0.9522 0.0
C553 C 0.49879 0.97073 0.95267 0.0
C554 C 0.49312 0.96371 0.96958 0.0
Zn555 Zn 0.52492 -0.00084 0.00753 0.0
O556 O 0.53602 0.99006 0.04597 0.0
C557 C 0.49197 0.00906 0.03025 0.0
O558 O 0.52832 0.97246 0.02186 0.0
H559 H 0.53369 0.00153 0.96804 0.0
H560 H 0.52324 0.01497 0.07113 0.0
H561 H 0.49704 0.96617 -0.00143 0.0
O562 O 0.50437 0.01822 0.03984 0.0
O563 O 0.49668 0.00015 0.01597 0.0
H564 H 0.56078 0.04992 0.04118 0.0
O565 O 0.52155 0.0264 0.99331 0.0
O566 O 0.52864 0.04411 0.01753 0.0
O567 O 0.55333 0.99835 -0.00047 0.0
O568 O 0.5601 0.01683 0.02334 0.0
C569 C 0.52419 0.04315 0.00066 0.0
H570 H 0.53838 0.02571 0.09987 0.0
H571 H 0.57695 0.06131 0.06945 0.0
H572 H 0.51889 0.98981 0.93949 0.0
H573 H 0.48139 0.95351 0.97051 0.0
C574 C 0.24411 0.22177 0.26419 0.0
N575 N 0.29205 0.24369 0.23915 0.0
C576 C 0.2978 0.22474 0.23932 0.0
C577 C 0.30879 0.21769 0.22545 0.0
C578 C 0.31412 0.23035 0.2114 0.0
C579 C 0.30913 0.2502 0.21238 0.0
C580 C 0.29786 0.25652 0.22629 0.0
Zn581 Zn 0.27277 0.25272 0.25708 0.0
C582 C 0.24001 0.2712 0.23838 0.0
N583 N 0.23228 0.27186 0.29408 0.0
C584 C 0.2261 0.25967 0.30728 0.0
C585 C 0.22588 0.29051 0.29242 0.0
C586 C 0.21352 0.29792 0.30492 0.0
C587 C 0.2075 0.28596 0.3192 0.0
C588 C 0.21352 0.2664 0.31995 0.0
Zn589 Zn 0.25183 0.2626 0.27662 0.0
O590 O 0.25868 0.22509 0.2551 0.0
C591 C 0.28492 0.24492 0.29533 0.0
O592 O 0.23807 0.23513 0.27441 0.0
H593 H 0.23083 0.29989 0.2817 0.0
H594 H 0.29314 0.21483 0.24977 0.0
H595 H 0.23129 0.24484 0.30826 0.0
O596 O 0.28968 0.24259 0.27898 0.0
O597 O 0.26908 0.25246 0.29846 0.0
H598 H 0.29314 0.27154 0.22639 0.0
O599 O 0.26597 0.28993 0.27894 0.0
O600 O 0.28676 0.28033 0.25963 0.0
O601 O 0.23506 0.27294 0.25471 0.0
O602 O 0.25559 0.26318 0.23519 0.0
C603 C 0.28083 0.29332 0.27034 0.0
H604 H 0.3121 0.20223 0.22523 0.0
H605 H 0.31324 0.2606 0.20208 0.0
H606 H 0.20955 0.31318 0.30392 0.0
H607 H 0.20905 0.25656 0.33056 0.0
C608 C 0.56055 0.49574 0.03157 0.0
N609 N 0.53614 0.5278 0.98869 0.0
C610 C 0.5518 0.53945 0.98972 0.0
C611 C 0.55989 0.54636 0.97388 0.0
C612 C 0.5518 0.54118 0.95684 0.0
C613 C 0.53498 0.53013 0.95627 0.0
C614 C 0.52736 0.52356 0.97243 0.0
Zn615 Zn 0.52746 0.51366 0.01142 0.0
C616 C 0.51981 0.47076 0.00314 0.0
N617 N 0.51084 0.48277 0.05878 0.0
C618 C 0.52157 0.48565 0.07422 0.0
C619 C 0.4934 0.47437 0.05937 0.0
C620 C 0.48549 0.47019 0.0761 0.0
C621 C 0.49572 0.47455 0.09232 0.0
C622 C 0.51435 0.48141 0.09116 0.0
Zn623 Zn 0.51937 0.49634 0.0356 0.0
O624 O 0.55589 0.50684 0.01833 0.0
C625 C 0.52668 0.53936 0.0437 0.0
O626 O 0.54781 0.48883 0.04153 0.0
H627 H 0.48508 0.47218 0.04694 0.0
H628 H 0.55854 0.54264 0.0028 0.0
H629 H 0.53531 0.49251 0.07354 0.0
O630 O 0.5297 0.54006 0.02678 0.0
O631 O 0.52268 0.52293 0.05085 0.0
H632 H 0.51497 0.51421 0.97192 0.0
O633 O 0.49118 0.50419 0.02927 0.0
O634 O 0.49897 0.52017 0.00471 0.0
O635 O 0.516 0.46996 0.01992 0.0
O636 O 0.52496 0.48706 0.99641 0.0
C637 C 0.48642 0.51426 0.01538 0.0
H638 H 0.57273 0.55505 0.97495 0.0
H639 H 0.52836 0.52554 0.94347 0.0
H640 H 0.47108 0.46493 0.07628 0.0
H641 H 0.52295 0.48451 0.10327 0.0
C642 C 0.76766 0.27133 0.22569 0.0
N643 N 0.81067 0.23855 0.25128 0.0
C644 C 0.81227 0.22612 0.23697 0.0
C645 C 0.82928 0.21669 0.23418 0.0
C646 C 0.84472 0.22011 0.24627 0.0
C647 C 0.84261 0.23307 0.26086 0.0
C648 C 0.82542 0.24214 0.26312 0.0
Zn649 Zn 0.78574 0.25125 0.25674 0.0
C650 C 0.7919 0.29346 0.26796 0.0
N651 N 0.7348 0.27802 0.27114 0.0
C652 C 0.71991 0.2738 0.25964 0.0
C653 C 0.73259 0.28824 0.28677 0.0
C654 C 0.71465 0.29384 0.29177 0.0
C655 C 0.69889 0.28871 0.28061 0.0
C656 C 0.70178 0.27898 0.26415 0.0
Zn657 Zn 0.75993 0.26608 0.26529 0.0
O658 O 0.78164 0.26037 0.22938 0.0
C659 C 0.75395 0.22373 0.25452 0.0
O660 O 0.75641 0.2755 0.23812 0.0
H661 H 0.74465 0.29143 0.29569 0.0
H662 H 0.8003 0.22338 0.22782 0.0
H663 H 0.72198 0.26561 0.2473 0.0
O664 O 0.77142 0.22442 0.25157 0.0
O665 O 0.74579 0.23922 0.25946 0.0
H666 H 0.82383 0.25201 0.27446 0.0
O667 O 0.76362 0.25639 0.29237 0.0
O668 O 0.78946 0.24226 0.28407 0.0
O669 O 0.77449 0.29279 0.27138 0.0
O670 O 0.7998 0.27822 0.26205 0.0
C671 C 0.77776 0.2458 0.29625 0.0
H672 H 0.8303 0.20674 0.22279 0.0
H673 H 0.85423 0.23647 0.27028 0.0
H674 H 0.71309 0.30161 0.30446 0.0
H675 H 0.6901 0.27446 0.25523 0.0
C676 C 0.02561 0.47723 0.54412 0.0
N677 N 0.04382 0.53433 0.55744 0.0
C678 C 0.03711 0.53038 0.57414 0.0
C679 C 0.04714 0.53652 0.58976 0.0
C680 C 0.06429 0.54669 0.58815 0.0
C681 C 0.07025 0.55167 0.57075 0.0
C682 C 0.05969 0.54537 0.55547 0.0
Zn683 Zn 0.03215 0.52007 0.53546 0.0
C684 C 0.06266 0.50216 0.5142 0.0
N685 N 0.01004 0.48835 0.48958 0.0
C686 C 0.99376 0.47785 0.49099 0.0
C687 C 0.01768 0.49165 0.47315 0.0
C688 C 0.0083 0.48537 0.45722 0.0
C689 C 0.99083 0.47564 0.45817 0.0
C690 C 0.98386 0.47134 0.47536 0.0
Zn691 Zn 0.02146 0.50259 0.51178 0.0
O692 O 0.03173 0.49339 0.55079 0.0
C693 C 0.99117 0.51951 0.53443 0.0
O694 O 0.01992 0.47667 0.52755 0.0
H695 H 0.03056 0.50015 0.47233 0.0
H696 H 0.02456 0.52144 0.57539 0.0
H697 H 0.98795 0.47536 0.5042 0.0
O698 O 0.00509 0.52596 0.54396 0.0
O699 O 0.99397 0.51018 0.51982 0.0
H700 H 0.06475 0.54836 0.54204 0.0
O701 O 0.02318 0.52891 0.4961 0.0
O702 O 0.03244 0.54645 0.51979 0.0
O703 O 0.04914 0.49478 0.50463 0.0
O704 O 0.05912 0.51358 0.5272 0.0
C705 C 0.0281 0.54542 0.50289 0.0
H706 H 0.04215 0.53216 0.60293 0.0
H707 H 0.08333 0.55964 0.56898 0.0
H708 H 0.01409 0.48926 0.44426 0.0
H709 H 0.97053 0.46372 0.4767 0.0
C710 C 0.78496 0.724 0.25245 0.0
N711 N 0.75532 0.74016 0.29839 0.0
C712 C 0.74772 0.7219 0.296 0.0
C713 C 0.74186 0.71109 0.31089 0.0
C714 C 0.74335 0.7193 0.32842 0.0
C715 C 0.74979 0.73884 0.3302 0.0
C716 C 0.75604 0.7489 0.31501 0.0
Zn717 Zn 0.76701 0.75372 0.27679 0.0
C718 C 0.80758 0.76399 0.28413 0.0
N719 N 0.79143 0.78045 0.23108 0.0
C720 C 0.78803 0.77402 0.21379 0.0
C721 C 0.80088 0.79759 0.23455 0.0
C722 C 0.80586 0.80985 0.22032 0.0
C723 C 0.8012 0.80434 0.20233 0.0
C724 C 0.79299 0.78573 0.19911 0.0
Zn725 Zn 0.77985 0.76647 0.2524 0.0
O726 O 0.77641 0.72622 0.26719 0.0
C727 C 0.73912 0.75632 0.24535 0.0
O728 O 0.78834 0.73889 0.24266 0.0
H729 H 0.80353 0.80237 0.24842 0.0
H730 H 0.74691 0.71534 0.28262 0.0
H731 H 0.78059 0.76029 0.21138 0.0
O732 O 0.74105 0.75047 0.2617 0.0
O733 O 0.75333 0.76362 0.23758 0.0
H734 H 0.76201 0.76348 0.31661 0.0
O735 O 0.77112 0.79387 0.26204 0.0
O736 O 0.75781 0.78153 0.28592 0.0
O737 O 0.80597 0.7693 0.26758 0.0
O738 O 0.79322 0.75702 0.29185 0.0
C739 C 0.76181 0.79633 0.27624 0.0
H740 H 0.73721 0.69609 0.30866 0.0
H741 H 0.75069 0.7461 0.34329 0.0
H742 H 0.81202 0.82408 0.22352 0.0
H743 H 0.78951 0.78071 0.18543 0.0
C744 C 0.80459 0.25193 0.75084 0.0
N745 N 0.75239 0.23507 0.72711 0.0
C746 C 0.75846 0.24438 0.71203 0.0
C747 C 0.75494 0.23619 0.69486 0.0
C748 C 0.74511 0.21825 0.69326 0.0
C749 C 0.73789 0.20969 0.70896 0.0
C750 C 0.74173 0.2184 0.72585 0.0
Zn751 Zn 0.76264 0.24374 0.75199 0.0
C752 C 0.77788 0.20877 0.77244 0.0
N753 N 0.78586 0.25954 0.8039 0.0
C754 C 0.79663 0.27611 0.80552 0.0
C755 C 0.77995 0.24973 0.81879 0.0
C756 C 0.78379 0.25727 0.83615 0.0
C757 C 0.79385 0.27501 0.83815 0.0
C758 C 0.80088 0.28412 0.82265 0.0
Zn759 Zn 0.77557 0.25115 0.77896 0.0
O760 O 0.79011 0.24739 0.74103 0.0
C761 C 0.76048 0.28613 0.75827 0.0
O762 O 0.80271 0.25487 0.76775 0.0
H763 H 0.77145 0.23656 0.81717 0.0
H764 H 0.76699 0.25757 0.71338 0.0
H765 H 0.80108 0.2837 0.79347 0.0
O766 O 0.7563 0.27335 0.74618 0.0
O767 O 0.7687 0.28079 0.77304 0.0
H768 H 0.73708 0.21125 0.73805 0.0
O769 O 0.74827 0.2473 0.78997 0.0
O770 O 0.73533 0.2402 0.76331 0.0
O771 O 0.78227 0.22149 0.78453 0.0
O772 O 0.76927 0.21418 0.75793 0.0
C773 C 0.73366 0.24294 0.78029 0.0
H774 H 0.76091 0.24319 0.68313 0.0
H775 H 0.73001 0.19601 0.70827 0.0
H776 H 0.77833 0.24971 0.84783 0.0
H777 H 0.80857 0.29791 0.82365 0.0
C778 C 0.75575 0.72171 0.76492 0.0
N779 N 0.79961 0.74713 0.73585 0.0
C780 C 0.80383 0.72864 0.73054 0.0
C781 C 0.81098 0.72533 0.71338 0.0
C782 C 0.81389 0.74122 0.70159 0.0
C783 C 0.81013 0.76024 0.70777 0.0
C784 C 0.80291 0.76286 0.72499 0.0
Zn785 Zn 0.78657 0.75124 0.7598 0.0
C786 C 0.75381 0.77778 0.75525 0.0
N787 N 0.75853 0.75978 0.80922 0.0
C788 C 0.75391 0.74427 0.8199 0.0
C789 C 0.75527 0.77854 0.81443 0.0
C790 C 0.74773 0.78232 0.83126 0.0
C791 C 0.74337 0.76665 0.84278 0.0
C792 C 0.74613 0.74739 0.83683 0.0
Zn793 Zn 0.77164 0.75552 0.78543 0.0
O794 O 0.76887 0.72627 0.75433 0.0
C795 C 0.80412 0.72901 0.79034 0.0
O796 O 0.75339 0.73201 0.77901 0.0
H797 H 0.7589 0.79064 0.80567 0.0
H798 H 0.80109 0.71635 0.73939 0.0
H799 H 0.75667 0.72948 0.81548 0.0
O800 O 0.80647 0.73318 0.77372 0.0
O801 O 0.79029 0.73619 0.79841 0.0
H802 H 0.79946 0.77745 0.72949 0.0
O803 O 0.79028 0.77906 0.7918 0.0
O804 O 0.804 0.7762 0.76572 0.0
O805 O 0.753 0.7748 0.77223 0.0
O806 O 0.76645 0.76938 0.74636 0.0
C807 C 0.80251 0.78499 0.78083 0.0
H808 H 0.81341 0.71039 0.70914 0.0
H809 H 0.8124 0.77294 0.69925 0.0
H810 H 0.74558 0.79737 0.83536 0.0
H811 H 0.743 0.73498 0.84544 0.0
C812 C 0.502 0.52676 0.50099 0.0
N813 N 0.49311 0.48289 0.5387 0.0
C814 C 0.47632 0.49177 0.5409 0.0
C815 C 0.45972 0.48073 0.54059 0.0
C816 C 0.4604 0.46034 0.53802 0.0
C817 C 0.47808 0.45139 0.53746 0.0
C818 C 0.49438 0.46303 0.53778 0.0
Zn819 Zn 0.51511 0.50028 0.53159 0.0
C820 C 0.5343 0.48346 0.49963 0.0
N821 N 0.55892 0.53714 0.513 0.0
C822 C 0.55581 0.55637 0.50916 0.0
C823 C 0.57627 0.52923 0.51163 0.0
C824 C 0.59143 0.54084 0.50652 0.0
C825 C 0.58872 0.56079 0.50253 0.0
C826 C 0.57056 0.5685 0.50379 0.0
Zn827 Zn 0.53749 0.51954 0.52099 0.0
O828 O 0.49671 0.51445 0.51275 0.0
C829 C 0.51801 0.53689 0.55244 0.0
O830 O 0.5191 0.53233 0.50125 0.0
H831 H 0.57841 0.51389 0.51468 0.0
H832 H 0.4756 0.50759 0.54141 0.0
H833 H 0.54188 0.56234 0.51033 0.0
O834 O 0.50918 0.5206 0.55217 0.0
O835 O 0.53014 0.54045 0.54055 0.0
H836 H 0.5079 0.4563 0.53601 0.0
O837 O 0.55568 0.50613 0.54089 0.0
O838 O 0.53354 0.48615 0.55009 0.0
O839 O 0.54444 0.49881 0.50131 0.0
O840 O 0.52138 0.48031 0.5108 0.0
C841 C 0.55043 0.49243 0.55138 0.0
H842 H 0.44645 0.48834 0.54087 0.0
H843 H 0.47925 0.43568 0.53577 0.0
H844 H 0.60521 0.5343 0.50612 0.0
H845 H 0.56775 0.58372 0.50065 0.0
C846 C 0.00974 0.54127 0.05538 0.0
N847 N 0.03556 0.49131 0.03635 0.0
C848 C 0.04578 0.49163 0.05232 0.0
C849 C 0.05036 0.47417 0.06115 0.0
C850 C 0.04436 0.45625 0.05345 0.0
C851 C 0.03468 0.45632 0.03648 0.0
C852 C 0.03037 0.47414 0.02812 0.0
Zn853 Zn 0.02638 0.51713 0.02591 0.0
C854 C 0.98546 0.51478 0.01455 0.0
N855 N 0.00642 0.57161 0.00592 0.0
C856 C 0.01173 0.58814 0.01517 0.0
C857 C 0.99783 0.57252 0.98914 0.0
C858 C 0.99529 0.5906 0.98057 0.0
C859 C 0.00166 0.60783 0.98939 0.0
C860 C 0.00945 0.60649 0.00713 0.0
Zn861 Zn 0.01494 0.54539 0.01611 0.0
O862 O 0.01845 0.5256 0.05203 0.0
C863 C 0.05604 0.54751 0.02669 0.0
O864 O 0.00611 0.55321 0.04251 0.0
H865 H 0.99375 0.55916 0.98205 0.0
H866 H 0.04973 0.50547 0.05861 0.0
H867 H 0.01868 0.58704 0.02843 0.0
O868 O 0.05343 0.5295 0.03029 0.0
O869 O 0.04212 0.55774 0.02133 0.0
H870 H 0.02232 0.47428 0.01538 0.0
O871 O 0.02393 0.53711 0.98987 0.0
O872 O 0.03431 0.50882 -0.0001 0.0
O873 O 0.98804 0.53277 0.01071 0.0
O874 O 0.99913 0.50486 0.02106 0.0
C875 C 0.03192 0.52088 0.98692 0.0
H876 H 0.05765 0.47479 0.07431 0.0
H877 H 0.03002 0.44277 0.02998 0.0
H878 H 0.98897 0.59104 0.96698 0.0
H879 H 0.01475 0.61937 0.01435 0.0
H880 H 0.02404 0.18279 0.14633 0.0
H881 H 0.01953 0.14804 0.13923 0.0
H882 H 0.02661 0.16027 0.08235 0.0
H883 H 0.03097 0.19511 0.0892 0.0
H884 H 0.99545 0.13502 0.09015 0.0
H885 H 0.06261 0.11161 0.12433 0.0
H886 H 0.04698 0.12574 0.13772 0.0
H887 H 0.05798 0.13689 0.11865 0.0
C888 C 0.02467 0.17814 0.13229 0.0
C889 C 0.02803 0.19175 0.11833 0.0
C890 C 0.02211 0.15826 0.1283 0.0
C891 C 0.02295 0.15166 0.11033 0.0
C892 C 0.02595 0.16517 0.09633 0.0
H893 H 0.04729 0.04983 0.05412 0.0
H894 H 0.04582 0.08016 0.07139 0.0
C895 C 0.02848 0.18505 0.10028 0.0
C896 C 0.02106 0.13061 0.10597 0.0
H897 H 0.04429 0.08722 0.10942 0.0
C898 C 0.00595 0.12445 0.09454 0.0
C899 C 0.03486 0.117 0.11177 0.0
C900 C 0.05162 0.12306 0.1237 0.0
C901 C 0.00467 0.10512 0.0881 0.0
C902 C 0.01877 0.09166 0.09346 0.0
C903 C 0.03344 0.09761 0.10551 0.0
C904 C 0.02008 0.07235 0.0846 0.0
C905 C 0.98889 0.09955 0.07478 0.0
C906 C 0.00625 0.05775 0.08666 0.0
C907 C 0.007 0.0403 0.07671 0.0
C908 C 0.0216 0.03732 0.06462 0.0
C909 C 0.03578 0.05171 0.06321 0.0
C910 C 0.03502 0.06904 0.07312 0.0
H911 H 0.98061 0.11246 0.07017 0.0
H912 H 0.99455 0.09223 0.06267 0.0
H913 H 0.97921 0.08903 0.08133 0.0
H914 H 0.99474 0.06002 0.09566 0.0
H915 H 0.99593 0.02942 0.07814 0.0
H916 H 0.09382 0.76096 0.38703 0.0
H917 H 0.12347 0.75761 0.37145 0.0
H918 H 0.09284 0.74075 0.32223 0.0
H919 H 0.06307 0.74441 0.33766 0.0
H920 H 0.13968 0.72635 0.3548 0.0
H921 H 0.12569 0.78521 0.30423 0.0
H922 H 0.11153 0.78174 0.32389 0.0
H923 H 0.10795 0.76627 0.30424 0.0
C924 C 0.09336 0.75649 0.37289 0.0
C925 C 0.076 0.75307 0.36359 0.0
C926 C 0.11037 0.75458 0.36399 0.0
C927 C 0.11049 0.74928 0.34553 0.0
C928 C 0.09319 0.74532 0.33633 0.0
H929 H 0.20122 0.73541 0.26901 0.0
H930 H 0.17098 0.73544 0.28401 0.0
C931 C 0.07614 0.74726 0.34523 0.0
C932 C 0.12871 0.74791 0.33602 0.0
H933 H 0.15311 0.76648 0.30044 0.0
C934 C 0.14261 0.73516 0.34293 0.0
C935 C 0.13263 0.75939 0.3205 0.0
C936 C 0.11876 0.77406 0.31284 0.0
C937 C 0.16012 0.73341 0.3347 0.0
C938 C 0.16407 0.74495 0.31924 0.0
C939 C 0.15013 0.75759 0.31224 0.0
C940 C 0.18264 0.74438 0.31031 0.0
C941 C 0.17411 0.71892 0.34245 0.0
C942 C 0.19936 0.74952 0.31999 0.0
C943 C 0.2167 0.74951 0.31145 0.0
C944 C 0.21777 0.74445 0.29295 0.0
C945 C 0.201 0.7393 0.28328 0.0
C946 C 0.18365 0.73935 0.29184 0.0
H947 H 0.16719 0.70754 0.3508 0.0
H948 H 0.18172 0.71154 0.33147 0.0
H949 H 0.18461 0.72681 0.35133 0.0
H950 H 0.19897 0.75387 0.33413 0.0
H951 H 0.22926 0.7537 0.31932 0.0
H952 H 0.53368 0.79988 0.65119 0.0
H953 H 0.53799 0.82878 0.63212 0.0
H954 H 0.5698 0.79448 0.59489 0.0
H955 H 0.56473 0.76528 0.61347 0.0
H956 H 0.56886 0.84799 0.62255 0.0
H957 H 0.53157 0.81832 0.56066 0.0
H958 H 0.53103 0.80605 0.58233 0.0
H959 H 0.55133 0.80414 0.56852 0.0
C960 C 0.54148 0.79848 0.63887 0.0
C961 C 0.54871 0.78034 0.63369 0.0
C962 C 0.54401 0.815 0.62804 0.0
C963 C 0.55399 0.81372 0.61195 0.0
C964 C 0.56164 0.79569 0.60699 0.0
H965 H 0.57692 0.92687 0.55786 0.0
H966 H 0.58289 0.89497 0.57235 0.0
C967 C 0.55881 0.77905 0.61766 0.0
C968 C 0.55608 0.83134 0.60044 0.0
H969 H 0.54437 0.85014 0.55868 0.0
C970 C 0.56362 0.84848 0.60854 0.0
C971 C 0.54922 0.83186 0.58217 0.0
C972 C 0.54018 0.81418 0.57292 0.0
C973 C 0.56365 0.86638 0.59918 0.0
C974 C 0.55652 0.86695 0.581 0.0
C975 C 0.54987 0.8496 0.57261 0.0
C976 C 0.55365 0.88565 0.57117 0.0
C977 C 0.57028 0.88464 0.60921 0.0
C978 C 0.5354 0.89062 0.56511 0.0
C979 C 0.53207 0.90851 0.55657 0.0
C980 C 0.5469 0.92186 0.55406 0.0
C981 C 0.56525 0.91683 0.55984 0.0
C982 C 0.56864 0.89871 0.56816 0.0
H983 H 0.57136 0.8823 0.62415 0.0
H984 H 0.58444 0.88893 0.60459 0.0
H985 H 0.5606 0.89701 0.6064 0.0
H986 H 0.52362 0.88079 0.56734 0.0
H987 H 0.51777 0.91215 0.55238 0.0
H988 H 0.44978 0.26707 0.89631 0.0
H989 H 0.42064 0.26591 0.87803 0.0
H990 H 0.45229 0.26402 0.82911 0.0
H991 H 0.48176 0.2646 0.84745 0.0
H992 H 0.40657 0.29083 0.85363 0.0
H993 H 0.41624 0.21896 0.82 0.0
H994 H 0.43121 0.22728 0.8388 0.0
H995 H 0.43485 0.23632 0.8162 0.0
C996 C 0.45066 0.26634 0.88166 0.0
C997 C 0.46825 0.26586 0.8734 0.0
C998 C 0.43389 0.26569 0.87119 0.0
C999 C 0.43414 0.26459 0.85215 0.0
C1000 C 0.45165 0.26437 0.84378 0.0
H1001 H 0.34155 0.26711 0.77071 0.0
H1002 H 0.37237 0.26843 0.78659 0.0
C1003 C 0.46853 0.26484 0.8543 0.0
C1004 C 0.41598 0.26417 0.84131 0.0
H1005 H 0.38962 0.2373 0.81024 0.0
C1006 C 0.4029 0.27909 0.84417 0.0
C1007 C 0.41108 0.24885 0.82894 0.0
C1008 C 0.42399 0.23184 0.82589 0.0
C1009 C 0.38519 0.27912 0.83507 0.0
C1010 C 0.3803 0.2638 0.82279 0.0
C1011 C 0.39341 0.24904 0.81967 0.0
C1012 C 0.36154 0.2628 0.81321 0.0
C1013 C 0.37182 0.29562 0.83855 0.0
C1014 C 0.3452 0.25901 0.82288 0.0
C1015 C 0.32753 0.25812 0.81383 0.0
C1016 C 0.32584 0.2611 0.79492 0.0
C1017 C 0.34229 0.26484 0.78528 0.0
C1018 C 0.35995 0.26555 0.79432 0.0
H1019 H 0.37897 0.30819 0.8456 0.0
H1020 H 0.36522 0.30089 0.82557 0.0
H1021 H 0.36042 0.29018 0.84723 0.0
H1022 H 0.34613 0.25665 0.83744 0.0
H1023 H 0.3152 0.25516 0.82168 0.0
H1024 H 0.01764 0.80102 0.43334 0.0
H1025 H 0.01464 0.83223 0.44907 0.0
H1026 H 0.03048 0.86312 0.4007 0.0
H1027 H 0.03335 0.83169 0.38467 0.0
H1028 H 0.04315 0.85988 0.45547 0.0
H1029 H 0.98319 0.89234 0.41594 0.0
H1030 H 0.98873 0.8666 0.41477 0.0
H1031 H 0.00254 0.8843 0.40283 0.0
C1032 C 0.02033 0.81443 0.42592 0.0
C1033 C 0.02573 0.81384 0.40771 0.0
C1034 C 0.01863 0.83229 0.43498 0.0
C1035 C 0.02218 0.85006 0.42607 0.0
C1036 C 0.02736 0.84962 0.40779 0.0
H1037 H 0.02287 0.9705 0.46659 0.0
H1038 H 0.02438 0.94097 0.44788 0.0
C1039 C 0.02907 0.83165 0.39865 0.0
C1040 C 0.02128 0.86881 0.43639 0.0
H1041 H 0.99763 0.91206 0.43903 0.0
C1042 C 0.03319 0.87129 0.45187 0.0
C1043 C 0.00834 0.88374 0.43165 0.0
C1044 C 0.99484 0.88166 0.41548 0.0
C1045 C 0.03255 0.88823 0.46271 0.0
C1046 C 0.01935 0.90299 0.45821 0.0
C1047 C 0.00765 0.90069 0.44255 0.0
C1048 C 0.01763 0.92095 0.46955 0.0
C1049 C 0.04626 0.89029 0.47873 0.0
C1050 C 0.01294 0.91961 0.48793 0.0
C1051 C 0.0121 0.9365 0.49873 0.0
C1052 C 0.01582 0.95511 0.49134 0.0
C1053 C 0.02 0.95642 0.47279 0.0
C1054 C 0.02084 0.93954 0.46203 0.0
H1055 H 0.05854 0.88051 0.47746 0.0
H1056 H 0.05148 0.90565 0.48017 0.0
H1057 H 0.03907 0.88622 0.49136 0.0
H1058 H 0.01002 0.90546 0.49396 0.0
H1059 H 0.00873 0.93494 0.51291 0.0
H1060 H 0.52429 0.71227 0.71461 0.0
H1061 H 0.49719 0.70205 0.7322 0.0
H1062 H 0.45982 0.71969 0.68784 0.0
H1063 H 0.48671 0.72892 0.67002 0.0
H1064 H 0.47076 0.72224 0.74503 0.0
H1065 H 0.4362 0.66868 0.69902 0.0
H1066 H 0.4599 0.67732 0.69562 0.0
H1067 H 0.43998 0.69062 0.68627 0.0
C1068 C 0.51026 0.7137 0.70859 0.0
C1069 C 0.50755 0.72129 0.69095 0.0
C1070 C 0.49482 0.7078 0.7186 0.0
C1071 C 0.47646 0.70958 0.71117 0.0
C1072 C 0.47383 0.71738 0.69361 0.0
H1073 H 0.37901 0.75015 0.75329 0.0
H1074 H 0.41123 0.74188 0.7466 0.0
C1075 C 0.48922 0.7229 0.6835 0.0
C1076 C 0.45985 0.70524 0.72219 0.0
H1077 H 0.41481 0.68802 0.71759 0.0
C1078 C 0.45869 0.71429 0.73925 0.0
C1079 C 0.44428 0.6942 0.71513 0.0
C1080 C 0.4453 0.68197 0.69811 0.0
C1081 C 0.44175 0.71437 0.74844 0.0
C1082 C 0.42543 0.70593 0.73996 0.0
C1083 C 0.42714 0.69505 0.72391 0.0
C1084 C 0.40628 0.71043 0.746 0.0
C1085 C 0.44147 0.72405 0.76687 0.0
C1086 C 0.3925 0.6956 0.74732 0.0
C1087 C 0.37385 0.70041 0.75062 0.0
C1088 C 0.36881 0.7201 0.75286 0.0
C1089 C 0.38265 0.73484 0.75195 0.0
C1090 C 0.40113 0.73008 0.74832 0.0
H1091 H 0.45496 0.72164 0.77457 0.0
H1092 H 0.43991 0.74012 0.76511 0.0
H1093 H 0.42976 0.71838 0.77506 0.0
H1094 H 0.39608 0.68036 0.74539 0.0
H1095 H 0.36336 0.68882 0.75128 0.0
H1096 H 0.53291 0.21638 0.9459 0.0
H1097 H 0.53308 0.18272 0.95681 0.0
H1098 H 0.52366 0.16168 0.90194 0.0
H1099 H 0.52362 0.19576 0.89075 0.0
H1100 H 0.50095 0.15774 0.95146 0.0
H1101 H 0.56579 0.1255 0.92398 0.0
H1102 H 0.56288 0.15168 0.92618 0.0
H1103 H 0.55025 0.13849 0.90846 0.0
C1104 C 0.53116 0.20463 0.93605 0.0
C1105 C 0.52807 0.20876 0.91745 0.0
C1106 C 0.53127 0.18537 0.94234 0.0
C1107 C 0.52832 0.16969 0.93024 0.0
C1108 C 0.52614 0.17358 0.91151 0.0
H1109 H 0.51875 0.04599 0.96368 0.0
H1110 H 0.51848 0.07582 0.9451 0.0
C1111 C 0.52613 0.19303 0.90512 0.0
C1112 C 0.526 0.14963 0.93778 0.0
H1113 H 0.54761 0.10535 0.94277 0.0
C1114 C 0.51106 0.14622 0.94942 0.0
C1115 C 0.53911 0.13458 0.935 0.0
C1116 C 0.55551 0.13763 0.92281 0.0
C1117 C 0.50919 0.12842 0.95878 0.0
C1118 C 0.52278 0.1137 0.9567 0.0
C1119 C 0.53727 0.11672 0.94444 0.0
C1120 C 0.52271 0.09558 0.9679 0.0
C1121 C 0.49275 0.12559 0.97099 0.0
C1122 C 0.52527 0.09679 0.98689 0.0
C1123 C 0.52544 0.07981 0.99755 0.0
C1124 C 0.52308 0.06123 0.98944 0.0
C1125 C 0.52048 0.06006 0.9704 0.0
C1126 C 0.5204 0.07708 0.95973 0.0
H1127 H 0.48104 0.13564 0.96728 0.0
H1128 H 0.48737 0.11024 0.97035 0.0
H1129 H 0.49738 0.12878 0.98525 0.0
H1130 H 0.52736 0.11091 0.99345 0.0
H1131 H 0.5276 0.08126 0.01213 0.0
H1132 H 0.09772 0.2768 0.12324 0.0
H1133 H 0.13023 0.28297 0.13378 0.0
H1134 H 0.12046 0.24971 0.18247 0.0
H1135 H 0.08801 0.24331 0.17209 0.0
H1136 H 0.14318 0.30154 0.16672 0.0
H1137 H 0.16804 0.22513 0.16147 0.0
H1138 H 0.14672 0.2335 0.15004 0.0
H1139 H 0.14674 0.22703 0.17375 0.0
C1140 C 0.10249 0.27066 0.13615 0.0
C1141 C 0.09028 0.25941 0.14677 0.0
C1142 C 0.12106 0.27426 0.14213 0.0
C1143 C 0.12775 0.26653 0.15872 0.0
C1144 C 0.11559 0.25548 0.16944 0.0
H1145 H 0.20653 0.28979 0.24089 0.0
H1146 H 0.18191 0.29244 0.2173 0.0
C1147 C 0.09703 0.25193 0.16352 0.0
C1148 C 0.14729 0.27032 0.16524 0.0
H1149 H 0.18645 0.24669 0.18103 0.0
C1150 C 0.15284 0.28963 0.16955 0.0
C1151 C 0.15996 0.25482 0.16847 0.0
C1152 C 0.15516 0.23397 0.16302 0.0
C1153 C 0.17027 0.29363 0.17835 0.0
C1154 C 0.18221 0.27787 0.1831 0.0
C1155 C 0.17723 0.25877 0.1775 0.0
C1156 C 0.19848 0.28022 0.19598 0.0
C1157 C 0.17548 0.3146 0.18293 0.0
C1158 C 0.21611 0.2727 0.1918 0.0
C1159 C 0.23022 0.27095 0.20537 0.0
C1160 C 0.22679 0.27652 0.22335 0.0
C1161 C 0.20958 0.28527 0.22719 0.0
C1162 C 0.19553 0.287 0.21364 0.0
H1163 H 0.16899 0.32488 0.17289 0.0
H1164 H 0.17009 0.31828 0.19648 0.0
H1165 H 0.19097 0.31693 0.18335 0.0
H1166 H 0.21861 0.26727 0.17826 0.0
H1167 H 0.24337 0.26421 0.20199 0.0
H1168 H 0.09078 0.00835 0.20419 0.0
H1169 H 0.08274 0.99551 0.17399 0.0
H1170 H 0.12394 0.95 0.18154 0.0
H1171 H 0.13263 0.96333 0.21171 0.0
H1172 H 0.12492 0.96396 0.14805 0.0
H1173 H 0.05096 0.94821 0.16277 0.0
H1174 H 0.0561 0.97344 0.16779 0.0
H1175 H 0.06817 0.95443 0.18047 0.0
C1176 C 0.09812 0.99558 0.19947 0.0
C1177 C 0.11219 0.98673 0.2104 0.0
C1178 C 0.09341 0.98815 0.18224 0.0
C1179 C 0.10229 0.97139 0.17573 0.0
C1180 C 0.11673 0.96279 0.18639 0.0
H1181 H 0.04158 0.93871 0.07562 0.0
H1182 H 0.05856 0.93202 0.1044 0.0
C1183 C 0.1217 0.97045 0.20358 0.0
C1184 C 0.09659 0.96337 0.1576 0.0
H1185 H 0.05743 0.95407 0.13097 0.0
C1186 C 0.1102 0.96137 0.14436 0.0
C1187 C 0.07752 0.95915 0.15289 0.0
C1188 C 0.06243 0.95869 0.16683 0.0
C1189 C 0.10501 0.95701 0.12619 0.0
C1190 C 0.08567 0.95538 0.12105 0.0
C1191 C 0.07227 0.95566 0.13465 0.0
C1192 C 0.0787 0.95587 0.10174 0.0
C1193 C 0.12034 0.95448 0.11275 0.0
C1194 C 0.08486 0.97085 0.09017 0.0
C1195 C 0.07553 0.97427 0.0735 0.0
C1196 C 0.05944 0.96322 0.06833 0.0
C1197 C 0.05392 0.94749 0.07933 0.0
C1198 C 0.0636 0.9437 0.09579 0.0
H1199 H 0.13277 0.94734 0.11933 0.0
H1200 H 0.11551 0.94553 0.10083 0.0
H1201 H 0.12503 0.96911 0.10795 0.0
H1202 H 0.096 0.98091 0.09455 0.0
H1203 H 0.07998 0.98665 0.0654 0.0
H1204 H 0.26778 0.90796 0.46508 0.0
H1205 H 0.2759 0.8951 0.43509 0.0
H1206 H 0.28117 0.83711 0.45796 0.0
H1207 H 0.273 0.84961 0.48759 0.0
H1208 H 0.30969 0.87199 0.42526 0.0
H1209 H 0.24188 0.83189 0.4147 0.0
H1210 H 0.24498 0.85179 0.43079 0.0
H1211 H 0.2531 0.82762 0.43656 0.0
C1212 C 0.27066 0.89248 0.46364 0.0
C1213 C 0.26963 0.87976 0.47861 0.0
C1214 C 0.27534 0.8852 0.44658 0.0
C1215 C 0.27891 0.86516 0.44438 0.0
C1216 C 0.27823 0.85259 0.45939 0.0
H1217 H 0.30742 0.77757 0.36877 0.0
H1218 H 0.30464 0.79897 0.39525 0.0
C1219 C 0.27358 0.85979 0.47632 0.0
C1220 C 0.283 0.85687 0.42645 0.0
H1221 H 0.26712 0.82205 0.39625 0.0
C1222 C 0.3003 0.86132 0.41869 0.0
C1223 C 0.27064 0.84302 0.41799 0.0
C1224 C 0.25153 0.8384 0.42532 0.0
C1225 C 0.30592 0.85145 0.40304 0.0
C1226 C 0.29393 0.8369 0.39519 0.0
C1227 C 0.27636 0.83306 0.40255 0.0
C1228 C 0.29922 0.82515 0.37942 0.0
C1229 C 0.32484 0.856 0.39533 0.0
C1230 C 0.29747 0.83299 0.36188 0.0
C1231 C 0.2988 0.82079 0.34675 0.0
C1232 C 0.30188 0.80054 0.34896 0.0
C1233 C 0.30478 0.79303 0.36662 0.0
C1234 C 0.30335 0.80523 0.38173 0.0
H1235 H 0.33304 0.86685 0.40372 0.0
H1236 H 0.33309 0.84233 0.39435 0.0
H1237 H 0.32285 0.86193 0.38135 0.0
H1238 H 0.29401 0.84829 0.3599 0.0
H1239 H 0.29621 0.82704 0.33338 0.0
H1240 H 0.45879 -0.0011 0.70982 0.0
H1241 H 0.47021 0.00867 0.68042 0.0
H1242 H 0.41957 0.04142 0.66948 0.0
H1243 H 0.40774 0.03152 0.69912 0.0
H1244 H 0.43023 0.01784 0.64041 0.0
H1245 H 0.49065 0.06254 0.66642 0.0
H1246 H 0.49025 0.03867 0.67665 0.0
H1247 H 0.47141 0.05544 0.68051 0.0
C1248 C 0.45001 0.00824 0.70128 0.0
C1249 C 0.43236 0.01453 0.70695 0.0
C1250 C 0.45667 0.01393 0.68449 0.0
C1251 C 0.44596 0.02618 0.673 0.0
C1252 C 0.42814 0.03216 0.6783 0.0
H1253 H 0.48036 0.05522 0.56191 0.0
H1254 H 0.46497 0.05867 0.59104 0.0
C1255 C 0.4214 0.02644 0.6952 0.0
C1256 C 0.45335 0.03183 0.65517 0.0
H1257 H 0.49289 0.04993 0.6358 0.0
C1258 C 0.44369 0.0253 0.63932 0.0
C1259 C 0.47088 0.04167 0.65382 0.0
C1260 C 0.4813 0.05017 0.67027 0.0
C1261 C 0.45179 0.02709 0.62226 0.0
C1262 C 0.46989 0.03567 0.62113 0.0
C1263 C 0.47906 0.04323 0.6368 0.0
C1264 C 0.48024 0.03504 0.60412 0.0
C1265 C 0.4415 0.01881 0.60565 0.0
C1266 C 0.49419 0.02093 0.60213 0.0
C1267 C 0.50293 0.01883 0.58556 0.0
C1268 C 0.49794 0.03094 0.57075 0.0
C1269 C 0.48452 0.04568 0.57307 0.0
C1270 C 0.47567 0.04765 0.58964 0.0
H1271 H 0.42787 0.01177 0.60898 0.0
H1272 H 0.43872 0.03073 0.59568 0.0
H1273 H 0.45038 0.00779 0.59901 0.0
H1274 H 0.49787 0.0111 0.61323 0.0
H1275 H 0.51325 0.0074 0.58423 0.0
H1276 H 0.31118 0.152 0.96816 0.0
H1277 H 0.296 0.16344 0.93987 0.0
H1278 H 0.26768 0.10753 0.93308 0.0
H1279 H 0.28291 0.09586 0.96145 0.0
H1280 H 0.29586 0.1438 0.90302 0.0
H1281 H 0.22581 0.15259 0.93373 0.0
H1282 H 0.24731 0.15242 0.94752 0.0
H1283 H 0.23852 0.13012 0.93735 0.0
C1284 C 0.30196 0.14204 0.9605 0.0
C1285 C 0.29822 0.12307 0.96695 0.0
C1286 C 0.29328 0.14859 0.94442 0.0
C1287 C 0.28062 0.13636 0.93463 0.0
C1288 C 0.27733 0.11716 0.94062 0.0
H1289 H 0.24226 0.1793 0.8286 0.0
H1290 H 0.24674 0.15591 0.85326 0.0
C1291 C 0.28615 0.11051 0.95669 0.0
C1292 C 0.2707 0.14417 0.91837 0.0
H1293 H 0.22942 0.1652 0.90421 0.0
C1294 C 0.28123 0.14815 0.90306 0.0
C1295 C 0.25169 0.14992 0.91875 0.0
C1296 C 0.24006 0.14616 0.93519 0.0
C1297 C 0.27347 0.1585 0.88826 0.0
C1298 C 0.25458 0.16476 0.88878 0.0
C1299 C 0.24382 0.16019 0.90386 0.0
C1300 C 0.24667 0.17777 0.87452 0.0
C1301 C 0.28587 0.16361 0.87263 0.0
C1302 C 0.24379 0.19761 0.8785 0.0
C1303 C 0.24088 0.21108 0.86442 0.0
C1304 C 0.24092 0.20489 0.84618 0.0
C1305 C 0.24202 0.18467 0.84244 0.0
C1306 C 0.24475 0.17123 0.85652 0.0
H1307 H 0.30094 0.16062 0.87586 0.0
H1308 H 0.28147 0.15471 0.86056 0.0
H1309 H 0.28447 0.17933 0.86894 0.0
H1310 H 0.2451 0.20287 0.89238 0.0
H1311 H 0.23965 0.22647 0.86779 0.0
H1312 H 0.09536 0.01385 0.29302 0.0
H1313 H 0.08149 0.02662 0.32046 0.0
H1314 H 0.1347 0.02056 0.34973 0.0
H1315 H 0.14883 0.00814 0.32215 0.0
H1316 H 0.07836 0.0067 0.35215 0.0
H1317 H 0.11924 0.07547 0.36447 0.0
H1318 H 0.11917 0.06252 0.34304 0.0
H1319 H 0.1336 0.05421 0.36199 0.0
C1320 C 0.10418 0.01542 0.30524 0.0
C1321 C 0.12318 0.00996 0.30545 0.0
C1322 C 0.09623 0.02276 0.3209 0.0
C1323 C 0.10712 0.02481 0.33706 0.0
C1324 C 0.12616 0.01954 0.33729 0.0
H1325 H 0.08252 0.0389 0.44937 0.0
H1326 H 0.09751 0.03778 0.42003 0.0
C1327 C 0.13416 0.01227 0.32157 0.0
C1328 C 0.09807 0.03088 0.35399 0.0
H1329 H 0.10026 0.06427 0.38868 0.0
C1330 C 0.08301 0.01942 0.36002 0.0
C1331 C 0.10423 0.04744 0.36427 0.0
C1332 C 0.11983 0.06074 0.35805 0.0
C1333 C 0.07422 0.02375 0.37627 0.0
C1334 C 0.08048 0.04018 0.38664 0.0
C1335 C 0.09545 0.05176 0.3806 0.0
C1336 C 0.0722 0.04467 0.40431 0.0
C1337 C 0.05869 0.01033 0.38252 0.0
C1338 C 0.05321 0.04981 0.40519 0.0
C1339 C 0.04458 0.05054 0.42196 0.0
C1340 C 0.05484 0.04619 0.43812 0.0
C1341 C 0.07422 0.0425 0.43723 0.0
C1342 C 0.08282 0.04177 0.42046 0.0
H1343 H 0.05809 0.99628 0.37485 0.0
H1344 H 0.06059 0.00701 0.39724 0.0
H1345 H 0.04495 0.0177 0.38042 0.0
H1346 H 0.04486 0.05239 0.39285 0.0
H1347 H 0.02971 0.05375 0.42222 0.0
H1348 H 0.27638 0.8827 0.58627 0.0
H1349 H 0.27698 0.86689 0.61633 0.0
H1350 H 0.25221 0.8145 0.59234 0.0
H1351 H 0.25229 0.82988 0.56239 0.0
H1352 H 0.25164 0.84996 0.63839 0.0
H1353 H 0.30057 0.79375 0.61457 0.0
H1354 H 0.29475 0.81527 0.60139 0.0
H1355 H 0.27926 0.79416 0.60085 0.0
C1356 C 0.27078 0.86795 0.58755 0.0
C1357 C 0.26453 0.85736 0.57208 0.0
C1358 C 0.2712 0.8589 0.60466 0.0
C1359 C 0.26522 0.83929 0.60643 0.0
C1360 C 0.25751 0.82938 0.59117 0.0
H1361 H 0.24018 0.77658 0.7046 0.0
H1362 H 0.23954 0.79434 0.67577 0.0
C1363 C 0.25741 0.83823 0.57412 0.0
C1364 C 0.26766 0.82877 0.62395 0.0
H1365 H 0.28585 0.787 0.64268 0.0
C1366 C 0.25924 0.83627 0.6394 0.0
C1367 C 0.27803 0.81119 0.62535 0.0
C1368 C 0.28884 0.80324 0.6097 0.0
C1369 C 0.26027 0.82624 0.65605 0.0
C1370 C 0.26946 0.80792 0.65708 0.0
C1371 C 0.2785 0.80083 0.6418 0.0
C1372 C 0.26983 0.79584 0.67384 0.0
C1373 C 0.25171 0.83554 0.67241 0.0
C1374 C 0.28703 0.7896 0.6817 0.0
C1375 C 0.28741 0.77894 0.69794 0.0
C1376 C 0.2706 0.77451 0.70662 0.0
C1377 C 0.25337 0.77998 0.69829 0.0
C1378 C 0.25299 0.79034 0.68194 0.0
H1379 H 0.2509 0.85173 0.67093 0.0
H1380 H 0.23715 0.82981 0.67376 0.0
H1381 H 0.25993 0.83216 0.6851 0.0
H1382 H 0.30019 0.79348 0.67556 0.0
H1383 H 0.30089 0.77498 0.70411 0.0
H1384 H 0.38864 0.00585 0.81462 0.0
H1385 H 0.4015 0.99545 0.84449 0.0
H1386 H 0.45601 0.98813 0.82163 0.0
H1387 H 0.44348 0.99865 0.79203 0.0
H1388 H 0.42163 0.95942 0.85498 0.0
H1389 H 0.46472 0.02727 0.86438 0.0
H1390 H 0.44533 0.02543 0.84794 0.0
H1391 H 0.46781 0.01527 0.84297 0.0
C1392 C 0.40335 0.00202 0.81601 0.0
C1393 C 0.4151 0.00324 0.80105 0.0
C1394 C 0.41063 0.99601 0.83301 0.0
C1395 C 0.42972 0.99126 0.83522 0.0
C1396 C 0.44129 0.992 0.82021 0.0
H1397 H 0.51119 0.96279 0.91865 0.0
H1398 H 0.49267 0.96444 0.89006 0.0
C1399 C 0.43409 0.99801 0.80331 0.0
C1400 C 0.43796 0.98612 0.85326 0.0
H1401 H 0.47192 0.00075 0.88429 0.0
C1402 C 0.4325 0.9685 0.86154 0.0
C1403 C 0.45203 0.9981 0.86173 0.0
C1404 C 0.45772 0.01767 0.85391 0.0
C1405 C 0.44136 0.96218 0.87785 0.0
C1406 C 0.4559 0.97386 0.88591 0.0
C1407 C 0.46096 0.9917 0.87786 0.0
C1408 C 0.46607 0.96829 0.90292 0.0
C1409 C 0.43557 0.9429 0.8861 0.0
C1410 C 0.45708 0.96925 0.91955 0.0
C1411 C 0.46763 0.96845 0.93589 0.0
C1412 C 0.48734 0.9668 0.93581 0.0
C1413 C 0.49607 0.96433 0.91912 0.0
C1414 C 0.48552 0.96516 0.90281 0.0
H1415 H 0.42631 0.93411 0.87666 0.0
H1416 H 0.44816 0.93417 0.88997 0.0
H1417 H 0.42781 0.94574 0.89866 0.0
H1418 H 0.44212 0.97199 0.91988 0.0
H1419 H 0.4605 0.97064 0.9485 0.0
H1420 H 0.30933 0.18494 0.05275 0.0
H1421 H 0.31947 0.19656 0.08287 0.0
H1422 H 0.33589 0.1379 0.09798 0.0
H1423 H 0.3253 0.12599 0.06795 0.0
H1424 H 0.31494 0.15374 0.12288 0.0
H1425 H 0.37027 0.20742 0.10623 0.0
H1426 H 0.34908 0.21234 0.09325 0.0
H1427 H 0.36118 0.18959 0.08993 0.0
C1428 C 0.31526 0.17451 0.06239 0.0
C1429 C 0.31644 0.15453 0.05796 0.0
C1430 C 0.32126 0.18123 0.07956 0.0
C1431 C 0.32888 0.16818 0.09252 0.0
C1432 C 0.33024 0.14825 0.0881 0.0
H1433 H 0.34008 0.20081 0.2087 0.0
H1434 H 0.3491 0.18418 0.18079 0.0
C1435 C 0.32408 0.14147 0.07097 0.0
C1436 C 0.3335 0.17513 0.11122 0.0
H1437 H 0.35443 0.21313 0.13471 0.0
C1438 C 0.32402 0.16636 0.12559 0.0
C1439 C 0.34549 0.1915 0.11475 0.0
C1440 C 0.35723 0.20059 0.10022 0.0
C1441 C 0.32492 0.17455 0.14306 0.0
C1442 C 0.33564 0.19188 0.14619 0.0
C1443 C 0.34618 0.19986 0.13219 0.0
C1444 C 0.33334 0.20352 0.16282 0.0
C1445 C 0.31327 0.16552 0.15773 0.0
C1446 C 0.32206 0.22019 0.16179 0.0
C1447 C 0.31666 0.22949 0.17758 0.0
C1448 C 0.3226 0.22241 0.19478 0.0
C1449 C 0.33499 0.20643 0.1957 0.0
C1450 C 0.34027 0.197 0.17981 0.0
H1451 H 0.30479 0.15272 0.15272 0.0
H1452 H 0.32268 0.16059 0.16914 0.0
H1453 H 0.30362 0.1766 0.16319 0.0
H1454 H 0.31649 0.22531 0.14876 0.0
H1455 H 0.30687 0.2415 0.17624 0.0
H1456 H 0.23776 0.14051 0.98058 0.0
H1457 H 0.20668 0.12614 0.97329 0.0
H1458 H 0.21724 0.08029 0.01254 0.0
H1459 H 0.24824 0.09434 0.01989 0.0
H1460 H 0.20442 0.06795 0.97567 0.0
H1461 H 0.1597 0.12485 0.00663 0.0
H1462 H 0.17787 0.13261 0.99166 0.0
H1463 H 0.1842 0.12214 0.01333 0.0
C1464 C 0.23337 0.12752 0.98786 0.0
C1465 C 0.24548 0.11861 0.00088 0.0
C1466 C 0.21563 0.11935 0.98364 0.0
C1467 C 0.20974 0.10223 0.99243 0.0
C1468 C 0.22162 0.09351 0.00561 0.0
H1469 H 0.12555 0.0196 0.00965 0.0
H1470 H 0.15416 0.03809 0.00375 0.0
C1471 C 0.2393 0.10162 0.00982 0.0
C1472 C 0.19139 0.09289 0.98781 0.0
H1473 H 0.14457 0.09627 0.9956 0.0
C1474 C 0.19127 0.07424 0.97975 0.0
C1475 C 0.17432 0.1013 0.99295 0.0
C1476 C 0.17386 0.1213 0.0017 0.0
C1477 C 0.17455 0.06332 0.97752 0.0
C1478 C 0.15766 0.07114 0.98386 0.0
C1479 C 0.15759 0.09031 0.99083 0.0
C1480 C 0.14055 0.05888 0.98554 0.0
C1481 C 0.1752 0.04328 0.96888 0.0
C1482 C 0.12337 0.06453 0.97733 0.0
C1483 C 0.10691 0.0539 0.98064 0.0
C1484 C 0.10738 0.03758 0.99237 0.0
C1485 C 0.12473 0.0318 0.00025 0.0
C1486 C 0.14112 0.04237 0.99689 0.0
H1487 H 0.18703 0.04227 0.95945 0.0
H1488 H 0.17742 0.03209 0.97966 0.0
H1489 H 0.16184 0.03972 0.96126 0.0
H1490 H 0.12267 0.07733 0.96862 0.0
H1491 H 0.09379 0.05861 0.97423 0.0
H1492 H 0.71017 0.39613 0.03315 0.0
H1493 H 0.67966 0.41204 0.03491 0.0
H1494 H 0.70747 0.46796 0.04352 0.0
H1495 H 0.73816 0.45212 0.04192 0.0
H1496 H 0.67592 0.46071 0.06631 0.0
H1497 H 0.65884 0.44715 0.99314 0.0
H1498 H 0.66533 0.42561 0.00582 0.0
H1499 H 0.68236 0.44493 0.00289 0.0
C1500 C 0.70983 0.41179 0.03555 0.0
C1501 C 0.72658 0.4229 0.03723 0.0
C1502 C 0.69238 0.42086 0.03649 0.0
C1503 C 0.69133 0.4412 0.03905 0.0
C1504 C 0.708 0.45224 0.04145 0.0
H1505 H 0.591 0.50845 0.01302 0.0
H1506 H 0.62336 0.49697 0.01617 0.0
C1507 C 0.72551 0.44318 0.04051 0.0
C1508 C 0.67282 0.45097 0.03852 0.0
H1509 H 0.6342 0.45908 0.01086 0.0
C1510 C 0.6668 0.46046 0.05419 0.0
C1511 C 0.66111 0.45086 0.02259 0.0
C1512 C 0.66726 0.44176 0.00508 0.0
C1513 C 0.6491 0.46942 0.05447 0.0
C1514 C 0.6371 0.46864 0.03873 0.0
C1515 C 0.64336 0.45955 0.02296 0.0
C1516 C 0.6179 0.47695 0.03823 0.0
C1517 C 0.64347 0.47981 0.07152 0.0
C1518 C 0.6041 0.46961 0.04969 0.0
C1519 C 0.58556 0.47618 0.04796 0.0
C1520 C 0.58046 0.49008 0.0346 0.0
C1521 C 0.59443 0.49772 0.02343 0.0
C1522 C 0.61295 0.49118 0.0252 0.0
H1523 H 0.65592 0.48374 0.08037 0.0
H1524 H 0.63556 0.49336 0.06819 0.0
H1525 H 0.63424 0.46996 0.07936 0.0
H1526 H 0.60752 0.45833 0.05959 0.0
H1527 H 0.57513 0.46993 0.05673 0.0
H1528 H 0.90008 0.4467 0.28945 0.0
H1529 H 0.88072 0.41712 0.29229 0.0
H1530 H 0.85406 0.42871 0.23986 0.0
H1531 H 0.87268 0.45903 0.23749 0.0
H1532 H 0.82895 0.41628 0.26199 0.0
H1533 H 0.8895 0.36625 0.2685 0.0
H1534 H 0.89014 0.3843 0.28621 0.0
H1535 H 0.89231 0.3918 0.26287 0.0
C1536 C 0.89013 0.44287 0.2785 0.0
C1537 C 0.88804 0.45497 0.26313 0.0
C1538 C 0.87915 0.4259 0.28009 0.0
C1539 C 0.86631 0.42032 0.26605 0.0
C1540 C 0.86396 0.43261 0.25082 0.0
H1541 H 0.82346 0.30293 0.25013 0.0
H1542 H 0.84042 0.33411 0.25025 0.0
C1543 C 0.87462 0.44989 0.24944 0.0
C1544 C 0.8553 0.40174 0.26729 0.0
H1545 H 0.85957 0.35259 0.27488 0.0
C1546 C 0.83565 0.40232 0.2647 0.0
C1547 C 0.86404 0.38346 0.27061 0.0
C1548 C 0.88516 0.38136 0.272 0.0
C1549 C 0.82452 0.38518 0.26526 0.0
C1550 C 0.83321 0.36703 0.26928 0.0
C1551 C 0.85285 0.3665 0.272 0.0
C1552 C 0.82254 0.34816 0.2695 0.0
C1553 C 0.8037 0.38669 0.26085 0.0
C1554 C 0.80686 0.34549 0.28043 0.0
C1555 C 0.79681 0.32769 0.28007 0.0
C1556 C 0.80266 0.31209 0.26921 0.0
C1557 C 0.81867 0.31462 0.25875 0.0
C1558 C 0.8284 0.33248 0.25879 0.0
H1559 H 0.80035 0.4002 0.253 0.0
H1560 H 0.79842 0.37382 0.25287 0.0
H1561 H 0.796 0.38731 0.2737 0.0
H1562 H 0.80239 0.35713 0.28925 0.0
H1563 H 0.78459 0.32607 0.28836 0.0
H1564 H 0.82189 0.57521 0.54457 0.0
H1565 H 0.84438 0.55353 0.56069 0.0
H1566 H 0.89042 0.58757 0.53983 0.0
H1567 H 0.8684 0.60895 0.52402 0.0
H1568 H 0.87062 0.53078 0.5443 0.0
H1569 H 0.90784 0.58028 0.59221 0.0
H1570 H 0.88452 0.58552 0.58303 0.0
H1571 H 0.90512 0.59288 0.57095 0.0
C1572 C 0.83683 0.57817 0.54375 0.0
C1573 C 0.84344 0.59366 0.53299 0.0
C1574 C 0.8496 0.56586 0.55298 0.0
C1575 C 0.86903 0.56924 0.5518 0.0
C1576 C 0.87549 0.58502 0.54141 0.0
H1577 H 0.95866 0.52028 0.51388 0.0
H1578 H 0.92709 0.52629 0.52427 0.0
C1579 C 0.86286 0.59711 0.53214 0.0
C1580 C 0.88306 0.55525 0.5591 0.0
H1581 H 0.92843 0.5579 0.5749 0.0
C1582 C 0.88306 0.53632 0.55165 0.0
C1583 C 0.89896 0.562 0.56939 0.0
C1584 C 0.89897 0.58122 0.57952 0.0
C1585 C 0.89964 0.52539 0.55166 0.0
C1586 C 0.91656 0.53403 0.55871 0.0
C1587 C 0.91569 0.55147 0.56882 0.0
C1588 C 0.93529 0.52754 0.55295 0.0
C1589 C 0.89905 0.50529 0.54311 0.0
C1590 C 0.95063 0.52687 0.56546 0.0
C1591 C 0.96883 0.52428 0.5594 0.0
C1592 C 0.97196 0.52201 0.54077 0.0
C1593 C 0.9566 0.52195 0.52832 0.0
C1594 C 0.93848 0.52502 0.53433 0.0
H1595 H 0.8859 0.4974 0.54661 0.0
H1596 H 0.89892 0.50675 0.52808 0.0
H1597 H 0.91129 0.49632 0.54762 0.0
H1598 H 0.94859 0.52893 0.57986 0.0
H1599 H 0.98046 0.5241 0.56931 0.0
H1600 H 0.13086 0.07654 0.27096 0.0
H1601 H 0.14991 0.10657 0.27048 0.0
H1602 H 0.19576 0.07458 0.24831 0.0
H1603 H 0.17687 0.04434 0.24874 0.0
H1604 H 0.18859 0.1106 0.28872 0.0
H1605 H 0.1857 0.12415 0.21399 0.0
H1606 H 0.16805 0.10961 0.22507 0.0
H1607 H 0.19094 0.09972 0.22182 0.0
C1608 C 0.14494 0.07585 0.26586 0.0
C1609 C 0.15232 0.05801 0.25985 0.0
C1610 C 0.1558 0.09303 0.26564 0.0
C1611 C 0.17412 0.09274 0.25924 0.0
C1612 C 0.18155 0.07506 0.25313 0.0
H1613 H 0.25497 0.18868 0.2464 0.0
H1614 H 0.23893 0.15669 0.24542 0.0
C1615 C 0.17075 0.05781 0.25346 0.0
C1616 C 0.18562 0.11089 0.25952 0.0
H1617 H 0.20339 0.14652 0.23223 0.0
C1618 C 0.19189 0.11846 0.2764 0.0
C1619 C 0.18999 0.1209 0.24338 0.0
C1620 C 0.18329 0.11333 0.22498 0.0
C1621 C 0.20242 0.13596 0.27759 0.0
C1622 C 0.2063 0.14636 0.26147 0.0
C1623 C 0.20033 0.13854 0.24455 0.0
C1624 C 0.21597 0.1657 0.26195 0.0
C1625 C 0.20944 0.14301 0.29607 0.0
C1626 C 0.20818 0.18142 0.27129 0.0
C1627 C 0.21732 0.19963 0.27197 0.0
C1628 C 0.23433 0.20254 0.2631 0.0
C1629 C 0.24191 0.18689 0.2534 0.0
C1630 C 0.23278 0.16861 0.25282 0.0
H1631 H 0.21032 0.13077 0.30603 0.0
H1632 H 0.22353 0.1501 0.29536 0.0
H1633 H 0.19949 0.15393 0.30127 0.0
H1634 H 0.19496 0.17962 0.27803 0.0
H1635 H 0.21101 0.21143 0.27942 0.0
H1636 H 0.34218 0.88357 0.51791 0.0
H1637 H 0.37058 0.90363 0.51551 0.0
H1638 H 0.33768 0.95611 0.51957 0.0
H1639 H 0.30914 0.9361 0.52245 0.0
H1640 H 0.37887 0.93003 0.48943 0.0
H1641 H 0.37961 0.96665 0.55694 0.0
H1642 H 0.36458 0.94582 0.5515 0.0
H1643 H 0.35828 0.96989 0.54357 0.0
C1644 C 0.34095 0.89938 0.51845 0.0
C1645 C 0.32337 0.90822 0.52044 0.0
C1646 C 0.35722 0.91083 0.51705 0.0
C1647 C 0.35629 0.93135 0.51756 0.0
C1648 C 0.33879 0.94028 0.51955 0.0
H1649 H 0.44717 0.01801 0.50611 0.0
H1650 H 0.41599 0.00222 0.50588 0.0
C1651 C 0.32248 0.92882 0.52113 0.0
C1652 C 0.37365 0.94324 0.51536 0.0
H1653 H 0.40279 0.97692 0.53657 0.0
C1654 C 0.38407 0.94031 0.49972 0.0
C1655 C 0.38039 0.9567 0.52879 0.0
C1656 C 0.37025 0.95987 0.54622 0.0
C1657 C 0.40115 0.95028 0.49726 0.0
C1658 C 0.40798 0.96347 0.51079 0.0
C1659 C 0.39739 0.96683 0.5262 0.0
C1660 C 0.42671 0.97292 0.50979 0.0
C1661 C 0.41188 0.94657 0.48028 0.0
C1662 C 0.44294 0.9616 0.51201 0.0
C1663 C 0.46071 0.97053 0.51227 0.0
C1664 C 0.46253 0.99096 0.51024 0.0
C1665 C 0.44622 0.00223 0.50761 0.0
C1666 C 0.42842 0.99327 0.50753 0.0
H1667 H 0.40292 0.93936 0.4695 0.0
H1668 H 0.41763 0.96052 0.47485 0.0
H1669 H 0.4239 0.93683 0.48363 0.0
H1670 H 0.44185 0.94588 0.51397 0.0
H1671 H 0.47299 0.96144 0.51434 0.0
H1672 H 0.88875 0.58118 0.25975 0.0
H1673 H 0.86967 0.61021 0.25463 0.0
H1674 H 0.83188 0.57707 0.21887 0.0
H1675 H 0.85061 0.54756 0.2246 0.0
H1676 H 0.86053 0.63091 0.22533 0.0
H1677 H 0.79549 0.59903 0.25376 0.0
H1678 H 0.81782 0.58684 0.25563 0.0
H1679 H 0.80424 0.58618 0.23456 0.0
C1680 C 0.8764 0.58004 0.25076 0.0
C1681 C 0.87106 0.56205 0.24271 0.0
C1682 C 0.86551 0.59668 0.24781 0.0
C1683 C 0.84914 0.59578 0.23661 0.0
C1684 C 0.84416 0.578 0.22795 0.0
H1685 H 0.79683 0.71169 0.2193 0.0
H1686 H 0.81016 0.67977 0.21195 0.0
C1687 C 0.85494 0.5612 0.23113 0.0
C1688 C 0.83732 0.61351 0.2346 0.0
H1689 H 0.79432 0.63185 0.24428 0.0
C1690 C 0.84599 0.63111 0.22931 0.0
C1691 C 0.81836 0.61372 0.23985 0.0
C1692 C 0.80843 0.5955 0.24642 0.0
C1693 C 0.83662 0.64908 0.23008 0.0
C1694 C 0.81775 0.64935 0.23564 0.0
C1695 C 0.80876 0.6316 0.23998 0.0
C1696 C 0.80787 0.66798 0.23913 0.0
C1697 C 0.84746 0.66766 0.22604 0.0
C1698 C 0.80122 0.6716 0.25655 0.0
C1699 C 0.79321 0.68958 0.26064 0.0
C1700 C 0.79187 0.70443 0.24744 0.0
C1701 C 0.79793 0.7006 0.22981 0.0
C1702 C 0.80565 0.68242 0.22562 0.0
H1703 H 0.86288 0.66521 0.22615 0.0
H1704 H 0.84311 0.67306 0.21233 0.0
H1705 H 0.84459 0.67929 0.23611 0.0
H1706 H 0.80272 0.66069 0.26719 0.0
H1707 H 0.78865 0.69205 0.27435 0.0
H1708 H 0.65985 0.43485 0.77402 0.0
H1709 H 0.67828 0.40505 0.77149 0.0
H1710 H 0.71727 0.43565 0.73754 0.0
H1711 H 0.6992 0.46578 0.74059 0.0
H1712 H 0.68592 0.38376 0.74254 0.0
H1713 H 0.7529 0.41149 0.77448 0.0
H1714 H 0.73124 0.42491 0.77531 0.0
H1715 H 0.74484 0.42548 0.75514 0.0
C1716 C 0.67239 0.43527 0.76608 0.0
C1717 C 0.67814 0.45267 0.75759 0.0
C1718 C 0.68291 0.41822 0.76463 0.0
C1719 C 0.69933 0.41816 0.75455 0.0
C1720 C 0.70494 0.43545 0.74578 0.0
H1721 H 0.74728 0.30406 0.72712 0.0
H1722 H 0.73422 0.33704 0.72427 0.0
C1723 C 0.69453 0.45262 0.74743 0.0
C1724 C 0.71019 0.3998 0.75303 0.0
H1725 H 0.7532 0.3795 0.76202 0.0
C1726 C 0.70065 0.38283 0.74676 0.0
C1727 C 0.72937 0.39859 0.75867 0.0
C1728 C 0.74017 0.41603 0.76644 0.0
C1729 C 0.7096 0.36462 0.74633 0.0
C1730 C 0.72886 0.36344 0.75174 0.0
C1731 C 0.73851 0.38048 0.75769 0.0
C1732 C 0.73878 0.34441 0.75272 0.0
C1733 C 0.69807 0.34671 0.74086 0.0
C1734 C 0.74667 0.33803 0.76941 0.0
C1735 C 0.75448 0.31939 0.77099 0.0
C1736 C 0.75442 0.30668 0.75593 0.0
C1737 C 0.74731 0.31342 0.73902 0.0
C1738 C 0.73973 0.33221 0.7374 0.0
H1739 H 0.68273 0.34934 0.74167 0.0
H1740 H 0.70094 0.34281 0.72659 0.0
H1741 H 0.70173 0.33398 0.74965 0.0
H1742 H 0.74619 0.34722 0.7814 0.0
H1743 H 0.75988 0.31467 0.7842 0.0
H1744 H 0.94944 0.85361 0.88251 0.0
H1745 H 0.95062 0.88269 0.90177 0.0
H1746 H 0.99916 0.9038 0.87384 0.0
H1747 H 0.99757 0.875 0.85419 0.0
H1748 H 0.9878 0.87617 0.91834 0.0
H1749 H 0.97843 0.95442 0.89846 0.0
H1750 H 0.9629 0.93519 0.88962 0.0
H1751 H 0.98641 0.93734 0.88177 0.0
C1752 C 0.95936 0.86525 0.87951 0.0
C1753 C 0.97356 0.86212 0.86714 0.0
C1754 C 0.96007 0.88187 0.89056 0.0
C1755 C 0.9752 0.89516 0.88945 0.0
C1756 C 0.98729 0.8938 0.87483 0.0
H1757 H 0.04165 0.95924 0.97133 0.0
H1758 H 0.03031 0.94311 0.94325 0.0
C1759 C 0.98638 0.87729 0.86357 0.0
C1760 C 0.98243 0.90452 0.90639 0.0
H1761 H 0.99421 0.94811 0.92665 0.0
C1762 C 0.98899 0.89193 0.92025 0.0
C1763 C 0.98447 0.92498 0.90851 0.0
C1764 C 0.97765 0.93889 0.89388 0.0
C1765 C 0.99757 0.89921 0.93625 0.0
C1766 C 0.99928 0.9197 0.93861 0.0
C1767 C 0.99286 0.93238 0.92471 0.0
C1768 C 0.0071 0.92814 0.95575 0.0
C1769 C 0.00508 0.88488 0.95028 0.0
C1770 C 0.9981 0.92452 0.97208 0.0
C1771 C 0.00468 0.93341 0.98815 0.0
C1772 C 0.02022 0.94635 0.9881 0.0
C1773 C 0.02974 0.94925 0.97185 0.0
C1774 C 0.02316 0.94025 0.95576 0.0
H1775 H 0.00766 0.87027 0.9442 0.0
H1776 H 0.0184 0.89036 0.95687 0.0
H1777 H 0.99457 0.88286 0.96095 0.0
H1778 H 0.98556 0.91536 0.97229 0.0
H1779 H 0.99694 0.93097 0.00039 0.0
H1780 H 0.94982 0.25652 0.65212 0.0
H1781 H 0.92006 0.2545 0.66775 0.0
H1782 H 0.95034 0.24837 0.71914 0.0
H1783 H 0.98032 0.2503 0.70355 0.0
H1784 H 0.90613 0.22373 0.69208 0.0
H1785 H 0.91486 0.2967 0.72541 0.0
H1786 H 0.9282 0.28972 0.70603 0.0
H1787 H 0.93411 0.27993 0.72809 0.0
C1788 C 0.9502 0.25459 0.66674 0.0
C1789 C 0.96749 0.25363 0.67658 0.0
C1790 C 0.93314 0.25344 0.67565 0.0
C1791 C 0.93294 0.25154 0.69463 0.0
C1792 C 0.95015 0.25008 0.7045 0.0
H1793 H 0.83902 0.2561 0.76854 0.0
H1794 H 0.87016 0.25534 0.75537 0.0
C1795 C 0.96728 0.25106 0.69556 0.0
C1796 C 0.91467 0.25138 0.70396 0.0
H1797 H 0.88736 0.27868 0.73152 0.0
C1798 C 0.90203 0.23571 0.70075 0.0
C1799 C 0.90936 0.26698 0.71532 0.0
C1800 C 0.92223 0.2844 0.7189 0.0
C1801 C 0.88427 0.23515 0.70864 0.0
C1802 C 0.87871 0.25101 0.71964 0.0
C1803 C 0.89151 0.26656 0.72305 0.0
C1804 C 0.85967 0.25184 0.72758 0.0
C1805 C 0.87181 0.21735 0.70537 0.0
C1806 C 0.84328 0.2506 0.71638 0.0
C1807 C 0.82544 0.2509 0.72389 0.0
C1808 C 0.82352 0.25276 0.74279 0.0
C1809 C 0.83993 0.25463 0.75394 0.0
C1810 C 0.85779 0.25418 0.74642 0.0
H1811 H 0.88013 0.20431 0.70174 0.0
H1812 H 0.86364 0.21375 0.71755 0.0
H1813 H 0.86177 0.22032 0.69386 0.0
H1814 H 0.84427 0.24939 0.70177 0.0
H1815 H 0.81313 0.2496 0.71485 0.0
H1816 H 0.49186 0.24915 0.38587 0.0
H1817 H 0.49103 0.21596 0.39837 0.0
H1818 H 0.48815 0.23974 0.45253 0.0
H1819 H 0.4885 0.27294 0.44018 0.0
H1820 H 0.51438 0.1974 0.42209 0.0
H1821 H 0.4436 0.20232 0.45069 0.0
H1822 H 0.45251 0.22031 0.43509 0.0
H1823 H 0.45911 0.22152 0.45891 0.0
C1824 C 0.49111 0.24734 0.40045 0.0
C1825 C 0.49007 0.26371 0.41202 0.0
C1826 C 0.49058 0.22836 0.40756 0.0
C1827 C 0.48906 0.22542 0.42632 0.0
C1828 C 0.48874 0.2417 0.43795 0.0
H1829 H 0.51838 0.12461 0.48969 0.0
H1830 H 0.5163 0.15588 0.47384 0.0
C1831 C 0.4891 0.26067 0.43087 0.0
C1832 C 0.48819 0.20533 0.43382 0.0
H1833 H 0.46264 0.17554 0.46117 0.0
C1834 C 0.50298 0.19254 0.43049 0.0
C1835 C 0.47308 0.19888 0.44443 0.0
C1836 C 0.45608 0.21141 0.44733 0.0
C1837 C 0.50349 0.17372 0.43812 0.0
C1838 C 0.48905 0.1678 0.44976 0.0
C1839 C 0.47384 0.18026 0.45247 0.0
C1840 C 0.48982 0.14902 0.45977 0.0
C1841 C 0.51946 0.16038 0.43361 0.0
C1842 C 0.47519 0.13514 0.45772 0.0
C1843 C 0.47611 0.11735 0.46712 0.0
C1844 C 0.49166 0.11321 0.47877 0.0
C1845 C 0.50608 0.12738 0.48104 0.0
C1846 C 0.50508 0.14516 0.47174 0.0
H1847 H 0.52563 0.16443 0.42044 0.0
H1848 H 0.53075 0.16174 0.44434 0.0
H1849 H 0.51473 0.14481 0.4329 0.0
H1850 H 0.46318 0.13798 0.44869 0.0
H1851 H 0.46466 0.10685 0.46527 0.0
H1852 H 0.56263 0.75247 0.18712 0.0
H1853 H 0.59257 0.74925 0.20451 0.0
H1854 H 0.62163 0.77831 0.16147 0.0
H1855 H 0.59213 0.78146 0.14409 0.0
H1856 H 0.63847 0.74346 0.1724 0.0
H1857 H 0.62488 0.7908 0.23197 0.0
H1858 H 0.60762 0.7719 0.22706 0.0
H1859 H 0.61059 0.79164 0.21123 0.0
C1860 C 0.57535 0.7584 0.18147 0.0
C1861 C 0.57486 0.76717 0.16413 0.0
C1862 C 0.59248 0.75659 0.19145 0.0
C1863 C 0.60939 0.76363 0.18435 0.0
C1864 C 0.60883 0.77272 0.16725 0.0
H1865 H 0.72917 0.76955 0.2111 0.0
H1866 H 0.69767 0.77024 0.19662 0.0
C1867 C 0.59184 0.77452 0.15732 0.0
C1868 C 0.62792 0.76093 0.19412 0.0
H1869 H 0.65391 0.77434 0.23217 0.0
C1870 C 0.64182 0.75019 0.1855 0.0
C1871 C 0.6323 0.76961 0.21124 0.0
C1872 C 0.61816 0.78178 0.22092 0.0
C1873 C 0.65995 0.74796 0.19344 0.0
C1874 C 0.6645 0.75705 0.21035 0.0
C1875 C 0.65048 0.76744 0.21918 0.0
C1876 C 0.68379 0.7562 0.21897 0.0
C1877 C 0.67399 0.73569 0.18371 0.0
C1878 C 0.68653 0.74836 0.2365 0.0
C1879 C 0.70453 0.74802 0.24485 0.0
C1880 C 0.72023 0.75563 0.23592 0.0
C1881 C 0.71746 0.7634 0.21833 0.0
C1882 C 0.69944 0.76374 0.20999 0.0
H1883 H 0.66691 0.72532 0.17397 0.0
H1884 H 0.68331 0.74547 0.17589 0.0
H1885 H 0.68288 0.72718 0.1935 0.0
H1886 H 0.6747 0.74252 0.24375 0.0
H1887 H 0.70607 0.74198 0.25843 0.0
H1888 H 0.01084 0.19933 0.64665 0.0
H1889 H 0.01055 0.16478 0.63676 0.0
H1890 H 0.02278 0.18303 0.58232 0.0
H1891 H 0.02307 0.21713 0.59182 0.0
H1892 H 0.98868 0.1452 0.6054 0.0
H1893 H 0.06609 0.14467 0.59863 0.0
H1894 H 0.05438 0.16245 0.61238 0.0
H1895 H 0.05472 0.16536 0.58811 0.0
C1896 C 0.01328 0.19597 0.63255 0.0
C1897 C 0.01722 0.21107 0.62013 0.0
C1898 C 0.01314 0.17624 0.62694 0.0
C1899 C 0.017 0.17138 0.60888 0.0
C1900 C 0.02012 0.18644 0.59638 0.0
H1901 H 0.02936 0.07963 0.53228 0.0
H1902 H 0.02828 0.10968 0.55037 0.0
C1903 C 0.02024 0.20599 0.6019 0.0
C1904 C 0.0183 0.15072 0.60276 0.0
H1905 H 0.04862 0.11913 0.58324 0.0
C1906 C 0.00182 0.13928 0.60088 0.0
C1907 C 0.03547 0.14309 0.59685 0.0
C1908 C 0.05373 0.15444 0.59922 0.0
C1909 C 0.0019 0.12082 0.59228 0.0
C1910 C 0.01895 0.11361 0.58562 0.0
C1911 C 0.03555 0.12472 0.58823 0.0
C1912 C 0.01973 0.09514 0.57494 0.0
C1913 C 0.98359 0.10964 0.58955 0.0
C1914 C 0.01557 0.07693 0.58282 0.0
C1915 C 0.01622 0.05969 0.57251 0.0
C1916 C 0.02108 0.06033 0.55411 0.0
C1917 C 0.02553 0.07858 0.54637 0.0
C1918 C 0.02492 0.09578 0.5567 0.0
H1919 H 0.97123 0.11882 0.59241 0.0
H1920 H 0.98206 0.10401 0.57541 0.0
H1921 H 0.98352 0.09686 0.59889 0.0
H1922 H 0.01187 0.07604 0.59696 0.0
H1923 H 0.01277 0.04588 0.57894 0.0
H1924 H 0.52136 0.29232 0.32045 0.0
H1925 H 0.55053 0.28979 0.30368 0.0
H1926 H 0.58256 0.28686 0.35446 0.0
H1927 H 0.55371 0.28988 0.37115 0.0
H1928 H 0.59339 0.31735 0.33203 0.0
H1929 H 0.58897 0.24657 0.29424 0.0
H1930 H 0.56901 0.26243 0.29173 0.0
H1931 H 0.57458 0.25156 0.31343 0.0
C1932 C 0.5346 0.29053 0.32796 0.0
C1933 C 0.53539 0.29143 0.34705 0.0
C1934 C 0.55122 0.28909 0.31839 0.0
C1935 C 0.56868 0.28818 0.32786 0.0
C1936 C 0.56923 0.28765 0.34692 0.0
H1937 H 0.68604 0.28457 0.31498 0.0
H1938 H 0.65365 0.28656 0.32462 0.0
C1939 C 0.55275 0.28933 0.35643 0.0
C1940 C 0.58656 0.29011 0.31833 0.0
H1941 H 0.61567 0.2667 0.28968 0.0
C1942 C 0.59821 0.30632 0.32268 0.0
C1943 C 0.59266 0.27582 0.30599 0.0
C1944 C 0.58076 0.25802 0.3011 0.0
C1945 C 0.61611 0.30829 0.31554 0.0
C1946 C 0.6225 0.29365 0.30379 0.0
C1947 C 0.6106 0.27786 0.29874 0.0
C1948 C 0.64209 0.29367 0.2979 0.0
C1949 C 0.62824 0.3258 0.32086 0.0
C1950 C 0.64621 0.29724 0.27971 0.0
C1951 C 0.66479 0.29646 0.27418 0.0
C1952 C 0.67947 0.29182 0.28674 0.0
C1953 C 0.6752 0.28858 0.30503 0.0
C1954 C 0.65667 0.28953 0.31054 0.0
H1955 H 0.61988 0.33777 0.32673 0.0
H1956 H 0.63903 0.32125 0.33123 0.0
H1957 H 0.63569 0.33158 0.30893 0.0
H1958 H 0.63506 0.30052 0.26982 0.0
H1959 H 0.66762 0.29926 0.26004 0.0
H1960 H 0.51131 0.83034 0.15383 0.0
H1961 H 0.5158 0.8623 0.139 0.0
H1962 H 0.53541 0.83319 0.09133 0.0
H1963 H 0.53087 0.80137 0.10589 0.0
H1964 H 0.55774 0.86813 0.10493 0.0
H1965 H 0.48084 0.88042 0.09411 0.0
H1966 H 0.48923 0.8737 0.1166 0.0
H1967 H 0.49035 0.85634 0.09837 0.0
C1968 C 0.51671 0.83079 0.14025 0.0
C1969 C 0.52065 0.81333 0.13101 0.0
C1970 C 0.51921 0.84903 0.13178 0.0
C1971 C 0.52582 0.85007 0.11402 0.0
C1972 C 0.53029 0.8327 0.10503 0.0
H1973 H 0.52243 0.93608 0.02861 0.0
H1974 H 0.5216 0.90677 0.04777 0.0
C1975 C 0.52764 0.81452 0.11338 0.0
C1976 C 0.52749 0.8691 0.1044 0.0
H1977 H 0.50138 0.90447 0.08286 0.0
C1978 C 0.54545 0.87621 0.10025 0.0
C1979 C 0.51141 0.87945 0.09815 0.0
C1980 C 0.49181 0.87214 0.10188 0.0
C1981 C 0.54773 0.89338 0.08992 0.0
C1982 C 0.53163 0.90362 0.08356 0.0
C1983 C 0.51369 0.89659 0.08781 0.0
C1984 C 0.53306 0.92129 0.07189 0.0
C1985 C 0.56726 0.90021 0.08541 0.0
C1986 C 0.53987 0.93916 0.0791 0.0
C1987 C 0.54028 0.956 0.06821 0.0
C1988 C 0.53397 0.95524 0.04986 0.0
C1989 C 0.52749 0.93719 0.04263 0.0
C1990 C 0.52694 0.92043 0.05357 0.0
H1991 H 0.5781 0.88919 0.08921 0.0
H1992 H 0.56799 0.90336 0.07064 0.0
H1993 H 0.57067 0.91401 0.09287 0.0
H1994 H 0.5445 0.94017 0.09326 0.0
H1995 H 0.5453 0.96967 0.07424 0.0
H1996 H 0.94207 0.78408 0.84229 0.0
H1997 H 0.91718 0.76014 0.83505 0.0
H1998 H 0.90147 0.75966 0.89118 0.0
H1999 H 0.92605 0.78411 0.89848 0.0
H2000 H 0.91075 0.72226 0.84849 0.0
H2001 H 0.8526 0.77315 0.86428 0.0
H2002 H 0.87652 0.78167 0.86239 0.0
H2003 H 0.86968 0.7684 0.88224 0.0
C2004 C 0.93323 0.77901 0.85308 0.0
C2005 C 0.93583 0.78618 0.8709 0.0
C2006 C 0.91915 0.7652 0.84896 0.0
C2007 C 0.9075 0.75819 0.86258 0.0
C2008 C 0.91017 0.7651 0.88044 0.0
H2009 H 0.80132 0.71301 0.82411 0.0
H2010 H 0.82751 0.7094 0.84607 0.0
C2011 C 0.92413 0.77914 0.88455 0.0
C2012 C 0.89193 0.74455 0.85753 0.0
H2013 H 0.84453 0.74389 0.84982 0.0
C2014 C 0.89619 0.72673 0.84911 0.0
C2015 C 0.87297 0.75029 0.85864 0.0
C2016 C 0.86756 0.76945 0.86726 0.0
C2017 C 0.88206 0.71526 0.84043 0.0
C2018 C 0.86335 0.72194 0.8401 0.0
C2019 C 0.85891 0.73873 0.8501 0.0
C2020 C 0.849 0.7149 0.82654 0.0
C2021 C 0.88743 0.69665 0.83093 0.0
C2022 C 0.85249 0.71747 0.808 0.0
C2023 C 0.83755 0.71948 0.79539 0.0
C2024 C 0.81899 0.71923 0.80128 0.0
C2025 C 0.81554 0.71367 0.81928 0.0
C2026 C 0.8305 0.71148 0.83185 0.0
H2027 H 0.89928 0.68941 0.83841 0.0
H2028 H 0.87538 0.68619 0.82961 0.0
H2029 H 0.89223 0.7003 0.81713 0.0
H2030 H 0.86662 0.7204 0.80357 0.0
H2031 H 0.84062 0.72356 0.78157 0.0
H2032 H 0.9463 0.00575 0.84279 0.0
H2033 H 0.95766 0.00718 0.87452 0.0
H2034 H 0.90222 0.02279 0.89109 0.0
H2035 H 0.89065 0.02131 0.85929 0.0
H2036 H 0.93615 0.04737 0.90509 0.0
H2037 H 0.94227 0.96671 0.91553 0.0
H2038 H 0.95005 0.97663 0.89436 0.0
H2039 H 0.92557 0.9772 0.8993 0.0
C2040 C 0.93649 0.00941 0.85317 0.0
C2041 C 0.91757 0.01335 0.84858 0.0
C2042 C 0.943 0.0102 0.87127 0.0
C2043 C 0.93073 0.01497 0.88506 0.0
C2044 C 0.91185 0.01902 0.88057 0.0
H2045 H 0.962 -0.00016 -0.00053 0.0
H2046 H 0.94276 0.00424 0.97165 0.0
C2047 C 0.90528 0.01811 0.86245 0.0
C2048 C 0.9378 0.01587 0.90414 0.0
H2049 H 0.95553 0.9873 0.93851 0.0
C2050 C 0.94022 0.03426 0.91252 0.0
C2051 C 0.94293 0.99871 0.91373 0.0
C2052 C 0.94002 0.97862 0.90541 0.0
C2053 C 0.94835 0.03596 0.93013 0.0
C2054 C 0.95415 0.01883 0.93944 0.0
C2055 C 0.95107 0.0004 0.93128 0.0
C2056 C 0.96446 0.01957 0.95722 0.0
C2057 C 0.95085 0.056 0.9386 0.0
C2058 C 0.98284 0.02724 0.95843 0.0
C2059 C 0.99393 0.02468 0.97428 0.0
C2060 C 0.9868 0.01436 0.98914 0.0
C2061 C 0.96794 0.00786 0.98828 0.0
C2062 C 0.95691 0.01032 0.97239 0.0
H2063 H 0.94175 0.06703 0.93165 0.0
H2064 H 0.94759 0.05558 0.95325 0.0
H2065 H 0.96571 0.06084 0.9375 0.0
H2066 H 0.98898 0.0342 0.94677 0.0
H2067 H 0.0084 0.02985 0.9745 0.0
H2068 H 0.76933 0.11989 0.54355 0.0
H2069 H 0.76561 0.12824 0.57572 0.0
H2070 H 0.75428 0.18819 0.5608 0.0
H2071 H 0.75795 0.18019 0.52892 0.0
H2072 H 0.78435 0.15997 0.59824 0.0
H2073 H 0.70711 0.1682 0.58867 0.0
H2074 H 0.7211 0.15474 0.57297 0.0
H2075 H 0.72069 0.18108 0.57222 0.0
C2076 C 0.76629 0.1349 0.54716 0.0
C2077 C 0.76368 0.14931 0.53363 0.0
C2078 C 0.76411 0.1396 0.5655 0.0
C2079 C 0.75927 0.15871 0.57046 0.0
C2080 C 0.75764 0.17328 0.55713 0.0
H2081 H 0.73797 0.23326 0.65923 0.0
H2082 H 0.74058 0.21627 0.63011 0.0
C2083 C 0.7598 0.16865 0.53891 0.0
C2084 C 0.75546 0.16369 0.58948 0.0
H2085 H 0.72117 0.18196 0.61581 0.0
C2086 C 0.77051 0.16444 0.60226 0.0
C2087 C 0.73734 0.16949 0.59453 0.0
C2088 C 0.72057 0.1682 0.58143 0.0
C2089 C 0.7681 0.17191 0.61979 0.0
C2090 C 0.75012 0.17847 0.62459 0.0
C2091 C 0.73493 0.17697 0.61202 0.0
C2092 C 0.74711 0.18812 0.6422 0.0
C2093 C 0.78497 0.17366 0.63273 0.0
C2094 C 0.74937 0.17773 0.65854 0.0
C2095 C 0.74796 0.1874 0.67515 0.0
C2096 C 0.74418 0.2076 0.67568 0.0
C2097 C 0.74111 0.21776 0.65924 0.0
C2098 C 0.74251 0.20807 0.64264 0.0
H2099 H 0.79839 0.1713 0.62579 0.0
H2100 H 0.78552 0.18834 0.63928 0.0
H2101 H 0.78381 0.16248 0.64361 0.0
H2102 H 0.75266 0.16226 0.65843 0.0
H2103 H 0.7506 0.1792 0.68757 0.0
H2104 H 0.65233 0.99739 0.35997 0.0
H2105 H 0.63473 0.99511 0.38811 0.0
H2106 H 0.58437 0.01339 0.35884 0.0
H2107 H 0.60166 0.0157 0.33089 0.0
H2108 H 0.61203 0.02545 0.40547 0.0
H2109 H 0.5706 0.95976 0.38312 0.0
H2110 H 0.59237 0.96699 0.37292 0.0
H2111 H 0.57087 0.97927 0.36671 0.0
C2112 C 0.63754 0.00105 0.35961 0.0
C2113 C 0.62833 0.00659 0.34324 0.0
C2114 C 0.62754 -0.00029 0.37564 0.0
C2115 C 0.60822 0.00373 0.37537 0.0
C2116 C 0.5992 0.00988 0.35919 0.0
H2117 H 0.529 0.03306 0.45505 0.0
H2118 H 0.54917 0.03049 0.42895 0.0
C2119 C 0.60914 0.01128 0.34326 0.0
C2120 C 0.59723 0.00161 0.39191 0.0
H2121 H 0.55925 0.97738 0.40853 0.0
C2122 C 0.60064 0.0148 0.40628 0.0
C2123 C 0.58255 0.98753 0.39293 0.0
C2124 C 0.57894 0.97244 0.37818 0.0
C2125 C 0.5891 0.01488 0.42136 0.0
C2126 C 0.57372 0.00156 0.42185 0.0
C2127 C 0.57089 0.98774 0.40791 0.0
C2128 C 0.56021 0.00212 0.4366 0.0
C2129 C 0.59331 0.02931 0.43656 0.0
C2130 C 0.55912 0.98655 0.44895 0.0
C2131 C 0.54755 0.98792 0.46385 0.0
C2132 C 0.53684 0.00484 0.46651 0.0
C2133 C 0.53711 0.01986 0.45343 0.0
C2134 C 0.54873 0.0185 0.4386 0.0
H2135 H 0.60794 0.03516 0.43622 0.0
H2136 H 0.58354 0.04184 0.43517 0.0
H2137 H 0.59121 0.02239 0.45002 0.0
H2138 H 0.56776 0.97371 0.44746 0.0
H2139 H 0.54761 0.97607 0.47367 0.0
H2140 H 0.73281 0.86831 0.08354 0.0
H2141 H 0.74894 0.87069 0.11324 0.0
H2142 H 0.78882 0.91198 0.09166 0.0
H2143 H 0.77235 0.90998 0.06185 0.0
H2144 H 0.80406 0.876 0.10498 0.0
H2145 H 0.75916 0.90916 0.15599 0.0
H2146 H 0.74553 0.89382 0.1406 0.0
H2147 H 0.75726 0.91532 0.13206 0.0
C2148 C 0.74455 0.87848 0.08532 0.0
C2149 C 0.75139 0.8889 0.07048 0.0
C2150 C 0.75369 0.87997 0.10231 0.0
C2151 C 0.76997 0.89167 0.10466 0.0
C2152 C 0.77612 0.90312 0.09015 0.0
H2153 H 0.82854 0.83268 0.19691 0.0
H2154 H 0.82685 0.85993 0.17504 0.0
C2155 C 0.7667 0.90196 0.07318 0.0
C2156 C 0.78221 0.8883 0.12092 0.0
H2157 H 0.77696 0.87992 0.16604 0.0
C2158 C 0.79873 0.87763 0.11854 0.0
C2159 C 0.77536 0.89066 0.13855 0.0
C2160 C 0.75844 0.90307 0.14197 0.0
C2161 C 0.80679 0.86672 0.13289 0.0
C2162 C 0.79814 0.86678 0.14985 0.0
C2163 C 0.7834 0.87975 0.15288 0.0
C2164 C 0.80046 0.85017 0.16246 0.0
C2165 C 0.82297 0.85332 0.12929 0.0
C2166 C 0.78641 0.83562 0.16223 0.0
C2167 C 0.78722 0.82025 0.17462 0.0
C2168 C 0.8022 0.81904 0.18751 0.0
C2169 C 0.81673 0.83329 0.18725 0.0
C2170 C 0.81584 0.84882 0.17479 0.0
H2171 H 0.82934 0.85647 0.11601 0.0
H2172 H 0.83399 0.85486 0.14027 0.0
H2173 H 0.81789 0.83786 0.12927 0.0
H2174 H 0.77447 0.83645 0.15271 0.0
H2175 H 0.77557 0.80988 0.1746 0.0
H2176 H 0.96501 0.98757 0.76052 0.0
H2177 H 0.9736 0.98284 0.7291 0.0
H2178 H 0.91822 0.00062 0.71054 0.0
H2179 H 0.90928 0.00522 0.74212 0.0
H2180 H 0.93079 0.96563 0.69428 0.0
H2181 H 0.98445 0.02506 0.69122 0.0
H2182 H 0.98812 0.00885 0.71019 0.0
H2183 H 0.96743 0.02378 0.70884 0.0
C2184 C 0.95463 0.99066 0.74982 0.0
C2185 C 0.93643 0.99683 0.75392 0.0
C2186 C 0.95963 0.98801 0.73183 0.0
C2187 C 0.94662 0.9916 0.71751 0.0
C2188 C 0.92848 0.99786 0.72144 0.0
H2189 H 0.95694 0.98145 0.60042 0.0
H2190 H 0.94423 0.98362 0.63079 0.0
C2191 C 0.92343 0.00054 0.73949 0.0
C2192 C 0.95195 0.98818 0.6985 0.0
H2193 H 0.98424 0.00139 0.66739 0.0
C2194 C 0.94235 0.97356 0.6883 0.0
C2195 C 0.96703 0.99855 0.69078 0.0
C2196 C 0.97725 0.01507 0.70075 0.0
C2197 C 0.94786 0.9686 0.67073 0.0
C2198 C 0.96323 0.97868 0.66322 0.0
C2199 C 0.97259 0.99353 0.6733 0.0
C2200 C 0.96985 0.97437 0.64481 0.0
C2201 C 0.93758 0.9523 0.66055 0.0
C2202 C 0.98836 0.96811 0.64262 0.0
C2203 C 0.99565 0.96679 0.62529 0.0
C2204 C 0.9846 0.97186 0.60982 0.0
C2205 C 0.96574 0.97714 0.61201 0.0
C2206 C 0.95845 0.97844 0.62937 0.0
H2207 H 0.92896 0.94317 0.66968 0.0
H2208 H 0.92805 0.95874 0.64995 0.0
H2209 H 0.94765 0.9427 0.65366 0.0
H2210 H 0.99737 0.9649 0.65439 0.0
H2211 H 0.01017 0.96248 0.62403 0.0
H2212 H 0.78102 0.11235 0.42296 0.0
H2213 H 0.78301 0.13006 0.39389 0.0
H2214 H 0.76253 0.18229 0.41927 0.0
H2215 H 0.76051 0.16495 0.44806 0.0
H2216 H 0.75236 0.15566 0.37369 0.0
H2217 H 0.81744 0.19436 0.39872 0.0
H2218 H 0.80973 0.17116 0.40793 0.0
H2219 H 0.79852 0.19347 0.41434 0.0
C2220 C 0.77668 0.12751 0.42221 0.0
C2221 C 0.77079 0.13734 0.43779 0.0
C2222 C 0.77784 0.13757 0.40567 0.0
C2223 C 0.77314 0.15748 0.40464 0.0
C2224 C 0.76639 0.16696 0.41993 0.0
H2225 H 0.75169 0.24391 0.32268 0.0
H2226 H 0.75159 0.22147 0.34862 0.0
C2227 C 0.76524 0.15701 0.43635 0.0
C2228 C 0.77611 0.16899 0.38802 0.0
H2229 H 0.802 0.20743 0.3723 0.0
C2230 C 0.76334 0.16681 0.37321 0.0
C2231 C 0.79056 0.18335 0.38749 0.0
C2232 C 0.80498 0.18571 0.40289 0.0
C2233 C 0.76419 0.17932 0.35811 0.0
C2234 C 0.77799 0.19445 0.35808 0.0
C2235 C 0.79128 0.19598 0.37252 0.0
C2236 C 0.77869 0.20901 0.34326 0.0
C2237 C 0.75028 0.17633 0.34237 0.0
C2238 C 0.79441 0.21009 0.33233 0.0
C2239 C 0.7946 0.22299 0.3176 0.0
C2240 C 0.7791 0.2351 0.31368 0.0
C2241 C 0.76384 0.23478 0.32533 0.0
C2242 C 0.76365 0.22181 0.34002 0.0
H2243 H 0.74404 0.16131 0.34234 0.0
H2244 H 0.73868 0.18696 0.34348 0.0
H2245 H 0.75706 0.17886 0.32918 0.0
H2246 H 0.80625 0.20048 0.3348 0.0
H2247 H 0.80659 0.22292 0.30891 0.0
H2248 H 0.65165 0.01315 0.23943 0.0
H2249 H 0.64652 0.01993 0.20683 0.0
H2250 H 0.59004 0.03849 0.21676 0.0
H2251 H 0.59488 0.03186 0.24902 0.0
H2252 H 0.61723 0.00516 0.18171 0.0
H2253 H 0.61435 0.0857 0.19035 0.0
H2254 H 0.6246 0.06968 0.20746 0.0
H2255 H 0.5995 0.07266 0.20559 0.0
C2256 C 0.63809 0.0185 0.23463 0.0
C2257 C 0.62375 0.02217 0.24688 0.0
C2258 C 0.63523 0.02245 0.21605 0.0
C2259 C 0.61809 0.0302 0.20957 0.0
C2260 C 0.60355 0.03301 0.22162 0.0
H2261 H 0.54681 0.05336 0.12073 0.0
H2262 H 0.56515 0.05213 0.14946 0.0
C2263 C 0.60633 0.02908 0.24006 0.0
C2264 C 0.61489 0.03519 0.19019 0.0
H2265 H 0.59964 0.0726 0.16284 0.0
C2266 C 0.61384 0.01995 0.1774 0.0
C2267 C 0.61058 0.05455 0.18471 0.0
C2268 C 0.61249 0.07163 0.19771 0.0
C2269 C 0.60716 0.02334 0.15952 0.0
C2270 C 0.60165 0.0425 0.15439 0.0
C2271 C 0.60382 0.05794 0.16689 0.0
C2272 C 0.59156 0.04621 0.13689 0.0
C2273 C 0.60486 0.00622 0.1466 0.0
C2274 C 0.60056 0.04409 0.12036 0.0
C2275 C 0.59012 0.04478 0.10394 0.0
C2276 C 0.57054 0.04758 0.10387 0.0
C2277 C 0.56184 0.05098 0.12042 0.0
C2278 C 0.57229 0.05035 0.13679 0.0
H2279 H 0.60756 0.99195 0.15344 0.0
H2280 H 0.59042 0.00586 0.14035 0.0
H2281 H 0.61491 0.0079 0.13547 0.0
H2282 H 0.61548 0.04108 0.12022 0.0
H2283 H 0.59719 0.04196 0.09142 0.0
H2284 H 0.71922 0.87648 0.95715 0.0
H2285 H 0.71337 0.84952 0.93593 0.0
H2286 H 0.71046 0.8089 0.98073 0.0
H2287 H 0.71659 0.83593 0.00217 0.0
H2288 H 0.73529 0.79768 0.95632 0.0
H2289 H 0.66913 0.81567 0.91941 0.0
H2290 H 0.68421 0.83691 0.92034 0.0
H2291 H 0.67573 0.82659 0.94114 0.0
C2292 C 0.71701 0.86187 0.96252 0.0
C2293 C 0.71852 0.85827 0.98129 0.0
C2294 C 0.71341 0.84649 0.95038 0.0
C2295 C 0.7111 0.82724 0.95677 0.0
C2296 C 0.71197 0.82368 0.97556 0.0
H2297 H 0.71295 0.75101 0.85984 0.0
H2298 H 0.70209 0.75958 0.89028 0.0
C2299 C 0.71555 0.83911 0.98775 0.0
C2300 C 0.71074 0.81085 0.9436 0.0
H2301 H 0.69301 0.79916 0.9013 0.0
C2302 C 0.72563 0.79752 0.94458 0.0
C2303 C 0.69793 0.81028 0.92847 0.0
C2304 C 0.68074 0.82302 0.92741 0.0
C2305 C 0.72937 0.78537 0.92982 0.0
C2306 C 0.71808 0.78684 0.91373 0.0
C2307 C 0.70185 0.79833 0.91358 0.0
C2308 C 0.72498 0.78002 0.89617 0.0
C2309 C 0.74622 0.77215 0.93106 0.0
C2310 C 0.74127 0.78883 0.88951 0.0
C2311 C 0.74729 0.78419 0.87227 0.0
C2312 C 0.73714 0.77064 0.86134 0.0
C2313 C 0.72102 0.76146 0.86811 0.0
C2314 C 0.71483 0.76631 0.8854 0.0
H2315 H 0.74927 0.76754 0.94533 0.0
H2316 H 0.74402 0.75888 0.92245 0.0
H2317 H 0.75874 0.78026 0.92629 0.0
H2318 H 0.74908 0.79973 0.8975 0.0
H2319 H 0.75985 0.79133 0.86741 0.0
H2320 H 0.8013 0.84731 0.02087 0.0
H2321 H 0.83416 0.85704 0.02662 0.0
H2322 H 0.82465 0.91082 0.99712 0.0
H2323 H 0.79177 0.90137 0.99139 0.0
H2324 H 0.86627 0.87308 0.0049 0.0
H2325 H 0.83453 0.92543 0.05268 0.0
H2326 H 0.82168 0.90469 0.04308 0.0
H2327 H 0.82515 0.92638 0.0297 0.0
C2328 C 0.80634 0.86086 0.01498 0.0
C2329 C 0.79383 0.87378 0.006 0.0
C2330 C 0.82512 0.86641 0.01835 0.0
C2331 C 0.83159 0.88482 0.01266 0.0
C2332 C 0.81975 0.89667 0.00185 0.0
H2333 H 0.92352 0.96327 0.02988 0.0
H2334 H 0.89417 0.94585 0.02262 0.0
C2335 C 0.80099 0.89121 -0.00145 0.0
C2336 C 0.84955 0.89292 0.02014 0.0
H2337 H 0.86723 0.92905 0.04816 0.0
C2338 C 0.86656 0.88519 0.01448 0.0
C2339 C 0.84975 0.90852 0.03284 0.0
C2340 C 0.83182 0.91667 0.0401 0.0
C2341 C 0.88388 0.89336 0.02058 0.0
C2342 C 0.884 0.90943 0.03274 0.0
C2343 C 0.867 0.91672 0.03882 0.0
C2344 C 0.90153 0.91998 0.03816 0.0
C2345 C 0.90189 0.8853 0.01351 0.0
C2346 C 0.91514 0.91134 0.04974 0.0
C2347 C 0.93191 0.92142 0.05421 0.0
C2348 C 0.93528 0.94028 0.04714 0.0
C2349 C 0.92129 0.94899 0.03593 0.0
C2350 C 0.90457 0.93897 0.03157 0.0
H2351 H 0.89925 0.87442 0.00243 0.0
H2352 H 0.91083 0.89739 0.00834 0.0
H2353 H 0.90989 0.87803 0.02478 0.0
H2354 H 0.91284 0.89678 0.05517 0.0
H2355 H 0.9423 0.91438 0.06302 0.0
H2356 H 0.31043 0.56358 0.9883 0.0
H2357 H 0.34009 0.54562 0.99086 0.0
H2358 H 0.36709 0.59614 0.01628 0.0
H2359 H 0.33788 0.61437 0.01268 0.0
H2360 H 0.38764 0.58374 0.99104 0.0
H2361 H 0.36713 0.51902 0.03166 0.0
H2362 H 0.35315 0.52134 0.01105 0.0
H2363 H 0.35196 0.53983 0.02845 0.0
C2364 C 0.32267 0.57066 0.99468 0.0
C2365 C 0.32196 0.59032 0.00028 0.0
C2366 C 0.33958 0.56037 0.99624 0.0
C2367 C 0.35584 0.56942 0.00396 0.0
C2368 C 0.35481 0.58883 0.01021 0.0
H2369 H 0.45961 0.51661 0.04072 0.0
H2370 H 0.42768 0.52896 0.03662 0.0
C2371 C 0.33811 0.59924 0.00821 0.0
C2372 C 0.37432 0.55942 0.00442 0.0
H2373 H 0.39727 0.51817 0.01865 0.0
C2374 C 0.38974 0.56942 0.99717 0.0
C2375 C 0.37712 0.54077 0.01246 0.0
C2376 C 0.3615 0.5297 0.02151 0.0
C2377 C 0.40788 0.56162 -0.0019 0.0
C2378 C 0.41061 0.54273 0.00569 0.0
C2379 C 0.39515 0.53254 0.01265 0.0
C2380 C 0.42959 0.53392 0.00766 0.0
C2381 C 0.424 0.57415 0.99168 0.0
C2382 C 0.44121 0.53213 0.99268 0.0
C2383 C 0.45968 0.52556 0.99509 0.0
C2384 C 0.46662 0.52003 0.01242 0.0
C2385 C 0.45464 0.52079 0.0272 0.0
C2386 C 0.43636 0.5278 0.02486 0.0
H2387 H 0.42036 0.58995 0.99137 0.0
H2388 H 0.43679 0.57236 0.00058 0.0
H2389 H 0.42736 0.56978 0.97764 0.0
H2390 H 0.43611 0.53612 0.97917 0.0
H2391 H 0.46855 0.52484 0.98342 0.0
H2392 H 0.19213 0.5504 0.80305 0.0
H2393 H 0.21233 0.57823 0.79557 0.0
H2394 H 0.16477 0.61677 0.79733 0.0
H2395 H 0.14449 0.58915 0.80508 0.0
H2396 H 0.20753 0.59987 0.76445 0.0
H2397 H 0.20527 0.64819 0.82482 0.0
H2398 H 0.19801 0.62274 0.82535 0.0
H2399 H 0.18224 0.64108 0.81635 0.0
C2400 C 0.18602 0.56486 0.80228 0.0
C2401 C 0.16663 0.5675 0.80458 0.0
C2402 C 0.1976 0.58074 0.79795 0.0
C2403 C 0.19007 0.59956 0.79596 0.0
C2404 C 0.17095 0.60243 0.79911 0.0
H2405 H 0.2191 0.7113 0.75308 0.0
H2406 H 0.20407 0.68042 0.76148 0.0
C2407 C 0.15935 0.58658 0.80351 0.0
C2408 C 0.20171 0.61581 0.7889 0.0
H2409 H 0.21547 0.66312 0.79727 0.0
C2410 C 0.20951 0.61362 0.77172 0.0
C2411 C 0.20428 0.63368 0.79844 0.0
C2412 C 0.19717 0.63653 0.81734 0.0
C2413 C 0.21918 0.62915 0.76352 0.0
C2414 C 0.22108 0.64721 0.77278 0.0
C2415 C 0.21377 0.64924 0.79015 0.0
C2416 C 0.23011 0.66453 0.7646 0.0
C2417 C 0.22672 0.62646 0.74478 0.0
C2418 C 0.24969 0.6655 0.76291 0.0
C2419 C 0.25838 0.68317 0.75806 0.0
C2420 C 0.24756 0.70008 0.75499 0.0
C2421 C 0.22784 0.69857 0.75544 0.0
C2422 C 0.21922 0.68097 0.76029 0.0
H2423 H 0.22197 0.61236 0.73848 0.0
H2424 H 0.22217 0.63871 0.73577 0.0
H2425 H 0.24233 0.6267 0.74568 0.0
H2426 H 0.2583 0.65295 0.76632 0.0
H2427 H 0.27359 0.68388 0.75792 0.0
H2428 H 0.22995 0.43281 0.53543 0.0
H2429 H 0.20375 0.45518 0.5392 0.0
H2430 H 0.16474 0.40629 0.53566 0.0
H2431 H 0.19074 0.3839 0.53232 0.0
H2432 H 0.17917 0.45831 0.5107 0.0
H2433 H 0.13975 0.44035 0.57206 0.0
H2434 H 0.16361 0.4324 0.56918 0.0
H2435 H 0.1441 0.41875 0.55904 0.0
C2436 C 0.21586 0.42674 0.53627 0.0
C2437 C 0.21234 0.40666 0.53325 0.0
C2438 C 0.20091 0.43956 0.53835 0.0
C2439 C 0.18231 0.43242 0.53761 0.0
C2440 C 0.17897 0.41213 0.53654 0.0
H2441 H 0.07452 0.46861 0.498 0.0
H2442 H 0.10549 0.4536 0.50271 0.0
C2443 C 0.19389 0.39932 0.53453 0.0
C2444 C 0.16648 0.44601 0.53444 0.0
H2445 H 0.12193 0.45577 0.54732 0.0
C2446 C 0.16682 0.45807 0.51894 0.0
C2447 C 0.15034 0.44557 0.54512 0.0
C2448 C 0.1495 0.4337 0.56238 0.0
C2449 C 0.15108 0.46902 0.51341 0.0
C2450 C 0.13471 0.46777 0.52358 0.0
C2451 C 0.13455 0.45638 0.53945 0.0
C2452 C 0.11746 0.4781 0.51797 0.0
C2453 C 0.15173 0.48142 0.49648 0.0
C2454 C 0.11443 0.49706 0.5244 0.0
C2455 C 0.09688 0.50566 0.52171 0.0
C2456 C 0.08211 0.49534 0.5126 0.0
C2457 C 0.08566 0.47693 0.50496 0.0
C2458 C 0.10325 0.46829 0.50774 0.0
H2459 H 0.16567 0.48101 0.49014 0.0
H2460 H 0.1408 0.47619 0.48642 0.0
H2461 H 0.14847 0.49687 0.49984 0.0
H2462 H 0.12533 0.50477 0.53229 0.0
H2463 H 0.09455 0.51991 0.52769 0.0
H2464 H 0.87046 0.95703 0.79315 0.0
H2465 H 0.85415 0.92547 0.79095 0.0
H2466 H 0.89657 0.89962 0.82641 0.0
H2467 H 0.91336 0.93112 0.82833 0.0
H2468 H 0.88934 0.87728 0.79688 0.0
H2469 H 0.82205 0.89756 0.82693 0.0
H2470 H 0.82783 0.91347 0.80849 0.0
H2471 H 0.84275 0.91307 0.82877 0.0
C2472 C 0.87624 0.94473 0.8007 0.0
C2473 C 0.89323 0.94665 0.81096 0.0
C2474 C 0.86681 0.92669 0.7995 0.0
C2475 C 0.87396 0.91025 0.80876 0.0
C2476 C 0.89076 0.91214 0.81922 0.0
H2477 H 0.80707 0.80261 0.81399 0.0
H2478 H 0.82589 0.83177 0.82179 0.0
C2479 C 0.90031 0.93017 0.82032 0.0
C2480 C 0.86442 0.89089 0.80664 0.0
H2481 H 0.82172 0.86794 0.8093 0.0
C2482 C 0.87461 0.87516 0.79979 0.0
C2483 C 0.84528 0.88803 0.81071 0.0
C2484 C 0.8339 0.90388 0.81932 0.0
C2485 C 0.86601 0.85684 0.79631 0.0
C2486 C 0.84657 0.85437 0.79931 0.0
C2487 C 0.83656 0.8699 0.80675 0.0
C2488 C 0.83623 0.83591 0.79471 0.0
C2489 C 0.87788 0.84031 0.7896 0.0
C2490 C 0.83579 0.82848 0.77688 0.0
C2491 C 0.82518 0.81166 0.77241 0.0
C2492 C 0.81455 0.80217 0.78563 0.0
C2493 C 0.81507 0.80961 0.80348 0.0
C2494 C 0.82582 0.82628 0.80797 0.0
H2495 H 0.89297 0.84257 0.79352 0.0
H2496 H 0.87315 0.82595 0.79504 0.0
H2497 H 0.87669 0.83972 0.77453 0.0
H2498 H 0.84331 0.83595 0.76631 0.0
H2499 H 0.82495 0.80638 0.75851 0.0
H2500 H 0.72533 0.07859 0.49218 0.0
H2501 H 0.6961 0.06153 0.49943 0.0
H2502 H 0.66401 0.10802 0.47415 0.0
H2503 H 0.69301 0.12502 0.46659 0.0
H2504 H 0.6697 0.07693 0.52182 0.0
H2505 H 0.6368 0.05944 0.45438 0.0
H2506 H 0.6614 0.06597 0.45738 0.0
H2507 H 0.6438 0.08474 0.45635 0.0
C2508 C 0.71208 0.08497 0.48775 0.0
C2509 C 0.71156 0.10325 0.47886 0.0
C2510 C 0.69538 0.07522 0.49198 0.0
C2511 C 0.67789 0.08343 0.48723 0.0
C2512 C 0.67734 0.10122 0.47766 0.0
H2513 H 0.56166 0.07066 0.51148 0.0
H2514 H 0.59324 0.08193 0.50421 0.0
C2515 C 0.69398 0.11098 0.47344 0.0
C2516 C 0.66025 0.07454 0.49375 0.0
H2517 H 0.6163 0.05918 0.47963 0.0
C2518 C 0.65811 0.07276 0.5126 0.0
C2519 C 0.64515 0.06915 0.48169 0.0
C2520 C 0.64694 0.06973 0.46132 0.0
C2521 C 0.64099 0.06649 0.51972 0.0
C2522 C 0.62574 0.06178 0.50767 0.0
C2523 C 0.62802 0.06303 0.48883 0.0
C2524 C 0.60711 0.05583 0.51424 0.0
C2525 C 0.63909 0.06558 0.54007 0.0
C2526 C 0.60457 0.03763 0.52272 0.0
C2527 C 0.58652 0.03111 0.52693 0.0
C2528 C 0.57072 0.0427 0.52265 0.0
C2529 C 0.57349 0.06138 0.51501 0.0
C2530 C 0.59152 0.06782 0.51074 0.0
H2531 H 0.65112 0.07285 0.54749 0.0
H2532 H 0.62584 0.07263 0.54405 0.0
H2533 H 0.63848 0.05001 0.54441 0.0
H2534 H 0.61644 0.02811 0.52537 0.0
H2535 H 0.58487 0.01662 0.53274 0.0
H2536 H 0.15517 0.44002 0.79031 0.0
H2537 H 0.17357 0.4101 0.78792 0.0
H2538 H 0.2243 0.44481 0.78373 0.0
H2539 H 0.20603 0.47486 0.78621 0.0
H2540 H 0.19797 0.39815 0.75998 0.0
H2541 H 0.23526 0.40719 0.82721 0.0
H2542 H 0.2143 0.42061 0.8209 0.0
H2543 H 0.23657 0.42784 0.8121 0.0
C2544 C 0.17022 0.44131 0.78876 0.0
C2545 C 0.17918 0.45978 0.78855 0.0
C2546 C 0.1807 0.42421 0.78742 0.0
C2547 C 0.20029 0.4253 0.78597 0.0
C2548 C 0.20922 0.44371 0.78518 0.0
H2549 H 0.2716 0.32859 0.7568 0.0
H2550 H 0.25744 0.36084 0.75984 0.0
C2551 C 0.19874 0.46084 0.78647 0.0
C2552 C 0.21133 0.4071 0.78537 0.0
H2553 H 0.24425 0.38039 0.80912 0.0
C2554 C 0.20813 0.39427 0.77068 0.0
C2555 C 0.2244 0.40205 0.79949 0.0
C2556 C 0.2278 0.41503 0.81592 0.0
C2557 C 0.21775 0.37649 0.76965 0.0
C2558 C 0.23104 0.37159 0.78361 0.0
C2559 C 0.23416 0.38434 0.79838 0.0
C2560 C 0.24138 0.35295 0.78323 0.0
C2561 C 0.21336 0.3629 0.75384 0.0
C2562 C 0.23763 0.33817 0.7959 0.0
C2563 C 0.24573 0.3197 0.79425 0.0
C2564 C 0.25773 0.3158 0.77992 0.0
C2565 C 0.26228 0.33105 0.7679 0.0
C2566 C 0.25418 0.34947 0.76956 0.0
H2567 H 0.20014 0.36694 0.74633 0.0
H2568 H 0.22502 0.36364 0.74421 0.0
H2569 H 0.21205 0.34749 0.75856 0.0
H2570 H 0.22784 0.34068 0.8066 0.0
H2571 H 0.242 0.30829 0.80376 0.0
H2572 H 0.34374 0.53333 0.27999 0.0
H2573 H 0.32428 0.5626 0.27662 0.0
H2574 H 0.37403 0.59927 0.28092 0.0
H2575 H 0.39359 0.57014 0.28434 0.0
H2576 H 0.32417 0.59337 0.3041 0.0
H2577 H 0.34327 0.62079 0.23596 0.0
H2578 H 0.34684 0.59568 0.24301 0.0
H2579 H 0.36282 0.61465 0.25096 0.0
C2580 C 0.35058 0.54761 0.27985 0.0
C2581 C 0.3702 0.54945 0.28245 0.0
C2582 C 0.33943 0.56429 0.27801 0.0
C2583 C 0.34775 0.58304 0.27848 0.0
C2584 C 0.36738 0.5849 0.28033 0.0
H2585 H 0.30495 0.69766 0.30311 0.0
H2586 H 0.31963 0.66531 0.30448 0.0
C2587 C 0.37852 0.56825 0.28231 0.0
C2588 C 0.33589 0.60071 0.27833 0.0
H2589 H 0.32616 0.64241 0.25439 0.0
C2590 C 0.32446 0.60405 0.29318 0.0
C2591 C 0.33628 0.61449 0.26402 0.0
C2592 C 0.34783 0.61123 0.24748 0.0
C2593 C 0.31373 0.62113 0.29431 0.0
C2594 C 0.31459 0.63521 0.28027 0.0
C2595 C 0.32565 0.63162 0.2652 0.0
C2596 C 0.30419 0.65385 0.28086 0.0
C2597 C 0.3015 0.62398 0.31043 0.0
C2598 C 0.29052 0.65797 0.26729 0.0
C2599 C 0.28213 0.67635 0.26647 0.0
C2600 C 0.28739 0.69106 0.27915 0.0
C2601 C 0.30054 0.68663 0.29321 0.0
C2602 C 0.30892 0.66816 0.29402 0.0
H2603 H 0.2991 0.61001 0.31783 0.0
H2604 H 0.30851 0.63452 0.32003 0.0
H2605 H 0.28767 0.63012 0.30609 0.0
H2606 H 0.2867 0.64711 0.25702 0.0
H2607 H 0.27201 0.67923 0.25548 0.0
H2608 H 0.53528 0.67829 0.6675 0.0
H2609 H 0.52432 0.64453 0.66238 0.0
H2610 H 0.56553 0.6374 0.62129 0.0
H2611 H 0.57643 0.6711 0.62614 0.0
H2612 H 0.50968 0.63584 0.62678 0.0
H2613 H 0.56528 0.58364 0.64761 0.0
H2614 H 0.56358 0.60784 0.65749 0.0
H2615 H 0.57453 0.60462 0.63601 0.0
C2616 C 0.54245 0.66931 0.65781 0.0
C2617 C 0.55659 0.67738 0.64704 0.0
C2618 C 0.53616 0.65004 0.65494 0.0
C2619 C 0.54421 0.63848 0.64158 0.0
C2620 C 0.55935 0.64599 0.6319 0.0
H2621 H 0.52452 0.57613 0.55172 0.0
H2622 H 0.52548 0.59864 0.57757 0.0
C2623 C 0.56547 0.66531 0.63456 0.0
C2624 C 0.53479 0.62029 0.63506 0.0
H2625 H 0.5452 0.57404 0.62145 0.0
C2626 C 0.51711 0.62206 0.62616 0.0
C2627 C 0.54441 0.60233 0.63442 0.0
C2628 C 0.56293 0.5994 0.64457 0.0
C2629 C 0.50984 0.60703 0.61491 0.0
C2630 C 0.52051 0.58995 0.61265 0.0
C2631 C 0.53713 0.58729 0.62314 0.0
C2632 C 0.51683 0.57681 0.59703 0.0
C2633 C 0.49154 0.6101 0.60439 0.0
C2634 C 0.51135 0.55721 0.59948 0.0
C2635 C 0.51052 0.54436 0.58464 0.0
C2636 C 0.51565 0.55092 0.56735 0.0
C2637 C 0.52051 0.57072 0.5649 0.0
C2638 C 0.52099 0.58358 0.57961 0.0
H2639 H 0.48268 0.6211 0.6111 0.0
H2640 H 0.49459 0.61556 0.59058 0.0
H2641 H 0.4835 0.5961 0.60291 0.0
H2642 H 0.50828 0.55177 0.6129 0.0
H2643 H 0.50689 0.5291 0.58689 0.0
H2644 H 0.56028 0.24488 0.83446 0.0
H2645 H 0.58948 0.2403 0.81817 0.0
H2646 H 0.62193 0.25398 0.86719 0.0
H2647 H 0.59294 0.2584 0.88353 0.0
H2648 H 0.61856 0.26739 0.81267 0.0
H2649 H 0.64579 0.2031 0.85084 0.0
H2650 H 0.62169 0.21092 0.85194 0.0
H2651 H 0.63996 0.22324 0.86522 0.0
C2652 C 0.57364 0.24673 0.84181 0.0
C2653 C 0.57423 0.25191 0.86035 0.0
C2654 C 0.59033 0.24415 0.83246 0.0
C2655 C 0.60797 0.24649 0.84149 0.0
C2656 C 0.60856 0.25165 0.85999 0.0
H2657 H 0.72563 0.24854 0.81605 0.0
H2658 H 0.69482 0.24872 0.82974 0.0
C2659 C 0.59192 0.25428 0.86931 0.0
C2660 C 0.62577 0.24431 0.8315 0.0
H2661 H 0.66749 0.21978 0.83206 0.0
C2662 C 0.62917 0.25683 0.81677 0.0
C2663 C 0.63967 0.23056 0.83684 0.0
C2664 C 0.63657 0.21605 0.85196 0.0
C2665 C 0.64631 0.25647 0.80771 0.0
C2666 C 0.66036 0.24294 0.81327 0.0
C2667 C 0.65679 0.23018 0.82779 0.0
C2668 C 0.6791 0.24229 0.80471 0.0
C2669 C 0.6495 0.2711 0.79271 0.0
C2670 C 0.68068 0.23826 0.78608 0.0
C2671 C 0.69836 0.23816 0.77816 0.0
C2672 C 0.71489 0.24198 0.78872 0.0
C2673 C 0.71326 0.24557 0.80745 0.0
C2674 C 0.69561 0.24567 0.81534 0.0
H2675 H 0.63943 0.28342 0.79308 0.0
H2676 H 0.66404 0.27721 0.79366 0.0
H2677 H 0.64753 0.26365 0.77936 0.0
H2678 H 0.66822 0.23518 0.77764 0.0
H2679 H 0.69906 0.23525 0.76372 0.0
H2680 H 0.02678 0.28732 0.10891 0.0
H2681 H 0.0351 0.31976 0.09756 0.0
H2682 H 0.04646 0.33988 0.15248 0.0
H2683 H 0.03796 0.30734 0.16405 0.0
H2684 H 0.02444 0.36521 0.13186 0.0
H2685 H 0.08749 0.34467 0.09465 0.0
H2686 H 0.06772 0.32912 0.08867 0.0
H2687 H 0.07734 0.32903 0.11164 0.0
C2688 C 0.03106 0.29863 0.11859 0.0
C2689 C 0.03177 0.29482 0.13735 0.0
C2690 C 0.036 0.31708 0.11208 0.0
C2691 C 0.04186 0.332 0.12417 0.0
C2692 C 0.04222 0.32841 0.14295 0.0
H2693 H 0.07509 0.44395 0.0738 0.0
H2694 H 0.07699 0.41497 0.09355 0.0
C2695 C 0.03726 0.3099 0.14951 0.0
C2696 C 0.04642 0.35162 0.11702 0.0
H2697 H 0.07185 0.37437 0.08452 0.0
C2698 C 0.03507 0.36735 0.1218 0.0
C2699 C 0.06058 0.35446 0.10422 0.0
C2700 C 0.07411 0.33846 0.09965 0.0
C2701 C 0.03649 0.38546 0.11296 0.0
C2702 C 0.04935 0.38765 0.09885 0.0
C2703 C 0.06177 0.37247 0.09513 0.0
C2704 C 0.04872 0.40479 0.08667 0.0
C2705 C 0.02377 0.40188 0.11835 0.0
C2706 C 0.03242 0.40819 0.07594 0.0
C2707 C 0.03129 0.42459 0.06473 0.0
C2708 C 0.04651 0.43786 0.06395 0.0
C2709 C 0.06309 0.43407 0.07428 0.0
C2710 C 0.06422 0.41756 0.08551 0.0
H2711 H 0.01926 0.40012 0.13258 0.0
H2712 H 0.03086 0.41638 0.11701 0.0
H2713 H 0.01096 0.4017 0.10931 0.0
H2714 H 0.02046 0.39824 0.07642 0.0
H2715 H 0.01825 0.42721 0.05713 0.0
H2716 H 0.97697 0.74609 0.35508 0.0
H2717 H 0.94712 0.74504 0.33741 0.0
H2718 H 0.92976 0.79796 0.36399 0.0
H2719 H 0.95902 0.79834 0.38234 0.0
H2720 H 0.90244 0.77395 0.36406 0.0
H2721 H 0.92802 0.77321 0.29397 0.0
H2722 H 0.93707 0.753 0.30699 0.0
H2723 H 0.94355 0.77775 0.31343 0.0
C2724 C 0.96689 0.75766 0.3569 0.0
C2725 C 0.97037 0.77231 0.37009 0.0
C2726 C 0.94982 0.75713 0.34671 0.0
C2727 C 0.93611 0.77159 0.34907 0.0
C2728 C 0.93995 0.78657 0.36185 0.0
H2729 H 0.83776 0.7873 0.2761 0.0
H2730 H 0.8684 0.78941 0.29219 0.0
C2731 C 0.95676 0.78683 0.37231 0.0
C2732 C 0.9173 0.77058 0.33923 0.0
H2733 H 0.89553 0.76526 0.29729 0.0
C2734 C 0.901 0.7722 0.34943 0.0
C2735 C 0.9152 0.76854 0.32008 0.0
C2736 C 0.9319 0.76824 0.30797 0.0
C2737 C 0.88287 0.77182 0.34116 0.0
C2738 C 0.88073 0.76883 0.32212 0.0
C2739 C 0.89702 0.76732 0.31189 0.0
C2740 C 0.86183 0.76763 0.31251 0.0
C2741 C 0.86627 0.7753 0.35296 0.0
C2742 C 0.84778 0.75462 0.31838 0.0
C2743 C 0.83005 0.75375 0.30943 0.0
C2744 C 0.82612 0.76545 0.29406 0.0
C2745 C 0.8403 0.77813 0.28793 0.0
C2746 C 0.85788 0.77929 0.2971 0.0
H2747 H 0.87048 0.78372 0.36541 0.0
H2748 H 0.85499 0.78345 0.34552 0.0
H2749 H 0.86046 0.76098 0.35738 0.0
H2750 H 0.85054 0.74493 0.32978 0.0
H2751 H 0.81956 0.74359 0.31433 0.0
H2752 H 0.53192 0.33038 0.8838 0.0
H2753 H 0.52977 0.36161 0.9004 0.0
H2754 H 0.51539 0.33001 0.94883 0.0
H2755 H 0.51771 0.29905 0.93259 0.0
H2756 H 0.49965 0.3784 0.92006 0.0
H2757 H 0.56153 0.36291 0.96544 0.0
H2758 H 0.55642 0.3493 0.94477 0.0
H2759 H 0.54406 0.34368 0.96509 0.0
C2760 C 0.52821 0.33015 0.89796 0.0
C2761 C 0.52516 0.31222 0.90691 0.0
C2762 C 0.52699 0.34797 0.90742 0.0
C2763 C 0.52279 0.34811 0.92596 0.0
C2764 C 0.51906 0.33026 0.93466 0.0
H2765 H 0.5122 0.43269 0.01306 0.0
H2766 H 0.51208 0.40341 0.99369 0.0
C2767 C 0.52031 0.31254 0.92529 0.0
C2768 C 0.5225 0.36673 0.93648 0.0
H2769 H 0.54241 0.3896 0.97388 0.0
C2770 C 0.50909 0.38096 0.93172 0.0
C2771 C 0.53483 0.37004 0.95172 0.0
C2772 C 0.55015 0.35577 0.95699 0.0
C2773 C 0.50731 0.39812 0.94215 0.0
C2774 C 0.51943 0.40123 0.95759 0.0
C2775 C 0.533 0.38712 0.96216 0.0
C2776 C 0.51852 0.41914 0.96909 0.0
C2777 C 0.49214 0.41252 0.93686 0.0
C2778 C 0.52227 0.4377 0.96173 0.0
C2779 C 0.52237 0.45442 0.97276 0.0
C2780 C 0.51882 0.45297 0.99143 0.0
C2781 C 0.51493 0.43436 -0.00125 0.0
C2782 C 0.51488 0.41761 0.98769 0.0
H2783 H 0.48112 0.40574 0.92772 0.0
H2784 H 0.48536 0.41837 0.94907 0.0
H2785 H 0.49851 0.42503 0.92953 0.0
H2786 H 0.52549 0.43922 0.94752 0.0
H2787 H 0.52549 0.46849 0.96664 0.0
H2788 H 0.01762 0.21867 0.20814 0.0
H2789 H 0.99415 0.20469 0.22848 0.0
H2790 H 0.95271 0.2049 0.18425 0.0
H2791 H 0.97574 0.2187 0.16416 0.0
H2792 H 0.96144 0.22411 0.23623 0.0
H2793 H 0.94267 0.15186 0.20728 0.0
H2794 H 0.96475 0.16412 0.20288 0.0
H2795 H 0.9438 0.16966 0.18942 0.0
C2796 C 0.00357 0.21537 0.20277 0.0
C2797 C 0.99841 0.21993 0.18466 0.0
C2798 C 0.99025 0.20732 0.21434 0.0
C2799 C 0.97182 0.20336 0.20776 0.0
C2800 C 0.96697 0.20729 0.1895 0.0
H2801 H 0.86197 0.21556 0.21402 0.0
H2802 H 0.89424 0.20542 0.20949 0.0
C2803 C 0.9801 0.21548 0.17809 0.0
C2804 C 0.95659 0.1981 0.22009 0.0
H2805 H 0.91626 0.17059 0.21954 0.0
C2806 C 0.95186 0.21196 0.23321 0.0
C2807 C 0.94425 0.18213 0.21623 0.0
C2808 C 0.94927 0.166 0.20331 0.0
C2809 C 0.93401 0.21173 0.24073 0.0
C2810 C 0.9208 0.1971 0.23509 0.0
C2811 C 0.92636 0.18193 0.22364 0.0
C2812 C 0.90052 0.1996 0.23795 0.0
C2813 C 0.92875 0.22828 0.25314 0.0
C2814 C 0.89322 0.19901 0.2554 0.0
C2815 C 0.87472 0.20479 0.25803 0.0
C2816 C 0.86328 0.21121 0.24324 0.0
C2817 C 0.87033 0.21057 0.22566 0.0
C2818 C 0.88879 0.20481 0.22306 0.0
H2819 H 0.94029 0.23928 0.25509 0.0
H2820 H 0.91608 0.23585 0.24751 0.0
H2821 H 0.92529 0.22229 0.26665 0.0
H2822 H 0.90203 0.1948 0.26701 0.0
H2823 H 0.86953 0.20475 0.2717 0.0
H2824 H 0.04372 0.7017 0.39838 0.0
H2825 H 0.04675 0.66769 0.40939 0.0
H2826 H 0.00345 0.67787 0.44778 0.0
H2827 H 0.00021 0.71128 0.43696 0.0
H2828 H 0.05602 0.65509 0.44555 0.0
H2829 H 0.98586 0.62685 0.42306 0.0
H2830 H 0.99599 0.64902 0.41393 0.0
H2831 H 0.98444 0.6495 0.43533 0.0
C2832 C 0.03471 0.69658 0.409 0.0
C2833 C 0.02174 0.70931 0.41675 0.0
C2834 C 0.03649 0.67718 0.41532 0.0
C2835 C 0.02513 0.67015 0.42925 0.0
C2836 C 0.01212 0.68279 0.4368 0.0
H2837 H 0.03676 0.58333 0.51292 0.0
H2838 H 0.03751 0.61239 0.49345 0.0
C2839 C 0.0104 0.70203 0.43063 0.0
C2840 C 0.02719 0.65 0.43679 0.0
H2841 H 0.0014 0.60932 0.44758 0.0
C2842 C 0.0442 0.64492 0.44573 0.0
C2843 C 0.01184 0.6366 0.43686 0.0
C2844 C 0.99357 0.64067 0.42661 0.0
C2845 C 0.04592 0.62728 0.45557 0.0
C2846 C 0.03011 0.61456 0.45676 0.0
C2847 C 0.01345 0.61916 0.44695 0.0
C2848 C 0.0303 0.59675 0.46851 0.0
C2849 C 0.06464 0.62252 0.46467 0.0
C2850 C 0.02548 0.57829 0.46114 0.0
C2851 C 0.02482 0.56167 0.47228 0.0
C2852 C 0.02888 0.56312 0.49111 0.0
C2853 C 0.03365 0.58163 0.49848 0.0
C2854 C 0.03426 0.59826 0.48732 0.0
H2855 H 0.07641 0.63008 0.45787 0.0
H2856 H 0.06474 0.62761 0.479 0.0
H2857 H 0.0672 0.60649 0.46462 0.0
H2858 H 0.02222 0.57674 0.44671 0.0
H2859 H 0.02109 0.54767 0.46611 0.0
H2860 H 0.6255 0.75708 0.65165 0.0
H2861 H 0.65132 0.77252 0.66929 0.0
H2862 H 0.61351 0.78558 0.7122 0.0
H2863 H 0.58771 0.76943 0.69491 0.0
H2864 H 0.65773 0.80927 0.68343 0.0
H2865 H 0.65303 0.75363 0.7386 0.0
H2866 H 0.64012 0.75105 0.71722 0.0
H2867 H 0.63214 0.76761 0.73428 0.0
C2868 C 0.62268 0.76323 0.66485 0.0
C2869 C 0.60469 0.76173 0.67208 0.0
C2870 C 0.63741 0.77217 0.67485 0.0
C2871 C 0.63437 0.77994 0.69214 0.0
C2872 C 0.61623 0.77926 0.69905 0.0
H2873 H 0.72601 0.79894 0.77038 0.0
H2874 H 0.69625 0.80808 0.7554 0.0
C2875 C 0.60154 0.77 0.68919 0.0
C2876 C 0.65058 0.7874 0.70329 0.0
H2877 H 0.67758 0.77644 0.74095 0.0
C2878 C 0.66196 0.80232 0.69617 0.0
C2879 C 0.65599 0.77835 0.71993 0.0
C2880 C 0.64481 0.76168 0.72793 0.0
C2881 C 0.67911 0.80778 0.70483 0.0
C2882 C 0.68493 0.798 0.72093 0.0
C2883 C 0.67297 0.78402 0.72865 0.0
C2884 C 0.70438 0.79934 0.72855 0.0
C2885 C 0.69112 0.82346 0.69641 0.0
C2886 C 0.71915 0.79243 0.71821 0.0
C2887 C 0.73617 0.78714 0.72672 0.0
C2888 C 0.73852 0.78848 0.74571 0.0
C2889 C 0.72449 0.79745 0.75574 0.0
C2890 C 0.70751 0.80281 0.7472 0.0
H2891 H 0.68234 0.83399 0.68843 0.0
H2892 H 0.6996 0.83165 0.70692 0.0
H2893 H 0.70088 0.8165 0.68695 0.0
H2894 H 0.71693 0.78932 0.70385 0.0
H2895 H 0.74678 0.78041 0.71862 0.0
H2896 H 0.58784 0.49804 0.7124 0.0
H2897 H 0.58097 0.4916 0.6803 0.0
H2898 H 0.63904 0.4772 0.67275 0.0
H2899 H 0.64619 0.48354 0.70509 0.0
H2900 H 0.60092 0.51379 0.65279 0.0
H2901 H 0.6065 0.43272 0.64555 0.0
H2902 H 0.6016 0.44414 0.66703 0.0
H2903 H 0.62477 0.44582 0.65827 0.0
C2904 C 0.59917 0.49326 0.70405 0.0
C2905 C 0.61762 0.49151 0.71133 0.0
C2906 C 0.59518 0.48954 0.6857 0.0
C2907 C 0.60948 0.4839 0.67423 0.0
C2908 C 0.62778 0.48134 0.68148 0.0
H2909 H 0.58741 0.5025 0.55793 0.0
H2910 H 0.60572 0.49768 0.5863 0.0
C2911 C 0.63183 0.48505 0.69994 0.0
C2912 C 0.60532 0.48269 0.65445 0.0
H2913 H 0.59728 0.45059 0.61933 0.0
C2914 C 0.60037 0.50003 0.64537 0.0
C2915 C 0.60459 0.46467 0.64497 0.0
C2916 C 0.60955 0.44568 0.65436 0.0
C2917 C 0.59398 0.49981 0.62716 0.0
C2918 C 0.59288 0.48174 0.61768 0.0
C2919 C 0.59836 0.46441 0.62661 0.0
C2920 C 0.58412 0.48058 0.59919 0.0
C2921 C 0.58752 0.51879 0.61853 0.0
C2922 C 0.56644 0.47147 0.59668 0.0
C2923 C 0.55598 0.47407 0.58046 0.0
C2924 C 0.56304 0.4859 0.56654 0.0
C2925 C 0.58147 0.49352 0.56849 0.0
C2926 C 0.59196 0.4908 0.58468 0.0
H2927 H 0.58608 0.53066 0.62873 0.0
H2928 H 0.59795 0.52373 0.60858 0.0
H2929 H 0.57377 0.51669 0.61114 0.0
H2930 H 0.56018 0.46347 0.60771 0.0
H2931 H 0.5419 0.46787 0.57935 0.0
H2932 H 0.79812 0.35238 -0.00124 0.0
H2933 H 0.80605 0.335 0.97125 0.0
H2934 H 0.77263 0.37547 0.93908 0.0
H2935 H 0.76544 0.39365 0.9667 0.0
H2936 H 0.78323 0.31572 0.94992 0.0
H2937 H 0.81805 0.37253 0.90882 0.0
H2938 H 0.81348 0.37606 0.93257 0.0
H2939 H 0.79523 0.38015 0.91544 0.0
C2940 C 0.7927 0.35782 0.98583 0.0
C2941 C 0.78116 0.37439 0.98486 0.0
C2942 C 0.79726 0.34784 0.97009 0.0
C2943 C 0.79014 0.35403 0.95305 0.0
C2944 C 0.77873 0.37073 0.95201 0.0
H2945 H 0.76564 0.28039 0.86145 0.0
H2946 H 0.76667 0.29888 0.88981 0.0
C2947 C 0.77447 0.381 0.96779 0.0
C2948 C 0.7933 0.34189 0.93674 0.0
H2949 H 0.80685 0.34372 0.89271 0.0
C2950 C 0.78864 0.32184 0.9375 0.0
C2951 C 0.80067 0.34973 0.92063 0.0
C2952 C 0.80734 0.37075 0.91937 0.0
C2953 C 0.79053 0.30957 0.92244 0.0
C2954 C 0.79659 0.3177 0.90593 0.0
C2955 C 0.80196 0.33757 0.90533 0.0
C2956 C 0.79636 0.3061 0.88893 0.0
C2957 C 0.78603 0.288 0.92442 0.0
C2958 C 0.81261 0.30446 0.87874 0.0
C2959 C 0.812 0.29402 0.86235 0.0
C2960 C 0.79514 0.28504 0.85599 0.0
C2961 C 0.77894 0.28672 0.86626 0.0
C2962 C 0.77952 0.29728 0.88247 0.0
H2963 H 0.78811 0.28311 0.93875 0.0
H2964 H 0.77104 0.2853 0.9204 0.0
H2965 H 0.7949 0.2789 0.91568 0.0
H2966 H 0.82572 0.31129 0.88344 0.0
H2967 H 0.82466 0.29299 0.85464 0.0
H2968 H 0.91135 0.53674 0.20175 0.0
H2969 H 0.92268 0.5453 0.17158 0.0
H2970 H 0.97198 0.51026 0.18174 0.0
H2971 H 0.96096 0.50164 0.21174 0.0
H2972 H 0.96144 0.56299 0.16343 0.0
H2973 H 0.94558 0.49016 0.13232 0.0
H2974 H 0.93394 0.49893 0.15216 0.0
H2975 H 0.95739 0.48953 0.15431 0.0
C2976 C 0.92457 0.5308 0.19754 0.0
C2977 C 0.9352 0.51843 0.20917 0.0
C2978 C 0.93103 0.53578 0.18035 0.0
C2979 C 0.94808 0.5283 0.17449 0.0
C2980 C 0.95872 0.51605 0.18603 0.0
H2981 H 0.02055 0.52248 0.08648 0.0
H2982 H 0.00469 0.52238 0.11533 0.0
C2983 C 0.95238 0.51118 0.20319 0.0
C2984 C 0.95496 0.53301 0.15626 0.0
H2985 H 0.9661 0.51129 0.11638 0.0
C2986 C 0.96222 0.55185 0.15297 0.0
C2987 C 0.95586 0.51839 0.14274 0.0
C2988 C 0.94765 0.49814 0.14542 0.0
C2989 C 0.97135 0.55614 0.13675 0.0
C2990 C 0.97298 0.54122 0.12358 0.0
C2991 C 0.96494 0.52266 0.1266 0.0
C2992 C 0.98399 0.5439 0.10704 0.0
C2993 C 0.97995 0.57621 0.13417 0.0
C2994 C 0.97793 0.55651 0.09299 0.0
C2995 C 0.98709 0.5567 0.07643 0.0
C2996 C 0.00227 0.5441 0.07367 0.0
C2997 C 0.00884 0.53228 0.08813 0.0
C2998 C -0.00022 0.53218 0.10463 0.0
H2999 H 0.98002 0.5851 0.14683 0.0
H3000 H 0.99462 0.57497 0.12962 0.0
H3001 H 0.97175 0.58415 0.12344 0.0
H3002 H 0.96562 0.56548 0.09452 0.0
H3003 H 0.98164 0.56586 0.06548 0.0
H3004 H 0.78143 0.60036 0.46076 0.0
H3005 H 0.76063 0.60811 0.43448 0.0
H3006 H 0.79461 0.65924 0.42352 0.0
H3007 H 0.81523 0.65184 0.44984 0.0
H3008 H 0.74821 0.65868 0.43289 0.0
H3009 H 0.77533 0.61717 0.37431 0.0
H3010 H 0.7757 0.60742 0.3972 0.0
H3011 H 0.79223 0.6262 0.39124 0.0
C3012 C 0.78478 0.61292 0.4524 0.0
C3013 C 0.79991 0.62557 0.45729 0.0
C3014 C 0.77284 0.61734 0.43751 0.0
C3015 C 0.77616 0.63422 0.42724 0.0
C3016 C 0.79194 0.64611 0.43137 0.0
H3017 H 0.76203 0.72185 0.36152 0.0
H3018 H 0.76153 0.6986 0.38627 0.0
C3019 C 0.80371 0.64186 0.44633 0.0
C3020 C 0.76237 0.64105 0.4134 0.0
H3021 H 0.75742 0.64578 0.36747 0.0
C3022 C 0.74964 0.6554 0.41857 0.0
C3023 C 0.76421 0.63652 0.39487 0.0
C3024 C 0.77752 0.6209 0.38894 0.0
C3025 C 0.74021 0.6669 0.40548 0.0
C3026 C 0.74375 0.66389 0.38694 0.0
C3027 C 0.75476 0.64801 0.38175 0.0
C3028 C 0.74042 0.67958 0.37351 0.0
C3029 C 0.72785 0.68329 0.41156 0.0
C3030 C 0.72829 0.67682 0.35832 0.0
C3031 C 0.7281 0.69053 0.34416 0.0
C3032 C 0.74051 0.70684 0.34476 0.0
C3033 C 0.75197 0.70985 0.36052 0.0
C3034 C 0.75181 0.69644 0.37475 0.0
H3035 H 0.72205 0.68014 0.42511 0.0
H3036 H 0.73633 0.69703 0.41268 0.0
H3037 H 0.71604 0.68573 0.40157 0.0
H3038 H 0.71948 0.66378 0.35715 0.0
H3039 H 0.71875 0.68791 0.33247 0.0
H3040 H 0.65611 0.50981 0.82336 0.0
H3041 H 0.64196 0.52089 0.8515 0.0
H3042 H 0.58964 0.53137 0.82192 0.0
H3043 H 0.60344 0.51992 0.79398 0.0
H3044 H 0.62433 0.55614 0.86147 0.0
H3045 H 0.5746 0.49276 0.86136 0.0
H3046 H 0.59451 0.49385 0.84683 0.0
H3047 H 0.57339 0.50696 0.84083 0.0
C3048 C 0.64161 0.51455 0.82287 0.0
C3049 C 0.6308 0.51374 0.80654 0.0
C3050 C 0.63358 0.52093 0.83892 0.0
C3051 C 0.61467 0.52661 0.83882 0.0
C3052 C 0.60414 0.52664 0.82235 0.0
H3053 H 0.53674 0.55208 0.92355 0.0
H3054 H 0.55257 0.55215 0.89452 0.0
C3055 C 0.61207 0.52013 0.80639 0.0
C3056 C 0.60561 0.53162 0.85601 0.0
H3057 H 0.57014 0.51738 0.88334 0.0
C3058 C 0.61249 0.54769 0.86629 0.0
C3059 C 0.59021 0.5205 0.86227 0.0
C3060 C 0.58283 0.50245 0.85236 0.0
C3061 C 0.60418 0.55306 0.8826 0.0
C3062 C 0.58873 0.54198 0.88875 0.0
C3063 C 0.58184 0.52599 0.87843 0.0
C3064 C 0.58006 0.54574 0.90639 0.0
C3065 C 0.61182 0.57061 0.89304 0.0
C3066 C 0.59038 0.54255 0.92267 0.0
C3067 C 0.58136 0.54231 0.93924 0.0
C3068 C 0.56182 0.54517 0.93981 0.0
C3069 C 0.55175 0.54955 0.92355 0.0
C3070 C 0.56078 0.54972 0.90698 0.0
H3071 H 0.62034 0.58038 0.88437 0.0
H3072 H 0.60023 0.57922 0.89873 0.0
H3073 H 0.62099 0.56551 0.90455 0.0
H3074 H 0.60519 0.53904 0.92248 0.0
H3075 H 0.58952 0.5386 0.95143 0.0
H3076 H 0.75398 0.38483 0.08285 0.0
H3077 H 0.74781 0.37205 0.11338 0.0
H3078 H 0.80225 0.34472 0.11536 0.0
H3079 H 0.80845 0.35733 0.08519 0.0
H3080 H 0.74704 0.3313 0.12025 0.0
H3081 H 0.79929 0.36841 0.16616 0.0
H3082 H 0.79238 0.37817 0.14412 0.0
H3083 H 0.8098 0.35926 0.14607 0.0
C3084 C 0.76481 0.3766 0.09009 0.0
C3085 C 0.78164 0.37196 0.08167 0.0
C3086 C 0.76124 0.36925 0.10744 0.0
C3087 C 0.77465 0.3576 0.11665 0.0
C3088 C 0.79186 0.35397 0.10864 0.0
H3089 H 0.79285 0.2723 0.19842 0.0
H3090 H 0.79199 0.29371 0.17172 0.0
C3091 C 0.79533 0.36108 0.09133 0.0
C3092 C 0.77011 0.34701 0.1335 0.0
H3093 H 0.78835 0.33644 0.17579 0.0
C3094 C 0.75574 0.3327 0.13258 0.0
C3095 C 0.78155 0.34887 0.14951 0.0
C3096 C 0.7965 0.36466 0.15161 0.0
C3097 C 0.75334 0.31933 0.14684 0.0
C3098 C 0.76555 0.32048 0.16237 0.0
C3099 C 0.77923 0.33544 0.16369 0.0
C3100 C 0.76483 0.30596 0.17722 0.0
C3101 C 0.73847 0.30345 0.14486 0.0
C3102 C 0.74962 0.30548 0.18881 0.0
C3103 C 0.75005 0.29326 0.20404 0.0
C3104 C 0.76574 0.28137 0.20794 0.0
C3105 C 0.78054 0.2812 0.19577 0.0
C3106 C 0.78012 0.29349 0.18058 0.0
H3107 H 0.73214 0.30275 0.13085 0.0
H3108 H 0.74453 0.28893 0.14836 0.0
H3109 H 0.7271 0.30634 0.15442 0.0
H3110 H 0.73779 0.31513 0.1865 0.0
H3111 H 0.73842 0.29374 0.21316 0.0
H3112 H 0.94317 0.50614 0.29661 0.0
H3113 H 0.95392 0.49539 0.3268 0.0
H3114 H 0.89677 0.4954 0.3446 0.0
H3115 H 0.88579 0.5061 0.31421 0.0
H3116 H 0.94769 0.51679 0.35954 0.0
H3117 H 0.91815 0.44082 0.36092 0.0
H3118 H 0.92137 0.45406 0.33996 0.0
H3119 H 0.90233 0.46014 0.35421 0.0
C3120 C 0.93285 0.50377 0.30689 0.0
C3121 C 0.91364 0.50702 0.30308 0.0
C3122 C 0.93902 0.49759 0.32411 0.0
C3123 C 0.92612 0.49441 0.33782 0.0
C3124 C 0.9069 0.49749 0.33408 0.0
H3125 H 0.95321 0.48225 0.45308 0.0
H3126 H 0.93546 0.48377 0.42407 0.0
C3127 C 0.90068 0.50375 0.3168 0.0
C3128 C 0.93316 0.48909 0.35627 0.0
H3129 H 0.93489 0.45191 0.38742 0.0
C3130 C 0.94482 0.50265 0.36567 0.0
C3131 C 0.92936 0.4706 0.36415 0.0
C3132 C 0.91722 0.45544 0.35431 0.0
C3133 C 0.95297 0.49817 0.38273 0.0
C3134 C 0.94943 0.47961 0.3905 0.0
C3135 C 0.93753 0.4661 0.38131 0.0
C3136 C 0.95856 0.47423 0.40805 0.0
C3137 C 0.96552 0.51317 0.39233 0.0
C3138 C 0.97717 0.46766 0.40856 0.0
C3139 C 0.98736 0.46672 0.4251 0.0
C3140 C 0.97908 0.47241 0.44134 0.0
C3141 C 0.95996 0.47758 0.44086 0.0
C3142 C 0.94978 0.47851 0.42431 0.0
H3143 H 0.96593 0.52737 0.38493 0.0
H3144 H 0.96055 0.51583 0.40625 0.0
H3145 H 0.98006 0.50747 0.39369 0.0
H3146 H 0.98412 0.46436 0.39607 0.0
H3147 H 0.00198 0.46244 0.42507 0.0
H3148 H 0.83006 0.65036 0.55566 0.0
H3149 H 0.83392 0.66729 0.58483 0.0
H3150 H 0.82229 0.72252 0.55857 0.0
H3151 H 0.81838 0.7058 0.52919 0.0
H3152 H 0.85765 0.71056 0.59359 0.0
H3153 H 0.77997 0.70277 0.60019 0.0
H3154 H 0.79302 0.6845 0.58831 0.0
H3155 H 0.78977 0.70827 0.57844 0.0
C3156 C 0.82859 0.66615 0.55597 0.0
C3157 C 0.82367 0.6767 0.54009 0.0
C3158 C 0.83092 0.67578 0.57265 0.0
C3159 C 0.82838 0.69607 0.57374 0.0
C3160 C 0.82439 0.70683 0.55787 0.0
H3161 H 0.8006 0.75974 0.67089 0.0
H3162 H 0.80665 0.75159 0.63937 0.0
C3163 C 0.82212 0.69723 0.54113 0.0
C3164 C 0.82773 0.70552 0.59171 0.0
H3165 H 0.79726 0.71616 0.62496 0.0
C3166 C 0.84449 0.71198 0.60046 0.0
C3167 C 0.81049 0.7073 0.60047 0.0
C3168 C 0.7922 0.70038 0.59149 0.0
C3169 C 0.84443 0.7201 0.61803 0.0
C3170 C 0.8272 0.72138 0.62702 0.0
C3171 C 0.81044 0.71522 0.61802 0.0
C3172 C 0.82609 0.7283 0.64603 0.0
C3173 C 0.86272 0.72731 0.62673 0.0
C3174 C 0.83529 0.71812 0.66026 0.0
C3175 C 0.83202 0.72288 0.67836 0.0
C3176 C 0.81933 0.73777 0.68254 0.0
C3177 C 0.81067 0.74839 0.66821 0.0
C3178 C 0.81402 0.74368 0.65015 0.0
H3179 H 0.87329 0.73073 0.61638 0.0
H3180 H 0.86058 0.74061 0.63509 0.0
H3181 H 0.86859 0.71568 0.63576 0.0
H3182 H 0.84438 0.70595 0.65741 0.0
H3183 H 0.83906 0.71456 0.68906 0.0
H3184 H 0.74359 0.6602 0.47637 0.0
H3185 H 0.71006 0.65187 0.47602 0.0
H3186 H 0.72145 0.60343 0.51229 0.0
H3187 H 0.75485 0.61185 0.51311 0.0
H3188 H 0.69213 0.61855 0.46469 0.0
H3189 H 0.6796 0.63098 0.5375 0.0
H3190 H 0.70067 0.63952 0.52685 0.0
H3191 H 0.69872 0.61451 0.53452 0.0
C3192 C 0.73895 0.64791 0.48447 0.0
C3193 C 0.75191 0.63683 0.49496 0.0
C3194 C 0.71979 0.64316 0.48419 0.0
C3195 C 0.71326 0.62729 0.49441 0.0
C3196 C 0.72615 0.61608 0.50471 0.0
H3197 H 0.61883 0.55139 0.48207 0.0
H3198 H 0.64749 0.57057 0.4783 0.0
C3199 C 0.74527 0.62086 0.50508 0.0
C3200 C 0.69306 0.62186 0.49385 0.0
H3201 H 0.65692 0.61049 0.5213 0.0
C3202 C 0.68429 0.61708 0.47702 0.0
C3203 C 0.68273 0.62041 0.50988 0.0
C3204 C 0.69087 0.62684 0.52817 0.0
C3205 C 0.66577 0.60977 0.47594 0.0
C3206 C 0.65601 0.60673 0.49216 0.0
C3207 C 0.66444 0.61259 0.50885 0.0
C3208 C 0.63771 0.59616 0.49247 0.0
C3209 C 0.65695 0.60528 0.45744 0.0
C3210 C 0.62271 0.60403 0.50189 0.0
C3211 C 0.60649 0.59281 0.50461 0.0
C3212 C 0.60495 0.57352 0.49788 0.0
C3213 C 0.61966 0.56605 0.48772 0.0
C3214 C 0.63596 0.57717 0.48523 0.0
H3215 H 0.66286 0.61497 0.44686 0.0
H3216 H 0.66011 0.58993 0.45371 0.0
H3217 H 0.64144 0.60705 0.45726 0.0
H3218 H 0.62381 0.61861 0.5077 0.0
H3219 H 0.59557 0.59898 0.51268 0.0
H3220 H 0.20075 0.89922 0.53145 0.0
H3221 H 0.17188 0.91792 0.53366 0.0
H3222 H 0.20442 0.97019 0.54631 0.0
H3223 H 0.23359 0.95146 0.54427 0.0
H3224 H 0.17062 0.96433 0.56753 0.0
H3225 H 0.15707 0.9579 0.49306 0.0
H3226 H 0.16134 0.93484 0.50417 0.0
H3227 H 0.17977 0.9531 0.50378 0.0
C3228 C 0.20182 0.91465 0.53489 0.0
C3229 C 0.21946 0.92392 0.5375 0.0
C3230 C 0.1853 0.92531 0.5361 0.0
C3231 C 0.18606 0.94548 0.53981 0.0
C3232 C 0.20358 0.95464 0.54332 0.0
H3233 H 0.08635 0.01461 0.51351 0.0
H3234 H 0.11914 0.00454 0.51719 0.0
C3235 C 0.2202 0.94393 0.54215 0.0
C3236 C 0.16851 0.95695 0.53907 0.0
H3237 H 0.13153 0.96857 0.51051 0.0
C3238 C 0.16213 0.96548 0.55505 0.0
C3239 C 0.15767 0.95873 0.52269 0.0
C3240 C 0.16437 0.95083 0.5049 0.0
C3241 C 0.14469 0.975 0.55523 0.0
C3242 C 0.13332 0.97569 0.53907 0.0
C3243 C 0.14016 0.9679 0.52294 0.0
C3244 C 0.11394 0.98355 0.53856 0.0
C3245 C 0.13863 0.98418 0.57271 0.0
C3246 C 0.10012 0.97523 0.54946 0.0
C3247 C 0.08137 0.98102 0.54744 0.0
C3248 C 0.07603 0.99506 0.53431 0.0
C3249 C 0.08997 0.00372 0.52372 0.0
C3250 C 0.10873 0.998 0.52582 0.0
H3251 H 0.15094 0.98803 0.58177 0.0
H3252 H 0.13029 0.99761 0.57005 0.0
H3253 H 0.12975 0.97352 0.58005 0.0
H3254 H 0.10369 0.96371 0.55905 0.0
H3255 H 0.07097 0.974 0.55576 0.0
H3256 H 0.40659 0.93069 0.76701 0.0
H3257 H 0.38542 0.90254 0.77019 0.0
H3258 H 0.33776 0.93913 0.7572 0.0
H3259 H 0.3588 0.96732 0.75361 0.0
H3260 H 0.35657 0.89795 0.79414 0.0
H3261 H 0.32928 0.89317 0.72253 0.0
H3262 H 0.34974 0.90773 0.72913 0.0
H3263 H 0.32655 0.91667 0.73307 0.0
C3264 C 0.39162 0.93275 0.76465 0.0
C3265 C 0.38442 0.95126 0.75992 0.0
C3266 C 0.37955 0.91665 0.76653 0.0
C3267 C 0.36006 0.91872 0.76373 0.0
C3268 C 0.35279 0.93714 0.75905 0.0
H3269 H 0.27125 0.82882 0.76825 0.0
H3270 H 0.28739 0.86083 0.76915 0.0
C3271 C 0.36486 0.95324 0.75705 0.0
C3272 C 0.3474 0.90162 0.76614 0.0
H3273 H 0.31586 0.87145 0.74359 0.0
C3274 C 0.34762 0.89218 0.78311 0.0
C3275 C 0.33566 0.89423 0.75174 0.0
C3276 C 0.33535 0.90334 0.73304 0.0
C3277 C 0.33661 0.87535 0.78599 0.0
C3278 C 0.32523 0.86773 0.77149 0.0
C3279 C 0.32456 0.87747 0.75469 0.0
C3280 C 0.31523 0.84872 0.7729 0.0
C3281 C 0.33731 0.86576 0.80447 0.0
C3282 C 0.32559 0.83145 0.77483 0.0
C3283 C 0.31649 0.81323 0.77421 0.0
C3284 C 0.29683 0.81197 0.77165 0.0
C3285 C 0.2864 0.82934 0.77032 0.0
C3286 C 0.29557 0.8476 0.77079 0.0
H3287 H 0.34254 0.87609 0.81524 0.0
H3288 H 0.32319 0.86015 0.80807 0.0
H3289 H 0.34702 0.85315 0.80426 0.0
H3290 H 0.34081 0.83203 0.77618 0.0
H3291 H 0.32492 0.80012 0.77529 0.0
H3292 H 0.31639 0.05022 0.03207 0.0
H3293 H 0.33966 0.02493 0.0401 0.0
H3294 H 0.38164 0.07007 0.05049 0.0
H3295 H 0.35878 0.09517 0.04194 0.0
H3296 H 0.3745 0.02666 0.01777 0.0
H3297 H 0.38976 0.02694 0.09206 0.0
H3298 H 0.36702 0.03322 0.08201 0.0
H3299 H 0.38601 0.05086 0.0824 0.0
C3300 C 0.33047 0.05467 0.03657 0.0
C3301 C 0.33598 0.07451 0.03625 0.0
C3302 C 0.34365 0.04027 0.04119 0.0
C3303 C 0.36221 0.04572 0.04609 0.0
C3304 C 0.36727 0.06564 0.04705 0.0
H3305 H 0.47474 0.03676 0.05003 0.0
H3306 H 0.44128 0.03898 0.0558 0.0
C3307 C 0.35429 0.07993 0.042 0.0
C3308 C 0.37739 0.03122 0.04663 0.0
H3309 H 0.41551 0.01844 0.07303 0.0
C3310 C 0.38326 0.02416 0.02989 0.0
C3311 C 0.3886 0.02815 0.06251 0.0
C3312 C 0.38247 0.03504 0.08082 0.0
C3313 C 0.40122 0.01629 0.0282 0.0
C3314 C 0.41323 0.01474 0.04392 0.0
C3315 C 0.40639 0.01977 0.06099 0.0
C3316 C 0.43368 0.0115 0.04249 0.0
C3317 C 0.40777 0.01172 0.00935 0.0
C3318 C 0.44064 0.99507 0.03352 0.0
C3319 C 0.45972 0.99411 0.02969 0.0
C3320 C 0.47216 0.00925 0.03533 0.0
C3321 C 0.46541 0.02495 0.04545 0.0
C3322 C 0.44631 0.02615 0.04884 0.0
H3323 H 0.39787 0.01715 -0.00147 0.0
H3324 H 0.42182 0.0184 0.00719 0.0
H3325 H 0.40885 0.99561 0.00771 0.0
H3326 H 0.43126 0.9833 0.02899 0.0
H3327 H 0.46471 0.98165 0.02217 0.0
H3328 H 0.6354 0.58168 0.76065 0.0
H3329 H 0.65434 0.6116 0.7582 0.0
H3330 H 0.70395 0.57703 0.75116 0.0
H3331 H 0.68522 0.54696 0.75373 0.0
H3332 H 0.70815 0.6061 0.77785 0.0
H3333 H 0.67817 0.63648 0.71331 0.0
H3334 H 0.6609 0.62998 0.72959 0.0
H3335 H 0.67493 0.61116 0.71986 0.0
C3336 C 0.65031 0.58038 0.75844 0.0
C3337 C 0.65877 0.56187 0.7574 0.0
C3338 C 0.66108 0.59753 0.7569 0.0
C3339 C 0.68047 0.5965 0.75422 0.0
C3340 C 0.68896 0.5781 0.75308 0.0
H3341 H 0.75731 0.69546 0.73674 0.0
H3342 H 0.73922 0.66478 0.73293 0.0
C3343 C 0.67821 0.56094 0.75458 0.0
C3344 C 0.69209 0.61461 0.75385 0.0
H3345 H 0.69758 0.65813 0.73157 0.0
C3346 C 0.70597 0.6174 0.76764 0.0
C3347 C 0.68929 0.62921 0.74041 0.0
C3348 C 0.67514 0.62654 0.72484 0.0
C3349 C 0.71673 0.63472 0.7687 0.0
C3350 C 0.71338 0.64967 0.75573 0.0
C3351 C 0.69996 0.64666 0.74157 0.0
C3352 C 0.7233 0.66877 0.75715 0.0
C3353 C 0.73154 0.63699 0.78377 0.0
C3354 C 0.71992 0.68127 0.77177 0.0
C3355 C 0.73013 0.69873 0.77397 0.0
C3356 C 0.74393 0.70402 0.76156 0.0
C3357 C 0.74683 0.69176 0.74655 0.0
C3358 C 0.73652 0.67427 0.74434 0.0
H3359 H 0.73533 0.62265 0.78998 0.0
H3360 H 0.74447 0.64405 0.77863 0.0
H3361 H 0.72607 0.64651 0.79458 0.0
H3362 H 0.70957 0.67734 0.78165 0.0
H3363 H 0.72746 0.70787 0.78563 0.0
H3364 H 0.81502 0.44396 0.0236 0.0
H3365 H 0.84135 0.46673 0.01883 0.0
H3366 H 0.87785 0.4178 0.01003 0.0
H3367 H 0.85183 0.3951 0.01441 0.0
H3368 H 0.87496 0.46984 0.03815 0.0
H3369 H 0.88836 0.4519 0.9665 0.0
H3370 H 0.86694 0.44463 0.9773 0.0
H3371 H 0.88794 0.4303 0.98039 0.0
C3372 C 0.82863 0.43806 0.02054 0.0
C3373 C 0.83125 0.41768 0.01931 0.0
C3374 C 0.84364 0.45109 0.01778 0.0
C3375 C 0.86144 0.44396 0.01367 0.0
C3376 C 0.86411 0.42366 0.01265 0.0
H3377 H 0.97618 0.47604 0.01782 0.0
H3378 H 0.94473 0.46114 0.0161 0.0
C3379 C 0.84919 0.41068 0.01532 0.0
C3380 C 0.87766 0.45746 0.01144 0.0
H3381 H 0.91421 0.46708 0.98372 0.0
C3382 C 0.88333 0.46959 0.0261 0.0
C3383 C 0.88851 0.45715 0.99566 0.0
C3384 C 0.88251 0.44544 0.979 0.0
C3385 C 0.90017 0.4805 0.02581 0.0
C3386 C 0.91152 0.47923 0.01048 0.0
C3387 C 0.90547 0.46786 0.99549 0.0
C3388 C 0.93041 0.48837 0.01044 0.0
C3389 C 0.90627 0.49258 0.04219 0.0
C3390 C 0.93266 0.50856 0.00753 0.0
C3391 C 0.95063 0.51714 0.00839 0.0
C3392 C 0.96657 0.50563 0.0123 0.0
C3393 C 0.9642 0.48532 0.01484 0.0
C3394 C 0.94628 0.47677 0.01385 0.0
H3395 H 0.8962 0.49137 0.05337 0.0
H3396 H 0.92034 0.48781 0.04735 0.0
H3397 H 0.90754 0.50823 0.03822 0.0
H3398 H 0.92051 0.51768 0.00483 0.0
H3399 H 0.95199 0.53283 0.00639 0.0
H3400 H 0.34364 0.0433 0.73746 0.0
H3401 H 0.32438 0.07277 0.73591 0.0
H3402 H 0.37381 0.1086 0.74717 0.0
H3403 H 0.39307 0.07918 0.74921 0.0
H3404 H 0.34581 0.11649 0.76979 0.0
H3405 H 0.31778 0.11601 0.69847 0.0
H3406 H 0.31361 0.09356 0.7105 0.0
H3407 H 0.33732 0.10106 0.70602 0.0
C3408 C 0.35045 0.05749 0.7393 0.0
C3409 C 0.36985 0.05895 0.74354 0.0
C3410 C 0.33943 0.07432 0.7383 0.0
C3411 C 0.34768 0.09289 0.74125 0.0
C3412 C 0.36717 0.0944 0.74482 0.0
H3413 H 0.30313 0.20886 0.72903 0.0
H3414 H 0.31739 0.17687 0.72475 0.0
C3415 C 0.37815 0.07759 0.74598 0.0
C3416 C 0.33589 0.11059 0.74232 0.0
H3417 H 0.30423 0.13884 0.71857 0.0
C3418 C 0.33674 0.1214 0.75857 0.0
C3419 C 0.32413 0.11697 0.72765 0.0
C3420 C 0.32324 0.10642 0.70961 0.0
C3421 C 0.32627 0.13849 0.76055 0.0
C3422 C 0.3142 0.14467 0.74603 0.0
C3423 C 0.3133 0.13388 0.72976 0.0
C3424 C 0.30345 0.16306 0.74717 0.0
C3425 C 0.3287 0.15008 0.77799 0.0
C3426 C 0.29032 0.16566 0.76076 0.0
C3427 C 0.28226 0.184 0.76337 0.0
C3428 C 0.28705 0.19996 0.75228 0.0
C3429 C 0.29923 0.19691 0.7379 0.0
C3430 C 0.30737 0.17862 0.73539 0.0
H3431 H 0.34168 0.14595 0.78584 0.0
H3432 H 0.32932 0.16607 0.77518 0.0
H3433 H 0.31652 0.14714 0.78666 0.0
H3434 H 0.2868 0.15368 0.76974 0.0
H3435 H 0.27276 0.18582 0.77444 0.0
H3436 H 0.19744 0.96443 0.24961 0.0
H3437 H 0.21611 0.93469 0.24688 0.0
H3438 H 0.16784 0.8994 0.26038 0.0
H3439 H 0.14922 0.92904 0.26353 0.0
H3440 H 0.1992 0.88929 0.27995 0.0
H3441 H 0.21494 0.89373 0.20669 0.0
H3442 H 0.22164 0.91528 0.21948 0.0
H3443 H 0.19719 0.90852 0.21682 0.0
C3444 C 0.19078 0.95032 0.25189 0.0
C3445 C 0.17187 0.94906 0.25679 0.0
C3446 C 0.20143 0.93334 0.25019 0.0
C3447 C 0.19328 0.91482 0.25314 0.0
C3448 C 0.17438 0.91355 0.25796 0.0
H3449 H 0.23353 0.79838 0.23117 0.0
H3450 H 0.21863 0.83055 0.2296 0.0
C3451 C 0.16376 0.9305 0.25977 0.0
C3452 C 0.20463 0.89677 0.25218 0.0
H3453 H 0.23095 0.86921 0.224 0.0
C3454 C 0.20613 0.88489 0.26771 0.0
C3455 C 0.2135 0.89099 0.23613 0.0
C3456 C 0.21163 0.90268 0.21877 0.0
C3457 C 0.21628 0.8674 0.26769 0.0
C3458 C 0.22558 0.86186 0.25181 0.0
C3459 C 0.22401 0.87365 0.23621 0.0
C3460 C 0.23632 0.84341 0.25105 0.0
C3461 C 0.21652 0.85476 0.28455 0.0
C3462 C 0.25171 0.84029 0.2631 0.0
C3463 C 0.26015 0.82192 0.26413 0.0
C3464 C 0.25349 0.80641 0.25296 0.0
C3465 C 0.23895 0.81 0.24 0.0
C3466 C 0.23041 0.82837 0.23908 0.0
H3467 H 0.20498 0.85853 0.29369 0.0
H3468 H 0.2152 0.83897 0.28095 0.0
H3469 H 0.23007 0.85704 0.29223 0.0
H3470 H 0.25676 0.85186 0.27216 0.0
H3471 H 0.27148 0.81969 0.27412 0.0
H3472 H 0.51174 0.37173 0.35725 0.0
H3473 H 0.52069 0.40462 0.36849 0.0
H3474 H 0.49128 0.39329 0.41779 0.0
H3475 H 0.48252 0.36062 0.4068 0.0
H3476 H 0.48917 0.43421 0.40229 0.0
H3477 H 0.56122 0.40339 0.41235 0.0
H3478 H 0.54934 0.4024 0.39033 0.0
H3479 H 0.54118 0.38728 0.40845 0.0
C3480 C 0.50673 0.37656 0.37023 0.0
C3481 C 0.49668 0.36365 0.38133 0.0
C3482 C 0.51188 0.39526 0.37662 0.0
C3483 C 0.50677 0.40118 0.394 0.0
C3484 C 0.49533 0.38892 0.40432 0.0
H3485 H 0.51366 0.45061 0.49144 0.0
H3486 H 0.50992 0.43484 0.4618 0.0
C3487 C 0.4904 0.37025 0.39808 0.0
C3488 C 0.51531 0.41855 0.40301 0.0
H3489 H 0.55301 0.42941 0.43127 0.0
C3490 C 0.50339 0.43367 0.4081 0.0
C3491 C 0.5339 0.4178 0.41046 0.0
C3492 C 0.54726 0.40189 0.4052 0.0
C3493 C 0.50894 0.44686 0.4219 0.0
C3494 C 0.52665 0.44453 0.43089 0.0
C3495 C 0.53938 0.43091 0.42439 0.0
C3496 C 0.53052 0.45328 0.44892 0.0
C3497 C 0.49528 0.46219 0.42777 0.0
C3498 C 0.5441 0.46812 0.45158 0.0
C3499 C 0.54636 0.47717 0.46859 0.0
C3500 C 0.53511 0.47134 0.48308 0.0
C3501 C 0.52247 0.45552 0.48057 0.0
C3502 C 0.52019 0.44661 0.46362 0.0
H3503 H 0.48534 0.46618 0.41644 0.0
H3504 H 0.48694 0.45625 0.43905 0.0
H3505 H 0.50278 0.47565 0.43271 0.0
H3506 H 0.55236 0.4732 0.44037 0.0
H3507 H 0.55622 0.48933 0.47012 0.0
H3508 H 0.45033 0.75594 0.14864 0.0
H3509 H 0.42015 0.7542 0.16361 0.0
H3510 H 0.44922 0.74874 0.21569 0.0
H3511 H 0.4796 0.75035 0.20076 0.0
H3512 H 0.40561 0.72361 0.18845 0.0
H3513 H 0.41352 0.79747 0.22014 0.0
H3514 H 0.4271 0.79005 0.20105 0.0
H3515 H 0.43289 0.78093 0.2234 0.0
C3516 C 0.45035 0.75421 0.16328 0.0
C3517 C 0.46743 0.75333 0.1735 0.0
C3518 C 0.43305 0.75322 0.17181 0.0
C3519 C 0.43238 0.75157 0.19079 0.0
C3520 C 0.44938 0.75023 0.20104 0.0
H3521 H 0.33978 0.75762 0.26541 0.0
H3522 H 0.37035 0.75677 0.25127 0.0
C3523 C 0.46674 0.75104 0.19247 0.0
C3524 C 0.41388 0.7516 0.19978 0.0
H3525 H 0.38625 0.77928 0.22671 0.0
C3526 C 0.40136 0.73576 0.19684 0.0
C3527 C 0.40835 0.76744 0.21074 0.0
C3528 C 0.42105 0.78505 0.214 0.0
C3529 C 0.38359 0.73518 0.20476 0.0
C3530 C 0.37787 0.7512 0.2155 0.0
C3531 C 0.3905 0.76701 0.21847 0.0
C3532 C 0.35902 0.7518 0.22396 0.0
C3533 C 0.37137 0.71713 0.20192 0.0
C3534 C 0.34226 0.74966 0.21336 0.0
C3535 C 0.32468 0.74997 0.22147 0.0
C3536 C 0.3234 0.75277 0.24035 0.0
C3537 C 0.34017 0.75544 0.25084 0.0
C3538 C 0.35772 0.75495 0.24276 0.0
H3539 H 0.37983 0.70416 0.19837 0.0
H3540 H 0.36342 0.71362 0.21426 0.0
H3541 H 0.36113 0.71975 0.19049 0.0
H3542 H 0.34275 0.74781 0.19877 0.0
H3543 H 0.31208 0.74801 0.21293 0.0
H3544 H 0.01298 0.75753 0.88466 0.0
H3545 H 0.01691 0.72625 0.9005 0.0
H3546 H 0.01033 0.75518 0.95194 0.0
H3547 H 0.00637 0.78652 0.93637 0.0
H3548 H 0.04081 0.71246 0.93377 0.0
H3549 H 0.96341 0.7163 0.94219 0.0
H3550 H 0.97547 0.73094 0.92567 0.0
H3551 H 0.97707 0.73747 0.94931 0.0
C3552 C 0.01293 0.7574 0.89938 0.0
C3553 C 0.00894 0.77448 0.90922 0.0
C3554 C 0.01517 0.73949 0.90839 0.0
C3555 C 0.01352 0.73848 0.92729 0.0
C3556 C 0.0114 0.75574 0.93729 0.0
H3557 H 0.9931 0.64406 0.00266 0.0
H3558 H 0.99664 0.67573 0.98743 0.0
C3559 C 0.00916 0.77362 0.92834 0.0
C3560 C 0.01156 0.71929 0.93627 0.0
H3561 H 0.97906 0.68941 0.9556 0.0
C3562 C 0.02736 0.70734 0.93855 0.0
C3563 C 0.99392 0.71278 0.94238 0.0
C3564 C 0.97642 0.72492 0.9397 0.0
C3565 C 0.02601 0.68904 0.94717 0.0
C3566 C 0.00834 0.68251 0.95327 0.0
C3567 C 0.99257 0.6945 0.95092 0.0
C3568 C 0.00587 0.66332 0.96222 0.0
C3569 C 0.04356 0.67705 0.95004 0.0
C3570 C 0.00939 0.64589 0.95288 0.0
C3571 C 0.00744 0.62781 0.96154 0.0
C3572 C 0.00181 0.62686 0.97967 0.0
C3573 C 0.99768 0.64434 0.98877 0.0
C3574 C 0.99966 0.66242 0.98009 0.0
H3575 H 0.05653 0.68615 0.94885 0.0
H3576 H 0.04386 0.66991 0.96362 0.0
H3577 H 0.04377 0.66537 0.93955 0.0
H3578 H 0.01379 0.64629 0.93893 0.0
H3579 H 0.01092 0.61464 0.95421 0.0
H3580 H 0.09168 0.28197 0.64515 0.0
H3581 H 0.12108 0.27916 0.66278 0.0
H3582 H 0.09129 0.25383 0.70728 0.0
H3583 H 0.06155 0.25627 0.6895 0.0
H3584 H 0.13246 0.29504 0.69569 0.0
H3585 H 0.13233 0.21361 0.69925 0.0
H3586 H 0.11656 0.2269 0.68412 0.0
H3587 H 0.11187 0.22511 0.70791 0.0
C3588 C 0.09124 0.27578 0.65869 0.0
C3589 C 0.07413 0.2692 0.6658 0.0
C3590 C 0.10815 0.27423 0.66878 0.0
C3591 C 0.10852 0.26599 0.68625 0.0
C3592 C 0.09145 0.25986 0.69367 0.0
H3593 H 0.20399 0.24413 0.76143 0.0
H3594 H 0.17262 0.24665 0.74697 0.0
C3595 C 0.07442 0.26141 0.68354 0.0
C3596 C 0.12687 0.26396 0.69646 0.0
H3597 H 0.15755 0.23028 0.71445 0.0
C3598 C 0.13791 0.28087 0.69983 0.0
C3599 C 0.13403 0.24547 0.70185 0.0
C3600 C 0.1232 0.22669 0.698 0.0
C3601 C 0.15586 0.27983 0.7084 0.0
C3602 C 0.16315 0.26133 0.7135 0.0
C3603 C 0.15199 0.24444 0.71046 0.0
C3604 C 0.18236 0.25923 0.72196 0.0
C3605 C 0.16677 0.29861 0.7121 0.0
C3606 C 0.19838 0.26505 0.71256 0.0
C3607 C 0.21639 0.26358 0.72078 0.0
C3608 C 0.21877 0.25621 0.73856 0.0
C3609 C 0.20271 0.24993 0.74774 0.0
C3610 C 0.18474 0.25136 0.7395 0.0
H3611 H 0.15746 0.31159 0.71177 0.0
H3612 H 0.17433 0.29807 0.72555 0.0
H3613 H 0.17735 0.30064 0.7015 0.0
H3614 H 0.19694 0.2708 0.69887 0.0
H3615 H 0.22841 0.2685 0.71328 0.0
H3616 H 0.51361 0.69735 0.14601 0.0
H3617 H 0.51402 0.66264 0.13661 0.0
H3618 H 0.52161 0.68036 0.08111 0.0
H3619 H 0.52113 0.71463 0.09014 0.0
H3620 H 0.49103 0.64142 0.10519 0.0
H3621 H 0.56837 0.64493 0.09744 0.0
H3622 H 0.55607 0.66173 0.11173 0.0
H3623 H 0.55556 0.66506 0.0875 0.0
C3624 C 0.51507 0.69382 0.13177 0.0
C3625 C 0.51759 0.70882 0.11889 0.0
C3626 C 0.51535 0.67401 0.12645 0.0
C3627 C 0.51817 0.669 0.10821 0.0
C3628 C 0.5197 0.68393 0.09528 0.0
H3629 H 0.53444 0.57691 0.0328 0.0
H3630 H 0.53244 0.60707 0.0506 0.0
C3631 C 0.51942 0.70355 0.10052 0.0
C3632 C 0.52036 0.64834 0.10237 0.0
H3633 H 0.55205 0.61807 0.08313 0.0
C3634 C 0.50441 0.6361 0.10069 0.0
C3635 C 0.53783 0.64153 0.09645 0.0
C3636 C 0.55551 0.6539 0.09848 0.0
C3637 C 0.50531 0.61755 0.09234 0.0
C3638 C 0.52267 0.61108 0.08573 0.0
C3639 C 0.53874 0.62306 0.08811 0.0
C3640 C 0.52427 0.59253 0.0753 0.0
C3641 C 0.48751 0.60547 0.0898 0.0
C3642 C 0.52071 0.57427 0.08336 0.0
C3643 C 0.52189 0.55696 0.07322 0.0
C3644 C 0.5267 0.55757 0.0548 0.0
C3645 C 0.53068 0.57587 0.04691 0.0
C3646 C 0.52953 0.59315 0.05707 0.0
H3647 H 0.47475 0.61413 0.09244 0.0
H3648 H 0.48626 0.59946 0.07578 0.0
H3649 H 0.48795 0.59293 0.09941 0.0
H3650 H 0.51699 0.5734 0.09749 0.0
H3651 H 0.51879 0.54312 0.07976 0.0
H3652 H 0.02063 0.77687 0.82102 0.0
H3653 H 0.04831 0.77101 0.8028 0.0
H3654 H 0.076 0.82169 0.82701 0.0
H3655 H 0.04858 0.82769 0.84516 0.0
H3656 H 0.07744 0.81777 0.78695 0.0
H3657 H 0.09973 0.75148 0.82616 0.0
H3658 H 0.07577 0.75247 0.81751 0.0
H3659 H 0.08369 0.76909 0.83513 0.0
C3660 C 0.03261 0.78679 0.82239 0.0
C3661 C 0.03252 0.80267 0.83457 0.0
C3662 C 0.04836 0.7834 0.81201 0.0
C3663 C 0.06412 0.79589 0.8137 0.0
C3664 C 0.0639 0.81194 0.82556 0.0
H3665 H 0.17696 0.81364 0.78394 0.0
H3666 H 0.14398 0.8164 0.79182 0.0
C3667 C 0.04826 0.81528 0.83596 0.0
C3668 C 0.08125 0.79209 0.80364 0.0
H3669 H 0.11994 0.76306 0.80395 0.0
C3670 C 0.08666 0.80568 0.79045 0.0
C3671 C 0.0931 0.77624 0.80826 0.0
C3672 C 0.08794 0.76148 0.82259 0.0
C3673 C 0.10398 0.80414 0.78207 0.0
C3674 C 0.11627 0.78886 0.78736 0.0
C3675 C 0.11047 0.77479 0.79998 0.0
C3676 C 0.13571 0.78791 0.78103 0.0
C3677 C 0.10904 0.81897 0.76777 0.0
C3678 C 0.142 0.77088 0.77261 0.0
C3679 C 0.16087 0.76914 0.76837 0.0
C3680 C 0.1738 0.7844 0.77255 0.0
C3681 C 0.16736 0.80161 0.78066 0.0
C3682 C 0.14848 0.80331 0.78494 0.0
H3683 H 0.09626 0.82542 0.76118 0.0
H3684 H 0.11736 0.83109 0.77429 0.0
H3685 H 0.11762 0.81228 0.75712 0.0
H3686 H 0.13239 0.75876 0.76969 0.0
H3687 H 0.16544 0.75554 0.76243 0.0
H3688 H 0.02278 0.3045 0.607 0.0
H3689 H 0.02521 0.33696 0.59315 0.0
H3690 H 0.01587 0.36397 0.64497 0.0
H3691 H 0.01333 0.33136 0.65907 0.0
H3692 H 0.99185 0.37044 0.60118 0.0
H3693 H 0.0678 0.38699 0.61592 0.0
H3694 H 0.05986 0.36205 0.6119 0.0
H3695 H 0.05371 0.37436 0.63232 0.0
C3696 C 0.02138 0.31731 0.61553 0.0
C3697 C 0.01782 0.31536 0.63415 0.0
C3698 C 0.02277 0.33584 0.60757 0.0
C3699 C 0.02073 0.35278 0.61806 0.0
C3700 C 0.01752 0.351 0.6367 0.0
H3701 H 0.03437 0.47389 0.58056 0.0
H3702 H 0.03258 0.44442 0.59947 0.0
C3703 C 0.01609 0.3324 0.64471 0.0
C3704 C 0.0212 0.37222 0.60914 0.0
H3705 H 0.05102 0.40925 0.59718 0.0
C3706 C 0.00472 0.37905 0.60041 0.0
C3707 C 0.03799 0.38337 0.6083 0.0
C3708 C 0.05594 0.37647 0.61758 0.0
C3709 C 0.00466 0.39668 0.59053 0.0
C3710 C 0.02166 0.4075 0.58901 0.0
C3711 C 0.03803 0.40091 0.59824 0.0
C3712 C 0.02282 0.42537 0.57751 0.0
C3713 C 0.98636 0.40358 0.5819 0.0
C3714 C 0.01823 0.42441 0.55881 0.0
C3715 C 0.01916 0.44122 0.54797 0.0
C3716 C 0.02491 0.45934 0.55558 0.0
C3717 C 0.02985 0.46019 0.57426 0.0
C3718 C 0.02885 0.44336 0.5851 0.0
H3719 H 0.97404 0.39716 0.58876 0.0
H3720 H 0.98538 0.41981 0.58234 0.0
H3721 H 0.9855 0.39886 0.56745 0.0
H3722 H 0.014 0.4106 0.55255 0.0
H3723 H 0.01541 0.43999 0.53362 0.0
H3724 H 0.44377 0.29452 0.34462 0.0
H3725 H 0.41325 0.28073 0.33483 0.0
H3726 H 0.38674 0.31176 0.37794 0.0
H3727 H 0.4171 0.32582 0.38779 0.0
H3728 H 0.39143 0.25683 0.35857 0.0
H3729 H 0.35223 0.32186 0.33264 0.0
H3730 H 0.37756 0.3217 0.33519 0.0
H3731 H 0.36346 0.32447 0.35478 0.0
C3732 C 0.43142 0.29881 0.35178 0.0
C3733 C 0.43294 0.31118 0.36709 0.0
C3734 C 0.41402 0.29082 0.34622 0.0
C3735 C 0.39784 0.29521 0.35572 0.0
C3736 C 0.39908 0.30835 0.37036 0.0
H3737 H 0.28309 0.25834 0.33023 0.0
H3738 H 0.31024 0.26702 0.34991 0.0
C3739 C 0.41647 0.31635 0.37596 0.0
C3740 C 0.37995 0.28493 0.35108 0.0
H3741 H 0.33551 0.29192 0.33383 0.0
C3742 C 0.37914 0.26447 0.35323 0.0
C3743 C 0.36396 0.29504 0.34438 0.0
C3744 C 0.36427 0.31696 0.34145 0.0
C3745 C 0.36278 0.25374 0.34846 0.0
C3746 C 0.34699 0.26376 0.34117 0.0
C3747 C 0.34761 0.2843 0.33961 0.0
C3748 C 0.33052 0.25333 0.33287 0.0
C3749 C 0.3626 0.23181 0.35109 0.0
C3750 C 0.33288 0.24169 0.31741 0.0
C3751 C 0.31741 0.23667 0.30615 0.0
C3752 C 0.2994 0.24344 0.31009 0.0
C3753 C 0.2968 0.25301 0.32674 0.0
C3754 C 0.31231 0.25806 0.33799 0.0
H3755 H 0.37275 0.22737 0.36211 0.0
H3756 H 0.34836 0.22632 0.35438 0.0
H3757 H 0.36682 0.22464 0.33833 0.0
H3758 H 0.34683 0.23806 0.31309 0.0
H3759 H 0.31985 0.22913 0.29349 0.0
H3760 H 0.44497 0.50243 0.33991 0.0
H3761 H 0.45857 0.50752 0.37058 0.0
H3762 H 0.40472 0.52633 0.3889 0.0
H3763 H 0.39096 0.52131 0.35823 0.0
H3764 H 0.43665 0.55184 0.39864 0.0
H3765 H 0.44846 0.47361 0.41644 0.0
H3766 H 0.45746 0.48122 0.39499 0.0
H3767 H 0.43253 0.48104 0.39814 0.0
C3768 C 0.43598 0.50749 0.3505 0.0
C3769 C 0.41689 0.51142 0.3467 0.0
C3770 C 0.44376 0.51036 0.368 0.0
C3771 C 0.43259 0.51718 0.38197 0.0
C3772 C 0.41352 0.52103 0.37826 0.0
H3773 H 0.46508 0.51614 0.4962 0.0
H3774 H 0.44653 0.51649 0.46768 0.0
C3775 C 0.40569 0.51807 0.36078 0.0
C3776 C 0.44096 0.52066 0.40037 0.0
H3777 H 0.46214 0.49744 0.4365 0.0
C3778 C 0.44213 0.53997 0.407 0.0
C3779 C 0.44795 0.5051 0.41121 0.0
C3780 C 0.44644 0.48404 0.40496 0.0
C3781 C 0.45054 0.54415 0.42414 0.0
C3782 C 0.45794 0.52863 0.43476 0.0
C3783 C 0.45644 0.5093 0.42826 0.0
C3784 C 0.46763 0.53195 0.4526 0.0
C3785 C 0.45143 0.56506 0.43081 0.0
C3786 C 0.48537 0.54117 0.45366 0.0
C3787 C 0.49608 0.541 0.46996 0.0
C3788 C 0.4892 0.53148 0.48538 0.0
C3789 C 0.47084 0.52355 0.48457 0.0
C3790 C 0.4602 0.52368 0.46828 0.0
H3791 H 0.44186 0.57471 0.42271 0.0
H3792 H 0.44771 0.56584 0.44533 0.0
H3793 H 0.46602 0.57081 0.42972 0.0
H3794 H 0.4914 0.54745 0.44162 0.0
H3795 H 0.51018 0.54718 0.47012 0.0
H3796 H 0.27001 0.61445 0.04831 0.0
H3797 H 0.26543 0.61782 0.08113 0.0
H3798 H 0.27294 0.68046 0.07681 0.0
H3799 H 0.27739 0.67732 0.04421 0.0
H3800 H 0.29199 0.65833 0.10911 0.0
H3801 H 0.21468 0.64727 0.09718 0.0
H3802 H 0.23094 0.6305 0.08735 0.0
H3803 H 0.22951 0.65517 0.07907 0.0
C3804 C 0.27111 0.62888 0.05446 0.0
C3805 C 0.27387 0.64566 0.0437 0.0
C3806 C 0.2684 0.63076 0.07313 0.0
C3807 C 0.26869 0.64939 0.08121 0.0
C3808 C 0.27264 0.66598 0.07072 0.0
H3809 H 0.23251 0.72066 0.16402 0.0
H3810 H 0.23721 0.70116 0.1366 0.0
C3811 C 0.27513 0.66415 0.05212 0.0
C3812 C 0.26342 0.6522 0.10021 0.0
H3813 H 0.22493 0.65968 0.12568 0.0
C3814 C 0.2774 0.65814 0.11297 0.0
C3815 C 0.24433 0.65209 0.10495 0.0
C3816 C 0.22888 0.64597 0.09149 0.0
C3817 C 0.27269 0.66493 0.13019 0.0
C3818 C 0.25352 0.66573 0.13462 0.0
C3819 C 0.23959 0.65892 0.12217 0.0
C3820 C 0.24774 0.6758 0.15122 0.0
C3821 C 0.2881 0.67235 0.14312 0.0
C3822 C 0.25147 0.66763 0.1684 0.0
C3823 C 0.24881 0.67871 0.18404 0.0
C3824 C 0.24244 0.69815 0.18267 0.0
C3825 C 0.2376 0.70581 0.16544 0.0
C3826 C 0.24019 0.69468 0.14982 0.0
H3827 H 0.3021 0.67245 0.13687 0.0
H3828 H 0.28496 0.68747 0.14767 0.0
H3829 H 0.28883 0.66285 0.15536 0.0
H3830 H 0.25726 0.65305 0.16966 0.0
H3831 H 0.25285 0.67248 0.19712 0.0
H3832 H 0.1516 0.4991 0.86077 0.0
H3833 H 0.1337 0.49983 0.88874 0.0
H3834 H 0.08349 0.51441 0.85733 0.0
H3835 H 0.10109 0.5136 0.82948 0.0
H3836 H 0.11231 0.53132 0.903 0.0
H3837 H 0.06804 0.46563 0.88697 0.0
H3838 H 0.08953 0.47107 0.87549 0.0
H3839 H 0.06818 0.48354 0.86906 0.0
C3840 C 0.13676 0.50249 0.85987 0.0
C3841 C 0.12772 0.50618 0.84296 0.0
C3842 C 0.12658 0.50288 0.87581 0.0
C3843 C 0.10724 0.50682 0.87498 0.0
C3844 C 0.09832 0.51094 0.85817 0.0
H3845 H 0.03315 0.54538 0.95756 0.0
H3846 H 0.05136 0.54102 0.93027 0.0
C3847 C 0.10845 0.51058 0.8423 0.0
C3848 C 0.09627 0.50702 0.89167 0.0
H3849 H 0.0582 0.48591 0.91125 0.0
C3850 C 0.10057 0.52131 0.9049 0.0
C3851 C 0.08112 0.49376 0.89415 0.0
C3852 C 0.07651 0.4775 0.88076 0.0
C3853 C 0.08969 0.52314 0.92034 0.0
C3854 C 0.07398 0.5105 0.92237 0.0
C3855 C 0.07008 0.49576 0.90946 0.0
C3856 C 0.06157 0.51232 0.93794 0.0
C3857 C 0.09509 0.53853 0.93438 0.0
C3858 C 0.06062 0.49721 0.9508 0.0
C3859 C 0.05016 0.49959 0.96635 0.0
C3860 C 0.04041 0.5171 0.96923 0.0
C3861 C 0.04056 0.53176 0.95579 0.0
C3862 C 0.05106 0.52937 0.94027 0.0
H3863 H 0.10984 0.54373 0.93303 0.0
H3864 H 0.08572 0.55133 0.93257 0.0
H3865 H 0.09345 0.53276 0.94836 0.0
H3866 H 0.06851 0.48387 0.94911 0.0
H3867 H 0.05027 0.48798 0.9764 0.0
H3868 H 0.26908 0.3661 0.55737 0.0
H3869 H 0.28485 0.35502 0.5854 0.0
H3870 H 0.30161 0.30207 0.55861 0.0
H3871 H 0.28573 0.31288 0.53045 0.0
H3872 H 0.28417 0.29596 0.59125 0.0
H3873 H 0.34111 0.35162 0.59958 0.0
H3874 H 0.31835 0.36218 0.59544 0.0
H3875 H 0.3285 0.34734 0.57817 0.0
C3876 C 0.27614 0.35211 0.55736 0.0
C3877 C 0.27608 0.34036 0.54164 0.0
C3878 C 0.28536 0.34593 0.57335 0.0
C3879 C 0.29476 0.32798 0.57389 0.0
C3880 C 0.29465 0.31613 0.55832 0.0
H3881 H 0.32645 0.26616 0.67394 0.0
H3882 H 0.32949 0.27621 0.64218 0.0
C3883 C 0.28546 0.32229 0.54229 0.0
C3884 C 0.30307 0.32081 0.59126 0.0
H3885 H 0.33307 0.3337 0.62655 0.0
C3886 C 0.29516 0.30392 0.59884 0.0
C3887 C 0.31739 0.33131 0.60102 0.0
C3888 C 0.32697 0.34902 0.59306 0.0
C3889 C 0.30027 0.29793 0.61649 0.0
C3890 C 0.31403 0.30892 0.62662 0.0
C3891 C 0.32261 0.32529 0.6187 0.0
C3892 C 0.31769 0.30495 0.64612 0.0
C3893 C 0.28999 0.28066 0.62455 0.0
C3894 C 0.31151 0.31841 0.65898 0.0
C3895 C 0.30999 0.3128 0.67711 0.0
C3896 C 0.31455 0.29364 0.68248 0.0
C3897 C 0.32262 0.28093 0.66998 0.0
C3898 C 0.32434 0.28663 0.6519 0.0
H3899 H 0.27748 0.27609 0.61606 0.0
H3900 H 0.29961 0.26799 0.62566 0.0
H3901 H 0.28529 0.28421 0.6384 0.0
H3902 H 0.30638 0.33265 0.65474 0.0
H3903 H 0.30371 0.32284 0.6865 0.0
H3904 H 0.45943 0.48688 0.25728 0.0
H3905 H 0.46726 0.4822 0.22562 0.0
H3906 H 0.40896 0.48936 0.20911 0.0
H3907 H 0.401 0.49458 0.24089 0.0
H3908 H 0.45489 0.45359 0.20208 0.0
H3909 H 0.43523 0.52724 0.1756 0.0
H3910 H 0.43731 0.52201 0.19961 0.0
H3911 H 0.41686 0.51392 0.18655 0.0
C3912 C 0.44825 0.48762 0.24695 0.0
C3913 C 0.42958 0.49117 0.25164 0.0
C3914 C 0.45275 0.48487 0.22883 0.0
C3915 C 0.43873 0.48554 0.21498 0.0
C3916 C 0.42006 0.48913 0.21955 0.0
H3917 H 0.46968 0.44787 0.10484 0.0
H3918 H 0.45328 0.44911 0.13361 0.0
C3919 C 0.41554 0.49208 0.23772 0.0
C3920 C 0.44392 0.48222 0.19588 0.0
H3921 H 0.44699 0.50479 0.15468 0.0
C3922 C 0.45303 0.4647 0.19164 0.0
C3923 C 0.44147 0.49676 0.18233 0.0
C3924 C 0.43233 0.51612 0.1862 0.0
C3925 C 0.46045 0.46165 0.17445 0.0
C3926 C 0.45833 0.47636 0.16101 0.0
C3927 C 0.44854 0.49352 0.16501 0.0
C3928 C 0.46787 0.47527 0.14344 0.0
C3929 C 0.47131 0.44318 0.17112 0.0
C3930 C 0.48122 0.48972 0.1393 0.0
C3931 C 0.49036 0.48922 0.12287 0.0
C3932 C 0.48647 0.47416 0.11016 0.0
C3933 C 0.47303 0.45966 0.11431 0.0
C3934 C 0.46376 0.46025 0.13081 0.0
H3935 H 0.47481 0.43523 0.18396 0.0
H3936 H 0.4627 0.43322 0.16218 0.0
H3937 H 0.48458 0.44658 0.16419 0.0
H3938 H 0.48455 0.50149 0.14882 0.0
H3939 H 0.5002 0.50097 0.12 0.0
H3940 H 0.26955 0.67577 0.96077 0.0
H3941 H 0.26628 0.69559 0.93329 0.0
H3942 H 0.27873 0.64515 0.9006 0.0
H3943 H 0.28169 0.62501 0.92814 0.0
H3944 H 0.29398 0.70288 0.90917 0.0
H3945 H 0.23196 0.66738 0.87449 0.0
H3946 H 0.23811 0.66325 0.89819 0.0
H3947 H 0.25041 0.65069 0.88079 0.0
C3948 C 0.27139 0.6688 0.94773 0.0
C3949 C 0.27588 0.64883 0.94658 0.0
C3950 C 0.26952 0.68017 0.93205 0.0
C3951 C 0.27207 0.67179 0.91493 0.0
C3952 C 0.27634 0.65179 0.91368 0.0
H3953 H 0.30214 0.72752 0.81562 0.0
H3954 H 0.30132 0.71119 0.84506 0.0
C3955 C 0.27814 0.64034 0.9294 0.0
C3956 C 0.27142 0.68437 0.89857 0.0
H3957 H 0.24938 0.69027 0.85705 0.0
C3958 C 0.28414 0.70022 0.89782 0.0
C3959 C 0.2584 0.68099 0.88392 0.0
C3960 C 0.24381 0.66477 0.88439 0.0
C3961 C 0.28453 0.71252 0.88259 0.0
C3962 C 0.27205 0.70864 0.86763 0.0
C3963 C 0.25898 0.69312 0.86855 0.0
C3964 C 0.27292 0.71993 0.85054 0.0
C3965 C 0.29825 0.72957 0.88265 0.0
C3966 C 0.25718 0.73024 0.84388 0.0
C3967 C 0.25756 0.73959 0.82699 0.0
C3968 C 0.27365 0.73857 0.81645 0.0
C3969 C 0.28955 0.72864 0.82342 0.0
C3970 C 0.28915 0.71935 0.84029 0.0
H3971 H 0.30282 0.73382 0.89671 0.0
H3972 H 0.31093 0.72531 0.87528 0.0
H3973 H 0.29198 0.74253 0.87571 0.0
H3974 H 0.2445 0.73076 0.85162 0.0
H3975 H 0.24507 0.74705 0.82196 0.0
H3976 H 0.09728 0.5263 0.74653 0.0
H3977 H 0.0942 0.53326 0.71414 0.0
H3978 H 0.15254 0.51915 0.70774 0.0
H3979 H 0.15589 0.51208 0.74043 0.0
H3980 H 0.11901 0.56319 0.69621 0.0
H3981 H 0.12049 0.48774 0.6669 0.0
H3982 H 0.11362 0.49181 0.69 0.0
H3983 H 0.13774 0.49501 0.68422 0.0
C3984 C 0.10947 0.52444 0.73829 0.0
C3985 C 0.12688 0.51874 0.74612 0.0
C3986 C 0.10767 0.52848 0.71978 0.0
C3987 C 0.12317 0.52683 0.70868 0.0
C3988 C 0.14042 0.52044 0.71617 0.0
H3989 H 0.10187 0.5395 0.59155 0.0
H3990 H 0.12108 0.5383 0.61975 0.0
C3991 C 0.14227 0.51636 0.73481 0.0
C3992 C 0.121 0.53257 0.68941 0.0
H3993 H 0.11154 0.51338 0.6473 0.0
C3994 C 0.11776 0.55239 0.68539 0.0
C3995 C 0.11961 0.51844 0.6754 0.0
C3996 C 0.12299 0.49701 0.67919 0.0
C3997 C 0.11201 0.55831 0.66785 0.0
C3998 C 0.10911 0.54396 0.65416 0.0
C3999 C 0.11372 0.52434 0.65787 0.0
C4000 C 0.09896 0.54835 0.6368 0.0
C4001 C 0.10846 0.57976 0.6643 0.0
C4002 C 0.08031 0.55486 0.63703 0.0
C4003 C 0.06933 0.5556 0.62097 0.0
C4004 C 0.07679 0.54976 0.60443 0.0
C4005 C 0.09581 0.54433 0.60407 0.0
C4006 C 0.10677 0.54353 0.62016 0.0
H4007 H 0.11737 0.58916 0.67354 0.0
H4008 H 0.11127 0.58373 0.65 0.0
H4009 H 0.09353 0.58298 0.6669 0.0
H4010 H 0.07388 0.55828 0.64977 0.0
H4011 H 0.05475 0.55991 0.62162 0.0
H4012 H 0.21158 0.39647 0.45461 0.0
H4013 H 0.19342 0.38675 0.42703 0.0
H4014 H 0.21062 0.32681 0.43509 0.0
H4015 H 0.22853 0.33629 0.46256 0.0
H4016 H 0.20721 0.37032 0.39665 0.0
H4017 H 0.15453 0.31996 0.42447 0.0
H4018 H 0.16743 0.3377 0.43845 0.0
H4019 H 0.17743 0.31413 0.4337 0.0
C4020 C 0.21141 0.38121 0.45049 0.0
C4021 C 0.22146 0.36711 0.4607 0.0
C4022 C 0.20092 0.37569 0.43486 0.0
C4023 C 0.20021 0.35598 0.42937 0.0
C4024 C 0.21042 0.34198 0.43946 0.0
H4025 H 0.21246 0.27811 0.35535 0.0
H4026 H 0.20149 0.29725 0.38053 0.0
C4027 C 0.22089 0.34747 0.45501 0.0
C4028 C 0.19072 0.35001 0.41204 0.0
H4029 H 0.1657 0.31135 0.39402 0.0
C4030 C 0.19751 0.35792 0.39593 0.0
C4031 C 0.17778 0.33412 0.41117 0.0
C4032 C 0.16872 0.32617 0.42792 0.0
C4033 C 0.19381 0.34861 0.37919 0.0
C4034 C 0.18294 0.33108 0.37872 0.0
C4035 C 0.17419 0.32468 0.39448 0.0
C4036 C 0.18482 0.31697 0.36372 0.0
C4037 C 0.20332 0.35628 0.36254 0.0
C4038 C 0.17821 0.3211 0.34598 0.0
C4039 C 0.18438 0.30998 0.33141 0.0
C4040 C 0.19728 0.29469 0.33444 0.0
C4041 C 0.20242 0.2896 0.35242 0.0
C4042 C 0.19619 0.3006 0.3669 0.0
H4043 H 0.21183 0.36976 0.36544 0.0
H4044 H 0.21269 0.34493 0.3571 0.0
H4045 H 0.19255 0.35973 0.35179 0.0
H4046 H 0.16923 0.33358 0.34333 0.0
H4047 H 0.17982 0.31399 0.31773 0.0
H4048 H 0.29098 0.41634 0.49919 0.0
H4049 H 0.3222 0.4303 0.50483 0.0
H4050 H 0.34605 0.38502 0.47209 0.0
H4051 H 0.31478 0.37049 0.46675 0.0
H4052 H 0.36182 0.38625 0.50585 0.0
H4053 H 0.36038 0.46151 0.47788 0.0
H4054 H 0.34104 0.45697 0.49235 0.0
H4055 H 0.34278 0.44323 0.47157 0.0
C4056 C 0.30274 0.40961 0.49271 0.0
C4057 C 0.30036 0.39209 0.48272 0.0
C4058 C 0.32064 0.41773 0.49588 0.0
C4059 C 0.33647 0.40874 0.48885 0.0
C4060 C 0.334 0.39217 0.47766 0.0
H4061 H 0.45523 0.43188 0.51212 0.0
H4062 H 0.42545 0.41767 0.50076 0.0
C4063 C 0.31608 0.38394 0.47455 0.0
C4064 C 0.35555 0.41502 0.49528 0.0
H4065 H 0.3843 0.45512 0.50106 0.0
C4066 C 0.36687 0.40123 0.50453 0.0
C4067 C 0.36204 0.43462 0.4937 0.0
C4068 C 0.35098 0.44986 0.48317 0.0
C4069 C 0.38425 0.40666 0.51272 0.0
C4070 C 0.39043 0.42633 0.51156 0.0
C4071 C 0.37933 0.44006 0.50206 0.0
C4072 C 0.40852 0.43299 0.51994 0.0
C4073 C 0.39567 0.39152 0.52301 0.0
C4074 C 0.40881 0.44592 0.53475 0.0
C4075 C 0.42584 0.45387 0.54149 0.0
C4076 C 0.44283 0.44919 0.53334 0.0
C4077 C 0.44249 0.43554 0.51897 0.0
C4078 C 0.42547 0.42751 0.51233 0.0
H4079 H 0.38757 0.37772 0.52508 0.0
H4080 H 0.40833 0.38802 0.51527 0.0
H4081 H 0.40053 0.39737 0.53648 0.0
H4082 H 0.3958 0.45023 0.5408 0.0
H4083 H 0.42564 0.46416 0.5527 0.0
H4084 H 0.80303 0.06061 0.50085 0.0
H4085 H 0.83264 0.043 0.50623 0.0
H4086 H 0.86364 0.0975 0.50263 0.0
H4087 H 0.83429 0.11513 0.49724 0.0
H4088 H 0.86392 0.04331 0.48158 0.0
H4089 H 0.88413 0.0714 0.55041 0.0
H4090 H 0.86029 0.07226 0.54114 0.0
H4091 H 0.87748 0.09003 0.53424 0.0
C4092 C 0.81614 0.06885 0.50145 0.0
C4093 C 0.81634 0.08925 0.49865 0.0
C4094 C 0.83302 0.05877 0.50446 0.0
C4095 C 0.85027 0.069 0.50497 0.0
C4096 C 0.85045 0.08939 0.50253 0.0
H4097 H 0.96489 0.03768 0.48803 0.0
H4098 H 0.9322 0.04847 0.48531 0.0
C4099 C 0.83366 0.09942 0.49939 0.0
C4100 C 0.86825 0.05841 0.50712 0.0
H4101 H 0.90809 0.05558 0.53412 0.0
C4102 C 0.87351 0.04579 0.49315 0.0
C4103 C 0.88063 0.06159 0.52229 0.0
C4104 C 0.87534 0.07442 0.53798 0.0
C4105 C 0.8912 0.03681 0.49365 0.0
C4106 C 0.90392 0.04071 0.50843 0.0
C4107 C 0.89836 0.05275 0.52272 0.0
C4108 C 0.92327 0.03288 0.5092 0.0
C4109 C 0.89617 0.02329 0.47835 0.0
C4110 C 0.92906 0.0206 0.52355 0.0
C4111 C 0.9477 0.01443 0.52516 0.0
C4112 C 0.96097 0.0206 0.51253 0.0
C4113 C 0.95502 0.03261 0.49795 0.0
C4114 C 0.93633 0.03872 0.49632 0.0
H4115 H 0.88343 0.01793 0.47063 0.0
H4116 H 0.90516 0.03137 0.46878 0.0
H4117 H 0.90417 0.01047 0.48361 0.0
H4118 H 0.9192 0.01601 0.53367 0.0
H4119 H 0.9518 0.0052 0.53657 0.0
H4120 H 0.69174 0.05185 0.29814 0.0
H4121 H 0.7113 0.08018 0.29065 0.0
H4122 H 0.66602 0.11885 0.30335 0.0
H4123 H 0.6464 0.09071 0.31108 0.0
H4124 H 0.70162 0.10545 0.2626 0.0
H4125 H 0.71157 0.14645 0.32733 0.0
H4126 H 0.70412 0.12103 0.32651 0.0
H4127 H 0.6874 0.1402 0.32209 0.0
C4128 C 0.68606 0.06638 0.29979 0.0
C4129 C 0.66741 0.06896 0.3051 0.0
C4130 C 0.69727 0.08255 0.29545 0.0
C4131 C 0.69014 0.10159 0.2965 0.0
C4132 C 0.67192 0.10429 0.30272 0.0
H4133 H 0.7168 0.21753 0.26085 0.0
H4134 H 0.70191 0.18666 0.26951 0.0
C4135 C 0.66068 0.08814 0.30707 0.0
C4136 C 0.70089 0.11842 0.28929 0.0
H4137 H 0.71773 0.16416 0.30005 0.0
C4138 C 0.70538 0.1182 0.27083 0.0
C4139 C 0.70574 0.135 0.30006 0.0
C4140 C 0.70213 0.13566 0.32014 0.0
C4141 C 0.71396 0.13446 0.2627 0.0
C4142 C 0.71825 0.15123 0.27335 0.0
C4143 C 0.71422 0.15128 0.2919 0.0
C4144 C 0.7266 0.16915 0.26553 0.0
C4145 C 0.71781 0.13388 0.24267 0.0
C4146 C 0.74522 0.16934 0.25986 0.0
C4147 C 0.75381 0.18699 0.25483 0.0
C4148 C 0.74389 0.20469 0.25554 0.0
C4149 C 0.72486 0.20418 0.26017 0.0
C4150 C 0.71633 0.18657 0.26521 0.0
H4151 H 0.71074 0.12119 0.23573 0.0
H4152 H 0.71305 0.14761 0.23593 0.0
H4153 H 0.73319 0.1327 0.24089 0.0
H4154 H 0.7534 0.15603 0.26018 0.0
H4155 H 0.76851 0.18689 0.25143 0.0
H4156 H 0.73482 0.95977 0.99713 0.0
H4157 H 0.7159 0.98961 0.99359 0.0
H4158 H 0.67532 0.96528 0.02991 0.0
H4159 H 0.69392 0.93581 0.03337 0.0
H4160 H 0.68026 0.98798 0.97839 0.0
H4161 H 0.67663 0.02204 0.04565 0.0
H4162 H 0.69581 0.0063 0.03976 0.0
H4163 H 0.67438 0.99603 0.04842 0.0
C4164 C 0.72214 0.96116 0.00475 0.0
C4165 C 0.71567 0.94552 0.01541 0.0
C4166 C 0.7114 0.97816 0.00273 0.0
C4167 C 0.69438 0.97978 0.01171 0.0
C4168 C 0.68864 0.9646 0.02322 0.0
H4169 H 0.5859 0.98166 0.9908 0.0
H4170 H 0.61983 0.98274 0.98691 0.0
C4171 C 0.69916 0.94764 0.02503 0.0
C4172 C 0.68069 0.99522 0.00696 0.0
H4173 H 0.64598 0.01903 0.02817 0.0
C4174 C 0.6731 0.99552 0.9891 0.0
C4175 C 0.67172 0.00571 0.02068 0.0
C4176 C 0.68026 0.00767 0.03964 0.0
C4177 C 0.65524 0.00332 0.98531 0.0
C4178 C 0.64474 0.01045 -0.00016 0.0
C4179 C 0.65368 0.01299 0.01703 0.0
C4180 C 0.62394 0.01178 -0.00139 0.0
C4181 C 0.6474 0.00268 0.96602 0.0
C4182 C 0.61486 0.02762 0.00656 0.0
C4183 C 0.59559 0.02665 0.00939 0.0
C4184 C 0.58501 0.00995 0.00405 0.0
C4185 C 0.59377 0.99469 0.99496 0.0
C4186 C 0.61315 0.99547 0.99251 0.0
H4187 H 0.65867 0.00594 0.95633 0.0
H4188 H 0.64199 0.98768 0.9629 0.0
H4189 H 0.63584 0.01331 0.96376 0.0
H4190 H 0.62284 0.04031 0.01142 0.0
H4191 H 0.58905 0.03875 0.01622 0.0
H4192 H 0.35893 0.46045 0.30449 0.0
H4193 H 0.33898 0.43137 0.30024 0.0
H4194 H 0.38716 0.39437 0.30939 0.0
H4195 H 0.40726 0.42342 0.31398 0.0
H4196 H 0.34357 0.40484 0.27278 0.0
H4197 H 0.34752 0.36747 0.33988 0.0
H4198 H 0.35467 0.39276 0.33697 0.0
H4199 H 0.36994 0.37327 0.3306 0.0
C4200 C 0.36528 0.44614 0.30593 0.0
C4201 C 0.38474 0.44429 0.30948 0.0
C4202 C 0.35383 0.42953 0.30349 0.0
C4203 C 0.36156 0.41072 0.30458 0.0
C4204 C 0.38084 0.40875 0.30881 0.0
H4205 H 0.31336 0.30518 0.25457 0.0
H4206 H 0.33308 0.33372 0.26272 0.0
C4207 C 0.39233 0.42539 0.31136 0.0
C4208 C 0.34972 0.3934 0.29961 0.0
H4209 H 0.33286 0.34973 0.31534 0.0
C4210 C 0.34118 0.39282 0.28211 0.0
C4211 C 0.34664 0.37776 0.31181 0.0
C4212 C 0.35503 0.37785 0.33093 0.0
C4213 C 0.32966 0.377 0.27646 0.0
C4214 C 0.32677 0.36127 0.28856 0.0
C4215 C 0.33522 0.36183 0.30609 0.0
C4216 C 0.31472 0.34424 0.28335 0.0
C4217 C 0.32041 0.37737 0.2577 0.0
C4218 C 0.29792 0.34075 0.2923 0.0
C4219 C 0.28659 0.32454 0.28764 0.0
C4220 C 0.29196 0.31142 0.27404 0.0
C4221 C 0.30875 0.31507 0.265 0.0
C4222 C 0.32004 0.33135 0.26964 0.0
H4223 H 0.32089 0.39224 0.25155 0.0
H4224 H 0.32785 0.36718 0.24871 0.0
H4225 H 0.30549 0.37243 0.25814 0.0
H4226 H 0.29361 0.35057 0.30293 0.0
H4227 H 0.2738 0.3221 0.29495 0.0
H4228 H 0.2302 0.58617 0.99441 0.0
H4229 H 0.19996 0.5705 0.00049 0.0
H4230 H 0.17106 0.62239 0.98187 0.0
H4231 H 0.20108 0.63809 0.97555 0.0
H4232 H 0.17551 0.58568 0.02558 0.0
H4233 H 0.13986 0.57835 0.95772 0.0
H4234 H 0.16494 0.58233 0.96064 0.0
H4235 H 0.14907 0.60258 0.96211 0.0
C4236 C 0.21741 0.59409 0.99115 0.0
C4237 C 0.2181 0.61346 0.98459 0.0
C4238 C 0.20015 0.58512 0.99471 0.0
C4239 C 0.1833 0.59525 0.99156 0.0
C4240 C 0.18388 0.61418 0.98414 0.0
H4241 H 0.06662 0.5844 0.01643 0.0
H4242 H 0.09829 0.59564 0.00942 0.0
C4243 C 0.2011 0.62318 0.98062 0.0
C4244 C 0.16527 0.58698 0.99771 0.0
H4245 H 0.12027 0.57585 0.98344 0.0
C4246 C 0.16348 0.58328 0.01636 0.0
C4247 C 0.14962 0.58396 0.98564 0.0
C4248 C 0.15098 0.58682 0.96539 0.0
C4249 C 0.14622 0.57728 0.02335 0.0
C4250 C 0.13048 0.57474 0.01132 0.0
C4251 C 0.13237 0.57802 0.99263 0.0
C4252 C 0.11182 0.5687 0.01777 0.0
C4253 C 0.1448 0.57433 0.04358 0.0
C4254 C 0.10906 0.55001 0.02522 0.0
C4255 C 0.09098 0.54353 0.02932 0.0
C4256 C 0.07536 0.55563 0.0259 0.0
C4257 C 0.07833 0.57472 0.01927 0.0
C4258 C 0.09641 0.58115 0.01516 0.0
H4259 H 0.15696 0.58101 0.0513 0.0
H4260 H 0.13162 0.58074 0.04851 0.0
H4261 H 0.1445 0.55839 0.04658 0.0
H4262 H 0.12076 0.5401 0.02713 0.0
H4263 H 0.08916 0.52872 0.03433 0.0
H4264 H 0.65152 0.94196 0.28874 0.0
H4265 H 0.66875 0.9112 0.28713 0.0
H4266 H 0.72092 0.94361 0.28355 0.0
H4267 H 0.70381 0.9745 0.28523 0.0
H4268 H 0.69342 0.89753 0.26001 0.0
H4269 H 0.72921 0.9064 0.32795 0.0
H4270 H 0.70891 0.92052 0.32089 0.0
H4271 H 0.7317 0.92678 0.31268 0.0
C4272 C 0.66664 0.94256 0.28745 0.0
C4273 C 0.67633 0.96065 0.2872 0.0
C4274 C 0.67645 0.92498 0.28657 0.0
C4275 C 0.6961 0.92518 0.28556 0.0
C4276 C 0.70577 0.94319 0.28466 0.0
H4277 H 0.76894 0.8304 0.25832 0.0
H4278 H 0.75334 0.8618 0.26171 0.0
C4279 C 0.69596 0.9608 0.28547 0.0
C4280 C 0.70645 0.9065 0.28556 0.0
H4281 H 0.73839 0.87934 0.31014 0.0
C4282 C 0.70324 0.89353 0.27096 0.0
C4283 C 0.71904 0.90127 0.30002 0.0
C4284 C 0.72236 0.91436 0.31638 0.0
C4285 C 0.7126 0.87558 0.27026 0.0
C4286 C 0.72556 0.87059 0.28446 0.0
C4287 C 0.72852 0.88335 0.29924 0.0
C4288 C 0.73633 0.85223 0.2839 0.0
C4289 C 0.7085 0.86199 0.25438 0.0
C4290 C 0.7324 0.83672 0.29577 0.0
C4291 C 0.74131 0.81867 0.2939 0.0
C4292 C 0.75431 0.81596 0.28016 0.0
C4293 C 0.75889 0.83192 0.26896 0.0
C4294 C 0.74997 0.84988 0.27082 0.0
H4295 H 0.69549 0.86612 0.24658 0.0
H4296 H 0.72042 0.86263 0.24504 0.0
H4297 H 0.70699 0.8466 0.25911 0.0
H4298 H 0.72194 0.83837 0.30602 0.0
H4299 H 0.7375 0.80667 0.30275 0.0
H4300 H 0.84688 0.0323 0.77692 0.0
H4301 H 0.82574 0.05997 0.77144 0.0
H4302 H 0.87233 0.10034 0.77993 0.0
H4303 H 0.89353 0.07285 0.78537 0.0
H4304 H 0.81984 0.0898 0.79759 0.0
H4305 H 0.84545 0.1206 0.73307 0.0
H4306 H 0.85059 0.09591 0.74048 0.0
H4307 H 0.86377 0.11634 0.74998 0.0
C4308 C 0.85269 0.04706 0.77726 0.0
C4309 C 0.87187 0.05041 0.7816 0.0
C4310 C 0.84058 0.06283 0.77419 0.0
C4311 C 0.84751 0.08216 0.77516 0.0
C4312 C 0.86676 0.08551 0.77884 0.0
H4313 H 0.79869 0.19249 0.80049 0.0
H4314 H 0.81323 0.16015 0.80108 0.0
C4315 C 0.87885 0.06978 0.78201 0.0
C4316 C 0.83448 0.09891 0.77381 0.0
H4317 H 0.826 0.14131 0.75049 0.0
C4318 C 0.821 0.10096 0.78716 0.0
C4319 C 0.83594 0.11332 0.76011 0.0
C4320 C 0.8496 0.1114 0.74498 0.0
C4321 C 0.80943 0.11749 0.78761 0.0
C4322 C 0.81156 0.13237 0.77445 0.0
C4323 C 0.82451 0.12993 0.76066 0.0
C4324 C 0.80104 0.15095 0.77505 0.0
C4325 C 0.79512 0.11895 0.80219 0.0
C4326 C 0.78928 0.15644 0.76028 0.0
C4327 C 0.78096 0.17489 0.75989 0.0
C4328 C 0.78442 0.18831 0.7742 0.0
C4329 C 0.79568 0.18249 0.78929 0.0
C4330 C 0.80395 0.16399 0.78968 0.0
H4331 H 0.79174 0.10435 0.80801 0.0
H4332 H 0.8009 0.1284 0.81338 0.0
H4333 H 0.78191 0.12564 0.79677 0.0
H4334 H 0.78691 0.1466 0.74884 0.0
H4335 H 0.77237 0.17888 0.74805 0.0
loop_
_geom_bond_atom_site_label_1
_geom_bond_atom_site_label_2
_geom_bond_distance
_geom_bond_site_symmetry_2
_ccdc_geom_bond_type
Co0 O1 2.216 . S
Co0 O2 2.091 . S
Co0 O4 2.004 . S
Co0 O10 2.021 . S
Co0 O12 2.137 . S
Co0 O13 2.244 . S
O1 Co0 2.216 . S
O1 C8 1.247 . S
O2 Co0 2.091 . S
O2 C8 1.261 . S
C3 O12 1.247 . S
C3 O13 1.272 . S
O4 Co0 2.004 . S
O4 C9 1.259 . S
Co5 O6 2.061 . S
Co5 O11 2.052 . S
Co5 O13 2.135 . S
O6 Co5 2.061 . S
O6 C9 1.235 . S
C7 O10 1.238 . S
C7 O11 1.241 . S
C8 O1 1.247 . S
C8 O2 1.261 . S
C9 O4 1.259 . S
C9 O6 1.235 . S
O10 Co0 2.021 . S
O10 C7 1.238 . S
O11 Co5 2.052 . S
O11 C7 1.241 . S
O12 Co0 2.137 . S
O12 C3 1.247 . S
O13 Co0 2.244 . S
O13 C3 1.272 . S
O13 Co5 2.135 . S
Co14 O15 2.216 . S
Co14 O16 2.091 . S
Co14 O18 2.004 . S
Co14 O24 2.021 . S
Co14 O26 2.137 . S
Co14 O27 2.244 . S
O15 Co14 2.216 . S
O15 C22 1.247 . S
O16 Co14 2.091 . S
O16 C22 1.261 . S
C17 O26 1.247 . S
C17 O27 1.272 . S
O18 Co14 2.004 . S
O18 C23 1.259 1_455 S
Co19 O20 2.061 . S
Co19 O25 2.052 1_655 S
Co19 O27 2.135 1_655 S
O20 Co19 2.061 . S
O20 C23 1.235 . S
C21 O24 1.238 . S
C21 O25 1.241 . S
C22 O15 1.247 . S
C22 O16 1.261 . S
C23 O18 1.259 1_655 S
C23 O20 1.235 . S
O24 Co14 2.021 . S
O24 C21 1.238 . S
O25 Co19 2.052 1_455 S
O25 C21 1.241 . S
O26 Co14 2.137 . S
O26 C17 1.247 . S
O27 Co14 2.244 . S
O27 C17 1.272 . S
O27 Co19 2.135 1_455 S
Co28 O29 2.216 . S
Co28 O30 2.091 . S
Co28 O32 2.004 . S
Co28 O38 2.021 . S
Co28 O40 2.137 . S
Co28 O41 2.244 . S
O29 Co28 2.216 . S
O29 C36 1.247 . S
O30 Co28 2.091 . S
O30 C36 1.261 . S
C31 O40 1.247 . S
C31 O41 1.272 . S
O32 Co28 2.004 . S
O32 C37 1.259 . S
Co33 O34 2.061 . S
Co33 O39 2.052 . S
Co33 O41 2.135 . S
O34 Co33 2.061 . S
O34 C37 1.235 . S
C35 O38 1.238 . S
C35 O39 1.241 . S
C36 O29 1.247 . S
C36 O30 1.261 . S
C37 O32 1.259 . S
C37 O34 1.235 . S
O38 Co28 2.021 . S
O38 C35 1.238 . S
O39 Co33 2.052 . S
O39 C35 1.241 . S
O40 Co28 2.137 . S
O40 C31 1.247 . S
O41 Co28 2.244 . S
O41 C31 1.272 . S
O41 Co33 2.135 . S
Co42 O43 2.216 . S
Co42 O44 2.091 . S
Co42 O46 2.004 . S
Co42 O52 2.021 . S
Co42 O54 2.137 . S
Co42 O55 2.244 . S
O43 Co42 2.216 . S
O43 C50 1.247 . S
O44 Co42 2.091 . S
O44 C50 1.261 . S
C45 O54 1.247 . S
C45 O55 1.272 . S
O46 Co42 2.004 . S
O46 C51 1.259 . S
Co47 O48 2.061 . S
Co47 O53 2.052 . S
Co47 O55 2.135 . S
O48 Co47 2.061 . S
O48 C51 1.235 . S
C49 O52 1.238 . S
C49 O53 1.241 . S
C50 O43 1.247 . S
C50 O44 1.261 . S
C51 O46 1.259 . S
C51 O48 1.235 . S
O52 Co42 2.021 . S
O52 C49 1.238 . S
O53 Co47 2.052 . S
O53 C49 1.241 . S
O54 Co42 2.137 . S
O54 C45 1.247 . S
O55 Co42 2.244 . S
O55 C45 1.272 . S
O55 Co47 2.135 . S
Co56 O57 2.216 1_545 S
Co56 O58 2.091 1_545 S
Co56 O60 2.004 . S
Co56 O66 2.021 . S
Co56 O68 2.137 . S
Co56 O69 2.244 . S
O57 Co56 2.216 1_565 S
O57 C64 1.247 . S
O58 Co56 2.091 1_565 S
O58 C64 1.261 . S
C59 O68 1.247 . S
C59 O69 1.272 . S
O60 Co56 2.004 . S
O60 C65 1.259 . S
Co61 O62 2.061 . S
Co61 O67 2.052 . S
Co61 O69 2.135 . S
O62 Co61 2.061 . S
O62 C65 1.235 . S
C63 O66 1.238 . S
C63 O67 1.241 . S
C64 O57 1.247 . S
C64 O58 1.261 . S
C65 O60 1.259 . S
C65 O62 1.235 . S
O66 Co56 2.021 . S
O66 C63 1.238 . S
O67 Co61 2.052 . S
O67 C63 1.241 . S
O68 Co56 2.137 . S
O68 C59 1.247 . S
O69 Co56 2.244 . S
O69 C59 1.272 . S
O69 Co61 2.135 . S
Co70 O71 2.216 . S
Co70 O72 2.091 . S
Co70 O74 2.004 . S
Co70 O80 2.021 . S
Co70 O82 2.137 . S
Co70 O83 2.244 . S
O71 Co70 2.216 . S
O71 C78 1.247 . S
O72 Co70 2.091 . S
O72 C78 1.261 . S
C73 O82 1.247 . S
C73 O83 1.272 . S
O74 Co70 2.004 . S
O74 C79 1.259 . S
Co75 O76 2.061 . S
Co75 O81 2.052 . S
Co75 O83 2.135 . S
O76 Co75 2.061 . S
O76 C79 1.235 . S
C77 O80 1.238 . S
C77 O81 1.241 . S
C78 O71 1.247 . S
C78 O72 1.261 . S
C79 O74 1.259 . S
C79 O76 1.235 . S
O80 Co70 2.021 . S
O80 C77 1.238 . S
O81 Co75 2.052 . S
O81 C77 1.241 . S
O82 Co70 2.137 . S
O82 C73 1.247 . S
O83 Co70 2.244 . S
O83 C73 1.272 . S
O83 Co75 2.135 . S
Co84 O85 2.216 . S
Co84 O86 2.091 . S
Co84 O88 2.004 1_545 S
Co84 O94 2.021 . S
Co84 O96 2.137 . S
Co84 O97 2.244 . S
O85 Co84 2.216 . S
O85 C92 1.247 . S
O86 Co84 2.091 . S
O86 C92 1.261 . S
C87 O96 1.247 . S
C87 O97 1.272 . S
O88 Co84 2.004 1_565 S
O88 C93 1.259 . S
Co89 O90 2.061 . S
Co89 O95 2.052 . S
Co89 O97 2.135 1_565 S
O90 Co89 2.061 . S
O90 C93 1.235 . S
C91 O94 1.238 . S
C91 O95 1.241 1_545 S
C92 O85 1.247 . S
C92 O86 1.261 . S
C93 O88 1.259 . S
C93 O90 1.235 . S
O94 Co84 2.021 . S
O94 C91 1.238 . S
O95 Co89 2.052 . S
O95 C91 1.241 1_565 S
O96 Co84 2.137 . S
O96 C87 1.247 . S
O97 Co84 2.244 . S
O97 C87 1.272 . S
O97 Co89 2.135 1_545 S
Co98 O99 2.216 . S
Co98 O100 2.091 . S
Co98 O102 2.004 . S
Co98 O108 2.021 . S
Co98 O110 2.137 1_554 S
Co98 O111 2.244 . S
O99 Co98 2.216 . S
O99 C106 1.247 . S
O100 Co98 2.091 . S
O100 C106 1.261 . S
C101 O110 1.247 . S
C101 O111 1.272 1_556 S
O102 Co98 2.004 . S
O102 C107 1.259 . S
Co103 O104 2.061 . S
Co103 O109 2.052 . S
Co103 O111 2.135 . S
O104 Co103 2.061 . S
O104 C107 1.235 . S
C105 O108 1.238 . S
C105 O109 1.241 . S
C106 O99 1.247 . S
C106 O100 1.261 . S
C107 O102 1.259 . S
C107 O104 1.235 . S
O108 Co98 2.021 . S
O108 C105 1.238 . S
O109 Co103 2.052 . S
O109 C105 1.241 . S
O110 Co98 2.137 1_556 S
O110 C101 1.247 . S
O111 Co98 2.244 . S
O111 C101 1.272 1_554 S
O111 Co103 2.135 . S
Co112 O113 2.216 . S
Co112 O114 2.091 . S
Co112 O116 2.004 . S
Co112 O122 2.021 . S
Co112 O124 2.137 . S
Co112 O125 2.244 . S
O113 Co112 2.216 . S
O113 C120 1.247 . S
O114 Co112 2.091 . S
O114 C120 1.261 . S
C115 O124 1.247 . S
C115 O125 1.272 . S
O116 Co112 2.004 . S
O116 C121 1.259 . S
Co117 O118 2.061 . S
Co117 O123 2.052 . S
Co117 O125 2.135 . S
O118 Co117 2.061 . S
O118 C121 1.235 . S
C119 O122 1.238 . S
C119 O123 1.241 . S
C120 O113 1.247 . S
C120 O114 1.261 . S
C121 O116 1.259 . S
C121 O118 1.235 . S
O122 Co112 2.021 . S
O122 C119 1.238 . S
O123 Co117 2.052 . S
O123 C119 1.241 . S
O124 Co112 2.137 . S
O124 C115 1.247 . S
O125 Co112 2.244 . S
O125 C115 1.272 . S
O125 Co117 2.135 . S
Co126 O127 2.216 . S
Co126 O128 2.091 . S
Co126 O130 2.004 . S
Co126 O136 2.021 . S
Co126 O138 2.137 . S
Co126 O139 2.244 . S
O127 Co126 2.216 . S
O127 C134 1.247 . S
O128 Co126 2.091 . S
O128 C134 1.261 . S
C129 O138 1.247 . S
C129 O139 1.272 . S
O130 Co126 2.004 . S
O130 C135 1.259 . S
Co131 O132 2.061 . S
Co131 O137 2.052 . S
Co131 O139 2.135 . S
O132 Co131 2.061 . S
O132 C135 1.235 . S
C133 O136 1.238 . S
C133 O137 1.241 . S
C134 O127 1.247 . S
C134 O128 1.261 . S
C135 O130 1.259 . S
C135 O132 1.235 . S
O136 Co126 2.021 . S
O136 C133 1.238 . S
O137 Co131 2.052 . S
O137 C133 1.241 . S
O138 Co126 2.137 . S
O138 C129 1.247 . S
O139 Co126 2.244 . S
O139 C129 1.272 . S
O139 Co131 2.135 . S
Co140 O141 2.216 . S
Co140 O142 2.091 . S
Co140 O144 2.004 . S
Co140 O150 2.021 . S
Co140 O152 2.137 . S
Co140 O153 2.244 . S
O141 Co140 2.216 . S
O141 C148 1.247 . S
O142 Co140 2.091 . S
O142 C148 1.261 . S
C143 O152 1.247 . S
C143 O153 1.272 . S
O144 Co140 2.004 . S
O144 C149 1.259 . S
Co145 O146 2.061 . S
Co145 O151 2.052 . S
Co145 O153 2.135 . S
O146 Co145 2.061 . S
O146 C149 1.235 . S
C147 O150 1.238 . S
C147 O151 1.241 . S
C148 O141 1.247 . S
C148 O142 1.261 . S
C149 O144 1.259 . S
C149 O146 1.235 . S
O150 Co140 2.021 . S
O150 C147 1.238 . S
O151 Co145 2.052 . S
O151 C147 1.241 . S
O152 Co140 2.137 . S
O152 C143 1.247 . S
O153 Co140 2.244 . S
O153 C143 1.272 . S
O153 Co145 2.135 . S
Co154 O155 2.216 . S
Co154 O156 2.091 . S
Co154 O158 2.004 . S
Co154 O164 2.021 . S
Co154 O166 2.137 . S
Co154 O167 2.244 . S
O155 Co154 2.216 . S
O155 C162 1.247 . S
O156 Co154 2.091 . S
O156 C162 1.261 . S
C157 O166 1.247 . S
C157 O167 1.272 . S
O158 Co154 2.004 . S
O158 C163 1.259 . S
Co159 O160 2.061 . S
Co159 O165 2.052 . S
Co159 O167 2.135 . S
O160 Co159 2.061 . S
O160 C163 1.235 . S
C161 O164 1.238 . S
C161 O165 1.241 . S
C162 O155 1.247 . S
C162 O156 1.261 . S
C163 O158 1.259 . S
C163 O160 1.235 . S
O164 Co154 2.021 . S
O164 C161 1.238 . S
O165 Co159 2.052 . S
O165 C161 1.241 . S
O166 Co154 2.137 . S
O166 C157 1.247 . S
O167 Co154 2.244 . S
O167 C157 1.272 . S
O167 Co159 2.135 . S
Co168 O169 2.216 . S
Co168 O170 2.091 . S
Co168 O172 2.004 1_455 S
Co168 O178 2.021 . S
Co168 O180 2.137 . S
Co168 O181 2.244 1_455 S
O169 Co168 2.216 . S
O169 C176 1.247 . S
O170 Co168 2.091 . S
O170 C176 1.261 . S
C171 O180 1.246 . S
C171 O181 1.272 1_455 S
O172 Co168 2.004 1_655 S
O172 C177 1.259 . S
Co173 O174 2.061 . S
Co173 O179 2.052 . S
Co173 O181 2.135 . S
O174 Co173 2.061 . S
O174 C177 1.235 . S
C175 O178 1.238 1_655 S
C175 O179 1.241 . S
C176 O169 1.247 . S
C176 O170 1.261 . S
C177 O172 1.259 . S
C177 O174 1.235 . S
O178 Co168 2.021 . S
O178 C175 1.238 1_455 S
O179 Co173 2.052 . S
O179 C175 1.241 . S
O180 Co168 2.137 . S
O180 C171 1.246 . S
O181 Co168 2.244 1_655 S
O181 C171 1.272 1_655 S
O181 Co173 2.135 . S
Co182 O183 2.216 1_455 S
Co182 O184 2.109 . S
Co182 O186 2.004 . S
Co182 O192 2.021 . S
Co182 O194 2.137 . S
Co182 O195 2.244 . S
O183 Co182 2.216 1_655 S
O183 C190 1.247 . S
O184 Co182 2.109 . S
O184 C190 1.240 1_455 S
C185 O194 1.247 . S
C185 O195 1.272 . S
O186 Co182 2.004 . S
O186 C191 1.259 . S
Co187 O188 2.061 . S
Co187 O193 2.052 . S
Co187 O195 2.135 . S
O188 Co187 2.061 . S
O188 C191 1.235 . S
C189 O192 1.238 . S
C189 O193 1.241 . S
C190 O183 1.247 . S
C190 O184 1.240 1_655 S
C191 O186 1.259 . S
C191 O188 1.235 . S
O192 Co182 2.021 . S
O192 C189 1.238 . S
O193 Co187 2.052 . S
O193 C189 1.241 . S
O194 Co182 2.137 . S
O194 C185 1.247 . S
O195 Co182 2.244 . S
O195 C185 1.272 . S
O195 Co187 2.135 . S
Co196 O197 2.216 . S
Co196 O198 2.091 . S
Co196 O200 2.004 . S
Co196 O206 2.021 . S
Co196 O208 2.137 . S
Co196 O209 2.244 . S
O197 Co196 2.216 . S
O197 C204 1.247 . S
O198 Co196 2.091 . S
O198 C204 1.261 . S
C199 O208 1.247 . S
C199 O209 1.272 . S
O200 Co196 2.004 . S
O200 C205 1.259 . S
Co201 O202 2.061 . S
Co201 O207 2.052 . S
Co201 O209 2.135 . S
O202 Co201 2.061 . S
O202 C205 1.235 . S
C203 O206 1.238 . S
C203 O207 1.241 . S
C204 O197 1.247 . S
C204 O198 1.261 . S
C205 O200 1.259 . S
C205 O202 1.235 . S
O206 Co196 2.021 . S
O206 C203 1.238 . S
O207 Co201 2.052 . S
O207 C203 1.241 . S
O208 Co196 2.137 . S
O208 C199 1.247 . S
O209 Co196 2.244 . S
O209 C199 1.272 . S
O209 Co201 2.135 . S
Co210 O211 2.216 . S
Co210 O212 2.091 . S
Co210 O214 2.004 . S
Co210 O220 2.021 . S
Co210 O222 2.137 . S
Co210 O223 2.244 . S
O211 Co210 2.216 . S
O211 C218 1.247 . S
O212 Co210 2.091 . S
O212 C218 1.261 . S
C213 O222 1.247 . S
C213 O223 1.272 . S
O214 Co210 2.004 . S
O214 C219 1.259 . S
Co215 O216 2.061 . S
Co215 O221 2.052 . S
Co215 O223 2.135 . S
O216 Co215 2.061 . S
O216 C219 1.235 . S
C217 O220 1.238 . S
C217 O221 1.241 . S
C218 O211 1.247 . S
C218 O212 1.261 . S
C219 O214 1.259 . S
C219 O216 1.235 . S
O220 Co210 2.021 . S
O220 C217 1.238 . S
O221 Co215 2.052 . S
O221 C217 1.241 . S
O222 Co210 2.137 . S
O222 C213 1.247 . S
O223 Co210 2.244 . S
O223 C213 1.272 . S
O223 Co215 2.135 . S
Co224 O225 2.216 . S
Co224 O226 2.091 . S
Co224 O228 2.004 1_545 S
Co224 O234 2.021 . S
Co224 O236 2.137 . S
Co224 O237 2.237 1_545 S
O225 Co224 2.216 . S
O225 C232 1.247 . S
O226 Co224 2.091 . S
O226 C232 1.261 . S
C227 O236 1.247 . S
C227 O237 1.265 1_545 S
O228 Co224 2.004 1_565 S
O228 C233 1.259 . S
Co229 O230 2.061 . S
Co229 O235 2.052 . S
Co229 O237 2.152 . S
O230 Co229 2.061 . S
O230 C233 1.235 . S
C231 O234 1.238 . S
C231 O235 1.241 1_545 S
C232 O225 1.247 . S
C232 O226 1.261 . S
C233 O228 1.259 . S
C233 O230 1.235 . S
O234 Co224 2.021 . S
O234 C231 1.238 . S
O235 Co229 2.052 . S
O235 C231 1.241 1_565 S
O236 Co224 2.137 . S
O236 C227 1.247 . S
O237 Co224 2.237 1_565 S
O237 C227 1.265 1_565 S
O237 Co229 2.152 . S
Co238 O239 2.216 . S
Co238 O240 2.091 . S
Co238 O242 2.004 . S
Co238 O248 2.021 . S
Co238 O250 2.137 . S
Co238 O251 2.244 . S
O239 Co238 2.216 . S
O239 C246 1.247 . S
O240 Co238 2.091 . S
O240 C246 1.261 . S
C241 O250 1.247 . S
C241 O251 1.272 . S
O242 Co238 2.004 . S
O242 C247 1.259 . S
Co243 O244 2.061 . S
Co243 O249 2.052 . S
Co243 O251 2.135 . S
O244 Co243 2.061 . S
O244 C247 1.235 . S
C245 O248 1.238 . S
C245 O249 1.241 . S
C246 O239 1.247 . S
C246 O240 1.261 . S
C247 O242 1.259 . S
C247 O244 1.235 . S
O248 Co238 2.021 . S
O248 C245 1.238 . S
O249 Co243 2.052 . S
O249 C245 1.241 . S
O250 Co238 2.137 . S
O250 C241 1.247 . S
O251 Co238 2.244 . S
O251 C241 1.272 . S
O251 Co243 2.135 . S
Co252 O253 2.216 1_545 S
Co252 O254 2.091 1_545 S
Co252 O256 2.004 . S
Co252 O262 2.021 . S
Co252 O264 2.137 . S
Co252 O265 2.244 . S
O253 Co252 2.216 1_565 S
O253 C260 1.247 . S
O254 Co252 2.091 1_565 S
O254 C260 1.261 . S
C255 O264 1.247 . S
C255 O265 1.272 . S
O256 Co252 2.004 . S
O256 C261 1.259 . S
Co257 O258 2.061 . S
Co257 O263 2.052 . S
Co257 O265 2.135 . S
O258 Co257 2.061 . S
O258 C261 1.235 . S
C259 O262 1.238 . S
C259 O263 1.241 . S
C260 O253 1.247 . S
C260 O254 1.261 . S
C261 O256 1.259 . S
C261 O258 1.235 . S
O262 Co252 2.021 . S
O262 C259 1.238 . S
O263 Co257 2.052 . S
O263 C259 1.241 . S
O264 Co252 2.137 . S
O264 C255 1.247 . S
O265 Co252 2.244 . S
O265 C255 1.272 . S
O265 Co257 2.135 . S
Co266 O267 2.216 . S
Co266 O268 2.091 . S
Co266 O270 2.004 . S
Co266 O276 2.021 . S
Co266 O278 2.137 1_554 S
Co266 O279 2.244 . S
O267 Co266 2.216 . S
O267 C274 1.247 . S
O268 Co266 2.091 . S
O268 C274 1.261 . S
C269 O278 1.247 . S
C269 O279 1.272 1_556 S
O270 Co266 2.004 . S
O270 C275 1.259 . S
Co271 O272 2.061 . S
Co271 O277 2.052 . S
Co271 O279 2.135 . S
O272 Co271 2.061 . S
O272 C275 1.235 . S
C273 O276 1.238 . S
C273 O277 1.241 . S
C274 O267 1.247 . S
C274 O268 1.261 . S
C275 O270 1.259 . S
C275 O272 1.235 . S
O276 Co266 2.021 . S
O276 C273 1.238 . S
O277 Co271 2.052 . S
O277 C273 1.241 . S
O278 Co266 2.137 1_556 S
O278 C269 1.247 . S
O279 Co266 2.244 . S
O279 C269 1.272 1_554 S
O279 Co271 2.135 . S
Co280 O281 2.218 . S
Co280 O282 2.087 1_556 S
Co280 O284 2.004 . S
Co280 O290 2.021 1_556 S
Co280 O292 2.137 . S
Co280 O293 2.244 . S
O281 Co280 2.218 . S
O281 C288 1.241 1_556 S
O282 Co280 2.087 1_554 S
O282 C288 1.261 . S
C283 O292 1.247 . S
C283 O293 1.272 . S
O284 Co280 2.004 . S
O284 C289 1.259 . S
Co285 O286 2.059 1_556 S
Co285 O291 2.012 1_556 S
Co285 O293 2.163 . S
O286 Co285 2.059 1_554 S
O286 C289 1.233 1_554 S
C287 O290 1.238 . S
C287 O291 1.241 . S
C288 O281 1.241 1_554 S
C288 O282 1.261 . S
C289 O284 1.259 . S
C289 O286 1.233 1_556 S
O290 Co280 2.021 1_554 S
O290 C287 1.238 . S
O291 Co285 2.012 1_554 S
O291 C287 1.241 . S
O292 Co280 2.137 . S
O292 C283 1.247 . S
O293 Co280 2.244 . S
O293 C283 1.272 . S
O293 Co285 2.163 . S
Co294 O295 2.216 . S
Co294 O296 2.091 . S
Co294 O298 2.004 . S
Co294 O304 2.021 . S
Co294 O306 2.137 . S
Co294 O307 2.244 . S
O295 Co294 2.216 . S
O295 C302 1.247 . S
O296 Co294 2.091 . S
O296 C302 1.261 . S
C297 O306 1.247 . S
C297 O307 1.272 . S
O298 Co294 2.004 . S
O298 C303 1.259 . S
Co299 O300 2.061 . S
Co299 O305 2.052 . S
Co299 O307 2.135 . S
O300 Co299 2.061 . S
O300 C303 1.235 . S
C301 O304 1.238 . S
C301 O305 1.241 . S
C302 O295 1.247 . S
C302 O296 1.261 . S
C303 O298 1.259 . S
C303 O300 1.235 . S
O304 Co294 2.021 . S
O304 C301 1.238 . S
O305 Co299 2.052 . S
O305 C301 1.241 . S
O306 Co294 2.137 . S
O306 C297 1.247 . S
O307 Co294 2.244 . S
O307 C297 1.272 . S
O307 Co299 2.135 . S
Co308 O309 2.216 . S
Co308 O310 2.091 . S
Co308 O312 2.004 . S
Co308 O318 2.021 . S
Co308 O320 2.137 . S
Co308 O321 2.244 . S
O309 Co308 2.216 . S
O309 C316 1.247 . S
O310 Co308 2.091 . S
O310 C316 1.261 . S
C311 O320 1.247 . S
C311 O321 1.272 . S
O312 Co308 2.004 . S
O312 C317 1.259 . S
Co313 O314 2.061 . S
Co313 O319 2.052 . S
Co313 O321 2.135 . S
O314 Co313 2.061 . S
O314 C317 1.235 . S
C315 O318 1.238 . S
C315 O319 1.241 . S
C316 O309 1.247 . S
C316 O310 1.261 . S
C317 O312 1.259 . S
C317 O314 1.235 . S
O318 Co308 2.021 . S
O318 C315 1.238 . S
O319 Co313 2.052 . S
O319 C315 1.241 . S
O320 Co308 2.137 . S
O320 C311 1.247 . S
O321 Co308 2.244 . S
O321 C311 1.272 . S
O321 Co313 2.135 . S
Co322 O323 2.216 . S
Co322 O324 2.091 . S
Co322 O326 2.004 . S
Co322 O332 2.021 . S
Co322 O334 2.137 . S
Co322 O335 2.244 . S
O323 Co322 2.216 . S
O323 C330 1.247 . S
O324 Co322 2.091 . S
O324 C330 1.261 . S
C325 O334 1.247 . S
C325 O335 1.272 . S
O326 Co322 2.004 . S
O326 C331 1.259 . S
Co327 O328 2.061 . S
Co327 O333 2.052 . S
Co327 O335 2.135 . S
O328 Co327 2.061 . S
O328 C331 1.235 . S
C329 O332 1.238 . S
C329 O333 1.241 . S
C330 O323 1.247 . S
C330 O324 1.261 . S
C331 O326 1.259 . S
C331 O328 1.235 . S
O332 Co322 2.021 . S
O332 C329 1.238 . S
O333 Co327 2.052 . S
O333 C329 1.241 . S
O334 Co322 2.137 . S
O334 C325 1.247 . S
O335 Co322 2.244 . S
O335 C325 1.272 . S
O335 Co327 2.135 . S
C336 O352 1.252 1_455 S
C336 O354 1.254 . S
N337 C338 1.333 1_565 S
N337 C342 1.307 . S
N337 Zn343 2.020 1_665 S
C338 N337 1.333 1_545 S
C338 C339 1.379 1_545 S
C338 H356 0.952 . S
C339 C338 1.379 1_565 S
C339 C340 1.390 . S
C339 H366 0.949 1_565 S
C340 C339 1.390 . S
C340 C341 1.357 . S
C341 C340 1.357 . S
C341 C342 1.370 . S
C341 H367 0.950 . S
C342 N337 1.307 . S
C342 C341 1.370 . S
C342 H360 0.948 . S
Zn343 N337 2.020 1_445 S
Zn343 O352 2.038 1_454 S
Zn343 O358 2.034 . S
Zn343 O362 2.025 1_545 S
Zn343 O364 2.024 1_545 S
C344 O363 1.246 . S
C344 O364 1.249 . S
N345 C346 1.307 1_554 S
N345 C347 1.333 . S
N345 Zn351 2.020 . S
C346 N345 1.307 1_556 S
C346 C350 1.370 . S
C346 H357 0.948 . S
C347 N345 1.333 . S
C347 C348 1.379 . S
C347 H355 0.952 . S
C348 C347 1.379 . S
C348 C349 1.403 . S
C348 H368 0.949 . S
C349 C348 1.403 . S
C349 C350 1.349 1_554 S
C350 C346 1.370 . S
C350 C349 1.349 1_556 S
C350 H369 0.950 . S
Zn351 N345 2.020 . S
Zn351 O354 2.025 1_554 S
Zn351 O359 2.024 . S
Zn351 O361 2.039 . S
Zn351 O363 2.034 1_545 S
O352 C336 1.252 1_655 S
O352 Zn343 2.038 1_656 S
C353 O358 1.246 . S
C353 O359 1.249 . S
O354 C336 1.254 . S
O354 Zn351 2.025 1_556 S
H355 C347 0.952 . S
H356 C338 0.952 . S
H357 C346 0.948 . S
O358 Zn343 2.034 . S
O358 C353 1.246 . S
O359 Zn351 2.024 . S
O359 C353 1.249 . S
H360 C342 0.948 . S
O361 Zn351 2.039 . S
O361 C365 1.246 1_545 S
O362 Zn343 2.025 1_565 S
O362 C365 1.256 . S
O363 C344 1.246 . S
O363 Zn351 2.034 1_565 S
O364 Zn343 2.024 1_565 S
O364 C344 1.249 . S
C365 O361 1.246 1_565 S
C365 O362 1.256 . S
H366 C339 0.949 1_545 S
H367 C341 0.950 . S
H368 C348 0.949 . S
H369 C350 0.950 . S
C370 O386 1.251 . S
C370 O388 1.254 . S
N371 C372 1.333 . S
N371 C376 1.307 . S
N371 Zn377 2.020 . S
C372 N371 1.333 . S
C372 C373 1.379 . S
C372 H390 0.952 . S
C373 C372 1.379 . S
C373 C374 1.390 . S
C373 H400 0.949 . S
C374 C373 1.390 . S
C374 C375 1.357 . S
C375 C374 1.357 . S
C375 C376 1.370 . S
C375 H401 0.950 . S
C376 N371 1.307 . S
C376 C375 1.370 . S
C376 H394 0.948 . S
Zn377 N371 2.020 . S
Zn377 O386 2.039 . S
Zn377 O392 2.034 . S
Zn377 O396 2.025 . S
Zn377 O398 2.024 . S
C378 O397 1.246 . S
C378 O398 1.249 . S
N379 C380 1.307 . S
N379 C381 1.333 . S
N379 Zn385 2.020 . S
C380 N379 1.307 . S
C380 C384 1.370 . S
C380 H391 0.948 . S
C381 N379 1.333 . S
C381 C382 1.379 . S
C381 H389 0.952 . S
C382 C381 1.379 . S
C382 C383 1.390 . S
C382 H402 0.949 . S
C383 C382 1.390 . S
C383 C384 1.357 . S
C384 C380 1.370 . S
C384 C383 1.357 . S
C384 H403 0.950 . S
Zn385 N379 2.020 . S
Zn385 O388 2.025 . S
Zn385 O393 2.024 . S
Zn385 O395 2.039 . S
Zn385 O397 2.034 . S
O386 C370 1.251 . S
O386 Zn377 2.039 . S
C387 O392 1.246 . S
C387 O393 1.249 . S
O388 C370 1.254 . S
O388 Zn385 2.025 . S
H389 C381 0.952 . S
H390 C372 0.952 . S
H391 C380 0.948 . S
O392 Zn377 2.034 . S
O392 C387 1.246 . S
O393 Zn385 2.024 . S
O393 C387 1.249 . S
H394 C376 0.948 . S
O395 Zn385 2.039 . S
O395 C399 1.251 . S
O396 Zn377 2.025 . S
O396 C399 1.254 . S
O397 C378 1.246 . S
O397 Zn385 2.034 . S
O398 Zn377 2.024 . S
O398 C378 1.249 . S
C399 O395 1.251 . S
C399 O396 1.254 . S
H400 C373 0.949 . S
H401 C375 0.950 . S
H402 C382 0.949 . S
H403 C384 0.950 . S
C404 O420 1.251 . S
C404 O422 1.254 . S
N405 C406 1.333 . S
N405 C410 1.307 . S
N405 Zn411 2.020 . S
C406 N405 1.333 . S
C406 C407 1.379 . S
C406 H424 0.952 . S
C407 C406 1.379 . S
C407 C408 1.390 . S
C407 H434 0.949 . S
C408 C407 1.390 . S
C408 C409 1.357 . S
C409 C408 1.357 . S
C409 C410 1.370 . S
C409 H435 0.950 . S
C410 N405 1.307 . S
C410 C409 1.370 . S
C410 H428 0.948 . S
Zn411 N405 2.020 . S
Zn411 O420 2.039 1_565 S
Zn411 O426 2.034 1_565 S
Zn411 O430 2.025 . S
Zn411 O432 2.024 . S
C412 O431 1.246 1_565 S
C412 O432 1.249 . S
N413 C414 1.307 . S
N413 C415 1.333 . S
N413 Zn419 2.020 . S
C414 N413 1.307 . S
C414 C418 1.370 . S
C414 H425 0.948 . S
C415 N413 1.333 . S
C415 C416 1.379 . S
C415 H423 0.952 . S
C416 C415 1.379 . S
C416 C417 1.390 . S
C416 H436 0.949 . S
C417 C416 1.390 . S
C417 C418 1.357 . S
C418 C414 1.370 . S
C418 C417 1.357 . S
C418 H437 0.950 . S
Zn419 N413 2.020 . S
Zn419 O422 2.025 . S
Zn419 O427 2.024 . S
Zn419 O429 2.039 . S
Zn419 O431 2.034 . S
O420 C404 1.251 . S
O420 Zn411 2.039 1_545 S
C421 O426 1.246 . S
C421 O427 1.249 . S
O422 C404 1.254 . S
O422 Zn419 2.025 . S
H423 C415 0.952 . S
H424 C406 0.952 . S
H425 C414 0.948 . S
O426 Zn411 2.034 1_545 S
O426 C421 1.246 . S
O427 Zn419 2.024 . S
O427 C421 1.249 . S
H428 C410 0.948 . S
O429 Zn419 2.039 . S
O429 C433 1.251 . S
O430 Zn411 2.025 . S
O430 C433 1.254 1_565 S
O431 C412 1.246 1_545 S
O431 Zn419 2.034 . S
O432 Zn411 2.024 . S
O432 C412 1.249 . S
C433 O429 1.251 . S
C433 O430 1.254 1_545 S
H434 C407 0.949 . S
H435 C409 0.950 . S
H436 C416 0.949 . S
H437 C418 0.950 . S
C438 O454 1.251 . S
C438 O456 1.254 . S
N439 C440 1.333 . S
N439 C444 1.307 . S
N439 Zn445 2.020 . S
C440 N439 1.333 . S
C440 C441 1.379 . S
C440 H458 0.952 . S
C441 C440 1.379 . S
C441 C442 1.390 . S
C441 H468 0.949 . S
C442 C441 1.390 . S
C442 C443 1.357 . S
C443 C442 1.357 . S
C443 C444 1.370 . S
C443 H469 0.950 . S
C444 N439 1.307 . S
C444 C443 1.370 . S
C444 H462 0.948 . S
Zn445 N439 2.020 . S
Zn445 O454 2.039 . S
Zn445 O460 2.034 . S
Zn445 O464 2.025 . S
Zn445 O466 2.024 . S
C446 O465 1.246 . S
C446 O466 1.249 . S
N447 C448 1.307 . S
N447 C449 1.333 . S
N447 Zn453 2.020 . S
C448 N447 1.307 . S
C448 C452 1.370 . S
C448 H459 0.948 . S
C449 N447 1.333 . S
C449 C450 1.379 . S
C449 H457 0.952 . S
C450 C449 1.379 . S
C450 C451 1.390 . S
C450 H470 0.949 . S
C451 C450 1.390 . S
C451 C452 1.357 . S
C452 C448 1.370 . S
C452 C451 1.357 . S
C452 H471 0.950 . S
Zn453 N447 2.020 . S
Zn453 O456 2.025 . S
Zn453 O461 2.024 . S
Zn453 O463 2.039 . S
Zn453 O465 2.034 . S
O454 C438 1.251 . S
O454 Zn445 2.039 . S
C455 O460 1.246 . S
C455 O461 1.249 . S
O456 C438 1.254 . S
O456 Zn453 2.025 . S
H457 C449 0.952 . S
H458 C440 0.952 . S
H459 C448 0.948 . S
O460 Zn445 2.034 . S
O460 C455 1.246 . S
O461 Zn453 2.024 . S
O461 C455 1.249 . S
H462 C444 0.948 . S
O463 Zn453 2.039 . S
O463 C467 1.251 . S
O464 Zn445 2.025 . S
O464 C467 1.254 . S
O465 C446 1.246 . S
O465 Zn453 2.034 . S
O466 Zn445 2.024 . S
O466 C446 1.249 . S
C467 O463 1.251 . S
C467 O464 1.254 . S
H468 C441 0.949 . S
H469 C443 0.950 . S
H470 C450 0.949 . S
H471 C452 0.950 . S
C472 O488 1.251 1_565 S
C472 O490 1.254 . S
N473 C474 1.333 . S
N473 C478 1.307 . S
N473 Zn479 2.020 . S
C474 N473 1.333 . S
C474 C475 1.379 . S
C474 H492 0.952 . S
C475 C474 1.379 . S
C475 C476 1.390 . S
C475 H502 0.949 . S
C476 C475 1.390 . S
C476 C477 1.357 . S
C477 C476 1.357 . S
C477 C478 1.370 . S
C477 H503 0.950 . S
C478 N473 1.307 . S
C478 C477 1.370 . S
C478 H496 0.948 . S
Zn479 N473 2.020 . S
Zn479 O488 2.039 . S
Zn479 O494 2.034 . S
Zn479 O498 2.048 . S
Zn479 O500 2.024 1_545 S
C480 O499 1.246 . S
C480 O500 1.249 . S
N481 C482 1.307 . S
N481 C483 1.333 1_455 S
N481 Zn487 2.020 1_565 S
C482 N481 1.307 . S
C482 C486 1.370 . S
C482 H493 0.935 1_565 S
C483 N481 1.333 1_655 S
C483 C484 1.379 . S
C483 H491 0.952 . S
C484 C483 1.379 . S
C484 C485 1.390 . S
C484 H504 0.949 . S
C485 C484 1.390 . S
C485 C486 1.357 1_655 S
C486 C482 1.370 . S
C486 C485 1.357 1_455 S
C486 H505 0.950 . S
Zn487 N481 2.020 1_545 S
Zn487 O490 2.025 1_545 S
Zn487 O495 2.024 . S
Zn487 O497 2.039 1_455 S
Zn487 O499 2.034 1_545 S
O488 C472 1.251 1_545 S
O488 Zn479 2.039 . S
C489 O494 1.246 . S
C489 O495 1.249 . S
O490 C472 1.254 . S
O490 Zn487 2.025 1_565 S
H491 C483 0.952 . S
H492 C474 0.952 . S
H493 C482 0.935 1_545 S
O494 Zn479 2.034 . S
O494 C489 1.246 . S
O495 Zn487 2.024 . S
O495 C489 1.249 . S
H496 C478 0.948 . S
O497 Zn487 2.039 1_655 S
O497 C501 1.251 . S
O498 Zn479 2.048 . S
O498 C501 1.238 1_455 S
O499 C480 1.246 . S
O499 Zn487 2.034 1_565 S
O500 Zn479 2.024 1_565 S
O500 C480 1.249 . S
C501 O497 1.251 . S
C501 O498 1.238 1_655 S
H502 C475 0.949 . S
H503 C477 0.950 . S
H504 C484 0.949 . S
H505 C486 0.950 . S
C506 O522 1.251 . S
C506 O524 1.254 . S
N507 C508 1.333 . S
N507 C512 1.307 . S
N507 Zn513 2.020 . S
C508 N507 1.333 . S
C508 C509 1.379 . S
C508 H526 0.952 . S
C509 C508 1.379 . S
C509 C510 1.390 . S
C509 H536 0.949 . S
C510 C509 1.390 . S
C510 C511 1.357 . S
C511 C510 1.357 . S
C511 C512 1.370 . S
C511 H537 0.950 . S
C512 N507 1.307 . S
C512 C511 1.370 . S
C512 H530 0.948 . S
Zn513 N507 2.020 . S
Zn513 O522 2.039 . S
Zn513 O528 2.034 . S
Zn513 O532 2.025 . S
Zn513 O534 2.024 . S
C514 O533 1.246 . S
C514 O534 1.249 . S
N515 C516 1.307 . S
N515 C517 1.333 . S
N515 Zn521 2.020 . S
C516 N515 1.307 . S
C516 C520 1.370 . S
C516 H527 0.948 . S
C517 N515 1.333 . S
C517 C518 1.379 . S
C517 H525 0.952 . S
C518 C517 1.379 . S
C518 C519 1.390 . S
C518 H538 0.949 . S
C519 C518 1.390 . S
C519 C520 1.357 . S
C520 C516 1.370 . S
C520 C519 1.357 . S
C520 H539 0.950 . S
Zn521 N515 2.020 . S
Zn521 O524 2.025 . S
Zn521 O529 2.024 . S
Zn521 O531 2.039 . S
Zn521 O533 2.034 . S
O522 C506 1.251 . S
O522 Zn513 2.039 . S
C523 O528 1.246 . S
C523 O529 1.249 . S
O524 C506 1.254 . S
O524 Zn521 2.025 . S
H525 C517 0.952 . S
H526 C508 0.952 . S
H527 C516 0.948 . S
O528 Zn513 2.034 . S
O528 C523 1.246 . S
O529 Zn521 2.024 . S
O529 C523 1.249 . S
H530 C512 0.948 . S
O531 Zn521 2.039 . S
O531 C535 1.251 . S
O532 Zn513 2.025 . S
O532 C535 1.254 . S
O533 C514 1.246 . S
O533 Zn521 2.034 . S
O534 Zn513 2.024 . S
O534 C514 1.249 . S
C535 O531 1.251 . S
C535 O532 1.254 . S
H536 C509 0.949 . S
H537 C511 0.950 . S
H538 C518 0.949 . S
H539 C520 0.950 . S
C540 O556 1.251 . S
C540 O558 1.254 . S
N541 C542 1.333 . S
N541 C546 1.307 . S
N541 Zn547 2.020 . S
C542 N541 1.333 . S
C542 C543 1.379 . S
C542 H560 0.952 . S
C543 C542 1.379 . S
C543 C544 1.390 . S
C543 H570 0.949 . S
C544 C543 1.390 . S
C544 C545 1.357 . S
C545 C544 1.357 . S
C545 C546 1.370 . S
C545 H571 0.950 . S
C546 N541 1.307 . S
C546 C545 1.370 . S
C546 H564 0.948 . S
Zn547 N541 2.020 . S
Zn547 O556 2.039 1_545 S
Zn547 O562 2.034 . S
Zn547 O566 2.025 . S
Zn547 O568 2.024 . S
C548 O567 1.246 . S
C548 O568 1.249 1_565 S
N549 C550 1.307 . S
N549 C551 1.333 1_565 S
N549 Zn555 2.020 1_566 S
C550 N549 1.307 . S
C550 C554 1.370 . S
C550 H561 0.948 . S
C551 N549 1.333 1_545 S
C551 C552 1.379 . S
C551 H559 0.952 . S
C552 C551 1.379 . S
C552 C553 1.390 1_545 S
C552 H572 0.949 . S
C553 C552 1.390 1_565 S
C553 C554 1.357 . S
C554 C550 1.370 . S
C554 C553 1.357 . S
C554 H573 0.950 . S
Zn555 N549 2.020 1_544 S
Zn555 O558 2.025 1_545 S
Zn555 O563 2.024 . S
Zn555 O565 2.039 1_554 S
Zn555 O567 2.034 1_545 S
O556 C540 1.251 . S
O556 Zn547 2.039 1_565 S
C557 O562 1.246 . S
C557 O563 1.249 . S
O558 C540 1.254 . S
O558 Zn555 2.025 1_565 S
H559 C551 0.952 . S
H560 C542 0.952 . S
H561 C550 0.948 . S
O562 Zn547 2.034 . S
O562 C557 1.246 . S
O563 Zn555 2.024 . S
O563 C557 1.249 . S
H564 C546 0.948 . S
O565 Zn555 2.039 1_556 S
O565 C569 1.251 1_556 S
O566 Zn547 2.025 . S
O566 C569 1.254 . S
O567 C548 1.246 . S
O567 Zn555 2.034 1_565 S
O568 Zn547 2.024 . S
O568 C548 1.249 1_545 S
C569 O565 1.251 1_554 S
C569 O566 1.254 . S
H570 C543 0.949 . S
H571 C545 0.950 . S
H572 C552 0.949 . S
H573 C554 0.950 . S
C574 O590 1.251 . S
C574 O592 1.254 . S
N575 C576 1.333 . S
N575 C580 1.307 . S
N575 Zn581 2.020 . S
C576 N575 1.333 . S
C576 C577 1.379 . S
C576 H594 0.952 . S
C577 C576 1.379 . S
C577 C578 1.390 . S
C577 H604 0.949 . S
C578 C577 1.390 . S
C578 C579 1.357 . S
C579 C578 1.357 . S
C579 C580 1.370 . S
C579 H605 0.950 . S
C580 N575 1.307 . S
C580 C579 1.370 . S
C580 H598 0.948 . S
Zn581 N575 2.020 . S
Zn581 O590 2.039 . S
Zn581 O596 2.034 . S
Zn581 O600 2.025 . S
Zn581 O602 2.024 . S
C582 O601 1.246 . S
C582 O602 1.249 . S
N583 C584 1.307 . S
N583 C585 1.333 . S
N583 Zn589 2.020 . S
C584 N583 1.307 . S
C584 C588 1.370 . S
C584 H595 0.948 . S
C585 N583 1.333 . S
C585 C586 1.379 . S
C585 H593 0.952 . S
C586 C585 1.379 . S
C586 C587 1.390 . S
C586 H606 0.949 . S
C587 C586 1.390 . S
C587 C588 1.357 . S
C588 C584 1.370 . S
C588 C587 1.357 . S
C588 H607 0.950 . S
Zn589 N583 2.020 . S
Zn589 O592 2.025 . S
Zn589 O597 2.024 . S
Zn589 O599 2.039 . S
Zn589 O601 2.034 . S
O590 C574 1.251 . S
O590 Zn581 2.039 . S
C591 O596 1.246 . S
C591 O597 1.249 . S
O592 C574 1.254 . S
O592 Zn589 2.025 . S
H593 C585 0.952 . S
H594 C576 0.952 . S
H595 C584 0.948 . S
O596 Zn581 2.034 . S
O596 C591 1.246 . S
O597 Zn589 2.024 . S
O597 C591 1.249 . S
H598 C580 0.948 . S
O599 Zn589 2.039 . S
O599 C603 1.251 . S
O600 Zn581 2.025 . S
O600 C603 1.254 . S
O601 C582 1.246 . S
O601 Zn589 2.034 . S
O602 Zn581 2.024 . S
O602 C582 1.249 . S
C603 O599 1.251 . S
C603 O600 1.254 . S
H604 C577 0.949 . S
H605 C579 0.950 . S
H606 C586 0.949 . S
H607 C588 0.950 . S
C608 O624 1.251 . S
C608 O626 1.254 . S
N609 C610 1.333 . S
N609 C614 1.307 . S
N609 Zn615 2.020 1_556 S
C610 N609 1.333 . S
C610 C611 1.379 . S
C610 H628 0.952 . S
C611 C610 1.379 . S
C611 C612 1.390 . S
C611 H638 0.949 . S
C612 C611 1.390 . S
C612 C613 1.357 . S
C613 C612 1.357 . S
C613 C614 1.370 . S
C613 H639 0.950 . S
C614 N609 1.307 . S
C614 C613 1.370 . S
C614 H632 0.948 . S
Zn615 N609 2.020 1_554 S
Zn615 O624 2.039 . S
Zn615 O630 2.034 . S
Zn615 O634 2.029 . S
Zn615 O636 2.024 1_554 S
C616 O635 1.246 . S
C616 O636 1.249 1_554 S
N617 C618 1.307 . S
N617 C619 1.333 . S
N617 Zn623 2.020 . S
C618 N617 1.307 . S
C618 C622 1.370 . S
C618 H629 0.948 . S
C619 N617 1.333 . S
C619 C620 1.379 . S
C619 H627 0.952 . S
C620 C619 1.379 . S
C620 C621 1.390 . S
C620 H640 0.949 . S
C621 C620 1.390 . S
C621 C622 1.357 . S
C622 C618 1.370 . S
C622 C621 1.357 . S
C622 H641 0.950 . S
Zn623 N617 2.020 . S
Zn623 O626 2.025 . S
Zn623 O631 2.024 . S
Zn623 O633 2.039 . S
Zn623 O635 2.034 . S
O624 C608 1.251 . S
O624 Zn615 2.039 . S
C625 O630 1.246 . S
C625 O631 1.249 . S
O626 C608 1.254 . S
O626 Zn623 2.025 . S
H627 C619 0.952 . S
H628 C610 0.952 . S
H629 C618 0.948 . S
O630 Zn615 2.034 . S
O630 C625 1.246 . S
O631 Zn623 2.024 . S
O631 C625 1.249 . S
H632 C614 0.948 . S
O633 Zn623 2.039 . S
O633 C637 1.251 . S
O634 Zn615 2.029 . S
O634 C637 1.304 . S
O635 C616 1.246 . S
O635 Zn623 2.034 . S
O636 Zn615 2.024 1_556 S
O636 C616 1.249 1_556 S
C637 O633 1.251 . S
C637 O634 1.304 . S
H638 C611 0.949 . S
H639 C613 0.950 . S
H640 C620 0.949 . S
H641 C622 0.950 . S
C642 O658 1.251 . S
C642 O660 1.254 . S
N643 C644 1.333 . S
N643 C648 1.307 . S
N643 Zn649 2.020 . S
C644 N643 1.333 . S
C644 C645 1.379 . S
C644 H662 0.952 . S
C645 C644 1.379 . S
C645 C646 1.390 . S
C645 H672 0.949 . S
C646 C645 1.390 . S
C646 C647 1.357 . S
C647 C646 1.357 . S
C647 C648 1.370 . S
C647 H673 0.950 . S
C648 N643 1.307 . S
C648 C647 1.370 . S
C648 H666 0.948 . S
Zn649 N643 2.020 . S
Zn649 O658 2.039 . S
Zn649 O664 2.034 . S
Zn649 O668 2.025 . S
Zn649 O670 2.024 . S
C650 O669 1.246 . S
C650 O670 1.249 . S
N651 C652 1.307 . S
N651 C653 1.333 . S
N651 Zn657 2.020 . S
C652 N651 1.307 . S
C652 C656 1.370 . S
C652 H663 0.948 . S
C653 N651 1.333 . S
C653 C654 1.379 . S
C653 H661 0.952 . S
C654 C653 1.379 . S
C654 C655 1.390 . S
C654 H674 0.949 . S
C655 C654 1.390 . S
C655 C656 1.357 . S
C656 C652 1.370 . S
C656 C655 1.357 . S
C656 H675 0.950 . S
Zn657 N651 2.020 . S
Zn657 O660 2.025 . S
Zn657 O665 2.024 . S
Zn657 O667 2.039 . S
Zn657 O669 2.034 . S
O658 C642 1.251 . S
O658 Zn649 2.039 . S
C659 O664 1.246 . S
C659 O665 1.249 . S
O660 C642 1.254 . S
O660 Zn657 2.025 . S
H661 C653 0.952 . S
H662 C644 0.952 . S
H663 C652 0.948 . S
O664 Zn649 2.034 . S
O664 C659 1.246 . S
O665 Zn657 2.024 . S
O665 C659 1.249 . S
H666 C648 0.948 . S
O667 Zn657 2.039 . S
O667 C671 1.251 . S
O668 Zn649 2.025 . S
O668 C671 1.254 . S
O669 C650 1.246 . S
O669 Zn657 2.034 . S
O670 Zn649 2.024 . S
O670 C650 1.249 . S
C671 O667 1.251 . S
C671 O668 1.254 . S
H672 C645 0.949 . S
H673 C647 0.950 . S
H674 C654 0.949 . S
H675 C656 0.950 . S
C676 O692 1.251 . S
C676 O694 1.254 . S
N677 C678 1.333 . S
N677 C682 1.307 . S
N677 Zn683 2.020 . S
C678 N677 1.333 . S
C678 C679 1.379 . S
C678 H696 0.952 . S
C679 C678 1.379 . S
C679 C680 1.390 . S
C679 H706 0.949 . S
C680 C679 1.390 . S
C680 C681 1.357 . S
C681 C680 1.357 . S
C681 C682 1.370 . S
C681 H707 0.950 . S
C682 N677 1.307 . S
C682 C681 1.370 . S
C682 H700 0.948 . S
Zn683 N677 2.020 . S
Zn683 O692 2.039 . S
Zn683 O698 2.034 . S
Zn683 O702 2.025 . S
Zn683 O704 2.024 . S
C684 O703 1.246 . S
C684 O704 1.249 . S
N685 C686 1.307 1_455 S
N685 C687 1.333 . S
N685 Zn691 2.020 . S
C686 N685 1.307 1_655 S
C686 C690 1.370 . S
C686 H697 0.948 . S
C687 N685 1.333 . S
C687 C688 1.379 . S
C687 H695 0.952 . S
C688 C687 1.379 . S
C688 C689 1.390 1_455 S
C688 H708 0.949 . S
C689 C688 1.390 1_655 S
C689 C690 1.357 . S
C690 C686 1.370 . S
C690 C689 1.357 . S
C690 H709 0.950 . S
Zn691 N685 2.020 . S
Zn691 O694 2.025 . S
Zn691 O699 2.024 1_455 S
Zn691 O701 2.039 . S
Zn691 O703 2.034 . S
O692 C676 1.251 . S
O692 Zn683 2.039 . S
C693 O698 1.246 1_655 S
C693 O699 1.249 . S
O694 C676 1.254 . S
O694 Zn691 2.025 . S
H695 C687 0.952 . S
H696 C678 0.952 . S
H697 C686 0.948 . S
O698 Zn683 2.034 . S
O698 C693 1.246 1_455 S
O699 Zn691 2.024 1_655 S
O699 C693 1.249 . S
H700 C682 0.948 . S
O701 Zn691 2.039 . S
O701 C705 1.251 . S
O702 Zn683 2.025 . S
O702 C705 1.254 . S
O703 C684 1.246 . S
O703 Zn691 2.034 . S
O704 Zn683 2.024 . S
O704 C684 1.249 . S
C705 O701 1.251 . S
C705 O702 1.254 . S
H706 C679 0.949 . S
H707 C681 0.950 . S
H708 C688 0.949 . S
H709 C690 0.950 . S
C710 O726 1.251 . S
C710 O728 1.254 . S
N711 C712 1.333 . S
N711 C716 1.307 . S
N711 Zn717 2.020 . S
C712 N711 1.333 . S
C712 C713 1.379 . S
C712 H730 0.952 . S
C713 C712 1.379 . S
C713 C714 1.390 . S
C713 H740 0.949 . S
C714 C713 1.390 . S
C714 C715 1.357 . S
C715 C714 1.357 . S
C715 C716 1.370 . S
C715 H741 0.950 . S
C716 N711 1.307 . S
C716 C715 1.370 . S
C716 H734 0.948 . S
Zn717 N711 2.020 . S
Zn717 O726 2.039 . S
Zn717 O732 2.034 . S
Zn717 O736 2.025 . S
Zn717 O738 2.024 . S
C718 O737 1.246 . S
C718 O738 1.249 . S
N719 C720 1.307 . S
N719 C721 1.333 . S
N719 Zn725 2.020 . S
C720 N719 1.307 . S
C720 C724 1.370 . S
C720 H731 0.948 . S
C721 N719 1.333 . S
C721 C722 1.379 . S
C721 H729 0.952 . S
C722 C721 1.379 . S
C722 C723 1.390 . S
C722 H742 0.949 . S
C723 C722 1.390 . S
C723 C724 1.357 . S
C724 C720 1.370 . S
C724 C723 1.357 . S
C724 H743 0.950 . S
Zn725 N719 2.020 . S
Zn725 O728 2.025 . S
Zn725 O733 2.024 . S
Zn725 O735 2.039 . S
Zn725 O737 2.034 . S
O726 C710 1.251 . S
O726 Zn717 2.039 . S
C727 O732 1.246 . S
C727 O733 1.249 . S
O728 C710 1.254 . S
O728 Zn725 2.025 . S
H729 C721 0.952 . S
H730 C712 0.952 . S
H731 C720 0.948 . S
O732 Zn717 2.034 . S
O732 C727 1.246 . S
O733 Zn725 2.024 . S
O733 C727 1.249 . S
H734 C716 0.948 . S
O735 Zn725 2.039 . S
O735 C739 1.251 . S
O736 Zn717 2.025 . S
O736 C739 1.254 . S
O737 C718 1.246 . S
O737 Zn725 2.034 . S
O738 Zn717 2.024 . S
O738 C718 1.249 . S
C739 O735 1.251 . S
C739 O736 1.254 . S
H740 C713 0.949 . S
H741 C715 0.950 . S
H742 C722 0.949 . S
H743 C724 0.950 . S
C744 O760 1.251 . S
C744 O762 1.254 . S
N745 C746 1.333 . S
N745 C750 1.307 . S
N745 Zn751 2.020 . S
C746 N745 1.333 . S
C746 C747 1.379 . S
C746 H764 0.952 . S
C747 C746 1.379 . S
C747 C748 1.390 . S
C747 H774 0.949 . S
C748 C747 1.390 . S
C748 C749 1.357 . S
C749 C748 1.357 . S
C749 C750 1.370 . S
C749 H775 0.950 . S
C750 N745 1.307 . S
C750 C749 1.370 . S
C750 H768 0.948 . S
Zn751 N745 2.020 . S
Zn751 O760 2.039 . S
Zn751 O766 2.034 . S
Zn751 O770 2.025 . S
Zn751 O772 2.024 . S
C752 O771 1.246 . S
C752 O772 1.249 . S
N753 C754 1.307 . S
N753 C755 1.333 . S
N753 Zn759 2.020 . S
C754 N753 1.307 . S
C754 C758 1.370 . S
C754 H765 0.948 . S
C755 N753 1.333 . S
C755 C756 1.379 . S
C755 H763 0.952 . S
C756 C755 1.379 . S
C756 C757 1.390 . S
C756 H776 0.949 . S
C757 C756 1.390 . S
C757 C758 1.357 . S
C758 C754 1.370 . S
C758 C757 1.357 . S
C758 H777 0.950 . S
Zn759 N753 2.020 . S
Zn759 O762 2.025 . S
Zn759 O767 2.024 . S
Zn759 O769 2.039 . S
Zn759 O771 2.034 . S
O760 C744 1.251 . S
O760 Zn751 2.039 . S
C761 O766 1.246 . S
C761 O767 1.249 . S
O762 C744 1.254 . S
O762 Zn759 2.025 . S
H763 C755 0.952 . S
H764 C746 0.952 . S
H765 C754 0.948 . S
O766 Zn751 2.034 . S
O766 C761 1.246 . S
O767 Zn759 2.024 . S
O767 C761 1.249 . S
H768 C750 0.948 . S
O769 Zn759 2.039 . S
O769 C773 1.251 . S
O770 Zn751 2.025 . S
O770 C773 1.254 . S
O771 C752 1.246 . S
O771 Zn759 2.034 . S
O772 Zn751 2.024 . S
O772 C752 1.249 . S
C773 O769 1.251 . S
C773 O770 1.254 . S
H774 C747 0.949 . S
H775 C749 0.950 . S
H776 C756 0.949 . S
H777 C758 0.950 . S
C778 O794 1.251 . S
C778 O796 1.254 . S
N779 C780 1.333 . S
N779 C784 1.307 . S
N779 Zn785 2.020 . S
C780 N779 1.333 . S
C780 C781 1.379 . S
C780 H798 0.952 . S
C781 C780 1.379 . S
C781 C782 1.390 . S
C781 H808 0.949 . S
C782 C781 1.390 . S
C782 C783 1.357 . S
C783 C782 1.357 . S
C783 C784 1.370 . S
C783 H809 0.950 . S
C784 N779 1.307 . S
C784 C783 1.370 . S
C784 H802 0.948 . S
Zn785 N779 2.020 . S
Zn785 O794 2.039 . S
Zn785 O800 2.034 . S
Zn785 O804 2.025 . S
Zn785 O806 2.024 . S
C786 O805 1.246 . S
C786 O806 1.249 . S
N787 C788 1.307 . S
N787 C789 1.333 . S
N787 Zn793 2.020 . S
C788 N787 1.307 . S
C788 C792 1.370 . S
C788 H799 0.948 . S
C789 N787 1.333 . S
C789 C790 1.379 . S
C789 H797 0.952 . S
C790 C789 1.379 . S
C790 C791 1.390 . S
C790 H810 0.949 . S
C791 C790 1.390 . S
C791 C792 1.357 . S
C792 C788 1.370 . S
C792 C791 1.357 . S
C792 H811 0.950 . S
Zn793 N787 2.020 . S
Zn793 O796 2.025 . S
Zn793 O801 2.024 . S
Zn793 O803 2.039 . S
Zn793 O805 2.034 . S
O794 C778 1.251 . S
O794 Zn785 2.039 . S
C795 O800 1.246 . S
C795 O801 1.249 . S
O796 C778 1.254 . S
O796 Zn793 2.025 . S
H797 C789 0.952 . S
H798 C780 0.952 . S
H799 C788 0.948 . S
O800 Zn785 2.034 . S
O800 C795 1.246 . S
O801 Zn793 2.024 . S
O801 C795 1.249 . S
H802 C784 0.948 . S
O803 Zn793 2.039 . S
O803 C807 1.251 . S
O804 Zn785 2.025 . S
O804 C807 1.254 . S
O805 C786 1.246 . S
O805 Zn793 2.034 . S
O806 Zn785 2.024 . S
O806 C786 1.249 . S
C807 O803 1.251 . S
C807 O804 1.254 . S
H808 C781 0.949 . S
H809 C783 0.950 . S
H810 C790 0.949 . S
H811 C792 0.950 . S
C812 O828 1.251 . S
C812 O830 1.254 . S
N813 C814 1.333 . S
N813 C818 1.307 . S
N813 Zn819 2.020 . S
C814 N813 1.333 . S
C814 C815 1.379 . S
C814 H832 0.952 . S
C815 C814 1.379 . S
C815 C816 1.390 . S
C815 H842 0.949 . S
C816 C815 1.390 . S
C816 C817 1.357 . S
C817 C816 1.357 . S
C817 C818 1.370 . S
C817 H843 0.950 . S
C818 N813 1.307 . S
C818 C817 1.370 . S
C818 H836 0.948 . S
Zn819 N813 2.020 . S
Zn819 O828 2.039 . S
Zn819 O834 2.034 . S
Zn819 O838 2.025 . S
Zn819 O840 2.024 . S
C820 O839 1.246 . S
C820 O840 1.249 . S
N821 C822 1.307 . S
N821 C823 1.333 . S
N821 Zn827 2.020 . S
C822 N821 1.307 . S
C822 C826 1.370 . S
C822 H833 0.948 . S
C823 N821 1.333 . S
C823 C824 1.379 . S
C823 H831 0.952 . S
C824 C823 1.379 . S
C824 C825 1.390 . S
C824 H844 0.949 . S
C825 C824 1.390 . S
C825 C826 1.357 . S
C826 C822 1.370 . S
C826 C825 1.357 . S
C826 H845 0.950 . S
Zn827 N821 2.020 . S
Zn827 O830 2.025 . S
Zn827 O835 2.024 . S
Zn827 O837 2.039 . S
Zn827 O839 2.034 . S
O828 C812 1.251 . S
O828 Zn819 2.039 . S
C829 O834 1.246 . S
C829 O835 1.249 . S
O830 C812 1.254 . S
O830 Zn827 2.025 . S
H831 C823 0.952 . S
H832 C814 0.952 . S
H833 C822 0.948 . S
O834 Zn819 2.034 . S
O834 C829 1.246 . S
O835 Zn827 2.024 . S
O835 C829 1.249 . S
H836 C818 0.948 . S
O837 Zn827 2.039 . S
O837 C841 1.251 . S
O838 Zn819 2.025 . S
O838 C841 1.254 . S
O839 C820 1.246 . S
O839 Zn827 2.034 . S
O840 Zn819 2.024 . S
O840 C820 1.249 . S
C841 O837 1.251 . S
C841 O838 1.254 . S
H842 C815 0.949 . S
H843 C817 0.950 . S
H844 C824 0.949 . S
H845 C826 0.950 . S
C846 O862 1.251 . S
C846 O864 1.254 . S
N847 C848 1.333 . S
N847 C852 1.307 . S
N847 Zn853 2.020 . S
C848 N847 1.333 . S
C848 C849 1.379 . S
C848 H866 0.952 . S
C849 C848 1.379 . S
C849 C850 1.390 . S
C849 H876 0.949 . S
C850 C849 1.390 . S
C850 C851 1.357 . S
C851 C850 1.357 . S
C851 C852 1.370 . S
C851 H877 0.950 . S
C852 N847 1.307 . S
C852 C851 1.370 . S
C852 H870 0.948 . S
Zn853 N847 2.020 . S
Zn853 O862 2.039 . S
Zn853 O868 2.034 . S
Zn853 O872 2.025 . S
Zn853 O874 2.024 . S
C854 O873 1.246 . S
C854 O874 1.249 1_655 S
N855 C856 1.307 . S
N855 C857 1.333 1_554 S
N855 Zn861 2.020 . S
C856 N855 1.307 . S
C856 C860 1.370 . S
C856 H867 0.948 . S
C857 N855 1.333 1_556 S
C857 C858 1.393 . S
C857 H865 0.952 . S
C858 C857 1.393 . S
C858 C859 1.384 1_455 S
C858 H878 0.942 1_455 S
C859 C858 1.384 1_655 S
C859 C860 1.347 1_656 S
C860 C856 1.370 . S
C860 C859 1.347 1_454 S
C860 H879 0.950 . S
Zn861 N855 2.020 . S
Zn861 O864 2.025 . S
Zn861 O869 2.024 . S
Zn861 O871 2.039 1_554 S
Zn861 O873 2.034 1_455 S
O862 C846 1.251 . S
O862 Zn853 2.039 . S
C863 O868 1.246 . S
C863 O869 1.249 . S
O864 C846 1.254 . S
O864 Zn861 2.025 . S
H865 C857 0.952 . S
H866 C848 0.952 . S
H867 C856 0.948 . S
O868 Zn853 2.034 . S
O868 C863 1.246 . S
O869 Zn861 2.024 . S
O869 C863 1.249 . S
H870 C852 0.948 . S
O871 Zn861 2.039 1_556 S
O871 C875 1.251 . S
O872 Zn853 2.025 . S
O872 C875 1.254 1_554 S
O873 C854 1.246 . S
O873 Zn861 2.034 1_655 S
O874 Zn853 2.024 . S
O874 C854 1.249 1_455 S
C875 O871 1.251 . S
C875 O872 1.254 1_556 S
H876 C849 0.949 . S
H877 C851 0.950 . S
H878 C858 0.942 1_655 S
H879 C860 0.950 . S
H880 C888 0.929 . S
H881 C890 0.930 . S
H882 C892 0.930 . S
H883 C895 0.929 . S
H884 C898 0.930 . S
H885 C900 0.960 . S
H886 C900 0.960 . S
H887 C900 0.960 . S
C888 H880 0.929 . S
C888 C889 1.377 . S
C888 C890 1.384 . S
C889 C888 1.377 . S
C889 C895 1.390 . S
C890 H881 0.930 . S
C890 C888 1.384 . S
C890 C891 1.372 . S
C891 C890 1.372 . S
C891 C892 1.400 . S
C891 C896 1.490 . S
C892 H882 0.930 . S
C892 C891 1.400 . S
C892 C895 1.386 . S
H893 C909 0.930 . S
H894 C910 0.931 . S
C895 H883 0.929 . S
C895 C889 1.390 . S
C895 C892 1.386 . S
C896 C891 1.490 . S
C896 C898 1.395 . S
C896 C899 1.403 . S
H897 C903 0.930 . S
C898 H884 0.930 . S
C898 C896 1.395 . S
C898 C901 1.403 . S
C899 C896 1.403 . S
C899 C900 1.524 . S
C899 C903 1.400 . S
C900 H885 0.960 . S
C900 H886 0.960 . S
C900 H887 0.960 . S
C900 C899 1.524 . S
C901 C898 1.403 . S
C901 C902 1.392 . S
C901 C905 1.495 . S
C902 C901 1.392 . S
C902 C903 1.385 . S
C902 C904 1.478 . S
C903 H897 0.930 . S
C903 C899 1.400 . S
C903 C902 1.385 . S
C904 C902 1.478 . S
C904 C906 1.381 . S
C904 C910 1.383 . S
C905 C901 1.495 . S
C905 H911 0.959 . S
C905 H912 0.961 . S
C905 H913 0.929 1_455 S
C906 C904 1.381 . S
C906 C907 1.395 . S
C906 H914 0.930 1_455 S
C907 C906 1.395 . S
C907 C908 1.386 . S
C907 H915 0.926 1_455 S
C908 C907 1.386 . S
C908 C909 1.377 . S
C909 H893 0.930 . S
C909 C908 1.377 . S
C909 C910 1.379 . S
C910 H894 0.931 . S
C910 C904 1.383 . S
C910 C909 1.379 . S
H911 C905 0.959 . S
H912 C905 0.961 . S
H913 C905 0.929 1_655 S
H914 C906 0.930 1_655 S
H915 C907 0.926 1_655 S
H916 C924 0.929 . S
H917 C926 0.930 . S
H918 C928 0.930 . S
H919 C931 0.929 . S
H920 C934 0.930 . S
H921 C936 0.960 . S
H922 C936 0.960 . S
H923 C936 0.960 . S
C924 H916 0.929 . S
C924 C925 1.377 . S
C924 C926 1.384 . S
C925 C924 1.377 . S
C925 C931 1.390 . S
C926 H917 0.930 . S
C926 C924 1.384 . S
C926 C927 1.372 . S
C927 C926 1.372 . S
C927 C928 1.400 . S
C927 C932 1.490 . S
C928 H918 0.930 . S
C928 C927 1.400 . S
C928 C931 1.386 . S
H929 C945 0.930 . S
H930 C946 0.931 . S
C931 H919 0.929 . S
C931 C925 1.390 . S
C931 C928 1.386 . S
C932 C927 1.490 . S
C932 C934 1.395 . S
C932 C935 1.403 . S
H933 C939 0.930 . S
C934 H920 0.930 . S
C934 C932 1.395 . S
C934 C937 1.403 . S
C935 C932 1.403 . S
C935 C936 1.524 . S
C935 C939 1.400 . S
C936 H921 0.960 . S
C936 H922 0.960 . S
C936 H923 0.960 . S
C936 C935 1.524 . S
C937 C934 1.403 . S
C937 C938 1.392 . S
C937 C941 1.495 . S
C938 C937 1.392 . S
C938 C939 1.385 . S
C938 C940 1.478 . S
C939 H933 0.930 . S
C939 C935 1.400 . S
C939 C938 1.385 . S
C940 C938 1.478 . S
C940 C942 1.381 . S
C940 C946 1.383 . S
C941 C937 1.495 . S
C941 H947 0.959 . S
C941 H948 0.961 . S
C941 H949 0.960 . S
C942 C940 1.381 . S
C942 C943 1.394 . S
C942 H950 0.930 . S
C943 C942 1.394 . S
C943 C944 1.383 . S
C943 H951 0.929 . S
C944 C943 1.383 . S
C944 C945 1.377 . S
C945 H929 0.930 . S
C945 C944 1.377 . S
C945 C946 1.379 . S
C946 H930 0.931 . S
C946 C940 1.383 . S
C946 C945 1.379 . S
H947 C941 0.959 . S
H948 C941 0.961 . S
H949 C941 0.960 . S
H950 C942 0.930 . S
H951 C943 0.929 . S
H952 C960 0.929 . S
H953 C962 0.930 . S
H954 C964 0.930 . S
H955 C967 0.929 . S
H956 C970 0.930 . S
H957 C972 0.960 . S
H958 C972 0.960 . S
H959 C972 0.960 . S
C960 H952 0.929 . S
C960 C961 1.377 . S
C960 C962 1.384 . S
C961 C960 1.377 . S
C961 C967 1.390 . S
C962 H953 0.930 . S
C962 C960 1.384 . S
C962 C963 1.372 . S
C963 C962 1.372 . S
C963 C964 1.400 . S
C963 C968 1.490 . S
C964 H954 0.930 . S
C964 C963 1.400 . S
C964 C967 1.386 . S
H965 C981 0.930 . S
H966 C982 0.931 . S
C967 H955 0.929 . S
C967 C961 1.390 . S
C967 C964 1.386 . S
C968 C963 1.490 . S
C968 C970 1.395 . S
C968 C971 1.403 . S
H969 C975 0.930 . S
C970 H956 0.930 . S
C970 C968 1.395 . S
C970 C973 1.403 . S
C971 C968 1.403 . S
C971 C972 1.524 . S
C971 C975 1.400 . S
C972 H957 0.960 . S
C972 H958 0.960 . S
C972 H959 0.960 . S
C972 C971 1.524 . S
C973 C970 1.403 . S
C973 C974 1.392 . S
C973 C977 1.495 . S
C974 C973 1.392 . S
C974 C975 1.385 . S
C974 C976 1.478 . S
C975 H969 0.930 . S
C975 C971 1.400 . S
C975 C974 1.385 . S
C976 C974 1.478 . S
C976 C978 1.381 . S
C976 C982 1.383 . S
C977 C973 1.495 . S
C977 H983 0.959 . S
C977 H984 0.961 . S
C977 H985 0.960 . S
C978 C976 1.381 . S
C978 C979 1.394 . S
C978 H986 0.930 . S
C979 C978 1.394 . S
C979 C980 1.383 . S
C979 H987 0.929 . S
C980 C979 1.383 . S
C980 C981 1.377 . S
C981 H965 0.930 . S
C981 C980 1.377 . S
C981 C982 1.379 . S
C982 H966 0.931 . S
C982 C976 1.383 . S
C982 C981 1.379 . S
H983 C977 0.959 . S
H984 C977 0.961 . S
H985 C977 0.960 . S
H986 C978 0.930 . S
H987 C979 0.929 . S
H988 C996 0.929 . S
H989 C998 0.930 . S
H990 C1000 0.930 . S
H991 C1003 0.929 . S
H992 C1006 0.930 . S
H993 C1008 0.960 . S
H994 C1008 0.960 . S
H995 C1008 0.960 . S
C996 H988 0.929 . S
C996 C997 1.377 . S
C996 C998 1.384 . S
C997 C996 1.377 . S
C997 C1003 1.390 . S
C998 H989 0.930 . S
C998 C996 1.384 . S
C998 C999 1.372 . S
C999 C998 1.372 . S
C999 C1000 1.400 . S
C999 C1004 1.490 . S
C1000 H990 0.930 . S
C1000 C999 1.400 . S
C1000 C1003 1.386 . S
H1001 C1017 0.930 . S
H1002 C1018 0.931 . S
C1003 H991 0.929 . S
C1003 C997 1.390 . S
C1003 C1000 1.386 . S
C1004 C999 1.490 . S
C1004 C1006 1.395 . S
C1004 C1007 1.403 . S
H1005 C1011 0.930 . S
C1006 H992 0.930 . S
C1006 C1004 1.395 . S
C1006 C1009 1.403 . S
C1007 C1004 1.403 . S
C1007 C1008 1.524 . S
C1007 C1011 1.400 . S
C1008 H993 0.960 . S
C1008 H994 0.960 . S
C1008 H995 0.960 . S
C1008 C1007 1.524 . S
C1009 C1006 1.403 . S
C1009 C1010 1.392 . S
C1009 C1013 1.495 . S
C1010 C1009 1.392 . S
C1010 C1011 1.385 . S
C1010 C1012 1.478 . S
C1011 H1005 0.930 . S
C1011 C1007 1.400 . S
C1011 C1010 1.385 . S
C1012 C1010 1.478 . S
C1012 C1014 1.381 . S
C1012 C1018 1.383 . S
C1013 C1009 1.495 . S
C1013 H1019 0.959 . S
C1013 H1020 0.961 . S
C1013 H1021 0.960 . S
C1014 C1012 1.381 . S
C1014 C1015 1.394 . S
C1014 H1022 0.930 . S
C1015 C1014 1.394 . S
C1015 C1016 1.383 . S
C1015 H1023 0.929 . S
C1016 C1015 1.383 . S
C1016 C1017 1.377 . S
C1017 H1001 0.930 . S
C1017 C1016 1.377 . S
C1017 C1018 1.379 . S
C1018 H1002 0.931 . S
C1018 C1012 1.383 . S
C1018 C1017 1.379 . S
H1019 C1013 0.959 . S
H1020 C1013 0.961 . S
H1021 C1013 0.960 . S
H1022 C1014 0.930 . S
H1023 C1015 0.929 . S
H1024 C1032 0.929 1_655 S
H1025 C1034 0.930 1_655 S
H1026 C1036 0.930 . S
H1027 C1039 0.929 . S
H1028 C1042 0.930 . S
H1029 C1044 0.960 . S
H1030 C1044 0.960 . S
H1031 C1044 0.960 . S
C1032 H1024 0.929 1_455 S
C1032 C1033 1.377 . S
C1032 C1034 1.384 . S
C1033 C1032 1.377 . S
C1033 C1039 1.390 . S
C1034 H1025 0.930 1_455 S
C1034 C1032 1.384 . S
C1034 C1035 1.372 . S
C1035 C1034 1.372 . S
C1035 C1036 1.400 . S
C1035 C1040 1.490 . S
C1036 H1026 0.930 . S
C1036 C1035 1.400 . S
C1036 C1039 1.386 . S
H1037 C1053 0.930 . S
H1038 C1054 0.931 . S
C1039 H1027 0.929 . S
C1039 C1033 1.390 . S
C1039 C1036 1.386 . S
C1040 C1035 1.490 . S
C1040 C1042 1.395 . S
C1040 C1043 1.403 . S
H1041 C1047 0.930 . S
C1042 H1028 0.930 . S
C1042 C1040 1.395 . S
C1042 C1045 1.403 . S
C1043 C1040 1.403 . S
C1043 C1044 1.524 . S
C1043 C1047 1.400 . S
C1044 H1029 0.960 . S
C1044 H1030 0.960 . S
C1044 H1031 0.960 . S
C1044 C1043 1.524 . S
C1045 C1042 1.403 . S
C1045 C1046 1.392 . S
C1045 C1049 1.495 . S
C1046 C1045 1.392 . S
C1046 C1047 1.385 . S
C1046 C1048 1.478 . S
C1047 H1041 0.930 . S
C1047 C1043 1.400 . S
C1047 C1046 1.385 . S
C1048 C1046 1.478 . S
C1048 C1050 1.360 1_455 S
C1048 C1054 1.383 . S
C1049 C1045 1.495 . S
C1049 H1055 0.959 . S
C1049 H1056 0.961 . S
C1049 H1057 0.960 . S
C1050 C1048 1.360 1_655 S
C1050 C1051 1.396 . S
C1050 H1058 0.950 . S
C1051 C1050 1.396 . S
C1051 C1052 1.383 1_655 S
C1051 H1059 0.929 . S
C1052 C1051 1.383 1_455 S
C1052 C1053 1.377 . S
C1053 H1037 0.930 . S
C1053 C1052 1.377 . S
C1053 C1054 1.379 . S
C1054 H1038 0.931 . S
C1054 C1048 1.383 . S
C1054 C1053 1.379 . S
H1055 C1049 0.959 . S
H1056 C1049 0.961 . S
H1057 C1049 0.960 . S
H1058 C1050 0.950 . S
H1059 C1051 0.929 . S
H1060 C1068 0.929 . S
H1061 C1070 0.930 . S
H1062 C1072 0.930 . S
H1063 C1075 0.929 . S
H1064 C1078 0.930 . S
H1065 C1080 0.960 . S
H1066 C1080 0.960 . S
H1067 C1080 0.960 . S
C1068 H1060 0.929 . S
C1068 C1069 1.377 . S
C1068 C1070 1.384 . S
C1069 C1068 1.377 . S
C1069 C1075 1.390 . S
C1070 H1061 0.930 . S
C1070 C1068 1.384 . S
C1070 C1071 1.372 . S
C1071 C1070 1.372 . S
C1071 C1072 1.400 . S
C1071 C1076 1.490 . S
C1072 H1062 0.930 . S
C1072 C1071 1.400 . S
C1072 C1075 1.386 . S
H1073 C1089 0.930 . S
H1074 C1090 0.931 . S
C1075 H1063 0.929 . S
C1075 C1069 1.390 . S
C1075 C1072 1.386 . S
C1076 C1071 1.490 . S
C1076 C1078 1.395 . S
C1076 C1079 1.403 . S
H1077 C1083 0.930 . S
C1078 H1064 0.930 . S
C1078 C1076 1.395 . S
C1078 C1081 1.403 . S
C1079 C1076 1.403 . S
C1079 C1080 1.524 . S
C1079 C1083 1.400 . S
C1080 H1065 0.960 . S
C1080 H1066 0.960 . S
C1080 H1067 0.960 . S
C1080 C1079 1.524 . S
C1081 C1078 1.403 . S
C1081 C1082 1.392 . S
C1081 C1085 1.495 . S
C1082 C1081 1.392 . S
C1082 C1083 1.385 . S
C1082 C1084 1.478 . S
C1083 H1077 0.930 . S
C1083 C1079 1.400 . S
C1083 C1082 1.385 . S
C1084 C1082 1.478 . S
C1084 C1086 1.381 . S
C1084 C1090 1.383 . S
C1085 C1081 1.495 . S
C1085 H1091 0.959 . S
C1085 H1092 0.961 . S
C1085 H1093 0.960 . S
C1086 C1084 1.381 . S
C1086 C1087 1.394 . S
C1086 H1094 0.930 . S
C1087 C1086 1.394 . S
C1087 C1088 1.383 . S
C1087 H1095 0.929 . S
C1088 C1087 1.383 . S
C1088 C1089 1.377 . S
C1089 H1073 0.930 . S
C1089 C1088 1.377 . S
C1089 C1090 1.379 . S
C1090 H1074 0.931 . S
C1090 C1084 1.383 . S
C1090 C1089 1.379 . S
H1091 C1085 0.959 . S
H1092 C1085 0.961 . S
H1093 C1085 0.960 . S
H1094 C1086 0.930 . S
H1095 C1087 0.929 . S
H1096 C1104 0.929 . S
H1097 C1106 0.930 . S
H1098 C1108 0.930 . S
H1099 C1111 0.929 . S
H1100 C1114 0.930 . S
H1101 C1116 0.960 . S
H1102 C1116 0.960 . S
H1103 C1116 0.960 . S
C1104 H1096 0.929 . S
C1104 C1105 1.377 . S
C1104 C1106 1.384 . S
C1105 C1104 1.377 . S
C1105 C1111 1.390 . S
C1106 H1097 0.930 . S
C1106 C1104 1.384 . S
C1106 C1107 1.372 . S
C1107 C1106 1.372 . S
C1107 C1108 1.400 . S
C1107 C1112 1.490 . S
C1108 H1098 0.930 . S
C1108 C1107 1.400 . S
C1108 C1111 1.386 . S
H1109 C1125 0.930 . S
H1110 C1126 0.931 . S
C1111 H1099 0.929 . S
C1111 C1105 1.390 . S
C1111 C1108 1.386 . S
C1112 C1107 1.490 . S
C1112 C1114 1.395 . S
C1112 C1115 1.403 . S
H1113 C1119 0.930 . S
C1114 H1100 0.930 . S
C1114 C1112 1.395 . S
C1114 C1117 1.403 . S
C1115 C1112 1.403 . S
C1115 C1116 1.524 . S
C1115 C1119 1.400 . S
C1116 H1101 0.960 . S
C1116 H1102 0.960 . S
C1116 H1103 0.960 . S
C1116 C1115 1.524 . S
C1117 C1114 1.403 . S
C1117 C1118 1.392 . S
C1117 C1121 1.495 . S
C1118 C1117 1.392 . S
C1118 C1119 1.385 . S
C1118 C1120 1.478 . S
C1119 H1113 0.930 . S
C1119 C1115 1.400 . S
C1119 C1118 1.385 . S
C1120 C1118 1.478 . S
C1120 C1122 1.391 . S
C1120 C1126 1.383 . S
C1121 C1117 1.495 . S
C1121 H1127 0.959 . S
C1121 H1128 0.961 . S
C1121 H1129 0.960 . S
C1122 C1120 1.391 . S
C1122 C1123 1.389 1_556 S
C1122 H1130 0.925 1_556 S
C1123 C1122 1.389 1_554 S
C1123 C1124 1.375 1_554 S
C1123 H1131 0.929 . S
C1124 C1123 1.375 1_556 S
C1124 C1125 1.393 . S
C1125 H1109 0.930 . S
C1125 C1124 1.393 . S
C1125 C1126 1.379 . S
C1126 H1110 0.931 . S
C1126 C1120 1.383 . S
C1126 C1125 1.379 . S
H1127 C1121 0.959 . S
H1128 C1121 0.961 . S
H1129 C1121 0.960 . S
H1130 C1122 0.925 1_554 S
H1131 C1123 0.929 . S
H1132 C1140 0.929 . S
H1133 C1142 0.930 . S
H1134 C1144 0.930 . S
H1135 C1147 0.929 . S
H1136 C1150 0.930 . S
H1137 C1152 0.960 . S
H1138 C1152 0.960 . S
H1139 C1152 0.960 . S
C1140 H1132 0.929 . S
C1140 C1141 1.377 . S
C1140 C1142 1.384 . S
C1141 C1140 1.377 . S
C1141 C1147 1.390 . S
C1142 H1133 0.930 . S
C1142 C1140 1.384 . S
C1142 C1143 1.372 . S
C1143 C1142 1.372 . S
C1143 C1144 1.400 . S
C1143 C1148 1.490 . S
C1144 H1134 0.930 . S
C1144 C1143 1.400 . S
C1144 C1147 1.386 . S
H1145 C1161 0.930 . S
H1146 C1162 0.931 . S
C1147 H1135 0.929 . S
C1147 C1141 1.390 . S
C1147 C1144 1.386 . S
C1148 C1143 1.490 . S
C1148 C1150 1.395 . S
C1148 C1151 1.403 . S
H1149 C1155 0.930 . S
C1150 H1136 0.930 . S
C1150 C1148 1.395 . S
C1150 C1153 1.403 . S
C1151 C1148 1.403 . S
C1151 C1152 1.524 . S
C1151 C1155 1.400 . S
C1152 H1137 0.960 . S
C1152 H1138 0.960 . S
C1152 H1139 0.960 . S
C1152 C1151 1.524 . S
C1153 C1150 1.403 . S
C1153 C1154 1.392 . S
C1153 C1157 1.495 . S
C1154 C1153 1.392 . S
C1154 C1155 1.385 . S
C1154 C1156 1.478 . S
C1155 H1149 0.930 . S
C1155 C1151 1.400 . S
C1155 C1154 1.385 . S
C1156 C1154 1.478 . S
C1156 C1158 1.381 . S
C1156 C1162 1.383 . S
C1157 C1153 1.495 . S
C1157 H1163 0.959 . S
C1157 H1164 0.961 . S
C1157 H1165 0.960 . S
C1158 C1156 1.381 . S
C1158 C1159 1.394 . S
C1158 H1166 0.930 . S
C1159 C1158 1.394 . S
C1159 C1160 1.383 . S
C1159 H1167 0.929 . S
C1160 C1159 1.383 . S
C1160 C1161 1.377 . S
C1161 H1145 0.930 . S
C1161 C1160 1.377 . S
C1161 C1162 1.379 . S
C1162 H1146 0.931 . S
C1162 C1156 1.383 . S
C1162 C1161 1.379 . S
H1163 C1157 0.959 . S
H1164 C1157 0.961 . S
H1165 C1157 0.960 . S
H1166 C1158 0.930 . S
H1167 C1159 0.929 . S
H1168 C1176 0.929 . S
H1169 C1178 0.930 . S
H1170 C1180 0.930 . S
H1171 C1183 0.929 . S
H1172 C1186 0.930 . S
H1173 C1188 0.960 . S
H1174 C1188 0.960 1_545 S
H1175 C1188 0.960 . S
C1176 H1168 0.929 . S
C1176 C1177 1.377 . S
C1176 C1178 1.384 . S
C1177 C1176 1.377 . S
C1177 C1183 1.390 1_545 S
C1178 H1169 0.930 . S
C1178 C1176 1.384 . S
C1178 C1179 1.372 . S
C1179 C1178 1.372 . S
C1179 C1180 1.400 1_545 S
C1179 C1184 1.490 . S
C1180 H1170 0.930 . S
C1180 C1179 1.400 1_565 S
C1180 C1183 1.386 . S
H1181 C1197 0.930 . S
H1182 C1198 0.931 . S
C1183 H1171 0.929 . S
C1183 C1177 1.390 1_565 S
C1183 C1180 1.386 . S
C1184 C1179 1.490 . S
C1184 C1186 1.395 . S
C1184 C1187 1.403 . S
H1185 C1191 0.934 . S
C1186 H1172 0.930 . S
C1186 C1184 1.395 . S
C1186 C1189 1.403 . S
C1187 C1184 1.403 . S
C1187 C1188 1.524 1_545 S
C1187 C1191 1.399 1_545 S
C1188 H1173 0.960 . S
C1188 H1174 0.960 1_565 S
C1188 H1175 0.960 . S
C1188 C1187 1.524 1_565 S
C1189 C1186 1.403 . S
C1189 C1190 1.392 . S
C1189 C1193 1.495 . S
C1190 C1189 1.392 . S
C1190 C1191 1.383 1_545 S
C1190 C1192 1.478 . S
C1191 H1185 0.934 . S
C1191 C1187 1.399 1_565 S
C1191 C1190 1.383 1_565 S
C1192 C1190 1.478 . S
C1192 C1194 1.381 . S
C1192 C1198 1.383 1_545 S
C1193 C1189 1.495 . S
C1193 H1199 0.959 . S
C1193 H1200 0.961 . S
C1193 H1201 0.960 . S
C1194 C1192 1.381 . S
C1194 C1195 1.394 . S
C1194 H1202 0.930 . S
C1195 C1194 1.394 . S
C1195 C1196 1.383 1_545 S
C1195 H1203 0.929 . S
C1196 C1195 1.383 1_565 S
C1196 C1197 1.377 . S
C1197 H1181 0.930 . S
C1197 C1196 1.377 . S
C1197 C1198 1.379 . S
C1198 H1182 0.931 . S
C1198 C1192 1.383 1_565 S
C1198 C1197 1.379 . S
H1199 C1193 0.959 . S
H1200 C1193 0.961 . S
H1201 C1193 0.960 . S
H1202 C1194 0.930 . S
H1203 C1195 0.929 . S
H1204 C1212 0.929 . S
H1205 C1214 0.930 . S
H1206 C1216 0.930 . S
H1207 C1219 0.929 . S
H1208 C1222 0.930 . S
H1209 C1224 0.960 . S
H1210 C1224 0.960 . S
H1211 C1224 0.960 . S
C1212 H1204 0.929 . S
C1212 C1213 1.377 . S
C1212 C1214 1.384 . S
C1213 C1212 1.377 . S
C1213 C1219 1.390 . S
C1214 H1205 0.930 . S
C1214 C1212 1.384 . S
C1214 C1215 1.372 . S
C1215 C1214 1.372 . S
C1215 C1216 1.400 . S
C1215 C1220 1.490 . S
C1216 H1206 0.930 . S
C1216 C1215 1.400 . S
C1216 C1219 1.386 . S
H1217 C1233 0.930 . S
H1218 C1234 0.931 . S
C1219 H1207 0.929 . S
C1219 C1213 1.390 . S
C1219 C1216 1.386 . S
C1220 C1215 1.490 . S
C1220 C1222 1.395 . S
C1220 C1223 1.403 . S
H1221 C1227 0.930 . S
C1222 H1208 0.930 . S
C1222 C1220 1.395 . S
C1222 C1225 1.403 . S
C1223 C1220 1.403 . S
C1223 C1224 1.524 . S
C1223 C1227 1.400 . S
C1224 H1209 0.960 . S
C1224 H1210 0.960 . S
C1224 H1211 0.960 . S
C1224 C1223 1.524 . S
C1225 C1222 1.403 . S
C1225 C1226 1.392 . S
C1225 C1229 1.495 . S
C1226 C1225 1.392 . S
C1226 C1227 1.385 . S
C1226 C1228 1.478 . S
C1227 H1221 0.930 . S
C1227 C1223 1.400 . S
C1227 C1226 1.385 . S
C1228 C1226 1.478 . S
C1228 C1230 1.381 . S
C1228 C1234 1.383 . S
C1229 C1225 1.495 . S
C1229 H1235 0.959 . S
C1229 H1236 0.961 . S
C1229 H1237 0.960 . S
C1230 C1228 1.381 . S
C1230 C1231 1.394 . S
C1230 H1238 0.930 . S
C1231 C1230 1.394 . S
C1231 C1232 1.383 . S
C1231 H1239 0.929 . S
C1232 C1231 1.383 . S
C1232 C1233 1.377 . S
C1233 H1217 0.930 . S
C1233 C1232 1.377 . S
C1233 C1234 1.379 . S
C1234 H1218 0.931 . S
C1234 C1228 1.383 . S
C1234 C1233 1.379 . S
H1235 C1229 0.959 . S
H1236 C1229 0.961 . S
H1237 C1229 0.960 . S
H1238 C1230 0.930 . S
H1239 C1231 0.929 . S
H1240 C1248 0.929 . S
H1241 C1250 0.930 . S
H1242 C1252 0.930 . S
H1243 C1255 0.929 . S
H1244 C1258 0.930 . S
H1245 C1260 0.960 . S
H1246 C1260 0.963 . S
H1247 C1260 0.960 . S
C1248 H1240 0.929 . S
C1248 C1249 1.377 1_565 S
C1248 C1250 1.384 . S
C1249 C1248 1.377 1_545 S
C1249 C1255 1.390 . S
C1250 H1241 0.930 . S
C1250 C1248 1.384 . S
C1250 C1251 1.372 1_565 S
C1251 C1250 1.372 1_545 S
C1251 C1252 1.400 . S
C1251 C1256 1.490 . S
C1252 H1242 0.930 . S
C1252 C1251 1.400 . S
C1252 C1255 1.386 . S
H1253 C1269 0.930 . S
H1254 C1270 0.931 . S
C1255 H1243 0.929 . S
C1255 C1249 1.390 . S
C1255 C1252 1.386 . S
C1256 C1251 1.490 . S
C1256 C1258 1.395 . S
C1256 C1259 1.403 . S
H1257 C1263 0.930 . S
C1258 H1244 0.930 . S
C1258 C1256 1.395 . S
C1258 C1261 1.403 . S
C1259 C1256 1.403 . S
C1259 C1260 1.524 . S
C1259 C1263 1.400 . S
C1260 H1245 0.960 . S
C1260 H1246 0.963 . S
C1260 H1247 0.960 . S
C1260 C1259 1.524 . S
C1261 C1258 1.403 . S
C1261 C1262 1.392 . S
C1261 C1265 1.495 . S
C1262 C1261 1.392 . S
C1262 C1263 1.385 . S
C1262 C1264 1.478 . S
C1263 H1257 0.930 . S
C1263 C1259 1.400 . S
C1263 C1262 1.385 . S
C1264 C1262 1.478 . S
C1264 C1266 1.381 . S
C1264 C1270 1.383 . S
C1265 C1261 1.495 . S
C1265 H1271 0.959 . S
C1265 H1272 0.961 . S
C1265 H1273 0.960 . S
C1266 C1264 1.381 . S
C1266 C1267 1.394 . S
C1266 H1274 0.930 1_545 S
C1267 C1266 1.394 . S
C1267 C1268 1.383 . S
C1267 H1275 0.929 1_545 S
C1268 C1267 1.383 . S
C1268 C1269 1.377 . S
C1269 H1253 0.930 . S
C1269 C1268 1.377 . S
C1269 C1270 1.379 . S
C1270 H1254 0.931 . S
C1270 C1264 1.383 . S
C1270 C1269 1.379 . S
H1271 C1265 0.959 . S
H1272 C1265 0.961 . S
H1273 C1265 0.960 . S
H1274 C1266 0.930 1_565 S
H1275 C1267 0.929 1_565 S
H1276 C1284 0.929 . S
H1277 C1286 0.930 . S
H1278 C1288 0.930 . S
H1279 C1291 0.929 . S
H1280 C1294 0.930 . S
H1281 C1296 0.960 . S
H1282 C1296 0.960 . S
H1283 C1296 0.960 . S
C1284 H1276 0.929 . S
C1284 C1285 1.377 . S
C1284 C1286 1.384 . S
C1285 C1284 1.377 . S
C1285 C1291 1.390 . S
C1286 H1277 0.930 . S
C1286 C1284 1.384 . S
C1286 C1287 1.372 . S
C1287 C1286 1.372 . S
C1287 C1288 1.400 . S
C1287 C1292 1.490 . S
C1288 H1278 0.930 . S
C1288 C1287 1.400 . S
C1288 C1291 1.386 . S
H1289 C1305 0.930 . S
H1290 C1306 0.931 . S
C1291 H1279 0.929 . S
C1291 C1285 1.390 . S
C1291 C1288 1.386 . S
C1292 C1287 1.490 . S
C1292 C1294 1.395 . S
C1292 C1295 1.403 . S
H1293 C1299 0.930 . S
C1294 H1280 0.930 . S
C1294 C1292 1.395 . S
C1294 C1297 1.403 . S
C1295 C1292 1.403 . S
C1295 C1296 1.524 . S
C1295 C1299 1.400 . S
C1296 H1281 0.960 . S
C1296 H1282 0.960 . S
C1296 H1283 0.960 . S
C1296 C1295 1.524 . S
C1297 C1294 1.403 . S
C1297 C1298 1.392 . S
C1297 C1301 1.495 . S
C1298 C1297 1.392 . S
C1298 C1299 1.385 . S
C1298 C1300 1.478 . S
C1299 H1293 0.930 . S
C1299 C1295 1.400 . S
C1299 C1298 1.385 . S
C1300 C1298 1.478 . S
C1300 C1302 1.381 . S
C1300 C1306 1.383 . S
C1301 C1297 1.495 . S
C1301 H1307 0.959 . S
C1301 H1308 0.961 . S
C1301 H1309 0.960 . S
C1302 C1300 1.381 . S
C1302 C1303 1.394 . S
C1302 H1310 0.930 . S
C1303 C1302 1.394 . S
C1303 C1304 1.383 . S
C1303 H1311 0.929 . S
C1304 C1303 1.383 . S
C1304 C1305 1.377 . S
C1305 H1289 0.930 . S
C1305 C1304 1.377 . S
C1305 C1306 1.379 . S
C1306 H1290 0.931 . S
C1306 C1300 1.383 . S
C1306 C1305 1.379 . S
H1307 C1301 0.959 . S
H1308 C1301 0.961 . S
H1309 C1301 0.960 . S
H1310 C1302 0.930 . S
H1311 C1303 0.929 . S
H1312 C1320 0.929 . S
H1313 C1322 0.930 . S
H1314 C1324 0.930 . S
H1315 C1327 0.929 . S
H1316 C1330 0.930 1_565 S
H1317 C1332 0.960 . S
H1318 C1332 0.960 . S
H1319 C1332 0.960 . S
C1320 H1312 0.929 . S
C1320 C1321 1.377 . S
C1320 C1322 1.384 . S
C1321 C1320 1.377 . S
C1321 C1327 1.390 . S
C1322 H1313 0.930 . S
C1322 C1320 1.384 . S
C1322 C1323 1.372 . S
C1323 C1322 1.372 . S
C1323 C1324 1.400 . S
C1323 C1328 1.490 . S
C1324 H1314 0.930 . S
C1324 C1323 1.400 . S
C1324 C1327 1.386 . S
H1325 C1341 0.930 . S
H1326 C1342 0.931 . S
C1327 H1315 0.929 . S
C1327 C1321 1.390 . S
C1327 C1324 1.386 . S
C1328 C1323 1.490 . S
C1328 C1330 1.395 . S
C1328 C1331 1.403 . S
H1329 C1335 0.930 . S
C1330 H1316 0.930 1_545 S
C1330 C1328 1.395 . S
C1330 C1333 1.403 . S
C1331 C1328 1.403 . S
C1331 C1332 1.524 . S
C1331 C1335 1.400 . S
C1332 H1317 0.960 . S
C1332 H1318 0.960 . S
C1332 H1319 0.960 . S
C1332 C1331 1.524 . S
C1333 C1330 1.403 . S
C1333 C1334 1.392 . S
C1333 C1337 1.495 1_545 S
C1334 C1333 1.392 . S
C1334 C1335 1.385 . S
C1334 C1336 1.478 . S
C1335 H1329 0.930 . S
C1335 C1331 1.400 . S
C1335 C1334 1.385 . S
C1336 C1334 1.478 . S
C1336 C1338 1.381 . S
C1336 C1342 1.383 . S
C1337 C1333 1.495 1_565 S
C1337 H1343 0.959 . S
C1337 H1344 0.961 . S
C1337 H1345 0.960 . S
C1338 C1336 1.381 . S
C1338 C1339 1.394 . S
C1338 H1346 0.930 . S
C1339 C1338 1.394 . S
C1339 C1340 1.383 . S
C1339 H1347 0.929 . S
C1340 C1339 1.383 . S
C1340 C1341 1.377 . S
C1341 H1325 0.930 . S
C1341 C1340 1.377 . S
C1341 C1342 1.379 . S
C1342 H1326 0.931 . S
C1342 C1336 1.383 . S
C1342 C1341 1.379 . S
H1343 C1337 0.959 . S
H1344 C1337 0.961 . S
H1345 C1337 0.960 . S
H1346 C1338 0.930 . S
H1347 C1339 0.929 . S
H1348 C1356 0.929 . S
H1349 C1358 0.930 . S
H1350 C1360 0.930 . S
H1351 C1363 0.929 . S
H1352 C1366 0.930 . S
H1353 C1368 0.960 . S
H1354 C1368 0.960 . S
H1355 C1368 0.960 . S
C1356 H1348 0.929 . S
C1356 C1357 1.377 . S
C1356 C1358 1.384 . S
C1357 C1356 1.377 . S
C1357 C1363 1.390 . S
C1358 H1349 0.930 . S
C1358 C1356 1.384 . S
C1358 C1359 1.372 . S
C1359 C1358 1.372 . S
C1359 C1360 1.400 . S
C1359 C1364 1.490 . S
C1360 H1350 0.930 . S
C1360 C1359 1.400 . S
C1360 C1363 1.386 . S
H1361 C1377 0.930 . S
H1362 C1378 0.931 . S
C1363 H1351 0.929 . S
C1363 C1357 1.390 . S
C1363 C1360 1.386 . S
C1364 C1359 1.490 . S
C1364 C1366 1.395 . S
C1364 C1367 1.403 . S
H1365 C1371 0.930 . S
C1366 H1352 0.930 . S
C1366 C1364 1.395 . S
C1366 C1369 1.403 . S
C1367 C1364 1.403 . S
C1367 C1368 1.524 . S
C1367 C1371 1.400 . S
C1368 H1353 0.960 . S
C1368 H1354 0.960 . S
C1368 H1355 0.960 . S
C1368 C1367 1.524 . S
C1369 C1366 1.403 . S
C1369 C1370 1.392 . S
C1369 C1373 1.495 . S
C1370 C1369 1.392 . S
C1370 C1371 1.385 . S
C1370 C1372 1.478 . S
C1371 H1365 0.930 . S
C1371 C1367 1.400 . S
C1371 C1370 1.385 . S
C1372 C1370 1.478 . S
C1372 C1374 1.381 . S
C1372 C1378 1.383 . S
C1373 C1369 1.495 . S
C1373 H1379 0.959 . S
C1373 H1380 0.961 . S
C1373 H1381 0.960 . S
C1374 C1372 1.381 . S
C1374 C1375 1.394 . S
C1374 H1382 0.930 . S
C1375 C1374 1.394 . S
C1375 C1376 1.383 . S
C1375 H1383 0.929 . S
C1376 C1375 1.383 . S
C1376 C1377 1.377 . S
C1377 H1361 0.930 . S
C1377 C1376 1.377 . S
C1377 C1378 1.379 . S
C1378 H1362 0.931 . S
C1378 C1372 1.383 . S
C1378 C1377 1.379 . S
H1379 C1373 0.959 . S
H1380 C1373 0.961 . S
H1381 C1373 0.960 . S
H1382 C1374 0.930 . S
H1383 C1375 0.929 . S
H1384 C1392 0.929 . S
H1385 C1394 0.930 . S
H1386 C1396 0.930 . S
H1387 C1399 0.929 . S
H1388 C1402 0.930 . S
H1389 C1404 0.960 . S
H1390 C1404 0.960 . S
H1391 C1404 0.960 . S
C1392 H1384 0.929 . S
C1392 C1393 1.377 . S
C1392 C1394 1.384 . S
C1393 C1392 1.377 . S
C1393 C1399 1.390 1_545 S
C1394 H1385 0.930 . S
C1394 C1392 1.384 . S
C1394 C1395 1.372 . S
C1395 C1394 1.372 . S
C1395 C1396 1.400 1_545 S
C1395 C1400 1.487 1_545 S
C1396 H1386 0.930 . S
C1396 C1395 1.400 1_565 S
C1396 C1399 1.386 . S
H1397 C1413 0.930 . S
H1398 C1414 0.931 . S
C1399 H1387 0.929 . S
C1399 C1393 1.390 1_565 S
C1399 C1396 1.386 . S
C1400 C1395 1.487 1_565 S
C1400 C1402 1.402 . S
C1400 C1403 1.398 1_565 S
H1401 C1407 0.930 . S
C1402 H1388 0.930 . S
C1402 C1400 1.402 . S
C1402 C1405 1.403 . S
C1403 C1400 1.398 1_545 S
C1403 C1404 1.524 . S
C1403 C1407 1.400 . S
C1404 H1389 0.960 . S
C1404 H1390 0.960 . S
C1404 H1391 0.960 . S
C1404 C1403 1.524 . S
C1405 C1402 1.403 . S
C1405 C1406 1.392 . S
C1405 C1409 1.495 . S
C1406 C1405 1.392 . S
C1406 C1407 1.385 1_565 S
C1406 C1408 1.478 . S
C1407 H1401 0.930 . S
C1407 C1403 1.400 . S
C1407 C1406 1.385 1_545 S
C1408 C1406 1.478 . S
C1408 C1410 1.391 . S
C1408 C1414 1.383 . S
C1409 C1405 1.495 . S
C1409 H1415 0.959 . S
C1409 H1416 0.961 . S
C1409 H1417 0.960 . S
C1410 C1408 1.391 . S
C1410 C1411 1.396 . S
C1410 H1418 0.919 1_565 S
C1411 C1410 1.396 . S
C1411 C1412 1.383 . S
C1411 H1419 0.929 1_565 S
C1412 C1411 1.383 . S
C1412 C1413 1.377 . S
C1413 H1397 0.930 . S
C1413 C1412 1.377 . S
C1413 C1414 1.379 . S
C1414 H1398 0.931 . S
C1414 C1408 1.383 . S
C1414 C1413 1.379 . S
H1415 C1409 0.959 . S
H1416 C1409 0.961 . S
H1417 C1409 0.960 . S
H1418 C1410 0.919 1_545 S
H1419 C1411 0.929 1_545 S
H1420 C1428 0.929 . S
H1421 C1430 0.930 . S
H1422 C1432 0.930 . S
H1423 C1435 0.929 . S
H1424 C1438 0.930 . S
H1425 C1440 0.960 . S
H1426 C1440 0.960 . S
H1427 C1440 0.960 . S
C1428 H1420 0.929 . S
C1428 C1429 1.377 . S
C1428 C1430 1.384 . S
C1429 C1428 1.377 . S
C1429 C1435 1.390 . S
C1430 H1421 0.930 . S
C1430 C1428 1.384 . S
C1430 C1431 1.372 . S
C1431 C1430 1.372 . S
C1431 C1432 1.400 . S
C1431 C1436 1.490 . S
C1432 H1422 0.930 . S
C1432 C1431 1.400 . S
C1432 C1435 1.386 . S
H1433 C1449 0.930 . S
H1434 C1450 0.931 . S
C1435 H1423 0.929 . S
C1435 C1429 1.390 . S
C1435 C1432 1.386 . S
C1436 C1431 1.490 . S
C1436 C1438 1.395 . S
C1436 C1439 1.403 . S
H1437 C1443 0.930 . S
C1438 H1424 0.930 . S
C1438 C1436 1.395 . S
C1438 C1441 1.403 . S
C1439 C1436 1.403 . S
C1439 C1440 1.524 . S
C1439 C1443 1.400 . S
C1440 H1425 0.960 . S
C1440 H1426 0.960 . S
C1440 H1427 0.960 . S
C1440 C1439 1.524 . S
C1441 C1438 1.403 . S
C1441 C1442 1.392 . S
C1441 C1445 1.495 . S
C1442 C1441 1.392 . S
C1442 C1443 1.385 . S
C1442 C1444 1.478 . S
C1443 H1437 0.930 . S
C1443 C1439 1.400 . S
C1443 C1442 1.385 . S
C1444 C1442 1.478 . S
C1444 C1446 1.381 . S
C1444 C1450 1.383 . S
C1445 C1441 1.495 . S
C1445 H1451 0.959 . S
C1445 H1452 0.961 . S
C1445 H1453 0.960 . S
C1446 C1444 1.381 . S
C1446 C1447 1.394 . S
C1446 H1454 0.930 . S
C1447 C1446 1.394 . S
C1447 C1448 1.383 . S
C1447 H1455 0.929 . S
C1448 C1447 1.383 . S
C1448 C1449 1.377 . S
C1449 H1433 0.930 . S
C1449 C1448 1.377 . S
C1449 C1450 1.379 . S
C1450 H1434 0.931 . S
C1450 C1444 1.383 . S
C1450 C1449 1.379 . S
H1451 C1445 0.959 . S
H1452 C1445 0.961 . S
H1453 C1445 0.960 . S
H1454 C1446 0.930 . S
H1455 C1447 0.929 . S
H1456 C1464 0.929 1_556 S
H1457 C1466 0.930 1_556 S
H1458 C1468 0.930 . S
H1459 C1471 0.929 . S
H1460 C1474 0.930 . S
H1461 C1476 0.960 . S
H1462 C1476 0.960 . S
H1463 C1476 0.960 . S
C1464 H1456 0.929 1_554 S
C1464 C1465 1.377 . S
C1464 C1466 1.384 . S
C1465 C1464 1.377 . S
C1465 C1471 1.390 . S
C1466 H1457 0.930 1_554 S
C1466 C1464 1.384 . S
C1466 C1467 1.372 . S
C1467 C1466 1.372 . S
C1467 C1468 1.400 . S
C1467 C1472 1.490 . S
C1468 H1458 0.930 . S
C1468 C1467 1.400 . S
C1468 C1471 1.386 . S
H1469 C1485 0.930 . S
H1470 C1486 0.931 . S
C1471 H1459 0.929 . S
C1471 C1465 1.390 . S
C1471 C1468 1.386 . S
C1472 C1467 1.490 . S
C1472 C1474 1.395 1_554 S
C1472 C1475 1.403 . S
H1473 C1479 0.930 . S
C1474 H1460 0.930 . S
C1474 C1472 1.395 1_556 S
C1474 C1477 1.403 . S
C1475 C1472 1.403 . S
C1475 C1476 1.524 . S
C1475 C1479 1.400 . S
C1476 H1461 0.960 . S
C1476 H1462 0.960 . S
C1476 H1463 0.960 . S
C1476 C1475 1.524 . S
C1477 C1474 1.403 . S
C1477 C1478 1.392 1_556 S
C1477 C1481 1.495 . S
C1478 C1477 1.392 1_554 S
C1478 C1479 1.385 . S
C1478 C1480 1.483 . S
C1479 H1473 0.930 . S
C1479 C1475 1.400 . S
C1479 C1478 1.385 . S
C1480 C1478 1.483 . S
C1480 C1482 1.351 1_554 S
C1480 C1486 1.411 . S
C1481 C1477 1.495 . S
C1481 H1487 0.959 . S
C1481 H1488 0.961 . S
C1481 H1489 0.960 . S
C1482 C1480 1.351 1_556 S
C1482 C1483 1.394 . S
C1482 H1490 0.930 . S
C1483 C1482 1.394 . S
C1483 C1484 1.383 . S
C1483 H1491 0.929 . S
C1484 C1483 1.383 . S
C1484 C1485 1.377 1_556 S
C1485 H1469 0.930 . S
C1485 C1484 1.377 1_554 S
C1485 C1486 1.379 . S
C1486 H1470 0.931 . S
C1486 C1480 1.411 . S
C1486 C1485 1.379 . S
H1487 C1481 0.959 . S
H1488 C1481 0.961 . S
H1489 C1481 0.960 . S
H1490 C1482 0.930 . S
H1491 C1483 0.929 . S
H1492 C1500 0.929 . S
H1493 C1502 0.930 . S
H1494 C1504 0.930 . S
H1495 C1507 0.929 . S
H1496 C1510 0.930 . S
H1497 C1512 0.960 . S
H1498 C1512 0.960 . S
H1499 C1512 0.960 . S
C1500 H1492 0.929 . S
C1500 C1501 1.377 . S
C1500 C1502 1.384 . S
C1501 C1500 1.377 . S
C1501 C1507 1.390 . S
C1502 H1493 0.930 . S
C1502 C1500 1.384 . S
C1502 C1503 1.372 . S
C1503 C1502 1.372 . S
C1503 C1504 1.400 . S
C1503 C1508 1.490 . S
C1504 H1494 0.930 . S
C1504 C1503 1.400 . S
C1504 C1507 1.386 . S
H1505 C1521 0.930 . S
H1506 C1522 0.931 . S
C1507 H1495 0.929 . S
C1507 C1501 1.390 . S
C1507 C1504 1.386 . S
C1508 C1503 1.490 . S
C1508 C1510 1.395 . S
C1508 C1511 1.403 . S
H1509 C1515 0.930 . S
C1510 H1496 0.930 . S
C1510 C1508 1.395 . S
C1510 C1513 1.403 . S
C1511 C1508 1.403 . S
C1511 C1512 1.524 . S
C1511 C1515 1.400 . S
C1512 H1497 0.960 . S
C1512 H1498 0.960 . S
C1512 H1499 0.960 . S
C1512 C1511 1.524 . S
C1513 C1510 1.403 . S
C1513 C1514 1.392 . S
C1513 C1517 1.495 . S
C1514 C1513 1.392 . S
C1514 C1515 1.385 . S
C1514 C1516 1.478 . S
C1515 H1509 0.930 . S
C1515 C1511 1.400 . S
C1515 C1514 1.385 . S
C1516 C1514 1.478 . S
C1516 C1518 1.381 . S
C1516 C1522 1.383 . S
C1517 C1513 1.495 . S
C1517 H1523 0.959 . S
C1517 H1524 0.961 . S
C1517 H1525 0.960 . S
C1518 C1516 1.381 . S
C1518 C1519 1.394 . S
C1518 H1526 0.930 . S
C1519 C1518 1.394 . S
C1519 C1520 1.383 . S
C1519 H1527 0.929 . S
C1520 C1519 1.383 . S
C1520 C1521 1.377 . S
C1521 H1505 0.930 . S
C1521 C1520 1.377 . S
C1521 C1522 1.379 . S
C1522 H1506 0.931 . S
C1522 C1516 1.383 . S
C1522 C1521 1.379 . S
H1523 C1517 0.959 . S
H1524 C1517 0.961 . S
H1525 C1517 0.960 . S
H1526 C1518 0.930 . S
H1527 C1519 0.929 . S
H1528 C1536 0.929 . S
H1529 C1538 0.930 . S
H1530 C1540 0.930 . S
H1531 C1543 0.929 . S
H1532 C1546 0.930 . S
H1533 C1548 0.960 . S
H1534 C1548 0.960 . S
H1535 C1548 0.960 . S
C1536 H1528 0.929 . S
C1536 C1537 1.377 . S
C1536 C1538 1.384 . S
C1537 C1536 1.377 . S
C1537 C1543 1.390 . S
C1538 H1529 0.930 . S
C1538 C1536 1.384 . S
C1538 C1539 1.372 . S
C1539 C1538 1.372 . S
C1539 C1540 1.400 . S
C1539 C1544 1.490 . S
C1540 H1530 0.930 . S
C1540 C1539 1.400 . S
C1540 C1543 1.386 . S
H1541 C1557 0.930 . S
H1542 C1558 0.931 . S
C1543 H1531 0.929 . S
C1543 C1537 1.390 . S
C1543 C1540 1.386 . S
C1544 C1539 1.490 . S
C1544 C1546 1.395 . S
C1544 C1547 1.403 . S
H1545 C1551 0.930 . S
C1546 H1532 0.930 . S
C1546 C1544 1.395 . S
C1546 C1549 1.403 . S
C1547 C1544 1.403 . S
C1547 C1548 1.524 . S
C1547 C1551 1.400 . S
C1548 H1533 0.960 . S
C1548 H1534 0.960 . S
C1548 H1535 0.960 . S
C1548 C1547 1.524 . S
C1549 C1546 1.403 . S
C1549 C1550 1.392 . S
C1549 C1553 1.495 . S
C1550 C1549 1.392 . S
C1550 C1551 1.385 . S
C1550 C1552 1.478 . S
C1551 H1545 0.930 . S
C1551 C1547 1.400 . S
C1551 C1550 1.385 . S
C1552 C1550 1.478 . S
C1552 C1554 1.381 . S
C1552 C1558 1.383 . S
C1553 C1549 1.495 . S
C1553 H1559 0.959 . S
C1553 H1560 0.961 . S
C1553 H1561 0.960 . S
C1554 C1552 1.381 . S
C1554 C1555 1.394 . S
C1554 H1562 0.930 . S
C1555 C1554 1.394 . S
C1555 C1556 1.383 . S
C1555 H1563 0.929 . S
C1556 C1555 1.383 . S
C1556 C1557 1.377 . S
C1557 H1541 0.930 . S
C1557 C1556 1.377 . S
C1557 C1558 1.379 . S
C1558 H1542 0.931 . S
C1558 C1552 1.383 . S
C1558 C1557 1.379 . S
H1559 C1553 0.959 . S
H1560 C1553 0.961 . S
H1561 C1553 0.960 . S
H1562 C1554 0.930 . S
H1563 C1555 0.929 . S
H1564 C1572 0.929 . S
H1565 C1574 0.930 . S
H1566 C1576 0.930 . S
H1567 C1579 0.929 . S
H1568 C1582 0.930 . S
H1569 C1584 0.960 . S
H1570 C1584 0.960 . S
H1571 C1584 0.960 . S
C1572 H1564 0.929 . S
C1572 C1573 1.377 . S
C1572 C1574 1.384 . S
C1573 C1572 1.377 . S
C1573 C1579 1.390 . S
C1574 H1565 0.930 . S
C1574 C1572 1.384 . S
C1574 C1575 1.372 . S
C1575 C1574 1.372 . S
C1575 C1576 1.400 . S
C1575 C1580 1.490 . S
C1576 H1566 0.930 . S
C1576 C1575 1.400 . S
C1576 C1579 1.386 . S
H1577 C1593 0.930 . S
H1578 C1594 0.931 . S
C1579 H1567 0.929 . S
C1579 C1573 1.390 . S
C1579 C1576 1.386 . S
C1580 C1575 1.490 . S
C1580 C1582 1.395 . S
C1580 C1583 1.403 . S
H1581 C1587 0.930 . S
C1582 H1568 0.930 . S
C1582 C1580 1.395 . S
C1582 C1585 1.403 . S
C1583 C1580 1.403 . S
C1583 C1584 1.524 . S
C1583 C1587 1.400 . S
C1584 H1569 0.960 . S
C1584 H1570 0.960 . S
C1584 H1571 0.960 . S
C1584 C1583 1.524 . S
C1585 C1582 1.403 . S
C1585 C1586 1.392 . S
C1585 C1589 1.495 . S
C1586 C1585 1.392 . S
C1586 C1587 1.385 . S
C1586 C1588 1.478 . S
C1587 H1581 0.930 . S
C1587 C1583 1.400 . S
C1587 C1586 1.385 . S
C1588 C1586 1.478 . S
C1588 C1590 1.381 . S
C1588 C1594 1.383 . S
C1589 C1585 1.495 . S
C1589 H1595 0.959 . S
C1589 H1596 0.961 . S
C1589 H1597 0.960 . S
C1590 C1588 1.381 . S
C1590 C1591 1.394 . S
C1590 H1598 0.930 . S
C1591 C1590 1.394 . S
C1591 C1592 1.383 . S
C1591 H1599 0.929 . S
C1592 C1591 1.383 . S
C1592 C1593 1.377 . S
C1593 H1577 0.930 . S
C1593 C1592 1.377 . S
C1593 C1594 1.379 . S
C1594 H1578 0.931 . S
C1594 C1588 1.383 . S
C1594 C1593 1.379 . S
H1595 C1589 0.959 . S
H1596 C1589 0.961 . S
H1597 C1589 0.960 . S
H1598 C1590 0.930 . S
H1599 C1591 0.929 . S
H1600 C1608 0.929 . S
H1601 C1610 0.930 . S
H1602 C1612 0.930 . S
H1603 C1615 0.929 . S
H1604 C1618 0.930 . S
H1605 C1620 0.960 . S
H1606 C1620 0.960 . S
H1607 C1620 0.960 . S
C1608 H1600 0.929 . S
C1608 C1609 1.377 . S
C1608 C1610 1.384 . S
C1609 C1608 1.377 . S
C1609 C1615 1.390 . S
C1610 H1601 0.930 . S
C1610 C1608 1.384 . S
C1610 C1611 1.372 . S
C1611 C1610 1.372 . S
C1611 C1612 1.400 . S
C1611 C1616 1.490 . S
C1612 H1602 0.930 . S
C1612 C1611 1.400 . S
C1612 C1615 1.386 . S
H1613 C1629 0.930 . S
H1614 C1630 0.931 . S
C1615 H1603 0.929 . S
C1615 C1609 1.390 . S
C1615 C1612 1.386 . S
C1616 C1611 1.490 . S
C1616 C1618 1.395 . S
C1616 C1619 1.403 . S
H1617 C1623 0.930 . S
C1618 H1604 0.930 . S
C1618 C1616 1.395 . S
C1618 C1621 1.403 . S
C1619 C1616 1.403 . S
C1619 C1620 1.524 . S
C1619 C1623 1.400 . S
C1620 H1605 0.960 . S
C1620 H1606 0.960 . S
C1620 H1607 0.960 . S
C1620 C1619 1.524 . S
C1621 C1618 1.403 . S
C1621 C1622 1.392 . S
C1621 C1625 1.495 . S
C1622 C1621 1.392 . S
C1622 C1623 1.385 . S
C1622 C1624 1.478 . S
C1623 H1617 0.930 . S
C1623 C1619 1.400 . S
C1623 C1622 1.385 . S
C1624 C1622 1.478 . S
C1624 C1626 1.381 . S
C1624 C1630 1.383 . S
C1625 C1621 1.495 . S
C1625 H1631 0.959 . S
C1625 H1632 0.961 . S
C1625 H1633 0.960 . S
C1626 C1624 1.381 . S
C1626 C1627 1.394 . S
C1626 H1634 0.930 . S
C1627 C1626 1.394 . S
C1627 C1628 1.383 . S
C1627 H1635 0.929 . S
C1628 C1627 1.383 . S
C1628 C1629 1.377 . S
C1629 H1613 0.930 . S
C1629 C1628 1.377 . S
C1629 C1630 1.379 . S
C1630 H1614 0.931 . S
C1630 C1624 1.383 . S
C1630 C1629 1.379 . S
H1631 C1625 0.959 . S
H1632 C1625 0.961 . S
H1633 C1625 0.960 . S
H1634 C1626 0.930 . S
H1635 C1627 0.929 . S
H1636 C1644 0.929 . S
H1637 C1646 0.930 . S
H1638 C1648 0.930 . S
H1639 C1651 0.929 . S
H1640 C1654 0.930 . S
H1641 C1656 0.960 . S
H1642 C1656 0.960 . S
H1643 C1656 0.960 . S
C1644 H1636 0.929 . S
C1644 C1645 1.377 . S
C1644 C1646 1.384 . S
C1645 C1644 1.377 . S
C1645 C1651 1.390 . S
C1646 H1637 0.930 . S
C1646 C1644 1.384 . S
C1646 C1647 1.372 . S
C1647 C1646 1.372 . S
C1647 C1648 1.400 . S
C1647 C1652 1.490 . S
C1648 H1638 0.930 . S
C1648 C1647 1.400 . S
C1648 C1651 1.386 . S
H1649 C1665 0.900 1_545 S
H1650 C1666 0.931 . S
C1651 H1639 0.929 . S
C1651 C1645 1.390 . S
C1651 C1648 1.386 . S
C1652 C1647 1.490 . S
C1652 C1654 1.395 . S
C1652 C1655 1.403 . S
H1653 C1659 0.930 . S
C1654 H1640 0.930 . S
C1654 C1652 1.395 . S
C1654 C1657 1.403 . S
C1655 C1652 1.403 . S
C1655 C1656 1.524 . S
C1655 C1659 1.400 . S
C1656 H1641 0.960 . S
C1656 H1642 0.960 . S
C1656 H1643 0.960 . S
C1656 C1655 1.524 . S
C1657 C1654 1.403 . S
C1657 C1658 1.392 . S
C1657 C1661 1.495 . S
C1658 C1657 1.392 . S
C1658 C1659 1.385 . S
C1658 C1660 1.478 . S
C1659 H1653 0.930 . S
C1659 C1655 1.400 . S
C1659 C1658 1.385 . S
C1660 C1658 1.478 . S
C1660 C1662 1.381 . S
C1660 C1666 1.383 . S
C1661 C1657 1.495 . S
C1661 H1667 0.959 . S
C1661 H1668 0.961 . S
C1661 H1669 0.960 . S
C1662 C1660 1.381 . S
C1662 C1663 1.394 . S
C1662 H1670 0.930 . S
C1663 C1662 1.394 . S
C1663 C1664 1.383 . S
C1663 H1671 0.929 . S
C1664 C1663 1.383 . S
C1664 C1665 1.393 . S
C1665 H1649 0.900 1_565 S
C1665 C1664 1.393 . S
C1665 C1666 1.393 . S
C1666 H1650 0.931 . S
C1666 C1660 1.383 . S
C1666 C1665 1.393 . S
H1667 C1661 0.959 . S
H1668 C1661 0.961 . S
H1669 C1661 0.960 . S
H1670 C1662 0.930 . S
H1671 C1663 0.929 . S
H1672 C1680 0.929 . S
H1673 C1682 0.930 . S
H1674 C1684 0.930 . S
H1675 C1687 0.929 . S
H1676 C1690 0.930 . S
H1677 C1692 0.960 . S
H1678 C1692 0.960 . S
H1679 C1692 0.960 . S
C1680 H1672 0.929 . S
C1680 C1681 1.377 . S
C1680 C1682 1.384 . S
C1681 C1680 1.377 . S
C1681 C1687 1.390 . S
C1682 H1673 0.930 . S
C1682 C1680 1.384 . S
C1682 C1683 1.372 . S
C1683 C1682 1.372 . S
C1683 C1684 1.400 . S
C1683 C1688 1.490 . S
C1684 H1674 0.930 . S
C1684 C1683 1.400 . S
C1684 C1687 1.386 . S
H1685 C1701 0.930 . S
H1686 C1702 0.931 . S
C1687 H1675 0.929 . S
C1687 C1681 1.390 . S
C1687 C1684 1.386 . S
C1688 C1683 1.490 . S
C1688 C1690 1.395 . S
C1688 C1691 1.403 . S
H1689 C1695 0.930 . S
C1690 H1676 0.930 . S
C1690 C1688 1.395 . S
C1690 C1693 1.403 . S
C1691 C1688 1.403 . S
C1691 C1692 1.524 . S
C1691 C1695 1.400 . S
C1692 H1677 0.960 . S
C1692 H1678 0.960 . S
C1692 H1679 0.960 . S
C1692 C1691 1.524 . S
C1693 C1690 1.403 . S
C1693 C1694 1.392 . S
C1693 C1697 1.495 . S
C1694 C1693 1.392 . S
C1694 C1695 1.385 . S
C1694 C1696 1.478 . S
C1695 H1689 0.930 . S
C1695 C1691 1.400 . S
C1695 C1694 1.385 . S
C1696 C1694 1.478 . S
C1696 C1698 1.381 . S
C1696 C1702 1.383 . S
C1697 C1693 1.495 . S
C1697 H1703 0.959 . S
C1697 H1704 0.961 . S
C1697 H1705 0.960 . S
C1698 C1696 1.381 . S
C1698 C1699 1.394 . S
C1698 H1706 0.930 . S
C1699 C1698 1.394 . S
C1699 C1700 1.383 . S
C1699 H1707 0.929 . S
C1700 C1699 1.383 . S
C1700 C1701 1.377 . S
C1701 H1685 0.930 . S
C1701 C1700 1.377 . S
C1701 C1702 1.379 . S
C1702 H1686 0.931 . S
C1702 C1696 1.383 . S
C1702 C1701 1.379 . S
H1703 C1697 0.959 . S
H1704 C1697 0.961 . S
H1705 C1697 0.960 . S
H1706 C1698 0.930 . S
H1707 C1699 0.929 . S
H1708 C1716 0.929 . S
H1709 C1718 0.930 . S
H1710 C1720 0.930 . S
H1711 C1723 0.929 . S
H1712 C1726 0.930 . S
H1713 C1728 0.960 . S
H1714 C1728 0.960 . S
H1715 C1728 0.960 . S
C1716 H1708 0.929 . S
C1716 C1717 1.377 . S
C1716 C1718 1.384 . S
C1717 C1716 1.377 . S
C1717 C1723 1.390 . S
C1718 H1709 0.930 . S
C1718 C1716 1.384 . S
C1718 C1719 1.372 . S
C1719 C1718 1.372 . S
C1719 C1720 1.400 . S
C1719 C1724 1.490 . S
C1720 H1710 0.930 . S
C1720 C1719 1.400 . S
C1720 C1723 1.386 . S
H1721 C1737 0.930 . S
H1722 C1738 0.931 . S
C1723 H1711 0.929 . S
C1723 C1717 1.390 . S
C1723 C1720 1.386 . S
C1724 C1719 1.490 . S
C1724 C1726 1.395 . S
C1724 C1727 1.403 . S
H1725 C1731 0.930 . S
C1726 H1712 0.930 . S
C1726 C1724 1.395 . S
C1726 C1729 1.403 . S
C1727 C1724 1.403 . S
C1727 C1728 1.524 . S
C1727 C1731 1.400 . S
C1728 H1713 0.960 . S
C1728 H1714 0.960 . S
C1728 H1715 0.960 . S
C1728 C1727 1.524 . S
C1729 C1726 1.403 . S
C1729 C1730 1.392 . S
C1729 C1733 1.495 . S
C1730 C1729 1.392 . S
C1730 C1731 1.385 . S
C1730 C1732 1.478 . S
C1731 H1725 0.930 . S
C1731 C1727 1.400 . S
C1731 C1730 1.385 . S
C1732 C1730 1.478 . S
C1732 C1734 1.381 . S
C1732 C1738 1.383 . S
C1733 C1729 1.495 . S
C1733 H1739 0.959 . S
C1733 H1740 0.961 . S
C1733 H1741 0.960 . S
C1734 C1732 1.381 . S
C1734 C1735 1.394 . S
C1734 H1742 0.930 . S
C1735 C1734 1.394 . S
C1735 C1736 1.383 . S
C1735 H1743 0.929 . S
C1736 C1735 1.383 . S
C1736 C1737 1.377 . S
C1737 H1721 0.930 . S
C1737 C1736 1.377 . S
C1737 C1738 1.379 . S
C1738 H1722 0.931 . S
C1738 C1732 1.383 . S
C1738 C1737 1.379 . S
H1739 C1733 0.959 . S
H1740 C1733 0.961 . S
H1741 C1733 0.960 . S
H1742 C1734 0.930 . S
H1743 C1735 0.929 . S
H1744 C1752 0.929 . S
H1745 C1754 0.930 . S
H1746 C1756 0.930 . S
H1747 C1759 0.929 . S
H1748 C1762 0.963 . S
H1749 C1764 0.960 . S
H1750 C1764 0.960 . S
H1751 C1764 0.960 . S
C1752 H1744 0.929 . S
C1752 C1753 1.380 . S
C1752 C1754 1.384 . S
C1753 C1752 1.380 . S
C1753 C1759 1.386 1_655 S
C1754 H1745 0.930 . S
C1754 C1752 1.384 . S
C1754 C1755 1.372 1_655 S
C1755 C1754 1.372 1_455 S
C1755 C1756 1.400 . S
C1755 C1760 1.490 . S
C1756 H1746 0.930 . S
C1756 C1755 1.400 . S
C1756 C1759 1.386 . S
H1757 C1773 0.913 1_554 S
H1758 C1774 0.931 . S
C1759 H1747 0.929 . S
C1759 C1753 1.386 1_455 S
C1759 C1756 1.386 . S
C1760 C1755 1.490 . S
C1760 C1762 1.368 1_455 S
C1760 C1763 1.403 . S
H1761 C1767 0.930 . S
C1762 H1748 0.963 . S
C1762 C1760 1.368 1_655 S
C1762 C1765 1.399 1_655 S
C1763 C1760 1.403 . S
C1763 C1764 1.524 . S
C1763 C1767 1.400 . S
C1764 H1749 0.960 . S
C1764 H1750 0.960 . S
C1764 H1751 0.960 . S
C1764 C1763 1.524 . S
C1765 C1762 1.399 1_455 S
C1765 C1766 1.392 . S
C1765 C1769 1.495 1_455 S
C1766 C1765 1.392 . S
C1766 C1767 1.385 . S
C1766 C1768 1.478 . S
C1767 H1761 0.930 . S
C1767 C1763 1.400 . S
C1767 C1766 1.385 . S
C1768 C1766 1.478 . S
C1768 C1770 1.381 . S
C1768 C1774 1.383 . S
C1769 C1765 1.495 1_655 S
C1769 H1775 0.959 . S
C1769 H1776 0.961 . S
C1769 H1777 0.960 . S
C1770 C1768 1.381 . S
C1770 C1771 1.394 . S
C1770 H1778 0.930 1_455 S
C1771 C1770 1.394 . S
C1771 C1772 1.383 1_556 S
C1771 H1779 0.929 . S
C1772 C1771 1.383 1_554 S
C1772 C1773 1.371 1_554 S
C1773 H1757 0.913 1_556 S
C1773 C1772 1.371 1_556 S
C1773 C1774 1.404 . S
C1774 H1758 0.931 . S
C1774 C1768 1.383 . S
C1774 C1773 1.404 . S
H1775 C1769 0.959 . S
H1776 C1769 0.961 . S
H1777 C1769 0.960 . S
H1778 C1770 0.930 1_655 S
H1779 C1771 0.929 . S
H1780 C1788 0.929 . S
H1781 C1790 0.930 . S
H1782 C1792 0.930 . S
H1783 C1795 0.929 . S
H1784 C1798 0.930 . S
H1785 C1800 0.960 . S
H1786 C1800 0.960 . S
H1787 C1800 0.960 . S
C1788 H1780 0.929 . S
C1788 C1789 1.377 . S
C1788 C1790 1.384 . S
C1789 C1788 1.377 . S
C1789 C1795 1.390 . S
C1790 H1781 0.930 . S
C1790 C1788 1.384 . S
C1790 C1791 1.372 . S
C1791 C1790 1.372 . S
C1791 C1792 1.400 . S
C1791 C1796 1.490 . S
C1792 H1782 0.930 . S
C1792 C1791 1.400 . S
C1792 C1795 1.386 . S
H1793 C1809 0.930 . S
H1794 C1810 0.931 . S
C1795 H1783 0.929 . S
C1795 C1789 1.390 . S
C1795 C1792 1.386 . S
C1796 C1791 1.490 . S
C1796 C1798 1.395 . S
C1796 C1799 1.403 . S
H1797 C1803 0.930 . S
C1798 H1784 0.930 . S
C1798 C1796 1.395 . S
C1798 C1801 1.403 . S
C1799 C1796 1.403 . S
C1799 C1800 1.524 . S
C1799 C1803 1.400 . S
C1800 H1785 0.960 . S
C1800 H1786 0.960 . S
C1800 H1787 0.960 . S
C1800 C1799 1.524 . S
C1801 C1798 1.403 . S
C1801 C1802 1.392 . S
C1801 C1805 1.495 . S
C1802 C1801 1.392 . S
C1802 C1803 1.385 . S
C1802 C1804 1.478 . S
C1803 H1797 0.930 . S
C1803 C1799 1.400 . S
C1803 C1802 1.385 . S
C1804 C1802 1.478 . S
C1804 C1806 1.381 . S
C1804 C1810 1.383 . S
C1805 C1801 1.495 . S
C1805 H1811 0.959 . S
C1805 H1812 0.961 . S
C1805 H1813 0.960 . S
C1806 C1804 1.381 . S
C1806 C1807 1.394 . S
C1806 H1814 0.930 . S
C1807 C1806 1.394 . S
C1807 C1808 1.383 . S
C1807 H1815 0.929 . S
C1808 C1807 1.383 . S
C1808 C1809 1.377 . S
C1809 H1793 0.930 . S
C1809 C1808 1.377 . S
C1809 C1810 1.379 . S
C1810 H1794 0.931 . S
C1810 C1804 1.383 . S
C1810 C1809 1.379 . S
H1811 C1805 0.959 . S
H1812 C1805 0.961 . S
H1813 C1805 0.960 . S
H1814 C1806 0.930 . S
H1815 C1807 0.929 . S
H1816 C1824 0.929 . S
H1817 C1826 0.930 . S
H1818 C1828 0.930 . S
H1819 C1831 0.929 . S
H1820 C1834 0.930 . S
H1821 C1836 0.960 . S
H1822 C1836 0.960 . S
H1823 C1836 0.960 . S
C1824 H1816 0.929 . S
C1824 C1825 1.377 . S
C1824 C1826 1.384 . S
C1825 C1824 1.377 . S
C1825 C1831 1.390 . S
C1826 H1817 0.930 . S
C1826 C1824 1.384 . S
C1826 C1827 1.372 . S
C1827 C1826 1.372 . S
C1827 C1828 1.400 . S
C1827 C1832 1.490 . S
C1828 H1818 0.930 . S
C1828 C1827 1.400 . S
C1828 C1831 1.386 . S
H1829 C1845 0.930 . S
H1830 C1846 0.931 . S
C1831 H1819 0.929 . S
C1831 C1825 1.390 . S
C1831 C1828 1.386 . S
C1832 C1827 1.490 . S
C1832 C1834 1.395 . S
C1832 C1835 1.403 . S
H1833 C1839 0.930 . S
C1834 H1820 0.930 . S
C1834 C1832 1.395 . S
C1834 C1837 1.403 . S
C1835 C1832 1.403 . S
C1835 C1836 1.524 . S
C1835 C1839 1.400 . S
C1836 H1821 0.960 . S
C1836 H1822 0.960 . S
C1836 H1823 0.960 . S
C1836 C1835 1.524 . S
C1837 C1834 1.403 . S
C1837 C1838 1.392 . S
C1837 C1841 1.495 . S
C1838 C1837 1.392 . S
C1838 C1839 1.385 . S
C1838 C1840 1.478 . S
C1839 H1833 0.930 . S
C1839 C1835 1.400 . S
C1839 C1838 1.385 . S
C1840 C1838 1.478 . S
C1840 C1842 1.381 . S
C1840 C1846 1.383 . S
C1841 C1837 1.495 . S
C1841 H1847 0.959 . S
C1841 H1848 0.961 . S
C1841 H1849 0.960 . S
C1842 C1840 1.381 . S
C1842 C1843 1.394 . S
C1842 H1850 0.930 . S
C1843 C1842 1.394 . S
C1843 C1844 1.383 . S
C1843 H1851 0.929 . S
C1844 C1843 1.383 . S
C1844 C1845 1.377 . S
C1845 H1829 0.930 . S
C1845 C1844 1.377 . S
C1845 C1846 1.379 . S
C1846 H1830 0.931 . S
C1846 C1840 1.383 . S
C1846 C1845 1.379 . S
H1847 C1841 0.959 . S
H1848 C1841 0.961 . S
H1849 C1841 0.960 . S
H1850 C1842 0.930 . S
H1851 C1843 0.929 . S
H1852 C1860 0.929 . S
H1853 C1862 0.930 . S
H1854 C1864 0.930 . S
H1855 C1867 0.929 . S
H1856 C1870 0.930 . S
H1857 C1872 0.960 . S
H1858 C1872 0.960 . S
H1859 C1872 0.960 . S
C1860 H1852 0.929 . S
C1860 C1861 1.377 . S
C1860 C1862 1.384 . S
C1861 C1860 1.377 . S
C1861 C1867 1.390 . S
C1862 H1853 0.930 . S
C1862 C1860 1.384 . S
C1862 C1863 1.372 . S
C1863 C1862 1.372 . S
C1863 C1864 1.400 . S
C1863 C1868 1.490 . S
C1864 H1854 0.930 . S
C1864 C1863 1.400 . S
C1864 C1867 1.386 . S
H1865 C1881 0.930 . S
H1866 C1882 0.931 . S
C1867 H1855 0.929 . S
C1867 C1861 1.390 . S
C1867 C1864 1.386 . S
C1868 C1863 1.490 . S
C1868 C1870 1.395 . S
C1868 C1871 1.403 . S
H1869 C1875 0.930 . S
C1870 H1856 0.930 . S
C1870 C1868 1.395 . S
C1870 C1873 1.403 . S
C1871 C1868 1.403 . S
C1871 C1872 1.524 . S
C1871 C1875 1.400 . S
C1872 H1857 0.960 . S
C1872 H1858 0.960 . S
C1872 H1859 0.960 . S
C1872 C1871 1.524 . S
C1873 C1870 1.403 . S
C1873 C1874 1.392 . S
C1873 C1877 1.495 . S
C1874 C1873 1.392 . S
C1874 C1875 1.385 . S
C1874 C1876 1.478 . S
C1875 H1869 0.930 . S
C1875 C1871 1.400 . S
C1875 C1874 1.385 . S
C1876 C1874 1.478 . S
C1876 C1878 1.381 . S
C1876 C1882 1.383 . S
C1877 C1873 1.495 . S
C1877 H1883 0.959 . S
C1877 H1884 0.961 . S
C1877 H1885 0.960 . S
C1878 C1876 1.381 . S
C1878 C1879 1.394 . S
C1878 H1886 0.930 . S
C1879 C1878 1.394 . S
C1879 C1880 1.383 . S
C1879 H1887 0.929 . S
C1880 C1879 1.383 . S
C1880 C1881 1.377 . S
C1881 H1865 0.930 . S
C1881 C1880 1.377 . S
C1881 C1882 1.379 . S
C1882 H1866 0.931 . S
C1882 C1876 1.383 . S
C1882 C1881 1.379 . S
H1883 C1877 0.959 . S
H1884 C1877 0.961 . S
H1885 C1877 0.960 . S
H1886 C1878 0.930 . S
H1887 C1879 0.929 . S
H1888 C1896 0.929 . S
H1889 C1898 0.930 . S
H1890 C1900 0.930 . S
H1891 C1903 0.929 . S
H1892 C1906 0.930 . S
H1893 C1908 0.960 . S
H1894 C1908 0.960 . S
H1895 C1908 0.960 . S
C1896 H1888 0.929 . S
C1896 C1897 1.377 . S
C1896 C1898 1.384 . S
C1897 C1896 1.377 . S
C1897 C1903 1.390 . S
C1898 H1889 0.930 . S
C1898 C1896 1.384 . S
C1898 C1899 1.372 . S
C1899 C1898 1.372 . S
C1899 C1900 1.400 . S
C1899 C1904 1.490 . S
C1900 H1890 0.930 . S
C1900 C1899 1.400 . S
C1900 C1903 1.386 . S
H1901 C1917 0.930 . S
H1902 C1918 0.931 . S
C1903 H1891 0.929 . S
C1903 C1897 1.390 . S
C1903 C1900 1.386 . S
C1904 C1899 1.490 . S
C1904 C1906 1.395 . S
C1904 C1907 1.403 . S
H1905 C1911 0.930 . S
C1906 H1892 0.930 . S
C1906 C1904 1.395 . S
C1906 C1909 1.403 . S
C1907 C1904 1.403 . S
C1907 C1908 1.524 . S
C1907 C1911 1.400 . S
C1908 H1893 0.960 . S
C1908 H1894 0.960 . S
C1908 H1895 0.960 . S
C1908 C1907 1.524 . S
C1909 C1906 1.403 . S
C1909 C1910 1.392 . S
C1909 C1913 1.495 . S
C1910 C1909 1.392 . S
C1910 C1911 1.385 . S
C1910 C1912 1.478 . S
C1911 H1905 0.930 . S
C1911 C1907 1.400 . S
C1911 C1910 1.385 . S
C1912 C1910 1.478 . S
C1912 C1914 1.381 . S
C1912 C1918 1.383 . S
C1913 C1909 1.495 . S
C1913 H1919 0.959 . S
C1913 H1920 0.961 . S
C1913 H1921 0.960 . S
C1914 C1912 1.381 . S
C1914 C1915 1.394 . S
C1914 H1922 0.930 . S
C1915 C1914 1.394 . S
C1915 C1916 1.383 . S
C1915 H1923 0.929 . S
C1916 C1915 1.383 . S
C1916 C1917 1.377 . S
C1917 H1901 0.930 . S
C1917 C1916 1.377 . S
C1917 C1918 1.379 . S
C1918 H1902 0.931 . S
C1918 C1912 1.383 . S
C1918 C1917 1.379 . S
H1919 C1913 0.959 . S
H1920 C1913 0.961 . S
H1921 C1913 0.960 . S
H1922 C1914 0.930 . S
H1923 C1915 0.929 . S
H1924 C1932 0.929 . S
H1925 C1934 0.930 . S
H1926 C1936 0.930 . S
H1927 C1939 0.929 . S
H1928 C1942 0.930 . S
H1929 C1944 0.960 . S
H1930 C1944 0.960 . S
H1931 C1944 0.960 . S
C1932 H1924 0.929 . S
C1932 C1933 1.377 . S
C1932 C1934 1.384 . S
C1933 C1932 1.377 . S
C1933 C1939 1.390 . S
C1934 H1925 0.930 . S
C1934 C1932 1.384 . S
C1934 C1935 1.372 . S
C1935 C1934 1.372 . S
C1935 C1936 1.400 . S
C1935 C1940 1.490 . S
C1936 H1926 0.930 . S
C1936 C1935 1.400 . S
C1936 C1939 1.386 . S
H1937 C1953 0.930 . S
H1938 C1954 0.931 . S
C1939 H1927 0.929 . S
C1939 C1933 1.390 . S
C1939 C1936 1.386 . S
C1940 C1935 1.490 . S
C1940 C1942 1.395 . S
C1940 C1943 1.403 . S
H1941 C1947 0.930 . S
C1942 H1928 0.930 . S
C1942 C1940 1.395 . S
C1942 C1945 1.403 . S
C1943 C1940 1.403 . S
C1943 C1944 1.524 . S
C1943 C1947 1.400 . S
C1944 H1929 0.960 . S
C1944 H1930 0.960 . S
C1944 H1931 0.960 . S
C1944 C1943 1.524 . S
C1945 C1942 1.403 . S
C1945 C1946 1.392 . S
C1945 C1949 1.495 . S
C1946 C1945 1.392 . S
C1946 C1947 1.385 . S
C1946 C1948 1.478 . S
C1947 H1941 0.930 . S
C1947 C1943 1.400 . S
C1947 C1946 1.385 . S
C1948 C1946 1.478 . S
C1948 C1950 1.381 . S
C1948 C1954 1.383 . S
C1949 C1945 1.495 . S
C1949 H1955 0.959 . S
C1949 H1956 0.961 . S
C1949 H1957 0.960 . S
C1950 C1948 1.381 . S
C1950 C1951 1.394 . S
C1950 H1958 0.930 . S
C1951 C1950 1.394 . S
C1951 C1952 1.383 . S
C1951 H1959 0.929 . S
C1952 C1951 1.383 . S
C1952 C1953 1.377 . S
C1953 H1937 0.930 . S
C1953 C1952 1.377 . S
C1953 C1954 1.379 . S
C1954 H1938 0.931 . S
C1954 C1948 1.383 . S
C1954 C1953 1.379 . S
H1955 C1949 0.959 . S
H1956 C1949 0.961 . S
H1957 C1949 0.960 . S
H1958 C1950 0.930 . S
H1959 C1951 0.929 . S
H1960 C1968 0.929 . S
H1961 C1970 0.930 . S
H1962 C1972 0.930 . S
H1963 C1975 0.929 . S
H1964 C1978 0.930 . S
H1965 C1980 0.960 . S
H1966 C1980 0.960 . S
H1967 C1980 0.960 . S
C1968 H1960 0.929 . S
C1968 C1969 1.377 . S
C1968 C1970 1.384 . S
C1969 C1968 1.377 . S
C1969 C1975 1.390 . S
C1970 H1961 0.930 . S
C1970 C1968 1.384 . S
C1970 C1971 1.372 . S
C1971 C1970 1.372 . S
C1971 C1972 1.400 . S
C1971 C1976 1.490 . S
C1972 H1962 0.930 . S
C1972 C1971 1.400 . S
C1972 C1975 1.386 . S
H1973 C1989 0.930 . S
H1974 C1990 0.931 . S
C1975 H1963 0.929 . S
C1975 C1969 1.390 . S
C1975 C1972 1.386 . S
C1976 C1971 1.490 . S
C1976 C1978 1.395 . S
C1976 C1979 1.403 . S
H1977 C1983 0.930 . S
C1978 H1964 0.930 . S
C1978 C1976 1.395 . S
C1978 C1981 1.403 . S
C1979 C1976 1.403 . S
C1979 C1980 1.524 . S
C1979 C1983 1.400 . S
C1980 H1965 0.960 . S
C1980 H1966 0.960 . S
C1980 H1967 0.960 . S
C1980 C1979 1.524 . S
C1981 C1978 1.403 . S
C1981 C1982 1.392 . S
C1981 C1985 1.495 . S
C1982 C1981 1.392 . S
C1982 C1983 1.385 . S
C1982 C1984 1.478 . S
C1983 H1977 0.930 . S
C1983 C1979 1.400 . S
C1983 C1982 1.385 . S
C1984 C1982 1.478 . S
C1984 C1986 1.381 . S
C1984 C1990 1.383 . S
C1985 C1981 1.495 . S
C1985 H1991 0.959 . S
C1985 H1992 0.961 . S
C1985 H1993 0.960 . S
C1986 C1984 1.381 . S
C1986 C1987 1.394 . S
C1986 H1994 0.930 . S
C1987 C1986 1.394 . S
C1987 C1988 1.383 . S
C1987 H1995 0.929 . S
C1988 C1987 1.383 . S
C1988 C1989 1.377 . S
C1989 H1973 0.930 . S
C1989 C1988 1.377 . S
C1989 C1990 1.379 . S
C1990 H1974 0.931 . S
C1990 C1984 1.383 . S
C1990 C1989 1.379 . S
H1991 C1985 0.959 . S
H1992 C1985 0.961 . S
H1993 C1985 0.960 . S
H1994 C1986 0.930 . S
H1995 C1987 0.929 . S
H1996 C2004 0.929 . S
H1997 C2006 0.930 . S
H1998 C2008 0.930 . S
H1999 C2011 0.929 . S
H2000 C2014 0.930 . S
H2001 C2016 0.960 . S
H2002 C2016 0.960 . S
H2003 C2016 0.960 . S
C2004 H1996 0.929 . S
C2004 C2005 1.377 . S
C2004 C2006 1.384 . S
C2005 C2004 1.377 . S
C2005 C2011 1.390 . S
C2006 H1997 0.930 . S
C2006 C2004 1.384 . S
C2006 C2007 1.372 . S
C2007 C2006 1.372 . S
C2007 C2008 1.400 . S
C2007 C2012 1.490 . S
C2008 H1998 0.930 . S
C2008 C2007 1.400 . S
C2008 C2011 1.386 . S
H2009 C2025 0.930 . S
H2010 C2026 0.931 . S
C2011 H1999 0.929 . S
C2011 C2005 1.390 . S
C2011 C2008 1.386 . S
C2012 C2007 1.490 . S
C2012 C2014 1.395 . S
C2012 C2015 1.403 . S
H2013 C2019 0.930 . S
C2014 H2000 0.930 . S
C2014 C2012 1.395 . S
C2014 C2017 1.403 . S
C2015 C2012 1.403 . S
C2015 C2016 1.524 . S
C2015 C2019 1.400 . S
C2016 H2001 0.960 . S
C2016 H2002 0.960 . S
C2016 H2003 0.960 . S
C2016 C2015 1.524 . S
C2017 C2014 1.403 . S
C2017 C2018 1.392 . S
C2017 C2021 1.495 . S
C2018 C2017 1.392 . S
C2018 C2019 1.385 . S
C2018 C2020 1.478 . S
C2019 H2013 0.930 . S
C2019 C2015 1.400 . S
C2019 C2018 1.385 . S
C2020 C2018 1.478 . S
C2020 C2022 1.381 . S
C2020 C2026 1.383 . S
C2021 C2017 1.495 . S
C2021 H2027 0.959 . S
C2021 H2028 0.961 . S
C2021 H2029 0.960 . S
C2022 C2020 1.381 . S
C2022 C2023 1.394 . S
C2022 H2030 0.930 . S
C2023 C2022 1.394 . S
C2023 C2024 1.383 . S
C2023 H2031 0.929 . S
C2024 C2023 1.383 . S
C2024 C2025 1.377 . S
C2025 H2009 0.930 . S
C2025 C2024 1.377 . S
C2025 C2026 1.379 . S
C2026 H2010 0.931 . S
C2026 C2020 1.383 . S
C2026 C2025 1.379 . S
H2027 C2021 0.959 . S
H2028 C2021 0.961 . S
H2029 C2021 0.960 . S
H2030 C2022 0.930 . S
H2031 C2023 0.929 . S
H2032 C2040 0.929 . S
H2033 C2042 0.930 . S
H2034 C2044 0.930 . S
H2035 C2047 0.929 . S
H2036 C2050 0.930 . S
H2037 C2052 0.960 . S
H2038 C2052 0.960 . S
H2039 C2052 0.960 . S
C2040 H2032 0.929 . S
C2040 C2041 1.377 . S
C2040 C2042 1.384 . S
C2041 C2040 1.377 . S
C2041 C2047 1.390 1_545 S
C2042 H2033 0.930 . S
C2042 C2040 1.384 . S
C2042 C2043 1.372 . S
C2043 C2042 1.372 . S
C2043 C2044 1.400 1_545 S
C2043 C2048 1.490 . S
C2044 H2034 0.930 . S
C2044 C2043 1.400 1_565 S
C2044 C2047 1.386 . S
H2045 C2061 0.930 . S
H2046 C2062 0.931 . S
C2047 H2035 0.929 . S
C2047 C2041 1.390 1_565 S
C2047 C2044 1.386 . S
C2048 C2043 1.490 . S
C2048 C2050 1.395 . S
C2048 C2051 1.403 1_545 S
H2049 C2055 0.936 . S
C2050 H2036 0.930 . S
C2050 C2048 1.395 . S
C2050 C2053 1.403 . S
C2051 C2048 1.403 1_565 S
C2051 C2052 1.524 . S
C2051 C2055 1.401 . S
C2052 H2037 0.960 . S
C2052 H2038 0.960 . S
C2052 H2039 0.960 . S
C2052 C2051 1.524 . S
C2053 C2050 1.403 . S
C2053 C2054 1.392 . S
C2053 C2057 1.495 . S
C2054 C2053 1.392 . S
C2054 C2055 1.379 1_545 S
C2054 C2056 1.478 . S
C2055 H2049 0.936 . S
C2055 C2051 1.401 . S
C2055 C2054 1.379 1_565 S
C2056 C2054 1.478 . S
C2056 C2058 1.381 . S
C2056 C2062 1.383 . S
C2057 C2053 1.495 . S
C2057 H2063 0.959 . S
C2057 H2064 0.961 . S
C2057 H2065 0.960 . S
C2058 C2056 1.381 . S
C2058 C2059 1.394 1_655 S
C2058 H2066 0.930 1_655 S
C2059 C2058 1.394 1_455 S
C2059 C2060 1.403 . S
C2059 H2067 0.929 . S
C2060 C2059 1.403 . S
C2060 C2061 1.334 1_455 S
C2061 H2045 0.930 . S
C2061 C2060 1.334 1_655 S
C2061 C2062 1.379 . S
C2062 H2046 0.931 . S
C2062 C2056 1.383 . S
C2062 C2061 1.379 . S
H2063 C2057 0.959 . S
H2064 C2057 0.961 . S
H2065 C2057 0.960 . S
H2066 C2058 0.930 1_455 S
H2067 C2059 0.929 . S
H2068 C2076 0.929 . S
H2069 C2078 0.930 . S
H2070 C2080 0.930 . S
H2071 C2083 0.929 . S
H2072 C2086 0.930 . S
H2073 C2088 0.960 . S
H2074 C2088 0.960 . S
H2075 C2088 0.960 . S
C2076 H2068 0.929 . S
C2076 C2077 1.377 . S
C2076 C2078 1.384 . S
C2077 C2076 1.377 . S
C2077 C2083 1.390 . S
C2078 H2069 0.930 . S
C2078 C2076 1.384 . S
C2078 C2079 1.372 . S
C2079 C2078 1.372 . S
C2079 C2080 1.400 . S
C2079 C2084 1.490 . S
C2080 H2070 0.930 . S
C2080 C2079 1.400 . S
C2080 C2083 1.386 . S
H2081 C2097 0.930 . S
H2082 C2098 0.931 . S
C2083 H2071 0.929 . S
C2083 C2077 1.390 . S
C2083 C2080 1.386 . S
C2084 C2079 1.490 . S
C2084 C2086 1.395 . S
C2084 C2087 1.403 . S
H2085 C2091 0.930 . S
C2086 H2072 0.930 . S
C2086 C2084 1.395 . S
C2086 C2089 1.403 . S
C2087 C2084 1.403 . S
C2087 C2088 1.524 . S
C2087 C2091 1.400 . S
C2088 H2073 0.960 . S
C2088 H2074 0.960 . S
C2088 H2075 0.960 . S
C2088 C2087 1.524 . S
C2089 C2086 1.403 . S
C2089 C2090 1.392 . S
C2089 C2093 1.495 . S
C2090 C2089 1.392 . S
C2090 C2091 1.385 . S
C2090 C2092 1.478 . S
C2091 H2085 0.930 . S
C2091 C2087 1.400 . S
C2091 C2090 1.385 . S
C2092 C2090 1.478 . S
C2092 C2094 1.381 . S
C2092 C2098 1.383 . S
C2093 C2089 1.495 . S
C2093 H2099 0.959 . S
C2093 H2100 0.961 . S
C2093 H2101 0.960 . S
C2094 C2092 1.381 . S
C2094 C2095 1.394 . S
C2094 H2102 0.930 . S
C2095 C2094 1.394 . S
C2095 C2096 1.383 . S
C2095 H2103 0.929 . S
C2096 C2095 1.383 . S
C2096 C2097 1.377 . S
C2097 H2081 0.930 . S
C2097 C2096 1.377 . S
C2097 C2098 1.379 . S
C2098 H2082 0.931 . S
C2098 C2092 1.383 . S
C2098 C2097 1.379 . S
H2099 C2093 0.959 . S
H2100 C2093 0.961 . S
H2101 C2093 0.960 . S
H2102 C2094 0.930 . S
H2103 C2095 0.929 . S
H2104 C2112 0.949 . S
H2105 C2114 0.930 . S
H2106 C2116 0.930 . S
H2107 C2119 0.929 . S
H2108 C2122 0.930 . S
H2109 C2124 0.960 . S
H2110 C2124 0.960 . S
H2111 C2124 0.960 . S
C2112 H2104 0.949 . S
C2112 C2113 1.357 1_565 S
C2112 C2114 1.387 . S
C2113 C2112 1.357 1_545 S
C2113 C2119 1.390 . S
C2114 H2105 0.930 . S
C2114 C2112 1.387 . S
C2114 C2115 1.372 1_565 S
C2115 C2114 1.372 1_545 S
C2115 C2116 1.400 . S
C2115 C2120 1.490 . S
C2116 H2106 0.930 . S
C2116 C2115 1.400 . S
C2116 C2119 1.386 . S
H2117 C2133 0.930 . S
H2118 C2134 0.931 . S
C2119 H2107 0.929 . S
C2119 C2113 1.390 . S
C2119 C2116 1.386 . S
C2120 C2115 1.490 . S
C2120 C2122 1.395 . S
C2120 C2123 1.403 1_545 S
H2121 C2127 0.930 . S
C2122 H2108 0.930 . S
C2122 C2120 1.395 . S
C2122 C2125 1.403 . S
C2123 C2120 1.403 1_565 S
C2123 C2124 1.524 . S
C2123 C2127 1.400 . S
C2124 H2109 0.960 . S
C2124 H2110 0.960 . S
C2124 H2111 0.960 . S
C2124 C2123 1.524 . S
C2125 C2122 1.403 . S
C2125 C2126 1.392 . S
C2125 C2129 1.495 . S
C2126 C2125 1.392 . S
C2126 C2127 1.385 1_545 S
C2126 C2128 1.478 . S
C2127 H2121 0.930 . S
C2127 C2123 1.400 . S
C2127 C2126 1.385 1_565 S
C2128 C2126 1.478 . S
C2128 C2130 1.381 1_545 S
C2128 C2134 1.383 . S
C2129 C2125 1.495 . S
C2129 H2135 0.959 . S
C2129 H2136 0.961 . S
C2129 H2137 0.960 . S
C2130 C2128 1.381 1_565 S
C2130 C2131 1.394 . S
C2130 H2138 0.930 . S
C2131 C2130 1.394 . S
C2131 C2132 1.383 1_565 S
C2131 H2139 0.929 . S
C2132 C2131 1.383 1_545 S
C2132 C2133 1.377 . S
C2133 H2117 0.930 . S
C2133 C2132 1.377 . S
C2133 C2134 1.379 . S
C2134 H2118 0.931 . S
C2134 C2128 1.383 . S
C2134 C2133 1.379 . S
H2135 C2129 0.959 . S
H2136 C2129 0.961 . S
H2137 C2129 0.960 . S
H2138 C2130 0.930 . S
H2139 C2131 0.929 . S
H2140 C2148 0.929 . S
H2141 C2150 0.930 . S
H2142 C2152 0.930 . S
H2143 C2155 0.929 . S
H2144 C2158 0.930 . S
H2145 C2160 0.960 . S
H2146 C2160 0.960 . S
H2147 C2160 0.960 . S
C2148 H2140 0.929 . S
C2148 C2149 1.377 . S
C2148 C2150 1.384 . S
C2149 C2148 1.377 . S
C2149 C2155 1.390 . S
C2150 H2141 0.930 . S
C2150 C2148 1.384 . S
C2150 C2151 1.372 . S
C2151 C2150 1.372 . S
C2151 C2152 1.400 . S
C2151 C2156 1.490 . S
C2152 H2142 0.930 . S
C2152 C2151 1.400 . S
C2152 C2155 1.386 . S
H2153 C2169 0.930 . S
H2154 C2170 0.931 . S
C2155 H2143 0.929 . S
C2155 C2149 1.390 . S
C2155 C2152 1.386 . S
C2156 C2151 1.490 . S
C2156 C2158 1.395 . S
C2156 C2159 1.403 . S
H2157 C2163 0.930 . S
C2158 H2144 0.930 . S
C2158 C2156 1.395 . S
C2158 C2161 1.403 . S
C2159 C2156 1.403 . S
C2159 C2160 1.524 . S
C2159 C2163 1.400 . S
C2160 H2145 0.960 . S
C2160 H2146 0.960 . S
C2160 H2147 0.960 . S
C2160 C2159 1.524 . S
C2161 C2158 1.403 . S
C2161 C2162 1.392 . S
C2161 C2165 1.495 . S
C2162 C2161 1.392 . S
C2162 C2163 1.385 . S
C2162 C2164 1.478 . S
C2163 H2157 0.930 . S
C2163 C2159 1.400 . S
C2163 C2162 1.385 . S
C2164 C2162 1.478 . S
C2164 C2166 1.381 . S
C2164 C2170 1.383 . S
C2165 C2161 1.495 . S
C2165 H2171 0.959 . S
C2165 H2172 0.961 . S
C2165 H2173 0.960 . S
C2166 C2164 1.381 . S
C2166 C2167 1.394 . S
C2166 H2174 0.930 . S
C2167 C2166 1.394 . S
C2167 C2168 1.383 . S
C2167 H2175 0.929 . S
C2168 C2167 1.383 . S
C2168 C2169 1.377 . S
C2169 H2153 0.930 . S
C2169 C2168 1.377 . S
C2169 C2170 1.379 . S
C2170 H2154 0.931 . S
C2170 C2164 1.383 . S
C2170 C2169 1.379 . S
H2171 C2165 0.959 . S
H2172 C2165 0.961 . S
H2173 C2165 0.960 . S
H2174 C2166 0.930 . S
H2175 C2167 0.929 . S
H2176 C2184 0.929 . S
H2177 C2186 0.930 . S
H2178 C2188 0.930 . S
H2179 C2191 0.929 . S
H2180 C2194 0.930 . S
H2181 C2196 0.960 . S
H2182 C2196 0.960 . S
H2183 C2196 0.960 . S
C2184 H2176 0.929 . S
C2184 C2185 1.377 1_565 S
C2184 C2186 1.384 . S
C2185 C2184 1.377 1_545 S
C2185 C2191 1.390 . S
C2186 H2177 0.930 . S
C2186 C2184 1.384 . S
C2186 C2187 1.372 . S
C2187 C2186 1.372 . S
C2187 C2188 1.400 1_565 S
C2187 C2192 1.490 . S
C2188 H2178 0.930 . S
C2188 C2187 1.400 1_545 S
C2188 C2191 1.386 . S
H2189 C2205 0.930 . S
H2190 C2206 0.931 . S
C2191 H2179 0.929 . S
C2191 C2185 1.390 . S
C2191 C2188 1.386 . S
C2192 C2187 1.490 . S
C2192 C2194 1.395 . S
C2192 C2195 1.403 1_565 S
H2193 C2199 0.930 . S
C2194 H2180 0.930 . S
C2194 C2192 1.395 . S
C2194 C2197 1.403 . S
C2195 C2192 1.403 1_545 S
C2195 C2196 1.524 . S
C2195 C2199 1.400 . S
C2196 H2181 0.960 . S
C2196 H2182 0.960 . S
C2196 H2183 0.960 . S
C2196 C2195 1.524 . S
C2197 C2194 1.403 . S
C2197 C2198 1.392 . S
C2197 C2201 1.495 . S
C2198 C2197 1.392 . S
C2198 C2199 1.385 1_565 S
C2198 C2200 1.478 . S
C2199 H2193 0.930 . S
C2199 C2195 1.400 . S
C2199 C2198 1.385 1_545 S
C2200 C2198 1.478 . S
C2200 C2202 1.381 . S
C2200 C2206 1.383 1_565 S
C2201 C2197 1.495 . S
C2201 H2207 0.959 . S
C2201 H2208 0.961 . S
C2201 H2209 0.960 . S
C2202 C2200 1.381 . S
C2202 C2203 1.394 . S
C2202 H2210 0.930 . S
C2203 C2202 1.394 . S
C2203 C2204 1.383 . S
C2203 H2211 0.929 . S
C2204 C2203 1.383 . S
C2204 C2205 1.377 1_565 S
C2205 H2189 0.930 . S
C2205 C2204 1.377 1_545 S
C2205 C2206 1.379 . S
C2206 H2190 0.931 . S
C2206 C2200 1.383 1_545 S
C2206 C2205 1.379 . S
H2207 C2201 0.959 . S
H2208 C2201 0.961 . S
H2209 C2201 0.960 . S
H2210 C2202 0.930 . S
H2211 C2203 0.929 . S
H2212 C2220 0.929 . S
H2213 C2222 0.930 . S
H2214 C2224 0.930 . S
H2215 C2227 0.929 . S
H2216 C2230 0.930 . S
H2217 C2232 0.960 . S
H2218 C2232 0.960 . S
H2219 C2232 0.960 . S
C2220 H2212 0.929 . S
C2220 C2221 1.377 . S
C2220 C2222 1.384 . S
C2221 C2220 1.377 . S
C2221 C2227 1.390 . S
C2222 H2213 0.930 . S
C2222 C2220 1.384 . S
C2222 C2223 1.372 . S
C2223 C2222 1.372 . S
C2223 C2224 1.400 . S
C2223 C2228 1.490 . S
C2224 H2214 0.930 . S
C2224 C2223 1.400 . S
C2224 C2227 1.386 . S
H2225 C2241 0.930 . S
H2226 C2242 0.931 . S
C2227 H2215 0.929 . S
C2227 C2221 1.390 . S
C2227 C2224 1.386 . S
C2228 C2223 1.490 . S
C2228 C2230 1.395 . S
C2228 C2231 1.403 . S
H2229 C2235 0.930 . S
C2230 H2216 0.930 . S
C2230 C2228 1.395 . S
C2230 C2233 1.403 . S
C2231 C2228 1.403 . S
C2231 C2232 1.524 . S
C2231 C2235 1.400 . S
C2232 H2217 0.960 . S
C2232 H2218 0.960 . S
C2232 H2219 0.960 . S
C2232 C2231 1.524 . S
C2233 C2230 1.403 . S
C2233 C2234 1.392 . S
C2233 C2237 1.495 . S
C2234 C2233 1.392 . S
C2234 C2235 1.385 . S
C2234 C2236 1.478 . S
C2235 H2229 0.930 . S
C2235 C2231 1.400 . S
C2235 C2234 1.385 . S
C2236 C2234 1.478 . S
C2236 C2238 1.381 . S
C2236 C2242 1.383 . S
C2237 C2233 1.495 . S
C2237 H2243 0.959 . S
C2237 H2244 0.961 . S
C2237 H2245 0.960 . S
C2238 C2236 1.381 . S
C2238 C2239 1.394 . S
C2238 H2246 0.930 . S
C2239 C2238 1.394 . S
C2239 C2240 1.383 . S
C2239 H2247 0.929 . S
C2240 C2239 1.383 . S
C2240 C2241 1.377 . S
C2241 H2225 0.930 . S
C2241 C2240 1.377 . S
C2241 C2242 1.379 . S
C2242 H2226 0.931 . S
C2242 C2236 1.383 . S
C2242 C2241 1.379 . S
H2243 C2237 0.959 . S
H2244 C2237 0.961 . S
H2245 C2237 0.960 . S
H2246 C2238 0.930 . S
H2247 C2239 0.929 . S
H2248 C2256 0.929 . S
H2249 C2258 0.930 . S
H2250 C2260 0.930 . S
H2251 C2263 0.929 . S
H2252 C2266 0.930 1_565 S
H2253 C2268 0.960 . S
H2254 C2268 0.960 . S
H2255 C2268 0.960 . S
C2256 H2248 0.929 . S
C2256 C2257 1.377 . S
C2256 C2258 1.384 . S
C2257 C2256 1.377 . S
C2257 C2263 1.390 . S
C2258 H2249 0.930 . S
C2258 C2256 1.384 . S
C2258 C2259 1.372 . S
C2259 C2258 1.372 . S
C2259 C2260 1.400 . S
C2259 C2264 1.490 . S
C2260 H2250 0.930 . S
C2260 C2259 1.400 . S
C2260 C2263 1.386 . S
H2261 C2277 0.930 . S
H2262 C2278 0.931 . S
C2263 H2251 0.929 . S
C2263 C2257 1.390 . S
C2263 C2260 1.386 . S
C2264 C2259 1.490 . S
C2264 C2266 1.395 . S
C2264 C2267 1.403 . S
H2265 C2271 0.930 . S
C2266 H2252 0.930 1_545 S
C2266 C2264 1.395 . S
C2266 C2269 1.403 . S
C2267 C2264 1.403 . S
C2267 C2268 1.524 . S
C2267 C2271 1.400 . S
C2268 H2253 0.960 . S
C2268 H2254 0.960 . S
C2268 H2255 0.960 . S
C2268 C2267 1.524 . S
C2269 C2266 1.403 . S
C2269 C2270 1.392 . S
C2269 C2273 1.495 1_545 S
C2270 C2269 1.392 . S
C2270 C2271 1.385 . S
C2270 C2272 1.478 . S
C2271 H2265 0.930 . S
C2271 C2267 1.400 . S
C2271 C2270 1.385 . S
C2272 C2270 1.478 . S
C2272 C2274 1.381 . S
C2272 C2278 1.383 . S
C2273 C2269 1.495 1_565 S
C2273 H2279 0.959 . S
C2273 H2280 0.961 . S
C2273 H2281 0.960 . S
C2274 C2272 1.381 . S
C2274 C2275 1.394 . S
C2274 H2282 0.930 . S
C2275 C2274 1.394 . S
C2275 C2276 1.383 . S
C2275 H2283 0.929 . S
C2276 C2275 1.383 . S
C2276 C2277 1.377 . S
C2277 H2261 0.930 . S
C2277 C2276 1.377 . S
C2277 C2278 1.379 . S
C2278 H2262 0.931 . S
C2278 C2272 1.383 . S
C2278 C2277 1.379 . S
H2279 C2273 0.959 . S
H2280 C2273 0.961 . S
H2281 C2273 0.960 . S
H2282 C2274 0.930 . S
H2283 C2275 0.929 . S
H2284 C2292 0.929 . S
H2285 C2294 0.930 . S
H2286 C2296 0.930 . S
H2287 C2299 0.929 . S
H2288 C2302 0.930 . S
H2289 C2304 0.960 . S
H2290 C2304 0.960 . S
H2291 C2304 0.960 . S
C2292 H2284 0.929 . S
C2292 C2293 1.377 . S
C2292 C2294 1.384 . S
C2293 C2292 1.377 . S
C2293 C2299 1.390 . S
C2294 H2285 0.930 . S
C2294 C2292 1.384 . S
C2294 C2295 1.372 . S
C2295 C2294 1.372 . S
C2295 C2296 1.400 . S
C2295 C2300 1.490 . S
C2296 H2286 0.930 . S
C2296 C2295 1.400 . S
C2296 C2299 1.386 . S
H2297 C2313 0.930 . S
H2298 C2314 0.931 . S
C2299 H2287 0.929 . S
C2299 C2293 1.390 . S
C2299 C2296 1.386 . S
C2300 C2295 1.490 . S
C2300 C2302 1.395 . S
C2300 C2303 1.403 . S
H2301 C2307 0.930 . S
C2302 H2288 0.930 . S
C2302 C2300 1.395 . S
C2302 C2305 1.403 . S
C2303 C2300 1.403 . S
C2303 C2304 1.524 . S
C2303 C2307 1.400 . S
C2304 H2289 0.960 . S
C2304 H2290 0.960 . S
C2304 H2291 0.960 . S
C2304 C2303 1.524 . S
C2305 C2302 1.403 . S
C2305 C2306 1.392 . S
C2305 C2309 1.495 . S
C2306 C2305 1.392 . S
C2306 C2307 1.385 . S
C2306 C2308 1.478 . S
C2307 H2301 0.930 . S
C2307 C2303 1.400 . S
C2307 C2306 1.385 . S
C2308 C2306 1.478 . S
C2308 C2310 1.381 . S
C2308 C2314 1.383 . S
C2309 C2305 1.495 . S
C2309 H2315 0.959 . S
C2309 H2316 0.961 . S
C2309 H2317 0.960 . S
C2310 C2308 1.381 . S
C2310 C2311 1.394 . S
C2310 H2318 0.930 . S
C2311 C2310 1.394 . S
C2311 C2312 1.383 . S
C2311 H2319 0.929 . S
C2312 C2311 1.383 . S
C2312 C2313 1.377 . S
C2313 H2297 0.930 . S
C2313 C2312 1.377 . S
C2313 C2314 1.379 . S
C2314 H2298 0.931 . S
C2314 C2308 1.383 . S
C2314 C2313 1.379 . S
H2315 C2309 0.959 . S
H2316 C2309 0.961 . S
H2317 C2309 0.960 . S
H2318 C2310 0.930 . S
H2319 C2311 0.929 . S
H2320 C2328 0.929 . S
H2321 C2330 0.930 . S
H2322 C2332 0.930 . S
H2323 C2335 0.929 1_556 S
H2324 C2338 0.930 . S
H2325 C2340 0.960 . S
H2326 C2340 0.960 . S
H2327 C2340 0.960 . S
C2328 H2320 0.929 . S
C2328 C2329 1.377 . S
C2328 C2330 1.384 . S
C2329 C2328 1.377 . S
C2329 C2335 1.390 . S
C2330 H2321 0.930 . S
C2330 C2328 1.384 . S
C2330 C2331 1.372 . S
C2331 C2330 1.372 . S
C2331 C2332 1.400 . S
C2331 C2336 1.490 . S
C2332 H2322 0.930 . S
C2332 C2331 1.400 . S
C2332 C2335 1.386 . S
H2333 C2349 0.930 . S
H2334 C2350 0.931 . S
C2335 H2323 0.929 1_554 S
C2335 C2329 1.390 . S
C2335 C2332 1.386 . S
C2336 C2331 1.490 . S
C2336 C2338 1.395 . S
C2336 C2339 1.403 . S
H2337 C2343 0.930 . S
C2338 H2324 0.930 . S
C2338 C2336 1.395 . S
C2338 C2341 1.403 . S
C2339 C2336 1.403 . S
C2339 C2340 1.524 . S
C2339 C2343 1.400 . S
C2340 H2325 0.960 . S
C2340 H2326 0.960 . S
C2340 H2327 0.960 . S
C2340 C2339 1.524 . S
C2341 C2338 1.403 . S
C2341 C2342 1.392 . S
C2341 C2345 1.495 . S
C2342 C2341 1.392 . S
C2342 C2343 1.385 . S
C2342 C2344 1.478 . S
C2343 H2337 0.930 . S
C2343 C2339 1.400 . S
C2343 C2342 1.385 . S
C2344 C2342 1.478 . S
C2344 C2346 1.381 . S
C2344 C2350 1.383 . S
C2345 C2341 1.495 . S
C2345 H2351 0.959 . S
C2345 H2352 0.961 . S
C2345 H2353 0.960 . S
C2346 C2344 1.381 . S
C2346 C2347 1.394 . S
C2346 H2354 0.930 . S
C2347 C2346 1.394 . S
C2347 C2348 1.383 . S
C2347 H2355 0.929 . S
C2348 C2347 1.383 . S
C2348 C2349 1.377 . S
C2349 H2333 0.930 . S
C2349 C2348 1.377 . S
C2349 C2350 1.379 . S
C2350 H2334 0.931 . S
C2350 C2344 1.383 . S
C2350 C2349 1.379 . S
H2351 C2345 0.959 . S
H2352 C2345 0.961 . S
H2353 C2345 0.960 . S
H2354 C2346 0.930 . S
H2355 C2347 0.929 . S
H2356 C2364 0.929 . S
H2357 C2366 0.930 . S
H2358 C2368 0.930 . S
H2359 C2371 0.929 . S
H2360 C2374 0.930 . S
H2361 C2376 0.960 . S
H2362 C2376 0.960 . S
H2363 C2376 0.960 . S
C2364 H2356 0.929 . S
C2364 C2365 1.377 1_556 S
C2364 C2366 1.384 . S
C2365 C2364 1.377 1_554 S
C2365 C2371 1.390 . S
C2366 H2357 0.930 . S
C2366 C2364 1.384 . S
C2366 C2367 1.372 1_556 S
C2367 C2366 1.372 1_554 S
C2367 C2368 1.400 . S
C2367 C2372 1.490 . S
C2368 H2358 0.930 . S
C2368 C2367 1.400 . S
C2368 C2371 1.386 . S
H2369 C2385 0.930 . S
H2370 C2386 0.931 . S
C2371 H2359 0.929 . S
C2371 C2365 1.390 . S
C2371 C2368 1.386 . S
C2372 C2367 1.490 . S
C2372 C2374 1.395 1_554 S
C2372 C2375 1.403 . S
H2373 C2379 0.930 . S
C2374 H2360 0.930 . S
C2374 C2372 1.395 1_556 S
C2374 C2377 1.403 . S
C2375 C2372 1.403 . S
C2375 C2376 1.524 . S
C2375 C2379 1.400 . S
C2376 H2361 0.960 . S
C2376 H2362 0.960 . S
C2376 H2363 0.960 . S
C2376 C2375 1.524 . S
C2377 C2374 1.403 . S
C2377 C2378 1.392 1_556 S
C2377 C2381 1.495 . S
C2378 C2377 1.392 1_554 S
C2378 C2379 1.385 . S
C2378 C2380 1.478 . S
C2379 H2373 0.930 . S
C2379 C2375 1.400 . S
C2379 C2378 1.385 . S
C2380 C2378 1.478 . S
C2380 C2382 1.381 1_554 S
C2380 C2386 1.383 . S
C2381 C2377 1.495 . S
C2381 H2387 0.959 . S
C2381 H2388 0.961 . S
C2381 H2389 0.960 . S
C2382 C2380 1.381 1_556 S
C2382 C2383 1.394 . S
C2382 H2390 0.930 . S
C2383 C2382 1.394 . S
C2383 C2384 1.383 1_556 S
C2383 H2391 0.929 . S
C2384 C2383 1.383 1_554 S
C2384 C2385 1.377 . S
C2385 H2369 0.930 . S
C2385 C2384 1.377 . S
C2385 C2386 1.379 . S
C2386 H2370 0.931 . S
C2386 C2380 1.383 . S
C2386 C2385 1.379 . S
H2387 C2381 0.959 . S
H2388 C2381 0.961 . S
H2389 C2381 0.960 . S
H2390 C2382 0.930 . S
H2391 C2383 0.929 . S
H2392 C2400 0.929 . S
H2393 C2402 0.930 . S
H2394 C2404 0.930 . S
H2395 C2407 0.929 . S
H2396 C2410 0.930 . S
H2397 C2412 0.960 . S
H2398 C2412 0.960 . S
H2399 C2412 0.960 . S
C2400 H2392 0.929 . S
C2400 C2401 1.377 . S
C2400 C2402 1.384 . S
C2401 C2400 1.377 . S
C2401 C2407 1.390 . S
C2402 H2393 0.930 . S
C2402 C2400 1.384 . S
C2402 C2403 1.372 . S
C2403 C2402 1.372 . S
C2403 C2404 1.400 . S
C2403 C2408 1.490 . S
C2404 H2394 0.930 . S
C2404 C2403 1.400 . S
C2404 C2407 1.386 . S
H2405 C2421 0.930 . S
H2406 C2422 0.931 . S
C2407 H2395 0.929 . S
C2407 C2401 1.390 . S
C2407 C2404 1.386 . S
C2408 C2403 1.490 . S
C2408 C2410 1.395 . S
C2408 C2411 1.403 . S
H2409 C2415 0.930 . S
C2410 H2396 0.930 . S
C2410 C2408 1.395 . S
C2410 C2413 1.403 . S
C2411 C2408 1.403 . S
C2411 C2412 1.524 . S
C2411 C2415 1.400 . S
C2412 H2397 0.960 . S
C2412 H2398 0.960 . S
C2412 H2399 0.960 . S
C2412 C2411 1.524 . S
C2413 C2410 1.403 . S
C2413 C2414 1.392 . S
C2413 C2417 1.495 . S
C2414 C2413 1.392 . S
C2414 C2415 1.385 . S
C2414 C2416 1.478 . S
C2415 H2409 0.930 . S
C2415 C2411 1.400 . S
C2415 C2414 1.385 . S
C2416 C2414 1.478 . S
C2416 C2418 1.381 . S
C2416 C2422 1.383 . S
C2417 C2413 1.495 . S
C2417 H2423 0.959 . S
C2417 H2424 0.961 . S
C2417 H2425 0.960 . S
C2418 C2416 1.381 . S
C2418 C2419 1.394 . S
C2418 H2426 0.930 . S
C2419 C2418 1.394 . S
C2419 C2420 1.383 . S
C2419 H2427 0.929 . S
C2420 C2419 1.383 . S
C2420 C2421 1.377 . S
C2421 H2405 0.930 . S
C2421 C2420 1.377 . S
C2421 C2422 1.379 . S
C2422 H2406 0.931 . S
C2422 C2416 1.383 . S
C2422 C2421 1.379 . S
H2423 C2417 0.959 . S
H2424 C2417 0.961 . S
H2425 C2417 0.960 . S
H2426 C2418 0.930 . S
H2427 C2419 0.929 . S
H2428 C2436 0.929 . S
H2429 C2438 0.930 . S
H2430 C2440 0.930 . S
H2431 C2443 0.929 . S
H2432 C2446 0.930 . S
H2433 C2448 0.960 . S
H2434 C2448 0.960 . S
H2435 C2448 0.960 . S
C2436 H2428 0.929 . S
C2436 C2437 1.377 . S
C2436 C2438 1.384 . S
C2437 C2436 1.377 . S
C2437 C2443 1.390 . S
C2438 H2429 0.930 . S
C2438 C2436 1.384 . S
C2438 C2439 1.372 . S
C2439 C2438 1.372 . S
C2439 C2440 1.400 . S
C2439 C2444 1.490 . S
C2440 H2430 0.930 . S
C2440 C2439 1.400 . S
C2440 C2443 1.386 . S
H2441 C2457 0.930 . S
H2442 C2458 0.931 . S
C2443 H2431 0.929 . S
C2443 C2437 1.390 . S
C2443 C2440 1.386 . S
C2444 C2439 1.490 . S
C2444 C2446 1.395 . S
C2444 C2447 1.403 . S
H2445 C2451 0.930 . S
C2446 H2432 0.930 . S
C2446 C2444 1.395 . S
C2446 C2449 1.403 . S
C2447 C2444 1.403 . S
C2447 C2448 1.524 . S
C2447 C2451 1.400 . S
C2448 H2433 0.960 . S
C2448 H2434 0.960 . S
C2448 H2435 0.960 . S
C2448 C2447 1.524 . S
C2449 C2446 1.403 . S
C2449 C2450 1.392 . S
C2449 C2453 1.495 . S
C2450 C2449 1.392 . S
C2450 C2451 1.385 . S
C2450 C2452 1.478 . S
C2451 H2445 0.930 . S
C2451 C2447 1.400 . S
C2451 C2450 1.385 . S
C2452 C2450 1.478 . S
C2452 C2454 1.381 . S
C2452 C2458 1.383 . S
C2453 C2449 1.495 . S
C2453 H2459 0.959 . S
C2453 H2460 0.961 . S
C2453 H2461 0.960 . S
C2454 C2452 1.381 . S
C2454 C2455 1.394 . S
C2454 H2462 0.930 . S
C2455 C2454 1.394 . S
C2455 C2456 1.383 . S
C2455 H2463 0.929 . S
C2456 C2455 1.383 . S
C2456 C2457 1.377 . S
C2457 H2441 0.930 . S
C2457 C2456 1.377 . S
C2457 C2458 1.379 . S
C2458 H2442 0.931 . S
C2458 C2452 1.383 . S
C2458 C2457 1.379 . S
H2459 C2453 0.959 . S
H2460 C2453 0.961 . S
H2461 C2453 0.960 . S
H2462 C2454 0.930 . S
H2463 C2455 0.929 . S
H2464 C2472 0.929 . S
H2465 C2474 0.930 . S
H2466 C2476 0.930 . S
H2467 C2479 0.929 . S
H2468 C2482 0.930 . S
H2469 C2484 0.960 . S
H2470 C2484 0.960 . S
H2471 C2484 0.960 . S
C2472 H2464 0.929 . S
C2472 C2473 1.377 . S
C2472 C2474 1.384 . S
C2473 C2472 1.377 . S
C2473 C2479 1.390 . S
C2474 H2465 0.930 . S
C2474 C2472 1.384 . S
C2474 C2475 1.372 . S
C2475 C2474 1.372 . S
C2475 C2476 1.400 . S
C2475 C2480 1.490 . S
C2476 H2466 0.930 . S
C2476 C2475 1.400 . S
C2476 C2479 1.386 . S
H2477 C2493 0.930 . S
H2478 C2494 0.931 . S
C2479 H2467 0.929 . S
C2479 C2473 1.390 . S
C2479 C2476 1.386 . S
C2480 C2475 1.490 . S
C2480 C2482 1.395 . S
C2480 C2483 1.403 . S
H2481 C2487 0.930 . S
C2482 H2468 0.930 . S
C2482 C2480 1.395 . S
C2482 C2485 1.403 . S
C2483 C2480 1.403 . S
C2483 C2484 1.524 . S
C2483 C2487 1.400 . S
C2484 H2469 0.960 . S
C2484 H2470 0.960 . S
C2484 H2471 0.960 . S
C2484 C2483 1.524 . S
C2485 C2482 1.403 . S
C2485 C2486 1.392 . S
C2485 C2489 1.495 . S
C2486 C2485 1.392 . S
C2486 C2487 1.385 . S
C2486 C2488 1.478 . S
C2487 H2481 0.930 . S
C2487 C2483 1.400 . S
C2487 C2486 1.385 . S
C2488 C2486 1.478 . S
C2488 C2490 1.381 . S
C2488 C2494 1.383 . S
C2489 C2485 1.495 . S
C2489 H2495 0.959 . S
C2489 H2496 0.961 . S
C2489 H2497 0.960 . S
C2490 C2488 1.381 . S
C2490 C2491 1.394 . S
C2490 H2498 0.930 . S
C2491 C2490 1.394 . S
C2491 C2492 1.383 . S
C2491 H2499 0.929 . S
C2492 C2491 1.383 . S
C2492 C2493 1.377 . S
C2493 H2477 0.930 . S
C2493 C2492 1.377 . S
C2493 C2494 1.379 . S
C2494 H2478 0.931 . S
C2494 C2488 1.383 . S
C2494 C2493 1.379 . S
H2495 C2489 0.959 . S
H2496 C2489 0.961 . S
H2497 C2489 0.960 . S
H2498 C2490 0.930 . S
H2499 C2491 0.929 . S
H2500 C2508 0.929 . S
H2501 C2510 0.930 . S
H2502 C2512 0.930 . S
H2503 C2515 0.929 . S
H2504 C2518 0.930 . S
H2505 C2520 0.960 . S
H2506 C2520 0.960 . S
H2507 C2520 0.960 . S
C2508 H2500 0.929 . S
C2508 C2509 1.377 . S
C2508 C2510 1.384 . S
C2509 C2508 1.377 . S
C2509 C2515 1.390 . S
C2510 H2501 0.930 . S
C2510 C2508 1.384 . S
C2510 C2511 1.372 . S
C2511 C2510 1.372 . S
C2511 C2512 1.400 . S
C2511 C2516 1.490 . S
C2512 H2502 0.930 . S
C2512 C2511 1.400 . S
C2512 C2515 1.386 . S
H2513 C2529 0.930 . S
H2514 C2530 0.931 . S
C2515 H2503 0.929 . S
C2515 C2509 1.390 . S
C2515 C2512 1.386 . S
C2516 C2511 1.490 . S
C2516 C2518 1.395 . S
C2516 C2519 1.403 . S
H2517 C2523 0.930 . S
C2518 H2504 0.930 . S
C2518 C2516 1.395 . S
C2518 C2521 1.403 . S
C2519 C2516 1.403 . S
C2519 C2520 1.524 . S
C2519 C2523 1.400 . S
C2520 H2505 0.960 . S
C2520 H2506 0.960 . S
C2520 H2507 0.960 . S
C2520 C2519 1.524 . S
C2521 C2518 1.403 . S
C2521 C2522 1.392 . S
C2521 C2525 1.495 . S
C2522 C2521 1.392 . S
C2522 C2523 1.385 . S
C2522 C2524 1.478 . S
C2523 H2517 0.930 . S
C2523 C2519 1.400 . S
C2523 C2522 1.385 . S
C2524 C2522 1.478 . S
C2524 C2526 1.381 . S
C2524 C2530 1.383 . S
C2525 C2521 1.495 . S
C2525 H2531 0.959 . S
C2525 H2532 0.961 . S
C2525 H2533 0.960 . S
C2526 C2524 1.381 . S
C2526 C2527 1.394 . S
C2526 H2534 0.930 . S
C2527 C2526 1.394 . S
C2527 C2528 1.383 . S
C2527 H2535 0.929 . S
C2528 C2527 1.383 . S
C2528 C2529 1.377 . S
C2529 H2513 0.930 . S
C2529 C2528 1.377 . S
C2529 C2530 1.379 . S
C2530 H2514 0.931 . S
C2530 C2524 1.383 . S
C2530 C2529 1.379 . S
H2531 C2525 0.959 . S
H2532 C2525 0.961 . S
H2533 C2525 0.960 . S
H2534 C2526 0.930 . S
H2535 C2527 0.929 . S
H2536 C2544 0.929 . S
H2537 C2546 0.930 . S
H2538 C2548 0.930 . S
H2539 C2551 0.929 . S
H2540 C2554 0.930 . S
H2541 C2556 0.960 . S
H2542 C2556 0.960 . S
H2543 C2556 0.960 . S
C2544 H2536 0.929 . S
C2544 C2545 1.377 . S
C2544 C2546 1.384 . S
C2545 C2544 1.377 . S
C2545 C2551 1.390 . S
C2546 H2537 0.930 . S
C2546 C2544 1.384 . S
C2546 C2547 1.372 . S
C2547 C2546 1.372 . S
C2547 C2548 1.400 . S
C2547 C2552 1.490 . S
C2548 H2538 0.930 . S
C2548 C2547 1.400 . S
C2548 C2551 1.386 . S
H2549 C2565 0.930 . S
H2550 C2566 0.931 . S
C2551 H2539 0.929 . S
C2551 C2545 1.390 . S
C2551 C2548 1.386 . S
C2552 C2547 1.490 . S
C2552 C2554 1.395 . S
C2552 C2555 1.403 . S
H2553 C2559 0.930 . S
C2554 H2540 0.930 . S
C2554 C2552 1.395 . S
C2554 C2557 1.403 . S
C2555 C2552 1.403 . S
C2555 C2556 1.524 . S
C2555 C2559 1.400 . S
C2556 H2541 0.960 . S
C2556 H2542 0.960 . S
C2556 H2543 0.960 . S
C2556 C2555 1.524 . S
C2557 C2554 1.403 . S
C2557 C2558 1.392 . S
C2557 C2561 1.495 . S
C2558 C2557 1.392 . S
C2558 C2559 1.385 . S
C2558 C2560 1.478 . S
C2559 H2553 0.930 . S
C2559 C2555 1.400 . S
C2559 C2558 1.385 . S
C2560 C2558 1.478 . S
C2560 C2562 1.381 . S
C2560 C2566 1.383 . S
C2561 C2557 1.495 . S
C2561 H2567 0.959 . S
C2561 H2568 0.961 . S
C2561 H2569 0.960 . S
C2562 C2560 1.381 . S
C2562 C2563 1.394 . S
C2562 H2570 0.930 . S
C2563 C2562 1.394 . S
C2563 C2564 1.383 . S
C2563 H2571 0.929 . S
C2564 C2563 1.383 . S
C2564 C2565 1.377 . S
C2565 H2549 0.930 . S
C2565 C2564 1.377 . S
C2565 C2566 1.379 . S
C2566 H2550 0.931 . S
C2566 C2560 1.383 . S
C2566 C2565 1.379 . S
H2567 C2561 0.959 . S
H2568 C2561 0.961 . S
H2569 C2561 0.960 . S
H2570 C2562 0.930 . S
H2571 C2563 0.929 . S
H2572 C2580 0.929 . S
H2573 C2582 0.930 . S
H2574 C2584 0.930 . S
H2575 C2587 0.929 . S
H2576 C2590 0.930 . S
H2577 C2592 0.960 . S
H2578 C2592 0.960 . S
H2579 C2592 0.960 . S
C2580 H2572 0.929 . S
C2580 C2581 1.377 . S
C2580 C2582 1.384 . S
C2581 C2580 1.377 . S
C2581 C2587 1.390 . S
C2582 H2573 0.930 . S
C2582 C2580 1.384 . S
C2582 C2583 1.372 . S
C2583 C2582 1.372 . S
C2583 C2584 1.400 . S
C2583 C2588 1.490 . S
C2584 H2574 0.930 . S
C2584 C2583 1.400 . S
C2584 C2587 1.386 . S
H2585 C2601 0.930 . S
H2586 C2602 0.931 . S
C2587 H2575 0.929 . S
C2587 C2581 1.390 . S
C2587 C2584 1.386 . S
C2588 C2583 1.490 . S
C2588 C2590 1.395 . S
C2588 C2591 1.403 . S
H2589 C2595 0.930 . S
C2590 H2576 0.930 . S
C2590 C2588 1.395 . S
C2590 C2593 1.403 . S
C2591 C2588 1.403 . S
C2591 C2592 1.524 . S
C2591 C2595 1.400 . S
C2592 H2577 0.960 . S
C2592 H2578 0.960 . S
C2592 H2579 0.960 . S
C2592 C2591 1.524 . S
C2593 C2590 1.403 . S
C2593 C2594 1.392 . S
C2593 C2597 1.495 . S
C2594 C2593 1.392 . S
C2594 C2595 1.385 . S
C2594 C2596 1.478 . S
C2595 H2589 0.930 . S
C2595 C2591 1.400 . S
C2595 C2594 1.385 . S
C2596 C2594 1.478 . S
C2596 C2598 1.381 . S
C2596 C2602 1.383 . S
C2597 C2593 1.495 . S
C2597 H2603 0.959 . S
C2597 H2604 0.961 . S
C2597 H2605 0.960 . S
C2598 C2596 1.381 . S
C2598 C2599 1.394 . S
C2598 H2606 0.930 . S
C2599 C2598 1.394 . S
C2599 C2600 1.383 . S
C2599 H2607 0.929 . S
C2600 C2599 1.383 . S
C2600 C2601 1.377 . S
C2601 H2585 0.930 . S
C2601 C2600 1.377 . S
C2601 C2602 1.379 . S
C2602 H2586 0.931 . S
C2602 C2596 1.383 . S
C2602 C2601 1.379 . S
H2603 C2597 0.959 . S
H2604 C2597 0.961 . S
H2605 C2597 0.960 . S
H2606 C2598 0.930 . S
H2607 C2599 0.929 . S
H2608 C2616 0.929 . S
H2609 C2618 0.930 . S
H2610 C2620 0.930 . S
H2611 C2623 0.929 . S
H2612 C2626 0.930 . S
H2613 C2628 0.960 . S
H2614 C2628 0.960 . S
H2615 C2628 0.960 . S
C2616 H2608 0.929 . S
C2616 C2617 1.377 . S
C2616 C2618 1.384 . S
C2617 C2616 1.377 . S
C2617 C2623 1.390 . S
C2618 H2609 0.930 . S
C2618 C2616 1.384 . S
C2618 C2619 1.372 . S
C2619 C2618 1.372 . S
C2619 C2620 1.400 . S
C2619 C2624 1.490 . S
C2620 H2610 0.930 . S
C2620 C2619 1.400 . S
C2620 C2623 1.386 . S
H2621 C2637 0.930 . S
H2622 C2638 0.931 . S
C2623 H2611 0.929 . S
C2623 C2617 1.390 . S
C2623 C2620 1.386 . S
C2624 C2619 1.490 . S
C2624 C2626 1.395 . S
C2624 C2627 1.403 . S
H2625 C2631 0.930 . S
C2626 H2612 0.930 . S
C2626 C2624 1.395 . S
C2626 C2629 1.403 . S
C2627 C2624 1.403 . S
C2627 C2628 1.524 . S
C2627 C2631 1.400 . S
C2628 H2613 0.960 . S
C2628 H2614 0.960 . S
C2628 H2615 0.960 . S
C2628 C2627 1.524 . S
C2629 C2626 1.403 . S
C2629 C2630 1.392 . S
C2629 C2633 1.495 . S
C2630 C2629 1.392 . S
C2630 C2631 1.385 . S
C2630 C2632 1.478 . S
C2631 H2625 0.930 . S
C2631 C2627 1.400 . S
C2631 C2630 1.385 . S
C2632 C2630 1.478 . S
C2632 C2634 1.381 . S
C2632 C2638 1.383 . S
C2633 C2629 1.495 . S
C2633 H2639 0.959 . S
C2633 H2640 0.961 . S
C2633 H2641 0.960 . S
C2634 C2632 1.381 . S
C2634 C2635 1.394 . S
C2634 H2642 0.930 . S
C2635 C2634 1.394 . S
C2635 C2636 1.383 . S
C2635 H2643 0.929 . S
C2636 C2635 1.383 . S
C2636 C2637 1.377 . S
C2637 H2621 0.930 . S
C2637 C2636 1.377 . S
C2637 C2638 1.379 . S
C2638 H2622 0.931 . S
C2638 C2632 1.383 . S
C2638 C2637 1.379 . S
H2639 C2633 0.959 . S
H2640 C2633 0.961 . S
H2641 C2633 0.960 . S
H2642 C2634 0.930 . S
H2643 C2635 0.929 . S
H2644 C2652 0.929 . S
H2645 C2654 0.930 . S
H2646 C2656 0.930 . S
H2647 C2659 0.929 . S
H2648 C2662 0.930 . S
H2649 C2664 0.960 . S
H2650 C2664 0.960 . S
H2651 C2664 0.960 . S
C2652 H2644 0.929 . S
C2652 C2653 1.377 . S
C2652 C2654 1.384 . S
C2653 C2652 1.377 . S
C2653 C2659 1.390 . S
C2654 H2645 0.930 . S
C2654 C2652 1.384 . S
C2654 C2655 1.372 . S
C2655 C2654 1.372 . S
C2655 C2656 1.400 . S
C2655 C2660 1.490 . S
C2656 H2646 0.930 . S
C2656 C2655 1.400 . S
C2656 C2659 1.386 . S
H2657 C2673 0.930 . S
H2658 C2674 0.931 . S
C2659 H2647 0.929 . S
C2659 C2653 1.390 . S
C2659 C2656 1.386 . S
C2660 C2655 1.490 . S
C2660 C2662 1.395 . S
C2660 C2663 1.403 . S
H2661 C2667 0.930 . S
C2662 H2648 0.930 . S
C2662 C2660 1.395 . S
C2662 C2665 1.403 . S
C2663 C2660 1.403 . S
C2663 C2664 1.524 . S
C2663 C2667 1.400 . S
C2664 H2649 0.960 . S
C2664 H2650 0.960 . S
C2664 H2651 0.960 . S
C2664 C2663 1.524 . S
C2665 C2662 1.403 . S
C2665 C2666 1.392 . S
C2665 C2669 1.495 . S
C2666 C2665 1.392 . S
C2666 C2667 1.385 . S
C2666 C2668 1.478 . S
C2667 H2661 0.930 . S
C2667 C2663 1.400 . S
C2667 C2666 1.385 . S
C2668 C2666 1.478 . S
C2668 C2670 1.381 . S
C2668 C2674 1.383 . S
C2669 C2665 1.495 . S
C2669 H2675 0.959 . S
C2669 H2676 0.961 . S
C2669 H2677 0.960 . S
C2670 C2668 1.381 . S
C2670 C2671 1.394 . S
C2670 H2678 0.930 . S
C2671 C2670 1.394 . S
C2671 C2672 1.383 . S
C2671 H2679 0.929 . S
C2672 C2671 1.383 . S
C2672 C2673 1.377 . S
C2673 H2657 0.930 . S
C2673 C2672 1.377 . S
C2673 C2674 1.379 . S
C2674 H2658 0.931 . S
C2674 C2668 1.383 . S
C2674 C2673 1.379 . S
H2675 C2669 0.959 . S
H2676 C2669 0.961 . S
H2677 C2669 0.960 . S
H2678 C2670 0.930 . S
H2679 C2671 0.929 . S
H2680 C2688 0.929 . S
H2681 C2690 0.930 . S
H2682 C2692 0.930 . S
H2683 C2695 0.929 . S
H2684 C2698 0.930 . S
H2685 C2700 0.960 . S
H2686 C2700 0.960 . S
H2687 C2700 0.960 . S
C2688 H2680 0.929 . S
C2688 C2689 1.377 . S
C2688 C2690 1.384 . S
C2689 C2688 1.377 . S
C2689 C2695 1.390 . S
C2690 H2681 0.930 . S
C2690 C2688 1.384 . S
C2690 C2691 1.372 . S
C2691 C2690 1.372 . S
C2691 C2692 1.400 . S
C2691 C2696 1.490 . S
C2692 H2682 0.930 . S
C2692 C2691 1.400 . S
C2692 C2695 1.386 . S
H2693 C2709 0.930 . S
H2694 C2710 0.931 . S
C2695 H2683 0.929 . S
C2695 C2689 1.390 . S
C2695 C2692 1.386 . S
C2696 C2691 1.490 . S
C2696 C2698 1.395 . S
C2696 C2699 1.403 . S
H2697 C2703 0.930 . S
C2698 H2684 0.930 . S
C2698 C2696 1.395 . S
C2698 C2701 1.403 . S
C2699 C2696 1.403 . S
C2699 C2700 1.524 . S
C2699 C2703 1.400 . S
C2700 H2685 0.960 . S
C2700 H2686 0.960 . S
C2700 H2687 0.960 . S
C2700 C2699 1.524 . S
C2701 C2698 1.403 . S
C2701 C2702 1.392 . S
C2701 C2705 1.495 . S
C2702 C2701 1.392 . S
C2702 C2703 1.385 . S
C2702 C2704 1.478 . S
C2703 H2697 0.930 . S
C2703 C2699 1.400 . S
C2703 C2702 1.385 . S
C2704 C2702 1.478 . S
C2704 C2706 1.381 . S
C2704 C2710 1.383 . S
C2705 C2701 1.495 . S
C2705 H2711 0.959 . S
C2705 H2712 0.961 . S
C2705 H2713 0.960 . S
C2706 C2704 1.381 . S
C2706 C2707 1.394 . S
C2706 H2714 0.930 . S
C2707 C2706 1.394 . S
C2707 C2708 1.383 . S
C2707 H2715 0.929 . S
C2708 C2707 1.383 . S
C2708 C2709 1.377 . S
C2709 H2693 0.930 . S
C2709 C2708 1.377 . S
C2709 C2710 1.379 . S
C2710 H2694 0.931 . S
C2710 C2704 1.383 . S
C2710 C2709 1.379 . S
H2711 C2705 0.959 . S
H2712 C2705 0.961 . S
H2713 C2705 0.960 . S
H2714 C2706 0.930 . S
H2715 C2707 0.929 . S
H2716 C2724 0.929 . S
H2717 C2726 0.930 . S
H2718 C2728 0.930 . S
H2719 C2731 0.929 . S
H2720 C2734 0.930 . S
H2721 C2736 0.960 . S
H2722 C2736 0.960 . S
H2723 C2736 0.960 . S
C2724 H2716 0.929 . S
C2724 C2725 1.377 . S
C2724 C2726 1.384 . S
C2725 C2724 1.377 . S
C2725 C2731 1.390 . S
C2726 H2717 0.930 . S
C2726 C2724 1.384 . S
C2726 C2727 1.372 . S
C2727 C2726 1.372 . S
C2727 C2728 1.400 . S
C2727 C2732 1.490 . S
C2728 H2718 0.930 . S
C2728 C2727 1.400 . S
C2728 C2731 1.386 . S
H2729 C2745 0.930 . S
H2730 C2746 0.931 . S
C2731 H2719 0.929 . S
C2731 C2725 1.390 . S
C2731 C2728 1.386 . S
C2732 C2727 1.490 . S
C2732 C2734 1.395 . S
C2732 C2735 1.403 . S
H2733 C2739 0.930 . S
C2734 H2720 0.930 . S
C2734 C2732 1.395 . S
C2734 C2737 1.403 . S
C2735 C2732 1.403 . S
C2735 C2736 1.524 . S
C2735 C2739 1.400 . S
C2736 H2721 0.960 . S
C2736 H2722 0.960 . S
C2736 H2723 0.960 . S
C2736 C2735 1.524 . S
C2737 C2734 1.403 . S
C2737 C2738 1.392 . S
C2737 C2741 1.495 . S
C2738 C2737 1.392 . S
C2738 C2739 1.385 . S
C2738 C2740 1.478 . S
C2739 H2733 0.930 . S
C2739 C2735 1.400 . S
C2739 C2738 1.385 . S
C2740 C2738 1.478 . S
C2740 C2742 1.381 . S
C2740 C2746 1.383 . S
C2741 C2737 1.495 . S
C2741 H2747 0.959 . S
C2741 H2748 0.961 . S
C2741 H2749 0.960 . S
C2742 C2740 1.381 . S
C2742 C2743 1.394 . S
C2742 H2750 0.930 . S
C2743 C2742 1.394 . S
C2743 C2744 1.383 . S
C2743 H2751 0.929 . S
C2744 C2743 1.383 . S
C2744 C2745 1.377 . S
C2745 H2729 0.930 . S
C2745 C2744 1.377 . S
C2745 C2746 1.379 . S
C2746 H2730 0.931 . S
C2746 C2740 1.383 . S
C2746 C2745 1.379 . S
H2747 C2741 0.959 . S
H2748 C2741 0.961 . S
H2749 C2741 0.960 . S
H2750 C2742 0.930 . S
H2751 C2743 0.929 . S
H2752 C2760 0.929 . S
H2753 C2762 0.930 . S
H2754 C2764 0.930 . S
H2755 C2767 0.929 . S
H2756 C2770 0.930 . S
H2757 C2772 0.960 . S
H2758 C2772 0.960 . S
H2759 C2772 0.960 . S
C2760 H2752 0.929 . S
C2760 C2761 1.377 . S
C2760 C2762 1.384 . S
C2761 C2760 1.377 . S
C2761 C2767 1.390 . S
C2762 H2753 0.930 . S
C2762 C2760 1.384 . S
C2762 C2763 1.372 . S
C2763 C2762 1.372 . S
C2763 C2764 1.400 . S
C2763 C2768 1.490 . S
C2764 H2754 0.930 . S
C2764 C2763 1.400 . S
C2764 C2767 1.386 . S
H2765 C2781 0.930 . S
H2766 C2782 0.908 1_554 S
C2767 H2755 0.929 . S
C2767 C2761 1.390 . S
C2767 C2764 1.386 . S
C2768 C2763 1.490 . S
C2768 C2770 1.395 . S
C2768 C2771 1.403 . S
H2769 C2775 0.930 . S
C2770 H2756 0.930 . S
C2770 C2768 1.395 . S
C2770 C2773 1.403 . S
C2771 C2768 1.403 . S
C2771 C2772 1.524 . S
C2771 C2775 1.400 . S
C2772 H2757 0.960 . S
C2772 H2758 0.960 . S
C2772 H2759 0.960 . S
C2772 C2771 1.524 . S
C2773 C2770 1.403 . S
C2773 C2774 1.392 . S
C2773 C2777 1.495 . S
C2774 C2773 1.392 . S
C2774 C2775 1.385 . S
C2774 C2776 1.478 . S
C2775 H2769 0.930 . S
C2775 C2771 1.400 . S
C2775 C2774 1.385 . S
C2776 C2774 1.478 . S
C2776 C2778 1.381 . S
C2776 C2782 1.383 . S
C2777 C2773 1.495 . S
C2777 H2783 0.959 . S
C2777 H2784 0.961 . S
C2777 H2785 0.960 . S
C2778 C2776 1.381 . S
C2778 C2779 1.394 . S
C2778 H2786 0.930 . S
C2779 C2778 1.394 . S
C2779 C2780 1.384 1_556 S
C2779 H2787 0.929 . S
C2780 C2779 1.384 1_554 S
C2780 C2781 1.376 . S
C2781 H2765 0.930 . S
C2781 C2780 1.376 . S
C2781 C2782 1.379 1_554 S
C2782 H2766 0.908 1_556 S
C2782 C2776 1.383 . S
C2782 C2781 1.379 1_556 S
H2783 C2777 0.959 . S
H2784 C2777 0.961 . S
H2785 C2777 0.960 . S
H2786 C2778 0.930 . S
H2787 C2779 0.929 . S
H2788 C2796 0.929 1_455 S
H2789 C2798 0.930 . S
H2790 C2800 0.930 . S
H2791 C2803 0.929 . S
H2792 C2806 0.930 . S
H2793 C2808 0.960 . S
H2794 C2808 0.960 . S
H2795 C2808 0.960 . S
C2796 H2788 0.929 1_655 S
C2796 C2797 1.372 1_655 S
C2796 C2798 1.384 . S
C2797 C2796 1.372 1_455 S
C2797 C2803 1.373 1_455 S
C2798 H2789 0.930 . S
C2798 C2796 1.384 . S
C2798 C2799 1.372 . S
C2799 C2798 1.372 . S
C2799 C2800 1.400 . S
C2799 C2804 1.490 . S
C2800 H2790 0.930 . S
C2800 C2799 1.400 . S
C2800 C2803 1.386 . S
H2801 C2817 0.930 . S
H2802 C2818 0.931 . S
C2803 H2791 0.929 . S
C2803 C2797 1.373 1_655 S
C2803 C2800 1.386 . S
C2804 C2799 1.490 . S
C2804 C2806 1.395 . S
C2804 C2807 1.403 . S
H2805 C2811 0.930 . S
C2806 H2792 0.930 . S
C2806 C2804 1.395 . S
C2806 C2809 1.403 . S
C2807 C2804 1.403 . S
C2807 C2808 1.524 . S
C2807 C2811 1.400 . S
C2808 H2793 0.960 . S
C2808 H2794 0.960 . S
C2808 H2795 0.960 . S
C2808 C2807 1.524 . S
C2809 C2806 1.403 . S
C2809 C2810 1.392 . S
C2809 C2813 1.495 . S
C2810 C2809 1.392 . S
C2810 C2811 1.385 . S
C2810 C2812 1.478 . S
C2811 H2805 0.930 . S
C2811 C2807 1.400 . S
C2811 C2810 1.385 . S
C2812 C2810 1.478 . S
C2812 C2814 1.381 . S
C2812 C2818 1.383 . S
C2813 C2809 1.495 . S
C2813 H2819 0.959 . S
C2813 H2820 0.961 . S
C2813 H2821 0.960 . S
C2814 C2812 1.381 . S
C2814 C2815 1.394 . S
C2814 H2822 0.930 . S
C2815 C2814 1.394 . S
C2815 C2816 1.383 . S
C2815 H2823 0.929 . S
C2816 C2815 1.383 . S
C2816 C2817 1.377 . S
C2817 H2801 0.930 . S
C2817 C2816 1.377 . S
C2817 C2818 1.379 . S
C2818 H2802 0.931 . S
C2818 C2812 1.383 . S
C2818 C2817 1.379 . S
H2819 C2813 0.959 . S
H2820 C2813 0.961 . S
H2821 C2813 0.960 . S
H2822 C2814 0.930 . S
H2823 C2815 0.929 . S
H2824 C2832 0.929 . S
H2825 C2834 0.930 . S
H2826 C2836 0.930 . S
H2827 C2839 0.929 . S
H2828 C2842 0.930 . S
H2829 C2844 0.960 . S
H2830 C2844 0.960 . S
H2831 C2844 0.960 . S
C2832 H2824 0.929 . S
C2832 C2833 1.377 . S
C2832 C2834 1.384 . S
C2833 C2832 1.377 . S
C2833 C2839 1.390 . S
C2834 H2825 0.930 . S
C2834 C2832 1.384 . S
C2834 C2835 1.372 . S
C2835 C2834 1.372 . S
C2835 C2836 1.400 . S
C2835 C2840 1.490 . S
C2836 H2826 0.930 . S
C2836 C2835 1.400 . S
C2836 C2839 1.386 . S
H2837 C2853 0.930 . S
H2838 C2854 0.931 . S
C2839 H2827 0.929 . S
C2839 C2833 1.390 . S
C2839 C2836 1.386 . S
C2840 C2835 1.490 . S
C2840 C2842 1.395 . S
C2840 C2843 1.403 . S
H2841 C2847 0.930 . S
C2842 H2828 0.930 . S
C2842 C2840 1.395 . S
C2842 C2845 1.403 . S
C2843 C2840 1.403 . S
C2843 C2844 1.524 1_455 S
C2843 C2847 1.400 . S
C2844 H2829 0.960 . S
C2844 H2830 0.960 . S
C2844 H2831 0.960 . S
C2844 C2843 1.524 1_655 S
C2845 C2842 1.403 . S
C2845 C2846 1.392 . S
C2845 C2849 1.495 . S
C2846 C2845 1.392 . S
C2846 C2847 1.385 . S
C2846 C2848 1.478 . S
C2847 H2841 0.930 . S
C2847 C2843 1.400 . S
C2847 C2846 1.385 . S
C2848 C2846 1.478 . S
C2848 C2850 1.381 . S
C2848 C2854 1.383 . S
C2849 C2845 1.495 . S
C2849 H2855 0.959 . S
C2849 H2856 0.961 . S
C2849 H2857 0.960 . S
C2850 C2848 1.381 . S
C2850 C2851 1.394 . S
C2850 H2858 0.930 . S
C2851 C2850 1.394 . S
C2851 C2852 1.383 . S
C2851 H2859 0.929 . S
C2852 C2851 1.383 . S
C2852 C2853 1.377 . S
C2853 H2837 0.930 . S
C2853 C2852 1.377 . S
C2853 C2854 1.379 . S
C2854 H2838 0.931 . S
C2854 C2848 1.383 . S
C2854 C2853 1.379 . S
H2855 C2849 0.959 . S
H2856 C2849 0.961 . S
H2857 C2849 0.960 . S
H2858 C2850 0.930 . S
H2859 C2851 0.929 . S
H2860 C2868 0.929 . S
H2861 C2870 0.930 . S
H2862 C2872 0.930 . S
H2863 C2875 0.929 . S
H2864 C2878 0.930 . S
H2865 C2880 0.960 . S
H2866 C2880 0.960 . S
H2867 C2880 0.960 . S
C2868 H2860 0.929 . S
C2868 C2869 1.377 . S
C2868 C2870 1.384 . S
C2869 C2868 1.377 . S
C2869 C2875 1.390 . S
C2870 H2861 0.930 . S
C2870 C2868 1.384 . S
C2870 C2871 1.372 . S
C2871 C2870 1.372 . S
C2871 C2872 1.400 . S
C2871 C2876 1.490 . S
C2872 H2862 0.930 . S
C2872 C2871 1.400 . S
C2872 C2875 1.386 . S
H2873 C2889 0.930 . S
H2874 C2890 0.931 . S
C2875 H2863 0.929 . S
C2875 C2869 1.390 . S
C2875 C2872 1.386 . S
C2876 C2871 1.490 . S
C2876 C2878 1.395 . S
C2876 C2879 1.403 . S
H2877 C2883 0.930 . S
C2878 H2864 0.930 . S
C2878 C2876 1.395 . S
C2878 C2881 1.403 . S
C2879 C2876 1.403 . S
C2879 C2880 1.524 . S
C2879 C2883 1.400 . S
C2880 H2865 0.960 . S
C2880 H2866 0.960 . S
C2880 H2867 0.960 . S
C2880 C2879 1.524 . S
C2881 C2878 1.403 . S
C2881 C2882 1.392 . S
C2881 C2885 1.495 . S
C2882 C2881 1.392 . S
C2882 C2883 1.385 . S
C2882 C2884 1.478 . S
C2883 H2877 0.930 . S
C2883 C2879 1.400 . S
C2883 C2882 1.385 . S
C2884 C2882 1.478 . S
C2884 C2886 1.381 . S
C2884 C2890 1.383 . S
C2885 C2881 1.495 . S
C2885 H2891 0.959 . S
C2885 H2892 0.961 . S
C2885 H2893 0.960 . S
C2886 C2884 1.381 . S
C2886 C2887 1.394 . S
C2886 H2894 0.930 . S
C2887 C2886 1.394 . S
C2887 C2888 1.383 . S
C2887 H2895 0.929 . S
C2888 C2887 1.383 . S
C2888 C2889 1.377 . S
C2889 H2873 0.930 . S
C2889 C2888 1.377 . S
C2889 C2890 1.379 . S
C2890 H2874 0.931 . S
C2890 C2884 1.383 . S
C2890 C2889 1.379 . S
H2891 C2885 0.959 . S
H2892 C2885 0.961 . S
H2893 C2885 0.960 . S
H2894 C2886 0.930 . S
H2895 C2887 0.929 . S
H2896 C2904 0.929 . S
H2897 C2906 0.930 . S
H2898 C2908 0.930 . S
H2899 C2911 0.929 . S
H2900 C2914 0.930 . S
H2901 C2916 0.960 . S
H2902 C2916 0.960 . S
H2903 C2916 0.960 . S
C2904 H2896 0.929 . S
C2904 C2905 1.377 . S
C2904 C2906 1.384 . S
C2905 C2904 1.377 . S
C2905 C2911 1.390 . S
C2906 H2897 0.930 . S
C2906 C2904 1.384 . S
C2906 C2907 1.372 . S
C2907 C2906 1.372 . S
C2907 C2908 1.400 . S
C2907 C2912 1.490 . S
C2908 H2898 0.930 . S
C2908 C2907 1.400 . S
C2908 C2911 1.386 . S
H2909 C2925 0.930 . S
H2910 C2926 0.931 . S
C2911 H2899 0.929 . S
C2911 C2905 1.390 . S
C2911 C2908 1.386 . S
C2912 C2907 1.490 . S
C2912 C2914 1.395 . S
C2912 C2915 1.403 . S
H2913 C2919 0.930 . S
C2914 H2900 0.930 . S
C2914 C2912 1.395 . S
C2914 C2917 1.403 . S
C2915 C2912 1.403 . S
C2915 C2916 1.524 . S
C2915 C2919 1.400 . S
C2916 H2901 0.960 . S
C2916 H2902 0.960 . S
C2916 H2903 0.960 . S
C2916 C2915 1.524 . S
C2917 C2914 1.403 . S
C2917 C2918 1.392 . S
C2917 C2921 1.495 . S
C2918 C2917 1.392 . S
C2918 C2919 1.385 . S
C2918 C2920 1.478 . S
C2919 H2913 0.930 . S
C2919 C2915 1.400 . S
C2919 C2918 1.385 . S
C2920 C2918 1.478 . S
C2920 C2922 1.381 . S
C2920 C2926 1.383 . S
C2921 C2917 1.495 . S
C2921 H2927 0.959 . S
C2921 H2928 0.961 . S
C2921 H2929 0.960 . S
C2922 C2920 1.381 . S
C2922 C2923 1.394 . S
C2922 H2930 0.930 . S
C2923 C2922 1.394 . S
C2923 C2924 1.383 . S
C2923 H2931 0.929 . S
C2924 C2923 1.383 . S
C2924 C2925 1.377 . S
C2925 H2909 0.930 . S
C2925 C2924 1.377 . S
C2925 C2926 1.379 . S
C2926 H2910 0.931 . S
C2926 C2920 1.383 . S
C2926 C2925 1.379 . S
H2927 C2921 0.959 . S
H2928 C2921 0.961 . S
H2929 C2921 0.960 . S
H2930 C2922 0.930 . S
H2931 C2923 0.929 . S
H2932 C2940 0.929 1_554 S
H2933 C2942 0.930 . S
H2934 C2944 0.930 . S
H2935 C2947 0.929 . S
H2936 C2950 0.930 . S
H2937 C2952 0.960 . S
H2938 C2952 0.960 . S
H2939 C2952 0.960 . S
C2940 H2932 0.929 1_556 S
C2940 C2941 1.377 . S
C2940 C2942 1.384 . S
C2941 C2940 1.377 . S
C2941 C2947 1.390 . S
C2942 H2933 0.930 . S
C2942 C2940 1.384 . S
C2942 C2943 1.372 . S
C2943 C2942 1.372 . S
C2943 C2944 1.400 . S
C2943 C2948 1.490 . S
C2944 H2934 0.930 . S
C2944 C2943 1.400 . S
C2944 C2947 1.386 . S
H2945 C2961 0.930 . S
H2946 C2962 0.931 . S
C2947 H2935 0.929 . S
C2947 C2941 1.390 . S
C2947 C2944 1.386 . S
C2948 C2943 1.490 . S
C2948 C2950 1.395 . S
C2948 C2951 1.403 . S
H2949 C2955 0.930 . S
C2950 H2936 0.930 . S
C2950 C2948 1.395 . S
C2950 C2953 1.403 . S
C2951 C2948 1.403 . S
C2951 C2952 1.524 . S
C2951 C2955 1.400 . S
C2952 H2937 0.960 . S
C2952 H2938 0.960 . S
C2952 H2939 0.960 . S
C2952 C2951 1.524 . S
C2953 C2950 1.403 . S
C2953 C2954 1.392 . S
C2953 C2957 1.495 . S
C2954 C2953 1.392 . S
C2954 C2955 1.385 . S
C2954 C2956 1.478 . S
C2955 H2949 0.930 . S
C2955 C2951 1.400 . S
C2955 C2954 1.385 . S
C2956 C2954 1.478 . S
C2956 C2958 1.381 . S
C2956 C2962 1.383 . S
C2957 C2953 1.495 . S
C2957 H2963 0.959 . S
C2957 H2964 0.961 . S
C2957 H2965 0.960 . S
C2958 C2956 1.381 . S
C2958 C2959 1.394 . S
C2958 H2966 0.930 . S
C2959 C2958 1.394 . S
C2959 C2960 1.383 . S
C2959 H2967 0.929 . S
C2960 C2959 1.383 . S
C2960 C2961 1.377 . S
C2961 H2945 0.930 . S
C2961 C2960 1.377 . S
C2961 C2962 1.379 . S
C2962 H2946 0.931 . S
C2962 C2956 1.383 . S
C2962 C2961 1.379 . S
H2963 C2957 0.959 . S
H2964 C2957 0.961 . S
H2965 C2957 0.960 . S
H2966 C2958 0.930 . S
H2967 C2959 0.929 . S
H2968 C2976 0.929 . S
H2969 C2978 0.930 . S
H2970 C2980 0.930 . S
H2971 C2983 0.929 . S
H2972 C2986 0.930 . S
H2973 C2988 0.960 . S
H2974 C2988 0.960 . S
H2975 C2988 0.960 . S
C2976 H2968 0.929 . S
C2976 C2977 1.377 . S
C2976 C2978 1.384 . S
C2977 C2976 1.377 . S
C2977 C2983 1.390 . S
C2978 H2969 0.930 . S
C2978 C2976 1.384 . S
C2978 C2979 1.372 . S
C2979 C2978 1.372 . S
C2979 C2980 1.400 . S
C2979 C2984 1.490 . S
C2980 H2970 0.930 . S
C2980 C2979 1.400 . S
C2980 C2983 1.386 . S
H2981 C2997 0.930 . S
H2982 C2998 0.931 1_455 S
C2983 H2971 0.929 . S
C2983 C2977 1.390 . S
C2983 C2980 1.386 . S
C2984 C2979 1.490 . S
C2984 C2986 1.395 . S
C2984 C2987 1.403 . S
H2985 C2991 0.930 . S
C2986 H2972 0.930 . S
C2986 C2984 1.395 . S
C2986 C2989 1.403 . S
C2987 C2984 1.403 . S
C2987 C2988 1.524 . S
C2987 C2991 1.400 . S
C2988 H2973 0.960 . S
C2988 H2974 0.960 . S
C2988 H2975 0.960 . S
C2988 C2987 1.524 . S
C2989 C2986 1.403 . S
C2989 C2990 1.392 . S
C2989 C2993 1.495 . S
C2990 C2989 1.392 . S
C2990 C2991 1.385 . S
C2990 C2992 1.478 . S
C2991 H2985 0.930 . S
C2991 C2987 1.400 . S
C2991 C2990 1.385 . S
C2992 C2990 1.478 . S
C2992 C2994 1.381 . S
C2992 C2998 1.383 . S
C2993 C2989 1.495 . S
C2993 H2999 0.959 . S
C2993 H3000 0.961 . S
C2993 H3001 0.960 . S
C2994 C2992 1.381 . S
C2994 C2995 1.394 . S
C2994 H3002 0.930 . S
C2995 C2994 1.394 . S
C2995 C2996 1.367 1_655 S
C2995 H3003 0.929 . S
C2996 C2995 1.367 1_455 S
C2996 C2997 1.382 . S
C2997 H2981 0.930 . S
C2997 C2996 1.382 . S
C2997 C2998 1.379 1_455 S
C2998 H2982 0.931 1_655 S
C2998 C2992 1.383 . S
C2998 C2997 1.379 1_655 S
H2999 C2993 0.959 . S
H3000 C2993 0.961 . S
H3001 C2993 0.960 . S
H3002 C2994 0.930 . S
H3003 C2995 0.929 . S
H3004 C3012 0.929 . S
H3005 C3014 0.930 . S
H3006 C3016 0.930 . S
H3007 C3019 0.929 . S
H3008 C3022 0.930 . S
H3009 C3024 0.960 . S
H3010 C3024 0.960 . S
H3011 C3024 0.960 . S
C3012 H3004 0.929 . S
C3012 C3013 1.377 . S
C3012 C3014 1.384 . S
C3013 C3012 1.377 . S
C3013 C3019 1.390 . S
C3014 H3005 0.930 . S
C3014 C3012 1.384 . S
C3014 C3015 1.372 . S
C3015 C3014 1.372 . S
C3015 C3016 1.400 . S
C3015 C3020 1.490 . S
C3016 H3006 0.930 . S
C3016 C3015 1.400 . S
C3016 C3019 1.386 . S
H3017 C3033 0.930 . S
H3018 C3034 0.931 . S
C3019 H3007 0.929 . S
C3019 C3013 1.390 . S
C3019 C3016 1.386 . S
C3020 C3015 1.490 . S
C3020 C3022 1.395 . S
C3020 C3023 1.403 . S
H3021 C3027 0.930 . S
C3022 H3008 0.930 . S
C3022 C3020 1.395 . S
C3022 C3025 1.403 . S
C3023 C3020 1.403 . S
C3023 C3024 1.524 . S
C3023 C3027 1.400 . S
C3024 H3009 0.960 . S
C3024 H3010 0.960 . S
C3024 H3011 0.960 . S
C3024 C3023 1.524 . S
C3025 C3022 1.403 . S
C3025 C3026 1.392 . S
C3025 C3029 1.495 . S
C3026 C3025 1.392 . S
C3026 C3027 1.385 . S
C3026 C3028 1.478 . S
C3027 H3021 0.930 . S
C3027 C3023 1.400 . S
C3027 C3026 1.385 . S
C3028 C3026 1.478 . S
C3028 C3030 1.381 . S
C3028 C3034 1.383 . S
C3029 C3025 1.495 . S
C3029 H3035 0.959 . S
C3029 H3036 0.961 . S
C3029 H3037 0.960 . S
C3030 C3028 1.381 . S
C3030 C3031 1.394 . S
C3030 H3038 0.930 . S
C3031 C3030 1.394 . S
C3031 C3032 1.383 . S
C3031 H3039 0.929 . S
C3032 C3031 1.383 . S
C3032 C3033 1.377 . S
C3033 H3017 0.930 . S
C3033 C3032 1.377 . S
C3033 C3034 1.379 . S
C3034 H3018 0.931 . S
C3034 C3028 1.383 . S
C3034 C3033 1.379 . S
H3035 C3029 0.959 . S
H3036 C3029 0.961 . S
H3037 C3029 0.960 . S
H3038 C3030 0.930 . S
H3039 C3031 0.929 . S
H3040 C3048 0.929 . S
H3041 C3050 0.930 . S
H3042 C3052 0.930 . S
H3043 C3055 0.929 . S
H3044 C3058 0.930 . S
H3045 C3060 0.960 . S
H3046 C3060 0.960 . S
H3047 C3060 0.960 . S
C3048 H3040 0.929 . S
C3048 C3049 1.377 . S
C3048 C3050 1.384 . S
C3049 C3048 1.377 . S
C3049 C3055 1.390 . S
C3050 H3041 0.930 . S
C3050 C3048 1.384 . S
C3050 C3051 1.372 . S
C3051 C3050 1.372 . S
C3051 C3052 1.400 . S
C3051 C3056 1.490 . S
C3052 H3042 0.930 . S
C3052 C3051 1.400 . S
C3052 C3055 1.386 . S
H3053 C3069 0.930 . S
H3054 C3070 0.931 . S
C3055 H3043 0.929 . S
C3055 C3049 1.390 . S
C3055 C3052 1.386 . S
C3056 C3051 1.490 . S
C3056 C3058 1.395 . S
C3056 C3059 1.403 . S
H3057 C3063 0.930 . S
C3058 H3044 0.930 . S
C3058 C3056 1.395 . S
C3058 C3061 1.403 . S
C3059 C3056 1.403 . S
C3059 C3060 1.524 . S
C3059 C3063 1.400 . S
C3060 H3045 0.960 . S
C3060 H3046 0.960 . S
C3060 H3047 0.960 . S
C3060 C3059 1.524 . S
C3061 C3058 1.403 . S
C3061 C3062 1.392 . S
C3061 C3065 1.495 . S
C3062 C3061 1.392 . S
C3062 C3063 1.385 . S
C3062 C3064 1.478 . S
C3063 H3057 0.930 . S
C3063 C3059 1.400 . S
C3063 C3062 1.385 . S
C3064 C3062 1.478 . S
C3064 C3066 1.381 . S
C3064 C3070 1.383 . S
C3065 C3061 1.495 . S
C3065 H3071 0.959 . S
C3065 H3072 0.961 . S
C3065 H3073 0.960 . S
C3066 C3064 1.381 . S
C3066 C3067 1.394 . S
C3066 H3074 0.930 . S
C3067 C3066 1.394 . S
C3067 C3068 1.383 . S
C3067 H3075 0.929 . S
C3068 C3067 1.383 . S
C3068 C3069 1.377 . S
C3069 H3053 0.930 . S
C3069 C3068 1.377 . S
C3069 C3070 1.379 . S
C3070 H3054 0.931 . S
C3070 C3064 1.383 . S
C3070 C3069 1.379 . S
H3071 C3065 0.959 . S
H3072 C3065 0.961 . S
H3073 C3065 0.960 . S
H3074 C3066 0.930 . S
H3075 C3067 0.929 . S
H3076 C3084 0.929 . S
H3077 C3086 0.930 . S
H3078 C3088 0.930 . S
H3079 C3091 0.929 . S
H3080 C3094 0.930 . S
H3081 C3096 0.960 . S
H3082 C3096 0.960 . S
H3083 C3096 0.960 . S
C3084 H3076 0.929 . S
C3084 C3085 1.377 . S
C3084 C3086 1.384 . S
C3085 C3084 1.377 . S
C3085 C3091 1.390 . S
C3086 H3077 0.930 . S
C3086 C3084 1.384 . S
C3086 C3087 1.372 . S
C3087 C3086 1.372 . S
C3087 C3088 1.400 . S
C3087 C3092 1.490 . S
C3088 H3078 0.930 . S
C3088 C3087 1.400 . S
C3088 C3091 1.386 . S
H3089 C3105 0.930 . S
H3090 C3106 0.931 . S
C3091 H3079 0.929 . S
C3091 C3085 1.390 . S
C3091 C3088 1.386 . S
C3092 C3087 1.490 . S
C3092 C3094 1.395 . S
C3092 C3095 1.403 . S
H3093 C3099 0.930 . S
C3094 H3080 0.930 . S
C3094 C3092 1.395 . S
C3094 C3097 1.403 . S
C3095 C3092 1.403 . S
C3095 C3096 1.524 . S
C3095 C3099 1.400 . S
C3096 H3081 0.960 . S
C3096 H3082 0.960 . S
C3096 H3083 0.960 . S
C3096 C3095 1.524 . S
C3097 C3094 1.403 . S
C3097 C3098 1.392 . S
C3097 C3101 1.495 . S
C3098 C3097 1.392 . S
C3098 C3099 1.385 . S
C3098 C3100 1.478 . S
C3099 H3093 0.930 . S
C3099 C3095 1.400 . S
C3099 C3098 1.385 . S
C3100 C3098 1.478 . S
C3100 C3102 1.381 . S
C3100 C3106 1.383 . S
C3101 C3097 1.495 . S
C3101 H3107 0.959 . S
C3101 H3108 0.961 . S
C3101 H3109 0.960 . S
C3102 C3100 1.381 . S
C3102 C3103 1.394 . S
C3102 H3110 0.930 . S
C3103 C3102 1.394 . S
C3103 C3104 1.383 . S
C3103 H3111 0.929 . S
C3104 C3103 1.383 . S
C3104 C3105 1.377 . S
C3105 H3089 0.930 . S
C3105 C3104 1.377 . S
C3105 C3106 1.379 . S
C3106 H3090 0.931 . S
C3106 C3100 1.383 . S
C3106 C3105 1.379 . S
H3107 C3101 0.959 . S
H3108 C3101 0.961 . S
H3109 C3101 0.960 . S
H3110 C3102 0.930 . S
H3111 C3103 0.929 . S
H3112 C3120 0.929 . S
H3113 C3122 0.930 . S
H3114 C3124 0.930 . S
H3115 C3127 0.929 . S
H3116 C3130 0.930 . S
H3117 C3132 0.960 . S
H3118 C3132 0.960 . S
H3119 C3132 0.960 . S
C3120 H3112 0.929 . S
C3120 C3121 1.377 . S
C3120 C3122 1.384 . S
C3121 C3120 1.377 . S
C3121 C3127 1.390 . S
C3122 H3113 0.930 . S
C3122 C3120 1.384 . S
C3122 C3123 1.372 . S
C3123 C3122 1.372 . S
C3123 C3124 1.400 . S
C3123 C3128 1.490 . S
C3124 H3114 0.930 . S
C3124 C3123 1.400 . S
C3124 C3127 1.386 . S
H3125 C3141 0.930 . S
H3126 C3142 0.931 . S
C3127 H3115 0.929 . S
C3127 C3121 1.390 . S
C3127 C3124 1.386 . S
C3128 C3123 1.490 . S
C3128 C3130 1.395 . S
C3128 C3131 1.403 . S
H3129 C3135 0.930 . S
C3130 H3116 0.930 . S
C3130 C3128 1.395 . S
C3130 C3133 1.403 . S
C3131 C3128 1.403 . S
C3131 C3132 1.524 . S
C3131 C3135 1.400 . S
C3132 H3117 0.960 . S
C3132 H3118 0.960 . S
C3132 H3119 0.960 . S
C3132 C3131 1.524 . S
C3133 C3130 1.403 . S
C3133 C3134 1.392 . S
C3133 C3137 1.495 . S
C3134 C3133 1.392 . S
C3134 C3135 1.385 . S
C3134 C3136 1.478 . S
C3135 H3129 0.930 . S
C3135 C3131 1.400 . S
C3135 C3134 1.385 . S
C3136 C3134 1.478 . S
C3136 C3138 1.381 . S
C3136 C3142 1.383 . S
C3137 C3133 1.495 . S
C3137 H3143 0.959 . S
C3137 H3144 0.961 . S
C3137 H3145 0.960 . S
C3138 C3136 1.381 . S
C3138 C3139 1.416 . S
C3138 H3146 0.930 . S
C3139 C3138 1.416 . S
C3139 C3140 1.410 . S
C3139 H3147 0.882 1_655 S
C3140 C3139 1.410 . S
C3140 C3141 1.377 . S
C3141 H3125 0.930 . S
C3141 C3140 1.377 . S
C3141 C3142 1.379 . S
C3142 H3126 0.931 . S
C3142 C3136 1.383 . S
C3142 C3141 1.379 . S
H3143 C3137 0.959 . S
H3144 C3137 0.961 . S
H3145 C3137 0.960 . S
H3146 C3138 0.930 . S
H3147 C3139 0.882 1_455 S
H3148 C3156 0.929 . S
H3149 C3158 0.930 . S
H3150 C3160 0.930 . S
H3151 C3163 0.929 . S
H3152 C3166 0.930 . S
H3153 C3168 0.960 . S
H3154 C3168 0.960 . S
H3155 C3168 0.960 . S
C3156 H3148 0.929 . S
C3156 C3157 1.377 . S
C3156 C3158 1.384 . S
C3157 C3156 1.377 . S
C3157 C3163 1.390 . S
C3158 H3149 0.930 . S
C3158 C3156 1.384 . S
C3158 C3159 1.372 . S
C3159 C3158 1.372 . S
C3159 C3160 1.400 . S
C3159 C3164 1.490 . S
C3160 H3150 0.930 . S
C3160 C3159 1.400 . S
C3160 C3163 1.386 . S
H3161 C3177 0.930 . S
H3162 C3178 0.931 . S
C3163 H3151 0.929 . S
C3163 C3157 1.390 . S
C3163 C3160 1.386 . S
C3164 C3159 1.490 . S
C3164 C3166 1.395 . S
C3164 C3167 1.403 . S
H3165 C3171 0.930 . S
C3166 H3152 0.930 . S
C3166 C3164 1.395 . S
C3166 C3169 1.403 . S
C3167 C3164 1.403 . S
C3167 C3168 1.524 . S
C3167 C3171 1.400 . S
C3168 H3153 0.960 . S
C3168 H3154 0.960 . S
C3168 H3155 0.960 . S
C3168 C3167 1.524 . S
C3169 C3166 1.403 . S
C3169 C3170 1.392 . S
C3169 C3173 1.495 . S
C3170 C3169 1.392 . S
C3170 C3171 1.385 . S
C3170 C3172 1.478 . S
C3171 H3165 0.930 . S
C3171 C3167 1.400 . S
C3171 C3170 1.385 . S
C3172 C3170 1.478 . S
C3172 C3174 1.381 . S
C3172 C3178 1.383 . S
C3173 C3169 1.495 . S
C3173 H3179 0.959 . S
C3173 H3180 0.961 . S
C3173 H3181 0.960 . S
C3174 C3172 1.381 . S
C3174 C3175 1.394 . S
C3174 H3182 0.930 . S
C3175 C3174 1.394 . S
C3175 C3176 1.383 . S
C3175 H3183 0.929 . S
C3176 C3175 1.383 . S
C3176 C3177 1.377 . S
C3177 H3161 0.930 . S
C3177 C3176 1.377 . S
C3177 C3178 1.379 . S
C3178 H3162 0.931 . S
C3178 C3172 1.383 . S
C3178 C3177 1.379 . S
H3179 C3173 0.959 . S
H3180 C3173 0.961 . S
H3181 C3173 0.960 . S
H3182 C3174 0.930 . S
H3183 C3175 0.929 . S
H3184 C3192 0.929 . S
H3185 C3194 0.930 . S
H3186 C3196 0.930 . S
H3187 C3199 0.929 . S
H3188 C3202 0.930 . S
H3189 C3204 0.960 . S
H3190 C3204 0.960 . S
H3191 C3204 0.960 . S
C3192 H3184 0.929 . S
C3192 C3193 1.377 . S
C3192 C3194 1.384 . S
C3193 C3192 1.377 . S
C3193 C3199 1.390 . S
C3194 H3185 0.930 . S
C3194 C3192 1.384 . S
C3194 C3195 1.372 . S
C3195 C3194 1.372 . S
C3195 C3196 1.400 . S
C3195 C3200 1.490 . S
C3196 H3186 0.930 . S
C3196 C3195 1.400 . S
C3196 C3199 1.386 . S
H3197 C3213 0.930 . S
H3198 C3214 0.931 . S
C3199 H3187 0.929 . S
C3199 C3193 1.390 . S
C3199 C3196 1.386 . S
C3200 C3195 1.490 . S
C3200 C3202 1.395 . S
C3200 C3203 1.403 . S
H3201 C3207 0.930 . S
C3202 H3188 0.930 . S
C3202 C3200 1.395 . S
C3202 C3205 1.403 . S
C3203 C3200 1.403 . S
C3203 C3204 1.524 . S
C3203 C3207 1.400 . S
C3204 H3189 0.960 . S
C3204 H3190 0.960 . S
C3204 H3191 0.960 . S
C3204 C3203 1.524 . S
C3205 C3202 1.403 . S
C3205 C3206 1.392 . S
C3205 C3209 1.495 . S
C3206 C3205 1.392 . S
C3206 C3207 1.385 . S
C3206 C3208 1.478 . S
C3207 H3201 0.930 . S
C3207 C3203 1.400 . S
C3207 C3206 1.385 . S
C3208 C3206 1.478 . S
C3208 C3210 1.381 . S
C3208 C3214 1.383 . S
C3209 C3205 1.495 . S
C3209 H3215 0.959 . S
C3209 H3216 0.961 . S
C3209 H3217 0.960 . S
C3210 C3208 1.381 . S
C3210 C3211 1.394 . S
C3210 H3218 0.930 . S
C3211 C3210 1.394 . S
C3211 C3212 1.383 . S
C3211 H3219 0.929 . S
C3212 C3211 1.383 . S
C3212 C3213 1.377 . S
C3213 H3197 0.930 . S
C3213 C3212 1.377 . S
C3213 C3214 1.379 . S
C3214 H3198 0.931 . S
C3214 C3208 1.383 . S
C3214 C3213 1.379 . S
H3215 C3209 0.959 . S
H3216 C3209 0.961 . S
H3217 C3209 0.960 . S
H3218 C3210 0.930 . S
H3219 C3211 0.929 . S
H3220 C3228 0.929 . S
H3221 C3230 0.930 . S
H3222 C3232 0.930 . S
H3223 C3235 0.929 . S
H3224 C3238 0.930 . S
H3225 C3240 0.960 . S
H3226 C3240 0.960 . S
H3227 C3240 0.960 . S
C3228 H3220 0.929 . S
C3228 C3229 1.377 . S
C3228 C3230 1.384 . S
C3229 C3228 1.377 . S
C3229 C3235 1.390 . S
C3230 H3221 0.930 . S
C3230 C3228 1.384 . S
C3230 C3231 1.372 . S
C3231 C3230 1.372 . S
C3231 C3232 1.400 . S
C3231 C3236 1.490 . S
C3232 H3222 0.930 . S
C3232 C3231 1.400 . S
C3232 C3235 1.386 . S
H3233 C3249 0.930 1_545 S
H3234 C3250 0.931 . S
C3235 H3223 0.929 . S
C3235 C3229 1.390 . S
C3235 C3232 1.386 . S
C3236 C3231 1.490 . S
C3236 C3238 1.395 . S
C3236 C3239 1.403 . S
H3237 C3243 0.930 . S
C3238 H3224 0.930 . S
C3238 C3236 1.395 . S
C3238 C3241 1.403 . S
C3239 C3236 1.403 . S
C3239 C3240 1.524 . S
C3239 C3243 1.400 . S
C3240 H3225 0.960 . S
C3240 H3226 0.960 . S
C3240 H3227 0.960 . S
C3240 C3239 1.524 . S
C3241 C3238 1.403 . S
C3241 C3242 1.392 . S
C3241 C3245 1.495 . S
C3242 C3241 1.392 . S
C3242 C3243 1.385 . S
C3242 C3244 1.478 . S
C3243 H3237 0.930 . S
C3243 C3239 1.400 . S
C3243 C3242 1.385 . S
C3244 C3242 1.478 . S
C3244 C3246 1.381 . S
C3244 C3250 1.383 . S
C3245 C3241 1.495 . S
C3245 H3251 0.959 . S
C3245 H3252 0.961 . S
C3245 H3253 0.960 . S
C3246 C3244 1.381 . S
C3246 C3247 1.394 . S
C3246 H3254 0.930 . S
C3247 C3246 1.394 . S
C3247 C3248 1.383 . S
C3247 H3255 0.929 . S
C3248 C3247 1.383 . S
C3248 C3249 1.377 . S
C3249 H3233 0.930 1_565 S
C3249 C3248 1.377 . S
C3249 C3250 1.379 . S
C3250 H3234 0.931 . S
C3250 C3244 1.383 . S
C3250 C3249 1.379 . S
H3251 C3245 0.959 . S
H3252 C3245 0.961 . S
H3253 C3245 0.960 . S
H3254 C3246 0.930 . S
H3255 C3247 0.929 . S
H3256 C3264 0.929 . S
H3257 C3266 0.930 . S
H3258 C3268 0.930 . S
H3259 C3271 0.929 . S
H3260 C3274 0.930 . S
H3261 C3276 0.960 . S
H3262 C3276 0.960 . S
H3263 C3276 0.960 . S
C3264 H3256 0.929 . S
C3264 C3265 1.377 . S
C3264 C3266 1.384 . S
C3265 C3264 1.377 . S
C3265 C3271 1.390 . S
C3266 H3257 0.930 . S
C3266 C3264 1.384 . S
C3266 C3267 1.372 . S
C3267 C3266 1.372 . S
C3267 C3268 1.400 . S
C3267 C3272 1.490 . S
C3268 H3258 0.930 . S
C3268 C3267 1.400 . S
C3268 C3271 1.386 . S
H3269 C3285 0.930 . S
H3270 C3286 0.931 . S
C3271 H3259 0.929 . S
C3271 C3265 1.390 . S
C3271 C3268 1.386 . S
C3272 C3267 1.490 . S
C3272 C3274 1.395 . S
C3272 C3275 1.403 . S
H3273 C3279 0.930 . S
C3274 H3260 0.930 . S
C3274 C3272 1.395 . S
C3274 C3277 1.403 . S
C3275 C3272 1.403 . S
C3275 C3276 1.524 . S
C3275 C3279 1.400 . S
C3276 H3261 0.960 . S
C3276 H3262 0.960 . S
C3276 H3263 0.960 . S
C3276 C3275 1.524 . S
C3277 C3274 1.403 . S
C3277 C3278 1.392 . S
C3277 C3281 1.495 . S
C3278 C3277 1.392 . S
C3278 C3279 1.385 . S
C3278 C3280 1.478 . S
C3279 H3273 0.930 . S
C3279 C3275 1.400 . S
C3279 C3278 1.385 . S
C3280 C3278 1.478 . S
C3280 C3282 1.381 . S
C3280 C3286 1.383 . S
C3281 C3277 1.495 . S
C3281 H3287 0.959 . S
C3281 H3288 0.961 . S
C3281 H3289 0.960 . S
C3282 C3280 1.381 . S
C3282 C3283 1.394 . S
C3282 H3290 0.930 . S
C3283 C3282 1.394 . S
C3283 C3284 1.383 . S
C3283 H3291 0.929 . S
C3284 C3283 1.383 . S
C3284 C3285 1.377 . S
C3285 H3269 0.930 . S
C3285 C3284 1.377 . S
C3285 C3286 1.379 . S
C3286 H3270 0.931 . S
C3286 C3280 1.383 . S
C3286 C3285 1.379 . S
H3287 C3281 0.959 . S
H3288 C3281 0.961 . S
H3289 C3281 0.960 . S
H3290 C3282 0.930 . S
H3291 C3283 0.929 . S
H3292 C3300 0.929 . S
H3293 C3302 0.930 . S
H3294 C3304 0.930 . S
H3295 C3307 0.929 . S
H3296 C3310 0.930 1_556 S
H3297 C3312 0.960 . S
H3298 C3312 0.960 . S
H3299 C3312 0.960 . S
C3300 H3292 0.929 . S
C3300 C3301 1.377 . S
C3300 C3302 1.384 . S
C3301 C3300 1.377 . S
C3301 C3307 1.390 . S
C3302 H3293 0.930 . S
C3302 C3300 1.384 . S
C3302 C3303 1.372 . S
C3303 C3302 1.372 . S
C3303 C3304 1.400 . S
C3303 C3308 1.490 . S
C3304 H3294 0.930 . S
C3304 C3303 1.400 . S
C3304 C3307 1.386 . S
H3305 C3321 0.930 . S
H3306 C3322 0.931 . S
C3307 H3295 0.929 . S
C3307 C3301 1.390 . S
C3307 C3304 1.386 . S
C3308 C3303 1.490 . S
C3308 C3310 1.395 . S
C3308 C3311 1.403 . S
H3309 C3315 0.930 . S
C3310 H3296 0.930 1_554 S
C3310 C3308 1.395 . S
C3310 C3313 1.403 . S
C3311 C3308 1.403 . S
C3311 C3312 1.524 . S
C3311 C3315 1.400 . S
C3312 H3297 0.960 . S
C3312 H3298 0.960 . S
C3312 H3299 0.960 . S
C3312 C3311 1.524 . S
C3313 C3310 1.403 . S
C3313 C3314 1.392 . S
C3313 C3317 1.495 1_554 S
C3314 C3313 1.392 . S
C3314 C3315 1.385 . S
C3314 C3316 1.478 . S
C3315 H3309 0.930 . S
C3315 C3311 1.400 . S
C3315 C3314 1.385 . S
C3316 C3314 1.478 . S
C3316 C3318 1.381 . S
C3316 C3322 1.383 . S
C3317 C3313 1.495 1_556 S
C3317 H3323 0.959 . S
C3317 H3324 0.961 . S
C3317 H3325 0.960 . S
C3318 C3316 1.381 . S
C3318 C3319 1.394 . S
C3318 H3326 0.930 . S
C3319 C3318 1.394 . S
C3319 C3320 1.383 . S
C3319 H3327 0.906 1_545 S
C3320 C3319 1.383 . S
C3320 C3321 1.377 . S
C3321 H3305 0.930 . S
C3321 C3320 1.377 . S
C3321 C3322 1.379 . S
C3322 H3306 0.931 . S
C3322 C3316 1.383 . S
C3322 C3321 1.379 . S
H3323 C3317 0.959 . S
H3324 C3317 0.961 . S
H3325 C3317 0.960 . S
H3326 C3318 0.930 . S
H3327 C3319 0.906 1_565 S
H3328 C3336 0.929 . S
H3329 C3338 0.930 . S
H3330 C3340 0.930 . S
H3331 C3343 0.929 . S
H3332 C3346 0.930 . S
H3333 C3348 0.960 . S
H3334 C3348 0.960 . S
H3335 C3348 0.960 . S
C3336 H3328 0.929 . S
C3336 C3337 1.377 . S
C3336 C3338 1.384 . S
C3337 C3336 1.377 . S
C3337 C3343 1.390 . S
C3338 H3329 0.930 . S
C3338 C3336 1.384 . S
C3338 C3339 1.372 . S
C3339 C3338 1.372 . S
C3339 C3340 1.400 . S
C3339 C3344 1.490 . S
C3340 H3330 0.930 . S
C3340 C3339 1.400 . S
C3340 C3343 1.386 . S
H3341 C3357 0.930 . S
H3342 C3358 0.931 . S
C3343 H3331 0.929 . S
C3343 C3337 1.390 . S
C3343 C3340 1.386 . S
C3344 C3339 1.490 . S
C3344 C3346 1.395 . S
C3344 C3347 1.403 . S
H3345 C3351 0.930 . S
C3346 H3332 0.930 . S
C3346 C3344 1.395 . S
C3346 C3349 1.403 . S
C3347 C3344 1.403 . S
C3347 C3348 1.524 . S
C3347 C3351 1.400 . S
C3348 H3333 0.960 . S
C3348 H3334 0.960 . S
C3348 H3335 0.960 . S
C3348 C3347 1.524 . S
C3349 C3346 1.403 . S
C3349 C3350 1.392 . S
C3349 C3353 1.495 . S
C3350 C3349 1.392 . S
C3350 C3351 1.385 . S
C3350 C3352 1.478 . S
C3351 H3345 0.930 . S
C3351 C3347 1.400 . S
C3351 C3350 1.385 . S
C3352 C3350 1.478 . S
C3352 C3354 1.381 . S
C3352 C3358 1.383 . S
C3353 C3349 1.495 . S
C3353 H3359 0.959 . S
C3353 H3360 0.961 . S
C3353 H3361 0.960 . S
C3354 C3352 1.381 . S
C3354 C3355 1.394 . S
C3354 H3362 0.930 . S
C3355 C3354 1.394 . S
C3355 C3356 1.383 . S
C3355 H3363 0.929 . S
C3356 C3355 1.383 . S
C3356 C3357 1.377 . S
C3357 H3341 0.930 . S
C3357 C3356 1.377 . S
C3357 C3358 1.379 . S
C3358 H3342 0.931 . S
C3358 C3352 1.383 . S
C3358 C3357 1.379 . S
H3359 C3353 0.959 . S
H3360 C3353 0.961 . S
H3361 C3353 0.960 . S
H3362 C3354 0.930 . S
H3363 C3355 0.929 . S
H3364 C3372 0.929 . S
H3365 C3374 0.930 . S
H3366 C3376 0.930 . S
H3367 C3379 0.929 . S
H3368 C3382 0.930 . S
H3369 C3384 0.960 . S
H3370 C3384 0.960 . S
H3371 C3384 0.960 . S
C3372 H3364 0.929 . S
C3372 C3373 1.377 . S
C3372 C3374 1.384 . S
C3373 C3372 1.377 . S
C3373 C3379 1.390 . S
C3374 H3365 0.930 . S
C3374 C3372 1.384 . S
C3374 C3375 1.372 . S
C3375 C3374 1.372 . S
C3375 C3376 1.400 . S
C3375 C3380 1.490 . S
C3376 H3366 0.930 . S
C3376 C3375 1.400 . S
C3376 C3379 1.386 . S
H3377 C3393 0.930 . S
H3378 C3394 0.931 . S
C3379 H3367 0.929 . S
C3379 C3373 1.390 . S
C3379 C3376 1.386 . S
C3380 C3375 1.490 . S
C3380 C3382 1.395 . S
C3380 C3383 1.403 . S
H3381 C3387 0.930 . S
C3382 H3368 0.930 . S
C3382 C3380 1.395 . S
C3382 C3385 1.403 . S
C3383 C3380 1.403 . S
C3383 C3384 1.524 . S
C3383 C3387 1.400 . S
C3384 H3369 0.960 . S
C3384 H3370 0.960 . S
C3384 H3371 0.960 . S
C3384 C3383 1.524 . S
C3385 C3382 1.403 . S
C3385 C3386 1.392 . S
C3385 C3389 1.495 . S
C3386 C3385 1.392 . S
C3386 C3387 1.385 . S
C3386 C3388 1.478 . S
C3387 H3381 0.930 . S
C3387 C3383 1.400 . S
C3387 C3386 1.385 . S
C3388 C3386 1.478 . S
C3388 C3390 1.381 . S
C3388 C3394 1.383 . S
C3389 C3385 1.495 . S
C3389 H3395 0.959 . S
C3389 H3396 0.961 . S
C3389 H3397 0.960 . S
C3390 C3388 1.381 . S
C3390 C3391 1.394 . S
C3390 H3398 0.930 1_554 S
C3391 C3390 1.394 . S
C3391 C3392 1.381 . S
C3391 H3399 0.932 1_554 S
C3392 C3391 1.381 . S
C3392 C3393 1.377 . S
C3393 H3377 0.930 . S
C3393 C3392 1.377 . S
C3393 C3394 1.379 . S
C3394 H3378 0.931 . S
C3394 C3388 1.383 . S
C3394 C3393 1.379 . S
H3395 C3389 0.959 . S
H3396 C3389 0.961 . S
H3397 C3389 0.960 . S
H3398 C3390 0.930 1_556 S
H3399 C3391 0.932 1_556 S
H3400 C3408 0.929 . S
H3401 C3410 0.930 . S
H3402 C3412 0.930 . S
H3403 C3415 0.929 . S
H3404 C3418 0.930 . S
H3405 C3420 0.960 . S
H3406 C3420 0.960 . S
H3407 C3420 0.960 . S
C3408 H3400 0.929 . S
C3408 C3409 1.377 . S
C3408 C3410 1.384 . S
C3409 C3408 1.377 . S
C3409 C3415 1.390 . S
C3410 H3401 0.930 . S
C3410 C3408 1.384 . S
C3410 C3411 1.372 . S
C3411 C3410 1.372 . S
C3411 C3412 1.400 . S
C3411 C3416 1.490 . S
C3412 H3402 0.930 . S
C3412 C3411 1.400 . S
C3412 C3415 1.386 . S
H3413 C3429 0.930 . S
H3414 C3430 0.931 . S
C3415 H3403 0.929 . S
C3415 C3409 1.390 . S
C3415 C3412 1.386 . S
C3416 C3411 1.490 . S
C3416 C3418 1.395 . S
C3416 C3419 1.403 . S
H3417 C3423 0.930 . S
C3418 H3404 0.930 . S
C3418 C3416 1.395 . S
C3418 C3421 1.403 . S
C3419 C3416 1.403 . S
C3419 C3420 1.524 . S
C3419 C3423 1.400 . S
C3420 H3405 0.960 . S
C3420 H3406 0.960 . S
C3420 H3407 0.960 . S
C3420 C3419 1.524 . S
C3421 C3418 1.403 . S
C3421 C3422 1.392 . S
C3421 C3425 1.495 . S
C3422 C3421 1.392 . S
C3422 C3423 1.385 . S
C3422 C3424 1.478 . S
C3423 H3417 0.930 . S
C3423 C3419 1.400 . S
C3423 C3422 1.385 . S
C3424 C3422 1.478 . S
C3424 C3426 1.381 . S
C3424 C3430 1.383 . S
C3425 C3421 1.495 . S
C3425 H3431 0.959 . S
C3425 H3432 0.961 . S
C3425 H3433 0.960 . S
C3426 C3424 1.381 . S
C3426 C3427 1.394 . S
C3426 H3434 0.930 . S
C3427 C3426 1.394 . S
C3427 C3428 1.383 . S
C3427 H3435 0.929 . S
C3428 C3427 1.383 . S
C3428 C3429 1.377 . S
C3429 H3413 0.930 . S
C3429 C3428 1.377 . S
C3429 C3430 1.379 . S
C3430 H3414 0.931 . S
C3430 C3424 1.383 . S
C3430 C3429 1.379 . S
H3431 C3425 0.959 . S
H3432 C3425 0.961 . S
H3433 C3425 0.960 . S
H3434 C3426 0.930 . S
H3435 C3427 0.929 . S
H3436 C3444 0.929 . S
H3437 C3446 0.930 . S
H3438 C3448 0.930 . S
H3439 C3451 0.929 . S
H3440 C3454 0.930 . S
H3441 C3456 0.960 . S
H3442 C3456 0.960 . S
H3443 C3456 0.960 . S
C3444 H3436 0.929 . S
C3444 C3445 1.377 . S
C3444 C3446 1.384 . S
C3445 C3444 1.377 . S
C3445 C3451 1.390 . S
C3446 H3437 0.930 . S
C3446 C3444 1.384 . S
C3446 C3447 1.372 . S
C3447 C3446 1.372 . S
C3447 C3448 1.400 . S
C3447 C3452 1.490 . S
C3448 H3438 0.930 . S
C3448 C3447 1.400 . S
C3448 C3451 1.386 . S
H3449 C3465 0.930 . S
H3450 C3466 0.931 . S
C3451 H3439 0.929 . S
C3451 C3445 1.390 . S
C3451 C3448 1.386 . S
C3452 C3447 1.490 . S
C3452 C3454 1.395 . S
C3452 C3455 1.403 . S
H3453 C3459 0.930 . S
C3454 H3440 0.930 . S
C3454 C3452 1.395 . S
C3454 C3457 1.403 . S
C3455 C3452 1.403 . S
C3455 C3456 1.524 . S
C3455 C3459 1.400 . S
C3456 H3441 0.960 . S
C3456 H3442 0.960 . S
C3456 H3443 0.960 . S
C3456 C3455 1.524 . S
C3457 C3454 1.403 . S
C3457 C3458 1.392 . S
C3457 C3461 1.495 . S
C3458 C3457 1.392 . S
C3458 C3459 1.385 . S
C3458 C3460 1.478 . S
C3459 H3453 0.930 . S
C3459 C3455 1.400 . S
C3459 C3458 1.385 . S
C3460 C3458 1.478 . S
C3460 C3462 1.381 . S
C3460 C3466 1.383 . S
C3461 C3457 1.495 . S
C3461 H3467 0.959 . S
C3461 H3468 0.961 . S
C3461 H3469 0.960 . S
C3462 C3460 1.381 . S
C3462 C3463 1.394 . S
C3462 H3470 0.930 . S
C3463 C3462 1.394 . S
C3463 C3464 1.383 . S
C3463 H3471 0.929 . S
C3464 C3463 1.383 . S
C3464 C3465 1.377 . S
C3465 H3449 0.930 . S
C3465 C3464 1.377 . S
C3465 C3466 1.379 . S
C3466 H3450 0.931 . S
C3466 C3460 1.383 . S
C3466 C3465 1.379 . S
H3467 C3461 0.959 . S
H3468 C3461 0.961 . S
H3469 C3461 0.960 . S
H3470 C3462 0.930 . S
H3471 C3463 0.929 . S
H3472 C3480 0.929 . S
H3473 C3482 0.930 . S
H3474 C3484 0.930 . S
H3475 C3487 0.929 . S
H3476 C3490 0.930 . S
H3477 C3492 0.960 . S
H3478 C3492 0.960 . S
H3479 C3492 0.960 . S
C3480 H3472 0.929 . S
C3480 C3481 1.377 . S
C3480 C3482 1.384 . S
C3481 C3480 1.377 . S
C3481 C3487 1.390 . S
C3482 H3473 0.930 . S
C3482 C3480 1.384 . S
C3482 C3483 1.372 . S
C3483 C3482 1.372 . S
C3483 C3484 1.400 . S
C3483 C3488 1.490 . S
C3484 H3474 0.930 . S
C3484 C3483 1.400 . S
C3484 C3487 1.386 . S
H3485 C3501 0.930 . S
H3486 C3502 0.931 . S
C3487 H3475 0.929 . S
C3487 C3481 1.390 . S
C3487 C3484 1.386 . S
C3488 C3483 1.490 . S
C3488 C3490 1.395 . S
C3488 C3491 1.403 . S
H3489 C3495 0.930 . S
C3490 H3476 0.930 . S
C3490 C3488 1.395 . S
C3490 C3493 1.403 . S
C3491 C3488 1.403 . S
C3491 C3492 1.524 . S
C3491 C3495 1.400 . S
C3492 H3477 0.960 . S
C3492 H3478 0.960 . S
C3492 H3479 0.960 . S
C3492 C3491 1.524 . S
C3493 C3490 1.403 . S
C3493 C3494 1.392 . S
C3493 C3497 1.495 . S
C3494 C3493 1.392 . S
C3494 C3495 1.385 . S
C3494 C3496 1.478 . S
C3495 H3489 0.930 . S
C3495 C3491 1.400 . S
C3495 C3494 1.385 . S
C3496 C3494 1.478 . S
C3496 C3498 1.381 . S
C3496 C3502 1.383 . S
C3497 C3493 1.495 . S
C3497 H3503 0.959 . S
C3497 H3504 0.961 . S
C3497 H3505 0.960 . S
C3498 C3496 1.381 . S
C3498 C3499 1.394 . S
C3498 H3506 0.930 . S
C3499 C3498 1.394 . S
C3499 C3500 1.383 . S
C3499 H3507 0.929 . S
C3500 C3499 1.383 . S
C3500 C3501 1.377 . S
C3501 H3485 0.930 . S
C3501 C3500 1.377 . S
C3501 C3502 1.379 . S
C3502 H3486 0.931 . S
C3502 C3496 1.383 . S
C3502 C3501 1.379 . S
H3503 C3497 0.959 . S
H3504 C3497 0.961 . S
H3505 C3497 0.960 . S
H3506 C3498 0.930 . S
H3507 C3499 0.929 . S
H3508 C3516 0.929 . S
H3509 C3518 0.930 . S
H3510 C3520 0.930 . S
H3511 C3523 0.929 . S
H3512 C3526 0.930 . S
H3513 C3528 0.960 . S
H3514 C3528 0.960 . S
H3515 C3528 0.960 . S
C3516 H3508 0.929 . S
C3516 C3517 1.377 . S
C3516 C3518 1.384 . S
C3517 C3516 1.377 . S
C3517 C3523 1.390 . S
C3518 H3509 0.930 . S
C3518 C3516 1.384 . S
C3518 C3519 1.372 . S
C3519 C3518 1.372 . S
C3519 C3520 1.400 . S
C3519 C3524 1.490 . S
C3520 H3510 0.930 . S
C3520 C3519 1.400 . S
C3520 C3523 1.386 . S
H3521 C3537 0.930 . S
H3522 C3538 0.931 . S
C3523 H3511 0.929 . S
C3523 C3517 1.390 . S
C3523 C3520 1.386 . S
C3524 C3519 1.490 . S
C3524 C3526 1.395 . S
C3524 C3527 1.403 . S
H3525 C3531 0.930 . S
C3526 H3512 0.930 . S
C3526 C3524 1.395 . S
C3526 C3529 1.403 . S
C3527 C3524 1.403 . S
C3527 C3528 1.524 . S
C3527 C3531 1.400 . S
C3528 H3513 0.960 . S
C3528 H3514 0.960 . S
C3528 H3515 0.960 . S
C3528 C3527 1.524 . S
C3529 C3526 1.403 . S
C3529 C3530 1.392 . S
C3529 C3533 1.495 . S
C3530 C3529 1.392 . S
C3530 C3531 1.385 . S
C3530 C3532 1.478 . S
C3531 H3525 0.930 . S
C3531 C3527 1.400 . S
C3531 C3530 1.385 . S
C3532 C3530 1.478 . S
C3532 C3534 1.381 . S
C3532 C3538 1.383 . S
C3533 C3529 1.495 . S
C3533 H3539 0.959 . S
C3533 H3540 0.961 . S
C3533 H3541 0.960 . S
C3534 C3532 1.381 . S
C3534 C3535 1.394 . S
C3534 H3542 0.930 . S
C3535 C3534 1.394 . S
C3535 C3536 1.383 . S
C3535 H3543 0.929 . S
C3536 C3535 1.383 . S
C3536 C3537 1.377 . S
C3537 H3521 0.930 . S
C3537 C3536 1.377 . S
C3537 C3538 1.379 . S
C3538 H3522 0.931 . S
C3538 C3532 1.383 . S
C3538 C3537 1.379 . S
H3539 C3533 0.959 . S
H3540 C3533 0.961 . S
H3541 C3533 0.960 . S
H3542 C3534 0.930 . S
H3543 C3535 0.929 . S
H3544 C3552 0.929 . S
H3545 C3554 0.930 . S
H3546 C3556 0.930 . S
H3547 C3559 0.929 . S
H3548 C3562 0.930 . S
H3549 C3564 0.960 . S
H3550 C3564 0.960 . S
H3551 C3564 0.960 . S
C3552 H3544 0.929 . S
C3552 C3553 1.376 . S
C3552 C3554 1.384 . S
C3553 C3552 1.376 . S
C3553 C3559 1.391 1_455 S
C3554 H3545 0.930 . S
C3554 C3552 1.384 . S
C3554 C3555 1.365 1_455 S
C3555 C3554 1.365 1_655 S
C3555 C3556 1.407 . S
C3555 C3560 1.490 . S
C3556 H3546 0.930 . S
C3556 C3555 1.407 . S
C3556 C3559 1.386 . S
H3557 C3573 0.930 1_554 S
H3558 C3574 0.931 . S
C3559 H3547 0.929 . S
C3559 C3553 1.391 1_655 S
C3559 C3556 1.386 . S
C3560 C3555 1.490 . S
C3560 C3562 1.393 1_655 S
C3560 C3563 1.404 . S
H3561 C3567 0.930 . S
C3562 H3548 0.930 . S
C3562 C3560 1.393 1_455 S
C3562 C3565 1.403 . S
C3563 C3560 1.404 . S
C3563 C3564 1.524 . S
C3563 C3567 1.400 . S
C3564 H3549 0.960 . S
C3564 H3550 0.960 . S
C3564 H3551 0.960 . S
C3564 C3563 1.524 . S
C3565 C3562 1.403 . S
C3565 C3566 1.392 . S
C3565 C3569 1.495 . S
C3566 C3565 1.392 . S
C3566 C3567 1.385 1_455 S
C3566 C3568 1.478 . S
C3567 H3561 0.930 . S
C3567 C3563 1.400 . S
C3567 C3566 1.385 1_655 S
C3568 C3566 1.478 . S
C3568 C3570 1.381 . S
C3568 C3574 1.383 1_455 S
C3569 C3565 1.495 . S
C3569 H3575 0.959 . S
C3569 H3576 0.961 . S
C3569 H3577 0.960 . S
C3570 C3568 1.381 . S
C3570 C3571 1.394 . S
C3570 H3578 0.930 . S
C3571 C3570 1.394 . S
C3571 C3572 1.383 1_455 S
C3571 H3579 0.929 . S
C3572 C3571 1.383 1_655 S
C3572 C3573 1.377 . S
C3573 H3557 0.930 1_556 S
C3573 C3572 1.377 . S
C3573 C3574 1.379 . S
C3574 H3558 0.931 . S
C3574 C3568 1.383 1_655 S
C3574 C3573 1.379 . S
H3575 C3569 0.959 . S
H3576 C3569 0.961 . S
H3577 C3569 0.960 . S
H3578 C3570 0.930 . S
H3579 C3571 0.929 . S
H3580 C3588 0.929 . S
H3581 C3590 0.930 . S
H3582 C3592 0.930 . S
H3583 C3595 0.929 . S
H3584 C3598 0.930 . S
H3585 C3600 0.960 . S
H3586 C3600 0.960 . S
H3587 C3600 0.960 . S
C3588 H3580 0.929 . S
C3588 C3589 1.377 . S
C3588 C3590 1.384 . S
C3589 C3588 1.377 . S
C3589 C3595 1.390 . S
C3590 H3581 0.930 . S
C3590 C3588 1.384 . S
C3590 C3591 1.372 . S
C3591 C3590 1.372 . S
C3591 C3592 1.400 . S
C3591 C3596 1.490 . S
C3592 H3582 0.930 . S
C3592 C3591 1.400 . S
C3592 C3595 1.386 . S
H3593 C3609 0.930 . S
H3594 C3610 0.931 . S
C3595 H3583 0.929 . S
C3595 C3589 1.390 . S
C3595 C3592 1.386 . S
C3596 C3591 1.490 . S
C3596 C3598 1.395 . S
C3596 C3599 1.403 . S
H3597 C3603 0.930 . S
C3598 H3584 0.930 . S
C3598 C3596 1.395 . S
C3598 C3601 1.403 . S
C3599 C3596 1.403 . S
C3599 C3600 1.524 . S
C3599 C3603 1.400 . S
C3600 H3585 0.960 . S
C3600 H3586 0.960 . S
C3600 H3587 0.960 . S
C3600 C3599 1.524 . S
C3601 C3598 1.403 . S
C3601 C3602 1.392 . S
C3601 C3605 1.495 . S
C3602 C3601 1.392 . S
C3602 C3603 1.385 . S
C3602 C3604 1.478 . S
C3603 H3597 0.930 . S
C3603 C3599 1.400 . S
C3603 C3602 1.385 . S
C3604 C3602 1.478 . S
C3604 C3606 1.381 . S
C3604 C3610 1.383 . S
C3605 C3601 1.495 . S
C3605 H3611 0.959 . S
C3605 H3612 0.961 . S
C3605 H3613 0.960 . S
C3606 C3604 1.381 . S
C3606 C3607 1.394 . S
C3606 H3614 0.930 . S
C3607 C3606 1.394 . S
C3607 C3608 1.383 . S
C3607 H3615 0.929 . S
C3608 C3607 1.383 . S
C3608 C3609 1.377 . S
C3609 H3593 0.930 . S
C3609 C3608 1.377 . S
C3609 C3610 1.379 . S
C3610 H3594 0.931 . S
C3610 C3604 1.383 . S
C3610 C3609 1.379 . S
H3611 C3605 0.959 . S
H3612 C3605 0.961 . S
H3613 C3605 0.960 . S
H3614 C3606 0.930 . S
H3615 C3607 0.929 . S
H3616 C3624 0.929 . S
H3617 C3626 0.930 . S
H3618 C3628 0.930 . S
H3619 C3631 0.929 . S
H3620 C3634 0.930 . S
H3621 C3636 0.960 . S
H3622 C3636 0.960 . S
H3623 C3636 0.960 . S
C3624 H3616 0.929 . S
C3624 C3625 1.377 . S
C3624 C3626 1.384 . S
C3625 C3624 1.377 . S
C3625 C3631 1.390 . S
C3626 H3617 0.930 . S
C3626 C3624 1.384 . S
C3626 C3627 1.372 . S
C3627 C3626 1.372 . S
C3627 C3628 1.400 . S
C3627 C3632 1.490 . S
C3628 H3618 0.930 . S
C3628 C3627 1.400 . S
C3628 C3631 1.386 . S
H3629 C3645 0.930 . S
H3630 C3646 0.931 . S
C3631 H3619 0.929 . S
C3631 C3625 1.390 . S
C3631 C3628 1.386 . S
C3632 C3627 1.490 . S
C3632 C3634 1.395 . S
C3632 C3635 1.403 . S
H3633 C3639 0.930 . S
C3634 H3620 0.930 . S
C3634 C3632 1.395 . S
C3634 C3637 1.403 . S
C3635 C3632 1.403 . S
C3635 C3636 1.524 . S
C3635 C3639 1.400 . S
C3636 H3621 0.960 . S
C3636 H3622 0.960 . S
C3636 H3623 0.960 . S
C3636 C3635 1.524 . S
C3637 C3634 1.403 . S
C3637 C3638 1.392 . S
C3637 C3641 1.495 . S
C3638 C3637 1.392 . S
C3638 C3639 1.385 . S
C3638 C3640 1.478 . S
C3639 H3633 0.930 . S
C3639 C3635 1.400 . S
C3639 C3638 1.385 . S
C3640 C3638 1.478 . S
C3640 C3642 1.381 . S
C3640 C3646 1.383 . S
C3641 C3637 1.495 . S
C3641 H3647 0.959 . S
C3641 H3648 0.961 . S
C3641 H3649 0.960 . S
C3642 C3640 1.381 . S
C3642 C3643 1.394 . S
C3642 H3650 0.930 . S
C3643 C3642 1.394 . S
C3643 C3644 1.383 . S
C3643 H3651 0.929 . S
C3644 C3643 1.383 . S
C3644 C3645 1.377 . S
C3645 H3629 0.930 . S
C3645 C3644 1.377 . S
C3645 C3646 1.379 . S
C3646 H3630 0.931 . S
C3646 C3640 1.383 . S
C3646 C3645 1.379 . S
H3647 C3641 0.959 . S
H3648 C3641 0.961 . S
H3649 C3641 0.960 . S
H3650 C3642 0.930 . S
H3651 C3643 0.929 . S
H3652 C3660 0.929 . S
H3653 C3662 0.930 . S
H3654 C3664 0.930 . S
H3655 C3667 0.929 . S
H3656 C3670 0.930 . S
H3657 C3672 0.960 . S
H3658 C3672 0.960 . S
H3659 C3672 0.960 . S
C3660 H3652 0.929 . S
C3660 C3661 1.377 . S
C3660 C3662 1.384 . S
C3661 C3660 1.377 . S
C3661 C3667 1.390 . S
C3662 H3653 0.930 . S
C3662 C3660 1.384 . S
C3662 C3663 1.372 . S
C3663 C3662 1.372 . S
C3663 C3664 1.400 . S
C3663 C3668 1.490 . S
C3664 H3654 0.930 . S
C3664 C3663 1.400 . S
C3664 C3667 1.386 . S
H3665 C3681 0.930 . S
H3666 C3682 0.931 . S
C3667 H3655 0.929 . S
C3667 C3661 1.390 . S
C3667 C3664 1.386 . S
C3668 C3663 1.490 . S
C3668 C3670 1.395 . S
C3668 C3671 1.403 . S
H3669 C3675 0.930 . S
C3670 H3656 0.930 . S
C3670 C3668 1.395 . S
C3670 C3673 1.403 . S
C3671 C3668 1.403 . S
C3671 C3672 1.524 . S
C3671 C3675 1.400 . S
C3672 H3657 0.960 . S
C3672 H3658 0.960 . S
C3672 H3659 0.960 . S
C3672 C3671 1.524 . S
C3673 C3670 1.403 . S
C3673 C3674 1.392 . S
C3673 C3677 1.495 . S
C3674 C3673 1.392 . S
C3674 C3675 1.385 . S
C3674 C3676 1.478 . S
C3675 H3669 0.930 . S
C3675 C3671 1.400 . S
C3675 C3674 1.385 . S
C3676 C3674 1.478 . S
C3676 C3678 1.381 . S
C3676 C3682 1.383 . S
C3677 C3673 1.495 . S
C3677 H3683 0.959 . S
C3677 H3684 0.961 . S
C3677 H3685 0.960 . S
C3678 C3676 1.381 . S
C3678 C3679 1.394 . S
C3678 H3686 0.930 . S
C3679 C3678 1.394 . S
C3679 C3680 1.383 . S
C3679 H3687 0.929 . S
C3680 C3679 1.383 . S
C3680 C3681 1.377 . S
C3681 H3665 0.930 . S
C3681 C3680 1.377 . S
C3681 C3682 1.379 . S
C3682 H3666 0.931 . S
C3682 C3676 1.383 . S
C3682 C3681 1.379 . S
H3683 C3677 0.959 . S
H3684 C3677 0.961 . S
H3685 C3677 0.960 . S
H3686 C3678 0.930 . S
H3687 C3679 0.929 . S
H3688 C3696 0.929 . S
H3689 C3698 0.930 . S
H3690 C3700 0.930 . S
H3691 C3703 0.929 . S
H3692 C3706 0.930 1_655 S
H3693 C3708 0.960 . S
H3694 C3708 0.960 . S
H3695 C3708 0.960 . S
C3696 H3688 0.929 . S
C3696 C3697 1.377 . S
C3696 C3698 1.384 . S
C3697 C3696 1.377 . S
C3697 C3703 1.390 . S
C3698 H3689 0.930 . S
C3698 C3696 1.384 . S
C3698 C3699 1.372 . S
C3699 C3698 1.372 . S
C3699 C3700 1.400 . S
C3699 C3704 1.490 . S
C3700 H3690 0.930 . S
C3700 C3699 1.400 . S
C3700 C3703 1.386 . S
H3701 C3717 0.930 . S
H3702 C3718 0.931 . S
C3703 H3691 0.929 . S
C3703 C3697 1.390 . S
C3703 C3700 1.386 . S
C3704 C3699 1.490 . S
C3704 C3706 1.395 . S
C3704 C3707 1.403 . S
H3705 C3711 0.930 . S
C3706 H3692 0.930 1_455 S
C3706 C3704 1.395 . S
C3706 C3709 1.404 . S
C3707 C3704 1.403 . S
C3707 C3708 1.524 . S
C3707 C3711 1.400 . S
C3708 H3693 0.960 . S
C3708 H3694 0.960 . S
C3708 H3695 0.960 . S
C3708 C3707 1.524 . S
C3709 C3706 1.404 . S
C3709 C3710 1.394 . S
C3709 C3713 1.494 1_455 S
C3710 C3709 1.394 . S
C3710 C3711 1.385 . S
C3710 C3712 1.478 . S
C3711 H3705 0.930 . S
C3711 C3707 1.400 . S
C3711 C3710 1.385 . S
C3712 C3710 1.478 . S
C3712 C3714 1.381 . S
C3712 C3718 1.383 . S
C3713 C3709 1.494 1_655 S
C3713 H3719 0.959 . S
C3713 H3720 0.961 . S
C3713 H3721 0.960 . S
C3714 C3712 1.381 . S
C3714 C3715 1.394 . S
C3714 H3722 0.930 . S
C3715 C3714 1.394 . S
C3715 C3716 1.383 . S
C3715 H3723 0.929 . S
C3716 C3715 1.383 . S
C3716 C3717 1.377 . S
C3717 H3701 0.930 . S
C3717 C3716 1.377 . S
C3717 C3718 1.379 . S
C3718 H3702 0.931 . S
C3718 C3712 1.383 . S
C3718 C3717 1.379 . S
H3719 C3713 0.959 . S
H3720 C3713 0.961 . S
H3721 C3713 0.960 . S
H3722 C3714 0.930 . S
H3723 C3715 0.929 . S
H3724 C3732 0.929 . S
H3725 C3734 0.930 . S
H3726 C3736 0.930 . S
H3727 C3739 0.929 . S
H3728 C3742 0.930 . S
H3729 C3744 0.960 . S
H3730 C3744 0.960 . S
H3731 C3744 0.960 . S
C3732 H3724 0.929 . S
C3732 C3733 1.377 . S
C3732 C3734 1.384 . S
C3733 C3732 1.377 . S
C3733 C3739 1.390 . S
C3734 H3725 0.930 . S
C3734 C3732 1.384 . S
C3734 C3735 1.372 . S
C3735 C3734 1.372 . S
C3735 C3736 1.400 . S
C3735 C3740 1.490 . S
C3736 H3726 0.930 . S
C3736 C3735 1.400 . S
C3736 C3739 1.386 . S
H3737 C3753 0.930 . S
H3738 C3754 0.931 . S
C3739 H3727 0.929 . S
C3739 C3733 1.390 . S
C3739 C3736 1.386 . S
C3740 C3735 1.490 . S
C3740 C3742 1.395 . S
C3740 C3743 1.403 . S
H3741 C3747 0.930 . S
C3742 H3728 0.930 . S
C3742 C3740 1.395 . S
C3742 C3745 1.403 . S
C3743 C3740 1.403 . S
C3743 C3744 1.524 . S
C3743 C3747 1.400 . S
C3744 H3729 0.960 . S
C3744 H3730 0.960 . S
C3744 H3731 0.960 . S
C3744 C3743 1.524 . S
C3745 C3742 1.403 . S
C3745 C3746 1.392 . S
C3745 C3749 1.495 . S
C3746 C3745 1.392 . S
C3746 C3747 1.385 . S
C3746 C3748 1.478 . S
C3747 H3741 0.930 . S
C3747 C3743 1.400 . S
C3747 C3746 1.385 . S
C3748 C3746 1.478 . S
C3748 C3750 1.381 . S
C3748 C3754 1.383 . S
C3749 C3745 1.495 . S
C3749 H3755 0.959 . S
C3749 H3756 0.961 . S
C3749 H3757 0.960 . S
C3750 C3748 1.381 . S
C3750 C3751 1.394 . S
C3750 H3758 0.930 . S
C3751 C3750 1.394 . S
C3751 C3752 1.383 . S
C3751 H3759 0.929 . S
C3752 C3751 1.383 . S
C3752 C3753 1.377 . S
C3753 H3737 0.930 . S
C3753 C3752 1.377 . S
C3753 C3754 1.379 . S
C3754 H3738 0.931 . S
C3754 C3748 1.383 . S
C3754 C3753 1.379 . S
H3755 C3749 0.959 . S
H3756 C3749 0.961 . S
H3757 C3749 0.960 . S
H3758 C3750 0.930 . S
H3759 C3751 0.929 . S
H3760 C3768 0.929 . S
H3761 C3770 0.930 . S
H3762 C3772 0.930 . S
H3763 C3775 0.929 . S
H3764 C3778 0.930 . S
H3765 C3780 0.960 . S
H3766 C3780 0.960 . S
H3767 C3780 0.960 . S
C3768 H3760 0.929 . S
C3768 C3769 1.377 . S
C3768 C3770 1.384 . S
C3769 C3768 1.377 . S
C3769 C3775 1.390 . S
C3770 H3761 0.930 . S
C3770 C3768 1.384 . S
C3770 C3771 1.372 . S
C3771 C3770 1.372 . S
C3771 C3772 1.400 . S
C3771 C3776 1.490 . S
C3772 H3762 0.930 . S
C3772 C3771 1.400 . S
C3772 C3775 1.386 . S
H3773 C3789 0.930 . S
H3774 C3790 0.931 . S
C3775 H3763 0.929 . S
C3775 C3769 1.390 . S
C3775 C3772 1.386 . S
C3776 C3771 1.490 . S
C3776 C3778 1.395 . S
C3776 C3779 1.403 . S
H3777 C3783 0.930 . S
C3778 H3764 0.930 . S
C3778 C3776 1.395 . S
C3778 C3781 1.403 . S
C3779 C3776 1.403 . S
C3779 C3780 1.524 . S
C3779 C3783 1.400 . S
C3780 H3765 0.960 . S
C3780 H3766 0.960 . S
C3780 H3767 0.960 . S
C3780 C3779 1.524 . S
C3781 C3778 1.403 . S
C3781 C3782 1.392 . S
C3781 C3785 1.495 . S
C3782 C3781 1.392 . S
C3782 C3783 1.385 . S
C3782 C3784 1.478 . S
C3783 H3777 0.930 . S
C3783 C3779 1.400 . S
C3783 C3782 1.385 . S
C3784 C3782 1.478 . S
C3784 C3786 1.381 . S
C3784 C3790 1.383 . S
C3785 C3781 1.495 . S
C3785 H3791 0.959 . S
C3785 H3792 0.961 . S
C3785 H3793 0.960 . S
C3786 C3784 1.381 . S
C3786 C3787 1.394 . S
C3786 H3794 0.930 . S
C3787 C3786 1.394 . S
C3787 C3788 1.383 . S
C3787 H3795 0.929 . S
C3788 C3787 1.383 . S
C3788 C3789 1.377 . S
C3789 H3773 0.930 . S
C3789 C3788 1.377 . S
C3789 C3790 1.379 . S
C3790 H3774 0.931 . S
C3790 C3784 1.383 . S
C3790 C3789 1.379 . S
H3791 C3785 0.959 . S
H3792 C3785 0.961 . S
H3793 C3785 0.960 . S
H3794 C3786 0.930 . S
H3795 C3787 0.929 . S
H3796 C3804 0.929 . S
H3797 C3806 0.930 . S
H3798 C3808 0.930 . S
H3799 C3811 0.929 . S
H3800 C3814 0.930 . S
H3801 C3816 0.960 . S
H3802 C3816 0.960 . S
H3803 C3816 0.960 . S
C3804 H3796 0.929 . S
C3804 C3805 1.377 . S
C3804 C3806 1.384 . S
C3805 C3804 1.377 . S
C3805 C3811 1.390 . S
C3806 H3797 0.930 . S
C3806 C3804 1.384 . S
C3806 C3807 1.372 . S
C3807 C3806 1.372 . S
C3807 C3808 1.400 . S
C3807 C3812 1.490 . S
C3808 H3798 0.930 . S
C3808 C3807 1.400 . S
C3808 C3811 1.386 . S
H3809 C3825 0.930 . S
H3810 C3826 0.931 . S
C3811 H3799 0.929 . S
C3811 C3805 1.390 . S
C3811 C3808 1.386 . S
C3812 C3807 1.490 . S
C3812 C3814 1.395 . S
C3812 C3815 1.403 . S
H3813 C3819 0.930 . S
C3814 H3800 0.930 . S
C3814 C3812 1.395 . S
C3814 C3817 1.403 . S
C3815 C3812 1.403 . S
C3815 C3816 1.524 . S
C3815 C3819 1.400 . S
C3816 H3801 0.960 . S
C3816 H3802 0.960 . S
C3816 H3803 0.960 . S
C3816 C3815 1.524 . S
C3817 C3814 1.403 . S
C3817 C3818 1.392 . S
C3817 C3821 1.495 . S
C3818 C3817 1.392 . S
C3818 C3819 1.385 . S
C3818 C3820 1.478 . S
C3819 H3813 0.930 . S
C3819 C3815 1.400 . S
C3819 C3818 1.385 . S
C3820 C3818 1.478 . S
C3820 C3822 1.381 . S
C3820 C3826 1.383 . S
C3821 C3817 1.495 . S
C3821 H3827 0.959 . S
C3821 H3828 0.961 . S
C3821 H3829 0.960 . S
C3822 C3820 1.381 . S
C3822 C3823 1.394 . S
C3822 H3830 0.930 . S
C3823 C3822 1.394 . S
C3823 C3824 1.383 . S
C3823 H3831 0.929 . S
C3824 C3823 1.383 . S
C3824 C3825 1.377 . S
C3825 H3809 0.930 . S
C3825 C3824 1.377 . S
C3825 C3826 1.379 . S
C3826 H3810 0.931 . S
C3826 C3820 1.383 . S
C3826 C3825 1.379 . S
H3827 C3821 0.959 . S
H3828 C3821 0.961 . S
H3829 C3821 0.960 . S
H3830 C3822 0.930 . S
H3831 C3823 0.929 . S
H3832 C3840 0.929 . S
H3833 C3842 0.930 . S
H3834 C3844 0.930 . S
H3835 C3847 0.929 . S
H3836 C3850 0.930 . S
H3837 C3852 0.960 . S
H3838 C3852 0.960 . S
H3839 C3852 0.960 . S
C3840 H3832 0.929 . S
C3840 C3841 1.377 . S
C3840 C3842 1.384 . S
C3841 C3840 1.377 . S
C3841 C3847 1.390 . S
C3842 H3833 0.930 . S
C3842 C3840 1.384 . S
C3842 C3843 1.372 . S
C3843 C3842 1.372 . S
C3843 C3844 1.400 . S
C3843 C3848 1.490 . S
C3844 H3834 0.930 . S
C3844 C3843 1.400 . S
C3844 C3847 1.386 . S
H3845 C3861 0.930 . S
H3846 C3862 0.931 . S
C3847 H3835 0.929 . S
C3847 C3841 1.390 . S
C3847 C3844 1.386 . S
C3848 C3843 1.490 . S
C3848 C3850 1.395 . S
C3848 C3851 1.403 . S
H3849 C3855 0.930 . S
C3850 H3836 0.930 . S
C3850 C3848 1.395 . S
C3850 C3853 1.403 . S
C3851 C3848 1.403 . S
C3851 C3852 1.524 . S
C3851 C3855 1.400 . S
C3852 H3837 0.960 . S
C3852 H3838 0.960 . S
C3852 H3839 0.960 . S
C3852 C3851 1.524 . S
C3853 C3850 1.403 . S
C3853 C3854 1.392 . S
C3853 C3857 1.495 . S
C3854 C3853 1.392 . S
C3854 C3855 1.385 . S
C3854 C3856 1.478 . S
C3855 H3849 0.930 . S
C3855 C3851 1.400 . S
C3855 C3854 1.385 . S
C3856 C3854 1.478 . S
C3856 C3858 1.381 . S
C3856 C3862 1.383 . S
C3857 C3853 1.495 . S
C3857 H3863 0.959 . S
C3857 H3864 0.961 . S
C3857 H3865 0.960 . S
C3858 C3856 1.381 . S
C3858 C3859 1.394 . S
C3858 H3866 0.930 . S
C3859 C3858 1.394 . S
C3859 C3860 1.383 . S
C3859 H3867 0.929 . S
C3860 C3859 1.383 . S
C3860 C3861 1.377 . S
C3861 H3845 0.930 . S
C3861 C3860 1.377 . S
C3861 C3862 1.379 . S
C3862 H3846 0.931 . S
C3862 C3856 1.383 . S
C3862 C3861 1.379 . S
H3863 C3857 0.959 . S
H3864 C3857 0.961 . S
H3865 C3857 0.960 . S
H3866 C3858 0.930 . S
H3867 C3859 0.929 . S
H3868 C3876 0.929 . S
H3869 C3878 0.930 . S
H3870 C3880 0.930 . S
H3871 C3883 0.929 . S
H3872 C3886 0.930 . S
H3873 C3888 0.960 . S
H3874 C3888 0.960 . S
H3875 C3888 0.960 . S
C3876 H3868 0.929 . S
C3876 C3877 1.377 . S
C3876 C3878 1.384 . S
C3877 C3876 1.377 . S
C3877 C3883 1.390 . S
C3878 H3869 0.930 . S
C3878 C3876 1.384 . S
C3878 C3879 1.372 . S
C3879 C3878 1.372 . S
C3879 C3880 1.400 . S
C3879 C3884 1.490 . S
C3880 H3870 0.930 . S
C3880 C3879 1.400 . S
C3880 C3883 1.386 . S
H3881 C3897 0.930 . S
H3882 C3898 0.931 . S
C3883 H3871 0.929 . S
C3883 C3877 1.390 . S
C3883 C3880 1.386 . S
C3884 C3879 1.490 . S
C3884 C3886 1.395 . S
C3884 C3887 1.403 . S
H3885 C3891 0.930 . S
C3886 H3872 0.930 . S
C3886 C3884 1.395 . S
C3886 C3889 1.403 . S
C3887 C3884 1.403 . S
C3887 C3888 1.524 . S
C3887 C3891 1.400 . S
C3888 H3873 0.960 . S
C3888 H3874 0.960 . S
C3888 H3875 0.960 . S
C3888 C3887 1.524 . S
C3889 C3886 1.403 . S
C3889 C3890 1.392 . S
C3889 C3893 1.495 . S
C3890 C3889 1.392 . S
C3890 C3891 1.385 . S
C3890 C3892 1.478 . S
C3891 H3885 0.930 . S
C3891 C3887 1.400 . S
C3891 C3890 1.385 . S
C3892 C3890 1.478 . S
C3892 C3894 1.381 . S
C3892 C3898 1.383 . S
C3893 C3889 1.495 . S
C3893 H3899 0.959 . S
C3893 H3900 0.961 . S
C3893 H3901 0.960 . S
C3894 C3892 1.381 . S
C3894 C3895 1.394 . S
C3894 H3902 0.930 . S
C3895 C3894 1.394 . S
C3895 C3896 1.383 . S
C3895 H3903 0.929 . S
C3896 C3895 1.383 . S
C3896 C3897 1.377 . S
C3897 H3881 0.930 . S
C3897 C3896 1.377 . S
C3897 C3898 1.379 . S
C3898 H3882 0.931 . S
C3898 C3892 1.383 . S
C3898 C3897 1.379 . S
H3899 C3893 0.959 . S
H3900 C3893 0.961 . S
H3901 C3893 0.960 . S
H3902 C3894 0.930 . S
H3903 C3895 0.929 . S
H3904 C3912 0.929 . S
H3905 C3914 0.930 . S
H3906 C3916 0.930 . S
H3907 C3919 0.929 . S
H3908 C3922 0.930 . S
H3909 C3924 0.960 . S
H3910 C3924 0.960 . S
H3911 C3924 0.960 . S
C3912 H3904 0.929 . S
C3912 C3913 1.377 . S
C3912 C3914 1.384 . S
C3913 C3912 1.377 . S
C3913 C3919 1.390 . S
C3914 H3905 0.930 . S
C3914 C3912 1.384 . S
C3914 C3915 1.372 . S
C3915 C3914 1.372 . S
C3915 C3916 1.400 . S
C3915 C3920 1.490 . S
C3916 H3906 0.930 . S
C3916 C3915 1.400 . S
C3916 C3919 1.386 . S
H3917 C3933 0.930 . S
H3918 C3934 0.931 . S
C3919 H3907 0.929 . S
C3919 C3913 1.390 . S
C3919 C3916 1.386 . S
C3920 C3915 1.490 . S
C3920 C3922 1.395 . S
C3920 C3923 1.403 . S
H3921 C3927 0.930 . S
C3922 H3908 0.930 . S
C3922 C3920 1.395 . S
C3922 C3925 1.403 . S
C3923 C3920 1.403 . S
C3923 C3924 1.524 . S
C3923 C3927 1.400 . S
C3924 H3909 0.960 . S
C3924 H3910 0.960 . S
C3924 H3911 0.960 . S
C3924 C3923 1.524 . S
C3925 C3922 1.403 . S
C3925 C3926 1.392 . S
C3925 C3929 1.495 . S
C3926 C3925 1.392 . S
C3926 C3927 1.385 . S
C3926 C3928 1.478 . S
C3927 H3921 0.930 . S
C3927 C3923 1.400 . S
C3927 C3926 1.385 . S
C3928 C3926 1.478 . S
C3928 C3930 1.381 . S
C3928 C3934 1.383 . S
C3929 C3925 1.495 . S
C3929 H3935 0.959 . S
C3929 H3936 0.961 . S
C3929 H3937 0.960 . S
C3930 C3928 1.381 . S
C3930 C3931 1.394 . S
C3930 H3938 0.930 . S
C3931 C3930 1.394 . S
C3931 C3932 1.383 . S
C3931 H3939 0.929 . S
C3932 C3931 1.383 . S
C3932 C3933 1.377 . S
C3933 H3917 0.930 . S
C3933 C3932 1.377 . S
C3933 C3934 1.379 . S
C3934 H3918 0.931 . S
C3934 C3928 1.383 . S
C3934 C3933 1.379 . S
H3935 C3929 0.959 . S
H3936 C3929 0.961 . S
H3937 C3929 0.960 . S
H3938 C3930 0.930 . S
H3939 C3931 0.929 . S
H3940 C3948 0.929 . S
H3941 C3950 0.930 . S
H3942 C3952 0.930 . S
H3943 C3955 0.929 . S
H3944 C3958 0.930 . S
H3945 C3960 0.960 . S
H3946 C3960 0.960 . S
H3947 C3960 0.960 . S
C3948 H3940 0.929 . S
C3948 C3949 1.377 . S
C3948 C3950 1.384 . S
C3949 C3948 1.377 . S
C3949 C3955 1.390 . S
C3950 H3941 0.930 . S
C3950 C3948 1.384 . S
C3950 C3951 1.372 . S
C3951 C3950 1.372 . S
C3951 C3952 1.400 . S
C3951 C3956 1.490 . S
C3952 H3942 0.930 . S
C3952 C3951 1.400 . S
C3952 C3955 1.386 . S
H3953 C3969 0.930 . S
H3954 C3970 0.931 . S
C3955 H3943 0.929 . S
C3955 C3949 1.390 . S
C3955 C3952 1.386 . S
C3956 C3951 1.490 . S
C3956 C3958 1.395 . S
C3956 C3959 1.403 . S
H3957 C3963 0.930 . S
C3958 H3944 0.930 . S
C3958 C3956 1.395 . S
C3958 C3961 1.403 . S
C3959 C3956 1.403 . S
C3959 C3960 1.524 . S
C3959 C3963 1.400 . S
C3960 H3945 0.960 . S
C3960 H3946 0.960 . S
C3960 H3947 0.960 . S
C3960 C3959 1.524 . S
C3961 C3958 1.403 . S
C3961 C3962 1.392 . S
C3961 C3965 1.495 . S
C3962 C3961 1.392 . S
C3962 C3963 1.385 . S
C3962 C3964 1.478 . S
C3963 H3957 0.930 . S
C3963 C3959 1.400 . S
C3963 C3962 1.385 . S
C3964 C3962 1.478 . S
C3964 C3966 1.381 . S
C3964 C3970 1.383 . S
C3965 C3961 1.495 . S
C3965 H3971 0.959 . S
C3965 H3972 0.961 . S
C3965 H3973 0.960 . S
C3966 C3964 1.381 . S
C3966 C3967 1.394 . S
C3966 H3974 0.930 . S
C3967 C3966 1.394 . S
C3967 C3968 1.383 . S
C3967 H3975 0.929 . S
C3968 C3967 1.383 . S
C3968 C3969 1.377 . S
C3969 H3953 0.930 . S
C3969 C3968 1.377 . S
C3969 C3970 1.379 . S
C3970 H3954 0.931 . S
C3970 C3964 1.383 . S
C3970 C3969 1.379 . S
H3971 C3965 0.959 . S
H3972 C3965 0.961 . S
H3973 C3965 0.960 . S
H3974 C3966 0.930 . S
H3975 C3967 0.929 . S
H3976 C3984 0.929 . S
H3977 C3986 0.930 . S
H3978 C3988 0.930 . S
H3979 C3991 0.929 . S
H3980 C3994 0.930 . S
H3981 C3996 0.960 . S
H3982 C3996 0.960 . S
H3983 C3996 0.960 . S
C3984 H3976 0.929 . S
C3984 C3985 1.377 . S
C3984 C3986 1.384 . S
C3985 C3984 1.377 . S
C3985 C3991 1.390 . S
C3986 H3977 0.930 . S
C3986 C3984 1.384 . S
C3986 C3987 1.372 . S
C3987 C3986 1.372 . S
C3987 C3988 1.400 . S
C3987 C3992 1.490 . S
C3988 H3978 0.930 . S
C3988 C3987 1.400 . S
C3988 C3991 1.386 . S
H3989 C4005 0.930 . S
H3990 C4006 0.931 . S
C3991 H3979 0.929 . S
C3991 C3985 1.390 . S
C3991 C3988 1.386 . S
C3992 C3987 1.490 . S
C3992 C3994 1.395 . S
C3992 C3995 1.403 . S
H3993 C3999 0.930 . S
C3994 H3980 0.930 . S
C3994 C3992 1.395 . S
C3994 C3997 1.403 . S
C3995 C3992 1.403 . S
C3995 C3996 1.524 . S
C3995 C3999 1.400 . S
C3996 H3981 0.960 . S
C3996 H3982 0.960 . S
C3996 H3983 0.960 . S
C3996 C3995 1.524 . S
C3997 C3994 1.403 . S
C3997 C3998 1.392 . S
C3997 C4001 1.495 . S
C3998 C3997 1.392 . S
C3998 C3999 1.385 . S
C3998 C4000 1.478 . S
C3999 H3993 0.930 . S
C3999 C3995 1.400 . S
C3999 C3998 1.385 . S
C4000 C3998 1.478 . S
C4000 C4002 1.381 . S
C4000 C4006 1.383 . S
C4001 C3997 1.495 . S
C4001 H4007 0.959 . S
C4001 H4008 0.961 . S
C4001 H4009 0.960 . S
C4002 C4000 1.381 . S
C4002 C4003 1.394 . S
C4002 H4010 0.930 . S
C4003 C4002 1.394 . S
C4003 C4004 1.383 . S
C4003 H4011 0.929 . S
C4004 C4003 1.383 . S
C4004 C4005 1.377 . S
C4005 H3989 0.930 . S
C4005 C4004 1.377 . S
C4005 C4006 1.379 . S
C4006 H3990 0.931 . S
C4006 C4000 1.383 . S
C4006 C4005 1.379 . S
H4007 C4001 0.959 . S
H4008 C4001 0.961 . S
H4009 C4001 0.960 . S
H4010 C4002 0.930 . S
H4011 C4003 0.929 . S
H4012 C4020 0.929 . S
H4013 C4022 0.930 . S
H4014 C4024 0.930 . S
H4015 C4027 0.929 . S
H4016 C4030 0.930 . S
H4017 C4032 0.960 . S
H4018 C4032 0.960 . S
H4019 C4032 0.960 . S
C4020 H4012 0.929 . S
C4020 C4021 1.377 . S
C4020 C4022 1.384 . S
C4021 C4020 1.377 . S
C4021 C4027 1.390 . S
C4022 H4013 0.930 . S
C4022 C4020 1.384 . S
C4022 C4023 1.372 . S
C4023 C4022 1.372 . S
C4023 C4024 1.400 . S
C4023 C4028 1.490 . S
C4024 H4014 0.930 . S
C4024 C4023 1.400 . S
C4024 C4027 1.386 . S
H4025 C4041 0.930 . S
H4026 C4042 0.931 . S
C4027 H4015 0.929 . S
C4027 C4021 1.390 . S
C4027 C4024 1.386 . S
C4028 C4023 1.490 . S
C4028 C4030 1.395 . S
C4028 C4031 1.403 . S
H4029 C4035 0.930 . S
C4030 H4016 0.930 . S
C4030 C4028 1.395 . S
C4030 C4033 1.403 . S
C4031 C4028 1.403 . S
C4031 C4032 1.524 . S
C4031 C4035 1.400 . S
C4032 H4017 0.960 . S
C4032 H4018 0.960 . S
C4032 H4019 0.960 . S
C4032 C4031 1.524 . S
C4033 C4030 1.403 . S
C4033 C4034 1.392 . S
C4033 C4037 1.495 . S
C4034 C4033 1.392 . S
C4034 C4035 1.385 . S
C4034 C4036 1.478 . S
C4035 H4029 0.930 . S
C4035 C4031 1.400 . S
C4035 C4034 1.385 . S
C4036 C4034 1.478 . S
C4036 C4038 1.381 . S
C4036 C4042 1.383 . S
C4037 C4033 1.495 . S
C4037 H4043 0.959 . S
C4037 H4044 0.961 . S
C4037 H4045 0.960 . S
C4038 C4036 1.381 . S
C4038 C4039 1.394 . S
C4038 H4046 0.930 . S
C4039 C4038 1.394 . S
C4039 C4040 1.383 . S
C4039 H4047 0.929 . S
C4040 C4039 1.383 . S
C4040 C4041 1.377 . S
C4041 H4025 0.930 . S
C4041 C4040 1.377 . S
C4041 C4042 1.379 . S
C4042 H4026 0.931 . S
C4042 C4036 1.383 . S
C4042 C4041 1.379 . S
H4043 C4037 0.959 . S
H4044 C4037 0.961 . S
H4045 C4037 0.960 . S
H4046 C4038 0.930 . S
H4047 C4039 0.929 . S
H4048 C4056 0.929 . S
H4049 C4058 0.930 . S
H4050 C4060 0.930 . S
H4051 C4063 0.929 . S
H4052 C4066 0.930 . S
H4053 C4068 0.960 . S
H4054 C4068 0.960 . S
H4055 C4068 0.960 . S
C4056 H4048 0.929 . S
C4056 C4057 1.377 . S
C4056 C4058 1.384 . S
C4057 C4056 1.377 . S
C4057 C4063 1.390 . S
C4058 H4049 0.930 . S
C4058 C4056 1.384 . S
C4058 C4059 1.372 . S
C4059 C4058 1.372 . S
C4059 C4060 1.400 . S
C4059 C4064 1.490 . S
C4060 H4050 0.930 . S
C4060 C4059 1.400 . S
C4060 C4063 1.386 . S
H4061 C4077 0.930 . S
H4062 C4078 0.931 . S
C4063 H4051 0.929 . S
C4063 C4057 1.390 . S
C4063 C4060 1.386 . S
C4064 C4059 1.490 . S
C4064 C4066 1.395 . S
C4064 C4067 1.403 . S
H4065 C4071 0.930 . S
C4066 H4052 0.930 . S
C4066 C4064 1.395 . S
C4066 C4069 1.403 . S
C4067 C4064 1.403 . S
C4067 C4068 1.524 . S
C4067 C4071 1.400 . S
C4068 H4053 0.960 . S
C4068 H4054 0.960 . S
C4068 H4055 0.960 . S
C4068 C4067 1.524 . S
C4069 C4066 1.403 . S
C4069 C4070 1.392 . S
C4069 C4073 1.495 . S
C4070 C4069 1.392 . S
C4070 C4071 1.385 . S
C4070 C4072 1.478 . S
C4071 H4065 0.930 . S
C4071 C4067 1.400 . S
C4071 C4070 1.385 . S
C4072 C4070 1.478 . S
C4072 C4074 1.381 . S
C4072 C4078 1.383 . S
C4073 C4069 1.495 . S
C4073 H4079 0.959 . S
C4073 H4080 0.961 . S
C4073 H4081 0.960 . S
C4074 C4072 1.381 . S
C4074 C4075 1.394 . S
C4074 H4082 0.930 . S
C4075 C4074 1.394 . S
C4075 C4076 1.383 . S
C4075 H4083 0.929 . S
C4076 C4075 1.383 . S
C4076 C4077 1.377 . S
C4077 H4061 0.930 . S
C4077 C4076 1.377 . S
C4077 C4078 1.379 . S
C4078 H4062 0.931 . S
C4078 C4072 1.383 . S
C4078 C4077 1.379 . S
H4079 C4073 0.959 . S
H4080 C4073 0.961 . S
H4081 C4073 0.960 . S
H4082 C4074 0.930 . S
H4083 C4075 0.929 . S
H4084 C4092 0.929 . S
H4085 C4094 0.930 . S
H4086 C4096 0.930 . S
H4087 C4099 0.929 . S
H4088 C4102 0.930 . S
H4089 C4104 0.960 . S
H4090 C4104 0.960 . S
H4091 C4104 0.960 . S
C4092 H4084 0.929 . S
C4092 C4093 1.377 . S
C4092 C4094 1.384 . S
C4093 C4092 1.377 . S
C4093 C4099 1.390 . S
C4094 H4085 0.930 . S
C4094 C4092 1.384 . S
C4094 C4095 1.372 . S
C4095 C4094 1.372 . S
C4095 C4096 1.400 . S
C4095 C4100 1.490 . S
C4096 H4086 0.930 . S
C4096 C4095 1.400 . S
C4096 C4099 1.386 . S
H4097 C4113 0.930 . S
H4098 C4114 0.931 . S
C4099 H4087 0.929 . S
C4099 C4093 1.390 . S
C4099 C4096 1.386 . S
C4100 C4095 1.490 . S
C4100 C4102 1.395 . S
C4100 C4103 1.403 . S
H4101 C4107 0.930 . S
C4102 H4088 0.930 . S
C4102 C4100 1.395 . S
C4102 C4105 1.403 . S
C4103 C4100 1.403 . S
C4103 C4104 1.524 . S
C4103 C4107 1.400 . S
C4104 H4089 0.960 . S
C4104 H4090 0.960 . S
C4104 H4091 0.960 . S
C4104 C4103 1.524 . S
C4105 C4102 1.403 . S
C4105 C4106 1.392 . S
C4105 C4109 1.495 . S
C4106 C4105 1.392 . S
C4106 C4107 1.385 . S
C4106 C4108 1.478 . S
C4107 H4101 0.930 . S
C4107 C4103 1.400 . S
C4107 C4106 1.385 . S
C4108 C4106 1.478 . S
C4108 C4110 1.381 . S
C4108 C4114 1.383 . S
C4109 C4105 1.495 . S
C4109 H4115 0.959 . S
C4109 H4116 0.961 . S
C4109 H4117 0.960 . S
C4110 C4108 1.381 . S
C4110 C4111 1.394 . S
C4110 H4118 0.930 . S
C4111 C4110 1.394 . S
C4111 C4112 1.383 . S
C4111 H4119 0.929 . S
C4112 C4111 1.383 . S
C4112 C4113 1.377 . S
C4113 H4097 0.930 . S
C4113 C4112 1.377 . S
C4113 C4114 1.379 . S
C4114 H4098 0.931 . S
C4114 C4108 1.383 . S
C4114 C4113 1.379 . S
H4115 C4109 0.959 . S
H4116 C4109 0.961 . S
H4117 C4109 0.960 . S
H4118 C4110 0.930 . S
H4119 C4111 0.929 . S
H4120 C4128 0.929 . S
H4121 C4130 0.930 . S
H4122 C4132 0.930 . S
H4123 C4135 0.929 . S
H4124 C4138 0.930 . S
H4125 C4140 0.960 . S
H4126 C4140 0.960 . S
H4127 C4140 0.960 . S
C4128 H4120 0.929 . S
C4128 C4129 1.377 . S
C4128 C4130 1.384 . S
C4129 C4128 1.377 . S
C4129 C4135 1.390 . S
C4130 H4121 0.930 . S
C4130 C4128 1.384 . S
C4130 C4131 1.372 . S
C4131 C4130 1.372 . S
C4131 C4132 1.400 . S
C4131 C4136 1.490 . S
C4132 H4122 0.930 . S
C4132 C4131 1.400 . S
C4132 C4135 1.386 . S
H4133 C4149 0.930 . S
H4134 C4150 0.931 . S
C4135 H4123 0.929 . S
C4135 C4129 1.390 . S
C4135 C4132 1.386 . S
C4136 C4131 1.490 . S
C4136 C4138 1.395 . S
C4136 C4139 1.403 . S
H4137 C4143 0.930 . S
C4138 H4124 0.930 . S
C4138 C4136 1.395 . S
C4138 C4141 1.403 . S
C4139 C4136 1.403 . S
C4139 C4140 1.524 . S
C4139 C4143 1.400 . S
C4140 H4125 0.960 . S
C4140 H4126 0.960 . S
C4140 H4127 0.960 . S
C4140 C4139 1.524 . S
C4141 C4138 1.403 . S
C4141 C4142 1.392 . S
C4141 C4145 1.495 . S
C4142 C4141 1.392 . S
C4142 C4143 1.385 . S
C4142 C4144 1.478 . S
C4143 H4137 0.930 . S
C4143 C4139 1.400 . S
C4143 C4142 1.385 . S
C4144 C4142 1.478 . S
C4144 C4146 1.381 . S
C4144 C4150 1.383 . S
C4145 C4141 1.495 . S
C4145 H4151 0.959 . S
C4145 H4152 0.961 . S
C4145 H4153 0.960 . S
C4146 C4144 1.381 . S
C4146 C4147 1.394 . S
C4146 H4154 0.930 . S
C4147 C4146 1.394 . S
C4147 C4148 1.383 . S
C4147 H4155 0.929 . S
C4148 C4147 1.383 . S
C4148 C4149 1.377 . S
C4149 H4133 0.930 . S
C4149 C4148 1.377 . S
C4149 C4150 1.379 . S
C4150 H4134 0.931 . S
C4150 C4144 1.383 . S
C4150 C4149 1.379 . S
H4151 C4145 0.959 . S
H4152 C4145 0.961 . S
H4153 C4145 0.960 . S
H4154 C4146 0.930 . S
H4155 C4147 0.929 . S
H4156 C4164 0.929 1_556 S
H4157 C4166 0.930 1_556 S
H4158 C4168 0.930 . S
H4159 C4171 0.929 . S
H4160 C4174 0.930 . S
H4161 C4176 0.960 . S
H4162 C4176 0.960 . S
H4163 C4176 0.960 . S
C4164 H4156 0.929 1_554 S
C4164 C4165 1.377 . S
C4164 C4166 1.384 . S
C4165 C4164 1.377 . S
C4165 C4171 1.390 . S
C4166 H4157 0.930 1_554 S
C4166 C4164 1.384 . S
C4166 C4167 1.372 . S
C4167 C4166 1.372 . S
C4167 C4168 1.400 . S
C4167 C4172 1.490 . S
C4168 H4158 0.930 . S
C4168 C4167 1.400 . S
C4168 C4171 1.386 . S
H4169 C4185 0.930 . S
H4170 C4186 0.931 . S
C4171 H4159 0.929 . S
C4171 C4165 1.390 . S
C4171 C4168 1.386 . S
C4172 C4167 1.490 . S
C4172 C4174 1.395 . S
C4172 C4175 1.403 . S
H4173 C4179 0.930 . S
C4174 H4160 0.930 . S
C4174 C4172 1.395 . S
C4174 C4177 1.403 . S
C4175 C4172 1.403 . S
C4175 C4176 1.524 . S
C4175 C4179 1.400 . S
C4176 H4161 0.960 . S
C4176 H4162 0.960 . S
C4176 H4163 0.960 . S
C4176 C4175 1.524 . S
C4177 C4174 1.403 . S
C4177 C4178 1.392 . S
C4177 C4181 1.495 1_554 S
C4178 C4177 1.392 . S
C4178 C4179 1.385 . S
C4178 C4180 1.478 . S
C4179 H4173 0.930 . S
C4179 C4175 1.400 . S
C4179 C4178 1.385 . S
C4180 C4178 1.478 . S
C4180 C4182 1.381 1_554 S
C4180 C4186 1.383 . S
C4181 C4177 1.495 1_556 S
C4181 H4187 0.959 . S
C4181 H4188 0.961 1_556 S
C4181 H4189 0.960 . S
C4182 C4180 1.381 1_556 S
C4182 C4183 1.394 . S
C4182 H4190 0.930 . S
C4183 C4182 1.394 . S
C4183 C4184 1.383 1_556 S
C4183 H4191 0.929 . S
C4184 C4183 1.383 1_554 S
C4184 C4185 1.377 . S
C4185 H4169 0.930 . S
C4185 C4184 1.377 . S
C4185 C4186 1.379 . S
C4186 H4170 0.931 . S
C4186 C4180 1.383 . S
C4186 C4185 1.379 . S
H4187 C4181 0.959 . S
H4188 C4181 0.961 1_554 S
H4189 C4181 0.960 . S
H4190 C4182 0.930 . S
H4191 C4183 0.929 . S
H4192 C4200 0.929 . S
H4193 C4202 0.930 . S
H4194 C4204 0.930 . S
H4195 C4207 0.929 . S
H4196 C4210 0.930 . S
H4197 C4212 0.960 . S
H4198 C4212 0.960 . S
H4199 C4212 0.960 . S
C4200 H4192 0.929 . S
C4200 C4201 1.377 . S
C4200 C4202 1.384 . S
C4201 C4200 1.377 . S
C4201 C4207 1.390 . S
C4202 H4193 0.930 . S
C4202 C4200 1.384 . S
C4202 C4203 1.372 . S
C4203 C4202 1.372 . S
C4203 C4204 1.400 . S
C4203 C4208 1.490 . S
C4204 H4194 0.930 . S
C4204 C4203 1.400 . S
C4204 C4207 1.386 . S
H4205 C4221 0.930 . S
H4206 C4222 0.931 . S
C4207 H4195 0.929 . S
C4207 C4201 1.390 . S
C4207 C4204 1.386 . S
C4208 C4203 1.490 . S
C4208 C4210 1.395 . S
C4208 C4211 1.403 . S
H4209 C4215 0.930 . S
C4210 H4196 0.930 . S
C4210 C4208 1.395 . S
C4210 C4213 1.403 . S
C4211 C4208 1.403 . S
C4211 C4212 1.524 . S
C4211 C4215 1.400 . S
C4212 H4197 0.960 . S
C4212 H4198 0.960 . S
C4212 H4199 0.960 . S
C4212 C4211 1.524 . S
C4213 C4210 1.403 . S
C4213 C4214 1.392 . S
C4213 C4217 1.495 . S
C4214 C4213 1.392 . S
C4214 C4215 1.385 . S
C4214 C4216 1.478 . S
C4215 H4209 0.930 . S
C4215 C4211 1.400 . S
C4215 C4214 1.385 . S
C4216 C4214 1.478 . S
C4216 C4218 1.381 . S
C4216 C4222 1.383 . S
C4217 C4213 1.495 . S
C4217 H4223 0.959 . S
C4217 H4224 0.961 . S
C4217 H4225 0.960 . S
C4218 C4216 1.381 . S
C4218 C4219 1.394 . S
C4218 H4226 0.930 . S
C4219 C4218 1.394 . S
C4219 C4220 1.383 . S
C4219 H4227 0.929 . S
C4220 C4219 1.383 . S
C4220 C4221 1.377 . S
C4221 H4205 0.930 . S
C4221 C4220 1.377 . S
C4221 C4222 1.379 . S
C4222 H4206 0.931 . S
C4222 C4216 1.383 . S
C4222 C4221 1.379 . S
H4223 C4217 0.959 . S
H4224 C4217 0.961 . S
H4225 C4217 0.960 . S
H4226 C4218 0.930 . S
H4227 C4219 0.929 . S
H4228 C4236 0.929 . S
H4229 C4238 0.930 . S
H4230 C4240 0.930 . S
H4231 C4243 0.929 . S
H4232 C4246 0.930 . S
H4233 C4248 0.960 . S
H4234 C4248 0.960 1_556 S
H4235 C4248 0.960 . S
C4236 H4228 0.929 . S
C4236 C4237 1.375 . S
C4236 C4238 1.384 . S
C4237 C4236 1.375 . S
C4237 C4243 1.393 1_556 S
C4238 H4229 0.930 . S
C4238 C4236 1.384 . S
C4238 C4239 1.372 1_556 S
C4239 C4238 1.372 1_554 S
C4239 C4240 1.400 . S
C4239 C4244 1.490 . S
C4240 H4230 0.930 . S
C4240 C4239 1.400 . S
C4240 C4243 1.386 . S
H4241 C4257 0.930 . S
H4242 C4258 0.931 . S
C4243 H4231 0.929 . S
C4243 C4237 1.393 1_554 S
C4243 C4240 1.386 . S
C4244 C4239 1.490 . S
C4244 C4246 1.395 . S
C4244 C4247 1.403 . S
H4245 C4251 0.930 . S
C4246 H4232 0.930 . S
C4246 C4244 1.395 . S
C4246 C4249 1.403 . S
C4247 C4244 1.403 . S
C4247 C4248 1.524 . S
C4247 C4251 1.400 . S
C4248 H4233 0.960 . S
C4248 H4234 0.960 1_554 S
C4248 H4235 0.960 . S
C4248 C4247 1.524 . S
C4249 C4246 1.403 . S
C4249 C4250 1.392 . S
C4249 C4253 1.495 . S
C4250 C4249 1.392 . S
C4250 C4251 1.385 . S
C4250 C4252 1.478 . S
C4251 H4245 0.930 . S
C4251 C4247 1.400 . S
C4251 C4250 1.385 . S
C4252 C4250 1.478 . S
C4252 C4254 1.381 . S
C4252 C4258 1.383 . S
C4253 C4249 1.495 . S
C4253 H4259 0.959 . S
C4253 H4260 0.961 . S
C4253 H4261 0.960 . S
C4254 C4252 1.381 . S
C4254 C4255 1.394 . S
C4254 H4262 0.930 1_554 S
C4255 C4254 1.394 . S
C4255 C4256 1.383 . S
C4255 H4263 0.929 . S
C4256 C4255 1.383 . S
C4256 C4257 1.377 . S
C4257 H4241 0.930 . S
C4257 C4256 1.377 . S
C4257 C4258 1.379 . S
C4258 H4242 0.931 . S
C4258 C4252 1.383 . S
C4258 C4257 1.379 . S
H4259 C4253 0.959 . S
H4260 C4253 0.961 . S
H4261 C4253 0.960 . S
H4262 C4254 0.930 1_556 S
H4263 C4255 0.929 . S
H4264 C4272 0.929 . S
H4265 C4274 0.930 . S
H4266 C4276 0.930 . S
H4267 C4279 0.929 . S
H4268 C4282 0.930 . S
H4269 C4284 0.960 . S
H4270 C4284 0.960 . S
H4271 C4284 0.960 . S
C4272 H4264 0.929 . S
C4272 C4273 1.377 . S
C4272 C4274 1.384 . S
C4273 C4272 1.377 . S
C4273 C4279 1.390 . S
C4274 H4265 0.930 . S
C4274 C4272 1.384 . S
C4274 C4275 1.372 . S
C4275 C4274 1.372 . S
C4275 C4276 1.400 . S
C4275 C4280 1.490 . S
C4276 H4266 0.930 . S
C4276 C4275 1.400 . S
C4276 C4279 1.386 . S
H4277 C4293 0.930 . S
H4278 C4294 0.931 . S
C4279 H4267 0.929 . S
C4279 C4273 1.390 . S
C4279 C4276 1.386 . S
C4280 C4275 1.490 . S
C4280 C4282 1.395 . S
C4280 C4283 1.403 . S
H4281 C4287 0.930 . S
C4282 H4268 0.930 . S
C4282 C4280 1.395 . S
C4282 C4285 1.403 . S
C4283 C4280 1.403 . S
C4283 C4284 1.524 . S
C4283 C4287 1.400 . S
C4284 H4269 0.960 . S
C4284 H4270 0.960 . S
C4284 H4271 0.960 . S
C4284 C4283 1.524 . S
C4285 C4282 1.403 . S
C4285 C4286 1.392 . S
C4285 C4289 1.495 . S
C4286 C4285 1.392 . S
C4286 C4287 1.385 . S
C4286 C4288 1.478 . S
C4287 H4281 0.930 . S
C4287 C4283 1.400 . S
C4287 C4286 1.385 . S
C4288 C4286 1.478 . S
C4288 C4290 1.381 . S
C4288 C4294 1.383 . S
C4289 C4285 1.495 . S
C4289 H4295 0.959 . S
C4289 H4296 0.961 . S
C4289 H4297 0.960 . S
C4290 C4288 1.381 . S
C4290 C4291 1.394 . S
C4290 H4298 0.930 . S
C4291 C4290 1.394 . S
C4291 C4292 1.383 . S
C4291 H4299 0.929 . S
C4292 C4291 1.383 . S
C4292 C4293 1.377 . S
C4293 H4277 0.930 . S
C4293 C4292 1.377 . S
C4293 C4294 1.379 . S
C4294 H4278 0.931 . S
C4294 C4288 1.383 . S
C4294 C4293 1.379 . S
H4295 C4289 0.959 . S
H4296 C4289 0.961 . S
H4297 C4289 0.960 . S
H4298 C4290 0.930 . S
H4299 C4291 0.929 . S
H4300 C4308 0.929 . S
H4301 C4310 0.930 . S
H4302 C4312 0.930 . S
H4303 C4315 0.929 . S
H4304 C4318 0.930 . S
H4305 C4320 0.960 . S
H4306 C4320 0.960 . S
H4307 C4320 0.960 . S
C4308 H4300 0.929 . S
C4308 C4309 1.377 . S
C4308 C4310 1.384 . S
C4309 C4308 1.377 . S
C4309 C4315 1.390 . S
C4310 H4301 0.930 . S
C4310 C4308 1.384 . S
C4310 C4311 1.372 . S
C4311 C4310 1.372 . S
C4311 C4312 1.400 . S
C4311 C4316 1.490 . S
C4312 H4302 0.930 . S
C4312 C4311 1.400 . S
C4312 C4315 1.386 . S
H4313 C4329 0.930 . S
H4314 C4330 0.931 . S
C4315 H4303 0.929 . S
C4315 C4309 1.390 . S
C4315 C4312 1.386 . S
C4316 C4311 1.490 . S
C4316 C4318 1.395 . S
C4316 C4319 1.403 . S
H4317 C4323 0.930 . S
C4318 H4304 0.930 . S
C4318 C4316 1.395 . S
C4318 C4321 1.403 . S
C4319 C4316 1.403 . S
C4319 C4320 1.524 . S
C4319 C4323 1.400 . S
C4320 H4305 0.960 . S
C4320 H4306 0.960 . S
C4320 H4307 0.960 . S
C4320 C4319 1.524 . S
C4321 C4318 1.403 . S
C4321 C4322 1.392 . S
C4321 C4325 1.495 . S
C4322 C4321 1.392 . S
C4322 C4323 1.385 . S
C4322 C4324 1.478 . S
C4323 H4317 0.930 . S
C4323 C4319 1.400 . S
C4323 C4322 1.385 . S
C4324 C4322 1.478 . S
C4324 C4326 1.381 . S
C4324 C4330 1.383 . S
C4325 C4321 1.495 . S
C4325 H4331 0.959 . S
C4325 H4332 0.961 . S
C4325 H4333 0.960 . S
C4326 C4324 1.381 . S
C4326 C4327 1.394 . S
C4326 H4334 0.930 . S
C4327 C4326 1.394 . S
C4327 C4328 1.383 . S
C4327 H4335 0.929 . S
C4328 C4327 1.383 . S
C4328 C4329 1.377 . S
C4329 H4313 0.930 . S
C4329 C4328 1.377 . S
C4329 C4330 1.379 . S
C4330 H4314 0.931 . S
C4330 C4324 1.383 . S
C4330 C4329 1.379 . S
H4331 C4325 0.959 . S
H4332 C4325 0.961 . S
H4333 C4325 0.960 . S
H4334 C4326 0.930 . S
H4335 C4327 0.929 . S
C908 C353 0.945 . S
C889 C7 0.930 . S
C925 C22 1.801 . S
C944 C399 1.781 . S
C961 C31 0.846 . S
C980 C408 0.828 . S
C1016 C446 1.595 . S
C997 C51 1.623 . S
C1033 C17 1.579 . S
C1052 C480 1.568 . S
C1088 C510 0.703 . S
C1069 C36 0.691 . S
C1124 C569 1.569 1_556 S
C1105 C49 1.562 . S
C1141 C9 0.864 . S
C1160 C582 0.894 . S
C1177 C63 1.246 . S
C1196 C365 1.242 . S
C1213 C73 1.085 . S
C1232 C383 1.086 . S
C1268 C404 1.569 . S
C1249 C91 1.557 . S
C1304 C442 0.596 . S
C1285 C101 0.623 . S
C1321 C59 1.208 . S
C1340 C476 1.170 . S
C1376 C506 1.497 . S
C1357 C77 1.489 . S
C1412 C553 1.116 . S
C1393 C87 1.135 . S
C1448 C578 0.516 . S
C1429 C105 0.560 . S
C1484 C349 0.575 1_556 S
C1465 C107 0.531 . S
C1520 C608 1.526 . S
C1501 C120 1.525 . S
C1537 C135 1.264 . S
C1556 C650 1.278 . S
C1592 C693 0.499 . S
C1573 C148 0.485 . S
C1609 C65 1.223 . S
C1628 C574 1.218 . S
C1664 C412 1.379 . S
C1645 C79 1.373 . S
C1681 C134 1.236 . S
C1700 C710 1.237 . S
C1736 C761 1.459 . S
C1717 C162 1.467 . S
C1753 C171 0.880 1_655 S
C1772 C344 0.863 . S
C1808 C744 1.725 . S
C1789 C190 1.745 . S
C1825 C203 0.808 . S
C1844 C417 0.809 . S
C1861 C219 1.561 . S
C1880 C727 1.525 . S
C1916 C489 1.485 . S
C1897 C189 1.474 . S
C1952 C655 0.675 . S
C1933 C204 0.652 . S
C1988 C540 1.516 . S
C1969 C213 1.534 . S
C2024 C795 0.832 . S
C2005 C177 0.817 . S
C2060 C336 1.234 . S
C2041 C227 1.212 . S
C2077 C245 1.016 . S
C2096 C748 1.017 . S
C2132 C433 1.503 . S
C2113 C255 1.536 . S
C2149 C273 0.638 . S
C2168 C723 0.647 . S
C2185 C231 1.133 . S
C2204 C485 1.165 . S
C2221 C241 1.460 . S
C2240 C671 1.430 . S
C2276 C544 1.062 . S
C2257 C259 1.065 . S
C2293 C269 0.502 . S
C2312 C791 0.478 . S
C2329 C275 0.506 . S
C2348 C340 0.483 . S
C2365 C288 1.482 . S
C2384 C637 1.478 . S
C2401 C303 1.219 . S
C2420 C523 1.225 . S
C2437 C316 0.438 . S
C2456 C684 0.452 . S
C2492 C807 1.160 . S
C2473 C233 1.174 . S
C2528 C421 1.332 . S
C2509 C247 1.324 . S
C2564 C467 1.187 . S
C2545 C302 1.200 . S
C2600 C378 1.422 . S
C2581 C330 1.427 . S
C2617 C35 0.931 . S
C2636 C829 0.949 . S
C2672 C773 1.781 . S
C2653 C50 1.802 . S
C2708 C850 0.822 . S
C2689 C3 0.846 . S
C2725 C23 1.624 . S
C2744 C718 1.583 . S
C2761 C45 1.579 . S
C2780 C616 1.549 . S
C2816 C646 0.686 . S
C2797 C8 0.713 . S
C2852 C705 1.591 . S
C2833 C21 1.564 . S
C2888 C786 0.863 . S
C2869 C37 0.874 . S
C2924 C841 1.235 . S
C2905 C161 1.246 . S
C2941 C115 1.084 1_556 S
C2960 C757 1.083 . S
C2977 C133 1.560 . S
C2996 C846 1.590 . S
C3032 C714 0.659 . S
C3013 C143 0.623 . S
C3068 C612 1.193 . S
C3049 C157 1.209 . S
C3085 C119 1.496 . S
C3104 C642 1.517 . S
C3140 C689 1.102 . S
C3121 C129 1.134 . S
C3157 C147 0.574 . S
C3176 C782 0.592 . S
C3212 C825 0.523 . S
C3193 C149 0.547 . S
C3248 C472 1.523 . S
C3229 C78 1.523 . S
C3284 C514 1.273 . S
C3265 C93 1.269 . S
C3301 C106 0.481 . S
C3320 C557 0.457 . S
C3356 C778 1.230 . S
C3337 C163 1.219 . S
C3373 C121 1.369 . S
C3392 C854 1.378 . S
C3428 C438 1.235 . S
C3409 C92 1.240 . S
C3464 C387 1.452 . S
C3445 C64 1.468 . S
C3481 C199 0.873 . S
C3500 C820 0.849 . S
C3536 C370 1.726 . S
C3517 C218 1.744 . S
C3572 C859 0.801 . S
C3553 C175 0.816 1_455 S
C3589 C191 1.561 . S
C3608 C455 1.521 . S
C3625 C217 1.475 . S
C3644 C625 1.486 . S
C3661 C176 0.658 . S
C3680 C519 0.641 . S
C3697 C185 1.535 . S
C3716 C676 1.532 . S
C3733 C205 0.811 . S
C3752 C591 0.831 . S
C3788 C812 1.216 . S
C3769 C325 1.212 . S
C3805 C287 1.025 . S
C3824 C374 1.023 . S
C3860 C875 1.504 . S
C3841 C297 1.537 . S
C3877 C315 0.628 . S
C3896 C451 0.554 . S
C3913 C329 1.146 . S
C3932 C621 1.152 . S
C3968 C535 1.459 . S
C3949 C283 1.467 . S
C3985 C301 1.068 . S
C4004 C680 1.105 . S
C4040 C587 0.480 . S
C4021 C311 0.501 . S
C4076 C816 0.486 . S
C4057 C317 0.507 . S
C4112 C501 1.478 . S
C4093 C246 1.481 . S
C4129 C261 1.219 . S
C4148 C659 1.215 . S
C4184 C548 0.476 . S
C4165 C274 0.427 . S
C4220 C603 1.180 . S
C4201 C331 1.176 . S
C4237 C289 1.321 . S
C4256 C863 1.326 . S
C4292 C739 1.193 . S
C4273 C260 1.199 . S
C4328 C752 1.414 . S
C4309 C232 1.428 . S
