# Generated by pormake.
# Topology ocu, (6,8)-cn, num edge types: 1
# Building blocks:
#     Node 0, Type 0, BuildingBlock: NUHQIS_clean_sbu_0, # of connection points: 6
#     Node 1, Type 0, BuildingBlock: NUHQIS_clean_sbu_0, # of connection points: 6
#     Node 2, Type 0, BuildingBlock: NUHQIS_clean_sbu_0, # of connection points: 6
#     Node 3, Type 0, BuildingBlock: NUHQIS_clean_sbu_0, # of connection points: 6
#     Node 4, Type 0, BuildingBlock: NUHQIS_clean_sbu_0, # of connection points: 6
#     Node 5, Type 0, BuildingBlock: NUHQIS_clean_sbu_0, # of connection points: 6
#     Node 6, Type 0, BuildingBlock: NUHQIS_clean_sbu_0, # of connection points: 6
#     Node 7, Type 0, BuildingBlock: NUHQIS_clean_sbu_0, # of connection points: 6
#     Node 8, Type 1, BuildingBlock: GIZVER_clean_sbu_0, # of connection points: 8
#     Node 9, Type 1, BuildingBlock: GIZVER_clean_sbu_0, # of connection points: 8
#     Node 10, Type 1, BuildingBlock: GIZVER_clean_sbu_0, # of connection points: 8
#     Node 11, Type 1, BuildingBlock: GIZVER_clean_sbu_0, # of connection points: 8
#     Node 12, Type 1, BuildingBlock: GIZVER_clean_sbu_0, # of connection points: 8
#     Node 13, Type 1, BuildingBlock: GIZVER_clean_sbu_0, # of connection points: 8
#     Edge 14, Type (0, 1), BuildingBlock: XIVTED_clean_linker_0, # of connection points: 2
#     Edge 15, Type (0, 1), BuildingBlock: XIVTED_clean_linker_0, # of connection points: 2
#     Edge 16, Type (0, 1), BuildingBlock: XIVTED_clean_linker_0, # of connection points: 2
#     Edge 17, Type (0, 1), BuildingBlock: XIVTED_clean_linker_0, # of connection points: 2
#     Edge 18, Type (0, 1), BuildingBlock: XIVTED_clean_linker_0, # of connection points: 2
#     Edge 19, Type (0, 1), BuildingBlock: XIVTED_clean_linker_0, # of connection points: 2
#     Edge 20, Type (0, 1), BuildingBlock: XIVTED_clean_linker_0, # of connection points: 2
#     Edge 21, Type (0, 1), BuildingBlock: XIVTED_clean_linker_0, # of connection points: 2
#     Edge 22, Type (0, 1), BuildingBlock: XIVTED_clean_linker_0, # of connection points: 2
#     Edge 23, Type (0, 1), BuildingBlock: XIVTED_clean_linker_0, # of connection points: 2
#     Edge 24, Type (0, 1), BuildingBlock: XIVTED_clean_linker_0, # of connection points: 2
#     Edge 25, Type (0, 1), BuildingBlock: XIVTED_clean_linker_0, # of connection points: 2
#     Edge 26, Type (0, 1), BuildingBlock: XIVTED_clean_linker_0, # of connection points: 2
#     Edge 27, Type (0, 1), BuildingBlock: XIVTED_clean_linker_0, # of connection points: 2
#     Edge 28, Type (0, 1), BuildingBlock: XIVTED_clean_linker_0, # of connection points: 2
#     Edge 29, Type (0, 1), BuildingBlock: XIVTED_clean_linker_0, # of connection points: 2
#     Edge 30, Type (0, 1), BuildingBlock: XIVTED_clean_linker_0, # of connection points: 2
#     Edge 31, Type (0, 1), BuildingBlock: XIVTED_clean_linker_0, # of connection points: 2
#     Edge 32, Type (0, 1), BuildingBlock: XIVTED_clean_linker_0, # of connection points: 2
#     Edge 33, Type (0, 1), BuildingBlock: XIVTED_clean_linker_0, # of connection points: 2
#     Edge 34, Type (0, 1), BuildingBlock: XIVTED_clean_linker_0, # of connection points: 2
#     Edge 35, Type (0, 1), BuildingBlock: XIVTED_clean_linker_0, # of connection points: 2
#     Edge 36, Type (0, 1), BuildingBlock: XIVTED_clean_linker_0, # of connection points: 2
#     Edge 37, Type (0, 1), BuildingBlock: XIVTED_clean_linker_0, # of connection points: 2
#     Edge 38, Type (0, 1), BuildingBlock: XIVTED_clean_linker_0, # of connection points: 2
#     Edge 39, Type (0, 1), BuildingBlock: XIVTED_clean_linker_0, # of connection points: 2
#     Edge 40, Type (0, 1), BuildingBlock: XIVTED_clean_linker_0, # of connection points: 2
#     Edge 41, Type (0, 1), BuildingBlock: XIVTED_clean_linker_0, # of connection points: 2
#     Edge 42, Type (0, 1), BuildingBlock: XIVTED_clean_linker_0, # of connection points: 2
#     Edge 43, Type (0, 1), BuildingBlock: XIVTED_clean_linker_0, # of connection points: 2
#     Edge 44, Type (0, 1), BuildingBlock: XIVTED_clean_linker_0, # of connection points: 2
#     Edge 45, Type (0, 1), BuildingBlock: XIVTED_clean_linker_0, # of connection points: 2
#     Edge 46, Type (0, 1), BuildingBlock: XIVTED_clean_linker_0, # of connection points: 2
#     Edge 47, Type (0, 1), BuildingBlock: XIVTED_clean_linker_0, # of connection points: 2
#     Edge 48, Type (0, 1), BuildingBlock: XIVTED_clean_linker_0, # of connection points: 2
#     Edge 49, Type (0, 1), BuildingBlock: XIVTED_clean_linker_0, # of connection points: 2
#     Edge 50, Type (0, 1), BuildingBlock: XIVTED_clean_linker_0, # of connection points: 2
#     Edge 51, Type (0, 1), BuildingBlock: XIVTED_clean_linker_0, # of connection points: 2
#     Edge 52, Type (0, 1), BuildingBlock: XIVTED_clean_linker_0, # of connection points: 2
#     Edge 53, Type (0, 1), BuildingBlock: XIVTED_clean_linker_0, # of connection points: 2
#     Edge 54, Type (0, 1), BuildingBlock: XIVTED_clean_linker_0, # of connection points: 2
#     Edge 55, Type (0, 1), BuildingBlock: XIVTED_clean_linker_0, # of connection points: 2
#     Edge 56, Type (0, 1), BuildingBlock: XIVTED_clean_linker_0, # of connection points: 2
#     Edge 57, Type (0, 1), BuildingBlock: XIVTED_clean_linker_0, # of connection points: 2
#     Edge 58, Type (0, 1), BuildingBlock: XIVTED_clean_linker_0, # of connection points: 2
#     Edge 59, Type (0, 1), BuildingBlock: XIVTED_clean_linker_0, # of connection points: 2
#     Edge 60, Type (0, 1), BuildingBlock: XIVTED_clean_linker_0, # of connection points: 2
#     Edge 61, Type (0, 1), BuildingBlock: XIVTED_clean_linker_0, # of connection points: 2
# Relax obj value: 0.233
# Max RMSD: 0.288
# Mean RMSD: 0.186
data_MOF--net-ocu--node1-NUHQIS_clean_sbu_0--node2-GIZVER_clean_sbu_0--edge1-XIVTED_clean_linker_0
_symmetry_space_group_name_H-M    P1
_symmetry_Int_Tables_number       1
_symmetry_cell_setting            triclinic
loop_
_symmetry_equiv_pos_as_xyz
'x, y, z'
_cell_length_a     43.58789
_cell_length_b     46.701619
_cell_length_c     34.462207
_cell_angle_alpha  95.903976
_cell_angle_beta   85.62826
_cell_angle_gamma 111.38306
loop_
_atom_site_label
_atom_site_type_symbol
_atom_site_fract_x
_atom_site_fract_y
_atom_site_fract_z
_atom_type_partial_charge
Tb0 Tb 0.26489 0.2619 0.2652 0.0
Eu1 Eu 0.31217 0.28925 0.33446 0.0
C2 C 0.32789 0.23567 0.26794 0.0
C3 C 0.25028 0.22375 0.34059 0.0
C4 C 0.22532 0.25691 0.17379 0.0
C5 C 0.20538 0.25502 0.10948 0.0
C6 C 0.20805 0.23987 0.14131 0.0
C7 C 0.24087 0.28895 0.17375 0.0
C8 C 0.23835 0.30402 0.1421 0.0
C9 C 0.22018 0.28732 0.10983 0.0
C10 C 0.22851 0.24154 0.20723 0.0
O11 O 0.24342 0.29843 0.2955 0.0
O12 O 0.27533 0.3164 0.34821 0.0
O13 O 0.33433 0.32479 0.29051 0.0
O14 O 0.30339 0.29971 0.23836 0.0
C15 C 0.25021 0.31713 0.32898 0.0
O16 O 0.3181 0.3079 0.39493 0.0
O17 O 0.36104 0.30818 0.35895 0.0
O18 O 0.33775 0.25622 0.299 0.0
O19 O 0.29935 0.23361 0.25304 0.0
O20 O 0.24099 0.22792 0.30701 0.0
O21 O 0.27735 0.24348 0.35623 0.0
C22 C 0.32814 0.32263 0.25352 0.0
O23 O 0.25716 0.23935 0.20898 0.0
O24 O 0.21878 0.25126 0.24094 0.0
C25 C 0.36291 0.30541 0.42718 0.0
C26 C 0.38695 0.28548 0.48861 0.0
C27 C 0.40706 0.29551 0.45511 0.0
C28 C 0.39519 0.30549 0.42476 0.0
C29 C 0.34363 0.29755 0.46183 0.0
C30 C 0.35554 0.28761 0.49226 0.0
C31 C 0.34975 0.31394 0.39387 0.0
H32 H 0.19124 0.2416 0.085 0.0
H33 H 0.19634 0.21501 0.14081 0.0
H34 H 0.25443 0.30241 0.19858 0.0
H35 H 0.24937 0.32896 0.14387 0.0
H36 H 0.43125 0.29381 0.45114 0.0
H37 H 0.41087 0.31221 0.39881 0.0
H38 H 0.31895 0.29816 0.46506 0.0
H39 H 0.33968 0.28036 0.51794 0.0
Tb40 Tb 0.82911 0.26483 0.29163 0.0
Eu41 Eu 0.7845 0.30761 0.2876 0.0
C42 C 0.77545 0.24842 0.22758 0.0
C43 C 0.85728 0.32553 0.24739 0.0
C44 C 0.89529 0.23632 0.31124 0.0
C45 C 0.94024 0.21798 0.3145 0.0
C46 C 0.91431 0.21943 0.29439 0.0
C47 C 0.90414 0.2539 0.34698 0.0
C48 C 0.92989 0.25224 0.36731 0.0
C49 C 0.94727 0.23322 0.35196 0.0
C50 C 0.86448 0.23272 0.29334 0.0
O51 O 0.84103 0.29389 0.346 0.0
O52 O 0.8105 0.32485 0.343 0.0
O53 O 0.75676 0.27454 0.33306 0.0
O54 O 0.77954 0.2376 0.31474 0.0
C55 C 0.83079 0.31612 0.36052 0.0
O56 O 0.78414 0.35429 0.29284 0.0
O57 O 0.74004 0.31573 0.27586 0.0
O58 O 0.7618 0.26686 0.24614 0.0
O59 O 0.80406 0.24814 0.23674 0.0
O60 O 0.86328 0.30934 0.27291 0.0
O61 O 0.82674 0.3226 0.24213 0.0
C62 C 0.75678 0.24645 0.33427 0.0
O63 O 0.83954 0.23108 0.31757 0.0
O64 O 0.86672 0.25021 0.26533 0.0
C65 C 0.75385 0.3613 0.24445 0.0
C66 C 0.75422 0.39284 0.17928 0.0
C67 C 0.74543 0.4032 0.21681 0.0
C68 C 0.74527 0.38752 0.24916 0.0
C69 C 0.76333 0.35118 0.20728 0.0
C70 C 0.76333 0.36676 0.17482 0.0
C71 C 0.75501 0.34566 0.27856 0.0
H72 H 0.95291 0.20285 0.3021 0.0
H73 H 0.9079 0.20588 0.26673 0.0
H74 H 0.88995 0.26744 0.36024 0.0
H75 H 0.93494 0.26432 0.39602 0.0
H76 H 0.73761 0.42286 0.22104 0.0
H77 H 0.73831 0.39576 0.27778 0.0
H78 H 0.77062 0.33119 0.20339 0.0
H79 H 0.77021 0.35833 0.14629 0.0
Tb80 Tb 0.7629 0.76574 0.31456 0.0
Eu81 Eu 0.81834 0.78383 0.24762 0.0
C82 C 0.75261 0.72455 0.23631 0.0
C83 C 0.82328 0.73829 0.31598 0.0
C84 C 0.70101 0.76931 0.39357 0.0
C85 C 0.65626 0.78871 0.40591 0.0
C86 C 0.67058 0.76981 0.3837 0.0
C87 C 0.71578 0.78654 0.4276 0.0
C88 C 0.70141 0.80541 0.44987 0.0
C89 C 0.67195 0.8073 0.43866 0.0
C90 C 0.71772 0.75185 0.36761 0.0
O91 O 0.79444 0.81146 0.33785 0.0
O92 O 0.8394 0.82068 0.29523 0.0
O93 O 0.78884 0.81569 0.23775 0.0
O94 O 0.74301 0.7921 0.27569 0.0
C95 C 0.82514 0.82751 0.32776 0.0
O96 O 0.86928 0.79322 0.22612 0.0
O97 O 0.83335 0.79476 0.18749 0.0
O98 O 0.77496 0.74731 0.21957 0.0
O99 O 0.75074 0.72424 0.27439 0.0
O100 O 0.79939 0.74622 0.33525 0.0
O101 O 0.83081 0.74652 0.27931 0.0
C102 C 0.75758 0.81188 0.24824 0.0
O103 O 0.71228 0.7491 0.33053 0.0
O104 O 0.74875 0.75826 0.37325 0.0
C105 C 0.87343 0.77486 0.16086 0.0
C106 C 0.89553 0.73322 0.11284 0.0
C107 C 0.91795 0.76219 0.12656 0.0
C108 C 0.90695 0.78283 0.15031 0.0
C109 C 0.85073 0.74661 0.14585 0.0
C110 C 0.86167 0.72605 0.12179 0.0
C111 C 0.86292 0.79475 0.19028 0.0
H112 H 0.63371 0.78986 0.39621 0.0
H113 H 0.65838 0.75644 0.35799 0.0
H114 H 0.73894 0.78618 0.43648 0.0
H115 H 0.71378 0.81909 0.47531 0.0
H116 H 0.94425 0.76831 0.12088 0.0
H117 H 0.92478 0.80446 0.16186 0.0
H118 H 0.82467 0.73995 0.15379 0.0
H119 H 0.84375 0.70413 0.11131 0.0
Tb120 Tb 0.30127 0.77486 0.31055 0.0
Eu121 Eu 0.25775 0.81358 0.28507 0.0
C122 C 0.31363 0.84239 0.35137 0.0
C123 C 0.23271 0.76444 0.34815 0.0
C124 C 0.33944 0.71786 0.2992 0.0
C125 C 0.3807 0.70455 0.25832 0.0
C126 C 0.3724 0.721 0.29086 0.0
C127 C 0.31462 0.69611 0.27645 0.0
C128 C 0.3229 0.6796 0.244 0.0
C129 C 0.35611 0.68471 0.23377 0.0
C130 C 0.33202 0.74143 0.32562 0.0
O131 O 0.2653 0.74187 0.27147 0.0
O132 O 0.25241 0.77513 0.23731 0.0
O133 O 0.30869 0.83765 0.26208 0.0
O134 O 0.32547 0.79621 0.25729 0.0
C135 C 0.25176 0.74728 0.24165 0.0
O136 O 0.23497 0.82682 0.239 0.0
O137 O 0.22879 0.84275 0.2994 0.0
O138 O 0.28697 0.84325 0.3364 0.0
O139 O 0.32389 0.81918 0.34287 0.0
O140 O 0.26389 0.77383 0.35624 0.0
O141 O 0.22418 0.77375 0.31759 0.0
C142 C 0.3296 0.82437 0.24918 0.0
O143 O 0.34653 0.76948 0.31537 0.0
O144 O 0.30103 0.73564 0.33559 0.0
C145 C 0.18254 0.82573 0.26255 0.0
C146 C 0.12053 0.80495 0.30031 0.0
C147 C 0.13328 0.83477 0.28716 0.0
C148 C 0.16454 0.8453 0.26873 0.0
C149 C 0.16691 0.79424 0.26827 0.0
C150 C 0.13592 0.78385 0.28729 0.0
C151 C 0.21842 0.83915 0.26403 0.0
H152 H 0.40648 0.70832 0.25142 0.0
H153 H 0.39189 0.7377 0.30794 0.0
H154 H 0.28894 0.69325 0.28216 0.0
H155 H 0.30351 0.66437 0.22558 0.0
H156 H 0.12179 0.85148 0.29666 0.0
H157 H 0.17625 0.86962 0.26438 0.0
H158 H 0.18049 0.77874 0.26339 0.0
H159 H 0.12639 0.76071 0.29685 0.0
Tb160 Tb 0.33517 0.76043 0.76261 0.0
Eu161 Eu 0.28218 0.79056 0.79584 0.0
C162 C 0.26469 0.7359 0.72348 0.0
C163 C 0.34115 0.82398 0.73601 0.0
C164 C 0.38716 0.71241 0.74341 0.0
C165 C 0.42992 0.69184 0.74949 0.0
C166 C 0.41924 0.71302 0.73445 0.0
C167 C 0.36491 0.68895 0.7647 0.0
C168 C 0.37555 0.66773 0.77971 0.0
C169 C 0.40859 0.66995 0.77376 0.0
C170 C 0.37959 0.73954 0.73766 0.0
O171 O 0.36215 0.79988 0.80415 0.0
O172 O 0.31978 0.80392 0.84468 0.0
O173 O 0.26088 0.742 0.81283 0.0
O174 O 0.3079 0.7304 0.80904 0.0
C175 C 0.35181 0.81017 0.83788 0.0
O176 O 0.26421 0.82779 0.79206 0.0
O177 O 0.23955 0.79313 0.83235 0.0
O178 O 0.26087 0.76173 0.73873 0.0
O179 O 0.29009 0.72947 0.73314 0.0
O180 O 0.34115 0.79647 0.72359 0.0
O181 O 0.32452 0.82758 0.76811 0.0
C182 C 0.27643 0.72384 0.81951 0.0
O183 O 0.35339 0.73523 0.71865 0.0
O184 O 0.38126 0.75782 0.76914 0.0
C185 C 0.20736 0.81428 0.80002 0.0
C186 C 0.15704 0.82035 0.75852 0.0
C187 C 0.16748 0.83851 0.79363 0.0
C188 C 0.19257 0.83559 0.81408 0.0
C189 C 0.19533 0.79451 0.76666 0.0
C190 C 0.1704 0.79753 0.74603 0.0
C191 C 0.23874 0.81669 0.81568 0.0
H192 H 0.45538 0.69373 0.74408 0.0
H193 H 0.43669 0.7312 0.7182 0.0
H194 H 0.34013 0.68847 0.77218 0.0
H195 H 0.35864 0.65125 0.79856 0.0
H196 H 0.15797 0.85651 0.80384 0.0
H197 H 0.20181 0.85128 0.83953 0.0
H198 H 0.20657 0.77801 0.75528 0.0
H199 H 0.16265 0.78299 0.71933 0.0
Tb200 Tb 0.30942 0.29793 0.74526 0.0
Eu201 Eu 0.29971 0.25348 0.81887 0.0
C202 C 0.36283 0.31447 0.80926 0.0
C203 C 0.33972 0.24518 0.73794 0.0
C204 C 0.28826 0.34224 0.67447 0.0
C205 C 0.27628 0.38262 0.64645 0.0
C206 C 0.29894 0.37143 0.65999 0.0
C207 C 0.25442 0.32416 0.6746 0.0
C208 C 0.23171 0.33525 0.6607 0.0
C209 C 0.24231 0.36483 0.64692 0.0
C210 C 0.31248 0.33182 0.69101 0.0
O211 O 0.26897 0.25534 0.73038 0.0
O212 O 0.2513 0.23343 0.78894 0.0
O213 O 0.27937 0.29068 0.84112 0.0
O214 O 0.27032 0.30592 0.78302 0.0
C215 C 0.24724 0.2351 0.75192 0.0
O216 O 0.28691 0.20882 0.84307 0.0
O217 O 0.30451 0.25094 0.88086 0.0
O218 O 0.35283 0.28541 0.81664 0.0
O219 O 0.34571 0.32451 0.78793 0.0
O220 O 0.34439 0.27377 0.73062 0.0
O221 O 0.31942 0.23158 0.76633 0.0
C222 C 0.26678 0.30606 0.82126 0.0
O223 O 0.32024 0.34231 0.72678 0.0
O224 O 0.30797 0.30257 0.68534 0.0
C225 C 0.31635 0.20839 0.89802 0.0
C226 C 0.3543 0.18348 0.93755 0.0
C227 C 0.31999 0.17445 0.94499 0.0
C228 C 0.30128 0.18677 0.92542 0.0
C229 C 0.3506 0.21785 0.89065 0.0
C230 C 0.36943 0.20554 0.91031 0.0
C231 C 0.29587 0.22101 0.87808 0.0
H232 H 0.2854 0.40534 0.63566 0.0
H233 H 0.32486 0.38582 0.65968 0.0
H234 H 0.24548 0.30169 0.68605 0.0
H235 H 0.20575 0.32106 0.66186 0.0
H236 H 0.30754 0.15791 0.96615 0.0
H237 H 0.27493 0.17937 0.93175 0.0
H238 H 0.36272 0.2346 0.8696 0.0
H239 H 0.3957 0.2128 0.90355 0.0
Tb240 Tb 0.8206 0.26422 0.78265 0.0
Eu241 Eu 0.77382 0.30211 0.80852 0.0
C242 C 0.83961 0.31342 0.85096 0.0
C243 C 0.75856 0.23356 0.84255 0.0
C244 C 0.87857 0.24144 0.71917 0.0
C245 C 0.92718 0.24219 0.68007 0.0
C246 C 0.90987 0.23947 0.71601 0.0
C247 C 0.86528 0.24758 0.68645 0.0
C248 C 0.88243 0.24998 0.65033 0.0
C249 C 0.91333 0.24684 0.64672 0.0
C250 C 0.86074 0.23906 0.75708 0.0
O251 O 0.78632 0.25367 0.73562 0.0
O252 O 0.74309 0.26411 0.76736 0.0
O253 O 0.80413 0.32774 0.75688 0.0
O254 O 0.84544 0.30826 0.75351 0.0
C255 C 0.7549 0.25003 0.73861 0.0
O256 O 0.74999 0.31943 0.85804 0.0
O257 O 0.74718 0.33246 0.79996 0.0
O258 O 0.82322 0.32688 0.83436 0.0
O259 O 0.83416 0.28425 0.84144 0.0
O260 O 0.78373 0.23073 0.82039 0.0
O261 O 0.75179 0.25908 0.84344 0.0
C262 C 0.83371 0.32885 0.74338 0.0
O263 O 0.869 0.26469 0.77942 0.0
O264 O 0.82883 0.22498 0.75635 0.0
C265 C 0.75891 0.37147 0.85177 0.0
C266 C 0.78639 0.43377 0.88023 0.0
C267 C 0.76006 0.42382 0.85472 0.0
C268 C 0.74641 0.3929 0.84069 0.0
C269 C 0.78633 0.38164 0.87564 0.0
C270 C 0.7998 0.41249 0.88995 0.0
C271 C 0.74412 0.33878 0.83758 0.0
H272 H 0.95067 0.23901 0.678 0.0
H273 H 0.92068 0.23532 0.74117 0.0
H274 H 0.8414 0.25001 0.68866 0.0
H275 H 0.87121 0.25342 0.62507 0.0
H276 H 0.7487 0.43956 0.84735 0.0
H277 H 0.72561 0.3856 0.82194 0.0
H278 H 0.79692 0.36564 0.88408 0.0
H279 H 0.81994 0.41951 0.90965 0.0
Tb280 Tb 0.76611 0.76233 0.75289 0.0
Eu281 Eu 0.81959 0.77322 0.82147 0.0
C282 C 0.82129 0.72939 0.73786 0.0
C283 C 0.74988 0.71458 0.81857 0.0
C284 C 0.71073 0.7803 0.68966 0.0
C285 C 0.66458 0.79018 0.66573 0.0
C286 C 0.67808 0.76966 0.67782 0.0
C287 C 0.72975 0.81185 0.68906 0.0
C288 C 0.71637 0.83235 0.67678 0.0
C289 C 0.68348 0.82189 0.66516 0.0
C290 C 0.72433 0.75842 0.70323 0.0
O291 O 0.75069 0.79081 0.80132 0.0
O292 O 0.79154 0.80515 0.84587 0.0
O293 O 0.84245 0.81536 0.78786 0.0
O294 O 0.80523 0.80595 0.73977 0.0
C295 C 0.76382 0.8065 0.83419 0.0
O296 O 0.83101 0.77098 0.88154 0.0
O297 O 0.87055 0.7846 0.83768 0.0
O298 O 0.83195 0.7403 0.77338 0.0
O299 O 0.79647 0.73536 0.72479 0.0
O300 O 0.74558 0.71956 0.78275 0.0
O301 O 0.77449 0.73342 0.839 0.0
C302 C 0.83299 0.82293 0.75639 0.0
O303 O 0.7554 0.76351 0.69471 0.0
O304 O 0.71658 0.75138 0.73914 0.0
C305 C 0.87749 0.75633 0.88764 0.0
C306 C 0.90781 0.71762 0.91367 0.0
C307 C 0.87327 0.70938 0.91643 0.0
C308 C 0.85828 0.72843 0.90351 0.0
C309 C 0.91194 0.76483 0.88539 0.0
C310 C 0.92692 0.74573 0.89812 0.0
C311 C 0.8623 0.77682 0.8733 0.0
H312 H 0.6391 0.78122 0.6576 0.0
H313 H 0.66287 0.74544 0.67827 0.0
H314 H 0.755 0.82072 0.69815 0.0
H315 H 0.73197 0.85642 0.6762 0.0
H316 H 0.85769 0.6882 0.92875 0.0
H317 H 0.83166 0.7212 0.90582 0.0
H318 H 0.92734 0.78621 0.87335 0.0
H319 H 0.95349 0.75273 0.89492 0.0
Co320 Co 0.04536 0.94502 0.53711 0.0
Co321 Co 0.06454 0.98121 0.6005 0.0
Co322 Co 0.04341 0.01687 0.54347 0.0
O323 O 0.06815 0.98932 0.54875 0.0
H324 H 0.09074 0.99722 0.53879 0.0
O325 O 1.01725 0.0424 0.53603 0.0
Co326 Co 0.03402 0.08619 0.54323 0.0
Co327 Co 1.02175 0.04565 0.48138 0.0
H328 H 0.99434 0.03303 0.54441 0.0
O329 O 0.09367 0.967 0.61973 0.0
O330 O 0.04446 0.93845 0.59372 0.0
O331 O 0.03603 0.99635 0.63513 0.0
O332 O 1.00743 0.99587 0.5846 0.0
O333 O 0.06929 0.04796 0.58466 0.0
O334 O 0.04585 0.12688 0.54935 0.0
O335 O 0.99513 0.09068 0.54176 0.0
O336 O 0.07714 0.08662 0.54817 0.0
O337 O 0.08022 0.03924 0.50409 0.0
O338 O 0.05412 0.03306 0.45009 0.0
O339 O 0.03988 0.08814 0.48532 0.0
O340 O 0.99344 0.05741 0.45574 0.0
C341 C 0.05864 0.90826 0.51989 0.0
C342 C 0.99745 0.96034 0.51095 0.0
C343 C 1.00861 0.99183 0.62072 0.0
C344 C 0.07055 0.94047 0.61187 0.0
C345 C 1.01436 0.11963 0.54574 0.0
C346 C 0.08367 0.0764 0.57826 0.0
C347 C 0.08094 0.0422 0.46745 0.0
C348 C 1.01549 0.08462 0.46334 0.0
O349 O 1.028 0.90539 0.52574 0.0
O350 O 0.08191 0.935 0.52813 0.0
O351 O 1.0172 0.9868 0.50221 0.0
O352 O 1.00315 0.94861 0.54016 0.0
Co353 Co 0.60227 0.95025 0.03596 0.0
Co354 Co 0.60654 0.96982 0.10736 0.0
Co355 Co 0.56458 0.013 0.06902 0.0
O356 O 0.6033 0.99276 0.06429 0.0
H357 H 0.62451 1.00855 0.05925 0.0
O358 O 0.52379 0.03117 0.07866 0.0
Co359 Co 0.51456 0.07087 0.11319 0.0
Co360 Co 0.52617 0.05689 0.04003 0.0
H361 H 0.50303 0.01401 0.07702 0.0
O362 O 0.64543 0.96666 0.12735 0.0
O363 O 0.61022 0.93042 0.088 0.0
O364 O 0.56706 0.96137 0.13975 0.0
O365 O 0.53917 0.98537 0.11139 0.0
O366 O 0.58885 0.04792 0.10794 0.0
O367 O 0.50665 0.10753 0.14419 0.0
O368 O 0.46559 0.06923 0.12175 0.0
O369 O 0.56264 0.08317 0.11465 0.0
O370 O 0.59294 0.04251 0.02485 0.0
O371 O 0.56579 0.07181 0.0097 0.0
O372 O 0.51622 0.08985 0.06421 0.0
O373 O 0.48823 0.05312 0.01828 0.0
C374 C 0.63594 0.92933 1.00324 0.0
C375 C 0.53414 0.94838 0.02422 0.0
C376 C 0.54126 0.96749 0.13628 0.0
C377 C 0.63528 0.93823 0.11247 0.0
C378 C 0.47482 0.09671 0.14125 0.0
C379 C 0.58856 0.07572 0.11453 0.0
C380 C 0.5913 0.0648 1.00586 0.0
C381 C 0.4925 0.07895 0.03934 0.0
O382 O 0.60415 0.91516 1.00671 0.0
O383 O 0.64772 0.9572 0.0213 0.0
O384 O 0.53916 0.97782 0.0287 0.0
O385 O 0.55251 0.93659 0.04031 0.0
Co386 Co 0.10888 0.45305 0.98991 0.0
Co387 Co 0.11643 0.47484 0.0639 0.0
Co388 Co 0.07959 0.51114 0.02134 0.0
O389 O 0.11494 0.49299 0.01867 0.0
H390 H 0.13642 0.50811 0.01285 0.0
O391 O 0.04385 0.52812 0.02189 0.0
Co392 Co 0.04911 0.56922 0.0403 0.0
Co393 Co 0.0419 0.53881 0.97155 0.0
H394 H 1.02269 0.51346 0.02987 0.0
O395 O 0.1542 0.46717 0.07517 0.0
O396 O 0.11222 0.43682 0.03877 0.0
O397 O 0.07885 0.46717 0.0997 0.0
O398 O 0.04915 0.48259 0.06232 0.0
O399 O 0.10337 0.54391 0.06334 0.0
O400 O 0.05028 0.60639 0.05807 0.0
O401 O 1.00599 0.56261 0.04944 0.0
O402 O 0.09553 0.58086 0.03458 0.0
O403 O 0.10972 0.53965 0.98136 0.0
O404 O 0.07812 0.54111 0.93473 0.0
O405 O 0.04551 0.57922 0.98583 0.0
O406 O 1.00397 0.54178 0.95488 0.0
C407 C 0.13944 0.43179 0.96007 0.0
C408 C 0.04524 0.45138 0.98238 0.0
C409 C 0.05149 0.46858 0.09178 0.0
C410 C 0.13982 0.44147 0.05453 0.0
C411 C 1.01844 0.59225 0.05887 0.0
C412 C 0.11035 0.57275 0.0595 0.0
C413 C 0.10648 0.54694 0.94743 0.0
C414 C 1.01781 0.57046 0.96784 0.0
O415 O 0.10765 0.4177 0.96322 0.0
O416 O 0.15244 0.46 0.97614 0.0
O417 O 0.05553 0.4803 0.97917 0.0
O418 O 0.06252 0.43974 0.99881 0.0
Co419 Co 0.60501 0.49843 1.00182 0.0
Co420 Co 0.57047 0.46819 0.05458 0.0
Co421 Co 0.5424 0.51886 0.03836 0.0
O422 O 0.5797 0.50717 0.04584 0.0
H423 H 0.59348 0.52053 0.06598 0.0
O424 O 0.50537 0.53115 0.0313 0.0
Co425 Co 0.50677 0.57217 0.04039 0.0
Co426 Co 0.50826 0.53614 0.9786 0.0
H427 H 0.48447 0.51586 0.03858 0.0
O428 O 0.59798 0.46528 0.08967 0.0
O429 O 0.60308 0.45982 0.02356 0.0
O430 O 0.52361 0.44578 0.06428 0.0
O431 O 0.51265 0.48931 0.07747 0.0
O432 O 0.55797 0.5521 0.08057 0.0
O433 O 0.50296 0.60872 0.04915 0.0
O434 O 0.4631 0.56178 0.03966 0.0
O435 O 0.55447 0.58873 0.04679 0.0
O436 O 0.57381 0.54812 0.99997 0.0
O437 O 0.54647 0.53614 0.94599 0.0
O438 O 0.50987 0.5761 0.98238 0.0
O439 O 0.47193 0.53243 0.95464 0.0
C440 C 0.65407 0.51254 0.98901 0.0
C441 C 0.53699 0.47014 0.9728 0.0
C442 C 0.50503 0.46004 0.07961 0.0
C443 C 0.614 0.46021 0.05788 0.0
C444 C 0.47186 0.59148 0.0476 0.0
C445 C 0.56706 0.58043 0.07417 0.0
C446 C 0.57332 0.54912 0.96302 0.0
C447 C 0.48521 0.56235 0.95928 0.0
O448 O 0.63318 0.4943 0.96402 0.0
O449 O 0.64363 0.52065 0.0232 0.0
O450 O 0.52465 0.48619 0.99612 0.0
O451 O 0.56714 0.47329 0.97329 0.0
Co452 Co 0.08943 0.5027 0.52518 0.0
Co453 Co 0.07968 0.49952 0.45558 0.0
Co454 Co 1.02876 0.53919 0.50902 0.0
O455 O 0.04908 0.50245 0.49926 0.0
H456 H 0.03158 0.48265 0.50128 0.0
O457 O 1.00764 0.57616 0.51452 0.0
Co458 Co 0.96581 0.57972 0.486 0.0
Co459 Co 0.974 0.57137 0.55481 0.0
H460 H 1.02488 0.59619 0.51831 0.0
O461 O 0.08458 0.46212 0.42626 0.0
O462 O 0.11689 0.48986 0.47348 0.0
O463 O 0.09337 0.53996 0.43484 0.0
O464 O 0.05907 0.5629 0.46577 0.0
O465 O 0.99266 0.51755 0.47215 0.0
O466 O 0.93021 0.58387 0.45744 0.0
O467 O 0.97255 0.62394 0.47623 0.0
O468 O 0.95 0.53458 0.48668 0.0
O469 O 0.99802 0.51271 0.55354 0.0
O470 O 0.95864 0.53097 0.57704 0.0
O471 O 0.94055 0.58543 0.53916 0.0
O472 O 0.97477 0.60532 0.58893 0.0
C473 C 0.10356 0.47229 0.55227 0.0
C474 C 0.09734 0.56696 0.54542 0.0
C475 C 0.08307 0.5626 0.44138 0.0
C476 C 0.11084 0.46643 0.44509 0.0
C477 C 0.94454 0.61369 0.45779 0.0
C478 C 0.96182 0.51274 0.47948 0.0
C479 C 0.97132 0.51012 0.57522 0.0
C480 C 0.94891 0.60428 0.57149 0.0
O481 O 0.1214 0.50141 0.55239 0.0
O482 O 0.0756 0.46167 0.53443 0.0
O483 O 0.06614 0.56324 0.54687 0.0
O484 O 0.10841 0.54805 0.52393 0.0
Co485 Co 0.58258 1.01088 0.56017 0.0
Co486 Co 0.56962 0.01334 0.48922 0.0
Co487 Co 0.53143 0.04961 0.54689 0.0
O488 O 0.54597 0.0138 0.53501 0.0
H489 H 0.52735 0.99459 0.5351 0.0
O490 O 0.51619 0.08468 0.56087 0.0
Co491 Co 0.47776 0.08821 0.54236 0.0
Co492 Co 0.49599 0.08438 0.61066 0.0
H493 H 0.53466 0.10391 0.55953 0.0
O494 O 0.56624 0.97615 0.4635 0.0
O495 O 0.60302 1.00451 0.50832 0.0
O496 O 0.58596 0.05054 0.46463 0.0
O497 O 0.56443 0.07827 0.50731 0.0
O498 O 0.49758 0.03098 0.50622 0.0
O499 O 0.44438 0.09609 0.52574 0.0
O500 O 0.49375 0.12934 0.54576 0.0
O501 O 0.45629 0.044 0.53463 0.0
O502 O 0.4994 0.02104 0.58513 0.0
O503 O 0.48284 0.04658 0.63543 0.0
O504 O 0.45818 0.08966 0.59734 0.0
O505 O 0.49638 0.12083 0.63851 0.0
C506 C 0.59385 0.97597 0.58086 0.0
C507 C 0.59538 0.07359 0.5815 0.0
C508 C 0.58305 0.07601 0.47686 0.0
C509 C 0.59103 0.97975 0.48469 0.0
C510 C 0.4643 0.12425 0.5343 0.0
C511 C 0.4667 0.02592 0.51154 0.0
C512 C 0.48386 0.02158 0.61818 0.0
C513 C 0.46813 0.1137 0.62277 0.0
O514 O 0.6142 1.00446 0.58366 0.0
O515 O 0.56574 0.96928 0.56439 0.0
O516 O 0.56468 0.06825 0.58778 0.0
O517 O 0.60526 0.05437 0.56038 0.0
H518 H 0.25235 0.2078 0.41609 0.0
H519 H 0.09212 0.05208 0.38969 0.0
H520 H 0.1985 0.17482 0.3106 0.0
H521 H 0.1374 0.08505 0.50061 0.0
H522 H 0.13512 0.09463 0.35966 0.0
H523 H 0.21449 0.16175 0.44701 0.0
C524 C 0.2328 0.19095 0.39932 0.0
C525 C 0.22876 0.19559 0.36055 0.0
C526 C 0.13599 0.09252 0.39051 0.0
C527 C 0.18529 0.14253 0.39584 0.0
C528 C 0.11143 0.06793 0.40773 0.0
C529 C 0.11086 0.06462 0.44792 0.0
C530 C 0.16054 0.1145 0.41339 0.0
C531 C 0.13675 0.08632 0.46952 0.0
C532 C 0.21113 0.16462 0.41704 0.0
C533 C 0.20277 0.17271 0.34052 0.0
N534 N 0.16027 0.11038 0.45212 0.0
N535 N 0.18228 0.1475 0.35827 0.0
H536 H 1.00751 0.22727 0.33483 0.0
H537 H 0.95683 0.08959 0.45304 0.0
H538 H 0.93162 0.2165 0.42617 0.0
H539 H 0.06159 0.14117 0.44772 0.0
H540 H 0.94705 0.13462 0.43527 0.0
H541 H 0.0303 0.19671 0.36981 0.0
C542 C 0.99634 0.21936 0.3628 0.0
C543 C 0.96737 0.22398 0.37736 0.0
C544 C 0.97217 0.13611 0.4382 0.0
C545 C 0.99273 0.18888 0.41659 0.0
C546 C 0.9778 0.11036 0.44777 0.0
C547 C 1.01006 0.11171 0.45149 0.0
C548 C 0.99899 0.16309 0.43103 0.0
C549 C 0.03635 0.13936 0.44499 0.0
C550 C 1.00938 0.20208 0.3827 0.0
C551 C 0.95391 0.21342 0.41381 0.0
N552 N 0.03029 0.16401 0.43426 0.0
N553 N 0.96612 0.19554 0.43163 0.0
H554 H 0.87997 0.8774 0.31118 0.0
H555 H 0.94434 0.90792 0.52635 0.0
H556 H 0.81863 0.83257 0.40776 0.0
H557 H 0.98541 0.9733 0.43921 0.0
H558 H 0.89896 0.87876 0.48338 0.0
H559 H 0.91947 0.9121 0.35738 0.0
C560 C 0.87454 0.8752 0.34218 0.0
C561 C 0.8459 0.85207 0.35559 0.0
C562 C 0.91779 0.89963 0.47386 0.0
C563 C 0.89158 0.89124 0.40873 0.0
C564 C 0.94379 0.91621 0.49828 0.0
C565 C 0.96889 0.94303 0.48632 0.0
C566 C 0.91713 0.90965 0.43694 0.0
C567 C 0.96671 0.95274 0.44969 0.0
C568 C 0.89715 0.89498 0.36856 0.0
C569 C 0.84024 0.85023 0.39613 0.0
N570 N 0.94156 0.93592 0.4262 0.0
N571 N 0.86313 0.86921 0.42124 0.0
H572 H 0.13689 0.79021 0.36759 0.0
H573 H 0.11898 0.90274 0.50111 0.0
H574 H 0.0618 0.8135 0.3182 0.0
H575 H 1.01408 0.85324 0.4931 0.0
H576 H 0.12853 0.86305 0.45461 0.0
H577 H 0.11916 0.80567 0.43271 0.0
C578 C 0.11553 0.79704 0.37056 0.0
C579 C 0.10093 0.80097 0.33747 0.0
C580 C 0.10349 0.8605 0.46423 0.0
C581 C 0.08109 0.81883 0.41149 0.0
C582 C 0.09807 0.88319 0.49051 0.0
C583 C 0.06577 0.88166 0.50033 0.0
C584 C 0.07641 0.83674 0.44738 0.0
C585 C 0.03947 0.8557 0.48583 0.0
C586 C 0.10585 0.80623 0.40767 0.0
C587 C 0.07374 0.81035 0.343 0.0
N588 N 0.04535 0.8348 0.45902 0.0
N589 N 0.06495 0.81948 0.37947 0.0
H590 H 0.10142 0.83441 0.7784 0.0
H591 H 0.11835 0.91813 0.58715 0.0
H592 H 0.16525 0.82508 0.67979 0.0
H593 H 0.03345 0.90214 0.66621 0.0
H594 H 0.13306 0.88041 0.6182 0.0
H595 H 0.0733 0.85577 0.73674 0.0
C596 C 0.10917 0.8364 0.74786 0.0
C597 C 0.1359 0.82815 0.73266 0.0
C598 C 0.11078 0.88453 0.62832 0.0
C599 C 0.10409 0.85281 0.68496 0.0
C600 C 0.10237 0.90597 0.61049 0.0
C601 C 0.07463 0.91294 0.62415 0.0
C602 C 0.09187 0.87074 0.66091 0.0
C603 C 0.05487 0.89702 0.65474 0.0
C604 C 0.09302 0.84845 0.72406 0.0
C605 C 0.14468 0.83095 0.69278 0.0
N606 N 0.06423 0.87703 0.6727 0.0
N607 N 0.12921 0.8435 0.67053 0.0
H608 H 0.2193 0.2431 0.68836 0.0
H609 H 0.10194 0.0661 0.64926 0.0
H610 H 0.21057 0.1751 0.76844 0.0
H611 H 0.1185 0.13736 0.57109 0.0
H612 H 0.13888 0.10474 0.69546 0.0
H613 H 0.17835 0.20423 0.64837 0.0
C614 C 0.20847 0.21995 0.69776 0.0
C615 C 0.21856 0.21232 0.73168 0.0
C616 C 0.13433 0.11177 0.66815 0.0
C617 C 0.17166 0.16712 0.68532 0.0
C618 C 0.1134 0.08974 0.64171 0.0
C619 C 0.10709 0.09842 0.60613 0.0
C620 C 0.1489 0.14263 0.65891 0.0
C621 C 0.12249 0.12943 0.59802 0.0
C622 C 0.18508 0.19763 0.67476 0.0
C623 C 0.20339 0.18196 0.74254 0.0
N624 N 0.14252 0.15024 0.62412 0.0
N625 N 0.18089 0.16029 0.71915 0.0
H626 H 0.8833 0.21035 0.58348 0.0
H627 H 0.04867 0.18152 0.54343 0.0
H628 H 0.97814 0.27264 0.62205 0.0
H629 H 0.95017 0.11326 0.53852 0.0
H630 H 1.02573 0.22203 0.54283 0.0
H631 H 0.91091 0.18534 0.5349 0.0
C632 C 0.90998 0.21974 0.58054 0.0
C633 C 0.92861 0.24255 0.60796 0.0
C634 C 1.00926 0.19813 0.54113 0.0
C635 C 0.96004 0.21345 0.55369 0.0
C636 C 1.02223 0.17503 0.54209 0.0
C637 C 1.00111 0.14409 0.54274 0.0
C638 C 0.97497 0.19018 0.54113 0.0
C639 C 0.96723 0.13691 0.53948 0.0
C640 C 0.92573 0.20525 0.55298 0.0
C641 C 0.96301 0.25416 0.60239 0.0
N642 N 0.95515 0.15985 0.53945 0.0
N643 N 0.97776 0.23874 0.57666 0.0
H644 H 0.8276 0.8434 0.68563 0.0
H645 H 1.00126 0.98465 0.6991 0.0
H646 H 0.88984 0.86732 0.78447 0.0
H647 H 0.94704 0.95564 0.59356 0.0
H648 H 0.95634 0.94637 0.73327 0.0
H649 H 0.86688 0.88792 0.65409 0.0
C650 C 0.84932 0.85808 0.70094 0.0
C651 C 0.85532 0.85127 0.73787 0.0
C652 C 0.95398 0.94854 0.70276 0.0
C653 C 0.90056 0.90259 0.70166 0.0
C654 C 0.97962 0.97064 0.68319 0.0
C655 C 0.97821 0.9735 0.64318 0.0
C656 C 0.92641 0.92878 0.68242 0.0
C657 C 0.94932 0.9545 0.62438 0.0
C658 C 0.87181 0.88353 0.68279 0.0
C659 C 0.88405 0.87134 0.756 0.0
N660 N 0.92479 0.93278 0.644 0.0
N661 N 0.90548 0.89586 0.73775 0.0
H662 H 0.39299 0.23675 0.28321 0.0
H663 H 0.4054 0.08846 0.13228 0.0
H664 H 0.31465 0.18395 0.20771 0.0
H665 H 0.48828 0.15185 0.19389 0.0
H666 H 0.37199 0.11954 0.16032 0.0
H667 H 0.42556 0.20536 0.25442 0.0
C668 C 0.38194 0.21867 0.26073 0.0
C669 C 0.34944 0.21452 0.24928 0.0
C670 C 0.39745 0.12698 0.16817 0.0
C671 C 0.38934 0.17557 0.21392 0.0
C672 C 0.41718 0.10864 0.15174 0.0
C673 C 0.45129 0.11601 0.15957 0.0
C674 C 0.41036 0.15419 0.19429 0.0
C675 C 0.46286 0.1437 0.1857 0.0
C676 C 0.40125 0.2002 0.24376 0.0
C677 C 0.33881 0.18952 0.21901 0.0
N678 N 0.44323 0.1607 0.20139 0.0
N679 N 0.35787 0.17185 0.2034 0.0
H680 H 0.92403 0.34091 0.25456 0.0
H681 H 0.98454 0.45476 0.08022 0.0
H682 H 0.85541 0.36107 0.18824 0.0
H683 H 0.04924 0.44009 0.15831 0.0
H684 H 0.93685 0.42103 0.11781 0.0
H685 H 0.96967 0.37674 0.21799 0.0
C686 C 0.91842 0.35281 0.23229 0.0
C687 C 0.88548 0.34766 0.22475 0.0
C688 C 0.96152 0.4254 0.12678 0.0
C689 C 0.93843 0.38933 0.18202 0.0
C690 C 0.98885 0.44484 0.10538 0.0
C691 C 1.02135 0.4506 0.11582 0.0
C692 C 0.96652 0.41135 0.1589 0.0
C693 C 1.02497 0.43658 0.14871 0.0
C694 C 0.94468 0.37345 0.21132 0.0
C695 C 0.88024 0.36411 0.1953 0.0
N696 N 0.9982 0.41775 0.16866 0.0
N697 N 0.90628 0.38401 0.17506 0.0
H698 H 0.78218 0.8658 0.20594 0.0
H699 H 0.60969 0.87322 0.12957 0.0
H700 H 0.68813 0.80082 0.24145 0.0
H701 H 0.70004 0.95175 0.13571 0.0
H702 H 0.63683 0.8437 0.16158 0.0
H703 H 0.75354 0.89339 0.17386 0.0
C704 C 0.75549 0.8569 0.20737 0.0
C705 C 0.73864 0.83008 0.22795 0.0
C706 C 0.65107 0.86733 0.15574 0.0
C707 C 0.70374 0.86295 0.18806 0.0
C708 C 0.63532 0.88453 0.13665 0.0
C709 C 0.6518 0.91602 0.12824 0.0
C710 C 0.68465 0.88059 0.1669 0.0
C711 C 0.68529 0.92798 0.1403 0.0
C712 C 0.73878 0.8731 0.18851 0.0
C713 C 0.70342 0.82105 0.22704 0.0
N714 N 0.69996 0.91079 0.1579 0.0
N715 N 0.68783 0.8368 0.2078 0.0
H716 H 0.23976 0.6852 0.24427 0.0
H717 H 0.13296 0.63477 0.05243 0.0
H718 H 0.22189 0.74878 0.17466 0.0
H719 H 0.14266 0.5683 0.12418 0.0
H720 H 0.16871 0.67624 0.095 0.0
H721 H 0.20779 0.64226 0.19937 0.0
C722 C 0.2294 0.69026 0.21943 0.0
C723 C 0.23375 0.72092 0.2134 0.0
C724 C 0.16322 0.65265 0.10155 0.0
C725 C 0.19673 0.67146 0.16173 0.0
C726 C 0.14271 0.62875 0.07709 0.0
C727 C 0.13444 0.59769 0.08459 0.0
C728 C 0.17593 0.6459 0.13422 0.0
C729 C 0.14824 0.59177 0.11711 0.0
C730 C 0.21099 0.66561 0.19383 0.0
C731 C 0.21937 0.72572 0.1807 0.0
N732 N 0.16816 0.61561 0.14078 0.0
N733 N 0.20159 0.70138 0.15631 0.0
H734 H 0.41183 0.85577 0.82192 0.0
H735 H 0.49231 0.88677 0.03062 0.0
H736 H 0.35192 0.81267 0.91998 0.0
H737 H 0.51105 0.96122 0.95751 0.0
H738 H 0.44741 0.854 0.98785 0.0
H739 H 0.45422 0.88878 0.86701 0.0
C740 C 0.40743 0.85308 0.85293 0.0
C741 C 0.37758 0.83114 0.8666 0.0
C742 C 0.46132 0.87751 0.98115 0.0
C743 C 0.42764 0.86897 0.91934 0.0
C744 C 0.48724 0.89636 1.00563 0.0
C745 C 0.506 0.92731 0.99833 0.0
C746 C 0.45434 0.88891 0.94776 0.0
C747 C 0.49756 0.93784 0.96502 0.0
C748 C 0.43185 0.87214 0.87882 0.0
C749 C 0.37403 0.82921 0.90757 0.0
N750 N 0.47309 0.91882 0.94108 0.0
N751 N 0.39867 0.84734 0.93209 0.0
H752 H 0.22946 0.29488 0.88992 0.0
H753 H 0.20229 0.45478 0.92575 0.0
H754 H 0.26276 0.36007 0.80185 0.0
H755 H 0.12364 0.36942 0.94961 0.0
H756 H 0.23426 0.4247 0.89208 0.0
H757 H 0.19966 0.3263 0.92462 0.0
C758 C 0.23061 0.31582 0.87794 0.0
C759 C 0.24841 0.32467 0.8427 0.0
C760 C 0.21002 0.41272 0.90491 0.0
C761 C 0.21518 0.36115 0.8829 0.0
C762 C 0.19184 0.42982 0.9242 0.0
C763 C 0.16014 0.41466 0.94045 0.0
C764 C 0.19686 0.38028 0.90302 0.0
C765 C 0.14787 0.38218 0.93741 0.0
C766 C 0.21358 0.33368 0.89772 0.0
C767 C 0.24905 0.35216 0.82866 0.0
N768 N 0.16631 0.36615 0.91954 0.0
N769 N 0.23297 0.36956 0.84894 0.0
H770 H 0.77009 0.18265 0.8673 0.0
H771 H 0.58419 0.10019 0.95127 0.0
H772 H 0.69509 0.22282 0.87387 0.0
H773 H 0.66179 0.07858 0.99716 0.0
H774 H 0.62484 0.13908 0.91424 0.0
H775 H 0.73276 0.14064 0.906 0.0
C776 C 0.74589 0.18284 0.87667 0.0
C777 C 0.73629 0.20703 0.86678 0.0
C778 C 0.63333 0.12592 0.93211 0.0
C779 C 0.69247 0.15775 0.91132 0.0
C780 C 0.60982 0.10316 0.95364 0.0
C781 C 0.61865 0.08525 0.97851 0.0
C782 C 0.66713 0.13162 0.93382 0.0
C783 C 0.65299 0.09111 0.97872 0.0
C784 C 0.72449 0.15868 0.89909 0.0
C785 C 0.70426 0.20528 0.88039 0.0
N786 N 0.67571 0.11354 0.95693 0.0
N787 N 0.68387 0.18136 0.90116 0.0
H788 H 0.96701 0.73273 0.94947 0.0
H789 H 0.95458 0.55701 0.94721 0.0
H790 H 0.8852 0.65419 0.90516 0.0
H791 H 0.04288 0.6342 0.97743 0.0
H792 H 0.92733 0.59276 0.93769 0.0
H793 H 0.99367 0.69762 0.96521 0.0
C794 C 0.95461 0.70817 0.94295 0.0
C795 C 0.92375 0.69657 0.92564 0.0
C796 C 0.95268 0.602 0.94638 0.0
C797 C 0.9541 0.65614 0.94426 0.0
C798 C 0.96835 0.58154 0.95175 0.0
C799 C 1.00125 0.59256 0.96283 0.0
C800 C 0.96992 0.63393 0.95191 0.0
C801 C 1.01757 0.62465 0.9687 0.0
C802 C 0.96983 0.68812 0.95218 0.0
C803 C 0.90871 0.66438 0.91882 0.0
N804 N 1.00177 0.64422 0.96306 0.0
N805 N 0.92403 0.64543 0.92801 0.0
H806 H 0.26235 0.33868 0.0758 0.0
H807 H 0.10905 0.38094 0.03058 0.0
H808 H 0.16131 0.27542 0.07686 0.0
H809 H 0.20369 0.44735 0.06413 0.0
H810 H 0.13235 0.3404 0.0244 0.0
H811 H 0.24535 0.37573 0.04643 0.0
C812 C 0.23675 0.33225 0.06886 0.0
C813 C 0.21297 0.30444 0.08012 0.0
C814 C 0.14811 0.3639 0.03265 0.0
C815 C 0.19354 0.3465 0.04669 0.0
C816 C 0.13483 0.38702 0.03641 0.0
C817 C 0.15436 0.41738 0.04875 0.0
C818 C 0.1811 0.37119 0.04147 0.0
C819 C 0.18765 0.42407 0.05538 0.0
C820 C 0.22711 0.35339 0.05216 0.0
C821 C 0.1804 0.29678 0.06928 0.0
N822 N 0.19994 0.40103 0.05206 0.0
N823 N 0.17148 0.31805 0.05398 0.0
H824 H 0.29188 0.69123 0.87386 0.0
H825 H 0.10908 0.56243 0.87251 0.0
H826 H 0.2139 0.6886 0.80219 0.0
H827 H 0.17042 0.57902 0.97108 0.0
H828 H 0.15327 0.602 0.83954 0.0
H829 H 0.2534 0.64447 0.90346 0.0
C830 C 0.26692 0.68065 0.86402 0.0
C831 C 0.25601 0.69403 0.83577 0.0
C832 C 0.15731 0.59689 0.86825 0.0
C833 C 0.2122 0.64061 0.86895 0.0
C834 C 0.13202 0.57408 0.88714 0.0
C835 C 0.13568 0.56735 0.92495 0.0
C836 C 0.18689 0.61347 0.887 0.0
C837 C 0.16634 0.58334 0.942 0.0
C838 C 0.24495 0.65411 0.88103 0.0
C839 C 0.22334 0.67939 0.8242 0.0
N840 N 0.19064 0.60584 0.92309 0.0
N841 N 0.20281 0.65368 0.84069 0.0
H842 H 0.33663 0.12293 0.95216 0.0
H843 H 0.50455 0.14164 0.05114 0.0
H844 H 0.41638 0.21075 0.96758 0.0
H845 H 0.43088 0.0549 0.01184 0.0
H846 H 0.47002 0.16858 0.03036 0.0
H847 H 0.36838 0.09897 0.98327 0.0
C848 C 0.36073 0.13731 0.96242 0.0
C849 C 0.37374 0.16899 0.95716 0.0
C850 C 0.46141 0.14364 0.02663 0.0
C851 C 0.41073 0.14139 0.99268 0.0
C852 C 0.48097 0.12828 0.03872 0.0
C853 C 0.47077 0.09601 0.03275 0.0
C854 C 0.43135 0.12648 0.009 0.0
C855 C 0.44001 0.07982 0.01651 0.0
C856 C 0.379 0.12353 0.98004 0.0
C857 C 0.40548 0.18619 0.97058 0.0
N858 N 0.42157 0.09517 1.00513 0.0
N859 N 0.42291 0.17219 0.98768 0.0
H860 H 0.88326 0.29506 0.88612 0.0
H861 H 0.99845 0.46821 0.95215 0.0
H862 H 0.85912 0.37519 0.87247 0.0
H863 H 1.01865 0.38816 0.97686 0.0
H864 H 0.94642 0.43415 0.92451 0.0
H865 H 0.93186 0.3283 0.92166 0.0
C866 C 0.88794 0.31955 0.89094 0.0
C867 C 0.86711 0.33232 0.87611 0.0
C868 C 0.96216 0.42401 0.93612 0.0
C869 C 0.92284 0.37054 0.91638 0.0
C870 C 0.99195 0.44347 0.95182 0.0
C871 C 1.0131 0.43106 0.96663 0.0
C872 C 0.95346 0.39184 0.93495 0.0
C873 C 1.00319 0.39879 0.96567 0.0
C874 C 0.91574 0.33854 0.91116 0.0
C875 C 0.87446 0.36426 0.88323 0.0
N876 N 0.97421 0.38032 0.94989 0.0
N877 N 0.90178 0.38224 0.90256 0.0
H878 H 0.7003 0.80656 0.82846 0.0
H879 H 0.70509 0.94234 0.99937 0.0
H880 H 0.78541 0.85118 0.89795 0.0
H881 H 0.61571 0.87811 0.9499 0.0
H882 H 0.73638 0.9138 0.95985 0.0
H883 H 0.67128 0.83619 0.86855 0.0
C884 C 0.7132 0.82262 0.85198 0.0
C885 C 0.74589 0.82578 0.85911 0.0
C886 C 0.70991 0.90594 0.95755 0.0
C887 C 0.71183 0.86108 0.90628 0.0
C888 C 0.69185 0.92245 0.98023 0.0
C889 C 0.65715 0.9131 0.97865 0.0
C890 C 0.69367 0.87979 0.932 0.0
C891 C 0.64214 0.88668 0.95284 0.0
C892 C 0.69633 0.83969 0.8752 0.0
C893 C 0.76044 0.84741 0.89072 0.0
N894 N 0.66016 0.87147 0.93089 0.0
N895 N 0.74363 0.86405 0.91258 0.0
H896 H 0.94761 0.74089 0.05964 0.0
H897 H 0.9507 0.57178 0.06498 0.0
H898 H 0.8722 0.6713 0.12277 0.0
H899 H 0.03761 0.65473 0.06395 0.0
H900 H 0.91639 0.60378 0.06877 0.0
H901 H 0.97506 0.70399 0.04094 0.0
C902 C 0.93654 0.71777 0.06908 0.0
C903 C 0.90801 0.70946 0.09366 0.0
C904 C 0.943 0.61475 0.06766 0.0
C905 C 0.93892 0.66719 0.07176 0.0
C906 C 0.96253 0.59663 0.06587 0.0
C907 C 0.99703 0.61065 0.06478 0.0
C908 C 0.9582 0.64689 0.06751 0.0
C909 C 1.01112 0.64292 0.06536 0.0
C910 C 0.95215 0.69676 0.05828 0.0
C911 C 0.89418 0.67882 0.10391 0.0
N912 N 0.99165 0.65992 0.06647 0.0
N913 N 0.91003 0.65884 0.09331 0.0
H914 H 0.33796 0.87432 0.20967 0.0
H915 H 0.53339 0.92253 0.18554 0.0
H916 H 0.38996 0.81793 0.24177 0.0
H917 H 0.47911 0.96939 0.13449 0.0
H918 H 0.48158 0.8864 0.21086 0.0
H919 H 0.38967 0.91042 0.18409 0.0
C920 C 0.36026 0.86933 0.21088 0.0
C921 C 0.35971 0.84311 0.22793 0.0
C922 C 0.48104 0.90468 0.19428 0.0
C923 C 0.41916 0.88473 0.19931 0.0
C924 C 0.51067 0.92558 0.18008 0.0
C925 C 0.51073 0.94908 0.15758 0.0
C926 C 0.45119 0.90731 0.18618 0.0
C927 C 0.48038 0.95168 0.15157 0.0
C928 C 0.38981 0.89004 0.19639 0.0
C929 C 0.38929 0.83777 0.22863 0.0
N930 N 0.45185 0.93096 0.16563 0.0
N931 N 0.41795 0.85861 0.21486 0.0
H932 H 0.73013 0.25357 0.18172 0.0
H933 H 0.64716 0.07154 0.13328 0.0
H934 H 0.77458 0.18964 0.20884 0.0
H935 H 0.60181 0.13771 0.11812 0.0
H936 H 0.69797 0.11432 0.15125 0.0
H937 H 0.68803 0.21148 0.14649 0.0
C938 C 0.73136 0.23069 0.17955 0.0
C939 C 0.75558 0.22495 0.19855 0.0
C940 C 0.67689 0.11937 0.14376 0.0
C941 C 0.70691 0.17641 0.15916 0.0
C942 C 0.64783 0.09498 0.13363 0.0
C943 C 0.61987 0.10096 0.12487 0.0
C944 C 0.67802 0.14988 0.14481 0.0
C945 C 0.62241 0.13183 0.12537 0.0
C946 C 0.70721 0.20661 0.15961 0.0
C947 C 0.75626 0.19498 0.19456 0.0
N948 N 0.65083 0.15503 0.13534 0.0
N949 N 0.73182 0.17161 0.17586 0.0
H950 H 0.69341 0.66979 0.78891 0.0
H951 H 0.63391 0.58793 0.9901 0.0
H952 H 0.75049 0.69706 0.89234 0.0
H953 H 0.57906 0.55875 0.88501 0.0
H954 H 0.67824 0.62608 0.95406 0.0
H955 H 0.65265 0.62751 0.82272 0.0
C956 C 0.69758 0.66686 0.81859 0.0
C957 C 0.72561 0.68732 0.83761 0.0
C958 C 0.6566 0.61117 0.93881 0.0
C959 C 0.6786 0.6387 0.87688 0.0
C960 C 0.63127 0.58922 0.9594 0.0
C961 C 0.60244 0.56999 0.9408 0.0
C962 C 0.65321 0.61412 0.89922 0.0
C963 C 0.60063 0.57301 0.90084 0.0
C964 C 0.67419 0.64265 0.83797 0.0
C965 C 0.72937 0.6821 0.87627 0.0
N966 N 0.6254 0.59466 0.88162 0.0
N967 N 0.70619 0.65855 0.89454 0.0
H968 H 0.38096 0.60927 0.78922 0.0
H969 H 0.51461 0.62331 0.94426 0.0
H970 H 0.4654 0.69213 0.81341 0.0
H971 H 0.42885 0.54169 0.91949 0.0
H972 H 0.49707 0.64962 0.89717 0.0
H973 H 0.39931 0.5838 0.83616 0.0
C974 C 0.40353 0.62195 0.80416 0.0
C975 C 0.42169 0.65277 0.79745 0.0
C976 C 0.48209 0.62599 0.90225 0.0
C977 C 0.44268 0.62407 0.85146 0.0
C978 C 0.49195 0.61109 0.92931 0.0
C979 C 0.47332 0.58024 0.93548 0.0
C980 C 0.45343 0.60983 0.88151 0.0
C981 C 0.44419 0.5654 0.91532 0.0
C982 C 0.41398 0.6075 0.83102 0.0
C983 C 0.4509 0.66818 0.81735 0.0
N984 N 0.43526 0.58028 0.88912 0.0
N985 N 0.4604 0.65371 0.84369 0.0
H986 H 0.40871 0.30319 0.8501 0.0
H987 H 0.48577 0.4762 0.93915 0.0
H988 H 0.38464 0.37743 0.81199 0.0
H989 H 0.53795 0.41369 0.94094 0.0
H990 H 0.44665 0.43872 0.89529 0.0
H991 H 0.45462 0.34148 0.88586 0.0
C992 C 0.4132 0.32748 0.84892 0.0
C993 C 0.39258 0.33705 0.82813 0.0
C994 C 0.46677 0.43319 0.90492 0.0
C995 C 0.44477 0.38081 0.86931 0.0
C996 C 0.48907 0.45456 0.93012 0.0
C997 C 0.5151 0.44801 0.94379 0.0
C998 C 0.46995 0.40462 0.89376 0.0
C999 C 0.51827 0.41966 0.93092 0.0
C1000 C 0.43946 0.34928 0.86926 0.0
C1001 C 0.39971 0.36886 0.82762 0.0
N1002 N 0.49564 0.39875 0.90697 0.0
N1003 N 0.42489 0.3895 0.84824 0.0
H1004 H 0.79268 0.44754 0.95865 0.0
H1005 H 0.70436 0.52489 0.03865 0.0
H1006 H 0.7987 0.48981 0.85152 0.0
H1007 H 0.68448 0.5225 0.91751 0.0
H1008 H 0.76033 0.5269 0.01924 0.0
H1009 H 0.77935 0.48907 0.9943 0.0
C1010 C 0.79289 0.46648 0.9428 0.0
C1011 C 0.79496 0.46448 0.90186 0.0
C1012 C 0.74395 0.52651 0.99696 0.0
C1013 C 0.77888 0.51189 0.94236 0.0
C1014 C 0.71206 0.52542 1.00804 0.0
C1015 C 0.68952 0.52189 0.97934 0.0
C1016 C 0.75285 0.52392 0.95701 0.0
C1017 C 0.70082 0.52379 0.94031 0.0
C1018 C 0.78519 0.49046 0.96331 0.0
C1019 C 0.79562 0.48988 0.883 0.0
N1020 N 0.73156 0.52414 0.93022 0.0
N1021 N 0.78636 0.51208 0.90325 0.0
H1022 H 0.72564 0.36441 0.11086 0.0
H1023 H 0.66109 0.49415 0.10737 0.0
H1024 H 0.77329 0.45443 0.1696 0.0
H1025 H 0.63967 0.42061 0.0155 0.0
H1026 H 0.71051 0.48489 0.12063 0.0
H1027 H 0.70394 0.38774 0.06481 0.0
C1028 C 0.73252 0.38925 0.11324 0.0
C1029 C 0.75021 0.40745 0.14492 0.0
C1030 C 0.6955 0.47105 0.09702 0.0
C1031 C 0.72486 0.4341 0.09303 0.0
C1032 C 0.6671 0.47614 0.0898 0.0
C1033 C 0.646 0.45738 0.06127 0.0
C1034 C 0.70203 0.44611 0.07666 0.0
C1035 C 0.65519 0.43505 0.03835 0.0
C1036 C 0.72004 0.40259 0.08693 0.0
C1037 C 0.75861 0.43949 0.14642 0.0
N1038 N 0.68214 0.42932 0.04736 0.0
N1039 N 0.74511 0.45174 0.12148 0.0
H1040 H 0.70252 0.67201 0.25849 0.0
H1041 H 0.61014 0.63841 0.0569 0.0
H1042 H 0.74354 0.72432 0.15852 0.0
H1043 H 0.5862 0.57305 0.14455 0.0
H1044 H 0.6565 0.67284 0.09577 0.0
H1045 H 0.65736 0.63731 0.21876 0.0
C1046 C 0.70227 0.67604 0.22814 0.0
C1047 C 0.72701 0.70112 0.21192 0.0
C1048 C 0.64101 0.65094 0.1064 0.0
C1049 C 0.67493 0.66184 0.1664 0.0
C1050 C 0.61445 0.63141 0.08436 0.0
C1051 C 0.59426 0.60279 0.09741 0.0
C1052 C 0.64708 0.64192 0.14196 0.0
C1053 C 0.60118 0.59481 0.13315 0.0
C1054 C 0.67639 0.65628 0.20547 0.0
C1055 C 0.72515 0.70525 0.17237 0.0
N1056 N 0.62683 0.61423 0.15413 0.0
N1057 N 0.69948 0.68601 0.15111 0.0
H1058 H 0.32926 0.62524 0.20142 0.0
H1059 H 0.47957 0.65216 0.04927 0.0
H1060 H 0.4032 0.71397 0.18027 0.0
H1061 H 0.40728 0.56244 0.06981 0.0
H1062 H 0.4428 0.67603 0.08323 0.0
H1063 H 0.34882 0.60294 0.14162 0.0
C1064 C 0.34936 0.64004 0.18391 0.0
C1065 C 0.3654 0.67121 0.19627 0.0
C1066 C 0.43464 0.65109 0.07971 0.0
C1067 C 0.38773 0.64609 0.12815 0.0
C1068 C 0.45564 0.63748 0.06029 0.0
C1069 C 0.44682 0.60539 0.05801 0.0
C1070 C 0.40504 0.63243 0.0976 0.0
C1071 C 0.41526 0.58736 0.07178 0.0
C1072 C 0.36045 0.62738 0.14979 0.0
C1073 C 0.39099 0.68956 0.17241 0.0
N1074 N 0.39576 0.60118 0.09198 0.0
N1075 N 0.40166 0.67664 0.13976 0.0
H1076 H 0.33283 0.3174 0.17356 0.0
H1077 H 0.47728 0.48024 0.14638 0.0
H1078 H 0.37592 0.37961 0.27282 0.0
H1079 H 0.46598 0.39925 0.06801 0.0
H1080 H 0.43217 0.44859 0.18886 0.0
H1081 H 0.37331 0.35233 0.13048 0.0
C1082 C 0.35053 0.33856 0.18639 0.0
C1083 C 0.35096 0.34536 0.22711 0.0
C1084 C 0.43947 0.4379 0.16218 0.0
C1085 C 0.39741 0.38576 0.17746 0.0
C1086 C 0.465 0.45595 0.13778 0.0
C1087 C 0.47551 0.44237 0.10359 0.0
C1088 C 0.42376 0.4062 0.1518 0.0
C1089 C 0.45886 0.41068 0.09415 0.0
C1090 C 0.37376 0.35843 0.16167 0.0
C1091 C 0.37471 0.37325 0.24172 0.0
N1092 N 0.43381 0.39378 0.11794 0.0
N1093 N 0.39692 0.39243 0.21696 0.0
H1094 H 0.87555 0.71496 0.75345 0.0
H1095 H 0.89004 0.61214 0.55073 0.0
H1096 H 0.80806 0.699 0.66175 0.0
H1097 H 0.95908 0.63883 0.64264 0.0
H1098 H 0.8586 0.6414 0.58883 0.0
H1099 H 0.90423 0.68554 0.71282 0.0
C1100 C 0.86644 0.7053 0.72483 0.0
C1101 C 0.83873 0.71006 0.71189 0.0
C1102 C 0.88066 0.64086 0.60066 0.0
C1103 C 0.87268 0.67509 0.66352 0.0
C1104 C 0.89882 0.62397 0.57868 0.0
C1105 C 0.92789 0.62241 0.59273 0.0
C1106 C 0.89109 0.65656 0.63761 0.0
C1107 C 0.93723 0.63877 0.62967 0.0
C1108 C 0.88315 0.68828 0.70127 0.0
C1109 C 0.82902 0.69639 0.67378 0.0
N1110 N 0.91924 0.65463 0.65021 0.0
N1111 N 0.84567 0.67978 0.6514 0.0
H1112 H 0.38277 0.8284 0.66994 0.0
H1113 H 0.44646 0.01365 0.68663 0.0
H1114 H 0.34728 0.8838 0.7566 0.0
H1115 H 0.47626 0.96171 0.58998 0.0
H1116 H 0.41221 0.96555 0.7136 0.0
H1117 H 0.41849 0.87591 0.64067 0.0
C1118 C 0.38229 0.85042 0.6827 0.0
C1119 C 0.36184 0.85193 0.71586 0.0
C1120 C 0.42623 0.96453 0.68651 0.0
C1121 C 0.40294 0.90642 0.68273 0.0
C1122 C 0.446 0.99215 0.67106 0.0
C1123 C 0.46444 0.99199 0.63581 0.0
C1124 C 0.42463 0.93615 0.66684 0.0
C1125 C 0.46256 0.96311 0.61721 0.0
C1126 C 0.40277 0.87756 0.66602 0.0
C1127 C 0.36248 0.88124 0.73113 0.0
N1128 N 0.44302 0.9364 0.6329 0.0
N1129 N 0.38264 0.90711 0.71459 0.0
H1130 H 0.18794 0.33643 0.60144 0.0
H1131 H 0.14244 0.48894 0.61418 0.0
H1132 H 0.24135 0.42292 0.66476 0.0
H1133 H 0.09682 0.41101 0.53252 0.0
H1134 H 0.17304 0.46097 0.63904 0.0
H1135 H 0.14975 0.35955 0.58105 0.0
C1136 C 0.19156 0.36019 0.61123 0.0
C1137 C 0.21817 0.37782 0.63462 0.0
C1138 C 0.15621 0.44969 0.61589 0.0
C1139 C 0.17443 0.40429 0.6116 0.0
C1140 C 0.13852 0.46566 0.60176 0.0
C1141 C 0.11703 0.45237 0.57111 0.0
C1142 C 0.15285 0.42005 0.59923 0.0
C1143 C 0.11292 0.42204 0.55639 0.0
C1144 C 0.16981 0.37337 0.59945 0.0
C1145 C 0.22165 0.40852 0.64623 0.0
N1146 N 0.13096 0.40696 0.57032 0.0
N1147 N 0.20015 0.42064 0.63467 0.0
H1148 H 0.68855 0.23701 0.73401 0.0
H1149 H 0.66301 0.0925 0.57671 0.0
H1150 H 0.76877 0.21222 0.67902 0.0
H1151 H 0.58344 0.11932 0.6295 0.0
H1152 H 0.70243 0.13807 0.61064 0.0
H1153 H 0.6502 0.19629 0.69238 0.0
C1154 C 0.6982 0.22326 0.7129 0.0
C1155 C 0.732 0.22802 0.71024 0.0
C1156 C 0.67636 0.13406 0.61466 0.0
C1157 C 0.68799 0.18097 0.66263 0.0
C1158 C 0.65379 0.10799 0.59531 0.0
C1159 C 0.61977 0.10183 0.60048 0.0
C1160 C 0.66489 0.15416 0.63948 0.0
C1161 C 0.60937 0.12292 0.62481 0.0
C1162 C 0.67622 0.19991 0.68916 0.0
C1163 C 0.74295 0.20941 0.68222 0.0
N1164 N 0.63181 0.14799 0.64352 0.0
N1165 N 0.72099 0.18657 0.65977 0.0
H1166 H 0.80095 0.34318 0.4169 0.0
H1167 H 0.89409 0.4908 0.47838 0.0
H1168 H 0.89427 0.33381 0.38275 0.0
H1169 H 0.97708 0.46065 0.47216 0.0
H1170 H 0.85788 0.43765 0.46458 0.0
H1171 H 0.82896 0.38764 0.46132 0.0
C1172 C 0.82738 0.35026 0.4194 0.0
C1173 C 0.84555 0.33546 0.3955 0.0
C1174 C 0.88382 0.44231 0.46729 0.0
C1175 C 0.87807 0.38743 0.44426 0.0
C1176 C 0.90464 0.47293 0.47473 0.0
C1177 C 0.93879 0.48036 0.47538 0.0
C1178 C 0.89731 0.41893 0.46064 0.0
C1179 C 0.951 0.45616 0.47096 0.0
C1180 C 0.84347 0.37601 0.44428 0.0
C1181 C 0.87948 0.34491 0.40038 0.0
N1182 N 0.93036 0.42666 0.46319 0.0
N1183 N 0.89481 0.37085 0.42357 0.0
H1184 H 0.60771 0.80132 0.45724 0.0
H1185 H 0.65062 0.98216 0.50858 0.0
H1186 H 0.70745 0.867 0.46408 0.0
H1187 H 0.55902 0.91937 0.46156 0.0
H1188 H 0.66966 0.9387 0.50843 0.0
H1189 H 0.58729 0.84315 0.47687 0.0
C1190 C 0.6253 0.82446 0.46334 0.0
C1191 C 0.65931 0.83079 0.4582 0.0
C1192 C 0.64539 0.93457 0.49825 0.0
C1193 C 0.63616 0.8786 0.48064 0.0
C1194 C 0.63461 0.95928 0.49816 0.0
C1195 C 0.60348 0.95436 0.48439 0.0
C1196 C 0.62469 0.90485 0.48488 0.0
C1197 C 0.58346 0.92427 0.47172 0.0
C1198 C 0.61365 0.84827 0.47457 0.0
C1199 C 0.68102 0.86105 0.46757 0.0
N1200 N 0.59443 0.90066 0.47223 0.0
N1201 N 0.66907 0.88397 0.47781 0.0
H1202 H 0.16509 0.74318 0.34715 0.0
H1203 H 0.14642 0.57979 0.41146 0.0
H1204 H 0.24537 0.72441 0.3912 0.0
H1205 H 0.06546 0.61261 0.4328 0.0
H1206 H 0.18154 0.63045 0.39163 0.0
H1207 H 0.12658 0.69387 0.36926 0.0
C1208 C 0.17455 0.72896 0.36198 0.0
C1209 C 0.20853 0.73792 0.3673 0.0
C1210 C 0.15603 0.62648 0.40046 0.0
C1211 C 0.1649 0.68135 0.39132 0.0
C1212 C 0.13579 0.59744 0.41135 0.0
C1213 C 0.10283 0.59183 0.42386 0.0
C1214 C 0.14324 0.65009 0.40137 0.0
C1215 C 0.09071 0.6159 0.42344 0.0
C1216 C 0.1526 0.70086 0.37442 0.0
C1217 C 0.21944 0.71855 0.38655 0.0
N1218 N 0.11091 0.64402 0.41226 0.0
N1219 N 0.19778 0.69099 0.39728 0.0
H1220 H 0.44771 0.29811 0.51829 0.0
H1221 H 0.40051 0.12016 0.5329 0.0
H1222 H 0.34803 0.23193 0.51914 0.0
H1223 H 0.49975 0.18615 0.54399 0.0
H1224 H 0.37993 0.16237 0.54018 0.0
H1225 H 0.46608 0.26001 0.54276 0.0
C1226 C 0.42958 0.27586 0.52464 0.0
C1227 C 0.39651 0.26779 0.51548 0.0
C1228 C 0.40622 0.1677 0.54116 0.0
C1229 C 0.41728 0.22416 0.54279 0.0
C1230 C 0.41803 0.1436 0.53639 0.0
C1231 C 0.45197 0.14976 0.53662 0.0
C1232 C 0.42856 0.19825 0.54542 0.0
C1233 C 0.47343 0.18048 0.5427 0.0
C1234 C 0.44006 0.25411 0.53856 0.0
C1235 C 0.37386 0.23904 0.52526 0.0
N1236 N 0.4614 0.20368 0.54629 0.0
N1237 N 0.38481 0.21796 0.53748 0.0
H1238 H 0.69466 0.8815 0.69539 0.0
H1239 H 0.56855 0.91283 0.56261 0.0
H1240 H 0.63863 0.81316 0.60816 0.0
H1241 H 0.64314 0.98391 0.62957 0.0
H1242 H 0.58941 0.87443 0.58274 0.0
H1243 H 0.67175 0.91777 0.67536 0.0
C1244 C 0.67775 0.87408 0.67178 0.0
C1245 C 0.66894 0.84409 0.65331 0.0
C1246 C 0.60101 0.89843 0.59316 0.0
C1247 C 0.64183 0.88578 0.6306 0.0
C1248 C 0.589 0.92032 0.58188 0.0
C1249 C 0.60404 0.95167 0.59448 0.0
C1250 C 0.62788 0.90793 0.61775 0.0
C1251 C 0.63074 0.96006 0.61903 0.0
C1252 C 0.66446 0.89486 0.6605 0.0
C1253 C 0.64603 0.83585 0.6236 0.0
N1254 N 0.64166 0.9384 0.62988 0.0
N1255 N 0.63331 0.85654 0.61317 0.0
H1256 H 0.71238 0.25593 0.39204 0.0
H1257 H 0.61127 0.07505 0.40379 0.0
H1258 H 0.73862 0.18345 0.32755 0.0
H1259 H 0.60423 0.13972 0.49976 0.0
H1260 H 0.65167 0.11692 0.37072 0.0
H1261 H 0.66814 0.2165 0.42739 0.0
C1262 C 0.7089 0.23183 0.38517 0.0
C1263 C 0.72955 0.22321 0.35656 0.0
C1264 C 0.64134 0.12221 0.39893 0.0
C1265 C 0.67847 0.17785 0.39674 0.0
C1266 C 0.61795 0.09816 0.41802 0.0
C1267 C 0.60414 0.10344 0.45516 0.0
C1268 C 0.65148 0.15247 0.41643 0.0
C1269 C 0.61396 0.13432 0.47126 0.0
C1270 C 0.68365 0.20934 0.40552 0.0
C1271 C 0.72368 0.1915 0.34927 0.0
N1272 N 0.63709 0.15763 0.45191 0.0
N1273 N 0.69879 0.17023 0.36887 0.0
H1274 H 0.85383 0.69513 0.2844 0.0
H1275 H 0.94322 0.67531 0.47686 0.0
H1276 H 0.83736 0.73815 0.3962 0.0
H1277 H 0.90681 0.59985 0.3897 0.0
H1278 H 0.91504 0.70387 0.445 0.0
H1279 H 0.88163 0.66678 0.31695 0.0
C1280 C 0.85592 0.6991 0.31575 0.0
C1281 C 0.84201 0.71996 0.33642 0.0
C1282 C 0.9132 0.68113 0.43238 0.0
C1283 C 0.87662 0.68651 0.37581 0.0
C1284 C 0.92983 0.66446 0.45085 0.0
C1285 C 0.92851 0.63411 0.43698 0.0
C1286 C 0.89504 0.66875 0.39788 0.0
C1287 C 0.90951 0.6227 0.40268 0.0
C1288 C 0.87215 0.68244 0.33474 0.0
C1289 C 0.84674 0.72277 0.37767 0.0
N1290 N 0.89457 0.63962 0.38481 0.0
N1291 N 0.86342 0.70711 0.39512 0.0
H1292 H 0.3735 0.85069 0.37962 0.0
H1293 H 0.40051 0.01309 0.50167 0.0
H1294 H 0.30216 0.89524 0.38246 0.0
H1295 H 0.47762 0.97643 0.47127 0.0
H1296 H 0.36203 0.96856 0.46414 0.0
H1297 H 0.40919 0.89451 0.41921 0.0
C1298 C 0.36509 0.86959 0.38869 0.0
C1299 C 0.33449 0.869 0.3774 0.0
C1300 C 0.38737 0.97031 0.46572 0.0
C1301 C 0.37598 0.91996 0.42335 0.0
C1302 C 0.40938 0.99569 0.48728 0.0
C1303 C 0.44255 0.99871 0.48968 0.0
C1304 C 0.39839 0.94748 0.44675 0.0
C1305 C 0.45246 0.97534 0.47022 0.0
C1306 C 0.38574 0.89481 0.41132 0.0
C1307 C 0.32543 0.89453 0.3903 0.0
N1308 N 0.43055 0.95084 0.44982 0.0
N1309 N 0.34604 0.91892 0.4126 0.0
H1310 H 0.2592 0.3607 0.39703 0.0
H1311 H 0.10349 0.422 0.38003 0.0
H1312 H 0.19244 0.32809 0.30334 0.0
H1313 H 0.1716 0.45928 0.47198 0.0
H1314 H 0.13441 0.38887 0.35391 0.0
H1315 H 0.2292 0.39477 0.42425 0.0
C1316 C 0.23833 0.36019 0.38148 0.0
C1317 C 0.22988 0.3398 0.34641 0.0
C1318 C 0.14313 0.40412 0.37979 0.0
C1319 C 0.19265 0.38178 0.38003 0.0
C1320 C 0.12494 0.42382 0.39542 0.0
C1321 C 0.1334 0.44535 0.42949 0.0
C1322 C 0.17176 0.40403 0.3972 0.0
C1323 C 0.16253 0.44435 0.44597 0.0
C1324 C 0.22068 0.38037 0.39769 0.0
C1325 C 0.20152 0.34226 0.32987 0.0
N1326 N 0.17969 0.42485 0.43022 0.0
N1327 N 0.18486 0.36192 0.34626 0.0
H1328 H 0.40078 0.26651 0.69895 0.0
H1329 H 0.40069 0.09816 0.62107 0.0
H1330 H 0.32033 0.18261 0.72375 0.0
H1331 H 0.48995 0.17482 0.6489 0.0
H1332 H 0.36864 0.131 0.64394 0.0
H1333 H 0.43152 0.23521 0.66581 0.0
C1334 C 0.38941 0.24159 0.69705 0.0
C1335 C 0.358 0.22724 0.71454 0.0
C1336 C 0.39527 0.14062 0.64481 0.0
C1337 C 0.39286 0.19131 0.67628 0.0
C1338 C 0.41356 0.1219 0.6317 0.0
C1339 C 0.44805 0.13354 0.63364 0.0
C1340 C 0.41158 0.17144 0.65919 0.0
C1341 C 0.46339 0.16466 0.64746 0.0
C1342 C 0.40702 0.22375 0.67831 0.0
C1343 C 0.3446 0.19476 0.71115 0.0
N1344 N 0.44514 0.18247 0.65959 0.0
N1345 N 0.36198 0.17798 0.69245 0.0
H1346 H 0.82037 0.37898 0.72233 0.0
H1347 H 0.9867 0.45732 0.5872 0.0
H1348 H 0.89574 0.33918 0.70415 0.0
H1349 H 0.91272 0.49743 0.61918 0.0
H1350 H 0.95481 0.41351 0.62656 0.0
H1351 H 0.85376 0.42084 0.68236 0.0
C1352 C 0.84388 0.37875 0.70995 0.0
C1353 C 0.85464 0.35476 0.71733 0.0
C1354 C 0.94558 0.43195 0.625 0.0
C1355 C 0.8942 0.40415 0.67005 0.0
C1356 C 0.96396 0.45722 0.60231 0.0
C1357 C 0.95308 0.48201 0.5993 0.0
C1358 C 0.91555 0.43075 0.64509 0.0
C1359 C 0.9229 0.47957 0.62005 0.0
C1360 C 0.86321 0.40304 0.68688 0.0
C1361 C 0.88587 0.35674 0.69983 0.0
N1362 N 0.90567 0.45495 0.64145 0.0
N1363 N 0.90421 0.3806 0.67732 0.0
H1364 H 0.20525 0.73704 0.69937 0.0
H1365 H 0.08641 0.61547 0.59145 0.0
H1366 H 0.26521 0.68075 0.68395 0.0
H1367 H 0.16385 0.57988 0.55899 0.0
H1368 H 0.12428 0.65656 0.63344 0.0
H1369 H 0.16461 0.69894 0.65702 0.0
C1370 C 0.21005 0.7167 0.68722 0.0
C1371 C 0.23931 0.7127 0.69596 0.0
C1372 C 0.1335 0.64021 0.61695 0.0
C1373 C 0.19135 0.66732 0.64643 0.0
C1374 C 0.11146 0.61627 0.59273 0.0
C1375 C 0.12137 0.59362 0.57076 0.0
C1376 C 0.16641 0.64215 0.62007 0.0
C1377 C 0.15455 0.59652 0.57471 0.0
C1378 C 0.18637 0.69445 0.6629 0.0
C1379 C 0.24338 0.68537 0.67859 0.0
N1380 N 0.17542 0.61986 0.59863 0.0
N1381 N 0.22008 0.66416 0.655 0.0
loop_
_geom_bond_atom_site_label_1
_geom_bond_atom_site_label_2
_geom_bond_distance
_geom_bond_site_symmetry_2
_ccdc_geom_bond_type
Tb0 C10 2.825 . S
Tb0 O11 2.347 . S
Tb0 O14 2.366 . S
Tb0 O19 2.418 . S
Tb0 O20 2.384 . S
Tb0 O23 2.479 . S
Tb0 O24 2.471 . S
Eu1 O12 2.418 . S
Eu1 O13 2.384 . S
Eu1 O16 2.479 . S
Eu1 O17 2.471 . S
Eu1 O18 2.347 . S
Eu1 O21 2.366 . S
Eu1 C31 2.825 . S
C2 O18 1.259 . S
C2 O19 1.265 . S
C3 O20 1.255 . S
C3 O21 1.265 . S
C4 C6 1.380 . S
C4 C7 1.374 . S
C4 C10 1.507 . S
C5 C6 1.384 . S
C5 C9 1.387 . S
C5 H32 0.930 . S
C6 C4 1.380 . S
C6 C5 1.384 . S
C6 H33 0.931 . S
C7 C4 1.374 . S
C7 C8 1.390 . S
C7 H34 0.930 . S
C8 C7 1.390 . S
C8 C9 1.391 . S
C8 H35 0.930 . S
C9 C5 1.387 . S
C9 C8 1.391 . S
C10 Tb0 2.825 . S
C10 C4 1.507 . S
C10 O23 1.238 . S
C10 O24 1.247 . S
O11 Tb0 2.347 . S
O11 C15 1.259 . S
O12 Eu1 2.418 . S
O12 C15 1.265 . S
O13 Eu1 2.384 . S
O13 C22 1.255 . S
O14 Tb0 2.366 . S
O14 C22 1.265 . S
C15 O11 1.259 . S
C15 O12 1.265 . S
O16 Eu1 2.479 . S
O16 C31 1.238 . S
O17 Eu1 2.471 . S
O17 C31 1.247 . S
O18 Eu1 2.347 . S
O18 C2 1.259 . S
O19 Tb0 2.418 . S
O19 C2 1.265 . S
O20 Tb0 2.384 . S
O20 C3 1.255 . S
O21 Eu1 2.366 . S
O21 C3 1.265 . S
C22 O13 1.255 . S
C22 O14 1.265 . S
O23 Tb0 2.479 . S
O23 C10 1.238 . S
O24 Tb0 2.471 . S
O24 C10 1.247 . S
C25 C28 1.380 . S
C25 C29 1.374 . S
C25 C31 1.507 . S
C26 C27 1.387 . S
C26 C30 1.391 . S
C27 C26 1.387 . S
C27 C28 1.384 . S
C27 H36 0.930 . S
C28 C25 1.380 . S
C28 C27 1.384 . S
C28 H37 0.931 . S
C29 C25 1.374 . S
C29 C30 1.390 . S
C29 H38 0.930 . S
C30 C26 1.391 . S
C30 C29 1.390 . S
C30 H39 0.930 . S
C31 Eu1 2.825 . S
C31 O16 1.238 . S
C31 O17 1.247 . S
C31 C25 1.507 . S
H32 C5 0.930 . S
H33 C6 0.931 . S
H34 C7 0.930 . S
H35 C8 0.930 . S
H36 C27 0.930 . S
H37 C28 0.931 . S
H38 C29 0.930 . S
H39 C30 0.930 . S
Tb40 C50 2.825 . S
Tb40 O51 2.347 . S
Tb40 O54 2.366 . S
Tb40 O59 2.418 . S
Tb40 O60 2.384 . S
Tb40 O63 2.479 . S
Tb40 O64 2.471 . S
Eu41 O52 2.418 . S
Eu41 O53 2.384 . S
Eu41 O56 2.479 . S
Eu41 O57 2.471 . S
Eu41 O58 2.347 . S
Eu41 O61 2.366 . S
Eu41 C71 2.825 . S
C42 O58 1.259 . S
C42 O59 1.265 . S
C43 O60 1.255 . S
C43 O61 1.265 . S
C44 C46 1.380 . S
C44 C47 1.374 . S
C44 C50 1.507 . S
C45 C46 1.384 . S
C45 C49 1.387 . S
C45 H72 0.930 . S
C46 C44 1.380 . S
C46 C45 1.384 . S
C46 H73 0.931 . S
C47 C44 1.374 . S
C47 C48 1.390 . S
C47 H74 0.930 . S
C48 C47 1.390 . S
C48 C49 1.391 . S
C48 H75 0.930 . S
C49 C45 1.387 . S
C49 C48 1.391 . S
C50 Tb40 2.825 . S
C50 C44 1.507 . S
C50 O63 1.238 . S
C50 O64 1.247 . S
O51 Tb40 2.347 . S
O51 C55 1.259 . S
O52 Eu41 2.418 . S
O52 C55 1.265 . S
O53 Eu41 2.384 . S
O53 C62 1.255 . S
O54 Tb40 2.366 . S
O54 C62 1.265 . S
C55 O51 1.259 . S
C55 O52 1.265 . S
O56 Eu41 2.479 . S
O56 C71 1.238 . S
O57 Eu41 2.471 . S
O57 C71 1.247 . S
O58 Eu41 2.347 . S
O58 C42 1.259 . S
O59 Tb40 2.418 . S
O59 C42 1.265 . S
O60 Tb40 2.384 . S
O60 C43 1.255 . S
O61 Eu41 2.366 . S
O61 C43 1.265 . S
C62 O53 1.255 . S
C62 O54 1.265 . S
O63 Tb40 2.479 . S
O63 C50 1.238 . S
O64 Tb40 2.471 . S
O64 C50 1.247 . S
C65 C68 1.380 . S
C65 C69 1.374 . S
C65 C71 1.507 . S
C66 C67 1.387 . S
C66 C70 1.391 . S
C67 C66 1.387 . S
C67 C68 1.384 . S
C67 H76 0.930 . S
C68 C65 1.380 . S
C68 C67 1.384 . S
C68 H77 0.931 . S
C69 C65 1.374 . S
C69 C70 1.390 . S
C69 H78 0.930 . S
C70 C66 1.391 . S
C70 C69 1.390 . S
C70 H79 0.930 . S
C71 Eu41 2.825 . S
C71 O56 1.238 . S
C71 O57 1.247 . S
C71 C65 1.507 . S
H72 C45 0.930 . S
H73 C46 0.931 . S
H74 C47 0.930 . S
H75 C48 0.930 . S
H76 C67 0.930 . S
H77 C68 0.931 . S
H78 C69 0.930 . S
H79 C70 0.930 . S
Tb80 C90 2.825 . S
Tb80 O91 2.347 . S
Tb80 O94 2.366 . S
Tb80 O99 2.418 . S
Tb80 O100 2.384 . S
Tb80 O103 2.479 . S
Tb80 O104 2.471 . S
Eu81 O92 2.418 . S
Eu81 O93 2.384 . S
Eu81 O96 2.479 . S
Eu81 O97 2.471 . S
Eu81 O98 2.347 . S
Eu81 O101 2.366 . S
Eu81 C111 2.825 . S
C82 O98 1.259 . S
C82 O99 1.265 . S
C83 O100 1.255 . S
C83 O101 1.265 . S
C84 C86 1.380 . S
C84 C87 1.374 . S
C84 C90 1.507 . S
C85 C86 1.384 . S
C85 C89 1.387 . S
C85 H112 0.930 . S
C86 C84 1.380 . S
C86 C85 1.384 . S
C86 H113 0.931 . S
C87 C84 1.374 . S
C87 C88 1.390 . S
C87 H114 0.930 . S
C88 C87 1.390 . S
C88 C89 1.391 . S
C88 H115 0.930 . S
C89 C85 1.387 . S
C89 C88 1.391 . S
C90 Tb80 2.825 . S
C90 C84 1.507 . S
C90 O103 1.238 . S
C90 O104 1.247 . S
O91 Tb80 2.347 . S
O91 C95 1.259 . S
O92 Eu81 2.418 . S
O92 C95 1.265 . S
O93 Eu81 2.384 . S
O93 C102 1.255 . S
O94 Tb80 2.366 . S
O94 C102 1.265 . S
C95 O91 1.259 . S
C95 O92 1.265 . S
O96 Eu81 2.479 . S
O96 C111 1.238 . S
O97 Eu81 2.471 . S
O97 C111 1.247 . S
O98 Eu81 2.347 . S
O98 C82 1.259 . S
O99 Tb80 2.418 . S
O99 C82 1.265 . S
O100 Tb80 2.384 . S
O100 C83 1.255 . S
O101 Eu81 2.366 . S
O101 C83 1.265 . S
C102 O93 1.255 . S
C102 O94 1.265 . S
O103 Tb80 2.479 . S
O103 C90 1.238 . S
O104 Tb80 2.471 . S
O104 C90 1.247 . S
C105 C108 1.380 . S
C105 C109 1.374 . S
C105 C111 1.507 . S
C106 C107 1.387 . S
C106 C110 1.391 . S
C107 C106 1.387 . S
C107 C108 1.384 . S
C107 H116 0.930 . S
C108 C105 1.380 . S
C108 C107 1.384 . S
C108 H117 0.931 . S
C109 C105 1.374 . S
C109 C110 1.390 . S
C109 H118 0.930 . S
C110 C106 1.391 . S
C110 C109 1.390 . S
C110 H119 0.930 . S
C111 Eu81 2.825 . S
C111 O96 1.238 . S
C111 O97 1.247 . S
C111 C105 1.507 . S
H112 C85 0.930 . S
H113 C86 0.931 . S
H114 C87 0.930 . S
H115 C88 0.930 . S
H116 C107 0.930 . S
H117 C108 0.931 . S
H118 C109 0.930 . S
H119 C110 0.930 . S
Tb120 C130 2.825 . S
Tb120 O131 2.347 . S
Tb120 O134 2.366 . S
Tb120 O139 2.418 . S
Tb120 O140 2.384 . S
Tb120 O143 2.479 . S
Tb120 O144 2.471 . S
Eu121 O132 2.418 . S
Eu121 O133 2.384 . S
Eu121 O136 2.479 . S
Eu121 O137 2.471 . S
Eu121 O138 2.347 . S
Eu121 O141 2.366 . S
Eu121 C151 2.825 . S
C122 O138 1.259 . S
C122 O139 1.265 . S
C123 O140 1.255 . S
C123 O141 1.265 . S
C124 C126 1.380 . S
C124 C127 1.374 . S
C124 C130 1.507 . S
C125 C126 1.384 . S
C125 C129 1.387 . S
C125 H152 0.930 . S
C126 C124 1.380 . S
C126 C125 1.384 . S
C126 H153 0.931 . S
C127 C124 1.374 . S
C127 C128 1.390 . S
C127 H154 0.930 . S
C128 C127 1.390 . S
C128 C129 1.391 . S
C128 H155 0.930 . S
C129 C125 1.387 . S
C129 C128 1.391 . S
C130 Tb120 2.825 . S
C130 C124 1.507 . S
C130 O143 1.238 . S
C130 O144 1.247 . S
O131 Tb120 2.347 . S
O131 C135 1.259 . S
O132 Eu121 2.418 . S
O132 C135 1.265 . S
O133 Eu121 2.384 . S
O133 C142 1.255 . S
O134 Tb120 2.366 . S
O134 C142 1.265 . S
C135 O131 1.259 . S
C135 O132 1.265 . S
O136 Eu121 2.479 . S
O136 C151 1.238 . S
O137 Eu121 2.471 . S
O137 C151 1.247 . S
O138 Eu121 2.347 . S
O138 C122 1.259 . S
O139 Tb120 2.418 . S
O139 C122 1.265 . S
O140 Tb120 2.384 . S
O140 C123 1.255 . S
O141 Eu121 2.366 . S
O141 C123 1.265 . S
C142 O133 1.255 . S
C142 O134 1.265 . S
O143 Tb120 2.479 . S
O143 C130 1.238 . S
O144 Tb120 2.471 . S
O144 C130 1.247 . S
C145 C148 1.380 . S
C145 C149 1.374 . S
C145 C151 1.507 . S
C146 C147 1.387 . S
C146 C150 1.391 . S
C147 C146 1.387 . S
C147 C148 1.384 . S
C147 H156 0.930 . S
C148 C145 1.380 . S
C148 C147 1.384 . S
C148 H157 0.931 . S
C149 C145 1.374 . S
C149 C150 1.390 . S
C149 H158 0.930 . S
C150 C146 1.391 . S
C150 C149 1.390 . S
C150 H159 0.930 . S
C151 Eu121 2.825 . S
C151 O136 1.238 . S
C151 O137 1.247 . S
C151 C145 1.507 . S
H152 C125 0.930 . S
H153 C126 0.931 . S
H154 C127 0.930 . S
H155 C128 0.930 . S
H156 C147 0.930 . S
H157 C148 0.931 . S
H158 C149 0.930 . S
H159 C150 0.930 . S
Tb160 C170 2.825 . S
Tb160 O171 2.347 . S
Tb160 O174 2.366 . S
Tb160 O179 2.418 . S
Tb160 O180 2.384 . S
Tb160 O183 2.479 . S
Tb160 O184 2.471 . S
Eu161 O172 2.418 . S
Eu161 O173 2.384 . S
Eu161 O176 2.479 . S
Eu161 O177 2.471 . S
Eu161 O178 2.347 . S
Eu161 O181 2.366 . S
Eu161 C191 2.825 . S
C162 O178 1.259 . S
C162 O179 1.265 . S
C163 O180 1.255 . S
C163 O181 1.265 . S
C164 C166 1.380 . S
C164 C167 1.374 . S
C164 C170 1.507 . S
C165 C166 1.384 . S
C165 C169 1.387 . S
C165 H192 0.930 . S
C166 C164 1.380 . S
C166 C165 1.384 . S
C166 H193 0.931 . S
C167 C164 1.374 . S
C167 C168 1.390 . S
C167 H194 0.930 . S
C168 C167 1.390 . S
C168 C169 1.391 . S
C168 H195 0.930 . S
C169 C165 1.387 . S
C169 C168 1.391 . S
C170 Tb160 2.825 . S
C170 C164 1.507 . S
C170 O183 1.238 . S
C170 O184 1.247 . S
O171 Tb160 2.347 . S
O171 C175 1.259 . S
O172 Eu161 2.418 . S
O172 C175 1.265 . S
O173 Eu161 2.384 . S
O173 C182 1.255 . S
O174 Tb160 2.366 . S
O174 C182 1.265 . S
C175 O171 1.259 . S
C175 O172 1.265 . S
O176 Eu161 2.479 . S
O176 C191 1.238 . S
O177 Eu161 2.471 . S
O177 C191 1.247 . S
O178 Eu161 2.347 . S
O178 C162 1.259 . S
O179 Tb160 2.418 . S
O179 C162 1.265 . S
O180 Tb160 2.384 . S
O180 C163 1.255 . S
O181 Eu161 2.366 . S
O181 C163 1.265 . S
C182 O173 1.255 . S
C182 O174 1.265 . S
O183 Tb160 2.479 . S
O183 C170 1.238 . S
O184 Tb160 2.471 . S
O184 C170 1.247 . S
C185 C188 1.380 . S
C185 C189 1.374 . S
C185 C191 1.507 . S
C186 C187 1.387 . S
C186 C190 1.391 . S
C187 C186 1.387 . S
C187 C188 1.384 . S
C187 H196 0.930 . S
C188 C185 1.380 . S
C188 C187 1.384 . S
C188 H197 0.931 . S
C189 C185 1.374 . S
C189 C190 1.390 . S
C189 H198 0.930 . S
C190 C186 1.391 . S
C190 C189 1.390 . S
C190 H199 0.930 . S
C191 Eu161 2.825 . S
C191 O176 1.238 . S
C191 O177 1.247 . S
C191 C185 1.507 . S
H192 C165 0.930 . S
H193 C166 0.931 . S
H194 C167 0.930 . S
H195 C168 0.930 . S
H196 C187 0.930 . S
H197 C188 0.931 . S
H198 C189 0.930 . S
H199 C190 0.930 . S
Tb200 C210 2.825 . S
Tb200 O211 2.347 . S
Tb200 O214 2.366 . S
Tb200 O219 2.418 . S
Tb200 O220 2.384 . S
Tb200 O223 2.479 . S
Tb200 O224 2.471 . S
Eu201 O212 2.418 . S
Eu201 O213 2.384 . S
Eu201 O216 2.479 . S
Eu201 O217 2.471 . S
Eu201 O218 2.347 . S
Eu201 O221 2.366 . S
Eu201 C231 2.825 . S
C202 O218 1.259 . S
C202 O219 1.265 . S
C203 O220 1.255 . S
C203 O221 1.265 . S
C204 C206 1.380 . S
C204 C207 1.374 . S
C204 C210 1.507 . S
C205 C206 1.384 . S
C205 C209 1.387 . S
C205 H232 0.930 . S
C206 C204 1.380 . S
C206 C205 1.384 . S
C206 H233 0.931 . S
C207 C204 1.374 . S
C207 C208 1.390 . S
C207 H234 0.930 . S
C208 C207 1.390 . S
C208 C209 1.391 . S
C208 H235 0.930 . S
C209 C205 1.387 . S
C209 C208 1.391 . S
C210 Tb200 2.825 . S
C210 C204 1.507 . S
C210 O223 1.238 . S
C210 O224 1.247 . S
O211 Tb200 2.347 . S
O211 C215 1.259 . S
O212 Eu201 2.418 . S
O212 C215 1.265 . S
O213 Eu201 2.384 . S
O213 C222 1.255 . S
O214 Tb200 2.366 . S
O214 C222 1.265 . S
C215 O211 1.259 . S
C215 O212 1.265 . S
O216 Eu201 2.479 . S
O216 C231 1.238 . S
O217 Eu201 2.471 . S
O217 C231 1.247 . S
O218 Eu201 2.347 . S
O218 C202 1.259 . S
O219 Tb200 2.418 . S
O219 C202 1.265 . S
O220 Tb200 2.384 . S
O220 C203 1.255 . S
O221 Eu201 2.366 . S
O221 C203 1.265 . S
C222 O213 1.255 . S
C222 O214 1.265 . S
O223 Tb200 2.479 . S
O223 C210 1.238 . S
O224 Tb200 2.471 . S
O224 C210 1.247 . S
C225 C228 1.380 . S
C225 C229 1.374 . S
C225 C231 1.507 . S
C226 C227 1.387 . S
C226 C230 1.391 . S
C227 C226 1.387 . S
C227 C228 1.384 . S
C227 H236 0.930 . S
C228 C225 1.380 . S
C228 C227 1.384 . S
C228 H237 0.931 . S
C229 C225 1.374 . S
C229 C230 1.390 . S
C229 H238 0.930 . S
C230 C226 1.391 . S
C230 C229 1.390 . S
C230 H239 0.930 . S
C231 Eu201 2.825 . S
C231 O216 1.238 . S
C231 O217 1.247 . S
C231 C225 1.507 . S
H232 C205 0.930 . S
H233 C206 0.931 . S
H234 C207 0.930 . S
H235 C208 0.930 . S
H236 C227 0.930 . S
H237 C228 0.931 . S
H238 C229 0.930 . S
H239 C230 0.930 . S
Tb240 C250 2.825 . S
Tb240 O251 2.347 . S
Tb240 O254 2.366 . S
Tb240 O259 2.418 . S
Tb240 O260 2.384 . S
Tb240 O263 2.479 . S
Tb240 O264 2.471 . S
Eu241 O252 2.418 . S
Eu241 O253 2.384 . S
Eu241 O256 2.479 . S
Eu241 O257 2.471 . S
Eu241 O258 2.347 . S
Eu241 O261 2.366 . S
Eu241 C271 2.825 . S
C242 O258 1.259 . S
C242 O259 1.265 . S
C243 O260 1.255 . S
C243 O261 1.265 . S
C244 C246 1.380 . S
C244 C247 1.374 . S
C244 C250 1.507 . S
C245 C246 1.384 . S
C245 C249 1.387 . S
C245 H272 0.930 . S
C246 C244 1.380 . S
C246 C245 1.384 . S
C246 H273 0.931 . S
C247 C244 1.374 . S
C247 C248 1.390 . S
C247 H274 0.930 . S
C248 C247 1.390 . S
C248 C249 1.391 . S
C248 H275 0.930 . S
C249 C245 1.387 . S
C249 C248 1.391 . S
C250 Tb240 2.825 . S
C250 C244 1.507 . S
C250 O263 1.238 . S
C250 O264 1.247 . S
O251 Tb240 2.347 . S
O251 C255 1.259 . S
O252 Eu241 2.418 . S
O252 C255 1.265 . S
O253 Eu241 2.384 . S
O253 C262 1.255 . S
O254 Tb240 2.366 . S
O254 C262 1.265 . S
C255 O251 1.259 . S
C255 O252 1.265 . S
O256 Eu241 2.479 . S
O256 C271 1.238 . S
O257 Eu241 2.471 . S
O257 C271 1.247 . S
O258 Eu241 2.347 . S
O258 C242 1.259 . S
O259 Tb240 2.418 . S
O259 C242 1.265 . S
O260 Tb240 2.384 . S
O260 C243 1.255 . S
O261 Eu241 2.366 . S
O261 C243 1.265 . S
C262 O253 1.255 . S
C262 O254 1.265 . S
O263 Tb240 2.479 . S
O263 C250 1.238 . S
O264 Tb240 2.471 . S
O264 C250 1.247 . S
C265 C268 1.380 . S
C265 C269 1.374 . S
C265 C271 1.507 . S
C266 C267 1.387 . S
C266 C270 1.391 . S
C267 C266 1.387 . S
C267 C268 1.384 . S
C267 H276 0.930 . S
C268 C265 1.380 . S
C268 C267 1.384 . S
C268 H277 0.931 . S
C269 C265 1.374 . S
C269 C270 1.390 . S
C269 H278 0.930 . S
C270 C266 1.391 . S
C270 C269 1.390 . S
C270 H279 0.930 . S
C271 Eu241 2.825 . S
C271 O256 1.238 . S
C271 O257 1.247 . S
C271 C265 1.507 . S
H272 C245 0.930 . S
H273 C246 0.931 . S
H274 C247 0.930 . S
H275 C248 0.930 . S
H276 C267 0.930 . S
H277 C268 0.931 . S
H278 C269 0.930 . S
H279 C270 0.930 . S
Tb280 C290 2.825 . S
Tb280 O291 2.347 . S
Tb280 O294 2.366 . S
Tb280 O299 2.418 . S
Tb280 O300 2.384 . S
Tb280 O303 2.479 . S
Tb280 O304 2.471 . S
Eu281 O292 2.418 . S
Eu281 O293 2.384 . S
Eu281 O296 2.479 . S
Eu281 O297 2.471 . S
Eu281 O298 2.347 . S
Eu281 O301 2.366 . S
Eu281 C311 2.825 . S
C282 O298 1.259 . S
C282 O299 1.265 . S
C283 O300 1.255 . S
C283 O301 1.265 . S
C284 C286 1.380 . S
C284 C287 1.374 . S
C284 C290 1.507 . S
C285 C286 1.384 . S
C285 C289 1.387 . S
C285 H312 0.930 . S
C286 C284 1.380 . S
C286 C285 1.384 . S
C286 H313 0.931 . S
C287 C284 1.374 . S
C287 C288 1.390 . S
C287 H314 0.930 . S
C288 C287 1.390 . S
C288 C289 1.391 . S
C288 H315 0.930 . S
C289 C285 1.387 . S
C289 C288 1.391 . S
C290 Tb280 2.825 . S
C290 C284 1.507 . S
C290 O303 1.238 . S
C290 O304 1.247 . S
O291 Tb280 2.347 . S
O291 C295 1.259 . S
O292 Eu281 2.418 . S
O292 C295 1.265 . S
O293 Eu281 2.384 . S
O293 C302 1.255 . S
O294 Tb280 2.366 . S
O294 C302 1.265 . S
C295 O291 1.259 . S
C295 O292 1.265 . S
O296 Eu281 2.479 . S
O296 C311 1.238 . S
O297 Eu281 2.471 . S
O297 C311 1.247 . S
O298 Eu281 2.347 . S
O298 C282 1.259 . S
O299 Tb280 2.418 . S
O299 C282 1.265 . S
O300 Tb280 2.384 . S
O300 C283 1.255 . S
O301 Eu281 2.366 . S
O301 C283 1.265 . S
C302 O293 1.255 . S
C302 O294 1.265 . S
O303 Tb280 2.479 . S
O303 C290 1.238 . S
O304 Tb280 2.471 . S
O304 C290 1.247 . S
C305 C308 1.380 . S
C305 C309 1.374 . S
C305 C311 1.507 . S
C306 C307 1.387 . S
C306 C310 1.391 . S
C307 C306 1.387 . S
C307 C308 1.384 . S
C307 H316 0.930 . S
C308 C305 1.380 . S
C308 C307 1.384 . S
C308 H317 0.931 . S
C309 C305 1.374 . S
C309 C310 1.390 . S
C309 H318 0.930 . S
C310 C306 1.391 . S
C310 C309 1.390 . S
C310 H319 0.930 . S
C311 Eu281 2.825 . S
C311 O296 1.238 . S
C311 O297 1.247 . S
C311 C305 1.507 . S
H312 C285 0.930 . S
H313 C286 0.931 . S
H314 C287 0.930 . S
H315 C288 0.930 . S
H316 C307 0.930 . S
H317 C308 0.931 . S
H318 C309 0.930 . S
H319 C310 0.930 . S
Co320 O323 2.042 . S
Co320 O330 2.264 . S
Co320 O349 2.286 . S
Co320 O350 2.069 . S
Co320 O352 2.015 1_455 S
Co321 O323 2.122 . S
Co321 O329 2.073 . S
Co321 O330 2.327 . S
Co321 O331 1.976 1_455 S
Co322 O323 2.087 1_545 S
Co322 O325 2.087 1_455 S
Co322 O332 2.111 1_445 S
Co322 O333 2.143 . S
Co322 O337 2.111 . S
Co322 O351 2.143 1_445 S
O323 Co320 2.042 . S
O323 Co321 2.122 . S
O323 Co322 2.087 1_565 S
O323 H324 0.980 1_565 S
H324 O323 0.980 1_545 S
O325 Co322 2.087 1_655 S
O325 Co326 2.042 . S
O325 Co327 2.122 . S
O325 H328 0.980 . S
Co326 O325 2.042 . S
Co326 O334 2.286 . S
Co326 O335 2.069 . S
Co326 O336 2.015 1_655 S
Co326 O339 2.264 . S
Co327 O325 2.122 . S
Co327 O338 1.976 1_655 S
Co327 O339 2.327 . S
Co327 O340 2.073 . S
H328 O325 0.980 . S
O329 Co321 2.073 . S
O329 C344 1.245 . S
O330 Co320 2.264 . S
O330 Co321 2.327 . S
O330 C344 1.257 . S
O331 Co321 1.976 1_655 S
O331 C343 1.251 . S
O332 Co322 2.111 1_665 S
O332 C343 1.274 . S
O333 Co322 2.143 . S
O333 C346 1.246 . S
O334 Co326 2.286 . S
O334 C345 1.259 . S
O335 Co326 2.069 . S
O335 C345 1.289 . S
O336 Co326 2.015 1_455 S
O336 C346 1.257 . S
O337 Co322 2.111 . S
O337 C347 1.274 . S
O338 Co327 1.976 1_455 S
O338 C347 1.251 . S
O339 Co326 2.264 . S
O339 Co327 2.327 . S
O339 C348 1.257 . S
O340 Co327 2.073 . S
O340 C348 1.245 . S
C341 O349 1.259 . S
C341 O350 1.289 . S
C342 O351 1.246 . S
C342 O352 1.257 . S
C343 O331 1.251 . S
C343 O332 1.274 . S
C344 O329 1.245 . S
C344 O330 1.257 . S
C345 O334 1.259 . S
C345 O335 1.289 . S
C346 O333 1.246 . S
C346 O336 1.257 . S
C347 O337 1.274 . S
C347 O338 1.251 . S
C348 O339 1.257 . S
C348 O340 1.245 . S
O349 Co320 2.286 . S
O349 C341 1.259 . S
O350 Co320 2.069 . S
O350 C341 1.289 . S
O351 Co322 2.143 1_665 S
O351 C342 1.246 . S
O352 Co320 2.015 1_655 S
O352 C342 1.257 . S
Co353 O356 2.042 . S
Co353 O363 2.264 . S
Co353 O382 2.286 1_554 S
Co353 O383 2.069 . S
Co353 O385 2.015 . S
Co354 O356 2.122 . S
Co354 O362 2.073 . S
Co354 O363 2.327 . S
Co354 O364 1.976 . S
Co355 O356 2.087 1_545 S
Co355 O358 2.087 . S
Co355 O365 2.111 1_545 S
Co355 O366 2.143 . S
Co355 O370 2.111 . S
Co355 O384 2.143 1_545 S
O356 Co353 2.042 . S
O356 Co354 2.122 . S
O356 Co355 2.087 1_565 S
O356 H357 0.980 . S
H357 O356 0.980 . S
O358 Co355 2.087 . S
O358 Co359 2.042 . S
O358 Co360 2.122 1_554 S
O358 H361 0.980 . S
Co359 O358 2.042 . S
Co359 O367 2.286 . S
Co359 O368 2.069 . S
Co359 O369 2.015 . S
Co359 O372 2.264 . S
Co360 O358 2.122 1_556 S
Co360 O371 1.976 . S
Co360 O372 2.327 1_556 S
Co360 O373 2.073 . S
H361 O358 0.980 . S
O362 Co354 2.073 . S
O362 C377 1.245 . S
O363 Co353 2.264 . S
O363 Co354 2.327 . S
O363 C377 1.257 . S
O364 Co354 1.976 . S
O364 C376 1.251 . S
O365 Co355 2.111 1_565 S
O365 C376 1.274 . S
O366 Co355 2.143 . S
O366 C379 1.246 . S
O367 Co359 2.286 . S
O367 C378 1.259 . S
O368 Co359 2.069 . S
O368 C378 1.289 . S
O369 Co359 2.015 . S
O369 C379 1.257 . S
O370 Co355 2.111 . S
O370 C380 1.273 1_554 S
O371 Co360 1.976 . S
O371 C380 1.253 . S
O372 Co359 2.264 . S
O372 Co360 2.327 1_554 S
O372 C381 1.257 . S
O373 Co360 2.073 . S
O373 C381 1.245 1_556 S
C374 O382 1.259 . S
C374 O383 1.289 1_556 S
C375 O384 1.246 1_556 S
C375 O385 1.257 1_556 S
C376 O364 1.251 . S
C376 O365 1.274 . S
C377 O362 1.245 . S
C377 O363 1.257 . S
C378 O367 1.259 . S
C378 O368 1.289 . S
C379 O366 1.246 . S
C379 O369 1.257 . S
C380 O370 1.273 1_556 S
C380 O371 1.253 . S
C381 O372 1.257 . S
C381 O373 1.245 1_554 S
O382 Co353 2.286 1_556 S
O382 C374 1.259 . S
O383 Co353 2.069 . S
O383 C374 1.289 1_554 S
O384 Co355 2.143 1_565 S
O384 C375 1.246 1_554 S
O385 Co353 2.015 . S
O385 C375 1.257 1_554 S
Co386 O389 2.042 1_556 S
Co386 O396 2.264 1_556 S
Co386 O415 2.286 . S
Co386 O416 2.069 . S
Co386 O418 2.015 . S
Co387 O389 2.122 . S
Co387 O395 2.073 . S
Co387 O396 2.327 . S
Co387 O397 1.976 . S
Co388 O389 2.087 . S
Co388 O391 2.087 1_554 S
Co388 O398 2.111 1_455 S
Co388 O399 2.143 . S
Co388 O403 2.111 1_554 S
Co388 O417 2.151 1_554 S
O389 Co386 2.042 1_554 S
O389 Co387 2.122 . S
O389 Co388 2.087 . S
O389 H390 0.980 . S
H390 O389 0.980 . S
O391 Co388 2.087 1_556 S
O391 Co392 2.042 1_556 S
O391 Co393 2.122 . S
O391 H394 0.980 1_455 S
Co392 O391 2.042 1_554 S
Co392 O400 2.286 . S
Co392 O401 2.069 1_455 S
Co392 O402 2.015 . S
Co392 O405 2.264 1_554 S
Co393 O391 2.122 . S
Co393 O404 1.976 . S
Co393 O405 2.327 . S
Co393 O406 2.073 1_455 S
H394 O391 0.980 1_655 S
O395 Co387 2.073 . S
O395 C410 1.245 . S
O396 Co386 2.264 1_554 S
O396 Co387 2.327 . S
O396 C410 1.257 . S
O397 Co387 1.976 . S
O397 C409 1.251 1_455 S
O398 Co388 2.111 1_655 S
O398 C409 1.274 . S
O399 Co388 2.143 . S
O399 C412 1.246 . S
O400 Co392 2.286 . S
O400 C411 1.259 1_455 S
O401 Co392 2.069 1_655 S
O401 C411 1.289 . S
O402 Co392 2.015 . S
O402 C412 1.257 . S
O403 Co388 2.111 1_556 S
O403 C413 1.274 . S
O404 Co393 1.976 . S
O404 C413 1.251 . S
O405 Co392 2.264 1_556 S
O405 Co393 2.327 . S
O405 C414 1.257 1_455 S
O406 Co393 2.073 1_655 S
O406 C414 1.245 . S
C407 O415 1.259 . S
C407 O416 1.289 . S
C408 O417 1.248 1_655 S
C408 O418 1.257 1_655 S
C409 O397 1.251 1_655 S
C409 O398 1.274 . S
C410 O395 1.245 . S
C410 O396 1.257 . S
C411 O400 1.259 1_655 S
C411 O401 1.289 . S
C412 O399 1.246 . S
C412 O402 1.257 . S
C413 O403 1.274 . S
C413 O404 1.251 . S
C414 O405 1.257 1_655 S
C414 O406 1.245 . S
O415 Co386 2.286 . S
O415 C407 1.259 . S
O416 Co386 2.069 . S
O416 C407 1.289 . S
O417 Co388 2.151 1_556 S
O417 C408 1.248 1_455 S
O418 Co386 2.015 . S
O418 C408 1.257 1_455 S
Co419 O422 2.041 1_556 S
Co419 O429 2.262 1_556 S
Co419 O448 2.287 . S
Co419 O449 2.069 . S
Co419 O451 2.015 . S
Co420 O422 2.122 . S
Co420 O428 2.073 . S
Co420 O429 2.327 . S
Co420 O430 1.976 . S
Co421 O422 2.087 . S
Co421 O424 2.087 . S
Co421 O431 2.111 . S
Co421 O432 2.143 . S
Co421 O436 2.111 1_554 S
Co421 O450 2.143 1_554 S
O422 Co419 2.041 1_554 S
O422 Co420 2.122 . S
O422 Co421 2.087 . S
O422 H423 0.980 . S
H423 O422 0.980 . S
O424 Co421 2.087 . S
O424 Co425 2.042 . S
O424 Co426 2.122 1_554 S
O424 H427 0.980 . S
Co425 O424 2.042 . S
Co425 O433 2.286 . S
Co425 O434 2.069 . S
Co425 O435 2.015 . S
Co425 O438 2.264 1_554 S
Co426 O424 2.122 1_556 S
Co426 O437 1.976 . S
Co426 O438 2.327 . S
Co426 O439 2.073 . S
H427 O424 0.980 . S
O428 Co420 2.073 . S
O428 C443 1.245 . S
O429 Co419 2.262 1_554 S
O429 Co420 2.327 . S
O429 C443 1.257 . S
O430 Co420 1.976 . S
O430 C442 1.251 . S
O431 Co421 2.111 . S
O431 C442 1.274 . S
O432 Co421 2.143 . S
O432 C445 1.246 . S
O433 Co425 2.286 . S
O433 C444 1.259 . S
O434 Co425 2.069 . S
O434 C444 1.289 . S
O435 Co425 2.015 . S
O435 C445 1.257 . S
O436 Co421 2.111 1_556 S
O436 C446 1.274 . S
O437 Co426 1.976 . S
O437 C446 1.251 . S
O438 Co425 2.264 1_556 S
O438 Co426 2.327 . S
O438 C447 1.257 . S
O439 Co426 2.073 . S
O439 C447 1.245 . S
C440 O448 1.259 . S
C440 O449 1.289 . S
C441 O450 1.246 . S
C441 O451 1.257 . S
C442 O430 1.251 . S
C442 O431 1.274 . S
C443 O428 1.245 . S
C443 O429 1.257 . S
C444 O433 1.259 . S
C444 O434 1.289 . S
C445 O432 1.246 . S
C445 O435 1.257 . S
C446 O436 1.274 . S
C446 O437 1.251 . S
C447 O438 1.257 . S
C447 O439 1.245 . S
O448 Co419 2.287 . S
O448 C440 1.259 . S
O449 Co419 2.069 . S
O449 C440 1.289 . S
O450 Co421 2.143 1_556 S
O450 C441 1.246 . S
O451 Co419 2.015 . S
O451 C441 1.257 . S
Co452 O455 2.042 . S
Co452 O462 2.264 . S
Co452 O481 2.286 . S
Co452 O482 2.069 . S
Co452 O484 2.015 . S
Co453 O455 2.122 . S
Co453 O461 2.073 . S
Co453 O462 2.327 . S
Co453 O463 1.976 . S
Co454 O455 2.087 . S
Co454 O457 2.087 1_455 S
Co454 O464 2.111 . S
Co454 O465 2.143 1_455 S
Co454 O469 2.111 1_455 S
Co454 O483 2.143 . S
O455 Co452 2.042 . S
O455 Co453 2.122 . S
O455 Co454 2.087 . S
O455 H456 0.980 . S
H456 O455 0.980 . S
O457 Co454 2.087 1_655 S
O457 Co458 2.042 . S
O457 Co459 2.122 . S
O457 H460 0.980 . S
Co458 O457 2.042 . S
Co458 O466 2.286 . S
Co458 O467 2.069 . S
Co458 O468 2.015 . S
Co458 O471 2.264 . S
Co459 O457 2.122 . S
Co459 O470 1.976 . S
Co459 O471 2.327 . S
Co459 O472 2.073 . S
H460 O457 0.980 . S
O461 Co453 2.073 . S
O461 C476 1.245 . S
O462 Co452 2.264 . S
O462 Co453 2.327 . S
O462 C476 1.257 . S
O463 Co453 1.976 . S
O463 C475 1.251 . S
O464 Co454 2.111 . S
O464 C475 1.274 . S
O465 Co454 2.143 1_655 S
O465 C478 1.246 . S
O466 Co458 2.286 . S
O466 C477 1.259 . S
O467 Co458 2.069 . S
O467 C477 1.289 . S
O468 Co458 2.015 . S
O468 C478 1.257 . S
O469 Co454 2.111 1_655 S
O469 C479 1.274 . S
O470 Co459 1.976 . S
O470 C479 1.251 . S
O471 Co458 2.264 . S
O471 Co459 2.327 . S
O471 C480 1.257 . S
O472 Co459 2.073 . S
O472 C480 1.245 . S
C473 O481 1.259 . S
C473 O482 1.289 . S
C474 O483 1.246 . S
C474 O484 1.257 . S
C475 O463 1.251 . S
C475 O464 1.274 . S
C476 O461 1.245 . S
C476 O462 1.257 . S
C477 O466 1.259 . S
C477 O467 1.289 . S
C478 O465 1.246 . S
C478 O468 1.257 . S
C479 O469 1.274 . S
C479 O470 1.251 . S
C480 O471 1.257 . S
C480 O472 1.245 . S
O481 Co452 2.286 . S
O481 C473 1.259 . S
O482 Co452 2.069 . S
O482 C473 1.289 . S
O483 Co454 2.143 . S
O483 C474 1.246 . S
O484 Co452 2.015 . S
O484 C474 1.257 . S
Co485 O488 2.042 . S
Co485 O495 2.264 . S
Co485 O514 2.286 . S
Co485 O515 2.069 1_545 S
Co485 O517 2.015 . S
Co486 O488 2.122 . S
Co486 O494 2.073 1_545 S
Co486 O495 2.327 . S
Co486 O496 1.976 . S
Co487 O488 2.087 . S
Co487 O490 2.087 . S
Co487 O497 2.111 . S
Co487 O498 2.143 1_545 S
Co487 O502 2.111 1_545 S
Co487 O516 2.143 . S
O488 Co485 2.042 . S
O488 Co486 2.122 . S
O488 Co487 2.087 . S
O488 H489 0.980 1_545 S
H489 O488 0.980 1_565 S
O490 Co487 2.087 . S
O490 Co491 2.042 . S
O490 Co492 2.122 . S
O490 H493 0.980 . S
Co491 O490 2.042 . S
Co491 O499 2.286 . S
Co491 O500 2.069 . S
Co491 O501 2.015 . S
Co491 O504 2.264 . S
Co492 O490 2.122 . S
Co492 O503 1.976 . S
Co492 O504 2.327 . S
Co492 O505 2.073 . S
H493 O490 0.980 . S
O494 Co486 2.073 1_565 S
O494 C509 1.245 . S
O495 Co485 2.264 . S
O495 Co486 2.327 . S
O495 C509 1.257 1_545 S
O496 Co486 1.976 . S
O496 C508 1.251 . S
O497 Co487 2.111 . S
O497 C508 1.274 . S
O498 Co487 2.143 1_565 S
O498 C511 1.246 . S
O499 Co491 2.286 . S
O499 C510 1.259 . S
O500 Co491 2.069 . S
O500 C510 1.289 . S
O501 Co491 2.015 . S
O501 C511 1.257 1_545 S
O502 Co487 2.111 1_565 S
O502 C512 1.274 . S
O503 Co492 1.976 . S
O503 C512 1.251 1_545 S
O504 Co491 2.264 . S
O504 Co492 2.327 . S
O504 C513 1.257 . S
O505 Co492 2.073 . S
O505 C513 1.245 . S
C506 O514 1.259 1_565 S
C506 O515 1.289 . S
C507 O516 1.246 . S
C507 O517 1.257 . S
C508 O496 1.251 . S
C508 O497 1.274 . S
C509 O494 1.245 . S
C509 O495 1.257 1_565 S
C510 O499 1.259 . S
C510 O500 1.289 . S
C511 O498 1.246 . S
C511 O501 1.257 1_565 S
C512 O502 1.274 . S
C512 O503 1.251 1_565 S
C513 O504 1.257 . S
C513 O505 1.245 . S
O514 Co485 2.286 . S
O514 C506 1.259 1_545 S
O515 Co485 2.069 1_565 S
O515 C506 1.289 . S
O516 Co487 2.143 . S
O516 C507 1.246 . S
O517 Co485 2.015 . S
O517 C507 1.257 . S
H518 C524 0.930 . S
H519 C528 0.930 . S
H520 C533 0.929 . S
H521 C531 0.929 . S
H522 C526 0.929 . S
H523 C532 0.929 . S
C524 H518 0.930 . S
C524 C525 1.367 . S
C524 C532 1.378 . S
C525 C524 1.367 . S
C525 C533 1.433 . S
C526 H522 0.929 . S
C526 C528 1.378 . S
C526 C530 1.350 . S
C527 C530 1.463 . S
C527 C532 1.350 . S
C527 N535 1.427 . S
C528 H519 0.930 . S
C528 C526 1.378 . S
C528 C529 1.367 . S
C529 C528 1.367 . S
C529 C531 1.433 . S
C530 C526 1.350 . S
C530 C527 1.463 . S
C530 N534 1.427 . S
C531 H521 0.929 . S
C531 C529 1.433 . S
C531 N534 1.384 . S
C532 H523 0.929 . S
C532 C524 1.378 . S
C532 C527 1.350 . S
C533 H520 0.929 . S
C533 C525 1.433 . S
C533 N535 1.384 . S
N534 C530 1.427 . S
N534 C531 1.384 . S
N535 C527 1.427 . S
N535 C533 1.384 . S
H536 C542 0.930 . S
H537 C546 0.930 . S
H538 C551 0.929 . S
H539 C549 0.929 . S
H540 C544 0.929 . S
H541 C550 0.929 . S
C542 H536 0.930 . S
C542 C543 1.367 . S
C542 C550 1.378 . S
C543 C542 1.367 . S
C543 C551 1.433 . S
C544 H540 0.929 . S
C544 C546 1.378 . S
C544 C548 1.350 . S
C545 C548 1.463 . S
C545 C550 1.350 . S
C545 N553 1.427 . S
C546 H537 0.930 . S
C546 C544 1.378 . S
C546 C547 1.367 . S
C547 C546 1.367 . S
C547 C549 1.433 . S
C548 C544 1.350 . S
C548 C545 1.463 . S
C548 N552 1.427 . S
C549 H539 0.929 . S
C549 C547 1.433 . S
C549 N552 1.384 . S
C550 H541 0.929 . S
C550 C542 1.378 . S
C550 C545 1.350 . S
C551 H538 0.929 . S
C551 C543 1.433 . S
C551 N553 1.384 . S
N552 C548 1.427 . S
N552 C549 1.384 . S
N553 C545 1.427 . S
N553 C551 1.384 . S
H554 C560 0.930 . S
H555 C564 0.930 . S
H556 C569 0.929 . S
H557 C567 0.929 . S
H558 C562 0.929 . S
H559 C568 0.929 . S
C560 H554 0.930 . S
C560 C561 1.367 . S
C560 C568 1.378 . S
C561 C560 1.367 . S
C561 C569 1.433 . S
C562 H558 0.929 . S
C562 C564 1.378 . S
C562 C566 1.350 . S
C563 C566 1.463 . S
C563 C568 1.350 . S
C563 N571 1.427 . S
C564 H555 0.930 . S
C564 C562 1.378 . S
C564 C565 1.367 . S
C565 C564 1.367 . S
C565 C567 1.433 . S
C566 C562 1.350 . S
C566 C563 1.463 . S
C566 N570 1.427 . S
C567 H557 0.929 . S
C567 C565 1.433 . S
C567 N570 1.384 . S
C568 H559 0.929 . S
C568 C560 1.378 . S
C568 C563 1.350 . S
C569 H556 0.929 . S
C569 C561 1.433 . S
C569 N571 1.384 . S
N570 C566 1.427 . S
N570 C567 1.384 . S
N571 C563 1.427 . S
N571 C569 1.384 . S
H572 C578 0.930 . S
H573 C582 0.930 . S
H574 C587 0.929 . S
H575 C585 0.929 . S
H576 C580 0.929 . S
H577 C586 0.929 . S
C578 H572 0.930 . S
C578 C579 1.367 . S
C578 C586 1.378 . S
C579 C578 1.367 . S
C579 C587 1.433 . S
C580 H576 0.929 . S
C580 C582 1.378 . S
C580 C584 1.350 . S
C581 C584 1.463 . S
C581 C586 1.350 . S
C581 N589 1.427 . S
C582 H573 0.930 . S
C582 C580 1.378 . S
C582 C583 1.367 . S
C583 C582 1.367 . S
C583 C585 1.433 . S
C584 C580 1.350 . S
C584 C581 1.463 . S
C584 N588 1.427 . S
C585 H575 0.929 . S
C585 C583 1.433 . S
C585 N588 1.384 . S
C586 H577 0.929 . S
C586 C578 1.378 . S
C586 C581 1.350 . S
C587 H574 0.929 . S
C587 C579 1.433 . S
C587 N589 1.384 . S
N588 C584 1.427 . S
N588 C585 1.384 . S
N589 C581 1.427 . S
N589 C587 1.384 . S
H590 C596 0.930 . S
H591 C600 0.930 . S
H592 C605 0.929 . S
H593 C603 0.929 . S
H594 C598 0.929 . S
H595 C604 0.929 . S
C596 H590 0.930 . S
C596 C597 1.367 . S
C596 C604 1.378 . S
C597 C596 1.367 . S
C597 C605 1.433 . S
C598 H594 0.929 . S
C598 C600 1.378 . S
C598 C602 1.350 . S
C599 C602 1.463 . S
C599 C604 1.350 . S
C599 N607 1.427 . S
C600 H591 0.930 . S
C600 C598 1.378 . S
C600 C601 1.367 . S
C601 C600 1.367 . S
C601 C603 1.433 . S
C602 C598 1.350 . S
C602 C599 1.463 . S
C602 N606 1.427 . S
C603 H593 0.929 . S
C603 C601 1.433 . S
C603 N606 1.384 . S
C604 H595 0.929 . S
C604 C596 1.378 . S
C604 C599 1.350 . S
C605 H592 0.929 . S
C605 C597 1.433 . S
C605 N607 1.384 . S
N606 C602 1.427 . S
N606 C603 1.384 . S
N607 C599 1.427 . S
N607 C605 1.384 . S
H608 C614 0.930 . S
H609 C618 0.930 . S
H610 C623 0.929 . S
H611 C621 0.929 . S
H612 C616 0.929 . S
H613 C622 0.929 . S
C614 H608 0.930 . S
C614 C615 1.367 . S
C614 C622 1.378 . S
C615 C614 1.367 . S
C615 C623 1.433 . S
C616 H612 0.929 . S
C616 C618 1.378 . S
C616 C620 1.350 . S
C617 C620 1.463 . S
C617 C622 1.350 . S
C617 N625 1.427 . S
C618 H609 0.930 . S
C618 C616 1.378 . S
C618 C619 1.367 . S
C619 C618 1.367 . S
C619 C621 1.433 . S
C620 C616 1.350 . S
C620 C617 1.463 . S
C620 N624 1.427 . S
C621 H611 0.929 . S
C621 C619 1.433 . S
C621 N624 1.384 . S
C622 H613 0.929 . S
C622 C614 1.378 . S
C622 C617 1.350 . S
C623 H610 0.929 . S
C623 C615 1.433 . S
C623 N625 1.384 . S
N624 C620 1.427 . S
N624 C621 1.384 . S
N625 C617 1.427 . S
N625 C623 1.384 . S
H626 C632 0.930 . S
H627 C636 0.930 . S
H628 C641 0.929 . S
H629 C639 0.929 . S
H630 C634 0.929 . S
H631 C640 0.929 . S
C632 H626 0.930 . S
C632 C633 1.367 . S
C632 C640 1.378 . S
C633 C632 1.367 . S
C633 C641 1.433 . S
C634 H630 0.929 . S
C634 C636 1.378 . S
C634 C638 1.350 . S
C635 C638 1.463 . S
C635 C640 1.350 . S
C635 N643 1.427 . S
C636 H627 0.930 . S
C636 C634 1.378 . S
C636 C637 1.367 . S
C637 C636 1.367 . S
C637 C639 1.433 . S
C638 C634 1.350 . S
C638 C635 1.463 . S
C638 N642 1.427 . S
C639 H629 0.929 . S
C639 C637 1.433 . S
C639 N642 1.384 . S
C640 H631 0.929 . S
C640 C632 1.378 . S
C640 C635 1.350 . S
C641 H628 0.929 . S
C641 C633 1.433 . S
C641 N643 1.384 . S
N642 C638 1.427 . S
N642 C639 1.384 . S
N643 C635 1.427 . S
N643 C641 1.384 . S
H644 C650 0.930 . S
H645 C654 0.930 . S
H646 C659 0.929 . S
H647 C657 0.929 . S
H648 C652 0.929 . S
H649 C658 0.929 . S
C650 H644 0.930 . S
C650 C651 1.367 . S
C650 C658 1.378 . S
C651 C650 1.367 . S
C651 C659 1.433 . S
C652 H648 0.929 . S
C652 C654 1.378 . S
C652 C656 1.350 . S
C653 C656 1.463 . S
C653 C658 1.350 . S
C653 N661 1.427 . S
C654 H645 0.930 . S
C654 C652 1.378 . S
C654 C655 1.367 . S
C655 C654 1.367 . S
C655 C657 1.433 . S
C656 C652 1.350 . S
C656 C653 1.463 . S
C656 N660 1.427 . S
C657 H647 0.929 . S
C657 C655 1.433 . S
C657 N660 1.384 . S
C658 H649 0.929 . S
C658 C650 1.378 . S
C658 C653 1.350 . S
C659 H646 0.929 . S
C659 C651 1.433 . S
C659 N661 1.384 . S
N660 C656 1.427 . S
N660 C657 1.384 . S
N661 C653 1.427 . S
N661 C659 1.384 . S
H662 C668 0.930 . S
H663 C672 0.930 . S
H664 C677 0.929 . S
H665 C675 0.929 . S
H666 C670 0.929 . S
H667 C676 0.929 . S
C668 H662 0.930 . S
C668 C669 1.367 . S
C668 C676 1.378 . S
C669 C668 1.367 . S
C669 C677 1.433 . S
C670 H666 0.929 . S
C670 C672 1.378 . S
C670 C674 1.350 . S
C671 C674 1.463 . S
C671 C676 1.350 . S
C671 N679 1.427 . S
C672 H663 0.930 . S
C672 C670 1.378 . S
C672 C673 1.367 . S
C673 C672 1.367 . S
C673 C675 1.433 . S
C674 C670 1.350 . S
C674 C671 1.463 . S
C674 N678 1.427 . S
C675 H665 0.929 . S
C675 C673 1.433 . S
C675 N678 1.384 . S
C676 H667 0.929 . S
C676 C668 1.378 . S
C676 C671 1.350 . S
C677 H664 0.929 . S
C677 C669 1.433 . S
C677 N679 1.384 . S
N678 C674 1.427 . S
N678 C675 1.384 . S
N679 C671 1.427 . S
N679 C677 1.384 . S
H680 C686 0.930 . S
H681 C690 0.930 . S
H682 C695 0.929 . S
H683 C693 0.929 . S
H684 C688 0.929 . S
H685 C694 0.929 . S
C686 H680 0.930 . S
C686 C687 1.367 . S
C686 C694 1.378 . S
C687 C686 1.367 . S
C687 C695 1.433 . S
C688 H684 0.929 . S
C688 C690 1.378 . S
C688 C692 1.350 . S
C689 C692 1.463 . S
C689 C694 1.350 . S
C689 N697 1.427 . S
C690 H681 0.930 . S
C690 C688 1.378 . S
C690 C691 1.367 . S
C691 C690 1.367 . S
C691 C693 1.433 . S
C692 C688 1.350 . S
C692 C689 1.463 . S
C692 N696 1.427 . S
C693 H683 0.929 . S
C693 C691 1.433 . S
C693 N696 1.384 . S
C694 H685 0.929 . S
C694 C686 1.378 . S
C694 C689 1.350 . S
C695 H682 0.929 . S
C695 C687 1.433 . S
C695 N697 1.384 . S
N696 C692 1.427 . S
N696 C693 1.384 . S
N697 C689 1.427 . S
N697 C695 1.384 . S
H698 C704 0.930 . S
H699 C708 0.930 . S
H700 C713 0.929 . S
H701 C711 0.929 . S
H702 C706 0.929 . S
H703 C712 0.929 . S
C704 H698 0.930 . S
C704 C705 1.367 . S
C704 C712 1.378 . S
C705 C704 1.367 . S
C705 C713 1.433 . S
C706 H702 0.929 . S
C706 C708 1.378 . S
C706 C710 1.350 . S
C707 C710 1.463 . S
C707 C712 1.350 . S
C707 N715 1.427 . S
C708 H699 0.930 . S
C708 C706 1.378 . S
C708 C709 1.367 . S
C709 C708 1.367 . S
C709 C711 1.433 . S
C710 C706 1.350 . S
C710 C707 1.463 . S
C710 N714 1.427 . S
C711 H701 0.929 . S
C711 C709 1.433 . S
C711 N714 1.384 . S
C712 H703 0.929 . S
C712 C704 1.378 . S
C712 C707 1.350 . S
C713 H700 0.929 . S
C713 C705 1.433 . S
C713 N715 1.384 . S
N714 C710 1.427 . S
N714 C711 1.384 . S
N715 C707 1.427 . S
N715 C713 1.384 . S
H716 C722 0.930 . S
H717 C726 0.930 . S
H718 C731 0.929 . S
H719 C729 0.929 . S
H720 C724 0.929 . S
H721 C730 0.929 . S
C722 H716 0.930 . S
C722 C723 1.367 . S
C722 C730 1.378 . S
C723 C722 1.367 . S
C723 C731 1.433 . S
C724 H720 0.929 . S
C724 C726 1.378 . S
C724 C728 1.350 . S
C725 C728 1.463 . S
C725 C730 1.350 . S
C725 N733 1.427 . S
C726 H717 0.930 . S
C726 C724 1.378 . S
C726 C727 1.367 . S
C727 C726 1.367 . S
C727 C729 1.433 . S
C728 C724 1.350 . S
C728 C725 1.463 . S
C728 N732 1.427 . S
C729 H719 0.929 . S
C729 C727 1.433 . S
C729 N732 1.384 . S
C730 H721 0.929 . S
C730 C722 1.378 . S
C730 C725 1.350 . S
C731 H718 0.929 . S
C731 C723 1.433 . S
C731 N733 1.384 . S
N732 C728 1.427 . S
N732 C729 1.384 . S
N733 C725 1.427 . S
N733 C731 1.384 . S
H734 C740 0.930 . S
H735 C744 0.930 1_554 S
H736 C749 0.929 . S
H737 C747 0.929 . S
H738 C742 0.929 . S
H739 C748 0.929 . S
C740 H734 0.930 . S
C740 C741 1.367 . S
C740 C748 1.378 . S
C741 C740 1.367 . S
C741 C749 1.433 . S
C742 H738 0.929 . S
C742 C744 1.378 . S
C742 C746 1.350 . S
C743 C746 1.463 . S
C743 C748 1.350 . S
C743 N751 1.427 . S
C744 H735 0.930 1_556 S
C744 C742 1.378 . S
C744 C745 1.367 . S
C745 C744 1.367 . S
C745 C747 1.433 . S
C746 C742 1.350 . S
C746 C743 1.463 . S
C746 N750 1.427 . S
C747 H737 0.929 . S
C747 C745 1.433 . S
C747 N750 1.384 . S
C748 H739 0.929 . S
C748 C740 1.378 . S
C748 C743 1.350 . S
C749 H736 0.929 . S
C749 C741 1.433 . S
C749 N751 1.384 . S
N750 C746 1.427 . S
N750 C747 1.384 . S
N751 C743 1.427 . S
N751 C749 1.384 . S
H752 C758 0.930 . S
H753 C762 0.930 . S
H754 C767 0.929 . S
H755 C765 0.929 . S
H756 C760 0.929 . S
H757 C766 0.929 . S
C758 H752 0.930 . S
C758 C759 1.367 . S
C758 C766 1.378 . S
C759 C758 1.367 . S
C759 C767 1.433 . S
C760 H756 0.929 . S
C760 C762 1.378 . S
C760 C764 1.350 . S
C761 C764 1.463 . S
C761 C766 1.350 . S
C761 N769 1.427 . S
C762 H753 0.930 . S
C762 C760 1.378 . S
C762 C763 1.367 . S
C763 C762 1.367 . S
C763 C765 1.433 . S
C764 C760 1.350 . S
C764 C761 1.463 . S
C764 N768 1.427 . S
C765 H755 0.929 . S
C765 C763 1.433 . S
C765 N768 1.384 . S
C766 H757 0.929 . S
C766 C758 1.378 . S
C766 C761 1.350 . S
C767 H754 0.929 . S
C767 C759 1.433 . S
C767 N769 1.384 . S
N768 C764 1.427 . S
N768 C765 1.384 . S
N769 C761 1.427 . S
N769 C767 1.384 . S
H770 C776 0.930 . S
H771 C780 0.930 . S
H772 C785 0.929 . S
H773 C783 0.929 . S
H774 C778 0.929 . S
H775 C784 0.929 . S
C776 H770 0.930 . S
C776 C777 1.367 . S
C776 C784 1.378 . S
C777 C776 1.367 . S
C777 C785 1.433 . S
C778 H774 0.929 . S
C778 C780 1.378 . S
C778 C782 1.350 . S
C779 C782 1.463 . S
C779 C784 1.350 . S
C779 N787 1.427 . S
C780 H771 0.930 . S
C780 C778 1.378 . S
C780 C781 1.367 . S
C781 C780 1.367 . S
C781 C783 1.433 1_556 S
C782 C778 1.350 . S
C782 C779 1.463 . S
C782 N786 1.427 . S
C783 H773 0.929 . S
C783 C781 1.433 1_554 S
C783 N786 1.384 1_554 S
C784 H775 0.929 . S
C784 C776 1.378 . S
C784 C779 1.350 . S
C785 H772 0.929 . S
C785 C777 1.433 . S
C785 N787 1.384 . S
N786 C782 1.427 . S
N786 C783 1.384 1_556 S
N787 C779 1.427 . S
N787 C785 1.384 . S
H788 C794 0.930 . S
H789 C798 0.930 1_554 S
H790 C803 0.929 1_554 S
H791 C801 0.929 . S
H792 C796 0.929 1_554 S
H793 C802 0.929 . S
C794 H788 0.930 . S
C794 C795 1.367 . S
C794 C802 1.378 . S
C795 C794 1.367 . S
C795 C803 1.433 . S
C796 H792 0.929 1_556 S
C796 C798 1.378 . S
C796 C800 1.350 . S
C797 C800 1.463 . S
C797 C802 1.350 . S
C797 N805 1.427 . S
C798 H789 0.930 1_556 S
C798 C796 1.378 . S
C798 C799 1.367 . S
C799 C798 1.367 . S
C799 C801 1.433 . S
C800 C796 1.350 . S
C800 C797 1.463 . S
C800 N804 1.427 . S
C801 H791 0.929 . S
C801 C799 1.433 . S
C801 N804 1.384 . S
C802 H793 0.929 . S
C802 C794 1.378 . S
C802 C797 1.350 . S
C803 H790 0.929 1_556 S
C803 C795 1.433 . S
C803 N805 1.384 . S
N804 C800 1.427 . S
N804 C801 1.384 . S
N805 C797 1.427 . S
N805 C803 1.384 . S
H806 C812 0.930 . S
H807 C816 0.930 . S
H808 C821 0.929 . S
H809 C819 0.929 1_556 S
H810 C814 0.929 . S
H811 C820 0.929 . S
C812 H806 0.930 . S
C812 C813 1.367 . S
C812 C820 1.378 . S
C813 C812 1.367 . S
C813 C821 1.433 . S
C814 H810 0.929 . S
C814 C816 1.378 . S
C814 C818 1.350 . S
C815 C818 1.463 . S
C815 C820 1.350 . S
C815 N823 1.427 . S
C816 H807 0.930 . S
C816 C814 1.378 . S
C816 C817 1.367 . S
C817 C816 1.367 . S
C817 C819 1.433 . S
C818 C814 1.350 . S
C818 C815 1.463 . S
C818 N822 1.427 . S
C819 H809 0.929 1_554 S
C819 C817 1.433 . S
C819 N822 1.384 . S
C820 H811 0.929 . S
C820 C812 1.378 . S
C820 C815 1.350 . S
C821 H808 0.929 . S
C821 C813 1.433 . S
C821 N823 1.384 . S
N822 C818 1.427 . S
N822 C819 1.384 . S
N823 C815 1.427 . S
N823 C821 1.384 . S
H824 C830 0.930 . S
H825 C834 0.930 . S
H826 C839 0.929 . S
H827 C837 0.929 . S
H828 C832 0.929 . S
H829 C838 0.929 . S
C830 H824 0.930 . S
C830 C831 1.367 . S
C830 C838 1.378 . S
C831 C830 1.367 . S
C831 C839 1.433 . S
C832 H828 0.929 . S
C832 C834 1.378 . S
C832 C836 1.350 . S
C833 C836 1.463 . S
C833 C838 1.350 . S
C833 N841 1.427 . S
C834 H825 0.930 . S
C834 C832 1.378 . S
C834 C835 1.367 . S
C835 C834 1.367 . S
C835 C837 1.433 . S
C836 C832 1.350 . S
C836 C833 1.463 . S
C836 N840 1.427 . S
C837 H827 0.929 . S
C837 C835 1.433 . S
C837 N840 1.384 . S
C838 H829 0.929 . S
C838 C830 1.378 . S
C838 C833 1.350 . S
C839 H826 0.929 . S
C839 C831 1.433 . S
C839 N841 1.384 . S
N840 C836 1.427 . S
N840 C837 1.384 . S
N841 C833 1.427 . S
N841 C839 1.384 . S
H842 C848 0.930 . S
H843 C852 0.930 . S
H844 C857 0.929 . S
H845 C855 0.929 . S
H846 C850 0.929 1_554 S
H847 C856 0.929 . S
C848 H842 0.930 . S
C848 C849 1.367 . S
C848 C856 1.378 . S
C849 C848 1.367 . S
C849 C857 1.433 . S
C850 H846 0.929 1_556 S
C850 C852 1.378 1_556 S
C850 C854 1.350 . S
C851 C854 1.463 . S
C851 C856 1.350 . S
C851 N859 1.427 . S
C852 H843 0.930 . S
C852 C850 1.378 1_554 S
C852 C853 1.367 1_554 S
C853 C852 1.367 1_556 S
C853 C855 1.433 . S
C854 C850 1.350 . S
C854 C851 1.463 . S
C854 N858 1.427 . S
C855 H845 0.929 . S
C855 C853 1.433 . S
C855 N858 1.384 . S
C856 H847 0.929 . S
C856 C848 1.378 . S
C856 C851 1.350 . S
C857 H844 0.929 . S
C857 C849 1.433 . S
C857 N859 1.384 . S
N858 C854 1.427 . S
N858 C855 1.384 . S
N859 C851 1.427 . S
N859 C857 1.384 . S
H860 C866 0.930 . S
H861 C870 0.930 . S
H862 C875 0.929 . S
H863 C873 0.929 . S
H864 C868 0.929 . S
H865 C874 0.929 . S
C866 H860 0.930 . S
C866 C867 1.367 . S
C866 C874 1.378 . S
C867 C866 1.367 . S
C867 C875 1.433 . S
C868 H864 0.929 . S
C868 C870 1.378 . S
C868 C872 1.350 . S
C869 C872 1.463 . S
C869 C874 1.350 . S
C869 N877 1.427 . S
C870 H861 0.930 . S
C870 C868 1.378 . S
C870 C871 1.367 . S
C871 C870 1.367 . S
C871 C873 1.433 . S
C872 C868 1.350 . S
C872 C869 1.463 . S
C872 N876 1.427 . S
C873 H863 0.929 . S
C873 C871 1.433 . S
C873 N876 1.384 . S
C874 H865 0.929 . S
C874 C866 1.378 . S
C874 C869 1.350 . S
C875 H862 0.929 . S
C875 C867 1.433 . S
C875 N877 1.384 . S
N876 C872 1.427 . S
N876 C873 1.384 . S
N877 C869 1.427 . S
N877 C875 1.384 . S
H878 C884 0.930 . S
H879 C888 0.930 1_554 S
H880 C893 0.929 . S
H881 C891 0.929 . S
H882 C886 0.929 . S
H883 C892 0.929 . S
C884 H878 0.930 . S
C884 C885 1.367 . S
C884 C892 1.378 . S
C885 C884 1.367 . S
C885 C893 1.433 . S
C886 H882 0.929 . S
C886 C888 1.378 . S
C886 C890 1.350 . S
C887 C890 1.463 . S
C887 C892 1.350 . S
C887 N895 1.427 . S
C888 H879 0.930 1_556 S
C888 C886 1.378 . S
C888 C889 1.367 . S
C889 C888 1.367 . S
C889 C891 1.433 . S
C890 C886 1.350 . S
C890 C887 1.463 . S
C890 N894 1.427 . S
C891 H881 0.929 . S
C891 C889 1.433 . S
C891 N894 1.384 . S
C892 H883 0.929 . S
C892 C884 1.378 . S
C892 C887 1.350 . S
C893 H880 0.929 . S
C893 C885 1.433 . S
C893 N895 1.384 . S
N894 C890 1.427 . S
N894 C891 1.384 . S
N895 C887 1.427 . S
N895 C893 1.384 . S
H896 C902 0.930 . S
H897 C906 0.930 . S
H898 C911 0.929 . S
H899 C909 0.929 . S
H900 C904 0.929 . S
H901 C910 0.929 . S
C902 H896 0.930 . S
C902 C903 1.367 . S
C902 C910 1.378 . S
C903 C902 1.367 . S
C903 C911 1.433 . S
C904 H900 0.929 . S
C904 C906 1.378 . S
C904 C908 1.350 . S
C905 C908 1.463 . S
C905 C910 1.350 . S
C905 N913 1.427 . S
C906 H897 0.930 . S
C906 C904 1.378 . S
C906 C907 1.367 . S
C907 C906 1.367 . S
C907 C909 1.433 . S
C908 C904 1.350 . S
C908 C905 1.463 . S
C908 N912 1.427 . S
C909 H899 0.929 . S
C909 C907 1.433 . S
C909 N912 1.384 . S
C910 H901 0.929 . S
C910 C902 1.378 . S
C910 C905 1.350 . S
C911 H898 0.929 . S
C911 C903 1.433 . S
C911 N913 1.384 . S
N912 C908 1.427 . S
N912 C909 1.384 . S
N913 C905 1.427 . S
N913 C911 1.384 . S
H914 C920 0.930 . S
H915 C924 0.930 . S
H916 C929 0.929 . S
H917 C927 0.929 . S
H918 C922 0.929 . S
H919 C928 0.929 . S
C920 H914 0.930 . S
C920 C921 1.367 . S
C920 C928 1.378 . S
C921 C920 1.367 . S
C921 C929 1.433 . S
C922 H918 0.929 . S
C922 C924 1.378 . S
C922 C926 1.350 . S
C923 C926 1.463 . S
C923 C928 1.350 . S
C923 N931 1.427 . S
C924 H915 0.930 . S
C924 C922 1.378 . S
C924 C925 1.367 . S
C925 C924 1.367 . S
C925 C927 1.433 . S
C926 C922 1.350 . S
C926 C923 1.463 . S
C926 N930 1.427 . S
C927 H917 0.929 . S
C927 C925 1.433 . S
C927 N930 1.384 . S
C928 H919 0.929 . S
C928 C920 1.378 . S
C928 C923 1.350 . S
C929 H916 0.929 . S
C929 C921 1.433 . S
C929 N931 1.384 . S
N930 C926 1.427 . S
N930 C927 1.384 . S
N931 C923 1.427 . S
N931 C929 1.384 . S
H932 C938 0.930 . S
H933 C942 0.930 . S
H934 C947 0.929 . S
H935 C945 0.929 . S
H936 C940 0.929 . S
H937 C946 0.929 . S
C938 H932 0.930 . S
C938 C939 1.367 . S
C938 C946 1.378 . S
C939 C938 1.367 . S
C939 C947 1.433 . S
C940 H936 0.929 . S
C940 C942 1.378 . S
C940 C944 1.350 . S
C941 C944 1.463 . S
C941 C946 1.350 . S
C941 N949 1.427 . S
C942 H933 0.930 . S
C942 C940 1.378 . S
C942 C943 1.367 . S
C943 C942 1.367 . S
C943 C945 1.433 . S
C944 C940 1.350 . S
C944 C941 1.463 . S
C944 N948 1.427 . S
C945 H935 0.929 . S
C945 C943 1.433 . S
C945 N948 1.384 . S
C946 H937 0.929 . S
C946 C938 1.378 . S
C946 C941 1.350 . S
C947 H934 0.929 . S
C947 C939 1.433 . S
C947 N949 1.384 . S
N948 C944 1.427 . S
N948 C945 1.384 . S
N949 C941 1.427 . S
N949 C947 1.384 . S
H950 C956 0.930 . S
H951 C960 0.930 . S
H952 C965 0.929 . S
H953 C963 0.929 . S
H954 C958 0.929 . S
H955 C964 0.929 . S
C956 H950 0.930 . S
C956 C957 1.367 . S
C956 C964 1.378 . S
C957 C956 1.367 . S
C957 C965 1.433 . S
C958 H954 0.929 . S
C958 C960 1.378 . S
C958 C962 1.350 . S
C959 C962 1.463 . S
C959 C964 1.350 . S
C959 N967 1.427 . S
C960 H951 0.930 . S
C960 C958 1.378 . S
C960 C961 1.367 . S
C961 C960 1.367 . S
C961 C963 1.433 . S
C962 C958 1.350 . S
C962 C959 1.463 . S
C962 N966 1.427 . S
C963 H953 0.929 . S
C963 C961 1.433 . S
C963 N966 1.384 . S
C964 H955 0.929 . S
C964 C956 1.378 . S
C964 C959 1.350 . S
C965 H952 0.929 . S
C965 C957 1.433 . S
C965 N967 1.384 . S
N966 C962 1.427 . S
N966 C963 1.384 . S
N967 C959 1.427 . S
N967 C965 1.384 . S
H968 C974 0.930 . S
H969 C978 0.930 . S
H970 C983 0.929 . S
H971 C981 0.929 1_554 S
H972 C976 0.929 . S
H973 C982 0.929 . S
C974 H968 0.930 . S
C974 C975 1.367 . S
C974 C982 1.378 . S
C975 C974 1.367 . S
C975 C983 1.433 . S
C976 H972 0.929 . S
C976 C978 1.378 . S
C976 C980 1.350 . S
C977 C980 1.463 . S
C977 C982 1.350 . S
C977 N985 1.427 . S
C978 H969 0.930 . S
C978 C976 1.378 . S
C978 C979 1.367 . S
C979 C978 1.367 . S
C979 C981 1.433 . S
C980 C976 1.350 . S
C980 C977 1.463 . S
C980 N984 1.427 . S
C981 H971 0.929 1_556 S
C981 C979 1.433 . S
C981 N984 1.384 . S
C982 H973 0.929 . S
C982 C974 1.378 . S
C982 C977 1.350 . S
C983 H970 0.929 . S
C983 C975 1.433 . S
C983 N985 1.384 . S
N984 C980 1.427 . S
N984 C981 1.384 . S
N985 C977 1.427 . S
N985 C983 1.384 . S
H986 C992 0.930 . S
H987 C996 0.930 . S
H988 C1001 0.929 . S
H989 C999 0.929 . S
H990 C994 0.929 . S
H991 C1000 0.929 . S
C992 H986 0.930 . S
C992 C993 1.367 . S
C992 C1000 1.378 . S
C993 C992 1.367 . S
C993 C1001 1.433 . S
C994 H990 0.929 . S
C994 C996 1.378 . S
C994 C998 1.350 . S
C995 C998 1.463 . S
C995 C1000 1.350 . S
C995 N1003 1.427 . S
C996 H987 0.930 . S
C996 C994 1.378 . S
C996 C997 1.367 . S
C997 C996 1.367 . S
C997 C999 1.433 . S
C998 C994 1.350 . S
C998 C995 1.463 . S
C998 N1002 1.427 . S
C999 H989 0.929 . S
C999 C997 1.433 . S
C999 N1002 1.384 . S
C1000 H991 0.929 . S
C1000 C992 1.378 . S
C1000 C995 1.350 . S
C1001 H988 0.929 . S
C1001 C993 1.433 . S
C1001 N1003 1.384 . S
N1002 C998 1.427 . S
N1002 C999 1.384 . S
N1003 C995 1.427 . S
N1003 C1001 1.384 . S
H1004 C1010 0.930 . S
H1005 C1014 0.930 1_554 S
H1006 C1019 0.929 . S
H1007 C1017 0.929 . S
H1008 C1012 0.929 1_554 S
H1009 C1018 0.929 . S
C1010 H1004 0.930 . S
C1010 C1011 1.367 . S
C1010 C1018 1.378 . S
C1011 C1010 1.367 . S
C1011 C1019 1.433 . S
C1012 H1008 0.929 1_556 S
C1012 C1014 1.378 . S
C1012 C1016 1.350 . S
C1013 C1016 1.463 . S
C1013 C1018 1.350 . S
C1013 N1021 1.427 . S
C1014 H1005 0.930 1_556 S
C1014 C1012 1.378 . S
C1014 C1015 1.367 . S
C1015 C1014 1.367 . S
C1015 C1017 1.433 . S
C1016 C1012 1.350 . S
C1016 C1013 1.463 . S
C1016 N1020 1.427 . S
C1017 H1007 0.929 . S
C1017 C1015 1.433 . S
C1017 N1020 1.384 . S
C1018 H1009 0.929 . S
C1018 C1010 1.378 . S
C1018 C1013 1.350 . S
C1019 H1006 0.929 . S
C1019 C1011 1.433 . S
C1019 N1021 1.384 . S
N1020 C1016 1.427 . S
N1020 C1017 1.384 . S
N1021 C1013 1.427 . S
N1021 C1019 1.384 . S
H1022 C1028 0.930 . S
H1023 C1032 0.930 . S
H1024 C1037 0.929 . S
H1025 C1035 0.929 . S
H1026 C1030 0.929 . S
H1027 C1036 0.929 . S
C1028 H1022 0.930 . S
C1028 C1029 1.367 . S
C1028 C1036 1.378 . S
C1029 C1028 1.367 . S
C1029 C1037 1.433 . S
C1030 H1026 0.929 . S
C1030 C1032 1.378 . S
C1030 C1034 1.350 . S
C1031 C1034 1.463 . S
C1031 C1036 1.350 . S
C1031 N1039 1.427 . S
C1032 H1023 0.930 . S
C1032 C1030 1.378 . S
C1032 C1033 1.367 . S
C1033 C1032 1.367 . S
C1033 C1035 1.433 . S
C1034 C1030 1.350 . S
C1034 C1031 1.463 . S
C1034 N1038 1.427 . S
C1035 H1025 0.929 . S
C1035 C1033 1.433 . S
C1035 N1038 1.384 . S
C1036 H1027 0.929 . S
C1036 C1028 1.378 . S
C1036 C1031 1.350 . S
C1037 H1024 0.929 . S
C1037 C1029 1.433 . S
C1037 N1039 1.384 . S
N1038 C1034 1.427 . S
N1038 C1035 1.384 . S
N1039 C1031 1.427 . S
N1039 C1037 1.384 . S
H1040 C1046 0.930 . S
H1041 C1050 0.930 . S
H1042 C1055 0.929 . S
H1043 C1053 0.929 . S
H1044 C1048 0.929 . S
H1045 C1054 0.929 . S
C1046 H1040 0.930 . S
C1046 C1047 1.367 . S
C1046 C1054 1.378 . S
C1047 C1046 1.367 . S
C1047 C1055 1.433 . S
C1048 H1044 0.929 . S
C1048 C1050 1.378 . S
C1048 C1052 1.350 . S
C1049 C1052 1.463 . S
C1049 C1054 1.350 . S
C1049 N1057 1.427 . S
C1050 H1041 0.930 . S
C1050 C1048 1.378 . S
C1050 C1051 1.367 . S
C1051 C1050 1.367 . S
C1051 C1053 1.433 . S
C1052 C1048 1.350 . S
C1052 C1049 1.463 . S
C1052 N1056 1.427 . S
C1053 H1043 0.929 . S
C1053 C1051 1.433 . S
C1053 N1056 1.384 . S
C1054 H1045 0.929 . S
C1054 C1046 1.378 . S
C1054 C1049 1.350 . S
C1055 H1042 0.929 . S
C1055 C1047 1.433 . S
C1055 N1057 1.384 . S
N1056 C1052 1.427 . S
N1056 C1053 1.384 . S
N1057 C1049 1.427 . S
N1057 C1055 1.384 . S
H1058 C1064 0.930 . S
H1059 C1068 0.930 . S
H1060 C1073 0.929 . S
H1061 C1071 0.929 . S
H1062 C1066 0.929 . S
H1063 C1072 0.929 . S
C1064 H1058 0.930 . S
C1064 C1065 1.367 . S
C1064 C1072 1.378 . S
C1065 C1064 1.367 . S
C1065 C1073 1.433 . S
C1066 H1062 0.929 . S
C1066 C1068 1.378 . S
C1066 C1070 1.350 . S
C1067 C1070 1.463 . S
C1067 C1072 1.350 . S
C1067 N1075 1.427 . S
C1068 H1059 0.930 . S
C1068 C1066 1.378 . S
C1068 C1069 1.367 . S
C1069 C1068 1.367 . S
C1069 C1071 1.433 . S
C1070 C1066 1.350 . S
C1070 C1067 1.463 . S
C1070 N1074 1.427 . S
C1071 H1061 0.929 . S
C1071 C1069 1.433 . S
C1071 N1074 1.384 . S
C1072 H1063 0.929 . S
C1072 C1064 1.378 . S
C1072 C1067 1.350 . S
C1073 H1060 0.929 . S
C1073 C1065 1.433 . S
C1073 N1075 1.384 . S
N1074 C1070 1.427 . S
N1074 C1071 1.384 . S
N1075 C1067 1.427 . S
N1075 C1073 1.384 . S
H1076 C1082 0.930 . S
H1077 C1086 0.930 . S
H1078 C1091 0.929 . S
H1079 C1089 0.929 . S
H1080 C1084 0.929 . S
H1081 C1090 0.929 . S
C1082 H1076 0.930 . S
C1082 C1083 1.367 . S
C1082 C1090 1.378 . S
C1083 C1082 1.367 . S
C1083 C1091 1.433 . S
C1084 H1080 0.929 . S
C1084 C1086 1.378 . S
C1084 C1088 1.350 . S
C1085 C1088 1.463 . S
C1085 C1090 1.350 . S
C1085 N1093 1.427 . S
C1086 H1077 0.930 . S
C1086 C1084 1.378 . S
C1086 C1087 1.367 . S
C1087 C1086 1.367 . S
C1087 C1089 1.433 . S
C1088 C1084 1.350 . S
C1088 C1085 1.463 . S
C1088 N1092 1.427 . S
C1089 H1079 0.929 . S
C1089 C1087 1.433 . S
C1089 N1092 1.384 . S
C1090 H1081 0.929 . S
C1090 C1082 1.378 . S
C1090 C1085 1.350 . S
C1091 H1078 0.929 . S
C1091 C1083 1.433 . S
C1091 N1093 1.384 . S
N1092 C1088 1.427 . S
N1092 C1089 1.384 . S
N1093 C1085 1.427 . S
N1093 C1091 1.384 . S
H1094 C1100 0.930 . S
H1095 C1104 0.930 . S
H1096 C1109 0.929 . S
H1097 C1107 0.929 . S
H1098 C1102 0.929 . S
H1099 C1108 0.929 . S
C1100 H1094 0.930 . S
C1100 C1101 1.367 . S
C1100 C1108 1.378 . S
C1101 C1100 1.367 . S
C1101 C1109 1.433 . S
C1102 H1098 0.929 . S
C1102 C1104 1.378 . S
C1102 C1106 1.350 . S
C1103 C1106 1.463 . S
C1103 C1108 1.350 . S
C1103 N1111 1.427 . S
C1104 H1095 0.930 . S
C1104 C1102 1.378 . S
C1104 C1105 1.367 . S
C1105 C1104 1.367 . S
C1105 C1107 1.433 . S
C1106 C1102 1.350 . S
C1106 C1103 1.463 . S
C1106 N1110 1.427 . S
C1107 H1097 0.929 . S
C1107 C1105 1.433 . S
C1107 N1110 1.384 . S
C1108 H1099 0.929 . S
C1108 C1100 1.378 . S
C1108 C1103 1.350 . S
C1109 H1096 0.929 . S
C1109 C1101 1.433 . S
C1109 N1111 1.384 . S
N1110 C1106 1.427 . S
N1110 C1107 1.384 . S
N1111 C1103 1.427 . S
N1111 C1109 1.384 . S
H1112 C1118 0.930 . S
H1113 C1122 0.930 . S
H1114 C1127 0.929 . S
H1115 C1125 0.929 . S
H1116 C1120 0.929 . S
H1117 C1126 0.929 . S
C1118 H1112 0.930 . S
C1118 C1119 1.367 . S
C1118 C1126 1.378 . S
C1119 C1118 1.367 . S
C1119 C1127 1.433 . S
C1120 H1116 0.929 . S
C1120 C1122 1.378 . S
C1120 C1124 1.350 . S
C1121 C1124 1.463 . S
C1121 C1126 1.350 . S
C1121 N1129 1.427 . S
C1122 H1113 0.930 . S
C1122 C1120 1.378 . S
C1122 C1123 1.367 . S
C1123 C1122 1.367 . S
C1123 C1125 1.433 . S
C1124 C1120 1.350 . S
C1124 C1121 1.463 . S
C1124 N1128 1.427 . S
C1125 H1115 0.929 . S
C1125 C1123 1.433 . S
C1125 N1128 1.384 . S
C1126 H1117 0.929 . S
C1126 C1118 1.378 . S
C1126 C1121 1.350 . S
C1127 H1114 0.929 . S
C1127 C1119 1.433 . S
C1127 N1129 1.384 . S
N1128 C1124 1.427 . S
N1128 C1125 1.384 . S
N1129 C1121 1.427 . S
N1129 C1127 1.384 . S
H1130 C1136 0.930 . S
H1131 C1140 0.930 . S
H1132 C1145 0.929 . S
H1133 C1143 0.929 . S
H1134 C1138 0.929 . S
H1135 C1144 0.929 . S
C1136 H1130 0.930 . S
C1136 C1137 1.367 . S
C1136 C1144 1.378 . S
C1137 C1136 1.367 . S
C1137 C1145 1.433 . S
C1138 H1134 0.929 . S
C1138 C1140 1.378 . S
C1138 C1142 1.350 . S
C1139 C1142 1.463 . S
C1139 C1144 1.350 . S
C1139 N1147 1.427 . S
C1140 H1131 0.930 . S
C1140 C1138 1.378 . S
C1140 C1141 1.367 . S
C1141 C1140 1.367 . S
C1141 C1143 1.433 . S
C1142 C1138 1.350 . S
C1142 C1139 1.463 . S
C1142 N1146 1.427 . S
C1143 H1133 0.929 . S
C1143 C1141 1.433 . S
C1143 N1146 1.384 . S
C1144 H1135 0.929 . S
C1144 C1136 1.378 . S
C1144 C1139 1.350 . S
C1145 H1132 0.929 . S
C1145 C1137 1.433 . S
C1145 N1147 1.384 . S
N1146 C1142 1.427 . S
N1146 C1143 1.384 . S
N1147 C1139 1.427 . S
N1147 C1145 1.384 . S
H1148 C1154 0.930 . S
H1149 C1158 0.930 . S
H1150 C1163 0.929 . S
H1151 C1161 0.929 . S
H1152 C1156 0.929 . S
H1153 C1162 0.929 . S
C1154 H1148 0.930 . S
C1154 C1155 1.367 . S
C1154 C1162 1.378 . S
C1155 C1154 1.367 . S
C1155 C1163 1.433 . S
C1156 H1152 0.929 . S
C1156 C1158 1.378 . S
C1156 C1160 1.350 . S
C1157 C1160 1.463 . S
C1157 C1162 1.350 . S
C1157 N1165 1.427 . S
C1158 H1149 0.930 . S
C1158 C1156 1.378 . S
C1158 C1159 1.367 . S
C1159 C1158 1.367 . S
C1159 C1161 1.433 . S
C1160 C1156 1.350 . S
C1160 C1157 1.463 . S
C1160 N1164 1.427 . S
C1161 H1151 0.929 . S
C1161 C1159 1.433 . S
C1161 N1164 1.384 . S
C1162 H1153 0.929 . S
C1162 C1154 1.378 . S
C1162 C1157 1.350 . S
C1163 H1150 0.929 . S
C1163 C1155 1.433 . S
C1163 N1165 1.384 . S
N1164 C1160 1.427 . S
N1164 C1161 1.384 . S
N1165 C1157 1.427 . S
N1165 C1163 1.384 . S
H1166 C1172 0.930 . S
H1167 C1176 0.930 . S
H1168 C1181 0.929 . S
H1169 C1179 0.929 . S
H1170 C1174 0.929 . S
H1171 C1180 0.929 . S
C1172 H1166 0.930 . S
C1172 C1173 1.367 . S
C1172 C1180 1.378 . S
C1173 C1172 1.367 . S
C1173 C1181 1.433 . S
C1174 H1170 0.929 . S
C1174 C1176 1.378 . S
C1174 C1178 1.350 . S
C1175 C1178 1.463 . S
C1175 C1180 1.350 . S
C1175 N1183 1.427 . S
C1176 H1167 0.930 . S
C1176 C1174 1.378 . S
C1176 C1177 1.367 . S
C1177 C1176 1.367 . S
C1177 C1179 1.433 . S
C1178 C1174 1.350 . S
C1178 C1175 1.463 . S
C1178 N1182 1.427 . S
C1179 H1169 0.929 . S
C1179 C1177 1.433 . S
C1179 N1182 1.384 . S
C1180 H1171 0.929 . S
C1180 C1172 1.378 . S
C1180 C1175 1.350 . S
C1181 H1168 0.929 . S
C1181 C1173 1.433 . S
C1181 N1183 1.384 . S
N1182 C1178 1.427 . S
N1182 C1179 1.384 . S
N1183 C1175 1.427 . S
N1183 C1181 1.384 . S
H1184 C1190 0.930 . S
H1185 C1194 0.930 . S
H1186 C1199 0.929 . S
H1187 C1197 0.929 . S
H1188 C1192 0.929 . S
H1189 C1198 0.929 . S
C1190 H1184 0.930 . S
C1190 C1191 1.367 . S
C1190 C1198 1.378 . S
C1191 C1190 1.367 . S
C1191 C1199 1.433 . S
C1192 H1188 0.929 . S
C1192 C1194 1.378 . S
C1192 C1196 1.350 . S
C1193 C1196 1.463 . S
C1193 C1198 1.350 . S
C1193 N1201 1.427 . S
C1194 H1185 0.930 . S
C1194 C1192 1.378 . S
C1194 C1195 1.367 . S
C1195 C1194 1.367 . S
C1195 C1197 1.433 . S
C1196 C1192 1.350 . S
C1196 C1193 1.463 . S
C1196 N1200 1.427 . S
C1197 H1187 0.929 . S
C1197 C1195 1.433 . S
C1197 N1200 1.384 . S
C1198 H1189 0.929 . S
C1198 C1190 1.378 . S
C1198 C1193 1.350 . S
C1199 H1186 0.929 . S
C1199 C1191 1.433 . S
C1199 N1201 1.384 . S
N1200 C1196 1.427 . S
N1200 C1197 1.384 . S
N1201 C1193 1.427 . S
N1201 C1199 1.384 . S
H1202 C1208 0.930 . S
H1203 C1212 0.930 . S
H1204 C1217 0.929 . S
H1205 C1215 0.929 . S
H1206 C1210 0.929 . S
H1207 C1216 0.929 . S
C1208 H1202 0.930 . S
C1208 C1209 1.367 . S
C1208 C1216 1.378 . S
C1209 C1208 1.367 . S
C1209 C1217 1.433 . S
C1210 H1206 0.929 . S
C1210 C1212 1.378 . S
C1210 C1214 1.350 . S
C1211 C1214 1.463 . S
C1211 C1216 1.350 . S
C1211 N1219 1.427 . S
C1212 H1203 0.930 . S
C1212 C1210 1.378 . S
C1212 C1213 1.367 . S
C1213 C1212 1.367 . S
C1213 C1215 1.433 . S
C1214 C1210 1.350 . S
C1214 C1211 1.463 . S
C1214 N1218 1.427 . S
C1215 H1205 0.929 . S
C1215 C1213 1.433 . S
C1215 N1218 1.384 . S
C1216 H1207 0.929 . S
C1216 C1208 1.378 . S
C1216 C1211 1.350 . S
C1217 H1204 0.929 . S
C1217 C1209 1.433 . S
C1217 N1219 1.384 . S
N1218 C1214 1.427 . S
N1218 C1215 1.384 . S
N1219 C1211 1.427 . S
N1219 C1217 1.384 . S
H1220 C1226 0.930 . S
H1221 C1230 0.930 . S
H1222 C1235 0.929 . S
H1223 C1233 0.929 . S
H1224 C1228 0.929 . S
H1225 C1234 0.929 . S
C1226 H1220 0.930 . S
C1226 C1227 1.367 . S
C1226 C1234 1.378 . S
C1227 C1226 1.367 . S
C1227 C1235 1.433 . S
C1228 H1224 0.929 . S
C1228 C1230 1.378 . S
C1228 C1232 1.350 . S
C1229 C1232 1.463 . S
C1229 C1234 1.350 . S
C1229 N1237 1.427 . S
C1230 H1221 0.930 . S
C1230 C1228 1.378 . S
C1230 C1231 1.367 . S
C1231 C1230 1.367 . S
C1231 C1233 1.433 . S
C1232 C1228 1.350 . S
C1232 C1229 1.463 . S
C1232 N1236 1.427 . S
C1233 H1223 0.929 . S
C1233 C1231 1.433 . S
C1233 N1236 1.384 . S
C1234 H1225 0.929 . S
C1234 C1226 1.378 . S
C1234 C1229 1.350 . S
C1235 H1222 0.929 . S
C1235 C1227 1.433 . S
C1235 N1237 1.384 . S
N1236 C1232 1.427 . S
N1236 C1233 1.384 . S
N1237 C1229 1.427 . S
N1237 C1235 1.384 . S
H1238 C1244 0.930 . S
H1239 C1248 0.930 . S
H1240 C1253 0.929 . S
H1241 C1251 0.929 . S
H1242 C1246 0.929 . S
H1243 C1252 0.929 . S
C1244 H1238 0.930 . S
C1244 C1245 1.367 . S
C1244 C1252 1.378 . S
C1245 C1244 1.367 . S
C1245 C1253 1.433 . S
C1246 H1242 0.929 . S
C1246 C1248 1.378 . S
C1246 C1250 1.350 . S
C1247 C1250 1.463 . S
C1247 C1252 1.350 . S
C1247 N1255 1.427 . S
C1248 H1239 0.930 . S
C1248 C1246 1.378 . S
C1248 C1249 1.367 . S
C1249 C1248 1.367 . S
C1249 C1251 1.433 . S
C1250 C1246 1.350 . S
C1250 C1247 1.463 . S
C1250 N1254 1.427 . S
C1251 H1241 0.929 . S
C1251 C1249 1.433 . S
C1251 N1254 1.384 . S
C1252 H1243 0.929 . S
C1252 C1244 1.378 . S
C1252 C1247 1.350 . S
C1253 H1240 0.929 . S
C1253 C1245 1.433 . S
C1253 N1255 1.384 . S
N1254 C1250 1.427 . S
N1254 C1251 1.384 . S
N1255 C1247 1.427 . S
N1255 C1253 1.384 . S
H1256 C1262 0.930 . S
H1257 C1266 0.930 . S
H1258 C1271 0.929 . S
H1259 C1269 0.929 . S
H1260 C1264 0.929 . S
H1261 C1270 0.929 . S
C1262 H1256 0.930 . S
C1262 C1263 1.367 . S
C1262 C1270 1.378 . S
C1263 C1262 1.367 . S
C1263 C1271 1.433 . S
C1264 H1260 0.929 . S
C1264 C1266 1.378 . S
C1264 C1268 1.350 . S
C1265 C1268 1.463 . S
C1265 C1270 1.350 . S
C1265 N1273 1.427 . S
C1266 H1257 0.930 . S
C1266 C1264 1.378 . S
C1266 C1267 1.367 . S
C1267 C1266 1.367 . S
C1267 C1269 1.433 . S
C1268 C1264 1.350 . S
C1268 C1265 1.463 . S
C1268 N1272 1.427 . S
C1269 H1259 0.929 . S
C1269 C1267 1.433 . S
C1269 N1272 1.384 . S
C1270 H1261 0.929 . S
C1270 C1262 1.378 . S
C1270 C1265 1.350 . S
C1271 H1258 0.929 . S
C1271 C1263 1.433 . S
C1271 N1273 1.384 . S
N1272 C1268 1.427 . S
N1272 C1269 1.384 . S
N1273 C1265 1.427 . S
N1273 C1271 1.384 . S
H1274 C1280 0.930 . S
H1275 C1284 0.930 . S
H1276 C1289 0.929 . S
H1277 C1287 0.929 . S
H1278 C1282 0.929 . S
H1279 C1288 0.929 . S
C1280 H1274 0.930 . S
C1280 C1281 1.367 . S
C1280 C1288 1.378 . S
C1281 C1280 1.367 . S
C1281 C1289 1.433 . S
C1282 H1278 0.929 . S
C1282 C1284 1.378 . S
C1282 C1286 1.350 . S
C1283 C1286 1.463 . S
C1283 C1288 1.350 . S
C1283 N1291 1.427 . S
C1284 H1275 0.930 . S
C1284 C1282 1.378 . S
C1284 C1285 1.367 . S
C1285 C1284 1.367 . S
C1285 C1287 1.433 . S
C1286 C1282 1.350 . S
C1286 C1283 1.463 . S
C1286 N1290 1.427 . S
C1287 H1277 0.929 . S
C1287 C1285 1.433 . S
C1287 N1290 1.384 . S
C1288 H1279 0.929 . S
C1288 C1280 1.378 . S
C1288 C1283 1.350 . S
C1289 H1276 0.929 . S
C1289 C1281 1.433 . S
C1289 N1291 1.384 . S
N1290 C1286 1.427 . S
N1290 C1287 1.384 . S
N1291 C1283 1.427 . S
N1291 C1289 1.384 . S
H1292 C1298 0.930 . S
H1293 C1302 0.930 . S
H1294 C1307 0.929 . S
H1295 C1305 0.929 . S
H1296 C1300 0.929 . S
H1297 C1306 0.929 . S
C1298 H1292 0.930 . S
C1298 C1299 1.367 . S
C1298 C1306 1.378 . S
C1299 C1298 1.367 . S
C1299 C1307 1.433 . S
C1300 H1296 0.929 . S
C1300 C1302 1.378 . S
C1300 C1304 1.350 . S
C1301 C1304 1.463 . S
C1301 C1306 1.350 . S
C1301 N1309 1.427 . S
C1302 H1293 0.930 . S
C1302 C1300 1.378 . S
C1302 C1303 1.367 . S
C1303 C1302 1.367 . S
C1303 C1305 1.433 . S
C1304 C1300 1.350 . S
C1304 C1301 1.463 . S
C1304 N1308 1.427 . S
C1305 H1295 0.929 . S
C1305 C1303 1.433 . S
C1305 N1308 1.384 . S
C1306 H1297 0.929 . S
C1306 C1298 1.378 . S
C1306 C1301 1.350 . S
C1307 H1294 0.929 . S
C1307 C1299 1.433 . S
C1307 N1309 1.384 . S
N1308 C1304 1.427 . S
N1308 C1305 1.384 . S
N1309 C1301 1.427 . S
N1309 C1307 1.384 . S
H1310 C1316 0.930 . S
H1311 C1320 0.930 . S
H1312 C1325 0.929 . S
H1313 C1323 0.929 . S
H1314 C1318 0.929 . S
H1315 C1324 0.929 . S
C1316 H1310 0.930 . S
C1316 C1317 1.367 . S
C1316 C1324 1.378 . S
C1317 C1316 1.367 . S
C1317 C1325 1.433 . S
C1318 H1314 0.929 . S
C1318 C1320 1.378 . S
C1318 C1322 1.350 . S
C1319 C1322 1.463 . S
C1319 C1324 1.350 . S
C1319 N1327 1.427 . S
C1320 H1311 0.930 . S
C1320 C1318 1.378 . S
C1320 C1321 1.367 . S
C1321 C1320 1.367 . S
C1321 C1323 1.433 . S
C1322 C1318 1.350 . S
C1322 C1319 1.463 . S
C1322 N1326 1.427 . S
C1323 H1313 0.929 . S
C1323 C1321 1.433 . S
C1323 N1326 1.384 . S
C1324 H1315 0.929 . S
C1324 C1316 1.378 . S
C1324 C1319 1.350 . S
C1325 H1312 0.929 . S
C1325 C1317 1.433 . S
C1325 N1327 1.384 . S
N1326 C1322 1.427 . S
N1326 C1323 1.384 . S
N1327 C1319 1.427 . S
N1327 C1325 1.384 . S
H1328 C1334 0.930 . S
H1329 C1338 0.930 . S
H1330 C1343 0.929 . S
H1331 C1341 0.929 . S
H1332 C1336 0.929 . S
H1333 C1342 0.929 . S
C1334 H1328 0.930 . S
C1334 C1335 1.367 . S
C1334 C1342 1.378 . S
C1335 C1334 1.367 . S
C1335 C1343 1.433 . S
C1336 H1332 0.929 . S
C1336 C1338 1.378 . S
C1336 C1340 1.350 . S
C1337 C1340 1.463 . S
C1337 C1342 1.350 . S
C1337 N1345 1.427 . S
C1338 H1329 0.930 . S
C1338 C1336 1.378 . S
C1338 C1339 1.367 . S
C1339 C1338 1.367 . S
C1339 C1341 1.433 . S
C1340 C1336 1.350 . S
C1340 C1337 1.463 . S
C1340 N1344 1.427 . S
C1341 H1331 0.929 . S
C1341 C1339 1.433 . S
C1341 N1344 1.384 . S
C1342 H1333 0.929 . S
C1342 C1334 1.378 . S
C1342 C1337 1.350 . S
C1343 H1330 0.929 . S
C1343 C1335 1.433 . S
C1343 N1345 1.384 . S
N1344 C1340 1.427 . S
N1344 C1341 1.384 . S
N1345 C1337 1.427 . S
N1345 C1343 1.384 . S
H1346 C1352 0.930 . S
H1347 C1356 0.930 . S
H1348 C1361 0.929 . S
H1349 C1359 0.929 . S
H1350 C1354 0.929 . S
H1351 C1360 0.929 . S
C1352 H1346 0.930 . S
C1352 C1353 1.367 . S
C1352 C1360 1.378 . S
C1353 C1352 1.367 . S
C1353 C1361 1.433 . S
C1354 H1350 0.929 . S
C1354 C1356 1.378 . S
C1354 C1358 1.350 . S
C1355 C1358 1.463 . S
C1355 C1360 1.350 . S
C1355 N1363 1.427 . S
C1356 H1347 0.930 . S
C1356 C1354 1.378 . S
C1356 C1357 1.367 . S
C1357 C1356 1.367 . S
C1357 C1359 1.433 . S
C1358 C1354 1.350 . S
C1358 C1355 1.463 . S
C1358 N1362 1.427 . S
C1359 H1349 0.929 . S
C1359 C1357 1.433 . S
C1359 N1362 1.384 . S
C1360 H1351 0.929 . S
C1360 C1352 1.378 . S
C1360 C1355 1.350 . S
C1361 H1348 0.929 . S
C1361 C1353 1.433 . S
C1361 N1363 1.384 . S
N1362 C1358 1.427 . S
N1362 C1359 1.384 . S
N1363 C1355 1.427 . S
N1363 C1361 1.384 . S
H1364 C1370 0.930 . S
H1365 C1374 0.930 . S
H1366 C1379 0.929 . S
H1367 C1377 0.929 . S
H1368 C1372 0.929 . S
H1369 C1378 0.929 . S
C1370 H1364 0.930 . S
C1370 C1371 1.367 . S
C1370 C1378 1.378 . S
C1371 C1370 1.367 . S
C1371 C1379 1.433 . S
C1372 H1368 0.929 . S
C1372 C1374 1.378 . S
C1372 C1376 1.350 . S
C1373 C1376 1.463 . S
C1373 C1378 1.350 . S
C1373 N1381 1.427 . S
C1374 H1365 0.930 . S
C1374 C1372 1.378 . S
C1374 C1375 1.367 . S
C1375 C1374 1.367 . S
C1375 C1377 1.433 . S
C1376 C1372 1.350 . S
C1376 C1373 1.463 . S
C1376 N1380 1.427 . S
C1377 H1367 0.929 . S
C1377 C1375 1.433 . S
C1377 N1380 1.384 . S
C1378 H1369 0.929 . S
C1378 C1370 1.378 . S
C1378 C1373 1.350 . S
C1379 H1366 0.929 . S
C1379 C1371 1.433 . S
C1379 N1381 1.384 . S
N1380 C1376 1.427 . S
N1380 C1377 1.384 . S
N1381 C1373 1.427 . S
N1381 C1379 1.384 . S
C529 C347 1.608 . S
C525 C3 1.758 . S
C547 C348 1.181 . S
C543 C49 1.184 . S
C565 C342 1.176 . S
C561 C95 1.204 . S
C579 C146 0.426 . S
C583 C341 0.384 . S
C597 C186 1.310 . S
C601 C344 1.270 . S
C619 C346 1.333 . S
C615 C215 1.361 . S
C633 C249 0.495 . S
C637 C345 0.353 . S
C651 C302 1.761 . S
C655 C343 1.615 . S
C673 C378 3.529 . S
C669 C2 3.534 . S
C687 C43 2.173 . S
C691 C409 2.049 . S
C709 C377 3.157 . S
C705 C102 3.262 . S
C727 C412 1.327 . S
C723 C135 1.389 . S
C741 C175 1.665 . S
C745 C375 1.647 . S
C763 C407 2.376 . S
C759 C222 2.386 . S
C777 C243 1.878 . S
C781 C380 1.725 . S
C795 C306 1.597 . S
C799 C414 1.691 . S
C813 C9 0.951 . S
C817 C410 0.949 . S
C831 C182 1.745 . S
C835 C413 1.619 . S
C853 C381 1.453 1_556 S
C849 C226 1.515 . S
C871 C408 0.858 . S
C867 C242 0.838 . S
C885 C295 2.884 . S
C889 C374 2.874 . S
C903 C106 0.881 . S
C907 C411 0.877 . S
C925 C376 1.418 . S
C921 C142 1.489 . S
C939 C42 1.192 . S
C943 C379 1.178 . S
C957 C283 1.784 . S
C961 C446 1.652 . S
C975 C169 1.091 . S
C979 C447 1.024 . S
C997 C441 1.174 . S
C993 C202 1.204 . S
C1015 C440 0.483 . S
C1011 C266 0.542 . S
C1029 C66 0.842 . S
C1033 C443 0.820 . S
C1051 C445 1.288 . S
C1047 C82 1.307 . S
C1065 C129 0.527 . S
C1069 C444 0.502 . S
C1083 C22 1.822 . S
C1087 C442 1.680 . S
C1101 C282 3.105 . S
C1105 C480 3.008 . S
C1123 C512 1.479 . S
C1119 C163 1.520 . S
C1137 C209 1.388 . S
C1141 C473 1.375 . S
C1155 C255 1.193 . S
C1159 C507 1.174 . S
C1177 C478 0.910 . S
C1173 C55 0.918 . S
C1191 C89 1.055 . S
C1195 C509 1.015 . S
C1213 C475 1.763 . S
C1209 C123 1.831 . S
C1231 C510 0.926 . S
C1227 C26 0.912 . S
C1249 C506 1.650 . S
C1245 C289 1.563 . S
C1263 C62 1.916 . S
C1267 C508 1.777 . S
C1281 C83 3.121 . S
C1285 C477 3.113 . S
C1303 C511 1.718 . S
C1299 C122 1.747 . S
C1317 C15 3.725 . S
C1321 C476 3.658 . S
C1335 C203 2.566 . S
C1339 C513 2.497 . S
C1357 C479 2.189 . S
C1353 C262 2.242 . S
C1375 C474 1.329 . S
C1371 C162 1.377 . S
