# Generated by pormake.
# Topology ocu, (6,8)-cn, num edge types: 1
# Building blocks:
#     Node 0, Type 0, BuildingBlock: KUMBUR_clean_sbu_1, # of connection points: 6
#     Node 1, Type 0, BuildingBlock: KUMBUR_clean_sbu_1, # of connection points: 6
#     Node 2, Type 0, BuildingBlock: KUMBUR_clean_sbu_1, # of connection points: 6
#     Node 3, Type 0, BuildingBlock: KUMBUR_clean_sbu_1, # of connection points: 6
#     Node 4, Type 0, BuildingBlock: KUMBUR_clean_sbu_1, # of connection points: 6
#     Node 5, Type 0, BuildingBlock: KUMBUR_clean_sbu_1, # of connection points: 6
#     Node 6, Type 0, BuildingBlock: KUMBUR_clean_sbu_1, # of connection points: 6
#     Node 7, Type 0, BuildingBlock: KUMBUR_clean_sbu_1, # of connection points: 6
#     Node 8, Type 1, BuildingBlock: VETTIZ_charged_sbu_0, # of connection points: 8
#     Node 9, Type 1, BuildingBlock: VETTIZ_charged_sbu_0, # of connection points: 8
#     Node 10, Type 1, BuildingBlock: VETTIZ_charged_sbu_0, # of connection points: 8
#     Node 11, Type 1, BuildingBlock: VETTIZ_charged_sbu_0, # of connection points: 8
#     Node 12, Type 1, BuildingBlock: VETTIZ_charged_sbu_0, # of connection points: 8
#     Node 13, Type 1, BuildingBlock: VETTIZ_charged_sbu_0, # of connection points: 8
#     Edge 14, Type (0, 1), BuildingBlock: EZIPEK_clean_linker_0, # of connection points: 2
#     Edge 15, Type (0, 1), BuildingBlock: EZIPEK_clean_linker_0, # of connection points: 2
#     Edge 16, Type (0, 1), BuildingBlock: EZIPEK_clean_linker_0, # of connection points: 2
#     Edge 17, Type (0, 1), BuildingBlock: EZIPEK_clean_linker_0, # of connection points: 2
#     Edge 18, Type (0, 1), BuildingBlock: EZIPEK_clean_linker_0, # of connection points: 2
#     Edge 19, Type (0, 1), BuildingBlock: EZIPEK_clean_linker_0, # of connection points: 2
#     Edge 20, Type (0, 1), BuildingBlock: EZIPEK_clean_linker_0, # of connection points: 2
#     Edge 21, Type (0, 1), BuildingBlock: EZIPEK_clean_linker_0, # of connection points: 2
#     Edge 22, Type (0, 1), BuildingBlock: EZIPEK_clean_linker_0, # of connection points: 2
#     Edge 23, Type (0, 1), BuildingBlock: EZIPEK_clean_linker_0, # of connection points: 2
#     Edge 24, Type (0, 1), BuildingBlock: EZIPEK_clean_linker_0, # of connection points: 2
#     Edge 25, Type (0, 1), BuildingBlock: EZIPEK_clean_linker_0, # of connection points: 2
#     Edge 26, Type (0, 1), BuildingBlock: EZIPEK_clean_linker_0, # of connection points: 2
#     Edge 27, Type (0, 1), BuildingBlock: EZIPEK_clean_linker_0, # of connection points: 2
#     Edge 28, Type (0, 1), BuildingBlock: EZIPEK_clean_linker_0, # of connection points: 2
#     Edge 29, Type (0, 1), BuildingBlock: EZIPEK_clean_linker_0, # of connection points: 2
#     Edge 30, Type (0, 1), BuildingBlock: EZIPEK_clean_linker_0, # of connection points: 2
#     Edge 31, Type (0, 1), BuildingBlock: EZIPEK_clean_linker_0, # of connection points: 2
#     Edge 32, Type (0, 1), BuildingBlock: EZIPEK_clean_linker_0, # of connection points: 2
#     Edge 33, Type (0, 1), BuildingBlock: EZIPEK_clean_linker_0, # of connection points: 2
#     Edge 34, Type (0, 1), BuildingBlock: EZIPEK_clean_linker_0, # of connection points: 2
#     Edge 35, Type (0, 1), BuildingBlock: EZIPEK_clean_linker_0, # of connection points: 2
#     Edge 36, Type (0, 1), BuildingBlock: EZIPEK_clean_linker_0, # of connection points: 2
#     Edge 37, Type (0, 1), BuildingBlock: EZIPEK_clean_linker_0, # of connection points: 2
#     Edge 38, Type (0, 1), BuildingBlock: EZIPEK_clean_linker_0, # of connection points: 2
#     Edge 39, Type (0, 1), BuildingBlock: EZIPEK_clean_linker_0, # of connection points: 2
#     Edge 40, Type (0, 1), BuildingBlock: EZIPEK_clean_linker_0, # of connection points: 2
#     Edge 41, Type (0, 1), BuildingBlock: EZIPEK_clean_linker_0, # of connection points: 2
#     Edge 42, Type (0, 1), BuildingBlock: EZIPEK_clean_linker_0, # of connection points: 2
#     Edge 43, Type (0, 1), BuildingBlock: EZIPEK_clean_linker_0, # of connection points: 2
#     Edge 44, Type (0, 1), BuildingBlock: EZIPEK_clean_linker_0, # of connection points: 2
#     Edge 45, Type (0, 1), BuildingBlock: EZIPEK_clean_linker_0, # of connection points: 2
#     Edge 46, Type (0, 1), BuildingBlock: EZIPEK_clean_linker_0, # of connection points: 2
#     Edge 47, Type (0, 1), BuildingBlock: EZIPEK_clean_linker_0, # of connection points: 2
#     Edge 48, Type (0, 1), BuildingBlock: EZIPEK_clean_linker_0, # of connection points: 2
#     Edge 49, Type (0, 1), BuildingBlock: EZIPEK_clean_linker_0, # of connection points: 2
#     Edge 50, Type (0, 1), BuildingBlock: EZIPEK_clean_linker_0, # of connection points: 2
#     Edge 51, Type (0, 1), BuildingBlock: EZIPEK_clean_linker_0, # of connection points: 2
#     Edge 52, Type (0, 1), BuildingBlock: EZIPEK_clean_linker_0, # of connection points: 2
#     Edge 53, Type (0, 1), BuildingBlock: EZIPEK_clean_linker_0, # of connection points: 2
#     Edge 54, Type (0, 1), BuildingBlock: EZIPEK_clean_linker_0, # of connection points: 2
#     Edge 55, Type (0, 1), BuildingBlock: EZIPEK_clean_linker_0, # of connection points: 2
#     Edge 56, Type (0, 1), BuildingBlock: EZIPEK_clean_linker_0, # of connection points: 2
#     Edge 57, Type (0, 1), BuildingBlock: EZIPEK_clean_linker_0, # of connection points: 2
#     Edge 58, Type (0, 1), BuildingBlock: EZIPEK_clean_linker_0, # of connection points: 2
#     Edge 59, Type (0, 1), BuildingBlock: EZIPEK_clean_linker_0, # of connection points: 2
#     Edge 60, Type (0, 1), BuildingBlock: EZIPEK_clean_linker_0, # of connection points: 2
#     Edge 61, Type (0, 1), BuildingBlock: EZIPEK_clean_linker_0, # of connection points: 2
# Relax obj value: 0.101
# Max RMSD: 0.135
# Mean RMSD: 0.107
data_MOF--net-ocu--node1-KUMBUR_clean_sbu_1--node2-VETTIZ_charged_sbu_0--edge1-EZIPEK_clean_linker_0
_symmetry_space_group_name_H-M    P1
_symmetry_Int_Tables_number       1
_symmetry_cell_setting            triclinic
loop_
_symmetry_equiv_pos_as_xyz
'x, y, z'
_cell_length_a     30.630004
_cell_length_b     31.0261
_cell_length_c     32.236566
_cell_angle_alpha  101.84076
_cell_angle_beta   78.791259
_cell_angle_gamma 106.92858
loop_
_atom_site_label
_atom_site_type_symbol
_atom_site_fract_x
_atom_site_fract_y
_atom_site_fract_z
_atom_type_partial_charge
Tb0 Tb 0.23037 0.25546 0.22772 0.0
C1 C 0.34106 0.37522 0.37708 0.0
N2 N 0.35795 0.35876 0.33654 0.0
C3 C 0.42013 0.42702 0.33472 0.0
C4 C 0.36274 0.41879 0.39768 0.0
C5 C 0.39763 0.3836 0.31558 0.0
C6 C 0.40246 0.44483 0.3758 0.0
C7 C 0.28412 0.36375 0.44058 0.0
C8 C 0.30228 0.34799 0.39844 0.0
C9 C 0.30524 0.40739 0.4609 0.0
C10 C 0.34443 0.43481 0.43953 0.0
Tb11 Tb 0.31665 0.28763 0.30949 0.0
N12 N 0.28177 0.30635 0.37745 0.0
C13 C 0.2453 0.3351 0.46108 0.0
C14 C 0.24511 0.27754 0.39793 0.0
C15 C 0.22598 0.29167 0.43978 0.0
H16 H 0.41246 0.36974 0.28421 0.0
H17 H 0.19637 0.26905 0.45558 0.0
H18 H 0.12256 0.2482 0.27271 0.0
H19 H 0.29363 0.17579 0.07063 0.0
H20 H 0.23013 0.24403 0.38189 0.0
H21 H 0.2303 0.34599 0.49346 0.0
H22 H 0.29516 0.23686 0.13328 0.0
H23 H 0.45131 0.44659 0.31787 0.0
H24 H 0.29167 0.42018 0.49323 0.0
H25 H 0.36053 0.46827 0.45577 0.0
H26 H 0.04629 0.1935 0.26793 0.0
H27 H 0.4201 0.47845 0.39057 0.0
H28 H 0.2254 0.1093 0.06568 0.0
N29 N 0.15773 0.2091 0.22246 0.0
C30 C 0.15338 0.17225 0.19126 0.0
C31 C 0.07625 0.18684 0.24642 0.0
C32 C 0.11059 0.14009 0.18709 0.0
C33 C 0.11965 0.21773 0.24911 0.0
C34 C 0.07186 0.14734 0.21579 0.0
N35 N 0.22999 0.2038 0.16521 0.0
C36 C 0.26544 0.20782 0.13179 0.0
C37 C 0.18819 0.13414 0.12582 0.0
C38 C 0.1913 0.16932 0.16142 0.0
C39 C 0.2262 0.13574 0.09352 0.0
C40 C 0.26467 0.17329 0.09613 0.0
H41 H 0.03833 0.12349 0.21368 0.0
H42 H 0.07528 0.07751 0.14987 0.0
H43 H 0.14354 0.07229 0.09595 0.0
O44 O 0.23908 0.32589 0.23215 0.0
O45 O 0.28498 0.21546 0.21033 0.0
O46 O 0.34661 0.253 0.24723 0.0
O47 O 0.19802 0.27711 0.1869 0.0
O48 O 0.3005 0.29216 0.20272 0.0
O49 O 0.33817 0.33207 0.26006 0.0
O50 O 0.32357 0.24051 0.34401 0.0
O51 O 0.26053 0.32422 0.32766 0.0
O52 O 0.19913 0.28068 0.29383 0.0
O53 O 0.38323 0.29201 0.32113 0.0
O54 O 0.2729 0.21758 0.29711 0.0
O55 O 0.20412 0.22072 0.28454 0.0
C56 C 0.32858 0.22094 0.21643 0.0
C57 C 0.17842 0.34705 0.21247 0.0
C58 C 0.14102 0.39494 0.18826 0.0
C59 C 0.1158 0.40116 0.22931 0.0
C60 C 0.15212 0.35266 0.25305 0.0
C61 C 0.12122 0.37985 0.26148 0.0
C62 C 0.17241 0.36797 0.18002 0.0
C63 C 0.33152 0.32683 0.22002 0.0
C64 C 0.2125 0.32001 0.20314 0.0
C65 C 0.1077 0.10301 0.15339 0.0
C66 C 0.14656 0.10001 0.12274 0.0
C67 C 0.21626 0.31443 0.32368 0.0
C68 C 0.38829 0.258 0.37925 0.0
C69 C 0.41954 0.21534 0.41576 0.0
C70 C 0.43623 0.25546 0.44378 0.0
C71 C 0.40503 0.29813 0.40708 0.0
C72 C 0.39395 0.21656 0.38484 0.0
C73 C 0.4284 0.29658 0.43975 0.0
C74 C 0.22804 0.2017 0.30162 0.0
C75 C 0.36795 0.25739 0.34177 0.0
H76 H 0.09133 0.42172 0.23609 0.0
H77 H 0.15534 0.33603 0.27811 0.0
H78 H 0.10123 0.38417 0.29295 0.0
H79 H 0.19202 0.36324 0.14835 0.0
H80 H 0.45567 0.25497 0.46832 0.0
H81 H 0.40076 0.33042 0.40318 0.0
H82 H 0.38097 0.1855 0.36329 0.0
H83 H 0.44147 0.32745 0.46129 0.0
Tb84 Tb 0.74683 0.30894 0.28226 0.0
C85 C 0.87365 0.17701 0.16379 0.0
N86 N 0.83106 0.16741 0.18703 0.0
C87 C 0.80914 0.09753 0.13823 0.0
C88 C 0.88526 0.14815 0.12588 0.0
C89 C 0.79909 0.12756 0.1753 0.0
C90 C 0.85203 0.10842 0.11282 0.0
C91 C 0.95299 0.22199 0.16022 0.0
C92 C 0.90693 0.21332 0.18057 0.0
C93 C 0.96427 0.19531 0.12097 0.0
C94 C 0.93039 0.15843 0.10376 0.0
Tb95 Tb 0.81921 0.21684 0.24923 0.0
N96 N 0.89482 0.23748 0.21899 0.0
C97 C 0.98668 0.25544 0.18112 0.0
C98 C 0.92806 0.26799 0.24084 0.0
C99 C 0.97424 0.27825 0.22186 0.0
H100 H 0.76579 0.11874 0.19486 0.0
H101 H 1.00028 0.30307 0.23894 0.0
H102 H 0.80373 0.39284 0.35215 0.0
H103 H 0.57778 0.1906 0.30074 0.0
H104 H 0.91883 0.2845 0.27288 0.0
H105 H 1.02257 0.26231 0.16692 0.0
H106 H 0.65355 0.22274 0.26243 0.0
H107 H 0.78379 0.06602 0.12929 0.0
H108 H 0.9994 0.20175 0.10456 0.0
H109 H 0.93991 0.13696 0.07436 0.0
H110 H 0.78948 0.4245 0.42834 0.0
H111 H 0.85973 0.08508 0.08416 0.0
H112 H 0.55742 0.2207 0.37738 0.0
N113 N 0.73985 0.34125 0.35314 0.0
C114 C 0.69827 0.32512 0.37662 0.0
C115 C 0.76389 0.39613 0.41427 0.0
C116 C 0.68867 0.34291 0.42035 0.0
C117 C 0.77203 0.37741 0.37109 0.0
C118 C 0.72228 0.37853 0.43912 0.0
N119 N 0.676 0.27296 0.31489 0.0
C120 C 0.64496 0.23769 0.29488 0.0
C121 C 0.62233 0.2718 0.38058 0.0
C122 C 0.66521 0.29025 0.35685 0.0
C123 C 0.5905 0.2358 0.36004 0.0
C124 C 0.60185 0.21877 0.31697 0.0
H125 H 0.71617 0.39318 0.47257 0.0
H126 H 0.63792 0.3381 0.47752 0.0
H127 H 0.57996 0.27561 0.44276 0.0
O128 O 0.69664 0.33318 0.26373 0.0
O129 O 0.74034 0.25748 0.32471 0.0
O130 O 0.74674 0.19664 0.27459 0.0
O131 O 0.75517 0.3794 0.28973 0.0
O132 O 0.72559 0.26151 0.22386 0.0
O133 O 0.7593 0.20091 0.21203 0.0
O134 O 0.84516 0.20799 0.30225 0.0
O135 O 0.85135 0.27803 0.21823 0.0
O136 O 0.79351 0.31345 0.22005 0.0
O137 O 0.8162 0.15066 0.25735 0.0
O138 O 0.83202 0.26941 0.30802 0.0
O139 O 0.81917 0.33385 0.29406 0.0
C140 C 0.73229 0.21276 0.31373 0.0
C141 C 0.72507 0.4062 0.24035 0.0
C142 C 0.69515 0.43291 0.18775 0.0
C143 C 0.73521 0.46916 0.18525 0.0
C144 C 0.76463 0.44322 0.2372 0.0
C145 C 0.76962 0.47419 0.20976 0.0
C146 C 0.69013 0.40123 0.21533 0.0
C147 C 0.72995 0.22124 0.20287 0.0
C148 C 0.71918 0.37571 0.27231 0.0
C149 C 0.64582 0.32486 0.44391 0.0
C150 C 0.61277 0.28937 0.4241 0.0
C151 C 0.83464 0.30629 0.20437 0.0
C152 C 0.87816 0.14527 0.28705 0.0
C153 C 0.92343 0.11565 0.32283 0.0
C154 C 0.94674 0.10052 0.28307 0.0
C155 C 0.90155 0.12956 0.24734 0.0
C156 C 0.89004 0.13912 0.32483 0.0
C157 C 0.93598 0.1078 0.24546 0.0
C158 C 0.83981 0.3144 0.31431 0.0
C159 C 0.83884 0.16437 0.28958 0.0
H160 H 0.73982 0.49368 0.16413 0.0
H161 H 0.79168 0.4488 0.25642 0.0
H162 H 0.80021 0.50246 0.2077 0.0
H163 H 0.65919 0.37331 0.21749 0.0
H164 H 0.97258 0.08238 0.28121 0.0
H165 H 0.89246 0.13274 0.21769 0.0
H166 H 0.87165 0.15024 0.35562 0.0
H167 H 0.95338 0.09543 0.21472 0.0
Tb168 Tb 0.75681 0.71864 0.30987 0.0
C169 C 0.89504 0.88618 0.21494 0.0
N170 N 0.85731 0.88383 0.24531 0.0
C171 C 0.89085 0.95974 0.27897 0.0
C172 C 0.93295 0.92503 0.21599 0.0
C173 C 0.85403 0.92041 0.27648 0.0
C174 C 0.93073 0.96188 0.24895 0.0
C175 C 0.92929 0.85442 0.14562 0.0
C176 C 0.89335 0.85144 0.18047 0.0
C177 C 0.96892 0.89121 0.14794 0.0
C178 C 0.97071 0.92657 0.1831 0.0
Tb179 Tb 0.79996 0.81757 0.23906 0.0
N180 N 0.85369 0.81773 0.17878 0.0
C181 C 0.92278 0.82221 0.10842 0.0
C182 C 0.84481 0.79041 0.14067 0.0
C183 C 0.87978 0.79084 0.10551 0.0
H184 H 0.82332 0.91895 0.29984 0.0
H185 H 0.87328 0.76767 0.07599 0.0
H186 H 0.6795 0.6275 0.26454 0.0
H187 H 0.74287 0.83007 0.46197 0.0
H188 H 0.81091 0.76797 0.13787 0.0
H189 H 0.94954 0.82319 0.08089 0.0
H190 H 0.78282 0.80005 0.39322 0.0
H191 H 0.88862 0.98828 0.30409 0.0
H192 H 0.99727 0.89383 0.12178 0.0
H193 H 1.00051 0.95581 0.18361 0.0
H194 H 0.597 0.59075 0.27999 0.0
H195 H 0.95904 0.99246 0.25089 0.0
H196 H 0.65952 0.79658 0.48223 0.0
N197 N 0.68027 0.67932 0.31989 0.0
C198 C 0.65562 0.69396 0.35736 0.0
C199 C 0.61294 0.62006 0.3018 0.0
C200 C 0.60819 0.67312 0.36768 0.0
C201 C 0.65982 0.6417 0.29287 0.0
C202 C 0.58688 0.63613 0.3391 0.0
N203 N 0.72354 0.75007 0.37436 0.0
C204 C 0.74695 0.78484 0.4017 0.0
C205 C 0.65347 0.74636 0.42462 0.0
C206 C 0.67801 0.72998 0.38573 0.0
C207 C 0.67715 0.7829 0.45215 0.0
C208 C 0.72418 0.80196 0.44078 0.0
H209 H 0.55054 0.61922 0.34589 0.0
H210 H 0.54715 0.67402 0.41461 0.0
H211 H 0.58673 0.73824 0.46433 0.0
O212 O 0.78526 0.70183 0.35715 0.0
O213 O 0.71441 0.76984 0.31571 0.0
O214 O 0.76529 0.83807 0.30424 0.0
O215 O 0.74489 0.64958 0.31569 0.0
O216 O 0.82562 0.76541 0.31767 0.0
O217 O 0.82677 0.83472 0.30202 0.0
O218 O 0.73434 0.81985 0.22924 0.0
O219 O 0.83775 0.76199 0.21429 0.0
O220 O 0.80834 0.70182 0.25316 0.0
O221 O 0.79612 0.86622 0.20394 0.0
O222 O 0.74849 0.75667 0.21331 0.0
O223 O 0.73645 0.69348 0.24644 0.0
C224 C 0.72488 0.81542 0.32224 0.0
C225 C 0.80904 0.6336 0.334 0.0
C226 C 0.8639 0.60245 0.35681 0.0
C227 C 0.88189 0.59128 0.31368 0.0
C228 C 0.82695 0.62062 0.29112 0.0
C229 C 0.8632 0.5999 0.28113 0.0
C230 C 0.82715 0.62358 0.36692 0.0
C231 C 0.84129 0.81013 0.32303 0.0
C232 C 0.77236 0.65823 0.34403 0.0
C233 C 0.58361 0.68952 0.40629 0.0
C234 C 0.60617 0.72603 0.43466 0.0
C235 C 0.83695 0.72053 0.22094 0.0
C236 C 0.72785 0.8908 0.21645 0.0
C237 C 0.68657 0.93492 0.19038 0.0
C238 C 0.69273 0.96731 0.22781 0.0
C239 C 0.73222 0.92301 0.25388 0.0
C240 C 0.70391 0.89621 0.18531 0.0
C241 C 0.71458 0.96093 0.25951 0.0
C242 C 0.72898 0.71359 0.21743 0.0
C243 C 0.75136 0.85371 0.20762 0.0
H244 H 0.91009 0.57515 0.30523 0.0
H245 H 0.81294 0.62633 0.26512 0.0
H246 H 0.87682 0.59046 0.24796 0.0
H247 H 0.81324 0.63261 0.40012 0.0
H248 H 0.68051 0.99766 0.23254 0.0
H249 H 0.75007 0.91933 0.2783 0.0
H250 H 0.70022 0.87121 0.15642 0.0
H251 H 0.71863 0.98598 0.28827 0.0
Tb252 Tb 0.23262 0.80573 0.27348 0.0
C253 C 0.30276 0.66818 0.33558 0.0
N254 N 0.32637 0.70894 0.32295 0.0
C255 C 0.36667 0.72824 0.38407 0.0
C256 C 0.30866 0.65673 0.37393 0.0
C257 C 0.35984 0.73787 0.34564 0.0
C258 C 0.3405 0.68781 0.39864 0.0
C259 C 0.24944 0.59388 0.32008 0.0
C260 C 0.27397 0.63697 0.30899 0.0
C261 C 0.25354 0.5831 0.35915 0.0
C262 C 0.2832 0.61444 0.38598 0.0
Tb263 Tb 0.31103 0.72046 0.25941 0.0
N264 N 0.27056 0.64879 0.27173 0.0
C265 C 0.22223 0.56273 0.29118 0.0
C266 C 0.24659 0.61755 0.24221 0.0
C267 C 0.22129 0.57445 0.25182 0.0
H268 H 0.38265 0.76785 0.3339 0.0
H269 H 0.20113 0.55033 0.22888 0.0
H270 H 0.20787 0.79643 0.1762 0.0
H271 H 0.26798 0.95791 0.39224 0.0
H272 H 0.24643 0.62601 0.21141 0.0
H273 H 0.20274 0.52927 0.29849 0.0
H274 H 0.23701 0.87564 0.36719 0.0
H275 H 0.39269 0.75173 0.40209 0.0
H276 H 0.23467 0.55032 0.36849 0.0
H277 H 0.28679 0.60535 0.41562 0.0
H278 H 0.22735 0.84456 0.11899 0.0
H279 H 0.34603 0.68037 0.42832 0.0
H280 H 0.3007 1.01119 0.33965 0.0
N281 N 0.24536 0.84821 0.21992 0.0
C282 C 0.26505 0.89347 0.22986 0.0
C283 C 0.23889 0.8586 0.14982 0.0
C284 C 0.27598 0.92265 0.19901 0.0
C285 C 0.22821 0.83138 0.18195 0.0
C286 C 0.26409 0.9042 0.15801 0.0
N287 N 0.2552 0.88181 0.30106 0.0
C288 C 0.25223 0.89849 0.34397 0.0
C289 C 0.28739 0.95824 0.28479 0.0
C290 C 0.27026 0.91093 0.27206 0.0
C291 C 0.28784 0.97505 0.3285 0.0
C292 C 0.26937 0.9451 0.35828 0.0
H293 H 0.27194 0.9254 0.13329 0.0
H294 H 0.30539 0.99242 0.18743 0.0
H295 H 0.31557 0.02365 0.26267 0.0
O296 O 0.17851 0.837 0.2986 0.0
O297 O 0.28485 0.80466 0.21569 0.0
O298 O 0.34403 0.78551 0.23496 0.0
O299 O 0.1657 0.77033 0.26109 0.0
O300 O 0.27987 0.8213 0.32278 0.0
O301 O 0.34012 0.78926 0.29214 0.0
O302 O 0.33501 0.68279 0.20246 0.0
O303 O 0.23981 0.70437 0.29481 0.0
O304 O 0.22613 0.77228 0.32973 0.0
O305 O 0.37629 0.70807 0.25348 0.0
O306 O 0.27151 0.71076 0.20583 0.0
O307 O 0.20787 0.73566 0.23949 0.0
C308 C 0.3288 0.80693 0.21194 0.0
C309 C 0.11016 0.78224 0.31869 0.0
C310 C 0.08482 0.76945 0.39279 0.0
C311 C 0.04259 0.74118 0.38064 0.0
C312 C 0.0678 0.75463 0.30738 0.0
C313 C 0.03429 0.73378 0.33829 0.0
C314 C 0.11879 0.7886 0.36076 0.0
C315 C 0.32314 0.81957 0.32035 0.0
C316 C 0.14721 0.80068 0.28594 0.0
C317 C 0.296 0.96946 0.21079 0.0
C318 C 0.30172 0.98725 0.25367 0.0
C319 C 0.22214 0.72858 0.32899 0.0
C320 C 0.41254 0.71727 0.18275 0.0
C321 C 0.4402 0.7226 0.107 0.0
C322 C 0.46615 0.76763 0.11883 0.0
C323 C 0.43868 0.7622 0.19408 0.0
C324 C 0.41448 0.6979 0.13987 0.0
C325 C 0.46562 0.78705 0.16214 0.0
C326 C 0.22831 0.71145 0.20738 0.0
C327 C 0.3761 0.69254 0.21295 0.0
H328 H 1.01563 0.72494 0.40362 0.0
H329 H 0.06111 0.74847 0.2746 0.0
H330 H 1.00169 0.71201 0.32952 0.0
H331 H 0.15205 0.80974 0.36837 0.0
H332 H 0.48616 0.78824 0.09499 0.0
H333 H 0.43701 0.77863 0.22719 0.0
H334 H 0.39356 0.6635 0.13295 0.0
H335 H 0.48515 0.82192 0.17091 0.0
Tb336 Tb 0.2341 0.81952 0.79112 0.0
C337 C 0.3837 0.72539 0.67587 0.0
N338 N 0.33704 0.71201 0.68709 0.0
C339 C 0.32858 0.68031 0.61356 0.0
C340 C 0.40432 0.71795 0.6328 0.0
C341 C 0.30965 0.68818 0.65664 0.0
C342 C 0.37602 0.69568 0.60149 0.0
C343 C 0.45949 0.75978 0.69758 0.0
C344 C 0.41099 0.74649 0.70783 0.0
C345 C 0.48 0.75314 0.65468 0.0
C346 C 0.45247 0.73243 0.62237 0.0
Tb347 Tb 0.31122 0.72883 0.75897 0.0
N348 N 0.39004 0.75362 0.74897 0.0
C349 C 0.48599 0.77903 0.7308 0.0
C350 C 0.416 0.77021 0.78168 0.0
C351 C 0.46414 0.78374 0.77305 0.0
H352 H 0.27331 0.67382 0.66478 0.0
H353 H 0.48438 0.79749 0.79908 0.0
H354 H 0.27861 0.89346 0.8733 0.0
H355 H 0.06186 0.70843 0.78005 0.0
H356 H 0.40014 0.77262 0.8147 0.0
H357 H 0.5233 0.78963 0.72423 0.0
H358 H 0.13828 0.75136 0.75128 0.0
H359 H 0.30653 0.66183 0.5897 0.0
H360 H 0.51715 0.76361 0.64619 0.0
H361 H 0.46882 0.7272 0.58943 0.0
H362 H 0.25671 0.9104 0.95115 0.0
H363 H 0.39052 0.68931 0.56808 0.0
H364 H 0.03673 0.71665 0.85855 0.0
N365 N 0.2163 0.84181 0.86333 0.0
C366 C 0.17354 0.82072 0.88155 0.0
C367 C 0.23315 0.88483 0.93198 0.0
C368 C 0.15965 0.82957 0.92611 0.0
C369 C 0.24565 0.87458 0.88773 0.0
C370 C 0.19016 0.86191 0.95134 0.0
N371 N 0.15957 0.78028 0.81261 0.0
C372 C 0.12921 0.75415 0.78549 0.0
C373 C 0.10021 0.76547 0.87325 0.0
C374 C 0.14446 0.78866 0.8554 0.0
C375 C 0.07077 0.73527 0.84587 0.0
C376 C 0.08492 0.73044 0.80172 0.0
H377 H 0.18077 0.86963 0.98569 0.0
H378 H 0.10504 0.81134 0.97831 0.0
H379 H 0.05311 0.7554 0.93201 0.0
O380 O 0.19189 0.84354 0.76167 0.0
O381 O 0.23507 0.77656 0.83698 0.0
O382 O 0.24123 0.70951 0.79559 0.0
O383 O 0.2343 0.88881 0.80633 0.0
O384 O 0.21858 0.76676 0.73243 0.0
O385 O 0.24541 0.70437 0.73323 0.0
O386 O 0.32877 0.69926 0.8051 0.0
O387 O 0.33661 0.78732 0.7233 0.0
O388 O 0.29416 0.84162 0.74397 0.0
O389 O 0.31672 0.66121 0.74155 0.0
O390 O 0.3257 0.78162 0.81531 0.0
O391 O 0.30441 0.84571 0.81001 0.0
C392 C 0.22532 0.73211 0.8318 0.0
C393 C 0.22136 0.92012 0.75002 0.0
C394 C 0.20224 0.95606 0.69774 0.0
C395 C 0.24701 0.9851 0.69442 0.0
C396 C 0.26625 0.94934 0.74608 0.0
C397 C 0.27879 0.98167 0.71851 0.0
C398 C 0.18943 0.92385 0.72581 0.0
C399 C 0.21794 0.72278 0.71977 0.0
C400 C 0.20713 0.88566 0.77902 0.0
C401 C 0.11617 0.80545 0.94408 0.0
C402 C 0.08658 0.77347 0.91771 0.0
C403 C 0.32837 0.82614 0.72062 0.0
C404 C 0.33681 0.62112 0.78948 0.0
C405 C 0.37035 0.58625 0.83259 0.0
C406 C 0.34637 0.54308 0.81382 0.0
C407 C 0.31535 0.57743 0.76947 0.0
C408 C 0.36477 0.62553 0.82099 0.0
C409 C 0.31994 0.53866 0.78182 0.0
C410 C 0.32824 0.82554 0.82666 0.0
C411 C 0.32774 0.66133 0.77858 0.0
H412 H 0.25765 1.00959 0.67242 0.0
H413 H 0.29174 0.94708 0.76402 0.0
H414 H 0.31349 1.00366 0.71528 0.0
H415 H 0.15495 0.90109 0.72802 0.0
H416 H 0.34743 0.51276 0.82482 0.0
H417 H 0.29372 0.57319 0.74524 0.0
H418 H 0.38148 0.65902 0.83677 0.0
H419 H 0.30223 0.50509 0.76717 0.0
Tb420 Tb 0.25231 0.21041 0.79978 0.0
C421 C 0.38643 0.36999 0.68762 0.0
N422 N 0.3522 0.36887 0.72148 0.0
C423 C 0.38807 0.44645 0.74898 0.0
C424 C 0.42337 0.40922 0.6834 0.0
C425 C 0.35182 0.40682 0.75161 0.0
C426 C 0.42409 0.44763 0.71492 0.0
C427 C 0.41545 0.33306 0.61846 0.0
C428 C 0.38262 0.33262 0.65583 0.0
C429 C 0.4537 0.37105 0.61495 0.0
C430 C 0.45763 0.40915 0.64741 0.0
Tb431 Tb 0.29551 0.30212 0.7238 0.0
N432 N 0.34446 0.2974 0.66004 0.0
C433 C 0.40772 0.2963 0.58502 0.0
C434 C 0.33493 0.26339 0.62592 0.0
C435 C 0.36684 0.26167 0.58852 0.0
H436 H 0.32421 0.40623 0.77822 0.0
H437 H 0.35954 0.23397 0.56218 0.0
H438 H 0.16608 0.12028 0.76879 0.0
H439 H 0.26716 0.33095 0.94729 0.0
H440 H 0.30289 0.23726 0.6272 0.0
H441 H 0.43206 0.29529 0.55576 0.0
H442 H 0.29491 0.29606 0.87536 0.0
H443 H 0.38905 0.47585 0.7735 0.0
H444 H 0.47954 0.37192 0.5867 0.0
H445 H 0.48656 0.4388 0.64382 0.0
H446 H 0.08568 0.08628 0.79763 0.0
H447 H 0.45197 0.47843 0.71311 0.0
H448 H 0.187 0.30062 0.98061 0.0
N449 N 0.17743 0.1738 0.82219 0.0
C450 C 0.1598 0.19116 0.86216 0.0
C451 C 0.10604 0.11598 0.81594 0.0
C452 C 0.11399 0.17216 0.88002 0.0
C453 C 0.15159 0.13583 0.7995 0.0
C454 C 0.08703 0.1344 0.85621 0.0
N455 N 0.23149 0.24659 0.86694 0.0
C456 C 0.26017 0.28229 0.88915 0.0
C457 C 0.17026 0.24738 0.92666 0.0
C458 C 0.18773 0.22824 0.88544 0.0
C459 C 0.19918 0.28489 0.94892 0.0
C460 C 0.24441 0.30216 0.9302 0.0
H461 H 0.0517 0.11888 0.86884 0.0
H462 H 0.06138 0.17716 0.93516 0.0
H463 H 0.11053 0.24308 0.97584 0.0
O464 O 0.28129 0.19294 0.84631 0.0
O465 O 0.21277 0.26493 0.81295 0.0
O466 O 0.26314 0.329 0.78961 0.0
O467 O 0.24469 0.14095 0.80135 0.0
O468 O 0.32407 0.2525 0.79841 0.0
O469 O 0.32574 0.32189 0.78359 0.0
O470 O 0.22736 0.30188 0.72137 0.0
O471 O 0.33815 0.25057 0.70753 0.0
O472 O 0.29545 0.18698 0.73875 0.0
O473 O 0.28504 0.34372 0.68498 0.0
O474 O 0.25637 0.23482 0.69492 0.0
O475 O 0.21185 0.19186 0.74631 0.0
C476 C 0.22467 0.31006 0.81409 0.0
C477 C 0.30941 0.12703 0.82218 0.0
C478 C 0.36424 0.09769 0.84785 0.0
C479 C 0.37972 0.08128 0.80525 0.0
C480 C 0.32619 0.11048 0.7799 0.0
C481 C 0.3613 0.08825 0.77161 0.0
C482 C 0.32923 0.1211 0.85616 0.0
C483 C 0.34275 0.29654 0.80093 0.0
C484 C 0.27104 0.14969 0.83089 0.0
C485 C 0.09654 0.19124 0.92104 0.0
C486 C 0.12455 0.22874 0.94426 0.0
C487 C 0.33082 0.20694 0.7117 0.0
C488 C 0.21951 0.37139 0.70739 0.0
C489 C 0.1786 0.41834 0.68646 0.0
C490 C 0.18498 0.44867 0.72491 0.0
C491 C 0.22557 0.402 0.74576 0.0
C492 C 0.19578 0.37958 0.67787 0.0
C493 C 0.20819 0.44035 0.75448 0.0
C494 C 0.22098 0.20192 0.70731 0.0
C495 C 0.24051 0.33275 0.6961 0.0
H496 H 0.4062 0.06299 0.79808 0.0
H497 H 0.31192 0.11419 0.75306 0.0
H498 H 0.3739 0.07581 0.73889 0.0
H499 H 0.31671 0.13353 0.88895 0.0
H500 H 0.17149 0.47843 0.7322 0.0
H501 H 0.24412 0.39666 0.76873 0.0
H502 H 0.19087 0.35607 0.64818 0.0
H503 H 0.21289 0.46378 0.78416 0.0
Tb504 Tb 0.7297 0.31552 0.78743 0.0
C505 C 0.79519 0.19287 0.86288 0.0
N506 N 0.81986 0.2311 0.84587 0.0
C507 C 0.85863 0.25816 0.9081 0.0
C508 C 0.79838 0.18795 0.9047 0.0
C509 C 0.85423 0.2614 0.86654 0.0
C510 C 0.82949 0.22212 0.92788 0.0
C511 C 0.74662 0.11531 0.8521 0.0
C512 C 0.77043 0.1565 0.83673 0.0
C513 C 0.74589 0.11211 0.89506 0.0
C514 C 0.772 0.14829 0.92127 0.0
Tb515 Tb 0.80923 0.2305 0.77682 0.0
N516 N 0.77252 0.16047 0.79518 0.0
C517 C 0.72621 0.07795 0.82327 0.0
C518 C 0.757 0.12298 0.76612 0.0
C519 C 0.73244 0.08149 0.77986 0.0
H520 H 0.87971 0.28722 0.85076 0.0
H521 H 0.71859 0.05224 0.75695 0.0
H522 H 0.6898 0.3018 0.69749 0.0
H523 H 0.78438 0.47079 0.89908 0.0
H524 H 0.76253 0.12529 0.73242 0.0
H525 H 0.70752 0.0457 0.83379 0.0
H526 H 0.75126 0.38872 0.87774 0.0
H527 H 0.88537 0.28282 0.92442 0.0
H528 H 0.72709 0.08104 0.90773 0.0
H529 H 0.77303 0.14452 0.95372 0.0
H530 H 0.6912 0.34791 0.6429 0.0
H531 H 0.8332 0.21959 0.95998 0.0
H532 H 0.80164 0.52299 0.846 0.0
N533 N 0.72851 0.35724 0.7371 0.0
C534 C 0.74528 0.40298 0.74532 0.0
C535 C 0.70725 0.36386 0.67128 0.0
C536 C 0.74631 0.43115 0.71579 0.0
C537 C 0.70727 0.33762 0.7018 0.0
C538 C 0.72755 0.41084 0.67799 0.0
N539 N 0.75411 0.39272 0.8125 0.0
C540 C 0.76034 0.41051 0.85398 0.0
C541 C 0.77722 0.46899 0.79501 0.0
C542 C 0.7596 0.42144 0.78432 0.0
C543 C 0.78804 0.48669 0.83635 0.0
C544 C 0.77844 0.45735 0.86633 0.0
H545 H 0.7276 0.43118 0.65437 0.0
H546 H 0.76812 0.50065 0.70252 0.0
H547 H 0.79733 0.53355 0.77148 0.0
O548 O 0.67249 0.34169 0.8142 0.0
O549 O 0.78159 0.31675 0.72908 0.0
O550 O 0.83992 0.28665 0.7383 0.0
O551 O 0.66369 0.27179 0.78389 0.0
O552 O 0.77523 0.32621 0.83652 0.0
O553 O 0.8387 0.30295 0.80219 0.0
O554 O 0.84968 0.20614 0.72118 0.0
O555 O 0.73471 0.21245 0.80237 0.0
O556 O 0.72528 0.27958 0.84106 0.0
O557 O 0.86134 0.20245 0.78361 0.0
O558 O 0.7618 0.20418 0.72798 0.0
O559 O 0.71615 0.25527 0.73757 0.0
C560 C 0.82299 0.30921 0.71733 0.0
C561 C 0.60986 0.28597 0.84261 0.0
C562 C 0.59051 0.28281 0.9192 0.0
C563 C 0.54532 0.25746 0.91213 0.0
C564 C 0.56461 0.26236 0.83656 0.0
C565 C 0.53258 0.24786 0.87124 0.0
C566 C 0.62313 0.29434 0.88322 0.0
C567 C 0.82007 0.33115 0.83155 0.0
C568 C 0.64332 0.30194 0.8065 0.0
C569 C 0.76578 0.47841 0.72521 0.0
C570 C 0.78205 0.49719 0.76453 0.0
C571 C 0.71547 0.23487 0.8367 0.0
C572 C 0.92639 0.22637 0.73556 0.0
C573 C 1.00396 0.22749 0.70062 0.0
C574 C 1.02083 0.27126 0.72278 0.0
C575 C 0.943 0.27072 0.75744 0.0
C576 C 0.95685 0.20528 0.70734 0.0
C577 C 0.99012 0.2929 0.75122 0.0
C578 C 0.72775 0.2174 0.71875 0.0
C579 C 0.87808 0.2006 0.74357 0.0
H580 H 0.51885 0.24723 0.93836 0.0
H581 H 0.55402 0.25549 0.80515 0.0
H582 H 0.49727 0.2307 0.86673 0.0
H583 H 0.65844 0.31276 0.88678 0.0
H584 H 0.05717 0.28862 0.7176 0.0
H585 H 0.91982 0.28795 0.77956 0.0
H586 H 0.94371 0.17139 0.69005 0.0
H587 H 1.00274 0.32687 0.76834 0.0
Tb588 Tb 0.72712 0.75109 0.72822 0.0
C589 C 0.82549 0.8681 0.87647 0.0
N590 N 0.8427 0.85182 0.83587 0.0
C591 C 0.89673 0.92492 0.83043 0.0
C592 C 0.84274 0.91381 0.89515 0.0
C593 C 0.87903 0.87923 0.81338 0.0
C594 C 0.87832 0.9424 0.87132 0.0
C595 C 0.77258 0.85396 0.94198 0.0
C596 C 0.7905 0.83864 0.89962 0.0
C597 C 0.78964 0.89951 0.96052 0.0
C598 C 0.82441 0.92938 0.93711 0.0
Tb599 Tb 0.81023 0.77605 0.81328 0.0
N600 N 0.77367 0.79506 0.88025 0.0
C601 C 0.73854 0.82284 0.96462 0.0
C602 C 0.74216 0.76405 0.90282 0.0
C603 C 0.72384 0.77753 0.94518 0.0
H604 H 0.89574 0.86622 0.78275 0.0
H605 H 0.69829 0.75296 0.96275 0.0
H606 H 0.65089 0.65122 0.74905 0.0
H607 H 0.8102 0.80766 0.57848 0.0
H608 H 0.73125 0.72881 0.88845 0.0
H609 H 0.72399 0.83323 0.9973 0.0
H610 H 0.78431 0.81685 0.65635 0.0
H611 H 0.92514 0.94647 0.81225 0.0
H612 H 0.77654 0.9119 0.99309 0.0
H613 H 0.8373 0.96437 0.95197 0.0
H614 H 0.62666 0.57391 0.71043 0.0
H615 H 0.89244 0.97774 0.88453 0.0
H616 H 0.79147 0.73114 0.53442 0.0
N617 N 0.69828 0.67737 0.69632 0.0
C618 C 0.71282 0.66857 0.65348 0.0
C619 C 0.65145 0.60007 0.69415 0.0
C620 C 0.69807 0.6248 0.6296 0.0
C621 C 0.66636 0.64419 0.71635 0.0
C622 C 0.66777 0.59016 0.65072 0.0
N623 N 0.75456 0.74591 0.65707 0.0
C624 C 0.77755 0.78311 0.63783 0.0
C625 C 0.75472 0.69731 0.58838 0.0
C626 C 0.74125 0.70417 0.63311 0.0
C627 C 0.78063 0.73492 0.56873 0.0
C628 C 0.79149 0.77813 0.59352 0.0
H629 H 0.65568 0.55605 0.63355 0.0
H630 H 0.70226 0.58383 0.56651 0.0
H631 H 0.75154 0.64744 0.53038 0.0
O632 O 0.71099 0.80799 0.71507 0.0
O633 O 0.78399 0.71365 0.70497 0.0
O634 O 0.83726 0.73517 0.75304 0.0
O635 O 0.66291 0.74131 0.70881 0.0
O636 O 0.7827 0.81452 0.73603 0.0
O637 O 0.84488 0.8002 0.75302 0.0
O638 O 0.82008 0.73191 0.85022 0.0
O639 O 0.75807 0.81865 0.82454 0.0
O640 O 0.69449 0.77472 0.7942 0.0
O641 O 0.87478 0.78977 0.83367 0.0
O642 O 0.75969 0.70863 0.80787 0.0
O643 O 0.69706 0.71678 0.78423 0.0
C644 C 0.8231 0.71144 0.71639 0.0
C645 C 0.66329 0.79058 0.66098 0.0
C646 C 0.64825 0.84117 0.6196 0.0
C647 C 0.63661 0.80384 0.58706 0.0
C648 C 0.65165 0.75381 0.62789 0.0
C649 C 0.63904 0.76068 0.59093 0.0
C650 C 0.66329 0.83458 0.65586 0.0
C651 C 0.82719 0.81803 0.72894 0.0
C652 C 0.67233 0.78328 0.70207 0.0
C653 C 0.71306 0.6173 0.5853 0.0
C654 C 0.74114 0.65351 0.56471 0.0
C655 C 0.71301 0.809 0.82287 0.0
C656 C 0.89558 0.72384 0.84025 0.0
C657 C 0.92721 0.66827 0.85991 0.0
C658 C 0.9587 0.67024 0.82197 0.0
C659 C 0.92779 0.72575 0.80271 0.0
C660 C 0.89498 0.69448 0.86849 0.0
C661 C 0.95912 0.6991 0.79377 0.0
C662 C 0.71524 0.69597 0.8053 0.0
C663 C 0.86333 0.75302 0.8511 0.0
H664 H 0.62488 0.80804 0.55889 0.0
H665 H 0.65146 0.71961 0.63077 0.0
H666 H 0.62989 0.73218 0.56568 0.0
H667 H 0.67238 0.8632 0.68111 0.0
H668 H 0.98376 0.6503 0.81478 0.0
H669 H 0.92882 0.74783 0.78031 0.0
H670 H 0.87079 0.69338 0.89792 0.0
H671 H 0.98392 0.70094 0.76485 0.0
Fe672 Fe 0.05219 0.07384 0.50689 0.0
O673 O 1.00089 0.0191 0.5368 0.0
Fe674 Fe 0.13927 1.01422 0.48505 0.0
Fe675 Fe 0.92856 1.00384 0.54253 0.0
O676 O 0.07191 1.01621 0.49261 0.0
O677 O 0.0662 0.99258 0.48894 0.0
O678 O 0.99518 0.99865 0.5351 0.0
Fe679 Fe 1.01586 0.94174 0.52466 0.0
C680 C 0.97404 0.08685 0.58341 0.0
O681 O 1.01168 0.05514 0.45869 0.0
O682 O 0.9395 0.04672 0.49633 0.0
O683 O 0.06943 0.94327 0.47663 0.0
O684 O 0.13656 0.95057 0.44589 0.0
O685 O 0.14739 0.04877 0.43394 0.0
O686 O 0.10941 0.10319 0.46378 0.0
O687 O 0.91748 0.94929 0.49141 0.0
O688 O 0.97488 0.9146 0.47584 0.0
C689 C 0.13774 0.0866 0.43399 0.0
O690 O 0.05802 0.96594 0.57239 0.0
O691 O 0.13172 0.98233 0.53816 0.0
O692 O 0.99468 0.07113 0.54912 0.0
O693 O 0.93556 0.05988 0.59382 0.0
C694 C 0.96931 0.0561 0.46308 0.0
C695 C 0.93763 0.91999 0.46793 0.0
C696 C 0.9275 0.9266 0.59366 0.0
O697 O 0.91312 0.95932 0.58725 0.0
O698 O 0.96282 0.91533 0.57078 0.0
C699 C 0.10039 0.92313 0.46045 0.0
O700 O 0.15337 0.07717 0.5258 0.0
O701 O 0.08868 0.09347 0.55877 0.0
C702 C 0.10154 0.97201 0.57074 0.0
C703 C 0.13061 0.09487 0.55888 0.0
Fe704 Fe 0.51993 0.96175 1.01411 0.0
O705 O 0.56042 0.01812 0.99091 0.0
Fe706 Fe 0.41705 0.99735 0.05454 0.0
Fe707 Fe 0.6287 0.03633 0.98648 0.0
O708 O 0.4851 1.00764 0.04897 0.0
O709 O 0.48538 1.01445 0.05141 0.0
O710 O 0.5608 0.02461 0.9934 0.0
Fe711 Fe 0.52512 0.07009 0.02685 0.0
C712 C 0.60268 0.97824 0.05983 0.0
O713 O 0.56562 0.92209 0.97105 0.0
O714 O 0.62428 0.97654 0.94018 0.0
O715 O 0.48547 0.05494 0.97707 0.0
O716 O 0.41579 0.04147 1.01475 0.0
O717 O 0.41013 0.94425 1.00257 0.0
O718 O 0.4795 0.94597 0.96455 0.0
O719 O 0.62549 0.08203 0.94889 0.0
O720 O 0.57313 0.12008 0.99133 0.0
C721 C 0.43544 0.93433 0.96743 0.0
O722 O 0.4775 0.10935 0.06843 0.0
O723 O 0.42216 0.0549 0.10259 0.0
O724 O 0.55926 0.97222 0.0626 0.0
O725 O 0.63075 0.99573 0.02923 0.0
C726 C 0.60312 0.9338 0.94269 0.0
C727 C 0.60618 0.1158 0.95902 0.0
C728 C 0.61203 0.10311 0.07154 0.0
O729 O 0.63601 0.09209 0.03592 0.0
O730 O 0.56757 0.08977 0.07627 0.0
C731 C 0.44252 0.05235 0.98104 0.0
O732 O 0.4183 0.94966 0.09024 0.0
O733 O 0.47089 0.91127 0.04938 0.0
C734 C 0.44071 0.09737 0.09761 0.0
C735 C 0.43769 0.9161 0.08159 0.0
Fe736 Fe 0.03616 0.5727 0.02417 0.0
O737 O 0.99324 0.5168 0.04561 0.0
Fe738 Fe 0.13708 0.53286 0.98375 0.0
Fe739 Fe 0.92542 0.50417 0.04755 0.0
O740 O 0.06985 0.52572 0.98903 0.0
O741 O 0.06888 0.51851 0.98494 0.0
O742 O 0.99239 0.50998 0.04175 0.0
Fe743 Fe 1.02596 0.46278 1.00721 0.0
C744 C 0.95209 0.60166 0.09588 0.0
O745 O 0.99985 0.5624 0.97406 0.0
O746 O 0.92907 0.55247 1.00958 0.0
O747 O 0.07307 0.42188 0.96475 0.0
O748 O 0.13198 0.47615 0.93389 0.0
O749 O 0.13889 0.58369 0.94959 0.0
O750 O 0.08678 0.62263 0.99109 0.0
O751 O 0.91777 0.4547 0.99375 0.0
O752 O 0.9857 0.44658 0.95706 0.0
C753 C 0.1203 0.61805 0.95944 0.0
O754 O 0.06244 0.47464 0.05738 0.0
O755 O 0.13404 0.48665 0.02328 0.0
O756 O 0.9897 0.61348 0.06739 0.0
O757 O 0.93225 0.55889 0.09862 0.0
C758 C 0.959 0.56594 0.97833 0.0
C759 C 0.94178 0.43955 0.95992 0.0
C760 C 0.94105 0.41861 0.07326 0.0
O761 O 0.92235 0.45268 0.08096 0.0
O762 O 0.97513 0.41329 0.04214 0.0
C763 C 0.11134 0.4334 0.93668 0.0
O764 O 0.14442 0.58384 0.03675 0.0
O765 O 0.07589 0.58821 0.07398 0.0
C766 C 0.10407 0.47401 0.05473 0.0
C767 C 0.12002 0.59821 0.07065 0.0
Fe768 Fe 0.53305 0.49625 0.9591 0.0
O769 O 0.57084 0.537 1.00419 0.0
Fe770 Fe 0.4239 0.46855 1.0146 0.0
Fe771 Fe 0.6371 0.54066 1.0041 0.0
O772 O 0.4896 0.47569 1.01004 0.0
O773 O 0.49027 0.47488 1.01543 0.0
O774 O 0.57158 0.53567 1.00945 0.0
Fe775 Fe 0.52789 0.51609 0.06086 0.0
C776 C 0.59991 0.44204 0.96429 0.0
O777 O 0.58575 0.52519 0.9116 0.0
O778 O 0.64423 0.57014 0.94942 0.0
O779 O 0.49871 0.5666 0.06003 0.0
O780 O 0.42571 0.53067 0.05348 0.0
O781 O 0.42952 0.49999 0.9627 0.0
O782 O 0.50008 0.54564 0.95614 0.0
O783 O 0.63509 0.59789 0.04947 0.0
O784 O 0.57642 0.56511 0.0995 0.0
C785 C 0.45808 0.53491 0.94969 0.0
O786 O 0.47427 0.48803 0.10826 0.0
O787 O 0.41812 0.43962 0.06906 0.0
O788 O 0.56113 0.44488 0.95936 0.0
O789 O 0.63416 0.47727 0.96668 0.0
C790 C 0.62338 0.55823 0.91577 0.0
C791 C 0.61515 0.59566 0.08878 0.0
C792 C 0.60055 0.47607 0.07194 0.0
O793 O 0.63055 0.50869 0.05639 0.0
O794 O 0.55886 0.46614 0.06526 0.0
C795 C 0.45865 0.56711 0.05587 0.0
O796 O 0.427 0.4125 0.96698 0.0
O797 O 0.48788 0.44723 0.91977 0.0
C798 C 0.43739 0.45405 0.1037 0.0
C799 C 0.45039 0.41508 0.92864 0.0
Fe800 Fe 1.01783 0.45948 0.51396 0.0
O801 O 0.99265 0.50987 0.5548 0.0
Fe802 Fe 0.06117 0.51049 0.42356 0.0
Fe803 Fe 0.98907 0.52079 0.61914 0.0
O804 O 0.05512 0.51348 0.48576 0.0
O805 O 0.05692 0.52166 0.48796 0.0
O806 O 0.99566 0.51745 0.55741 0.0
Fe807 Fe 0.02839 0.57092 0.52733 0.0
C808 C 0.94145 0.41884 0.58917 0.0
O809 O 0.06915 0.46868 0.55072 0.0
O810 O 0.03425 0.48252 0.61789 0.0
O811 O 0.06971 0.61834 0.48451 0.0
O812 O 0.10799 0.57392 0.43159 0.0
O813 O 0.10438 0.46848 0.42211 0.0
O814 O 0.05756 0.41745 0.46572 0.0
O815 O 0.04251 0.58078 0.62882 0.0
O816 O 0.08297 0.59399 0.56539 0.0
C817 C 0.0932 0.42904 0.43536 0.0
O818 O 0.97472 0.55371 0.49208 0.0
O819 O 1.01148 0.54548 0.42502 0.0
O820 O 0.97111 0.41154 0.55434 0.0
O821 O 0.94123 0.4591 0.61069 0.0
C822 C 0.06538 0.46858 0.59075 0.0
C823 C 0.07895 0.60154 0.6066 0.0
C824 C 0.95366 0.60093 0.60726 0.0
O825 O 0.9456 0.56257 0.6213 0.0
O826 O 0.98718 0.61247 0.57514 0.0
C827 C 0.10141 0.61298 0.45097 0.0
O828 O 1.01231 0.44846 0.41306 0.0
O829 O 0.96515 0.44333 0.47381 0.0
C830 C 0.97737 0.5539 0.4523 0.0
C831 C 0.97237 0.43319 0.43262 0.0
Fe832 Fe 0.50804 0.9226 0.50741 0.0
O833 O 0.47434 0.96928 0.54122 0.0
Fe834 Fe 0.55124 1.01083 0.43995 0.0
Fe835 Fe 0.51304 0.02493 0.57882 0.0
O836 O 0.54506 0.98464 0.49415 0.0
O837 O 0.53732 0.04331 0.50793 0.0
O838 O 0.53455 0.0544 0.52405 0.0
Fe839 Fe 0.551 0.11857 0.52826 0.0
C840 C 0.46414 0.94496 0.60789 0.0
O841 O 0.55069 0.92625 0.54913 0.0
O842 O 0.57239 1.00089 0.56918 0.0
O843 O 0.60104 0.12504 0.47405 0.0
O844 O 0.61485 0.05813 0.44387 0.0
O845 O 0.58898 0.9583 0.42457 0.0
O846 O 0.55429 0.89614 0.45731 0.0
O847 O 0.55451 0.08068 0.61693 0.0
O848 O 0.59869 0.12101 0.56646 0.0
C849 C 0.58634 0.91684 0.42976 0.0
O850 O 0.50503 0.11678 0.49131 0.0
O851 O 0.51323 0.05743 0.4398 0.0
O852 O 0.4614 0.94179 0.56646 0.0
O853 O 0.48582 0.98435 0.62593 0.0
C854 C 0.57568 0.96088 0.56908 0.0
C855 C 0.59113 0.11117 0.60426 0.0
C856 C 0.46221 0.09928 0.60199 0.0
O857 O 0.45706 0.05585 0.59748 0.0
O858 O 0.49837 0.12396 0.58214 0.0
C859 C 0.62209 0.10092 0.44456 0.0
O860 O 0.48869 0.96456 0.42641 0.0
O861 O 0.46024 0.90963 0.46658 0.0
C862 C 0.49646 0.09158 0.45603 0.0
C863 C 0.45806 0.9289 0.43627 0.0
C864 C 0.23101 0.1477 0.35149 0.0
C865 C 0.20483 0.16323 0.32842 0.0
C866 C 0.13397 0.11878 0.36829 0.0
C867 C 0.16063 0.11259 0.39724 0.0
N868 N 0.23558 0.12588 0.41804 0.0
N869 N 0.13295 0.1425 0.30112 0.0
C870 C 0.20942 0.12828 0.38919 0.0
C871 C 0.15632 0.1433 0.33328 0.0
N872 N 0.27509 0.14603 0.33477 0.0
N873 N 0.08747 0.09962 0.3734 0.0
H874 H 0.15061 0.1491 0.27118 0.0
H875 H 0.09763 0.12936 0.30124 0.0
H876 H 0.07105 0.0778 0.39556 0.0
H877 H 0.0648 0.10509 0.35614 0.0
H878 H 0.29446 0.13192 0.34884 0.0
H879 H 0.28927 0.15139 0.30354 0.0
H880 H 0.27093 0.14123 0.41571 0.0
H881 H 0.22139 0.11247 0.4463 0.0
C882 C 0.90124 0.06623 0.37971 0.0
C883 C 0.93214 0.10398 0.36213 0.0
C884 C 0.98155 0.11576 0.41681 0.0
C885 C 0.95495 0.07355 0.42972 0.0
N886 N 0.89059 1.00657 0.42109 0.0
N887 N 1.00259 0.16429 0.36215 0.0
C888 C 0.9147 0.04852 0.41098 0.0
C889 C 0.97256 0.1287 0.38021 0.0
N890 N 0.85894 0.04716 0.36657 0.0
N891 N 1.01392 0.14456 0.44068 0.0
H892 H 0.99559 0.17681 0.33719 0.0
H893 H 0.03555 0.17961 0.37022 0.0
H894 H 1.02057 0.13726 0.46861 0.0
H895 H 0.0311 0.17762 0.4352 0.0
H896 H 0.83271 0.0236 0.38219 0.0
H897 H 0.84865 0.05689 0.34171 0.0
H898 H 0.86505 0.98421 0.40418 0.0
H899 H 0.89867 0.992 0.44384 0.0
C900 C 0.87213 0.81618 0.39477 0.0
C901 C 0.87395 0.83432 0.35695 0.0
C902 C 0.92758 0.90522 0.38851 0.0
C903 C 0.91651 0.89036 0.42926 0.0
N904 N 0.87418 0.83157 0.47132 0.0
N905 N 0.92502 0.88527 0.31172 0.0
C906 C 0.88746 0.84587 0.43237 0.0
C907 C 0.90742 0.87642 0.35217 0.0
N908 N 0.862 0.77021 0.39344 0.0
N909 N 0.95719 0.9471 0.38452 0.0
H910 H 0.91537 0.8614 0.28501 0.0
H911 H 0.95327 0.91223 0.30458 0.0
H912 H 0.97456 0.96751 0.40939 0.0
H913 H 0.96241 0.96276 0.35768 0.0
H914 H 0.86208 0.7552 0.41953 0.0
H915 H 0.86359 0.74818 0.36448 0.0
H916 H 0.84922 0.80124 0.47606 0.0
H917 H 0.88508 0.85187 0.49939 0.0
C918 C 0.13454 0.81324 0.44781 0.0
C919 C 0.09117 0.78523 0.43884 0.0
C920 C 0.05675 0.84432 0.47897 0.0
C921 C 0.09914 0.87639 0.46698 0.0
N922 N 0.1822 0.8907 0.46107 0.0
N923 N 1.01857 0.76394 0.48171 0.0
C924 C 0.13987 0.86091 0.45819 0.0
C925 C 0.05368 0.7973 0.46585 0.0
N926 N 0.16906 0.79363 0.44624 0.0
N927 N 1.02261 0.85826 0.50677 0.0
H928 H 1.02106 0.7303 0.47463 0.0
H929 H 0.99016 0.76974 0.50348 0.0
H930 H 0.03174 0.88651 0.52985 0.0
H931 H 0.98884 0.8382 0.51157 0.0
H932 H 0.2015 0.81146 0.45435 0.0
H933 H 0.16175 0.75827 0.44132 0.0
H934 H 0.21289 0.88112 0.45057 0.0
H935 H 0.18625 0.92459 0.47569 0.0
C936 C 0.14381 0.98887 0.67859 0.0
C937 C 0.1704 0.95647 0.66849 0.0
C938 C 0.13896 0.92632 0.60111 0.0
C939 C 0.11877 0.9633 0.60757 0.0
N940 N 0.09977 0.02927 0.65284 0.0
N941 N 0.19545 0.89548 0.6193 0.0
C942 C 0.11988 0.99409 0.64682 0.0
C943 C 0.16831 0.92528 0.62963 0.0
N944 N 0.1416 1.01446 0.7185 0.0
N945 N 0.12822 0.89104 0.56859 0.0
H946 H 0.21612 0.89226 0.64001 0.0
H947 H 0.19983 0.87604 0.5891 0.0
H948 H 0.10409 0.88976 0.54947 0.0
H949 H 0.13843 0.86099 0.56401 0.0
H950 H 0.11997 0.03603 0.72947 0.0
H951 H 0.15945 1.01184 0.74196 0.0
H952 H 0.10305 0.05573 0.6787 0.0
H953 H 0.08172 0.03353 0.63035 0.0
C954 C 0.19859 0.12754 0.65586 0.0
C955 C 0.19312 0.17182 0.67312 0.0
C956 C 0.14917 0.16692 0.61463 0.0
C957 C 0.15501 0.12257 0.59669 0.0
N958 N 0.19786 0.06731 0.59508 0.0
N959 N 0.15184 0.22746 0.67619 0.0
C960 C 0.18319 0.10473 0.61586 0.0
C961 C 0.16538 0.18982 0.65432 0.0
N962 N 0.21752 0.1064 0.67829 0.0
N963 N 0.13152 0.18895 0.59194 0.0
H964 H 0.15822 0.24097 0.70746 0.0
H965 H 0.12951 0.24155 0.66614 0.0
H966 H 0.12202 0.17493 0.56171 0.0
H967 H 0.13136 0.22312 0.60053 0.0
H968 H 0.2177 0.07221 0.67037 0.0
H969 H 0.22995 0.12189 0.70702 0.0
H970 H 0.22305 0.05655 0.60456 0.0
H971 H 0.18891 0.04918 0.56593 0.0
C972 C 0.03443 0.16199 0.67469 0.0
C973 C 0.03269 0.20438 0.66694 0.0
C974 C 1.00805 0.17066 0.59794 0.0
C975 C 0.99789 0.12716 0.61076 0.0
N976 N 1.01121 0.07947 0.65509 0.0
N977 N 0.04253 0.25245 0.61521 0.0
C978 C 1.01506 0.12202 0.64689 0.0
C979 C 0.02919 0.20963 0.62564 0.0
N980 N 0.05073 0.16086 0.7108 0.0
N981 N 0.99464 0.1748 0.56121 0.0
H982 H 0.05696 0.28065 0.63685 0.0
H983 H 0.04281 0.25948 0.58494 0.0
H984 H 0.97779 0.14689 0.5408 0.0
H985 H 0.998 0.20592 0.55189 0.0
H986 H 0.05396 0.13151 0.71936 0.0
H987 H 0.06329 0.19106 0.73118 0.0
H988 H 1.02077 0.07332 0.6821 0.0
H989 H 0.99825 0.04974 0.63446 0.0
C990 C 0.88869 0.83261 0.66422 0.0
C991 C 0.85864 0.84942 0.69891 0.0
C992 C 0.88239 0.92193 0.6698 0.0
C993 C 0.90266 0.90038 0.63016 0.0
N994 N 0.91226 0.82844 0.58822 0.0
N995 N 0.82815 0.91284 0.73529 0.0
C996 C 0.90231 0.85382 0.62699 0.0
C997 C 0.85535 0.89477 0.70154 0.0
N998 N 0.90562 0.79733 0.66662 0.0
N999 N 0.89178 0.96842 0.679 0.0
H1000 H 0.81306 0.89668 0.76187 0.0
H1001 H 0.81971 0.94325 0.73611 0.0
H1002 H 0.9153 0.99 0.65936 0.0
H1003 H 0.88103 0.98574 0.70874 0.0
H1004 H 0.93055 0.78679 0.64295 0.0
H1005 H 0.89917 0.78246 0.69403 0.0
H1006 H 0.90982 0.79369 0.58471 0.0
H1007 H 0.91631 0.84016 0.55931 0.0
C1008 C 0.33837 0.14577 0.16476 0.0
C1009 C 0.35916 0.19049 0.18579 0.0
C1010 C 0.43555 0.17344 0.15147 0.0
C1011 C 0.41405 0.13225 0.12578 0.0
N1012 N 0.34184 0.08772 0.10196 0.0
N1013 N 0.43223 0.24867 0.19005 0.0
C1014 C 0.36462 0.12126 0.13071 0.0
C1015 C 0.40907 0.20473 0.17658 0.0
N1016 N 0.29388 0.12431 0.17901 0.0
N1017 N 0.48135 0.18216 0.15381 0.0
H1018 H 0.41642 0.27378 0.20668 0.0
H1019 H 0.4673 0.2618 0.18023 0.0
H1020 H 0.50098 0.16 0.13725 0.0
H1021 H 0.49838 0.20849 0.17547 0.0
H1022 H 0.27832 0.09053 0.16718 0.0
H1023 H 0.27487 0.13738 0.20663 0.0
H1024 H 0.30657 0.08128 0.10136 0.0
H1025 H 0.35885 0.07039 0.07567 0.0
C1026 C 0.87865 0.31201 0.128 0.0
C1027 C 0.86539 0.33375 0.17034 0.0
C1028 C 0.91655 0.40634 0.15009 0.0
C1029 C 0.92255 0.38646 0.10615 0.0
N1030 N 0.90739 0.31897 0.05309 0.0
N1031 N 0.86902 0.40469 0.21929 0.0
C1032 C 0.90352 0.33875 0.09509 0.0
C1033 C 0.88356 0.38179 0.18061 0.0
N1034 N 0.86763 0.26562 0.11904 0.0
N1035 N 0.94384 0.44867 0.16304 0.0
H1036 H 0.84573 0.38864 0.24299 0.0
H1037 H 0.87719 0.44018 0.22646 0.0
H1038 H 0.9698 0.46665 0.14202 0.0
H1039 H 0.94449 0.46334 0.19511 0.0
H1040 H 0.88048 0.24744 0.09073 0.0
H1041 H 0.84862 0.24546 0.14168 0.0
H1042 H 0.88902 0.28588 0.04226 0.0
H1043 H 0.92727 0.33643 0.02863 0.0
C1044 C 0.68576 0.94303 0.11334 0.0
C1045 C 0.66345 0.94295 0.15632 0.0
C1046 C 0.60337 0.97077 0.13744 0.0
C1047 C 0.62219 0.96453 0.09326 0.0
N1048 N 0.67464 0.93019 0.03937 0.0
N1049 N 0.59319 0.94471 0.20535 0.0
C1050 C 0.66138 0.9463 0.08123 0.0
C1051 C 0.61976 0.95302 0.16715 0.0
N1052 N 0.73099 0.94236 0.10307 0.0
N1053 N 0.57204 0.99599 0.15196 0.0
H1054 H 0.60286 0.92973 0.22707 0.0
H1055 H 0.55946 0.94787 0.213 0.0
H1056 H 0.56206 1.01333 0.13252 0.0
H1057 H 0.56044 1.00434 0.18444 0.0
H1058 H 0.74955 0.94654 0.07276 0.0
H1059 H 0.75132 0.94309 0.12577 0.0
H1060 H 0.70016 0.91267 0.03009 0.0
H1061 H 0.65653 0.9289 1.01477 0.0
C1062 C 0.21084 0.6931 0.13042 0.0
C1063 C 0.20025 0.68213 0.17257 0.0
C1064 C 0.13388 0.61855 0.14953 0.0
C1065 C 0.14573 0.62848 0.10678 0.0
N1066 N 0.19797 0.67454 0.05629 0.0
N1067 N 0.15324 0.63264 0.22189 0.0
C1068 C 0.18501 0.66546 0.09732 0.0
C1069 C 0.16176 0.64467 0.18205 0.0
N1070 N 0.24413 0.73194 0.12247 0.0
N1071 N 0.09662 0.58316 0.15889 0.0
H1072 H 0.17291 0.65044 0.24592 0.0
H1073 H 0.12902 0.60365 0.23092 0.0
H1074 H 0.0792 0.5596 0.13567 0.0
H1075 H 0.08185 0.57719 0.18974 0.0
H1076 H 0.25018 0.74588 0.09452 0.0
H1077 H 0.26349 0.75296 0.14556 0.0
H1078 H 0.23009 0.69473 0.04528 0.0
H1079 H 0.17731 0.66068 0.03229 0.0
C1080 C 0.38701 0.89811 0.8585 0.0
C1081 C 0.35827 0.85279 0.86164 0.0
C1082 C 0.38123 0.86164 0.9338 0.0
C1083 C 0.41144 0.90552 0.92967 0.0
N1084 N 0.44793 0.96285 0.88472 0.0
N1085 N 0.33959 0.78841 0.9008 0.0
C1086 C 0.41577 0.92278 0.89094 0.0
C1087 C 0.35893 0.83372 0.89861 0.0
N1088 N 0.38749 0.91803 0.82428 0.0
N1089 N 0.37263 0.84623 0.97216 0.0
H1090 H 0.31847 0.76557 0.88018 0.0
H1091 H 0.34689 0.77202 0.92278 0.0
H1092 H 0.3904 0.86296 0.99774 0.0
H1093 H 0.34546 0.81838 0.97969 0.0
H1094 H 0.40076 0.95283 0.82349 0.0
H1095 H 0.37338 0.90036 0.79687 0.0
H1096 H 0.45722 0.97512 0.85566 0.0
H1097 H 0.46798 0.98268 0.90791 0.0
C1098 C 0.14516 0.33156 0.84746 0.0
C1099 C 0.19442 0.34057 0.8462 0.0
C1100 C 0.18608 0.40379 0.90868 0.0
C1101 C 0.13778 0.39765 0.90763 0.0
N1102 N 0.07369 0.35662 0.87045 0.0
N1103 N 0.26114 0.39144 0.87532 0.0
C1104 C 0.11811 0.36136 0.87566 0.0
C1105 C 0.21436 0.37865 0.87657 0.0
N1106 N 0.12365 0.29443 0.82097 0.0
N1107 N 0.2051 0.43222 0.94259 0.0
H1108 H 0.28282 0.37233 0.85665 0.0
H1109 H 0.2789 0.42253 0.89105 0.0
H1110 H 0.1863 0.4497 0.96714 0.0
H1111 H 0.23779 0.4346 0.94909 0.0
H1112 H 0.088 0.28166 0.82344 0.0
H1113 H 0.14157 0.27484 0.79754 0.0
H1114 H 0.05799 0.33537 0.84506 0.0
H1115 H 0.05338 0.37668 0.89018 0.0
C1116 C 0.6419 0.17515 0.85978 0.0
C1117 C 0.6825 0.20901 0.87066 0.0
C1118 C 0.66212 0.19073 0.94469 0.0
C1119 C 0.62601 0.1527 0.9316 0.0
N1120 N 0.5815 0.10766 0.87655 0.0
N1121 N 0.73186 0.24799 0.92388 0.0
C1122 C 0.61569 0.14496 0.88919 0.0
C1123 C 0.69218 0.21706 0.91357 0.0
N1124 N 0.62722 0.17293 0.82188 0.0
N1125 N 0.66839 0.20065 0.98682 0.0
H1126 H 0.7561 0.26446 0.90107 0.0
H1127 H 0.74327 0.25432 0.95342 0.0
H1128 H 0.64716 0.18179 1.0099 0.0
H1129 H 0.69213 0.22912 0.99994 0.0
H1130 H 0.59532 0.15295 0.81397 0.0
H1131 H 0.64533 0.19418 0.7997 0.0
H1132 H 0.57595 0.0963 0.84482 0.0
H1133 H 0.55989 0.08663 0.89782 0.0
C1134 C 0.91534 0.59346 0.88583 0.0
C1135 C 0.93121 0.64184 0.89217 0.0
C1136 C 0.96642 0.64012 0.95373 0.0
C1137 C 0.94807 0.59196 0.94932 0.0
N1138 N 0.89862 0.52352 0.91553 0.0
N1139 N 0.96367 0.71179 0.93731 0.0
C1140 C 0.92043 0.56884 0.91671 0.0
C1141 C 0.954 0.66528 0.92782 0.0
N1142 N 0.89618 0.571 0.84989 0.0
N1143 N 0.9973 0.66199 0.98156 0.0
H1144 H 0.95888 0.73226 0.91758 0.0
H1145 H 0.97343 0.72995 0.9665 0.0
H1146 H 1.00723 0.64541 1.00156 0.0
H1147 H 1.01616 0.69594 0.98224 0.0
H1148 H 0.8897 0.53584 0.84038 0.0
H1149 H 0.88931 0.58789 0.82803 0.0
H1150 H 0.87469 0.5055 0.89506 0.0
H1151 H 0.90191 0.50455 0.93738 0.0
C1152 C 0.16283 0.45686 0.14256 0.0
C1153 C 0.13294 0.415 0.15324 0.0
C1154 C 0.09007 0.40867 0.09458 0.0
C1155 C 0.11631 0.4531 0.08707 0.0
N1156 N 0.17491 0.52183 0.10697 0.0
N1157 N 0.06456 0.35351 0.1433 0.0
C1158 C 0.15226 0.47775 0.11165 0.0
C1159 C 0.09544 0.39171 0.13043 0.0
N1160 N 0.20159 0.47645 0.16167 0.0
N1161 N 0.06175 0.38158 0.06609 0.0
H1162 H 0.06838 0.33887 0.16827 0.0
H1163 H 0.03338 0.33843 0.13144 0.0
H1164 H 0.05857 0.39172 0.0382 0.0
H1165 H 0.04526 0.34734 0.06752 0.0
H1166 H 0.22762 0.50397 0.1517 0.0
H1167 H 0.20937 0.46327 0.18581 0.0
H1168 H 0.19706 0.54349 0.1277 0.0
H1169 H 0.16909 0.53805 0.08417 0.0
C1170 C 0.19535 0.72253 0.91125 0.0
C1171 C 0.1926 0.70709 0.86648 0.0
C1172 C 0.13333 0.63789 0.88514 0.0
C1173 C 0.13763 0.65241 0.92921 0.0
N1174 N 0.15888 0.71612 0.9846 0.0
N1175 N 0.14277 0.66043 0.81595 0.0
C1176 C 0.16418 0.69717 0.94242 0.0
C1177 C 0.15694 0.66762 0.85487 0.0
N1178 N 0.22852 0.76032 0.92462 0.0
N1179 N 0.10627 0.59554 0.87197 0.0
H1180 H 0.15666 0.68344 0.79453 0.0
H1181 H 0.11366 0.63522 0.8073 0.0
H1182 H 0.08493 0.57447 0.89333 0.0
H1183 H 0.10655 0.58076 0.83985 0.0
H1184 H 0.23613 0.76888 0.95587 0.0
H1185 H 0.2504 0.78214 0.90456 0.0
H1186 H 0.17362 0.75029 0.99576 0.0
H1187 H 0.13523 0.6992 1.00771 0.0
C1188 C 0.4295 0.11047 0.8908 0.0
C1189 C 0.38358 0.08773 0.88324 0.0
C1190 C 0.37858 0.03773 0.93517 0.0
C1191 C 0.42258 0.06414 0.94667 0.0
N1192 N 0.48413 0.13323 0.94127 0.0
N1193 N 0.31241 0.03201 0.90151 0.0
C1194 C 0.44664 0.1024 0.92585 0.0
C1195 C 0.35747 0.05237 0.90672 0.0
N1196 N 0.45726 0.13971 0.86432 0.0
N1197 N 0.35784 0.99688 0.94906 0.0
H1198 H 0.29647 0.03885 0.87874 0.0
H1199 H 0.28982 1.01053 0.9218 0.0
H1200 H 0.37148 0.98381 0.96915 0.0
H1201 H 0.3295 0.97338 0.93693 0.0
H1202 H 0.49289 0.15077 0.8639 0.0
H1203 H 0.44544 0.14982 0.84058 0.0
H1204 H 0.50081 0.1634 0.92916 0.0
H1205 H 0.49538 0.13167 0.96925 0.0
C1206 C 0.8377 0.36271 0.90899 0.0
C1207 C 0.85034 0.36349 0.86409 0.0
C1208 C 0.9255 0.41734 0.881 0.0
C1209 C 0.91455 0.41018 0.92453 0.0
N1210 N 0.86447 0.36319 0.97481 0.0
N1211 N 0.91003 0.39124 0.80745 0.0
C1212 C 0.87203 0.3789 0.93672 0.0
C1213 C 0.8956 0.39043 0.85017 0.0
N1214 N 0.79292 0.34799 0.92652 0.0
N1215 N 0.96288 0.45146 0.86931 0.0
H1216 H 0.88824 0.37646 0.78435 0.0
H1217 H 0.94416 0.40496 0.79488 0.0
H1218 H 0.98484 0.47208 0.89068 0.0
H1219 H 0.96976 0.46192 0.83946 0.0
H1220 H 0.78289 0.35051 0.95949 0.0
H1221 H 0.76533 0.33866 0.90953 0.0
H1222 H 0.83612 0.33673 0.98331 0.0
H1223 H 0.88929 0.37237 0.99524 0.0
C1224 C 0.68083 0.88159 0.8431 0.0
C1225 C 0.68236 0.83927 0.853 0.0
C1226 C 0.62986 0.85639 0.92167 0.0
C1227 C 0.62593 0.8976 0.91058 0.0
N1228 N 0.63815 0.93874 0.85155 0.0
N1229 N 0.64614 0.78202 0.89788 0.0
C1230 C 0.649 0.90708 0.86871 0.0
C1231 C 0.65308 0.82553 0.89107 0.0
N1232 N 0.70977 0.89785 0.80863 0.0
N1233 N 0.61354 0.84699 0.96223 0.0
H1234 H 0.66258 0.75931 0.87706 0.0
H1235 H 0.62143 0.76756 0.92181 0.0
H1236 H 0.59667 0.86735 0.98568 0.0
H1237 H 0.62047 0.82101 0.97376 0.0
H1238 H 0.7148 0.93071 0.80233 0.0
H1239 H 0.73131 0.87958 0.78818 0.0
H1240 H 0.65015 0.94465 0.82016 0.0
H1241 H 0.6123 0.95468 0.86659 0.0
C1242 C 0.91731 0.70847 0.17695 0.0
C1243 C 0.86806 0.69149 0.18831 0.0
C1244 C 0.87543 0.62305 0.13228 0.0
C1245 C 0.92497 0.63638 0.12519 0.0
N1246 N 0.99235 0.6926 0.1473 0.0
N1247 N 0.80409 0.62389 0.18005 0.0
C1248 C 0.94557 0.67963 0.14914 0.0
C1249 C 0.8487 0.64614 0.1673 0.0
N1250 N 0.93787 0.7523 0.19334 0.0
N1251 N 0.85265 0.58967 0.10331 0.0
H1252 H 0.7814 0.63874 0.20253 0.0
H1253 H 0.7905 0.58914 0.17005 0.0
H1254 H 0.86957 0.57495 0.07519 0.0
H1255 H 0.81702 0.58132 0.10405 0.0
H1256 H 0.97171 0.76909 0.18267 0.0
H1257 H 0.92023 0.77283 0.21597 0.0
H1258 H 1.0098 0.72063 0.16711 0.0
H1259 H 1.01347 0.673 0.12828 0.0
C1260 C 0.37087 0.81086 0.13578 0.0
C1261 C 0.36233 0.83286 0.1787 0.0
C1262 C 0.4177 0.90326 0.15826 0.0
C1263 C 0.42055 0.88365 0.11416 0.0
N1264 N 0.40192 0.81713 0.06092 0.0
N1265 N 0.37396 0.90252 0.22939 0.0
C1266 C 0.39796 0.83676 0.10293 0.0
C1267 C 0.38503 0.87969 0.18957 0.0
N1268 N 0.3537 0.76481 0.12667 0.0
N1269 N 0.44725 0.94453 0.17029 0.0
H1270 H 0.35066 0.88647 0.25324 0.0
H1271 H 0.3851 0.93782 0.2377 0.0
H1272 H 0.47237 0.96193 0.14827 0.0
H1273 H 0.45027 0.95887 0.20212 0.0
H1274 H 0.35927 0.74586 0.09678 0.0
H1275 H 0.33637 0.74472 0.15004 0.0
H1276 H 0.3817 0.78537 0.04915 0.0
H1277 H 0.42545 0.83329 0.03733 0.0
C1278 C 0.65489 0.20245 0.16408 0.0
C1279 C 0.69897 0.1958 0.16731 0.0
C1280 C 0.68156 0.12707 0.11228 0.0
C1281 C 0.63898 0.13387 0.10727 0.0
N1282 N 0.5948 0.18907 0.11953 0.0
N1283 N 0.75949 0.167 0.12174 0.0
C1284 C 0.62806 0.17446 0.13102 0.0
C1285 C 0.71373 0.16226 0.13507 0.0
N1286 N 0.6382 0.23595 0.1909 0.0
N1287 N 0.69214 0.08676 0.09543 0.0
H1288 H 0.78406 0.19518 0.13395 0.0
H1289 H 0.77192 0.1465 0.09478 0.0
H1290 H 0.66876 0.05882 0.08128 0.0
H1291 H 0.722 0.07994 0.10029 0.0
H1292 H 0.60365 0.23617 0.19491 0.0
H1293 H 0.65785 0.26346 0.20917 0.0
H1294 H 0.58884 0.22098 0.13175 0.0
H1295 H 0.57667 0.17164 0.09425 0.0
C1296 C 0.64093 0.65475 0.85086 0.0
C1297 C 0.68532 0.65536 0.82644 0.0
C1298 C 0.68271 0.58481 0.85285 0.0
C1299 C 0.64198 0.58828 0.88161 0.0
N1300 N 0.58601 0.63104 0.91217 0.0
N1301 N 0.73659 0.60934 0.79078 0.0
C1302 C 0.62184 0.6241 0.88129 0.0
C1303 C 0.70296 0.61706 0.82382 0.0
N1304 N 0.61514 0.68105 0.84373 0.0
N1305 N 0.70322 0.5517 0.85446 0.0
H1306 H 0.74888 0.62974 0.7668 0.0
H1307 H 0.74781 0.5798 0.78379 0.0
H1308 H 0.68833 0.52629 0.87356 0.0
H1309 H 0.73621 0.55121 0.83898 0.0
H1310 H 0.58068 0.67746 0.85704 0.0
H1311 H 0.62537 0.70271 0.82107 0.0
H1312 H 0.57409 0.66023 0.91769 0.0
H1313 H 0.5707 0.60946 0.93473 0.0
C1314 C 0.44449 0.58952 0.85705 0.0
C1315 C 0.39714 0.58836 0.86732 0.0
C1316 C 0.39492 0.56597 0.93648 0.0
C1317 C 0.44053 0.55981 0.92354 0.0
N1318 N 0.50539 0.55923 0.86681 0.0
N1319 N 0.32688 0.57743 0.91671 0.0
C1320 C 0.46501 0.57094 0.883 0.0
C1321 C 0.37259 0.57798 0.90742 0.0
N1322 N 0.46954 0.60729 0.82167 0.0
N1323 N 0.37238 0.55975 0.97656 0.0
H1324 H 0.31065 0.5896 0.89768 0.0
H1325 H 0.30432 0.5632 0.94188 0.0
H1326 H 0.38575 0.54886 0.99846 0.0
H1327 H 0.34158 0.56821 0.98963 0.0
H1328 H 0.50529 0.61361 0.8147 0.0
H1329 H 0.45497 0.62004 0.80171 0.0
H1330 H 0.52199 0.56203 0.8357 0.0
H1331 H 0.52018 0.54214 0.88241 0.0
C1332 C 0.38885 0.30288 0.86302 0.0
C1333 C 0.38194 0.31962 0.82732 0.0
C1334 C 0.4274 0.39567 0.8538 0.0
C1335 C 0.43053 0.38116 0.89203 0.0
N1336 N 0.42803 0.31767 0.92557 0.0
N1337 N 0.42381 0.37058 0.77843 0.0
C1338 C 0.41507 0.33364 0.89462 0.0
C1339 C 0.41004 0.3627 0.81949 0.0
N1340 N 0.37246 0.25766 0.86596 0.0
N1341 N 0.43821 0.44081 0.85039 0.0
H1342 H 0.41527 0.34459 0.75278 0.0
H1343 H 0.44878 0.39985 0.7706 0.0
H1344 H 0.4471 0.467 0.87553 0.0
H1345 H 0.43321 0.4519 0.82366 0.0
H1346 H 0.3681 0.24461 0.89421 0.0
H1347 H 0.36643 0.2329 0.83909 0.0
H1348 H 0.42147 0.28325 0.9275 0.0
H1349 H 0.44936 0.33885 0.94728 0.0
C1350 C 0.64301 0.33793 0.96641 0.0
C1351 C 0.60097 0.30492 0.96352 0.0
C1352 C 0.5622 0.36427 0.98931 0.0
C1353 C 0.60263 0.3961 0.97052 0.0
N1354 N 0.68613 0.41073 0.94697 0.0
N1355 N 0.53323 0.29027 1.01417 0.0
C1356 C 0.64501 0.38279 0.96137 0.0
C1357 C 0.56461 0.31939 0.98974 0.0
N1358 N 0.67941 0.32636 0.97469 0.0
N1359 N 0.52185 0.37544 1.00597 0.0
H1360 H 0.53632 0.25734 1.01299 0.0
H1361 H 0.50715 0.29981 0.03695 0.0
H1362 H 0.51877 0.40843 1.01361 0.0
H1363 H 0.49098 0.35108 1.01292 0.0
H1364 H 0.70919 0.35082 0.98268 0.0
H1365 H 0.67612 0.2931 0.97894 0.0
H1366 H 0.71692 0.40161 0.94332 0.0
H1367 H 0.68978 0.44135 0.93671 0.0
C1368 C 0.67306 0.41758 0.11495 0.0
C1369 C 0.6604 0.42882 0.15941 0.0
C1370 C 0.59673 0.45478 0.14524 0.0
C1371 C 0.61584 0.45264 0.10097 0.0
N1372 N 0.67864 0.43826 0.04606 0.0
N1373 N 0.61044 0.45896 0.21804 0.0
C1374 C 0.65537 0.4351 0.08636 0.0
C1375 C 0.62162 0.44676 0.17493 0.0
N1376 N 0.70337 0.39125 0.1001 0.0
N1377 N 0.55599 0.46623 0.15947 0.0
H1378 H 0.627 0.45223 0.24043 0.0
H1379 H 0.58665 0.47785 0.23151 0.0
H1380 H 0.53823 0.47556 0.13994 0.0
H1381 H 0.53803 0.4633 0.19014 0.0
H1382 H 0.71084 0.37843 0.06778 0.0
H1383 H 0.71699 0.37831 0.1207 0.0
H1384 H 0.71061 0.43117 0.03582 0.0
H1385 H 0.66836 0.45198 0.02404 0.0
C1386 C 0.71971 0.66345 0.14554 0.0
C1387 C 0.69922 0.68443 0.18459 0.0
C1388 C 0.62299 0.65111 0.15967 0.0
C1389 C 0.64316 0.6256 0.12294 0.0
N1390 N 0.71132 0.60004 0.0882 0.0
N1391 N 0.62986 0.6934 0.23148 0.0
C1392 C 0.69167 0.62983 0.11784 0.0
C1393 C 0.65034 0.67669 0.19246 0.0
N1394 N 0.76637 0.67582 0.13424 0.0
N1395 N 0.57845 0.65286 0.16241 0.0
H1396 H 0.64884 0.7121 0.25578 0.0
H1397 H 0.59432 0.68519 0.24099 0.0
H1398 H 0.55797 0.63605 0.13861 0.0
H1399 H 0.56327 0.67448 0.18617 0.0
H1400 H 0.78286 0.66627 0.10369 0.0
H1401 H 0.7883 0.69836 0.15451 0.0
H1402 H 0.74503 0.59839 0.08717 0.0
H1403 H 0.69336 0.57359 0.06763 0.0
C1404 C 0.40383 0.66219 0.05261 0.0
C1405 C 0.44138 0.6996 0.06128 0.0
C1406 C 0.49063 0.64818 0.03785 0.0
C1407 C 0.45174 0.61186 0.05168 0.0
N1408 N 0.36802 0.58994 0.07551 0.0
N1409 N 0.51718 0.72814 0.0267 0.0
C1410 C 0.40679 0.61949 0.05861 0.0
C1411 C 0.48429 0.69273 0.0422 0.0
N1412 N 0.3651 0.6683 0.04287 0.0
N1413 N 0.53266 0.64068 1.02065 0.0
H1414 H 0.50991 0.75926 0.02781 0.0
H1415 H 0.54926 0.72591 1.00986 0.0
H1416 H 0.53761 0.60855 1.00861 0.0
H1417 H 0.56281 0.66661 1.01649 0.0
H1418 H 0.33653 0.64115 0.03641 0.0
H1419 H 0.3648 0.69974 0.03627 0.0
H1420 H 0.33606 0.59744 0.08232 0.0
H1421 H 0.3681 0.56168 0.08803 0.0
C1422 C 0.39235 0.34806 0.15601 0.0
C1423 C 0.36169 0.36129 0.19246 0.0
C1424 C 0.38477 0.43922 0.17365 0.0
C1425 C 0.41696 0.42601 0.13892 0.0
N1426 N 0.46093 0.37229 0.10565 0.0
N1427 N 0.33338 0.422 0.23919 0.0
C1428 C 0.42366 0.38179 0.13292 0.0
C1429 C 0.35977 0.40784 0.20251 0.0
N1430 N 0.39084 0.30312 0.14217 0.0
N1431 N 0.37665 0.48106 0.17794 0.0
H1432 H 0.312 0.39981 0.25941 0.0
H1433 H 0.33457 0.45613 0.25089 0.0
H1434 H 0.3955 0.50507 0.15831 0.0
H1435 H 0.3498 0.49105 0.19918 0.0
H1436 H 0.4087 0.29137 0.11312 0.0
H1437 H 0.3688 0.2771 0.15769 0.0
H1438 H 0.47056 0.34219 0.1031 0.0
H1439 H 0.48522 0.39689 0.08957 0.0
C1440 C 0.87635 0.65586 0.70427 0.0
C1441 C 0.85534 0.68218 0.68639 0.0
C1442 C 0.89691 0.65338 0.61452 0.0
C1443 C 0.92278 0.63295 0.63352 0.0
N1444 N 0.94099 0.62344 0.69997 0.0
N1445 N 0.85371 0.70979 0.62215 0.0
C1446 C 0.91337 0.63688 0.6794 0.0
C1447 C 0.86777 0.68159 0.64077 0.0
N1448 N 0.85951 0.64677 0.74491 0.0
N1449 N 0.8983 0.64435 0.57112 0.0
H1450 H 0.8359 0.73272 0.64007 0.0
H1451 H 0.86454 0.71444 0.59033 0.0
H1452 H 0.91809 0.6238 0.55145 0.0
H1453 H 0.87659 0.65342 0.55521 0.0
H1454 H 0.86903 0.62366 0.75832 0.0
H1455 H 0.8321 0.65822 0.76364 0.0
H1456 H 0.93711 0.62544 0.73298 0.0
H1457 H 0.97096 0.6144 0.68432 0.0
C1458 C 0.34744 0.8791 0.66405 0.0
C1459 C 0.3624 0.85679 0.69115 0.0
C1460 C 0.44209 0.88606 0.65738 0.0
C1461 C 0.4283 0.91362 0.63517 0.0
N1462 N 0.36682 0.94185 0.62355 0.0
N1463 N 0.42704 0.85482 0.72264 0.0
C1464 C 0.3806 0.91178 0.6403 0.0
C1465 C 0.4106 0.86455 0.69028 0.0
N1466 N 0.30198 0.86795 0.65934 0.0
N1467 N 0.48473 0.8785 0.64605 0.0
H1468 H 0.40553 0.84348 0.74965 0.0
H1469 H 0.46216 0.86384 0.72498 0.0
H1470 H 0.50758 0.89126 0.62028 0.0
H1471 H 0.4943 0.85479 0.65868 0.0
H1472 H 0.29021 0.87954 0.63658 0.0
H1473 H 0.27679 0.8435 0.6748 0.0
H1474 H 0.33318 0.94522 0.63008 0.0
H1475 H 0.38986 0.96624 0.60635 0.0
C1476 C 0.17299 0.45361 0.62447 0.0
C1477 C 0.15119 0.42597 0.65661 0.0
C1478 C 0.07638 0.41571 0.63454 0.0
C1479 C 0.09672 0.44957 0.60773 0.0
N1480 N 0.16499 0.50157 0.57705 0.0
N1481 N 0.08184 0.38253 0.69439 0.0
C1482 C 0.1454 0.46814 0.60189 0.0
C1483 C 0.10283 0.40724 0.66201 0.0
N1484 N 0.22003 0.46593 0.61566 0.0
N1485 N 0.03194 0.39044 0.63259 0.0
H1486 H 0.10003 0.37404 0.71434 0.0
H1487 H 0.04625 0.37318 0.7034 0.0
H1488 H 1.01234 0.39462 0.6115 0.0
H1489 H 1.01645 0.36218 0.648 0.0
H1490 H 0.23818 0.48204 0.58979 0.0
H1491 H 0.24101 0.4567 0.63235 0.0
H1492 H 0.19935 0.52028 0.57561 0.0
H1493 H 0.14621 0.51322 0.5601 0.0
C1494 C 0.66978 0.14261 0.69271 0.0
C1495 C 0.69722 0.18715 0.68652 0.0
C1496 C 0.65017 0.18422 0.63155 0.0
C1497 C 0.6269 0.13736 0.63368 0.0
N1498 N 0.62955 0.06948 0.65743 0.0
N1499 N 0.72143 0.24326 0.63935 0.0
C1500 C 0.64097 0.11577 0.66177 0.0
C1501 C 0.68992 0.20565 0.65248 0.0
N1502 N 0.66897 0.12632 0.729 0.0
N1503 N 0.6331 0.20951 0.61186 0.0
H1504 H 0.7515 0.25879 0.65311 0.0
H1505 H 0.71963 0.25596 0.61236 0.0
H1506 H 0.60166 0.19711 0.60007 0.0
H1507 H 0.64718 0.24451 0.61246 0.0
H1508 H 0.64657 0.09553 0.73639 0.0
H1509 H 0.68668 0.1461 0.75366 0.0
H1510 H 0.64184 0.05216 0.67523 0.0
H1511 H 0.61379 0.04909 0.63181 0.0
C1512 C 0.86514 0.34081 0.38997 0.0
C1513 C 0.87283 0.34465 0.34556 0.0
C1514 C 0.93764 0.41228 0.3617 0.0
C1515 C 0.9353 0.40363 0.40441 0.0
N1516 N 0.89886 0.3511 0.45474 0.0
N1517 N 0.92357 0.38121 0.2886 0.0
C1518 C 0.89955 0.36547 0.4173 0.0
C1519 C 0.91125 0.37949 0.3314 0.0
N1520 N 0.8235 0.31601 0.40713 0.0
N1521 N 0.9627 0.4534 0.3503 0.0
H1522 H 0.90572 0.35803 0.26539 0.0
H1523 H 0.9542 0.40267 0.27602 0.0
H1524 H 0.97889 0.48037 0.3717 0.0
H1525 H 0.9618 0.46302 0.3214 0.0
H1526 H 0.81415 0.31505 0.43985 0.0
H1527 H 0.79637 0.30194 0.3893 0.0
H1528 H 0.87609 0.32107 0.46347 0.0
H1529 H 0.9239 0.36617 0.47475 0.0
C1530 C 0.70337 0.88278 0.3796 0.0
C1531 C 0.68946 0.84192 0.34975 0.0
C1532 C 0.60788 0.84814 0.37486 0.0
C1533 C 0.62218 0.89119 0.40179 0.0
N1534 N 0.68747 0.95284 0.42151 0.0
N1535 N 0.62753 0.79498 0.31185 0.0
C1536 C 0.67107 0.90945 0.40132 0.0
C1537 C 0.64132 0.82701 0.3459 0.0
N1538 N 0.74719 0.89537 0.3895 0.0
N1539 N 0.56191 0.82735 0.3757 0.0
H1540 H 0.65107 0.7831 0.28769 0.0
H1541 H 0.59409 0.78515 0.30436 0.0
H1542 H 0.53625 0.84258 0.39271 0.0
H1543 H 0.54932 0.79369 0.36155 0.0
H1544 H 0.75812 0.92136 0.41432 0.0
H1545 H 0.77127 0.87674 0.37632 0.0
H1546 H 0.72228 0.97032 0.41781 0.0
H1547 H 0.66618 0.97273 0.43949 0.0
C1548 C 0.20595 0.7004 0.4013 0.0
C1549 C 0.18958 0.70393 0.36399 0.0
C1550 C 0.11176 0.66014 0.39295 0.0
C1551 C 0.12936 0.65216 0.42757 0.0
N1552 N 0.19491 0.66125 0.46226 0.0
N1553 N 0.12686 0.68324 0.32286 0.0
C1554 C 0.17697 0.67148 0.43103 0.0
C1555 C 0.14239 0.68268 0.35956 0.0
N1556 N 0.24832 0.72689 0.4098 0.0
N1557 N 0.06531 0.64586 0.39209 0.0
H1558 H 0.14711 0.70184 0.29942 0.0
H1559 H 0.09506 0.66363 0.31446 0.0
H1560 H 0.04233 0.63156 0.41701 0.0
H1561 H 0.04896 0.65137 0.36901 0.0
H1562 H 0.26021 0.73039 0.43878 0.0
H1563 H 0.27008 0.7483 0.38905 0.0
H1564 H 0.23015 0.66938 0.46353 0.0
H1565 H 0.17434 0.64248 0.48572 0.0
C1566 C 0.40783 0.14823 0.45255 0.0
C1567 C 0.4301 0.17226 0.41802 0.0
C1568 C 0.48329 0.12342 0.39571 0.0
C1569 C 0.46539 0.10441 0.43375 0.0
N1570 N 0.40097 0.08391 0.48784 0.0
N1571 N 0.47788 0.17285 0.34878 0.0
C1572 C 0.42395 0.11173 0.45842 0.0
C1573 C 0.46385 0.15626 0.38667 0.0
N1574 N 0.37259 0.16143 0.4804 0.0
N1575 N 0.52095 0.11273 0.3701 0.0
H1576 H 0.46822 0.20002 0.34231 0.0
H1577 H 0.49695 0.15771 0.32252 0.0
H1578 H 0.53352 0.08638 0.37416 0.0
H1579 H 0.53995 0.12994 0.3452 0.0
H1580 H 0.3584 0.14879 0.50896 0.0
H1581 H 0.35842 0.18645 0.47552 0.0
H1582 H 0.36859 0.08469 0.50488 0.0
H1583 H 0.41292 0.05696 0.49191 0.0
C1584 C 0.66598 0.90646 0.57883 0.0
C1585 C 0.64226 0.88614 0.61538 0.0
C1586 C 0.59591 0.94163 0.63263 0.0
C1587 C 0.61029 0.95218 0.59063 0.0
N1588 N 0.66375 0.95109 0.52581 0.0
N1589 N 0.58465 0.88563 0.67871 0.0
C1590 C 0.64773 0.9374 0.5648 0.0
C1591 C 0.60824 0.90503 0.64363 0.0
N1592 N 0.70535 0.89542 0.55747 0.0
N1593 N 0.56816 0.96484 0.66095 0.0
H1594 H 0.58985 0.85688 0.68671 0.0
H1595 H 0.55724 0.89591 0.69866 0.0
H1596 H 0.55747 0.99038 0.65258 0.0
H1597 H 0.55948 0.9619 0.6933 0.0
H1598 H 0.72604 0.91096 0.53214 0.0
H1599 H 0.71944 0.87329 0.56779 0.0
H1600 H 0.68738 0.93774 0.50289 0.0
H1601 H 0.65196 0.97549 0.51642 0.0
C1602 C 0.7207 0.1874 0.38679 0.0
C1603 C 0.70687 0.18042 0.34571 0.0
C1604 C 0.64656 0.11189 0.36598 0.0
C1605 C 0.65501 0.12458 0.40943 0.0
N1606 N 0.70046 0.17664 0.46118 0.0
N1607 N 0.65364 0.13503 0.29702 0.0
C1608 C 0.69194 0.16324 0.41979 0.0
C1609 C 0.66935 0.14202 0.33537 0.0
N1610 N 0.76362 0.21389 0.39318 0.0
N1611 N 0.61685 0.0709 0.35344 0.0
H1612 H 0.66929 0.15464 0.27298 0.0
H1613 H 0.6226 0.11195 0.29022 0.0
H1614 H 0.59731 0.04875 0.37441 0.0
H1615 H 0.61407 0.05709 0.32146 0.0
H1616 H 0.77774 0.21719 0.42093 0.0
H1617 H 0.78732 0.22723 0.36827 0.0
H1618 H 0.7228 0.20782 0.47156 0.0
H1619 H 0.68365 0.15757 0.48555 0.0
C1620 C 0.91259 0.62517 0.41691 0.0
C1621 C 0.88392 0.5905 0.39039 0.0
C1622 C 0.90527 0.53215 0.41767 0.0
C1623 C 0.94026 0.56648 0.43699 0.0
N1624 N 0.96267 0.64422 0.47151 0.0
N1625 N 0.84948 0.51051 0.36811 0.0
C1626 C 0.93942 0.61266 0.4418 0.0
C1627 C 0.87887 0.54377 0.39194 0.0
N1628 N 0.91686 0.67008 0.41596 0.0
N1629 N 0.89462 0.48925 0.42736 0.0
H1630 H 0.82667 0.51762 0.3519 0.0
H1631 H 0.84904 0.47615 0.36299 0.0
H1632 H 0.90954 0.48218 0.45071 0.0
H1633 H 0.86776 0.46256 0.41654 0.0
H1634 H 0.93957 0.69703 0.43221 0.0
H1635 H 0.89892 0.68079 0.39743 0.0
H1636 H 0.95538 0.67559 0.48306 0.0
H1637 H 0.98442 0.63682 0.48866 0.0
C1638 C 0.40439 0.86723 0.33468 0.0
C1639 C 0.35605 0.85251 0.35029 0.0
C1640 C 0.37442 0.89593 0.42166 0.0
C1641 C 0.42252 0.90453 0.40676 0.0
N1642 N 0.48263 0.88827 0.35041 0.0
N1643 N 0.29763 0.84799 0.41317 0.0
C1644 C 0.43719 0.8874 0.36369 0.0
C1645 C 0.34167 0.86592 0.39499 0.0
N1646 N 0.41975 0.86372 0.29177 0.0
N1647 N 0.35977 0.91705 0.46126 0.0
H1648 H 0.27245 0.82541 0.39621 0.0
H1649 H 0.28719 0.85214 0.44615 0.0
H1650 H 0.38262 0.93874 0.48145 0.0
H1651 H 0.32532 0.91645 0.47226 0.0
H1652 H 0.4535 0.87876 0.27909 0.0
H1653 H 0.39827 0.85071 0.26863 0.0
H1654 H 0.49426 0.87085 0.32103 0.0
H1655 H 0.50814 0.90227 0.37015 0.0
C1656 C 0.13709 0.32182 0.37089 0.0
C1657 C 0.18441 0.34226 0.35531 0.0
C1658 C 0.17304 0.41431 0.40291 0.0
C1659 C 0.12416 0.39631 0.41217 0.0
N1660 N 0.05974 0.33178 0.39674 0.0
N1661 N 0.24247 0.41412 0.3518 0.0
C1662 C 0.10631 0.34964 0.39395 0.0
C1663 C 0.20095 0.39014 0.37032 0.0
N1664 N 0.12148 0.27542 0.36576 0.0
N1665 N 0.1937 0.45456 0.42623 0.0
H1666 H 0.26251 0.39981 0.32586 0.0
H1667 H 0.25416 0.44954 0.35859 0.0
H1668 H 0.17542 0.4721 0.45143 0.0
H1669 H 0.22941 0.46731 0.42405 0.0
H1670 H 0.08895 0.25859 0.37965 0.0
H1671 H 0.14285 0.25392 0.35243 0.0
H1672 H 0.04472 0.29993 0.3802 0.0
H1673 H 0.03624 0.35037 0.41225 0.0
C1674 C 0.40834 0.18246 0.69544 0.0
C1675 C 0.36422 0.17832 0.68406 0.0
C1676 C 0.38096 0.11651 0.6237 0.0
C1677 C 0.42686 0.1238 0.63241 0.0
N1678 N 0.48454 0.16761 0.67678 0.0
N1679 N 0.3134 0.14551 0.63121 0.0
C1680 C 0.4404 0.15803 0.66833 0.0
C1681 C 0.35196 0.14615 0.64664 0.0
N1682 N 0.41936 0.20888 0.73332 0.0
N1683 N 0.36445 0.08077 0.59337 0.0
H1684 H 0.29242 0.1668 0.64634 0.0
H1685 H 0.30468 0.12743 0.60168 0.0
H1686 H 0.3844 0.05953 0.57529 0.0
H1687 H 0.33 0.06988 0.58863 0.0
H1688 H 0.44776 0.20946 0.74687 0.0
H1689 H 0.39798 0.2278 0.75301 0.0
H1690 H 0.49921 0.1957 0.69818 0.0
H1691 H 0.5075 0.14857 0.66073 0.0
C1692 C 0.85407 0.37805 0.67956 0.0
C1693 C 0.85386 0.33286 0.68078 0.0
C1694 C 0.91053 0.33729 0.61351 0.0
C1695 C 0.90546 0.3812 0.61119 0.0
N1696 N 0.85143 0.42788 0.63272 0.0
N1697 N 0.87483 0.26529 0.64083 0.0
C1698 C 0.86964 0.39576 0.64079 0.0
C1699 C 0.88021 0.31107 0.64537 0.0
N1700 N 0.84395 0.40615 0.71623 0.0
N1701 N 0.94352 0.32026 0.58604 0.0
H1702 H 0.85064 0.24527 0.66136 0.0
H1703 H 0.8903 0.24682 0.61425 0.0
H1704 H 0.96319 0.33582 0.56038 0.0
H1705 H 0.95227 0.29142 0.5899 0.0
H1706 H 0.84805 0.44084 0.71664 0.0
H1707 H 0.83761 0.39592 0.74618 0.0
H1708 H 0.82536 0.43929 0.65397 0.0
H1709 H 0.85944 0.43917 0.60309 0.0
C1710 C 0.16477 0.64316 0.69035 0.0
C1711 C 0.18444 0.69113 0.68826 0.0
C1712 C 0.13584 0.6803 0.6303 0.0
C1713 C 0.11848 0.63252 0.63133 0.0
N1714 N 0.12706 0.56802 0.65595 0.0
N1715 N 0.19713 0.74949 0.6445 0.0
C1716 C 0.13613 0.61423 0.65958 0.0
C1717 C 0.17209 0.708 0.65499 0.0
N1718 N 0.17138 0.62404 0.72247 0.0
N1719 N 0.11696 0.69991 0.60651 0.0
H1720 H 0.22631 0.76867 0.65816 0.0
H1721 H 0.19281 0.76205 0.6184 0.0
H1722 H 0.09151 0.68105 0.58775 0.0
H1723 H 0.12388 0.7351 0.60813 0.0
H1724 H 0.151 0.59249 0.72985 0.0
H1725 H 0.19408 0.63948 0.74429 0.0
H1726 H 0.14379 0.55168 0.6706 0.0
H1727 H 0.10662 0.54603 0.63426 0.0
loop_
_geom_bond_atom_site_label_1
_geom_bond_atom_site_label_2
_geom_bond_distance
_geom_bond_site_symmetry_2
_ccdc_geom_bond_type
Tb0 N29 2.617 . S
Tb0 N35 2.572 . S
Tb0 O44 2.465 . S
Tb0 O45 2.387 . S
Tb0 O47 2.428 . S
Tb0 O48 2.308 . S
Tb0 O52 2.349 . S
Tb0 O55 2.393 . S
Tb0 C64 2.802 . S
C1 N2 1.379 . S
C1 C4 1.416 . S
C1 C8 1.424 . S
N2 C1 1.379 . S
N2 C5 1.334 . S
N2 Tb11 2.617 . S
C3 C5 1.390 . S
C3 C6 1.339 . S
C3 H23 0.930 . S
C4 C1 1.416 . S
C4 C6 1.416 . S
C4 C10 1.448 . S
C5 N2 1.334 . S
C5 C3 1.390 . S
C5 H16 0.930 . S
C6 C3 1.339 . S
C6 C4 1.416 . S
C6 H27 0.930 . S
C7 C8 1.413 . S
C7 C9 1.427 . S
C7 C13 1.416 . S
C8 C1 1.424 . S
C8 C7 1.413 . S
C8 N12 1.361 . S
C9 C7 1.427 . S
C9 C10 1.328 . S
C9 H24 0.929 . S
C10 C4 1.448 . S
C10 C9 1.328 . S
C10 H25 0.930 . S
Tb11 N2 2.617 . S
Tb11 N12 2.572 . S
Tb11 O46 2.349 . S
Tb11 O49 2.393 . S
Tb11 O50 2.465 . S
Tb11 O51 2.387 . S
Tb11 O53 2.428 . S
Tb11 O54 2.308 . S
Tb11 C75 2.802 . S
N12 C8 1.361 . S
N12 Tb11 2.572 . S
N12 C14 1.340 . S
C13 C7 1.416 . S
C13 C15 1.332 . S
C13 H21 0.931 . S
C14 N12 1.340 . S
C14 C15 1.407 . S
C14 H20 0.930 . S
C15 C13 1.332 . S
C15 C14 1.407 . S
C15 H17 0.929 . S
H16 C5 0.930 . S
H17 C15 0.929 . S
H18 C33 0.930 . S
H19 C40 0.929 . S
H20 C14 0.930 . S
H21 C13 0.931 . S
H22 C36 0.930 . S
H23 C3 0.930 . S
H24 C9 0.929 . S
H25 C10 0.930 . S
H26 C31 0.930 . S
H27 C6 0.930 . S
H28 C39 0.931 . S
N29 Tb0 2.617 . S
N29 C30 1.379 . S
N29 C33 1.334 . S
C30 N29 1.379 . S
C30 C32 1.416 . S
C30 C38 1.424 . S
C31 H26 0.930 . S
C31 C33 1.390 . S
C31 C34 1.339 . S
C32 C30 1.416 . S
C32 C34 1.416 . S
C32 C65 1.448 . S
C33 H18 0.930 . S
C33 N29 1.334 . S
C33 C31 1.390 . S
C34 C31 1.339 . S
C34 C32 1.416 . S
C34 H41 0.930 . S
N35 Tb0 2.572 . S
N35 C36 1.340 . S
N35 C38 1.361 . S
C36 H22 0.930 . S
C36 N35 1.340 . S
C36 C40 1.407 . S
C37 C38 1.413 . S
C37 C39 1.416 . S
C37 C66 1.427 . S
C38 C30 1.424 . S
C38 N35 1.361 . S
C38 C37 1.413 . S
C39 H28 0.931 . S
C39 C37 1.416 . S
C39 C40 1.332 . S
C40 H19 0.929 . S
C40 C36 1.407 . S
C40 C39 1.332 . S
H41 C34 0.930 . S
H42 C65 0.930 . S
H43 C66 0.929 . S
O44 Tb0 2.465 . S
O44 C64 1.264 . S
O45 Tb0 2.387 . S
O45 C56 1.264 . S
O46 Tb11 2.349 . S
O46 C56 1.243 . S
O47 Tb0 2.428 . S
O47 C64 1.256 . S
O48 Tb0 2.308 . S
O48 C63 1.266 . S
O49 Tb11 2.393 . S
O49 C63 1.248 . S
O50 Tb11 2.465 . S
O50 C75 1.264 . S
O51 Tb11 2.387 . S
O51 C67 1.264 . S
O52 Tb0 2.349 . S
O52 C67 1.243 . S
O53 Tb11 2.428 . S
O53 C75 1.256 . S
O54 Tb11 2.308 . S
O54 C74 1.266 . S
O55 Tb0 2.393 . S
O55 C74 1.248 . S
C56 O45 1.264 . S
C56 O46 1.243 . S
C57 C60 1.399 . S
C57 C62 1.383 . S
C57 C64 1.496 . S
C58 C59 1.399 . S
C58 C62 1.389 . S
C59 C58 1.399 . S
C59 C61 1.380 . S
C59 H76 0.929 . S
C60 C57 1.399 . S
C60 C61 1.392 . S
C60 H77 0.929 . S
C61 C59 1.380 . S
C61 C60 1.392 . S
C61 H78 0.929 . S
C62 C57 1.383 . S
C62 C58 1.389 . S
C62 H79 0.931 . S
C63 O48 1.266 . S
C63 O49 1.248 . S
C64 Tb0 2.802 . S
C64 O44 1.264 . S
C64 O47 1.256 . S
C64 C57 1.496 . S
C65 C32 1.448 . S
C65 H42 0.930 . S
C65 C66 1.328 . S
C66 C37 1.427 . S
C66 H43 0.929 . S
C66 C65 1.328 . S
C67 O51 1.264 . S
C67 O52 1.243 . S
C68 C71 1.399 . S
C68 C72 1.383 . S
C68 C75 1.496 . S
C69 C70 1.399 . S
C69 C72 1.389 . S
C70 C69 1.399 . S
C70 C73 1.380 . S
C70 H80 0.929 . S
C71 C68 1.399 . S
C71 C73 1.392 . S
C71 H81 0.929 . S
C72 C68 1.383 . S
C72 C69 1.389 . S
C72 H82 0.931 . S
C73 C70 1.380 . S
C73 C71 1.392 . S
C73 H83 0.929 . S
C74 O54 1.266 . S
C74 O55 1.248 . S
C75 Tb11 2.802 . S
C75 O50 1.264 . S
C75 O53 1.256 . S
C75 C68 1.496 . S
H76 C59 0.929 . S
H77 C60 0.929 . S
H78 C61 0.929 . S
H79 C62 0.931 . S
H80 C70 0.929 . S
H81 C71 0.929 . S
H82 C72 0.931 . S
H83 C73 0.929 . S
Tb84 N113 2.617 . S
Tb84 N119 2.572 . S
Tb84 O128 2.465 . S
Tb84 O129 2.387 . S
Tb84 O131 2.428 . S
Tb84 O132 2.308 . S
Tb84 O136 2.349 . S
Tb84 O139 2.393 . S
Tb84 C148 2.802 . S
C85 N86 1.379 . S
C85 C88 1.416 . S
C85 C92 1.424 . S
N86 C85 1.379 . S
N86 C89 1.334 . S
N86 Tb95 2.617 . S
C87 C89 1.390 . S
C87 C90 1.339 . S
C87 H107 0.930 . S
C88 C85 1.416 . S
C88 C90 1.416 . S
C88 C94 1.448 . S
C89 N86 1.334 . S
C89 C87 1.390 . S
C89 H100 0.930 . S
C90 C87 1.339 . S
C90 C88 1.416 . S
C90 H111 0.930 . S
C91 C92 1.413 . S
C91 C93 1.427 . S
C91 C97 1.416 . S
C92 C85 1.424 . S
C92 C91 1.413 . S
C92 N96 1.361 . S
C93 C91 1.427 . S
C93 C94 1.328 . S
C93 H108 0.929 . S
C94 C88 1.448 . S
C94 C93 1.328 . S
C94 H109 0.930 . S
Tb95 N86 2.617 . S
Tb95 N96 2.572 . S
Tb95 O130 2.349 . S
Tb95 O133 2.393 . S
Tb95 O134 2.465 . S
Tb95 O135 2.387 . S
Tb95 O137 2.428 . S
Tb95 O138 2.308 . S
Tb95 C159 2.802 . S
N96 C92 1.361 . S
N96 Tb95 2.572 . S
N96 C98 1.340 . S
C97 C91 1.416 . S
C97 C99 1.332 . S
C97 H105 0.931 . S
C98 N96 1.340 . S
C98 C99 1.407 . S
C98 H104 0.930 . S
C99 C97 1.332 . S
C99 C98 1.407 . S
C99 H101 0.929 . S
H100 C89 0.930 . S
H101 C99 0.929 . S
H102 C117 0.930 . S
H103 C124 0.929 . S
H104 C98 0.930 . S
H105 C97 0.931 . S
H106 C120 0.930 . S
H107 C87 0.930 . S
H108 C93 0.929 . S
H109 C94 0.930 . S
H110 C115 0.930 . S
H111 C90 0.930 . S
H112 C123 0.931 . S
N113 Tb84 2.617 . S
N113 C114 1.379 . S
N113 C117 1.334 . S
C114 N113 1.379 . S
C114 C116 1.416 . S
C114 C122 1.424 . S
C115 H110 0.930 . S
C115 C117 1.390 . S
C115 C118 1.339 . S
C116 C114 1.416 . S
C116 C118 1.416 . S
C116 C149 1.448 . S
C117 H102 0.930 . S
C117 N113 1.334 . S
C117 C115 1.390 . S
C118 C115 1.339 . S
C118 C116 1.416 . S
C118 H125 0.930 . S
N119 Tb84 2.572 . S
N119 C120 1.340 . S
N119 C122 1.361 . S
C120 H106 0.930 . S
C120 N119 1.340 . S
C120 C124 1.407 . S
C121 C122 1.413 . S
C121 C123 1.416 . S
C121 C150 1.427 . S
C122 C114 1.424 . S
C122 N119 1.361 . S
C122 C121 1.413 . S
C123 H112 0.931 . S
C123 C121 1.416 . S
C123 C124 1.332 . S
C124 H103 0.929 . S
C124 C120 1.407 . S
C124 C123 1.332 . S
H125 C118 0.930 . S
H126 C149 0.930 . S
H127 C150 0.929 . S
O128 Tb84 2.465 . S
O128 C148 1.264 . S
O129 Tb84 2.387 . S
O129 C140 1.264 . S
O130 Tb95 2.349 . S
O130 C140 1.243 . S
O131 Tb84 2.428 . S
O131 C148 1.256 . S
O132 Tb84 2.308 . S
O132 C147 1.266 . S
O133 Tb95 2.393 . S
O133 C147 1.248 . S
O134 Tb95 2.465 . S
O134 C159 1.264 . S
O135 Tb95 2.387 . S
O135 C151 1.264 . S
O136 Tb84 2.349 . S
O136 C151 1.243 . S
O137 Tb95 2.428 . S
O137 C159 1.256 . S
O138 Tb95 2.308 . S
O138 C158 1.266 . S
O139 Tb84 2.393 . S
O139 C158 1.248 . S
C140 O129 1.264 . S
C140 O130 1.243 . S
C141 C144 1.399 . S
C141 C146 1.383 . S
C141 C148 1.496 . S
C142 C143 1.399 . S
C142 C146 1.389 . S
C143 C142 1.399 . S
C143 C145 1.380 . S
C143 H160 0.929 . S
C144 C141 1.399 . S
C144 C145 1.392 . S
C144 H161 0.929 . S
C145 C143 1.380 . S
C145 C144 1.392 . S
C145 H162 0.929 . S
C146 C141 1.383 . S
C146 C142 1.389 . S
C146 H163 0.931 . S
C147 O132 1.266 . S
C147 O133 1.248 . S
C148 Tb84 2.802 . S
C148 O128 1.264 . S
C148 O131 1.256 . S
C148 C141 1.496 . S
C149 C116 1.448 . S
C149 H126 0.930 . S
C149 C150 1.328 . S
C150 C121 1.427 . S
C150 H127 0.929 . S
C150 C149 1.328 . S
C151 O135 1.264 . S
C151 O136 1.243 . S
C152 C155 1.399 . S
C152 C156 1.383 . S
C152 C159 1.496 . S
C153 C154 1.399 . S
C153 C156 1.389 . S
C154 C153 1.399 . S
C154 C157 1.380 . S
C154 H164 0.929 . S
C155 C152 1.399 . S
C155 C157 1.392 . S
C155 H165 0.929 . S
C156 C152 1.383 . S
C156 C153 1.389 . S
C156 H166 0.931 . S
C157 C154 1.380 . S
C157 C155 1.392 . S
C157 H167 0.929 . S
C158 O138 1.266 . S
C158 O139 1.248 . S
C159 Tb95 2.802 . S
C159 O134 1.264 . S
C159 O137 1.256 . S
C159 C152 1.496 . S
H160 C143 0.929 . S
H161 C144 0.929 . S
H162 C145 0.929 . S
H163 C146 0.931 . S
H164 C154 0.929 . S
H165 C155 0.929 . S
H166 C156 0.931 . S
H167 C157 0.929 . S
Tb168 N197 2.617 . S
Tb168 N203 2.572 . S
Tb168 O212 2.465 . S
Tb168 O213 2.387 . S
Tb168 O215 2.428 . S
Tb168 O216 2.308 . S
Tb168 O220 2.349 . S
Tb168 O223 2.393 . S
Tb168 C232 2.802 . S
C169 N170 1.379 . S
C169 C172 1.416 . S
C169 C176 1.424 . S
N170 C169 1.379 . S
N170 C173 1.334 . S
N170 Tb179 2.617 . S
C171 C173 1.390 . S
C171 C174 1.339 . S
C171 H191 0.930 . S
C172 C169 1.416 . S
C172 C174 1.416 . S
C172 C178 1.448 . S
C173 N170 1.334 . S
C173 C171 1.390 . S
C173 H184 0.930 . S
C174 C171 1.339 . S
C174 C172 1.416 . S
C174 H195 0.930 . S
C175 C176 1.413 . S
C175 C177 1.427 . S
C175 C181 1.416 . S
C176 C169 1.424 . S
C176 C175 1.413 . S
C176 N180 1.361 . S
C177 C175 1.427 . S
C177 C178 1.328 . S
C177 H192 0.929 . S
C178 C172 1.448 . S
C178 C177 1.328 . S
C178 H193 0.930 . S
Tb179 N170 2.617 . S
Tb179 N180 2.572 . S
Tb179 O214 2.349 . S
Tb179 O217 2.393 . S
Tb179 O218 2.465 . S
Tb179 O219 2.387 . S
Tb179 O221 2.428 . S
Tb179 O222 2.308 . S
Tb179 C243 2.802 . S
N180 C176 1.361 . S
N180 Tb179 2.572 . S
N180 C182 1.340 . S
C181 C175 1.416 . S
C181 C183 1.332 . S
C181 H189 0.931 . S
C182 N180 1.340 . S
C182 C183 1.407 . S
C182 H188 0.930 . S
C183 C181 1.332 . S
C183 C182 1.407 . S
C183 H185 0.929 . S
H184 C173 0.930 . S
H185 C183 0.929 . S
H186 C201 0.930 . S
H187 C208 0.929 . S
H188 C182 0.930 . S
H189 C181 0.931 . S
H190 C204 0.930 . S
H191 C171 0.930 . S
H192 C177 0.929 . S
H193 C178 0.930 . S
H194 C199 0.930 . S
H195 C174 0.930 . S
H196 C207 0.931 . S
N197 Tb168 2.617 . S
N197 C198 1.379 . S
N197 C201 1.334 . S
C198 N197 1.379 . S
C198 C200 1.416 . S
C198 C206 1.424 . S
C199 H194 0.930 . S
C199 C201 1.390 . S
C199 C202 1.339 . S
C200 C198 1.416 . S
C200 C202 1.416 . S
C200 C233 1.448 . S
C201 H186 0.930 . S
C201 N197 1.334 . S
C201 C199 1.390 . S
C202 C199 1.339 . S
C202 C200 1.416 . S
C202 H209 0.930 . S
N203 Tb168 2.572 . S
N203 C204 1.340 . S
N203 C206 1.361 . S
C204 H190 0.930 . S
C204 N203 1.340 . S
C204 C208 1.407 . S
C205 C206 1.413 . S
C205 C207 1.416 . S
C205 C234 1.427 . S
C206 C198 1.424 . S
C206 N203 1.361 . S
C206 C205 1.413 . S
C207 H196 0.931 . S
C207 C205 1.416 . S
C207 C208 1.332 . S
C208 H187 0.929 . S
C208 C204 1.407 . S
C208 C207 1.332 . S
H209 C202 0.930 . S
H210 C233 0.930 . S
H211 C234 0.929 . S
O212 Tb168 2.465 . S
O212 C232 1.264 . S
O213 Tb168 2.387 . S
O213 C224 1.264 . S
O214 Tb179 2.349 . S
O214 C224 1.243 . S
O215 Tb168 2.428 . S
O215 C232 1.256 . S
O216 Tb168 2.308 . S
O216 C231 1.266 . S
O217 Tb179 2.393 . S
O217 C231 1.248 . S
O218 Tb179 2.465 . S
O218 C243 1.264 . S
O219 Tb179 2.387 . S
O219 C235 1.264 . S
O220 Tb168 2.349 . S
O220 C235 1.243 . S
O221 Tb179 2.428 . S
O221 C243 1.256 . S
O222 Tb179 2.308 . S
O222 C242 1.266 . S
O223 Tb168 2.393 . S
O223 C242 1.248 . S
C224 O213 1.264 . S
C224 O214 1.243 . S
C225 C228 1.399 . S
C225 C230 1.383 . S
C225 C232 1.496 . S
C226 C227 1.399 . S
C226 C230 1.389 . S
C227 C226 1.399 . S
C227 C229 1.380 . S
C227 H244 0.929 . S
C228 C225 1.399 . S
C228 C229 1.392 . S
C228 H245 0.929 . S
C229 C227 1.380 . S
C229 C228 1.392 . S
C229 H246 0.929 . S
C230 C225 1.383 . S
C230 C226 1.389 . S
C230 H247 0.931 . S
C231 O216 1.266 . S
C231 O217 1.248 . S
C232 Tb168 2.802 . S
C232 O212 1.264 . S
C232 O215 1.256 . S
C232 C225 1.496 . S
C233 C200 1.448 . S
C233 H210 0.930 . S
C233 C234 1.328 . S
C234 C205 1.427 . S
C234 H211 0.929 . S
C234 C233 1.328 . S
C235 O219 1.264 . S
C235 O220 1.243 . S
C236 C239 1.399 . S
C236 C240 1.383 . S
C236 C243 1.496 . S
C237 C238 1.399 . S
C237 C240 1.389 . S
C238 C237 1.399 . S
C238 C241 1.380 . S
C238 H248 0.929 . S
C239 C236 1.399 . S
C239 C241 1.392 . S
C239 H249 0.929 . S
C240 C236 1.383 . S
C240 C237 1.389 . S
C240 H250 0.931 . S
C241 C238 1.380 . S
C241 C239 1.392 . S
C241 H251 0.929 . S
C242 O222 1.266 . S
C242 O223 1.248 . S
C243 Tb179 2.802 . S
C243 O218 1.264 . S
C243 O221 1.256 . S
C243 C236 1.496 . S
H244 C227 0.929 . S
H245 C228 0.929 . S
H246 C229 0.929 . S
H247 C230 0.931 . S
H248 C238 0.929 . S
H249 C239 0.929 . S
H250 C240 0.931 . S
H251 C241 0.929 . S
Tb252 N281 2.617 . S
Tb252 N287 2.572 . S
Tb252 O296 2.465 . S
Tb252 O297 2.387 . S
Tb252 O299 2.428 . S
Tb252 O300 2.308 . S
Tb252 O304 2.349 . S
Tb252 O307 2.393 . S
Tb252 C316 2.802 . S
C253 N254 1.379 . S
C253 C256 1.416 . S
C253 C260 1.424 . S
N254 C253 1.379 . S
N254 C257 1.334 . S
N254 Tb263 2.617 . S
C255 C257 1.390 . S
C255 C258 1.339 . S
C255 H275 0.930 . S
C256 C253 1.416 . S
C256 C258 1.416 . S
C256 C262 1.448 . S
C257 N254 1.334 . S
C257 C255 1.390 . S
C257 H268 0.930 . S
C258 C255 1.339 . S
C258 C256 1.416 . S
C258 H279 0.930 . S
C259 C260 1.413 . S
C259 C261 1.427 . S
C259 C265 1.416 . S
C260 C253 1.424 . S
C260 C259 1.413 . S
C260 N264 1.361 . S
C261 C259 1.427 . S
C261 C262 1.328 . S
C261 H276 0.929 . S
C262 C256 1.448 . S
C262 C261 1.328 . S
C262 H277 0.930 . S
Tb263 N254 2.617 . S
Tb263 N264 2.572 . S
Tb263 O298 2.349 . S
Tb263 O301 2.393 . S
Tb263 O302 2.465 . S
Tb263 O303 2.387 . S
Tb263 O305 2.428 . S
Tb263 O306 2.308 . S
Tb263 C327 2.802 . S
N264 C260 1.361 . S
N264 Tb263 2.572 . S
N264 C266 1.340 . S
C265 C259 1.416 . S
C265 C267 1.332 . S
C265 H273 0.931 . S
C266 N264 1.340 . S
C266 C267 1.407 . S
C266 H272 0.930 . S
C267 C265 1.332 . S
C267 C266 1.407 . S
C267 H269 0.929 . S
H268 C257 0.930 . S
H269 C267 0.929 . S
H270 C285 0.930 . S
H271 C292 0.929 . S
H272 C266 0.930 . S
H273 C265 0.931 . S
H274 C288 0.930 . S
H275 C255 0.930 . S
H276 C261 0.929 . S
H277 C262 0.930 . S
H278 C283 0.930 . S
H279 C258 0.930 . S
H280 C291 0.931 . S
N281 Tb252 2.617 . S
N281 C282 1.379 . S
N281 C285 1.334 . S
C282 N281 1.379 . S
C282 C284 1.416 . S
C282 C290 1.424 . S
C283 H278 0.930 . S
C283 C285 1.390 . S
C283 C286 1.339 . S
C284 C282 1.416 . S
C284 C286 1.416 . S
C284 C317 1.448 . S
C285 H270 0.930 . S
C285 N281 1.334 . S
C285 C283 1.390 . S
C286 C283 1.339 . S
C286 C284 1.416 . S
C286 H293 0.930 . S
N287 Tb252 2.572 . S
N287 C288 1.340 . S
N287 C290 1.361 . S
C288 H274 0.930 . S
C288 N287 1.340 . S
C288 C292 1.407 . S
C289 C290 1.413 . S
C289 C291 1.416 . S
C289 C318 1.427 . S
C290 C282 1.424 . S
C290 N287 1.361 . S
C290 C289 1.413 . S
C291 H280 0.931 . S
C291 C289 1.416 . S
C291 C292 1.332 . S
C292 H271 0.929 . S
C292 C288 1.407 . S
C292 C291 1.332 . S
H293 C286 0.930 . S
H294 C317 0.930 . S
H295 C318 0.929 . S
O296 Tb252 2.465 . S
O296 C316 1.264 . S
O297 Tb252 2.387 . S
O297 C308 1.264 . S
O298 Tb263 2.349 . S
O298 C308 1.243 . S
O299 Tb252 2.428 . S
O299 C316 1.256 . S
O300 Tb252 2.308 . S
O300 C315 1.266 . S
O301 Tb263 2.393 . S
O301 C315 1.248 . S
O302 Tb263 2.465 . S
O302 C327 1.264 . S
O303 Tb263 2.387 . S
O303 C319 1.264 . S
O304 Tb252 2.349 . S
O304 C319 1.243 . S
O305 Tb263 2.428 . S
O305 C327 1.256 . S
O306 Tb263 2.308 . S
O306 C326 1.266 . S
O307 Tb252 2.393 . S
O307 C326 1.248 . S
C308 O297 1.264 . S
C308 O298 1.243 . S
C309 C312 1.399 . S
C309 C314 1.383 . S
C309 C316 1.496 . S
C310 C311 1.399 . S
C310 C314 1.389 . S
C311 C310 1.399 . S
C311 C313 1.380 . S
C311 H328 0.929 . S
C312 C309 1.399 . S
C312 C313 1.392 . S
C312 H329 0.929 . S
C313 C311 1.380 . S
C313 C312 1.392 . S
C313 H330 0.929 . S
C314 C309 1.383 . S
C314 C310 1.389 . S
C314 H331 0.931 . S
C315 O300 1.266 . S
C315 O301 1.248 . S
C316 Tb252 2.802 . S
C316 O296 1.264 . S
C316 O299 1.256 . S
C316 C309 1.496 . S
C317 C284 1.448 . S
C317 H294 0.930 . S
C317 C318 1.328 . S
C318 C289 1.427 . S
C318 H295 0.929 . S
C318 C317 1.328 . S
C319 O303 1.264 . S
C319 O304 1.243 . S
C320 C323 1.399 . S
C320 C324 1.383 . S
C320 C327 1.496 . S
C321 C322 1.399 . S
C321 C324 1.389 . S
C322 C321 1.399 . S
C322 C325 1.380 . S
C322 H332 0.929 . S
C323 C320 1.399 . S
C323 C325 1.392 . S
C323 H333 0.929 . S
C324 C320 1.383 . S
C324 C321 1.389 . S
C324 H334 0.931 . S
C325 C322 1.380 . S
C325 C323 1.392 . S
C325 H335 0.929 . S
C326 O306 1.266 . S
C326 O307 1.248 . S
C327 Tb263 2.802 . S
C327 O302 1.264 . S
C327 O305 1.256 . S
C327 C320 1.496 . S
H328 C311 0.929 . S
H329 C312 0.929 . S
H330 C313 0.929 . S
H331 C314 0.931 . S
H332 C322 0.929 . S
H333 C323 0.929 . S
H334 C324 0.931 . S
H335 C325 0.929 . S
Tb336 N365 2.617 . S
Tb336 N371 2.572 . S
Tb336 O380 2.465 . S
Tb336 O381 2.387 . S
Tb336 O383 2.428 . S
Tb336 O384 2.308 . S
Tb336 O388 2.349 . S
Tb336 O391 2.393 . S
Tb336 C400 2.802 . S
C337 N338 1.379 . S
C337 C340 1.416 . S
C337 C344 1.424 . S
N338 C337 1.379 . S
N338 C341 1.334 . S
N338 Tb347 2.617 . S
C339 C341 1.390 . S
C339 C342 1.339 . S
C339 H359 0.930 . S
C340 C337 1.416 . S
C340 C342 1.416 . S
C340 C346 1.448 . S
C341 N338 1.334 . S
C341 C339 1.390 . S
C341 H352 0.930 . S
C342 C339 1.339 . S
C342 C340 1.416 . S
C342 H363 0.930 . S
C343 C344 1.413 . S
C343 C345 1.427 . S
C343 C349 1.416 . S
C344 C337 1.424 . S
C344 C343 1.413 . S
C344 N348 1.361 . S
C345 C343 1.427 . S
C345 C346 1.328 . S
C345 H360 0.929 . S
C346 C340 1.448 . S
C346 C345 1.328 . S
C346 H361 0.930 . S
Tb347 N338 2.617 . S
Tb347 N348 2.572 . S
Tb347 O382 2.349 . S
Tb347 O385 2.393 . S
Tb347 O386 2.465 . S
Tb347 O387 2.387 . S
Tb347 O389 2.428 . S
Tb347 O390 2.308 . S
Tb347 C411 2.802 . S
N348 C344 1.361 . S
N348 Tb347 2.572 . S
N348 C350 1.340 . S
C349 C343 1.416 . S
C349 C351 1.332 . S
C349 H357 0.931 . S
C350 N348 1.340 . S
C350 C351 1.407 . S
C350 H356 0.930 . S
C351 C349 1.332 . S
C351 C350 1.407 . S
C351 H353 0.929 . S
H352 C341 0.930 . S
H353 C351 0.929 . S
H354 C369 0.930 . S
H355 C376 0.929 . S
H356 C350 0.930 . S
H357 C349 0.931 . S
H358 C372 0.930 . S
H359 C339 0.930 . S
H360 C345 0.929 . S
H361 C346 0.930 . S
H362 C367 0.930 . S
H363 C342 0.930 . S
H364 C375 0.931 . S
N365 Tb336 2.617 . S
N365 C366 1.379 . S
N365 C369 1.334 . S
C366 N365 1.379 . S
C366 C368 1.416 . S
C366 C374 1.424 . S
C367 H362 0.930 . S
C367 C369 1.390 . S
C367 C370 1.339 . S
C368 C366 1.416 . S
C368 C370 1.416 . S
C368 C401 1.448 . S
C369 H354 0.930 . S
C369 N365 1.334 . S
C369 C367 1.390 . S
C370 C367 1.339 . S
C370 C368 1.416 . S
C370 H377 0.930 . S
N371 Tb336 2.572 . S
N371 C372 1.340 . S
N371 C374 1.361 . S
C372 H358 0.930 . S
C372 N371 1.340 . S
C372 C376 1.407 . S
C373 C374 1.413 . S
C373 C375 1.416 . S
C373 C402 1.427 . S
C374 C366 1.424 . S
C374 N371 1.361 . S
C374 C373 1.413 . S
C375 H364 0.931 . S
C375 C373 1.416 . S
C375 C376 1.332 . S
C376 H355 0.929 . S
C376 C372 1.407 . S
C376 C375 1.332 . S
H377 C370 0.930 . S
H378 C401 0.930 . S
H379 C402 0.929 . S
O380 Tb336 2.465 . S
O380 C400 1.264 . S
O381 Tb336 2.387 . S
O381 C392 1.264 . S
O382 Tb347 2.349 . S
O382 C392 1.243 . S
O383 Tb336 2.428 . S
O383 C400 1.256 . S
O384 Tb336 2.308 . S
O384 C399 1.266 . S
O385 Tb347 2.393 . S
O385 C399 1.248 . S
O386 Tb347 2.465 . S
O386 C411 1.264 . S
O387 Tb347 2.387 . S
O387 C403 1.264 . S
O388 Tb336 2.349 . S
O388 C403 1.243 . S
O389 Tb347 2.428 . S
O389 C411 1.256 . S
O390 Tb347 2.308 . S
O390 C410 1.266 . S
O391 Tb336 2.393 . S
O391 C410 1.248 . S
C392 O381 1.264 . S
C392 O382 1.243 . S
C393 C396 1.399 . S
C393 C398 1.383 . S
C393 C400 1.496 . S
C394 C395 1.399 . S
C394 C398 1.389 . S
C395 C394 1.399 . S
C395 C397 1.380 . S
C395 H412 0.929 . S
C396 C393 1.399 . S
C396 C397 1.392 . S
C396 H413 0.929 . S
C397 C395 1.380 . S
C397 C396 1.392 . S
C397 H414 0.929 . S
C398 C393 1.383 . S
C398 C394 1.389 . S
C398 H415 0.931 . S
C399 O384 1.266 . S
C399 O385 1.248 . S
C400 Tb336 2.802 . S
C400 O380 1.264 . S
C400 O383 1.256 . S
C400 C393 1.496 . S
C401 C368 1.448 . S
C401 H378 0.930 . S
C401 C402 1.328 . S
C402 C373 1.427 . S
C402 H379 0.929 . S
C402 C401 1.328 . S
C403 O387 1.264 . S
C403 O388 1.243 . S
C404 C407 1.399 . S
C404 C408 1.383 . S
C404 C411 1.496 . S
C405 C406 1.399 . S
C405 C408 1.389 . S
C406 C405 1.399 . S
C406 C409 1.380 . S
C406 H416 0.929 . S
C407 C404 1.399 . S
C407 C409 1.392 . S
C407 H417 0.929 . S
C408 C404 1.383 . S
C408 C405 1.389 . S
C408 H418 0.931 . S
C409 C406 1.380 . S
C409 C407 1.392 . S
C409 H419 0.929 . S
C410 O390 1.266 . S
C410 O391 1.248 . S
C411 Tb347 2.802 . S
C411 O386 1.264 . S
C411 O389 1.256 . S
C411 C404 1.496 . S
H412 C395 0.929 . S
H413 C396 0.929 . S
H414 C397 0.929 . S
H415 C398 0.931 . S
H416 C406 0.929 . S
H417 C407 0.929 . S
H418 C408 0.931 . S
H419 C409 0.929 . S
Tb420 N449 2.617 . S
Tb420 N455 2.572 . S
Tb420 O464 2.465 . S
Tb420 O465 2.387 . S
Tb420 O467 2.428 . S
Tb420 O468 2.308 . S
Tb420 O472 2.349 . S
Tb420 O475 2.393 . S
Tb420 C484 2.802 . S
C421 N422 1.379 . S
C421 C424 1.416 . S
C421 C428 1.424 . S
N422 C421 1.379 . S
N422 C425 1.334 . S
N422 Tb431 2.617 . S
C423 C425 1.390 . S
C423 C426 1.339 . S
C423 H443 0.930 . S
C424 C421 1.416 . S
C424 C426 1.416 . S
C424 C430 1.448 . S
C425 N422 1.334 . S
C425 C423 1.390 . S
C425 H436 0.930 . S
C426 C423 1.339 . S
C426 C424 1.416 . S
C426 H447 0.930 . S
C427 C428 1.413 . S
C427 C429 1.427 . S
C427 C433 1.416 . S
C428 C421 1.424 . S
C428 C427 1.413 . S
C428 N432 1.361 . S
C429 C427 1.427 . S
C429 C430 1.328 . S
C429 H444 0.929 . S
C430 C424 1.448 . S
C430 C429 1.328 . S
C430 H445 0.930 . S
Tb431 N422 2.617 . S
Tb431 N432 2.572 . S
Tb431 O466 2.349 . S
Tb431 O469 2.393 . S
Tb431 O470 2.465 . S
Tb431 O471 2.387 . S
Tb431 O473 2.428 . S
Tb431 O474 2.308 . S
Tb431 C495 2.802 . S
N432 C428 1.361 . S
N432 Tb431 2.572 . S
N432 C434 1.340 . S
C433 C427 1.416 . S
C433 C435 1.332 . S
C433 H441 0.931 . S
C434 N432 1.340 . S
C434 C435 1.407 . S
C434 H440 0.930 . S
C435 C433 1.332 . S
C435 C434 1.407 . S
C435 H437 0.929 . S
H436 C425 0.930 . S
H437 C435 0.929 . S
H438 C453 0.930 . S
H439 C460 0.929 . S
H440 C434 0.930 . S
H441 C433 0.931 . S
H442 C456 0.930 . S
H443 C423 0.930 . S
H444 C429 0.929 . S
H445 C430 0.930 . S
H446 C451 0.930 . S
H447 C426 0.930 . S
H448 C459 0.931 . S
N449 Tb420 2.617 . S
N449 C450 1.379 . S
N449 C453 1.334 . S
C450 N449 1.379 . S
C450 C452 1.416 . S
C450 C458 1.424 . S
C451 H446 0.930 . S
C451 C453 1.390 . S
C451 C454 1.339 . S
C452 C450 1.416 . S
C452 C454 1.416 . S
C452 C485 1.448 . S
C453 H438 0.930 . S
C453 N449 1.334 . S
C453 C451 1.390 . S
C454 C451 1.339 . S
C454 C452 1.416 . S
C454 H461 0.930 . S
N455 Tb420 2.572 . S
N455 C456 1.340 . S
N455 C458 1.361 . S
C456 H442 0.930 . S
C456 N455 1.340 . S
C456 C460 1.407 . S
C457 C458 1.413 . S
C457 C459 1.416 . S
C457 C486 1.427 . S
C458 C450 1.424 . S
C458 N455 1.361 . S
C458 C457 1.413 . S
C459 H448 0.931 . S
C459 C457 1.416 . S
C459 C460 1.332 . S
C460 H439 0.929 . S
C460 C456 1.407 . S
C460 C459 1.332 . S
H461 C454 0.930 . S
H462 C485 0.930 . S
H463 C486 0.929 . S
O464 Tb420 2.465 . S
O464 C484 1.264 . S
O465 Tb420 2.387 . S
O465 C476 1.264 . S
O466 Tb431 2.349 . S
O466 C476 1.243 . S
O467 Tb420 2.428 . S
O467 C484 1.256 . S
O468 Tb420 2.308 . S
O468 C483 1.266 . S
O469 Tb431 2.393 . S
O469 C483 1.248 . S
O470 Tb431 2.465 . S
O470 C495 1.264 . S
O471 Tb431 2.387 . S
O471 C487 1.264 . S
O472 Tb420 2.349 . S
O472 C487 1.243 . S
O473 Tb431 2.428 . S
O473 C495 1.256 . S
O474 Tb431 2.308 . S
O474 C494 1.266 . S
O475 Tb420 2.393 . S
O475 C494 1.248 . S
C476 O465 1.264 . S
C476 O466 1.243 . S
C477 C480 1.399 . S
C477 C482 1.383 . S
C477 C484 1.496 . S
C478 C479 1.399 . S
C478 C482 1.389 . S
C479 C478 1.399 . S
C479 C481 1.380 . S
C479 H496 0.929 . S
C480 C477 1.399 . S
C480 C481 1.392 . S
C480 H497 0.929 . S
C481 C479 1.380 . S
C481 C480 1.392 . S
C481 H498 0.929 . S
C482 C477 1.383 . S
C482 C478 1.389 . S
C482 H499 0.931 . S
C483 O468 1.266 . S
C483 O469 1.248 . S
C484 Tb420 2.802 . S
C484 O464 1.264 . S
C484 O467 1.256 . S
C484 C477 1.496 . S
C485 C452 1.448 . S
C485 H462 0.930 . S
C485 C486 1.328 . S
C486 C457 1.427 . S
C486 H463 0.929 . S
C486 C485 1.328 . S
C487 O471 1.264 . S
C487 O472 1.243 . S
C488 C491 1.399 . S
C488 C492 1.383 . S
C488 C495 1.496 . S
C489 C490 1.399 . S
C489 C492 1.389 . S
C490 C489 1.399 . S
C490 C493 1.380 . S
C490 H500 0.929 . S
C491 C488 1.399 . S
C491 C493 1.392 . S
C491 H501 0.929 . S
C492 C488 1.383 . S
C492 C489 1.389 . S
C492 H502 0.931 . S
C493 C490 1.380 . S
C493 C491 1.392 . S
C493 H503 0.929 . S
C494 O474 1.266 . S
C494 O475 1.248 . S
C495 Tb431 2.802 . S
C495 O470 1.264 . S
C495 O473 1.256 . S
C495 C488 1.496 . S
H496 C479 0.929 . S
H497 C480 0.929 . S
H498 C481 0.929 . S
H499 C482 0.931 . S
H500 C490 0.929 . S
H501 C491 0.929 . S
H502 C492 0.931 . S
H503 C493 0.929 . S
Tb504 N533 2.617 . S
Tb504 N539 2.572 . S
Tb504 O548 2.465 . S
Tb504 O549 2.387 . S
Tb504 O551 2.428 . S
Tb504 O552 2.308 . S
Tb504 O556 2.349 . S
Tb504 O559 2.393 . S
Tb504 C568 2.802 . S
C505 N506 1.379 . S
C505 C508 1.416 . S
C505 C512 1.424 . S
N506 C505 1.379 . S
N506 C509 1.334 . S
N506 Tb515 2.617 . S
C507 C509 1.390 . S
C507 C510 1.339 . S
C507 H527 0.930 . S
C508 C505 1.416 . S
C508 C510 1.416 . S
C508 C514 1.448 . S
C509 N506 1.334 . S
C509 C507 1.390 . S
C509 H520 0.930 . S
C510 C507 1.339 . S
C510 C508 1.416 . S
C510 H531 0.930 . S
C511 C512 1.413 . S
C511 C513 1.427 . S
C511 C517 1.416 . S
C512 C505 1.424 . S
C512 C511 1.413 . S
C512 N516 1.361 . S
C513 C511 1.427 . S
C513 C514 1.328 . S
C513 H528 0.929 . S
C514 C508 1.448 . S
C514 C513 1.328 . S
C514 H529 0.930 . S
Tb515 N506 2.617 . S
Tb515 N516 2.572 . S
Tb515 O550 2.349 . S
Tb515 O553 2.393 . S
Tb515 O554 2.465 . S
Tb515 O555 2.387 . S
Tb515 O557 2.428 . S
Tb515 O558 2.308 . S
Tb515 C579 2.802 . S
N516 C512 1.361 . S
N516 Tb515 2.572 . S
N516 C518 1.340 . S
C517 C511 1.416 . S
C517 C519 1.332 . S
C517 H525 0.931 . S
C518 N516 1.340 . S
C518 C519 1.407 . S
C518 H524 0.930 . S
C519 C517 1.332 . S
C519 C518 1.407 . S
C519 H521 0.929 . S
H520 C509 0.930 . S
H521 C519 0.929 . S
H522 C537 0.930 . S
H523 C544 0.929 . S
H524 C518 0.930 . S
H525 C517 0.931 . S
H526 C540 0.930 . S
H527 C507 0.930 . S
H528 C513 0.929 . S
H529 C514 0.930 . S
H530 C535 0.930 . S
H531 C510 0.930 . S
H532 C543 0.931 . S
N533 Tb504 2.617 . S
N533 C534 1.379 . S
N533 C537 1.334 . S
C534 N533 1.379 . S
C534 C536 1.416 . S
C534 C542 1.424 . S
C535 H530 0.930 . S
C535 C537 1.390 . S
C535 C538 1.339 . S
C536 C534 1.416 . S
C536 C538 1.416 . S
C536 C569 1.448 . S
C537 H522 0.930 . S
C537 N533 1.334 . S
C537 C535 1.390 . S
C538 C535 1.339 . S
C538 C536 1.416 . S
C538 H545 0.930 . S
N539 Tb504 2.572 . S
N539 C540 1.340 . S
N539 C542 1.361 . S
C540 H526 0.930 . S
C540 N539 1.340 . S
C540 C544 1.407 . S
C541 C542 1.413 . S
C541 C543 1.416 . S
C541 C570 1.427 . S
C542 C534 1.424 . S
C542 N539 1.361 . S
C542 C541 1.413 . S
C543 H532 0.931 . S
C543 C541 1.416 . S
C543 C544 1.332 . S
C544 H523 0.929 . S
C544 C540 1.407 . S
C544 C543 1.332 . S
H545 C538 0.930 . S
H546 C569 0.930 . S
H547 C570 0.929 . S
O548 Tb504 2.465 . S
O548 C568 1.264 . S
O549 Tb504 2.387 . S
O549 C560 1.264 . S
O550 Tb515 2.349 . S
O550 C560 1.243 . S
O551 Tb504 2.428 . S
O551 C568 1.256 . S
O552 Tb504 2.308 . S
O552 C567 1.266 . S
O553 Tb515 2.393 . S
O553 C567 1.248 . S
O554 Tb515 2.465 . S
O554 C579 1.264 . S
O555 Tb515 2.387 . S
O555 C571 1.264 . S
O556 Tb504 2.349 . S
O556 C571 1.243 . S
O557 Tb515 2.428 . S
O557 C579 1.256 . S
O558 Tb515 2.308 . S
O558 C578 1.266 . S
O559 Tb504 2.393 . S
O559 C578 1.248 . S
C560 O549 1.264 . S
C560 O550 1.243 . S
C561 C564 1.399 . S
C561 C566 1.383 . S
C561 C568 1.496 . S
C562 C563 1.399 . S
C562 C566 1.389 . S
C563 C562 1.399 . S
C563 C565 1.380 . S
C563 H580 0.929 . S
C564 C561 1.399 . S
C564 C565 1.392 . S
C564 H581 0.929 . S
C565 C563 1.380 . S
C565 C564 1.392 . S
C565 H582 0.929 . S
C566 C561 1.383 . S
C566 C562 1.389 . S
C566 H583 0.931 . S
C567 O552 1.266 . S
C567 O553 1.248 . S
C568 Tb504 2.802 . S
C568 O548 1.264 . S
C568 O551 1.256 . S
C568 C561 1.496 . S
C569 C536 1.448 . S
C569 H546 0.930 . S
C569 C570 1.328 . S
C570 C541 1.427 . S
C570 H547 0.929 . S
C570 C569 1.328 . S
C571 O555 1.264 . S
C571 O556 1.243 . S
C572 C575 1.399 . S
C572 C576 1.383 . S
C572 C579 1.496 . S
C573 C574 1.399 . S
C573 C576 1.389 . S
C574 C573 1.399 . S
C574 C577 1.380 . S
C574 H584 0.929 . S
C575 C572 1.399 . S
C575 C577 1.392 . S
C575 H585 0.929 . S
C576 C572 1.383 . S
C576 C573 1.389 . S
C576 H586 0.931 . S
C577 C574 1.380 . S
C577 C575 1.392 . S
C577 H587 0.929 . S
C578 O558 1.266 . S
C578 O559 1.248 . S
C579 Tb515 2.802 . S
C579 O554 1.264 . S
C579 O557 1.256 . S
C579 C572 1.496 . S
H580 C563 0.929 . S
H581 C564 0.929 . S
H582 C565 0.929 . S
H583 C566 0.931 . S
H584 C574 0.929 . S
H585 C575 0.929 . S
H586 C576 0.931 . S
H587 C577 0.929 . S
Tb588 N617 2.617 . S
Tb588 N623 2.572 . S
Tb588 O632 2.465 . S
Tb588 O633 2.387 . S
Tb588 O635 2.428 . S
Tb588 O636 2.308 . S
Tb588 O640 2.349 . S
Tb588 O643 2.393 . S
Tb588 C652 2.802 . S
C589 N590 1.379 . S
C589 C592 1.416 . S
C589 C596 1.424 . S
N590 C589 1.379 . S
N590 C593 1.334 . S
N590 Tb599 2.617 . S
C591 C593 1.390 . S
C591 C594 1.339 . S
C591 H611 0.930 . S
C592 C589 1.416 . S
C592 C594 1.416 . S
C592 C598 1.448 . S
C593 N590 1.334 . S
C593 C591 1.390 . S
C593 H604 0.930 . S
C594 C591 1.339 . S
C594 C592 1.416 . S
C594 H615 0.930 . S
C595 C596 1.413 . S
C595 C597 1.427 . S
C595 C601 1.416 . S
C596 C589 1.424 . S
C596 C595 1.413 . S
C596 N600 1.361 . S
C597 C595 1.427 . S
C597 C598 1.328 . S
C597 H612 0.929 . S
C598 C592 1.448 . S
C598 C597 1.328 . S
C598 H613 0.930 . S
Tb599 N590 2.617 . S
Tb599 N600 2.572 . S
Tb599 O634 2.349 . S
Tb599 O637 2.393 . S
Tb599 O638 2.465 . S
Tb599 O639 2.387 . S
Tb599 O641 2.428 . S
Tb599 O642 2.308 . S
Tb599 C663 2.802 . S
N600 C596 1.361 . S
N600 Tb599 2.572 . S
N600 C602 1.340 . S
C601 C595 1.416 . S
C601 C603 1.332 . S
C601 H609 0.931 . S
C602 N600 1.340 . S
C602 C603 1.407 . S
C602 H608 0.930 . S
C603 C601 1.332 . S
C603 C602 1.407 . S
C603 H605 0.929 . S
H604 C593 0.930 . S
H605 C603 0.929 . S
H606 C621 0.930 . S
H607 C628 0.929 . S
H608 C602 0.930 . S
H609 C601 0.931 . S
H610 C624 0.930 . S
H611 C591 0.930 . S
H612 C597 0.929 . S
H613 C598 0.930 . S
H614 C619 0.930 . S
H615 C594 0.930 . S
H616 C627 0.931 . S
N617 Tb588 2.617 . S
N617 C618 1.379 . S
N617 C621 1.334 . S
C618 N617 1.379 . S
C618 C620 1.416 . S
C618 C626 1.424 . S
C619 H614 0.930 . S
C619 C621 1.390 . S
C619 C622 1.339 . S
C620 C618 1.416 . S
C620 C622 1.416 . S
C620 C653 1.448 . S
C621 H606 0.930 . S
C621 N617 1.334 . S
C621 C619 1.390 . S
C622 C619 1.339 . S
C622 C620 1.416 . S
C622 H629 0.930 . S
N623 Tb588 2.572 . S
N623 C624 1.340 . S
N623 C626 1.361 . S
C624 H610 0.930 . S
C624 N623 1.340 . S
C624 C628 1.407 . S
C625 C626 1.413 . S
C625 C627 1.416 . S
C625 C654 1.427 . S
C626 C618 1.424 . S
C626 N623 1.361 . S
C626 C625 1.413 . S
C627 H616 0.931 . S
C627 C625 1.416 . S
C627 C628 1.332 . S
C628 H607 0.929 . S
C628 C624 1.407 . S
C628 C627 1.332 . S
H629 C622 0.930 . S
H630 C653 0.930 . S
H631 C654 0.929 . S
O632 Tb588 2.465 . S
O632 C652 1.264 . S
O633 Tb588 2.387 . S
O633 C644 1.264 . S
O634 Tb599 2.349 . S
O634 C644 1.243 . S
O635 Tb588 2.428 . S
O635 C652 1.256 . S
O636 Tb588 2.308 . S
O636 C651 1.266 . S
O637 Tb599 2.393 . S
O637 C651 1.248 . S
O638 Tb599 2.465 . S
O638 C663 1.264 . S
O639 Tb599 2.387 . S
O639 C655 1.264 . S
O640 Tb588 2.349 . S
O640 C655 1.243 . S
O641 Tb599 2.428 . S
O641 C663 1.256 . S
O642 Tb599 2.308 . S
O642 C662 1.266 . S
O643 Tb588 2.393 . S
O643 C662 1.248 . S
C644 O633 1.264 . S
C644 O634 1.243 . S
C645 C648 1.399 . S
C645 C650 1.383 . S
C645 C652 1.496 . S
C646 C647 1.399 . S
C646 C650 1.389 . S
C647 C646 1.399 . S
C647 C649 1.380 . S
C647 H664 0.929 . S
C648 C645 1.399 . S
C648 C649 1.392 . S
C648 H665 0.929 . S
C649 C647 1.380 . S
C649 C648 1.392 . S
C649 H666 0.929 . S
C650 C645 1.383 . S
C650 C646 1.389 . S
C650 H667 0.931 . S
C651 O636 1.266 . S
C651 O637 1.248 . S
C652 Tb588 2.802 . S
C652 O632 1.264 . S
C652 O635 1.256 . S
C652 C645 1.496 . S
C653 C620 1.448 . S
C653 H630 0.930 . S
C653 C654 1.328 . S
C654 C625 1.427 . S
C654 H631 0.929 . S
C654 C653 1.328 . S
C655 O639 1.264 . S
C655 O640 1.243 . S
C656 C659 1.399 . S
C656 C660 1.383 . S
C656 C663 1.496 . S
C657 C658 1.399 . S
C657 C660 1.389 . S
C658 C657 1.399 . S
C658 C661 1.380 . S
C658 H668 0.929 . S
C659 C656 1.399 . S
C659 C661 1.392 . S
C659 H669 0.929 . S
C660 C656 1.383 . S
C660 C657 1.389 . S
C660 H670 0.931 . S
C661 C658 1.380 . S
C661 C659 1.392 . S
C661 H671 0.929 . S
C662 O642 1.266 . S
C662 O643 1.248 . S
C663 Tb599 2.802 . S
C663 O638 1.264 . S
C663 O641 1.256 . S
C663 C656 1.496 . S
H664 C647 0.929 . S
H665 C648 0.929 . S
H666 C649 0.929 . S
H667 C650 0.931 . S
H668 C658 0.929 . S
H669 C659 0.929 . S
H670 C660 0.931 . S
H671 C661 0.929 . S
Fe672 O673 1.886 1_455 S
Fe672 O676 1.715 . S
Fe672 O681 2.077 1_455 S
Fe672 O686 1.935 . S
Fe672 O692 2.077 1_455 S
Fe672 O701 1.935 . S
O673 Fe672 1.886 1_655 S
O673 Fe675 1.715 1_545 S
Fe674 O676 1.886 . S
Fe674 O677 1.715 1_545 S
Fe674 O684 1.935 1_545 S
Fe674 O685 2.077 . S
Fe674 O691 1.935 1_545 S
Fe674 O700 2.077 . S
Fe675 O673 1.715 1_565 S
Fe675 O678 1.886 . S
Fe675 O682 1.935 1_565 S
Fe675 O687 2.077 . S
Fe675 O693 1.935 1_565 S
Fe675 O697 2.077 . S
O676 Fe672 1.715 . S
O676 Fe674 1.886 . S
O677 Fe674 1.715 1_565 S
O677 Fe679 1.886 1_455 S
O678 Fe675 1.886 . S
O678 Fe679 1.715 . S
Fe679 O677 1.886 1_655 S
Fe679 O678 1.715 . S
Fe679 O683 2.077 1_655 S
Fe679 O688 1.935 . S
Fe679 O690 2.077 1_655 S
Fe679 O698 1.935 . S
C680 O692 1.381 . S
C680 O693 1.421 . S
O681 Fe672 2.077 1_655 S
O681 C694 1.381 . S
O682 Fe675 1.935 1_545 S
O682 C694 1.421 . S
O683 Fe679 2.077 1_455 S
O683 C699 1.381 . S
O684 Fe674 1.935 1_565 S
O684 C699 1.421 . S
O685 Fe674 2.077 . S
O685 C689 1.381 . S
O686 Fe672 1.935 . S
O686 C689 1.421 . S
O687 Fe675 2.077 . S
O687 C695 1.381 . S
O688 Fe679 1.935 . S
O688 C695 1.421 . S
C689 O685 1.381 . S
C689 O686 1.421 . S
O690 Fe679 2.077 1_455 S
O690 C702 1.381 . S
O691 Fe674 1.935 1_565 S
O691 C702 1.421 . S
O692 Fe672 2.077 1_655 S
O692 C680 1.381 . S
O693 Fe675 1.935 1_545 S
O693 C680 1.421 . S
C694 O681 1.381 . S
C694 O682 1.421 . S
C695 O687 1.381 . S
C695 O688 1.421 . S
C696 O697 1.381 . S
C696 O698 1.421 . S
O697 Fe675 2.077 . S
O697 C696 1.381 . S
O698 Fe679 1.935 . S
O698 C696 1.421 . S
C699 O683 1.381 . S
C699 O684 1.421 . S
O700 Fe674 2.077 . S
O700 C703 1.381 . S
O701 Fe672 1.935 . S
O701 C703 1.421 . S
C702 O690 1.381 . S
C702 O691 1.421 . S
C703 O700 1.381 . S
C703 O701 1.421 . S
Fe704 O705 1.886 . S
Fe704 O708 1.714 . S
Fe704 O713 2.077 . S
Fe704 O718 1.935 . S
Fe704 O724 2.077 1_556 S
Fe704 O733 1.935 1_556 S
O705 Fe704 1.886 . S
O705 Fe707 1.715 1_565 S
Fe706 O708 1.887 1_554 S
Fe706 O709 1.715 1_565 S
Fe706 O716 1.935 1_564 S
Fe706 O717 2.077 1_554 S
Fe706 O723 1.935 1_565 S
Fe706 O732 2.077 . S
Fe707 O705 1.715 1_545 S
Fe707 O710 1.888 1_556 S
Fe707 O714 1.935 1_545 S
Fe707 O719 2.077 . S
Fe707 O725 1.935 1_546 S
Fe707 O729 2.077 1_556 S
O708 Fe704 1.714 . S
O708 Fe706 1.887 1_556 S
O709 Fe706 1.715 1_545 S
O709 Fe711 1.886 . S
O710 Fe707 1.888 1_554 S
O710 Fe711 1.713 . S
Fe711 O709 1.886 . S
Fe711 O710 1.713 . S
Fe711 O715 2.077 1_554 S
Fe711 O720 1.935 1_554 S
Fe711 O722 2.077 . S
Fe711 O730 1.935 . S
C712 O724 1.381 . S
C712 O725 1.421 . S
O713 Fe704 2.077 . S
O713 C726 1.381 . S
O714 Fe707 1.935 1_565 S
O714 C726 1.421 . S
O715 Fe711 2.077 1_556 S
O715 C731 1.381 . S
O716 Fe706 1.935 1_546 S
O716 C731 1.421 . S
O717 Fe706 2.077 1_556 S
O717 C721 1.381 . S
O718 Fe704 1.935 . S
O718 C721 1.421 . S
O719 Fe707 2.077 . S
O719 C727 1.381 . S
O720 Fe711 1.935 1_556 S
O720 C727 1.421 . S
C721 O717 1.381 . S
C721 O718 1.421 . S
O722 Fe711 2.077 . S
O722 C734 1.381 . S
O723 Fe706 1.935 1_545 S
O723 C734 1.421 . S
O724 Fe704 2.077 1_554 S
O724 C712 1.381 . S
O725 Fe707 1.935 1_564 S
O725 C712 1.421 . S
C726 O713 1.381 . S
C726 O714 1.421 . S
C727 O719 1.381 . S
C727 O720 1.421 . S
C728 O729 1.381 . S
C728 O730 1.421 . S
O729 Fe707 2.077 1_554 S
O729 C728 1.381 . S
O730 Fe711 1.935 . S
O730 C728 1.421 . S
C731 O715 1.381 . S
C731 O716 1.421 . S
O732 Fe706 2.077 . S
O732 C735 1.381 . S
O733 Fe704 1.935 1_554 S
O733 C735 1.421 . S
C734 O722 1.381 . S
C734 O723 1.421 . S
C735 O732 1.381 . S
C735 O733 1.421 . S
Fe736 O737 1.886 1_455 S
Fe736 O740 1.714 . S
Fe736 O745 2.077 1_454 S
Fe736 O750 1.935 1_554 S
Fe736 O756 2.077 1_455 S
Fe736 O765 1.935 . S
O737 Fe736 1.886 1_655 S
O737 Fe739 1.715 . S
Fe738 O740 1.887 1_556 S
Fe738 O741 1.715 . S
Fe738 O748 1.935 . S
Fe738 O749 2.077 . S
Fe738 O755 1.935 1_556 S
Fe738 O764 2.077 1_556 S
Fe739 O737 1.715 . S
Fe739 O742 1.887 1_554 S
Fe739 O746 1.935 1_554 S
Fe739 O751 2.077 1_554 S
Fe739 O757 1.935 . S
Fe739 O761 2.077 . S
O740 Fe736 1.714 . S
O740 Fe738 1.887 1_554 S
O741 Fe738 1.715 . S
O741 Fe743 1.886 1_455 S
O742 Fe739 1.887 1_556 S
O742 Fe743 1.714 . S
Fe743 O741 1.886 1_655 S
Fe743 O742 1.714 . S
Fe743 O747 2.077 1_655 S
Fe743 O752 1.935 . S
Fe743 O754 2.077 1_656 S
Fe743 O762 1.935 1_556 S
C744 O756 1.381 . S
C744 O757 1.421 . S
O745 Fe736 2.077 1_656 S
O745 C758 1.381 . S
O746 Fe739 1.935 1_556 S
O746 C758 1.421 . S
O747 Fe743 2.077 1_455 S
O747 C763 1.381 . S
O748 Fe738 1.935 . S
O748 C763 1.421 . S
O749 Fe738 2.077 . S
O749 C753 1.381 . S
O750 Fe736 1.935 1_556 S
O750 C753 1.421 . S
O751 Fe739 2.077 1_556 S
O751 C759 1.381 . S
O752 Fe743 1.935 . S
O752 C759 1.421 . S
C753 O749 1.381 . S
C753 O750 1.421 . S
O754 Fe743 2.077 1_454 S
O754 C766 1.381 . S
O755 Fe738 1.935 1_554 S
O755 C766 1.421 . S
O756 Fe736 2.077 1_655 S
O756 C744 1.381 . S
O757 Fe739 1.935 . S
O757 C744 1.421 . S
C758 O745 1.381 . S
C758 O746 1.421 . S
C759 O751 1.381 . S
C759 O752 1.421 . S
C760 O761 1.381 . S
C760 O762 1.421 . S
O761 Fe739 2.077 . S
O761 C760 1.381 . S
O762 Fe743 1.935 1_554 S
O762 C760 1.421 . S
C763 O747 1.381 . S
C763 O748 1.421 . S
O764 Fe738 2.077 1_554 S
O764 C767 1.381 . S
O765 Fe736 1.935 . S
O765 C767 1.421 . S
C766 O754 1.381 . S
C766 O755 1.421 . S
C767 O764 1.381 . S
C767 O765 1.421 . S
Fe768 O769 1.886 . S
Fe768 O772 1.715 . S
Fe768 O777 2.077 . S
Fe768 O782 1.935 . S
Fe768 O788 2.077 . S
Fe768 O797 1.935 . S
O769 Fe768 1.886 . S
O769 Fe771 1.715 . S
Fe770 O772 1.886 1_554 S
Fe770 O773 1.715 . S
Fe770 O780 1.935 . S
Fe770 O781 2.077 1_554 S
Fe770 O787 1.935 . S
Fe770 O796 2.077 1_554 S
Fe771 O769 1.715 . S
Fe771 O774 1.886 1_556 S
Fe771 O778 1.935 . S
Fe771 O783 2.077 1_556 S
Fe771 O789 1.935 . S
Fe771 O793 2.077 1_556 S
O772 Fe768 1.715 . S
O772 Fe770 1.886 1_556 S
O773 Fe770 1.715 . S
O773 Fe775 1.886 . S
O774 Fe771 1.886 1_554 S
O774 Fe775 1.715 . S
Fe775 O773 1.886 . S
Fe775 O774 1.715 . S
Fe775 O779 2.077 . S
Fe775 O784 1.935 . S
Fe775 O786 2.077 . S
Fe775 O794 1.935 . S
C776 O788 1.381 . S
C776 O789 1.421 . S
O777 Fe768 2.077 . S
O777 C790 1.381 . S
O778 Fe771 1.935 . S
O778 C790 1.421 . S
O779 Fe775 2.077 . S
O779 C795 1.381 . S
O780 Fe770 1.935 . S
O780 C795 1.421 . S
O781 Fe770 2.077 1_556 S
O781 C785 1.381 . S
O782 Fe768 1.935 . S
O782 C785 1.421 . S
O783 Fe771 2.077 1_554 S
O783 C791 1.381 . S
O784 Fe775 1.935 . S
O784 C791 1.421 . S
C785 O781 1.381 . S
C785 O782 1.421 . S
O786 Fe775 2.077 . S
O786 C798 1.381 . S
O787 Fe770 1.935 . S
O787 C798 1.421 . S
O788 Fe768 2.077 . S
O788 C776 1.381 . S
O789 Fe771 1.935 . S
O789 C776 1.421 . S
C790 O777 1.381 . S
C790 O778 1.421 . S
C791 O783 1.381 . S
C791 O784 1.421 . S
C792 O793 1.381 . S
C792 O794 1.421 . S
O793 Fe771 2.077 1_554 S
O793 C792 1.381 . S
O794 Fe775 1.935 . S
O794 C792 1.421 . S
C795 O779 1.381 . S
C795 O780 1.421 . S
O796 Fe770 2.077 1_556 S
O796 C799 1.381 . S
O797 Fe768 1.935 . S
O797 C799 1.421 . S
C798 O786 1.381 . S
C798 O787 1.421 . S
C799 O796 1.381 . S
C799 O797 1.421 . S
Fe800 O801 1.886 . S
Fe800 O804 1.715 . S
Fe800 O809 2.077 1_655 S
Fe800 O814 1.935 1_655 S
Fe800 O820 2.077 . S
Fe800 O829 1.935 . S
O801 Fe800 1.886 . S
O801 Fe803 1.715 . S
Fe802 O804 1.886 1_455 S
Fe802 O805 1.715 . S
Fe802 O812 1.935 . S
Fe802 O813 2.077 . S
Fe802 O819 1.935 1_455 S
Fe802 O828 2.077 1_455 S
Fe803 O801 1.715 . S
Fe803 O806 1.886 1_655 S
Fe803 O810 1.935 1_655 S
Fe803 O815 2.077 1_655 S
Fe803 O821 1.935 . S
Fe803 O825 2.077 . S
O804 Fe800 1.715 . S
O804 Fe802 1.886 1_655 S
O805 Fe802 1.715 . S
O805 Fe807 1.886 . S
O806 Fe803 1.886 1_455 S
O806 Fe807 1.715 . S
Fe807 O805 1.886 . S
Fe807 O806 1.715 . S
Fe807 O811 2.077 . S
Fe807 O816 1.935 . S
Fe807 O818 2.077 1_455 S
Fe807 O826 1.935 1_455 S
C808 O820 1.381 . S
C808 O821 1.421 . S
O809 Fe800 2.077 1_455 S
O809 C822 1.381 . S
O810 Fe803 1.935 1_455 S
O810 C822 1.421 . S
O811 Fe807 2.077 . S
O811 C827 1.381 . S
O812 Fe802 1.935 . S
O812 C827 1.421 . S
O813 Fe802 2.077 . S
O813 C817 1.381 . S
O814 Fe800 1.935 1_455 S
O814 C817 1.421 . S
O815 Fe803 2.077 1_455 S
O815 C823 1.381 . S
O816 Fe807 1.935 . S
O816 C823 1.421 . S
C817 O813 1.381 . S
C817 O814 1.421 . S
O818 Fe807 2.077 1_655 S
O818 C830 1.381 . S
O819 Fe802 1.935 1_655 S
O819 C830 1.421 . S
O820 Fe800 2.077 . S
O820 C808 1.381 . S
O821 Fe803 1.935 . S
O821 C808 1.421 . S
C822 O809 1.381 . S
C822 O810 1.421 . S
C823 O815 1.381 . S
C823 O816 1.421 . S
C824 O825 1.381 . S
C824 O826 1.421 . S
O825 Fe803 2.077 . S
O825 C824 1.381 . S
O826 Fe807 1.935 1_655 S
O826 C824 1.421 . S
C827 O811 1.381 . S
C827 O812 1.421 . S
O828 Fe802 2.077 1_655 S
O828 C831 1.381 . S
O829 Fe800 1.935 . S
O829 C831 1.421 . S
C830 O818 1.381 . S
C830 O819 1.421 . S
C831 O828 1.381 . S
C831 O829 1.421 . S
Fe832 O833 1.886 . S
Fe832 O836 1.715 . S
Fe832 O841 2.077 . S
Fe832 O846 1.935 . S
Fe832 O852 2.077 . S
Fe832 O861 1.935 . S
O833 Fe832 1.886 . S
O833 Fe835 1.715 1_565 S
Fe834 O836 1.886 . S
Fe834 O837 1.715 1_565 S
Fe834 O844 1.935 1_565 S
Fe834 O845 2.077 . S
Fe834 O851 1.935 1_565 S
Fe834 O860 2.077 . S
Fe835 O833 1.715 1_545 S
Fe835 O838 1.886 . S
Fe835 O842 1.935 1_545 S
Fe835 O847 2.077 . S
Fe835 O853 1.935 1_545 S
Fe835 O857 2.077 . S
O836 Fe832 1.715 . S
O836 Fe834 1.886 . S
O837 Fe834 1.715 1_545 S
O837 Fe839 1.886 . S
O838 Fe835 1.886 . S
O838 Fe839 1.715 . S
Fe839 O837 1.886 . S
Fe839 O838 1.715 . S
Fe839 O843 2.077 . S
Fe839 O848 1.935 . S
Fe839 O850 2.077 . S
Fe839 O858 1.935 . S
C840 O852 1.381 . S
C840 O853 1.421 . S
O841 Fe832 2.077 . S
O841 C854 1.381 . S
O842 Fe835 1.935 1_565 S
O842 C854 1.421 . S
O843 Fe839 2.077 . S
O843 C859 1.381 . S
O844 Fe834 1.935 1_545 S
O844 C859 1.421 . S
O845 Fe834 2.077 . S
O845 C849 1.381 . S
O846 Fe832 1.935 . S
O846 C849 1.421 . S
O847 Fe835 2.077 . S
O847 C855 1.381 . S
O848 Fe839 1.935 . S
O848 C855 1.421 . S
C849 O845 1.381 . S
C849 O846 1.421 . S
O850 Fe839 2.077 . S
O850 C862 1.381 . S
O851 Fe834 1.935 1_545 S
O851 C862 1.421 . S
O852 Fe832 2.077 . S
O852 C840 1.381 . S
O853 Fe835 1.935 1_565 S
O853 C840 1.421 . S
C854 O841 1.381 . S
C854 O842 1.421 . S
C855 O847 1.381 . S
C855 O848 1.421 . S
C856 O857 1.381 . S
C856 O858 1.421 . S
O857 Fe835 2.077 . S
O857 C856 1.381 . S
O858 Fe839 1.935 . S
O858 C856 1.421 . S
C859 O843 1.381 . S
C859 O844 1.421 . S
O860 Fe834 2.077 . S
O860 C863 1.381 . S
O861 Fe832 1.935 . S
O861 C863 1.421 . S
C862 O850 1.381 . S
C862 O851 1.421 . S
C863 O860 1.381 . S
C863 O861 1.421 . S
C864 C865 1.363 . S
C864 C870 1.379 . S
C864 N872 1.356 . S
C865 C864 1.363 . S
C865 C871 1.363 . S
C866 C867 1.363 . S
C866 C871 1.379 . S
C866 N873 1.356 . S
C867 C866 1.363 . S
C867 C870 1.363 . S
N868 C870 1.356 . S
N868 H880 0.984 . S
N868 H881 0.985 . S
N869 C871 1.356 . S
N869 H874 0.984 . S
N869 H875 0.985 . S
C870 C864 1.379 . S
C870 C867 1.363 . S
C870 N868 1.356 . S
C871 C865 1.363 . S
C871 C866 1.379 . S
C871 N869 1.356 . S
N872 C864 1.356 . S
N872 H878 0.984 . S
N872 H879 0.984 . S
N873 C866 1.356 . S
N873 H876 0.984 . S
N873 H877 0.985 . S
H874 N869 0.984 . S
H875 N869 0.985 . S
H876 N873 0.984 . S
H877 N873 0.985 . S
H878 N872 0.984 . S
H879 N872 0.984 . S
H880 N868 0.984 . S
H881 N868 0.985 . S
C882 C883 1.363 . S
C882 C888 1.379 . S
C882 N890 1.356 . S
C883 C882 1.363 . S
C883 C889 1.363 . S
C884 C885 1.363 . S
C884 C889 1.379 . S
C884 N891 1.356 . S
C885 C884 1.363 . S
C885 C888 1.363 . S
N886 C888 1.356 . S
N886 H898 0.984 1_545 S
N886 H899 0.985 . S
N887 C889 1.356 . S
N887 H892 0.984 . S
N887 H893 0.985 . S
C888 C882 1.379 . S
C888 C885 1.363 . S
C888 N886 1.356 . S
C889 C883 1.363 . S
C889 C884 1.379 . S
C889 N887 1.356 . S
N890 C882 1.356 . S
N890 H896 0.984 . S
N890 H897 0.984 . S
N891 C884 1.356 . S
N891 H894 0.984 . S
N891 H895 0.985 . S
H892 N887 0.984 . S
H893 N887 0.985 . S
H894 N891 0.984 . S
H895 N891 0.985 . S
H896 N890 0.984 . S
H897 N890 0.984 . S
H898 N886 0.984 1_565 S
H899 N886 0.985 . S
C900 C901 1.363 . S
C900 C906 1.379 . S
C900 N908 1.356 . S
C901 C900 1.363 . S
C901 C907 1.363 . S
C902 C903 1.363 . S
C902 C907 1.379 . S
C902 N909 1.356 . S
C903 C902 1.363 . S
C903 C906 1.363 . S
N904 C906 1.356 . S
N904 H916 0.984 . S
N904 H917 0.985 . S
N905 C907 1.356 . S
N905 H910 0.984 . S
N905 H911 0.985 . S
C906 C900 1.379 . S
C906 C903 1.363 . S
C906 N904 1.356 . S
C907 C901 1.363 . S
C907 C902 1.379 . S
C907 N905 1.356 . S
N908 C900 1.356 . S
N908 H914 0.984 . S
N908 H915 0.984 . S
N909 C902 1.356 . S
N909 H912 0.984 . S
N909 H913 0.985 . S
H910 N905 0.984 . S
H911 N905 0.985 . S
H912 N909 0.984 . S
H913 N909 0.985 . S
H914 N908 0.984 . S
H915 N908 0.984 . S
H916 N904 0.984 . S
H917 N904 0.985 . S
C918 C919 1.363 . S
C918 C924 1.379 . S
C918 N926 1.356 . S
C919 C918 1.363 . S
C919 C925 1.363 . S
C920 C921 1.363 . S
C920 C925 1.379 . S
C920 N927 1.356 . S
C921 C920 1.363 . S
C921 C924 1.363 . S
N922 C924 1.356 . S
N922 H934 0.984 . S
N922 H935 0.985 . S
N923 C925 1.356 . S
N923 H928 0.984 . S
N923 H929 0.985 . S
C924 C918 1.379 . S
C924 C921 1.363 . S
C924 N922 1.356 . S
C925 C919 1.363 . S
C925 C920 1.379 . S
C925 N923 1.356 . S
N926 C918 1.356 . S
N926 H932 0.984 . S
N926 H933 0.984 . S
N927 C920 1.356 . S
N927 H930 0.984 . S
N927 H931 0.985 . S
H928 N923 0.984 . S
H929 N923 0.985 . S
H930 N927 0.984 . S
H931 N927 0.985 . S
H932 N926 0.984 . S
H933 N926 0.984 . S
H934 N922 0.984 . S
H935 N922 0.985 . S
C936 C937 1.363 . S
C936 C942 1.379 . S
C936 N944 1.356 . S
C937 C936 1.363 . S
C937 C943 1.363 . S
C938 C939 1.363 . S
C938 C943 1.379 . S
C938 N945 1.356 . S
C939 C938 1.363 . S
C939 C942 1.363 . S
N940 C942 1.356 . S
N940 H952 0.984 . S
N940 H953 0.985 . S
N941 C943 1.356 . S
N941 H946 0.984 . S
N941 H947 0.985 . S
C942 C936 1.379 . S
C942 C939 1.363 . S
C942 N940 1.356 . S
C943 C937 1.363 . S
C943 C938 1.379 . S
C943 N941 1.356 . S
N944 C936 1.356 . S
N944 H950 0.984 . S
N944 H951 0.984 . S
N945 C938 1.356 . S
N945 H948 0.984 . S
N945 H949 0.985 . S
H946 N941 0.984 . S
H947 N941 0.985 . S
H948 N945 0.984 . S
H949 N945 0.985 . S
H950 N944 0.984 . S
H951 N944 0.984 . S
H952 N940 0.984 . S
H953 N940 0.985 . S
C954 C955 1.363 . S
C954 C960 1.379 . S
C954 N962 1.356 . S
C955 C954 1.363 . S
C955 C961 1.363 . S
C956 C957 1.363 . S
C956 C961 1.379 . S
C956 N963 1.356 . S
C957 C956 1.363 . S
C957 C960 1.363 . S
N958 C960 1.356 . S
N958 H970 0.984 . S
N958 H971 0.985 . S
N959 C961 1.356 . S
N959 H964 0.984 . S
N959 H965 0.985 . S
C960 C954 1.379 . S
C960 C957 1.363 . S
C960 N958 1.356 . S
C961 C955 1.363 . S
C961 C956 1.379 . S
C961 N959 1.356 . S
N962 C954 1.356 . S
N962 H968 0.984 . S
N962 H969 0.984 . S
N963 C956 1.356 . S
N963 H966 0.984 . S
N963 H967 0.985 . S
H964 N959 0.984 . S
H965 N959 0.985 . S
H966 N963 0.984 . S
H967 N963 0.985 . S
H968 N962 0.984 . S
H969 N962 0.984 . S
H970 N958 0.984 . S
H971 N958 0.985 . S
C972 C973 1.363 . S
C972 C978 1.379 . S
C972 N980 1.356 . S
C973 C972 1.363 . S
C973 C979 1.363 . S
C974 C975 1.363 . S
C974 C979 1.379 . S
C974 N981 1.356 . S
C975 C974 1.363 . S
C975 C978 1.363 . S
N976 C978 1.356 . S
N976 H988 0.984 1_655 S
N976 H989 0.985 . S
N977 C979 1.356 . S
N977 H982 0.984 . S
N977 H983 0.985 . S
C978 C972 1.379 . S
C978 C975 1.363 . S
C978 N976 1.356 . S
C979 C973 1.363 . S
C979 C974 1.379 . S
C979 N977 1.356 . S
N980 C972 1.356 . S
N980 H986 0.984 . S
N980 H987 0.984 . S
N981 C974 1.356 . S
N981 H984 0.984 . S
N981 H985 0.985 . S
H982 N977 0.984 . S
H983 N977 0.985 . S
H984 N981 0.984 . S
H985 N981 0.985 . S
H986 N980 0.984 . S
H987 N980 0.984 . S
H988 N976 0.984 1_455 S
H989 N976 0.985 . S
C990 C991 1.363 . S
C990 C996 1.379 . S
C990 N998 1.356 . S
C991 C990 1.363 . S
C991 C997 1.363 . S
C992 C993 1.363 . S
C992 C997 1.379 . S
C992 N999 1.356 . S
C993 C992 1.363 . S
C993 C996 1.363 . S
N994 C996 1.356 . S
N994 H1006 0.984 . S
N994 H1007 0.985 . S
N995 C997 1.356 . S
N995 H1000 0.984 . S
N995 H1001 0.985 . S
C996 C990 1.379 . S
C996 C993 1.363 . S
C996 N994 1.356 . S
C997 C991 1.363 . S
C997 C992 1.379 . S
C997 N995 1.356 . S
N998 C990 1.356 . S
N998 H1004 0.984 . S
N998 H1005 0.984 . S
N999 C992 1.356 . S
N999 H1002 0.984 . S
N999 H1003 0.985 . S
H1000 N995 0.984 . S
H1001 N995 0.985 . S
H1002 N999 0.984 . S
H1003 N999 0.985 . S
H1004 N998 0.984 . S
H1005 N998 0.984 . S
H1006 N994 0.984 . S
H1007 N994 0.985 . S
C1008 C1009 1.363 . S
C1008 C1014 1.379 . S
C1008 N1016 1.356 . S
C1009 C1008 1.363 . S
C1009 C1015 1.363 . S
C1010 C1011 1.363 . S
C1010 C1015 1.379 . S
C1010 N1017 1.356 . S
C1011 C1010 1.363 . S
C1011 C1014 1.363 . S
N1012 C1014 1.356 . S
N1012 H1024 0.984 . S
N1012 H1025 0.985 . S
N1013 C1015 1.356 . S
N1013 H1018 0.984 . S
N1013 H1019 0.985 . S
C1014 C1008 1.379 . S
C1014 C1011 1.363 . S
C1014 N1012 1.356 . S
C1015 C1009 1.363 . S
C1015 C1010 1.379 . S
C1015 N1013 1.356 . S
N1016 C1008 1.356 . S
N1016 H1022 0.984 . S
N1016 H1023 0.984 . S
N1017 C1010 1.356 . S
N1017 H1020 0.984 . S
N1017 H1021 0.985 . S
H1018 N1013 0.984 . S
H1019 N1013 0.985 . S
H1020 N1017 0.984 . S
H1021 N1017 0.985 . S
H1022 N1016 0.984 . S
H1023 N1016 0.984 . S
H1024 N1012 0.984 . S
H1025 N1012 0.985 . S
C1026 C1027 1.363 . S
C1026 C1032 1.379 . S
C1026 N1034 1.356 . S
C1027 C1026 1.363 . S
C1027 C1033 1.363 . S
C1028 C1029 1.363 . S
C1028 C1033 1.379 . S
C1028 N1035 1.356 . S
C1029 C1028 1.363 . S
C1029 C1032 1.363 . S
N1030 C1032 1.356 . S
N1030 H1042 0.984 . S
N1030 H1043 0.985 . S
N1031 C1033 1.356 . S
N1031 H1036 0.984 . S
N1031 H1037 0.985 . S
C1032 C1026 1.379 . S
C1032 C1029 1.363 . S
C1032 N1030 1.356 . S
C1033 C1027 1.363 . S
C1033 C1028 1.379 . S
C1033 N1031 1.356 . S
N1034 C1026 1.356 . S
N1034 H1040 0.984 . S
N1034 H1041 0.984 . S
N1035 C1028 1.356 . S
N1035 H1038 0.984 . S
N1035 H1039 0.985 . S
H1036 N1031 0.984 . S
H1037 N1031 0.985 . S
H1038 N1035 0.984 . S
H1039 N1035 0.985 . S
H1040 N1034 0.984 . S
H1041 N1034 0.984 . S
H1042 N1030 0.984 . S
H1043 N1030 0.985 . S
C1044 C1045 1.363 . S
C1044 C1050 1.379 . S
C1044 N1052 1.356 . S
C1045 C1044 1.363 . S
C1045 C1051 1.363 . S
C1046 C1047 1.363 . S
C1046 C1051 1.379 . S
C1046 N1053 1.356 . S
C1047 C1046 1.363 . S
C1047 C1050 1.363 . S
N1048 C1050 1.356 . S
N1048 H1060 0.984 1_554 S
N1048 H1061 0.985 . S
N1049 C1051 1.356 . S
N1049 H1054 0.984 . S
N1049 H1055 0.985 . S
C1050 C1044 1.379 . S
C1050 C1047 1.363 . S
C1050 N1048 1.356 . S
C1051 C1045 1.363 . S
C1051 C1046 1.379 . S
C1051 N1049 1.356 . S
N1052 C1044 1.356 . S
N1052 H1058 0.984 . S
N1052 H1059 0.984 . S
N1053 C1046 1.356 . S
N1053 H1056 0.984 . S
N1053 H1057 0.985 . S
H1054 N1049 0.984 . S
H1055 N1049 0.985 . S
H1056 N1053 0.984 . S
H1057 N1053 0.985 . S
H1058 N1052 0.984 . S
H1059 N1052 0.984 . S
H1060 N1048 0.984 1_556 S
H1061 N1048 0.985 . S
C1062 C1063 1.363 . S
C1062 C1068 1.379 . S
C1062 N1070 1.356 . S
C1063 C1062 1.363 . S
C1063 C1069 1.363 . S
C1064 C1065 1.363 . S
C1064 C1069 1.379 . S
C1064 N1071 1.356 . S
C1065 C1064 1.363 . S
C1065 C1068 1.363 . S
N1066 C1068 1.356 . S
N1066 H1078 0.984 . S
N1066 H1079 0.985 . S
N1067 C1069 1.356 . S
N1067 H1072 0.984 . S
N1067 H1073 0.985 . S
C1068 C1062 1.379 . S
C1068 C1065 1.363 . S
C1068 N1066 1.356 . S
C1069 C1063 1.363 . S
C1069 C1064 1.379 . S
C1069 N1067 1.356 . S
N1070 C1062 1.356 . S
N1070 H1076 0.984 . S
N1070 H1077 0.984 . S
N1071 C1064 1.356 . S
N1071 H1074 0.984 . S
N1071 H1075 0.985 . S
H1072 N1067 0.984 . S
H1073 N1067 0.985 . S
H1074 N1071 0.984 . S
H1075 N1071 0.985 . S
H1076 N1070 0.984 . S
H1077 N1070 0.984 . S
H1078 N1066 0.984 . S
H1079 N1066 0.985 . S
C1080 C1081 1.363 . S
C1080 C1086 1.379 . S
C1080 N1088 1.356 . S
C1081 C1080 1.363 . S
C1081 C1087 1.363 . S
C1082 C1083 1.363 . S
C1082 C1087 1.379 . S
C1082 N1089 1.356 . S
C1083 C1082 1.363 . S
C1083 C1086 1.363 . S
N1084 C1086 1.356 . S
N1084 H1096 0.984 . S
N1084 H1097 0.985 . S
N1085 C1087 1.356 . S
N1085 H1090 0.984 . S
N1085 H1091 0.985 . S
C1086 C1080 1.379 . S
C1086 C1083 1.363 . S
C1086 N1084 1.356 . S
C1087 C1081 1.363 . S
C1087 C1082 1.379 . S
C1087 N1085 1.356 . S
N1088 C1080 1.356 . S
N1088 H1094 0.984 . S
N1088 H1095 0.984 . S
N1089 C1082 1.356 . S
N1089 H1092 0.984 . S
N1089 H1093 0.985 . S
H1090 N1085 0.984 . S
H1091 N1085 0.985 . S
H1092 N1089 0.984 . S
H1093 N1089 0.985 . S
H1094 N1088 0.984 . S
H1095 N1088 0.984 . S
H1096 N1084 0.984 . S
H1097 N1084 0.985 . S
C1098 C1099 1.363 . S
C1098 C1104 1.379 . S
C1098 N1106 1.356 . S
C1099 C1098 1.363 . S
C1099 C1105 1.363 . S
C1100 C1101 1.363 . S
C1100 C1105 1.379 . S
C1100 N1107 1.356 . S
C1101 C1100 1.363 . S
C1101 C1104 1.363 . S
N1102 C1104 1.356 . S
N1102 H1114 0.984 . S
N1102 H1115 0.985 . S
N1103 C1105 1.356 . S
N1103 H1108 0.984 . S
N1103 H1109 0.985 . S
C1104 C1098 1.379 . S
C1104 C1101 1.363 . S
C1104 N1102 1.356 . S
C1105 C1099 1.363 . S
C1105 C1100 1.379 . S
C1105 N1103 1.356 . S
N1106 C1098 1.356 . S
N1106 H1112 0.984 . S
N1106 H1113 0.984 . S
N1107 C1100 1.356 . S
N1107 H1110 0.984 . S
N1107 H1111 0.985 . S
H1108 N1103 0.984 . S
H1109 N1103 0.985 . S
H1110 N1107 0.984 . S
H1111 N1107 0.985 . S
H1112 N1106 0.984 . S
H1113 N1106 0.984 . S
H1114 N1102 0.984 . S
H1115 N1102 0.985 . S
C1116 C1117 1.363 . S
C1116 C1122 1.379 . S
C1116 N1124 1.356 . S
C1117 C1116 1.363 . S
C1117 C1123 1.363 . S
C1118 C1119 1.363 . S
C1118 C1123 1.379 . S
C1118 N1125 1.356 . S
C1119 C1118 1.363 . S
C1119 C1122 1.363 . S
N1120 C1122 1.356 . S
N1120 H1132 0.984 . S
N1120 H1133 0.985 . S
N1121 C1123 1.356 . S
N1121 H1126 0.984 . S
N1121 H1127 0.985 . S
C1122 C1116 1.379 . S
C1122 C1119 1.363 . S
C1122 N1120 1.356 . S
C1123 C1117 1.363 . S
C1123 C1118 1.379 . S
C1123 N1121 1.356 . S
N1124 C1116 1.356 . S
N1124 H1130 0.984 . S
N1124 H1131 0.984 . S
N1125 C1118 1.356 . S
N1125 H1128 0.984 . S
N1125 H1129 0.985 . S
H1126 N1121 0.984 . S
H1127 N1121 0.985 . S
H1128 N1125 0.984 . S
H1129 N1125 0.985 . S
H1130 N1124 0.984 . S
H1131 N1124 0.984 . S
H1132 N1120 0.984 . S
H1133 N1120 0.985 . S
C1134 C1135 1.363 . S
C1134 C1140 1.379 . S
C1134 N1142 1.356 . S
C1135 C1134 1.363 . S
C1135 C1141 1.363 . S
C1136 C1137 1.363 . S
C1136 C1141 1.379 . S
C1136 N1143 1.356 . S
C1137 C1136 1.363 . S
C1137 C1140 1.363 . S
N1138 C1140 1.356 . S
N1138 H1150 0.984 . S
N1138 H1151 0.985 . S
N1139 C1141 1.356 . S
N1139 H1144 0.984 . S
N1139 H1145 0.985 . S
C1140 C1134 1.379 . S
C1140 C1137 1.363 . S
C1140 N1138 1.356 . S
C1141 C1135 1.363 . S
C1141 C1136 1.379 . S
C1141 N1139 1.356 . S
N1142 C1134 1.356 . S
N1142 H1148 0.984 . S
N1142 H1149 0.984 . S
N1143 C1136 1.356 . S
N1143 H1146 0.984 . S
N1143 H1147 0.985 . S
H1144 N1139 0.984 . S
H1145 N1139 0.985 . S
H1146 N1143 0.984 . S
H1147 N1143 0.985 . S
H1148 N1142 0.984 . S
H1149 N1142 0.984 . S
H1150 N1138 0.984 . S
H1151 N1138 0.985 . S
C1152 C1153 1.363 . S
C1152 C1158 1.379 . S
C1152 N1160 1.356 . S
C1153 C1152 1.363 . S
C1153 C1159 1.363 . S
C1154 C1155 1.363 . S
C1154 C1159 1.379 . S
C1154 N1161 1.356 . S
C1155 C1154 1.363 . S
C1155 C1158 1.363 . S
N1156 C1158 1.356 . S
N1156 H1168 0.984 . S
N1156 H1169 0.985 . S
N1157 C1159 1.356 . S
N1157 H1162 0.984 . S
N1157 H1163 0.985 . S
C1158 C1152 1.379 . S
C1158 C1155 1.363 . S
C1158 N1156 1.356 . S
C1159 C1153 1.363 . S
C1159 C1154 1.379 . S
C1159 N1157 1.356 . S
N1160 C1152 1.356 . S
N1160 H1166 0.984 . S
N1160 H1167 0.984 . S
N1161 C1154 1.356 . S
N1161 H1164 0.984 . S
N1161 H1165 0.985 1_455 S
H1162 N1157 0.984 . S
H1163 N1157 0.985 . S
H1164 N1161 0.984 . S
H1165 N1161 0.985 1_655 S
H1166 N1160 0.984 . S
H1167 N1160 0.984 . S
H1168 N1156 0.984 . S
H1169 N1156 0.985 . S
C1170 C1171 1.363 . S
C1170 C1176 1.379 . S
C1170 N1178 1.356 . S
C1171 C1170 1.363 . S
C1171 C1177 1.363 . S
C1172 C1173 1.363 . S
C1172 C1177 1.379 . S
C1172 N1179 1.356 . S
C1173 C1172 1.363 . S
C1173 C1176 1.363 . S
N1174 C1176 1.356 . S
N1174 H1186 0.984 . S
N1174 H1187 0.985 . S
N1175 C1177 1.356 . S
N1175 H1180 0.984 . S
N1175 H1181 0.985 . S
C1176 C1170 1.379 . S
C1176 C1173 1.363 . S
C1176 N1174 1.356 . S
C1177 C1171 1.363 . S
C1177 C1172 1.379 . S
C1177 N1175 1.356 . S
N1178 C1170 1.356 . S
N1178 H1184 0.984 . S
N1178 H1185 0.984 . S
N1179 C1172 1.356 . S
N1179 H1182 0.984 . S
N1179 H1183 0.985 . S
H1180 N1175 0.984 . S
H1181 N1175 0.985 . S
H1182 N1179 0.984 . S
H1183 N1179 0.985 . S
H1184 N1178 0.984 . S
H1185 N1178 0.984 . S
H1186 N1174 0.984 . S
H1187 N1174 0.985 . S
C1188 C1189 1.363 . S
C1188 C1194 1.379 . S
C1188 N1196 1.356 . S
C1189 C1188 1.363 . S
C1189 C1195 1.363 . S
C1190 C1191 1.363 . S
C1190 C1195 1.379 . S
C1190 N1197 1.356 . S
C1191 C1190 1.363 . S
C1191 C1194 1.363 . S
N1192 C1194 1.356 . S
N1192 H1204 0.984 . S
N1192 H1205 0.985 . S
N1193 C1195 1.356 . S
N1193 H1198 0.984 . S
N1193 H1199 0.985 . S
C1194 C1188 1.379 . S
C1194 C1191 1.363 . S
C1194 N1192 1.356 . S
C1195 C1189 1.363 . S
C1195 C1190 1.379 . S
C1195 N1193 1.356 . S
N1196 C1188 1.356 . S
N1196 H1202 0.984 . S
N1196 H1203 0.984 . S
N1197 C1190 1.356 . S
N1197 H1200 0.984 . S
N1197 H1201 0.985 1_545 S
H1198 N1193 0.984 . S
H1199 N1193 0.985 . S
H1200 N1197 0.984 . S
H1201 N1197 0.985 1_565 S
H1202 N1196 0.984 . S
H1203 N1196 0.984 . S
H1204 N1192 0.984 . S
H1205 N1192 0.985 . S
C1206 C1207 1.363 . S
C1206 C1212 1.379 . S
C1206 N1214 1.356 . S
C1207 C1206 1.363 . S
C1207 C1213 1.363 . S
C1208 C1209 1.363 . S
C1208 C1213 1.379 . S
C1208 N1215 1.356 . S
C1209 C1208 1.363 . S
C1209 C1212 1.363 . S
N1210 C1212 1.356 . S
N1210 H1222 0.984 . S
N1210 H1223 0.985 . S
N1211 C1213 1.356 . S
N1211 H1216 0.984 . S
N1211 H1217 0.985 . S
C1212 C1206 1.379 . S
C1212 C1209 1.363 . S
C1212 N1210 1.356 . S
C1213 C1207 1.363 . S
C1213 C1208 1.379 . S
C1213 N1211 1.356 . S
N1214 C1206 1.356 . S
N1214 H1220 0.984 . S
N1214 H1221 0.984 . S
N1215 C1208 1.356 . S
N1215 H1218 0.984 . S
N1215 H1219 0.985 . S
H1216 N1211 0.984 . S
H1217 N1211 0.985 . S
H1218 N1215 0.984 . S
H1219 N1215 0.985 . S
H1220 N1214 0.984 . S
H1221 N1214 0.984 . S
H1222 N1210 0.984 . S
H1223 N1210 0.985 . S
C1224 C1225 1.363 . S
C1224 C1230 1.379 . S
C1224 N1232 1.356 . S
C1225 C1224 1.363 . S
C1225 C1231 1.363 . S
C1226 C1227 1.363 . S
C1226 C1231 1.379 . S
C1226 N1233 1.356 . S
C1227 C1226 1.363 . S
C1227 C1230 1.363 . S
N1228 C1230 1.356 . S
N1228 H1240 0.984 . S
N1228 H1241 0.985 . S
N1229 C1231 1.356 . S
N1229 H1234 0.984 . S
N1229 H1235 0.985 . S
C1230 C1224 1.379 . S
C1230 C1227 1.363 . S
C1230 N1228 1.356 . S
C1231 C1225 1.363 . S
C1231 C1226 1.379 . S
C1231 N1229 1.356 . S
N1232 C1224 1.356 . S
N1232 H1238 0.984 . S
N1232 H1239 0.984 . S
N1233 C1226 1.356 . S
N1233 H1236 0.984 . S
N1233 H1237 0.985 . S
H1234 N1229 0.984 . S
H1235 N1229 0.985 . S
H1236 N1233 0.984 . S
H1237 N1233 0.985 . S
H1238 N1232 0.984 . S
H1239 N1232 0.984 . S
H1240 N1228 0.984 . S
H1241 N1228 0.985 . S
C1242 C1243 1.363 . S
C1242 C1248 1.379 . S
C1242 N1250 1.356 . S
C1243 C1242 1.363 . S
C1243 C1249 1.363 . S
C1244 C1245 1.363 . S
C1244 C1249 1.379 . S
C1244 N1251 1.356 . S
C1245 C1244 1.363 . S
C1245 C1248 1.363 . S
N1246 C1248 1.356 . S
N1246 H1258 0.984 . S
N1246 H1259 0.985 . S
N1247 C1249 1.356 . S
N1247 H1252 0.984 . S
N1247 H1253 0.985 . S
C1248 C1242 1.379 . S
C1248 C1245 1.363 . S
C1248 N1246 1.356 . S
C1249 C1243 1.363 . S
C1249 C1244 1.379 . S
C1249 N1247 1.356 . S
N1250 C1242 1.356 . S
N1250 H1256 0.984 . S
N1250 H1257 0.984 . S
N1251 C1244 1.356 . S
N1251 H1254 0.984 . S
N1251 H1255 0.985 . S
H1252 N1247 0.984 . S
H1253 N1247 0.985 . S
H1254 N1251 0.984 . S
H1255 N1251 0.985 . S
H1256 N1250 0.984 . S
H1257 N1250 0.984 . S
H1258 N1246 0.984 . S
H1259 N1246 0.985 . S
C1260 C1261 1.363 . S
C1260 C1266 1.379 . S
C1260 N1268 1.356 . S
C1261 C1260 1.363 . S
C1261 C1267 1.363 . S
C1262 C1263 1.363 . S
C1262 C1267 1.379 . S
C1262 N1269 1.356 . S
C1263 C1262 1.363 . S
C1263 C1266 1.363 . S
N1264 C1266 1.356 . S
N1264 H1276 0.984 . S
N1264 H1277 0.985 . S
N1265 C1267 1.356 . S
N1265 H1270 0.984 . S
N1265 H1271 0.985 . S
C1266 C1260 1.379 . S
C1266 C1263 1.363 . S
C1266 N1264 1.356 . S
C1267 C1261 1.363 . S
C1267 C1262 1.379 . S
C1267 N1265 1.356 . S
N1268 C1260 1.356 . S
N1268 H1274 0.984 . S
N1268 H1275 0.984 . S
N1269 C1262 1.356 . S
N1269 H1272 0.984 . S
N1269 H1273 0.985 . S
H1270 N1265 0.984 . S
H1271 N1265 0.985 . S
H1272 N1269 0.984 . S
H1273 N1269 0.985 . S
H1274 N1268 0.984 . S
H1275 N1268 0.984 . S
H1276 N1264 0.984 . S
H1277 N1264 0.985 . S
C1278 C1279 1.363 . S
C1278 C1284 1.379 . S
C1278 N1286 1.356 . S
C1279 C1278 1.363 . S
C1279 C1285 1.363 . S
C1280 C1281 1.363 . S
C1280 C1285 1.379 . S
C1280 N1287 1.356 . S
C1281 C1280 1.363 . S
C1281 C1284 1.363 . S
N1282 C1284 1.356 . S
N1282 H1294 0.984 . S
N1282 H1295 0.985 . S
N1283 C1285 1.356 . S
N1283 H1288 0.984 . S
N1283 H1289 0.985 . S
C1284 C1278 1.379 . S
C1284 C1281 1.363 . S
C1284 N1282 1.356 . S
C1285 C1279 1.363 . S
C1285 C1280 1.379 . S
C1285 N1283 1.356 . S
N1286 C1278 1.356 . S
N1286 H1292 0.984 . S
N1286 H1293 0.984 . S
N1287 C1280 1.356 . S
N1287 H1290 0.984 . S
N1287 H1291 0.985 . S
H1288 N1283 0.984 . S
H1289 N1283 0.985 . S
H1290 N1287 0.984 . S
H1291 N1287 0.985 . S
H1292 N1286 0.984 . S
H1293 N1286 0.984 . S
H1294 N1282 0.984 . S
H1295 N1282 0.985 . S
C1296 C1297 1.363 . S
C1296 C1302 1.379 . S
C1296 N1304 1.356 . S
C1297 C1296 1.363 . S
C1297 C1303 1.363 . S
C1298 C1299 1.363 . S
C1298 C1303 1.379 . S
C1298 N1305 1.356 . S
C1299 C1298 1.363 . S
C1299 C1302 1.363 . S
N1300 C1302 1.356 . S
N1300 H1312 0.984 . S
N1300 H1313 0.985 . S
N1301 C1303 1.356 . S
N1301 H1306 0.984 . S
N1301 H1307 0.985 . S
C1302 C1296 1.379 . S
C1302 C1299 1.363 . S
C1302 N1300 1.356 . S
C1303 C1297 1.363 . S
C1303 C1298 1.379 . S
C1303 N1301 1.356 . S
N1304 C1296 1.356 . S
N1304 H1310 0.984 . S
N1304 H1311 0.984 . S
N1305 C1298 1.356 . S
N1305 H1308 0.984 . S
N1305 H1309 0.985 . S
H1306 N1301 0.984 . S
H1307 N1301 0.985 . S
H1308 N1305 0.984 . S
H1309 N1305 0.985 . S
H1310 N1304 0.984 . S
H1311 N1304 0.984 . S
H1312 N1300 0.984 . S
H1313 N1300 0.985 . S
C1314 C1315 1.363 . S
C1314 C1320 1.379 . S
C1314 N1322 1.356 . S
C1315 C1314 1.363 . S
C1315 C1321 1.363 . S
C1316 C1317 1.363 . S
C1316 C1321 1.379 . S
C1316 N1323 1.356 . S
C1317 C1316 1.363 . S
C1317 C1320 1.363 . S
N1318 C1320 1.356 . S
N1318 H1330 0.984 . S
N1318 H1331 0.985 . S
N1319 C1321 1.356 . S
N1319 H1324 0.984 . S
N1319 H1325 0.985 . S
C1320 C1314 1.379 . S
C1320 C1317 1.363 . S
C1320 N1318 1.356 . S
C1321 C1315 1.363 . S
C1321 C1316 1.379 . S
C1321 N1319 1.356 . S
N1322 C1314 1.356 . S
N1322 H1328 0.984 . S
N1322 H1329 0.984 . S
N1323 C1316 1.356 . S
N1323 H1326 0.984 . S
N1323 H1327 0.985 . S
H1324 N1319 0.984 . S
H1325 N1319 0.985 . S
H1326 N1323 0.984 . S
H1327 N1323 0.985 . S
H1328 N1322 0.984 . S
H1329 N1322 0.984 . S
H1330 N1318 0.984 . S
H1331 N1318 0.985 . S
C1332 C1333 1.363 . S
C1332 C1338 1.379 . S
C1332 N1340 1.356 . S
C1333 C1332 1.363 . S
C1333 C1339 1.363 . S
C1334 C1335 1.363 . S
C1334 C1339 1.379 . S
C1334 N1341 1.356 . S
C1335 C1334 1.363 . S
C1335 C1338 1.363 . S
N1336 C1338 1.356 . S
N1336 H1348 0.984 . S
N1336 H1349 0.985 . S
N1337 C1339 1.356 . S
N1337 H1342 0.984 . S
N1337 H1343 0.985 . S
C1338 C1332 1.379 . S
C1338 C1335 1.363 . S
C1338 N1336 1.356 . S
C1339 C1333 1.363 . S
C1339 C1334 1.379 . S
C1339 N1337 1.356 . S
N1340 C1332 1.356 . S
N1340 H1346 0.984 . S
N1340 H1347 0.984 . S
N1341 C1334 1.356 . S
N1341 H1344 0.984 . S
N1341 H1345 0.985 . S
H1342 N1337 0.984 . S
H1343 N1337 0.985 . S
H1344 N1341 0.984 . S
H1345 N1341 0.985 . S
H1346 N1340 0.984 . S
H1347 N1340 0.984 . S
H1348 N1336 0.984 . S
H1349 N1336 0.985 . S
C1350 C1351 1.363 . S
C1350 C1356 1.379 . S
C1350 N1358 1.356 . S
C1351 C1350 1.363 . S
C1351 C1357 1.363 . S
C1352 C1353 1.363 . S
C1352 C1357 1.379 . S
C1352 N1359 1.356 . S
C1353 C1352 1.363 . S
C1353 C1356 1.363 . S
N1354 C1356 1.356 . S
N1354 H1366 0.984 . S
N1354 H1367 0.985 . S
N1355 C1357 1.356 . S
N1355 H1360 0.984 . S
N1355 H1361 0.985 1_556 S
C1356 C1350 1.379 . S
C1356 C1353 1.363 . S
C1356 N1354 1.356 . S
C1357 C1351 1.363 . S
C1357 C1352 1.379 . S
C1357 N1355 1.356 . S
N1358 C1350 1.356 . S
N1358 H1364 0.984 . S
N1358 H1365 0.984 . S
N1359 C1352 1.356 . S
N1359 H1362 0.984 . S
N1359 H1363 0.985 . S
H1360 N1355 0.984 . S
H1361 N1355 0.985 1_554 S
H1362 N1359 0.984 . S
H1363 N1359 0.985 . S
H1364 N1358 0.984 . S
H1365 N1358 0.984 . S
H1366 N1354 0.984 . S
H1367 N1354 0.985 . S
C1368 C1369 1.363 . S
C1368 C1374 1.379 . S
C1368 N1376 1.356 . S
C1369 C1368 1.363 . S
C1369 C1375 1.363 . S
C1370 C1371 1.363 . S
C1370 C1375 1.379 . S
C1370 N1377 1.356 . S
C1371 C1370 1.363 . S
C1371 C1374 1.363 . S
N1372 C1374 1.356 . S
N1372 H1384 0.984 1_554 S
N1372 H1385 0.985 . S
N1373 C1375 1.356 . S
N1373 H1378 0.984 . S
N1373 H1379 0.985 . S
C1374 C1368 1.379 . S
C1374 C1371 1.363 . S
C1374 N1372 1.356 . S
C1375 C1369 1.363 . S
C1375 C1370 1.379 . S
C1375 N1373 1.356 . S
N1376 C1368 1.356 . S
N1376 H1382 0.984 . S
N1376 H1383 0.984 . S
N1377 C1370 1.356 . S
N1377 H1380 0.984 . S
N1377 H1381 0.985 . S
H1378 N1373 0.984 . S
H1379 N1373 0.985 . S
H1380 N1377 0.984 . S
H1381 N1377 0.985 . S
H1382 N1376 0.984 . S
H1383 N1376 0.984 . S
H1384 N1372 0.984 1_556 S
H1385 N1372 0.985 . S
C1386 C1387 1.363 . S
C1386 C1392 1.379 . S
C1386 N1394 1.356 . S
C1387 C1386 1.363 . S
C1387 C1393 1.363 . S
C1388 C1389 1.363 . S
C1388 C1393 1.379 . S
C1388 N1395 1.356 . S
C1389 C1388 1.363 . S
C1389 C1392 1.363 . S
N1390 C1392 1.356 . S
N1390 H1402 0.984 . S
N1390 H1403 0.985 . S
N1391 C1393 1.356 . S
N1391 H1396 0.984 . S
N1391 H1397 0.985 . S
C1392 C1386 1.379 . S
C1392 C1389 1.363 . S
C1392 N1390 1.356 . S
C1393 C1387 1.363 . S
C1393 C1388 1.379 . S
C1393 N1391 1.356 . S
N1394 C1386 1.356 . S
N1394 H1400 0.984 . S
N1394 H1401 0.984 . S
N1395 C1388 1.356 . S
N1395 H1398 0.984 . S
N1395 H1399 0.985 . S
H1396 N1391 0.984 . S
H1397 N1391 0.985 . S
H1398 N1395 0.984 . S
H1399 N1395 0.985 . S
H1400 N1394 0.984 . S
H1401 N1394 0.984 . S
H1402 N1390 0.984 . S
H1403 N1390 0.985 . S
C1404 C1405 1.363 . S
C1404 C1410 1.379 . S
C1404 N1412 1.356 . S
C1405 C1404 1.363 . S
C1405 C1411 1.363 . S
C1406 C1407 1.363 . S
C1406 C1411 1.379 . S
C1406 N1413 1.356 . S
C1407 C1406 1.363 . S
C1407 C1410 1.363 . S
N1408 C1410 1.356 . S
N1408 H1420 0.984 . S
N1408 H1421 0.985 . S
N1409 C1411 1.356 . S
N1409 H1414 0.984 . S
N1409 H1415 0.985 . S
C1410 C1404 1.379 . S
C1410 C1407 1.363 . S
C1410 N1408 1.356 . S
C1411 C1405 1.363 . S
C1411 C1406 1.379 . S
C1411 N1409 1.356 . S
N1412 C1404 1.356 . S
N1412 H1418 0.984 . S
N1412 H1419 0.984 . S
N1413 C1406 1.356 . S
N1413 H1416 0.984 . S
N1413 H1417 0.985 . S
H1414 N1409 0.984 . S
H1415 N1409 0.985 . S
H1416 N1413 0.984 . S
H1417 N1413 0.985 . S
H1418 N1412 0.984 . S
H1419 N1412 0.984 . S
H1420 N1408 0.984 . S
H1421 N1408 0.985 . S
C1422 C1423 1.363 . S
C1422 C1428 1.379 . S
C1422 N1430 1.356 . S
C1423 C1422 1.363 . S
C1423 C1429 1.363 . S
C1424 C1425 1.363 . S
C1424 C1429 1.379 . S
C1424 N1431 1.356 . S
C1425 C1424 1.363 . S
C1425 C1428 1.363 . S
N1426 C1428 1.356 . S
N1426 H1438 0.984 . S
N1426 H1439 0.985 . S
N1427 C1429 1.356 . S
N1427 H1432 0.984 . S
N1427 H1433 0.985 . S
C1428 C1422 1.379 . S
C1428 C1425 1.363 . S
C1428 N1426 1.356 . S
C1429 C1423 1.363 . S
C1429 C1424 1.379 . S
C1429 N1427 1.356 . S
N1430 C1422 1.356 . S
N1430 H1436 0.984 . S
N1430 H1437 0.984 . S
N1431 C1424 1.356 . S
N1431 H1434 0.984 . S
N1431 H1435 0.985 . S
H1432 N1427 0.984 . S
H1433 N1427 0.985 . S
H1434 N1431 0.984 . S
H1435 N1431 0.985 . S
H1436 N1430 0.984 . S
H1437 N1430 0.984 . S
H1438 N1426 0.984 . S
H1439 N1426 0.985 . S
C1440 C1441 1.363 . S
C1440 C1446 1.379 . S
C1440 N1448 1.356 . S
C1441 C1440 1.363 . S
C1441 C1447 1.363 . S
C1442 C1443 1.363 . S
C1442 C1447 1.379 . S
C1442 N1449 1.356 . S
C1443 C1442 1.363 . S
C1443 C1446 1.363 . S
N1444 C1446 1.356 . S
N1444 H1456 0.984 . S
N1444 H1457 0.985 . S
N1445 C1447 1.356 . S
N1445 H1450 0.984 . S
N1445 H1451 0.985 . S
C1446 C1440 1.379 . S
C1446 C1443 1.363 . S
C1446 N1444 1.356 . S
C1447 C1441 1.363 . S
C1447 C1442 1.379 . S
C1447 N1445 1.356 . S
N1448 C1440 1.356 . S
N1448 H1454 0.984 . S
N1448 H1455 0.984 . S
N1449 C1442 1.356 . S
N1449 H1452 0.984 . S
N1449 H1453 0.985 . S
H1450 N1445 0.984 . S
H1451 N1445 0.985 . S
H1452 N1449 0.984 . S
H1453 N1449 0.985 . S
H1454 N1448 0.984 . S
H1455 N1448 0.984 . S
H1456 N1444 0.984 . S
H1457 N1444 0.985 . S
C1458 C1459 1.363 . S
C1458 C1464 1.379 . S
C1458 N1466 1.356 . S
C1459 C1458 1.363 . S
C1459 C1465 1.363 . S
C1460 C1461 1.363 . S
C1460 C1465 1.379 . S
C1460 N1467 1.356 . S
C1461 C1460 1.363 . S
C1461 C1464 1.363 . S
N1462 C1464 1.356 . S
N1462 H1474 0.984 . S
N1462 H1475 0.985 . S
N1463 C1465 1.356 . S
N1463 H1468 0.984 . S
N1463 H1469 0.985 . S
C1464 C1458 1.379 . S
C1464 C1461 1.363 . S
C1464 N1462 1.356 . S
C1465 C1459 1.363 . S
C1465 C1460 1.379 . S
C1465 N1463 1.356 . S
N1466 C1458 1.356 . S
N1466 H1472 0.984 . S
N1466 H1473 0.984 . S
N1467 C1460 1.356 . S
N1467 H1470 0.984 . S
N1467 H1471 0.985 . S
H1468 N1463 0.984 . S
H1469 N1463 0.985 . S
H1470 N1467 0.984 . S
H1471 N1467 0.985 . S
H1472 N1466 0.984 . S
H1473 N1466 0.984 . S
H1474 N1462 0.984 . S
H1475 N1462 0.985 . S
C1476 C1477 1.363 . S
C1476 C1482 1.379 . S
C1476 N1484 1.356 . S
C1477 C1476 1.363 . S
C1477 C1483 1.363 . S
C1478 C1479 1.363 . S
C1478 C1483 1.379 . S
C1478 N1485 1.356 . S
C1479 C1478 1.363 . S
C1479 C1482 1.363 . S
N1480 C1482 1.356 . S
N1480 H1492 0.984 . S
N1480 H1493 0.985 . S
N1481 C1483 1.356 . S
N1481 H1486 0.984 . S
N1481 H1487 0.985 . S
C1482 C1476 1.379 . S
C1482 C1479 1.363 . S
C1482 N1480 1.356 . S
C1483 C1477 1.363 . S
C1483 C1478 1.379 . S
C1483 N1481 1.356 . S
N1484 C1476 1.356 . S
N1484 H1490 0.984 . S
N1484 H1491 0.984 . S
N1485 C1478 1.356 . S
N1485 H1488 0.984 . S
N1485 H1489 0.985 . S
H1486 N1481 0.984 . S
H1487 N1481 0.985 . S
H1488 N1485 0.984 . S
H1489 N1485 0.985 . S
H1490 N1484 0.984 . S
H1491 N1484 0.984 . S
H1492 N1480 0.984 . S
H1493 N1480 0.985 . S
C1494 C1495 1.363 . S
C1494 C1500 1.379 . S
C1494 N1502 1.356 . S
C1495 C1494 1.363 . S
C1495 C1501 1.363 . S
C1496 C1497 1.363 . S
C1496 C1501 1.379 . S
C1496 N1503 1.356 . S
C1497 C1496 1.363 . S
C1497 C1500 1.363 . S
N1498 C1500 1.356 . S
N1498 H1510 0.984 . S
N1498 H1511 0.985 . S
N1499 C1501 1.356 . S
N1499 H1504 0.984 . S
N1499 H1505 0.985 . S
C1500 C1494 1.379 . S
C1500 C1497 1.363 . S
C1500 N1498 1.356 . S
C1501 C1495 1.363 . S
C1501 C1496 1.379 . S
C1501 N1499 1.356 . S
N1502 C1494 1.356 . S
N1502 H1508 0.984 . S
N1502 H1509 0.984 . S
N1503 C1496 1.356 . S
N1503 H1506 0.984 . S
N1503 H1507 0.985 . S
H1504 N1499 0.984 . S
H1505 N1499 0.985 . S
H1506 N1503 0.984 . S
H1507 N1503 0.985 . S
H1508 N1502 0.984 . S
H1509 N1502 0.984 . S
H1510 N1498 0.984 . S
H1511 N1498 0.985 . S
C1512 C1513 1.363 . S
C1512 C1518 1.379 . S
C1512 N1520 1.356 . S
C1513 C1512 1.363 . S
C1513 C1519 1.363 . S
C1514 C1515 1.363 . S
C1514 C1519 1.379 . S
C1514 N1521 1.356 . S
C1515 C1514 1.363 . S
C1515 C1518 1.363 . S
N1516 C1518 1.356 . S
N1516 H1528 0.984 . S
N1516 H1529 0.985 . S
N1517 C1519 1.356 . S
N1517 H1522 0.984 . S
N1517 H1523 0.985 . S
C1518 C1512 1.379 . S
C1518 C1515 1.363 . S
C1518 N1516 1.356 . S
C1519 C1513 1.363 . S
C1519 C1514 1.379 . S
C1519 N1517 1.356 . S
N1520 C1512 1.356 . S
N1520 H1526 0.984 . S
N1520 H1527 0.984 . S
N1521 C1514 1.356 . S
N1521 H1524 0.984 . S
N1521 H1525 0.985 . S
H1522 N1517 0.984 . S
H1523 N1517 0.985 . S
H1524 N1521 0.984 . S
H1525 N1521 0.985 . S
H1526 N1520 0.984 . S
H1527 N1520 0.984 . S
H1528 N1516 0.984 . S
H1529 N1516 0.985 . S
C1530 C1531 1.363 . S
C1530 C1536 1.379 . S
C1530 N1538 1.356 . S
C1531 C1530 1.363 . S
C1531 C1537 1.363 . S
C1532 C1533 1.363 . S
C1532 C1537 1.379 . S
C1532 N1539 1.356 . S
C1533 C1532 1.363 . S
C1533 C1536 1.363 . S
N1534 C1536 1.356 . S
N1534 H1546 0.984 . S
N1534 H1547 0.985 . S
N1535 C1537 1.356 . S
N1535 H1540 0.984 . S
N1535 H1541 0.985 . S
C1536 C1530 1.379 . S
C1536 C1533 1.363 . S
C1536 N1534 1.356 . S
C1537 C1531 1.363 . S
C1537 C1532 1.379 . S
C1537 N1535 1.356 . S
N1538 C1530 1.356 . S
N1538 H1544 0.984 . S
N1538 H1545 0.984 . S
N1539 C1532 1.356 . S
N1539 H1542 0.984 . S
N1539 H1543 0.985 . S
H1540 N1535 0.984 . S
H1541 N1535 0.985 . S
H1542 N1539 0.984 . S
H1543 N1539 0.985 . S
H1544 N1538 0.984 . S
H1545 N1538 0.984 . S
H1546 N1534 0.984 . S
H1547 N1534 0.985 . S
C1548 C1549 1.363 . S
C1548 C1554 1.379 . S
C1548 N1556 1.356 . S
C1549 C1548 1.363 . S
C1549 C1555 1.363 . S
C1550 C1551 1.363 . S
C1550 C1555 1.379 . S
C1550 N1557 1.356 . S
C1551 C1550 1.363 . S
C1551 C1554 1.363 . S
N1552 C1554 1.356 . S
N1552 H1564 0.984 . S
N1552 H1565 0.985 . S
N1553 C1555 1.356 . S
N1553 H1558 0.984 . S
N1553 H1559 0.985 . S
C1554 C1548 1.379 . S
C1554 C1551 1.363 . S
C1554 N1552 1.356 . S
C1555 C1549 1.363 . S
C1555 C1550 1.379 . S
C1555 N1553 1.356 . S
N1556 C1548 1.356 . S
N1556 H1562 0.984 . S
N1556 H1563 0.984 . S
N1557 C1550 1.356 . S
N1557 H1560 0.984 . S
N1557 H1561 0.985 . S
H1558 N1553 0.984 . S
H1559 N1553 0.985 . S
H1560 N1557 0.984 . S
H1561 N1557 0.985 . S
H1562 N1556 0.984 . S
H1563 N1556 0.984 . S
H1564 N1552 0.984 . S
H1565 N1552 0.985 . S
C1566 C1567 1.363 . S
C1566 C1572 1.379 . S
C1566 N1574 1.356 . S
C1567 C1566 1.363 . S
C1567 C1573 1.363 . S
C1568 C1569 1.363 . S
C1568 C1573 1.379 . S
C1568 N1575 1.356 . S
C1569 C1568 1.363 . S
C1569 C1572 1.363 . S
N1570 C1572 1.356 . S
N1570 H1582 0.984 . S
N1570 H1583 0.985 . S
N1571 C1573 1.356 . S
N1571 H1576 0.984 . S
N1571 H1577 0.985 . S
C1572 C1566 1.379 . S
C1572 C1569 1.363 . S
C1572 N1570 1.356 . S
C1573 C1567 1.363 . S
C1573 C1568 1.379 . S
C1573 N1571 1.356 . S
N1574 C1566 1.356 . S
N1574 H1580 0.984 . S
N1574 H1581 0.984 . S
N1575 C1568 1.356 . S
N1575 H1578 0.984 . S
N1575 H1579 0.985 . S
H1576 N1571 0.984 . S
H1577 N1571 0.985 . S
H1578 N1575 0.984 . S
H1579 N1575 0.985 . S
H1580 N1574 0.984 . S
H1581 N1574 0.984 . S
H1582 N1570 0.984 . S
H1583 N1570 0.985 . S
C1584 C1585 1.363 . S
C1584 C1590 1.379 . S
C1584 N1592 1.356 . S
C1585 C1584 1.363 . S
C1585 C1591 1.363 . S
C1586 C1587 1.363 . S
C1586 C1591 1.379 . S
C1586 N1593 1.356 . S
C1587 C1586 1.363 . S
C1587 C1590 1.363 . S
N1588 C1590 1.356 . S
N1588 H1600 0.984 . S
N1588 H1601 0.985 . S
N1589 C1591 1.356 . S
N1589 H1594 0.984 . S
N1589 H1595 0.985 . S
C1590 C1584 1.379 . S
C1590 C1587 1.363 . S
C1590 N1588 1.356 . S
C1591 C1585 1.363 . S
C1591 C1586 1.379 . S
C1591 N1589 1.356 . S
N1592 C1584 1.356 . S
N1592 H1598 0.984 . S
N1592 H1599 0.984 . S
N1593 C1586 1.356 . S
N1593 H1596 0.984 . S
N1593 H1597 0.985 . S
H1594 N1589 0.984 . S
H1595 N1589 0.985 . S
H1596 N1593 0.984 . S
H1597 N1593 0.985 . S
H1598 N1592 0.984 . S
H1599 N1592 0.984 . S
H1600 N1588 0.984 . S
H1601 N1588 0.985 . S
C1602 C1603 1.363 . S
C1602 C1608 1.379 . S
C1602 N1610 1.356 . S
C1603 C1602 1.363 . S
C1603 C1609 1.363 . S
C1604 C1605 1.363 . S
C1604 C1609 1.379 . S
C1604 N1611 1.356 . S
C1605 C1604 1.363 . S
C1605 C1608 1.363 . S
N1606 C1608 1.356 . S
N1606 H1618 0.984 . S
N1606 H1619 0.985 . S
N1607 C1609 1.356 . S
N1607 H1612 0.984 . S
N1607 H1613 0.985 . S
C1608 C1602 1.379 . S
C1608 C1605 1.363 . S
C1608 N1606 1.356 . S
C1609 C1603 1.363 . S
C1609 C1604 1.379 . S
C1609 N1607 1.356 . S
N1610 C1602 1.356 . S
N1610 H1616 0.984 . S
N1610 H1617 0.984 . S
N1611 C1604 1.356 . S
N1611 H1614 0.984 . S
N1611 H1615 0.985 . S
H1612 N1607 0.984 . S
H1613 N1607 0.985 . S
H1614 N1611 0.984 . S
H1615 N1611 0.985 . S
H1616 N1610 0.984 . S
H1617 N1610 0.984 . S
H1618 N1606 0.984 . S
H1619 N1606 0.985 . S
C1620 C1621 1.363 . S
C1620 C1626 1.379 . S
C1620 N1628 1.356 . S
C1621 C1620 1.363 . S
C1621 C1627 1.363 . S
C1622 C1623 1.363 . S
C1622 C1627 1.379 . S
C1622 N1629 1.356 . S
C1623 C1622 1.363 . S
C1623 C1626 1.363 . S
N1624 C1626 1.356 . S
N1624 H1636 0.984 . S
N1624 H1637 0.985 . S
N1625 C1627 1.356 . S
N1625 H1630 0.984 . S
N1625 H1631 0.985 . S
C1626 C1620 1.379 . S
C1626 C1623 1.363 . S
C1626 N1624 1.356 . S
C1627 C1621 1.363 . S
C1627 C1622 1.379 . S
C1627 N1625 1.356 . S
N1628 C1620 1.356 . S
N1628 H1634 0.984 . S
N1628 H1635 0.984 . S
N1629 C1622 1.356 . S
N1629 H1632 0.984 . S
N1629 H1633 0.985 . S
H1630 N1625 0.984 . S
H1631 N1625 0.985 . S
H1632 N1629 0.984 . S
H1633 N1629 0.985 . S
H1634 N1628 0.984 . S
H1635 N1628 0.984 . S
H1636 N1624 0.984 . S
H1637 N1624 0.985 . S
C1638 C1639 1.363 . S
C1638 C1644 1.379 . S
C1638 N1646 1.356 . S
C1639 C1638 1.363 . S
C1639 C1645 1.363 . S
C1640 C1641 1.363 . S
C1640 C1645 1.379 . S
C1640 N1647 1.356 . S
C1641 C1640 1.363 . S
C1641 C1644 1.363 . S
N1642 C1644 1.356 . S
N1642 H1654 0.984 . S
N1642 H1655 0.985 . S
N1643 C1645 1.356 . S
N1643 H1648 0.984 . S
N1643 H1649 0.985 . S
C1644 C1638 1.379 . S
C1644 C1641 1.363 . S
C1644 N1642 1.356 . S
C1645 C1639 1.363 . S
C1645 C1640 1.379 . S
C1645 N1643 1.356 . S
N1646 C1638 1.356 . S
N1646 H1652 0.984 . S
N1646 H1653 0.984 . S
N1647 C1640 1.356 . S
N1647 H1650 0.984 . S
N1647 H1651 0.985 . S
H1648 N1643 0.984 . S
H1649 N1643 0.985 . S
H1650 N1647 0.984 . S
H1651 N1647 0.985 . S
H1652 N1646 0.984 . S
H1653 N1646 0.984 . S
H1654 N1642 0.984 . S
H1655 N1642 0.985 . S
C1656 C1657 1.363 . S
C1656 C1662 1.379 . S
C1656 N1664 1.356 . S
C1657 C1656 1.363 . S
C1657 C1663 1.363 . S
C1658 C1659 1.363 . S
C1658 C1663 1.379 . S
C1658 N1665 1.356 . S
C1659 C1658 1.363 . S
C1659 C1662 1.363 . S
N1660 C1662 1.356 . S
N1660 H1672 0.984 . S
N1660 H1673 0.985 . S
N1661 C1663 1.356 . S
N1661 H1666 0.984 . S
N1661 H1667 0.985 . S
C1662 C1656 1.379 . S
C1662 C1659 1.363 . S
C1662 N1660 1.356 . S
C1663 C1657 1.363 . S
C1663 C1658 1.379 . S
C1663 N1661 1.356 . S
N1664 C1656 1.356 . S
N1664 H1670 0.984 . S
N1664 H1671 0.984 . S
N1665 C1658 1.356 . S
N1665 H1668 0.984 . S
N1665 H1669 0.985 . S
H1666 N1661 0.984 . S
H1667 N1661 0.985 . S
H1668 N1665 0.984 . S
H1669 N1665 0.985 . S
H1670 N1664 0.984 . S
H1671 N1664 0.984 . S
H1672 N1660 0.984 . S
H1673 N1660 0.985 . S
C1674 C1675 1.363 . S
C1674 C1680 1.379 . S
C1674 N1682 1.356 . S
C1675 C1674 1.363 . S
C1675 C1681 1.363 . S
C1676 C1677 1.363 . S
C1676 C1681 1.379 . S
C1676 N1683 1.356 . S
C1677 C1676 1.363 . S
C1677 C1680 1.363 . S
N1678 C1680 1.356 . S
N1678 H1690 0.984 . S
N1678 H1691 0.985 . S
N1679 C1681 1.356 . S
N1679 H1684 0.984 . S
N1679 H1685 0.985 . S
C1680 C1674 1.379 . S
C1680 C1677 1.363 . S
C1680 N1678 1.356 . S
C1681 C1675 1.363 . S
C1681 C1676 1.379 . S
C1681 N1679 1.356 . S
N1682 C1674 1.356 . S
N1682 H1688 0.984 . S
N1682 H1689 0.984 . S
N1683 C1676 1.356 . S
N1683 H1686 0.984 . S
N1683 H1687 0.985 . S
H1684 N1679 0.984 . S
H1685 N1679 0.985 . S
H1686 N1683 0.984 . S
H1687 N1683 0.985 . S
H1688 N1682 0.984 . S
H1689 N1682 0.984 . S
H1690 N1678 0.984 . S
H1691 N1678 0.985 . S
C1692 C1693 1.363 . S
C1692 C1698 1.379 . S
C1692 N1700 1.356 . S
C1693 C1692 1.363 . S
C1693 C1699 1.363 . S
C1694 C1695 1.363 . S
C1694 C1699 1.379 . S
C1694 N1701 1.356 . S
C1695 C1694 1.363 . S
C1695 C1698 1.363 . S
N1696 C1698 1.356 . S
N1696 H1708 0.984 . S
N1696 H1709 0.985 . S
N1697 C1699 1.356 . S
N1697 H1702 0.984 . S
N1697 H1703 0.985 . S
C1698 C1692 1.379 . S
C1698 C1695 1.363 . S
C1698 N1696 1.356 . S
C1699 C1693 1.363 . S
C1699 C1694 1.379 . S
C1699 N1697 1.356 . S
N1700 C1692 1.356 . S
N1700 H1706 0.984 . S
N1700 H1707 0.984 . S
N1701 C1694 1.356 . S
N1701 H1704 0.984 . S
N1701 H1705 0.985 . S
H1702 N1697 0.984 . S
H1703 N1697 0.985 . S
H1704 N1701 0.984 . S
H1705 N1701 0.985 . S
H1706 N1700 0.984 . S
H1707 N1700 0.984 . S
H1708 N1696 0.984 . S
H1709 N1696 0.985 . S
C1710 C1711 1.363 . S
C1710 C1716 1.379 . S
C1710 N1718 1.356 . S
C1711 C1710 1.363 . S
C1711 C1717 1.363 . S
C1712 C1713 1.363 . S
C1712 C1717 1.379 . S
C1712 N1719 1.356 . S
C1713 C1712 1.363 . S
C1713 C1716 1.363 . S
N1714 C1716 1.356 . S
N1714 H1726 0.984 . S
N1714 H1727 0.985 . S
N1715 C1717 1.356 . S
N1715 H1720 0.984 . S
N1715 H1721 0.985 . S
C1716 C1710 1.379 . S
C1716 C1713 1.363 . S
C1716 N1714 1.356 . S
C1717 C1711 1.363 . S
C1717 C1712 1.379 . S
C1717 N1715 1.356 . S
N1718 C1710 1.356 . S
N1718 H1724 0.984 . S
N1718 H1725 0.984 . S
N1719 C1712 1.356 . S
N1719 H1722 0.984 . S
N1719 H1723 0.985 . S
H1720 N1715 0.984 . S
H1721 N1715 0.985 . S
H1722 N1719 0.984 . S
H1723 N1719 0.985 . S
H1724 N1718 0.984 . S
H1725 N1718 0.984 . S
H1726 N1714 0.984 . S
H1727 N1714 0.985 . S
C867 C689 1.745 . S
C865 C74 1.712 . S
C885 C694 1.204 . S
C883 C153 1.143 . S
C903 C695 1.701 . S
C901 C231 1.663 . S
C919 C310 0.956 . S
C921 C699 0.872 . S
C937 C394 1.143 . S
C939 C702 1.204 . S
C957 C703 1.701 . S
C955 C494 1.663 . S
C973 C573 0.956 . S
C975 C680 0.872 . S
C991 C651 1.713 . S
C993 C696 1.746 . S
C1011 C734 2.375 . S
C1009 C56 2.482 . S
C1027 C151 1.643 . S
C1029 C760 1.617 . S
C1047 C712 1.198 . S
C1045 C237 1.182 . S
C1065 C767 1.642 . S
C1063 C326 1.615 . S
C1081 C410 1.649 . S
C1083 C721 1.643 . S
C1101 C763 2.373 . S
C1099 C476 2.471 . S
C1117 C571 1.666 . S
C1119 C727 1.640 . S
C1135 C657 1.181 . S
C1137 C758 1.203 . S
C1153 C58 1.182 . S
C1155 C766 1.202 . S
C1171 C392 1.643 . S
C1173 C753 1.618 . S
C1191 C731 1.198 . S
C1189 C478 1.183 . S
C1209 C759 1.642 . S
C1207 C567 1.617 . S
C1225 C655 2.482 . S
C1227 C726 2.376 . S
C1243 C235 2.471 . S
C1245 C744 2.372 . S
C1263 C735 1.640 . S
C1261 C308 1.665 . S
C1279 C147 1.649 . S
C1281 C728 1.641 . S
C1297 C662 1.686 . S
C1299 C790 1.652 . S
C1315 C405 1.121 . S
C1317 C785 1.179 . S
C1335 C799 1.570 . S
C1333 C483 1.641 . S
C1353 C776 0.594 . S
C1351 C562 0.961 . S
C1369 C142 1.122 . S
C1371 C792 1.178 . S
C1389 C791 1.570 . S
C1387 C242 1.640 . S
C1405 C321 0.961 . S
C1407 C795 0.593 . S
C1423 C63 1.686 . S
C1425 C798 1.651 . S
C1441 C644 2.491 . S
C1443 C824 2.459 . S
C1461 C840 1.545 . S
C1459 C403 1.642 . S
C1477 C489 1.190 . S
C1479 C822 1.251 . S
C1495 C578 1.622 . S
C1497 C855 1.636 . S
C1515 C831 1.605 . S
C1513 C158 1.632 . S
C1531 C224 2.498 . S
C1533 C849 2.424 . S
C1551 C827 1.541 . S
C1549 C319 1.644 . S
C1569 C862 1.224 . S
C1567 C69 1.197 . S
C1587 C854 1.224 . S
C1585 C646 1.197 . S
C1603 C140 1.642 . S
C1605 C859 1.545 . S
C1621 C226 1.190 . S
C1623 C830 1.251 . S
C1641 C863 1.636 . S
C1639 C315 1.622 . S
C1657 C67 2.491 . S
C1659 C817 2.458 . S
C1675 C487 2.498 . S
C1677 C856 2.424 . S
C1695 C808 1.541 . S
C1693 C560 1.644 . S
C1713 C823 1.605 . S
C1711 C399 1.632 . S
