# Generated by pormake.
# Topology zzz, (3,6)-cn, num edge types: 1
# Building blocks:
#     Node 0, Type 0, BuildingBlock: OLANEW_clean_sbu_2, # of connection points: 3
#     Node 1, Type 0, BuildingBlock: OLANEW_clean_sbu_2, # of connection points: 3
#     Node 2, Type 0, BuildingBlock: OLANEW_clean_sbu_2, # of connection points: 3
#     Node 3, Type 0, BuildingBlock: OLANEW_clean_sbu_2, # of connection points: 3
#     Node 4, Type 0, BuildingBlock: OLANEW_clean_sbu_2, # of connection points: 3
#     Node 5, Type 0, BuildingBlock: OLANEW_clean_sbu_2, # of connection points: 3
#     Node 6, Type 0, BuildingBlock: OLANEW_clean_sbu_2, # of connection points: 3
#     Node 7, Type 0, BuildingBlock: OLANEW_clean_sbu_2, # of connection points: 3
#     Node 8, Type 1, BuildingBlock: FUNLAD_clean_sbu_0, # of connection points: 6
#     Node 9, Type 1, BuildingBlock: FUNLAD_clean_sbu_0, # of connection points: 6
#     Node 10, Type 1, BuildingBlock: FUNLAD_clean_sbu_0, # of connection points: 6
#     Node 11, Type 1, BuildingBlock: FUNLAD_clean_sbu_0, # of connection points: 6
#     Edge 12, Type (0, 1), BuildingBlock: EZIPEK_clean_linker_0, # of connection points: 2
#     Edge 13, Type (0, 1), BuildingBlock: EZIPEK_clean_linker_0, # of connection points: 2
#     Edge 14, Type (0, 1), BuildingBlock: EZIPEK_clean_linker_0, # of connection points: 2
#     Edge 15, Type (0, 1), BuildingBlock: EZIPEK_clean_linker_0, # of connection points: 2
#     Edge 16, Type (0, 1), BuildingBlock: EZIPEK_clean_linker_0, # of connection points: 2
#     Edge 17, Type (0, 1), BuildingBlock: EZIPEK_clean_linker_0, # of connection points: 2
#     Edge 18, Type (0, 1), BuildingBlock: EZIPEK_clean_linker_0, # of connection points: 2
#     Edge 19, Type (0, 1), BuildingBlock: EZIPEK_clean_linker_0, # of connection points: 2
#     Edge 20, Type (0, 1), BuildingBlock: EZIPEK_clean_linker_0, # of connection points: 2
#     Edge 21, Type (0, 1), BuildingBlock: EZIPEK_clean_linker_0, # of connection points: 2
#     Edge 22, Type (0, 1), BuildingBlock: EZIPEK_clean_linker_0, # of connection points: 2
#     Edge 23, Type (0, 1), BuildingBlock: EZIPEK_clean_linker_0, # of connection points: 2
#     Edge 24, Type (0, 1), BuildingBlock: EZIPEK_clean_linker_0, # of connection points: 2
#     Edge 25, Type (0, 1), BuildingBlock: EZIPEK_clean_linker_0, # of connection points: 2
#     Edge 26, Type (0, 1), BuildingBlock: EZIPEK_clean_linker_0, # of connection points: 2
#     Edge 27, Type (0, 1), BuildingBlock: EZIPEK_clean_linker_0, # of connection points: 2
#     Edge 28, Type (0, 1), BuildingBlock: EZIPEK_clean_linker_0, # of connection points: 2
#     Edge 29, Type (0, 1), BuildingBlock: EZIPEK_clean_linker_0, # of connection points: 2
#     Edge 30, Type (0, 1), BuildingBlock: EZIPEK_clean_linker_0, # of connection points: 2
#     Edge 31, Type (0, 1), BuildingBlock: EZIPEK_clean_linker_0, # of connection points: 2
#     Edge 32, Type (0, 1), BuildingBlock: EZIPEK_clean_linker_0, # of connection points: 2
#     Edge 33, Type (0, 1), BuildingBlock: EZIPEK_clean_linker_0, # of connection points: 2
#     Edge 34, Type (0, 1), BuildingBlock: EZIPEK_clean_linker_0, # of connection points: 2
#     Edge 35, Type (0, 1), BuildingBlock: EZIPEK_clean_linker_0, # of connection points: 2
# Relax obj value: 0.105
# Max RMSD: 0.172
# Mean RMSD: 0.098
data_MOF--net-zzz--node1-OLANEW_clean_sbu_2--node2-FUNLAD_clean_sbu_0--edge1-EZIPEK_clean_linker_0
_symmetry_space_group_name_H-M    P1
_symmetry_Int_Tables_number       1
_symmetry_cell_setting            triclinic
loop_
_symmetry_equiv_pos_as_xyz
'x, y, z'
_cell_length_a     41.585697
_cell_length_b     46.536663
_cell_length_c     14.499459
_cell_angle_alpha  84.412003
_cell_angle_beta   84.233932
_cell_angle_gamma 90.098614
loop_
_atom_site_label
_atom_site_type_symbol
_atom_site_fract_x
_atom_site_fract_y
_atom_site_fract_z
_atom_type_partial_charge
O0 O 0.83602 0.49415 0.80664 0.0
Cd1 Cd 0.79581 0.51065 0.92231 0.0
O2 O 0.86173 0.49134 0.93088 0.0
Cd3 Cd 0.90582 0.48681 -0.00135 0.0
O4 O 0.94231 0.48173 0.09462 0.0
C5 C 0.96063 0.50298 0.10244 0.0
O6 O 0.95911 0.52678 0.04645 0.0
C7 C 0.86227 0.49063 0.84354 0.0
C8 C 0.73626 0.48366 0.93912 0.0
O9 O 0.74336 0.50484 0.87696 0.0
O10 O 0.75778 0.47456 0.99193 0.0
O11 O 0.9364 0.83902 0.71761 0.0
Cd12 Cd 0.91118 0.79135 0.74558 0.0
O13 O 0.93342 0.83346 0.87016 0.0
Cd14 Cd 0.94452 0.85157 0.99571 0.0
O15 O 0.96099 0.88109 0.08825 0.0
C16 C 0.94507 0.90387 0.1009 0.0
O17 O 0.91844 0.9087 0.06061 0.0
C18 C 0.94185 0.84853 0.79379 0.0
C19 C 0.94948 0.74671 0.68101 0.0
O20 O 0.958 0.76153 0.7445 0.0
O21 O 0.92334 0.75378 0.6452 0.0
O22 O 0.72468 0.05445 0.87372 0.0
Cd23 Cd 0.77458 0.05504 0.94958 0.0
O24 O 0.709 0.03439 0.01364 0.0
Cd25 Cd 0.67276 0.01448 0.11952 0.0
O26 O 0.64113 0.00693 0.24847 0.0
C27 C 0.6117 0.99917 0.25204 0.0
O28 O 0.59911 0.99452 0.17525 0.0
C29 C 0.70261 0.04213 0.93112 0.0
C30 C 0.83493 0.05174 0.84622 0.0
O31 O 0.81214 0.03371 0.84037 0.0
O32 O 0.82848 0.07257 0.89637 0.0
O33 O 0.57576 0.6474 0.0031 0.0
Cd34 Cd 0.59875 0.68844 0.06907 0.0
O35 O 0.566 0.63161 0.15054 0.0
Cd36 Cd 0.54807 0.59778 0.25832 0.0
O37 O 0.53629 0.56107 0.36123 0.0
C38 C 0.53419 0.56609 0.44603 0.0
O39 O 0.5394 0.59246 0.46669 0.0
C40 C 0.56437 0.62792 0.06546 0.0
C41 C 0.5841 0.7439 0.99427 0.0
O42 O 0.56334 0.72865 0.04974 0.0
O43 O 0.61142 0.73252 0.97115 0.0
O44 O 0.25133 0.59806 0.38158 0.0
Cd45 Cd 0.3027 0.62341 0.34654 0.0
O46 O 0.23629 0.5939 0.24203 0.0
Cd47 Cd 0.19972 0.57841 0.15984 0.0
O48 O 0.16467 0.55619 0.08866 0.0
C49 C 0.15233 0.56991 0.02112 0.0
O50 O 0.15984 0.59728 -0.00158 0.0
C51 C 0.23114 0.58939 0.33009 0.0
C52 C 0.32973 0.61161 0.51243 0.0
O53 O 0.31376 0.63486 0.4981 0.0
O54 O 0.33495 0.59535 0.44625 0.0
O55 O 0.13092 0.18316 0.68673 0.0
Cd56 Cd 0.16823 0.22419 0.68071 0.0
O57 O 0.13553 0.18813 0.53381 0.0
Cd58 Cd 0.12503 0.16928 0.40892 0.0
O59 O 0.1077 0.14061 0.31495 0.0
C60 C 0.11206 0.11364 0.3302 0.0
O61 O 0.1274 0.1035 0.40102 0.0
C62 C 0.1244 0.17444 0.61034 0.0
C63 C 0.14141 0.27888 0.66327 0.0
O64 O 0.14482 0.26593 0.74379 0.0
O65 O 0.1498 0.26579 0.59103 0.0
O66 O 0.31348 0.91335 0.75697 0.0
Cd67 Cd 0.2653 0.89096 0.71108 0.0
O68 O 0.33171 0.91649 0.60909 0.0
Cd69 Cd 0.36954 0.92999 0.49782 0.0
O70 O 0.40258 0.9519 0.387 0.0
C71 C 0.4186 0.9371 0.32972 0.0
O72 O 0.41601 0.90882 0.3403 0.0
C73 C 0.3359 0.92037 0.69258 0.0
C74 C 0.21285 0.92747 0.69721 0.0
O75 O 0.21651 0.91207 0.77356 0.0
O76 O 0.23436 0.92629 0.62793 0.0
O77 O 0.38281 0.29628 0.85064 0.0
Cd78 Cd 0.35193 0.25745 0.79783 0.0
O79 O 0.36543 0.32601 0.73967 0.0
Cd80 Cd 0.36922 0.36894 0.6636 0.0
O81 O 0.39157 0.40116 0.55728 0.0
C82 C 0.38512 0.39822 0.47505 0.0
O83 O 0.36486 0.37771 0.46153 0.0
C84 C 0.38219 0.32141 0.80801 0.0
C85 C 0.3879 0.20735 0.7867 0.0
O86 O 0.38835 0.2264 0.71653 0.0
O87 O 0.37052 0.2119 0.86187 0.0
C88 C 0.00478 0.95906 0.77218 0.0
N89 N 0.02156 0.99831 0.50007 0.0
C90 C 0.02909 0.97075 0.4831 0.0
C91 C 0.01771 0.95876 0.40834 0.0
C92 C -0.00154 0.97531 0.35039 0.0
C93 C 0.99263 0.00424 0.36511 0.0
C94 C 0.00449 0.01544 0.44136 0.0
Zn95 Zn 0.02876 0.0097 0.62886 0.0
C96 C 0.9687 0.03379 0.71928 0.0
N97 N 0.03939 0.02643 0.90674 0.0
C98 C 0.05614 0.00924 0.96605 0.0
C99 C 0.0309 0.0537 0.92491 0.0
C100 C 0.0408 0.06526 0.00255 0.0
C101 C 0.05947 0.04854 0.06202 0.0
C102 C 0.06643 0.01995 0.04503 0.0
Zn103 Zn 0.03253 0.01499 0.77816 0.0
O104 O 0.00978 0.96837 0.68661 0.0
C105 C 0.0919 0.98881 0.68992 0.0
O106 O 0.01244 0.97463 0.83393 0.0
H107 H 0.01794 0.06713 0.87632 0.0
H108 H 0.04205 0.95734 0.53111 0.0
H109 H 0.06296 0.98778 0.94961 0.0
O110 O 0.07667 0.99284 0.61794 0.0
O111 O 0.07893 0.99617 0.76705 0.0
H112 H -0.00161 0.03715 0.45684 0.0
O113 O 0.05319 0.05555 0.72082 0.0
O114 O 0.0476 0.0509 0.57382 0.0
O115 O 0.98533 0.03245 0.78835 0.0
O116 O 0.98111 0.02627 0.64183 0.0
C117 C 0.05664 0.06572 0.63588 0.0
H118 H 0.02258 0.93634 0.39839 0.0
H119 H 0.9775 0.01732 0.32153 0.0
H120 H 0.03514 0.08744 0.01401 0.0
H121 H 0.08107 0.0067 0.08966 0.0
C122 C 0.46056 0.96478 0.75989 0.0
N123 N 0.49125 0.04879 0.78245 0.0
C124 C 0.47388 0.05685 0.70965 0.0
C125 C 0.4584 0.08348 0.70421 0.0
C126 C 0.46092 0.1018 0.77438 0.0
C127 C 0.47981 0.09349 0.84693 0.0
C128 C 0.49489 0.06669 0.84968 0.0
Zn129 Zn 0.509 0.0079 0.79721 0.0
C130 C 0.49237 0.97932 0.98688 0.0
N131 N 0.5444 0.92143 0.82967 0.0
C132 C 0.53475 0.9012 0.77601 0.0
C133 C 0.56252 0.91403 0.90131 0.0
C134 C 0.57097 0.88531 0.92261 0.0
C135 C 0.55984 0.86387 0.87159 0.0
C136 C 0.54187 0.87208 0.79669 0.0
Zn137 Zn 0.52796 0.963 0.81156 0.0
O138 O 0.46453 0.99155 0.76573 0.0
C139 C 0.54346 0.99056 0.62075 0.0
O140 O 0.48376 0.9476 0.77256 0.0
H141 H 0.56955 0.93024 0.9442 0.0
H142 H 0.47122 0.04226 0.6572 0.0
H143 H 0.52056 0.90746 0.71898 0.0
O144 O 0.52711 0.01092 0.65414 0.0
O145 O 0.54787 0.96751 0.6723 0.0
H146 H 0.50871 0.0598 0.90704 0.0
O147 O 0.57175 0.97959 0.84954 0.0
O148 O 0.55384 0.02399 0.82957 0.0
O149 O 0.50745 0.95882 0.95088 0.0
O150 O 0.49065 0.00365 0.93974 0.0
C151 C 0.57625 0.00663 0.84926 0.0
H152 H 0.44389 0.0894 0.64746 0.0
H153 H 0.48208 0.10725 0.90211 0.0
H154 H 0.58486 0.87968 0.98096 0.0
H155 H 0.53289 0.85605 0.75597 0.0
C156 C 0.44843 0.42193 0.90226 0.0
N157 N 0.41053 0.50581 0.91466 0.0
C158 C 0.39968 0.5004 0.83245 0.0
C159 C 0.38131 0.52069 0.78513 0.0
C160 C 0.37421 0.54678 0.82244 0.0
C161 C 0.38275 0.55084 0.9114 0.0
C162 C 0.4011 0.52976 0.957 0.0
Zn163 Zn 0.45099 0.4838 0.94684 0.0
C164 C 0.44908 0.45447 0.13375 0.0
N165 N 0.53936 0.44082 0.98434 0.0
C166 C 0.5579 0.43077 0.91182 0.0
C167 C 0.55213 0.44608 0.06397 0.0
C168 C 0.58542 0.44521 0.06768 0.0
C169 C 0.60534 0.43947 0.98798 0.0
C170 C 0.59143 0.4302 0.91181 0.0
Zn171 Zn 0.49665 0.45994 0.96068 0.0
O172 O 0.43269 0.44533 0.90202 0.0
C173 C 0.49819 0.48988 0.7742 0.0
O174 O 0.4771 0.42123 0.92542 0.0
H175 H 0.5371 0.45435 0.12036 0.0
H176 H 0.40806 0.48183 0.79814 0.0
H177 H 0.54718 0.42642 0.84963 0.0
O178 O 0.47119 0.49787 0.81077 0.0
O179 O 0.51461 0.47171 0.81994 0.0
H180 H 0.4102 0.53381 0.02186 0.0
O181 O 0.51653 0.49918 0.99361 0.0
O182 O 0.47033 0.52155 0.99208 0.0
O183 O 0.47768 0.44865 0.10153 0.0
O184 O 0.43114 0.4699 0.0832 0.0
C185 C 0.50029 0.52198 0.00198 0.0
H186 H 0.37504 0.5171 0.71635 0.0
H187 H 0.37751 0.57092 0.94156 0.0
H188 H 0.59565 0.45252 0.12729 0.0
H189 H 0.60635 0.42559 0.84946 0.0
C190 C 0.1115 0.53652 0.50094 0.0
N191 N 0.07618 0.4534 0.60664 0.0
C192 C 0.09485 0.44319 0.53463 0.0
C193 C 0.10544 0.41465 0.5418 0.0
C194 C 0.09642 0.39659 0.62342 0.0
C195 C 0.07707 0.40751 0.69638 0.0
C196 C 0.06728 0.43622 0.68664 0.0
Zn197 Zn 0.06053 0.4951 0.59561 0.0
C198 C 0.07639 0.52638 0.75392 0.0
N199 N 0.02847 0.58284 0.57711 0.0
C200 C 0.0395 0.60379 0.50883 0.0
C201 C 0.0076 0.58932 0.65055 0.0
C202 C 0.99647 0.61725 0.65642 0.0
C203 C 0.0081 0.63939 0.58896 0.0
C204 C 0.03003 0.63254 0.51439 0.0
Zn205 Zn 0.04468 0.54092 0.58126 0.0
O206 O 0.10706 0.51015 0.53236 0.0
C207 C 0.03044 0.51036 0.4211 0.0
O208 O 0.08852 0.55426 0.50933 0.0
H209 H 7e-05 0.57309 0.70687 0.0
H210 H 0.10154 0.45719 0.47161 0.0
H211 H 0.05627 0.59844 0.45131 0.0
O212 O 0.0453 0.49013 0.46364 0.0
O213 O 0.02603 0.53436 0.45531 0.0
H214 H 0.05257 0.44481 0.74313 0.0
O215 O 0.0007 0.52654 0.65299 0.0
O216 O 0.01343 0.48092 0.65632 0.0
O217 O 0.06422 0.54696 0.70559 0.0
O218 O 0.07597 0.501 0.72839 0.0
C219 C 0.9927 0.50025 0.6728 0.0
H220 H 0.12045 0.40671 0.48447 0.0
H221 H 0.0699 0.39402 0.76034 0.0
H222 H 0.97983 0.62178 0.71554 0.0
H223 H 0.03985 0.64922 0.46174 0.0
C224 C 0.15921 0.93528 0.63568 0.0
C225 C 0.18339 0.94487 0.68812 0.0
C226 C 0.14977 0.98601 0.7284 0.0
C227 C 0.12394 0.97439 0.68566 0.0
N228 N 0.10243 0.93429 0.61557 0.0
N229 N 0.20127 0.97781 0.79127 0.0
C230 C 0.1283 0.94822 0.64277 0.0
C231 C 0.17852 0.96978 0.73665 0.0
N232 N 0.16545 0.91337 0.58028 0.0
N233 N 0.14743 0.01303 0.75789 0.0
H234 H 0.22347 0.96756 0.79448 0.0
H235 H 0.19739 0.99348 0.83766 0.0
H236 H 0.12712 0.02589 0.75232 0.0
H237 H 0.16671 0.0239 0.78009 0.0
H238 H 0.15018 0.90801 0.53167 0.0
H239 H 0.187 0.90194 0.57724 0.0
H240 H 0.10353 0.91361 0.59378 0.0
H241 H 0.07893 0.94171 0.62505 0.0
C242 C 0.44076 0.18179 0.76023 0.0
C243 C 0.40663 0.18042 0.78085 0.0
C244 C 0.40854 0.12759 0.80326 0.0
C245 C 0.44222 0.12891 0.77503 0.0
N246 N 0.48972 0.15667 0.71184 0.0
N247 N 0.35726 0.15213 0.80334 0.0
C248 C 0.45815 0.15587 0.74904 0.0
C249 C 0.39028 0.15334 0.79731 0.0
N250 N 0.45673 0.20768 0.75569 0.0
N251 N 0.39414 0.10185 0.83847 0.0
H252 H 0.34296 0.17048 0.79734 0.0
H253 H 0.34416 0.13296 0.80523 0.0
H254 H 0.40662 0.08243 0.84357 0.0
H255 H 0.37049 0.10012 0.86996 0.0
H256 H 0.4818 0.20962 0.75094 0.0
H257 H 0.44496 0.22711 0.76504 0.0
H258 H 0.50165 0.17554 0.68218 0.0
H259 H 0.50327 0.13809 0.70348 0.0
C260 C 0.31759 0.59076 0.67782 0.0
C261 C 0.34059 0.60247 0.60457 0.0
C262 C 0.38486 0.58668 0.69586 0.0
C263 C 0.36216 0.57071 0.7608 0.0
N264 N 0.30736 0.55808 0.81934 0.0
N265 N 0.39563 0.61357 0.54362 0.0
C266 C 0.32854 0.57342 0.75454 0.0
C267 C 0.37413 0.6014 0.61427 0.0
N268 N 0.28538 0.59566 0.67275 0.0
N269 N 0.41668 0.58732 0.71221 0.0
H270 H 0.38834 0.62598 0.48564 0.0
H271 H 0.42051 0.61068 0.54035 0.0
H272 H 0.4252 0.57648 0.77116 0.0
H273 H 0.43424 0.60026 0.67189 0.0
H274 H 0.26756 0.58996 0.72712 0.0
H275 H 0.2764 0.60737 0.61611 0.0
H276 H 0.28273 0.55607 0.81369 0.0
H277 H 0.3148 0.54628 0.87826 0.0
C278 C 0.14872 0.33148 0.67999 0.0
C279 C 0.12961 0.30891 0.65368 0.0
C280 C 0.08989 0.34414 0.60086 0.0
C281 C 0.10783 0.36637 0.63353 0.0
N282 N 0.15188 0.38126 0.71484 0.0
N283 N 0.08008 0.29267 0.60141 0.0
C284 C 0.13652 0.36003 0.67641 0.0
C285 C 0.09969 0.31494 0.61708 0.0
N286 N 0.17921 0.32584 0.7042 0.0
N287 N 0.06375 0.35104 0.55323 0.0
H288 H 0.08645 0.27104 0.61272 0.0
H289 H 0.05648 0.29537 0.58433 0.0
H290 H 0.05517 0.37205 0.54309 0.0
H291 H 0.05183 0.33639 0.51834 0.0
H292 H 0.19574 0.34183 0.71384 0.0
H293 H 0.18919 0.30527 0.70709 0.0
H294 H 0.17056 0.37733 0.75696 0.0
H295 H 0.14451 0.40272 0.71018 0.0
C296 C 0.88093 0.01924 0.79615 0.0
C297 C 0.86837 0.04757 0.8016 0.0
C298 C 0.92231 0.06768 0.74612 0.0
C299 C 0.93369 0.03951 0.7341 0.0
N300 N 0.92062 0.98977 0.71796 0.0
N301 N 0.87559 0.0986 0.75233 0.0
C302 C 0.91182 0.0158 0.74809 0.0
C303 C 0.8886 0.07184 0.76782 0.0
N304 N 0.86513 0.99566 0.84372 0.0
N305 N 0.94358 0.09039 0.73742 0.0
H306 H 0.85077 0.10216 0.7599 0.0
H307 H 0.88905 0.11648 0.721 0.0
H308 H 0.96825 0.08814 0.71851 0.0
H309 H 0.93698 0.1109 0.75506 0.0
H310 H 0.87476 0.97499 0.84597 0.0
H311 H 0.84485 0.99693 0.8913 0.0
H312 H 0.9042 0.97275 0.71885 0.0
H313 H 0.94334 0.98598 0.68445 0.0
C314 C 0.58521 0.78505 0.86649 0.0
C315 C 0.57722 0.77438 0.9613 0.0
C316 C 0.55292 0.8209 0.9913 0.0
C317 C 0.56525 0.8328 0.90083 0.0
N318 N 0.59874 0.82719 0.75781 0.0
N319 N 0.56088 0.78535 0.11909 0.0
C320 C 0.58301 0.81516 0.83978 0.0
C321 C 0.56305 0.79315 0.02529 0.0
N322 N 0.59354 0.76643 0.80101 0.0
N323 N 0.53081 0.83568 0.04412 0.0
H324 H 0.57012 0.76615 0.1483 0.0
H325 H 0.55343 0.79953 0.16821 0.0
H326 H 0.52172 0.85563 0.02051 0.0
H327 H 0.51892 0.82663 0.107 0.0
H328 H 0.59664 0.77294 0.72982 0.0
H329 H 0.59379 0.74409 0.81656 0.0
H330 H 0.61463 0.81569 0.71535 0.0
H331 H 0.59843 0.84926 0.73678 0.0
C332 C 0.67686 0.49074 0.96709 0.0
C333 C 0.70306 0.47163 0.95394 0.0
C334 C 0.66524 0.43049 0.97355 0.0
C335 C 0.63918 0.45005 0.97584 0.0
N336 N 0.62037 0.49918 0.95168 0.0
N337 N 0.72231 0.42373 0.92958 0.0
C338 C 0.64502 0.48031 0.96576 0.0
C339 C 0.69736 0.44153 0.95339 0.0
N340 N 0.68217 0.51857 0.98518 0.0
N341 N 0.6593 0.40152 0.9922 0.0
H342 H 0.74603 0.43112 0.91221 0.0
H343 H 0.71905 0.40216 0.91891 0.0
H344 H 0.63598 0.39283 0.00615 0.0
H345 H 0.67745 0.3864 0.0011 0.0
H346 H 0.66354 0.53239 0.00468 0.0
H347 H 0.70508 0.52689 0.99113 0.0
H348 H 0.62412 0.52129 0.93458 0.0
H349 H 0.59663 0.49262 0.94738 0.0
C350 C 0.97039 0.71427 0.55875 0.0
C351 C 0.96849 0.72129 0.65253 0.0
C352 C 0.00329 0.68027 0.68864 0.0
C353 C -0.00149 0.66963 0.60273 0.0
N354 N 0.9732 0.67544 0.45904 0.0
N355 N 0.97779 0.70547 0.81257 0.0
C356 C 0.98107 0.6864 0.53794 0.0
C357 C 0.98379 0.70304 0.71925 0.0
N358 N 0.96307 0.73433 0.48905 0.0
N359 N 0.02608 0.66832 0.74173 0.0
H360 H 0.96066 0.71927 0.8409 0.0
H361 H 0.98667 0.69087 0.8628 0.0
H362 H 0.04139 0.652 0.71987 0.0
H363 H 0.03203 0.67689 0.80172 0.0
H364 H 0.96654 0.73074 0.41889 0.0
H365 H 0.95753 0.75564 0.50017 0.0
H366 H 0.95771 0.68593 0.41486 0.0
H367 H 0.97965 0.65483 0.44216 0.0
C368 C 0.07399 0.14647 0.59158 0.0
C369 C 0.10694 0.1467 0.60962 0.0
C370 C 0.10801 0.09391 0.61566 0.0
C371 C 0.07419 0.09351 0.61118 0.0
N372 N 0.02429 0.11855 0.59453 0.0
N373 N 0.15544 0.12091 0.64268 0.0
C374 C 0.05698 0.11959 0.59805 0.0
C375 C 0.12402 0.12047 0.62254 0.0
N376 N 0.05912 0.17191 0.56781 0.0
N377 N 0.12493 0.06889 0.60956 0.0
H378 H 0.16857 0.13994 0.64414 0.0
H379 H 0.16794 0.10246 0.66385 0.0
H380 H 0.11383 0.04934 0.60093 0.0
H381 H 0.15005 0.06794 0.60346 0.0
H382 H 0.03624 0.17317 0.54457 0.0
H383 H 0.07056 0.19196 0.5657 0.0
H384 H 0.00949 0.13654 0.59624 0.0
H385 H 0.0117 0.0992 0.5933 0.0
C386 C 0.37935 0.9586 0.6641 0.0
C387 C 0.36695 0.93255 0.71407 0.0
C388 C 0.41383 0.93024 0.80384 0.0
C389 C 0.42848 0.95358 0.74369 0.0
N390 N 0.42745 0.98623 0.60379 0.0
N391 N 0.37577 0.8904 0.81969 0.0
C392 C 0.41186 0.96682 0.67025 0.0
C393 C 0.38506 0.91747 0.78092 0.0
N394 N 0.35988 0.97596 0.61285 0.0
N395 N 0.42644 0.92101 0.88498 0.0
H396 H 0.35545 0.87967 0.80292 0.0
H397 H 0.39011 0.87746 0.86138 0.0
H398 H 0.44665 0.93054 0.90707 0.0
H399 H 0.41468 0.90603 0.93533 0.0
H400 H 0.36697 0.99647 0.58218 0.0
H401 H 0.33559 0.97107 0.60884 0.0
H402 H 0.4172 0.99432 0.54399 0.0
H403 H 0.45177 0.99184 0.60303 0.0
C404 C 0.39127 0.35723 0.92094 0.0
C405 C 0.40119 0.3454 0.83624 0.0
C406 C 0.4442 0.3822 0.79896 0.0
C407 C 0.43267 0.39529 0.88019 0.0
N408 N 0.39405 0.39716 0.01556 0.0
N409 N 0.43596 0.34625 0.69253 0.0
C410 C 0.40594 0.38328 0.94055 0.0
C411 C 0.42749 0.35771 0.77484 0.0
N412 N 0.36788 0.34347 0.98288 0.0
N413 N 0.47108 0.3933 0.74487 0.0
H414 H 0.42583 0.32717 0.67559 0.0
H415 H 0.45196 0.35605 0.63891 0.0
H416 H 0.4826 0.41235 0.75641 0.0
H417 H 0.48305 0.38314 0.69076 0.0
H418 H 0.36231 0.34876 0.05068 0.0
H419 H 0.35516 0.32532 0.96904 0.0
H420 H 0.3723 0.39176 0.05543 0.0
H421 H 0.40499 0.41536 0.03585 0.0
C422 C 0.18205 0.58807 0.44511 0.0
C423 C 0.20102 0.57487 0.37443 0.0
C424 C 0.16097 0.53567 0.38542 0.0
C425 C 0.14375 0.54766 0.46174 0.0
N426 N 0.14368 0.58027 0.58164 0.0
N427 N 0.21267 0.53224 0.29462 0.0
C428 C 0.15609 0.57233 0.49705 0.0
C429 C 0.19175 0.54747 0.34957 0.0
N430 N 0.18772 0.61611 0.46002 0.0
N431 N 0.14751 0.514 0.34437 0.0
H432 H 0.23578 0.53981 0.26896 0.0
H433 H 0.20819 0.51101 0.28194 0.0
H434 H 0.12481 0.50502 0.36751 0.0
H435 H 0.15768 0.50676 0.28227 0.0
H436 H 0.17245 0.62738 0.50492 0.0
H437 H 0.20543 0.62913 0.42027 0.0
H438 H 0.15392 0.59657 0.6141 0.0
H439 H 0.12559 0.56845 0.62415 0.0
C440 C 0.94084 0.90041 0.8271 0.0
C441 C 0.95854 0.87658 0.79507 0.0
C442 C 0.00845 0.90562 0.77386 0.0
C443 C 0.99022 0.92998 0.79704 0.0
N444 N 0.94206 0.94934 0.87219 0.0
N445 N 0.0088 0.85581 0.73722 0.0
C446 C 0.95725 0.92701 0.8319 0.0
C447 C 0.99233 0.87894 0.76872 0.0
N448 N 0.90806 0.898 0.84782 0.0
N449 N 0.0414 0.90785 0.76259 0.0
H450 H -0.00187 0.83555 0.73661 0.0
H451 H 0.03262 0.8569 0.70715 0.0
H452 H 0.05347 0.92673 0.77343 0.0
H453 H 0.05682 0.89064 0.75223 0.0
H454 H 0.89312 0.9153 0.86155 0.0
H455 H 0.89525 0.87885 0.84528 0.0
H456 H 0.91905 0.94781 0.90779 0.0
H457 H 0.95353 0.96902 0.87673 0.0
C458 C 0.66716 0.01765 0.83108 0.0
C459 C 0.67021 0.03583 0.90299 0.0
C460 C 0.61132 0.03463 0.94122 0.0
C461 C 0.60828 0.01783 0.86593 0.0
N462 N 0.63238 0.99966 0.72492 0.0
N463 N 0.64513 0.0668 0.01274 0.0
C464 C 0.63593 0.01126 0.80647 0.0
C465 C 0.64221 0.04592 0.95388 0.0
N466 N 0.69386 0.00513 0.78963 0.0
N467 N 0.58505 0.03873 0.003 0.0
H468 H 0.66735 0.07588 0.02239 0.0
H469 H 0.62544 0.07703 0.04506 0.0
H470 H 0.56211 0.03049 0.99683 0.0
H471 H 0.58649 0.04814 0.06476 0.0
H472 H 0.69254 0.98909 0.74472 0.0
H473 H 0.71725 0.00872 0.80616 0.0
H474 H 0.65152 0.99735 0.67414 0.0
H475 H 0.60989 0.99502 0.70355 0.0
C476 C 0.56003 0.57393 0.08178 0.0
C477 C 0.54974 0.60087 0.04104 0.0
C478 C 0.51083 0.57536 0.9614 0.0
C479 C 0.51693 0.54925 0.0162 0.0
N480 N 0.54349 0.52554 0.1434 0.0
N481 N 0.5111 0.62748 0.95307 0.0
C482 C 0.54057 0.54897 0.08039 0.0
C483 C 0.52399 0.60172 0.98362 0.0
N484 N 0.58873 0.572 0.12015 0.0
N485 N 0.49398 0.57501 0.88526 0.0
H486 H 0.5194 0.64735 0.96919 0.0
H487 H 0.49013 0.62886 0.91915 0.0
H488 H 0.4858 0.55608 0.86198 0.0
H489 H 0.49153 0.59322 0.83875 0.0
H490 H 0.59864 0.55234 0.14303 0.0
H491 H 0.60415 0.58973 0.11994 0.0
H492 H 0.55856 0.52546 0.19668 0.0
H493 H 0.52819 0.50754 0.14951 0.0
C494 C 0.91634 0.46785 0.81389 0.0
C495 C 0.89365 0.4889 0.78631 0.0
C496 C 0.93401 0.50968 0.66415 0.0
C497 C 0.95841 0.49316 0.70585 0.0
N498 N 0.9727 0.45834 0.82991 0.0
N499 N 0.88316 0.53338 0.69267 0.0
C500 C 0.94962 0.47233 0.78253 0.0
C501 C 0.90284 0.51057 0.71256 0.0
N502 N 0.90609 0.4437 0.87036 0.0
N503 N 0.94039 0.52449 0.57808 0.0
H504 H 0.86063 0.53625 0.72856 0.0
H505 H 0.89075 0.55121 0.64634 0.0
H506 H 0.96272 0.52409 0.53868 0.0
H507 H 0.92242 0.53448 0.54157 0.0
H508 H 0.92126 0.42652 0.88639 0.0
H509 H 0.88173 0.43972 0.89321 0.0
H510 H 0.96723 0.44531 0.89218 0.0
H511 H 0.99739 0.46185 0.81259 0.0
C512 C 0.12032 0.08268 0.19904 0.0
C513 C 0.09916 0.09381 0.26928 0.0
C514 C 0.05289 0.07027 0.21428 0.0
C515 C 0.07357 0.06201 0.1376 0.0
N516 N 0.12604 0.06379 0.04867 0.0
N517 N 0.04573 0.09886 0.34657 0.0
C518 C 0.10714 0.0688 0.12822 0.0
C519 C 0.06549 0.08772 0.2779 0.0
N520 N 0.15303 0.08548 0.19984 0.0
N521 N 0.02134 0.06114 0.22611 0.0
H522 H 0.0545 0.11042 0.39705 0.0
H523 H 0.02062 0.09779 0.35229 0.0
H524 H 0.01174 0.04768 0.18205 0.0
H525 H 0.005 0.06526 0.28219 0.0
H526 H 0.16975 0.07497 0.1569 0.0
H527 H 0.16357 0.09644 0.24875 0.0
H528 H 0.14971 0.07139 0.03302 0.0
H529 H 0.11741 0.05416 0.99392 0.0
C530 C 0.4216 0.96574 0.17379 0.0
C531 C 0.43778 0.95157 0.24671 0.0
C532 C 0.49009 0.96276 0.15629 0.0
C533 C 0.47375 0.97335 0.07909 0.0
N534 N 0.42363 0.98151 0.00945 0.0
N535 N 0.4871 0.93467 0.30668 0.0
C536 C 0.43942 0.9744 0.08674 0.0
C537 C 0.47197 0.94962 0.23792 0.0
N538 N 0.38908 0.97048 0.18685 0.0
N539 N 0.52289 0.96599 0.15215 0.0
H540 H 0.4749 0.92627 0.36998 0.0
H541 H 0.51137 0.92906 0.29852 0.0
H542 H 0.53674 0.97595 0.09366 0.0
H543 H 0.53595 0.96136 0.20921 0.0
H544 H 0.37683 0.98387 0.14067 0.0
H545 H 0.37455 0.96278 0.24695 0.0
H546 H 0.39882 0.9788 0.00826 0.0
H547 H 0.43537 0.98786 0.94383 0.0
C548 C 0.42366 0.39706 0.33281 0.0
C549 C 0.40461 0.41358 0.39417 0.0
C550 C 0.42111 0.45779 0.29434 0.0
C551 C 0.43559 0.44067 0.22594 0.0
N552 N 0.4464 0.39317 0.17511 0.0
N553 N 0.38339 0.45958 0.43269 0.0
C554 C 0.436 0.41008 0.24399 0.0
C555 C 0.40305 0.44401 0.37535 0.0
N556 N 0.43076 0.36905 0.36047 0.0
N557 N 0.42545 0.48709 0.28311 0.0
H558 H 0.37013 0.45024 0.49308 0.0
H559 H 0.37848 0.48135 0.41712 0.0
H560 H 0.43905 0.49775 0.22542 0.0
H561 H 0.41824 0.50049 0.33469 0.0
H562 H 0.44733 0.35693 0.32226 0.0
H563 H 0.42287 0.35893 0.42628 0.0
H564 H 0.44339 0.3708 0.18199 0.0
H565 H 0.45508 0.40132 0.10785 0.0
C566 C 0.09843 0.56263 0.96265 0.0
C567 C 0.13141 0.55493 0.96375 0.0
C568 C 0.12771 0.52639 0.83192 0.0
C569 C 0.09433 0.53316 0.83257 0.0
N570 N 0.04647 0.55358 0.907 0.0
N571 N 0.17573 0.52477 0.91345 0.0
C572 C 0.07925 0.55006 0.90072 0.0
C573 C 0.14532 0.535 0.90371 0.0
N574 N 0.08562 0.58216 0.02035 0.0
N575 N 0.14352 0.51416 0.7583 0.0
H576 H 0.19053 0.53185 0.96072 0.0
H577 H 0.18537 0.50751 0.87956 0.0
H578 H 0.13241 0.50846 0.70146 0.0
H579 H 0.16855 0.51225 0.7485 0.0
H580 H 0.06299 0.5914 0.01587 0.0
H581 H 0.09831 0.59019 0.07101 0.0
H582 H 0.03341 0.56384 0.9591 0.0
H583 H 0.03167 0.54378 0.86486 0.0
C584 C 0.98763 0.9385 0.13281 0.0
C585 C 0.957 0.92505 0.1593 0.0
C586 C 0.95066 0.95059 0.29994 0.0
C587 C 0.98287 0.96117 0.27897 0.0
N588 N 0.03308 0.96415 0.17985 0.0
N589 N 0.91038 0.91566 0.27149 0.0
C590 C 0.00159 0.955 0.1962 0.0
C591 C 0.93851 0.93072 0.24311 0.0
N592 N 0.00296 0.93606 0.04599 0.0
N593 N 0.93185 0.95919 0.37498 0.0
H594 H 0.90076 0.90071 0.23241 0.0
H595 H 0.89775 0.91618 0.337 0.0
H596 H 0.94033 0.97243 0.42147 0.0
H597 H 0.90713 0.95499 0.38769 0.0
H598 H 0.02374 0.94767 0.01881 0.0
H599 H 0.99345 0.92412 0.99772 0.0
H600 H 0.04937 0.95695 0.12801 0.0
H601 H 0.0435 0.97784 0.22168 0.0
C602 C 0.58986 0.02207 0.39366 0.0
C603 C 0.59138 0.99763 0.34224 0.0
C604 C 0.55566 0.97095 0.46602 0.0
C605 C 0.55839 0.99381 0.52307 0.0
N606 N 0.58436 0.0388 0.54669 0.0
N607 N 0.57993 0.94704 0.33556 0.0
C608 C 0.57701 0.01888 0.48841 0.0
C609 C 0.57531 0.97155 0.37978 0.0
N610 N 0.60004 0.04853 0.35153 0.0
N611 N 0.53372 0.94908 0.49302 0.0
H612 H 0.59436 0.94651 0.27265 0.0
H613 H 0.57164 0.92674 0.36508 0.0
H614 H 0.51753 0.94879 0.55293 0.0
H615 H 0.52933 0.93274 0.45165 0.0
H616 H 0.59652 0.06752 0.38368 0.0
H617 H 0.60876 0.05194 0.28126 0.0
H618 H 0.60066 0.05579 0.52609 0.0
H619 H 0.57718 0.03675 0.61797 0.0
C620 C 0.5497 0.5381 0.59003 0.0
C621 C 0.52765 0.54246 0.52166 0.0
C622 C 0.49218 0.50466 0.60703 0.0
C623 C 0.51124 0.50432 0.68286 0.0
N624 N 0.55649 0.52362 0.75125 0.0
N625 N 0.47632 0.53147 0.46751 0.0
C626 C 0.53985 0.52148 0.67542 0.0
C627 C 0.49863 0.52586 0.52987 0.0
N628 N 0.58029 0.54946 0.57267 0.0
N629 N 0.46802 0.48459 0.60889 0.0
H630 H 0.47981 0.54704 0.41063 0.0
H631 H 0.45323 0.52229 0.47618 0.0
H632 H 0.46308 0.4686 0.66425 0.0
H633 H 0.45515 0.48198 0.55217 0.0
H634 H 0.59837 0.5446 0.61633 0.0
H635 H 0.58857 0.56125 0.50981 0.0
H636 H 0.57506 0.53862 0.75207 0.0
H637 H 0.55025 0.51226 0.81604 0.0
C638 C 0.96409 0.49595 0.27437 0.0
C639 C 0.97972 0.5025 0.18305 0.0
C640 C 0.03009 0.51309 0.2478 0.0
C641 C 0.01474 0.50486 0.33813 0.0
N642 N 0.9708 0.47973 0.43447 0.0
N643 N 0.0294 0.50981 0.0823 0.0
C644 C 0.98295 0.49336 0.35045 0.0
C645 C 0.01332 0.50894 0.16938 0.0
N646 N 0.93113 0.49404 0.28962 0.0
N647 N 0.06038 0.52515 0.23705 0.0
H648 H 0.01791 0.50603 0.02381 0.0
H649 H 0.05448 0.51135 0.06981 0.0
H650 H 0.07369 0.52751 0.29321 0.0
H651 H 0.0714 0.53432 0.17324 0.0
H652 H 0.91873 0.49223 0.35611 0.0
H653 H 0.91594 0.49747 0.23677 0.0
H654 H 0.94873 0.46866 0.44441 0.0
H655 H 0.98419 0.47705 0.49169 0.0
loop_
_geom_bond_atom_site_label_1
_geom_bond_atom_site_label_2
_geom_bond_distance
_geom_bond_site_symmetry_2
_ccdc_geom_bond_type
O0 Cd1 2.300 . S
O0 C7 1.275 . S
Cd1 O0 2.300 . S
Cd1 O9 2.381 . S
Cd1 O10 2.378 . S
O2 Cd3 2.385 . S
O2 C7 1.255 . S
Cd3 O2 2.385 . S
Cd3 O4 2.317 . S
O4 Cd3 2.317 . S
O4 C5 1.232 . S
C5 O4 1.232 . S
C5 O6 1.218 . S
O6 C5 1.218 . S
C7 O0 1.275 . S
C7 O2 1.255 . S
C8 O9 1.258 . S
C8 O10 1.256 . S
O9 Cd1 2.381 . S
O9 C8 1.258 . S
O10 Cd1 2.378 . S
O10 C8 1.256 . S
O11 Cd12 2.300 . S
O11 C18 1.275 . S
Cd12 O11 2.300 . S
Cd12 O20 2.381 . S
Cd12 O21 2.378 . S
O13 Cd14 2.397 1_556 S
O13 C18 1.242 1_455 S
Cd14 O13 2.397 1_554 S
Cd14 O15 2.317 1_455 S
O15 Cd14 2.317 1_655 S
O15 C16 1.232 . S
C16 O15 1.232 . S
C16 O17 1.206 1_655 S
O17 C16 1.206 1_455 S
C18 O11 1.275 . S
C18 O13 1.242 1_655 S
C19 O20 1.258 . S
C19 O21 1.256 . S
O20 Cd12 2.381 . S
O20 C19 1.258 . S
O21 Cd12 2.378 . S
O21 C19 1.256 . S
O22 Cd23 2.300 1_566 S
O22 C29 1.275 1_565 S
Cd23 O22 2.300 1_544 S
Cd23 O31 2.381 1_544 S
Cd23 O32 2.378 . S
O24 Cd25 2.385 . S
O24 C29 1.255 1_554 S
Cd25 O24 2.385 . S
Cd25 O26 2.317 . S
O26 Cd25 2.317 . S
O26 C27 1.232 . S
C27 O26 1.232 . S
C27 O28 1.218 . S
O28 C27 1.218 . S
C29 O22 1.275 1_545 S
C29 O24 1.255 1_556 S
C30 O31 1.254 1_544 S
C30 O32 1.261 . S
O31 Cd23 2.381 1_566 S
O31 C30 1.254 1_566 S
O32 Cd23 2.378 . S
O32 C30 1.261 . S
O33 Cd34 2.300 1_556 S
O33 C40 1.275 1_556 S
Cd34 O33 2.300 1_554 S
Cd34 O42 2.381 1_554 S
Cd34 O43 2.378 . S
O35 Cd36 2.385 . S
O35 C40 1.255 . S
Cd36 O35 2.385 . S
Cd36 O37 2.317 . S
O37 Cd36 2.317 . S
O37 C38 1.232 . S
C38 O37 1.232 . S
C38 O39 1.218 . S
O39 C38 1.218 . S
C40 O33 1.275 1_554 S
C40 O35 1.255 . S
C41 O42 1.258 1_554 S
C41 O43 1.256 . S
O42 Cd34 2.381 1_556 S
O42 C41 1.258 1_556 S
O43 Cd34 2.378 . S
O43 C41 1.256 . S
O44 Cd45 2.300 . S
O44 C51 1.275 . S
Cd45 O44 2.300 . S
Cd45 O53 2.381 . S
Cd45 O54 2.378 . S
O46 Cd47 2.385 . S
O46 C51 1.255 . S
Cd47 O46 2.385 . S
Cd47 O48 2.317 . S
O48 Cd47 2.317 . S
O48 C49 1.232 . S
C49 O48 1.232 . S
C49 O50 1.218 . S
O50 C49 1.218 . S
C51 O44 1.275 . S
C51 O46 1.255 . S
C52 O53 1.258 . S
C52 O54 1.256 . S
O53 Cd45 2.381 . S
O53 C52 1.258 . S
O54 Cd45 2.378 . S
O54 C52 1.256 . S
O55 Cd56 2.300 . S
O55 C62 1.275 . S
Cd56 O55 2.300 . S
Cd56 O64 2.381 . S
Cd56 O65 2.378 . S
O57 Cd58 2.385 . S
O57 C62 1.255 . S
Cd58 O57 2.385 . S
Cd58 O59 2.317 . S
O59 Cd58 2.317 . S
O59 C60 1.232 . S
C60 O59 1.232 . S
C60 O61 1.218 . S
O61 C60 1.218 . S
C62 O55 1.275 . S
C62 O57 1.255 . S
C63 O64 1.258 . S
C63 O65 1.256 . S
O64 Cd56 2.381 . S
O64 C63 1.258 . S
O65 Cd56 2.378 . S
O65 C63 1.256 . S
O66 Cd67 2.300 1_565 S
O66 C73 1.275 1_565 S
Cd67 O66 2.300 1_545 S
Cd67 O75 2.381 1_545 S
Cd67 O76 2.378 . S
O68 Cd69 2.385 . S
O68 C73 1.255 . S
Cd69 O68 2.385 . S
Cd69 O70 2.317 . S
O70 Cd69 2.317 . S
O70 C71 1.232 . S
C71 O70 1.232 . S
C71 O72 1.218 . S
O72 C71 1.218 . S
C73 O66 1.275 1_545 S
C73 O68 1.255 . S
C74 O75 1.258 1_545 S
C74 O76 1.256 . S
O75 Cd67 2.381 1_565 S
O75 C74 1.258 1_565 S
O76 Cd67 2.378 . S
O76 C74 1.256 . S
O77 Cd78 2.300 . S
O77 C84 1.275 . S
Cd78 O77 2.300 . S
Cd78 O86 2.381 . S
Cd78 O87 2.378 . S
O79 Cd80 2.385 . S
O79 C84 1.255 . S
Cd80 O79 2.385 . S
Cd80 O81 2.317 . S
O81 Cd80 2.317 . S
O81 C82 1.232 . S
C82 O81 1.232 . S
C82 O83 1.218 . S
O83 C82 1.218 . S
C84 O77 1.275 . S
C84 O79 1.255 . S
C85 O86 1.258 . S
C85 O87 1.256 . S
O86 Cd78 2.381 . S
O86 C85 1.258 . S
O87 Cd78 2.378 . S
O87 C85 1.256 . S
C88 O104 1.251 . S
C88 O106 1.254 . S
N89 C90 1.333 . S
N89 C94 1.307 1_455 S
N89 Zn95 2.020 . S
C90 N89 1.333 . S
C90 C91 1.379 . S
C90 H108 0.952 . S
C91 C90 1.379 . S
C91 C92 1.390 1_455 S
C91 H118 0.949 . S
C92 C91 1.390 1_655 S
C92 C93 1.357 . S
C93 C92 1.357 . S
C93 C94 1.370 . S
C93 H119 0.950 . S
C94 N89 1.307 1_655 S
C94 C93 1.370 . S
C94 H112 0.948 1_565 S
Zn95 N89 2.020 . S
Zn95 O104 2.039 . S
Zn95 O110 2.034 . S
Zn95 O114 2.025 1_565 S
Zn95 O116 2.024 1_455 S
C96 O115 1.246 . S
C96 O116 1.249 1_545 S
N97 C98 1.307 1_556 S
N97 C99 1.333 . S
N97 Zn103 2.020 . S
C98 N97 1.307 1_554 S
C98 C102 1.370 . S
C98 H109 0.948 1_545 S
C99 N97 1.333 . S
C99 C100 1.379 1_556 S
C99 H107 0.952 . S
C100 C99 1.379 1_554 S
C100 C101 1.390 . S
C100 H120 0.949 . S
C101 C100 1.390 . S
C101 C102 1.357 . S
C102 C98 1.370 . S
C102 C101 1.357 . S
C102 H121 0.950 . S
Zn103 N97 2.020 . S
Zn103 O106 2.025 1_545 S
Zn103 O111 2.024 . S
Zn103 O113 2.039 . S
Zn103 O115 2.034 1_455 S
O104 C88 1.251 . S
O104 Zn95 2.039 . S
C105 O110 1.246 . S
C105 O111 1.249 1_565 S
O106 C88 1.254 . S
O106 Zn103 2.025 1_565 S
H107 C99 0.952 . S
H108 C90 0.952 . S
H109 C98 0.948 1_565 S
O110 Zn95 2.034 . S
O110 C105 1.246 . S
O111 Zn103 2.024 . S
O111 C105 1.249 1_545 S
H112 C94 0.948 1_545 S
O113 Zn103 2.039 . S
O113 C117 1.251 . S
O114 Zn95 2.025 1_545 S
O114 C117 1.254 . S
O115 C96 1.246 . S
O115 Zn103 2.034 1_655 S
O116 Zn95 2.024 1_655 S
O116 C96 1.249 1_565 S
C117 O113 1.251 . S
C117 O114 1.254 . S
H118 C91 0.949 . S
H119 C93 0.950 . S
H120 C100 0.949 . S
H121 C102 0.950 . S
C122 O138 1.251 1_565 S
C122 O140 1.254 . S
N123 C124 1.333 . S
N123 C128 1.307 . S
N123 Zn129 2.020 . S
C124 N123 1.333 . S
C124 C125 1.379 . S
C124 H142 0.952 . S
C125 C124 1.379 . S
C125 C126 1.390 . S
C125 H152 0.949 . S
C126 C125 1.390 . S
C126 C127 1.357 . S
C127 C126 1.357 . S
C127 C128 1.370 . S
C127 H153 0.950 . S
C128 N123 1.307 . S
C128 C127 1.370 . S
C128 H146 0.948 . S
Zn129 N123 2.020 . S
Zn129 O138 2.039 . S
Zn129 O144 2.034 . S
Zn129 O148 2.025 . S
Zn129 O150 2.024 . S
C130 O149 1.246 1_545 S
C130 O150 1.249 . S
N131 C132 1.307 . S
N131 C133 1.333 . S
N131 Zn137 2.020 . S
C132 N131 1.307 . S
C132 C136 1.370 . S
C132 H143 0.948 . S
C133 N131 1.333 . S
C133 C134 1.379 . S
C133 H141 0.952 . S
C134 C133 1.379 . S
C134 C135 1.390 . S
C134 H154 0.949 . S
C135 C134 1.390 . S
C135 C136 1.357 . S
C136 C132 1.370 . S
C136 C135 1.357 . S
C136 H155 0.950 . S
Zn137 N131 2.020 . S
Zn137 O140 2.025 . S
Zn137 O145 2.024 . S
Zn137 O147 2.039 . S
Zn137 O149 2.034 . S
O138 C122 1.251 1_545 S
O138 Zn129 2.039 . S
C139 O144 1.246 1_565 S
C139 O145 1.249 . S
O140 C122 1.254 . S
O140 Zn137 2.025 . S
H141 C133 0.952 . S
H142 C124 0.952 . S
H143 C132 0.948 . S
O144 Zn129 2.034 . S
O144 C139 1.246 1_545 S
O145 Zn137 2.024 . S
O145 C139 1.249 . S
H146 C128 0.948 . S
O147 Zn137 2.039 . S
O147 C151 1.251 1_565 S
O148 Zn129 2.025 . S
O148 C151 1.254 . S
O149 C130 1.246 1_565 S
O149 Zn137 2.034 . S
O150 Zn129 2.024 . S
O150 C130 1.249 . S
C151 O147 1.251 1_545 S
C151 O148 1.254 . S
H152 C125 0.949 . S
H153 C127 0.950 . S
H154 C134 0.949 . S
H155 C136 0.950 . S
C156 O172 1.251 . S
C156 O174 1.254 . S
N157 C158 1.333 . S
N157 C162 1.307 . S
N157 Zn163 2.020 . S
C158 N157 1.333 . S
C158 C159 1.379 . S
C158 H176 0.952 . S
C159 C158 1.379 . S
C159 C160 1.390 . S
C159 H186 0.949 . S
C160 C159 1.390 . S
C160 C161 1.357 . S
C161 C160 1.357 . S
C161 C162 1.370 . S
C161 H187 0.950 . S
C162 N157 1.307 . S
C162 C161 1.370 . S
C162 H180 0.948 . S
Zn163 N157 2.020 . S
Zn163 O172 2.039 . S
Zn163 O178 2.034 . S
Zn163 O182 2.025 . S
Zn163 O184 2.024 . S
C164 O183 1.246 . S
C164 O184 1.249 . S
N165 C166 1.307 . S
N165 C167 1.333 . S
N165 Zn171 2.020 . S
C166 N165 1.307 . S
C166 C170 1.370 . S
C166 H177 0.948 . S
C167 N165 1.333 . S
C167 C168 1.379 . S
C167 H175 0.952 . S
C168 C167 1.379 . S
C168 C169 1.390 . S
C168 H188 0.949 . S
C169 C168 1.390 . S
C169 C170 1.357 . S
C170 C166 1.370 . S
C170 C169 1.357 . S
C170 H189 0.950 . S
Zn171 N165 2.020 . S
Zn171 O174 2.025 . S
Zn171 O179 2.024 . S
Zn171 O181 2.039 . S
Zn171 O183 2.034 . S
O172 C156 1.251 . S
O172 Zn163 2.039 . S
C173 O178 1.246 . S
C173 O179 1.249 . S
O174 C156 1.254 . S
O174 Zn171 2.025 . S
H175 C167 0.952 . S
H176 C158 0.952 . S
H177 C166 0.948 . S
O178 Zn163 2.034 . S
O178 C173 1.246 . S
O179 Zn171 2.024 . S
O179 C173 1.249 . S
H180 C162 0.948 . S
O181 Zn171 2.039 . S
O181 C185 1.251 . S
O182 Zn163 2.025 . S
O182 C185 1.254 . S
O183 C164 1.246 . S
O183 Zn171 2.034 . S
O184 Zn163 2.024 . S
O184 C164 1.249 . S
C185 O181 1.251 . S
C185 O182 1.254 . S
H186 C159 0.949 . S
H187 C161 0.950 . S
H188 C168 0.949 . S
H189 C170 0.950 . S
C190 O206 1.251 . S
C190 O208 1.254 . S
N191 C192 1.333 . S
N191 C196 1.307 . S
N191 Zn197 2.020 . S
C192 N191 1.333 . S
C192 C193 1.379 . S
C192 H210 0.952 . S
C193 C192 1.379 . S
C193 C194 1.390 . S
C193 H220 0.949 . S
C194 C193 1.390 . S
C194 C195 1.357 . S
C195 C194 1.357 . S
C195 C196 1.370 . S
C195 H221 0.950 . S
C196 N191 1.307 . S
C196 C195 1.370 . S
C196 H214 0.948 . S
Zn197 N191 2.020 . S
Zn197 O206 2.039 . S
Zn197 O212 2.034 1_455 S
Zn197 O216 2.025 1_455 S
Zn197 O218 2.024 . S
C198 O217 1.246 . S
C198 O218 1.249 . S
N199 C200 1.307 . S
N199 C201 1.333 . S
N199 Zn205 2.020 . S
C200 N199 1.307 . S
C200 C204 1.370 . S
C200 H211 0.948 . S
C201 N199 1.333 . S
C201 C202 1.379 1_455 S
C201 H209 0.952 1_455 S
C202 C201 1.379 1_655 S
C202 C203 1.390 1_655 S
C202 H222 0.949 . S
C203 C202 1.390 1_455 S
C203 C204 1.357 . S
C204 C200 1.370 . S
C204 C203 1.357 . S
C204 H223 0.950 . S
Zn205 N199 2.020 . S
Zn205 O208 2.025 . S
Zn205 O213 2.024 1_455 S
Zn205 O215 2.039 1_455 S
Zn205 O217 2.034 . S
O206 C190 1.251 . S
O206 Zn197 2.039 . S
C207 O212 1.246 . S
C207 O213 1.249 . S
O208 C190 1.254 . S
O208 Zn205 2.025 . S
H209 C201 0.952 1_655 S
H210 C192 0.952 . S
H211 C200 0.948 . S
O212 Zn197 2.034 1_655 S
O212 C207 1.246 . S
O213 Zn205 2.024 1_655 S
O213 C207 1.249 . S
H214 C196 0.948 . S
O215 Zn205 2.039 1_655 S
O215 C219 1.251 . S
O216 Zn197 2.025 1_655 S
O216 C219 1.254 . S
O217 C198 1.246 . S
O217 Zn205 2.034 . S
O218 Zn197 2.024 . S
O218 C198 1.249 . S
C219 O215 1.251 . S
C219 O216 1.254 . S
H220 C193 0.949 . S
H221 C195 0.950 . S
H222 C202 0.949 . S
H223 C204 0.950 . S
C224 C225 1.363 . S
C224 C230 1.379 . S
C224 N232 1.356 . S
C225 C224 1.363 . S
C225 C231 1.363 1_565 S
C226 C227 1.363 1_545 S
C226 C231 1.379 . S
C226 N233 1.356 . S
C227 C226 1.363 1_565 S
C227 C230 1.363 . S
N228 C230 1.356 . S
N228 H240 0.984 . S
N228 H241 0.985 . S
N229 C231 1.356 . S
N229 H234 0.984 . S
N229 H235 0.985 . S
C230 C224 1.379 . S
C230 C227 1.363 . S
C230 N228 1.356 . S
C231 C225 1.363 1_545 S
C231 C226 1.379 . S
C231 N229 1.356 . S
N232 C224 1.356 . S
N232 H238 0.984 . S
N232 H239 0.984 . S
N233 C226 1.356 . S
N233 H236 0.984 . S
N233 H237 0.985 . S
H234 N229 0.984 . S
H235 N229 0.985 . S
H236 N233 0.984 . S
H237 N233 0.985 . S
H238 N232 0.984 . S
H239 N232 0.984 . S
H240 N228 0.984 . S
H241 N228 0.985 . S
C242 C243 1.363 . S
C242 C248 1.379 . S
C242 N250 1.356 . S
C243 C242 1.363 . S
C243 C249 1.363 . S
C244 C245 1.363 . S
C244 C249 1.379 . S
C244 N251 1.356 . S
C245 C244 1.363 . S
C245 C248 1.363 . S
N246 C248 1.356 . S
N246 H258 0.984 . S
N246 H259 0.985 . S
N247 C249 1.356 . S
N247 H252 0.984 . S
N247 H253 0.985 . S
C248 C242 1.379 . S
C248 C245 1.363 . S
C248 N246 1.356 . S
C249 C243 1.363 . S
C249 C244 1.379 . S
C249 N247 1.356 . S
N250 C242 1.356 . S
N250 H256 0.984 . S
N250 H257 0.984 . S
N251 C244 1.356 . S
N251 H254 0.984 . S
N251 H255 0.985 . S
H252 N247 0.984 . S
H253 N247 0.985 . S
H254 N251 0.984 . S
H255 N251 0.985 . S
H256 N250 0.984 . S
H257 N250 0.984 . S
H258 N246 0.984 . S
H259 N246 0.985 . S
C260 C261 1.363 . S
C260 C266 1.379 . S
C260 N268 1.356 . S
C261 C260 1.363 . S
C261 C267 1.363 . S
C262 C263 1.363 . S
C262 C267 1.379 . S
C262 N269 1.356 . S
C263 C262 1.363 . S
C263 C266 1.363 . S
N264 C266 1.356 . S
N264 H276 0.984 . S
N264 H277 0.985 . S
N265 C267 1.356 . S
N265 H270 0.984 . S
N265 H271 0.985 . S
C266 C260 1.379 . S
C266 C263 1.363 . S
C266 N264 1.356 . S
C267 C261 1.363 . S
C267 C262 1.379 . S
C267 N265 1.356 . S
N268 C260 1.356 . S
N268 H274 0.984 . S
N268 H275 0.984 . S
N269 C262 1.356 . S
N269 H272 0.984 . S
N269 H273 0.985 . S
H270 N265 0.984 . S
H271 N265 0.985 . S
H272 N269 0.984 . S
H273 N269 0.985 . S
H274 N268 0.984 . S
H275 N268 0.984 . S
H276 N264 0.984 . S
H277 N264 0.985 . S
C278 C279 1.363 . S
C278 C284 1.379 . S
C278 N286 1.356 . S
C279 C278 1.363 . S
C279 C285 1.363 . S
C280 C281 1.363 . S
C280 C285 1.379 . S
C280 N287 1.356 . S
C281 C280 1.363 . S
C281 C284 1.363 . S
N282 C284 1.356 . S
N282 H294 0.984 . S
N282 H295 0.985 . S
N283 C285 1.356 . S
N283 H288 0.984 . S
N283 H289 0.985 . S
C284 C278 1.379 . S
C284 C281 1.363 . S
C284 N282 1.356 . S
C285 C279 1.363 . S
C285 C280 1.379 . S
C285 N283 1.356 . S
N286 C278 1.356 . S
N286 H292 0.984 . S
N286 H293 0.984 . S
N287 C280 1.356 . S
N287 H290 0.984 . S
N287 H291 0.985 1_455 S
H288 N283 0.984 . S
H289 N283 0.985 . S
H290 N287 0.984 . S
H291 N287 0.985 1_655 S
H292 N286 0.984 . S
H293 N286 0.984 . S
H294 N282 0.984 . S
H295 N282 0.985 . S
C296 C297 1.363 1_565 S
C296 C302 1.379 . S
C296 N304 1.356 1_556 S
C297 C296 1.363 1_545 S
C297 C303 1.363 . S
C298 C299 1.363 . S
C298 C303 1.379 . S
C298 N305 1.356 . S
C299 C298 1.363 . S
C299 C302 1.363 1_545 S
N300 C302 1.356 . S
N300 H312 0.984 . S
N300 H313 0.985 . S
N301 C303 1.356 . S
N301 H306 0.984 . S
N301 H307 0.985 . S
C302 C296 1.379 . S
C302 C299 1.363 1_565 S
C302 N300 1.356 . S
C303 C297 1.363 . S
C303 C298 1.379 . S
C303 N301 1.356 . S
N304 C296 1.356 1_554 S
N304 H310 0.984 . S
N304 H311 0.984 . S
N305 C298 1.356 . S
N305 H308 0.984 . S
N305 H309 0.985 . S
H306 N301 0.984 . S
H307 N301 0.985 . S
H308 N305 0.984 . S
H309 N305 0.985 . S
H310 N304 0.984 . S
H311 N304 0.984 . S
H312 N300 0.984 . S
H313 N300 0.985 . S
C314 C315 1.363 . S
C314 C320 1.379 . S
C314 N322 1.356 . S
C315 C314 1.363 . S
C315 C321 1.363 1_556 S
C316 C317 1.363 . S
C316 C321 1.379 1_556 S
C316 N323 1.356 . S
C317 C316 1.363 . S
C317 C320 1.363 . S
N318 C320 1.356 . S
N318 H330 0.984 . S
N318 H331 0.985 . S
N319 C321 1.356 . S
N319 H324 0.984 . S
N319 H325 0.985 . S
C320 C314 1.379 . S
C320 C317 1.363 . S
C320 N318 1.356 . S
C321 C315 1.363 1_554 S
C321 C316 1.379 1_554 S
C321 N319 1.356 . S
N322 C314 1.356 . S
N322 H328 0.984 . S
N322 H329 0.984 . S
N323 C316 1.356 . S
N323 H326 0.984 . S
N323 H327 0.985 1_556 S
H324 N319 0.984 . S
H325 N319 0.985 . S
H326 N323 0.984 . S
H327 N323 0.985 1_554 S
H328 N322 0.984 . S
H329 N322 0.984 . S
H330 N318 0.984 . S
H331 N318 0.985 . S
C332 C333 1.363 . S
C332 C338 1.379 1_554 S
C332 N340 1.356 . S
C333 C332 1.363 . S
C333 C339 1.363 1_554 S
C334 C335 1.363 . S
C334 C339 1.379 . S
C334 N341 1.356 . S
C335 C334 1.363 . S
C335 C338 1.363 . S
N336 C338 1.356 . S
N336 H348 0.984 . S
N336 H349 0.985 . S
N337 C339 1.356 1_554 S
N337 H342 0.984 . S
N337 H343 0.985 1_554 S
C338 C332 1.379 1_556 S
C338 C335 1.363 . S
C338 N336 1.356 . S
C339 C333 1.363 1_556 S
C339 C334 1.379 . S
C339 N337 1.356 1_556 S
N340 C332 1.356 . S
N340 H346 0.984 . S
N340 H347 0.984 . S
N341 C334 1.356 . S
N341 H344 0.984 . S
N341 H345 0.985 . S
H342 N337 0.984 . S
H343 N337 0.985 1_556 S
H344 N341 0.984 . S
H345 N341 0.985 . S
H346 N340 0.984 . S
H347 N340 0.984 . S
H348 N336 0.984 . S
H349 N336 0.985 . S
C350 C351 1.363 . S
C350 C356 1.379 . S
C350 N358 1.356 . S
C351 C350 1.363 . S
C351 C357 1.363 1_655 S
C352 C353 1.361 . S
C352 C357 1.379 . S
C352 N359 1.356 . S
C353 C352 1.361 . S
C353 C356 1.366 1_455 S
N354 C356 1.356 . S
N354 H366 0.984 . S
N354 H367 0.985 . S
N355 C357 1.356 . S
N355 H360 0.984 . S
N355 H361 0.985 . S
C356 C350 1.379 . S
C356 C353 1.366 1_655 S
C356 N354 1.356 . S
C357 C351 1.363 1_455 S
C357 C352 1.379 . S
C357 N355 1.356 . S
N358 C350 1.356 . S
N358 H364 0.984 . S
N358 H365 0.984 . S
N359 C352 1.356 . S
N359 H362 0.984 . S
N359 H363 0.985 . S
H360 N355 0.984 . S
H361 N355 0.985 . S
H362 N359 0.984 . S
H363 N359 0.985 . S
H364 N358 0.984 . S
H365 N358 0.984 . S
H366 N354 0.984 . S
H367 N354 0.985 . S
C368 C369 1.363 . S
C368 C374 1.379 . S
C368 N376 1.356 . S
C369 C368 1.363 . S
C369 C375 1.363 . S
C370 C371 1.363 . S
C370 C375 1.379 . S
C370 N377 1.356 . S
C371 C370 1.363 . S
C371 C374 1.363 . S
N372 C374 1.356 . S
N372 H384 0.984 . S
N372 H385 0.985 . S
N373 C375 1.356 . S
N373 H378 0.984 . S
N373 H379 0.985 . S
C374 C368 1.379 . S
C374 C371 1.363 . S
C374 N372 1.356 . S
C375 C369 1.363 . S
C375 C370 1.379 . S
C375 N373 1.356 . S
N376 C368 1.356 . S
N376 H382 0.984 . S
N376 H383 0.984 . S
N377 C370 1.356 . S
N377 H380 0.984 . S
N377 H381 0.985 . S
H378 N373 0.984 . S
H379 N373 0.985 . S
H380 N377 0.984 . S
H381 N377 0.985 . S
H382 N376 0.984 . S
H383 N376 0.984 . S
H384 N372 0.984 . S
H385 N372 0.985 . S
C386 C387 1.347 1_545 S
C386 C392 1.379 . S
C386 N394 1.356 . S
C387 C386 1.347 1_565 S
C387 C393 1.380 . S
C388 C389 1.363 . S
C388 C393 1.379 . S
C388 N395 1.356 . S
C389 C388 1.363 . S
C389 C392 1.363 1_565 S
N390 C392 1.356 . S
N390 H402 0.984 . S
N390 H403 0.985 . S
N391 C393 1.356 . S
N391 H396 0.984 . S
N391 H397 0.985 . S
C392 C386 1.379 . S
C392 C389 1.363 1_545 S
C392 N390 1.356 . S
C393 C387 1.380 . S
C393 C388 1.379 . S
C393 N391 1.356 . S
N394 C386 1.356 . S
N394 H400 0.984 . S
N394 H401 0.984 . S
N395 C388 1.356 . S
N395 H398 0.984 . S
N395 H399 0.985 . S
H396 N391 0.984 . S
H397 N391 0.985 . S
H398 N395 0.984 . S
H399 N395 0.985 . S
H400 N394 0.984 . S
H401 N394 0.984 . S
H402 N390 0.984 . S
H403 N390 0.985 . S
C404 C405 1.363 . S
C404 C410 1.379 . S
C404 N412 1.356 . S
C405 C404 1.363 . S
C405 C411 1.363 . S
C406 C407 1.363 . S
C406 C411 1.379 . S
C406 N413 1.356 . S
C407 C406 1.363 . S
C407 C410 1.363 . S
N408 C410 1.356 . S
N408 H420 0.984 . S
N408 H421 0.985 . S
N409 C411 1.356 . S
N409 H414 0.984 . S
N409 H415 0.985 . S
C410 C404 1.379 . S
C410 C407 1.363 . S
C410 N408 1.356 . S
C411 C405 1.363 . S
C411 C406 1.379 . S
C411 N409 1.356 . S
N412 C404 1.356 . S
N412 H418 0.984 . S
N412 H419 0.984 . S
N413 C406 1.356 . S
N413 H416 0.984 . S
N413 H417 0.985 . S
H414 N409 0.984 . S
H415 N409 0.985 . S
H416 N413 0.984 . S
H417 N413 0.985 . S
H418 N412 0.984 . S
H419 N412 0.984 . S
H420 N408 0.984 . S
H421 N408 0.985 . S
C422 C423 1.363 . S
C422 C428 1.379 . S
C422 N430 1.356 . S
C423 C422 1.363 . S
C423 C429 1.363 . S
C424 C425 1.363 . S
C424 C429 1.379 . S
C424 N431 1.356 . S
C425 C424 1.363 . S
C425 C428 1.363 . S
N426 C428 1.356 . S
N426 H438 0.984 . S
N426 H439 0.985 . S
N427 C429 1.356 . S
N427 H432 0.984 . S
N427 H433 0.985 . S
C428 C422 1.379 . S
C428 C425 1.363 . S
C428 N426 1.356 . S
C429 C423 1.363 . S
C429 C424 1.379 . S
C429 N427 1.356 . S
N430 C422 1.356 . S
N430 H436 0.984 . S
N430 H437 0.984 . S
N431 C424 1.356 . S
N431 H434 0.984 . S
N431 H435 0.985 . S
H432 N427 0.984 . S
H433 N427 0.985 . S
H434 N431 0.984 . S
H435 N431 0.985 . S
H436 N430 0.984 . S
H437 N430 0.984 . S
H438 N426 0.984 . S
H439 N426 0.985 . S
C440 C441 1.363 . S
C440 C446 1.379 . S
C440 N448 1.356 . S
C441 C440 1.363 . S
C441 C447 1.363 1_655 S
C442 C443 1.363 . S
C442 C447 1.379 . S
C442 N449 1.356 . S
C443 C442 1.363 . S
C443 C446 1.363 1_455 S
N444 C446 1.356 . S
N444 H456 0.984 1_556 S
N444 H457 0.982 . S
N445 C447 1.356 . S
N445 H450 0.984 1_455 S
N445 H451 0.985 . S
C446 C440 1.379 . S
C446 C443 1.363 1_655 S
C446 N444 1.356 . S
C447 C441 1.363 1_455 S
C447 C442 1.379 . S
C447 N445 1.356 . S
N448 C440 1.356 . S
N448 H454 0.984 1_556 S
N448 H455 0.984 . S
N449 C442 1.356 . S
N449 H452 0.984 . S
N449 H453 0.985 . S
H450 N445 0.984 1_655 S
H451 N445 0.985 . S
H452 N449 0.984 . S
H453 N449 0.985 . S
H454 N448 0.984 1_554 S
H455 N448 0.984 . S
H456 N444 0.984 1_554 S
H457 N444 0.982 . S
C458 C459 1.338 1_565 S
C458 C464 1.379 . S
C458 N466 1.356 . S
C459 C458 1.338 1_545 S
C459 C465 1.389 . S
C460 C461 1.363 . S
C460 C465 1.379 . S
C460 N467 1.356 . S
C461 C460 1.363 . S
C461 C464 1.363 1_545 S
N462 C464 1.356 . S
N462 H474 0.984 . S
N462 H475 0.985 . S
N463 C465 1.356 1_554 S
N463 H468 0.984 . S
N463 H469 0.985 . S
C464 C458 1.379 . S
C464 C461 1.363 1_565 S
C464 N462 1.356 . S
C465 C459 1.389 . S
C465 C460 1.379 . S
C465 N463 1.356 1_556 S
N466 C458 1.356 . S
N466 H472 0.984 . S
N466 H473 0.984 . S
N467 C460 1.356 . S
N467 H470 0.984 . S
N467 H471 0.985 . S
H468 N463 0.984 . S
H469 N463 0.985 . S
H470 N467 0.984 . S
H471 N467 0.985 . S
H472 N466 0.984 . S
H473 N466 0.984 . S
H474 N462 0.984 . S
H475 N462 0.985 . S
C476 C477 1.363 1_554 S
C476 C482 1.379 1_554 S
C476 N484 1.356 . S
C477 C476 1.363 1_556 S
C477 C483 1.363 . S
C478 C479 1.363 . S
C478 C483 1.379 . S
C478 N485 1.356 . S
C479 C478 1.363 . S
C479 C482 1.363 . S
N480 C482 1.356 1_554 S
N480 H492 0.984 . S
N480 H493 0.985 1_554 S
N481 C483 1.356 . S
N481 H486 0.984 . S
N481 H487 0.985 . S
C482 C476 1.379 1_556 S
C482 C479 1.363 . S
C482 N480 1.356 1_556 S
C483 C477 1.363 . S
C483 C478 1.379 . S
C483 N481 1.356 . S
N484 C476 1.356 . S
N484 H490 0.984 . S
N484 H491 0.984 . S
N485 C478 1.356 . S
N485 H488 0.984 . S
N485 H489 0.985 . S
H486 N481 0.984 . S
H487 N481 0.985 . S
H488 N485 0.984 . S
H489 N485 0.985 . S
H490 N484 0.984 . S
H491 N484 0.984 . S
H492 N480 0.984 . S
H493 N480 0.985 1_556 S
C494 C495 1.363 . S
C494 C500 1.379 1_554 S
C494 N502 1.356 . S
C495 C494 1.363 . S
C495 C501 1.363 1_554 S
C496 C497 1.363 . S
C496 C501 1.379 . S
C496 N503 1.356 . S
C497 C496 1.363 . S
C497 C500 1.363 . S
N498 C500 1.356 . S
N498 H510 0.984 . S
N498 H511 0.985 . S
N499 C501 1.356 1_554 S
N499 H504 0.984 . S
N499 H505 0.985 1_554 S
C500 C494 1.379 1_556 S
C500 C497 1.363 . S
C500 N498 1.356 . S
C501 C495 1.363 1_556 S
C501 C496 1.379 . S
C501 N499 1.356 1_556 S
N502 C494 1.356 . S
N502 H508 0.984 . S
N502 H509 0.984 . S
N503 C496 1.356 . S
N503 H506 0.984 . S
N503 H507 0.985 . S
H504 N499 0.984 . S
H505 N499 0.985 1_556 S
H506 N503 0.984 . S
H507 N503 0.985 . S
H508 N502 0.984 . S
H509 N502 0.984 . S
H510 N498 0.984 . S
H511 N498 0.985 . S
C512 C513 1.363 . S
C512 C518 1.379 . S
C512 N520 1.356 . S
C513 C512 1.363 . S
C513 C519 1.363 . S
C514 C515 1.363 . S
C514 C519 1.379 . S
C514 N521 1.356 . S
C515 C514 1.363 . S
C515 C518 1.363 . S
N516 C518 1.356 . S
N516 H528 0.984 . S
N516 H529 0.985 . S
N517 C519 1.356 . S
N517 H522 0.984 . S
N517 H523 0.985 . S
C518 C512 1.379 . S
C518 C515 1.363 . S
C518 N516 1.356 . S
C519 C513 1.363 . S
C519 C514 1.379 . S
C519 N517 1.356 . S
N520 C512 1.356 . S
N520 H526 0.984 . S
N520 H527 0.984 . S
N521 C514 1.356 . S
N521 H524 0.984 . S
N521 H525 0.985 1_455 S
H522 N517 0.984 . S
H523 N517 0.985 . S
H524 N521 0.984 . S
H525 N521 0.985 1_655 S
H526 N520 0.984 . S
H527 N520 0.984 . S
H528 N516 0.984 . S
H529 N516 0.985 . S
C530 C531 1.388 . S
C530 C536 1.379 1_554 S
C530 N538 1.356 . S
C531 C530 1.388 . S
C531 C537 1.338 1_545 S
C532 C533 1.363 1_564 S
C532 C537 1.379 . S
C532 N539 1.356 . S
C533 C532 1.363 1_546 S
C533 C536 1.363 . S
N534 C536 1.356 . S
N534 H546 0.984 . S
N534 H547 0.985 . S
N535 C537 1.356 . S
N535 H540 0.984 . S
N535 H541 0.985 . S
C536 C530 1.379 1_556 S
C536 C533 1.363 . S
C536 N534 1.356 . S
C537 C531 1.338 1_565 S
C537 C532 1.379 . S
C537 N535 1.356 . S
N538 C530 1.356 . S
N538 H544 0.984 . S
N538 H545 0.984 . S
N539 C532 1.356 . S
N539 H542 0.984 1_554 S
N539 H543 0.985 . S
H540 N535 0.984 . S
H541 N535 0.985 . S
H542 N539 0.984 1_556 S
H543 N539 0.985 . S
H544 N538 0.984 . S
H545 N538 0.984 . S
H546 N534 0.984 . S
H547 N534 0.985 . S
C548 C549 1.363 . S
C548 C554 1.379 1_554 S
C548 N556 1.356 . S
C549 C548 1.363 . S
C549 C555 1.363 . S
C550 C551 1.363 1_554 S
C550 C555 1.379 . S
C550 N557 1.356 . S
C551 C550 1.363 1_556 S
C551 C554 1.363 . S
N552 C554 1.356 . S
N552 H564 0.984 . S
N552 H565 0.985 . S
N553 C555 1.356 . S
N553 H558 0.984 . S
N553 H559 0.985 . S
C554 C548 1.379 1_556 S
C554 C551 1.363 . S
C554 N552 1.356 . S
C555 C549 1.363 . S
C555 C550 1.379 . S
C555 N553 1.356 . S
N556 C548 1.356 . S
N556 H562 0.984 . S
N556 H563 0.984 . S
N557 C550 1.356 . S
N557 H560 0.984 . S
N557 H561 0.985 . S
H558 N553 0.984 . S
H559 N553 0.985 . S
H560 N557 0.984 . S
H561 N557 0.985 . S
H562 N556 0.984 . S
H563 N556 0.984 . S
H564 N552 0.984 . S
H565 N552 0.985 . S
C566 C567 1.363 . S
C566 C572 1.379 . S
C566 N574 1.356 . S
C567 C566 1.363 . S
C567 C573 1.363 . S
C568 C569 1.363 . S
C568 C573 1.379 1_556 S
C568 N575 1.356 . S
C569 C568 1.363 . S
C569 C572 1.363 1_556 S
N570 C572 1.356 . S
N570 H582 0.984 . S
N570 H583 0.985 1_554 S
N571 C573 1.356 . S
N571 H576 0.984 . S
N571 H577 0.985 . S
C572 C566 1.379 . S
C572 C569 1.363 1_554 S
C572 N570 1.356 . S
C573 C567 1.363 . S
C573 C568 1.379 1_554 S
C573 N571 1.356 . S
N574 C566 1.356 . S
N574 H580 0.984 . S
N574 H581 0.984 . S
N575 C568 1.356 . S
N575 H578 0.984 . S
N575 H579 0.985 . S
H576 N571 0.984 . S
H577 N571 0.985 . S
H578 N575 0.984 . S
H579 N575 0.985 . S
H580 N574 0.984 . S
H581 N574 0.984 . S
H582 N570 0.984 . S
H583 N570 0.985 1_556 S
C584 C585 1.363 . S
C584 C590 1.379 1_655 S
C584 N592 1.356 1_655 S
C585 C584 1.363 . S
C585 C591 1.363 . S
C586 C587 1.363 . S
C586 C591 1.379 . S
C586 N593 1.356 . S
C587 C586 1.363 . S
C587 C590 1.363 1_655 S
N588 C590 1.356 . S
N588 H600 0.984 . S
N588 H601 0.985 . S
N589 C591 1.356 . S
N589 H594 0.984 . S
N589 H595 0.985 . S
C590 C584 1.379 1_455 S
C590 C587 1.363 1_455 S
C590 N588 1.356 . S
C591 C585 1.363 . S
C591 C586 1.379 . S
C591 N589 1.356 . S
N592 C584 1.356 1_455 S
N592 H598 0.984 . S
N592 H599 0.984 1_455 S
N593 C586 1.356 . S
N593 H596 0.984 . S
N593 H597 0.985 . S
H594 N589 0.984 . S
H595 N589 0.985 . S
H596 N593 0.984 . S
H597 N593 0.985 . S
H598 N592 0.984 . S
H599 N592 0.984 1_655 S
H600 N588 0.984 . S
H601 N588 0.985 . S
C602 C603 1.343 1_545 S
C602 C608 1.379 . S
C602 N610 1.356 . S
C603 C602 1.343 1_565 S
C603 C609 1.382 . S
C604 C605 1.363 . S
C604 C609 1.379 . S
C604 N611 1.356 . S
C605 C604 1.363 . S
C605 C608 1.363 1_565 S
N606 C608 1.356 . S
N606 H618 0.984 . S
N606 H619 0.985 . S
N607 C609 1.356 . S
N607 H612 0.984 . S
N607 H613 0.985 . S
C608 C602 1.379 . S
C608 C605 1.363 1_545 S
C608 N606 1.356 . S
C609 C603 1.382 . S
C609 C604 1.379 . S
C609 N607 1.356 . S
N610 C602 1.356 . S
N610 H616 0.984 . S
N610 H617 0.984 . S
N611 C604 1.356 . S
N611 H614 0.984 . S
N611 H615 0.985 . S
H612 N607 0.984 . S
H613 N607 0.985 . S
H614 N611 0.984 . S
H615 N611 0.985 . S
H616 N610 0.984 . S
H617 N610 0.984 . S
H618 N606 0.984 . S
H619 N606 0.985 . S
C620 C621 1.363 . S
C620 C626 1.379 . S
C620 N628 1.356 . S
C621 C620 1.363 . S
C621 C627 1.363 . S
C622 C623 1.363 . S
C622 C627 1.379 . S
C622 N629 1.356 . S
C623 C622 1.363 . S
C623 C626 1.363 . S
N624 C626 1.356 . S
N624 H636 0.984 . S
N624 H637 0.985 . S
N625 C627 1.356 . S
N625 H630 0.984 . S
N625 H631 0.985 . S
C626 C620 1.379 . S
C626 C623 1.363 . S
C626 N624 1.356 . S
C627 C621 1.363 . S
C627 C622 1.379 . S
C627 N625 1.356 . S
N628 C620 1.356 . S
N628 H634 0.984 . S
N628 H635 0.984 . S
N629 C622 1.356 . S
N629 H632 0.984 . S
N629 H633 0.985 . S
H630 N625 0.984 . S
H631 N625 0.985 . S
H632 N629 0.984 . S
H633 N629 0.985 . S
H634 N628 0.984 . S
H635 N628 0.984 . S
H636 N624 0.984 . S
H637 N624 0.985 . S
C638 C639 1.363 . S
C638 C644 1.379 . S
C638 N646 1.356 . S
C639 C638 1.363 . S
C639 C645 1.363 . S
C640 C641 1.363 . S
C640 C645 1.379 . S
C640 N647 1.356 . S
C641 C640 1.363 . S
C641 C644 1.363 . S
N642 C644 1.356 . S
N642 H654 0.984 . S
N642 H655 0.985 . S
N643 C645 1.356 . S
N643 H648 0.984 . S
N643 H649 0.985 . S
C644 C638 1.379 . S
C644 C641 1.363 . S
C644 N642 1.356 . S
C645 C639 1.363 . S
C645 C640 1.379 . S
C645 N643 1.356 . S
N646 C638 1.356 . S
N646 H652 0.984 . S
N646 H653 0.984 . S
N647 C640 1.356 . S
N647 H650 0.984 . S
N647 H651 0.985 . S
H648 N643 0.984 . S
H649 N643 0.985 . S
H650 N647 0.984 . S
H651 N647 0.985 . S
H652 N646 0.984 . S
H653 N646 0.984 . S
H654 N642 0.984 . S
H655 N642 0.985 . S
C225 C74 1.831 1_565 S
C227 C105 1.841 . S
C245 C126 1.528 . S
C243 C85 1.522 . S
C263 C160 1.423 . S
C261 C52 1.415 . S
C281 C194 1.574 . S
C279 C63 1.579 . S
C299 C96 1.841 . S
C297 C30 1.818 1_556 S
C315 C41 1.497 1_556 S
C317 C135 1.532 . S
C333 C8 1.408 . S
C335 C169 1.424 . S
C351 C19 1.527 . S
C353 C203 1.574 . S
C371 C117 0.948 . S
C369 C62 0.966 . S
C389 C122 1.313 . S
C387 C73 1.301 1_565 S
C407 C156 1.227 . S
C405 C84 1.245 . S
C423 C51 0.630 . S
C425 C190 0.617 . S
C441 C18 0.905 . S
C443 C88 0.953 . S
C461 C151 1.313 . S
C459 C29 1.298 . S
C479 C185 1.227 . S
C477 C40 1.177 1_556 S
C495 C7 0.639 . S
C497 C219 0.616 . S
C513 C60 1.177 . S
C515 C101 1.352 . S
C531 C71 1.474 . S
C533 C130 1.755 . S
C551 C164 1.532 . S
C549 C82 1.323 . S
C569 C198 1.595 . S
C567 C49 1.305 . S
C585 C16 1.062 . S
C587 C92 1.358 . S
C605 C139 1.755 . S
C603 C27 1.474 1_565 S
C623 C173 1.532 . S
C621 C38 1.264 . S
C639 C5 1.368 . S
C641 C207 1.596 . S
