# Generated by pormake.
# Topology gar, (4,6)-cn, num edge types: 1
# Building blocks:
#     Node 0, Type 0, BuildingBlock: QUQFOY_clean_sbu_3, # of connection points: 4
#     Node 1, Type 0, BuildingBlock: QUQFOY_clean_sbu_3, # of connection points: 4
#     Node 2, Type 0, BuildingBlock: QUQFOY_clean_sbu_3, # of connection points: 4
#     Node 3, Type 0, BuildingBlock: QUQFOY_clean_sbu_3, # of connection points: 4
#     Node 4, Type 0, BuildingBlock: QUQFOY_clean_sbu_3, # of connection points: 4
#     Node 5, Type 0, BuildingBlock: QUQFOY_clean_sbu_3, # of connection points: 4
#     Node 6, Type 0, BuildingBlock: QUQFOY_clean_sbu_3, # of connection points: 4
#     Node 7, Type 0, BuildingBlock: QUQFOY_clean_sbu_3, # of connection points: 4
#     Node 8, Type 0, BuildingBlock: QUQFOY_clean_sbu_3, # of connection points: 4
#     Node 9, Type 0, BuildingBlock: QUQFOY_clean_sbu_3, # of connection points: 4
#     Node 10, Type 0, BuildingBlock: QUQFOY_clean_sbu_3, # of connection points: 4
#     Node 11, Type 0, BuildingBlock: QUQFOY_clean_sbu_3, # of connection points: 4
#     Node 12, Type 0, BuildingBlock: QUQFOY_clean_sbu_3, # of connection points: 4
#     Node 13, Type 0, BuildingBlock: QUQFOY_clean_sbu_3, # of connection points: 4
#     Node 14, Type 0, BuildingBlock: QUQFOY_clean_sbu_3, # of connection points: 4
#     Node 15, Type 0, BuildingBlock: QUQFOY_clean_sbu_3, # of connection points: 4
#     Node 16, Type 0, BuildingBlock: QUQFOY_clean_sbu_3, # of connection points: 4
#     Node 17, Type 0, BuildingBlock: QUQFOY_clean_sbu_3, # of connection points: 4
#     Node 18, Type 0, BuildingBlock: QUQFOY_clean_sbu_3, # of connection points: 4
#     Node 19, Type 0, BuildingBlock: QUQFOY_clean_sbu_3, # of connection points: 4
#     Node 20, Type 0, BuildingBlock: QUQFOY_clean_sbu_3, # of connection points: 4
#     Node 21, Type 0, BuildingBlock: QUQFOY_clean_sbu_3, # of connection points: 4
#     Node 22, Type 0, BuildingBlock: QUQFOY_clean_sbu_3, # of connection points: 4
#     Node 23, Type 0, BuildingBlock: QUQFOY_clean_sbu_3, # of connection points: 4
#     Node 24, Type 1, BuildingBlock: BETDAH_clean_sbu_0, # of connection points: 6
#     Node 25, Type 1, BuildingBlock: BETDAH_clean_sbu_0, # of connection points: 6
#     Node 26, Type 1, BuildingBlock: BETDAH_clean_sbu_0, # of connection points: 6
#     Node 27, Type 1, BuildingBlock: BETDAH_clean_sbu_0, # of connection points: 6
#     Node 28, Type 1, BuildingBlock: BETDAH_clean_sbu_0, # of connection points: 6
#     Node 29, Type 1, BuildingBlock: BETDAH_clean_sbu_0, # of connection points: 6
#     Node 30, Type 1, BuildingBlock: BETDAH_clean_sbu_0, # of connection points: 6
#     Node 31, Type 1, BuildingBlock: BETDAH_clean_sbu_0, # of connection points: 6
#     Node 32, Type 1, BuildingBlock: BETDAH_clean_sbu_0, # of connection points: 6
#     Node 33, Type 1, BuildingBlock: BETDAH_clean_sbu_0, # of connection points: 6
#     Node 34, Type 1, BuildingBlock: BETDAH_clean_sbu_0, # of connection points: 6
#     Node 35, Type 1, BuildingBlock: BETDAH_clean_sbu_0, # of connection points: 6
#     Node 36, Type 1, BuildingBlock: BETDAH_clean_sbu_0, # of connection points: 6
#     Node 37, Type 1, BuildingBlock: BETDAH_clean_sbu_0, # of connection points: 6
#     Node 38, Type 1, BuildingBlock: BETDAH_clean_sbu_0, # of connection points: 6
#     Node 39, Type 1, BuildingBlock: BETDAH_clean_sbu_0, # of connection points: 6
#     Edge 40, Type (0, 1), BuildingBlock: AJUNOK_clean_linker_0, # of connection points: 2
#     Edge 41, Type (0, 1), BuildingBlock: AJUNOK_clean_linker_0, # of connection points: 2
#     Edge 42, Type (0, 1), BuildingBlock: AJUNOK_clean_linker_0, # of connection points: 2
#     Edge 43, Type (0, 1), BuildingBlock: AJUNOK_clean_linker_0, # of connection points: 2
#     Edge 44, Type (0, 1), BuildingBlock: AJUNOK_clean_linker_0, # of connection points: 2
#     Edge 45, Type (0, 1), BuildingBlock: AJUNOK_clean_linker_0, # of connection points: 2
#     Edge 46, Type (0, 1), BuildingBlock: AJUNOK_clean_linker_0, # of connection points: 2
#     Edge 47, Type (0, 1), BuildingBlock: AJUNOK_clean_linker_0, # of connection points: 2
#     Edge 48, Type (0, 1), BuildingBlock: AJUNOK_clean_linker_0, # of connection points: 2
#     Edge 49, Type (0, 1), BuildingBlock: AJUNOK_clean_linker_0, # of connection points: 2
#     Edge 50, Type (0, 1), BuildingBlock: AJUNOK_clean_linker_0, # of connection points: 2
#     Edge 51, Type (0, 1), BuildingBlock: AJUNOK_clean_linker_0, # of connection points: 2
#     Edge 52, Type (0, 1), BuildingBlock: AJUNOK_clean_linker_0, # of connection points: 2
#     Edge 53, Type (0, 1), BuildingBlock: AJUNOK_clean_linker_0, # of connection points: 2
#     Edge 54, Type (0, 1), BuildingBlock: AJUNOK_clean_linker_0, # of connection points: 2
#     Edge 55, Type (0, 1), BuildingBlock: AJUNOK_clean_linker_0, # of connection points: 2
#     Edge 56, Type (0, 1), BuildingBlock: AJUNOK_clean_linker_0, # of connection points: 2
#     Edge 57, Type (0, 1), BuildingBlock: AJUNOK_clean_linker_0, # of connection points: 2
#     Edge 58, Type (0, 1), BuildingBlock: AJUNOK_clean_linker_0, # of connection points: 2
#     Edge 59, Type (0, 1), BuildingBlock: AJUNOK_clean_linker_0, # of connection points: 2
#     Edge 60, Type (0, 1), BuildingBlock: AJUNOK_clean_linker_0, # of connection points: 2
#     Edge 61, Type (0, 1), BuildingBlock: AJUNOK_clean_linker_0, # of connection points: 2
#     Edge 62, Type (0, 1), BuildingBlock: AJUNOK_clean_linker_0, # of connection points: 2
#     Edge 63, Type (0, 1), BuildingBlock: AJUNOK_clean_linker_0, # of connection points: 2
#     Edge 64, Type (0, 1), BuildingBlock: AJUNOK_clean_linker_0, # of connection points: 2
#     Edge 65, Type (0, 1), BuildingBlock: AJUNOK_clean_linker_0, # of connection points: 2
#     Edge 66, Type (0, 1), BuildingBlock: AJUNOK_clean_linker_0, # of connection points: 2
#     Edge 67, Type (0, 1), BuildingBlock: AJUNOK_clean_linker_0, # of connection points: 2
#     Edge 68, Type (0, 1), BuildingBlock: AJUNOK_clean_linker_0, # of connection points: 2
#     Edge 69, Type (0, 1), BuildingBlock: AJUNOK_clean_linker_0, # of connection points: 2
#     Edge 70, Type (0, 1), BuildingBlock: AJUNOK_clean_linker_0, # of connection points: 2
#     Edge 71, Type (0, 1), BuildingBlock: AJUNOK_clean_linker_0, # of connection points: 2
#     Edge 72, Type (0, 1), BuildingBlock: AJUNOK_clean_linker_0, # of connection points: 2
#     Edge 73, Type (0, 1), BuildingBlock: AJUNOK_clean_linker_0, # of connection points: 2
#     Edge 74, Type (0, 1), BuildingBlock: AJUNOK_clean_linker_0, # of connection points: 2
#     Edge 75, Type (0, 1), BuildingBlock: AJUNOK_clean_linker_0, # of connection points: 2
#     Edge 76, Type (0, 1), BuildingBlock: AJUNOK_clean_linker_0, # of connection points: 2
#     Edge 77, Type (0, 1), BuildingBlock: AJUNOK_clean_linker_0, # of connection points: 2
#     Edge 78, Type (0, 1), BuildingBlock: AJUNOK_clean_linker_0, # of connection points: 2
#     Edge 79, Type (0, 1), BuildingBlock: AJUNOK_clean_linker_0, # of connection points: 2
#     Edge 80, Type (0, 1), BuildingBlock: AJUNOK_clean_linker_0, # of connection points: 2
#     Edge 81, Type (0, 1), BuildingBlock: AJUNOK_clean_linker_0, # of connection points: 2
#     Edge 82, Type (0, 1), BuildingBlock: AJUNOK_clean_linker_0, # of connection points: 2
#     Edge 83, Type (0, 1), BuildingBlock: AJUNOK_clean_linker_0, # of connection points: 2
#     Edge 84, Type (0, 1), BuildingBlock: AJUNOK_clean_linker_0, # of connection points: 2
#     Edge 85, Type (0, 1), BuildingBlock: AJUNOK_clean_linker_0, # of connection points: 2
#     Edge 86, Type (0, 1), BuildingBlock: AJUNOK_clean_linker_0, # of connection points: 2
#     Edge 87, Type (0, 1), BuildingBlock: AJUNOK_clean_linker_0, # of connection points: 2
#     Edge 88, Type (0, 1), BuildingBlock: AJUNOK_clean_linker_0, # of connection points: 2
#     Edge 89, Type (0, 1), BuildingBlock: AJUNOK_clean_linker_0, # of connection points: 2
#     Edge 90, Type (0, 1), BuildingBlock: AJUNOK_clean_linker_0, # of connection points: 2
#     Edge 91, Type (0, 1), BuildingBlock: AJUNOK_clean_linker_0, # of connection points: 2
#     Edge 92, Type (0, 1), BuildingBlock: AJUNOK_clean_linker_0, # of connection points: 2
#     Edge 93, Type (0, 1), BuildingBlock: AJUNOK_clean_linker_0, # of connection points: 2
#     Edge 94, Type (0, 1), BuildingBlock: AJUNOK_clean_linker_0, # of connection points: 2
#     Edge 95, Type (0, 1), BuildingBlock: AJUNOK_clean_linker_0, # of connection points: 2
#     Edge 96, Type (0, 1), BuildingBlock: AJUNOK_clean_linker_0, # of connection points: 2
#     Edge 97, Type (0, 1), BuildingBlock: AJUNOK_clean_linker_0, # of connection points: 2
#     Edge 98, Type (0, 1), BuildingBlock: AJUNOK_clean_linker_0, # of connection points: 2
#     Edge 99, Type (0, 1), BuildingBlock: AJUNOK_clean_linker_0, # of connection points: 2
#     Edge 100, Type (0, 1), BuildingBlock: AJUNOK_clean_linker_0, # of connection points: 2
#     Edge 101, Type (0, 1), BuildingBlock: AJUNOK_clean_linker_0, # of connection points: 2
#     Edge 102, Type (0, 1), BuildingBlock: AJUNOK_clean_linker_0, # of connection points: 2
#     Edge 103, Type (0, 1), BuildingBlock: AJUNOK_clean_linker_0, # of connection points: 2
#     Edge 104, Type (0, 1), BuildingBlock: AJUNOK_clean_linker_0, # of connection points: 2
#     Edge 105, Type (0, 1), BuildingBlock: AJUNOK_clean_linker_0, # of connection points: 2
#     Edge 106, Type (0, 1), BuildingBlock: AJUNOK_clean_linker_0, # of connection points: 2
#     Edge 107, Type (0, 1), BuildingBlock: AJUNOK_clean_linker_0, # of connection points: 2
#     Edge 108, Type (0, 1), BuildingBlock: AJUNOK_clean_linker_0, # of connection points: 2
#     Edge 109, Type (0, 1), BuildingBlock: AJUNOK_clean_linker_0, # of connection points: 2
#     Edge 110, Type (0, 1), BuildingBlock: AJUNOK_clean_linker_0, # of connection points: 2
#     Edge 111, Type (0, 1), BuildingBlock: AJUNOK_clean_linker_0, # of connection points: 2
#     Edge 112, Type (0, 1), BuildingBlock: AJUNOK_clean_linker_0, # of connection points: 2
#     Edge 113, Type (0, 1), BuildingBlock: AJUNOK_clean_linker_0, # of connection points: 2
#     Edge 114, Type (0, 1), BuildingBlock: AJUNOK_clean_linker_0, # of connection points: 2
#     Edge 115, Type (0, 1), BuildingBlock: AJUNOK_clean_linker_0, # of connection points: 2
#     Edge 116, Type (0, 1), BuildingBlock: AJUNOK_clean_linker_0, # of connection points: 2
#     Edge 117, Type (0, 1), BuildingBlock: AJUNOK_clean_linker_0, # of connection points: 2
#     Edge 118, Type (0, 1), BuildingBlock: AJUNOK_clean_linker_0, # of connection points: 2
#     Edge 119, Type (0, 1), BuildingBlock: AJUNOK_clean_linker_0, # of connection points: 2
#     Edge 120, Type (0, 1), BuildingBlock: AJUNOK_clean_linker_0, # of connection points: 2
#     Edge 121, Type (0, 1), BuildingBlock: AJUNOK_clean_linker_0, # of connection points: 2
#     Edge 122, Type (0, 1), BuildingBlock: AJUNOK_clean_linker_0, # of connection points: 2
#     Edge 123, Type (0, 1), BuildingBlock: AJUNOK_clean_linker_0, # of connection points: 2
#     Edge 124, Type (0, 1), BuildingBlock: AJUNOK_clean_linker_0, # of connection points: 2
#     Edge 125, Type (0, 1), BuildingBlock: AJUNOK_clean_linker_0, # of connection points: 2
#     Edge 126, Type (0, 1), BuildingBlock: AJUNOK_clean_linker_0, # of connection points: 2
#     Edge 127, Type (0, 1), BuildingBlock: AJUNOK_clean_linker_0, # of connection points: 2
#     Edge 128, Type (0, 1), BuildingBlock: AJUNOK_clean_linker_0, # of connection points: 2
#     Edge 129, Type (0, 1), BuildingBlock: AJUNOK_clean_linker_0, # of connection points: 2
#     Edge 130, Type (0, 1), BuildingBlock: AJUNOK_clean_linker_0, # of connection points: 2
#     Edge 131, Type (0, 1), BuildingBlock: AJUNOK_clean_linker_0, # of connection points: 2
#     Edge 132, Type (0, 1), BuildingBlock: AJUNOK_clean_linker_0, # of connection points: 2
#     Edge 133, Type (0, 1), BuildingBlock: AJUNOK_clean_linker_0, # of connection points: 2
#     Edge 134, Type (0, 1), BuildingBlock: AJUNOK_clean_linker_0, # of connection points: 2
#     Edge 135, Type (0, 1), BuildingBlock: AJUNOK_clean_linker_0, # of connection points: 2
# Relax obj value: 0.244
# Max RMSD: 0.347
# Mean RMSD: 0.169
data_MOF--net-gar--node1-QUQFOY_clean_sbu_3--node2-BETDAH_clean_sbu_0--edge1-AJUNOK_clean_linker_0
_symmetry_space_group_name_H-M    P1
_symmetry_Int_Tables_number       1
_symmetry_cell_setting            triclinic
loop_
_symmetry_equiv_pos_as_xyz
'x, y, z'
_cell_length_a     48.717758
_cell_length_b     43.790365
_cell_length_c     43.774246
_cell_angle_alpha  100.81658
_cell_angle_beta   95.732255
_cell_angle_gamma 103.43236
loop_
_atom_site_label
_atom_site_type_symbol
_atom_site_fract_x
_atom_site_fract_y
_atom_site_fract_z
_atom_type_partial_charge
C0 C 0.10495 0.37535 0.34035 0.0
O1 O 0.12287 0.39527 0.32978 0.0
Cd2 Cd 0.17059 0.41707 0.35388 0.0
O3 O 0.11219 0.36546 0.36473 0.0
Cd4 Cd 0.15354 0.36894 0.40278 0.0
C5 C 0.15708 0.44704 0.42771 0.0
O6 O 0.17537 0.36513 0.3576 0.0
O7 O 0.20175 0.36152 0.39853 0.0
O8 O 0.11891 0.31982 0.40287 0.0
C9 C 0.19825 0.36036 0.36919 0.0
O10 O 0.16153 0.45138 0.40055 0.0
C11 C 0.12971 0.31706 0.42945 0.0
O12 O 0.15524 0.41999 0.43485 0.0
O13 O 0.15221 0.33822 0.44337 0.0
C14 C 0.95283 0.74753 0.69611 0.0
O15 O 0.95908 0.72219 0.70114 0.0
Cd16 Cd 1.00382 0.71156 0.69558 0.0
O17 O 0.96684 0.76463 0.67956 0.0
Cd18 Cd 1.00657 0.759 0.65156 0.0
C19 C 1.00351 0.6821 0.61975 0.0
O20 O 0.035 0.76366 0.70162 0.0
O21 O 0.05501 0.75699 0.65958 0.0
O22 O 0.02956 0.81347 0.65001 0.0
C23 C 0.05747 0.76458 0.68927 0.0
O24 O 1.00729 0.6774 0.64739 0.0
C25 C 0.02242 0.81012 0.62074 0.0
O26 O 0.99841 0.70807 0.61485 0.0
O27 O 1.0052 0.78377 0.6061 0.0
C28 C 0.60299 0.8744 0.84173 0.0
O29 O 0.62015 0.89125 0.8276 0.0
Cd30 Cd 0.66868 0.91066 0.84967 0.0
O31 O 0.61136 0.8659 0.86648 0.0
Cd32 Cd 0.65322 0.86587 0.90084 0.0
C33 C 0.6575 0.94449 0.92354 0.0
O34 O 0.67201 0.85817 0.85444 0.0
O35 O 0.70251 0.86225 0.89527 0.0
O36 O 0.62189 0.81399 0.89827 0.0
C37 C 0.69599 0.85579 0.86551 0.0
O38 O 0.66329 0.94818 0.89658 0.0
C39 C 0.62894 0.81384 0.92688 0.0
O40 O 0.6538 0.91735 0.93091 0.0
O41 O 0.64833 0.8377 0.94312 0.0
C42 C 0.45624 0.25042 0.19447 0.0
O43 O 0.46299 0.22664 0.20298 0.0
Cd44 Cd 0.50777 0.2149 0.19971 0.0
O45 O 0.47036 0.26543 0.17662 0.0
Cd46 Cd 0.50992 0.25575 0.15133 0.0
C47 C 0.50344 0.17973 0.12472 0.0
O48 O 0.53901 0.26638 0.20307 0.0
O49 O 0.55882 0.25652 0.16143 0.0
O50 O 0.51232 0.30867 0.14046 0.0
C51 C 0.56143 0.2668 0.19079 0.0
O52 O 0.51247 0.17959 0.15286 0.0
C53 C 0.52434 0.30321 0.11634 0.0
O54 O 0.49269 0.20214 0.11876 0.0
O55 O 0.52687 0.27498 0.10704 0.0
C56 C 0.0715 0.81182 0.15723 0.0
O57 O 0.08746 0.80193 0.1757 0.0
Cd58 Cd 0.13476 0.79973 0.17339 0.0
O59 O 0.08169 0.82607 0.13628 0.0
Cd60 Cd 0.1295 0.84375 0.11665 0.0
C61 C 0.12189 0.76375 0.0929 0.0
O62 O 0.16097 0.84911 0.16637 0.0
O63 O 0.18408 0.84762 0.12749 0.0
O64 O 0.12548 0.90004 0.11747 0.0
C65 C 0.18456 0.84823 0.15674 0.0
O66 O 0.12732 0.76527 0.12227 0.0
C67 C 0.11895 0.89693 0.08797 0.0
O68 O 0.1198 0.78856 0.08234 0.0
O69 O 0.11879 0.86983 0.07111 0.0
C70 C 0.47446 0.79211 0.37365 0.0
O71 O 0.49451 0.80597 0.36069 0.0
Cd72 Cd 0.54468 0.81993 0.37588 0.0
O73 O 0.48061 0.78054 0.39792 0.0
Cd74 Cd 0.53163 0.78025 0.43082 0.0
C75 C 0.5427 0.85986 0.45215 0.0
O76 O 0.56273 0.77871 0.38979 0.0
O77 O 0.58397 0.80574 0.43535 0.0
O78 O 0.52571 0.72174 0.43433 0.0
C79 C 0.58612 0.79408 0.40722 0.0
O80 O 0.54832 0.85743 0.42421 0.0
C81 C 0.53692 0.72711 0.46297 0.0
O82 O 0.53386 0.83474 0.46298 0.0
O83 O 0.54315 0.75633 0.47769 0.0
C84 C 0.5768 0.31131 0.66074 0.0
O85 O 0.59345 0.30003 0.677 0.0
Cd86 Cd 0.64033 0.29647 0.67262 0.0
O87 O 0.58536 0.32522 0.63887 0.0
Cd88 Cd 0.63178 0.34179 0.61586 0.0
C89 C 0.62233 0.26055 0.59203 0.0
O90 O 0.66291 0.34694 0.6658 0.0
O91 O 0.68683 0.35034 0.62797 0.0
O92 O 0.6181 0.39381 0.61794 0.0
C93 C 0.68697 0.34888 0.65674 0.0
O94 O 0.6294 0.2624 0.62121 0.0
C95 C 0.61842 0.39543 0.58927 0.0
O96 O 0.62058 0.28558 0.5816 0.0
O97 O 0.62664 0.37308 0.57255 0.0
C98 C 0.97277 0.29608 0.87733 0.0
O99 O 0.99185 0.31526 0.86748 0.0
Cd100 Cd 0.04208 0.33176 0.88317 0.0
O101 O 0.97999 0.2809 0.89826 0.0
Cd102 Cd 0.03063 0.282 0.93098 0.0
C103 C 0.0409 0.36325 0.96122 0.0
O104 O 0.06091 0.28793 0.88985 0.0
O105 O 0.08352 0.30518 0.93693 0.0
O106 O 0.03637 0.22595 0.93007 0.0
C107 C 0.08476 0.29879 0.9077 0.0
O108 O 0.04575 0.36694 0.93396 0.0
C109 C 0.03588 0.22605 0.95905 0.0
O110 O 0.03388 0.33524 0.96737 0.0
O111 O 0.03032 0.25071 0.97507 0.0
C112 C 0.4962 0.05494 0.36838 0.0
O113 O 0.50407 0.03157 0.3533 0.0
Cd114 Cd 0.50051 1.00647 0.30026 0.0
O115 O 0.48107 0.07005 0.35538 0.0
Cd116 Cd 0.4527 0.0437 0.30808 0.0
C117 C 0.43913 0.97273 0.31397 0.0
O118 O 0.48592 0.04303 0.27364 0.0
O119 O 0.44354 1.01021 0.25749 0.0
O120 O 0.44318 0.091 0.29818 0.0
C121 C 0.46742 0.02454 0.25138 0.0
O122 O 0.45623 0.96791 0.29459 0.0
C123 C 0.41632 0.07962 0.29437 0.0
O124 O 0.44336 0.9996 0.3328 0.0
O125 O 0.4064 0.05218 0.3004 0.0
C126 C 0.34041 0.17339 0.52029 0.0
O127 O 0.32104 0.15378 0.52933 0.0
Cd128 Cd 0.27374 0.15609 0.53401 0.0
O129 O 0.3348 0.19614 0.50828 0.0
Cd130 Cd 0.2904 0.21507 0.49321 0.0
C131 C 0.29312 0.23685 0.5734 0.0
O132 O 0.25413 0.16359 0.48587 0.0
O133 O 0.2368 0.20462 0.49304 0.0
O134 O 0.29955 0.21296 0.43718 0.0
C135 C 0.23222 0.17421 0.48828 0.0
O136 O 0.28386 0.2068 0.57167 0.0
C137 C 0.30391 0.24286 0.43789 0.0
O138 O 0.29879 0.24792 0.54899 0.0
O139 O 0.30156 0.26014 0.46391 0.0
C140 C 0.1533 0.05078 0.8482 0.0
O141 O 0.14611 0.06916 0.83141 0.0
Cd142 Cd 0.17369 0.0683 0.78654 0.0
O143 O 0.17175 0.03557 0.83702 0.0
Cd144 Cd 0.19975 0.03341 0.77847 0.0
C145 C 0.22912 0.1219 0.78247 0.0
O146 O 0.15259 0.03044 0.73649 0.0
O147 O 0.19195 0.04418 0.72006 0.0
O148 O 0.20552 0.97001 0.7694 0.0
C149 C 0.16489 0.0376 0.71338 0.0
O150 O 0.2026 0.12034 0.77911 0.0
C151 C 0.23265 0.97408 0.77294 0.0
O152 O 0.23626 0.09579 0.78627 0.0
O153 O 0.24499 1.00418 0.77846 0.0
C154 C 0.40027 1.00616 1.00009 0.0
O155 O 0.38958 0.02315 0.98418 0.0
Cd156 Cd 0.33993 1.00418 0.96404 0.0
O157 O 0.38473 0.98231 0.00755 0.0
Cd158 Cd 0.33797 0.95382 0.00719 0.0
C159 C 0.33949 0.92665 0.9326 0.0
O160 O 0.31971 0.99903 0.01161 0.0
O161 O 0.28971 0.95283 0.01044 0.0
O162 O 0.36174 0.96073 0.05746 0.0
C163 C 0.29486 0.9831 0.01342 0.0
O164 O 0.33987 0.95433 0.92729 0.0
C165 C 0.35745 0.93077 0.0559 0.0
O166 O 0.33802 0.92126 0.95971 0.0
O167 O 0.34014 0.91151 0.03285 0.0
C168 C 0.41792 0.46502 0.04347 0.0
O169 O 0.40241 0.48022 0.03085 0.0
Cd170 Cd 0.35232 0.46267 0.01495 0.0
O171 O 0.40664 0.43886 0.05194 0.0
Cd172 Cd 0.35458 0.4039 0.05106 0.0
C173 C 0.35122 0.38632 0.97167 0.0
O174 O 0.32846 0.44529 0.05511 0.0
O175 O 0.30407 0.39843 0.02957 0.0
O176 O 0.35867 0.40364 0.10886 0.0
C177 C 0.30444 0.42726 0.04143 0.0
O178 O 0.34912 0.41518 0.97514 0.0
C179 C 0.34729 0.37386 0.10615 0.0
O180 O 0.35481 0.37399 0.99566 0.0
O181 O 0.34106 0.35728 0.07801 0.0
C182 C 0.84804 0.1155 0.03871 0.0
O183 O 0.83065 0.09686 0.051 0.0
Cd184 Cd 0.78951 0.10911 0.07144 0.0
O185 O 0.84377 0.14178 0.03458 0.0
Cd186 Cd 0.80211 0.15903 0.0375 0.0
C187 C 0.80571 0.18853 0.10836 0.0
O188 O 0.75863 0.11517 0.02937 0.0
O189 O 0.75909 0.16412 0.05238 0.0
O190 O 0.79312 0.16079 0.98463 0.0
C191 C 0.74521 0.13614 0.03819 0.0
O192 O 0.79567 0.15924 0.10941 0.0
C193 C 0.7964 0.191 0.99135 0.0
O194 O 0.81508 0.19624 0.08433 0.0
O195 O 0.8069 0.20626 0.01919 0.0
C196 C 0.15873 0.60492 0.28157 0.0
O197 O 0.13757 0.60367 0.26145 0.0
Cd198 Cd 0.1415 0.59239 0.20699 0.0
O199 O 0.17872 0.59265 0.27353 0.0
Cd200 Cd 0.19579 0.56427 0.23024 0.0
C201 C 0.208 0.64084 0.22966 0.0
O202 O 0.15584 0.543 0.19497 0.0
O203 O 0.19473 0.55057 0.17401 0.0
O204 O 0.20377 0.52619 0.2576 0.0
C205 C 0.16764 0.54151 0.17039 0.0
O206 O 0.18306 0.63903 0.2162 0.0
C207 C 0.23068 0.53505 0.25825 0.0
O208 O 0.21552 0.61656 0.23511 0.0
O209 O 0.24071 0.55581 0.24272 0.0
C210 C 0.91574 0.96855 0.54351 0.0
O211 O 0.89864 0.98161 0.53021 0.0
Cd212 Cd 0.84909 0.96152 0.51281 0.0
O213 O 0.90615 0.94198 0.55224 0.0
Cd214 Cd 0.85484 0.904 0.5522 0.0
C215 C 0.84846 0.88372 0.47288 0.0
O216 O 0.8272 0.94421 0.55358 0.0
O217 O 0.80264 0.89538 0.53572 0.0
O218 O 0.85974 0.90413 0.60963 0.0
C219 C 0.80296 0.92482 0.54328 0.0
O220 O 0.84558 0.91223 0.47563 0.0
C221 C 0.84916 0.87424 0.60737 0.0
O222 O 0.85445 0.87281 0.49722 0.0
O223 O 0.84333 0.8572 0.57945 0.0
C224 C 1.00311 0.07329 0.33227 0.0
O225 O 0.01011 0.05528 0.30989 0.0
Cd226 Cd 0.97791 0.05453 0.26344 0.0
O227 O 0.98452 0.08863 0.32394 0.0
Cd228 Cd 0.95576 0.08859 0.26187 0.0
C229 C 0.92293 0.99974 0.25657 0.0
O230 O 1.00182 0.0855 0.22818 0.0
O231 O 0.96307 0.07786 0.1987 0.0
O232 O 0.95127 0.15231 0.27357 0.0
C233 C 0.99002 0.08145 0.1998 0.0
O234 O 0.94705 0.99874 0.24842 0.0
C235 C 0.92423 0.14897 0.2691 0.0
O236 O 0.91879 0.02837 0.26395 0.0
O237 O 0.91123 0.11902 0.26143 0.0
C238 C 0.35325 0.62304 0.53979 0.0
O239 O 0.33927 0.60397 0.55455 0.0
Cd240 Cd 0.29757 0.61009 0.57625 0.0
O241 O 0.34474 0.64644 0.53342 0.0
Cd242 Cd 0.30008 0.65647 0.53793 0.0
C243 C 0.30679 0.68952 0.60952 0.0
O244 O 0.26311 0.60724 0.53308 0.0
O245 O 0.25844 0.6529 0.55937 0.0
O246 O 0.28463 0.65216 0.48391 0.0
C247 C 0.24729 0.62436 0.54436 0.0
O248 O 0.30106 0.66059 0.61298 0.0
C249 C 0.28683 0.68205 0.48797 0.0
O250 O 0.31202 0.69626 0.58355 0.0
O251 O 0.29667 0.69998 0.51492 0.0
C252 C 0.50235 0.57427 0.83037 0.0
O253 O 0.50779 0.55539 0.80752 0.0
Cd254 Cd 0.47608 0.55586 0.76138 0.0
O255 O 0.48427 0.59045 0.82263 0.0
Cd256 Cd 0.45457 0.5888 0.76021 0.0
C257 C 0.42238 0.50031 0.75584 0.0
O258 O 0.50086 0.58779 0.72705 0.0
O259 O 0.46196 0.57561 0.69695 0.0
O260 O 0.44819 0.65174 0.77552 0.0
C261 C 0.4891 0.58161 0.6984 0.0
O262 O 0.44598 0.49961 0.74616 0.0
C263 C 0.42176 0.64796 0.76525 0.0
O264 O 0.41828 0.52886 0.76405 0.0
O265 O 0.41014 0.61822 0.75288 0.0
C266 C 0.67078 0.10268 0.78598 0.0
O267 O 0.64573 0.09797 0.77165 0.0
Cd268 Cd 0.63965 0.09432 0.71767 0.0
O269 O 0.69048 0.09445 0.77254 0.0
Cd270 Cd 0.7009 0.06835 0.72431 0.0
C271 C 0.70676 0.14491 0.72942 0.0
O272 O 0.65914 0.05326 0.69291 0.0
O273 O 0.69672 0.0606 0.66859 0.0
O274 O 0.70434 0.0255 0.74767 0.0
C275 C 0.67 0.05696 0.6682 0.0
O276 O 0.67995 0.14189 0.72628 0.0
C277 C 0.73141 0.03254 0.74918 0.0
O278 O 0.71816 0.1217 0.72889 0.0
O279 O 0.74329 0.05382 0.735 0.0
C280 C 0.84213 0.67709 0.02098 0.0
O281 O 0.82366 0.65514 0.0283 0.0
Cd282 Cd 0.77573 0.65698 0.03111 0.0
O283 O 0.83496 0.69958 0.00985 0.0
Cd284 Cd 0.78973 0.71629 0.994 0.0
C285 C 0.79435 0.7368 0.07345 0.0
O286 O 0.75401 0.6635 0.98275 0.0
O287 O 0.73687 0.70373 0.99761 0.0
O288 O 0.80678 0.71814 0.94171 0.0
C289 C 0.73219 0.67347 0.98828 0.0
O290 O 0.78535 0.70654 0.07067 0.0
C291 C 0.80245 0.7451 0.93902 0.0
O292 O 0.79935 0.74892 0.04949 0.0
O293 O 0.79193 0.75899 0.96156 0.0
C294 C 0.99739 0.54728 0.86462 0.0
O295 O 1.00896 0.53026 0.84575 0.0
Cd296 Cd 1.00697 0.51342 0.79114 0.0
O297 O 0.97918 0.56139 0.85561 0.0
Cd298 Cd 0.95611 0.55497 0.80406 0.0
C299 C 0.94038 0.47539 0.79163 0.0
O300 O 0.99219 0.555 0.77398 0.0
O301 O 0.94955 0.53441 0.74861 0.0
O302 O 0.94505 0.60365 0.8027 0.0
C303 C 0.97618 0.54003 0.74847 0.0
O304 O 0.96338 0.47196 0.78169 0.0
C305 C 0.91852 0.58992 0.79467 0.0
O306 O 0.93621 0.50228 0.80345 0.0
O307 O 0.90962 0.56089 0.79692 0.0
C308 C 0.90389 0.51447 0.48653 0.0
O309 O 0.89237 0.53078 0.47066 0.0
Cd310 Cd 0.84123 0.5105 0.46293 0.0
O311 O 0.88905 0.49232 0.49695 0.0
Cd312 Cd 0.8462 0.46127 0.5042 0.0
C313 C 0.84275 0.43442 0.42925 0.0
O314 O 0.82558 0.50493 0.51355 0.0
O315 O 0.79635 0.4568 0.50262 0.0
O316 O 0.87257 0.46621 0.55437 0.0
C317 C 0.80104 0.48688 0.51327 0.0
O318 O 0.83631 0.46 0.42496 0.0
C319 C 0.86512 0.43616 0.55292 0.0
O320 O 0.84807 0.42942 0.45637 0.0
O321 O 0.84698 0.41867 0.52973 0.0
C322 C 0.65328 0.54859 0.34789 0.0
O323 O 0.6446 0.5684 0.33399 0.0
Cd324 Cd 0.66021 0.57879 0.28329 0.0
O325 O 0.67085 0.53364 0.334 0.0
Cd326 Cd 0.69889 0.53078 0.27594 0.0
C327 C 0.72775 0.622 0.28282 0.0
O328 O 0.6526 0.53387 0.23737 0.0
O329 O 0.68902 0.53215 0.21509 0.0
O330 O 0.7049 0.46756 0.26772 0.0
C331 C 0.66355 0.53507 0.21204 0.0
O332 O 0.70206 0.6234 0.28408 0.0
C333 C 0.73207 0.47183 0.27209 0.0
O334 O 0.73338 0.59402 0.28158 0.0
O335 O 0.74433 0.502 0.27786 0.0
Ho336 Ho 0.05439 0.04479 0.0081 0.0
Ho337 Ho 0.09802 0.0808 0.04498 0.0
C338 C 0.06436 0.12135 0.01372 0.0
C339 C 1.00336 0.02288 0.97728 0.0
C340 C 0.98053 0.03928 0.97986 0.0
C341 C 0.98174 0.06201 0.00753 0.0
C342 C 0.961 0.07881 0.0104 0.0
C343 C 0.93839 0.07282 0.98585 0.0
C344 C 0.93785 0.05127 0.95747 0.0
C345 C 0.95896 0.03454 0.95449 0.0
C346 C 0.09958 0.04704 0.97178 0.0
C347 C 0.08773 1.00388 0.03972 0.0
C348 C 0.15072 0.1027 0.07154 0.0
C349 C 0.17309 0.08601 0.06589 0.0
C350 C 0.16723 0.05944 0.04052 0.0
C351 C 0.18677 0.04141 0.03546 0.0
C352 C 0.21373 0.05137 0.05381 0.0
C353 C 0.21993 0.0779 0.07938 0.0
C354 C 0.1994 0.09502 0.08565 0.0
C355 C 0.05361 0.07951 0.08231 0.0
O356 O 0.04491 0.09399 0.00999 0.0
O357 O 0.09026 0.12265 0.02596 0.0
O358 O 0.02472 0.03762 0.96553 0.0
O359 O 0.01173 1.01373 1.00248 0.0
O360 O 0.08083 0.02152 0.97424 0.0
O361 O 0.09418 0.07032 0.9911 0.0
O362 O 0.10629 0.03197 0.04543 0.0
O363 O 0.06227 1.00158 0.02522 0.0
O364 O 0.13064 0.08813 0.08514 0.0
O365 O 0.14028 0.11175 0.04726 0.0
O366 O 0.07398 0.1043 0.08126 0.0
O367 O 0.05744 0.05586 0.06192 0.0
H368 H 0.99842 0.06634 0.02731 0.0
H369 H 0.96177 0.09508 0.03262 0.0
H370 H 0.92068 0.04665 0.93813 0.0
H371 H 0.95824 0.01766 0.93271 0.0
H372 H 0.14772 0.05286 0.02404 0.0
H373 H 0.1813 0.02051 0.01613 0.0
H374 H 0.24075 0.08586 0.09379 0.0
H375 H 0.20423 0.11549 0.10532 0.0
Ho376 Ho 0.33936 0.81169 0.24417 0.0
Ho377 Ho 0.30496 0.81752 0.29802 0.0
C378 C 0.33894 0.88116 0.2819 0.0
C379 C 0.35841 0.80752 0.19159 0.0
C380 C 0.37638 0.8333 0.18061 0.0
C381 C 0.3721 0.86425 0.18771 0.0
C382 C 0.38618 0.88784 0.17368 0.0
C383 C 0.40382 0.88016 0.15158 0.0
C384 C 0.41187 0.8511 0.14881 0.0
C385 C 0.39783 0.82741 0.16316 0.0
C386 C 0.3745 0.80657 0.29499 0.0
C387 C 0.30176 0.74988 0.25904 0.0
C388 C 0.28178 0.82015 0.34834 0.0
C389 C 0.26943 0.79525 0.36401 0.0
C390 C 0.26531 0.76289 0.34912 0.0
C391 C 0.25732 0.73909 0.36565 0.0
C392 C 0.25383 0.74778 0.39707 0.0
C393 C 0.25422 0.77956 0.41056 0.0
C394 C 0.26218 0.80347 0.39394 0.0
C395 C 0.27089 0.82026 0.24497 0.0
O396 O 0.34392 0.86407 0.2559 0.0
O397 O 0.32718 0.86815 0.30356 0.0
O398 O 0.37067 0.79976 0.21568 0.0
O399 O 0.33258 0.81016 0.19446 0.0
O400 O 0.38084 0.80931 0.26773 0.0
O401 O 0.34917 0.81055 0.29611 0.0
O402 O 0.30424 0.76625 0.28783 0.0
O403 O 0.31106 0.76314 0.23643 0.0
O404 O 0.2679 0.81685 0.32053 0.0
O405 O 0.30948 0.82644 0.34889 0.0
O406 O 0.2634 0.81972 0.27214 0.0
O407 O 0.29623 0.8171 0.24694 0.0
H408 H 0.3561 0.86949 0.20183 0.0
H409 H 0.37957 0.91007 0.17625 0.0
H410 H 0.4257 0.84505 0.13202 0.0
H411 H 0.40212 0.80391 0.15869 0.0
H412 H 0.26983 0.7562 0.32549 0.0
H413 H 0.25717 0.71456 0.3553 0.0
H414 H 0.25174 0.78635 0.43504 0.0
H415 H 0.26453 0.82838 0.40514 0.0
Ho416 Ho 0.60915 0.05905 0.51727 0.0
Ho417 Ho 0.54568 0.05976 0.52914 0.0
C418 C 0.56081 0.99243 0.51628 0.0
C419 C 0.6598 0.0509 0.5152 0.0
C420 C 0.6753 0.02558 0.51549 0.0
C421 C 0.68386 0.01754 0.54386 0.0
C422 C 0.7011 0.99628 0.54466 0.0
C423 C 0.71028 0.98256 0.51715 0.0
C424 C 0.70129 0.98998 0.48854 0.0
C425 C 0.68389 1.01127 0.48771 0.0
C426 C 0.5725 0.05902 0.46883 0.0
C427 C 0.5931 0.12652 0.52897 0.0
C428 C 0.49592 0.07014 0.53155 0.0
C429 C 0.48322 0.09785 0.53663 0.0
C430 C 0.48294 0.11743 0.51457 0.0
C431 C 0.46552 0.13879 0.51625 0.0
C432 C 0.4483 0.14086 0.53999 0.0
C433 C 0.45088 0.12385 0.56383 0.0
C434 C 0.46823 0.10249 0.56216 0.0
C435 C 0.58268 0.06057 0.57739 0.0
O436 O 0.5883 1.00804 0.52123 0.0
O437 O 0.54 1.00704 0.51359 0.0
O438 O 0.64138 0.04735 0.49008 0.0
O439 O 0.65096 0.06226 0.54133 0.0
O440 O 0.59943 0.0732 0.47201 0.0
O441 O 0.56696 0.04401 0.48998 0.0
O442 O 0.56585 0.11062 0.52536 0.0
O443 O 0.61432 0.11233 0.53066 0.0
O444 O 0.51169 0.06637 0.55586 0.0
O445 O 0.5062 0.06378 0.50523 0.0
O446 O 0.55596 0.04591 0.57485 0.0
O447 O 0.58787 0.07535 0.5561 0.0
H448 H 0.67812 0.02853 0.56573 0.0
H449 H 0.70836 0.99175 0.56719 0.0
H450 H 0.70826 0.9799 0.46703 0.0
H451 H 0.67789 0.01728 0.46552 0.0
H452 H 0.49455 0.11468 0.49481 0.0
H453 H 0.46345 0.15135 0.4974 0.0
H454 H 0.43744 0.12483 0.58209 0.0
H455 H 0.46825 0.08787 0.57957 0.0
Ho456 Ho 0.29762 0.32302 0.77355 0.0
Ho457 Ho 0.3548 0.30028 0.77243 0.0
C458 C 0.3384 0.32695 0.83919 0.0
C459 C 0.24589 0.32488 0.78136 0.0
C460 C 0.22798 0.32625 0.80683 0.0
C461 C 0.22442 0.30362 0.82606 0.0
C462 C 0.20458 0.30355 0.84726 0.0
C463 C 0.18794 0.32598 0.84948 0.0
C464 C 0.19287 0.34971 0.83163 0.0
C465 C 0.21269 0.34986 0.81062 0.0
C466 C 0.34195 0.37529 0.76909 0.0
C467 C 0.31519 0.29596 0.70667 0.0
C468 C 0.40538 0.29569 0.7629 0.0
C469 C 0.42195 0.29364 0.73629 0.0
C470 C 0.43037 0.3196 0.7217 0.0
C471 C 0.45032 0.31915 0.70075 0.0
C472 C 0.46227 0.29283 0.69438 0.0
C473 C 0.45156 0.26554 0.70634 0.0
C474 C 0.43168 0.26601 0.72721 0.0
C475 C 0.30983 0.24841 0.77643 0.0
O476 O 0.31318 0.3272 0.82488 0.0
O477 O 0.35919 0.32029 0.82408 0.0
O478 O 0.26652 0.35042 0.78294 0.0
O479 O 0.25322 0.29817 0.77169 0.0
O480 O 0.31549 0.37534 0.77034 0.0
O481 O 0.34304 0.34638 0.77038 0.0
O482 O 0.34043 0.29747 0.72183 0.0
O483 O 0.29414 0.30311 0.72127 0.0
O484 O 0.38404 0.27094 0.76155 0.0
O485 O 0.39966 0.32309 0.77399 0.0
O486 O 0.33645 0.24833 0.77717 0.0
O487 O 0.30943 0.27731 0.77486 0.0
H488 H 0.23614 0.2853 0.82391 0.0
H489 H 0.20106 0.28483 0.86055 0.0
H490 H 0.18048 0.36738 0.833 0.0
H491 H 0.21524 0.36775 0.79634 0.0
H492 H 0.42311 0.34108 0.72814 0.0
H493 H 0.45845 0.34057 0.69205 0.0
H494 H 0.46068 0.24508 0.702 0.0
H495 H 0.4254 0.24555 0.73791 0.0
Ho496 Ho 0.07652 0.08994 0.54048 0.0
Ho497 Ho 0.08755 0.03217 0.51124 0.0
C498 C 0.05589 0.06417 0.46222 0.0
C499 C 0.07362 0.14886 0.55039 0.0
C500 C 0.07505 0.1697 0.52766 0.0
C501 C 0.08958 0.16386 0.50187 0.0
C502 C 0.09346 0.1851 0.48177 0.0
C503 C 0.08278 0.21237 0.4871 0.0
C504 C 0.06644 0.21703 0.5114 0.0
C505 C 0.06259 0.1957 0.53167 0.0
C506 C 0.03534 0.03849 0.54729 0.0
C507 C 0.10743 0.05743 0.58965 0.0
C508 C 0.09244 0.97384 0.4995 0.0
C509 C 0.09009 0.95115 0.52042 0.0
C510 C 0.07835 0.95788 0.54813 0.0
C511 C 0.07264 0.93523 0.56651 0.0
C512 C 0.07832 0.90532 0.55722 0.0
C513 C 0.09164 0.89902 0.53059 0.0
C514 C 0.0977 0.92206 0.51227 0.0
C515 C 0.12731 0.08411 0.50385 0.0
O516 O 0.06033 0.08777 0.48777 0.0
O517 O 0.06404 0.03781 0.4652 0.0
O518 O 0.05106 0.12468 0.54501 0.0
O519 O 0.09712 0.14048 0.5574 0.0
O520 O 0.04617 0.06469 0.56864 0.0
O521 O 0.04655 0.04138 0.52264 0.0
O522 O 0.10129 0.03341 0.56432 0.0
O523 O 0.10131 0.08477 0.58623 0.0
O524 O 0.11435 0.99885 0.50776 0.0
O525 O 0.06877 0.98161 0.49175 0.0
O526 O 0.11621 0.05853 0.48198 0.0
O527 O 0.11722 0.08052 0.52889 0.0
H528 H 0.09912 0.1437 0.49808 0.0
H529 H 0.10618 0.18126 0.46314 0.0
H530 H 0.05827 0.23818 0.51589 0.0
H531 H 0.05095 0.20021 0.55115 0.0
H532 H 0.07185 0.97981 0.55463 0.0
H533 H 0.06191 0.94018 0.58672 0.0
H534 H 0.09589 0.87577 0.52312 0.0
H535 H 0.10699 0.9166 0.49109 0.0
Ho536 Ho 0.35362 0.83432 0.76585 0.0
Ho537 Ho 0.30043 0.78736 0.77559 0.0
C538 C 0.35788 0.75833 0.77396 0.0
C539 C 0.40524 0.86821 0.77557 0.0
C540 C 0.43197 0.85876 0.78024 0.0
C541 C 0.43576 0.83898 0.80138 0.0
C542 C 0.46211 0.83256 0.80783 0.0
C543 C 0.48487 0.84567 0.79309 0.0
C544 C 0.48047 0.86349 0.77035 0.0
C545 C 0.45411 0.86998 0.76395 0.0
C546 C 0.32214 0.7943 0.71432 0.0
C547 C 0.29646 0.86359 0.76763 0.0
C548 C 0.24933 0.7517 0.76422 0.0
C549 C 0.22166 0.75916 0.7582 0.0
C550 C 0.20908 0.75529 0.72699 0.0
C551 C 0.18354 0.76329 0.72059 0.0
C552 C 0.16989 0.77505 0.74524 0.0
C553 C 0.18248 0.77942 0.77649 0.0
C554 C 0.20825 0.77146 0.78297 0.0
C555 C 0.33257 0.82474 0.82779 0.0
O556 O 0.37132 0.78908 0.77359 0.0
O557 O 0.32947 0.7515 0.77378 0.0
O558 O 0.39043 0.85793 0.74729 0.0
O559 O 0.38962 0.86549 0.79805 0.0
O560 O 0.33545 0.82373 0.7141 0.0
O561 O 0.32794 0.78866 0.74069 0.0
O562 O 0.28296 0.83297 0.76853 0.0
O563 O 0.32477 0.87021 0.76724 0.0
O564 O 0.2635 0.76238 0.79285 0.0
O565 O 0.26554 0.75561 0.74235 0.0
O566 O 0.31872 0.79504 0.8262 0.0
O567 O 0.32688 0.83268 0.8023 0.0
H568 H 0.41877 0.82946 0.81387 0.0
H569 H 0.46514 0.81876 0.82545 0.0
H570 H 0.49791 0.87429 0.75909 0.0
H571 H 0.45138 0.88485 0.74728 0.0
H572 H 0.2189 0.74592 0.70739 0.0
H573 H 0.17398 0.75926 0.69625 0.0
H574 H 0.17227 0.78861 0.7958 0.0
H575 H 0.21758 0.77491 0.80728 0.0
Ho576 Ho 0.58427 0.05127 0.05443 0.0
Ho577 Ho 0.56949 0.06636 0.98815 0.0
C578 C 0.52045 0.02392 0.01269 0.0
C579 C 0.58389 0.03037 0.10484 0.0
C580 C 0.55919 1.01319 0.11589 0.0
C581 C 0.53217 0.0166 0.10526 0.0
C582 C 0.50828 1.00051 0.11566 0.0
C583 C 0.51232 0.98568 0.14071 0.0
C584 C 0.53821 0.97792 0.14788 0.0
C585 C 0.56188 0.99178 0.13524 0.0
C586 C 0.60947 0.02669 0.00792 0.0
C587 C 0.6264 0.10719 0.03709 0.0
C588 C 0.57259 0.07071 0.93182 0.0
C589 C 0.59672 0.0916 0.92306 0.0
C590 C 0.62436 0.0946 0.93818 0.0
C591 C 0.64773 0.11327 0.92904 0.0
C592 C 0.64357 0.12701 0.90324 0.0
C593 C 0.61595 0.12833 0.89164 0.0
C594 C 0.59243 0.11038 0.9015 0.0
C595 C 0.5547 0.10786 0.03329 0.0
O596 O 0.53688 0.03149 0.0402 0.0
O597 O 0.52952 0.03052 0.98691 0.0
O598 O 0.5889 1.01415 0.0787 0.0
O599 O 0.58519 0.06068 0.10471 0.0
O600 O 0.62227 0.03858 0.03644 0.0
O601 O 0.58367 0.02775 1.00547 0.0
O602 O 0.61428 0.09506 0.00747 0.0
O603 O 0.61514 0.09829 0.0612 0.0
O604 O 0.55743 0.08607 0.94884 0.0
O605 O 0.57827 0.04647 0.9425 0.0
O606 O 0.55087 0.10834 1.00372 0.0
O607 O 0.56593 0.08542 0.03628 0.0
H608 H 0.52968 0.03409 0.09167 0.0
H609 H 0.48823 1.00644 0.10993 0.0
H610 H 0.54126 0.96565 0.16678 0.0
H611 H 0.5825 0.98794 0.1425 0.0
H612 H 0.62821 0.08073 0.9554 0.0
H613 H 0.66892 0.11234 0.93838 0.0
H614 H 0.61231 0.13933 0.87192 0.0
H615 H 0.5711 0.10946 0.89088 0.0
Ho616 Ho 0.34063 0.34488 0.29133 0.0
Ho617 Ho 0.30674 0.2741 0.25383 0.0
C618 C 0.2719 0.31864 0.2859 0.0
C619 C 0.35618 0.40607 0.31148 0.0
C620 C 0.338 0.42796 0.31065 0.0
C621 C 0.31311 0.41858 0.28845 0.0
C622 C 0.294 0.43755 0.2892 0.0
C623 C 0.29996 0.46639 0.31169 0.0
C624 C 0.32423 0.47542 0.33456 0.0
C625 C 0.34311 0.45587 0.33432 0.0
C626 C 0.33563 0.30395 0.33218 0.0
C627 C 0.37519 0.29887 0.2627 0.0
C628 C 0.29317 0.21298 0.23288 0.0
C629 C 0.31031 0.19071 0.23758 0.0
C630 C 0.33258 0.2 0.26295 0.0
C631 C 0.35109 0.18085 0.26629 0.0
C632 C 0.34754 0.15221 0.24424 0.0
C633 C 0.32613 0.14327 0.21805 0.0
C634 C 0.30758 0.16275 0.21458 0.0
C635 C 0.3135 0.31471 0.2126 0.0
O636 O 0.29383 0.34318 0.2864 0.0
O637 O 0.27173 0.28834 0.27585 0.0
O638 O 0.34886 0.38616 0.32967 0.0
O639 O 0.36107 0.39188 0.28425 0.0
O640 O 0.35041 0.33352 0.3388 0.0
O641 O 0.32684 0.29701 0.30272 0.0
O642 O 0.35294 0.2758 0.26459 0.0
O643 O 0.37568 0.3295 0.27025 0.0
O644 O 0.30461 0.23344 0.21674 0.0
O645 O 0.28401 0.2266 0.25782 0.0
O646 O 0.29802 0.28546 0.20608 0.0
O647 O 0.32154 0.32175 0.24219 0.0
H648 H 0.30865 0.39687 0.27023 0.0
H649 H 0.27551 0.43082 0.27103 0.0
H650 H 0.32907 0.49803 0.35164 0.0
H651 H 0.3618 0.46272 0.35217 0.0
H652 H 0.33595 0.22225 0.28005 0.0
H653 H 0.36759 0.1878 0.28668 0.0
H654 H 0.32329 0.12092 0.20104 0.0
H655 H 0.29117 0.15605 0.19417 0.0
Ho656 Ho 0.57645 0.58983 0.03929 0.0
Ho657 Ho 0.58556 0.53168 0.0094 0.0
C658 C 0.55517 0.56543 0.96098 0.0
C659 C 0.57473 0.64899 0.0503 0.0
C660 C 0.57565 0.66992 0.02775 0.0
C661 C 0.59046 0.66506 1.002 0.0
C662 C 0.59253 0.68578 0.98131 0.0
C663 C 0.57992 0.7116 0.98621 0.0
C664 C 0.5637 0.71533 0.01075 0.0
C665 C 0.56141 0.69439 0.03135 0.0
C666 C 0.53472 0.53955 0.04652 0.0
C667 C 0.60684 0.55582 0.08781 0.0
C668 C 0.58651 0.47212 0.99698 0.0
C669 C 0.58413 0.44994 0.0183 0.0
C670 C 0.57427 0.45813 0.047 0.0
C671 C 0.56994 0.43653 0.06663 0.0
C672 C 0.57412 0.40573 0.05724 0.0
C673 C 0.58506 0.39797 0.02903 0.0
C674 C 0.59034 0.42016 0.00981 0.0
C675 C 0.62628 0.58187 1.00057 0.0
O676 O 0.55975 0.58876 0.98681 0.0
O677 O 0.56274 0.53871 0.96376 0.0
O678 O 0.55184 0.62526 0.04543 0.0
O679 O 0.59812 0.64005 0.05638 0.0
O680 O 0.54674 0.56503 0.06828 0.0
O681 O 0.54531 0.54223 0.0215 0.0
O682 O 0.60229 0.53306 0.06161 0.0
O683 O 0.59922 0.5827 0.0855 0.0
O684 O 0.60964 0.49571 1.00354 0.0
O685 O 0.56352 0.48179 0.99099 0.0
O686 O 0.61444 0.55585 0.97946 0.0
O687 O 0.61654 0.57958 0.02616 0.0
H688 H 0.60125 0.64593 0.99848 0.0
H689 H 0.60551 0.6829 0.96277 0.0
H690 H 0.554 0.73534 0.01482 0.0
H691 H 0.54938 0.69795 0.05064 0.0
H692 H 0.56854 0.4806 0.05363 0.0
H693 H 0.56179 0.44329 0.08836 0.0
H694 H 0.58797 0.37419 0.02085 0.0
H695 H 0.59796 0.41354 0.98772 0.0
Ho696 Ho 0.85426 0.33382 0.26746 0.0
Ho697 Ho 0.80234 0.28669 0.27841 0.0
C698 C 0.86107 0.26005 0.28022 0.0
C699 C 0.90529 0.36922 0.27891 0.0
C700 C 0.93257 0.36076 0.28422 0.0
C701 C 0.9456 0.36403 0.31519 0.0
C702 C 0.9717 0.35686 0.32079 0.0
C703 C 0.98535 0.34675 0.29554 0.0
C704 C 0.97155 0.34132 0.26459 0.0
C705 C 0.94533 0.34841 0.25893 0.0
C706 C 0.82446 0.2916 0.21615 0.0
C707 C 0.79656 0.36194 0.2683 0.0
C708 C 0.75149 0.2504 0.26703 0.0
C709 C 0.724 0.25809 0.26015 0.0
C710 C 0.71275 0.25602 0.22881 0.0
C711 C 0.68781 0.26512 0.2219 0.0
C712 C 0.67352 0.27636 0.24616 0.0
C713 C 0.6845 0.27831 0.27751 0.0
C714 C 0.70965 0.26931 0.28451 0.0
C715 C 0.83312 0.32699 0.32983 0.0
O716 O 0.87334 0.28998 0.27643 0.0
O717 O 0.83287 0.25284 0.28155 0.0
O718 O 0.89089 0.35961 0.25032 0.0
O719 O 0.88924 0.36514 0.30085 0.0
O720 O 0.83674 0.32128 0.21553 0.0
O721 O 0.82995 0.28679 0.24307 0.0
O722 O 0.78366 0.33136 0.27004 0.0
O723 O 0.82478 0.3689 0.2676 0.0
O724 O 0.76535 0.26188 0.29572 0.0
O725 O 0.76808 0.25338 0.24538 0.0
O726 O 0.81971 0.29752 0.32973 0.0
O727 O 0.82729 0.33304 0.30346 0.0
H728 H 0.93605 0.37303 0.33517 0.0
H729 H 0.98209 0.36138 0.34487 0.0
H730 H 0.98175 0.33319 0.24484 0.0
H731 H 0.93549 0.34498 0.23481 0.0
H732 H 0.72319 0.24733 0.20948 0.0
H733 H 0.6792 0.26233 0.19744 0.0
H734 H 0.67346 0.28648 0.29649 0.0
H735 H 0.71783 0.27118 0.3089 0.0
Ho736 Ho 0.081 0.55679 0.55559 0.0
Ho737 Ho 0.0705 0.56376 0.48935 0.0
C738 C 0.02153 0.5186 0.50955 0.0
C739 C 0.07719 0.54538 0.6101 0.0
C740 C 0.05483 0.52185 0.61928 0.0
C741 C 0.02749 0.52674 0.62015 0.0
C742 C 1.00723 0.50589 0.63168 0.0
C743 C 0.01525 0.48218 0.64545 0.0
C744 C 0.04028 0.47341 0.63905 0.0
C745 C 0.06038 0.49368 0.62642 0.0
C746 C 0.10587 0.52238 0.51534 0.0
C747 C 0.12861 0.60386 0.53597 0.0
C748 C 0.08018 0.5731 0.43549 0.0
C749 C 0.10553 0.59508 0.42897 0.0
C750 C 0.12913 0.58367 0.42131 0.0
C751 C 0.1516 0.60337 0.41141 0.0
C752 C 0.15008 0.63424 0.40785 0.0
C753 C 0.12955 0.64765 0.42162 0.0
C754 C 0.10689 0.62789 0.43137 0.0
C755 C 0.04759 0.60034 0.52986 0.0
O756 O 0.03463 0.53247 0.53844 0.0
O757 O 0.03481 0.52132 0.48514 0.0
O758 O 0.09287 0.53285 0.59149 0.0
O759 O 0.06992 0.57 0.6018 0.0
O760 O 0.11788 0.53734 0.5435 0.0
O761 O 0.08083 0.52548 0.51009 0.0
O762 O 0.11609 0.58943 0.50715 0.0
O763 O 0.11537 0.60067 0.56028 0.0
O764 O 0.06288 0.58658 0.45089 0.0
O765 O 0.08466 0.54808 0.44541 0.0
O766 O 0.03511 0.58651 0.50146 0.0
O767 O 0.07201 0.59577 0.53493 0.0
H768 H 0.02228 0.54775 0.61398 0.0
H769 H 0.98768 0.5127 0.63588 0.0
H770 H 0.0465 0.45474 0.64903 0.0
H771 H 0.08102 0.48875 0.62466 0.0
H772 H 0.12941 0.55891 0.42081 0.0
H773 H 0.16755 0.59239 0.40185 0.0
H774 H 0.12843 0.67173 0.41999 0.0
H775 H 0.08964 0.63784 0.43875 0.0
Ho776 Ho 0.79714 0.82223 0.27241 0.0
Ho777 Ho 0.85466 0.80134 0.27403 0.0
C778 C 0.83537 0.82618 0.33965 0.0
C779 C 0.7455 0.82488 0.27981 0.0
C780 C 0.72784 0.82614 0.30549 0.0
C781 C 0.72566 0.80437 0.3256 0.0
C782 C 0.70621 0.80416 0.34722 0.0
C783 C 0.68872 0.82565 0.34903 0.0
C784 C 0.69221 0.84863 0.33035 0.0
C785 C 0.71169 0.84897 0.30892 0.0
C786 C 0.84133 0.87521 0.26883 0.0
C787 C 0.81587 0.79549 0.2068 0.0
C788 C 0.90594 0.79927 0.2655 0.0
C789 C 0.92187 0.7985 0.23831 0.0
C790 C 0.93674 0.82706 0.23088 0.0
C791 C 0.95496 0.82614 0.20815 0.0
C792 C 0.95876 0.79664 0.19246 0.0
C793 C 0.942 0.76798 0.19799 0.0
C794 C 0.92393 0.7689 0.2208 0.0
C795 C 0.81119 0.74772 0.27648 0.0
O796 O 0.81074 0.8257 0.32359 0.0
O797 O 0.85706 0.81982 0.32599 0.0
O798 O 0.76648 0.85019 0.28192 0.0
O799 O 0.7524 0.79802 0.26954 0.0
O800 O 0.81466 0.87473 0.26893 0.0
O801 O 0.84252 0.84657 0.27074 0.0
O802 O 0.84087 0.79711 0.22273 0.0
O803 O 0.7944 0.80238 0.2206 0.0
O804 O 0.88533 0.7738 0.26426 0.0
O805 O 0.89933 0.82601 0.27705 0.0
O806 O 0.83813 0.74931 0.27746 0.0
O807 O 0.80904 0.77627 0.275 0.0
H808 H 0.73813 0.78677 0.3238 0.0
H809 H 0.70361 0.786 0.3612 0.0
H810 H 0.67881 0.86527 0.33122 0.0
H811 H 0.71325 0.86624 0.29398 0.0
H812 H 0.93556 0.85024 0.24381 0.0
H813 H 0.96781 0.84869 0.20483 0.0
H814 H 0.9443 0.74486 0.18614 0.0
H815 H 0.91262 0.74638 0.22573 0.0
Ho816 Ho 0.83787 0.30918 0.75053 0.0
Ho817 Ho 0.80276 0.31907 0.79695 0.0
C818 C 0.84537 0.37775 0.79085 0.0
C819 C 0.86155 0.30952 0.70066 0.0
C820 C 0.87538 0.3358 0.68723 0.0
C821 C 0.86629 0.3642 0.69099 0.0
C822 C 0.8772 0.38744 0.67474 0.0
C823 C 0.89705 0.38214 0.65459 0.0
C824 C 0.90922 0.35612 0.65469 0.0
C825 C 0.89809 0.33268 0.67078 0.0
C826 C 0.8703 0.30403 0.80302 0.0
C827 C 0.80279 0.24838 0.76453 0.0
C828 C 0.76845 0.31583 0.83795 0.0
C829 C 0.76504 0.29581 0.8607 0.0
C830 C 0.78444 0.2772 0.8641 0.0
C831 C 0.78144 0.25722 0.88507 0.0
C832 C 0.75934 0.25616 0.90319 0.0
C833 C 0.7397 0.2745 0.89988 0.0
C834 C 0.7424 0.29422 0.87819 0.0
C835 C 0.78144 0.33133 0.74159 0.0
O836 O 0.84203 0.3614 0.76199 0.0
O837 O 0.83625 0.36399 0.8131 0.0
O838 O 0.87488 0.3088 0.72757 0.0
O839 O 0.83402 0.30472 0.70021 0.0
O840 O 0.87623 0.29957 0.77493 0.0
O841 O 0.84575 0.30986 0.80334 0.0
O842 O 0.80329 0.2676 0.79155 0.0
O843 O 0.81416 0.25944 0.74191 0.0
O844 O 0.76144 0.29961 0.80891 0.0
O845 O 0.79299 0.33725 0.84278 0.0
O846 O 0.78438 0.34968 0.76901 0.0
O847 O 0.79133 0.30744 0.74476 0.0
H848 H 0.84944 0.36744 0.70464 0.0
H849 H 0.86758 0.40745 0.67493 0.0
H850 H 0.92469 0.35195 0.63931 0.0
H851 H 0.90593 0.31128 0.66878 0.0
H852 H 0.80216 0.2785 0.85091 0.0
H853 H 0.79705 0.24353 0.88813 0.0
H854 H 0.72298 0.27412 0.91446 0.0
H855 H 0.7273 0.30854 0.87546 0.0
Ho856 Ho 0.83917 0.84316 0.791 0.0
Ho857 Ho 0.80812 0.7795 0.75606 0.0
C858 C 0.77147 0.82485 0.7792 0.0
C859 C 0.85549 0.90421 0.81371 0.0
C860 C 0.83792 0.92662 0.81061 0.0
C861 C 0.81705 0.91946 0.78396 0.0
C862 C 0.79755 0.9377 0.78212 0.0
C863 C 0.79901 0.96397 0.8065 0.0
C864 C 0.81989 0.97155 0.83316 0.0
C865 C 0.83918 0.95262 0.83535 0.0
C866 C 0.83086 0.79903 0.82841 0.0
C867 C 0.87637 0.79947 0.76815 0.0
C868 C 0.79271 0.7183 0.73418 0.0
C869 C 0.81033 0.69585 0.73653 0.0
C870 C 0.8315 0.70265 0.76279 0.0
C871 C 0.85043 0.68371 0.76419 0.0
C872 C 0.84834 0.65738 0.73956 0.0
C873 C 0.82735 0.65038 0.71313 0.0
C874 C 0.80847 0.66987 0.7115 0.0
C875 C 0.81652 0.8222 0.71764 0.0
O876 O 0.7945 0.84646 0.77703 0.0
O877 O 0.77102 0.79428 0.77326 0.0
O878 O 0.84639 0.88356 0.83063 0.0
O879 O 0.86235 0.89056 0.78749 0.0
O880 O 0.8545 0.8207 0.82997 0.0
O881 O 0.81294 0.80189 0.80682 0.0
O882 O 0.8534 0.77687 0.76867 0.0
O883 O 0.87591 0.82962 0.77273 0.0
O884 O 0.80143 0.73882 0.71699 0.0
O885 O 0.78639 0.73198 0.76078 0.0
O886 O 0.79318 0.79992 0.71568 0.0
O887 O 0.83429 0.82067 0.74017 0.0
H888 H 0.81565 0.89963 0.76446 0.0
H889 H 0.78195 0.932 0.76105 0.0
H890 H 0.82135 0.99212 0.85195 0.0
H891 H 0.85484 0.95805 0.85628 0.0
H892 H 0.83346 0.72262 0.78238 0.0
H893 H 0.86621 0.68905 0.78506 0.0
H894 H 0.82552 0.62993 0.69407 0.0
H895 H 0.79258 0.6648 0.69081 0.0
Ho896 Ho 0.55426 0.54334 0.50737 0.0
Ho897 Ho 0.59813 0.57791 0.54471 0.0
C898 C 0.56529 0.62027 0.51401 0.0
C899 C 0.50255 0.52226 0.47876 0.0
C900 C 0.47996 0.5388 0.4822 0.0
C901 C 0.48015 0.55917 0.51111 0.0
C902 C 0.46059 0.57755 0.51404 0.0
C903 C 0.44073 0.57626 0.48801 0.0
C904 C 0.44121 0.55682 0.45875 0.0
C905 C 0.4607 0.53799 0.45592 0.0
C906 C 0.59798 0.54377 0.46969 0.0
C907 C 0.58532 0.50048 0.53943 0.0
C908 C 0.65146 0.59844 0.57008 0.0
C909 C 0.67356 0.58076 0.5676 0.0
C910 C 0.66654 0.54973 0.54856 0.0
C911 C 0.68666 0.53216 0.54552 0.0
C912 C 0.71526 0.54649 0.55855 0.0
C913 C 0.72268 0.57799 0.57726 0.0
C914 C 0.70173 0.59478 0.58234 0.0
C915 C 0.554 0.57865 0.58179 0.0
O916 O 0.54588 0.5926 0.50775 0.0
O917 O 0.59046 0.62147 0.52854 0.0
O918 O 0.52337 0.53687 0.46613 0.0
O919 O 0.51162 0.51291 0.50361 0.0
O920 O 0.5776 0.51928 0.47099 0.0
O921 O 0.59504 0.56749 0.4907 0.0
O922 O 0.60237 0.52899 0.55157 0.0
O923 O 0.56247 0.49833 0.51995 0.0
O924 O 0.63103 0.58733 0.58513 0.0
O925 O 0.64148 0.60414 0.5437 0.0
O926 O 0.57487 0.60295 0.58059 0.0
O927 O 0.55692 0.55444 0.56127 0.0
H928 H 0.49553 0.56101 0.53148 0.0
H929 H 0.46046 0.59202 0.53699 0.0
H930 H 0.42635 0.55588 0.43826 0.0
H931 H 0.461 0.52315 0.43324 0.0
H932 H 0.64593 0.5394 0.5345 0.0
H933 H 0.68003 0.50793 0.5312 0.0
H934 H 0.74468 0.59026 0.58678 0.0
H935 H 0.70773 0.61907 0.5965 0.0
Ho936 Ho 0.10987 0.56002 0.02129 0.0
Ho937 Ho 0.04852 0.56456 0.03556 0.0
C938 C 0.06207 0.49511 0.02457 0.0
C939 C 0.15961 0.54976 0.01702 0.0
C940 C 0.17338 0.52296 0.01287 0.0
C941 C 0.17166 0.50233 0.034 0.0
C942 C 0.18951 0.48162 0.03389 0.0
C943 C 0.20926 0.4812 0.01269 0.0
C944 C 0.2092 0.49959 0.9897 0.0
C945 C 0.19133 0.52042 0.98983 0.0
C946 C 0.07127 0.55672 0.97293 0.0
C947 C 0.09731 0.62959 0.03334 0.0
C948 C 0.9985 0.57502 0.03593 0.0
C949 C 0.98492 0.60209 0.04088 0.0
C950 C 0.98689 0.62349 0.02043 0.0
C951 C 0.96884 0.64408 0.02072 0.0
C952 C 0.94884 0.64392 0.04166 0.0
C953 C 0.94882 0.62489 0.06416 0.0
C954 C 0.96666 0.60399 0.06366 0.0
C955 C 0.08726 0.56863 0.08472 0.0
O956 O 0.08952 0.51049 0.02856 0.0
O957 O 0.04163 0.51055 0.02267 0.0
O958 O 0.14251 0.55164 0.99286 0.0
O959 O 0.15008 0.55669 0.04368 0.0
O960 O 0.09809 0.57059 0.97468 0.0
O961 O 0.06659 0.54397 0.99574 0.0
O962 O 0.06966 0.61514 0.0303 0.0
O963 O 0.11722 0.61346 0.03398 0.0
O964 O 0.01304 0.57009 0.06052 0.0
O965 O 0.01051 0.57062 0.01057 0.0
O966 O 0.0602 0.55571 0.08327 0.0
O967 O 0.09168 0.58045 0.06124 0.0
H968 H 0.15786 0.50357 0.05188 0.0
H969 H 0.18938 0.46763 0.05186 0.0
H970 H 0.22446 0.49972 0.97331 0.0
H971 H 0.19287 0.53604 0.97323 0.0
H972 H 1.001 0.62293 1.00284 0.0
H973 H 0.96918 0.65858 1.00318 0.0
H974 H 0.93337 0.62418 0.08036 0.0
H975 H 0.96481 0.58781 0.07973 0.0
C976 C 0.02765 0.18649 0.99543 0.0
C977 C 0.04347 0.19979 0.97357 0.0
C978 C 0.03426 0.16114 0.0083 0.0
C979 C 0.05781 0.14899 1.00104 0.0
H980 H 1.00954 0.19518 1.00203 0.0
H981 H 0.02097 0.15116 0.02429 0.0
S982 S 0.10728 0.17654 0.94676 0.0
N983 N 0.08424 0.19885 0.9459 0.0
N984 N 0.09743 0.15304 0.97127 0.0
C985 C 0.07433 0.1628 0.98008 0.0
C986 C 0.06701 0.18767 0.96612 0.0
C987 C 0.20074 0.82333 0.20061 0.0
C988 C 0.20797 0.83979 0.17662 0.0
C989 C 0.22126 0.81529 0.22036 0.0
C990 C 0.25065 0.82389 0.21821 0.0
H991 H 0.17892 0.81685 0.20484 0.0
H992 H 0.21391 0.80305 0.23852 0.0
S993 S 0.28212 0.86883 0.16082 0.0
N994 N 0.24743 0.86468 0.15203 0.0
N995 N 0.28617 0.85085 0.19037 0.0
C996 C 0.25856 0.84018 0.19428 0.0
C997 C 0.2373 0.84786 0.17338 0.0
C998 C 0.55119 0.90185 0.50306 0.0
C999 C 0.54454 0.89281 0.46998 0.0
C1000 C 0.55607 0.93432 0.51883 0.0
C1001 C 0.55377 0.95809 0.50181 0.0
H1002 H 0.55366 0.8841 0.51661 0.0
H1003 H 0.56202 0.9409 0.54416 0.0
S1004 S 0.5359 0.94722 0.41572 0.0
N1005 N 0.53493 0.91083 0.42137 0.0
N1006 N 0.54415 0.97089 0.45108 0.0
C1007 C 0.54636 0.94923 0.46919 0.0
C1008 C 0.54166 0.91678 0.45323 0.0
C1009 C 0.52377 0.30606 0.64617 0.0
C1010 C 0.54743 0.30841 0.66875 0.0
C1011 C 0.49583 0.30082 0.65404 0.0
C1012 C 0.49092 0.29758 0.68459 0.0
H1013 H 0.52676 0.30762 0.62227 0.0
H1014 H 0.47806 0.29892 0.6362 0.0
S1015 S 0.54542 0.30491 0.75274 0.0
N1016 N 0.56372 0.30939 0.72345 0.0
N1017 N 0.51178 0.29916 0.73764 0.0
C1018 C 0.51437 0.30065 0.70726 0.0
C1019 C 0.54246 0.30614 0.6995 0.0
C1020 C 0.06457 0.85237 0.61558 0.0
C1021 C 0.03623 0.83428 0.60415 0.0
C1022 C 0.07881 0.87468 0.59963 0.0
C1023 C 0.06509 0.8793 0.57184 0.0
H1024 H 0.07589 0.84909 0.63683 0.0
H1025 H 0.1004 0.88867 0.60925 0.0
S1026 S 0.99105 0.83924 0.53297 0.0
N1027 N 0.99503 0.82306 0.56377 0.0
N1028 N 0.02187 0.86524 0.53394 0.0
C1029 C 0.03694 0.86147 0.5602 0.0
C1030 C 0.02248 0.83876 0.5763 0.0
C1031 C 0.55278 0.86689 0.8496 0.0
C1032 C 0.57283 0.86362 0.82921 0.0
C1033 C 0.52377 0.85859 0.83787 0.0
C1034 C 0.51414 0.84638 0.80552 0.0
H1035 H 0.55965 0.87729 0.87448 0.0
H1036 H 0.50903 0.86358 0.85393 0.0
S1037 S 0.55817 0.82681 0.74407 0.0
N1038 N 0.58141 0.8433 0.77646 0.0
N1039 N 0.52641 0.82676 0.75428 0.0
C1040 C 0.53391 0.84049 0.78543 0.0
C1041 C 0.56348 0.84943 0.79733 0.0
C1042 C 0.52045 0.13147 0.1045 0.0
C1043 C 0.51323 0.15964 0.09938 0.0
C1044 C 0.5351 0.11533 0.08372 0.0
C1045 C 0.54295 0.12693 0.05725 0.0
H1046 H 0.51522 0.12218 0.12505 0.0
H1047 H 0.53983 0.09342 0.08808 0.0
S1048 S 0.53065 0.20033 0.03389 0.0
N1049 N 0.51593 0.19879 0.06611 0.0
N1050 N 0.54353 0.16843 0.0273 0.0
C1051 C 0.53605 0.15502 0.05187 0.0
C1052 C 0.52099 0.17131 0.07278 0.0
C1053 C 0.2162 0.35614 0.31792 0.0
C1054 C 0.21727 0.34945 0.34824 0.0
C1055 C 0.23306 0.34478 0.29674 0.0
C1056 C 0.25053 0.32553 0.30499 0.0
H1057 H 0.20262 0.37071 0.31072 0.0
H1058 H 0.23277 0.35143 0.2741 0.0
S1059 S 0.2601 0.29997 0.38049 0.0
N1060 N 0.23705 0.32213 0.38507 0.0
N1061 N 0.26776 0.29951 0.34454 0.0
C1062 C 0.25117 0.31784 0.33468 0.0
C1063 C 0.23478 0.33019 0.35659 0.0
C1064 C 0.99253 0.07262 0.13806 0.0
C1065 C 1.00662 0.08025 0.16989 0.0
C1066 C 1.00722 0.07125 0.11065 0.0
C1067 C 0.03752 0.07765 0.11228 0.0
H1068 H 0.96949 0.0676 0.13403 0.0
H1069 H 0.99442 0.06569 0.08769 0.0
S1070 S 0.08603 0.09796 0.18898 0.0
N1071 N 0.0541 0.09334 0.19997 0.0
N1072 N 0.08081 0.09168 0.15017 0.0
C1073 C 0.05193 0.08522 0.14392 0.0
C1074 C 0.03697 0.08618 0.1718 0.0
C1075 C 0.24919 0.69356 0.45404 0.0
C1076 C 0.27822 0.6957 0.46254 0.0
C1077 C 0.24081 0.71003 0.43192 0.0
C1078 C 0.26144 0.72817 0.4179 0.0
H1079 H 0.23314 0.68004 0.46528 0.0
H1080 H 0.21843 0.70905 0.42614 0.0
S1081 S 0.33995 0.74092 0.43293 0.0
N1082 N 0.32737 0.71707 0.45617 0.0
N1083 N 0.31172 0.74756 0.41374 0.0
C1084 C 0.29046 0.72988 0.42595 0.0
C1085 C 0.29889 0.71363 0.44864 0.0
C1086 C 0.6431 0.03666 0.61591 0.0
C1087 C 0.65266 0.06203 0.6421 0.0
C1088 C 0.61926 0.03554 0.59514 0.0
C1089 C 0.60469 0.05961 0.60072 0.0
H1090 H 0.65304 0.01679 0.61251 0.0
H1091 H 0.61205 1.01554 0.57514 0.0
S1092 S 0.62473 0.13412 0.66238 0.0
N1093 N 0.64936 0.11483 0.66901 0.0
N1094 N 0.60251 0.11087 0.63143 0.0
C1095 C 0.61498 0.08601 0.62563 0.0
C1096 C 0.63976 0.08778 0.64603 0.0
C1097 C 0.35704 0.38743 0.91604 0.0
C1098 C 0.3507 0.36888 0.9388 0.0
C1099 C 0.35405 0.37327 0.88413 0.0
C1100 C 0.34472 0.33991 0.87341 0.0
H1101 H 0.36387 0.41344 0.92277 0.0
H1102 H 0.35832 0.38869 0.86754 0.0
S1103 S 0.32687 0.27973 0.92239 0.0
N1104 N 0.33584 0.3147 0.94797 0.0
N1105 N 0.33026 0.28808 0.88744 0.0
C1106 C 0.33925 0.32067 0.89557 0.0
C1107 C 0.34234 0.33514 0.92842 0.0
C1108 C 0.04213 0.06392 0.37182 0.0
C1109 C 0.01657 0.07409 0.36662 0.0
C1110 C 0.05433 0.06079 0.40195 0.0
C1111 C 0.04219 0.06785 0.4297 0.0
H1112 H 0.05299 0.05785 0.35202 0.0
H1113 H 0.07378 0.05285 0.40347 0.0
S1114 S 0.97396 0.09245 0.43049 0.0
N1115 N 0.97879 0.08915 0.39327 0.0
N1116 N 1.00162 0.08406 0.44903 0.0
C1117 C 0.01662 0.07797 0.4251 0.0
C1118 C 1.00397 0.08087 0.39418 0.0
C1119 C 0.31692 0.71279 0.66591 0.0
C1120 C 0.30725 0.71547 0.63576 0.0
C1121 C 0.32072 0.73842 0.69108 0.0
C1122 C 0.31489 0.76759 0.68705 0.0
H1123 H 0.32281 0.69131 0.66996 0.0
H1124 H 0.32946 0.7355 0.71363 0.0
S1125 S 0.28215 0.78338 0.6138 0.0
N1126 N 0.28688 0.74686 0.60346 0.0
N1127 N 0.29458 0.79587 0.65177 0.0
C1128 C 0.3031 0.76979 0.65743 0.0
C1129 C 0.29907 0.74341 0.63148 0.0
C1130 C 0.67439 0.14403 0.83323 0.0
C1131 C 0.67587 0.11302 0.81952 0.0
C1132 C 0.6686 0.15072 0.8639 0.0
C1133 C 0.66353 0.12614 0.88068 0.0
H1134 H 0.67493 0.1621 0.81928 0.0
H1135 H 0.66454 0.17377 0.87302 0.0
S1136 S 0.66935 0.04217 0.8549 0.0
N1137 N 0.6765 0.05929 0.82512 0.0
N1138 N 0.66406 0.07067 0.8824 0.0
C1139 C 0.66862 0.09611 0.86814 0.0
C1140 C 0.67512 0.08977 0.83731 0.0
C1141 C 0.32129 0.32876 0.12963 0.0
C1142 C 0.33994 0.35961 0.13415 0.0
C1143 C 0.31279 0.31544 0.15521 0.0
C1144 C 0.32257 0.33194 0.18692 0.0
H1145 H 0.31279 0.31477 0.10603 0.0
H1146 H 0.29841 0.29156 0.14986 0.0
S1147 S 0.37255 0.41306 0.21205 0.0
N1148 N 0.36826 0.40627 0.17324 0.0
N1149 N 0.35275 0.38075 0.22088 0.0
C1150 C 0.34148 0.36261 0.19181 0.0
C1151 C 0.34997 0.37648 0.16566 0.0
C1152 C 0.27035 1.00558 0.05514 0.0
C1153 C 0.27422 1.00003 0.02345 0.0
C1154 C 0.25124 0.02322 0.06537 0.0
C1155 C 0.2357 0.03542 0.04394 0.0
H1156 H 0.28219 0.99631 0.07196 0.0
H1157 H 0.24811 0.02669 0.08982 0.0
S1158 S 0.24056 0.0287 0.95891 0.0
N1159 N 0.26281 1.00879 0.97122 0.0
N1160 N 0.22692 0.04235 0.99013 0.0
C1161 C 0.24029 0.03063 0.01234 0.0
C1162 C 0.25963 1.01275 1.00212 0.0
C1163 C 0.6901 0.65659 0.01668 0.0
C1164 C 0.70473 0.65071 0.9908 0.0
C1165 C 0.66498 0.63427 0.02001 0.0
C1166 C 0.65309 0.6055 0.99724 0.0
H1167 H 0.69847 0.67826 0.03488 0.0
H1168 H 0.65477 0.63969 0.0405 0.0
S1169 S 0.68287 0.57937 0.92461 0.0
N1170 N 0.70542 0.61408 0.94217 0.0
N1171 N 0.65812 0.57301 0.94749 0.0
C1172 C 0.66745 0.59973 0.97108 0.0
C1173 C 0.69325 0.62203 0.96813 0.0
C1174 C 0.73452 0.40991 0.26471 0.0
C1175 C 0.7485 0.44363 0.27079 0.0
C1176 C 0.74937 0.38439 0.26394 0.0
C1177 C 0.77983 0.38983 0.26882 0.0
H1178 H 0.71142 0.40284 0.26052 0.0
H1179 H 0.73649 0.35981 0.25923 0.0
S1180 S 0.82805 0.47307 0.28636 0.0
N1181 N 0.79601 0.47972 0.2823 0.0
N1182 N 0.82292 0.43367 0.2806 0.0
C1183 C 0.79399 0.42343 0.27484 0.0
C1184 C 0.7789 0.44933 0.27586 0.0
C1185 C 0.94857 0.50958 0.46727 0.0
C1186 C 0.93433 0.51847 0.49236 0.0
C1187 C 0.97619 0.50592 0.47298 0.0
C1188 C 0.99024 0.51108 0.50398 0.0
H1189 H 0.93807 0.50474 0.4432 0.0
H1190 H 0.98695 0.50037 0.45296 0.0
S1191 S 0.95874 0.52825 0.5772 0.0
N1192 N 0.93398 0.52829 0.54867 0.0
N1193 N 0.9855 0.52017 0.55969 0.0
C1194 C 0.97496 0.51724 0.52907 0.0
C1195 C 0.94718 0.52158 0.5232 0.0
C1196 C 0.4071 0.11368 0.25769 0.0
C1197 C 0.39768 0.09632 0.28033 0.0
C1198 C 0.38984 0.13027 0.24394 0.0
C1199 C 0.36285 0.12957 0.25254 0.0
H1200 H 0.42801 0.11469 0.25081 0.0
H1201 H 0.39796 0.14462 0.22757 0.0
S1202 S 0.32875 0.08823 0.31061 0.0
N1203 N 0.35988 0.07931 0.31043 0.0
N1204 N 0.32738 0.11087 0.28458 0.0
C1205 C 0.35298 0.11176 0.27445 0.0
C1206 C 0.37044 0.0949 0.28837 0.0
C1207 C 0.37093 0.13556 0.51616 0.0
C1208 C 0.36921 0.16766 0.52282 0.0
C1209 C 0.3968 0.12768 0.52175 0.0
C1210 C 0.42208 0.15153 0.53438 0.0
H1211 H 0.35192 0.11615 0.50691 0.0
H1212 H 0.39701 0.10254 0.51642 0.0
S1213 S 0.4296 0.23919 0.55704 0.0
N1214 N 0.39526 0.22373 0.54329 0.0
N1215 N 0.44436 0.20854 0.55379 0.0
C1216 C 0.4211 0.18385 0.54095 0.0
C1217 C 0.39452 0.19203 0.53511 0.0
C1218 C 0.7422 0.6839 0.28619 0.0
C1219 C 0.74977 0.65381 0.28156 0.0
C1220 C 0.76109 0.71376 0.28407 0.0
C1221 C 0.7891 0.71584 0.2771 0.0
H1222 H 0.72113 0.68457 0.29165 0.0
H1223 H 0.75368 0.73543 0.28835 0.0
S1224 S 0.8199 0.6448 0.26045 0.0
N1225 N 0.78776 0.62909 0.26807 0.0
N1226 N 0.82265 0.68365 0.26407 0.0
C1227 C 0.79678 0.68588 0.2719 0.0
C1228 C 0.77755 0.65559 0.2741 0.0
C1229 C 0.91823 0.42687 0.80805 0.0
C1230 C 0.91658 0.44856 0.78875 0.0
C1231 C 0.89338 0.40649 0.81277 0.0
C1232 C 0.86684 0.40717 0.79779 0.0
H1233 H 0.93858 0.4264 0.8202 0.0
H1234 H 0.89497 0.38871 0.82642 0.0
S1235 S 0.85183 0.46018 0.74542 0.0
N1236 N 0.88691 0.47057 0.75519 0.0
N1237 N 0.83991 0.43105 0.76361 0.0
C1238 C 0.86496 0.42914 0.77892 0.0
C1239 C 0.89008 0.44991 0.77414 0.0
C1240 C 0.08764 0.91825 0.05124 0.0
C1241 C 0.11177 0.92371 0.0743 0.0
C1242 C 0.07976 0.94394 0.04008 0.0
C1243 C 0.09609 0.97615 0.05092 0.0
H1244 H 0.07428 0.89403 0.04236 0.0
H1245 H 0.06076 0.93848 0.02285 0.0
S1246 S 0.16207 1.00292 0.11017 0.0
N1247 N 0.15206 0.96362 0.10692 0.0
N1248 N 0.13816 1.0113 0.08587 0.0
C1249 C 0.12058 0.98156 0.07353 0.0
C1250 C 0.12815 0.9556 0.08521 0.0
C1251 C 0.93575 0.32548 0.86575 0.0
C1252 C 0.94234 0.29566 0.86579 0.0
C1253 C 0.91052 0.32782 0.84841 0.0
C1254 C 0.89047 0.30052 0.82982 0.0
H1255 H 0.95117 0.34761 0.87789 0.0
H1256 H 0.90786 0.35148 0.84789 0.0
S1257 S 0.89603 0.21642 0.82262 0.0
N1258 N 0.92532 0.23786 0.84672 0.0
N1259 N 0.87841 0.24237 0.81372 0.0
C1260 C 0.89602 0.27043 0.83082 0.0
C1261 C 0.92165 0.26794 0.84887 0.0
C1262 C 0.59988 0.20296 0.58714 0.0
C1263 C 0.61252 0.22745 0.57229 0.0
C1264 C 0.59351 0.17065 0.57231 0.0
C1265 C 0.59943 0.1612 0.5419 0.0
H1266 H 0.59531 0.20871 0.61097 0.0
H1267 H 0.58441 0.15278 0.58511 0.0
S1268 S 0.62883 0.21499 0.49056 0.0
N1269 N 0.62824 0.23985 0.52388 0.0
N1270 N 0.61619 0.17817 0.4958 0.0
C1271 C 0.61076 0.18501 0.5258 0.0
C1272 C 0.61716 0.21842 0.54099 0.0
C1273 C 0.61204 0.79628 0.36086 0.0
C1274 C 0.61296 0.80371 0.39372 0.0
C1275 C 0.63663 0.80435 0.34695 0.0
C1276 C 0.6633 0.81991 0.36522 0.0
H1277 H 0.59212 0.78398 0.34557 0.0
H1278 H 0.63487 0.79779 0.32156 0.0
S1279 S 0.67762 0.84752 0.45198 0.0
N1280 N 0.64303 0.82984 0.4442 0.0
N1281 N 0.68935 0.84437 0.41765 0.0
C1282 C 0.66473 0.82838 0.39801 0.0
C1283 C 0.63953 0.82047 0.41235 0.0
C1284 C 0.13427 0.27967 0.46451 0.0
C1285 C 0.11686 0.29027 0.44349 0.0
C1286 C 0.12283 0.25409 0.47807 0.0
C1287 C 0.09355 0.23865 0.4715 0.0
H1288 H 0.15697 0.29095 0.47025 0.0
H1289 H 0.13694 0.24648 0.49411 0.0
S1290 S 0.03868 0.25793 0.41896 0.0
N1291 N 0.06879 0.28377 0.41699 0.0
N1292 N 0.04719 0.23579 0.44329 0.0
C1293 C 0.07575 0.24915 0.4509 0.0
C1294 C 0.08748 0.27495 0.43662 0.0
C1295 C 0.59399 0.26162 0.23518 0.0
C1296 C 0.58935 0.27591 0.20973 0.0
C1297 C 0.62176 0.26435 0.24906 0.0
C1298 C 0.64533 0.28172 0.23795 0.0
H1299 H 0.57629 0.24624 0.24269 0.0
H1300 H 0.6248 0.2507 0.26679 0.0
S1301 S 0.64327 0.32904 0.17622 0.0
N1302 N 0.60948 0.31149 0.17676 0.0
N1303 N 0.66195 0.31773 0.20367 0.0
C1304 C 0.6406 0.29882 0.21466 0.0
C1305 C 0.61242 0.29555 0.20023 0.0
C1306 C 0.61676 0.96353 0.94048 0.0
C1307 C 0.64652 0.9686 0.9427 0.0
C1308 C 0.60476 0.98371 0.9606 0.0
C1309 C 0.62226 1.00918 0.98382 0.0
H1310 H 0.60267 0.9432 0.92364 0.0
H1311 H 0.58173 0.97838 0.95894 0.0
S1312 S 0.70144 0.03367 0.99762 0.0
N1313 N 0.69322 1.00161 0.96837 0.0
N1314 N 0.67073 0.03974 1.00668 0.0
C1315 C 0.65209 1.01518 0.9855 0.0
C1316 C 0.66427 0.99474 0.96478 0.0
C1317 C 0.92069 0.78379 0.7053 0.0
C1318 C 0.93328 0.76067 0.71489 0.0
C1319 C 0.90364 0.79814 0.72409 0.0
C1320 C 0.89879 0.78965 0.75282 0.0
H1321 H 0.92375 0.79055 0.68306 0.0
H1322 H 0.89321 0.81488 0.71548 0.0
S1323 S 0.93068 0.73543 0.79132 0.0
N1324 N 0.94272 0.73352 0.75724 0.0
N1325 N 0.9096 0.76 0.79175 0.0
C1326 C 0.91203 0.76785 0.76337 0.0
C1327 C 0.92959 0.75342 0.74454 0.0
C1328 C 0.14863 0.03372 0.90406 0.0
C1329 C 0.1397 0.04882 0.87993 0.0
C1330 C 0.1362 0.03353 0.933 0.0
C1331 C 0.11408 0.04891 0.94089 0.0
H1332 H 0.1656 0.02184 0.90073 0.0
H1333 H 0.14433 0.02116 0.94966 0.0
S1334 S 0.0798 0.08913 0.88583 0.0
N1335 N 0.10451 0.07762 0.86673 0.0
N1336 N 0.0827 0.0776 0.91955 0.0
C1337 C 0.10461 0.06343 0.91685 0.0
C1338 C 0.11686 0.06332 0.88732 0.0
C1339 C 0.89289 0.4423 0.60537 0.0
C1340 C 0.87723 0.42215 0.57711 0.0
C1341 C 0.90193 0.42928 0.6301 0.0
C1342 C 0.89624 0.39587 0.62678 0.0
H1343 H 0.89685 0.46821 0.60908 0.0
H1344 H 0.91175 0.44523 0.65251 0.0
S1345 S 0.8583 0.33291 0.55662 0.0
N1346 N 0.85831 0.36729 0.54639 0.0
N1347 N 0.87547 0.34287 0.59291 0.0
C1348 C 0.88235 0.37555 0.59792 0.0
C1349 C 0.87278 0.38871 0.573 0.0
C1350 C 0.50204 0.04645 0.42067 0.0
C1351 C 0.50924 0.06694 0.40017 0.0
C1352 C 0.52281 0.04473 0.44381 0.0
C1353 C 0.55069 0.0642 0.44727 0.0
H1354 H 0.48153 0.02884 0.4162 0.0
H1355 H 0.51748 0.02651 0.45747 0.0
S1356 S 0.5784 0.12345 0.40045 0.0
N1357 N 0.54444 0.10822 0.38536 0.0
N1358 N 0.5838 0.10612 0.4301 0.0
C1359 C 0.55724 0.08687 0.4287 0.0
C1360 C 0.53611 0.08836 0.40503 0.0
C1361 C 0.78903 0.77941 0.11846 0.0
C1362 C 0.80306 0.75628 0.10596 0.0
C1363 C 0.7933 0.79252 0.15116 0.0
C1364 C 0.812 0.78315 0.17216 0.0
H1365 H 0.77371 0.78622 0.10315 0.0
H1366 H 0.78167 0.80971 0.16007 0.0
S1367 S 0.85413 0.72373 0.15054 0.0
N1368 N 0.83662 0.72512 0.11678 0.0
N1369 N 0.84485 0.74952 0.17753 0.0
C1370 C 0.82675 0.76078 0.15951 0.0
C1371 C 0.82223 0.74743 0.1266 0.0
C1372 C 0.1307 0.01742 0.65902 0.0
C1373 C 0.14932 0.04284 0.68237 0.0
C1374 C 0.11761 0.02225 0.62984 0.0
C1375 C 0.12134 0.053 0.62199 0.0
H1376 H 0.12657 0.9932 0.66297 0.0
H1377 H 0.10414 1.00139 0.61323 0.0
S1378 S 0.16702 0.12834 0.67492 0.0
N1379 N 0.17027 0.10043 0.69472 0.0
N1380 N 0.14528 0.10952 0.6419 0.0
C1381 C 0.13936 0.07867 0.64554 0.0
C1382 C 0.15329 0.07362 0.67481 0.0
C1383 C 0.81636 0.39511 0.38223 0.0
C1384 C 0.84191 0.40862 0.40289 0.0
C1385 C 0.81339 0.36722 0.35963 0.0
C1386 C 0.83602 0.3525 0.35697 0.0
H1387 H 0.79837 0.40561 0.38416 0.0
H1388 H 0.79342 0.35733 0.34369 0.0
S1389 S 0.90812 0.38054 0.40363 0.0
N1390 N 0.8907 0.40654 0.41884 0.0
N1391 N 0.88526 0.35428 0.37482 0.0
C1392 C 0.86196 0.3662 0.37683 0.0
C1393 C 0.86488 0.39437 0.40029 0.0
C1394 C 0.47189 0.98166 0.20873 0.0
C1395 C 0.47618 1.01452 0.22178 0.0
C1396 C 0.4834 0.97197 0.1818 0.0
C1397 C 0.49834 0.99506 0.16725 0.0
H1398 H 0.46044 0.96355 0.21992 0.0
H1399 H 0.48063 0.94656 0.17231 0.0
S1400 S 0.51738 0.08409 0.19515 0.0
N1401 N 0.49766 0.06993 0.22038 0.0
N1402 N 0.51917 0.05212 0.16942 0.0
C1403 C 0.50308 0.0281 0.18071 0.0
C1404 C 0.49182 0.03775 0.20812 0.0
C1405 C 0.82885 0.74909 0.89197 0.0
C1406 C 0.8094 0.75933 0.91092 0.0
C1407 C 0.83574 0.76207 0.86555 0.0
C1408 C 0.8229 0.78521 0.85624 0.0
H1409 H 0.83919 0.73111 0.8978 0.0
H1410 H 0.85106 0.75365 0.85209 0.0
S1411 S 0.77086 0.82059 0.89753 0.0
N1412 N 0.77797 0.7949 0.9184 0.0
N1413 N 0.79004 0.81817 0.86851 0.0
C1414 C 0.80338 0.79558 0.87481 0.0
C1415 C 0.79688 0.78297 0.90212 0.0
C1416 C 0.8964 0.12695 0.02381 0.0
C1417 C 0.8705 0.1047 0.02385 0.0
C1418 C 0.91774 0.11716 0.00862 0.0
C1419 C 0.91355 0.08498 0.99281 0.0
H1420 H 0.90044 0.15177 0.03629 0.0
H1421 H 0.93813 0.1344 0.01054 0.0
S1422 S 0.84705 0.01959 0.98086 0.0
N1423 N 0.83998 0.05086 1.00301 0.0
N1424 N 0.88027 0.03212 0.97466 0.0
C1425 C 0.88681 0.06332 0.99052 0.0
C1426 C 0.86525 0.07323 1.00621 0.0
C1427 C 0.46442 0.47325 0.02195 0.0
C1428 C 0.44938 0.47885 0.04748 0.0
C1429 C 0.49231 0.49212 0.02213 0.0
C1430 C 0.50621 0.51766 0.04774 0.0
H1431 H 0.45404 0.45507 1.00105 0.0
H1432 H 0.50265 0.48732 1.00162 0.0
S1433 S 0.47543 0.5427 0.11991 0.0
N1434 N 0.45019 0.51195 0.0986 0.0
N1435 N 0.50223 0.54714 0.09943 0.0
C1436 C 0.49144 0.52297 0.07363 0.0
C1437 C 0.46314 0.50376 0.07333 0.0
C1438 C 0.41897 0.70968 0.7801 0.0
C1439 C 0.4054 0.67622 0.76752 0.0
C1440 C 0.40426 0.73534 0.78196 0.0
C1441 C 0.37429 0.73021 0.77202 0.0
H1442 H 0.44164 0.71644 0.78866 0.0
H1443 H 0.41678 0.75976 0.79177 0.0
S1444 S 0.32753 0.64804 0.73573 0.0
N1445 N 0.35902 0.6409 0.7437 0.0
N1446 N 0.33224 0.6872 0.74787 0.0
C1447 C 0.36052 0.6969 0.75938 0.0
C1448 C 0.37556 0.67091 0.75701 0.0
C1449 C 0.20151 0.6189 0.51445 0.0
C1450 C 0.21704 0.61311 0.54038 0.0
C1451 C 0.17305 0.61887 0.51453 0.0
C1452 C 0.15954 0.61286 0.54051 0.0
H1453 H 0.21176 0.62489 0.49469 0.0
H1454 H 0.16137 0.62282 0.49383 0.0
S1455 S 0.19262 0.59725 0.61432 0.0
N1456 N 0.21843 0.60223 0.5926 0.0
N1457 N 0.16431 0.60147 0.59308 0.0
C1458 C 0.17528 0.60744 0.5668 0.0
C1459 C 0.20423 0.60742 0.56649 0.0
C1460 C 0.73538 0.98886 0.77647 0.0
C1461 C 0.74844 0.01764 0.76816 0.0
C1462 C 0.75166 0.97287 0.79247 0.0
C1463 C 0.78127 0.98555 0.80087 0.0
H1464 H 0.71277 0.97775 0.7692 0.0
H1465 H 0.74144 0.94943 0.79634 0.0
S1466 S 0.82455 0.06303 0.78975 0.0
N1467 N 0.79182 0.06055 0.7735 0.0
N1468 N 0.82247 0.03003 0.80341 0.0
C1469 C 0.79407 1.0157 0.79535 0.0
C1470 C 0.77761 0.03188 0.77886 0.0
C1471 C 0.78045 0.95963 0.51531 0.0
C1472 C 0.77791 0.93633 0.53375 0.0
C1473 C 0.75764 0.9728 0.508 0.0
C1474 C 0.73167 0.96355 0.51942 0.0
H1475 H 0.80035 0.9682 0.50691 0.0
H1476 H 0.76091 0.9916 0.49479 0.0
S1477 S 0.7133 0.90112 0.56596 0.0
N1478 N 0.74671 0.90253 0.56092 0.0
N1479 N 0.7039 0.9277 0.54769 0.0
C1480 C 0.72839 0.93904 0.53645 0.0
C1481 C 0.75149 0.9253 0.54347 0.0
C1482 C 0.38165 0.46674 0.78032 0.0
C1483 C 0.40163 0.46817 0.75883 0.0
C1484 C 0.36387 0.43692 0.78415 0.0
C1485 C 0.36486 0.40607 0.76725 0.0
H1486 H 0.37973 0.48896 0.79461 0.0
H1487 H 0.34882 0.43813 0.80067 0.0
S1488 S 0.41068 0.39529 0.70524 0.0
N1489 N 0.41939 0.43465 0.71873 0.0
N1490 N 0.38652 0.38002 0.72597 0.0
C1491 C 0.38444 0.40712 0.74548 0.0
C1492 C 0.40248 0.43746 0.74139 0.0
C1493 C 0.23302 0.69288 0.22017 0.0
C1494 C 0.22969 0.67086 0.23963 0.0
C1495 C 0.25786 0.71757 0.22551 0.0
C1496 C 0.27953 0.72065 0.2505 0.0
H1497 H 0.21705 0.69024 0.2001 0.0
H1498 H 0.25976 0.73479 0.21049 0.0
S1499 S 0.27944 0.67101 0.30998 0.0
N1500 N 0.24857 0.65527 0.28666 0.0
N1501 N 0.29581 0.70152 0.29579 0.0
C1502 C 0.27598 0.6996 0.27082 0.0
C1503 C 0.25068 0.67482 0.26576 0.0
C1504 C 0.52344 0.67656 0.48464 0.0
C1505 C 0.54462 0.70107 0.4776 0.0
C1506 C 0.53037 0.65119 0.4971 0.0
C1507 C 0.55884 0.64903 0.50313 0.0
H1508 H 0.50124 0.67687 0.48034 0.0
H1509 H 0.51313 0.63292 0.50183 0.0
S1510 S 0.62225 0.7058 0.48635 0.0
N1511 N 0.5953 0.7207 0.47631 0.0
N1512 N 0.60828 0.67341 0.49936 0.0
C1513 C 0.58025 0.67344 0.49605 0.0
C1514 C 0.57317 0.69925 0.48339 0.0
C1515 C 0.70663 0.32687 0.70173 0.0
C1516 C 0.71161 0.34269 0.67664 0.0
C1517 C 0.72909 0.32116 0.72114 0.0
C1518 C 0.7578 0.33119 0.71671 0.0
H1519 H 0.6852 0.31919 0.70693 0.0
H1520 H 0.72401 0.30981 0.74056 0.0
S1521 S 0.7833 0.37569 0.65659 0.0
N1522 N 0.7482 0.36908 0.64953 0.0
N1523 N 0.79007 0.35918 0.68652 0.0
C1524 C 0.76319 0.3471 0.69203 0.0
C1525 C 0.74029 0.35257 0.67191 0.0
C1526 C 0.0222 0.40949 0.98365 0.0
C1527 C 0.04353 0.39278 0.98524 0.0
C1528 C 0.02748 0.44201 0.99895 0.0
C1529 C 0.05452 0.4592 0.01592 0.0
H1530 H 1.00191 0.39796 0.96872 0.0
H1531 H 0.01089 0.45426 0.99537 0.0
S1532 S 0.11669 0.42509 0.02941 0.0
N1533 N 0.09184 0.39481 1.00678 0.0
N1534 N 0.10194 0.4556 0.03589 0.0
C1535 C 0.07535 0.44191 0.01945 0.0
C1536 C 0.06985 0.40882 1.00392 0.0
C1537 C 0.02998 0.78223 0.17789 0.0
C1538 C 0.04067 0.80516 0.16045 0.0
C1539 C 1.00252 0.77786 0.18578 0.0
C1540 C 0.9843 0.79614 0.17656 0.0
H1541 H 0.04332 0.76823 0.18678 0.0
H1542 H 0.99637 0.76149 0.2011 0.0
S1543 S 0.99903 0.85376 0.12434 0.0
N1544 N 0.02898 0.84253 0.12966 0.0
N1545 N 0.97687 0.83404 0.14448 0.0
C1546 C 0.99352 0.81692 0.15656 0.0
C1547 C 0.02175 0.82142 0.14841 0.0
C1548 C 0.52339 0.35289 0.09742 0.0
C1549 C 0.53747 0.32922 0.1017 0.0
C1550 C 0.53579 0.37793 0.0836 0.0
C1551 C 0.56303 0.38058 0.07439 0.0
H1552 H 0.50238 0.35159 0.10408 0.0
H1553 H 0.52356 0.39485 0.07937 0.0
S1554 S 0.61037 0.32713 0.08554 0.0
N1555 N 0.58083 0.31104 0.09845 0.0
N1556 N 0.60487 0.35921 0.0738 0.0
C1557 C 0.57789 0.35782 0.08005 0.0
C1558 C 0.56493 0.33186 0.09343 0.0
C1559 C 0.05529 0.34147 0.33612 0.0
C1560 C 0.07499 0.36437 0.32505 0.0
C1561 C 0.02614 0.33377 0.32472 0.0
C1562 C 0.01589 0.34854 0.30178 0.0
H1563 H 0.0622 0.33033 0.35458 0.0
H1564 H 0.0114 0.31735 0.33489 0.0
S1565 S 0.0585 0.4084 0.26381 0.0
N1566 N 0.08215 0.4001 0.28846 0.0
N1567 N 0.02733 0.38588 0.26751 0.0
C1568 C 0.03541 0.37002 0.28933 0.0
C1569 C 0.06501 0.3779 0.30087 0.0
C1570 C 1.00592 0.62779 0.59252 0.0
C1571 C 0.01228 0.66113 0.59448 0.0
C1572 C 0.01748 0.60813 0.57124 0.0
C1573 C 0.03603 0.62136 0.55191 0.0
H1574 H 0.99226 0.61697 0.60778 0.0
H1575 H 0.01234 0.58257 0.57027 0.0
S1576 S 0.06229 0.70739 0.5508 0.0
N1577 N 0.04001 0.70675 0.57688 0.0
N1578 N 0.06202 0.66946 0.53726 0.0
C1579 C 0.04319 0.65458 0.55411 0.0
C1580 C 0.03114 0.6746 0.57533 0.0
C1581 C 0.70497 0.82461 0.81607 0.0
C1582 C 0.71553 0.84828 0.84396 0.0
C1583 C 0.72292 0.81774 0.7942 0.0
C1584 C 0.75157 0.83526 0.79918 0.0
H1585 H 0.68281 0.81095 0.81146 0.0
H1586 H 0.7145 0.79849 0.77357 0.0
S1587 S 0.78899 0.89974 0.86864 0.0
N1588 N 0.75584 0.88904 0.87556 0.0
N1589 N 0.78958 0.87697 0.83426 0.0
C1590 C 0.76202 0.85946 0.82675 0.0
C1591 C 0.74398 0.86576 0.84929 0.0
C1592 C 0.49291 0.56417 0.63725 0.0
C1593 C 0.50593 0.5805 0.66871 0.0
C1594 C 0.5081 0.56254 0.61019 0.0
C1595 C 0.53768 0.57781 0.61173 0.0
H1596 H 0.47041 0.55204 0.63331 0.0
H1597 H 0.49609 0.54959 0.58747 0.0
S1598 S 0.58329 0.62381 0.68769 0.0
N1599 N 0.55175 0.61171 0.69855 0.0
N1600 N 0.57906 0.60999 0.64925 0.0
C1601 C 0.55091 0.59431 0.64302 0.0
C1602 C 0.53565 0.59525 0.67064 0.0
C1603 C 0.79112 0.24092 0.97634 0.0
C1604 C 0.78442 0.20719 0.96943 0.0
C1605 C 0.77935 0.25706 0.95623 0.0
C1606 C 0.76078 0.23984 0.92877 0.0
H1607 H 0.80622 0.25498 0.99681 0.0
H1608 H 0.78662 0.28307 0.96079 0.0
S1609 S 0.73378 0.15168 0.90231 0.0
N1610 N 0.75543 0.1571 0.93538 0.0
N1611 N 0.73415 0.18802 0.89671 0.0
C1612 C 0.75239 0.20629 0.92262 0.0
C1613 C 0.76416 0.18975 0.94318 0.0
C1614 C 0.12192 0.52534 0.13646 0.0
C1615 C 0.15055 0.54298 0.14192 0.0
C1616 C 0.10156 0.53397 0.11781 0.0
C1617 C 0.10931 0.56038 0.10392 0.0
H1618 H 0.1149 0.50612 0.14856 0.0
H1619 H 0.07953 0.52024 0.11487 0.0
S1620 S 0.18205 0.61272 0.10867 0.0
N1621 N 0.18633 0.58645 0.1301 0.0
N1622 N 0.14754 0.60328 0.09531 0.0
C1623 C 0.13811 0.57735 0.10784 0.0
C1624 C 0.15901 0.56825 0.12656 0.0
C1625 C 0.82496 0.87177 0.41782 0.0
C1626 C 0.8436 0.86421 0.44022 0.0
C1627 C 0.82246 0.8588 0.38582 0.0
C1628 C 0.83847 0.83748 0.37431 0.0
H1629 H 0.81256 0.88875 0.42498 0.0
H1630 H 0.80834 0.86652 0.36989 0.0
S1631 S 0.88749 0.80603 0.42309 0.0
N1632 N 0.87638 0.83136 0.44897 0.0
N1633 N 0.8717 0.80671 0.38806 0.0
C1634 C 0.85624 0.82822 0.39635 0.0
C1635 C 0.85864 0.84145 0.42947 0.0
C1636 C 0.50836 0.58866 0.89308 0.0
C1637 C 0.51675 0.57487 0.86448 0.0
C1638 C 0.52087 0.58632 0.92374 0.0
C1639 C 0.54231 0.56949 0.92813 0.0
H1640 H 0.49159 0.60104 0.89188 0.0
H1641 H 0.51306 0.59725 0.94425 0.0
S1642 S 0.57473 0.53174 0.86244 0.0
N1643 N 0.55057 0.54585 0.84445 0.0
N1644 N 0.57241 0.5409 0.90023 0.0
C1645 C 0.55123 0.55634 0.89993 0.0
C1646 C 0.53904 0.55915 0.869 0.0
C1647 C 0.80143 0.24288 0.13284 0.0
C1648 C 0.80778 0.21368 0.13571 0.0
C1649 C 0.80622 0.26823 0.1592 0.0
C1650 C 0.81754 0.26472 0.18868 0.0
H1651 H 0.79307 0.24617 0.11014 0.0
H1652 H 0.80143 0.29062 0.15648 0.0
S1653 S 0.83828 0.1925 0.20665 0.0
N1654 N 0.8256 0.18235 0.16896 0.0
N1655 N 0.83523 0.22942 0.21829 0.0
C1656 C 0.82333 0.2351 0.19134 0.0
C1657 C 0.81822 0.2096 0.16482 0.0
C1658 C 0.13767 0.63283 0.32415 0.0
C1659 C 0.16082 0.62173 0.31446 0.0
C1660 C 0.13696 0.64402 0.35587 0.0
C1661 C 0.15905 0.6435 0.37901 0.0
H1662 H 0.11898 0.63072 0.30746 0.0
H1663 H 0.11711 0.6486 0.36215 0.0
S1664 S 0.22889 0.62848 0.36522 0.0
N1665 N 0.20998 0.6198 0.32979 0.0
N1666 N 0.20795 0.64024 0.38987 0.0
C1667 C 0.18438 0.63806 0.36934 0.0
C1668 C 0.18526 0.62673 0.33691 0.0
C1669 C 0.82413 0.82935 0.63233 0.0
C1670 C 0.84219 0.86053 0.63573 0.0
C1671 C 0.81565 0.81723 0.65871 0.0
C1672 C 0.82526 0.83546 0.68976 0.0
H1673 H 0.81598 0.81435 0.60907 0.0
H1674 H 0.80166 0.79323 0.65471 0.0
S1675 S 0.87256 0.91812 0.71203 0.0
N1676 N 0.86892 0.90927 0.67324 0.0
N1677 N 0.85383 0.886 0.7221 0.0
C1678 C 0.84358 0.86622 0.69345 0.0
C1679 C 0.85176 0.87886 0.66673 0.0
C1680 C 0.7541 0.49797 0.50605 0.0
C1681 C 0.77911 0.50045 0.52587 0.0
C1682 C 0.73369 0.51298 0.51704 0.0
C1683 C 0.73716 0.52993 0.54859 0.0
H1684 H 0.75081 0.48542 0.48162 0.0
H1685 H 0.71541 0.51192 0.50026 0.0
S1686 S 0.79845 0.53955 0.61039 0.0
N1687 N 0.80653 0.51929 0.57823 0.0
N1688 N 0.76698 0.54574 0.60001 0.0
C1689 C 0.76186 0.53126 0.56896 0.0
C1690 C 0.78311 0.51681 0.55733 0.0
C1691 C 0.18295 0.1381 0.46809 0.0
C1692 C 0.2049 0.1533 0.49347 0.0
C1693 C 0.15787 0.11629 0.47194 0.0
C1694 C 0.15351 0.10893 0.50141 0.0
H1695 H 0.18539 0.14267 0.4449 0.0
H1696 H 0.14175 0.10491 0.45154 0.0
S1697 S 0.20495 0.14172 0.57537 0.0
N1698 N 0.22081 0.15919 0.54915 0.0
N1699 N 0.17389 0.11845 0.55641 0.0
C1700 C 0.17525 0.12426 0.5271 0.0
C1701 C 0.20088 0.14629 0.5231 0.0
C1702 C 0.23489 0.91225 0.76687 0.0
C1703 C 0.24896 0.94576 0.77108 0.0
C1704 C 0.24962 0.88663 0.76572 0.0
C1705 C 0.28001 0.89171 0.76837 0.0
H1706 H 0.21183 0.90545 0.76456 0.0
H1707 H 0.2367 0.86223 0.76263 0.0
S1708 S 0.3284 0.97423 0.7796 0.0
N1709 N 0.29647 0.98125 0.77786 0.0
N1710 N 0.32315 0.93495 0.77551 0.0
C1711 C 0.29426 0.92507 0.77237 0.0
C1712 C 0.2793 0.9511 0.77375 0.0
C1713 C 0.44287 0.98566 0.01038 0.0
C1714 C 0.43099 1.0118 0.00792 0.0
C1715 C 0.47235 0.98954 0.01301 0.0
C1716 C 0.49019 0.01953 0.01314 0.0
H1717 H 0.42931 0.96182 0.00878 0.0
H1718 H 0.48103 0.96899 0.01371 0.0
S1719 S 0.46998 0.09623 0.01392 0.0
N1720 N 0.4395 0.06919 0.01128 0.0
N1721 N 0.49472 0.07617 0.01451 0.0
C1722 C 0.47868 0.04603 0.01298 0.0
C1723 C 0.44898 0.04227 0.01086 0.0
C1724 C 0.91231 0.63452 0.7701 0.0
C1725 C 0.90001 0.60521 0.77794 0.0
C1726 C 0.89579 0.6494 0.75318 0.0
C1727 C 0.8664 0.63592 0.74436 0.0
H1728 H 0.93477 0.64643 0.77742 0.0
H1729 H 0.90556 0.67268 0.74882 0.0
S1730 S 0.82493 0.55664 0.75322 0.0
N1731 N 0.85755 0.5605 0.77078 0.0
N1732 N 0.82623 0.58982 0.74005 0.0
C1733 C 0.85426 0.60536 0.74937 0.0
C1734 C 0.87112 0.58979 0.76625 0.0
C1735 C 0.88008 0.65335 1.00143 0.0
C1736 C 0.87195 0.67499 0.02444 0.0
C1737 C 0.90592 0.64504 1.00676 0.0
C1738 C 0.92434 0.65766 0.03553 0.0
H1739 H 0.86571 0.6416 0.97972 0.0
H1740 H 0.9108 0.6272 0.98887 0.0
S1741 S 0.91378 0.71706 0.10267 0.0
N1742 N 0.88502 0.7105 0.07638 0.0
N1743 N 0.93356 0.69427 0.08667 0.0
C1744 C 0.917 0.68023 0.05839 0.0
C1745 C 0.89077 0.68906 0.05276 0.0
C1746 C 0.24854 0.16821 0.75454 0.0
C1747 C 0.25039 0.15406 0.78122 0.0
C1748 C 0.26626 0.19914 0.75347 0.0
C1749 C 0.28648 0.21874 0.77944 0.0
H1750 H 0.23339 0.15492 0.73384 0.0
H1751 H 0.26454 0.20738 0.7317 0.0
S1752 S 0.29839 0.19557 0.85629 0.0
N1753 N 0.27354 0.1643 0.83506 0.0
N1754 N 0.30604 0.22124 0.83321 0.0
C1755 C 0.28803 0.20517 0.80638 0.0
C1756 C 0.27026 0.17359 0.80734 0.0
C1757 C 0.39667 0.94549 0.27516 0.0
C1758 C 0.41006 0.95375 0.30652 0.0
C1759 C 0.36864 0.92719 0.26739 0.0
C1760 C 0.35459 0.91478 0.29058 0.0
H1761 H 0.4081 0.95228 0.25646 0.0
H1762 H 0.35969 0.91877 0.24271 0.0
S1763 S 0.37725 0.9399 0.37689 0.0
N1764 N 0.40499 0.95669 0.36152 0.0
N1765 N 0.35213 0.92075 0.34675 0.0
C1766 C 0.3658 0.928 0.32242 0.0
C1767 C 0.39416 0.94717 0.3304 0.0
C1768 C 0.60917 0.42329 0.54414 0.0
C1769 C 0.60893 0.42168 0.57615 0.0
C1770 C 0.60044 0.4479 0.5318 0.0
C1771 C 0.59116 0.47205 0.55092 0.0
H1772 H 0.61642 0.40557 0.5285 0.0
H1773 H 0.60171 0.44852 0.50735 0.0
S1774 S 0.58437 0.47828 0.63529 0.0
N1775 N 0.59678 0.44626 0.62594 0.0
N1776 N 0.58115 0.49208 0.60288 0.0
C1777 C 0.59026 0.47041 0.58256 0.0
C1778 C 0.59887 0.44541 0.59509 0.0
C1779 C 0.42365 0.80212 0.37017 0.0
C1780 C 0.4445 0.7881 0.3568 0.0
C1781 C 0.39959 0.8064 0.35108 0.0
C1782 C 0.39557 0.79723 0.31775 0.0
H1783 H 0.42687 0.81171 0.39529 0.0
H1784 H 0.38517 0.81868 0.36238 0.0
S1785 S 0.44325 0.75784 0.27147 0.0
N1786 N 0.4581 0.7638 0.3083 0.0
N1787 N 0.41443 0.77135 0.27319 0.0
C1788 C 0.41569 0.78175 0.30475 0.0
C1789 C 0.43959 0.77737 0.32391 0.0
C1790 C 0.09581 0.71788 0.04769 0.0
C1791 C 0.11899 0.73209 0.07204 0.0
C1792 C 0.08948 0.68474 0.03377 0.0
C1793 C 0.10649 0.66519 0.04339 0.0
H1794 H 0.08145 0.73181 0.04095 0.0
H1795 H 0.0706 0.67413 0.0163 0.0
S1796 S 0.17041 0.69196 0.1051 0.0
N1797 N 0.15961 0.72472 0.10392 0.0
N1798 N 0.14817 0.66337 0.07784 0.0
C1799 C 0.13066 0.67989 0.06632 0.0
C1800 C 0.13679 0.71312 0.08058 0.0
C1801 C 0.11079 0.31145 0.86336 0.0
C1802 C 0.11191 0.3079 0.89471 0.0
C1803 C 0.13561 0.31846 0.84959 0.0
C1804 C 0.16269 0.3218 0.86636 0.0
H1805 H 0.09047 0.30854 0.84911 0.0
H1806 H 0.13346 0.32027 0.82516 0.0
S1807 S 0.17798 0.31755 0.94994 0.0
N1808 N 0.14284 0.31049 0.94294 0.0
N1809 N 0.18952 0.32308 0.91664 0.0
C1810 C 0.16439 0.31928 0.89802 0.0
C1811 C 0.13903 0.31258 0.9123 0.0
C1812 C 0.61972 0.79131 0.97384 0.0
C1813 C 0.61465 0.78766 0.94104 0.0
C1814 C 0.60699 0.76696 0.98821 0.0
C1815 C 0.58896 0.73803 0.97029 0.0
H1816 H 0.63387 0.81302 0.98863 0.0
H1817 H 0.61212 0.77032 0.01348 0.0
S1818 S 0.56713 0.71689 0.88395 0.0
N1819 N 0.58888 0.75335 0.89108 0.0
N1820 N 0.56548 0.70709 0.91851 0.0
C1821 C 0.58305 0.7341 0.93761 0.0
C1822 C 0.59574 0.75912 0.92286 0.0
C1823 C 0.10864 0.7915 0.69848 0.0
C1824 C 0.08529 0.7726 0.70836 0.0
C1825 C 0.13628 0.79521 0.7131 0.0
C1826 C 0.14125 0.77942 0.73745 0.0
H1827 H 0.10557 0.80235 0.6785 0.0
H1828 H 0.15398 0.80861 0.70386 0.0
S1829 S 0.08656 0.72964 0.77339 0.0
N1830 N 0.06812 0.74065 0.74556 0.0
N1831 N 0.12045 0.74639 0.77246 0.0
C1832 C 0.11784 0.76243 0.74904 0.0
C1833 C 0.08963 0.75921 0.73449 0.0
C1834 C 0.1186 0.47252 0.44058 0.0
C1835 C 0.14667 0.47049 0.44845 0.0
C1836 C 0.1055 0.48964 0.46233 0.0
C1837 C 0.12034 0.50567 0.49235 0.0
H1838 H 0.10622 0.45945 0.41802 0.0
H1839 H 0.08344 0.48957 0.45587 0.0
S1840 S 0.19498 0.50887 0.52334 0.0
N1841 N 0.18911 0.48595 0.48756 0.0
N1842 N 0.16518 0.51976 0.52824 0.0
C1843 C 0.14886 0.50472 0.50001 0.0
C1844 C 0.16189 0.48666 0.47807 0.0
C1845 C 0.41575 0.2437 0.22403 0.0
C1846 C 0.43509 0.26371 0.2101 0.0
C1847 C 0.39794 0.25606 0.24285 0.0
C1848 C 0.39828 0.28879 0.24805 0.0
H1849 H 0.41452 0.21823 0.22068 0.0
H1850 H 0.3834 0.23949 0.25291 0.0
S1851 S 0.4463 0.35197 0.21834 0.0
N1852 N 0.45493 0.3184 0.20394 0.0
N1853 N 0.42039 0.34156 0.2389 0.0
C1854 C 0.41788 0.30942 0.23476 0.0
C1855 C 0.43635 0.29681 0.21561 0.0
C1856 C 0.61334 0.52584 0.38054 0.0
C1857 C 0.64159 0.54417 0.37994 0.0
C1858 C 0.60009 0.52581 0.4088 0.0
C1859 C 0.61324 0.54519 0.43917 0.0
H1860 H 0.60084 0.51144 0.35854 0.0
H1861 H 0.57865 0.51069 0.4065 0.0
S1862 S 0.68676 0.59908 0.45225 0.0
N1863 N 0.68176 0.58305 0.41415 0.0
N1864 N 0.65723 0.5836 0.46558 0.0
C1865 C 0.64128 0.564 0.43888 0.0
C1866 C 0.65505 0.56349 0.41016 0.0
C1867 C 0.37072 0.88565 0.07438 0.0
C1868 C 0.37374 0.91884 0.07859 0.0
C1869 C 0.38467 0.87341 0.09656 0.0
C1870 C 0.40158 0.89398 0.12391 0.0
H1871 H 0.3566 0.86883 0.05457 0.0
H1872 H 0.37969 0.84751 0.09377 0.0
S1873 S 0.42002 0.98293 0.14319 0.0
N1874 N 0.39855 0.97247 0.10927 0.0
N1875 N 0.423 0.94884 0.15236 0.0
C1876 C 0.40666 0.92726 0.12702 0.0
C1877 C 0.39303 0.93987 0.10405 0.0
C1878 C 0.03799 0.57735 0.90238 0.0
C1879 C 0.01078 0.5563 0.89662 0.0
C1880 C 0.0571 0.57813 0.9282 0.0
C1881 C 0.04933 0.55786 0.94879 0.0
H1882 H 0.04534 0.59124 0.88534 0.0
H1883 H 0.07852 0.59352 0.93106 0.0
S1884 S 0.97882 0.5011 0.94529 0.0
N1885 N 0.97543 0.51705 0.9142 0.0
N1886 N 0.01182 0.51792 0.96335 0.0
C1887 C 0.02134 0.53818 0.94446 0.0
C1888 C 1.00177 0.53761 0.91807 0.0
C1889 C 0.28689 0.27889 0.61844 0.0
C1890 C 0.30205 0.25708 0.60557 0.0
C1891 C 0.29121 0.2919 0.65119 0.0
C1892 C 0.31087 0.28352 0.67193 0.0
H1893 H 0.27073 0.28471 0.60337 0.0
H1894 H 0.27883 0.30818 0.66034 0.0
S1895 S 0.35569 0.22712 0.64924 0.0
N1896 N 0.33754 0.22811 0.61571 0.0
N1897 N 0.3455 0.25172 0.67655 0.0
C1898 C 0.32653 0.26224 0.65888 0.0
C1899 C 0.32217 0.24927 0.62591 0.0
C1900 C 0.63139 0.56226 0.17917 0.0
C1901 C 0.64791 0.53941 0.18045 0.0
C1902 C 0.61875 0.56785 0.15003 0.0
C1903 C 0.62087 0.55038 0.11974 0.0
H1904 H 0.62871 0.57673 0.20106 0.0
H1905 H 0.60691 0.58602 0.1514 0.0
S1906 S 0.66016 0.48641 0.10872 0.0
N1907 N 0.66481 0.49894 0.14735 0.0
N1908 N 0.64066 0.50802 0.0942 0.0
C1909 C 0.63675 0.52701 0.12086 0.0
C1910 C 0.65023 0.52199 0.15038 0.0
C1911 C 0.35125 0.90663 0.87998 0.0
C1912 C 0.34113 0.90014 0.90753 0.0
C1913 C 0.35091 0.88156 0.85504 0.0
C1914 C 0.34049 0.84928 0.85693 0.0
H1915 H 0.3586 0.93115 0.87722 0.0
H1916 H 0.35704 0.88767 0.83343 0.0
S1917 S 0.31484 0.81958 0.92543 0.0
N1918 N 0.3229 0.85913 0.93654 0.0
N1919 N 0.32255 0.81203 0.88938 0.0
C1920 C 0.33246 0.84242 0.88518 0.0
C1921 C 0.33264 0.86791 0.91058 0.0
C1922 C 0.96874 0.4928 0.70407 0.0
C1923 C 0.98728 0.51968 0.72515 0.0
C1924 C 0.97907 0.47472 0.68025 0.0
C1925 C 1.00803 0.48327 0.6771 0.0
H1926 H 0.94599 0.48672 0.70485 0.0
H1927 H 0.96402 0.45678 0.66201 0.0
S1928 S 0.06578 0.54739 0.73028 0.0
N1929 N 0.03623 0.55087 0.74427 0.0
N1930 N 0.05577 0.5162 0.70028 0.0
C1931 C 0.02721 0.5069 0.70096 0.0
C1932 C 0.01668 0.5258 0.72451 0.0
C1933 C 0.32603 0.28985 0.41467 0.0
C1934 C 0.312 0.25703 0.4101 0.0
C1935 C 0.33396 0.30387 0.38932 0.0
C1936 C 0.32776 0.28616 0.35776 0.0
H1937 H 0.33112 0.30497 0.43815 0.0
H1938 H 0.3446 0.3293 0.39465 0.0
S1939 S 0.29142 0.1993 0.3326 0.0
N1940 N 0.29294 0.20685 0.37125 0.0
N1941 N 0.30642 0.23381 0.32379 0.0
C1942 C 0.31368 0.25338 0.35279 0.0
C1943 C 0.30623 0.23875 0.37881 0.0
C1944 C 0.40254 0.63352 0.52776 0.0
C1945 C 0.37489 0.6135 0.52293 0.0
C1946 C 0.42374 0.62273 0.51311 0.0
C1947 C 0.4175 0.59182 0.49338 0.0
H1948 H 0.40806 0.65669 0.54406 0.0
H1949 H 0.44549 0.63758 0.51899 0.0
S1950 S 0.34581 0.53521 0.46691 0.0
N1951 N 0.34051 0.56538 0.49244 0.0
N1952 N 0.38038 0.54441 0.46519 0.0
C1953 C 0.38898 0.57357 0.48552 0.0
C1954 C 0.36759 0.58456 0.50047 0.0
C1955 C 0.95515 0.01888 0.54983 0.0
C1956 C 0.94697 0.98521 0.54725 0.0
C1957 C 0.98357 0.03559 0.54981 0.0
C1958 C 1.00529 0.01948 0.54648 0.0
H1959 H 0.9393 0.03261 0.55169 0.0
H1960 H 0.98849 0.06141 0.55196 0.0
S1961 S 0.99576 0.93162 0.53806 0.0
N1962 N 0.96346 0.93649 0.54125 0.0
N1963 N 0.01659 0.9678 0.54009 0.0
C1964 C 0.99756 0.9859 0.54363 0.0
C1965 C 0.96859 0.96883 0.54439 0.0
C1966 C 0.87964 0.17426 0.27764 0.0
C1967 C 0.90875 0.178 0.27266 0.0
C1968 C 0.86531 0.2002 0.28103 0.0
C1969 C 0.87825 0.23258 0.27902 0.0
H1970 H 0.86747 0.15069 0.27917 0.0
H1971 H 0.8432 0.19434 0.28463 0.0
S1972 S 0.95393 0.25707 0.26512 0.0
N1973 N 0.94958 0.21867 0.26587 0.0
N1974 N 0.92324 0.26547 0.27085 0.0
C1975 C 0.90732 0.23663 0.27384 0.0
C1976 C 0.9221 0.21034 0.27102 0.0
C1977 C 0.70251 0.10975 0.05685 0.0
C1978 C 0.71484 0.12819 0.03663 0.0
C1979 C 0.67386 0.10613 0.05963 0.0
C1980 C 0.65694 0.12037 0.0417 0.0
H1981 H 0.71514 0.09843 0.07078 0.0
H1982 H 0.6646 0.09046 0.07442 0.0
S1983 S 0.68106 0.17453 0.98876 0.0
N1984 N 0.7098 0.16375 1.0012 0.0
N1985 N 0.65502 0.15575 1.00532 0.0
C1986 C 0.66948 0.13994 0.02236 0.0
C1987 C 0.69877 0.14408 0.02001 0.0
C1988 C 0.27758 0.52429 0.26984 0.0
C1989 C 0.24963 0.52169 0.27637 0.0
C1990 C 0.29497 0.50851 0.28429 0.0
C1991 C 0.28482 0.48986 0.3055 0.0
H1992 H 0.28557 0.53708 0.25231 0.0
H1993 H 0.31572 0.50894 0.27716 0.0
S1994 S 0.21533 0.48041 0.33464 0.0
N1995 N 0.21413 0.50343 0.30894 0.0
N1996 N 0.24684 0.47229 0.33516 0.0
C1997 C 0.25783 0.48897 0.31403 0.0
C1998 C 0.24017 0.5054 0.29965 0.0
C1999 C 0.25946 0.42625 0.00702 0.0
C2000 C 0.27999 0.44079 0.0341 0.0
C2001 C 0.23666 0.43955 0.99952 0.0
C2002 C 0.23352 0.46739 0.01923 0.0
H2003 H 0.26122 0.40472 0.99133 0.0
H2004 H 0.22128 0.42788 0.97855 0.0
S2005 S 0.28129 0.5148 0.0922 0.0
N2006 N 0.29563 0.48486 0.08006 0.0
N2007 N 0.25273 0.50942 0.06613 0.0
C2008 C 0.25388 0.48216 0.04605 0.0
C2009 C 0.27713 0.46896 0.05347 0.0
C2010 C 0.88166 0.96648 0.2805 0.0
C2011 C 0.90164 0.96775 0.259 0.0
C2012 C 0.86359 0.93677 0.28415 0.0
C2013 C 0.86433 0.90591 0.2671 0.0
H2014 H 0.88005 0.98874 0.295 0.0
H2015 H 0.84859 0.93807 0.30071 0.0
S2016 S 0.91015 0.89465 0.20516 0.0
N2017 N 0.91908 0.93404 0.21867 0.0
N2018 N 0.88585 0.87958 0.22582 0.0
C2019 C 0.88391 0.90677 0.24532 0.0
C2020 C 0.90218 0.93701 0.24134 0.0
C2021 C 0.73985 0.1884 0.71617 0.0
C2022 C 0.72633 0.17571 0.73927 0.0
C2023 C 0.76655 0.20984 0.72423 0.0
C2024 C 0.78013 0.2192 0.75571 0.0
H2025 H 0.73043 0.18037 0.69159 0.0
H2026 H 0.77603 0.21985 0.70574 0.0
S2027 S 0.75424 0.18892 0.82376 0.0
N2028 N 0.72842 0.17139 0.79392 0.0
N2029 N 0.77933 0.21192 0.80936 0.0
C2030 C 0.76704 0.20579 0.77882 0.0
C2031 C 0.73969 0.18431 0.7706 0.0
loop_
_geom_bond_atom_site_label_1
_geom_bond_atom_site_label_2
_geom_bond_distance
_geom_bond_site_symmetry_2
_ccdc_geom_bond_type
C0 O1 1.306 . S
C0 O3 1.160 . S
O1 C0 1.306 . S
O1 Cd2 2.228 . S
Cd2 O1 2.228 . S
Cd2 O6 2.273 . S
Cd2 O10 2.277 . S
O3 C0 1.160 . S
O3 Cd4 2.203 . S
Cd4 O3 2.203 . S
Cd4 O6 2.411 . S
Cd4 O7 2.333 . S
Cd4 O8 2.352 . S
Cd4 O12 2.277 . S
Cd4 O13 2.356 . S
C5 O10 1.209 . S
C5 O12 1.226 . S
O6 Cd2 2.273 . S
O6 Cd4 2.411 . S
O6 C9 1.320 . S
O7 Cd4 2.333 . S
O7 C9 1.214 . S
O8 Cd4 2.352 . S
O8 C11 1.258 . S
C9 O6 1.320 . S
C9 O7 1.214 . S
O10 Cd2 2.277 . S
O10 C5 1.209 . S
C11 O8 1.258 . S
C11 O13 1.282 . S
O12 Cd4 2.277 . S
O12 C5 1.226 . S
O13 Cd4 2.356 . S
O13 C11 1.282 . S
C14 O15 1.306 . S
C14 O17 1.160 . S
O15 C14 1.306 . S
O15 Cd16 2.228 1_655 S
Cd16 O15 2.228 1_455 S
Cd16 O20 2.273 . S
Cd16 O24 2.277 1_455 S
O17 C14 1.160 . S
O17 Cd18 2.203 1_655 S
Cd18 O17 2.203 1_455 S
Cd18 O20 2.411 . S
Cd18 O21 2.333 . S
Cd18 O22 2.352 . S
Cd18 O26 2.277 1_455 S
Cd18 O27 2.356 . S
C19 O24 1.209 . S
C19 O26 1.226 . S
O20 Cd16 2.273 . S
O20 Cd18 2.411 . S
O20 C23 1.320 . S
O21 Cd18 2.333 . S
O21 C23 1.214 . S
O22 Cd18 2.352 . S
O22 C25 1.258 . S
C23 O20 1.320 . S
C23 O21 1.214 . S
O24 Cd16 2.277 1_655 S
O24 C19 1.209 . S
C25 O22 1.258 . S
C25 O27 1.282 . S
O26 Cd18 2.277 1_655 S
O26 C19 1.226 . S
O27 Cd18 2.356 . S
O27 C25 1.282 . S
C28 O29 1.306 . S
C28 O31 1.160 . S
O29 C28 1.306 . S
O29 Cd30 2.228 . S
Cd30 O29 2.228 . S
Cd30 O34 2.273 . S
Cd30 O38 2.277 . S
O31 C28 1.160 . S
O31 Cd32 2.203 . S
Cd32 O31 2.203 . S
Cd32 O34 2.411 . S
Cd32 O35 2.333 . S
Cd32 O36 2.352 . S
Cd32 O40 2.277 . S
Cd32 O41 2.356 . S
C33 O38 1.209 . S
C33 O40 1.226 . S
O34 Cd30 2.273 . S
O34 Cd32 2.411 . S
O34 C37 1.320 . S
O35 Cd32 2.333 . S
O35 C37 1.214 . S
O36 Cd32 2.352 . S
O36 C39 1.258 . S
C37 O34 1.320 . S
C37 O35 1.214 . S
O38 Cd30 2.277 . S
O38 C33 1.209 . S
C39 O36 1.258 . S
C39 O41 1.282 . S
O40 Cd32 2.277 . S
O40 C33 1.226 . S
O41 Cd32 2.356 . S
O41 C39 1.282 . S
C42 O43 1.306 . S
C42 O45 1.160 . S
O43 C42 1.306 . S
O43 Cd44 2.228 . S
Cd44 O43 2.228 . S
Cd44 O48 2.273 . S
Cd44 O52 2.277 . S
O45 C42 1.160 . S
O45 Cd46 2.203 . S
Cd46 O45 2.203 . S
Cd46 O48 2.411 . S
Cd46 O49 2.333 . S
Cd46 O50 2.352 . S
Cd46 O54 2.277 . S
Cd46 O55 2.356 . S
C47 O52 1.209 . S
C47 O54 1.226 . S
O48 Cd44 2.273 . S
O48 Cd46 2.411 . S
O48 C51 1.320 . S
O49 Cd46 2.333 . S
O49 C51 1.214 . S
O50 Cd46 2.352 . S
O50 C53 1.258 . S
C51 O48 1.320 . S
C51 O49 1.214 . S
O52 Cd44 2.277 . S
O52 C47 1.209 . S
C53 O50 1.258 . S
C53 O55 1.282 . S
O54 Cd46 2.277 . S
O54 C47 1.226 . S
O55 Cd46 2.356 . S
O55 C53 1.282 . S
C56 O57 1.306 . S
C56 O59 1.160 . S
O57 C56 1.306 . S
O57 Cd58 2.228 . S
Cd58 O57 2.228 . S
Cd58 O62 2.273 . S
Cd58 O66 2.277 . S
O59 C56 1.160 . S
O59 Cd60 2.203 . S
Cd60 O59 2.203 . S
Cd60 O62 2.411 . S
Cd60 O63 2.333 . S
Cd60 O64 2.352 . S
Cd60 O68 2.277 . S
Cd60 O69 2.356 . S
C61 O66 1.209 . S
C61 O68 1.226 . S
O62 Cd58 2.273 . S
O62 Cd60 2.411 . S
O62 C65 1.320 . S
O63 Cd60 2.333 . S
O63 C65 1.214 . S
O64 Cd60 2.352 . S
O64 C67 1.258 . S
C65 O62 1.320 . S
C65 O63 1.214 . S
O66 Cd58 2.277 . S
O66 C61 1.209 . S
C67 O64 1.258 . S
C67 O69 1.282 . S
O68 Cd60 2.277 . S
O68 C61 1.226 . S
O69 Cd60 2.356 . S
O69 C67 1.282 . S
C70 O71 1.306 . S
C70 O73 1.160 . S
O71 C70 1.306 . S
O71 Cd72 2.228 . S
Cd72 O71 2.228 . S
Cd72 O76 2.273 . S
Cd72 O80 2.277 . S
O73 C70 1.160 . S
O73 Cd74 2.203 . S
Cd74 O73 2.203 . S
Cd74 O76 2.411 . S
Cd74 O77 2.333 . S
Cd74 O78 2.352 . S
Cd74 O82 2.277 . S
Cd74 O83 2.356 . S
C75 O80 1.209 . S
C75 O82 1.226 . S
O76 Cd72 2.273 . S
O76 Cd74 2.411 . S
O76 C79 1.320 . S
O77 Cd74 2.333 . S
O77 C79 1.214 . S
O78 Cd74 2.352 . S
O78 C81 1.258 . S
C79 O76 1.320 . S
C79 O77 1.214 . S
O80 Cd72 2.277 . S
O80 C75 1.209 . S
C81 O78 1.258 . S
C81 O83 1.282 . S
O82 Cd74 2.277 . S
O82 C75 1.226 . S
O83 Cd74 2.356 . S
O83 C81 1.282 . S
C84 O85 1.306 . S
C84 O87 1.160 . S
O85 C84 1.306 . S
O85 Cd86 2.228 . S
Cd86 O85 2.228 . S
Cd86 O90 2.273 . S
Cd86 O94 2.277 . S
O87 C84 1.160 . S
O87 Cd88 2.203 . S
Cd88 O87 2.203 . S
Cd88 O90 2.411 . S
Cd88 O91 2.333 . S
Cd88 O92 2.352 . S
Cd88 O96 2.277 . S
Cd88 O97 2.356 . S
C89 O94 1.209 . S
C89 O96 1.226 . S
O90 Cd86 2.273 . S
O90 Cd88 2.411 . S
O90 C93 1.320 . S
O91 Cd88 2.333 . S
O91 C93 1.214 . S
O92 Cd88 2.352 . S
O92 C95 1.258 . S
C93 O90 1.320 . S
C93 O91 1.214 . S
O94 Cd86 2.277 . S
O94 C89 1.209 . S
C95 O92 1.258 . S
C95 O97 1.282 . S
O96 Cd88 2.277 . S
O96 C89 1.226 . S
O97 Cd88 2.356 . S
O97 C95 1.282 . S
C98 O99 1.306 . S
C98 O101 1.160 . S
O99 C98 1.306 . S
O99 Cd100 2.228 1_655 S
Cd100 O99 2.228 1_455 S
Cd100 O104 2.273 . S
Cd100 O108 2.277 . S
O101 C98 1.160 . S
O101 Cd102 2.203 1_655 S
Cd102 O101 2.203 1_455 S
Cd102 O104 2.411 . S
Cd102 O105 2.333 . S
Cd102 O106 2.352 . S
Cd102 O110 2.277 . S
Cd102 O111 2.356 . S
C103 O108 1.209 . S
C103 O110 1.226 . S
O104 Cd100 2.273 . S
O104 Cd102 2.411 . S
O104 C107 1.320 . S
O105 Cd102 2.333 . S
O105 C107 1.214 . S
O106 Cd102 2.352 . S
O106 C109 1.258 . S
C107 O104 1.320 . S
C107 O105 1.214 . S
O108 Cd100 2.277 . S
O108 C103 1.209 . S
C109 O106 1.258 . S
C109 O111 1.282 . S
O110 Cd102 2.277 . S
O110 C103 1.226 . S
O111 Cd102 2.356 . S
O111 C109 1.282 . S
C112 O113 1.306 1_545 S
C112 O115 1.160 . S
O113 C112 1.306 1_565 S
O113 Cd114 2.228 . S
Cd114 O113 2.228 . S
Cd114 O118 2.273 1_565 S
Cd114 O122 2.277 . S
O115 C112 1.160 . S
O115 Cd116 2.203 . S
Cd116 O115 2.203 . S
Cd116 O118 2.411 . S
Cd116 O119 2.333 1_545 S
Cd116 O120 2.352 . S
Cd116 O124 2.277 1_545 S
Cd116 O125 2.356 . S
C117 O122 1.209 . S
C117 O124 1.226 . S
O118 Cd114 2.273 1_545 S
O118 Cd116 2.411 . S
O118 C121 1.320 1_545 S
O119 Cd116 2.333 1_565 S
O119 C121 1.214 . S
O120 Cd116 2.352 . S
O120 C123 1.258 . S
C121 O118 1.320 1_565 S
C121 O119 1.214 . S
O122 Cd114 2.277 . S
O122 C117 1.209 . S
C123 O120 1.258 . S
C123 O125 1.282 . S
O124 Cd116 2.277 1_565 S
O124 C117 1.226 . S
O125 Cd116 2.356 . S
O125 C123 1.282 . S
C126 O127 1.306 . S
C126 O129 1.160 . S
O127 C126 1.306 . S
O127 Cd128 2.228 . S
Cd128 O127 2.228 . S
Cd128 O132 2.273 . S
Cd128 O136 2.277 . S
O129 C126 1.160 . S
O129 Cd130 2.203 . S
Cd130 O129 2.203 . S
Cd130 O132 2.411 . S
Cd130 O133 2.333 . S
Cd130 O134 2.352 . S
Cd130 O138 2.277 . S
Cd130 O139 2.356 . S
C131 O136 1.209 . S
C131 O138 1.226 . S
O132 Cd128 2.273 . S
O132 Cd130 2.411 . S
O132 C135 1.320 . S
O133 Cd130 2.333 . S
O133 C135 1.214 . S
O134 Cd130 2.352 . S
O134 C137 1.258 . S
C135 O132 1.320 . S
C135 O133 1.214 . S
O136 Cd128 2.277 . S
O136 C131 1.209 . S
C137 O134 1.258 . S
C137 O139 1.282 . S
O138 Cd130 2.277 . S
O138 C131 1.226 . S
O139 Cd130 2.356 . S
O139 C137 1.282 . S
C140 O141 1.306 . S
C140 O143 1.160 . S
O141 C140 1.306 . S
O141 Cd142 2.228 . S
Cd142 O141 2.228 . S
Cd142 O146 2.273 . S
Cd142 O150 2.277 . S
O143 C140 1.160 . S
O143 Cd144 2.203 . S
Cd144 O143 2.203 . S
Cd144 O146 2.411 . S
Cd144 O147 2.333 . S
Cd144 O148 2.352 1_545 S
Cd144 O152 2.277 . S
Cd144 O153 2.356 1_545 S
C145 O150 1.209 . S
C145 O152 1.226 . S
O146 Cd142 2.273 . S
O146 Cd144 2.411 . S
O146 C149 1.320 . S
O147 Cd144 2.333 . S
O147 C149 1.214 . S
O148 Cd144 2.352 1_565 S
O148 C151 1.258 . S
C149 O146 1.320 . S
C149 O147 1.214 . S
O150 Cd142 2.277 . S
O150 C145 1.209 . S
C151 O148 1.258 . S
C151 O153 1.282 . S
O152 Cd144 2.277 . S
O152 C145 1.226 . S
O153 Cd144 2.356 1_565 S
O153 C151 1.282 . S
C154 O155 1.305 1_554 S
C154 O157 1.160 . S
O155 C154 1.305 1_556 S
O155 Cd156 2.238 . S
Cd156 O155 2.238 . S
Cd156 O160 2.283 1_556 S
Cd156 O164 2.303 . S
O157 C154 1.160 . S
O157 Cd158 2.203 . S
Cd158 O157 2.203 . S
Cd158 O160 2.411 . S
Cd158 O161 2.333 . S
Cd158 O162 2.352 . S
Cd158 O166 2.277 1_554 S
Cd158 O167 2.356 . S
C159 O164 1.209 . S
C159 O166 1.226 . S
O160 Cd156 2.283 1_554 S
O160 Cd158 2.411 . S
O160 C163 1.317 . S
O161 Cd158 2.333 . S
O161 C163 1.218 . S
O162 Cd158 2.352 . S
O162 C165 1.258 . S
C163 O160 1.317 . S
C163 O161 1.218 . S
O164 Cd156 2.303 . S
O164 C159 1.209 . S
C165 O162 1.258 . S
C165 O167 1.282 . S
O166 Cd158 2.277 1_556 S
O166 C159 1.226 . S
O167 Cd158 2.356 . S
O167 C165 1.282 . S
C168 O169 1.306 . S
C168 O171 1.160 . S
O169 C168 1.306 . S
O169 Cd170 2.228 1_554 S
Cd170 O169 2.228 1_556 S
Cd170 O174 2.273 1_556 S
Cd170 O178 2.277 . S
O171 C168 1.160 . S
O171 Cd172 2.203 . S
Cd172 O171 2.203 . S
Cd172 O174 2.411 . S
Cd172 O175 2.333 . S
Cd172 O176 2.352 . S
Cd172 O180 2.277 1_554 S
Cd172 O181 2.356 . S
C173 O178 1.209 . S
C173 O180 1.226 . S
O174 Cd170 2.273 1_554 S
O174 Cd172 2.411 . S
O174 C177 1.320 . S
O175 Cd172 2.333 . S
O175 C177 1.214 . S
O176 Cd172 2.352 . S
O176 C179 1.258 . S
C177 O174 1.320 . S
C177 O175 1.214 . S
O178 Cd170 2.277 . S
O178 C173 1.209 . S
C179 O176 1.258 . S
C179 O181 1.282 . S
O180 Cd172 2.277 1_556 S
O180 C173 1.226 . S
O181 Cd172 2.356 . S
O181 C179 1.282 . S
C182 O183 1.306 . S
C182 O185 1.160 . S
O183 C182 1.306 . S
O183 Cd184 2.228 . S
Cd184 O183 2.228 . S
Cd184 O188 2.273 . S
Cd184 O192 2.277 . S
O185 C182 1.160 . S
O185 Cd186 2.203 . S
Cd186 O185 2.203 . S
Cd186 O188 2.411 . S
Cd186 O189 2.333 . S
Cd186 O190 2.352 1_554 S
Cd186 O194 2.277 . S
Cd186 O195 2.353 1_554 S
C187 O192 1.209 . S
C187 O194 1.226 . S
O188 Cd184 2.273 . S
O188 Cd186 2.411 . S
O188 C191 1.320 . S
O189 Cd186 2.333 . S
O189 C191 1.214 . S
O190 Cd186 2.352 1_556 S
O190 C193 1.258 . S
C191 O188 1.320 . S
C191 O189 1.214 . S
O192 Cd184 2.277 . S
O192 C187 1.209 . S
C193 O190 1.258 . S
C193 O195 1.286 . S
O194 Cd186 2.277 . S
O194 C187 1.226 . S
O195 Cd186 2.353 1_556 S
O195 C193 1.286 . S
C196 O197 1.306 . S
C196 O199 1.160 . S
O197 C196 1.306 . S
O197 Cd198 2.228 . S
Cd198 O197 2.228 . S
Cd198 O202 2.273 . S
Cd198 O206 2.277 . S
O199 C196 1.160 . S
O199 Cd200 2.203 . S
Cd200 O199 2.203 . S
Cd200 O202 2.411 . S
Cd200 O203 2.333 . S
Cd200 O204 2.352 . S
Cd200 O208 2.277 . S
Cd200 O209 2.356 . S
C201 O206 1.209 . S
C201 O208 1.226 . S
O202 Cd198 2.273 . S
O202 Cd200 2.411 . S
O202 C205 1.320 . S
O203 Cd200 2.333 . S
O203 C205 1.214 . S
O204 Cd200 2.352 . S
O204 C207 1.258 . S
C205 O202 1.320 . S
C205 O203 1.214 . S
O206 Cd198 2.277 . S
O206 C201 1.209 . S
C207 O204 1.258 . S
C207 O209 1.282 . S
O208 Cd200 2.277 . S
O208 C201 1.226 . S
O209 Cd200 2.356 . S
O209 C207 1.282 . S
C210 O211 1.306 . S
C210 O213 1.160 . S
O211 C210 1.306 . S
O211 Cd212 2.228 . S
Cd212 O211 2.228 . S
Cd212 O216 2.273 . S
Cd212 O220 2.277 . S
O213 C210 1.160 . S
O213 Cd214 2.203 . S
Cd214 O213 2.203 . S
Cd214 O216 2.411 . S
Cd214 O217 2.333 . S
Cd214 O218 2.352 . S
Cd214 O222 2.277 . S
Cd214 O223 2.356 . S
C215 O220 1.209 . S
C215 O222 1.226 . S
O216 Cd212 2.273 . S
O216 Cd214 2.411 . S
O216 C219 1.320 . S
O217 Cd214 2.333 . S
O217 C219 1.214 . S
O218 Cd214 2.352 . S
O218 C221 1.258 . S
C219 O216 1.320 . S
C219 O217 1.214 . S
O220 Cd212 2.277 . S
O220 C215 1.209 . S
C221 O218 1.258 . S
C221 O223 1.282 . S
O222 Cd214 2.277 . S
O222 C215 1.226 . S
O223 Cd214 2.356 . S
O223 C221 1.282 . S
C224 O225 1.306 1_655 S
C224 O227 1.160 . S
O225 C224 1.306 1_455 S
O225 Cd226 2.228 . S
Cd226 O225 2.228 . S
Cd226 O230 2.273 1_455 S
Cd226 O234 2.277 1_455 S
O227 C224 1.160 . S
O227 Cd228 2.203 . S
Cd228 O227 2.203 . S
Cd228 O230 2.411 . S
Cd228 O231 2.333 . S
Cd228 O232 2.352 . S
Cd228 O236 2.277 . S
Cd228 O237 2.356 . S
C229 O234 1.209 . S
C229 O236 1.226 . S
O230 Cd226 2.273 1_655 S
O230 Cd228 2.411 . S
O230 C233 1.320 . S
O231 Cd228 2.333 . S
O231 C233 1.214 . S
O232 Cd228 2.352 . S
O232 C235 1.258 . S
C233 O230 1.320 . S
C233 O231 1.214 . S
O234 Cd226 2.277 1_655 S
O234 C229 1.209 . S
C235 O232 1.258 . S
C235 O237 1.282 . S
O236 Cd228 2.277 . S
O236 C229 1.226 . S
O237 Cd228 2.356 . S
O237 C235 1.282 . S
C238 O239 1.306 . S
C238 O241 1.160 . S
O239 C238 1.306 . S
O239 Cd240 2.228 . S
Cd240 O239 2.228 . S
Cd240 O244 2.273 . S
Cd240 O248 2.277 . S
O241 C238 1.160 . S
O241 Cd242 2.203 . S
Cd242 O241 2.203 . S
Cd242 O244 2.411 . S
Cd242 O245 2.333 . S
Cd242 O246 2.352 . S
Cd242 O250 2.277 . S
Cd242 O251 2.356 . S
C243 O248 1.209 . S
C243 O250 1.226 . S
O244 Cd240 2.273 . S
O244 Cd242 2.411 . S
O244 C247 1.320 . S
O245 Cd242 2.333 . S
O245 C247 1.214 . S
O246 Cd242 2.352 . S
O246 C249 1.258 . S
C247 O244 1.320 . S
C247 O245 1.214 . S
O248 Cd240 2.277 . S
O248 C243 1.209 . S
C249 O246 1.258 . S
C249 O251 1.282 . S
O250 Cd242 2.277 . S
O250 C243 1.226 . S
O251 Cd242 2.356 . S
O251 C249 1.282 . S
C252 O253 1.306 . S
C252 O255 1.160 . S
O253 C252 1.306 . S
O253 Cd254 2.228 . S
Cd254 O253 2.228 . S
Cd254 O258 2.273 . S
Cd254 O262 2.277 . S
O255 C252 1.160 . S
O255 Cd256 2.203 . S
Cd256 O255 2.203 . S
Cd256 O258 2.411 . S
Cd256 O259 2.333 . S
Cd256 O260 2.352 . S
Cd256 O264 2.277 . S
Cd256 O265 2.356 . S
C257 O262 1.209 . S
C257 O264 1.226 . S
O258 Cd254 2.273 . S
O258 Cd256 2.411 . S
O258 C261 1.320 . S
O259 Cd256 2.333 . S
O259 C261 1.214 . S
O260 Cd256 2.352 . S
O260 C263 1.258 . S
C261 O258 1.320 . S
C261 O259 1.214 . S
O262 Cd254 2.277 . S
O262 C257 1.209 . S
C263 O260 1.258 . S
C263 O265 1.282 . S
O264 Cd256 2.277 . S
O264 C257 1.226 . S
O265 Cd256 2.356 . S
O265 C263 1.282 . S
C266 O267 1.306 . S
C266 O269 1.160 . S
O267 C266 1.306 . S
O267 Cd268 2.228 . S
Cd268 O267 2.228 . S
Cd268 O272 2.273 . S
Cd268 O276 2.277 . S
O269 C266 1.160 . S
O269 Cd270 2.203 . S
Cd270 O269 2.203 . S
Cd270 O272 2.411 . S
Cd270 O273 2.333 . S
Cd270 O274 2.352 . S
Cd270 O278 2.277 . S
Cd270 O279 2.356 . S
C271 O276 1.209 . S
C271 O278 1.226 . S
O272 Cd268 2.273 . S
O272 Cd270 2.411 . S
O272 C275 1.320 . S
O273 Cd270 2.333 . S
O273 C275 1.214 . S
O274 Cd270 2.352 . S
O274 C277 1.258 . S
C275 O272 1.320 . S
C275 O273 1.214 . S
O276 Cd268 2.277 . S
O276 C271 1.209 . S
C277 O274 1.258 . S
C277 O279 1.282 . S
O278 Cd270 2.277 . S
O278 C271 1.226 . S
O279 Cd270 2.356 . S
O279 C277 1.282 . S
C280 O281 1.306 . S
C280 O283 1.160 . S
O281 C280 1.306 . S
O281 Cd282 2.228 . S
Cd282 O281 2.228 . S
Cd282 O286 2.275 . S
Cd282 O290 2.277 . S
O283 C280 1.160 . S
O283 Cd284 2.203 . S
Cd284 O283 2.203 . S
Cd284 O286 2.410 . S
Cd284 O287 2.333 1_554 S
Cd284 O288 2.352 1_554 S
Cd284 O292 2.277 . S
Cd284 O293 2.356 1_554 S
C285 O290 1.209 . S
C285 O292 1.226 . S
O286 Cd282 2.275 . S
O286 Cd284 2.410 . S
O286 C289 1.320 1_554 S
O287 Cd284 2.333 1_556 S
O287 C289 1.214 . S
O288 Cd284 2.352 1_556 S
O288 C291 1.258 . S
C289 O286 1.320 1_556 S
C289 O287 1.214 . S
O290 Cd282 2.277 . S
O290 C285 1.209 . S
C291 O288 1.258 . S
C291 O293 1.282 . S
O292 Cd284 2.277 . S
O292 C285 1.226 . S
O293 Cd284 2.356 1_556 S
O293 C291 1.282 . S
C294 O295 1.306 . S
C294 O297 1.160 . S
O295 C294 1.306 . S
O295 Cd296 2.228 . S
Cd296 O295 2.228 . S
Cd296 O300 2.273 . S
Cd296 O304 2.277 . S
O297 C294 1.160 . S
O297 Cd298 2.203 . S
Cd298 O297 2.203 . S
Cd298 O300 2.411 . S
Cd298 O301 2.333 . S
Cd298 O302 2.352 . S
Cd298 O306 2.277 . S
Cd298 O307 2.356 . S
C299 O304 1.209 . S
C299 O306 1.226 . S
O300 Cd296 2.273 . S
O300 Cd298 2.411 . S
O300 C303 1.320 . S
O301 Cd298 2.333 . S
O301 C303 1.214 . S
O302 Cd298 2.352 . S
O302 C305 1.258 . S
C303 O300 1.320 . S
C303 O301 1.214 . S
O304 Cd296 2.277 . S
O304 C299 1.209 . S
C305 O302 1.258 . S
C305 O307 1.282 . S
O306 Cd298 2.277 . S
O306 C299 1.226 . S
O307 Cd298 2.356 . S
O307 C305 1.282 . S
C308 O309 1.306 . S
C308 O311 1.160 . S
O309 C308 1.306 . S
O309 Cd310 2.228 . S
Cd310 O309 2.228 . S
Cd310 O314 2.273 . S
Cd310 O318 2.277 . S
O311 C308 1.160 . S
O311 Cd312 2.203 . S
Cd312 O311 2.203 . S
Cd312 O314 2.411 . S
Cd312 O315 2.333 . S
Cd312 O316 2.352 . S
Cd312 O320 2.277 . S
Cd312 O321 2.356 . S
C313 O318 1.209 . S
C313 O320 1.226 . S
O314 Cd310 2.273 . S
O314 Cd312 2.411 . S
O314 C317 1.320 . S
O315 Cd312 2.333 . S
O315 C317 1.214 . S
O316 Cd312 2.352 . S
O316 C319 1.258 . S
C317 O314 1.320 . S
C317 O315 1.214 . S
O318 Cd310 2.277 . S
O318 C313 1.209 . S
C319 O316 1.258 . S
C319 O321 1.282 . S
O320 Cd312 2.277 . S
O320 C313 1.226 . S
O321 Cd312 2.356 . S
O321 C319 1.282 . S
C322 O323 1.306 . S
C322 O325 1.160 . S
O323 C322 1.306 . S
O323 Cd324 2.228 . S
Cd324 O323 2.228 . S
Cd324 O328 2.273 . S
Cd324 O332 2.277 . S
O325 C322 1.160 . S
O325 Cd326 2.203 . S
Cd326 O325 2.203 . S
Cd326 O328 2.411 . S
Cd326 O329 2.333 . S
Cd326 O330 2.352 . S
Cd326 O334 2.277 . S
Cd326 O335 2.356 . S
C327 O332 1.209 . S
C327 O334 1.226 . S
O328 Cd324 2.273 . S
O328 Cd326 2.411 . S
O328 C331 1.320 . S
O329 Cd326 2.333 . S
O329 C331 1.214 . S
O330 Cd326 2.352 . S
O330 C333 1.258 . S
C331 O328 1.320 . S
C331 O329 1.214 . S
O332 Cd324 2.277 . S
O332 C327 1.209 . S
C333 O330 1.258 . S
C333 O335 1.282 . S
O334 Cd326 2.277 . S
O334 C327 1.226 . S
O335 Cd326 2.356 . S
O335 C333 1.282 . S
Ho336 C339 2.817 1_455 S
Ho336 O356 2.336 . S
Ho336 O358 2.398 1_455 S
Ho336 O359 2.513 1_456 S
Ho336 O360 2.418 . S
Ho336 O361 2.683 . S
Ho336 O363 2.333 1_546 S
Ho336 O367 2.276 1_556 S
Ho337 C348 2.811 . S
Ho337 O357 2.346 . S
Ho337 O361 2.305 1_554 S
Ho337 O362 2.322 . S
Ho337 O364 2.378 . S
Ho337 O365 2.524 . S
Ho337 O366 2.381 . S
Ho337 O367 2.669 . S
C338 O356 1.259 1_554 S
C338 O357 1.268 . S
C339 Ho336 2.817 1_655 S
C339 C340 1.488 . S
C339 O358 1.215 . S
C339 O359 1.289 1_556 S
C340 C339 1.488 . S
C340 C341 1.348 1_556 S
C340 C345 1.413 . S
C341 C340 1.348 1_554 S
C341 C342 1.442 1_554 S
C341 H368 0.930 . S
C342 C341 1.442 1_556 S
C342 C343 1.381 . S
C342 H369 0.931 1_556 S
C343 C342 1.381 . S
C343 C344 1.321 . S
C344 C343 1.321 . S
C344 C345 1.403 . S
C344 H370 0.934 . S
C345 C340 1.413 . S
C345 C344 1.403 . S
C345 H371 0.930 . S
C346 O360 1.275 . S
C346 O361 1.256 . S
C347 O362 1.259 1_565 S
C347 O363 1.268 . S
C348 Ho337 2.811 . S
C348 C349 1.488 . S
C348 O364 1.215 . S
C348 O365 1.289 . S
C349 C348 1.488 . S
C349 C350 1.348 . S
C349 C354 1.413 . S
C350 C349 1.348 . S
C350 C351 1.442 . S
C350 H372 0.930 . S
C351 C350 1.442 . S
C351 C352 1.381 . S
C351 H373 0.931 1_545 S
C352 C351 1.381 . S
C352 C353 1.321 . S
C353 C352 1.321 . S
C353 C354 1.403 . S
C353 H374 0.934 . S
C354 C349 1.413 . S
C354 C353 1.403 . S
C354 H375 0.930 . S
C355 O366 1.275 . S
C355 O367 1.256 . S
O356 Ho336 2.336 . S
O356 C338 1.259 1_556 S
O357 Ho337 2.346 . S
O357 C338 1.268 . S
O358 Ho336 2.398 1_655 S
O358 C339 1.215 . S
O359 Ho336 2.513 1_654 S
O359 C339 1.289 1_554 S
O360 Ho336 2.418 . S
O360 C346 1.275 . S
O361 Ho336 2.683 . S
O361 Ho337 2.305 1_556 S
O361 C346 1.256 . S
O362 Ho337 2.322 . S
O362 C347 1.259 1_545 S
O363 Ho336 2.333 1_564 S
O363 C347 1.268 . S
O364 Ho337 2.378 . S
O364 C348 1.215 . S
O365 Ho337 2.524 . S
O365 C348 1.289 . S
O366 Ho337 2.381 . S
O366 C355 1.275 . S
O367 Ho336 2.276 1_554 S
O367 Ho337 2.669 . S
O367 C355 1.256 . S
H368 C341 0.930 . S
H369 C342 0.931 1_554 S
H370 C344 0.934 . S
H371 C345 0.930 . S
H372 C350 0.930 . S
H373 C351 0.931 1_565 S
H374 C353 0.934 . S
H375 C354 0.930 . S
Ho376 C379 2.811 . S
Ho376 O396 2.322 . S
Ho376 O398 2.378 . S
Ho376 O399 2.524 . S
Ho376 O400 2.381 . S
Ho376 O401 2.669 . S
Ho376 O403 2.346 . S
Ho376 O407 2.305 . S
Ho377 C388 2.811 . S
Ho377 O397 2.346 . S
Ho377 O401 2.305 . S
Ho377 O402 2.322 . S
Ho377 O404 2.378 . S
Ho377 O405 2.524 . S
Ho377 O406 2.381 . S
Ho377 O407 2.669 . S
C378 O396 1.259 . S
C378 O397 1.268 . S
C379 Ho376 2.811 . S
C379 C380 1.488 . S
C379 O398 1.215 . S
C379 O399 1.289 . S
C380 C379 1.488 . S
C380 C381 1.348 . S
C380 C385 1.413 . S
C381 C380 1.348 . S
C381 C382 1.442 . S
C381 H408 0.930 . S
C382 C381 1.442 . S
C382 C383 1.381 . S
C382 H409 0.931 . S
C383 C382 1.381 . S
C383 C384 1.321 . S
C384 C383 1.321 . S
C384 C385 1.403 . S
C384 H410 0.934 . S
C385 C380 1.413 . S
C385 C384 1.403 . S
C385 H411 0.930 . S
C386 O400 1.275 . S
C386 O401 1.256 . S
C387 O402 1.259 . S
C387 O403 1.268 . S
C388 Ho377 2.811 . S
C388 C389 1.488 . S
C388 O404 1.215 . S
C388 O405 1.289 . S
C389 C388 1.488 . S
C389 C390 1.348 . S
C389 C394 1.413 . S
C390 C389 1.348 . S
C390 C391 1.442 . S
C390 H412 0.930 . S
C391 C390 1.442 . S
C391 C392 1.381 . S
C391 H413 0.931 . S
C392 C391 1.381 . S
C392 C393 1.321 . S
C393 C392 1.321 . S
C393 C394 1.403 . S
C393 H414 0.934 . S
C394 C389 1.413 . S
C394 C393 1.403 . S
C394 H415 0.930 . S
C395 O406 1.275 . S
C395 O407 1.256 . S
O396 Ho376 2.322 . S
O396 C378 1.259 . S
O397 Ho377 2.346 . S
O397 C378 1.268 . S
O398 Ho376 2.378 . S
O398 C379 1.215 . S
O399 Ho376 2.524 . S
O399 C379 1.289 . S
O400 Ho376 2.381 . S
O400 C386 1.275 . S
O401 Ho376 2.669 . S
O401 Ho377 2.305 . S
O401 C386 1.256 . S
O402 Ho377 2.322 . S
O402 C387 1.259 . S
O403 Ho376 2.346 . S
O403 C387 1.268 . S
O404 Ho377 2.378 . S
O404 C388 1.215 . S
O405 Ho377 2.524 . S
O405 C388 1.289 . S
O406 Ho377 2.381 . S
O406 C395 1.275 . S
O407 Ho376 2.305 . S
O407 Ho377 2.669 . S
O407 C395 1.256 . S
H408 C381 0.930 . S
H409 C382 0.931 . S
H410 C384 0.934 . S
H411 C385 0.930 . S
H412 C390 0.930 . S
H413 C391 0.931 . S
H414 C393 0.934 . S
H415 C394 0.930 . S
Ho416 C419 2.811 . S
Ho416 O436 2.322 1_545 S
Ho416 O438 2.378 . S
Ho416 O439 2.524 . S
Ho416 O440 2.381 . S
Ho416 O441 2.669 . S
Ho416 O443 2.346 . S
Ho416 O447 2.305 . S
Ho417 C428 2.811 . S
Ho417 O437 2.346 1_545 S
Ho417 O441 2.305 . S
Ho417 O442 2.322 . S
Ho417 O444 2.378 . S
Ho417 O445 2.524 . S
Ho417 O446 2.381 . S
Ho417 O447 2.669 . S
C418 O436 1.259 . S
C418 O437 1.268 . S
C419 Ho416 2.811 . S
C419 C420 1.488 1_545 S
C419 O438 1.215 . S
C419 O439 1.289 . S
C420 C419 1.488 1_565 S
C420 C421 1.348 . S
C420 C425 1.413 . S
C421 C420 1.348 . S
C421 C422 1.442 . S
C421 H448 0.930 . S
C422 C421 1.442 . S
C422 C423 1.381 . S
C422 H449 0.931 . S
C423 C422 1.381 . S
C423 C424 1.321 . S
C424 C423 1.321 . S
C424 C425 1.403 . S
C424 H450 0.934 . S
C425 C420 1.413 . S
C425 C424 1.403 . S
C425 H451 0.930 . S
C426 O440 1.275 . S
C426 O441 1.256 . S
C427 O442 1.259 . S
C427 O443 1.268 . S
C428 Ho417 2.811 . S
C428 C429 1.488 . S
C428 O444 1.215 . S
C428 O445 1.289 . S
C429 C428 1.488 . S
C429 C430 1.348 . S
C429 C434 1.413 . S
C430 C429 1.348 . S
C430 C431 1.442 . S
C430 H452 0.930 . S
C431 C430 1.442 . S
C431 C432 1.381 . S
C431 H453 0.931 . S
C432 C431 1.381 . S
C432 C433 1.321 . S
C433 C432 1.321 . S
C433 C434 1.403 . S
C433 H454 0.934 . S
C434 C429 1.413 . S
C434 C433 1.403 . S
C434 H455 0.930 . S
C435 O446 1.275 . S
C435 O447 1.256 . S
O436 Ho416 2.322 1_565 S
O436 C418 1.259 . S
O437 Ho417 2.346 1_565 S
O437 C418 1.268 . S
O438 Ho416 2.378 . S
O438 C419 1.215 . S
O439 Ho416 2.524 . S
O439 C419 1.289 . S
O440 Ho416 2.381 . S
O440 C426 1.275 . S
O441 Ho416 2.669 . S
O441 Ho417 2.305 . S
O441 C426 1.256 . S
O442 Ho417 2.322 . S
O442 C427 1.259 . S
O443 Ho416 2.346 . S
O443 C427 1.268 . S
O444 Ho417 2.378 . S
O444 C428 1.215 . S
O445 Ho417 2.524 . S
O445 C428 1.289 . S
O446 Ho417 2.381 . S
O446 C435 1.275 . S
O447 Ho416 2.305 . S
O447 Ho417 2.669 . S
O447 C435 1.256 . S
H448 C421 0.930 . S
H449 C422 0.931 . S
H450 C424 0.934 . S
H451 C425 0.930 . S
H452 C430 0.930 . S
H453 C431 0.931 . S
H454 C433 0.934 . S
H455 C434 0.930 . S
Ho456 C459 2.811 . S
Ho456 O476 2.322 . S
Ho456 O478 2.378 . S
Ho456 O479 2.524 . S
Ho456 O480 2.381 . S
Ho456 O481 2.669 . S
Ho456 O483 2.346 . S
Ho456 O487 2.305 . S
Ho457 C468 2.811 . S
Ho457 O477 2.346 . S
Ho457 O481 2.305 . S
Ho457 O482 2.322 . S
Ho457 O484 2.378 . S
Ho457 O485 2.524 . S
Ho457 O486 2.381 . S
Ho457 O487 2.669 . S
C458 O476 1.259 . S
C458 O477 1.268 . S
C459 Ho456 2.811 . S
C459 C460 1.488 . S
C459 O478 1.215 . S
C459 O479 1.289 . S
C460 C459 1.488 . S
C460 C461 1.348 . S
C460 C465 1.413 . S
C461 C460 1.348 . S
C461 C462 1.442 . S
C461 H488 0.930 . S
C462 C461 1.442 . S
C462 C463 1.381 . S
C462 H489 0.931 . S
C463 C462 1.381 . S
C463 C464 1.321 . S
C464 C463 1.321 . S
C464 C465 1.403 . S
C464 H490 0.934 . S
C465 C460 1.413 . S
C465 C464 1.403 . S
C465 H491 0.930 . S
C466 O480 1.275 . S
C466 O481 1.256 . S
C467 O482 1.259 . S
C467 O483 1.268 . S
C468 Ho457 2.811 . S
C468 C469 1.488 . S
C468 O484 1.215 . S
C468 O485 1.289 . S
C469 C468 1.488 . S
C469 C470 1.348 . S
C469 C474 1.413 . S
C470 C469 1.348 . S
C470 C471 1.442 . S
C470 H492 0.930 . S
C471 C470 1.442 . S
C471 C472 1.381 . S
C471 H493 0.931 . S
C472 C471 1.381 . S
C472 C473 1.321 . S
C473 C472 1.321 . S
C473 C474 1.403 . S
C473 H494 0.934 . S
C474 C469 1.413 . S
C474 C473 1.403 . S
C474 H495 0.930 . S
C475 O486 1.275 . S
C475 O487 1.256 . S
O476 Ho456 2.322 . S
O476 C458 1.259 . S
O477 Ho457 2.346 . S
O477 C458 1.268 . S
O478 Ho456 2.378 . S
O478 C459 1.215 . S
O479 Ho456 2.524 . S
O479 C459 1.289 . S
O480 Ho456 2.381 . S
O480 C466 1.275 . S
O481 Ho456 2.669 . S
O481 Ho457 2.305 . S
O481 C466 1.256 . S
O482 Ho457 2.322 . S
O482 C467 1.259 . S
O483 Ho456 2.346 . S
O483 C467 1.268 . S
O484 Ho457 2.378 . S
O484 C468 1.215 . S
O485 Ho457 2.524 . S
O485 C468 1.289 . S
O486 Ho457 2.381 . S
O486 C475 1.275 . S
O487 Ho456 2.305 . S
O487 Ho457 2.669 . S
O487 C475 1.256 . S
H488 C461 0.930 . S
H489 C462 0.931 . S
H490 C464 0.934 . S
H491 C465 0.930 . S
H492 C470 0.930 . S
H493 C471 0.931 . S
H494 C473 0.934 . S
H495 C474 0.930 . S
Ho496 C499 2.811 . S
Ho496 O516 2.322 . S
Ho496 O518 2.378 . S
Ho496 O519 2.524 . S
Ho496 O520 2.381 . S
Ho496 O521 2.669 . S
Ho496 O523 2.346 . S
Ho496 O527 2.305 . S
Ho497 C508 2.811 1_545 S
Ho497 O517 2.346 . S
Ho497 O521 2.305 . S
Ho497 O522 2.322 . S
Ho497 O524 2.378 1_545 S
Ho497 O525 2.524 1_545 S
Ho497 O526 2.381 . S
Ho497 O527 2.669 . S
C498 O516 1.259 . S
C498 O517 1.268 . S
C499 Ho496 2.811 . S
C499 C500 1.488 . S
C499 O518 1.215 . S
C499 O519 1.289 . S
C500 C499 1.488 . S
C500 C501 1.348 . S
C500 C505 1.413 . S
C501 C500 1.348 . S
C501 C502 1.442 . S
C501 H528 0.930 . S
C502 C501 1.442 . S
C502 C503 1.381 . S
C502 H529 0.931 . S
C503 C502 1.381 . S
C503 C504 1.321 . S
C504 C503 1.321 . S
C504 C505 1.403 . S
C504 H530 0.934 . S
C505 C500 1.413 . S
C505 C504 1.403 . S
C505 H531 0.930 . S
C506 O520 1.275 . S
C506 O521 1.256 . S
C507 O522 1.259 . S
C507 O523 1.268 . S
C508 Ho497 2.811 1_565 S
C508 C509 1.488 . S
C508 O524 1.215 . S
C508 O525 1.289 . S
C509 C508 1.488 . S
C509 C510 1.348 . S
C509 C514 1.413 . S
C510 C509 1.348 . S
C510 C511 1.442 . S
C510 H532 0.930 . S
C511 C510 1.442 . S
C511 C512 1.381 . S
C511 H533 0.931 . S
C512 C511 1.381 . S
C512 C513 1.321 . S
C513 C512 1.321 . S
C513 C514 1.403 . S
C513 H534 0.934 . S
C514 C509 1.413 . S
C514 C513 1.403 . S
C514 H535 0.930 . S
C515 O526 1.275 . S
C515 O527 1.256 . S
O516 Ho496 2.322 . S
O516 C498 1.259 . S
O517 Ho497 2.346 . S
O517 C498 1.268 . S
O518 Ho496 2.378 . S
O518 C499 1.215 . S
O519 Ho496 2.524 . S
O519 C499 1.289 . S
O520 Ho496 2.381 . S
O520 C506 1.275 . S
O521 Ho496 2.669 . S
O521 Ho497 2.305 . S
O521 C506 1.256 . S
O522 Ho497 2.322 . S
O522 C507 1.259 . S
O523 Ho496 2.346 . S
O523 C507 1.268 . S
O524 Ho497 2.378 1_565 S
O524 C508 1.215 . S
O525 Ho497 2.524 1_565 S
O525 C508 1.289 . S
O526 Ho497 2.381 . S
O526 C515 1.275 . S
O527 Ho496 2.305 . S
O527 Ho497 2.669 . S
O527 C515 1.256 . S
H528 C501 0.930 . S
H529 C502 0.931 . S
H530 C504 0.934 . S
H531 C505 0.930 . S
H532 C510 0.930 . S
H533 C511 0.931 . S
H534 C513 0.934 . S
H535 C514 0.930 . S
Ho536 C539 2.811 . S
Ho536 O556 2.322 . S
Ho536 O558 2.378 . S
Ho536 O559 2.524 . S
Ho536 O560 2.381 . S
Ho536 O561 2.669 . S
Ho536 O563 2.346 . S
Ho536 O567 2.305 . S
Ho537 C548 2.811 . S
Ho537 O557 2.346 . S
Ho537 O561 2.305 . S
Ho537 O562 2.322 . S
Ho537 O564 2.378 . S
Ho537 O565 2.524 . S
Ho537 O566 2.381 . S
Ho537 O567 2.669 . S
C538 O556 1.259 . S
C538 O557 1.268 . S
C539 Ho536 2.811 . S
C539 C540 1.488 . S
C539 O558 1.215 . S
C539 O559 1.289 . S
C540 C539 1.488 . S
C540 C541 1.348 . S
C540 C545 1.413 . S
C541 C540 1.348 . S
C541 C542 1.442 . S
C541 H568 0.930 . S
C542 C541 1.442 . S
C542 C543 1.381 . S
C542 H569 0.931 . S
C543 C542 1.381 . S
C543 C544 1.321 . S
C544 C543 1.321 . S
C544 C545 1.403 . S
C544 H570 0.934 . S
C545 C540 1.413 . S
C545 C544 1.403 . S
C545 H571 0.930 . S
C546 O560 1.275 . S
C546 O561 1.256 . S
C547 O562 1.259 . S
C547 O563 1.268 . S
C548 Ho537 2.811 . S
C548 C549 1.488 . S
C548 O564 1.215 . S
C548 O565 1.289 . S
C549 C548 1.488 . S
C549 C550 1.348 . S
C549 C554 1.413 . S
C550 C549 1.348 . S
C550 C551 1.442 . S
C550 H572 0.930 . S
C551 C550 1.442 . S
C551 C552 1.381 . S
C551 H573 0.931 . S
C552 C551 1.381 . S
C552 C553 1.321 . S
C553 C552 1.321 . S
C553 C554 1.403 . S
C553 H574 0.934 . S
C554 C549 1.413 . S
C554 C553 1.403 . S
C554 H575 0.930 . S
C555 O566 1.275 . S
C555 O567 1.256 . S
O556 Ho536 2.322 . S
O556 C538 1.259 . S
O557 Ho537 2.346 . S
O557 C538 1.268 . S
O558 Ho536 2.378 . S
O558 C539 1.215 . S
O559 Ho536 2.524 . S
O559 C539 1.289 . S
O560 Ho536 2.381 . S
O560 C546 1.275 . S
O561 Ho536 2.669 . S
O561 Ho537 2.305 . S
O561 C546 1.256 . S
O562 Ho537 2.322 . S
O562 C547 1.259 . S
O563 Ho536 2.346 . S
O563 C547 1.268 . S
O564 Ho537 2.378 . S
O564 C548 1.215 . S
O565 Ho537 2.524 . S
O565 C548 1.289 . S
O566 Ho537 2.381 . S
O566 C555 1.275 . S
O567 Ho536 2.305 . S
O567 Ho537 2.669 . S
O567 C555 1.256 . S
H568 C541 0.930 . S
H569 C542 0.931 . S
H570 C544 0.934 . S
H571 C545 0.930 . S
H572 C550 0.930 . S
H573 C551 0.931 . S
H574 C553 0.934 . S
H575 C554 0.930 . S
Ho576 C579 2.811 . S
Ho576 O596 2.322 . S
Ho576 O598 2.378 . S
Ho576 O599 2.524 . S
Ho576 O600 2.381 1_545 S
Ho576 O601 2.669 1_554 S
Ho576 O603 2.346 . S
Ho576 O607 2.305 . S
Ho577 C588 2.811 . S
Ho577 O597 2.346 . S
Ho577 O601 2.305 . S
Ho577 O602 2.322 1_556 S
Ho577 O604 2.378 . S
Ho577 O605 2.524 . S
Ho577 O606 2.381 1_556 S
Ho577 O607 2.669 1_556 S
C578 O596 1.259 . S
C578 O597 1.268 1_554 S
C579 Ho576 2.811 . S
C579 C580 1.488 . S
C579 O598 1.215 . S
C579 O599 1.289 . S
C580 C579 1.488 . S
C580 C581 1.348 . S
C580 C585 1.413 1_545 S
C581 C580 1.348 . S
C581 C582 1.442 . S
C581 H608 0.930 . S
C582 C581 1.442 . S
C582 C583 1.381 1_545 S
C582 H609 0.931 . S
C583 C582 1.381 1_565 S
C583 C584 1.321 . S
C584 C583 1.321 . S
C584 C585 1.403 . S
C584 H610 0.934 . S
C585 C580 1.413 1_565 S
C585 C584 1.403 . S
C585 H611 0.930 . S
C586 O600 1.245 1_556 S
C586 O601 1.267 1_565 S
C587 O602 1.259 . S
C587 O603 1.268 . S
C588 Ho577 2.811 . S
C588 C589 1.488 . S
C588 O604 1.215 . S
C588 O605 1.289 . S
C589 C588 1.488 . S
C589 C590 1.348 . S
C589 C594 1.413 . S
C590 C589 1.348 . S
C590 C591 1.442 . S
C590 H612 0.930 . S
C591 C590 1.442 . S
C591 C592 1.381 . S
C591 H613 0.931 . S
C592 C591 1.381 . S
C592 C593 1.321 . S
C593 C592 1.321 . S
C593 C594 1.403 . S
C593 H614 0.934 . S
C594 C589 1.413 . S
C594 C593 1.403 . S
C594 H615 0.930 . S
C595 O606 1.275 . S
C595 O607 1.256 . S
O596 Ho576 2.322 . S
O596 C578 1.259 . S
O597 Ho577 2.346 . S
O597 C578 1.268 1_556 S
O598 Ho576 2.378 . S
O598 C579 1.215 . S
O599 Ho576 2.524 . S
O599 C579 1.289 . S
O600 Ho576 2.381 1_565 S
O600 C586 1.245 1_554 S
O601 Ho576 2.669 1_556 S
O601 Ho577 2.305 . S
O601 C586 1.267 1_545 S
O602 Ho577 2.322 1_554 S
O602 C587 1.259 . S
O603 Ho576 2.346 . S
O603 C587 1.268 . S
O604 Ho577 2.378 . S
O604 C588 1.215 . S
O605 Ho577 2.524 . S
O605 C588 1.289 . S
O606 Ho577 2.381 1_554 S
O606 C595 1.275 . S
O607 Ho576 2.305 . S
O607 Ho577 2.669 1_554 S
O607 C595 1.256 . S
H608 C581 0.930 . S
H609 C582 0.931 . S
H610 C584 0.934 . S
H611 C585 0.930 . S
H612 C590 0.930 . S
H613 C591 0.931 . S
H614 C593 0.934 . S
H615 C594 0.930 . S
Ho616 C619 2.811 . S
Ho616 O636 2.322 . S
Ho616 O638 2.378 . S
Ho616 O639 2.524 . S
Ho616 O640 2.381 . S
Ho616 O641 2.669 . S
Ho616 O643 2.346 . S
Ho616 O647 2.305 . S
Ho617 C628 2.811 . S
Ho617 O637 2.346 . S
Ho617 O641 2.305 . S
Ho617 O642 2.322 . S
Ho617 O644 2.378 . S
Ho617 O645 2.524 . S
Ho617 O646 2.381 . S
Ho617 O647 2.669 . S
C618 O636 1.259 . S
C618 O637 1.268 . S
C619 Ho616 2.811 . S
C619 C620 1.488 . S
C619 O638 1.215 . S
C619 O639 1.289 . S
C620 C619 1.488 . S
C620 C621 1.348 . S
C620 C625 1.413 . S
C621 C620 1.348 . S
C621 C622 1.442 . S
C621 H648 0.930 . S
C622 C621 1.442 . S
C622 C623 1.381 . S
C622 H649 0.931 . S
C623 C622 1.381 . S
C623 C624 1.321 . S
C624 C623 1.321 . S
C624 C625 1.403 . S
C624 H650 0.934 . S
C625 C620 1.413 . S
C625 C624 1.403 . S
C625 H651 0.930 . S
C626 O640 1.275 . S
C626 O641 1.256 . S
C627 O642 1.259 . S
C627 O643 1.268 . S
C628 Ho617 2.811 . S
C628 C629 1.488 . S
C628 O644 1.215 . S
C628 O645 1.289 . S
C629 C628 1.488 . S
C629 C630 1.348 . S
C629 C634 1.413 . S
C630 C629 1.348 . S
C630 C631 1.442 . S
C630 H652 0.930 . S
C631 C630 1.442 . S
C631 C632 1.381 . S
C631 H653 0.931 . S
C632 C631 1.381 . S
C632 C633 1.321 . S
C633 C632 1.321 . S
C633 C634 1.403 . S
C633 H654 0.934 . S
C634 C629 1.413 . S
C634 C633 1.403 . S
C634 H655 0.930 . S
C635 O646 1.275 . S
C635 O647 1.256 . S
O636 Ho616 2.322 . S
O636 C618 1.259 . S
O637 Ho617 2.346 . S
O637 C618 1.268 . S
O638 Ho616 2.378 . S
O638 C619 1.215 . S
O639 Ho616 2.524 . S
O639 C619 1.289 . S
O640 Ho616 2.381 . S
O640 C626 1.275 . S
O641 Ho616 2.669 . S
O641 Ho617 2.305 . S
O641 C626 1.256 . S
O642 Ho617 2.322 . S
O642 C627 1.259 . S
O643 Ho616 2.346 . S
O643 C627 1.268 . S
O644 Ho617 2.378 . S
O644 C628 1.215 . S
O645 Ho617 2.524 . S
O645 C628 1.289 . S
O646 Ho617 2.381 . S
O646 C635 1.275 . S
O647 Ho616 2.305 . S
O647 Ho617 2.669 . S
O647 C635 1.256 . S
H648 C621 0.930 . S
H649 C622 0.931 . S
H650 C624 0.934 . S
H651 C625 0.930 . S
H652 C630 0.930 . S
H653 C631 0.931 . S
H654 C633 0.934 . S
H655 C634 0.930 . S
Ho656 C659 2.811 . S
Ho656 O676 2.322 1_554 S
Ho656 O678 2.378 . S
Ho656 O679 2.547 . S
Ho656 O680 2.381 . S
Ho656 O681 2.669 . S
Ho656 O683 2.346 . S
Ho656 O687 2.305 . S
Ho657 C668 2.802 1_556 S
Ho657 O677 2.358 . S
Ho657 O681 2.299 1_556 S
Ho657 O682 2.309 1_556 S
Ho657 O684 2.373 1_556 S
Ho657 O685 2.513 1_556 S
Ho657 O686 2.377 . S
Ho657 O687 2.671 1_556 S
C658 O676 1.259 . S
C658 O677 1.268 . S
C659 Ho656 2.811 . S
C659 C660 1.488 1_554 S
C659 O678 1.215 . S
C659 O679 1.295 . S
C660 C659 1.488 1_556 S
C660 C661 1.348 . S
C660 C665 1.413 . S
C661 C660 1.348 . S
C661 C662 1.442 . S
C661 H688 0.930 . S
C662 C661 1.442 . S
C662 C663 1.381 . S
C662 H689 0.931 . S
C663 C662 1.381 . S
C663 C664 1.321 . S
C664 C663 1.321 . S
C664 C665 1.403 . S
C664 H690 0.934 . S
C665 C660 1.413 . S
C665 C664 1.403 . S
C665 H691 0.930 1_556 S
C666 O680 1.275 . S
C666 O681 1.256 . S
C667 O682 1.259 . S
C667 O683 1.268 . S
C668 Ho657 2.802 1_554 S
C668 C669 1.488 . S
C668 O684 1.215 . S
C668 O685 1.289 . S
C669 C668 1.488 . S
C669 C670 1.348 . S
C669 C674 1.413 . S
C670 C669 1.348 . S
C670 C671 1.442 . S
C670 H692 0.930 . S
C671 C670 1.442 . S
C671 C672 1.381 . S
C671 H693 0.931 . S
C672 C671 1.381 . S
C672 C673 1.321 . S
C673 C672 1.321 . S
C673 C674 1.403 . S
C673 H694 0.934 . S
C674 C669 1.413 . S
C674 C673 1.403 . S
C674 H695 0.930 . S
C675 O686 1.275 1_554 S
C675 O687 1.256 . S
O676 Ho656 2.322 1_556 S
O676 C658 1.259 . S
O677 Ho657 2.358 . S
O677 C658 1.268 . S
O678 Ho656 2.378 . S
O678 C659 1.215 . S
O679 Ho656 2.547 . S
O679 C659 1.295 . S
O680 Ho656 2.381 . S
O680 C666 1.275 . S
O681 Ho656 2.669 . S
O681 Ho657 2.299 1_554 S
O681 C666 1.256 . S
O682 Ho657 2.309 1_554 S
O682 C667 1.259 . S
O683 Ho656 2.346 . S
O683 C667 1.268 . S
O684 Ho657 2.373 1_554 S
O684 C668 1.215 . S
O685 Ho657 2.513 1_554 S
O685 C668 1.289 . S
O686 Ho657 2.377 . S
O686 C675 1.275 1_556 S
O687 Ho656 2.305 . S
O687 Ho657 2.671 1_554 S
O687 C675 1.256 . S
H688 C661 0.930 . S
H689 C662 0.931 . S
H690 C664 0.934 . S
H691 C665 0.930 1_554 S
H692 C670 0.930 . S
H693 C671 0.931 . S
H694 C673 0.934 . S
H695 C674 0.930 . S
Ho696 C699 2.811 . S
Ho696 O716 2.322 . S
Ho696 O718 2.378 . S
Ho696 O719 2.524 . S
Ho696 O720 2.381 . S
Ho696 O721 2.669 . S
Ho696 O723 2.346 . S
Ho696 O727 2.305 . S
Ho697 C708 2.811 . S
Ho697 O717 2.346 . S
Ho697 O721 2.305 . S
Ho697 O722 2.322 . S
Ho697 O724 2.378 . S
Ho697 O725 2.524 . S
Ho697 O726 2.381 . S
Ho697 O727 2.669 . S
C698 O716 1.259 . S
C698 O717 1.268 . S
C699 Ho696 2.811 . S
C699 C700 1.488 . S
C699 O718 1.215 . S
C699 O719 1.289 . S
C700 C699 1.488 . S
C700 C701 1.348 . S
C700 C705 1.413 . S
C701 C700 1.348 . S
C701 C702 1.442 . S
C701 H728 0.930 . S
C702 C701 1.442 . S
C702 C703 1.395 . S
C702 H729 0.931 . S
C703 C702 1.395 . S
C703 C704 1.329 . S
C704 C703 1.329 . S
C704 C705 1.403 . S
C704 H730 0.944 . S
C705 C700 1.413 . S
C705 C704 1.403 . S
C705 H731 0.930 . S
C706 O720 1.275 . S
C706 O721 1.256 . S
C707 O722 1.259 . S
C707 O723 1.268 . S
C708 Ho697 2.811 . S
C708 C709 1.488 . S
C708 O724 1.215 . S
C708 O725 1.289 . S
C709 C708 1.488 . S
C709 C710 1.348 . S
C709 C714 1.413 . S
C710 C709 1.348 . S
C710 C711 1.442 . S
C710 H732 0.930 . S
C711 C710 1.442 . S
C711 C712 1.381 . S
C711 H733 0.931 . S
C712 C711 1.381 . S
C712 C713 1.321 . S
C713 C712 1.321 . S
C713 C714 1.403 . S
C713 H734 0.934 . S
C714 C709 1.413 . S
C714 C713 1.403 . S
C714 H735 0.930 . S
C715 O726 1.275 . S
C715 O727 1.256 . S
O716 Ho696 2.322 . S
O716 C698 1.259 . S
O717 Ho697 2.346 . S
O717 C698 1.268 . S
O718 Ho696 2.378 . S
O718 C699 1.215 . S
O719 Ho696 2.524 . S
O719 C699 1.289 . S
O720 Ho696 2.381 . S
O720 C706 1.275 . S
O721 Ho696 2.669 . S
O721 Ho697 2.305 . S
O721 C706 1.256 . S
O722 Ho697 2.322 . S
O722 C707 1.259 . S
O723 Ho696 2.346 . S
O723 C707 1.268 . S
O724 Ho697 2.378 . S
O724 C708 1.215 . S
O725 Ho697 2.524 . S
O725 C708 1.289 . S
O726 Ho697 2.381 . S
O726 C715 1.275 . S
O727 Ho696 2.305 . S
O727 Ho697 2.669 . S
O727 C715 1.256 . S
H728 C701 0.930 . S
H729 C702 0.931 . S
H730 C704 0.944 . S
H731 C705 0.930 . S
H732 C710 0.930 . S
H733 C711 0.931 . S
H734 C713 0.934 . S
H735 C714 0.930 . S
Ho736 C739 2.811 . S
Ho736 O756 2.322 . S
Ho736 O758 2.378 . S
Ho736 O759 2.524 . S
Ho736 O760 2.381 . S
Ho736 O761 2.669 . S
Ho736 O763 2.346 . S
Ho736 O767 2.305 . S
Ho737 C748 2.811 . S
Ho737 O757 2.346 . S
Ho737 O761 2.305 . S
Ho737 O762 2.322 . S
Ho737 O764 2.378 . S
Ho737 O765 2.524 . S
Ho737 O766 2.381 . S
Ho737 O767 2.669 . S
C738 O756 1.259 . S
C738 O757 1.268 . S
C739 Ho736 2.811 . S
C739 C740 1.488 . S
C739 O758 1.215 . S
C739 O759 1.289 . S
C740 C739 1.488 . S
C740 C741 1.348 . S
C740 C745 1.413 . S
C741 C740 1.348 . S
C741 C742 1.442 1_455 S
C741 H768 0.930 . S
C742 C741 1.442 1_655 S
C742 C743 1.381 . S
C742 H769 0.931 . S
C743 C742 1.381 . S
C743 C744 1.321 1_655 S
C744 C743 1.321 1_455 S
C744 C745 1.403 . S
C744 H770 0.934 . S
C745 C740 1.413 . S
C745 C744 1.403 . S
C745 H771 0.930 . S
C746 O760 1.275 . S
C746 O761 1.256 . S
C747 O762 1.259 . S
C747 O763 1.268 . S
C748 Ho737 2.811 . S
C748 C749 1.488 . S
C748 O764 1.215 . S
C748 O765 1.289 . S
C749 C748 1.488 . S
C749 C750 1.348 . S
C749 C754 1.413 . S
C750 C749 1.348 . S
C750 C751 1.442 . S
C750 H772 0.930 . S
C751 C750 1.442 . S
C751 C752 1.381 . S
C751 H773 0.931 . S
C752 C751 1.381 . S
C752 C753 1.321 . S
C753 C752 1.321 . S
C753 C754 1.403 . S
C753 H774 0.934 . S
C754 C749 1.413 . S
C754 C753 1.403 . S
C754 H775 0.930 . S
C755 O766 1.275 . S
C755 O767 1.256 . S
O756 Ho736 2.322 . S
O756 C738 1.259 . S
O757 Ho737 2.346 . S
O757 C738 1.268 . S
O758 Ho736 2.378 . S
O758 C739 1.215 . S
O759 Ho736 2.524 . S
O759 C739 1.289 . S
O760 Ho736 2.381 . S
O760 C746 1.275 . S
O761 Ho736 2.669 . S
O761 Ho737 2.305 . S
O761 C746 1.256 . S
O762 Ho737 2.322 . S
O762 C747 1.259 . S
O763 Ho736 2.346 . S
O763 C747 1.268 . S
O764 Ho737 2.378 . S
O764 C748 1.215 . S
O765 Ho737 2.524 . S
O765 C748 1.289 . S
O766 Ho737 2.381 . S
O766 C755 1.275 . S
O767 Ho736 2.305 . S
O767 Ho737 2.669 . S
O767 C755 1.256 . S
H768 C741 0.930 . S
H769 C742 0.931 . S
H770 C744 0.934 . S
H771 C745 0.930 . S
H772 C750 0.930 . S
H773 C751 0.931 . S
H774 C753 0.934 . S
H775 C754 0.930 . S
Ho776 C779 2.811 . S
Ho776 O796 2.322 . S
Ho776 O798 2.378 . S
Ho776 O799 2.524 . S
Ho776 O800 2.381 . S
Ho776 O801 2.669 . S
Ho776 O803 2.346 . S
Ho776 O807 2.305 . S
Ho777 C788 2.811 . S
Ho777 O797 2.346 . S
Ho777 O801 2.305 . S
Ho777 O802 2.322 . S
Ho777 O804 2.378 . S
Ho777 O805 2.524 . S
Ho777 O806 2.381 . S
Ho777 O807 2.669 . S
C778 O796 1.259 . S
C778 O797 1.268 . S
C779 Ho776 2.811 . S
C779 C780 1.488 . S
C779 O798 1.215 . S
C779 O799 1.289 . S
C780 C779 1.488 . S
C780 C781 1.348 . S
C780 C785 1.413 . S
C781 C780 1.348 . S
C781 C782 1.442 . S
C781 H808 0.930 . S
C782 C781 1.442 . S
C782 C783 1.381 . S
C782 H809 0.931 . S
C783 C782 1.381 . S
C783 C784 1.321 . S
C784 C783 1.321 . S
C784 C785 1.403 . S
C784 H810 0.934 . S
C785 C780 1.413 . S
C785 C784 1.403 . S
C785 H811 0.930 . S
C786 O800 1.275 . S
C786 O801 1.256 . S
C787 O802 1.259 . S
C787 O803 1.268 . S
C788 Ho777 2.811 . S
C788 C789 1.488 . S
C788 O804 1.215 . S
C788 O805 1.289 . S
C789 C788 1.488 . S
C789 C790 1.348 . S
C789 C794 1.413 . S
C790 C789 1.348 . S
C790 C791 1.442 . S
C790 H812 0.930 . S
C791 C790 1.442 . S
C791 C792 1.381 . S
C791 H813 0.931 . S
C792 C791 1.381 . S
C792 C793 1.321 . S
C793 C792 1.321 . S
C793 C794 1.403 . S
C793 H814 0.934 . S
C794 C789 1.413 . S
C794 C793 1.403 . S
C794 H815 0.930 . S
C795 O806 1.275 . S
C795 O807 1.256 . S
O796 Ho776 2.322 . S
O796 C778 1.259 . S
O797 Ho777 2.346 . S
O797 C778 1.268 . S
O798 Ho776 2.378 . S
O798 C779 1.215 . S
O799 Ho776 2.524 . S
O799 C779 1.289 . S
O800 Ho776 2.381 . S
O800 C786 1.275 . S
O801 Ho776 2.669 . S
O801 Ho777 2.305 . S
O801 C786 1.256 . S
O802 Ho777 2.322 . S
O802 C787 1.259 . S
O803 Ho776 2.346 . S
O803 C787 1.268 . S
O804 Ho777 2.378 . S
O804 C788 1.215 . S
O805 Ho777 2.524 . S
O805 C788 1.289 . S
O806 Ho777 2.381 . S
O806 C795 1.275 . S
O807 Ho776 2.305 . S
O807 Ho777 2.669 . S
O807 C795 1.256 . S
H808 C781 0.930 . S
H809 C782 0.931 . S
H810 C784 0.934 . S
H811 C785 0.930 . S
H812 C790 0.930 . S
H813 C791 0.931 . S
H814 C793 0.934 . S
H815 C794 0.930 . S
Ho816 C819 2.811 . S
Ho816 O836 2.322 . S
Ho816 O838 2.378 . S
Ho816 O839 2.524 . S
Ho816 O840 2.381 . S
Ho816 O841 2.669 . S
Ho816 O843 2.346 . S
Ho816 O847 2.305 . S
Ho817 C828 2.811 . S
Ho817 O837 2.346 . S
Ho817 O841 2.305 . S
Ho817 O842 2.322 . S
Ho817 O844 2.378 . S
Ho817 O845 2.524 . S
Ho817 O846 2.381 . S
Ho817 O847 2.669 . S
C818 O836 1.259 . S
C818 O837 1.268 . S
C819 Ho816 2.811 . S
C819 C820 1.488 . S
C819 O838 1.215 . S
C819 O839 1.289 . S
C820 C819 1.488 . S
C820 C821 1.348 . S
C820 C825 1.413 . S
C821 C820 1.348 . S
C821 C822 1.442 . S
C821 H848 0.930 . S
C822 C821 1.442 . S
C822 C823 1.381 . S
C822 H849 0.931 . S
C823 C822 1.381 . S
C823 C824 1.321 . S
C824 C823 1.321 . S
C824 C825 1.403 . S
C824 H850 0.934 . S
C825 C820 1.413 . S
C825 C824 1.403 . S
C825 H851 0.930 . S
C826 O840 1.275 . S
C826 O841 1.256 . S
C827 O842 1.259 . S
C827 O843 1.268 . S
C828 Ho817 2.811 . S
C828 C829 1.488 . S
C828 O844 1.215 . S
C828 O845 1.289 . S
C829 C828 1.488 . S
C829 C830 1.348 . S
C829 C834 1.413 . S
C830 C829 1.348 . S
C830 C831 1.442 . S
C830 H852 0.930 . S
C831 C830 1.442 . S
C831 C832 1.381 . S
C831 H853 0.931 . S
C832 C831 1.381 . S
C832 C833 1.321 . S
C833 C832 1.321 . S
C833 C834 1.403 . S
C833 H854 0.934 . S
C834 C829 1.413 . S
C834 C833 1.403 . S
C834 H855 0.930 . S
C835 O846 1.275 . S
C835 O847 1.256 . S
O836 Ho816 2.322 . S
O836 C818 1.259 . S
O837 Ho817 2.346 . S
O837 C818 1.268 . S
O838 Ho816 2.378 . S
O838 C819 1.215 . S
O839 Ho816 2.524 . S
O839 C819 1.289 . S
O840 Ho816 2.381 . S
O840 C826 1.275 . S
O841 Ho816 2.669 . S
O841 Ho817 2.305 . S
O841 C826 1.256 . S
O842 Ho817 2.322 . S
O842 C827 1.259 . S
O843 Ho816 2.346 . S
O843 C827 1.268 . S
O844 Ho817 2.378 . S
O844 C828 1.215 . S
O845 Ho817 2.524 . S
O845 C828 1.289 . S
O846 Ho817 2.381 . S
O846 C835 1.275 . S
O847 Ho816 2.305 . S
O847 Ho817 2.669 . S
O847 C835 1.256 . S
H848 C821 0.930 . S
H849 C822 0.931 . S
H850 C824 0.934 . S
H851 C825 0.930 . S
H852 C830 0.930 . S
H853 C831 0.931 . S
H854 C833 0.934 . S
H855 C834 0.930 . S
Ho856 C859 2.811 . S
Ho856 O876 2.322 . S
Ho856 O878 2.378 . S
Ho856 O879 2.524 . S
Ho856 O880 2.381 . S
Ho856 O881 2.669 . S
Ho856 O883 2.346 . S
Ho856 O887 2.305 . S
Ho857 C868 2.811 . S
Ho857 O877 2.346 . S
Ho857 O881 2.305 . S
Ho857 O882 2.322 . S
Ho857 O884 2.378 . S
Ho857 O885 2.524 . S
Ho857 O886 2.381 . S
Ho857 O887 2.669 . S
C858 O876 1.259 . S
C858 O877 1.268 . S
C859 Ho856 2.811 . S
C859 C860 1.488 . S
C859 O878 1.215 . S
C859 O879 1.289 . S
C860 C859 1.488 . S
C860 C861 1.348 . S
C860 C865 1.413 . S
C861 C860 1.348 . S
C861 C862 1.442 . S
C861 H888 0.930 . S
C862 C861 1.442 . S
C862 C863 1.381 . S
C862 H889 0.931 . S
C863 C862 1.381 . S
C863 C864 1.321 . S
C864 C863 1.321 . S
C864 C865 1.403 . S
C864 H890 0.934 . S
C865 C860 1.413 . S
C865 C864 1.403 . S
C865 H891 0.930 . S
C866 O880 1.275 . S
C866 O881 1.256 . S
C867 O882 1.259 . S
C867 O883 1.268 . S
C868 Ho857 2.811 . S
C868 C869 1.488 . S
C868 O884 1.215 . S
C868 O885 1.289 . S
C869 C868 1.488 . S
C869 C870 1.348 . S
C869 C874 1.413 . S
C870 C869 1.348 . S
C870 C871 1.442 . S
C870 H892 0.930 . S
C871 C870 1.442 . S
C871 C872 1.381 . S
C871 H893 0.931 . S
C872 C871 1.381 . S
C872 C873 1.321 . S
C873 C872 1.321 . S
C873 C874 1.403 . S
C873 H894 0.934 . S
C874 C869 1.413 . S
C874 C873 1.403 . S
C874 H895 0.930 . S
C875 O886 1.275 . S
C875 O887 1.256 . S
O876 Ho856 2.322 . S
O876 C858 1.259 . S
O877 Ho857 2.346 . S
O877 C858 1.268 . S
O878 Ho856 2.378 . S
O878 C859 1.215 . S
O879 Ho856 2.524 . S
O879 C859 1.289 . S
O880 Ho856 2.381 . S
O880 C866 1.275 . S
O881 Ho856 2.669 . S
O881 Ho857 2.305 . S
O881 C866 1.256 . S
O882 Ho857 2.322 . S
O882 C867 1.259 . S
O883 Ho856 2.346 . S
O883 C867 1.268 . S
O884 Ho857 2.378 . S
O884 C868 1.215 . S
O885 Ho857 2.524 . S
O885 C868 1.289 . S
O886 Ho857 2.381 . S
O886 C875 1.275 . S
O887 Ho856 2.305 . S
O887 Ho857 2.669 . S
O887 C875 1.256 . S
H888 C861 0.930 . S
H889 C862 0.931 . S
H890 C864 0.934 . S
H891 C865 0.930 . S
H892 C870 0.930 . S
H893 C871 0.931 . S
H894 C873 0.934 . S
H895 C874 0.930 . S
Ho896 C899 2.811 . S
Ho896 O916 2.322 . S
Ho896 O918 2.378 . S
Ho896 O919 2.524 . S
Ho896 O920 2.381 . S
Ho896 O921 2.669 . S
Ho896 O923 2.346 . S
Ho896 O927 2.305 . S
Ho897 C908 2.811 . S
Ho897 O917 2.346 . S
Ho897 O921 2.305 . S
Ho897 O922 2.322 . S
Ho897 O924 2.378 . S
Ho897 O925 2.524 . S
Ho897 O926 2.381 . S
Ho897 O927 2.669 . S
C898 O916 1.259 . S
C898 O917 1.268 . S
C899 Ho896 2.811 . S
C899 C900 1.488 . S
C899 O918 1.215 . S
C899 O919 1.289 . S
C900 C899 1.488 . S
C900 C901 1.348 . S
C900 C905 1.413 . S
C901 C900 1.348 . S
C901 C902 1.442 . S
C901 H928 0.930 . S
C902 C901 1.442 . S
C902 C903 1.381 . S
C902 H929 0.931 . S
C903 C902 1.381 . S
C903 C904 1.321 . S
C904 C903 1.321 . S
C904 C905 1.403 . S
C904 H930 0.934 . S
C905 C900 1.413 . S
C905 C904 1.403 . S
C905 H931 0.930 . S
C906 O920 1.275 . S
C906 O921 1.256 . S
C907 O922 1.259 . S
C907 O923 1.268 . S
C908 Ho897 2.811 . S
C908 C909 1.488 . S
C908 O924 1.215 . S
C908 O925 1.289 . S
C909 C908 1.488 . S
C909 C910 1.348 . S
C909 C914 1.413 . S
C910 C909 1.348 . S
C910 C911 1.442 . S
C910 H932 0.930 . S
C911 C910 1.442 . S
C911 C912 1.381 . S
C911 H933 0.931 . S
C912 C911 1.381 . S
C912 C913 1.321 . S
C913 C912 1.321 . S
C913 C914 1.403 . S
C913 H934 0.934 . S
C914 C909 1.413 . S
C914 C913 1.403 . S
C914 H935 0.930 . S
C915 O926 1.275 . S
C915 O927 1.256 . S
O916 Ho896 2.322 . S
O916 C898 1.259 . S
O917 Ho897 2.346 . S
O917 C898 1.268 . S
O918 Ho896 2.378 . S
O918 C899 1.215 . S
O919 Ho896 2.524 . S
O919 C899 1.289 . S
O920 Ho896 2.381 . S
O920 C906 1.275 . S
O921 Ho896 2.669 . S
O921 Ho897 2.305 . S
O921 C906 1.256 . S
O922 Ho897 2.322 . S
O922 C907 1.259 . S
O923 Ho896 2.346 . S
O923 C907 1.268 . S
O924 Ho897 2.378 . S
O924 C908 1.215 . S
O925 Ho897 2.524 . S
O925 C908 1.289 . S
O926 Ho897 2.381 . S
O926 C915 1.275 . S
O927 Ho896 2.305 . S
O927 Ho897 2.669 . S
O927 C915 1.256 . S
H928 C901 0.930 . S
H929 C902 0.931 . S
H930 C904 0.934 . S
H931 C905 0.930 . S
H932 C910 0.930 . S
H933 C911 0.931 . S
H934 C913 0.934 . S
H935 C914 0.930 . S
Ho936 C939 2.811 1_554 S
Ho936 O956 2.322 1_554 S
Ho936 O958 2.378 1_554 S
Ho936 O959 2.524 . S
Ho936 O960 2.381 1_554 S
Ho936 O961 2.669 1_554 S
Ho936 O963 2.346 . S
Ho936 O967 2.305 . S
Ho937 C948 2.811 1_455 S
Ho937 O957 2.346 . S
Ho937 O961 2.305 1_554 S
Ho937 O962 2.322 . S
Ho937 O964 2.396 . S
Ho937 O965 2.524 1_455 S
Ho937 O966 2.381 . S
Ho937 O967 2.669 . S
C938 O956 1.259 1_554 S
C938 O957 1.268 . S
C939 Ho936 2.811 1_556 S
C939 C940 1.488 . S
C939 O958 1.215 . S
C939 O959 1.289 1_556 S
C940 C939 1.488 . S
C940 C941 1.348 1_556 S
C940 C945 1.413 . S
C941 C940 1.348 1_554 S
C941 C942 1.442 . S
C941 H968 0.930 . S
C942 C941 1.442 . S
C942 C943 1.381 1_554 S
C942 H969 0.931 . S
C943 C942 1.381 1_556 S
C943 C944 1.321 . S
C944 C943 1.321 . S
C944 C945 1.403 . S
C944 H970 0.934 . S
C945 C940 1.413 . S
C945 C944 1.403 . S
C945 H971 0.930 . S
C946 O960 1.275 . S
C946 O961 1.256 . S
C947 O962 1.259 . S
C947 O963 1.268 . S
C948 Ho937 2.811 1_655 S
C948 C949 1.488 . S
C948 O964 1.207 1_655 S
C948 O965 1.289 . S
C949 C948 1.488 . S
C949 C950 1.348 . S
C949 C954 1.413 . S
C950 C949 1.348 . S
C950 C951 1.442 . S
C950 H972 0.930 . S
C951 C950 1.442 . S
C951 C952 1.381 . S
C951 H973 0.931 . S
C952 C951 1.381 . S
C952 C953 1.321 . S
C953 C952 1.321 . S
C953 C954 1.403 . S
C953 H974 0.934 . S
C954 C949 1.413 . S
C954 C953 1.403 . S
C954 H975 0.930 . S
C955 O966 1.275 . S
C955 O967 1.256 . S
O956 Ho936 2.322 1_556 S
O956 C938 1.259 1_556 S
O957 Ho937 2.346 . S
O957 C938 1.268 . S
O958 Ho936 2.378 1_556 S
O958 C939 1.215 . S
O959 Ho936 2.524 . S
O959 C939 1.289 1_554 S
O960 Ho936 2.381 1_556 S
O960 C946 1.275 . S
O961 Ho936 2.669 1_556 S
O961 Ho937 2.305 1_556 S
O961 C946 1.256 . S
O962 Ho937 2.322 . S
O962 C947 1.259 . S
O963 Ho936 2.346 . S
O963 C947 1.268 . S
O964 Ho937 2.396 . S
O964 C948 1.207 1_455 S
O965 Ho937 2.524 1_655 S
O965 C948 1.289 . S
O966 Ho937 2.381 . S
O966 C955 1.275 . S
O967 Ho936 2.305 . S
O967 Ho937 2.669 . S
O967 C955 1.256 . S
H968 C941 0.930 . S
H969 C942 0.931 . S
H970 C944 0.934 . S
H971 C945 0.930 . S
H972 C950 0.930 . S
H973 C951 0.931 . S
H974 C953 0.934 . S
H975 C954 0.930 . S
C976 C977 1.369 . S
C976 C978 1.419 1_556 S
C976 H980 0.930 . S
C977 C976 1.369 . S
C977 C986 1.429 . S
C978 C976 1.419 1_554 S
C978 C979 1.363 1_554 S
C978 H981 0.929 . S
C979 C978 1.363 1_556 S
C979 C985 1.428 . S
H980 C976 0.930 . S
H981 C978 0.929 . S
S982 N983 1.613 . S
S982 N984 1.610 . S
N983 S982 1.613 . S
N983 C986 1.350 . S
N984 S982 1.610 . S
N984 C985 1.351 . S
C985 C979 1.428 . S
C985 N984 1.351 . S
C985 C986 1.434 . S
C986 C977 1.429 . S
C986 N983 1.350 . S
C986 C985 1.434 . S
C987 C988 1.369 . S
C987 C989 1.419 . S
C987 H991 0.930 . S
C988 C987 1.369 . S
C988 C997 1.429 . S
C989 C987 1.419 . S
C989 C990 1.363 . S
C989 H992 0.929 . S
C990 C989 1.363 . S
C990 C996 1.428 . S
H991 C987 0.930 . S
H992 C989 0.929 . S
S993 N994 1.613 . S
S993 N995 1.610 . S
N994 S993 1.613 . S
N994 C997 1.350 . S
N995 S993 1.610 . S
N995 C996 1.351 . S
C996 C990 1.428 . S
C996 N995 1.351 . S
C996 C997 1.434 . S
C997 C988 1.429 . S
C997 N994 1.350 . S
C997 C996 1.434 . S
C998 C999 1.369 . S
C998 C1000 1.419 . S
C998 H1002 0.930 . S
C999 C998 1.369 . S
C999 C1008 1.429 . S
C1000 C998 1.419 . S
C1000 C1001 1.363 . S
C1000 H1003 0.929 . S
C1001 C1000 1.363 . S
C1001 C1007 1.428 . S
H1002 C998 0.930 . S
H1003 C1000 0.929 . S
S1004 N1005 1.613 . S
S1004 N1006 1.610 . S
N1005 S1004 1.613 . S
N1005 C1008 1.350 . S
N1006 S1004 1.610 . S
N1006 C1007 1.351 . S
C1007 C1001 1.428 . S
C1007 N1006 1.351 . S
C1007 C1008 1.434 . S
C1008 C999 1.429 . S
C1008 N1005 1.350 . S
C1008 C1007 1.434 . S
C1009 C1010 1.369 . S
C1009 C1011 1.419 . S
C1009 H1013 0.930 . S
C1010 C1009 1.369 . S
C1010 C1019 1.429 . S
C1011 C1009 1.419 . S
C1011 C1012 1.363 . S
C1011 H1014 0.929 . S
C1012 C1011 1.363 . S
C1012 C1018 1.428 . S
H1013 C1009 0.930 . S
H1014 C1011 0.929 . S
S1015 N1016 1.613 . S
S1015 N1017 1.610 . S
N1016 S1015 1.613 . S
N1016 C1019 1.350 . S
N1017 S1015 1.610 . S
N1017 C1018 1.351 . S
C1018 C1012 1.428 . S
C1018 N1017 1.351 . S
C1018 C1019 1.434 . S
C1019 C1010 1.429 . S
C1019 N1016 1.350 . S
C1019 C1018 1.434 . S
C1020 C1021 1.369 . S
C1020 C1022 1.419 . S
C1020 H1024 0.930 . S
C1021 C1020 1.369 . S
C1021 C1030 1.429 . S
C1022 C1020 1.419 . S
C1022 C1023 1.363 . S
C1022 H1025 0.929 . S
C1023 C1022 1.363 . S
C1023 C1029 1.428 . S
H1024 C1020 0.930 . S
H1025 C1022 0.929 . S
S1026 N1027 1.618 . S
S1026 N1028 1.568 1_655 S
N1027 S1026 1.618 . S
N1027 C1030 1.350 1_655 S
N1028 S1026 1.568 1_455 S
N1028 C1029 1.351 . S
C1029 C1023 1.428 . S
C1029 N1028 1.351 . S
C1029 C1030 1.434 . S
C1030 C1021 1.429 . S
C1030 N1027 1.350 1_455 S
C1030 C1029 1.434 . S
C1031 C1032 1.369 . S
C1031 C1033 1.419 . S
C1031 H1035 0.930 . S
C1032 C1031 1.369 . S
C1032 C1041 1.429 . S
C1033 C1031 1.419 . S
C1033 C1034 1.363 . S
C1033 H1036 0.929 . S
C1034 C1033 1.363 . S
C1034 C1040 1.428 . S
H1035 C1031 0.930 . S
H1036 C1033 0.929 . S
S1037 N1038 1.613 . S
S1037 N1039 1.610 . S
N1038 S1037 1.613 . S
N1038 C1041 1.350 . S
N1039 S1037 1.610 . S
N1039 C1040 1.351 . S
C1040 C1034 1.428 . S
C1040 N1039 1.351 . S
C1040 C1041 1.434 . S
C1041 C1032 1.429 . S
C1041 N1038 1.350 . S
C1041 C1040 1.434 . S
C1042 C1043 1.369 . S
C1042 C1044 1.419 . S
C1042 H1046 0.930 . S
C1043 C1042 1.369 . S
C1043 C1052 1.429 . S
C1044 C1042 1.419 . S
C1044 C1045 1.363 . S
C1044 H1047 0.929 . S
C1045 C1044 1.363 . S
C1045 C1051 1.428 . S
H1046 C1042 0.930 . S
H1047 C1044 0.929 . S
S1048 N1049 1.613 . S
S1048 N1050 1.610 . S
N1049 S1048 1.613 . S
N1049 C1052 1.350 . S
N1050 S1048 1.610 . S
N1050 C1051 1.351 . S
C1051 C1045 1.428 . S
C1051 N1050 1.351 . S
C1051 C1052 1.434 . S
C1052 C1043 1.429 . S
C1052 N1049 1.350 . S
C1052 C1051 1.434 . S
C1053 C1054 1.369 . S
C1053 C1055 1.419 . S
C1053 H1057 0.930 . S
C1054 C1053 1.369 . S
C1054 C1063 1.429 . S
C1055 C1053 1.419 . S
C1055 C1056 1.363 . S
C1055 H1058 0.929 . S
C1056 C1055 1.363 . S
C1056 C1062 1.428 . S
H1057 C1053 0.930 . S
H1058 C1055 0.929 . S
S1059 N1060 1.613 . S
S1059 N1061 1.610 . S
N1060 S1059 1.613 . S
N1060 C1063 1.350 . S
N1061 S1059 1.610 . S
N1061 C1062 1.351 . S
C1062 C1056 1.428 . S
C1062 N1061 1.351 . S
C1062 C1063 1.434 . S
C1063 C1054 1.429 . S
C1063 N1060 1.350 . S
C1063 C1062 1.434 . S
C1064 C1065 1.369 1_655 S
C1064 C1066 1.419 1_655 S
C1064 H1068 0.930 . S
C1065 C1064 1.369 1_455 S
C1065 C1074 1.429 . S
C1066 C1064 1.419 1_455 S
C1066 C1067 1.363 . S
C1066 H1069 0.929 1_455 S
C1067 C1066 1.363 . S
C1067 C1073 1.428 . S
H1068 C1064 0.930 . S
H1069 C1066 0.929 1_655 S
S1070 N1071 1.613 . S
S1070 N1072 1.610 . S
N1071 S1070 1.613 . S
N1071 C1074 1.350 . S
N1072 S1070 1.610 . S
N1072 C1073 1.351 . S
C1073 C1067 1.428 . S
C1073 N1072 1.351 . S
C1073 C1074 1.434 . S
C1074 C1065 1.429 . S
C1074 N1071 1.350 . S
C1074 C1073 1.434 . S
C1075 C1076 1.369 . S
C1075 C1077 1.419 . S
C1075 H1079 0.930 . S
C1076 C1075 1.369 . S
C1076 C1085 1.429 . S
C1077 C1075 1.419 . S
C1077 C1078 1.363 . S
C1077 H1080 0.929 . S
C1078 C1077 1.363 . S
C1078 C1084 1.428 . S
H1079 C1075 0.930 . S
H1080 C1077 0.929 . S
S1081 N1082 1.613 . S
S1081 N1083 1.610 . S
N1082 S1081 1.613 . S
N1082 C1085 1.350 . S
N1083 S1081 1.610 . S
N1083 C1084 1.351 . S
C1084 C1078 1.428 . S
C1084 N1083 1.351 . S
C1084 C1085 1.434 . S
C1085 C1076 1.429 . S
C1085 N1082 1.350 . S
C1085 C1084 1.434 . S
C1086 C1087 1.369 . S
C1086 C1088 1.419 . S
C1086 H1090 0.930 . S
C1087 C1086 1.369 . S
C1087 C1096 1.429 . S
C1088 C1086 1.419 . S
C1088 C1089 1.363 . S
C1088 H1091 0.929 . S
C1089 C1088 1.363 . S
C1089 C1095 1.428 . S
H1090 C1086 0.930 . S
H1091 C1088 0.929 . S
S1092 N1093 1.613 . S
S1092 N1094 1.610 . S
N1093 S1092 1.613 . S
N1093 C1096 1.350 . S
N1094 S1092 1.610 . S
N1094 C1095 1.351 . S
C1095 C1089 1.428 . S
C1095 N1094 1.351 . S
C1095 C1096 1.434 . S
C1096 C1087 1.429 . S
C1096 N1093 1.350 . S
C1096 C1095 1.434 . S
C1097 C1098 1.369 . S
C1097 C1099 1.419 . S
C1097 H1101 0.930 . S
C1098 C1097 1.369 . S
C1098 C1107 1.429 . S
C1099 C1097 1.419 . S
C1099 C1100 1.363 . S
C1099 H1102 0.929 . S
C1100 C1099 1.363 . S
C1100 C1106 1.428 . S
H1101 C1097 0.930 . S
H1102 C1099 0.929 . S
S1103 N1104 1.613 . S
S1103 N1105 1.610 . S
N1104 S1103 1.613 . S
N1104 C1107 1.350 . S
N1105 S1103 1.610 . S
N1105 C1106 1.351 . S
C1106 C1100 1.428 . S
C1106 N1105 1.351 . S
C1106 C1107 1.434 . S
C1107 C1098 1.429 . S
C1107 N1104 1.350 . S
C1107 C1106 1.434 . S
C1108 C1109 1.369 . S
C1108 C1110 1.419 . S
C1108 H1112 0.930 . S
C1109 C1108 1.369 . S
C1109 C1118 1.429 1_455 S
C1110 C1108 1.419 . S
C1110 C1111 1.363 . S
C1110 H1113 0.929 . S
C1111 C1110 1.363 . S
C1111 C1117 1.428 . S
H1112 C1108 0.930 . S
H1113 C1110 0.929 . S
S1114 N1115 1.613 . S
S1114 N1116 1.610 . S
N1115 S1114 1.613 . S
N1115 C1118 1.350 . S
N1116 S1114 1.610 . S
N1116 C1117 1.351 1_655 S
C1117 C1111 1.428 . S
C1117 N1116 1.351 1_455 S
C1117 C1118 1.434 1_455 S
C1118 C1109 1.429 1_655 S
C1118 N1115 1.350 . S
C1118 C1117 1.434 1_655 S
C1119 C1120 1.369 . S
C1119 C1121 1.419 . S
C1119 H1123 0.930 . S
C1120 C1119 1.369 . S
C1120 C1129 1.429 . S
C1121 C1119 1.419 . S
C1121 C1122 1.363 . S
C1121 H1124 0.929 . S
C1122 C1121 1.363 . S
C1122 C1128 1.428 . S
H1123 C1119 0.930 . S
H1124 C1121 0.929 . S
S1125 N1126 1.613 . S
S1125 N1127 1.610 . S
N1126 S1125 1.613 . S
N1126 C1129 1.350 . S
N1127 S1125 1.610 . S
N1127 C1128 1.351 . S
C1128 C1122 1.428 . S
C1128 N1127 1.351 . S
C1128 C1129 1.434 . S
C1129 C1120 1.429 . S
C1129 N1126 1.350 . S
C1129 C1128 1.434 . S
C1130 C1131 1.369 . S
C1130 C1132 1.419 . S
C1130 H1134 0.930 . S
C1131 C1130 1.369 . S
C1131 C1140 1.429 . S
C1132 C1130 1.419 . S
C1132 C1133 1.363 . S
C1132 H1135 0.929 . S
C1133 C1132 1.363 . S
C1133 C1139 1.428 . S
H1134 C1130 0.930 . S
H1135 C1132 0.929 . S
S1136 N1137 1.613 . S
S1136 N1138 1.610 . S
N1137 S1136 1.613 . S
N1137 C1140 1.350 . S
N1138 S1136 1.610 . S
N1138 C1139 1.351 . S
C1139 C1133 1.428 . S
C1139 N1138 1.351 . S
C1139 C1140 1.434 . S
C1140 C1131 1.429 . S
C1140 N1137 1.350 . S
C1140 C1139 1.434 . S
C1141 C1142 1.369 . S
C1141 C1143 1.419 . S
C1141 H1145 0.930 . S
C1142 C1141 1.369 . S
C1142 C1151 1.429 . S
C1143 C1141 1.419 . S
C1143 C1144 1.363 . S
C1143 H1146 0.929 . S
C1144 C1143 1.363 . S
C1144 C1150 1.428 . S
H1145 C1141 0.930 . S
H1146 C1143 0.929 . S
S1147 N1148 1.613 . S
S1147 N1149 1.610 . S
N1148 S1147 1.613 . S
N1148 C1151 1.350 . S
N1149 S1147 1.610 . S
N1149 C1150 1.351 . S
C1150 C1144 1.428 . S
C1150 N1149 1.351 . S
C1150 C1151 1.434 . S
C1151 C1142 1.429 . S
C1151 N1148 1.350 . S
C1151 C1150 1.434 . S
C1152 C1153 1.369 . S
C1152 C1154 1.411 1_565 S
C1152 H1156 0.930 . S
C1153 C1152 1.369 . S
C1153 C1162 1.429 . S
C1154 C1152 1.411 1_545 S
C1154 C1155 1.372 . S
C1154 H1157 0.928 . S
C1155 C1154 1.372 . S
C1155 C1161 1.428 1_545 S
H1156 C1152 0.930 . S
H1157 C1154 0.928 . S
S1158 N1159 1.613 . S
S1158 N1160 1.611 1_556 S
N1159 S1158 1.613 . S
N1159 C1162 1.350 1_556 S
N1160 S1158 1.611 1_554 S
N1160 C1161 1.353 . S
C1161 C1155 1.428 1_565 S
C1161 N1160 1.353 . S
C1161 C1162 1.434 . S
C1162 C1153 1.429 . S
C1162 N1159 1.350 1_554 S
C1162 C1161 1.434 . S
C1163 C1164 1.369 1_554 S
C1163 C1165 1.419 . S
C1163 H1167 0.930 . S
C1164 C1163 1.369 1_556 S
C1164 C1173 1.429 . S
C1165 C1163 1.419 . S
C1165 C1166 1.363 . S
C1165 H1168 0.929 . S
C1166 C1165 1.363 . S
C1166 C1172 1.428 1_554 S
H1167 C1163 0.930 . S
H1168 C1165 0.929 . S
S1169 N1170 1.613 . S
S1169 N1171 1.610 . S
N1170 S1169 1.613 . S
N1170 C1173 1.350 . S
N1171 S1169 1.610 . S
N1171 C1172 1.351 . S
C1172 C1166 1.428 1_556 S
C1172 N1171 1.351 . S
C1172 C1173 1.434 . S
C1173 C1164 1.429 . S
C1173 N1170 1.350 . S
C1173 C1172 1.434 . S
C1174 C1175 1.369 . S
C1174 C1176 1.419 . S
C1174 H1178 0.930 . S
C1175 C1174 1.369 . S
C1175 C1184 1.429 . S
C1176 C1174 1.419 . S
C1176 C1177 1.363 . S
C1176 H1179 0.929 . S
C1177 C1176 1.363 . S
C1177 C1183 1.428 . S
H1178 C1174 0.930 . S
H1179 C1176 0.929 . S
S1180 N1181 1.613 . S
S1180 N1182 1.610 . S
N1181 S1180 1.613 . S
N1181 C1184 1.350 . S
N1182 S1180 1.610 . S
N1182 C1183 1.351 . S
C1183 C1177 1.428 . S
C1183 N1182 1.351 . S
C1183 C1184 1.434 . S
C1184 C1175 1.429 . S
C1184 N1181 1.350 . S
C1184 C1183 1.434 . S
C1185 C1186 1.369 . S
C1185 C1187 1.419 . S
C1185 H1189 0.930 . S
C1186 C1185 1.369 . S
C1186 C1195 1.429 . S
C1187 C1185 1.419 . S
C1187 C1188 1.363 . S
C1187 H1190 0.929 . S
C1188 C1187 1.363 . S
C1188 C1194 1.428 . S
H1189 C1185 0.930 . S
H1190 C1187 0.929 . S
S1191 N1192 1.613 . S
S1191 N1193 1.610 . S
N1192 S1191 1.613 . S
N1192 C1195 1.350 . S
N1193 S1191 1.610 . S
N1193 C1194 1.351 . S
C1194 C1188 1.428 . S
C1194 N1193 1.351 . S
C1194 C1195 1.434 . S
C1195 C1186 1.429 . S
C1195 N1192 1.350 . S
C1195 C1194 1.434 . S
C1196 C1197 1.369 . S
C1196 C1198 1.419 . S
C1196 H1200 0.930 . S
C1197 C1196 1.369 . S
C1197 C1206 1.429 . S
C1198 C1196 1.419 . S
C1198 C1199 1.363 . S
C1198 H1201 0.929 . S
C1199 C1198 1.363 . S
C1199 C1205 1.428 . S
H1200 C1196 0.930 . S
H1201 C1198 0.929 . S
S1202 N1203 1.613 . S
S1202 N1204 1.610 . S
N1203 S1202 1.613 . S
N1203 C1206 1.350 . S
N1204 S1202 1.610 . S
N1204 C1205 1.351 . S
C1205 C1199 1.428 . S
C1205 N1204 1.351 . S
C1205 C1206 1.434 . S
C1206 C1197 1.429 . S
C1206 N1203 1.350 . S
C1206 C1205 1.434 . S
C1207 C1208 1.369 . S
C1207 C1209 1.419 . S
C1207 H1211 0.930 . S
C1208 C1207 1.369 . S
C1208 C1217 1.429 . S
C1209 C1207 1.419 . S
C1209 C1210 1.363 . S
C1209 H1212 0.929 . S
C1210 C1209 1.363 . S
C1210 C1216 1.428 . S
H1211 C1207 0.930 . S
H1212 C1209 0.929 . S
S1213 N1214 1.613 . S
S1213 N1215 1.610 . S
N1214 S1213 1.613 . S
N1214 C1217 1.350 . S
N1215 S1213 1.610 . S
N1215 C1216 1.351 . S
C1216 C1210 1.428 . S
C1216 N1215 1.351 . S
C1216 C1217 1.434 . S
C1217 C1208 1.429 . S
C1217 N1214 1.350 . S
C1217 C1216 1.434 . S
C1218 C1219 1.369 . S
C1218 C1220 1.419 . S
C1218 H1222 0.930 . S
C1219 C1218 1.369 . S
C1219 C1228 1.429 . S
C1220 C1218 1.419 . S
C1220 C1221 1.363 . S
C1220 H1223 0.929 . S
C1221 C1220 1.363 . S
C1221 C1227 1.428 . S
H1222 C1218 0.930 . S
H1223 C1220 0.929 . S
S1224 N1225 1.613 . S
S1224 N1226 1.610 . S
N1225 S1224 1.613 . S
N1225 C1228 1.350 . S
N1226 S1224 1.610 . S
N1226 C1227 1.351 . S
C1227 C1221 1.428 . S
C1227 N1226 1.351 . S
C1227 C1228 1.434 . S
C1228 C1219 1.429 . S
C1228 N1225 1.350 . S
C1228 C1227 1.434 . S
C1229 C1230 1.369 . S
C1229 C1231 1.419 . S
C1229 H1233 0.930 . S
C1230 C1229 1.369 . S
C1230 C1239 1.429 . S
C1231 C1229 1.419 . S
C1231 C1232 1.363 . S
C1231 H1234 0.929 . S
C1232 C1231 1.363 . S
C1232 C1238 1.428 . S
H1233 C1229 0.930 . S
H1234 C1231 0.929 . S
S1235 N1236 1.613 . S
S1235 N1237 1.610 . S
N1236 S1235 1.613 . S
N1236 C1239 1.350 . S
N1237 S1235 1.610 . S
N1237 C1238 1.351 . S
C1238 C1232 1.428 . S
C1238 N1237 1.351 . S
C1238 C1239 1.434 . S
C1239 C1230 1.429 . S
C1239 N1236 1.350 . S
C1239 C1238 1.434 . S
C1240 C1241 1.369 . S
C1240 C1242 1.419 . S
C1240 H1244 0.930 . S
C1241 C1240 1.369 . S
C1241 C1250 1.429 . S
C1242 C1240 1.419 . S
C1242 C1243 1.363 . S
C1242 H1245 0.929 . S
C1243 C1242 1.363 . S
C1243 C1249 1.428 . S
H1244 C1240 0.930 . S
H1245 C1242 0.929 . S
S1246 N1247 1.613 . S
S1246 N1248 1.610 . S
N1247 S1246 1.613 . S
N1247 C1250 1.350 . S
N1248 S1246 1.610 . S
N1248 C1249 1.351 . S
C1249 C1243 1.428 . S
C1249 N1248 1.351 . S
C1249 C1250 1.434 . S
C1250 C1241 1.429 . S
C1250 N1247 1.350 . S
C1250 C1249 1.434 . S
C1251 C1252 1.369 . S
C1251 C1253 1.419 . S
C1251 H1255 0.930 . S
C1252 C1251 1.369 . S
C1252 C1261 1.429 . S
C1253 C1251 1.419 . S
C1253 C1254 1.363 . S
C1253 H1256 0.929 . S
C1254 C1253 1.363 . S
C1254 C1260 1.428 . S
H1255 C1251 0.930 . S
H1256 C1253 0.929 . S
S1257 N1258 1.613 . S
S1257 N1259 1.610 . S
N1258 S1257 1.613 . S
N1258 C1261 1.350 . S
N1259 S1257 1.610 . S
N1259 C1260 1.351 . S
C1260 C1254 1.428 . S
C1260 N1259 1.351 . S
C1260 C1261 1.434 . S
C1261 C1252 1.429 . S
C1261 N1258 1.350 . S
C1261 C1260 1.434 . S
C1262 C1263 1.369 . S
C1262 C1264 1.419 . S
C1262 H1266 0.930 . S
C1263 C1262 1.369 . S
C1263 C1272 1.429 . S
C1264 C1262 1.419 . S
C1264 C1265 1.363 . S
C1264 H1267 0.929 . S
C1265 C1264 1.363 . S
C1265 C1271 1.428 . S
H1266 C1262 0.930 . S
H1267 C1264 0.929 . S
S1268 N1269 1.613 . S
S1268 N1270 1.610 . S
N1269 S1268 1.613 . S
N1269 C1272 1.350 . S
N1270 S1268 1.610 . S
N1270 C1271 1.351 . S
C1271 C1265 1.428 . S
C1271 N1270 1.351 . S
C1271 C1272 1.434 . S
C1272 C1263 1.429 . S
C1272 N1269 1.350 . S
C1272 C1271 1.434 . S
C1273 C1274 1.369 . S
C1273 C1275 1.419 . S
C1273 H1277 0.930 . S
C1274 C1273 1.369 . S
C1274 C1283 1.429 . S
C1275 C1273 1.419 . S
C1275 C1276 1.363 . S
C1275 H1278 0.929 . S
C1276 C1275 1.363 . S
C1276 C1282 1.428 . S
H1277 C1273 0.930 . S
H1278 C1275 0.929 . S
S1279 N1280 1.613 . S
S1279 N1281 1.610 . S
N1280 S1279 1.613 . S
N1280 C1283 1.350 . S
N1281 S1279 1.610 . S
N1281 C1282 1.351 . S
C1282 C1276 1.428 . S
C1282 N1281 1.351 . S
C1282 C1283 1.434 . S
C1283 C1274 1.429 . S
C1283 N1280 1.350 . S
C1283 C1282 1.434 . S
C1284 C1285 1.369 . S
C1284 C1286 1.419 . S
C1284 H1288 0.930 . S
C1285 C1284 1.369 . S
C1285 C1294 1.429 . S
C1286 C1284 1.419 . S
C1286 C1287 1.363 . S
C1286 H1289 0.929 . S
C1287 C1286 1.363 . S
C1287 C1293 1.428 . S
H1288 C1284 0.930 . S
H1289 C1286 0.929 . S
S1290 N1291 1.613 . S
S1290 N1292 1.610 . S
N1291 S1290 1.613 . S
N1291 C1294 1.350 . S
N1292 S1290 1.610 . S
N1292 C1293 1.351 . S
C1293 C1287 1.428 . S
C1293 N1292 1.351 . S
C1293 C1294 1.434 . S
C1294 C1285 1.429 . S
C1294 N1291 1.350 . S
C1294 C1293 1.434 . S
C1295 C1296 1.369 . S
C1295 C1297 1.419 . S
C1295 H1299 0.930 . S
C1296 C1295 1.369 . S
C1296 C1305 1.429 . S
C1297 C1295 1.419 . S
C1297 C1298 1.363 . S
C1297 H1300 0.929 . S
C1298 C1297 1.363 . S
C1298 C1304 1.428 . S
H1299 C1295 0.930 . S
H1300 C1297 0.929 . S
S1301 N1302 1.613 . S
S1301 N1303 1.610 . S
N1302 S1301 1.613 . S
N1302 C1305 1.350 . S
N1303 S1301 1.610 . S
N1303 C1304 1.351 . S
C1304 C1298 1.428 . S
C1304 N1303 1.351 . S
C1304 C1305 1.434 . S
C1305 C1296 1.429 . S
C1305 N1302 1.350 . S
C1305 C1304 1.434 . S
C1306 C1307 1.369 . S
C1306 C1308 1.419 . S
C1306 H1310 0.930 . S
C1307 C1306 1.369 . S
C1307 C1316 1.429 . S
C1308 C1306 1.419 . S
C1308 C1309 1.363 . S
C1308 H1311 0.929 . S
C1309 C1308 1.363 . S
C1309 C1315 1.428 . S
H1310 C1306 0.930 . S
H1311 C1308 0.929 . S
S1312 N1313 1.613 1_544 S
S1312 N1314 1.610 . S
N1313 S1312 1.613 1_566 S
N1313 C1316 1.350 . S
N1314 S1312 1.610 . S
N1314 C1315 1.351 1_544 S
C1315 C1309 1.428 . S
C1315 N1314 1.351 1_566 S
C1315 C1316 1.434 . S
C1316 C1307 1.429 . S
C1316 N1313 1.350 . S
C1316 C1315 1.434 . S
C1317 C1318 1.369 . S
C1317 C1319 1.419 . S
C1317 H1321 0.930 . S
C1318 C1317 1.369 . S
C1318 C1327 1.429 . S
C1319 C1317 1.419 . S
C1319 C1320 1.363 . S
C1319 H1322 0.929 . S
C1320 C1319 1.363 . S
C1320 C1326 1.428 . S
H1321 C1317 0.930 . S
H1322 C1319 0.929 . S
S1323 N1324 1.613 . S
S1323 N1325 1.610 . S
N1324 S1323 1.613 . S
N1324 C1327 1.350 . S
N1325 S1323 1.610 . S
N1325 C1326 1.351 . S
C1326 C1320 1.428 . S
C1326 N1325 1.351 . S
C1326 C1327 1.434 . S
C1327 C1318 1.429 . S
C1327 N1324 1.350 . S
C1327 C1326 1.434 . S
C1328 C1329 1.369 . S
C1328 C1330 1.419 . S
C1328 H1332 0.930 . S
C1329 C1328 1.369 . S
C1329 C1338 1.429 . S
C1330 C1328 1.419 . S
C1330 C1331 1.363 . S
C1330 H1333 0.929 . S
C1331 C1330 1.363 . S
C1331 C1337 1.428 . S
H1332 C1328 0.930 . S
H1333 C1330 0.929 . S
S1334 N1335 1.613 . S
S1334 N1336 1.610 . S
N1335 S1334 1.613 . S
N1335 C1338 1.350 . S
N1336 S1334 1.610 . S
N1336 C1337 1.351 . S
C1337 C1331 1.428 . S
C1337 N1336 1.351 . S
C1337 C1338 1.434 . S
C1338 C1329 1.429 . S
C1338 N1335 1.350 . S
C1338 C1337 1.434 . S
C1339 C1340 1.369 . S
C1339 C1341 1.419 . S
C1339 H1343 0.930 . S
C1340 C1339 1.369 . S
C1340 C1349 1.429 . S
C1341 C1339 1.419 . S
C1341 C1342 1.363 . S
C1341 H1344 0.929 . S
C1342 C1341 1.363 . S
C1342 C1348 1.428 . S
H1343 C1339 0.930 . S
H1344 C1341 0.929 . S
S1345 N1346 1.613 . S
S1345 N1347 1.610 . S
N1346 S1345 1.613 . S
N1346 C1349 1.350 . S
N1347 S1345 1.610 . S
N1347 C1348 1.351 . S
C1348 C1342 1.428 . S
C1348 N1347 1.351 . S
C1348 C1349 1.434 . S
C1349 C1340 1.429 . S
C1349 N1346 1.350 . S
C1349 C1348 1.434 . S
C1350 C1351 1.369 . S
C1350 C1352 1.419 . S
C1350 H1354 0.930 1_545 S
C1351 C1350 1.369 . S
C1351 C1360 1.429 . S
C1352 C1350 1.419 . S
C1352 C1353 1.363 . S
C1352 H1355 0.929 . S
C1353 C1352 1.363 . S
C1353 C1359 1.428 . S
H1354 C1350 0.930 1_565 S
H1355 C1352 0.929 . S
S1356 N1357 1.613 . S
S1356 N1358 1.610 . S
N1357 S1356 1.613 . S
N1357 C1360 1.350 . S
N1358 S1356 1.610 . S
N1358 C1359 1.351 . S
C1359 C1353 1.428 . S
C1359 N1358 1.351 . S
C1359 C1360 1.434 . S
C1360 C1351 1.429 . S
C1360 N1357 1.350 . S
C1360 C1359 1.434 . S
C1361 C1362 1.369 . S
C1361 C1363 1.419 . S
C1361 H1365 0.930 . S
C1362 C1361 1.369 . S
C1362 C1371 1.429 . S
C1363 C1361 1.419 . S
C1363 C1364 1.363 . S
C1363 H1366 0.929 . S
C1364 C1363 1.363 . S
C1364 C1370 1.428 . S
H1365 C1361 0.930 . S
H1366 C1363 0.929 . S
S1367 N1368 1.613 . S
S1367 N1369 1.610 . S
N1368 S1367 1.613 . S
N1368 C1371 1.350 . S
N1369 S1367 1.610 . S
N1369 C1370 1.351 . S
C1370 C1364 1.428 . S
C1370 N1369 1.351 . S
C1370 C1371 1.434 . S
C1371 C1362 1.429 . S
C1371 N1368 1.350 . S
C1371 C1370 1.434 . S
C1372 C1373 1.369 1_565 S
C1372 C1374 1.421 . S
C1372 H1376 0.930 . S
C1373 C1372 1.369 1_545 S
C1373 C1382 1.429 . S
C1374 C1372 1.421 . S
C1374 C1375 1.359 1_565 S
C1374 H1377 0.931 . S
C1375 C1374 1.359 1_545 S
C1375 C1381 1.428 . S
H1376 C1372 0.930 . S
H1377 C1374 0.931 . S
S1378 N1379 1.613 . S
S1378 N1380 1.610 . S
N1379 S1378 1.613 . S
N1379 C1382 1.350 . S
N1380 S1378 1.610 . S
N1380 C1381 1.351 . S
C1381 C1375 1.428 . S
C1381 N1380 1.351 . S
C1381 C1382 1.434 . S
C1382 C1373 1.429 . S
C1382 N1379 1.350 . S
C1382 C1381 1.434 . S
C1383 C1384 1.369 . S
C1383 C1385 1.419 . S
C1383 H1387 0.930 . S
C1384 C1383 1.369 . S
C1384 C1393 1.429 . S
C1385 C1383 1.419 . S
C1385 C1386 1.363 . S
C1385 H1388 0.929 . S
C1386 C1385 1.363 . S
C1386 C1392 1.428 . S
H1387 C1383 0.930 . S
H1388 C1385 0.929 . S
S1389 N1390 1.613 . S
S1389 N1391 1.610 . S
N1390 S1389 1.613 . S
N1390 C1393 1.350 . S
N1391 S1389 1.610 . S
N1391 C1392 1.351 . S
C1392 C1386 1.428 . S
C1392 N1391 1.351 . S
C1392 C1393 1.434 . S
C1393 C1384 1.429 . S
C1393 N1390 1.350 . S
C1393 C1392 1.434 . S
C1394 C1395 1.369 . S
C1394 C1396 1.419 . S
C1394 H1398 0.930 . S
C1395 C1394 1.369 . S
C1395 C1404 1.429 1_565 S
C1396 C1394 1.419 . S
C1396 C1397 1.363 . S
C1396 H1399 0.929 . S
C1397 C1396 1.363 . S
C1397 C1403 1.428 1_565 S
H1398 C1394 0.930 . S
H1399 C1396 0.929 . S
S1400 N1401 1.613 . S
S1400 N1402 1.610 . S
N1401 S1400 1.613 . S
N1401 C1404 1.350 . S
N1402 S1400 1.610 . S
N1402 C1403 1.351 . S
C1403 C1397 1.428 1_545 S
C1403 N1402 1.351 . S
C1403 C1404 1.434 . S
C1404 C1395 1.429 1_545 S
C1404 N1401 1.350 . S
C1404 C1403 1.434 . S
C1405 C1406 1.369 . S
C1405 C1407 1.419 . S
C1405 H1409 0.930 . S
C1406 C1405 1.369 . S
C1406 C1415 1.429 . S
C1407 C1405 1.419 . S
C1407 C1408 1.363 . S
C1407 H1410 0.929 . S
C1408 C1407 1.363 . S
C1408 C1414 1.428 . S
H1409 C1405 0.930 . S
H1410 C1407 0.929 . S
S1411 N1412 1.613 . S
S1411 N1413 1.610 . S
N1412 S1411 1.613 . S
N1412 C1415 1.350 . S
N1413 S1411 1.610 . S
N1413 C1414 1.351 . S
C1414 C1408 1.428 . S
C1414 N1413 1.351 . S
C1414 C1415 1.434 . S
C1415 C1406 1.429 . S
C1415 N1412 1.350 . S
C1415 C1414 1.434 . S
C1416 C1417 1.369 . S
C1416 C1418 1.419 1_554 S
C1416 H1420 0.930 . S
C1417 C1416 1.369 . S
C1417 C1426 1.429 . S
C1418 C1416 1.419 1_556 S
C1418 C1419 1.363 . S
C1418 H1421 0.929 . S
C1419 C1418 1.363 . S
C1419 C1425 1.428 . S
H1420 C1416 0.930 . S
H1421 C1418 0.929 . S
S1422 N1423 1.613 1_556 S
S1422 N1424 1.610 . S
N1423 S1422 1.613 1_554 S
N1423 C1426 1.350 . S
N1424 S1422 1.610 . S
N1424 C1425 1.351 . S
C1425 C1419 1.428 . S
C1425 N1424 1.351 . S
C1425 C1426 1.434 1_556 S
C1426 C1417 1.429 . S
C1426 N1423 1.350 . S
C1426 C1425 1.434 1_554 S
C1427 C1428 1.369 . S
C1427 C1429 1.419 . S
C1427 H1431 0.930 1_554 S
C1428 C1427 1.369 . S
C1428 C1437 1.429 . S
C1429 C1427 1.419 . S
C1429 C1430 1.363 . S
C1429 H1432 0.929 1_554 S
C1430 C1429 1.363 . S
C1430 C1436 1.428 . S
H1431 C1427 0.930 1_556 S
H1432 C1429 0.929 1_556 S
S1433 N1434 1.613 . S
S1433 N1435 1.610 . S
N1434 S1433 1.613 . S
N1434 C1437 1.350 . S
N1435 S1433 1.610 . S
N1435 C1436 1.351 . S
C1436 C1430 1.428 . S
C1436 N1435 1.351 . S
C1436 C1437 1.434 . S
C1437 C1428 1.429 . S
C1437 N1434 1.350 . S
C1437 C1436 1.434 . S
C1438 C1439 1.369 . S
C1438 C1440 1.419 . S
C1438 H1442 0.930 . S
C1439 C1438 1.369 . S
C1439 C1448 1.429 . S
C1440 C1438 1.419 . S
C1440 C1441 1.363 . S
C1440 H1443 0.929 . S
C1441 C1440 1.363 . S
C1441 C1447 1.428 . S
H1442 C1438 0.930 . S
H1443 C1440 0.929 . S
S1444 N1445 1.613 . S
S1444 N1446 1.610 . S
N1445 S1444 1.613 . S
N1445 C1448 1.350 . S
N1446 S1444 1.610 . S
N1446 C1447 1.351 . S
C1447 C1441 1.428 . S
C1447 N1446 1.351 . S
C1447 C1448 1.434 . S
C1448 C1439 1.429 . S
C1448 N1445 1.350 . S
C1448 C1447 1.434 . S
C1449 C1450 1.369 . S
C1449 C1451 1.419 . S
C1449 H1453 0.930 . S
C1450 C1449 1.369 . S
C1450 C1459 1.429 . S
C1451 C1449 1.419 . S
C1451 C1452 1.363 . S
C1451 H1454 0.929 . S
C1452 C1451 1.363 . S
C1452 C1458 1.428 . S
H1453 C1449 0.930 . S
H1454 C1451 0.929 . S
S1455 N1456 1.613 . S
S1455 N1457 1.610 . S
N1456 S1455 1.613 . S
N1456 C1459 1.350 . S
N1457 S1455 1.610 . S
N1457 C1458 1.351 . S
C1458 C1452 1.428 . S
C1458 N1457 1.351 . S
C1458 C1459 1.434 . S
C1459 C1450 1.429 . S
C1459 N1456 1.350 . S
C1459 C1458 1.434 . S
C1460 C1461 1.369 1_565 S
C1460 C1462 1.419 . S
C1460 H1464 0.930 . S
C1461 C1460 1.369 1_545 S
C1461 C1470 1.429 . S
C1462 C1460 1.419 . S
C1462 C1463 1.363 . S
C1462 H1465 0.929 . S
C1463 C1462 1.363 . S
C1463 C1469 1.428 1_565 S
H1464 C1460 0.930 . S
H1465 C1462 0.929 . S
S1466 N1467 1.613 . S
S1466 N1468 1.610 . S
N1467 S1466 1.613 . S
N1467 C1470 1.350 . S
N1468 S1466 1.610 . S
N1468 C1469 1.351 . S
C1469 C1463 1.428 1_545 S
C1469 N1468 1.351 . S
C1469 C1470 1.434 . S
C1470 C1461 1.429 . S
C1470 N1467 1.350 . S
C1470 C1469 1.434 . S
C1471 C1472 1.369 . S
C1471 C1473 1.419 . S
C1471 H1475 0.930 . S
C1472 C1471 1.369 . S
C1472 C1481 1.429 . S
C1473 C1471 1.419 . S
C1473 C1474 1.363 . S
C1473 H1476 0.929 . S
C1474 C1473 1.363 . S
C1474 C1480 1.428 . S
H1475 C1471 0.930 . S
H1476 C1473 0.929 . S
S1477 N1478 1.613 . S
S1477 N1479 1.610 . S
N1478 S1477 1.613 . S
N1478 C1481 1.350 . S
N1479 S1477 1.610 . S
N1479 C1480 1.351 . S
C1480 C1474 1.428 . S
C1480 N1479 1.351 . S
C1480 C1481 1.434 . S
C1481 C1472 1.429 . S
C1481 N1478 1.350 . S
C1481 C1480 1.434 . S
C1482 C1483 1.369 . S
C1482 C1484 1.419 . S
C1482 H1486 0.930 . S
C1483 C1482 1.369 . S
C1483 C1492 1.429 . S
C1484 C1482 1.419 . S
C1484 C1485 1.363 . S
C1484 H1487 0.929 . S
C1485 C1484 1.363 . S
C1485 C1491 1.428 . S
H1486 C1482 0.930 . S
H1487 C1484 0.929 . S
S1488 N1489 1.613 . S
S1488 N1490 1.610 . S
N1489 S1488 1.613 . S
N1489 C1492 1.350 . S
N1490 S1488 1.610 . S
N1490 C1491 1.351 . S
C1491 C1485 1.428 . S
C1491 N1490 1.351 . S
C1491 C1492 1.434 . S
C1492 C1483 1.429 . S
C1492 N1489 1.350 . S
C1492 C1491 1.434 . S
C1493 C1494 1.369 . S
C1493 C1495 1.419 . S
C1493 H1497 0.930 . S
C1494 C1493 1.369 . S
C1494 C1503 1.429 . S
C1495 C1493 1.419 . S
C1495 C1496 1.363 . S
C1495 H1498 0.929 . S
C1496 C1495 1.363 . S
C1496 C1502 1.428 . S
H1497 C1493 0.930 . S
H1498 C1495 0.929 . S
S1499 N1500 1.613 . S
S1499 N1501 1.610 . S
N1500 S1499 1.613 . S
N1500 C1503 1.350 . S
N1501 S1499 1.610 . S
N1501 C1502 1.351 . S
C1502 C1496 1.428 . S
C1502 N1501 1.351 . S
C1502 C1503 1.434 . S
C1503 C1494 1.429 . S
C1503 N1500 1.350 . S
C1503 C1502 1.434 . S
C1504 C1505 1.369 . S
C1504 C1506 1.419 . S
C1504 H1508 0.930 . S
C1505 C1504 1.369 . S
C1505 C1514 1.429 . S
C1506 C1504 1.419 . S
C1506 C1507 1.363 . S
C1506 H1509 0.929 . S
C1507 C1506 1.363 . S
C1507 C1513 1.428 . S
H1508 C1504 0.930 . S
H1509 C1506 0.929 . S
S1510 N1511 1.613 . S
S1510 N1512 1.610 . S
N1511 S1510 1.613 . S
N1511 C1514 1.350 . S
N1512 S1510 1.610 . S
N1512 C1513 1.351 . S
C1513 C1507 1.428 . S
C1513 N1512 1.351 . S
C1513 C1514 1.434 . S
C1514 C1505 1.429 . S
C1514 N1511 1.350 . S
C1514 C1513 1.434 . S
C1515 C1516 1.369 . S
C1515 C1517 1.419 . S
C1515 H1519 0.930 . S
C1516 C1515 1.369 . S
C1516 C1525 1.429 . S
C1517 C1515 1.419 . S
C1517 C1518 1.363 . S
C1517 H1520 0.929 . S
C1518 C1517 1.363 . S
C1518 C1524 1.428 . S
H1519 C1515 0.930 . S
H1520 C1517 0.929 . S
S1521 N1522 1.613 . S
S1521 N1523 1.610 . S
N1522 S1521 1.613 . S
N1522 C1525 1.350 . S
N1523 S1521 1.610 . S
N1523 C1524 1.351 . S
C1524 C1518 1.428 . S
C1524 N1523 1.351 . S
C1524 C1525 1.434 . S
C1525 C1516 1.429 . S
C1525 N1522 1.350 . S
C1525 C1524 1.434 . S
C1526 C1527 1.369 . S
C1526 C1528 1.419 . S
C1526 H1530 0.930 . S
C1527 C1526 1.369 . S
C1527 C1536 1.429 . S
C1528 C1526 1.419 . S
C1528 C1529 1.359 1_556 S
C1528 H1531 0.929 . S
C1529 C1528 1.359 1_554 S
C1529 C1535 1.430 . S
H1530 C1526 0.930 . S
H1531 C1528 0.929 . S
S1532 N1533 1.613 1_554 S
S1532 N1534 1.610 . S
N1533 S1532 1.613 1_556 S
N1533 C1536 1.350 . S
N1534 S1532 1.610 . S
N1534 C1535 1.351 . S
C1535 C1529 1.430 . S
C1535 N1534 1.351 . S
C1535 C1536 1.434 1_554 S
C1536 C1527 1.429 . S
C1536 N1533 1.350 . S
C1536 C1535 1.434 1_556 S
C1537 C1538 1.369 . S
C1537 C1539 1.427 . S
C1537 H1541 0.930 . S
C1538 C1537 1.369 . S
C1538 C1547 1.429 . S
C1539 C1537 1.427 . S
C1539 C1540 1.354 1_455 S
C1539 H1542 0.930 1_455 S
C1540 C1539 1.354 1_655 S
C1540 C1546 1.428 . S
H1541 C1537 0.930 . S
H1542 C1539 0.930 1_655 S
S1543 N1544 1.613 1_655 S
S1543 N1545 1.610 . S
N1544 S1543 1.613 1_455 S
N1544 C1547 1.350 . S
N1545 S1543 1.610 . S
N1545 C1546 1.351 . S
C1546 C1540 1.428 . S
C1546 N1545 1.351 . S
C1546 C1547 1.434 1_655 S
C1547 C1538 1.429 . S
C1547 N1544 1.350 . S
C1547 C1546 1.434 1_455 S
C1548 C1549 1.369 . S
C1548 C1550 1.419 . S
C1548 H1552 0.930 . S
C1549 C1548 1.369 . S
C1549 C1558 1.429 . S
C1550 C1548 1.419 . S
C1550 C1551 1.363 . S
C1550 H1553 0.929 . S
C1551 C1550 1.363 . S
C1551 C1557 1.428 . S
H1552 C1548 0.930 . S
H1553 C1550 0.929 . S
S1554 N1555 1.613 . S
S1554 N1556 1.610 . S
N1555 S1554 1.613 . S
N1555 C1558 1.350 . S
N1556 S1554 1.610 . S
N1556 C1557 1.351 . S
C1557 C1551 1.428 . S
C1557 N1556 1.351 . S
C1557 C1558 1.434 . S
C1558 C1549 1.429 . S
C1558 N1555 1.350 . S
C1558 C1557 1.434 . S
C1559 C1560 1.369 . S
C1559 C1561 1.419 . S
C1559 H1563 0.930 . S
C1560 C1559 1.369 . S
C1560 C1569 1.429 . S
C1561 C1559 1.419 . S
C1561 C1562 1.363 . S
C1561 H1564 0.929 1_455 S
C1562 C1561 1.363 . S
C1562 C1568 1.428 . S
H1563 C1559 0.930 . S
H1564 C1561 0.929 1_655 S
S1565 N1566 1.613 . S
S1565 N1567 1.610 . S
N1566 S1565 1.613 . S
N1566 C1569 1.350 . S
N1567 S1565 1.610 . S
N1567 C1568 1.351 . S
C1568 C1562 1.428 . S
C1568 N1567 1.351 . S
C1568 C1569 1.434 . S
C1569 C1560 1.429 . S
C1569 N1566 1.350 . S
C1569 C1568 1.434 . S
C1570 C1571 1.388 1_655 S
C1570 C1572 1.390 1_655 S
C1570 H1574 0.951 . S
C1571 C1570 1.388 1_455 S
C1571 C1580 1.449 . S
C1572 C1570 1.390 1_455 S
C1572 C1573 1.363 . S
C1572 H1575 0.929 . S
C1573 C1572 1.363 . S
C1573 C1579 1.428 . S
H1574 C1570 0.951 . S
H1575 C1572 0.929 . S
S1576 N1577 1.613 . S
S1576 N1578 1.610 . S
N1577 S1576 1.613 . S
N1577 C1580 1.350 . S
N1578 S1576 1.610 . S
N1578 C1579 1.351 . S
C1579 C1573 1.428 . S
C1579 N1578 1.351 . S
C1579 C1580 1.434 . S
C1580 C1571 1.449 . S
C1580 N1577 1.350 . S
C1580 C1579 1.434 . S
C1581 C1582 1.369 . S
C1581 C1583 1.419 . S
C1581 H1585 0.930 . S
C1582 C1581 1.369 . S
C1582 C1591 1.429 . S
C1583 C1581 1.419 . S
C1583 C1584 1.363 . S
C1583 H1586 0.929 . S
C1584 C1583 1.363 . S
C1584 C1590 1.428 . S
H1585 C1581 0.930 . S
H1586 C1583 0.929 . S
S1587 N1588 1.613 . S
S1587 N1589 1.610 . S
N1588 S1587 1.613 . S
N1588 C1591 1.350 . S
N1589 S1587 1.610 . S
N1589 C1590 1.351 . S
C1590 C1584 1.428 . S
C1590 N1589 1.351 . S
C1590 C1591 1.434 . S
C1591 C1582 1.429 . S
C1591 N1588 1.350 . S
C1591 C1590 1.434 . S
C1592 C1593 1.369 . S
C1592 C1594 1.419 . S
C1592 H1596 0.930 . S
C1593 C1592 1.369 . S
C1593 C1602 1.429 . S
C1594 C1592 1.419 . S
C1594 C1595 1.363 . S
C1594 H1597 0.929 . S
C1595 C1594 1.363 . S
C1595 C1601 1.428 . S
H1596 C1592 0.930 . S
H1597 C1594 0.929 . S
S1598 N1599 1.613 . S
S1598 N1600 1.610 . S
N1599 S1598 1.613 . S
N1599 C1602 1.350 . S
N1600 S1598 1.610 . S
N1600 C1601 1.351 . S
C1601 C1595 1.428 . S
C1601 N1600 1.351 . S
C1601 C1602 1.434 . S
C1602 C1593 1.429 . S
C1602 N1599 1.350 . S
C1602 C1601 1.434 . S
C1603 C1604 1.369 . S
C1603 C1605 1.419 . S
C1603 H1607 0.930 . S
C1604 C1603 1.369 . S
C1604 C1613 1.429 . S
C1605 C1603 1.419 . S
C1605 C1606 1.363 . S
C1605 H1608 0.929 . S
C1606 C1605 1.363 . S
C1606 C1612 1.428 . S
H1607 C1603 0.930 . S
H1608 C1605 0.929 . S
S1609 N1610 1.613 . S
S1609 N1611 1.610 . S
N1610 S1609 1.613 . S
N1610 C1613 1.350 . S
N1611 S1609 1.610 . S
N1611 C1612 1.351 . S
C1612 C1606 1.428 . S
C1612 N1611 1.351 . S
C1612 C1613 1.434 . S
C1613 C1604 1.429 . S
C1613 N1610 1.350 . S
C1613 C1612 1.434 . S
C1614 C1615 1.369 . S
C1614 C1616 1.419 . S
C1614 H1618 0.930 . S
C1615 C1614 1.369 . S
C1615 C1624 1.429 . S
C1616 C1614 1.419 . S
C1616 C1617 1.363 . S
C1616 H1619 0.929 . S
C1617 C1616 1.363 . S
C1617 C1623 1.428 . S
H1618 C1614 0.930 . S
H1619 C1616 0.929 . S
S1620 N1621 1.613 . S
S1620 N1622 1.610 . S
N1621 S1620 1.613 . S
N1621 C1624 1.350 . S
N1622 S1620 1.610 . S
N1622 C1623 1.351 . S
C1623 C1617 1.428 . S
C1623 N1622 1.351 . S
C1623 C1624 1.434 . S
C1624 C1615 1.429 . S
C1624 N1621 1.350 . S
C1624 C1623 1.434 . S
C1625 C1626 1.369 . S
C1625 C1627 1.419 . S
C1625 H1629 0.930 . S
C1626 C1625 1.369 . S
C1626 C1635 1.429 . S
C1627 C1625 1.419 . S
C1627 C1628 1.363 . S
C1627 H1630 0.929 . S
C1628 C1627 1.363 . S
C1628 C1634 1.428 . S
H1629 C1625 0.930 . S
H1630 C1627 0.929 . S
S1631 N1632 1.613 . S
S1631 N1633 1.610 . S
N1632 S1631 1.613 . S
N1632 C1635 1.350 . S
N1633 S1631 1.610 . S
N1633 C1634 1.351 . S
C1634 C1628 1.428 . S
C1634 N1633 1.351 . S
C1634 C1635 1.434 . S
C1635 C1626 1.429 . S
C1635 N1632 1.350 . S
C1635 C1634 1.434 . S
C1636 C1637 1.369 . S
C1636 C1638 1.419 . S
C1636 H1640 0.930 . S
C1637 C1636 1.369 . S
C1637 C1646 1.429 . S
C1638 C1636 1.419 . S
C1638 C1639 1.363 . S
C1638 H1641 0.929 . S
C1639 C1638 1.363 . S
C1639 C1645 1.428 . S
H1640 C1636 0.930 . S
H1641 C1638 0.929 . S
S1642 N1643 1.613 . S
S1642 N1644 1.610 . S
N1643 S1642 1.613 . S
N1643 C1646 1.350 . S
N1644 S1642 1.610 . S
N1644 C1645 1.351 . S
C1645 C1639 1.428 . S
C1645 N1644 1.351 . S
C1645 C1646 1.434 . S
C1646 C1637 1.429 . S
C1646 N1643 1.350 . S
C1646 C1645 1.434 . S
C1647 C1648 1.369 . S
C1647 C1649 1.419 . S
C1647 H1651 0.930 . S
C1648 C1647 1.369 . S
C1648 C1657 1.429 . S
C1649 C1647 1.419 . S
C1649 C1650 1.363 . S
C1649 H1652 0.929 . S
C1650 C1649 1.363 . S
C1650 C1656 1.428 . S
H1651 C1647 0.930 . S
H1652 C1649 0.929 . S
S1653 N1654 1.613 . S
S1653 N1655 1.610 . S
N1654 S1653 1.613 . S
N1654 C1657 1.350 . S
N1655 S1653 1.610 . S
N1655 C1656 1.351 . S
C1656 C1650 1.428 . S
C1656 N1655 1.351 . S
C1656 C1657 1.434 . S
C1657 C1648 1.429 . S
C1657 N1654 1.350 . S
C1657 C1656 1.434 . S
C1658 C1659 1.369 . S
C1658 C1660 1.419 . S
C1658 H1662 0.930 . S
C1659 C1658 1.369 . S
C1659 C1668 1.429 . S
C1660 C1658 1.419 . S
C1660 C1661 1.363 . S
C1660 H1663 0.929 . S
C1661 C1660 1.363 . S
C1661 C1667 1.428 . S
H1662 C1658 0.930 . S
H1663 C1660 0.929 . S
S1664 N1665 1.613 . S
S1664 N1666 1.610 . S
N1665 S1664 1.613 . S
N1665 C1668 1.350 . S
N1666 S1664 1.610 . S
N1666 C1667 1.351 . S
C1667 C1661 1.428 . S
C1667 N1666 1.351 . S
C1667 C1668 1.434 . S
C1668 C1659 1.429 . S
C1668 N1665 1.350 . S
C1668 C1667 1.434 . S
C1669 C1670 1.369 . S
C1669 C1671 1.419 . S
C1669 H1673 0.930 . S
C1670 C1669 1.369 . S
C1670 C1679 1.429 . S
C1671 C1669 1.419 . S
C1671 C1672 1.363 . S
C1671 H1674 0.929 . S
C1672 C1671 1.363 . S
C1672 C1678 1.428 . S
H1673 C1669 0.930 . S
H1674 C1671 0.929 . S
S1675 N1676 1.613 . S
S1675 N1677 1.610 . S
N1676 S1675 1.613 . S
N1676 C1679 1.350 . S
N1677 S1675 1.610 . S
N1677 C1678 1.351 . S
C1678 C1672 1.428 . S
C1678 N1677 1.351 . S
C1678 C1679 1.434 . S
C1679 C1670 1.429 . S
C1679 N1676 1.350 . S
C1679 C1678 1.434 . S
C1680 C1681 1.369 . S
C1680 C1682 1.419 . S
C1680 H1684 0.930 . S
C1681 C1680 1.369 . S
C1681 C1690 1.429 . S
C1682 C1680 1.419 . S
C1682 C1683 1.363 . S
C1682 H1685 0.929 . S
C1683 C1682 1.363 . S
C1683 C1689 1.428 . S
H1684 C1680 0.930 . S
H1685 C1682 0.929 . S
S1686 N1687 1.613 . S
S1686 N1688 1.610 . S
N1687 S1686 1.613 . S
N1687 C1690 1.350 . S
N1688 S1686 1.610 . S
N1688 C1689 1.351 . S
C1689 C1683 1.428 . S
C1689 N1688 1.351 . S
C1689 C1690 1.434 . S
C1690 C1681 1.429 . S
C1690 N1687 1.350 . S
C1690 C1689 1.434 . S
C1691 C1692 1.369 . S
C1691 C1693 1.419 . S
C1691 H1695 0.930 . S
C1692 C1691 1.369 . S
C1692 C1701 1.429 . S
C1693 C1691 1.419 . S
C1693 C1694 1.363 . S
C1693 H1696 0.929 . S
C1694 C1693 1.363 . S
C1694 C1700 1.428 . S
H1695 C1691 0.930 . S
H1696 C1693 0.929 . S
S1697 N1698 1.613 . S
S1697 N1699 1.610 . S
N1698 S1697 1.613 . S
N1698 C1701 1.350 . S
N1699 S1697 1.610 . S
N1699 C1700 1.351 . S
C1700 C1694 1.428 . S
C1700 N1699 1.351 . S
C1700 C1701 1.434 . S
C1701 C1692 1.429 . S
C1701 N1698 1.350 . S
C1701 C1700 1.434 . S
C1702 C1703 1.369 . S
C1702 C1704 1.419 . S
C1702 H1706 0.930 . S
C1703 C1702 1.369 . S
C1703 C1712 1.429 . S
C1704 C1702 1.419 . S
C1704 C1705 1.363 . S
C1704 H1707 0.929 . S
C1705 C1704 1.363 . S
C1705 C1711 1.428 . S
H1706 C1702 0.930 . S
H1707 C1704 0.929 . S
S1708 N1709 1.613 . S
S1708 N1710 1.610 . S
N1709 S1708 1.613 . S
N1709 C1712 1.350 . S
N1710 S1708 1.610 . S
N1710 C1711 1.351 . S
C1711 C1705 1.428 . S
C1711 N1710 1.351 . S
C1711 C1712 1.434 . S
C1712 C1703 1.429 . S
C1712 N1709 1.350 . S
C1712 C1711 1.434 . S
C1713 C1714 1.369 . S
C1713 C1715 1.419 . S
C1713 H1717 0.930 1_554 S
C1714 C1713 1.369 . S
C1714 C1723 1.429 1_565 S
C1715 C1713 1.419 . S
C1715 C1716 1.363 1_565 S
C1715 H1718 0.929 . S
C1716 C1715 1.363 1_545 S
C1716 C1722 1.428 . S
H1717 C1713 0.930 1_556 S
H1718 C1715 0.929 . S
S1719 N1720 1.613 . S
S1719 N1721 1.610 . S
N1720 S1719 1.613 . S
N1720 C1723 1.350 . S
N1721 S1719 1.610 . S
N1721 C1722 1.351 . S
C1722 C1716 1.428 . S
C1722 N1721 1.351 . S
C1722 C1723 1.434 . S
C1723 C1714 1.429 1_545 S
C1723 N1720 1.350 . S
C1723 C1722 1.434 . S
C1724 C1725 1.369 . S
C1724 C1726 1.419 . S
C1724 H1728 0.930 . S
C1725 C1724 1.369 . S
C1725 C1734 1.429 . S
C1726 C1724 1.419 . S
C1726 C1727 1.363 . S
C1726 H1729 0.929 . S
C1727 C1726 1.363 . S
C1727 C1733 1.428 . S
H1728 C1724 0.930 . S
H1729 C1726 0.929 . S
S1730 N1731 1.613 . S
S1730 N1732 1.610 . S
N1731 S1730 1.613 . S
N1731 C1734 1.350 . S
N1732 S1730 1.610 . S
N1732 C1733 1.351 . S
C1733 C1727 1.428 . S
C1733 N1732 1.351 . S
C1733 C1734 1.434 . S
C1734 C1725 1.429 . S
C1734 N1731 1.350 . S
C1734 C1733 1.434 . S
C1735 C1736 1.369 . S
C1735 C1737 1.419 . S
C1735 H1739 0.930 1_554 S
C1736 C1735 1.369 . S
C1736 C1745 1.429 . S
C1737 C1735 1.419 . S
C1737 C1738 1.363 . S
C1737 H1740 0.929 . S
C1738 C1737 1.363 . S
C1738 C1744 1.428 . S
H1739 C1735 0.930 1_556 S
H1740 C1737 0.929 . S
S1741 N1742 1.613 . S
S1741 N1743 1.610 . S
N1742 S1741 1.613 . S
N1742 C1745 1.350 . S
N1743 S1741 1.610 . S
N1743 C1744 1.351 . S
C1744 C1738 1.428 . S
C1744 N1743 1.351 . S
C1744 C1745 1.434 . S
C1745 C1736 1.429 . S
C1745 N1742 1.350 . S
C1745 C1744 1.434 . S
C1746 C1747 1.369 . S
C1746 C1748 1.419 . S
C1746 H1750 0.930 . S
C1747 C1746 1.369 . S
C1747 C1756 1.429 . S
C1748 C1746 1.419 . S
C1748 C1749 1.363 . S
C1748 H1751 0.929 . S
C1749 C1748 1.363 . S
C1749 C1755 1.428 . S
H1750 C1746 0.930 . S
H1751 C1748 0.929 . S
S1752 N1753 1.613 . S
S1752 N1754 1.610 . S
N1753 S1752 1.613 . S
N1753 C1756 1.350 . S
N1754 S1752 1.610 . S
N1754 C1755 1.351 . S
C1755 C1749 1.428 . S
C1755 N1754 1.351 . S
C1755 C1756 1.434 . S
C1756 C1747 1.429 . S
C1756 N1753 1.350 . S
C1756 C1755 1.434 . S
C1757 C1758 1.369 . S
C1757 C1759 1.419 . S
C1757 H1761 0.930 . S
C1758 C1757 1.369 . S
C1758 C1767 1.429 . S
C1759 C1757 1.419 . S
C1759 C1760 1.363 . S
C1759 H1762 0.929 . S
C1760 C1759 1.363 . S
C1760 C1766 1.428 . S
H1761 C1757 0.930 . S
H1762 C1759 0.929 . S
S1763 N1764 1.613 . S
S1763 N1765 1.610 . S
N1764 S1763 1.613 . S
N1764 C1767 1.350 . S
N1765 S1763 1.610 . S
N1765 C1766 1.351 . S
C1766 C1760 1.428 . S
C1766 N1765 1.351 . S
C1766 C1767 1.434 . S
C1767 C1758 1.429 . S
C1767 N1764 1.350 . S
C1767 C1766 1.434 . S
C1768 C1769 1.369 . S
C1768 C1770 1.419 . S
C1768 H1772 0.930 . S
C1769 C1768 1.369 . S
C1769 C1778 1.429 . S
C1770 C1768 1.419 . S
C1770 C1771 1.363 . S
C1770 H1773 0.929 . S
C1771 C1770 1.363 . S
C1771 C1777 1.428 . S
H1772 C1768 0.930 . S
H1773 C1770 0.929 . S
S1774 N1775 1.613 . S
S1774 N1776 1.610 . S
N1775 S1774 1.613 . S
N1775 C1778 1.350 . S
N1776 S1774 1.610 . S
N1776 C1777 1.351 . S
C1777 C1771 1.428 . S
C1777 N1776 1.351 . S
C1777 C1778 1.434 . S
C1778 C1769 1.429 . S
C1778 N1775 1.350 . S
C1778 C1777 1.434 . S
C1779 C1780 1.369 . S
C1779 C1781 1.419 . S
C1779 H1783 0.930 . S
C1780 C1779 1.369 . S
C1780 C1789 1.429 . S
C1781 C1779 1.419 . S
C1781 C1782 1.363 . S
C1781 H1784 0.929 . S
C1782 C1781 1.363 . S
C1782 C1788 1.428 . S
H1783 C1779 0.930 . S
H1784 C1781 0.929 . S
S1785 N1786 1.613 . S
S1785 N1787 1.610 . S
N1786 S1785 1.613 . S
N1786 C1789 1.350 . S
N1787 S1785 1.610 . S
N1787 C1788 1.351 . S
C1788 C1782 1.428 . S
C1788 N1787 1.351 . S
C1788 C1789 1.434 . S
C1789 C1780 1.429 . S
C1789 N1786 1.350 . S
C1789 C1788 1.434 . S
C1790 C1791 1.369 . S
C1790 C1792 1.419 . S
C1790 H1794 0.930 . S
C1791 C1790 1.369 . S
C1791 C1800 1.429 . S
C1792 C1790 1.419 . S
C1792 C1793 1.363 . S
C1792 H1795 0.929 . S
C1793 C1792 1.363 . S
C1793 C1799 1.428 . S
H1794 C1790 0.930 . S
H1795 C1792 0.929 . S
S1796 N1797 1.613 . S
S1796 N1798 1.610 . S
N1797 S1796 1.613 . S
N1797 C1800 1.350 . S
N1798 S1796 1.610 . S
N1798 C1799 1.351 . S
C1799 C1793 1.428 . S
C1799 N1798 1.351 . S
C1799 C1800 1.434 . S
C1800 C1791 1.429 . S
C1800 N1797 1.350 . S
C1800 C1799 1.434 . S
C1801 C1802 1.369 . S
C1801 C1803 1.419 . S
C1801 H1805 0.930 . S
C1802 C1801 1.369 . S
C1802 C1811 1.429 . S
C1803 C1801 1.419 . S
C1803 C1804 1.363 . S
C1803 H1806 0.929 . S
C1804 C1803 1.363 . S
C1804 C1810 1.428 . S
H1805 C1801 0.930 . S
H1806 C1803 0.929 . S
S1807 N1808 1.613 . S
S1807 N1809 1.610 . S
N1808 S1807 1.613 . S
N1808 C1811 1.350 . S
N1809 S1807 1.610 . S
N1809 C1810 1.351 . S
C1810 C1804 1.428 . S
C1810 N1809 1.351 . S
C1810 C1811 1.434 . S
C1811 C1802 1.429 . S
C1811 N1808 1.350 . S
C1811 C1810 1.434 . S
C1812 C1813 1.369 . S
C1812 C1814 1.419 . S
C1812 H1816 0.930 . S
C1813 C1812 1.369 . S
C1813 C1822 1.429 . S
C1814 C1812 1.419 . S
C1814 C1815 1.363 . S
C1814 H1817 0.929 . S
C1815 C1814 1.363 . S
C1815 C1821 1.428 . S
H1816 C1812 0.930 . S
H1817 C1814 0.929 . S
S1818 N1819 1.613 . S
S1818 N1820 1.610 . S
N1819 S1818 1.613 . S
N1819 C1822 1.350 . S
N1820 S1818 1.610 . S
N1820 C1821 1.351 . S
C1821 C1815 1.428 . S
C1821 N1820 1.351 . S
C1821 C1822 1.434 . S
C1822 C1813 1.429 . S
C1822 N1819 1.350 . S
C1822 C1821 1.434 . S
C1823 C1824 1.369 . S
C1823 C1825 1.419 . S
C1823 H1827 0.930 . S
C1824 C1823 1.369 . S
C1824 C1833 1.429 . S
C1825 C1823 1.419 . S
C1825 C1826 1.363 . S
C1825 H1828 0.929 . S
C1826 C1825 1.363 . S
C1826 C1832 1.428 . S
H1827 C1823 0.930 . S
H1828 C1825 0.929 . S
S1829 N1830 1.613 . S
S1829 N1831 1.610 . S
N1830 S1829 1.613 . S
N1830 C1833 1.350 . S
N1831 S1829 1.610 . S
N1831 C1832 1.351 . S
C1832 C1826 1.428 . S
C1832 N1831 1.351 . S
C1832 C1833 1.434 . S
C1833 C1824 1.429 . S
C1833 N1830 1.350 . S
C1833 C1832 1.434 . S
C1834 C1835 1.369 . S
C1834 C1836 1.419 . S
C1834 H1838 0.930 . S
C1835 C1834 1.369 . S
C1835 C1844 1.429 . S
C1836 C1834 1.419 . S
C1836 C1837 1.363 . S
C1836 H1839 0.929 . S
C1837 C1836 1.363 . S
C1837 C1843 1.428 . S
H1838 C1834 0.930 . S
H1839 C1836 0.929 . S
S1840 N1841 1.613 . S
S1840 N1842 1.610 . S
N1841 S1840 1.613 . S
N1841 C1844 1.350 . S
N1842 S1840 1.610 . S
N1842 C1843 1.351 . S
C1843 C1837 1.428 . S
C1843 N1842 1.351 . S
C1843 C1844 1.434 . S
C1844 C1835 1.429 . S
C1844 N1841 1.350 . S
C1844 C1843 1.434 . S
C1845 C1846 1.369 . S
C1845 C1847 1.419 . S
C1845 H1849 0.930 . S
C1846 C1845 1.369 . S
C1846 C1855 1.429 . S
C1847 C1845 1.419 . S
C1847 C1848 1.363 . S
C1847 H1850 0.929 . S
C1848 C1847 1.363 . S
C1848 C1854 1.428 . S
H1849 C1845 0.930 . S
H1850 C1847 0.929 . S
S1851 N1852 1.613 . S
S1851 N1853 1.610 . S
N1852 S1851 1.613 . S
N1852 C1855 1.350 . S
N1853 S1851 1.610 . S
N1853 C1854 1.351 . S
C1854 C1848 1.428 . S
C1854 N1853 1.351 . S
C1854 C1855 1.434 . S
C1855 C1846 1.429 . S
C1855 N1852 1.350 . S
C1855 C1854 1.434 . S
C1856 C1857 1.369 . S
C1856 C1858 1.419 . S
C1856 H1860 0.930 . S
C1857 C1856 1.369 . S
C1857 C1866 1.429 . S
C1858 C1856 1.419 . S
C1858 C1859 1.363 . S
C1858 H1861 0.929 . S
C1859 C1858 1.363 . S
C1859 C1865 1.428 . S
H1860 C1856 0.930 . S
H1861 C1858 0.929 . S
S1862 N1863 1.613 . S
S1862 N1864 1.610 . S
N1863 S1862 1.613 . S
N1863 C1866 1.350 . S
N1864 S1862 1.610 . S
N1864 C1865 1.351 . S
C1865 C1859 1.428 . S
C1865 N1864 1.351 . S
C1865 C1866 1.434 . S
C1866 C1857 1.429 . S
C1866 N1863 1.350 . S
C1866 C1865 1.434 . S
C1867 C1868 1.369 . S
C1867 C1869 1.419 . S
C1867 H1871 0.930 . S
C1868 C1867 1.369 . S
C1868 C1877 1.429 . S
C1869 C1867 1.419 . S
C1869 C1870 1.363 . S
C1869 H1872 0.929 . S
C1870 C1869 1.363 . S
C1870 C1876 1.428 . S
H1871 C1867 0.930 . S
H1872 C1869 0.929 . S
S1873 N1874 1.613 . S
S1873 N1875 1.610 . S
N1874 S1873 1.613 . S
N1874 C1877 1.350 . S
N1875 S1873 1.610 . S
N1875 C1876 1.351 . S
C1876 C1870 1.428 . S
C1876 N1875 1.351 . S
C1876 C1877 1.434 . S
C1877 C1868 1.429 . S
C1877 N1874 1.350 . S
C1877 C1876 1.434 . S
C1878 C1879 1.369 1_455 S
C1878 C1880 1.419 . S
C1878 H1882 0.930 . S
C1879 C1878 1.369 1_655 S
C1879 C1888 1.429 . S
C1880 C1878 1.419 . S
C1880 C1881 1.363 . S
C1880 H1883 0.929 . S
C1881 C1880 1.363 . S
C1881 C1887 1.428 . S
H1882 C1878 0.930 . S
H1883 C1880 0.929 . S
S1884 N1885 1.613 . S
S1884 N1886 1.610 . S
N1885 S1884 1.613 . S
N1885 C1888 1.350 . S
N1886 S1884 1.610 . S
N1886 C1887 1.351 1_655 S
C1887 C1881 1.428 . S
C1887 N1886 1.351 1_455 S
C1887 C1888 1.434 1_455 S
C1888 C1879 1.429 . S
C1888 N1885 1.350 . S
C1888 C1887 1.434 1_655 S
C1889 C1890 1.369 . S
C1889 C1891 1.419 . S
C1889 H1893 0.930 . S
C1890 C1889 1.369 . S
C1890 C1899 1.429 . S
C1891 C1889 1.419 . S
C1891 C1892 1.363 . S
C1891 H1894 0.929 . S
C1892 C1891 1.363 . S
C1892 C1898 1.428 . S
H1893 C1889 0.930 . S
H1894 C1891 0.929 . S
S1895 N1896 1.613 . S
S1895 N1897 1.610 . S
N1896 S1895 1.613 . S
N1896 C1899 1.350 . S
N1897 S1895 1.610 . S
N1897 C1898 1.351 . S
C1898 C1892 1.428 . S
C1898 N1897 1.351 . S
C1898 C1899 1.434 . S
C1899 C1890 1.429 . S
C1899 N1896 1.350 . S
C1899 C1898 1.434 . S
C1900 C1901 1.369 . S
C1900 C1902 1.419 . S
C1900 H1904 0.930 . S
C1901 C1900 1.369 . S
C1901 C1910 1.429 . S
C1902 C1900 1.419 . S
C1902 C1903 1.363 . S
C1902 H1905 0.929 . S
C1903 C1902 1.363 . S
C1903 C1909 1.428 . S
H1904 C1900 0.930 . S
H1905 C1902 0.929 . S
S1906 N1907 1.613 . S
S1906 N1908 1.610 . S
N1907 S1906 1.613 . S
N1907 C1910 1.350 . S
N1908 S1906 1.610 . S
N1908 C1909 1.351 . S
C1909 C1903 1.428 . S
C1909 N1908 1.351 . S
C1909 C1910 1.434 . S
C1910 C1901 1.429 . S
C1910 N1907 1.350 . S
C1910 C1909 1.434 . S
C1911 C1912 1.369 . S
C1911 C1913 1.419 . S
C1911 H1915 0.930 . S
C1912 C1911 1.369 . S
C1912 C1921 1.429 . S
C1913 C1911 1.419 . S
C1913 C1914 1.363 . S
C1913 H1916 0.929 . S
C1914 C1913 1.363 . S
C1914 C1920 1.428 . S
H1915 C1911 0.930 . S
H1916 C1913 0.929 . S
S1917 N1918 1.613 . S
S1917 N1919 1.610 . S
N1918 S1917 1.613 . S
N1918 C1921 1.350 . S
N1919 S1917 1.610 . S
N1919 C1920 1.351 . S
C1920 C1914 1.428 . S
C1920 N1919 1.351 . S
C1920 C1921 1.434 . S
C1921 C1912 1.429 . S
C1921 N1918 1.350 . S
C1921 C1920 1.434 . S
C1922 C1923 1.369 . S
C1922 C1924 1.419 . S
C1922 H1926 0.930 . S
C1923 C1922 1.369 . S
C1923 C1932 1.429 . S
C1924 C1922 1.419 . S
C1924 C1925 1.363 . S
C1924 H1927 0.929 . S
C1925 C1924 1.363 . S
C1925 C1931 1.428 1_655 S
H1926 C1922 0.930 . S
H1927 C1924 0.929 . S
S1928 N1929 1.613 . S
S1928 N1930 1.610 . S
N1929 S1928 1.613 . S
N1929 C1932 1.350 1_455 S
N1930 S1928 1.610 . S
N1930 C1931 1.351 . S
C1931 C1925 1.428 1_455 S
C1931 N1930 1.351 . S
C1931 C1932 1.434 1_455 S
C1932 C1923 1.429 . S
C1932 N1929 1.350 1_655 S
C1932 C1931 1.434 1_655 S
C1933 C1934 1.369 . S
C1933 C1935 1.419 . S
C1933 H1937 0.930 . S
C1934 C1933 1.369 . S
C1934 C1943 1.429 . S
C1935 C1933 1.419 . S
C1935 C1936 1.363 . S
C1935 H1938 0.929 . S
C1936 C1935 1.363 . S
C1936 C1942 1.428 . S
H1937 C1933 0.930 . S
H1938 C1935 0.929 . S
S1939 N1940 1.613 . S
S1939 N1941 1.610 . S
N1940 S1939 1.613 . S
N1940 C1943 1.350 . S
N1941 S1939 1.610 . S
N1941 C1942 1.351 . S
C1942 C1936 1.428 . S
C1942 N1941 1.351 . S
C1942 C1943 1.434 . S
C1943 C1934 1.429 . S
C1943 N1940 1.350 . S
C1943 C1942 1.434 . S
C1944 C1945 1.369 . S
C1944 C1946 1.419 . S
C1944 H1948 0.930 . S
C1945 C1944 1.369 . S
C1945 C1954 1.429 . S
C1946 C1944 1.419 . S
C1946 C1947 1.363 . S
C1946 H1949 0.929 . S
C1947 C1946 1.363 . S
C1947 C1953 1.428 . S
H1948 C1944 0.930 . S
H1949 C1946 0.929 . S
S1950 N1951 1.613 . S
S1950 N1952 1.610 . S
N1951 S1950 1.613 . S
N1951 C1954 1.350 . S
N1952 S1950 1.610 . S
N1952 C1953 1.351 . S
C1953 C1947 1.428 . S
C1953 N1952 1.351 . S
C1953 C1954 1.434 . S
C1954 C1945 1.429 . S
C1954 N1951 1.350 . S
C1954 C1953 1.434 . S
C1955 C1956 1.369 . S
C1955 C1957 1.419 1_565 S
C1955 H1959 0.930 . S
C1956 C1955 1.369 . S
C1956 C1965 1.429 . S
C1957 C1955 1.419 1_545 S
C1957 C1958 1.363 1_545 S
C1957 H1960 0.929 . S
C1958 C1957 1.363 1_565 S
C1958 C1964 1.428 . S
H1959 C1955 0.930 . S
H1960 C1957 0.929 . S
S1961 N1962 1.625 . S
S1961 N1963 1.610 1_655 S
N1962 S1961 1.625 . S
N1962 C1965 1.350 . S
N1963 S1961 1.610 1_455 S
N1963 C1964 1.351 1_455 S
C1964 C1958 1.428 . S
C1964 N1963 1.351 1_655 S
C1964 C1965 1.434 . S
C1965 C1956 1.429 . S
C1965 N1962 1.350 . S
C1965 C1964 1.434 . S
C1966 C1967 1.369 . S
C1966 C1968 1.419 . S
C1966 H1970 0.930 . S
C1967 C1966 1.369 . S
C1967 C1976 1.429 . S
C1968 C1966 1.419 . S
C1968 C1969 1.363 . S
C1968 H1971 0.929 . S
C1969 C1968 1.363 . S
C1969 C1975 1.428 . S
H1970 C1966 0.930 . S
H1971 C1968 0.929 . S
S1972 N1973 1.613 . S
S1972 N1974 1.610 . S
N1973 S1972 1.613 . S
N1973 C1976 1.350 . S
N1974 S1972 1.610 . S
N1974 C1975 1.351 . S
C1975 C1969 1.428 . S
C1975 N1974 1.351 . S
C1975 C1976 1.434 . S
C1976 C1967 1.429 . S
C1976 N1973 1.350 . S
C1976 C1975 1.434 . S
C1977 C1978 1.369 . S
C1977 C1979 1.419 . S
C1977 H1981 0.930 . S
C1978 C1977 1.369 . S
C1978 C1987 1.429 1_554 S
C1979 C1977 1.419 . S
C1979 C1980 1.363 . S
C1979 H1982 0.929 . S
C1980 C1979 1.363 . S
C1980 C1986 1.428 1_554 S
H1981 C1977 0.930 . S
H1982 C1979 0.929 . S
S1983 N1984 1.613 . S
S1983 N1985 1.610 . S
N1984 S1983 1.613 . S
N1984 C1987 1.350 . S
N1985 S1983 1.610 . S
N1985 C1986 1.351 . S
C1986 C1980 1.428 1_556 S
C1986 N1985 1.351 . S
C1986 C1987 1.434 . S
C1987 C1978 1.429 1_556 S
C1987 N1984 1.350 . S
C1987 C1986 1.434 . S
C1988 C1989 1.369 . S
C1988 C1990 1.419 . S
C1988 H1992 0.930 . S
C1989 C1988 1.369 . S
C1989 C1998 1.429 . S
C1990 C1988 1.419 . S
C1990 C1991 1.363 . S
C1990 H1993 0.929 . S
C1991 C1990 1.363 . S
C1991 C1997 1.428 . S
H1992 C1988 0.930 . S
H1993 C1990 0.929 . S
S1994 N1995 1.613 . S
S1994 N1996 1.610 . S
N1995 S1994 1.613 . S
N1995 C1998 1.350 . S
N1996 S1994 1.610 . S
N1996 C1997 1.351 . S
C1997 C1991 1.428 . S
C1997 N1996 1.351 . S
C1997 C1998 1.434 . S
C1998 C1989 1.429 . S
C1998 N1995 1.350 . S
C1998 C1997 1.434 . S
C1999 C2000 1.369 1_556 S
C1999 C2001 1.419 . S
C1999 H2003 0.930 . S
C2000 C1999 1.369 1_554 S
C2000 C2009 1.429 . S
C2001 C1999 1.419 . S
C2001 C2002 1.363 . S
C2001 H2004 0.929 . S
C2002 C2001 1.363 . S
C2002 C2008 1.428 1_556 S
H2003 C1999 0.930 . S
H2004 C2001 0.929 . S
S2005 N2006 1.613 . S
S2005 N2007 1.610 . S
N2006 S2005 1.613 . S
N2006 C2009 1.350 . S
N2007 S2005 1.610 . S
N2007 C2008 1.351 . S
C2008 C2002 1.428 1_554 S
C2008 N2007 1.351 . S
C2008 C2009 1.434 . S
C2009 C2000 1.429 . S
C2009 N2006 1.350 . S
C2009 C2008 1.434 . S
C2010 C2011 1.369 . S
C2010 C2012 1.419 . S
C2010 H2014 0.930 . S
C2011 C2010 1.369 . S
C2011 C2020 1.429 . S
C2012 C2010 1.419 . S
C2012 C2013 1.363 . S
C2012 H2015 0.929 . S
C2013 C2012 1.363 . S
C2013 C2019 1.428 . S
H2014 C2010 0.930 . S
H2015 C2012 0.929 . S
S2016 N2017 1.613 . S
S2016 N2018 1.610 . S
N2017 S2016 1.613 . S
N2017 C2020 1.350 . S
N2018 S2016 1.610 . S
N2018 C2019 1.351 . S
C2019 C2013 1.428 . S
C2019 N2018 1.351 . S
C2019 C2020 1.434 . S
C2020 C2011 1.429 . S
C2020 N2017 1.350 . S
C2020 C2019 1.434 . S
C2021 C2022 1.369 . S
C2021 C2023 1.419 . S
C2021 H2025 0.930 . S
C2022 C2021 1.369 . S
C2022 C2031 1.429 . S
C2023 C2021 1.419 . S
C2023 C2024 1.363 . S
C2023 H2026 0.929 . S
C2024 C2023 1.363 . S
C2024 C2030 1.428 . S
H2025 C2021 0.930 . S
H2026 C2023 0.929 . S
S2027 N2028 1.613 . S
S2027 N2029 1.610 . S
N2028 S2027 1.613 . S
N2028 C2031 1.350 . S
N2029 S2027 1.610 . S
N2029 C2030 1.351 . S
C2030 C2024 1.428 . S
C2030 N2029 1.351 . S
C2030 C2031 1.434 . S
C2031 C2022 1.429 . S
C2031 N2028 1.350 . S
C2031 C2030 1.434 . S
C977 C109 2.310 . S
C979 C338 2.296 1_556 S
C988 C65 2.225 . S
C990 C395 2.246 . S
C999 C75 1.405 . S
C1001 C418 1.365 . S
C1012 C472 1.387 . S
C1010 C84 1.396 . S
C1021 C25 1.653 . S
C1023 C512 1.598 . S
C1034 C543 0.795 . S
C1032 C28 0.786 . S
C1045 C595 1.682 . S
C1043 C47 1.553 . S
C1054 C9 2.049 . S
C1056 C618 1.980 . S
C1067 C355 2.593 . S
C1065 C233 2.594 1_455 S
C1076 C249 0.891 . S
C1078 C392 0.852 . S
C1089 C435 1.301 . S
C1087 C275 1.297 . S
C1100 C458 1.498 . S
C1098 C173 1.517 . S
C1109 C224 2.063 1_455 S
C1111 C498 2.090 . S
C1122 C546 1.496 . S
C1120 C243 1.485 . S
C1133 C592 0.611 . S
C1131 C266 0.601 . S
C1144 C635 2.144 . S
C1142 C179 2.146 . S
C1155 C352 1.693 . S
C1153 C163 1.742 . S
C1164 C289 1.969 . S
C1166 C675 1.979 . S
C1177 C707 2.625 . S
C1175 C333 2.660 . S
C1188 C738 0.706 1_655 S
C1186 C308 0.706 . S
C1197 C123 1.870 . S
C1199 C632 1.827 . S
C1208 C126 1.657 . S
C1210 C432 1.649 . S
C1219 C327 2.269 . S
C1221 C795 2.272 . S
C1232 C818 0.834 . S
C1230 C299 0.837 . S
C1243 C347 2.307 . S
C1241 C67 2.335 . S
C1254 C826 2.261 . S
C1252 C98 2.176 . S
C1263 C89 1.432 . S
C1265 C427 1.401 . S
C1274 C79 1.455 . S
C1276 C783 1.424 . S
C1287 C503 1.594 . S
C1285 C11 1.661 . S
C1296 C51 0.794 . S
C1298 C712 0.781 . S
C1309 C586 1.755 . S
C1307 C33 1.625 . S
C1320 C867 1.951 . S
C1318 C14 2.024 . S
C1331 C346 2.570 . S
C1329 C140 2.556 . S
C1342 C823 0.835 . S
C1340 C319 0.864 . S
C1351 C112 1.298 . S
C1353 C426 1.317 . S
C1362 C285 1.527 . S
C1364 C787 1.513 . S
C1373 C149 2.124 . S
C1375 C507 2.107 . S
C1386 C715 1.506 . S
C1384 C313 1.503 . S
C1395 C121 0.595 . S
C1397 C583 0.617 . S
C1406 C291 2.175 . S
C1408 C866 2.158 . S
C1417 C182 1.787 . S
C1419 C343 1.682 . S
C1428 C168 1.921 . S
C1430 C666 1.986 . S
C1439 C263 2.700 . S
C1441 C538 2.661 . S
C1450 C247 0.770 . S
C1452 C747 0.764 . S
C1463 C863 1.801 . S
C1461 C277 1.871 . S
C1472 C219 1.711 . S
C1474 C423 1.651 . S
C1485 C466 2.305 . S
C1483 C257 2.306 . S
C1496 C387 0.803 . S
C1494 C201 0.808 . S
C1505 C81 2.309 . S
C1507 C898 2.297 . S
C1518 C835 2.245 . S
C1516 C93 2.225 . S
C1527 C103 1.407 . S
C1529 C938 1.370 . S
C1538 C56 1.402 . S
C1540 C792 1.384 . S
C1549 C53 1.644 . S
C1551 C672 1.607 . S
C1562 C703 0.772 1_455 S
C1560 C0 0.788 . S
C1573 C755 1.684 . S
C1571 C19 1.530 1_455 S
C1584 C858 1.981 . S
C1582 C37 2.052 . S
C1595 C915 2.593 . S
C1593 C261 2.595 . S
C1604 C193 0.883 . S
C1606 C832 0.865 . S
C1617 C955 1.302 . S
C1615 C205 1.301 . S
C1628 C778 1.497 . S
C1626 C215 1.516 . S
C1639 C658 2.094 . S
C1637 C252 2.057 . S
C1648 C187 1.491 . S
C1650 C706 1.492 . S
C1661 C752 0.619 . S
C1659 C196 0.597 . S
C1670 C221 2.146 . S
C1672 C875 2.144 . S
C1683 C912 1.702 . S
C1681 C317 1.727 . S
C1692 C135 1.966 . S
C1694 C515 1.980 . S
C1705 C547 2.626 . S
C1703 C151 2.660 . S
C1716 C578 0.702 . S
C1714 C154 0.704 . S
C1727 C872 1.835 . S
C1725 C305 1.864 . S
C1736 C280 1.653 . S
C1738 C952 1.652 . S
C1749 C475 2.272 . S
C1747 C145 2.271 . S
C1760 C378 0.825 . S
C1758 C117 0.850 . S
C1769 C95 2.332 . S
C1771 C907 2.306 . S
C1782 C386 2.260 . S
C1780 C70 2.171 . S
C1791 C61 1.430 . S
C1793 C947 1.395 . S
C1802 C107 1.456 . S
C1804 C463 1.423 . S
C1813 C39 1.665 . S
C1815 C663 1.591 . S
C1826 C552 0.793 . S
C1824 C23 0.791 . S
C1835 C5 1.622 . S
C1837 C746 1.737 . S
C1846 C42 2.021 . S
C1848 C627 1.950 . S
C1859 C906 2.571 . S
C1857 C322 2.558 . S
C1868 C165 0.859 . S
C1870 C383 0.843 . S
C1881 C946 1.319 . S
C1879 C294 1.306 . S
C1890 C131 1.527 . S
C1892 C467 1.514 . S
C1901 C331 2.127 . S
C1903 C667 2.104 . S
C1914 C555 1.505 . S
C1912 C159 1.502 . S
C1923 C303 0.599 . S
C1925 C743 0.616 . S
C1936 C626 2.161 . S
C1934 C137 2.174 . S
C1947 C903 1.685 . S
C1945 C238 1.785 . S
C1958 C506 1.986 1_665 S
C1956 C210 1.925 . S
C1967 C235 2.703 . S
C1969 C698 2.662 . S
C1980 C587 0.769 . S
C1978 C191 0.760 . S
C1989 C207 1.868 . S
C1991 C623 1.803 . S
C2000 C177 1.712 . S
C2002 C943 1.650 . S
C2013 C786 2.305 . S
C2011 C229 2.306 1_565 S
C2024 C827 0.798 . S
C2022 C271 0.814 . S
