# Generated by pormake.
# Topology wbl, (4,4)-cn, num edge types: 1
# Building blocks:
#     Node 0, Type 0, BuildingBlock: MUDLON_clean_sbu_0, # of connection points: 4
#     Node 1, Type 0, BuildingBlock: MUDLON_clean_sbu_0, # of connection points: 4
#     Node 2, Type 0, BuildingBlock: MUDLON_clean_sbu_0, # of connection points: 4
#     Node 3, Type 0, BuildingBlock: MUDLON_clean_sbu_0, # of connection points: 4
#     Node 4, Type 0, BuildingBlock: MUDLON_clean_sbu_0, # of connection points: 4
#     Node 5, Type 0, BuildingBlock: MUDLON_clean_sbu_0, # of connection points: 4
#     Node 6, Type 0, BuildingBlock: MUDLON_clean_sbu_0, # of connection points: 4
#     Node 7, Type 0, BuildingBlock: MUDLON_clean_sbu_0, # of connection points: 4
#     Node 8, Type 1, BuildingBlock: CEKHIL_clean_sbu_0, # of connection points: 4
#     Node 9, Type 1, BuildingBlock: CEKHIL_clean_sbu_0, # of connection points: 4
#     Node 10, Type 1, BuildingBlock: CEKHIL_clean_sbu_0, # of connection points: 4
#     Node 11, Type 1, BuildingBlock: CEKHIL_clean_sbu_0, # of connection points: 4
#     Node 12, Type 1, BuildingBlock: CEKHIL_clean_sbu_0, # of connection points: 4
#     Node 13, Type 1, BuildingBlock: CEKHIL_clean_sbu_0, # of connection points: 4
#     Node 14, Type 1, BuildingBlock: CEKHIL_clean_sbu_0, # of connection points: 4
#     Node 15, Type 1, BuildingBlock: CEKHIL_clean_sbu_0, # of connection points: 4
#     Edge 16, Type (0, 1), BuildingBlock: XIVTED_clean_linker_0, # of connection points: 2
#     Edge 17, Type (0, 1), BuildingBlock: XIVTED_clean_linker_0, # of connection points: 2
#     Edge 18, Type (0, 1), BuildingBlock: XIVTED_clean_linker_0, # of connection points: 2
#     Edge 19, Type (0, 1), BuildingBlock: XIVTED_clean_linker_0, # of connection points: 2
#     Edge 20, Type (0, 1), BuildingBlock: XIVTED_clean_linker_0, # of connection points: 2
#     Edge 21, Type (0, 1), BuildingBlock: XIVTED_clean_linker_0, # of connection points: 2
#     Edge 22, Type (0, 1), BuildingBlock: XIVTED_clean_linker_0, # of connection points: 2
#     Edge 23, Type (0, 1), BuildingBlock: XIVTED_clean_linker_0, # of connection points: 2
#     Edge 24, Type (0, 1), BuildingBlock: XIVTED_clean_linker_0, # of connection points: 2
#     Edge 25, Type (0, 1), BuildingBlock: XIVTED_clean_linker_0, # of connection points: 2
#     Edge 26, Type (0, 1), BuildingBlock: XIVTED_clean_linker_0, # of connection points: 2
#     Edge 27, Type (0, 1), BuildingBlock: XIVTED_clean_linker_0, # of connection points: 2
#     Edge 28, Type (0, 1), BuildingBlock: XIVTED_clean_linker_0, # of connection points: 2
#     Edge 29, Type (0, 1), BuildingBlock: XIVTED_clean_linker_0, # of connection points: 2
#     Edge 30, Type (0, 1), BuildingBlock: XIVTED_clean_linker_0, # of connection points: 2
#     Edge 31, Type (0, 1), BuildingBlock: XIVTED_clean_linker_0, # of connection points: 2
#     Edge 32, Type (0, 1), BuildingBlock: XIVTED_clean_linker_0, # of connection points: 2
#     Edge 33, Type (0, 1), BuildingBlock: XIVTED_clean_linker_0, # of connection points: 2
#     Edge 34, Type (0, 1), BuildingBlock: XIVTED_clean_linker_0, # of connection points: 2
#     Edge 35, Type (0, 1), BuildingBlock: XIVTED_clean_linker_0, # of connection points: 2
#     Edge 36, Type (0, 1), BuildingBlock: XIVTED_clean_linker_0, # of connection points: 2
#     Edge 37, Type (0, 1), BuildingBlock: XIVTED_clean_linker_0, # of connection points: 2
#     Edge 38, Type (0, 1), BuildingBlock: XIVTED_clean_linker_0, # of connection points: 2
#     Edge 39, Type (0, 1), BuildingBlock: XIVTED_clean_linker_0, # of connection points: 2
#     Edge 40, Type (0, 1), BuildingBlock: XIVTED_clean_linker_0, # of connection points: 2
#     Edge 41, Type (0, 1), BuildingBlock: XIVTED_clean_linker_0, # of connection points: 2
#     Edge 42, Type (0, 1), BuildingBlock: XIVTED_clean_linker_0, # of connection points: 2
#     Edge 43, Type (0, 1), BuildingBlock: XIVTED_clean_linker_0, # of connection points: 2
#     Edge 44, Type (0, 1), BuildingBlock: XIVTED_clean_linker_0, # of connection points: 2
#     Edge 45, Type (0, 1), BuildingBlock: XIVTED_clean_linker_0, # of connection points: 2
#     Edge 46, Type (0, 1), BuildingBlock: XIVTED_clean_linker_0, # of connection points: 2
#     Edge 47, Type (0, 1), BuildingBlock: XIVTED_clean_linker_0, # of connection points: 2
# Relax obj value: 0.231
# Max RMSD: 0.219
# Mean RMSD: 0.172
data_MOF--net-wbl--node1-MUDLON_clean_sbu_0--node2-CEKHIL_clean_sbu_0--edge1-XIVTED_clean_linker_0
_symmetry_space_group_name_H-M    P1
_symmetry_Int_Tables_number       1
_symmetry_cell_setting            triclinic
loop_
_symmetry_equiv_pos_as_xyz
'x, y, z'
_cell_length_a     34.54967
_cell_length_b     34.769535
_cell_length_c     75.658529
_cell_angle_alpha  90.259324
_cell_angle_beta   90.102365
_cell_angle_gamma 89.900811
loop_
_atom_site_label
_atom_site_type_symbol
_atom_site_fract_x
_atom_site_fract_y
_atom_site_fract_z
_atom_type_partial_charge
Mg0 Mg 0.01123 0.04294 0.33555 0.0
C1 C 0.03626 0.96351 0.34529 0.0
O2 O 0.06669 0.97347 0.33601 0.0
C3 C 0.92871 0.05149 0.32435 0.0
O4 O 0.92674 0.02106 0.33453 0.0
C5 C 0.07301 0.05146 0.3064 0.0
O6 O 0.04338 0.05601 0.2957 0.0
O7 O 0.06726 0.04795 0.32288 0.0
O8 O 0.00554 0.98342 0.34378 0.0
O9 O 0.01173 0.07192 0.3611 0.0
C10 C 0.98974 0.05643 0.3725 0.0
O11 O 0.96798 0.0273 0.36769 0.0
O12 O 0.96173 0.06592 0.32116 0.0
Mg13 Mg 0.12983 0.52117 0.58973 0.0
C14 C 0.20952 0.54167 0.6007 0.0
O15 O 0.2003 0.57341 0.59232 0.0
C16 C 0.11415 0.44063 0.57653 0.0
O17 O 0.14581 0.43405 0.58568 0.0
C18 C 0.10793 0.58547 0.56348 0.0
O19 O 0.08672 0.55899 0.55572 0.0
O20 O 0.1267 0.57718 0.57739 0.0
O21 O 0.18959 0.51167 0.59761 0.0
O22 O 0.10206 0.52181 0.61544 0.0
C23 C 0.11625 0.49695 0.62591 0.0
O24 O 0.14285 0.47319 0.62001 0.0
O25 O 0.10222 0.47503 0.57493 0.0
Mg26 Mg 0.64733 0.60207 0.83971 0.0
C27 C 0.61708 0.67448 0.85462 0.0
O28 O 0.58518 0.65711 0.84957 0.0
C29 C 0.73081 0.59495 0.82692 0.0
O30 O 0.73488 0.62729 0.83578 0.0
C31 C 0.58144 0.61453 0.81413 0.0
O32 O 0.60397 0.6432 0.80955 0.0
O33 O 0.59292 0.59149 0.82607 0.0
O34 O 0.64926 0.66129 0.84912 0.0
O35 O 0.64962 0.57315 0.86506 0.0
C36 C 0.67462 0.58851 0.87523 0.0
O37 O 0.69639 0.61627 0.86908 0.0
O38 O 0.69731 0.58024 0.82539 0.0
Mg39 Mg 0.55804 0.14821 0.08989 0.0
C40 C 0.57903 0.1142 0.12468 0.0
O41 O 0.54973 0.0921 0.12028 0.0
C42 C 0.58149 0.08259 0.06526 0.0
O43 O 0.61564 0.09888 0.06667 0.0
C44 C 0.61918 0.20234 0.07788 0.0
O45 O 0.64017 0.17513 0.08516 0.0
O46 O 0.58261 0.19833 0.07722 0.0
O47 O 0.59243 0.13734 0.11327 0.0
O48 O 0.50348 0.15992 0.10277 0.0
C49 C 0.47898 0.13281 0.10372 0.0
O50 O 0.48124 0.10449 0.09222 0.0
O51 O 0.55281 0.09758 0.07319 0.0
Mg52 Mg 0.16685 0.52787 0.9402 0.0
C53 C 0.13753 0.54844 0.90396 0.0
O54 O 0.11864 0.51611 0.90622 0.0
C55 C 0.10073 0.55648 0.96309 0.0
O56 O 0.11776 0.58965 0.96029 0.0
C57 C 0.22084 0.58919 0.95215 0.0
O58 O 0.19426 0.60913 0.94377 0.0
O59 O 0.21681 0.55291 0.95337 0.0
O60 O 0.15731 0.56211 0.9167 0.0
O61 O 0.17732 0.47178 0.92857 0.0
C62 C 0.14907 0.44847 0.92757 0.0
O63 O 0.11916 0.45418 0.93796 0.0
O64 O 0.11546 0.52612 0.95657 0.0
Mg65 Mg 0.64062 0.65268 0.19442 0.0
C66 C 0.59224 0.68252 0.16482 0.0
O67 O 0.59725 0.71402 0.17417 0.0
C68 C 0.61846 0.57118 0.20377 0.0
O69 O 0.59642 0.57567 0.18976 0.0
C70 C 0.58916 0.70592 0.21508 0.0
O71 O 0.56589 0.67645 0.21281 0.0
O72 O 0.62386 0.70336 0.20957 0.0
O73 O 0.60488 0.65077 0.1708 0.0
O74 O 0.69665 0.657 0.18185 0.0
C75 C 0.71546 0.62597 0.17937 0.0
O76 O 0.7055 0.59535 0.18837 0.0
O77 O 0.63859 0.59936 0.20928 0.0
Mg78 Mg 0.50886 0.12788 0.44309 0.0
C79 C 0.53977 0.19855 0.42607 0.0
O80 O 0.57123 0.18586 0.43388 0.0
C81 C 0.45128 0.07933 0.46196 0.0
O82 O 0.47933 0.05448 0.45917 0.0
C83 C 0.57407 0.14533 0.46936 0.0
O84 O 0.55211 0.17507 0.47323 0.0
O85 O 0.56223 0.12086 0.45802 0.0
O86 O 0.50757 0.18286 0.42973 0.0
O87 O 0.50944 0.09113 0.41988 0.0
C88 C 0.4771 0.08655 0.41212 0.0
O89 O 0.44565 0.10015 0.41963 0.0
O90 O 0.45635 0.11419 0.4575 0.0
Mg91 Mg 0.0452 0.01316 0.68678 0.0
C92 C 0.06437 0.0353 0.64957 0.0
O93 O 0.03895 0.06215 0.65345 0.0
C94 C 0.03543 0.07675 0.71432 0.0
O95 O 0.00998 0.05252 0.72074 0.0
C96 C 0.10168 0.95755 0.70151 0.0
O97 O 0.12434 0.98396 0.69474 0.0
O98 O 0.06521 0.96259 0.70088 0.0
O99 O 0.0755 0.01253 0.66168 0.0
O100 O 0.98605 0.00967 0.6772 0.0
C101 C 0.96708 0.04075 0.67523 0.0
O102 O 0.97868 0.07154 0.68382 0.0
O103 O 0.05499 0.06708 0.70077 0.0
Co104 Co 0.51667 0.74197 0.00916 0.0
O105 O 0.49046 0.69507 0.0033 0.0
O106 O 0.46849 0.75322 0.99693 0.0
C107 C 0.52999 0.72646 0.03737 0.0
O108 O 0.53558 0.79669 0.01403 0.0
Co109 Co 0.60372 0.73831 0.01822 0.0
O110 O 0.59621 0.79292 0.02487 0.0
C111 C 0.58014 0.73364 0.98104 0.0
C112 C 0.46336 0.71611 0.99647 0.0
C113 C 0.56605 0.81219 0.02086 0.0
O114 O 0.54508 0.74019 0.9859 0.0
O115 O 0.60791 0.72898 0.99205 0.0
O116 O 0.49643 0.74031 0.03301 0.0
O117 O 0.55298 0.71849 0.02433 0.0
Co118 Co 0.40494 0.01454 0.25134 0.0
O119 O 0.36159 0.04754 0.2562 0.0
O120 O 0.36297 0.98493 0.26145 0.0
C121 C 0.41587 0.03789 0.22407 0.0
O122 O 0.44386 0.97103 0.24715 0.0
Co123 Co 0.48616 0.04893 0.24547 0.0
O124 O 0.49984 0.99626 0.2376 0.0
C125 C 0.45624 0.04259 0.28173 0.0
C126 C 0.34378 0.01719 0.26181 0.0
C127 C 0.47842 0.96741 0.24094 0.0
O128 O 0.4265 0.02461 0.27568 0.0
O129 O 0.48238 0.05686 0.27174 0.0
O130 O 0.38978 0.01165 0.22661 0.0
O131 O 0.43234 0.05128 0.23818 0.0
Co132 Co 0.13541 0.9051 0.49615 0.0
O133 O 0.10123 0.86406 0.50262 0.0
O134 O 0.16346 0.86674 0.50958 0.0
C135 C 0.11582 0.90769 0.46775 0.0
O136 O 0.18001 0.94188 0.49108 0.0
Co137 Co 0.1027 0.98333 0.48413 0.0
O138 O 0.15714 0.99525 0.47806 0.0
C139 C 0.10311 0.96467 0.52204 0.0
C140 C 0.13087 0.84803 0.51012 0.0
C141 C 0.18518 0.97454 0.48347 0.0
O142 O 0.12226 0.93379 0.51858 0.0
O143 O 0.09002 0.98699 0.51 0.0
O144 O 0.14164 0.88277 0.47269 0.0
O145 O 0.10057 0.92818 0.48025 0.0
Co146 Co 0.23588 0.65329 0.75668 0.0
O147 O 0.19022 0.67878 0.74802 0.0
O148 O 0.2497 0.70181 0.74594 0.0
C149 C 0.21121 0.63825 0.78332 0.0
O150 O 0.28962 0.63628 0.76483 0.0
Co151 Co 0.2347 0.56663 0.76582 0.0
O152 O 0.28545 0.57759 0.77698 0.0
C153 C 0.23882 0.59017 0.72847 0.0
C154 C 0.21281 0.70655 0.74318 0.0
C155 C 0.30446 0.60797 0.77346 0.0
O156 O 0.24235 0.6255 0.73339 0.0
O157 O 0.23274 0.56268 0.73933 0.0
O158 O 0.22537 0.67221 0.78043 0.0
O159 O 0.20932 0.6157 0.7697 0.0
Co160 Co 0.9257 0.16508 0.52313 0.0
O161 O 0.97416 0.18411 0.53188 0.0
O162 O 0.91823 0.2147 0.53457 0.0
C163 C 0.94796 0.14852 0.49618 0.0
O164 O 0.8702 0.15421 0.51497 0.0
Co165 Co 0.91882 0.07856 0.51307 0.0
O166 O 0.86985 0.09579 0.50202 0.0
C167 C 0.91809 0.10149 0.55062 0.0
C168 C 0.95549 0.21431 0.53724 0.0
C169 C 0.85332 0.12753 0.50589 0.0
O170 O 0.91676 0.13714 0.54609 0.0
O171 O 0.9219 0.07395 0.53946 0.0
O172 O 0.938 0.18381 0.49955 0.0
O173 O 0.9476 0.1255 0.50954 0.0
Co174 Co 0.01763 0.42018 0.77604 0.0
O175 O 0.99791 0.46709 0.78605 0.0
O176 O 0.96849 0.41072 0.78762 0.0
C177 C 0.0323 0.44547 0.74955 0.0
O178 O 0.02888 0.36608 0.76649 0.0
Co179 Co 0.10391 0.41496 0.76468 0.0
O180 O 0.08617 0.36778 0.75241 0.0
C181 C 0.08361 0.41037 0.80251 0.0
C182 C 0.96801 0.44748 0.79101 0.0
C183 C 0.05485 0.35065 0.75645 0.0
O184 O 0.04736 0.40937 0.7985 0.0
O185 O 0.11035 0.41526 0.79103 0.0
O186 O 0.99719 0.43462 0.75297 0.0
O187 O 0.05632 0.44387 0.76263 0.0
Co188 Co 0.76183 0.50411 0.02649 0.0
O189 O 0.71604 0.47948 0.03516 0.0
O190 O 0.77538 0.4561 0.03788 0.0
C191 C 0.73763 0.51752 -0.00042 0.0
O192 O 0.81561 0.52088 0.01841 0.0
Co193 Co 0.7592 0.59061 0.01645 0.0
O194 O 0.81135 0.58024 0.00679 0.0
C195 C 0.76307 0.56869 0.054 0.0
C196 C 0.73838 0.45179 0.04041 0.0
C197 C 0.8305 0.54986 0.01032 0.0
O198 O 0.76768 0.53322 0.04949 0.0
O199 O 0.75639 0.59548 0.04284 0.0
O200 O 0.7517 0.4837 0.00293 0.0
O201 O 0.73545 0.5408 0.01291 0.0
Co202 Co 0.63814 0.25709 0.27628 0.0
O203 O 0.6067 0.29712 0.26638 0.0
O204 O 0.67029 0.29286 0.26324 0.0
C205 C 0.61169 0.25949 0.30347 0.0
O206 O 0.67996 0.22009 0.28511 0.0
Co207 Co 0.59895 0.18207 0.28912 0.0
O208 O 0.65077 0.17134 0.29926 0.0
C209 C 0.61018 0.19426 0.25097 0.0
C210 C 0.63831 0.31146 0.26002 0.0
C211 C 0.68118 0.18932 0.29457 0.0
O212 O 0.62996 0.22474 0.2544 0.0
O213 O 0.59286 0.17478 0.2629 0.0
O214 O 0.63889 0.28334 0.29911 0.0
O215 O 0.5991 0.23758 0.29089 0.0
H216 H 0.10123 0.07435 0.27426 0.0
H217 H 0.30514 0.96917 0.28445 0.0
H218 H 0.13468 0.01667 0.32234 0.0
H219 H 0.29054 0.07138 0.25299 0.0
H220 H 0.23827 0.97672 0.29509 0.0
H221 H 0.16697 0.06434 0.2628 0.0
C222 C 0.12236 0.05962 0.28239 0.0
C223 C 0.1126 0.04661 0.29932 0.0
C224 C 0.24983 0.99737 0.28582 0.0
C225 C 0.18724 0.03439 0.28619 0.0
C226 C 0.28779 0.99298 0.27971 0.0
C227 C 0.30333 0.01983 0.26793 0.0
C228 C 0.2272 0.02827 0.27977 0.0
C229 C 0.27972 0.05024 0.2622 0.0
C230 C 0.15977 0.05396 0.27587 0.0
C231 C 0.14108 0.02753 0.30928 0.0
N232 N 0.24276 0.05353 0.2681 0.0
N233 N 0.17704 0.02176 0.30253 0.0
H234 H 0.15867 0.64222 0.573 0.0
H235 H 0.0704 0.7983 0.50737 0.0
H236 H 0.06544 0.61755 0.53662 0.0
H237 H 0.18326 0.81034 0.5313 0.0
H238 H 0.06476 0.73446 0.52032 0.0
H239 H 0.16472 0.70625 0.56016 0.0
C240 C 0.13937 0.65028 0.56234 0.0
C241 C 0.11141 0.62445 0.55588 0.0
C242 C 0.09078 0.75102 0.52274 0.0
C243 C 0.11823 0.69782 0.54119 0.0
C244 C 0.09399 0.78756 0.51542 0.0
C245 C 0.12738 0.80968 0.51828 0.0
C246 C 0.12098 0.73655 0.53319 0.0
C247 C 0.15706 0.7942 0.52874 0.0
C248 C 0.143 0.6868 0.55498 0.0
C249 C 0.08738 0.63648 0.542 0.0
N250 N 0.1531 0.75858 0.5359 0.0
N251 N 0.09123 0.67237 0.53516 0.0
H252 H 0.52717 0.55917 0.82082 0.0
H253 H 0.35829 0.6643 0.76653 0.0
H254 H 0.54455 0.66393 0.79148 0.0
H255 H 0.34468 0.55571 0.79331 0.0
H256 H 0.42634 0.66532 0.77562 0.0
H257 H 0.46014 0.55761 0.81064 0.0
C258 C 0.51698 0.58174 0.81214 0.0
C259 C 0.54156 0.61175 0.80703 0.0
C260 C 0.4084 0.64128 0.77948 0.0
C261 C 0.46456 0.61032 0.7954 0.0
C262 C 0.36949 0.64072 0.77433 0.0
C263 C 0.34557 0.60986 0.77913 0.0
C264 C 0.4235 0.61083 0.78953 0.0
C265 C 0.36186 0.5801 0.78924 0.0
C266 C 0.47862 0.58088 0.80635 0.0
C267 C 0.52666 0.64021 0.79576 0.0
N268 N 0.39969 0.58137 0.79409 0.0
N269 N 0.48909 0.63889 0.79039 0.0
H270 H 0.51515 0.04049 0.06023 0.0
H271 H 0.62962 0.8578 0.02379 0.0
H272 H 0.63755 0.03984 0.04882 0.0
H273 H 0.50486 0.86208 0.02597 0.0
H274 H 0.63211 0.92541 0.032 0.0
H275 H 0.5097 0.97652 0.04684 0.0
C276 C 0.54084 0.02707 0.05478 0.0
C277 C 0.57699 0.04545 0.05581 0.0
C278 C 0.60411 0.91178 0.03058 0.0
C279 C 0.57089 0.97217 0.04055 0.0
C280 C 0.60265 0.87305 0.02594 0.0
C281 C 0.56696 0.85411 0.02436 0.0
C282 C 0.56965 0.93191 0.03393 0.0
C283 C 0.53299 0.87555 0.02707 0.0
C284 C 0.53765 0.99055 0.04712 0.0
C285 C 0.60917 0.02672 0.04846 0.0
N286 N 0.53517 0.91327 0.03194 0.0
N287 N 0.6054 0.99103 0.04129 0.0
H288 H 0.23681 0.66626 0.9522 0.0
H289 H 0.44771 0.63963 0.99417 0.0
H290 H 0.28467 0.55674 0.96779 0.0
H291 H 0.39844 0.75083 0.98247 0.0
H292 H 0.38872 0.60911 0.98363 0.0
H293 H 0.29575 0.69789 0.96259 0.0
C294 C 0.25965 0.64883 0.95786 0.0
C295 C 0.25577 0.60871 0.95911 0.0
C296 C 0.39069 0.64018 0.98333 0.0
C297 C 0.32346 0.64485 0.97095 0.0
C298 C 0.42448 0.65771 0.98932 0.0
C299 C 0.42803 0.69792 0.98923 0.0
C300 C 0.35999 0.66293 0.97715 0.0
C301 C 0.39693 0.71975 0.98277 0.0
C302 C 0.29332 0.66696 0.96378 0.0
C303 C 0.28634 0.5877 0.96657 0.0
N304 N 0.36413 0.70195 0.97699 0.0
N305 N 0.3189 0.60601 0.97216 0.0
H306 H 0.51602 0.7218 0.22715 0.0
H307 H 0.55182 0.94886 0.23033 0.0
H308 H 0.62638 0.7754 0.21711 0.0
H309 H 0.44313 0.89679 0.24496 0.0
H310 H 0.57925 0.8852 0.22578 0.0
H311 H 0.48894 0.78492 0.23449 0.0
C312 C 0.53469 0.74676 0.22664 0.0
C313 C 0.57355 0.74325 0.22142 0.0
C314 C 0.54942 0.88758 0.23003 0.0
C315 C 0.54254 0.81569 0.22965 0.0
C316 C 0.53359 0.92406 0.23259 0.0
C317 C 0.49493 0.9284 0.23802 0.0
C318 C 0.52655 0.85486 0.23281 0.0
C319 C 0.47301 0.89495 0.24075 0.0
C320 C 0.51914 0.78282 0.2308 0.0
C321 C 0.59629 0.77664 0.22103 0.0
N322 N 0.48909 0.8596 0.23807 0.0
N323 N 0.58038 0.81142 0.22497 0.0
H324 H 0.38337 0.12014 0.46373 0.0
H325 H 0.25435 0.9378 0.49015 0.0
H326 H 0.43113 0.00721 0.47303 0.0
H327 H 0.20724 0.04597 0.4722 0.0
H328 H 0.31962 0.9641 0.4868 0.0
H329 H 0.31891 0.09505 0.47015 0.0
C330 C 0.38039 0.09017 0.46731 0.0
C331 C 0.41273 0.06571 0.46774 0.0
C332 C 0.29494 0.98203 0.48361 0.0
C333 C 0.33888 0.03668 0.47498 0.0
C334 C 0.25765 0.96703 0.48551 0.0
C335 C 0.22511 0.98958 0.48138 0.0
C336 C 0.29979 0.01995 0.47765 0.0
C337 C 0.23132 0.02734 0.47546 0.0
C338 C 0.34352 0.07579 0.47088 0.0
C339 C 0.40702 0.02708 0.47245 0.0
N340 N 0.26782 0.04128 0.47379 0.0
N341 N 0.37082 0.01373 0.47581 0.0
H342 H 0.17825 0.93914 0.70531 0.0
H343 H 0.13688 0.72378 0.73706 0.0
H344 H 0.06361 0.89307 0.71304 0.0
H345 H 0.25161 0.77191 0.73327 0.0
H346 H 0.10981 0.78489 0.72723 0.0
H347 H 0.20575 0.87795 0.71492 0.0
C348 C 0.15881 0.91623 0.70911 0.0
C349 C 0.1185 0.9213 0.70835 0.0
C350 C 0.14091 0.78213 0.72849 0.0
C351 C 0.14992 0.85092 0.71926 0.0
C352 C 0.15645 0.74715 0.73405 0.0
C353 C 0.19662 0.74271 0.73601 0.0
C354 C 0.16567 0.81304 0.72483 0.0
C355 C 0.22049 0.77405 0.73193 0.0
C356 C 0.17458 0.88124 0.71457 0.0
C357 C 0.09483 0.89052 0.71344 0.0
N358 N 0.20464 0.80792 0.72656 0.0
N359 N 0.11089 0.85664 0.71862 0.0
H360 H 0.73368 0.52262 0.8123 0.0
H361 H 0.96439 0.52061 0.80387 0.0
H362 H 0.8068 0.61724 0.82822 0.0
H363 H 0.89379 0.42023 0.79469 0.0
H364 H 0.90676 0.55639 0.81262 0.0
H365 H 0.79145 0.48528 0.80482 0.0
C366 C 0.76185 0.5357 0.8141 0.0
C367 C 0.76534 0.57321 0.8209 0.0
C368 C 0.90379 0.52647 0.80883 0.0
C369 C 0.83165 0.53038 0.8125 0.0
C370 C 0.93675 0.50595 0.80387 0.0
C371 C 0.93388 0.46737 0.79851 0.0
C372 C 0.86747 0.50847 0.80828 0.0
C373 C 0.89732 0.44988 0.7988 0.0
C374 C 0.79484 0.51422 0.80993 0.0
C375 C 0.80264 0.58849 0.82301 0.0
N376 N 0.86545 0.47067 0.80346 0.0
N377 N 0.83428 0.56703 0.81884 0.0
H378 H 0.69657 0.21891 0.07647 0.0
H379 H 0.66231 0.43667 0.04652 0.0
H380 H 0.58408 0.26811 0.06598 0.0
H381 H 0.77582 0.38521 0.05016 0.0
H382 H 0.63368 0.376 0.05559 0.0
H383 H 0.72648 0.27992 0.06823 0.0
C384 C 0.67814 0.24247 0.07236 0.0
C385 C 0.63771 0.23836 0.07192 0.0
C386 C 0.66486 0.3779 0.05447 0.0
C387 C 0.67181 0.30839 0.06264 0.0
C388 C 0.6813 0.41265 0.04936 0.0
C389 C 0.72157 0.41601 0.04754 0.0
C390 C 0.68878 0.3461 0.05782 0.0
C391 C 0.74465 0.38388 0.05142 0.0
C392 C 0.69527 0.27732 0.06769 0.0
C393 C 0.61533 0.2699 0.0665 0.0
N394 N 0.7279 0.35017 0.05633 0.0
N395 N 0.63268 0.30358 0.06213 0.0
H396 H 0.85437 0.02999 0.3311 0.0
H397 H 0.75461 0.21095 0.28402 0.0
H398 H 0.92072 0.11814 0.30501 0.0
H399 H 0.69442 0.12774 0.31603 0.0
H400 H 0.81574 0.1777 0.29059 0.0
H401 H 0.7953 0.06481 0.32408 0.0
C402 C 0.85655 0.05658 0.32376 0.0
C403 C 0.89267 0.07113 0.31867 0.0
C404 C 0.78909 0.16693 0.2962 0.0
C405 C 0.82469 0.1116 0.31065 0.0
C406 C 0.7542 0.18596 0.29251 0.0
C407 C 0.71913 0.17209 0.29939 0.0
C408 C 0.78884 0.13378 0.30677 0.0
C409 C 0.7205 0.13949 0.31029 0.0
C410 C 0.8227 0.07662 0.31982 0.0
C411 C 0.8935 0.10583 0.3092 0.0
N412 N 0.7546 0.12148 0.31355 0.0
N413 N 0.86 0.12496 0.30551 0.0
H414 H 0.04146 0.4428 0.5617 0.0
H415 H 0.02915 0.21445 0.5498 0.0
H416 H 0.13227 0.36408 0.57688 0.0
H417 H 0.93106 0.28926 0.54155 0.0
H418 H 0.0673 0.26958 0.55929 0.0
H419 H 0.00113 0.38786 0.55317 0.0
C420 C 0.05306 0.41401 0.56312 0.0
C421 C 0.09039 0.40807 0.57001 0.0
C422 C 0.03739 0.27406 0.55553 0.0
C423 C 0.04422 0.34513 0.5604 0.0
C424 C 0.01551 0.24253 0.55012 0.0
C425 C 0.97686 0.24729 0.54484 0.0
C426 C 0.02073 0.31091 0.55552 0.0
C427 C 0.96073 0.28433 0.54558 0.0
C428 C 0.02989 0.38267 0.55835 0.0
C429 C 0.10374 0.37011 0.57164 0.0
N430 N 0.98286 0.31485 0.55069 0.0
N431 N 0.08071 0.34018 0.56687 0.0
H432 H 0.61227 0.19602 0.49131 0.0
H433 H 0.81259 0.08148 0.48335 0.0
H434 H 0.62772 0.08931 0.46277 0.0
H435 H 0.80049 0.18395 0.51537 0.0
H436 H 0.74487 0.08598 0.47531 0.0
H437 H 0.68045 0.19336 0.50035 0.0
C438 C 0.62985 0.17189 0.48706 0.0
C439 C 0.61419 0.14285 0.47622 0.0
C440 C 0.75684 0.10757 0.4841 0.0
C441 C 0.69221 0.13989 0.48638 0.0
C442 C 0.79573 0.10508 0.48871 0.0
C443 C 0.81244 0.13227 0.50018 0.0
C444 C 0.73401 0.1375 0.49095 0.0
C445 C 0.7889 0.16233 0.5065 0.0
C446 C 0.66879 0.1705 0.49218 0.0
C447 C 0.63841 0.11238 0.47109 0.0
N448 N 0.75078 0.16408 0.50184 0.0
N449 N 0.6761 0.11182 0.47615 0.0
H450 H 0.99263 0.11016 0.74089 0.0
H451 H 0.09656 0.31441 0.73073 0.0
H452 H 0.08427 0.13404 0.70383 0.0
H453 H 0.00185 0.29572 0.76685 0.0
H454 H 0.09164 0.24807 0.72095 0.0
H455 H 0.99551 0.17711 0.75108 0.0
C456 C 0.01351 0.12937 0.73497 0.0
C457 C 0.03827 0.1164 0.72147 0.0
C458 C 0.07181 0.25833 0.73099 0.0
C459 C 0.04148 0.19306 0.733 0.0
C460 C 0.07459 0.29638 0.73662 0.0
C461 C 0.04971 0.31079 0.74975 0.0
C462 C 0.04402 0.23407 0.73853 0.0
C463 C 0.02163 0.28591 0.7567 0.0
C464 C 0.015 0.16762 0.74075 0.0
C465 C 0.06461 0.14265 0.71425 0.0
N466 N 0.01966 0.24866 0.75107 0.0
N467 N 0.06546 0.17962 0.72009 0.0
H468 H 0.05914 0.61632 0.97698 0.0
H469 H 0.87937 0.48728 0.00738 0.0
H470 H 0.05679 0.49287 0.97058 0.0
H471 H 0.87605 0.61077 0.00166 0.0
H472 H 0.9473 0.48782 0.9978 0.0
H473 H 0.99503 0.61372 0.99033 0.0
C474 C 0.04526 0.58861 0.97847 0.0
C475 C 0.06324 0.55482 0.97248 0.0
C476 C 0.9316 0.51473 0.99872 0.0
C477 C 0.98962 0.55163 0.98773 0.0
C478 C 0.8929 0.51445 0.00421 0.0
C479 C 0.87184 0.54898 0.00518 0.0
C480 C 0.94933 0.54981 0.9944 0.0
C481 C 0.89089 0.58336 0.00092 0.0
C482 C 0.00857 0.58715 0.98606 0.0
C483 C 0.04388 0.51969 0.97489 0.0
N484 N 0.92842 0.58287 0.99574 0.0
N485 N 0.008 0.51902 0.98226 0.0
H486 H 0.67436 0.54635 0.22687 0.0
H487 H 0.57648 0.34276 0.2432 0.0
H488 H 0.57154 0.50864 0.19938 0.0
H489 H 0.69704 0.36345 0.25466 0.0
H490 H 0.57242 0.40552 0.22905 0.0
H491 H 0.68121 0.48188 0.23949 0.0
C492 C 0.6531 0.5246 0.22357 0.0
C493 C 0.6222 0.53293 0.21211 0.0
C494 C 0.59986 0.39629 0.23453 0.0
C495 C 0.62997 0.45926 0.22647 0.0
C496 C 0.60221 0.36049 0.24264 0.0
C497 C 0.63716 0.34795 0.25013 0.0
C498 C 0.63252 0.42018 0.23416 0.0
C499 C 0.6696 0.37202 0.24897 0.0
C500 C 0.65723 0.48777 0.23067 0.0
C501 C 0.59575 0.50354 0.20817 0.0
N502 N 0.66641 0.40726 0.24129 0.0
N503 N 0.60012 0.46811 0.21541 0.0
H504 H 0.98561 0.95304 0.37282 0.0
H505 H 0.14975 0.87632 0.43843 0.0
H506 H 0.1011 0.9239 0.35555 0.0
H507 H 0.05144 0.94406 0.45503 0.0
H508 H 0.12666 0.88002 0.40783 0.0
H509 H 0.00309 0.93382 0.40278 0.0
C510 C 0.0144 0.94186 0.3752 0.0
C511 C 0.0423 0.9412 0.36171 0.0
C512 C 0.1101 0.89389 0.4182 0.0
C513 C 0.06233 0.919 0.39599 0.0
C514 C 0.12328 0.8919 0.43563 0.0
C515 C 0.10262 0.91021 0.44923 0.0
C516 C 0.07575 0.91386 0.41442 0.0
C517 C 0.06844 0.92986 0.44491 0.0
C518 C 0.02439 0.93111 0.39235 0.0
C519 C 0.07886 0.92558 0.36559 0.0
N520 N 0.05604 0.93114 0.42787 0.0
N521 N 0.08801 0.91558 0.38243 0.0
H522 H 0.24426 0.60533 0.61503 0.0
H523 H 0.23073 0.51969 0.71234 0.0
H524 H 0.21966 0.48617 0.62613 0.0
H525 H 0.25514 0.63886 0.70098 0.0
H526 H 0.23474 0.50511 0.68083 0.0
H527 H 0.25918 0.61557 0.64619 0.0
C528 C 0.24278 0.58106 0.62392 0.0
C529 C 0.22957 0.54506 0.61798 0.0
C530 C 0.23957 0.53439 0.68524 0.0
C531 C 0.24596 0.55684 0.65382 0.0
C532 C 0.23712 0.54282 0.70326 0.0
C533 C 0.24224 0.5807 0.70939 0.0
C534 C 0.24719 0.56399 0.67318 0.0
C535 C 0.25065 0.60931 0.69692 0.0
C536 C 0.25104 0.58704 0.64179 0.0
C537 C 0.22882 0.51464 0.63014 0.0
N538 N 0.25262 0.6004 0.67943 0.0
N539 N 0.2361 0.5214 0.64754 0.0
H540 H 0.55472 0.71183 0.86854 0.0
H541 H 0.64969 0.71892 0.96455 0.0
H542 H 0.67581 0.68974 0.87825 0.0
H543 H 0.52986 0.74538 0.95353 0.0
H544 H 0.66192 0.71521 0.93275 0.0
H545 H 0.54779 0.73387 0.899 0.0
C546 C 0.58009 0.71243 0.87697 0.0
C547 C 0.61571 0.69818 0.87091 0.0
C548 C 0.63304 0.72215 0.93732 0.0
C549 C 0.60778 0.72244 0.90602 0.0
C550 C 0.62597 0.7241 0.95549 0.0
C551 C 0.58856 0.73208 0.96181 0.0
C552 C 0.60252 0.72819 0.92534 0.0
C553 C 0.55909 0.73878 0.94937 0.0
C554 C 0.57606 0.72477 0.89443 0.0
C555 C 0.64767 0.7 0.8824 0.0
N556 N 0.56667 0.73645 0.93179 0.0
N557 N 0.64278 0.7111 0.89952 0.0
H558 H 0.42579 0.07729 0.11164 0.0
H559 H 0.46492 0.0965 0.21521 0.0
H560 H 0.49023 0.17077 0.13516 0.0
H561 H 0.38338 0.01604 0.1927 0.0
H562 H 0.47454 0.12417 0.18587 0.0
H563 H 0.40753 0.05598 0.14119 0.0
C564 C 0.43539 0.09385 0.12298 0.0
C565 C 0.45982 0.12569 0.12088 0.0
C566 C 0.45438 0.1006 0.18737 0.0
C567 C 0.43988 0.10088 0.15477 0.0
C568 C 0.44909 0.08463 0.20409 0.0
C569 C 0.42336 0.0539 0.20637 0.0
C570 C 0.43388 0.08563 0.17283 0.0
C571 C 0.40356 0.03968 0.19152 0.0
C572 C 0.42519 0.0815 0.13987 0.0
C573 C 0.47138 0.14604 0.13609 0.0
N574 N 0.40929 0.05559 0.17537 0.0
N575 N 0.46182 0.13292 0.15239 0.0
H576 H 0.11473 0.5165 0.87249 0.0
H577 H 0.21602 0.67912 0.8141 0.0
H578 H 0.17111 0.61661 0.89453 0.0
H579 H 0.17613 0.57084 0.7928 0.0
H580 H 0.19371 0.65962 0.84332 0.0
H581 H 0.12996 0.5395 0.84285 0.0
C582 C 0.12977 0.54364 0.87111 0.0
C583 C 0.14178 0.56464 0.88604 0.0
C584 C 0.18978 0.64012 0.83226 0.0
C585 C 0.15964 0.59086 0.85212 0.0
C586 C 0.20254 0.65122 0.81558 0.0
C587 C 0.19803 0.62648 0.80103 0.0
C588 C 0.17222 0.60406 0.83443 0.0
C589 C 0.18029 0.59072 0.80369 0.0
C590 C 0.1387 0.55659 0.85417 0.0
C591 C 0.16142 0.59943 0.88341 0.0
N592 N 0.16802 0.58056 0.82009 0.0
N593 N 0.16989 0.61135 0.86679 0.0
H594 H 0.54592 0.73807 0.1509 0.0
H595 H 0.58888 0.68191 0.05075 0.0
H596 H 0.60833 0.63482 0.13683 0.0
H597 H 0.49297 0.75399 0.0664 0.0
H598 H 0.60174 0.66831 0.0821 0.0
H599 H 0.53024 0.74782 0.11972 0.0
C600 C 0.55592 0.71721 0.14125 0.0
C601 C 0.5783 0.68554 0.14643 0.0
C602 C 0.57785 0.68701 0.0786 0.0
C603 C 0.56131 0.69699 0.11072 0.0
C604 C 0.57071 0.69499 0.06077 0.0
C605 C 0.53983 0.71907 0.05602 0.0
C606 C 0.55429 0.70377 0.09167 0.0
C607 C 0.51702 0.73516 0.06949 0.0
C608 C 0.54704 0.72281 0.12347 0.0
C609 C 0.59067 0.65943 0.13339 0.0
N610 N 0.52482 0.72738 0.08669 0.0
N611 N 0.5824 0.66598 0.11607 0.0
H612 H 0.41331 0.06303 0.39376 0.0
H613 H 0.51967 0.06765 0.30043 0.0
H614 H 0.53649 0.07943 0.3883 0.0
H615 H 0.40312 0.02565 0.30742 0.0
H616 H 0.52622 0.07321 0.3325 0.0
H617 H 0.40901 0.04906 0.36216 0.0
C618 C 0.43955 0.06321 0.38595 0.0
C619 C 0.47529 0.07252 0.39366 0.0
C620 C 0.4993 0.0626 0.327 0.0
C621 C 0.47048 0.05721 0.3574 0.0
C622 C 0.49542 0.05962 0.30867 0.0
C623 C 0.46071 0.04629 0.30116 0.0
C624 C 0.46814 0.05253 0.33793 0.0
C625 C 0.43042 0.03609 0.31257 0.0
C626 C 0.43706 0.05529 0.36789 0.0
C627 C 0.50836 0.07228 0.3829 0.0
N628 N 0.43477 0.03963 0.33036 0.0
N629 N 0.50509 0.06521 0.36527 0.0
H630 H 0.11267 0.97945 0.63638 0.0
H631 H 0.06218 0.02613 0.53532 0.0
H632 H 0.03829 0.0728 0.62012 0.0
H633 H 0.13119 0.92882 0.5517 0.0
H634 H 0.05521 0.04512 0.56624 0.0
H635 H 0.12294 0.96275 0.60533 0.0
C636 C 0.09885 0.99672 0.62629 0.0
C637 C 0.07458 0.02759 0.63089 0.0
C638 C 0.07189 0.01962 0.56307 0.0
C639 C 0.08586 0.00832 0.59529 0.0
C640 C 0.07583 0.00866 0.54539 0.0
C641 C 0.09732 0.97575 0.54082 0.0
C642 C 0.08964 0.99763 0.57635 0.0
C643 C 0.1143 0.95436 0.55453 0.0
C644 C 0.10457 0.98704 0.60855 0.0
C645 C 0.05733 0.04883 0.61723 0.0
N646 N 0.11014 0.9657 0.57164 0.0
N647 N 0.06316 0.03869 0.60007 0.0
H648 H 0.65823 0.51895 0.89066 0.0
H649 H 0.7208 0.58943 0.98731 0.0
H650 H 0.70026 0.63318 0.90217 0.0
H651 H 0.72527 0.47022 0.97128 0.0
H652 H 0.70084 0.60671 0.95731 0.0
H653 H 0.67022 0.50125 0.92167 0.0
C654 C 0.66962 0.5403 0.89974 0.0
C655 C 0.6787 0.57737 0.89389 0.0
C656 C 0.70612 0.57677 0.9604 0.0
C657 C 0.69197 0.55768 0.92909 0.0
C658 C 0.71744 0.56691 0.97749 0.0
C659 C 0.72496 0.52841 0.98169 0.0
C660 C 0.7018 0.54784 0.94753 0.0
C661 C 0.72007 0.50031 0.9685 0.0
C662 C 0.6766 0.5302 0.91734 0.0
C663 C 0.69338 0.60409 0.90612 0.0
N664 N 0.70872 0.51057 0.95198 0.0
N665 N 0.69951 0.59373 0.92314 0.0
H666 H 0.5456 0.08022 0.15344 0.0
H667 H 0.64832 0.22263 0.22205 0.0
H668 H 0.63493 0.16083 0.13896 0.0
H669 H 0.56764 0.13417 0.23749 0.0
H670 H 0.64496 0.19913 0.19166 0.0
H671 H 0.5554 0.09732 0.18444 0.0
C672 C 0.56783 0.10097 0.15679 0.0
C673 C 0.58942 0.1192 0.14354 0.0
C674 C 0.62809 0.18477 0.20171 0.0
C675 C 0.60034 0.13936 0.17905 0.0
C676 C 0.62986 0.19829 0.21908 0.0
C677 C 0.60812 0.18049 0.23241 0.0
C678 C 0.60426 0.15331 0.19753 0.0
C679 C 0.58488 0.1489 0.2277 0.0
C680 C 0.57324 0.1109 0.17451 0.0
C681 C 0.61755 0.1461 0.1487 0.0
N682 N 0.58346 0.13645 0.21066 0.0
N683 N 0.62195 0.15561 0.16603 0.0
H684 H 0.97004 0.01442 0.40117 0.0
H685 H 0.95959 0.19273 0.46694 0.0
H686 H 0.00694 0.12803 0.38593 0.0
H687 H 0.95899 0.07483 0.48453 0.0
H688 H 0.97445 0.17045 0.43696 0.0
H689 H 0.96368 0.03662 0.43162 0.0
C690 C 0.97686 0.04411 0.40427 0.0
C691 C 0.98867 0.0696 0.39102 0.0
C692 C 0.97132 0.14951 0.44742 0.0
C693 C 0.98117 0.09526 0.42585 0.0
C694 C 0.96265 0.16216 0.46449 0.0
C695 C 0.95785 0.13552 0.47818 0.0
C696 C 0.9747 0.10994 0.444 0.0
C697 C 0.96235 0.09631 0.47433 0.0
C698 C 0.9734 0.0567 0.42167 0.0
C699 C 0.99769 0.10755 0.39579 0.0
N700 N 0.97022 0.08467 0.45756 0.0
N701 N 0.99329 0.11943 0.41284 0.0
H702 H 0.15983 0.47207 0.65334 0.0
H703 H 0.98591 0.46088 0.72119 0.0
H704 H 0.04656 0.51687 0.64085 0.0
H705 H 0.1057 0.45699 0.73735 0.0
H706 H 0.00646 0.47856 0.69135 0.0
H707 H 0.1398 0.46381 0.68396 0.0
C708 C 0.13069 0.48025 0.65709 0.0
C709 C 0.10462 0.49484 0.64457 0.0
C710 C 0.02818 0.47412 0.70148 0.0
C711 C 0.08139 0.48507 0.67954 0.0
C712 C 0.01652 0.46384 0.71846 0.0
C713 C 0.0442 0.45726 0.73169 0.0
C714 C 0.06779 0.47725 0.69769 0.0
C715 C 0.08344 0.46169 0.72751 0.0
C716 C 0.11935 0.47569 0.67458 0.0
C717 C 0.06743 0.50548 0.65015 0.0
N718 N 0.09409 0.47108 0.71082 0.0
N719 N 0.05668 0.49988 0.66724 0.0
H720 H 0.60023 0.24406 0.4162 0.0
H721 H 0.5485 0.21994 0.31511 0.0
H722 H 0.48946 0.20211 0.39812 0.0
H723 H 0.64081 0.29377 0.33322 0.0
H724 H 0.52548 0.21467 0.34554 0.0
H725 H 0.61413 0.26614 0.38625 0.0
C726 C 0.57844 0.24035 0.40602 0.0
C727 C 0.54383 0.22087 0.40962 0.0
C728 C 0.55053 0.23236 0.34284 0.0
C729 C 0.55995 0.24507 0.37525 0.0
C730 C 0.56382 0.23515 0.32549 0.0
C731 C 0.59677 0.25707 0.32169 0.0
C732 C 0.57067 0.25116 0.35651 0.0
C733 C 0.61538 0.27641 0.33561 0.0
C734 C 0.58645 0.25281 0.38891 0.0
C735 C 0.51657 0.21691 0.39594 0.0
N736 N 0.60233 0.27267 0.35245 0.0
N737 N 0.52555 0.22817 0.37927 0.0
H738 H 0.95009 0.98695 0.64969 0.0
H739 H 0.90824 0.15043 0.57892 0.0
H740 H 0.93214 0.10641 0.66326 0.0
H741 H 0.92183 0.03009 0.56582 0.0
H742 H 0.90796 0.13365 0.61022 0.0
H743 H 0.92889 1.00054 0.61961 0.0
C744 C 0.94075 0.01585 0.6465 0.0
C745 C 0.94372 0.04576 0.65897 0.0
C746 C 0.91063 0.11089 0.60048 0.0
C747 C 0.92013 0.06166 0.62439 0.0
C748 C 0.91094 0.12046 0.58258 0.0
C749 C 0.91555 0.09171 0.56965 0.0
C750 C 0.91517 0.0723 0.60554 0.0
C751 C 0.91857 0.05334 0.57526 0.0
C752 C 0.92891 0.02367 0.62924 0.0
C753 C 0.93093 0.08256 0.65403 0.0
N754 N 0.91869 0.04483 0.59276 0.0
N755 N 0.92041 0.08962 0.63704 0.0
H756 H 0.08425 0.41009 0.91632 0.0
H757 H 0.15698 0.41133 0.81635 0.0
H758 H 0.20079 0.43819 0.90047 0.0
H759 H 0.03712 0.39959 0.83159 0.0
H760 H 0.17561 0.40844 0.84737 0.0
H761 H 0.0696 0.3916 0.88587 0.0
C762 C 0.10711 0.41144 0.90656 0.0
C763 C 0.14361 0.42654 0.91092 0.0
C764 C 0.14526 0.40617 0.84393 0.0
C765 C 0.12675 0.40593 0.87598 0.0
C766 C 0.13451 0.40792 0.82618 0.0
C767 C 0.09528 0.40621 0.82129 0.0
C768 C 0.11667 0.40272 0.85697 0.0
C769 C 0.06766 0.40141 0.8347 0.0
C770 C 0.09857 0.40118 0.88913 0.0
C771 C 0.17208 0.42728 0.8977 0.0
N772 N 0.07886 0.40014 0.85193 0.0
N773 N 0.16285 0.4178 0.88077 0.0
H774 H 0.75226 0.56109 0.16745 0.0
H775 H 0.75837 0.6406 0.06889 0.0
H776 H 0.72893 0.67911 0.15338 0.0
H777 H 0.7736 0.52097 0.08251 0.0
H778 H 0.75876 0.65708 0.10022 0.0
H779 H 0.77314 0.54852 0.13718 0.0
C780 C 0.75235 0.58463 0.15812 0.0
C781 C 0.73801 0.62103 0.16289 0.0
C782 C 0.76233 0.62726 0.09636 0.0
C783 C 0.76132 0.60661 0.12812 0.0
C784 C 0.76197 0.61774 0.07844 0.0
C785 C 0.7654 0.5792 0.07299 0.0
C786 C 0.76602 0.59807 0.10901 0.0
C787 C 0.77046 0.55101 0.08604 0.0
C788 C 0.76406 0.57733 0.14078 0.0
C789 C 0.73924 0.65046 0.15026 0.0
N790 N 0.77027 0.56098 0.10344 0.0
N791 N 0.74999 0.64243 0.13337 0.0
loop_
_geom_bond_atom_site_label_1
_geom_bond_atom_site_label_2
_geom_bond_distance
_geom_bond_site_symmetry_2
_ccdc_geom_bond_type
Mg0 O7 2.141 . S
Mg0 O8 2.048 1_545 S
Mg0 O9 2.048 1_455 S
Mg0 O12 2.141 1_455 S
C1 O2 1.313 . S
C1 O8 1.195 . S
O2 C1 1.313 . S
C3 O4 1.245 . S
C3 O12 1.289 . S
O4 C3 1.245 . S
C5 O6 1.245 . S
C5 O7 1.289 1_565 S
O6 C5 1.245 . S
O7 Mg0 2.141 . S
O7 C5 1.289 1_545 S
O8 Mg0 2.048 1_565 S
O8 C1 1.195 . S
O9 Mg0 2.048 1_655 S
O9 C10 1.195 . S
C10 O9 1.195 . S
C10 O11 1.313 1_545 S
O11 C10 1.313 1_565 S
O12 Mg0 2.141 1_655 S
O12 C3 1.289 . S
Mg13 O20 2.141 . S
Mg13 O21 2.048 . S
Mg13 O22 2.048 . S
Mg13 O25 2.141 . S
C14 O15 1.313 . S
C14 O21 1.195 . S
O15 C14 1.313 . S
C16 O17 1.245 . S
C16 O25 1.289 . S
O17 C16 1.245 . S
C18 O19 1.245 . S
C18 O20 1.289 . S
O19 C18 1.245 . S
O20 Mg13 2.141 . S
O20 C18 1.289 . S
O21 Mg13 2.048 . S
O21 C14 1.195 . S
O22 Mg13 2.048 . S
O22 C23 1.195 . S
C23 O22 1.195 . S
C23 O24 1.313 . S
O24 C23 1.313 . S
O25 Mg13 2.141 . S
O25 C16 1.289 . S
Mg26 O33 2.141 . S
Mg26 O34 2.048 . S
Mg26 O35 2.048 . S
Mg26 O38 2.141 . S
C27 O28 1.313 . S
C27 O34 1.195 . S
O28 C27 1.313 . S
C29 O30 1.245 . S
C29 O38 1.289 . S
O30 C29 1.245 . S
C31 O32 1.245 . S
C31 O33 1.289 . S
O32 C31 1.245 . S
O33 Mg26 2.141 . S
O33 C31 1.289 . S
O34 Mg26 2.048 . S
O34 C27 1.195 . S
O35 Mg26 2.048 . S
O35 C36 1.195 . S
C36 O35 1.195 . S
C36 O37 1.313 . S
O37 C36 1.313 . S
O38 Mg26 2.141 . S
O38 C29 1.289 . S
Mg39 O46 2.141 . S
Mg39 O47 2.048 . S
Mg39 O48 2.048 . S
Mg39 O51 2.141 . S
C40 O41 1.313 . S
C40 O47 1.195 . S
O41 C40 1.313 . S
C42 O43 1.245 . S
C42 O51 1.289 . S
O43 C42 1.245 . S
C44 O45 1.245 . S
C44 O46 1.289 . S
O45 C44 1.245 . S
O46 Mg39 2.141 . S
O46 C44 1.289 . S
O47 Mg39 2.048 . S
O47 C40 1.195 . S
O48 Mg39 2.048 . S
O48 C49 1.195 . S
C49 O48 1.195 . S
C49 O50 1.313 . S
O50 C49 1.313 . S
O51 Mg39 2.141 . S
O51 C42 1.289 . S
Mg52 O59 2.141 . S
Mg52 O60 2.048 . S
Mg52 O61 2.048 . S
Mg52 O64 2.141 . S
C53 O54 1.313 . S
C53 O60 1.195 . S
O54 C53 1.313 . S
C55 O56 1.245 . S
C55 O64 1.289 . S
O56 C55 1.245 . S
C57 O58 1.245 . S
C57 O59 1.289 . S
O58 C57 1.245 . S
O59 Mg52 2.141 . S
O59 C57 1.289 . S
O60 Mg52 2.048 . S
O60 C53 1.195 . S
O61 Mg52 2.048 . S
O61 C62 1.195 . S
C62 O61 1.195 . S
C62 O63 1.313 . S
O63 C62 1.313 . S
O64 Mg52 2.141 . S
O64 C55 1.289 . S
Mg65 O72 2.141 . S
Mg65 O73 2.048 . S
Mg65 O74 2.048 . S
Mg65 O77 2.141 . S
C66 O67 1.313 . S
C66 O73 1.195 . S
O67 C66 1.313 . S
C68 O69 1.245 . S
C68 O77 1.289 . S
O69 C68 1.245 . S
C70 O71 1.245 . S
C70 O72 1.289 . S
O71 C70 1.245 . S
O72 Mg65 2.141 . S
O72 C70 1.289 . S
O73 Mg65 2.048 . S
O73 C66 1.195 . S
O74 Mg65 2.048 . S
O74 C75 1.195 . S
C75 O74 1.195 . S
C75 O76 1.313 . S
O76 C75 1.313 . S
O77 Mg65 2.141 . S
O77 C68 1.289 . S
Mg78 O85 2.141 . S
Mg78 O86 2.048 . S
Mg78 O87 2.048 . S
Mg78 O90 2.141 . S
C79 O80 1.313 . S
C79 O86 1.195 . S
O80 C79 1.313 . S
C81 O82 1.245 . S
C81 O90 1.289 . S
O82 C81 1.245 . S
C83 O84 1.245 . S
C83 O85 1.289 . S
O84 C83 1.245 . S
O85 Mg78 2.141 . S
O85 C83 1.289 . S
O86 Mg78 2.048 . S
O86 C79 1.195 . S
O87 Mg78 2.048 . S
O87 C88 1.195 . S
C88 O87 1.195 . S
C88 O89 1.313 . S
O89 C88 1.313 . S
O90 Mg78 2.141 . S
O90 C81 1.289 . S
Mg91 O98 2.141 . S
Mg91 O99 2.048 . S
Mg91 O100 2.048 1_465 S
Mg91 O103 2.141 1_465 S
C92 O93 1.313 . S
C92 O99 1.195 . S
O93 C92 1.313 . S
C94 O95 1.245 1_655 S
C94 O103 1.289 . S
O95 C94 1.245 1_455 S
C96 O97 1.245 . S
C96 O98 1.289 . S
O97 C96 1.245 . S
O98 Mg91 2.141 . S
O98 C96 1.289 . S
O99 Mg91 2.048 . S
O99 C92 1.195 . S
O100 Mg91 2.048 1_645 S
O100 C101 1.195 . S
C101 O100 1.195 . S
C101 O102 1.313 1_655 S
O102 C101 1.313 1_455 S
O103 Mg91 2.141 1_645 S
O103 C94 1.289 . S
Co104 O105 2.216 . S
Co104 O106 2.091 . S
Co104 O108 2.004 . S
Co104 O114 2.021 1_554 S
Co104 O116 2.137 . S
Co104 O117 2.244 . S
O105 Co104 2.216 . S
O105 C112 1.246 . S
O106 Co104 2.091 . S
O106 C112 1.260 . S
C107 O116 1.247 . S
C107 O117 1.272 . S
O108 Co104 2.004 . S
O108 C113 1.259 . S
Co109 O110 2.061 . S
Co109 O115 2.052 1_554 S
Co109 O117 2.135 . S
O110 Co109 2.061 . S
O110 C113 1.235 . S
C111 O114 1.238 . S
C111 O115 1.241 . S
C112 O105 1.246 . S
C112 O106 1.260 . S
C113 O108 1.259 . S
C113 O110 1.235 . S
O114 Co104 2.021 1_556 S
O114 C111 1.238 . S
O115 Co109 2.052 1_556 S
O115 C111 1.241 . S
O116 Co104 2.137 . S
O116 C107 1.247 . S
O117 Co104 2.244 . S
O117 C107 1.272 . S
O117 Co109 2.135 . S
Co118 O119 2.216 . S
Co118 O120 2.091 . S
Co118 O122 2.004 . S
Co118 O128 2.021 . S
Co118 O130 2.137 . S
Co118 O131 2.244 . S
O119 Co118 2.216 . S
O119 C126 1.247 . S
O120 Co118 2.091 . S
O120 C126 1.261 . S
C121 O130 1.247 . S
C121 O131 1.272 . S
O122 Co118 2.004 . S
O122 C127 1.259 . S
Co123 O124 2.061 . S
Co123 O129 2.052 . S
Co123 O131 2.135 . S
O124 Co123 2.061 . S
O124 C127 1.235 . S
C125 O128 1.238 . S
C125 O129 1.241 . S
C126 O119 1.247 . S
C126 O120 1.261 . S
C127 O122 1.259 . S
C127 O124 1.235 . S
O128 Co118 2.021 . S
O128 C125 1.238 . S
O129 Co123 2.052 . S
O129 C125 1.241 . S
O130 Co118 2.137 . S
O130 C121 1.247 . S
O131 Co118 2.244 . S
O131 C121 1.272 . S
O131 Co123 2.135 . S
Co132 O133 2.216 . S
Co132 O134 2.091 . S
Co132 O136 2.004 . S
Co132 O142 2.021 . S
Co132 O144 2.137 . S
Co132 O145 2.244 . S
O133 Co132 2.216 . S
O133 C140 1.247 . S
O134 Co132 2.091 . S
O134 C140 1.261 . S
C135 O144 1.247 . S
C135 O145 1.272 . S
O136 Co132 2.004 . S
O136 C141 1.259 . S
Co137 O138 2.061 . S
Co137 O143 2.052 . S
Co137 O145 2.135 . S
O138 Co137 2.061 . S
O138 C141 1.235 . S
C139 O142 1.238 . S
C139 O143 1.241 . S
C140 O133 1.247 . S
C140 O134 1.261 . S
C141 O136 1.259 . S
C141 O138 1.235 . S
O142 Co132 2.021 . S
O142 C139 1.238 . S
O143 Co137 2.052 . S
O143 C139 1.241 . S
O144 Co132 2.137 . S
O144 C135 1.247 . S
O145 Co132 2.244 . S
O145 C135 1.272 . S
O145 Co137 2.135 . S
Co146 O147 2.216 . S
Co146 O148 2.091 . S
Co146 O150 2.004 . S
Co146 O156 2.021 . S
Co146 O158 2.137 . S
Co146 O159 2.244 . S
O147 Co146 2.216 . S
O147 C154 1.247 . S
O148 Co146 2.091 . S
O148 C154 1.261 . S
C149 O158 1.247 . S
C149 O159 1.272 . S
O150 Co146 2.004 . S
O150 C155 1.259 . S
Co151 O152 2.061 . S
Co151 O157 2.052 . S
Co151 O159 2.135 . S
O152 Co151 2.061 . S
O152 C155 1.235 . S
C153 O156 1.238 . S
C153 O157 1.241 . S
C154 O147 1.247 . S
C154 O148 1.261 . S
C155 O150 1.259 . S
C155 O152 1.235 . S
O156 Co146 2.021 . S
O156 C153 1.238 . S
O157 Co151 2.052 . S
O157 C153 1.241 . S
O158 Co146 2.137 . S
O158 C149 1.247 . S
O159 Co146 2.244 . S
O159 C149 1.272 . S
O159 Co151 2.135 . S
Co160 O161 2.216 . S
Co160 O162 2.091 . S
Co160 O164 2.004 . S
Co160 O170 2.021 . S
Co160 O172 2.137 . S
Co160 O173 2.244 . S
O161 Co160 2.216 . S
O161 C168 1.247 . S
O162 Co160 2.091 . S
O162 C168 1.261 . S
C163 O172 1.247 . S
C163 O173 1.272 . S
O164 Co160 2.004 . S
O164 C169 1.259 . S
Co165 O166 2.061 . S
Co165 O171 2.052 . S
Co165 O173 2.135 . S
O166 Co165 2.061 . S
O166 C169 1.235 . S
C167 O170 1.238 . S
C167 O171 1.241 . S
C168 O161 1.247 . S
C168 O162 1.261 . S
C169 O164 1.259 . S
C169 O166 1.235 . S
O170 Co160 2.021 . S
O170 C167 1.238 . S
O171 Co165 2.052 . S
O171 C167 1.241 . S
O172 Co160 2.137 . S
O172 C163 1.247 . S
O173 Co160 2.244 . S
O173 C163 1.272 . S
O173 Co165 2.135 . S
Co174 O175 2.216 . S
Co174 O176 2.091 . S
Co174 O178 2.004 . S
Co174 O184 2.021 . S
Co174 O186 2.137 . S
Co174 O187 2.244 . S
O175 Co174 2.216 . S
O175 C182 1.247 . S
O176 Co174 2.091 . S
O176 C182 1.261 . S
C177 O186 1.247 . S
C177 O187 1.272 . S
O178 Co174 2.004 . S
O178 C183 1.259 . S
Co179 O180 2.061 1_455 S
Co179 O185 2.052 . S
Co179 O187 2.135 1_455 S
O180 Co179 2.061 1_655 S
O180 C183 1.235 . S
C181 O184 1.238 . S
C181 O185 1.241 1_655 S
C182 O175 1.247 . S
C182 O176 1.261 . S
C183 O178 1.259 . S
C183 O180 1.235 . S
O184 Co174 2.021 . S
O184 C181 1.238 . S
O185 Co179 2.052 . S
O185 C181 1.241 1_455 S
O186 Co174 2.137 . S
O186 C177 1.247 . S
O187 Co174 2.244 . S
O187 C177 1.272 . S
O187 Co179 2.135 1_655 S
Co188 O189 2.216 . S
Co188 O190 2.091 . S
Co188 O192 2.004 . S
Co188 O198 2.021 . S
Co188 O200 2.137 1_554 S
Co188 O201 2.244 . S
O189 Co188 2.216 . S
O189 C196 1.247 . S
O190 Co188 2.091 . S
O190 C196 1.261 . S
C191 O200 1.247 . S
C191 O201 1.272 1_556 S
O192 Co188 2.004 . S
O192 C197 1.259 . S
Co193 O194 2.061 . S
Co193 O199 2.052 . S
Co193 O201 2.135 . S
O194 Co193 2.061 . S
O194 C197 1.235 . S
C195 O198 1.238 . S
C195 O199 1.241 . S
C196 O189 1.247 . S
C196 O190 1.261 . S
C197 O192 1.259 . S
C197 O194 1.235 . S
O198 Co188 2.021 . S
O198 C195 1.238 . S
O199 Co193 2.052 . S
O199 C195 1.241 . S
O200 Co188 2.137 1_556 S
O200 C191 1.247 . S
O201 Co188 2.244 . S
O201 C191 1.272 1_554 S
O201 Co193 2.135 . S
Co202 O203 2.216 . S
Co202 O204 2.091 . S
Co202 O206 2.004 . S
Co202 O212 2.021 . S
Co202 O214 2.137 . S
Co202 O215 2.244 . S
O203 Co202 2.216 . S
O203 C210 1.247 . S
O204 Co202 2.091 . S
O204 C210 1.261 . S
C205 O214 1.247 . S
C205 O215 1.272 . S
O206 Co202 2.004 . S
O206 C211 1.259 . S
Co207 O208 2.061 . S
Co207 O213 2.052 . S
Co207 O215 2.135 . S
O208 Co207 2.061 . S
O208 C211 1.235 . S
C209 O212 1.238 . S
C209 O213 1.241 . S
C210 O203 1.247 . S
C210 O204 1.261 . S
C211 O206 1.259 . S
C211 O208 1.235 . S
O212 Co202 2.021 . S
O212 C209 1.238 . S
O213 Co207 2.052 . S
O213 C209 1.241 . S
O214 Co202 2.137 . S
O214 C205 1.247 . S
O215 Co202 2.244 . S
O215 C205 1.272 . S
O215 Co207 2.135 . S
H216 C222 0.930 . S
H217 C226 0.930 . S
H218 C231 0.929 . S
H219 C229 0.929 . S
H220 C224 0.929 . S
H221 C230 0.929 . S
C222 H216 0.930 . S
C222 C223 1.367 . S
C222 C230 1.378 . S
C223 C222 1.367 . S
C223 C231 1.433 . S
C224 H220 0.929 . S
C224 C226 1.378 . S
C224 C228 1.350 . S
C225 C228 1.463 . S
C225 C230 1.350 . S
C225 N233 1.427 . S
C226 H217 0.930 . S
C226 C224 1.378 . S
C226 C227 1.367 . S
C227 C226 1.367 . S
C227 C229 1.433 . S
C228 C224 1.350 . S
C228 C225 1.463 . S
C228 N232 1.427 . S
C229 H219 0.929 . S
C229 C227 1.433 . S
C229 N232 1.384 . S
C230 H221 0.929 . S
C230 C222 1.378 . S
C230 C225 1.350 . S
C231 H218 0.929 . S
C231 C223 1.433 . S
C231 N233 1.384 . S
N232 C228 1.427 . S
N232 C229 1.384 . S
N233 C225 1.427 . S
N233 C231 1.384 . S
H234 C240 0.930 . S
H235 C244 0.930 . S
H236 C249 0.929 . S
H237 C247 0.929 . S
H238 C242 0.929 . S
H239 C248 0.929 . S
C240 H234 0.930 . S
C240 C241 1.367 . S
C240 C248 1.378 . S
C241 C240 1.367 . S
C241 C249 1.433 . S
C242 H238 0.929 . S
C242 C244 1.378 . S
C242 C246 1.350 . S
C243 C246 1.463 . S
C243 C248 1.350 . S
C243 N251 1.427 . S
C244 H235 0.930 . S
C244 C242 1.378 . S
C244 C245 1.367 . S
C245 C244 1.367 . S
C245 C247 1.433 . S
C246 C242 1.350 . S
C246 C243 1.463 . S
C246 N250 1.427 . S
C247 H237 0.929 . S
C247 C245 1.433 . S
C247 N250 1.384 . S
C248 H239 0.929 . S
C248 C240 1.378 . S
C248 C243 1.350 . S
C249 H236 0.929 . S
C249 C241 1.433 . S
C249 N251 1.384 . S
N250 C246 1.427 . S
N250 C247 1.384 . S
N251 C243 1.427 . S
N251 C249 1.384 . S
H252 C258 0.930 . S
H253 C262 0.930 . S
H254 C267 0.929 . S
H255 C265 0.929 . S
H256 C260 0.929 . S
H257 C266 0.929 . S
C258 H252 0.930 . S
C258 C259 1.367 . S
C258 C266 1.378 . S
C259 C258 1.367 . S
C259 C267 1.433 . S
C260 H256 0.929 . S
C260 C262 1.378 . S
C260 C264 1.350 . S
C261 C264 1.463 . S
C261 C266 1.350 . S
C261 N269 1.427 . S
C262 H253 0.930 . S
C262 C260 1.378 . S
C262 C263 1.367 . S
C263 C262 1.367 . S
C263 C265 1.433 . S
C264 C260 1.350 . S
C264 C261 1.463 . S
C264 N268 1.427 . S
C265 H255 0.929 . S
C265 C263 1.433 . S
C265 N268 1.384 . S
C266 H257 0.929 . S
C266 C258 1.378 . S
C266 C261 1.350 . S
C267 H254 0.929 . S
C267 C259 1.433 . S
C267 N269 1.384 . S
N268 C264 1.427 . S
N268 C265 1.384 . S
N269 C261 1.427 . S
N269 C267 1.384 . S
H270 C276 0.930 . S
H271 C280 0.930 . S
H272 C285 0.929 . S
H273 C283 0.929 . S
H274 C278 0.929 . S
H275 C284 0.929 . S
C276 H270 0.930 . S
C276 C277 1.367 . S
C276 C284 1.378 . S
C277 C276 1.367 . S
C277 C285 1.433 . S
C278 H274 0.929 . S
C278 C280 1.378 . S
C278 C282 1.350 . S
C279 C282 1.463 1_545 S
C279 C284 1.350 . S
C279 N287 1.427 . S
C280 H271 0.930 . S
C280 C278 1.378 . S
C280 C281 1.367 . S
C281 C280 1.367 . S
C281 C283 1.433 . S
C282 C278 1.350 . S
C282 C279 1.463 1_565 S
C282 N286 1.427 . S
C283 H273 0.929 . S
C283 C281 1.433 . S
C283 N286 1.384 . S
C284 H275 0.929 . S
C284 C276 1.378 . S
C284 C279 1.350 . S
C285 H272 0.929 . S
C285 C277 1.433 . S
C285 N287 1.384 . S
N286 C282 1.427 . S
N286 C283 1.384 . S
N287 C279 1.427 . S
N287 C285 1.384 . S
H288 C294 0.930 . S
H289 C298 0.930 1_554 S
H290 C303 0.929 . S
H291 C301 0.929 . S
H292 C296 0.929 . S
H293 C302 0.929 . S
C294 H288 0.930 . S
C294 C295 1.367 . S
C294 C302 1.378 . S
C295 C294 1.367 . S
C295 C303 1.433 . S
C296 H292 0.929 . S
C296 C298 1.378 . S
C296 C300 1.350 . S
C297 C300 1.463 . S
C297 C302 1.350 . S
C297 N305 1.427 . S
C298 H289 0.930 1_556 S
C298 C296 1.378 . S
C298 C299 1.367 . S
C299 C298 1.367 . S
C299 C301 1.433 . S
C300 C296 1.350 . S
C300 C297 1.463 . S
C300 N304 1.427 . S
C301 H291 0.929 . S
C301 C299 1.433 . S
C301 N304 1.384 . S
C302 H293 0.929 . S
C302 C294 1.378 . S
C302 C297 1.350 . S
C303 H290 0.929 . S
C303 C295 1.433 . S
C303 N305 1.384 . S
N304 C300 1.427 . S
N304 C301 1.384 . S
N305 C297 1.427 . S
N305 C303 1.384 . S
H306 C312 0.930 . S
H307 C316 0.930 . S
H308 C321 0.929 . S
H309 C319 0.929 . S
H310 C314 0.929 . S
H311 C320 0.929 . S
C312 H306 0.930 . S
C312 C313 1.367 . S
C312 C320 1.378 . S
C313 C312 1.367 . S
C313 C321 1.433 . S
C314 H310 0.929 . S
C314 C316 1.378 . S
C314 C318 1.350 . S
C315 C318 1.463 . S
C315 C320 1.350 . S
C315 N323 1.427 . S
C316 H307 0.930 . S
C316 C314 1.378 . S
C316 C317 1.367 . S
C317 C316 1.367 . S
C317 C319 1.433 . S
C318 C314 1.350 . S
C318 C315 1.463 . S
C318 N322 1.427 . S
C319 H309 0.929 . S
C319 C317 1.433 . S
C319 N322 1.384 . S
C320 H311 0.929 . S
C320 C312 1.378 . S
C320 C315 1.350 . S
C321 H308 0.929 . S
C321 C313 1.433 . S
C321 N323 1.384 . S
N322 C318 1.427 . S
N322 C319 1.384 . S
N323 C315 1.427 . S
N323 C321 1.384 . S
H324 C330 0.930 . S
H325 C334 0.930 . S
H326 C339 0.929 . S
H327 C337 0.929 . S
H328 C332 0.929 1_545 S
H329 C338 0.929 1_565 S
C330 H324 0.930 . S
C330 C331 1.367 . S
C330 C338 1.378 . S
C331 C330 1.367 . S
C331 C339 1.433 . S
C332 H328 0.929 1_565 S
C332 C334 1.378 . S
C332 C336 1.350 . S
C333 C336 1.463 1_545 S
C333 C338 1.350 . S
C333 N341 1.427 . S
C334 H325 0.930 . S
C334 C332 1.378 . S
C334 C335 1.367 . S
C335 C334 1.367 . S
C335 C337 1.433 . S
C336 C332 1.350 . S
C336 C333 1.463 1_565 S
C336 N340 1.427 . S
C337 H327 0.929 . S
C337 C335 1.433 . S
C337 N340 1.384 . S
C338 H329 0.929 1_545 S
C338 C330 1.378 . S
C338 C333 1.350 . S
C339 H326 0.929 . S
C339 C331 1.433 . S
C339 N341 1.384 . S
N340 C336 1.427 . S
N340 C337 1.384 . S
N341 C333 1.427 . S
N341 C339 1.384 . S
H342 C348 0.930 . S
H343 C352 0.930 . S
H344 C357 0.929 . S
H345 C355 0.929 . S
H346 C350 0.929 . S
H347 C356 0.929 . S
C348 H342 0.930 . S
C348 C349 1.367 . S
C348 C356 1.378 . S
C349 C348 1.367 . S
C349 C357 1.433 . S
C350 H346 0.929 . S
C350 C352 1.378 . S
C350 C354 1.350 . S
C351 C354 1.463 . S
C351 C356 1.350 . S
C351 N359 1.427 . S
C352 H343 0.930 . S
C352 C350 1.378 . S
C352 C353 1.367 . S
C353 C352 1.367 . S
C353 C355 1.433 . S
C354 C350 1.350 . S
C354 C351 1.463 . S
C354 N358 1.427 . S
C355 H345 0.929 . S
C355 C353 1.433 . S
C355 N358 1.384 . S
C356 H347 0.929 . S
C356 C348 1.378 . S
C356 C351 1.350 . S
C357 H344 0.929 . S
C357 C349 1.433 . S
C357 N359 1.384 . S
N358 C354 1.427 . S
N358 C355 1.384 . S
N359 C351 1.427 . S
N359 C357 1.384 . S
H360 C366 0.930 . S
H361 C370 0.930 . S
H362 C375 0.929 . S
H363 C373 0.929 . S
H364 C368 0.929 . S
H365 C374 0.929 . S
C366 H360 0.930 . S
C366 C367 1.367 . S
C366 C374 1.378 . S
C367 C366 1.367 . S
C367 C375 1.433 . S
C368 H364 0.929 . S
C368 C370 1.378 . S
C368 C372 1.350 . S
C369 C372 1.463 . S
C369 C374 1.350 . S
C369 N377 1.427 . S
C370 H361 0.930 . S
C370 C368 1.378 . S
C370 C371 1.367 . S
C371 C370 1.367 . S
C371 C373 1.433 . S
C372 C368 1.350 . S
C372 C369 1.463 . S
C372 N376 1.427 . S
C373 H363 0.929 . S
C373 C371 1.433 . S
C373 N376 1.384 . S
C374 H365 0.929 . S
C374 C366 1.378 . S
C374 C369 1.350 . S
C375 H362 0.929 . S
C375 C367 1.433 . S
C375 N377 1.384 . S
N376 C372 1.427 . S
N376 C373 1.384 . S
N377 C369 1.427 . S
N377 C375 1.384 . S
H378 C384 0.930 . S
H379 C388 0.930 . S
H380 C393 0.929 . S
H381 C391 0.929 . S
H382 C386 0.929 . S
H383 C392 0.929 . S
C384 H378 0.930 . S
C384 C385 1.367 . S
C384 C392 1.378 . S
C385 C384 1.367 . S
C385 C393 1.433 . S
C386 H382 0.929 . S
C386 C388 1.378 . S
C386 C390 1.350 . S
C387 C390 1.463 . S
C387 C392 1.350 . S
C387 N395 1.427 . S
C388 H379 0.930 . S
C388 C386 1.378 . S
C388 C389 1.367 . S
C389 C388 1.367 . S
C389 C391 1.433 . S
C390 C386 1.350 . S
C390 C387 1.463 . S
C390 N394 1.427 . S
C391 H381 0.929 . S
C391 C389 1.433 . S
C391 N394 1.384 . S
C392 H383 0.929 . S
C392 C384 1.378 . S
C392 C387 1.350 . S
C393 H380 0.929 . S
C393 C385 1.433 . S
C393 N395 1.384 . S
N394 C390 1.427 . S
N394 C391 1.384 . S
N395 C387 1.427 . S
N395 C393 1.384 . S
H396 C402 0.930 . S
H397 C406 0.930 . S
H398 C411 0.929 . S
H399 C409 0.929 . S
H400 C404 0.929 . S
H401 C410 0.929 . S
C402 H396 0.930 . S
C402 C403 1.367 . S
C402 C410 1.378 . S
C403 C402 1.367 . S
C403 C411 1.433 . S
C404 H400 0.929 . S
C404 C406 1.378 . S
C404 C408 1.350 . S
C405 C408 1.463 . S
C405 C410 1.350 . S
C405 N413 1.427 . S
C406 H397 0.930 . S
C406 C404 1.378 . S
C406 C407 1.367 . S
C407 C406 1.367 . S
C407 C409 1.433 . S
C408 C404 1.350 . S
C408 C405 1.463 . S
C408 N412 1.427 . S
C409 H399 0.929 . S
C409 C407 1.433 . S
C409 N412 1.384 . S
C410 H401 0.929 . S
C410 C402 1.378 . S
C410 C405 1.350 . S
C411 H398 0.929 . S
C411 C403 1.433 . S
C411 N413 1.384 . S
N412 C408 1.427 . S
N412 C409 1.384 . S
N413 C405 1.427 . S
N413 C411 1.384 . S
H414 C420 0.930 . S
H415 C424 0.930 . S
H416 C429 0.929 . S
H417 C427 0.929 . S
H418 C422 0.929 . S
H419 C428 0.929 1_655 S
C420 H414 0.930 . S
C420 C421 1.367 . S
C420 C428 1.378 . S
C421 C420 1.367 . S
C421 C429 1.433 . S
C422 H418 0.929 . S
C422 C424 1.378 1_455 S
C422 C426 1.350 1_455 S
C423 C426 1.463 1_455 S
C423 C428 1.350 . S
C423 N431 1.427 . S
C424 H415 0.930 . S
C424 C422 1.378 1_655 S
C424 C425 1.367 . S
C425 C424 1.367 . S
C425 C427 1.433 . S
C426 C422 1.350 1_655 S
C426 C423 1.463 1_655 S
C426 N430 1.427 . S
C427 H417 0.929 . S
C427 C425 1.433 . S
C427 N430 1.384 . S
C428 H419 0.929 1_455 S
C428 C420 1.378 . S
C428 C423 1.350 . S
C429 H416 0.929 . S
C429 C421 1.433 . S
C429 N431 1.384 . S
N430 C426 1.427 . S
N430 C427 1.384 . S
N431 C423 1.427 . S
N431 C429 1.384 . S
H432 C438 0.930 . S
H433 C442 0.930 . S
H434 C447 0.929 . S
H435 C445 0.929 . S
H436 C440 0.929 . S
H437 C446 0.929 . S
C438 H432 0.930 . S
C438 C439 1.367 . S
C438 C446 1.378 . S
C439 C438 1.367 . S
C439 C447 1.433 . S
C440 H436 0.929 . S
C440 C442 1.378 . S
C440 C444 1.350 . S
C441 C444 1.463 . S
C441 C446 1.350 . S
C441 N449 1.427 . S
C442 H433 0.930 . S
C442 C440 1.378 . S
C442 C443 1.367 . S
C443 C442 1.367 . S
C443 C445 1.433 . S
C444 C440 1.350 . S
C444 C441 1.463 . S
C444 N448 1.427 . S
C445 H435 0.929 . S
C445 C443 1.433 . S
C445 N448 1.384 . S
C446 H437 0.929 . S
C446 C438 1.378 . S
C446 C441 1.350 . S
C447 H434 0.929 . S
C447 C439 1.433 . S
C447 N449 1.384 . S
N448 C444 1.427 . S
N448 C445 1.384 . S
N449 C441 1.427 . S
N449 C447 1.384 . S
H450 C456 0.930 1_455 S
H451 C460 0.930 . S
H452 C465 0.929 . S
H453 C463 0.929 . S
H454 C458 0.929 . S
H455 C464 0.929 . S
C456 H450 0.930 1_655 S
C456 C457 1.367 . S
C456 C464 1.378 . S
C457 C456 1.367 . S
C457 C465 1.433 . S
C458 H454 0.929 . S
C458 C460 1.378 . S
C458 C462 1.350 . S
C459 C462 1.463 . S
C459 C464 1.350 . S
C459 N467 1.427 . S
C460 H451 0.930 . S
C460 C458 1.378 . S
C460 C461 1.367 . S
C461 C460 1.367 . S
C461 C463 1.433 . S
C462 C458 1.350 . S
C462 C459 1.463 . S
C462 N466 1.427 . S
C463 H453 0.929 . S
C463 C461 1.433 . S
C463 N466 1.384 . S
C464 H455 0.929 . S
C464 C456 1.378 . S
C464 C459 1.350 . S
C465 H452 0.929 . S
C465 C457 1.433 . S
C465 N467 1.384 . S
N466 C462 1.427 . S
N466 C463 1.384 . S
N467 C459 1.427 . S
N467 C465 1.384 . S
H468 C474 0.930 . S
H469 C478 0.930 . S
H470 C483 0.929 . S
H471 C481 0.929 . S
H472 C476 0.932 . S
H473 C482 0.929 . S
C474 H468 0.930 . S
C474 C475 1.367 . S
C474 C482 1.378 . S
C475 C474 1.367 . S
C475 C483 1.433 . S
C476 H472 0.932 . S
C476 C478 1.360 1_556 S
C476 C480 1.366 . S
C477 C480 1.463 1_455 S
C477 C482 1.350 . S
C477 N485 1.427 . S
C478 H469 0.930 . S
C478 C476 1.360 1_554 S
C478 C479 1.367 . S
C479 C478 1.367 . S
C479 C481 1.433 . S
C480 C476 1.366 . S
C480 C477 1.463 1_655 S
C480 N484 1.427 . S
C481 H471 0.929 . S
C481 C479 1.433 . S
C481 N484 1.384 1_554 S
C482 H473 0.929 . S
C482 C474 1.378 . S
C482 C477 1.350 . S
C483 H470 0.929 . S
C483 C475 1.433 . S
C483 N485 1.384 . S
N484 C480 1.427 . S
N484 C481 1.384 1_556 S
N485 C477 1.427 . S
N485 C483 1.384 . S
H486 C492 0.930 . S
H487 C496 0.930 . S
H488 C501 0.929 . S
H489 C499 0.929 . S
H490 C494 0.929 . S
H491 C500 0.929 . S
C492 H486 0.930 . S
C492 C493 1.367 . S
C492 C500 1.378 . S
C493 C492 1.367 . S
C493 C501 1.433 . S
C494 H490 0.929 . S
C494 C496 1.378 . S
C494 C498 1.350 . S
C495 C498 1.463 . S
C495 C500 1.350 . S
C495 N503 1.427 . S
C496 H487 0.930 . S
C496 C494 1.378 . S
C496 C497 1.367 . S
C497 C496 1.367 . S
C497 C499 1.433 . S
C498 C494 1.350 . S
C498 C495 1.463 . S
C498 N502 1.427 . S
C499 H489 0.929 . S
C499 C497 1.433 . S
C499 N502 1.384 . S
C500 H491 0.929 . S
C500 C492 1.378 . S
C500 C495 1.350 . S
C501 H488 0.929 . S
C501 C493 1.433 . S
C501 N503 1.384 . S
N502 C498 1.427 . S
N502 C499 1.384 . S
N503 C495 1.427 . S
N503 C501 1.384 . S
H504 C510 0.930 . S
H505 C514 0.930 . S
H506 C519 0.929 . S
H507 C517 0.929 . S
H508 C512 0.929 . S
H509 C518 0.929 . S
C510 H504 0.930 . S
C510 C511 1.367 . S
C510 C518 1.378 . S
C511 C510 1.367 . S
C511 C519 1.433 . S
C512 H508 0.929 . S
C512 C514 1.378 . S
C512 C516 1.350 . S
C513 C516 1.463 . S
C513 C518 1.350 . S
C513 N521 1.427 . S
C514 H505 0.930 . S
C514 C512 1.378 . S
C514 C515 1.367 . S
C515 C514 1.367 . S
C515 C517 1.433 . S
C516 C512 1.350 . S
C516 C513 1.463 . S
C516 N520 1.427 . S
C517 H507 0.929 . S
C517 C515 1.433 . S
C517 N520 1.384 . S
C518 H509 0.929 . S
C518 C510 1.378 . S
C518 C513 1.350 . S
C519 H506 0.929 . S
C519 C511 1.433 . S
C519 N521 1.384 . S
N520 C516 1.427 . S
N520 C517 1.384 . S
N521 C513 1.427 . S
N521 C519 1.384 . S
H522 C528 0.930 . S
H523 C532 0.930 . S
H524 C537 0.929 . S
H525 C535 0.929 . S
H526 C530 0.929 . S
H527 C536 0.929 . S
C528 H522 0.930 . S
C528 C529 1.367 . S
C528 C536 1.378 . S
C529 C528 1.367 . S
C529 C537 1.433 . S
C530 H526 0.929 . S
C530 C532 1.378 . S
C530 C534 1.350 . S
C531 C534 1.463 . S
C531 C536 1.350 . S
C531 N539 1.427 . S
C532 H523 0.930 . S
C532 C530 1.378 . S
C532 C533 1.367 . S
C533 C532 1.367 . S
C533 C535 1.433 . S
C534 C530 1.350 . S
C534 C531 1.463 . S
C534 N538 1.427 . S
C535 H525 0.929 . S
C535 C533 1.433 . S
C535 N538 1.384 . S
C536 H527 0.929 . S
C536 C528 1.378 . S
C536 C531 1.350 . S
C537 H524 0.929 . S
C537 C529 1.433 . S
C537 N539 1.384 . S
N538 C534 1.427 . S
N538 C535 1.384 . S
N539 C531 1.427 . S
N539 C537 1.384 . S
H540 C546 0.930 . S
H541 C550 0.930 . S
H542 C555 0.929 . S
H543 C553 0.929 . S
H544 C548 0.929 . S
H545 C554 0.929 . S
C546 H540 0.930 . S
C546 C547 1.367 . S
C546 C554 1.378 . S
C547 C546 1.367 . S
C547 C555 1.433 . S
C548 H544 0.929 . S
C548 C550 1.378 . S
C548 C552 1.350 . S
C549 C552 1.463 . S
C549 C554 1.350 . S
C549 N557 1.427 . S
C550 H541 0.930 . S
C550 C548 1.378 . S
C550 C551 1.367 . S
C551 C550 1.367 . S
C551 C553 1.433 . S
C552 C548 1.350 . S
C552 C549 1.463 . S
C552 N556 1.427 . S
C553 H543 0.929 . S
C553 C551 1.433 . S
C553 N556 1.384 . S
C554 H545 0.929 . S
C554 C546 1.378 . S
C554 C549 1.350 . S
C555 H542 0.929 . S
C555 C547 1.433 . S
C555 N557 1.384 . S
N556 C552 1.427 . S
N556 C553 1.384 . S
N557 C549 1.427 . S
N557 C555 1.384 . S
H558 C564 0.930 . S
H559 C568 0.930 . S
H560 C573 0.929 . S
H561 C571 0.929 . S
H562 C566 0.929 . S
H563 C572 0.929 . S
C564 H558 0.930 . S
C564 C565 1.367 . S
C564 C572 1.378 . S
C565 C564 1.367 . S
C565 C573 1.433 . S
C566 H562 0.929 . S
C566 C568 1.378 . S
C566 C570 1.350 . S
C567 C570 1.463 . S
C567 C572 1.350 . S
C567 N575 1.427 . S
C568 H559 0.930 . S
C568 C566 1.378 . S
C568 C569 1.367 1_545 S
C569 C568 1.367 1_565 S
C569 C571 1.433 . S
C570 C566 1.350 . S
C570 C567 1.463 . S
C570 N574 1.427 . S
C571 H561 0.929 . S
C571 C569 1.433 . S
C571 N574 1.384 1_565 S
C572 H563 0.929 . S
C572 C564 1.378 . S
C572 C567 1.350 . S
C573 H560 0.929 . S
C573 C565 1.433 . S
C573 N575 1.384 . S
N574 C570 1.427 . S
N574 C571 1.384 1_545 S
N575 C567 1.427 . S
N575 C573 1.384 . S
H576 C582 0.930 . S
H577 C586 0.930 . S
H578 C591 0.929 . S
H579 C589 0.929 . S
H580 C584 0.929 . S
H581 C590 0.929 . S
C582 H576 0.930 . S
C582 C583 1.367 . S
C582 C590 1.378 . S
C583 C582 1.367 . S
C583 C591 1.433 . S
C584 H580 0.929 . S
C584 C586 1.378 . S
C584 C588 1.350 . S
C585 C588 1.463 . S
C585 C590 1.350 . S
C585 N593 1.427 . S
C586 H577 0.930 . S
C586 C584 1.378 . S
C586 C587 1.367 . S
C587 C586 1.367 . S
C587 C589 1.433 . S
C588 C584 1.350 . S
C588 C585 1.463 . S
C588 N592 1.427 . S
C589 H579 0.929 . S
C589 C587 1.433 . S
C589 N592 1.384 . S
C590 H581 0.929 . S
C590 C582 1.378 . S
C590 C585 1.350 . S
C591 H578 0.929 . S
C591 C583 1.433 . S
C591 N593 1.384 . S
N592 C588 1.427 . S
N592 C589 1.384 . S
N593 C585 1.427 . S
N593 C591 1.384 . S
H594 C600 0.930 . S
H595 C604 0.930 . S
H596 C609 0.929 . S
H597 C607 0.929 . S
H598 C602 0.929 . S
H599 C608 0.929 . S
C600 H594 0.930 . S
C600 C601 1.367 . S
C600 C608 1.378 . S
C601 C600 1.367 . S
C601 C609 1.433 . S
C602 H598 0.929 . S
C602 C604 1.378 . S
C602 C606 1.350 . S
C603 C606 1.463 . S
C603 C608 1.350 . S
C603 N611 1.427 . S
C604 H595 0.930 . S
C604 C602 1.378 . S
C604 C605 1.367 . S
C605 C604 1.367 . S
C605 C607 1.433 . S
C606 C602 1.350 . S
C606 C603 1.463 . S
C606 N610 1.427 . S
C607 H597 0.929 . S
C607 C605 1.433 . S
C607 N610 1.384 . S
C608 H599 0.929 . S
C608 C600 1.378 . S
C608 C603 1.350 . S
C609 H596 0.929 . S
C609 C601 1.433 . S
C609 N611 1.384 . S
N610 C606 1.427 . S
N610 C607 1.384 . S
N611 C603 1.427 . S
N611 C609 1.384 . S
H612 C618 0.930 . S
H613 C622 0.930 . S
H614 C627 0.929 . S
H615 C625 0.929 . S
H616 C620 0.929 . S
H617 C626 0.929 . S
C618 H612 0.930 . S
C618 C619 1.367 . S
C618 C626 1.378 . S
C619 C618 1.367 . S
C619 C627 1.433 . S
C620 H616 0.929 . S
C620 C622 1.378 . S
C620 C624 1.350 . S
C621 C624 1.463 . S
C621 C626 1.350 . S
C621 N629 1.427 . S
C622 H613 0.930 . S
C622 C620 1.378 . S
C622 C623 1.367 1_545 S
C623 C622 1.367 1_565 S
C623 C625 1.433 . S
C624 C620 1.350 . S
C624 C621 1.463 . S
C624 N628 1.427 1_545 S
C625 H615 0.929 . S
C625 C623 1.433 . S
C625 N628 1.384 . S
C626 H617 0.929 . S
C626 C618 1.378 . S
C626 C621 1.350 . S
C627 H614 0.929 . S
C627 C619 1.433 . S
C627 N629 1.384 . S
N628 C624 1.427 1_565 S
N628 C625 1.384 . S
N629 C621 1.427 . S
N629 C627 1.384 . S
H630 C636 0.930 . S
H631 C640 0.930 . S
H632 C645 0.929 . S
H633 C643 0.929 . S
H634 C638 0.929 . S
H635 C644 0.929 . S
C636 H630 0.930 . S
C636 C637 1.367 . S
C636 C644 1.378 . S
C637 C636 1.367 . S
C637 C645 1.433 . S
C638 H634 0.929 . S
C638 C640 1.378 . S
C638 C642 1.350 . S
C639 C642 1.463 . S
C639 C644 1.350 . S
C639 N647 1.427 . S
C640 H631 0.930 . S
C640 C638 1.378 . S
C640 C641 1.367 . S
C641 C640 1.367 . S
C641 C643 1.433 . S
C642 C638 1.350 . S
C642 C639 1.463 . S
C642 N646 1.427 . S
C643 H633 0.929 . S
C643 C641 1.433 . S
C643 N646 1.384 . S
C644 H635 0.929 . S
C644 C636 1.378 . S
C644 C639 1.350 . S
C645 H632 0.929 . S
C645 C637 1.433 . S
C645 N647 1.384 . S
N646 C642 1.427 . S
N646 C643 1.384 . S
N647 C639 1.427 . S
N647 C645 1.384 . S
H648 C654 0.930 . S
H649 C658 0.930 . S
H650 C663 0.929 . S
H651 C661 0.929 . S
H652 C656 0.929 . S
H653 C662 0.929 . S
C654 H648 0.930 . S
C654 C655 1.367 . S
C654 C662 1.378 . S
C655 C654 1.367 . S
C655 C663 1.433 . S
C656 H652 0.929 . S
C656 C658 1.378 . S
C656 C660 1.350 . S
C657 C660 1.463 . S
C657 C662 1.350 . S
C657 N665 1.427 . S
C658 H649 0.930 . S
C658 C656 1.378 . S
C658 C659 1.367 . S
C659 C658 1.367 . S
C659 C661 1.433 . S
C660 C656 1.350 . S
C660 C657 1.463 . S
C660 N664 1.427 . S
C661 H651 0.929 . S
C661 C659 1.433 . S
C661 N664 1.384 . S
C662 H653 0.929 . S
C662 C654 1.378 . S
C662 C657 1.350 . S
C663 H650 0.929 . S
C663 C655 1.433 . S
C663 N665 1.384 . S
N664 C660 1.427 . S
N664 C661 1.384 . S
N665 C657 1.427 . S
N665 C663 1.384 . S
H666 C672 0.930 . S
H667 C676 0.930 . S
H668 C681 0.929 . S
H669 C679 0.929 . S
H670 C674 0.929 . S
H671 C680 0.929 . S
C672 H666 0.930 . S
C672 C673 1.367 . S
C672 C680 1.378 . S
C673 C672 1.367 . S
C673 C681 1.433 . S
C674 H670 0.929 . S
C674 C676 1.378 . S
C674 C678 1.350 . S
C675 C678 1.463 . S
C675 C680 1.350 . S
C675 N683 1.427 . S
C676 H667 0.930 . S
C676 C674 1.378 . S
C676 C677 1.367 . S
C677 C676 1.367 . S
C677 C679 1.433 . S
C678 C674 1.350 . S
C678 C675 1.463 . S
C678 N682 1.427 . S
C679 H669 0.929 . S
C679 C677 1.433 . S
C679 N682 1.384 . S
C680 H671 0.929 . S
C680 C672 1.378 . S
C680 C675 1.350 . S
C681 H668 0.929 . S
C681 C673 1.433 . S
C681 N683 1.384 . S
N682 C678 1.427 . S
N682 C679 1.384 . S
N683 C675 1.427 . S
N683 C681 1.384 . S
H684 C690 0.930 . S
H685 C694 0.930 . S
H686 C699 0.929 . S
H687 C697 0.929 . S
H688 C692 0.929 . S
H689 C698 0.929 . S
C690 H684 0.930 . S
C690 C691 1.367 . S
C690 C698 1.378 . S
C691 C690 1.367 . S
C691 C699 1.433 . S
C692 H688 0.929 . S
C692 C694 1.378 . S
C692 C696 1.350 . S
C693 C696 1.463 . S
C693 C698 1.350 . S
C693 N701 1.427 . S
C694 H685 0.930 . S
C694 C692 1.378 . S
C694 C695 1.367 . S
C695 C694 1.367 . S
C695 C697 1.433 . S
C696 C692 1.350 . S
C696 C693 1.463 . S
C696 N700 1.427 . S
C697 H687 0.929 . S
C697 C695 1.433 . S
C697 N700 1.384 . S
C698 H689 0.929 . S
C698 C690 1.378 . S
C698 C693 1.350 . S
C699 H686 0.929 . S
C699 C691 1.433 . S
C699 N701 1.384 . S
N700 C696 1.427 . S
N700 C697 1.384 . S
N701 C693 1.427 . S
N701 C699 1.384 . S
H702 C708 0.930 . S
H703 C712 0.930 . S
H704 C717 0.929 . S
H705 C715 0.929 . S
H706 C710 0.924 1_655 S
H707 C716 0.929 . S
C708 H702 0.930 . S
C708 C709 1.367 . S
C708 C716 1.378 . S
C709 C708 1.367 . S
C709 C717 1.433 . S
C710 H706 0.924 1_455 S
C710 C712 1.366 1_455 S
C710 C714 1.367 . S
C711 C714 1.463 . S
C711 C716 1.350 . S
C711 N719 1.427 . S
C712 H703 0.930 . S
C712 C710 1.366 1_655 S
C712 C713 1.367 . S
C713 C712 1.367 . S
C713 C715 1.433 1_655 S
C714 C710 1.367 . S
C714 C711 1.463 . S
C714 N718 1.427 . S
C715 H705 0.929 . S
C715 C713 1.433 1_455 S
C715 N718 1.384 . S
C716 H707 0.929 . S
C716 C708 1.378 . S
C716 C711 1.350 . S
C717 H704 0.929 . S
C717 C709 1.433 . S
C717 N719 1.384 . S
N718 C714 1.427 . S
N718 C715 1.384 . S
N719 C711 1.427 . S
N719 C717 1.384 . S
H720 C726 0.930 . S
H721 C730 0.930 . S
H722 C735 0.929 . S
H723 C733 0.929 . S
H724 C728 0.929 . S
H725 C734 0.929 . S
C726 H720 0.930 . S
C726 C727 1.367 . S
C726 C734 1.378 . S
C727 C726 1.367 . S
C727 C735 1.433 . S
C728 H724 0.929 . S
C728 C730 1.378 . S
C728 C732 1.350 . S
C729 C732 1.463 . S
C729 C734 1.350 . S
C729 N737 1.427 . S
C730 H721 0.930 . S
C730 C728 1.378 . S
C730 C731 1.367 . S
C731 C730 1.367 . S
C731 C733 1.433 . S
C732 C728 1.350 . S
C732 C729 1.463 . S
C732 N736 1.427 . S
C733 H723 0.929 . S
C733 C731 1.433 . S
C733 N736 1.384 . S
C734 H725 0.929 . S
C734 C726 1.378 . S
C734 C729 1.350 . S
C735 H722 0.929 . S
C735 C727 1.433 . S
C735 N737 1.384 . S
N736 C732 1.427 . S
N736 C733 1.384 . S
N737 C729 1.427 . S
N737 C735 1.384 . S
H738 C744 0.930 . S
H739 C748 0.930 . S
H740 C753 0.929 . S
H741 C751 0.929 . S
H742 C746 0.929 . S
H743 C752 0.929 . S
C744 H738 0.930 . S
C744 C745 1.367 . S
C744 C752 1.378 . S
C745 C744 1.367 . S
C745 C753 1.433 . S
C746 H742 0.929 . S
C746 C748 1.378 . S
C746 C750 1.350 . S
C747 C750 1.463 . S
C747 C752 1.350 . S
C747 N755 1.427 . S
C748 H739 0.930 . S
C748 C746 1.378 . S
C748 C749 1.367 . S
C749 C748 1.367 . S
C749 C751 1.433 . S
C750 C746 1.350 . S
C750 C747 1.463 . S
C750 N754 1.427 . S
C751 H741 0.929 . S
C751 C749 1.433 . S
C751 N754 1.384 . S
C752 H743 0.929 . S
C752 C744 1.378 . S
C752 C747 1.350 . S
C753 H740 0.929 . S
C753 C745 1.433 . S
C753 N755 1.384 . S
N754 C750 1.427 . S
N754 C751 1.384 . S
N755 C747 1.427 . S
N755 C753 1.384 . S
H756 C762 0.930 . S
H757 C766 0.930 . S
H758 C771 0.929 . S
H759 C769 0.929 . S
H760 C764 0.929 . S
H761 C770 0.929 . S
C762 H756 0.930 . S
C762 C763 1.367 . S
C762 C770 1.378 . S
C763 C762 1.367 . S
C763 C771 1.433 . S
C764 H760 0.929 . S
C764 C766 1.378 . S
C764 C768 1.350 . S
C765 C768 1.463 . S
C765 C770 1.350 . S
C765 N773 1.427 . S
C766 H757 0.930 . S
C766 C764 1.378 . S
C766 C767 1.367 . S
C767 C766 1.367 . S
C767 C769 1.433 1_455 S
C768 C764 1.350 . S
C768 C765 1.463 . S
C768 N772 1.427 . S
C769 H759 0.929 . S
C769 C767 1.433 1_655 S
C769 N772 1.384 1_655 S
C770 H761 0.929 . S
C770 C762 1.378 . S
C770 C765 1.350 . S
C771 H758 0.929 . S
C771 C763 1.433 . S
C771 N773 1.384 . S
N772 C768 1.427 . S
N772 C769 1.384 1_455 S
N773 C765 1.427 . S
N773 C771 1.384 . S
H774 C780 0.930 . S
H775 C784 0.930 . S
H776 C789 0.929 . S
H777 C787 0.929 . S
H778 C782 0.929 . S
H779 C788 0.929 . S
C780 H774 0.930 . S
C780 C781 1.367 . S
C780 C788 1.378 . S
C781 C780 1.367 . S
C781 C789 1.433 . S
C782 H778 0.929 . S
C782 C784 1.378 . S
C782 C786 1.350 . S
C783 C786 1.463 . S
C783 C788 1.350 . S
C783 N791 1.427 . S
C784 H775 0.930 . S
C784 C782 1.378 . S
C784 C785 1.367 . S
C785 C784 1.367 . S
C785 C787 1.433 . S
C786 C782 1.350 . S
C786 C783 1.463 . S
C786 N790 1.427 . S
C787 H777 0.929 . S
C787 C785 1.433 . S
C787 N790 1.384 . S
C788 H779 0.929 . S
C788 C780 1.378 . S
C788 C783 1.350 . S
C789 H776 0.929 . S
C789 C781 1.433 . S
C789 N791 1.384 . S
N790 C786 1.427 . S
N790 C787 1.384 . S
N791 C783 1.427 . S
N791 C789 1.384 . S
C227 C126 1.263 . S
C223 C5 1.269 . S
C245 C140 1.289 . S
C241 C18 1.282 . S
C263 C155 1.260 . S
C259 C31 1.279 . S
C277 C42 1.199 . S
C281 C113 1.222 . S
C295 C57 1.410 . S
C299 C112 1.452 1_556 S
C313 C70 1.435 . S
C317 C127 1.430 . S
C335 C141 1.440 . S
C331 C81 1.478 . S
C353 C154 1.463 . S
C349 C96 1.424 . S
C367 C29 1.450 . S
C371 C182 1.446 . S
C389 C196 1.467 . S
C385 C44 1.427 . S
C403 C3 1.461 . S
C407 C211 1.427 . S
C425 C168 1.456 . S
C421 C16 1.458 . S
C439 C83 1.267 . S
C443 C169 1.226 . S
C457 C94 1.221 . S
C461 C183 1.239 . S
C479 C197 1.263 . S
C475 C55 1.222 . S
C493 C68 1.255 . S
C497 C210 1.300 . S
C515 C135 1.381 . S
C511 C1 1.382 . S
C533 C153 1.352 . S
C529 C14 1.382 . S
C547 C27 1.369 . S
C551 C111 1.333 . S
C565 C49 1.361 . S
C569 C121 1.370 . S
C583 C53 1.630 . S
C587 C149 1.709 . S
C605 C107 1.713 . S
C601 C66 1.631 . S
C623 C125 1.675 . S
C619 C88 1.705 . S
C641 C139 1.681 . S
C637 C92 1.642 . S
C659 C191 1.705 . S
C655 C36 1.701 . S
C677 C209 1.670 . S
C673 C40 1.617 . S
C691 C10 1.701 . S
C695 C163 1.709 . S
C713 C177 1.715 . S
C709 C23 1.709 . S
C731 C205 1.370 . S
C727 C79 1.381 . S
C745 C101 1.366 . S
C749 C167 1.344 . S
C767 C181 1.336 1_455 S
C763 C62 1.368 . S
C785 C195 1.368 . S
C781 C75 1.379 . S
