# Generated by pormake.
# Topology zzz, (3,6)-cn, num edge types: 1
# Building blocks:
#     Node 0, Type 0, BuildingBlock: OLANEW_clean_sbu_2, # of connection points: 3
#     Node 1, Type 0, BuildingBlock: OLANEW_clean_sbu_2, # of connection points: 3
#     Node 2, Type 0, BuildingBlock: OLANEW_clean_sbu_2, # of connection points: 3
#     Node 3, Type 0, BuildingBlock: OLANEW_clean_sbu_2, # of connection points: 3
#     Node 4, Type 0, BuildingBlock: OLANEW_clean_sbu_2, # of connection points: 3
#     Node 5, Type 0, BuildingBlock: OLANEW_clean_sbu_2, # of connection points: 3
#     Node 6, Type 0, BuildingBlock: OLANEW_clean_sbu_2, # of connection points: 3
#     Node 7, Type 0, BuildingBlock: OLANEW_clean_sbu_2, # of connection points: 3
#     Node 8, Type 1, BuildingBlock: GEDQOX_clean_sbu_0, # of connection points: 6
#     Node 9, Type 1, BuildingBlock: GEDQOX_clean_sbu_0, # of connection points: 6
#     Node 10, Type 1, BuildingBlock: GEDQOX_clean_sbu_0, # of connection points: 6
#     Node 11, Type 1, BuildingBlock: GEDQOX_clean_sbu_0, # of connection points: 6
#     Edge 12, Type (0, 1), BuildingBlock: AJUNOK_clean_linker_0, # of connection points: 2
#     Edge 13, Type (0, 1), BuildingBlock: AJUNOK_clean_linker_0, # of connection points: 2
#     Edge 14, Type (0, 1), BuildingBlock: AJUNOK_clean_linker_0, # of connection points: 2
#     Edge 15, Type (0, 1), BuildingBlock: AJUNOK_clean_linker_0, # of connection points: 2
#     Edge 16, Type (0, 1), BuildingBlock: AJUNOK_clean_linker_0, # of connection points: 2
#     Edge 17, Type (0, 1), BuildingBlock: AJUNOK_clean_linker_0, # of connection points: 2
#     Edge 18, Type (0, 1), BuildingBlock: AJUNOK_clean_linker_0, # of connection points: 2
#     Edge 19, Type (0, 1), BuildingBlock: AJUNOK_clean_linker_0, # of connection points: 2
#     Edge 20, Type (0, 1), BuildingBlock: AJUNOK_clean_linker_0, # of connection points: 2
#     Edge 21, Type (0, 1), BuildingBlock: AJUNOK_clean_linker_0, # of connection points: 2
#     Edge 22, Type (0, 1), BuildingBlock: AJUNOK_clean_linker_0, # of connection points: 2
#     Edge 23, Type (0, 1), BuildingBlock: AJUNOK_clean_linker_0, # of connection points: 2
#     Edge 24, Type (0, 1), BuildingBlock: AJUNOK_clean_linker_0, # of connection points: 2
#     Edge 25, Type (0, 1), BuildingBlock: AJUNOK_clean_linker_0, # of connection points: 2
#     Edge 26, Type (0, 1), BuildingBlock: AJUNOK_clean_linker_0, # of connection points: 2
#     Edge 27, Type (0, 1), BuildingBlock: AJUNOK_clean_linker_0, # of connection points: 2
#     Edge 28, Type (0, 1), BuildingBlock: AJUNOK_clean_linker_0, # of connection points: 2
#     Edge 29, Type (0, 1), BuildingBlock: AJUNOK_clean_linker_0, # of connection points: 2
#     Edge 30, Type (0, 1), BuildingBlock: AJUNOK_clean_linker_0, # of connection points: 2
#     Edge 31, Type (0, 1), BuildingBlock: AJUNOK_clean_linker_0, # of connection points: 2
#     Edge 32, Type (0, 1), BuildingBlock: AJUNOK_clean_linker_0, # of connection points: 2
#     Edge 33, Type (0, 1), BuildingBlock: AJUNOK_clean_linker_0, # of connection points: 2
#     Edge 34, Type (0, 1), BuildingBlock: AJUNOK_clean_linker_0, # of connection points: 2
#     Edge 35, Type (0, 1), BuildingBlock: AJUNOK_clean_linker_0, # of connection points: 2
# Relax obj value: 0.153
# Max RMSD: 0.252
# Mean RMSD: 0.090
data_MOF--net-zzz--node1-OLANEW_clean_sbu_2--node2-GEDQOX_clean_sbu_0--edge1-AJUNOK_clean_linker_0
_symmetry_space_group_name_H-M    P1
_symmetry_Int_Tables_number       1
_symmetry_cell_setting            triclinic
loop_
_symmetry_equiv_pos_as_xyz
'x, y, z'
_cell_length_a     43.423184
_cell_length_b     43.10001
_cell_length_c     15.623485
_cell_angle_alpha  77.861278
_cell_angle_beta   89.651903
_cell_angle_gamma 103.19607
loop_
_atom_site_label
_atom_site_type_symbol
_atom_site_fract_x
_atom_site_fract_y
_atom_site_fract_z
_atom_type_partial_charge
O0 O 0.82431 0.53959 0.81182 0.0
Cd1 Cd 0.78518 0.57365 0.78443 0.0
O2 O 0.83368 0.55776 0.93177 0.0
Cd3 Cd 0.86324 0.5701 0.03741 0.0
O4 O 0.89168 0.58163 0.14564 0.0
C5 C 0.91816 0.57382 0.15246 0.0
O6 O 0.92788 0.56043 0.0925 0.0
C7 C 0.84086 0.54177 0.87806 0.0
C8 C 0.72308 0.55531 0.85923 0.0
O9 O 0.72965 0.54901 0.78548 0.0
O10 O 0.74623 0.5683 0.90063 0.0
O11 O 0.99665 0.81216 0.86182 0.0
Cd12 Cd 0.96757 0.75547 0.87117 0.0
O13 O 0.97722 0.81221 0.99194 0.0
Cd14 Cd 0.96852 0.83895 0.09086 0.0
O15 O 0.97019 0.87535 0.17032 0.0
C16 C 0.98671 0.87446 0.23724 0.0
O17 O 1.00163 0.85086 0.25854 0.0
C18 C 0.99369 0.82737 0.9217 0.0
C19 C 0.99762 0.70446 0.92726 0.0
O20 O 1.00144 0.72073 0.84767 0.0
O21 O 0.98069 0.7132 0.98117 0.0
O22 O 0.74765 0.01754 0.81503 0.0
Cd23 Cd 0.78213 0.98265 0.88537 0.0
O24 O 0.73229 0.00654 0.95343 0.0
Cd25 Cd 0.6981 0.00188 0.06043 0.0
O26 O 0.66179 0.99634 0.16219 0.0
C27 C 0.6573 0.97235 0.22757 0.0
O28 O 0.67504 0.95116 0.23252 0.0
C29 C 0.72847 0.01943 0.87445 0.0
C30 C 0.84812 0.00165 0.87174 0.0
O31 O 0.83305 0.98292 0.82438 0.0
O32 O 0.83202 0.01305 0.92144 0.0
O33 O 0.61801 0.8091 0.29951 0.0
Cd34 Cd 0.62989 0.8633 0.33052 0.0
O35 O 0.57666 0.80083 0.38884 0.0
Cd36 Cd 0.53779 0.76853 0.47491 0.0
O37 O 0.53131 0.72513 0.57857 0.0
C38 C 0.55527 0.71269 0.58481 0.0
O39 O 0.58011 0.72688 0.53057 0.0
C40 C 0.59278 0.7902 0.33823 0.0
C41 C 0.59151 0.89909 0.23275 0.0
O42 O 0.61797 0.89685 0.20089 0.0
O43 O 0.58313 0.88474 0.3127 0.0
O44 O 0.25975 0.5882 0.93026 0.0
Cd45 Cd 0.31419 0.6056 0.86346 0.0
O46 O 0.24801 0.54957 0.85581 0.0
Cd47 Cd 0.21261 0.51671 0.79686 0.0
O48 O 0.17806 0.49702 0.70926 0.0
C49 C 0.18595 0.50555 0.62777 0.0
O50 O 0.2142 0.52446 0.60258 0.0
C51 C 0.23934 0.56577 0.90681 0.0
C52 C 0.36068 0.57028 0.90743 0.0
O53 O 0.35774 0.59278 0.94695 0.0
O54 O 0.34041 0.56319 0.85101 0.0
O55 O 0.07664 0.26211 0.88259 0.0
Cd56 Cd 0.10075 0.32008 0.82257 0.0
O57 O 0.08446 0.26116 0.7446 0.0
Cd58 Cd 0.08446 0.23329 0.64277 0.0
O59 O 0.07614 0.19692 0.5621 0.0
C60 C 0.09868 0.18603 0.53719 0.0
O61 O 0.12755 0.19754 0.55905 0.0
C62 C 0.07468 0.24608 0.82242 0.0
C63 C 0.07464 0.36924 0.86256 0.0
O64 O 0.06224 0.35281 0.80674 0.0
O65 O 0.09834 0.36137 0.90264 0.0
O66 O 0.32852 0.05505 0.95928 0.0
Cd67 Cd 0.286 0.08253 0.97888 0.0
O68 O 0.34313 0.08607 0.82785 0.0
Cd69 Cd 0.37859 0.1026 0.71635 0.0
O70 O 0.41289 0.11149 0.60459 0.0
C71 C 0.43535 0.09683 0.60853 0.0
O72 O 0.43825 0.07649 0.68186 0.0
C73 C 0.348 0.06475 0.89277 0.0
C74 C 0.22688 0.06726 0.90852 0.0
O75 O 0.2325 0.05119 0.9833 0.0
O76 O 0.24985 0.08924 0.86493 0.0
O77 O 0.50239 0.2823 0.46111 0.0
Cd78 Cd 0.49324 0.23952 0.37951 0.0
O79 O 0.45143 0.27527 0.48991 0.0
Cd80 Cd 0.44518 0.26542 0.3594 0.0
O81 O 0.46113 0.30911 0.25484 0.0
C82 C 0.46133 0.33555 0.27912 0.0
O83 O 0.45055 0.33373 0.35919 0.0
C84 C 0.47991 0.28651 0.50644 0.0
C85 C 0.51238 0.18923 0.4919 0.0
O86 O 0.53075 0.20736 0.4272 0.0
O87 O 0.48465 0.1941 0.50079 0.0
Nd88 Nd 0.03326 0.04355 0.77405 0.0
Nd89 Nd 0.04453 0.03052 0.96621 0.0
C90 C 0.01087 0.04089 0.6183 0.0
C91 C 0.00788 0.01775 0.56001 0.0
C92 C 0.9798 0.01029 0.51709 0.0
C93 C 0.97596 0.98742 0.46415 0.0
C94 C 1.00045 0.97204 0.45178 0.0
C95 C 0.02854 0.97951 0.49543 0.0
C96 C 0.03212 0.00192 0.54967 0.0
C97 C 0.09599 0.05147 0.80989 0.0
C98 C 0.03197 0.96815 0.88105 0.0
C99 C 0.06398 0.03023 0.12645 0.0
C100 C 0.06928 0.05264 0.18707 0.0
C101 C 0.08512 0.08561 0.15843 0.0
C102 C 0.08956 0.10649 0.21701 0.0
C103 C 0.07793 0.09486 0.30478 0.0
C104 C 0.06205 0.06193 0.33314 0.0
C105 C 0.05781 0.04098 0.27479 0.0
C106 C 0.98218 0.02153 0.92671 0.0
C107 C 0.04487 0.10564 0.86089 0.0
O108 O 0.99311 0.03058 0.69119 0.0
O109 O 0.03953 0.05689 0.62913 0.0
O110 O 0.08567 0.07032 0.74618 0.0
O111 O 0.07371 0.02864 0.84953 0.0
O112 O 0.02221 0.98721 0.8143 0.0
O113 O 0.04626 0.98019 0.94517 0.0
O114 O 0.0833 0.03779 0.05664 0.0
O115 O 0.03451 0.01912 0.11023 0.0
O116 O 0.99264 0.00136 0.98649 0.0
O117 O 1.00407 0.04539 0.89074 0.0
O118 O 0.05587 0.08712 0.92651 0.0
O119 O 0.03039 0.09313 0.7977 0.0
H120 H 0.96061 0.02182 0.52557 0.0
H121 H 0.95359 0.98141 0.4342 0.0
H122 H 0.04787 0.96815 0.48728 0.0
H123 H 0.05387 0.00694 0.5832 0.0
H124 H 0.09397 0.09529 0.09084 0.0
H125 H 0.10173 0.13185 0.19349 0.0
H126 H 0.05323 0.0524 0.40063 0.0
H127 H 0.04553 0.01564 0.29807 0.0
Nd128 Nd 0.53049 0.01921 0.82185 0.0
Nd129 Nd 0.54688 0.06149 0.95195 0.0
C130 C 0.51305 0.97505 0.72639 0.0
C131 C 0.53024 0.96548 0.65861 0.0
C132 C 0.56142 0.96194 0.66979 0.0
C133 C 0.57955 0.95876 0.59949 0.0
C134 C 0.56704 0.95967 0.5166 0.0
C135 C 0.53525 0.96123 0.50686 0.0
C136 C 0.51699 0.96417 0.5774 0.0
C137 C 0.54586 0.08445 0.74386 0.0
C138 C 0.60461 0.04642 0.84477 0.0
C139 C 0.56231 0.10205 0.05931 0.0
C140 C 0.54719 0.103 0.14343 0.0
C141 C 0.55063 0.13254 0.17084 0.0
C142 C 0.53485 0.13345 0.24861 0.0
C143 C 0.51557 0.10477 0.30025 0.0
C144 C 0.5127 0.07519 0.27341 0.0
C145 C 0.52806 0.07438 0.19538 0.0
C146 C 0.53436 0.99504 0.02322 0.0
C147 C 0.47329 0.03918 0.91723 0.0
O148 O 0.52166 0.96791 0.80692 0.0
O149 O 0.50842 0.00453 0.70466 0.0
O150 O 0.55539 0.06216 0.71393 0.0
O151 O 0.52929 0.07196 0.81487 0.0
O152 O 0.58355 0.02212 0.82441 0.0
O153 O 0.59579 0.06831 0.88151 0.0
O154 O 0.54625 0.10834 0.98995 0.0
O155 O 0.57487 0.07721 0.05999 0.0
O156 O 0.52352 0.01549 0.05793 0.0
O157 O 0.55017 0.01015 0.95362 0.0
O158 O 0.49504 0.06203 0.94056 0.0
O159 O 0.48107 0.01603 0.88434 0.0
H160 H 0.57233 0.96314 0.73155 0.0
H161 H 0.60391 0.95735 0.60873 0.0
H162 H 0.52486 0.96128 0.44398 0.0
H163 H 0.49301 0.96696 0.56744 0.0
H164 H 0.56515 0.15492 0.13156 0.0
H165 H 0.53757 0.15654 0.26825 0.0
H166 H 0.49781 0.05279 0.31158 0.0
H167 H 0.52472 0.05135 0.17533 0.0
Nd168 Nd 0.5322 0.54581 0.03929 0.0
Nd169 Nd 0.53483 0.51491 0.86798 0.0
C170 C 0.51669 0.5737 0.16327 0.0
C171 C 0.52828 0.60429 0.19455 0.0
C172 C 0.51854 0.63277 0.15579 0.0
C173 C 0.52925 0.66164 0.18489 0.0
C174 C 0.54985 0.66278 0.25368 0.0
C175 C 0.55924 0.63426 0.29362 0.0
C176 C 0.54851 0.60527 0.26443 0.0
C177 C 0.59408 0.54632 0.9876 0.0
C178 C 0.54911 0.59285 0.84303 0.0
C179 C 0.55066 0.48345 0.75365 0.0
C180 C 0.53893 0.45209 0.72975 0.0
C181 C 0.55718 0.44254 0.6706 0.0
C182 C 0.54658 0.4125 0.64779 0.0
C183 C 0.51768 0.39151 0.68447 0.0
C184 C 0.49937 0.40123 0.74379 0.0
C185 C 0.51002 0.43137 0.76659 0.0
C186 C 0.4787 0.52991 0.9009 0.0
C187 C 0.51285 0.46553 0.06189 0.0
O188 O 0.50473 0.5767 0.08605 0.0
O189 O 0.53382 0.55185 0.17725 0.0
O190 O 0.58736 0.55677 0.05584 0.0
O191 O 0.5685 0.53651 0.95494 0.0
O192 O 0.5348 0.58868 0.92116 0.0
O193 O 0.55746 0.56882 0.81558 0.0
O194 O 0.56223 0.48192 0.83121 0.0
O195 O 0.5328 0.50445 0.73533 0.0
O196 O 0.48875 0.52872 0.82335 0.0
O197 O 0.49603 0.51905 0.95932 0.0
O198 O 0.51987 0.46898 0.97742 0.0
O199 O 0.51456 0.49079 0.09934 0.0
H200 H 0.50266 0.63287 0.10258 0.0
H201 H 0.52169 0.68327 0.15276 0.0
H202 H 0.57463 0.63429 0.34794 0.0
H203 H 0.55602 0.58363 0.29667 0.0
H204 H 0.57952 0.4584 0.64169 0.0
H205 H 0.56071 0.40596 0.60005 0.0
H206 H 0.47694 0.38551 0.77241 0.0
H207 H 0.49576 0.43856 0.8127 0.0
Nd208 Nd 0.04313 0.55819 0.83233 0.0
Nd209 Nd 0.02943 0.51418 0.01083 0.0
C210 C 0.04304 0.60062 0.68326 0.0
C211 C 0.02405 0.59848 0.60679 0.0
C212 C 0.02791 0.62508 0.53526 0.0
C213 C 0.01051 0.62212 0.46107 0.0
C214 C 0.98936 0.59244 0.45781 0.0
C215 C 0.98497 0.56619 0.53074 0.0
C216 C 1.00221 0.56919 0.60467 0.0
C217 C 0.04474 0.49449 0.83705 0.0
C218 C 0.96867 0.52353 0.90467 0.0
C219 C 0.03197 0.47116 0.15667 0.0
C220 C 0.05363 0.47386 0.22773 0.0
C221 C 0.05719 0.44606 0.28814 0.0
C222 C 0.07877 0.44911 0.35383 0.0
C223 C 0.09696 0.48004 0.35972 0.0
C224 C 0.09334 0.50775 0.29856 0.0
C225 C 0.07193 0.50468 0.23307 0.0
C226 C 0.02936 0.57836 0.00825 0.0
C227 C 0.10343 0.55064 0.93961 0.0
O228 O 0.02738 0.60056 0.75504 0.0
O229 O 0.06244 0.58117 0.69661 0.0
O230 O 0.06459 0.51944 0.7902 0.0
O231 O 0.0241 0.50334 0.87696 0.0
O232 O 0.98878 0.548 0.8527 0.0
O233 O 0.9788 0.50255 0.96557 0.0
O234 O 0.04512 0.47064 0.08169 0.0
O235 O 0.01262 0.49065 0.14795 0.0
O236 O 0.01048 0.55363 0.05917 0.0
O237 O 0.04884 0.56886 0.96604 0.0
O238 O 0.08399 0.52453 0.98758 0.0
O239 O 0.09223 0.57236 0.88404 0.0
H240 H 0.04462 0.64788 0.53633 0.0
H241 H 0.01414 0.64265 0.40549 0.0
H242 H 0.96837 0.54328 0.53019 0.0
H243 H 0.99881 0.54851 0.65986 0.0
H244 H 0.0435 0.42207 0.28409 0.0
H245 H 0.08152 0.4273 0.39927 0.0
H246 H 0.10692 0.53187 0.30184 0.0
H247 H 0.06968 0.52641 0.18631 0.0
C248 C 0.16981 0.03699 0.92497 0.0
C249 C 0.19422 0.06216 0.87694 0.0
C250 C 0.13824 0.03339 0.90182 0.0
C251 C 0.12972 0.0549 0.83013 0.0
H252 H 0.17498 0.02019 0.98191 0.0
H253 H 0.1203 0.01385 0.94148 0.0
S254 S 0.18445 0.12407 0.68039 0.0
N255 N 0.20759 0.10831 0.7519 0.0
N256 N 0.14826 0.1016 0.70922 0.0
C257 C 0.15386 0.07972 0.78022 0.0
C258 C 0.18608 0.08329 0.80342 0.0
C259 C 0.50833 0.15347 0.64142 0.0
C260 C 0.52298 0.16396 0.55638 0.0
C261 C 0.51722 0.12904 0.70358 0.0
C262 C 0.54081 0.11385 0.68266 0.0
H263 H 0.48958 0.16399 0.66004 0.0
H264 H 0.50464 0.1212 0.76736 0.0
S265 S 0.58677 0.13276 0.46938 0.0
N266 N 0.56275 0.15787 0.45503 0.0
N267 N 0.57926 0.11164 0.57146 0.0
C268 C 0.5562 0.12466 0.5985 0.0
C269 C 0.54733 0.14978 0.53543 0.0
C270 C 0.41568 0.57151 0.9567 0.0
C271 C 0.38876 0.55576 0.91901 0.0
C272 C 0.44444 0.5619 0.9549 0.0
C273 C 0.44723 0.53583 0.91714 0.0
H274 H 0.41519 0.5927 0.98317 0.0
H275 H 0.46503 0.57647 0.97759 0.0
S276 S 0.3835 0.4844 0.81704 0.0
N277 N 0.36647 0.51117 0.84785 0.0
N278 N 0.4205 0.49315 0.84567 0.0
C279 C 0.42027 0.5189 0.88291 0.0
C280 C 0.39101 0.52873 0.88402 0.0
C281 C 0.08826 0.42677 0.87986 0.0
C282 C 0.06487 0.39923 0.87098 0.0
C283 C 0.08123 0.45742 0.87026 0.0
C284 C 0.05035 0.46136 0.85554 0.0
H285 H 0.11264 0.42517 0.88814 0.0
H286 H 0.10031 0.47839 0.87185 0.0
S287 S 0.97993 0.39654 0.83683 0.0
N288 N 0.00919 0.37759 0.85114 0.0
N289 N 0.99571 0.43506 0.839 0.0
C290 C 0.0263 0.43376 0.85252 0.0
C291 C 0.03364 0.40269 0.85887 0.0
C292 C 0.90071 0.03766 0.88935 0.0
C293 C 0.88296 0.00762 0.87547 0.0
C294 C 0.93331 0.04257 0.90211 0.0
C295 C 0.94883 0.01717 0.90474 0.0
H296 H 0.88924 0.05737 0.89129 0.0
H297 H 0.94616 0.0659 0.91351 0.0
S298 S 0.91372 0.93447 0.86919 0.0
N299 N 0.88394 0.95272 0.86083 0.0
N300 N 0.94481 0.9616 0.88925 0.0
C301 C 0.93162 0.9873 0.88967 0.0
C302 C 0.89874 0.98261 0.87379 0.0
C303 C 0.55304 0.93504 0.21893 0.0
C304 C 0.5722 0.9191 0.17928 0.0
C305 C 0.53863 0.95816 0.16798 0.0
C306 C 0.54257 0.96558 0.07586 0.0
H307 H 0.55069 0.9311 0.28969 0.0
H308 H 0.52591 0.97156 0.2011 0.0
S309 S 0.58573 0.9261 0.94062 0.0
N310 N 0.59106 0.9093 0.04285 0.0
N311 N 0.56356 0.95197 0.9474 0.0
C312 C 0.55942 0.94766 0.03579 0.0
C313 C 0.5744 0.92463 0.08742 0.0
C314 C 0.68298 0.55307 0.9785 0.0
C315 C 0.68966 0.55015 0.89254 0.0
C316 C 0.65196 0.55133 0.00882 0.0
C317 C 0.62633 0.5466 0.9546 0.0
H318 H 0.70192 0.55721 0.02251 0.0
H319 H 0.64809 0.55401 0.07522 0.0
S320 S 0.63102 0.53903 0.72283 0.0
N321 N 0.66779 0.54284 0.75308 0.0
N322 N 0.60992 0.54011 0.80987 0.0
C323 C 0.6326 0.5435 0.86876 0.0
C324 C 0.66413 0.54511 0.83789 0.0
C325 C 0.99415 0.64968 0.02483 0.0
C326 C 0.0096 0.67444 0.954 0.0
C327 C 1.00177 0.61916 0.04387 0.0
C328 C 0.02526 0.61224 0.9936 0.0
H329 H 0.97501 0.65329 0.06354 0.0
H330 H 0.98851 0.60053 0.09696 0.0
S331 S 0.07642 0.67046 0.8106 0.0
N332 N 0.05187 0.69116 0.83922 0.0
N333 N 0.06679 0.63405 0.87713 0.0
C334 C 0.0425 0.6375 0.92671 0.0
C335 C 0.03444 0.6685 0.90628 0.0
C336 C 0.07683 0.19038 0.9055 0.0
C337 C 0.06303 0.21024 0.84154 0.0
C338 C 0.07007 0.15638 0.9133 0.0
C339 C 0.04926 0.14114 0.85741 0.0
H340 H 0.09412 0.20131 0.94678 0.0
H341 H 0.08217 0.14218 0.96138 0.0
S342 S 1.00333 0.1825 0.68853 0.0
N343 N 0.02495 0.21232 0.72879 0.0
N344 N 0.01231 0.14873 0.74222 0.0
C345 C 0.0339 0.16079 0.79674 0.0
C346 C 0.04075 0.19526 0.78923 0.0
C347 C 0.40627 0.08197 0.88515 0.0
C348 C 0.37904 0.05634 0.8977 0.0
C349 C 0.43638 0.07581 0.89358 0.0
C350 C 0.44059 0.04371 0.91338 0.0
H351 H 0.40426 0.10713 0.86999 0.0
H352 H 0.4566 0.09653 0.88283 0.0
S353 S 0.37673 0.96792 0.95287 0.0
N354 N 0.35775 0.99764 0.93287 0.0
N355 N 0.41492 0.98585 0.94533 0.0
C356 C 0.41357 0.01771 0.92549 0.0
C357 C 0.38262 0.02408 0.91892 0.0
C358 C 0.46635 0.3281 0.57971 0.0
C359 C 0.48714 0.30845 0.56799 0.0
C360 C 0.47569 0.35391 0.62256 0.0
C361 C 0.50597 0.36064 0.65554 0.0
H362 H 0.44355 0.32493 0.5507 0.0
H363 H 0.45985 0.36986 0.62509 0.0
S364 S 0.56639 0.31208 0.65806 0.0
N365 N 0.53739 0.29444 0.60385 0.0
N366 N 0.55468 0.34263 0.68592 0.0
C367 C 0.5258 0.33938 0.65113 0.0
C368 C 0.51643 0.31332 0.60698 0.0
C369 C 0.19176 0.589 0.90471 0.0
C370 C 0.20527 0.56191 0.92739 0.0
C371 C 0.15882 0.58531 0.91151 0.0
C372 C 0.13825 0.5545 0.94331 0.0
H373 H 0.20664 0.61299 0.87754 0.0
H374 H 0.14938 0.60669 0.88992 0.0
S375 S 0.16257 0.47645 0.02028 0.0
N376 N 0.19617 0.50373 0.98751 0.0
N377 N 0.1344 0.49677 0.00456 0.0
C378 C 0.15179 0.52752 0.97114 0.0
C379 C 0.18526 0.53121 0.96193 0.0
C380 C 0.02069 0.87717 0.97432 0.0
C381 C 1.00668 0.86305 0.90648 0.0
C382 C 0.02976 0.91116 0.96448 0.0
C383 C 0.02517 0.93238 0.88626 0.0
H384 H 0.02427 0.86181 0.03608 0.0
H385 H 0.03963 0.92076 0.01972 0.0
S386 S 0.99151 0.90733 0.68622 0.0
N387 N 0.99022 0.87259 0.75679 0.0
N388 N 0.00735 0.93643 0.73749 0.0
C389 C 0.01238 0.91845 0.81644 0.0
C390 C 1.00324 0.88381 0.82662 0.0
C391 C 0.68904 0.04989 0.90878 0.0
C392 C 0.70003 0.03249 0.85309 0.0
C393 C 0.65893 0.05669 0.90116 0.0
C394 C 0.63859 0.046 0.83809 0.0
H395 H 0.7033 0.05715 0.96105 0.0
H396 H 0.65083 0.0685 0.94876 0.0
S397 S 0.65809 0.00387 0.66809 0.0
N398 N 0.6898 0.00813 0.7263 0.0
N399 N 0.63309 0.02055 0.71229 0.0
C400 C 0.65026 0.03072 0.77788 0.0
C401 C 0.68107 0.02416 0.78508 0.0
C402 C 0.55002 0.74284 0.31909 0.0
C403 C 0.58242 0.75656 0.32412 0.0
C404 C 0.53969 0.71213 0.29867 0.0
C405 C 0.56135 0.69391 0.28266 0.0
H406 H 0.53253 0.75642 0.32769 0.0
H407 H 0.51452 0.70276 0.29403 0.0
S408 S 0.64874 0.71856 0.29013 0.0
N409 N 0.6361 0.74931 0.31373 0.0
N410 N 0.61669 0.69161 0.27472 0.0
C411 C 0.59378 0.70702 0.28943 0.0
C412 C 0.60432 0.7384 0.30984 0.0
C413 C 0.89281 0.54159 0.81037 0.0
C414 C 0.87114 0.53131 0.88357 0.0
C415 C 0.92383 0.53729 0.81689 0.0
C416 C 0.93425 0.52188 0.89642 0.0
H417 H 0.88635 0.55478 0.74877 0.0
H418 H 0.94012 0.5472 0.75971 0.0
S419 S 0.88478 0.48574 0.10359 0.0
N420 N 0.86094 0.50212 0.03554 0.0
N421 N 0.91896 0.49289 0.04735 0.0
C422 C 0.91196 0.50912 0.9683 0.0
C423 C 0.88051 0.51424 0.9621 0.0
C424 C 0.11812 0.15743 0.43179 0.0
C425 C 0.09277 0.16169 0.48114 0.0
C426 C 0.11309 0.13573 0.3751 0.0
C427 C 0.08261 0.11711 0.36661 0.0
H428 H 0.14202 0.17139 0.43561 0.0
H429 H 0.13325 0.13344 0.33776 0.0
S430 S 0.00831 0.11822 0.48296 0.0
N431 N 0.03604 0.14472 0.51916 0.0
N432 N 0.02675 0.10388 0.41275 0.0
C433 C 0.05713 0.12057 0.41672 0.0
C434 C 0.06216 0.1429 0.47386 0.0
C435 C 0.47956 0.082 0.53382 0.0
C436 C 0.45698 0.10106 0.53036 0.0
C437 C 0.499 0.08396 0.45987 0.0
C438 C 0.49707 0.10545 0.37988 0.0
H439 H 0.48194 0.06494 0.59369 0.0
H440 H 0.51554 0.06834 0.46511 0.0
S441 S 0.44302 0.16156 0.33576 0.0
N442 N 0.43444 0.14267 0.43947 0.0
N443 N 0.47154 0.14671 0.3016 0.0
C444 C 0.47539 0.12535 0.37592 0.0
C445 C 0.45519 0.12303 0.45074 0.0
C446 C 0.47812 0.39628 0.25576 0.0
C447 C 0.47466 0.36806 0.22128 0.0
C448 C 0.49083 0.42745 0.2042 0.0
C449 C 0.50063 0.4319 0.11559 0.0
H450 H 0.47102 0.39442 0.32359 0.0
H451 H 0.49273 0.4482 0.23437 0.0
S452 S 0.49695 0.36587 0.99322 0.0
N453 N 0.4823 0.34652 0.09287 0.0
N454 N 0.50625 0.40499 0.9956 0.0
C455 C 0.49751 0.40382 0.08015 0.0
C456 C 0.48454 0.37199 0.13297 0.0
C457 C 0.17202 0.50915 0.47159 0.0
C458 C 0.16327 0.49645 0.56131 0.0
C459 C 0.15069 0.50307 0.40693 0.0
C460 C 0.11976 0.48388 0.42917 0.0
H461 H 0.1954 0.52448 0.45074 0.0
H462 H 0.15839 0.51374 0.33886 0.0
S463 S 0.08497 0.44396 0.65316 0.0
N464 N 0.12147 0.46281 0.66847 0.0
N465 N 0.0814 0.45173 0.54624 0.0
C466 C 0.11082 0.47032 0.51809 0.0
C467 C 0.13253 0.47654 0.58429 0.0
C468 C 1.003 0.895 0.37236 0.0
C469 C 0.98952 0.89972 0.2903 0.0
C470 C 1.00635 0.91842 0.42385 0.0
C471 C 0.99656 0.94768 0.39533 0.0
H472 H 0.01088 0.8729 0.39766 0.0
H473 H 0.01643 0.91333 0.48706 0.0
S474 S 0.96091 0.97267 0.18402 0.0
N475 N 0.96669 0.93626 0.18222 0.0
N476 N 0.97385 0.98063 0.27799 0.0
C477 C 0.98331 0.95291 0.313 0.0
C478 C 0.97961 0.9289 0.26079 0.0
C479 C 0.63016 0.9436 0.374 0.0
C480 C 0.63303 0.96877 0.29845 0.0
C481 C 0.60814 0.9402 0.44324 0.0
C482 C 0.58813 0.96181 0.43959 0.0
H483 H 0.64519 0.92644 0.38027 0.0
H484 H 0.60695 0.92065 0.50043 0.0
S485 S 0.5863 0.03211 0.25782 0.0
N486 N 0.61363 0.01563 0.22438 0.0
N487 N 0.57281 0.00956 0.35546 0.0
C488 C 0.5905 0.98692 0.3644 0.0
C489 C 0.61284 0.99036 0.29373 0.0
C490 C 0.53378 0.6736 0.72538 0.0
C491 C 0.55533 0.68289 0.65186 0.0
C492 C 0.53288 0.64512 0.78894 0.0
C493 C 0.55321 0.62463 0.78068 0.0
H494 H 0.51733 0.68836 0.73384 0.0
H495 H 0.51539 0.63862 0.8434 0.0
S496 S 0.61474 0.63847 0.60179 0.0
N497 N 0.59813 0.66978 0.57561 0.0
N498 N 0.59633 0.61617 0.69485 0.0
C499 C 0.57531 0.63393 0.70834 0.0
C500 C 0.5764 0.66309 0.644 0.0
C501 C 0.93559 0.60455 0.26941 0.0
C502 C 0.93723 0.57881 0.2284 0.0
C503 C 0.95314 0.6094 0.34251 0.0
C504 C 0.97242 0.5883 0.37776 0.0
H505 H 0.92074 0.62113 0.24468 0.0
H506 H 0.95109 0.62931 0.37281 0.0
S507 S 0.98494 0.51739 0.29516 0.0
N508 N 0.9599 0.53213 0.22835 0.0
N509 N 0.99271 0.54127 0.36594 0.0
C510 C 0.97445 0.56268 0.33709 0.0
C511 C 0.9569 0.55793 0.26229 0.0
loop_
_geom_bond_atom_site_label_1
_geom_bond_atom_site_label_2
_geom_bond_distance
_geom_bond_site_symmetry_2
_ccdc_geom_bond_type
O0 Cd1 2.300 . S
O0 C7 1.275 . S
Cd1 O0 2.300 . S
Cd1 O9 2.381 . S
Cd1 O10 2.378 . S
O2 Cd3 2.385 1_556 S
O2 C7 1.255 . S
Cd3 O2 2.385 1_554 S
Cd3 O4 2.317 . S
O4 Cd3 2.317 . S
O4 C5 1.232 . S
C5 O4 1.232 . S
C5 O6 1.218 . S
O6 C5 1.218 . S
C7 O0 1.275 . S
C7 O2 1.255 . S
C8 O9 1.258 . S
C8 O10 1.256 . S
O9 Cd1 2.381 . S
O9 C8 1.258 . S
O10 Cd1 2.378 . S
O10 C8 1.256 . S
O11 Cd12 2.300 1_556 S
O11 C18 1.275 . S
Cd12 O11 2.300 1_554 S
Cd12 O20 2.381 1_554 S
Cd12 O21 2.378 . S
O13 Cd14 2.385 1_655 S
O13 C18 1.255 1_554 S
Cd14 O13 2.385 1_455 S
Cd14 O15 2.317 1_455 S
O15 Cd14 2.317 1_655 S
O15 C16 1.232 . S
C16 O15 1.232 . S
C16 O17 1.225 . S
O17 C16 1.225 . S
C18 O11 1.275 . S
C18 O13 1.255 1_556 S
C19 O20 1.258 1_554 S
C19 O21 1.256 . S
O20 Cd12 2.381 1_556 S
O20 C19 1.258 1_556 S
O21 Cd12 2.378 . S
O21 C19 1.256 . S
O22 Cd23 2.300 . S
O22 C29 1.275 . S
Cd23 O22 2.300 . S
Cd23 O31 2.381 . S
Cd23 O32 2.378 1_565 S
O24 Cd25 2.385 1_556 S
O24 C29 1.255 1_545 S
Cd25 O24 2.385 1_554 S
Cd25 O26 2.317 1_545 S
O26 Cd25 2.317 1_565 S
O26 C27 1.232 . S
C27 O26 1.232 . S
C27 O28 1.218 1_565 S
O28 C27 1.218 1_545 S
C29 O22 1.275 . S
C29 O24 1.255 1_565 S
C30 O31 1.258 . S
C30 O32 1.256 1_565 S
O31 Cd23 2.381 . S
O31 C30 1.258 . S
O32 Cd23 2.378 1_545 S
O32 C30 1.256 1_545 S
O33 Cd34 2.300 . S
O33 C40 1.275 . S
Cd34 O33 2.300 . S
Cd34 O42 2.381 . S
Cd34 O43 2.378 . S
O35 Cd36 2.385 . S
O35 C40 1.255 . S
Cd36 O35 2.385 . S
Cd36 O37 2.317 . S
O37 Cd36 2.317 . S
O37 C38 1.232 . S
C38 O37 1.232 . S
C38 O39 1.218 . S
O39 C38 1.218 . S
C40 O33 1.275 . S
C40 O35 1.255 . S
C41 O42 1.258 . S
C41 O43 1.256 . S
O42 Cd34 2.381 . S
O42 C41 1.258 . S
O43 Cd34 2.378 . S
O43 C41 1.256 . S
O44 Cd45 2.300 . S
O44 C51 1.275 . S
Cd45 O44 2.300 . S
Cd45 O53 2.381 . S
Cd45 O54 2.378 . S
O46 Cd47 2.385 . S
O46 C51 1.255 . S
Cd47 O46 2.385 . S
Cd47 O48 2.317 . S
O48 Cd47 2.317 . S
O48 C49 1.232 . S
C49 O48 1.232 . S
C49 O50 1.218 . S
O50 C49 1.218 . S
C51 O44 1.275 . S
C51 O46 1.255 . S
C52 O53 1.258 . S
C52 O54 1.256 . S
O53 Cd45 2.381 . S
O53 C52 1.258 . S
O54 Cd45 2.378 . S
O54 C52 1.256 . S
O55 Cd56 2.300 . S
O55 C62 1.275 . S
Cd56 O55 2.300 . S
Cd56 O64 2.381 . S
Cd56 O65 2.378 . S
O57 Cd58 2.385 . S
O57 C62 1.255 . S
Cd58 O57 2.385 . S
Cd58 O59 2.317 . S
O59 Cd58 2.317 . S
O59 C60 1.232 . S
C60 O59 1.232 . S
C60 O61 1.218 . S
O61 C60 1.218 . S
C62 O55 1.275 . S
C62 O57 1.255 . S
C63 O64 1.258 . S
C63 O65 1.256 . S
O64 Cd56 2.381 . S
O64 C63 1.258 . S
O65 Cd56 2.378 . S
O65 C63 1.256 . S
O66 Cd67 2.300 . S
O66 C73 1.275 . S
Cd67 O66 2.300 . S
Cd67 O75 2.381 . S
Cd67 O76 2.378 . S
O68 Cd69 2.385 . S
O68 C73 1.255 . S
Cd69 O68 2.385 . S
Cd69 O70 2.317 . S
O70 Cd69 2.317 . S
O70 C71 1.232 . S
C71 O70 1.232 . S
C71 O72 1.218 . S
O72 C71 1.218 . S
C73 O66 1.275 . S
C73 O68 1.255 . S
C74 O75 1.258 . S
C74 O76 1.256 . S
O75 Cd67 2.381 . S
O75 C74 1.258 . S
O76 Cd67 2.378 . S
O76 C74 1.256 . S
O77 Cd78 2.300 . S
O77 C84 1.275 . S
Cd78 O77 2.300 . S
Cd78 O86 2.381 . S
Cd78 O87 2.378 . S
O79 Cd80 2.385 . S
O79 C84 1.255 . S
Cd80 O79 2.385 . S
Cd80 O81 2.317 . S
O81 Cd80 2.317 . S
O81 C82 1.232 . S
C82 O81 1.232 . S
C82 O83 1.218 . S
O83 C82 1.218 . S
C84 O77 1.275 . S
C84 O79 1.255 . S
C85 O86 1.258 . S
C85 O87 1.256 . S
O86 Cd78 2.381 . S
O86 C85 1.258 . S
O87 Cd78 2.378 . S
O87 C85 1.256 . S
Nd88 C90 2.836 1_545 S
Nd88 O108 2.500 1_445 S
Nd88 O109 2.492 . S
Nd88 O110 2.487 . S
Nd88 O111 2.682 . S
Nd88 O112 2.410 1_545 S
Nd88 O117 2.414 1_455 S
Nd88 O119 2.424 . S
Nd89 C99 2.836 . S
Nd89 O111 2.414 1_554 S
Nd89 O113 2.424 1_545 S
Nd89 O114 2.500 . S
Nd89 O115 2.492 . S
Nd89 O116 2.487 1_455 S
Nd89 O117 2.682 1_454 S
Nd89 O118 2.410 1_554 S
C90 Nd88 2.836 1_565 S
C90 C91 1.498 . S
C90 O108 1.258 1_455 S
C90 O109 1.239 1_565 S
C91 C90 1.498 . S
C91 C92 1.366 1_455 S
C91 C96 1.407 . S
C92 C91 1.366 1_655 S
C92 C93 1.392 . S
C92 H120 0.930 . S
C93 C92 1.392 . S
C93 C94 1.398 . S
C93 H121 0.929 . S
C94 C93 1.398 . S
C94 C95 1.352 1_655 S
C95 C94 1.352 1_455 S
C95 C96 1.384 . S
C95 H122 0.930 . S
C96 C91 1.407 . S
C96 C95 1.384 . S
C96 H123 0.929 . S
C97 O110 1.241 . S
C97 O111 1.273 . S
C98 O112 1.251 . S
C98 O113 1.268 1_556 S
C99 Nd89 2.836 . S
C99 C100 1.498 . S
C99 O114 1.258 . S
C99 O115 1.239 . S
C100 C99 1.498 . S
C100 C101 1.366 . S
C100 C105 1.407 . S
C101 C100 1.366 . S
C101 C102 1.392 . S
C101 H124 0.930 . S
C102 C101 1.392 . S
C102 C103 1.398 . S
C102 H125 0.929 . S
C103 C102 1.398 . S
C103 C104 1.352 . S
C104 C103 1.352 . S
C104 C105 1.384 . S
C104 H126 0.930 . S
C105 C100 1.407 . S
C105 C104 1.384 . S
C105 H127 0.929 . S
C106 O116 1.241 1_556 S
C106 O117 1.273 . S
C107 O118 1.251 . S
C107 O119 1.268 . S
O108 Nd88 2.500 1_665 S
O108 C90 1.258 1_655 S
O109 Nd88 2.492 . S
O109 C90 1.239 1_545 S
O110 Nd88 2.487 . S
O110 C97 1.241 . S
O111 Nd88 2.682 . S
O111 Nd89 2.414 1_556 S
O111 C97 1.273 . S
O112 Nd88 2.410 1_565 S
O112 C98 1.251 . S
O113 Nd89 2.424 1_565 S
O113 C98 1.268 1_554 S
O114 Nd89 2.500 . S
O114 C99 1.258 . S
O115 Nd89 2.492 . S
O115 C99 1.239 . S
O116 Nd89 2.487 1_655 S
O116 C106 1.241 1_554 S
O117 Nd88 2.414 1_655 S
O117 Nd89 2.682 1_656 S
O117 C106 1.273 . S
O118 Nd89 2.410 1_556 S
O118 C107 1.251 . S
O119 Nd88 2.424 . S
O119 C107 1.268 . S
H120 C92 0.930 . S
H121 C93 0.929 . S
H122 C95 0.930 . S
H123 C96 0.929 . S
H124 C101 0.930 . S
H125 C102 0.929 . S
H126 C104 0.930 . S
H127 C105 0.929 . S
Nd128 C130 2.824 1_545 S
Nd128 O148 2.500 1_545 S
Nd128 O149 2.492 . S
Nd128 O150 2.487 . S
Nd128 O151 2.682 . S
Nd128 O152 2.410 . S
Nd128 O157 2.420 . S
Nd128 O159 2.424 . S
Nd129 C139 2.836 . S
Nd129 O151 2.414 1_554 S
Nd129 O153 2.424 1_554 S
Nd129 O154 2.500 . S
Nd129 O155 2.492 . S
Nd129 O156 2.487 1_545 S
Nd129 O157 2.715 1_554 S
Nd129 O158 2.410 1_554 S
C130 Nd128 2.824 1_565 S
C130 C131 1.510 . S
C130 O148 1.265 . S
C130 O149 1.221 1_565 S
C131 C130 1.510 . S
C131 C132 1.366 . S
C131 C136 1.407 1_565 S
C132 C131 1.366 . S
C132 C133 1.392 . S
C132 H160 0.930 . S
C133 C132 1.392 . S
C133 C134 1.398 . S
C133 H161 0.929 . S
C134 C133 1.398 . S
C134 C135 1.352 . S
C135 C134 1.352 . S
C135 C136 1.384 1_565 S
C135 H162 0.930 1_565 S
C136 C131 1.407 1_545 S
C136 C135 1.384 1_545 S
C136 H163 0.929 . S
C137 O150 1.241 . S
C137 O151 1.273 . S
C138 O152 1.251 . S
C138 O153 1.268 . S
C139 Nd129 2.836 . S
C139 C140 1.498 . S
C139 O154 1.258 . S
C139 O155 1.239 . S
C140 C139 1.498 . S
C140 C141 1.366 . S
C140 C145 1.407 . S
C141 C140 1.366 . S
C141 C142 1.392 . S
C141 H164 0.930 . S
C142 C141 1.392 . S
C142 C143 1.398 . S
C142 H165 0.929 . S
C143 C142 1.398 . S
C143 C144 1.352 . S
C144 C143 1.352 . S
C144 C145 1.384 . S
C144 H166 0.930 . S
C145 C140 1.407 . S
C145 C144 1.384 . S
C145 H167 0.929 . S
C146 O156 1.241 . S
C146 O157 1.260 1_564 S
C147 O158 1.251 . S
C147 O159 1.268 . S
O148 Nd128 2.500 1_565 S
O148 C130 1.265 . S
O149 Nd128 2.492 . S
O149 C130 1.221 1_545 S
O150 Nd128 2.487 . S
O150 C137 1.241 . S
O151 Nd128 2.682 . S
O151 Nd129 2.414 1_556 S
O151 C137 1.273 . S
O152 Nd128 2.410 . S
O152 C138 1.251 . S
O153 Nd129 2.424 1_556 S
O153 C138 1.268 . S
O154 Nd129 2.500 . S
O154 C139 1.258 . S
O155 Nd129 2.492 . S
O155 C139 1.239 . S
O156 Nd129 2.487 1_565 S
O156 C146 1.241 . S
O157 Nd128 2.420 . S
O157 Nd129 2.715 1_556 S
O157 C146 1.260 1_546 S
O158 Nd129 2.410 1_556 S
O158 C147 1.251 . S
O159 Nd128 2.424 . S
O159 C147 1.268 . S
H160 C132 0.930 . S
H161 C133 0.929 . S
H162 C135 0.930 1_545 S
H163 C136 0.929 . S
H164 C141 0.930 . S
H165 C142 0.929 . S
H166 C144 0.930 . S
H167 C145 0.929 . S
Nd168 C170 2.836 . S
Nd168 O188 2.500 . S
Nd168 O189 2.492 . S
Nd168 O190 2.487 . S
Nd168 O191 2.682 1_554 S
Nd168 O192 2.410 1_554 S
Nd168 O197 2.414 1_554 S
Nd168 O199 2.424 . S
Nd169 C179 2.836 . S
Nd169 O191 2.414 . S
Nd169 O193 2.424 . S
Nd169 O194 2.500 . S
Nd169 O195 2.492 . S
Nd169 O196 2.487 . S
Nd169 O197 2.682 . S
Nd169 O198 2.410 . S
C170 Nd168 2.836 . S
C170 C171 1.498 . S
C170 O188 1.258 . S
C170 O189 1.239 . S
C171 C170 1.498 . S
C171 C172 1.366 . S
C171 C176 1.407 . S
C172 C171 1.366 . S
C172 C173 1.392 . S
C172 H200 0.930 . S
C173 C172 1.392 . S
C173 C174 1.398 . S
C173 H201 0.929 . S
C174 C173 1.398 . S
C174 C175 1.352 . S
C175 C174 1.352 . S
C175 C176 1.384 . S
C175 H202 0.930 . S
C176 C171 1.407 . S
C176 C175 1.384 . S
C176 H203 0.929 . S
C177 O190 1.238 1_556 S
C177 O191 1.273 . S
C178 O192 1.251 . S
C178 O193 1.268 . S
C179 Nd169 2.836 . S
C179 C180 1.498 . S
C179 O194 1.258 . S
C179 O195 1.239 . S
C180 C179 1.498 . S
C180 C181 1.366 . S
C180 C185 1.407 . S
C181 C180 1.366 . S
C181 C182 1.392 . S
C181 H204 0.930 . S
C182 C181 1.392 . S
C182 C183 1.398 . S
C182 H205 0.929 . S
C183 C182 1.398 . S
C183 C184 1.352 . S
C184 C183 1.352 . S
C184 C185 1.384 . S
C184 H206 0.930 . S
C185 C180 1.407 . S
C185 C184 1.384 . S
C185 H207 0.929 . S
C186 O196 1.241 . S
C186 O197 1.273 . S
C187 O198 1.251 . S
C187 O199 1.268 1_556 S
O188 Nd168 2.500 . S
O188 C170 1.258 . S
O189 Nd168 2.492 . S
O189 C170 1.239 . S
O190 Nd168 2.487 . S
O190 C177 1.238 1_554 S
O191 Nd168 2.682 1_556 S
O191 Nd169 2.414 . S
O191 C177 1.273 . S
O192 Nd168 2.410 1_556 S
O192 C178 1.251 . S
O193 Nd169 2.424 . S
O193 C178 1.268 . S
O194 Nd169 2.500 . S
O194 C179 1.258 . S
O195 Nd169 2.492 . S
O195 C179 1.239 . S
O196 Nd169 2.487 . S
O196 C186 1.241 . S
O197 Nd168 2.414 1_556 S
O197 Nd169 2.682 . S
O197 C186 1.273 . S
O198 Nd169 2.410 . S
O198 C187 1.251 . S
O199 Nd168 2.424 . S
O199 C187 1.268 1_554 S
H200 C172 0.930 . S
H201 C173 0.929 . S
H202 C175 0.930 . S
H203 C176 0.929 . S
H204 C181 0.930 . S
H205 C182 0.929 . S
H206 C184 0.930 . S
H207 C185 0.929 . S
Nd208 C210 2.836 1_455 S
Nd208 O228 2.500 1_455 S
Nd208 O229 2.492 1_455 S
Nd208 O230 2.487 . S
Nd208 O231 2.682 . S
Nd208 O232 2.410 1_455 S
Nd208 O237 2.414 . S
Nd208 O239 2.424 . S
Nd209 C219 2.836 . S
Nd209 O231 2.414 1_554 S
Nd209 O233 2.424 1_455 S
Nd209 O234 2.500 . S
Nd209 O235 2.492 . S
Nd209 O236 2.487 . S
Nd209 O237 2.682 1_554 S
Nd209 O238 2.410 1_554 S
C210 Nd208 2.836 1_655 S
C210 C211 1.498 . S
C210 O228 1.258 . S
C210 O229 1.239 . S
C211 C210 1.498 . S
C211 C212 1.366 . S
C211 C216 1.407 . S
C212 C211 1.366 . S
C212 C213 1.392 . S
C212 H240 0.930 . S
C213 C212 1.392 . S
C213 C214 1.398 . S
C213 H241 0.929 . S
C214 C213 1.398 . S
C214 C215 1.352 . S
C215 C214 1.352 . S
C215 C216 1.384 . S
C215 H242 0.930 . S
C216 C211 1.407 . S
C216 C215 1.384 . S
C216 H243 0.929 . S
C217 O230 1.241 . S
C217 O231 1.273 . S
C218 O232 1.251 . S
C218 O233 1.269 1_556 S
C219 Nd209 2.836 . S
C219 C220 1.498 . S
C219 O234 1.258 . S
C219 O235 1.239 . S
C220 C219 1.498 . S
C220 C221 1.366 . S
C220 C225 1.407 . S
C221 C220 1.366 . S
C221 C222 1.392 . S
C221 H244 0.930 . S
C222 C221 1.392 . S
C222 C223 1.398 . S
C222 H245 0.929 . S
C223 C222 1.398 . S
C223 C224 1.352 . S
C224 C223 1.352 . S
C224 C225 1.384 . S
C224 H246 0.930 . S
C225 C220 1.407 . S
C225 C224 1.384 . S
C225 H247 0.929 . S
C226 O236 1.241 1_556 S
C226 O237 1.273 . S
C227 O238 1.251 . S
C227 O239 1.268 . S
O228 Nd208 2.500 1_655 S
O228 C210 1.258 . S
O229 Nd208 2.492 1_655 S
O229 C210 1.239 . S
O230 Nd208 2.487 . S
O230 C217 1.241 . S
O231 Nd208 2.682 . S
O231 Nd209 2.414 1_556 S
O231 C217 1.273 . S
O232 Nd208 2.410 1_655 S
O232 C218 1.251 . S
O233 Nd209 2.424 1_655 S
O233 C218 1.269 1_554 S
O234 Nd209 2.500 . S
O234 C219 1.258 . S
O235 Nd209 2.492 . S
O235 C219 1.239 . S
O236 Nd209 2.487 . S
O236 C226 1.241 1_554 S
O237 Nd208 2.414 . S
O237 Nd209 2.682 1_556 S
O237 C226 1.273 . S
O238 Nd209 2.410 1_556 S
O238 C227 1.251 . S
O239 Nd208 2.424 . S
O239 C227 1.268 . S
H240 C212 0.930 . S
H241 C213 0.929 . S
H242 C215 0.930 . S
H243 C216 0.929 . S
H244 C221 0.930 . S
H245 C222 0.929 . S
H246 C224 0.930 . S
H247 C225 0.929 . S
C248 C249 1.369 . S
C248 C250 1.419 . S
C248 H252 0.930 1_556 S
C249 C248 1.369 . S
C249 C258 1.429 . S
C250 C248 1.419 . S
C250 C251 1.363 . S
C250 H253 0.929 1_556 S
C251 C250 1.363 . S
C251 C257 1.428 . S
H252 C248 0.930 1_554 S
H253 C250 0.929 1_554 S
S254 N255 1.613 . S
S254 N256 1.610 . S
N255 S254 1.613 . S
N255 C258 1.350 . S
N256 S254 1.610 . S
N256 C257 1.351 . S
C257 C251 1.428 . S
C257 N256 1.351 . S
C257 C258 1.434 . S
C258 C249 1.429 . S
C258 N255 1.350 . S
C258 C257 1.434 . S
C259 C260 1.369 . S
C259 C261 1.419 . S
C259 H263 0.930 . S
C260 C259 1.369 . S
C260 C269 1.429 . S
C261 C259 1.419 . S
C261 C262 1.363 . S
C261 H264 0.929 . S
C262 C261 1.363 . S
C262 C268 1.428 . S
H263 C259 0.930 . S
H264 C261 0.929 . S
S265 N266 1.613 . S
S265 N267 1.610 . S
N266 S265 1.613 . S
N266 C269 1.350 . S
N267 S265 1.610 . S
N267 C268 1.351 . S
C268 C262 1.428 . S
C268 N267 1.351 . S
C268 C269 1.434 . S
C269 C260 1.429 . S
C269 N266 1.350 . S
C269 C268 1.434 . S
C270 C271 1.369 . S
C270 C272 1.419 . S
C270 H274 0.930 . S
C271 C270 1.369 . S
C271 C280 1.429 . S
C272 C270 1.419 . S
C272 C273 1.363 . S
C272 H275 0.929 . S
C273 C272 1.363 . S
C273 C279 1.428 . S
H274 C270 0.930 . S
H275 C272 0.929 . S
S276 N277 1.613 1_554 S
S276 N278 1.610 1_554 S
N277 S276 1.613 1_556 S
N277 C280 1.350 . S
N278 S276 1.610 1_556 S
N278 C279 1.351 . S
C279 C273 1.428 . S
C279 N278 1.351 . S
C279 C280 1.434 . S
C280 C271 1.429 . S
C280 N277 1.350 . S
C280 C279 1.434 . S
C281 C282 1.369 . S
C281 C283 1.419 . S
C281 H285 0.930 . S
C282 C281 1.369 . S
C282 C291 1.429 . S
C283 C281 1.419 . S
C283 C284 1.363 . S
C283 H286 0.929 . S
C284 C283 1.363 . S
C284 C290 1.428 . S
H285 C281 0.930 . S
H286 C283 0.929 . S
S287 N288 1.613 1_655 S
S287 N289 1.611 . S
N288 S287 1.613 1_455 S
N288 C291 1.350 . S
N289 S287 1.611 . S
N289 C290 1.326 1_655 S
C290 C284 1.428 . S
C290 N289 1.326 1_455 S
C290 C291 1.434 . S
C291 C282 1.429 . S
C291 N288 1.350 . S
C291 C290 1.434 . S
C292 C293 1.369 1_545 S
C292 C294 1.419 . S
C292 H296 0.930 . S
C293 C292 1.369 1_565 S
C293 C302 1.429 . S
C294 C292 1.419 . S
C294 C295 1.363 . S
C294 H297 0.929 . S
C295 C294 1.363 . S
C295 C301 1.428 1_545 S
H296 C292 0.930 . S
H297 C294 0.929 . S
S298 N299 1.613 . S
S298 N300 1.610 . S
N299 S298 1.613 . S
N299 C302 1.350 . S
N300 S298 1.610 . S
N300 C301 1.351 . S
C301 C295 1.428 1_565 S
C301 N300 1.351 . S
C301 C302 1.434 . S
C302 C293 1.429 . S
C302 N299 1.350 . S
C302 C301 1.434 . S
C303 C304 1.369 . S
C303 C305 1.419 . S
C303 H307 0.930 . S
C304 C303 1.369 . S
C304 C313 1.429 . S
C305 C303 1.419 . S
C305 C306 1.363 . S
C305 H308 0.929 . S
C306 C305 1.363 . S
C306 C312 1.428 . S
H307 C303 0.930 . S
H308 C305 0.929 . S
S309 N310 1.613 . S
S309 N311 1.610 . S
N310 S309 1.613 . S
N310 C313 1.350 . S
N311 S309 1.610 . S
N311 C312 1.351 . S
C312 C306 1.428 . S
C312 N311 1.351 . S
C312 C313 1.434 . S
C313 C304 1.429 . S
C313 N310 1.350 . S
C313 C312 1.434 . S
C314 C315 1.369 . S
C314 C316 1.419 . S
C314 H318 0.930 1_556 S
C315 C314 1.369 . S
C315 C324 1.429 . S
C316 C314 1.419 . S
C316 C317 1.363 . S
C316 H319 0.929 1_556 S
C317 C316 1.363 . S
C317 C323 1.428 . S
H318 C314 0.930 1_554 S
H319 C316 0.929 1_554 S
S320 N321 1.613 . S
S320 N322 1.610 . S
N321 S320 1.613 . S
N321 C324 1.350 . S
N322 S320 1.610 . S
N322 C323 1.351 . S
C323 C317 1.428 . S
C323 N322 1.351 . S
C323 C324 1.434 . S
C324 C315 1.429 . S
C324 N321 1.350 . S
C324 C323 1.434 . S
C325 C326 1.369 1_554 S
C325 C327 1.419 1_655 S
C325 H329 0.930 . S
C326 C325 1.369 1_556 S
C326 C335 1.429 . S
C327 C325 1.419 1_455 S
C327 C328 1.363 1_554 S
C327 H330 0.929 . S
C328 C327 1.363 1_556 S
C328 C334 1.428 1_455 S
H329 C325 0.930 . S
H330 C327 0.929 . S
S331 N332 1.613 . S
S331 N333 1.610 . S
N332 S331 1.613 . S
N332 C335 1.350 . S
N333 S331 1.610 . S
N333 C334 1.351 . S
C334 C328 1.428 1_655 S
C334 N333 1.351 . S
C334 C335 1.434 . S
C335 C326 1.429 . S
C335 N332 1.350 . S
C335 C334 1.434 . S
C336 C337 1.369 . S
C336 C338 1.419 . S
C336 H340 0.930 . S
C337 C336 1.369 . S
C337 C346 1.429 . S
C338 C336 1.419 . S
C338 C339 1.363 . S
C338 H341 0.929 . S
C339 C338 1.363 . S
C339 C345 1.428 . S
H340 C336 0.930 . S
H341 C338 0.929 . S
S342 N343 1.613 . S
S342 N344 1.610 . S
N343 S342 1.613 . S
N343 C346 1.350 . S
N344 S342 1.610 . S
N344 C345 1.351 . S
C345 C339 1.428 . S
C345 N344 1.351 . S
C345 C346 1.434 . S
C346 C337 1.429 . S
C346 N343 1.350 . S
C346 C345 1.434 . S
C347 C348 1.369 . S
C347 C349 1.419 . S
C347 H351 0.930 . S
C348 C347 1.369 . S
C348 C357 1.429 . S
C349 C347 1.419 . S
C349 C350 1.363 . S
C349 H352 0.929 . S
C350 C349 1.363 . S
C350 C356 1.428 . S
H351 C347 0.930 . S
H352 C349 0.929 . S
S353 N354 1.613 1_564 S
S353 N355 1.610 1_564 S
N354 S353 1.613 1_546 S
N354 C357 1.350 . S
N355 S353 1.610 1_546 S
N355 C356 1.351 . S
C356 C350 1.428 . S
C356 N355 1.351 . S
C356 C357 1.434 . S
C357 C348 1.429 . S
C357 N354 1.350 . S
C357 C356 1.434 . S
C358 C359 1.369 . S
C358 C360 1.419 . S
C358 H362 0.930 . S
C359 C358 1.369 . S
C359 C368 1.429 . S
C360 C358 1.419 . S
C360 C361 1.363 . S
C360 H363 0.929 . S
C361 C360 1.363 . S
C361 C367 1.428 . S
H362 C358 0.930 . S
H363 C360 0.929 . S
S364 N365 1.613 . S
S364 N366 1.610 . S
N365 S364 1.613 . S
N365 C368 1.350 . S
N366 S364 1.610 . S
N366 C367 1.351 . S
C367 C361 1.428 . S
C367 N366 1.351 . S
C367 C368 1.434 . S
C368 C359 1.429 . S
C368 N365 1.350 . S
C368 C367 1.434 . S
C369 C370 1.369 . S
C369 C371 1.419 . S
C369 H373 0.930 . S
C370 C369 1.369 . S
C370 C379 1.429 . S
C371 C369 1.419 . S
C371 C372 1.363 . S
C371 H374 0.929 . S
C372 C371 1.363 . S
C372 C378 1.428 . S
H373 C369 0.930 . S
H374 C371 0.929 . S
S375 N376 1.613 . S
S375 N377 1.610 . S
N376 S375 1.613 . S
N376 C379 1.350 1_554 S
N377 S375 1.610 . S
N377 C378 1.351 1_554 S
C378 C372 1.428 . S
C378 N377 1.351 1_556 S
C378 C379 1.434 . S
C379 C370 1.429 . S
C379 N376 1.350 1_556 S
C379 C378 1.434 . S
C380 C381 1.369 1_554 S
C380 C382 1.419 1_655 S
C380 H384 0.931 . S
C381 C380 1.369 1_556 S
C381 C390 1.429 . S
C382 C380 1.419 1_455 S
C382 C383 1.363 1_554 S
C382 H385 0.929 . S
C383 C382 1.363 1_556 S
C383 C389 1.428 1_455 S
H384 C380 0.931 . S
H385 C382 0.929 . S
S386 N387 1.613 . S
S386 N388 1.610 . S
N387 S386 1.613 . S
N387 C390 1.350 . S
N388 S386 1.610 . S
N388 C389 1.351 . S
C389 C383 1.428 1_655 S
C389 N388 1.351 . S
C389 C390 1.434 . S
C390 C381 1.429 . S
C390 N387 1.350 . S
C390 C389 1.434 . S
C391 C392 1.369 . S
C391 C393 1.419 1_565 S
C391 H395 0.930 1_556 S
C392 C391 1.369 . S
C392 C401 1.429 1_565 S
C393 C391 1.419 1_545 S
C393 C394 1.363 . S
C393 H396 0.929 1_546 S
C394 C393 1.363 . S
C394 C400 1.428 . S
H395 C391 0.930 1_554 S
H396 C393 0.929 1_564 S
S397 N398 1.613 . S
S397 N399 1.610 . S
N398 S397 1.613 . S
N398 C401 1.350 . S
N399 S397 1.610 . S
N399 C400 1.351 . S
C400 C394 1.428 . S
C400 N399 1.351 . S
C400 C401 1.434 . S
C401 C392 1.429 1_545 S
C401 N398 1.350 . S
C401 C400 1.434 . S
C402 C403 1.369 . S
C402 C404 1.419 . S
C402 H406 0.930 . S
C403 C402 1.369 . S
C403 C412 1.429 . S
C404 C402 1.419 . S
C404 C405 1.363 . S
C404 H407 0.929 . S
C405 C404 1.363 . S
C405 C411 1.428 . S
H406 C402 0.930 . S
H407 C404 0.929 . S
S408 N409 1.613 . S
S408 N410 1.610 . S
N409 S408 1.613 . S
N409 C412 1.350 . S
N410 S408 1.610 . S
N410 C411 1.351 . S
C411 C405 1.428 . S
C411 N410 1.351 . S
C411 C412 1.434 . S
C412 C403 1.429 . S
C412 N409 1.350 . S
C412 C411 1.434 . S
C413 C414 1.369 . S
C413 C415 1.419 . S
C413 H417 0.930 . S
C414 C413 1.369 . S
C414 C423 1.429 . S
C415 C413 1.419 . S
C415 C416 1.363 . S
C415 H418 0.929 . S
C416 C415 1.363 . S
C416 C422 1.428 . S
H417 C413 0.930 . S
H418 C415 0.929 . S
S419 N420 1.613 . S
S419 N421 1.610 . S
N420 S419 1.613 . S
N420 C423 1.350 . S
N421 S419 1.610 . S
N421 C422 1.351 . S
C422 C416 1.428 . S
C422 N421 1.351 . S
C422 C423 1.434 . S
C423 C414 1.429 . S
C423 N420 1.350 . S
C423 C422 1.434 . S
C424 C425 1.369 . S
C424 C426 1.419 . S
C424 H428 0.930 . S
C425 C424 1.369 . S
C425 C434 1.429 . S
C426 C424 1.419 . S
C426 C427 1.363 . S
C426 H429 0.929 . S
C427 C426 1.363 . S
C427 C433 1.428 . S
H428 C424 0.930 . S
H429 C426 0.929 . S
S430 N431 1.613 . S
S430 N432 1.610 . S
N431 S430 1.613 . S
N431 C434 1.350 . S
N432 S430 1.610 . S
N432 C433 1.351 . S
C433 C427 1.428 . S
C433 N432 1.351 . S
C433 C434 1.434 . S
C434 C425 1.429 . S
C434 N431 1.350 . S
C434 C433 1.434 . S
C435 C436 1.369 . S
C435 C437 1.419 . S
C435 H439 0.930 . S
C436 C435 1.369 . S
C436 C445 1.429 . S
C437 C435 1.419 . S
C437 C438 1.363 . S
C437 H440 0.929 . S
C438 C437 1.363 . S
C438 C444 1.428 . S
H439 C435 0.930 . S
H440 C437 0.929 . S
S441 N442 1.613 . S
S441 N443 1.610 . S
N442 S441 1.613 . S
N442 C445 1.350 . S
N443 S441 1.610 . S
N443 C444 1.351 . S
C444 C438 1.428 . S
C444 N443 1.351 . S
C444 C445 1.434 . S
C445 C436 1.429 . S
C445 N442 1.350 . S
C445 C444 1.434 . S
C446 C447 1.369 . S
C446 C448 1.419 . S
C446 H450 0.930 . S
C447 C446 1.369 . S
C447 C456 1.429 . S
C448 C446 1.419 . S
C448 C449 1.363 . S
C448 H451 0.929 . S
C449 C448 1.363 . S
C449 C455 1.428 . S
H450 C446 0.930 . S
H451 C448 0.929 . S
S452 N453 1.613 . S
S452 N454 1.610 . S
N453 S452 1.613 . S
N453 C456 1.350 . S
N454 S452 1.610 . S
N454 C455 1.351 . S
C455 C449 1.428 . S
C455 N454 1.351 . S
C455 C456 1.434 . S
C456 C447 1.429 . S
C456 N453 1.350 . S
C456 C455 1.434 . S
C457 C458 1.369 . S
C457 C459 1.419 . S
C457 H461 0.930 . S
C458 C457 1.369 . S
C458 C467 1.429 . S
C459 C457 1.419 . S
C459 C460 1.363 . S
C459 H462 0.929 . S
C460 C459 1.363 . S
C460 C466 1.428 . S
H461 C457 0.930 . S
H462 C459 0.929 . S
S463 N464 1.613 . S
S463 N465 1.610 . S
N464 S463 1.613 . S
N464 C467 1.350 . S
N465 S463 1.610 . S
N465 C466 1.351 . S
C466 C460 1.428 . S
C466 N465 1.351 . S
C466 C467 1.434 . S
C467 C458 1.429 . S
C467 N464 1.350 . S
C467 C466 1.434 . S
C468 C469 1.369 . S
C468 C470 1.419 . S
C468 H472 0.930 . S
C469 C468 1.369 . S
C469 C478 1.429 . S
C470 C468 1.419 . S
C470 C471 1.363 . S
C470 H473 0.929 . S
C471 C470 1.363 . S
C471 C477 1.428 . S
H472 C468 0.930 . S
H473 C470 0.929 . S
S474 N475 1.613 . S
S474 N476 1.610 . S
N475 S474 1.613 . S
N475 C478 1.350 . S
N476 S474 1.610 . S
N476 C477 1.351 . S
C477 C471 1.428 . S
C477 N476 1.351 . S
C477 C478 1.434 . S
C478 C469 1.429 . S
C478 N475 1.350 . S
C478 C477 1.434 . S
C479 C480 1.369 . S
C479 C481 1.419 . S
C479 H483 0.930 . S
C480 C479 1.369 . S
C480 C489 1.429 . S
C481 C479 1.419 . S
C481 C482 1.363 . S
C481 H484 0.929 . S
C482 C481 1.363 . S
C482 C488 1.428 . S
H483 C479 0.930 . S
H484 C481 0.929 . S
S485 N486 1.613 . S
S485 N487 1.610 . S
N486 S485 1.613 . S
N486 C489 1.350 1_545 S
N487 S485 1.610 . S
N487 C488 1.351 1_545 S
C488 C482 1.428 . S
C488 N487 1.351 1_565 S
C488 C489 1.434 . S
C489 C480 1.429 . S
C489 N486 1.350 1_565 S
C489 C488 1.434 . S
C490 C491 1.369 . S
C490 C492 1.419 . S
C490 H494 0.930 . S
C491 C490 1.369 . S
C491 C500 1.429 . S
C492 C490 1.419 . S
C492 C493 1.363 . S
C492 H495 0.929 . S
C493 C492 1.363 . S
C493 C499 1.428 . S
H494 C490 0.930 . S
H495 C492 0.929 . S
S496 N497 1.613 . S
S496 N498 1.610 . S
N497 S496 1.613 . S
N497 C500 1.350 . S
N498 S496 1.610 . S
N498 C499 1.351 . S
C499 C493 1.428 . S
C499 N498 1.351 . S
C499 C500 1.434 . S
C500 C491 1.429 . S
C500 N497 1.350 . S
C500 C499 1.434 . S
C501 C502 1.369 . S
C501 C503 1.419 . S
C501 H505 0.930 . S
C502 C501 1.369 . S
C502 C511 1.429 . S
C503 C501 1.419 . S
C503 C504 1.363 . S
C503 H506 0.929 . S
C504 C503 1.363 . S
C504 C510 1.428 . S
H505 C501 0.930 . S
H506 C503 0.929 . S
S507 N508 1.613 . S
S507 N509 1.610 . S
N508 S507 1.613 . S
N508 C511 1.350 . S
N509 S507 1.610 . S
N509 C510 1.351 . S
C510 C504 1.428 . S
C510 N509 1.351 . S
C510 C511 1.434 . S
C511 C502 1.429 . S
C511 N508 1.350 . S
C511 C510 1.434 . S
C249 C74 1.714 . S
C251 C97 1.712 . S
C262 C137 1.376 . S
C260 C85 1.508 . S
C273 C186 1.467 . S
C271 C52 1.450 . S
C284 C217 1.824 . S
C282 C63 1.919 . S
C295 C106 1.714 . S
C293 C30 1.645 . S
C304 C41 1.433 . S
C306 C146 1.389 . S
C315 C8 1.464 . S
C317 C177 1.469 . S
C326 C19 1.838 1_556 S
C328 C226 1.827 . S
C339 C107 1.390 . S
C337 C62 1.353 . S
C350 C147 1.781 . S
C348 C73 1.766 . S
C361 C183 1.046 . S
C359 C84 1.030 . S
C370 C51 1.483 . S
C372 C227 1.530 . S
C381 C18 1.256 . S
C383 C98 1.387 . S
C394 C138 1.781 . S
C392 C29 1.601 . S
C405 C174 1.041 . S
C403 C40 1.011 . S
C414 C7 1.455 . S
C416 C218 1.532 . S
C425 C60 1.474 . S
C427 C103 1.659 . S
C436 C71 1.307 . S
C438 C143 1.497 . S
C449 C187 2.086 1_554 S
C447 C82 1.696 . S
C460 C223 1.461 . S
C458 C49 1.194 . S
C469 C16 1.345 . S
C471 C94 1.659 . S
C482 C134 1.491 . S
C480 C27 1.385 . S
C493 C178 2.087 . S
C491 C38 1.578 . S
C502 C5 1.410 . S
C504 C214 1.455 . S
