# Generated by pormake.
# Topology zzz, (3,6)-cn, num edge types: 1
# Building blocks:
#     Node 0, Type 0, BuildingBlock: WUSLED_clean_sbu_0, # of connection points: 3
#     Node 1, Type 0, BuildingBlock: WUSLED_clean_sbu_0, # of connection points: 3
#     Node 2, Type 0, BuildingBlock: WUSLED_clean_sbu_0, # of connection points: 3
#     Node 3, Type 0, BuildingBlock: WUSLED_clean_sbu_0, # of connection points: 3
#     Node 4, Type 0, BuildingBlock: WUSLED_clean_sbu_0, # of connection points: 3
#     Node 5, Type 0, BuildingBlock: WUSLED_clean_sbu_0, # of connection points: 3
#     Node 6, Type 0, BuildingBlock: WUSLED_clean_sbu_0, # of connection points: 3
#     Node 7, Type 0, BuildingBlock: WUSLED_clean_sbu_0, # of connection points: 3
#     Node 8, Type 1, BuildingBlock: GEDQOX_clean_sbu_0, # of connection points: 6
#     Node 9, Type 1, BuildingBlock: GEDQOX_clean_sbu_0, # of connection points: 6
#     Node 10, Type 1, BuildingBlock: GEDQOX_clean_sbu_0, # of connection points: 6
#     Node 11, Type 1, BuildingBlock: GEDQOX_clean_sbu_0, # of connection points: 6
#     Edge 12, Type (0, 1), BuildingBlock: UVAHIK_clean_linker_0, # of connection points: 2
#     Edge 13, Type (0, 1), BuildingBlock: UVAHIK_clean_linker_0, # of connection points: 2
#     Edge 14, Type (0, 1), BuildingBlock: UVAHIK_clean_linker_0, # of connection points: 2
#     Edge 15, Type (0, 1), BuildingBlock: UVAHIK_clean_linker_0, # of connection points: 2
#     Edge 16, Type (0, 1), BuildingBlock: UVAHIK_clean_linker_0, # of connection points: 2
#     Edge 17, Type (0, 1), BuildingBlock: UVAHIK_clean_linker_0, # of connection points: 2
#     Edge 18, Type (0, 1), BuildingBlock: UVAHIK_clean_linker_0, # of connection points: 2
#     Edge 19, Type (0, 1), BuildingBlock: UVAHIK_clean_linker_0, # of connection points: 2
#     Edge 20, Type (0, 1), BuildingBlock: UVAHIK_clean_linker_0, # of connection points: 2
#     Edge 21, Type (0, 1), BuildingBlock: UVAHIK_clean_linker_0, # of connection points: 2
#     Edge 22, Type (0, 1), BuildingBlock: UVAHIK_clean_linker_0, # of connection points: 2
#     Edge 23, Type (0, 1), BuildingBlock: UVAHIK_clean_linker_0, # of connection points: 2
#     Edge 24, Type (0, 1), BuildingBlock: UVAHIK_clean_linker_0, # of connection points: 2
#     Edge 25, Type (0, 1), BuildingBlock: UVAHIK_clean_linker_0, # of connection points: 2
#     Edge 26, Type (0, 1), BuildingBlock: UVAHIK_clean_linker_0, # of connection points: 2
#     Edge 27, Type (0, 1), BuildingBlock: UVAHIK_clean_linker_0, # of connection points: 2
#     Edge 28, Type (0, 1), BuildingBlock: UVAHIK_clean_linker_0, # of connection points: 2
#     Edge 29, Type (0, 1), BuildingBlock: UVAHIK_clean_linker_0, # of connection points: 2
#     Edge 30, Type (0, 1), BuildingBlock: UVAHIK_clean_linker_0, # of connection points: 2
#     Edge 31, Type (0, 1), BuildingBlock: UVAHIK_clean_linker_0, # of connection points: 2
#     Edge 32, Type (0, 1), BuildingBlock: UVAHIK_clean_linker_0, # of connection points: 2
#     Edge 33, Type (0, 1), BuildingBlock: UVAHIK_clean_linker_0, # of connection points: 2
#     Edge 34, Type (0, 1), BuildingBlock: UVAHIK_clean_linker_0, # of connection points: 2
#     Edge 35, Type (0, 1), BuildingBlock: UVAHIK_clean_linker_0, # of connection points: 2
# Relax obj value: 0.289
# Max RMSD: 0.249
# Mean RMSD: 0.199
data_MOF--net-zzz--node1-WUSLED_clean_sbu_0--node2-GEDQOX_clean_sbu_0--edge1-UVAHIK_clean_linker_0
_symmetry_space_group_name_H-M    P1
_symmetry_Int_Tables_number       1
_symmetry_cell_setting            triclinic
loop_
_symmetry_equiv_pos_as_xyz
'x, y, z'
_cell_length_a     81.572273
_cell_length_b     76.333134
_cell_length_c     27.44485
_cell_angle_alpha  84.685192
_cell_angle_beta   91.529579
_cell_angle_gamma 100.39077
loop_
_atom_site_label
_atom_site_type_symbol
_atom_site_fract_x
_atom_site_fract_y
_atom_site_fract_z
_atom_type_partial_charge
C0 C 0.79042 0.45163 0.23298 0.0
C1 C 0.80404 0.46256 0.20875 0.0
C2 C 0.82204 0.45746 0.27894 0.0
C3 C 0.81973 0.46539 0.23148 0.0
C4 C 0.80864 0.44556 0.30154 0.0
C5 C 0.79298 0.4427 0.27873 0.0
U6 U 0.75475 0.45059 0.13556 0.0
O7 O 0.72814 0.43882 0.14407 0.0
O8 O 0.73603 0.46799 0.13442 0.0
C9 C 0.72349 0.45452 0.1385 0.0
C10 C 0.77318 0.45152 0.21544 0.0
C11 C 0.7093 0.45637 0.10554 0.0
C12 C 0.69404 0.45203 0.02899 0.0
C13 C 0.70747 0.44923 0.05993 0.0
C14 C 0.68433 0.46908 0.08901 0.0
C15 C 0.68245 0.46217 0.04309 0.0
C16 C 0.69761 0.46619 0.11987 0.0
C17 C 0.7853 0.44525 0.03735 0.0
C18 C 0.80358 0.44039 0.97356 0.0
C19 C 0.81462 0.44517 0.05507 0.0
C20 C 0.79875 0.44665 0.07049 0.0
C21 C 0.81726 0.44216 0.00625 0.0
C22 C 0.78776 0.44197 0.98899 0.0
C23 C 0.76867 0.44729 0.05257 0.0
O24 O 0.77056 0.46586 0.18826 0.0
O25 O 0.76481 0.43653 0.20059 0.0
O26 O 0.7677 0.46284 0.06822 0.0
O27 O 0.7605 0.43365 0.08002 0.0
H28 H 0.8024 0.46965 0.17343 0.0
H29 H 0.82987 0.4744 0.21276 0.0
H30 H 0.80991 0.43935 0.33822 0.0
H31 H 0.78262 0.43432 0.29821 0.0
H32 H 0.69292 0.4466 0.99371 0.0
H33 H 0.71648 0.44171 0.04813 0.0
H34 H 0.67547 0.47669 0.10125 0.0
H35 H 0.69884 0.47179 0.15494 0.0
H36 H 0.80507 0.43775 0.93599 0.0
H37 H 0.82486 0.4468 0.08112 0.0
H38 H 0.79699 0.44904 0.1081 0.0
H39 H 0.77745 0.44071 0.96305 0.0
C40 C 0.93648 0.74159 0.35363 0.0
C41 C 0.92609 0.75437 0.34383 0.0
C42 C 0.93655 0.76891 0.41657 0.0
C43 C 0.92607 0.76781 0.37509 0.0
C44 C 0.94633 0.75561 0.42767 0.0
C45 C 0.94625 0.74205 0.39657 0.0
U46 U 0.94693 0.73815 0.22419 0.0
O47 O 0.96436 0.72448 0.18928 0.0
O48 O 0.93779 0.71957 0.16864 0.0
C49 C 0.95257 0.71545 0.16311 0.0
C50 C 0.9391 0.72966 0.31612 0.0
C51 C 0.9533 0.69649 0.15775 0.0
C52 C 0.9695 0.67257 0.15937 0.0
C53 C 0.96732 0.6891 0.17376 0.0
C54 C 0.94329 0.67004 0.1148 0.0
C55 C 0.95776 0.66312 0.12844 0.0
C56 C 0.94113 0.68657 0.12913 0.0
C57 C 0.95521 0.78279 0.14617 0.0
C58 C 0.97317 0.78993 0.07522 0.0
C59 C 0.95409 0.80952 0.09207 0.0
C60 C 0.94841 0.79817 0.13333 0.0
C61 C 0.96677 0.8057 0.06321 0.0
C62 C 0.96735 0.77848 0.11624 0.0
C63 C 0.95019 0.772 0.19222 0.0
O64 O 0.92797 0.72797 0.28043 0.0
O65 O 0.95452 0.73202 0.30053 0.0
O66 O 0.96205 0.76502 0.2158 0.0
O67 O 0.9359 0.76087 0.19122 0.0
H68 H 0.91857 0.75457 0.31073 0.0
H69 H 0.91853 0.77794 0.36517 0.0
H70 H 0.95441 0.75601 0.45966 0.0
H71 H 0.95443 0.73243 0.4048 0.0
H72 H 0.98085 0.66771 0.17019 0.0
H73 H 0.97706 0.69647 0.19535 0.0
H74 H 0.93389 0.66297 0.09162 0.0
H75 H 0.93028 0.69197 0.11577 0.0
H76 H 0.98284 0.78661 0.05333 0.0
H77 H 0.94906 0.82168 0.08398 0.0
H78 H 0.93902 0.80168 0.156 0.0
H79 H 0.97265 0.76654 0.1253 0.0
C80 C 0.75731 1.00033 0.28278 0.0
C81 C 0.74665 0.98358 0.2876 0.0
C82 C 0.73254 0.99252 0.35583 0.0
C83 C 0.7344 0.97976 0.32358 0.0
C84 C 0.74388 0.0088 0.35316 0.0
C85 C 0.75615 0.01265 0.31708 0.0
U86 U 0.76109 0.0168 0.14996 0.0
O87 O 0.77968 0.03626 0.10676 0.0
O88 O 0.77314 0.00849 0.08764 0.0
C89 C 0.78277 0.02419 0.07871 0.0
C90 C 0.76832 1.00559 0.23961 0.0
C91 C 0.80042 0.02419 0.0683 0.0
C92 C 0.82544 0.03846 0.02416 0.0
C93 C 0.80942 0.03888 0.04018 0.0
C94 C 0.82399 0.0088 0.06553 0.0
C95 C 0.83279 0.02326 0.03569 0.0
C96 C 0.80795 0.00925 0.08171 0.0
C97 C 0.71966 0.02443 0.08957 0.0
C98 C 0.716 0.04067 0.01072 0.0
C99 C 0.69267 0.02032 0.04904 0.0
C100 C 0.70285 0.01636 0.0886 0.0
C101 C 0.69912 0.03248 0.00964 0.0
C102 C 0.72625 0.03658 0.05034 0.0
C103 C 0.72994 0.01974 0.13179 0.0
O104 O 0.76562 0.995 0.20393 0.0
O105 O 0.77068 0.02265 0.22364 0.0
O106 O 0.74113 0.03275 0.1472 0.0
O107 O 0.7355 1.00467 0.13063 0.0
H108 H 0.7473 0.97362 0.26242 0.0
H109 H 0.72611 0.96692 0.32538 0.0
H110 H 0.74279 0.01893 0.37741 0.0
H111 H 0.76426 0.02559 0.31473 0.0
H112 H 0.83198 0.04997 1.00208 0.0
H113 H 0.80385 0.05053 0.02938 0.0
H114 H 0.82921 0.99683 0.07483 0.0
H115 H 0.80127 0.99771 0.10336 0.0
H116 H 0.72129 0.05003 0.98072 0.0
H117 H 0.67966 0.01402 0.04963 0.0
H118 H 0.69757 0.00697 0.1186 0.0
H119 H 0.73927 0.04285 0.05034 0.0
C120 C 0.58083 0.75406 0.45771 0.0
C121 C 0.57858 0.73871 0.4321 0.0
C122 C 0.57725 0.71981 0.50892 0.0
C123 C 0.57686 0.72175 0.45744 0.0
C124 C 0.57972 0.73527 0.5344 0.0
C125 C 0.58151 0.75226 0.50895 0.0
U126 U 0.57382 0.78146 0.3403 0.0
O127 O 0.56254 0.80553 0.3285 0.0
O128 O 0.5882 0.80639 0.30461 0.0
C129 C 0.5755 0.81483 0.30466 0.0
C130 C 0.58145 0.77179 0.43107 0.0
C131 C 0.57186 0.82478 0.25819 0.0
C132 C 0.57808 0.85175 0.20263 0.0
C133 C 0.58204 0.84121 0.24414 0.0
C134 C 0.55383 0.82933 0.18785 0.0
C135 C 0.56376 0.84608 0.17452 0.0
C136 C 0.55789 0.81872 0.2292 0.0
C137 C 0.55783 0.7527 0.23257 0.0
C138 C 0.53625 0.75127 0.16941 0.0
C139 C 0.55931 0.73562 0.16293 0.0
C140 C 0.56611 0.74206 0.20637 0.0
C141 C 0.544 0.73962 0.14484 0.0
C142 C 0.54311 0.75777 0.21294 0.0
C143 C 0.56357 0.75599 0.28289 0.0
O144 O 0.59256 0.77597 0.39613 0.0
O145 O 0.56681 0.77557 0.41771 0.0
O146 O 0.55353 0.7622 0.31097 0.0
O147 O 0.57938 0.76294 0.28867 0.0
H148 H 0.57784 0.73984 0.39248 0.0
H149 H 0.57473 0.71013 0.4367 0.0
H150 H 0.58023 0.73424 0.57402 0.0
H151 H 0.58316 0.76398 0.52929 0.0
H152 H 0.58588 0.86465 0.19362 0.0
H153 H 0.59285 0.84613 0.26606 0.0
H154 H 0.54284 0.82452 0.16657 0.0
H155 H 0.54991 0.80599 0.23909 0.0
H156 H 0.52454 0.75477 0.15605 0.0
H157 H 0.56552 0.72651 0.14543 0.0
H158 H 0.57741 0.73786 0.22096 0.0
H159 H 0.53647 0.76603 0.23227 0.0
C160 C 0.25811 0.55885 0.34765 0.0
C161 C 0.24467 0.56776 0.33648 0.0
C162 C 0.23572 0.54863 0.27101 0.0
C163 C 0.23364 0.56277 0.29832 0.0
C164 C 0.24949 0.54009 0.28139 0.0
C165 C 0.2606 0.54519 0.31939 0.0
U166 U 0.26083 0.57258 0.47592 0.0
O167 O 0.2702 0.56002 0.54371 0.0
O168 O 0.28085 0.58778 0.5185 0.0
C169 C 0.28182 0.57398 0.55017 0.0
C170 C 0.26821 0.56219 0.39215 0.0
C171 C 0.2986 0.56998 0.55969 0.0
C172 C 0.32272 0.55862 0.5345 0.0
C173 C 0.30704 0.56312 0.524 0.0
C174 C 0.32171 0.56802 0.61618 0.0
C175 C 0.33017 0.56088 0.5809 0.0
C176 C 0.30606 0.57252 0.60563 0.0
C177 C 0.22124 0.58409 0.52665 0.0
C178 C 0.21281 0.57893 0.61171 0.0
C179 C 0.19696 0.59493 0.55274 0.0
C180 C 0.20799 0.59328 0.51599 0.0
C181 C 0.19895 0.58721 0.60056 0.0
C182 C 0.22393 0.57747 0.5751 0.0
C183 C 0.23098 0.57986 0.48639 0.0
O184 O 0.27186 0.57895 0.40261 0.0
O185 O 0.26315 0.551 0.43025 0.0
O186 O 0.23425 0.56355 0.49045 0.0
O187 O 0.24375 0.59209 0.4713 0.0
H188 H 0.24232 0.57812 0.35843 0.0
H189 H 0.22303 0.56943 0.29175 0.0
H190 H 0.25147 0.52924 0.26075 0.0
H191 H 0.27081 0.53804 0.32782 0.0
H192 H 0.32881 0.55299 0.5067 0.0
H193 H 0.30138 0.56103 0.48834 0.0
H194 H 0.32721 0.57018 0.65198 0.0
H195 H 0.29971 0.57783 0.63353 0.0
H196 H 0.21469 0.573 0.64839 0.0
H197 H 0.18631 0.60126 0.54311 0.0
H198 H 0.20574 0.59847 0.47879 0.0
H199 H 0.23418 0.57044 0.58416 0.0
C200 C 0.0874 0.26381 0.25913 0.0
C201 C 0.07629 0.24924 0.28134 0.0
C202 C 0.08412 0.22981 0.22354 0.0
C203 C 0.07463 0.23236 0.26359 0.0
C204 C 0.09548 0.24444 0.20228 0.0
C205 C 0.09707 0.26125 0.21991 0.0
U206 U 0.07996 0.29724 0.34933 0.0
O207 O 0.09654 0.32203 0.36619 0.0
O208 O 0.07207 0.32325 0.33216 0.0
C209 C 0.08533 0.33201 0.35317 0.0
C210 C 0.08863 0.28194 0.27457 0.0
C211 C 0.08193 0.34384 0.38955 0.0
C212 C 0.07745 0.37301 0.40868 0.0
C213 C 0.08092 0.36166 0.37469 0.0
C214 C 0.076 0.34882 0.47301 0.0
C215 C 0.07498 0.36676 0.45833 0.0
C216 C 0.07938 0.33744 0.43889 0.0
C217 C 0.06005 0.25755 0.43793 0.0
C218 C 0.06588 0.22732 0.44919 0.0
C219 C 0.04047 0.23388 0.48125 0.0
C220 C 0.04499 0.25173 0.46278 0.0
C221 C 0.05102 0.22158 0.47547 0.0
C222 C 0.07033 0.24515 0.43031 0.0
C223 C 0.06518 0.27673 0.42314 0.0
O224 O 0.07446 0.28775 0.27653 0.0
O225 O 0.09863 0.28587 0.31188 0.0
O226 O 0.05694 0.28329 0.38608 0.0
O227 O 0.08132 0.2828 0.42178 0.0
H228 H 0.06874 0.25098 0.31184 0.0
H229 H 0.06591 0.22134 0.2811 0.0
H230 H 0.1028 0.24303 0.171 0.0
H231 H 0.10566 0.27238 0.20223 0.0
H232 H 0.07645 0.38663 0.39583 0.0
H233 H 0.08271 0.36677 0.33667 0.0
H234 H 0.07434 0.34359 0.51094 0.0
H235 H 0.08002 0.32366 0.451 0.0
H236 H 0.07413 0.21805 0.44373 0.0
H237 H 0.02902 0.22987 0.50168 0.0
H238 H 0.03692 0.26111 0.46904 0.0
H239 H 0.08195 0.24931 0.41079 0.0
C240 C 0.28221 0.01216 0.32385 0.0
C241 C 0.2976 0.00707 0.33603 0.0
C242 C 0.30869 0.01997 0.2568 0.0
C243 C 0.3107 0.01097 0.30297 0.0
C244 C 0.2931 0.02462 0.24397 0.0
C245 C 0.27995 0.02083 0.27749 0.0
U246 U 0.2703 0.99326 0.44965 0.0
O247 O 0.25985 1.00413 0.51105 0.0
O248 O 0.2474 0.9786 0.48503 0.0
C249 C 0.24697 0.99098 0.5151 0.0
C250 C 0.26912 0.00903 0.36111 0.0
C251 C 0.23068 0.99595 0.52309 0.0
C252 C 0.20154 0.99585 0.5015 0.0
C253 C 0.21736 0.99286 0.48963 0.0
C254 C 0.21237 1.00562 0.57942 0.0
C255 C 0.19881 1.0019 0.54702 0.0
C256 C 0.22811 1.00264 0.56758 0.0
C257 C 0.30435 0.97188 0.51853 0.0
C258 C 0.3109 0.97124 0.60542 0.0
C259 C 0.32436 0.95418 0.55352 0.0
C260 C 0.31529 0.96001 0.51325 0.0
C261 C 0.32271 0.96029 0.59959 0.0
C262 C 0.30172 0.97693 0.5652 0.0
C263 C 0.29729 0.98029 0.47446 0.0
O264 O 0.2625 0.99215 0.37229 0.0
O265 O 0.27318 0.01785 0.39986 0.0
O266 O 0.29617 0.99718 0.47599 0.0
O267 O 0.28415 0.97083 0.45472 0.0
H268 H 0.29957 1.00031 0.37159 0.0
H269 H 0.32246 0.00695 0.3136 0.0
H270 H 0.29123 0.03159 0.20863 0.0
H271 H 0.26816 0.02488 0.26755 0.0
H272 H 0.19133 0.99277 0.47585 0.0
H273 H 0.21903 0.98768 0.45502 0.0
H274 H 0.21077 0.01061 0.61435 0.0
H275 H 0.23822 1.00512 0.5939 0.0
H276 H 0.30931 0.97603 0.64063 0.0
H277 H 0.33349 0.94588 0.54786 0.0
H278 H 0.31746 0.95596 0.4775 0.0
H279 H 0.29319 0.98598 0.57013 0.0
C280 C 0.44558 0.25682 0.087 0.0
C281 C 0.43288 0.26703 0.08831 0.0
C282 C 0.44898 0.29124 0.03582 0.0
C283 C 0.43458 0.28404 0.06307 0.0
C284 C 0.46148 0.28083 0.03364 0.0
C285 C 0.45976 0.26381 0.05868 0.0
U286 U 0.44982 0.22863 0.20712 0.0
O287 O 0.46026 0.20405 0.22071 0.0
O288 O 0.43421 0.20387 0.23956 0.0
C289 C 0.44666 0.19502 0.24194 0.0
C290 C 0.4443 0.23908 0.11532 0.0
C291 C 0.44893 0.18451 0.2888 0.0
C292 C 0.439 0.15862 0.34552 0.0
C293 C 0.43658 0.16989 0.30388 0.0
C294 C 0.46608 0.1767 0.35857 0.0
C295 C 0.45394 0.16163 0.37282 0.0
C296 C 0.46359 0.18806 0.31704 0.0
C297 C 0.46408 0.25604 0.31863 0.0
C298 C 0.48564 0.26099 0.38142 0.0
C299 C 0.45866 0.26887 0.39318 0.0
C300 C 0.45323 0.26267 0.34818 0.0
C301 C 0.47513 0.26874 0.40939 0.0
C302 C 0.48019 0.25471 0.33643 0.0
C303 C 0.45939 0.25345 0.26703 0.0
O304 O 0.45849 0.23469 0.13123 0.0
O305 O 0.43241 0.23488 0.14806 0.0
O306 O 0.44364 0.24709 0.25788 0.0
O307 O 0.4698 0.24715 0.24048 0.0
H308 H 0.42167 0.26198 0.10916 0.0
H309 H 0.42455 0.29152 0.06482 0.0
H310 H 0.47283 0.28598 0.01349 0.0
H311 H 0.4697 0.25624 0.05646 0.0
H312 H 0.42923 0.14738 0.35593 0.0
H313 H 0.42515 0.16694 0.28278 0.0
H314 H 0.47779 0.17938 0.37841 0.0
H315 H 0.47332 0.19931 0.30637 0.0
H316 H 0.49834 0.26054 0.39326 0.0
H317 H 0.45031 0.27495 0.41351 0.0
H318 H 0.44083 0.26406 0.33522 0.0
H319 H 0.48889 0.24972 0.31458 0.0
Nd320 Nd 1.00025 1.00515 0.73071 0.0
Nd321 Nd 0.02479 0.01469 0.81029 0.0
C322 C 0.9751 0.99027 0.67646 0.0
C323 C 0.97008 0.97236 0.65933 0.0
C324 C 0.97772 0.95815 0.67881 0.0
C325 C 0.97332 0.94126 0.66163 0.0
C326 C 0.96133 0.93829 0.62411 0.0
C327 C 0.9537 0.95258 0.6046 0.0
C328 C 0.95802 0.96947 0.62222 0.0
C329 C 0.03289 0.00846 0.703 0.0
C330 C 0.01213 0.97334 0.80438 0.0
C331 C 0.04957 0.02859 0.86729 0.0
C332 C 0.05303 0.04442 0.89513 0.0
C333 C 0.06623 0.04626 0.92904 0.0
C334 C 0.06913 0.06089 0.95728 0.0
C335 C 0.05882 0.07391 0.95213 0.0
C336 C 0.04567 0.07203 0.91766 0.0
C337 C 0.04279 0.0574 0.88946 0.0
C338 C 0.99213 0.01173 0.83785 0.0
C339 C 0.01391 0.04648 0.73296 0.0
O340 O 0.97407 0.99127 0.72357 0.0
O341 O 0.98891 0.99962 0.6581 0.0
O342 O 0.02141 0.01392 0.6752 0.0
O343 O 0.02695 1.00082 0.74296 0.0
O344 O 0.99969 0.97875 0.77922 0.0
O345 O 0.02562 0.98484 0.8142 0.0
O346 O 0.04961 0.03162 0.8196 0.0
O347 O 0.03714 0.01626 0.88306 0.0
O348 O 0.00357 1.00614 0.86543 0.0
O349 O 0.99814 0.01933 0.79791 0.0
O350 O 0.02573 0.04118 0.76148 0.0
O351 O 1.00047 0.03512 0.72185 0.0
H352 H 0.98727 0.96018 0.70685 0.0
H353 H 0.9796 0.93062 0.67688 0.0
H354 H 0.94436 0.95068 0.57586 0.0
H355 H 0.95205 0.98031 0.60658 0.0
H356 H 0.07417 0.03628 0.93412 0.0
H357 H 0.07923 0.0618 0.98386 0.0
H358 H 0.03764 0.08191 0.91226 0.0
H359 H 0.0325 0.05615 0.86347 0.0
Nd360 Nd 0.51991 0.99849 0.74311 0.0
Nd361 Nd 0.50891 0.02034 0.81973 0.0
C362 C 0.53459 0.97918 0.68831 0.0
C363 C 0.55148 0.97743 0.67446 0.0
C364 C 0.56528 0.99063 0.68358 0.0
C365 C 0.58093 0.98995 0.66488 0.0
C366 C 0.58304 0.97602 0.63673 0.0
C367 C 0.56926 0.96242 0.62957 0.0
C368 C 0.55363 0.96317 0.64814 0.0
C369 C 0.50248 0.02446 0.70661 0.0
C370 C 0.54776 0.03006 0.78652 0.0
C371 C 0.49829 0.04344 0.87165 0.0
C372 C 0.48351 0.0426 0.90184 0.0
C373 C 0.48181 0.05703 0.92816 0.0
C374 C 0.4675 0.0564 0.95576 0.0
C375 C 0.45462 0.04135 0.95725 0.0
C376 C 0.45648 0.02688 0.93091 0.0
C377 C 0.47081 0.02749 0.90353 0.0
C378 C 0.51512 0.98736 0.85573 0.0
C379 C 0.48208 0.98812 0.77991 0.0
O380 O 0.53003 0.97383 0.73346 0.0
O381 O 0.52987 0.99416 0.67212 0.0
O382 O 0.50031 0.00858 0.6916 0.0
O383 O 0.5137 0.0263 0.73922 0.0
O384 O 0.54437 0.01769 0.7554 0.0
O385 O 0.53639 0.03359 0.81563 0.0
O386 O 0.4953 0.04265 0.82469 0.0
O387 O 0.50905 0.03349 0.88855 0.0
O388 O 0.50294 0.99433 0.87043 0.0
O389 O 0.52382 0.99798 0.82458 0.0
O390 O 0.48415 1.00432 0.79489 0.0
O391 O 0.49464 0.98139 0.76459 0.0
H392 H 0.56385 1.00176 0.70378 0.0
H393 H 0.59118 1.00073 0.67083 0.0
H394 H 0.57049 0.95131 0.60892 0.0
H395 H 0.54311 0.95284 0.6408 0.0
H396 H 0.49149 0.06882 0.92706 0.0
H397 H 0.46638 0.06783 0.97526 0.0
H398 H 0.44693 0.01498 0.93184 0.0
H399 H 0.47195 0.0162 0.88348 0.0
Nd400 Nd 0.50024 0.51363 0.81025 0.0
Nd401 Nd 0.51802 0.49832 0.73195 0.0
C402 C 0.48297 0.53304 0.85633 0.0
C403 C 0.48552 0.55175 0.86803 0.0
C404 C 0.47181 0.56033 0.87027 0.0
C405 C 0.47409 0.57814 0.88134 0.0
C406 C 0.49016 0.58765 0.89063 0.0
C407 C 0.5039 0.579 0.88748 0.0
C408 C 0.50161 0.56127 0.87599 0.0
C409 C 0.53024 0.50463 0.83926 0.0
C410 C 0.52563 0.54084 0.73188 0.0
C411 C 0.5343 0.47827 0.68489 0.0
C412 C 0.52996 0.45953 0.67395 0.0
C413 C 0.54235 0.45021 0.66172 0.0
C414 C 0.53811 0.43224 0.65219 0.0
C415 C 0.52141 0.4234 0.65468 0.0
C416 C 0.50909 0.43278 0.66766 0.0
C417 C 0.51334 0.45067 0.67732 0.0
C418 C 0.48784 0.5071 0.70364 0.0
C419 C 0.49318 0.47107 0.81164 0.0
O420 O 0.48076 0.5305 0.80995 0.0
O421 O 0.49278 0.52301 0.87882 0.0
O422 O 0.51756 0.50264 0.86817 0.0
O423 O 0.5272 0.51226 0.7982 0.0
O424 O 0.51281 0.53864 0.76179 0.0
O425 O 0.53187 0.5271 0.71948 0.0
O426 O 0.53685 0.48072 0.73122 0.0
O427 O 0.52519 0.48912 0.66272 0.0
O428 O 0.50051 0.50944 0.6746 0.0
O429 O 0.49109 0.49943 0.74442 0.0
O430 O 0.50585 0.47337 0.7812 0.0
O431 O 0.48682 0.48472 0.82406 0.0
H432 H 0.45932 0.55326 0.86351 0.0
H433 H 0.46325 0.58444 0.88253 0.0
H434 H 0.51643 0.58576 0.89501 0.0
H435 H 0.51241 0.55494 0.8738 0.0
H436 H 0.55525 0.45683 0.6594 0.0
H437 H 0.54784 0.42537 0.64194 0.0
H438 H 0.49617 0.42626 0.67058 0.0
H439 H 0.50363 0.4576 0.68746 0.0
Nd440 Nd 0.00679 0.51669 0.78862 0.0
Nd441 Nd 0.02383 0.49225 0.86894 0.0
C442 C 0.98719 0.53485 0.73447 0.0
C443 C 0.97336 0.5301 0.69962 0.0
C444 C 0.96 0.51611 0.71172 0.0
C445 C 0.94788 0.51064 0.67664 0.0
C446 C 0.94889 0.51902 0.62868 0.0
C447 C 0.96207 0.53333 0.61707 0.0
C448 C 0.97416 0.53881 0.65222 0.0
C449 C 0.02331 0.49223 0.75393 0.0
C450 C 0.98423 0.48018 0.84664 0.0
C451 C 0.04398 0.47145 0.90837 0.0
C452 C 0.0591 0.47564 0.93845 0.0
C453 C 0.0707 0.46408 0.94356 0.0
C454 C 0.08558 0.46879 0.96975 0.0
C455 C 0.08901 0.48511 0.9913 0.0
C456 C 0.07728 0.4966 0.98608 0.0
C457 C 0.06252 0.49194 0.95975 0.0
C458 C 0.01398 0.52022 0.91101 0.0
C459 C 0.04441 0.53105 0.82096 0.0
O460 O 0.98446 0.52959 0.78082 0.0
O461 O 1.00184 0.53279 0.72025 0.0
O462 O 0.02294 0.5079 0.7318 0.0
O463 O 0.0143 0.48944 0.79149 0.0
O464 O 0.98494 0.49465 0.81545 0.0
O465 O 0.99752 0.47562 0.8697 0.0
O466 O 0.0453 0.47855 0.86294 0.0
O467 O 0.02997 0.47293 0.9288 0.0
O468 O 0.02087 0.50812 0.93596 0.0
O469 O 0.01278 0.51676 0.86722 0.0
O470 O 0.04504 0.51451 0.83923 0.0
O471 O 0.03034 0.53624 0.80626 0.0
H472 H 0.95906 0.50918 0.74802 0.0
H473 H 0.93775 0.49978 0.68706 0.0
H474 H 0.96334 0.53996 0.58039 0.0
H475 H 0.98442 0.54956 0.642 0.0
H476 H 0.06833 0.45153 0.92687 0.0
H477 H 0.09436 0.45965 0.97334 0.0
H478 H 0.07968 0.50939 1.00144 0.0
H479 H 0.05385 0.5012 0.95537 0.0
C480 C 0.17633 0.99757 0.60978 0.0
C481 C 0.1818 1.00355 0.56195 0.0
C482 C 0.16039 0.99897 0.6243 0.0
C483 C 0.11863 1.00381 0.5758 0.0
H484 H 0.11227 0.01704 0.70616 0.0
C485 C 0.05515 0.01627 0.63994 0.0
C486 C 0.05012 0.00895 0.68715 0.0
C487 C 0.07134 0.01639 0.62431 0.0
C488 C 0.11382 0.01317 0.66981 0.0
H489 H 0.17477 0.01576 0.49188 0.0
H490 H 0.14686 0.0183 0.51731 0.0
H491 H 0.14026 0.01599 0.67901 0.0
H492 H 0.05809 0.99625 0.75539 0.0
H493 H 0.08638 0.99635 0.72806 0.0
H494 H 0.09216 1.00095 0.56671 0.0
C495 C 0.15489 0.01233 0.54343 0.0
C496 C 0.12986 0.01257 0.65422 0.0
C497 C 0.17088 0.01089 0.52884 0.0
C498 C 0.06164 1.00196 0.71875 0.0
C499 C 0.07786 1.00212 0.70318 0.0
C500 C 0.10259 1.00445 0.59137 0.0
C501 C 0.14947 1.00641 0.59139 0.0
C502 C 0.13246 0.00775 0.60716 0.0
C503 C 0.08287 0.00925 0.65566 0.0
C504 C 0.09998 0.00902 0.63867 0.0
H505 H 0.1843 0.99149 0.63591 0.0
H506 H 0.15652 0.99393 0.66117 0.0
H507 H 0.12015 0.9998 0.53959 0.0
H508 H 0.04654 0.02184 0.61491 0.0
H509 H 0.07487 0.0222 0.58775 0.0
C510 C 0.46583 0.15433 0.45662 0.0
C511 C 0.45717 0.14859 0.41426 0.0
C512 C 0.46943 0.14189 0.49436 0.0
C513 C 0.45712 0.09466 0.54418 0.0
H514 H 0.50216 0.10035 0.59678 0.0
C515 C 0.48396 0.03607 0.64254 0.0
C516 C 0.49528 0.03932 0.68145 0.0
C517 C 0.47806 0.05019 0.61587 0.0
C518 C 0.48944 0.09869 0.58321 0.0
H519 H 0.44568 0.12515 0.3785 0.0
H520 H 0.45175 0.10362 0.44428 0.0
H521 H 0.49416 0.12374 0.53926 0.0
H522 H 0.50889 0.05977 0.72426 0.0
H523 H 0.49845 0.08452 0.67789 0.0
H524 H 0.45243 0.06952 0.58747 0.0
C525 C 0.45555 0.11773 0.44869 0.0
C526 C 0.48486 0.11211 0.55016 0.0
C527 C 0.45204 0.13012 0.41094 0.0
C528 C 0.50021 0.05691 0.69424 0.0
C529 C 0.49431 0.07107 0.66751 0.0
C530 C 0.46167 0.08129 0.57731 0.0
C531 C 0.46437 0.12345 0.49072 0.0
C532 C 0.46875 0.11008 0.52951 0.0
C533 C 0.48333 0.0679 0.62756 0.0
C534 C 0.47798 0.08296 0.59648 0.0
H535 H 0.46979 0.16844 0.46073 0.0
H536 H 0.47611 0.14672 0.5265 0.0
H537 H 0.44451 0.09285 0.52961 0.0
H538 H 0.47993 0.02264 0.63188 0.0
H539 H 0.4698 0.04725 0.585 0.0
C540 C 0.3595 0.55906 0.55872 0.0
C541 C 0.34653 0.55546 0.59291 0.0
C542 C 0.37484 0.55385 0.57015 0.0
C543 C 0.39431 0.52242 0.6533 0.0
H544 H 0.4355 0.55455 0.61728 0.0
C545 C 0.4585 0.50873 0.7238 0.0
C546 C 0.47169 0.51242 0.69043 0.0
C547 C 0.44325 0.51397 0.71149 0.0
C548 C 0.42411 0.54534 0.6271 0.0
H549 H 0.33944 0.54335 0.6657 0.0
H550 H 0.36624 0.53456 0.68591 0.0
H551 H 0.40886 0.56373 0.59633 0.0
H552 H 0.47933 0.52441 0.61807 0.0
H553 H 0.45263 0.53338 0.59622 0.0
H554 H 0.40953 0.50404 0.68408 0.0
C555 C 0.36453 0.54128 0.65011 0.0
C556 C 0.40884 0.5506 0.61509 0.0
C557 C 0.34923 0.54652 0.63873 0.0
C558 C 0.46936 0.52141 0.6445 0.0
C559 C 0.45411 0.52665 0.63215 0.0
C560 C 0.40956 0.51716 0.66529 0.0
C561 C 0.37752 0.54487 0.61596 0.0
C562 C 0.39376 0.53922 0.62816 0.0
C563 C 0.44087 0.52299 0.66551 0.0
C564 C 0.42465 0.52857 0.65243 0.0
H565 H 0.35787 0.56606 0.52325 0.0
H566 H 0.38453 0.55667 0.54286 0.0
H567 H 0.38292 0.51322 0.6632 0.0
H568 H 0.45998 0.50184 0.75954 0.0
H569 H 0.4334 0.51115 0.73828 0.0
C570 C 0.07899 0.39698 0.49092 0.0
C571 C 0.0712 0.37891 0.49433 0.0
C572 C 0.07484 0.40864 0.52297 0.0
C573 C 0.0559 0.41104 0.64199 0.0
H574 H 0.04683 0.45636 0.58207 0.0
C575 C 0.0259 0.46033 0.74594 0.0
C576 C 0.03088 0.47866 0.73222 0.0
C577 C 0.03178 0.44765 0.72047 0.0
C578 C 0.04959 0.44392 0.59969 0.0
H579 H 0.05312 0.35892 0.53508 0.0
H580 H 0.04609 0.3793 0.59152 0.0
H581 H 0.05545 0.43529 0.53135 0.0
H582 H 0.04674 0.4982 0.68381 0.0
H583 H 0.05744 0.47627 0.64078 0.0
H584 H 0.05014 0.41979 0.71053 0.0
C585 C 0.05545 0.38436 0.56401 0.0
C586 C 0.05448 0.4318 0.57047 0.0
C587 C 0.05951 0.37269 0.53167 0.0
C588 C 0.0425 0.48412 0.69463 0.0
C589 C 0.04853 0.47153 0.66972 0.0
C590 C 0.05112 0.42327 0.67143 0.0
C591 C 0.06289 0.40251 0.55949 0.0
C592 C 0.05774 0.41526 0.59123 0.0
C593 C 0.04288 0.45313 0.68124 0.0
C594 C 0.04798 0.43991 0.65062 0.0
H595 H 0.08832 0.40216 0.46341 0.0
H596 H 0.08099 0.42251 0.51913 0.0
H597 H 0.05842 0.39841 0.65901 0.0
H598 H 0.01694 0.45579 0.77489 0.0
H599 H 0.02712 0.4336 0.73027 0.0
C600 C 0.853 0.02885 0.96604 0.0
C601 C 0.84921 0.0222 0.01475 0.0
C602 C 0.86821 0.02753 0.94574 0.0
C603 C 0.90268 1.0021 0.96063 0.0
H604 H 0.92696 0.04215 0.87929 0.0
C605 C 0.9705 1.00471 0.90256 0.0
C606 C 0.97524 0.01212 0.8552 0.0
C607 C 0.95479 1.00552 0.92026 0.0
C608 C 0.92023 0.03075 0.90133 0.0
H609 H 0.85863 0.00915 0.08045 0.0
H610 H 0.88518 1.0068 0.04492 0.0
H611 H 0.9004 0.04462 0.91436 0.0
H612 H 0.96719 0.02587 0.78871 0.0
H613 H 0.93956 0.02715 0.81944 0.0
H614 H 0.92248 0.98822 0.94767 0.0
C615 C 0.87626 0.01285 0.02229 0.0
C616 C 0.90502 0.03218 0.92153 0.0
C617 C 0.86104 0.01421 0.04266 0.0
C618 C 0.96387 0.02013 0.82548 0.0
C619 C 0.9481 0.02094 0.8432 0.0
C620 C 0.91786 1.00065 0.94035 0.0
C621 C 0.88 0.01948 0.97354 0.0
C622 C 0.89611 0.01791 0.95165 0.0
C623 C 0.94341 0.01372 0.89094 0.0
C624 C 0.92689 0.015 0.9107 0.0
H625 H 0.84405 0.03476 0.94313 0.0
H626 H 0.87059 0.03252 0.90788 0.0
H627 H 0.89599 0.99074 0.98294 0.0
H628 H 0.97901 0.99846 0.92631 0.0
H629 H 0.95171 1.00005 0.95738 0.0
C630 C 0.57063 0.86782 0.1002 0.0
C631 C 0.55875 0.85812 0.13328 0.0
C632 C 0.56609 0.88018 0.06377 0.0
C633 C 0.52923 0.89505 1.00028 0.0
H634 H 0.55976 0.94012 0.97679 0.0
C635 C 0.50913 0.95974 0.91314 0.0
C636 C 0.5199 0.97084 0.87953 0.0
C637 C 0.51396 0.9447 0.93831 0.0
C638 C 0.5512 0.92751 0.98237 0.0
H639 H 0.53276 0.85369 0.1538 0.0
H640 H 0.52488 0.87539 0.09102 0.0
H641 H 0.56805 0.9162 0.03153 0.0
H642 H 0.54398 0.97471 0.84474 0.0
H643 H 0.55254 0.94844 0.88921 0.0
H644 H 0.51217 0.90672 0.95233 0.0
C645 C 0.53764 0.87321 0.0923 0.0
C646 C 0.55595 0.91375 0.01371 0.0
C647 C 0.54216 0.86076 0.12844 0.0
C648 C 0.53546 0.9664 0.87061 0.0
C649 C 0.54038 0.95143 0.89619 0.0
C650 C 0.52443 0.90888 0.96925 0.0
C651 C 0.54959 0.88325 0.05981 0.0
C652 C 0.54496 0.8974 0.02359 0.0
C653 C 0.52974 0.94052 0.93067 0.0
C654 C 0.53529 0.92533 0.96041 0.0
H655 H 0.58348 0.86591 0.10265 0.0
H656 H 0.57557 0.88739 0.03888 0.0
H657 H 0.52055 0.88255 0.00619 0.0
H658 H 0.49704 0.96284 0.9206 0.0
H659 H 0.50555 0.93667 0.96494 0.0
C660 C 0.65836 0.45192 0.98726 0.0
C661 C 0.66839 0.46574 0.01048 0.0
C662 C 0.64416 0.45511 0.96058 0.0
C663 C 0.62334 0.49141 0.90273 0.0
H664 H 0.5826 0.45749 0.9316 0.0
C665 C 0.55956 0.50236 0.82016 0.0
C666 C 0.54623 0.49901 0.85306 0.0
C667 C 0.57474 0.49709 0.83356 0.0
C668 C 0.59387 0.4671 0.92319 0.0
H669 H 0.67198 0.49393 0.02168 0.0
H670 H 0.64723 0.49945 0.97575 0.0
H671 H 0.60912 0.45079 0.96405 0.0
H672 H 0.53818 0.48738 0.92539 0.0
H673 H 0.56469 0.47839 0.94909 0.0
H674 H 0.60801 0.50805 0.86357 0.0
C675 C 0.65027 0.48616 0.97791 0.0
C676 C 0.6091 0.46316 0.94126 0.0
C677 C 0.66436 0.48296 1.0047 0.0
C678 C 0.54826 0.49014 0.89933 0.0
C679 C 0.56341 0.48486 0.91272 0.0
C680 C 0.60811 0.49534 0.88459 0.0
C681 C 0.63982 0.47222 0.95625 0.0
C682 C 0.62397 0.47543 0.93209 0.0
C683 C 0.57685 0.48833 0.88008 0.0
C684 C 0.59316 0.48339 0.89544 0.0
H685 H 0.66115 0.43851 0.99121 0.0
H686 H 0.63644 0.44414 0.9439 0.0
H687 H 0.6346 0.50106 0.89453 0.0
H688 H 0.5583 0.50911 0.78413 0.0
H689 H 0.58479 0.49981 0.80741 0.0
C690 C 0.95811 0.64491 0.05707 0.0
C691 C 0.96132 0.64702 0.107 0.0
C692 C 0.96266 0.63063 0.03558 0.0
C693 C 0.97427 0.58611 0.06335 0.0
H694 H 0.99607 0.5967 0.93743 0.0
C695 C 0.00911 0.5364 0.98244 0.0
C696 C 0.00751 0.53468 0.932 0.0
C697 C 0.00278 0.54982 1.00308 0.0
C698 C 0.9898 0.59344 0.97226 0.0
H699 H 0.97138 0.63541 0.1738 0.0
H700 H 0.97951 0.61054 0.13612 0.0
H701 H 0.98592 0.62031 0.97521 0.0
H702 H 0.9982 0.54563 0.86336 0.0
H703 H 0.98691 0.56904 0.89942 0.0
H704 H 0.97821 0.55926 0.0605 0.0
C705 C 0.97336 0.61991 0.11368 0.0
C706 C 0.98398 0.60698 0.99394 0.0
C707 C 0.96884 0.63424 0.13518 0.0
C708 C 0.99956 0.54668 0.90239 0.0
C709 C 0.9932 0.56013 0.92304 0.0
C710 C 0.98006 0.57255 0.04162 0.0
C711 C 0.97053 0.61808 0.06346 0.0
C712 C 0.97623 0.6035 0.03987 0.0
C713 C 0.99469 0.56181 0.9737 0.0
C714 C 0.988 0.57608 0.99596 0.0
H715 H 0.95254 0.65462 0.03409 0.0
H716 H 0.96011 0.62948 0.99696 0.0
H717 H 0.96814 0.58293 0.0984 0.0
H718 H 0.01527 0.52736 0.00608 0.0
H719 H 0.00442 0.55092 0.04203 0.0
C720 C 0.05914 0.19563 0.52681 0.0
C721 C 0.04695 0.20312 0.49929 0.0
C722 C 0.05513 0.17871 0.552 0.0
C723 C 0.01906 0.14564 0.60112 0.0
H724 H 0.05124 0.11375 0.61102 0.0
C725 C 0.00428 0.07128 0.67975 0.0
C726 C 0.01645 0.06516 0.71078 0.0
C727 C 0.00743 0.08843 0.65531 0.0
C728 C 0.04219 0.12259 0.60893 0.0
H729 H 0.02112 0.19862 0.47542 0.0
H730 H 0.01416 0.16883 0.51844 0.0
H731 H 0.05791 0.14261 0.56344 0.0
H732 H 0.04123 0.07254 0.7419 0.0
H733 H 0.04667 0.10237 0.69919 0.0
H734 H 0.00326 0.12534 0.64611 0.0
C735 C 0.02673 0.1762 0.52159 0.0
C736 C 0.04601 0.13914 0.58173 0.0
C737 C 0.03072 0.19322 0.49674 0.0
C738 C 0.0316 0.07676 0.71806 0.0
C739 C 0.03478 0.09383 0.69339 0.0
C740 C 0.01519 0.12898 0.62801 0.0
C741 C 0.03885 0.1688 0.5499 0.0
C742 C 0.03454 0.15094 0.57771 0.0
C743 C 0.02284 0.09973 0.66118 0.0
C744 C 0.02677 0.11736 0.63245 0.0
H745 H 0.07168 0.2031 0.53009 0.0
H746 H 0.06471 0.17359 0.57411 0.0
H747 H 0.01004 0.15449 0.59947 0.0
H748 H 0.99247 0.06268 0.6734 0.0
H749 H 0.99802 0.09263 0.63054 0.0
C750 C 0.3436 0.97235 0.66129 0.0
C751 C 0.33503 0.95753 0.63887 0.0
C752 C 0.35736 0.97079 0.69149 0.0
C753 C 0.38494 0.96531 0.76172 0.0
H754 H 0.41434 0.93648 0.71306 0.0
C755 C 0.45388 0.9783 0.8156 0.0
C756 C 0.46506 0.97785 0.77804 0.0
C757 C 0.4371 0.97058 0.81108 0.0
C758 C 0.40637 0.94475 0.72695 0.0
H759 H 0.33331 0.92915 0.63325 0.0
H760 H 0.35702 0.92617 0.68786 0.0
H761 H 0.3859 0.9335 0.68298 0.0
H762 H 0.46786 0.96856 0.70721 0.0
H763 H 0.43849 0.95619 0.69733 0.0
H764 H 0.40575 0.97796 0.80158 0.0
C765 C 0.35347 0.93917 0.68083 0.0
C766 C 0.38985 0.94276 0.71036 0.0
C767 C 0.33981 0.94082 0.64984 0.0
C768 C 0.45942 0.96894 0.73677 0.0
C769 C 0.44254 0.96172 0.73145 0.0
C770 C 0.40155 0.96766 0.77725 0.0
C771 C 0.36279 0.95428 0.70071 0.0
C772 C 0.37909 0.95356 0.72602 0.0
C773 C 0.43102 0.96285 0.76799 0.0
C774 C 0.41271 0.95789 0.75866 0.0
H775 H 0.34038 0.98547 0.65288 0.0
H776 H 0.3643 0.98286 0.705 0.0
H777 H 0.37691 0.97344 0.77597 0.0
H778 H 0.45806 0.98494 0.84812 0.0
H779 H 0.42884 0.97124 0.84082 0.0
C780 C 0.47233 0.27867 0.49323 0.0
C781 C 0.48187 0.27899 0.45115 0.0
C782 C 0.47745 0.29079 0.52822 0.0
C783 C 0.5128 0.32602 0.564 0.0
H784 H 0.47708 0.34914 0.60164 0.0
C785 C 0.52607 0.3916 0.65983 0.0
C786 C 0.5167 0.40464 0.64222 0.0
C787 C 0.52172 0.37404 0.64687 0.0
C788 C 0.48722 0.34286 0.59141 0.0
H789 H 0.50464 0.29176 0.41397 0.0
H790 H 0.51342 0.31292 0.47414 0.0
H791 H 0.47044 0.32177 0.561 0.0
H792 H 0.49553 0.40957 0.597 0.0
H793 H 0.48815 0.37921 0.57362 0.0
H794 H 0.52962 0.34784 0.59132 0.0
C795 C 0.50216 0.30313 0.48099 0.0
C796 C 0.4834 0.32696 0.56876 0.0
C797 C 0.49711 0.29095 0.44629 0.0
C798 C 0.50284 0.39975 0.61176 0.0
C799 C 0.49857 0.38229 0.59856 0.0
C800 C 0.51663 0.34203 0.58626 0.0
C801 C 0.49215 0.30359 0.52163 0.0
C802 C 0.49616 0.31862 0.55339 0.0
C803 C 0.50798 0.3692 0.61576 0.0
C804 C 0.5039 0.35094 0.59884 0.0
H805 H 0.46062 0.26944 0.49824 0.0
H806 H 0.4696 0.29053 0.55957 0.0
H807 H 0.52293 0.31979 0.55351 0.0
H808 H 0.53671 0.39495 0.68384 0.0
H809 H 0.52913 0.36427 0.66123 0.0
C810 C 0.17898 0.56904 0.66055 0.0
C811 C 0.18555 0.58581 0.63681 0.0
C812 C 0.16512 0.56695 0.69053 0.0
C813 C 0.13879 0.5652 0.76532 0.0
H814 H 0.10388 0.59159 0.72259 0.0
C815 C 0.07363 0.54296 0.84542 0.0
C816 C 0.0603 0.54345 0.81232 0.0
C817 C 0.0895 0.5525 0.83352 0.0
C818 C 0.11341 0.58395 0.73488 0.0
H819 H 0.18322 0.61372 0.62721 0.0
H820 H 0.15932 0.6103 0.68149 0.0
H821 H 0.13083 0.5991 0.68343 0.0
H822 H 0.05278 0.5547 0.74179 0.0
H823 H 0.08052 0.57036 0.71935 0.0
H824 H 0.12107 0.5489 0.81322 0.0
C825 C 0.16457 0.5986 0.67586 0.0
C826 C 0.12907 0.58852 0.71292 0.0
C827 C 0.17833 0.60063 0.64502 0.0
C828 C 0.06287 0.55427 0.76812 0.0
C829 C 0.07885 0.56335 0.75546 0.0
C830 C 0.12305 0.56033 0.78631 0.0
C831 C 0.15757 0.58164 0.69831 0.0
C832 C 0.14182 0.57881 0.72677 0.0
C833 C 0.09253 0.56218 0.78739 0.0
C834 C 0.10994 0.56929 0.77046 0.0
H835 H 0.1841 0.55732 0.65412 0.0
H836 H 0.15994 0.55358 0.70583 0.0
H837 H 0.14841 0.55776 0.77822 0.0
H838 H 0.07186 0.53481 0.88003 0.0
H839 H 0.09948 0.55172 0.85996 0.0
C840 C 0.96385 0.82744 0.99078 0.0
C841 C 0.97413 0.81891 0.02327 0.0
C842 C 0.97078 0.84166 0.95762 0.0
C843 C 0.00617 0.87793 0.94958 0.0
H844 H 0.9893 0.88775 0.81838 0.0
C845 C 0.02412 0.94741 0.84412 0.0
C846 C 0.01069 0.95416 0.82103 0.0
C847 C 0.02232 0.92933 0.86128 0.0
C848 C 0.99412 0.88522 0.85501 0.0
H849 H 0.99972 0.81798 0.04513 0.0
H850 H 0.01183 0.84291 0.98717 0.0
H851 H 0.98106 0.85812 0.86146 0.0
H852 H 0.98494 0.94717 0.79704 0.0
H853 H 0.98172 0.916 0.82771 0.0
H854 H 0.01847 0.9052 0.94453 0.0
C855 C 0.99843 0.83859 0.98743 0.0
C856 C 0.98945 0.86825 0.87952 0.0
C857 C 0.99151 0.82426 0.0203 0.0
C858 C 0.99558 0.94243 0.81449 0.0
C859 C 0.99376 0.92444 0.83174 0.0
C860 C 0.01073 0.89494 0.92527 0.0
C861 C 0.98811 0.8477 0.95664 0.0
C862 C 0.99508 0.86459 0.92753 0.0
C863 C 0.00704 0.91769 0.85581 0.0
C864 C 0.00437 0.89894 0.87825 0.0
H865 H 0.95042 0.82348 0.99207 0.0
H866 H 0.9625 0.84853 0.93459 0.0
H867 H 0.01055 0.87555 0.98679 0.0
H868 H 0.03597 0.9561 0.84934 0.0
H869 H 0.03285 0.92451 0.8792 0.0
C870 C 0.68764 0.05442 0.95028 0.0
C871 C 0.68799 0.03665 0.96827 0.0
C872 C 0.67554 0.0583 0.91581 0.0
C873 C 0.64259 0.03708 0.83187 0.0
H874 H 0.61832 0.07294 0.86899 0.0
C875 C 0.57701 0.03829 0.75601 0.0
C876 C 0.56532 0.03879 0.79229 0.0
C877 C 0.59405 0.04342 0.76519 0.0
C878 C 0.62498 0.06293 0.85795 0.0
H879 H 0.67683 0.00896 0.96176 0.0
H880 H 0.65563 0.01563 0.90277 0.0
H881 H 0.64524 0.07065 0.90706 0.0
H882 H 0.56219 0.04637 0.86521 0.0
H883 H 0.59179 0.0548 0.88185 0.0
H884 H 0.62181 0.02833 0.78592 0.0
C885 C 0.66467 0.02665 0.9147 0.0
C886 C 0.64054 0.06177 0.87933 0.0
C887 C 0.67669 0.0228 0.94906 0.0
C888 C 0.5709 0.04581 0.8365 0.0
C889 C 0.58793 0.05076 0.84591 0.0
C890 C 0.62699 0.03813 0.81086 0.0
C891 C 0.66366 0.04445 0.89854 0.0
C892 C 0.64918 0.04832 0.86806 0.0
C893 C 0.59975 0.04898 0.81107 0.0
C894 C 0.61768 0.05058 0.82516 0.0
H895 H 0.6962 0.06536 0.96451 0.0
H896 H 0.67519 0.07214 0.90372 0.0
H897 H 0.64909 0.02682 0.82162 0.0
H898 H 0.57306 0.03329 0.72113 0.0
H899 H 0.60277 0.0423 0.73706 0.0
C900 C 0.51829 0.72204 0.10927 0.0
C901 C 0.53526 0.7297 0.10475 0.0
C902 C 0.5108 0.70962 0.07747 0.0
C903 C 0.51617 0.6888 0.96314 0.0
H904 H 0.49368 0.64576 0.03671 0.0
C905 C 0.5067 0.61889 0.89078 0.0
C906 C 0.49257 0.60621 0.90563 0.0
C907 C 0.50974 0.63574 0.90873 0.0
C908 C 0.49957 0.65774 0.01519 0.0
H909 H 0.55724 0.73157 0.06048 0.0
H910 H 0.54422 0.70966 1.00537 0.0
H911 H 0.50245 0.67272 0.07775 0.0
H912 H 0.47022 0.60173 0.94961 0.0
H913 H 0.47517 0.63126 0.97917 0.0
H914 H 0.51353 0.6736 0.90067 0.0
C915 C 0.5367 0.71327 0.03348 0.0
C916 C 0.50463 0.67324 0.03883 0.0
C917 C 0.5442 0.7257 0.06533 0.0
C918 C 0.48117 0.61113 0.93704 0.0
C919 C 0.48414 0.62803 0.95458 0.0
C920 C 0.511 0.67327 0.9393 0.0
C921 C 0.5201 0.70457 0.04046 0.0
C922 C 0.5132 0.68888 0.01332 0.0
C923 C 0.49867 0.64039 0.94166 0.0
C924 C 0.50286 0.65746 0.96526 0.0
H925 H 0.51104 0.72471 0.13934 0.0
H926 H 0.49791 0.70335 0.08325 0.0
H927 H 0.52265 0.7007 0.94245 0.0
H928 H 0.51559 0.61571 0.86588 0.0
H929 H 0.52112 0.64485 0.89818 0.0
C930 C 0.84543 0.43314 0.01916 0.0
C931 C 0.83426 0.44141 0.98905 0.0
C932 C 0.8616 0.4331 1.00342 0.0
C933 C 0.88784 0.4398 0.89264 0.0
H934 H 0.92417 0.45439 0.98247 0.0
C935 C 0.95371 0.4721 0.82898 0.0
C936 C 0.96755 0.46952 0.85855 0.0
C937 C 0.93758 0.46448 0.844 0.0
C938 C 0.91421 0.44991 0.95716 0.0
H939 H 0.83149 0.45616 0.91871 0.0
H940 H 0.85953 0.45594 0.89127 0.0
H941 H 0.89555 0.44907 0.01112 0.0
H942 H 0.97536 0.45587 0.92568 0.0
H943 H 0.94713 0.44236 0.95172 0.0
H944 H 0.90648 0.44107 0.83835 0.0
C945 C 0.85571 0.44925 0.92676 0.0
C946 C 0.89778 0.4469 0.9736 0.0
C947 C 0.8396 0.44937 0.94255 0.0
C948 C 0.96496 0.45818 0.90209 0.0
C949 C 0.94878 0.45057 0.91723 0.0
C950 C 0.90427 0.44275 0.87623 0.0
C951 C 0.86694 0.44124 0.95712 0.0
C952 C 0.88439 0.44226 0.94121 0.0
C953 C 0.93488 0.45405 0.88899 0.0
C954 C 0.91764 0.44829 0.90797 0.0
H955 H 0.84166 0.42664 0.05488 0.0
H956 H 0.86992 0.42667 0.02747 0.0
H957 H 0.8778 0.43591 0.86702 0.0
H958 H 0.95526 0.48054 0.79493 0.0
H959 H 0.9272 0.46757 0.82143 0.0
C960 C 0.06577 0.20232 0.19574 0.0
C961 C 0.08182 0.21224 0.20244 0.0
C962 C 0.06354 0.18658 0.17203 0.0
C963 C 0.0845 0.16418 0.0846 0.0
H964 H 0.05105 0.12284 0.12478 0.0
C965 C 0.07793 0.09811 0.99276 0.0
C966 C 0.06168 0.08929 0.98288 0.0
C967 C 0.08059 0.11259 0.02148 0.0
C968 C 0.06034 0.13434 0.11281 0.0
H969 H 0.10817 0.21289 0.19166 0.0
H970 H 0.1043 0.18544 0.15057 0.0
H971 H 0.05537 0.14877 0.17249 0.0
H972 H 0.03548 0.08864 0.99633 0.0
H973 H 0.04011 0.11411 0.04557 0.0
H974 H 0.0894 0.14987 0.02475 0.0
C975 C 0.09339 0.19001 0.16267 0.0
C976 C 0.06282 0.1492 0.14019 0.0
C977 C 0.09562 0.20574 0.1863 0.0
C978 C 0.04816 0.09525 1.0027 0.0
C979 C 0.05082 0.10972 0.03147 0.0
C980 C 0.08203 0.14934 0.05725 0.0
C981 C 0.07731 0.18038 0.15453 0.0
C982 C 0.07491 0.16433 0.12635 0.0
C983 C 0.06707 0.11861 0.04111 0.0
C984 C 0.06988 0.13425 0.0709 0.0
H985 H 0.05486 0.20706 0.20719 0.0
H986 H 0.05097 0.17961 0.16595 0.0
H987 H 0.09371 0.17572 0.07233 0.0
H988 H 0.08863 0.09397 0.97777 0.0
H989 H 0.09328 0.11901 0.02858 0.0
C990 C 0.32132 0.02105 0.17364 0.0
C991 C 0.32305 0.02461 0.223 0.0
C992 C 0.33528 0.02406 0.14329 0.0
C993 C 0.38126 0.0286 0.15106 0.0
H994 H 0.37961 0.04596 0.01405 0.0
C995 C 0.44044 0.04669 0.03329 0.0
C996 C 0.43934 0.04067 0.98625 0.0
C997 C 0.4261 0.04558 0.06108 0.0
C998 C 0.38022 0.04097 0.05218 0.0
H999 H 0.34054 0.03513 0.2785 0.0
H1000 H 0.36475 0.04069 0.22564 0.0
H1001 H 0.35476 0.04279 0.06416 0.0
H1002 H 0.42223 0.02918 0.93101 0.0
H1003 H 0.39724 0.02706 0.97975 0.0
H1004 H 0.40669 0.02679 0.1392 0.0
C1005 C 0.35276 0.03504 0.21056 0.0
C1006 C 0.36597 0.03913 0.08089 0.0
C1007 C 0.33888 0.03192 0.24084 0.0
C1008 C 0.42353 0.03375 0.96735 0.0
C1009 C 0.40919 0.03272 0.99505 0.0
C1010 C 0.39549 0.03051 0.12247 0.0
C1011 C 0.35123 0.03083 0.16165 0.0
C1012 C 0.36633 0.03294 0.13074 0.0
C1013 C 0.41032 0.03849 0.0424 0.0
C1014 C 0.39516 0.03671 0.0727 0.0
H1015 H 0.30928 0.01532 0.15899 0.0
H1016 H 0.33365 0.02054 0.10593 0.0
H1017 H 0.38192 0.02342 0.18902 0.0
H1018 H 0.45242 0.05197 0.04907 0.0
H1019 H 0.42738 0.05031 0.09723 0.0
C1020 C 0.44601 0.32359 0.03301 0.0
C1021 C 0.45117 0.30966 0.01066 0.0
C1022 C 0.4487 0.34104 0.01034 0.0
C1023 C 0.4592 0.36736 0.89058 0.0
H1024 H 0.47381 0.40638 0.97156 0.0
C1025 C 0.49076 0.43787 0.8128 0.0
C1026 C 0.48616 0.45269 0.83216 0.0
C1027 C 0.48483 0.42052 0.83335 0.0
C1028 C 0.46953 0.39566 0.94851 0.0
H1029 H 0.46279 0.30319 0.94607 0.0
H1030 H 0.46798 0.33362 0.90741 0.0
H1031 H 0.46665 0.37592 0.00973 0.0
H1032 H 0.47153 0.46085 0.88799 0.0
H1033 H 0.46126 0.43047 0.92418 0.0
H1034 H 0.46256 0.38714 0.82927 0.0
C1035 C 0.46163 0.33105 0.94217 0.0
C1036 C 0.46539 0.37817 0.97038 0.0
C1037 C 0.45886 0.3136 0.96471 0.0
C1038 C 0.4753 0.44973 0.87217 0.0
C1039 C 0.46949 0.43235 0.89308 0.0
C1040 C 0.46346 0.38483 0.86871 0.0
C1041 C 0.45669 0.34503 0.96483 0.0
C1042 C 0.4603 0.36376 0.94167 0.0
C1043 C 0.47428 0.41757 0.87404 0.0
C1044 C 0.4688 0.39915 0.89741 0.0
H1045 H 0.44021 0.32112 0.0686 0.0
H1046 H 0.44453 0.3514 0.02861 0.0
H1047 H 0.45503 0.35666 0.86737 0.0
H1048 H 0.49909 0.43964 0.78195 0.0
H1049 H 0.48888 0.40943 0.81814 0.0
C1050 C 0.21569 0.55408 0.20253 0.0
C1051 C 0.22284 0.54203 0.23454 0.0
C1052 C 0.2024 0.54788 0.17172 0.0
C1053 C 0.17901 0.5069 0.12091 0.0
H1054 H 0.1429 0.53386 0.11176 0.0
C1055 C 0.12016 0.48839 0.99948 0.0
C1056 C 0.10485 0.49045 0.01844 0.0
C1057 C 0.13513 0.49449 0.02372 0.0
C1058 C 0.15281 0.52609 0.1142 0.0
H1059 H 0.22185 0.514 0.25865 0.0
H1060 H 0.19859 0.50319 0.20538 0.0
H1061 H 0.16819 0.54488 0.15653 0.0
H1062 H 0.09318 0.49982 0.07865 0.0
H1063 H 0.11919 0.51021 0.12123 0.0
H1064 H 0.16331 0.48777 0.07998 0.0
C1065 C 0.20341 0.51741 0.20332 0.0
C1066 C 0.16744 0.53256 0.13928 0.0
C1067 C 0.21676 0.52361 0.23392 0.0
C1068 C 0.1048 0.49832 0.06271 0.0
C1069 C 0.11972 0.50433 0.08701 0.0
C1070 C 0.16432 0.50039 0.09589 0.0
C1071 C 0.19587 0.52949 0.17245 0.0
C1072 C 0.1807 0.523 0.14328 0.0
C1073 C 0.1351 0.50272 0.06753 0.0
C1074 C 0.15098 0.50983 0.09265 0.0
H1075 H 0.22025 0.56833 0.20172 0.0
H1076 H 0.19712 0.55753 0.1477 0.0
H1077 H 0.18904 0.49929 0.12282 0.0
H1078 H 0.12061 0.48255 0.96516 0.0
H1079 H 0.14675 0.49319 0.00744 0.0
C1080 C 0.92438 0.79193 0.45677 0.0
C1081 C 0.93837 0.78478 0.44519 0.0
C1082 C 0.92633 0.80793 0.47921 0.0
C1083 C 0.95663 0.84913 0.49075 0.0
H1084 H 0.92869 0.85641 0.59654 0.0
C1085 C 0.95616 0.91909 0.55382 0.0
C1086 C 0.95722 0.92048 0.60456 0.0
C1087 C 0.95322 0.90233 0.53533 0.0
C1088 C 0.93662 0.85455 0.5671 0.0
H1089 H 0.96536 0.78869 0.44884 0.0
H1090 H 0.96874 0.8165 0.48823 0.0
H1091 H 0.92509 0.82707 0.56438 0.0
H1092 H 0.95552 0.90537 0.67569 0.0
H1093 H 0.95034 0.87607 0.64335 0.0
H1094 H 0.96818 0.87654 0.49339 0.0
C1095 C 0.95627 0.80977 0.47978 0.0
C1096 C 0.93448 0.8378 0.54849 0.0
C1097 C 0.95432 0.79373 0.45774 0.0
C1098 C 0.9549 0.90473 0.63641 0.0
C1099 C 0.9518 0.88796 0.61791 0.0
C1100 C 0.95866 0.86589 0.50899 0.0
C1101 C 0.94232 0.81719 0.4901 0.0
C1102 C 0.94452 0.8349 0.51025 0.0
C1103 C 0.95112 0.88658 0.56716 0.0
C1104 C 0.9487 0.86879 0.54743 0.0
H1105 H 0.91193 0.78529 0.44778 0.0
H1106 H 0.91534 0.81335 0.48653 0.0
H1107 H 0.96444 0.84738 0.46089 0.0
H1108 H 0.95803 0.93098 0.52835 0.0
H1109 H 0.95261 0.90169 0.49605 0.0
C1110 C 0.71992 0.99438 0.43775 0.0
C1111 C 0.71812 0.98931 0.38965 0.0
C1112 C 0.7061 0.99188 0.46851 0.0
C1113 C 0.66268 0.96685 0.48247 0.0
H1114 H 0.65717 1.00452 0.56286 0.0
C1115 C 0.59951 0.97114 0.56472 0.0
C1116 C 0.59924 0.97617 0.61268 0.0
C1117 C 0.61461 0.97183 0.54114 0.0
C1118 C 0.65863 0.99376 0.54115 0.0
H1119 H 0.70028 0.97797 0.33595 0.0
H1120 H 0.6763 0.97371 0.38918 0.0
H1121 H 0.68251 0.00738 0.51522 0.0
H1122 H 0.61477 0.98566 0.67362 0.0
H1123 H 0.64118 0.98699 0.63215 0.0
H1124 H 0.63867 0.95341 0.50759 0.0
C1125 C 0.68842 0.97922 0.40372 0.0
C1126 C 0.67317 0.99539 0.51386 0.0
C1127 C 0.7022 0.98166 0.37312 0.0
C1128 C 0.6145 0.98187 0.6365 0.0
C1129 C 0.62964 0.98263 0.61277 0.0
C1130 C 0.64815 0.96526 0.50958 0.0
C1131 C 0.69016 0.98431 0.45179 0.0
C1132 C 0.67527 0.98206 0.48362 0.0
C1133 C 0.62986 0.97764 0.56477 0.0
C1134 C 0.64584 0.97881 0.53872 0.0
H1135 H 0.73204 1.00018 0.45172 0.0
H1136 H 0.70793 0.99578 0.50549 0.0
H1137 H 0.66402 0.95615 0.4604 0.0
H1138 H 0.58803 0.96707 0.54476 0.0
H1139 H 0.61431 0.96821 0.50384 0.0
C1140 C 0.56392 0.69786 0.57661 0.0
C1141 C 0.5744 0.70168 0.5357 0.0
C1142 C 0.56038 0.68055 0.59997 0.0
C1143 C 0.55967 0.63345 0.57746 0.0
H1144 H 0.55457 0.62514 0.71822 0.0
C1145 C 0.54549 0.56216 0.67633 0.0
C1146 C 0.53307 0.55923 0.71223 0.0
C1147 C 0.55195 0.57952 0.6565 0.0
C1148 C 0.55585 0.62725 0.67883 0.0
H1149 H 0.58988 0.69041 0.48846 0.0
H1150 H 0.5838 0.66024 0.5294 0.0
H1151 H 0.56346 0.65553 0.68078 0.0
H1152 H 0.51797 0.57233 0.75614 0.0
H1153 H 0.52916 0.60248 0.72142 0.0
H1154 H 0.55191 0.60519 0.57548 0.0
C1155 C 0.57805 0.67055 0.54285 0.0
C1156 C 0.56093 0.64467 0.65735 0.0
C1157 C 0.58156 0.68786 0.51941 0.0
C1158 C 0.5275 0.57407 0.72848 0.0
C1159 C 0.534 0.5914 0.70882 0.0
C1160 C 0.55462 0.61603 0.59895 0.0
C1161 C 0.56727 0.66663 0.58309 0.0
C1162 C 0.56274 0.64801 0.60634 0.0
C1163 C 0.5462 0.59433 0.6723 0.0
C1164 C 0.55249 0.61274 0.64983 0.0
H1165 H 0.55801 0.70813 0.58967 0.0
H1166 H 0.55183 0.67798 0.63038 0.0
H1167 H 0.56068 0.63553 0.538 0.0
H1168 H 0.55009 0.55105 0.66305 0.0
H1169 H 0.56147 0.58134 0.62881 0.0
C1170 C 0.84436 0.45085 0.33957 0.0
C1171 C 0.83762 0.46314 0.30717 0.0
C1172 C 0.85762 0.45673 0.3709 0.0
C1173 C 0.87596 0.49684 0.43111 0.0
H1174 H 0.91246 0.47149 0.46363 0.0
C1175 C 0.93049 0.52478 0.55614 0.0
C1176 C 0.93651 0.51259 0.59059 0.0
C1177 C 0.91907 0.5187 0.51991 0.0
C1178 C 0.90225 0.47862 0.45529 0.0
H1179 H 0.83995 0.49122 0.28132 0.0
H1180 H 0.86325 0.50137 0.33501 0.0
H1181 H 0.89185 0.46084 0.40188 0.0
H1182 H 0.93536 0.48441 0.6134 0.0
H1183 H 0.91509 0.47385 0.55104 0.0
H1184 H 0.88613 0.51446 0.48481 0.0
C1185 C 0.85814 0.48721 0.33667 0.0
C1186 C 0.89047 0.47253 0.41985 0.0
C1187 C 0.84492 0.48134 0.30536 0.0
C1188 C 0.93081 0.49418 0.58788 0.0
C1189 C 0.91937 0.4881 0.55167 0.0
C1190 C 0.88768 0.50289 0.46656 0.0
C1191 C 0.86438 0.47504 0.37061 0.0
C1192 C 0.8772 0.4816 0.40734 0.0
C1193 C 0.91334 0.50029 0.51725 0.0
C1194 C 0.90098 0.49386 0.47913 0.0
H1195 H 0.83911 0.43672 0.34154 0.0
H1196 H 0.86211 0.44702 0.39673 0.0
H1197 H 0.86569 0.50392 0.42307 0.0
H1198 H 0.9345 0.53905 0.5574 0.0
H1199 H 0.91483 0.52846 0.49367 0.0
loop_
_geom_bond_atom_site_label_1
_geom_bond_atom_site_label_2
_geom_bond_distance
_geom_bond_site_symmetry_2
_ccdc_geom_bond_type
C0 C1 1.264 . S
C0 C5 1.479 . S
C0 C10 1.465 . S
C1 C0 1.264 . S
C1 C3 1.339 . S
C1 H28 0.931 . S
C2 C3 1.395 . S
C2 C4 1.320 . S
C3 C1 1.339 . S
C3 C2 1.395 . S
C3 H29 0.929 . S
C4 C2 1.320 . S
C4 C5 1.405 . S
C4 H30 0.930 . S
C5 C0 1.479 . S
C5 C4 1.405 . S
C5 H31 0.931 . S
U6 O7 2.454 . S
U6 O8 2.458 1_554 S
U6 C9 2.984 . S
U6 C10 2.847 . S
U6 C23 2.882 1_554 S
U6 O24 2.441 . S
U6 O25 2.420 . S
U6 O26 2.455 1_554 S
U6 O27 2.449 . S
O7 U6 2.454 . S
O7 C9 1.353 . S
O8 U6 2.458 1_556 S
O8 C9 1.286 1_556 S
C9 U6 2.984 . S
C9 O7 1.353 . S
C9 O8 1.286 1_554 S
C9 C11 1.363 . S
C10 C0 1.465 . S
C10 U6 2.847 . S
C10 O24 1.249 . S
C10 O25 1.202 . S
C11 C9 1.363 . S
C11 C13 1.408 . S
C11 C16 1.342 1_554 S
C12 C13 1.310 . S
C12 C15 1.461 1_554 S
C12 H32 0.932 . S
C13 C11 1.408 . S
C13 C12 1.310 . S
C13 H33 0.930 . S
C14 C15 1.474 . S
C14 C16 1.285 . S
C14 H34 0.929 . S
C15 C12 1.461 1_556 S
C15 C14 1.474 . S
C16 C11 1.342 1_556 S
C16 C14 1.285 . S
C16 H35 0.930 . S
C17 C20 1.424 . S
C17 C22 1.245 . S
C17 C23 1.428 . S
C18 C21 1.260 . S
C18 C22 1.477 . S
C18 H36 0.932 . S
C19 C20 1.384 . S
C19 C21 1.479 . S
C19 H37 0.929 . S
C20 C17 1.424 . S
C20 C19 1.384 . S
C20 H38 0.928 . S
C21 C18 1.260 . S
C21 C19 1.479 . S
C22 C17 1.245 . S
C22 C18 1.477 . S
C22 H39 0.932 . S
C23 U6 2.882 1_556 S
C23 C17 1.428 . S
C23 O26 1.301 . S
C23 O27 1.282 1_556 S
O24 U6 2.441 . S
O24 C10 1.249 . S
O25 U6 2.420 . S
O25 C10 1.202 . S
O26 U6 2.455 1_556 S
O26 C23 1.301 . S
O27 U6 2.449 . S
O27 C23 1.282 1_554 S
H28 C1 0.931 . S
H29 C3 0.929 . S
H30 C4 0.930 . S
H31 C5 0.931 . S
H32 C12 0.932 . S
H33 C13 0.930 . S
H34 C14 0.929 . S
H35 C16 0.930 . S
H36 C18 0.932 . S
H37 C19 0.929 . S
H38 C20 0.928 . S
H39 C22 0.932 . S
C40 C41 1.264 . S
C40 C45 1.479 . S
C40 C50 1.465 . S
C41 C40 1.264 . S
C41 C43 1.339 . S
C41 H68 0.931 . S
C42 C43 1.395 . S
C42 C44 1.320 . S
C43 C41 1.339 . S
C43 C42 1.395 . S
C43 H69 0.929 . S
C44 C42 1.320 . S
C44 C45 1.405 . S
C44 H70 0.930 . S
C45 C40 1.479 . S
C45 C44 1.405 . S
C45 H71 0.931 . S
U46 O47 2.454 . S
U46 O48 2.458 1_554 S
U46 C49 2.984 . S
U46 C50 2.847 . S
U46 C63 2.882 1_554 S
U46 O64 2.441 . S
U46 O65 2.420 . S
U46 O66 2.455 1_554 S
U46 O67 2.449 . S
O47 U46 2.454 . S
O47 C49 1.353 . S
O48 U46 2.458 1_556 S
O48 C49 1.286 1_556 S
C49 U46 2.984 . S
C49 O47 1.353 . S
C49 O48 1.286 1_554 S
C49 C51 1.363 . S
C50 C40 1.465 . S
C50 U46 2.847 . S
C50 O64 1.249 . S
C50 O65 1.202 . S
C51 C49 1.363 . S
C51 C53 1.408 . S
C51 C56 1.342 1_554 S
C52 C53 1.310 . S
C52 C55 1.461 1_554 S
C52 H72 0.932 . S
C53 C51 1.408 . S
C53 C52 1.310 . S
C53 H73 0.930 . S
C54 C55 1.474 . S
C54 C56 1.285 . S
C54 H74 0.929 . S
C55 C52 1.461 1_556 S
C55 C54 1.474 . S
C56 C51 1.342 1_556 S
C56 C54 1.285 . S
C56 H75 0.930 . S
C57 C60 1.424 . S
C57 C62 1.245 . S
C57 C63 1.428 . S
C58 C61 1.260 . S
C58 C62 1.477 . S
C58 H76 0.932 . S
C59 C60 1.384 . S
C59 C61 1.479 . S
C59 H77 0.929 . S
C60 C57 1.424 . S
C60 C59 1.384 . S
C60 H78 0.928 . S
C61 C58 1.260 . S
C61 C59 1.479 . S
C62 C57 1.245 . S
C62 C58 1.477 . S
C62 H79 0.932 . S
C63 U46 2.882 1_556 S
C63 C57 1.428 . S
C63 O66 1.301 . S
C63 O67 1.282 1_556 S
O64 U46 2.441 . S
O64 C50 1.249 . S
O65 U46 2.420 . S
O65 C50 1.202 . S
O66 U46 2.455 1_556 S
O66 C63 1.301 . S
O67 U46 2.449 . S
O67 C63 1.282 1_554 S
H68 C41 0.931 . S
H69 C43 0.929 . S
H70 C44 0.930 . S
H71 C45 0.931 . S
H72 C52 0.932 . S
H73 C53 0.930 . S
H74 C54 0.929 . S
H75 C56 0.930 . S
H76 C58 0.932 . S
H77 C59 0.929 . S
H78 C60 0.928 . S
H79 C62 0.932 . S
C80 C81 1.264 . S
C80 C85 1.479 . S
C80 C90 1.465 . S
C81 C80 1.264 . S
C81 C83 1.339 . S
C81 H108 0.931 . S
C82 C83 1.395 . S
C82 C84 1.320 . S
C83 C81 1.339 . S
C83 C82 1.395 . S
C83 H109 0.929 . S
C84 C82 1.320 . S
C84 C85 1.405 . S
C84 H110 0.919 1_545 S
C85 C80 1.479 . S
C85 C84 1.405 . S
C85 H111 0.931 . S
U86 O87 2.454 . S
U86 O88 2.458 1_554 S
U86 C89 2.984 1_554 S
U86 C90 2.847 . S
U86 C103 2.882 1_554 S
U86 O104 2.441 . S
U86 O105 2.420 . S
U86 O106 2.455 1_554 S
U86 O107 2.449 1_554 S
O87 U86 2.454 . S
O87 C89 1.353 1_554 S
O88 U86 2.458 1_556 S
O88 C89 1.286 . S
C89 U86 2.984 1_556 S
C89 O87 1.353 1_556 S
C89 O88 1.286 . S
C89 C91 1.363 . S
C90 C80 1.465 . S
C90 U86 2.847 . S
C90 O104 1.249 . S
C90 O105 1.202 . S
C91 C89 1.363 . S
C91 C93 1.408 1_556 S
C91 C96 1.342 . S
C92 C93 1.310 1_556 S
C92 C95 1.461 . S
C92 H112 0.940 1_556 S
C93 C91 1.408 1_554 S
C93 C92 1.310 1_554 S
C93 H113 0.930 . S
C94 C95 1.475 1_565 S
C94 C96 1.283 1_565 S
C94 H114 0.932 . S
C95 C92 1.461 . S
C95 C94 1.475 1_545 S
C96 C91 1.342 . S
C96 C94 1.283 1_545 S
C96 H115 0.930 . S
C97 C100 1.424 . S
C97 C102 1.245 . S
C97 C103 1.428 . S
C98 C101 1.260 . S
C98 C102 1.477 . S
C98 H116 0.932 . S
C99 C100 1.384 . S
C99 C101 1.479 . S
C99 H117 0.929 . S
C100 C97 1.424 . S
C100 C99 1.384 . S
C100 H118 0.928 . S
C101 C98 1.260 . S
C101 C99 1.479 . S
C102 C97 1.245 . S
C102 C98 1.477 . S
C102 H119 0.932 . S
C103 U86 2.882 1_556 S
C103 C97 1.428 . S
C103 O106 1.301 . S
C103 O107 1.282 . S
O104 U86 2.441 . S
O104 C90 1.249 . S
O105 U86 2.420 . S
O105 C90 1.202 . S
O106 U86 2.455 1_556 S
O106 C103 1.301 . S
O107 U86 2.449 1_556 S
O107 C103 1.282 . S
H108 C81 0.931 . S
H109 C83 0.929 . S
H110 C84 0.919 1_565 S
H111 C85 0.931 . S
H112 C92 0.940 1_554 S
H113 C93 0.930 . S
H114 C94 0.932 . S
H115 C96 0.930 . S
H116 C98 0.932 . S
H117 C99 0.929 . S
H118 C100 0.928 . S
H119 C102 0.932 . S
C120 C121 1.264 . S
C120 C125 1.479 . S
C120 C130 1.465 . S
C121 C120 1.264 . S
C121 C123 1.339 . S
C121 H148 0.931 . S
C122 C123 1.395 . S
C122 C124 1.320 . S
C123 C121 1.339 . S
C123 C122 1.395 . S
C123 H149 0.929 . S
C124 C122 1.320 . S
C124 C125 1.405 . S
C124 H150 0.930 . S
C125 C120 1.479 . S
C125 C124 1.405 . S
C125 H151 0.931 . S
U126 O127 2.454 . S
U126 O128 2.458 . S
U126 C129 2.984 . S
U126 C130 2.847 . S
U126 C143 2.882 . S
U126 O144 2.441 . S
U126 O145 2.420 . S
U126 O146 2.455 . S
U126 O147 2.449 . S
O127 U126 2.454 . S
O127 C129 1.353 . S
O128 U126 2.458 . S
O128 C129 1.286 . S
C129 U126 2.984 . S
C129 O127 1.353 . S
C129 O128 1.286 . S
C129 C131 1.363 . S
C130 C120 1.465 . S
C130 U126 2.847 . S
C130 O144 1.249 . S
C130 O145 1.202 . S
C131 C129 1.363 . S
C131 C133 1.408 . S
C131 C136 1.342 . S
C132 C133 1.310 . S
C132 C135 1.461 . S
C132 H152 0.932 . S
C133 C131 1.408 . S
C133 C132 1.310 . S
C133 H153 0.930 . S
C134 C135 1.474 . S
C134 C136 1.285 . S
C134 H154 0.929 . S
C135 C132 1.461 . S
C135 C134 1.474 . S
C136 C131 1.342 . S
C136 C134 1.285 . S
C136 H155 0.930 . S
C137 C140 1.424 . S
C137 C142 1.245 . S
C137 C143 1.428 . S
C138 C141 1.260 . S
C138 C142 1.477 . S
C138 H156 0.932 . S
C139 C140 1.384 . S
C139 C141 1.479 . S
C139 H157 0.929 . S
C140 C137 1.424 . S
C140 C139 1.384 . S
C140 H158 0.928 . S
C141 C138 1.260 . S
C141 C139 1.479 . S
C142 C137 1.245 . S
C142 C138 1.477 . S
C142 H159 0.932 . S
C143 U126 2.882 . S
C143 C137 1.428 . S
C143 O146 1.301 . S
C143 O147 1.282 . S
O144 U126 2.441 . S
O144 C130 1.249 . S
O145 U126 2.420 . S
O145 C130 1.202 . S
O146 U126 2.455 . S
O146 C143 1.301 . S
O147 U126 2.449 . S
O147 C143 1.282 . S
H148 C121 0.931 . S
H149 C123 0.929 . S
H150 C124 0.930 . S
H151 C125 0.931 . S
H152 C132 0.932 . S
H153 C133 0.930 . S
H154 C134 0.929 . S
H155 C136 0.930 . S
H156 C138 0.932 . S
H157 C139 0.929 . S
H158 C140 0.928 . S
H159 C142 0.932 . S
C160 C161 1.264 . S
C160 C165 1.479 . S
C160 C170 1.465 . S
C161 C160 1.264 . S
C161 C163 1.339 . S
C161 H188 0.931 . S
C162 C163 1.395 . S
C162 C164 1.320 . S
C163 C161 1.339 . S
C163 C162 1.395 . S
C163 H189 0.929 . S
C164 C162 1.320 . S
C164 C165 1.405 . S
C164 H190 0.930 . S
C165 C160 1.479 . S
C165 C164 1.405 . S
C165 H191 0.931 . S
U166 O167 2.454 . S
U166 O168 2.458 . S
U166 C169 2.984 . S
U166 C170 2.847 . S
U166 C183 2.882 . S
U166 O184 2.441 . S
U166 O185 2.420 . S
U166 O186 2.455 . S
U166 O187 2.449 . S
O167 U166 2.454 . S
O167 C169 1.353 . S
O168 U166 2.458 . S
O168 C169 1.286 . S
C169 U166 2.984 . S
C169 O167 1.353 . S
C169 O168 1.286 . S
C169 C171 1.363 . S
C170 C160 1.465 . S
C170 U166 2.847 . S
C170 O184 1.249 . S
C170 O185 1.202 . S
C171 C169 1.363 . S
C171 C173 1.408 . S
C171 C176 1.342 . S
C172 C173 1.310 . S
C172 C175 1.461 . S
C172 H192 0.932 . S
C173 C171 1.408 . S
C173 C172 1.310 . S
C173 H193 0.930 . S
C174 C175 1.474 . S
C174 C176 1.285 . S
C174 H194 0.929 . S
C175 C172 1.461 . S
C175 C174 1.474 . S
C176 C171 1.342 . S
C176 C174 1.285 . S
C176 H195 0.930 . S
C177 C180 1.424 . S
C177 C182 1.245 . S
C177 C183 1.428 . S
C178 C181 1.260 . S
C178 C182 1.477 . S
C178 H196 0.932 . S
C179 C180 1.384 . S
C179 C181 1.479 . S
C179 H197 0.929 . S
C180 C177 1.424 . S
C180 C179 1.384 . S
C180 H198 0.928 . S
C181 C178 1.260 . S
C181 C179 1.479 . S
C182 C177 1.245 . S
C182 C178 1.477 . S
C182 H199 0.932 . S
C183 U166 2.882 . S
C183 C177 1.428 . S
C183 O186 1.301 . S
C183 O187 1.282 . S
O184 U166 2.441 . S
O184 C170 1.249 . S
O185 U166 2.420 . S
O185 C170 1.202 . S
O186 U166 2.455 . S
O186 C183 1.301 . S
O187 U166 2.449 . S
O187 C183 1.282 . S
H188 C161 0.931 . S
H189 C163 0.929 . S
H190 C164 0.930 . S
H191 C165 0.931 . S
H192 C172 0.932 . S
H193 C173 0.930 . S
H194 C174 0.929 . S
H195 C176 0.930 . S
H196 C178 0.932 . S
H197 C179 0.929 . S
H198 C180 0.928 . S
H199 C182 0.932 . S
C200 C201 1.264 . S
C200 C205 1.479 . S
C200 C210 1.465 . S
C201 C200 1.264 . S
C201 C203 1.339 . S
C201 H228 0.931 . S
C202 C203 1.395 . S
C202 C204 1.320 . S
C203 C201 1.339 . S
C203 C202 1.395 . S
C203 H229 0.929 . S
C204 C202 1.320 . S
C204 C205 1.405 . S
C204 H230 0.930 . S
C205 C200 1.479 . S
C205 C204 1.405 . S
C205 H231 0.931 . S
U206 O207 2.454 . S
U206 O208 2.458 . S
U206 C209 2.984 . S
U206 C210 2.847 . S
U206 C223 2.882 . S
U206 O224 2.441 . S
U206 O225 2.420 . S
U206 O226 2.455 . S
U206 O227 2.449 . S
O207 U206 2.454 . S
O207 C209 1.353 . S
O208 U206 2.458 . S
O208 C209 1.286 . S
C209 U206 2.984 . S
C209 O207 1.353 . S
C209 O208 1.286 . S
C209 C211 1.363 . S
C210 C200 1.465 . S
C210 U206 2.847 . S
C210 O224 1.249 . S
C210 O225 1.202 . S
C211 C209 1.363 . S
C211 C213 1.408 . S
C211 C216 1.342 . S
C212 C213 1.310 . S
C212 C215 1.461 . S
C212 H232 0.932 . S
C213 C211 1.408 . S
C213 C212 1.310 . S
C213 H233 0.930 . S
C214 C215 1.474 . S
C214 C216 1.285 . S
C214 H234 0.929 . S
C215 C212 1.461 . S
C215 C214 1.474 . S
C216 C211 1.342 . S
C216 C214 1.285 . S
C216 H235 0.930 . S
C217 C220 1.424 . S
C217 C222 1.245 . S
C217 C223 1.428 . S
C218 C221 1.260 . S
C218 C222 1.477 . S
C218 H236 0.932 . S
C219 C220 1.384 . S
C219 C221 1.479 . S
C219 H237 0.929 . S
C220 C217 1.424 . S
C220 C219 1.384 . S
C220 H238 0.928 . S
C221 C218 1.260 . S
C221 C219 1.479 . S
C222 C217 1.245 . S
C222 C218 1.477 . S
C222 H239 0.932 . S
C223 U206 2.882 . S
C223 C217 1.428 . S
C223 O226 1.301 . S
C223 O227 1.282 . S
O224 U206 2.441 . S
O224 C210 1.249 . S
O225 U206 2.420 . S
O225 C210 1.202 . S
O226 U206 2.455 . S
O226 C223 1.301 . S
O227 U206 2.449 . S
O227 C223 1.282 . S
H228 C201 0.931 . S
H229 C203 0.929 . S
H230 C204 0.930 . S
H231 C205 0.931 . S
H232 C212 0.932 . S
H233 C213 0.930 . S
H234 C214 0.929 . S
H235 C216 0.930 . S
H236 C218 0.932 . S
H237 C219 0.929 . S
H238 C220 0.928 . S
H239 C222 0.932 . S
C240 C241 1.264 . S
C240 C245 1.479 . S
C240 C250 1.465 . S
C241 C240 1.264 . S
C241 C243 1.339 . S
C241 H268 0.931 . S
C242 C243 1.395 . S
C242 C244 1.320 . S
C243 C241 1.339 . S
C243 C242 1.395 . S
C243 H269 0.929 . S
C244 C242 1.320 . S
C244 C245 1.405 . S
C244 H270 0.925 1_545 S
C245 C240 1.479 . S
C245 C244 1.405 . S
C245 H271 0.931 . S
U246 O247 2.454 . S
U246 O248 2.458 . S
U246 C249 2.984 . S
U246 C250 2.847 . S
U246 C263 2.882 . S
U246 O264 2.441 . S
U246 O265 2.420 . S
U246 O266 2.455 . S
U246 O267 2.449 . S
O247 U246 2.454 . S
O247 C249 1.353 . S
O248 U246 2.458 . S
O248 C249 1.286 . S
C249 U246 2.984 . S
C249 O247 1.353 . S
C249 O248 1.286 . S
C249 C251 1.363 . S
C250 C240 1.465 . S
C250 U246 2.847 . S
C250 O264 1.249 . S
C250 O265 1.202 . S
C251 C249 1.363 . S
C251 C253 1.408 . S
C251 C256 1.342 . S
C252 C253 1.310 . S
C252 C255 1.459 . S
C252 H272 0.932 . S
C253 C251 1.408 . S
C253 C252 1.310 . S
C253 H273 0.930 . S
C254 C255 1.473 1_565 S
C254 C256 1.285 1_565 S
C254 H274 0.930 . S
C255 C252 1.459 . S
C255 C254 1.473 1_545 S
C256 C251 1.342 . S
C256 C254 1.285 1_545 S
C256 H275 0.937 . S
C257 C260 1.424 . S
C257 C262 1.245 . S
C257 C263 1.428 . S
C258 C261 1.260 . S
C258 C262 1.477 . S
C258 H276 0.932 . S
C259 C260 1.384 . S
C259 C261 1.479 . S
C259 H277 0.929 . S
C260 C257 1.424 . S
C260 C259 1.384 . S
C260 H278 0.928 . S
C261 C258 1.260 . S
C261 C259 1.479 . S
C262 C257 1.245 . S
C262 C258 1.477 . S
C262 H279 0.932 . S
C263 U246 2.882 . S
C263 C257 1.428 . S
C263 O266 1.301 . S
C263 O267 1.282 . S
O264 U246 2.441 . S
O264 C250 1.249 . S
O265 U246 2.420 . S
O265 C250 1.202 . S
O266 U246 2.455 . S
O266 C263 1.301 . S
O267 U246 2.449 . S
O267 C263 1.282 . S
H268 C241 0.931 . S
H269 C243 0.929 . S
H270 C244 0.925 1_565 S
H271 C245 0.931 . S
H272 C252 0.932 . S
H273 C253 0.930 . S
H274 C254 0.930 . S
H275 C256 0.937 . S
H276 C258 0.932 . S
H277 C259 0.929 . S
H278 C260 0.928 . S
H279 C262 0.932 . S
C280 C281 1.264 . S
C280 C285 1.479 . S
C280 C290 1.465 . S
C281 C280 1.264 . S
C281 C283 1.339 . S
C281 H308 0.931 . S
C282 C283 1.395 . S
C282 C284 1.320 . S
C283 C281 1.339 . S
C283 C282 1.395 . S
C283 H309 0.929 . S
C284 C282 1.320 . S
C284 C285 1.405 . S
C284 H310 0.930 . S
C285 C280 1.479 . S
C285 C284 1.405 . S
C285 H311 0.931 . S
U286 O287 2.454 . S
U286 O288 2.458 . S
U286 C289 2.984 . S
U286 C290 2.847 . S
U286 C303 2.882 . S
U286 O304 2.441 . S
U286 O305 2.420 . S
U286 O306 2.455 . S
U286 O307 2.449 . S
O287 U286 2.454 . S
O287 C289 1.353 . S
O288 U286 2.458 . S
O288 C289 1.286 . S
C289 U286 2.984 . S
C289 O287 1.353 . S
C289 O288 1.286 . S
C289 C291 1.363 . S
C290 C280 1.465 . S
C290 U286 2.847 . S
C290 O304 1.249 . S
C290 O305 1.202 . S
C291 C289 1.363 . S
C291 C293 1.408 . S
C291 C296 1.342 . S
C292 C293 1.310 . S
C292 C295 1.461 . S
C292 H312 0.932 . S
C293 C291 1.408 . S
C293 C292 1.310 . S
C293 H313 0.930 . S
C294 C295 1.474 . S
C294 C296 1.285 . S
C294 H314 0.929 . S
C295 C292 1.461 . S
C295 C294 1.474 . S
C296 C291 1.342 . S
C296 C294 1.285 . S
C296 H315 0.930 . S
C297 C300 1.424 . S
C297 C302 1.245 . S
C297 C303 1.428 . S
C298 C301 1.260 . S
C298 C302 1.477 . S
C298 H316 0.932 . S
C299 C300 1.384 . S
C299 C301 1.479 . S
C299 H317 0.929 . S
C300 C297 1.424 . S
C300 C299 1.384 . S
C300 H318 0.928 . S
C301 C298 1.260 . S
C301 C299 1.479 . S
C302 C297 1.245 . S
C302 C298 1.477 . S
C302 H319 0.932 . S
C303 U286 2.882 . S
C303 C297 1.428 . S
C303 O306 1.301 . S
C303 O307 1.282 . S
O304 U286 2.441 . S
O304 C290 1.249 . S
O305 U286 2.420 . S
O305 C290 1.202 . S
O306 U286 2.455 . S
O306 C303 1.301 . S
O307 U286 2.449 . S
O307 C303 1.282 . S
H308 C281 0.931 . S
H309 C283 0.929 . S
H310 C284 0.930 . S
H311 C285 0.931 . S
H312 C292 0.932 . S
H313 C293 0.930 . S
H314 C294 0.929 . S
H315 C296 0.930 . S
H316 C298 0.932 . S
H317 C299 0.929 . S
H318 C300 0.928 . S
H319 C302 0.932 . S
Nd320 C322 2.836 1_455 S
Nd320 O340 2.500 1_455 S
Nd320 O341 2.492 . S
Nd320 O342 2.487 . S
Nd320 O343 2.677 1_565 S
Nd320 O344 2.410 . S
Nd320 O349 2.427 1_455 S
Nd320 O351 2.424 1_565 S
Nd321 C331 2.836 . S
Nd321 O343 2.432 . S
Nd321 O345 2.424 1_545 S
Nd321 O346 2.500 . S
Nd321 O347 2.492 . S
Nd321 O348 2.487 1_455 S
Nd321 O349 2.678 1_445 S
Nd321 O350 2.410 . S
C322 Nd320 2.836 1_655 S
C322 C323 1.498 . S
C322 O340 1.258 . S
C322 O341 1.239 1_655 S
C323 C322 1.498 . S
C323 C324 1.366 . S
C323 C328 1.407 . S
C324 C323 1.366 . S
C324 C325 1.392 . S
C324 H352 0.930 . S
C325 C324 1.392 . S
C325 C326 1.398 . S
C325 H353 0.929 . S
C326 C325 1.398 . S
C326 C327 1.352 . S
C327 C326 1.352 . S
C327 C328 1.384 . S
C327 H354 0.930 . S
C328 C323 1.407 . S
C328 C327 1.384 . S
C328 H355 0.929 1_655 S
C329 O342 1.241 . S
C329 O343 1.247 1_565 S
C330 O344 1.266 . S
C330 O345 1.274 . S
C331 Nd321 2.836 . S
C331 C332 1.498 . S
C331 O346 1.258 . S
C331 O347 1.239 . S
C332 C331 1.498 . S
C332 C333 1.366 . S
C332 C337 1.407 . S
C333 C332 1.366 . S
C333 C334 1.392 . S
C333 H356 0.930 . S
C334 C333 1.392 . S
C334 C335 1.398 . S
C334 H357 0.929 . S
C335 C334 1.398 . S
C335 C336 1.352 . S
C336 C335 1.352 . S
C336 C337 1.384 . S
C336 H358 0.930 1_556 S
C337 C332 1.407 . S
C337 C336 1.384 . S
C337 H359 0.929 . S
C338 O348 1.241 . S
C338 O349 1.254 1_545 S
C339 O350 1.251 . S
C339 O351 1.268 . S
O340 Nd320 2.500 1_655 S
O340 C322 1.258 . S
O341 Nd320 2.492 . S
O341 C322 1.239 1_455 S
O342 Nd320 2.487 . S
O342 C329 1.241 . S
O343 Nd320 2.677 1_545 S
O343 Nd321 2.432 . S
O343 C329 1.247 1_545 S
O344 Nd320 2.410 . S
O344 C330 1.266 . S
O345 Nd321 2.424 1_565 S
O345 C330 1.274 . S
O346 Nd321 2.500 . S
O346 C331 1.258 . S
O347 Nd321 2.492 . S
O347 C331 1.239 . S
O348 Nd321 2.487 1_655 S
O348 C338 1.241 . S
O349 Nd320 2.427 1_655 S
O349 Nd321 2.678 1_665 S
O349 C338 1.254 1_565 S
O350 Nd321 2.410 . S
O350 C339 1.251 . S
O351 Nd320 2.424 1_545 S
O351 C339 1.268 . S
H352 C324 0.930 . S
H353 C325 0.929 . S
H354 C327 0.930 . S
H355 C328 0.929 1_455 S
H356 C333 0.930 . S
H357 C334 0.929 . S
H358 C336 0.930 1_554 S
H359 C337 0.929 . S
Nd360 C362 2.836 . S
Nd360 O380 2.500 . S
Nd360 O381 2.491 1_565 S
Nd360 O382 2.487 1_565 S
Nd360 O383 2.682 1_565 S
Nd360 O384 2.410 1_565 S
Nd360 O389 2.414 . S
Nd360 O391 2.424 . S
Nd361 C371 2.836 . S
Nd361 O383 2.414 . S
Nd361 O385 2.424 . S
Nd361 O386 2.500 . S
Nd361 O387 2.491 1_545 S
Nd361 O388 2.487 1_545 S
Nd361 O389 2.682 1_545 S
Nd361 O390 2.410 1_545 S
C362 Nd360 2.836 . S
C362 C363 1.498 . S
C362 O380 1.258 . S
C362 O381 1.201 1_565 S
C363 C362 1.498 . S
C363 C364 1.366 . S
C363 C368 1.407 . S
C364 C363 1.366 . S
C364 C365 1.392 . S
C364 H392 0.930 . S
C365 C364 1.392 . S
C365 C366 1.398 . S
C365 H393 0.929 . S
C366 C365 1.398 . S
C366 C367 1.352 . S
C367 C366 1.352 . S
C367 C368 1.384 . S
C367 H394 0.911 1_565 S
C368 C363 1.407 . S
C368 C367 1.384 . S
C368 H395 0.929 1_565 S
C369 O382 1.241 . S
C369 O383 1.273 . S
C370 O384 1.251 . S
C370 O385 1.268 . S
C371 Nd361 2.836 . S
C371 C372 1.498 . S
C371 O386 1.258 . S
C371 O387 1.213 1_545 S
C372 C371 1.498 . S
C372 C373 1.366 . S
C372 C377 1.407 . S
C373 C372 1.366 . S
C373 C374 1.392 . S
C373 H396 0.930 . S
C374 C373 1.392 . S
C374 C375 1.398 . S
C374 H397 0.929 . S
C375 C374 1.398 . S
C375 C376 1.358 . S
C376 C375 1.358 . S
C376 C377 1.394 . S
C376 H398 0.901 1_546 S
C377 C372 1.407 . S
C377 C376 1.394 . S
C377 H399 0.929 1_545 S
C378 O388 1.241 . S
C378 O389 1.273 . S
C379 O390 1.251 . S
C379 O391 1.268 . S
O380 Nd360 2.500 . S
O380 C362 1.258 . S
O381 Nd360 2.491 1_545 S
O381 C362 1.201 1_545 S
O382 Nd360 2.487 1_545 S
O382 C369 1.241 . S
O383 Nd360 2.682 1_545 S
O383 Nd361 2.414 . S
O383 C369 1.273 . S
O384 Nd360 2.410 1_545 S
O384 C370 1.251 . S
O385 Nd361 2.424 . S
O385 C370 1.268 . S
O386 Nd361 2.500 . S
O386 C371 1.258 . S
O387 Nd361 2.491 1_565 S
O387 C371 1.213 1_565 S
O388 Nd361 2.487 1_565 S
O388 C378 1.241 . S
O389 Nd360 2.414 . S
O389 Nd361 2.682 1_565 S
O389 C378 1.273 . S
O390 Nd361 2.410 1_565 S
O390 C379 1.251 . S
O391 Nd360 2.424 . S
O391 C379 1.268 . S
H392 C364 0.930 . S
H393 C365 0.929 . S
H394 C367 0.911 1_545 S
H395 C368 0.929 1_545 S
H396 C373 0.930 . S
H397 C374 0.929 . S
H398 C376 0.901 1_564 S
H399 C377 0.929 1_565 S
Nd400 C402 2.836 . S
Nd400 O420 2.500 . S
Nd400 O421 2.492 . S
Nd400 O422 2.487 . S
Nd400 O423 2.682 . S
Nd400 O424 2.410 . S
Nd400 O429 2.414 . S
Nd400 O431 2.424 . S
Nd401 C411 2.836 . S
Nd401 O423 2.414 . S
Nd401 O425 2.424 . S
Nd401 O426 2.500 . S
Nd401 O427 2.492 . S
Nd401 O428 2.487 . S
Nd401 O429 2.682 . S
Nd401 O430 2.410 . S
C402 Nd400 2.836 . S
C402 C403 1.498 . S
C402 O420 1.258 . S
C402 O421 1.239 . S
C403 C402 1.498 . S
C403 C404 1.366 . S
C403 C408 1.407 . S
C404 C403 1.366 . S
C404 C405 1.392 . S
C404 H432 0.930 . S
C405 C404 1.392 . S
C405 C406 1.398 . S
C405 H433 0.929 . S
C406 C405 1.398 . S
C406 C407 1.352 . S
C407 C406 1.352 . S
C407 C408 1.384 . S
C407 H434 0.930 . S
C408 C403 1.407 . S
C408 C407 1.384 . S
C408 H435 0.929 . S
C409 O422 1.241 . S
C409 O423 1.273 . S
C410 O424 1.251 . S
C410 O425 1.268 . S
C411 Nd401 2.836 . S
C411 C412 1.498 . S
C411 O426 1.258 . S
C411 O427 1.239 . S
C412 C411 1.498 . S
C412 C413 1.366 . S
C412 C417 1.407 . S
C413 C412 1.366 . S
C413 C414 1.392 . S
C413 H436 0.930 . S
C414 C413 1.392 . S
C414 C415 1.398 . S
C414 H437 0.929 . S
C415 C414 1.398 . S
C415 C416 1.352 . S
C416 C415 1.352 . S
C416 C417 1.384 . S
C416 H438 0.930 . S
C417 C412 1.407 . S
C417 C416 1.384 . S
C417 H439 0.929 . S
C418 O428 1.241 . S
C418 O429 1.273 . S
C419 O430 1.251 . S
C419 O431 1.268 . S
O420 Nd400 2.500 . S
O420 C402 1.258 . S
O421 Nd400 2.492 . S
O421 C402 1.239 . S
O422 Nd400 2.487 . S
O422 C409 1.241 . S
O423 Nd400 2.682 . S
O423 Nd401 2.414 . S
O423 C409 1.273 . S
O424 Nd400 2.410 . S
O424 C410 1.251 . S
O425 Nd401 2.424 . S
O425 C410 1.268 . S
O426 Nd401 2.500 . S
O426 C411 1.258 . S
O427 Nd401 2.492 . S
O427 C411 1.239 . S
O428 Nd401 2.487 . S
O428 C418 1.241 . S
O429 Nd400 2.414 . S
O429 Nd401 2.682 . S
O429 C418 1.273 . S
O430 Nd401 2.410 . S
O430 C419 1.251 . S
O431 Nd400 2.424 . S
O431 C419 1.268 . S
H432 C404 0.930 . S
H433 C405 0.929 . S
H434 C407 0.930 . S
H435 C408 0.929 . S
H436 C413 0.930 . S
H437 C414 0.929 . S
H438 C416 0.930 . S
H439 C417 0.929 . S
Nd440 C442 2.836 1_455 S
Nd440 O460 2.500 1_455 S
Nd440 O461 2.492 1_455 S
Nd440 O462 2.487 . S
Nd440 O463 2.682 . S
Nd440 O464 2.410 1_455 S
Nd440 O469 2.414 . S
Nd440 O471 2.424 . S
Nd441 C451 2.836 . S
Nd441 O463 2.414 . S
Nd441 O465 2.424 1_455 S
Nd441 O466 2.500 . S
Nd441 O467 2.492 . S
Nd441 O468 2.487 . S
Nd441 O469 2.682 . S
Nd441 O470 2.410 . S
C442 Nd440 2.836 1_655 S
C442 C443 1.498 . S
C442 O460 1.258 . S
C442 O461 1.239 . S
C443 C442 1.498 . S
C443 C444 1.366 . S
C443 C448 1.407 . S
C444 C443 1.366 . S
C444 C445 1.392 . S
C444 H472 0.930 . S
C445 C444 1.392 . S
C445 C446 1.398 . S
C445 H473 0.929 . S
C446 C445 1.398 . S
C446 C447 1.352 . S
C447 C446 1.352 . S
C447 C448 1.384 . S
C447 H474 0.930 . S
C448 C443 1.407 . S
C448 C447 1.384 . S
C448 H475 0.929 . S
C449 O462 1.241 . S
C449 O463 1.273 . S
C450 O464 1.251 . S
C450 O465 1.268 . S
C451 Nd441 2.836 . S
C451 C452 1.498 . S
C451 O466 1.258 . S
C451 O467 1.239 . S
C452 C451 1.498 . S
C452 C453 1.366 . S
C452 C457 1.407 . S
C453 C452 1.366 . S
C453 C454 1.392 . S
C453 H476 0.930 . S
C454 C453 1.392 . S
C454 C455 1.398 . S
C454 H477 0.929 . S
C455 C454 1.398 . S
C455 C456 1.352 . S
C456 C455 1.352 . S
C456 C457 1.384 . S
C456 H478 0.930 1_556 S
C457 C452 1.407 . S
C457 C456 1.384 . S
C457 H479 0.929 . S
C458 O468 1.260 . S
C458 O469 1.281 . S
C459 O470 1.251 . S
C459 O471 1.268 . S
O460 Nd440 2.500 1_655 S
O460 C442 1.258 . S
O461 Nd440 2.492 1_655 S
O461 C442 1.239 . S
O462 Nd440 2.487 . S
O462 C449 1.241 . S
O463 Nd440 2.682 . S
O463 Nd441 2.414 . S
O463 C449 1.273 . S
O464 Nd440 2.410 1_655 S
O464 C450 1.251 . S
O465 Nd441 2.424 1_655 S
O465 C450 1.268 . S
O466 Nd441 2.500 . S
O466 C451 1.258 . S
O467 Nd441 2.492 . S
O467 C451 1.239 . S
O468 Nd441 2.487 . S
O468 C458 1.260 . S
O469 Nd440 2.414 . S
O469 Nd441 2.682 . S
O469 C458 1.281 . S
O470 Nd441 2.410 . S
O470 C459 1.251 . S
O471 Nd440 2.424 . S
O471 C459 1.268 . S
H472 C444 0.930 . S
H473 C445 0.929 . S
H474 C447 0.930 . S
H475 C448 0.929 . S
H476 C453 0.930 . S
H477 C454 0.929 . S
H478 C456 0.930 1_554 S
H479 C457 0.929 . S
C480 C481 1.350 1_565 S
C480 C482 1.327 . S
C480 H505 0.950 . S
C481 C480 1.350 1_545 S
C481 C497 1.348 . S
C482 C480 1.327 . S
C482 C501 1.468 . S
C482 H506 0.950 . S
C483 C500 1.574 . S
C483 C502 1.368 1_545 S
C483 H507 0.949 . S
H484 C488 0.949 . S
C485 C486 1.349 1_545 S
C485 C487 1.327 . S
C485 H508 0.950 . S
C486 C485 1.349 1_565 S
C486 C498 1.349 . S
C487 C485 1.327 . S
C487 C503 1.429 1_545 S
C487 H509 0.950 . S
C488 H484 0.949 . S
C488 C496 1.574 . S
C488 C504 1.368 . S
H489 C497 0.950 . S
H490 C495 0.950 . S
H491 C496 0.949 . S
H492 C498 0.950 . S
H493 C499 0.950 . S
H494 C500 0.949 . S
C495 H490 0.950 . S
C495 C497 1.327 . S
C495 C501 1.399 1_545 S
C496 C488 1.574 . S
C496 H491 0.949 . S
C496 C502 1.368 . S
C497 C481 1.348 . S
C497 H489 0.950 . S
C497 C495 1.327 . S
C498 C486 1.349 . S
C498 H492 0.950 . S
C498 C499 1.327 . S
C499 H493 0.950 . S
C499 C498 1.327 . S
C499 C503 1.429 . S
C500 C483 1.574 . S
C500 H494 0.949 . S
C500 C504 1.368 1_545 S
C501 C482 1.468 . S
C501 C495 1.399 1_565 S
C501 C502 1.515 . S
C502 C483 1.368 1_565 S
C502 C496 1.368 . S
C502 C501 1.515 . S
C503 C487 1.429 1_565 S
C503 C499 1.429 . S
C503 C504 1.523 . S
C504 C488 1.368 . S
C504 C500 1.368 1_565 S
C504 C503 1.523 . S
H505 C480 0.950 . S
H506 C482 0.950 . S
H507 C483 0.949 . S
H508 C485 0.950 . S
H509 C487 0.950 . S
C510 C511 1.349 . S
C510 C512 1.327 . S
C510 H535 0.950 . S
C511 C510 1.349 . S
C511 C527 1.349 . S
C512 C510 1.327 . S
C512 C531 1.429 . S
C512 H536 0.950 . S
C513 C530 1.574 . S
C513 C532 1.368 . S
C513 H537 0.949 . S
H514 C518 0.949 . S
C515 C516 1.349 . S
C515 C517 1.327 . S
C515 H538 0.950 . S
C516 C515 1.349 . S
C516 C528 1.349 . S
C517 C515 1.327 . S
C517 C533 1.429 . S
C517 H539 0.950 . S
C518 H514 0.949 . S
C518 C526 1.574 . S
C518 C534 1.368 . S
H519 C527 0.950 . S
H520 C525 0.950 . S
H521 C526 0.949 . S
H522 C528 0.950 . S
H523 C529 0.950 . S
H524 C530 0.949 . S
C525 H520 0.950 . S
C525 C527 1.327 . S
C525 C531 1.429 . S
C526 C518 1.574 . S
C526 H521 0.949 . S
C526 C532 1.368 . S
C527 C511 1.349 . S
C527 H519 0.950 . S
C527 C525 1.327 . S
C528 C516 1.349 . S
C528 H522 0.950 . S
C528 C529 1.327 . S
C529 H523 0.950 . S
C529 C528 1.327 . S
C529 C533 1.429 . S
C530 C513 1.574 . S
C530 H524 0.949 . S
C530 C534 1.368 . S
C531 C512 1.429 . S
C531 C525 1.429 . S
C531 C532 1.523 . S
C532 C513 1.368 . S
C532 C526 1.368 . S
C532 C531 1.523 . S
C533 C517 1.429 . S
C533 C529 1.429 . S
C533 C534 1.523 . S
C534 C518 1.368 . S
C534 C530 1.368 . S
C534 C533 1.523 . S
H535 C510 0.950 . S
H536 C512 0.950 . S
H537 C513 0.949 . S
H538 C515 0.950 . S
H539 C517 0.950 . S
C540 C541 1.349 . S
C540 C542 1.327 . S
C540 H565 0.950 . S
C541 C540 1.349 . S
C541 C557 1.349 . S
C542 C540 1.327 . S
C542 C561 1.429 . S
C542 H566 0.950 . S
C543 C560 1.574 . S
C543 C562 1.368 . S
C543 H567 0.949 . S
H544 C548 0.949 . S
C545 C546 1.349 . S
C545 C547 1.327 . S
C545 H568 0.950 . S
C546 C545 1.349 . S
C546 C558 1.349 . S
C547 C545 1.327 . S
C547 C563 1.429 . S
C547 H569 0.950 . S
C548 H544 0.949 . S
C548 C556 1.574 . S
C548 C564 1.368 . S
H549 C557 0.950 . S
H550 C555 0.950 . S
H551 C556 0.949 . S
H552 C558 0.950 . S
H553 C559 0.950 . S
H554 C560 0.949 . S
C555 H550 0.950 . S
C555 C557 1.327 . S
C555 C561 1.429 . S
C556 C548 1.574 . S
C556 H551 0.949 . S
C556 C562 1.368 . S
C557 C541 1.349 . S
C557 H549 0.950 . S
C557 C555 1.327 . S
C558 C546 1.349 . S
C558 H552 0.950 . S
C558 C559 1.327 . S
C559 H553 0.950 . S
C559 C558 1.327 . S
C559 C563 1.429 . S
C560 C543 1.574 . S
C560 H554 0.949 . S
C560 C564 1.368 . S
C561 C542 1.429 . S
C561 C555 1.429 . S
C561 C562 1.523 . S
C562 C543 1.368 . S
C562 C556 1.368 . S
C562 C561 1.523 . S
C563 C547 1.429 . S
C563 C559 1.429 . S
C563 C564 1.523 . S
C564 C548 1.368 . S
C564 C560 1.368 . S
C564 C563 1.523 . S
H565 C540 0.950 . S
H566 C542 0.950 . S
H567 C543 0.949 . S
H568 C545 0.950 . S
H569 C547 0.950 . S
C570 C571 1.349 . S
C570 C572 1.327 . S
C570 H595 0.950 . S
C571 C570 1.349 . S
C571 C587 1.349 . S
C572 C570 1.327 . S
C572 C591 1.429 . S
C572 H596 0.950 . S
C573 C590 1.574 . S
C573 C592 1.368 . S
C573 H597 0.949 . S
H574 C578 0.949 . S
C575 C576 1.349 . S
C575 C577 1.327 . S
C575 H598 0.950 . S
C576 C575 1.349 . S
C576 C588 1.349 . S
C577 C575 1.327 . S
C577 C593 1.429 . S
C577 H599 0.950 . S
C578 H574 0.949 . S
C578 C586 1.574 . S
C578 C594 1.368 . S
H579 C587 0.950 . S
H580 C585 0.950 . S
H581 C586 0.949 . S
H582 C588 0.950 . S
H583 C589 0.950 . S
H584 C590 0.949 . S
C585 H580 0.950 . S
C585 C587 1.327 . S
C585 C591 1.429 . S
C586 C578 1.574 . S
C586 H581 0.949 . S
C586 C592 1.368 . S
C587 C571 1.349 . S
C587 H579 0.950 . S
C587 C585 1.327 . S
C588 C576 1.349 . S
C588 H582 0.950 . S
C588 C589 1.327 . S
C589 H583 0.950 . S
C589 C588 1.327 . S
C589 C593 1.429 . S
C590 C573 1.574 . S
C590 H584 0.949 . S
C590 C594 1.368 . S
C591 C572 1.429 . S
C591 C585 1.429 . S
C591 C592 1.523 . S
C592 C573 1.368 . S
C592 C586 1.368 . S
C592 C591 1.523 . S
C593 C577 1.429 . S
C593 C589 1.429 . S
C593 C594 1.523 . S
C594 C578 1.368 . S
C594 C590 1.368 . S
C594 C593 1.523 . S
H595 C570 0.950 . S
H596 C572 0.950 . S
H597 C573 0.949 . S
H598 C575 0.950 . S
H599 C577 0.950 . S
C600 C601 1.350 . S
C600 C602 1.327 . S
C600 H625 0.950 . S
C601 C600 1.350 . S
C601 C617 1.348 1_545 S
C602 C600 1.327 . S
C602 C621 1.474 . S
C602 H626 0.950 . S
C603 C620 1.574 . S
C603 C622 1.368 1_565 S
C603 H627 0.949 . S
H604 C608 0.949 . S
C605 C606 1.349 1_565 S
C605 C607 1.327 . S
C605 H628 0.950 . S
C606 C605 1.349 1_545 S
C606 C618 1.349 . S
C607 C605 1.327 . S
C607 C623 1.429 1_565 S
C607 H629 0.950 . S
C608 H604 0.949 . S
C608 C616 1.574 . S
C608 C624 1.368 . S
H609 C617 0.950 . S
H610 C615 0.950 . S
H611 C616 0.949 . S
H612 C618 0.950 . S
H613 C619 0.950 . S
H614 C620 0.949 . S
C615 H610 0.950 . S
C615 C617 1.327 . S
C615 C621 1.397 1_565 S
C616 C608 1.574 . S
C616 H611 0.949 . S
C616 C622 1.368 . S
C617 C601 1.348 1_565 S
C617 H609 0.950 . S
C617 C615 1.327 . S
C618 C606 1.349 . S
C618 H612 0.950 . S
C618 C619 1.327 . S
C619 H613 0.950 . S
C619 C618 1.327 . S
C619 C623 1.429 . S
C620 C603 1.574 . S
C620 H614 0.949 . S
C620 C624 1.368 1_565 S
C621 C602 1.474 . S
C621 C615 1.397 1_545 S
C621 C622 1.513 . S
C622 C603 1.368 1_545 S
C622 C616 1.368 . S
C622 C621 1.513 . S
C623 C607 1.429 1_545 S
C623 C619 1.429 . S
C623 C624 1.523 . S
C624 C608 1.368 . S
C624 C620 1.368 1_545 S
C624 C623 1.523 . S
H625 C600 0.950 . S
H626 C602 0.950 . S
H627 C603 0.949 . S
H628 C605 0.950 . S
H629 C607 0.950 . S
C630 C631 1.349 . S
C630 C632 1.327 . S
C630 H655 0.950 . S
C631 C630 1.349 . S
C631 C647 1.349 . S
C632 C630 1.327 . S
C632 C651 1.429 . S
C632 H656 0.950 . S
C633 C650 1.574 1_554 S
C633 C652 1.368 . S
C633 H657 0.949 . S
H634 C638 0.949 . S
C635 C636 1.349 . S
C635 C637 1.327 . S
C635 H658 0.950 . S
C636 C635 1.349 . S
C636 C648 1.349 . S
C637 C635 1.327 . S
C637 C653 1.429 . S
C637 H659 0.950 . S
C638 H634 0.949 . S
C638 C646 1.574 . S
C638 C654 1.368 1_554 S
H639 C647 0.950 . S
H640 C645 0.950 . S
H641 C646 0.949 . S
H642 C648 0.950 . S
H643 C649 0.950 . S
H644 C650 0.949 . S
C645 H640 0.950 . S
C645 C647 1.327 . S
C645 C651 1.429 . S
C646 C638 1.574 . S
C646 H641 0.949 . S
C646 C652 1.368 . S
C647 C631 1.349 . S
C647 H639 0.950 . S
C647 C645 1.327 . S
C648 C636 1.349 . S
C648 H642 0.950 . S
C648 C649 1.327 . S
C649 H643 0.950 . S
C649 C648 1.327 . S
C649 C653 1.429 . S
C650 C633 1.574 1_556 S
C650 H644 0.949 . S
C650 C654 1.368 . S
C651 C632 1.429 . S
C651 C645 1.429 . S
C651 C652 1.523 . S
C652 C633 1.368 . S
C652 C646 1.368 . S
C652 C651 1.523 . S
C653 C637 1.429 . S
C653 C649 1.429 . S
C653 C654 1.523 . S
C654 C638 1.368 1_556 S
C654 C650 1.368 . S
C654 C653 1.523 . S
H655 C630 0.950 . S
H656 C632 0.950 . S
H657 C633 0.949 . S
H658 C635 0.950 . S
H659 C637 0.950 . S
C660 C661 1.349 . S
C660 C662 1.327 . S
C660 H685 0.950 . S
C661 C660 1.349 . S
C661 C677 1.349 . S
C662 C660 1.327 . S
C662 C681 1.429 . S
C662 H686 0.950 . S
C663 C680 1.574 . S
C663 C682 1.368 . S
C663 H687 0.949 . S
H664 C668 0.949 . S
C665 C666 1.349 . S
C665 C667 1.327 . S
C665 H688 0.950 . S
C666 C665 1.349 . S
C666 C678 1.349 . S
C667 C665 1.327 . S
C667 C683 1.429 . S
C667 H689 0.950 . S
C668 H664 0.949 . S
C668 C676 1.574 . S
C668 C684 1.368 . S
H669 C677 0.950 . S
H670 C675 0.950 . S
H671 C676 0.949 . S
H672 C678 0.950 . S
H673 C679 0.950 . S
H674 C680 0.949 . S
C675 H670 0.950 . S
C675 C677 1.327 . S
C675 C681 1.429 . S
C676 C668 1.574 . S
C676 H671 0.949 . S
C676 C682 1.368 . S
C677 C661 1.349 . S
C677 H669 0.950 . S
C677 C675 1.327 . S
C678 C666 1.349 . S
C678 H672 0.950 . S
C678 C679 1.327 . S
C679 H673 0.950 . S
C679 C678 1.327 . S
C679 C683 1.429 . S
C680 C663 1.574 . S
C680 H674 0.949 . S
C680 C684 1.368 . S
C681 C662 1.429 . S
C681 C675 1.429 . S
C681 C682 1.523 . S
C682 C663 1.368 . S
C682 C676 1.368 . S
C682 C681 1.523 . S
C683 C667 1.429 . S
C683 C679 1.429 . S
C683 C684 1.523 . S
C684 C668 1.368 . S
C684 C680 1.368 . S
C684 C683 1.523 . S
H685 C660 0.950 . S
H686 C662 0.950 . S
H687 C663 0.949 . S
H688 C665 0.950 . S
H689 C667 0.950 . S
C690 C691 1.349 . S
C690 C692 1.327 . S
C690 H715 0.950 . S
C691 C690 1.349 . S
C691 C707 1.349 . S
C692 C690 1.327 . S
C692 C711 1.429 . S
C692 H716 0.950 . S
C693 C710 1.574 . S
C693 C712 1.368 . S
C693 H717 0.949 . S
H694 C698 0.949 . S
C695 C696 1.349 . S
C695 C697 1.327 . S
C695 H718 0.950 . S
C696 C695 1.349 . S
C696 C708 1.349 . S
C697 C695 1.327 . S
C697 C713 1.429 . S
C697 H719 0.950 . S
C698 H694 0.949 . S
C698 C706 1.574 . S
C698 C714 1.368 . S
H699 C707 0.950 1_554 S
H700 C705 0.950 . S
H701 C706 0.949 . S
H702 C708 0.950 . S
H703 C709 0.950 . S
H704 C710 0.949 . S
C705 H700 0.950 . S
C705 C707 1.327 . S
C705 C711 1.429 . S
C706 C698 1.574 . S
C706 H701 0.949 . S
C706 C712 1.368 . S
C707 C691 1.349 . S
C707 H699 0.950 1_556 S
C707 C705 1.327 . S
C708 C696 1.349 . S
C708 H702 0.950 . S
C708 C709 1.327 . S
C709 H703 0.950 . S
C709 C708 1.327 . S
C709 C713 1.429 . S
C710 C693 1.574 . S
C710 H704 0.949 . S
C710 C714 1.368 . S
C711 C692 1.429 . S
C711 C705 1.429 . S
C711 C712 1.523 . S
C712 C693 1.368 . S
C712 C706 1.368 . S
C712 C711 1.523 . S
C713 C697 1.429 . S
C713 C709 1.429 . S
C713 C714 1.523 . S
C714 C698 1.368 . S
C714 C710 1.368 . S
C714 C713 1.523 . S
H715 C690 0.950 . S
H716 C692 0.950 . S
H717 C693 0.949 . S
H718 C695 0.950 . S
H719 C697 0.950 . S
C720 C721 1.349 . S
C720 C722 1.327 . S
C720 H745 0.950 . S
C721 C720 1.349 . S
C721 C737 1.349 . S
C722 C720 1.327 . S
C722 C741 1.429 . S
C722 H746 0.950 . S
C723 C740 1.574 . S
C723 C742 1.368 . S
C723 H747 0.949 . S
H724 C728 0.949 . S
C725 C726 1.349 . S
C725 C727 1.327 . S
C725 H748 0.950 . S
C726 C725 1.349 . S
C726 C738 1.349 . S
C727 C725 1.327 . S
C727 C743 1.429 . S
C727 H749 0.950 . S
C728 H724 0.949 . S
C728 C736 1.574 . S
C728 C744 1.368 . S
H729 C737 0.950 . S
H730 C735 0.950 . S
H731 C736 0.949 . S
H732 C738 0.950 . S
H733 C739 0.950 . S
H734 C740 0.949 . S
C735 H730 0.950 . S
C735 C737 1.327 . S
C735 C741 1.429 . S
C736 C728 1.574 . S
C736 H731 0.949 . S
C736 C742 1.368 . S
C737 C721 1.349 . S
C737 H729 0.950 . S
C737 C735 1.327 . S
C738 C726 1.349 . S
C738 H732 0.950 . S
C738 C739 1.327 . S
C739 H733 0.950 . S
C739 C738 1.327 . S
C739 C743 1.429 . S
C740 C723 1.574 . S
C740 H734 0.949 . S
C740 C744 1.368 . S
C741 C722 1.429 . S
C741 C735 1.429 . S
C741 C742 1.523 . S
C742 C723 1.368 . S
C742 C736 1.368 . S
C742 C741 1.523 . S
C743 C727 1.429 . S
C743 C739 1.429 . S
C743 C744 1.523 . S
C744 C728 1.368 . S
C744 C740 1.368 . S
C744 C743 1.523 . S
H745 C720 0.950 . S
H746 C722 0.950 . S
H747 C723 0.949 . S
H748 C725 0.950 . S
H749 C727 0.950 . S
C750 C751 1.356 . S
C750 C752 1.327 . S
C750 H775 0.950 . S
C751 C750 1.356 . S
C751 C767 1.337 1_545 S
C752 C750 1.327 . S
C752 C771 1.429 1_545 S
C752 H776 0.950 . S
C753 C770 1.574 . S
C753 C772 1.368 . S
C753 H777 0.949 . S
H754 C758 0.949 . S
C755 C756 1.349 . S
C755 C757 1.327 . S
C755 H778 0.950 . S
C756 C755 1.349 . S
C756 C768 1.349 . S
C757 C755 1.327 . S
C757 C773 1.429 . S
C757 H779 0.950 . S
C758 H754 0.949 . S
C758 C766 1.574 . S
C758 C774 1.368 1_545 S
H759 C767 0.950 . S
H760 C765 0.950 . S
H761 C766 0.949 . S
H762 C768 0.950 1_545 S
H763 C769 0.952 . S
H764 C770 0.949 . S
C765 H760 0.950 . S
C765 C767 1.327 . S
C765 C771 1.429 . S
C766 C758 1.574 . S
C766 H761 0.949 . S
C766 C772 1.368 1_545 S
C767 C751 1.337 1_565 S
C767 H759 0.950 . S
C767 C765 1.327 . S
C768 C756 1.349 . S
C768 H762 0.950 1_565 S
C768 C769 1.326 1_565 S
C769 H763 0.952 . S
C769 C768 1.326 1_545 S
C769 C773 1.427 1_545 S
C770 C753 1.574 . S
C770 H764 0.949 . S
C770 C774 1.368 . S
C771 C752 1.429 1_565 S
C771 C765 1.429 . S
C771 C772 1.523 . S
C772 C753 1.368 . S
C772 C766 1.368 1_565 S
C772 C771 1.523 . S
C773 C757 1.429 . S
C773 C769 1.427 1_565 S
C773 C774 1.523 . S
C774 C758 1.368 1_565 S
C774 C770 1.368 . S
C774 C773 1.523 . S
H775 C750 0.950 . S
H776 C752 0.950 . S
H777 C753 0.949 . S
H778 C755 0.950 . S
H779 C757 0.950 . S
C780 C781 1.349 . S
C780 C782 1.327 . S
C780 H805 0.950 . S
C781 C780 1.349 . S
C781 C797 1.349 . S
C782 C780 1.327 . S
C782 C801 1.429 . S
C782 H806 0.950 . S
C783 C800 1.574 . S
C783 C802 1.368 . S
C783 H807 0.949 . S
H784 C788 0.949 . S
C785 C786 1.349 . S
C785 C787 1.327 . S
C785 H808 0.950 . S
C786 C785 1.349 . S
C786 C798 1.349 . S
C787 C785 1.327 . S
C787 C803 1.429 . S
C787 H809 0.950 . S
C788 H784 0.949 . S
C788 C796 1.574 . S
C788 C804 1.368 . S
H789 C797 0.950 . S
H790 C795 0.950 . S
H791 C796 0.949 . S
H792 C798 0.950 . S
H793 C799 0.950 . S
H794 C800 0.949 . S
C795 H790 0.950 . S
C795 C797 1.327 . S
C795 C801 1.429 . S
C796 C788 1.574 . S
C796 H791 0.949 . S
C796 C802 1.368 . S
C797 C781 1.349 . S
C797 H789 0.950 . S
C797 C795 1.327 . S
C798 C786 1.349 . S
C798 H792 0.950 . S
C798 C799 1.327 . S
C799 H793 0.950 . S
C799 C798 1.327 . S
C799 C803 1.429 . S
C800 C783 1.574 . S
C800 H794 0.949 . S
C800 C804 1.368 . S
C801 C782 1.429 . S
C801 C795 1.429 . S
C801 C802 1.523 . S
C802 C783 1.368 . S
C802 C796 1.368 . S
C802 C801 1.523 . S
C803 C787 1.429 . S
C803 C799 1.429 . S
C803 C804 1.523 . S
C804 C788 1.368 . S
C804 C800 1.368 . S
C804 C803 1.523 . S
H805 C780 0.950 . S
H806 C782 0.950 . S
H807 C783 0.949 . S
H808 C785 0.950 . S
H809 C787 0.950 . S
C810 C811 1.349 . S
C810 C812 1.327 . S
C810 H835 0.950 . S
C811 C810 1.349 . S
C811 C827 1.349 . S
C812 C810 1.327 . S
C812 C831 1.429 . S
C812 H836 0.950 . S
C813 C830 1.574 . S
C813 C832 1.368 . S
C813 H837 0.949 . S
H814 C818 0.949 . S
C815 C816 1.349 . S
C815 C817 1.327 . S
C815 H838 0.950 . S
C816 C815 1.349 . S
C816 C828 1.349 . S
C817 C815 1.327 . S
C817 C833 1.429 . S
C817 H839 0.950 . S
C818 H814 0.949 . S
C818 C826 1.574 . S
C818 C834 1.368 . S
H819 C827 0.950 . S
H820 C825 0.950 . S
H821 C826 0.949 . S
H822 C828 0.950 . S
H823 C829 0.950 . S
H824 C830 0.949 . S
C825 H820 0.950 . S
C825 C827 1.327 . S
C825 C831 1.429 . S
C826 C818 1.574 . S
C826 H821 0.949 . S
C826 C832 1.368 . S
C827 C811 1.349 . S
C827 H819 0.950 . S
C827 C825 1.327 . S
C828 C816 1.349 . S
C828 H822 0.950 . S
C828 C829 1.327 . S
C829 H823 0.950 . S
C829 C828 1.327 . S
C829 C833 1.429 . S
C830 C813 1.574 . S
C830 H824 0.949 . S
C830 C834 1.368 . S
C831 C812 1.429 . S
C831 C825 1.429 . S
C831 C832 1.523 . S
C832 C813 1.368 . S
C832 C826 1.368 . S
C832 C831 1.523 . S
C833 C817 1.429 . S
C833 C829 1.429 . S
C833 C834 1.523 . S
C834 C818 1.368 . S
C834 C830 1.368 . S
C834 C833 1.523 . S
H835 C810 0.950 . S
H836 C812 0.950 . S
H837 C813 0.949 . S
H838 C815 0.950 . S
H839 C817 0.950 . S
C840 C841 1.349 . S
C840 C842 1.327 . S
C840 H865 0.950 . S
C841 C840 1.349 . S
C841 C857 1.349 . S
C842 C840 1.327 . S
C842 C861 1.429 . S
C842 H866 0.950 . S
C843 C860 1.574 . S
C843 C862 1.368 . S
C843 H867 0.949 . S
H844 C848 0.949 . S
C845 C846 1.349 . S
C845 C847 1.327 . S
C845 H868 0.909 1_655 S
C846 C845 1.349 . S
C846 C858 1.349 . S
C847 C845 1.327 . S
C847 C863 1.429 . S
C847 H869 0.950 . S
C848 H844 0.949 . S
C848 C856 1.574 . S
C848 C864 1.368 . S
H849 C857 0.950 . S
H850 C855 0.950 . S
H851 C856 0.949 . S
H852 C858 0.950 . S
H853 C859 0.950 . S
H854 C860 0.949 . S
C855 H850 0.950 . S
C855 C857 1.327 . S
C855 C861 1.429 . S
C856 C848 1.574 . S
C856 H851 0.949 . S
C856 C862 1.368 . S
C857 C841 1.349 . S
C857 H849 0.950 . S
C857 C855 1.327 . S
C858 C846 1.349 . S
C858 H852 0.950 . S
C858 C859 1.327 . S
C859 H853 0.950 . S
C859 C858 1.327 . S
C859 C863 1.429 . S
C860 C843 1.574 . S
C860 H854 0.949 . S
C860 C864 1.368 . S
C861 C842 1.429 . S
C861 C855 1.429 . S
C861 C862 1.523 . S
C862 C843 1.368 . S
C862 C856 1.368 . S
C862 C861 1.523 . S
C863 C847 1.429 . S
C863 C859 1.429 . S
C863 C864 1.523 . S
C864 C848 1.368 . S
C864 C860 1.368 . S
C864 C863 1.523 . S
H865 C840 0.950 . S
H866 C842 0.950 . S
H867 C843 0.949 . S
H868 C845 0.909 1_455 S
H869 C847 0.950 . S
C870 C871 1.346 1_545 S
C870 C872 1.327 . S
C870 H895 0.950 . S
C871 C870 1.346 1_565 S
C871 C887 1.350 . S
C872 C870 1.327 . S
C872 C891 1.429 . S
C872 H896 0.950 . S
C873 C890 1.588 . S
C873 C892 1.368 1_565 S
C873 H897 0.949 . S
H874 C878 0.949 . S
C875 C876 1.349 . S
C875 C877 1.327 . S
C875 H898 0.948 . S
C876 C875 1.349 . S
C876 C888 1.349 . S
C877 C875 1.327 . S
C877 C893 1.429 . S
C877 H899 0.950 1_545 S
C878 H874 0.949 . S
C878 C886 1.574 . S
C878 C894 1.368 . S
H879 C887 0.950 . S
H880 C885 0.950 . S
H881 C886 0.949 . S
H882 C888 0.950 . S
H883 C889 0.950 . S
H884 C890 0.965 . S
C885 H880 0.950 . S
C885 C887 1.327 . S
C885 C891 1.429 1_565 S
C886 C878 1.574 . S
C886 H881 0.949 . S
C886 C892 1.368 . S
C887 C871 1.350 . S
C887 H879 0.950 . S
C887 C885 1.327 . S
C888 C876 1.349 . S
C888 H882 0.950 . S
C888 C889 1.327 . S
C889 H883 0.950 . S
C889 C888 1.327 . S
C889 C893 1.429 . S
C890 C873 1.588 . S
C890 H884 0.965 . S
C890 C894 1.340 1_565 S
C891 C872 1.429 . S
C891 C885 1.429 1_545 S
C891 C892 1.523 . S
C892 C873 1.368 1_545 S
C892 C886 1.368 . S
C892 C891 1.523 . S
C893 C877 1.429 . S
C893 C889 1.429 . S
C893 C894 1.523 . S
C894 C878 1.368 . S
C894 C890 1.340 1_545 S
C894 C893 1.523 . S
H895 C870 0.950 . S
H896 C872 0.950 . S
H897 C873 0.949 . S
H898 C875 0.948 . S
H899 C877 0.950 1_565 S
C900 C901 1.349 . S
C900 C902 1.327 . S
C900 H925 0.950 . S
C901 C900 1.349 . S
C901 C917 1.349 . S
C902 C900 1.327 . S
C902 C921 1.429 . S
C902 H926 0.950 . S
C903 C920 1.574 . S
C903 C922 1.368 1_556 S
C903 H927 0.949 . S
H904 C908 0.949 . S
C905 C906 1.349 . S
C905 C907 1.327 . S
C905 H928 0.950 . S
C906 C905 1.349 . S
C906 C918 1.349 . S
C907 C905 1.327 . S
C907 C923 1.429 . S
C907 H929 0.950 . S
C908 H904 0.949 . S
C908 C916 1.574 . S
C908 C924 1.368 1_554 S
H909 C917 0.950 . S
H910 C915 0.950 . S
H911 C916 0.949 . S
H912 C918 0.950 . S
H913 C919 0.950 1_554 S
H914 C920 0.949 . S
C915 H910 0.950 . S
C915 C917 1.327 . S
C915 C921 1.429 . S
C916 C908 1.574 . S
C916 H911 0.949 . S
C916 C922 1.368 . S
C917 C901 1.349 . S
C917 H909 0.950 . S
C917 C915 1.327 . S
C918 C906 1.349 . S
C918 H912 0.950 . S
C918 C919 1.327 . S
C919 H913 0.950 1_556 S
C919 C918 1.327 . S
C919 C923 1.429 . S
C920 C903 1.574 . S
C920 H914 0.949 . S
C920 C924 1.368 . S
C921 C902 1.429 . S
C921 C915 1.429 . S
C921 C922 1.523 . S
C922 C903 1.368 1_554 S
C922 C916 1.368 . S
C922 C921 1.523 . S
C923 C907 1.429 . S
C923 C919 1.429 . S
C923 C924 1.523 . S
C924 C908 1.368 1_556 S
C924 C920 1.368 . S
C924 C923 1.523 . S
H925 C900 0.950 . S
H926 C902 0.950 . S
H927 C903 0.949 . S
H928 C905 0.950 . S
H929 C907 0.950 . S
C930 C931 1.349 . S
C930 C932 1.327 . S
C930 H955 0.950 . S
C931 C930 1.349 . S
C931 C947 1.349 . S
C932 C930 1.327 . S
C932 C951 1.429 . S
C932 H956 0.950 . S
C933 C950 1.574 . S
C933 C952 1.368 . S
C933 H957 0.949 . S
H934 C938 0.949 . S
C935 C936 1.349 . S
C935 C937 1.327 . S
C935 H958 0.950 . S
C936 C935 1.349 . S
C936 C948 1.349 . S
C937 C935 1.327 . S
C937 C953 1.429 . S
C937 H959 0.950 . S
C938 H934 0.949 . S
C938 C946 1.574 . S
C938 C954 1.368 . S
H939 C947 0.950 . S
H940 C945 0.950 . S
H941 C946 0.949 . S
H942 C948 0.950 . S
H943 C949 0.950 . S
H944 C950 0.949 . S
C945 H940 0.950 . S
C945 C947 1.327 . S
C945 C951 1.429 . S
C946 C938 1.574 . S
C946 H941 0.949 . S
C946 C952 1.368 . S
C947 C931 1.349 . S
C947 H939 0.950 . S
C947 C945 1.327 . S
C948 C936 1.349 . S
C948 H942 0.950 . S
C948 C949 1.327 . S
C949 H943 0.950 . S
C949 C948 1.327 . S
C949 C953 1.429 . S
C950 C933 1.574 . S
C950 H944 0.949 . S
C950 C954 1.368 . S
C951 C932 1.429 . S
C951 C945 1.429 . S
C951 C952 1.523 . S
C952 C933 1.368 . S
C952 C946 1.368 . S
C952 C951 1.523 . S
C953 C937 1.429 . S
C953 C949 1.429 . S
C953 C954 1.523 . S
C954 C938 1.368 . S
C954 C950 1.368 . S
C954 C953 1.523 . S
H955 C930 0.950 . S
H956 C932 0.950 . S
H957 C933 0.949 . S
H958 C935 0.950 . S
H959 C937 0.950 . S
C960 C961 1.349 . S
C960 C962 1.327 . S
C960 H985 0.950 . S
C961 C960 1.349 . S
C961 C977 1.349 . S
C962 C960 1.327 . S
C962 C981 1.429 . S
C962 H986 0.950 . S
C963 C980 1.574 . S
C963 C982 1.368 . S
C963 H987 0.949 . S
H964 C968 0.949 . S
C965 C966 1.349 1_556 S
C965 C967 1.327 1_556 S
C965 H988 0.950 . S
C966 C965 1.349 1_554 S
C966 C978 1.349 . S
C967 C965 1.327 1_554 S
C967 C983 1.429 . S
C967 H989 0.950 . S
C968 H964 0.949 . S
C968 C976 1.574 . S
C968 C984 1.368 . S
H969 C977 0.950 . S
H970 C975 0.950 . S
H971 C976 0.949 . S
H972 C978 0.950 . S
H973 C979 0.950 . S
H974 C980 0.949 . S
C975 H970 0.950 . S
C975 C977 1.327 . S
C975 C981 1.429 . S
C976 C968 1.574 . S
C976 H971 0.949 . S
C976 C982 1.368 . S
C977 C961 1.349 . S
C977 H969 0.950 . S
C977 C975 1.327 . S
C978 C966 1.349 . S
C978 H972 0.950 . S
C978 C979 1.327 . S
C979 H973 0.950 . S
C979 C978 1.327 . S
C979 C983 1.429 . S
C980 C963 1.574 . S
C980 H974 0.949 . S
C980 C984 1.368 . S
C981 C962 1.429 . S
C981 C975 1.429 . S
C981 C982 1.523 . S
C982 C963 1.368 . S
C982 C976 1.368 . S
C982 C981 1.523 . S
C983 C967 1.429 . S
C983 C979 1.429 . S
C983 C984 1.523 . S
C984 C968 1.368 . S
C984 C980 1.368 . S
C984 C983 1.523 . S
H985 C960 0.950 . S
H986 C962 0.950 . S
H987 C963 0.949 . S
H988 C965 0.950 . S
H989 C967 0.950 . S
C990 C991 1.349 1_565 S
C990 C992 1.327 . S
C990 H1015 0.950 . S
C991 C990 1.349 1_545 S
C991 C1007 1.349 . S
C992 C990 1.327 . S
C992 C1011 1.429 1_565 S
C992 H1016 0.950 . S
C993 C1010 1.574 . S
C993 C1012 1.368 . S
C993 H1017 0.949 . S
H994 C998 0.949 . S
C995 C996 1.349 . S
C995 C997 1.327 . S
C995 H1018 0.950 . S
C996 C995 1.349 . S
C996 C1008 1.349 . S
C997 C995 1.327 . S
C997 C1013 1.429 . S
C997 H1019 0.950 . S
C998 H994 0.949 . S
C998 C1006 1.574 . S
C998 C1014 1.368 1_565 S
H999 C1007 0.950 . S
H1000 C1005 0.950 . S
H1001 C1006 0.949 . S
H1002 C1008 0.950 1_566 S
H1003 C1009 0.915 1_565 S
H1004 C1010 0.949 . S
C1005 H1000 0.950 . S
C1005 C1007 1.327 . S
C1005 C1011 1.429 . S
C1006 C998 1.574 . S
C1006 H1001 0.949 . S
C1006 C1012 1.368 1_565 S
C1007 C991 1.349 . S
C1007 H999 0.950 . S
C1007 C1005 1.327 . S
C1008 C996 1.349 . S
C1008 H1002 0.950 1_544 S
C1008 C1009 1.323 . S
C1009 H1003 0.915 1_545 S
C1009 C1008 1.323 . S
C1009 C1013 1.469 . S
C1010 C993 1.574 . S
C1010 H1004 0.949 . S
C1010 C1014 1.368 . S
C1011 C992 1.429 1_545 S
C1011 C1005 1.429 . S
C1011 C1012 1.523 . S
C1012 C993 1.368 . S
C1012 C1006 1.368 1_545 S
C1012 C1011 1.523 . S
C1013 C997 1.429 . S
C1013 C1009 1.469 . S
C1013 C1014 1.523 . S
C1014 C998 1.368 1_545 S
C1014 C1010 1.368 . S
C1014 C1013 1.523 . S
H1015 C990 0.950 . S
H1016 C992 0.950 . S
H1017 C993 0.949 . S
H1018 C995 0.950 . S
H1019 C997 0.950 . S
C1020 C1021 1.349 1_554 S
C1020 C1022 1.327 1_554 S
C1020 H1045 0.950 . S
C1021 C1020 1.349 1_556 S
C1021 C1037 1.349 . S
C1022 C1020 1.327 1_556 S
C1022 C1041 1.429 . S
C1022 H1046 0.950 1_556 S
C1023 C1040 1.574 . S
C1023 C1042 1.368 . S
C1023 H1047 0.949 . S
H1024 C1028 0.949 . S
C1025 C1026 1.349 . S
C1025 C1027 1.327 . S
C1025 H1048 0.950 . S
C1026 C1025 1.349 . S
C1026 C1038 1.349 . S
C1027 C1025 1.327 . S
C1027 C1043 1.429 . S
C1027 H1049 0.950 . S
C1028 H1024 0.949 . S
C1028 C1036 1.574 . S
C1028 C1044 1.368 . S
H1029 C1037 0.950 . S
H1030 C1035 0.950 . S
H1031 C1036 0.949 1_554 S
H1032 C1038 0.950 . S
H1033 C1039 0.950 . S
H1034 C1040 0.949 . S
C1035 H1030 0.950 . S
C1035 C1037 1.327 . S
C1035 C1041 1.429 . S
C1036 C1028 1.574 . S
C1036 H1031 0.949 1_556 S
C1036 C1042 1.368 . S
C1037 C1021 1.349 . S
C1037 H1029 0.950 . S
C1037 C1035 1.327 . S
C1038 C1026 1.349 . S
C1038 H1032 0.950 . S
C1038 C1039 1.327 . S
C1039 H1033 0.950 . S
C1039 C1038 1.327 . S
C1039 C1043 1.429 . S
C1040 C1023 1.574 . S
C1040 H1034 0.949 . S
C1040 C1044 1.368 . S
C1041 C1022 1.429 . S
C1041 C1035 1.429 . S
C1041 C1042 1.523 . S
C1042 C1023 1.368 . S
C1042 C1036 1.368 . S
C1042 C1041 1.523 . S
C1043 C1027 1.429 . S
C1043 C1039 1.429 . S
C1043 C1044 1.523 . S
C1044 C1028 1.368 . S
C1044 C1040 1.368 . S
C1044 C1043 1.523 . S
H1045 C1020 0.950 . S
H1046 C1022 0.950 1_554 S
H1047 C1023 0.949 . S
H1048 C1025 0.950 . S
H1049 C1027 0.950 . S
C1050 C1051 1.349 . S
C1050 C1052 1.327 . S
C1050 H1075 0.950 . S
C1051 C1050 1.349 . S
C1051 C1067 1.349 . S
C1052 C1050 1.327 . S
C1052 C1071 1.429 . S
C1052 H1076 0.950 . S
C1053 C1070 1.574 . S
C1053 C1072 1.368 . S
C1053 H1077 0.949 . S
H1054 C1058 0.949 . S
C1055 C1056 1.349 . S
C1055 C1057 1.327 . S
C1055 H1078 0.950 1_554 S
C1056 C1055 1.349 . S
C1056 C1068 1.349 . S
C1057 C1055 1.327 . S
C1057 C1073 1.429 . S
C1057 H1079 0.950 . S
C1058 H1054 0.949 . S
C1058 C1066 1.574 . S
C1058 C1074 1.368 . S
H1059 C1067 0.950 . S
H1060 C1065 0.950 . S
H1061 C1066 0.949 . S
H1062 C1068 0.950 . S
H1063 C1069 0.950 . S
H1064 C1070 0.949 . S
C1065 H1060 0.950 . S
C1065 C1067 1.327 . S
C1065 C1071 1.429 . S
C1066 C1058 1.574 . S
C1066 H1061 0.949 . S
C1066 C1072 1.368 . S
C1067 C1051 1.349 . S
C1067 H1059 0.950 . S
C1067 C1065 1.327 . S
C1068 C1056 1.349 . S
C1068 H1062 0.950 . S
C1068 C1069 1.327 . S
C1069 H1063 0.950 . S
C1069 C1068 1.327 . S
C1069 C1073 1.429 . S
C1070 C1053 1.574 . S
C1070 H1064 0.949 . S
C1070 C1074 1.368 . S
C1071 C1052 1.429 . S
C1071 C1065 1.429 . S
C1071 C1072 1.523 . S
C1072 C1053 1.368 . S
C1072 C1066 1.368 . S
C1072 C1071 1.523 . S
C1073 C1057 1.429 . S
C1073 C1069 1.429 . S
C1073 C1074 1.523 . S
C1074 C1058 1.368 . S
C1074 C1070 1.368 . S
C1074 C1073 1.523 . S
H1075 C1050 0.950 . S
H1076 C1052 0.950 . S
H1077 C1053 0.949 . S
H1078 C1055 0.950 1_556 S
H1079 C1057 0.950 . S
C1080 C1081 1.349 . S
C1080 C1082 1.327 . S
C1080 H1105 0.950 . S
C1081 C1080 1.349 . S
C1081 C1097 1.349 . S
C1082 C1080 1.327 . S
C1082 C1101 1.429 . S
C1082 H1106 0.950 . S
C1083 C1100 1.574 . S
C1083 C1102 1.368 . S
C1083 H1107 0.949 . S
H1084 C1088 0.949 . S
C1085 C1086 1.349 . S
C1085 C1087 1.327 . S
C1085 H1108 0.950 . S
C1086 C1085 1.349 . S
C1086 C1098 1.349 . S
C1087 C1085 1.327 . S
C1087 C1103 1.429 . S
C1087 H1109 0.950 . S
C1088 H1084 0.949 . S
C1088 C1096 1.574 . S
C1088 C1104 1.368 . S
H1089 C1097 0.950 . S
H1090 C1095 0.950 . S
H1091 C1096 0.949 . S
H1092 C1098 0.950 . S
H1093 C1099 0.950 . S
H1094 C1100 0.949 . S
C1095 H1090 0.950 . S
C1095 C1097 1.327 . S
C1095 C1101 1.429 . S
C1096 C1088 1.574 . S
C1096 H1091 0.949 . S
C1096 C1102 1.368 . S
C1097 C1081 1.349 . S
C1097 H1089 0.950 . S
C1097 C1095 1.327 . S
C1098 C1086 1.349 . S
C1098 H1092 0.950 . S
C1098 C1099 1.327 . S
C1099 H1093 0.950 . S
C1099 C1098 1.327 . S
C1099 C1103 1.429 . S
C1100 C1083 1.574 . S
C1100 H1094 0.949 . S
C1100 C1104 1.368 . S
C1101 C1082 1.429 . S
C1101 C1095 1.429 . S
C1101 C1102 1.523 . S
C1102 C1083 1.368 . S
C1102 C1096 1.368 . S
C1102 C1101 1.523 . S
C1103 C1087 1.429 . S
C1103 C1099 1.429 . S
C1103 C1104 1.523 . S
C1104 C1088 1.368 . S
C1104 C1100 1.368 . S
C1104 C1103 1.523 . S
H1105 C1080 0.950 . S
H1106 C1082 0.950 . S
H1107 C1083 0.949 . S
H1108 C1085 0.950 . S
H1109 C1087 0.950 . S
C1110 C1111 1.349 . S
C1110 C1112 1.327 . S
C1110 H1135 0.950 . S
C1111 C1110 1.349 . S
C1111 C1127 1.349 1_565 S
C1112 C1110 1.327 . S
C1112 C1131 1.429 . S
C1112 H1136 0.950 . S
C1113 C1130 1.574 . S
C1113 C1132 1.368 1_545 S
C1113 H1137 0.949 . S
H1114 C1118 0.949 . S
C1115 C1116 1.349 . S
C1115 C1117 1.324 . S
C1115 H1138 0.950 1_565 S
C1116 C1115 1.349 . S
C1116 C1128 1.349 . S
C1117 C1115 1.324 . S
C1117 C1133 1.458 . S
C1117 H1139 0.924 1_565 S
C1118 H1114 0.949 . S
C1118 C1126 1.574 . S
C1118 C1134 1.368 . S
H1119 C1127 0.950 . S
H1120 C1125 0.950 . S
H1121 C1126 0.949 . S
H1122 C1128 0.950 . S
H1123 C1129 0.950 . S
H1124 C1130 0.949 . S
C1125 H1120 0.950 . S
C1125 C1127 1.327 . S
C1125 C1131 1.429 1_545 S
C1126 C1118 1.574 . S
C1126 H1121 0.949 . S
C1126 C1132 1.368 . S
C1127 C1111 1.349 1_545 S
C1127 H1119 0.950 . S
C1127 C1125 1.327 . S
C1128 C1116 1.349 . S
C1128 H1122 0.950 . S
C1128 C1129 1.327 . S
C1129 H1123 0.950 . S
C1129 C1128 1.327 . S
C1129 C1133 1.429 . S
C1130 C1113 1.574 . S
C1130 H1124 0.949 . S
C1130 C1134 1.368 1_545 S
C1131 C1112 1.429 . S
C1131 C1125 1.429 1_565 S
C1131 C1132 1.523 . S
C1132 C1113 1.368 1_565 S
C1132 C1126 1.368 . S
C1132 C1131 1.523 . S
C1133 C1117 1.458 . S
C1133 C1129 1.429 . S
C1133 C1134 1.523 . S
C1134 C1118 1.368 . S
C1134 C1130 1.368 1_565 S
C1134 C1133 1.523 . S
H1135 C1110 0.950 . S
H1136 C1112 0.950 . S
H1137 C1113 0.949 . S
H1138 C1115 0.950 1_545 S
H1139 C1117 0.924 1_545 S
C1140 C1141 1.349 . S
C1140 C1142 1.327 . S
C1140 H1165 0.950 . S
C1141 C1140 1.349 . S
C1141 C1157 1.349 . S
C1142 C1140 1.327 . S
C1142 C1161 1.429 . S
C1142 H1166 0.950 . S
C1143 C1160 1.574 . S
C1143 C1162 1.368 . S
C1143 H1167 0.949 . S
H1144 C1148 0.949 . S
C1145 C1146 1.349 . S
C1145 C1147 1.327 . S
C1145 H1168 0.950 . S
C1146 C1145 1.349 . S
C1146 C1158 1.349 . S
C1147 C1145 1.327 . S
C1147 C1163 1.429 . S
C1147 H1169 0.950 . S
C1148 H1144 0.949 . S
C1148 C1156 1.574 . S
C1148 C1164 1.368 . S
H1149 C1157 0.950 . S
H1150 C1155 0.950 . S
H1151 C1156 0.949 . S
H1152 C1158 0.950 . S
H1153 C1159 0.950 . S
H1154 C1160 0.949 . S
C1155 H1150 0.950 . S
C1155 C1157 1.327 . S
C1155 C1161 1.429 . S
C1156 C1148 1.574 . S
C1156 H1151 0.949 . S
C1156 C1162 1.368 . S
C1157 C1141 1.349 . S
C1157 H1149 0.950 . S
C1157 C1155 1.327 . S
C1158 C1146 1.349 . S
C1158 H1152 0.950 . S
C1158 C1159 1.327 . S
C1159 H1153 0.950 . S
C1159 C1158 1.327 . S
C1159 C1163 1.429 . S
C1160 C1143 1.574 . S
C1160 H1154 0.949 . S
C1160 C1164 1.368 . S
C1161 C1142 1.429 . S
C1161 C1155 1.429 . S
C1161 C1162 1.523 . S
C1162 C1143 1.368 . S
C1162 C1156 1.368 . S
C1162 C1161 1.523 . S
C1163 C1147 1.429 . S
C1163 C1159 1.429 . S
C1163 C1164 1.523 . S
C1164 C1148 1.368 . S
C1164 C1160 1.368 . S
C1164 C1163 1.523 . S
H1165 C1140 0.950 . S
H1166 C1142 0.950 . S
H1167 C1143 0.949 . S
H1168 C1145 0.950 . S
H1169 C1147 0.950 . S
C1170 C1171 1.349 . S
C1170 C1172 1.327 . S
C1170 H1195 0.950 . S
C1171 C1170 1.349 . S
C1171 C1187 1.349 . S
C1172 C1170 1.327 . S
C1172 C1191 1.429 . S
C1172 H1196 0.950 . S
C1173 C1190 1.574 . S
C1173 C1192 1.368 . S
C1173 H1197 0.949 . S
H1174 C1178 0.949 . S
C1175 C1176 1.349 . S
C1175 C1177 1.327 . S
C1175 H1198 0.950 . S
C1176 C1175 1.349 . S
C1176 C1188 1.349 . S
C1177 C1175 1.327 . S
C1177 C1193 1.429 . S
C1177 H1199 0.950 . S
C1178 H1174 0.949 . S
C1178 C1186 1.574 . S
C1178 C1194 1.368 . S
H1179 C1187 0.950 . S
H1180 C1185 0.950 . S
H1181 C1186 0.949 . S
H1182 C1188 0.950 . S
H1183 C1189 0.950 . S
H1184 C1190 0.949 . S
C1185 H1180 0.950 . S
C1185 C1187 1.327 . S
C1185 C1191 1.429 . S
C1186 C1178 1.574 . S
C1186 H1181 0.949 . S
C1186 C1192 1.368 . S
C1187 C1171 1.349 . S
C1187 H1179 0.950 . S
C1187 C1185 1.327 . S
C1188 C1176 1.349 . S
C1188 H1182 0.950 . S
C1188 C1189 1.327 . S
C1189 H1183 0.950 . S
C1189 C1188 1.327 . S
C1189 C1193 1.429 . S
C1190 C1173 1.574 . S
C1190 H1184 0.949 . S
C1190 C1194 1.368 . S
C1191 C1172 1.429 . S
C1191 C1185 1.429 . S
C1191 C1192 1.523 . S
C1192 C1173 1.368 . S
C1192 C1186 1.368 . S
C1192 C1191 1.523 . S
C1193 C1177 1.429 . S
C1193 C1189 1.429 . S
C1193 C1194 1.523 . S
C1194 C1178 1.368 . S
C1194 C1190 1.368 . S
C1194 C1193 1.523 . S
H1195 C1170 0.950 . S
H1196 C1172 0.950 . S
H1197 C1173 0.949 . S
H1198 C1175 0.950 . S
H1199 C1177 0.950 . S
C481 C255 0.805 . S
C486 C329 0.793 . S
C516 C369 1.856 . S
C511 C295 1.899 . S
C546 C418 1.700 . S
C541 C175 1.700 . S
C576 C449 2.218 . S
C571 C215 2.233 . S
C606 C338 0.793 . S
C601 C95 0.799 . S
C631 C135 1.894 . S
C636 C378 1.862 . S
C661 C15 1.709 . S
C666 C409 1.699 . S
C691 C55 2.220 . S
C696 C458 2.191 1_655 S
C726 C339 1.279 . S
C721 C221 1.169 . S
C756 C379 0.519 . S
C751 C261 0.629 . S
C786 C415 0.444 . S
C781 C301 0.449 . S
C811 C181 1.187 . S
C816 C459 1.374 . S
C841 C61 1.058 . S
C846 C330 1.263 1_655 S
C876 C370 0.520 . S
C871 C101 0.630 1_565 S
C906 C406 0.444 . S
C901 C141 0.560 . S
C931 C21 1.276 . S
C936 C450 1.375 . S
C961 C202 2.295 . S
C966 C335 2.349 1_554 S
C991 C242 1.737 . S
C996 C375 1.783 1_554 S
C1026 C419 2.986 . S
C1021 C282 2.811 1_556 S
C1056 C455 1.890 1_554 S
C1051 C162 1.769 . S
C1081 C42 2.203 . S
C1086 C326 2.362 . S
C1116 C366 1.783 . S
C1111 C82 1.757 1_565 S
C1146 C410 2.985 . S
C1141 C122 2.712 . S
C1171 C2 1.863 . S
C1176 C446 1.890 . S
