# Generated by pormake.
# Topology pts, (4,4)-cn, num edge types: 1
# Building blocks:
#     Node 0, Type 0, BuildingBlock: NAWXER_clean_sbu_0, # of connection points: 4
#     Node 1, Type 0, BuildingBlock: NAWXER_clean_sbu_0, # of connection points: 4
#     Node 2, Type 1, BuildingBlock: QUQFOY_clean_sbu_1, # of connection points: 4
#     Node 3, Type 1, BuildingBlock: QUQFOY_clean_sbu_1, # of connection points: 4
#     Edge 4, Type (0, 1), BuildingBlock: ZUJKAS_clean_linker_0, # of connection points: 2
#     Edge 5, Type (0, 1), BuildingBlock: ZUJKAS_clean_linker_0, # of connection points: 2
#     Edge 6, Type (0, 1), BuildingBlock: ZUJKAS_clean_linker_0, # of connection points: 2
#     Edge 7, Type (0, 1), BuildingBlock: ZUJKAS_clean_linker_0, # of connection points: 2
#     Edge 8, Type (0, 1), BuildingBlock: ZUJKAS_clean_linker_0, # of connection points: 2
#     Edge 9, Type (0, 1), BuildingBlock: ZUJKAS_clean_linker_0, # of connection points: 2
#     Edge 10, Type (0, 1), BuildingBlock: ZUJKAS_clean_linker_0, # of connection points: 2
#     Edge 11, Type (0, 1), BuildingBlock: ZUJKAS_clean_linker_0, # of connection points: 2
# Relax obj value: 0.107
# Max RMSD: 0.244
# Mean RMSD: 0.141
data_MOF--net-pts--node1-NAWXER_clean_sbu_0--node2-QUQFOY_clean_sbu_1--edge1-ZUJKAS_clean_linker_0
_symmetry_space_group_name_H-M    P1
_symmetry_Int_Tables_number       1
_symmetry_cell_setting            triclinic
loop_
_symmetry_equiv_pos_as_xyz
'x, y, z'
_cell_length_a     28.398372
_cell_length_b     31.400604
_cell_length_c     51.288757
_cell_angle_alpha  89.957195
_cell_angle_beta   89.992779
_cell_angle_gamma 90.16007
loop_
_atom_site_label
_atom_site_type_symbol
_atom_site_fract_x
_atom_site_fract_y
_atom_site_fract_z
_atom_type_partial_charge
C0 C 0.44161 0.9741 0.96835 0.0
C1 C 0.56257 0.9761 0.03634 0.0
O2 O 0.46079 0.94171 0.97881 0.0
Zn3 Zn 0.50244 0.97295 1.00212 0.0
O4 O 0.45375 0.01154 0.97573 0.0
Zn5 Zn 0.5008 0.04153 1.0025 0.0
O6 O 0.54217 0.07322 0.97925 0.0
O7 O 0.54881 1.00351 0.97527 0.0
O8 O 0.54877 0.01315 0.02924 0.0
O9 O 0.54532 0.94323 0.02539 0.0
O10 O 0.45397 1.00073 0.02886 0.0
O11 O 0.45773 0.07079 0.0259 0.0
C12 C 0.56082 0.04116 0.96819 0.0
C13 C 0.44006 0.03757 0.03629 0.0
C14 C 0.96621 0.56181 0.47193 0.0
C15 C 0.96458 0.45008 0.53901 0.0
O16 O 0.92962 0.54391 0.48127 0.0
Zn17 Zn 0.9623 0.5055 0.5053 0.0
O18 O 0.00698 0.54967 0.47949 0.0
Zn19 Zn 0.03857 0.50571 0.50554 0.0
O20 O 0.07184 0.46692 0.482 0.0
O21 O 0.9945 0.46098 0.47985 0.0
O22 O 0.00579 0.46236 0.53204 0.0
O23 O 0.92843 0.46699 0.5286 0.0
O24 O 0.99442 0.54913 0.53179 0.0
O25 O 0.07184 0.54456 0.52887 0.0
C26 C 0.03544 0.44873 0.47265 0.0
C27 C 0.03546 0.56152 0.53898 0.0
O28 O 0.94639 0.96678 0.23667 0.0
Cd29 Cd 0.00685 0.96221 0.25853 0.0
Cd30 Cd 0.99445 0.05061 0.25812 0.0
O31 O 0.93146 0.03547 0.23998 0.0
O32 O 0.00934 0.8998 0.26526 0.0
O33 O 0.00152 0.9472 0.29676 0.0
C34 C 0.00327 0.90776 0.28966 0.0
C35 C 0.9983 0.10447 0.28954 0.0
C36 C 0.92019 0.99854 0.23188 0.0
C37 C 0.08093 0.01389 0.23167 0.0
O38 O 0.05479 0.04581 0.23615 0.0
O39 O 0.06965 0.97719 0.24018 0.0
O40 O 0.99198 0.11289 0.26522 0.0
O41 O 0.0002 0.0649 0.2964 0.0
O42 O 0.95007 0.04858 0.77101 0.0
Cd43 Cd 0.00934 0.04771 0.74797 0.0
Cd44 Cd 0.99121 0.96279 0.74886 0.0
O45 O 0.92893 0.98141 0.76641 0.0
O46 O 0.01745 0.1085 0.73791 0.0
O47 O 0.00103 0.05782 0.7094 0.0
C48 C 0.0077 0.09776 0.71427 0.0
C49 C 0.99258 0.91265 0.71527 0.0
C50 C 0.92099 0.01857 0.77522 0.0
C51 C 0.07997 0.99311 0.77506 0.0
O52 O 0.0509 0.96283 0.77162 0.0
O53 O 0.07179 0.02977 0.76555 0.0
O54 O 0.98318 0.90192 0.73898 0.0
O55 O -0.00089 0.95259 0.71031 0.0
H56 H 0.39944 0.97154 0.06219 0.0
H57 H 0.33984 0.97407 0.0961 0.0
H58 H 0.33832 0.11119 0.09184 0.0
H59 H 0.39907 0.10912 0.05764 0.0
H60 H 0.34113 0.07606 0.14396 0.0
H61 H 0.20033 1.00276 0.08396 0.0
H62 H 0.25411 0.97287 0.08378 0.0
H63 H 0.25302 0.02549 0.0699 0.0
C64 C 0.38654 1.00239 0.06829 0.0
C65 C 0.40384 0.04019 0.057 0.0
C66 C 0.35226 1.00369 0.08766 0.0
C67 C 0.33413 0.04272 0.09612 0.0
C68 C 0.35173 0.08071 0.08536 0.0
H69 H 0.11879 0.0886 0.21397 0.0
H70 H 0.18238 0.09781 0.18242 0.0
C71 C 0.38629 0.07947 0.06584 0.0
C72 C 0.29705 0.04307 0.11639 0.0
H73 H 0.18779 1.00337 0.13001 0.0
C74 C 0.30732 0.06072 0.14088 0.0
C75 C 0.25306 0.02296 0.11225 0.0
C76 C 0.2392 1.0053 0.08597 0.0
C77 C 0.27534 0.05721 0.1617 0.0
C78 C 0.23203 0.03585 0.15772 0.0
C79 C 0.22133 0.01924 0.13305 0.0
C80 C 0.19686 0.03051 0.17876 0.0
C81 C 0.28866 0.07508 0.18798 0.0
C82 C 0.184 0.98955 0.18719 0.0
C83 C 0.14756 0.98408 0.20523 0.0
C84 C 0.12299 0.01952 0.21491 0.0
C85 C 0.13692 0.06058 0.20691 0.0
C86 C 0.17346 0.06599 0.18898 0.0
H87 H 0.3269 0.08237 0.18926 0.0
H88 H 0.26894 0.10502 0.19136 0.0
H89 H 0.27921 0.0524 0.20378 0.0
H90 H 0.20158 0.96176 0.17939 0.0
H91 H 0.13767 0.95205 0.21091 0.0
H92 H 0.88686 0.40081 0.55098 0.0
H93 H 0.88503 0.33721 0.57903 0.0
H94 H 0.03185 0.35566 0.59736 0.0
H95 H 0.03416 0.41836 0.56955 0.0
H96 H 0.00912 0.27259 0.58026 0.0
H97 H 0.89103 0.32848 0.65982 0.0
H98 H 0.86994 0.33387 0.6269 0.0
H99 H 0.91949 0.36488 0.63752 0.0
C100 C 0.91849 0.3916 0.56132 0.0
C101 C 0.96066 0.41458 0.55795 0.0
C102 C 0.9174 0.35529 0.57731 0.0
C103 C 0.95836 0.34176 0.59025 0.0
C104 C -6e-05 0.3654 0.58744 0.0
H105 H 0.02483 0.18282 0.71878 0.0
H106 H 0.00926 0.23858 0.68682 0.0
C107 C 0.0011 0.40136 0.57154 0.0
C108 C 0.95931 0.30226 0.6061 0.0
H109 H 0.92308 0.25983 0.66404 0.0
C110 C 0.98988 0.26948 0.59844 0.0
C111 C 0.93438 0.29854 0.62983 0.0
C112 C 0.90202 0.33331 0.63924 0.0
C113 C 0.99747 0.2337 0.6143 0.0
C114 C 0.97324 0.23034 0.63831 0.0
C115 C 0.94149 0.26247 0.64557 0.0
C116 C 0.98322 0.19564 0.65715 0.0
C117 C 0.03302 0.20085 0.60585 0.0
C118 C 0.9741 0.15281 0.651 0.0
C119 C 0.98336 0.12064 0.66923 0.0
C120 C 0.00153 0.13087 0.69397 0.0
C121 C 0.01093 0.17377 0.6999 0.0
C122 C 0.00183 0.20577 0.6817 0.0
H123 H 0.05534 0.21243 0.58951 0.0
H124 H 0.05624 0.19181 0.62235 0.0
H125 H 0.01424 0.17178 0.59921 0.0
H126 H 0.95914 0.14434 0.63229 0.0
H127 H 0.97531 0.08794 0.66416 0.0
H128 H 0.60272 0.90384 0.05724 0.0
H129 H 0.65911 0.90025 0.09358 0.0
H130 H 0.65702 0.03713 0.09986 0.0
H131 H 0.60119 0.04114 0.06405 0.0
H132 H 0.74989 0.94079 0.09679 0.0
H133 H 0.63 0.99647 0.17482 0.0
H134 H 0.60886 0.97644 0.14394 0.0
H135 H 0.63021 0.03025 0.14656 0.0
C136 C 0.61425 0.9331 0.06643 0.0
C137 C 0.59729 0.97273 0.05779 0.0
C138 C 0.64633 0.931 0.08717 0.0
C139 C 0.66141 0.9684 0.09969 0.0
C140 C 0.64499 0.00786 0.09086 0.0
H141 H 0.86175 0.05947 0.21134 0.0
H142 H 0.79706 0.04854 0.18044 0.0
C143 C 0.61326 0.01003 0.07021 0.0
C144 C 0.69584 0.96705 0.12132 0.0
H145 H 0.71258 0.99968 0.18415 0.0
C146 C 0.74165 0.95296 0.11604 0.0
C147 C 0.68488 0.98319 0.14634 0.0
C148 C 0.63569 0.99708 0.15339 0.0
C149 C 0.77748 0.95644 0.13478 0.0
C150 C 0.76682 0.97375 0.15957 0.0
C151 C 0.72065 0.98665 0.16509 0.0
C152 C 0.80356 0.97991 0.17971 0.0
C153 C 0.82685 0.94328 0.12752 0.0
C154 C 0.82758 0.94486 0.19008 0.0
C155 C 0.86451 0.95096 0.20765 0.0
C156 C 0.87796 0.99229 0.21534 0.0
C157 C 0.8524 0.02727 0.20579 0.0
C158 C 0.81547 0.02109 0.18812 0.0
H159 H 0.83117 0.93976 0.1061 0.0
H160 H 0.85301 0.96688 0.13468 0.0
H161 H 0.83485 0.91213 0.13671 0.0
H162 H 0.81824 0.91278 0.18426 0.0
H163 H 0.88308 0.92324 0.21481 0.0
H164 H 0.11289 0.6108 0.55145 0.0
H165 H 0.11422 0.67408 0.5797 0.0
H166 H 0.96703 0.65552 0.59712 0.0
H167 H 0.96521 0.59318 0.56906 0.0
H168 H 0.98933 0.73851 0.58104 0.0
H169 H 0.10782 0.68174 0.66019 0.0
H170 H 0.1295 0.6775 0.62733 0.0
H171 H 0.08013 0.64572 0.6374 0.0
C172 C 0.08105 0.61993 0.56161 0.0
C173 C 0.03894 0.597 0.55793 0.0
C174 C 0.08186 0.65606 0.57773 0.0
C175 C 0.04068 0.66945 0.59051 0.0
C176 C -0.00088 0.6459 0.58734 0.0
H177 H 0.97591 0.82751 0.71997 0.0
H178 H 0.99086 0.77181 0.68792 0.0
C179 C 0.99823 0.61014 0.5713 0.0
C180 C 0.03953 0.70867 0.6066 0.0
H181 H 0.07626 0.75057 0.66456 0.0
C182 C 0.00873 0.74144 0.59918 0.0
C183 C 0.06465 0.71217 0.63029 0.0
C184 C 0.0972 0.67739 0.63951 0.0
C185 C 0.00117 0.77701 0.6152 0.0
C186 C 0.0257 0.78021 0.63911 0.0
C187 C 0.05761 0.74806 0.64617 0.0
C188 C 0.01607 0.81485 0.65803 0.0
C189 C 0.96537 0.80982 0.60698 0.0
C190 C 0.02494 0.8577 0.65181 0.0
C191 C 0.01604 0.88983 0.6701 0.0
C192 C 0.99847 0.87954 0.69497 0.0
C193 C 0.98934 0.8366 0.70099 0.0
C194 C 0.99809 0.80464 0.68273 0.0
H195 H 0.94269 0.7982 0.59082 0.0
H196 H 0.94252 0.81884 0.62364 0.0
H197 H 0.98396 0.8389 0.60017 0.0
H198 H 0.03945 0.86624 0.63299 0.0
H199 H 0.02387 0.92254 0.66495 0.0
H200 H 0.40082 0.03803 0.94085 0.0
H201 H 0.34054 0.03288 0.90743 0.0
H202 H 0.33959 0.89612 0.91497 0.0
H203 H 0.40107 0.90084 0.94868 0.0
H204 H 0.33986 0.92785 0.86198 0.0
H205 H 0.20172 1.004 0.92215 0.0
H206 H 0.25534 0.03431 0.92104 0.0
H207 H 0.25505 0.98245 0.936 0.0
C208 C 0.38793 0.00671 0.93556 0.0
C209 C 0.40552 0.96981 0.94767 0.0
C210 C 0.35328 1.0039 0.91646 0.0
C211 C 0.33502 0.96423 0.90911 0.0
C212 C 0.35308 0.92708 0.92059 0.0
H213 H 0.11206 0.9176 0.79478 0.0
H214 H 0.17589 0.907 0.8261 0.0
C215 C 0.38807 0.92984 0.93983 0.0
C216 C 0.29708 0.96241 0.88936 0.0
H217 H 0.18781 1.00188 0.87614 0.0
C218 C 0.30629 0.9434 0.86514 0.0
C219 C 0.25334 0.9827 0.89363 0.0
C220 C 0.2405 1.00166 0.9197 0.0
C221 C 0.2736 0.94597 0.84461 0.0
C222 C 0.2308 0.96789 0.84861 0.0
C223 C 0.221 0.98558 0.87309 0.0
C224 C 0.19565 0.97349 0.82764 0.0
C225 C 0.2856 0.92671 0.81853 0.0
C226 C 0.1859 0.01439 0.81807 0.0
C227 C 0.1495 0.02064 0.80014 0.0
C228 C 0.12183 0.98608 0.79174 0.0
C229 C 0.13263 0.94493 0.80087 0.0
C230 C 0.16923 0.93872 0.81867 0.0
H231 H 0.32307 0.91678 0.8174 0.0
H232 H 0.26313 0.89826 0.81519 0.0
H233 H 0.27837 0.94978 0.80261 0.0
H234 H 0.20587 0.04163 0.82491 0.0
H235 H 0.1421 0.05271 0.79356 0.0
H236 H 0.11072 0.42389 0.44207 0.0
H237 H 0.11153 0.3657 0.40983 0.0
H238 H 0.96875 0.33315 0.4306 0.0
H239 H 0.96723 0.391 0.46197 0.0
H240 H 0.09595 0.27743 0.41394 0.0
H241 H 0.95909 0.35224 0.3525 0.0
H242 H 0.98941 0.38087 0.37798 0.0
H243 H 0.94036 0.34665 0.38572 0.0
C244 C 0.07963 0.40422 0.4397 0.0
C245 C 0.03866 0.41256 0.45422 0.0
C246 C 0.08012 0.37103 0.42134 0.0
C247 C 0.03975 0.3458 0.41739 0.0
C248 C -0.00021 0.35297 0.43276 0.0
H249 H 0.00145 0.09973 0.34303 0.0
H250 H 0.01494 0.15831 0.37375 0.0
C251 C -0.00091 0.3861 0.45076 0.0
C252 C 0.03826 0.3122 0.39707 0.0
H253 H 0.97289 0.27806 0.34529 0.0
C254 C 0.06946 0.27771 0.39871 0.0
C255 C 0.00413 0.31293 0.37696 0.0
C256 C 0.97169 0.35039 0.37298 0.0
C257 C 0.06627 0.24316 0.38133 0.0
C258 C 0.03019 0.24273 0.36224 0.0
C259 C 0.00012 0.27798 0.36012 0.0
C260 C 0.02311 0.20662 0.34389 0.0
C261 C 0.10188 0.20777 0.38344 0.0
C262 C 0.02156 0.21438 0.31696 0.0
C263 C 0.01278 0.18125 0.29948 0.0
C264 C 0.00558 0.13944 0.3085 0.0
C265 C 0.00703 0.13157 0.33548 0.0
C266 C 0.01528 0.16496 0.35304 0.0
H267 H 0.13471 0.2188 0.39313 0.0
H268 H 0.08686 0.18157 0.39538 0.0
H269 H 0.11103 0.19485 0.36395 0.0
H270 H 0.02723 0.24622 0.3094 0.0
H271 H 0.01217 0.18843 0.27883 0.0
H272 H 0.60202 0.11478 0.94952 0.0
H273 H 0.65896 0.12087 0.91351 0.0
H274 H 0.6539 0.9848 0.90266 0.0
H275 H 0.59765 0.97833 0.93815 0.0
H276 H 0.74938 0.07778 0.90989 0.0
H277 H 0.6297 0.03384 0.82888 0.0
H278 H 0.6085 0.05209 0.86014 0.0
H279 H 0.62705 0.99779 0.85604 0.0
C280 C 0.61296 0.08625 0.93936 0.0
C281 C 0.59522 0.04611 0.9467 0.0
C282 C 0.64537 0.08978 0.91883 0.0
C283 C 0.65988 0.05333 0.90519 0.0
C284 C 0.6424 0.01339 0.91259 0.0
H285 H 0.85646 0.96082 0.79367 0.0
H286 H 0.79166 0.97421 0.82402 0.0
C287 C 0.61045 0.00979 0.93306 0.0
C288 C 0.69497 0.05598 0.88392 0.0
H289 H 0.71244 0.02792 0.82037 0.0
C290 C 0.74128 0.06771 0.89016 0.0
C291 C 0.68414 0.04257 0.8583 0.0
C292 C 0.63454 0.03122 0.85031 0.0
C293 C 0.77768 0.06417 0.87177 0.0
C294 C 0.76712 0.04928 0.84637 0.0
C295 C 0.72045 0.03912 0.83988 0.0
C296 C 0.80443 0.04204 0.82669 0.0
C297 C 0.82746 0.07433 0.88006 0.0
C298 C 0.83221 0.07591 0.81764 0.0
C299 C 0.86933 0.06837 0.80039 0.0
C300 C 0.87913 0.0268 0.7917 0.0
C301 C 0.84998 0.99316 0.80001 0.0
C302 C 0.81294 1.00076 0.81735 0.0
H303 H 0.83091 0.07624 0.90161 0.0
H304 H 0.85234 0.04991 0.8727 0.0
H305 H 0.83801 0.10558 0.87178 0.0
H306 H 0.82557 0.10814 0.82417 0.0
H307 H 0.89077 0.09511 0.7942 0.0
H308 H 0.89002 0.58854 0.44264 0.0
H309 H 0.88912 0.64655 0.41025 0.0
H310 H 0.03461 0.67433 0.42748 0.0
H311 H 0.03619 0.61667 0.45899 0.0
H312 H 0.90796 0.73387 0.41425 0.0
H313 H 0.03749 0.65684 0.34922 0.0
H314 H 0.0084 0.62851 0.37529 0.0
H315 H 0.05916 0.66127 0.38194 0.0
C316 C 0.92173 0.60705 0.43943 0.0
C317 C 0.96335 0.5975 0.45307 0.0
C318 C 0.92118 0.64015 0.42098 0.0
C319 C 0.96217 0.66407 0.41603 0.0
C320 C 0.003 0.65553 0.4304 0.0
H321 H 0.00295 0.91105 0.34321 0.0
H322 H 0.98954 0.85188 0.37356 0.0
C323 C 0.00372 0.62251 0.44851 0.0
C324 C 0.96324 0.69799 0.39587 0.0
H325 H 0.02615 0.73172 0.34304 0.0
C326 C 0.93334 0.73325 0.39846 0.0
C327 C 0.99588 0.69685 0.37503 0.0
C328 C 0.02669 0.65861 0.37001 0.0
C329 C 0.93648 0.76815 0.38131 0.0
C330 C 0.97128 0.76815 0.3615 0.0
C331 C -5e-05 0.73215 0.35843 0.0
C332 C 0.97844 0.80464 0.34339 0.0
C333 C 0.90218 0.80438 0.38447 0.0
C334 C 0.97838 0.79764 0.31637 0.0
C335 C 0.9872 0.83107 0.29909 0.0
C336 C 0.99597 0.87245 0.30839 0.0
C337 C 0.99611 0.87957 0.33545 0.0
C338 C 0.9879 0.84585 0.3528 0.0
H339 H 0.86956 0.79384 0.39459 0.0
H340 H 0.91868 0.82973 0.39648 0.0
H341 H 0.89236 0.81824 0.36531 0.0
H342 H 0.97141 0.76617 0.30859 0.0
H343 H 0.98653 0.82449 0.27836 0.0
loop_
_geom_bond_atom_site_label_1
_geom_bond_atom_site_label_2
_geom_bond_distance
_geom_bond_site_symmetry_2
_ccdc_geom_bond_type
C0 O2 1.245 . S
C0 O4 1.260 1_565 S
C1 O8 1.251 . S
C1 O9 1.253 1_545 S
O2 C0 1.245 . S
O2 Zn3 2.028 1_556 S
Zn3 O2 2.028 1_554 S
Zn3 O7 2.035 1_554 S
Zn3 O9 2.035 . S
Zn3 O10 2.028 . S
O4 C0 1.260 1_545 S
O4 Zn5 2.035 1_556 S
Zn5 O4 2.035 1_554 S
Zn5 O6 2.028 1_554 S
Zn5 O8 2.028 . S
Zn5 O11 2.035 . S
O6 Zn5 2.028 1_556 S
O6 C12 1.251 . S
O7 Zn3 2.035 1_556 S
O7 C12 1.253 1_565 S
O8 C1 1.251 . S
O8 Zn5 2.028 . S
O9 C1 1.253 1_565 S
O9 Zn3 2.035 . S
O10 Zn3 2.028 . S
O10 C13 1.245 . S
O11 Zn5 2.035 . S
O11 C13 1.260 1_545 S
C12 O6 1.251 . S
C12 O7 1.253 1_545 S
C13 O10 1.245 . S
C13 O11 1.260 1_565 S
C14 O16 1.246 . S
C14 O18 1.259 1_655 S
C15 O22 1.251 . S
C15 O23 1.254 1_455 S
O16 C14 1.246 . S
O16 Zn17 2.028 . S
Zn17 O16 2.028 . S
Zn17 O21 2.035 . S
Zn17 O23 2.035 . S
Zn17 O24 2.028 . S
O18 C14 1.259 1_455 S
O18 Zn19 2.035 . S
Zn19 O18 2.035 . S
Zn19 O20 2.028 . S
Zn19 O22 2.028 . S
Zn19 O25 2.035 . S
O20 Zn19 2.028 . S
O20 C26 1.251 . S
O21 Zn17 2.035 . S
O21 C26 1.254 1_655 S
O22 C15 1.251 . S
O22 Zn19 2.028 . S
O23 C15 1.254 1_655 S
O23 Zn17 2.035 . S
O24 Zn17 2.028 . S
O24 C27 1.246 . S
O25 Zn19 2.035 . S
O25 C27 1.259 1_455 S
C26 O20 1.251 . S
C26 O21 1.254 1_455 S
C27 O24 1.246 . S
C27 O25 1.259 1_655 S
O28 Cd29 2.223 1_655 S
O28 C36 1.315 . S
Cd29 O28 2.223 1_455 S
Cd29 O32 2.297 1_455 S
Cd29 O33 2.439 1_455 S
Cd29 O39 2.240 1_565 S
Cd30 O31 2.240 1_545 S
Cd30 O38 2.223 1_655 S
Cd30 O40 2.297 1_655 S
Cd30 O41 2.439 1_655 S
O31 Cd30 2.240 1_565 S
O31 C36 1.279 . S
O32 Cd29 2.297 1_655 S
O32 C34 1.247 . S
O33 Cd29 2.439 1_655 S
O33 C34 1.208 . S
C34 O32 1.247 . S
C34 O33 1.208 . S
C35 O40 1.247 . S
C35 O41 1.208 . S
C36 O28 1.315 . S
C36 O31 1.279 . S
C37 O38 1.315 . S
C37 O39 1.279 . S
O38 Cd30 2.223 1_455 S
O38 C37 1.315 . S
O39 Cd29 2.240 1_545 S
O39 C37 1.279 . S
O40 Cd30 2.297 1_455 S
O40 C35 1.247 . S
O41 Cd30 2.439 1_455 S
O41 C35 1.208 . S
O42 Cd43 2.223 1_655 S
O42 C50 1.315 . S
Cd43 O42 2.223 1_455 S
Cd43 O46 2.297 1_455 S
Cd43 O47 2.439 1_455 S
Cd43 O53 2.240 1_545 S
Cd44 O45 2.240 1_565 S
Cd44 O52 2.223 1_655 S
Cd44 O54 2.297 1_655 S
Cd44 O55 2.439 1_655 S
O45 Cd44 2.240 1_545 S
O45 C50 1.279 . S
O46 Cd43 2.297 1_655 S
O46 C48 1.247 . S
O47 Cd43 2.439 1_655 S
O47 C48 1.208 . S
C48 O46 1.247 . S
C48 O47 1.208 . S
C49 O54 1.247 . S
C49 O55 1.208 . S
C50 O42 1.315 . S
C50 O45 1.279 . S
C51 O52 1.315 . S
C51 O53 1.279 . S
O52 Cd44 2.223 1_455 S
O52 C51 1.315 . S
O53 Cd43 2.240 1_565 S
O53 C51 1.279 . S
O54 Cd44 2.297 1_455 S
O54 C49 1.247 . S
O55 Cd44 2.439 1_455 S
O55 C49 1.208 . S
H56 C64 0.929 . S
H57 C66 0.930 . S
H58 C68 0.930 . S
H59 C71 0.929 . S
H60 C74 0.930 . S
H61 C76 0.960 . S
H62 C76 0.960 . S
H63 C76 0.960 . S
C64 H56 0.929 . S
C64 C65 1.371 1_565 S
C64 C66 1.384 . S
C65 C64 1.371 1_545 S
C65 C71 1.397 . S
C66 H57 0.930 . S
C66 C64 1.384 . S
C66 C67 1.372 1_565 S
C67 C66 1.372 1_545 S
C67 C68 1.400 . S
C67 C72 1.490 . S
C68 H58 0.930 . S
C68 C67 1.400 . S
C68 C71 1.386 . S
H69 C85 0.930 . S
H70 C86 0.931 . S
C71 H59 0.929 . S
C71 C65 1.397 . S
C71 C68 1.386 . S
C72 C67 1.490 . S
C72 C74 1.395 . S
C72 C75 1.403 1_545 S
H73 C79 0.930 . S
C74 H60 0.930 . S
C74 C72 1.395 . S
C74 C77 1.403 . S
C75 C72 1.403 1_565 S
C75 C76 1.524 . S
C75 C79 1.400 . S
C76 H61 0.960 . S
C76 H62 0.960 . S
C76 H63 0.960 . S
C76 C75 1.524 . S
C77 C74 1.403 . S
C77 C78 1.392 . S
C77 C81 1.495 . S
C78 C77 1.392 . S
C78 C79 1.385 1_545 S
C78 C80 1.478 . S
C79 H73 0.930 . S
C79 C75 1.400 . S
C79 C78 1.385 1_565 S
C80 C78 1.478 . S
C80 C82 1.381 . S
C80 C86 1.383 . S
C81 C77 1.495 . S
C81 H87 0.959 . S
C81 H88 0.961 . S
C81 H89 0.960 . S
C82 C80 1.381 . S
C82 C83 1.394 . S
C82 H90 0.930 1_545 S
C83 C82 1.394 . S
C83 C84 1.383 . S
C83 H91 0.929 1_545 S
C84 C83 1.383 . S
C84 C85 1.377 . S
C85 H69 0.930 . S
C85 C84 1.377 . S
C85 C86 1.379 . S
C86 H70 0.931 . S
C86 C80 1.383 . S
C86 C85 1.379 . S
H87 C81 0.959 . S
H88 C81 0.961 . S
H89 C81 0.960 . S
H90 C82 0.930 1_565 S
H91 C83 0.929 1_565 S
H92 C100 0.929 . S
H93 C102 0.930 . S
H94 C104 0.930 . S
H95 C107 0.929 . S
H96 C110 0.930 . S
H97 C112 0.960 . S
H98 C112 0.960 . S
H99 C112 0.960 . S
C100 H92 0.929 . S
C100 C101 1.377 . S
C100 C102 1.384 . S
C101 C100 1.377 . S
C101 C107 1.390 1_655 S
C102 H93 0.930 . S
C102 C100 1.384 . S
C102 C103 1.372 . S
C103 C102 1.372 . S
C103 C104 1.400 1_655 S
C103 C108 1.490 . S
C104 H94 0.930 . S
C104 C103 1.400 1_455 S
C104 C107 1.386 . S
H105 C121 0.930 . S
H106 C122 0.931 . S
C107 H95 0.929 . S
C107 C101 1.390 1_455 S
C107 C104 1.386 . S
C108 C103 1.490 . S
C108 C110 1.395 . S
C108 C111 1.403 1_655 S
H109 C115 0.930 1_455 S
C110 H96 0.930 . S
C110 C108 1.395 . S
C110 C113 1.403 . S
C111 C108 1.403 1_455 S
C111 C112 1.524 . S
C111 C115 1.400 1_455 S
C112 H97 0.960 . S
C112 H98 0.960 . S
C112 H99 0.960 . S
C112 C111 1.524 . S
C113 C110 1.403 . S
C113 C114 1.392 . S
C113 C117 1.495 . S
C114 C113 1.392 . S
C114 C115 1.385 . S
C114 C116 1.478 . S
C115 H109 0.930 1_655 S
C115 C111 1.400 1_655 S
C115 C114 1.385 . S
C116 C114 1.478 . S
C116 C118 1.381 . S
C116 C122 1.383 1_655 S
C117 C113 1.495 . S
C117 H123 0.959 . S
C117 H124 0.961 . S
C117 H125 0.960 . S
C118 C116 1.381 . S
C118 C119 1.394 . S
C118 H126 0.930 . S
C119 C118 1.394 . S
C119 C120 1.383 . S
C119 H127 0.929 . S
C120 C119 1.383 . S
C120 C121 1.377 1_655 S
C121 H105 0.930 . S
C121 C120 1.377 1_455 S
C121 C122 1.379 . S
C122 H106 0.931 . S
C122 C116 1.383 1_455 S
C122 C121 1.379 . S
H123 C117 0.959 . S
H124 C117 0.961 . S
H125 C117 0.960 . S
H126 C118 0.930 . S
H127 C119 0.929 . S
H128 C136 0.929 . S
H129 C138 0.930 . S
H130 C140 0.930 . S
H131 C143 0.929 . S
H132 C146 0.930 . S
H133 C148 0.960 . S
H134 C148 0.960 . S
H135 C148 0.960 1_545 S
C136 H128 0.929 . S
C136 C137 1.377 . S
C136 C138 1.384 . S
C137 C136 1.377 . S
C137 C143 1.390 1_565 S
C138 H129 0.930 . S
C138 C136 1.384 . S
C138 C139 1.372 . S
C139 C138 1.372 . S
C139 C140 1.400 1_565 S
C139 C144 1.490 . S
C140 H130 0.930 . S
C140 C139 1.400 1_545 S
C140 C143 1.386 . S
H141 C157 0.930 . S
H142 C158 0.931 . S
C143 H131 0.929 . S
C143 C137 1.390 1_545 S
C143 C140 1.386 . S
C144 C139 1.490 . S
C144 C146 1.395 . S
C144 C147 1.403 . S
H145 C151 0.930 . S
C146 H132 0.930 . S
C146 C144 1.395 . S
C146 C149 1.403 . S
C147 C144 1.403 . S
C147 C148 1.524 . S
C147 C151 1.400 . S
C148 H133 0.960 . S
C148 H134 0.960 . S
C148 H135 0.960 1_565 S
C148 C147 1.524 . S
C149 C146 1.403 . S
C149 C150 1.392 . S
C149 C153 1.495 . S
C150 C149 1.392 . S
C150 C151 1.385 . S
C150 C152 1.478 . S
C151 H145 0.930 . S
C151 C147 1.400 . S
C151 C150 1.385 . S
C152 C150 1.478 . S
C152 C154 1.381 . S
C152 C158 1.383 1_565 S
C153 C149 1.495 . S
C153 H159 0.959 . S
C153 H160 0.983 . S
C153 H161 0.960 . S
C154 C152 1.381 . S
C154 C155 1.394 . S
C154 H162 0.930 . S
C155 C154 1.394 . S
C155 C156 1.383 . S
C155 H163 0.929 . S
C156 C155 1.383 . S
C156 C157 1.377 1_565 S
C157 H141 0.930 . S
C157 C156 1.377 1_545 S
C157 C158 1.379 . S
C158 H142 0.931 . S
C158 C152 1.383 1_545 S
C158 C157 1.379 . S
H159 C153 0.959 . S
H160 C153 0.983 . S
H161 C153 0.960 . S
H162 C154 0.930 . S
H163 C155 0.929 . S
H164 C172 0.929 . S
H165 C174 0.930 . S
H166 C176 0.930 . S
H167 C179 0.929 . S
H168 C182 0.930 . S
H169 C184 0.960 . S
H170 C184 0.960 . S
H171 C184 0.960 1_655 S
C172 H164 0.929 . S
C172 C173 1.377 . S
C172 C174 1.384 . S
C173 C172 1.377 . S
C173 C179 1.390 1_455 S
C174 H165 0.930 . S
C174 C172 1.384 . S
C174 C175 1.372 . S
C175 C174 1.372 . S
C175 C176 1.400 1_455 S
C175 C180 1.490 . S
C176 H166 0.930 . S
C176 C175 1.400 1_655 S
C176 C179 1.386 . S
H177 C193 0.930 . S
H178 C194 0.931 . S
C179 H167 0.929 . S
C179 C173 1.390 1_655 S
C179 C176 1.386 . S
C180 C175 1.490 . S
C180 C182 1.395 . S
C180 C183 1.403 . S
H181 C187 0.930 . S
C182 H168 0.930 . S
C182 C180 1.395 . S
C182 C185 1.403 . S
C183 C180 1.403 . S
C183 C184 1.524 . S
C183 C187 1.400 . S
C184 H169 0.960 . S
C184 H170 0.960 . S
C184 H171 0.960 1_455 S
C184 C183 1.524 . S
C185 C182 1.403 . S
C185 C186 1.392 . S
C185 C189 1.495 . S
C186 C185 1.392 . S
C186 C187 1.385 . S
C186 C188 1.478 . S
C187 H181 0.930 . S
C187 C183 1.400 . S
C187 C186 1.385 . S
C188 C186 1.478 . S
C188 C190 1.381 . S
C188 C194 1.383 1_455 S
C189 C185 1.495 . S
C189 H195 0.959 . S
C189 H196 0.961 1_455 S
C189 H197 0.960 . S
C190 C188 1.381 . S
C190 C191 1.394 . S
C190 H198 0.930 . S
C191 C190 1.394 . S
C191 C192 1.383 . S
C191 H199 0.929 . S
C192 C191 1.383 . S
C192 C193 1.377 1_455 S
C193 H177 0.930 . S
C193 C192 1.377 1_655 S
C193 C194 1.379 . S
C194 H178 0.931 . S
C194 C188 1.383 1_655 S
C194 C193 1.379 . S
H195 C189 0.959 . S
H196 C189 0.961 1_655 S
H197 C189 0.960 . S
H198 C190 0.930 . S
H199 C191 0.929 . S
H200 C208 0.929 . S
H201 C210 0.930 . S
H202 C212 0.930 . S
H203 C215 0.929 . S
H204 C218 0.930 . S
H205 C220 0.960 . S
H206 C220 0.960 . S
H207 C220 0.960 . S
C208 H200 0.929 . S
C208 C209 1.370 1_545 S
C208 C210 1.384 . S
C209 C208 1.370 1_565 S
C209 C215 1.398 . S
C210 H201 0.930 . S
C210 C208 1.384 . S
C210 C211 1.372 1_545 S
C211 C210 1.372 1_565 S
C211 C212 1.400 . S
C211 C216 1.490 . S
C212 H202 0.930 . S
C212 C211 1.400 . S
C212 C215 1.386 . S
H213 C229 0.930 . S
H214 C230 0.931 . S
C215 H203 0.929 . S
C215 C209 1.398 . S
C215 C212 1.386 . S
C216 C211 1.490 . S
C216 C218 1.395 . S
C216 C219 1.403 1_565 S
H217 C223 0.930 . S
C218 H204 0.930 . S
C218 C216 1.395 . S
C218 C221 1.403 . S
C219 C216 1.403 1_545 S
C219 C220 1.524 . S
C219 C223 1.400 . S
C220 H205 0.960 . S
C220 H206 0.960 . S
C220 H207 0.960 . S
C220 C219 1.524 . S
C221 C218 1.403 . S
C221 C222 1.392 . S
C221 C225 1.495 . S
C222 C221 1.392 . S
C222 C223 1.385 1_565 S
C222 C224 1.478 . S
C223 H217 0.930 . S
C223 C219 1.400 . S
C223 C222 1.385 1_545 S
C224 C222 1.478 . S
C224 C226 1.380 . S
C224 C230 1.383 . S
C225 C221 1.495 . S
C225 H231 0.959 . S
C225 H232 0.961 . S
C225 H233 0.960 . S
C226 C224 1.380 . S
C226 C227 1.394 . S
C226 H234 0.931 1_565 S
C227 C226 1.394 . S
C227 C228 1.396 . S
C227 H235 0.917 1_565 S
C228 C227 1.396 . S
C228 C229 1.377 . S
C229 H213 0.930 . S
C229 C228 1.377 . S
C229 C230 1.379 . S
C230 H214 0.931 . S
C230 C224 1.383 . S
C230 C229 1.379 . S
H231 C225 0.959 . S
H232 C225 0.961 . S
H233 C225 0.960 . S
H234 C226 0.931 1_545 S
H235 C227 0.917 1_545 S
H236 C244 0.929 . S
H237 C246 0.930 . S
H238 C248 0.930 . S
H239 C251 0.929 . S
H240 C254 0.930 . S
H241 C256 0.960 . S
H242 C256 0.960 . S
H243 C256 0.960 . S
C244 H236 0.929 . S
C244 C245 1.377 . S
C244 C246 1.384 . S
C245 C244 1.377 . S
C245 C251 1.390 1_455 S
C246 H237 0.930 . S
C246 C244 1.384 . S
C246 C247 1.372 . S
C247 C246 1.372 . S
C247 C248 1.399 1_455 S
C247 C252 1.490 . S
C248 H238 0.930 . S
C248 C247 1.399 1_655 S
C248 C251 1.386 . S
H249 C265 0.930 . S
H250 C266 0.931 . S
C251 H239 0.929 . S
C251 C245 1.390 1_655 S
C251 C248 1.386 . S
C252 C247 1.490 . S
C252 C254 1.395 . S
C252 C255 1.403 1_455 S
H253 C259 0.930 . S
C254 H240 0.930 . S
C254 C252 1.395 . S
C254 C257 1.403 . S
C255 C252 1.403 1_655 S
C255 C256 1.524 . S
C255 C259 1.400 . S
C256 H241 0.960 . S
C256 H242 0.960 . S
C256 H243 0.960 . S
C256 C255 1.524 . S
C257 C254 1.403 . S
C257 C258 1.392 . S
C257 C261 1.495 . S
C258 C257 1.392 . S
C258 C259 1.385 1_455 S
C258 C260 1.478 . S
C259 H253 0.930 . S
C259 C255 1.400 . S
C259 C258 1.385 1_655 S
C260 C258 1.478 . S
C260 C262 1.381 . S
C260 C266 1.383 . S
C261 C257 1.495 . S
C261 H267 0.959 . S
C261 H268 0.961 . S
C261 H269 0.960 . S
C262 C260 1.381 . S
C262 C263 1.394 . S
C262 H270 0.930 . S
C263 C262 1.394 . S
C263 C264 1.383 . S
C263 H271 0.929 . S
C264 C263 1.383 . S
C264 C265 1.377 . S
C265 H249 0.930 . S
C265 C264 1.377 . S
C265 C266 1.379 . S
C266 H250 0.931 . S
C266 C260 1.383 . S
C266 C265 1.379 . S
H267 C261 0.959 . S
H268 C261 0.961 . S
H269 C261 0.960 . S
H270 C262 0.930 . S
H271 C263 0.929 . S
H272 C280 0.929 . S
H273 C282 0.930 . S
H274 C284 0.930 . S
H275 C287 0.929 . S
H276 C290 0.930 . S
H277 C292 0.960 . S
H278 C292 0.960 1_545 S
H279 C292 0.960 . S
C280 H272 0.929 . S
C280 C281 1.377 . S
C280 C282 1.384 . S
C281 C280 1.377 . S
C281 C287 1.390 1_545 S
C282 H273 0.930 . S
C282 C280 1.384 . S
C282 C283 1.372 . S
C283 C282 1.372 . S
C283 C284 1.400 1_545 S
C283 C288 1.490 . S
C284 H274 0.930 . S
C284 C283 1.400 1_565 S
C284 C287 1.386 . S
H285 C301 0.930 . S
H286 C302 0.931 . S
C287 H275 0.929 . S
C287 C281 1.390 1_565 S
C287 C284 1.386 . S
C288 C283 1.490 . S
C288 C290 1.395 . S
C288 C291 1.403 . S
H289 C295 0.930 . S
C290 H276 0.930 . S
C290 C288 1.395 . S
C290 C293 1.403 . S
C291 C288 1.403 . S
C291 C292 1.524 1_545 S
C291 C295 1.400 . S
C292 H277 0.960 . S
C292 H278 0.960 1_565 S
C292 H279 0.960 . S
C292 C291 1.524 1_565 S
C293 C290 1.403 . S
C293 C294 1.392 . S
C293 C297 1.495 . S
C294 C293 1.392 . S
C294 C295 1.385 . S
C294 C296 1.478 . S
C295 H289 0.930 . S
C295 C291 1.400 . S
C295 C294 1.385 . S
C296 C294 1.478 . S
C296 C298 1.381 . S
C296 C302 1.383 1_545 S
C297 C293 1.495 . S
C297 H303 0.959 . S
C297 H304 0.961 . S
C297 H305 0.960 . S
C298 C296 1.381 . S
C298 C299 1.394 . S
C298 H306 0.930 . S
C299 C298 1.394 . S
C299 C300 1.383 . S
C299 H307 0.929 . S
C300 C299 1.383 . S
C300 C301 1.377 1_545 S
C301 H285 0.930 . S
C301 C300 1.377 1_565 S
C301 C302 1.379 . S
C302 H286 0.931 . S
C302 C296 1.383 1_565 S
C302 C301 1.379 . S
H303 C297 0.959 . S
H304 C297 0.961 . S
H305 C297 0.960 . S
H306 C298 0.930 . S
H307 C299 0.929 . S
H308 C316 0.929 . S
H309 C318 0.930 . S
H310 C320 0.930 . S
H311 C323 0.929 . S
H312 C326 0.930 . S
H313 C328 0.960 . S
H314 C328 0.960 . S
H315 C328 0.960 . S
C316 H308 0.929 . S
C316 C317 1.377 . S
C316 C318 1.384 . S
C317 C316 1.377 . S
C317 C323 1.390 1_655 S
C318 H309 0.930 . S
C318 C316 1.384 . S
C318 C319 1.372 . S
C319 C318 1.372 . S
C319 C320 1.400 1_655 S
C319 C324 1.490 . S
C320 H310 0.930 . S
C320 C319 1.400 1_455 S
C320 C323 1.386 . S
H321 C337 0.930 . S
H322 C338 0.931 . S
C323 H311 0.929 . S
C323 C317 1.390 1_455 S
C323 C320 1.386 . S
C324 C319 1.490 . S
C324 C326 1.395 . S
C324 C327 1.403 1_655 S
H325 C331 0.930 . S
C326 H312 0.930 . S
C326 C324 1.395 . S
C326 C329 1.403 . S
C327 C324 1.403 1_455 S
C327 C328 1.524 . S
C327 C331 1.400 . S
C328 H313 0.960 . S
C328 H314 0.960 . S
C328 H315 0.960 . S
C328 C327 1.524 . S
C329 C326 1.403 . S
C329 C330 1.392 . S
C329 C333 1.495 . S
C330 C329 1.392 . S
C330 C331 1.385 1_655 S
C330 C332 1.478 . S
C331 H325 0.930 . S
C331 C327 1.400 . S
C331 C330 1.385 1_455 S
C332 C330 1.478 . S
C332 C334 1.381 . S
C332 C338 1.383 . S
C333 C329 1.495 . S
C333 H339 0.959 . S
C333 H340 0.961 . S
C333 H341 0.960 . S
C334 C332 1.381 . S
C334 C335 1.394 . S
C334 H342 0.930 . S
C335 C334 1.394 . S
C335 C336 1.383 . S
C335 H343 0.929 . S
C336 C335 1.383 . S
C336 C337 1.377 . S
C337 H321 0.930 . S
C337 C336 1.377 . S
C337 C338 1.379 . S
C338 H322 0.931 . S
C338 C332 1.383 . S
C338 C337 1.379 . S
H339 C333 0.959 . S
H340 C333 0.961 . S
H341 C333 0.960 . S
H342 C334 0.930 . S
H343 C335 0.929 . S
C84 C37 1.537 . S
C65 C13 1.537 1_545 S
C120 C48 1.518 . S
C101 C15 1.553 1_655 S
C156 C36 1.542 . S
C137 C1 1.540 1_565 S
C192 C49 1.508 . S
C173 C27 1.554 1_455 S
C228 C51 1.537 . S
C209 C0 1.544 . S
C264 C35 1.515 . S
C245 C26 1.554 . S
C300 C50 1.542 . S
C281 C12 1.547 . S
C317 C14 1.554 . S
C336 C34 1.521 . S
