# Generated by pormake.
# Topology soc, (4,6)-cn, num edge types: 1
# Building blocks:
#     Node 0, Type 0, BuildingBlock: ESEHIV_clean_sbu_0, # of connection points: 4
#     Node 1, Type 0, BuildingBlock: ESEHIV_clean_sbu_0, # of connection points: 4
#     Node 2, Type 0, BuildingBlock: ESEHIV_clean_sbu_0, # of connection points: 4
#     Node 3, Type 0, BuildingBlock: ESEHIV_clean_sbu_0, # of connection points: 4
#     Node 4, Type 0, BuildingBlock: ESEHIV_clean_sbu_0, # of connection points: 4
#     Node 5, Type 0, BuildingBlock: ESEHIV_clean_sbu_0, # of connection points: 4
#     Node 6, Type 0, BuildingBlock: ESEHIV_clean_sbu_0, # of connection points: 4
#     Node 7, Type 0, BuildingBlock: ESEHIV_clean_sbu_0, # of connection points: 4
#     Node 8, Type 0, BuildingBlock: ESEHIV_clean_sbu_0, # of connection points: 4
#     Node 9, Type 0, BuildingBlock: ESEHIV_clean_sbu_0, # of connection points: 4
#     Node 10, Type 0, BuildingBlock: ESEHIV_clean_sbu_0, # of connection points: 4
#     Node 11, Type 0, BuildingBlock: ESEHIV_clean_sbu_0, # of connection points: 4
#     Node 12, Type 1, BuildingBlock: MIFKUJ_clean_sbu_0, # of connection points: 6
#     Node 13, Type 1, BuildingBlock: MIFKUJ_clean_sbu_0, # of connection points: 6
#     Node 14, Type 1, BuildingBlock: MIFKUJ_clean_sbu_0, # of connection points: 6
#     Node 15, Type 1, BuildingBlock: MIFKUJ_clean_sbu_0, # of connection points: 6
#     Node 16, Type 1, BuildingBlock: MIFKUJ_clean_sbu_0, # of connection points: 6
#     Node 17, Type 1, BuildingBlock: MIFKUJ_clean_sbu_0, # of connection points: 6
#     Node 18, Type 1, BuildingBlock: MIFKUJ_clean_sbu_0, # of connection points: 6
#     Node 19, Type 1, BuildingBlock: MIFKUJ_clean_sbu_0, # of connection points: 6
#     Edge 20, Type (0, 1), BuildingBlock: UVAHIK_clean_linker_0, # of connection points: 2
#     Edge 21, Type (0, 1), BuildingBlock: UVAHIK_clean_linker_0, # of connection points: 2
#     Edge 22, Type (0, 1), BuildingBlock: UVAHIK_clean_linker_0, # of connection points: 2
#     Edge 23, Type (0, 1), BuildingBlock: UVAHIK_clean_linker_0, # of connection points: 2
#     Edge 24, Type (0, 1), BuildingBlock: UVAHIK_clean_linker_0, # of connection points: 2
#     Edge 25, Type (0, 1), BuildingBlock: UVAHIK_clean_linker_0, # of connection points: 2
#     Edge 26, Type (0, 1), BuildingBlock: UVAHIK_clean_linker_0, # of connection points: 2
#     Edge 27, Type (0, 1), BuildingBlock: UVAHIK_clean_linker_0, # of connection points: 2
#     Edge 28, Type (0, 1), BuildingBlock: UVAHIK_clean_linker_0, # of connection points: 2
#     Edge 29, Type (0, 1), BuildingBlock: UVAHIK_clean_linker_0, # of connection points: 2
#     Edge 30, Type (0, 1), BuildingBlock: UVAHIK_clean_linker_0, # of connection points: 2
#     Edge 31, Type (0, 1), BuildingBlock: UVAHIK_clean_linker_0, # of connection points: 2
#     Edge 32, Type (0, 1), BuildingBlock: UVAHIK_clean_linker_0, # of connection points: 2
#     Edge 33, Type (0, 1), BuildingBlock: UVAHIK_clean_linker_0, # of connection points: 2
#     Edge 34, Type (0, 1), BuildingBlock: UVAHIK_clean_linker_0, # of connection points: 2
#     Edge 35, Type (0, 1), BuildingBlock: UVAHIK_clean_linker_0, # of connection points: 2
#     Edge 36, Type (0, 1), BuildingBlock: UVAHIK_clean_linker_0, # of connection points: 2
#     Edge 37, Type (0, 1), BuildingBlock: UVAHIK_clean_linker_0, # of connection points: 2
#     Edge 38, Type (0, 1), BuildingBlock: UVAHIK_clean_linker_0, # of connection points: 2
#     Edge 39, Type (0, 1), BuildingBlock: UVAHIK_clean_linker_0, # of connection points: 2
#     Edge 40, Type (0, 1), BuildingBlock: UVAHIK_clean_linker_0, # of connection points: 2
#     Edge 41, Type (0, 1), BuildingBlock: UVAHIK_clean_linker_0, # of connection points: 2
#     Edge 42, Type (0, 1), BuildingBlock: UVAHIK_clean_linker_0, # of connection points: 2
#     Edge 43, Type (0, 1), BuildingBlock: UVAHIK_clean_linker_0, # of connection points: 2
#     Edge 44, Type (0, 1), BuildingBlock: UVAHIK_clean_linker_0, # of connection points: 2
#     Edge 45, Type (0, 1), BuildingBlock: UVAHIK_clean_linker_0, # of connection points: 2
#     Edge 46, Type (0, 1), BuildingBlock: UVAHIK_clean_linker_0, # of connection points: 2
#     Edge 47, Type (0, 1), BuildingBlock: UVAHIK_clean_linker_0, # of connection points: 2
#     Edge 48, Type (0, 1), BuildingBlock: UVAHIK_clean_linker_0, # of connection points: 2
#     Edge 49, Type (0, 1), BuildingBlock: UVAHIK_clean_linker_0, # of connection points: 2
#     Edge 50, Type (0, 1), BuildingBlock: UVAHIK_clean_linker_0, # of connection points: 2
#     Edge 51, Type (0, 1), BuildingBlock: UVAHIK_clean_linker_0, # of connection points: 2
#     Edge 52, Type (0, 1), BuildingBlock: UVAHIK_clean_linker_0, # of connection points: 2
#     Edge 53, Type (0, 1), BuildingBlock: UVAHIK_clean_linker_0, # of connection points: 2
#     Edge 54, Type (0, 1), BuildingBlock: UVAHIK_clean_linker_0, # of connection points: 2
#     Edge 55, Type (0, 1), BuildingBlock: UVAHIK_clean_linker_0, # of connection points: 2
#     Edge 56, Type (0, 1), BuildingBlock: UVAHIK_clean_linker_0, # of connection points: 2
#     Edge 57, Type (0, 1), BuildingBlock: UVAHIK_clean_linker_0, # of connection points: 2
#     Edge 58, Type (0, 1), BuildingBlock: UVAHIK_clean_linker_0, # of connection points: 2
#     Edge 59, Type (0, 1), BuildingBlock: UVAHIK_clean_linker_0, # of connection points: 2
#     Edge 60, Type (0, 1), BuildingBlock: UVAHIK_clean_linker_0, # of connection points: 2
#     Edge 61, Type (0, 1), BuildingBlock: UVAHIK_clean_linker_0, # of connection points: 2
#     Edge 62, Type (0, 1), BuildingBlock: UVAHIK_clean_linker_0, # of connection points: 2
#     Edge 63, Type (0, 1), BuildingBlock: UVAHIK_clean_linker_0, # of connection points: 2
#     Edge 64, Type (0, 1), BuildingBlock: UVAHIK_clean_linker_0, # of connection points: 2
#     Edge 65, Type (0, 1), BuildingBlock: UVAHIK_clean_linker_0, # of connection points: 2
#     Edge 66, Type (0, 1), BuildingBlock: UVAHIK_clean_linker_0, # of connection points: 2
#     Edge 67, Type (0, 1), BuildingBlock: UVAHIK_clean_linker_0, # of connection points: 2
# Relax obj value: 0.092
# Max RMSD: 0.168
# Mean RMSD: 0.134
data_MOF--net-soc--node1-ESEHIV_clean_sbu_0--node2-MIFKUJ_clean_sbu_0--edge1-UVAHIK_clean_linker_0
_symmetry_space_group_name_H-M    P1
_symmetry_Int_Tables_number       1
_symmetry_cell_setting            triclinic
loop_
_symmetry_equiv_pos_as_xyz
'x, y, z'
_cell_length_a     61.03686
_cell_length_b     56.686135
_cell_length_c     55.582563
_cell_angle_alpha  91.228996
_cell_angle_beta   91.564316
_cell_angle_gamma 81.678322
loop_
_atom_site_label
_atom_site_type_symbol
_atom_site_fract_x
_atom_site_fract_y
_atom_site_fract_z
_atom_type_partial_charge
Cu0 Cu 0.01864 0.04027 0.30235 0.0
N1 N 0.03625 0.0582 0.32135 0.0
N2 N 0.06115 0.08325 0.32836 0.0
C3 C 0.05213 0.0692 0.31201 0.0
C4 C 0.05043 0.08073 0.34893 0.0
C5 C 0.03503 0.06547 0.34451 0.0
O6 O 0.03943 0.01983 0.28198 0.0
C7 C 0.97827 0.06127 0.27697 0.0
O8 O 0.97424 0.03946 0.27272 0.0
H9 H 0.05641 0.06723 0.29327 0.0
H10 H 0.02317 0.06104 0.35708 0.0
N11 N 1.00359 0.01954 0.31958 0.0
N12 N 0.98103 0.99232 0.32498 0.0
C13 C 0.99147 1.004 0.30894 0.0
C14 C 1.00144 0.01685 0.3434 0.0
C15 C 0.98749 1.00008 0.34678 0.0
C16 C 0.05496 0.00741 0.294 0.0
O17 O 0.05531 0.00932 0.31758 0.0
H18 H 0.99034 1.00119 0.28968 0.0
H19 H 1.00909 0.02651 0.35742 0.0
O20 O 0.99674 0.06457 0.2868 0.0
H21 H 0.05274 0.08998 0.36582 0.0
H22 H 0.98189 0.9947 0.36386 0.0
Cu23 Cu 1.01094 0.03096 0.70833 0.0
N24 N 0.99447 0.01151 0.68973 0.0
N25 N 0.96909 0.98719 0.68271 0.0
C26 C 0.97822 1.00109 0.69902 0.0
C27 C 0.98019 0.98888 0.66226 0.0
C28 C 0.99584 1.00393 0.66664 0.0
O29 O 0.98891 0.05333 0.72549 0.0
C30 C 0.04691 0.99739 0.71158 0.0
O31 O 0.04424 1.00167 0.68847 0.0
H32 H 0.97362 1.0033 0.71768 0.0
H33 H 1.00755 0.00868 0.65399 0.0
N34 N 0.02731 0.05003 0.69098 0.0
N35 N 0.05313 0.07366 0.68551 0.0
C36 C 0.04328 0.06111 0.70138 0.0
C37 C 0.02677 0.0558 0.66761 0.0
C38 C 0.0427 0.07038 0.66418 0.0
C39 C 0.97476 0.06432 0.71072 0.0
O40 O 0.97715 0.05972 0.68759 0.0
H41 H 0.04734 0.06003 0.72042 0.0
H42 H 0.01567 0.04987 0.65405 0.0
O43 O 0.03304 0.0088 0.72603 0.0
H44 H 0.97723 0.97996 0.64533 0.0
H45 H 0.04643 0.07767 0.64719 0.0
Cu46 Cu 0.32479 0.02343 0.00969 0.0
N47 N 0.31707 0.00713 0.982 0.0
N48 N 0.30611 0.98184 0.95456 0.0
C49 C 0.30417 0.99004 0.97752 0.0
C50 C 0.32062 0.99412 0.94437 0.0
C51 C 0.32731 0.00957 0.96127 0.0
O52 O 0.34306 1.00079 0.03084 0.0
C53 C 0.3208 0.06399 0.9848 0.0
O54 O 0.3007 0.05839 0.98554 0.0
H55 H 0.29412 0.98325 0.99073 0.0
H56 H 0.33977 0.02102 0.95894 0.0
N57 N 0.30132 0.03629 0.02873 0.0
N58 N 0.28615 0.0586 0.05901 0.0
C59 C 0.30506 0.04829 0.04909 0.0
C60 C 0.27916 0.0387 0.02564 0.0
C61 C 0.26969 0.05281 0.04433 0.0
C62 C 0.33177 0.98548 0.03888 0.0
O63 O 0.31095 0.98647 0.03198 0.0
H64 H 0.32149 0.05056 0.05571 0.0
H65 H 0.27063 0.03169 0.01038 0.0
O66 O 0.33637 0.05083 0.99615 0.0
H67 H 0.32705 0.99103 0.92644 0.0
H68 H 0.25221 0.05885 0.0466 0.0
Cu69 Cu 0.02954 0.33535 0.0135 0.0
N70 N 0.04616 0.35239 0.99425 0.0
N71 N 0.07016 0.35765 0.9659 0.0
C72 C 0.05873 0.34215 0.97631 0.0
C73 C 0.06421 0.3787 0.9774 0.0
C74 C 0.04942 0.37539 0.99497 0.0
O75 O 0.04947 0.31842 0.03789 0.0
C76 C 0.99799 0.33266 0.97891 0.0
O77 O 0.99954 0.35549 0.98123 0.0
H78 H 0.05968 0.32349 0.97125 0.0
H79 H 0.04204 0.38873 0.00759 0.0
N80 N 1.0085 0.35423 0.03197 0.0
N81 N 0.97943 0.36006 0.05607 0.0
C82 C 0.99169 0.34476 0.04117 0.0
C83 C 1.0069 0.37651 0.04131 0.0
C84 C 0.98879 0.38023 0.05609 0.0
C85 C 0.07001 0.31058 0.03568 0.0
O86 O 0.07857 0.30886 0.0142 0.0
H87 H 0.98893 0.32661 0.03736 0.0
H88 H 0.01849 0.38883 0.03858 0.0
O89 O 1.01136 0.31802 0.99146 0.0
H90 H 0.07071 0.39506 0.97399 0.0
H91 H 0.98362 0.39605 0.06693 0.0
Cu92 Cu 0.70117 0.0285 0.99516 0.0
N93 N 0.71221 0.04467 0.9703 0.0
N94 N 0.71904 0.07456 0.94754 0.0
C95 C 0.71827 0.06665 0.9702 0.0
C96 C 0.7134 0.0571 0.93294 0.0
C97 C 0.70902 0.03894 0.94696 0.0
O98 O 0.68501 0.05248 0.0167 0.0
C99 C 0.69929 0.98684 0.96955 0.0
O100 O 0.72038 0.98517 0.97553 0.0
H101 H 0.71994 0.07754 0.98617 0.0
H102 H 0.70152 0.02392 0.94051 0.0
N103 N 0.72293 0.01142 0.01469 0.0
N104 N 0.73618 0.98586 0.0433 0.0
C105 C 0.71797 0.99665 0.03159 0.0
C106 C 0.74511 0.01011 0.01551 0.0
C107 C 0.75337 0.99429 0.03324 0.0
C108 C 0.69805 0.063 0.03018 0.0
O109 O 0.71951 0.05756 0.02769 0.0
H110 H 0.70122 0.99348 0.03462 0.0
H111 H 0.75452 0.01986 0.00403 0.0
O112 O 0.68598 1.00445 0.97799 0.0
H113 H 0.71103 0.05819 0.91359 0.0
H114 H 0.77065 0.98946 0.03829 0.0
Cu115 Cu 0.02212 0.71641 7e-05 0.0
N116 N 1.00792 0.6998 0.97715 0.0
N117 N 0.98281 0.69379 0.94886 0.0
C118 C 0.98742 0.70682 0.96839 0.0
C119 C 1.00102 0.67754 0.94559 0.0
C120 C 0.01658 0.68138 0.96313 0.0
O121 O 1.00194 0.72891 0.02488 0.0
C122 C 0.03385 0.74703 0.96369 0.0
O123 O 0.01506 0.74432 0.95264 0.0
H124 H 0.97664 0.72205 0.97547 0.0
H125 H 0.03343 0.6724 0.96468 0.0
N126 N 0.04385 0.69606 0.01563 0.0
N127 N 0.07272 0.69041 0.04108 0.0
C128 C 0.06266 0.70365 0.02311 0.0
C129 C 0.04207 0.6768 0.02877 0.0
C130 C 0.06011 0.67316 0.04453 0.0
C131 C 0.98638 0.7464 0.02455 0.0
O132 O 0.98296 0.75985 0.00547 0.0
H133 H 0.0674 0.72034 0.01752 0.0
H134 H 0.02756 0.6679 0.02889 0.0
O135 O 0.03784 0.73917 0.98485 0.0
H136 H 1.0035 0.66493 0.93068 0.0
H137 H 0.06234 0.6607 0.05919 0.0
Cu138 Cu 0.51273 0.53129 0.80493 0.0
N139 N 0.52964 0.54978 0.82405 0.0
N140 N 0.55201 0.57733 0.83104 0.0
C141 C 0.5365 0.56972 0.81619 0.0
C142 C 0.55438 0.56197 0.84949 0.0
C143 C 0.54062 0.54496 0.8451 0.0
O144 O 0.53343 0.50828 0.78615 0.0
C145 C 0.47507 0.55267 0.77402 0.0
O146 O 0.47329 0.53148 0.76481 0.0
H147 H 0.53125 0.57744 0.79897 0.0
H148 H 0.53982 0.52942 0.85576 0.0
N149 N 0.49726 0.51241 0.82367 0.0
N150 N 0.47268 0.48789 0.83133 0.0
C151 C 0.4771 0.50641 0.81828 0.0
C152 C 0.50582 0.49729 0.84097 0.0
C153 C 0.49066 0.48231 0.84588 0.0
C154 C 0.55359 0.51096 0.78297 0.0
O155 O 0.55976 0.5318 0.78782 0.0
H156 H 0.46636 0.51453 0.80412 0.0
H157 H 0.52263 0.49576 0.848 0.0
O158 O 0.49114 0.5552 0.78851 0.0
H159 H 0.56635 0.56193 0.86422 0.0
H160 H 0.49349 0.46719 0.8577 0.0
Cu161 Cu 0.51445 0.53334 0.20966 0.0
N162 N 0.4971 0.514 0.19197 0.0
N163 N 0.47138 0.48988 0.18573 0.0
C164 C 0.48102 0.50367 0.20177 0.0
C165 C 0.48198 0.49162 0.16494 0.0
C166 C 0.49783 0.50648 0.16885 0.0
O167 O 0.4936 0.55574 0.22817 0.0
C168 C 0.55025 0.49958 0.21118 0.0
O169 O 0.5464 0.50379 0.18819 0.0
H170 H 0.47689 0.50589 0.22057 0.0
H171 H 0.50925 0.51113 0.15583 0.0
N172 N 0.52983 0.55259 0.19131 0.0
N173 N 0.55371 0.57811 0.18465 0.0
C174 C 0.54517 0.56498 0.20105 0.0
C175 C 0.52849 0.55798 0.16781 0.0
C176 C 0.5433 0.57366 0.16362 0.0
C177 C 0.47861 0.56692 0.21447 0.0
O178 O 0.47922 0.56223 0.19123 0.0
H179 H 0.54997 0.56423 0.21993 0.0
H180 H 0.51733 0.55138 0.15473 0.0
O181 O 0.5373 0.51128 0.22632 0.0
H182 H 0.47855 0.48288 0.14805 0.0
H183 H 0.54574 0.58162 0.14656 0.0
Cu184 Cu 0.8184 0.53969 0.50588 0.0
N185 N 0.83446 0.55446 0.48389 0.0
N186 N 0.83972 0.57943 0.45481 0.0
C187 C 0.8261 0.57432 0.47202 0.0
C188 C 0.85742 0.56223 0.45589 0.0
C189 C 0.85421 0.5469 0.474 0.0
O190 O 0.80391 0.56455 0.52704 0.0
C191 C 0.80971 0.50583 0.47317 0.0
O192 O 0.83128 0.50473 0.47203 0.0
H193 H 0.80974 0.58402 0.475 0.0
H194 H 0.86498 0.53071 0.47861 0.0
N195 N 0.83574 0.5181 0.52577 0.0
N196 N 0.8422 0.48946 0.55302 0.0
C197 C 0.82672 0.5042 0.54082 0.0
C198 C 0.85781 0.51214 0.5286 0.0
C199 C 0.86186 0.49424 0.54535 0.0
C200 C 0.8177 0.57606 0.53808 0.0
O201 O 0.83886 0.57021 0.53367 0.0
H202 H 0.80903 0.50453 0.5423 0.0
H203 H 0.87009 0.52013 0.51925 0.0
O204 O 0.79918 0.52087 0.48761 0.0
H205 H 0.87133 0.56048 0.44399 0.0
H206 H 0.87793 0.48554 0.5515 0.0
Cu207 Cu 0.50719 0.85039 0.50324 0.0
N208 N 0.52536 0.86665 0.48561 0.0
N209 N 0.55072 0.8705 0.45835 0.0
C210 C 0.53766 0.856 0.46773 0.0
C211 C 0.5464 0.89126 0.4709 0.0
C212 C 0.53065 0.88883 0.48776 0.0
O213 O 0.52464 0.83341 0.52797 0.0
C214 C 0.48549 0.81184 0.48522 0.0
O215 O 0.4863 0.8037 0.50723 0.0
H216 H 0.53753 0.83756 0.46234 0.0
H217 H 0.52388 0.9021 0.50085 0.0
N218 N 0.48483 0.86971 0.51923 0.0
N219 N 0.45617 0.87388 0.544 0.0
C220 C 0.46587 0.86194 0.52488 0.0
C221 C 0.48715 0.88756 0.53497 0.0
C222 C 0.46939 0.89033 0.55014 0.0
C223 C 0.54218 0.81871 0.52546 0.0
O224 O 0.54851 0.81129 0.50386 0.0
H225 H 0.4605 0.84632 0.51652 0.0
H226 H 0.50189 0.896 0.53714 0.0
O227 O 0.49412 0.83026 0.48079 0.0
H228 H 0.5541 0.90701 0.46819 0.0
H229 H 0.46769 0.90185 0.56595 0.0
Cu230 Cu 0.20604 0.55115 0.50431 0.0
N231 N 0.18828 0.57522 0.48774 0.0
N232 N 0.18219 0.60596 0.46273 0.0
C233 C 0.19629 0.59407 0.47889 0.0
C234 C 0.16448 0.59416 0.46146 0.0
C235 C 0.1683 0.57513 0.47695 0.0
O236 O 0.22892 0.56679 0.51968 0.0
C237 C 0.23215 0.51062 0.48158 0.0
O238 O 0.24419 0.50751 0.50151 0.0
H239 H 0.21299 0.5977 0.48265 0.0
H240 H 0.15801 0.56131 0.47888 0.0
N241 N 0.1909 0.53721 0.52769 0.0
N242 N 0.18672 0.512 0.5572 0.0
C243 C 0.19695 0.5152 0.53648 0.0
C244 C 0.17594 0.54828 0.543 0.0
C245 C 0.17326 0.53279 0.56115 0.0
C246 C 0.23683 0.56226 0.54073 0.0
O247 O 0.23333 0.54261 0.55112 0.0
H248 H 0.20975 0.50245 0.52861 0.0
H249 H 0.16881 0.56686 0.54205 0.0
O250 O 0.21645 0.52787 0.48008 0.0
H251 H 0.15026 0.59831 0.44944 0.0
H252 H 0.16342 0.53726 0.57693 0.0
Cu253 Cu 0.4963 0.2393 0.50722 0.0
N254 N 0.51558 0.22078 0.48646 0.0
N255 N 0.54364 0.2136 0.46106 0.0
C256 C 0.53121 0.23003 0.47477 0.0
C257 C 0.53521 0.19312 0.46411 0.0
C258 C 0.51786 0.19761 0.47981 0.0
O259 O 0.51582 0.25649 0.5278 0.0
C260 C 0.46271 0.24184 0.47435 0.0
O261 O 0.46805 0.21901 0.47868 0.0
H262 H 0.53317 0.24866 0.47633 0.0
H263 H 0.50771 0.1849 0.48585 0.0
N264 N 0.48182 0.22136 0.52788 0.0
N265 N 0.45817 0.21429 0.55589 0.0
C266 C 0.46423 0.23046 0.54092 0.0
C267 C 0.48701 0.19854 0.5347 0.0
C268 C 0.47246 0.19415 0.55206 0.0
C269 C 0.53065 0.24187 0.53859 0.0
O270 O 0.53021 0.21897 0.53505 0.0
H271 H 0.45663 0.24892 0.54012 0.0
H272 H 0.50081 0.18618 0.52817 0.0
O273 O 0.47329 0.25647 0.48605 0.0
H274 H 0.54129 0.17601 0.45595 0.0
H275 H 0.47255 0.17754 0.56134 0.0
Zn276 Zn 0.27555 0.31246 0.25077 0.0
Zn277 Zn 0.24826 0.27278 0.26944 0.0
C278 C 0.24834 0.35102 0.27743 0.0
O279 O 0.24236 0.36042 0.25643 0.0
C280 C 0.2778 0.23445 0.24651 0.0
O281 O 0.28355 0.22795 0.26861 0.0
O282 O 0.29606 0.33348 0.23596 0.0
O283 O 0.29563 0.28581 0.26754 0.0
O284 O 0.27069 0.28156 0.29441 0.0
C285 C 0.30535 0.34754 0.24975 0.0
O286 O 0.30136 0.34807 0.27288 0.0
O287 O 0.26085 0.33115 0.27829 0.0
C288 C 0.21769 0.23949 0.26963 0.0
O289 O 0.22033 0.24182 0.24646 0.0
O290 O 0.22841 0.25128 0.28439 0.0
O291 O 0.22761 0.29838 0.25229 0.0
O292 O 0.25198 0.30545 0.22578 0.0
O293 O 0.26415 0.25326 0.24313 0.0
C294 C 0.29082 0.28193 0.28914 0.0
C295 C 0.23207 0.30372 0.23102 0.0
Zn296 Zn 0.75367 0.27969 0.28915 0.0
Zn297 Zn 0.76831 0.27658 0.21496 0.0
C298 C 0.7652 0.30175 0.33518 0.0
O299 O 0.75993 0.28245 0.34484 0.0
C300 C 0.74193 0.25685 0.17685 0.0
O301 O 0.73438 0.27933 0.17268 0.0
O302 O 0.73084 0.26386 0.30599 0.0
O303 O 0.7378 0.29953 0.26255 0.0
O304 O 0.74251 0.30171 0.22342 0.0
C305 C 0.71601 0.27782 0.31694 0.0
O306 O 0.71633 0.30091 0.3162 0.0
O307 O 0.76435 0.30371 0.31241 0.0
C308 C 0.80712 0.27965 0.18854 0.0
O309 O 0.81018 0.25673 0.19301 0.0
O310 O 0.78977 0.29244 0.19612 0.0
O311 O 0.7858 0.258 0.24172 0.0
O312 O 0.78028 0.25546 0.28087 0.0
O313 O 0.7564 0.2518 0.19356 0.0
C314 C 0.73195 0.30868 0.24228 0.0
C315 C 0.79167 0.24953 0.2623 0.0
Zn316 Zn 0.80281 0.7958 0.25108 0.0
Zn317 Zn 0.74339 0.76678 0.25071 0.0
C318 C 0.83785 0.76591 0.22317 0.0
O319 O 0.84046 0.75066 0.24085 0.0
C320 C 0.70784 0.7848 0.27847 0.0
O321 O 0.69879 0.78177 0.25712 0.0
O322 O 0.81488 0.82394 0.26694 0.0
O323 O 0.77299 0.80301 0.23447 0.0
O324 O 0.73931 0.79453 0.22787 0.0
C325 C 0.81976 0.84083 0.25436 0.0
O326 O 0.81454 0.84116 0.23128 0.0
O327 O 0.82352 0.78443 0.22469 0.0
C328 C 0.71775 0.72765 0.25073 0.0
O329 O 0.72165 0.72953 0.27401 0.0
O330 O 0.72648 0.74086 0.23665 0.0
O331 O 0.77629 0.75516 0.25518 0.0
O332 O 0.80133 0.77128 0.27617 0.0
O333 O 0.7287 0.77952 0.28134 0.0
C334 C 0.75414 0.80752 0.224 0.0
C335 C 0.78735 0.75673 0.27474 0.0
Zn336 Zn 0.28216 0.7998 0.27719 0.0
Zn337 Zn 0.26157 0.78751 0.23173 0.0
C338 C 0.25705 0.78078 0.31295 0.0
O339 O 0.26003 0.80122 0.3232 0.0
C340 C 0.28365 0.80843 0.19382 0.0
O341 O 0.28004 0.78862 0.1827 0.0
O342 O 0.30105 0.80937 0.30438 0.0
O343 O 0.30564 0.78256 0.25531 0.0
O344 O 0.28269 0.75876 0.24246 0.0
C345 C 0.31115 0.79146 0.31544 0.0
O346 O 0.3081 0.7699 0.30834 0.0
O347 O 0.2641 0.77602 0.29178 0.0
C348 C 0.22785 0.78757 0.19587 0.0
O349 O 0.22434 0.81044 0.20141 0.0
O350 O 0.24343 0.7742 0.20644 0.0
O351 O 0.2387 0.80453 0.25419 0.0
O352 O 0.26124 0.82912 0.2666 0.0
O353 O 0.27781 0.81188 0.21559 0.0
C354 C 0.30236 0.76216 0.24749 0.0
C355 C 0.24161 0.82512 0.26188 0.0
Zn356 Zn 0.24451 0.7645 0.77229 0.0
Zn357 Zn 0.27162 0.78445 0.73618 0.0
C358 C 0.26664 0.78096 0.81361 0.0
O359 O 0.2648 0.75952 0.82111 0.0
C360 C 0.24981 0.76516 0.69457 0.0
O361 O 0.24864 0.78677 0.68608 0.0
O362 O 0.22351 0.75235 0.79503 0.0
O363 O 0.22412 0.7845 0.74869 0.0
O364 O 0.24724 0.81058 0.7464 0.0
C365 C 0.21048 0.7695 0.80431 0.0
O366 O 0.21267 0.79145 0.79887 0.0
O367 O 0.25964 0.78701 0.7926 0.0
C368 C 0.30374 0.78633 0.70005 0.0
O369 O 0.30312 0.76325 0.69961 0.0
O370 O 0.29165 0.79951 0.71474 0.0
O371 O 0.29168 0.7644 0.7601 0.0
O372 O 0.26857 0.73808 0.76132 0.0
O373 O 0.25805 0.76084 0.7155 0.0
C374 C 0.22749 0.80588 0.74586 0.0
C375 C 0.28836 0.74286 0.76225 0.0
Zn376 Zn 0.25342 0.24924 0.75785 0.0
Zn377 Zn 0.27961 0.3018 0.76675 0.0
C378 C 0.28163 0.20883 0.78031 0.0
O379 O 0.28 0.19871 0.75897 0.0
C380 C 0.25128 0.33777 0.74005 0.0
O381 O 0.24444 0.34378 0.76184 0.0
O382 O 0.23216 0.22784 0.74327 0.0
O383 O 0.23413 0.27558 0.77514 0.0
O384 O 0.25554 0.30088 0.79087 0.0
C385 C 0.22264 0.21498 0.757 0.0
O386 O 0.22712 0.21554 0.78025 0.0
O387 O 0.27241 0.23024 0.78357 0.0
C388 C 0.31196 0.33384 0.76666 0.0
O389 O 0.3086 0.33103 0.7434 0.0
O390 O 0.30154 0.32257 0.78108 0.0
O391 O 0.29728 0.27052 0.75607 0.0
O392 O 0.27239 0.25818 0.73124 0.0
O393 O 0.26585 0.31952 0.73725 0.0
C394 C 0.23735 0.29233 0.78983 0.0
C395 C 0.29203 0.26228 0.73562 0.0
Zn396 Zn 0.78146 0.29676 0.78203 0.0
Zn397 Zn 0.75046 0.28366 0.72892 0.0
C398 C 0.76743 0.27863 0.82659 0.0
O399 O 0.77726 0.29566 0.83652 0.0
C400 C 0.77709 0.30477 0.69567 0.0
O401 O 0.78375 0.28231 0.69 0.0
O402 O 0.80624 0.30879 0.80308 0.0
O403 O 0.79817 0.27363 0.75826 0.0
O404 O 0.77554 0.2561 0.73402 0.0
C405 C 0.82079 0.29211 0.81109 0.0
O406 O 0.81851 0.26997 0.8054 0.0
O407 O 0.76648 0.27634 0.80378 0.0
C408 C 0.71126 0.29028 0.69867 0.0
O409 O 0.71209 0.31213 0.70664 0.0
O410 O 0.72637 0.27374 0.70573 0.0
O411 O 0.73475 0.29824 0.75856 0.0
O412 O 0.75742 0.32344 0.77034 0.0
O413 O 0.76309 0.30977 0.7122 0.0
C414 C 0.79463 0.25682 0.74374 0.0
C415 C 0.73782 0.31914 0.7653 0.0
Zn416 Zn 0.72674 0.77186 0.75586 0.0
Zn417 Zn 0.78262 0.80077 0.74881 0.0
C418 C 0.69424 0.80432 0.72647 0.0
O419 O 0.69697 0.82242 0.74083 0.0
C420 C 0.81291 0.76364 0.77311 0.0
O421 O 0.80811 0.74946 0.75536 0.0
O422 O 0.71231 0.74735 0.77337 0.0
O423 O 0.75 0.75578 0.73448 0.0
O424 O 0.77765 0.77486 0.72408 0.0
C425 C 0.7033 0.73297 0.75974 0.0
O426 O 0.70558 0.73399 0.73636 0.0
O427 O 0.70444 0.78371 0.73079 0.0
C428 C 0.80551 0.84134 0.746 0.0
O429 O 0.79887 0.84385 0.76832 0.0
O430 O 0.79987 0.82426 0.73313 0.0
O431 O 0.75843 0.81943 0.769 0.0
O432 O 0.73048 0.79983 0.77705 0.0
O433 O 0.80396 0.78529 0.77357 0.0
C434 C 0.76657 0.75753 0.72171 0.0
C435 C 0.74095 0.81746 0.78036 0.0
C436 C 0.08362 0.10331 0.30059 0.0
C437 C 0.07734 0.09905 0.32415 0.0
C438 C 0.09863 0.1191 0.29642 0.0
C439 C 0.14252 0.14945 0.32542 0.0
H440 H 0.13119 0.19044 0.27019 0.0
C441 C 0.19763 0.22171 0.30242 0.0
C442 C 0.20205 0.22372 0.27789 0.0
C443 C 0.18227 0.2072 0.30964 0.0
C444 C 0.13475 0.17898 0.28557 0.0
H445 H 0.08283 0.10816 0.36181 0.0
H446 H 0.10859 0.13597 0.35438 0.0
H447 H 0.10485 0.16392 0.27976 0.0
H448 H 0.19411 0.21156 0.24183 0.0
H449 H 0.16783 0.1863 0.25433 0.0
H450 H 0.17258 0.16451 0.33104 0.0
C451 C 0.10192 0.12683 0.33917 0.0
C452 C 0.11961 0.16374 0.29106 0.0
C453 C 0.08689 0.11096 0.34339 0.0
C454 C 0.19104 0.21065 0.26086 0.0
C455 C 0.17579 0.19623 0.26803 0.0
C456 C 0.15772 0.16475 0.3199 0.0
C457 C 0.10784 0.13124 0.3156 0.0
C458 C 0.12345 0.14847 0.31081 0.0
C459 C 0.171 0.19447 0.29247 0.0
C460 C 0.1542 0.17941 0.29964 0.0
H461 H 0.07685 0.09478 0.28511 0.0
H462 H 0.10311 0.1217 0.27804 0.0
H463 H 0.14607 0.13785 0.34069 0.0
H464 H 0.20583 0.23152 0.31601 0.0
H465 H 0.17891 0.20633 0.32861 0.0
C466 C 0.96409 0.10543 0.27558 0.0
C467 C 0.96012 0.08162 0.27369 0.0
C468 C 0.94651 0.12434 0.27398 0.0
C469 C 0.88586 0.13723 0.25628 0.0
H470 H 0.88916 0.19679 0.29085 0.0
C471 C 0.81061 0.20994 0.27633 0.0
C472 C 0.81158 0.23135 0.26441 0.0
C473 C 0.82919 0.19229 0.27754 0.0
C474 C 0.88811 0.18023 0.28109 0.0
H475 H 0.93435 0.05915 0.26917 0.0
H476 H 0.90397 0.09158 0.26754 0.0
H477 H 0.92055 0.16471 0.29293 0.0
H478 H 0.83276 0.25148 0.24503 0.0
H479 H 0.8657 0.22094 0.24823 0.0
H480 H 0.85291 0.15259 0.24555 0.0
C481 C 0.92061 0.09602 0.26919 0.0
C482 C 0.90616 0.16184 0.28206 0.0
C483 C 0.93816 0.07723 0.27028 0.0
C484 C 0.83161 0.23506 0.25424 0.0
C485 C 0.85041 0.21771 0.25614 0.0
C486 C 0.86769 0.15536 0.25584 0.0
C487 C 0.92441 0.11994 0.27091 0.0
C488 C 0.90535 0.13996 0.26965 0.0
C489 C 0.84926 0.19606 0.26754 0.0
C490 C 0.86866 0.17701 0.26818 0.0
H491 H 0.9808 0.10947 0.27832 0.0
H492 H 0.95036 0.14238 0.27504 0.0
H493 H 0.88456 0.12112 0.24587 0.0
H494 H 0.79532 0.20662 0.28417 0.0
H495 H 0.82793 0.17568 0.28633 0.0
C496 C 0.96211 0.95784 0.33433 0.0
C497 C 0.96449 0.97708 0.31958 0.0
C498 C 0.94606 0.94305 0.3287 0.0
C499 C 0.91092 0.92593 0.27739 0.0
H500 H 0.87717 0.90143 0.32684 0.0
C501 C 0.8364 0.87854 0.25202 0.0
C502 C 0.83383 0.85798 0.26467 0.0
C503 C 0.8515 0.89342 0.26019 0.0
C504 C 0.88659 0.90795 0.31282 0.0
H505 H 0.95125 0.99659 0.28806 0.0
H506 H 0.92315 0.97131 0.2785 0.0
H507 H 0.90551 0.92621 0.33827 0.0
H508 H 0.84475 0.83724 0.29625 0.0
H509 H 0.87147 0.86298 0.31028 0.0
H510 H 0.89221 0.90773 0.25195 0.0
C511 C 0.93409 0.967 0.29395 0.0
C512 C 0.90288 0.92214 0.31938 0.0
C513 C 0.9502 0.98155 0.29943 0.0
C514 C 0.84622 0.85305 0.28616 0.0
C515 C 0.86153 0.86785 0.29423 0.0
C516 C 0.8947 0.91181 0.27086 0.0
C517 C 0.93192 0.94738 0.30832 0.0
C518 C 0.91511 0.93151 0.3017 0.0
C519 C 0.86466 0.88799 0.28109 0.0
C520 C 0.88214 0.9028 0.28843 0.0
H521 H 0.97294 0.95397 0.34993 0.0
H522 H 0.94501 0.92799 0.34005 0.0
H523 H 0.92034 0.93231 0.26329 0.0
H524 H 0.82698 0.88295 0.23552 0.0
H525 H 0.85304 0.90909 0.24991 0.0
C526 C 0.06912 0.96809 0.27512 0.0
C527 C 0.07278 0.991 0.28264 0.0
C528 C 0.08708 0.95028 0.27055 0.0
C529 C 0.14802 0.94005 0.2608 0.0
H530 H 0.14474 0.87806 0.28745 0.0
C531 C 0.22518 0.86777 0.27037 0.0
C532 C 0.22229 0.84414 0.26454 0.0
C533 C 0.20686 0.88572 0.272 0.0
C534 C 0.14587 0.89517 0.27965 0.0
H535 H 0.09779 0.0135 0.29105 0.0
H536 H 0.1291 0.98276 0.28266 0.0
H537 H 0.11273 0.90915 0.28932 0.0
H538 H 0.19775 0.82087 0.25612 0.0
H539 H 0.16597 0.85203 0.25888 0.0
H540 H 0.18124 0.92614 0.25135 0.0
C541 C 0.11249 0.97844 0.2799 0.0
C542 C 0.12745 0.913 0.28064 0.0
C543 C 0.09457 0.99611 0.28463 0.0
C544 C 0.20063 0.83886 0.26067 0.0
C545 C 0.18235 0.85674 0.2624 0.0
C546 C 0.16644 0.92222 0.25982 0.0
C547 C 0.10903 0.9551 0.27344 0.0
C548 C 0.12828 0.93571 0.27125 0.0
C549 C 0.18519 0.88044 0.26796 0.0
C550 C 0.16563 0.89954 0.26925 0.0
H551 H 0.05246 0.96358 0.27416 0.0
H552 H 0.08378 0.93257 0.26541 0.0
H553 H 0.14921 0.95722 0.25318 0.0
H554 H 0.24161 0.87248 0.27347 0.0
H555 H 0.20967 0.90371 0.27661 0.0
C556 C 0.08435 0.9754 0.70431 0.0
C557 C 0.06599 0.97969 0.71933 0.0
C558 C 0.10154 0.95694 0.70888 0.0
C559 C 0.12627 0.91292 0.75464 0.0
H560 H 0.15352 0.88141 0.69796 0.0
C561 C 0.18806 0.82354 0.75359 0.0
C562 C 0.20852 0.82531 0.74319 0.0
C563 C 0.17049 0.84235 0.75205 0.0
C564 C 0.14612 0.89011 0.71394 0.0
H565 H 0.05169 0.96839 0.75158 0.0
H566 H 0.08173 0.93542 0.75946 0.0
H567 H 0.12282 0.91361 0.69328 0.0
H568 H 0.22629 0.8479 0.72234 0.0
H569 H 0.1951 0.88025 0.71849 0.0
H570 H 0.14933 0.88836 0.77512 0.0
C571 C 0.08291 0.94666 0.74419 0.0
C572 C 0.12859 0.90874 0.71134 0.0
C573 C 0.06566 0.96555 0.73974 0.0
C574 C 0.2108 0.84607 0.73068 0.0
C575 C 0.19299 0.86455 0.72846 0.0
C576 C 0.14359 0.89387 0.75722 0.0
C577 C 0.10085 0.94177 0.72843 0.0
C578 C 0.11864 0.92081 0.73162 0.0
C579 C 0.17274 0.86297 0.73934 0.0
C580 C 0.15387 0.88255 0.73686 0.0
H581 H 0.08532 0.98617 0.68861 0.0
H582 H 0.11533 0.9545 0.69679 0.0
H583 H 0.11925 0.92178 0.7707 0.0
H584 H 0.1857 0.80775 0.76323 0.0
H585 H 0.15499 0.84063 0.76043 0.0
C586 C 0.07564 0.10496 0.67464 0.0
C587 C 0.07104 0.08741 0.69055 0.0
C588 C 0.09281 0.1184 0.67982 0.0
C589 C 0.14365 0.11863 0.71868 0.0
H590 H 0.13573 0.18609 0.70467 0.0
C591 C 0.19912 0.18276 0.7619 0.0
C592 C 0.20641 0.19985 0.74726 0.0
C593 C 0.18348 0.16874 0.7532 0.0
C594 C 0.13829 0.16721 0.70844 0.0
H595 H 0.08155 0.07016 0.72433 0.0
H596 H 0.11058 0.09397 0.73366 0.0
H597 H 0.10672 0.16232 0.69291 0.0
H598 H 0.20288 0.21559 0.7119 0.0
H599 H 0.1753 0.19117 0.69675 0.0
H600 H 0.17494 0.12368 0.73477 0.0
C601 C 0.10122 0.09715 0.71693 0.0
C602 C 0.12168 0.15353 0.70165 0.0
C603 C 0.0842 0.08365 0.7117 0.0
C604 C 0.19767 0.20255 0.72363 0.0
C605 C 0.18178 0.18867 0.71499 0.0
C606 C 0.16013 0.13232 0.72562 0.0
C607 C 0.10583 0.11469 0.70107 0.0
C608 C 0.12401 0.1291 0.70696 0.0
C609 C 0.17454 0.17157 0.72969 0.0
C610 C 0.15756 0.15682 0.72085 0.0
H611 H 0.06585 0.10858 0.65827 0.0
H612 H 0.09598 0.13157 0.66703 0.0
H613 H 0.14634 0.09978 0.72256 0.0
H614 H 0.20548 0.18018 0.78018 0.0
H615 H 0.17808 0.15594 0.76509 0.0
C616 C 0.95651 0.09772 0.73758 0.0
C617 C 0.95547 0.08166 0.71814 0.0
C618 C 0.93897 0.11637 0.74139 0.0
C619 C 0.89059 0.15001 0.70783 0.0
H620 H 0.87318 0.17488 0.77099 0.0
C621 C 0.81095 0.21793 0.72362 0.0
C622 C 0.81315 0.23698 0.73973 0.0
C623 C 0.82831 0.19893 0.72105 0.0
C624 C 0.87794 0.1682 0.7532 0.0
H625 H 0.93476 0.07151 0.68851 0.0
H626 H 0.90419 0.1029 0.69565 0.0
H627 H 0.90335 0.14172 0.76744 0.0
H628 H 0.83583 0.25102 0.76525 0.0
H629 H 0.86556 0.21797 0.76108 0.0
H630 H 0.86494 0.17627 0.69366 0.0
C631 C 0.91869 0.10204 0.70743 0.0
C632 C 0.89532 0.14922 0.75116 0.0
C633 C 0.93619 0.0838 0.70348 0.0
C634 C 0.83326 0.23662 0.75289 0.0
C635 C 0.85039 0.21757 0.75058 0.0
C636 C 0.87308 0.16877 0.7099 0.0
C637 C 0.92001 0.11908 0.72596 0.0
C638 C 0.90184 0.13975 0.72843 0.0
C639 C 0.84814 0.19841 0.73475 0.0
C640 C 0.86652 0.17811 0.73259 0.0
H641 H 0.97125 0.0966 0.74904 0.0
H642 H 0.94066 0.12915 0.75583 0.0
H643 H 0.89543 0.14374 0.68995 0.0
H644 H 0.79578 0.21759 0.71312 0.0
H645 H 0.82604 0.1844 0.70869 0.0
C646 C 0.94956 0.95254 0.67282 0.0
C647 C 0.95168 0.97306 0.6869 0.0
C648 C 0.93332 0.9383 0.67779 0.0
C649 C 0.89842 0.92413 0.72732 0.0
H650 H 0.86401 0.8973 0.67679 0.0
C651 C 0.82398 0.87792 0.74992 0.0
C652 C 0.82068 0.85717 0.73687 0.0
C653 C 0.83943 0.89208 0.74259 0.0
C654 C 0.87365 0.90441 0.69113 0.0
H655 H 0.93756 0.99516 0.71657 0.0
H656 H 0.90951 0.97042 0.72524 0.0
H657 H 0.8921 0.92172 0.66626 0.0
H658 H 0.8308 0.83526 0.70554 0.0
H659 H 0.85815 0.85974 0.69297 0.0
H660 H 0.88031 0.90676 0.7522 0.0
C661 C 0.92068 0.96502 0.71067 0.0
C662 C 0.88975 0.91844 0.68507 0.0
C663 C 0.93682 0.97924 0.70568 0.0
C664 C 0.83286 0.8512 0.71594 0.0
C665 C 0.84851 0.8653 0.7087 0.0
C666 C 0.88245 0.91007 0.73336 0.0
C667 C 0.91886 0.94422 0.69698 0.0
C668 C 0.90217 0.92867 0.70313 0.0
C669 C 0.85222 0.88576 0.72214 0.0
C670 C 0.86966 0.90021 0.71539 0.0
H671 H 0.9608 0.94711 0.65835 0.0
H672 H 0.93249 0.9223 0.667 0.0
H673 H 0.90802 0.93127 0.74168 0.0
H674 H 0.81473 0.88319 0.76599 0.0
H675 H 0.84138 0.90799 0.75308 0.0
C676 C 0.30032 0.0711 0.09832 0.0
C677 C 0.28486 0.07501 0.07912 0.0
C678 C 0.30127 0.08839 0.11638 0.0
C679 C 0.28874 0.15261 0.12724 0.0
H680 H 0.29256 0.1361 0.1947 0.0
C681 C 0.27325 0.22259 0.2034 0.0
C682 C 0.28398 0.2182 0.22589 0.0
C683 C 0.2764 0.20568 0.18477 0.0
C684 C 0.29199 0.14099 0.17595 0.0
H685 H 0.25803 0.09977 0.06387 0.0
H686 H 0.25956 0.13021 0.09566 0.0
H687 H 0.29072 0.10502 0.16412 0.0
H688 H 0.30766 0.19341 0.24595 0.0
H689 H 0.31369 0.16407 0.21311 0.0
H690 H 0.29016 0.18855 0.13896 0.0
C691 C 0.271 0.11373 0.09661 0.0
C692 C 0.29076 0.12317 0.15845 0.0
C693 C 0.2699 0.09626 0.07865 0.0
C694 C 0.29898 0.19718 0.2289 0.0
C695 C 0.30231 0.18031 0.21013 0.0
C696 C 0.2902 0.17042 0.14473 0.0
C697 C 0.28689 0.11005 0.11547 0.0
C698 C 0.28878 0.12887 0.13396 0.0
C699 C 0.29053 0.18406 0.18809 0.0
C700 C 0.29148 0.16488 0.16933 0.0
H701 H 0.312 0.0548 0.09904 0.0
H702 H 0.31374 0.08512 0.13064 0.0
H703 H 0.28768 0.1574 0.10843 0.0
H704 H 0.26155 0.23861 0.20045 0.0
H705 H 0.26684 0.20911 0.1682 0.0
C706 C 0.94453 0.37256 0.0777 0.0
C707 C 0.96167 0.35466 0.07062 0.0
C708 C 0.92721 0.36693 0.09157 0.0
C709 C 0.91384 0.32094 0.13265 0.0
H710 H 0.85251 0.34375 0.11567 0.0
C711 C 0.84325 0.27595 0.16769 0.0
C712 C 0.82395 0.29035 0.17539 0.0
C713 C 0.8595 0.28584 0.15581 0.0
C714 C 0.86956 0.3375 0.12084 0.0
H715 H 0.9743 0.31695 0.07311 0.0
H716 H 0.9442 0.30718 0.09676 0.0
H717 H 0.88214 0.3578 0.09356 0.0
H718 H 0.80644 0.32651 0.17634 0.0
H719 H 0.83501 0.34385 0.15559 0.0
H720 H 0.90145 0.30043 0.15963 0.0
C721 C 0.94409 0.32557 0.09176 0.0
C722 C 0.88652 0.34556 0.10819 0.0
C723 C 0.96123 0.33114 0.07789 0.0
C724 C 0.82114 0.31491 0.17065 0.0
C725 C 0.83744 0.32484 0.15868 0.0
C726 C 0.89697 0.31293 0.14523 0.0
C727 C 0.9269 0.34336 0.09884 0.0
C728 C 0.90883 0.33694 0.11365 0.0
C729 C 0.8569 0.31041 0.15133 0.0
C730 C 0.87464 0.32069 0.13915 0.0
H731 H 0.94438 0.3908 0.07225 0.0
H732 H 0.91422 0.38104 0.09684 0.0
H733 H 0.93088 0.31437 0.13764 0.0
H734 H 0.84592 0.25696 0.17091 0.0
H735 H 0.87409 0.27415 0.14998 0.0
C736 C 0.75612 0.95216 0.06639 0.0
C737 C 0.73679 0.96824 0.06174 0.0
C738 C 0.75632 0.93446 0.08351 0.0
C739 C 0.72597 0.9177 0.13596 0.0
H740 H 0.76067 0.85584 0.12415 0.0
C741 C 0.7287 0.83614 0.19859 0.0
C742 C 0.75031 0.82605 0.20548 0.0
C743 C 0.72527 0.85321 0.18055 0.0
C744 C 0.75091 0.87305 0.12763 0.0
H745 H 0.70262 0.97861 0.07218 0.0
H746 H 0.70277 0.94728 0.10119 0.0
H747 H 0.75791 0.8862 0.09338 0.0
H748 H 0.78519 0.82548 0.19858 0.0
H749 H 0.77916 0.85507 0.167 0.0
H750 H 0.71883 0.9042 0.1702 0.0
C751 C 0.71788 0.94851 0.09184 0.0
C752 C 0.74944 0.8905 0.11012 0.0
C753 C 0.71774 0.96634 0.07489 0.0
C754 C 0.76837 0.83319 0.19391 0.0
C755 C 0.76493 0.84991 0.17566 0.0
C756 C 0.72722 0.9001 0.15337 0.0
C757 C 0.73715 0.93227 0.09629 0.0
C758 C 0.73736 0.91322 0.11427 0.0
C759 C 0.74338 0.86004 0.16881 0.0
C760 C 0.74009 0.87782 0.14953 0.0
H761 H 0.77104 0.95294 0.05656 0.0
H762 H 0.77159 0.92254 0.0868 0.0
H763 H 0.71667 0.93505 0.13987 0.0
H764 H 0.71448 0.83091 0.20721 0.0
H765 H 0.70849 0.86079 0.17549 0.0
C766 C 0.10524 0.6819 0.06845 0.0
C767 C 0.08857 0.69823 0.05776 0.0
C768 C 0.12077 0.68999 0.08438 0.0
C769 C 0.12884 0.74074 0.12404 0.0
H770 H 0.19153 0.7215 0.11383 0.0
C771 C 0.19455 0.79105 0.16841 0.0
C772 C 0.21305 0.777 0.17882 0.0
C773 C 0.17977 0.78053 0.15359 0.0
C774 C 0.17407 0.72682 0.11703 0.0
H775 H 0.07427 0.73557 0.05609 0.0
H776 H 0.10137 0.7496 0.08338 0.0
H777 H 0.16438 0.70336 0.08928 0.0
H778 H 0.23097 0.74107 0.18142 0.0
H779 H 0.20503 0.72278 0.15577 0.0
H780 H 0.1384 0.7643 0.1516 0.0
C781 C 0.10259 0.73064 0.07953 0.0
C782 C 0.1586 0.71639 0.10309 0.0
C783 C 0.08728 0.72262 0.06364 0.0
C784 C 0.21682 0.75238 0.17366 0.0
C785 C 0.20205 0.74189 0.15888 0.0
C786 C 0.14427 0.75112 0.13797 0.0
C787 C 0.11949 0.71445 0.09 0.0
C788 C 0.13588 0.72352 0.10629 0.0
C789 C 0.18326 0.75582 0.14896 0.0
C790 C 0.16701 0.74447 0.13439 0.0
H791 H 0.10637 0.66304 0.06419 0.0
H792 H 0.13367 0.6772 0.09239 0.0
H793 H 0.11137 0.74631 0.127 0.0
H794 H 0.19129 0.81007 0.172 0.0
H795 H 0.16554 0.79172 0.14583 0.0
C796 C 0.2939 0.96108 0.91871 0.0
C797 C 0.29792 0.9616 0.94366 0.0
C798 C 0.2904 0.94002 0.90699 0.0
C799 C 0.27613 0.88034 0.91338 0.0
H800 H 0.31342 0.8666 0.85787 0.0
C801 C 0.27664 0.79461 0.85502 0.0
C802 C 0.27424 0.79884 0.8302 0.0
C803 C 0.2815 0.81265 0.87094 0.0
C804 C 0.30289 0.87021 0.87329 0.0
H805 H 0.29993 0.94101 0.97626 0.0
H806 H 0.29347 0.90386 0.95562 0.0
H807 H 0.31584 0.90241 0.88218 0.0
H808 H 0.27588 0.82484 0.80245 0.0
H809 H 0.28431 0.8562 0.83013 0.0
H810 H 0.26275 0.84837 0.90401 0.0
C811 C 0.29315 0.91986 0.94523 0.0
C812 C 0.30424 0.89069 0.88715 0.0
C813 C 0.29672 0.94107 0.95701 0.0
C814 C 0.2776 0.82106 0.82149 0.0
C815 C 0.28256 0.83898 0.83733 0.0
C816 C 0.27471 0.85981 0.8994 0.0
C817 C 0.29084 0.91904 0.92003 0.0
C818 C 0.29048 0.89623 0.90691 0.0
C819 C 0.28423 0.83508 0.86223 0.0
C820 C 0.28772 0.85491 0.87889 0.0
H821 H 0.2944 0.97681 0.90813 0.0
H822 H 0.28811 0.93993 0.88759 0.0
H823 H 0.26541 0.88429 0.9286 0.0
H824 H 0.2741 0.77764 0.86224 0.0
H825 H 0.28289 0.80915 0.89004 0.0
C826 C 0.09037 0.36921 0.93106 0.0
C827 C 0.0867 0.35213 0.94785 0.0
C828 C 0.10643 0.36365 0.91353 0.0
C829 C 0.13975 0.31181 0.88344 0.0
H830 H 0.17516 0.35922 0.86374 0.0
C831 C 0.19882 0.29341 0.80451 0.0
C832 C 0.21959 0.3013 0.80677 0.0
C833 C 0.18235 0.30075 0.82107 0.0
C834 C 0.16555 0.3457 0.86919 0.0
H835 H 0.09748 0.31612 0.95997 0.0
H836 H 0.12566 0.30657 0.92988 0.0
H837 H 0.14745 0.36949 0.89443 0.0
H838 H 0.23914 0.32356 0.82804 0.0
H839 H 0.21052 0.33596 0.85733 0.0
H840 H 0.15837 0.28773 0.85901 0.0
C841 C 0.11575 0.32402 0.92965 0.0
C842 C 0.14943 0.3517 0.88656 0.0
C843 C 0.09959 0.3295 0.94696 0.0
C844 C 0.22333 0.31713 0.82576 0.0
C845 C 0.20686 0.32436 0.84248 0.0
C846 C 0.15595 0.30578 0.86627 0.0
C847 C 0.11931 0.34096 0.91259 0.0
C848 C 0.13632 0.33481 0.89391 0.0
C849 C 0.18625 0.31602 0.84049 0.0
C850 C 0.16903 0.32265 0.85885 0.0
H851 H 0.08055 0.38671 0.93124 0.0
H852 H 0.10848 0.37703 0.90049 0.0
H853 H 0.12979 0.29842 0.88838 0.0
H854 H 0.19526 0.28137 0.78999 0.0
H855 H 0.16653 0.29439 0.81864 0.0
C856 C 0.70652 0.10907 0.92239 0.0
C857 C 0.72111 0.09815 0.94013 0.0
C858 C 0.71 0.13055 0.91264 0.0
C859 C 0.73932 0.1824 0.92021 0.0
H860 H 0.73696 0.18133 0.85039 0.0
C861 C 0.77077 0.25456 0.86383 0.0
C862 C 0.75994 0.26053 0.84172 0.0
C863 C 0.76509 0.23588 0.87721 0.0
C864 C 0.73731 0.18219 0.86987 0.0
H865 H 0.74993 0.10145 0.9627 0.0
H866 H 0.75637 0.13933 0.94532 0.0
H867 H 0.72843 0.14725 0.87205 0.0
H868 H 0.73412 0.25255 0.81667 0.0
H869 H 0.72333 0.22075 0.84056 0.0
H870 H 0.74797 0.21751 0.91803 0.0
C871 C 0.74215 0.13126 0.93911 0.0
C872 C 0.7325 0.16258 0.88229 0.0
C873 C 0.73854 0.1097 0.94903 0.0
C874 C 0.74282 0.24812 0.83359 0.0
C875 C 0.7368 0.22979 0.84721 0.0
C876 C 0.74392 0.20221 0.90776 0.0
C877 C 0.72824 0.14147 0.92035 0.0
C878 C 0.7334 0.1625 0.90755 0.0
C879 C 0.74816 0.22311 0.86895 0.0
C880 C 0.74294 0.20235 0.88242 0.0
H881 H 0.69267 0.10066 0.91569 0.0
H882 H 0.69872 0.13834 0.89862 0.0
H883 H 0.74003 0.18279 0.93971 0.0
H884 H 0.78424 0.26369 0.87033 0.0
H885 H 0.77446 0.231 0.89362 0.0
C886 C 0.95271 0.72229 0.93112 0.0
C887 C 0.96405 0.69892 0.9327 0.0
C888 C 0.93511 0.7276 0.91482 0.0
C889 C 0.91294 0.70749 0.85785 0.0
H890 H 0.8598 0.74936 0.87627 0.0
C891 C 0.83845 0.73069 0.79259 0.0
C892 C 0.82901 0.75479 0.79221 0.0
C893 C 0.85399 0.72252 0.81048 0.0
C894 C 0.87461 0.73777 0.87085 0.0
H895 H 0.96563 0.66278 0.91866 0.0
H896 H 0.93475 0.67216 0.88984 0.0
H897 H 0.88867 0.73718 0.90653 0.0
H898 H 0.82839 0.78925 0.81025 0.0
H899 H 0.85572 0.77503 0.84122 0.0
H900 H 0.89912 0.70847 0.82208 0.0
C901 C 0.93968 0.6863 0.90125 0.0
C902 C 0.89107 0.73078 0.88814 0.0
C903 C 0.95731 0.68095 0.91768 0.0
C904 C 0.8353 0.77054 0.81012 0.0
C905 C 0.85085 0.76238 0.82795 0.0
C906 C 0.89649 0.71452 0.84053 0.0
C907 C 0.9285 0.7097 0.89967 0.0
C908 C 0.91046 0.71576 0.88173 0.0
C909 C 0.86037 0.73831 0.82827 0.0
C910 C 0.87727 0.7299 0.84684 0.0
H911 H 0.95779 0.73673 0.94195 0.0
H912 H 0.92704 0.74588 0.91361 0.0
H913 H 0.9279 0.69618 0.8524 0.0
H914 H 0.83387 0.71813 0.77907 0.0
H915 H 0.86093 0.70382 0.81048 0.0
C916 C 0.10575 0.29323 0.05633 0.0
C917 C 0.08497 0.30761 0.05736 0.0
C918 C 0.12085 0.29244 0.07589 0.0
C919 C 0.13801 0.3283 0.12635 0.0
H920 H 0.16659 0.26848 0.15267 0.0
C921 C 0.21606 0.31854 0.19087 0.0
C922 C 0.21437 0.30562 0.2119 0.0
C923 C 0.19966 0.31945 0.17256 0.0
C924 C 0.15873 0.28532 0.14551 0.0
H925 H 0.06389 0.33259 0.07983 0.0
H926 H 0.09053 0.33165 0.1137 0.0
H927 H 0.13898 0.26826 0.11981 0.0
H928 H 0.19409 0.28342 0.23004 0.0
H929 H 0.16601 0.28431 0.19774 0.0
H930 H 0.1582 0.34533 0.15167 0.0
C931 C 0.09494 0.32072 0.09786 0.0
C932 C 0.14301 0.28518 0.12665 0.0
C933 C 0.07962 0.32106 0.07853 0.0
C934 C 0.1959 0.29362 0.21415 0.0
C935 C 0.17984 0.29402 0.1956 0.0
C936 C 0.15411 0.32841 0.14486 0.0
C937 C 0.11578 0.3065 0.09671 0.0
C938 C 0.13239 0.30667 0.11691 0.0
C939 C 0.18152 0.30693 0.17459 0.0
C940 C 0.16458 0.30692 0.15473 0.0
H941 H 0.11045 0.2828 0.04025 0.0
H942 H 0.13681 0.28139 0.07443 0.0
H943 H 0.13021 0.34514 0.11912 0.0
H944 H 0.23005 0.328 0.1886 0.0
H945 H 0.20143 0.32949 0.15653 0.0
C946 C 0.07432 0.7438 0.95635 0.0
C947 C 0.05244 0.75309 0.94966 0.0
C948 C 0.09177 0.74569 0.94113 0.0
C949 C 0.10217 0.75728 0.87689 0.0
H950 H 0.16218 0.75846 0.90123 0.0
C951 C 0.17342 0.78238 0.82133 0.0
C952 C 0.19263 0.76546 0.82038 0.0
C953 C 0.15658 0.77957 0.83698 0.0
C954 C 0.14551 0.75789 0.89427 0.0
H955 H 0.03186 0.77294 0.92249 0.0
H956 H 0.06247 0.77775 0.8966 0.0
H957 H 0.13222 0.75885 0.92947 0.0
H958 H 0.20945 0.73242 0.83509 0.0
H959 H 0.17998 0.7279 0.86333 0.0
H960 H 0.11558 0.75765 0.84167 0.0
C961 C 0.06611 0.76795 0.91307 0.0
C962 C 0.12829 0.75806 0.91039 0.0
C963 C 0.04855 0.76552 0.92806 0.0
C964 C 0.19472 0.74561 0.83541 0.0
C965 C 0.178 0.7431 0.85157 0.0
C966 C 0.11931 0.75766 0.86084 0.0
C967 C 0.08791 0.75743 0.91904 0.0
C968 C 0.10632 0.75778 0.90194 0.0
C969 C 0.15881 0.76007 0.85237 0.0
C970 C 0.14108 0.75797 0.8694 0.0
H971 H 0.07788 0.73383 0.97275 0.0
H972 H 0.10812 0.737 0.94634 0.0
H973 H 0.08571 0.75637 0.86953 0.0
H974 H 0.17135 0.79782 0.80989 0.0
H975 H 0.14196 0.79292 0.83742 0.0
C976 C 0.30576 0.09834 0.95959 0.0
C977 C 0.3244 0.08255 0.96749 0.0
C978 C 0.30668 0.11234 0.93948 0.0
C979 C 0.33201 0.14658 0.90273 0.0
H980 H 0.30196 0.12082 0.84791 0.0
C981 C 0.29199 0.20465 0.8243 0.0
C982 C 0.29222 0.19472 0.80088 0.0
C983 C 0.30041 0.19079 0.84394 0.0
C984 C 0.31078 0.12814 0.8628 0.0
H985 H 0.35911 0.07031 0.96126 0.0
H986 H 0.36085 0.09574 0.92596 0.0
H987 H 0.30986 0.09726 0.88421 0.0
H988 H 0.3022 0.16254 0.77974 0.0
H989 H 0.31701 0.13846 0.81392 0.0
H990 H 0.33213 0.17791 0.88178 0.0
C991 C 0.3455 0.09678 0.93551 0.0
C992 C 0.31528 0.11461 0.88357 0.0
C993 C 0.34455 0.08243 0.95575 0.0
C994 C 0.30165 0.17077 0.79752 0.0
C995 C 0.31006 0.1569 0.81716 0.0
C996 C 0.32742 0.16021 0.88195 0.0
C997 C 0.32633 0.11125 0.9269 0.0
C998 C 0.32564 0.12384 0.9038 0.0
C999 C 0.30928 0.16663 0.84068 0.0
C1000 C 0.31635 0.15134 0.86187 0.0
H1001 H 0.28997 0.099 0.96821 0.0
H1002 H 0.29173 0.12339 0.93316 0.0
H1003 H 0.33969 0.15416 0.9183 0.0
H1004 H 0.2848 0.223 0.82759 0.0
H1005 H 0.29922 0.19881 0.86179 0.0
C1006 C 0.98011 0.30271 0.95298 0.0
C1007 C 0.97968 0.32563 0.96332 0.0
C1008 C 0.96295 0.29773 0.93698 0.0
C1009 C 0.9046 0.32098 0.91802 0.0
H1010 H 0.91893 0.28618 0.85844 0.0
C1011 C 0.83987 0.31874 0.83949 0.0
C1012 C 0.83948 0.29667 0.82755 0.0
C1013 C 0.85707 0.32189 0.85608 0.0
C1014 C 0.91457 0.29575 0.8751 0.0
H1015 H 0.96042 0.36093 0.96555 0.0
H1016 H 0.93107 0.35235 0.93819 0.0
H1017 H 0.9483 0.29064 0.88822 0.0
H1018 H 0.85725 0.26084 0.8234 0.0
H1019 H 0.88692 0.26633 0.85203 0.0
H1020 H 0.87093 0.32625 0.90491 0.0
C1021 C 0.94442 0.33811 0.94223 0.0
C1022 C 0.93145 0.29822 0.89224 0.0
C1023 C 0.96149 0.34309 0.95785 0.0
C1024 C 0.85692 0.27809 0.83225 0.0
C1025 C 0.87411 0.28128 0.84862 0.0
C1026 C 0.88775 0.31854 0.9009 0.0
C1027 C 0.94488 0.31547 0.93137 0.0
C1028 C 0.92674 0.31105 0.91387 0.0
C1029 C 0.8744 0.30313 0.86096 0.0
C1030 C 0.89248 0.306 0.87911 0.0
H1031 H 0.99389 0.28888 0.95677 0.0
H1032 H 0.96379 0.28002 0.92905 0.0
H1033 H 0.90023 0.33066 0.93462 0.0
H1034 H 0.82669 0.3334 0.83636 0.0
H1035 H 0.85684 0.33908 0.86504 0.0
C1036 C 0.70727 0.97542 0.92743 0.0
C1037 C 0.694 0.97379 0.94741 0.0
C1038 C 0.70656 0.96011 0.9077 0.0
C1039 C 0.6975 0.89949 0.89304 0.0
H1040 H 0.7077 0.91906 0.82829 0.0
C1041 C 0.71453 0.83286 0.81276 0.0
C1042 C 0.73248 0.83604 0.79836 0.0
C1043 C 0.70665 0.85 0.83007 0.0
C1044 C 0.70492 0.91332 0.84628 0.0
H1045 H 0.66954 0.95472 0.96248 0.0
H1046 H 0.66842 0.92718 0.92758 0.0
H1047 H 0.69667 0.94918 0.85931 0.0
H1048 H 0.75614 0.85991 0.79096 0.0
H1049 H 0.74226 0.88992 0.82116 0.0
H1050 H 0.70613 0.86358 0.87996 0.0
C1051 C 0.67906 0.94087 0.9272 0.0
C1052 C 0.6985 0.93055 0.86404 0.0
C1053 C 0.67948 0.95672 0.94702 0.0
C1054 C 0.74228 0.85689 0.80165 0.0
C1055 C 0.73425 0.87414 0.81887 0.0
C1056 C 0.70375 0.88222 0.87518 0.0
C1057 C 0.69293 0.94221 0.90751 0.0
C1058 C 0.69533 0.92389 0.88781 0.0
C1059 C 0.71638 0.87084 0.83329 0.0
C1060 C 0.70806 0.889 0.85177 0.0
H1061 H 0.71927 0.98774 0.92755 0.0
H1062 H 0.71787 0.96137 0.89325 0.0
H1063 H 0.69552 0.89375 0.91122 0.0
H1064 H 0.70656 0.81703 0.81078 0.0
H1065 H 0.69277 0.84705 0.84078 0.0
C1066 C 0.95343 0.76855 0.04583 0.0
C1067 C 0.97132 0.74993 0.04519 0.0
C1068 C 0.93877 0.77068 0.06499 0.0
C1069 C 0.93374 0.75074 0.12761 0.0
H1070 H 0.87067 0.76637 0.11448 0.0
C1071 C 0.8693 0.74331 0.20014 0.0
C1072 C 0.85212 0.76258 0.20191 0.0
C1073 C 0.88338 0.74122 0.18051 0.0
C1074 C 0.88826 0.76214 0.11845 0.0
H1075 H 0.98788 0.71906 0.06434 0.0
H1076 H 0.96231 0.72254 0.09715 0.0
H1077 H 0.89646 0.76513 0.08154 0.0
H1078 H 0.83589 0.79444 0.18413 0.0
H1079 H 0.86047 0.79085 0.15023 0.0
H1080 H 0.92555 0.74764 0.16448 0.0
C1081 C 0.95973 0.73579 0.08321 0.0
C1082 C 0.90304 0.76154 0.0996 0.0
C1083 C 0.97436 0.73373 0.06423 0.0
C1084 C 0.84899 0.77936 0.18338 0.0
C1085 C 0.86299 0.77725 0.16382 0.0
C1086 C 0.91898 0.75126 0.14642 0.0
C1087 C 0.94171 0.75421 0.08383 0.0
C1088 C 0.92596 0.75578 0.10395 0.0
C1089 C 0.88049 0.75831 0.16226 0.0
C1090 C 0.89607 0.75696 0.14207 0.0
H1091 H 0.95065 0.78134 0.03147 0.0
H1092 H 0.92518 0.78527 0.06508 0.0
H1093 H 0.95132 0.74661 0.13168 0.0
H1094 H 0.87208 0.73004 0.21404 0.0
H1095 H 0.89657 0.72624 0.17964 0.0
C1096 C 0.33938 0.94316 0.04964 0.0
C1097 C 0.34037 0.96698 0.0563 0.0
C1098 C 0.33893 0.92587 0.06709 0.0
C1099 C 0.31997 0.92152 0.12888 0.0
H1100 H 0.34207 0.8545 0.11895 0.0
C1101 C 0.29848 0.84771 0.19211 0.0
C1102 C 0.29342 0.82675 0.18057 0.0
C1103 C 0.30731 0.86499 0.17915 0.0
C1104 C 0.33565 0.87313 0.12196 0.0
H1105 H 0.34242 0.99139 0.08644 0.0
H1106 H 0.34228 0.96099 0.11723 0.0
H1107 H 0.35408 0.88396 0.09296 0.0
H1108 H 0.29349 0.80777 0.14624 0.0
H1109 H 0.30847 0.83779 0.1238 0.0
H1110 H 0.30112 0.91056 0.15755 0.0
C1111 C 0.34179 0.95565 0.09842 0.0
C1112 C 0.34261 0.89006 0.10706 0.0
C1113 C 0.34235 0.97298 0.08083 0.0
C1114 C 0.29738 0.82354 0.15583 0.0
C1115 C 0.30613 0.84075 0.14293 0.0
C1116 C 0.31302 0.90454 0.14383 0.0
C1117 C 0.33922 0.93204 0.09175 0.0
C1118 C 0.33447 0.91445 0.10992 0.0
C1119 C 0.3113 0.8617 0.15437 0.0
C1120 C 0.32036 0.88006 0.14019 0.0
H1121 H 0.33711 0.93826 0.03087 0.0
H1122 H 0.33662 0.90807 0.06115 0.0
H1123 H 0.31309 0.94007 0.13147 0.0
H1124 H 0.29562 0.85078 0.21114 0.0
H1125 H 0.3112 0.88082 0.1886 0.0
C1126 C 0.67869 0.10325 0.04226 0.0
C1127 C 0.69058 0.08114 0.04867 0.0
C1128 C 0.67862 0.12309 0.05786 0.0
C1129 C 0.6961 0.14183 0.11993 0.0
H1130 H 0.70963 0.1975 0.08721 0.0
C1131 C 0.74068 0.21347 0.16786 0.0
C1132 C 0.73335 0.23753 0.16265 0.0
C1133 C 0.73238 0.19523 0.15474 0.0
C1134 C 0.70557 0.18225 0.09666 0.0
H1135 H 0.71043 0.06189 0.07673 0.0
H1136 H 0.71021 0.09601 0.10385 0.0
H1137 H 0.69828 0.16435 0.06379 0.0
H1138 H 0.71153 0.26123 0.13943 0.0
H1139 H 0.69707 0.22938 0.11652 0.0
H1140 H 0.70421 0.15947 0.15276 0.0
C1141 C 0.70071 0.09836 0.08712 0.0
C1142 C 0.69892 0.16324 0.08322 0.0
C1143 C 0.70082 0.07871 0.07157 0.0
C1144 C 0.71758 0.2429 0.14391 0.0
C1145 C 0.70934 0.22464 0.13071 0.0
C1146 C 0.70288 0.16078 0.13334 0.0
C1147 C 0.69046 0.12107 0.08008 0.0
C1148 C 0.69444 0.14258 0.09463 0.0
C1149 C 0.71659 0.20057 0.13601 0.0
C1150 C 0.70803 0.18107 0.12185 0.0
H1151 H 0.67107 0.10566 0.02448 0.0
H1152 H 0.67026 0.14024 0.05201 0.0
H1153 H 0.69249 0.1264 0.1294 0.0
H1154 H 0.75285 0.20866 0.18213 0.0
H1155 H 0.73859 0.17689 0.15905 0.0
C1156 C 0.56917 0.60136 0.80211 0.0
C1157 C 0.56593 0.59513 0.82599 0.0
C1158 C 0.58346 0.61761 0.79701 0.0
C1159 C 0.63133 0.64391 0.82178 0.0
H1160 H 0.61592 0.68851 0.77 0.0
C1161 C 0.68607 0.71495 0.79436 0.0
C1162 C 0.68865 0.71695 0.76944 0.0
C1163 C 0.67106 0.70082 0.80306 0.0
C1164 C 0.62052 0.67607 0.78443 0.0
H1165 H 0.57512 0.60155 0.86325 0.0
H1166 H 0.60015 0.63004 0.85432 0.0
H1167 H 0.58926 0.66324 0.78211 0.0
H1168 H 0.67774 0.70531 0.7342 0.0
H1169 H 0.65175 0.68091 0.74933 0.0
H1170 H 0.66271 0.6568 0.82389 0.0
C1171 C 0.59171 0.62207 0.83954 0.0
C1172 C 0.60525 0.66156 0.79136 0.0
C1173 C 0.57733 0.60578 0.84466 0.0
C1174 C 0.67619 0.70425 0.7535 0.0
C1175 C 0.66113 0.69037 0.76215 0.0
C1176 C 0.64662 0.65854 0.81488 0.0
C1177 C 0.59497 0.62814 0.81562 0.0
C1178 C 0.6106 0.64497 0.80981 0.0
C1179 C 0.65819 0.68868 0.787 0.0
C1180 C 0.64151 0.67445 0.79581 0.0
H1181 H 0.5612 0.5932 0.78714 0.0
H1182 H 0.58592 0.62146 0.77835 0.0
H1183 H 0.63606 0.63118 0.83592 0.0
H1184 H 0.69542 0.72451 0.80711 0.0
H1185 H 0.66911 0.69988 0.82231 0.0
C1186 C 0.43582 0.56885 0.76164 0.0
C1187 C 0.45669 0.57291 0.77077 0.0
C1188 C 0.41788 0.58735 0.76088 0.0
C1189 C 0.39886 0.64886 0.78598 0.0
H1190 H 0.35331 0.64864 0.73602 0.0
C1191 C 0.32908 0.72887 0.76922 0.0
C1192 C 0.30753 0.72348 0.76465 0.0
C1193 C 0.34725 0.71069 0.77062 0.0
C1194 C 0.36579 0.64887 0.75023 0.0
H1195 H 0.47503 0.59999 0.78582 0.0
H1196 H 0.44418 0.6324 0.78351 0.0
H1197 H 0.38508 0.61734 0.73629 0.0
H1198 H 0.2883 0.69458 0.7581 0.0
H1199 H 0.32 0.66292 0.76032 0.0
H1200 H 0.37962 0.68093 0.7994 0.0
C1201 C 0.44136 0.61476 0.77756 0.0
C1202 C 0.38407 0.6308 0.75048 0.0
C1203 C 0.45922 0.59615 0.77863 0.0
C1204 C 0.30463 0.69941 0.76168 0.0
C1205 C 0.32283 0.68125 0.7628 0.0
C1206 C 0.38069 0.66714 0.78551 0.0
C1207 C 0.42028 0.61064 0.76891 0.0
C1208 C 0.4009 0.63036 0.76843 0.0
C1209 C 0.3444 0.68665 0.76719 0.0
C1210 C 0.36385 0.6673 0.76771 0.0
H1211 H 0.4331 0.55114 0.75576 0.0
H1212 H 0.40196 0.58313 0.75454 0.0
H1213 H 0.41109 0.6491 0.80041 0.0
H1214 H 0.33196 0.7472 0.7716 0.0
H1215 H 0.36363 0.7155 0.77385 0.0
C1216 C 0.44472 0.47302 0.80413 0.0
C1217 C 0.45489 0.47392 0.82709 0.0
C1218 C 0.42883 0.45801 0.79939 0.0
C1219 C 0.38947 0.42376 0.82723 0.0
H1220 H 0.3953 0.3876 0.76718 0.0
C1221 C 0.33409 0.35113 0.79999 0.0
C1222 C 0.3276 0.35004 0.77555 0.0
C1223 C 0.34942 0.36606 0.80778 0.0
C1224 C 0.39321 0.39775 0.7839 0.0
H1225 H 0.45564 0.46027 0.86326 0.0
H1226 H 0.42782 0.43389 0.85491 0.0
H1227 H 0.4219 0.41427 0.77799 0.0
H1228 H 0.33155 0.3645 0.74035 0.0
H1229 H 0.35768 0.39064 0.75389 0.0
H1230 H 0.36053 0.40735 0.83293 0.0
C1231 C 0.43221 0.44489 0.84063 0.0
C1232 C 0.40852 0.41304 0.79011 0.0
C1233 C 0.44826 0.45986 0.84536 0.0
C1234 C 0.33637 0.36459 0.75925 0.0
C1235 C 0.35151 0.37954 0.76701 0.0
C1236 C 0.374 0.40849 0.82093 0.0
C1237 C 0.4226 0.4435 0.81745 0.0
C1238 C 0.40669 0.42649 0.81167 0.0
C1239 C 0.35852 0.38026 0.7913 0.0
C1240 C 0.37551 0.39555 0.79898 0.0
H1241 H 0.44951 0.48329 0.78949 0.0
H1242 H 0.42152 0.45761 0.78143 0.0
H1243 H 0.38759 0.43394 0.84395 0.0
H1244 H 0.32759 0.34019 0.81302 0.0
H1245 H 0.35451 0.36607 0.8266 0.0
C1246 C 0.59303 0.49404 0.77494 0.0
C1247 C 0.57096 0.49022 0.77766 0.0
C1248 C 0.61015 0.47492 0.77275 0.0
C1249 C 0.62462 0.40978 0.78428 0.0
H1250 H 0.67536 0.41702 0.74605 0.0
C1251 C 0.69667 0.33262 0.7657 0.0
C1252 C 0.7184 0.33828 0.76726 0.0
C1253 C 0.67829 0.35053 0.76701 0.0
C1254 C 0.66142 0.41476 0.75699 0.0
H1255 H 0.54973 0.46287 0.77986 0.0
H1256 H 0.5796 0.42932 0.77529 0.0
H1257 H 0.64379 0.44854 0.74677 0.0
H1258 H 0.73768 0.36741 0.77149 0.0
H1259 H 0.70562 0.39867 0.77354 0.0
H1260 H 0.64233 0.37564 0.79404 0.0
C1261 C 0.58369 0.44728 0.77526 0.0
C1262 C 0.64324 0.43292 0.75747 0.0
C1263 C 0.56647 0.46655 0.77758 0.0
C1264 C 0.72123 0.36236 0.77025 0.0
C1265 C 0.70283 0.38031 0.77128 0.0
C1266 C 0.64277 0.39146 0.78358 0.0
C1267 C 0.60586 0.45119 0.773 0.0
C1268 C 0.62463 0.43091 0.77137 0.0
C1269 C 0.68111 0.37464 0.76962 0.0
C1270 C 0.66152 0.39384 0.77013 0.0
H1271 H 0.59728 0.51195 0.77512 0.0
H1272 H 0.62691 0.47887 0.77158 0.0
H1273 H 0.61083 0.40757 0.79546 0.0
H1274 H 0.6938 0.31429 0.76338 0.0
H1275 H 0.66184 0.34551 0.76546 0.0
C1276 C 0.58504 0.47351 0.20048 0.0
C1277 C 0.56942 0.48155 0.21807 0.0
C1278 C 0.60265 0.45565 0.2054 0.0
C1279 C 0.62129 0.40519 0.24518 0.0
H1280 H 0.67796 0.40949 0.21689 0.0
C1281 C 0.69963 0.3349 0.26074 0.0
C1282 C 0.71295 0.32832 0.24073 0.0
C1283 C 0.68204 0.3537 0.2594 0.0
C1284 C 0.6622 0.40787 0.22474 0.0
H1285 H 0.56028 0.47711 0.2549 0.0
H1286 H 0.59155 0.44562 0.26373 0.0
H1287 H 0.64804 0.44264 0.21334 0.0
H1288 H 0.7179 0.33635 0.20344 0.0
H1289 H 0.68729 0.36903 0.20109 0.0
H1290 H 0.63562 0.37026 0.2565 0.0
C1291 C 0.58987 0.45325 0.24597 0.0
C1292 C 0.64502 0.42693 0.22275 0.0
C1293 C 0.57208 0.47138 0.24101 0.0
C1294 C 0.70808 0.34092 0.21926 0.0
C1295 C 0.69058 0.35979 0.21795 0.0
C1296 C 0.63858 0.38609 0.24725 0.0
C1297 C 0.60537 0.44519 0.22814 0.0
C1298 C 0.6242 0.42573 0.23258 0.0
C1299 C 0.6774 0.36652 0.23804 0.0
C1300 C 0.65916 0.38707 0.23674 0.0
H1301 H 0.58363 0.48087 0.18259 0.0
H1302 H 0.61392 0.44968 0.19106 0.0
H1303 H 0.60542 0.40354 0.25273 0.0
H1304 H 0.70281 0.32559 0.27753 0.0
H1305 H 0.67236 0.35851 0.27526 0.0
C1306 C 0.57257 0.60408 0.21219 0.0
C1307 C 0.56988 0.59411 0.1891 0.0
C1308 C 0.58821 0.61945 0.2167 0.0
C1309 C 0.63939 0.63773 0.19315 0.0
H1310 H 0.62529 0.69052 0.23828 0.0
C1311 C 0.69864 0.70768 0.21678 0.0
C1312 C 0.70133 0.7125 0.24155 0.0
C1313 C 0.68243 0.69407 0.20843 0.0
C1314 C 0.62952 0.67581 0.2257 0.0
H1315 H 0.58182 0.59252 0.15264 0.0
H1316 H 0.60889 0.61977 0.16038 0.0
H1317 H 0.59722 0.66558 0.22707 0.0
H1318 H 0.68887 0.70695 0.27687 0.0
H1319 H 0.6607 0.68351 0.26235 0.0
H1320 H 0.67176 0.6482 0.19186 0.0
C1321 C 0.59898 0.61546 0.1751 0.0
C1322 C 0.61345 0.66142 0.21933 0.0
C1323 C 0.58328 0.60002 0.17058 0.0
C1324 C 0.68741 0.70347 0.2577 0.0
C1325 C 0.67109 0.69019 0.24937 0.0
C1326 C 0.65546 0.65229 0.19942 0.0
C1327 C 0.6016 0.62544 0.19822 0.0
C1328 C 0.61828 0.64187 0.20336 0.0
C1329 C 0.66835 0.68535 0.22465 0.0
C1330 C 0.65082 0.67118 0.21616 0.0
H1331 H 0.56243 0.60025 0.22687 0.0
H1332 H 0.58995 0.62643 0.23483 0.0
H1333 H 0.64378 0.62276 0.18094 0.0
H1334 H 0.70903 0.71447 0.20385 0.0
H1335 H 0.68064 0.69072 0.18927 0.0
C1336 C 0.46362 0.60145 0.24169 0.0
C1337 C 0.46036 0.58477 0.22336 0.0
C1338 C 0.44679 0.62048 0.24681 0.0
C1339 C 0.38639 0.63993 0.23905 0.0
H1340 H 0.40121 0.70416 0.24105 0.0
C1341 C 0.31824 0.72147 0.23216 0.0
C1342 C 0.32102 0.74233 0.24529 0.0
C1343 C 0.33556 0.70245 0.23064 0.0
C1344 C 0.39674 0.68636 0.24094 0.0
H1345 H 0.43682 0.57433 0.19674 0.0
H1346 H 0.4076 0.60685 0.20596 0.0
H1347 H 0.43067 0.6702 0.23832 0.0
H1348 H 0.34425 0.75952 0.2672 0.0
H1349 H 0.37424 0.72614 0.26522 0.0
H1350 H 0.35259 0.65577 0.24182 0.0
C1351 C 0.42299 0.6055 0.21635 0.0
C1352 C 0.41369 0.66688 0.23938 0.0
C1353 C 0.43979 0.58688 0.21102 0.0
C1354 C 0.3416 0.74377 0.25678 0.0
C1355 C 0.35887 0.72461 0.25553 0.0
C1356 C 0.36949 0.65933 0.24085 0.0
C1357 C 0.42635 0.62279 0.234 0.0
C1358 C 0.40868 0.64344 0.23809 0.0
C1359 C 0.35609 0.70359 0.24252 0.0
C1360 C 0.37434 0.68288 0.24149 0.0
H1361 H 0.47942 0.60041 0.25125 0.0
H1362 H 0.44982 0.63349 0.2606 0.0
H1363 H 0.38198 0.62209 0.23835 0.0
H1364 H 0.30265 0.71984 0.22293 0.0
H1365 H 0.33284 0.68689 0.21997 0.0
C1366 C 0.45038 0.45651 0.1751 0.0
C1367 C 0.45381 0.47599 0.19017 0.0
C1368 C 0.43354 0.44294 0.17964 0.0
C1369 C 0.38142 0.44474 0.21359 0.0
H1370 H 0.39203 0.37608 0.2043 0.0
C1371 C 0.32639 0.38216 0.25451 0.0
C1372 C 0.32079 0.36294 0.24037 0.0
C1373 C 0.34156 0.3963 0.24648 0.0
C1374 C 0.3887 0.39526 0.20668 0.0
H1375 H 0.44168 0.49651 0.22174 0.0
H1376 H 0.41299 0.47255 0.23004 0.0
H1377 H 0.4207 0.39987 0.19429 0.0
H1378 H 0.32669 0.34364 0.20654 0.0
H1379 H 0.35354 0.36828 0.19258 0.0
H1380 H 0.34965 0.44001 0.22656 0.0
C1381 C 0.42308 0.46793 0.21444 0.0
C1382 C 0.40514 0.40895 0.20092 0.0
C1383 C 0.43984 0.48153 0.20985 0.0
C1384 C 0.33061 0.35834 0.21784 0.0
C1385 C 0.34608 0.37235 0.20991 0.0
C1386 C 0.36509 0.43104 0.2195 0.0
C1387 C 0.41966 0.44844 0.1994 0.0
C1388 C 0.40182 0.43387 0.20452 0.0
C1389 C 0.35176 0.39148 0.22419 0.0
C1390 C 0.3686 0.40612 0.21635 0.0
H1391 H 0.46087 0.4515 0.15991 0.0
H1392 H 0.4313 0.42825 0.16749 0.0
H1393 H 0.378 0.4639 0.2161 0.0
H1394 H 0.3191 0.38627 0.27193 0.0
H1395 H 0.34571 0.41072 0.25804 0.0
C1396 C 0.82701 0.60779 0.5666 0.0
C1397 C 0.81087 0.59519 0.55607 0.0
C1398 C 0.82144 0.62526 0.58425 0.0
C1399 C 0.77477 0.66568 0.60983 0.0
H1400 H 0.81619 0.66898 0.66362 0.0
C1401 C 0.75508 0.7265 0.69346 0.0
C1402 C 0.77171 0.73944 0.70228 0.0
C1403 C 0.7595 0.70919 0.67536 0.0
C1404 C 0.80459 0.66844 0.64858 0.0
H1405 H 0.77604 0.59138 0.55564 0.0
H1406 H 0.76622 0.62206 0.58688 0.0
H1407 H 0.82375 0.63761 0.63305 0.0
H1408 H 0.80603 0.74437 0.69894 0.0
H1409 H 0.8139 0.7137 0.6673 0.0
H1410 H 0.75551 0.69644 0.62565 0.0
C1411 C 0.78323 0.61839 0.58123 0.0
C1412 C 0.80888 0.65046 0.63106 0.0
C1413 C 0.78884 0.60078 0.56341 0.0
C1414 C 0.79289 0.73472 0.69248 0.0
C1415 C 0.79741 0.71709 0.67451 0.0
C1416 C 0.77041 0.68361 0.62747 0.0
C1417 C 0.79956 0.63064 0.59202 0.0
C1418 C 0.79415 0.64899 0.61132 0.0
C1419 C 0.78072 0.70418 0.66576 0.0
C1420 C 0.78537 0.68528 0.64693 0.0
H1421 H 0.84413 0.60414 0.56129 0.0
H1422 H 0.83434 0.63469 0.59173 0.0
H1423 H 0.76322 0.66523 0.59474 0.0
H1424 H 0.73851 0.72982 0.70045 0.0
H1425 H 0.74637 0.69942 0.66916 0.0
C1426 C 0.42743 0.88284 0.5749 0.0
C1427 C 0.43868 0.8669 0.5581 0.0
C1428 C 0.41156 0.87554 0.58968 0.0
C1429 C 0.37511 0.82917 0.59511 0.0
H1430 H 0.37619 0.84609 0.66305 0.0
C1431 C 0.32914 0.78255 0.66516 0.0
C1432 C 0.31811 0.79675 0.68341 0.0
C1433 C 0.34279 0.79222 0.64944 0.0
C1434 C 0.37548 0.84148 0.64407 0.0
H1435 H 0.44179 0.83045 0.54402 0.0
H1436 H 0.41418 0.81805 0.56936 0.0
H1437 H 0.4017 0.86124 0.6362 0.0
H1438 H 0.31266 0.8323 0.69938 0.0
H1439 H 0.33655 0.8492 0.67189 0.0
H1440 H 0.34909 0.80917 0.603 0.0
C1441 C 0.41742 0.83632 0.5709 0.0
C1442 C 0.39008 0.85018 0.62868 0.0
C1443 C 0.43331 0.84355 0.55624 0.0
C1444 C 0.32097 0.82088 0.68554 0.0
C1445 C 0.33474 0.83053 0.66988 0.0
C1446 C 0.36054 0.82047 0.61048 0.0
C1447 C 0.40646 0.85215 0.58791 0.0
C1448 C 0.39018 0.84396 0.60406 0.0
C1449 C 0.3458 0.8163 0.65166 0.0
C1450 C 0.36068 0.82636 0.63517 0.0
H1451 H 0.43092 0.90098 0.5767 0.0
H1452 H 0.40321 0.88825 0.60244 0.0
H1453 H 0.37453 0.82435 0.57616 0.0
H1454 H 0.32725 0.76391 0.66298 0.0
H1455 H 0.35127 0.78071 0.63578 0.0
C1456 C 0.1777 0.48956 0.59264 0.0
C1457 C 0.19188 0.49237 0.57368 0.0
C1458 C 0.18348 0.47174 0.60966 0.0
C1459 C 0.21925 0.41449 0.62054 0.0
H1460 H 0.21261 0.43299 0.68778 0.0
C1461 C 0.25526 0.35224 0.69812 0.0
C1462 C 0.24337 0.35331 0.71953 0.0
C1463 C 0.24862 0.36837 0.67964 0.0
C1464 C 0.21426 0.42733 0.66911 0.0
H1465 H 0.22334 0.47786 0.55788 0.0
H1466 H 0.23303 0.44674 0.58718 0.0
H1467 H 0.2012 0.4622 0.65679 0.0
H1468 H 0.21475 0.37157 0.73793 0.0
H1469 H 0.20274 0.39898 0.70555 0.0
H1470 H 0.23207 0.37952 0.6328 0.0
C1471 C 0.21739 0.45837 0.58879 0.0
C1472 C 0.20775 0.44416 0.65133 0.0
C1473 C 0.21172 0.47631 0.57188 0.0
C1474 C 0.22438 0.37038 0.72175 0.0
C1475 C 0.2176 0.38627 0.70321 0.0
C1476 C 0.22558 0.39755 0.63834 0.0
C1477 C 0.20349 0.45609 0.60806 0.0
C1478 C 0.21016 0.43795 0.62685 0.0
C1479 C 0.22981 0.38579 0.68204 0.0
C1480 C 0.22314 0.40372 0.6629 0.0
H1481 H 0.16213 0.50118 0.5945 0.0
H1482 H 0.17225 0.47021 0.62412 0.0
H1483 H 0.22117 0.40912 0.60181 0.0
H1484 H 0.27008 0.33941 0.69593 0.0
H1485 H 0.25863 0.36757 0.66378 0.0
C1486 C 0.55001 0.273 0.56113 0.0
C1487 C 0.54883 0.24919 0.55425 0.0
C1488 C 0.56755 0.27866 0.57622 0.0
C1489 C 0.62471 0.25368 0.59728 0.0
H1490 H 0.61378 0.29833 0.65079 0.0
C1491 C 0.69135 0.26249 0.67253 0.0
C1492 C 0.69289 0.2855 0.68179 0.0
C1493 C 0.67385 0.25852 0.65666 0.0
C1494 C 0.61724 0.28601 0.63577 0.0
H1495 H 0.56539 0.21275 0.55796 0.0
H1496 H 0.59524 0.22252 0.58382 0.0
H1497 H 0.58336 0.29187 0.62314 0.0
H1498 H 0.67715 0.32237 0.68137 0.0
H1499 H 0.64713 0.31555 0.65373 0.0
H1500 H 0.65851 0.24772 0.60984 0.0
C1501 C 0.58297 0.23695 0.57752 0.0
C1502 C 0.59974 0.28235 0.61986 0.0
C1503 C 0.56559 0.23134 0.56273 0.0
C1504 C 0.67653 0.30437 0.67474 0.0
C1505 C 0.65913 0.30042 0.65894 0.0
C1506 C 0.64219 0.25735 0.61314 0.0
C1507 C 0.58434 0.26063 0.58448 0.0
C1508 C 0.60319 0.26598 0.6005 0.0
C1509 C 0.65745 0.27746 0.64966 0.0
C1510 C 0.63873 0.27348 0.63272 0.0
H1511 H 0.5374 0.28718 0.55498 0.0
H1512 H 0.56812 0.29714 0.58117 0.0
H1513 H 0.62812 0.2412 0.58237 0.0
H1514 H 0.70361 0.24752 0.67756 0.0
H1515 H 0.67304 0.24053 0.65013 0.0
C1516 C 0.80675 0.48297 0.43514 0.0
C1517 C 0.79891 0.4888 0.45833 0.0
C1518 C 0.79992 0.46395 0.42211 0.0
C1519 C 0.78322 0.40617 0.43072 0.0
H1520 H 0.76794 0.40948 0.36259 0.0
C1521 C 0.76313 0.32405 0.37467 0.0
C1522 C 0.76959 0.32225 0.35055 0.0
C1523 C 0.76541 0.34452 0.3885 0.0
C1524 C 0.77248 0.40812 0.38153 0.0
H1525 H 0.77751 0.47973 0.48605 0.0
H1526 H 0.76569 0.44584 0.46324 0.0
H1527 H 0.77248 0.44581 0.38517 0.0
H1528 H 0.78441 0.33998 0.32233 0.0
H1529 H 0.78919 0.37517 0.34659 0.0
H1530 H 0.78416 0.36839 0.42696 0.0
C1531 C 0.77695 0.45629 0.45512 0.0
C1532 C 0.77485 0.42901 0.39449 0.0
C1533 C 0.78349 0.47576 0.46804 0.0
C1534 C 0.77908 0.34094 0.3408 0.0
C1535 C 0.78162 0.36123 0.35469 0.0
C1536 C 0.7811 0.38518 0.41768 0.0
C1537 C 0.7854 0.45002 0.43218 0.0
C1538 C 0.78046 0.42823 0.41915 0.0
C1539 C 0.77442 0.36353 0.37858 0.0
C1540 C 0.77596 0.38585 0.39282 0.0
H1541 H 0.81879 0.49268 0.42737 0.0
H1542 H 0.80687 0.45942 0.4046 0.0
H1543 H 0.78789 0.40503 0.44964 0.0
H1544 H 0.75563 0.31 0.38266 0.0
H1545 H 0.75948 0.34569 0.40673 0.0
C1546 C 0.58569 0.87535 0.43862 0.0
C1547 C 0.56665 0.86416 0.43976 0.0
C1548 C 0.60171 0.86801 0.4214 0.0
C1549 C 0.60929 0.83674 0.36293 0.0
H1550 H 0.67133 0.82386 0.38226 0.0
C1551 C 0.67242 0.78626 0.29952 0.0
C1552 C 0.69353 0.79315 0.29869 0.0
C1553 C 0.65789 0.79522 0.3175 0.0
C1554 C 0.65413 0.82769 0.37645 0.0
H1555 H 0.54922 0.837 0.42315 0.0
H1556 H 0.57714 0.8241 0.39352 0.0
H1557 H 0.64388 0.84019 0.41166 0.0
H1558 H 0.71633 0.81441 0.31605 0.0
H1559 H 0.6905 0.83108 0.3471 0.0
H1560 H 0.61927 0.82469 0.32777 0.0
C1561 C 0.57969 0.83858 0.40585 0.0
C1562 C 0.63842 0.83702 0.39332 0.0
C1563 C 0.56379 0.84583 0.42303 0.0
C1564 C 0.70012 0.80878 0.31647 0.0
C1565 C 0.68534 0.81823 0.33424 0.0
C1566 C 0.62495 0.82768 0.34606 0.0
C1567 C 0.59887 0.8495 0.4049 0.0
C1568 C 0.61581 0.84128 0.38679 0.0
C1569 C 0.6639 0.8118 0.33475 0.0
C1570 C 0.64754 0.82262 0.35267 0.0
H1571 H 0.58848 0.88938 0.45134 0.0
H1572 H 0.61627 0.87686 0.42094 0.0
H1573 H 0.59202 0.84023 0.35727 0.0
H1574 H 0.66712 0.7739 0.28619 0.0
H1575 H 0.64185 0.78921 0.31773 0.0
C1576 C 0.20093 0.64099 0.45613 0.0
C1577 C 0.18707 0.62476 0.44753 0.0
C1578 C 0.20711 0.65815 0.441 0.0
C1579 C 0.21467 0.67048 0.3775 0.0
H1580 H 0.21354 0.73569 0.40035 0.0
C1581 C 0.2377 0.74465 0.31618 0.0
C1582 C 0.24817 0.76269 0.32722 0.0
C1583 C 0.22929 0.72786 0.33019 0.0
C1584 C 0.21434 0.7175 0.39371 0.0
H1585 H 0.16882 0.61385 0.41623 0.0
H1586 H 0.17963 0.64391 0.38973 0.0
H1587 H 0.20074 0.70664 0.42611 0.0
H1588 H 0.25897 0.77664 0.36146 0.0
H1589 H 0.24538 0.74701 0.38564 0.0
H1590 H 0.22894 0.68104 0.34541 0.0
C1591 C 0.18569 0.64329 0.40824 0.0
C1592 C 0.20684 0.70087 0.40851 0.0
C1593 C 0.17929 0.62627 0.42348 0.0
C1594 C 0.25055 0.76326 0.35242 0.0
C1595 C 0.2426 0.74627 0.36634 0.0
C1596 C 0.22248 0.68706 0.36278 0.0
C1597 C 0.19975 0.65935 0.41682 0.0
C1598 C 0.207 0.67715 0.40064 0.0
C1599 C 0.23157 0.72848 0.35551 0.0
C1600 C 0.22257 0.71081 0.37074 0.0
H1601 H 0.20711 0.64032 0.47458 0.0
H1602 H 0.21809 0.67015 0.44811 0.0
H1603 H 0.2152 0.65224 0.37103 0.0
H1604 H 0.23566 0.74379 0.29678 0.0
H1605 H 0.22071 0.71465 0.32113 0.0
C1606 C 0.43748 0.273 0.45015 0.0
C1607 C 0.44501 0.24908 0.45584 0.0
C1608 C 0.42051 0.27865 0.4326 0.0
C1609 C 0.37488 0.25191 0.40128 0.0
H1610 H 0.37651 0.30051 0.35368 0.0
C1611 C 0.30305 0.27471 0.33222 0.0
C1612 C 0.30835 0.27929 0.30846 0.0
C1613 C 0.31928 0.2728 0.35063 0.0
C1614 C 0.37587 0.28675 0.36675 0.0
H1615 H 0.44083 0.21242 0.44692 0.0
H1616 H 0.41209 0.22215 0.41674 0.0
H1617 H 0.40562 0.29432 0.38504 0.0
H1618 H 0.33504 0.28565 0.28558 0.0
H1619 H 0.36347 0.28186 0.31762 0.0
H1620 H 0.34577 0.24363 0.38274 0.0
C1621 C 0.41869 0.23667 0.42602 0.0
C1622 C 0.39242 0.28344 0.38494 0.0
C1623 C 0.43542 0.2311 0.44337 0.0
C1624 C 0.33036 0.28199 0.30363 0.0
C1625 C 0.34664 0.28006 0.32209 0.0
C1626 C 0.35846 0.25516 0.38316 0.0
C1627 C 0.41074 0.26047 0.42052 0.0
C1628 C 0.3923 0.26572 0.40226 0.0
C1629 C 0.34135 0.27536 0.34585 0.0
C1630 C 0.35875 0.2725 0.3655 0.0
H1631 H 0.44455 0.28728 0.45932 0.0
H1632 H 0.41477 0.2972 0.42881 0.0
H1633 H 0.37398 0.23834 0.41449 0.0
H1634 H 0.28627 0.27268 0.3367 0.0
H1635 H 0.31442 0.26954 0.36871 0.0
C1636 C 0.57611 0.79701 0.54604 0.0
C1637 C 0.55718 0.81429 0.54658 0.0
C1638 C 0.5912 0.79499 0.56555 0.0
C1639 C 0.59707 0.81445 0.62957 0.0
H1640 H 0.65985 0.80322 0.61661 0.0
C1641 C 0.66396 0.82766 0.70176 0.0
C1642 C 0.67984 0.80736 0.70477 0.0
C1643 C 0.6496 0.82932 0.68164 0.0
C1644 C 0.64233 0.80642 0.62038 0.0
H1645 H 0.53911 0.84289 0.568 0.0
H1646 H 0.56553 0.84004 0.60107 0.0
H1647 H 0.63297 0.80256 0.58333 0.0
H1648 H 0.69386 0.77338 0.68867 0.0
H1649 H 0.66897 0.77649 0.65371 0.0
H1650 H 0.60654 0.81888 0.66654 0.0
C1651 C 0.56855 0.82744 0.5862 0.0
C1652 C 0.62696 0.80577 0.60143 0.0
C1653 C 0.55339 0.82915 0.56706 0.0
C1654 C 0.68166 0.7892 0.68697 0.0
C1655 C 0.66757 0.79101 0.66683 0.0
C1656 C 0.61242 0.81549 0.6484 0.0
C1657 C 0.5877 0.81048 0.58568 0.0
C1658 C 0.60414 0.80981 0.60583 0.0
C1659 C 0.65123 0.81088 0.66419 0.0
C1660 C 0.63514 0.81144 0.64395 0.0
H1661 H 0.57939 0.78531 0.53048 0.0
H1662 H 0.60566 0.78148 0.56478 0.0
H1663 H 0.57964 0.81716 0.63369 0.0
H1664 H 0.66226 0.84191 0.71517 0.0
H1665 H 0.6371 0.84486 0.67981 0.0
C1666 C 0.56987 0.20131 0.42817 0.0
C1667 C 0.56216 0.21743 0.44671 0.0
C1668 C 0.5877 0.20533 0.41424 0.0
C1669 C 0.63451 0.24084 0.4142 0.0
H1670 H 0.63356 0.22794 0.34541 0.0
C1671 C 0.6878 0.28338 0.3489 0.0
C1672 C 0.69946 0.26848 0.33159 0.0
C1673 C 0.67227 0.27487 0.3631 0.0
C1674 C 0.63414 0.23135 0.36465 0.0
H1675 H 0.56774 0.25031 0.46521 0.0
H1676 H 0.59774 0.25777 0.44047 0.0
H1677 H 0.60387 0.21744 0.36991 0.0
H1678 H 0.70388 0.233 0.31545 0.0
H1679 H 0.6762 0.2182 0.34012 0.0
H1680 H 0.6643 0.2556 0.40873 0.0
C1681 C 0.59041 0.24172 0.43693 0.0
C1682 C 0.61719 0.22529 0.37872 0.0
C1683 C 0.57281 0.2376 0.45095 0.0
C1684 C 0.69516 0.24487 0.32867 0.0
C1685 C 0.6793 0.23644 0.34269 0.0
C1686 C 0.65125 0.24714 0.40012 0.0
C1687 C 0.59819 0.22561 0.41846 0.0
C1688 C 0.61699 0.23032 0.40364 0.0
C1689 C 0.66783 0.25136 0.36012 0.0
C1690 C 0.65106 0.24277 0.37517 0.0
H1691 H 0.56204 0.18569 0.4242 0.0
H1692 H 0.59337 0.19242 0.4003 0.0
H1693 H 0.63525 0.24442 0.4334 0.0
H1694 H 0.6908 0.30162 0.35167 0.0
H1695 H 0.6635 0.28682 0.37624 0.0
C1696 C 0.83952 0.59257 0.4128 0.0
C1697 C 0.83482 0.59767 0.43711 0.0
C1698 C 0.83338 0.60984 0.39535 0.0
C1699 C 0.82544 0.67199 0.384 0.0
H1700 H 0.78121 0.66108 0.33518 0.0
C1701 C 0.7926 0.74561 0.3177 0.0
C1702 C 0.7877 0.73905 0.29389 0.0
C1703 C 0.79661 0.72847 0.33553 0.0
C1704 C 0.79384 0.66433 0.34838 0.0
H1705 H 0.82062 0.62477 0.46244 0.0
H1706 H 0.81061 0.65545 0.4319 0.0
H1707 H 0.79308 0.63069 0.36517 0.0
H1708 H 0.78255 0.70954 0.27008 0.0
H1709 H 0.79053 0.67928 0.30091 0.0
H1710 H 0.8273 0.7049 0.36689 0.0
C1711 C 0.81869 0.63795 0.42641 0.0
C1712 C 0.80049 0.64696 0.36562 0.0
C1713 C 0.82435 0.62049 0.44378 0.0
C1714 C 0.78607 0.71509 0.28838 0.0
C1715 C 0.79064 0.69777 0.30614 0.0
C1716 C 0.81921 0.68912 0.36647 0.0
C1717 C 0.82292 0.63263 0.40206 0.0
C1718 C 0.81621 0.65076 0.38362 0.0
C1719 C 0.79645 0.70417 0.32989 0.0
C1720 C 0.80314 0.68568 0.3485 0.0
H1721 H 0.84736 0.57501 0.40724 0.0
H1722 H 0.83682 0.60546 0.37664 0.0
H1723 H 0.83776 0.67512 0.39765 0.0
H1724 H 0.7938 0.76403 0.32244 0.0
H1725 H 0.80024 0.73434 0.35367 0.0
C1726 C 0.46955 0.81372 0.44367 0.0
C1727 C 0.47079 0.80336 0.4665 0.0
C1728 C 0.45274 0.81004 0.42731 0.0
C1729 C 0.39643 0.79394 0.42631 0.0
H1730 H 0.40297 0.79753 0.3573 0.0
C1731 C 0.33162 0.77658 0.35246 0.0
C1732 C 0.32694 0.79441 0.33518 0.0
C1733 C 0.34827 0.77791 0.36984 0.0
C1734 C 0.40098 0.79669 0.37656 0.0
H1735 H 0.4566 0.77923 0.48927 0.0
H1736 H 0.42764 0.77178 0.46003 0.0
H1737 H 0.43562 0.79516 0.38378 0.0
H1738 H 0.33523 0.82795 0.32275 0.0
H1739 H 0.365 0.82987 0.35293 0.0
H1740 H 0.36173 0.79453 0.41863 0.0
C1741 C 0.43922 0.78358 0.45524 0.0
C1742 C 0.41961 0.79533 0.39175 0.0
C1743 C 0.45595 0.78758 0.47187 0.0
C1744 C 0.33857 0.81404 0.33597 0.0
C1745 C 0.35556 0.8151 0.35308 0.0
C1746 C 0.37785 0.79477 0.41102 0.0
C1747 C 0.43699 0.79546 0.43312 0.0
C1748 C 0.41753 0.79429 0.41684 0.0
C1749 C 0.36068 0.79684 0.36984 0.0
C1750 C 0.38003 0.79646 0.38612 0.0
H1751 H 0.48083 0.82586 0.43884 0.0
H1752 H 0.45148 0.81975 0.41065 0.0
H1753 H 0.39413 0.79365 0.44554 0.0
H1754 H 0.32272 0.76137 0.35224 0.0
H1755 H 0.3521 0.76363 0.38261 0.0
C1756 C 0.22281 0.49804 0.4398 0.0
C1757 C 0.23522 0.49329 0.46128 0.0
C1758 C 0.22402 0.48123 0.4211 0.0
C1759 C 0.2582 0.4282 0.39616 0.0
H1760 H 0.20336 0.41949 0.36235 0.0
C1761 C 0.25463 0.35677 0.3216 0.0
C1762 C 0.24381 0.3649 0.3 0.0
C1763 C 0.25265 0.37096 0.34244 0.0
C1764 C 0.2188 0.42183 0.37156 0.0
H1765 H 0.25911 0.46735 0.47971 0.0
H1766 H 0.2612 0.43773 0.4468 0.0
H1767 H 0.20252 0.44696 0.39683 0.0
H1768 H 0.22162 0.39381 0.28367 0.0
H1769 H 0.21794 0.41857 0.32031 0.0
H1770 H 0.27445 0.40309 0.37077 0.0
C1771 C 0.25058 0.45461 0.44454 0.0
C1772 C 0.21835 0.43756 0.39126 0.0
C1773 C 0.24938 0.47153 0.46337 0.0
C1774 C 0.23018 0.38709 0.3 0.0
C1775 C 0.22803 0.40121 0.32097 0.0
C1776 C 0.25863 0.41237 0.37651 0.0
C1777 C 0.23763 0.45918 0.42336 0.0
C1778 C 0.23808 0.44119 0.40354 0.0
C1779 C 0.23963 0.39347 0.34224 0.0
C1780 C 0.23896 0.40926 0.36385 0.0
H1781 H 0.21187 0.51472 0.43745 0.0
H1782 H 0.21424 0.48554 0.4048 0.0
H1783 H 0.27369 0.43081 0.40508 0.0
H1784 H 0.26526 0.33972 0.32228 0.0
H1785 H 0.26153 0.36443 0.35867 0.0
C1786 C 0.4217 0.23451 0.56888 0.0
C1787 C 0.44103 0.21835 0.57343 0.0
C1788 C 0.40529 0.2389 0.58613 0.0
C1789 C 0.39691 0.23912 0.65048 0.0
H1790 H 0.33579 0.23339 0.63393 0.0
C1791 C 0.33075 0.24795 0.72342 0.0
C1792 C 0.30886 0.25714 0.71702 0.0
C1793 C 0.34669 0.24278 0.70576 0.0
C1794 C 0.35266 0.23557 0.63887 0.0
H1795 H 0.45845 0.19437 0.59971 0.0
H1796 H 0.42987 0.20231 0.63004 0.0
H1797 H 0.36381 0.22586 0.60326 0.0
H1798 H 0.28641 0.26877 0.68742 0.0
H1799 H 0.31439 0.26131 0.6567 0.0
H1800 H 0.38597 0.24986 0.68567 0.0
C1801 C 0.4274 0.21139 0.61302 0.0
C1802 C 0.36873 0.23104 0.62125 0.0
C1803 C 0.44364 0.20671 0.59561 0.0
C1804 C 0.30318 0.26143 0.69273 0.0
C1805 C 0.31925 0.25694 0.67512 0.0
C1806 C 0.3808 0.24417 0.66796 0.0
C1807 C 0.40809 0.22751 0.60842 0.0
C1808 C 0.391 0.23262 0.62696 0.0
C1809 C 0.34125 0.24738 0.68133 0.0
C1810 C 0.35842 0.24232 0.6625 0.0
H1811 H 0.41921 0.24363 0.55189 0.0
H1812 H 0.39058 0.2515 0.58223 0.0
H1813 H 0.41398 0.24071 0.65523 0.0
H1814 H 0.33545 0.24427 0.74205 0.0
H1815 H 0.3632 0.23488 0.71136 0.0
C1816 C 0.81948 0.47576 0.58442 0.0
C1817 C 0.83809 0.47168 0.56975 0.0
C1818 C 0.81442 0.45794 0.5994 0.0
C1819 C 0.82157 0.3932 0.60459 0.0
H1820 H 0.80312 0.40666 0.67027 0.0
C1821 C 0.80307 0.31869 0.66678 0.0
C1822 C 0.78526 0.32399 0.68241 0.0
C1823 C 0.81052 0.33674 0.65385 0.0
C1824 C 0.80796 0.40264 0.65187 0.0
H1825 H 0.86616 0.44595 0.55948 0.0
H1826 H 0.85727 0.41459 0.58565 0.0
H1827 H 0.81458 0.43824 0.64653 0.0
H1828 H 0.76118 0.35241 0.69664 0.0
H1829 H 0.77374 0.38379 0.67365 0.0
H1830 H 0.81441 0.35785 0.60955 0.0
C1831 C 0.84662 0.43163 0.58551 0.0
C1832 C 0.81463 0.42073 0.63833 0.0
C1833 C 0.85183 0.44959 0.57073 0.0
C1834 C 0.77506 0.34776 0.68487 0.0
C1835 C 0.78236 0.36578 0.67177 0.0
C1836 C 0.81471 0.37517 0.61804 0.0
C1837 C 0.82775 0.43557 0.59983 0.0
C1838 C 0.82147 0.41619 0.61454 0.0
C1839 C 0.80018 0.36051 0.65606 0.0
C1840 C 0.80778 0.37966 0.64185 0.0
H1841 H 0.80873 0.49271 0.58417 0.0
H1842 H 0.79971 0.46145 0.61012 0.0
H1843 H 0.82642 0.3893 0.58616 0.0
H1844 H 0.81137 0.30058 0.66457 0.0
H1845 H 0.82451 0.33205 0.64226 0.0
C1846 C 0.24299 0.60475 0.54556 0.0
C1847 C 0.24403 0.58194 0.55541 0.0
C1848 C 0.24472 0.62457 0.56042 0.0
C1849 C 0.23486 0.64431 0.62309 0.0
H1850 H 0.26221 0.69861 0.60461 0.0
C1851 C 0.24743 0.72192 0.68805 0.0
C1852 C 0.24503 0.74509 0.67887 0.0
C1853 C 0.24596 0.70237 0.67276 0.0
C1854 C 0.25422 0.68371 0.60984 0.0
H1855 H 0.24961 0.56182 0.58832 0.0
H1856 H 0.25326 0.59639 0.61418 0.0
H1857 H 0.26526 0.66316 0.5786 0.0
H1858 H 0.238 0.76606 0.64665 0.0
H1859 H 0.23518 0.73179 0.61991 0.0
H1860 H 0.22393 0.66482 0.6544 0.0
C1861 C 0.25042 0.599 0.59504 0.0
C1862 C 0.25606 0.66337 0.595 0.0
C1863 C 0.24858 0.57915 0.58018 0.0
C1864 C 0.24004 0.74842 0.65424 0.0
C1865 C 0.23859 0.7288 0.63891 0.0
C1866 C 0.23307 0.66462 0.63794 0.0
C1867 C 0.24771 0.62202 0.58543 0.0
C1868 C 0.24648 0.64339 0.6015 0.0
C1869 C 0.24203 0.70554 0.64795 0.0
C1870 C 0.24279 0.68451 0.63152 0.0
H1871 H 0.23952 0.60757 0.52654 0.0
H1872 H 0.24248 0.64204 0.55243 0.0
H1873 H 0.22682 0.62946 0.62835 0.0
H1874 H 0.25125 0.71873 0.70695 0.0
H1875 H 0.24885 0.68468 0.68026 0.0
loop_
_geom_bond_atom_site_label_1
_geom_bond_atom_site_label_2
_geom_bond_distance
_geom_bond_site_symmetry_2
_ccdc_geom_bond_type
Cu0 N1 1.999 . S
Cu0 O6 1.974 . S
Cu0 N11 1.969 1_445 S
Cu0 O20 1.959 1_455 S
N1 Cu0 1.999 . S
N1 C3 1.263 . S
N1 C5 1.389 . S
N2 C3 1.358 . S
N2 C4 1.400 . S
C3 N1 1.263 . S
C3 N2 1.358 . S
C3 H9 0.930 . S
C4 N2 1.400 . S
C4 C5 1.351 . S
C4 H21 0.930 . S
C5 N1 1.389 . S
C5 C4 1.351 . S
C5 H10 0.930 . S
O6 Cu0 1.974 . S
O6 C16 1.282 1_545 S
C7 O8 1.261 . S
C7 O20 1.251 . S
O8 C7 1.261 . S
H9 C3 0.930 . S
H10 C5 0.930 . S
N11 Cu0 1.969 1_665 S
N11 C13 1.338 . S
N11 C14 1.408 . S
N12 C13 1.342 . S
N12 C15 1.336 . S
C13 N11 1.338 . S
C13 N12 1.342 . S
C13 H18 0.932 1_565 S
C14 N11 1.408 . S
C14 C15 1.346 . S
C14 H19 0.930 1_655 S
C15 N12 1.336 . S
C15 C14 1.346 . S
C15 H22 0.929 . S
C16 O6 1.282 1_565 S
C16 O17 1.225 . S
O17 C16 1.225 . S
H18 C13 0.932 1_545 S
H19 C14 0.930 1_455 S
O20 Cu0 1.959 1_655 S
O20 C7 1.251 . S
H21 C4 0.930 . S
H22 C15 0.929 . S
Cu23 N24 1.999 1_445 S
Cu23 O29 1.974 1_455 S
Cu23 N34 1.985 . S
Cu23 O43 1.959 1_545 S
N24 Cu23 1.999 1_665 S
N24 C26 1.263 . S
N24 C28 1.389 . S
N25 C26 1.358 . S
N25 C27 1.400 . S
C26 N24 1.263 . S
C26 N25 1.358 . S
C26 H32 0.930 1_565 S
C27 N25 1.400 . S
C27 C28 1.351 . S
C27 H44 0.930 . S
C28 N24 1.389 . S
C28 C27 1.351 . S
C28 H33 0.925 1_655 S
O29 Cu23 1.974 1_655 S
O29 C39 1.282 . S
C30 O31 1.261 . S
C30 O43 1.251 . S
O31 C30 1.261 . S
H32 C26 0.930 1_545 S
H33 C28 0.925 1_455 S
N34 Cu23 1.985 . S
N34 C36 1.335 . S
N34 C37 1.390 . S
N35 C36 1.345 . S
N35 C38 1.336 . S
C36 N34 1.335 . S
C36 N35 1.345 . S
C36 H41 0.930 . S
C37 N34 1.390 . S
C37 C38 1.346 . S
C37 H42 0.930 . S
C38 N35 1.336 . S
C38 C37 1.346 . S
C38 H45 0.929 . S
C39 O29 1.282 . S
C39 O40 1.216 . S
O40 C39 1.216 . S
H41 C36 0.930 . S
H42 C37 0.930 . S
O43 Cu23 1.959 1_565 S
O43 C30 1.251 . S
H44 C27 0.930 . S
H45 C38 0.929 . S
Cu46 N47 2.011 1_554 S
Cu46 O52 1.988 . S
Cu46 N57 1.973 1_565 S
Cu46 O66 1.945 1_564 S
N47 Cu46 2.011 1_556 S
N47 C49 1.263 . S
N47 C51 1.389 . S
N48 C49 1.358 . S
N48 C50 1.400 . S
C49 N47 1.263 . S
C49 N48 1.358 . S
C49 H55 0.930 . S
C50 N48 1.400 . S
C50 C51 1.351 . S
C50 H67 0.930 . S
C51 N47 1.389 . S
C51 C50 1.351 . S
C51 H56 0.930 . S
O52 Cu46 1.988 . S
O52 C62 1.282 . S
C53 O54 1.261 . S
C53 O66 1.251 . S
O54 C53 1.261 . S
H55 C49 0.930 . S
H56 C51 0.930 . S
N57 Cu46 1.973 1_545 S
N57 C59 1.335 . S
N57 C60 1.390 . S
N58 C59 1.345 . S
N58 C61 1.336 . S
C59 N57 1.335 . S
C59 N58 1.345 . S
C59 H64 0.930 . S
C60 N57 1.390 . S
C60 C61 1.346 . S
C60 H65 0.930 . S
C61 N58 1.336 . S
C61 C60 1.346 . S
C61 H68 0.929 . S
C62 O52 1.282 . S
C62 O63 1.216 . S
O63 C62 1.216 . S
H64 C59 0.930 . S
H65 C60 0.930 . S
O66 Cu46 1.945 1_546 S
O66 C53 1.251 . S
H67 C50 0.930 . S
H68 C61 0.929 . S
Cu69 N70 1.999 1_554 S
Cu69 O75 1.974 . S
Cu69 N80 1.985 1_455 S
Cu69 O89 1.959 1_454 S
N70 Cu69 1.999 1_556 S
N70 C72 1.263 . S
N70 C74 1.389 . S
N71 C72 1.358 . S
N71 C73 1.400 . S
C72 N70 1.263 . S
C72 N71 1.358 . S
C72 H78 0.930 . S
C73 N71 1.400 . S
C73 C74 1.351 . S
C73 H90 0.930 . S
C74 N70 1.389 . S
C74 C73 1.351 . S
C74 H79 0.930 . S
O75 Cu69 1.974 . S
O75 C85 1.282 . S
C76 O77 1.261 . S
C76 O89 1.251 . S
O77 C76 1.261 . S
H78 C72 0.930 . S
H79 C74 0.930 . S
N80 Cu69 1.985 1_655 S
N80 C82 1.335 . S
N80 C83 1.390 . S
N81 C82 1.345 . S
N81 C84 1.336 . S
C82 N80 1.335 . S
C82 N81 1.345 . S
C82 H87 0.930 . S
C83 N80 1.390 . S
C83 C84 1.346 . S
C83 H88 0.930 1_655 S
C84 N81 1.336 . S
C84 C83 1.346 . S
C84 H91 0.929 . S
C85 O75 1.282 . S
C85 O86 1.216 . S
O86 C85 1.216 . S
H87 C82 0.930 . S
H88 C83 0.930 1_455 S
O89 Cu69 1.959 1_656 S
O89 C76 1.251 . S
H90 C73 0.930 . S
H91 C84 0.929 . S
Cu92 N93 1.999 1_554 S
Cu92 O98 1.974 . S
Cu92 N103 1.985 . S
Cu92 O112 1.959 1_554 S
N93 Cu92 1.999 1_556 S
N93 C95 1.263 . S
N93 C97 1.389 . S
N94 C95 1.358 . S
N94 C96 1.400 . S
C95 N93 1.263 . S
C95 N94 1.358 . S
C95 H101 0.930 . S
C96 N94 1.400 . S
C96 C97 1.351 . S
C96 H113 0.930 . S
C97 N93 1.389 . S
C97 C96 1.351 . S
C97 H102 0.930 . S
O98 Cu92 1.974 . S
O98 C108 1.282 . S
C99 O100 1.250 1_565 S
C99 O112 1.251 1_565 S
O100 C99 1.250 1_545 S
H101 C95 0.930 . S
H102 C97 0.930 . S
N103 Cu92 1.985 . S
N103 C105 1.335 1_545 S
N103 C106 1.390 . S
N104 C105 1.345 . S
N104 C107 1.336 . S
C105 N103 1.335 1_565 S
C105 N104 1.345 . S
C105 H110 0.930 . S
C106 N103 1.390 . S
C106 C107 1.346 1_545 S
C106 H111 0.930 . S
C107 N104 1.336 . S
C107 C106 1.346 1_565 S
C107 H114 0.929 . S
C108 O98 1.282 . S
C108 O109 1.216 . S
O109 C108 1.216 . S
H110 C105 0.930 . S
H111 C106 0.930 . S
O112 Cu92 1.959 1_556 S
O112 C99 1.251 1_545 S
H113 C96 0.930 . S
H114 C107 0.929 . S
Cu115 N116 1.999 1_454 S
Cu115 O121 1.974 1_455 S
Cu115 N126 1.985 . S
Cu115 O135 1.959 1_554 S
N116 Cu115 1.999 1_656 S
N116 C118 1.263 . S
N116 C120 1.389 . S
N117 C118 1.358 . S
N117 C119 1.400 . S
C118 N116 1.263 . S
C118 N117 1.358 . S
C118 H124 0.930 . S
C119 N117 1.400 . S
C119 C120 1.351 . S
C119 H136 0.930 . S
C120 N116 1.389 . S
C120 C119 1.351 . S
C120 H125 0.930 1_655 S
O121 Cu115 1.974 1_655 S
O121 C131 1.282 . S
C122 O123 1.261 . S
C122 O135 1.251 . S
O123 C122 1.261 . S
H124 C118 0.930 . S
H125 C120 0.930 1_455 S
N126 Cu115 1.985 . S
N126 C128 1.335 . S
N126 C129 1.390 . S
N127 C128 1.345 . S
N127 C130 1.336 . S
C128 N126 1.335 . S
C128 N127 1.345 . S
C128 H133 0.930 . S
C129 N126 1.390 . S
C129 C130 1.346 . S
C129 H134 0.930 . S
C130 N127 1.336 . S
C130 C129 1.346 . S
C130 H137 0.929 . S
C131 O121 1.282 . S
C131 O132 1.216 . S
O132 C131 1.216 . S
H133 C128 0.930 . S
H134 C129 0.930 . S
O135 Cu115 1.959 1_556 S
O135 C122 1.251 . S
H136 C119 0.930 . S
H137 C130 0.929 . S
Cu138 N139 1.999 . S
Cu138 O144 1.974 . S
Cu138 N149 1.985 . S
Cu138 O158 1.959 . S
N139 Cu138 1.999 . S
N139 C141 1.263 . S
N139 C143 1.389 . S
N140 C141 1.358 . S
N140 C142 1.400 . S
C141 N139 1.263 . S
C141 N140 1.358 . S
C141 H147 0.930 . S
C142 N140 1.400 . S
C142 C143 1.351 . S
C142 H159 0.930 . S
C143 N139 1.389 . S
C143 C142 1.351 . S
C143 H148 0.930 . S
O144 Cu138 1.974 . S
O144 C154 1.282 . S
C145 O146 1.261 . S
C145 O158 1.251 . S
O146 C145 1.261 . S
H147 C141 0.930 . S
H148 C143 0.930 . S
N149 Cu138 1.985 . S
N149 C151 1.335 . S
N149 C152 1.390 . S
N150 C151 1.345 . S
N150 C153 1.336 . S
C151 N149 1.335 . S
C151 N150 1.345 . S
C151 H156 0.930 . S
C152 N149 1.390 . S
C152 C153 1.346 . S
C152 H157 0.930 . S
C153 N150 1.336 . S
C153 C152 1.346 . S
C153 H160 0.929 . S
C154 O144 1.282 . S
C154 O155 1.216 . S
O155 C154 1.216 . S
H156 C151 0.930 . S
H157 C152 0.930 . S
O158 Cu138 1.959 . S
O158 C145 1.251 . S
H159 C142 0.930 . S
H160 C153 0.929 . S
Cu161 N162 1.999 . S
Cu161 O167 1.974 . S
Cu161 N172 1.985 . S
Cu161 O181 1.959 . S
N162 Cu161 1.999 . S
N162 C164 1.263 . S
N162 C166 1.389 . S
N163 C164 1.358 . S
N163 C165 1.400 . S
C164 N162 1.263 . S
C164 N163 1.358 . S
C164 H170 0.930 . S
C165 N163 1.400 . S
C165 C166 1.351 . S
C165 H182 0.930 . S
C166 N162 1.389 . S
C166 C165 1.351 . S
C166 H171 0.930 . S
O167 Cu161 1.974 . S
O167 C177 1.282 . S
C168 O169 1.261 . S
C168 O181 1.251 . S
O169 C168 1.261 . S
H170 C164 0.930 . S
H171 C166 0.930 . S
N172 Cu161 1.985 . S
N172 C174 1.335 . S
N172 C175 1.390 . S
N173 C174 1.345 . S
N173 C176 1.336 . S
C174 N172 1.335 . S
C174 N173 1.345 . S
C174 H179 0.930 . S
C175 N172 1.390 . S
C175 C176 1.346 . S
C175 H180 0.930 . S
C176 N173 1.336 . S
C176 C175 1.346 . S
C176 H183 0.929 . S
C177 O167 1.282 . S
C177 O178 1.216 . S
O178 C177 1.216 . S
H179 C174 0.930 . S
H180 C175 0.930 . S
O181 Cu161 1.959 . S
O181 C168 1.251 . S
H182 C165 0.930 . S
H183 C176 0.929 . S
Cu184 N185 1.999 . S
Cu184 O190 1.974 . S
Cu184 N195 1.985 . S
Cu184 O204 1.959 . S
N185 Cu184 1.999 . S
N185 C187 1.263 . S
N185 C189 1.389 . S
N186 C187 1.358 . S
N186 C188 1.400 . S
C187 N185 1.263 . S
C187 N186 1.358 . S
C187 H193 0.930 . S
C188 N186 1.400 . S
C188 C189 1.351 . S
C188 H205 0.930 . S
C189 N185 1.389 . S
C189 C188 1.351 . S
C189 H194 0.930 . S
O190 Cu184 1.974 . S
O190 C200 1.282 . S
C191 O192 1.261 . S
C191 O204 1.251 . S
O192 C191 1.261 . S
H193 C187 0.930 . S
H194 C189 0.930 . S
N195 Cu184 1.985 . S
N195 C197 1.335 . S
N195 C198 1.390 . S
N196 C197 1.345 . S
N196 C199 1.336 . S
C197 N195 1.335 . S
C197 N196 1.345 . S
C197 H202 0.930 . S
C198 N195 1.390 . S
C198 C199 1.346 . S
C198 H203 0.930 . S
C199 N196 1.336 . S
C199 C198 1.346 . S
C199 H206 0.929 . S
C200 O190 1.282 . S
C200 O201 1.216 . S
O201 C200 1.216 . S
H202 C197 0.930 . S
H203 C198 0.930 . S
O204 Cu184 1.959 . S
O204 C191 1.251 . S
H205 C188 0.930 . S
H206 C199 0.929 . S
Cu207 N208 1.999 . S
Cu207 O213 1.974 . S
Cu207 N218 1.985 . S
Cu207 O227 1.959 . S
N208 Cu207 1.999 . S
N208 C210 1.263 . S
N208 C212 1.389 . S
N209 C210 1.358 . S
N209 C211 1.400 . S
C210 N208 1.263 . S
C210 N209 1.358 . S
C210 H216 0.930 . S
C211 N209 1.400 . S
C211 C212 1.351 . S
C211 H228 0.930 . S
C212 N208 1.389 . S
C212 C211 1.351 . S
C212 H217 0.930 . S
O213 Cu207 1.974 . S
O213 C223 1.282 . S
C214 O215 1.261 . S
C214 O227 1.251 . S
O215 C214 1.261 . S
H216 C210 0.930 . S
H217 C212 0.930 . S
N218 Cu207 1.985 . S
N218 C220 1.335 . S
N218 C221 1.390 . S
N219 C220 1.345 . S
N219 C222 1.336 . S
C220 N218 1.335 . S
C220 N219 1.345 . S
C220 H225 0.930 . S
C221 N218 1.390 . S
C221 C222 1.346 . S
C221 H226 0.930 . S
C222 N219 1.336 . S
C222 C221 1.346 . S
C222 H229 0.929 . S
C223 O213 1.282 . S
C223 O224 1.216 . S
O224 C223 1.216 . S
H225 C220 0.930 . S
H226 C221 0.930 . S
O227 Cu207 1.959 . S
O227 C214 1.251 . S
H228 C211 0.930 . S
H229 C222 0.929 . S
Cu230 N231 1.999 . S
Cu230 O236 1.974 . S
Cu230 N241 1.985 . S
Cu230 O250 1.959 . S
N231 Cu230 1.999 . S
N231 C233 1.263 . S
N231 C235 1.389 . S
N232 C233 1.358 . S
N232 C234 1.400 . S
C233 N231 1.263 . S
C233 N232 1.358 . S
C233 H239 0.930 . S
C234 N232 1.400 . S
C234 C235 1.351 . S
C234 H251 0.930 . S
C235 N231 1.389 . S
C235 C234 1.351 . S
C235 H240 0.930 . S
O236 Cu230 1.974 . S
O236 C246 1.282 . S
C237 O238 1.261 . S
C237 O250 1.251 . S
O238 C237 1.261 . S
H239 C233 0.930 . S
H240 C235 0.930 . S
N241 Cu230 1.985 . S
N241 C243 1.335 . S
N241 C244 1.390 . S
N242 C243 1.345 . S
N242 C245 1.336 . S
C243 N241 1.335 . S
C243 N242 1.345 . S
C243 H248 0.930 . S
C244 N241 1.390 . S
C244 C245 1.346 . S
C244 H249 0.930 . S
C245 N242 1.336 . S
C245 C244 1.346 . S
C245 H252 0.929 . S
C246 O236 1.282 . S
C246 O247 1.216 . S
O247 C246 1.216 . S
H248 C243 0.930 . S
H249 C244 0.930 . S
O250 Cu230 1.959 . S
O250 C237 1.251 . S
H251 C234 0.930 . S
H252 C245 0.929 . S
Cu253 N254 1.999 . S
Cu253 O259 1.974 . S
Cu253 N264 1.985 . S
Cu253 O273 1.959 . S
N254 Cu253 1.999 . S
N254 C256 1.263 . S
N254 C258 1.389 . S
N255 C256 1.358 . S
N255 C257 1.400 . S
C256 N254 1.263 . S
C256 N255 1.358 . S
C256 H262 0.930 . S
C257 N255 1.400 . S
C257 C258 1.351 . S
C257 H274 0.930 . S
C258 N254 1.389 . S
C258 C257 1.351 . S
C258 H263 0.930 . S
O259 Cu253 1.974 . S
O259 C269 1.282 . S
C260 O261 1.261 . S
C260 O273 1.251 . S
O261 C260 1.261 . S
H262 C256 0.930 . S
H263 C258 0.930 . S
N264 Cu253 1.985 . S
N264 C266 1.335 . S
N264 C267 1.390 . S
N265 C266 1.345 . S
N265 C268 1.336 . S
C266 N264 1.335 . S
C266 N265 1.345 . S
C266 H271 0.930 . S
C267 N264 1.390 . S
C267 C268 1.346 . S
C267 H272 0.930 . S
C268 N265 1.336 . S
C268 C267 1.346 . S
C268 H275 0.929 . S
C269 O259 1.282 . S
C269 O270 1.216 . S
O270 C269 1.216 . S
H271 C266 0.930 . S
H272 C267 0.930 . S
O273 Cu253 1.959 . S
O273 C260 1.251 . S
H274 C257 0.930 . S
H275 C268 0.929 . S
Zn276 O282 1.969 . S
Zn276 O283 1.965 . S
Zn276 O287 2.024 . S
Zn276 O292 1.969 . S
Zn277 O284 1.969 . S
Zn277 O290 1.969 . S
Zn277 O291 1.965 . S
Zn277 O293 2.024 . S
C278 O279 1.229 . S
C278 O287 1.058 . S
O279 C278 1.229 . S
C280 O281 1.229 . S
C280 O293 1.058 . S
O281 C280 1.229 . S
O282 Zn276 1.969 . S
O282 C285 1.267 . S
O283 Zn276 1.965 . S
O283 C294 1.260 . S
O284 Zn277 1.969 . S
O284 C294 1.258 . S
C285 O282 1.267 . S
C285 O286 1.228 . S
O286 C285 1.228 . S
O287 Zn276 2.024 . S
O287 C278 1.058 . S
C288 O289 1.228 . S
C288 O290 1.267 . S
O289 C288 1.228 . S
O290 Zn277 1.969 . S
O290 C288 1.267 . S
O291 Zn277 1.965 . S
O291 C295 1.260 . S
O292 Zn276 1.969 . S
O292 C295 1.258 . S
O293 Zn277 2.024 . S
O293 C280 1.058 . S
C294 O283 1.260 . S
C294 O284 1.258 . S
C295 O291 1.260 . S
C295 O292 1.258 . S
Zn296 O302 1.969 . S
Zn296 O303 1.965 . S
Zn296 O307 2.024 . S
Zn296 O312 1.969 . S
Zn297 O304 1.969 . S
Zn297 O310 1.969 . S
Zn297 O311 1.965 . S
Zn297 O313 2.024 . S
C298 O299 1.229 . S
C298 O307 1.058 . S
O299 C298 1.229 . S
C300 O301 1.229 . S
C300 O313 1.058 . S
O301 C300 1.229 . S
O302 Zn296 1.969 . S
O302 C305 1.267 . S
O303 Zn296 1.965 . S
O303 C314 1.260 . S
O304 Zn297 1.969 . S
O304 C314 1.258 . S
C305 O302 1.267 . S
C305 O306 1.228 . S
O306 C305 1.228 . S
O307 Zn296 2.024 . S
O307 C298 1.058 . S
C308 O309 1.228 . S
C308 O310 1.267 . S
O309 C308 1.228 . S
O310 Zn297 1.969 . S
O310 C308 1.267 . S
O311 Zn297 1.965 . S
O311 C315 1.260 . S
O312 Zn296 1.969 . S
O312 C315 1.258 . S
O313 Zn297 2.024 . S
O313 C300 1.058 . S
C314 O303 1.260 . S
C314 O304 1.258 . S
C315 O311 1.260 . S
C315 O312 1.258 . S
Zn316 O322 1.969 . S
Zn316 O323 1.965 . S
Zn316 O327 2.024 . S
Zn316 O332 1.969 . S
Zn317 O324 1.969 . S
Zn317 O330 1.969 . S
Zn317 O331 1.965 . S
Zn317 O333 2.024 . S
C318 O319 1.229 . S
C318 O327 1.058 . S
O319 C318 1.229 . S
C320 O321 1.229 . S
C320 O333 1.058 . S
O321 C320 1.229 . S
O322 Zn316 1.969 . S
O322 C325 1.267 . S
O323 Zn316 1.965 . S
O323 C334 1.260 . S
O324 Zn317 1.969 . S
O324 C334 1.258 . S
C325 O322 1.267 . S
C325 O326 1.228 . S
O326 C325 1.228 . S
O327 Zn316 2.024 . S
O327 C318 1.058 . S
C328 O329 1.228 . S
C328 O330 1.267 . S
O329 C328 1.228 . S
O330 Zn317 1.969 . S
O330 C328 1.267 . S
O331 Zn317 1.965 . S
O331 C335 1.260 . S
O332 Zn316 1.969 . S
O332 C335 1.258 . S
O333 Zn317 2.024 . S
O333 C320 1.058 . S
C334 O323 1.260 . S
C334 O324 1.258 . S
C335 O331 1.260 . S
C335 O332 1.258 . S
Zn336 O342 1.969 . S
Zn336 O343 1.965 . S
Zn336 O347 2.024 . S
Zn336 O352 1.969 . S
Zn337 O344 1.969 . S
Zn337 O350 1.969 . S
Zn337 O351 1.965 . S
Zn337 O353 2.024 . S
C338 O339 1.229 . S
C338 O347 1.058 . S
O339 C338 1.229 . S
C340 O341 1.229 . S
C340 O353 1.058 . S
O341 C340 1.229 . S
O342 Zn336 1.969 . S
O342 C345 1.267 . S
O343 Zn336 1.965 . S
O343 C354 1.260 . S
O344 Zn337 1.969 . S
O344 C354 1.258 . S
C345 O342 1.267 . S
C345 O346 1.228 . S
O346 C345 1.228 . S
O347 Zn336 2.024 . S
O347 C338 1.058 . S
C348 O349 1.228 . S
C348 O350 1.267 . S
O349 C348 1.228 . S
O350 Zn337 1.969 . S
O350 C348 1.267 . S
O351 Zn337 1.965 . S
O351 C355 1.260 . S
O352 Zn336 1.969 . S
O352 C355 1.258 . S
O353 Zn337 2.024 . S
O353 C340 1.058 . S
C354 O343 1.260 . S
C354 O344 1.258 . S
C355 O351 1.260 . S
C355 O352 1.258 . S
Zn356 O362 1.969 . S
Zn356 O363 1.965 . S
Zn356 O367 2.024 . S
Zn356 O372 1.969 . S
Zn357 O364 1.969 . S
Zn357 O370 1.969 . S
Zn357 O371 1.965 . S
Zn357 O373 2.024 . S
C358 O359 1.229 . S
C358 O367 1.058 . S
O359 C358 1.229 . S
C360 O361 1.229 . S
C360 O373 1.058 . S
O361 C360 1.229 . S
O362 Zn356 1.969 . S
O362 C365 1.267 . S
O363 Zn356 1.965 . S
O363 C374 1.260 . S
O364 Zn357 1.969 . S
O364 C374 1.258 . S
C365 O362 1.267 . S
C365 O366 1.228 . S
O366 C365 1.228 . S
O367 Zn356 2.024 . S
O367 C358 1.058 . S
C368 O369 1.228 . S
C368 O370 1.267 . S
O369 C368 1.228 . S
O370 Zn357 1.969 . S
O370 C368 1.267 . S
O371 Zn357 1.965 . S
O371 C375 1.260 . S
O372 Zn356 1.969 . S
O372 C375 1.258 . S
O373 Zn357 2.024 . S
O373 C360 1.058 . S
C374 O363 1.260 . S
C374 O364 1.258 . S
C375 O371 1.260 . S
C375 O372 1.258 . S
Zn376 O382 1.969 . S
Zn376 O383 1.965 . S
Zn376 O387 2.024 . S
Zn376 O392 1.969 . S
Zn377 O384 1.969 . S
Zn377 O390 1.969 . S
Zn377 O391 1.965 . S
Zn377 O393 2.024 . S
C378 O379 1.229 . S
C378 O387 1.058 . S
O379 C378 1.229 . S
C380 O381 1.229 . S
C380 O393 1.058 . S
O381 C380 1.229 . S
O382 Zn376 1.969 . S
O382 C385 1.267 . S
O383 Zn376 1.965 . S
O383 C394 1.260 . S
O384 Zn377 1.969 . S
O384 C394 1.258 . S
C385 O382 1.267 . S
C385 O386 1.228 . S
O386 C385 1.228 . S
O387 Zn376 2.024 . S
O387 C378 1.058 . S
C388 O389 1.228 . S
C388 O390 1.267 . S
O389 C388 1.228 . S
O390 Zn377 1.969 . S
O390 C388 1.267 . S
O391 Zn377 1.965 . S
O391 C395 1.260 . S
O392 Zn376 1.969 . S
O392 C395 1.258 . S
O393 Zn377 2.024 . S
O393 C380 1.058 . S
C394 O383 1.260 . S
C394 O384 1.258 . S
C395 O391 1.260 . S
C395 O392 1.258 . S
Zn396 O402 1.969 . S
Zn396 O403 1.965 . S
Zn396 O407 2.024 . S
Zn396 O412 1.969 . S
Zn397 O404 1.969 . S
Zn397 O410 1.969 . S
Zn397 O411 1.965 . S
Zn397 O413 2.024 . S
C398 O399 1.229 . S
C398 O407 1.058 . S
O399 C398 1.229 . S
C400 O401 1.229 . S
C400 O413 1.058 . S
O401 C400 1.229 . S
O402 Zn396 1.969 . S
O402 C405 1.267 . S
O403 Zn396 1.965 . S
O403 C414 1.260 . S
O404 Zn397 1.969 . S
O404 C414 1.258 . S
C405 O402 1.267 . S
C405 O406 1.228 . S
O406 C405 1.228 . S
O407 Zn396 2.024 . S
O407 C398 1.058 . S
C408 O409 1.228 . S
C408 O410 1.267 . S
O409 C408 1.228 . S
O410 Zn397 1.969 . S
O410 C408 1.267 . S
O411 Zn397 1.965 . S
O411 C415 1.260 . S
O412 Zn396 1.969 . S
O412 C415 1.258 . S
O413 Zn397 2.024 . S
O413 C400 1.058 . S
C414 O403 1.260 . S
C414 O404 1.258 . S
C415 O411 1.260 . S
C415 O412 1.258 . S
Zn416 O422 1.969 . S
Zn416 O423 1.965 . S
Zn416 O427 2.024 . S
Zn416 O432 1.969 . S
Zn417 O424 1.969 . S
Zn417 O430 1.969 . S
Zn417 O431 1.965 . S
Zn417 O433 2.024 . S
C418 O419 1.229 . S
C418 O427 1.058 . S
O419 C418 1.229 . S
C420 O421 1.229 . S
C420 O433 1.058 . S
O421 C420 1.229 . S
O422 Zn416 1.969 . S
O422 C425 1.267 . S
O423 Zn416 1.965 . S
O423 C434 1.260 . S
O424 Zn417 1.969 . S
O424 C434 1.258 . S
C425 O422 1.267 . S
C425 O426 1.228 . S
O426 C425 1.228 . S
O427 Zn416 2.024 . S
O427 C418 1.058 . S
C428 O429 1.228 . S
C428 O430 1.267 . S
O429 C428 1.228 . S
O430 Zn417 1.969 . S
O430 C428 1.267 . S
O431 Zn417 1.965 . S
O431 C435 1.260 . S
O432 Zn416 1.969 . S
O432 C435 1.258 . S
O433 Zn417 2.024 . S
O433 C420 1.058 . S
C434 O423 1.260 . S
C434 O424 1.258 . S
C435 O431 1.260 . S
C435 O432 1.258 . S
C436 C437 1.349 . S
C436 C438 1.327 . S
C436 H461 0.950 . S
C437 C436 1.349 . S
C437 C453 1.349 . S
C438 C436 1.327 . S
C438 C457 1.429 . S
C438 H462 0.950 . S
C439 C456 1.574 . S
C439 C458 1.368 . S
C439 H463 0.949 . S
H440 C444 0.949 . S
C441 C442 1.349 . S
C441 C443 1.327 . S
C441 H464 0.950 . S
C442 C441 1.349 . S
C442 C454 1.349 . S
C443 C441 1.327 . S
C443 C459 1.429 . S
C443 H465 0.950 . S
C444 H440 0.949 . S
C444 C452 1.574 . S
C444 C460 1.368 . S
H445 C453 0.950 . S
H446 C451 0.950 . S
H447 C452 0.949 . S
H448 C454 0.950 . S
H449 C455 0.950 . S
H450 C456 0.949 . S
C451 H446 0.950 . S
C451 C453 1.327 . S
C451 C457 1.429 . S
C452 C444 1.574 . S
C452 H447 0.949 . S
C452 C458 1.368 . S
C453 C437 1.349 . S
C453 H445 0.950 . S
C453 C451 1.327 . S
C454 C442 1.349 . S
C454 H448 0.950 . S
C454 C455 1.327 . S
C455 H449 0.950 . S
C455 C454 1.327 . S
C455 C459 1.429 . S
C456 C439 1.574 . S
C456 H450 0.949 . S
C456 C460 1.368 . S
C457 C438 1.429 . S
C457 C451 1.429 . S
C457 C458 1.523 . S
C458 C439 1.368 . S
C458 C452 1.368 . S
C458 C457 1.523 . S
C459 C443 1.429 . S
C459 C455 1.429 . S
C459 C460 1.523 . S
C460 C444 1.368 . S
C460 C456 1.368 . S
C460 C459 1.523 . S
H461 C436 0.950 . S
H462 C438 0.950 . S
H463 C439 0.949 . S
H464 C441 0.950 . S
H465 C443 0.950 . S
C466 C467 1.349 . S
C466 C468 1.327 . S
C466 H491 0.950 . S
C467 C466 1.349 . S
C467 C483 1.349 . S
C468 C466 1.327 . S
C468 C487 1.429 . S
C468 H492 0.950 . S
C469 C486 1.574 . S
C469 C488 1.368 . S
C469 H493 0.949 . S
H470 C474 0.949 . S
C471 C472 1.349 . S
C471 C473 1.327 . S
C471 H494 0.950 . S
C472 C471 1.349 . S
C472 C484 1.349 . S
C473 C471 1.327 . S
C473 C489 1.429 . S
C473 H495 0.950 . S
C474 H470 0.949 . S
C474 C482 1.574 . S
C474 C490 1.368 . S
H475 C483 0.950 . S
H476 C481 0.950 . S
H477 C482 0.949 . S
H478 C484 0.950 . S
H479 C485 0.950 . S
H480 C486 0.949 . S
C481 H476 0.950 . S
C481 C483 1.327 . S
C481 C487 1.429 . S
C482 C474 1.574 . S
C482 H477 0.949 . S
C482 C488 1.368 . S
C483 C467 1.349 . S
C483 H475 0.950 . S
C483 C481 1.327 . S
C484 C472 1.349 . S
C484 H478 0.950 . S
C484 C485 1.327 . S
C485 H479 0.950 . S
C485 C484 1.327 . S
C485 C489 1.429 . S
C486 C469 1.574 . S
C486 H480 0.949 . S
C486 C490 1.368 . S
C487 C468 1.429 . S
C487 C481 1.429 . S
C487 C488 1.523 . S
C488 C469 1.368 . S
C488 C482 1.368 . S
C488 C487 1.523 . S
C489 C473 1.429 . S
C489 C485 1.429 . S
C489 C490 1.523 . S
C490 C474 1.368 . S
C490 C486 1.368 . S
C490 C489 1.523 . S
H491 C466 0.950 . S
H492 C468 0.950 . S
H493 C469 0.949 . S
H494 C471 0.950 . S
H495 C473 0.950 . S
C496 C497 1.349 . S
C496 C498 1.327 . S
C496 H521 0.950 . S
C497 C496 1.349 . S
C497 C513 1.349 . S
C498 C496 1.327 . S
C498 C517 1.429 . S
C498 H522 0.950 . S
C499 C516 1.574 . S
C499 C518 1.368 . S
C499 H523 0.949 . S
H500 C504 0.949 . S
C501 C502 1.349 . S
C501 C503 1.327 . S
C501 H524 0.950 . S
C502 C501 1.349 . S
C502 C514 1.349 . S
C503 C501 1.327 . S
C503 C519 1.429 . S
C503 H525 0.950 . S
C504 H500 0.949 . S
C504 C512 1.574 . S
C504 C520 1.368 . S
H505 C513 0.950 . S
H506 C511 0.950 . S
H507 C512 0.949 . S
H508 C514 0.950 . S
H509 C515 0.950 . S
H510 C516 0.949 . S
C511 H506 0.950 . S
C511 C513 1.327 . S
C511 C517 1.429 . S
C512 C504 1.574 . S
C512 H507 0.949 . S
C512 C518 1.368 . S
C513 C497 1.349 . S
C513 H505 0.950 . S
C513 C511 1.327 . S
C514 C502 1.349 . S
C514 H508 0.950 . S
C514 C515 1.327 . S
C515 H509 0.950 . S
C515 C514 1.327 . S
C515 C519 1.429 . S
C516 C499 1.574 . S
C516 H510 0.949 . S
C516 C520 1.368 . S
C517 C498 1.429 . S
C517 C511 1.429 . S
C517 C518 1.523 . S
C518 C499 1.368 . S
C518 C512 1.368 . S
C518 C517 1.523 . S
C519 C503 1.429 . S
C519 C515 1.429 . S
C519 C520 1.523 . S
C520 C504 1.368 . S
C520 C516 1.368 . S
C520 C519 1.523 . S
H521 C496 0.950 . S
H522 C498 0.950 . S
H523 C499 0.949 . S
H524 C501 0.950 . S
H525 C503 0.950 . S
C526 C527 1.349 . S
C526 C528 1.327 . S
C526 H551 0.950 . S
C527 C526 1.349 . S
C527 C543 1.349 . S
C528 C526 1.327 . S
C528 C547 1.429 . S
C528 H552 0.950 . S
C529 C546 1.574 . S
C529 C548 1.368 . S
C529 H553 0.949 . S
H530 C534 0.949 . S
C531 C532 1.349 . S
C531 C533 1.327 . S
C531 H554 0.950 . S
C532 C531 1.349 . S
C532 C544 1.349 . S
C533 C531 1.327 . S
C533 C549 1.429 . S
C533 H555 0.950 . S
C534 H530 0.949 . S
C534 C542 1.574 . S
C534 C550 1.368 . S
H535 C543 0.950 . S
H536 C541 0.950 . S
H537 C542 0.949 . S
H538 C544 0.950 . S
H539 C545 0.950 . S
H540 C546 0.949 . S
C541 H536 0.950 . S
C541 C543 1.327 . S
C541 C547 1.429 . S
C542 C534 1.574 . S
C542 H537 0.949 . S
C542 C548 1.368 . S
C543 C527 1.349 . S
C543 H535 0.950 . S
C543 C541 1.327 . S
C544 C532 1.349 . S
C544 H538 0.950 . S
C544 C545 1.327 . S
C545 H539 0.950 . S
C545 C544 1.327 . S
C545 C549 1.429 . S
C546 C529 1.574 . S
C546 H540 0.949 . S
C546 C550 1.368 . S
C547 C528 1.429 . S
C547 C541 1.429 . S
C547 C548 1.523 . S
C548 C529 1.368 . S
C548 C542 1.368 . S
C548 C547 1.523 . S
C549 C533 1.429 . S
C549 C545 1.429 . S
C549 C550 1.523 . S
C550 C534 1.368 . S
C550 C546 1.368 . S
C550 C549 1.523 . S
H551 C526 0.950 . S
H552 C528 0.950 . S
H553 C529 0.949 . S
H554 C531 0.950 . S
H555 C533 0.950 . S
C556 C557 1.349 . S
C556 C558 1.327 . S
C556 H581 0.950 . S
C557 C556 1.349 . S
C557 C573 1.349 . S
C558 C556 1.327 . S
C558 C577 1.429 . S
C558 H582 0.950 . S
C559 C576 1.574 . S
C559 C578 1.368 . S
C559 H583 0.949 . S
H560 C564 0.949 . S
C561 C562 1.349 . S
C561 C563 1.327 . S
C561 H584 0.950 . S
C562 C561 1.349 . S
C562 C574 1.349 . S
C563 C561 1.327 . S
C563 C579 1.429 . S
C563 H585 0.950 . S
C564 H560 0.949 . S
C564 C572 1.574 . S
C564 C580 1.368 . S
H565 C573 0.950 . S
H566 C571 0.950 . S
H567 C572 0.949 . S
H568 C574 0.950 . S
H569 C575 0.950 . S
H570 C576 0.949 . S
C571 H566 0.950 . S
C571 C573 1.327 . S
C571 C577 1.429 . S
C572 C564 1.574 . S
C572 H567 0.949 . S
C572 C578 1.368 . S
C573 C557 1.349 . S
C573 H565 0.950 . S
C573 C571 1.327 . S
C574 C562 1.349 . S
C574 H568 0.950 . S
C574 C575 1.327 . S
C575 H569 0.950 . S
C575 C574 1.327 . S
C575 C579 1.429 . S
C576 C559 1.574 . S
C576 H570 0.949 . S
C576 C580 1.368 . S
C577 C558 1.429 . S
C577 C571 1.429 . S
C577 C578 1.523 . S
C578 C559 1.368 . S
C578 C572 1.368 . S
C578 C577 1.523 . S
C579 C563 1.429 . S
C579 C575 1.429 . S
C579 C580 1.523 . S
C580 C564 1.368 . S
C580 C576 1.368 . S
C580 C579 1.523 . S
H581 C556 0.950 . S
H582 C558 0.950 . S
H583 C559 0.949 . S
H584 C561 0.950 . S
H585 C563 0.950 . S
C586 C587 1.349 . S
C586 C588 1.327 . S
C586 H611 0.950 . S
C587 C586 1.349 . S
C587 C603 1.349 . S
C588 C586 1.327 . S
C588 C607 1.429 . S
C588 H612 0.950 . S
C589 C606 1.574 . S
C589 C608 1.368 . S
C589 H613 0.949 . S
H590 C594 0.949 . S
C591 C592 1.349 . S
C591 C593 1.327 . S
C591 H614 0.950 . S
C592 C591 1.349 . S
C592 C604 1.349 . S
C593 C591 1.327 . S
C593 C609 1.429 . S
C593 H615 0.950 . S
C594 H590 0.949 . S
C594 C602 1.574 . S
C594 C610 1.368 . S
H595 C603 0.950 . S
H596 C601 0.950 . S
H597 C602 0.949 . S
H598 C604 0.950 . S
H599 C605 0.950 . S
H600 C606 0.949 . S
C601 H596 0.950 . S
C601 C603 1.327 . S
C601 C607 1.429 . S
C602 C594 1.574 . S
C602 H597 0.949 . S
C602 C608 1.368 . S
C603 C587 1.349 . S
C603 H595 0.950 . S
C603 C601 1.327 . S
C604 C592 1.349 . S
C604 H598 0.950 . S
C604 C605 1.327 . S
C605 H599 0.950 . S
C605 C604 1.327 . S
C605 C609 1.429 . S
C606 C589 1.574 . S
C606 H600 0.949 . S
C606 C610 1.368 . S
C607 C588 1.429 . S
C607 C601 1.429 . S
C607 C608 1.523 . S
C608 C589 1.368 . S
C608 C602 1.368 . S
C608 C607 1.523 . S
C609 C593 1.429 . S
C609 C605 1.429 . S
C609 C610 1.523 . S
C610 C594 1.368 . S
C610 C606 1.368 . S
C610 C609 1.523 . S
H611 C586 0.950 . S
H612 C588 0.950 . S
H613 C589 0.949 . S
H614 C591 0.950 . S
H615 C593 0.950 . S
C616 C617 1.349 . S
C616 C618 1.327 . S
C616 H641 0.950 . S
C617 C616 1.349 . S
C617 C633 1.349 . S
C618 C616 1.327 . S
C618 C637 1.429 . S
C618 H642 0.950 . S
C619 C636 1.574 . S
C619 C638 1.368 . S
C619 H643 0.949 . S
H620 C624 0.949 . S
C621 C622 1.349 . S
C621 C623 1.327 . S
C621 H644 0.950 . S
C622 C621 1.349 . S
C622 C634 1.349 . S
C623 C621 1.327 . S
C623 C639 1.429 . S
C623 H645 0.950 . S
C624 H620 0.949 . S
C624 C632 1.574 . S
C624 C640 1.368 . S
H625 C633 0.950 . S
H626 C631 0.950 . S
H627 C632 0.949 . S
H628 C634 0.950 . S
H629 C635 0.950 . S
H630 C636 0.949 . S
C631 H626 0.950 . S
C631 C633 1.327 . S
C631 C637 1.429 . S
C632 C624 1.574 . S
C632 H627 0.949 . S
C632 C638 1.368 . S
C633 C617 1.349 . S
C633 H625 0.950 . S
C633 C631 1.327 . S
C634 C622 1.349 . S
C634 H628 0.950 . S
C634 C635 1.327 . S
C635 H629 0.950 . S
C635 C634 1.327 . S
C635 C639 1.429 . S
C636 C619 1.574 . S
C636 H630 0.949 . S
C636 C640 1.368 . S
C637 C618 1.429 . S
C637 C631 1.429 . S
C637 C638 1.523 . S
C638 C619 1.368 . S
C638 C632 1.368 . S
C638 C637 1.523 . S
C639 C623 1.429 . S
C639 C635 1.429 . S
C639 C640 1.523 . S
C640 C624 1.368 . S
C640 C636 1.368 . S
C640 C639 1.523 . S
H641 C616 0.950 . S
H642 C618 0.950 . S
H643 C619 0.949 . S
H644 C621 0.950 . S
H645 C623 0.950 . S
C646 C647 1.349 . S
C646 C648 1.327 . S
C646 H671 0.950 . S
C647 C646 1.349 . S
C647 C663 1.349 . S
C648 C646 1.327 . S
C648 C667 1.429 . S
C648 H672 0.950 . S
C649 C666 1.574 . S
C649 C668 1.368 . S
C649 H673 0.949 . S
H650 C654 0.949 . S
C651 C652 1.349 . S
C651 C653 1.327 . S
C651 H674 0.950 . S
C652 C651 1.349 . S
C652 C664 1.349 . S
C653 C651 1.327 . S
C653 C669 1.429 . S
C653 H675 0.950 . S
C654 H650 0.949 . S
C654 C662 1.574 . S
C654 C670 1.368 . S
H655 C663 0.950 . S
H656 C661 0.950 . S
H657 C662 0.949 . S
H658 C664 0.950 . S
H659 C665 0.950 . S
H660 C666 0.949 . S
C661 H656 0.950 . S
C661 C663 1.327 . S
C661 C667 1.429 . S
C662 C654 1.574 . S
C662 H657 0.949 . S
C662 C668 1.368 . S
C663 C647 1.349 . S
C663 H655 0.950 . S
C663 C661 1.327 . S
C664 C652 1.349 . S
C664 H658 0.950 . S
C664 C665 1.327 . S
C665 H659 0.950 . S
C665 C664 1.327 . S
C665 C669 1.429 . S
C666 C649 1.574 . S
C666 H660 0.949 . S
C666 C670 1.368 . S
C667 C648 1.429 . S
C667 C661 1.429 . S
C667 C668 1.523 . S
C668 C649 1.368 . S
C668 C662 1.368 . S
C668 C667 1.523 . S
C669 C653 1.429 . S
C669 C665 1.429 . S
C669 C670 1.523 . S
C670 C654 1.368 . S
C670 C666 1.368 . S
C670 C669 1.523 . S
H671 C646 0.950 . S
H672 C648 0.950 . S
H673 C649 0.949 . S
H674 C651 0.950 . S
H675 C653 0.950 . S
C676 C677 1.349 . S
C676 C678 1.327 . S
C676 H701 0.950 . S
C677 C676 1.349 . S
C677 C693 1.349 . S
C678 C676 1.327 . S
C678 C697 1.429 . S
C678 H702 0.950 . S
C679 C696 1.574 . S
C679 C698 1.368 . S
C679 H703 0.949 . S
H680 C684 0.949 . S
C681 C682 1.349 . S
C681 C683 1.327 . S
C681 H704 0.950 . S
C682 C681 1.349 . S
C682 C694 1.349 . S
C683 C681 1.327 . S
C683 C699 1.429 . S
C683 H705 0.950 . S
C684 H680 0.949 . S
C684 C692 1.574 . S
C684 C700 1.368 . S
H685 C693 0.950 . S
H686 C691 0.950 . S
H687 C692 0.949 . S
H688 C694 0.950 . S
H689 C695 0.950 . S
H690 C696 0.949 . S
C691 H686 0.950 . S
C691 C693 1.327 . S
C691 C697 1.429 . S
C692 C684 1.574 . S
C692 H687 0.949 . S
C692 C698 1.368 . S
C693 C677 1.349 . S
C693 H685 0.950 . S
C693 C691 1.327 . S
C694 C682 1.349 . S
C694 H688 0.950 . S
C694 C695 1.327 . S
C695 H689 0.950 . S
C695 C694 1.327 . S
C695 C699 1.429 . S
C696 C679 1.574 . S
C696 H690 0.949 . S
C696 C700 1.368 . S
C697 C678 1.429 . S
C697 C691 1.429 . S
C697 C698 1.523 . S
C698 C679 1.368 . S
C698 C692 1.368 . S
C698 C697 1.523 . S
C699 C683 1.429 . S
C699 C695 1.429 . S
C699 C700 1.523 . S
C700 C684 1.368 . S
C700 C696 1.368 . S
C700 C699 1.523 . S
H701 C676 0.950 . S
H702 C678 0.950 . S
H703 C679 0.949 . S
H704 C681 0.950 . S
H705 C683 0.950 . S
C706 C707 1.349 . S
C706 C708 1.327 . S
C706 H731 0.950 . S
C707 C706 1.349 . S
C707 C723 1.349 . S
C708 C706 1.327 . S
C708 C727 1.429 . S
C708 H732 0.950 . S
C709 C726 1.574 . S
C709 C728 1.368 . S
C709 H733 0.949 . S
H710 C714 0.949 . S
C711 C712 1.349 . S
C711 C713 1.327 . S
C711 H734 0.950 . S
C712 C711 1.349 . S
C712 C724 1.349 . S
C713 C711 1.327 . S
C713 C729 1.429 . S
C713 H735 0.950 . S
C714 H710 0.949 . S
C714 C722 1.574 . S
C714 C730 1.368 . S
H715 C723 0.950 . S
H716 C721 0.950 . S
H717 C722 0.949 . S
H718 C724 0.950 . S
H719 C725 0.950 . S
H720 C726 0.949 . S
C721 H716 0.950 . S
C721 C723 1.327 . S
C721 C727 1.429 . S
C722 C714 1.574 . S
C722 H717 0.949 . S
C722 C728 1.368 . S
C723 C707 1.349 . S
C723 H715 0.950 . S
C723 C721 1.327 . S
C724 C712 1.349 . S
C724 H718 0.950 . S
C724 C725 1.327 . S
C725 H719 0.950 . S
C725 C724 1.327 . S
C725 C729 1.429 . S
C726 C709 1.574 . S
C726 H720 0.949 . S
C726 C730 1.368 . S
C727 C708 1.429 . S
C727 C721 1.429 . S
C727 C728 1.523 . S
C728 C709 1.368 . S
C728 C722 1.368 . S
C728 C727 1.523 . S
C729 C713 1.429 . S
C729 C725 1.429 . S
C729 C730 1.523 . S
C730 C714 1.368 . S
C730 C726 1.368 . S
C730 C729 1.523 . S
H731 C706 0.950 . S
H732 C708 0.950 . S
H733 C709 0.949 . S
H734 C711 0.950 . S
H735 C713 0.950 . S
C736 C737 1.349 . S
C736 C738 1.327 . S
C736 H761 0.950 . S
C737 C736 1.349 . S
C737 C753 1.349 . S
C738 C736 1.327 . S
C738 C757 1.429 . S
C738 H762 0.950 . S
C739 C756 1.574 . S
C739 C758 1.368 . S
C739 H763 0.949 . S
H740 C744 0.949 . S
C741 C742 1.349 . S
C741 C743 1.327 . S
C741 H764 0.950 . S
C742 C741 1.349 . S
C742 C754 1.349 . S
C743 C741 1.327 . S
C743 C759 1.429 . S
C743 H765 0.950 . S
C744 H740 0.949 . S
C744 C752 1.574 . S
C744 C760 1.368 . S
H745 C753 0.950 . S
H746 C751 0.950 . S
H747 C752 0.949 . S
H748 C754 0.950 . S
H749 C755 0.950 . S
H750 C756 0.949 . S
C751 H746 0.950 . S
C751 C753 1.327 . S
C751 C757 1.429 . S
C752 C744 1.574 . S
C752 H747 0.949 . S
C752 C758 1.368 . S
C753 C737 1.349 . S
C753 H745 0.950 . S
C753 C751 1.327 . S
C754 C742 1.349 . S
C754 H748 0.950 . S
C754 C755 1.327 . S
C755 H749 0.950 . S
C755 C754 1.327 . S
C755 C759 1.429 . S
C756 C739 1.574 . S
C756 H750 0.949 . S
C756 C760 1.368 . S
C757 C738 1.429 . S
C757 C751 1.429 . S
C757 C758 1.523 . S
C758 C739 1.368 . S
C758 C752 1.368 . S
C758 C757 1.523 . S
C759 C743 1.429 . S
C759 C755 1.429 . S
C759 C760 1.523 . S
C760 C744 1.368 . S
C760 C756 1.368 . S
C760 C759 1.523 . S
H761 C736 0.950 . S
H762 C738 0.950 . S
H763 C739 0.949 . S
H764 C741 0.950 . S
H765 C743 0.950 . S
C766 C767 1.349 . S
C766 C768 1.327 . S
C766 H791 0.950 . S
C767 C766 1.349 . S
C767 C783 1.349 . S
C768 C766 1.327 . S
C768 C787 1.429 . S
C768 H792 0.950 . S
C769 C786 1.574 . S
C769 C788 1.368 . S
C769 H793 0.949 . S
H770 C774 0.949 . S
C771 C772 1.349 . S
C771 C773 1.327 . S
C771 H794 0.950 . S
C772 C771 1.349 . S
C772 C784 1.349 . S
C773 C771 1.327 . S
C773 C789 1.429 . S
C773 H795 0.950 . S
C774 H770 0.949 . S
C774 C782 1.574 . S
C774 C790 1.368 . S
H775 C783 0.950 . S
H776 C781 0.950 . S
H777 C782 0.949 . S
H778 C784 0.950 . S
H779 C785 0.950 . S
H780 C786 0.949 . S
C781 H776 0.950 . S
C781 C783 1.327 . S
C781 C787 1.429 . S
C782 C774 1.574 . S
C782 H777 0.949 . S
C782 C788 1.368 . S
C783 C767 1.349 . S
C783 H775 0.950 . S
C783 C781 1.327 . S
C784 C772 1.349 . S
C784 H778 0.950 . S
C784 C785 1.327 . S
C785 H779 0.950 . S
C785 C784 1.327 . S
C785 C789 1.429 . S
C786 C769 1.574 . S
C786 H780 0.949 . S
C786 C790 1.368 . S
C787 C768 1.429 . S
C787 C781 1.429 . S
C787 C788 1.523 . S
C788 C769 1.368 . S
C788 C782 1.368 . S
C788 C787 1.523 . S
C789 C773 1.429 . S
C789 C785 1.429 . S
C789 C790 1.523 . S
C790 C774 1.368 . S
C790 C786 1.368 . S
C790 C789 1.523 . S
H791 C766 0.950 . S
H792 C768 0.950 . S
H793 C769 0.949 . S
H794 C771 0.950 . S
H795 C773 0.950 . S
C796 C797 1.349 . S
C796 C798 1.327 . S
C796 H821 0.950 . S
C797 C796 1.349 . S
C797 C813 1.349 . S
C798 C796 1.327 . S
C798 C817 1.429 . S
C798 H822 0.950 . S
C799 C816 1.574 . S
C799 C818 1.368 . S
C799 H823 0.949 . S
H800 C804 0.949 . S
C801 C802 1.349 . S
C801 C803 1.327 . S
C801 H824 0.950 . S
C802 C801 1.349 . S
C802 C814 1.349 . S
C803 C801 1.327 . S
C803 C819 1.429 . S
C803 H825 0.950 . S
C804 H800 0.949 . S
C804 C812 1.574 . S
C804 C820 1.368 . S
H805 C813 0.950 . S
H806 C811 0.950 . S
H807 C812 0.949 . S
H808 C814 0.950 . S
H809 C815 0.950 . S
H810 C816 0.949 . S
C811 H806 0.950 . S
C811 C813 1.327 . S
C811 C817 1.429 . S
C812 C804 1.574 . S
C812 H807 0.949 . S
C812 C818 1.368 . S
C813 C797 1.349 . S
C813 H805 0.950 . S
C813 C811 1.327 . S
C814 C802 1.349 . S
C814 H808 0.950 . S
C814 C815 1.327 . S
C815 H809 0.950 . S
C815 C814 1.327 . S
C815 C819 1.429 . S
C816 C799 1.574 . S
C816 H810 0.949 . S
C816 C820 1.368 . S
C817 C798 1.429 . S
C817 C811 1.429 . S
C817 C818 1.523 . S
C818 C799 1.368 . S
C818 C812 1.368 . S
C818 C817 1.523 . S
C819 C803 1.429 . S
C819 C815 1.429 . S
C819 C820 1.523 . S
C820 C804 1.368 . S
C820 C816 1.368 . S
C820 C819 1.523 . S
H821 C796 0.950 . S
H822 C798 0.950 . S
H823 C799 0.949 . S
H824 C801 0.950 . S
H825 C803 0.950 . S
C826 C827 1.349 . S
C826 C828 1.327 . S
C826 H851 0.950 . S
C827 C826 1.349 . S
C827 C843 1.349 . S
C828 C826 1.327 . S
C828 C847 1.429 . S
C828 H852 0.950 . S
C829 C846 1.574 . S
C829 C848 1.368 . S
C829 H853 0.949 . S
H830 C834 0.949 . S
C831 C832 1.349 . S
C831 C833 1.327 . S
C831 H854 0.950 . S
C832 C831 1.349 . S
C832 C844 1.349 . S
C833 C831 1.327 . S
C833 C849 1.429 . S
C833 H855 0.950 . S
C834 H830 0.949 . S
C834 C842 1.574 . S
C834 C850 1.368 . S
H835 C843 0.950 . S
H836 C841 0.950 . S
H837 C842 0.949 . S
H838 C844 0.950 . S
H839 C845 0.950 . S
H840 C846 0.949 . S
C841 H836 0.950 . S
C841 C843 1.327 . S
C841 C847 1.429 . S
C842 C834 1.574 . S
C842 H837 0.949 . S
C842 C848 1.368 . S
C843 C827 1.349 . S
C843 H835 0.950 . S
C843 C841 1.327 . S
C844 C832 1.349 . S
C844 H838 0.950 . S
C844 C845 1.327 . S
C845 H839 0.950 . S
C845 C844 1.327 . S
C845 C849 1.429 . S
C846 C829 1.574 . S
C846 H840 0.949 . S
C846 C850 1.368 . S
C847 C828 1.429 . S
C847 C841 1.429 . S
C847 C848 1.523 . S
C848 C829 1.368 . S
C848 C842 1.368 . S
C848 C847 1.523 . S
C849 C833 1.429 . S
C849 C845 1.429 . S
C849 C850 1.523 . S
C850 C834 1.368 . S
C850 C846 1.368 . S
C850 C849 1.523 . S
H851 C826 0.950 . S
H852 C828 0.950 . S
H853 C829 0.949 . S
H854 C831 0.950 . S
H855 C833 0.950 . S
C856 C857 1.349 . S
C856 C858 1.327 . S
C856 H881 0.950 . S
C857 C856 1.349 . S
C857 C873 1.349 . S
C858 C856 1.327 . S
C858 C877 1.429 . S
C858 H882 0.950 . S
C859 C876 1.574 . S
C859 C878 1.368 . S
C859 H883 0.949 . S
H860 C864 0.949 . S
C861 C862 1.349 . S
C861 C863 1.327 . S
C861 H884 0.950 . S
C862 C861 1.349 . S
C862 C874 1.349 . S
C863 C861 1.327 . S
C863 C879 1.429 . S
C863 H885 0.950 . S
C864 H860 0.949 . S
C864 C872 1.574 . S
C864 C880 1.368 . S
H865 C873 0.950 . S
H866 C871 0.950 . S
H867 C872 0.949 . S
H868 C874 0.950 . S
H869 C875 0.950 . S
H870 C876 0.949 . S
C871 H866 0.950 . S
C871 C873 1.327 . S
C871 C877 1.429 . S
C872 C864 1.574 . S
C872 H867 0.949 . S
C872 C878 1.368 . S
C873 C857 1.349 . S
C873 H865 0.950 . S
C873 C871 1.327 . S
C874 C862 1.349 . S
C874 H868 0.950 . S
C874 C875 1.327 . S
C875 H869 0.950 . S
C875 C874 1.327 . S
C875 C879 1.429 . S
C876 C859 1.574 . S
C876 H870 0.949 . S
C876 C880 1.368 . S
C877 C858 1.429 . S
C877 C871 1.429 . S
C877 C878 1.523 . S
C878 C859 1.368 . S
C878 C872 1.368 . S
C878 C877 1.523 . S
C879 C863 1.429 . S
C879 C875 1.429 . S
C879 C880 1.523 . S
C880 C864 1.368 . S
C880 C876 1.368 . S
C880 C879 1.523 . S
H881 C856 0.950 . S
H882 C858 0.950 . S
H883 C859 0.949 . S
H884 C861 0.950 . S
H885 C863 0.950 . S
C886 C887 1.349 . S
C886 C888 1.327 . S
C886 H911 0.950 . S
C887 C886 1.349 . S
C887 C903 1.349 . S
C888 C886 1.327 . S
C888 C907 1.429 . S
C888 H912 0.950 . S
C889 C906 1.574 . S
C889 C908 1.368 . S
C889 H913 0.949 . S
H890 C894 0.949 . S
C891 C892 1.349 . S
C891 C893 1.327 . S
C891 H914 0.950 . S
C892 C891 1.349 . S
C892 C904 1.349 . S
C893 C891 1.327 . S
C893 C909 1.429 . S
C893 H915 0.950 . S
C894 H890 0.949 . S
C894 C902 1.574 . S
C894 C910 1.368 . S
H895 C903 0.950 . S
H896 C901 0.950 . S
H897 C902 0.949 . S
H898 C904 0.950 . S
H899 C905 0.950 . S
H900 C906 0.949 . S
C901 H896 0.950 . S
C901 C903 1.327 . S
C901 C907 1.429 . S
C902 C894 1.574 . S
C902 H897 0.949 . S
C902 C908 1.368 . S
C903 C887 1.349 . S
C903 H895 0.950 . S
C903 C901 1.327 . S
C904 C892 1.349 . S
C904 H898 0.950 . S
C904 C905 1.327 . S
C905 H899 0.950 . S
C905 C904 1.327 . S
C905 C909 1.429 . S
C906 C889 1.574 . S
C906 H900 0.949 . S
C906 C910 1.368 . S
C907 C888 1.429 . S
C907 C901 1.429 . S
C907 C908 1.523 . S
C908 C889 1.368 . S
C908 C902 1.368 . S
C908 C907 1.523 . S
C909 C893 1.429 . S
C909 C905 1.429 . S
C909 C910 1.523 . S
C910 C894 1.368 . S
C910 C906 1.368 . S
C910 C909 1.523 . S
H911 C886 0.950 . S
H912 C888 0.950 . S
H913 C889 0.949 . S
H914 C891 0.950 . S
H915 C893 0.950 . S
C916 C917 1.349 . S
C916 C918 1.327 . S
C916 H941 0.950 . S
C917 C916 1.349 . S
C917 C933 1.349 . S
C918 C916 1.327 . S
C918 C937 1.429 . S
C918 H942 0.950 . S
C919 C936 1.574 . S
C919 C938 1.368 . S
C919 H943 0.949 . S
H920 C924 0.949 . S
C921 C922 1.349 . S
C921 C923 1.327 . S
C921 H944 0.950 . S
C922 C921 1.349 . S
C922 C934 1.349 . S
C923 C921 1.327 . S
C923 C939 1.429 . S
C923 H945 0.950 . S
C924 H920 0.949 . S
C924 C932 1.574 . S
C924 C940 1.368 . S
H925 C933 0.950 . S
H926 C931 0.950 . S
H927 C932 0.949 . S
H928 C934 0.950 . S
H929 C935 0.950 . S
H930 C936 0.949 . S
C931 H926 0.950 . S
C931 C933 1.327 . S
C931 C937 1.429 . S
C932 C924 1.574 . S
C932 H927 0.949 . S
C932 C938 1.368 . S
C933 C917 1.349 . S
C933 H925 0.950 . S
C933 C931 1.327 . S
C934 C922 1.349 . S
C934 H928 0.950 . S
C934 C935 1.327 . S
C935 H929 0.950 . S
C935 C934 1.327 . S
C935 C939 1.429 . S
C936 C919 1.574 . S
C936 H930 0.949 . S
C936 C940 1.368 . S
C937 C918 1.429 . S
C937 C931 1.429 . S
C937 C938 1.523 . S
C938 C919 1.368 . S
C938 C932 1.368 . S
C938 C937 1.523 . S
C939 C923 1.429 . S
C939 C935 1.429 . S
C939 C940 1.523 . S
C940 C924 1.368 . S
C940 C936 1.368 . S
C940 C939 1.523 . S
H941 C916 0.950 . S
H942 C918 0.950 . S
H943 C919 0.949 . S
H944 C921 0.950 . S
H945 C923 0.950 . S
C946 C947 1.349 . S
C946 C948 1.327 . S
C946 H971 0.950 . S
C947 C946 1.349 . S
C947 C963 1.349 . S
C948 C946 1.327 . S
C948 C967 1.429 . S
C948 H972 0.950 . S
C949 C966 1.574 . S
C949 C968 1.368 . S
C949 H973 0.949 . S
H950 C954 0.949 . S
C951 C952 1.349 . S
C951 C953 1.327 . S
C951 H974 0.950 . S
C952 C951 1.349 . S
C952 C964 1.349 . S
C953 C951 1.327 . S
C953 C969 1.429 . S
C953 H975 0.950 . S
C954 H950 0.949 . S
C954 C962 1.574 . S
C954 C970 1.368 . S
H955 C963 0.950 . S
H956 C961 0.950 . S
H957 C962 0.949 . S
H958 C964 0.950 . S
H959 C965 0.950 . S
H960 C966 0.949 . S
C961 H956 0.950 . S
C961 C963 1.327 . S
C961 C967 1.429 . S
C962 C954 1.574 . S
C962 H957 0.949 . S
C962 C968 1.368 . S
C963 C947 1.349 . S
C963 H955 0.950 . S
C963 C961 1.327 . S
C964 C952 1.349 . S
C964 H958 0.950 . S
C964 C965 1.327 . S
C965 H959 0.950 . S
C965 C964 1.327 . S
C965 C969 1.429 . S
C966 C949 1.574 . S
C966 H960 0.949 . S
C966 C970 1.368 . S
C967 C948 1.429 . S
C967 C961 1.429 . S
C967 C968 1.523 . S
C968 C949 1.368 . S
C968 C962 1.368 . S
C968 C967 1.523 . S
C969 C953 1.429 . S
C969 C965 1.429 . S
C969 C970 1.523 . S
C970 C954 1.368 . S
C970 C966 1.368 . S
C970 C969 1.523 . S
H971 C946 0.950 . S
H972 C948 0.950 . S
H973 C949 0.949 . S
H974 C951 0.950 . S
H975 C953 0.950 . S
C976 C977 1.349 . S
C976 C978 1.327 . S
C976 H1001 0.950 . S
C977 C976 1.349 . S
C977 C993 1.349 . S
C978 C976 1.327 . S
C978 C997 1.429 . S
C978 H1002 0.950 . S
C979 C996 1.574 . S
C979 C998 1.368 . S
C979 H1003 0.949 . S
H980 C984 0.949 . S
C981 C982 1.349 . S
C981 C983 1.327 . S
C981 H1004 0.950 . S
C982 C981 1.349 . S
C982 C994 1.349 . S
C983 C981 1.327 . S
C983 C999 1.429 . S
C983 H1005 0.950 . S
C984 H980 0.949 . S
C984 C992 1.574 . S
C984 C1000 1.368 . S
H985 C993 0.950 . S
H986 C991 0.950 . S
H987 C992 0.949 . S
H988 C994 0.950 . S
H989 C995 0.950 . S
H990 C996 0.949 . S
C991 H986 0.950 . S
C991 C993 1.327 . S
C991 C997 1.429 . S
C992 C984 1.574 . S
C992 H987 0.949 . S
C992 C998 1.368 . S
C993 C977 1.349 . S
C993 H985 0.950 . S
C993 C991 1.327 . S
C994 C982 1.349 . S
C994 H988 0.950 . S
C994 C995 1.327 . S
C995 H989 0.950 . S
C995 C994 1.327 . S
C995 C999 1.429 . S
C996 C979 1.574 . S
C996 H990 0.949 . S
C996 C1000 1.368 . S
C997 C978 1.429 . S
C997 C991 1.429 . S
C997 C998 1.523 . S
C998 C979 1.368 . S
C998 C992 1.368 . S
C998 C997 1.523 . S
C999 C983 1.429 . S
C999 C995 1.429 . S
C999 C1000 1.523 . S
C1000 C984 1.368 . S
C1000 C996 1.368 . S
C1000 C999 1.523 . S
H1001 C976 0.950 . S
H1002 C978 0.950 . S
H1003 C979 0.949 . S
H1004 C981 0.950 . S
H1005 C983 0.950 . S
C1006 C1007 1.349 . S
C1006 C1008 1.327 . S
C1006 H1031 0.950 . S
C1007 C1006 1.349 . S
C1007 C1023 1.349 . S
C1008 C1006 1.327 . S
C1008 C1027 1.429 . S
C1008 H1032 0.950 . S
C1009 C1026 1.574 . S
C1009 C1028 1.368 . S
C1009 H1033 0.949 . S
H1010 C1014 0.949 . S
C1011 C1012 1.349 . S
C1011 C1013 1.327 . S
C1011 H1034 0.950 . S
C1012 C1011 1.349 . S
C1012 C1024 1.349 . S
C1013 C1011 1.327 . S
C1013 C1029 1.429 . S
C1013 H1035 0.950 . S
C1014 H1010 0.949 . S
C1014 C1022 1.574 . S
C1014 C1030 1.368 . S
H1015 C1023 0.950 . S
H1016 C1021 0.950 . S
H1017 C1022 0.949 . S
H1018 C1024 0.950 . S
H1019 C1025 0.950 . S
H1020 C1026 0.949 . S
C1021 H1016 0.950 . S
C1021 C1023 1.327 . S
C1021 C1027 1.429 . S
C1022 C1014 1.574 . S
C1022 H1017 0.949 . S
C1022 C1028 1.368 . S
C1023 C1007 1.349 . S
C1023 H1015 0.950 . S
C1023 C1021 1.327 . S
C1024 C1012 1.349 . S
C1024 H1018 0.950 . S
C1024 C1025 1.327 . S
C1025 H1019 0.950 . S
C1025 C1024 1.327 . S
C1025 C1029 1.429 . S
C1026 C1009 1.574 . S
C1026 H1020 0.949 . S
C1026 C1030 1.368 . S
C1027 C1008 1.429 . S
C1027 C1021 1.429 . S
C1027 C1028 1.523 . S
C1028 C1009 1.368 . S
C1028 C1022 1.368 . S
C1028 C1027 1.523 . S
C1029 C1013 1.429 . S
C1029 C1025 1.429 . S
C1029 C1030 1.523 . S
C1030 C1014 1.368 . S
C1030 C1026 1.368 . S
C1030 C1029 1.523 . S
H1031 C1006 0.950 . S
H1032 C1008 0.950 . S
H1033 C1009 0.949 . S
H1034 C1011 0.950 . S
H1035 C1013 0.950 . S
C1036 C1037 1.349 . S
C1036 C1038 1.327 . S
C1036 H1061 0.950 . S
C1037 C1036 1.349 . S
C1037 C1053 1.349 . S
C1038 C1036 1.327 . S
C1038 C1057 1.429 . S
C1038 H1062 0.950 . S
C1039 C1056 1.574 . S
C1039 C1058 1.368 . S
C1039 H1063 0.949 . S
H1040 C1044 0.949 . S
C1041 C1042 1.349 . S
C1041 C1043 1.327 . S
C1041 H1064 0.950 . S
C1042 C1041 1.349 . S
C1042 C1054 1.349 . S
C1043 C1041 1.327 . S
C1043 C1059 1.429 . S
C1043 H1065 0.950 . S
C1044 H1040 0.949 . S
C1044 C1052 1.574 . S
C1044 C1060 1.368 . S
H1045 C1053 0.950 . S
H1046 C1051 0.950 . S
H1047 C1052 0.949 . S
H1048 C1054 0.950 . S
H1049 C1055 0.950 . S
H1050 C1056 0.949 . S
C1051 H1046 0.950 . S
C1051 C1053 1.327 . S
C1051 C1057 1.429 . S
C1052 C1044 1.574 . S
C1052 H1047 0.949 . S
C1052 C1058 1.368 . S
C1053 C1037 1.349 . S
C1053 H1045 0.950 . S
C1053 C1051 1.327 . S
C1054 C1042 1.349 . S
C1054 H1048 0.950 . S
C1054 C1055 1.327 . S
C1055 H1049 0.950 . S
C1055 C1054 1.327 . S
C1055 C1059 1.429 . S
C1056 C1039 1.574 . S
C1056 H1050 0.949 . S
C1056 C1060 1.368 . S
C1057 C1038 1.429 . S
C1057 C1051 1.429 . S
C1057 C1058 1.523 . S
C1058 C1039 1.368 . S
C1058 C1052 1.368 . S
C1058 C1057 1.523 . S
C1059 C1043 1.429 . S
C1059 C1055 1.429 . S
C1059 C1060 1.523 . S
C1060 C1044 1.368 . S
C1060 C1056 1.368 . S
C1060 C1059 1.523 . S
H1061 C1036 0.950 . S
H1062 C1038 0.950 . S
H1063 C1039 0.949 . S
H1064 C1041 0.950 . S
H1065 C1043 0.950 . S
C1066 C1067 1.349 . S
C1066 C1068 1.327 . S
C1066 H1091 0.950 . S
C1067 C1066 1.349 . S
C1067 C1083 1.349 . S
C1068 C1066 1.327 . S
C1068 C1087 1.429 . S
C1068 H1092 0.950 . S
C1069 C1086 1.574 . S
C1069 C1088 1.368 . S
C1069 H1093 0.949 . S
H1070 C1074 0.949 . S
C1071 C1072 1.349 . S
C1071 C1073 1.327 . S
C1071 H1094 0.950 . S
C1072 C1071 1.349 . S
C1072 C1084 1.349 . S
C1073 C1071 1.327 . S
C1073 C1089 1.429 . S
C1073 H1095 0.950 . S
C1074 H1070 0.949 . S
C1074 C1082 1.574 . S
C1074 C1090 1.368 . S
H1075 C1083 0.950 . S
H1076 C1081 0.950 . S
H1077 C1082 0.949 . S
H1078 C1084 0.950 . S
H1079 C1085 0.950 . S
H1080 C1086 0.949 . S
C1081 H1076 0.950 . S
C1081 C1083 1.327 . S
C1081 C1087 1.429 . S
C1082 C1074 1.574 . S
C1082 H1077 0.949 . S
C1082 C1088 1.368 . S
C1083 C1067 1.349 . S
C1083 H1075 0.950 . S
C1083 C1081 1.327 . S
C1084 C1072 1.349 . S
C1084 H1078 0.950 . S
C1084 C1085 1.327 . S
C1085 H1079 0.950 . S
C1085 C1084 1.327 . S
C1085 C1089 1.429 . S
C1086 C1069 1.574 . S
C1086 H1080 0.949 . S
C1086 C1090 1.368 . S
C1087 C1068 1.429 . S
C1087 C1081 1.429 . S
C1087 C1088 1.523 . S
C1088 C1069 1.368 . S
C1088 C1082 1.368 . S
C1088 C1087 1.523 . S
C1089 C1073 1.429 . S
C1089 C1085 1.429 . S
C1089 C1090 1.523 . S
C1090 C1074 1.368 . S
C1090 C1086 1.368 . S
C1090 C1089 1.523 . S
H1091 C1066 0.950 . S
H1092 C1068 0.950 . S
H1093 C1069 0.949 . S
H1094 C1071 0.950 . S
H1095 C1073 0.950 . S
C1096 C1097 1.349 . S
C1096 C1098 1.327 . S
C1096 H1121 0.950 . S
C1097 C1096 1.349 . S
C1097 C1113 1.349 . S
C1098 C1096 1.327 . S
C1098 C1117 1.429 . S
C1098 H1122 0.950 . S
C1099 C1116 1.574 . S
C1099 C1118 1.368 . S
C1099 H1123 0.949 . S
H1100 C1104 0.949 . S
C1101 C1102 1.349 . S
C1101 C1103 1.327 . S
C1101 H1124 0.950 . S
C1102 C1101 1.349 . S
C1102 C1114 1.349 . S
C1103 C1101 1.327 . S
C1103 C1119 1.429 . S
C1103 H1125 0.950 . S
C1104 H1100 0.949 . S
C1104 C1112 1.574 . S
C1104 C1120 1.368 . S
H1105 C1113 0.950 . S
H1106 C1111 0.950 . S
H1107 C1112 0.949 . S
H1108 C1114 0.950 . S
H1109 C1115 0.950 . S
H1110 C1116 0.949 . S
C1111 H1106 0.950 . S
C1111 C1113 1.327 . S
C1111 C1117 1.429 . S
C1112 C1104 1.574 . S
C1112 H1107 0.949 . S
C1112 C1118 1.368 . S
C1113 C1097 1.349 . S
C1113 H1105 0.950 . S
C1113 C1111 1.327 . S
C1114 C1102 1.349 . S
C1114 H1108 0.950 . S
C1114 C1115 1.327 . S
C1115 H1109 0.950 . S
C1115 C1114 1.327 . S
C1115 C1119 1.429 . S
C1116 C1099 1.574 . S
C1116 H1110 0.949 . S
C1116 C1120 1.368 . S
C1117 C1098 1.429 . S
C1117 C1111 1.429 . S
C1117 C1118 1.523 . S
C1118 C1099 1.368 . S
C1118 C1112 1.368 . S
C1118 C1117 1.523 . S
C1119 C1103 1.429 . S
C1119 C1115 1.429 . S
C1119 C1120 1.523 . S
C1120 C1104 1.368 . S
C1120 C1116 1.368 . S
C1120 C1119 1.523 . S
H1121 C1096 0.950 . S
H1122 C1098 0.950 . S
H1123 C1099 0.949 . S
H1124 C1101 0.950 . S
H1125 C1103 0.950 . S
C1126 C1127 1.349 . S
C1126 C1128 1.327 . S
C1126 H1151 0.950 . S
C1127 C1126 1.349 . S
C1127 C1143 1.349 . S
C1128 C1126 1.327 . S
C1128 C1147 1.429 . S
C1128 H1152 0.950 . S
C1129 C1146 1.574 . S
C1129 C1148 1.368 . S
C1129 H1153 0.949 . S
H1130 C1134 0.949 . S
C1131 C1132 1.349 . S
C1131 C1133 1.327 . S
C1131 H1154 0.950 . S
C1132 C1131 1.349 . S
C1132 C1144 1.349 . S
C1133 C1131 1.327 . S
C1133 C1149 1.429 . S
C1133 H1155 0.950 . S
C1134 H1130 0.949 . S
C1134 C1142 1.574 . S
C1134 C1150 1.368 . S
H1135 C1143 0.950 . S
H1136 C1141 0.950 . S
H1137 C1142 0.949 . S
H1138 C1144 0.950 . S
H1139 C1145 0.950 . S
H1140 C1146 0.949 . S
C1141 H1136 0.950 . S
C1141 C1143 1.327 . S
C1141 C1147 1.429 . S
C1142 C1134 1.574 . S
C1142 H1137 0.949 . S
C1142 C1148 1.368 . S
C1143 C1127 1.349 . S
C1143 H1135 0.950 . S
C1143 C1141 1.327 . S
C1144 C1132 1.349 . S
C1144 H1138 0.950 . S
C1144 C1145 1.327 . S
C1145 H1139 0.950 . S
C1145 C1144 1.327 . S
C1145 C1149 1.429 . S
C1146 C1129 1.574 . S
C1146 H1140 0.949 . S
C1146 C1150 1.368 . S
C1147 C1128 1.429 . S
C1147 C1141 1.429 . S
C1147 C1148 1.523 . S
C1148 C1129 1.368 . S
C1148 C1142 1.368 . S
C1148 C1147 1.523 . S
C1149 C1133 1.429 . S
C1149 C1145 1.429 . S
C1149 C1150 1.523 . S
C1150 C1134 1.368 . S
C1150 C1146 1.368 . S
C1150 C1149 1.523 . S
H1151 C1126 0.950 . S
H1152 C1128 0.950 . S
H1153 C1129 0.949 . S
H1154 C1131 0.950 . S
H1155 C1133 0.950 . S
C1156 C1157 1.349 . S
C1156 C1158 1.327 . S
C1156 H1181 0.950 . S
C1157 C1156 1.349 . S
C1157 C1173 1.349 . S
C1158 C1156 1.327 . S
C1158 C1177 1.429 . S
C1158 H1182 0.950 . S
C1159 C1176 1.574 . S
C1159 C1178 1.368 . S
C1159 H1183 0.949 . S
H1160 C1164 0.949 . S
C1161 C1162 1.349 . S
C1161 C1163 1.327 . S
C1161 H1184 0.950 . S
C1162 C1161 1.349 . S
C1162 C1174 1.349 . S
C1163 C1161 1.327 . S
C1163 C1179 1.429 . S
C1163 H1185 0.950 . S
C1164 H1160 0.949 . S
C1164 C1172 1.574 . S
C1164 C1180 1.368 . S
H1165 C1173 0.950 . S
H1166 C1171 0.950 . S
H1167 C1172 0.949 . S
H1168 C1174 0.950 . S
H1169 C1175 0.950 . S
H1170 C1176 0.949 . S
C1171 H1166 0.950 . S
C1171 C1173 1.327 . S
C1171 C1177 1.429 . S
C1172 C1164 1.574 . S
C1172 H1167 0.949 . S
C1172 C1178 1.368 . S
C1173 C1157 1.349 . S
C1173 H1165 0.950 . S
C1173 C1171 1.327 . S
C1174 C1162 1.349 . S
C1174 H1168 0.950 . S
C1174 C1175 1.327 . S
C1175 H1169 0.950 . S
C1175 C1174 1.327 . S
C1175 C1179 1.429 . S
C1176 C1159 1.574 . S
C1176 H1170 0.949 . S
C1176 C1180 1.368 . S
C1177 C1158 1.429 . S
C1177 C1171 1.429 . S
C1177 C1178 1.523 . S
C1178 C1159 1.368 . S
C1178 C1172 1.368 . S
C1178 C1177 1.523 . S
C1179 C1163 1.429 . S
C1179 C1175 1.429 . S
C1179 C1180 1.523 . S
C1180 C1164 1.368 . S
C1180 C1176 1.368 . S
C1180 C1179 1.523 . S
H1181 C1156 0.950 . S
H1182 C1158 0.950 . S
H1183 C1159 0.949 . S
H1184 C1161 0.950 . S
H1185 C1163 0.950 . S
C1186 C1187 1.349 . S
C1186 C1188 1.327 . S
C1186 H1211 0.950 . S
C1187 C1186 1.349 . S
C1187 C1203 1.349 . S
C1188 C1186 1.327 . S
C1188 C1207 1.429 . S
C1188 H1212 0.950 . S
C1189 C1206 1.574 . S
C1189 C1208 1.368 . S
C1189 H1213 0.949 . S
H1190 C1194 0.949 . S
C1191 C1192 1.349 . S
C1191 C1193 1.327 . S
C1191 H1214 0.950 . S
C1192 C1191 1.349 . S
C1192 C1204 1.349 . S
C1193 C1191 1.327 . S
C1193 C1209 1.429 . S
C1193 H1215 0.950 . S
C1194 H1190 0.949 . S
C1194 C1202 1.574 . S
C1194 C1210 1.368 . S
H1195 C1203 0.950 . S
H1196 C1201 0.950 . S
H1197 C1202 0.949 . S
H1198 C1204 0.950 . S
H1199 C1205 0.950 . S
H1200 C1206 0.949 . S
C1201 H1196 0.950 . S
C1201 C1203 1.327 . S
C1201 C1207 1.429 . S
C1202 C1194 1.574 . S
C1202 H1197 0.949 . S
C1202 C1208 1.368 . S
C1203 C1187 1.349 . S
C1203 H1195 0.950 . S
C1203 C1201 1.327 . S
C1204 C1192 1.349 . S
C1204 H1198 0.950 . S
C1204 C1205 1.327 . S
C1205 H1199 0.950 . S
C1205 C1204 1.327 . S
C1205 C1209 1.429 . S
C1206 C1189 1.574 . S
C1206 H1200 0.949 . S
C1206 C1210 1.368 . S
C1207 C1188 1.429 . S
C1207 C1201 1.429 . S
C1207 C1208 1.523 . S
C1208 C1189 1.368 . S
C1208 C1202 1.368 . S
C1208 C1207 1.523 . S
C1209 C1193 1.429 . S
C1209 C1205 1.429 . S
C1209 C1210 1.523 . S
C1210 C1194 1.368 . S
C1210 C1206 1.368 . S
C1210 C1209 1.523 . S
H1211 C1186 0.950 . S
H1212 C1188 0.950 . S
H1213 C1189 0.949 . S
H1214 C1191 0.950 . S
H1215 C1193 0.950 . S
C1216 C1217 1.349 . S
C1216 C1218 1.327 . S
C1216 H1241 0.950 . S
C1217 C1216 1.349 . S
C1217 C1233 1.349 . S
C1218 C1216 1.327 . S
C1218 C1237 1.429 . S
C1218 H1242 0.950 . S
C1219 C1236 1.574 . S
C1219 C1238 1.368 . S
C1219 H1243 0.949 . S
H1220 C1224 0.949 . S
C1221 C1222 1.349 . S
C1221 C1223 1.327 . S
C1221 H1244 0.950 . S
C1222 C1221 1.349 . S
C1222 C1234 1.349 . S
C1223 C1221 1.327 . S
C1223 C1239 1.429 . S
C1223 H1245 0.950 . S
C1224 H1220 0.949 . S
C1224 C1232 1.574 . S
C1224 C1240 1.368 . S
H1225 C1233 0.950 . S
H1226 C1231 0.950 . S
H1227 C1232 0.949 . S
H1228 C1234 0.950 . S
H1229 C1235 0.950 . S
H1230 C1236 0.949 . S
C1231 H1226 0.950 . S
C1231 C1233 1.327 . S
C1231 C1237 1.429 . S
C1232 C1224 1.574 . S
C1232 H1227 0.949 . S
C1232 C1238 1.368 . S
C1233 C1217 1.349 . S
C1233 H1225 0.950 . S
C1233 C1231 1.327 . S
C1234 C1222 1.349 . S
C1234 H1228 0.950 . S
C1234 C1235 1.327 . S
C1235 H1229 0.950 . S
C1235 C1234 1.327 . S
C1235 C1239 1.429 . S
C1236 C1219 1.574 . S
C1236 H1230 0.949 . S
C1236 C1240 1.368 . S
C1237 C1218 1.429 . S
C1237 C1231 1.429 . S
C1237 C1238 1.523 . S
C1238 C1219 1.368 . S
C1238 C1232 1.368 . S
C1238 C1237 1.523 . S
C1239 C1223 1.429 . S
C1239 C1235 1.429 . S
C1239 C1240 1.523 . S
C1240 C1224 1.368 . S
C1240 C1236 1.368 . S
C1240 C1239 1.523 . S
H1241 C1216 0.950 . S
H1242 C1218 0.950 . S
H1243 C1219 0.949 . S
H1244 C1221 0.950 . S
H1245 C1223 0.950 . S
C1246 C1247 1.349 . S
C1246 C1248 1.327 . S
C1246 H1271 0.950 . S
C1247 C1246 1.349 . S
C1247 C1263 1.349 . S
C1248 C1246 1.327 . S
C1248 C1267 1.429 . S
C1248 H1272 0.950 . S
C1249 C1266 1.574 . S
C1249 C1268 1.368 . S
C1249 H1273 0.949 . S
H1250 C1254 0.949 . S
C1251 C1252 1.349 . S
C1251 C1253 1.327 . S
C1251 H1274 0.950 . S
C1252 C1251 1.349 . S
C1252 C1264 1.349 . S
C1253 C1251 1.327 . S
C1253 C1269 1.429 . S
C1253 H1275 0.950 . S
C1254 H1250 0.949 . S
C1254 C1262 1.574 . S
C1254 C1270 1.368 . S
H1255 C1263 0.950 . S
H1256 C1261 0.950 . S
H1257 C1262 0.949 . S
H1258 C1264 0.950 . S
H1259 C1265 0.950 . S
H1260 C1266 0.949 . S
C1261 H1256 0.950 . S
C1261 C1263 1.327 . S
C1261 C1267 1.429 . S
C1262 C1254 1.574 . S
C1262 H1257 0.949 . S
C1262 C1268 1.368 . S
C1263 C1247 1.349 . S
C1263 H1255 0.950 . S
C1263 C1261 1.327 . S
C1264 C1252 1.349 . S
C1264 H1258 0.950 . S
C1264 C1265 1.327 . S
C1265 H1259 0.950 . S
C1265 C1264 1.327 . S
C1265 C1269 1.429 . S
C1266 C1249 1.574 . S
C1266 H1260 0.949 . S
C1266 C1270 1.368 . S
C1267 C1248 1.429 . S
C1267 C1261 1.429 . S
C1267 C1268 1.523 . S
C1268 C1249 1.368 . S
C1268 C1262 1.368 . S
C1268 C1267 1.523 . S
C1269 C1253 1.429 . S
C1269 C1265 1.429 . S
C1269 C1270 1.523 . S
C1270 C1254 1.368 . S
C1270 C1266 1.368 . S
C1270 C1269 1.523 . S
H1271 C1246 0.950 . S
H1272 C1248 0.950 . S
H1273 C1249 0.949 . S
H1274 C1251 0.950 . S
H1275 C1253 0.950 . S
C1276 C1277 1.349 . S
C1276 C1278 1.327 . S
C1276 H1301 0.950 . S
C1277 C1276 1.349 . S
C1277 C1293 1.349 . S
C1278 C1276 1.327 . S
C1278 C1297 1.429 . S
C1278 H1302 0.950 . S
C1279 C1296 1.574 . S
C1279 C1298 1.368 . S
C1279 H1303 0.949 . S
H1280 C1284 0.949 . S
C1281 C1282 1.349 . S
C1281 C1283 1.327 . S
C1281 H1304 0.950 . S
C1282 C1281 1.349 . S
C1282 C1294 1.349 . S
C1283 C1281 1.327 . S
C1283 C1299 1.429 . S
C1283 H1305 0.950 . S
C1284 H1280 0.949 . S
C1284 C1292 1.574 . S
C1284 C1300 1.368 . S
H1285 C1293 0.950 . S
H1286 C1291 0.950 . S
H1287 C1292 0.949 . S
H1288 C1294 0.950 . S
H1289 C1295 0.950 . S
H1290 C1296 0.949 . S
C1291 H1286 0.950 . S
C1291 C1293 1.327 . S
C1291 C1297 1.429 . S
C1292 C1284 1.574 . S
C1292 H1287 0.949 . S
C1292 C1298 1.368 . S
C1293 C1277 1.349 . S
C1293 H1285 0.950 . S
C1293 C1291 1.327 . S
C1294 C1282 1.349 . S
C1294 H1288 0.950 . S
C1294 C1295 1.327 . S
C1295 H1289 0.950 . S
C1295 C1294 1.327 . S
C1295 C1299 1.429 . S
C1296 C1279 1.574 . S
C1296 H1290 0.949 . S
C1296 C1300 1.368 . S
C1297 C1278 1.429 . S
C1297 C1291 1.429 . S
C1297 C1298 1.523 . S
C1298 C1279 1.368 . S
C1298 C1292 1.368 . S
C1298 C1297 1.523 . S
C1299 C1283 1.429 . S
C1299 C1295 1.429 . S
C1299 C1300 1.523 . S
C1300 C1284 1.368 . S
C1300 C1296 1.368 . S
C1300 C1299 1.523 . S
H1301 C1276 0.950 . S
H1302 C1278 0.950 . S
H1303 C1279 0.949 . S
H1304 C1281 0.950 . S
H1305 C1283 0.950 . S
C1306 C1307 1.349 . S
C1306 C1308 1.327 . S
C1306 H1331 0.950 . S
C1307 C1306 1.349 . S
C1307 C1323 1.349 . S
C1308 C1306 1.327 . S
C1308 C1327 1.429 . S
C1308 H1332 0.950 . S
C1309 C1326 1.574 . S
C1309 C1328 1.368 . S
C1309 H1333 0.949 . S
H1310 C1314 0.949 . S
C1311 C1312 1.349 . S
C1311 C1313 1.327 . S
C1311 H1334 0.950 . S
C1312 C1311 1.349 . S
C1312 C1324 1.349 . S
C1313 C1311 1.327 . S
C1313 C1329 1.429 . S
C1313 H1335 0.950 . S
C1314 H1310 0.949 . S
C1314 C1322 1.574 . S
C1314 C1330 1.368 . S
H1315 C1323 0.950 . S
H1316 C1321 0.950 . S
H1317 C1322 0.949 . S
H1318 C1324 0.950 . S
H1319 C1325 0.950 . S
H1320 C1326 0.949 . S
C1321 H1316 0.950 . S
C1321 C1323 1.327 . S
C1321 C1327 1.429 . S
C1322 C1314 1.574 . S
C1322 H1317 0.949 . S
C1322 C1328 1.368 . S
C1323 C1307 1.349 . S
C1323 H1315 0.950 . S
C1323 C1321 1.327 . S
C1324 C1312 1.349 . S
C1324 H1318 0.950 . S
C1324 C1325 1.327 . S
C1325 H1319 0.950 . S
C1325 C1324 1.327 . S
C1325 C1329 1.429 . S
C1326 C1309 1.574 . S
C1326 H1320 0.949 . S
C1326 C1330 1.368 . S
C1327 C1308 1.429 . S
C1327 C1321 1.429 . S
C1327 C1328 1.523 . S
C1328 C1309 1.368 . S
C1328 C1322 1.368 . S
C1328 C1327 1.523 . S
C1329 C1313 1.429 . S
C1329 C1325 1.429 . S
C1329 C1330 1.523 . S
C1330 C1314 1.368 . S
C1330 C1326 1.368 . S
C1330 C1329 1.523 . S
H1331 C1306 0.950 . S
H1332 C1308 0.950 . S
H1333 C1309 0.949 . S
H1334 C1311 0.950 . S
H1335 C1313 0.950 . S
C1336 C1337 1.349 . S
C1336 C1338 1.327 . S
C1336 H1361 0.950 . S
C1337 C1336 1.349 . S
C1337 C1353 1.349 . S
C1338 C1336 1.327 . S
C1338 C1357 1.429 . S
C1338 H1362 0.950 . S
C1339 C1356 1.574 . S
C1339 C1358 1.368 . S
C1339 H1363 0.949 . S
H1340 C1344 0.949 . S
C1341 C1342 1.349 . S
C1341 C1343 1.327 . S
C1341 H1364 0.950 . S
C1342 C1341 1.349 . S
C1342 C1354 1.349 . S
C1343 C1341 1.327 . S
C1343 C1359 1.429 . S
C1343 H1365 0.950 . S
C1344 H1340 0.949 . S
C1344 C1352 1.574 . S
C1344 C1360 1.368 . S
H1345 C1353 0.950 . S
H1346 C1351 0.950 . S
H1347 C1352 0.949 . S
H1348 C1354 0.950 . S
H1349 C1355 0.950 . S
H1350 C1356 0.949 . S
C1351 H1346 0.950 . S
C1351 C1353 1.327 . S
C1351 C1357 1.429 . S
C1352 C1344 1.574 . S
C1352 H1347 0.949 . S
C1352 C1358 1.368 . S
C1353 C1337 1.349 . S
C1353 H1345 0.950 . S
C1353 C1351 1.327 . S
C1354 C1342 1.349 . S
C1354 H1348 0.950 . S
C1354 C1355 1.327 . S
C1355 H1349 0.950 . S
C1355 C1354 1.327 . S
C1355 C1359 1.429 . S
C1356 C1339 1.574 . S
C1356 H1350 0.949 . S
C1356 C1360 1.368 . S
C1357 C1338 1.429 . S
C1357 C1351 1.429 . S
C1357 C1358 1.523 . S
C1358 C1339 1.368 . S
C1358 C1352 1.368 . S
C1358 C1357 1.523 . S
C1359 C1343 1.429 . S
C1359 C1355 1.429 . S
C1359 C1360 1.523 . S
C1360 C1344 1.368 . S
C1360 C1356 1.368 . S
C1360 C1359 1.523 . S
H1361 C1336 0.950 . S
H1362 C1338 0.950 . S
H1363 C1339 0.949 . S
H1364 C1341 0.950 . S
H1365 C1343 0.950 . S
C1366 C1367 1.349 . S
C1366 C1368 1.327 . S
C1366 H1391 0.950 . S
C1367 C1366 1.349 . S
C1367 C1383 1.349 . S
C1368 C1366 1.327 . S
C1368 C1387 1.429 . S
C1368 H1392 0.950 . S
C1369 C1386 1.574 . S
C1369 C1388 1.368 . S
C1369 H1393 0.949 . S
H1370 C1374 0.949 . S
C1371 C1372 1.349 . S
C1371 C1373 1.327 . S
C1371 H1394 0.950 . S
C1372 C1371 1.349 . S
C1372 C1384 1.349 . S
C1373 C1371 1.327 . S
C1373 C1389 1.429 . S
C1373 H1395 0.950 . S
C1374 H1370 0.949 . S
C1374 C1382 1.574 . S
C1374 C1390 1.368 . S
H1375 C1383 0.950 . S
H1376 C1381 0.950 . S
H1377 C1382 0.949 . S
H1378 C1384 0.950 . S
H1379 C1385 0.950 . S
H1380 C1386 0.949 . S
C1381 H1376 0.950 . S
C1381 C1383 1.327 . S
C1381 C1387 1.429 . S
C1382 C1374 1.574 . S
C1382 H1377 0.949 . S
C1382 C1388 1.368 . S
C1383 C1367 1.349 . S
C1383 H1375 0.950 . S
C1383 C1381 1.327 . S
C1384 C1372 1.349 . S
C1384 H1378 0.950 . S
C1384 C1385 1.327 . S
C1385 H1379 0.950 . S
C1385 C1384 1.327 . S
C1385 C1389 1.429 . S
C1386 C1369 1.574 . S
C1386 H1380 0.949 . S
C1386 C1390 1.368 . S
C1387 C1368 1.429 . S
C1387 C1381 1.429 . S
C1387 C1388 1.523 . S
C1388 C1369 1.368 . S
C1388 C1382 1.368 . S
C1388 C1387 1.523 . S
C1389 C1373 1.429 . S
C1389 C1385 1.429 . S
C1389 C1390 1.523 . S
C1390 C1374 1.368 . S
C1390 C1386 1.368 . S
C1390 C1389 1.523 . S
H1391 C1366 0.950 . S
H1392 C1368 0.950 . S
H1393 C1369 0.949 . S
H1394 C1371 0.950 . S
H1395 C1373 0.950 . S
C1396 C1397 1.349 . S
C1396 C1398 1.327 . S
C1396 H1421 0.950 . S
C1397 C1396 1.349 . S
C1397 C1413 1.349 . S
C1398 C1396 1.327 . S
C1398 C1417 1.429 . S
C1398 H1422 0.950 . S
C1399 C1416 1.574 . S
C1399 C1418 1.368 . S
C1399 H1423 0.949 . S
H1400 C1404 0.949 . S
C1401 C1402 1.349 . S
C1401 C1403 1.327 . S
C1401 H1424 0.950 . S
C1402 C1401 1.349 . S
C1402 C1414 1.349 . S
C1403 C1401 1.327 . S
C1403 C1419 1.429 . S
C1403 H1425 0.950 . S
C1404 H1400 0.949 . S
C1404 C1412 1.574 . S
C1404 C1420 1.368 . S
H1405 C1413 0.950 . S
H1406 C1411 0.950 . S
H1407 C1412 0.949 . S
H1408 C1414 0.950 . S
H1409 C1415 0.950 . S
H1410 C1416 0.949 . S
C1411 H1406 0.950 . S
C1411 C1413 1.327 . S
C1411 C1417 1.429 . S
C1412 C1404 1.574 . S
C1412 H1407 0.949 . S
C1412 C1418 1.368 . S
C1413 C1397 1.349 . S
C1413 H1405 0.950 . S
C1413 C1411 1.327 . S
C1414 C1402 1.349 . S
C1414 H1408 0.950 . S
C1414 C1415 1.327 . S
C1415 H1409 0.950 . S
C1415 C1414 1.327 . S
C1415 C1419 1.429 . S
C1416 C1399 1.574 . S
C1416 H1410 0.949 . S
C1416 C1420 1.368 . S
C1417 C1398 1.429 . S
C1417 C1411 1.429 . S
C1417 C1418 1.523 . S
C1418 C1399 1.368 . S
C1418 C1412 1.368 . S
C1418 C1417 1.523 . S
C1419 C1403 1.429 . S
C1419 C1415 1.429 . S
C1419 C1420 1.523 . S
C1420 C1404 1.368 . S
C1420 C1416 1.368 . S
C1420 C1419 1.523 . S
H1421 C1396 0.950 . S
H1422 C1398 0.950 . S
H1423 C1399 0.949 . S
H1424 C1401 0.950 . S
H1425 C1403 0.950 . S
C1426 C1427 1.349 . S
C1426 C1428 1.327 . S
C1426 H1451 0.950 . S
C1427 C1426 1.349 . S
C1427 C1443 1.349 . S
C1428 C1426 1.327 . S
C1428 C1447 1.429 . S
C1428 H1452 0.950 . S
C1429 C1446 1.574 . S
C1429 C1448 1.368 . S
C1429 H1453 0.949 . S
H1430 C1434 0.949 . S
C1431 C1432 1.349 . S
C1431 C1433 1.327 . S
C1431 H1454 0.950 . S
C1432 C1431 1.349 . S
C1432 C1444 1.349 . S
C1433 C1431 1.327 . S
C1433 C1449 1.429 . S
C1433 H1455 0.950 . S
C1434 H1430 0.949 . S
C1434 C1442 1.574 . S
C1434 C1450 1.368 . S
H1435 C1443 0.950 . S
H1436 C1441 0.950 . S
H1437 C1442 0.949 . S
H1438 C1444 0.950 . S
H1439 C1445 0.950 . S
H1440 C1446 0.949 . S
C1441 H1436 0.950 . S
C1441 C1443 1.327 . S
C1441 C1447 1.429 . S
C1442 C1434 1.574 . S
C1442 H1437 0.949 . S
C1442 C1448 1.368 . S
C1443 C1427 1.349 . S
C1443 H1435 0.950 . S
C1443 C1441 1.327 . S
C1444 C1432 1.349 . S
C1444 H1438 0.950 . S
C1444 C1445 1.327 . S
C1445 H1439 0.950 . S
C1445 C1444 1.327 . S
C1445 C1449 1.429 . S
C1446 C1429 1.574 . S
C1446 H1440 0.949 . S
C1446 C1450 1.368 . S
C1447 C1428 1.429 . S
C1447 C1441 1.429 . S
C1447 C1448 1.523 . S
C1448 C1429 1.368 . S
C1448 C1442 1.368 . S
C1448 C1447 1.523 . S
C1449 C1433 1.429 . S
C1449 C1445 1.429 . S
C1449 C1450 1.523 . S
C1450 C1434 1.368 . S
C1450 C1446 1.368 . S
C1450 C1449 1.523 . S
H1451 C1426 0.950 . S
H1452 C1428 0.950 . S
H1453 C1429 0.949 . S
H1454 C1431 0.950 . S
H1455 C1433 0.950 . S
C1456 C1457 1.349 . S
C1456 C1458 1.327 . S
C1456 H1481 0.950 . S
C1457 C1456 1.349 . S
C1457 C1473 1.349 . S
C1458 C1456 1.327 . S
C1458 C1477 1.429 . S
C1458 H1482 0.950 . S
C1459 C1476 1.574 . S
C1459 C1478 1.368 . S
C1459 H1483 0.949 . S
H1460 C1464 0.949 . S
C1461 C1462 1.349 . S
C1461 C1463 1.327 . S
C1461 H1484 0.950 . S
C1462 C1461 1.349 . S
C1462 C1474 1.349 . S
C1463 C1461 1.327 . S
C1463 C1479 1.429 . S
C1463 H1485 0.950 . S
C1464 H1460 0.949 . S
C1464 C1472 1.574 . S
C1464 C1480 1.368 . S
H1465 C1473 0.950 . S
H1466 C1471 0.950 . S
H1467 C1472 0.949 . S
H1468 C1474 0.950 . S
H1469 C1475 0.950 . S
H1470 C1476 0.949 . S
C1471 H1466 0.950 . S
C1471 C1473 1.327 . S
C1471 C1477 1.429 . S
C1472 C1464 1.574 . S
C1472 H1467 0.949 . S
C1472 C1478 1.368 . S
C1473 C1457 1.349 . S
C1473 H1465 0.950 . S
C1473 C1471 1.327 . S
C1474 C1462 1.349 . S
C1474 H1468 0.950 . S
C1474 C1475 1.327 . S
C1475 H1469 0.950 . S
C1475 C1474 1.327 . S
C1475 C1479 1.429 . S
C1476 C1459 1.574 . S
C1476 H1470 0.949 . S
C1476 C1480 1.368 . S
C1477 C1458 1.429 . S
C1477 C1471 1.429 . S
C1477 C1478 1.523 . S
C1478 C1459 1.368 . S
C1478 C1472 1.368 . S
C1478 C1477 1.523 . S
C1479 C1463 1.429 . S
C1479 C1475 1.429 . S
C1479 C1480 1.523 . S
C1480 C1464 1.368 . S
C1480 C1476 1.368 . S
C1480 C1479 1.523 . S
H1481 C1456 0.950 . S
H1482 C1458 0.950 . S
H1483 C1459 0.949 . S
H1484 C1461 0.950 . S
H1485 C1463 0.950 . S
C1486 C1487 1.349 . S
C1486 C1488 1.327 . S
C1486 H1511 0.950 . S
C1487 C1486 1.349 . S
C1487 C1503 1.349 . S
C1488 C1486 1.327 . S
C1488 C1507 1.429 . S
C1488 H1512 0.950 . S
C1489 C1506 1.574 . S
C1489 C1508 1.368 . S
C1489 H1513 0.949 . S
H1490 C1494 0.949 . S
C1491 C1492 1.349 . S
C1491 C1493 1.327 . S
C1491 H1514 0.950 . S
C1492 C1491 1.349 . S
C1492 C1504 1.349 . S
C1493 C1491 1.327 . S
C1493 C1509 1.429 . S
C1493 H1515 0.950 . S
C1494 H1490 0.949 . S
C1494 C1502 1.574 . S
C1494 C1510 1.368 . S
H1495 C1503 0.950 . S
H1496 C1501 0.950 . S
H1497 C1502 0.949 . S
H1498 C1504 0.950 . S
H1499 C1505 0.950 . S
H1500 C1506 0.949 . S
C1501 H1496 0.950 . S
C1501 C1503 1.327 . S
C1501 C1507 1.429 . S
C1502 C1494 1.574 . S
C1502 H1497 0.949 . S
C1502 C1508 1.368 . S
C1503 C1487 1.349 . S
C1503 H1495 0.950 . S
C1503 C1501 1.327 . S
C1504 C1492 1.349 . S
C1504 H1498 0.950 . S
C1504 C1505 1.327 . S
C1505 H1499 0.950 . S
C1505 C1504 1.327 . S
C1505 C1509 1.429 . S
C1506 C1489 1.574 . S
C1506 H1500 0.949 . S
C1506 C1510 1.368 . S
C1507 C1488 1.429 . S
C1507 C1501 1.429 . S
C1507 C1508 1.523 . S
C1508 C1489 1.368 . S
C1508 C1502 1.368 . S
C1508 C1507 1.523 . S
C1509 C1493 1.429 . S
C1509 C1505 1.429 . S
C1509 C1510 1.523 . S
C1510 C1494 1.368 . S
C1510 C1506 1.368 . S
C1510 C1509 1.523 . S
H1511 C1486 0.950 . S
H1512 C1488 0.950 . S
H1513 C1489 0.949 . S
H1514 C1491 0.950 . S
H1515 C1493 0.950 . S
C1516 C1517 1.349 . S
C1516 C1518 1.327 . S
C1516 H1541 0.950 . S
C1517 C1516 1.349 . S
C1517 C1533 1.349 . S
C1518 C1516 1.327 . S
C1518 C1537 1.429 . S
C1518 H1542 0.950 . S
C1519 C1536 1.574 . S
C1519 C1538 1.368 . S
C1519 H1543 0.949 . S
H1520 C1524 0.949 . S
C1521 C1522 1.349 . S
C1521 C1523 1.327 . S
C1521 H1544 0.950 . S
C1522 C1521 1.349 . S
C1522 C1534 1.349 . S
C1523 C1521 1.327 . S
C1523 C1539 1.429 . S
C1523 H1545 0.950 . S
C1524 H1520 0.949 . S
C1524 C1532 1.574 . S
C1524 C1540 1.368 . S
H1525 C1533 0.950 . S
H1526 C1531 0.950 . S
H1527 C1532 0.949 . S
H1528 C1534 0.950 . S
H1529 C1535 0.950 . S
H1530 C1536 0.949 . S
C1531 H1526 0.950 . S
C1531 C1533 1.327 . S
C1531 C1537 1.429 . S
C1532 C1524 1.574 . S
C1532 H1527 0.949 . S
C1532 C1538 1.368 . S
C1533 C1517 1.349 . S
C1533 H1525 0.950 . S
C1533 C1531 1.327 . S
C1534 C1522 1.349 . S
C1534 H1528 0.950 . S
C1534 C1535 1.327 . S
C1535 H1529 0.950 . S
C1535 C1534 1.327 . S
C1535 C1539 1.429 . S
C1536 C1519 1.574 . S
C1536 H1530 0.949 . S
C1536 C1540 1.368 . S
C1537 C1518 1.429 . S
C1537 C1531 1.429 . S
C1537 C1538 1.523 . S
C1538 C1519 1.368 . S
C1538 C1532 1.368 . S
C1538 C1537 1.523 . S
C1539 C1523 1.429 . S
C1539 C1535 1.429 . S
C1539 C1540 1.523 . S
C1540 C1524 1.368 . S
C1540 C1536 1.368 . S
C1540 C1539 1.523 . S
H1541 C1516 0.950 . S
H1542 C1518 0.950 . S
H1543 C1519 0.949 . S
H1544 C1521 0.950 . S
H1545 C1523 0.950 . S
C1546 C1547 1.349 . S
C1546 C1548 1.327 . S
C1546 H1571 0.950 . S
C1547 C1546 1.349 . S
C1547 C1563 1.349 . S
C1548 C1546 1.327 . S
C1548 C1567 1.429 . S
C1548 H1572 0.950 . S
C1549 C1566 1.574 . S
C1549 C1568 1.368 . S
C1549 H1573 0.949 . S
H1550 C1554 0.949 . S
C1551 C1552 1.349 . S
C1551 C1553 1.327 . S
C1551 H1574 0.950 . S
C1552 C1551 1.349 . S
C1552 C1564 1.349 . S
C1553 C1551 1.327 . S
C1553 C1569 1.429 . S
C1553 H1575 0.950 . S
C1554 H1550 0.949 . S
C1554 C1562 1.574 . S
C1554 C1570 1.368 . S
H1555 C1563 0.950 . S
H1556 C1561 0.950 . S
H1557 C1562 0.949 . S
H1558 C1564 0.950 . S
H1559 C1565 0.950 . S
H1560 C1566 0.949 . S
C1561 H1556 0.950 . S
C1561 C1563 1.327 . S
C1561 C1567 1.429 . S
C1562 C1554 1.574 . S
C1562 H1557 0.949 . S
C1562 C1568 1.368 . S
C1563 C1547 1.349 . S
C1563 H1555 0.950 . S
C1563 C1561 1.327 . S
C1564 C1552 1.349 . S
C1564 H1558 0.950 . S
C1564 C1565 1.327 . S
C1565 H1559 0.950 . S
C1565 C1564 1.327 . S
C1565 C1569 1.429 . S
C1566 C1549 1.574 . S
C1566 H1560 0.949 . S
C1566 C1570 1.368 . S
C1567 C1548 1.429 . S
C1567 C1561 1.429 . S
C1567 C1568 1.523 . S
C1568 C1549 1.368 . S
C1568 C1562 1.368 . S
C1568 C1567 1.523 . S
C1569 C1553 1.429 . S
C1569 C1565 1.429 . S
C1569 C1570 1.523 . S
C1570 C1554 1.368 . S
C1570 C1566 1.368 . S
C1570 C1569 1.523 . S
H1571 C1546 0.950 . S
H1572 C1548 0.950 . S
H1573 C1549 0.949 . S
H1574 C1551 0.950 . S
H1575 C1553 0.950 . S
C1576 C1577 1.349 . S
C1576 C1578 1.327 . S
C1576 H1601 0.950 . S
C1577 C1576 1.349 . S
C1577 C1593 1.349 . S
C1578 C1576 1.327 . S
C1578 C1597 1.429 . S
C1578 H1602 0.950 . S
C1579 C1596 1.574 . S
C1579 C1598 1.368 . S
C1579 H1603 0.949 . S
H1580 C1584 0.949 . S
C1581 C1582 1.349 . S
C1581 C1583 1.327 . S
C1581 H1604 0.950 . S
C1582 C1581 1.349 . S
C1582 C1594 1.349 . S
C1583 C1581 1.327 . S
C1583 C1599 1.429 . S
C1583 H1605 0.950 . S
C1584 H1580 0.949 . S
C1584 C1592 1.574 . S
C1584 C1600 1.368 . S
H1585 C1593 0.950 . S
H1586 C1591 0.950 . S
H1587 C1592 0.949 . S
H1588 C1594 0.950 . S
H1589 C1595 0.950 . S
H1590 C1596 0.949 . S
C1591 H1586 0.950 . S
C1591 C1593 1.327 . S
C1591 C1597 1.429 . S
C1592 C1584 1.574 . S
C1592 H1587 0.949 . S
C1592 C1598 1.368 . S
C1593 C1577 1.349 . S
C1593 H1585 0.950 . S
C1593 C1591 1.327 . S
C1594 C1582 1.349 . S
C1594 H1588 0.950 . S
C1594 C1595 1.327 . S
C1595 H1589 0.950 . S
C1595 C1594 1.327 . S
C1595 C1599 1.429 . S
C1596 C1579 1.574 . S
C1596 H1590 0.949 . S
C1596 C1600 1.368 . S
C1597 C1578 1.429 . S
C1597 C1591 1.429 . S
C1597 C1598 1.523 . S
C1598 C1579 1.368 . S
C1598 C1592 1.368 . S
C1598 C1597 1.523 . S
C1599 C1583 1.429 . S
C1599 C1595 1.429 . S
C1599 C1600 1.523 . S
C1600 C1584 1.368 . S
C1600 C1596 1.368 . S
C1600 C1599 1.523 . S
H1601 C1576 0.950 . S
H1602 C1578 0.950 . S
H1603 C1579 0.949 . S
H1604 C1581 0.950 . S
H1605 C1583 0.950 . S
C1606 C1607 1.349 . S
C1606 C1608 1.327 . S
C1606 H1631 0.950 . S
C1607 C1606 1.349 . S
C1607 C1623 1.349 . S
C1608 C1606 1.327 . S
C1608 C1627 1.429 . S
C1608 H1632 0.950 . S
C1609 C1626 1.574 . S
C1609 C1628 1.368 . S
C1609 H1633 0.949 . S
H1610 C1614 0.949 . S
C1611 C1612 1.349 . S
C1611 C1613 1.327 . S
C1611 H1634 0.950 . S
C1612 C1611 1.349 . S
C1612 C1624 1.349 . S
C1613 C1611 1.327 . S
C1613 C1629 1.429 . S
C1613 H1635 0.950 . S
C1614 H1610 0.949 . S
C1614 C1622 1.574 . S
C1614 C1630 1.368 . S
H1615 C1623 0.950 . S
H1616 C1621 0.950 . S
H1617 C1622 0.949 . S
H1618 C1624 0.950 . S
H1619 C1625 0.950 . S
H1620 C1626 0.949 . S
C1621 H1616 0.950 . S
C1621 C1623 1.327 . S
C1621 C1627 1.429 . S
C1622 C1614 1.574 . S
C1622 H1617 0.949 . S
C1622 C1628 1.368 . S
C1623 C1607 1.349 . S
C1623 H1615 0.950 . S
C1623 C1621 1.327 . S
C1624 C1612 1.349 . S
C1624 H1618 0.950 . S
C1624 C1625 1.327 . S
C1625 H1619 0.950 . S
C1625 C1624 1.327 . S
C1625 C1629 1.429 . S
C1626 C1609 1.574 . S
C1626 H1620 0.949 . S
C1626 C1630 1.368 . S
C1627 C1608 1.429 . S
C1627 C1621 1.429 . S
C1627 C1628 1.523 . S
C1628 C1609 1.368 . S
C1628 C1622 1.368 . S
C1628 C1627 1.523 . S
C1629 C1613 1.429 . S
C1629 C1625 1.429 . S
C1629 C1630 1.523 . S
C1630 C1614 1.368 . S
C1630 C1626 1.368 . S
C1630 C1629 1.523 . S
H1631 C1606 0.950 . S
H1632 C1608 0.950 . S
H1633 C1609 0.949 . S
H1634 C1611 0.950 . S
H1635 C1613 0.950 . S
C1636 C1637 1.349 . S
C1636 C1638 1.327 . S
C1636 H1661 0.950 . S
C1637 C1636 1.349 . S
C1637 C1653 1.349 . S
C1638 C1636 1.327 . S
C1638 C1657 1.429 . S
C1638 H1662 0.950 . S
C1639 C1656 1.574 . S
C1639 C1658 1.368 . S
C1639 H1663 0.949 . S
H1640 C1644 0.949 . S
C1641 C1642 1.349 . S
C1641 C1643 1.327 . S
C1641 H1664 0.950 . S
C1642 C1641 1.349 . S
C1642 C1654 1.349 . S
C1643 C1641 1.327 . S
C1643 C1659 1.429 . S
C1643 H1665 0.950 . S
C1644 H1640 0.949 . S
C1644 C1652 1.574 . S
C1644 C1660 1.368 . S
H1645 C1653 0.950 . S
H1646 C1651 0.950 . S
H1647 C1652 0.949 . S
H1648 C1654 0.950 . S
H1649 C1655 0.950 . S
H1650 C1656 0.949 . S
C1651 H1646 0.950 . S
C1651 C1653 1.327 . S
C1651 C1657 1.429 . S
C1652 C1644 1.574 . S
C1652 H1647 0.949 . S
C1652 C1658 1.368 . S
C1653 C1637 1.349 . S
C1653 H1645 0.950 . S
C1653 C1651 1.327 . S
C1654 C1642 1.349 . S
C1654 H1648 0.950 . S
C1654 C1655 1.327 . S
C1655 H1649 0.950 . S
C1655 C1654 1.327 . S
C1655 C1659 1.429 . S
C1656 C1639 1.574 . S
C1656 H1650 0.949 . S
C1656 C1660 1.368 . S
C1657 C1638 1.429 . S
C1657 C1651 1.429 . S
C1657 C1658 1.523 . S
C1658 C1639 1.368 . S
C1658 C1652 1.368 . S
C1658 C1657 1.523 . S
C1659 C1643 1.429 . S
C1659 C1655 1.429 . S
C1659 C1660 1.523 . S
C1660 C1644 1.368 . S
C1660 C1656 1.368 . S
C1660 C1659 1.523 . S
H1661 C1636 0.950 . S
H1662 C1638 0.950 . S
H1663 C1639 0.949 . S
H1664 C1641 0.950 . S
H1665 C1643 0.950 . S
C1666 C1667 1.349 . S
C1666 C1668 1.327 . S
C1666 H1691 0.950 . S
C1667 C1666 1.349 . S
C1667 C1683 1.349 . S
C1668 C1666 1.327 . S
C1668 C1687 1.429 . S
C1668 H1692 0.950 . S
C1669 C1686 1.574 . S
C1669 C1688 1.368 . S
C1669 H1693 0.949 . S
H1670 C1674 0.949 . S
C1671 C1672 1.349 . S
C1671 C1673 1.327 . S
C1671 H1694 0.950 . S
C1672 C1671 1.349 . S
C1672 C1684 1.349 . S
C1673 C1671 1.327 . S
C1673 C1689 1.429 . S
C1673 H1695 0.950 . S
C1674 H1670 0.949 . S
C1674 C1682 1.574 . S
C1674 C1690 1.368 . S
H1675 C1683 0.950 . S
H1676 C1681 0.950 . S
H1677 C1682 0.949 . S
H1678 C1684 0.950 . S
H1679 C1685 0.950 . S
H1680 C1686 0.949 . S
C1681 H1676 0.950 . S
C1681 C1683 1.327 . S
C1681 C1687 1.429 . S
C1682 C1674 1.574 . S
C1682 H1677 0.949 . S
C1682 C1688 1.368 . S
C1683 C1667 1.349 . S
C1683 H1675 0.950 . S
C1683 C1681 1.327 . S
C1684 C1672 1.349 . S
C1684 H1678 0.950 . S
C1684 C1685 1.327 . S
C1685 H1679 0.950 . S
C1685 C1684 1.327 . S
C1685 C1689 1.429 . S
C1686 C1669 1.574 . S
C1686 H1680 0.949 . S
C1686 C1690 1.368 . S
C1687 C1668 1.429 . S
C1687 C1681 1.429 . S
C1687 C1688 1.523 . S
C1688 C1669 1.368 . S
C1688 C1682 1.368 . S
C1688 C1687 1.523 . S
C1689 C1673 1.429 . S
C1689 C1685 1.429 . S
C1689 C1690 1.523 . S
C1690 C1674 1.368 . S
C1690 C1686 1.368 . S
C1690 C1689 1.523 . S
H1691 C1666 0.950 . S
H1692 C1668 0.950 . S
H1693 C1669 0.949 . S
H1694 C1671 0.950 . S
H1695 C1673 0.950 . S
C1696 C1697 1.349 . S
C1696 C1698 1.327 . S
C1696 H1721 0.950 . S
C1697 C1696 1.349 . S
C1697 C1713 1.349 . S
C1698 C1696 1.327 . S
C1698 C1717 1.429 . S
C1698 H1722 0.950 . S
C1699 C1716 1.574 . S
C1699 C1718 1.368 . S
C1699 H1723 0.949 . S
H1700 C1704 0.949 . S
C1701 C1702 1.349 . S
C1701 C1703 1.327 . S
C1701 H1724 0.950 . S
C1702 C1701 1.349 . S
C1702 C1714 1.349 . S
C1703 C1701 1.327 . S
C1703 C1719 1.429 . S
C1703 H1725 0.950 . S
C1704 H1700 0.949 . S
C1704 C1712 1.574 . S
C1704 C1720 1.368 . S
H1705 C1713 0.950 . S
H1706 C1711 0.950 . S
H1707 C1712 0.949 . S
H1708 C1714 0.950 . S
H1709 C1715 0.950 . S
H1710 C1716 0.949 . S
C1711 H1706 0.950 . S
C1711 C1713 1.327 . S
C1711 C1717 1.429 . S
C1712 C1704 1.574 . S
C1712 H1707 0.949 . S
C1712 C1718 1.368 . S
C1713 C1697 1.349 . S
C1713 H1705 0.950 . S
C1713 C1711 1.327 . S
C1714 C1702 1.349 . S
C1714 H1708 0.950 . S
C1714 C1715 1.327 . S
C1715 H1709 0.950 . S
C1715 C1714 1.327 . S
C1715 C1719 1.429 . S
C1716 C1699 1.574 . S
C1716 H1710 0.949 . S
C1716 C1720 1.368 . S
C1717 C1698 1.429 . S
C1717 C1711 1.429 . S
C1717 C1718 1.523 . S
C1718 C1699 1.368 . S
C1718 C1712 1.368 . S
C1718 C1717 1.523 . S
C1719 C1703 1.429 . S
C1719 C1715 1.429 . S
C1719 C1720 1.523 . S
C1720 C1704 1.368 . S
C1720 C1716 1.368 . S
C1720 C1719 1.523 . S
H1721 C1696 0.950 . S
H1722 C1698 0.950 . S
H1723 C1699 0.949 . S
H1724 C1701 0.950 . S
H1725 C1703 0.950 . S
C1726 C1727 1.349 . S
C1726 C1728 1.327 . S
C1726 H1751 0.950 . S
C1727 C1726 1.349 . S
C1727 C1743 1.349 . S
C1728 C1726 1.327 . S
C1728 C1747 1.429 . S
C1728 H1752 0.950 . S
C1729 C1746 1.574 . S
C1729 C1748 1.368 . S
C1729 H1753 0.949 . S
H1730 C1734 0.949 . S
C1731 C1732 1.349 . S
C1731 C1733 1.327 . S
C1731 H1754 0.950 . S
C1732 C1731 1.349 . S
C1732 C1744 1.349 . S
C1733 C1731 1.327 . S
C1733 C1749 1.429 . S
C1733 H1755 0.950 . S
C1734 H1730 0.949 . S
C1734 C1742 1.574 . S
C1734 C1750 1.368 . S
H1735 C1743 0.950 . S
H1736 C1741 0.950 . S
H1737 C1742 0.949 . S
H1738 C1744 0.950 . S
H1739 C1745 0.950 . S
H1740 C1746 0.949 . S
C1741 H1736 0.950 . S
C1741 C1743 1.327 . S
C1741 C1747 1.429 . S
C1742 C1734 1.574 . S
C1742 H1737 0.949 . S
C1742 C1748 1.368 . S
C1743 C1727 1.349 . S
C1743 H1735 0.950 . S
C1743 C1741 1.327 . S
C1744 C1732 1.349 . S
C1744 H1738 0.950 . S
C1744 C1745 1.327 . S
C1745 H1739 0.950 . S
C1745 C1744 1.327 . S
C1745 C1749 1.429 . S
C1746 C1729 1.574 . S
C1746 H1740 0.949 . S
C1746 C1750 1.368 . S
C1747 C1728 1.429 . S
C1747 C1741 1.429 . S
C1747 C1748 1.523 . S
C1748 C1729 1.368 . S
C1748 C1742 1.368 . S
C1748 C1747 1.523 . S
C1749 C1733 1.429 . S
C1749 C1745 1.429 . S
C1749 C1750 1.523 . S
C1750 C1734 1.368 . S
C1750 C1746 1.368 . S
C1750 C1749 1.523 . S
H1751 C1726 0.950 . S
H1752 C1728 0.950 . S
H1753 C1729 0.949 . S
H1754 C1731 0.950 . S
H1755 C1733 0.950 . S
C1756 C1757 1.349 . S
C1756 C1758 1.327 . S
C1756 H1781 0.950 . S
C1757 C1756 1.349 . S
C1757 C1773 1.349 . S
C1758 C1756 1.327 . S
C1758 C1777 1.429 . S
C1758 H1782 0.950 . S
C1759 C1776 1.574 . S
C1759 C1778 1.368 . S
C1759 H1783 0.949 . S
H1760 C1764 0.949 . S
C1761 C1762 1.349 . S
C1761 C1763 1.327 . S
C1761 H1784 0.950 . S
C1762 C1761 1.349 . S
C1762 C1774 1.349 . S
C1763 C1761 1.327 . S
C1763 C1779 1.429 . S
C1763 H1785 0.950 . S
C1764 H1760 0.949 . S
C1764 C1772 1.574 . S
C1764 C1780 1.368 . S
H1765 C1773 0.950 . S
H1766 C1771 0.950 . S
H1767 C1772 0.949 . S
H1768 C1774 0.950 . S
H1769 C1775 0.950 . S
H1770 C1776 0.949 . S
C1771 H1766 0.950 . S
C1771 C1773 1.327 . S
C1771 C1777 1.429 . S
C1772 C1764 1.574 . S
C1772 H1767 0.949 . S
C1772 C1778 1.368 . S
C1773 C1757 1.349 . S
C1773 H1765 0.950 . S
C1773 C1771 1.327 . S
C1774 C1762 1.349 . S
C1774 H1768 0.950 . S
C1774 C1775 1.327 . S
C1775 H1769 0.950 . S
C1775 C1774 1.327 . S
C1775 C1779 1.429 . S
C1776 C1759 1.574 . S
C1776 H1770 0.949 . S
C1776 C1780 1.368 . S
C1777 C1758 1.429 . S
C1777 C1771 1.429 . S
C1777 C1778 1.523 . S
C1778 C1759 1.368 . S
C1778 C1772 1.368 . S
C1778 C1777 1.523 . S
C1779 C1763 1.429 . S
C1779 C1775 1.429 . S
C1779 C1780 1.523 . S
C1780 C1764 1.368 . S
C1780 C1776 1.368 . S
C1780 C1779 1.523 . S
H1781 C1756 0.950 . S
H1782 C1758 0.950 . S
H1783 C1759 0.949 . S
H1784 C1761 0.950 . S
H1785 C1763 0.950 . S
C1786 C1787 1.349 . S
C1786 C1788 1.327 . S
C1786 H1811 0.950 . S
C1787 C1786 1.349 . S
C1787 C1803 1.349 . S
C1788 C1786 1.327 . S
C1788 C1807 1.429 . S
C1788 H1812 0.950 . S
C1789 C1806 1.574 . S
C1789 C1808 1.368 . S
C1789 H1813 0.949 . S
H1790 C1794 0.949 . S
C1791 C1792 1.349 . S
C1791 C1793 1.327 . S
C1791 H1814 0.950 . S
C1792 C1791 1.349 . S
C1792 C1804 1.349 . S
C1793 C1791 1.327 . S
C1793 C1809 1.429 . S
C1793 H1815 0.950 . S
C1794 H1790 0.949 . S
C1794 C1802 1.574 . S
C1794 C1810 1.368 . S
H1795 C1803 0.950 . S
H1796 C1801 0.950 . S
H1797 C1802 0.949 . S
H1798 C1804 0.950 . S
H1799 C1805 0.950 . S
H1800 C1806 0.949 . S
C1801 H1796 0.950 . S
C1801 C1803 1.327 . S
C1801 C1807 1.429 . S
C1802 C1794 1.574 . S
C1802 H1797 0.949 . S
C1802 C1808 1.368 . S
C1803 C1787 1.349 . S
C1803 H1795 0.950 . S
C1803 C1801 1.327 . S
C1804 C1792 1.349 . S
C1804 H1798 0.950 . S
C1804 C1805 1.327 . S
C1805 H1799 0.950 . S
C1805 C1804 1.327 . S
C1805 C1809 1.429 . S
C1806 C1789 1.574 . S
C1806 H1800 0.949 . S
C1806 C1810 1.368 . S
C1807 C1788 1.429 . S
C1807 C1801 1.429 . S
C1807 C1808 1.523 . S
C1808 C1789 1.368 . S
C1808 C1802 1.368 . S
C1808 C1807 1.523 . S
C1809 C1793 1.429 . S
C1809 C1805 1.429 . S
C1809 C1810 1.523 . S
C1810 C1794 1.368 . S
C1810 C1806 1.368 . S
C1810 C1809 1.523 . S
H1811 C1786 0.950 . S
H1812 C1788 0.950 . S
H1813 C1789 0.949 . S
H1814 C1791 0.950 . S
H1815 C1793 0.950 . S
C1816 C1817 1.349 . S
C1816 C1818 1.327 . S
C1816 H1841 0.950 . S
C1817 C1816 1.349 . S
C1817 C1833 1.349 . S
C1818 C1816 1.327 . S
C1818 C1837 1.429 . S
C1818 H1842 0.950 . S
C1819 C1836 1.574 . S
C1819 C1838 1.368 . S
C1819 H1843 0.949 . S
H1820 C1824 0.949 . S
C1821 C1822 1.349 . S
C1821 C1823 1.327 . S
C1821 H1844 0.950 . S
C1822 C1821 1.349 . S
C1822 C1834 1.349 . S
C1823 C1821 1.327 . S
C1823 C1839 1.429 . S
C1823 H1845 0.950 . S
C1824 H1820 0.949 . S
C1824 C1832 1.574 . S
C1824 C1840 1.368 . S
H1825 C1833 0.950 . S
H1826 C1831 0.950 . S
H1827 C1832 0.949 . S
H1828 C1834 0.950 . S
H1829 C1835 0.950 . S
H1830 C1836 0.949 . S
C1831 H1826 0.950 . S
C1831 C1833 1.327 . S
C1831 C1837 1.429 . S
C1832 C1824 1.574 . S
C1832 H1827 0.949 . S
C1832 C1838 1.368 . S
C1833 C1817 1.349 . S
C1833 H1825 0.950 . S
C1833 C1831 1.327 . S
C1834 C1822 1.349 . S
C1834 H1828 0.950 . S
C1834 C1835 1.327 . S
C1835 H1829 0.950 . S
C1835 C1834 1.327 . S
C1835 C1839 1.429 . S
C1836 C1819 1.574 . S
C1836 H1830 0.949 . S
C1836 C1840 1.368 . S
C1837 C1818 1.429 . S
C1837 C1831 1.429 . S
C1837 C1838 1.523 . S
C1838 C1819 1.368 . S
C1838 C1832 1.368 . S
C1838 C1837 1.523 . S
C1839 C1823 1.429 . S
C1839 C1835 1.429 . S
C1839 C1840 1.523 . S
C1840 C1824 1.368 . S
C1840 C1836 1.368 . S
C1840 C1839 1.523 . S
H1841 C1816 0.950 . S
H1842 C1818 0.950 . S
H1843 C1819 0.949 . S
H1844 C1821 0.950 . S
H1845 C1823 0.950 . S
C1846 C1847 1.349 . S
C1846 C1848 1.327 . S
C1846 H1871 0.950 . S
C1847 C1846 1.349 . S
C1847 C1863 1.349 . S
C1848 C1846 1.327 . S
C1848 C1867 1.429 . S
C1848 H1872 0.950 . S
C1849 C1866 1.574 . S
C1849 C1868 1.368 . S
C1849 H1873 0.949 . S
H1850 C1854 0.949 . S
C1851 C1852 1.349 . S
C1851 C1853 1.327 . S
C1851 H1874 0.950 . S
C1852 C1851 1.349 . S
C1852 C1864 1.349 . S
C1853 C1851 1.327 . S
C1853 C1869 1.429 . S
C1853 H1875 0.950 . S
C1854 H1850 0.949 . S
C1854 C1862 1.574 . S
C1854 C1870 1.368 . S
H1855 C1863 0.950 . S
H1856 C1861 0.950 . S
H1857 C1862 0.949 . S
H1858 C1864 0.950 . S
H1859 C1865 0.950 . S
H1860 C1866 0.949 . S
C1861 H1856 0.950 . S
C1861 C1863 1.327 . S
C1861 C1867 1.429 . S
C1862 C1854 1.574 . S
C1862 H1857 0.949 . S
C1862 C1868 1.368 . S
C1863 C1847 1.349 . S
C1863 H1855 0.950 . S
C1863 C1861 1.327 . S
C1864 C1852 1.349 . S
C1864 H1858 0.950 . S
C1864 C1865 1.327 . S
C1865 H1859 0.950 . S
C1865 C1864 1.327 . S
C1865 C1869 1.429 . S
C1866 C1849 1.574 . S
C1866 H1860 0.949 . S
C1866 C1870 1.368 . S
C1867 C1848 1.429 . S
C1867 C1861 1.429 . S
C1867 C1868 1.523 . S
C1868 C1849 1.368 . S
C1868 C1862 1.368 . S
C1868 C1867 1.523 . S
C1869 C1853 1.429 . S
C1869 C1865 1.429 . S
C1869 C1870 1.523 . S
C1870 C1854 1.368 . S
C1870 C1866 1.368 . S
C1870 C1869 1.523 . S
H1871 C1846 0.950 . S
H1872 C1848 0.950 . S
H1873 C1849 0.949 . S
H1874 C1851 0.950 . S
H1875 C1853 0.950 . S
C442 C288 1.811 . S
C437 N2 1.798 . S
C472 C315 2.469 . S
C467 C7 2.463 . S
C502 C325 1.804 . S
C497 N12 1.719 . S
C527 C16 2.037 . S
C532 C355 2.073 . S
C562 C374 2.171 . S
C557 C30 2.160 . S
C592 C385 1.669 . S
C587 N35 1.637 . S
C617 C39 2.486 . S
C622 C414 2.482 . S
C652 C428 1.652 . S
C647 N25 1.581 . S
C682 C280 1.162 . S
C677 N58 1.129 . S
C707 N81 1.456 . S
C712 C308 1.524 . S
C742 C334 1.621 . S
C737 N104 1.526 . S
C767 N127 0.941 . S
C772 C348 0.973 . S
C802 C358 0.581 . S
C797 N48 0.580 . S
C832 C394 1.878 . S
C827 N71 1.850 . S
C857 N94 1.126 . S
C862 C398 1.124 . S
C892 C420 1.349 . S
C887 N117 1.366 . S
C917 C85 2.227 . S
C922 C295 2.270 . S
C947 C122 1.228 . S
C952 C365 1.218 . S
C977 C53 1.569 . S
C982 C378 1.522 . S
C1012 C405 1.886 . S
C1007 C76 1.889 . S
C1042 C435 2.055 . S
C1037 C99 2.037 . S
C1072 C318 1.655 . S
C1067 C131 1.704 . S
C1102 C340 0.725 . S
C1097 C62 0.724 . S
C1127 C108 1.398 . S
C1132 C300 1.400 . S
C1162 C425 1.890 . S
C1157 N140 1.868 . S
C1187 C145 2.117 . S
C1192 C375 2.121 . S
C1222 C388 1.730 . S
C1217 N150 1.659 . S
C1247 C154 2.380 . S
C1252 C415 2.420 . S
C1282 C314 2.517 . S
C1277 C168 2.505 . S
C1307 N173 1.542 . S
C1312 C328 1.562 . S
C1342 C354 2.122 . S
C1337 C177 2.127 . S
C1372 C285 1.751 . S
C1367 N163 1.663 . S
C1402 C434 2.084 . S
C1397 C200 2.083 . S
C1432 C368 1.229 . S
C1427 N219 1.176 . S
C1457 N242 1.323 . S
C1462 C380 1.356 . S
C1492 C408 1.893 . S
C1487 C269 1.896 . S
C1522 C298 1.482 . S
C1517 C191 1.485 . S
C1547 N209 1.579 . S
C1552 C320 1.554 . S
C1577 N232 0.819 . S
C1582 C338 0.819 . S
C1607 C260 2.342 . S
C1612 C294 2.355 . S
C1637 C223 1.473 . S
C1642 C418 1.438 . S
C1667 N255 1.424 . S
C1672 C305 1.492 . S
C1697 N186 1.467 . S
C1702 C335 1.565 . S
C1732 C345 0.937 . S
C1727 C214 0.942 . S
C1762 C278 1.311 . S
C1757 C237 1.345 . S
C1792 C395 1.785 . S
C1787 N265 1.722 . S
C1822 C400 1.038 . S
C1817 N196 1.032 . S
C1852 C360 0.493 . S
C1847 C246 0.471 . S
