# Generated by pormake.
# Topology gar, (4,6)-cn, num edge types: 1
# Building blocks:
#     Node 0, Type 0, BuildingBlock: CEKHIL_clean_sbu_0, # of connection points: 4
#     Node 1, Type 0, BuildingBlock: CEKHIL_clean_sbu_0, # of connection points: 4
#     Node 2, Type 0, BuildingBlock: CEKHIL_clean_sbu_0, # of connection points: 4
#     Node 3, Type 0, BuildingBlock: CEKHIL_clean_sbu_0, # of connection points: 4
#     Node 4, Type 0, BuildingBlock: CEKHIL_clean_sbu_0, # of connection points: 4
#     Node 5, Type 0, BuildingBlock: CEKHIL_clean_sbu_0, # of connection points: 4
#     Node 6, Type 0, BuildingBlock: CEKHIL_clean_sbu_0, # of connection points: 4
#     Node 7, Type 0, BuildingBlock: CEKHIL_clean_sbu_0, # of connection points: 4
#     Node 8, Type 0, BuildingBlock: CEKHIL_clean_sbu_0, # of connection points: 4
#     Node 9, Type 0, BuildingBlock: CEKHIL_clean_sbu_0, # of connection points: 4
#     Node 10, Type 0, BuildingBlock: CEKHIL_clean_sbu_0, # of connection points: 4
#     Node 11, Type 0, BuildingBlock: CEKHIL_clean_sbu_0, # of connection points: 4
#     Node 12, Type 0, BuildingBlock: CEKHIL_clean_sbu_0, # of connection points: 4
#     Node 13, Type 0, BuildingBlock: CEKHIL_clean_sbu_0, # of connection points: 4
#     Node 14, Type 0, BuildingBlock: CEKHIL_clean_sbu_0, # of connection points: 4
#     Node 15, Type 0, BuildingBlock: CEKHIL_clean_sbu_0, # of connection points: 4
#     Node 16, Type 0, BuildingBlock: CEKHIL_clean_sbu_0, # of connection points: 4
#     Node 17, Type 0, BuildingBlock: CEKHIL_clean_sbu_0, # of connection points: 4
#     Node 18, Type 0, BuildingBlock: CEKHIL_clean_sbu_0, # of connection points: 4
#     Node 19, Type 0, BuildingBlock: CEKHIL_clean_sbu_0, # of connection points: 4
#     Node 20, Type 0, BuildingBlock: CEKHIL_clean_sbu_0, # of connection points: 4
#     Node 21, Type 0, BuildingBlock: CEKHIL_clean_sbu_0, # of connection points: 4
#     Node 22, Type 0, BuildingBlock: CEKHIL_clean_sbu_0, # of connection points: 4
#     Node 23, Type 0, BuildingBlock: CEKHIL_clean_sbu_0, # of connection points: 4
#     Node 24, Type 1, BuildingBlock: KUMBOL_clean_sbu_1, # of connection points: 6
#     Node 25, Type 1, BuildingBlock: KUMBOL_clean_sbu_1, # of connection points: 6
#     Node 26, Type 1, BuildingBlock: KUMBOL_clean_sbu_1, # of connection points: 6
#     Node 27, Type 1, BuildingBlock: KUMBOL_clean_sbu_1, # of connection points: 6
#     Node 28, Type 1, BuildingBlock: KUMBOL_clean_sbu_1, # of connection points: 6
#     Node 29, Type 1, BuildingBlock: KUMBOL_clean_sbu_1, # of connection points: 6
#     Node 30, Type 1, BuildingBlock: KUMBOL_clean_sbu_1, # of connection points: 6
#     Node 31, Type 1, BuildingBlock: KUMBOL_clean_sbu_1, # of connection points: 6
#     Node 32, Type 1, BuildingBlock: KUMBOL_clean_sbu_1, # of connection points: 6
#     Node 33, Type 1, BuildingBlock: KUMBOL_clean_sbu_1, # of connection points: 6
#     Node 34, Type 1, BuildingBlock: KUMBOL_clean_sbu_1, # of connection points: 6
#     Node 35, Type 1, BuildingBlock: KUMBOL_clean_sbu_1, # of connection points: 6
#     Node 36, Type 1, BuildingBlock: KUMBOL_clean_sbu_1, # of connection points: 6
#     Node 37, Type 1, BuildingBlock: KUMBOL_clean_sbu_1, # of connection points: 6
#     Node 38, Type 1, BuildingBlock: KUMBOL_clean_sbu_1, # of connection points: 6
#     Node 39, Type 1, BuildingBlock: KUMBOL_clean_sbu_1, # of connection points: 6
#     Edge 40, Type (0, 1), BuildingBlock: MIFKUJ_clean_linker_0, # of connection points: 2
#     Edge 41, Type (0, 1), BuildingBlock: MIFKUJ_clean_linker_0, # of connection points: 2
#     Edge 42, Type (0, 1), BuildingBlock: MIFKUJ_clean_linker_0, # of connection points: 2
#     Edge 43, Type (0, 1), BuildingBlock: MIFKUJ_clean_linker_0, # of connection points: 2
#     Edge 44, Type (0, 1), BuildingBlock: MIFKUJ_clean_linker_0, # of connection points: 2
#     Edge 45, Type (0, 1), BuildingBlock: MIFKUJ_clean_linker_0, # of connection points: 2
#     Edge 46, Type (0, 1), BuildingBlock: MIFKUJ_clean_linker_0, # of connection points: 2
#     Edge 47, Type (0, 1), BuildingBlock: MIFKUJ_clean_linker_0, # of connection points: 2
#     Edge 48, Type (0, 1), BuildingBlock: MIFKUJ_clean_linker_0, # of connection points: 2
#     Edge 49, Type (0, 1), BuildingBlock: MIFKUJ_clean_linker_0, # of connection points: 2
#     Edge 50, Type (0, 1), BuildingBlock: MIFKUJ_clean_linker_0, # of connection points: 2
#     Edge 51, Type (0, 1), BuildingBlock: MIFKUJ_clean_linker_0, # of connection points: 2
#     Edge 52, Type (0, 1), BuildingBlock: MIFKUJ_clean_linker_0, # of connection points: 2
#     Edge 53, Type (0, 1), BuildingBlock: MIFKUJ_clean_linker_0, # of connection points: 2
#     Edge 54, Type (0, 1), BuildingBlock: MIFKUJ_clean_linker_0, # of connection points: 2
#     Edge 55, Type (0, 1), BuildingBlock: MIFKUJ_clean_linker_0, # of connection points: 2
#     Edge 56, Type (0, 1), BuildingBlock: MIFKUJ_clean_linker_0, # of connection points: 2
#     Edge 57, Type (0, 1), BuildingBlock: MIFKUJ_clean_linker_0, # of connection points: 2
#     Edge 58, Type (0, 1), BuildingBlock: MIFKUJ_clean_linker_0, # of connection points: 2
#     Edge 59, Type (0, 1), BuildingBlock: MIFKUJ_clean_linker_0, # of connection points: 2
#     Edge 60, Type (0, 1), BuildingBlock: MIFKUJ_clean_linker_0, # of connection points: 2
#     Edge 61, Type (0, 1), BuildingBlock: MIFKUJ_clean_linker_0, # of connection points: 2
#     Edge 62, Type (0, 1), BuildingBlock: MIFKUJ_clean_linker_0, # of connection points: 2
#     Edge 63, Type (0, 1), BuildingBlock: MIFKUJ_clean_linker_0, # of connection points: 2
#     Edge 64, Type (0, 1), BuildingBlock: MIFKUJ_clean_linker_0, # of connection points: 2
#     Edge 65, Type (0, 1), BuildingBlock: MIFKUJ_clean_linker_0, # of connection points: 2
#     Edge 66, Type (0, 1), BuildingBlock: MIFKUJ_clean_linker_0, # of connection points: 2
#     Edge 67, Type (0, 1), BuildingBlock: MIFKUJ_clean_linker_0, # of connection points: 2
#     Edge 68, Type (0, 1), BuildingBlock: MIFKUJ_clean_linker_0, # of connection points: 2
#     Edge 69, Type (0, 1), BuildingBlock: MIFKUJ_clean_linker_0, # of connection points: 2
#     Edge 70, Type (0, 1), BuildingBlock: MIFKUJ_clean_linker_0, # of connection points: 2
#     Edge 71, Type (0, 1), BuildingBlock: MIFKUJ_clean_linker_0, # of connection points: 2
#     Edge 72, Type (0, 1), BuildingBlock: MIFKUJ_clean_linker_0, # of connection points: 2
#     Edge 73, Type (0, 1), BuildingBlock: MIFKUJ_clean_linker_0, # of connection points: 2
#     Edge 74, Type (0, 1), BuildingBlock: MIFKUJ_clean_linker_0, # of connection points: 2
#     Edge 75, Type (0, 1), BuildingBlock: MIFKUJ_clean_linker_0, # of connection points: 2
#     Edge 76, Type (0, 1), BuildingBlock: MIFKUJ_clean_linker_0, # of connection points: 2
#     Edge 77, Type (0, 1), BuildingBlock: MIFKUJ_clean_linker_0, # of connection points: 2
#     Edge 78, Type (0, 1), BuildingBlock: MIFKUJ_clean_linker_0, # of connection points: 2
#     Edge 79, Type (0, 1), BuildingBlock: MIFKUJ_clean_linker_0, # of connection points: 2
#     Edge 80, Type (0, 1), BuildingBlock: MIFKUJ_clean_linker_0, # of connection points: 2
#     Edge 81, Type (0, 1), BuildingBlock: MIFKUJ_clean_linker_0, # of connection points: 2
#     Edge 82, Type (0, 1), BuildingBlock: MIFKUJ_clean_linker_0, # of connection points: 2
#     Edge 83, Type (0, 1), BuildingBlock: MIFKUJ_clean_linker_0, # of connection points: 2
#     Edge 84, Type (0, 1), BuildingBlock: MIFKUJ_clean_linker_0, # of connection points: 2
#     Edge 85, Type (0, 1), BuildingBlock: MIFKUJ_clean_linker_0, # of connection points: 2
#     Edge 86, Type (0, 1), BuildingBlock: MIFKUJ_clean_linker_0, # of connection points: 2
#     Edge 87, Type (0, 1), BuildingBlock: MIFKUJ_clean_linker_0, # of connection points: 2
#     Edge 88, Type (0, 1), BuildingBlock: MIFKUJ_clean_linker_0, # of connection points: 2
#     Edge 89, Type (0, 1), BuildingBlock: MIFKUJ_clean_linker_0, # of connection points: 2
#     Edge 90, Type (0, 1), BuildingBlock: MIFKUJ_clean_linker_0, # of connection points: 2
#     Edge 91, Type (0, 1), BuildingBlock: MIFKUJ_clean_linker_0, # of connection points: 2
#     Edge 92, Type (0, 1), BuildingBlock: MIFKUJ_clean_linker_0, # of connection points: 2
#     Edge 93, Type (0, 1), BuildingBlock: MIFKUJ_clean_linker_0, # of connection points: 2
#     Edge 94, Type (0, 1), BuildingBlock: MIFKUJ_clean_linker_0, # of connection points: 2
#     Edge 95, Type (0, 1), BuildingBlock: MIFKUJ_clean_linker_0, # of connection points: 2
#     Edge 96, Type (0, 1), BuildingBlock: MIFKUJ_clean_linker_0, # of connection points: 2
#     Edge 97, Type (0, 1), BuildingBlock: MIFKUJ_clean_linker_0, # of connection points: 2
#     Edge 98, Type (0, 1), BuildingBlock: MIFKUJ_clean_linker_0, # of connection points: 2
#     Edge 99, Type (0, 1), BuildingBlock: MIFKUJ_clean_linker_0, # of connection points: 2
#     Edge 100, Type (0, 1), BuildingBlock: MIFKUJ_clean_linker_0, # of connection points: 2
#     Edge 101, Type (0, 1), BuildingBlock: MIFKUJ_clean_linker_0, # of connection points: 2
#     Edge 102, Type (0, 1), BuildingBlock: MIFKUJ_clean_linker_0, # of connection points: 2
#     Edge 103, Type (0, 1), BuildingBlock: MIFKUJ_clean_linker_0, # of connection points: 2
#     Edge 104, Type (0, 1), BuildingBlock: MIFKUJ_clean_linker_0, # of connection points: 2
#     Edge 105, Type (0, 1), BuildingBlock: MIFKUJ_clean_linker_0, # of connection points: 2
#     Edge 106, Type (0, 1), BuildingBlock: MIFKUJ_clean_linker_0, # of connection points: 2
#     Edge 107, Type (0, 1), BuildingBlock: MIFKUJ_clean_linker_0, # of connection points: 2
#     Edge 108, Type (0, 1), BuildingBlock: MIFKUJ_clean_linker_0, # of connection points: 2
#     Edge 109, Type (0, 1), BuildingBlock: MIFKUJ_clean_linker_0, # of connection points: 2
#     Edge 110, Type (0, 1), BuildingBlock: MIFKUJ_clean_linker_0, # of connection points: 2
#     Edge 111, Type (0, 1), BuildingBlock: MIFKUJ_clean_linker_0, # of connection points: 2
#     Edge 112, Type (0, 1), BuildingBlock: MIFKUJ_clean_linker_0, # of connection points: 2
#     Edge 113, Type (0, 1), BuildingBlock: MIFKUJ_clean_linker_0, # of connection points: 2
#     Edge 114, Type (0, 1), BuildingBlock: MIFKUJ_clean_linker_0, # of connection points: 2
#     Edge 115, Type (0, 1), BuildingBlock: MIFKUJ_clean_linker_0, # of connection points: 2
#     Edge 116, Type (0, 1), BuildingBlock: MIFKUJ_clean_linker_0, # of connection points: 2
#     Edge 117, Type (0, 1), BuildingBlock: MIFKUJ_clean_linker_0, # of connection points: 2
#     Edge 118, Type (0, 1), BuildingBlock: MIFKUJ_clean_linker_0, # of connection points: 2
#     Edge 119, Type (0, 1), BuildingBlock: MIFKUJ_clean_linker_0, # of connection points: 2
#     Edge 120, Type (0, 1), BuildingBlock: MIFKUJ_clean_linker_0, # of connection points: 2
#     Edge 121, Type (0, 1), BuildingBlock: MIFKUJ_clean_linker_0, # of connection points: 2
#     Edge 122, Type (0, 1), BuildingBlock: MIFKUJ_clean_linker_0, # of connection points: 2
#     Edge 123, Type (0, 1), BuildingBlock: MIFKUJ_clean_linker_0, # of connection points: 2
#     Edge 124, Type (0, 1), BuildingBlock: MIFKUJ_clean_linker_0, # of connection points: 2
#     Edge 125, Type (0, 1), BuildingBlock: MIFKUJ_clean_linker_0, # of connection points: 2
#     Edge 126, Type (0, 1), BuildingBlock: MIFKUJ_clean_linker_0, # of connection points: 2
#     Edge 127, Type (0, 1), BuildingBlock: MIFKUJ_clean_linker_0, # of connection points: 2
#     Edge 128, Type (0, 1), BuildingBlock: MIFKUJ_clean_linker_0, # of connection points: 2
#     Edge 129, Type (0, 1), BuildingBlock: MIFKUJ_clean_linker_0, # of connection points: 2
#     Edge 130, Type (0, 1), BuildingBlock: MIFKUJ_clean_linker_0, # of connection points: 2
#     Edge 131, Type (0, 1), BuildingBlock: MIFKUJ_clean_linker_0, # of connection points: 2
#     Edge 132, Type (0, 1), BuildingBlock: MIFKUJ_clean_linker_0, # of connection points: 2
#     Edge 133, Type (0, 1), BuildingBlock: MIFKUJ_clean_linker_0, # of connection points: 2
#     Edge 134, Type (0, 1), BuildingBlock: MIFKUJ_clean_linker_0, # of connection points: 2
#     Edge 135, Type (0, 1), BuildingBlock: MIFKUJ_clean_linker_0, # of connection points: 2
# Relax obj value: 0.056
# Max RMSD: 0.174
# Mean RMSD: 0.105
data_MOF--net-gar--node1-CEKHIL_clean_sbu_0--node2-KUMBOL_clean_sbu_1--edge1-MIFKUJ_clean_linker_0
_symmetry_space_group_name_H-M    P1
_symmetry_Int_Tables_number       1
_symmetry_cell_setting            triclinic
loop_
_symmetry_equiv_pos_as_xyz
'x, y, z'
_cell_length_a     76.724215
_cell_length_b     76.01118
_cell_length_c     71.206512
_cell_angle_alpha  95.62329
_cell_angle_beta   95.736979
_cell_angle_gamma 100.18803
loop_
_atom_site_label
_atom_site_type_symbol
_atom_site_fract_x
_atom_site_fract_y
_atom_site_fract_z
_atom_type_partial_charge
Co0 Co 0.04848 0.30784 0.36291 0.0
O1 O 0.07461 0.30943 0.36738 0.0
O2 O 0.05912 0.29931 0.33998 0.0
C3 C 0.04847 0.33636 0.37828 0.0
O4 O 0.02099 0.3046 0.35237 0.0
Co5 Co 0.02567 0.31098 0.3967 0.0
O6 O 1.00574 0.31098 0.37688 0.0
C7 C 0.03864 0.27699 0.38711 0.0
C8 C 0.07482 0.30296 0.34989 0.0
C9 C 1.00613 0.30666 0.35919 0.0
O10 O 0.04457 0.28256 0.37185 0.0
O11 O 0.03221 0.28697 0.39912 0.0
O12 O 0.0519 0.3343 0.36074 0.0
O13 O 0.0464 0.32165 0.38594 0.0
Co14 Co 0.01767 0.75838 0.68298 0.0
O15 O 0.9914 0.756 0.67783 0.0
O16 O 1.00448 0.75189 0.70504 0.0
C17 C 0.02301 0.78584 0.67108 0.0
O18 O 0.04513 0.76036 0.69379 0.0
Co19 Co 0.04165 0.76281 0.65011 0.0
O20 O 0.06182 0.76823 0.67054 0.0
C21 C 0.02206 0.72623 0.655 0.0
C22 C 0.98957 0.75305 0.69514 0.0
C23 C 0.0607 0.76464 0.68754 0.0
O24 O 0.01654 0.732 0.67086 0.0
O25 O 0.03029 0.7369 0.64457 0.0
O26 O 0.01959 0.78491 0.68846 0.0
O27 O 0.0224 0.7705 0.66151 0.0
Co28 Co 0.54859 0.80779 0.86193 0.0
O29 O 0.57477 0.8101 0.86722 0.0
O30 O 0.56021 0.8005 0.83925 0.0
C31 C 0.54718 0.83559 0.87779 0.0
O32 O 0.52129 0.80423 0.8507 0.0
Co33 Co 0.52484 0.80815 0.89497 0.0
O34 O 0.50571 0.81047 0.87498 0.0
C35 C 0.54137 0.77659 0.88593 0.0
C36 C 0.57566 0.8043 0.84968 0.0
C37 C 0.50647 0.80688 0.85723 0.0
O38 O 0.54528 0.78223 0.86996 0.0
O39 O 0.53493 0.78593 0.89851 0.0
O40 O 0.5513 0.83422 0.86048 0.0
O41 O 0.54544 0.82065 0.8851 0.0
Co42 Co 0.51639 0.25794 0.1832 0.0
O43 O 0.49021 0.25626 0.1784 0.0
O44 O 0.50335 0.25198 0.20551 0.0
C45 C 0.52216 0.28528 0.17122 0.0
O46 O 0.54371 0.25927 0.19375 0.0
Co47 Co 0.53991 0.26113 0.15033 0.0
O48 O 0.56058 0.26533 0.17016 0.0
C49 C 0.52031 0.22492 0.15603 0.0
C50 C 0.48846 0.25342 0.19575 0.0
C51 C 0.55928 0.26251 0.18735 0.0
O52 O 0.51442 0.23134 0.17137 0.0
O53 O 0.52923 0.23497 0.14554 0.0
O54 O 0.51933 0.28449 0.18878 0.0
O55 O 0.52085 0.26989 0.16141 0.0
Co56 Co 0.0533 0.79483 0.11654 0.0
O57 O 0.02737 0.79262 0.11344 0.0
O58 O 0.04317 0.78825 0.13945 0.0
C59 C 0.05809 0.82272 0.10404 0.0
O60 O 0.07969 0.7963 0.1275 0.0
Co61 Co 0.07623 0.79493 0.08624 0.0
O62 O 0.09792 0.79926 0.10517 0.0
C63 C 0.05605 0.75958 0.09171 0.0
C64 C 0.02762 0.78893 0.13089 0.0
C65 C 0.09554 0.79811 0.12244 0.0
O66 O 0.05101 0.76778 0.10649 0.0
O67 O 0.06535 0.76842 0.08057 0.0
O68 O 0.05604 0.82127 0.12171 0.0
O69 O 0.05708 0.80727 0.09384 0.0
Co70 Co 0.51236 0.77029 0.42951 0.0
O71 O 0.53841 0.77453 0.43422 0.0
O72 O 0.52281 0.76214 0.40712 0.0
C73 C 0.50994 0.79914 0.44225 0.0
O74 O 0.48594 0.76535 0.41704 0.0
Co75 Co 0.48785 0.76966 0.45908 0.0
O76 O 0.46806 0.77023 0.4391 0.0
C77 C 0.50404 0.73757 0.45311 0.0
C78 C 0.53842 0.76804 0.41665 0.0
C79 C 0.47041 0.76708 0.42176 0.0
O80 O 0.51077 0.74485 0.439 0.0
O81 O 0.4949 0.74593 0.46374 0.0
O82 O 0.51363 0.79555 0.42509 0.0
O83 O 0.50878 0.78544 0.45205 0.0
Co84 Co 0.55282 0.29429 0.61402 0.0
O85 O 0.52677 0.29105 0.60984 0.0
O86 O 0.54203 0.28721 0.63646 0.0
C87 C 0.55708 0.32253 0.60211 0.0
O88 O 0.57919 0.2968 0.62599 0.0
Co89 Co 0.57686 0.2961 0.58471 0.0
O90 O 0.59797 0.30061 0.60424 0.0
C91 C 0.55852 0.25972 0.58971 0.0
C92 C 0.52663 0.28737 0.62724 0.0
C93 C 0.59525 0.29922 0.62138 0.0
O94 O 0.55171 0.26738 0.60362 0.0
O95 O 0.56843 0.26919 0.57956 0.0
O96 O 0.55445 0.32057 0.61954 0.0
O97 O 0.55689 0.30735 0.59175 0.0
Co98 Co 0.01234 0.27162 0.93033 0.0
O99 O 0.03843 0.2749 0.93422 0.0
O100 O 0.02188 0.26393 0.9072 0.0
C101 C 0.01087 0.30054 0.94397 0.0
O102 O 0.98571 0.26747 0.91848 0.0
Co103 Co 0.9887 0.2706 0.96032 0.0
O104 O 0.96867 0.27261 0.94122 0.0
C105 C 1.0042 0.23827 0.95324 0.0
C106 C 0.03774 0.26896 0.91637 0.0
C107 C 0.97047 0.26967 0.92371 0.0
O108 O 0.01064 0.24585 0.93914 0.0
O109 O 0.99524 0.24645 0.96426 0.0
O110 O 0.01407 0.29708 0.92661 0.0
O111 O 0.00966 0.28663 0.9535 0.0
Co112 Co 0.38925 0.02279 0.29847 0.0
O113 O 0.392 0.04823 0.29891 0.0
O114 O 0.36788 0.02826 0.28594 0.0
C115 C 0.39947 0.02384 0.32886 0.0
O116 O 0.38161 0.99585 0.2957 0.0
Co117 Co 0.42151 1.00425 0.30776 0.0
O118 O 0.40293 0.9829 0.30954 0.0
C119 C 0.4156 0.0184 0.27073 0.0
C120 C 0.37589 0.04496 0.29022 0.0
C121 C 0.38716 0.98221 0.30163 0.0
O122 O 0.40018 0.02128 0.2742 0.0
O123 O 0.42649 0.01309 0.2828 0.0
O124 O 0.38278 0.02432 0.32423 0.0
O125 O 0.40946 0.0236 0.31536 0.0
Co126 Co 0.27302 0.16816 0.50601 0.0
O127 O 0.29892 0.1724 0.50836 0.0
O128 O 0.28172 0.14729 0.51367 0.0
C129 C 0.26975 0.17901 0.47728 0.0
O130 O 0.24639 0.15745 0.50442 0.0
Co131 Co 0.25073 0.19769 0.5042 0.0
O132 O 0.22927 0.17841 0.50241 0.0
C133 C 0.27067 0.19406 0.54072 0.0
C134 C 0.29768 0.15602 0.51266 0.0
C135 C 0.23105 0.16216 0.50319 0.0
O136 O 0.2737 0.17875 0.5336 0.0
O137 O 0.26338 0.20448 0.53069 0.0
O138 O 0.27207 0.16262 0.47843 0.0
O139 O 0.27021 0.18862 0.49342 0.0
Co140 Co 0.1409 0.03757 0.79035 0.0
O141 O 0.13683 0.01145 0.78752 0.0
O142 O 0.16193 0.02919 0.78329 0.0
C143 C 0.12966 0.04033 0.81877 0.0
O144 O 0.1513 0.06453 0.79255 0.0
Co145 Co 0.1114 0.05965 0.79153 0.0
O146 O 0.13057 0.08142 0.79663 0.0
C147 C 0.11601 0.04012 0.75506 0.0
C148 C 0.15326 0.013 0.78387 0.0
C149 C 0.14669 0.07998 0.79526 0.0
O150 O 0.13109 0.03725 0.76262 0.0
O151 O 0.1053 0.04725 0.76474 0.0
O152 O 0.14592 0.03799 0.81784 0.0
O153 O 0.12027 0.04002 0.80253 0.0
Co154 Co 0.28937 0.92529 0.99481 0.0
O155 O 0.26473 0.92359 0.99731 0.0
O156 O 0.28605 0.94757 0.00778 0.0
C157 C 0.28513 0.91424 0.96447 0.0
O158 O 0.31589 0.93186 0.99434 0.0
Co159 Co 0.30527 0.89137 0.98416 0.0
O160 O 0.32729 0.90873 0.98189 0.0
C161 C 0.29535 0.89924 0.02281 0.0
C162 C 0.26928 0.93998 0.00554 0.0
C163 C 0.32889 0.9252 0.9885 0.0
O164 O 0.29289 0.91489 0.01926 0.0
O165 O 0.29892 0.8875 0.01031 0.0
O166 O 0.28554 0.93128 0.96903 0.0
O167 O 0.2863 0.90439 0.97812 0.0
Co168 Co 0.29251 0.38751 0.02971 0.0
O169 O 0.26669 0.38326 0.0285 0.0
O170 O 0.28467 0.40937 0.03831 0.0
C171 C 0.29348 0.37365 0.00012 0.0
O172 O 0.31925 0.39825 0.03213 0.0
Co173 Co 0.31481 0.35768 0.0277 0.0
O174 O 0.33506 0.37695 0.02479 0.0
C175 C 0.29988 0.36658 0.06338 0.0
C176 C 0.2685 0.40027 0.03449 0.0
C177 C 0.33402 0.39339 0.02875 0.0
O178 O 0.29426 0.37993 0.05646 0.0
O179 O 0.30762 0.35572 0.05387 0.0
O180 O 0.29076 0.39005 0.00258 0.0
O181 O 0.29431 0.36564 0.01534 0.0
Co182 Co 0.77828 0.1279 0.03944 0.0
O183 O 0.80355 0.13198 0.04505 0.0
O184 O 0.78538 0.10594 0.04601 0.0
C185 C 0.77811 0.14142 0.01295 0.0
O186 O 0.75152 0.11905 0.03419 0.0
Co187 Co 0.75856 0.16056 0.03786 0.0
O188 O 0.7382 0.14179 0.0261 0.0
C189 C 0.7704 0.14877 0.07471 0.0
C190 C 0.80157 0.11524 0.04806 0.0
C191 C 0.73771 0.12525 0.02812 0.0
O192 O 0.77616 0.13549 0.06663 0.0
O193 O 0.76389 0.16047 0.0659 0.0
O194 O 0.78022 0.12479 0.01225 0.0
O195 O 0.77769 0.14955 0.0296 0.0
Co196 Co 0.18073 0.53396 0.25767 0.0
O197 O 0.18084 0.50894 0.25162 0.0
O198 O 0.20329 0.53132 0.2493 0.0
C199 C 0.16973 0.53117 0.28528 0.0
O200 O 0.18555 0.56109 0.26303 0.0
Co201 Co 0.1454 0.5477 0.26207 0.0
O202 O 0.16094 0.57172 0.26928 0.0
C203 C 0.15354 0.5333 0.22471 0.0
C204 C 0.19693 0.51413 0.24758 0.0
C205 C 0.17758 0.57407 0.26772 0.0
O206 O 0.17003 0.53489 0.23113 0.0
O207 O 0.14135 0.53567 0.2352 0.0
O208 O 0.18676 0.53241 0.28462 0.0
O209 O 0.15995 0.53052 0.26932 0.0
Co210 Co 0.79227 0.88959 0.53122 0.0
O211 O 0.76643 0.88497 0.52962 0.0
O212 O 0.78396 0.91087 0.54102 0.0
C213 C 0.79344 0.87699 0.50119 0.0
O214 O 0.81903 0.90056 0.53406 0.0
Co215 Co 0.81458 0.85972 0.52762 0.0
O216 O 0.83534 0.87939 0.52765 0.0
C217 C 0.79701 0.86536 0.56221 0.0
C218 C 0.76785 0.90171 0.53652 0.0
C219 C 0.83404 0.89578 0.53157 0.0
O220 O 0.79393 0.88057 0.55733 0.0
O221 O 0.80359 0.85446 0.55136 0.0
O222 O 0.79065 0.89333 0.50432 0.0
O223 O 0.79428 0.86843 0.51597 0.0
Co224 Co 0.92322 0.01937 0.2646 0.0
O225 O 0.92707 0.04549 0.26695 0.0
O226 O 0.90178 0.02745 0.25502 0.0
C227 C 0.93578 0.0176 0.29461 0.0
O228 O 0.91307 0.9922 0.26079 0.0
Co229 Co 0.95348 0.99766 0.26803 0.0
O230 O 0.93425 0.97708 0.27045 0.0
C231 C 0.9471 0.01521 0.23326 0.0
C232 C 0.91049 0.04381 0.25992 0.0
C233 C 0.91802 0.97759 0.2651 0.0
O234 O 0.9323 0.01872 0.23855 0.0
O235 O 0.9579 0.00821 0.24378 0.0
O236 O 0.91939 0.01985 0.29148 0.0
O237 O 0.94435 0.01762 0.27989 0.0
Co238 Co 0.27874 0.6284 0.53608 0.0
O239 O 0.304 0.63085 0.54003 0.0
O240 O 0.28467 0.6062 0.54342 0.0
C241 C 0.27804 0.6408 0.50888 0.0
O242 O 0.25183 0.62117 0.53285 0.0
Co243 Co 0.26147 0.66261 0.53459 0.0
O244 O 0.2389 0.6449 0.5276 0.0
C245 C 0.28069 0.65478 0.56982 0.0
C246 C 0.30116 0.61445 0.54426 0.0
C247 C 0.238 0.62817 0.529 0.0
O248 O 0.27901 0.63819 0.5632 0.0
O249 O 0.27653 0.66692 0.5599 0.0
O250 O 0.27879 0.62381 0.50851 0.0
O251 O 0.27891 0.64957 0.52542 0.0
Co252 Co 0.4235 0.51929 0.76561 0.0
O253 O 0.42748 0.54546 0.76723 0.0
O254 O 0.40192 0.52726 0.75657 0.0
C255 C 0.43682 0.51819 0.79554 0.0
O256 O 0.41281 0.49224 0.76278 0.0
Co257 Co 0.45285 0.49679 0.7683 0.0
O258 O 0.43368 0.4755 0.76822 0.0
C259 C 0.44667 0.51448 0.73369 0.0
C260 C 0.41069 0.54363 0.7609 0.0
C261 C 0.41743 0.47697 0.7648 0.0
O262 O 0.43188 0.51797 0.73909 0.0
O263 O 0.45749 0.50754 0.74424 0.0
O264 O 0.42044 0.52054 0.79268 0.0
O265 O 0.44498 0.51755 0.78051 0.0
Co266 Co 0.67882 0.03388 0.75741 0.0
O267 O 0.67546 0.00847 0.75014 0.0
O268 O 0.69893 0.0287 0.74545 0.0
C269 C 0.67133 0.03234 0.78669 0.0
O270 O 0.6873 0.06072 0.76318 0.0
Co271 Co 0.64737 0.05252 0.76786 0.0
O272 O 0.66551 0.07498 0.77183 0.0
C273 C 0.64986 0.03921 0.72809 0.0
C274 C 0.69094 0.01198 0.744 0.0
C275 C 0.68151 0.075 0.76847 0.0
O276 O 0.66584 0.03682 0.73249 0.0
O277 O 0.63982 0.04361 0.74038 0.0
O278 O 0.68737 0.03084 0.78341 0.0
O279 O 0.66013 0.0332 0.77222 0.0
Co280 Co 0.77291 0.6688 0.00747 0.0
O281 O 0.79875 0.67255 0.00987 0.0
O282 O 0.78122 0.64801 0.01609 0.0
C283 C 0.77029 0.67906 0.97828 0.0
O284 O 0.74619 0.65843 0.00576 0.0
Co285 Co 0.75093 0.69828 0.00412 0.0
O286 O 0.72926 0.67924 0.00169 0.0
C287 C 0.76936 0.69507 0.04176 0.0
C288 C 0.79726 0.6564 0.01483 0.0
C289 C 0.73087 0.6631 0.00349 0.0
O290 O 0.77348 0.68013 0.03492 0.0
O291 O 0.76176 0.70494 0.03127 0.0
O292 O 0.77205 0.66256 0.9799 0.0
O293 O 0.77068 0.68901 0.99419 0.0
Co294 Co 0.89184 0.52174 0.79913 0.0
O295 O 0.89469 0.54729 0.80139 0.0
O296 O 0.87016 0.52789 0.78846 0.0
C297 C 0.90364 0.52047 0.82856 0.0
O298 O 0.88389 0.49487 0.79519 0.0
Co299 Co 0.92472 0.50292 0.80376 0.0
O300 O 0.90661 0.48054 0.80198 0.0
C301 C 0.91644 0.5197 0.76912 0.0
C302 C 0.87833 0.54446 0.7934 0.0
C303 C 0.89014 0.48054 0.79729 0.0
O304 O 0.90111 0.52148 0.77389 0.0
O305 O 0.92832 0.51436 0.77993 0.0
O306 O 0.887 0.5219 0.8254 0.0
O307 O 0.9127 0.52125 0.81427 0.0
Co308 Co 0.79129 0.42533 0.49387 0.0
O309 O 0.76594 0.42219 0.49093 0.0
O310 O 0.78467 0.44575 0.5072 0.0
C311 C 0.79378 0.41751 0.46365 0.0
O312 O 0.81792 0.4334 0.49912 0.0
Co313 Co 0.81003 0.39278 0.48537 0.0
O314 O 0.83186 0.41162 0.48799 0.0
C315 C 0.79317 0.3969 0.52054 0.0
C316 C 0.76838 0.43783 0.50094 0.0
C317 C 0.83205 0.42765 0.49529 0.0
O318 O 0.79088 0.41269 0.51725 0.0
O319 O 0.79913 0.38625 0.50878 0.0
O320 O 0.79175 0.43377 0.46899 0.0
O321 O 0.79247 0.40624 0.47609 0.0
Co322 Co 0.64139 0.53849 0.28931 0.0
O323 O 0.63773 0.51235 0.28729 0.0
O324 O 0.66222 0.53006 0.28159 0.0
C325 C 0.63059 0.54159 0.31801 0.0
O326 O 0.65163 0.56545 0.29059 0.0
Co327 Co 0.61216 0.56097 0.29155 0.0
O328 O 0.63132 0.58273 0.29521 0.0
C329 C 0.61535 0.54068 0.25484 0.0
C330 C 0.65393 0.51386 0.28287 0.0
C331 C 0.64726 0.58103 0.29317 0.0
O332 O 0.63055 0.53747 0.26175 0.0
O333 O 0.60532 0.5483 0.26503 0.0
O334 O 0.64698 0.53967 0.31697 0.0
O335 O 0.6211 0.54107 0.30184 0.0
C336 C 1.00155 0.97603 0.99205 0.0
C337 C 0.98646 0.95952 0.01521 0.0
C338 C 0.9944 0.97596 0.00932 0.0
C339 C 0.98564 0.94331 0.00356 0.0
C340 C 1.00061 0.95973 0.98029 0.0
C341 C 0.99261 0.94342 0.98614 0.0
N342 N 0.00987 0.99193 0.98701 0.0
C343 C 0.01638 0.99259 0.96988 0.0
C344 C 1.00785 0.96029 0.96304 0.0
C345 C 0.01565 0.9768 0.95777 0.0
Gd346 Gd 0.05548 0.03921 0.03693 0.0
Gd347 Gd 1.00924 0.01758 0.00791 0.0
N348 N 0.99559 0.99185 0.02053 0.0
C349 C 0.97961 0.95982 0.0327 0.0
C350 C 0.98819 0.99222 0.03717 0.0
C351 C 0.98037 0.97625 0.04365 0.0
H352 H 0.9878 1.00472 0.04535 0.0
H353 H 0.97473 0.97664 0.05698 0.0
H354 H 0.08169 0.04846 0.00331 0.0
H355 H 0.02176 1.00527 0.96519 0.0
H356 H 0.09916 0.07505 0.99205 0.0
H357 H 0.9735 0.94747 0.03775 0.0
H358 H 0.97961 0.93058 0.0079 0.0
H359 H 0.0433 0.05428 0.07947 0.0
H360 H 1.00733 0.94807 0.95361 0.0
H361 H 0.02097 0.97739 0.94429 0.0
H362 H 0.09217 0.12454 0.03617 0.0
H363 H 0.99184 0.93079 0.97732 0.0
H364 H 0.05896 0.11135 0.08813 0.0
H365 H 0.04427 0.08299 0.09861 0.0
N366 N 0.05543 0.06594 0.05685 0.0
C367 C 0.06463 0.0813 0.05146 0.0
C368 C 0.04873 0.06642 0.07393 0.0
C369 C 0.05809 0.09873 0.07926 0.0
C370 C 0.04967 0.08277 0.08516 0.0
C371 C 0.06602 0.09812 0.06242 0.0
H372 H 0.07688 0.12669 0.06483 0.0
N373 N 0.07222 0.06373 0.02534 0.0
C374 C 0.07347 0.08013 0.03542 0.0
C375 C 0.09267 0.09379 0.01379 0.0
C376 C 0.0836 0.09565 0.02978 0.0
C377 C 0.08172 0.06169 0.01034 0.0
C378 C 0.09185 0.0767 0.00413 0.0
O379 O 0.02832 0.99837 0.01673 0.0
O380 O 0.04265 0.01208 0.04536 0.0
O381 O 0.07907 0.02727 0.03537 0.0
O382 O 0.07593 0.04422 0.0612 0.0
O383 O 1.00653 0.03132 0.03694 0.0
O384 O 0.03325 0.03054 0.05463 0.0
O385 O 0.04364 0.05744 0.01715 0.0
O386 O 0.01346 0.04831 0.01621 0.0
O387 O 0.98043 0.0145 0.00343 0.0
O388 O 0.99608 0.02159 0.98075 0.0
O389 O 0.05535 0.02369 0.00784 0.0
O390 O 0.03057 0.02992 0.99113 0.0
C391 C 0.0364 0.99723 0.03376 0.0
C392 C 0.01629 0.03186 0.05336 0.0
C393 C 0.10278 0.03158 0.06166 0.0
C394 C 0.12914 0.01828 0.05978 0.0
C395 C 0.12476 0.03472 0.08937 0.0
C396 C 0.10872 0.03816 0.08078 0.0
C397 C 0.13494 0.02476 0.07895 0.0
C398 C 0.11307 0.02172 0.05125 0.0
C399 C 0.08562 0.03432 0.05263 0.0
C400 C 0.08451 0.11245 0.04033 0.0
C401 C 0.07576 0.11368 0.05661 0.0
H402 H 0.1006 0.10539 0.00901 0.0
C403 C 0.02734 0.06074 0.01412 0.0
C404 C 0.04698 0.02713 0.99196 0.0
C405 C 0.97155 0.03591 0.9843 0.0
C406 C 0.95145 0.05532 0.99492 0.0
C407 C 0.96874 0.06269 0.96904 0.0
C408 C 0.97622 0.04736 0.97049 0.0
C409 C 0.95649 0.06673 0.98122 0.0
C410 C 0.95893 0.03987 0.99629 0.0
C411 C 0.98056 0.02052 0.98691 0.0
H412 H 0.12929 0.03977 0.10411 0.0
H413 H 0.10093 0.04578 0.08913 0.0
H414 H 0.14743 0.02235 0.08576 0.0
H415 H 0.10848 0.01645 0.03654 0.0
H416 H 0.97251 0.0715 0.95847 0.0
H417 H 0.98585 0.04464 0.96099 0.0
H418 H 0.95074 0.07862 0.97973 0.0
H419 H 0.95522 0.0312 0.00702 0.0
C420 C 0.31227 0.74462 0.22425 0.0
C421 C 0.28984 0.73027 0.19817 0.0
C422 C 0.29561 0.74348 0.21397 0.0
C423 C 0.30103 0.7184 0.19276 0.0
C424 C 0.32347 0.73262 0.2189 0.0
C425 C 0.31779 0.71958 0.20308 0.0
N426 N 0.31731 0.75715 0.23975 0.0
C427 C 0.33359 0.75873 0.2501 0.0
C428 C 0.34004 0.734 0.22967 0.0
C429 C 0.34513 0.74715 0.2453 0.0
Gd430 Gd 0.26641 0.77617 0.29417 0.0
Gd431 Gd 0.2974 0.77658 0.24596 0.0
N432 N 0.28485 0.75491 0.21982 0.0
C433 C 0.27293 0.72927 0.1883 0.0
C434 C 0.26851 0.75421 0.20988 0.0
C435 C 0.26228 0.74133 0.19416 0.0
H436 H 0.26019 0.76361 0.21361 0.0
H437 H 0.24928 0.7408 0.18648 0.0
H438 H 0.29622 0.77631 0.33309 0.0
H439 H 0.33797 0.76918 0.26181 0.0
H440 H 0.31029 0.79699 0.36126 0.0
H441 H 0.26801 0.7193 0.17612 0.0
H442 H 0.2968 0.70819 0.18065 0.0
H443 H 0.22954 0.79038 0.2792 0.0
H444 H 0.34903 0.72505 0.22599 0.0
H445 H 0.35802 0.74847 0.25358 0.0
H446 H 0.27697 0.84473 0.36199 0.0
H447 H 0.32623 0.71027 0.19877 0.0
H448 H 0.22653 0.83839 0.3146 0.0
H449 H 0.21406 0.81553 0.28714 0.0
N450 N 0.25052 0.79904 0.30174 0.0
C451 C 0.25725 0.81107 0.3172 0.0
C452 C 0.23504 0.80029 0.29117 0.0
C453 C 0.23334 0.82737 0.31116 0.0
C454 C 0.22626 0.8145 0.29565 0.0
C455 C 0.24896 0.8257 0.32224 0.0
H456 H 0.25031 0.84941 0.34229 0.0
N457 N 0.27936 0.79375 0.32316 0.0
C458 C 0.27231 0.80848 0.32811 0.0
C459 C 0.2937 0.81653 0.35628 0.0
C460 C 0.27939 0.82039 0.34466 0.0
C461 C 0.29214 0.78908 0.33547 0.0
C462 C 0.29984 0.80059 0.35186 0.0
O463 O 0.28802 0.74781 0.25078 0.0
O464 O 0.27759 0.76474 0.27051 0.0
O465 O 0.26346 0.75333 0.31022 0.0
O466 O 0.24003 0.76121 0.29667 0.0
O467 O 0.26893 0.78328 0.2418 0.0
O468 O 0.25064 0.77196 0.26447 0.0
O469 O 0.27169 0.80279 0.2832 0.0
O470 O 0.2963 0.79658 0.27141 0.0
O471 O 0.29723 0.79345 0.22311 0.0
O472 O 0.32247 0.79193 0.23974 0.0
O473 O 0.29537 0.77133 0.3 0.0
O474 O 0.31332 0.77906 0.27568 0.0
C475 C 0.27843 0.74839 0.2644 0.0
C476 C 0.25305 0.77872 0.24812 0.0
C477 C 0.23901 0.75215 0.32745 0.0
C478 C 0.2407 0.74351 0.35946 0.0
C479 C 0.22262 0.76535 0.35082 0.0
C480 C 0.22754 0.76391 0.33245 0.0
C481 C 0.22923 0.7553 0.36433 0.0
C482 C 0.2453 0.74186 0.34093 0.0
C483 C 0.24621 0.75174 0.30911 0.0
C484 C 0.2716 0.83536 0.34943 0.0
C485 C 0.25639 0.838 0.33825 0.0
H486 H 0.29955 0.82533 0.3691 0.0
C487 C 0.2847 0.80725 0.27307 0.0
C488 C 0.31108 0.77453 0.29308 0.0
C489 C 0.3242 0.81111 0.21446 0.0
C490 C 0.32363 0.83037 0.18933 0.0
C491 C 0.35194 0.82641 0.20504 0.0
C492 C 0.34294 0.81498 0.2166 0.0
C493 C 0.34233 0.83397 0.19128 0.0
C494 C 0.31463 0.81909 0.20099 0.0
C495 C 0.31451 0.79858 0.22591 0.0
H496 H 0.21385 0.77446 0.35466 0.0
H497 H 0.22268 0.77223 0.32238 0.0
H498 H 0.22532 0.75668 0.37852 0.0
H499 H 0.25449 0.73313 0.33718 0.0
H500 H 0.36638 0.82927 0.20662 0.0
H501 H 0.35061 0.80904 0.22703 0.0
H502 H 0.34943 0.84263 0.18221 0.0
H503 H 0.30016 0.81624 0.19921 0.0
C504 C 0.57271 0.06164 0.49002 0.0
C505 C 0.5925 0.08393 0.51308 0.0
C506 C 0.5805 0.06734 0.50863 0.0
C507 C 0.5962 0.09493 0.4987 0.0
C508 C 0.57684 0.07247 0.47547 0.0
C509 C 0.58838 0.08923 0.47997 0.0
N510 N 0.56173 0.04525 0.48599 0.0
C511 C 0.55556 0.03838 0.46759 0.0
C512 C 0.56961 0.06595 0.45674 0.0
C513 C 0.55914 0.04874 0.45276 0.0
Gd514 Gd 0.5074 0.02448 0.53614 0.0
Gd515 Gd 0.55669 0.02949 0.51231 0.0
N516 N 0.57646 0.05663 0.5224 0.0
C517 C 0.6004 0.08898 0.53189 0.0
C518 C 0.58479 0.06103 0.54053 0.0
C519 C 0.59659 0.07743 0.54563 0.0
H520 H 0.58211 0.05199 0.55106 0.0
H521 H 0.60272 0.08113 0.56015 0.0
H522 H 0.47906 0.00969 0.49684 0.0
H523 H 0.54805 0.02481 0.46417 0.0
H524 H 0.45694 0.98251 0.48369 0.0
H525 H 0.60958 0.10168 0.5359 0.0
H526 H 0.60525 0.10779 0.50189 0.0
H527 H 0.52035 0.01891 0.5825 0.0
H528 H 0.57246 0.07388 0.44518 0.0
H529 H 0.55404 0.04333 0.43824 0.0
H530 H 0.45633 0.94478 0.53389 0.0
H531 H 0.59159 0.09777 0.46899 0.0
H532 H 0.4941 0.96685 0.59197 0.0
H533 H 0.51501 0.99536 0.60338 0.0
N534 N 0.50397 1.00342 0.5583 0.0
C535 C 0.49167 0.98813 0.55203 0.0
C536 C 0.51185 1.0063 0.57672 0.0
C537 C 0.49669 0.97701 0.58242 0.0
C538 C 0.50857 0.99306 0.58889 0.0
C539 C 0.48787 0.97448 0.56393 0.0
H540 H 0.47221 0.94824 0.56613 0.0
N541 N 0.48644 0.99932 0.52233 0.0
C542 C 0.48251 0.98616 0.53374 0.0
C543 C 0.46062 0.96912 0.50871 0.0
C544 C 0.46963 0.97055 0.52706 0.0
C545 C 0.47704 0.99846 0.5049 0.0
C546 C 0.46421 0.98323 0.49766 0.0
O547 O 0.54939 0.05637 0.52535 0.0
O548 O 0.52431 0.05276 0.54213 0.0
O549 O 0.48389 0.03621 0.5272 0.0
O550 O 0.49128 0.03284 0.55703 0.0
O551 O 0.54602 0.01806 0.53726 0.0
O552 O 0.53169 0.03251 0.55742 0.0
O553 O 0.51457 0.99804 0.52181 0.0
O554 O 0.53892 1.00182 0.50397 0.0
O555 O 0.57941 0.02018 0.52646 0.0
O556 O 0.57334 0.01558 0.49584 0.0
O557 O 0.51536 0.03669 0.51008 0.0
O558 O 0.53225 0.02272 0.49141 0.0
C559 C 0.53818 0.06288 0.53623 0.0
C560 C 0.54646 0.0277 0.55339 0.0
C561 C 0.46487 0.04564 0.55102 0.0
C562 C 0.44017 0.06176 0.54603 0.0
C563 C 0.44662 0.05079 0.57635 0.0
C564 C 0.46073 0.04381 0.56963 0.0
C565 C 0.4364 0.05969 0.56465 0.0
C566 C 0.45447 0.05471 0.53913 0.0
C567 C 0.48025 0.03822 0.54473 0.0
C568 C 0.46613 0.95689 0.53882 0.0
C569 C 0.47521 0.95885 0.55717 0.0
H570 H 0.45065 0.95734 0.50308 0.0
C571 C 0.52529 0.99163 0.51025 0.0
C572 C 0.51703 0.02733 0.49423 0.0
C573 C 0.60329 0.01708 0.5081 0.0
C574 C 0.63189 0.00681 0.51021 0.0
C575 C 0.62811 0.03306 0.49419 0.0
C576 C 0.61051 0.03119 0.49823 0.0
C577 C 0.63869 0.02095 0.50001 0.0
C578 C 0.61402 1.00496 0.51414 0.0
C579 C 0.58418 0.01377 0.5105 0.0
H580 H 0.4436 0.04929 0.5907 0.0
H581 H 0.4684 0.03693 0.57911 0.0
H582 H 0.42548 0.06503 0.57016 0.0
H583 H 0.45745 0.05631 0.52477 0.0
H584 H 0.6335 0.04378 0.48627 0.0
H585 H 0.60242 0.0405 0.49324 0.0
H586 H 0.65215 0.02253 0.49622 0.0
H587 H 0.60839 0.99408 0.52177 0.0
C588 C 0.24274 0.29611 0.72899 0.0
C589 C 0.22753 0.26861 0.7094 0.0
C590 C 0.23702 0.27747 0.7267 0.0
C591 C 0.22367 0.27867 0.69452 0.0
C592 C 0.23887 0.30622 0.71404 0.0
C593 C 0.22931 0.29741 0.69684 0.0
N594 N 0.25222 0.30431 0.74571 0.0
C595 C 0.25762 0.32257 0.74864 0.0
C596 C 0.24479 0.3249 0.7168 0.0
C597 C 0.25412 0.33311 0.73419 0.0
Gd598 Gd 0.30601 0.26981 0.77394 0.0
Gd599 Gd 0.25722 0.28506 0.76863 0.0
N600 N 0.24147 0.26793 0.74111 0.0
C601 C 0.22237 0.24985 0.7075 0.0
C602 C 0.23593 0.24976 0.73963 0.0
C603 C 0.22655 0.24042 0.7227 0.0
H604 H 0.23893 0.24246 0.75139 0.0
H605 H 0.22261 0.22597 0.72135 0.0
H606 H 0.32641 0.31198 0.79071 0.0
H607 H 0.26433 0.32914 0.76223 0.0
H608 H 0.34693 0.3279 0.81839 0.0
H609 H 0.21515 0.24252 0.6944 0.0
H610 H 0.21639 0.27208 0.68112 0.0
H611 H 0.30403 0.22594 0.77657 0.0
H612 H 0.24209 0.33313 0.70564 0.0
H613 H 0.25853 0.34757 0.73653 0.0
H614 H 0.36079 0.28048 0.85373 0.0
H615 H 0.22624 0.30497 0.6852 0.0
H616 H 0.33491 0.21968 0.82816 0.0
H617 H 0.31504 0.20622 0.79882 0.0
N618 N 0.31636 0.25012 0.79385 0.0
C619 C 0.3276 0.25778 0.80961 0.0
C620 C 0.31207 0.23186 0.78972 0.0
C621 C 0.32979 0.22835 0.81864 0.0
C622 C 0.31854 0.2207 0.80212 0.0
C623 C 0.33464 0.2471 0.82245 0.0
H624 H 0.352 0.24747 0.84851 0.0
N625 N 0.32554 0.28618 0.79981 0.0
C626 C 0.33254 0.27636 0.81256 0.0
C627 C 0.34965 0.30358 0.83066 0.0
C628 C 0.3447 0.28479 0.8284 0.0
C629 C 0.33102 0.30439 0.80144 0.0
C630 C 0.34288 0.3134 0.81702 0.0
O631 O 0.27034 0.2767 0.74224 0.0
O632 O 0.28505 0.25469 0.7512 0.0
O633 O 0.32521 0.28185 0.7559 0.0
O634 O 0.32381 0.25422 0.76103 0.0
O635 O 0.25957 0.26037 0.78353 0.0
O636 O 0.28199 0.24683 0.77229 0.0
O637 O 0.29677 0.27969 0.80204 0.0
O638 O 0.27453 0.29658 0.79614 0.0
O639 O 0.23366 0.27433 0.78199 0.0
O640 O 0.23691 0.30102 0.77362 0.0
O641 O 0.30081 0.29488 0.76084 0.0
O642 O 0.2807 0.30811 0.77618 0.0
C643 C 0.27764 0.2626 0.73794 0.0
C644 C 0.26669 0.24608 0.77965 0.0
C645 C 0.3519 0.2699 0.75515 0.0
C646 C 0.38028 0.27358 0.74136 0.0
C647 C 0.37982 0.27168 0.77523 0.0
C648 C 0.36131 0.26988 0.77308 0.0
C649 C 0.38925 0.27358 0.75955 0.0
C650 C 0.36147 0.27165 0.73918 0.0
C651 C 0.33214 0.26747 0.75313 0.0
C652 C 0.35152 0.27424 0.84141 0.0
C653 C 0.34649 0.25544 0.83846 0.0
H654 H 0.35887 0.31059 0.84269 0.0
C655 C 0.28604 0.29049 0.80773 0.0
C656 C 0.29591 0.30928 0.76887 0.0
C657 C 0.22066 0.29586 0.79999 0.0
C658 C 0.19823 0.29427 0.82259 0.0
C659 C 0.22468 0.3179 0.82801 0.0
C660 C 0.23043 0.31139 0.81116 0.0
C661 C 0.20879 0.30937 0.83374 0.0
C662 C 0.20427 0.28743 0.80564 0.0
C663 C 0.22726 0.28912 0.78214 0.0
H664 H 0.38691 0.27157 0.78913 0.0
H665 H 0.35435 0.26831 0.78543 0.0
H666 H 0.40363 0.27494 0.76161 0.0
H667 H 0.35438 0.2717 0.72525 0.0
H668 H 0.2325 0.32976 0.83656 0.0
H669 H 0.24251 0.31864 0.80678 0.0
H670 H 0.20451 0.31485 0.84676 0.0
H671 H 0.19627 0.27573 0.79693 0.0
C672 C 0.01507 0.06993 0.56377 0.0
C673 C 0.04178 0.08552 0.5841 0.0
C674 C 0.03359 0.0749 0.56714 0.0
C675 C 0.03119 0.09066 0.59787 0.0
C676 C 1.00441 0.07531 0.57747 0.0
C677 C 0.01258 0.08548 0.59462 0.0
N678 N 1.00748 0.06055 0.54678 0.0
C679 C 0.98939 0.05672 0.54231 0.0
C680 C 0.98583 0.0707 0.57331 0.0
C681 C 0.9783 0.06149 0.55561 0.0
Gd682 Gd 0.04034 1.00395 0.51899 0.0
Gd683 Gd 0.02756 0.05315 0.52597 0.0
N684 N 0.04358 0.0696 0.55363 0.0
C685 C 0.06035 0.09104 0.58646 0.0
C686 C 0.06153 0.0756 0.55546 0.0
C687 C 0.07026 0.08613 0.57205 0.0
H688 H 0.06899 0.0725 0.54399 0.0
H689 H 0.08456 0.09074 0.57356 0.0
H690 H 0.99785 0.98619 0.50206 0.0
H691 H 0.98347 0.0503 0.52838 0.0
H692 H 0.9808 0.97035 0.47212 0.0
H693 H 0.0671 0.09954 0.59907 0.0
H694 H 0.03722 0.09889 0.61096 0.0
H695 H 0.0838 0.0072 0.51323 0.0
H696 H 0.97718 0.07457 0.58349 0.0
H697 H 0.96395 0.05828 0.5521 0.0
H698 H 0.02578 0.96273 0.43133 0.0
H699 H 1.00459 0.08974 0.60531 0.0
H700 H 0.08695 0.98452 0.45654 0.0
H701 H 0.1018 0.9999 0.48775 0.0
N702 N 0.05894 0.99675 0.49634 0.0
C703 C 0.05052 0.98787 0.47946 0.0
C704 C 0.07713 1.00083 0.49955 0.0
C705 C 0.07896 0.98782 0.46761 0.0
C706 C 0.08739 0.99654 0.4852 0.0
C707 C 0.06031 0.98326 0.46459 0.0
H708 H 0.05855 0.97067 0.43562 0.0
N709 N 0.02289 0.9883 0.49149 0.0
C710 C 0.03199 0.98334 0.47702 0.0
C711 C 1.00421 0.96969 0.45787 0.0
C712 C 0.02286 0.97415 0.45969 0.0
C713 C 1.00483 0.98322 0.49015 0.0
C714 C 0.99518 0.97407 0.47325 0.0
O715 O 0.03628 0.04092 0.55284 0.0
O716 O 0.05518 0.02153 0.54505 0.0
O717 O 0.02776 0.98151 0.53291 0.0
O718 O 0.05444 0.9824 0.52564 0.0
O719 O 0.05337 0.05048 0.51357 0.0
O720 O 0.06431 0.02665 0.52533 0.0
O721 O 0.03287 0.01782 0.4927 0.0
O722 O 0.01222 0.03504 0.50063 0.0
O723 O 0.03667 0.07145 0.50538 0.0
O724 O 0.01777 0.07797 0.52404 0.0
O725 O 0.01656 0.00855 0.53427 0.0
O726 O 1.00384 0.03005 0.5205 0.0
C727 C 0.04874 0.03169 0.5576 0.0
C728 C 0.06654 0.04207 0.51806 0.0
C729 C 0.04734 0.96893 0.55331 0.0
C730 C 0.04678 0.94689 0.57645 0.0
C731 C 0.06308 0.97757 0.58515 0.0
C732 C 0.05811 0.98188 0.56703 0.0
C733 C 0.0574 0.96027 0.58987 0.0
C734 C 0.04177 0.95127 0.55804 0.0
C735 C 0.04183 0.97407 0.53431 0.0
C736 C 0.03257 0.96972 0.44479 0.0
C737 C 0.05124 0.97425 0.44723 0.0
H738 H 0.9967 0.96266 0.44477 0.0
C739 C 0.01929 0.02569 0.48794 0.0
C740 C 1.00239 0.01481 0.52813 0.0
C741 C 0.01641 0.0902 0.49494 0.0
C742 C 0.0135 0.11466 0.47527 0.0
C743 C 0.98761 0.09193 0.47858 0.0
C744 C 0.99816 0.08318 0.4901 0.0
C745 C 0.99513 0.10755 0.47133 0.0
C746 C 0.02417 0.1058 0.48717 0.0
C747 C 0.02654 0.08282 0.51014 0.0
H748 H 0.07136 0.98772 0.5956 0.0
H749 H 0.06272 0.99535 0.56369 0.0
H750 H 0.06144 0.95724 0.60404 0.0
H751 H 0.03348 0.9411 0.54758 0.0
H752 H 0.97344 0.0867 0.4755 0.0
H753 H 0.99189 0.0713 0.49588 0.0
H754 H 0.98653 0.114 0.46238 0.0
H755 H 0.0382 0.11148 0.49107 0.0
C756 C 0.24728 0.73896 0.80098 0.0
C757 C 0.22837 0.71664 0.77729 0.0
C758 C 0.24433 0.72919 0.783 0.0
C759 C 0.21526 0.71428 0.78971 0.0
C760 C 0.23438 0.73614 0.81371 0.0
C761 C 0.21827 0.72397 0.80789 0.0
N762 N 0.26289 0.7509 0.80613 0.0
C763 C 0.2671 0.75902 0.82442 0.0
C764 C 0.23817 0.7454 0.83206 0.0
C765 C 0.25472 0.75666 0.83751 0.0
Gd766 Gd 0.28554 0.80276 0.76126 0.0
Gd767 Gd 0.28226 0.75408 0.78248 0.0
N768 N 0.25713 0.73195 0.77113 0.0
C769 C 0.22616 0.70667 0.75932 0.0
C770 C 0.25556 0.72151 0.75417 0.0
C771 C 0.23994 0.70893 0.74783 0.0
H772 H 0.26652 0.72266 0.74573 0.0
H773 H 0.2386 0.70087 0.73418 0.0
H774 H 0.29988 0.83099 0.80088 0.0
H775 H 0.2801 0.76712 0.8292 0.0
H776 H 0.32786 0.85107 0.81585 0.0
H777 H 0.21409 0.69688 0.75441 0.0
H778 H 0.20285 0.70479 0.78552 0.0
H779 H 0.2906 0.79401 0.71448 0.0
H780 H 0.22863 0.74357 0.84227 0.0
H781 H 0.25804 0.76338 0.85188 0.0
H782 H 0.36699 0.85085 0.76741 0.0
H783 H 0.20815 0.72176 0.81743 0.0
H784 H 0.34395 0.81725 0.70699 0.0
H785 H 0.3144 0.79925 0.69395 0.0
N786 N 0.30697 0.8071 0.73973 0.0
C787 C 0.32271 0.81819 0.74683 0.0
C788 C 0.30365 0.80108 0.72075 0.0
C789 C 0.33367 0.8146 0.71628 0.0
C790 C 0.31703 0.80438 0.70888 0.0
C791 C 0.33655 0.82202 0.73534 0.0
H792 H 0.36332 0.83668 0.73436 0.0
N793 N 0.31088 0.82325 0.7759 0.0
C794 C 0.32466 0.82666 0.76533 0.0
C795 C 0.34179 0.84718 0.79147 0.0
C796 C 0.34057 0.8386 0.77294 0.0
C797 C 0.31145 0.83265 0.79336 0.0
C798 C 0.32711 0.84428 0.80166 0.0
O799 O 0.25537 0.76319 0.77388 0.0
O800 O 0.25935 0.78308 0.75111 0.0
O801 O 0.27122 0.82465 0.77001 0.0
O802 O 0.27923 0.82087 0.74152 0.0
O803 O 0.28729 0.75348 0.75203 0.0
O804 O 0.27916 0.77857 0.73917 0.0
O805 O 0.30994 0.79693 0.77961 0.0
O806 O 0.30818 0.7668 0.7717 0.0
O807 O 0.28982 0.72749 0.77946 0.0
O808 O 0.29836 0.74586 0.80572 0.0
O809 O 0.27295 0.79627 0.78736 0.0
O810 O 0.29088 0.77963 0.80216 0.0
C811 C 0.24891 0.77189 0.76022 0.0
C812 C 0.28305 0.76235 0.73783 0.0
C813 C 0.26422 0.84584 0.74713 0.0
C814 C 0.24675 0.86961 0.75139 0.0
C815 C 0.26014 0.8651 0.72228 0.0
C816 C 0.26723 0.85099 0.72908 0.0
C817 C 0.24991 0.87431 0.7333 0.0
C818 C 0.25402 0.85539 0.75845 0.0
C819 C 0.27156 0.83024 0.75328 0.0
C820 C 0.35463 0.84178 0.76179 0.0
C821 C 0.35257 0.83362 0.743 0.0
H822 H 0.35384 0.85632 0.79789 0.0
C823 C 0.31775 0.78281 0.77807 0.0
C824 C 0.28209 0.79289 0.8026 0.0
C825 C 0.30801 0.71692 0.8048 0.0
C826 C 0.3226 0.69067 0.80204 0.0
C827 C 0.31963 0.70538 0.83315 0.0
C828 C 0.31108 0.71781 0.82467 0.0
C829 C 0.32529 0.69188 0.82197 0.0
C830 C 0.31395 0.70332 0.79343 0.0
C831 C 0.29866 0.7303 0.79638 0.0
H832 H 0.26253 0.86887 0.70835 0.0
H833 H 0.27504 0.84406 0.72005 0.0
H834 H 0.24447 0.88523 0.72772 0.0
H835 H 0.25157 0.8517 0.7724 0.0
H836 H 0.32188 0.70619 0.84849 0.0
H837 H 0.30671 0.72809 0.83372 0.0
H838 H 0.33198 0.68242 0.82892 0.0
H839 H 0.3118 0.70251 0.77807 0.0
C840 C 0.56268 1.0023 0.06527 0.0
C841 C 0.57458 0.02593 0.09099 0.0
C842 C 0.56154 0.0184 0.07553 0.0
C843 C 0.58892 0.01728 0.09555 0.0
C844 C 0.57683 0.99334 0.07002 0.0
C845 C 0.59002 1.001 0.08511 0.0
N846 N 0.54992 0.99537 0.05058 0.0
C847 C 0.55011 0.97929 0.04037 0.0
C848 C 0.57727 0.97692 0.05945 0.0
C849 C 0.56377 0.96981 0.04463 0.0
Gd850 Gd 0.5277 0.04418 0.99584 0.0
Gd851 Gd 0.52808 0.01238 0.04323 0.0
N852 N 0.54745 0.02639 0.07075 0.0
C853 C 0.57266 0.04177 0.10163 0.0
C854 C 0.54491 0.04111 0.08207 0.0
C855 C 0.55764 0.04924 0.09729 0.0
H856 H 0.53301 0.04663 0.07995 0.0
H857 H 0.55574 0.06117 0.10578 0.0
H858 H 0.51612 0.00754 0.96242 0.0
H859 H 0.53971 0.97373 0.02896 0.0
H860 H 0.49425 0.99689 0.93451 0.0
H861 H 0.58242 0.04805 0.11354 0.0
H862 H 0.59908 0.02295 0.1073 0.0
H863 H 0.51889 0.08414 0.01306 0.0
H864 H 0.58788 0.9696 0.06269 0.0
H865 H 0.56389 0.95706 0.03646 0.0
H866 H 0.46065 0.04405 0.92971 0.0
H867 H 0.60105 0.99438 0.08892 0.0
H868 H 0.47523 0.09532 0.977 0.0
H869 H 0.49782 0.10398 0.0052 0.0
N870 N 0.50787 0.06386 0.9901 0.0
C871 C 0.49575 0.05899 0.97432 0.0
C872 C 0.50879 0.07987 0.00105 0.0
C873 C 0.48433 0.0864 0.9805 0.0
C874 C 0.49701 0.0913 0.99648 0.0
C875 C 0.48358 0.07011 0.96917 0.0
H876 H 0.46161 0.07302 0.94882 0.0
N877 N 0.50676 0.03187 0.96916 0.0
C878 C 0.49521 0.04259 0.9635 0.0
C879 C 0.48211 0.02033 0.93691 0.0
C880 C 0.48248 0.037 0.94733 0.0
C881 C 0.50665 0.01578 0.95873 0.0
C882 C 0.49428 0.00972 0.94261 0.0
O883 O 0.55463 0.01963 0.03292 0.0
O884 O 0.54677 0.04417 0.02212 0.0
O885 O 0.54645 0.04454 0.97488 0.0
O886 O 0.54109 0.06984 0.98864 0.0
O887 O 0.52028 0.04029 0.04886 0.0
O888 O 0.52976 0.0594 0.02602 0.0
O889 O 0.49929 0.03314 0.99976 0.0
O890 O 0.51674 0.02283 0.01904 0.0
O891 O 0.50552 0.01017 0.05911 0.0
O892 O 0.51354 0.98596 0.0474 0.0
O893 O 0.53517 0.01571 0.9911 0.0
O894 O 0.52432 0.99659 0.01343 0.0
C895 C 0.55846 0.03362 0.02377 0.0
C896 C 0.52354 0.05641 0.04256 0.0
C897 C 0.5619 0.07233 0.96523 0.0
C898 C 0.57887 0.07318 0.93821 0.0
C899 C 0.57952 0.10056 0.95919 0.0
C900 C 0.56802 0.0909 0.97016 0.0
C901 C 0.58495 0.09177 0.94327 0.0
C902 C 0.56735 0.06358 0.94927 0.0
C903 C 0.5495 0.06207 0.97629 0.0
C904 C 0.47048 0.04813 0.94211 0.0
C905 C 0.47102 0.06463 0.95299 0.0
H906 H 0.47255 0.01557 0.9244 0.0
C907 C 0.50042 0.02323 0.01313 0.0
C908 C 0.53083 0.99944 0.99702 0.0
C909 C 0.50294 0.98633 0.07768 0.0
C910 C 0.4946 0.99067 0.10969 0.0
C911 C 0.50997 0.96634 0.10071 0.0
C912 C 0.51037 0.9715 0.08242 0.0
C913 C 0.50217 0.97587 0.11432 0.0
C914 C 0.49503 0.99572 0.09136 0.0
C915 C 0.50373 0.99282 0.05894 0.0
H916 H 0.58428 0.11485 0.96307 0.0
H917 H 0.56395 0.09793 0.98247 0.0
H918 H 0.59411 0.09945 0.93512 0.0
H919 H 0.56239 0.0493 0.94526 0.0
H920 H 0.51571 0.95491 0.10433 0.0
H921 H 0.5166 0.96401 0.07213 0.0
H922 H 0.50178 0.97147 0.12831 0.0
H923 H 0.48937 0.00723 0.08777 0.0
C924 C 0.33325 0.30932 0.30429 0.0
C925 C 0.3507 0.32285 0.28092 0.0
C926 C 0.33415 0.31505 0.28637 0.0
C927 C 0.36631 0.32462 0.2936 0.0
C928 C 0.34892 0.31125 0.3171 0.0
C929 C 0.36543 0.31884 0.31162 0.0
N930 N 0.31709 0.30192 0.30919 0.0
C931 C 0.31562 0.29691 0.32695 0.0
C932 C 0.34753 0.30559 0.3351 0.0
C933 C 0.3308 0.29848 0.34007 0.0
Gd934 Gd 0.26878 0.25521 0.25744 0.0
Gd935 Gd 0.29253 0.30064 0.28619 0.0
N936 N 0.31886 0.31278 0.27419 0.0
C937 C 0.35103 0.32874 0.26292 0.0
C938 C 0.31898 0.31974 0.25728 0.0
C939 C 0.33506 0.32739 0.25116 0.0
H940 H 0.3067 0.32008 0.24883 0.0
H941 H 0.33507 0.3326 0.23754 0.0
H942 H 0.25331 0.23781 0.29567 0.0
H943 H 0.30276 0.29225 0.33132 0.0
H944 H 0.22445 0.22653 0.3065 0.0
H945 H 0.36347 0.33478 0.2582 0.0
H946 H 0.37914 0.33053 0.28963 0.0
H947 H 0.25948 0.26471 0.21255 0.0
H948 H 0.35925 0.30688 0.34535 0.0
H949 H 0.32954 0.29444 0.3541 0.0
H950 H 0.18155 0.2297 0.25375 0.0
H951 H 0.37759 0.32041 0.32128 0.0
H952 H 0.20289 0.2524 0.19822 0.0
H953 H 0.23297 0.26371 0.18969 0.0
N954 N 0.2446 0.25531 0.23447 0.0
C955 C 0.2282 0.24853 0.23926 0.0
C956 C 0.24644 0.26046 0.21681 0.0
C957 C 0.21449 0.25311 0.20849 0.0
C958 C 0.23143 0.25959 0.20365 0.0
C959 C 0.21269 0.2474 0.22641 0.0
H960 H 0.18388 0.23962 0.22211 0.0
N961 N 0.24203 0.24436 0.26944 0.0
C962 C 0.22688 0.24282 0.25716 0.0
C963 C 0.20919 0.23037 0.28066 0.0
C964 C 0.21004 0.23597 0.26257 0.0
C965 C 0.24132 0.23807 0.28668 0.0
C966 C 0.22492 0.23129 0.29269 0.0
O967 O 0.31191 0.28208 0.27691 0.0
O968 O 0.29753 0.26346 0.25037 0.0
O969 O 0.27289 0.22832 0.26163 0.0
O970 O 0.26388 0.23432 0.23357 0.0
O971 O 0.27796 0.30099 0.2566 0.0
O972 O 0.28218 0.27519 0.23986 0.0
O973 O 0.25044 0.27504 0.26641 0.0
O974 O 0.26448 0.29107 0.2944 0.0
O975 O 0.28653 0.32665 0.28086 0.0
O976 O 0.29697 0.32237 0.30915 0.0
O977 O 0.28297 0.25381 0.28691 0.0
O978 O 0.28056 0.28013 0.30425 0.0
C979 C 0.31243 0.2713 0.26126 0.0
C980 C 0.28002 0.29188 0.24056 0.0
C981 C 0.28461 0.21494 0.23573 0.0
C982 C 0.30544 0.19446 0.23906 0.0
C983 C 0.30599 0.21288 0.21302 0.0
C984 C 0.29194 0.22031 0.21939 0.0
C985 C 0.31274 0.19999 0.22277 0.0
C986 C 0.29149 0.20215 0.24547 0.0
C987 C 0.27034 0.22295 0.24342 0.0
C988 C 0.1946 0.23491 0.24982 0.0
C989 C 0.19592 0.24058 0.2318 0.0
H990 H 0.19651 0.22506 0.28534 0.0
C991 C 0.24963 0.28413 0.28304 0.0
C992 C 0.28211 0.26317 0.30326 0.0
C993 C 0.27742 0.34308 0.30677 0.0
C994 C 0.26058 0.36719 0.30469 0.0
C995 C 0.26065 0.35104 0.33245 0.0
C996 C 0.27161 0.34021 0.32453 0.0
C997 C 0.25543 0.3647 0.32274 0.0
C998 C 0.27164 0.35639 0.29684 0.0
C999 C 0.29029 0.33323 0.29872 0.0
H1000 H 0.31165 0.21708 0.20048 0.0
H1001 H 0.28701 0.23036 0.21165 0.0
H1002 H 0.3234 0.19414 0.21736 0.0
H1003 H 0.28605 0.19834 0.25829 0.0
H1004 H 0.2564 0.349 0.34625 0.0
H1005 H 0.27576 0.3299 0.33245 0.0
H1006 H 0.2473 0.37328 0.3292 0.0
H1007 H 0.27622 0.35874 0.28321 0.0
C1008 C 0.52244 0.57237 0.06599 0.0
C1009 C 0.55139 0.5902 0.07868 0.0
C1010 C 0.54023 0.57851 0.06399 0.0
C1011 C 0.54459 0.59502 0.09567 0.0
C1012 C 0.51547 0.57742 0.08286 0.0
C1013 C 0.52668 0.58863 0.09775 0.0
N1014 N 0.51201 0.56129 0.05144 0.0
C1015 C 0.49434 0.55535 0.05253 0.0
C1016 C 0.49742 0.57105 0.08422 0.0
C1017 C 0.48679 0.56007 0.06893 0.0
Gd1018 Gd 0.54245 0.50537 0.02187 0.0
Gd1019 Gd 0.52604 0.55347 0.02486 0.0
N1020 N 0.5465 0.57336 0.04749 0.0
C1021 C 0.56892 0.59706 0.07567 0.0
C1022 C 0.56294 0.58134 0.04384 0.0
C1023 C 0.57459 0.59291 0.05801 0.0
H1024 H 0.56689 0.5793 0.02986 0.0
H1025 H 0.58781 0.59887 0.05517 0.0
H1026 H 0.50109 0.48443 0.00379 0.0
H1027 H 0.48601 0.54719 0.04066 0.0
H1028 H 0.48623 0.46428 0.97529 0.0
H1029 H 0.57792 0.60611 0.08658 0.0
H1030 H 0.55301 0.60388 0.10717 0.0
H1031 H 0.58628 0.51177 0.01834 0.0
H1032 H 0.49153 0.57466 0.09693 0.0
H1033 H 0.47276 0.55528 0.06974 0.0
H1034 H 0.53434 0.45417 0.93986 0.0
H1035 H 0.52159 0.59259 0.11086 0.0
H1036 H 0.59379 0.48275 0.96604 0.0
H1037 H 0.6063 0.50285 0.99556 0.0
N1038 N 0.56267 0.4973 0.00157 0.0
C1039 C 0.55553 0.48612 0.98553 0.0
C1040 C 0.58066 0.50324 0.00534 0.0
C1041 C 0.58493 0.48672 0.97591 0.0
C1042 C 0.59204 0.4981 0.99255 0.0
C1043 C 0.56647 0.48054 0.97224 0.0
H1044 H 0.56687 0.46458 0.94539 0.0
N1045 N 0.52699 0.48614 0.99535 0.0
C1046 C 0.53717 0.48023 0.9824 0.0
C1047 C 0.51074 0.46298 0.96331 0.0
C1048 C 0.52929 0.46863 0.96592 0.0
C1049 C 0.50899 0.48022 0.9932 0.0
C1050 C 0.50056 0.46873 0.97707 0.0
O1051 O 0.53213 0.54099 0.0524 0.0
O1052 O 0.5551 0.52731 0.04509 0.0
O1053 O 0.53217 0.4855 0.04018 0.0
O1054 O 0.55916 0.4877 0.03337 0.0
O1055 O 0.55087 0.55066 0.01019 0.0
O1056 O 0.56383 0.53046 0.0263 0.0
O1057 O 0.53392 0.51524 0.99356 0.0
O1058 O 0.51322 0.53294 0.00017 0.0
O1059 O 0.53206 0.57579 0.00728 0.0
O1060 O 0.50632 0.56969 0.01807 0.0
O1061 O 0.51626 0.50713 0.03373 0.0
O1062 O 0.50338 0.52929 0.02066 0.0
C1063 C 0.54625 0.53425 0.05773 0.0
C1064 C 0.5649 0.54375 0.01568 0.0
C1065 C 0.54469 0.459 0.03975 0.0
C1066 C 0.54033 0.43024 0.05335 0.0
C1067 C 0.54402 0.43101 0.01984 0.0
C1068 C 0.54563 0.44968 0.02198 0.0
C1069 C 0.54134 0.42136 0.03533 0.0
C1070 C 0.5421 0.4492 0.05551 0.0
C1071 C 0.54673 0.47889 0.0419 0.0
C1072 C 0.54015 0.46307 0.95262 0.0
C1073 C 0.55868 0.469 0.95577 0.0
H1074 H 0.50417 0.45409 0.95082 0.0
C1075 C 0.52073 0.52334 0.98816 0.0
C1076 C 0.5022 0.51399 0.02826 0.0
C1077 C 0.50976 0.59464 0.99886 0.0
C1078 C 0.5126 0.61911 0.97839 0.0
C1079 C 0.48505 0.61012 0.99202 0.0
C1080 C 0.49226 0.59708 0.00091 0.0
C1081 C 0.49505 0.62095 0.9808 0.0
C1082 C 0.52008 0.60593 0.98761 0.0
C1083 C 0.51631 0.57981 0.0081 0.0
H1084 H 0.54485 0.42397 0.00609 0.0
H1085 H 0.54772 0.45685 0.00976 0.0
H1086 H 0.54016 0.40686 0.03326 0.0
H1087 H 0.5412 0.45623 0.06925 0.0
H1088 H 0.47153 0.61174 0.99371 0.0
H1089 H 0.48395 0.58876 0.00933 0.0
H1090 H 0.48904 0.63094 0.97398 0.0
H1091 H 0.53355 0.60427 0.98573 0.0
C1092 C 0.74526 0.23779 0.2976 0.0
C1093 C 0.7273 0.21809 0.27105 0.0
C1094 C 0.74294 0.23046 0.2786 0.0
C1095 C 0.714 0.21325 0.28279 0.0
C1096 C 0.73195 0.23293 0.30941 0.0
C1097 C 0.71631 0.22065 0.3019 0.0
N1098 N 0.76042 0.24986 0.30442 0.0
C1099 C 0.76338 0.25711 0.32302 0.0
C1100 C 0.73474 0.24059 0.32843 0.0
C1101 C 0.75054 0.25268 0.33526 0.0
Gd1102 Gd 0.78455 0.30289 0.25986 0.0
Gd1103 Gd 0.7809 0.25616 0.28258 0.0
N1104 N 0.75582 0.23579 0.26741 0.0
C1105 C 0.72555 0.2109 0.25193 0.0
C1106 C 0.75463 0.22814 0.24912 0.0
C1107 C 0.73937 0.21581 0.24098 0.0
H1108 H 0.7656 0.23117 0.24099 0.0
H1109 H 0.73837 0.20993 0.22635 0.0
H1110 H 0.80032 0.32673 0.30223 0.0
H1111 H 0.77576 0.26608 0.32854 0.0
H1112 H 0.82761 0.34766 0.31704 0.0
H1113 H 0.71374 0.20134 0.24559 0.0
H1114 H 0.70187 0.20378 0.27723 0.0
H1115 H 0.79027 0.29267 0.2141 0.0
H1116 H 0.72483 0.23719 0.33796 0.0
H1117 H 0.7529 0.25851 0.35 0.0
H1118 H 0.864 0.35461 0.26619 0.0
H1119 H 0.70593 0.21677 0.31077 0.0
H1120 H 0.84127 0.32174 0.20519 0.0
H1121 H 0.81329 0.3004 0.19289 0.0
N1122 N 0.80542 0.30883 0.23838 0.0
C1123 C 0.82053 0.32093 0.24535 0.0
C1124 C 0.80262 0.30162 0.21977 0.0
C1125 C 0.83129 0.31827 0.21463 0.0
C1126 C 0.81554 0.30615 0.20765 0.0
C1127 C 0.83394 0.32585 0.23367 0.0
H1128 H 0.86002 0.34199 0.23256 0.0
N1129 N 0.80985 0.32267 0.27555 0.0
C1130 C 0.82278 0.32811 0.26443 0.0
C1131 C 0.8403 0.34718 0.29136 0.0
C1132 C 0.83848 0.34032 0.27214 0.0
C1133 C 0.81118 0.32993 0.29401 0.0
C1134 C 0.82652 0.34208 0.30229 0.0
O1135 O 0.75414 0.26577 0.27471 0.0
O1136 O 0.75825 0.28336 0.25024 0.0
O1137 O 0.77261 0.32672 0.26745 0.0
O1138 O 0.77651 0.3185 0.23807 0.0
O1139 O 0.7921 0.25886 0.25472 0.0
O1140 O 0.7762 0.27764 0.23997 0.0
O1141 O 0.81099 0.2927 0.26735 0.0
O1142 O 0.80653 0.27649 0.29267 0.0
O1143 O 0.79437 0.23356 0.27465 0.0
O1144 O 0.78957 0.2404 0.30402 0.0
O1145 O 0.77289 0.30033 0.2875 0.0
O1146 O 0.78863 0.28151 0.30229 0.0
C1147 C 0.74764 0.2736 0.2604 0.0
C1148 C 0.78522 0.26459 0.23942 0.0
C1149 C 0.76353 0.34516 0.24265 0.0
C1150 C 0.74963 0.37172 0.24699 0.0
C1151 C 0.75803 0.36218 0.21615 0.0
C1152 C 0.76439 0.34791 0.22347 0.0
C1153 C 0.75078 0.37404 0.2278 0.0
C1154 C 0.7559 0.35709 0.25444 0.0
C1155 C 0.77096 0.32995 0.24974 0.0
C1156 C 0.85184 0.34525 0.2605 0.0
C1157 C 0.84957 0.33806 0.24134 0.0
H1158 H 0.85216 0.3566 0.29783 0.0
C1159 C 0.81736 0.28561 0.28225 0.0
C1160 C 0.77936 0.29436 0.30286 0.0
C1161 C 0.80496 0.21538 0.29895 0.0
C1162 C 0.82083 0.1903 0.29389 0.0
C1163 C 0.81463 0.20016 0.32557 0.0
C1164 C 0.80624 0.21336 0.31845 0.0
C1165 C 0.82185 0.1887 0.3134 0.0
C1166 C 0.81241 0.20375 0.28659 0.0
C1167 C 0.79628 0.23003 0.29224 0.0
H1168 H 0.75879 0.36412 0.20138 0.0
H1169 H 0.77012 0.33905 0.21403 0.0
H1170 H 0.74593 0.38506 0.22176 0.0
H1171 H 0.75509 0.35523 0.26924 0.0
H1172 H 0.81555 0.19883 0.34061 0.0
H1173 H 0.80082 0.22207 0.32835 0.0
H1174 H 0.82833 0.17853 0.31925 0.0
H1175 H 0.81169 0.2051 0.27154 0.0
C1176 C 0.06228 0.49974 0.56676 0.0
C1177 C 0.0747 0.52234 0.59333 0.0
C1178 C 0.06195 0.51595 0.57731 0.0
C1179 C 0.08792 0.5124 0.59823 0.0
C1180 C 0.07533 0.48953 0.57181 0.0
C1181 C 0.08821 0.49602 0.58752 0.0
N1182 N 0.04982 0.49393 0.55151 0.0
C1183 C 0.04928 0.47782 0.54098 0.0
C1184 C 0.075 0.47308 0.56093 0.0
C1185 C 0.06184 0.46716 0.5455 0.0
Gd1186 Gd 0.03174 0.54541 0.49714 0.0
Gd1187 Gd 0.02959 0.51266 0.54418 0.0
N1188 N 0.04895 0.52524 0.57217 0.0
C1189 C 0.07361 0.53837 0.60417 0.0
C1190 C 0.04725 0.5403 0.5835 0.0
C1191 C 0.05968 0.54722 0.59937 0.0
H1192 H 0.03623 0.547 0.58092 0.0
H1193 H 0.05832 0.55927 0.60804 0.0
H1194 H 0.02239 0.50985 0.46219 0.0
H1195 H 0.03907 0.47311 0.52918 0.0
H1196 H 1.00124 0.49917 0.43376 0.0
H1197 H 0.08315 0.54375 0.61655 0.0
H1198 H 0.09784 0.51717 0.61043 0.0
H1199 H 0.02312 0.5857 0.51295 0.0
H1200 H 0.08475 0.46483 0.56437 0.0
H1201 H 0.06136 0.45439 0.53708 0.0
H1202 H 0.9666 0.54545 0.42865 0.0
H1203 H 0.09839 0.48841 0.59157 0.0
H1204 H 0.98002 0.59669 0.47596 0.0
H1205 H 1.00225 0.60555 0.50447 0.0
N1206 N 0.01236 0.56527 0.49017 0.0
C1207 C 1.00055 0.56036 0.47416 0.0
C1208 C 0.01318 0.58137 0.50086 0.0
C1209 C 0.98904 0.58779 0.47977 0.0
C1210 C 1.00151 0.59281 0.49591 0.0
C1211 C 0.98848 0.57145 0.46862 0.0
H1212 H 0.9669 0.57427 0.44773 0.0
N1213 N 0.01208 0.53355 0.46925 0.0
C1214 C 1.00043 0.54408 0.46336 0.0
C1215 C 0.98836 0.5221 0.43622 0.0
C1216 C 0.98817 0.53854 0.4468 0.0
C1217 C 0.01266 0.5178 0.45852 0.0
C1218 C 1.00074 0.51176 0.44205 0.0
O1219 O 0.05704 0.51974 0.53574 0.0
O1220 O 0.04859 0.54349 0.52429 0.0
O1221 O 0.05252 0.54615 0.47856 0.0
O1222 O 0.04673 0.57101 0.49177 0.0
O1223 O 0.02285 0.54108 0.55006 0.0
O1224 O 0.03201 0.56031 0.52711 0.0
O1225 O 1.00295 0.53524 0.50023 0.0
O1226 O 0.01906 0.5234 0.51958 0.0
O1227 O 1.00725 0.5114 0.56045 0.0
O1228 O 0.01344 0.48675 0.54725 0.0
O1229 O 0.03844 0.51661 0.49245 0.0
O1230 O 0.02617 0.49743 0.51407 0.0
C1231 C 0.06055 0.53332 0.526 0.0
C1232 C 0.02598 0.55723 0.54372 0.0
C1233 C 0.05421 0.57039 0.46045 0.0
C1234 C 0.06466 0.57045 0.4295 0.0
C1235 C 0.03949 0.58444 0.43575 0.0
C1236 C 0.04091 0.57984 0.45429 0.0
C1237 C 0.05122 0.57958 0.42326 0.0
C1238 C 0.06623 0.56605 0.44809 0.0
C1239 C 0.055 0.5636 0.47901 0.0
C1240 C 0.97612 0.54953 0.4413 0.0
C1241 C 0.97628 0.56594 0.45216 0.0
H1242 H 0.97916 0.51738 0.42343 0.0
C1243 C 1.00313 0.52495 0.5134 0.0
C1244 C 0.03344 0.50031 0.49806 0.0
C1245 C 1.00308 0.48669 0.5776 0.0
C1246 C 0.99226 0.48902 0.60855 0.0
C1247 C 0.01328 0.4694 0.60197 0.0
C1248 C 0.01357 0.47443 0.58362 0.0
C1249 C 1.00281 0.47676 0.61447 0.0
C1250 C 0.99229 0.49366 0.59001 0.0
C1251 C 1.00427 0.49392 0.5593 0.0
H1252 H 0.02913 0.59154 0.43099 0.0
H1253 H 0.03148 0.58344 0.46361 0.0
H1254 H 0.04981 0.58288 0.40879 0.0
H1255 H 0.0764 0.5586 0.4527 0.0
H1256 H 0.02141 0.46001 0.60662 0.0
H1257 H 0.02219 0.46901 0.57436 0.0
H1258 H 1.00291 0.47285 0.6287 0.0
H1259 H 0.98451 0.50342 0.58546 0.0
C1260 C 0.74196 0.7959 0.23647 0.0
C1261 C 0.72605 0.76852 0.21727 0.0
C1262 C 0.73684 0.77727 0.23391 0.0
C1263 C 0.72054 0.77876 0.2032 0.0
C1264 C 0.7363 0.80623 0.22247 0.0
C1265 C 0.72563 0.79756 0.2058 0.0
N1266 N 0.75236 0.80389 0.25269 0.0
C1267 C 0.75724 0.82218 0.25605 0.0
C1268 C 0.74152 0.82499 0.22566 0.0
C1269 C 0.75197 0.83299 0.24256 0.0
Gd1270 Gd 0.80958 0.76981 0.27839 0.0
Gd1271 Gd 0.76088 0.78455 0.27405 0.0
N1272 N 0.74272 0.7677 0.24759 0.0
C1273 C 0.72112 0.74974 0.21529 0.0
C1274 C 0.73734 0.7495 0.24614 0.0
C1275 C 0.72667 0.7402 0.22987 0.0
H1276 H 0.7413 0.74214 0.25744 0.0
H1277 H 0.72268 0.72571 0.22862 0.0
H1278 H 0.82799 0.81279 0.29359 0.0
H1279 H 0.76506 0.82848 0.26923 0.0
H1280 H 0.84657 0.83033 0.32189 0.0
H1281 H 0.71288 0.7425 0.2027 0.0
H1282 H 0.71228 0.77228 0.19029 0.0
H1283 H 0.80511 0.72621 0.28565 0.0
H1284 H 0.73746 0.83341 0.21525 0.0
H1285 H 0.75592 0.84749 0.24524 0.0
H1286 H 0.85755 0.78563 0.36251 0.0
H1287 H 0.72121 0.80528 0.19486 0.0
H1288 H 0.83229 0.72387 0.34057 0.0
H1289 H 0.8139 0.7085 0.31103 0.0
N1290 N 0.81758 0.75142 0.30108 0.0
C1291 C 0.82802 0.76012 0.31702 0.0
C1292 C 0.81271 0.73311 0.29868 0.0
C1293 C 0.8283 0.73174 0.32957 0.0
C1294 C 0.81787 0.72302 0.31294 0.0
C1295 C 0.83361 0.7505 0.33174 0.0
H1296 H 0.84864 0.75267 0.35958 0.0
N1297 N 0.82685 0.7878 0.30464 0.0
C1298 C 0.83305 0.77879 0.31872 0.0
C1299 C 0.8485 0.80697 0.33629 0.0
C1300 C 0.84379 0.78819 0.3351 0.0
C1301 C 0.83201 0.80596 0.30533 0.0
C1302 C 0.84271 0.81586 0.32126 0.0
O1303 O 0.7713 0.77513 0.24628 0.0
O1304 O 0.79032 0.7555 0.25332 0.0
O1305 O 0.83146 0.78121 0.26323 0.0
O1306 O 0.82966 0.75428 0.27088 0.0
O1307 O 0.76588 0.76038 0.28874 0.0
O1308 O 0.78597 0.74645 0.27397 0.0
O1309 O 0.79836 0.77839 0.30589 0.0
O1310 O 0.78161 0.7991 0.29743 0.0
O1311 O 0.74002 0.77318 0.29061 0.0
O1312 O 0.74301 0.80095 0.28553 0.0
O1313 O 0.80544 0.79386 0.26274 0.0
O1314 O 0.78487 0.80724 0.27754 0.0
C1315 C 0.78023 0.76243 0.24111 0.0
C1316 C 0.77107 0.7457 0.28194 0.0
C1317 C 0.84302 0.76056 0.24304 0.0
C1318 C 0.86442 0.76108 0.21943 0.0
C1319 C 0.83468 0.74249 0.21236 0.0
C1320 C 0.83049 0.74832 0.23024 0.0
C1321 C 0.85144 0.7488 0.20698 0.0
C1322 C 0.86011 0.76687 0.23765 0.0
C1323 C 0.8382 0.76662 0.26194 0.0
C1324 C 0.84935 0.77863 0.34978 0.0
C1325 C 0.84425 0.75984 0.34811 0.0
H1326 H 0.85673 0.81469 0.34865 0.0
C1327 C 0.78971 0.79141 0.31048 0.0
C1328 C 0.79881 0.80815 0.26801 0.0
C1329 C 0.71402 0.78638 0.29023 0.0
C1330 C 0.68492 0.78304 0.30275 0.0
C1331 C 0.68704 0.7863 0.26928 0.0
C1332 C 0.70544 0.78733 0.27213 0.0
C1333 C 0.67687 0.78413 0.28436 0.0
C1334 C 0.70371 0.7844 0.30566 0.0
C1335 C 0.73371 0.78797 0.29302 0.0
H1336 H 0.82489 0.73298 0.20263 0.0
H1337 H 0.81747 0.74317 0.23417 0.0
H1338 H 0.85433 0.74383 0.19307 0.0
H1339 H 0.86986 0.77637 0.24745 0.0
H1340 H 0.68059 0.78719 0.25526 0.0
H1341 H 0.713 0.78901 0.26018 0.0
H1342 H 0.6626 0.78341 0.28166 0.0
H1343 H 0.7102 0.78366 0.31972 0.0
C1344 C 0.81006 0.25055 0.72592 0.0
C1345 C 0.78609 0.23487 0.70219 0.0
C1346 C 0.79267 0.24858 0.7174 0.0
C1347 C 0.7973 0.22353 0.69554 0.0
C1348 C 0.82133 0.23906 0.7194 0.0
C1349 C 0.81489 0.22564 0.7041 0.0
N1350 N 0.81585 0.26343 0.74088 0.0
C1351 C 0.83278 0.26569 0.74986 0.0
C1352 C 0.83871 0.24131 0.72858 0.0
C1353 C 0.84446 0.2547 0.74389 0.0
Gd1354 Gd 0.76534 0.2802 0.79759 0.0
Gd1355 Gd 0.79597 0.28196 0.74971 0.0
N1356 N 0.78207 0.25967 0.72433 0.0
C1357 C 0.76835 0.23278 0.69423 0.0
C1358 C 0.76468 0.25749 0.71654 0.0
C1359 C 0.75761 0.24411 0.70149 0.0
H1360 H 0.75589 0.26581 0.72162 0.0
H1361 H 0.74381 0.24255 0.69549 0.0
H1362 H 0.80306 0.29431 0.82923 0.0
H1363 H 0.83744 0.27626 0.76135 0.0
H1364 H 0.81268 0.31446 0.85857 0.0
H1365 H 0.76279 0.2224 0.68258 0.0
H1366 H 0.79246 0.21298 0.68386 0.0
H1367 H 0.72318 0.28445 0.78503 0.0
H1368 H 0.84777 0.23279 0.72397 0.0
H1369 H 0.8579 0.25664 0.75103 0.0
H1370 H 0.76219 0.34139 0.86953 0.0
H1371 H 0.82335 0.21671 0.69889 0.0
H1372 H 0.70961 0.32416 0.82476 0.0
H1373 H 0.70149 0.30241 0.79569 0.0
N1374 N 0.74383 0.29677 0.80678 0.0
C1375 C 0.74844 0.30837 0.823 0.0
C1376 C 0.72714 0.29442 0.79716 0.0
C1377 C 0.71931 0.31655 0.81987 0.0
C1378 C 0.7147 0.30435 0.80343 0.0
C1379 C 0.73628 0.3186 0.82997 0.0
H1380 H 0.73223 0.33844 0.85232 0.0
N1381 N 0.77695 0.30034 0.82534 0.0
C1382 C 0.76538 0.31007 0.83267 0.0
C1383 C 0.78765 0.32344 0.85904 0.0
C1384 C 0.77051 0.322 0.8496 0.0
C1385 C 0.79374 0.30186 0.83455 0.0
C1386 C 0.79933 0.31337 0.85143 0.0
O1387 O 0.7891 0.25424 0.75818 0.0
O1388 O 0.76647 0.26411 0.76991 0.0
O1389 O 0.76726 0.25881 0.81512 0.0
O1390 O 0.74133 0.26285 0.80335 0.0
O1391 O 0.76821 0.28985 0.74445 0.0
O1392 O 0.74977 0.28209 0.76843 0.0
O1393 O 0.77583 0.30937 0.79575 0.0
O1394 O 0.78661 0.29364 0.77494 0.0
O1395 O 0.79568 0.30217 0.73037 0.0
O1396 O 0.82063 0.2995 0.74592 0.0
O1397 O 0.7941 0.27393 0.80184 0.0
O1398 O 0.81243 0.28499 0.77906 0.0
C1399 C 0.77591 0.25154 0.76834 0.0
C1400 C 0.75246 0.28759 0.75144 0.0
C1401 C 0.74435 0.25546 0.83479 0.0
C1402 C 0.74943 0.24867 0.86736 0.0
C1403 C 0.72423 0.26245 0.85745 0.0
C1404 C 0.72917 0.26231 0.83912 0.0
C1405 C 0.73417 0.25554 0.87148 0.0
C1406 C 0.75451 0.24899 0.84903 0.0
C1407 C 0.75008 0.25517 0.81571 0.0
C1408 C 0.75844 0.33215 0.85658 0.0
C1409 C 0.74139 0.33049 0.84677 0.0
H1410 H 0.79205 0.33237 0.87211 0.0
C1411 C 0.78552 0.30967 0.78206 0.0
C1412 C 0.81004 0.27843 0.79556 0.0
C1413 C 0.82118 0.30759 0.71466 0.0
C1414 C 0.82124 0.31813 0.6835 0.0
C1415 C 0.84145 0.2985 0.69316 0.0
C1416 C 0.8347 0.29799 0.71064 0.0
C1417 C 0.83474 0.30846 0.67959 0.0
C1418 C 0.81465 0.31768 0.70112 0.0
C1419 C 0.813 0.30684 0.73239 0.0
H1420 H 0.71248 0.26763 0.86071 0.0
H1421 H 0.72113 0.26756 0.82842 0.0
H1422 H 0.72955 0.25508 0.88533 0.0
H1423 H 0.76637 0.24402 0.8457 0.0
H1424 H 0.85184 0.29108 0.69007 0.0
H1425 H 0.83994 0.29002 0.72084 0.0
H1426 H 0.84018 0.3087 0.66613 0.0
H1427 H 0.80398 0.32478 0.70416 0.0
C1428 C 0.83232 0.81385 0.80916 0.0
C1429 C 0.85263 0.82372 0.7866 0.0
C1430 C 0.83533 0.81663 0.79068 0.0
C1431 C 0.86691 0.82747 0.80125 0.0
C1432 C 0.84654 0.81813 0.82401 0.0
C1433 C 0.86388 0.82466 0.8199 0.0
N1434 N 0.81536 0.80787 0.81279 0.0
C1435 C 0.81154 0.80713 0.83102 0.0
C1436 C 0.84283 0.81622 0.84264 0.0
C1437 C 0.8252 0.81095 0.84618 0.0
Gd1438 Gd 0.76996 0.75605 0.75787 0.0
Gd1439 Gd 0.79339 0.80156 0.7864 0.0
N1440 N 0.82131 0.81248 0.77669 0.0
C1441 C 0.85506 0.82687 0.76791 0.0
C1442 C 0.82346 0.81648 0.75869 0.0
C1443 C 0.84036 0.8234 0.75395 0.0
H1444 H 0.81221 0.81441 0.74796 0.0
H1445 H 0.84202 0.82621 0.73955 0.0
H1446 H 0.75167 0.74432 0.79684 0.0
H1447 H 0.79782 0.8045 0.83383 0.0
H1448 H 0.72218 0.73155 0.80535 0.0
H1449 H 0.86814 0.83225 0.76419 0.0
H1450 H 0.88031 0.83277 0.79835 0.0
H1451 H 0.76362 0.76187 0.71137 0.0
H1452 H 0.85338 0.8194 0.85444 0.0
H1453 H 0.82209 0.81021 0.86061 0.0
H1454 H 0.68322 0.72656 0.7473 0.0
H1455 H 0.87498 0.82791 0.8311 0.0
H1456 H 0.70791 0.74726 0.69261 0.0
H1457 H 0.73874 0.75838 0.68608 0.0
N1458 N 0.7472 0.75474 0.73281 0.0
C1459 C 0.73041 0.74812 0.73662 0.0
C1460 C 0.75025 0.75822 0.71484 0.0
C1461 C 0.71879 0.74939 0.70402 0.0
C1462 C 0.73613 0.75581 0.70029 0.0
C1463 C 0.71578 0.74519 0.72227 0.0
H1464 H 0.68739 0.73502 0.71546 0.0
N1465 N 0.74221 0.7467 0.76842 0.0
C1466 C 0.7279 0.74368 0.7548 0.0
C1467 C 0.70877 0.73176 0.77735 0.0
C1468 C 0.71078 0.73613 0.75895 0.0
C1469 C 0.74033 0.74227 0.78629 0.0
C1470 C 0.72359 0.73496 0.79111 0.0
O1471 O 0.8134 0.78413 0.77607 0.0
O1472 O 0.79886 0.76344 0.75094 0.0
O1473 O 0.77386 0.72973 0.7647 0.0
O1474 O 0.76486 0.73352 0.7358 0.0
O1475 O 0.77919 0.80116 0.75663 0.0
O1476 O 0.78327 0.77557 0.73967 0.0
O1477 O 0.75186 0.77591 0.76729 0.0
O1478 O 0.76603 0.79078 0.79571 0.0
O1479 O 0.78317 0.82425 0.77637 0.0
O1480 O 0.79668 0.8265 0.80497 0.0
O1481 O 0.78384 0.75429 0.78731 0.0
O1482 O 0.78387 0.78092 0.8058 0.0
C1483 C 0.81379 0.77221 0.76123 0.0
C1484 C 0.78172 0.79247 0.74058 0.0
C1485 C 0.78439 0.71333 0.74005 0.0
C1486 C 0.80128 0.68959 0.74313 0.0
C1487 C 0.80667 0.7094 0.71882 0.0
C1488 C 0.79367 0.71867 0.72484 0.0
C1489 C 0.81043 0.6948 0.72788 0.0
C1490 C 0.78834 0.69885 0.7492 0.0
C1491 C 0.77084 0.72282 0.74692 0.0
C1492 C 0.6963 0.73292 0.74458 0.0
C1493 C 0.69873 0.73762 0.72637 0.0
H1494 H 0.69591 0.72575 0.78107 0.0
C1495 C 0.75112 0.78452 0.78421 0.0
C1496 C 0.78428 0.76359 0.80403 0.0
C1497 C 0.77275 0.84164 0.80036 0.0
C1498 C 0.75343 0.86348 0.798 0.0
C1499 C 0.75097 0.84361 0.82263 0.0
C1500 C 0.76454 0.83553 0.81593 0.0
C1501 C 0.7455 0.85768 0.8138 0.0
C1502 C 0.76703 0.85545 0.79139 0.0
C1503 C 0.78714 0.83379 0.79299 0.0
H1504 H 0.81381 0.71353 0.70715 0.0
H1505 H 0.79096 0.72999 0.71767 0.0
H1506 H 0.82048 0.68762 0.72308 0.0
H1507 H 0.78125 0.69468 0.76095 0.0
H1508 H 0.74469 0.83894 0.83465 0.0
H1509 H 0.7686 0.82462 0.8229 0.0
H1510 H 0.73494 0.86383 0.81905 0.0
H1511 H 0.77327 0.86007 0.77927 0.0
C1512 C 0.50277 0.4751 0.49691 0.0
C1513 C 0.48865 0.46037 0.52173 0.0
C1514 C 0.49594 0.47623 0.5143 0.0
C1515 C 0.48838 0.4435 0.51157 0.0
C1516 C 0.50223 0.45817 0.48653 0.0
C1517 C 0.49505 0.44241 0.49398 0.0
N1518 N 0.51041 0.49053 0.49041 0.0
C1519 C 0.51663 0.49005 0.47311 0.0
C1520 C 0.5091 0.45758 0.46905 0.0
C1521 C 0.5162 0.4736 0.46225 0.0
Gd1522 Gd 0.55591 0.54059 0.53686 0.0
Gd1523 Gd 0.50953 0.51744 0.50913 0.0
N1524 N 0.49645 0.49278 0.52393 0.0
C1525 C 0.48169 0.4619 0.5391 0.0
C1526 C 0.48862 0.49427 0.54025 0.0
C1527 C 0.48151 0.47892 0.54829 0.0
H1528 H 0.48724 0.50716 0.54685 0.0
H1529 H 0.4756 0.48023 0.56141 0.0
H1530 H 0.57873 0.55772 0.50363 0.0
H1531 H 0.5216 0.50229 0.4674 0.0
H1532 H 0.5925 0.58757 0.49545 0.0
H1533 H 0.47601 0.45002 0.54526 0.0
H1534 H 0.4829 0.4312 0.51713 0.0
H1535 H 0.55065 0.54743 0.58331 0.0
H1536 H 0.50886 0.44485 0.46063 0.0
H1537 H 0.52125 0.4733 0.44858 0.0
H1538 H 0.58203 0.62905 0.54659 0.0
H1539 H 0.49464 0.4293 0.48627 0.0
H1540 H 0.55845 0.60401 0.6 0.0
H1541 H 0.55059 0.57269 0.6075 0.0
N1542 N 0.55607 0.56391 0.56133 0.0
C1543 C 0.56186 0.58096 0.55737 0.0
C1544 C 0.55287 0.56089 0.57938 0.0
C1545 C 0.55784 0.5929 0.58904 0.0
C1546 C 0.55328 0.57527 0.59332 0.0
C1547 C 0.56276 0.59593 0.57106 0.0
H1548 H 0.57014 0.62498 0.57704 0.0
N1549 N 0.56868 0.56848 0.52804 0.0
C1550 C 0.56862 0.5833 0.54029 0.0
C1551 C 0.58464 0.60212 0.51976 0.0
C1552 C 0.57636 0.60059 0.53634 0.0
C1553 C 0.5778 0.56974 0.51256 0.0
C1554 C 0.58566 0.58658 0.508 0.0
O1555 O 0.53023 0.49965 0.5172 0.0
O1556 O 0.54435 0.51331 0.54593 0.0
O1557 O 0.57912 0.52989 0.53009 0.0
O1558 O 0.57948 0.54525 0.55747 0.0
O1559 O 0.50767 0.53235 0.53791 0.0
O1560 O 0.53425 0.53048 0.55491 0.0
O1561 O 0.54277 0.55774 0.51693 0.0
O1562 O 0.51283 0.54811 0.51706 0.0
O1563 O 0.48064 0.51355 0.50445 0.0
O1564 O 0.49624 0.52039 0.48167 0.0
O1565 O 0.55563 0.52583 0.50746 0.0
O1566 O 0.52971 0.52956 0.4908 0.0
C1567 C 0.53809 0.49843 0.53432 0.0
C1568 C 0.51752 0.53256 0.55419 0.0
C1569 C 0.59516 0.52132 0.55604 0.0
C1570 C 0.61736 0.50242 0.55665 0.0
C1571 C 0.5954 0.49969 0.57893 0.0
C1572 C 0.58778 0.51312 0.57104 0.0
C1573 C 0.61029 0.49442 0.57187 0.0
C1574 C 0.60978 0.51581 0.54882 0.0
C1575 C 0.58761 0.53512 0.54701 0.0
C1576 C 0.57628 0.61563 0.54943 0.0
C1577 C 0.56948 0.61331 0.56676 0.0
H1578 H 0.5908 0.61515 0.51624 0.0
C1579 C 0.52634 0.56068 0.51439 0.0
C1580 C 0.54661 0.52833 0.49155 0.0
C1581 C 0.47169 0.5347 0.48501 0.0
C1582 C 0.45173 0.5543 0.4956 0.0
C1583 C 0.46954 0.56183 0.47013 0.0
C1584 C 0.47674 0.54633 0.47147 0.0
C1585 C 0.45717 0.56587 0.48217 0.0
C1586 C 0.45893 0.53867 0.49683 0.0
C1587 C 0.48072 0.51935 0.48782 0.0
H1588 H 0.58977 0.49339 0.59051 0.0
H1589 H 0.5762 0.51703 0.57657 0.0
H1590 H 0.61619 0.48409 0.57811 0.0
H1591 H 0.61539 0.52205 0.53714 0.0
H1592 H 0.47362 0.57078 0.4598 0.0
H1593 H 0.48652 0.54366 0.46214 0.0
H1594 H 0.45167 0.57792 0.48078 0.0
H1595 H 0.45498 0.52989 0.50739 0.0
C1596 C 0.06918 0.56514 0.99493 0.0
C1597 C 0.08849 0.58839 0.01723 0.0
C1598 C 0.07759 0.57117 0.01315 0.0
C1599 C 0.08929 0.6002 0.00322 0.0
C1600 C 0.07123 0.57643 0.9804 0.0
C1601 C 0.08059 0.59425 0.98484 0.0
N1602 N 0.06099 0.54758 0.99095 0.0
C1603 C 0.05677 0.53997 0.97247 0.0
C1604 C 0.06489 0.56913 0.96164 0.0
C1605 C 0.05806 0.5507 0.95761 0.0
Gd1606 Gd 1.00642 0.52465 0.03716 0.0
Gd1607 Gd 0.05778 0.53153 0.01759 0.0
N1608 N 0.07678 0.5594 0.02632 0.0
C1609 C 0.09924 0.59268 0.03475 0.0
C1610 C 0.08871 0.5627 0.04236 0.0
C1611 C 0.09967 0.57961 0.04719 0.0
H1612 H 0.08981 0.55215 0.05122 0.0
H1613 H 0.10874 0.5824 0.06023 0.0
H1614 H 0.98539 0.50444 0.99467 0.0
H1615 H 0.05228 0.52559 0.96916 0.0
H1616 H 0.96604 0.47553 0.98159 0.0
H1617 H 0.10821 0.60552 0.03823 0.0
H1618 H 0.09733 0.61361 0.00617 0.0
H1619 H 0.01378 0.52295 0.08537 0.0
H1620 H 0.0662 0.57735 0.95007 0.0
H1621 H 0.05408 0.5447 0.94305 0.0
H1622 H 0.96126 0.44218 0.03507 0.0
H1623 H 0.08206 0.60319 0.97392 0.0
H1624 H 0.9906 0.47011 0.0957 0.0
H1625 H 1.00781 0.50049 0.10739 0.0
N1626 N 1.00195 0.50498 0.06054 0.0
C1627 C 0.99148 0.48863 0.05394 0.0
C1628 C 1.00713 0.50951 0.07962 0.0
C1629 C 0.9936 0.47979 0.08572 0.0
C1630 C 1.0034 0.49689 0.09236 0.0
C1631 C 0.98721 0.47557 0.06642 0.0
H1632 H 0.97313 0.44869 0.06883 0.0
N1633 N 0.989 0.4974 0.02264 0.0
C1634 C 0.98455 0.4849 0.03471 0.0
C1635 C 0.96687 0.46482 0.0085 0.0
C1636 C 0.97353 0.46814 0.02779 0.0
C1637 C 0.98222 0.49435 0.00391 0.0
C1638 C 0.97123 0.47797 0.99651 0.0
O1639 O 0.05198 0.55679 0.03529 0.0
O1640 O 0.02135 0.55399 0.03822 0.0
O1641 O 0.98123 0.53102 0.0255 0.0
O1642 O 0.9886 0.5344 0.05584 0.0
O1643 O 0.04571 0.5202 0.04224 0.0
O1644 O 0.02862 0.53332 0.06058 0.0
O1645 O 0.01643 0.49919 0.02413 0.0
O1646 O 0.04016 0.50437 0.00557 0.0
O1647 O 0.07655 0.51761 0.0325 0.0
O1648 O 0.08058 0.52507 0.00464 0.0
O1649 O 0.01678 0.5388 0.01333 0.0
O1650 O 0.03405 0.5252 0.99517 0.0
C1651 C 0.03777 0.56368 0.03921 0.0
C1652 C 0.04421 0.52984 0.05795 0.0
C1653 C 0.97344 0.55586 0.04312 0.0
C1654 C 0.95263 0.57628 0.03756 0.0
C1655 C 0.98342 0.58824 0.05049 0.0
C1656 C 0.98689 0.57082 0.05011 0.0
C1657 C 0.96645 0.59098 0.04414 0.0
C1658 C 0.95616 0.55865 0.03706 0.0
C1659 C 0.97759 0.53753 0.04194 0.0
C1660 C 0.9696 0.45515 0.0402 0.0
C1661 C 0.97643 0.45884 0.05942 0.0
H1662 H 0.95826 0.45219 0.00279 0.0
C1663 C 0.02723 0.49345 0.0122 0.0
C1664 C 0.01905 0.5307 0.9971 0.0
C1665 C 0.09049 0.49897 0.01256 0.0
C1666 C 0.11143 0.47826 0.01289 0.0
C1667 C 0.08255 0.46963 0.99383 0.0
C1668 C 0.07838 0.48626 0.99979 0.0
C1669 C 0.09896 0.46559 0.0004 0.0
C1670 C 0.10716 0.495 0.01899 0.0
C1671 C 0.08607 0.51662 0.01841 0.0
H1672 H 0.9939 0.59965 0.05585 0.0
H1673 H 1.0001 0.5691 0.05541 0.0
H1674 H 0.96397 0.60462 0.04475 0.0
H1675 H 0.94559 0.54723 0.03189 0.0
H1676 H 0.07309 0.45991 0.98397 0.0
H1677 H 0.06584 0.48938 0.99423 0.0
H1678 H 0.10205 0.45266 0.99553 0.0
H1679 H 0.11675 0.50485 0.02862 0.0
H1680 H 0.03277 0.22062 0.94744 0.0
H1681 H 0.03767 0.19164 0.95731 0.0
H1682 H 0.98618 0.1835 0.97783 0.0
H1683 H 0.98201 0.21291 0.96931 0.0
H1684 H 1.00352 0.17048 0.00079 0.0
H1685 H 1.00205 0.15926 0.93241 0.0
H1686 H 0.01164 0.16469 0.90107 0.0
H1687 H 0.06485 0.15919 0.92114 0.0
H1688 H 0.05561 0.15389 0.95264 0.0
H1689 H 0.99667 0.07592 0.01026 0.0
H1690 H 0.99314 0.10488 0.99924 0.0
H1691 H 0.04862 0.11562 0.99068 0.0
H1692 H 0.05205 0.08661 0.00124 0.0
H1693 H 0.03047 0.1271 0.96206 0.0
H1694 H 0.03158 0.1373 0.02965 0.0
H1695 H 0.02195 0.1308 0.06068 0.0
H1696 H 0.96892 0.13745 0.04138 0.0
H1697 H 0.9782 0.1438 0.01015 0.0
C1698 C 0.02239 0.21259 0.95388 0.0
C1699 C 1.00688 0.21942 0.95733 0.0
C1700 C 0.02514 0.19569 0.95949 0.0
C1701 C 0.01221 0.18447 0.96821 0.0
C1702 C 0.99665 0.19135 0.97135 0.0
C1703 C 0.99415 0.20838 0.96625 0.0
C1704 C 0.01478 0.16605 0.97454 0.0
C1705 C 1.00913 0.16102 0.99193 0.0
C1706 C 0.02264 0.15326 0.96383 0.0
C1707 C 0.02818 0.15636 0.94491 0.0
C1708 C 0.01581 0.15929 0.93015 0.0
C1709 C 0.02118 0.16234 0.91236 0.0
C1710 C 0.03885 0.16234 0.90913 0.0
C1711 C 0.05118 0.15922 0.92366 0.0
C1712 C 0.04588 0.15617 0.94148 0.0
C1713 C 1.00819 0.08441 0.00612 0.0
C1714 C 0.02479 0.0787 0.00718 0.0
C1715 C 1.00617 0.10122 0.99981 0.0
C1716 C 0.02065 0.11309 0.99422 0.0
C1717 C 0.03711 0.10715 0.99487 0.0
C1718 C 0.03913 0.09042 0.00121 0.0
C1719 C 0.01877 0.13157 0.9879 0.0
C1720 C 0.02468 0.13659 0.97068 0.0
C1721 C 0.01107 0.14432 0.99867 0.0
C1722 C 1.00555 0.14089 0.01753 0.0
C1723 C 0.01785 0.13731 0.03201 0.0
C1724 C 0.01246 0.13366 0.04963 0.0
C1725 C 0.99483 0.13369 0.05299 0.0
C1726 C 0.98257 0.13743 0.03876 0.0
C1727 C 0.98789 0.14108 0.0211 0.0
H1728 H 0.99067 0.13083 0.06663 0.0
H1729 H 0.04298 0.16471 0.89536 0.0
H1730 H 0.09584 0.78604 0.15788 0.0
H1731 H 0.12153 0.78267 0.17962 0.0
H1732 H 0.15702 0.80565 0.14143 0.0
H1733 H 0.13136 0.80825 0.1193 0.0
H1734 H 0.16969 0.77957 0.15307 0.0
H1735 H 0.14837 0.82799 0.18813 0.0
H1736 H 0.1262 0.8421 0.20386 0.0
H1737 H 0.1199 0.80039 0.24054 0.0
H1738 H 0.14188 0.78593 0.22489 0.0
H1739 H 0.25072 0.79596 0.21571 0.0
H1740 H 0.22396 0.79945 0.19574 0.0
H1741 H 0.1909 0.77021 0.23218 0.0
H1742 H 0.21758 0.76647 0.25211 0.0
H1743 H 0.17671 0.79872 0.22243 0.0
H1744 H 0.19445 0.74921 0.18801 0.0
H1745 H 0.21607 0.73306 0.17392 0.0
H1746 H 0.22834 0.77459 0.13803 0.0
H1747 H 0.20658 0.79095 0.15172 0.0
C1748 C 0.10911 0.79058 0.15417 0.0
C1749 C 0.11134 0.79754 0.13672 0.0
C1750 C 0.12394 0.78871 0.16675 0.0
C1751 C 0.14158 0.79415 0.16259 0.0
C1752 C 0.14376 0.80128 0.14524 0.0
C1753 C 0.12896 0.80287 0.13253 0.0
C1754 C 0.1577 0.79194 0.1758 0.0
C1755 C 0.17122 0.78411 0.16816 0.0
C1756 C 0.15982 0.79706 0.19581 0.0
C1757 C 0.14664 0.80579 0.20522 0.0
C1758 C 0.14217 0.82177 0.19947 0.0
C1759 C 0.12965 0.82984 0.20838 0.0
C1760 C 0.12161 0.82212 0.22315 0.0
C1761 C 0.12611 0.80634 0.22908 0.0
C1762 C 0.13861 0.79822 0.22021 0.0
C1763 C 0.2378 0.79017 0.21951 0.0
C1764 C 0.23656 0.78089 0.23569 0.0
C1765 C 0.22239 0.79218 0.20799 0.0
C1766 C 0.20517 0.78502 0.21221 0.0
C1767 C 0.20389 0.77596 0.22849 0.0
C1768 C 0.21929 0.77382 0.23994 0.0
C1769 C 0.18864 0.78677 0.19954 0.0
C1770 C 0.17511 0.79437 0.20728 0.0
C1771 C 0.18632 0.78123 0.17971 0.0
C1772 C 0.19897 0.77131 0.17093 0.0
C1773 C 0.20175 0.75489 0.17707 0.0
C1774 C 0.214 0.74569 0.16913 0.0
C1775 C 0.2236 0.75284 0.15508 0.0
C1776 C 0.22084 0.7691 0.14884 0.0
C1777 C 0.20849 0.77829 0.15661 0.0
H1778 H 0.23318 0.74577 0.14903 0.0
H1779 H 0.11192 0.82838 0.23003 0.0
H1780 H 0.49802 0.81236 0.47575 0.0
H1781 H 0.49948 0.84405 0.48854 0.0
H1782 H 0.52524 0.86153 0.44078 0.0
H1783 H 0.52341 0.83018 0.42781 0.0
H1784 H 0.54234 0.8809 0.47556 0.0
H1785 H 0.48232 0.86386 0.44297 0.0
H1786 H 0.45202 0.84544 0.43669 0.0
H1787 H 0.4432 0.85941 0.49442 0.0
H1788 H 0.47356 0.87771 0.50112 0.0
H1789 H 0.53914 0.97397 0.48112 0.0
H1790 H 0.53596 0.94173 0.47156 0.0
H1791 H 0.50175 0.93054 0.51505 0.0
H1792 H 0.50519 0.96291 0.52491 0.0
H1793 H 0.48872 0.90719 0.4851 0.0
H1794 H 0.54614 0.92415 0.51895 0.0
H1795 H 0.57681 0.94081 0.52875 0.0
H1796 H 0.59135 0.92549 0.47366 0.0
H1797 H 0.56065 0.90898 0.46338 0.0
C1798 C 0.50394 0.82294 0.46793 0.0
C1799 C 0.51054 0.81844 0.45062 0.0
C1800 C 0.50475 0.84117 0.47526 0.0
C1801 C 0.51249 0.85553 0.46572 0.0
C1802 C 0.51923 0.85098 0.44859 0.0
C1803 C 0.51809 0.83287 0.4411 0.0
C1804 C 0.51372 0.87523 0.47336 0.0
C1805 C 0.53056 0.88665 0.47738 0.0
C1806 C 0.49853 0.88292 0.47664 0.0
C1807 C 0.48028 0.87198 0.4726 0.0
C1808 C 0.47398 0.86287 0.45437 0.0
C1809 C 0.45678 0.85248 0.45073 0.0
C1810 C 0.44571 0.85121 0.46517 0.0
C1811 C 0.4518 0.86038 0.48326 0.0
C1812 C 0.469 0.87077 0.48699 0.0
C1813 C 0.53086 0.96477 0.48873 0.0
C1814 C 0.52224 0.97149 0.50377 0.0
C1815 C 0.52911 0.9461 0.48324 0.0
C1816 C 0.51874 0.93323 0.49259 0.0
C1817 C 0.50982 0.93988 0.50739 0.0
C1818 C 0.51166 0.95861 0.51296 0.0
C1819 C 0.51739 0.91305 0.48694 0.0
C1820 C 0.50055 0.90152 0.48331 0.0
C1821 C 0.53263 0.90513 0.48445 0.0
C1822 C 0.551 0.9155 0.49031 0.0
C1823 C 0.5558 0.92452 0.50883 0.0
C1824 C 0.57321 0.9339 0.51449 0.0
C1825 C 0.58601 0.93425 0.50182 0.0
C1826 C 0.58141 0.92524 0.48344 0.0
C1827 C 0.564 0.91587 0.47769 0.0
H1828 H 0.59951 0.94142 0.50626 0.0
H1829 H 0.4324 0.84317 0.46232 0.0
H1830 H 0.51814 0.31188 0.65329 0.0
H1831 H 0.49142 0.30973 0.66965 0.0
H1832 H 0.47154 0.25651 0.64006 0.0
H1833 H 0.49794 0.25929 0.62274 0.0
H1834 H 0.44453 0.2716 0.64306 0.0
H1835 H 0.49273 0.2664 0.6897 0.0
H1836 H 0.52221 0.27544 0.70878 0.0
H1837 H 0.50773 0.32463 0.73133 0.0
H1838 H 0.47825 0.31598 0.71222 0.0
H1839 H 0.38191 0.24885 0.711 0.0
H1840 H 0.4048 0.25072 0.68904 0.0
H1841 H 0.42657 0.30522 0.71399 0.0
H1842 H 0.40419 0.30303 0.73625 0.0
H1843 H 0.45216 0.28782 0.71291 0.0
H1844 H 0.4034 0.29247 0.66668 0.0
H1845 H 0.37352 0.28256 0.64869 0.0
H1846 H 0.38851 0.23364 0.62618 0.0
H1847 H 0.41842 0.24314 0.64426 0.0
C1848 C 0.50802 0.29975 0.65026 0.0
C1849 C 0.51017 0.2857 0.63688 0.0
C1850 C 0.49275 0.29842 0.65975 0.0
C1851 C 0.47946 0.28271 0.65667 0.0
C1852 C 0.4815 0.26876 0.64292 0.0
C1853 C 0.49664 0.27029 0.63305 0.0
C1854 C 0.46367 0.28085 0.66789 0.0
C1855 C 0.44627 0.27494 0.65837 0.0
C1856 C 0.46561 0.28541 0.68791 0.0
C1857 C 0.48335 0.29061 0.6994 0.0
C1858 C 0.49588 0.27919 0.69864 0.0
C1859 C 0.51258 0.28424 0.70947 0.0
C1860 C 0.51686 0.30061 0.72122 0.0
C1861 C 0.50442 0.31196 0.7222 0.0
C1862 C 0.48771 0.30698 0.71139 0.0
C1863 C 0.39131 0.26137 0.71138 0.0
C1864 C 0.39118 0.27586 0.72523 0.0
C1865 C 0.40445 0.26245 0.69883 0.0
C1866 C 0.41759 0.27815 0.6997 0.0
C1867 C 0.41678 0.29289 0.71297 0.0
C1868 C 0.40386 0.29172 0.72561 0.0
C1869 C 0.43302 0.27894 0.68809 0.0
C1870 C 0.45039 0.28453 0.69758 0.0
C1871 C 0.43099 0.27402 0.66813 0.0
C1872 C 0.41311 0.26845 0.65699 0.0
C1873 C 0.4003 0.27955 0.658 0.0
C1874 C 0.38335 0.274 0.64778 0.0
C1875 C 0.37909 0.25745 0.63636 0.0
C1876 C 0.39181 0.24644 0.63506 0.0
C1877 C 0.40877 0.25191 0.64528 0.0
H1878 H 0.36595 0.25318 0.62848 0.0
H1879 H 0.52979 0.30449 0.7296 0.0
H1880 H 0.0117 0.81766 0.68042 0.0
H1881 H 0.01462 0.84426 0.66298 0.0
H1882 H 0.04482 0.81907 0.62398 0.0
H1883 H 0.04147 0.79236 0.6409 0.0
H1884 H 0.0596 0.85679 0.63776 0.0
H1885 H 1.00536 0.81832 0.60843 0.0
H1886 H 0.97544 0.79974 0.60757 0.0
H1887 H 0.95588 0.84584 0.63054 0.0
H1888 H 0.9858 0.86466 0.63184 0.0
H1889 H 0.05939 0.91617 0.56659 0.0
H1890 H 0.05454 0.88805 0.58139 0.0
H1891 H 0.01764 0.90885 0.61543 0.0
H1892 H 0.02261 0.93693 0.60073 0.0
H1893 H 1.00602 0.87285 0.60373 0.0
H1894 H 0.05984 0.91121 0.63394 0.0
H1895 H 0.08966 0.93016 0.63545 0.0
H1896 H 0.10994 0.88478 0.61178 0.0
H1897 H 0.08013 0.8656 0.60987 0.0
C1898 C 0.01914 0.81789 0.66827 0.0
C1899 C 0.02639 0.80288 0.66211 0.0
C1900 C 0.02071 0.83306 0.65823 0.0
C1901 C 0.02989 0.83368 0.64207 0.0
C1902 C 0.03768 0.81896 0.63636 0.0
C1903 C 0.03575 0.80367 0.64608 0.0
C1904 C 0.03112 0.84946 0.63088 0.0
C1905 C 0.0479 0.86016 0.63014 0.0
C1906 C 0.01586 0.85413 0.62116 0.0
C1907 C 0.99788 0.84285 0.62049 0.0
C1908 C 0.99474 0.82446 0.61352 0.0
C1909 C 0.97777 0.81389 0.6129 0.0
C1910 C 0.96379 0.82159 0.61907 0.0
C1911 C 0.96674 0.83989 0.62581 0.0
C1912 C 0.9837 0.85051 0.62649 0.0
C1913 C 0.04989 0.9145 0.57685 0.0
C1914 C 0.0412 0.92863 0.58234 0.0
C1915 C 0.04724 0.8985 0.58547 0.0
C1916 C 0.03585 0.8963 0.59976 0.0
C1917 C 0.02648 0.91011 0.60449 0.0
C1918 C 0.02927 0.92615 0.59604 0.0
C1919 C 0.03453 0.88023 0.61061 0.0
C1920 C 0.01773 0.86948 0.61132 0.0
C1921 C 0.04977 0.87556 0.62041 0.0
C1922 C 0.06771 0.88702 0.62155 0.0
C1923 C 0.07062 0.9053 0.6289 0.0
C1924 C 0.08752 0.91608 0.62985 0.0
C1925 C 0.10167 0.90869 0.62365 0.0
C1926 C 0.09895 0.89049 0.61654 0.0
C1927 C 0.08206 0.87966 0.61552 0.0
H1928 H 0.11476 0.91705 0.62441 0.0
H1929 H 0.95065 0.81338 0.61856 0.0
H1930 H 0.48105 0.82717 0.86216 0.0
H1931 H 0.45053 0.82268 0.8469 0.0
H1932 H 0.45995 0.77842 0.80914 0.0
H1933 H 0.49112 0.78318 0.82441 0.0
H1934 H 0.43702 0.79587 0.79001 0.0
H1935 H 0.43696 0.77171 0.84919 0.0
H1936 H 0.44428 0.77133 0.88364 0.0
H1937 H 0.41728 0.81541 0.89508 0.0
H1938 H 0.40998 0.81619 0.86066 0.0
H1939 H 0.34159 0.76097 0.76797 0.0
H1940 H 0.37365 0.76477 0.77882 0.0
H1941 H 0.37114 0.81316 0.81451 0.0
H1942 H 0.33922 0.80946 0.80362 0.0
H1943 H 0.3905 0.79165 0.83386 0.0
H1944 H 0.39065 0.81529 0.77382 0.0
H1945 H 0.383 0.81445 0.73924 0.0
H1946 H 0.40909 0.76949 0.72934 0.0
H1947 H 0.41677 0.76991 0.76389 0.0
C1948 C 0.47686 0.81659 0.8504 0.0
C1949 C 0.48889 0.80557 0.84469 0.0
C1950 C 0.45913 0.8139 0.84171 0.0
C1951 C 0.45231 0.79983 0.82703 0.0
C1952 C 0.46452 0.78932 0.82049 0.0
C1953 C 0.48252 0.79213 0.82919 0.0
C1954 C 0.43245 0.79598 0.81936 0.0
C1955 C 0.42692 0.79467 0.79967 0.0
C1956 C 0.41881 0.79458 0.83163 0.0
C1957 C 0.42306 0.79411 0.85234 0.0
C1958 C 0.43268 0.7814 0.85905 0.0
C1959 C 0.43681 0.7811 0.87857 0.0
C1960 C 0.43128 0.79337 0.89154 0.0
C1961 C 0.42156 0.80593 0.88501 0.0
C1962 C 0.41741 0.80629 0.8655 0.0
C1963 C 0.34783 0.77247 0.77809 0.0
C1964 C 0.33757 0.78498 0.78467 0.0
C1965 C 0.36633 0.7747 0.78428 0.0
C1966 C 0.37524 0.78937 0.79753 0.0
C1967 C 0.36492 0.80172 0.8043 0.0
C1968 C 0.34653 0.79965 0.79789 0.0
C1969 C 0.3951 0.79175 0.80458 0.0
C1970 C 0.40061 0.79279 0.8242 0.0
C1971 C 0.40863 0.79271 0.79222 0.0
C1972 C 0.40413 0.7925 0.77146 0.0
C1973 C 0.39464 0.80512 0.76429 0.0
C1974 C 0.39031 0.80474 0.74469 0.0
C1975 C 0.39548 0.79189 0.73211 0.0
C1976 C 0.40506 0.77942 0.7391 0.0
C1977 C 0.40943 0.77973 0.75869 0.0
H1978 H 0.3921 0.79162 0.71695 0.0
H1979 H 0.4345 0.79312 0.90665 0.0
H1980 H 0.54585 0.20859 0.14295 0.0
H1981 H 0.54303 0.17876 0.12582 0.0
H1982 H 0.48832 0.16578 0.13675 0.0
H1983 H 0.49095 0.19636 0.15383 0.0
H1984 H 0.51417 0.1364 0.14006 0.0
H1985 H 0.48963 0.17402 0.09725 0.0
H1986 H 0.49003 0.20192 0.08219 0.0
H1987 H 0.53914 0.1958 0.06052 0.0
H1988 H 0.53918 0.16801 0.07573 0.0
H1989 H 0.50139 0.05832 0.07071 0.0
H1990 H 0.49808 0.08478 0.09163 0.0
H1991 H 0.53854 0.11769 0.06569 0.0
H1992 H 0.54126 0.09144 0.04428 0.0
H1993 H 0.51602 0.13655 0.07065 0.0
H1994 H 0.54438 0.10356 0.11543 0.0
H1995 H 0.54841 0.0778 0.13293 0.0
H1996 H 0.49668 0.0759 0.15154 0.0
H1997 H 0.49251 0.10194 0.13454 0.0
C1998 C 0.53321 0.19938 0.14208 0.0
C1999 C 0.51861 0.20509 0.14984 0.0
C2000 C 0.53164 0.18223 0.13217 0.0
C2001 C 0.51545 0.16992 0.12971 0.0
C2002 C 0.50101 0.175 0.13842 0.0
C2003 C 0.50254 0.19246 0.14833 0.0
C2004 C 0.5138 0.15252 0.11692 0.0
C2005 C 0.51412 0.13632 0.12481 0.0
C2006 C 0.51456 0.15239 0.09708 0.0
C2007 C 0.51448 0.16901 0.08778 0.0
C2008 C 0.50059 0.17871 0.08942 0.0
C2009 C 0.50073 0.19449 0.08083 0.0
C2010 C 0.51462 0.20065 0.07044 0.0
C2011 C 0.52839 0.19102 0.06858 0.0
C2012 C 0.52833 0.17525 0.07718 0.0
C2013 C 0.50963 0.07119 0.06949 0.0
C2014 C 0.5216 0.07259 0.05568 0.0
C2015 C 0.50784 0.08642 0.08166 0.0
C2016 C 0.51825 0.10355 0.08075 0.0
C2017 C 0.53021 0.10487 0.06691 0.0
C2018 C 0.53179 0.08973 0.05457 0.0
C2019 C 0.51649 0.12014 0.09368 0.0
C2020 C 0.51573 0.13635 0.08583 0.0
C2021 C 0.51573 0.12032 0.11361 0.0
C2022 C 0.51805 0.10452 0.12353 0.0
C2023 C 0.53382 0.09756 0.12315 0.0
C2024 C 0.53615 0.08295 0.133 0.0
C2025 C 0.52273 0.07508 0.14312 0.0
C2026 C 0.50703 0.08195 0.14362 0.0
C2027 C 0.50472 0.0967 0.13398 0.0
H2028 H 0.52455 0.06374 0.15069 0.0
H2029 H 0.5147 0.21287 0.06379 0.0
H2030 H 0.08112 0.29314 0.31255 0.0
H2031 H 0.1094 0.28956 0.30054 0.0
H2032 H 0.13643 0.30213 0.35759 0.0
H2033 H 0.10843 0.30633 0.36939 0.0
H2034 H 0.15757 0.31771 0.33755 0.0
H2035 H 0.12516 0.25648 0.32734 0.0
H2036 H 0.10001 0.23197 0.31432 0.0
H2037 H 0.10843 0.24298 0.25758 0.0
H2038 H 0.1335 0.2677 0.27027 0.0
H2039 H 0.24135 0.29451 0.31911 0.0
H2040 H 0.21239 0.29688 0.32964 0.0
H2041 H 0.18714 0.2812 0.27215 0.0
H2042 H 0.21612 0.2784 0.26173 0.0
H2043 H 0.16458 0.26702 0.29147 0.0
H2044 H 0.19412 0.32946 0.30079 0.0
H2045 H 0.21586 0.35715 0.31305 0.0
H2046 H 0.21166 0.34502 0.37028 0.0
H2047 H 0.18969 0.31739 0.35833 0.0
C2048 C 0.09306 0.29509 0.32259 0.0
C2049 C 0.09213 0.30006 0.34209 0.0
C2050 C 0.10942 0.29287 0.31568 0.0
C2051 C 0.1256 0.29522 0.32798 0.0
C2052 C 0.12456 0.30016 0.34745 0.0
C2053 C 0.10829 0.30253 0.35431 0.0
C2054 C 0.14363 0.29328 0.32086 0.0
C2055 C 0.15898 0.30636 0.32771 0.0
C2056 C 0.14605 0.27898 0.30739 0.0
C2057 C 0.13108 0.26405 0.29976 0.0
C2058 C 0.12158 0.25374 0.31209 0.0
C2059 C 0.10734 0.2398 0.30477 0.0
C2060 C 0.10259 0.23595 0.28514 0.0
C2061 C 0.1121 0.24599 0.27278 0.0
C2062 C 0.12633 0.25996 0.28003 0.0
C2063 C 0.22969 0.29165 0.30859 0.0
C2064 C 0.23149 0.28619 0.28943 0.0
C2065 C 0.21288 0.29319 0.31467 0.0
C2066 C 0.19695 0.28967 0.30185 0.0
C2067 C 0.19878 0.28411 0.28268 0.0
C2068 C 0.2156 0.28247 0.27663 0.0
C2069 C 0.17861 0.29143 0.30836 0.0
C2070 C 0.16319 0.27831 0.30138 0.0
C2071 C 0.17603 0.30577 0.32164 0.0
C2072 C 0.19045 0.32132 0.32867 0.0
C2073 C 0.19805 0.33258 0.31596 0.0
C2074 C 0.21032 0.34833 0.32287 0.0
C2075 C 0.21514 0.35283 0.34245 0.0
C2076 C 0.20789 0.34152 0.35514 0.0
C2077 C 0.1955 0.32586 0.34831 0.0
H2078 H 0.22439 0.36515 0.34788 0.0
H2079 H 0.09156 0.22516 0.2795 0.0
H2080 H 0.92608 0.02147 0.20144 0.0
H2081 H 0.93538 0.0264 0.16995 0.0
H2082 H 0.98923 0.02277 0.1907 0.0
H2083 H 0.98019 0.01796 0.22181 0.0
H2084 H 0.98975 0.04981 0.16998 0.0
H2085 H 0.96151 0.9878 0.16351 0.0
H2086 H 0.93728 0.96191 0.16423 0.0
H2087 H 0.90428 0.98189 0.12212 0.0
H2088 H 0.92825 0.00809 0.12139 0.0
H2089 H 0.02974 0.02492 0.08842 0.0
H2090 H 0.0158 0.02497 0.11769 0.0
H2091 H 0.96869 0.03805 0.08845 0.0
H2092 H 0.98283 0.03863 0.05896 0.0
H2093 H 0.96212 0.00889 0.11202 0.0
H2094 H 0.99346 0.07015 0.11738 0.0
H2095 H 0.01934 0.09447 0.11708 0.0
H2096 H 0.04852 0.07351 0.16162 0.0
H2097 H 0.02282 0.04901 0.16213 0.0
C2098 C 0.93991 0.02184 0.19929 0.0
C2099 C 0.95232 0.01919 0.21422 0.0
C2100 C 0.94521 0.02457 0.18125 0.0
C2101 C 0.96303 0.02484 0.17782 0.0
C2102 C 0.97543 0.02264 0.19286 0.0
C2103 C 0.97016 0.01978 0.21071 0.0
C2104 C 0.96902 0.02718 0.15869 0.0
C2105 C 0.98369 0.04081 0.15735 0.0
C2106 C 0.96107 0.01564 0.14203 0.0
C2107 C 0.94656 1.00005 0.14262 0.0
C2108 C 0.94901 0.98679 0.15458 0.0
C2109 C 0.93534 0.97204 0.15495 0.0
C2110 C 0.91922 0.97029 0.14329 0.0
C2111 C 0.91676 0.98329 0.1312 0.0
C2112 C 0.93037 0.9981 0.1308 0.0
C2113 C 0.01651 0.02811 0.08815 0.0
C2114 C 1.00757 0.03206 0.07125 0.0
C2115 C 1.00852 0.02805 0.10497 0.0
C2116 C 0.99124 0.03166 0.10537 0.0
C2117 C 0.98206 0.03528 0.08852 0.0
C2118 C 0.99019 0.03564 0.07167 0.0
C2119 C 0.98289 0.03139 0.12345 0.0
C2120 C 0.9679 0.0181 0.1246 0.0
C2121 C 0.99073 0.04302 0.14004 0.0
C2122 C 1.00625 0.05767 0.13969 0.0
C2123 C 1.00544 0.07065 0.12702 0.0
C2124 C 0.02005 0.08451 0.12686 0.0
C2125 C 0.03558 0.08551 0.13929 0.0
C2126 C 0.03649 0.07271 0.15198 0.0
C2127 C 0.02188 0.05886 0.15225 0.0
H2128 H 0.0469 0.09622 0.1391 0.0
H2129 H 0.90867 0.95884 0.14357 0.0
H2130 H 0.28102 0.67651 0.50804 0.0
H2131 H 0.27667 0.69248 0.48063 0.0
H2132 H 0.26574 0.64227 0.44376 0.0
H2133 H 0.27041 0.62593 0.47151 0.0
H2134 H 0.28856 0.67068 0.43024 0.0
H2135 H 0.23161 0.66067 0.45425 0.0
H2136 H 0.21099 0.66089 0.47869 0.0
H2137 H 0.22706 0.71825 0.49111 0.0
H2138 H 0.24797 0.71835 0.46696 0.0
H2139 H 0.24413 0.70829 0.35447 0.0
H2140 H 0.25516 0.69066 0.37834 0.0
H2141 H 0.26528 0.73749 0.42014 0.0
H2142 H 0.25453 0.75534 0.39624 0.0
H2143 H 0.24258 0.70909 0.42992 0.0
H2144 H 0.29974 0.72006 0.40781 0.0
H2145 H 0.32239 0.72108 0.38549 0.0
H2146 H 0.30761 0.66385 0.37067 0.0
H2147 H 0.28474 0.66251 0.39276 0.0
C2148 C 0.2777 0.66878 0.49413 0.0
C2149 C 0.27586 0.64995 0.49186 0.0
C2150 C 0.27521 0.67795 0.47851 0.0
C2151 C 0.2706 0.66848 0.46032 0.0
C2152 C 0.26921 0.64972 0.45781 0.0
C2153 C 0.27182 0.64044 0.47357 0.0
C2154 C 0.26703 0.67852 0.4442 0.0
C2155 C 0.27828 0.67881 0.42984 0.0
C2156 C 0.254 0.68954 0.44427 0.0
C2157 C 0.24145 0.68949 0.45887 0.0
C2158 C 0.23086 0.67331 0.4623 0.0
C2159 C 0.21909 0.67338 0.47608 0.0
C2160 C 0.21773 0.68957 0.48646 0.0
C2161 C 0.22813 0.70572 0.48307 0.0
C2162 C 0.23992 0.70572 0.46932 0.0
C2163 C 0.24905 0.71493 0.36865 0.0
C2164 C 0.24821 0.73311 0.37363 0.0
C2165 C 0.25546 0.70487 0.3822 0.0
C2166 C 0.26107 0.71284 0.40089 0.0
C2167 C 0.26099 0.73117 0.40572 0.0
C2168 C 0.25463 0.74125 0.39217 0.0
C2169 C 0.26425 0.70148 0.41597 0.0
C2170 C 0.25281 0.70089 0.43013 0.0
C2171 C 0.27718 0.69035 0.41574 0.0
C2172 C 0.29034 0.69122 0.40177 0.0
C2173 C 0.30112 0.70772 0.39958 0.0
C2174 C 0.31407 0.70835 0.38704 0.0
C2175 C 0.3164 0.69255 0.37662 0.0
C2176 C 0.30577 0.67609 0.37871 0.0
C2177 C 0.29282 0.67539 0.39126 0.0
H2178 H 0.32647 0.69306 0.36698 0.0
H2179 H 0.20861 0.68959 0.49711 0.0
H2180 H 0.61704 0.04362 0.71327 0.0
H2181 H 0.60459 0.03895 0.68006 0.0
H2182 H 0.65343 0.02474 0.66379 0.0
H2183 H 0.66623 0.02938 0.69725 0.0
H2184 H 0.638 0.05048 0.64185 0.0
H2185 H 0.62206 0.99153 0.66172 0.0
H2186 H 0.61077 0.97055 0.68397 0.0
H2187 H 0.56021 0.9875 0.67808 0.0
H2188 H 0.57125 0.00873 0.65597 0.0
H2189 H 0.56982 1.00481 0.55603 0.0
H2190 H 0.59341 1.00538 0.58194 0.0
H2191 H 0.57896 0.05223 0.61099 0.0
H2192 H 0.55549 0.05201 0.58488 0.0
H2193 H 0.58237 1.00518 0.62245 0.0
H2194 H 0.61046 0.07466 0.62143 0.0
H2195 H 0.62106 0.09752 0.60068 0.0
H2196 H 0.64648 0.05964 0.57005 0.0
H2197 H 0.63582 0.03655 0.59055 0.0
C2198 C 0.62522 0.0395 0.70272 0.0
C2199 C 0.6426 0.03676 0.70791 0.0
C2200 C 0.61805 0.03683 0.68377 0.0
C2201 C 0.62809 0.03133 0.66971 0.0
C2202 C 0.64556 0.02893 0.67463 0.0
C2203 C 0.65278 0.03156 0.69368 0.0
C2204 C 0.61995 0.0281 0.6499 0.0
C2205 C 0.62609 0.04029 0.63741 0.0
C2206 C 0.60438 0.01488 0.64432 0.0
C2207 C 0.5975 1.00173 0.65718 0.0
C2208 C 0.60855 0.99081 0.6652 0.0
C2209 C 0.60219 0.97888 0.67779 0.0
C2210 C 0.58478 0.9777 0.68244 0.0
C2211 C 0.57367 0.9884 0.67444 0.0
C2212 C 0.57996 1.00035 0.66184 0.0
C2213 C 0.572 0.01553 0.56768 0.0
C2214 C 0.56106 0.02852 0.56846 0.0
C2215 C 0.5854 0.01578 0.58242 0.0
C2216 C 0.58797 0.02901 0.59802 0.0
C2217 C 0.57728 0.04216 0.59875 0.0
C2218 C 0.56383 0.04191 0.58402 0.0
C2219 C 0.60022 0.0278 0.61471 0.0
C2220 C 0.5947 0.01485 0.62663 0.0
C2221 C 0.61622 0.04033 0.61985 0.0
C2222 C 0.62243 0.054 0.60745 0.0
C2223 C 0.61833 0.07127 0.61026 0.0
C2224 C 0.62433 0.08424 0.59856 0.0
C2225 C 0.63454 0.08007 0.58413 0.0
C2226 C 0.63862 0.06286 0.58126 0.0
C2227 C 0.63256 0.04982 0.59286 0.0
H2228 H 0.63919 0.09013 0.5751 0.0
H2229 H 0.5799 0.96848 0.69222 0.0
H2230 H 0.28089 0.38246 0.96578 0.0
H2231 H 0.28106 0.3665 0.93417 0.0
H2232 H 0.3089 0.32846 0.95931 0.0
H2233 H 0.30818 0.34398 0.99113 0.0
H2234 H 0.31935 0.35191 0.92008 0.0
H2235 H 0.28001 0.30592 0.94908 0.0
H2236 H 0.25484 0.29655 0.96714 0.0
H2237 H 0.21978 0.31687 0.92739 0.0
H2238 H 0.24489 0.32672 0.90932 0.0
H2239 H 0.31028 0.28565 0.83756 0.0
H2240 H 0.31326 0.29878 0.87082 0.0
H2241 H 0.26734 0.32297 0.85839 0.0
H2242 H 0.26513 0.31095 0.82515 0.0
H2243 H 0.26708 0.30514 0.89218 0.0
H2244 H 0.30369 0.34898 0.8621 0.0
H2245 H 0.32734 0.35916 0.84244 0.0
H2246 H 0.36635 0.34463 0.88262 0.0
H2247 H 0.34282 0.33399 0.90234 0.0
C2248 C 0.2871 0.37073 0.9646 0.0
C2249 C 0.29447 0.36444 0.98097 0.0
C2250 C 0.28718 0.36162 0.94652 0.0
C2251 C 0.2949 0.34625 0.9444 0.0
C2252 C 0.30275 0.34023 0.96065 0.0
C2253 C 0.30232 0.34909 0.9788 0.0
C2254 C 0.29432 0.33636 0.92519 0.0
C2255 C 0.30812 0.34141 0.91411 0.0
C2256 C 0.27941 0.32309 0.91717 0.0
C2257 C 0.26438 0.31736 0.92809 0.0
C2258 C 0.267 0.30867 0.94438 0.0
C2259 C 0.25274 0.3032 0.95457 0.0
C2260 C 0.23574 0.30619 0.94847 0.0
C2261 C 0.23297 0.31463 0.93214 0.0
C2262 C 0.24722 0.32017 0.92194 0.0
C2263 C 0.30105 0.29402 0.84175 0.0
C2264 C 0.28771 0.29753 0.82834 0.0
C2265 C 0.30264 0.30137 0.86088 0.0
C2266 C 0.29054 0.31191 0.86711 0.0
C2267 C 0.27684 0.31488 0.85396 0.0
C2268 C 0.27561 0.30799 0.83485 0.0
C2269 C 0.29232 0.32034 0.88717 0.0
C2270 C 0.27856 0.31529 0.89828 0.0
C2271 C 0.30721 0.33369 0.89513 0.0
C2272 C 0.32146 0.34046 0.88357 0.0
C2273 C 0.31728 0.34779 0.86666 0.0
C2274 C 0.33067 0.35367 0.85552 0.0
C2275 C 0.34833 0.35248 0.86124 0.0
C2276 C 0.35265 0.34549 0.87818 0.0
C2277 C 0.33929 0.33954 0.88935 0.0
H2278 H 0.35867 0.35702 0.85259 0.0
H2279 H 0.2247 0.30191 0.95635 0.0
H2280 H 0.97119 0.01877 0.30584 0.0
H2281 H 0.98563 0.01801 0.33789 0.0
H2282 H 0.93431 0.01114 0.35888 0.0
H2283 H 0.91989 0.01255 0.32695 0.0
H2284 H 0.95685 0.03633 0.38064 0.0
H2285 H 0.96094 0.97619 0.35335 0.0
H2286 H 0.96989 0.9551 0.32918 0.0
H2287 H 0.02465 0.98133 0.34327 0.0
H2288 H 0.01601 1.00271 0.36735 0.0
H2289 H 0.9846 0.02535 0.47487 0.0
H2290 H 0.97076 0.02184 0.44209 0.0
H2291 H 0.02152 0.01796 0.42236 0.0
H2292 H 0.0351 0.02019 0.45538 0.0
H2293 H 0.99986 0.9977 0.39911 0.0
H2294 H 0.99885 0.05955 0.41886 0.0
H2295 H 0.99293 0.08745 0.43546 0.0
H2296 H 0.93738 0.06384 0.43229 0.0
H2297 H 0.94296 0.03594 0.41511 0.0
C2298 C 0.96295 0.01691 0.31725 0.0
C2299 C 0.94437 0.01575 0.31382 0.0
C2300 C 0.97124 0.01634 0.33561 0.0
C2301 C 0.96111 0.01422 0.35092 0.0
C2302 C 0.94248 0.01272 0.34738 0.0
C2303 C 0.93422 0.01352 0.32909 0.0
C2304 C 0.96988 0.01499 0.37084 0.0
C2305 C 0.96596 0.02758 0.38474 0.0
C2306 C 0.98261 1.00436 0.37611 0.0
C2307 C 0.98781 0.9911 0.36209 0.0
C2308 C 0.97489 0.97748 0.35126 0.0
C2309 C 0.9799 0.96548 0.33757 0.0
C2310 C 0.99782 0.96689 0.33468 0.0
C2311 C 0.01078 0.98025 0.34553 0.0
C2312 C 1.00583 0.99228 0.35923 0.0
C2313 C 0.99284 0.02379 0.46354 0.0
C2314 C 0.01103 0.0233 0.46777 0.0
C2315 C 0.98492 0.02197 0.44467 0.0
C2316 C 0.99508 0.02024 0.4294 0.0
C2317 C 0.01325 0.01938 0.43367 0.0
C2318 C 0.02108 0.02073 0.45261 0.0
C2319 C 0.98664 0.01902 0.40914 0.0
C2320 C 0.99062 1.00635 0.39515 0.0
C2321 C 0.97439 0.03004 0.4035 0.0
C2322 C 0.97137 0.04565 0.41597 0.0
C2323 C 0.98545 0.06022 0.42203 0.0
C2324 C 0.98211 0.07609 0.43136 0.0
C2325 C 0.96477 0.07742 0.43496 0.0
C2326 C 0.95078 0.0628 0.42946 0.0
C2327 C 0.95401 0.04699 0.41984 0.0
H2328 H 0.96214 0.08981 0.44193 0.0
H2329 H 1.00167 0.95762 0.32403 0.0
H2330 H 0.30347 0.68505 0.58497 0.0
H2331 H 0.30723 0.69837 0.61798 0.0
H2332 H 0.27446 0.6507 0.63287 0.0
H2333 H 0.27088 0.63713 0.59963 0.0
H2334 H 0.26054 0.68303 0.63622 0.0
H2335 H 0.31517 0.66318 0.65599 0.0
H2336 H 0.34577 0.65865 0.6524 0.0
H2337 H 0.36331 0.71564 0.65347 0.0
H2338 H 0.33281 0.72051 0.65684 0.0
H2339 H 0.25525 0.73728 0.72121 0.0
H2340 H 0.25661 0.71403 0.69576 0.0
H2341 H 0.3068 0.74463 0.68411 0.0
H2342 H 0.30723 0.76531 0.71264 0.0
H2343 H 0.31148 0.71473 0.68264 0.0
H2344 H 0.26062 0.73633 0.65428 0.0
H2345 H 0.23083 0.74451 0.65232 0.0
H2346 H 0.20723 0.6905 0.65995 0.0
H2347 H 0.2369 0.68204 0.66218 0.0
C2348 C 0.29765 0.67717 0.59545 0.0
C2349 C 0.28668 0.66029 0.58994 0.0
C2350 C 0.29994 0.68468 0.61429 0.0
C2351 C 0.2911 0.67545 0.62773 0.0
C2352 C 0.28146 0.65787 0.62259 0.0
C2353 C 0.27942 0.65019 0.60371 0.0
C2354 C 0.2886 0.68586 0.64536 0.0
C2355 C 0.27155 0.68971 0.64674 0.0
C2356 C 0.30321 0.69511 0.65827 0.0
C2357 C 0.32167 0.69219 0.65668 0.0
C2358 C 0.32553 0.67474 0.65541 0.0
C2359 C 0.34287 0.67212 0.65341 0.0
C2360 C 0.35647 0.68685 0.65271 0.0
C2361 C 0.35278 0.70424 0.65406 0.0
C2362 C 0.33548 0.70694 0.65606 0.0
C2363 C 0.26665 0.73872 0.7133 0.0
C2364 C 0.28135 0.75257 0.71901 0.0
C2365 C 0.26721 0.72574 0.69835 0.0
C2366 C 0.28177 0.72748 0.68771 0.0
C2367 C 0.29556 0.74268 0.69225 0.0
C2368 C 0.29563 0.75481 0.70822 0.0
C2369 C 0.28348 0.7129 0.67299 0.0
C2370 C 0.30033 0.70809 0.67232 0.0
C2371 C 0.26886 0.70353 0.65994 0.0
C2372 C 0.251 0.70861 0.65857 0.0
C2373 C 0.24909 0.72623 0.65565 0.0
C2374 C 0.23222 0.73091 0.65449 0.0
C2375 C 0.21716 0.71804 0.65605 0.0
C2376 C 0.21891 0.70046 0.65877 0.0
C2377 C 0.23574 0.69571 0.65996 0.0
H2378 H 0.20413 0.72169 0.65506 0.0
H2379 H 0.36988 0.68478 0.65113 0.0
H2380 H 0.66464 1.00622 0.80955 0.0
H2381 H 0.64906 0.00819 0.83804 0.0
H2382 H 0.65016 0.06468 0.8341 0.0
H2383 H 0.66548 0.06263 0.80568 0.0
H2384 H 0.65608 0.05663 0.87156 0.0
H2385 H 0.61558 0.0376 0.81373 0.0
H2386 H 0.60376 0.01796 0.78389 0.0
H2387 H 0.59265 0.97253 0.81513 0.0
H2388 H 0.60467 0.9919 0.84516 0.0
H2389 H 0.58162 0.08396 0.90306 0.0
H2390 H 0.59567 0.07018 0.87752 0.0
H2391 H 0.60338 0.02698 0.91053 0.0
H2392 H 0.58976 0.04083 0.93636 0.0
H2393 H 0.59326 0.02363 0.86086 0.0
H2394 H 0.63789 0.04557 0.91959 0.0
H2395 H 0.64625 0.0682 0.94788 0.0
H2396 H 0.6463 0.1107 0.91232 0.0
H2397 H 0.63781 0.08826 0.88387 0.0
C2398 C 0.66202 0.01912 0.81525 0.0
C2399 C 0.6662 0.03433 0.80576 0.0
C2400 C 0.6531 0.02021 0.83134 0.0
C2401 C 0.64844 0.03654 0.83797 0.0
C2402 C 0.65375 0.052 0.82917 0.0
C2403 C 0.66244 0.05084 0.81301 0.0
C2404 C 0.63643 0.03734 0.85272 0.0
C2405 C 0.64248 0.04915 0.86935 0.0
C2406 C 0.61859 0.02777 0.84964 0.0
C2407 C 0.61124 0.01613 0.83165 0.0
C2408 C 0.61077 0.02339 0.81422 0.0
C2409 C 0.604 0.01232 0.79727 0.0
C2410 C 0.59751 0.99399 0.7976 0.0
C2411 C 0.59772 0.98672 0.81489 0.0
C2412 C 0.6045 0.99774 0.83188 0.0
C2413 C 0.58607 0.07139 0.90474 0.0
C2414 C 0.58493 0.06363 0.92177 0.0
C2415 C 0.59376 0.06339 0.89006 0.0
C2416 C 0.60036 0.04758 0.89225 0.0
C2417 C 0.59805 0.03905 0.90859 0.0
C2418 C 0.5904 0.04706 0.92334 0.0
C2419 C 0.61311 0.04262 0.87966 0.0
C2420 C 0.60712 0.03036 0.86336 0.0
C2421 C 0.63097 0.05187 0.88286 0.0
C2422 C 0.63737 0.06531 0.89969 0.0
C2423 C 0.63983 0.05976 0.91785 0.0
C2424 C 0.64452 0.07253 0.93389 0.0
C2425 C 0.64684 0.09088 0.9319 0.0
C2426 C 0.64456 0.09649 0.91384 0.0
C2427 C 0.63987 0.08376 0.89775 0.0
H2428 H 0.65038 0.10075 0.94434 0.0
H2429 H 0.59228 0.98544 0.78447 0.0
H2430 H 0.32453 0.35984 0.09037 0.0
H2431 H 0.31972 0.34932 0.12111 0.0
H2432 H 0.26417 0.35313 0.11124 0.0
H2433 H 0.26931 0.36478 0.0808 0.0
H2434 H 0.2751 0.36111 0.14788 0.0
H2435 H 0.28029 0.31226 0.10149 0.0
H2436 H 0.29506 0.29707 0.07714 0.0
H2437 H 0.34044 0.29856 0.1182 0.0
H2438 H 0.32605 0.31398 0.14272 0.0
H2439 H 0.25399 0.30631 0.22186 0.0
H2440 H 0.25471 0.31881 0.19142 0.0
H2441 H 0.30886 0.31044 0.18981 0.0
H2442 H 0.30709 0.2959 0.21881 0.0
H2443 H 0.29555 0.30393 0.15735 0.0
H2444 H 0.29182 0.35505 0.20331 0.0
H2445 H 0.27715 0.37018 0.22786 0.0
H2446 H 0.22982 0.36461 0.18842 0.0
H2447 H 0.24412 0.34928 0.16373 0.0
C2448 C 0.31137 0.35878 0.09494 0.0
C2449 C 0.29728 0.36306 0.08316 0.0
C2450 C 0.30856 0.35259 0.11246 0.0
C2451 C 0.29142 0.34976 0.11834 0.0
C2452 C 0.2775 0.35499 0.10704 0.0
C2453 C 0.28043 0.36168 0.08965 0.0
C2454 C 0.288 0.34054 0.13568 0.0
C2455 C 0.27946 0.34854 0.14989 0.0
C2456 C 0.29371 0.32413 0.13852 0.0
C2457 C 0.30213 0.31438 0.1239 0.0
C2458 C 0.29344 0.30939 0.1053 0.0
C2459 C 0.30175 0.30075 0.09147 0.0
C2460 C 0.31869 0.29689 0.09611 0.0
C2461 C 0.32732 0.30157 0.11462 0.0
C2462 C 0.31909 0.31024 0.12849 0.0
C2463 C 0.26602 0.30727 0.21493 0.0
C2464 C 0.28064 0.30056 0.22284 0.0
C2465 C 0.26654 0.31459 0.19758 0.0
C2466 C 0.2821 0.31633 0.18833 0.0
C2467 C 0.29665 0.30946 0.19641 0.0
C2468 C 0.29574 0.30128 0.21314 0.0
C2469 C 0.28339 0.32489 0.17017 0.0
C2470 C 0.29132 0.31661 0.15557 0.0
C2471 C 0.27727 0.3411 0.16711 0.0
C2472 C 0.269 0.35095 0.18173 0.0
C2473 C 0.27829 0.35708 0.19989 0.0
C2474 C 0.27003 0.36565 0.21383 0.0
C2475 C 0.25257 0.36833 0.20969 0.0
C2476 C 0.24335 0.36253 0.19159 0.0
C2477 C 0.25152 0.35392 0.17762 0.0
H2478 H 0.24618 0.37491 0.22048 0.0
H2479 H 0.32512 0.29023 0.08537 0.0
H2480 H 0.24416 0.93128 0.02853 0.0
H2481 H 0.21745 0.94438 0.03082 0.0
H2482 H 0.23564 0.98223 0.99217 0.0
H2483 H 0.26303 0.96995 0.99116 0.0
H2484 H 0.22148 0.99827 0.01687 0.0
H2485 H 0.20201 0.94325 0.97774 0.0
H2486 H 0.19892 0.91082 0.96742 0.0
H2487 H 0.17115 0.89829 0.01528 0.0
H2488 H 0.17431 0.93063 0.02608 0.0
H2489 H 0.13816 0.02367 0.02453 0.0
H2490 H 0.15805 0.00845 0.00676 0.0
H2491 H 0.16403 0.97497 0.05167 0.0
H2492 H 0.14401 0.99001 0.06941 0.0
H2493 H 0.16299 0.95712 0.01348 0.0
H2494 H 0.19114 0.01347 0.05478 0.0
H2495 H 0.19461 0.0462 0.06377 0.0
H2496 H 0.20569 0.05581 0.00732 0.0
H2497 H 0.20198 0.02309 0.99795 0.0
C2498 C 0.24256 0.94273 0.02101 0.0
C2499 C 0.25547 0.94991 0.00991 0.0
C2500 C 0.22721 0.94995 0.02196 0.0
C2501 C 0.22427 0.96381 0.01106 0.0
C2502 C 0.23758 0.97142 0.00052 0.0
C2503 C 0.25323 0.96457 0.0001 0.0
C2504 C 0.2075 0.97069 0.01127 0.0
C2505 C 0.20864 0.98927 0.01555 0.0
C2506 C 0.1907 0.95897 0.00936 0.0
C2507 C 0.18845 0.93943 0.00275 0.0
C2508 C 0.1953 0.9336 0.98612 0.0
C2509 C 0.19355 0.91521 0.98018 0.0
C2510 C 0.18485 0.90251 0.99069 0.0
C2511 C 0.17786 0.90815 0.00714 0.0
C2512 C 0.1796 0.92652 0.01315 0.0
C2513 C 0.14344 0.0128 0.03039 0.0
C2514 C 0.13989 0.00815 0.04844 0.0
C2515 C 0.15467 1.0041 0.02021 0.0
C2516 C 0.16244 0.99071 0.02802 0.0
C2517 C 0.15801 0.98526 0.04546 0.0
C2518 C 0.14686 0.99401 0.05569 0.0
C2519 C 0.17734 0.98441 0.01984 0.0
C2520 C 0.1758 0.96601 0.01403 0.0
C2521 C 0.19373 0.99628 0.01988 0.0
C2522 C 0.19605 0.01589 0.02561 0.0
C2523 C 0.19417 0.02257 0.04426 0.0
C2524 C 0.19619 0.04111 0.04942 0.0
C2525 C 0.20031 0.05307 0.0361 0.0
C2526 C 0.20245 0.04653 0.01761 0.0
C2527 C 0.20037 0.028 0.01236 0.0
H2528 H 0.20189 0.06742 0.04013 0.0
H2529 H 0.18352 0.88828 0.98609 0.0
H2530 H 0.72297 0.62801 0.98706 0.0
H2531 H 0.69561 0.60574 0.98813 0.0
H2532 H 0.67533 0.64488 0.02349 0.0
H2533 H 0.70213 0.66736 0.0217 0.0
H2534 H 0.67793 0.59869 0.02958 0.0
H2535 H 0.65364 0.64628 0.99512 0.0
H2536 H 0.65515 0.66476 0.96851 0.0
H2537 H 0.65041 0.61718 0.92905 0.0
H2538 H 0.64939 0.5985 0.95555 0.0
H2539 H 0.59092 0.55913 0.04392 0.0
H2540 H 0.6192 0.57848 0.04128 0.0
H2541 H 0.60893 0.56776 0.98001 0.0
H2542 H 0.5792 0.55079 0.98293 0.0
H2543 H 0.62383 0.59799 0.98491 0.0
H2544 H 0.64199 0.54922 0.01464 0.0
H2545 H 0.64233 0.52773 0.03844 0.0
H2546 H 0.661 0.57149 0.08279 0.0
H2547 H 0.66056 0.59324 0.0593 0.0
C2548 C 0.7126 0.63184 0.99496 0.0
C2549 C 0.71455 0.64947 0.00409 0.0
C2550 C 0.69703 0.61913 0.99559 0.0
C2551 C 0.68338 0.62373 0.00574 0.0
C2552 C 0.68558 0.64114 0.01535 0.0
C2553 C 0.70086 0.65397 0.01427 0.0
C2554 C 0.66666 0.61053 0.0062 0.0
C2555 C 0.66601 0.59849 0.01992 0.0
C2556 C 0.65139 0.60982 0.99312 0.0
C2557 C 0.65179 0.62107 0.97731 0.0
C2558 C 0.65321 0.63981 0.98081 0.0
C2559 C 0.65393 0.65031 0.96574 0.0
C2560 C 0.65297 0.64216 0.9471 0.0
C2561 C 0.65124 0.62349 0.94349 0.0
C2562 C 0.65063 0.61295 0.95853 0.0
C2563 C 0.59474 0.56102 0.0299 0.0
C2564 C 0.58286 0.5537 0.01362 0.0
C2565 C 0.61115 0.57185 0.02834 0.0
C2566 C 0.61686 0.57434 0.01042 0.0
C2567 C 0.60509 0.56632 0.99408 0.0
C2568 C 0.58811 0.55646 0.99569 0.0
C2569 C 0.63459 0.58592 0.0087 0.0
C2570 C 0.63558 0.59776 0.99463 0.0
C2571 C 0.65036 0.58597 0.02114 0.0
C2572 C 0.65116 0.57286 0.03521 0.0
C2573 C 0.64615 0.55425 0.02947 0.0
C2574 C 0.64634 0.54203 0.04291 0.0
C2575 C 0.65166 0.54824 0.06211 0.0
C2576 C 0.65689 0.56669 0.06791 0.0
C2577 C 0.65671 0.57897 0.05453 0.0
H2578 H 0.65175 0.53876 0.0725 0.0
H2579 H 0.65349 0.6503 0.93545 0.0
H2580 H 0.68795 0.51389 0.27477 0.0
H2581 H 0.70353 0.48859 0.27226 0.0
H2582 H 0.65639 0.45289 0.2834 0.0
H2583 H 0.64072 0.47837 0.28627 0.0
H2584 H 0.68611 0.44525 0.30265 0.0
H2585 H 0.66761 0.45306 0.23857 0.0
H2586 H 0.66382 0.46953 0.21074 0.0
H2587 H 0.72068 0.48425 0.21243 0.0
H2588 H 0.72481 0.46807 0.24045 0.0
H2589 H 0.71854 0.36608 0.26318 0.0
H2590 H 0.70183 0.38933 0.27372 0.0
H2591 H 0.74603 0.43058 0.26585 0.0
H2592 H 0.76252 0.40744 0.2553 0.0
H2593 H 0.71555 0.43363 0.245 0.0
H2594 H 0.73359 0.42535 0.3098 0.0
H2595 H 0.73657 0.40814 0.33718 0.0
H2596 H 0.67959 0.39286 0.33327 0.0
H2597 H 0.67627 0.4098 0.3057 0.0
C2598 C 0.68082 0.50066 0.2766 0.0
C2599 C 0.66301 0.49816 0.28054 0.0
C2600 C 0.68977 0.48616 0.27516 0.0
C2601 C 0.68112 0.46873 0.27743 0.0
C2602 C 0.66337 0.46618 0.28157 0.0
C2603 C 0.65439 0.48075 0.28307 0.0
C2604 C 0.69063 0.45325 0.27507 0.0
C2605 C 0.69234 0.44253 0.28994 0.0
C2606 C 0.69893 0.44974 0.25858 0.0
C2607 C 0.69651 0.45948 0.24172 0.0
C2608 C 0.6793 0.45993 0.2331 0.0
C2609 C 0.6771 0.46919 0.21727 0.0
C2610 C 0.692 0.47797 0.20985 0.0
C2611 C 0.70915 0.47746 0.21821 0.0
C2612 C 0.71143 0.46823 0.23406 0.0
C2613 C 0.72488 0.38011 0.26449 0.0
C2614 C 0.74181 0.38499 0.25853 0.0
C2615 C 0.71532 0.39341 0.2704 0.0
C2616 C 0.72261 0.41176 0.27044 0.0
C2617 C 0.74007 0.41655 0.26584 0.0
C2618 C 0.74955 0.40333 0.25995 0.0
C2619 C 0.71149 0.4259 0.27276 0.0
C2620 C 0.70934 0.43631 0.25775 0.0
C2621 C 0.70271 0.42894 0.28903 0.0
C2622 C 0.70469 0.41867 0.30553 0.0
C2623 C 0.7217 0.41817 0.31465 0.0
C2624 C 0.72345 0.4085 0.33024 0.0
C2625 C 0.70829 0.39937 0.33692 0.0
C2626 C 0.69133 0.39992 0.32806 0.0
C2627 C 0.68951 0.40956 0.31246 0.0
H2628 H 0.70967 0.3919 0.349 0.0
H2629 H 0.69026 0.48512 0.19759 0.0
H2630 H 0.86518 0.4209 0.49024 0.0
H2631 H 0.89375 0.44098 0.50052 0.0
H2632 H 0.86658 0.48238 0.52203 0.0
H2633 H 0.83787 0.46251 0.51171 0.0
H2634 H 0.895 0.49403 0.50026 0.0
H2635 H 0.88378 0.46016 0.55333 0.0
H2636 H 0.87517 0.43179 0.56707 0.0
H2637 H 0.91973 0.41217 0.54649 0.0
H2638 H 0.92847 0.44033 0.53242 0.0
H2639 H 0.98017 0.54262 0.53011 0.0
H2640 H 0.95044 0.5291 0.53732 0.0
H2641 H 0.96076 0.47623 0.51984 0.0
H2642 H 0.99047 0.48971 0.51321 0.0
H2643 H 0.93855 0.4746 0.54649 0.0
H2644 H 0.94512 0.50047 0.48732 0.0
H2645 H 0.95489 0.52547 0.46886 0.0
H2646 H 0.92032 0.55639 0.49531 0.0
H2647 H 0.91059 0.53165 0.5142 0.0
C2648 C 0.86524 0.43428 0.49709 0.0
C2649 C 0.84928 0.44004 0.50036 0.0
C2650 C 0.88154 0.44569 0.50299 0.0
C2651 C 0.8821 0.46293 0.51231 0.0
C2652 C 0.86627 0.46901 0.51499 0.0
C2653 C 0.84993 0.45762 0.5091 0.0
C2654 C 0.89937 0.4745 0.51932 0.0
C2655 C 0.90439 0.49013 0.51077 0.0
C2656 C 0.91159 0.46899 0.53267 0.0
C2657 C 0.90677 0.45236 0.54183 0.0
C2658 C 0.89173 0.44979 0.55173 0.0
C2659 C 0.88682 0.43374 0.55956 0.0
C2660 C 0.89689 0.42018 0.55766 0.0
C2661 C 0.91195 0.42269 0.54799 0.0
C2662 C 0.91692 0.43871 0.54013 0.0
C2663 C 0.97615 0.5281 0.52846 0.0
C2664 C 0.98723 0.51704 0.52112 0.0
C2665 C 0.95934 0.52042 0.53264 0.0
C2666 C 0.95342 0.50174 0.52881 0.0
C2667 C 0.96516 0.49067 0.52296 0.0
C2668 C 0.98203 0.49833 0.51906 0.0
C2669 C 0.93433 0.49394 0.52713 0.0
C2670 C 0.92894 0.47896 0.53659 0.0
C2671 C 0.92192 0.49966 0.51409 0.0
C2672 C 0.92729 0.51432 0.50232 0.0
C2673 C 0.93966 0.51263 0.48924 0.0
C2674 C 0.94521 0.52676 0.47872 0.0
C2675 C 0.93827 0.54254 0.48095 0.0
C2676 C 0.92571 0.54418 0.49364 0.0
C2677 C 0.92019 0.53012 0.50427 0.0
H2678 H 0.94259 0.55347 0.47281 0.0
H2679 H 0.89303 0.40774 0.56367 0.0
H2680 H 0.34076 0.04564 0.29107 0.0
H2681 H 0.32645 0.07183 0.28869 0.0
H2682 H 0.37655 0.10362 0.27894 0.0
H2683 H 0.39102 0.0778 0.28241 0.0
H2684 H 0.36091 0.12245 0.30232 0.0
H2685 H 0.3421 0.08401 0.24192 0.0
H2686 H 0.32784 0.05554 0.22233 0.0
H2687 H 0.27865 0.05792 0.24558 0.0
H2688 H 0.2927 0.08633 0.26542 0.0
H2689 H 0.33985 0.18949 0.24665 0.0
H2690 H 0.34977 0.1648 0.26161 0.0
H2691 H 0.29552 0.14363 0.27029 0.0
H2692 H 0.28536 0.16741 0.25427 0.0
H2693 H 0.30948 0.11897 0.25315 0.0
H2694 H 0.32777 0.16252 0.30728 0.0
H2695 H 0.34266 0.19154 0.32515 0.0
H2696 H 0.39369 0.18036 0.31356 0.0
H2697 H 0.3791 0.15156 0.29493 0.0
C2698 C 0.34858 0.05821 0.28824 0.0
C2699 C 0.36685 0.05983 0.28669 0.0
C2700 C 0.34047 0.07313 0.28698 0.0
C2701 C 0.35044 0.08959 0.2835 0.0
C2702 C 0.36867 0.09107 0.28177 0.0
C2703 C 0.37686 0.07632 0.28354 0.0
C2704 C 0.34194 0.10522 0.28093 0.0
C2705 C 0.3497 0.1218 0.29153 0.0
C2706 C 0.32695 0.1041 0.26734 0.0
C2707 C 0.31848 0.08716 0.25526 0.0
C2708 C 0.32827 0.0784 0.2429 0.0
C2709 C 0.32023 0.06229 0.23175 0.0
C2710 C 0.30237 0.0549 0.23275 0.0
C2711 C 0.29249 0.06364 0.24484 0.0
C2712 C 0.30048 0.07975 0.25602 0.0
C2713 C 0.33005 0.17954 0.25171 0.0
C2714 C 0.31183 0.18034 0.24918 0.0
C2715 C 0.33576 0.16565 0.26056 0.0
C2716 C 0.32336 0.15257 0.26725 0.0
C2717 C 0.30528 0.1537 0.26533 0.0
C2718 C 0.29953 0.16737 0.25625 0.0
C2719 C 0.32889 0.13647 0.27398 0.0
C2720 C 0.32047 0.11971 0.26423 0.0
C2721 C 0.3434 0.13755 0.28821 0.0
C2722 C 0.35227 0.15486 0.29956 0.0
C2723 C 0.34215 0.16629 0.30837 0.0
C2724 C 0.35056 0.18271 0.31868 0.0
C2725 C 0.36912 0.18776 0.32058 0.0
C2726 C 0.37932 0.17642 0.3121 0.0
C2727 C 0.37097 0.16005 0.30163 0.0
H2728 H 0.37559 0.20047 0.32861 0.0
H2729 H 0.29616 0.04242 0.22412 0.0
H2730 H 0.33316 0.17163 0.51573 0.0
H2731 H 0.35892 0.15662 0.51836 0.0
H2732 H 0.3235 0.10542 0.51637 0.0
H2733 H 0.29789 0.12041 0.51452 0.0
H2734 H 0.34957 0.10664 0.54189 0.0
H2735 H 0.346 0.12045 0.47715 0.0
H2736 H 0.34518 0.14012 0.45163 0.0
H2737 H 0.39671 0.17051 0.475 0.0
H2738 H 0.39775 0.15115 0.5008 0.0
H2739 H 0.40764 0.0479 0.52685 0.0
H2740 H 0.38478 0.06501 0.51695 0.0
H2741 H 0.42321 0.11448 0.53121 0.0
H2742 H 0.44616 0.09727 0.541 0.0
H2743 H 0.39706 0.11526 0.49936 0.0
H2744 H 0.40015 0.10118 0.56403 0.0
H2745 H 0.40113 0.08074 0.5888 0.0
H2746 H 0.34989 0.05026 0.56455 0.0
H2747 H 0.34874 0.07037 0.53945 0.0
C2748 C 0.3309 0.15719 0.51596 0.0
C2749 C 0.31346 0.14723 0.51497 0.0
C2750 C 0.34564 0.14857 0.51728 0.0
C2751 C 0.34324 0.12978 0.51725 0.0
C2752 C 0.3258 0.1199 0.51642 0.0
C2753 C 0.31112 0.12851 0.51537 0.0
C2754 C 0.35875 0.1203 0.51856 0.0
C2755 C 0.35976 0.1084 0.53236 0.0
C2756 C 0.37246 0.12285 0.50653 0.0
C2757 C 0.37187 0.13447 0.49102 0.0
C2758 C 0.3571 0.13141 0.47693 0.0
C2759 C 0.35661 0.14249 0.4624 0.0
C2760 C 0.37086 0.15658 0.46172 0.0
C2761 C 0.38567 0.1596 0.47555 0.0
C2762 C 0.38622 0.14857 0.49012 0.0
C2763 C 0.41137 0.06235 0.52703 0.0
C2764 C 0.42866 0.07129 0.53443 0.0
C2765 C 0.39829 0.07214 0.52154 0.0
C2766 C 0.40222 0.09105 0.52361 0.0
C2767 C 0.41989 0.09991 0.52946 0.0
C2768 C 0.43301 0.09009 0.53495 0.0
C2769 C 0.38749 0.10144 0.52234 0.0
C2770 C 0.38674 0.11354 0.50874 0.0
C2771 C 0.37393 0.09907 0.53447 0.0
C2772 C 0.37443 0.08718 0.54977 0.0
C2773 C 0.38915 0.09005 0.56391 0.0
C2774 C 0.38973 0.07854 0.57802 0.0
C2775 C 0.3756 0.06419 0.57822 0.0
C2776 C 0.36084 0.06137 0.56436 0.0
C2777 C 0.3602 0.07283 0.5502 0.0
H2778 H 0.37609 0.05528 0.58914 0.0
H2779 H 0.37045 0.16514 0.45046 0.0
H2780 H 0.64225 0.61572 0.29106 0.0
H2781 H 0.66464 0.64246 0.28905 0.0
H2782 H 0.70597 0.61077 0.29231 0.0
H2783 H 0.68363 0.58386 0.29429 0.0
H2784 H 0.71606 0.64312 0.31513 0.0
H2785 H 0.69161 0.62321 0.25025 0.0
H2786 H 0.6684 0.6141 0.22283 0.0
H2787 H 0.65228 0.66533 0.23127 0.0
H2788 H 0.67526 0.67465 0.25893 0.0
H2789 H 0.77542 0.7117 0.26819 0.0
H2790 H 0.7561 0.68281 0.27083 0.0
H2791 H 0.72213 0.7106 0.30256 0.0
H2792 H 0.74151 0.73931 0.30063 0.0
H2793 H 0.71041 0.67915 0.26111 0.0
H2794 H 0.72922 0.69433 0.33125 0.0
H2795 H 0.75342 0.70458 0.35766 0.0
H2796 H 0.78072 0.66308 0.33753 0.0
H2797 H 0.75671 0.65274 0.31086 0.0
C2798 C 0.6561 0.61439 0.29145 0.0
C2799 C 0.66106 0.59753 0.29283 0.0
C2800 C 0.6689 0.62972 0.29018 0.0
C2801 C 0.68702 0.62866 0.29032 0.0
C2802 C 0.69209 0.61197 0.29212 0.0
C2803 C 0.67926 0.59656 0.29321 0.0
C2804 C 0.7006 0.64499 0.28862 0.0
C2805 C 0.71484 0.65083 0.30319 0.0
C2806 C 0.69911 0.65529 0.27315 0.0
C2807 C 0.68503 0.64955 0.25679 0.0
C2808 C 0.68298 0.63245 0.24639 0.0
C2809 C 0.66989 0.62727 0.23077 0.0
C2810 C 0.65882 0.63912 0.22534 0.0
C2811 C 0.66083 0.65616 0.23551 0.0
C2812 C 0.67389 0.6614 0.25116 0.0
C2813 C 0.76405 0.71166 0.27605 0.0
C2814 C 0.76017 0.72792 0.28431 0.0
C2815 C 0.75297 0.69513 0.27746 0.0
C2816 C 0.73777 0.69458 0.28702 0.0
C2817 C 0.7339 0.71071 0.29529 0.0
C2818 C 0.74503 0.72715 0.29411 0.0
C2819 C 0.72542 0.67729 0.28773 0.0
C2820 C 0.71152 0.67129 0.27295 0.0
C2821 C 0.72709 0.66694 0.30299 0.0
C2822 C 0.74134 0.67291 0.31904 0.0
C2823 C 0.74046 0.68749 0.33241 0.0
C2824 C 0.75411 0.6933 0.34742 0.0
C2825 C 0.76862 0.68452 0.34924 0.0
C2826 C 0.76948 0.66988 0.33608 0.0
C2827 C 0.75587 0.66404 0.32102 0.0
H2828 H 0.77918 0.68903 0.36087 0.0
H2829 H 0.64871 0.63516 0.21322 0.0
H2830 H 0.89696 0.44804 0.78367 0.0
H2831 H 0.87528 0.41983 0.77528 0.0
H2832 H 0.83352 0.44625 0.79362 0.0
H2833 H 0.85496 0.4746 0.80164 0.0
H2834 H 0.83979 0.41171 0.80946 0.0
H2835 H 0.82688 0.438 0.75246 0.0
H2836 H 0.83402 0.45352 0.72459 0.0
H2837 H 0.85899 0.41044 0.70373 0.0
H2838 H 0.85206 0.39469 0.73152 0.0
H2839 H 0.76962 0.33771 0.7757 0.0
H2840 H 0.78474 0.36812 0.77164 0.0
H2841 H 0.83453 0.3494 0.77032 0.0
H2842 H 0.81975 0.31948 0.7758 0.0
H2843 H 0.82053 0.38159 0.74363 0.0
H2844 H 0.8425 0.36291 0.80701 0.0
H2845 H 0.83613 0.34766 0.83532 0.0
H2846 H 0.79378 0.37672 0.84352 0.0
H2847 H 0.79982 0.39198 0.81509 0.0
C2848 C 0.88317 0.44779 0.78595 0.0
C2849 C 0.87757 0.46338 0.79331 0.0
C2850 C 0.87084 0.4318 0.78098 0.0
C2851 C 0.85292 0.43125 0.78364 0.0
C2852 C 0.84733 0.44666 0.79131 0.0
C2853 C 0.85956 0.46272 0.79592 0.0
C2854 C 0.84031 0.41414 0.7796 0.0
C2855 C 0.83531 0.40528 0.79507 0.0
C2856 C 0.83476 0.40582 0.76082 0.0
C2857 C 0.83909 0.41525 0.74415 0.0
C2858 C 0.83404 0.43191 0.74201 0.0
C2859 C 0.83798 0.44072 0.72619 0.0
C2860 C 0.84693 0.43297 0.71238 0.0
C2861 C 0.85199 0.4164 0.71438 0.0
C2862 C 0.84803 0.40751 0.73016 0.0
C2863 C 0.78367 0.34005 0.77388 0.0
C2864 C 0.79355 0.3263 0.77536 0.0
C2865 C 0.79219 0.35726 0.77141 0.0
C2866 C 0.81057 0.3607 0.77036 0.0
C2867 C 0.82021 0.34671 0.77058 0.0
C2868 C 0.81176 0.32961 0.77347 0.0
C2869 C 0.82031 0.37925 0.77349 0.0
C2870 C 0.82479 0.38826 0.75795 0.0
C2871 C 0.82547 0.38781 0.79219 0.0
C2872 C 0.82152 0.37845 0.80896 0.0
C2873 C 0.83174 0.36591 0.81479 0.0
C2874 C 0.82821 0.3573 0.83084 0.0
C2875 C 0.8146 0.36127 0.84123 0.0
C2876 C 0.80434 0.3737 0.83546 0.0
C2877 C 0.8078 0.38232 0.81939 0.0
H2878 H 0.81209 0.35484 0.85383 0.0
H2879 H 0.84988 0.43977 0.7001 0.0
H2880 H 0.06693 0.85742 0.12223 0.0
H2881 H 0.0641 0.88586 0.11007 0.0
H2882 H 0.04291 0.85721 0.05497 0.0
H2883 H 0.04692 0.82875 0.06697 0.0
H2884 H 0.05933 0.88626 0.04735 0.0
H2885 H 0.01714 0.87818 0.0925 0.0
H2886 H 1.00679 0.87299 0.12355 0.0
H2887 H 0.04268 0.92088 0.14991 0.0
H2888 H 0.05339 0.92624 0.11904 0.0
H2889 H 0.02786 0.96275 0.01351 0.0
H2890 H 0.03043 0.93372 0.02439 0.0
H2891 H 0.05429 0.96067 0.07941 0.0
H2892 H 0.05045 0.98961 0.06889 0.0
H2893 H 0.03556 0.93203 0.08644 0.0
H2894 H 0.07754 0.93944 0.0399 0.0
H2895 H 0.08627 0.94424 0.00809 0.0
H2896 H 0.04851 0.89696 0.9835 0.0
H2897 H 0.03945 0.89198 0.01514 0.0
C2898 C 0.06176 0.85709 0.10746 0.0
C2899 C 0.05718 0.84044 0.09575 0.0
C2900 C 0.05986 0.87358 0.10045 0.0
C2901 C 0.05262 0.87427 0.08149 0.0
C2902 C 0.04842 0.85761 0.06964 0.0
C2903 C 0.05073 0.8411 0.07657 0.0
C2904 C 0.04957 0.89214 0.07414 0.0
C2905 C 0.0539 0.89605 0.05596 0.0
C2906 C 0.04269 0.90562 0.08498 0.0
C2907 C 0.03617 0.90252 0.1035 0.0
C2908 C 0.02288 0.88755 0.10494 0.0
C2909 C 0.01695 0.88458 0.1225 0.0
C2910 C 0.0241 0.89657 0.1387 0.0
C2911 C 0.03717 0.91159 0.13735 0.0
C2912 C 0.04316 0.91462 0.11983 0.0
C2913 C 0.03338 0.96261 0.02803 0.0
C2914 C 0.03863 0.97896 0.04021 0.0
C2915 C 0.03523 0.94575 0.03426 0.0
C2916 C 0.043 0.94439 0.05286 0.0
C2917 C 0.04826 0.96077 0.06502 0.0
C2918 C 0.04613 0.97758 0.05887 0.0
C2919 C 0.0455 0.92622 0.05977 0.0
C2920 C 0.04104 0.92224 0.07787 0.0
C2921 C 0.05205 0.91262 0.04877 0.0
C2922 C 0.05773 0.91543 0.02984 0.0
C2923 C 0.07107 0.9301 0.02769 0.0
C2924 C 0.07607 0.93285 0.0097 0.0
C2925 C 0.06792 0.92093 0.99378 0.0
C2926 C 0.0548 0.90619 0.99583 0.0
C2927 C 0.04975 0.90338 0.01379 0.0
H2928 H 0.07179 0.9231 0.97986 0.0
H2929 H 0.01951 0.89425 0.15229 0.0
H2930 H 0.96878 0.27178 0.88473 0.0
H2931 H 0.9424 0.27236 0.86223 0.0
H2932 H 0.90917 0.26657 0.90738 0.0
H2933 H 0.93528 0.26609 0.9298 0.0
H2934 H 0.89298 0.2451 0.87501 0.0
H2935 H 0.92254 0.30769 0.8908 0.0
H2936 H 0.94806 0.33287 0.89269 0.0
H2937 H 0.94888 0.32343 0.83236 0.0
H2938 H 0.92351 0.29804 0.83016 0.0
H2939 H 0.8126 0.26452 0.8302 0.0
H2940 H 0.83927 0.26311 0.85122 0.0
H2941 H 0.87217 0.28588 0.81062 0.0
H2942 H 0.84562 0.28971 0.79106 0.0
H2943 H 0.88963 0.29777 0.83989 0.0
H2944 H 0.862 0.23597 0.82196 0.0
H2945 H 0.83782 0.20928 0.81781 0.0
H2946 H 0.83509 0.21425 0.878 0.0
H2947 H 0.85913 0.24109 0.88248 0.0
C2948 C 0.95585 0.27051 0.88988 0.0
C2949 C 0.95438 0.26892 0.90927 0.0
C2950 C 0.9407 0.27095 0.87695 0.0
C2951 C 0.92356 0.26967 0.88296 0.0
C2952 C 0.92206 0.26761 0.90218 0.0
C2953 C 0.93716 0.26738 0.91509 0.0
C2954 C 0.9072 0.27073 0.86955 0.0
C2955 C 0.89222 0.25669 0.86743 0.0
C2956 C 0.90613 0.28549 0.85901 0.0
C2957 C 0.92124 0.30087 0.86035 0.0
C2958 C 0.92824 0.31092 0.87796 0.0
C2959 C 0.94266 0.32524 0.87908 0.0
C2960 C 0.95011 0.32972 0.86266 0.0
C2961 C 0.94312 0.31993 0.84507 0.0
C2962 C 0.92871 0.30559 0.84388 0.0
C2963 C 0.82549 0.26934 0.82572 0.0
C2964 C 0.8266 0.27685 0.80841 0.0
C2965 C 0.84096 0.26822 0.83773 0.0
C2966 C 0.85825 0.27369 0.83254 0.0
C2967 C 0.85931 0.2813 0.81529 0.0
C2968 C 0.84387 0.28314 0.8037 0.0
C2969 C 0.87513 0.272 0.84508 0.0
C2970 C 0.89026 0.28599 0.84718 0.0
C2971 C 0.87653 0.25689 0.85515 0.0
C2972 C 0.86225 0.24063 0.85253 0.0
C2973 C 0.85619 0.2314 0.8343 0.0
C2974 C 0.84251 0.21625 0.83189 0.0
C2975 C 0.83489 0.2101 0.84762 0.0
C2976 C 0.84099 0.21904 0.86582 0.0
C2977 C 0.85466 0.23421 0.8683 0.0
H2978 H 0.82429 0.19839 0.84573 0.0
H2979 H 0.96128 0.34081 0.86356 0.0
H2980 H 0.57476 0.24008 0.56458 0.0
H2981 H 0.57114 0.20773 0.55672 0.0
H2982 H 0.53199 0.19939 0.59588 0.0
H2983 H 0.53602 0.23225 0.60438 0.0
H2984 H 0.55081 0.17398 0.59835 0.0
H2985 H 0.52167 0.19366 0.54402 0.0
H2986 H 0.51842 0.212 0.51762 0.0
H2987 H 0.56227 0.19363 0.49395 0.0
H2988 H 0.56592 0.17534 0.52034 0.0
H2989 H 0.52148 0.08081 0.56269 0.0
H2990 H 0.52422 0.11301 0.5718 0.0
H2991 H 0.5636 0.12397 0.53328 0.0
H2992 H 0.56014 0.09159 0.52336 0.0
H2993 H 0.54371 0.14792 0.53081 0.0
H2994 H 0.57268 0.12821 0.58583 0.0
H2995 H 0.57488 0.10932 0.61191 0.0
H2996 H 0.53018 0.12734 0.63405 0.0
H2997 H 0.52758 0.14616 0.60795 0.0
C2998 C 0.56524 0.23154 0.57159 0.0
C2999 C 0.55559 0.23925 0.58511 0.0
C3000 C 0.56308 0.21274 0.5669 0.0
C3001 C 0.55092 0.20057 0.57519 0.0
C3002 C 0.54142 0.20815 0.58899 0.0
C3003 C 0.54369 0.22711 0.59385 0.0
C3004 C 0.54841 0.18019 0.56948 0.0
C3005 C 0.54899 0.16837 0.58354 0.0
C3006 C 0.54636 0.17233 0.55017 0.0
C3007 C 0.54417 0.18326 0.53425 0.0
C3008 C 0.53069 0.19362 0.53325 0.0
C3009 C 0.52877 0.20399 0.51827 0.0
C3010 C 0.54016 0.20401 0.50414 0.0
C3011 C 0.55347 0.19362 0.50492 0.0
C3012 C 0.55546 0.18323 0.51986 0.0
C3013 C 0.53086 0.08994 0.55612 0.0
C3014 C 0.54086 0.08311 0.54239 0.0
C3015 C 0.53254 0.10862 0.56155 0.0
C3016 C 0.54448 0.12146 0.55374 0.0
C3017 C 0.55437 0.1147 0.53987 0.0
C3018 C 0.55258 0.09595 0.53431 0.0
C3019 C 0.54629 0.14173 0.55966 0.0
C3020 C 0.54555 0.15353 0.54562 0.0
C3021 C 0.54811 0.14954 0.57898 0.0
C3022 C 0.54985 0.13848 0.59485 0.0
C3023 C 0.56328 0.12808 0.59621 0.0
C3024 C 0.5646 0.11739 0.611 0.0
C3025 C 0.55266 0.1171 0.6246 0.0
C3026 C 0.53941 0.12756 0.62349 0.0
C3027 C 0.53802 0.13826 0.60872 0.0
H3028 H 0.55368 0.1088 0.63603 0.0
H3029 H 0.53865 0.21206 0.49256 0.0
H3030 H 0.57165 0.7884 0.42903 0.0
H3031 H 0.59856 0.79102 0.4127 0.0
H3032 H 0.57033 0.75163 0.36718 0.0
H3033 H 0.54328 0.74927 0.38321 0.0
H3034 H 0.60559 0.74609 0.37972 0.0
H3035 H 0.57621 0.7934 0.35968 0.0
H3036 H 0.56266 0.82034 0.36449 0.0
H3037 H 0.61209 0.85013 0.39435 0.0
H3038 H 0.62587 0.82325 0.38994 0.0
H3039 H 0.65525 0.75729 0.30213 0.0
H3040 H 0.63333 0.7548 0.32476 0.0
H3041 H 0.66536 0.80018 0.36101 0.0
H3042 H 0.68746 0.8028 0.33804 0.0
H3043 H 0.63057 0.80371 0.35667 0.0
H3044 H 0.66103 0.75797 0.37494 0.0
H3045 H 0.6752 0.73138 0.37083 0.0
H3046 H 0.62502 0.69906 0.34592 0.0
H3047 H 0.61058 0.72552 0.34967 0.0
C3048 C 0.57119 0.78017 0.41562 0.0
C3049 C 0.55524 0.76858 0.40749 0.0
C3050 C 0.5866 0.78175 0.40623 0.0
C3051 C 0.58656 0.77158 0.38861 0.0
C3052 C 0.57079 0.75963 0.38074 0.0
C3053 C 0.55528 0.7583 0.38993 0.0
C3054 C 0.60277 0.77358 0.3782 0.0
C3055 C 0.61094 0.75865 0.37454 0.0
C3056 C 0.61026 0.79012 0.37195 0.0
C3057 C 0.602 0.80625 0.3747 0.0
C3058 C 0.58413 0.80564 0.36745 0.0
C3059 C 0.57643 0.82091 0.37006 0.0
C3060 C 0.58649 0.83692 0.37978 0.0
C3061 C 0.6043 0.8377 0.38686 0.0
C3062 C 0.61207 0.82246 0.3843 0.0
C3063 C 0.6578 0.7666 0.31505 0.0
C3064 C 0.67318 0.7802 0.31826 0.0
C3065 C 0.64523 0.76513 0.32807 0.0
C3066 C 0.64757 0.77722 0.34478 0.0
C3067 C 0.66315 0.79064 0.34828 0.0
C3068 C 0.67589 0.79203 0.33524 0.0
C3069 C 0.63328 0.77611 0.35789 0.0
C3070 C 0.6254 0.79119 0.36203 0.0
C3071 C 0.62617 0.75976 0.36476 0.0
C3072 C 0.63475 0.74377 0.36246 0.0
C3073 C 0.65304 0.74522 0.36845 0.0
C3074 C 0.66111 0.73017 0.36621 0.0
C3075 C 0.65102 0.71355 0.35808 0.0
C3076 C 0.63282 0.71194 0.35221 0.0
C3077 C 0.62468 0.72696 0.35442 0.0
H3078 H 0.6573 0.7019 0.35636 0.0
H3079 H 0.5805 0.84873 0.38177 0.0
H3080 H 0.06259 0.2539 0.38043 0.0
H3081 H 0.06336 0.22519 0.39393 0.0
H3082 H 0.01477 0.22942 0.41815 0.0
H3083 H 0.01382 0.25742 0.40479 0.0
H3084 H 0.04202 0.22483 0.44493 0.0
H3085 H 0.01439 0.19899 0.38133 0.0
H3086 H 0.01365 0.19331 0.34653 0.0
H3087 H 0.0607 0.17016 0.35362 0.0
H3088 H 0.06185 0.17594 0.38849 0.0
H3089 H 1.00007 0.14557 0.47584 0.0
H3090 H 0.00944 0.17202 0.45995 0.0
H3091 H 0.05284 0.14897 0.44046 0.0
H3092 H 0.04321 0.12206 0.45631 0.0
H3093 H 0.03588 0.16321 0.4117 0.0
H3094 H 0.06147 0.18494 0.47483 0.0
H3095 H 0.06318 0.19078 0.5097 0.0
H3096 H 0.02211 0.22229 0.504 0.0
H3097 H 0.01996 0.21643 0.46909 0.0
C3098 C 0.0519 0.24844 0.38826 0.0
C3099 C 0.03826 0.25813 0.39168 0.0
C3100 C 0.05238 0.23208 0.39607 0.0
C3101 C 0.03923 0.22522 0.40736 0.0
C3102 C 0.02521 0.23446 0.40979 0.0
C3103 C 0.02469 0.25055 0.40205 0.0
C3104 C 0.04011 0.2091 0.41773 0.0
C3105 C 0.04066 0.21136 0.43763 0.0
C3106 C 0.03903 0.19154 0.40841 0.0
C3107 C 0.03835 0.18813 0.38749 0.0
C3108 C 0.02468 0.19287 0.37546 0.0
C3109 C 0.02416 0.18958 0.35573 0.0
C3110 C 0.03716 0.18144 0.34787 0.0
C3111 C 0.05067 0.17651 0.35973 0.0
C3112 C 0.05126 0.17978 0.37947 0.0
C3113 C 0.0117 0.14613 0.4683 0.0
C3114 C 0.02086 0.13163 0.46736 0.0
C3115 C 0.01713 0.16136 0.45926 0.0
C3116 C 0.03196 0.16269 0.44902 0.0
C3117 C 0.04136 0.14835 0.44825 0.0
C3118 C 0.03596 0.13304 0.45747 0.0
C3119 C 0.03705 0.17891 0.43886 0.0
C3120 C 0.03762 0.1767 0.41907 0.0
C3121 C 0.03933 0.19663 0.44829 0.0
C3122 C 0.04049 0.20014 0.46931 0.0
C3123 C 0.0527 0.193 0.481 0.0
C3124 C 0.05377 0.19634 0.50078 0.0
C3125 C 0.04274 0.20688 0.50906 0.0
C3126 C 0.03064 0.21413 0.49757 0.0
C3127 C 0.02951 0.21082 0.47778 0.0
H3128 H 0.04359 0.20946 0.52437 0.0
H3129 H 0.03673 0.17891 0.33259 0.0
H3130 H 0.58705 0.24957 0.17416 0.0
H3131 H 0.61702 0.25069 0.1893 0.0
H3132 H 0.60308 0.27459 0.24176 0.0
H3133 H 0.57249 0.27375 0.22621 0.0
H3134 H 0.63602 0.29127 0.23709 0.0
H3135 H 0.61092 0.22978 0.23554 0.0
H3136 H 0.59438 0.19949 0.22262 0.0
H3137 H 0.63174 0.19534 0.18211 0.0
H3138 H 0.64838 0.22572 0.1946 0.0
H3139 H 0.71992 0.26594 0.2826 0.0
H3140 H 0.68762 0.26372 0.27355 0.0
H3141 H 0.69725 0.27247 0.2164 0.0
H3142 H 0.72943 0.27541 0.22547 0.0
H3143 H 0.66585 0.2388 0.22774 0.0
H3144 H 0.6891 0.3037 0.23015 0.0
H3145 H 0.70527 0.3329 0.2467 0.0
H3146 H 0.6702 0.3289 0.2901 0.0
H3147 H 0.65411 0.29942 0.27404 0.0
C3148 C 0.5901 0.25495 0.18903 0.0
C3149 C 0.57692 0.26148 0.1988 0.0
C3150 C 0.60749 0.25549 0.1978 0.0
C3151 C 0.61278 0.26253 0.21695 0.0
C3152 C 0.59966 0.26899 0.227 0.0
C3153 C 0.58197 0.26833 0.21813 0.0
C3154 C 0.63203 0.26332 0.22581 0.0
C3155 C 0.64233 0.27964 0.2352 0.0
C3156 C 0.64084 0.24834 0.22364 0.0
C3157 C 0.63081 0.23012 0.21591 0.0
C3158 C 0.61552 0.22248 0.22377 0.0
C3159 C 0.60614 0.20527 0.21654 0.0
C3160 C 0.61198 0.19551 0.20152 0.0
C3161 C 0.62722 0.20293 0.19372 0.0
C3162 C 0.63665 0.22014 0.20089 0.0
C3163 C 0.7152 0.2674 0.26809 0.0
C3164 C 0.72758 0.271 0.25487 0.0
C3165 C 0.69662 0.26618 0.26291 0.0
C3166 C 0.68969 0.26811 0.24424 0.0
C3167 C 0.70199 0.2711 0.23093 0.0
C3168 C 0.72054 0.27278 0.23619 0.0
C3169 C 0.66978 0.26679 0.23842 0.0
C3170 C 0.65941 0.25035 0.22964 0.0
C3171 C 0.66088 0.28153 0.24145 0.0
C3172 C 0.67063 0.29919 0.25109 0.0
C3173 C 0.68503 0.30888 0.24339 0.0
C3174 C 0.69414 0.32553 0.25265 0.0
C3175 C 0.68882 0.33271 0.2695 0.0
C3176 C 0.67436 0.32329 0.2771 0.0
C3177 C 0.66526 0.3066 0.26793 0.0
H3178 H 0.69583 0.34561 0.27666 0.0
H3179 H 0.6047 0.18219 0.19596 0.0
H3180 H 0.53641 0.84013 0.91319 0.0
H3181 H 0.53337 0.86787 0.93191 0.0
H3182 H 0.54951 0.89819 0.88646 0.0
H3183 H 0.55273 0.87027 0.86762 0.0
H3184 H 0.56578 0.91567 0.91988 0.0
H3185 H 0.5053 0.88924 0.89641 0.0
H3186 H 0.4787 0.86502 0.89037 0.0
H3187 H 0.47798 0.86357 0.95042 0.0
H3188 H 0.50478 0.88758 0.95683 0.0
H3189 H 0.54564 0.99768 0.963 0.0
H3190 H 0.54753 0.97107 0.94167 0.0
H3191 H 0.52313 0.93696 0.98051 0.0
H3192 H 0.51972 0.96346 0.00092 0.0
H3193 H 0.51066 0.92154 0.9488 0.0
H3194 H 0.57224 0.94704 0.97227 0.0
H3195 H 0.59979 0.97006 0.97795 0.0
H3196 H 0.59902 0.97259 0.91788 0.0
H3197 H 0.57129 0.9498 0.91188 0.0
C3198 C 0.53923 0.85265 0.90705 0.0
C3199 C 0.54475 0.8528 0.88874 0.0
C3200 C 0.5374 0.86862 0.91782 0.0
C3201 C 0.54096 0.88536 0.91069 0.0
C3202 C 0.54659 0.88558 0.89243 0.0
C3203 C 0.54837 0.86954 0.88157 0.0
C3204 C 0.53908 0.90251 0.92242 0.0
C3205 C 0.55361 0.91702 0.92597 0.0
C3206 C 0.52341 0.90438 0.93088 0.0
C3207 C 0.50715 0.89012 0.92709 0.0
C3208 C 0.49954 0.88368 0.90833 0.0
C3209 C 0.48442 0.86999 0.90484 0.0
C3210 C 0.47668 0.86274 0.92 0.0
C3211 C 0.48401 0.86919 0.93869 0.0
C3212 C 0.49916 0.88285 0.94226 0.0
C3213 C 0.54057 0.98453 0.96703 0.0
C3214 C 0.53264 0.98302 0.984 0.0
C3215 C 0.5419 0.96914 0.95482 0.0
C3216 C 0.53593 0.95159 0.95941 0.0
C3217 C 0.52799 0.9501 0.97636 0.0
C3218 C 0.52624 0.96546 0.98829 0.0
C3219 C 0.53752 0.93481 0.9466 0.0
C3220 C 0.52288 0.9203 0.94279 0.0
C3221 C 0.55315 0.93291 0.93795 0.0
C3222 C 0.56962 0.94684 0.94165 0.0
C3223 C 0.57787 0.95262 0.9603 0.0
C3224 C 0.59354 0.96562 0.96356 0.0
C3225 C 0.60116 0.97277 0.94826 0.0
C3226 C 0.59309 0.96703 0.9297 0.0
C3227 C 0.57741 0.95409 0.92636 0.0
H3228 H 0.61335 0.98271 0.95069 0.0
H3229 H 0.46497 0.85214 0.91727 0.0
H3230 H 0.95552 0.73718 0.67856 0.0
H3231 H 0.92675 0.73875 0.6899 0.0
H3232 H 0.9537 0.77266 0.74026 0.0
H3233 H 0.98256 0.7694 0.72964 0.0
H3234 H 0.92754 0.75805 0.75204 0.0
H3235 H 0.92624 0.78514 0.6935 0.0
H3236 H 0.92795 0.7865 0.65922 0.0
H3237 H 0.88519 0.74077 0.64593 0.0
H3238 H 0.88334 0.73905 0.68012 0.0
H3239 H 0.84824 0.78655 0.77876 0.0
H3240 H 0.87689 0.78451 0.76775 0.0
H3241 H 0.85017 0.74752 0.71949 0.0
H3242 H 0.8213 0.75154 0.72938 0.0
H3243 H 0.87612 0.76393 0.70678 0.0
H3244 H 0.87797 0.73809 0.7669 0.0
H3245 H 0.87615 0.73917 0.80141 0.0
H3246 H 0.91831 0.78561 0.81179 0.0
H3247 H 0.92028 0.78488 0.77736 0.0
C3248 C 0.95538 0.74479 0.6922 0.0
C3249 C 0.97171 0.75299 0.70312 0.0
C3250 C 0.93864 0.74606 0.69865 0.0
C3251 C 0.93722 0.75652 0.71588 0.0
C3252 C 0.95369 0.7645 0.72692 0.0
C3253 C 0.97047 0.76262 0.7208 0.0
C3254 C 0.91897 0.759 0.72246 0.0
C3255 C 0.91651 0.75957 0.74195 0.0
C3256 C 0.90377 0.76076 0.70988 0.0
C3257 C 0.90478 0.76188 0.68935 0.0
C3258 C 0.91726 0.77535 0.68326 0.0
C3259 C 0.91824 0.77618 0.66385 0.0
C3260 C 0.90672 0.7637 0.65041 0.0
C3261 C 0.89413 0.75041 0.65635 0.0
C3262 C 0.89309 0.74951 0.67573 0.0
C3263 C 0.84828 0.77831 0.76555 0.0
C3264 C 0.83192 0.76957 0.755 0.0
C3265 C 0.86503 0.77666 0.75939 0.0
C3266 C 0.8665 0.76531 0.74281 0.0
C3267 C 0.85009 0.75639 0.73233 0.0
C3268 C 0.83329 0.75856 0.73818 0.0
C3269 C 0.88475 0.76291 0.73627 0.0
C3270 C 0.88719 0.76238 0.71681 0.0
C3271 C 0.9 0.76145 0.74889 0.0
C3272 C 0.8992 0.76147 0.76958 0.0
C3273 C 0.88685 0.74851 0.77656 0.0
C3274 C 0.88578 0.74908 0.7961 0.0
C3275 C 0.89709 0.76247 0.80878 0.0
C3276 C 0.90956 0.77525 0.80196 0.0
C3277 C 0.91069 0.77474 0.78245 0.0
H3278 H 0.89619 0.76292 0.82388 0.0
H3279 H 0.90752 0.76435 0.6354 0.0
H3280 H 0.1032 0.0575 0.83024 0.0
H3281 H 0.08967 0.05574 0.86017 0.0
H3282 H 0.12335 0.01897 0.87723 0.0
H3283 H 0.1375 0.02139 0.84796 0.0
H3284 H 0.07703 0.01334 0.87675 0.0
H3285 H 0.13818 0.04381 0.90271 0.0
H3286 H 0.1647 0.06765 0.90353 0.0
H3287 H 0.13261 0.10804 0.9118 0.0
H3288 H 0.1058 0.08435 0.91054 0.0
H3289 H 0.07102 0.00752 0.97866 0.0
H3290 H 0.08479 0.00983 0.94893 0.0
H3291 H 0.05794 0.05342 0.93697 0.0
H3292 H 0.04367 0.05072 0.96614 0.0
H3293 H 0.10063 0.0559 0.93481 0.0
H3294 H 0.04002 0.02565 0.91147 0.0
H3295 H 0.0133 1.00203 0.91057 0.0
H3296 H 0.04402 0.96135 0.8975 0.0
H3297 H 0.07103 0.98476 0.89872 0.0
C3298 C 0.10781 0.04919 0.84049 0.0
C3299 C 0.12154 0.03975 0.83686 0.0
C3300 C 0.10007 0.04817 0.85754 0.0
C3301 C 0.10561 0.03733 0.87102 0.0
C3302 C 0.11904 0.0276 0.86719 0.0
C3303 C 0.12714 0.02904 0.85047 0.0
C3304 C 0.09731 0.036 0.88901 0.0
C3305 C 0.08228 0.02255 0.88948 0.0
C3306 C 0.10397 0.04812 0.90559 0.0
C3307 C 0.11996 0.06234 0.9061 0.0
C3308 C 0.13673 0.05777 0.90433 0.0
C3309 C 0.15182 0.07124 0.90496 0.0
C3310 C 0.15032 0.08935 0.90759 0.0
C3311 C 0.13373 0.09401 0.90965 0.0
C3312 C 0.11858 0.08056 0.90894 0.0
C3313 C 0.06812 0.0176 0.96968 0.0
C3314 C 0.05622 0.02888 0.97466 0.0
C3315 C 0.07593 0.01888 0.95271 0.0
C3316 C 0.07231 0.03175 0.94069 0.0
C3317 C 0.06085 0.04335 0.94596 0.0
C3318 C 0.05268 0.04175 0.9626 0.0
C3319 C 0.08046 0.03313 0.92262 0.0
C3320 C 0.0954 0.04664 0.92211 0.0
C3321 C 0.07373 0.02103 0.90603 0.0
C3322 C 0.0576 0.00693 0.90551 0.0
C3323 C 0.04114 0.01166 0.9087 0.0
C3324 C 0.02593 0.99832 0.90804 0.0
C3325 C 0.02697 0.9802 0.90401 0.0
C3326 C 0.04324 0.97539 0.90065 0.0
C3327 C 0.05851 0.98869 0.90133 0.0
H3328 H 0.01518 0.96989 0.90349 0.0
H3329 H 0.16204 0.09977 0.90814 0.0
H3330 H 0.7922 0.36339 0.53136 0.0
H3331 H 0.78909 0.35434 0.56283 0.0
H3332 H 0.78314 0.40796 0.58357 0.0
H3333 H 0.78634 0.4173 0.55194 0.0
H3334 H 0.80905 0.39499 0.6054 0.0
H3335 H 0.74814 0.37597 0.58245 0.0
H3336 H 0.72266 0.36233 0.55852 0.0
H3337 H 0.73829 0.31086 0.55924 0.0
H3338 H 0.76405 0.32423 0.58296 0.0
H3339 H 0.81279 0.35154 0.68932 0.0
H3340 H 0.79974 0.36823 0.6657 0.0
H3341 H 0.79968 0.32473 0.62191 0.0
H3342 H 0.81204 0.30765 0.64556 0.0
H3343 H 0.76941 0.33907 0.61711 0.0
H3344 H 0.834 0.36036 0.63059 0.0
H3345 H 0.86159 0.3736 0.6518 0.0
H3346 H 0.83976 0.42052 0.66722 0.0
H3347 H 0.81192 0.4074 0.64628 0.0
C3348 C 0.79001 0.37325 0.54249 0.0
C3349 C 0.78961 0.39108 0.53915 0.0
C3350 C 0.7881 0.36801 0.56045 0.0
C3351 C 0.78566 0.38045 0.57539 0.0
C3352 C 0.78487 0.39818 0.57211 0.0
C3353 C 0.78669 0.40344 0.55405 0.0
C3354 C 0.78568 0.37499 0.59467 0.0
C3355 C 0.80001 0.38315 0.6083 0.0
C3356 C 0.77394 0.35948 0.59825 0.0
C3357 C 0.75804 0.35113 0.58455 0.0
C3358 C 0.74616 0.36174 0.57751 0.0
C3359 C 0.73167 0.35406 0.56396 0.0
C3360 C 0.72885 0.33574 0.55738 0.0
C3361 C 0.74047 0.32504 0.56439 0.0
C3362 C 0.755 0.33266 0.57794 0.0
C3363 C 0.80975 0.34542 0.6747 0.0
C3364 C 0.81359 0.32836 0.66921 0.0
C3365 C 0.80232 0.35498 0.66126 0.0
C3366 C 0.79883 0.34772 0.6421 0.0
C3367 C 0.80222 0.33051 0.63667 0.0
C3368 C 0.80955 0.32091 0.65011 0.0
C3369 C 0.79331 0.35854 0.6273 0.0
C3370 C 0.77794 0.35138 0.61459 0.0
C3371 C 0.80414 0.37495 0.62449 0.0
C3372 C 0.82084 0.38284 0.63705 0.0
C3373 C 0.83505 0.37344 0.63862 0.0
C3374 C 0.85072 0.38092 0.65058 0.0
C3375 C 0.85241 0.39788 0.66088 0.0
C3376 C 0.83842 0.40738 0.65926 0.0
C3377 C 0.82269 0.39993 0.64735 0.0
H3378 H 0.86461 0.40369 0.67004 0.0
H3379 H 0.71765 0.32982 0.54683 0.0
H3380 H 0.38867 1.00131 0.35463 0.0
H3381 H 0.40607 0.99884 0.38494 0.0
H3382 H 0.44491 0.04508 0.37641 0.0
H3383 H 0.42805 0.04699 0.34605 0.0
H3384 H 0.46049 0.01795 0.38262 0.0
H3385 H 0.41622 0.04709 0.41033 0.0
H3386 H 0.38585 0.05023 0.41675 0.0
H3387 H 0.37912 0.99994 0.44038 0.0
H3388 H 0.4094 0.99642 0.43389 0.0
H3389 H 0.49353 0.04931 0.48691 0.0
H3390 H 0.47039 0.04517 0.45979 0.0
H3391 H 0.48616 0.99577 0.43885 0.0
H3392 H 0.50973 1.00019 0.46561 0.0
H3393 H 0.44177 0.01912 0.44738 0.0
H3394 H 0.48455 0.99197 0.39579 0.0
H3395 H 0.5163 0.99428 0.39096 0.0
H3396 H 0.52728 0.04939 0.41613 0.0
H3397 H 0.49567 0.04727 0.42132 0.0
C3398 C 0.40071 0.01111 0.35962 0.0
C3399 C 0.40724 0.02429 0.34833 0.0
C3400 C 0.41061 0.00969 0.37677 0.0
C3401 C 0.42681 0.02168 0.3827 0.0
C3402 C 0.43256 0.03557 0.37189 0.0
C3403 C 0.42293 0.03673 0.3547 0.0
C3404 C 0.43866 0.01927 0.39936 0.0
C3405 C 0.45632 0.01804 0.39675 0.0
C3406 C 0.4332 0.01937 0.41771 0.0
C3407 C 0.41495 0.02137 0.4214 0.0
C3408 C 0.40818 0.03661 0.41672 0.0
C3409 C 0.39101 0.03849 0.42041 0.0
C3410 C 0.38053 0.02526 0.4289 0.0
C3411 C 0.38723 0.01015 0.43376 0.0
C3412 C 0.40439 0.00821 0.43008 0.0
C3413 C 0.49205 0.03763 0.47645 0.0
C3414 C 0.50338 0.02514 0.47805 0.0
C3415 C 0.47879 0.03519 0.46114 0.0
C3416 C 0.47671 0.02021 0.44741 0.0
C3417 C 0.4878 0.00752 0.44923 0.0
C3418 C 0.50124 0.0101 0.46438 0.0
C3419 C 0.46359 0.01853 0.43061 0.0
C3420 C 0.44574 0.01868 0.43315 0.0
C3421 C 0.46894 0.0181 0.41222 0.0
C3422 C 0.48786 0.01944 0.40898 0.0
C3423 C 0.49377 1.00456 0.40024 0.0
C3424 C 0.51173 1.00582 0.39752 0.0
C3425 C 0.52381 0.02196 0.40328 0.0
C3426 C 0.51795 0.03687 0.41177 0.0
C3427 C 0.50004 0.03563 0.41467 0.0
H3428 H 0.5377 0.02292 0.40113 0.0
H3429 H 0.36725 0.02674 0.43177 0.0
H3430 H 0.76709 0.72794 0.0595 0.0
H3431 H 0.77002 0.73797 0.09325 0.0
H3432 H 0.78203 0.6868 0.10595 0.0
H3433 H 0.7788 0.67638 0.07169 0.0
H3434 H 0.75851 0.6973 0.1287 0.0
H3435 H 0.81482 0.72483 0.11265 0.0
H3436 H 0.83578 0.74227 0.0942 0.0
H3437 H 0.81282 0.789 0.10685 0.0
H3438 H 0.79155 0.77178 0.12519 0.0
H3439 H 0.78581 0.72952 0.2266 0.0
H3440 H 0.78514 0.71775 0.19335 0.0
H3441 H 0.76913 0.76583 0.17587 0.0
H3442 H 0.77017 0.77794 0.20936 0.0
H3443 H 0.79623 0.75588 0.15619 0.0
H3444 H 0.73926 0.72724 0.17178 0.0
H3445 H 0.71964 0.70963 0.19138 0.0
H3446 H 0.7454 0.66454 0.18047 0.0
H3447 H 0.76536 0.68197 0.16099 0.0
C3448 C 0.77047 0.71872 0.06934 0.0
C3449 C 0.77271 0.70126 0.06267 0.0
C3450 C 0.77223 0.72459 0.08878 0.0
C3451 C 0.77645 0.71329 0.10233 0.0
C3452 C 0.77882 0.69584 0.09583 0.0
C3453 C 0.77708 0.68992 0.07621 0.0
C3454 C 0.77787 0.7198 0.12312 0.0
C3455 C 0.76701 0.70996 0.13474 0.0
C3456 C 0.78868 0.73651 0.13112 0.0
C3457 C 0.80149 0.74696 0.12017 0.0
C3458 C 0.81415 0.73879 0.11139 0.0
C3459 C 0.8261 0.74864 0.10097 0.0
C3460 C 0.8256 0.76672 0.09932 0.0
C3461 C 0.81318 0.77499 0.10813 0.0
C3462 C 0.80119 0.7652 0.11857 0.0
C3463 C 0.7822 0.73767 0.21572 0.0
C3464 C 0.77827 0.75481 0.22072 0.0
C3465 C 0.78171 0.73084 0.19665 0.0
C3466 C 0.77706 0.74085 0.18199 0.0
C3467 C 0.77284 0.75786 0.18689 0.0
C3468 C 0.7733 0.76472 0.20605 0.0
C3469 C 0.77671 0.73351 0.16161 0.0
C3470 C 0.78778 0.7432 0.15011 0.0
C3471 C 0.76622 0.71662 0.15379 0.0
C3472 C 0.75389 0.70595 0.16503 0.0
C3473 C 0.7408 0.71359 0.17362 0.0
C3474 C 0.72962 0.70365 0.18472 0.0
C3475 C 0.7313 0.68599 0.18721 0.0
C3476 C 0.74412 0.67822 0.17853 0.0
C3477 C 0.75535 0.68811 0.16744 0.0
H3478 H 0.72266 0.67833 0.19583 0.0
H3479 H 0.83487 0.77432 0.09124 0.0
H3480 H 0.08277 0.02693 0.73649 0.0
H3481 H 0.07332 0.02321 0.70218 0.0
H3482 H 0.1277 0.04113 0.69204 0.0
H3483 H 0.13736 0.04423 0.72643 0.0
H3484 H 0.09944 0.06084 0.67632 0.0
H3485 H 0.11401 1.00224 0.67699 0.0
H3486 H 0.11339 0.97206 0.6871 0.0
H3487 H 0.05686 0.9585 0.67041 0.0
H3488 H 0.05708 0.98873 0.66051 0.0
H3489 H 0.08263 0.02923 0.57143 0.0
H3490 H 0.09504 0.03008 0.60468 0.0
H3491 H 0.04493 0.03837 0.6229 0.0
H3492 H 0.03248 0.0379 0.5896 0.0
H3493 H 0.07274 1.00489 0.63377 0.0
H3494 H 0.05802 0.06678 0.64509 0.0
H3495 H 0.05854 0.09806 0.63832 0.0
H3496 H 0.11445 0.10457 0.63271 0.0
H3497 H 0.11427 0.07334 0.63977 0.0
C3498 C 0.09277 0.02975 0.72693 0.0
C3499 C 0.11082 0.03587 0.73417 0.0
C3500 C 0.08736 0.02757 0.70732 0.0
C3501 C 0.09978 0.03186 0.69452 0.0
C3502 C 0.11789 0.03764 0.70165 0.0
C3503 C 0.1234 0.03935 0.72128 0.0
C3504 C 0.09352 0.03189 0.67401 0.0
C3505 C 0.09381 0.04855 0.667 0.0
C3506 C 0.08578 0.01592 0.66188 0.0
C3507 C 0.08553 0.99787 0.66823 0.0
C3508 C 0.1014 0.99293 0.67573 0.0
C3509 C 0.10113 0.97578 0.68135 0.0
C3510 C 0.08509 0.96339 0.67945 0.0
C3511 C 0.06927 0.96813 0.67191 0.0
C3512 C 0.06946 0.98527 0.66629 0.0
C3513 C 0.07426 0.03135 0.58252 0.0
C3514 C 0.05652 0.03339 0.57786 0.0
C3515 C 0.0814 0.03185 0.60152 0.0
C3516 C 0.07095 0.03434 0.61629 0.0
C3517 C 0.0533 0.03662 0.61174 0.0
C3518 C 0.0462 0.03635 0.59272 0.0
C3519 C 0.07839 0.03384 0.63635 0.0
C3520 C 0.07841 0.01711 0.64317 0.0
C3521 C 0.08618 0.04969 0.64848 0.0
C3522 C 0.08605 0.06772 0.64256 0.0
C3523 C 0.07034 0.07481 0.64208 0.0
C3524 C 0.07061 0.09256 0.63837 0.0
C3525 C 0.0865 0.10328 0.635 0.0
C3526 C 0.10215 0.09624 0.63528 0.0
C3527 C 0.10198 0.07854 0.63917 0.0
H3528 H 0.08667 0.11703 0.63215 0.0
H3529 H 0.08492 0.9501 0.68377 0.0
H3530 H 0.8194 0.40084 0.45155 0.0
H3531 H 0.81738 0.38259 0.42093 0.0
H3532 H 0.76888 0.40046 0.40216 0.0
H3533 H 0.77127 0.41934 0.43269 0.0
H3534 H 0.76789 0.36113 0.4066 0.0
H3535 H 0.79747 0.41031 0.37687 0.0
H3536 H 0.82139 0.43612 0.37481 0.0
H3537 H 0.85994 0.40147 0.37594 0.0
H3538 H 0.83626 0.37547 0.37827 0.0
H3539 H 0.75431 0.31332 0.31283 0.0
H3540 H 0.75706 0.33533 0.34099 0.0
H3541 H 0.80729 0.32162 0.36124 0.0
H3542 H 0.80445 0.29929 0.33342 0.0
H3543 H 0.80696 0.35959 0.3552 0.0
H3544 H 0.77999 0.31137 0.38644 0.0
H3545 H 0.7578 0.28456 0.3899 0.0
H3546 H 0.71649 0.31602 0.38832 0.0
H3547 H 0.73842 0.343 0.38444 0.0
C3548 C 0.8088 0.40147 0.44054 0.0
C3549 C 0.79551 0.41136 0.44416 0.0
C3550 C 0.80764 0.39109 0.42316 0.0
C3551 C 0.79295 0.39027 0.40955 0.0
C3552 C 0.78033 0.40116 0.41261 0.0
C3553 C 0.78176 0.41194 0.42988 0.0
C3554 C 0.78943 0.37583 0.39381 0.0
C3555 C 0.7761 0.36091 0.39505 0.0
C3556 C 0.80085 0.37542 0.37952 0.0
C3557 C 0.8151 0.39097 0.37789 0.0
C3558 C 0.81106 0.40821 0.37683 0.0
C3559 C 0.82458 0.42287 0.37558 0.0
C3560 C 0.84218 0.42044 0.37528 0.0
C3561 C 0.8463 0.40333 0.37617 0.0
C3562 C 0.83283 0.38862 0.37743 0.0
C3563 C 0.76569 0.31474 0.32356 0.0
C3564 C 0.77922 0.30484 0.32107 0.0
C3565 C 0.76724 0.32722 0.33952 0.0
C3566 C 0.78243 0.33001 0.35286 0.0
C3567 C 0.79553 0.31951 0.35091 0.0
C3568 C 0.79381 0.30675 0.33517 0.0
C3569 C 0.7853 0.34503 0.36789 0.0
C3570 C 0.79859 0.35993 0.3666 0.0
C3571 C 0.77407 0.34529 0.38235 0.0
C3572 C 0.76082 0.32918 0.38489 0.0
C3573 C 0.76614 0.31255 0.38661 0.0
C3574 C 0.75362 0.29732 0.38869 0.0
C3575 C 0.73573 0.29857 0.38927 0.0
C3576 C 0.73035 0.31507 0.38783 0.0
C3577 C 0.74283 0.33034 0.38569 0.0
H3578 H 0.72605 0.28677 0.39088 0.0
H3579 H 0.85263 0.43181 0.37433 0.0
H3580 H 0.44916 0.02217 0.26067 0.0
H3581 H 0.45821 0.02523 0.22922 0.0
H3582 H 0.40363 0.02368 0.20643 0.0
H3583 H 0.39432 0.02061 0.23811 0.0
H3584 H 0.42107 0.99956 0.18624 0.0
H3585 H 0.42993 0.0615 0.20663 0.0
H3586 H 0.43893 0.08895 0.22944 0.0
H3587 H 0.49363 0.08276 0.23191 0.0
H3588 H 0.48494 0.05508 0.20934 0.0
H3589 H 0.46348 1.0032 0.10322 0.0
H3590 H 0.44724 0.01666 0.12669 0.0
H3591 H 0.48928 0.01459 0.17092 0.0
H3592 H 0.50577 1.00105 0.14747 0.0
H3593 H 0.47152 0.04651 0.17482 0.0
H3594 H 0.45959 0.98018 0.16375 0.0
H3595 H 0.45142 0.95215 0.14163 0.0
H3596 H 0.40201 0.96722 0.12191 0.0
H3597 H 0.41008 0.99553 0.14372 0.0
C3598 C 0.43906 0.0226 0.24904 0.0
C3599 C 0.42103 0.02111 0.25184 0.0
C3600 C 0.44427 0.0245 0.23112 0.0
C3601 C 0.43159 0.02494 0.21566 0.0
C3602 C 0.41357 0.02355 0.21831 0.0
C3603 C 0.40833 0.02182 0.23637 0.0
C3604 C 0.4374 0.02546 0.19663 0.0
C3605 C 0.43163 0.01013 0.18339 0.0
C3606 C 0.45127 0.03921 0.19312 0.0
C3607 C 0.45676 0.05618 0.20626 0.0
C3608 C 0.44388 0.06595 0.21207 0.0
C3609 C 0.44893 0.08155 0.22497 0.0
C3610 C 0.46684 0.08759 0.23212 0.0
C3611 C 0.47976 0.07807 0.22632 0.0
C3612 C 0.47478 0.06245 0.21343 0.0
C3613 C 0.46948 1.00586 0.11787 0.0
C3614 C 0.48571 1.00059 0.12361 0.0
C3615 C 0.46022 0.01371 0.1312 0.0
C3616 C 0.46709 0.01651 0.15042 0.0
C3617 C 0.48387 0.01255 0.15605 0.0
C3618 C 0.49309 1.00454 0.14274 0.0
C3619 C 0.45558 0.02037 0.16497 0.0
C3620 C 0.46037 0.03641 0.1773 0.0
C3621 C 0.44073 0.00733 0.16766 0.0
C3622 C 0.4355 0.99 0.1552 0.0
C3623 C 0.44702 0.97753 0.15464 0.0
C3624 C 0.44242 0.96161 0.14215 0.0
C3625 C 0.42623 0.95793 0.13032 0.0
C3626 C 0.41456 0.97012 0.13105 0.0
C3627 C 0.41914 0.98609 0.14347 0.0
H3628 H 0.4227 0.94563 0.12063 0.0
H3629 H 0.47072 0.09965 0.24215 0.0
H3630 H 0.78126 0.71414 0.97292 0.0
H3631 H 0.78414 0.72698 0.94307 0.0
H3632 H 0.76325 0.67469 0.91182 0.0
H3633 H 0.76152 0.66155 0.94193 0.0
H3634 H 0.78804 0.69039 0.89396 0.0
H3635 H 0.73777 0.71142 0.91882 0.0
H3636 H 0.72284 0.72622 0.94333 0.0
H3637 H 0.76087 0.77526 0.94474 0.0
H3638 H 0.77612 0.76071 0.92039 0.0
H3639 H 0.77514 0.7271 0.80595 0.0
H3640 H 0.77081 0.71177 0.83405 0.0
H3641 H 0.78928 0.76212 0.86983 0.0
H3642 H 0.79124 0.77762 0.84185 0.0
H3643 H 0.76418 0.74582 0.88443 0.0
H3644 H 0.81829 0.72335 0.86704 0.0
H3645 H 0.83365 0.71147 0.84108 0.0
H3646 H 0.78838 0.66902 0.82373 0.0
H3647 H 0.7734 0.67973 0.85055 0.0
C3648 C 0.77715 0.70536 0.9597 0.0
C3649 C 0.77091 0.68684 0.95985 0.0
C3650 C 0.77872 0.71276 0.94253 0.0
C3651 C 0.77344 0.70201 0.92492 0.0
C3652 C 0.76734 0.68341 0.92507 0.0
C3653 C 0.76623 0.6759 0.94232 0.0
C3654 C 0.77429 0.71019 0.90651 0.0
C3655 C 0.7826 0.70239 0.89188 0.0
C3656 C 0.76757 0.7261 0.90356 0.0
C3657 C 0.75812 0.73494 0.91786 0.0
C3658 C 0.74295 0.72535 0.92439 0.0
C3659 C 0.73445 0.73369 0.93826 0.0
C3660 C 0.74092 0.75166 0.94561 0.0
C3661 C 0.75587 0.76135 0.93904 0.0
C3662 C 0.76442 0.75307 0.92518 0.0
C3663 C 0.77837 0.73496 0.81979 0.0
C3664 C 0.78368 0.75381 0.82137 0.0
C3665 C 0.77617 0.72604 0.83603 0.0
C3666 C 0.78029 0.73552 0.85443 0.0
C3667 C 0.786 0.75427 0.85598 0.0
C3668 C 0.78736 0.76324 0.83977 0.0
C3669 C 0.7782 0.72626 0.87208 0.0
C3670 C 0.76962 0.73382 0.88653 0.0
C3671 C 0.78481 0.71032 0.87495 0.0
C3672 C 0.79482 0.70225 0.8608 0.0
C3673 C 0.81188 0.71115 0.85801 0.0
C3674 C 0.82055 0.70454 0.84324 0.0
C3675 C 0.81212 0.68926 0.83097 0.0
C3676 C 0.79514 0.68042 0.83365 0.0
C3677 C 0.78667 0.68657 0.84881 0.0
H3678 H 0.81866 0.68438 0.81928 0.0
H3679 H 0.73434 0.75808 0.95637 0.0
H3680 H 0.80329 0.07941 0.04605 0.0
H3681 H 0.83054 0.06674 0.045 0.0
H3682 H 0.86244 0.12017 0.05703 0.0
H3683 H 0.83553 0.13286 0.05826 0.0
H3684 H 0.86433 0.10022 0.02078 0.0
H3685 H 0.86834 0.09494 0.08781 0.0
H3686 H 0.85625 0.08494 0.1166 0.0
H3687 H 0.8494 0.02979 0.09244 0.0
H3688 H 0.86124 0.03949 0.06336 0.0
H3689 H 0.95012 0.08766 0.01437 0.0
H3690 H 0.92578 0.09533 0.0313 0.0
H3691 H 0.89855 0.03994 0.02098 0.0
H3692 H 0.92285 0.03215 0.00393 0.0
H3693 H 0.89365 0.05885 0.05733 0.0
H3694 H 0.88796 0.06365 0.99017 0.0
H3695 H 0.89858 0.07308 0.96049 0.0
H3696 H 0.90646 0.12854 0.98391 0.0
H3697 H 0.89619 0.11941 0.01389 0.0
C3698 C 0.81615 0.08835 0.04908 0.0
C3699 C 0.81736 0.1071 0.05185 0.0
C3700 C 0.83165 0.08112 0.04851 0.0
C3701 C 0.84836 0.09261 0.05079 0.0
C3702 C 0.84959 0.11116 0.0552 0.0
C3703 C 0.83421 0.11836 0.05582 0.0
C3704 C 0.86419 0.08586 0.0454 0.0
C3705 C 0.87089 0.09138 0.02892 0.0
C3706 C 0.87222 0.07385 0.05572 0.0
C3707 C 0.86554 0.06794 0.07335 0.0
C3708 C 0.86415 0.08068 0.08858 0.0
C3709 C 0.85736 0.07507 0.10496 0.0
C3710 C 0.85202 0.05674 0.10633 0.0
C3711 C 0.85354 0.04398 0.09135 0.0
C3712 C 0.86032 0.04953 0.07493 0.0
C3713 C 0.93906 0.07708 0.01595 0.0
C3714 C 0.93814 0.0594 0.00752 0.0
C3715 C 0.92531 0.08142 0.02578 0.0
C3716 C 0.91037 0.0682 0.02718 0.0
C3717 C 0.91005 0.05027 0.0201 0.0
C3718 C 0.92386 0.04589 0.01029 0.0
C3719 C 0.89404 0.07369 0.03301 0.0
C3720 C 0.88711 0.06778 0.04932 0.0
C3721 C 0.88557 0.08527 0.02245 0.0
C3722 C 0.8915 0.09084 0.00434 0.0
C3723 C 0.8921 0.07785 0.98905 0.0
C3724 C 0.89804 0.08314 0.97217 0.0
C3725 C 0.90324 0.10139 0.97033 0.0
C3726 C 0.90246 0.1144 0.98537 0.0
C3727 C 0.89658 0.10918 0.00231 0.0
H3728 H 0.90783 0.10546 0.95725 0.0
H3729 H 0.84674 0.05242 0.11901 0.0
H3730 H 0.36841 0.38808 0.02917 0.0
H3731 H 0.3956 0.41059 0.03063 0.0
H3732 H 0.36471 0.45277 0.03197 0.0
H3733 H 0.33725 0.43024 0.03059 0.0
H3734 H 0.39084 0.45602 0.00592 0.0
H3735 H 0.38764 0.44729 0.07187 0.0
H3736 H 0.38457 0.42909 0.0986 0.0
H3737 H 0.43124 0.40809 0.08679 0.0
H3738 H 0.43447 0.426 0.05984 0.0
H3739 H 0.46924 0.52334 0.02062 0.0
H3740 H 0.44005 0.50575 0.02343 0.0
H3741 H 0.46487 0.46196 0.03992 0.0
H3742 H 0.49409 0.48029 0.03938 0.0
H3743 H 0.4398 0.46162 0.05845 0.0
H3744 H 0.44241 0.46622 0.99159 0.0
H3745 H 0.44633 0.48241 0.96346 0.0
H3746 H 0.40208 0.50794 0.97425 0.0
H3747 H 0.39807 0.4921 0.0026 0.0
C3748 C 0.36731 0.40213 0.02979 0.0
C3749 C 0.35056 0.40729 0.02979 0.0
C3750 C 0.38292 0.41501 0.03068 0.0
C3751 C 0.38223 0.43339 0.03154 0.0
C3752 C 0.36557 0.43866 0.03135 0.0
C3753 C 0.34989 0.42576 0.03063 0.0
C3754 C 0.39899 0.44697 0.03254 0.0
C3755 C 0.40149 0.45748 0.01753 0.0
C3756 C 0.41305 0.44852 0.04741 0.0
C3757 C 0.41122 0.4379 0.06376 0.0
C3758 C 0.39719 0.43871 0.0749 0.0
C3759 C 0.39543 0.42846 0.09011 0.0
C3760 C 0.40769 0.41742 0.09437 0.0
C3761 C 0.42176 0.41664 0.08347 0.0
C3762 C 0.42357 0.42686 0.06825 0.0
C3763 C 0.46857 0.51017 0.02536 0.0
C3764 C 0.4842 0.50344 0.03002 0.0
C3765 C 0.45172 0.49989 0.02657 0.0
C3766 C 0.44999 0.48219 0.03142 0.0
C3767 C 0.46562 0.47552 0.03616 0.0
C3768 C 0.48245 0.48606 0.03574 0.0
C3769 C 0.43206 0.47048 0.0315 0.0
C3770 C 0.42925 0.46031 0.04678 0.0
C3771 C 0.4179 0.46889 0.01658 0.0
C3772 C 0.42005 0.4781 0.99931 0.0
C3773 C 0.43356 0.47533 0.98799 0.0
C3774 C 0.4358 0.48445 0.97202 0.0
C3775 C 0.42448 0.49623 0.9671 0.0
C3776 C 0.41085 0.49884 0.97809 0.0
C3777 C 0.40858 0.48979 0.99411 0.0
H3778 H 0.42626 0.5033 0.95475 0.0
H3779 H 0.4063 0.40948 0.10614 0.0
H3780 H 0.37649 0.54435 0.76705 0.0
H3781 H 0.36163 0.57011 0.76923 0.0
H3782 H 0.4088 0.60399 0.75523 0.0
H3783 H 0.42423 0.57829 0.75471 0.0
H3784 H 0.3973 0.62249 0.77959 0.0
H3785 H 0.36617 0.58795 0.72308 0.0
H3786 H 0.34965 0.56097 0.70249 0.0
H3787 H 0.30765 0.55692 0.73833 0.0
H3788 H 0.32402 0.58373 0.75928 0.0
H3789 H 0.3474 0.69377 0.77671 0.0
H3790 H 0.36217 0.66983 0.76362 0.0
H3791 H 0.32765 0.63089 0.78995 0.0
H3792 H 0.31305 0.65468 0.80301 0.0
H3793 H 0.33379 0.6172 0.7541 0.0
H3794 H 0.36852 0.65111 0.81188 0.0
H3795 H 0.38542 0.67907 0.83048 0.0
H3796 H 0.42137 0.68547 0.78806 0.0
H3797 H 0.40449 0.65767 0.76907 0.0
C3798 C 0.38364 0.55726 0.76425 0.0
C3799 C 0.40147 0.55924 0.76051 0.0
C3800 C 0.37505 0.57204 0.76532 0.0
C3801 C 0.38375 0.58913 0.76183 0.0
C3802 C 0.40161 0.59106 0.75792 0.0
C3803 C 0.41044 0.57634 0.75751 0.0
C3804 C 0.37448 0.60499 0.76321 0.0
C3805 C 0.38353 0.62133 0.77358 0.0
C3806 C 0.35641 0.60381 0.75553 0.0
C3807 C 0.34639 0.58781 0.74281 0.0
C3808 C 0.35345 0.58126 0.72661 0.0
C3809 C 0.34411 0.56599 0.71488 0.0
C3810 C 0.32763 0.55722 0.71911 0.0
C3811 C 0.32042 0.56373 0.73506 0.0
C3812 C 0.32971 0.57898 0.74685 0.0
C3813 C 0.3427 0.68001 0.77923 0.0
C3814 C 0.32908 0.67606 0.79085 0.0
C3815 C 0.35122 0.66636 0.77189 0.0
C3816 C 0.34619 0.64854 0.77599 0.0
C3817 C 0.33182 0.64448 0.78659 0.0
C3818 C 0.32347 0.65809 0.79405 0.0
C3819 C 0.35656 0.63428 0.77069 0.0
C3820 C 0.34768 0.6183 0.75967 0.0
C3821 C 0.37486 0.63592 0.77736 0.0
C3822 C 0.38514 0.65243 0.78897 0.0
C3823 C 0.37996 0.65854 0.80647 0.0
C3824 C 0.38954 0.67436 0.81708 0.0
C3825 C 0.40443 0.68407 0.81043 0.0
C3826 C 0.40981 0.67795 0.79318 0.0
C3827 C 0.40025 0.66217 0.78249 0.0
H3828 H 0.41183 0.69631 0.81866 0.0
H3829 H 0.32042 0.54539 0.71002 0.0
H3830 H 0.23022 0.5925 0.53397 0.0
H3831 H 0.20075 0.57372 0.53289 0.0
H3832 H 0.17618 0.61834 0.51883 0.0
H3833 H 0.20553 0.63732 0.52003 0.0
H3834 H 0.16195 0.60179 0.54779 0.0
H3835 H 0.17834 0.58425 0.48545 0.0
H3836 H 0.19721 0.57225 0.46321 0.0
H3837 H 0.19058 0.52249 0.48782 0.0
H3838 H 0.17199 0.53434 0.51051 0.0
H3839 H 0.07405 0.56617 0.51624 0.0
H3840 H 0.10525 0.57909 0.51548 0.0
H3841 H 0.12027 0.52947 0.52966 0.0
H3842 H 0.08876 0.51607 0.52965 0.0
H3843 H 0.14045 0.54569 0.50359 0.0
H3844 H 0.1225 0.56128 0.56403 0.0
H3845 H 0.10261 0.57196 0.58588 0.0
H3846 H 0.11203 0.62397 0.56604 0.0
H3847 H 0.1317 0.61349 0.54376 0.0
C3848 C 0.21857 0.59831 0.53049 0.0
C3849 C 0.22024 0.61644 0.52711 0.0
C3850 C 0.20175 0.58753 0.52987 0.0
C3851 C 0.18637 0.59467 0.52572 0.0
C3852 C 0.18796 0.61265 0.52211 0.0
C3853 C 0.20474 0.62344 0.52274 0.0
C3854 C 0.16852 0.58359 0.52557 0.0
C3855 C 0.15719 0.5896 0.53804 0.0
C3856 C 0.16267 0.5673 0.51338 0.0
C3857 C 0.17399 0.56028 0.49985 0.0
C3858 C 0.18109 0.57083 0.48628 0.0
C3859 C 0.19172 0.56405 0.47357 0.0
C3860 C 0.19513 0.54664 0.47413 0.0
C3861 C 0.18795 0.53598 0.48742 0.0
C3862 C 0.1774 0.54274 0.50023 0.0
C3863 C 0.08388 0.55778 0.51856 0.0
C3864 C 0.07901 0.54012 0.52294 0.0
C3865 C 0.10172 0.56525 0.51835 0.0
C3866 C 0.11496 0.5553 0.5229 0.0
C3867 C 0.11015 0.53732 0.52623 0.0
C3868 C 0.09221 0.52975 0.52626 0.0
C3869 C 0.13379 0.56424 0.52533 0.0
C3870 C 0.14531 0.55777 0.51347 0.0
C3871 C 0.13992 0.57998 0.53827 0.0
C3872 C 0.12852 0.58655 0.55211 0.0
C3873 C 0.12027 0.57497 0.56424 0.0
C3874 C 0.10902 0.58098 0.57671 0.0
C3875 C 0.10604 0.59863 0.57733 0.0
C3876 C 0.11435 0.6103 0.56553 0.0
C3877 C 0.12557 0.60433 0.55299 0.0
H3878 H 0.0973 0.60325 0.58697 0.0
H3879 H 0.2033 0.54139 0.46423 0.0
H3880 H 0.6779 0.9804 0.72154 0.0
H3881 H 0.69126 0.95338 0.72093 0.0
H3882 H 0.73729 0.9836 0.75767 0.0
H3883 H 0.72479 0.01074 0.75653 0.0
H3884 H 0.74794 0.95905 0.74055 0.0
H3885 H 0.69633 0.96008 0.77393 0.0
H3886 H 0.66499 0.96133 0.77805 0.0
H3887 H 0.64737 0.91385 0.73807 0.0
H3888 H 0.67862 0.91246 0.73359 0.0
H3889 H 0.75562 0.89832 0.81226 0.0
H3890 H 0.74786 0.92276 0.79476 0.0
H3891 H 0.73087 0.88514 0.7441 0.0
H3892 H 0.73905 0.8608 0.76139 0.0
H3893 H 0.70585 0.90982 0.76205 0.0
H3894 H 0.76317 0.90856 0.7381 0.0
H3895 H 0.79567 0.90966 0.74221 0.0
H3896 H 0.80362 0.96142 0.77525 0.0
H3897 H 0.77116 0.96052 0.77156 0.0
C3898 C 0.69121 0.98129 0.72873 0.0
C3899 C 0.70035 0.99741 0.73919 0.0
C3900 C 0.69875 0.96588 0.72859 0.0
C3901 C 0.71494 0.96626 0.73992 0.0
C3902 C 0.72475 0.98284 0.74889 0.0
C3903 C 0.71759 0.99839 0.74828 0.0
C3904 C 0.72055 0.94941 0.7447 0.0
C3905 C 0.73868 0.94829 0.74519 0.0
C3906 C 0.70854 0.93529 0.75086 0.0
C3907 C 0.68976 0.93634 0.7532 0.0
C3908 C 0.68575 0.95002 0.7659 0.0
C3909 C 0.66802 0.95073 0.76832 0.0
C3910 C 0.6542 0.93772 0.75826 0.0
C3911 C 0.65809 0.92395 0.74579 0.0
C3912 C 0.6758 0.92321 0.74329 0.0
C3913 C 0.75018 0.89537 0.79741 0.0
C3914 C 0.74769 0.87784 0.78809 0.0
C3915 C 0.74598 0.90926 0.78744 0.0
C3916 C 0.73909 0.90563 0.76818 0.0
C3917 C 0.73641 0.88809 0.75892 0.0
C3918 C 0.74091 0.87428 0.76878 0.0
C3919 C 0.7331 0.91989 0.75828 0.0
C3920 C 0.71492 0.92043 0.7569 0.0
C3921 C 0.7452 0.93392 0.75243 0.0
C3922 C 0.76472 0.93439 0.75467 0.0
C3923 C 0.77183 0.92009 0.7464 0.0
C3924 C 0.79026 0.9207 0.74861 0.0
C3925 C 0.8017 0.93558 0.75901 0.0
C3926 C 0.79475 0.9499 0.7672 0.0
C3927 C 0.77635 0.94935 0.76503 0.0
H3928 H 0.81596 0.93603 0.7607 0.0
H3929 H 0.64048 0.93826 0.76019 0.0
H3930 H 0.76733 0.93743 0.54494 0.0
H3931 H 0.74153 0.95214 0.5436 0.0
H3932 H 0.7065 0.90049 0.52914 0.0
H3933 H 0.73245 0.8857 0.52984 0.0
H3934 H 0.69577 0.92261 0.50734 0.0
H3935 H 0.7101 0.92602 0.574 0.0
H3936 H 0.72898 0.93211 0.6049 0.0
H3937 H 0.74135 0.98826 0.59798 0.0
H3938 H 0.72278 0.98249 0.5669 0.0
H3939 H 0.62281 0.97002 0.51058 0.0
H3940 H 0.64259 0.94918 0.51882 0.0
H3941 H 0.6871 0.99369 0.53106 0.0
H3942 H 0.66738 0.01454 0.5238 0.0
H3943 H 0.68909 0.97094 0.55667 0.0
H3944 H 0.67704 0.96515 0.48728 0.0
H3945 H 0.65689 0.95814 0.45719 0.0
H3946 H 0.63848 0.90476 0.47092 0.0
H3947 H 0.65837 0.91154 0.50122 0.0
C3948 C 0.75414 0.92914 0.54171 0.0
C3949 C 0.75198 0.91036 0.53759 0.0
C3950 C 0.73933 0.93759 0.54103 0.0
C3951 C 0.72193 0.92747 0.53655 0.0
C3952 C 0.71973 0.90865 0.53268 0.0
C3953 C 0.73459 0.90019 0.53318 0.0
C3954 C 0.70624 0.9367 0.53505 0.0
C3955 C 0.69415 0.93293 0.51833 0.0
C3956 C 0.70397 0.95022 0.5493 0.0
C3957 C 0.71512 0.95379 0.56804 0.0
C3958 C 0.71694 0.93965 0.579 0.0
C3959 C 0.72758 0.94305 0.59656 0.0
C3960 C 0.73638 0.96055 0.60338 0.0
C3961 C 0.73453 0.97471 0.59267 0.0
C3962 C 0.72393 0.97138 0.57509 0.0
C3963 C 0.63675 0.9754 0.51535 0.0
C3964 C 0.64349 0.994 0.5163 0.0
C3965 C 0.6481 0.96343 0.51987 0.0
C3966 C 0.66646 0.96979 0.52527 0.0
C3967 C 0.67304 0.98838 0.52685 0.0
C3968 C 0.66174 1.00031 0.52248 0.0
C3969 C 0.67915 0.95731 0.52872 0.0
C3970 C 0.69062 0.96043 0.54584 0.0
C3971 C 0.6807 0.94305 0.51496 0.0
C3972 C 0.66905 0.93891 0.49658 0.0
C3973 C 0.66864 0.95195 0.48391 0.0
C3974 C 0.65726 0.94801 0.46683 0.0
C3975 C 0.64638 0.93103 0.46217 0.0
C3976 C 0.6469 0.91792 0.47456 0.0
C3977 C 0.65822 0.92179 0.49168 0.0
H3978 H 0.63757 0.92802 0.44895 0.0
H3979 H 0.74462 0.96315 0.61698 0.0
H3980 H 0.38405 0.47388 0.7762 0.0
H3981 H 0.36191 0.44617 0.77615 0.0
H3982 H 0.39674 0.41517 0.74986 0.0
H3983 H 0.4192 0.44266 0.75059 0.0
H3984 H 0.35575 0.40845 0.73398 0.0
H3985 H 0.39879 0.41042 0.78928 0.0
H3986 H 0.41685 0.42492 0.81917 0.0
H3987 H 0.3692 0.43124 0.84389 0.0
H3988 H 0.35086 0.41709 0.81396 0.0
H3989 H 0.32226 0.31775 0.74619 0.0
H3990 H 0.34089 0.34706 0.74485 0.0
H3991 H 0.31287 0.37125 0.78693 0.0
H3992 H 0.29415 0.34181 0.78844 0.0
H3993 H 0.34879 0.3828 0.79487 0.0
H3994 H 0.30535 0.37811 0.74131 0.0
H3995 H 0.28676 0.36355 0.71176 0.0
H3996 H 0.33371 0.36277 0.68378 0.0
H3997 H 0.35264 0.377 0.7133 0.0
C3998 C 0.38692 0.46117 0.77028 0.0
C3999 C 0.4034 0.46046 0.76344 0.0
C4000 C 0.37428 0.44536 0.77028 0.0
C4001 C 0.37766 0.4286 0.76299 0.0
C4002 C 0.39383 0.42794 0.75552 0.0
C4003 C 0.40667 0.44366 0.75602 0.0
C4004 C 0.36473 0.41166 0.76393 0.0
C4005 C 0.35432 0.40273 0.74723 0.0
C4006 C 0.36251 0.40446 0.78131 0.0
C4007 C 0.37348 0.41299 0.79928 0.0
C4008 C 0.39218 0.41514 0.80099 0.0
C4009 C 0.40246 0.42324 0.81796 0.0
C4010 C 0.39418 0.42907 0.8334 0.0
C4011 C 0.3756 0.42677 0.8319 0.0
C4012 C 0.36525 0.41872 0.81493 0.0
C4013 C 0.31993 0.3293 0.7551 0.0
C4014 C 0.30657 0.3274 0.76733 0.0
C4015 C 0.33061 0.3461 0.75427 0.0
C4016 C 0.32824 0.36148 0.76565 0.0
C4017 C 0.31495 0.35964 0.77795 0.0
C4018 C 0.30416 0.34281 0.7787 0.0
C4019 C 0.33986 0.37934 0.76485 0.0
C4020 C 0.35005 0.3885 0.78158 0.0
C4021 C 0.34177 0.3868 0.7475 0.0
C4022 C 0.33044 0.37849 0.72959 0.0
C4023 C 0.31174 0.37472 0.72891 0.0
C4024 C 0.30113 0.36653 0.71215 0.0
C4025 C 0.30905 0.36221 0.69591 0.0
C4026 C 0.3276 0.36611 0.69638 0.0
C4027 C 0.33827 0.37425 0.71312 0.0
H4028 H 0.30082 0.35587 0.68295 0.0
H4029 H 0.40217 0.43532 0.84654 0.0
H4030 H 0.2137 0.58397 0.27516 0.0
H4031 H 0.23154 0.61428 0.27783 0.0
H4032 H 0.18358 0.6361 0.26891 0.0
H4033 H 0.16552 0.60577 0.26634 0.0
H4034 H 0.21114 0.64792 0.24549 0.0
H4035 H 0.20351 0.64114 0.31136 0.0
H4036 H 0.20533 0.62588 0.34029 0.0
H4037 H 0.26202 0.63132 0.34046 0.0
H4038 H 0.26049 0.64632 0.3113 0.0
H4039 H 0.24294 0.7388 0.26523 0.0
H4040 H 0.22681 0.70953 0.27069 0.0
H4041 H 0.27664 0.69137 0.28171 0.0
H4042 H 0.29295 0.72113 0.27678 0.0
H4043 H 0.24959 0.67733 0.30447 0.0
H4044 H 0.25897 0.68249 0.24006 0.0
H4045 H 0.25966 0.69818 0.21138 0.0
H4046 H 0.20292 0.69473 0.2074 0.0
H4047 H 0.20194 0.67931 0.23634 0.0
C4048 C 0.20692 0.59521 0.27388 0.0
C4049 C 0.1882 0.5925 0.27058 0.0
C4050 C 0.21713 0.61249 0.27544 0.0
C4051 C 0.20882 0.62732 0.27361 0.0
C4052 C 0.19016 0.62474 0.27037 0.0
C4053 C 0.17989 0.60745 0.26904 0.0
C4054 C 0.21966 0.64552 0.27476 0.0
C4055 C 0.21935 0.65445 0.25844 0.0
C4056 C 0.23093 0.65363 0.29145 0.0
C4057 C 0.23185 0.64467 0.30903 0.0
C4058 C 0.21634 0.63892 0.31746 0.0
C4059 C 0.21732 0.63034 0.33391 0.0
C4060 C 0.23377 0.62758 0.34218 0.0
C4061 C 0.24928 0.63343 0.33402 0.0
C4062 C 0.24836 0.64198 0.31753 0.0
C4063 C 0.25048 0.72891 0.26972 0.0
C4064 C 0.26912 0.73224 0.27113 0.0
C4065 C 0.24126 0.71214 0.27264 0.0
C4066 C 0.25059 0.69837 0.27649 0.0
C4067 C 0.26929 0.70194 0.27888 0.0
C4068 C 0.27853 0.7188 0.276 0.0
C4069 C 0.24071 0.6798 0.27538 0.0
C4070 C 0.24133 0.67076 0.29156 0.0
C4071 C 0.23007 0.67138 0.25842 0.0
C4072 C 0.2304 0.67987 0.24048 0.0
C4073 C 0.24664 0.68514 0.23312 0.0
C4074 C 0.2471 0.69401 0.21683 0.0
C4075 C 0.23135 0.6975 0.2076 0.0
C4076 C 0.21511 0.69203 0.21459 0.0
C4077 C 0.2146 0.68321 0.23093 0.0
H4078 H 0.23173 0.70442 0.19501 0.0
H4079 H 0.23451 0.62094 0.35493 0.0
H4080 H 0.48452 0.71529 0.47477 0.0
H4081 H 0.48815 0.68595 0.48361 0.0
H4082 H 0.5331 0.68714 0.4517 0.0
H4083 H 0.52892 0.71655 0.44201 0.0
H4084 H 0.51834 0.6542 0.44822 0.0
H4085 H 0.53563 0.69439 0.50434 0.0
H4086 H 0.53411 0.71824 0.52987 0.0
H4087 H 0.48735 0.68603 0.54593 0.0
H4088 H 0.48844 0.66206 0.52031 0.0
H4089 H 0.54887 0.58409 0.49643 0.0
H4090 H 0.54536 0.61296 0.48583 0.0
H4091 H 0.4931 0.60674 0.50429 0.0
H4092 H 0.49676 0.57766 0.51528 0.0
H4093 H 0.51289 0.64221 0.51479 0.0
H4094 H 0.49911 0.60076 0.45693 0.0
H4095 H 0.50577 0.57758 0.43343 0.0
H4096 H 0.5525 0.61381 0.42295 0.0
H4097 H 0.54629 0.63712 0.44665 0.0
C4098 C 0.49525 0.70946 0.46952 0.0
C4099 C 0.50647 0.71879 0.45766 0.0
C4100 C 0.49746 0.69247 0.47482 0.0
C4101 C 0.5113 0.68398 0.46901 0.0
C4102 C 0.52232 0.69304 0.45673 0.0
C4103 C 0.51994 0.71006 0.45113 0.0
C4104 C 0.51403 0.66588 0.47578 0.0
C4105 C 0.51732 0.65183 0.46287 0.0
C4106 C 0.51284 0.66211 0.49492 0.0
C4107 C 0.51201 0.67651 0.51026 0.0
C4108 C 0.52493 0.69245 0.51322 0.0
C4109 C 0.52417 0.70598 0.52772 0.0
C4110 C 0.51061 0.70368 0.53948 0.0
C4111 C 0.49782 0.68781 0.53678 0.0
C4112 C 0.49851 0.67424 0.52228 0.0
C4113 C 0.53669 0.58884 0.49857 0.0
C4114 C 0.52333 0.57835 0.50722 0.0
C4115 C 0.53458 0.60547 0.49219 0.0
C4116 C 0.51891 0.61246 0.49405 0.0
C4117 C 0.50542 0.602 0.50262 0.0
C4118 C 0.5075 0.58519 0.5089 0.0
C4119 C 0.51678 0.63057 0.48718 0.0
C4120 C 0.51373 0.64463 0.50013 0.0
C4121 C 0.51882 0.63451 0.46827 0.0
C4122 C 0.52229 0.62065 0.45367 0.0
C4123 C 0.51086 0.60376 0.44969 0.0
C4124 C 0.51455 0.59059 0.43633 0.0
C4125 C 0.52957 0.5942 0.42673 0.0
C4126 C 0.54088 0.61102 0.43041 0.0
C4127 C 0.53727 0.62422 0.44379 0.0
H4128 H 0.53243 0.58398 0.41641 0.0
H4129 H 0.51004 0.71417 0.55071 0.0
H4130 H 0.63042 0.3013 0.61558 0.0
H4131 H 0.65596 0.29958 0.63811 0.0
H4132 H 0.62226 0.29512 0.68296 0.0
H4133 H 0.59638 0.2969 0.6603 0.0
H4134 H 0.65375 0.31629 0.69679 0.0
H4135 H 0.63671 0.25828 0.6632 0.0
H4136 H 0.62807 0.23469 0.63589 0.0
H4137 H 0.67902 0.25018 0.61614 0.0
H4138 H 0.68787 0.27407 0.64321 0.0
H4139 H 0.71676 0.27543 0.7545 0.0
H4140 H 0.6905 0.27896 0.73396 0.0
H4141 H 0.72433 0.3052 0.6963 0.0
H4142 H 0.75086 0.30299 0.7177 0.0
H4143 H 0.69216 0.27237 0.68023 0.0
H4144 H 0.70762 0.33172 0.71665 0.0
H4145 H 0.71487 0.35182 0.74684 0.0
H4146 H 0.66443 0.3294 0.76419 0.0
H4147 H 0.65702 0.30894 0.73421 0.0
C4148 C 0.62829 0.30004 0.63023 0.0
C4149 C 0.61108 0.29922 0.63591 0.0
C4150 C 0.64305 0.29894 0.64319 0.0
C4151 C 0.64126 0.29695 0.66239 0.0
C4152 C 0.62419 0.2966 0.6683 0.0
C4153 C 0.60931 0.2976 0.65525 0.0
C4154 C 0.65718 0.29502 0.67595 0.0
C4155 C 0.66198 0.30655 0.69314 0.0
C4156 C 0.66817 0.2823 0.67158 0.0
C4157 C 0.66287 0.26812 0.65512 0.0
C4158 C 0.64601 0.25679 0.65293 0.0
C4159 C 0.64108 0.24334 0.63751 0.0
C4160 C 0.65297 0.24098 0.62426 0.0
C4161 C 0.66981 0.25206 0.62641 0.0
C4162 C 0.6748 0.26556 0.64179 0.0
C4163 C 0.71879 0.28267 0.74238 0.0
C4164 C 0.73621 0.28959 0.73845 0.0
C4165 C 0.70361 0.28435 0.73033 0.0
C4166 C 0.70527 0.29248 0.71355 0.0
C4167 C 0.72258 0.29895 0.70918 0.0
C4168 C 0.73781 0.29769 0.72152 0.0
C4169 C 0.68893 0.29399 0.7006 0.0
C4170 C 0.68396 0.28221 0.68367 0.0
C4171 C 0.67759 0.30614 0.70545 0.0
C4172 C 0.68185 0.31867 0.72328 0.0
C4173 C 0.69815 0.33097 0.72698 0.0
C4174 C 0.70227 0.34244 0.74404 0.0
C4175 C 0.69014 0.34184 0.75745 0.0
C4176 C 0.67383 0.32982 0.7538 0.0
C4177 C 0.66965 0.3183 0.73677 0.0
H4178 H 0.69337 0.35073 0.77066 0.0
H4179 H 0.64914 0.23054 0.61235 0.0
H4180 H 0.02779 0.33137 0.93156 0.0
H4181 H 0.03023 0.36282 0.94458 0.0
H4182 H 0.999 0.34603 0.98885 0.0
H4183 H 0.99701 0.31418 0.97612 0.0
H4184 H 0.98814 0.37617 0.97105 0.0
H4185 H 0.04073 0.36123 0.00114 0.0
H4186 H 0.06875 0.34955 0.0038 0.0
H4187 H 0.09161 0.38843 0.96897 0.0
H4188 H 0.06359 0.40016 0.96581 0.0
H4189 H 0.01051 0.46426 0.02869 0.0
H4190 H 1.00643 0.43197 0.01784 0.0
H4191 H 0.035 0.44403 0.97025 0.0
H4192 H 0.0376 0.47632 0.98002 0.0
H4193 H 0.04696 0.4159 0.99138 0.0
H4194 H 0.9941 0.42994 0.96026 0.0
H4195 H 0.96579 0.441 0.95661 0.0
H4196 H 0.9435 0.40375 0.99339 0.0
H4197 H 0.97183 0.39266 0.99753 0.0
C4198 C 0.02144 0.33422 0.94413 0.0
C4199 C 0.01221 0.31992 0.9527 0.0
C4200 C 0.0229 0.3524 0.95164 0.0
C4201 C 0.01485 0.3572 0.96784 0.0
C4202 C 1.00539 0.34297 0.97636 0.0
C4203 C 1.0043 0.32464 0.96909 0.0
C4204 C 0.01642 0.37697 0.97559 0.0
C4205 C 1.00102 0.38471 0.97583 0.0
C4206 C 0.03316 0.3886 0.98146 0.0
C4207 C 0.04995 0.38142 0.98303 0.0
C4208 C 0.05164 0.36715 0.99383 0.0
C4209 C 0.06755 0.36055 0.99548 0.0
C4210 C 0.08193 0.3682 0.9865 0.0
C4211 C 0.08044 0.38249 0.97588 0.0
C4212 C 0.06454 0.38912 0.97415 0.0
C4213 C 0.01549 0.46018 0.01561 0.0
C4214 C 0.0244 0.47334 0.00536 0.0
C4215 C 0.01335 0.44152 0.0095 0.0
C4216 C 0.02047 0.43519 0.99317 0.0
C4217 C 0.02945 0.44826 0.98297 0.0
C4218 C 0.03109 0.46691 0.98874 0.0
C4219 C 0.01869 0.4151 0.98682 0.0
C4220 C 0.03407 0.40732 0.98677 0.0
C4221 C 1.00194 0.40344 0.98114 0.0
C4222 C 0.98517 0.41061 0.97939 0.0
C4223 C 0.98326 0.42428 0.9678 0.0
C4224 C 0.96717 0.43048 0.96555 0.0
C4225 C 0.95282 0.42301 0.97467 0.0
C4226 C 0.95461 0.40947 0.98626 0.0
C4227 C 0.97068 0.40323 0.98858 0.0
H4228 H 0.94036 0.42779 0.97287 0.0
H4229 H 0.09425 0.3631 0.98783 0.0
H4230 H 0.0247 0.7813 0.16743 0.0
H4231 H 0.9982 0.77837 0.18421 0.0
H4232 H 0.96684 0.78814 0.13393 0.0
H4233 H 0.99341 0.79133 0.11713 0.0
H4234 H 0.95848 0.80665 0.16471 0.0
H4235 H 0.9643 0.74534 0.14794 0.0
H4236 H 0.9799 0.71961 0.14642 0.0
H4237 H 0.98807 0.72426 0.20739 0.0
H4238 H 0.97269 0.75017 0.20927 0.0
H4239 H 0.87124 0.77265 0.18531 0.0
H4240 H 0.89984 0.7791 0.17276 0.0
H4241 H 0.92687 0.77015 0.22604 0.0
H4242 H 0.89801 0.76339 0.23866 0.0
H4243 H 0.9386 0.75233 0.19606 0.0
H4244 H 0.93126 0.81257 0.21289 0.0
H4245 H 0.91536 0.83805 0.21441 0.0
H4246 H 0.90972 0.8353 0.15353 0.0
H4247 H 0.92552 0.80969 0.15164 0.0
C4248 C 0.01215 0.78274 0.15988 0.0
C4249 C 0.01123 0.78645 0.14084 0.0
C4250 C 0.99695 0.78102 0.16951 0.0
C4251 C 0.98034 0.78284 0.16037 0.0
C4252 C 0.97942 0.78665 0.14138 0.0
C4253 C 0.99464 0.78838 0.13173 0.0
C4254 C 0.96399 0.78078 0.17056 0.0
C4255 C 0.95405 0.79467 0.17136 0.0
C4256 C 0.95834 0.76542 0.17982 0.0
C4257 C 0.96751 0.7498 0.17874 0.0
C4258 C 0.96953 0.74095 0.16102 0.0
C4259 C 0.97832 0.72632 0.16009 0.0
C4260 C 0.98501 0.72033 0.1768 0.0
C4261 C 0.98289 0.72893 0.19446 0.0
C4262 C 0.97413 0.74357 0.19547 0.0
C4263 C 0.88327 0.7722 0.19446 0.0
C4264 C 0.88226 0.76741 0.213 0.0
C4265 C 0.89969 0.776 0.18728 0.0
C4266 C 0.91566 0.7752 0.1984 0.0
C4267 C 0.91479 0.77087 0.21712 0.0
C4268 C 0.89828 0.76716 0.22439 0.0
C4269 C 0.93301 0.77811 0.19004 0.0
C4270 C 0.94311 0.76438 0.18954 0.0
C4271 C 0.93881 0.79361 0.18107 0.0
C4272 C 0.92946 0.80913 0.18212 0.0
C4273 C 0.92654 0.81733 0.19982 0.0
C4274 C 0.91756 0.83181 0.20075 0.0
C4275 C 0.91147 0.83825 0.18407 0.0
C4276 C 0.91444 0.83028 0.16643 0.0
C4277 C 0.92344 0.81581 0.16543 0.0
H4278 H 0.9045 0.84945 0.18482 0.0
H4279 H 0.99181 0.70901 0.17605 0.0
H4280 H 0.5008 0.29177 0.14119 0.0
H4281 H 0.50343 0.31849 0.1245 0.0
H4282 H 0.55068 0.34315 0.16255 0.0
H4283 H 0.54704 0.31674 0.18031 0.0
H4284 H 0.53477 0.36848 0.15438 0.0
H4285 H 0.55007 0.32065 0.1135 0.0
H4286 H 0.54567 0.29042 0.09554 0.0
H4287 H 0.49848 0.30007 0.0636 0.0
H4288 H 0.50248 0.33026 0.0815 0.0
H4289 H 0.5616 0.43162 0.08725 0.0
H4290 H 0.55896 0.40932 0.11012 0.0
H4291 H 0.50934 0.38148 0.07817 0.0
H4292 H 0.51239 0.40325 0.0551 0.0
H4293 H 0.52904 0.35843 0.08403 0.0
H4294 H 0.5139 0.40651 0.12525 0.0
H4295 H 0.5191 0.43704 0.14257 0.0
H4296 H 0.56707 0.4275 0.17306 0.0
H4297 H 0.56221 0.39693 0.15581 0.0
C4298 C 0.51167 0.30297 0.14608 0.0
C4299 C 0.52377 0.30212 0.16196 0.0
C4300 C 0.51332 0.31824 0.13638 0.0
C4301 C 0.52768 0.33281 0.14165 0.0
C4302 C 0.53955 0.33216 0.15794 0.0
C4303 C 0.53751 0.31704 0.1681 0.0
C4304 C 0.53033 0.3484 0.12996 0.0
C4305 C 0.53373 0.36623 0.13901 0.0
C4306 C 0.52885 0.34578 0.10978 0.0
C4307 C 0.52651 0.32766 0.09894 0.0
C4308 C 0.53871 0.31628 0.1027 0.0
C4309 C 0.53629 0.29916 0.09253 0.0
C4310 C 0.52179 0.29332 0.07846 0.0
C4311 C 0.5097 0.3046 0.0745 0.0
C4312 C 0.51205 0.32172 0.08464 0.0
C4313 C 0.54995 0.42095 0.08541 0.0
C4314 C 0.53721 0.41918 0.06936 0.0
C4315 C 0.54842 0.40817 0.09852 0.0
C4316 C 0.53392 0.39352 0.09602 0.0
C4317 C 0.52075 0.39244 0.08048 0.0
C4318 C 0.52242 0.40498 0.06732 0.0
C4319 C 0.53295 0.37847 0.10838 0.0
C4320 C 0.53003 0.36071 0.09942 0.0
C4321 C 0.53499 0.38122 0.12854 0.0
C4322 C 0.53778 0.3995 0.13909 0.0
C4323 C 0.52561 0.41096 0.13556 0.0
C4324 C 0.52849 0.42827 0.14538 0.0
C4325 C 0.54346 0.43425 0.15884 0.0
C4326 C 0.55551 0.42287 0.1626 0.0
C4327 C 0.55267 0.40554 0.15283 0.0
H4328 H 0.54569 0.44768 0.16638 0.0
H4329 H 0.51994 0.28006 0.07061 0.0
H4330 H 0.99611 0.30935 0.3202 0.0
H4331 H 0.96545 0.30529 0.30364 0.0
H4332 H 0.94409 0.29164 0.35514 0.0
H4333 H 0.97401 0.29534 0.37131 0.0
H4334 H 0.92481 0.27009 0.32743 0.0
H4335 H 0.94643 0.3351 0.33676 0.0
H4336 H 0.96683 0.36283 0.33198 0.0
H4337 H 0.9533 0.35081 0.27152 0.0
H4338 H 0.93297 0.3229 0.27596 0.0
H4339 H 0.83497 0.28021 0.31624 0.0
H4340 H 0.8669 0.2837 0.3259 0.0
H4341 H 0.87778 0.30057 0.27153 0.0
H4342 H 0.8456 0.29767 0.262 0.0
H4343 H 0.90319 0.31884 0.29597 0.0
H4344 H 0.87978 0.25644 0.28525 0.0
H4345 H 0.85923 0.22827 0.28802 0.0
H4346 H 0.87697 0.23306 0.34775 0.0
H4347 H 0.89722 0.26165 0.34547 0.0
C4348 C 0.98489 0.30529 0.32791 0.0
C4349 C 0.9879 0.30284 0.3473 0.0
C4350 C 0.9672 0.30312 0.31845 0.0
C4351 C 0.95199 0.29832 0.32804 0.0
C4352 C 0.95519 0.29535 0.34714 0.0
C4353 C 0.9726 0.2976 0.3565 0.0
C4354 C 0.93273 0.29642 0.31887 0.0
C4355 C 0.92017 0.28089 0.32072 0.0
C4356 C 0.92629 0.31 0.30929 0.0
C4357 C 0.93834 0.32685 0.30669 0.0
C4358 C 0.94789 0.33833 0.32245 0.0
C4359 C 0.95943 0.35408 0.3198 0.0
C4360 C 0.9614 0.35855 0.30146 0.0
C4361 C 0.95178 0.34732 0.28572 0.0
C4362 C 0.94025 0.33154 0.2883 0.0
C4363 C 0.84406 0.28468 0.30623 0.0
C4364 C 0.83736 0.28846 0.28817 0.0
C4365 C 0.86255 0.28659 0.31179 0.0
C4366 C 0.87525 0.29195 0.2994 0.0
C4367 C 0.8686 0.29627 0.28151 0.0
C4368 C 0.85003 0.29457 0.27601 0.0
C4369 C 0.89518 0.29274 0.30513 0.0
C4370 C 0.90783 0.30799 0.3026 0.0
C4371 C 0.9018 0.27872 0.31379 0.0
C4372 C 0.88994 0.2613 0.3152 0.0
C4373 C 0.87924 0.25156 0.29901 0.0
C4374 C 0.86762 0.2355 0.30049 0.0
C4375 C 0.86681 0.22884 0.31805 0.0
C4376 C 0.87761 0.23824 0.33416 0.0
C4377 C 0.88914 0.2544 0.33278 0.0
H4378 H 0.85783 0.21638 0.31916 0.0
H4379 H 0.97034 0.37075 0.29943 0.0
H4380 H 0.04309 0.71211 0.63163 0.0
H4381 H 0.03989 0.68202 0.6157 0.0
H4382 H 0.99496 0.66427 0.64536 0.0
H4383 H 0.99773 0.69532 0.66147 0.0
H4384 H 0.02799 0.64099 0.64003 0.0
H4385 H 0.98134 0.66638 0.60653 0.0
H4386 H 0.97038 0.69079 0.59133 0.0
H4387 H 0.0098 0.69081 0.55255 0.0
H4388 H 0.02118 0.66662 0.56773 0.0
H4389 H 1.00731 0.55858 0.57505 0.0
H4390 H 1.00431 0.58518 0.59613 0.0
H4391 H 0.03641 0.61937 0.56284 0.0
H4392 H 0.04029 0.59294 0.54243 0.0
H4393 H 1.00593 0.63285 0.57123 0.0
H4394 H 0.05632 0.61584 0.60453 0.0
H4395 H 0.07332 0.59471 0.61868 0.0
H4396 H 0.03304 0.58148 0.65536 0.0
H4397 H 0.0158 0.60273 0.64126 0.0
C4398 C 0.03239 0.70202 0.63499 0.0
C4399 C 0.02044 0.70656 0.64779 0.0
C4400 C 0.03069 0.68462 0.62578 0.0
C4401 C 0.01713 0.67078 0.62906 0.0
C4402 C 1.00556 0.67475 0.64251 0.0
C4403 C 1.00717 0.69251 0.65177 0.0
C4404 C 0.01512 0.65273 0.61745 0.0
C4405 C 0.02256 0.63898 0.62516 0.0
C4406 C 1.00919 0.65039 0.59767 0.0
C4407 C 1.00218 0.66476 0.58836 0.0
C4408 C 0.98776 0.67169 0.59486 0.0
C4409 C 0.98146 0.68547 0.58623 0.0
C4410 C 0.98941 0.69237 0.571 0.0
C4411 C 1.00365 0.68546 0.56434 0.0
C4412 C 0.01001 0.6717 0.57294 0.0
C4413 C 0.01386 0.57173 0.57225 0.0
C4414 C 0.02389 0.57343 0.55674 0.0
C4415 C 0.01207 0.587 0.58433 0.0
C4416 C 0.02002 0.60445 0.5811 0.0
C4417 C 0.02994 0.60618 0.5656 0.0
C4418 C 0.03203 0.59094 0.55378 0.0
C4419 C 0.01826 0.62087 0.59394 0.0
C4420 C 0.01063 0.63451 0.58629 0.0
C4421 C 0.02455 0.62338 0.61359 0.0
C4422 C 0.03479 0.61073 0.62196 0.0
C4423 C 0.05108 0.60839 0.6156 0.0
C4424 C 0.06077 0.59648 0.62362 0.0
C4425 C 0.05426 0.5868 0.63796 0.0
C4426 C 0.03805 0.58905 0.64432 0.0
C4427 C 0.02837 0.60105 0.6364 0.0
H4428 H 0.06174 0.57753 0.64411 0.0
H4429 H 0.98451 0.70304 0.56434 0.0
H4430 H 0.60839 0.80537 0.87035 0.0
H4431 H 0.63691 0.80199 0.85936 0.0
H4432 H 0.61262 0.79582 0.80126 0.0
H4433 H 0.58374 0.79828 0.81241 0.0
H4434 H 0.63421 0.77527 0.80085 0.0
H4435 H 0.64532 0.83675 0.82833 0.0
H4436 H 0.64668 0.86206 0.85326 0.0
H4437 H 0.68309 0.84005 0.88985 0.0
H4438 H 0.68178 0.8145 0.86521 0.0
H4439 H 0.71828 0.78069 0.76226 0.0
H4440 H 0.68933 0.78403 0.77192 0.0
H4441 H 0.71274 0.79519 0.83046 0.0
H4442 H 0.74198 0.79291 0.82052 0.0
H4443 H 0.69109 0.81414 0.8299 0.0
H4444 H 0.67162 0.74838 0.80416 0.0
H4445 H 0.66385 0.72145 0.78032 0.0
H4446 H 0.64231 0.75254 0.73976 0.0
H4447 H 0.6492 0.7794 0.76363 0.0
C4448 C 0.60902 0.80333 0.85519 0.0
C4449 C 0.59341 0.80222 0.8424 0.0
C4450 C 0.62564 0.80157 0.84879 0.0
C4451 C 0.62768 0.79908 0.82922 0.0
C4452 C 0.61197 0.79779 0.81642 0.0
C4453 C 0.59524 0.79926 0.82285 0.0
C4454 C 0.6458 0.79733 0.82218 0.0
C4455 C 0.64656 0.78402 0.80718 0.0
C4456 C 0.66246 0.80827 0.83021 0.0
C4457 C 0.66332 0.82364 0.845 0.0
C4458 C 0.65353 0.83726 0.84174 0.0
C4459 C 0.65431 0.85166 0.85581 0.0
C4460 C 0.66493 0.85264 0.87314 0.0
C4461 C 0.67485 0.83926 0.87642 0.0
C4462 C 0.67411 0.82483 0.86241 0.0
C4463 C 0.71735 0.7838 0.77725 0.0
C4464 C 0.7329 0.78648 0.79047 0.0
C4465 C 0.7004 0.78546 0.78294 0.0
C4466 C 0.69794 0.78947 0.80226 0.0
C4467 C 0.71359 0.79213 0.81545 0.0
C4468 C 0.7306 0.79078 0.80972 0.0
C4469 C 0.67963 0.79173 0.80873 0.0
C4470 C 0.67881 0.80527 0.82362 0.0
C4471 C 0.66284 0.7811 0.80049 0.0
C4472 C 0.66127 0.7659 0.78549 0.0
C4473 C 0.66552 0.7495 0.79005 0.0
C4474 C 0.66103 0.73422 0.77663 0.0
C4475 C 0.65265 0.73531 0.75854 0.0
C4476 C 0.6488 0.75171 0.75377 0.0
C4477 C 0.65288 0.76692 0.76726 0.0
H4478 H 0.64918 0.72345 0.7482 0.0
H4479 H 0.66551 0.86379 0.88402 0.0
H4480 H 0.42629 0.52265 0.70218 0.0
H4481 H 0.43592 0.52793 0.67086 0.0
H4482 H 0.48871 0.52038 0.69082 0.0
H4483 H 0.47941 0.51531 0.7217 0.0
H4484 H 0.49143 0.54815 0.67159 0.0
H4485 H 0.45827 0.48743 0.66161 0.0
H4486 H 0.43201 0.46327 0.66077 0.0
H4487 H 0.40236 0.48881 0.62067 0.0
H4488 H 0.4284 0.5133 0.62157 0.0
H4489 H 0.52964 0.5225 0.5884 0.0
H4490 H 0.51578 0.52267 0.61779 0.0
H4491 H 0.47121 0.54157 0.59023 0.0
H4492 H 0.48549 0.54232 0.56082 0.0
H4493 H 0.46184 0.51114 0.61192 0.0
H4494 H 0.49733 0.5705 0.62018 0.0
H4495 H 0.5244 0.59374 0.6214 0.0
H4496 H 0.55085 0.56921 0.66498 0.0
H4497 H 0.52398 0.5457 0.66389 0.0
C4498 C 0.43996 0.5222 0.69989 0.0
C4499 C 0.45198 0.51843 0.71459 0.0
C4500 C 0.44545 0.52513 0.68192 0.0
C4501 C 0.46309 0.52445 0.6783 0.0
C4502 C 0.47507 0.52102 0.69309 0.0
C4503 C 0.46962 0.51801 0.71085 0.0
C4504 C 0.4694 0.52721 0.6593 0.0
C4505 C 0.48496 0.53996 0.65859 0.0
C4506 C 0.46088 0.51685 0.64212 0.0
C4507 C 0.44518 0.5023 0.64183 0.0
C4508 C 0.44609 0.48799 0.65278 0.0
C4509 C 0.43126 0.47422 0.65227 0.0
C4510 C 0.4155 0.47453 0.64073 0.0
C4511 C 0.41455 0.48861 0.62965 0.0
C4512 C 0.42933 0.50243 0.63016 0.0
C4513 C 0.51712 0.52718 0.58862 0.0
C4514 C 0.50895 0.53283 0.57223 0.0
C4515 C 0.5091 0.52708 0.60546 0.0
C4516 C 0.49249 0.53226 0.60635 0.0
C4517 C 0.48406 0.53757 0.58996 0.0
C4518 C 0.49227 0.53803 0.57315 0.0
C4519 C 0.484 0.53183 0.62439 0.0
C4520 C 0.46812 0.51949 0.6249 0.0
C4521 C 0.49234 0.54239 0.64147 0.0
C4522 C 0.50867 0.55626 0.64185 0.0
C4523 C 0.50897 0.56996 0.6299 0.0
C4524 C 0.52424 0.58324 0.63064 0.0
C4525 C 0.53931 0.58298 0.6433 0.0
C4526 C 0.53915 0.56942 0.65521 0.0
C4527 C 0.52389 0.55612 0.65456 0.0
H4528 H 0.55114 0.59325 0.64382 0.0
H4529 H 0.40405 0.46383 0.64032 0.0
H4530 H 0.77985 0.12873 0.97596 0.0
H4531 H 0.77642 0.14503 0.94807 0.0
H4532 H 0.76648 0.19041 0.98403 0.0
H4533 H 0.76984 0.17443 0.01165 0.0
H4534 H 0.74342 0.18216 0.95079 0.0
H4535 H 0.80732 0.19007 0.97222 0.0
H4536 H 0.83481 0.17815 0.9795 0.0
H4537 H 0.82954 0.15276 0.9221 0.0
H4538 H 0.80188 0.16436 0.91456 0.0
H4539 H 0.75618 0.25773 0.90601 0.0
H4540 H 0.76533 0.2385 0.92922 0.0
H4541 H 0.7738 0.20012 0.8839 0.0
H4542 H 0.7649 0.2191 0.86071 0.0
H4543 H 0.79659 0.20091 0.91784 0.0
H4544 H 0.73441 0.19485 0.89533 0.0
H4545 H 0.70735 0.20726 0.88743 0.0
H4546 H 0.7088 0.22806 0.94598 0.0
H4547 H 0.73611 0.21608 0.95416 0.0
C4548 C 0.7768 0.14212 0.97781 0.0
C4549 C 0.77522 0.15039 0.99592 0.0
C4550 C 0.77486 0.15137 0.96194 0.0
C4551 C 0.77129 0.16888 0.96414 0.0
C4552 C 0.76917 0.17686 0.98212 0.0
C4553 C 0.77118 0.16773 0.99788 0.0
C4554 C 0.77062 0.17959 0.9481 0.0
C4555 C 0.75502 0.18625 0.94358 0.0
C4556 C 0.78566 0.18452 0.93846 0.0
C4557 C 0.80248 0.17792 0.94288 0.0
C4558 C 0.81199 0.18187 0.96118 0.0
C4559 C 0.82759 0.17518 0.96535 0.0
C4560 C 0.83389 0.16466 0.95128 0.0
C4561 C 0.82464 0.16088 0.93299 0.0
C4562 C 0.80901 0.16752 0.92875 0.0
C4563 C 0.76026 0.24535 0.90099 0.0
C4564 C 0.75897 0.23957 0.88147 0.0
C4565 C 0.76569 0.23451 0.91425 0.0
C4566 C 0.76972 0.21775 0.9081 0.0
C4567 C 0.77059 0.21298 0.88882 0.0
C4568 C 0.7653 0.22385 0.87558 0.0
C4569 C 0.76965 0.20399 0.92119 0.0
C4570 C 0.78495 0.19663 0.92493 0.0
C4571 C 0.75427 0.19824 0.93003 0.0
C4572 C 0.73734 0.20465 0.92534 0.0
C4573 C 0.72897 0.2021 0.90652 0.0
C4574 C 0.71361 0.20908 0.90198 0.0
C4575 C 0.70637 0.21845 0.91619 0.0
C4576 C 0.71443 0.22079 0.93499 0.0
C4577 C 0.72984 0.2139 0.93959 0.0
H4578 H 0.6945 0.22389 0.91265 0.0
H4579 H 0.84596 0.15947 0.95454 0.0
H4580 H 0.12327 0.51217 0.20685 0.0
H4581 H 0.11195 0.51007 0.17328 0.0
H4582 H 0.16029 0.5445 0.16302 0.0
H4583 H 0.17197 0.54624 0.19671 0.0
H4584 H 0.12602 0.55701 0.15646 0.0
H4585 H 0.15321 0.50647 0.13888 0.0
H4586 H 0.16101 0.47675 0.14242 0.0
H4587 H 0.10546 0.45247 0.13551 0.0
H4588 H 0.09731 0.48203 0.13216 0.0
H4589 H 0.06951 0.55845 0.07198 0.0
H4590 H 0.09537 0.55862 0.09481 0.0
H4591 H 0.07138 0.50553 0.10688 0.0
H4592 H 0.0477 0.50422 0.08085 0.0
H4593 H 0.10231 0.50481 0.10777 0.0
H4594 H 0.07405 0.55213 0.13653 0.0
H4595 H 0.06259 0.58053 0.1369 0.0
H4596 H 0.11424 0.609 0.12848 0.0
H4597 H 0.12596 0.58075 0.12798 0.0
C4598 C 0.13167 0.51886 0.19731 0.0
C4599 C 0.14834 0.52952 0.20421 0.0
C4600 C 0.12529 0.51753 0.17818 0.0
C4601 C 0.13539 0.52707 0.16583 0.0
C4602 C 0.15249 0.53692 0.17244 0.0
C4603 C 0.15908 0.53792 0.19157 0.0
C4604 C 0.12648 0.52928 0.14728 0.0
C4605 C 0.1211 0.54576 0.14549 0.0
C4606 C 0.11976 0.51437 0.13353 0.0
C4607 C 0.12466 0.49651 0.13527 0.0
C4608 C 0.14266 0.49481 0.1382 0.0
C4609 C 0.14714 0.47797 0.14016 0.0
C4610 C 0.13374 0.46273 0.13919 0.0
C4611 C 0.11583 0.46427 0.13622 0.0
C4612 C 0.11127 0.48106 0.13424 0.0
C4613 C 0.07024 0.54673 0.07919 0.0
C4614 C 0.05742 0.5311 0.07427 0.0
C4615 C 0.08471 0.54696 0.09267 0.0
C4616 C 0.0854 0.53217 0.10294 0.0
C4617 C 0.07151 0.517 0.09895 0.0
C4618 C 0.05784 0.5163 0.08435 0.0
C4619 C 0.1005 0.53218 0.11763 0.0
C4620 C 0.10728 0.51622 0.11851 0.0
C4621 C 0.10777 0.5473 0.13121 0.0
C4622 C 0.10082 0.56433 0.13204 0.0
C4623 C 0.08294 0.56446 0.13475 0.0
C4624 C 0.0764 0.58051 0.13497 0.0
C4625 C 0.08767 0.59654 0.13266 0.0
C4626 C 0.10553 0.59657 0.13025 0.0
C4627 C 0.11213 0.58056 0.13003 0.0
H4628 H 0.08257 0.60895 0.13276 0.0
H4629 H 0.13724 0.44972 0.14073 0.0
H4630 H 0.80666 0.84669 0.49141 0.0
H4631 H 0.80656 0.83138 0.45941 0.0
H4632 H 0.78107 0.87156 0.43527 0.0
H4633 H 0.78152 0.8872 0.4672 0.0
H4634 H 0.76486 0.83395 0.42127 0.0
H4635 H 0.82123 0.8749 0.43015 0.0
H4636 H 0.85058 0.88922 0.44728 0.0
H4637 H 0.86707 0.838 0.44454 0.0
H4638 H 0.83766 0.82331 0.42759 0.0
H4639 H 0.7756 0.81989 0.3242 0.0
H4640 H 0.7767 0.83275 0.35706 0.0
H4641 H 0.80691 0.79362 0.37575 0.0
H4642 H 0.80551 0.78026 0.34271 0.0
H4643 H 0.82078 0.82888 0.39336 0.0
H4644 H 0.76515 0.78806 0.38256 0.0
H4645 H 0.73584 0.77362 0.36534 0.0
H4646 H 0.7177 0.82391 0.37187 0.0
H4647 H 0.74703 0.83875 0.38889 0.0
C4648 C 0.80114 0.85233 0.47928 0.0
C4649 C 0.79416 0.86819 0.48182 0.0
C4650 C 0.80108 0.84356 0.46102 0.0
C4651 C 0.79376 0.8503 0.44497 0.0
C4652 C 0.78672 0.8661 0.44746 0.0
C4653 C 0.7871 0.87508 0.4657 0.0
C4654 C 0.79353 0.84089 0.42558 0.0
C4655 C 0.77706 0.833 0.41507 0.0
C4656 C 0.80946 0.83921 0.41773 0.0
C4657 C 0.82718 0.84797 0.42782 0.0
C4658 C 0.83105 0.86666 0.43337 0.0
C4659 C 0.84771 0.87485 0.44301 0.0
C4660 C 0.86068 0.86452 0.44707 0.0
C4661 C 0.85701 0.84598 0.44142 0.0
C4662 C 0.84034 0.83771 0.43178 0.0
C4663 C 0.7825 0.81393 0.33522 0.0
C4664 C 0.79064 0.79909 0.33068 0.0
C4665 C 0.78308 0.82132 0.35406 0.0
C4666 C 0.79181 0.81412 0.3689 0.0
C4667 C 0.80013 0.79943 0.36451 0.0
C4668 C 0.79938 0.79185 0.34559 0.0
C4669 C 0.79209 0.82206 0.38893 0.0
C4670 C 0.80856 0.82969 0.39958 0.0
C4671 C 0.77612 0.82344 0.39694 0.0
C4672 C 0.75837 0.81457 0.38686 0.0
C4673 C 0.75497 0.79609 0.3802 0.0
C4674 C 0.73834 0.78782 0.37049 0.0
C4675 C 0.72493 0.79785 0.36748 0.0
C4676 C 0.72811 0.81617 0.37421 0.0
C4677 C 0.74474 0.82451 0.3839 0.0
H4678 H 0.71207 0.79142 0.35998 0.0
H4679 H 0.87358 0.87089 0.45453 0.0
H4680 H 0.47241 0.51953 0.80614 0.0
H4681 H 0.48761 0.52013 0.83815 0.0
H4682 H 0.43716 0.51589 0.86083 0.0
H4683 H 0.42198 0.5159 0.82889 0.0
H4684 H 0.4614 0.54017 0.88293 0.0
H4685 H 0.4607 0.47911 0.85407 0.0
H4686 H 0.46729 0.45717 0.82913 0.0
H4687 H 0.52312 0.48016 0.84069 0.0
H4688 H 0.51683 0.50235 0.86556 0.0
H4689 H 0.48583 0.52079 0.97471 0.0
H4690 H 0.47259 0.51859 0.94179 0.0
H4691 H 0.52418 0.5178 0.92283 0.0
H4692 H 0.53731 0.51891 0.95598 0.0
H4693 H 0.50113 0.49738 0.89829 0.0
H4694 H 0.50403 0.55747 0.92637 0.0
H4695 H 0.49962 0.58151 0.95034 0.0
H4696 H 0.44289 0.56353 0.93936 0.0
H4697 H 0.44696 0.53927 0.91546 0.0
C4698 C 0.46452 0.51861 0.81793 0.0
C4699 C 0.44594 0.51757 0.8149 0.0
C4700 C 0.47325 0.51889 0.83628 0.0
C4701 C 0.46357 0.51778 0.85205 0.0
C4702 C 0.44499 0.51674 0.849 0.0
C4703 C 0.43629 0.51666 0.83068 0.0
C4704 C 0.47274 0.51797 0.87173 0.0
C4705 C 0.46988 0.53063 0.88631 0.0
C4706 C 0.48449 0.5061 0.87616 0.0
C4707 C 0.48828 0.49244 0.86158 0.0
C4708 C 0.47437 0.4795 0.85125 0.0
C4709 C 0.47806 0.46703 0.83713 0.0
C4710 C 0.49561 0.46729 0.8333 0.0
C4711 C 0.50953 0.47997 0.84366 0.0
C4712 C 0.50592 0.49248 0.85779 0.0
C4713 C 0.49436 0.52005 0.96352 0.0
C4714 C 0.51269 0.52034 0.96796 0.0
C4715 C 0.48678 0.51893 0.94464 0.0
C4716 C 0.49742 0.51872 0.92966 0.0
C4717 C 0.51563 0.51817 0.93403 0.0
C4718 C 0.52316 0.51882 0.95299 0.0
C4719 C 0.4895 0.51934 0.90962 0.0
C4720 C 0.49264 0.50692 0.89496 0.0
C4721 C 0.47833 0.53173 0.90501 0.0
C4722 C 0.47581 0.54647 0.91921 0.0
C4723 C 0.49062 0.55859 0.92913 0.0
C4724 C 0.48818 0.57226 0.9427 0.0
C4725 C 0.47099 0.57402 0.94639 0.0
C4726 C 0.4562 0.56214 0.93649 0.0
C4727 C 0.45856 0.54845 0.9229 0.0
H4728 H 0.46912 0.58459 0.9569 0.0
H4729 H 0.49843 0.45765 0.82233 0.0
H4730 H 0.80101 0.15498 0.09852 0.0
H4731 H 0.80483 0.17092 0.13066 0.0
H4732 H 0.74766 0.16518 0.12894 0.0
H4733 H 0.74394 0.14997 0.09655 0.0
H4734 H 0.76485 0.19954 0.12889 0.0
H4735 H 0.77251 0.1492 0.16377 0.0
H4736 H 0.78654 0.12376 0.17208 0.0
H4737 H 0.83722 0.15939 0.18637 0.0
H4738 H 0.82357 0.185 0.17787 0.0
H4739 H 0.75756 0.25283 0.21225 0.0
H4740 H 0.75647 0.23036 0.18518 0.0
H4741 H 0.81303 0.23171 0.19815 0.0
H4742 H 0.81359 0.25289 0.22655 0.0
H4743 H 0.79805 0.19961 0.19227 0.0
H4744 H 0.79267 0.24945 0.15748 0.0
H4745 H 0.78067 0.2759 0.14855 0.0
H4746 H 0.72889 0.24281 0.13215 0.0
H4747 H 0.74051 0.2162 0.14122 0.0
C4748 C 0.78931 0.15639 0.10546 0.0
C4749 C 0.77223 0.15162 0.09531 0.0
C4750 C 0.79147 0.16541 0.12378 0.0
C4751 C 0.77651 0.16934 0.13196 0.0
C4752 C 0.75932 0.16229 0.12272 0.0
C4753 C 0.75719 0.15364 0.10431 0.0
C4754 C 0.77875 0.18425 0.14726 0.0
C4755 C 0.77183 0.19947 0.14291 0.0
C4756 C 0.78884 0.18446 0.16496 0.0
C4757 C 0.79703 0.16901 0.17001 0.0
C4758 C 0.78668 0.15159 0.1685 0.0
C4759 C 0.79456 0.13714 0.17329 0.0
C4760 C 0.81277 0.13995 0.17971 0.0
C4761 C 0.82313 0.15722 0.18138 0.0
C4762 C 0.81532 0.17171 0.1766 0.0
C4763 C 0.76979 0.24857 0.209 0.0
C4764 C 0.78563 0.25431 0.22126 0.0
C4765 C 0.76922 0.23582 0.1935 0.0
C4766 C 0.78475 0.22953 0.18945 0.0
C4767 C 0.80089 0.2363 0.20109 0.0
C4768 C 0.80125 0.24843 0.21713 0.0
C4769 C 0.78375 0.21481 0.17409 0.0
C4770 C 0.79106 0.19974 0.17827 0.0
C4771 C 0.7744 0.21487 0.15597 0.0
C4772 C 0.76747 0.23083 0.15013 0.0
C4773 C 0.77872 0.24782 0.15203 0.0
C4774 C 0.77197 0.26285 0.14695 0.0
C4775 C 0.75403 0.26104 0.13981 0.0
C4776 C 0.74279 0.24419 0.13768 0.0
C4777 C 0.74946 0.22913 0.14275 0.0
H4778 H 0.74883 0.27269 0.13591 0.0
H4779 H 0.81884 0.12874 0.18342 0.0
H4780 H 0.13871 0.511 0.29098 0.0
H4781 H 0.1228 0.51381 0.31882 0.0
H4782 H 0.16628 0.55506 0.34666 0.0
H4783 H 0.18273 0.55148 0.31906 0.0
H4784 H 0.15096 0.53498 0.37202 0.0
H4785 H 0.13069 0.56613 0.32048 0.0
H4786 H 0.11917 0.56886 0.28749 0.0
H4787 H 0.07264 0.52919 0.2912 0.0
H4788 H 0.08401 0.52605 0.32412 0.0
H4789 H 0.10002 0.583 0.4301 0.0
H4790 H 0.11989 0.57255 0.40832 0.0
H4791 H 0.07572 0.53282 0.37908 0.0
H4792 H 0.05579 0.54388 0.40035 0.0
H4793 H 0.09192 0.55108 0.35516 0.0
H4794 H 0.11151 0.52145 0.40803 0.0
H4795 H 0.12325 0.51934 0.44112 0.0
H4796 H 0.1708 0.55688 0.43552 0.0
H4797 H 0.15929 0.55934 0.40251 0.0
C4798 C 0.145 0.52036 0.30325 0.0
C4799 C 0.16175 0.53118 0.30301 0.0
C4800 C 0.13593 0.52198 0.31908 0.0
C4801 C 0.14319 0.53498 0.33452 0.0
C4802 C 0.16046 0.54501 0.3348 0.0
C4803 C 0.1698 0.54301 0.3191 0.0
C4804 C 0.13199 0.53929 0.34933 0.0
C4805 C 0.13809 0.53864 0.36844 0.0
C4806 C 0.11513 0.54381 0.3445 0.0
C4807 C 0.10828 0.54574 0.3247 0.0
C4808 C 0.11806 0.55791 0.31421 0.0
C4809 C 0.11155 0.55954 0.29553 0.0
C4810 C 0.0952 0.54918 0.28724 0.0
C4811 C 0.08531 0.53719 0.29763 0.0
C4812 C 0.09177 0.53549 0.3163 0.0
C4813 C 0.09469 0.57208 0.41894 0.0
C4814 C 0.0765 0.56439 0.41644 0.0
C4815 C 0.10602 0.56594 0.40673 0.0
C4816 C 0.0993 0.55176 0.39225 0.0
C4817 C 0.08114 0.54378 0.39017 0.0
C4818 C 0.06978 0.55014 0.40214 0.0
C4819 C 0.11067 0.54652 0.37797 0.0
C4820 C 0.10466 0.5472 0.35886 0.0
C4821 C 0.12758 0.54212 0.38289 0.0
C4822 C 0.13445 0.5407 0.40283 0.0
C4823 C 0.1244 0.52937 0.41391 0.0
C4824 C 0.13104 0.52809 0.43266 0.0
C4825 C 0.14774 0.53803 0.44046 0.0
C4826 C 0.15786 0.54921 0.42951 0.0
C4827 C 0.1513 0.55053 0.41076 0.0
H4828 H 0.15284 0.53703 0.45497 0.0
H4829 H 0.09018 0.55047 0.27279 0.0
H4830 H 0.7922 0.88633 0.59475 0.0
H4831 H 0.78747 0.87638 0.62605 0.0
H4832 H 0.78819 0.82179 0.6035 0.0
H4833 H 0.7928 0.83148 0.57256 0.0
H4834 H 0.76228 0.82205 0.62546 0.0
H4835 H 0.8244 0.84799 0.62988 0.0
H4836 H 0.85061 0.87166 0.62862 0.0
H4837 H 0.83372 0.90537 0.67253 0.0
H4838 H 0.80722 0.88199 0.67384 0.0
H4839 H 0.79027 0.78 0.70582 0.0
H4840 H 0.78979 0.79443 0.67664 0.0
H4841 H 0.77512 0.84081 0.70622 0.0
H4842 H 0.77462 0.82606 0.73538 0.0
H4843 H 0.80551 0.84728 0.6823 0.0
H4844 H 0.74439 0.81792 0.67939 0.0
H4845 H 0.71939 0.79272 0.67994 0.0
H4846 H 0.73616 0.7635 0.63245 0.0
H4847 H 0.76148 0.78837 0.63184 0.0
C4848 C 0.79122 0.8722 0.59646 0.0
C4849 C 0.79305 0.85978 0.58111 0.0
C4850 C 0.7886 0.86653 0.61439 0.0
C4851 C 0.78761 0.8483 0.61725 0.0
C4852 C 0.78889 0.83589 0.60176 0.0
C4853 C 0.79165 0.84153 0.58403 0.0
C4854 C 0.78567 0.84194 0.6363 0.0
C4855 C 0.77178 0.82756 0.63785 0.0
C4856 C 0.79789 0.84921 0.65264 0.0
C4857 C 0.81368 0.86336 0.65175 0.0
C4858 C 0.82616 0.86054 0.63911 0.0
C4859 C 0.84109 0.87388 0.63842 0.0
C4860 C 0.84379 0.89004 0.65043 0.0
C4861 C 0.83157 0.89287 0.66319 0.0
C4862 C 0.81659 0.87958 0.66391 0.0
C4863 C 0.78654 0.7931 0.70612 0.0
C4864 C 0.78199 0.8016 0.72293 0.0
C4865 C 0.78643 0.8014 0.6894 0.0
C4866 C 0.78224 0.81862 0.68918 0.0
C4867 C 0.77828 0.82746 0.70604 0.0
C4868 C 0.77799 0.81898 0.7227 0.0
C4869 C 0.78225 0.82732 0.6713 0.0
C4870 C 0.79583 0.84202 0.66997 0.0
C4871 C 0.76993 0.82015 0.65506 0.0
C4872 C 0.75495 0.80497 0.65568 0.0
C4873 C 0.74289 0.80604 0.66921 0.0
C4874 C 0.7286 0.79185 0.66947 0.0
C4875 C 0.72615 0.77656 0.65618 0.0
C4876 C 0.73805 0.77538 0.64269 0.0
C4877 C 0.75237 0.78952 0.64239 0.0
H4878 H 0.71508 0.76559 0.65641 0.0
H4879 H 0.85537 0.90035 0.64989 0.0
H4880 H 0.76791 0.466 0.5274 0.0
H4881 H 0.74208 0.47941 0.534 0.0
H4882 H 0.70924 0.4426 0.4889 0.0
H4883 H 0.73488 0.42894 0.48235 0.0
H4884 H 0.70475 0.4807 0.49136 0.0
H4885 H 0.7048 0.43034 0.52751 0.0
H4886 H 0.71819 0.41185 0.54941 0.0
H4887 H 0.72973 0.45665 0.5933 0.0
H4888 H 0.71664 0.47548 0.57154 0.0
H4889 H 0.61872 0.48498 0.52196 0.0
H4890 H 0.64531 0.47735 0.50905 0.0
H4891 H 0.67772 0.50305 0.56093 0.0
H4892 H 0.65104 0.50988 0.57404 0.0
H4893 H 0.68261 0.47053 0.55324 0.0
H4894 H 0.67855 0.52014 0.51676 0.0
H4895 H 0.66599 0.5381 0.49369 0.0
H4896 H 0.66197 0.49474 0.44911 0.0
H4897 H 0.6739 0.47628 0.47198 0.0
C4898 C 0.75521 0.46087 0.51883 0.0
C4899 C 0.75324 0.44636 0.50454 0.0
C4900 C 0.74057 0.46855 0.52255 0.0
C4901 C 0.72395 0.4619 0.51188 0.0
C4902 C 0.72208 0.44787 0.49715 0.0
C4903 C 0.73664 0.44002 0.49359 0.0
C4904 C 0.7082 0.4686 0.51719 0.0
C4905 C 0.69966 0.47844 0.50478 0.0
C4906 C 0.70198 0.46563 0.53476 0.0
C4907 C 0.70996 0.45437 0.54783 0.0
C4908 C 0.71038 0.4363 0.54177 0.0
C4909 C 0.71787 0.42574 0.55417 0.0
C4910 C 0.72486 0.43308 0.57272 0.0
C4911 C 0.72435 0.45099 0.57892 0.0
C4912 C 0.71689 0.46161 0.56656 0.0
C4913 C 0.63159 0.48884 0.53051 0.0
C4914 C 0.63304 0.49749 0.54909 0.0
C4915 C 0.64673 0.4848 0.52306 0.0
C4916 C 0.66345 0.48977 0.53401 0.0
C4917 C 0.66489 0.49907 0.55231 0.0
C4918 C 0.64974 0.50278 0.55987 0.0
C4919 C 0.67908 0.48324 0.52765 0.0
C4920 C 0.68759 0.4731 0.53984 0.0
C4921 C 0.68506 0.48589 0.50975 0.0
C4922 C 0.67691 0.4967 0.49622 0.0
C4923 C 0.67466 0.51428 0.50213 0.0
C4924 C 0.66767 0.52457 0.48905 0.0
C4925 C 0.66307 0.51752 0.46997 0.0
C4926 C 0.66543 0.50016 0.46392 0.0
C4927 C 0.67224 0.48975 0.47695 0.0
H4928 H 0.65774 0.52554 0.45986 0.0
H4929 H 0.73064 0.42488 0.58231 0.0
H4930 H 0.21849 0.13079 0.47968 0.0
H4931 H 0.19137 0.10839 0.4815 0.0
H4932 H 0.18105 0.13981 0.5315 0.0
H4933 H 0.20757 0.16257 0.52918 0.0
H4934 H 0.17991 0.0966 0.5297 0.0
H4935 H 0.15739 0.14582 0.50103 0.0
H4936 H 0.15682 0.16646 0.47643 0.0
H4937 H 0.14328 0.12137 0.43292 0.0
H4938 H 0.14416 0.10046 0.45728 0.0
H4939 H 0.09337 0.05595 0.54629 0.0
H4940 H 0.12175 0.07522 0.54345 0.0
H4941 H 0.11012 0.06625 0.48222 0.0
H4942 H 0.08061 0.04905 0.48542 0.0
H4943 H 0.12407 0.09717 0.48838 0.0
H4944 H 0.14408 0.04726 0.51396 0.0
H4945 H 0.14579 0.02465 0.53635 0.0
H4946 H 0.16566 0.06674 0.58216 0.0
H4947 H 0.16387 0.08961 0.5601 0.0
C4948 C 0.21037 0.13287 0.491 0.0
C4949 C 0.21497 0.14844 0.50419 0.0
C4950 C 0.19495 0.1201 0.49206 0.0
C4951 C 0.18423 0.12244 0.50666 0.0
C4952 C 0.18912 0.13775 0.52013 0.0
C4953 C 0.20419 0.15077 0.51873 0.0
C4954 C 0.16759 0.10926 0.50762 0.0
C4955 C 0.16762 0.09669 0.52077 0.0
C4956 C 0.15179 0.10902 0.49552 0.0
C4957 C 0.15111 0.1216 0.48095 0.0
C4958 C 0.15452 0.14031 0.48621 0.0
C4959 C 0.1541 0.15206 0.47231 0.0
C4960 C 0.15009 0.14523 0.45311 0.0
C4961 C 0.14644 0.12664 0.44779 0.0
C4962 C 0.14691 0.11484 0.46163 0.0
C4963 C 0.09696 0.05813 0.53225 0.0
C4964 C 0.08482 0.05119 0.51607 0.0
C4965 C 0.11339 0.06896 0.53057 0.0
C4966 C 0.11862 0.07207 0.51256 0.0
C4967 C 0.10662 0.06434 0.49633 0.0
C4968 C 0.08978 0.05432 0.4981 0.0
C4969 C 0.13603 0.0841 0.51061 0.0
C4970 C 0.13625 0.09663 0.49726 0.0
C4971 C 0.15222 0.08389 0.52218 0.0
C4972 C 0.15373 0.07015 0.53539 0.0
C4973 C 0.14877 0.05169 0.52882 0.0
C4974 C 0.14974 0.03883 0.54145 0.0
C4975 C 0.1558 0.04426 0.56067 0.0
C4976 C 0.16097 0.06256 0.56728 0.0
C4977 C 0.16001 0.07547 0.55471 0.0
H4978 H 0.1565 0.03429 0.57043 0.0
H4979 H 0.14975 0.15434 0.44237 0.0
H4980 H 0.18818 0.01264 0.79412 0.0
H4981 H 0.20308 0.98684 0.79308 0.0
H4982 H 0.15375 0.95215 0.76808 0.0
H4983 H 0.13849 0.97792 0.77054 0.0
H4984 H 0.16909 0.93453 0.79053 0.0
H4985 H 0.19078 0.96876 0.74186 0.0
H4986 H 0.20437 0.99568 0.72805 0.0
H4987 H 0.25249 1.00013 0.76603 0.0
H4988 H 0.2391 0.97336 0.78022 0.0
H4989 H 0.21081 0.86623 0.74644 0.0
H4990 H 0.19382 0.88913 0.7566 0.0
H4991 H 0.24141 0.92053 0.78947 0.0
H4992 H 0.25843 0.89776 0.77888 0.0
H4993 H 0.22704 0.93933 0.76439 0.0
H4994 H 0.20421 0.90195 0.81073 0.0
H4995 H 0.18974 0.87359 0.82129 0.0
H4996 H 0.1425 0.87328 0.78335 0.0
H4997 H 0.15675 0.90155 0.77241 0.0
C4998 C 0.18054 0.99952 0.78831 0.0
C4999 C 0.16223 0.99731 0.78215 0.0
C5000 C 0.1891 0.98473 0.78763 0.0
C5001 C 0.17975 0.96748 0.77999 0.0
C5002 C 0.16136 0.96526 0.77396 0.0
C5003 C 0.15265 0.98 0.77524 0.0
C5004 C 0.18919 0.95187 0.77826 0.0
C5005 C 0.18166 0.93556 0.7846 0.0
C5006 C 0.20577 0.9531 0.77079 0.0
C5007 C 0.21387 0.96916 0.76222 0.0
C5008 C 0.20422 0.97555 0.74734 0.0
C5009 C 0.21189 0.99077 0.73944 0.0
C5010 C 0.22926 0.99963 0.74619 0.0
C5011 C 0.23902 0.99326 0.76083 0.0
C5012 C 0.23141 0.97806 0.76879 0.0
C5013 C 0.21741 0.87765 0.75651 0.0
C5014 C 0.23581 0.88008 0.76226 0.0
C5015 C 0.20772 0.89077 0.76228 0.0
C5016 C 0.21629 0.90658 0.77388 0.0
C5017 C 0.23448 0.90843 0.78059 0.0
C5018 C 0.24417 0.89533 0.77476 0.0
C5019 C 0.20701 0.92211 0.77675 0.0
C5020 C 0.21454 0.93838 0.77049 0.0
C5021 C 0.19029 0.92065 0.78384 0.0
C5022 C 0.1816 0.90382 0.79067 0.0
C5023 C 0.19077 0.89579 0.80457 0.0
C5024 C 0.18259 0.87974 0.81064 0.0
C5025 C 0.16522 0.87162 0.80297 0.0
C5026 C 0.15595 0.87959 0.78928 0.0
C5027 C 0.16406 0.89564 0.78317 0.0
H5028 H 0.15893 0.85918 0.80766 0.0
H5029 H 0.23518 0.01142 0.74006 0.0
H5030 H 0.337 0.96099 0.00128 0.0
H5031 H 0.36646 0.97912 0.01134 0.0
H5032 H 0.3906 0.93423 0.99304 0.0
H5033 H 0.36104 0.91568 0.98328 0.0
H5034 H 0.40412 0.9491 0.02873 0.0
H5035 H 0.39178 0.96975 0.96802 0.0
H5036 H 0.37483 0.98238 0.94309 0.0
H5037 H 0.37765 0.03072 0.98084 0.0
H5038 H 0.39442 0.01826 0.00611 0.0
H5039 H 0.48971 0.98748 0.01206 0.0
H5040 H 0.46039 0.97214 0.01754 0.0
H5041 H 0.44688 0.02325 0.03653 0.0
H5042 H 0.47629 0.03867 0.03042 0.0
H5043 H 0.42639 0.00766 0.00618 0.0
H5044 H 0.44188 0.98674 0.06642 0.0
H5045 H 0.45939 0.97285 0.08989 0.0
H5046 H 0.45303 0.9249 0.05086 0.0
H5047 H 0.435 0.93814 0.02737 0.0
C5048 C 0.34854 0.95496 0.99916 0.0
C5049 C 0.34668 0.93681 0.99163 0.0
C5050 C 0.36537 0.96539 0.0049 0.0
C5051 C 0.38062 0.95795 0.00298 0.0
C5052 C 0.37889 0.9401 0.99475 0.0
C5053 C 0.36203 0.92959 0.98905 0.0
C5054 C 0.39835 0.96864 0.01018 0.0
C5055 C 0.4091 0.96188 0.02377 0.0
C5056 C 0.40445 0.98555 0.00414 0.0
C5057 C 0.39413 0.99296 0.98905 0.0
C5058 C 0.38861 0.98299 0.97108 0.0
C5059 C 0.37908 0.99014 0.95687 0.0
C5060 C 0.37511 0.00731 0.9604 0.0
C5061 C 0.38069 0.01739 0.97814 0.0
C5062 C 0.39021 0.01029 0.99241 0.0
C5063 C 0.48074 0.99532 0.01818 0.0
C5064 C 0.48499 0.01411 0.02088 0.0
C5065 C 0.46404 0.98655 0.0215 0.0
C5066 C 0.45148 0.99655 0.02759 0.0
C5067 C 0.45643 0.01531 0.03194 0.0
C5068 C 0.47309 0.02409 0.02836 0.0
C5069 C 0.43247 0.98804 0.02458 0.0
C5070 C 0.42134 0.99516 0.01165 0.0
C5071 C 0.42616 0.97138 0.03106 0.0
C5072 C 0.43716 0.96348 0.0451 0.0
C5073 C 0.44429 0.97327 0.06281 0.0
C5074 C 0.45426 0.96551 0.07612 0.0
C5075 C 0.45752 0.94816 0.07178 0.0
C5076 C 0.45055 0.93838 0.05419 0.0
C5077 C 0.44031 0.94592 0.04094 0.0
H5078 H 0.46535 0.94228 0.08209 0.0
H5079 H 0.36775 0.01283 0.94937 0.0
H5080 H 0.84838 0.5441 0.76947 0.0
H5081 H 0.83372 0.56964 0.7644 0.0
H5082 H 0.87308 0.60392 0.80604 0.0
H5083 H 0.88803 0.57856 0.811 0.0
H5084 H 0.83489 0.60558 0.80866 0.0
H5085 H 0.87984 0.61007 0.7662 0.0
H5086 H 0.89667 0.59855 0.7415 0.0
H5087 H 0.84874 0.5847 0.70225 0.0
H5088 H 0.83156 0.59586 0.72684 0.0
H5089 H 0.81939 0.69015 0.77794 0.0
H5090 H 0.82888 0.66436 0.79148 0.0
H5091 H 0.79979 0.62889 0.74303 0.0
H5092 H 0.79093 0.65471 0.72927 0.0
H5093 H 0.83438 0.62877 0.74594 0.0
H5094 H 0.78887 0.62205 0.78845 0.0
H5095 H 0.77097 0.62828 0.81441 0.0
H5096 H 0.81876 0.64499 0.85352 0.0
H5097 H 0.83693 0.63877 0.82783 0.0
C5098 C 0.85386 0.55708 0.77755 0.0
C5099 C 0.86933 0.55951 0.7905 0.0
C5100 C 0.84551 0.57156 0.77466 0.0
C5101 C 0.85247 0.58847 0.78486 0.0
C5102 C 0.86765 0.59086 0.79813 0.0
C5103 C 0.87617 0.57645 0.80081 0.0
C5104 C 0.84411 0.60378 0.78112 0.0
C5105 C 0.83491 0.61096 0.79509 0.0
C5106 C 0.84408 0.61029 0.76328 0.0
C5107 C 0.85438 0.60362 0.74843 0.0
C5108 C 0.87285 0.60439 0.75236 0.0
C5109 C 0.88246 0.59797 0.73837 0.0
C5110 C 0.87377 0.59085 0.72033 0.0
C5111 C 0.85545 0.59019 0.71624 0.0
C5112 C 0.84578 0.59658 0.7302 0.0
C5113 C 0.81484 0.67674 0.77048 0.0
C5114 C 0.8049 0.67417 0.75248 0.0
C5115 C 0.82001 0.66206 0.7783 0.0
C5116 C 0.81501 0.6448 0.76821 0.0
C5117 C 0.80377 0.64216 0.75097 0.0
C5118 C 0.79887 0.65682 0.74305 0.0
C5119 C 0.82442 0.63039 0.77327 0.0
C5120 C 0.83419 0.62352 0.75957 0.0
C5121 C 0.82492 0.62422 0.79137 0.0
C5122 C 0.81424 0.63011 0.80618 0.0
C5123 C 0.79557 0.62735 0.80251 0.0
C5124 C 0.78537 0.63065 0.81723 0.0
C5125 C 0.79372 0.63682 0.83565 0.0
C5126 C 0.8123 0.64004 0.8393 0.0
C5127 C 0.82255 0.63663 0.82467 0.0
H5128 H 0.78579 0.63934 0.84702 0.0
H5129 H 0.88124 0.58589 0.70951 0.0
H5130 H 0.82903 0.66422 0.00039 0.0
H5131 H 0.85396 0.64796 0.00287 0.0
H5132 H 0.82583 0.61227 0.03789 0.0
H5133 H 0.80056 0.62806 0.03493 0.0
H5134 H 0.86597 0.63107 0.05056 0.0
H5135 H 0.82461 0.59342 0.00031 0.0
H5136 H 0.80514 0.58752 0.96979 0.0
H5137 H 0.84975 0.60702 0.94067 0.0
H5138 H 0.86943 0.61334 0.97109 0.0
H5139 H 0.92299 0.56774 0.05532 0.0
H5140 H 0.8951 0.57923 0.0503 0.0
H5141 H 0.91412 0.60505 0.00297 0.0
H5142 H 0.94209 0.5938 0.0082 0.0
H5143 H 0.87788 0.59058 0.99623 0.0
H5144 H 0.91907 0.62902 0.04348 0.0
H5145 H 0.9402 0.63735 0.07273 0.0
H5146 H 0.89824 0.61993 0.1062 0.0
H5147 H 0.8769 0.61114 0.07707 0.0
C5148 C 0.82819 0.65298 0.00871 0.0
C5149 C 0.81286 0.64744 0.01752 0.0
C5150 C 0.8424 0.64366 0.01002 0.0
C5151 C 0.84168 0.62888 0.02048 0.0
C5152 C 0.8266 0.62361 0.0297 0.0
C5153 C 0.8122 0.63264 0.02802 0.0
C5154 C 0.85676 0.61903 0.02187 0.0
C5155 C 0.8684 0.62195 0.03882 0.0
C5156 C 0.86028 0.6077 0.00628 0.0
C5157 C 0.84843 0.6041 0.98803 0.0
C5158 C 0.83022 0.59669 0.98745 0.0
C5159 C 0.81916 0.59321 0.97015 0.0
C5160 C 0.82619 0.59696 0.95331 0.0
C5161 C 0.84431 0.60417 0.95373 0.0
C5162 C 0.85542 0.6077 0.97099 0.0
C5163 C 0.92096 0.57545 0.04355 0.0
C5164 C 0.93457 0.57984 0.03207 0.0
C5165 C 0.90511 0.58212 0.04077 0.0
C5166 C 0.9026 0.59318 0.02639 0.0
C5167 C 0.91575 0.59658 0.01415 0.0
C5168 C 0.93169 0.59014 0.01711 0.0
C5169 C 0.88697 0.60235 0.02506 0.0
C5170 C 0.87533 0.59948 0.00808 0.0
C5171 C 0.88365 0.61405 0.0405 0.0
C5172 C 0.89644 0.61917 0.05806 0.0
C5173 C 0.91438 0.62675 0.05705 0.0
C5174 C 0.9264 0.63159 0.07361 0.0
C5175 C 0.92058 0.6291 0.09131 0.0
C5176 C 0.90274 0.62179 0.09247 0.0
C5177 C 0.89068 0.61686 0.07594 0.0
H5178 H 0.92989 0.6329 0.10412 0.0
H5179 H 0.81761 0.59422 0.93993 0.0
H5180 H 0.18286 0.08302 0.79398 0.0
H5181 H 0.20478 0.11027 0.79224 0.0
H5182 H 0.16363 0.14205 0.79538 0.0
H5183 H 0.14165 0.11495 0.79702 0.0
H5184 H 0.18308 0.15044 0.76712 0.0
H5185 H 0.19546 0.1429 0.83313 0.0
H5186 H 0.20325 0.12677 0.86024 0.0
H5187 H 0.25298 0.12145 0.83957 0.0
H5188 H 0.24536 0.13733 0.81216 0.0
H5189 H 0.23374 0.23906 0.7921 0.0
H5190 H 0.21532 0.20994 0.7945 0.0
H5191 H 0.25659 0.18307 0.77592 0.0
H5192 H 0.27488 0.21218 0.77253 0.0
H5193 H 0.23903 0.17117 0.81095 0.0
H5194 H 0.22663 0.17684 0.74474 0.0
H5195 H 0.2188 0.19137 0.71642 0.0
H5196 H 0.16988 0.19964 0.73723 0.0
H5197 H 0.1774 0.18503 0.76566 0.0
C5198 C 0.17847 0.09581 0.79447 0.0
C5199 C 0.1604 0.09668 0.79564 0.0
C5200 C 0.19107 0.11143 0.79353 0.0
C5201 C 0.18593 0.1283 0.79375 0.0
C5202 C 0.16797 0.12923 0.79515 0.0
C5203 C 0.15539 0.11367 0.79617 0.0
C5204 C 0.19899 0.14492 0.79176 0.0
C5205 C 0.19519 0.15503 0.77689 0.0
C5206 C 0.21517 0.1507 0.80405 0.0
C5207 C 0.21974 0.14111 0.82047 0.0
C5208 C 0.20798 0.13814 0.83426 0.0
C5209 C 0.21238 0.12907 0.8497 0.0
C5210 C 0.22857 0.12304 0.8516 0.0
C5211 C 0.24042 0.1261 0.83807 0.0
C5212 C 0.23607 0.13514 0.82258 0.0
C5213 C 0.23906 0.22705 0.78857 0.0
C5214 C 0.25606 0.22818 0.78231 0.0
C5215 C 0.22843 0.21035 0.78995 0.0
C5216 C 0.23458 0.19433 0.78545 0.0
C5217 C 0.25163 0.19529 0.77959 0.0
C5218 C 0.26215 0.21202 0.77779 0.0
C5219 C 0.22289 0.17667 0.78654 0.0
C5220 C 0.22694 0.16645 0.8012 0.0
C5221 C 0.20697 0.17067 0.77404 0.0
C5222 C 0.20267 0.18005 0.7574 0.0
C5223 C 0.21429 0.18193 0.74337 0.0
C5224 C 0.20986 0.19006 0.72724 0.0
C5225 C 0.19387 0.19647 0.72505 0.0
C5226 C 0.18227 0.19469 0.73896 0.0
C5227 C 0.18658 0.18643 0.75505 0.0
H5228 H 0.19049 0.20281 0.71257 0.0
H5229 H 0.23196 0.11604 0.86357 0.0
H5230 H 0.36765 0.96895 0.26815 0.0
H5231 H 0.34763 0.93986 0.2602 0.0
H5232 H 0.35868 0.92793 0.31783 0.0
H5233 H 0.37981 0.95662 0.32534 0.0
H5234 H 0.35887 0.90016 0.29599 0.0
H5235 H 0.31785 0.94118 0.29853 0.0
H5236 H 0.30434 0.96708 0.29065 0.0
H5237 H 0.2936 0.9447 0.232 0.0
H5238 H 0.30722 0.91877 0.23949 0.0
H5239 H 0.28281 0.83497 0.29929 0.0
H5240 H 0.29648 0.86649 0.29953 0.0
H5241 H 0.31297 0.85444 0.2443 0.0
H5242 H 0.29901 0.82281 0.24395 0.0
H5243 H 0.29769 0.89363 0.26247 0.0
H5244 H 0.34617 0.85498 0.26328 0.0
H5245 H 0.35501 0.82776 0.27464 0.0
H5246 H 0.34622 0.84595 0.33134 0.0
H5247 H 0.33759 0.87327 0.32033 0.0
C5248 C 0.36575 0.96005 0.27907 0.0
C5249 C 0.37512 0.96482 0.29732 0.0
C5250 C 0.3542 0.94354 0.27459 0.0
C5251 C 0.35133 0.93188 0.28852 0.0
C5252 C 0.36069 0.93674 0.30685 0.0
C5253 C 0.37271 0.95304 0.31116 0.0
C5254 C 0.33919 0.91427 0.28376 0.0
C5255 C 0.34552 0.8989 0.28868 0.0
C5256 C 0.32173 0.91243 0.2741 0.0
C5257 C 0.31373 0.92814 0.26955 0.0
C5258 C 0.31275 0.94187 0.28393 0.0
C5259 C 0.30504 0.95653 0.27954 0.0
C5260 C 0.29816 0.95756 0.26083 0.0
C5261 C 0.29896 0.9439 0.24648 0.0
C5262 C 0.30665 0.92922 0.25079 0.0
C5263 C 0.28887 0.8391 0.28695 0.0
C5264 C 0.29032 0.82644 0.27172 0.0
C5265 C 0.29655 0.85709 0.28707 0.0
C5266 C 0.30561 0.86259 0.27192 0.0
C5267 C 0.3059 0.85029 0.25604 0.0
C5268 C 0.29828 0.83224 0.25599 0.0
C5269 C 0.31761 0.88007 0.27459 0.0
C5270 C 0.31121 0.89521 0.26943 0.0
C5271 C 0.33486 0.88186 0.28428 0.0
C5272 C 0.3414 0.86615 0.29104 0.0
C5273 C 0.34635 0.85321 0.2782 0.0
C5274 C 0.35131 0.83777 0.28457 0.0
C5275 C 0.35134 0.83518 0.30374 0.0
C5276 C 0.34643 0.84803 0.31656 0.0
C5277 C 0.34158 0.86353 0.31029 0.0
H5278 H 0.35514 0.82321 0.30867 0.0
H5279 H 0.29219 0.96891 0.25746 0.0
H5280 H 0.55149 0.32979 0.5644 0.0
H5281 H 0.54788 0.35828 0.55238 0.0
H5282 H 0.55722 0.38493 0.60973 0.0
H5283 H 0.55999 0.35634 0.62169 0.0
H5284 H 0.53398 0.39932 0.59409 0.0
H5285 H 0.58872 0.3891 0.57121 0.0
H5286 H 0.60809 0.37228 0.55393 0.0
H5287 H 0.57396 0.37032 0.50185 0.0
H5288 H 0.55428 0.38696 0.51887 0.0
H5289 H 0.54764 0.4901 0.57054 0.0
H5290 H 0.55111 0.46107 0.58105 0.0
H5291 H 0.53678 0.43563 0.52347 0.0
H5292 H 0.53424 0.46491 0.51281 0.0
H5293 H 0.56173 0.42042 0.53843 0.0
H5294 H 0.50775 0.43209 0.56158 0.0
H5295 H 0.4891 0.44958 0.57917 0.0
H5296 H 0.52257 0.44942 0.63116 0.0
H5297 H 0.54156 0.4321 0.6139 0.0
C5298 C 0.55295 0.34172 0.57449 0.0
C5299 C 0.55621 0.34043 0.59415 0.0
C5300 C 0.55097 0.35829 0.56754 0.0
C5301 C 0.55253 0.37448 0.57989 0.0
C5302 C 0.55586 0.37308 0.59954 0.0
C5303 C 0.55759 0.35651 0.60647 0.0
C5304 C 0.55043 0.39262 0.57266 0.0
C5305 C 0.54035 0.40389 0.58206 0.0
C5306 C 0.55813 0.39906 0.55659 0.0
C5307 C 0.56994 0.38911 0.54635 0.0
C5308 C 0.5853 0.38498 0.55609 0.0
C5309 C 0.59634 0.3755 0.54634 0.0
C5310 C 0.59223 0.37019 0.52682 0.0
C5311 C 0.57711 0.37441 0.51698 0.0
C5312 C 0.56601 0.38388 0.52667 0.0
C5313 C 0.54522 0.47839 0.56 0.0
C5314 C 0.54026 0.48018 0.54071 0.0
C5315 C 0.54706 0.46152 0.56613 0.0
C5316 C 0.54386 0.44552 0.55332 0.0
C5317 C 0.53925 0.44738 0.53397 0.0
C5318 C 0.53754 0.46429 0.52782 0.0
C5319 C 0.54547 0.4271 0.56 0.0
C5320 C 0.5554 0.41581 0.55047 0.0
C5321 C 0.53771 0.42068 0.576 0.0
C5322 C 0.52617 0.43091 0.58642 0.0
C5323 C 0.5112 0.43586 0.57675 0.0
C5324 C 0.50056 0.44574 0.58665 0.0
C5325 C 0.50468 0.45065 0.60624 0.0
C5326 C 0.51941 0.44563 0.61598 0.0
C5327 C 0.5301 0.43576 0.60616 0.0
H5328 H 0.49644 0.45831 0.61386 0.0
H5329 H 0.60079 0.36284 0.51929 0.0
H5330 H 0.43488 0.75742 0.42563 0.0
H5331 H 0.40892 0.75745 0.40267 0.0
H5332 H 0.44367 0.77456 0.36135 0.0
H5333 H 0.46986 0.77414 0.38424 0.0
H5334 H 0.41599 0.79542 0.36595 0.0
H5335 H 0.42097 0.73315 0.35478 0.0
H5336 H 0.423 0.70295 0.3636 0.0
H5337 H 0.37246 0.69915 0.38546 0.0
H5338 H 0.37026 0.72946 0.37705 0.0
H5339 H 0.34591 0.79047 0.29081 0.0
H5340 H 0.37293 0.78844 0.31101 0.0
H5341 H 0.34134 0.75509 0.34558 0.0
H5342 H 0.31441 0.75605 0.32451 0.0
H5343 H 0.36854 0.74209 0.34363 0.0
H5344 H 0.36432 0.8033 0.3613 0.0
H5345 H 0.36194 0.83485 0.35837 0.0
H5346 H 0.40858 0.84167 0.32915 0.0
H5347 H 0.41142 0.8102 0.33227 0.0
C5348 C 0.43709 0.761 0.41159 0.0
C5349 C 0.45462 0.76571 0.40688 0.0
C5350 C 0.42214 0.76098 0.3984 0.0
C5351 C 0.42415 0.76597 0.38012 0.0
C5352 C 0.44163 0.77062 0.37529 0.0
C5353 C 0.45665 0.77027 0.38839 0.0
C5354 C 0.40802 0.76694 0.36647 0.0
C5355 C 0.40578 0.78367 0.36078 0.0
C5356 C 0.39417 0.75185 0.36027 0.0
C5357 C 0.39555 0.73367 0.36546 0.0
C5358 C 0.41038 0.72596 0.36165 0.0
C5359 C 0.41154 0.7088 0.36654 0.0
C5360 C 0.3979 0.69916 0.37514 0.0
C5361 C 0.38304 0.70665 0.37884 0.0
C5362 C 0.38182 0.72381 0.374 0.0
C5363 C 0.34464 0.7826 0.30264 0.0
C5364 C 0.3277 0.77362 0.306 0.0
C5365 C 0.36024 0.78167 0.31449 0.0
C5366 C 0.35952 0.77192 0.33037 0.0
C5367 C 0.34259 0.76284 0.33364 0.0
C5368 C 0.32701 0.7636 0.32164 0.0
C5369 C 0.37631 0.77069 0.34309 0.0
C5370 C 0.37872 0.75389 0.34865 0.0
C5371 C 0.3901 0.78582 0.34966 0.0
C5372 C 0.38795 0.80437 0.34681 0.0
C5373 C 0.37396 0.81149 0.35409 0.0
C5374 C 0.3726 0.82938 0.3525 0.0
C5375 C 0.38505 0.84025 0.3435 0.0
C5376 C 0.39893 0.83324 0.33611 0.0
C5377 C 0.40048 0.8154 0.33786 0.0
H5378 H 0.38396 0.8541 0.34226 0.0
H5379 H 0.39881 0.68587 0.3789 0.0
H5380 H 0.05149 0.73897 0.05694 0.0
H5381 H 0.04717 0.70615 0.04969 0.0
H5382 H 0.04787 0.70052 0.10928 0.0
H5383 H 0.05156 0.73348 0.11663 0.0
H5384 H 0.07382 0.68169 0.08043 0.0
H5385 H 0.01335 0.68593 0.09384 0.0
H5386 H 0.98541 0.69759 0.08905 0.0
H5387 H 0.97909 0.67785 0.0297 0.0
H5388 H 1.00717 0.66636 0.03409 0.0
H5389 H 0.06151 0.58564 0.06751 0.0
H5390 H 0.06329 0.61739 0.07821 0.0
H5391 H 0.02191 0.61996 0.03334 0.0
H5392 H 0.01881 0.58758 0.02424 0.0
H5393 H 0.01616 0.64134 0.05658 0.0
H5394 H 0.0759 0.64395 0.03835 0.0
H5395 H 0.10576 0.63632 0.03757 0.0
H5396 H 0.11469 0.64431 0.09858 0.0
H5397 H 0.08517 0.65287 0.09963 0.0
C5398 C 0.05049 0.73082 0.06858 0.0
C5399 C 0.0518 0.73917 0.08744 0.0
C5400 C 0.04803 0.71191 0.06435 0.0
C5401 C 0.04715 0.70055 0.07884 0.0
C5402 C 0.0484 0.70878 0.09772 0.0
C5403 C 0.05043 0.72773 0.10193 0.0
C5404 C 0.04564 0.68032 0.07417 0.0
C5405 C 0.06115 0.67282 0.07551 0.0
C5406 C 0.02934 0.66859 0.06686 0.0
C5407 C 0.01248 0.6755 0.06426 0.0
C5408 C 1.00613 0.68428 0.07973 0.0
C5409 C 0.99023 0.69081 0.0771 0.0
C5410 C 0.98051 0.68851 0.05907 0.0
C5411 C 0.98664 0.67965 0.04365 0.0
C5412 C 1.00255 0.67312 0.0462 0.0
C5413 C 0.05282 0.59294 0.05986 0.0
C5414 C 0.04006 0.5838 0.04489 0.0
C5415 C 0.05404 0.6115 0.06583 0.0
C5416 C 0.0432 0.62205 0.05643 0.0
C5417 C 0.03058 0.61277 0.04122 0.0
C5418 C 0.02887 0.59405 0.0358 0.0
C5419 C 0.04451 0.64231 0.06262 0.0
C5420 C 0.02894 0.64997 0.06153 0.0
C5421 C 0.06088 0.65437 0.06953 0.0
C5422 C 0.07831 0.64877 0.06906 0.0
C5423 C 0.08422 0.64399 0.05158 0.0
C5424 C 0.10111 0.63961 0.0511 0.0
C5425 C 0.11203 0.63957 0.06803 0.0
C5426 C 0.1062 0.64426 0.08548 0.0
C5427 C 0.08948 0.64907 0.08603 0.0
H5428 H 0.12505 0.636 0.06761 0.0
H5429 H 0.9682 0.69356 0.05707 0.0
H5430 H 0.07038 0.26174 0.92972 0.0
H5431 H 0.09692 0.26253 0.91306 0.0
H5432 H 0.06888 0.27963 0.8645 0.0
H5433 H 0.04199 0.2771 0.88051 0.0
H5434 H 0.08734 0.26027 0.85071 0.0
H5435 H 0.10449 0.30855 0.90254 0.0
H5436 H 0.10969 0.32203 0.93607 0.0
H5437 H 0.14641 0.28702 0.94873 0.0
H5438 H 0.14129 0.27324 0.91533 0.0
H5439 H 0.16471 0.29761 0.80823 0.0
H5440 H 0.1372 0.29104 0.82318 0.0
H5441 H 0.16518 0.26785 0.86721 0.0
H5442 H 0.19279 0.27514 0.8526 0.0
H5443 H 0.14717 0.28897 0.88324 0.0
H5444 H 0.131 0.24248 0.8299 0.0
H5445 H 0.12614 0.23056 0.79591 0.0
H5446 H 0.08774 0.26435 0.78555 0.0
H5447 H 0.09251 0.27661 0.81943 0.0
C5448 C 0.06991 0.26556 0.91544 0.0
C5449 C 0.05406 0.26935 0.90646 0.0
C5450 C 0.08522 0.26626 0.90592 0.0
C5451 C 0.0854 0.27167 0.8875 0.0
C5452 C 0.06941 0.27538 0.87859 0.0
C5453 C 0.05395 0.274 0.88782 0.0
C5454 C 0.10196 0.27337 0.87734 0.0
C5455 C 0.10034 0.26681 0.85789 0.0
C5456 C 0.11927 0.28143 0.88645 0.0
C5457 C 0.12237 0.28976 0.9065 0.0
C5458 C 0.11359 0.30368 0.91251 0.0
C5459 C 0.11654 0.31137 0.93148 0.0
C5460 C 0.12834 0.30535 0.94453 0.0
C5461 C 0.13726 0.29166 0.93862 0.0
C5462 C 0.13435 0.28391 0.91968 0.0
C5463 C 0.16481 0.2906 0.82077 0.0
C5464 C 0.18083 0.28652 0.829 0.0
C5465 C 0.14904 0.28686 0.8294 0.0
C5466 C 0.14883 0.27871 0.84637 0.0
C5467 C 0.16479 0.27412 0.85419 0.0
C5468 C 0.18057 0.27808 0.84571 0.0
C5469 C 0.13245 0.27606 0.85667 0.0
C5470 C 0.13414 0.28243 0.87613 0.0
C5471 C 0.1152 0.26806 0.8475 0.0
C5472 C 0.11222 0.26055 0.82718 0.0
C5473 C 0.12159 0.24743 0.82035 0.0
C5474 C 0.11884 0.2406 0.80111 0.0
C5475 C 0.10667 0.24672 0.78858 0.0
C5476 C 0.09717 0.25963 0.79527 0.0
C5477 C 0.09987 0.2665 0.81449 0.0
H5478 H 0.10457 0.24142 0.77369 0.0
H5479 H 0.13059 0.31132 0.95921 0.0
H5480 H 0.56167 0.76916 0.91636 0.0
H5481 H 0.56085 0.74013 0.92873 0.0
H5482 H 0.52439 0.71415 0.87987 0.0
H5483 H 0.52547 0.74335 0.86727 0.0
H5484 H 0.51209 0.70612 0.9141 0.0
H5485 H 0.5658 0.70519 0.88559 0.0
H5486 H 0.59611 0.71743 0.87863 0.0
H5487 H 0.61571 0.7217 0.93785 0.0
H5488 H 0.58544 0.70972 0.94521 0.0
H5489 H 0.50461 0.61941 0.94046 0.0
H5490 H 0.51388 0.6441 0.92183 0.0
H5491 H 0.55032 0.672 0.96986 0.0
H5492 H 0.54108 0.64707 0.98855 0.0
H5493 H 0.56351 0.67823 0.93477 0.0
H5494 H 0.51067 0.68173 0.96397 0.0
H5495 H 0.48068 0.67006 0.9722 0.0
H5496 H 0.45975 0.6624 0.91315 0.0
H5497 H 0.48973 0.67371 0.90452 0.0
C5498 C 0.55396 0.75715 0.90793 0.0
C5499 C 0.54393 0.7585 0.89064 0.0
C5500 C 0.55343 0.74053 0.91506 0.0
C5501 C 0.5426 0.7248 0.90527 0.0
C5502 C 0.53293 0.72602 0.88769 0.0
C5503 C 0.5337 0.74268 0.88036 0.0
C5504 C 0.54037 0.70756 0.91421 0.0
C5505 C 0.52331 0.69985 0.91822 0.0
C5506 C 0.55505 0.69962 0.92034 0.0
C5507 C 0.57331 0.70669 0.91597 0.0
C5508 C 0.57654 0.70887 0.89715 0.0
C5509 C 0.59372 0.71574 0.89313 0.0
C5510 C 0.60782 0.72038 0.9078 0.0
C5511 C 0.60477 0.71811 0.92651 0.0
C5512 C 0.58761 0.71126 0.93061 0.0
C5513 C 0.5151 0.6305 0.94682 0.0
C5514 C 0.52223 0.63121 0.96592 0.0
C5515 C 0.52029 0.64471 0.9362 0.0
C5516 C 0.5326 0.66015 0.94447 0.0
C5517 C 0.54081 0.66028 0.9631 0.0
C5518 C 0.53561 0.64597 0.97376 0.0
C5519 C 0.53521 0.67674 0.93441 0.0
C5520 C 0.5523 0.68441 0.9304 0.0
C5521 C 0.5206 0.68483 0.92845 0.0
C5522 C 0.50248 0.67839 0.93358 0.0
C5523 C 0.4997 0.67745 0.95272 0.0
C5524 C 0.4827 0.6709 0.95746 0.0
C5525 C 0.46833 0.66545 0.9432 0.0
C5526 C 0.47091 0.6666 0.92418 0.0
C5527 C 0.4879 0.67308 0.91935 0.0
H5528 H 0.45518 0.66038 0.9469 0.0
H5529 H 0.62112 0.7257 0.90465 0.0
H5530 H 0.07125 0.76508 0.72738 0.0
H5531 H 0.10158 0.76514 0.74323 0.0
H5532 H 0.12156 0.76356 0.68881 0.0
H5533 H 0.09218 0.76329 0.67329 0.0
H5534 H 0.13613 0.74176 0.70671 0.0
H5535 H 0.12863 0.80264 0.72404 0.0
H5536 H 0.11548 0.82698 0.73912 0.0
H5537 H 0.12628 0.80911 0.79372 0.0
H5538 H 0.13928 0.7845 0.77891 0.0
H5539 H 0.23048 0.77715 0.72653 0.0
H5540 H 0.19826 0.77435 0.71798 0.0
H5541 H 0.18893 0.75909 0.77326 0.0
H5542 H 0.22127 0.7613 0.78173 0.0
H5543 H 0.16824 0.78716 0.75913 0.0
H5544 H 0.17911 0.72833 0.74134 0.0
H5545 H 0.19382 0.70558 0.72572 0.0
H5546 H 0.17686 0.72032 0.67111 0.0
H5547 H 0.16261 0.74364 0.68642 0.0
C5548 C 0.08208 0.7647 0.7188 0.0
C5549 C 0.07875 0.7643 0.69884 0.0
C5550 C 0.09962 0.76485 0.72793 0.0
C5551 C 0.11439 0.76444 0.7174 0.0
C5552 C 0.11084 0.76382 0.69759 0.0
C5553 C 0.09366 0.76379 0.68863 0.0
C5554 C 0.13351 0.7644 0.72622 0.0
C5555 C 0.14304 0.75185 0.71811 0.0
C5556 C 0.14295 0.77712 0.7415 0.0
C5557 C 0.13467 0.79156 0.75032 0.0
C5558 C 0.12799 0.80376 0.73922 0.0
C5559 C 0.12061 0.81764 0.74773 0.0
C5560 C 0.11998 0.81955 0.76736 0.0
C5561 C 0.12672 0.80758 0.77852 0.0
C5562 C 0.13409 0.79366 0.77007 0.0
C5563 C 0.22166 0.77312 0.73694 0.0
C5564 C 0.22881 0.76943 0.75489 0.0
C5565 C 0.20307 0.77154 0.73199 0.0
C5566 C 0.19079 0.76662 0.74491 0.0
C5567 C 0.19787 0.76304 0.76294 0.0
C5568 C 0.21649 0.76418 0.76774 0.0
C5569 C 0.17075 0.76483 0.73925 0.0
C5570 C 0.16117 0.77701 0.74787 0.0
C5571 C 0.16124 0.75185 0.72434 0.0
C5572 C 0.16998 0.73794 0.71507 0.0
C5573 C 0.17876 0.72695 0.72602 0.0
C5574 C 0.18702 0.71393 0.71721 0.0
C5575 C 0.18639 0.71158 0.69744 0.0
C5576 C 0.17748 0.72224 0.68643 0.0
C5577 C 0.16932 0.73539 0.69517 0.0
H5578 H 0.19273 0.70144 0.69065 0.0
H5579 H 0.11432 0.83034 0.77393 0.0
H5580 H 0.03824 0.34155 0.41375 0.0
H5581 H 0.0359 0.36951 0.43241 0.0
H5582 H 0.05255 0.39938 0.38684 0.0
H5583 H 0.05497 0.37112 0.3679 0.0
H5584 H 0.06937 0.41643 0.4222 0.0
H5585 H 1.0087 0.39153 0.39547 0.0
H5586 H 0.98192 0.36757 0.38841 0.0
H5587 H 0.97946 0.36531 0.44813 0.0
H5588 H 1.00638 0.38908 0.45554 0.0
H5589 H 0.05049 0.49861 0.46553 0.0
H5590 H 0.05235 0.47218 0.44398 0.0
H5591 H 0.02362 0.43792 0.47995 0.0
H5592 H 0.02011 0.4644 0.50037 0.0
H5593 H 0.01287 0.42333 0.44776 0.0
H5594 H 0.07327 0.44525 0.47578 0.0
H5595 H 0.10087 0.46788 0.48495 0.0
H5596 H 0.10521 0.47417 0.42622 0.0
H5597 H 0.07752 0.45169 0.41671 0.0
C5598 C 0.04134 0.354 0.40752 0.0
C5599 C 0.04668 0.35389 0.38912 0.0
C5600 C 0.03995 0.3701 0.4183 0.0
C5601 C 0.04384 0.38677 0.41114 0.0
C5602 C 0.0494 0.3868 0.39282 0.0
C5603 C 0.05069 0.37057 0.38191 0.0
C5604 C 0.04204 0.40397 0.42284 0.0
C5605 C 0.05692 0.41804 0.42753 0.0
C5606 C 0.02603 0.40607 0.4305 0.0
C5607 C 0.00964 0.39201 0.42605 0.0
C5608 C 1.0025 0.38586 0.40709 0.0
C5609 C 0.98729 0.37232 0.40303 0.0
C5610 C 0.97901 0.3649 0.41781 0.0
C5611 C 0.98589 0.37106 0.43669 0.0
C5612 C 1.00111 0.38459 0.44083 0.0
C5613 C 0.04441 0.48548 0.46884 0.0
C5614 C 0.03524 0.48392 0.485 0.0
C5615 C 0.04574 0.47018 0.45654 0.0
C5616 C 0.03858 0.45261 0.46031 0.0
C5617 C 0.02941 0.45107 0.47645 0.0
C5618 C 0.02761 0.46639 0.48842 0.0
C5619 C 0.0403 0.43593 0.44743 0.0
C5620 C 0.02537 0.42188 0.44248 0.0
C5621 C 0.0564 0.43369 0.43991 0.0
C5622 C 0.07324 0.44691 0.44555 0.0
C5623 C 0.08008 0.4515 0.46483 0.0
C5624 C 0.09574 0.4643 0.47008 0.0
C5625 C 0.10476 0.47249 0.45618 0.0
C5626 C 0.0982 0.46783 0.43698 0.0
C5627 C 0.08253 0.45504 0.43164 0.0
H5628 H 0.11686 0.48243 0.46027 0.0
H5629 H 0.96725 0.3544 0.41464 0.0
H5630 H 0.48205 0.26804 0.23127 0.0
H5631 H 0.45363 0.27186 0.24239 0.0
H5632 H 0.42553 0.24264 0.18994 0.0
H5633 H 0.45412 0.2405 0.17824 0.0
H5634 H 0.40683 0.26383 0.19687 0.0
H5635 H 0.42995 0.22827 0.24359 0.0
H5636 H 0.45208 0.22203 0.26847 0.0
H5637 H 0.44995 0.27173 0.3017 0.0
H5638 H 0.42792 0.27832 0.27695 0.0
H5639 H 0.31981 0.2526 0.22823 0.0
H5640 H 0.34849 0.24848 0.21817 0.0
H5641 H 0.37565 0.28087 0.26931 0.0
H5642 H 0.34688 0.28331 0.28019 0.0
H5643 H 0.39476 0.25872 0.26331 0.0
H5644 H 0.37097 0.29378 0.21771 0.0
H5645 H 0.3485 0.30026 0.19336 0.0
H5646 H 0.35185 0.252 0.15825 0.0
H5647 H 0.37415 0.2451 0.1825 0.0
C5648 C 0.46982 0.26217 0.22218 0.0
C5649 C 0.47071 0.25362 0.20387 0.0
C5650 C 0.45324 0.26422 0.22868 0.0
C5651 C 0.43659 0.25711 0.21754 0.0
C5652 C 0.43765 0.24841 0.19925 0.0
C5653 C 0.45423 0.24696 0.19251 0.0
C5654 C 0.41832 0.25906 0.22437 0.0
C5655 C 0.40432 0.26235 0.21139 0.0
C5656 C 0.41434 0.25791 0.24346 0.0
C5657 C 0.42742 0.25384 0.25837 0.0
C5658 C 0.43425 0.23787 0.25618 0.0
C5659 C 0.44677 0.23428 0.27026 0.0
C5660 C 0.45245 0.2465 0.28663 0.0
C5661 C 0.44556 0.26229 0.289 0.0
C5662 C 0.43304 0.26595 0.27498 0.0
C5663 C 0.33182 0.25879 0.23749 0.0
C5664 C 0.33054 0.26869 0.25503 0.0
C5665 C 0.34854 0.25667 0.23149 0.0
C5666 C 0.36497 0.26484 0.24242 0.0
C5667 C 0.36364 0.27444 0.26014 0.0
C5668 C 0.3469 0.27614 0.26635 0.0
C5669 C 0.38331 0.2632 0.23576 0.0
C5670 C 0.3973 0.26007 0.24876 0.0
C5671 C 0.38728 0.26453 0.21671 0.0
C5672 C 0.37413 0.26886 0.20198 0.0
C5673 C 0.36687 0.28452 0.20482 0.0
C5674 C 0.35416 0.28827 0.19104 0.0
C5675 C 0.34874 0.27654 0.17428 0.0
C5676 C 0.35606 0.26107 0.17124 0.0
C5677 C 0.36874 0.25724 0.18499 0.0
H5678 H 0.33889 0.27945 0.16364 0.0
H5679 H 0.46216 0.2437 0.29749 0.0
H5680 H 0.59545 0.53996 0.32288 0.0
H5681 H 0.58165 0.53784 0.35223 0.0
H5682 H 0.63335 0.54136 0.38387 0.0
H5683 H 0.6472 0.54293 0.35433 0.0
H5684 H 0.6098 0.51586 0.39547 0.0
H5685 H 0.60952 0.57772 0.38385 0.0
H5686 H 0.60235 0.60134 0.36458 0.0
H5687 H 0.54656 0.57854 0.36041 0.0
H5688 H 0.55341 0.55466 0.37944 0.0
H5689 H 0.5817 0.52747 0.48704 0.0
H5690 H 0.59636 0.53085 0.45838 0.0
H5691 H 0.54628 0.53454 0.42698 0.0
H5692 H 0.5319 0.53256 0.4559 0.0
H5693 H 0.5694 0.55661 0.41525 0.0
H5694 H 0.56731 0.49477 0.42376 0.0
H5695 H 0.57184 0.4694 0.4416 0.0
H5696 H 0.62833 0.48915 0.44944 0.0
H5697 H 0.62418 0.51481 0.43182 0.0
C5698 C 0.60394 0.54045 0.33609 0.0
C5699 C 0.62248 0.54174 0.33621 0.0
C5700 C 0.596 0.53929 0.35295 0.0
C5701 C 0.60641 0.5397 0.37047 0.0
C5702 C 0.62496 0.54105 0.37062 0.0
C5703 C 0.6329 0.54205 0.35371 0.0
C5704 C 0.59794 0.53842 0.38852 0.0
C5705 C 0.60118 0.52496 0.39992 0.0
C5706 C 0.5861 0.54979 0.39412 0.0
C5707 C 0.582 0.56433 0.38295 0.0
C5708 C 0.59574 0.5777 0.37874 0.0
C5709 C 0.59173 0.59114 0.36787 0.0
C5710 C 0.57402 0.59142 0.36125 0.0
C5711 C 0.56027 0.5783 0.36554 0.0
C5712 C 0.56421 0.56483 0.37638 0.0
C5713 C 0.57379 0.52904 0.47405 0.0
C5714 C 0.55555 0.52964 0.47389 0.0
C5715 C 0.58219 0.5308 0.45752 0.0
C5716 C 0.57246 0.53257 0.44017 0.0
C5717 C 0.55422 0.53318 0.44003 0.0
C5718 C 0.54593 0.53189 0.45664 0.0
C5719 C 0.58122 0.53402 0.42227 0.0
C5720 C 0.57804 0.5475 0.41087 0.0
C5721 C 0.59273 0.52238 0.41641 0.0
C5722 C 0.59541 0.50677 0.42659 0.0
C5723 C 0.58071 0.49374 0.42934 0.0
C5724 C 0.58322 0.47932 0.43942 0.0
C5725 C 0.60038 0.47771 0.44669 0.0
C5726 C 0.61508 0.49047 0.44381 0.0
C5727 C 0.61266 0.50493 0.43375 0.0
H5728 H 0.60231 0.46656 0.45452 0.0
H5729 H 0.57095 0.60182 0.35281 0.0
H5730 H 0.2858 0.91922 0.05296 0.0
H5731 H 0.28221 0.91042 0.08472 0.0
H5732 H 0.29773 0.85982 0.06807 0.0
H5733 H 0.30122 0.86831 0.03648 0.0
H5734 H 0.26778 0.85551 0.08572 0.0
H5735 H 0.32677 0.89351 0.09403 0.0
H5736 H 0.34852 0.9217 0.09456 0.0
H5737 H 0.32088 0.94845 0.1348 0.0
H5738 H 0.29883 0.92043 0.13432 0.0
H5739 H 0.32195 0.82196 0.15147 0.0
H5740 H 0.30581 0.83491 0.12652 0.0
H5741 H 0.28619 0.86815 0.16918 0.0
H5742 H 0.30202 0.85473 0.19427 0.0
H5743 H 0.30714 0.88644 0.14327 0.0
H5744 H 0.2548 0.84143 0.14062 0.0
H5745 H 0.23559 0.81146 0.13863 0.0
H5746 H 0.25497 0.79514 0.0864 0.0
H5747 H 0.27444 0.82484 0.08817 0.0
C5748 C 0.28848 0.90623 0.05609 0.0
C5749 C 0.29373 0.89441 0.04217 0.0
C5750 C 0.2864 0.90126 0.07421 0.0
C5751 C 0.28959 0.88446 0.07858 0.0
C5752 C 0.295 0.87278 0.06481 0.0
C5753 C 0.29707 0.87769 0.04678 0.0
C5754 C 0.28754 0.87872 0.09749 0.0
C5755 C 0.27629 0.86226 0.09841 0.0
C5756 C 0.29811 0.88803 0.11407 0.0
C5757 C 0.31096 0.905 0.11384 0.0
C5758 C 0.32518 0.90548 0.10277 0.0
C5759 C 0.3376 0.9214 0.10312 0.0
C5760 C 0.33603 0.93688 0.11463 0.0
C5761 C 0.32203 0.93647 0.12583 0.0
C5762 C 0.30956 0.92058 0.12551 0.0
C5763 C 0.31397 0.83184 0.15542 0.0
C5764 C 0.31334 0.83768 0.17455 0.0
C5765 C 0.30457 0.83901 0.14127 0.0
C5766 C 0.29464 0.85226 0.14611 0.0
C5767 C 0.29358 0.85773 0.16527 0.0
C5768 C 0.30272 0.85026 0.17948 0.0
C5769 C 0.28846 0.86246 0.13111 0.0
C5770 C 0.29803 0.87995 0.13089 0.0
C5771 C 0.27688 0.85375 0.11494 0.0
C5772 C 0.26606 0.83543 0.11453 0.0
C5773 C 0.25513 0.83138 0.12884 0.0
C5774 C 0.24414 0.81444 0.1277 0.0
C5775 C 0.24401 0.80145 0.11234 0.0
C5776 C 0.25503 0.80525 0.09824 0.0
C5777 C 0.26602 0.82214 0.09929 0.0
H5778 H 0.23533 0.78844 0.11125 0.0
H5779 H 0.34569 0.94918 0.11493 0.0
H5780 H 0.9384 0.51994 0.83795 0.0
H5781 H 0.95337 0.51831 0.86914 0.0
H5782 H 0.90328 0.51423 0.89266 0.0
H5783 H 0.88799 0.51627 0.86113 0.0
H5784 H 0.93149 0.54094 0.91182 0.0
H5785 H 0.92198 0.47749 0.88835 0.0
H5786 H 0.92264 0.45295 0.86319 0.0
H5787 H 0.97925 0.46988 0.86478 0.0
H5788 H 0.97892 0.49463 0.88975 0.0
H5789 H 0.98794 0.5431 0.99639 0.0
H5790 H 0.96348 0.53629 0.9713 0.0
H5791 H 0.99803 0.51608 0.93335 0.0
H5792 H 0.02085 0.51826 0.96009 0.0
H5793 H 0.97043 0.49682 0.9245 0.0
H5794 H 0.98144 0.56273 0.93733 0.0
H5795 H 0.98422 0.59139 0.95797 0.0
H5796 H 0.93067 0.57553 0.97109 0.0
H5797 H 0.92762 0.54675 0.9506 0.0
C5798 C 0.93047 0.51847 0.84966 0.0
C5799 C 0.91206 0.5182 0.84722 0.0
C5800 C 0.93904 0.51743 0.86743 0.0
C5801 C 0.92929 0.51578 0.88296 0.0
C5802 C 0.91086 0.5153 0.88064 0.0
C5803 C 0.90222 0.51647 0.86275 0.0
C5804 C 0.93899 0.51604 0.90176 0.0
C5805 C 0.93981 0.53117 0.91491 0.0
C5806 C 0.95011 0.5035 0.90521 0.0
C5807 C 0.95042 0.48788 0.89101 0.0
C5808 C 0.93458 0.47594 0.88338 0.0
C5809 C 0.93489 0.46201 0.86912 0.0
C5810 C 0.95098 0.45984 0.86241 0.0
C5811 C 0.96681 0.47153 0.87003 0.0
C5812 C 0.96657 0.48547 0.88429 0.0
C5813 C 0.9901 0.53657 0.98291 0.0
C5814 C 1.00601 0.53039 0.98051 0.0
C5815 C 0.97623 0.53329 0.96824 0.0
C5816 C 0.97881 0.526 0.9501 0.0
C5817 C 0.99542 0.52139 0.94725 0.0
C5818 C 1.00868 0.523 0.96247 0.0
C5819 C 0.96423 0.52265 0.93417 0.0
C5820 C 0.96216 0.50668 0.92171 0.0
C5821 C 0.95269 0.535 0.9308 0.0
C5822 C 0.95437 0.55256 0.94258 0.0
C5823 C 0.97028 0.56538 0.94462 0.0
C5824 C 0.9719 0.58163 0.9563 0.0
C5825 C 0.95765 0.58526 0.96588 0.0
C5826 C 0.9417 0.5727 0.96368 0.0
C5827 C 0.94 0.55644 0.95201 0.0
H5828 H 0.95896 0.59781 0.97497 0.0
H5829 H 0.95117 0.44912 0.8513 0.0
H5830 H 0.27033 0.17315 0.57025 0.0
H5831 H 0.27301 0.18359 0.60443 0.0
H5832 H 0.28275 0.23868 0.59222 0.0
H5833 H 0.27985 0.2284 0.55826 0.0
H5834 H 0.30478 0.23329 0.62412 0.0
H5835 H 0.24252 0.22032 0.59918 0.0
H5836 H 0.2148 0.20125 0.5827 0.0
H5837 H 0.21664 0.16397 0.62411 0.0
H5838 H 0.24456 0.18268 0.64066 0.0
H5839 H 0.27562 0.27984 0.70587 0.0
H5840 H 0.27642 0.26709 0.67289 0.0
H5841 H 0.27807 0.21511 0.69156 0.0
H5842 H 0.27792 0.22783 0.72451 0.0
H5843 H 0.25121 0.21767 0.65726 0.0
H5844 H 0.31304 0.22983 0.68216 0.0
H5845 H 0.34158 0.24757 0.69818 0.0
H5846 H 0.34095 0.28543 0.65727 0.0
H5847 H 0.31229 0.26793 0.64105 0.0
C5848 C 0.27336 0.18747 0.5749 0.0
C5849 C 0.27479 0.19993 0.56152 0.0
C5850 C 0.27478 0.19343 0.59443 0.0
C5851 C 0.27793 0.21195 0.60092 0.0
C5852 C 0.2803 0.22435 0.58761 0.0
C5853 C 0.27858 0.21843 0.56817 0.0
C5854 C 0.27778 0.21856 0.62135 0.0
C5855 C 0.29302 0.22998 0.6313 0.0
C5856 C 0.26256 0.21401 0.63091 0.0
C5857 C 0.24576 0.20278 0.62101 0.0
C5858 C 0.23711 0.20796 0.60466 0.0
C5859 C 0.22135 0.19724 0.59532 0.0
C5860 C 0.214 0.18137 0.60231 0.0
C5861 C 0.22237 0.17624 0.61868 0.0
C5862 C 0.23817 0.1869 0.62805 0.0
C5863 C 0.27613 0.2657 0.70292 0.0
C5864 C 0.27687 0.25488 0.71781 0.0
C5865 C 0.27665 0.25845 0.68411 0.0
C5866 C 0.27747 0.24018 0.67981 0.0
C5867 C 0.27756 0.22925 0.69457 0.0
C5868 C 0.2775 0.23656 0.71339 0.0
C5869 C 0.27816 0.23244 0.65992 0.0
C5870 C 0.263 0.22089 0.65008 0.0
C5871 C 0.29347 0.23678 0.6505 0.0
C5872 C 0.31036 0.24773 0.66058 0.0
C5873 C 0.31883 0.2421 0.67675 0.0
C5874 C 0.33509 0.25206 0.68582 0.0
C5875 C 0.34305 0.26768 0.67882 0.0
C5876 C 0.33475 0.27336 0.66271 0.0
C5877 C 0.31851 0.26341 0.65356 0.0
H5878 H 0.35567 0.27534 0.68581 0.0
H5879 H 0.20178 0.17309 0.59507 0.0
H5880 H 0.63525 0.53853 0.2247 0.0
H5881 H 0.62427 0.53551 0.19064 0.0
H5882 H 0.57022 0.53027 0.20424 0.0
H5883 H 0.58102 0.53331 0.23802 0.0
H5884 H 0.57282 0.50692 0.17256 0.0
H5885 H 0.5931 0.57046 0.19613 0.0
H5886 H 0.61567 0.59671 0.21098 0.0
H5887 H 0.6491 0.58776 0.16747 0.0
H5888 H 0.62687 0.56132 0.15253 0.0
H5889 H 0.52801 0.5344 0.0892 0.0
H5890 H 0.54018 0.53315 0.12235 0.0
H5891 H 0.59276 0.53554 0.10514 0.0
H5892 H 0.58072 0.53629 0.07223 0.0
H5893 H 0.59192 0.55923 0.13793 0.0
H5894 H 0.57573 0.49743 0.11468 0.0
H5895 H 0.55738 0.46873 0.09951 0.0
H5896 H 0.52007 0.47198 0.14025 0.0
H5897 H 0.53836 0.50072 0.15581 0.0
C5898 C 0.62102 0.53641 0.22039 0.0
C5899 C 0.60904 0.53632 0.23413 0.0
C5900 C 0.61475 0.5348 0.20092 0.0
C5901 C 0.59639 0.53289 0.19484 0.0
C5902 C 0.58442 0.53179 0.20851 0.0
C5903 C 0.59065 0.53361 0.22787 0.0
C5904 C 0.58955 0.53312 0.17446 0.0
C5905 C 0.57684 0.51846 0.16508 0.0
C5906 C 0.59517 0.54788 0.16439 0.0
C5907 C 0.60842 0.56382 0.17334 0.0
C5908 C 0.60533 0.57402 0.18982 0.0
C5909 C 0.61804 0.58893 0.19824 0.0
C5910 C 0.63381 0.59384 0.19017 0.0
C5911 C 0.63689 0.5839 0.17369 0.0
C5912 C 0.62425 0.56897 0.16525 0.0
C5913 C 0.54216 0.53476 0.09256 0.0
C5914 C 0.55337 0.53533 0.07809 0.0
C5915 C 0.54909 0.53392 0.11145 0.0
C5916 C 0.56739 0.53406 0.11621 0.0
C5917 C 0.57862 0.5353 0.10184 0.0
C5918 C 0.57169 0.53573 0.08301 0.0
C5919 C 0.57498 0.53319 0.13616 0.0
C5920 C 0.58782 0.54772 0.14544 0.0
C5921 C 0.5698 0.51815 0.14597 0.0
C5922 C 0.55824 0.50138 0.1362 0.0
C5923 C 0.56346 0.49218 0.12023 0.0
C5924 C 0.55312 0.47584 0.11161 0.0
C5925 C 0.53746 0.46859 0.11878 0.0
C5926 C 0.53216 0.47765 0.13465 0.0
C5927 C 0.54255 0.49393 0.14342 0.0
H5928 H 0.52949 0.45591 0.1121 0.0
H5929 H 0.64363 0.60537 0.19663 0.0
H5930 H 0.26148 0.8855 0.94792 0.0
H5931 H 0.26327 0.86771 0.91795 0.0
H5932 H 0.30889 0.9065 0.90825 0.0
H5933 H 0.30657 0.92483 0.93805 0.0
H5934 H 0.28661 0.89102 0.87493 0.0
H5935 H 0.31626 0.87196 0.93034 0.0
H5936 H 0.31787 0.86328 0.96287 0.0
H5937 H 0.27504 0.81833 0.94497 0.0
H5938 H 0.27296 0.82691 0.91242 0.0
H5939 H 0.31022 0.80137 0.83039 0.0
H5940 H 0.31453 0.82548 0.85693 0.0
H5941 H 0.26213 0.83608 0.83995 0.0
H5942 H 0.25803 0.8126 0.81317 0.0
H5943 H 0.29505 0.82947 0.88651 0.0
H5944 H 0.25994 0.87257 0.84231 0.0
H5945 H 0.25691 0.88001 0.8093 0.0
H5946 H 0.31188 0.87725 0.80555 0.0
H5947 H 0.31504 0.86933 0.83846 0.0
C5948 C 0.27149 0.89045 0.93902 0.0
C5949 C 0.28395 0.90628 0.94499 0.0
C5950 C 0.27256 0.88032 0.92206 0.0
C5951 C 0.28651 0.88566 0.91135 0.0
C5952 C 0.29814 0.90224 0.91653 0.0
C5953 C 0.2968 0.91264 0.93339 0.0
C5954 C 0.28987 0.87294 0.89597 0.0
C5955 C 0.2887 0.87766 0.87746 0.0
C5956 C 0.29282 0.85561 0.89946 0.0
C5957 C 0.29444 0.85011 0.91894 0.0
C5958 C 0.30716 0.86025 0.93335 0.0
C5959 C 0.30814 0.85536 0.9518 0.0
C5960 C 0.29656 0.84027 0.95598 0.0
C5961 C 0.28401 0.83001 0.94171 0.0
C5962 C 0.28295 0.83486 0.92325 0.0
C5963 C 0.29961 0.80879 0.83251 0.0
C5964 C 0.28387 0.8054 0.81981 0.0
C5965 C 0.30215 0.82258 0.84747 0.0
C5966 C 0.28888 0.83286 0.84985 0.0
C5967 C 0.27278 0.82874 0.83778 0.0
C5968 C 0.27037 0.81522 0.82271 0.0
C5969 C 0.2913 0.84741 0.86548 0.0
C5970 C 0.29351 0.84302 0.88406 0.0
C5971 C 0.28939 0.86501 0.86211 0.0
C5972 C 0.2877 0.87029 0.84267 0.0
C5973 C 0.27137 0.87361 0.83442 0.0
C5974 C 0.2696 0.87778 0.81571 0.0
C5975 C 0.28418 0.87899 0.80529 0.0
C5976 C 0.30056 0.87609 0.81358 0.0
C5977 C 0.30232 0.87164 0.83218 0.0
H5978 H 0.28282 0.88221 0.79081 0.0
H5979 H 0.29733 0.83652 0.97028 0.0
H5980 H 0.89277 0.52057 0.73789 0.0
H5981 H 0.8997 0.52266 0.70517 0.0
H5982 H 0.95574 0.52814 0.72463 0.0
H5983 H 0.94904 0.52626 0.75701 0.0
H5984 H 0.95002 0.55042 0.69874 0.0
H5985 H 0.93034 0.48766 0.70847 0.0
H5986 H 0.90868 0.46136 0.71454 0.0
H5987 H 0.87316 0.46816 0.66636 0.0
H5988 H 0.89455 0.49471 0.66018 0.0
H5989 H 1.00265 0.50346 0.64543 0.0
H5990 H 0.98488 0.51725 0.66721 0.0
H5991 H 0.94059 0.50856 0.62282 0.0
H5992 H 0.95812 0.4943 0.60112 0.0
H5993 H 0.93161 0.49444 0.65405 0.0
H5994 H 0.96144 0.55327 0.64172 0.0
H5995 H 0.98528 0.57936 0.63993 0.0
H5996 H 1.00655 0.57701 0.69755 0.0
H5997 H 0.9831 0.55088 0.69962 0.0
C5998 C 0.90657 0.52255 0.73517 0.0
C5999 C 0.92039 0.52305 0.74991 0.0
C6000 C 0.91047 0.52369 0.71653 0.0
C6001 C 0.92818 0.52545 0.71258 0.0
C6002 C 0.94197 0.52685 0.72744 0.0
C6003 C 0.93812 0.52563 0.74592 0.0
C6004 C 0.9328 0.52451 0.69303 0.0
C6005 C 0.94596 0.53827 0.68878 0.0
C6006 C 0.92698 0.50885 0.67996 0.0
C6007 C 0.91386 0.49334 0.68408 0.0
C6008 C 0.91779 0.4837 0.69934 0.0
C6009 C 0.9056 0.46873 0.70277 0.0
C6010 C 0.88953 0.46314 0.69089 0.0
C6011 C 0.88559 0.47256 0.67559 0.0
C6012 C 0.89772 0.48758 0.67214 0.0
C6013 C 0.98913 0.50451 0.64034 0.0
C6014 C 0.98168 0.49763 0.62169 0.0
C6015 C 0.97912 0.51273 0.65264 0.0
C6016 C 0.96155 0.51426 0.64647 0.0
C6017 C 0.95422 0.50776 0.62773 0.0
C6018 C 0.96421 0.49955 0.61542 0.0
C6019 C 0.95005 0.51979 0.66047 0.0
C6020 C 0.93534 0.50695 0.66349 0.0
C6021 C 0.95512 0.53592 0.673 0.0
C6022 C 0.97044 0.55017 0.67083 0.0
C6023 C 0.97138 0.55814 0.65388 0.0
C6024 C 0.98479 0.573 0.65286 0.0
C6025 C 0.99727 0.57992 0.66871 0.0
C6026 C 0.99678 0.57171 0.68536 0.0
C6027 C 0.98346 0.55689 0.68645 0.0
H6028 H 1.00728 0.59174 0.66827 0.0
H6029 H 0.88021 0.45144 0.69346 0.0
H6030 H 0.26638 0.21339 0.47115 0.0
H6031 H 0.26844 0.22718 0.44159 0.0
H6032 H 0.27515 0.17682 0.41241 0.0
H6033 H 0.27325 0.16298 0.44199 0.0
H6034 H 0.29916 0.20488 0.40369 0.0
H6035 H 0.23541 0.19204 0.40603 0.0
H6036 H 0.20805 0.19343 0.42115 0.0
H6037 H 0.21963 0.25116 0.42557 0.0
H6038 H 0.24717 0.25012 0.41068 0.0
H6039 H 0.28859 0.22939 0.30916 0.0
H6040 H 0.28643 0.21466 0.3382 0.0
H6041 H 0.27237 0.26198 0.36675 0.0
H6042 H 0.27367 0.27632 0.33771 0.0
H6043 H 0.25211 0.23503 0.37593 0.0
H6044 H 0.31483 0.24928 0.3738 0.0
H6045 H 0.34363 0.24972 0.36115 0.0
H6046 H 0.33638 0.19221 0.35924 0.0
H6047 H 0.30726 0.19136 0.37126 0.0
C6048 C 0.26812 0.20518 0.45841 0.0
C6049 C 0.26956 0.18703 0.45897 0.0
C6050 C 0.26929 0.2131 0.44146 0.0
C6051 C 0.27185 0.20305 0.42462 0.0
C6052 C 0.27319 0.18489 0.42515 0.0
C6053 C 0.27198 0.17695 0.44208 0.0
C6054 C 0.27337 0.21151 0.40656 0.0
C6055 C 0.28875 0.21123 0.39743 0.0
C6056 C 0.26011 0.22039 0.3987 0.0
C6057 C 0.24341 0.221 0.40737 0.0
C6058 C 0.23216 0.20503 0.41031 0.0
C6059 C 0.21662 0.20576 0.41883 0.0
C6060 C 0.21212 0.22238 0.42435 0.0
C6061 C 0.22313 0.2383 0.4213 0.0
C6062 C 0.2387 0.23765 0.4128 0.0
C6063 C 0.28511 0.23668 0.32164 0.0
C6064 C 0.28157 0.25418 0.32105 0.0
C6065 C 0.28396 0.22826 0.33834 0.0
C6066 C 0.27947 0.23723 0.35494 0.0
C6067 C 0.2759 0.25468 0.35428 0.0
C6068 C 0.27683 0.26298 0.33761 0.0
C6069 C 0.27796 0.22841 0.37286 0.0
C6070 C 0.26256 0.22864 0.38204 0.0
C6071 C 0.29138 0.21977 0.38093 0.0
C6072 C 0.3087 0.22023 0.37319 0.0
C6073 C 0.31923 0.23669 0.3704 0.0
C6074 C 0.33564 0.23702 0.36335 0.0
C6075 C 0.34179 0.22099 0.35927 0.0
C6076 C 0.33155 0.20461 0.36225 0.0
C6077 C 0.31507 0.20419 0.36915 0.0
H6078 H 0.35452 0.22127 0.35388 0.0
H6079 H 0.20009 0.22291 0.43096 0.0
H6080 H 0.33485 0.63075 0.55772 0.0
H6081 H 0.36141 0.61735 0.55747 0.0
H6082 H 0.32856 0.56498 0.53995 0.0
H6083 H 0.30168 0.57837 0.54033 0.0
H6084 H 0.36313 0.56626 0.56481 0.0
H6085 H 0.33865 0.58486 0.50642 0.0
H6086 H 0.32632 0.60595 0.48703 0.0
H6087 H 0.3749 0.64483 0.50174 0.0
H6088 H 0.38737 0.62409 0.52156 0.0
H6089 H 0.42277 0.53136 0.5043 0.0
H6090 H 0.39856 0.53934 0.52133 0.0
H6091 H 0.42633 0.59454 0.53205 0.0
H6092 H 0.4506 0.58665 0.51516 0.0
H6093 H 0.39365 0.59042 0.51192 0.0
H6094 H 0.41921 0.57048 0.56834 0.0
H6095 H 0.43103 0.54964 0.58847 0.0
H6096 H 0.38077 0.51293 0.57745 0.0
H6097 H 0.36872 0.53338 0.55698 0.0
C6098 C 0.33324 0.6163 0.55435 0.0
C6099 C 0.31632 0.6056 0.54861 0.0
C6100 C 0.3484 0.60867 0.55434 0.0
C6101 C 0.34685 0.5903 0.54839 0.0
C6102 C 0.32992 0.57921 0.54458 0.0
C6103 C 0.31463 0.58686 0.54472 0.0
C6104 C 0.36267 0.58367 0.54279 0.0
C6105 C 0.36977 0.57129 0.55312 0.0
C6106 C 0.3713 0.59055 0.52769 0.0
C6107 C 0.36386 0.603 0.51566 0.0
C6108 C 0.34663 0.59798 0.50569 0.0
C6109 C 0.33962 0.60986 0.49459 0.0
C6110 C 0.3498 0.62674 0.4932 0.0
C6111 C 0.36702 0.63176 0.50287 0.0
C6112 C 0.37406 0.61995 0.51404 0.0
C6113 C 0.42392 0.5451 0.51074 0.0
C6114 C 0.43837 0.55849 0.50812 0.0
C6115 C 0.41014 0.5496 0.52054 0.0
C6116 C 0.41069 0.56751 0.52791 0.0
C6117 C 0.42568 0.58064 0.52641 0.0
C6118 C 0.43942 0.57616 0.51661 0.0
C6119 C 0.39454 0.57315 0.53415 0.0
C6120 C 0.38719 0.58533 0.5237 0.0
C6121 C 0.38574 0.56593 0.54902 0.0
C6122 C 0.39314 0.55337 0.56089 0.0
C6123 C 0.41075 0.55785 0.56997 0.0
C6124 C 0.41747 0.54613 0.58151 0.0
C6125 C 0.40668 0.52994 0.58416 0.0
C6126 C 0.38913 0.52545 0.57532 0.0
C6127 C 0.38235 0.5371 0.56376 0.0
H6128 H 0.41189 0.52089 0.59309 0.0
H6129 H 0.34436 0.63591 0.48458 0.0
H6130 H 0.83736 0.93062 0.5231 0.0
H6131 H 0.86508 0.95266 0.52341 0.0
H6132 H 0.89563 0.91462 0.5441 0.0
H6133 H 0.86814 0.8924 0.54327 0.0
H6134 H 0.90566 0.95197 0.56347 0.0
H6135 H 0.89571 0.91757 0.50143 0.0
H6136 H 0.87818 0.90468 0.47076 0.0
H6137 H 0.87402 0.95773 0.45725 0.0
H6138 H 0.89135 0.97094 0.48805 0.0
H6139 H 0.99408 0.98535 0.54713 0.0
H6140 H 0.96477 0.96719 0.5485 0.0
H6141 H 0.94029 1.00221 0.51449 0.0
H6142 H 0.96973 0.02014 0.51249 0.0
H6143 H 0.92572 0.9684 0.50231 0.0
H6144 H 0.93774 1.0033 0.56306 0.0
H6145 H 0.95537 0.0164 0.59366 0.0
H6146 H 0.95521 0.96345 0.60992 0.0
H6147 H 0.93781 0.95 0.57927 0.0
C6148 C 0.84998 0.92702 0.52786 0.0
C6149 C 0.85055 0.90974 0.53311 0.0
C6150 C 0.8658 0.9396 0.52798 0.0
C6151 C 0.88244 0.93528 0.53376 0.0
C6152 C 0.88297 0.91826 0.53962 0.0
C6153 C 0.86723 0.90556 0.53906 0.0
C6154 C 0.89938 0.94816 0.53306 0.0
C6155 C 0.91012 0.95549 0.55011 0.0
C6156 C 0.905 0.9531 0.51566 0.0
C6157 C 0.8946 0.94522 0.49715 0.0
C6158 C 0.89089 0.92648 0.49202 0.0
C6159 C 0.88102 0.91912 0.47459 0.0
C6160 C 0.87491 0.93037 0.46209 0.0
C6161 C 0.87872 0.94903 0.46698 0.0
C6162 C 0.88857 0.95646 0.48442 0.0
C6163 C 0.98249 0.98931 0.54002 0.0
C6164 C 0.98433 1.00442 0.52991 0.0
C6165 C 0.96566 0.97892 0.54089 0.0
C6166 C 0.95017 0.98343 0.53187 0.0
C6167 C 0.95197 0.99846 0.52169 0.0
C6168 C 0.96884 0.00884 0.52072 0.0
C6169 C 0.93222 0.97221 0.53277 0.0
C6170 C 0.92124 0.96512 0.51573 0.0
C6171 C 0.92633 0.96761 0.55023 0.0
C6172 C 0.93658 0.97563 0.5688 0.0
C6173 C 0.94155 0.99444 0.57311 0.0
C6174 C 0.9515 1.00193 0.59047 0.0
C6175 C 0.95643 0.99076 0.60371 0.0
C6176 C 0.95139 0.97208 0.59964 0.0
C6177 C 0.94147 0.96451 0.58229 0.0
H6178 H 0.96415 0.99658 0.61714 0.0
H6179 H 0.86728 0.92464 0.44859 0.0
H6180 H 0.87474 0.04399 0.25347 0.0
H6181 H 0.86 0.06998 0.25461 0.0
H6182 H 0.91128 0.10561 0.26496 0.0
H6183 H 0.92606 0.07957 0.2646 0.0
H6184 H 0.89111 0.11739 0.28763 0.0
H6185 H 0.8824 0.09881 0.2207 0.0
H6186 H 0.87325 0.07778 0.19131 0.0
H6187 H 0.81914 0.06842 0.20424 0.0
H6188 H 0.828 0.08921 0.23384 0.0
H6189 H 0.85419 0.19539 0.28295 0.0
H6190 H 0.86997 0.1718 0.27154 0.0
H6191 H 0.82161 0.13228 0.26846 0.0
H6192 H 0.80584 0.15596 0.27961 0.0
H6193 H 0.84155 0.12396 0.24005 0.0
H6194 H 0.85125 0.14113 0.30805 0.0
H6195 H 0.86038 0.16309 0.33674 0.0
H6196 H 0.91331 0.17563 0.32086 0.0
H6197 H 0.90439 0.15398 0.29187 0.0
C6198 C 0.88291 0.05736 0.25577 0.0
C6199 C 0.90161 0.05967 0.25887 0.0
C6200 C 0.87443 0.07228 0.25633 0.0
C6201 C 0.88445 0.08992 0.25959 0.0
C6202 C 0.90317 0.09222 0.2624 0.0
C6203 C 0.91164 0.07729 0.26211 0.0
C6204 C 0.87542 0.1059 0.26102 0.0
C6205 C 0.88052 0.11893 0.27697 0.0
C6206 C 0.86129 0.10794 0.2474 0.0
C6207 C 0.85591 0.09546 0.22958 0.0
C6208 C 0.86857 0.09217 0.21735 0.0
C6209 C 0.86343 0.08031 0.20064 0.0
C6210 C 0.84564 0.07174 0.19594 0.0
C6211 C 0.83293 0.07505 0.20791 0.0
C6212 C 0.838 0.0869 0.22464 0.0
C6213 C 0.84679 0.18181 0.27904 0.0
C6214 C 0.82874 0.17752 0.28184 0.0
C6215 C 0.85585 0.16827 0.27274 0.0
C6216 C 0.84707 0.15016 0.26944 0.0
C6217 C 0.8287 0.14611 0.2709 0.0
C6218 C 0.81965 0.15965 0.27717 0.0
C6219 C 0.85729 0.13528 0.26657 0.0
C6220 C 0.85233 0.12245 0.25048 0.0
C6221 C 0.87161 0.13344 0.27999 0.0
C6222 C 0.87711 0.14607 0.2977 0.0
C6223 C 0.86481 0.14863 0.31063 0.0
C6224 C 0.86995 0.16103 0.32694 0.0
C6225 C 0.8874 0.17078 0.3306 0.0
C6226 C 0.89979 0.1681 0.31799 0.0
C6227 C 0.8947 0.15577 0.30162 0.0
H6228 H 0.89135 0.18039 0.34322 0.0
H6229 H 0.84169 0.06255 0.183 0.0
H6230 H 0.70613 0.1324 0.01262 0.0
H6231 H 0.67646 0.1147 0.01294 0.0
H6232 H 0.69946 0.0738 0.03892 0.0
H6233 H 0.72934 0.09136 0.03855 0.0
H6234 H 0.67282 0.05931 0.01178 0.0
H6235 H 0.68162 0.1021 0.06599 0.0
H6236 H 0.68946 0.13163 0.0855 0.0
H6237 H 0.64724 0.15006 0.05339 0.0
H6238 H 0.63931 0.12072 0.03347 0.0
H6239 H 0.58721 0.01889 0.03493 0.0
H6240 H 0.61859 0.03254 0.03621 0.0
H6241 H 0.60381 0.07769 0.0104 0.0
H6242 H 0.57238 0.06464 0.01011 0.0
H6243 H 0.62757 0.08841 0.04126 0.0
H6244 H 0.62112 0.04294 0.98578 0.0
H6245 H 0.61405 0.01176 0.97 0.0
H6246 H 0.65311 0.99676 0.00981 0.0
H6247 H 0.66018 0.0278 0.02601 0.0
C6248 C 0.70494 0.11955 0.01823 0.0
C6249 C 0.72009 0.11334 0.02569 0.0
C6250 C 0.68797 0.10954 0.01853 0.0
C6251 C 0.68585 0.09321 0.02637 0.0
C6252 C 0.70091 0.08649 0.03297 0.0
C6253 C 0.71794 0.0965 0.03265 0.0
C6254 C 0.66781 0.0832 0.02753 0.0
C6255 C 0.66296 0.06557 0.01843 0.0
C6256 C 0.65509 0.09141 0.03637 0.0
C6257 C 0.66 0.10924 0.04808 0.0
C6258 C 0.67413 0.11251 0.06293 0.0
C6259 C 0.67856 0.12921 0.0741 0.0
C6260 C 0.66889 0.14273 0.07065 0.0
C6261 C 0.65474 0.13958 0.05603 0.0
C6262 C 0.65027 0.12291 0.04479 0.0
C6263 C 0.59062 0.03164 0.02934 0.0
C6264 C 0.57732 0.04069 0.02231 0.0
C6265 C 0.60857 0.03937 0.03002 0.0
C6266 C 0.61348 0.05602 0.02324 0.0
C6267 C 0.60024 0.06481 0.0157 0.0
C6268 C 0.5823 0.05725 0.01534 0.0
C6269 C 0.63238 0.06481 0.02476 0.0
C6270 C 0.63743 0.08219 0.03457 0.0
C6271 C 0.64538 0.0562 0.01702 0.0
C6272 C 0.64108 0.03762 0.00716 0.0
C6273 C 0.62811 0.03295 0.99122 0.0
C6274 C 0.62412 0.0153 0.9822 0.0
C6275 C 0.63315 1.00228 0.9889 0.0
C6276 C 0.64614 0.00686 0.00464 0.0
C6277 C 0.65014 0.02447 0.01374 0.0
H6278 H 0.63019 0.98864 0.98191 0.0
H6279 H 0.67231 0.15564 0.07934 0.0
H6280 H 0.22683 0.51248 0.26938 0.0
H6281 H 0.24042 0.48613 0.27121 0.0
H6282 H 0.20609 0.45941 0.22087 0.0
H6283 H 0.19114 0.48539 0.22043 0.0
H6284 H 0.20413 0.43821 0.24482 0.0
H6285 H 0.25526 0.47217 0.22429 0.0
H6286 H 0.27811 0.4992 0.22329 0.0
H6287 H 0.29804 0.49754 0.28149 0.0
H6288 H 0.27517 0.47067 0.28295 0.0
H6289 H 0.24652 0.36419 0.26756 0.0
H6290 H 0.23833 0.38827 0.24993 0.0
H6291 H 0.25427 0.4262 0.30047 0.0
H6292 H 0.26243 0.40226 0.31817 0.0
H6293 H 0.26748 0.43844 0.26727 0.0
H6294 H 0.21189 0.40848 0.28807 0.0
H6295 H 0.18858 0.3818 0.28902 0.0
H6296 H 0.17754 0.37594 0.22817 0.0
H6297 H 0.20104 0.40241 0.22685 0.0
C6298 C 0.22269 0.50122 0.25833 0.0
C6299 C 0.20823 0.50087 0.24463 0.0
C6300 C 0.23054 0.48614 0.25926 0.0
C6301 C 0.22462 0.47079 0.24591 0.0
C6302 C 0.21094 0.47106 0.2313 0.0
C6303 C 0.20255 0.48591 0.2309 0.0
C6304 C 0.23095 0.45384 0.24901 0.0
C6305 C 0.21809 0.43818 0.24912 0.0
C6306 C 0.24913 0.45367 0.25478 0.0
C6307 C 0.26349 0.46934 0.25369 0.0
C6308 C 0.26453 0.47755 0.23687 0.0
C6309 C 0.27747 0.49287 0.23624 0.0
C6310 C 0.28952 0.50007 0.25231 0.0
C6311 C 0.28873 0.49191 0.26903 0.0
C6312 C 0.27581 0.47659 0.26975 0.0
C6313 C 0.2483 0.3777 0.27484 0.0
C6314 C 0.25504 0.38145 0.2942 0.0
C6315 C 0.24367 0.39136 0.26477 0.0
C6316 C 0.24587 0.40893 0.27391 0.0
C6317 C 0.25264 0.4127 0.2932 0.0
C6318 C 0.25709 0.39903 0.30332 0.0
C6319 C 0.24059 0.42344 0.2637 0.0
C6320 C 0.25367 0.43849 0.26225 0.0
C6321 C 0.22269 0.42298 0.25645 0.0
C6322 C 0.20837 0.40728 0.25734 0.0
C6323 C 0.20459 0.40142 0.27488 0.0
C6324 C 0.19133 0.38634 0.27549 0.0
C6325 C 0.18162 0.37715 0.25866 0.0
C6326 C 0.1851 0.38305 0.24119 0.0
C6327 C 0.19839 0.39808 0.24051 0.0
H6328 H 0.17136 0.36549 0.25916 0.0
H6329 H 0.29948 0.51198 0.25182 0.0
H6330 H 0.23704 0.38904 0.04862 0.0
H6331 H 0.21131 0.4041 0.04865 0.0
H6332 H 0.23889 0.446 0.01962 0.0
H6333 H 0.2651 0.43185 0.02138 0.0
H6334 H 0.22213 0.46137 0.04089 0.0
H6335 H 0.2028 0.40685 0.99774 0.0
H6336 H 0.19646 0.37416 0.98743 0.0
H6337 H 0.16077 0.36589 0.02986 0.0
H6338 H 0.16705 0.3985 0.04055 0.0
H6339 H 0.1435 0.49034 0.00083 0.0
H6340 H 0.17125 0.47895 0.00737 0.0
H6341 H 0.146 0.44425 0.0453 0.0
H6342 H 0.11816 0.45523 0.03821 0.0
H6343 H 0.16132 0.42585 0.02081 0.0
H6344 H 0.17985 0.48282 0.06089 0.0
H6345 H 0.18543 0.51594 0.06735 0.0
H6346 H 0.22227 0.52002 0.02568 0.0
H6347 H 0.21674 0.48694 0.01879 0.0
C6348 C 0.23757 0.40155 0.04243 0.0
C6349 C 0.25299 0.40931 0.03501 0.0
C6350 C 0.22278 0.41009 0.04222 0.0
C6351 C 0.22277 0.42605 0.03363 0.0
C6352 C 0.23837 0.43379 0.02637 0.0
C6353 C 0.25338 0.42566 0.02731 0.0
C6354 C 0.20665 0.43471 0.03208 0.0
C6355 C 0.20889 0.45354 0.03626 0.0
C6356 C 0.18916 0.42469 0.02635 0.0
C6357 C 0.18556 0.40507 0.02007 0.0
C6358 C 0.19371 0.39803 0.00496 0.0
C6359 C 0.19011 0.37953 0.99903 0.0
C6360 C 0.17826 0.36796 0.00802 0.0
C6361 C 0.16997 0.37486 0.02294 0.0
C6362 C 0.17354 0.39335 0.02892 0.0
C6363 C 0.1441 0.48059 0.01088 0.0
C6364 C 0.12886 0.47373 0.01918 0.0
C6365 C 0.15993 0.47409 0.01465 0.0
C6366 C 0.16082 0.46081 0.02698 0.0
C6367 C 0.14569 0.45447 0.03576 0.0
C6368 C 0.12983 0.4608 0.03181 0.0
C6369 C 0.17689 0.45237 0.02953 0.0
C6370 C 0.1746 0.4336 0.02551 0.0
C6371 C 0.19432 0.4625 0.0349 0.0
C6372 C 0.19778 0.48239 0.03923 0.0
C6373 C 0.18906 0.49078 0.05303 0.0
C6374 C 0.19223 0.50955 0.05677 0.0
C6375 C 0.20417 0.52007 0.04691 0.0
C6376 C 0.21302 0.51185 0.03331 0.0
C6377 C 0.20989 0.49309 0.02949 0.0
H6378 H 0.2066 0.5346 0.04982 0.0
H6379 H 0.17548 0.35364 0.0034 0.0
H6380 H 0.8831 0.97048 0.24829 0.0
H6381 H 0.86136 0.94231 0.24603 0.0
H6382 H 0.90046 0.9183 0.27706 0.0
H6383 H 0.92228 0.94605 0.27881 0.0
H6384 H 0.88418 0.8949 0.24995 0.0
H6385 H 0.8645 0.93433 0.2972 0.0
H6386 H 0.85416 0.96152 0.30996 0.0
H6387 H 0.80893 0.94985 0.26701 0.0
H6388 H 0.81913 0.9227 0.25384 0.0
H6389 H 0.80464 0.83897 0.29245 0.0
H6390 H 0.82353 0.86777 0.28951 0.0
H6391 H 0.83279 0.84715 0.23339 0.0
H6392 H 0.81523 0.81778 0.2372 0.0
H6393 H 0.82414 0.89318 0.27058 0.0
H6394 H 0.87007 0.86747 0.2203 0.0
H6395 H 0.88081 0.83956 0.21077 0.0
H6396 H 0.87605 0.82337 0.26643 0.0
H6397 H 0.86523 0.85119 0.27626 0.0
C6398 C 0.88707 0.9592 0.25462 0.0
C6399 C 0.90451 0.96062 0.26372 0.0
C6400 C 0.87457 0.94307 0.25339 0.0
C6401 C 0.87912 0.92809 0.26152 0.0
C6402 C 0.89654 0.92954 0.27056 0.0
C6403 C 0.90905 0.94551 0.27161 0.0
C6404 C 0.86596 0.91085 0.26072 0.0
C6405 C 0.87105 0.89458 0.25447 0.0
C6406 C 0.84876 0.91021 0.26661 0.0
C6407 C 0.8427 0.92662 0.27439 0.0
C6408 C 0.85244 0.93766 0.29037 0.0
C6409 C 0.84658 0.95304 0.2977 0.0
C6410 C 0.83093 0.95744 0.28926 0.0
C6411 C 0.82107 0.94645 0.2735 0.0
C6412 C 0.82688 0.93106 0.2661 0.0
C6413 C 0.81072 0.84063 0.27948 0.0
C6414 C 0.80866 0.8261 0.26514 0.0
C6415 C 0.82152 0.85715 0.27776 0.0
C6416 C 0.83011 0.85974 0.2614 0.0
C6417 C 0.82704 0.84547 0.24652 0.0
C6418 C 0.81682 0.82871 0.24858 0.0
C6419 C 0.84253 0.87715 0.26032 0.0
C6420 C 0.83725 0.89348 0.26603 0.0
C6421 C 0.85977 0.87783 0.25446 0.0
C6422 C 0.86676 0.86133 0.24896 0.0
C6423 C 0.87143 0.85799 0.23053 0.0
C6424 C 0.87749 0.84218 0.22507 0.0
C6425 C 0.87914 0.8297 0.23799 0.0
C6426 C 0.87475 0.83303 0.25643 0.0
C6427 C 0.86862 0.84881 0.26195 0.0
H6428 H 0.88382 0.81746 0.23372 0.0
H6429 H 0.82641 0.96935 0.29497 0.0
H6430 H 0.67354 0.10652 0.75886 0.0
H6431 H 0.69435 0.13504 0.75932 0.0
H6432 H 0.73775 0.11088 0.78129 0.0
H6433 H 0.71711 0.08203 0.78018 0.0
H6434 H 0.72363 0.14878 0.80026 0.0
H6435 H 0.74946 0.11735 0.74975 0.0
H6436 H 0.74784 0.0985 0.71918 0.0
H6437 H 0.72197 0.13574 0.6905 0.0
H6438 H 0.7231 0.15463 0.72098 0.0
H6439 H 0.79096 0.22868 0.78893 0.0
H6440 H 0.77768 0.19715 0.79176 0.0
H6441 H 0.73069 0.20215 0.75551 0.0
H6442 H 0.74351 0.23366 0.75338 0.0
H6443 H 0.75137 0.17205 0.7454 0.0
H6444 H 0.72202 0.20149 0.79193 0.0
H6445 H 0.71718 0.2196 0.82084 0.0
H6446 H 0.7433 0.18648 0.8554 0.0
H6447 H 0.74903 0.16861 0.82661 0.0
C6448 C 0.68752 0.10732 0.76378 0.0
C6449 C 0.6938 0.09225 0.76963 0.0
C6450 C 0.69936 0.12347 0.76384 0.0
C6451 C 0.71749 0.12478 0.77003 0.0
C6452 C 0.7238 0.10986 0.77613 0.0
C6453 C 0.71203 0.09354 0.77563 0.0
C6454 C 0.72933 0.14233 0.77171 0.0
C6455 C 0.73023 0.15381 0.78853 0.0
C6456 C 0.73714 0.14879 0.75599 0.0
C6457 C 0.73609 0.13724 0.73772 0.0
C6458 C 0.74314 0.12136 0.73699 0.0
C6459 C 0.74239 0.11071 0.71966 0.0
C6460 C 0.73473 0.11588 0.70292 0.0
C6461 C 0.72784 0.13172 0.70348 0.0
C6462 C 0.72853 0.14239 0.72079 0.0
C6463 C 0.77771 0.22297 0.78186 0.0
C6464 C 0.76807 0.23329 0.77107 0.0
C6465 C 0.77019 0.20515 0.78349 0.0
C6466 C 0.75326 0.19759 0.77391 0.0
C6467 C 0.74372 0.20795 0.76308 0.0
C6468 C 0.75098 0.22583 0.76193 0.0
C6469 C 0.74575 0.17852 0.77404 0.0
C6470 C 0.74545 0.16687 0.75745 0.0
C6471 C 0.73806 0.17202 0.78981 0.0
C6472 C 0.73639 0.18398 0.80705 0.0
C6473 C 0.72731 0.19842 0.80564 0.0
C6474 C 0.72426 0.20857 0.82203 0.0
C6475 C 0.72996 0.20422 0.83994 0.0
C6476 C 0.73896 0.18988 0.8415 0.0
C6477 C 0.74222 0.17982 0.82515 0.0
H6478 H 0.72734 0.21191 0.85262 0.0
H6479 H 0.73421 0.10764 0.68951 0.0
loop_
_geom_bond_atom_site_label_1
_geom_bond_atom_site_label_2
_geom_bond_distance
_geom_bond_site_symmetry_2
_ccdc_geom_bond_type
Co0 O1 2.216 . S
Co0 O2 2.091 . S
Co0 O4 2.004 . S
Co0 O10 2.021 . S
Co0 O12 2.137 . S
Co0 O13 2.244 . S
O1 Co0 2.216 . S
O1 C8 1.247 . S
O2 Co0 2.091 . S
O2 C8 1.261 . S
C3 O12 1.247 . S
C3 O13 1.272 . S
O4 Co0 2.004 . S
O4 C9 1.259 1_455 S
Co5 O6 2.061 1_455 S
Co5 O11 2.052 . S
Co5 O13 2.135 . S
O6 Co5 2.061 1_655 S
O6 C9 1.235 . S
C7 O10 1.238 . S
C7 O11 1.241 . S
C8 O1 1.247 . S
C8 O2 1.261 . S
C9 O4 1.259 1_655 S
C9 O6 1.235 . S
O10 Co0 2.021 . S
O10 C7 1.238 . S
O11 Co5 2.052 . S
O11 C7 1.241 . S
O12 Co0 2.137 . S
O12 C3 1.247 . S
O13 Co0 2.244 . S
O13 C3 1.272 . S
O13 Co5 2.135 . S
Co14 O15 2.216 1_455 S
Co14 O16 2.091 1_455 S
Co14 O18 2.004 . S
Co14 O24 2.021 . S
Co14 O26 2.137 . S
Co14 O27 2.244 . S
O15 Co14 2.216 1_655 S
O15 C22 1.247 . S
O16 Co14 2.091 1_655 S
O16 C22 1.261 . S
C17 O26 1.247 . S
C17 O27 1.272 . S
O18 Co14 2.004 . S
O18 C23 1.259 . S
Co19 O20 2.061 . S
Co19 O25 2.052 . S
Co19 O27 2.135 . S
O20 Co19 2.061 . S
O20 C23 1.235 . S
C21 O24 1.238 . S
C21 O25 1.241 . S
C22 O15 1.247 . S
C22 O16 1.261 . S
C23 O18 1.259 . S
C23 O20 1.235 . S
O24 Co14 2.021 . S
O24 C21 1.238 . S
O25 Co19 2.052 . S
O25 C21 1.241 . S
O26 Co14 2.137 . S
O26 C17 1.247 . S
O27 Co14 2.244 . S
O27 C17 1.272 . S
O27 Co19 2.135 . S
Co28 O29 2.216 . S
Co28 O30 2.091 . S
Co28 O32 2.004 . S
Co28 O38 2.021 . S
Co28 O40 2.137 . S
Co28 O41 2.244 . S
O29 Co28 2.216 . S
O29 C36 1.247 . S
O30 Co28 2.091 . S
O30 C36 1.261 . S
C31 O40 1.247 . S
C31 O41 1.272 . S
O32 Co28 2.004 . S
O32 C37 1.259 . S
Co33 O34 2.061 . S
Co33 O39 2.052 . S
Co33 O41 2.135 . S
O34 Co33 2.061 . S
O34 C37 1.235 . S
C35 O38 1.238 . S
C35 O39 1.241 . S
C36 O29 1.247 . S
C36 O30 1.261 . S
C37 O32 1.259 . S
C37 O34 1.235 . S
O38 Co28 2.021 . S
O38 C35 1.238 . S
O39 Co33 2.052 . S
O39 C35 1.241 . S
O40 Co28 2.137 . S
O40 C31 1.247 . S
O41 Co28 2.244 . S
O41 C31 1.272 . S
O41 Co33 2.135 . S
Co42 O43 2.216 . S
Co42 O44 2.091 . S
Co42 O46 2.004 . S
Co42 O52 2.021 . S
Co42 O54 2.137 . S
Co42 O55 2.244 . S
O43 Co42 2.216 . S
O43 C50 1.247 . S
O44 Co42 2.091 . S
O44 C50 1.261 . S
C45 O54 1.247 . S
C45 O55 1.272 . S
O46 Co42 2.004 . S
O46 C51 1.259 . S
Co47 O48 2.061 . S
Co47 O53 2.052 . S
Co47 O55 2.135 . S
O48 Co47 2.061 . S
O48 C51 1.235 . S
C49 O52 1.238 . S
C49 O53 1.241 . S
C50 O43 1.247 . S
C50 O44 1.261 . S
C51 O46 1.259 . S
C51 O48 1.235 . S
O52 Co42 2.021 . S
O52 C49 1.238 . S
O53 Co47 2.052 . S
O53 C49 1.241 . S
O54 Co42 2.137 . S
O54 C45 1.247 . S
O55 Co42 2.244 . S
O55 C45 1.272 . S
O55 Co47 2.135 . S
Co56 O57 2.216 . S
Co56 O58 2.091 . S
Co56 O60 2.004 . S
Co56 O66 2.021 . S
Co56 O68 2.137 . S
Co56 O69 2.244 . S
O57 Co56 2.216 . S
O57 C64 1.247 . S
O58 Co56 2.091 . S
O58 C64 1.261 . S
C59 O68 1.247 . S
C59 O69 1.272 . S
O60 Co56 2.004 . S
O60 C65 1.259 . S
Co61 O62 2.061 . S
Co61 O67 2.052 . S
Co61 O69 2.135 . S
O62 Co61 2.061 . S
O62 C65 1.235 . S
C63 O66 1.238 . S
C63 O67 1.241 . S
C64 O57 1.247 . S
C64 O58 1.261 . S
C65 O60 1.259 . S
C65 O62 1.235 . S
O66 Co56 2.021 . S
O66 C63 1.238 . S
O67 Co61 2.052 . S
O67 C63 1.241 . S
O68 Co56 2.137 . S
O68 C59 1.247 . S
O69 Co56 2.244 . S
O69 C59 1.272 . S
O69 Co61 2.135 . S
Co70 O71 2.216 . S
Co70 O72 2.091 . S
Co70 O74 2.004 . S
Co70 O80 2.021 . S
Co70 O82 2.137 . S
Co70 O83 2.244 . S
O71 Co70 2.216 . S
O71 C78 1.247 . S
O72 Co70 2.091 . S
O72 C78 1.261 . S
C73 O82 1.247 . S
C73 O83 1.272 . S
O74 Co70 2.004 . S
O74 C79 1.259 . S
Co75 O76 2.061 . S
Co75 O81 2.052 . S
Co75 O83 2.135 . S
O76 Co75 2.061 . S
O76 C79 1.235 . S
C77 O80 1.238 . S
C77 O81 1.241 . S
C78 O71 1.247 . S
C78 O72 1.261 . S
C79 O74 1.259 . S
C79 O76 1.235 . S
O80 Co70 2.021 . S
O80 C77 1.238 . S
O81 Co75 2.052 . S
O81 C77 1.241 . S
O82 Co70 2.137 . S
O82 C73 1.247 . S
O83 Co70 2.244 . S
O83 C73 1.272 . S
O83 Co75 2.135 . S
Co84 O85 2.216 . S
Co84 O86 2.091 . S
Co84 O88 2.004 . S
Co84 O94 2.021 . S
Co84 O96 2.137 . S
Co84 O97 2.244 . S
O85 Co84 2.216 . S
O85 C92 1.247 . S
O86 Co84 2.091 . S
O86 C92 1.261 . S
C87 O96 1.247 . S
C87 O97 1.272 . S
O88 Co84 2.004 . S
O88 C93 1.259 . S
Co89 O90 2.061 . S
Co89 O95 2.052 . S
Co89 O97 2.135 . S
O90 Co89 2.061 . S
O90 C93 1.235 . S
C91 O94 1.238 . S
C91 O95 1.241 . S
C92 O85 1.247 . S
C92 O86 1.261 . S
C93 O88 1.259 . S
C93 O90 1.235 . S
O94 Co84 2.021 . S
O94 C91 1.238 . S
O95 Co89 2.052 . S
O95 C91 1.241 . S
O96 Co84 2.137 . S
O96 C87 1.247 . S
O97 Co84 2.244 . S
O97 C87 1.272 . S
O97 Co89 2.135 . S
Co98 O99 2.216 . S
Co98 O100 2.091 . S
Co98 O102 2.004 1_455 S
Co98 O108 2.021 1_455 S
Co98 O110 2.137 . S
Co98 O111 2.244 1_455 S
O99 Co98 2.216 . S
O99 C106 1.247 . S
O100 Co98 2.091 . S
O100 C106 1.261 . S
C101 O110 1.247 . S
C101 O111 1.272 1_455 S
O102 Co98 2.004 1_655 S
O102 C107 1.259 . S
Co103 O104 2.061 . S
Co103 O109 2.052 . S
Co103 O111 2.135 . S
O104 Co103 2.061 . S
O104 C107 1.235 . S
C105 O108 1.239 . S
C105 O109 1.241 . S
C106 O99 1.247 . S
C106 O100 1.261 . S
C107 O102 1.259 . S
C107 O104 1.235 . S
O108 Co98 2.021 1_655 S
O108 C105 1.239 . S
O109 Co103 2.052 . S
O109 C105 1.241 . S
O110 Co98 2.137 . S
O110 C101 1.247 . S
O111 Co98 2.244 1_655 S
O111 C101 1.272 1_655 S
O111 Co103 2.135 . S
Co112 O113 2.216 . S
Co112 O114 2.091 . S
Co112 O116 2.004 1_545 S
Co112 O122 2.021 . S
Co112 O124 2.137 . S
Co112 O125 2.244 . S
O113 Co112 2.216 . S
O113 C120 1.247 . S
O114 Co112 2.091 . S
O114 C120 1.261 . S
C115 O124 1.247 . S
C115 O125 1.272 . S
O116 Co112 2.004 1_565 S
O116 C121 1.259 . S
Co117 O118 2.061 . S
Co117 O123 2.052 . S
Co117 O125 2.135 1_565 S
O118 Co117 2.061 . S
O118 C121 1.235 . S
C119 O122 1.238 . S
C119 O123 1.241 1_545 S
C120 O113 1.247 . S
C120 O114 1.261 . S
C121 O116 1.259 . S
C121 O118 1.235 . S
O122 Co112 2.021 . S
O122 C119 1.238 . S
O123 Co117 2.052 . S
O123 C119 1.241 1_565 S
O124 Co112 2.137 . S
O124 C115 1.247 . S
O125 Co112 2.244 . S
O125 C115 1.272 . S
O125 Co117 2.135 1_545 S
Co126 O127 2.216 . S
Co126 O128 2.091 . S
Co126 O130 2.004 . S
Co126 O136 2.021 . S
Co126 O138 2.137 . S
Co126 O139 2.244 . S
O127 Co126 2.216 . S
O127 C134 1.247 . S
O128 Co126 2.091 . S
O128 C134 1.261 . S
C129 O138 1.247 . S
C129 O139 1.272 . S
O130 Co126 2.004 . S
O130 C135 1.259 . S
Co131 O132 2.061 . S
Co131 O137 2.052 . S
Co131 O139 2.135 . S
O132 Co131 2.061 . S
O132 C135 1.235 . S
C133 O136 1.238 . S
C133 O137 1.241 . S
C134 O127 1.247 . S
C134 O128 1.261 . S
C135 O130 1.259 . S
C135 O132 1.235 . S
O136 Co126 2.021 . S
O136 C133 1.238 . S
O137 Co131 2.052 . S
O137 C133 1.241 . S
O138 Co126 2.137 . S
O138 C129 1.247 . S
O139 Co126 2.244 . S
O139 C129 1.272 . S
O139 Co131 2.135 . S
Co140 O141 2.202 1_545 S
Co140 O142 2.091 . S
Co140 O144 2.004 . S
Co140 O150 2.021 . S
Co140 O152 2.137 . S
Co140 O153 2.244 . S
O141 Co140 2.202 1_565 S
O141 C148 1.249 . S
O142 Co140 2.091 . S
O142 C148 1.259 1_545 S
C143 O152 1.247 . S
C143 O153 1.272 . S
O144 Co140 2.004 . S
O144 C149 1.259 . S
Co145 O146 2.061 . S
Co145 O151 2.052 . S
Co145 O153 2.135 . S
O146 Co145 2.061 . S
O146 C149 1.235 . S
C147 O150 1.238 . S
C147 O151 1.241 . S
C148 O141 1.249 . S
C148 O142 1.259 1_565 S
C149 O144 1.259 . S
C149 O146 1.235 . S
O150 Co140 2.021 . S
O150 C147 1.238 . S
O151 Co145 2.052 . S
O151 C147 1.241 . S
O152 Co140 2.137 . S
O152 C143 1.247 . S
O153 Co140 2.244 . S
O153 C143 1.272 . S
O153 Co145 2.135 . S
Co154 O155 2.216 . S
Co154 O156 2.091 1_556 S
Co154 O158 2.000 . S
Co154 O164 2.021 1_556 S
Co154 O166 2.137 . S
Co154 O167 2.244 . S
O155 Co154 2.216 . S
O155 C162 1.250 . S
O156 Co154 2.091 1_554 S
O156 C162 1.264 1_554 S
C157 O166 1.247 . S
C157 O167 1.272 . S
O158 Co154 2.000 . S
O158 C163 1.254 1_556 S
Co159 O160 2.061 1_556 S
Co159 O165 2.052 1_556 S
Co159 O167 2.135 . S
O160 Co159 2.061 1_554 S
O160 C163 1.235 . S
C161 O164 1.238 . S
C161 O165 1.241 . S
C162 O155 1.250 . S
C162 O156 1.264 1_556 S
C163 O158 1.254 1_554 S
C163 O160 1.235 . S
O164 Co154 2.021 1_554 S
O164 C161 1.238 . S
O165 Co159 2.052 1_554 S
O165 C161 1.241 . S
O166 Co154 2.137 . S
O166 C157 1.247 . S
O167 Co154 2.244 . S
O167 C157 1.272 . S
O167 Co159 2.135 . S
Co168 O169 2.216 . S
Co168 O170 2.091 . S
Co168 O172 2.004 . S
Co168 O178 2.021 . S
Co168 O180 2.137 . S
Co168 O181 2.244 . S
O169 Co168 2.216 . S
O169 C176 1.247 . S
O170 Co168 2.091 . S
O170 C176 1.261 . S
C171 O180 1.247 . S
C171 O181 1.272 . S
O172 Co168 2.004 . S
O172 C177 1.259 . S
Co173 O174 2.061 . S
Co173 O179 2.052 . S
Co173 O181 2.135 . S
O174 Co173 2.061 . S
O174 C177 1.235 . S
C175 O178 1.238 . S
C175 O179 1.241 . S
C176 O169 1.247 . S
C176 O170 1.261 . S
C177 O172 1.259 . S
C177 O174 1.235 . S
O178 Co168 2.021 . S
O178 C175 1.238 . S
O179 Co173 2.052 . S
O179 C175 1.241 . S
O180 Co168 2.137 . S
O180 C171 1.247 . S
O181 Co168 2.244 . S
O181 C171 1.272 . S
O181 Co173 2.135 . S
Co182 O183 2.216 . S
Co182 O184 2.091 . S
Co182 O186 2.004 . S
Co182 O192 2.021 . S
Co182 O194 2.137 . S
Co182 O195 2.244 . S
O183 Co182 2.216 . S
O183 C190 1.247 . S
O184 Co182 2.091 . S
O184 C190 1.261 . S
C185 O194 1.247 . S
C185 O195 1.272 . S
O186 Co182 2.004 . S
O186 C191 1.259 . S
Co187 O188 2.061 . S
Co187 O193 2.052 . S
Co187 O195 2.135 . S
O188 Co187 2.061 . S
O188 C191 1.235 . S
C189 O192 1.238 . S
C189 O193 1.241 . S
C190 O183 1.247 . S
C190 O184 1.261 . S
C191 O186 1.259 . S
C191 O188 1.235 . S
O192 Co182 2.021 . S
O192 C189 1.238 . S
O193 Co187 2.052 . S
O193 C189 1.241 . S
O194 Co182 2.137 . S
O194 C185 1.247 . S
O195 Co182 2.244 . S
O195 C185 1.272 . S
O195 Co187 2.135 . S
Co196 O197 2.216 . S
Co196 O198 2.091 . S
Co196 O200 2.004 . S
Co196 O206 2.021 . S
Co196 O208 2.137 . S
Co196 O209 2.244 . S
O197 Co196 2.216 . S
O197 C204 1.247 . S
O198 Co196 2.091 . S
O198 C204 1.261 . S
C199 O208 1.247 . S
C199 O209 1.272 . S
O200 Co196 2.004 . S
O200 C205 1.259 . S
Co201 O202 2.061 . S
Co201 O207 2.052 . S
Co201 O209 2.135 . S
O202 Co201 2.061 . S
O202 C205 1.235 . S
C203 O206 1.238 . S
C203 O207 1.241 . S
C204 O197 1.247 . S
C204 O198 1.261 . S
C205 O200 1.259 . S
C205 O202 1.235 . S
O206 Co196 2.021 . S
O206 C203 1.238 . S
O207 Co201 2.052 . S
O207 C203 1.241 . S
O208 Co196 2.137 . S
O208 C199 1.247 . S
O209 Co196 2.244 . S
O209 C199 1.272 . S
O209 Co201 2.135 . S
Co210 O211 2.216 . S
Co210 O212 2.091 . S
Co210 O214 2.004 . S
Co210 O220 2.021 . S
Co210 O222 2.137 . S
Co210 O223 2.244 . S
O211 Co210 2.216 . S
O211 C218 1.247 . S
O212 Co210 2.091 . S
O212 C218 1.261 . S
C213 O222 1.247 . S
C213 O223 1.272 . S
O214 Co210 2.004 . S
O214 C219 1.259 . S
Co215 O216 2.061 . S
Co215 O221 2.052 . S
Co215 O223 2.135 . S
O216 Co215 2.061 . S
O216 C219 1.235 . S
C217 O220 1.238 . S
C217 O221 1.241 . S
C218 O211 1.247 . S
C218 O212 1.261 . S
C219 O214 1.259 . S
C219 O216 1.235 . S
O220 Co210 2.021 . S
O220 C217 1.238 . S
O221 Co215 2.052 . S
O221 C217 1.241 . S
O222 Co210 2.137 . S
O222 C213 1.247 . S
O223 Co210 2.244 . S
O223 C213 1.272 . S
O223 Co215 2.135 . S
Co224 O225 2.216 . S
Co224 O226 2.091 . S
Co224 O228 2.004 1_545 S
Co224 O234 2.021 . S
Co224 O236 2.137 . S
Co224 O237 2.244 . S
O225 Co224 2.216 . S
O225 C232 1.247 . S
O226 Co224 2.091 . S
O226 C232 1.261 . S
C227 O236 1.247 . S
C227 O237 1.272 . S
O228 Co224 2.004 1_565 S
O228 C233 1.259 . S
Co229 O230 2.061 . S
Co229 O235 2.052 1_565 S
Co229 O237 2.135 1_565 S
O230 Co229 2.061 . S
O230 C233 1.235 . S
C231 O234 1.238 . S
C231 O235 1.241 . S
C232 O225 1.247 . S
C232 O226 1.261 . S
C233 O228 1.259 . S
C233 O230 1.235 . S
O234 Co224 2.021 . S
O234 C231 1.238 . S
O235 Co229 2.052 1_545 S
O235 C231 1.241 . S
O236 Co224 2.137 . S
O236 C227 1.247 . S
O237 Co224 2.244 . S
O237 C227 1.272 . S
O237 Co229 2.135 1_545 S
Co238 O239 2.216 . S
Co238 O240 2.091 . S
Co238 O242 2.004 . S
Co238 O248 2.021 . S
Co238 O250 2.137 . S
Co238 O251 2.244 . S
O239 Co238 2.216 . S
O239 C246 1.247 . S
O240 Co238 2.091 . S
O240 C246 1.261 . S
C241 O250 1.247 . S
C241 O251 1.272 . S
O242 Co238 2.004 . S
O242 C247 1.259 . S
Co243 O244 2.061 . S
Co243 O249 2.052 . S
Co243 O251 2.135 . S
O244 Co243 2.061 . S
O244 C247 1.235 . S
C245 O248 1.238 . S
C245 O249 1.241 . S
C246 O239 1.247 . S
C246 O240 1.261 . S
C247 O242 1.259 . S
C247 O244 1.235 . S
O248 Co238 2.021 . S
O248 C245 1.238 . S
O249 Co243 2.052 . S
O249 C245 1.241 . S
O250 Co238 2.137 . S
O250 C241 1.247 . S
O251 Co238 2.244 . S
O251 C241 1.272 . S
O251 Co243 2.135 . S
Co252 O253 2.216 . S
Co252 O254 2.091 . S
Co252 O256 2.004 . S
Co252 O262 2.021 . S
Co252 O264 2.137 . S
Co252 O265 2.244 . S
O253 Co252 2.216 . S
O253 C260 1.247 . S
O254 Co252 2.091 . S
O254 C260 1.261 . S
C255 O264 1.247 . S
C255 O265 1.272 . S
O256 Co252 2.004 . S
O256 C261 1.259 . S
Co257 O258 2.061 . S
Co257 O263 2.052 . S
Co257 O265 2.135 . S
O258 Co257 2.061 . S
O258 C261 1.235 . S
C259 O262 1.238 . S
C259 O263 1.241 . S
C260 O253 1.247 . S
C260 O254 1.261 . S
C261 O256 1.259 . S
C261 O258 1.235 . S
O262 Co252 2.021 . S
O262 C259 1.238 . S
O263 Co257 2.052 . S
O263 C259 1.241 . S
O264 Co252 2.137 . S
O264 C255 1.247 . S
O265 Co252 2.244 . S
O265 C255 1.272 . S
O265 Co257 2.135 . S
Co266 O267 2.216 . S
Co266 O268 2.091 . S
Co266 O270 2.004 . S
Co266 O276 2.021 . S
Co266 O278 2.137 . S
Co266 O279 2.244 . S
O267 Co266 2.216 . S
O267 C274 1.247 . S
O268 Co266 2.091 . S
O268 C274 1.261 . S
C269 O278 1.247 . S
C269 O279 1.272 . S
O270 Co266 2.004 . S
O270 C275 1.259 . S
Co271 O272 2.061 . S
Co271 O277 2.052 . S
Co271 O279 2.135 . S
O272 Co271 2.061 . S
O272 C275 1.235 . S
C273 O276 1.238 . S
C273 O277 1.241 . S
C274 O267 1.247 . S
C274 O268 1.261 . S
C275 O270 1.259 . S
C275 O272 1.235 . S
O276 Co266 2.021 . S
O276 C273 1.238 . S
O277 Co271 2.052 . S
O277 C273 1.241 . S
O278 Co266 2.137 . S
O278 C269 1.247 . S
O279 Co266 2.244 . S
O279 C269 1.272 . S
O279 Co271 2.135 . S
Co280 O281 2.216 . S
Co280 O282 2.091 . S
Co280 O284 2.004 . S
Co280 O290 2.021 . S
Co280 O292 2.137 1_554 S
Co280 O293 2.244 1_554 S
O281 Co280 2.216 . S
O281 C288 1.247 . S
O282 Co280 2.091 . S
O282 C288 1.261 . S
C283 O292 1.247 . S
C283 O293 1.272 . S
O284 Co280 2.004 . S
O284 C289 1.259 . S
Co285 O286 2.061 . S
Co285 O291 2.052 . S
Co285 O293 2.135 1_554 S
O286 Co285 2.061 . S
O286 C289 1.235 . S
C287 O290 1.238 . S
C287 O291 1.241 . S
C288 O281 1.247 . S
C288 O282 1.261 . S
C289 O284 1.259 . S
C289 O286 1.235 . S
O290 Co280 2.021 . S
O290 C287 1.238 . S
O291 Co285 2.052 . S
O291 C287 1.241 . S
O292 Co280 2.137 1_556 S
O292 C283 1.247 . S
O293 Co280 2.244 1_556 S
O293 C283 1.272 . S
O293 Co285 2.135 1_556 S
Co294 O295 2.216 . S
Co294 O296 2.091 . S
Co294 O298 2.004 . S
Co294 O304 2.021 . S
Co294 O306 2.137 . S
Co294 O307 2.244 . S
O295 Co294 2.216 . S
O295 C302 1.247 . S
O296 Co294 2.091 . S
O296 C302 1.261 . S
C297 O306 1.247 . S
C297 O307 1.272 . S
O298 Co294 2.004 . S
O298 C303 1.259 . S
Co299 O300 2.061 . S
Co299 O305 2.052 . S
Co299 O307 2.135 . S
O300 Co299 2.061 . S
O300 C303 1.235 . S
C301 O304 1.238 . S
C301 O305 1.241 . S
C302 O295 1.247 . S
C302 O296 1.261 . S
C303 O298 1.259 . S
C303 O300 1.235 . S
O304 Co294 2.021 . S
O304 C301 1.238 . S
O305 Co299 2.052 . S
O305 C301 1.241 . S
O306 Co294 2.137 . S
O306 C297 1.247 . S
O307 Co294 2.244 . S
O307 C297 1.272 . S
O307 Co299 2.135 . S
Co308 O309 2.216 . S
Co308 O310 2.091 . S
Co308 O312 2.004 . S
Co308 O318 2.021 . S
Co308 O320 2.137 . S
Co308 O321 2.244 . S
O309 Co308 2.216 . S
O309 C316 1.247 . S
O310 Co308 2.091 . S
O310 C316 1.261 . S
C311 O320 1.247 . S
C311 O321 1.272 . S
O312 Co308 2.004 . S
O312 C317 1.259 . S
Co313 O314 2.061 . S
Co313 O319 2.052 . S
Co313 O321 2.135 . S
O314 Co313 2.061 . S
O314 C317 1.235 . S
C315 O318 1.238 . S
C315 O319 1.241 . S
C316 O309 1.247 . S
C316 O310 1.261 . S
C317 O312 1.259 . S
C317 O314 1.235 . S
O318 Co308 2.021 . S
O318 C315 1.238 . S
O319 Co313 2.052 . S
O319 C315 1.241 . S
O320 Co308 2.137 . S
O320 C311 1.247 . S
O321 Co308 2.244 . S
O321 C311 1.272 . S
O321 Co313 2.135 . S
Co322 O323 2.216 . S
Co322 O324 2.091 . S
Co322 O326 2.004 . S
Co322 O332 2.021 . S
Co322 O334 2.137 . S
Co322 O335 2.244 . S
O323 Co322 2.216 . S
O323 C330 1.247 . S
O324 Co322 2.091 . S
O324 C330 1.261 . S
C325 O334 1.247 . S
C325 O335 1.272 . S
O326 Co322 2.004 . S
O326 C331 1.259 . S
Co327 O328 2.061 . S
Co327 O333 2.052 . S
Co327 O335 2.135 . S
O328 Co327 2.061 . S
O328 C331 1.235 . S
C329 O332 1.238 . S
C329 O333 1.241 . S
C330 O323 1.247 . S
C330 O324 1.261 . S
C331 O326 1.259 . S
C331 O328 1.235 . S
O332 Co322 2.021 . S
O332 C329 1.238 . S
O333 Co327 2.052 . S
O333 C329 1.241 . S
O334 Co322 2.137 . S
O334 C325 1.247 . S
O335 Co322 2.244 . S
O335 C325 1.272 . S
O335 Co327 2.135 . S
C336 C338 1.422 1_556 S
C336 C340 1.415 . S
C336 N342 1.369 . S
C337 C338 1.421 . S
C337 C339 1.417 1_554 S
C337 C349 1.422 . S
C338 C336 1.422 1_554 S
C338 C337 1.421 . S
C338 N348 1.359 . S
C339 C337 1.417 1_556 S
C339 C341 1.329 . S
C339 H358 0.930 1_556 S
C340 C336 1.415 . S
C340 C341 1.437 . S
C340 C344 1.413 . S
C341 C339 1.329 . S
C341 C340 1.437 . S
C341 H363 0.929 . S
N342 C336 1.369 . S
N342 C343 1.338 . S
N342 Gd347 2.622 1_566 S
C343 N342 1.338 . S
C343 C345 1.378 . S
C343 H355 0.962 . S
C344 C340 1.413 . S
C344 C345 1.348 . S
C344 H360 0.931 . S
C345 C343 1.378 . S
C345 C344 1.348 . S
C345 H361 0.930 . S
Gd346 N366 2.622 . S
Gd346 N373 2.570 . S
Gd346 O380 2.353 . S
Gd346 O381 2.468 . S
Gd346 O382 2.427 . S
Gd346 O384 2.388 . S
Gd346 O385 2.386 . S
Gd346 O389 2.307 . S
Gd346 C399 2.805 . S
Gd347 N342 2.622 1_544 S
Gd347 N348 2.570 1_545 S
Gd347 O379 2.386 1_645 S
Gd347 O383 2.307 1_655 S
Gd347 O386 2.353 1_655 S
Gd347 O387 2.468 . S
Gd347 O388 2.427 1_554 S
Gd347 O390 2.388 1_654 S
Gd347 C411 2.805 . S
N348 C338 1.359 . S
N348 Gd347 2.570 1_565 S
N348 C350 1.343 . S
C349 C337 1.422 . S
C349 C351 1.321 . S
C349 H357 0.931 . S
C350 N348 1.343 . S
C350 C351 1.390 . S
C350 H352 0.931 . S
C351 C349 1.321 . S
C351 C350 1.390 . S
C351 H353 0.930 . S
H352 C350 0.931 . S
H353 C351 0.930 . S
H354 C377 0.931 . S
H355 C343 0.962 . S
H356 C378 0.930 1_556 S
H357 C349 0.931 . S
H358 C339 0.930 1_554 S
H359 C368 0.929 . S
H360 C344 0.931 . S
H361 C345 0.930 . S
H362 C400 0.930 . S
H363 C341 0.929 . S
H364 C369 0.931 . S
H365 C370 0.930 . S
N366 Gd346 2.622 . S
N366 C367 1.369 . S
N366 C368 1.338 . S
C367 N366 1.369 . S
C367 C371 1.415 . S
C367 C374 1.422 . S
C368 H359 0.929 . S
C368 N366 1.338 . S
C368 C370 1.378 . S
C369 H364 0.931 . S
C369 C370 1.348 . S
C369 C371 1.413 . S
C370 H365 0.930 . S
C370 C368 1.378 . S
C370 C369 1.348 . S
C371 C367 1.415 . S
C371 C369 1.413 . S
C371 C401 1.437 . S
H372 C401 0.929 . S
N373 Gd346 2.570 . S
N373 C374 1.359 . S
N373 C377 1.343 . S
C374 C367 1.422 . S
C374 N373 1.359 . S
C374 C376 1.421 . S
C375 C376 1.422 . S
C375 C378 1.321 . S
C375 H402 0.931 . S
C376 C374 1.421 . S
C376 C375 1.422 . S
C376 C400 1.417 . S
C377 H354 0.931 . S
C377 N373 1.343 . S
C377 C378 1.390 . S
C378 H356 0.930 1_554 S
C378 C375 1.321 . S
C378 C377 1.390 . S
O379 Gd347 2.386 1_465 S
O379 C391 1.265 . S
O380 Gd346 2.353 . S
O380 C391 1.242 1_545 S
O381 Gd346 2.468 . S
O381 C399 1.263 . S
O382 Gd346 2.427 . S
O382 C399 1.252 . S
O383 Gd347 2.307 1_455 S
O383 C392 1.261 . S
O384 Gd346 2.388 . S
O384 C392 1.252 . S
O385 Gd346 2.386 . S
O385 C403 1.265 . S
O386 Gd347 2.353 1_455 S
O386 C403 1.242 . S
O387 Gd347 2.468 . S
O387 C411 1.263 . S
O388 Gd347 2.427 1_556 S
O388 C411 1.252 1_556 S
O389 Gd346 2.307 . S
O389 C404 1.261 1_554 S
O390 Gd347 2.388 1_456 S
O390 C404 1.252 . S
C391 O379 1.265 . S
C391 O380 1.242 1_565 S
C392 O383 1.261 . S
C392 O384 1.252 . S
C393 C396 1.394 . S
C393 C398 1.370 . S
C393 C399 1.500 . S
C394 C397 1.376 . S
C394 C398 1.427 . S
C395 C396 1.396 . S
C395 C397 1.365 . S
C395 H412 0.929 . S
C396 C393 1.394 . S
C396 C395 1.396 . S
C396 H413 0.930 . S
C397 C394 1.376 . S
C397 C395 1.365 . S
C397 H414 0.931 1_545 S
C398 C393 1.370 . S
C398 C394 1.427 . S
C398 H415 0.930 . S
C399 Gd346 2.805 . S
C399 O381 1.263 . S
C399 O382 1.252 . S
C399 C393 1.500 . S
C400 H362 0.930 . S
C400 C376 1.417 . S
C400 C401 1.329 . S
C401 C371 1.437 . S
C401 H372 0.929 . S
C401 C400 1.329 . S
H402 C375 0.931 . S
C403 O385 1.265 . S
C403 O386 1.242 . S
C404 O389 1.261 1_556 S
C404 O390 1.252 . S
C405 C408 1.336 1_554 S
C405 C410 1.420 . S
C405 C411 1.509 . S
C406 C409 1.383 1_554 S
C406 C410 1.395 . S
C407 C408 1.396 . S
C407 C409 1.365 . S
C407 H416 0.929 . S
C408 C405 1.336 1_556 S
C408 C407 1.396 . S
C408 H417 0.930 . S
C409 C406 1.383 1_556 S
C409 C407 1.365 . S
C409 H418 0.931 . S
C410 C405 1.420 . S
C410 C406 1.395 . S
C410 H419 0.930 . S
C411 Gd347 2.805 . S
C411 O387 1.263 . S
C411 O388 1.252 1_554 S
C411 C405 1.509 . S
H412 C395 0.929 . S
H413 C396 0.930 . S
H414 C397 0.931 1_565 S
H415 C398 0.930 . S
H416 C407 0.929 . S
H417 C408 0.930 . S
H418 C409 0.931 . S
H419 C410 0.930 . S
C420 C422 1.422 . S
C420 C424 1.415 . S
C420 N426 1.369 . S
C421 C422 1.421 . S
C421 C423 1.417 . S
C421 C433 1.422 . S
C422 C420 1.422 . S
C422 C421 1.421 . S
C422 N432 1.359 . S
C423 C421 1.417 . S
C423 C425 1.329 . S
C423 H442 0.930 . S
C424 C420 1.415 . S
C424 C425 1.437 . S
C424 C428 1.413 . S
C425 C423 1.329 . S
C425 C424 1.437 . S
C425 H447 0.929 . S
N426 C420 1.369 . S
N426 C427 1.338 . S
N426 Gd431 2.622 . S
C427 N426 1.338 . S
C427 C429 1.378 . S
C427 H439 0.929 . S
C428 C424 1.413 . S
C428 C429 1.348 . S
C428 H444 0.931 . S
C429 C427 1.378 . S
C429 C428 1.348 . S
C429 H445 0.930 . S
Gd430 N450 2.622 . S
Gd430 N457 2.570 . S
Gd430 O464 2.353 . S
Gd430 O465 2.468 . S
Gd430 O466 2.427 . S
Gd430 O468 2.388 . S
Gd430 O469 2.386 . S
Gd430 O473 2.307 . S
Gd430 C483 2.805 . S
Gd431 N426 2.622 . S
Gd431 N432 2.570 . S
Gd431 O463 2.386 . S
Gd431 O467 2.307 . S
Gd431 O470 2.353 . S
Gd431 O471 2.468 . S
Gd431 O472 2.427 . S
Gd431 O474 2.388 . S
Gd431 C495 2.805 . S
N432 C422 1.359 . S
N432 Gd431 2.570 . S
N432 C434 1.343 . S
C433 C421 1.422 . S
C433 C435 1.321 . S
C433 H441 0.931 . S
C434 N432 1.343 . S
C434 C435 1.390 . S
C434 H436 0.931 . S
C435 C433 1.321 . S
C435 C434 1.390 . S
C435 H437 0.930 . S
H436 C434 0.931 . S
H437 C435 0.930 . S
H438 C461 0.931 . S
H439 C427 0.929 . S
H440 C462 0.930 . S
H441 C433 0.931 . S
H442 C423 0.930 . S
H443 C452 0.929 . S
H444 C428 0.931 . S
H445 C429 0.930 . S
H446 C484 0.930 . S
H447 C425 0.929 . S
H448 C453 0.931 . S
H449 C454 0.930 . S
N450 Gd430 2.622 . S
N450 C451 1.369 . S
N450 C452 1.338 . S
C451 N450 1.369 . S
C451 C455 1.415 . S
C451 C458 1.422 . S
C452 H443 0.929 . S
C452 N450 1.338 . S
C452 C454 1.378 . S
C453 H448 0.931 . S
C453 C454 1.348 . S
C453 C455 1.413 . S
C454 H449 0.930 . S
C454 C452 1.378 . S
C454 C453 1.348 . S
C455 C451 1.415 . S
C455 C453 1.413 . S
C455 C485 1.437 . S
H456 C485 0.929 . S
N457 Gd430 2.570 . S
N457 C458 1.359 . S
N457 C461 1.343 . S
C458 C451 1.422 . S
C458 N457 1.359 . S
C458 C460 1.421 . S
C459 C460 1.422 . S
C459 C462 1.321 . S
C459 H486 0.931 . S
C460 C458 1.421 . S
C460 C459 1.422 . S
C460 C484 1.417 . S
C461 H438 0.931 . S
C461 N457 1.343 . S
C461 C462 1.390 . S
C462 H440 0.930 . S
C462 C459 1.321 . S
C462 C461 1.390 . S
O463 Gd431 2.386 . S
O463 C475 1.265 . S
O464 Gd430 2.353 . S
O464 C475 1.242 . S
O465 Gd430 2.468 . S
O465 C483 1.263 . S
O466 Gd430 2.427 . S
O466 C483 1.252 . S
O467 Gd431 2.307 . S
O467 C476 1.261 . S
O468 Gd430 2.388 . S
O468 C476 1.252 . S
O469 Gd430 2.386 . S
O469 C487 1.265 . S
O470 Gd431 2.353 . S
O470 C487 1.242 . S
O471 Gd431 2.468 . S
O471 C495 1.263 . S
O472 Gd431 2.427 . S
O472 C495 1.252 . S
O473 Gd430 2.307 . S
O473 C488 1.261 . S
O474 Gd431 2.388 . S
O474 C488 1.252 . S
C475 O463 1.265 . S
C475 O464 1.242 . S
C476 O467 1.261 . S
C476 O468 1.252 . S
C477 C480 1.394 . S
C477 C482 1.370 . S
C477 C483 1.500 . S
C478 C481 1.383 . S
C478 C482 1.395 . S
C479 C480 1.396 . S
C479 C481 1.365 . S
C479 H496 0.929 . S
C480 C477 1.394 . S
C480 C479 1.396 . S
C480 H497 0.930 . S
C481 C478 1.383 . S
C481 C479 1.365 . S
C481 H498 0.931 . S
C482 C477 1.370 . S
C482 C478 1.395 . S
C482 H499 0.930 . S
C483 Gd430 2.805 . S
C483 O465 1.263 . S
C483 O466 1.252 . S
C483 C477 1.500 . S
C484 H446 0.930 . S
C484 C460 1.417 . S
C484 C485 1.329 . S
C485 C455 1.437 . S
C485 H456 0.929 . S
C485 C484 1.329 . S
H486 C459 0.931 . S
C487 O469 1.265 . S
C487 O470 1.242 . S
C488 O473 1.261 . S
C488 O474 1.252 . S
C489 C492 1.394 . S
C489 C494 1.370 . S
C489 C495 1.500 . S
C490 C493 1.383 . S
C490 C494 1.395 . S
C491 C492 1.396 . S
C491 C493 1.365 . S
C491 H500 0.929 . S
C492 C489 1.394 . S
C492 C491 1.396 . S
C492 H501 0.930 . S
C493 C490 1.383 . S
C493 C491 1.365 . S
C493 H502 0.931 . S
C494 C489 1.370 . S
C494 C490 1.395 . S
C494 H503 0.930 . S
C495 Gd431 2.805 . S
C495 O471 1.263 . S
C495 O472 1.252 . S
C495 C489 1.500 . S
H496 C479 0.929 . S
H497 C480 0.930 . S
H498 C481 0.931 . S
H499 C482 0.930 . S
H500 C491 0.929 . S
H501 C492 0.930 . S
H502 C493 0.931 . S
H503 C494 0.930 . S
C504 C506 1.422 . S
C504 C508 1.415 . S
C504 N510 1.369 . S
C505 C506 1.421 . S
C505 C507 1.417 . S
C505 C517 1.422 . S
C506 C504 1.422 . S
C506 C505 1.421 . S
C506 N516 1.359 . S
C507 C505 1.417 . S
C507 C509 1.329 . S
C507 H526 0.930 . S
C508 C504 1.415 . S
C508 C509 1.437 . S
C508 C512 1.413 . S
C509 C507 1.329 . S
C509 C508 1.437 . S
C509 H531 0.929 . S
N510 C504 1.369 . S
N510 C511 1.338 . S
N510 Gd515 2.622 . S
C511 N510 1.338 . S
C511 C513 1.378 . S
C511 H523 0.929 . S
C512 C508 1.413 . S
C512 C513 1.348 . S
C512 H528 0.931 . S
C513 C511 1.378 . S
C513 C512 1.348 . S
C513 H529 0.930 . S
Gd514 N534 2.622 1_545 S
Gd514 N541 2.570 1_545 S
Gd514 O548 2.353 . S
Gd514 O549 2.468 . S
Gd514 O550 2.427 . S
Gd514 O552 2.388 . S
Gd514 O553 2.386 1_545 S
Gd514 O557 2.307 . S
Gd514 C567 2.805 . S
Gd515 N510 2.622 . S
Gd515 N516 2.570 . S
Gd515 O547 2.386 . S
Gd515 O551 2.307 . S
Gd515 O554 2.353 1_545 S
Gd515 O555 2.468 . S
Gd515 O556 2.427 . S
Gd515 O558 2.388 . S
Gd515 C579 2.805 . S
N516 C506 1.359 . S
N516 Gd515 2.570 . S
N516 C518 1.343 . S
C517 C505 1.422 . S
C517 C519 1.321 . S
C517 H525 0.931 . S
C518 N516 1.343 . S
C518 C519 1.390 . S
C518 H520 0.931 . S
C519 C517 1.321 . S
C519 C518 1.390 . S
C519 H521 0.930 . S
H520 C518 0.931 . S
H521 C519 0.930 . S
H522 C545 0.931 . S
H523 C511 0.929 . S
H524 C546 0.930 . S
H525 C517 0.931 . S
H526 C507 0.930 . S
H527 C536 0.889 1_545 S
H528 C512 0.931 . S
H529 C513 0.930 . S
H530 C568 0.930 . S
H531 C509 0.929 . S
H532 C537 0.931 . S
H533 C538 0.930 . S
N534 Gd514 2.622 1_565 S
N534 C535 1.369 . S
N534 C536 1.336 . S
C535 N534 1.369 . S
C535 C539 1.415 . S
C535 C542 1.422 . S
C536 H527 0.889 1_565 S
C536 N534 1.336 . S
C536 C538 1.421 . S
C537 H532 0.931 . S
C537 C538 1.348 . S
C537 C539 1.413 . S
C538 H533 0.930 . S
C538 C536 1.421 . S
C538 C537 1.348 . S
C539 C535 1.415 . S
C539 C537 1.413 . S
C539 C569 1.437 . S
H540 C569 0.929 . S
N541 Gd514 2.570 1_565 S
N541 C542 1.359 . S
N541 C545 1.343 . S
C542 C535 1.422 . S
C542 N541 1.359 . S
C542 C544 1.421 . S
C543 C544 1.422 . S
C543 C546 1.321 . S
C543 H570 0.931 . S
C544 C542 1.421 . S
C544 C543 1.422 . S
C544 C568 1.417 . S
C545 H522 0.931 . S
C545 N541 1.343 . S
C545 C546 1.390 . S
C546 H524 0.930 . S
C546 C543 1.321 . S
C546 C545 1.390 . S
O547 Gd515 2.386 . S
O547 C559 1.265 . S
O548 Gd514 2.353 . S
O548 C559 1.242 . S
O549 Gd514 2.468 . S
O549 C567 1.263 . S
O550 Gd514 2.427 . S
O550 C567 1.252 . S
O551 Gd515 2.307 . S
O551 C560 1.261 . S
O552 Gd514 2.388 . S
O552 C560 1.252 . S
O553 Gd514 2.386 1_565 S
O553 C571 1.265 . S
O554 Gd515 2.353 1_565 S
O554 C571 1.242 . S
O555 Gd515 2.468 . S
O555 C579 1.263 . S
O556 Gd515 2.427 . S
O556 C579 1.252 . S
O557 Gd514 2.307 . S
O557 C572 1.261 . S
O558 Gd515 2.388 . S
O558 C572 1.252 . S
C559 O547 1.265 . S
C559 O548 1.242 . S
C560 O551 1.261 . S
C560 O552 1.252 . S
C561 C564 1.394 . S
C561 C566 1.370 . S
C561 C567 1.500 . S
C562 C565 1.383 . S
C562 C566 1.395 . S
C563 C564 1.396 . S
C563 C565 1.365 . S
C563 H580 0.929 . S
C564 C561 1.394 . S
C564 C563 1.396 . S
C564 H581 0.930 . S
C565 C562 1.383 . S
C565 C563 1.365 . S
C565 H582 0.931 . S
C566 C561 1.370 . S
C566 C562 1.395 . S
C566 H583 0.930 . S
C567 Gd514 2.805 . S
C567 O549 1.263 . S
C567 O550 1.252 . S
C567 C561 1.500 . S
C568 H530 0.930 . S
C568 C544 1.417 . S
C568 C569 1.329 . S
C569 C539 1.437 . S
C569 H540 0.929 . S
C569 C568 1.329 . S
H570 C543 0.931 . S
C571 O553 1.265 . S
C571 O554 1.242 . S
C572 O557 1.261 . S
C572 O558 1.252 . S
C573 C576 1.394 . S
C573 C578 1.370 . S
C573 C579 1.500 1_565 S
C574 C577 1.383 . S
C574 C578 1.395 . S
C575 C576 1.396 . S
C575 C577 1.365 . S
C575 H584 0.929 . S
C576 C573 1.394 . S
C576 C575 1.396 . S
C576 H585 0.930 . S
C577 C574 1.383 . S
C577 C575 1.365 . S
C577 H586 0.931 . S
C578 C573 1.370 . S
C578 C574 1.395 . S
C578 H587 0.930 . S
C579 Gd515 2.805 . S
C579 O555 1.263 . S
C579 O556 1.252 . S
C579 C573 1.500 1_545 S
H580 C563 0.929 . S
H581 C564 0.930 . S
H582 C565 0.931 . S
H583 C566 0.930 . S
H584 C575 0.929 . S
H585 C576 0.930 . S
H586 C577 0.931 . S
H587 C578 0.930 . S
C588 C590 1.422 . S
C588 C592 1.415 . S
C588 N594 1.369 . S
C589 C590 1.421 . S
C589 C591 1.417 . S
C589 C601 1.422 . S
C590 C588 1.422 . S
C590 C589 1.421 . S
C590 N600 1.359 . S
C591 C589 1.417 . S
C591 C593 1.329 . S
C591 H610 0.930 . S
C592 C588 1.415 . S
C592 C593 1.437 . S
C592 C596 1.413 . S
C593 C591 1.329 . S
C593 C592 1.437 . S
C593 H615 0.929 . S
N594 C588 1.369 . S
N594 C595 1.338 . S
N594 Gd599 2.622 . S
C595 N594 1.338 . S
C595 C597 1.378 . S
C595 H607 0.929 . S
C596 C592 1.413 . S
C596 C597 1.348 . S
C596 H612 0.931 . S
C597 C595 1.378 . S
C597 C596 1.348 . S
C597 H613 0.930 . S
Gd598 N618 2.622 . S
Gd598 N625 2.570 . S
Gd598 O632 2.353 . S
Gd598 O633 2.468 . S
Gd598 O634 2.427 . S
Gd598 O636 2.388 . S
Gd598 O637 2.386 . S
Gd598 O641 2.307 . S
Gd598 C651 2.805 . S
Gd599 N594 2.622 . S
Gd599 N600 2.570 . S
Gd599 O631 2.386 . S
Gd599 O635 2.307 . S
Gd599 O638 2.353 . S
Gd599 O639 2.468 . S
Gd599 O640 2.427 . S
Gd599 O642 2.388 . S
Gd599 C663 2.805 . S
N600 C590 1.359 . S
N600 Gd599 2.570 . S
N600 C602 1.343 . S
C601 C589 1.422 . S
C601 C603 1.321 . S
C601 H609 0.931 . S
C602 N600 1.343 . S
C602 C603 1.390 . S
C602 H604 0.931 . S
C603 C601 1.321 . S
C603 C602 1.390 . S
C603 H605 0.930 . S
H604 C602 0.931 . S
H605 C603 0.930 . S
H606 C629 0.931 . S
H607 C595 0.929 . S
H608 C630 0.930 . S
H609 C601 0.931 . S
H610 C591 0.930 . S
H611 C620 0.929 . S
H612 C596 0.931 . S
H613 C597 0.930 . S
H614 C652 0.930 . S
H615 C593 0.929 . S
H616 C621 0.931 . S
H617 C622 0.930 . S
N618 Gd598 2.622 . S
N618 C619 1.369 . S
N618 C620 1.338 . S
C619 N618 1.369 . S
C619 C623 1.415 . S
C619 C626 1.422 . S
C620 H611 0.929 . S
C620 N618 1.338 . S
C620 C622 1.378 . S
C621 H616 0.931 . S
C621 C622 1.348 . S
C621 C623 1.413 . S
C622 H617 0.930 . S
C622 C620 1.378 . S
C622 C621 1.348 . S
C623 C619 1.415 . S
C623 C621 1.413 . S
C623 C653 1.437 . S
H624 C653 0.929 . S
N625 Gd598 2.570 . S
N625 C626 1.359 . S
N625 C629 1.343 . S
C626 C619 1.422 . S
C626 N625 1.359 . S
C626 C628 1.421 . S
C627 C628 1.422 . S
C627 C630 1.321 . S
C627 H654 0.931 . S
C628 C626 1.421 . S
C628 C627 1.422 . S
C628 C652 1.417 . S
C629 H606 0.931 . S
C629 N625 1.343 . S
C629 C630 1.390 . S
C630 H608 0.930 . S
C630 C627 1.321 . S
C630 C629 1.390 . S
O631 Gd599 2.386 . S
O631 C643 1.265 . S
O632 Gd598 2.353 . S
O632 C643 1.242 . S
O633 Gd598 2.468 . S
O633 C651 1.263 . S
O634 Gd598 2.427 . S
O634 C651 1.252 . S
O635 Gd599 2.307 . S
O635 C644 1.261 . S
O636 Gd598 2.388 . S
O636 C644 1.252 . S
O637 Gd598 2.386 . S
O637 C655 1.265 . S
O638 Gd599 2.353 . S
O638 C655 1.242 . S
O639 Gd599 2.468 . S
O639 C663 1.263 . S
O640 Gd599 2.427 . S
O640 C663 1.252 . S
O641 Gd598 2.307 . S
O641 C656 1.261 . S
O642 Gd599 2.388 . S
O642 C656 1.252 . S
C643 O631 1.265 . S
C643 O632 1.242 . S
C644 O635 1.261 . S
C644 O636 1.252 . S
C645 C648 1.394 . S
C645 C650 1.370 . S
C645 C651 1.500 . S
C646 C649 1.383 . S
C646 C650 1.395 . S
C647 C648 1.396 . S
C647 C649 1.365 . S
C647 H664 0.929 . S
C648 C645 1.394 . S
C648 C647 1.396 . S
C648 H665 0.930 . S
C649 C646 1.383 . S
C649 C647 1.365 . S
C649 H666 0.931 . S
C650 C645 1.370 . S
C650 C646 1.395 . S
C650 H667 0.930 . S
C651 Gd598 2.805 . S
C651 O633 1.263 . S
C651 O634 1.252 . S
C651 C645 1.500 . S
C652 H614 0.930 . S
C652 C628 1.417 . S
C652 C653 1.329 . S
C653 C623 1.437 . S
C653 H624 0.929 . S
C653 C652 1.329 . S
H654 C627 0.931 . S
C655 O637 1.265 . S
C655 O638 1.242 . S
C656 O641 1.261 . S
C656 O642 1.252 . S
C657 C660 1.394 . S
C657 C662 1.370 . S
C657 C663 1.500 . S
C658 C661 1.383 . S
C658 C662 1.395 . S
C659 C660 1.396 . S
C659 C661 1.365 . S
C659 H668 0.929 . S
C660 C657 1.394 . S
C660 C659 1.396 . S
C660 H669 0.930 . S
C661 C658 1.383 . S
C661 C659 1.365 . S
C661 H670 0.931 . S
C662 C657 1.370 . S
C662 C658 1.395 . S
C662 H671 0.930 . S
C663 Gd599 2.805 . S
C663 O639 1.263 . S
C663 O640 1.252 . S
C663 C657 1.500 . S
H664 C647 0.929 . S
H665 C648 0.930 . S
H666 C649 0.931 . S
H667 C650 0.930 . S
H668 C659 0.929 . S
H669 C660 0.930 . S
H670 C661 0.931 . S
H671 C662 0.930 . S
C672 C674 1.422 . S
C672 C676 1.415 1_455 S
C672 N678 1.369 1_455 S
C673 C674 1.421 . S
C673 C675 1.417 . S
C673 C685 1.422 . S
C674 C672 1.422 . S
C674 C673 1.421 . S
C674 N684 1.359 . S
C675 C673 1.417 . S
C675 C677 1.329 . S
C675 H694 0.930 . S
C676 C672 1.415 1_655 S
C676 C677 1.437 1_655 S
C676 C680 1.413 . S
C677 C675 1.329 . S
C677 C676 1.437 1_455 S
C677 H699 0.920 1_455 S
N678 C672 1.369 1_655 S
N678 C679 1.338 . S
N678 Gd683 2.622 1_655 S
C679 N678 1.338 . S
C679 C681 1.378 . S
C679 H691 0.929 . S
C680 C676 1.413 . S
C680 C681 1.348 . S
C680 H696 0.931 . S
C681 C679 1.378 . S
C681 C680 1.348 . S
C681 H697 0.930 . S
Gd682 N702 2.622 . S
Gd682 N709 2.570 . S
Gd682 O716 2.353 1_565 S
Gd682 O717 2.468 . S
Gd682 O718 2.427 . S
Gd682 O720 2.388 1_565 S
Gd682 O721 2.386 1_565 S
Gd682 O725 2.289 1_565 S
Gd682 C735 2.805 . S
Gd683 N678 2.622 1_455 S
Gd683 N684 2.570 . S
Gd683 O715 2.386 . S
Gd683 O719 2.307 . S
Gd683 O722 2.353 . S
Gd683 O723 2.468 . S
Gd683 O724 2.427 1_455 S
Gd683 O726 2.388 1_455 S
Gd683 C747 2.805 . S
N684 C674 1.359 . S
N684 Gd683 2.570 . S
N684 C686 1.343 . S
C685 C673 1.422 . S
C685 C687 1.321 . S
C685 H693 0.931 . S
C686 N684 1.343 . S
C686 C687 1.390 . S
C686 H688 0.931 . S
C687 C685 1.321 . S
C687 C686 1.390 . S
C687 H689 0.930 . S
H688 C686 0.931 . S
H689 C687 0.930 . S
H690 C713 0.903 1_655 S
H691 C679 0.929 . S
H692 C714 0.930 . S
H693 C685 0.931 . S
H694 C675 0.930 . S
H695 C704 0.929 1_545 S
H696 C680 0.931 . S
H697 C681 0.930 . S
H698 C736 0.930 . S
H699 C677 0.920 1_655 S
H700 C705 0.931 . S
H701 C706 0.930 . S
N702 Gd682 2.622 . S
N702 C703 1.369 . S
N702 C704 1.338 . S
C703 N702 1.369 . S
C703 C707 1.415 . S
C703 C710 1.422 . S
C704 H695 0.929 1_565 S
C704 N702 1.338 . S
C704 C706 1.378 . S
C705 H700 0.931 . S
C705 C706 1.348 . S
C705 C707 1.413 . S
C706 H701 0.930 . S
C706 C704 1.378 . S
C706 C705 1.348 . S
C707 C703 1.415 . S
C707 C705 1.413 . S
C707 C737 1.437 . S
H708 C737 0.929 . S
N709 Gd682 2.570 . S
N709 C710 1.359 . S
N709 C713 1.386 . S
C710 C703 1.422 . S
C710 N709 1.359 . S
C710 C712 1.421 . S
C711 C712 1.422 1_655 S
C711 C714 1.321 . S
C711 H738 0.931 . S
C712 C710 1.421 . S
C712 C711 1.422 1_455 S
C712 C736 1.417 . S
C713 H690 0.903 1_455 S
C713 N709 1.386 . S
C713 C714 1.376 1_455 S
C714 H692 0.930 . S
C714 C711 1.321 . S
C714 C713 1.376 1_655 S
O715 Gd683 2.386 . S
O715 C727 1.265 . S
O716 Gd682 2.353 1_545 S
O716 C727 1.242 . S
O717 Gd682 2.468 . S
O717 C735 1.263 . S
O718 Gd682 2.427 . S
O718 C735 1.252 . S
O719 Gd683 2.307 . S
O719 C728 1.261 . S
O720 Gd682 2.388 1_545 S
O720 C728 1.252 . S
O721 Gd682 2.386 1_545 S
O721 C739 1.265 . S
O722 Gd683 2.353 . S
O722 C739 1.242 . S
O723 Gd683 2.468 . S
O723 C747 1.263 . S
O724 Gd683 2.427 1_655 S
O724 C747 1.252 1_655 S
O725 Gd682 2.289 1_545 S
O725 C740 1.291 1_455 S
O726 Gd683 2.388 1_655 S
O726 C740 1.252 . S
C727 O715 1.265 . S
C727 O716 1.242 . S
C728 O719 1.261 . S
C728 O720 1.252 . S
C729 C732 1.394 . S
C729 C734 1.370 . S
C729 C735 1.500 . S
C730 C733 1.383 . S
C730 C734 1.395 . S
C731 C732 1.396 . S
C731 C733 1.365 . S
C731 H748 0.929 . S
C732 C729 1.394 . S
C732 C731 1.396 . S
C732 H749 0.930 . S
C733 C730 1.383 . S
C733 C731 1.365 . S
C733 H750 0.931 . S
C734 C729 1.370 . S
C734 C730 1.395 . S
C734 H751 0.930 . S
C735 Gd682 2.805 . S
C735 O717 1.263 . S
C735 O718 1.252 . S
C735 C729 1.500 . S
C736 H698 0.930 . S
C736 C712 1.417 . S
C736 C737 1.329 . S
C737 C707 1.437 . S
C737 H708 0.929 . S
C737 C736 1.329 . S
H738 C711 0.931 . S
C739 O721 1.265 . S
C739 O722 1.242 . S
C740 O725 1.291 1_655 S
C740 O726 1.252 . S
C741 C744 1.394 1_455 S
C741 C746 1.370 . S
C741 C747 1.500 . S
C742 C745 1.421 . S
C742 C746 1.395 . S
C743 C744 1.396 . S
C743 C745 1.338 1_655 S
C743 H752 0.929 . S
C744 C741 1.394 1_655 S
C744 C743 1.396 . S
C744 H753 0.930 . S
C745 C742 1.421 . S
C745 C743 1.338 1_455 S
C745 H754 0.921 1_455 S
C746 C741 1.370 . S
C746 C742 1.395 . S
C746 H755 0.930 . S
C747 Gd683 2.805 . S
C747 O723 1.263 . S
C747 O724 1.252 1_455 S
C747 C741 1.500 . S
H748 C731 0.929 . S
H749 C732 0.930 . S
H750 C733 0.931 . S
H751 C734 0.930 . S
H752 C743 0.929 . S
H753 C744 0.930 . S
H754 C745 0.921 1_655 S
H755 C746 0.930 . S
C756 C758 1.422 . S
C756 C760 1.415 . S
C756 N762 1.369 . S
C757 C758 1.421 . S
C757 C759 1.417 . S
C757 C769 1.422 . S
C758 C756 1.422 . S
C758 C757 1.421 . S
C758 N768 1.359 . S
C759 C757 1.417 . S
C759 C761 1.329 . S
C759 H778 0.930 . S
C760 C756 1.415 . S
C760 C761 1.437 . S
C760 C764 1.413 . S
C761 C759 1.329 . S
C761 C760 1.437 . S
C761 H783 0.929 . S
N762 C756 1.369 . S
N762 C763 1.338 . S
N762 Gd767 2.622 . S
C763 N762 1.338 . S
C763 C765 1.378 . S
C763 H775 0.929 . S
C764 C760 1.413 . S
C764 C765 1.348 . S
C764 H780 0.931 . S
C765 C763 1.378 . S
C765 C764 1.348 . S
C765 H781 0.930 . S
Gd766 N786 2.622 . S
Gd766 N793 2.570 . S
Gd766 O800 2.353 . S
Gd766 O801 2.468 . S
Gd766 O802 2.427 . S
Gd766 O804 2.388 . S
Gd766 O805 2.386 . S
Gd766 O809 2.307 . S
Gd766 C819 2.805 . S
Gd767 N762 2.622 . S
Gd767 N768 2.570 . S
Gd767 O799 2.386 . S
Gd767 O803 2.307 . S
Gd767 O806 2.353 . S
Gd767 O807 2.468 . S
Gd767 O808 2.427 . S
Gd767 O810 2.388 . S
Gd767 C831 2.805 . S
N768 C758 1.359 . S
N768 Gd767 2.570 . S
N768 C770 1.343 . S
C769 C757 1.422 . S
C769 C771 1.321 . S
C769 H777 0.931 . S
C770 N768 1.343 . S
C770 C771 1.390 . S
C770 H772 0.931 . S
C771 C769 1.321 . S
C771 C770 1.390 . S
C771 H773 0.930 . S
H772 C770 0.931 . S
H773 C771 0.930 . S
H774 C797 0.931 . S
H775 C763 0.929 . S
H776 C798 0.930 . S
H777 C769 0.931 . S
H778 C759 0.930 . S
H779 C788 0.929 . S
H780 C764 0.931 . S
H781 C765 0.930 . S
H782 C820 0.930 . S
H783 C761 0.929 . S
H784 C789 0.931 . S
H785 C790 0.930 . S
N786 Gd766 2.622 . S
N786 C787 1.369 . S
N786 C788 1.338 . S
C787 N786 1.369 . S
C787 C791 1.415 . S
C787 C794 1.422 . S
C788 H779 0.929 . S
C788 N786 1.338 . S
C788 C790 1.378 . S
C789 H784 0.931 . S
C789 C790 1.348 . S
C789 C791 1.413 . S
C790 H785 0.930 . S
C790 C788 1.378 . S
C790 C789 1.348 . S
C791 C787 1.415 . S
C791 C789 1.413 . S
C791 C821 1.437 . S
H792 C821 0.929 . S
N793 Gd766 2.570 . S
N793 C794 1.359 . S
N793 C797 1.343 . S
C794 C787 1.422 . S
C794 N793 1.359 . S
C794 C796 1.421 . S
C795 C796 1.422 . S
C795 C798 1.321 . S
C795 H822 0.931 . S
C796 C794 1.421 . S
C796 C795 1.422 . S
C796 C820 1.417 . S
C797 H774 0.931 . S
C797 N793 1.343 . S
C797 C798 1.390 . S
C798 H776 0.930 . S
C798 C795 1.321 . S
C798 C797 1.390 . S
O799 Gd767 2.386 . S
O799 C811 1.265 . S
O800 Gd766 2.353 . S
O800 C811 1.242 . S
O801 Gd766 2.468 . S
O801 C819 1.263 . S
O802 Gd766 2.427 . S
O802 C819 1.252 . S
O803 Gd767 2.307 . S
O803 C812 1.261 . S
O804 Gd766 2.388 . S
O804 C812 1.252 . S
O805 Gd766 2.386 . S
O805 C823 1.265 . S
O806 Gd767 2.353 . S
O806 C823 1.242 . S
O807 Gd767 2.468 . S
O807 C831 1.263 . S
O808 Gd767 2.427 . S
O808 C831 1.252 . S
O809 Gd766 2.307 . S
O809 C824 1.261 . S
O810 Gd767 2.388 . S
O810 C824 1.252 . S
C811 O799 1.265 . S
C811 O800 1.242 . S
C812 O803 1.261 . S
C812 O804 1.252 . S
C813 C816 1.394 . S
C813 C818 1.370 . S
C813 C819 1.500 . S
C814 C817 1.383 . S
C814 C818 1.395 . S
C815 C816 1.396 . S
C815 C817 1.365 . S
C815 H832 0.929 . S
C816 C813 1.394 . S
C816 C815 1.396 . S
C816 H833 0.930 . S
C817 C814 1.383 . S
C817 C815 1.365 . S
C817 H834 0.931 . S
C818 C813 1.370 . S
C818 C814 1.395 . S
C818 H835 0.930 . S
C819 Gd766 2.805 . S
C819 O801 1.263 . S
C819 O802 1.252 . S
C819 C813 1.500 . S
C820 H782 0.930 . S
C820 C796 1.417 . S
C820 C821 1.329 . S
C821 C791 1.437 . S
C821 H792 0.929 . S
C821 C820 1.329 . S
H822 C795 0.931 . S
C823 O805 1.265 . S
C823 O806 1.242 . S
C824 O809 1.261 . S
C824 O810 1.252 . S
C825 C828 1.394 . S
C825 C830 1.370 . S
C825 C831 1.500 . S
C826 C829 1.383 . S
C826 C830 1.395 . S
C827 C828 1.396 . S
C827 C829 1.365 . S
C827 H836 0.929 . S
C828 C825 1.394 . S
C828 C827 1.396 . S
C828 H837 0.930 . S
C829 C826 1.383 . S
C829 C827 1.365 . S
C829 H838 0.931 . S
C830 C825 1.370 . S
C830 C826 1.395 . S
C830 H839 0.930 . S
C831 Gd767 2.805 . S
C831 O807 1.263 . S
C831 O808 1.252 . S
C831 C825 1.500 . S
H832 C815 0.929 . S
H833 C816 0.930 . S
H834 C817 0.931 . S
H835 C818 0.930 . S
H836 C827 0.929 . S
H837 C828 0.930 . S
H838 C829 0.931 . S
H839 C830 0.930 . S
C840 C842 1.363 1_565 S
C840 C844 1.461 . S
C840 N846 1.385 . S
C841 C842 1.421 . S
C841 C843 1.417 . S
C841 C853 1.422 . S
C842 C840 1.363 1_545 S
C842 C841 1.421 . S
C842 N852 1.359 . S
C843 C841 1.417 . S
C843 C845 1.329 1_545 S
C843 H862 0.930 . S
C844 C840 1.461 . S
C844 C845 1.437 . S
C844 C848 1.413 . S
C845 C843 1.329 1_565 S
C845 C844 1.437 . S
C845 H867 0.929 . S
N846 C840 1.385 . S
N846 C847 1.338 . S
N846 Gd851 2.622 1_565 S
C847 N846 1.338 . S
C847 C849 1.378 . S
C847 H859 0.929 . S
C848 C844 1.413 . S
C848 C849 1.348 . S
C848 H864 0.931 . S
C849 C847 1.378 . S
C849 C848 1.348 . S
C849 H865 0.930 . S
Gd850 N870 2.622 . S
Gd850 N877 2.570 . S
Gd850 O884 2.353 1_556 S
Gd850 O885 2.468 . S
Gd850 O886 2.427 . S
Gd850 O888 2.388 1_556 S
Gd850 O889 2.386 1_556 S
Gd850 O893 2.315 . S
Gd850 C903 2.805 . S
Gd851 N846 2.622 1_545 S
Gd851 N852 2.570 . S
Gd851 O883 2.386 . S
Gd851 O887 2.307 . S
Gd851 O890 2.353 . S
Gd851 O891 2.468 . S
Gd851 O892 2.427 1_545 S
Gd851 O894 2.388 1_545 S
Gd851 C915 2.805 . S
N852 C842 1.359 . S
N852 Gd851 2.570 . S
N852 C854 1.343 . S
C853 C841 1.422 . S
C853 C855 1.321 . S
C853 H861 0.931 . S
C854 N852 1.343 . S
C854 C855 1.390 . S
C854 H856 0.931 . S
C855 C853 1.321 . S
C855 C854 1.390 . S
C855 H857 0.930 . S
H856 C854 0.931 . S
H857 C855 0.930 . S
H858 C881 0.896 1_565 S
H859 C847 0.929 . S
H860 C882 0.930 . S
H861 C853 0.931 . S
H862 C843 0.930 . S
H863 C872 0.929 1_554 S
H864 C848 0.931 . S
H865 C849 0.930 . S
H866 C904 0.930 . S
H867 C845 0.929 . S
H868 C873 0.931 . S
H869 C874 0.930 . S
N870 Gd850 2.622 . S
N870 C871 1.369 . S
N870 C872 1.338 . S
C871 N870 1.369 . S
C871 C875 1.415 . S
C871 C878 1.422 . S
C872 H863 0.929 1_556 S
C872 N870 1.338 . S
C872 C874 1.378 . S
C873 H868 0.931 . S
C873 C874 1.348 . S
C873 C875 1.413 . S
C874 H869 0.930 . S
C874 C872 1.378 . S
C874 C873 1.348 . S
C875 C871 1.415 . S
C875 C873 1.413 . S
C875 C905 1.437 . S
H876 C905 0.929 . S
N877 Gd850 2.570 . S
N877 C878 1.359 . S
N877 C881 1.343 . S
C878 C871 1.422 . S
C878 N877 1.359 . S
C878 C880 1.421 . S
C879 C880 1.422 . S
C879 C882 1.321 1_545 S
C879 H906 0.931 1_545 S
C880 C878 1.421 . S
C880 C879 1.422 . S
C880 C904 1.417 . S
C881 H858 0.896 1_545 S
C881 N877 1.343 . S
C881 C882 1.390 1_545 S
C882 H860 0.930 . S
C882 C879 1.321 1_565 S
C882 C881 1.390 1_565 S
O883 Gd851 2.386 . S
O883 C895 1.265 . S
O884 Gd850 2.353 1_554 S
O884 C895 1.242 . S
O885 Gd850 2.468 . S
O885 C903 1.263 . S
O886 Gd850 2.427 . S
O886 C903 1.252 . S
O887 Gd851 2.307 . S
O887 C896 1.261 . S
O888 Gd850 2.388 1_554 S
O888 C896 1.252 . S
O889 Gd850 2.386 1_554 S
O889 C907 1.265 . S
O890 Gd851 2.353 . S
O890 C907 1.242 . S
O891 Gd851 2.468 . S
O891 C915 1.263 . S
O892 Gd851 2.427 1_565 S
O892 C915 1.252 1_565 S
O893 Gd850 2.315 . S
O893 C908 1.246 1_546 S
O894 Gd851 2.388 1_565 S
O894 C908 1.252 . S
C895 O883 1.265 . S
C895 O884 1.242 . S
C896 O887 1.261 . S
C896 O888 1.252 . S
C897 C900 1.394 . S
C897 C902 1.370 . S
C897 C903 1.500 . S
C898 C901 1.383 . S
C898 C902 1.395 . S
C899 C900 1.396 . S
C899 C901 1.365 . S
C899 H916 0.929 . S
C900 C897 1.394 . S
C900 C899 1.396 . S
C900 H917 0.930 . S
C901 C898 1.383 . S
C901 C899 1.365 . S
C901 H918 0.931 . S
C902 C897 1.370 . S
C902 C898 1.395 . S
C902 H919 0.930 . S
C903 Gd850 2.805 . S
C903 O885 1.263 . S
C903 O886 1.252 . S
C903 C897 1.500 . S
C904 H866 0.930 . S
C904 C880 1.417 . S
C904 C905 1.329 . S
C905 C875 1.437 . S
C905 H876 0.929 . S
C905 C904 1.329 . S
H906 C879 0.931 1_565 S
C907 O889 1.265 . S
C907 O890 1.242 . S
C908 O893 1.246 1_564 S
C908 O894 1.252 . S
C909 C912 1.394 . S
C909 C914 1.370 1_565 S
C909 C915 1.500 1_565 S
C910 C913 1.383 1_545 S
C910 C914 1.395 . S
C911 C912 1.396 . S
C911 C913 1.365 . S
C911 H920 0.929 . S
C912 C909 1.394 . S
C912 C911 1.396 . S
C912 H921 0.930 . S
C913 C910 1.383 1_565 S
C913 C911 1.365 . S
C913 H922 0.931 . S
C914 C909 1.370 1_545 S
C914 C910 1.395 . S
C914 H923 0.930 . S
C915 Gd851 2.805 . S
C915 O891 1.263 . S
C915 O892 1.252 1_545 S
C915 C909 1.500 1_545 S
H916 C899 0.929 . S
H917 C900 0.930 . S
H918 C901 0.931 . S
H919 C902 0.930 . S
H920 C911 0.929 . S
H921 C912 0.930 . S
H922 C913 0.931 . S
H923 C914 0.930 . S
C924 C926 1.422 . S
C924 C928 1.415 . S
C924 N930 1.369 . S
C925 C926 1.421 . S
C925 C927 1.417 . S
C925 C937 1.422 . S
C926 C924 1.422 . S
C926 C925 1.421 . S
C926 N936 1.359 . S
C927 C925 1.417 . S
C927 C929 1.329 . S
C927 H946 0.930 . S
C928 C924 1.415 . S
C928 C929 1.437 . S
C928 C932 1.413 . S
C929 C927 1.329 . S
C929 C928 1.437 . S
C929 H951 0.929 . S
N930 C924 1.369 . S
N930 C931 1.338 . S
N930 Gd935 2.622 . S
C931 N930 1.338 . S
C931 C933 1.378 . S
C931 H943 0.929 . S
C932 C928 1.413 . S
C932 C933 1.348 . S
C932 H948 0.931 . S
C933 C931 1.378 . S
C933 C932 1.348 . S
C933 H949 0.930 . S
Gd934 N954 2.622 . S
Gd934 N961 2.570 . S
Gd934 O968 2.353 . S
Gd934 O969 2.468 . S
Gd934 O970 2.427 . S
Gd934 O972 2.388 . S
Gd934 O973 2.386 . S
Gd934 O977 2.307 . S
Gd934 C987 2.805 . S
Gd935 N930 2.622 . S
Gd935 N936 2.570 . S
Gd935 O967 2.386 . S
Gd935 O971 2.307 . S
Gd935 O974 2.353 . S
Gd935 O975 2.468 . S
Gd935 O976 2.427 . S
Gd935 O978 2.388 . S
Gd935 C999 2.805 . S
N936 C926 1.359 . S
N936 Gd935 2.570 . S
N936 C938 1.343 . S
C937 C925 1.422 . S
C937 C939 1.321 . S
C937 H945 0.931 . S
C938 N936 1.343 . S
C938 C939 1.390 . S
C938 H940 0.931 . S
C939 C937 1.321 . S
C939 C938 1.390 . S
C939 H941 0.930 . S
H940 C938 0.931 . S
H941 C939 0.930 . S
H942 C965 0.931 . S
H943 C931 0.929 . S
H944 C966 0.930 . S
H945 C937 0.931 . S
H946 C927 0.930 . S
H947 C956 0.929 . S
H948 C932 0.931 . S
H949 C933 0.930 . S
H950 C988 0.930 . S
H951 C929 0.929 . S
H952 C957 0.931 . S
H953 C958 0.930 . S
N954 Gd934 2.622 . S
N954 C955 1.369 . S
N954 C956 1.338 . S
C955 N954 1.369 . S
C955 C959 1.415 . S
C955 C962 1.422 . S
C956 H947 0.929 . S
C956 N954 1.338 . S
C956 C958 1.378 . S
C957 H952 0.931 . S
C957 C958 1.348 . S
C957 C959 1.413 . S
C958 H953 0.930 . S
C958 C956 1.378 . S
C958 C957 1.348 . S
C959 C955 1.415 . S
C959 C957 1.413 . S
C959 C989 1.437 . S
H960 C989 0.929 . S
N961 Gd934 2.570 . S
N961 C962 1.359 . S
N961 C965 1.343 . S
C962 C955 1.422 . S
C962 N961 1.359 . S
C962 C964 1.421 . S
C963 C964 1.422 . S
C963 C966 1.321 . S
C963 H990 0.931 . S
C964 C962 1.421 . S
C964 C963 1.422 . S
C964 C988 1.417 . S
C965 H942 0.931 . S
C965 N961 1.343 . S
C965 C966 1.390 . S
C966 H944 0.930 . S
C966 C963 1.321 . S
C966 C965 1.390 . S
O967 Gd935 2.386 . S
O967 C979 1.265 . S
O968 Gd934 2.353 . S
O968 C979 1.242 . S
O969 Gd934 2.468 . S
O969 C987 1.263 . S
O970 Gd934 2.427 . S
O970 C987 1.252 . S
O971 Gd935 2.307 . S
O971 C980 1.261 . S
O972 Gd934 2.388 . S
O972 C980 1.252 . S
O973 Gd934 2.386 . S
O973 C991 1.265 . S
O974 Gd935 2.353 . S
O974 C991 1.242 . S
O975 Gd935 2.468 . S
O975 C999 1.263 . S
O976 Gd935 2.427 . S
O976 C999 1.252 . S
O977 Gd934 2.307 . S
O977 C992 1.261 . S
O978 Gd935 2.388 . S
O978 C992 1.252 . S
C979 O967 1.265 . S
C979 O968 1.242 . S
C980 O971 1.261 . S
C980 O972 1.252 . S
C981 C984 1.394 . S
C981 C986 1.370 . S
C981 C987 1.500 . S
C982 C985 1.383 . S
C982 C986 1.395 . S
C983 C984 1.396 . S
C983 C985 1.365 . S
C983 H1000 0.929 . S
C984 C981 1.394 . S
C984 C983 1.396 . S
C984 H1001 0.930 . S
C985 C982 1.383 . S
C985 C983 1.365 . S
C985 H1002 0.931 . S
C986 C981 1.370 . S
C986 C982 1.395 . S
C986 H1003 0.930 . S
C987 Gd934 2.805 . S
C987 O969 1.263 . S
C987 O970 1.252 . S
C987 C981 1.500 . S
C988 H950 0.930 . S
C988 C964 1.417 . S
C988 C989 1.329 . S
C989 C959 1.437 . S
C989 H960 0.929 . S
C989 C988 1.329 . S
H990 C963 0.931 . S
C991 O973 1.265 . S
C991 O974 1.242 . S
C992 O977 1.261 . S
C992 O978 1.252 . S
C993 C996 1.394 . S
C993 C998 1.370 . S
C993 C999 1.500 . S
C994 C997 1.383 . S
C994 C998 1.395 . S
C995 C996 1.396 . S
C995 C997 1.365 . S
C995 H1004 0.929 . S
C996 C993 1.394 . S
C996 C995 1.396 . S
C996 H1005 0.930 . S
C997 C994 1.383 . S
C997 C995 1.365 . S
C997 H1006 0.931 . S
C998 C993 1.370 . S
C998 C994 1.395 . S
C998 H1007 0.930 . S
C999 Gd935 2.805 . S
C999 O975 1.263 . S
C999 O976 1.252 . S
C999 C993 1.500 . S
H1000 C983 0.929 . S
H1001 C984 0.930 . S
H1002 C985 0.931 . S
H1003 C986 0.930 . S
H1004 C995 0.929 . S
H1005 C996 0.930 . S
H1006 C997 0.931 . S
H1007 C998 0.930 . S
C1008 C1010 1.422 . S
C1008 C1012 1.415 . S
C1008 N1014 1.369 . S
C1009 C1010 1.421 . S
C1009 C1011 1.417 . S
C1009 C1021 1.422 . S
C1010 C1008 1.422 . S
C1010 C1009 1.421 . S
C1010 N1020 1.359 . S
C1011 C1009 1.417 . S
C1011 C1013 1.329 . S
C1011 H1030 0.930 . S
C1012 C1008 1.415 . S
C1012 C1013 1.437 . S
C1012 C1016 1.413 . S
C1013 C1011 1.329 . S
C1013 C1012 1.437 . S
C1013 H1035 0.929 . S
N1014 C1008 1.369 . S
N1014 C1015 1.338 . S
N1014 Gd1019 2.622 . S
C1015 N1014 1.338 . S
C1015 C1017 1.378 . S
C1015 H1027 0.929 . S
C1016 C1012 1.413 . S
C1016 C1017 1.348 . S
C1016 H1032 0.931 . S
C1017 C1015 1.378 . S
C1017 C1016 1.348 . S
C1017 H1033 0.930 . S
Gd1018 N1038 2.622 1_554 S
Gd1018 N1045 2.570 1_554 S
Gd1018 O1052 2.353 . S
Gd1018 O1053 2.468 . S
Gd1018 O1054 2.427 . S
Gd1018 O1056 2.388 . S
Gd1018 O1057 2.386 1_554 S
Gd1018 O1061 2.307 . S
Gd1018 C1071 2.805 . S
Gd1019 N1014 2.622 . S
Gd1019 N1020 2.570 . S
Gd1019 O1051 2.386 . S
Gd1019 O1055 2.307 . S
Gd1019 O1058 2.353 1_554 S
Gd1019 O1059 2.468 . S
Gd1019 O1060 2.427 . S
Gd1019 O1062 2.388 . S
Gd1019 C1083 2.805 . S
N1020 C1010 1.359 . S
N1020 Gd1019 2.570 . S
N1020 C1022 1.343 . S
C1021 C1009 1.422 . S
C1021 C1023 1.321 . S
C1021 H1029 0.931 . S
C1022 N1020 1.343 . S
C1022 C1023 1.390 . S
C1022 H1024 0.931 . S
C1023 C1021 1.321 . S
C1023 C1022 1.390 . S
C1023 H1025 0.930 . S
H1024 C1022 0.931 . S
H1025 C1023 0.930 . S
H1026 C1049 0.931 1_554 S
H1027 C1015 0.929 . S
H1028 C1050 0.930 . S
H1029 C1021 0.931 . S
H1030 C1011 0.930 . S
H1031 C1040 0.929 1_554 S
H1032 C1016 0.931 . S
H1033 C1017 0.930 . S
H1034 C1072 0.930 . S
H1035 C1013 0.929 . S
H1036 C1041 0.931 . S
H1037 C1042 0.930 . S
N1038 Gd1018 2.622 1_556 S
N1038 C1039 1.369 . S
N1038 C1040 1.338 . S
C1039 N1038 1.369 . S
C1039 C1043 1.415 . S
C1039 C1046 1.422 . S
C1040 H1031 0.929 1_556 S
C1040 N1038 1.338 . S
C1040 C1042 1.378 . S
C1041 H1036 0.931 . S
C1041 C1042 1.348 . S
C1041 C1043 1.413 . S
C1042 H1037 0.930 . S
C1042 C1040 1.378 . S
C1042 C1041 1.348 . S
C1043 C1039 1.415 . S
C1043 C1041 1.413 . S
C1043 C1073 1.437 . S
H1044 C1073 0.929 . S
N1045 Gd1018 2.570 1_556 S
N1045 C1046 1.359 . S
N1045 C1049 1.343 . S
C1046 C1039 1.422 . S
C1046 N1045 1.359 . S
C1046 C1048 1.421 . S
C1047 C1048 1.422 . S
C1047 C1050 1.321 . S
C1047 H1074 0.931 . S
C1048 C1046 1.421 . S
C1048 C1047 1.422 . S
C1048 C1072 1.417 . S
C1049 H1026 0.931 1_556 S
C1049 N1045 1.343 . S
C1049 C1050 1.390 . S
C1050 H1028 0.930 . S
C1050 C1047 1.321 . S
C1050 C1049 1.390 . S
O1051 Gd1019 2.386 . S
O1051 C1063 1.265 . S
O1052 Gd1018 2.353 . S
O1052 C1063 1.242 . S
O1053 Gd1018 2.468 . S
O1053 C1071 1.263 . S
O1054 Gd1018 2.427 . S
O1054 C1071 1.252 . S
O1055 Gd1019 2.307 . S
O1055 C1064 1.261 . S
O1056 Gd1018 2.388 . S
O1056 C1064 1.252 . S
O1057 Gd1018 2.386 1_556 S
O1057 C1075 1.265 . S
O1058 Gd1019 2.353 1_556 S
O1058 C1075 1.242 . S
O1059 Gd1019 2.468 . S
O1059 C1083 1.263 . S
O1060 Gd1019 2.427 . S
O1060 C1083 1.252 . S
O1061 Gd1018 2.307 . S
O1061 C1076 1.261 . S
O1062 Gd1019 2.388 . S
O1062 C1076 1.252 . S
C1063 O1051 1.265 . S
C1063 O1052 1.242 . S
C1064 O1055 1.261 . S
C1064 O1056 1.252 . S
C1065 C1068 1.394 . S
C1065 C1070 1.370 . S
C1065 C1071 1.500 . S
C1066 C1069 1.383 . S
C1066 C1070 1.395 . S
C1067 C1068 1.396 . S
C1067 C1069 1.365 . S
C1067 H1084 0.929 . S
C1068 C1065 1.394 . S
C1068 C1067 1.396 . S
C1068 H1085 0.930 . S
C1069 C1066 1.383 . S
C1069 C1067 1.365 . S
C1069 H1086 0.931 . S
C1070 C1065 1.370 . S
C1070 C1066 1.395 . S
C1070 H1087 0.930 . S
C1071 Gd1018 2.805 . S
C1071 O1053 1.263 . S
C1071 O1054 1.252 . S
C1071 C1065 1.500 . S
C1072 H1034 0.930 . S
C1072 C1048 1.417 . S
C1072 C1073 1.329 . S
C1073 C1043 1.437 . S
C1073 H1044 0.929 . S
C1073 C1072 1.329 . S
H1074 C1047 0.931 . S
C1075 O1057 1.265 . S
C1075 O1058 1.242 . S
C1076 O1061 1.261 . S
C1076 O1062 1.252 . S
C1077 C1080 1.394 . S
C1077 C1082 1.370 . S
C1077 C1083 1.500 1_556 S
C1078 C1081 1.383 . S
C1078 C1082 1.395 . S
C1079 C1080 1.396 . S
C1079 C1081 1.365 . S
C1079 H1088 0.929 . S
C1080 C1077 1.394 . S
C1080 C1079 1.396 . S
C1080 H1089 0.953 . S
C1081 C1078 1.383 . S
C1081 C1079 1.365 . S
C1081 H1090 0.931 . S
C1082 C1077 1.370 . S
C1082 C1078 1.395 . S
C1082 H1091 0.930 . S
C1083 Gd1019 2.805 . S
C1083 O1059 1.263 . S
C1083 O1060 1.252 . S
C1083 C1077 1.500 1_554 S
H1084 C1067 0.929 . S
H1085 C1068 0.930 . S
H1086 C1069 0.931 . S
H1087 C1070 0.930 . S
H1088 C1079 0.929 . S
H1089 C1080 0.953 . S
H1090 C1081 0.931 . S
H1091 C1082 0.930 . S
C1092 C1094 1.422 . S
C1092 C1096 1.415 . S
C1092 N1098 1.369 . S
C1093 C1094 1.421 . S
C1093 C1095 1.417 . S
C1093 C1105 1.422 . S
C1094 C1092 1.422 . S
C1094 C1093 1.421 . S
C1094 N1104 1.359 . S
C1095 C1093 1.417 . S
C1095 C1097 1.329 . S
C1095 H1114 0.930 . S
C1096 C1092 1.415 . S
C1096 C1097 1.437 . S
C1096 C1100 1.413 . S
C1097 C1095 1.329 . S
C1097 C1096 1.437 . S
C1097 H1119 0.929 . S
N1098 C1092 1.369 . S
N1098 C1099 1.338 . S
N1098 Gd1103 2.622 . S
C1099 N1098 1.338 . S
C1099 C1101 1.378 . S
C1099 H1111 0.929 . S
C1100 C1096 1.413 . S
C1100 C1101 1.348 . S
C1100 H1116 0.931 . S
C1101 C1099 1.378 . S
C1101 C1100 1.348 . S
C1101 H1117 0.930 . S
Gd1102 N1122 2.622 . S
Gd1102 N1129 2.570 . S
Gd1102 O1136 2.353 . S
Gd1102 O1137 2.468 . S
Gd1102 O1138 2.427 . S
Gd1102 O1140 2.388 . S
Gd1102 O1141 2.386 . S
Gd1102 O1145 2.307 . S
Gd1102 C1155 2.805 . S
Gd1103 N1098 2.622 . S
Gd1103 N1104 2.570 . S
Gd1103 O1135 2.386 . S
Gd1103 O1139 2.307 . S
Gd1103 O1142 2.353 . S
Gd1103 O1143 2.468 . S
Gd1103 O1144 2.427 . S
Gd1103 O1146 2.388 . S
Gd1103 C1167 2.805 . S
N1104 C1094 1.359 . S
N1104 Gd1103 2.570 . S
N1104 C1106 1.343 . S
C1105 C1093 1.422 . S
C1105 C1107 1.321 . S
C1105 H1113 0.931 . S
C1106 N1104 1.343 . S
C1106 C1107 1.390 . S
C1106 H1108 0.931 . S
C1107 C1105 1.321 . S
C1107 C1106 1.390 . S
C1107 H1109 0.930 . S
H1108 C1106 0.931 . S
H1109 C1107 0.930 . S
H1110 C1133 0.931 . S
H1111 C1099 0.929 . S
H1112 C1134 0.930 . S
H1113 C1105 0.931 . S
H1114 C1095 0.930 . S
H1115 C1124 0.929 . S
H1116 C1100 0.931 . S
H1117 C1101 0.930 . S
H1118 C1156 0.930 . S
H1119 C1097 0.929 . S
H1120 C1125 0.931 . S
H1121 C1126 0.930 . S
N1122 Gd1102 2.622 . S
N1122 C1123 1.369 . S
N1122 C1124 1.338 . S
C1123 N1122 1.369 . S
C1123 C1127 1.415 . S
C1123 C1130 1.422 . S
C1124 H1115 0.929 . S
C1124 N1122 1.338 . S
C1124 C1126 1.378 . S
C1125 H1120 0.931 . S
C1125 C1126 1.348 . S
C1125 C1127 1.413 . S
C1126 H1121 0.930 . S
C1126 C1124 1.378 . S
C1126 C1125 1.348 . S
C1127 C1123 1.415 . S
C1127 C1125 1.413 . S
C1127 C1157 1.437 . S
H1128 C1157 0.929 . S
N1129 Gd1102 2.570 . S
N1129 C1130 1.359 . S
N1129 C1133 1.343 . S
C1130 C1123 1.422 . S
C1130 N1129 1.359 . S
C1130 C1132 1.421 . S
C1131 C1132 1.422 . S
C1131 C1134 1.321 . S
C1131 H1158 0.931 . S
C1132 C1130 1.421 . S
C1132 C1131 1.422 . S
C1132 C1156 1.417 . S
C1133 H1110 0.931 . S
C1133 N1129 1.343 . S
C1133 C1134 1.390 . S
C1134 H1112 0.930 . S
C1134 C1131 1.321 . S
C1134 C1133 1.390 . S
O1135 Gd1103 2.386 . S
O1135 C1147 1.265 . S
O1136 Gd1102 2.353 . S
O1136 C1147 1.242 . S
O1137 Gd1102 2.468 . S
O1137 C1155 1.263 . S
O1138 Gd1102 2.427 . S
O1138 C1155 1.252 . S
O1139 Gd1103 2.307 . S
O1139 C1148 1.261 . S
O1140 Gd1102 2.388 . S
O1140 C1148 1.252 . S
O1141 Gd1102 2.386 . S
O1141 C1159 1.265 . S
O1142 Gd1103 2.353 . S
O1142 C1159 1.242 . S
O1143 Gd1103 2.468 . S
O1143 C1167 1.263 . S
O1144 Gd1103 2.427 . S
O1144 C1167 1.252 . S
O1145 Gd1102 2.307 . S
O1145 C1160 1.261 . S
O1146 Gd1103 2.388 . S
O1146 C1160 1.252 . S
C1147 O1135 1.265 . S
C1147 O1136 1.242 . S
C1148 O1139 1.261 . S
C1148 O1140 1.252 . S
C1149 C1152 1.394 . S
C1149 C1154 1.370 . S
C1149 C1155 1.500 . S
C1150 C1153 1.383 . S
C1150 C1154 1.395 . S
C1151 C1152 1.396 . S
C1151 C1153 1.365 . S
C1151 H1168 0.929 . S
C1152 C1149 1.394 . S
C1152 C1151 1.396 . S
C1152 H1169 0.930 . S
C1153 C1150 1.383 . S
C1153 C1151 1.365 . S
C1153 H1170 0.931 . S
C1154 C1149 1.370 . S
C1154 C1150 1.395 . S
C1154 H1171 0.930 . S
C1155 Gd1102 2.805 . S
C1155 O1137 1.263 . S
C1155 O1138 1.252 . S
C1155 C1149 1.500 . S
C1156 H1118 0.930 . S
C1156 C1132 1.417 . S
C1156 C1157 1.329 . S
C1157 C1127 1.437 . S
C1157 H1128 0.929 . S
C1157 C1156 1.329 . S
H1158 C1131 0.931 . S
C1159 O1141 1.265 . S
C1159 O1142 1.242 . S
C1160 O1145 1.261 . S
C1160 O1146 1.252 . S
C1161 C1164 1.394 . S
C1161 C1166 1.370 . S
C1161 C1167 1.500 . S
C1162 C1165 1.383 . S
C1162 C1166 1.395 . S
C1163 C1164 1.396 . S
C1163 C1165 1.365 . S
C1163 H1172 0.929 . S
C1164 C1161 1.394 . S
C1164 C1163 1.396 . S
C1164 H1173 0.930 . S
C1165 C1162 1.383 . S
C1165 C1163 1.365 . S
C1165 H1174 0.931 . S
C1166 C1161 1.370 . S
C1166 C1162 1.395 . S
C1166 H1175 0.930 . S
C1167 Gd1103 2.805 . S
C1167 O1143 1.263 . S
C1167 O1144 1.252 . S
C1167 C1161 1.500 . S
H1168 C1151 0.929 . S
H1169 C1152 0.930 . S
H1170 C1153 0.931 . S
H1171 C1154 0.930 . S
H1172 C1163 0.929 . S
H1173 C1164 0.930 . S
H1174 C1165 0.931 . S
H1175 C1166 0.930 . S
C1176 C1178 1.422 . S
C1176 C1180 1.415 . S
C1176 N1182 1.369 . S
C1177 C1178 1.421 . S
C1177 C1179 1.417 . S
C1177 C1189 1.422 . S
C1178 C1176 1.422 . S
C1178 C1177 1.421 . S
C1178 N1188 1.359 . S
C1179 C1177 1.417 . S
C1179 C1181 1.329 . S
C1179 H1198 0.930 . S
C1180 C1176 1.415 . S
C1180 C1181 1.437 . S
C1180 C1184 1.413 . S
C1181 C1179 1.329 . S
C1181 C1180 1.437 . S
C1181 H1203 0.929 . S
N1182 C1176 1.369 . S
N1182 C1183 1.338 . S
N1182 Gd1187 2.622 . S
C1183 N1182 1.338 . S
C1183 C1185 1.378 . S
C1183 H1195 0.929 . S
C1184 C1180 1.413 . S
C1184 C1185 1.348 . S
C1184 H1200 0.931 . S
C1185 C1183 1.378 . S
C1185 C1184 1.348 . S
C1185 H1201 0.930 . S
Gd1186 N1206 2.622 1_455 S
Gd1186 N1213 2.570 1_455 S
Gd1186 O1220 2.353 . S
Gd1186 O1221 2.468 . S
Gd1186 O1222 2.427 . S
Gd1186 O1224 2.388 . S
Gd1186 O1225 2.386 1_455 S
Gd1186 O1229 2.307 . S
Gd1186 C1239 2.805 . S
Gd1187 N1182 2.622 . S
Gd1187 N1188 2.570 . S
Gd1187 O1219 2.386 . S
Gd1187 O1223 2.307 . S
Gd1187 O1226 2.353 1_455 S
Gd1187 O1227 2.468 . S
Gd1187 O1228 2.427 . S
Gd1187 O1230 2.388 . S
Gd1187 C1251 2.805 . S
N1188 C1178 1.359 . S
N1188 Gd1187 2.570 . S
N1188 C1190 1.343 . S
C1189 C1177 1.422 . S
C1189 C1191 1.321 . S
C1189 H1197 0.931 . S
C1190 N1188 1.343 . S
C1190 C1191 1.390 . S
C1190 H1192 0.931 . S
C1191 C1189 1.321 . S
C1191 C1190 1.390 . S
C1191 H1193 0.930 . S
H1192 C1190 0.931 . S
H1193 C1191 0.930 . S
H1194 C1217 0.931 1_455 S
H1195 C1183 0.929 . S
H1196 C1218 0.930 . S
H1197 C1189 0.931 . S
H1198 C1179 0.930 . S
H1199 C1208 0.929 1_455 S
H1200 C1184 0.931 . S
H1201 C1185 0.930 . S
H1202 C1240 0.930 . S
H1203 C1181 0.929 . S
H1204 C1209 0.931 . S
H1205 C1210 0.930 . S
N1206 Gd1186 2.622 1_655 S
N1206 C1207 1.369 . S
N1206 C1208 1.338 . S
C1207 N1206 1.369 . S
C1207 C1211 1.415 . S
C1207 C1214 1.422 . S
C1208 H1199 0.929 1_655 S
C1208 N1206 1.338 . S
C1208 C1210 1.378 . S
C1209 H1204 0.931 . S
C1209 C1210 1.348 . S
C1209 C1211 1.413 . S
C1210 H1205 0.930 . S
C1210 C1208 1.378 . S
C1210 C1209 1.348 . S
C1211 C1207 1.415 . S
C1211 C1209 1.413 . S
C1211 C1241 1.437 . S
H1212 C1241 0.929 . S
N1213 Gd1186 2.570 1_655 S
N1213 C1214 1.359 . S
N1213 C1217 1.343 . S
C1214 C1207 1.422 . S
C1214 N1213 1.359 . S
C1214 C1216 1.421 . S
C1215 C1216 1.422 . S
C1215 C1218 1.321 . S
C1215 H1242 0.931 . S
C1216 C1214 1.421 . S
C1216 C1215 1.422 . S
C1216 C1240 1.417 . S
C1217 H1194 0.931 1_655 S
C1217 N1213 1.343 . S
C1217 C1218 1.390 . S
C1218 H1196 0.930 . S
C1218 C1215 1.321 . S
C1218 C1217 1.390 . S
O1219 Gd1187 2.386 . S
O1219 C1231 1.265 . S
O1220 Gd1186 2.353 . S
O1220 C1231 1.242 . S
O1221 Gd1186 2.468 . S
O1221 C1239 1.263 . S
O1222 Gd1186 2.427 . S
O1222 C1239 1.252 . S
O1223 Gd1187 2.307 . S
O1223 C1232 1.261 . S
O1224 Gd1186 2.388 . S
O1224 C1232 1.252 . S
O1225 Gd1186 2.386 1_655 S
O1225 C1243 1.265 . S
O1226 Gd1187 2.353 1_655 S
O1226 C1243 1.242 . S
O1227 Gd1187 2.468 . S
O1227 C1251 1.263 . S
O1228 Gd1187 2.427 . S
O1228 C1251 1.252 . S
O1229 Gd1186 2.307 . S
O1229 C1244 1.261 . S
O1230 Gd1187 2.388 . S
O1230 C1244 1.252 . S
C1231 O1219 1.265 . S
C1231 O1220 1.242 . S
C1232 O1223 1.261 . S
C1232 O1224 1.252 . S
C1233 C1236 1.394 . S
C1233 C1238 1.370 . S
C1233 C1239 1.500 . S
C1234 C1237 1.383 . S
C1234 C1238 1.395 . S
C1235 C1236 1.396 . S
C1235 C1237 1.365 . S
C1235 H1252 0.929 . S
C1236 C1233 1.394 . S
C1236 C1235 1.396 . S
C1236 H1253 0.930 . S
C1237 C1234 1.383 . S
C1237 C1235 1.365 . S
C1237 H1254 0.931 . S
C1238 C1233 1.370 . S
C1238 C1234 1.395 . S
C1238 H1255 0.930 . S
C1239 Gd1186 2.805 . S
C1239 O1221 1.263 . S
C1239 O1222 1.252 . S
C1239 C1233 1.500 . S
C1240 H1202 0.930 . S
C1240 C1216 1.417 . S
C1240 C1241 1.329 . S
C1241 C1211 1.437 . S
C1241 H1212 0.929 . S
C1241 C1240 1.329 . S
H1242 C1215 0.931 . S
C1243 O1225 1.265 . S
C1243 O1226 1.242 . S
C1244 O1229 1.261 . S
C1244 O1230 1.252 . S
C1245 C1248 1.394 . S
C1245 C1250 1.370 . S
C1245 C1251 1.500 1_655 S
C1246 C1249 1.383 . S
C1246 C1250 1.395 . S
C1247 C1248 1.396 . S
C1247 C1249 1.365 . S
C1247 H1256 0.929 . S
C1248 C1245 1.394 . S
C1248 C1247 1.396 . S
C1248 H1257 0.930 . S
C1249 C1246 1.383 . S
C1249 C1247 1.365 . S
C1249 H1258 0.931 . S
C1250 C1245 1.370 . S
C1250 C1246 1.395 . S
C1250 H1259 0.930 . S
C1251 Gd1187 2.805 . S
C1251 O1227 1.263 . S
C1251 O1228 1.252 . S
C1251 C1245 1.500 1_455 S
H1252 C1235 0.929 . S
H1253 C1236 0.930 . S
H1254 C1237 0.931 . S
H1255 C1238 0.930 . S
H1256 C1247 0.929 . S
H1257 C1248 0.930 . S
H1258 C1249 0.931 . S
H1259 C1250 0.930 . S
C1260 C1262 1.422 . S
C1260 C1264 1.415 . S
C1260 N1266 1.369 . S
C1261 C1262 1.421 . S
C1261 C1263 1.417 . S
C1261 C1273 1.422 . S
C1262 C1260 1.422 . S
C1262 C1261 1.421 . S
C1262 N1272 1.359 . S
C1263 C1261 1.417 . S
C1263 C1265 1.329 . S
C1263 H1282 0.930 . S
C1264 C1260 1.415 . S
C1264 C1265 1.437 . S
C1264 C1268 1.413 . S
C1265 C1263 1.329 . S
C1265 C1264 1.437 . S
C1265 H1287 0.929 . S
N1266 C1260 1.369 . S
N1266 C1267 1.338 . S
N1266 Gd1271 2.622 . S
C1267 N1266 1.338 . S
C1267 C1269 1.378 . S
C1267 H1279 0.929 . S
C1268 C1264 1.413 . S
C1268 C1269 1.348 . S
C1268 H1284 0.931 . S
C1269 C1267 1.378 . S
C1269 C1268 1.348 . S
C1269 H1285 0.930 . S
Gd1270 N1290 2.622 . S
Gd1270 N1297 2.570 . S
Gd1270 O1304 2.353 . S
Gd1270 O1305 2.468 . S
Gd1270 O1306 2.427 . S
Gd1270 O1308 2.388 . S
Gd1270 O1309 2.386 . S
Gd1270 O1313 2.307 . S
Gd1270 C1323 2.805 . S
Gd1271 N1266 2.622 . S
Gd1271 N1272 2.570 . S
Gd1271 O1303 2.386 . S
Gd1271 O1307 2.307 . S
Gd1271 O1310 2.353 . S
Gd1271 O1311 2.468 . S
Gd1271 O1312 2.427 . S
Gd1271 O1314 2.388 . S
Gd1271 C1335 2.805 . S
N1272 C1262 1.359 . S
N1272 Gd1271 2.570 . S
N1272 C1274 1.343 . S
C1273 C1261 1.422 . S
C1273 C1275 1.321 . S
C1273 H1281 0.931 . S
C1274 N1272 1.343 . S
C1274 C1275 1.390 . S
C1274 H1276 0.931 . S
C1275 C1273 1.321 . S
C1275 C1274 1.390 . S
C1275 H1277 0.930 . S
H1276 C1274 0.931 . S
H1277 C1275 0.930 . S
H1278 C1301 0.931 . S
H1279 C1267 0.929 . S
H1280 C1302 0.930 . S
H1281 C1273 0.931 . S
H1282 C1263 0.930 . S
H1283 C1292 0.929 . S
H1284 C1268 0.931 . S
H1285 C1269 0.930 . S
H1286 C1324 0.930 . S
H1287 C1265 0.929 . S
H1288 C1293 0.931 . S
H1289 C1294 0.930 . S
N1290 Gd1270 2.622 . S
N1290 C1291 1.369 . S
N1290 C1292 1.338 . S
C1291 N1290 1.369 . S
C1291 C1295 1.415 . S
C1291 C1298 1.422 . S
C1292 H1283 0.929 . S
C1292 N1290 1.338 . S
C1292 C1294 1.378 . S
C1293 H1288 0.931 . S
C1293 C1294 1.348 . S
C1293 C1295 1.413 . S
C1294 H1289 0.930 . S
C1294 C1292 1.378 . S
C1294 C1293 1.348 . S
C1295 C1291 1.415 . S
C1295 C1293 1.413 . S
C1295 C1325 1.437 . S
H1296 C1325 0.929 . S
N1297 Gd1270 2.570 . S
N1297 C1298 1.359 . S
N1297 C1301 1.343 . S
C1298 C1291 1.422 . S
C1298 N1297 1.359 . S
C1298 C1300 1.421 . S
C1299 C1300 1.422 . S
C1299 C1302 1.321 . S
C1299 H1326 0.931 . S
C1300 C1298 1.421 . S
C1300 C1299 1.422 . S
C1300 C1324 1.417 . S
C1301 H1278 0.931 . S
C1301 N1297 1.343 . S
C1301 C1302 1.390 . S
C1302 H1280 0.930 . S
C1302 C1299 1.321 . S
C1302 C1301 1.390 . S
O1303 Gd1271 2.386 . S
O1303 C1315 1.265 . S
O1304 Gd1270 2.353 . S
O1304 C1315 1.242 . S
O1305 Gd1270 2.468 . S
O1305 C1323 1.263 . S
O1306 Gd1270 2.427 . S
O1306 C1323 1.252 . S
O1307 Gd1271 2.307 . S
O1307 C1316 1.261 . S
O1308 Gd1270 2.388 . S
O1308 C1316 1.252 . S
O1309 Gd1270 2.386 . S
O1309 C1327 1.265 . S
O1310 Gd1271 2.353 . S
O1310 C1327 1.242 . S
O1311 Gd1271 2.468 . S
O1311 C1335 1.263 . S
O1312 Gd1271 2.427 . S
O1312 C1335 1.252 . S
O1313 Gd1270 2.307 . S
O1313 C1328 1.261 . S
O1314 Gd1271 2.388 . S
O1314 C1328 1.252 . S
C1315 O1303 1.265 . S
C1315 O1304 1.242 . S
C1316 O1307 1.261 . S
C1316 O1308 1.252 . S
C1317 C1320 1.394 . S
C1317 C1322 1.370 . S
C1317 C1323 1.500 . S
C1318 C1321 1.383 . S
C1318 C1322 1.395 . S
C1319 C1320 1.396 . S
C1319 C1321 1.365 . S
C1319 H1336 0.929 . S
C1320 C1317 1.394 . S
C1320 C1319 1.396 . S
C1320 H1337 0.930 . S
C1321 C1318 1.383 . S
C1321 C1319 1.365 . S
C1321 H1338 0.931 . S
C1322 C1317 1.370 . S
C1322 C1318 1.395 . S
C1322 H1339 0.930 . S
C1323 Gd1270 2.805 . S
C1323 O1305 1.263 . S
C1323 O1306 1.252 . S
C1323 C1317 1.500 . S
C1324 H1286 0.930 . S
C1324 C1300 1.417 . S
C1324 C1325 1.329 . S
C1325 C1295 1.437 . S
C1325 H1296 0.929 . S
C1325 C1324 1.329 . S
H1326 C1299 0.931 . S
C1327 O1309 1.265 . S
C1327 O1310 1.242 . S
C1328 O1313 1.261 . S
C1328 O1314 1.252 . S
C1329 C1332 1.394 . S
C1329 C1334 1.370 . S
C1329 C1335 1.500 . S
C1330 C1333 1.383 . S
C1330 C1334 1.395 . S
C1331 C1332 1.396 . S
C1331 C1333 1.365 . S
C1331 H1340 0.929 . S
C1332 C1329 1.394 . S
C1332 C1331 1.396 . S
C1332 H1341 0.930 . S
C1333 C1330 1.383 . S
C1333 C1331 1.365 . S
C1333 H1342 0.931 . S
C1334 C1329 1.370 . S
C1334 C1330 1.395 . S
C1334 H1343 0.930 . S
C1335 Gd1271 2.805 . S
C1335 O1311 1.263 . S
C1335 O1312 1.252 . S
C1335 C1329 1.500 . S
H1336 C1319 0.929 . S
H1337 C1320 0.930 . S
H1338 C1321 0.931 . S
H1339 C1322 0.930 . S
H1340 C1331 0.929 . S
H1341 C1332 0.930 . S
H1342 C1333 0.931 . S
H1343 C1334 0.930 . S
C1344 C1346 1.422 . S
C1344 C1348 1.415 . S
C1344 N1350 1.369 . S
C1345 C1346 1.421 . S
C1345 C1347 1.417 . S
C1345 C1357 1.422 . S
C1346 C1344 1.422 . S
C1346 C1345 1.421 . S
C1346 N1356 1.359 . S
C1347 C1345 1.417 . S
C1347 C1349 1.329 . S
C1347 H1366 0.930 . S
C1348 C1344 1.415 . S
C1348 C1349 1.437 . S
C1348 C1352 1.413 . S
C1349 C1347 1.329 . S
C1349 C1348 1.437 . S
C1349 H1371 0.929 . S
N1350 C1344 1.369 . S
N1350 C1351 1.338 . S
N1350 Gd1355 2.622 . S
C1351 N1350 1.338 . S
C1351 C1353 1.378 . S
C1351 H1363 0.929 . S
C1352 C1348 1.413 . S
C1352 C1353 1.348 . S
C1352 H1368 0.931 . S
C1353 C1351 1.378 . S
C1353 C1352 1.348 . S
C1353 H1369 0.930 . S
Gd1354 N1374 2.622 . S
Gd1354 N1381 2.570 . S
Gd1354 O1388 2.353 . S
Gd1354 O1389 2.468 . S
Gd1354 O1390 2.427 . S
Gd1354 O1392 2.388 . S
Gd1354 O1393 2.386 . S
Gd1354 O1397 2.307 . S
Gd1354 C1407 2.805 . S
Gd1355 N1350 2.622 . S
Gd1355 N1356 2.570 . S
Gd1355 O1387 2.386 . S
Gd1355 O1391 2.307 . S
Gd1355 O1394 2.353 . S
Gd1355 O1395 2.468 . S
Gd1355 O1396 2.427 . S
Gd1355 O1398 2.388 . S
Gd1355 C1419 2.805 . S
N1356 C1346 1.359 . S
N1356 Gd1355 2.570 . S
N1356 C1358 1.343 . S
C1357 C1345 1.422 . S
C1357 C1359 1.321 . S
C1357 H1365 0.931 . S
C1358 N1356 1.343 . S
C1358 C1359 1.390 . S
C1358 H1360 0.931 . S
C1359 C1357 1.321 . S
C1359 C1358 1.390 . S
C1359 H1361 0.930 . S
H1360 C1358 0.931 . S
H1361 C1359 0.930 . S
H1362 C1385 0.931 . S
H1363 C1351 0.929 . S
H1364 C1386 0.930 . S
H1365 C1357 0.931 . S
H1366 C1347 0.930 . S
H1367 C1376 0.929 . S
H1368 C1352 0.931 . S
H1369 C1353 0.930 . S
H1370 C1408 0.930 . S
H1371 C1349 0.929 . S
H1372 C1377 0.931 . S
H1373 C1378 0.930 . S
N1374 Gd1354 2.622 . S
N1374 C1375 1.369 . S
N1374 C1376 1.338 . S
C1375 N1374 1.369 . S
C1375 C1379 1.415 . S
C1375 C1382 1.422 . S
C1376 H1367 0.929 . S
C1376 N1374 1.338 . S
C1376 C1378 1.378 . S
C1377 H1372 0.931 . S
C1377 C1378 1.348 . S
C1377 C1379 1.413 . S
C1378 H1373 0.930 . S
C1378 C1376 1.378 . S
C1378 C1377 1.348 . S
C1379 C1375 1.415 . S
C1379 C1377 1.413 . S
C1379 C1409 1.437 . S
H1380 C1409 0.929 . S
N1381 Gd1354 2.570 . S
N1381 C1382 1.359 . S
N1381 C1385 1.343 . S
C1382 C1375 1.422 . S
C1382 N1381 1.359 . S
C1382 C1384 1.421 . S
C1383 C1384 1.422 . S
C1383 C1386 1.321 . S
C1383 H1410 0.931 . S
C1384 C1382 1.421 . S
C1384 C1383 1.422 . S
C1384 C1408 1.417 . S
C1385 H1362 0.931 . S
C1385 N1381 1.343 . S
C1385 C1386 1.390 . S
C1386 H1364 0.930 . S
C1386 C1383 1.321 . S
C1386 C1385 1.390 . S
O1387 Gd1355 2.386 . S
O1387 C1399 1.265 . S
O1388 Gd1354 2.353 . S
O1388 C1399 1.242 . S
O1389 Gd1354 2.468 . S
O1389 C1407 1.263 . S
O1390 Gd1354 2.427 . S
O1390 C1407 1.252 . S
O1391 Gd1355 2.307 . S
O1391 C1400 1.261 . S
O1392 Gd1354 2.388 . S
O1392 C1400 1.252 . S
O1393 Gd1354 2.386 . S
O1393 C1411 1.265 . S
O1394 Gd1355 2.353 . S
O1394 C1411 1.242 . S
O1395 Gd1355 2.468 . S
O1395 C1419 1.263 . S
O1396 Gd1355 2.427 . S
O1396 C1419 1.252 . S
O1397 Gd1354 2.307 . S
O1397 C1412 1.261 . S
O1398 Gd1355 2.388 . S
O1398 C1412 1.252 . S
C1399 O1387 1.265 . S
C1399 O1388 1.242 . S
C1400 O1391 1.261 . S
C1400 O1392 1.252 . S
C1401 C1404 1.394 . S
C1401 C1406 1.370 . S
C1401 C1407 1.500 . S
C1402 C1405 1.383 . S
C1402 C1406 1.395 . S
C1403 C1404 1.396 . S
C1403 C1405 1.365 . S
C1403 H1420 0.929 . S
C1404 C1401 1.394 . S
C1404 C1403 1.396 . S
C1404 H1421 0.930 . S
C1405 C1402 1.383 . S
C1405 C1403 1.365 . S
C1405 H1422 0.931 . S
C1406 C1401 1.370 . S
C1406 C1402 1.395 . S
C1406 H1423 0.930 . S
C1407 Gd1354 2.805 . S
C1407 O1389 1.263 . S
C1407 O1390 1.252 . S
C1407 C1401 1.500 . S
C1408 H1370 0.930 . S
C1408 C1384 1.417 . S
C1408 C1409 1.329 . S
C1409 C1379 1.437 . S
C1409 H1380 0.929 . S
C1409 C1408 1.329 . S
H1410 C1383 0.931 . S
C1411 O1393 1.265 . S
C1411 O1394 1.242 . S
C1412 O1397 1.261 . S
C1412 O1398 1.252 . S
C1413 C1416 1.394 . S
C1413 C1418 1.370 . S
C1413 C1419 1.500 . S
C1414 C1417 1.383 . S
C1414 C1418 1.395 . S
C1415 C1416 1.396 . S
C1415 C1417 1.365 . S
C1415 H1424 0.929 . S
C1416 C1413 1.394 . S
C1416 C1415 1.396 . S
C1416 H1425 0.930 . S
C1417 C1414 1.383 . S
C1417 C1415 1.365 . S
C1417 H1426 0.931 . S
C1418 C1413 1.370 . S
C1418 C1414 1.395 . S
C1418 H1427 0.930 . S
C1419 Gd1355 2.805 . S
C1419 O1395 1.263 . S
C1419 O1396 1.252 . S
C1419 C1413 1.500 . S
H1420 C1403 0.929 . S
H1421 C1404 0.930 . S
H1422 C1405 0.931 . S
H1423 C1406 0.930 . S
H1424 C1415 0.929 . S
H1425 C1416 0.930 . S
H1426 C1417 0.931 . S
H1427 C1418 0.930 . S
C1428 C1430 1.422 . S
C1428 C1432 1.415 . S
C1428 N1434 1.369 . S
C1429 C1430 1.421 . S
C1429 C1431 1.417 . S
C1429 C1441 1.422 . S
C1430 C1428 1.422 . S
C1430 C1429 1.421 . S
C1430 N1440 1.359 . S
C1431 C1429 1.417 . S
C1431 C1433 1.329 . S
C1431 H1450 0.930 . S
C1432 C1428 1.415 . S
C1432 C1433 1.437 . S
C1432 C1436 1.413 . S
C1433 C1431 1.329 . S
C1433 C1432 1.437 . S
C1433 H1455 0.929 . S
N1434 C1428 1.369 . S
N1434 C1435 1.338 . S
N1434 Gd1439 2.622 . S
C1435 N1434 1.338 . S
C1435 C1437 1.378 . S
C1435 H1447 0.929 . S
C1436 C1432 1.413 . S
C1436 C1437 1.348 . S
C1436 H1452 0.931 . S
C1437 C1435 1.378 . S
C1437 C1436 1.348 . S
C1437 H1453 0.930 . S
Gd1438 N1458 2.622 . S
Gd1438 N1465 2.570 . S
Gd1438 O1472 2.353 . S
Gd1438 O1473 2.468 . S
Gd1438 O1474 2.427 . S
Gd1438 O1476 2.388 . S
Gd1438 O1477 2.386 . S
Gd1438 O1481 2.307 . S
Gd1438 C1491 2.805 . S
Gd1439 N1434 2.622 . S
Gd1439 N1440 2.570 . S
Gd1439 O1471 2.386 . S
Gd1439 O1475 2.307 . S
Gd1439 O1478 2.353 . S
Gd1439 O1479 2.468 . S
Gd1439 O1480 2.427 . S
Gd1439 O1482 2.388 . S
Gd1439 C1503 2.805 . S
N1440 C1430 1.359 . S
N1440 Gd1439 2.570 . S
N1440 C1442 1.343 . S
C1441 C1429 1.422 . S
C1441 C1443 1.321 . S
C1441 H1449 0.931 . S
C1442 N1440 1.343 . S
C1442 C1443 1.390 . S
C1442 H1444 0.931 . S
C1443 C1441 1.321 . S
C1443 C1442 1.390 . S
C1443 H1445 0.930 . S
H1444 C1442 0.931 . S
H1445 C1443 0.930 . S
H1446 C1469 0.931 . S
H1447 C1435 0.929 . S
H1448 C1470 0.930 . S
H1449 C1441 0.931 . S
H1450 C1431 0.930 . S
H1451 C1460 0.929 . S
H1452 C1436 0.931 . S
H1453 C1437 0.930 . S
H1454 C1492 0.930 . S
H1455 C1433 0.929 . S
H1456 C1461 0.931 . S
H1457 C1462 0.930 . S
N1458 Gd1438 2.622 . S
N1458 C1459 1.369 . S
N1458 C1460 1.338 . S
C1459 N1458 1.369 . S
C1459 C1463 1.415 . S
C1459 C1466 1.422 . S
C1460 H1451 0.929 . S
C1460 N1458 1.338 . S
C1460 C1462 1.378 . S
C1461 H1456 0.931 . S
C1461 C1462 1.348 . S
C1461 C1463 1.413 . S
C1462 H1457 0.930 . S
C1462 C1460 1.378 . S
C1462 C1461 1.348 . S
C1463 C1459 1.415 . S
C1463 C1461 1.413 . S
C1463 C1493 1.437 . S
H1464 C1493 0.929 . S
N1465 Gd1438 2.570 . S
N1465 C1466 1.359 . S
N1465 C1469 1.343 . S
C1466 C1459 1.422 . S
C1466 N1465 1.359 . S
C1466 C1468 1.421 . S
C1467 C1468 1.422 . S
C1467 C1470 1.321 . S
C1467 H1494 0.931 . S
C1468 C1466 1.421 . S
C1468 C1467 1.422 . S
C1468 C1492 1.417 . S
C1469 H1446 0.931 . S
C1469 N1465 1.343 . S
C1469 C1470 1.390 . S
C1470 H1448 0.930 . S
C1470 C1467 1.321 . S
C1470 C1469 1.390 . S
O1471 Gd1439 2.386 . S
O1471 C1483 1.265 . S
O1472 Gd1438 2.353 . S
O1472 C1483 1.242 . S
O1473 Gd1438 2.468 . S
O1473 C1491 1.263 . S
O1474 Gd1438 2.427 . S
O1474 C1491 1.252 . S
O1475 Gd1439 2.307 . S
O1475 C1484 1.261 . S
O1476 Gd1438 2.388 . S
O1476 C1484 1.252 . S
O1477 Gd1438 2.386 . S
O1477 C1495 1.265 . S
O1478 Gd1439 2.353 . S
O1478 C1495 1.242 . S
O1479 Gd1439 2.468 . S
O1479 C1503 1.263 . S
O1480 Gd1439 2.427 . S
O1480 C1503 1.252 . S
O1481 Gd1438 2.307 . S
O1481 C1496 1.261 . S
O1482 Gd1439 2.388 . S
O1482 C1496 1.252 . S
C1483 O1471 1.265 . S
C1483 O1472 1.242 . S
C1484 O1475 1.261 . S
C1484 O1476 1.252 . S
C1485 C1488 1.394 . S
C1485 C1490 1.370 . S
C1485 C1491 1.500 . S
C1486 C1489 1.383 . S
C1486 C1490 1.395 . S
C1487 C1488 1.396 . S
C1487 C1489 1.365 . S
C1487 H1504 0.929 . S
C1488 C1485 1.394 . S
C1488 C1487 1.396 . S
C1488 H1505 0.930 . S
C1489 C1486 1.383 . S
C1489 C1487 1.365 . S
C1489 H1506 0.931 . S
C1490 C1485 1.370 . S
C1490 C1486 1.395 . S
C1490 H1507 0.930 . S
C1491 Gd1438 2.805 . S
C1491 O1473 1.263 . S
C1491 O1474 1.252 . S
C1491 C1485 1.500 . S
C1492 H1454 0.930 . S
C1492 C1468 1.417 . S
C1492 C1493 1.329 . S
C1493 C1463 1.437 . S
C1493 H1464 0.929 . S
C1493 C1492 1.329 . S
H1494 C1467 0.931 . S
C1495 O1477 1.265 . S
C1495 O1478 1.242 . S
C1496 O1481 1.261 . S
C1496 O1482 1.252 . S
C1497 C1500 1.394 . S
C1497 C1502 1.370 . S
C1497 C1503 1.500 . S
C1498 C1501 1.383 . S
C1498 C1502 1.395 . S
C1499 C1500 1.396 . S
C1499 C1501 1.365 . S
C1499 H1508 0.929 . S
C1500 C1497 1.394 . S
C1500 C1499 1.396 . S
C1500 H1509 0.930 . S
C1501 C1498 1.383 . S
C1501 C1499 1.365 . S
C1501 H1510 0.931 . S
C1502 C1497 1.370 . S
C1502 C1498 1.395 . S
C1502 H1511 0.930 . S
C1503 Gd1439 2.805 . S
C1503 O1479 1.263 . S
C1503 O1480 1.252 . S
C1503 C1497 1.500 . S
H1504 C1487 0.929 . S
H1505 C1488 0.930 . S
H1506 C1489 0.931 . S
H1507 C1490 0.930 . S
H1508 C1499 0.929 . S
H1509 C1500 0.930 . S
H1510 C1501 0.931 . S
H1511 C1502 0.930 . S
C1512 C1514 1.422 . S
C1512 C1516 1.415 . S
C1512 N1518 1.369 . S
C1513 C1514 1.421 . S
C1513 C1515 1.417 . S
C1513 C1525 1.422 . S
C1514 C1512 1.422 . S
C1514 C1513 1.421 . S
C1514 N1524 1.359 . S
C1515 C1513 1.417 . S
C1515 C1517 1.329 . S
C1515 H1534 0.930 . S
C1516 C1512 1.415 . S
C1516 C1517 1.437 . S
C1516 C1520 1.413 . S
C1517 C1515 1.329 . S
C1517 C1516 1.437 . S
C1517 H1539 0.929 . S
N1518 C1512 1.369 . S
N1518 C1519 1.338 . S
N1518 Gd1523 2.622 . S
C1519 N1518 1.338 . S
C1519 C1521 1.378 . S
C1519 H1531 0.929 . S
C1520 C1516 1.413 . S
C1520 C1521 1.348 . S
C1520 H1536 0.931 . S
C1521 C1519 1.378 . S
C1521 C1520 1.348 . S
C1521 H1537 0.930 . S
Gd1522 N1542 2.622 . S
Gd1522 N1549 2.570 . S
Gd1522 O1556 2.353 . S
Gd1522 O1557 2.468 . S
Gd1522 O1558 2.427 . S
Gd1522 O1560 2.388 . S
Gd1522 O1561 2.386 . S
Gd1522 O1565 2.307 . S
Gd1522 C1575 2.805 . S
Gd1523 N1518 2.622 . S
Gd1523 N1524 2.570 . S
Gd1523 O1555 2.386 . S
Gd1523 O1559 2.307 . S
Gd1523 O1562 2.353 . S
Gd1523 O1563 2.468 . S
Gd1523 O1564 2.427 . S
Gd1523 O1566 2.388 . S
Gd1523 C1587 2.805 . S
N1524 C1514 1.359 . S
N1524 Gd1523 2.570 . S
N1524 C1526 1.343 . S
C1525 C1513 1.422 . S
C1525 C1527 1.321 . S
C1525 H1533 0.931 . S
C1526 N1524 1.343 . S
C1526 C1527 1.390 . S
C1526 H1528 0.931 . S
C1527 C1525 1.321 . S
C1527 C1526 1.390 . S
C1527 H1529 0.930 . S
H1528 C1526 0.931 . S
H1529 C1527 0.930 . S
H1530 C1553 0.931 . S
H1531 C1519 0.929 . S
H1532 C1554 0.930 . S
H1533 C1525 0.931 . S
H1534 C1515 0.930 . S
H1535 C1544 0.929 . S
H1536 C1520 0.931 . S
H1537 C1521 0.930 . S
H1538 C1576 0.930 . S
H1539 C1517 0.929 . S
H1540 C1545 0.931 . S
H1541 C1546 0.930 . S
N1542 Gd1522 2.622 . S
N1542 C1543 1.369 . S
N1542 C1544 1.338 . S
C1543 N1542 1.369 . S
C1543 C1547 1.415 . S
C1543 C1550 1.422 . S
C1544 H1535 0.929 . S
C1544 N1542 1.338 . S
C1544 C1546 1.378 . S
C1545 H1540 0.931 . S
C1545 C1546 1.348 . S
C1545 C1547 1.413 . S
C1546 H1541 0.930 . S
C1546 C1544 1.378 . S
C1546 C1545 1.348 . S
C1547 C1543 1.415 . S
C1547 C1545 1.413 . S
C1547 C1577 1.437 . S
H1548 C1577 0.929 . S
N1549 Gd1522 2.570 . S
N1549 C1550 1.359 . S
N1549 C1553 1.343 . S
C1550 C1543 1.422 . S
C1550 N1549 1.359 . S
C1550 C1552 1.421 . S
C1551 C1552 1.422 . S
C1551 C1554 1.321 . S
C1551 H1578 0.931 . S
C1552 C1550 1.421 . S
C1552 C1551 1.422 . S
C1552 C1576 1.417 . S
C1553 H1530 0.931 . S
C1553 N1549 1.343 . S
C1553 C1554 1.390 . S
C1554 H1532 0.930 . S
C1554 C1551 1.321 . S
C1554 C1553 1.390 . S
O1555 Gd1523 2.386 . S
O1555 C1567 1.265 . S
O1556 Gd1522 2.353 . S
O1556 C1567 1.242 . S
O1557 Gd1522 2.468 . S
O1557 C1575 1.263 . S
O1558 Gd1522 2.427 . S
O1558 C1575 1.252 . S
O1559 Gd1523 2.307 . S
O1559 C1568 1.261 . S
O1560 Gd1522 2.388 . S
O1560 C1568 1.252 . S
O1561 Gd1522 2.386 . S
O1561 C1579 1.265 . S
O1562 Gd1523 2.353 . S
O1562 C1579 1.242 . S
O1563 Gd1523 2.468 . S
O1563 C1587 1.263 . S
O1564 Gd1523 2.427 . S
O1564 C1587 1.252 . S
O1565 Gd1522 2.307 . S
O1565 C1580 1.261 . S
O1566 Gd1523 2.388 . S
O1566 C1580 1.252 . S
C1567 O1555 1.265 . S
C1567 O1556 1.242 . S
C1568 O1559 1.261 . S
C1568 O1560 1.252 . S
C1569 C1572 1.394 . S
C1569 C1574 1.370 . S
C1569 C1575 1.500 . S
C1570 C1573 1.383 . S
C1570 C1574 1.395 . S
C1571 C1572 1.396 . S
C1571 C1573 1.365 . S
C1571 H1588 0.929 . S
C1572 C1569 1.394 . S
C1572 C1571 1.396 . S
C1572 H1589 0.930 . S
C1573 C1570 1.383 . S
C1573 C1571 1.365 . S
C1573 H1590 0.931 . S
C1574 C1569 1.370 . S
C1574 C1570 1.395 . S
C1574 H1591 0.930 . S
C1575 Gd1522 2.805 . S
C1575 O1557 1.263 . S
C1575 O1558 1.252 . S
C1575 C1569 1.500 . S
C1576 H1538 0.930 . S
C1576 C1552 1.417 . S
C1576 C1577 1.329 . S
C1577 C1547 1.437 . S
C1577 H1548 0.929 . S
C1577 C1576 1.329 . S
H1578 C1551 0.931 . S
C1579 O1561 1.265 . S
C1579 O1562 1.242 . S
C1580 O1565 1.261 . S
C1580 O1566 1.252 . S
C1581 C1584 1.394 . S
C1581 C1586 1.370 . S
C1581 C1587 1.500 . S
C1582 C1585 1.383 . S
C1582 C1586 1.395 . S
C1583 C1584 1.396 . S
C1583 C1585 1.365 . S
C1583 H1592 0.929 . S
C1584 C1581 1.394 . S
C1584 C1583 1.396 . S
C1584 H1593 0.930 . S
C1585 C1582 1.383 . S
C1585 C1583 1.365 . S
C1585 H1594 0.931 . S
C1586 C1581 1.370 . S
C1586 C1582 1.395 . S
C1586 H1595 0.930 . S
C1587 Gd1523 2.805 . S
C1587 O1563 1.263 . S
C1587 O1564 1.252 . S
C1587 C1581 1.500 . S
H1588 C1571 0.929 . S
H1589 C1572 0.930 . S
H1590 C1573 0.931 . S
H1591 C1574 0.930 . S
H1592 C1583 0.929 . S
H1593 C1584 0.930 . S
H1594 C1585 0.931 . S
H1595 C1586 0.930 . S
C1596 C1598 1.422 1_556 S
C1596 C1600 1.415 . S
C1596 N1602 1.369 . S
C1597 C1598 1.421 . S
C1597 C1599 1.417 . S
C1597 C1609 1.422 . S
C1598 C1596 1.422 1_554 S
C1598 C1597 1.421 . S
C1598 N1608 1.359 . S
C1599 C1597 1.417 . S
C1599 C1601 1.329 1_554 S
C1599 H1618 0.930 . S
C1600 C1596 1.415 . S
C1600 C1601 1.437 . S
C1600 C1604 1.413 . S
C1601 C1599 1.329 1_556 S
C1601 C1600 1.437 . S
C1601 H1623 0.929 . S
N1602 C1596 1.369 . S
N1602 C1603 1.338 . S
N1602 Gd1607 2.622 1_556 S
C1603 N1602 1.338 . S
C1603 C1605 1.378 . S
C1603 H1615 0.929 . S
C1604 C1600 1.413 . S
C1604 C1605 1.348 . S
C1604 H1620 0.931 . S
C1605 C1603 1.378 . S
C1605 C1604 1.348 . S
C1605 H1621 0.930 . S
Gd1606 N1626 2.622 . S
Gd1606 N1633 2.570 . S
Gd1606 O1640 2.353 1_655 S
Gd1606 O1641 2.468 . S
Gd1606 O1642 2.427 . S
Gd1606 O1644 2.388 1_655 S
Gd1606 O1645 2.386 1_655 S
Gd1606 O1649 2.307 1_655 S
Gd1606 C1659 2.805 . S
Gd1607 N1602 2.622 1_554 S
Gd1607 N1608 2.570 . S
Gd1607 O1639 2.386 . S
Gd1607 O1643 2.307 . S
Gd1607 O1646 2.353 . S
Gd1607 O1647 2.468 . S
Gd1607 O1648 2.427 1_554 S
Gd1607 O1650 2.388 1_554 S
Gd1607 C1671 2.805 . S
N1608 C1598 1.359 . S
N1608 Gd1607 2.570 . S
N1608 C1610 1.343 . S
C1609 C1597 1.422 . S
C1609 C1611 1.321 . S
C1609 H1617 0.931 . S
C1610 N1608 1.343 . S
C1610 C1611 1.390 . S
C1610 H1612 0.931 . S
C1611 C1609 1.321 . S
C1611 C1610 1.390 . S
C1611 H1613 0.930 . S
H1612 C1610 0.931 . S
H1613 C1611 0.930 . S
H1614 C1637 0.976 . S
H1615 C1603 0.929 . S
H1616 C1638 0.930 1_556 S
H1617 C1609 0.931 . S
H1618 C1599 0.930 . S
H1619 C1628 0.929 1_455 S
H1620 C1604 0.931 . S
H1621 C1605 0.930 . S
H1622 C1660 0.930 . S
H1623 C1601 0.929 . S
H1624 C1629 0.931 . S
H1625 C1630 0.930 . S
N1626 Gd1606 2.622 . S
N1626 C1627 1.369 . S
N1626 C1628 1.338 . S
C1627 N1626 1.369 . S
C1627 C1631 1.415 . S
C1627 C1634 1.422 . S
C1628 H1619 0.929 1_655 S
C1628 N1626 1.338 . S
C1628 C1630 1.378 . S
C1629 H1624 0.931 . S
C1629 C1630 1.348 . S
C1629 C1631 1.413 . S
C1630 H1625 0.930 . S
C1630 C1628 1.378 . S
C1630 C1629 1.348 . S
C1631 C1627 1.415 . S
C1631 C1629 1.413 . S
C1631 C1661 1.437 . S
H1632 C1661 0.929 . S
N1633 Gd1606 2.570 . S
N1633 C1634 1.359 . S
N1633 C1637 1.343 . S
C1634 C1627 1.422 . S
C1634 N1633 1.359 . S
C1634 C1636 1.421 . S
C1635 C1636 1.422 . S
C1635 C1638 1.321 . S
C1635 H1662 0.931 . S
C1636 C1634 1.421 . S
C1636 C1635 1.422 . S
C1636 C1660 1.417 . S
C1637 H1614 0.976 . S
C1637 N1633 1.343 . S
C1637 C1638 1.390 . S
C1638 H1616 0.930 1_554 S
C1638 C1635 1.321 . S
C1638 C1637 1.390 . S
O1639 Gd1607 2.386 . S
O1639 C1651 1.265 . S
O1640 Gd1606 2.353 1_455 S
O1640 C1651 1.242 . S
O1641 Gd1606 2.468 . S
O1641 C1659 1.263 . S
O1642 Gd1606 2.427 . S
O1642 C1659 1.252 . S
O1643 Gd1607 2.307 . S
O1643 C1652 1.261 . S
O1644 Gd1606 2.388 1_455 S
O1644 C1652 1.252 . S
O1645 Gd1606 2.386 1_455 S
O1645 C1663 1.265 . S
O1646 Gd1607 2.353 . S
O1646 C1663 1.242 . S
O1647 Gd1607 2.468 . S
O1647 C1671 1.263 . S
O1648 Gd1607 2.427 1_556 S
O1648 C1671 1.252 1_556 S
O1649 Gd1606 2.307 1_455 S
O1649 C1664 1.261 1_554 S
O1650 Gd1607 2.388 1_556 S
O1650 C1664 1.252 . S
C1651 O1639 1.265 . S
C1651 O1640 1.242 . S
C1652 O1643 1.261 . S
C1652 O1644 1.252 . S
C1653 C1656 1.394 . S
C1653 C1658 1.370 . S
C1653 C1659 1.500 . S
C1654 C1657 1.383 . S
C1654 C1658 1.395 . S
C1655 C1656 1.396 . S
C1655 C1657 1.365 . S
C1655 H1672 0.929 . S
C1656 C1653 1.394 . S
C1656 C1655 1.396 . S
C1656 H1673 0.930 . S
C1657 C1654 1.383 . S
C1657 C1655 1.365 . S
C1657 H1674 0.931 . S
C1658 C1653 1.370 . S
C1658 C1654 1.395 . S
C1658 H1675 0.930 . S
C1659 Gd1606 2.805 . S
C1659 O1641 1.263 . S
C1659 O1642 1.252 . S
C1659 C1653 1.500 . S
C1660 H1622 0.930 . S
C1660 C1636 1.417 . S
C1660 C1661 1.329 . S
C1661 C1631 1.437 . S
C1661 H1632 0.929 . S
C1661 C1660 1.329 . S
H1662 C1635 0.931 . S
C1663 O1645 1.265 . S
C1663 O1646 1.242 . S
C1664 O1649 1.261 1_556 S
C1664 O1650 1.252 . S
C1665 C1668 1.355 1_554 S
C1665 C1670 1.399 . S
C1665 C1671 1.509 . S
C1666 C1669 1.383 1_554 S
C1666 C1670 1.395 . S
C1667 C1668 1.396 . S
C1667 C1669 1.365 . S
C1667 H1676 0.929 . S
C1668 C1665 1.355 1_556 S
C1668 C1667 1.396 . S
C1668 H1677 0.930 . S
C1669 C1666 1.383 1_556 S
C1669 C1667 1.365 . S
C1669 H1678 0.931 . S
C1670 C1665 1.399 . S
C1670 C1666 1.395 . S
C1670 H1679 0.930 . S
C1671 Gd1607 2.805 . S
C1671 O1647 1.263 . S
C1671 O1648 1.252 1_554 S
C1671 C1665 1.509 . S
H1672 C1655 0.929 . S
H1673 C1656 0.930 . S
H1674 C1657 0.931 . S
H1675 C1658 0.930 . S
H1676 C1667 0.929 . S
H1677 C1668 0.930 . S
H1678 C1669 0.931 . S
H1679 C1670 0.930 . S
H1680 C1698 0.951 . S
H1681 C1700 0.951 . S
H1682 C1702 0.950 . S
H1683 C1703 0.950 . S
H1684 C1705 0.912 1_654 S
H1685 C1708 0.950 1_655 S
H1686 C1709 0.950 . S
H1687 C1711 0.950 . S
H1688 C1712 0.950 . S
H1689 C1713 0.951 1_655 S
H1690 C1715 0.951 1_655 S
H1691 C1717 0.950 1_556 S
H1692 C1718 0.950 . S
H1693 C1720 0.950 . S
H1694 C1723 0.950 . S
H1695 C1724 0.950 . S
H1696 C1726 0.950 . S
H1697 C1727 0.950 . S
C1698 H1680 0.951 . S
C1698 C1699 1.373 . S
C1698 C1700 1.388 . S
C1699 C1698 1.373 . S
C1699 C1703 1.380 1_455 S
C1700 H1681 0.951 . S
C1700 C1698 1.388 . S
C1700 C1701 1.366 . S
C1701 C1700 1.366 . S
C1701 C1702 1.414 1_455 S
C1701 C1704 1.499 . S
C1702 H1682 0.950 . S
C1702 C1701 1.414 1_655 S
C1702 C1703 1.374 . S
C1703 H1683 0.950 . S
C1703 C1699 1.380 1_655 S
C1703 C1702 1.374 . S
C1704 C1701 1.499 . S
C1704 C1705 1.396 . S
C1704 C1706 1.389 . S
C1705 H1684 0.912 1_456 S
C1705 C1704 1.396 . S
C1705 C1721 1.394 1_556 S
C1706 C1704 1.389 . S
C1706 C1707 1.524 . S
C1706 C1720 1.377 . S
C1707 C1706 1.524 . S
C1707 C1708 1.397 . S
C1707 C1712 1.363 . S
C1708 H1685 0.950 1_455 S
C1708 C1707 1.397 . S
C1708 C1709 1.334 . S
C1709 H1686 0.950 . S
C1709 C1708 1.334 . S
C1709 C1710 1.287 . S
C1710 C1709 1.287 . S
C1710 C1711 1.524 . S
C1710 H1729 0.913 . S
C1711 H1687 0.950 . S
C1711 C1710 1.524 . S
C1711 C1712 1.415 . S
C1712 H1688 0.950 . S
C1712 C1707 1.363 . S
C1712 C1711 1.415 . S
C1713 H1689 0.951 1_455 S
C1713 C1714 1.366 . S
C1713 C1715 1.388 . S
C1714 C1713 1.366 . S
C1714 C1718 1.385 . S
C1715 H1690 0.951 1_455 S
C1715 C1713 1.388 . S
C1715 C1716 1.380 . S
C1716 C1715 1.380 . S
C1716 C1717 1.414 . S
C1716 C1719 1.484 1_554 S
C1717 H1691 0.950 1_554 S
C1717 C1716 1.414 . S
C1717 C1718 1.374 . S
C1718 H1692 0.950 . S
C1718 C1714 1.385 . S
C1718 C1717 1.374 . S
C1719 C1716 1.484 1_556 S
C1719 C1720 1.373 . S
C1719 C1721 1.389 1_556 S
C1720 H1693 0.950 . S
C1720 C1706 1.377 . S
C1720 C1719 1.373 . S
C1721 C1705 1.394 1_554 S
C1721 C1719 1.389 1_554 S
C1721 C1722 1.524 1_455 S
C1722 C1721 1.524 1_655 S
C1722 C1723 1.397 1_655 S
C1722 C1727 1.363 . S
C1723 H1694 0.950 . S
C1723 C1722 1.397 1_455 S
C1723 C1724 1.334 . S
C1724 H1695 0.950 . S
C1724 C1723 1.334 . S
C1724 C1725 1.287 1_455 S
C1725 C1724 1.287 1_655 S
C1725 C1726 1.524 . S
C1725 H1728 0.999 . S
C1726 H1696 0.950 . S
C1726 C1725 1.524 . S
C1726 C1727 1.415 . S
C1727 H1697 0.950 . S
C1727 C1722 1.363 . S
C1727 C1726 1.415 . S
H1728 C1725 0.999 . S
H1729 C1710 0.913 . S
H1730 C1748 0.951 . S
H1731 C1750 0.951 . S
H1732 C1752 0.950 . S
H1733 C1753 0.950 . S
H1734 C1755 0.950 . S
H1735 C1758 0.950 . S
H1736 C1759 0.950 . S
H1737 C1761 0.950 . S
H1738 C1762 0.950 . S
H1739 C1763 0.951 . S
H1740 C1765 0.951 . S
H1741 C1767 0.950 . S
H1742 C1768 0.950 . S
H1743 C1770 0.950 . S
H1744 C1773 0.950 . S
H1745 C1774 0.950 . S
H1746 C1776 0.950 . S
H1747 C1777 0.950 . S
C1748 H1730 0.951 . S
C1748 C1749 1.366 . S
C1748 C1750 1.388 . S
C1749 C1748 1.366 . S
C1749 C1753 1.385 . S
C1750 H1731 0.951 . S
C1750 C1748 1.388 . S
C1750 C1751 1.366 . S
C1751 C1750 1.366 . S
C1751 C1752 1.414 . S
C1751 C1754 1.499 . S
C1752 H1732 0.950 . S
C1752 C1751 1.414 . S
C1752 C1753 1.374 . S
C1753 H1733 0.950 . S
C1753 C1749 1.385 . S
C1753 C1752 1.374 . S
C1754 C1751 1.499 . S
C1754 C1755 1.373 . S
C1754 C1756 1.389 . S
C1755 H1734 0.950 . S
C1755 C1754 1.373 . S
C1755 C1771 1.377 . S
C1756 C1754 1.389 . S
C1756 C1757 1.524 . S
C1756 C1770 1.377 . S
C1757 C1756 1.524 . S
C1757 C1758 1.397 . S
C1757 C1762 1.363 . S
C1758 H1735 0.950 . S
C1758 C1757 1.397 . S
C1758 C1759 1.334 . S
C1759 H1736 0.950 . S
C1759 C1758 1.334 . S
C1759 C1760 1.287 . S
C1760 C1759 1.287 . S
C1760 C1761 1.524 . S
C1760 H1779 0.913 . S
C1761 H1737 0.950 . S
C1761 C1760 1.524 . S
C1761 C1762 1.415 . S
C1762 H1738 0.950 . S
C1762 C1757 1.363 . S
C1762 C1761 1.415 . S
C1763 H1739 0.951 . S
C1763 C1764 1.366 . S
C1763 C1765 1.388 . S
C1764 C1763 1.366 . S
C1764 C1768 1.385 . S
C1765 H1740 0.951 . S
C1765 C1763 1.388 . S
C1765 C1766 1.366 . S
C1766 C1765 1.366 . S
C1766 C1767 1.414 . S
C1766 C1769 1.499 . S
C1767 H1741 0.950 . S
C1767 C1766 1.414 . S
C1767 C1768 1.374 . S
C1768 H1742 0.950 . S
C1768 C1764 1.385 . S
C1768 C1767 1.374 . S
C1769 C1766 1.499 . S
C1769 C1770 1.373 . S
C1769 C1771 1.389 . S
C1770 H1743 0.950 . S
C1770 C1756 1.377 . S
C1770 C1769 1.373 . S
C1771 C1755 1.377 . S
C1771 C1769 1.389 . S
C1771 C1772 1.524 . S
C1772 C1771 1.524 . S
C1772 C1773 1.397 . S
C1772 C1777 1.363 . S
C1773 H1744 0.950 . S
C1773 C1772 1.397 . S
C1773 C1774 1.334 . S
C1774 H1745 0.950 . S
C1774 C1773 1.334 . S
C1774 C1775 1.287 . S
C1775 C1774 1.287 . S
C1775 C1776 1.524 . S
C1775 H1778 0.999 . S
C1776 H1746 0.950 . S
C1776 C1775 1.524 . S
C1776 C1777 1.415 . S
C1777 H1747 0.950 . S
C1777 C1772 1.363 . S
C1777 C1776 1.415 . S
H1778 C1775 0.999 . S
H1779 C1760 0.913 . S
H1780 C1798 0.951 . S
H1781 C1800 0.951 . S
H1782 C1802 0.950 . S
H1783 C1803 0.950 . S
H1784 C1805 0.950 . S
H1785 C1808 0.950 . S
H1786 C1809 0.950 . S
H1787 C1811 0.950 . S
H1788 C1812 0.950 . S
H1789 C1813 0.951 . S
H1790 C1815 0.951 . S
H1791 C1817 0.950 . S
H1792 C1818 0.950 . S
H1793 C1820 0.950 . S
H1794 C1823 0.950 . S
H1795 C1824 0.950 . S
H1796 C1826 0.950 . S
H1797 C1827 0.950 . S
C1798 H1780 0.951 . S
C1798 C1799 1.366 . S
C1798 C1800 1.388 . S
C1799 C1798 1.366 . S
C1799 C1803 1.385 . S
C1800 H1781 0.951 . S
C1800 C1798 1.388 . S
C1800 C1801 1.366 . S
C1801 C1800 1.366 . S
C1801 C1802 1.414 . S
C1801 C1804 1.499 . S
C1802 H1782 0.950 . S
C1802 C1801 1.414 . S
C1802 C1803 1.374 . S
C1803 H1783 0.950 . S
C1803 C1799 1.385 . S
C1803 C1802 1.374 . S
C1804 C1801 1.499 . S
C1804 C1805 1.373 . S
C1804 C1806 1.389 . S
C1805 H1784 0.950 . S
C1805 C1804 1.373 . S
C1805 C1821 1.377 . S
C1806 C1804 1.389 . S
C1806 C1807 1.524 . S
C1806 C1820 1.377 . S
C1807 C1806 1.524 . S
C1807 C1808 1.397 . S
C1807 C1812 1.363 . S
C1808 H1785 0.950 . S
C1808 C1807 1.397 . S
C1808 C1809 1.334 . S
C1809 H1786 0.950 . S
C1809 C1808 1.334 . S
C1809 C1810 1.287 . S
C1810 C1809 1.287 . S
C1810 C1811 1.524 . S
C1810 H1829 0.913 . S
C1811 H1787 0.950 . S
C1811 C1810 1.524 . S
C1811 C1812 1.415 . S
C1812 H1788 0.950 . S
C1812 C1807 1.363 . S
C1812 C1811 1.415 . S
C1813 H1789 0.951 . S
C1813 C1814 1.366 . S
C1813 C1815 1.388 . S
C1814 C1813 1.366 . S
C1814 C1818 1.385 . S
C1815 H1790 0.951 . S
C1815 C1813 1.388 . S
C1815 C1816 1.366 . S
C1816 C1815 1.366 . S
C1816 C1817 1.414 . S
C1816 C1819 1.499 . S
C1817 H1791 0.950 . S
C1817 C1816 1.414 . S
C1817 C1818 1.374 . S
C1818 H1792 0.950 . S
C1818 C1814 1.385 . S
C1818 C1817 1.374 . S
C1819 C1816 1.499 . S
C1819 C1820 1.373 . S
C1819 C1821 1.389 . S
C1820 H1793 0.950 . S
C1820 C1806 1.377 . S
C1820 C1819 1.373 . S
C1821 C1805 1.377 . S
C1821 C1819 1.389 . S
C1821 C1822 1.524 . S
C1822 C1821 1.524 . S
C1822 C1823 1.397 . S
C1822 C1827 1.363 . S
C1823 H1794 0.950 . S
C1823 C1822 1.397 . S
C1823 C1824 1.334 . S
C1824 H1795 0.950 . S
C1824 C1823 1.334 . S
C1824 C1825 1.287 . S
C1825 C1824 1.287 . S
C1825 C1826 1.524 . S
C1825 H1828 0.999 . S
C1826 H1796 0.950 . S
C1826 C1825 1.524 . S
C1826 C1827 1.415 . S
C1827 H1797 0.950 . S
C1827 C1822 1.363 . S
C1827 C1826 1.415 . S
H1828 C1825 0.999 . S
H1829 C1810 0.913 . S
H1830 C1848 0.951 . S
H1831 C1850 0.951 . S
H1832 C1852 0.950 . S
H1833 C1853 0.950 . S
H1834 C1855 0.950 . S
H1835 C1858 0.950 . S
H1836 C1859 0.950 . S
H1837 C1861 0.950 . S
H1838 C1862 0.950 . S
H1839 C1863 0.951 . S
H1840 C1865 0.951 . S
H1841 C1867 0.950 . S
H1842 C1868 0.950 . S
H1843 C1870 0.950 . S
H1844 C1873 0.950 . S
H1845 C1874 0.950 . S
H1846 C1876 0.950 . S
H1847 C1877 0.950 . S
C1848 H1830 0.951 . S
C1848 C1849 1.366 . S
C1848 C1850 1.388 . S
C1849 C1848 1.366 . S
C1849 C1853 1.385 . S
C1850 H1831 0.951 . S
C1850 C1848 1.388 . S
C1850 C1851 1.366 . S
C1851 C1850 1.366 . S
C1851 C1852 1.414 . S
C1851 C1854 1.499 . S
C1852 H1832 0.950 . S
C1852 C1851 1.414 . S
C1852 C1853 1.374 . S
C1853 H1833 0.950 . S
C1853 C1849 1.385 . S
C1853 C1852 1.374 . S
C1854 C1851 1.499 . S
C1854 C1855 1.373 . S
C1854 C1856 1.389 . S
C1855 H1834 0.950 . S
C1855 C1854 1.373 . S
C1855 C1871 1.377 . S
C1856 C1854 1.389 . S
C1856 C1857 1.524 . S
C1856 C1870 1.377 . S
C1857 C1856 1.524 . S
C1857 C1858 1.397 . S
C1857 C1862 1.363 . S
C1858 H1835 0.950 . S
C1858 C1857 1.397 . S
C1858 C1859 1.334 . S
C1859 H1836 0.950 . S
C1859 C1858 1.334 . S
C1859 C1860 1.287 . S
C1860 C1859 1.287 . S
C1860 C1861 1.524 . S
C1860 H1879 0.913 . S
C1861 H1837 0.950 . S
C1861 C1860 1.524 . S
C1861 C1862 1.415 . S
C1862 H1838 0.950 . S
C1862 C1857 1.363 . S
C1862 C1861 1.415 . S
C1863 H1839 0.951 . S
C1863 C1864 1.366 . S
C1863 C1865 1.388 . S
C1864 C1863 1.366 . S
C1864 C1868 1.385 . S
C1865 H1840 0.951 . S
C1865 C1863 1.388 . S
C1865 C1866 1.366 . S
C1866 C1865 1.366 . S
C1866 C1867 1.414 . S
C1866 C1869 1.499 . S
C1867 H1841 0.950 . S
C1867 C1866 1.414 . S
C1867 C1868 1.374 . S
C1868 H1842 0.950 . S
C1868 C1864 1.385 . S
C1868 C1867 1.374 . S
C1869 C1866 1.499 . S
C1869 C1870 1.373 . S
C1869 C1871 1.389 . S
C1870 H1843 0.950 . S
C1870 C1856 1.377 . S
C1870 C1869 1.373 . S
C1871 C1855 1.377 . S
C1871 C1869 1.389 . S
C1871 C1872 1.524 . S
C1872 C1871 1.524 . S
C1872 C1873 1.397 . S
C1872 C1877 1.363 . S
C1873 H1844 0.950 . S
C1873 C1872 1.397 . S
C1873 C1874 1.334 . S
C1874 H1845 0.950 . S
C1874 C1873 1.334 . S
C1874 C1875 1.287 . S
C1875 C1874 1.287 . S
C1875 C1876 1.524 . S
C1875 H1878 0.999 . S
C1876 H1846 0.950 . S
C1876 C1875 1.524 . S
C1876 C1877 1.415 . S
C1877 H1847 0.950 . S
C1877 C1872 1.363 . S
C1877 C1876 1.415 . S
H1878 C1875 0.999 . S
H1879 C1860 0.913 . S
H1880 C1898 0.951 1_655 S
H1881 C1900 0.928 1_655 S
H1882 C1902 0.950 . S
H1883 C1903 0.950 . S
H1884 C1905 0.950 . S
H1885 C1908 0.950 . S
H1886 C1909 0.950 . S
H1887 C1911 0.950 . S
H1888 C1912 0.950 . S
H1889 C1913 0.951 . S
H1890 C1915 0.951 . S
H1891 C1917 0.950 . S
H1892 C1918 0.950 . S
H1893 C1920 0.950 1_655 S
H1894 C1923 0.950 . S
H1895 C1924 0.950 . S
H1896 C1926 0.950 . S
H1897 C1927 0.950 . S
C1898 H1880 0.951 1_455 S
C1898 C1899 1.366 . S
C1898 C1900 1.388 . S
C1899 C1898 1.366 . S
C1899 C1903 1.385 . S
C1900 H1881 0.928 1_455 S
C1900 C1898 1.388 . S
C1900 C1901 1.366 . S
C1901 C1900 1.366 . S
C1901 C1902 1.414 . S
C1901 C1904 1.499 . S
C1902 H1882 0.950 . S
C1902 C1901 1.414 . S
C1902 C1903 1.374 . S
C1903 H1883 0.950 . S
C1903 C1899 1.385 . S
C1903 C1902 1.374 . S
C1904 C1901 1.499 . S
C1904 C1905 1.373 . S
C1904 C1906 1.389 . S
C1905 H1884 0.950 . S
C1905 C1904 1.373 . S
C1905 C1921 1.377 . S
C1906 C1904 1.389 . S
C1906 C1907 1.524 1_455 S
C1906 C1920 1.377 . S
C1907 C1906 1.524 1_655 S
C1907 C1908 1.397 . S
C1907 C1912 1.363 . S
C1908 H1885 0.950 . S
C1908 C1907 1.397 . S
C1908 C1909 1.334 . S
C1909 H1886 0.950 . S
C1909 C1908 1.334 . S
C1909 C1910 1.287 . S
C1910 C1909 1.287 . S
C1910 C1911 1.524 . S
C1910 H1929 0.913 . S
C1911 H1887 0.950 . S
C1911 C1910 1.524 . S
C1911 C1912 1.415 . S
C1912 H1888 0.950 . S
C1912 C1907 1.363 . S
C1912 C1911 1.415 . S
C1913 H1889 0.951 . S
C1913 C1914 1.366 . S
C1913 C1915 1.388 . S
C1914 C1913 1.366 . S
C1914 C1918 1.385 . S
C1915 H1890 0.951 . S
C1915 C1913 1.388 . S
C1915 C1916 1.366 . S
C1916 C1915 1.366 . S
C1916 C1917 1.414 . S
C1916 C1919 1.499 . S
C1917 H1891 0.950 . S
C1917 C1916 1.414 . S
C1917 C1918 1.374 . S
C1918 H1892 0.950 . S
C1918 C1914 1.385 . S
C1918 C1917 1.374 . S
C1919 C1916 1.499 . S
C1919 C1920 1.373 . S
C1919 C1921 1.389 . S
C1920 H1893 0.950 1_455 S
C1920 C1906 1.377 . S
C1920 C1919 1.373 . S
C1921 C1905 1.377 . S
C1921 C1919 1.389 . S
C1921 C1922 1.524 . S
C1922 C1921 1.524 . S
C1922 C1923 1.397 . S
C1922 C1927 1.363 . S
C1923 H1894 0.950 . S
C1923 C1922 1.397 . S
C1923 C1924 1.334 . S
C1924 H1895 0.950 . S
C1924 C1923 1.334 . S
C1924 C1925 1.287 . S
C1925 C1924 1.287 . S
C1925 C1926 1.524 . S
C1925 H1928 0.999 . S
C1926 H1896 0.950 . S
C1926 C1925 1.524 . S
C1926 C1927 1.415 . S
C1927 H1897 0.950 . S
C1927 C1922 1.363 . S
C1927 C1926 1.415 . S
H1928 C1925 0.999 . S
H1929 C1910 0.913 . S
H1930 C1948 0.951 . S
H1931 C1950 0.951 . S
H1932 C1952 0.950 . S
H1933 C1953 0.950 . S
H1934 C1955 0.950 . S
H1935 C1958 0.950 . S
H1936 C1959 0.950 . S
H1937 C1961 0.950 . S
H1938 C1962 0.950 . S
H1939 C1963 0.951 . S
H1940 C1965 0.951 . S
H1941 C1967 0.950 . S
H1942 C1968 0.950 . S
H1943 C1970 0.950 . S
H1944 C1973 0.950 . S
H1945 C1974 0.950 . S
H1946 C1976 0.950 . S
H1947 C1977 0.950 . S
C1948 H1930 0.951 . S
C1948 C1949 1.366 . S
C1948 C1950 1.388 . S
C1949 C1948 1.366 . S
C1949 C1953 1.385 . S
C1950 H1931 0.951 . S
C1950 C1948 1.388 . S
C1950 C1951 1.366 . S
C1951 C1950 1.366 . S
C1951 C1952 1.414 . S
C1951 C1954 1.499 . S
C1952 H1932 0.950 . S
C1952 C1951 1.414 . S
C1952 C1953 1.374 . S
C1953 H1933 0.950 . S
C1953 C1949 1.385 . S
C1953 C1952 1.374 . S
C1954 C1951 1.499 . S
C1954 C1955 1.373 . S
C1954 C1956 1.389 . S
C1955 H1934 0.950 . S
C1955 C1954 1.373 . S
C1955 C1971 1.377 . S
C1956 C1954 1.389 . S
C1956 C1957 1.524 . S
C1956 C1970 1.377 . S
C1957 C1956 1.524 . S
C1957 C1958 1.397 . S
C1957 C1962 1.363 . S
C1958 H1935 0.950 . S
C1958 C1957 1.397 . S
C1958 C1959 1.334 . S
C1959 H1936 0.950 . S
C1959 C1958 1.334 . S
C1959 C1960 1.287 . S
C1960 C1959 1.287 . S
C1960 C1961 1.524 . S
C1960 H1979 0.913 . S
C1961 H1937 0.950 . S
C1961 C1960 1.524 . S
C1961 C1962 1.415 . S
C1962 H1938 0.950 . S
C1962 C1957 1.363 . S
C1962 C1961 1.415 . S
C1963 H1939 0.951 . S
C1963 C1964 1.366 . S
C1963 C1965 1.388 . S
C1964 C1963 1.366 . S
C1964 C1968 1.385 . S
C1965 H1940 0.951 . S
C1965 C1963 1.388 . S
C1965 C1966 1.366 . S
C1966 C1965 1.366 . S
C1966 C1967 1.414 . S
C1966 C1969 1.499 . S
C1967 H1941 0.950 . S
C1967 C1966 1.414 . S
C1967 C1968 1.374 . S
C1968 H1942 0.950 . S
C1968 C1964 1.385 . S
C1968 C1967 1.374 . S
C1969 C1966 1.499 . S
C1969 C1970 1.373 . S
C1969 C1971 1.389 . S
C1970 H1943 0.950 . S
C1970 C1956 1.377 . S
C1970 C1969 1.373 . S
C1971 C1955 1.377 . S
C1971 C1969 1.389 . S
C1971 C1972 1.524 . S
C1972 C1971 1.524 . S
C1972 C1973 1.397 . S
C1972 C1977 1.363 . S
C1973 H1944 0.950 . S
C1973 C1972 1.397 . S
C1973 C1974 1.334 . S
C1974 H1945 0.950 . S
C1974 C1973 1.334 . S
C1974 C1975 1.287 . S
C1975 C1974 1.287 . S
C1975 C1976 1.524 . S
C1975 H1978 0.999 . S
C1976 H1946 0.950 . S
C1976 C1975 1.524 . S
C1976 C1977 1.415 . S
C1977 H1947 0.950 . S
C1977 C1972 1.363 . S
C1977 C1976 1.415 . S
H1978 C1975 0.999 . S
H1979 C1960 0.913 . S
H1980 C1998 0.951 . S
H1981 C2000 0.951 . S
H1982 C2002 0.950 . S
H1983 C2003 0.950 . S
H1984 C2005 0.950 . S
H1985 C2008 0.950 . S
H1986 C2009 0.950 . S
H1987 C2011 0.950 . S
H1988 C2012 0.950 . S
H1989 C2013 0.951 . S
H1990 C2015 0.951 . S
H1991 C2017 0.950 . S
H1992 C2018 0.950 . S
H1993 C2020 0.950 . S
H1994 C2023 0.950 . S
H1995 C2024 0.950 . S
H1996 C2026 0.950 . S
H1997 C2027 0.950 . S
C1998 H1980 0.951 . S
C1998 C1999 1.366 . S
C1998 C2000 1.388 . S
C1999 C1998 1.366 . S
C1999 C2003 1.385 . S
C2000 H1981 0.951 . S
C2000 C1998 1.388 . S
C2000 C2001 1.366 . S
C2001 C2000 1.366 . S
C2001 C2002 1.414 . S
C2001 C2004 1.499 . S
C2002 H1982 0.950 . S
C2002 C2001 1.414 . S
C2002 C2003 1.374 . S
C2003 H1983 0.950 . S
C2003 C1999 1.385 . S
C2003 C2002 1.374 . S
C2004 C2001 1.499 . S
C2004 C2005 1.373 . S
C2004 C2006 1.389 . S
C2005 H1984 0.950 . S
C2005 C2004 1.373 . S
C2005 C2021 1.377 . S
C2006 C2004 1.389 . S
C2006 C2007 1.524 . S
C2006 C2020 1.377 . S
C2007 C2006 1.524 . S
C2007 C2008 1.397 . S
C2007 C2012 1.363 . S
C2008 H1985 0.950 . S
C2008 C2007 1.397 . S
C2008 C2009 1.334 . S
C2009 H1986 0.950 . S
C2009 C2008 1.334 . S
C2009 C2010 1.287 . S
C2010 C2009 1.287 . S
C2010 C2011 1.524 . S
C2010 H2029 0.913 . S
C2011 H1987 0.950 . S
C2011 C2010 1.524 . S
C2011 C2012 1.415 . S
C2012 H1988 0.950 . S
C2012 C2007 1.363 . S
C2012 C2011 1.415 . S
C2013 H1989 0.951 . S
C2013 C2014 1.366 . S
C2013 C2015 1.388 . S
C2014 C2013 1.366 . S
C2014 C2018 1.385 . S
C2015 H1990 0.951 . S
C2015 C2013 1.388 . S
C2015 C2016 1.366 . S
C2016 C2015 1.366 . S
C2016 C2017 1.414 . S
C2016 C2019 1.499 . S
C2017 H1991 0.950 . S
C2017 C2016 1.414 . S
C2017 C2018 1.374 . S
C2018 H1992 0.950 . S
C2018 C2014 1.385 . S
C2018 C2017 1.374 . S
C2019 C2016 1.499 . S
C2019 C2020 1.373 . S
C2019 C2021 1.389 . S
C2020 H1993 0.950 . S
C2020 C2006 1.377 . S
C2020 C2019 1.373 . S
C2021 C2005 1.377 . S
C2021 C2019 1.389 . S
C2021 C2022 1.524 . S
C2022 C2021 1.524 . S
C2022 C2023 1.397 . S
C2022 C2027 1.363 . S
C2023 H1994 0.950 . S
C2023 C2022 1.397 . S
C2023 C2024 1.334 . S
C2024 H1995 0.950 . S
C2024 C2023 1.334 . S
C2024 C2025 1.287 . S
C2025 C2024 1.287 . S
C2025 C2026 1.524 . S
C2025 H2028 0.999 . S
C2026 H1996 0.950 . S
C2026 C2025 1.524 . S
C2026 C2027 1.415 . S
C2027 H1997 0.950 . S
C2027 C2022 1.363 . S
C2027 C2026 1.415 . S
H2028 C2025 0.999 . S
H2029 C2010 0.913 . S
H2030 C2048 0.951 . S
H2031 C2050 0.951 . S
H2032 C2052 0.950 . S
H2033 C2053 0.950 . S
H2034 C2055 0.950 . S
H2035 C2058 0.950 . S
H2036 C2059 0.950 . S
H2037 C2061 0.950 . S
H2038 C2062 0.950 . S
H2039 C2063 0.951 . S
H2040 C2065 0.951 . S
H2041 C2067 0.950 . S
H2042 C2068 0.950 . S
H2043 C2070 0.950 . S
H2044 C2073 0.950 . S
H2045 C2074 0.950 . S
H2046 C2076 0.950 . S
H2047 C2077 0.950 . S
C2048 H2030 0.951 . S
C2048 C2049 1.366 . S
C2048 C2050 1.388 . S
C2049 C2048 1.366 . S
C2049 C2053 1.385 . S
C2050 H2031 0.951 . S
C2050 C2048 1.388 . S
C2050 C2051 1.366 . S
C2051 C2050 1.366 . S
C2051 C2052 1.414 . S
C2051 C2054 1.499 . S
C2052 H2032 0.950 . S
C2052 C2051 1.414 . S
C2052 C2053 1.374 . S
C2053 H2033 0.950 . S
C2053 C2049 1.385 . S
C2053 C2052 1.374 . S
C2054 C2051 1.499 . S
C2054 C2055 1.373 . S
C2054 C2056 1.389 . S
C2055 H2034 0.950 . S
C2055 C2054 1.373 . S
C2055 C2071 1.377 . S
C2056 C2054 1.389 . S
C2056 C2057 1.524 . S
C2056 C2070 1.377 . S
C2057 C2056 1.524 . S
C2057 C2058 1.397 . S
C2057 C2062 1.363 . S
C2058 H2035 0.950 . S
C2058 C2057 1.397 . S
C2058 C2059 1.334 . S
C2059 H2036 0.950 . S
C2059 C2058 1.334 . S
C2059 C2060 1.287 . S
C2060 C2059 1.287 . S
C2060 C2061 1.524 . S
C2060 H2079 0.913 . S
C2061 H2037 0.950 . S
C2061 C2060 1.524 . S
C2061 C2062 1.415 . S
C2062 H2038 0.950 . S
C2062 C2057 1.363 . S
C2062 C2061 1.415 . S
C2063 H2039 0.951 . S
C2063 C2064 1.366 . S
C2063 C2065 1.388 . S
C2064 C2063 1.366 . S
C2064 C2068 1.385 . S
C2065 H2040 0.951 . S
C2065 C2063 1.388 . S
C2065 C2066 1.366 . S
C2066 C2065 1.366 . S
C2066 C2067 1.414 . S
C2066 C2069 1.499 . S
C2067 H2041 0.950 . S
C2067 C2066 1.414 . S
C2067 C2068 1.374 . S
C2068 H2042 0.950 . S
C2068 C2064 1.385 . S
C2068 C2067 1.374 . S
C2069 C2066 1.499 . S
C2069 C2070 1.373 . S
C2069 C2071 1.389 . S
C2070 H2043 0.950 . S
C2070 C2056 1.377 . S
C2070 C2069 1.373 . S
C2071 C2055 1.377 . S
C2071 C2069 1.389 . S
C2071 C2072 1.524 . S
C2072 C2071 1.524 . S
C2072 C2073 1.397 . S
C2072 C2077 1.363 . S
C2073 H2044 0.950 . S
C2073 C2072 1.397 . S
C2073 C2074 1.334 . S
C2074 H2045 0.950 . S
C2074 C2073 1.334 . S
C2074 C2075 1.287 . S
C2075 C2074 1.287 . S
C2075 C2076 1.524 . S
C2075 H2078 0.999 . S
C2076 H2046 0.950 . S
C2076 C2075 1.524 . S
C2076 C2077 1.415 . S
C2077 H2047 0.950 . S
C2077 C2072 1.363 . S
C2077 C2076 1.415 . S
H2078 C2075 0.999 . S
H2079 C2060 0.913 . S
H2080 C2098 0.951 . S
H2081 C2100 0.951 . S
H2082 C2102 0.950 . S
H2083 C2103 0.950 . S
H2084 C2105 0.950 . S
H2085 C2108 0.950 . S
H2086 C2109 0.950 . S
H2087 C2111 0.950 . S
H2088 C2112 0.950 . S
H2089 C2113 0.951 . S
H2090 C2115 0.951 . S
H2091 C2117 0.950 . S
H2092 C2118 0.950 . S
H2093 C2120 0.950 . S
H2094 C2123 0.950 . S
H2095 C2124 0.950 . S
H2096 C2126 0.950 . S
H2097 C2127 0.950 . S
C2098 H2080 0.951 . S
C2098 C2099 1.366 . S
C2098 C2100 1.388 . S
C2099 C2098 1.366 . S
C2099 C2103 1.385 . S
C2100 H2081 0.951 . S
C2100 C2098 1.388 . S
C2100 C2101 1.366 . S
C2101 C2100 1.366 . S
C2101 C2102 1.414 . S
C2101 C2104 1.499 . S
C2102 H2082 0.950 . S
C2102 C2101 1.414 . S
C2102 C2103 1.374 . S
C2103 H2083 0.950 . S
C2103 C2099 1.385 . S
C2103 C2102 1.374 . S
C2104 C2101 1.499 . S
C2104 C2105 1.373 . S
C2104 C2106 1.389 . S
C2105 H2084 0.950 . S
C2105 C2104 1.373 . S
C2105 C2121 1.377 . S
C2106 C2104 1.389 . S
C2106 C2107 1.524 1_545 S
C2106 C2120 1.377 . S
C2107 C2106 1.524 1_565 S
C2107 C2108 1.397 . S
C2107 C2112 1.363 . S
C2108 H2085 0.950 . S
C2108 C2107 1.397 . S
C2108 C2109 1.334 . S
C2109 H2086 0.950 . S
C2109 C2108 1.334 . S
C2109 C2110 1.287 . S
C2110 C2109 1.287 . S
C2110 C2111 1.524 . S
C2110 H2129 0.913 . S
C2111 H2087 0.950 . S
C2111 C2110 1.524 . S
C2111 C2112 1.415 . S
C2112 H2088 0.950 . S
C2112 C2107 1.363 . S
C2112 C2111 1.415 . S
C2113 H2089 0.951 . S
C2113 C2114 1.366 . S
C2113 C2115 1.388 . S
C2114 C2113 1.366 . S
C2114 C2118 1.385 1_455 S
C2115 H2090 0.951 . S
C2115 C2113 1.388 . S
C2115 C2116 1.366 1_455 S
C2116 C2115 1.366 1_655 S
C2116 C2117 1.414 . S
C2116 C2119 1.499 . S
C2117 H2091 0.950 . S
C2117 C2116 1.414 . S
C2117 C2118 1.374 . S
C2118 H2092 0.950 . S
C2118 C2114 1.385 1_655 S
C2118 C2117 1.374 . S
C2119 C2116 1.499 . S
C2119 C2120 1.373 . S
C2119 C2121 1.389 . S
C2120 H2093 0.950 . S
C2120 C2106 1.377 . S
C2120 C2119 1.373 . S
C2121 C2105 1.377 . S
C2121 C2119 1.389 . S
C2121 C2122 1.524 1_655 S
C2122 C2121 1.524 1_455 S
C2122 C2123 1.397 1_455 S
C2122 C2127 1.363 . S
C2123 H2094 0.950 . S
C2123 C2122 1.397 1_655 S
C2123 C2124 1.334 1_655 S
C2124 H2095 0.950 . S
C2124 C2123 1.334 1_455 S
C2124 C2125 1.287 . S
C2125 C2124 1.287 . S
C2125 C2126 1.524 . S
C2125 H2128 0.999 . S
C2126 H2096 0.950 . S
C2126 C2125 1.524 . S
C2126 C2127 1.415 . S
C2127 H2097 0.950 . S
C2127 C2122 1.363 . S
C2127 C2126 1.415 . S
H2128 C2125 0.999 . S
H2129 C2110 0.913 . S
H2130 C2148 0.951 . S
H2131 C2150 0.951 . S
H2132 C2152 0.950 . S
H2133 C2153 0.950 . S
H2134 C2155 0.950 . S
H2135 C2158 0.950 . S
H2136 C2159 0.950 . S
H2137 C2161 0.950 . S
H2138 C2162 0.950 . S
H2139 C2163 0.951 . S
H2140 C2165 0.951 . S
H2141 C2167 0.950 . S
H2142 C2168 0.950 . S
H2143 C2170 0.950 . S
H2144 C2173 0.950 . S
H2145 C2174 0.950 . S
H2146 C2176 0.950 . S
H2147 C2177 0.950 . S
C2148 H2130 0.951 . S
C2148 C2149 1.366 . S
C2148 C2150 1.388 . S
C2149 C2148 1.366 . S
C2149 C2153 1.385 . S
C2150 H2131 0.951 . S
C2150 C2148 1.388 . S
C2150 C2151 1.366 . S
C2151 C2150 1.366 . S
C2151 C2152 1.414 . S
C2151 C2154 1.499 . S
C2152 H2132 0.950 . S
C2152 C2151 1.414 . S
C2152 C2153 1.374 . S
C2153 H2133 0.950 . S
C2153 C2149 1.385 . S
C2153 C2152 1.374 . S
C2154 C2151 1.499 . S
C2154 C2155 1.373 . S
C2154 C2156 1.389 . S
C2155 H2134 0.950 . S
C2155 C2154 1.373 . S
C2155 C2171 1.377 . S
C2156 C2154 1.389 . S
C2156 C2157 1.524 . S
C2156 C2170 1.377 . S
C2157 C2156 1.524 . S
C2157 C2158 1.397 . S
C2157 C2162 1.363 . S
C2158 H2135 0.950 . S
C2158 C2157 1.397 . S
C2158 C2159 1.334 . S
C2159 H2136 0.950 . S
C2159 C2158 1.334 . S
C2159 C2160 1.287 . S
C2160 C2159 1.287 . S
C2160 C2161 1.524 . S
C2160 H2179 0.913 . S
C2161 H2137 0.950 . S
C2161 C2160 1.524 . S
C2161 C2162 1.415 . S
C2162 H2138 0.950 . S
C2162 C2157 1.363 . S
C2162 C2161 1.415 . S
C2163 H2139 0.951 . S
C2163 C2164 1.366 . S
C2163 C2165 1.388 . S
C2164 C2163 1.366 . S
C2164 C2168 1.385 . S
C2165 H2140 0.951 . S
C2165 C2163 1.388 . S
C2165 C2166 1.366 . S
C2166 C2165 1.366 . S
C2166 C2167 1.414 . S
C2166 C2169 1.499 . S
C2167 H2141 0.950 . S
C2167 C2166 1.414 . S
C2167 C2168 1.374 . S
C2168 H2142 0.950 . S
C2168 C2164 1.385 . S
C2168 C2167 1.374 . S
C2169 C2166 1.499 . S
C2169 C2170 1.373 . S
C2169 C2171 1.389 . S
C2170 H2143 0.950 . S
C2170 C2156 1.377 . S
C2170 C2169 1.373 . S
C2171 C2155 1.377 . S
C2171 C2169 1.389 . S
C2171 C2172 1.524 . S
C2172 C2171 1.524 . S
C2172 C2173 1.397 . S
C2172 C2177 1.363 . S
C2173 H2144 0.950 . S
C2173 C2172 1.397 . S
C2173 C2174 1.334 . S
C2174 H2145 0.950 . S
C2174 C2173 1.334 . S
C2174 C2175 1.287 . S
C2175 C2174 1.287 . S
C2175 C2176 1.524 . S
C2175 H2178 0.999 . S
C2176 H2146 0.950 . S
C2176 C2175 1.524 . S
C2176 C2177 1.415 . S
C2177 H2147 0.950 . S
C2177 C2172 1.363 . S
C2177 C2176 1.415 . S
H2178 C2175 0.999 . S
H2179 C2160 0.913 . S
H2180 C2198 0.951 . S
H2181 C2200 0.951 . S
H2182 C2202 0.950 . S
H2183 C2203 0.950 . S
H2184 C2205 0.950 . S
H2185 C2208 0.950 . S
H2186 C2209 0.950 . S
H2187 C2211 0.950 . S
H2188 C2212 0.950 . S
H2189 C2213 0.951 . S
H2190 C2215 0.951 . S
H2191 C2217 0.950 . S
H2192 C2218 0.950 . S
H2193 C2220 0.950 . S
H2194 C2223 0.950 . S
H2195 C2224 0.950 . S
H2196 C2226 0.950 . S
H2197 C2227 0.950 . S
C2198 H2180 0.951 . S
C2198 C2199 1.366 . S
C2198 C2200 1.388 . S
C2199 C2198 1.366 . S
C2199 C2203 1.385 . S
C2200 H2181 0.951 . S
C2200 C2198 1.388 . S
C2200 C2201 1.366 . S
C2201 C2200 1.366 . S
C2201 C2202 1.414 . S
C2201 C2204 1.499 . S
C2202 H2182 0.950 . S
C2202 C2201 1.414 . S
C2202 C2203 1.374 . S
C2203 H2183 0.950 . S
C2203 C2199 1.385 . S
C2203 C2202 1.374 . S
C2204 C2201 1.499 . S
C2204 C2205 1.373 . S
C2204 C2206 1.389 . S
C2205 H2184 0.950 . S
C2205 C2204 1.373 . S
C2205 C2221 1.377 . S
C2206 C2204 1.389 . S
C2206 C2207 1.524 . S
C2206 C2220 1.377 . S
C2207 C2206 1.524 . S
C2207 C2208 1.397 1_545 S
C2207 C2212 1.363 . S
C2208 H2185 0.950 . S
C2208 C2207 1.397 1_565 S
C2208 C2209 1.334 . S
C2209 H2186 0.950 . S
C2209 C2208 1.334 . S
C2209 C2210 1.287 . S
C2210 C2209 1.287 . S
C2210 C2211 1.524 . S
C2210 H2229 0.913 . S
C2211 H2187 0.950 . S
C2211 C2210 1.524 . S
C2211 C2212 1.415 1_565 S
C2212 H2188 0.950 . S
C2212 C2207 1.363 . S
C2212 C2211 1.415 1_545 S
C2213 H2189 0.951 . S
C2213 C2214 1.366 . S
C2213 C2215 1.388 . S
C2214 C2213 1.366 . S
C2214 C2218 1.385 . S
C2215 H2190 0.951 . S
C2215 C2213 1.388 . S
C2215 C2216 1.366 . S
C2216 C2215 1.366 . S
C2216 C2217 1.414 . S
C2216 C2219 1.499 . S
C2217 H2191 0.950 . S
C2217 C2216 1.414 . S
C2217 C2218 1.374 . S
C2218 H2192 0.950 . S
C2218 C2214 1.385 . S
C2218 C2217 1.374 . S
C2219 C2216 1.499 . S
C2219 C2220 1.373 . S
C2219 C2221 1.389 . S
C2220 H2193 0.950 . S
C2220 C2206 1.377 . S
C2220 C2219 1.373 . S
C2221 C2205 1.377 . S
C2221 C2219 1.389 . S
C2221 C2222 1.524 . S
C2222 C2221 1.524 . S
C2222 C2223 1.397 . S
C2222 C2227 1.363 . S
C2223 H2194 0.950 . S
C2223 C2222 1.397 . S
C2223 C2224 1.334 . S
C2224 H2195 0.950 . S
C2224 C2223 1.334 . S
C2224 C2225 1.287 . S
C2225 C2224 1.287 . S
C2225 C2226 1.524 . S
C2225 H2228 0.999 . S
C2226 H2196 0.950 . S
C2226 C2225 1.524 . S
C2226 C2227 1.415 . S
C2227 H2197 0.950 . S
C2227 C2222 1.363 . S
C2227 C2226 1.415 . S
H2228 C2225 0.999 . S
H2229 C2210 0.913 . S
H2230 C2248 0.951 . S
H2231 C2250 0.951 . S
H2232 C2252 0.950 . S
H2233 C2253 0.950 . S
H2234 C2255 0.950 . S
H2235 C2258 0.950 . S
H2236 C2259 0.950 . S
H2237 C2261 0.950 . S
H2238 C2262 0.950 . S
H2239 C2263 0.951 . S
H2240 C2265 0.951 . S
H2241 C2267 0.950 . S
H2242 C2268 0.950 . S
H2243 C2270 0.950 . S
H2244 C2273 0.950 . S
H2245 C2274 0.950 . S
H2246 C2276 0.950 . S
H2247 C2277 0.950 . S
C2248 H2230 0.951 . S
C2248 C2249 1.366 . S
C2248 C2250 1.388 . S
C2249 C2248 1.366 . S
C2249 C2253 1.385 . S
C2250 H2231 0.951 . S
C2250 C2248 1.388 . S
C2250 C2251 1.366 . S
C2251 C2250 1.366 . S
C2251 C2252 1.414 . S
C2251 C2254 1.499 . S
C2252 H2232 0.950 . S
C2252 C2251 1.414 . S
C2252 C2253 1.374 . S
C2253 H2233 0.950 . S
C2253 C2249 1.385 . S
C2253 C2252 1.374 . S
C2254 C2251 1.499 . S
C2254 C2255 1.373 . S
C2254 C2256 1.389 . S
C2255 H2234 0.950 . S
C2255 C2254 1.373 . S
C2255 C2271 1.377 . S
C2256 C2254 1.389 . S
C2256 C2257 1.524 . S
C2256 C2270 1.377 . S
C2257 C2256 1.524 . S
C2257 C2258 1.397 . S
C2257 C2262 1.363 . S
C2258 H2235 0.950 . S
C2258 C2257 1.397 . S
C2258 C2259 1.334 . S
C2259 H2236 0.950 . S
C2259 C2258 1.334 . S
C2259 C2260 1.287 . S
C2260 C2259 1.287 . S
C2260 C2261 1.524 . S
C2260 H2279 0.913 . S
C2261 H2237 0.950 . S
C2261 C2260 1.524 . S
C2261 C2262 1.415 . S
C2262 H2238 0.950 . S
C2262 C2257 1.363 . S
C2262 C2261 1.415 . S
C2263 H2239 0.951 . S
C2263 C2264 1.366 . S
C2263 C2265 1.388 . S
C2264 C2263 1.366 . S
C2264 C2268 1.385 . S
C2265 H2240 0.951 . S
C2265 C2263 1.388 . S
C2265 C2266 1.366 . S
C2266 C2265 1.366 . S
C2266 C2267 1.414 . S
C2266 C2269 1.499 . S
C2267 H2241 0.950 . S
C2267 C2266 1.414 . S
C2267 C2268 1.374 . S
C2268 H2242 0.950 . S
C2268 C2264 1.385 . S
C2268 C2267 1.374 . S
C2269 C2266 1.499 . S
C2269 C2270 1.373 . S
C2269 C2271 1.389 . S
C2270 H2243 0.950 . S
C2270 C2256 1.377 . S
C2270 C2269 1.373 . S
C2271 C2255 1.377 . S
C2271 C2269 1.389 . S
C2271 C2272 1.524 . S
C2272 C2271 1.524 . S
C2272 C2273 1.397 . S
C2272 C2277 1.363 . S
C2273 H2244 0.950 . S
C2273 C2272 1.397 . S
C2273 C2274 1.334 . S
C2274 H2245 0.950 . S
C2274 C2273 1.334 . S
C2274 C2275 1.287 . S
C2275 C2274 1.287 . S
C2275 C2276 1.524 . S
C2275 H2278 0.999 . S
C2276 H2246 0.950 . S
C2276 C2275 1.524 . S
C2276 C2277 1.415 . S
C2277 H2247 0.950 . S
C2277 C2272 1.363 . S
C2277 C2276 1.415 . S
H2278 C2275 0.999 . S
H2279 C2260 0.913 . S
H2280 C2298 0.951 . S
H2281 C2300 0.951 . S
H2282 C2302 0.950 . S
H2283 C2303 0.950 . S
H2284 C2305 0.950 . S
H2285 C2308 0.950 . S
H2286 C2309 0.950 . S
H2287 C2311 0.950 . S
H2288 C2312 0.950 1_545 S
H2289 C2313 0.951 . S
H2290 C2315 0.951 . S
H2291 C2317 0.950 . S
H2292 C2318 0.950 . S
H2293 C2320 0.950 . S
H2294 C2323 0.950 . S
H2295 C2324 0.950 . S
H2296 C2326 0.950 . S
H2297 C2327 0.950 . S
C2298 H2280 0.951 . S
C2298 C2299 1.366 . S
C2298 C2300 1.388 . S
C2299 C2298 1.366 . S
C2299 C2303 1.385 . S
C2300 H2281 0.951 . S
C2300 C2298 1.388 . S
C2300 C2301 1.366 . S
C2301 C2300 1.366 . S
C2301 C2302 1.414 . S
C2301 C2304 1.499 . S
C2302 H2282 0.950 . S
C2302 C2301 1.414 . S
C2302 C2303 1.374 . S
C2303 H2283 0.950 . S
C2303 C2299 1.385 . S
C2303 C2302 1.374 . S
C2304 C2301 1.499 . S
C2304 C2305 1.373 . S
C2304 C2306 1.389 . S
C2305 H2284 0.950 . S
C2305 C2304 1.373 . S
C2305 C2321 1.377 . S
C2306 C2304 1.389 . S
C2306 C2307 1.524 1_545 S
C2306 C2320 1.377 . S
C2307 C2306 1.524 1_565 S
C2307 C2308 1.397 . S
C2307 C2312 1.363 1_655 S
C2308 H2285 0.950 . S
C2308 C2307 1.397 . S
C2308 C2309 1.334 . S
C2309 H2286 0.950 . S
C2309 C2308 1.334 . S
C2309 C2310 1.287 . S
C2310 C2309 1.287 . S
C2310 C2311 1.524 1_655 S
C2310 H2329 0.913 . S
C2311 H2287 0.950 . S
C2311 C2310 1.524 1_455 S
C2311 C2312 1.415 . S
C2312 H2288 0.950 1_565 S
C2312 C2307 1.363 1_455 S
C2312 C2311 1.415 . S
C2313 H2289 0.951 . S
C2313 C2314 1.366 1_655 S
C2313 C2315 1.388 . S
C2314 C2313 1.366 1_455 S
C2314 C2318 1.385 . S
C2315 H2290 0.951 . S
C2315 C2313 1.388 . S
C2315 C2316 1.366 . S
C2316 C2315 1.366 . S
C2316 C2317 1.414 1_655 S
C2316 C2319 1.499 . S
C2317 H2291 0.950 . S
C2317 C2316 1.414 1_455 S
C2317 C2318 1.374 . S
C2318 H2292 0.950 . S
C2318 C2314 1.385 . S
C2318 C2317 1.374 . S
C2319 C2316 1.499 . S
C2319 C2320 1.373 . S
C2319 C2321 1.389 . S
C2320 H2293 0.950 . S
C2320 C2306 1.377 . S
C2320 C2319 1.373 . S
C2321 C2305 1.377 . S
C2321 C2319 1.389 . S
C2321 C2322 1.524 . S
C2322 C2321 1.524 . S
C2322 C2323 1.397 . S
C2322 C2327 1.363 . S
C2323 H2294 0.950 . S
C2323 C2322 1.397 . S
C2323 C2324 1.334 . S
C2324 H2295 0.950 . S
C2324 C2323 1.334 . S
C2324 C2325 1.287 . S
C2325 C2324 1.287 . S
C2325 C2326 1.524 . S
C2325 H2328 0.999 . S
C2326 H2296 0.950 . S
C2326 C2325 1.524 . S
C2326 C2327 1.415 . S
C2327 H2297 0.950 . S
C2327 C2322 1.363 . S
C2327 C2326 1.415 . S
H2328 C2325 0.999 . S
H2329 C2310 0.913 . S
H2330 C2348 0.951 . S
H2331 C2350 0.951 . S
H2332 C2352 0.950 . S
H2333 C2353 0.950 . S
H2334 C2355 0.950 . S
H2335 C2358 0.950 . S
H2336 C2359 0.950 . S
H2337 C2361 0.950 . S
H2338 C2362 0.950 . S
H2339 C2363 0.951 . S
H2340 C2365 0.951 . S
H2341 C2367 0.950 . S
H2342 C2368 0.950 . S
H2343 C2370 0.950 . S
H2344 C2373 0.950 . S
H2345 C2374 0.950 . S
H2346 C2376 0.950 . S
H2347 C2377 0.950 . S
C2348 H2330 0.951 . S
C2348 C2349 1.366 . S
C2348 C2350 1.388 . S
C2349 C2348 1.366 . S
C2349 C2353 1.385 . S
C2350 H2331 0.951 . S
C2350 C2348 1.388 . S
C2350 C2351 1.366 . S
C2351 C2350 1.366 . S
C2351 C2352 1.414 . S
C2351 C2354 1.499 . S
C2352 H2332 0.950 . S
C2352 C2351 1.414 . S
C2352 C2353 1.374 . S
C2353 H2333 0.950 . S
C2353 C2349 1.385 . S
C2353 C2352 1.374 . S
C2354 C2351 1.499 . S
C2354 C2355 1.373 . S
C2354 C2356 1.389 . S
C2355 H2334 0.950 . S
C2355 C2354 1.373 . S
C2355 C2371 1.377 . S
C2356 C2354 1.389 . S
C2356 C2357 1.524 . S
C2356 C2370 1.377 . S
C2357 C2356 1.524 . S
C2357 C2358 1.397 . S
C2357 C2362 1.363 . S
C2358 H2335 0.950 . S
C2358 C2357 1.397 . S
C2358 C2359 1.334 . S
C2359 H2336 0.950 . S
C2359 C2358 1.334 . S
C2359 C2360 1.287 . S
C2360 C2359 1.287 . S
C2360 C2361 1.524 . S
C2360 H2379 0.913 . S
C2361 H2337 0.950 . S
C2361 C2360 1.524 . S
C2361 C2362 1.415 . S
C2362 H2338 0.950 . S
C2362 C2357 1.363 . S
C2362 C2361 1.415 . S
C2363 H2339 0.951 . S
C2363 C2364 1.366 . S
C2363 C2365 1.388 . S
C2364 C2363 1.366 . S
C2364 C2368 1.385 . S
C2365 H2340 0.951 . S
C2365 C2363 1.388 . S
C2365 C2366 1.366 . S
C2366 C2365 1.366 . S
C2366 C2367 1.414 . S
C2366 C2369 1.499 . S
C2367 H2341 0.950 . S
C2367 C2366 1.414 . S
C2367 C2368 1.374 . S
C2368 H2342 0.950 . S
C2368 C2364 1.385 . S
C2368 C2367 1.374 . S
C2369 C2366 1.499 . S
C2369 C2370 1.373 . S
C2369 C2371 1.389 . S
C2370 H2343 0.950 . S
C2370 C2356 1.377 . S
C2370 C2369 1.373 . S
C2371 C2355 1.377 . S
C2371 C2369 1.389 . S
C2371 C2372 1.524 . S
C2372 C2371 1.524 . S
C2372 C2373 1.397 . S
C2372 C2377 1.363 . S
C2373 H2344 0.950 . S
C2373 C2372 1.397 . S
C2373 C2374 1.334 . S
C2374 H2345 0.950 . S
C2374 C2373 1.334 . S
C2374 C2375 1.287 . S
C2375 C2374 1.287 . S
C2375 C2376 1.524 . S
C2375 H2378 0.999 . S
C2376 H2346 0.950 . S
C2376 C2375 1.524 . S
C2376 C2377 1.415 . S
C2377 H2347 0.950 . S
C2377 C2372 1.363 . S
C2377 C2376 1.415 . S
H2378 C2375 0.999 . S
H2379 C2360 0.913 . S
H2380 C2398 0.951 . S
H2381 C2400 0.951 . S
H2382 C2402 0.950 . S
H2383 C2403 0.950 . S
H2384 C2405 0.950 . S
H2385 C2408 0.950 . S
H2386 C2409 0.950 . S
H2387 C2411 0.950 . S
H2388 C2412 0.950 . S
H2389 C2413 0.951 . S
H2390 C2415 0.951 . S
H2391 C2417 0.950 . S
H2392 C2418 0.950 . S
H2393 C2420 0.950 . S
H2394 C2423 0.950 . S
H2395 C2424 0.950 . S
H2396 C2426 0.950 . S
H2397 C2427 0.950 . S
C2398 H2380 0.951 . S
C2398 C2399 1.366 . S
C2398 C2400 1.388 . S
C2399 C2398 1.366 . S
C2399 C2403 1.385 . S
C2400 H2381 0.951 . S
C2400 C2398 1.388 . S
C2400 C2401 1.366 . S
C2401 C2400 1.366 . S
C2401 C2402 1.414 . S
C2401 C2404 1.499 . S
C2402 H2382 0.950 . S
C2402 C2401 1.414 . S
C2402 C2403 1.374 . S
C2403 H2383 0.950 . S
C2403 C2399 1.385 . S
C2403 C2402 1.374 . S
C2404 C2401 1.499 . S
C2404 C2405 1.373 . S
C2404 C2406 1.389 . S
C2405 H2384 0.950 . S
C2405 C2404 1.373 . S
C2405 C2421 1.377 . S
C2406 C2404 1.389 . S
C2406 C2407 1.524 . S
C2406 C2420 1.377 . S
C2407 C2406 1.524 . S
C2407 C2408 1.397 . S
C2407 C2412 1.363 1_545 S
C2408 H2385 0.950 . S
C2408 C2407 1.397 . S
C2408 C2409 1.334 . S
C2409 H2386 0.950 . S
C2409 C2408 1.334 . S
C2409 C2410 1.287 1_545 S
C2410 C2409 1.287 1_565 S
C2410 C2411 1.524 . S
C2410 H2429 0.913 . S
C2411 H2387 0.950 . S
C2411 C2410 1.524 . S
C2411 C2412 1.415 . S
C2412 H2388 0.950 . S
C2412 C2407 1.363 1_565 S
C2412 C2411 1.415 . S
C2413 H2389 0.951 . S
C2413 C2414 1.366 . S
C2413 C2415 1.388 . S
C2414 C2413 1.366 . S
C2414 C2418 1.385 . S
C2415 H2390 0.951 . S
C2415 C2413 1.388 . S
C2415 C2416 1.366 . S
C2416 C2415 1.366 . S
C2416 C2417 1.414 . S
C2416 C2419 1.499 . S
C2417 H2391 0.950 . S
C2417 C2416 1.414 . S
C2417 C2418 1.374 . S
C2418 H2392 0.950 . S
C2418 C2414 1.385 . S
C2418 C2417 1.374 . S
C2419 C2416 1.499 . S
C2419 C2420 1.373 . S
C2419 C2421 1.389 . S
C2420 H2393 0.950 . S
C2420 C2406 1.377 . S
C2420 C2419 1.373 . S
C2421 C2405 1.377 . S
C2421 C2419 1.389 . S
C2421 C2422 1.524 . S
C2422 C2421 1.524 . S
C2422 C2423 1.397 . S
C2422 C2427 1.363 . S
C2423 H2394 0.950 . S
C2423 C2422 1.397 . S
C2423 C2424 1.334 . S
C2424 H2395 0.950 . S
C2424 C2423 1.334 . S
C2424 C2425 1.287 . S
C2425 C2424 1.287 . S
C2425 C2426 1.524 . S
C2425 H2428 0.999 . S
C2426 H2396 0.950 . S
C2426 C2425 1.524 . S
C2426 C2427 1.415 . S
C2427 H2397 0.950 . S
C2427 C2422 1.363 . S
C2427 C2426 1.415 . S
H2428 C2425 0.999 . S
H2429 C2410 0.913 . S
H2430 C2448 0.951 . S
H2431 C2450 0.951 . S
H2432 C2452 0.950 . S
H2433 C2453 0.950 . S
H2434 C2455 0.950 . S
H2435 C2458 0.950 . S
H2436 C2459 0.950 . S
H2437 C2461 0.950 . S
H2438 C2462 0.950 . S
H2439 C2463 0.951 . S
H2440 C2465 0.951 . S
H2441 C2467 0.950 . S
H2442 C2468 0.950 . S
H2443 C2470 0.950 . S
H2444 C2473 0.950 . S
H2445 C2474 0.950 . S
H2446 C2476 0.950 . S
H2447 C2477 0.950 . S
C2448 H2430 0.951 . S
C2448 C2449 1.366 . S
C2448 C2450 1.388 . S
C2449 C2448 1.366 . S
C2449 C2453 1.385 . S
C2450 H2431 0.951 . S
C2450 C2448 1.388 . S
C2450 C2451 1.366 . S
C2451 C2450 1.366 . S
C2451 C2452 1.414 . S
C2451 C2454 1.499 . S
C2452 H2432 0.950 . S
C2452 C2451 1.414 . S
C2452 C2453 1.374 . S
C2453 H2433 0.950 . S
C2453 C2449 1.385 . S
C2453 C2452 1.374 . S
C2454 C2451 1.499 . S
C2454 C2455 1.373 . S
C2454 C2456 1.389 . S
C2455 H2434 0.950 . S
C2455 C2454 1.373 . S
C2455 C2471 1.377 . S
C2456 C2454 1.389 . S
C2456 C2457 1.524 . S
C2456 C2470 1.377 . S
C2457 C2456 1.524 . S
C2457 C2458 1.397 . S
C2457 C2462 1.363 . S
C2458 H2435 0.950 . S
C2458 C2457 1.397 . S
C2458 C2459 1.334 . S
C2459 H2436 0.950 . S
C2459 C2458 1.334 . S
C2459 C2460 1.287 . S
C2460 C2459 1.287 . S
C2460 C2461 1.524 . S
C2460 H2479 0.913 . S
C2461 H2437 0.950 . S
C2461 C2460 1.524 . S
C2461 C2462 1.415 . S
C2462 H2438 0.950 . S
C2462 C2457 1.363 . S
C2462 C2461 1.415 . S
C2463 H2439 0.951 . S
C2463 C2464 1.366 . S
C2463 C2465 1.388 . S
C2464 C2463 1.366 . S
C2464 C2468 1.385 . S
C2465 H2440 0.951 . S
C2465 C2463 1.388 . S
C2465 C2466 1.366 . S
C2466 C2465 1.366 . S
C2466 C2467 1.414 . S
C2466 C2469 1.499 . S
C2467 H2441 0.950 . S
C2467 C2466 1.414 . S
C2467 C2468 1.374 . S
C2468 H2442 0.950 . S
C2468 C2464 1.385 . S
C2468 C2467 1.374 . S
C2469 C2466 1.499 . S
C2469 C2470 1.373 . S
C2469 C2471 1.389 . S
C2470 H2443 0.950 . S
C2470 C2456 1.377 . S
C2470 C2469 1.373 . S
C2471 C2455 1.377 . S
C2471 C2469 1.389 . S
C2471 C2472 1.524 . S
C2472 C2471 1.524 . S
C2472 C2473 1.397 . S
C2472 C2477 1.363 . S
C2473 H2444 0.950 . S
C2473 C2472 1.397 . S
C2473 C2474 1.334 . S
C2474 H2445 0.950 . S
C2474 C2473 1.334 . S
C2474 C2475 1.287 . S
C2475 C2474 1.287 . S
C2475 C2476 1.524 . S
C2475 H2478 0.999 . S
C2476 H2446 0.950 . S
C2476 C2475 1.524 . S
C2476 C2477 1.415 . S
C2477 H2447 0.950 . S
C2477 C2472 1.363 . S
C2477 C2476 1.415 . S
H2478 C2475 0.999 . S
H2479 C2460 0.913 . S
H2480 C2498 0.951 . S
H2481 C2500 0.951 . S
H2482 C2502 0.950 . S
H2483 C2503 0.950 . S
H2484 C2505 0.950 . S
H2485 C2508 0.950 . S
H2486 C2509 0.950 . S
H2487 C2511 0.950 . S
H2488 C2512 0.950 . S
H2489 C2513 0.951 . S
H2490 C2515 0.951 . S
H2491 C2517 0.950 . S
H2492 C2518 0.950 . S
H2493 C2520 0.950 . S
H2494 C2523 0.950 . S
H2495 C2524 0.950 . S
H2496 C2526 0.950 . S
H2497 C2527 0.950 1_556 S
C2498 H2480 0.951 . S
C2498 C2499 1.371 . S
C2498 C2500 1.388 . S
C2499 C2498 1.371 . S
C2499 C2503 1.381 1_554 S
C2500 H2481 0.951 . S
C2500 C2498 1.388 . S
C2500 C2501 1.366 . S
C2501 C2500 1.366 . S
C2501 C2502 1.414 1_554 S
C2501 C2504 1.499 . S
C2502 H2482 0.950 . S
C2502 C2501 1.414 1_556 S
C2502 C2503 1.374 . S
C2503 H2483 0.950 . S
C2503 C2499 1.381 1_556 S
C2503 C2502 1.374 . S
C2504 C2501 1.499 . S
C2504 C2505 1.373 . S
C2504 C2506 1.389 . S
C2505 H2484 0.950 . S
C2505 C2504 1.373 . S
C2505 C2521 1.377 . S
C2506 C2504 1.389 . S
C2506 C2507 1.524 . S
C2506 C2520 1.377 . S
C2507 C2506 1.524 . S
C2507 C2508 1.397 1_554 S
C2507 C2512 1.363 . S
C2508 H2485 0.950 . S
C2508 C2507 1.397 1_556 S
C2508 C2509 1.334 . S
C2509 H2486 0.950 . S
C2509 C2508 1.334 . S
C2509 C2510 1.287 . S
C2510 C2509 1.287 . S
C2510 C2511 1.524 1_556 S
C2510 H2529 0.913 . S
C2511 H2487 0.950 . S
C2511 C2510 1.524 1_554 S
C2511 C2512 1.415 . S
C2512 H2488 0.950 . S
C2512 C2507 1.363 . S
C2512 C2511 1.415 . S
C2513 H2489 0.951 . S
C2513 C2514 1.366 1_545 S
C2513 C2515 1.388 1_545 S
C2514 C2513 1.366 1_565 S
C2514 C2518 1.385 . S
C2515 H2490 0.951 . S
C2515 C2513 1.388 1_565 S
C2515 C2516 1.366 . S
C2516 C2515 1.366 . S
C2516 C2517 1.414 . S
C2516 C2519 1.499 . S
C2517 H2491 0.950 . S
C2517 C2516 1.414 . S
C2517 C2518 1.374 . S
C2518 H2492 0.950 . S
C2518 C2514 1.385 . S
C2518 C2517 1.374 . S
C2519 C2516 1.499 . S
C2519 C2520 1.373 . S
C2519 C2521 1.389 . S
C2520 H2493 0.950 . S
C2520 C2506 1.377 . S
C2520 C2519 1.373 . S
C2521 C2505 1.377 . S
C2521 C2519 1.389 . S
C2521 C2522 1.524 1_565 S
C2522 C2521 1.524 1_545 S
C2522 C2523 1.397 . S
C2522 C2527 1.363 . S
C2523 H2494 0.950 . S
C2523 C2522 1.397 . S
C2523 C2524 1.334 . S
C2524 H2495 0.950 . S
C2524 C2523 1.334 . S
C2524 C2525 1.287 . S
C2525 C2524 1.287 . S
C2525 C2526 1.524 . S
C2525 H2528 0.999 . S
C2526 H2496 0.950 . S
C2526 C2525 1.524 . S
C2526 C2527 1.415 . S
C2527 H2497 0.950 1_554 S
C2527 C2522 1.363 . S
C2527 C2526 1.415 . S
H2528 C2525 0.999 . S
H2529 C2510 0.913 . S
H2530 C2548 0.951 . S
H2531 C2550 0.951 . S
H2532 C2552 0.950 . S
H2533 C2553 0.950 . S
H2534 C2555 0.950 . S
H2535 C2558 0.950 . S
H2536 C2559 0.950 . S
H2537 C2561 0.950 . S
H2538 C2562 0.950 . S
H2539 C2563 0.951 . S
H2540 C2565 0.951 . S
H2541 C2567 0.950 . S
H2542 C2568 0.950 . S
H2543 C2570 0.950 . S
H2544 C2573 0.950 . S
H2545 C2574 0.950 . S
H2546 C2576 0.950 . S
H2547 C2577 0.950 . S
C2548 H2530 0.951 . S
C2548 C2549 1.366 1_556 S
C2548 C2550 1.388 . S
C2549 C2548 1.366 1_554 S
C2549 C2553 1.385 . S
C2550 H2531 0.951 . S
C2550 C2548 1.388 . S
C2550 C2551 1.366 1_556 S
C2551 C2550 1.366 1_554 S
C2551 C2552 1.414 . S
C2551 C2554 1.499 . S
C2552 H2532 0.950 . S
C2552 C2551 1.414 . S
C2552 C2553 1.374 . S
C2553 H2533 0.950 . S
C2553 C2549 1.385 . S
C2553 C2552 1.374 . S
C2554 C2551 1.499 . S
C2554 C2555 1.373 . S
C2554 C2556 1.389 1_554 S
C2555 H2534 0.950 . S
C2555 C2554 1.373 . S
C2555 C2571 1.377 . S
C2556 C2554 1.389 1_556 S
C2556 C2557 1.524 . S
C2556 C2570 1.377 . S
C2557 C2556 1.524 . S
C2557 C2558 1.397 . S
C2557 C2562 1.363 . S
C2558 H2535 0.950 . S
C2558 C2557 1.397 . S
C2558 C2559 1.334 . S
C2559 H2536 0.950 . S
C2559 C2558 1.334 . S
C2559 C2560 1.287 . S
C2560 C2559 1.287 . S
C2560 C2561 1.524 . S
C2560 H2579 0.913 . S
C2561 H2537 0.950 . S
C2561 C2560 1.524 . S
C2561 C2562 1.415 . S
C2562 H2538 0.950 . S
C2562 C2557 1.363 . S
C2562 C2561 1.415 . S
C2563 H2539 0.951 . S
C2563 C2564 1.366 . S
C2563 C2565 1.388 . S
C2564 C2563 1.366 . S
C2564 C2568 1.385 1_554 S
C2565 H2540 0.951 . S
C2565 C2563 1.388 . S
C2565 C2566 1.366 . S
C2566 C2565 1.366 . S
C2566 C2567 1.414 1_554 S
C2566 C2569 1.499 . S
C2567 H2541 0.950 . S
C2567 C2566 1.414 1_556 S
C2567 C2568 1.374 . S
C2568 H2542 0.950 . S
C2568 C2564 1.385 1_556 S
C2568 C2567 1.374 . S
C2569 C2566 1.499 . S
C2569 C2570 1.373 1_554 S
C2569 C2571 1.389 . S
C2570 H2543 0.950 . S
C2570 C2556 1.377 . S
C2570 C2569 1.373 1_556 S
C2571 C2555 1.377 . S
C2571 C2569 1.389 . S
C2571 C2572 1.524 . S
C2572 C2571 1.524 . S
C2572 C2573 1.397 . S
C2572 C2577 1.363 . S
C2573 H2544 0.950 . S
C2573 C2572 1.397 . S
C2573 C2574 1.334 . S
C2574 H2545 0.950 . S
C2574 C2573 1.334 . S
C2574 C2575 1.287 . S
C2575 C2574 1.287 . S
C2575 C2576 1.524 . S
C2575 H2578 0.999 . S
C2576 H2546 0.950 . S
C2576 C2575 1.524 . S
C2576 C2577 1.415 . S
C2577 H2547 0.950 . S
C2577 C2572 1.363 . S
C2577 C2576 1.415 . S
H2578 C2575 0.999 . S
H2579 C2560 0.913 . S
H2580 C2598 0.951 . S
H2581 C2600 0.951 . S
H2582 C2602 0.950 . S
H2583 C2603 0.950 . S
H2584 C2605 0.950 . S
H2585 C2608 0.950 . S
H2586 C2609 0.950 . S
H2587 C2611 0.950 . S
H2588 C2612 0.950 . S
H2589 C2613 0.951 . S
H2590 C2615 0.951 . S
H2591 C2617 0.950 . S
H2592 C2618 0.950 . S
H2593 C2620 0.950 . S
H2594 C2623 0.950 . S
H2595 C2624 0.950 . S
H2596 C2626 0.950 . S
H2597 C2627 0.950 . S
C2598 H2580 0.951 . S
C2598 C2599 1.366 . S
C2598 C2600 1.388 . S
C2599 C2598 1.366 . S
C2599 C2603 1.385 . S
C2600 H2581 0.951 . S
C2600 C2598 1.388 . S
C2600 C2601 1.366 . S
C2601 C2600 1.366 . S
C2601 C2602 1.414 . S
C2601 C2604 1.499 . S
C2602 H2582 0.950 . S
C2602 C2601 1.414 . S
C2602 C2603 1.374 . S
C2603 H2583 0.950 . S
C2603 C2599 1.385 . S
C2603 C2602 1.374 . S
C2604 C2601 1.499 . S
C2604 C2605 1.373 . S
C2604 C2606 1.389 . S
C2605 H2584 0.950 . S
C2605 C2604 1.373 . S
C2605 C2621 1.377 . S
C2606 C2604 1.389 . S
C2606 C2607 1.524 . S
C2606 C2620 1.377 . S
C2607 C2606 1.524 . S
C2607 C2608 1.397 . S
C2607 C2612 1.363 . S
C2608 H2585 0.950 . S
C2608 C2607 1.397 . S
C2608 C2609 1.334 . S
C2609 H2586 0.950 . S
C2609 C2608 1.334 . S
C2609 C2610 1.287 . S
C2610 C2609 1.287 . S
C2610 C2611 1.524 . S
C2610 H2629 0.913 . S
C2611 H2587 0.950 . S
C2611 C2610 1.524 . S
C2611 C2612 1.415 . S
C2612 H2588 0.950 . S
C2612 C2607 1.363 . S
C2612 C2611 1.415 . S
C2613 H2589 0.951 . S
C2613 C2614 1.366 . S
C2613 C2615 1.388 . S
C2614 C2613 1.366 . S
C2614 C2618 1.385 . S
C2615 H2590 0.951 . S
C2615 C2613 1.388 . S
C2615 C2616 1.366 . S
C2616 C2615 1.366 . S
C2616 C2617 1.414 . S
C2616 C2619 1.499 . S
C2617 H2591 0.950 . S
C2617 C2616 1.414 . S
C2617 C2618 1.374 . S
C2618 H2592 0.950 . S
C2618 C2614 1.385 . S
C2618 C2617 1.374 . S
C2619 C2616 1.499 . S
C2619 C2620 1.373 . S
C2619 C2621 1.389 . S
C2620 H2593 0.950 . S
C2620 C2606 1.377 . S
C2620 C2619 1.373 . S
C2621 C2605 1.377 . S
C2621 C2619 1.389 . S
C2621 C2622 1.524 . S
C2622 C2621 1.524 . S
C2622 C2623 1.397 . S
C2622 C2627 1.363 . S
C2623 H2594 0.950 . S
C2623 C2622 1.397 . S
C2623 C2624 1.334 . S
C2624 H2595 0.950 . S
C2624 C2623 1.334 . S
C2624 C2625 1.287 . S
C2625 C2624 1.287 . S
C2625 C2626 1.524 . S
C2625 H2628 0.999 . S
C2626 H2596 0.950 . S
C2626 C2625 1.524 . S
C2626 C2627 1.415 . S
C2627 H2597 0.950 . S
C2627 C2622 1.363 . S
C2627 C2626 1.415 . S
H2628 C2625 0.999 . S
H2629 C2610 0.913 . S
H2630 C2648 0.951 . S
H2631 C2650 0.951 . S
H2632 C2652 0.950 . S
H2633 C2653 0.950 . S
H2634 C2655 0.950 . S
H2635 C2658 0.950 . S
H2636 C2659 0.950 . S
H2637 C2661 0.950 . S
H2638 C2662 0.950 . S
H2639 C2663 0.951 . S
H2640 C2665 0.951 . S
H2641 C2667 0.950 . S
H2642 C2668 0.950 . S
H2643 C2670 0.950 . S
H2644 C2673 0.950 . S
H2645 C2674 0.950 . S
H2646 C2676 0.950 . S
H2647 C2677 0.950 . S
C2648 H2630 0.951 . S
C2648 C2649 1.366 . S
C2648 C2650 1.388 . S
C2649 C2648 1.366 . S
C2649 C2653 1.385 . S
C2650 H2631 0.951 . S
C2650 C2648 1.388 . S
C2650 C2651 1.366 . S
C2651 C2650 1.366 . S
C2651 C2652 1.414 . S
C2651 C2654 1.499 . S
C2652 H2632 0.950 . S
C2652 C2651 1.414 . S
C2652 C2653 1.374 . S
C2653 H2633 0.950 . S
C2653 C2649 1.385 . S
C2653 C2652 1.374 . S
C2654 C2651 1.499 . S
C2654 C2655 1.373 . S
C2654 C2656 1.389 . S
C2655 H2634 0.950 . S
C2655 C2654 1.373 . S
C2655 C2671 1.377 . S
C2656 C2654 1.389 . S
C2656 C2657 1.524 . S
C2656 C2670 1.377 . S
C2657 C2656 1.524 . S
C2657 C2658 1.397 . S
C2657 C2662 1.363 . S
C2658 H2635 0.950 . S
C2658 C2657 1.397 . S
C2658 C2659 1.334 . S
C2659 H2636 0.950 . S
C2659 C2658 1.334 . S
C2659 C2660 1.287 . S
C2660 C2659 1.287 . S
C2660 C2661 1.524 . S
C2660 H2679 0.913 . S
C2661 H2637 0.950 . S
C2661 C2660 1.524 . S
C2661 C2662 1.415 . S
C2662 H2638 0.950 . S
C2662 C2657 1.363 . S
C2662 C2661 1.415 . S
C2663 H2639 0.951 . S
C2663 C2664 1.366 . S
C2663 C2665 1.388 . S
C2664 C2663 1.366 . S
C2664 C2668 1.385 . S
C2665 H2640 0.951 . S
C2665 C2663 1.388 . S
C2665 C2666 1.366 . S
C2666 C2665 1.366 . S
C2666 C2667 1.414 . S
C2666 C2669 1.499 . S
C2667 H2641 0.950 . S
C2667 C2666 1.414 . S
C2667 C2668 1.374 . S
C2668 H2642 0.950 . S
C2668 C2664 1.385 . S
C2668 C2667 1.374 . S
C2669 C2666 1.499 . S
C2669 C2670 1.373 . S
C2669 C2671 1.389 . S
C2670 H2643 0.950 . S
C2670 C2656 1.377 . S
C2670 C2669 1.373 . S
C2671 C2655 1.377 . S
C2671 C2669 1.389 . S
C2671 C2672 1.524 . S
C2672 C2671 1.524 . S
C2672 C2673 1.397 . S
C2672 C2677 1.363 . S
C2673 H2644 0.950 . S
C2673 C2672 1.397 . S
C2673 C2674 1.334 . S
C2674 H2645 0.950 . S
C2674 C2673 1.334 . S
C2674 C2675 1.287 . S
C2675 C2674 1.287 . S
C2675 C2676 1.524 . S
C2675 H2678 0.999 . S
C2676 H2646 0.950 . S
C2676 C2675 1.524 . S
C2676 C2677 1.415 . S
C2677 H2647 0.950 . S
C2677 C2672 1.363 . S
C2677 C2676 1.415 . S
H2678 C2675 0.999 . S
H2679 C2660 0.913 . S
H2680 C2698 0.951 . S
H2681 C2700 0.951 . S
H2682 C2702 0.950 . S
H2683 C2703 0.950 . S
H2684 C2705 0.950 . S
H2685 C2708 0.950 . S
H2686 C2709 0.950 . S
H2687 C2711 0.950 . S
H2688 C2712 0.950 . S
H2689 C2713 0.951 . S
H2690 C2715 0.951 . S
H2691 C2717 0.950 . S
H2692 C2718 0.950 . S
H2693 C2720 0.950 . S
H2694 C2723 0.950 . S
H2695 C2724 0.950 . S
H2696 C2726 0.950 . S
H2697 C2727 0.950 . S
C2698 H2680 0.951 . S
C2698 C2699 1.366 . S
C2698 C2700 1.388 . S
C2699 C2698 1.366 . S
C2699 C2703 1.385 . S
C2700 H2681 0.951 . S
C2700 C2698 1.388 . S
C2700 C2701 1.366 . S
C2701 C2700 1.366 . S
C2701 C2702 1.414 . S
C2701 C2704 1.499 . S
C2702 H2682 0.950 . S
C2702 C2701 1.414 . S
C2702 C2703 1.374 . S
C2703 H2683 0.950 . S
C2703 C2699 1.385 . S
C2703 C2702 1.374 . S
C2704 C2701 1.499 . S
C2704 C2705 1.373 . S
C2704 C2706 1.389 . S
C2705 H2684 0.950 . S
C2705 C2704 1.373 . S
C2705 C2721 1.377 . S
C2706 C2704 1.389 . S
C2706 C2707 1.524 . S
C2706 C2720 1.377 . S
C2707 C2706 1.524 . S
C2707 C2708 1.397 . S
C2707 C2712 1.363 . S
C2708 H2685 0.950 . S
C2708 C2707 1.397 . S
C2708 C2709 1.334 . S
C2709 H2686 0.950 . S
C2709 C2708 1.334 . S
C2709 C2710 1.287 . S
C2710 C2709 1.287 . S
C2710 C2711 1.524 . S
C2710 H2729 0.913 . S
C2711 H2687 0.950 . S
C2711 C2710 1.524 . S
C2711 C2712 1.415 . S
C2712 H2688 0.950 . S
C2712 C2707 1.363 . S
C2712 C2711 1.415 . S
C2713 H2689 0.951 . S
C2713 C2714 1.366 . S
C2713 C2715 1.388 . S
C2714 C2713 1.366 . S
C2714 C2718 1.385 . S
C2715 H2690 0.951 . S
C2715 C2713 1.388 . S
C2715 C2716 1.366 . S
C2716 C2715 1.366 . S
C2716 C2717 1.414 . S
C2716 C2719 1.499 . S
C2717 H2691 0.950 . S
C2717 C2716 1.414 . S
C2717 C2718 1.374 . S
C2718 H2692 0.950 . S
C2718 C2714 1.385 . S
C2718 C2717 1.374 . S
C2719 C2716 1.499 . S
C2719 C2720 1.373 . S
C2719 C2721 1.389 . S
C2720 H2693 0.950 . S
C2720 C2706 1.377 . S
C2720 C2719 1.373 . S
C2721 C2705 1.377 . S
C2721 C2719 1.389 . S
C2721 C2722 1.524 . S
C2722 C2721 1.524 . S
C2722 C2723 1.397 . S
C2722 C2727 1.363 . S
C2723 H2694 0.950 . S
C2723 C2722 1.397 . S
C2723 C2724 1.334 . S
C2724 H2695 0.950 . S
C2724 C2723 1.334 . S
C2724 C2725 1.287 . S
C2725 C2724 1.287 . S
C2725 C2726 1.524 . S
C2725 H2728 0.999 . S
C2726 H2696 0.950 . S
C2726 C2725 1.524 . S
C2726 C2727 1.415 . S
C2727 H2697 0.950 . S
C2727 C2722 1.363 . S
C2727 C2726 1.415 . S
H2728 C2725 0.999 . S
H2729 C2710 0.913 . S
H2730 C2748 0.951 . S
H2731 C2750 0.951 . S
H2732 C2752 0.950 . S
H2733 C2753 0.950 . S
H2734 C2755 0.950 . S
H2735 C2758 0.950 . S
H2736 C2759 0.950 . S
H2737 C2761 0.950 . S
H2738 C2762 0.950 . S
H2739 C2763 0.951 . S
H2740 C2765 0.951 . S
H2741 C2767 0.950 . S
H2742 C2768 0.950 . S
H2743 C2770 0.950 . S
H2744 C2773 0.950 . S
H2745 C2774 0.950 . S
H2746 C2776 0.950 . S
H2747 C2777 0.950 . S
C2748 H2730 0.951 . S
C2748 C2749 1.366 . S
C2748 C2750 1.388 . S
C2749 C2748 1.366 . S
C2749 C2753 1.385 . S
C2750 H2731 0.951 . S
C2750 C2748 1.388 . S
C2750 C2751 1.366 . S
C2751 C2750 1.366 . S
C2751 C2752 1.414 . S
C2751 C2754 1.499 . S
C2752 H2732 0.950 . S
C2752 C2751 1.414 . S
C2752 C2753 1.374 . S
C2753 H2733 0.950 . S
C2753 C2749 1.385 . S
C2753 C2752 1.374 . S
C2754 C2751 1.499 . S
C2754 C2755 1.373 . S
C2754 C2756 1.389 . S
C2755 H2734 0.950 . S
C2755 C2754 1.373 . S
C2755 C2771 1.377 . S
C2756 C2754 1.389 . S
C2756 C2757 1.524 . S
C2756 C2770 1.377 . S
C2757 C2756 1.524 . S
C2757 C2758 1.397 . S
C2757 C2762 1.363 . S
C2758 H2735 0.950 . S
C2758 C2757 1.397 . S
C2758 C2759 1.334 . S
C2759 H2736 0.950 . S
C2759 C2758 1.334 . S
C2759 C2760 1.287 . S
C2760 C2759 1.287 . S
C2760 C2761 1.524 . S
C2760 H2779 0.913 . S
C2761 H2737 0.950 . S
C2761 C2760 1.524 . S
C2761 C2762 1.415 . S
C2762 H2738 0.950 . S
C2762 C2757 1.363 . S
C2762 C2761 1.415 . S
C2763 H2739 0.951 . S
C2763 C2764 1.366 . S
C2763 C2765 1.388 . S
C2764 C2763 1.366 . S
C2764 C2768 1.385 . S
C2765 H2740 0.951 . S
C2765 C2763 1.388 . S
C2765 C2766 1.366 . S
C2766 C2765 1.366 . S
C2766 C2767 1.414 . S
C2766 C2769 1.499 . S
C2767 H2741 0.950 . S
C2767 C2766 1.414 . S
C2767 C2768 1.374 . S
C2768 H2742 0.950 . S
C2768 C2764 1.385 . S
C2768 C2767 1.374 . S
C2769 C2766 1.499 . S
C2769 C2770 1.373 . S
C2769 C2771 1.389 . S
C2770 H2743 0.950 . S
C2770 C2756 1.377 . S
C2770 C2769 1.373 . S
C2771 C2755 1.377 . S
C2771 C2769 1.389 . S
C2771 C2772 1.524 . S
C2772 C2771 1.524 . S
C2772 C2773 1.397 . S
C2772 C2777 1.363 . S
C2773 H2744 0.950 . S
C2773 C2772 1.397 . S
C2773 C2774 1.334 . S
C2774 H2745 0.950 . S
C2774 C2773 1.334 . S
C2774 C2775 1.287 . S
C2775 C2774 1.287 . S
C2775 C2776 1.524 . S
C2775 H2778 0.999 . S
C2776 H2746 0.950 . S
C2776 C2775 1.524 . S
C2776 C2777 1.415 . S
C2777 H2747 0.950 . S
C2777 C2772 1.363 . S
C2777 C2776 1.415 . S
H2778 C2775 0.999 . S
H2779 C2760 0.913 . S
H2780 C2798 0.951 . S
H2781 C2800 0.951 . S
H2782 C2802 0.950 . S
H2783 C2803 0.950 . S
H2784 C2805 0.950 . S
H2785 C2808 0.950 . S
H2786 C2809 0.950 . S
H2787 C2811 0.950 . S
H2788 C2812 0.950 . S
H2789 C2813 0.951 . S
H2790 C2815 0.951 . S
H2791 C2817 0.950 . S
H2792 C2818 0.950 . S
H2793 C2820 0.950 . S
H2794 C2823 0.950 . S
H2795 C2824 0.950 . S
H2796 C2826 0.950 . S
H2797 C2827 0.950 . S
C2798 H2780 0.951 . S
C2798 C2799 1.366 . S
C2798 C2800 1.388 . S
C2799 C2798 1.366 . S
C2799 C2803 1.385 . S
C2800 H2781 0.951 . S
C2800 C2798 1.388 . S
C2800 C2801 1.366 . S
C2801 C2800 1.366 . S
C2801 C2802 1.414 . S
C2801 C2804 1.499 . S
C2802 H2782 0.950 . S
C2802 C2801 1.414 . S
C2802 C2803 1.374 . S
C2803 H2783 0.950 . S
C2803 C2799 1.385 . S
C2803 C2802 1.374 . S
C2804 C2801 1.499 . S
C2804 C2805 1.373 . S
C2804 C2806 1.389 . S
C2805 H2784 0.950 . S
C2805 C2804 1.373 . S
C2805 C2821 1.377 . S
C2806 C2804 1.389 . S
C2806 C2807 1.524 . S
C2806 C2820 1.377 . S
C2807 C2806 1.524 . S
C2807 C2808 1.397 . S
C2807 C2812 1.363 . S
C2808 H2785 0.950 . S
C2808 C2807 1.397 . S
C2808 C2809 1.334 . S
C2809 H2786 0.950 . S
C2809 C2808 1.334 . S
C2809 C2810 1.287 . S
C2810 C2809 1.287 . S
C2810 C2811 1.524 . S
C2810 H2829 0.913 . S
C2811 H2787 0.950 . S
C2811 C2810 1.524 . S
C2811 C2812 1.415 . S
C2812 H2788 0.950 . S
C2812 C2807 1.363 . S
C2812 C2811 1.415 . S
C2813 H2789 0.951 . S
C2813 C2814 1.366 . S
C2813 C2815 1.388 . S
C2814 C2813 1.366 . S
C2814 C2818 1.385 . S
C2815 H2790 0.951 . S
C2815 C2813 1.388 . S
C2815 C2816 1.366 . S
C2816 C2815 1.366 . S
C2816 C2817 1.414 . S
C2816 C2819 1.499 . S
C2817 H2791 0.950 . S
C2817 C2816 1.414 . S
C2817 C2818 1.374 . S
C2818 H2792 0.950 . S
C2818 C2814 1.385 . S
C2818 C2817 1.374 . S
C2819 C2816 1.499 . S
C2819 C2820 1.373 . S
C2819 C2821 1.389 . S
C2820 H2793 0.950 . S
C2820 C2806 1.377 . S
C2820 C2819 1.373 . S
C2821 C2805 1.377 . S
C2821 C2819 1.389 . S
C2821 C2822 1.524 . S
C2822 C2821 1.524 . S
C2822 C2823 1.397 . S
C2822 C2827 1.363 . S
C2823 H2794 0.950 . S
C2823 C2822 1.397 . S
C2823 C2824 1.334 . S
C2824 H2795 0.950 . S
C2824 C2823 1.334 . S
C2824 C2825 1.287 . S
C2825 C2824 1.287 . S
C2825 C2826 1.524 . S
C2825 H2828 0.999 . S
C2826 H2796 0.950 . S
C2826 C2825 1.524 . S
C2826 C2827 1.415 . S
C2827 H2797 0.950 . S
C2827 C2822 1.363 . S
C2827 C2826 1.415 . S
H2828 C2825 0.999 . S
H2829 C2810 0.913 . S
H2830 C2848 0.951 . S
H2831 C2850 0.951 . S
H2832 C2852 0.950 . S
H2833 C2853 0.950 . S
H2834 C2855 0.950 . S
H2835 C2858 0.950 . S
H2836 C2859 0.950 . S
H2837 C2861 0.950 . S
H2838 C2862 0.950 . S
H2839 C2863 0.951 . S
H2840 C2865 0.951 . S
H2841 C2867 0.950 . S
H2842 C2868 0.950 . S
H2843 C2870 0.950 . S
H2844 C2873 0.950 . S
H2845 C2874 0.950 . S
H2846 C2876 0.950 . S
H2847 C2877 0.950 . S
C2848 H2830 0.951 . S
C2848 C2849 1.366 . S
C2848 C2850 1.388 . S
C2849 C2848 1.366 . S
C2849 C2853 1.385 . S
C2850 H2831 0.951 . S
C2850 C2848 1.388 . S
C2850 C2851 1.366 . S
C2851 C2850 1.366 . S
C2851 C2852 1.414 . S
C2851 C2854 1.499 . S
C2852 H2832 0.950 . S
C2852 C2851 1.414 . S
C2852 C2853 1.374 . S
C2853 H2833 0.950 . S
C2853 C2849 1.385 . S
C2853 C2852 1.374 . S
C2854 C2851 1.499 . S
C2854 C2855 1.373 . S
C2854 C2856 1.389 . S
C2855 H2834 0.950 . S
C2855 C2854 1.373 . S
C2855 C2871 1.377 . S
C2856 C2854 1.389 . S
C2856 C2857 1.524 . S
C2856 C2870 1.377 . S
C2857 C2856 1.524 . S
C2857 C2858 1.397 . S
C2857 C2862 1.363 . S
C2858 H2835 0.950 . S
C2858 C2857 1.397 . S
C2858 C2859 1.334 . S
C2859 H2836 0.950 . S
C2859 C2858 1.334 . S
C2859 C2860 1.287 . S
C2860 C2859 1.287 . S
C2860 C2861 1.524 . S
C2860 H2879 0.913 . S
C2861 H2837 0.950 . S
C2861 C2860 1.524 . S
C2861 C2862 1.415 . S
C2862 H2838 0.950 . S
C2862 C2857 1.363 . S
C2862 C2861 1.415 . S
C2863 H2839 0.951 . S
C2863 C2864 1.366 . S
C2863 C2865 1.388 . S
C2864 C2863 1.366 . S
C2864 C2868 1.385 . S
C2865 H2840 0.951 . S
C2865 C2863 1.388 . S
C2865 C2866 1.366 . S
C2866 C2865 1.366 . S
C2866 C2867 1.414 . S
C2866 C2869 1.499 . S
C2867 H2841 0.950 . S
C2867 C2866 1.414 . S
C2867 C2868 1.374 . S
C2868 H2842 0.950 . S
C2868 C2864 1.385 . S
C2868 C2867 1.374 . S
C2869 C2866 1.499 . S
C2869 C2870 1.373 . S
C2869 C2871 1.389 . S
C2870 H2843 0.950 . S
C2870 C2856 1.377 . S
C2870 C2869 1.373 . S
C2871 C2855 1.377 . S
C2871 C2869 1.389 . S
C2871 C2872 1.524 . S
C2872 C2871 1.524 . S
C2872 C2873 1.397 . S
C2872 C2877 1.363 . S
C2873 H2844 0.950 . S
C2873 C2872 1.397 . S
C2873 C2874 1.334 . S
C2874 H2845 0.950 . S
C2874 C2873 1.334 . S
C2874 C2875 1.287 . S
C2875 C2874 1.287 . S
C2875 C2876 1.524 . S
C2875 H2878 0.999 . S
C2876 H2846 0.950 . S
C2876 C2875 1.524 . S
C2876 C2877 1.415 . S
C2877 H2847 0.950 . S
C2877 C2872 1.363 . S
C2877 C2876 1.415 . S
H2878 C2875 0.999 . S
H2879 C2860 0.913 . S
H2880 C2898 0.951 . S
H2881 C2900 0.951 . S
H2882 C2902 0.950 . S
H2883 C2903 0.950 . S
H2884 C2905 0.950 . S
H2885 C2908 0.950 . S
H2886 C2909 0.950 . S
H2887 C2911 0.950 . S
H2888 C2912 0.950 . S
H2889 C2913 0.951 . S
H2890 C2915 0.951 . S
H2891 C2917 0.950 . S
H2892 C2918 0.950 . S
H2893 C2920 0.950 . S
H2894 C2923 0.950 . S
H2895 C2924 0.950 . S
H2896 C2926 0.950 . S
H2897 C2927 0.950 . S
C2898 H2880 0.951 . S
C2898 C2899 1.366 . S
C2898 C2900 1.388 . S
C2899 C2898 1.366 . S
C2899 C2903 1.385 . S
C2900 H2881 0.951 . S
C2900 C2898 1.388 . S
C2900 C2901 1.366 . S
C2901 C2900 1.366 . S
C2901 C2902 1.414 . S
C2901 C2904 1.499 . S
C2902 H2882 0.950 . S
C2902 C2901 1.414 . S
C2902 C2903 1.374 . S
C2903 H2883 0.950 . S
C2903 C2899 1.385 . S
C2903 C2902 1.374 . S
C2904 C2901 1.499 . S
C2904 C2905 1.373 . S
C2904 C2906 1.389 . S
C2905 H2884 0.950 . S
C2905 C2904 1.373 . S
C2905 C2921 1.377 . S
C2906 C2904 1.389 . S
C2906 C2907 1.524 . S
C2906 C2920 1.377 . S
C2907 C2906 1.524 . S
C2907 C2908 1.397 . S
C2907 C2912 1.363 . S
C2908 H2885 0.950 . S
C2908 C2907 1.397 . S
C2908 C2909 1.334 . S
C2909 H2886 0.950 . S
C2909 C2908 1.334 . S
C2909 C2910 1.287 . S
C2910 C2909 1.287 . S
C2910 C2911 1.524 . S
C2910 H2929 0.913 . S
C2911 H2887 0.950 . S
C2911 C2910 1.524 . S
C2911 C2912 1.415 . S
C2912 H2888 0.950 . S
C2912 C2907 1.363 . S
C2912 C2911 1.415 . S
C2913 H2889 0.951 . S
C2913 C2914 1.366 . S
C2913 C2915 1.388 . S
C2914 C2913 1.366 . S
C2914 C2918 1.385 . S
C2915 H2890 0.951 . S
C2915 C2913 1.388 . S
C2915 C2916 1.366 . S
C2916 C2915 1.366 . S
C2916 C2917 1.414 . S
C2916 C2919 1.499 . S
C2917 H2891 0.950 . S
C2917 C2916 1.414 . S
C2917 C2918 1.374 . S
C2918 H2892 0.950 . S
C2918 C2914 1.385 . S
C2918 C2917 1.374 . S
C2919 C2916 1.499 . S
C2919 C2920 1.373 . S
C2919 C2921 1.389 . S
C2920 H2893 0.950 . S
C2920 C2906 1.377 . S
C2920 C2919 1.373 . S
C2921 C2905 1.377 . S
C2921 C2919 1.389 . S
C2921 C2922 1.524 . S
C2922 C2921 1.524 . S
C2922 C2923 1.397 . S
C2922 C2927 1.363 . S
C2923 H2894 0.950 . S
C2923 C2922 1.397 . S
C2923 C2924 1.334 . S
C2924 H2895 0.950 . S
C2924 C2923 1.334 . S
C2924 C2925 1.287 1_554 S
C2925 C2924 1.287 1_556 S
C2925 C2926 1.524 . S
C2925 H2928 0.999 . S
C2926 H2896 0.950 . S
C2926 C2925 1.524 . S
C2926 C2927 1.415 1_556 S
C2927 H2897 0.950 . S
C2927 C2922 1.363 . S
C2927 C2926 1.415 1_554 S
H2928 C2925 0.999 . S
H2929 C2910 0.913 . S
H2930 C2948 0.951 . S
H2931 C2950 0.951 . S
H2932 C2952 0.950 . S
H2933 C2953 0.950 . S
H2934 C2955 0.950 . S
H2935 C2958 0.950 . S
H2936 C2959 0.950 . S
H2937 C2961 0.950 . S
H2938 C2962 0.950 . S
H2939 C2963 0.951 . S
H2940 C2965 0.951 . S
H2941 C2967 0.950 . S
H2942 C2968 0.950 . S
H2943 C2970 0.950 . S
H2944 C2973 0.950 . S
H2945 C2974 0.950 . S
H2946 C2976 0.950 . S
H2947 C2977 0.950 . S
C2948 H2930 0.951 . S
C2948 C2949 1.366 . S
C2948 C2950 1.388 . S
C2949 C2948 1.366 . S
C2949 C2953 1.385 . S
C2950 H2931 0.951 . S
C2950 C2948 1.388 . S
C2950 C2951 1.366 . S
C2951 C2950 1.366 . S
C2951 C2952 1.414 . S
C2951 C2954 1.499 . S
C2952 H2932 0.950 . S
C2952 C2951 1.414 . S
C2952 C2953 1.374 . S
C2953 H2933 0.950 . S
C2953 C2949 1.385 . S
C2953 C2952 1.374 . S
C2954 C2951 1.499 . S
C2954 C2955 1.373 . S
C2954 C2956 1.389 . S
C2955 H2934 0.950 . S
C2955 C2954 1.373 . S
C2955 C2971 1.377 . S
C2956 C2954 1.389 . S
C2956 C2957 1.524 . S
C2956 C2970 1.377 . S
C2957 C2956 1.524 . S
C2957 C2958 1.397 . S
C2957 C2962 1.363 . S
C2958 H2935 0.950 . S
C2958 C2957 1.397 . S
C2958 C2959 1.334 . S
C2959 H2936 0.950 . S
C2959 C2958 1.334 . S
C2959 C2960 1.287 . S
C2960 C2959 1.287 . S
C2960 C2961 1.524 . S
C2960 H2979 0.913 . S
C2961 H2937 0.950 . S
C2961 C2960 1.524 . S
C2961 C2962 1.415 . S
C2962 H2938 0.950 . S
C2962 C2957 1.363 . S
C2962 C2961 1.415 . S
C2963 H2939 0.951 . S
C2963 C2964 1.366 . S
C2963 C2965 1.388 . S
C2964 C2963 1.366 . S
C2964 C2968 1.385 . S
C2965 H2940 0.951 . S
C2965 C2963 1.388 . S
C2965 C2966 1.366 . S
C2966 C2965 1.366 . S
C2966 C2967 1.414 . S
C2966 C2969 1.499 . S
C2967 H2941 0.950 . S
C2967 C2966 1.414 . S
C2967 C2968 1.374 . S
C2968 H2942 0.950 . S
C2968 C2964 1.385 . S
C2968 C2967 1.374 . S
C2969 C2966 1.499 . S
C2969 C2970 1.373 . S
C2969 C2971 1.389 . S
C2970 H2943 0.950 . S
C2970 C2956 1.377 . S
C2970 C2969 1.373 . S
C2971 C2955 1.377 . S
C2971 C2969 1.389 . S
C2971 C2972 1.524 . S
C2972 C2971 1.524 . S
C2972 C2973 1.397 . S
C2972 C2977 1.363 . S
C2973 H2944 0.950 . S
C2973 C2972 1.397 . S
C2973 C2974 1.334 . S
C2974 H2945 0.950 . S
C2974 C2973 1.334 . S
C2974 C2975 1.287 . S
C2975 C2974 1.287 . S
C2975 C2976 1.524 . S
C2975 H2978 0.999 . S
C2976 H2946 0.950 . S
C2976 C2975 1.524 . S
C2976 C2977 1.415 . S
C2977 H2947 0.950 . S
C2977 C2972 1.363 . S
C2977 C2976 1.415 . S
H2978 C2975 0.999 . S
H2979 C2960 0.913 . S
H2980 C2998 0.951 . S
H2981 C3000 0.951 . S
H2982 C3002 0.950 . S
H2983 C3003 0.950 . S
H2984 C3005 0.950 . S
H2985 C3008 0.950 . S
H2986 C3009 0.950 . S
H2987 C3011 0.950 . S
H2988 C3012 0.950 . S
H2989 C3013 0.951 . S
H2990 C3015 0.951 . S
H2991 C3017 0.950 . S
H2992 C3018 0.950 . S
H2993 C3020 0.950 . S
H2994 C3023 0.950 . S
H2995 C3024 0.950 . S
H2996 C3026 0.950 . S
H2997 C3027 0.950 . S
C2998 H2980 0.951 . S
C2998 C2999 1.366 . S
C2998 C3000 1.388 . S
C2999 C2998 1.366 . S
C2999 C3003 1.385 . S
C3000 H2981 0.951 . S
C3000 C2998 1.388 . S
C3000 C3001 1.366 . S
C3001 C3000 1.366 . S
C3001 C3002 1.414 . S
C3001 C3004 1.499 . S
C3002 H2982 0.950 . S
C3002 C3001 1.414 . S
C3002 C3003 1.374 . S
C3003 H2983 0.950 . S
C3003 C2999 1.385 . S
C3003 C3002 1.374 . S
C3004 C3001 1.499 . S
C3004 C3005 1.373 . S
C3004 C3006 1.389 . S
C3005 H2984 0.950 . S
C3005 C3004 1.373 . S
C3005 C3021 1.377 . S
C3006 C3004 1.389 . S
C3006 C3007 1.524 . S
C3006 C3020 1.377 . S
C3007 C3006 1.524 . S
C3007 C3008 1.397 . S
C3007 C3012 1.363 . S
C3008 H2985 0.950 . S
C3008 C3007 1.397 . S
C3008 C3009 1.334 . S
C3009 H2986 0.950 . S
C3009 C3008 1.334 . S
C3009 C3010 1.287 . S
C3010 C3009 1.287 . S
C3010 C3011 1.524 . S
C3010 H3029 0.913 . S
C3011 H2987 0.950 . S
C3011 C3010 1.524 . S
C3011 C3012 1.415 . S
C3012 H2988 0.950 . S
C3012 C3007 1.363 . S
C3012 C3011 1.415 . S
C3013 H2989 0.951 . S
C3013 C3014 1.366 . S
C3013 C3015 1.388 . S
C3014 C3013 1.366 . S
C3014 C3018 1.385 . S
C3015 H2990 0.951 . S
C3015 C3013 1.388 . S
C3015 C3016 1.366 . S
C3016 C3015 1.366 . S
C3016 C3017 1.414 . S
C3016 C3019 1.499 . S
C3017 H2991 0.950 . S
C3017 C3016 1.414 . S
C3017 C3018 1.374 . S
C3018 H2992 0.950 . S
C3018 C3014 1.385 . S
C3018 C3017 1.374 . S
C3019 C3016 1.499 . S
C3019 C3020 1.373 . S
C3019 C3021 1.389 . S
C3020 H2993 0.950 . S
C3020 C3006 1.377 . S
C3020 C3019 1.373 . S
C3021 C3005 1.377 . S
C3021 C3019 1.389 . S
C3021 C3022 1.524 . S
C3022 C3021 1.524 . S
C3022 C3023 1.397 . S
C3022 C3027 1.363 . S
C3023 H2994 0.950 . S
C3023 C3022 1.397 . S
C3023 C3024 1.334 . S
C3024 H2995 0.950 . S
C3024 C3023 1.334 . S
C3024 C3025 1.287 . S
C3025 C3024 1.287 . S
C3025 C3026 1.524 . S
C3025 H3028 0.999 . S
C3026 H2996 0.950 . S
C3026 C3025 1.524 . S
C3026 C3027 1.415 . S
C3027 H2997 0.950 . S
C3027 C3022 1.363 . S
C3027 C3026 1.415 . S
H3028 C3025 0.999 . S
H3029 C3010 0.913 . S
H3030 C3048 0.951 . S
H3031 C3050 0.951 . S
H3032 C3052 0.950 . S
H3033 C3053 0.950 . S
H3034 C3055 0.950 . S
H3035 C3058 0.950 . S
H3036 C3059 0.950 . S
H3037 C3061 0.950 . S
H3038 C3062 0.950 . S
H3039 C3063 0.951 . S
H3040 C3065 0.951 . S
H3041 C3067 0.950 . S
H3042 C3068 0.950 . S
H3043 C3070 0.950 . S
H3044 C3073 0.950 . S
H3045 C3074 0.950 . S
H3046 C3076 0.950 . S
H3047 C3077 0.950 . S
C3048 H3030 0.951 . S
C3048 C3049 1.366 . S
C3048 C3050 1.388 . S
C3049 C3048 1.366 . S
C3049 C3053 1.385 . S
C3050 H3031 0.951 . S
C3050 C3048 1.388 . S
C3050 C3051 1.366 . S
C3051 C3050 1.366 . S
C3051 C3052 1.414 . S
C3051 C3054 1.499 . S
C3052 H3032 0.950 . S
C3052 C3051 1.414 . S
C3052 C3053 1.374 . S
C3053 H3033 0.950 . S
C3053 C3049 1.385 . S
C3053 C3052 1.374 . S
C3054 C3051 1.499 . S
C3054 C3055 1.373 . S
C3054 C3056 1.389 . S
C3055 H3034 0.950 . S
C3055 C3054 1.373 . S
C3055 C3071 1.377 . S
C3056 C3054 1.389 . S
C3056 C3057 1.524 . S
C3056 C3070 1.377 . S
C3057 C3056 1.524 . S
C3057 C3058 1.397 . S
C3057 C3062 1.363 . S
C3058 H3035 0.950 . S
C3058 C3057 1.397 . S
C3058 C3059 1.334 . S
C3059 H3036 0.950 . S
C3059 C3058 1.334 . S
C3059 C3060 1.287 . S
C3060 C3059 1.287 . S
C3060 C3061 1.524 . S
C3060 H3079 0.913 . S
C3061 H3037 0.950 . S
C3061 C3060 1.524 . S
C3061 C3062 1.415 . S
C3062 H3038 0.950 . S
C3062 C3057 1.363 . S
C3062 C3061 1.415 . S
C3063 H3039 0.951 . S
C3063 C3064 1.366 . S
C3063 C3065 1.388 . S
C3064 C3063 1.366 . S
C3064 C3068 1.385 . S
C3065 H3040 0.951 . S
C3065 C3063 1.388 . S
C3065 C3066 1.366 . S
C3066 C3065 1.366 . S
C3066 C3067 1.414 . S
C3066 C3069 1.499 . S
C3067 H3041 0.950 . S
C3067 C3066 1.414 . S
C3067 C3068 1.374 . S
C3068 H3042 0.950 . S
C3068 C3064 1.385 . S
C3068 C3067 1.374 . S
C3069 C3066 1.499 . S
C3069 C3070 1.373 . S
C3069 C3071 1.389 . S
C3070 H3043 0.950 . S
C3070 C3056 1.377 . S
C3070 C3069 1.373 . S
C3071 C3055 1.377 . S
C3071 C3069 1.389 . S
C3071 C3072 1.524 . S
C3072 C3071 1.524 . S
C3072 C3073 1.397 . S
C3072 C3077 1.363 . S
C3073 H3044 0.950 . S
C3073 C3072 1.397 . S
C3073 C3074 1.334 . S
C3074 H3045 0.950 . S
C3074 C3073 1.334 . S
C3074 C3075 1.287 . S
C3075 C3074 1.287 . S
C3075 C3076 1.524 . S
C3075 H3078 0.999 . S
C3076 H3046 0.950 . S
C3076 C3075 1.524 . S
C3076 C3077 1.415 . S
C3077 H3047 0.950 . S
C3077 C3072 1.363 . S
C3077 C3076 1.415 . S
H3078 C3075 0.999 . S
H3079 C3060 0.913 . S
H3080 C3098 0.951 . S
H3081 C3100 0.951 . S
H3082 C3102 0.950 . S
H3083 C3103 0.950 . S
H3084 C3105 0.950 . S
H3085 C3108 0.950 . S
H3086 C3109 0.950 . S
H3087 C3111 0.950 . S
H3088 C3112 0.950 . S
H3089 C3113 0.951 . S
H3090 C3115 0.951 . S
H3091 C3117 0.950 . S
H3092 C3118 0.950 . S
H3093 C3120 0.950 . S
H3094 C3123 0.950 . S
H3095 C3124 0.950 . S
H3096 C3126 0.950 . S
H3097 C3127 0.950 . S
C3098 H3080 0.951 . S
C3098 C3099 1.366 . S
C3098 C3100 1.388 . S
C3099 C3098 1.366 . S
C3099 C3103 1.385 . S
C3100 H3081 0.951 . S
C3100 C3098 1.388 . S
C3100 C3101 1.366 . S
C3101 C3100 1.366 . S
C3101 C3102 1.414 . S
C3101 C3104 1.499 . S
C3102 H3082 0.950 . S
C3102 C3101 1.414 . S
C3102 C3103 1.374 . S
C3103 H3083 0.950 . S
C3103 C3099 1.385 . S
C3103 C3102 1.374 . S
C3104 C3101 1.499 . S
C3104 C3105 1.373 . S
C3104 C3106 1.389 . S
C3105 H3084 0.950 . S
C3105 C3104 1.373 . S
C3105 C3121 1.377 . S
C3106 C3104 1.389 . S
C3106 C3107 1.524 . S
C3106 C3120 1.377 . S
C3107 C3106 1.524 . S
C3107 C3108 1.397 . S
C3107 C3112 1.363 . S
C3108 H3085 0.950 . S
C3108 C3107 1.397 . S
C3108 C3109 1.334 . S
C3109 H3086 0.950 . S
C3109 C3108 1.334 . S
C3109 C3110 1.287 . S
C3110 C3109 1.287 . S
C3110 C3111 1.524 . S
C3110 H3129 0.913 . S
C3111 H3087 0.950 . S
C3111 C3110 1.524 . S
C3111 C3112 1.415 . S
C3112 H3088 0.950 . S
C3112 C3107 1.363 . S
C3112 C3111 1.415 . S
C3113 H3089 0.951 . S
C3113 C3114 1.366 . S
C3113 C3115 1.388 . S
C3114 C3113 1.366 . S
C3114 C3118 1.385 . S
C3115 H3090 0.951 . S
C3115 C3113 1.388 . S
C3115 C3116 1.366 . S
C3116 C3115 1.366 . S
C3116 C3117 1.414 . S
C3116 C3119 1.499 . S
C3117 H3091 0.950 . S
C3117 C3116 1.414 . S
C3117 C3118 1.374 . S
C3118 H3092 0.950 . S
C3118 C3114 1.385 . S
C3118 C3117 1.374 . S
C3119 C3116 1.499 . S
C3119 C3120 1.373 . S
C3119 C3121 1.389 . S
C3120 H3093 0.950 . S
C3120 C3106 1.377 . S
C3120 C3119 1.373 . S
C3121 C3105 1.377 . S
C3121 C3119 1.389 . S
C3121 C3122 1.524 . S
C3122 C3121 1.524 . S
C3122 C3123 1.397 . S
C3122 C3127 1.363 . S
C3123 H3094 0.950 . S
C3123 C3122 1.397 . S
C3123 C3124 1.334 . S
C3124 H3095 0.950 . S
C3124 C3123 1.334 . S
C3124 C3125 1.287 . S
C3125 C3124 1.287 . S
C3125 C3126 1.524 . S
C3125 H3128 0.999 . S
C3126 H3096 0.950 . S
C3126 C3125 1.524 . S
C3126 C3127 1.415 . S
C3127 H3097 0.950 . S
C3127 C3122 1.363 . S
C3127 C3126 1.415 . S
H3128 C3125 0.999 . S
H3129 C3110 0.913 . S
H3130 C3148 0.951 . S
H3131 C3150 0.951 . S
H3132 C3152 0.950 . S
H3133 C3153 0.950 . S
H3134 C3155 0.950 . S
H3135 C3158 0.950 . S
H3136 C3159 0.950 . S
H3137 C3161 0.950 . S
H3138 C3162 0.950 . S
H3139 C3163 0.951 . S
H3140 C3165 0.951 . S
H3141 C3167 0.950 . S
H3142 C3168 0.950 . S
H3143 C3170 0.950 . S
H3144 C3173 0.950 . S
H3145 C3174 0.950 . S
H3146 C3176 0.950 . S
H3147 C3177 0.950 . S
C3148 H3130 0.951 . S
C3148 C3149 1.366 . S
C3148 C3150 1.388 . S
C3149 C3148 1.366 . S
C3149 C3153 1.385 . S
C3150 H3131 0.951 . S
C3150 C3148 1.388 . S
C3150 C3151 1.366 . S
C3151 C3150 1.366 . S
C3151 C3152 1.414 . S
C3151 C3154 1.499 . S
C3152 H3132 0.950 . S
C3152 C3151 1.414 . S
C3152 C3153 1.374 . S
C3153 H3133 0.950 . S
C3153 C3149 1.385 . S
C3153 C3152 1.374 . S
C3154 C3151 1.499 . S
C3154 C3155 1.373 . S
C3154 C3156 1.389 . S
C3155 H3134 0.950 . S
C3155 C3154 1.373 . S
C3155 C3171 1.377 . S
C3156 C3154 1.389 . S
C3156 C3157 1.524 . S
C3156 C3170 1.377 . S
C3157 C3156 1.524 . S
C3157 C3158 1.397 . S
C3157 C3162 1.363 . S
C3158 H3135 0.950 . S
C3158 C3157 1.397 . S
C3158 C3159 1.334 . S
C3159 H3136 0.950 . S
C3159 C3158 1.334 . S
C3159 C3160 1.287 . S
C3160 C3159 1.287 . S
C3160 C3161 1.524 . S
C3160 H3179 0.913 . S
C3161 H3137 0.950 . S
C3161 C3160 1.524 . S
C3161 C3162 1.415 . S
C3162 H3138 0.950 . S
C3162 C3157 1.363 . S
C3162 C3161 1.415 . S
C3163 H3139 0.951 . S
C3163 C3164 1.366 . S
C3163 C3165 1.388 . S
C3164 C3163 1.366 . S
C3164 C3168 1.385 . S
C3165 H3140 0.951 . S
C3165 C3163 1.388 . S
C3165 C3166 1.366 . S
C3166 C3165 1.366 . S
C3166 C3167 1.414 . S
C3166 C3169 1.499 . S
C3167 H3141 0.950 . S
C3167 C3166 1.414 . S
C3167 C3168 1.374 . S
C3168 H3142 0.950 . S
C3168 C3164 1.385 . S
C3168 C3167 1.374 . S
C3169 C3166 1.499 . S
C3169 C3170 1.373 . S
C3169 C3171 1.389 . S
C3170 H3143 0.950 . S
C3170 C3156 1.377 . S
C3170 C3169 1.373 . S
C3171 C3155 1.377 . S
C3171 C3169 1.389 . S
C3171 C3172 1.524 . S
C3172 C3171 1.524 . S
C3172 C3173 1.397 . S
C3172 C3177 1.363 . S
C3173 H3144 0.950 . S
C3173 C3172 1.397 . S
C3173 C3174 1.334 . S
C3174 H3145 0.950 . S
C3174 C3173 1.334 . S
C3174 C3175 1.287 . S
C3175 C3174 1.287 . S
C3175 C3176 1.524 . S
C3175 H3178 0.999 . S
C3176 H3146 0.950 . S
C3176 C3175 1.524 . S
C3176 C3177 1.415 . S
C3177 H3147 0.950 . S
C3177 C3172 1.363 . S
C3177 C3176 1.415 . S
H3178 C3175 0.999 . S
H3179 C3160 0.913 . S
H3180 C3198 0.951 . S
H3181 C3200 0.951 . S
H3182 C3202 0.950 . S
H3183 C3203 0.950 . S
H3184 C3205 0.950 . S
H3185 C3208 0.950 . S
H3186 C3209 0.950 . S
H3187 C3211 0.950 . S
H3188 C3212 0.950 . S
H3189 C3213 0.951 . S
H3190 C3215 0.951 . S
H3191 C3217 0.950 . S
H3192 C3218 0.950 1_554 S
H3193 C3220 0.950 . S
H3194 C3223 0.950 . S
H3195 C3224 0.950 . S
H3196 C3226 0.950 . S
H3197 C3227 0.950 . S
C3198 H3180 0.951 . S
C3198 C3199 1.366 . S
C3198 C3200 1.388 . S
C3199 C3198 1.366 . S
C3199 C3203 1.385 . S
C3200 H3181 0.951 . S
C3200 C3198 1.388 . S
C3200 C3201 1.366 . S
C3201 C3200 1.366 . S
C3201 C3202 1.414 . S
C3201 C3204 1.499 . S
C3202 H3182 0.950 . S
C3202 C3201 1.414 . S
C3202 C3203 1.374 . S
C3203 H3183 0.950 . S
C3203 C3199 1.385 . S
C3203 C3202 1.374 . S
C3204 C3201 1.499 . S
C3204 C3205 1.373 . S
C3204 C3206 1.389 . S
C3205 H3184 0.950 . S
C3205 C3204 1.373 . S
C3205 C3221 1.377 . S
C3206 C3204 1.389 . S
C3206 C3207 1.524 . S
C3206 C3220 1.377 . S
C3207 C3206 1.524 . S
C3207 C3208 1.397 . S
C3207 C3212 1.363 . S
C3208 H3185 0.950 . S
C3208 C3207 1.397 . S
C3208 C3209 1.334 . S
C3209 H3186 0.950 . S
C3209 C3208 1.334 . S
C3209 C3210 1.287 . S
C3210 C3209 1.287 . S
C3210 C3211 1.524 . S
C3210 H3229 0.913 . S
C3211 H3187 0.950 . S
C3211 C3210 1.524 . S
C3211 C3212 1.415 . S
C3212 H3188 0.950 . S
C3212 C3207 1.363 . S
C3212 C3211 1.415 . S
C3213 H3189 0.951 . S
C3213 C3214 1.366 . S
C3213 C3215 1.388 . S
C3214 C3213 1.366 . S
C3214 C3218 1.385 . S
C3215 H3190 0.951 . S
C3215 C3213 1.388 . S
C3215 C3216 1.366 . S
C3216 C3215 1.366 . S
C3216 C3217 1.414 . S
C3216 C3219 1.499 . S
C3217 H3191 0.950 . S
C3217 C3216 1.414 . S
C3217 C3218 1.374 . S
C3218 H3192 0.950 1_556 S
C3218 C3214 1.385 . S
C3218 C3217 1.374 . S
C3219 C3216 1.499 . S
C3219 C3220 1.373 . S
C3219 C3221 1.389 . S
C3220 H3193 0.950 . S
C3220 C3206 1.377 . S
C3220 C3219 1.373 . S
C3221 C3205 1.377 . S
C3221 C3219 1.389 . S
C3221 C3222 1.524 . S
C3222 C3221 1.524 . S
C3222 C3223 1.397 . S
C3222 C3227 1.363 . S
C3223 H3194 0.950 . S
C3223 C3222 1.397 . S
C3223 C3224 1.334 . S
C3224 H3195 0.950 . S
C3224 C3223 1.334 . S
C3224 C3225 1.287 . S
C3225 C3224 1.287 . S
C3225 C3226 1.524 . S
C3225 H3228 0.999 . S
C3226 H3196 0.950 . S
C3226 C3225 1.524 . S
C3226 C3227 1.415 . S
C3227 H3197 0.950 . S
C3227 C3222 1.363 . S
C3227 C3226 1.415 . S
H3228 C3225 0.999 . S
H3229 C3210 0.913 . S
H3230 C3248 0.951 . S
H3231 C3250 0.951 . S
H3232 C3252 0.950 . S
H3233 C3253 0.950 . S
H3234 C3255 0.950 . S
H3235 C3258 0.950 . S
H3236 C3259 0.950 . S
H3237 C3261 0.950 . S
H3238 C3262 0.950 . S
H3239 C3263 0.951 . S
H3240 C3265 0.951 . S
H3241 C3267 0.950 . S
H3242 C3268 0.950 . S
H3243 C3270 0.950 . S
H3244 C3273 0.950 . S
H3245 C3274 0.950 . S
H3246 C3276 0.950 . S
H3247 C3277 0.950 . S
C3248 H3230 0.951 . S
C3248 C3249 1.366 . S
C3248 C3250 1.388 . S
C3249 C3248 1.366 . S
C3249 C3253 1.385 . S
C3250 H3231 0.951 . S
C3250 C3248 1.388 . S
C3250 C3251 1.366 . S
C3251 C3250 1.366 . S
C3251 C3252 1.414 . S
C3251 C3254 1.499 . S
C3252 H3232 0.950 . S
C3252 C3251 1.414 . S
C3252 C3253 1.374 . S
C3253 H3233 0.950 . S
C3253 C3249 1.385 . S
C3253 C3252 1.374 . S
C3254 C3251 1.499 . S
C3254 C3255 1.373 . S
C3254 C3256 1.389 . S
C3255 H3234 0.950 . S
C3255 C3254 1.373 . S
C3255 C3271 1.377 . S
C3256 C3254 1.389 . S
C3256 C3257 1.524 . S
C3256 C3270 1.377 . S
C3257 C3256 1.524 . S
C3257 C3258 1.397 . S
C3257 C3262 1.363 . S
C3258 H3235 0.950 . S
C3258 C3257 1.397 . S
C3258 C3259 1.334 . S
C3259 H3236 0.950 . S
C3259 C3258 1.334 . S
C3259 C3260 1.287 . S
C3260 C3259 1.287 . S
C3260 C3261 1.524 . S
C3260 H3279 0.913 . S
C3261 H3237 0.950 . S
C3261 C3260 1.524 . S
C3261 C3262 1.415 . S
C3262 H3238 0.950 . S
C3262 C3257 1.363 . S
C3262 C3261 1.415 . S
C3263 H3239 0.951 . S
C3263 C3264 1.366 . S
C3263 C3265 1.388 . S
C3264 C3263 1.366 . S
C3264 C3268 1.385 . S
C3265 H3240 0.951 . S
C3265 C3263 1.388 . S
C3265 C3266 1.366 . S
C3266 C3265 1.366 . S
C3266 C3267 1.414 . S
C3266 C3269 1.499 . S
C3267 H3241 0.950 . S
C3267 C3266 1.414 . S
C3267 C3268 1.374 . S
C3268 H3242 0.950 . S
C3268 C3264 1.385 . S
C3268 C3267 1.374 . S
C3269 C3266 1.499 . S
C3269 C3270 1.373 . S
C3269 C3271 1.389 . S
C3270 H3243 0.950 . S
C3270 C3256 1.377 . S
C3270 C3269 1.373 . S
C3271 C3255 1.377 . S
C3271 C3269 1.389 . S
C3271 C3272 1.524 . S
C3272 C3271 1.524 . S
C3272 C3273 1.397 . S
C3272 C3277 1.363 . S
C3273 H3244 0.950 . S
C3273 C3272 1.397 . S
C3273 C3274 1.334 . S
C3274 H3245 0.950 . S
C3274 C3273 1.334 . S
C3274 C3275 1.287 . S
C3275 C3274 1.287 . S
C3275 C3276 1.524 . S
C3275 H3278 0.999 . S
C3276 H3246 0.950 . S
C3276 C3275 1.524 . S
C3276 C3277 1.415 . S
C3277 H3247 0.950 . S
C3277 C3272 1.363 . S
C3277 C3276 1.415 . S
H3278 C3275 0.999 . S
H3279 C3260 0.913 . S
H3280 C3298 0.951 . S
H3281 C3300 0.951 . S
H3282 C3302 0.950 . S
H3283 C3303 0.950 . S
H3284 C3305 0.950 . S
H3285 C3308 0.950 . S
H3286 C3309 0.950 . S
H3287 C3311 0.950 . S
H3288 C3312 0.950 . S
H3289 C3313 0.951 1_565 S
H3290 C3315 0.951 1_565 S
H3291 C3317 0.950 . S
H3292 C3318 0.950 . S
H3293 C3320 0.950 . S
H3294 C3323 0.950 . S
H3295 C3324 0.966 . S
H3296 C3326 0.950 . S
H3297 C3327 0.950 . S
C3298 H3280 0.951 . S
C3298 C3299 1.366 . S
C3298 C3300 1.388 . S
C3299 C3298 1.366 . S
C3299 C3303 1.385 . S
C3300 H3281 0.951 . S
C3300 C3298 1.388 . S
C3300 C3301 1.366 . S
C3301 C3300 1.366 . S
C3301 C3302 1.414 . S
C3301 C3304 1.499 . S
C3302 H3282 0.950 . S
C3302 C3301 1.414 . S
C3302 C3303 1.374 . S
C3303 H3283 0.950 . S
C3303 C3299 1.385 . S
C3303 C3302 1.374 . S
C3304 C3301 1.499 . S
C3304 C3305 1.373 . S
C3304 C3306 1.389 . S
C3305 H3284 0.950 . S
C3305 C3304 1.373 . S
C3305 C3321 1.377 . S
C3306 C3304 1.389 . S
C3306 C3307 1.524 . S
C3306 C3320 1.377 . S
C3307 C3306 1.524 . S
C3307 C3308 1.397 . S
C3307 C3312 1.363 . S
C3308 H3285 0.950 . S
C3308 C3307 1.397 . S
C3308 C3309 1.334 . S
C3309 H3286 0.950 . S
C3309 C3308 1.334 . S
C3309 C3310 1.287 . S
C3310 C3309 1.287 . S
C3310 C3311 1.524 . S
C3310 H3329 0.913 . S
C3311 H3287 0.950 . S
C3311 C3310 1.524 . S
C3311 C3312 1.415 . S
C3312 H3288 0.950 . S
C3312 C3307 1.363 . S
C3312 C3311 1.415 . S
C3313 H3289 0.951 1_545 S
C3313 C3314 1.366 . S
C3313 C3315 1.388 . S
C3314 C3313 1.366 . S
C3314 C3318 1.385 . S
C3315 H3290 0.951 1_545 S
C3315 C3313 1.388 . S
C3315 C3316 1.366 . S
C3316 C3315 1.366 . S
C3316 C3317 1.414 . S
C3316 C3319 1.499 . S
C3317 H3291 0.950 . S
C3317 C3316 1.414 . S
C3317 C3318 1.374 . S
C3318 H3292 0.950 . S
C3318 C3314 1.385 . S
C3318 C3317 1.374 . S
C3319 C3316 1.499 . S
C3319 C3320 1.373 . S
C3319 C3321 1.389 . S
C3320 H3293 0.950 . S
C3320 C3306 1.377 . S
C3320 C3319 1.373 . S
C3321 C3305 1.377 . S
C3321 C3319 1.389 . S
C3321 C3322 1.497 1_545 S
C3322 C3321 1.497 1_565 S
C3322 C3323 1.370 1_565 S
C3322 C3327 1.414 . S
C3323 H3294 0.950 . S
C3323 C3322 1.370 1_545 S
C3323 C3324 1.334 1_545 S
C3324 H3295 0.966 . S
C3324 C3323 1.334 1_565 S
C3324 C3325 1.287 . S
C3325 C3324 1.287 . S
C3325 C3326 1.524 . S
C3325 H3328 0.999 . S
C3326 H3296 0.950 . S
C3326 C3325 1.524 . S
C3326 C3327 1.415 . S
C3327 H3297 0.950 . S
C3327 C3322 1.414 . S
C3327 C3326 1.415 . S
H3328 C3325 0.999 . S
H3329 C3310 0.913 . S
H3330 C3348 0.951 . S
H3331 C3350 0.951 . S
H3332 C3352 0.950 . S
H3333 C3353 0.950 . S
H3334 C3355 0.950 . S
H3335 C3358 0.950 . S
H3336 C3359 0.950 . S
H3337 C3361 0.950 . S
H3338 C3362 0.950 . S
H3339 C3363 0.951 . S
H3340 C3365 0.951 . S
H3341 C3367 0.950 . S
H3342 C3368 0.950 . S
H3343 C3370 0.950 . S
H3344 C3373 0.950 . S
H3345 C3374 0.950 . S
H3346 C3376 0.950 . S
H3347 C3377 0.950 . S
C3348 H3330 0.951 . S
C3348 C3349 1.366 . S
C3348 C3350 1.388 . S
C3349 C3348 1.366 . S
C3349 C3353 1.385 . S
C3350 H3331 0.951 . S
C3350 C3348 1.388 . S
C3350 C3351 1.366 . S
C3351 C3350 1.366 . S
C3351 C3352 1.414 . S
C3351 C3354 1.499 . S
C3352 H3332 0.950 . S
C3352 C3351 1.414 . S
C3352 C3353 1.374 . S
C3353 H3333 0.950 . S
C3353 C3349 1.385 . S
C3353 C3352 1.374 . S
C3354 C3351 1.499 . S
C3354 C3355 1.373 . S
C3354 C3356 1.389 . S
C3355 H3334 0.950 . S
C3355 C3354 1.373 . S
C3355 C3371 1.377 . S
C3356 C3354 1.389 . S
C3356 C3357 1.524 . S
C3356 C3370 1.377 . S
C3357 C3356 1.524 . S
C3357 C3358 1.397 . S
C3357 C3362 1.363 . S
C3358 H3335 0.950 . S
C3358 C3357 1.397 . S
C3358 C3359 1.334 . S
C3359 H3336 0.950 . S
C3359 C3358 1.334 . S
C3359 C3360 1.287 . S
C3360 C3359 1.287 . S
C3360 C3361 1.524 . S
C3360 H3379 0.913 . S
C3361 H3337 0.950 . S
C3361 C3360 1.524 . S
C3361 C3362 1.415 . S
C3362 H3338 0.950 . S
C3362 C3357 1.363 . S
C3362 C3361 1.415 . S
C3363 H3339 0.951 . S
C3363 C3364 1.366 . S
C3363 C3365 1.388 . S
C3364 C3363 1.366 . S
C3364 C3368 1.385 . S
C3365 H3340 0.951 . S
C3365 C3363 1.388 . S
C3365 C3366 1.366 . S
C3366 C3365 1.366 . S
C3366 C3367 1.414 . S
C3366 C3369 1.499 . S
C3367 H3341 0.950 . S
C3367 C3366 1.414 . S
C3367 C3368 1.374 . S
C3368 H3342 0.950 . S
C3368 C3364 1.385 . S
C3368 C3367 1.374 . S
C3369 C3366 1.499 . S
C3369 C3370 1.373 . S
C3369 C3371 1.389 . S
C3370 H3343 0.950 . S
C3370 C3356 1.377 . S
C3370 C3369 1.373 . S
C3371 C3355 1.377 . S
C3371 C3369 1.389 . S
C3371 C3372 1.524 . S
C3372 C3371 1.524 . S
C3372 C3373 1.397 . S
C3372 C3377 1.363 . S
C3373 H3344 0.950 . S
C3373 C3372 1.397 . S
C3373 C3374 1.334 . S
C3374 H3345 0.950 . S
C3374 C3373 1.334 . S
C3374 C3375 1.287 . S
C3375 C3374 1.287 . S
C3375 C3376 1.524 . S
C3375 H3378 0.999 . S
C3376 H3346 0.950 . S
C3376 C3375 1.524 . S
C3376 C3377 1.415 . S
C3377 H3347 0.950 . S
C3377 C3372 1.363 . S
C3377 C3376 1.415 . S
H3378 C3375 0.999 . S
H3379 C3360 0.913 . S
H3380 C3398 0.951 . S
H3381 C3400 0.927 1_565 S
H3382 C3402 0.950 . S
H3383 C3403 0.950 . S
H3384 C3405 0.950 . S
H3385 C3408 0.950 . S
H3386 C3409 0.950 . S
H3387 C3411 0.950 1_565 S
H3388 C3412 0.950 1_565 S
H3389 C3413 0.951 . S
H3390 C3415 0.951 . S
H3391 C3417 0.950 1_565 S
H3392 C3418 0.996 . S
H3393 C3420 0.950 . S
H3394 C3423 0.950 1_565 S
H3395 C3424 0.950 1_565 S
H3396 C3426 0.950 . S
H3397 C3427 0.950 . S
C3398 H3380 0.951 . S
C3398 C3399 1.366 1_565 S
C3398 C3400 1.392 1_565 S
C3399 C3398 1.366 1_545 S
C3399 C3403 1.385 . S
C3400 H3381 0.927 1_545 S
C3400 C3398 1.392 1_545 S
C3400 C3401 1.386 . S
C3401 C3400 1.386 . S
C3401 C3402 1.414 . S
C3401 C3404 1.499 . S
C3402 H3382 0.950 . S
C3402 C3401 1.414 . S
C3402 C3403 1.374 . S
C3403 H3383 0.950 . S
C3403 C3399 1.385 . S
C3403 C3402 1.374 . S
C3404 C3401 1.499 . S
C3404 C3405 1.373 . S
C3404 C3406 1.389 . S
C3405 H3384 0.950 . S
C3405 C3404 1.373 . S
C3405 C3421 1.377 . S
C3406 C3404 1.389 . S
C3406 C3407 1.524 . S
C3406 C3420 1.377 . S
C3407 C3406 1.524 . S
C3407 C3408 1.397 . S
C3407 C3412 1.363 . S
C3408 H3385 0.950 . S
C3408 C3407 1.397 . S
C3408 C3409 1.334 . S
C3409 H3386 0.950 . S
C3409 C3408 1.334 . S
C3409 C3410 1.287 . S
C3410 C3409 1.287 . S
C3410 C3411 1.524 . S
C3410 H3429 0.913 . S
C3411 H3387 0.950 1_545 S
C3411 C3410 1.524 . S
C3411 C3412 1.415 . S
C3412 H3388 0.950 1_545 S
C3412 C3407 1.363 . S
C3412 C3411 1.415 . S
C3413 H3389 0.951 . S
C3413 C3414 1.366 . S
C3413 C3415 1.388 . S
C3414 C3413 1.366 . S
C3414 C3418 1.385 . S
C3415 H3390 0.951 . S
C3415 C3413 1.388 . S
C3415 C3416 1.366 . S
C3416 C3415 1.366 . S
C3416 C3417 1.414 . S
C3416 C3419 1.499 . S
C3417 H3391 0.950 1_545 S
C3417 C3416 1.414 . S
C3417 C3418 1.374 . S
C3418 H3392 0.996 . S
C3418 C3414 1.385 . S
C3418 C3417 1.374 . S
C3419 C3416 1.499 . S
C3419 C3420 1.373 . S
C3419 C3421 1.389 . S
C3420 H3393 0.950 . S
C3420 C3406 1.377 . S
C3420 C3419 1.373 . S
C3421 C3405 1.377 . S
C3421 C3419 1.389 . S
C3421 C3422 1.524 . S
C3422 C3421 1.524 . S
C3422 C3423 1.397 . S
C3422 C3427 1.363 . S
C3423 H3394 0.950 1_545 S
C3423 C3422 1.397 . S
C3423 C3424 1.334 . S
C3424 H3395 0.950 1_545 S
C3424 C3423 1.334 . S
C3424 C3425 1.287 . S
C3425 C3424 1.287 . S
C3425 C3426 1.524 . S
C3425 H3428 0.999 . S
C3426 H3396 0.950 . S
C3426 C3425 1.524 . S
C3426 C3427 1.415 . S
C3427 H3397 0.950 . S
C3427 C3422 1.363 . S
C3427 C3426 1.415 . S
H3428 C3425 0.999 . S
H3429 C3410 0.913 . S
H3430 C3448 0.951 . S
H3431 C3450 0.951 . S
H3432 C3452 0.950 . S
H3433 C3453 0.950 . S
H3434 C3455 0.950 . S
H3435 C3458 0.950 . S
H3436 C3459 0.950 . S
H3437 C3461 0.950 . S
H3438 C3462 0.950 . S
H3439 C3463 0.951 . S
H3440 C3465 0.951 . S
H3441 C3467 0.950 . S
H3442 C3468 0.950 . S
H3443 C3470 0.950 . S
H3444 C3473 0.950 . S
H3445 C3474 0.950 . S
H3446 C3476 0.950 . S
H3447 C3477 0.950 . S
C3448 H3430 0.951 . S
C3448 C3449 1.366 . S
C3448 C3450 1.388 . S
C3449 C3448 1.366 . S
C3449 C3453 1.385 . S
C3450 H3431 0.951 . S
C3450 C3448 1.388 . S
C3450 C3451 1.366 . S
C3451 C3450 1.366 . S
C3451 C3452 1.414 . S
C3451 C3454 1.499 . S
C3452 H3432 0.950 . S
C3452 C3451 1.414 . S
C3452 C3453 1.374 . S
C3453 H3433 0.950 . S
C3453 C3449 1.385 . S
C3453 C3452 1.374 . S
C3454 C3451 1.499 . S
C3454 C3455 1.373 . S
C3454 C3456 1.389 . S
C3455 H3434 0.950 . S
C3455 C3454 1.373 . S
C3455 C3471 1.377 . S
C3456 C3454 1.389 . S
C3456 C3457 1.524 . S
C3456 C3470 1.377 . S
C3457 C3456 1.524 . S
C3457 C3458 1.397 . S
C3457 C3462 1.363 . S
C3458 H3435 0.950 . S
C3458 C3457 1.397 . S
C3458 C3459 1.334 . S
C3459 H3436 0.950 . S
C3459 C3458 1.334 . S
C3459 C3460 1.287 . S
C3460 C3459 1.287 . S
C3460 C3461 1.524 . S
C3460 H3479 0.913 . S
C3461 H3437 0.950 . S
C3461 C3460 1.524 . S
C3461 C3462 1.415 . S
C3462 H3438 0.950 . S
C3462 C3457 1.363 . S
C3462 C3461 1.415 . S
C3463 H3439 0.951 . S
C3463 C3464 1.366 . S
C3463 C3465 1.388 . S
C3464 C3463 1.366 . S
C3464 C3468 1.385 . S
C3465 H3440 0.951 . S
C3465 C3463 1.388 . S
C3465 C3466 1.366 . S
C3466 C3465 1.366 . S
C3466 C3467 1.414 . S
C3466 C3469 1.499 . S
C3467 H3441 0.950 . S
C3467 C3466 1.414 . S
C3467 C3468 1.374 . S
C3468 H3442 0.950 . S
C3468 C3464 1.385 . S
C3468 C3467 1.374 . S
C3469 C3466 1.499 . S
C3469 C3470 1.373 . S
C3469 C3471 1.389 . S
C3470 H3443 0.950 . S
C3470 C3456 1.377 . S
C3470 C3469 1.373 . S
C3471 C3455 1.377 . S
C3471 C3469 1.389 . S
C3471 C3472 1.524 . S
C3472 C3471 1.524 . S
C3472 C3473 1.397 . S
C3472 C3477 1.363 . S
C3473 H3444 0.950 . S
C3473 C3472 1.397 . S
C3473 C3474 1.334 . S
C3474 H3445 0.950 . S
C3474 C3473 1.334 . S
C3474 C3475 1.287 . S
C3475 C3474 1.287 . S
C3475 C3476 1.524 . S
C3475 H3478 0.999 . S
C3476 H3446 0.950 . S
C3476 C3475 1.524 . S
C3476 C3477 1.415 . S
C3477 H3447 0.950 . S
C3477 C3472 1.363 . S
C3477 C3476 1.415 . S
H3478 C3475 0.999 . S
H3479 C3460 0.913 . S
H3480 C3498 0.951 . S
H3481 C3500 0.951 . S
H3482 C3502 0.950 . S
H3483 C3503 0.950 . S
H3484 C3505 0.950 . S
H3485 C3508 0.950 . S
H3486 C3509 0.950 . S
H3487 C3511 0.950 . S
H3488 C3512 0.950 . S
H3489 C3513 0.951 . S
H3490 C3515 0.951 . S
H3491 C3517 0.950 . S
H3492 C3518 0.950 . S
H3493 C3520 0.950 1_565 S
H3494 C3523 0.950 . S
H3495 C3524 0.950 . S
H3496 C3526 0.950 . S
H3497 C3527 0.950 . S
C3498 H3480 0.951 . S
C3498 C3499 1.366 . S
C3498 C3500 1.388 . S
C3499 C3498 1.366 . S
C3499 C3503 1.385 . S
C3500 H3481 0.951 . S
C3500 C3498 1.388 . S
C3500 C3501 1.366 . S
C3501 C3500 1.366 . S
C3501 C3502 1.414 . S
C3501 C3504 1.499 . S
C3502 H3482 0.950 . S
C3502 C3501 1.414 . S
C3502 C3503 1.374 . S
C3503 H3483 0.950 . S
C3503 C3499 1.385 . S
C3503 C3502 1.374 . S
C3504 C3501 1.499 . S
C3504 C3505 1.373 . S
C3504 C3506 1.389 . S
C3505 H3484 0.950 . S
C3505 C3504 1.373 . S
C3505 C3521 1.377 . S
C3506 C3504 1.389 . S
C3506 C3507 1.524 1_545 S
C3506 C3520 1.377 . S
C3507 C3506 1.524 1_565 S
C3507 C3508 1.397 . S
C3507 C3512 1.363 . S
C3508 H3485 0.950 . S
C3508 C3507 1.397 . S
C3508 C3509 1.334 . S
C3509 H3486 0.950 . S
C3509 C3508 1.334 . S
C3509 C3510 1.287 . S
C3510 C3509 1.287 . S
C3510 C3511 1.524 . S
C3510 H3529 0.913 . S
C3511 H3487 0.950 . S
C3511 C3510 1.524 . S
C3511 C3512 1.415 . S
C3512 H3488 0.950 . S
C3512 C3507 1.363 . S
C3512 C3511 1.415 . S
C3513 H3489 0.951 . S
C3513 C3514 1.366 . S
C3513 C3515 1.388 . S
C3514 C3513 1.366 . S
C3514 C3518 1.385 . S
C3515 H3490 0.951 . S
C3515 C3513 1.388 . S
C3515 C3516 1.366 . S
C3516 C3515 1.366 . S
C3516 C3517 1.414 . S
C3516 C3519 1.499 . S
C3517 H3491 0.950 . S
C3517 C3516 1.414 . S
C3517 C3518 1.374 . S
C3518 H3492 0.950 . S
C3518 C3514 1.385 . S
C3518 C3517 1.374 . S
C3519 C3516 1.499 . S
C3519 C3520 1.373 . S
C3519 C3521 1.389 . S
C3520 H3493 0.950 1_545 S
C3520 C3506 1.377 . S
C3520 C3519 1.373 . S
C3521 C3505 1.377 . S
C3521 C3519 1.389 . S
C3521 C3522 1.524 . S
C3522 C3521 1.524 . S
C3522 C3523 1.397 . S
C3522 C3527 1.363 . S
C3523 H3494 0.950 . S
C3523 C3522 1.397 . S
C3523 C3524 1.334 . S
C3524 H3495 0.950 . S
C3524 C3523 1.334 . S
C3524 C3525 1.287 . S
C3525 C3524 1.287 . S
C3525 C3526 1.524 . S
C3525 H3528 0.999 . S
C3526 H3496 0.950 . S
C3526 C3525 1.524 . S
C3526 C3527 1.415 . S
C3527 H3497 0.950 . S
C3527 C3522 1.363 . S
C3527 C3526 1.415 . S
H3528 C3525 0.999 . S
H3529 C3510 0.913 . S
H3530 C3548 0.951 . S
H3531 C3550 0.951 . S
H3532 C3552 0.950 . S
H3533 C3553 0.950 . S
H3534 C3555 0.950 . S
H3535 C3558 0.950 . S
H3536 C3559 0.950 . S
H3537 C3561 0.950 . S
H3538 C3562 0.950 . S
H3539 C3563 0.951 . S
H3540 C3565 0.951 . S
H3541 C3567 0.950 . S
H3542 C3568 0.950 . S
H3543 C3570 0.950 . S
H3544 C3573 0.950 . S
H3545 C3574 0.950 . S
H3546 C3576 0.950 . S
H3547 C3577 0.950 . S
C3548 H3530 0.951 . S
C3548 C3549 1.366 . S
C3548 C3550 1.388 . S
C3549 C3548 1.366 . S
C3549 C3553 1.385 . S
C3550 H3531 0.951 . S
C3550 C3548 1.388 . S
C3550 C3551 1.366 . S
C3551 C3550 1.366 . S
C3551 C3552 1.414 . S
C3551 C3554 1.499 . S
C3552 H3532 0.950 . S
C3552 C3551 1.414 . S
C3552 C3553 1.374 . S
C3553 H3533 0.950 . S
C3553 C3549 1.385 . S
C3553 C3552 1.374 . S
C3554 C3551 1.499 . S
C3554 C3555 1.373 . S
C3554 C3556 1.389 . S
C3555 H3534 0.950 . S
C3555 C3554 1.373 . S
C3555 C3571 1.377 . S
C3556 C3554 1.389 . S
C3556 C3557 1.524 . S
C3556 C3570 1.377 . S
C3557 C3556 1.524 . S
C3557 C3558 1.397 . S
C3557 C3562 1.363 . S
C3558 H3535 0.950 . S
C3558 C3557 1.397 . S
C3558 C3559 1.334 . S
C3559 H3536 0.950 . S
C3559 C3558 1.334 . S
C3559 C3560 1.287 . S
C3560 C3559 1.287 . S
C3560 C3561 1.524 . S
C3560 H3579 0.913 . S
C3561 H3537 0.950 . S
C3561 C3560 1.524 . S
C3561 C3562 1.415 . S
C3562 H3538 0.950 . S
C3562 C3557 1.363 . S
C3562 C3561 1.415 . S
C3563 H3539 0.951 . S
C3563 C3564 1.366 . S
C3563 C3565 1.388 . S
C3564 C3563 1.366 . S
C3564 C3568 1.385 . S
C3565 H3540 0.951 . S
C3565 C3563 1.388 . S
C3565 C3566 1.366 . S
C3566 C3565 1.366 . S
C3566 C3567 1.414 . S
C3566 C3569 1.499 . S
C3567 H3541 0.950 . S
C3567 C3566 1.414 . S
C3567 C3568 1.374 . S
C3568 H3542 0.950 . S
C3568 C3564 1.385 . S
C3568 C3567 1.374 . S
C3569 C3566 1.499 . S
C3569 C3570 1.373 . S
C3569 C3571 1.389 . S
C3570 H3543 0.950 . S
C3570 C3556 1.377 . S
C3570 C3569 1.373 . S
C3571 C3555 1.377 . S
C3571 C3569 1.389 . S
C3571 C3572 1.524 . S
C3572 C3571 1.524 . S
C3572 C3573 1.397 . S
C3572 C3577 1.363 . S
C3573 H3544 0.950 . S
C3573 C3572 1.397 . S
C3573 C3574 1.334 . S
C3574 H3545 0.950 . S
C3574 C3573 1.334 . S
C3574 C3575 1.287 . S
C3575 C3574 1.287 . S
C3575 C3576 1.524 . S
C3575 H3578 0.999 . S
C3576 H3546 0.950 . S
C3576 C3575 1.524 . S
C3576 C3577 1.415 . S
C3577 H3547 0.950 . S
C3577 C3572 1.363 . S
C3577 C3576 1.415 . S
H3578 C3575 0.999 . S
H3579 C3560 0.913 . S
H3580 C3598 0.951 . S
H3581 C3600 0.951 . S
H3582 C3602 0.950 . S
H3583 C3603 0.951 . S
H3584 C3605 0.950 . S
H3585 C3608 0.950 . S
H3586 C3609 0.950 . S
H3587 C3611 0.950 . S
H3588 C3612 0.950 . S
H3589 C3613 0.951 . S
H3590 C3615 0.951 . S
H3591 C3617 0.950 . S
H3592 C3618 0.950 . S
H3593 C3620 0.950 . S
H3594 C3623 0.950 . S
H3595 C3624 0.950 . S
H3596 C3626 0.950 . S
H3597 C3627 0.950 . S
C3598 H3580 0.951 . S
C3598 C3599 1.366 . S
C3598 C3600 1.388 . S
C3599 C3598 1.366 . S
C3599 C3603 1.385 . S
C3600 H3581 0.951 . S
C3600 C3598 1.388 . S
C3600 C3601 1.366 . S
C3601 C3600 1.366 . S
C3601 C3602 1.414 . S
C3601 C3604 1.499 . S
C3602 H3582 0.950 . S
C3602 C3601 1.414 . S
C3602 C3603 1.374 . S
C3603 H3583 0.951 . S
C3603 C3599 1.385 . S
C3603 C3602 1.374 . S
C3604 C3601 1.499 . S
C3604 C3605 1.373 1_545 S
C3604 C3606 1.389 . S
C3605 H3584 0.950 . S
C3605 C3604 1.373 1_565 S
C3605 C3621 1.377 . S
C3606 C3604 1.389 . S
C3606 C3607 1.524 . S
C3606 C3620 1.377 . S
C3607 C3606 1.524 . S
C3607 C3608 1.397 . S
C3607 C3612 1.363 . S
C3608 H3585 0.950 . S
C3608 C3607 1.397 . S
C3608 C3609 1.334 . S
C3609 H3586 0.950 . S
C3609 C3608 1.334 . S
C3609 C3610 1.287 . S
C3610 C3609 1.287 . S
C3610 C3611 1.524 . S
C3610 H3629 0.913 . S
C3611 H3587 0.950 . S
C3611 C3610 1.524 . S
C3611 C3612 1.415 . S
C3612 H3588 0.950 . S
C3612 C3607 1.363 . S
C3612 C3611 1.415 . S
C3613 H3589 0.951 . S
C3613 C3614 1.366 . S
C3613 C3615 1.388 . S
C3614 C3613 1.366 . S
C3614 C3618 1.385 . S
C3615 H3590 0.951 . S
C3615 C3613 1.388 . S
C3615 C3616 1.366 . S
C3616 C3615 1.366 . S
C3616 C3617 1.414 . S
C3616 C3619 1.499 . S
C3617 H3591 0.950 . S
C3617 C3616 1.414 . S
C3617 C3618 1.374 . S
C3618 H3592 0.950 . S
C3618 C3614 1.385 . S
C3618 C3617 1.374 . S
C3619 C3616 1.499 . S
C3619 C3620 1.373 . S
C3619 C3621 1.389 1_545 S
C3620 H3593 0.950 . S
C3620 C3606 1.377 . S
C3620 C3619 1.373 . S
C3621 C3605 1.377 . S
C3621 C3619 1.389 1_565 S
C3621 C3622 1.524 . S
C3622 C3621 1.524 . S
C3622 C3623 1.397 . S
C3622 C3627 1.363 . S
C3623 H3594 0.950 . S
C3623 C3622 1.397 . S
C3623 C3624 1.334 . S
C3624 H3595 0.950 . S
C3624 C3623 1.334 . S
C3624 C3625 1.287 . S
C3625 C3624 1.287 . S
C3625 C3626 1.524 . S
C3625 H3628 0.999 . S
C3626 H3596 0.950 . S
C3626 C3625 1.524 . S
C3626 C3627 1.415 . S
C3627 H3597 0.950 . S
C3627 C3622 1.363 . S
C3627 C3626 1.415 . S
H3628 C3625 0.999 . S
H3629 C3610 0.913 . S
H3630 C3648 0.951 . S
H3631 C3650 0.951 . S
H3632 C3652 0.950 . S
H3633 C3653 0.950 . S
H3634 C3655 0.950 . S
H3635 C3658 0.950 . S
H3636 C3659 0.950 . S
H3637 C3661 0.950 . S
H3638 C3662 0.950 . S
H3639 C3663 0.951 . S
H3640 C3665 0.951 . S
H3641 C3667 0.950 . S
H3642 C3668 0.950 . S
H3643 C3670 0.950 . S
H3644 C3673 0.950 . S
H3645 C3674 0.950 . S
H3646 C3676 0.950 . S
H3647 C3677 0.950 . S
C3648 H3630 0.951 . S
C3648 C3649 1.366 . S
C3648 C3650 1.388 . S
C3649 C3648 1.366 . S
C3649 C3653 1.385 . S
C3650 H3631 0.951 . S
C3650 C3648 1.388 . S
C3650 C3651 1.366 . S
C3651 C3650 1.366 . S
C3651 C3652 1.414 . S
C3651 C3654 1.499 . S
C3652 H3632 0.950 . S
C3652 C3651 1.414 . S
C3652 C3653 1.374 . S
C3653 H3633 0.950 . S
C3653 C3649 1.385 . S
C3653 C3652 1.374 . S
C3654 C3651 1.499 . S
C3654 C3655 1.373 . S
C3654 C3656 1.389 . S
C3655 H3634 0.950 . S
C3655 C3654 1.373 . S
C3655 C3671 1.377 . S
C3656 C3654 1.389 . S
C3656 C3657 1.524 . S
C3656 C3670 1.377 . S
C3657 C3656 1.524 . S
C3657 C3658 1.397 . S
C3657 C3662 1.363 . S
C3658 H3635 0.950 . S
C3658 C3657 1.397 . S
C3658 C3659 1.334 . S
C3659 H3636 0.950 . S
C3659 C3658 1.334 . S
C3659 C3660 1.287 . S
C3660 C3659 1.287 . S
C3660 C3661 1.524 . S
C3660 H3679 0.913 . S
C3661 H3637 0.950 . S
C3661 C3660 1.524 . S
C3661 C3662 1.415 . S
C3662 H3638 0.950 . S
C3662 C3657 1.363 . S
C3662 C3661 1.415 . S
C3663 H3639 0.951 . S
C3663 C3664 1.366 . S
C3663 C3665 1.388 . S
C3664 C3663 1.366 . S
C3664 C3668 1.385 . S
C3665 H3640 0.951 . S
C3665 C3663 1.388 . S
C3665 C3666 1.366 . S
C3666 C3665 1.366 . S
C3666 C3667 1.414 . S
C3666 C3669 1.499 . S
C3667 H3641 0.950 . S
C3667 C3666 1.414 . S
C3667 C3668 1.374 . S
C3668 H3642 0.950 . S
C3668 C3664 1.385 . S
C3668 C3667 1.374 . S
C3669 C3666 1.499 . S
C3669 C3670 1.373 . S
C3669 C3671 1.389 . S
C3670 H3643 0.950 . S
C3670 C3656 1.377 . S
C3670 C3669 1.373 . S
C3671 C3655 1.377 . S
C3671 C3669 1.389 . S
C3671 C3672 1.524 . S
C3672 C3671 1.524 . S
C3672 C3673 1.397 . S
C3672 C3677 1.363 . S
C3673 H3644 0.950 . S
C3673 C3672 1.397 . S
C3673 C3674 1.334 . S
C3674 H3645 0.950 . S
C3674 C3673 1.334 . S
C3674 C3675 1.287 . S
C3675 C3674 1.287 . S
C3675 C3676 1.524 . S
C3675 H3678 0.999 . S
C3676 H3646 0.950 . S
C3676 C3675 1.524 . S
C3676 C3677 1.415 . S
C3677 H3647 0.950 . S
C3677 C3672 1.363 . S
C3677 C3676 1.415 . S
H3678 C3675 0.999 . S
H3679 C3660 0.913 . S
H3680 C3698 0.951 . S
H3681 C3700 0.951 . S
H3682 C3702 0.950 . S
H3683 C3703 0.950 . S
H3684 C3705 0.950 . S
H3685 C3708 0.950 . S
H3686 C3709 0.950 . S
H3687 C3711 0.950 . S
H3688 C3712 0.950 . S
H3689 C3713 0.951 . S
H3690 C3715 0.951 . S
H3691 C3717 0.950 . S
H3692 C3718 0.950 . S
H3693 C3720 0.950 . S
H3694 C3723 0.950 . S
H3695 C3724 0.950 . S
H3696 C3726 0.950 . S
H3697 C3727 0.950 1_554 S
C3698 H3680 0.951 . S
C3698 C3699 1.366 . S
C3698 C3700 1.388 . S
C3699 C3698 1.366 . S
C3699 C3703 1.385 . S
C3700 H3681 0.951 . S
C3700 C3698 1.388 . S
C3700 C3701 1.366 . S
C3701 C3700 1.366 . S
C3701 C3702 1.414 . S
C3701 C3704 1.499 . S
C3702 H3682 0.950 . S
C3702 C3701 1.414 . S
C3702 C3703 1.374 . S
C3703 H3683 0.950 . S
C3703 C3699 1.385 . S
C3703 C3702 1.374 . S
C3704 C3701 1.499 . S
C3704 C3705 1.373 . S
C3704 C3706 1.389 . S
C3705 H3684 0.950 . S
C3705 C3704 1.373 . S
C3705 C3721 1.377 . S
C3706 C3704 1.389 . S
C3706 C3707 1.524 . S
C3706 C3720 1.377 . S
C3707 C3706 1.524 . S
C3707 C3708 1.397 . S
C3707 C3712 1.363 . S
C3708 H3685 0.950 . S
C3708 C3707 1.397 . S
C3708 C3709 1.334 . S
C3709 H3686 0.950 . S
C3709 C3708 1.334 . S
C3709 C3710 1.287 . S
C3710 C3709 1.287 . S
C3710 C3711 1.524 . S
C3710 H3729 0.913 . S
C3711 H3687 0.950 . S
C3711 C3710 1.524 . S
C3711 C3712 1.415 . S
C3712 H3688 0.950 . S
C3712 C3707 1.363 . S
C3712 C3711 1.415 . S
C3713 H3689 0.951 . S
C3713 C3714 1.366 . S
C3713 C3715 1.388 . S
C3714 C3713 1.366 . S
C3714 C3718 1.385 . S
C3715 H3690 0.951 . S
C3715 C3713 1.388 . S
C3715 C3716 1.366 . S
C3716 C3715 1.366 . S
C3716 C3717 1.414 . S
C3716 C3719 1.499 . S
C3717 H3691 0.950 . S
C3717 C3716 1.414 . S
C3717 C3718 1.374 . S
C3718 H3692 0.950 . S
C3718 C3714 1.385 . S
C3718 C3717 1.374 . S
C3719 C3716 1.499 . S
C3719 C3720 1.373 . S
C3719 C3721 1.389 . S
C3720 H3693 0.950 . S
C3720 C3706 1.377 . S
C3720 C3719 1.373 . S
C3721 C3705 1.377 . S
C3721 C3719 1.389 . S
C3721 C3722 1.567 . S
C3722 C3721 1.567 . S
C3722 C3723 1.367 1_554 S
C3722 C3727 1.351 1_554 S
C3723 H3694 0.950 . S
C3723 C3722 1.367 1_556 S
C3723 C3724 1.334 . S
C3724 H3695 0.950 . S
C3724 C3723 1.334 . S
C3724 C3725 1.287 . S
C3725 C3724 1.287 . S
C3725 C3726 1.524 . S
C3725 H3728 0.999 . S
C3726 H3696 0.950 . S
C3726 C3725 1.524 . S
C3726 C3727 1.415 . S
C3727 H3697 0.950 1_556 S
C3727 C3722 1.351 1_556 S
C3727 C3726 1.415 . S
H3728 C3725 0.999 . S
H3729 C3710 0.913 . S
H3730 C3748 0.951 . S
H3731 C3750 0.951 . S
H3732 C3752 0.950 . S
H3733 C3753 0.950 . S
H3734 C3755 0.950 . S
H3735 C3758 0.950 . S
H3736 C3759 0.950 . S
H3737 C3761 0.950 . S
H3738 C3762 0.950 . S
H3739 C3763 0.951 . S
H3740 C3765 0.951 . S
H3741 C3767 0.950 . S
H3742 C3768 0.950 . S
H3743 C3770 0.950 . S
H3744 C3773 0.950 . S
H3745 C3774 0.950 . S
H3746 C3776 0.950 . S
H3747 C3777 0.950 . S
C3748 H3730 0.951 . S
C3748 C3749 1.366 . S
C3748 C3750 1.388 . S
C3749 C3748 1.366 . S
C3749 C3753 1.385 . S
C3750 H3731 0.951 . S
C3750 C3748 1.388 . S
C3750 C3751 1.366 . S
C3751 C3750 1.366 . S
C3751 C3752 1.414 . S
C3751 C3754 1.499 . S
C3752 H3732 0.950 . S
C3752 C3751 1.414 . S
C3752 C3753 1.374 . S
C3753 H3733 0.950 . S
C3753 C3749 1.385 . S
C3753 C3752 1.374 . S
C3754 C3751 1.499 . S
C3754 C3755 1.373 . S
C3754 C3756 1.389 . S
C3755 H3734 0.950 . S
C3755 C3754 1.373 . S
C3755 C3771 1.377 . S
C3756 C3754 1.389 . S
C3756 C3757 1.524 . S
C3756 C3770 1.377 . S
C3757 C3756 1.524 . S
C3757 C3758 1.397 . S
C3757 C3762 1.363 . S
C3758 H3735 0.950 . S
C3758 C3757 1.397 . S
C3758 C3759 1.334 . S
C3759 H3736 0.950 . S
C3759 C3758 1.334 . S
C3759 C3760 1.287 . S
C3760 C3759 1.287 . S
C3760 C3761 1.524 . S
C3760 H3779 0.913 . S
C3761 H3737 0.950 . S
C3761 C3760 1.524 . S
C3761 C3762 1.415 . S
C3762 H3738 0.950 . S
C3762 C3757 1.363 . S
C3762 C3761 1.415 . S
C3763 H3739 0.951 . S
C3763 C3764 1.366 . S
C3763 C3765 1.388 . S
C3764 C3763 1.366 . S
C3764 C3768 1.385 . S
C3765 H3740 0.951 . S
C3765 C3763 1.388 . S
C3765 C3766 1.366 . S
C3766 C3765 1.366 . S
C3766 C3767 1.414 . S
C3766 C3769 1.499 . S
C3767 H3741 0.950 . S
C3767 C3766 1.414 . S
C3767 C3768 1.374 . S
C3768 H3742 0.950 . S
C3768 C3764 1.385 . S
C3768 C3767 1.374 . S
C3769 C3766 1.499 . S
C3769 C3770 1.373 . S
C3769 C3771 1.389 . S
C3770 H3743 0.950 . S
C3770 C3756 1.377 . S
C3770 C3769 1.373 . S
C3771 C3755 1.377 . S
C3771 C3769 1.389 . S
C3771 C3772 1.524 . S
C3772 C3771 1.524 . S
C3772 C3773 1.397 1_554 S
C3772 C3777 1.363 . S
C3773 H3744 0.950 . S
C3773 C3772 1.397 1_556 S
C3773 C3774 1.334 . S
C3774 H3745 0.950 . S
C3774 C3773 1.334 . S
C3774 C3775 1.287 . S
C3775 C3774 1.287 . S
C3775 C3776 1.524 . S
C3775 H3778 0.999 . S
C3776 H3746 0.950 . S
C3776 C3775 1.524 . S
C3776 C3777 1.415 1_556 S
C3777 H3747 0.950 . S
C3777 C3772 1.363 . S
C3777 C3776 1.415 1_554 S
H3778 C3775 0.999 . S
H3779 C3760 0.913 . S
H3780 C3798 0.951 . S
H3781 C3800 0.951 . S
H3782 C3802 0.950 . S
H3783 C3803 0.950 . S
H3784 C3805 0.950 . S
H3785 C3808 0.950 . S
H3786 C3809 0.950 . S
H3787 C3811 0.950 . S
H3788 C3812 0.950 . S
H3789 C3813 0.951 . S
H3790 C3815 0.951 . S
H3791 C3817 0.950 . S
H3792 C3818 0.950 . S
H3793 C3820 0.950 . S
H3794 C3823 0.950 . S
H3795 C3824 0.950 . S
H3796 C3826 0.950 . S
H3797 C3827 0.950 . S
C3798 H3780 0.951 . S
C3798 C3799 1.366 . S
C3798 C3800 1.388 . S
C3799 C3798 1.366 . S
C3799 C3803 1.385 . S
C3800 H3781 0.951 . S
C3800 C3798 1.388 . S
C3800 C3801 1.366 . S
C3801 C3800 1.366 . S
C3801 C3802 1.414 . S
C3801 C3804 1.499 . S
C3802 H3782 0.950 . S
C3802 C3801 1.414 . S
C3802 C3803 1.374 . S
C3803 H3783 0.950 . S
C3803 C3799 1.385 . S
C3803 C3802 1.374 . S
C3804 C3801 1.499 . S
C3804 C3805 1.373 . S
C3804 C3806 1.389 . S
C3805 H3784 0.950 . S
C3805 C3804 1.373 . S
C3805 C3821 1.377 . S
C3806 C3804 1.389 . S
C3806 C3807 1.524 . S
C3806 C3820 1.377 . S
C3807 C3806 1.524 . S
C3807 C3808 1.397 . S
C3807 C3812 1.363 . S
C3808 H3785 0.950 . S
C3808 C3807 1.397 . S
C3808 C3809 1.334 . S
C3809 H3786 0.950 . S
C3809 C3808 1.334 . S
C3809 C3810 1.287 . S
C3810 C3809 1.287 . S
C3810 C3811 1.524 . S
C3810 H3829 0.913 . S
C3811 H3787 0.950 . S
C3811 C3810 1.524 . S
C3811 C3812 1.415 . S
C3812 H3788 0.950 . S
C3812 C3807 1.363 . S
C3812 C3811 1.415 . S
C3813 H3789 0.951 . S
C3813 C3814 1.366 . S
C3813 C3815 1.388 . S
C3814 C3813 1.366 . S
C3814 C3818 1.385 . S
C3815 H3790 0.951 . S
C3815 C3813 1.388 . S
C3815 C3816 1.366 . S
C3816 C3815 1.366 . S
C3816 C3817 1.414 . S
C3816 C3819 1.499 . S
C3817 H3791 0.950 . S
C3817 C3816 1.414 . S
C3817 C3818 1.374 . S
C3818 H3792 0.950 . S
C3818 C3814 1.385 . S
C3818 C3817 1.374 . S
C3819 C3816 1.499 . S
C3819 C3820 1.373 . S
C3819 C3821 1.389 . S
C3820 H3793 0.950 . S
C3820 C3806 1.377 . S
C3820 C3819 1.373 . S
C3821 C3805 1.377 . S
C3821 C3819 1.389 . S
C3821 C3822 1.524 . S
C3822 C3821 1.524 . S
C3822 C3823 1.397 . S
C3822 C3827 1.363 . S
C3823 H3794 0.950 . S
C3823 C3822 1.397 . S
C3823 C3824 1.334 . S
C3824 H3795 0.950 . S
C3824 C3823 1.334 . S
C3824 C3825 1.287 . S
C3825 C3824 1.287 . S
C3825 C3826 1.524 . S
C3825 H3828 0.999 . S
C3826 H3796 0.950 . S
C3826 C3825 1.524 . S
C3826 C3827 1.415 . S
C3827 H3797 0.950 . S
C3827 C3822 1.363 . S
C3827 C3826 1.415 . S
H3828 C3825 0.999 . S
H3829 C3810 0.913 . S
H3830 C3848 0.951 . S
H3831 C3850 0.951 . S
H3832 C3852 0.950 . S
H3833 C3853 0.950 . S
H3834 C3855 0.950 . S
H3835 C3858 0.950 . S
H3836 C3859 0.950 . S
H3837 C3861 0.950 . S
H3838 C3862 0.950 . S
H3839 C3863 0.951 . S
H3840 C3865 0.951 . S
H3841 C3867 0.950 . S
H3842 C3868 0.950 . S
H3843 C3870 0.950 . S
H3844 C3873 0.950 . S
H3845 C3874 0.950 . S
H3846 C3876 0.950 . S
H3847 C3877 0.950 . S
C3848 H3830 0.951 . S
C3848 C3849 1.366 . S
C3848 C3850 1.388 . S
C3849 C3848 1.366 . S
C3849 C3853 1.385 . S
C3850 H3831 0.951 . S
C3850 C3848 1.388 . S
C3850 C3851 1.366 . S
C3851 C3850 1.366 . S
C3851 C3852 1.414 . S
C3851 C3854 1.499 . S
C3852 H3832 0.950 . S
C3852 C3851 1.414 . S
C3852 C3853 1.374 . S
C3853 H3833 0.950 . S
C3853 C3849 1.385 . S
C3853 C3852 1.374 . S
C3854 C3851 1.499 . S
C3854 C3855 1.373 . S
C3854 C3856 1.389 . S
C3855 H3834 0.950 . S
C3855 C3854 1.373 . S
C3855 C3871 1.377 . S
C3856 C3854 1.389 . S
C3856 C3857 1.524 . S
C3856 C3870 1.377 . S
C3857 C3856 1.524 . S
C3857 C3858 1.397 . S
C3857 C3862 1.363 . S
C3858 H3835 0.950 . S
C3858 C3857 1.397 . S
C3858 C3859 1.334 . S
C3859 H3836 0.950 . S
C3859 C3858 1.334 . S
C3859 C3860 1.287 . S
C3860 C3859 1.287 . S
C3860 C3861 1.524 . S
C3860 H3879 0.913 . S
C3861 H3837 0.950 . S
C3861 C3860 1.524 . S
C3861 C3862 1.415 . S
C3862 H3838 0.950 . S
C3862 C3857 1.363 . S
C3862 C3861 1.415 . S
C3863 H3839 0.951 . S
C3863 C3864 1.366 . S
C3863 C3865 1.388 . S
C3864 C3863 1.366 . S
C3864 C3868 1.385 . S
C3865 H3840 0.951 . S
C3865 C3863 1.388 . S
C3865 C3866 1.366 . S
C3866 C3865 1.366 . S
C3866 C3867 1.414 . S
C3866 C3869 1.499 . S
C3867 H3841 0.950 . S
C3867 C3866 1.414 . S
C3867 C3868 1.374 . S
C3868 H3842 0.950 . S
C3868 C3864 1.385 . S
C3868 C3867 1.374 . S
C3869 C3866 1.499 . S
C3869 C3870 1.373 . S
C3869 C3871 1.389 . S
C3870 H3843 0.950 . S
C3870 C3856 1.377 . S
C3870 C3869 1.373 . S
C3871 C3855 1.377 . S
C3871 C3869 1.389 . S
C3871 C3872 1.524 . S
C3872 C3871 1.524 . S
C3872 C3873 1.397 . S
C3872 C3877 1.363 . S
C3873 H3844 0.950 . S
C3873 C3872 1.397 . S
C3873 C3874 1.334 . S
C3874 H3845 0.950 . S
C3874 C3873 1.334 . S
C3874 C3875 1.287 . S
C3875 C3874 1.287 . S
C3875 C3876 1.524 . S
C3875 H3878 0.999 . S
C3876 H3846 0.950 . S
C3876 C3875 1.524 . S
C3876 C3877 1.415 . S
C3877 H3847 0.950 . S
C3877 C3872 1.363 . S
C3877 C3876 1.415 . S
H3878 C3875 0.999 . S
H3879 C3860 0.913 . S
H3880 C3898 0.951 . S
H3881 C3900 0.951 . S
H3882 C3902 0.950 . S
H3883 C3903 0.950 1_545 S
H3884 C3905 0.950 . S
H3885 C3908 0.950 . S
H3886 C3909 0.950 . S
H3887 C3911 0.950 . S
H3888 C3912 0.950 . S
H3889 C3913 0.951 . S
H3890 C3915 0.951 . S
H3891 C3917 0.950 . S
H3892 C3918 0.950 . S
H3893 C3920 0.950 . S
H3894 C3923 0.950 . S
H3895 C3924 0.950 . S
H3896 C3926 0.950 . S
H3897 C3927 0.950 . S
C3898 H3880 0.951 . S
C3898 C3899 1.366 . S
C3898 C3900 1.388 . S
C3899 C3898 1.366 . S
C3899 C3903 1.385 . S
C3900 H3881 0.951 . S
C3900 C3898 1.388 . S
C3900 C3901 1.366 . S
C3901 C3900 1.366 . S
C3901 C3902 1.414 . S
C3901 C3904 1.499 . S
C3902 H3882 0.950 . S
C3902 C3901 1.414 . S
C3902 C3903 1.374 . S
C3903 H3883 0.950 1_565 S
C3903 C3899 1.385 . S
C3903 C3902 1.374 . S
C3904 C3901 1.499 . S
C3904 C3905 1.373 . S
C3904 C3906 1.389 . S
C3905 H3884 0.950 . S
C3905 C3904 1.373 . S
C3905 C3921 1.377 . S
C3906 C3904 1.389 . S
C3906 C3907 1.524 . S
C3906 C3920 1.377 . S
C3907 C3906 1.524 . S
C3907 C3908 1.397 . S
C3907 C3912 1.363 . S
C3908 H3885 0.950 . S
C3908 C3907 1.397 . S
C3908 C3909 1.334 . S
C3909 H3886 0.950 . S
C3909 C3908 1.334 . S
C3909 C3910 1.287 . S
C3910 C3909 1.287 . S
C3910 C3911 1.524 . S
C3910 H3929 0.913 . S
C3911 H3887 0.950 . S
C3911 C3910 1.524 . S
C3911 C3912 1.415 . S
C3912 H3888 0.950 . S
C3912 C3907 1.363 . S
C3912 C3911 1.415 . S
C3913 H3889 0.951 . S
C3913 C3914 1.366 . S
C3913 C3915 1.388 . S
C3914 C3913 1.366 . S
C3914 C3918 1.385 . S
C3915 H3890 0.951 . S
C3915 C3913 1.388 . S
C3915 C3916 1.366 . S
C3916 C3915 1.366 . S
C3916 C3917 1.414 . S
C3916 C3919 1.499 . S
C3917 H3891 0.950 . S
C3917 C3916 1.414 . S
C3917 C3918 1.374 . S
C3918 H3892 0.950 . S
C3918 C3914 1.385 . S
C3918 C3917 1.374 . S
C3919 C3916 1.499 . S
C3919 C3920 1.373 . S
C3919 C3921 1.389 . S
C3920 H3893 0.950 . S
C3920 C3906 1.377 . S
C3920 C3919 1.373 . S
C3921 C3905 1.377 . S
C3921 C3919 1.389 . S
C3921 C3922 1.524 . S
C3922 C3921 1.524 . S
C3922 C3923 1.397 . S
C3922 C3927 1.363 . S
C3923 H3894 0.950 . S
C3923 C3922 1.397 . S
C3923 C3924 1.334 . S
C3924 H3895 0.950 . S
C3924 C3923 1.334 . S
C3924 C3925 1.287 . S
C3925 C3924 1.287 . S
C3925 C3926 1.524 . S
C3925 H3928 0.999 . S
C3926 H3896 0.950 . S
C3926 C3925 1.524 . S
C3926 C3927 1.415 . S
C3927 H3897 0.950 . S
C3927 C3922 1.363 . S
C3927 C3926 1.415 . S
H3928 C3925 0.999 . S
H3929 C3910 0.913 . S
H3930 C3948 0.951 . S
H3931 C3950 0.951 . S
H3932 C3952 0.950 . S
H3933 C3953 0.950 . S
H3934 C3955 0.950 . S
H3935 C3958 0.950 . S
H3936 C3959 0.950 . S
H3937 C3961 0.950 . S
H3938 C3962 0.950 . S
H3939 C3963 0.951 . S
H3940 C3965 0.951 . S
H3941 C3967 0.950 . S
H3942 C3968 0.950 . S
H3943 C3970 0.950 . S
H3944 C3973 0.950 . S
H3945 C3974 0.950 . S
H3946 C3976 0.950 . S
H3947 C3977 0.950 . S
C3948 H3930 0.951 . S
C3948 C3949 1.366 . S
C3948 C3950 1.388 . S
C3949 C3948 1.366 . S
C3949 C3953 1.385 . S
C3950 H3931 0.951 . S
C3950 C3948 1.388 . S
C3950 C3951 1.366 . S
C3951 C3950 1.366 . S
C3951 C3952 1.414 . S
C3951 C3954 1.499 . S
C3952 H3932 0.950 . S
C3952 C3951 1.414 . S
C3952 C3953 1.374 . S
C3953 H3933 0.950 . S
C3953 C3949 1.385 . S
C3953 C3952 1.374 . S
C3954 C3951 1.499 . S
C3954 C3955 1.373 . S
C3954 C3956 1.389 . S
C3955 H3934 0.950 . S
C3955 C3954 1.373 . S
C3955 C3971 1.377 . S
C3956 C3954 1.389 . S
C3956 C3957 1.524 . S
C3956 C3970 1.377 . S
C3957 C3956 1.524 . S
C3957 C3958 1.397 . S
C3957 C3962 1.363 . S
C3958 H3935 0.950 . S
C3958 C3957 1.397 . S
C3958 C3959 1.334 . S
C3959 H3936 0.950 . S
C3959 C3958 1.334 . S
C3959 C3960 1.287 . S
C3960 C3959 1.287 . S
C3960 C3961 1.524 . S
C3960 H3979 0.913 . S
C3961 H3937 0.950 . S
C3961 C3960 1.524 . S
C3961 C3962 1.415 . S
C3962 H3938 0.950 . S
C3962 C3957 1.363 . S
C3962 C3961 1.415 . S
C3963 H3939 0.951 . S
C3963 C3964 1.366 . S
C3963 C3965 1.388 . S
C3964 C3963 1.366 . S
C3964 C3968 1.385 . S
C3965 H3940 0.951 . S
C3965 C3963 1.388 . S
C3965 C3966 1.366 . S
C3966 C3965 1.366 . S
C3966 C3967 1.414 . S
C3966 C3969 1.499 . S
C3967 H3941 0.950 . S
C3967 C3966 1.414 . S
C3967 C3968 1.374 . S
C3968 H3942 0.950 . S
C3968 C3964 1.385 . S
C3968 C3967 1.374 . S
C3969 C3966 1.499 . S
C3969 C3970 1.373 . S
C3969 C3971 1.389 . S
C3970 H3943 0.950 . S
C3970 C3956 1.377 . S
C3970 C3969 1.373 . S
C3971 C3955 1.377 . S
C3971 C3969 1.389 . S
C3971 C3972 1.524 . S
C3972 C3971 1.524 . S
C3972 C3973 1.397 . S
C3972 C3977 1.363 . S
C3973 H3944 0.950 . S
C3973 C3972 1.397 . S
C3973 C3974 1.334 . S
C3974 H3945 0.950 . S
C3974 C3973 1.334 . S
C3974 C3975 1.287 . S
C3975 C3974 1.287 . S
C3975 C3976 1.524 . S
C3975 H3978 0.999 . S
C3976 H3946 0.950 . S
C3976 C3975 1.524 . S
C3976 C3977 1.415 . S
C3977 H3947 0.950 . S
C3977 C3972 1.363 . S
C3977 C3976 1.415 . S
H3978 C3975 0.999 . S
H3979 C3960 0.913 . S
H3980 C3998 0.951 . S
H3981 C4000 0.951 . S
H3982 C4002 0.950 . S
H3983 C4003 0.950 . S
H3984 C4005 0.950 . S
H3985 C4008 0.950 . S
H3986 C4009 0.950 . S
H3987 C4011 0.950 . S
H3988 C4012 0.950 . S
H3989 C4013 0.951 . S
H3990 C4015 0.951 . S
H3991 C4017 0.950 . S
H3992 C4018 0.950 . S
H3993 C4020 0.950 . S
H3994 C4023 0.950 . S
H3995 C4024 0.950 . S
H3996 C4026 0.950 . S
H3997 C4027 0.950 . S
C3998 H3980 0.951 . S
C3998 C3999 1.366 . S
C3998 C4000 1.388 . S
C3999 C3998 1.366 . S
C3999 C4003 1.385 . S
C4000 H3981 0.951 . S
C4000 C3998 1.388 . S
C4000 C4001 1.366 . S
C4001 C4000 1.366 . S
C4001 C4002 1.414 . S
C4001 C4004 1.499 . S
C4002 H3982 0.950 . S
C4002 C4001 1.414 . S
C4002 C4003 1.374 . S
C4003 H3983 0.950 . S
C4003 C3999 1.385 . S
C4003 C4002 1.374 . S
C4004 C4001 1.499 . S
C4004 C4005 1.373 . S
C4004 C4006 1.389 . S
C4005 H3984 0.950 . S
C4005 C4004 1.373 . S
C4005 C4021 1.377 . S
C4006 C4004 1.389 . S
C4006 C4007 1.524 . S
C4006 C4020 1.377 . S
C4007 C4006 1.524 . S
C4007 C4008 1.397 . S
C4007 C4012 1.363 . S
C4008 H3985 0.950 . S
C4008 C4007 1.397 . S
C4008 C4009 1.334 . S
C4009 H3986 0.950 . S
C4009 C4008 1.334 . S
C4009 C4010 1.287 . S
C4010 C4009 1.287 . S
C4010 C4011 1.524 . S
C4010 H4029 0.913 . S
C4011 H3987 0.950 . S
C4011 C4010 1.524 . S
C4011 C4012 1.415 . S
C4012 H3988 0.950 . S
C4012 C4007 1.363 . S
C4012 C4011 1.415 . S
C4013 H3989 0.951 . S
C4013 C4014 1.366 . S
C4013 C4015 1.388 . S
C4014 C4013 1.366 . S
C4014 C4018 1.385 . S
C4015 H3990 0.951 . S
C4015 C4013 1.388 . S
C4015 C4016 1.366 . S
C4016 C4015 1.366 . S
C4016 C4017 1.414 . S
C4016 C4019 1.499 . S
C4017 H3991 0.950 . S
C4017 C4016 1.414 . S
C4017 C4018 1.374 . S
C4018 H3992 0.950 . S
C4018 C4014 1.385 . S
C4018 C4017 1.374 . S
C4019 C4016 1.499 . S
C4019 C4020 1.373 . S
C4019 C4021 1.389 . S
C4020 H3993 0.950 . S
C4020 C4006 1.377 . S
C4020 C4019 1.373 . S
C4021 C4005 1.377 . S
C4021 C4019 1.389 . S
C4021 C4022 1.524 . S
C4022 C4021 1.524 . S
C4022 C4023 1.397 . S
C4022 C4027 1.363 . S
C4023 H3994 0.950 . S
C4023 C4022 1.397 . S
C4023 C4024 1.334 . S
C4024 H3995 0.950 . S
C4024 C4023 1.334 . S
C4024 C4025 1.287 . S
C4025 C4024 1.287 . S
C4025 C4026 1.524 . S
C4025 H4028 0.999 . S
C4026 H3996 0.950 . S
C4026 C4025 1.524 . S
C4026 C4027 1.415 . S
C4027 H3997 0.950 . S
C4027 C4022 1.363 . S
C4027 C4026 1.415 . S
H4028 C4025 0.999 . S
H4029 C4010 0.913 . S
H4030 C4048 0.951 . S
H4031 C4050 0.951 . S
H4032 C4052 0.950 . S
H4033 C4053 0.950 . S
H4034 C4055 0.950 . S
H4035 C4058 0.950 . S
H4036 C4059 0.950 . S
H4037 C4061 0.950 . S
H4038 C4062 0.950 . S
H4039 C4063 0.951 . S
H4040 C4065 0.951 . S
H4041 C4067 0.950 . S
H4042 C4068 0.950 . S
H4043 C4070 0.950 . S
H4044 C4073 0.950 . S
H4045 C4074 0.950 . S
H4046 C4076 0.950 . S
H4047 C4077 0.950 . S
C4048 H4030 0.951 . S
C4048 C4049 1.366 . S
C4048 C4050 1.388 . S
C4049 C4048 1.366 . S
C4049 C4053 1.385 . S
C4050 H4031 0.951 . S
C4050 C4048 1.388 . S
C4050 C4051 1.366 . S
C4051 C4050 1.366 . S
C4051 C4052 1.414 . S
C4051 C4054 1.499 . S
C4052 H4032 0.950 . S
C4052 C4051 1.414 . S
C4052 C4053 1.374 . S
C4053 H4033 0.950 . S
C4053 C4049 1.385 . S
C4053 C4052 1.374 . S
C4054 C4051 1.499 . S
C4054 C4055 1.373 . S
C4054 C4056 1.389 . S
C4055 H4034 0.950 . S
C4055 C4054 1.373 . S
C4055 C4071 1.377 . S
C4056 C4054 1.389 . S
C4056 C4057 1.524 . S
C4056 C4070 1.377 . S
C4057 C4056 1.524 . S
C4057 C4058 1.397 . S
C4057 C4062 1.363 . S
C4058 H4035 0.950 . S
C4058 C4057 1.397 . S
C4058 C4059 1.334 . S
C4059 H4036 0.950 . S
C4059 C4058 1.334 . S
C4059 C4060 1.287 . S
C4060 C4059 1.287 . S
C4060 C4061 1.524 . S
C4060 H4079 0.913 . S
C4061 H4037 0.950 . S
C4061 C4060 1.524 . S
C4061 C4062 1.415 . S
C4062 H4038 0.950 . S
C4062 C4057 1.363 . S
C4062 C4061 1.415 . S
C4063 H4039 0.951 . S
C4063 C4064 1.366 . S
C4063 C4065 1.388 . S
C4064 C4063 1.366 . S
C4064 C4068 1.385 . S
C4065 H4040 0.951 . S
C4065 C4063 1.388 . S
C4065 C4066 1.366 . S
C4066 C4065 1.366 . S
C4066 C4067 1.414 . S
C4066 C4069 1.499 . S
C4067 H4041 0.950 . S
C4067 C4066 1.414 . S
C4067 C4068 1.374 . S
C4068 H4042 0.950 . S
C4068 C4064 1.385 . S
C4068 C4067 1.374 . S
C4069 C4066 1.499 . S
C4069 C4070 1.373 . S
C4069 C4071 1.389 . S
C4070 H4043 0.950 . S
C4070 C4056 1.377 . S
C4070 C4069 1.373 . S
C4071 C4055 1.377 . S
C4071 C4069 1.389 . S
C4071 C4072 1.524 . S
C4072 C4071 1.524 . S
C4072 C4073 1.397 . S
C4072 C4077 1.363 . S
C4073 H4044 0.950 . S
C4073 C4072 1.397 . S
C4073 C4074 1.334 . S
C4074 H4045 0.950 . S
C4074 C4073 1.334 . S
C4074 C4075 1.287 . S
C4075 C4074 1.287 . S
C4075 C4076 1.524 . S
C4075 H4078 0.999 . S
C4076 H4046 0.950 . S
C4076 C4075 1.524 . S
C4076 C4077 1.415 . S
C4077 H4047 0.950 . S
C4077 C4072 1.363 . S
C4077 C4076 1.415 . S
H4078 C4075 0.999 . S
H4079 C4060 0.913 . S
H4080 C4098 0.951 . S
H4081 C4100 0.951 . S
H4082 C4102 0.950 . S
H4083 C4103 0.950 . S
H4084 C4105 0.950 . S
H4085 C4108 0.950 . S
H4086 C4109 0.950 . S
H4087 C4111 0.950 . S
H4088 C4112 0.950 . S
H4089 C4113 0.951 . S
H4090 C4115 0.951 . S
H4091 C4117 0.950 . S
H4092 C4118 0.950 . S
H4093 C4120 0.950 . S
H4094 C4123 0.950 . S
H4095 C4124 0.950 . S
H4096 C4126 0.950 . S
H4097 C4127 0.950 . S
C4098 H4080 0.951 . S
C4098 C4099 1.366 . S
C4098 C4100 1.388 . S
C4099 C4098 1.366 . S
C4099 C4103 1.385 . S
C4100 H4081 0.951 . S
C4100 C4098 1.388 . S
C4100 C4101 1.366 . S
C4101 C4100 1.366 . S
C4101 C4102 1.414 . S
C4101 C4104 1.499 . S
C4102 H4082 0.950 . S
C4102 C4101 1.414 . S
C4102 C4103 1.374 . S
C4103 H4083 0.950 . S
C4103 C4099 1.385 . S
C4103 C4102 1.374 . S
C4104 C4101 1.499 . S
C4104 C4105 1.373 . S
C4104 C4106 1.389 . S
C4105 H4084 0.950 . S
C4105 C4104 1.373 . S
C4105 C4121 1.377 . S
C4106 C4104 1.389 . S
C4106 C4107 1.524 . S
C4106 C4120 1.377 . S
C4107 C4106 1.524 . S
C4107 C4108 1.397 . S
C4107 C4112 1.363 . S
C4108 H4085 0.950 . S
C4108 C4107 1.397 . S
C4108 C4109 1.334 . S
C4109 H4086 0.950 . S
C4109 C4108 1.334 . S
C4109 C4110 1.287 . S
C4110 C4109 1.287 . S
C4110 C4111 1.524 . S
C4110 H4129 0.913 . S
C4111 H4087 0.950 . S
C4111 C4110 1.524 . S
C4111 C4112 1.415 . S
C4112 H4088 0.950 . S
C4112 C4107 1.363 . S
C4112 C4111 1.415 . S
C4113 H4089 0.951 . S
C4113 C4114 1.366 . S
C4113 C4115 1.388 . S
C4114 C4113 1.366 . S
C4114 C4118 1.385 . S
C4115 H4090 0.951 . S
C4115 C4113 1.388 . S
C4115 C4116 1.366 . S
C4116 C4115 1.366 . S
C4116 C4117 1.414 . S
C4116 C4119 1.499 . S
C4117 H4091 0.950 . S
C4117 C4116 1.414 . S
C4117 C4118 1.374 . S
C4118 H4092 0.950 . S
C4118 C4114 1.385 . S
C4118 C4117 1.374 . S
C4119 C4116 1.499 . S
C4119 C4120 1.373 . S
C4119 C4121 1.389 . S
C4120 H4093 0.950 . S
C4120 C4106 1.377 . S
C4120 C4119 1.373 . S
C4121 C4105 1.377 . S
C4121 C4119 1.389 . S
C4121 C4122 1.524 . S
C4122 C4121 1.524 . S
C4122 C4123 1.397 . S
C4122 C4127 1.363 . S
C4123 H4094 0.950 . S
C4123 C4122 1.397 . S
C4123 C4124 1.334 . S
C4124 H4095 0.950 . S
C4124 C4123 1.334 . S
C4124 C4125 1.287 . S
C4125 C4124 1.287 . S
C4125 C4126 1.524 . S
C4125 H4128 0.999 . S
C4126 H4096 0.950 . S
C4126 C4125 1.524 . S
C4126 C4127 1.415 . S
C4127 H4097 0.950 . S
C4127 C4122 1.363 . S
C4127 C4126 1.415 . S
H4128 C4125 0.999 . S
H4129 C4110 0.913 . S
H4130 C4148 0.951 . S
H4131 C4150 0.951 . S
H4132 C4152 0.950 . S
H4133 C4153 0.950 . S
H4134 C4155 0.950 . S
H4135 C4158 0.950 . S
H4136 C4159 0.950 . S
H4137 C4161 0.950 . S
H4138 C4162 0.950 . S
H4139 C4163 0.951 . S
H4140 C4165 0.951 . S
H4141 C4167 0.950 . S
H4142 C4168 0.950 . S
H4143 C4170 0.950 . S
H4144 C4173 0.950 . S
H4145 C4174 0.950 . S
H4146 C4176 0.950 . S
H4147 C4177 0.950 . S
C4148 H4130 0.951 . S
C4148 C4149 1.366 . S
C4148 C4150 1.388 . S
C4149 C4148 1.366 . S
C4149 C4153 1.385 . S
C4150 H4131 0.951 . S
C4150 C4148 1.388 . S
C4150 C4151 1.366 . S
C4151 C4150 1.366 . S
C4151 C4152 1.414 . S
C4151 C4154 1.499 . S
C4152 H4132 0.950 . S
C4152 C4151 1.414 . S
C4152 C4153 1.374 . S
C4153 H4133 0.950 . S
C4153 C4149 1.385 . S
C4153 C4152 1.374 . S
C4154 C4151 1.499 . S
C4154 C4155 1.373 . S
C4154 C4156 1.389 . S
C4155 H4134 0.950 . S
C4155 C4154 1.373 . S
C4155 C4171 1.377 . S
C4156 C4154 1.389 . S
C4156 C4157 1.524 . S
C4156 C4170 1.377 . S
C4157 C4156 1.524 . S
C4157 C4158 1.397 . S
C4157 C4162 1.363 . S
C4158 H4135 0.950 . S
C4158 C4157 1.397 . S
C4158 C4159 1.334 . S
C4159 H4136 0.950 . S
C4159 C4158 1.334 . S
C4159 C4160 1.287 . S
C4160 C4159 1.287 . S
C4160 C4161 1.524 . S
C4160 H4179 0.913 . S
C4161 H4137 0.950 . S
C4161 C4160 1.524 . S
C4161 C4162 1.415 . S
C4162 H4138 0.950 . S
C4162 C4157 1.363 . S
C4162 C4161 1.415 . S
C4163 H4139 0.951 . S
C4163 C4164 1.366 . S
C4163 C4165 1.388 . S
C4164 C4163 1.366 . S
C4164 C4168 1.385 . S
C4165 H4140 0.951 . S
C4165 C4163 1.388 . S
C4165 C4166 1.366 . S
C4166 C4165 1.366 . S
C4166 C4167 1.414 . S
C4166 C4169 1.499 . S
C4167 H4141 0.950 . S
C4167 C4166 1.414 . S
C4167 C4168 1.374 . S
C4168 H4142 0.950 . S
C4168 C4164 1.385 . S
C4168 C4167 1.374 . S
C4169 C4166 1.499 . S
C4169 C4170 1.373 . S
C4169 C4171 1.389 . S
C4170 H4143 0.950 . S
C4170 C4156 1.377 . S
C4170 C4169 1.373 . S
C4171 C4155 1.377 . S
C4171 C4169 1.389 . S
C4171 C4172 1.524 . S
C4172 C4171 1.524 . S
C4172 C4173 1.397 . S
C4172 C4177 1.363 . S
C4173 H4144 0.950 . S
C4173 C4172 1.397 . S
C4173 C4174 1.334 . S
C4174 H4145 0.950 . S
C4174 C4173 1.334 . S
C4174 C4175 1.287 . S
C4175 C4174 1.287 . S
C4175 C4176 1.524 . S
C4175 H4178 0.999 . S
C4176 H4146 0.950 . S
C4176 C4175 1.524 . S
C4176 C4177 1.415 . S
C4177 H4147 0.950 . S
C4177 C4172 1.363 . S
C4177 C4176 1.415 . S
H4178 C4175 0.999 . S
H4179 C4160 0.913 . S
H4180 C4198 0.951 . S
H4181 C4200 0.951 . S
H4182 C4202 0.950 . S
H4183 C4203 0.950 . S
H4184 C4205 0.950 . S
H4185 C4208 0.950 . S
H4186 C4209 0.950 . S
H4187 C4211 0.950 . S
H4188 C4212 0.950 . S
H4189 C4213 0.951 1_655 S
H4190 C4215 0.951 1_655 S
H4191 C4217 0.950 . S
H4192 C4218 0.950 . S
H4193 C4220 0.950 . S
H4194 C4223 0.950 . S
H4195 C4224 0.950 . S
H4196 C4226 0.950 . S
H4197 C4227 0.950 . S
C4198 H4180 0.951 . S
C4198 C4199 1.366 . S
C4198 C4200 1.388 . S
C4199 C4198 1.366 . S
C4199 C4203 1.385 1_455 S
C4200 H4181 0.951 . S
C4200 C4198 1.388 . S
C4200 C4201 1.366 . S
C4201 C4200 1.366 . S
C4201 C4202 1.414 1_455 S
C4201 C4204 1.499 . S
C4202 H4182 0.950 . S
C4202 C4201 1.414 1_655 S
C4202 C4203 1.374 . S
C4203 H4183 0.950 . S
C4203 C4199 1.385 1_655 S
C4203 C4202 1.374 . S
C4204 C4201 1.499 . S
C4204 C4205 1.373 1_455 S
C4204 C4206 1.389 . S
C4205 H4184 0.950 . S
C4205 C4204 1.373 1_655 S
C4205 C4221 1.377 . S
C4206 C4204 1.389 . S
C4206 C4207 1.524 . S
C4206 C4220 1.377 . S
C4207 C4206 1.524 . S
C4207 C4208 1.397 1_556 S
C4207 C4212 1.363 . S
C4208 H4185 0.950 . S
C4208 C4207 1.397 1_554 S
C4208 C4209 1.334 . S
C4209 H4186 0.950 . S
C4209 C4208 1.334 . S
C4209 C4210 1.287 . S
C4210 C4209 1.287 . S
C4210 C4211 1.524 1_554 S
C4210 H4229 0.913 . S
C4211 H4187 0.950 . S
C4211 C4210 1.524 1_556 S
C4211 C4212 1.415 . S
C4212 H4188 0.950 . S
C4212 C4207 1.363 . S
C4212 C4211 1.415 . S
C4213 H4189 0.951 1_455 S
C4213 C4214 1.366 . S
C4213 C4215 1.388 . S
C4214 C4213 1.366 . S
C4214 C4218 1.385 1_554 S
C4215 H4190 0.951 1_455 S
C4215 C4213 1.388 . S
C4215 C4216 1.366 1_554 S
C4216 C4215 1.366 1_556 S
C4216 C4217 1.414 . S
C4216 C4219 1.499 . S
C4217 H4191 0.950 . S
C4217 C4216 1.414 . S
C4217 C4218 1.374 . S
C4218 H4192 0.950 . S
C4218 C4214 1.385 1_556 S
C4218 C4217 1.374 . S
C4219 C4216 1.499 . S
C4219 C4220 1.373 . S
C4219 C4221 1.389 1_455 S
C4220 H4193 0.950 . S
C4220 C4206 1.377 . S
C4220 C4219 1.373 . S
C4221 C4205 1.377 . S
C4221 C4219 1.389 1_655 S
C4221 C4222 1.524 . S
C4222 C4221 1.524 . S
C4222 C4223 1.397 . S
C4222 C4227 1.363 . S
C4223 H4194 0.950 . S
C4223 C4222 1.397 . S
C4223 C4224 1.334 . S
C4224 H4195 0.950 . S
C4224 C4223 1.334 . S
C4224 C4225 1.287 . S
C4225 C4224 1.287 . S
C4225 C4226 1.524 . S
C4225 H4228 0.999 . S
C4226 H4196 0.950 . S
C4226 C4225 1.524 . S
C4226 C4227 1.415 . S
C4227 H4197 0.950 . S
C4227 C4222 1.363 . S
C4227 C4226 1.415 . S
H4228 C4225 0.999 . S
H4229 C4210 0.913 . S
H4230 C4248 0.951 1_455 S
H4231 C4250 0.951 . S
H4232 C4252 0.950 . S
H4233 C4253 0.950 . S
H4234 C4255 0.950 . S
H4235 C4258 0.950 . S
H4236 C4259 0.950 . S
H4237 C4261 0.950 . S
H4238 C4262 0.950 . S
H4239 C4263 0.951 . S
H4240 C4265 0.951 . S
H4241 C4267 0.950 . S
H4242 C4268 0.950 . S
H4243 C4270 0.950 . S
H4244 C4273 0.950 . S
H4245 C4274 0.950 . S
H4246 C4276 0.950 . S
H4247 C4277 0.950 . S
C4248 H4230 0.951 1_655 S
C4248 C4249 1.366 . S
C4248 C4250 1.388 . S
C4249 C4248 1.366 . S
C4249 C4253 1.385 . S
C4250 H4231 0.951 . S
C4250 C4248 1.388 . S
C4250 C4251 1.366 . S
C4251 C4250 1.366 . S
C4251 C4252 1.414 . S
C4251 C4254 1.499 . S
C4252 H4232 0.950 . S
C4252 C4251 1.414 . S
C4252 C4253 1.374 . S
C4253 H4233 0.950 . S
C4253 C4249 1.385 . S
C4253 C4252 1.374 . S
C4254 C4251 1.499 . S
C4254 C4255 1.373 . S
C4254 C4256 1.389 . S
C4255 H4234 0.950 . S
C4255 C4254 1.373 . S
C4255 C4271 1.377 . S
C4256 C4254 1.389 . S
C4256 C4257 1.524 . S
C4256 C4270 1.377 . S
C4257 C4256 1.524 . S
C4257 C4258 1.397 . S
C4257 C4262 1.363 . S
C4258 H4235 0.950 . S
C4258 C4257 1.397 . S
C4258 C4259 1.334 . S
C4259 H4236 0.950 . S
C4259 C4258 1.334 . S
C4259 C4260 1.287 . S
C4260 C4259 1.287 . S
C4260 C4261 1.524 . S
C4260 H4279 0.913 . S
C4261 H4237 0.950 . S
C4261 C4260 1.524 . S
C4261 C4262 1.415 . S
C4262 H4238 0.950 . S
C4262 C4257 1.363 . S
C4262 C4261 1.415 . S
C4263 H4239 0.951 . S
C4263 C4264 1.366 . S
C4263 C4265 1.388 . S
C4264 C4263 1.366 . S
C4264 C4268 1.385 . S
C4265 H4240 0.951 . S
C4265 C4263 1.388 . S
C4265 C4266 1.366 . S
C4266 C4265 1.366 . S
C4266 C4267 1.414 . S
C4266 C4269 1.499 . S
C4267 H4241 0.950 . S
C4267 C4266 1.414 . S
C4267 C4268 1.374 . S
C4268 H4242 0.950 . S
C4268 C4264 1.385 . S
C4268 C4267 1.374 . S
C4269 C4266 1.499 . S
C4269 C4270 1.373 . S
C4269 C4271 1.389 . S
C4270 H4243 0.950 . S
C4270 C4256 1.377 . S
C4270 C4269 1.373 . S
C4271 C4255 1.377 . S
C4271 C4269 1.389 . S
C4271 C4272 1.524 . S
C4272 C4271 1.524 . S
C4272 C4273 1.397 . S
C4272 C4277 1.363 . S
C4273 H4244 0.950 . S
C4273 C4272 1.397 . S
C4273 C4274 1.334 . S
C4274 H4245 0.950 . S
C4274 C4273 1.334 . S
C4274 C4275 1.287 . S
C4275 C4274 1.287 . S
C4275 C4276 1.524 . S
C4275 H4278 0.999 . S
C4276 H4246 0.950 . S
C4276 C4275 1.524 . S
C4276 C4277 1.415 . S
C4277 H4247 0.950 . S
C4277 C4272 1.363 . S
C4277 C4276 1.415 . S
H4278 C4275 0.999 . S
H4279 C4260 0.913 . S
H4280 C4298 0.951 . S
H4281 C4300 0.951 . S
H4282 C4302 0.950 . S
H4283 C4303 0.950 . S
H4284 C4305 0.950 . S
H4285 C4308 0.950 . S
H4286 C4309 0.950 . S
H4287 C4311 0.950 . S
H4288 C4312 0.950 . S
H4289 C4313 0.951 . S
H4290 C4315 0.951 . S
H4291 C4317 0.950 . S
H4292 C4318 0.950 . S
H4293 C4320 0.950 . S
H4294 C4323 0.950 . S
H4295 C4324 0.950 . S
H4296 C4326 0.950 . S
H4297 C4327 0.950 . S
C4298 H4280 0.951 . S
C4298 C4299 1.366 . S
C4298 C4300 1.388 . S
C4299 C4298 1.366 . S
C4299 C4303 1.385 . S
C4300 H4281 0.951 . S
C4300 C4298 1.388 . S
C4300 C4301 1.366 . S
C4301 C4300 1.366 . S
C4301 C4302 1.414 . S
C4301 C4304 1.499 . S
C4302 H4282 0.950 . S
C4302 C4301 1.414 . S
C4302 C4303 1.374 . S
C4303 H4283 0.950 . S
C4303 C4299 1.385 . S
C4303 C4302 1.374 . S
C4304 C4301 1.499 . S
C4304 C4305 1.373 . S
C4304 C4306 1.389 . S
C4305 H4284 0.950 . S
C4305 C4304 1.373 . S
C4305 C4321 1.377 . S
C4306 C4304 1.389 . S
C4306 C4307 1.524 . S
C4306 C4320 1.377 . S
C4307 C4306 1.524 . S
C4307 C4308 1.397 . S
C4307 C4312 1.363 . S
C4308 H4285 0.950 . S
C4308 C4307 1.397 . S
C4308 C4309 1.334 . S
C4309 H4286 0.950 . S
C4309 C4308 1.334 . S
C4309 C4310 1.287 . S
C4310 C4309 1.287 . S
C4310 C4311 1.524 . S
C4310 H4329 0.913 . S
C4311 H4287 0.950 . S
C4311 C4310 1.524 . S
C4311 C4312 1.415 . S
C4312 H4288 0.950 . S
C4312 C4307 1.363 . S
C4312 C4311 1.415 . S
C4313 H4289 0.951 . S
C4313 C4314 1.366 . S
C4313 C4315 1.388 . S
C4314 C4313 1.366 . S
C4314 C4318 1.385 . S
C4315 H4290 0.951 . S
C4315 C4313 1.388 . S
C4315 C4316 1.366 . S
C4316 C4315 1.366 . S
C4316 C4317 1.414 . S
C4316 C4319 1.499 . S
C4317 H4291 0.950 . S
C4317 C4316 1.414 . S
C4317 C4318 1.374 . S
C4318 H4292 0.950 . S
C4318 C4314 1.385 . S
C4318 C4317 1.374 . S
C4319 C4316 1.499 . S
C4319 C4320 1.373 . S
C4319 C4321 1.389 . S
C4320 H4293 0.950 . S
C4320 C4306 1.377 . S
C4320 C4319 1.373 . S
C4321 C4305 1.377 . S
C4321 C4319 1.389 . S
C4321 C4322 1.524 . S
C4322 C4321 1.524 . S
C4322 C4323 1.397 . S
C4322 C4327 1.363 . S
C4323 H4294 0.950 . S
C4323 C4322 1.397 . S
C4323 C4324 1.334 . S
C4324 H4295 0.950 . S
C4324 C4323 1.334 . S
C4324 C4325 1.287 . S
C4325 C4324 1.287 . S
C4325 C4326 1.524 . S
C4325 H4328 0.999 . S
C4326 H4296 0.950 . S
C4326 C4325 1.524 . S
C4326 C4327 1.415 . S
C4327 H4297 0.950 . S
C4327 C4322 1.363 . S
C4327 C4326 1.415 . S
H4328 C4325 0.999 . S
H4329 C4310 0.913 . S
H4330 C4348 0.951 . S
H4331 C4350 0.951 . S
H4332 C4352 0.950 . S
H4333 C4353 0.950 . S
H4334 C4355 0.950 . S
H4335 C4358 0.950 . S
H4336 C4359 0.950 . S
H4337 C4361 0.950 . S
H4338 C4362 0.950 . S
H4339 C4363 0.951 . S
H4340 C4365 0.951 . S
H4341 C4367 0.950 . S
H4342 C4368 0.950 . S
H4343 C4370 0.950 . S
H4344 C4373 0.950 . S
H4345 C4374 0.950 . S
H4346 C4376 0.950 . S
H4347 C4377 0.950 . S
C4348 H4330 0.951 . S
C4348 C4349 1.366 . S
C4348 C4350 1.388 . S
C4349 C4348 1.366 . S
C4349 C4353 1.385 . S
C4350 H4331 0.951 . S
C4350 C4348 1.388 . S
C4350 C4351 1.366 . S
C4351 C4350 1.366 . S
C4351 C4352 1.414 . S
C4351 C4354 1.499 . S
C4352 H4332 0.950 . S
C4352 C4351 1.414 . S
C4352 C4353 1.374 . S
C4353 H4333 0.950 . S
C4353 C4349 1.385 . S
C4353 C4352 1.374 . S
C4354 C4351 1.499 . S
C4354 C4355 1.373 . S
C4354 C4356 1.389 . S
C4355 H4334 0.950 . S
C4355 C4354 1.373 . S
C4355 C4371 1.377 . S
C4356 C4354 1.389 . S
C4356 C4357 1.524 . S
C4356 C4370 1.377 . S
C4357 C4356 1.524 . S
C4357 C4358 1.397 . S
C4357 C4362 1.363 . S
C4358 H4335 0.950 . S
C4358 C4357 1.397 . S
C4358 C4359 1.334 . S
C4359 H4336 0.950 . S
C4359 C4358 1.334 . S
C4359 C4360 1.287 . S
C4360 C4359 1.287 . S
C4360 C4361 1.524 . S
C4360 H4379 0.913 . S
C4361 H4337 0.950 . S
C4361 C4360 1.524 . S
C4361 C4362 1.415 . S
C4362 H4338 0.950 . S
C4362 C4357 1.363 . S
C4362 C4361 1.415 . S
C4363 H4339 0.951 . S
C4363 C4364 1.366 . S
C4363 C4365 1.388 . S
C4364 C4363 1.366 . S
C4364 C4368 1.385 . S
C4365 H4340 0.951 . S
C4365 C4363 1.388 . S
C4365 C4366 1.366 . S
C4366 C4365 1.366 . S
C4366 C4367 1.414 . S
C4366 C4369 1.499 . S
C4367 H4341 0.950 . S
C4367 C4366 1.414 . S
C4367 C4368 1.374 . S
C4368 H4342 0.950 . S
C4368 C4364 1.385 . S
C4368 C4367 1.374 . S
C4369 C4366 1.499 . S
C4369 C4370 1.373 . S
C4369 C4371 1.389 . S
C4370 H4343 0.950 . S
C4370 C4356 1.377 . S
C4370 C4369 1.373 . S
C4371 C4355 1.377 . S
C4371 C4369 1.389 . S
C4371 C4372 1.524 . S
C4372 C4371 1.524 . S
C4372 C4373 1.397 . S
C4372 C4377 1.363 . S
C4373 H4344 0.950 . S
C4373 C4372 1.397 . S
C4373 C4374 1.334 . S
C4374 H4345 0.950 . S
C4374 C4373 1.334 . S
C4374 C4375 1.287 . S
C4375 C4374 1.287 . S
C4375 C4376 1.524 . S
C4375 H4378 0.999 . S
C4376 H4346 0.950 . S
C4376 C4375 1.524 . S
C4376 C4377 1.415 . S
C4377 H4347 0.950 . S
C4377 C4372 1.363 . S
C4377 C4376 1.415 . S
H4378 C4375 0.999 . S
H4379 C4360 0.913 . S
H4380 C4398 0.951 . S
H4381 C4400 0.951 . S
H4382 C4402 0.950 1_655 S
H4383 C4403 0.920 1_655 S
H4384 C4405 0.950 . S
H4385 C4408 0.950 . S
H4386 C4409 0.950 . S
H4387 C4411 0.950 1_455 S
H4388 C4412 0.950 . S
H4389 C4413 0.951 . S
H4390 C4415 0.951 . S
H4391 C4417 0.950 . S
H4392 C4418 0.950 . S
H4393 C4420 0.950 . S
H4394 C4423 0.950 . S
H4395 C4424 0.950 . S
H4396 C4426 0.950 . S
H4397 C4427 0.950 . S
C4398 H4380 0.951 . S
C4398 C4399 1.366 . S
C4398 C4400 1.388 . S
C4399 C4398 1.366 . S
C4399 C4403 1.403 . S
C4400 H4381 0.951 . S
C4400 C4398 1.388 . S
C4400 C4401 1.366 . S
C4401 C4400 1.366 . S
C4401 C4402 1.414 . S
C4401 C4404 1.499 . S
C4402 H4382 0.950 1_455 S
C4402 C4401 1.414 . S
C4402 C4403 1.389 . S
C4403 H4383 0.920 1_455 S
C4403 C4399 1.403 . S
C4403 C4402 1.389 . S
C4404 C4401 1.499 . S
C4404 C4405 1.373 . S
C4404 C4406 1.389 . S
C4405 H4384 0.950 . S
C4405 C4404 1.373 . S
C4405 C4421 1.377 . S
C4406 C4404 1.389 . S
C4406 C4407 1.524 1_455 S
C4406 C4420 1.377 . S
C4407 C4406 1.524 1_655 S
C4407 C4408 1.397 . S
C4407 C4412 1.363 1_655 S
C4408 H4385 0.950 . S
C4408 C4407 1.397 . S
C4408 C4409 1.334 . S
C4409 H4386 0.950 . S
C4409 C4408 1.334 . S
C4409 C4410 1.287 . S
C4410 C4409 1.287 . S
C4410 C4411 1.524 . S
C4410 H4429 0.913 . S
C4411 H4387 0.950 1_655 S
C4411 C4410 1.524 . S
C4411 C4412 1.415 1_655 S
C4412 H4388 0.950 . S
C4412 C4407 1.363 1_455 S
C4412 C4411 1.415 1_455 S
C4413 H4389 0.951 . S
C4413 C4414 1.366 . S
C4413 C4415 1.388 . S
C4414 C4413 1.366 . S
C4414 C4418 1.385 . S
C4415 H4390 0.951 . S
C4415 C4413 1.388 . S
C4415 C4416 1.366 . S
C4416 C4415 1.366 . S
C4416 C4417 1.414 . S
C4416 C4419 1.499 . S
C4417 H4391 0.950 . S
C4417 C4416 1.414 . S
C4417 C4418 1.374 . S
C4418 H4392 0.950 . S
C4418 C4414 1.385 . S
C4418 C4417 1.374 . S
C4419 C4416 1.499 . S
C4419 C4420 1.373 . S
C4419 C4421 1.389 . S
C4420 H4393 0.950 . S
C4420 C4406 1.377 . S
C4420 C4419 1.373 . S
C4421 C4405 1.377 . S
C4421 C4419 1.389 . S
C4421 C4422 1.524 . S
C4422 C4421 1.524 . S
C4422 C4423 1.397 . S
C4422 C4427 1.363 . S
C4423 H4394 0.950 . S
C4423 C4422 1.397 . S
C4423 C4424 1.334 . S
C4424 H4395 0.950 . S
C4424 C4423 1.334 . S
C4424 C4425 1.287 . S
C4425 C4424 1.287 . S
C4425 C4426 1.524 . S
C4425 H4428 0.999 . S
C4426 H4396 0.950 . S
C4426 C4425 1.524 . S
C4426 C4427 1.415 . S
C4427 H4397 0.950 . S
C4427 C4422 1.363 . S
C4427 C4426 1.415 . S
H4428 C4425 0.999 . S
H4429 C4410 0.913 . S
H4430 C4448 0.951 . S
H4431 C4450 0.951 . S
H4432 C4452 0.950 . S
H4433 C4453 0.950 . S
H4434 C4455 0.950 . S
H4435 C4458 0.950 . S
H4436 C4459 0.950 . S
H4437 C4461 0.950 . S
H4438 C4462 0.950 . S
H4439 C4463 0.951 . S
H4440 C4465 0.951 . S
H4441 C4467 0.950 . S
H4442 C4468 0.950 . S
H4443 C4470 0.950 . S
H4444 C4473 0.950 . S
H4445 C4474 0.950 . S
H4446 C4476 0.950 . S
H4447 C4477 0.950 . S
C4448 H4430 0.951 . S
C4448 C4449 1.366 . S
C4448 C4450 1.388 . S
C4449 C4448 1.366 . S
C4449 C4453 1.385 . S
C4450 H4431 0.951 . S
C4450 C4448 1.388 . S
C4450 C4451 1.366 . S
C4451 C4450 1.366 . S
C4451 C4452 1.414 . S
C4451 C4454 1.499 . S
C4452 H4432 0.950 . S
C4452 C4451 1.414 . S
C4452 C4453 1.374 . S
C4453 H4433 0.950 . S
C4453 C4449 1.385 . S
C4453 C4452 1.374 . S
C4454 C4451 1.499 . S
C4454 C4455 1.373 . S
C4454 C4456 1.389 . S
C4455 H4434 0.950 . S
C4455 C4454 1.373 . S
C4455 C4471 1.377 . S
C4456 C4454 1.389 . S
C4456 C4457 1.524 . S
C4456 C4470 1.377 . S
C4457 C4456 1.524 . S
C4457 C4458 1.397 . S
C4457 C4462 1.363 . S
C4458 H4435 0.950 . S
C4458 C4457 1.397 . S
C4458 C4459 1.334 . S
C4459 H4436 0.950 . S
C4459 C4458 1.334 . S
C4459 C4460 1.287 . S
C4460 C4459 1.287 . S
C4460 C4461 1.524 . S
C4460 H4479 0.913 . S
C4461 H4437 0.950 . S
C4461 C4460 1.524 . S
C4461 C4462 1.415 . S
C4462 H4438 0.950 . S
C4462 C4457 1.363 . S
C4462 C4461 1.415 . S
C4463 H4439 0.951 . S
C4463 C4464 1.366 . S
C4463 C4465 1.388 . S
C4464 C4463 1.366 . S
C4464 C4468 1.385 . S
C4465 H4440 0.951 . S
C4465 C4463 1.388 . S
C4465 C4466 1.366 . S
C4466 C4465 1.366 . S
C4466 C4467 1.414 . S
C4466 C4469 1.499 . S
C4467 H4441 0.950 . S
C4467 C4466 1.414 . S
C4467 C4468 1.374 . S
C4468 H4442 0.950 . S
C4468 C4464 1.385 . S
C4468 C4467 1.374 . S
C4469 C4466 1.499 . S
C4469 C4470 1.373 . S
C4469 C4471 1.389 . S
C4470 H4443 0.950 . S
C4470 C4456 1.377 . S
C4470 C4469 1.373 . S
C4471 C4455 1.377 . S
C4471 C4469 1.389 . S
C4471 C4472 1.524 . S
C4472 C4471 1.524 . S
C4472 C4473 1.397 . S
C4472 C4477 1.363 . S
C4473 H4444 0.950 . S
C4473 C4472 1.397 . S
C4473 C4474 1.334 . S
C4474 H4445 0.950 . S
C4474 C4473 1.334 . S
C4474 C4475 1.287 . S
C4475 C4474 1.287 . S
C4475 C4476 1.524 . S
C4475 H4478 0.999 . S
C4476 H4446 0.950 . S
C4476 C4475 1.524 . S
C4476 C4477 1.415 . S
C4477 H4447 0.950 . S
C4477 C4472 1.363 . S
C4477 C4476 1.415 . S
H4478 C4475 0.999 . S
H4479 C4460 0.913 . S
H4480 C4498 0.951 . S
H4481 C4500 0.951 . S
H4482 C4502 0.950 . S
H4483 C4503 0.950 . S
H4484 C4505 0.950 . S
H4485 C4508 0.950 . S
H4486 C4509 0.950 . S
H4487 C4511 0.950 . S
H4488 C4512 0.950 . S
H4489 C4513 0.951 . S
H4490 C4515 0.951 . S
H4491 C4517 0.950 . S
H4492 C4518 0.950 . S
H4493 C4520 0.950 . S
H4494 C4523 0.950 . S
H4495 C4524 0.950 . S
H4496 C4526 0.950 . S
H4497 C4527 0.950 . S
C4498 H4480 0.951 . S
C4498 C4499 1.366 . S
C4498 C4500 1.388 . S
C4499 C4498 1.366 . S
C4499 C4503 1.385 . S
C4500 H4481 0.951 . S
C4500 C4498 1.388 . S
C4500 C4501 1.366 . S
C4501 C4500 1.366 . S
C4501 C4502 1.414 . S
C4501 C4504 1.499 . S
C4502 H4482 0.950 . S
C4502 C4501 1.414 . S
C4502 C4503 1.374 . S
C4503 H4483 0.950 . S
C4503 C4499 1.385 . S
C4503 C4502 1.374 . S
C4504 C4501 1.499 . S
C4504 C4505 1.373 . S
C4504 C4506 1.389 . S
C4505 H4484 0.950 . S
C4505 C4504 1.373 . S
C4505 C4521 1.377 . S
C4506 C4504 1.389 . S
C4506 C4507 1.524 . S
C4506 C4520 1.377 . S
C4507 C4506 1.524 . S
C4507 C4508 1.397 . S
C4507 C4512 1.363 . S
C4508 H4485 0.950 . S
C4508 C4507 1.397 . S
C4508 C4509 1.334 . S
C4509 H4486 0.950 . S
C4509 C4508 1.334 . S
C4509 C4510 1.287 . S
C4510 C4509 1.287 . S
C4510 C4511 1.524 . S
C4510 H4529 0.913 . S
C4511 H4487 0.950 . S
C4511 C4510 1.524 . S
C4511 C4512 1.415 . S
C4512 H4488 0.950 . S
C4512 C4507 1.363 . S
C4512 C4511 1.415 . S
C4513 H4489 0.951 . S
C4513 C4514 1.366 . S
C4513 C4515 1.388 . S
C4514 C4513 1.366 . S
C4514 C4518 1.385 . S
C4515 H4490 0.951 . S
C4515 C4513 1.388 . S
C4515 C4516 1.366 . S
C4516 C4515 1.366 . S
C4516 C4517 1.414 . S
C4516 C4519 1.499 . S
C4517 H4491 0.950 . S
C4517 C4516 1.414 . S
C4517 C4518 1.374 . S
C4518 H4492 0.950 . S
C4518 C4514 1.385 . S
C4518 C4517 1.374 . S
C4519 C4516 1.499 . S
C4519 C4520 1.373 . S
C4519 C4521 1.389 . S
C4520 H4493 0.950 . S
C4520 C4506 1.377 . S
C4520 C4519 1.373 . S
C4521 C4505 1.377 . S
C4521 C4519 1.389 . S
C4521 C4522 1.524 . S
C4522 C4521 1.524 . S
C4522 C4523 1.397 . S
C4522 C4527 1.363 . S
C4523 H4494 0.950 . S
C4523 C4522 1.397 . S
C4523 C4524 1.334 . S
C4524 H4495 0.950 . S
C4524 C4523 1.334 . S
C4524 C4525 1.287 . S
C4525 C4524 1.287 . S
C4525 C4526 1.524 . S
C4525 H4528 0.999 . S
C4526 H4496 0.950 . S
C4526 C4525 1.524 . S
C4526 C4527 1.415 . S
C4527 H4497 0.950 . S
C4527 C4522 1.363 . S
C4527 C4526 1.415 . S
H4528 C4525 0.999 . S
H4529 C4510 0.913 . S
H4530 C4548 0.951 . S
H4531 C4550 0.951 . S
H4532 C4552 0.950 . S
H4533 C4553 0.950 . S
H4534 C4555 0.950 . S
H4535 C4558 0.950 . S
H4536 C4559 0.950 . S
H4537 C4561 0.950 . S
H4538 C4562 0.950 . S
H4539 C4563 0.951 . S
H4540 C4565 0.951 . S
H4541 C4567 0.950 . S
H4542 C4568 0.950 . S
H4543 C4570 0.950 . S
H4544 C4573 0.950 . S
H4545 C4574 0.950 . S
H4546 C4576 0.950 . S
H4547 C4577 0.950 . S
C4548 H4530 0.951 . S
C4548 C4549 1.366 1_556 S
C4548 C4550 1.388 . S
C4549 C4548 1.366 1_554 S
C4549 C4553 1.385 . S
C4550 H4531 0.951 . S
C4550 C4548 1.388 . S
C4550 C4551 1.366 . S
C4551 C4550 1.366 . S
C4551 C4552 1.414 . S
C4551 C4554 1.499 . S
C4552 H4532 0.950 . S
C4552 C4551 1.414 . S
C4552 C4553 1.374 1_556 S
C4553 H4533 0.950 . S
C4553 C4549 1.385 . S
C4553 C4552 1.374 1_554 S
C4554 C4551 1.499 . S
C4554 C4555 1.373 . S
C4554 C4556 1.389 . S
C4555 H4534 0.950 . S
C4555 C4554 1.373 . S
C4555 C4571 1.377 . S
C4556 C4554 1.389 . S
C4556 C4557 1.524 . S
C4556 C4570 1.377 . S
C4557 C4556 1.524 . S
C4557 C4558 1.397 . S
C4557 C4562 1.363 . S
C4558 H4535 0.950 . S
C4558 C4557 1.397 . S
C4558 C4559 1.334 . S
C4559 H4536 0.950 . S
C4559 C4558 1.334 . S
C4559 C4560 1.287 . S
C4560 C4559 1.287 . S
C4560 C4561 1.524 . S
C4560 H4579 0.913 . S
C4561 H4537 0.950 . S
C4561 C4560 1.524 . S
C4561 C4562 1.415 . S
C4562 H4538 0.950 . S
C4562 C4557 1.363 . S
C4562 C4561 1.415 . S
C4563 H4539 0.951 . S
C4563 C4564 1.366 . S
C4563 C4565 1.388 . S
C4564 C4563 1.366 . S
C4564 C4568 1.385 . S
C4565 H4540 0.951 . S
C4565 C4563 1.388 . S
C4565 C4566 1.366 . S
C4566 C4565 1.366 . S
C4566 C4567 1.414 . S
C4566 C4569 1.499 . S
C4567 H4541 0.950 . S
C4567 C4566 1.414 . S
C4567 C4568 1.374 . S
C4568 H4542 0.950 . S
C4568 C4564 1.385 . S
C4568 C4567 1.374 . S
C4569 C4566 1.499 . S
C4569 C4570 1.373 . S
C4569 C4571 1.389 . S
C4570 H4543 0.950 . S
C4570 C4556 1.377 . S
C4570 C4569 1.373 . S
C4571 C4555 1.377 . S
C4571 C4569 1.389 . S
C4571 C4572 1.524 . S
C4572 C4571 1.524 . S
C4572 C4573 1.397 . S
C4572 C4577 1.363 . S
C4573 H4544 0.950 . S
C4573 C4572 1.397 . S
C4573 C4574 1.334 . S
C4574 H4545 0.950 . S
C4574 C4573 1.334 . S
C4574 C4575 1.287 . S
C4575 C4574 1.287 . S
C4575 C4576 1.524 . S
C4575 H4578 0.999 . S
C4576 H4546 0.950 . S
C4576 C4575 1.524 . S
C4576 C4577 1.415 . S
C4577 H4547 0.950 . S
C4577 C4572 1.363 . S
C4577 C4576 1.415 . S
H4578 C4575 0.999 . S
H4579 C4560 0.913 . S
H4580 C4598 0.951 . S
H4581 C4600 0.951 . S
H4582 C4602 0.950 . S
H4583 C4603 0.950 . S
H4584 C4605 0.950 . S
H4585 C4608 0.950 . S
H4586 C4609 0.950 . S
H4587 C4611 0.950 . S
H4588 C4612 0.950 . S
H4589 C4613 0.951 . S
H4590 C4615 0.951 . S
H4591 C4617 0.950 . S
H4592 C4618 0.950 . S
H4593 C4620 0.950 . S
H4594 C4623 0.950 . S
H4595 C4624 0.950 . S
H4596 C4626 0.950 . S
H4597 C4627 0.950 . S
C4598 H4580 0.951 . S
C4598 C4599 1.366 . S
C4598 C4600 1.388 . S
C4599 C4598 1.366 . S
C4599 C4603 1.385 . S
C4600 H4581 0.951 . S
C4600 C4598 1.388 . S
C4600 C4601 1.366 . S
C4601 C4600 1.366 . S
C4601 C4602 1.414 . S
C4601 C4604 1.499 . S
C4602 H4582 0.950 . S
C4602 C4601 1.414 . S
C4602 C4603 1.374 . S
C4603 H4583 0.950 . S
C4603 C4599 1.385 . S
C4603 C4602 1.374 . S
C4604 C4601 1.499 . S
C4604 C4605 1.373 . S
C4604 C4606 1.389 . S
C4605 H4584 0.950 . S
C4605 C4604 1.373 . S
C4605 C4621 1.377 . S
C4606 C4604 1.389 . S
C4606 C4607 1.524 . S
C4606 C4620 1.377 . S
C4607 C4606 1.524 . S
C4607 C4608 1.397 . S
C4607 C4612 1.363 . S
C4608 H4585 0.950 . S
C4608 C4607 1.397 . S
C4608 C4609 1.334 . S
C4609 H4586 0.950 . S
C4609 C4608 1.334 . S
C4609 C4610 1.287 . S
C4610 C4609 1.287 . S
C4610 C4611 1.524 . S
C4610 H4629 0.913 . S
C4611 H4587 0.950 . S
C4611 C4610 1.524 . S
C4611 C4612 1.415 . S
C4612 H4588 0.950 . S
C4612 C4607 1.363 . S
C4612 C4611 1.415 . S
C4613 H4589 0.951 . S
C4613 C4614 1.366 . S
C4613 C4615 1.388 . S
C4614 C4613 1.366 . S
C4614 C4618 1.385 . S
C4615 H4590 0.951 . S
C4615 C4613 1.388 . S
C4615 C4616 1.366 . S
C4616 C4615 1.366 . S
C4616 C4617 1.414 . S
C4616 C4619 1.499 . S
C4617 H4591 0.950 . S
C4617 C4616 1.414 . S
C4617 C4618 1.374 . S
C4618 H4592 0.950 . S
C4618 C4614 1.385 . S
C4618 C4617 1.374 . S
C4619 C4616 1.499 . S
C4619 C4620 1.373 . S
C4619 C4621 1.389 . S
C4620 H4593 0.950 . S
C4620 C4606 1.377 . S
C4620 C4619 1.373 . S
C4621 C4605 1.377 . S
C4621 C4619 1.389 . S
C4621 C4622 1.524 . S
C4622 C4621 1.524 . S
C4622 C4623 1.397 . S
C4622 C4627 1.363 . S
C4623 H4594 0.950 . S
C4623 C4622 1.397 . S
C4623 C4624 1.334 . S
C4624 H4595 0.950 . S
C4624 C4623 1.334 . S
C4624 C4625 1.287 . S
C4625 C4624 1.287 . S
C4625 C4626 1.524 . S
C4625 H4628 0.999 . S
C4626 H4596 0.950 . S
C4626 C4625 1.524 . S
C4626 C4627 1.415 . S
C4627 H4597 0.950 . S
C4627 C4622 1.363 . S
C4627 C4626 1.415 . S
H4628 C4625 0.999 . S
H4629 C4610 0.913 . S
H4630 C4648 0.951 . S
H4631 C4650 0.951 . S
H4632 C4652 0.950 . S
H4633 C4653 0.950 . S
H4634 C4655 0.950 . S
H4635 C4658 0.950 . S
H4636 C4659 0.950 . S
H4637 C4661 0.950 . S
H4638 C4662 0.950 . S
H4639 C4663 0.951 . S
H4640 C4665 0.951 . S
H4641 C4667 0.950 . S
H4642 C4668 0.950 . S
H4643 C4670 0.950 . S
H4644 C4673 0.950 . S
H4645 C4674 0.950 . S
H4646 C4676 0.950 . S
H4647 C4677 0.950 . S
C4648 H4630 0.951 . S
C4648 C4649 1.366 . S
C4648 C4650 1.388 . S
C4649 C4648 1.366 . S
C4649 C4653 1.385 . S
C4650 H4631 0.951 . S
C4650 C4648 1.388 . S
C4650 C4651 1.366 . S
C4651 C4650 1.366 . S
C4651 C4652 1.414 . S
C4651 C4654 1.499 . S
C4652 H4632 0.950 . S
C4652 C4651 1.414 . S
C4652 C4653 1.374 . S
C4653 H4633 0.950 . S
C4653 C4649 1.385 . S
C4653 C4652 1.374 . S
C4654 C4651 1.499 . S
C4654 C4655 1.373 . S
C4654 C4656 1.389 . S
C4655 H4634 0.950 . S
C4655 C4654 1.373 . S
C4655 C4671 1.377 . S
C4656 C4654 1.389 . S
C4656 C4657 1.524 . S
C4656 C4670 1.377 . S
C4657 C4656 1.524 . S
C4657 C4658 1.397 . S
C4657 C4662 1.363 . S
C4658 H4635 0.950 . S
C4658 C4657 1.397 . S
C4658 C4659 1.334 . S
C4659 H4636 0.950 . S
C4659 C4658 1.334 . S
C4659 C4660 1.287 . S
C4660 C4659 1.287 . S
C4660 C4661 1.524 . S
C4660 H4679 0.913 . S
C4661 H4637 0.950 . S
C4661 C4660 1.524 . S
C4661 C4662 1.415 . S
C4662 H4638 0.950 . S
C4662 C4657 1.363 . S
C4662 C4661 1.415 . S
C4663 H4639 0.951 . S
C4663 C4664 1.366 . S
C4663 C4665 1.388 . S
C4664 C4663 1.366 . S
C4664 C4668 1.385 . S
C4665 H4640 0.951 . S
C4665 C4663 1.388 . S
C4665 C4666 1.366 . S
C4666 C4665 1.366 . S
C4666 C4667 1.414 . S
C4666 C4669 1.499 . S
C4667 H4641 0.950 . S
C4667 C4666 1.414 . S
C4667 C4668 1.374 . S
C4668 H4642 0.950 . S
C4668 C4664 1.385 . S
C4668 C4667 1.374 . S
C4669 C4666 1.499 . S
C4669 C4670 1.373 . S
C4669 C4671 1.389 . S
C4670 H4643 0.950 . S
C4670 C4656 1.377 . S
C4670 C4669 1.373 . S
C4671 C4655 1.377 . S
C4671 C4669 1.389 . S
C4671 C4672 1.524 . S
C4672 C4671 1.524 . S
C4672 C4673 1.397 . S
C4672 C4677 1.363 . S
C4673 H4644 0.950 . S
C4673 C4672 1.397 . S
C4673 C4674 1.334 . S
C4674 H4645 0.950 . S
C4674 C4673 1.334 . S
C4674 C4675 1.287 . S
C4675 C4674 1.287 . S
C4675 C4676 1.524 . S
C4675 H4678 0.999 . S
C4676 H4646 0.950 . S
C4676 C4675 1.524 . S
C4676 C4677 1.415 . S
C4677 H4647 0.950 . S
C4677 C4672 1.363 . S
C4677 C4676 1.415 . S
H4678 C4675 0.999 . S
H4679 C4660 0.913 . S
H4680 C4698 0.951 . S
H4681 C4700 0.951 . S
H4682 C4702 0.950 . S
H4683 C4703 0.950 . S
H4684 C4705 0.950 . S
H4685 C4708 0.950 . S
H4686 C4709 0.950 . S
H4687 C4711 0.950 . S
H4688 C4712 0.950 . S
H4689 C4713 0.951 . S
H4690 C4715 0.951 . S
H4691 C4717 0.950 . S
H4692 C4718 0.950 . S
H4693 C4720 0.950 . S
H4694 C4723 0.950 . S
H4695 C4724 0.950 . S
H4696 C4726 0.950 . S
H4697 C4727 0.950 . S
C4698 H4680 0.951 . S
C4698 C4699 1.366 . S
C4698 C4700 1.388 . S
C4699 C4698 1.366 . S
C4699 C4703 1.385 . S
C4700 H4681 0.951 . S
C4700 C4698 1.388 . S
C4700 C4701 1.366 . S
C4701 C4700 1.366 . S
C4701 C4702 1.414 . S
C4701 C4704 1.499 . S
C4702 H4682 0.950 . S
C4702 C4701 1.414 . S
C4702 C4703 1.374 . S
C4703 H4683 0.950 . S
C4703 C4699 1.385 . S
C4703 C4702 1.374 . S
C4704 C4701 1.499 . S
C4704 C4705 1.373 . S
C4704 C4706 1.389 . S
C4705 H4684 0.950 . S
C4705 C4704 1.373 . S
C4705 C4721 1.377 . S
C4706 C4704 1.389 . S
C4706 C4707 1.524 . S
C4706 C4720 1.377 . S
C4707 C4706 1.524 . S
C4707 C4708 1.397 . S
C4707 C4712 1.363 . S
C4708 H4685 0.950 . S
C4708 C4707 1.397 . S
C4708 C4709 1.334 . S
C4709 H4686 0.950 . S
C4709 C4708 1.334 . S
C4709 C4710 1.287 . S
C4710 C4709 1.287 . S
C4710 C4711 1.524 . S
C4710 H4729 0.913 . S
C4711 H4687 0.950 . S
C4711 C4710 1.524 . S
C4711 C4712 1.415 . S
C4712 H4688 0.950 . S
C4712 C4707 1.363 . S
C4712 C4711 1.415 . S
C4713 H4689 0.951 . S
C4713 C4714 1.366 . S
C4713 C4715 1.388 . S
C4714 C4713 1.366 . S
C4714 C4718 1.385 . S
C4715 H4690 0.951 . S
C4715 C4713 1.388 . S
C4715 C4716 1.366 . S
C4716 C4715 1.366 . S
C4716 C4717 1.414 . S
C4716 C4719 1.499 . S
C4717 H4691 0.950 . S
C4717 C4716 1.414 . S
C4717 C4718 1.374 . S
C4718 H4692 0.950 . S
C4718 C4714 1.385 . S
C4718 C4717 1.374 . S
C4719 C4716 1.499 . S
C4719 C4720 1.373 . S
C4719 C4721 1.389 . S
C4720 H4693 0.950 . S
C4720 C4706 1.377 . S
C4720 C4719 1.373 . S
C4721 C4705 1.377 . S
C4721 C4719 1.389 . S
C4721 C4722 1.524 . S
C4722 C4721 1.524 . S
C4722 C4723 1.397 . S
C4722 C4727 1.363 . S
C4723 H4694 0.950 . S
C4723 C4722 1.397 . S
C4723 C4724 1.334 . S
C4724 H4695 0.950 . S
C4724 C4723 1.334 . S
C4724 C4725 1.287 . S
C4725 C4724 1.287 . S
C4725 C4726 1.524 . S
C4725 H4728 0.999 . S
C4726 H4696 0.950 . S
C4726 C4725 1.524 . S
C4726 C4727 1.415 . S
C4727 H4697 0.950 . S
C4727 C4722 1.363 . S
C4727 C4726 1.415 . S
H4728 C4725 0.999 . S
H4729 C4710 0.913 . S
H4730 C4748 0.951 . S
H4731 C4750 0.951 . S
H4732 C4752 0.950 . S
H4733 C4753 0.950 . S
H4734 C4755 0.950 . S
H4735 C4758 0.950 . S
H4736 C4759 0.950 . S
H4737 C4761 0.950 . S
H4738 C4762 0.950 . S
H4739 C4763 0.951 . S
H4740 C4765 0.951 . S
H4741 C4767 0.950 . S
H4742 C4768 0.950 . S
H4743 C4770 0.950 . S
H4744 C4773 0.950 . S
H4745 C4774 0.950 . S
H4746 C4776 0.950 . S
H4747 C4777 0.950 . S
C4748 H4730 0.951 . S
C4748 C4749 1.366 . S
C4748 C4750 1.388 . S
C4749 C4748 1.366 . S
C4749 C4753 1.385 . S
C4750 H4731 0.951 . S
C4750 C4748 1.388 . S
C4750 C4751 1.366 . S
C4751 C4750 1.366 . S
C4751 C4752 1.414 . S
C4751 C4754 1.499 . S
C4752 H4732 0.950 . S
C4752 C4751 1.414 . S
C4752 C4753 1.374 . S
C4753 H4733 0.950 . S
C4753 C4749 1.385 . S
C4753 C4752 1.374 . S
C4754 C4751 1.499 . S
C4754 C4755 1.373 . S
C4754 C4756 1.389 . S
C4755 H4734 0.950 . S
C4755 C4754 1.373 . S
C4755 C4771 1.377 . S
C4756 C4754 1.389 . S
C4756 C4757 1.524 . S
C4756 C4770 1.377 . S
C4757 C4756 1.524 . S
C4757 C4758 1.397 . S
C4757 C4762 1.363 . S
C4758 H4735 0.950 . S
C4758 C4757 1.397 . S
C4758 C4759 1.334 . S
C4759 H4736 0.950 . S
C4759 C4758 1.334 . S
C4759 C4760 1.287 . S
C4760 C4759 1.287 . S
C4760 C4761 1.524 . S
C4760 H4779 0.913 . S
C4761 H4737 0.950 . S
C4761 C4760 1.524 . S
C4761 C4762 1.415 . S
C4762 H4738 0.950 . S
C4762 C4757 1.363 . S
C4762 C4761 1.415 . S
C4763 H4739 0.951 . S
C4763 C4764 1.366 . S
C4763 C4765 1.388 . S
C4764 C4763 1.366 . S
C4764 C4768 1.385 . S
C4765 H4740 0.951 . S
C4765 C4763 1.388 . S
C4765 C4766 1.366 . S
C4766 C4765 1.366 . S
C4766 C4767 1.414 . S
C4766 C4769 1.499 . S
C4767 H4741 0.950 . S
C4767 C4766 1.414 . S
C4767 C4768 1.374 . S
C4768 H4742 0.950 . S
C4768 C4764 1.385 . S
C4768 C4767 1.374 . S
C4769 C4766 1.499 . S
C4769 C4770 1.373 . S
C4769 C4771 1.389 . S
C4770 H4743 0.950 . S
C4770 C4756 1.377 . S
C4770 C4769 1.373 . S
C4771 C4755 1.377 . S
C4771 C4769 1.389 . S
C4771 C4772 1.524 . S
C4772 C4771 1.524 . S
C4772 C4773 1.397 . S
C4772 C4777 1.363 . S
C4773 H4744 0.950 . S
C4773 C4772 1.397 . S
C4773 C4774 1.334 . S
C4774 H4745 0.950 . S
C4774 C4773 1.334 . S
C4774 C4775 1.287 . S
C4775 C4774 1.287 . S
C4775 C4776 1.524 . S
C4775 H4778 0.999 . S
C4776 H4746 0.950 . S
C4776 C4775 1.524 . S
C4776 C4777 1.415 . S
C4777 H4747 0.950 . S
C4777 C4772 1.363 . S
C4777 C4776 1.415 . S
H4778 C4775 0.999 . S
H4779 C4760 0.913 . S
H4780 C4798 0.951 . S
H4781 C4800 0.951 . S
H4782 C4802 0.950 . S
H4783 C4803 0.950 . S
H4784 C4805 0.950 . S
H4785 C4808 0.950 . S
H4786 C4809 0.950 . S
H4787 C4811 0.950 . S
H4788 C4812 0.950 . S
H4789 C4813 0.951 . S
H4790 C4815 0.951 . S
H4791 C4817 0.950 . S
H4792 C4818 0.950 . S
H4793 C4820 0.950 . S
H4794 C4823 0.950 . S
H4795 C4824 0.950 . S
H4796 C4826 0.950 . S
H4797 C4827 0.950 . S
C4798 H4780 0.951 . S
C4798 C4799 1.366 . S
C4798 C4800 1.388 . S
C4799 C4798 1.366 . S
C4799 C4803 1.385 . S
C4800 H4781 0.951 . S
C4800 C4798 1.388 . S
C4800 C4801 1.366 . S
C4801 C4800 1.366 . S
C4801 C4802 1.414 . S
C4801 C4804 1.499 . S
C4802 H4782 0.950 . S
C4802 C4801 1.414 . S
C4802 C4803 1.374 . S
C4803 H4783 0.950 . S
C4803 C4799 1.385 . S
C4803 C4802 1.374 . S
C4804 C4801 1.499 . S
C4804 C4805 1.373 . S
C4804 C4806 1.389 . S
C4805 H4784 0.950 . S
C4805 C4804 1.373 . S
C4805 C4821 1.377 . S
C4806 C4804 1.389 . S
C4806 C4807 1.524 . S
C4806 C4820 1.377 . S
C4807 C4806 1.524 . S
C4807 C4808 1.397 . S
C4807 C4812 1.363 . S
C4808 H4785 0.950 . S
C4808 C4807 1.397 . S
C4808 C4809 1.334 . S
C4809 H4786 0.950 . S
C4809 C4808 1.334 . S
C4809 C4810 1.287 . S
C4810 C4809 1.287 . S
C4810 C4811 1.524 . S
C4810 H4829 0.913 . S
C4811 H4787 0.950 . S
C4811 C4810 1.524 . S
C4811 C4812 1.415 . S
C4812 H4788 0.950 . S
C4812 C4807 1.363 . S
C4812 C4811 1.415 . S
C4813 H4789 0.951 . S
C4813 C4814 1.366 . S
C4813 C4815 1.388 . S
C4814 C4813 1.366 . S
C4814 C4818 1.385 . S
C4815 H4790 0.951 . S
C4815 C4813 1.388 . S
C4815 C4816 1.366 . S
C4816 C4815 1.366 . S
C4816 C4817 1.414 . S
C4816 C4819 1.499 . S
C4817 H4791 0.950 . S
C4817 C4816 1.414 . S
C4817 C4818 1.374 . S
C4818 H4792 0.950 . S
C4818 C4814 1.385 . S
C4818 C4817 1.374 . S
C4819 C4816 1.499 . S
C4819 C4820 1.373 . S
C4819 C4821 1.389 . S
C4820 H4793 0.950 . S
C4820 C4806 1.377 . S
C4820 C4819 1.373 . S
C4821 C4805 1.377 . S
C4821 C4819 1.389 . S
C4821 C4822 1.524 . S
C4822 C4821 1.524 . S
C4822 C4823 1.397 . S
C4822 C4827 1.363 . S
C4823 H4794 0.950 . S
C4823 C4822 1.397 . S
C4823 C4824 1.334 . S
C4824 H4795 0.950 . S
C4824 C4823 1.334 . S
C4824 C4825 1.287 . S
C4825 C4824 1.287 . S
C4825 C4826 1.524 . S
C4825 H4828 0.999 . S
C4826 H4796 0.950 . S
C4826 C4825 1.524 . S
C4826 C4827 1.415 . S
C4827 H4797 0.950 . S
C4827 C4822 1.363 . S
C4827 C4826 1.415 . S
H4828 C4825 0.999 . S
H4829 C4810 0.913 . S
H4830 C4848 0.951 . S
H4831 C4850 0.951 . S
H4832 C4852 0.950 . S
H4833 C4853 0.950 . S
H4834 C4855 0.950 . S
H4835 C4858 0.950 . S
H4836 C4859 0.950 . S
H4837 C4861 0.950 . S
H4838 C4862 0.950 . S
H4839 C4863 0.951 . S
H4840 C4865 0.951 . S
H4841 C4867 0.950 . S
H4842 C4868 0.950 . S
H4843 C4870 0.950 . S
H4844 C4873 0.950 . S
H4845 C4874 0.950 . S
H4846 C4876 0.950 . S
H4847 C4877 0.950 . S
C4848 H4830 0.951 . S
C4848 C4849 1.366 . S
C4848 C4850 1.388 . S
C4849 C4848 1.366 . S
C4849 C4853 1.385 . S
C4850 H4831 0.951 . S
C4850 C4848 1.388 . S
C4850 C4851 1.366 . S
C4851 C4850 1.366 . S
C4851 C4852 1.414 . S
C4851 C4854 1.499 . S
C4852 H4832 0.950 . S
C4852 C4851 1.414 . S
C4852 C4853 1.374 . S
C4853 H4833 0.950 . S
C4853 C4849 1.385 . S
C4853 C4852 1.374 . S
C4854 C4851 1.499 . S
C4854 C4855 1.373 . S
C4854 C4856 1.389 . S
C4855 H4834 0.950 . S
C4855 C4854 1.373 . S
C4855 C4871 1.377 . S
C4856 C4854 1.389 . S
C4856 C4857 1.524 . S
C4856 C4870 1.377 . S
C4857 C4856 1.524 . S
C4857 C4858 1.397 . S
C4857 C4862 1.363 . S
C4858 H4835 0.950 . S
C4858 C4857 1.397 . S
C4858 C4859 1.334 . S
C4859 H4836 0.950 . S
C4859 C4858 1.334 . S
C4859 C4860 1.287 . S
C4860 C4859 1.287 . S
C4860 C4861 1.524 . S
C4860 H4879 0.913 . S
C4861 H4837 0.950 . S
C4861 C4860 1.524 . S
C4861 C4862 1.415 . S
C4862 H4838 0.950 . S
C4862 C4857 1.363 . S
C4862 C4861 1.415 . S
C4863 H4839 0.951 . S
C4863 C4864 1.366 . S
C4863 C4865 1.388 . S
C4864 C4863 1.366 . S
C4864 C4868 1.385 . S
C4865 H4840 0.951 . S
C4865 C4863 1.388 . S
C4865 C4866 1.366 . S
C4866 C4865 1.366 . S
C4866 C4867 1.414 . S
C4866 C4869 1.499 . S
C4867 H4841 0.950 . S
C4867 C4866 1.414 . S
C4867 C4868 1.374 . S
C4868 H4842 0.950 . S
C4868 C4864 1.385 . S
C4868 C4867 1.374 . S
C4869 C4866 1.499 . S
C4869 C4870 1.373 . S
C4869 C4871 1.389 . S
C4870 H4843 0.950 . S
C4870 C4856 1.377 . S
C4870 C4869 1.373 . S
C4871 C4855 1.377 . S
C4871 C4869 1.389 . S
C4871 C4872 1.524 . S
C4872 C4871 1.524 . S
C4872 C4873 1.397 . S
C4872 C4877 1.363 . S
C4873 H4844 0.950 . S
C4873 C4872 1.397 . S
C4873 C4874 1.334 . S
C4874 H4845 0.950 . S
C4874 C4873 1.334 . S
C4874 C4875 1.287 . S
C4875 C4874 1.287 . S
C4875 C4876 1.524 . S
C4875 H4878 0.999 . S
C4876 H4846 0.950 . S
C4876 C4875 1.524 . S
C4876 C4877 1.415 . S
C4877 H4847 0.950 . S
C4877 C4872 1.363 . S
C4877 C4876 1.415 . S
H4878 C4875 0.999 . S
H4879 C4860 0.913 . S
H4880 C4898 0.951 . S
H4881 C4900 0.951 . S
H4882 C4902 0.950 . S
H4883 C4903 0.950 . S
H4884 C4905 0.950 . S
H4885 C4908 0.950 . S
H4886 C4909 0.950 . S
H4887 C4911 0.950 . S
H4888 C4912 0.950 . S
H4889 C4913 0.951 . S
H4890 C4915 0.951 . S
H4891 C4917 0.950 . S
H4892 C4918 0.950 . S
H4893 C4920 0.950 . S
H4894 C4923 0.950 . S
H4895 C4924 0.950 . S
H4896 C4926 0.950 . S
H4897 C4927 0.950 . S
C4898 H4880 0.951 . S
C4898 C4899 1.366 . S
C4898 C4900 1.388 . S
C4899 C4898 1.366 . S
C4899 C4903 1.385 . S
C4900 H4881 0.951 . S
C4900 C4898 1.388 . S
C4900 C4901 1.366 . S
C4901 C4900 1.366 . S
C4901 C4902 1.414 . S
C4901 C4904 1.499 . S
C4902 H4882 0.950 . S
C4902 C4901 1.414 . S
C4902 C4903 1.374 . S
C4903 H4883 0.950 . S
C4903 C4899 1.385 . S
C4903 C4902 1.374 . S
C4904 C4901 1.499 . S
C4904 C4905 1.373 . S
C4904 C4906 1.389 . S
C4905 H4884 0.950 . S
C4905 C4904 1.373 . S
C4905 C4921 1.377 . S
C4906 C4904 1.389 . S
C4906 C4907 1.524 . S
C4906 C4920 1.377 . S
C4907 C4906 1.524 . S
C4907 C4908 1.397 . S
C4907 C4912 1.363 . S
C4908 H4885 0.950 . S
C4908 C4907 1.397 . S
C4908 C4909 1.334 . S
C4909 H4886 0.950 . S
C4909 C4908 1.334 . S
C4909 C4910 1.287 . S
C4910 C4909 1.287 . S
C4910 C4911 1.524 . S
C4910 H4929 0.913 . S
C4911 H4887 0.950 . S
C4911 C4910 1.524 . S
C4911 C4912 1.415 . S
C4912 H4888 0.950 . S
C4912 C4907 1.363 . S
C4912 C4911 1.415 . S
C4913 H4889 0.951 . S
C4913 C4914 1.366 . S
C4913 C4915 1.388 . S
C4914 C4913 1.366 . S
C4914 C4918 1.385 . S
C4915 H4890 0.951 . S
C4915 C4913 1.388 . S
C4915 C4916 1.366 . S
C4916 C4915 1.366 . S
C4916 C4917 1.414 . S
C4916 C4919 1.499 . S
C4917 H4891 0.950 . S
C4917 C4916 1.414 . S
C4917 C4918 1.374 . S
C4918 H4892 0.950 . S
C4918 C4914 1.385 . S
C4918 C4917 1.374 . S
C4919 C4916 1.499 . S
C4919 C4920 1.373 . S
C4919 C4921 1.389 . S
C4920 H4893 0.950 . S
C4920 C4906 1.377 . S
C4920 C4919 1.373 . S
C4921 C4905 1.377 . S
C4921 C4919 1.389 . S
C4921 C4922 1.524 . S
C4922 C4921 1.524 . S
C4922 C4923 1.397 . S
C4922 C4927 1.363 . S
C4923 H4894 0.950 . S
C4923 C4922 1.397 . S
C4923 C4924 1.334 . S
C4924 H4895 0.950 . S
C4924 C4923 1.334 . S
C4924 C4925 1.287 . S
C4925 C4924 1.287 . S
C4925 C4926 1.524 . S
C4925 H4928 0.999 . S
C4926 H4896 0.950 . S
C4926 C4925 1.524 . S
C4926 C4927 1.415 . S
C4927 H4897 0.950 . S
C4927 C4922 1.363 . S
C4927 C4926 1.415 . S
H4928 C4925 0.999 . S
H4929 C4910 0.913 . S
H4930 C4948 0.951 . S
H4931 C4950 0.951 . S
H4932 C4952 0.950 . S
H4933 C4953 0.950 . S
H4934 C4955 0.950 . S
H4935 C4958 0.950 . S
H4936 C4959 0.950 . S
H4937 C4961 0.950 . S
H4938 C4962 0.950 . S
H4939 C4963 0.951 . S
H4940 C4965 0.951 . S
H4941 C4967 0.950 . S
H4942 C4968 0.950 . S
H4943 C4970 0.950 . S
H4944 C4973 0.950 . S
H4945 C4974 0.950 . S
H4946 C4976 0.950 . S
H4947 C4977 0.950 . S
C4948 H4930 0.951 . S
C4948 C4949 1.366 . S
C4948 C4950 1.388 . S
C4949 C4948 1.366 . S
C4949 C4953 1.385 . S
C4950 H4931 0.951 . S
C4950 C4948 1.388 . S
C4950 C4951 1.366 . S
C4951 C4950 1.366 . S
C4951 C4952 1.414 . S
C4951 C4954 1.499 . S
C4952 H4932 0.950 . S
C4952 C4951 1.414 . S
C4952 C4953 1.374 . S
C4953 H4933 0.950 . S
C4953 C4949 1.385 . S
C4953 C4952 1.374 . S
C4954 C4951 1.499 . S
C4954 C4955 1.373 . S
C4954 C4956 1.389 . S
C4955 H4934 0.950 . S
C4955 C4954 1.373 . S
C4955 C4971 1.377 . S
C4956 C4954 1.389 . S
C4956 C4957 1.524 . S
C4956 C4970 1.377 . S
C4957 C4956 1.524 . S
C4957 C4958 1.397 . S
C4957 C4962 1.363 . S
C4958 H4935 0.950 . S
C4958 C4957 1.397 . S
C4958 C4959 1.334 . S
C4959 H4936 0.950 . S
C4959 C4958 1.334 . S
C4959 C4960 1.287 . S
C4960 C4959 1.287 . S
C4960 C4961 1.524 . S
C4960 H4979 0.913 . S
C4961 H4937 0.950 . S
C4961 C4960 1.524 . S
C4961 C4962 1.415 . S
C4962 H4938 0.950 . S
C4962 C4957 1.363 . S
C4962 C4961 1.415 . S
C4963 H4939 0.951 . S
C4963 C4964 1.366 . S
C4963 C4965 1.388 . S
C4964 C4963 1.366 . S
C4964 C4968 1.385 . S
C4965 H4940 0.951 . S
C4965 C4963 1.388 . S
C4965 C4966 1.366 . S
C4966 C4965 1.366 . S
C4966 C4967 1.414 . S
C4966 C4969 1.499 . S
C4967 H4941 0.950 . S
C4967 C4966 1.414 . S
C4967 C4968 1.374 . S
C4968 H4942 0.950 . S
C4968 C4964 1.385 . S
C4968 C4967 1.374 . S
C4969 C4966 1.499 . S
C4969 C4970 1.373 . S
C4969 C4971 1.389 . S
C4970 H4943 0.950 . S
C4970 C4956 1.377 . S
C4970 C4969 1.373 . S
C4971 C4955 1.377 . S
C4971 C4969 1.389 . S
C4971 C4972 1.524 . S
C4972 C4971 1.524 . S
C4972 C4973 1.397 . S
C4972 C4977 1.363 . S
C4973 H4944 0.950 . S
C4973 C4972 1.397 . S
C4973 C4974 1.334 . S
C4974 H4945 0.950 . S
C4974 C4973 1.334 . S
C4974 C4975 1.287 . S
C4975 C4974 1.287 . S
C4975 C4976 1.524 . S
C4975 H4978 0.999 . S
C4976 H4946 0.950 . S
C4976 C4975 1.524 . S
C4976 C4977 1.415 . S
C4977 H4947 0.950 . S
C4977 C4972 1.363 . S
C4977 C4976 1.415 . S
H4978 C4975 0.999 . S
H4979 C4960 0.913 . S
H4980 C4998 0.951 . S
H4981 C5000 0.951 . S
H4982 C5002 0.950 . S
H4983 C5003 0.950 . S
H4984 C5005 0.950 . S
H4985 C5008 0.950 . S
H4986 C5009 0.950 . S
H4987 C5011 0.950 . S
H4988 C5012 0.950 . S
H4989 C5013 0.951 . S
H4990 C5015 0.951 . S
H4991 C5017 0.950 . S
H4992 C5018 0.950 . S
H4993 C5020 0.950 . S
H4994 C5023 0.950 . S
H4995 C5024 0.950 . S
H4996 C5026 0.950 . S
H4997 C5027 0.950 . S
C4998 H4980 0.951 . S
C4998 C4999 1.366 . S
C4998 C5000 1.388 . S
C4999 C4998 1.366 . S
C4999 C5003 1.385 . S
C5000 H4981 0.951 . S
C5000 C4998 1.388 . S
C5000 C5001 1.366 . S
C5001 C5000 1.366 . S
C5001 C5002 1.414 . S
C5001 C5004 1.499 . S
C5002 H4982 0.950 . S
C5002 C5001 1.414 . S
C5002 C5003 1.374 . S
C5003 H4983 0.950 . S
C5003 C4999 1.385 . S
C5003 C5002 1.374 . S
C5004 C5001 1.499 . S
C5004 C5005 1.373 . S
C5004 C5006 1.389 . S
C5005 H4984 0.950 . S
C5005 C5004 1.373 . S
C5005 C5021 1.377 . S
C5006 C5004 1.389 . S
C5006 C5007 1.524 . S
C5006 C5020 1.377 . S
C5007 C5006 1.524 . S
C5007 C5008 1.397 . S
C5007 C5012 1.363 . S
C5008 H4985 0.950 . S
C5008 C5007 1.397 . S
C5008 C5009 1.334 . S
C5009 H4986 0.950 . S
C5009 C5008 1.334 . S
C5009 C5010 1.287 . S
C5010 C5009 1.287 . S
C5010 C5011 1.524 . S
C5010 H5029 0.913 1_565 S
C5011 H4987 0.950 . S
C5011 C5010 1.524 . S
C5011 C5012 1.415 . S
C5012 H4988 0.950 . S
C5012 C5007 1.363 . S
C5012 C5011 1.415 . S
C5013 H4989 0.951 . S
C5013 C5014 1.366 . S
C5013 C5015 1.388 . S
C5014 C5013 1.366 . S
C5014 C5018 1.385 . S
C5015 H4990 0.951 . S
C5015 C5013 1.388 . S
C5015 C5016 1.366 . S
C5016 C5015 1.366 . S
C5016 C5017 1.414 . S
C5016 C5019 1.499 . S
C5017 H4991 0.950 . S
C5017 C5016 1.414 . S
C5017 C5018 1.374 . S
C5018 H4992 0.950 . S
C5018 C5014 1.385 . S
C5018 C5017 1.374 . S
C5019 C5016 1.499 . S
C5019 C5020 1.373 . S
C5019 C5021 1.389 . S
C5020 H4993 0.950 . S
C5020 C5006 1.377 . S
C5020 C5019 1.373 . S
C5021 C5005 1.377 . S
C5021 C5019 1.389 . S
C5021 C5022 1.524 . S
C5022 C5021 1.524 . S
C5022 C5023 1.397 . S
C5022 C5027 1.363 . S
C5023 H4994 0.950 . S
C5023 C5022 1.397 . S
C5023 C5024 1.334 . S
C5024 H4995 0.950 . S
C5024 C5023 1.334 . S
C5024 C5025 1.287 . S
C5025 C5024 1.287 . S
C5025 C5026 1.524 . S
C5025 H5028 0.999 . S
C5026 H4996 0.950 . S
C5026 C5025 1.524 . S
C5026 C5027 1.415 . S
C5027 H4997 0.950 . S
C5027 C5022 1.363 . S
C5027 C5026 1.415 . S
H5028 C5025 0.999 . S
H5029 C5010 0.913 1_545 S
H5030 C5048 0.951 . S
H5031 C5050 0.951 . S
H5032 C5052 0.959 . S
H5033 C5053 0.950 1_556 S
H5034 C5055 0.950 . S
H5035 C5058 0.950 . S
H5036 C5059 0.950 . S
H5037 C5061 0.950 . S
H5038 C5062 0.950 . S
H5039 C5063 0.951 . S
H5040 C5065 0.951 . S
H5041 C5067 0.950 . S
H5042 C5068 0.950 . S
H5043 C5070 1.005 1_556 S
H5044 C5073 0.950 . S
H5045 C5074 0.950 . S
H5046 C5076 0.950 . S
H5047 C5077 0.950 . S
C5048 H5030 0.951 . S
C5048 C5049 1.366 . S
C5048 C5050 1.388 . S
C5049 C5048 1.366 . S
C5049 C5053 1.385 . S
C5050 H5031 0.951 . S
C5050 C5048 1.388 . S
C5050 C5051 1.366 . S
C5051 C5050 1.366 . S
C5051 C5052 1.414 . S
C5051 C5054 1.499 . S
C5052 H5032 0.959 . S
C5052 C5051 1.414 . S
C5052 C5053 1.374 . S
C5053 H5033 0.950 1_554 S
C5053 C5049 1.385 . S
C5053 C5052 1.374 . S
C5054 C5051 1.499 . S
C5054 C5055 1.373 . S
C5054 C5056 1.389 1_554 S
C5055 H5034 0.950 . S
C5055 C5054 1.373 . S
C5055 C5071 1.377 . S
C5056 C5054 1.389 1_556 S
C5056 C5057 1.524 . S
C5056 C5070 1.377 1_556 S
C5057 C5056 1.524 . S
C5057 C5058 1.397 . S
C5057 C5062 1.363 1_565 S
C5058 H5035 0.950 . S
C5058 C5057 1.397 . S
C5058 C5059 1.334 . S
C5059 H5036 0.950 . S
C5059 C5058 1.334 . S
C5059 C5060 1.287 . S
C5060 C5059 1.287 . S
C5060 C5061 1.524 1_565 S
C5060 H5079 0.913 . S
C5061 H5037 0.950 . S
C5061 C5060 1.524 1_545 S
C5061 C5062 1.415 . S
C5062 H5038 0.950 . S
C5062 C5057 1.363 1_545 S
C5062 C5061 1.415 . S
C5063 H5039 0.951 . S
C5063 C5064 1.366 1_565 S
C5063 C5065 1.388 . S
C5064 C5063 1.366 1_545 S
C5064 C5068 1.385 . S
C5065 H5040 0.951 . S
C5065 C5063 1.388 . S
C5065 C5066 1.366 . S
C5066 C5065 1.366 . S
C5066 C5067 1.414 1_565 S
C5066 C5069 1.499 . S
C5067 H5041 0.950 . S
C5067 C5066 1.414 1_545 S
C5067 C5068 1.374 . S
C5068 H5042 0.950 . S
C5068 C5064 1.385 . S
C5068 C5067 1.374 . S
C5069 C5066 1.499 . S
C5069 C5070 1.373 . S
C5069 C5071 1.389 . S
C5070 H5043 1.005 1_554 S
C5070 C5056 1.377 1_554 S
C5070 C5069 1.373 . S
C5071 C5055 1.377 . S
C5071 C5069 1.389 . S
C5071 C5072 1.524 . S
C5072 C5071 1.524 . S
C5072 C5073 1.397 . S
C5072 C5077 1.363 . S
C5073 H5044 0.950 . S
C5073 C5072 1.397 . S
C5073 C5074 1.334 . S
C5074 H5045 0.950 . S
C5074 C5073 1.334 . S
C5074 C5075 1.287 . S
C5075 C5074 1.287 . S
C5075 C5076 1.524 . S
C5075 H5078 0.999 . S
C5076 H5046 0.950 . S
C5076 C5075 1.524 . S
C5076 C5077 1.415 . S
C5077 H5047 0.950 . S
C5077 C5072 1.363 . S
C5077 C5076 1.415 . S
H5078 C5075 0.999 . S
H5079 C5060 0.913 . S
H5080 C5098 0.951 . S
H5081 C5100 0.951 . S
H5082 C5102 0.950 . S
H5083 C5103 0.950 . S
H5084 C5105 0.950 . S
H5085 C5108 0.950 . S
H5086 C5109 0.950 . S
H5087 C5111 0.950 . S
H5088 C5112 0.950 . S
H5089 C5113 0.951 . S
H5090 C5115 0.951 . S
H5091 C5117 0.950 . S
H5092 C5118 0.950 . S
H5093 C5120 0.950 . S
H5094 C5123 0.950 . S
H5095 C5124 0.950 . S
H5096 C5126 0.950 . S
H5097 C5127 0.950 . S
C5098 H5080 0.951 . S
C5098 C5099 1.366 . S
C5098 C5100 1.388 . S
C5099 C5098 1.366 . S
C5099 C5103 1.385 . S
C5100 H5081 0.951 . S
C5100 C5098 1.388 . S
C5100 C5101 1.366 . S
C5101 C5100 1.366 . S
C5101 C5102 1.414 . S
C5101 C5104 1.499 . S
C5102 H5082 0.950 . S
C5102 C5101 1.414 . S
C5102 C5103 1.374 . S
C5103 H5083 0.950 . S
C5103 C5099 1.385 . S
C5103 C5102 1.374 . S
C5104 C5101 1.499 . S
C5104 C5105 1.373 . S
C5104 C5106 1.389 . S
C5105 H5084 0.950 . S
C5105 C5104 1.373 . S
C5105 C5121 1.377 . S
C5106 C5104 1.389 . S
C5106 C5107 1.524 . S
C5106 C5120 1.377 . S
C5107 C5106 1.524 . S
C5107 C5108 1.397 . S
C5107 C5112 1.363 . S
C5108 H5085 0.950 . S
C5108 C5107 1.397 . S
C5108 C5109 1.334 . S
C5109 H5086 0.950 . S
C5109 C5108 1.334 . S
C5109 C5110 1.287 . S
C5110 C5109 1.287 . S
C5110 C5111 1.524 . S
C5110 H5129 0.913 . S
C5111 H5087 0.950 . S
C5111 C5110 1.524 . S
C5111 C5112 1.415 . S
C5112 H5088 0.950 . S
C5112 C5107 1.363 . S
C5112 C5111 1.415 . S
C5113 H5089 0.951 . S
C5113 C5114 1.366 . S
C5113 C5115 1.388 . S
C5114 C5113 1.366 . S
C5114 C5118 1.385 . S
C5115 H5090 0.951 . S
C5115 C5113 1.388 . S
C5115 C5116 1.366 . S
C5116 C5115 1.366 . S
C5116 C5117 1.414 . S
C5116 C5119 1.499 . S
C5117 H5091 0.950 . S
C5117 C5116 1.414 . S
C5117 C5118 1.374 . S
C5118 H5092 0.950 . S
C5118 C5114 1.385 . S
C5118 C5117 1.374 . S
C5119 C5116 1.499 . S
C5119 C5120 1.373 . S
C5119 C5121 1.389 . S
C5120 H5093 0.950 . S
C5120 C5106 1.377 . S
C5120 C5119 1.373 . S
C5121 C5105 1.377 . S
C5121 C5119 1.389 . S
C5121 C5122 1.524 . S
C5122 C5121 1.524 . S
C5122 C5123 1.397 . S
C5122 C5127 1.363 . S
C5123 H5094 0.950 . S
C5123 C5122 1.397 . S
C5123 C5124 1.334 . S
C5124 H5095 0.950 . S
C5124 C5123 1.334 . S
C5124 C5125 1.287 . S
C5125 C5124 1.287 . S
C5125 C5126 1.524 . S
C5125 H5128 0.999 . S
C5126 H5096 0.950 . S
C5126 C5125 1.524 . S
C5126 C5127 1.415 . S
C5127 H5097 0.950 . S
C5127 C5122 1.363 . S
C5127 C5126 1.415 . S
H5128 C5125 0.999 . S
H5129 C5110 0.913 . S
H5130 C5148 0.951 . S
H5131 C5150 0.955 . S
H5132 C5152 0.950 . S
H5133 C5153 0.950 . S
H5134 C5155 0.950 . S
H5135 C5158 0.950 . S
H5136 C5159 0.950 . S
H5137 C5161 0.950 . S
H5138 C5162 0.950 . S
H5139 C5163 0.951 . S
H5140 C5165 0.951 . S
H5141 C5167 0.966 . S
H5142 C5168 0.950 . S
H5143 C5170 0.950 1_556 S
H5144 C5173 0.950 . S
H5145 C5174 0.950 . S
H5146 C5176 0.950 . S
H5147 C5177 0.950 . S
C5148 H5130 0.951 . S
C5148 C5149 1.366 1_556 S
C5148 C5150 1.388 . S
C5149 C5148 1.366 1_554 S
C5149 C5153 1.385 . S
C5150 H5131 0.955 . S
C5150 C5148 1.388 . S
C5150 C5151 1.361 1_556 S
C5151 C5150 1.361 1_554 S
C5151 C5152 1.414 . S
C5151 C5154 1.499 . S
C5152 H5132 0.950 . S
C5152 C5151 1.414 . S
C5152 C5153 1.374 . S
C5153 H5133 0.950 . S
C5153 C5149 1.385 . S
C5153 C5152 1.374 . S
C5154 C5151 1.499 . S
C5154 C5155 1.373 . S
C5154 C5156 1.389 . S
C5155 H5134 0.950 . S
C5155 C5154 1.373 . S
C5155 C5171 1.377 . S
C5156 C5154 1.389 . S
C5156 C5157 1.524 1_554 S
C5156 C5170 1.377 . S
C5157 C5156 1.524 1_556 S
C5157 C5158 1.397 . S
C5157 C5162 1.363 . S
C5158 H5135 0.950 . S
C5158 C5157 1.397 . S
C5158 C5159 1.334 . S
C5159 H5136 0.950 . S
C5159 C5158 1.334 . S
C5159 C5160 1.287 . S
C5160 C5159 1.287 . S
C5160 C5161 1.524 . S
C5160 H5179 0.913 . S
C5161 H5137 0.950 . S
C5161 C5160 1.524 . S
C5161 C5162 1.415 . S
C5162 H5138 0.950 . S
C5162 C5157 1.363 . S
C5162 C5161 1.415 . S
C5163 H5139 0.951 . S
C5163 C5164 1.366 . S
C5163 C5165 1.388 . S
C5164 C5163 1.366 . S
C5164 C5168 1.385 . S
C5165 H5140 0.951 . S
C5165 C5163 1.388 . S
C5165 C5166 1.366 . S
C5166 C5165 1.366 . S
C5166 C5167 1.414 . S
C5166 C5169 1.499 . S
C5167 H5141 0.966 . S
C5167 C5166 1.414 . S
C5167 C5168 1.374 . S
C5168 H5142 0.950 . S
C5168 C5164 1.385 . S
C5168 C5167 1.374 . S
C5169 C5166 1.499 . S
C5169 C5170 1.373 . S
C5169 C5171 1.389 . S
C5170 H5143 0.950 1_554 S
C5170 C5156 1.377 . S
C5170 C5169 1.373 . S
C5171 C5155 1.377 . S
C5171 C5169 1.389 . S
C5171 C5172 1.524 . S
C5172 C5171 1.524 . S
C5172 C5173 1.397 . S
C5172 C5177 1.363 . S
C5173 H5144 0.950 . S
C5173 C5172 1.397 . S
C5173 C5174 1.334 . S
C5174 H5145 0.950 . S
C5174 C5173 1.334 . S
C5174 C5175 1.287 . S
C5175 C5174 1.287 . S
C5175 C5176 1.524 . S
C5175 H5178 0.999 . S
C5176 H5146 0.950 . S
C5176 C5175 1.524 . S
C5176 C5177 1.415 . S
C5177 H5147 0.950 . S
C5177 C5172 1.363 . S
C5177 C5176 1.415 . S
H5178 C5175 0.999 . S
H5179 C5160 0.913 . S
H5180 C5198 0.951 . S
H5181 C5200 0.951 . S
H5182 C5202 0.950 . S
H5183 C5203 0.950 . S
H5184 C5205 0.950 . S
H5185 C5208 0.950 . S
H5186 C5209 0.950 . S
H5187 C5211 0.950 . S
H5188 C5212 0.950 . S
H5189 C5213 0.951 . S
H5190 C5215 0.951 . S
H5191 C5217 0.950 . S
H5192 C5218 0.950 . S
H5193 C5220 0.950 . S
H5194 C5223 0.950 . S
H5195 C5224 0.950 . S
H5196 C5226 0.950 . S
H5197 C5227 0.950 . S
C5198 H5180 0.951 . S
C5198 C5199 1.366 . S
C5198 C5200 1.388 . S
C5199 C5198 1.366 . S
C5199 C5203 1.385 . S
C5200 H5181 0.951 . S
C5200 C5198 1.388 . S
C5200 C5201 1.366 . S
C5201 C5200 1.366 . S
C5201 C5202 1.414 . S
C5201 C5204 1.499 . S
C5202 H5182 0.950 . S
C5202 C5201 1.414 . S
C5202 C5203 1.374 . S
C5203 H5183 0.950 . S
C5203 C5199 1.385 . S
C5203 C5202 1.374 . S
C5204 C5201 1.499 . S
C5204 C5205 1.373 . S
C5204 C5206 1.389 . S
C5205 H5184 0.950 . S
C5205 C5204 1.373 . S
C5205 C5221 1.377 . S
C5206 C5204 1.389 . S
C5206 C5207 1.524 . S
C5206 C5220 1.377 . S
C5207 C5206 1.524 . S
C5207 C5208 1.397 . S
C5207 C5212 1.363 . S
C5208 H5185 0.950 . S
C5208 C5207 1.397 . S
C5208 C5209 1.334 . S
C5209 H5186 0.950 . S
C5209 C5208 1.334 . S
C5209 C5210 1.287 . S
C5210 C5209 1.287 . S
C5210 C5211 1.524 . S
C5210 H5229 0.913 . S
C5211 H5187 0.950 . S
C5211 C5210 1.524 . S
C5211 C5212 1.415 . S
C5212 H5188 0.950 . S
C5212 C5207 1.363 . S
C5212 C5211 1.415 . S
C5213 H5189 0.951 . S
C5213 C5214 1.366 . S
C5213 C5215 1.388 . S
C5214 C5213 1.366 . S
C5214 C5218 1.385 . S
C5215 H5190 0.951 . S
C5215 C5213 1.388 . S
C5215 C5216 1.366 . S
C5216 C5215 1.366 . S
C5216 C5217 1.414 . S
C5216 C5219 1.499 . S
C5217 H5191 0.950 . S
C5217 C5216 1.414 . S
C5217 C5218 1.374 . S
C5218 H5192 0.950 . S
C5218 C5214 1.385 . S
C5218 C5217 1.374 . S
C5219 C5216 1.499 . S
C5219 C5220 1.373 . S
C5219 C5221 1.389 . S
C5220 H5193 0.950 . S
C5220 C5206 1.377 . S
C5220 C5219 1.373 . S
C5221 C5205 1.377 . S
C5221 C5219 1.389 . S
C5221 C5222 1.524 . S
C5222 C5221 1.524 . S
C5222 C5223 1.397 . S
C5222 C5227 1.363 . S
C5223 H5194 0.950 . S
C5223 C5222 1.397 . S
C5223 C5224 1.334 . S
C5224 H5195 0.950 . S
C5224 C5223 1.334 . S
C5224 C5225 1.287 . S
C5225 C5224 1.287 . S
C5225 C5226 1.524 . S
C5225 H5228 0.999 . S
C5226 H5196 0.950 . S
C5226 C5225 1.524 . S
C5226 C5227 1.415 . S
C5227 H5197 0.950 . S
C5227 C5222 1.363 . S
C5227 C5226 1.415 . S
H5228 C5225 0.999 . S
H5229 C5210 0.913 . S
H5230 C5248 0.951 . S
H5231 C5250 0.951 . S
H5232 C5252 0.950 . S
H5233 C5253 0.950 . S
H5234 C5255 0.950 . S
H5235 C5258 0.950 . S
H5236 C5259 0.950 . S
H5237 C5261 0.950 . S
H5238 C5262 0.950 . S
H5239 C5263 0.951 . S
H5240 C5265 0.951 . S
H5241 C5267 0.950 . S
H5242 C5268 0.950 . S
H5243 C5270 0.950 . S
H5244 C5273 0.950 . S
H5245 C5274 0.950 . S
H5246 C5276 0.950 . S
H5247 C5277 0.950 . S
C5248 H5230 0.951 . S
C5248 C5249 1.366 . S
C5248 C5250 1.388 . S
C5249 C5248 1.366 . S
C5249 C5253 1.385 . S
C5250 H5231 0.951 . S
C5250 C5248 1.388 . S
C5250 C5251 1.366 . S
C5251 C5250 1.366 . S
C5251 C5252 1.414 . S
C5251 C5254 1.499 . S
C5252 H5232 0.950 . S
C5252 C5251 1.414 . S
C5252 C5253 1.374 . S
C5253 H5233 0.950 . S
C5253 C5249 1.385 . S
C5253 C5252 1.374 . S
C5254 C5251 1.499 . S
C5254 C5255 1.373 . S
C5254 C5256 1.389 . S
C5255 H5234 0.950 . S
C5255 C5254 1.373 . S
C5255 C5271 1.377 . S
C5256 C5254 1.389 . S
C5256 C5257 1.524 . S
C5256 C5270 1.377 . S
C5257 C5256 1.524 . S
C5257 C5258 1.397 . S
C5257 C5262 1.363 . S
C5258 H5235 0.950 . S
C5258 C5257 1.397 . S
C5258 C5259 1.334 . S
C5259 H5236 0.950 . S
C5259 C5258 1.334 . S
C5259 C5260 1.287 . S
C5260 C5259 1.287 . S
C5260 C5261 1.524 . S
C5260 H5279 0.913 . S
C5261 H5237 0.950 . S
C5261 C5260 1.524 . S
C5261 C5262 1.415 . S
C5262 H5238 0.950 . S
C5262 C5257 1.363 . S
C5262 C5261 1.415 . S
C5263 H5239 0.951 . S
C5263 C5264 1.366 . S
C5263 C5265 1.388 . S
C5264 C5263 1.366 . S
C5264 C5268 1.385 . S
C5265 H5240 0.951 . S
C5265 C5263 1.388 . S
C5265 C5266 1.366 . S
C5266 C5265 1.366 . S
C5266 C5267 1.414 . S
C5266 C5269 1.499 . S
C5267 H5241 0.950 . S
C5267 C5266 1.414 . S
C5267 C5268 1.374 . S
C5268 H5242 0.950 . S
C5268 C5264 1.385 . S
C5268 C5267 1.374 . S
C5269 C5266 1.499 . S
C5269 C5270 1.373 . S
C5269 C5271 1.389 . S
C5270 H5243 0.950 . S
C5270 C5256 1.377 . S
C5270 C5269 1.373 . S
C5271 C5255 1.377 . S
C5271 C5269 1.389 . S
C5271 C5272 1.524 . S
C5272 C5271 1.524 . S
C5272 C5273 1.397 . S
C5272 C5277 1.363 . S
C5273 H5244 0.950 . S
C5273 C5272 1.397 . S
C5273 C5274 1.334 . S
C5274 H5245 0.950 . S
C5274 C5273 1.334 . S
C5274 C5275 1.287 . S
C5275 C5274 1.287 . S
C5275 C5276 1.524 . S
C5275 H5278 0.999 . S
C5276 H5246 0.950 . S
C5276 C5275 1.524 . S
C5276 C5277 1.415 . S
C5277 H5247 0.950 . S
C5277 C5272 1.363 . S
C5277 C5276 1.415 . S
H5278 C5275 0.999 . S
H5279 C5260 0.913 . S
H5280 C5298 0.951 . S
H5281 C5300 0.951 . S
H5282 C5302 0.950 . S
H5283 C5303 0.950 . S
H5284 C5305 0.950 . S
H5285 C5308 0.950 . S
H5286 C5309 0.950 . S
H5287 C5311 0.950 . S
H5288 C5312 0.950 . S
H5289 C5313 0.951 . S
H5290 C5315 0.951 . S
H5291 C5317 0.950 . S
H5292 C5318 0.950 . S
H5293 C5320 0.950 . S
H5294 C5323 0.950 . S
H5295 C5324 0.950 . S
H5296 C5326 0.950 . S
H5297 C5327 0.950 . S
C5298 H5280 0.951 . S
C5298 C5299 1.366 . S
C5298 C5300 1.388 . S
C5299 C5298 1.366 . S
C5299 C5303 1.385 . S
C5300 H5281 0.951 . S
C5300 C5298 1.388 . S
C5300 C5301 1.366 . S
C5301 C5300 1.366 . S
C5301 C5302 1.414 . S
C5301 C5304 1.499 . S
C5302 H5282 0.950 . S
C5302 C5301 1.414 . S
C5302 C5303 1.374 . S
C5303 H5283 0.950 . S
C5303 C5299 1.385 . S
C5303 C5302 1.374 . S
C5304 C5301 1.499 . S
C5304 C5305 1.373 . S
C5304 C5306 1.389 . S
C5305 H5284 0.950 . S
C5305 C5304 1.373 . S
C5305 C5321 1.377 . S
C5306 C5304 1.389 . S
C5306 C5307 1.524 . S
C5306 C5320 1.377 . S
C5307 C5306 1.524 . S
C5307 C5308 1.397 . S
C5307 C5312 1.363 . S
C5308 H5285 0.950 . S
C5308 C5307 1.397 . S
C5308 C5309 1.334 . S
C5309 H5286 0.950 . S
C5309 C5308 1.334 . S
C5309 C5310 1.287 . S
C5310 C5309 1.287 . S
C5310 C5311 1.524 . S
C5310 H5329 0.913 . S
C5311 H5287 0.950 . S
C5311 C5310 1.524 . S
C5311 C5312 1.415 . S
C5312 H5288 0.950 . S
C5312 C5307 1.363 . S
C5312 C5311 1.415 . S
C5313 H5289 0.951 . S
C5313 C5314 1.366 . S
C5313 C5315 1.388 . S
C5314 C5313 1.366 . S
C5314 C5318 1.385 . S
C5315 H5290 0.951 . S
C5315 C5313 1.388 . S
C5315 C5316 1.366 . S
C5316 C5315 1.366 . S
C5316 C5317 1.414 . S
C5316 C5319 1.499 . S
C5317 H5291 0.950 . S
C5317 C5316 1.414 . S
C5317 C5318 1.374 . S
C5318 H5292 0.950 . S
C5318 C5314 1.385 . S
C5318 C5317 1.374 . S
C5319 C5316 1.499 . S
C5319 C5320 1.373 . S
C5319 C5321 1.389 . S
C5320 H5293 0.950 . S
C5320 C5306 1.377 . S
C5320 C5319 1.373 . S
C5321 C5305 1.377 . S
C5321 C5319 1.389 . S
C5321 C5322 1.524 . S
C5322 C5321 1.524 . S
C5322 C5323 1.397 . S
C5322 C5327 1.363 . S
C5323 H5294 0.950 . S
C5323 C5322 1.397 . S
C5323 C5324 1.334 . S
C5324 H5295 0.950 . S
C5324 C5323 1.334 . S
C5324 C5325 1.287 . S
C5325 C5324 1.287 . S
C5325 C5326 1.524 . S
C5325 H5328 0.999 . S
C5326 H5296 0.950 . S
C5326 C5325 1.524 . S
C5326 C5327 1.415 . S
C5327 H5297 0.950 . S
C5327 C5322 1.363 . S
C5327 C5326 1.415 . S
H5328 C5325 0.999 . S
H5329 C5310 0.913 . S
H5330 C5348 0.951 . S
H5331 C5350 0.951 . S
H5332 C5352 0.950 . S
H5333 C5353 0.950 . S
H5334 C5355 0.950 . S
H5335 C5358 0.950 . S
H5336 C5359 0.950 . S
H5337 C5361 0.950 . S
H5338 C5362 0.950 . S
H5339 C5363 0.951 . S
H5340 C5365 0.951 . S
H5341 C5367 0.950 . S
H5342 C5368 0.950 . S
H5343 C5370 0.950 . S
H5344 C5373 0.950 . S
H5345 C5374 0.950 . S
H5346 C5376 0.950 . S
H5347 C5377 0.950 . S
C5348 H5330 0.951 . S
C5348 C5349 1.366 . S
C5348 C5350 1.388 . S
C5349 C5348 1.366 . S
C5349 C5353 1.385 . S
C5350 H5331 0.951 . S
C5350 C5348 1.388 . S
C5350 C5351 1.366 . S
C5351 C5350 1.366 . S
C5351 C5352 1.414 . S
C5351 C5354 1.499 . S
C5352 H5332 0.950 . S
C5352 C5351 1.414 . S
C5352 C5353 1.374 . S
C5353 H5333 0.950 . S
C5353 C5349 1.385 . S
C5353 C5352 1.374 . S
C5354 C5351 1.499 . S
C5354 C5355 1.373 . S
C5354 C5356 1.389 . S
C5355 H5334 0.950 . S
C5355 C5354 1.373 . S
C5355 C5371 1.377 . S
C5356 C5354 1.389 . S
C5356 C5357 1.524 . S
C5356 C5370 1.377 . S
C5357 C5356 1.524 . S
C5357 C5358 1.397 . S
C5357 C5362 1.363 . S
C5358 H5335 0.950 . S
C5358 C5357 1.397 . S
C5358 C5359 1.334 . S
C5359 H5336 0.950 . S
C5359 C5358 1.334 . S
C5359 C5360 1.287 . S
C5360 C5359 1.287 . S
C5360 C5361 1.524 . S
C5360 H5379 0.913 . S
C5361 H5337 0.950 . S
C5361 C5360 1.524 . S
C5361 C5362 1.415 . S
C5362 H5338 0.950 . S
C5362 C5357 1.363 . S
C5362 C5361 1.415 . S
C5363 H5339 0.951 . S
C5363 C5364 1.366 . S
C5363 C5365 1.388 . S
C5364 C5363 1.366 . S
C5364 C5368 1.385 . S
C5365 H5340 0.951 . S
C5365 C5363 1.388 . S
C5365 C5366 1.366 . S
C5366 C5365 1.366 . S
C5366 C5367 1.414 . S
C5366 C5369 1.499 . S
C5367 H5341 0.950 . S
C5367 C5366 1.414 . S
C5367 C5368 1.374 . S
C5368 H5342 0.950 . S
C5368 C5364 1.385 . S
C5368 C5367 1.374 . S
C5369 C5366 1.499 . S
C5369 C5370 1.373 . S
C5369 C5371 1.389 . S
C5370 H5343 0.950 . S
C5370 C5356 1.377 . S
C5370 C5369 1.373 . S
C5371 C5355 1.377 . S
C5371 C5369 1.389 . S
C5371 C5372 1.524 . S
C5372 C5371 1.524 . S
C5372 C5373 1.397 . S
C5372 C5377 1.363 . S
C5373 H5344 0.950 . S
C5373 C5372 1.397 . S
C5373 C5374 1.334 . S
C5374 H5345 0.950 . S
C5374 C5373 1.334 . S
C5374 C5375 1.287 . S
C5375 C5374 1.287 . S
C5375 C5376 1.524 . S
C5375 H5378 0.999 . S
C5376 H5346 0.950 . S
C5376 C5375 1.524 . S
C5376 C5377 1.415 . S
C5377 H5347 0.950 . S
C5377 C5372 1.363 . S
C5377 C5376 1.415 . S
H5378 C5375 0.999 . S
H5379 C5360 0.913 . S
H5380 C5398 0.951 . S
H5381 C5400 0.951 . S
H5382 C5402 0.950 . S
H5383 C5403 0.950 . S
H5384 C5405 0.950 . S
H5385 C5408 0.950 1_455 S
H5386 C5409 0.950 . S
H5387 C5411 0.950 . S
H5388 C5412 0.950 . S
H5389 C5413 0.951 . S
H5390 C5415 0.951 . S
H5391 C5417 0.950 . S
H5392 C5418 0.950 . S
H5393 C5420 0.950 . S
H5394 C5423 0.950 . S
H5395 C5424 0.950 . S
H5396 C5426 0.950 . S
H5397 C5427 0.950 . S
C5398 H5380 0.951 . S
C5398 C5399 1.366 . S
C5398 C5400 1.388 . S
C5399 C5398 1.366 . S
C5399 C5403 1.385 . S
C5400 H5381 0.951 . S
C5400 C5398 1.388 . S
C5400 C5401 1.366 . S
C5401 C5400 1.366 . S
C5401 C5402 1.414 . S
C5401 C5404 1.499 . S
C5402 H5382 0.950 . S
C5402 C5401 1.414 . S
C5402 C5403 1.374 . S
C5403 H5383 0.950 . S
C5403 C5399 1.385 . S
C5403 C5402 1.374 . S
C5404 C5401 1.499 . S
C5404 C5405 1.373 . S
C5404 C5406 1.389 . S
C5405 H5384 0.950 . S
C5405 C5404 1.373 . S
C5405 C5421 1.377 . S
C5406 C5404 1.389 . S
C5406 C5407 1.524 . S
C5406 C5420 1.377 . S
C5407 C5406 1.524 . S
C5407 C5408 1.397 1_455 S
C5407 C5412 1.363 1_455 S
C5408 H5385 0.950 1_655 S
C5408 C5407 1.397 1_655 S
C5408 C5409 1.334 . S
C5409 H5386 0.950 . S
C5409 C5408 1.334 . S
C5409 C5410 1.287 . S
C5410 C5409 1.287 . S
C5410 C5411 1.524 . S
C5410 H5429 0.913 . S
C5411 H5387 0.950 . S
C5411 C5410 1.524 . S
C5411 C5412 1.415 . S
C5412 H5388 0.950 . S
C5412 C5407 1.363 1_655 S
C5412 C5411 1.415 . S
C5413 H5389 0.951 . S
C5413 C5414 1.366 . S
C5413 C5415 1.388 . S
C5414 C5413 1.366 . S
C5414 C5418 1.385 . S
C5415 H5390 0.951 . S
C5415 C5413 1.388 . S
C5415 C5416 1.366 . S
C5416 C5415 1.366 . S
C5416 C5417 1.414 . S
C5416 C5419 1.499 . S
C5417 H5391 0.950 . S
C5417 C5416 1.414 . S
C5417 C5418 1.374 . S
C5418 H5392 0.950 . S
C5418 C5414 1.385 . S
C5418 C5417 1.374 . S
C5419 C5416 1.499 . S
C5419 C5420 1.373 . S
C5419 C5421 1.389 . S
C5420 H5393 0.950 . S
C5420 C5406 1.377 . S
C5420 C5419 1.373 . S
C5421 C5405 1.377 . S
C5421 C5419 1.389 . S
C5421 C5422 1.524 . S
C5422 C5421 1.524 . S
C5422 C5423 1.397 . S
C5422 C5427 1.363 . S
C5423 H5394 0.950 . S
C5423 C5422 1.397 . S
C5423 C5424 1.334 . S
C5424 H5395 0.950 . S
C5424 C5423 1.334 . S
C5424 C5425 1.287 . S
C5425 C5424 1.287 . S
C5425 C5426 1.524 . S
C5425 H5428 0.999 . S
C5426 H5396 0.950 . S
C5426 C5425 1.524 . S
C5426 C5427 1.415 . S
C5427 H5397 0.950 . S
C5427 C5422 1.363 . S
C5427 C5426 1.415 . S
H5428 C5425 0.999 . S
H5429 C5410 0.913 . S
H5430 C5448 0.951 . S
H5431 C5450 0.951 . S
H5432 C5452 0.950 . S
H5433 C5453 0.950 . S
H5434 C5455 0.950 . S
H5435 C5458 0.950 . S
H5436 C5459 0.950 . S
H5437 C5461 0.950 . S
H5438 C5462 0.950 . S
H5439 C5463 0.951 . S
H5440 C5465 0.951 . S
H5441 C5467 0.950 . S
H5442 C5468 0.950 . S
H5443 C5470 0.950 . S
H5444 C5473 0.950 . S
H5445 C5474 0.950 . S
H5446 C5476 0.950 . S
H5447 C5477 0.950 . S
C5448 H5430 0.951 . S
C5448 C5449 1.366 . S
C5448 C5450 1.388 . S
C5449 C5448 1.366 . S
C5449 C5453 1.385 . S
C5450 H5431 0.951 . S
C5450 C5448 1.388 . S
C5450 C5451 1.366 . S
C5451 C5450 1.366 . S
C5451 C5452 1.414 . S
C5451 C5454 1.499 . S
C5452 H5432 0.950 . S
C5452 C5451 1.414 . S
C5452 C5453 1.374 . S
C5453 H5433 0.950 . S
C5453 C5449 1.385 . S
C5453 C5452 1.374 . S
C5454 C5451 1.499 . S
C5454 C5455 1.373 . S
C5454 C5456 1.389 . S
C5455 H5434 0.950 . S
C5455 C5454 1.373 . S
C5455 C5471 1.377 . S
C5456 C5454 1.389 . S
C5456 C5457 1.524 . S
C5456 C5470 1.377 . S
C5457 C5456 1.524 . S
C5457 C5458 1.397 . S
C5457 C5462 1.363 . S
C5458 H5435 0.950 . S
C5458 C5457 1.397 . S
C5458 C5459 1.334 . S
C5459 H5436 0.950 . S
C5459 C5458 1.334 . S
C5459 C5460 1.287 . S
C5460 C5459 1.287 . S
C5460 C5461 1.524 . S
C5460 H5479 0.913 . S
C5461 H5437 0.950 . S
C5461 C5460 1.524 . S
C5461 C5462 1.415 . S
C5462 H5438 0.950 . S
C5462 C5457 1.363 . S
C5462 C5461 1.415 . S
C5463 H5439 0.951 . S
C5463 C5464 1.366 . S
C5463 C5465 1.388 . S
C5464 C5463 1.366 . S
C5464 C5468 1.385 . S
C5465 H5440 0.951 . S
C5465 C5463 1.388 . S
C5465 C5466 1.366 . S
C5466 C5465 1.366 . S
C5466 C5467 1.414 . S
C5466 C5469 1.499 . S
C5467 H5441 0.950 . S
C5467 C5466 1.414 . S
C5467 C5468 1.374 . S
C5468 H5442 0.950 . S
C5468 C5464 1.385 . S
C5468 C5467 1.374 . S
C5469 C5466 1.499 . S
C5469 C5470 1.373 . S
C5469 C5471 1.389 . S
C5470 H5443 0.950 . S
C5470 C5456 1.377 . S
C5470 C5469 1.373 . S
C5471 C5455 1.377 . S
C5471 C5469 1.389 . S
C5471 C5472 1.524 . S
C5472 C5471 1.524 . S
C5472 C5473 1.397 . S
C5472 C5477 1.363 . S
C5473 H5444 0.950 . S
C5473 C5472 1.397 . S
C5473 C5474 1.334 . S
C5474 H5445 0.950 . S
C5474 C5473 1.334 . S
C5474 C5475 1.287 . S
C5475 C5474 1.287 . S
C5475 C5476 1.524 . S
C5475 H5478 0.999 . S
C5476 H5446 0.950 . S
C5476 C5475 1.524 . S
C5476 C5477 1.415 . S
C5477 H5447 0.950 . S
C5477 C5472 1.363 . S
C5477 C5476 1.415 . S
H5478 C5475 0.999 . S
H5479 C5460 0.913 . S
H5480 C5498 0.951 . S
H5481 C5500 0.951 . S
H5482 C5502 0.950 . S
H5483 C5503 0.950 . S
H5484 C5505 0.950 . S
H5485 C5508 0.950 . S
H5486 C5509 0.950 . S
H5487 C5511 0.950 . S
H5488 C5512 0.950 . S
H5489 C5513 0.951 . S
H5490 C5515 0.951 . S
H5491 C5517 0.950 . S
H5492 C5518 0.950 . S
H5493 C5520 0.950 . S
H5494 C5523 0.950 . S
H5495 C5524 0.950 . S
H5496 C5526 0.950 . S
H5497 C5527 0.950 . S
C5498 H5480 0.951 . S
C5498 C5499 1.366 . S
C5498 C5500 1.388 . S
C5499 C5498 1.366 . S
C5499 C5503 1.385 . S
C5500 H5481 0.951 . S
C5500 C5498 1.388 . S
C5500 C5501 1.366 . S
C5501 C5500 1.366 . S
C5501 C5502 1.414 . S
C5501 C5504 1.499 . S
C5502 H5482 0.950 . S
C5502 C5501 1.414 . S
C5502 C5503 1.374 . S
C5503 H5483 0.950 . S
C5503 C5499 1.385 . S
C5503 C5502 1.374 . S
C5504 C5501 1.499 . S
C5504 C5505 1.373 . S
C5504 C5506 1.389 . S
C5505 H5484 0.950 . S
C5505 C5504 1.373 . S
C5505 C5521 1.377 . S
C5506 C5504 1.389 . S
C5506 C5507 1.524 . S
C5506 C5520 1.377 . S
C5507 C5506 1.524 . S
C5507 C5508 1.397 . S
C5507 C5512 1.363 . S
C5508 H5485 0.950 . S
C5508 C5507 1.397 . S
C5508 C5509 1.334 . S
C5509 H5486 0.950 . S
C5509 C5508 1.334 . S
C5509 C5510 1.287 . S
C5510 C5509 1.287 . S
C5510 C5511 1.524 . S
C5510 H5529 0.913 . S
C5511 H5487 0.950 . S
C5511 C5510 1.524 . S
C5511 C5512 1.415 . S
C5512 H5488 0.950 . S
C5512 C5507 1.363 . S
C5512 C5511 1.415 . S
C5513 H5489 0.951 . S
C5513 C5514 1.366 . S
C5513 C5515 1.388 . S
C5514 C5513 1.366 . S
C5514 C5518 1.385 . S
C5515 H5490 0.951 . S
C5515 C5513 1.388 . S
C5515 C5516 1.366 . S
C5516 C5515 1.366 . S
C5516 C5517 1.414 . S
C5516 C5519 1.499 . S
C5517 H5491 0.950 . S
C5517 C5516 1.414 . S
C5517 C5518 1.374 . S
C5518 H5492 0.950 . S
C5518 C5514 1.385 . S
C5518 C5517 1.374 . S
C5519 C5516 1.499 . S
C5519 C5520 1.373 . S
C5519 C5521 1.389 . S
C5520 H5493 0.950 . S
C5520 C5506 1.377 . S
C5520 C5519 1.373 . S
C5521 C5505 1.377 . S
C5521 C5519 1.389 . S
C5521 C5522 1.524 . S
C5522 C5521 1.524 . S
C5522 C5523 1.397 . S
C5522 C5527 1.363 . S
C5523 H5494 0.950 . S
C5523 C5522 1.397 . S
C5523 C5524 1.334 . S
C5524 H5495 0.950 . S
C5524 C5523 1.334 . S
C5524 C5525 1.287 . S
C5525 C5524 1.287 . S
C5525 C5526 1.524 . S
C5525 H5528 0.999 . S
C5526 H5496 0.950 . S
C5526 C5525 1.524 . S
C5526 C5527 1.415 . S
C5527 H5497 0.950 . S
C5527 C5522 1.363 . S
C5527 C5526 1.415 . S
H5528 C5525 0.999 . S
H5529 C5510 0.913 . S
H5530 C5548 0.951 . S
H5531 C5550 0.951 . S
H5532 C5552 0.950 . S
H5533 C5553 0.950 . S
H5534 C5555 0.950 . S
H5535 C5558 0.950 . S
H5536 C5559 0.950 . S
H5537 C5561 0.950 . S
H5538 C5562 0.950 . S
H5539 C5563 0.951 . S
H5540 C5565 0.951 . S
H5541 C5567 0.950 . S
H5542 C5568 0.950 . S
H5543 C5570 0.950 . S
H5544 C5573 0.950 . S
H5545 C5574 0.950 . S
H5546 C5576 0.950 . S
H5547 C5577 0.950 . S
C5548 H5530 0.951 . S
C5548 C5549 1.366 . S
C5548 C5550 1.388 . S
C5549 C5548 1.366 . S
C5549 C5553 1.385 . S
C5550 H5531 0.951 . S
C5550 C5548 1.388 . S
C5550 C5551 1.366 . S
C5551 C5550 1.366 . S
C5551 C5552 1.414 . S
C5551 C5554 1.499 . S
C5552 H5532 0.950 . S
C5552 C5551 1.414 . S
C5552 C5553 1.374 . S
C5553 H5533 0.950 . S
C5553 C5549 1.385 . S
C5553 C5552 1.374 . S
C5554 C5551 1.499 . S
C5554 C5555 1.373 . S
C5554 C5556 1.389 . S
C5555 H5534 0.950 . S
C5555 C5554 1.373 . S
C5555 C5571 1.377 . S
C5556 C5554 1.389 . S
C5556 C5557 1.524 . S
C5556 C5570 1.377 . S
C5557 C5556 1.524 . S
C5557 C5558 1.397 . S
C5557 C5562 1.363 . S
C5558 H5535 0.950 . S
C5558 C5557 1.397 . S
C5558 C5559 1.334 . S
C5559 H5536 0.950 . S
C5559 C5558 1.334 . S
C5559 C5560 1.287 . S
C5560 C5559 1.287 . S
C5560 C5561 1.524 . S
C5560 H5579 0.913 . S
C5561 H5537 0.950 . S
C5561 C5560 1.524 . S
C5561 C5562 1.415 . S
C5562 H5538 0.950 . S
C5562 C5557 1.363 . S
C5562 C5561 1.415 . S
C5563 H5539 0.951 . S
C5563 C5564 1.366 . S
C5563 C5565 1.388 . S
C5564 C5563 1.366 . S
C5564 C5568 1.385 . S
C5565 H5540 0.951 . S
C5565 C5563 1.388 . S
C5565 C5566 1.366 . S
C5566 C5565 1.366 . S
C5566 C5567 1.414 . S
C5566 C5569 1.499 . S
C5567 H5541 0.950 . S
C5567 C5566 1.414 . S
C5567 C5568 1.374 . S
C5568 H5542 0.950 . S
C5568 C5564 1.385 . S
C5568 C5567 1.374 . S
C5569 C5566 1.499 . S
C5569 C5570 1.373 . S
C5569 C5571 1.389 . S
C5570 H5543 0.950 . S
C5570 C5556 1.377 . S
C5570 C5569 1.373 . S
C5571 C5555 1.377 . S
C5571 C5569 1.389 . S
C5571 C5572 1.524 . S
C5572 C5571 1.524 . S
C5572 C5573 1.397 . S
C5572 C5577 1.363 . S
C5573 H5544 0.950 . S
C5573 C5572 1.397 . S
C5573 C5574 1.334 . S
C5574 H5545 0.950 . S
C5574 C5573 1.334 . S
C5574 C5575 1.287 . S
C5575 C5574 1.287 . S
C5575 C5576 1.524 . S
C5575 H5578 0.999 . S
C5576 H5546 0.950 . S
C5576 C5575 1.524 . S
C5576 C5577 1.415 . S
C5577 H5547 0.950 . S
C5577 C5572 1.363 . S
C5577 C5576 1.415 . S
H5578 C5575 0.999 . S
H5579 C5560 0.913 . S
H5580 C5598 0.951 . S
H5581 C5600 0.951 . S
H5582 C5602 0.950 . S
H5583 C5603 0.950 . S
H5584 C5605 0.950 . S
H5585 C5608 0.955 . S
H5586 C5609 0.950 . S
H5587 C5611 0.950 . S
H5588 C5612 0.950 . S
H5589 C5613 0.951 . S
H5590 C5615 0.951 . S
H5591 C5617 0.950 . S
H5592 C5618 0.950 . S
H5593 C5620 0.950 . S
H5594 C5623 0.950 . S
H5595 C5624 0.950 . S
H5596 C5626 0.950 . S
H5597 C5627 0.950 . S
C5598 H5580 0.951 . S
C5598 C5599 1.366 . S
C5598 C5600 1.388 . S
C5599 C5598 1.366 . S
C5599 C5603 1.385 . S
C5600 H5581 0.951 . S
C5600 C5598 1.388 . S
C5600 C5601 1.366 . S
C5601 C5600 1.366 . S
C5601 C5602 1.414 . S
C5601 C5604 1.499 . S
C5602 H5582 0.950 . S
C5602 C5601 1.414 . S
C5602 C5603 1.374 . S
C5603 H5583 0.950 . S
C5603 C5599 1.385 . S
C5603 C5602 1.374 . S
C5604 C5601 1.499 . S
C5604 C5605 1.373 . S
C5604 C5606 1.389 . S
C5605 H5584 0.950 . S
C5605 C5604 1.373 . S
C5605 C5621 1.377 . S
C5606 C5604 1.389 . S
C5606 C5607 1.524 . S
C5606 C5620 1.377 . S
C5607 C5606 1.524 . S
C5607 C5608 1.397 1_455 S
C5607 C5612 1.363 1_455 S
C5608 H5585 0.955 . S
C5608 C5607 1.397 1_655 S
C5608 C5609 1.334 . S
C5609 H5586 0.950 . S
C5609 C5608 1.334 . S
C5609 C5610 1.287 . S
C5610 C5609 1.287 . S
C5610 C5611 1.524 . S
C5610 H5629 0.913 . S
C5611 H5587 0.950 . S
C5611 C5610 1.524 . S
C5611 C5612 1.415 . S
C5612 H5588 0.950 . S
C5612 C5607 1.363 1_655 S
C5612 C5611 1.415 . S
C5613 H5589 0.951 . S
C5613 C5614 1.366 . S
C5613 C5615 1.388 . S
C5614 C5613 1.366 . S
C5614 C5618 1.385 . S
C5615 H5590 0.951 . S
C5615 C5613 1.388 . S
C5615 C5616 1.366 . S
C5616 C5615 1.366 . S
C5616 C5617 1.414 . S
C5616 C5619 1.499 . S
C5617 H5591 0.950 . S
C5617 C5616 1.414 . S
C5617 C5618 1.374 . S
C5618 H5592 0.950 . S
C5618 C5614 1.385 . S
C5618 C5617 1.374 . S
C5619 C5616 1.499 . S
C5619 C5620 1.373 . S
C5619 C5621 1.389 . S
C5620 H5593 0.950 . S
C5620 C5606 1.377 . S
C5620 C5619 1.373 . S
C5621 C5605 1.377 . S
C5621 C5619 1.389 . S
C5621 C5622 1.524 . S
C5622 C5621 1.524 . S
C5622 C5623 1.397 . S
C5622 C5627 1.363 . S
C5623 H5594 0.950 . S
C5623 C5622 1.397 . S
C5623 C5624 1.334 . S
C5624 H5595 0.950 . S
C5624 C5623 1.334 . S
C5624 C5625 1.287 . S
C5625 C5624 1.287 . S
C5625 C5626 1.524 . S
C5625 H5628 0.999 . S
C5626 H5596 0.950 . S
C5626 C5625 1.524 . S
C5626 C5627 1.415 . S
C5627 H5597 0.950 . S
C5627 C5622 1.363 . S
C5627 C5626 1.415 . S
H5628 C5625 0.999 . S
H5629 C5610 0.913 . S
H5630 C5648 0.951 . S
H5631 C5650 0.951 . S
H5632 C5652 0.950 . S
H5633 C5653 0.950 . S
H5634 C5655 0.950 . S
H5635 C5658 0.950 . S
H5636 C5659 0.950 . S
H5637 C5661 0.950 . S
H5638 C5662 0.950 . S
H5639 C5663 0.951 . S
H5640 C5665 0.951 . S
H5641 C5667 0.950 . S
H5642 C5668 0.950 . S
H5643 C5670 0.950 . S
H5644 C5673 0.950 . S
H5645 C5674 0.950 . S
H5646 C5676 0.950 . S
H5647 C5677 0.950 . S
C5648 H5630 0.951 . S
C5648 C5649 1.366 . S
C5648 C5650 1.388 . S
C5649 C5648 1.366 . S
C5649 C5653 1.385 . S
C5650 H5631 0.951 . S
C5650 C5648 1.388 . S
C5650 C5651 1.366 . S
C5651 C5650 1.366 . S
C5651 C5652 1.414 . S
C5651 C5654 1.499 . S
C5652 H5632 0.950 . S
C5652 C5651 1.414 . S
C5652 C5653 1.374 . S
C5653 H5633 0.950 . S
C5653 C5649 1.385 . S
C5653 C5652 1.374 . S
C5654 C5651 1.499 . S
C5654 C5655 1.373 . S
C5654 C5656 1.389 . S
C5655 H5634 0.950 . S
C5655 C5654 1.373 . S
C5655 C5671 1.377 . S
C5656 C5654 1.389 . S
C5656 C5657 1.524 . S
C5656 C5670 1.377 . S
C5657 C5656 1.524 . S
C5657 C5658 1.397 . S
C5657 C5662 1.363 . S
C5658 H5635 0.950 . S
C5658 C5657 1.397 . S
C5658 C5659 1.334 . S
C5659 H5636 0.950 . S
C5659 C5658 1.334 . S
C5659 C5660 1.287 . S
C5660 C5659 1.287 . S
C5660 C5661 1.524 . S
C5660 H5679 0.913 . S
C5661 H5637 0.950 . S
C5661 C5660 1.524 . S
C5661 C5662 1.415 . S
C5662 H5638 0.950 . S
C5662 C5657 1.363 . S
C5662 C5661 1.415 . S
C5663 H5639 0.951 . S
C5663 C5664 1.366 . S
C5663 C5665 1.388 . S
C5664 C5663 1.366 . S
C5664 C5668 1.385 . S
C5665 H5640 0.951 . S
C5665 C5663 1.388 . S
C5665 C5666 1.366 . S
C5666 C5665 1.366 . S
C5666 C5667 1.414 . S
C5666 C5669 1.499 . S
C5667 H5641 0.950 . S
C5667 C5666 1.414 . S
C5667 C5668 1.374 . S
C5668 H5642 0.950 . S
C5668 C5664 1.385 . S
C5668 C5667 1.374 . S
C5669 C5666 1.499 . S
C5669 C5670 1.373 . S
C5669 C5671 1.389 . S
C5670 H5643 0.950 . S
C5670 C5656 1.377 . S
C5670 C5669 1.373 . S
C5671 C5655 1.377 . S
C5671 C5669 1.389 . S
C5671 C5672 1.524 . S
C5672 C5671 1.524 . S
C5672 C5673 1.397 . S
C5672 C5677 1.363 . S
C5673 H5644 0.950 . S
C5673 C5672 1.397 . S
C5673 C5674 1.334 . S
C5674 H5645 0.950 . S
C5674 C5673 1.334 . S
C5674 C5675 1.287 . S
C5675 C5674 1.287 . S
C5675 C5676 1.524 . S
C5675 H5678 0.999 . S
C5676 H5646 0.950 . S
C5676 C5675 1.524 . S
C5676 C5677 1.415 . S
C5677 H5647 0.950 . S
C5677 C5672 1.363 . S
C5677 C5676 1.415 . S
H5678 C5675 0.999 . S
H5679 C5660 0.913 . S
H5680 C5698 0.951 . S
H5681 C5700 0.951 . S
H5682 C5702 0.950 . S
H5683 C5703 0.950 . S
H5684 C5705 0.950 . S
H5685 C5708 0.950 . S
H5686 C5709 0.950 . S
H5687 C5711 0.950 . S
H5688 C5712 0.950 . S
H5689 C5713 0.951 . S
H5690 C5715 0.951 . S
H5691 C5717 0.950 . S
H5692 C5718 0.950 . S
H5693 C5720 0.950 . S
H5694 C5723 0.950 . S
H5695 C5724 0.950 . S
H5696 C5726 0.950 . S
H5697 C5727 0.950 . S
C5698 H5680 0.951 . S
C5698 C5699 1.366 . S
C5698 C5700 1.388 . S
C5699 C5698 1.366 . S
C5699 C5703 1.385 . S
C5700 H5681 0.951 . S
C5700 C5698 1.388 . S
C5700 C5701 1.366 . S
C5701 C5700 1.366 . S
C5701 C5702 1.414 . S
C5701 C5704 1.499 . S
C5702 H5682 0.950 . S
C5702 C5701 1.414 . S
C5702 C5703 1.374 . S
C5703 H5683 0.950 . S
C5703 C5699 1.385 . S
C5703 C5702 1.374 . S
C5704 C5701 1.499 . S
C5704 C5705 1.373 . S
C5704 C5706 1.389 . S
C5705 H5684 0.950 . S
C5705 C5704 1.373 . S
C5705 C5721 1.377 . S
C5706 C5704 1.389 . S
C5706 C5707 1.524 . S
C5706 C5720 1.377 . S
C5707 C5706 1.524 . S
C5707 C5708 1.397 . S
C5707 C5712 1.363 . S
C5708 H5685 0.950 . S
C5708 C5707 1.397 . S
C5708 C5709 1.334 . S
C5709 H5686 0.950 . S
C5709 C5708 1.334 . S
C5709 C5710 1.287 . S
C5710 C5709 1.287 . S
C5710 C5711 1.524 . S
C5710 H5729 0.913 . S
C5711 H5687 0.950 . S
C5711 C5710 1.524 . S
C5711 C5712 1.415 . S
C5712 H5688 0.950 . S
C5712 C5707 1.363 . S
C5712 C5711 1.415 . S
C5713 H5689 0.951 . S
C5713 C5714 1.366 . S
C5713 C5715 1.388 . S
C5714 C5713 1.366 . S
C5714 C5718 1.385 . S
C5715 H5690 0.951 . S
C5715 C5713 1.388 . S
C5715 C5716 1.366 . S
C5716 C5715 1.366 . S
C5716 C5717 1.414 . S
C5716 C5719 1.499 . S
C5717 H5691 0.950 . S
C5717 C5716 1.414 . S
C5717 C5718 1.374 . S
C5718 H5692 0.950 . S
C5718 C5714 1.385 . S
C5718 C5717 1.374 . S
C5719 C5716 1.499 . S
C5719 C5720 1.373 . S
C5719 C5721 1.389 . S
C5720 H5693 0.950 . S
C5720 C5706 1.377 . S
C5720 C5719 1.373 . S
C5721 C5705 1.377 . S
C5721 C5719 1.389 . S
C5721 C5722 1.524 . S
C5722 C5721 1.524 . S
C5722 C5723 1.397 . S
C5722 C5727 1.363 . S
C5723 H5694 0.950 . S
C5723 C5722 1.397 . S
C5723 C5724 1.334 . S
C5724 H5695 0.950 . S
C5724 C5723 1.334 . S
C5724 C5725 1.287 . S
C5725 C5724 1.287 . S
C5725 C5726 1.524 . S
C5725 H5728 0.999 . S
C5726 H5696 0.950 . S
C5726 C5725 1.524 . S
C5726 C5727 1.415 . S
C5727 H5697 0.950 . S
C5727 C5722 1.363 . S
C5727 C5726 1.415 . S
H5728 C5725 0.999 . S
H5729 C5710 0.913 . S
H5730 C5748 0.951 . S
H5731 C5750 0.951 . S
H5732 C5752 0.950 . S
H5733 C5753 0.950 . S
H5734 C5755 0.950 . S
H5735 C5758 0.950 . S
H5736 C5759 0.950 . S
H5737 C5761 0.950 . S
H5738 C5762 0.950 . S
H5739 C5763 0.951 . S
H5740 C5765 0.951 . S
H5741 C5767 0.950 . S
H5742 C5768 0.950 . S
H5743 C5770 0.950 . S
H5744 C5773 0.950 . S
H5745 C5774 0.950 . S
H5746 C5776 0.950 . S
H5747 C5777 0.950 . S
C5748 H5730 0.951 . S
C5748 C5749 1.366 . S
C5748 C5750 1.388 . S
C5749 C5748 1.366 . S
C5749 C5753 1.385 . S
C5750 H5731 0.951 . S
C5750 C5748 1.388 . S
C5750 C5751 1.366 . S
C5751 C5750 1.366 . S
C5751 C5752 1.414 . S
C5751 C5754 1.499 . S
C5752 H5732 0.950 . S
C5752 C5751 1.414 . S
C5752 C5753 1.374 . S
C5753 H5733 0.950 . S
C5753 C5749 1.385 . S
C5753 C5752 1.374 . S
C5754 C5751 1.499 . S
C5754 C5755 1.373 . S
C5754 C5756 1.389 . S
C5755 H5734 0.950 . S
C5755 C5754 1.373 . S
C5755 C5771 1.377 . S
C5756 C5754 1.389 . S
C5756 C5757 1.524 . S
C5756 C5770 1.377 . S
C5757 C5756 1.524 . S
C5757 C5758 1.397 . S
C5757 C5762 1.363 . S
C5758 H5735 0.950 . S
C5758 C5757 1.397 . S
C5758 C5759 1.334 . S
C5759 H5736 0.950 . S
C5759 C5758 1.334 . S
C5759 C5760 1.287 . S
C5760 C5759 1.287 . S
C5760 C5761 1.524 . S
C5760 H5779 0.913 . S
C5761 H5737 0.950 . S
C5761 C5760 1.524 . S
C5761 C5762 1.415 . S
C5762 H5738 0.950 . S
C5762 C5757 1.363 . S
C5762 C5761 1.415 . S
C5763 H5739 0.951 . S
C5763 C5764 1.366 . S
C5763 C5765 1.388 . S
C5764 C5763 1.366 . S
C5764 C5768 1.385 . S
C5765 H5740 0.951 . S
C5765 C5763 1.388 . S
C5765 C5766 1.366 . S
C5766 C5765 1.366 . S
C5766 C5767 1.414 . S
C5766 C5769 1.499 . S
C5767 H5741 0.950 . S
C5767 C5766 1.414 . S
C5767 C5768 1.374 . S
C5768 H5742 0.950 . S
C5768 C5764 1.385 . S
C5768 C5767 1.374 . S
C5769 C5766 1.499 . S
C5769 C5770 1.373 . S
C5769 C5771 1.389 . S
C5770 H5743 0.950 . S
C5770 C5756 1.377 . S
C5770 C5769 1.373 . S
C5771 C5755 1.377 . S
C5771 C5769 1.389 . S
C5771 C5772 1.524 . S
C5772 C5771 1.524 . S
C5772 C5773 1.397 . S
C5772 C5777 1.363 . S
C5773 H5744 0.950 . S
C5773 C5772 1.397 . S
C5773 C5774 1.334 . S
C5774 H5745 0.950 . S
C5774 C5773 1.334 . S
C5774 C5775 1.287 . S
C5775 C5774 1.287 . S
C5775 C5776 1.524 . S
C5775 H5778 0.999 . S
C5776 H5746 0.950 . S
C5776 C5775 1.524 . S
C5776 C5777 1.415 . S
C5777 H5747 0.950 . S
C5777 C5772 1.363 . S
C5777 C5776 1.415 . S
H5778 C5775 0.999 . S
H5779 C5760 0.913 . S
H5780 C5798 0.951 . S
H5781 C5800 0.951 . S
H5782 C5802 0.950 . S
H5783 C5803 0.950 . S
H5784 C5805 0.950 . S
H5785 C5808 0.950 . S
H5786 C5809 0.950 . S
H5787 C5811 0.950 . S
H5788 C5812 0.950 . S
H5789 C5813 0.951 . S
H5790 C5815 0.951 . S
H5791 C5817 0.950 . S
H5792 C5818 0.950 . S
H5793 C5820 0.950 . S
H5794 C5823 0.950 . S
H5795 C5824 0.950 . S
H5796 C5826 0.950 . S
H5797 C5827 0.950 . S
C5798 H5780 0.951 . S
C5798 C5799 1.366 . S
C5798 C5800 1.388 . S
C5799 C5798 1.366 . S
C5799 C5803 1.385 . S
C5800 H5781 0.951 . S
C5800 C5798 1.388 . S
C5800 C5801 1.366 . S
C5801 C5800 1.366 . S
C5801 C5802 1.414 . S
C5801 C5804 1.499 . S
C5802 H5782 0.950 . S
C5802 C5801 1.414 . S
C5802 C5803 1.374 . S
C5803 H5783 0.950 . S
C5803 C5799 1.385 . S
C5803 C5802 1.374 . S
C5804 C5801 1.499 . S
C5804 C5805 1.373 . S
C5804 C5806 1.389 . S
C5805 H5784 0.950 . S
C5805 C5804 1.373 . S
C5805 C5821 1.377 . S
C5806 C5804 1.389 . S
C5806 C5807 1.524 . S
C5806 C5820 1.377 . S
C5807 C5806 1.524 . S
C5807 C5808 1.397 . S
C5807 C5812 1.363 . S
C5808 H5785 0.950 . S
C5808 C5807 1.397 . S
C5808 C5809 1.334 . S
C5809 H5786 0.950 . S
C5809 C5808 1.334 . S
C5809 C5810 1.287 . S
C5810 C5809 1.287 . S
C5810 C5811 1.524 . S
C5810 H5829 0.913 . S
C5811 H5787 0.950 . S
C5811 C5810 1.524 . S
C5811 C5812 1.415 . S
C5812 H5788 0.950 . S
C5812 C5807 1.363 . S
C5812 C5811 1.415 . S
C5813 H5789 0.951 . S
C5813 C5814 1.366 . S
C5813 C5815 1.388 . S
C5814 C5813 1.366 . S
C5814 C5818 1.385 1_655 S
C5815 H5790 0.951 . S
C5815 C5813 1.388 . S
C5815 C5816 1.366 . S
C5816 C5815 1.366 . S
C5816 C5817 1.414 . S
C5816 C5819 1.499 . S
C5817 H5791 0.950 . S
C5817 C5816 1.414 . S
C5817 C5818 1.374 1_655 S
C5818 H5792 0.950 . S
C5818 C5814 1.385 1_455 S
C5818 C5817 1.374 1_455 S
C5819 C5816 1.499 . S
C5819 C5820 1.373 . S
C5819 C5821 1.389 . S
C5820 H5793 0.950 . S
C5820 C5806 1.377 . S
C5820 C5819 1.373 . S
C5821 C5805 1.377 . S
C5821 C5819 1.389 . S
C5821 C5822 1.524 . S
C5822 C5821 1.524 . S
C5822 C5823 1.397 . S
C5822 C5827 1.363 . S
C5823 H5794 0.950 . S
C5823 C5822 1.397 . S
C5823 C5824 1.334 . S
C5824 H5795 0.950 . S
C5824 C5823 1.334 . S
C5824 C5825 1.287 . S
C5825 C5824 1.287 . S
C5825 C5826 1.524 . S
C5825 H5828 0.999 . S
C5826 H5796 0.950 . S
C5826 C5825 1.524 . S
C5826 C5827 1.415 . S
C5827 H5797 0.950 . S
C5827 C5822 1.363 . S
C5827 C5826 1.415 . S
H5828 C5825 0.999 . S
H5829 C5810 0.913 . S
H5830 C5848 0.951 . S
H5831 C5850 0.951 . S
H5832 C5852 0.950 . S
H5833 C5853 0.950 . S
H5834 C5855 0.950 . S
H5835 C5858 0.950 . S
H5836 C5859 0.950 . S
H5837 C5861 0.950 . S
H5838 C5862 0.950 . S
H5839 C5863 0.951 . S
H5840 C5865 0.951 . S
H5841 C5867 0.950 . S
H5842 C5868 0.950 . S
H5843 C5870 0.950 . S
H5844 C5873 0.950 . S
H5845 C5874 0.950 . S
H5846 C5876 0.950 . S
H5847 C5877 0.950 . S
C5848 H5830 0.951 . S
C5848 C5849 1.366 . S
C5848 C5850 1.388 . S
C5849 C5848 1.366 . S
C5849 C5853 1.385 . S
C5850 H5831 0.951 . S
C5850 C5848 1.388 . S
C5850 C5851 1.366 . S
C5851 C5850 1.366 . S
C5851 C5852 1.414 . S
C5851 C5854 1.499 . S
C5852 H5832 0.950 . S
C5852 C5851 1.414 . S
C5852 C5853 1.374 . S
C5853 H5833 0.950 . S
C5853 C5849 1.385 . S
C5853 C5852 1.374 . S
C5854 C5851 1.499 . S
C5854 C5855 1.373 . S
C5854 C5856 1.389 . S
C5855 H5834 0.950 . S
C5855 C5854 1.373 . S
C5855 C5871 1.377 . S
C5856 C5854 1.389 . S
C5856 C5857 1.524 . S
C5856 C5870 1.377 . S
C5857 C5856 1.524 . S
C5857 C5858 1.397 . S
C5857 C5862 1.363 . S
C5858 H5835 0.950 . S
C5858 C5857 1.397 . S
C5858 C5859 1.334 . S
C5859 H5836 0.950 . S
C5859 C5858 1.334 . S
C5859 C5860 1.287 . S
C5860 C5859 1.287 . S
C5860 C5861 1.524 . S
C5860 H5879 0.913 . S
C5861 H5837 0.950 . S
C5861 C5860 1.524 . S
C5861 C5862 1.415 . S
C5862 H5838 0.950 . S
C5862 C5857 1.363 . S
C5862 C5861 1.415 . S
C5863 H5839 0.951 . S
C5863 C5864 1.366 . S
C5863 C5865 1.388 . S
C5864 C5863 1.366 . S
C5864 C5868 1.385 . S
C5865 H5840 0.951 . S
C5865 C5863 1.388 . S
C5865 C5866 1.366 . S
C5866 C5865 1.366 . S
C5866 C5867 1.414 . S
C5866 C5869 1.499 . S
C5867 H5841 0.950 . S
C5867 C5866 1.414 . S
C5867 C5868 1.374 . S
C5868 H5842 0.950 . S
C5868 C5864 1.385 . S
C5868 C5867 1.374 . S
C5869 C5866 1.499 . S
C5869 C5870 1.373 . S
C5869 C5871 1.389 . S
C5870 H5843 0.950 . S
C5870 C5856 1.377 . S
C5870 C5869 1.373 . S
C5871 C5855 1.377 . S
C5871 C5869 1.389 . S
C5871 C5872 1.524 . S
C5872 C5871 1.524 . S
C5872 C5873 1.397 . S
C5872 C5877 1.363 . S
C5873 H5844 0.950 . S
C5873 C5872 1.397 . S
C5873 C5874 1.334 . S
C5874 H5845 0.950 . S
C5874 C5873 1.334 . S
C5874 C5875 1.287 . S
C5875 C5874 1.287 . S
C5875 C5876 1.524 . S
C5875 H5878 0.999 . S
C5876 H5846 0.950 . S
C5876 C5875 1.524 . S
C5876 C5877 1.415 . S
C5877 H5847 0.950 . S
C5877 C5872 1.363 . S
C5877 C5876 1.415 . S
H5878 C5875 0.999 . S
H5879 C5860 0.913 . S
H5880 C5898 0.951 . S
H5881 C5900 0.951 . S
H5882 C5902 0.950 . S
H5883 C5903 0.950 . S
H5884 C5905 0.950 . S
H5885 C5908 0.950 . S
H5886 C5909 0.950 . S
H5887 C5911 0.950 . S
H5888 C5912 0.950 . S
H5889 C5913 0.951 . S
H5890 C5915 0.951 . S
H5891 C5917 0.950 . S
H5892 C5918 0.950 . S
H5893 C5920 0.950 . S
H5894 C5923 0.950 . S
H5895 C5924 0.950 . S
H5896 C5926 0.950 . S
H5897 C5927 0.950 . S
C5898 H5880 0.951 . S
C5898 C5899 1.366 . S
C5898 C5900 1.388 . S
C5899 C5898 1.366 . S
C5899 C5903 1.385 . S
C5900 H5881 0.951 . S
C5900 C5898 1.388 . S
C5900 C5901 1.366 . S
C5901 C5900 1.366 . S
C5901 C5902 1.414 . S
C5901 C5904 1.499 . S
C5902 H5882 0.950 . S
C5902 C5901 1.414 . S
C5902 C5903 1.374 . S
C5903 H5883 0.950 . S
C5903 C5899 1.385 . S
C5903 C5902 1.374 . S
C5904 C5901 1.499 . S
C5904 C5905 1.373 . S
C5904 C5906 1.389 . S
C5905 H5884 0.950 . S
C5905 C5904 1.373 . S
C5905 C5921 1.377 . S
C5906 C5904 1.389 . S
C5906 C5907 1.524 . S
C5906 C5920 1.377 . S
C5907 C5906 1.524 . S
C5907 C5908 1.397 . S
C5907 C5912 1.363 . S
C5908 H5885 0.950 . S
C5908 C5907 1.397 . S
C5908 C5909 1.334 . S
C5909 H5886 0.950 . S
C5909 C5908 1.334 . S
C5909 C5910 1.287 . S
C5910 C5909 1.287 . S
C5910 C5911 1.524 . S
C5910 H5929 0.913 . S
C5911 H5887 0.950 . S
C5911 C5910 1.524 . S
C5911 C5912 1.415 . S
C5912 H5888 0.950 . S
C5912 C5907 1.363 . S
C5912 C5911 1.415 . S
C5913 H5889 0.951 . S
C5913 C5914 1.366 . S
C5913 C5915 1.388 . S
C5914 C5913 1.366 . S
C5914 C5918 1.385 . S
C5915 H5890 0.951 . S
C5915 C5913 1.388 . S
C5915 C5916 1.366 . S
C5916 C5915 1.366 . S
C5916 C5917 1.414 . S
C5916 C5919 1.499 . S
C5917 H5891 0.950 . S
C5917 C5916 1.414 . S
C5917 C5918 1.374 . S
C5918 H5892 0.950 . S
C5918 C5914 1.385 . S
C5918 C5917 1.374 . S
C5919 C5916 1.499 . S
C5919 C5920 1.373 . S
C5919 C5921 1.389 . S
C5920 H5893 0.950 . S
C5920 C5906 1.377 . S
C5920 C5919 1.373 . S
C5921 C5905 1.377 . S
C5921 C5919 1.389 . S
C5921 C5922 1.524 . S
C5922 C5921 1.524 . S
C5922 C5923 1.397 . S
C5922 C5927 1.363 . S
C5923 H5894 0.950 . S
C5923 C5922 1.397 . S
C5923 C5924 1.334 . S
C5924 H5895 0.950 . S
C5924 C5923 1.334 . S
C5924 C5925 1.287 . S
C5925 C5924 1.287 . S
C5925 C5926 1.524 . S
C5925 H5928 0.999 . S
C5926 H5896 0.950 . S
C5926 C5925 1.524 . S
C5926 C5927 1.415 . S
C5927 H5897 0.950 . S
C5927 C5922 1.363 . S
C5927 C5926 1.415 . S
H5928 C5925 0.999 . S
H5929 C5910 0.913 . S
H5930 C5948 0.951 . S
H5931 C5950 0.951 . S
H5932 C5952 0.950 . S
H5933 C5953 0.950 . S
H5934 C5955 0.950 . S
H5935 C5958 0.950 . S
H5936 C5959 0.950 . S
H5937 C5961 0.950 . S
H5938 C5962 0.950 . S
H5939 C5963 0.951 . S
H5940 C5965 0.951 . S
H5941 C5967 0.950 . S
H5942 C5968 0.950 . S
H5943 C5970 0.950 . S
H5944 C5973 0.950 . S
H5945 C5974 0.950 . S
H5946 C5976 0.950 . S
H5947 C5977 0.950 . S
C5948 H5930 0.951 . S
C5948 C5949 1.366 . S
C5948 C5950 1.388 . S
C5949 C5948 1.366 . S
C5949 C5953 1.385 . S
C5950 H5931 0.951 . S
C5950 C5948 1.388 . S
C5950 C5951 1.366 . S
C5951 C5950 1.366 . S
C5951 C5952 1.414 . S
C5951 C5954 1.499 . S
C5952 H5932 0.950 . S
C5952 C5951 1.414 . S
C5952 C5953 1.374 . S
C5953 H5933 0.950 . S
C5953 C5949 1.385 . S
C5953 C5952 1.374 . S
C5954 C5951 1.499 . S
C5954 C5955 1.373 . S
C5954 C5956 1.389 . S
C5955 H5934 0.950 . S
C5955 C5954 1.373 . S
C5955 C5971 1.377 . S
C5956 C5954 1.389 . S
C5956 C5957 1.524 . S
C5956 C5970 1.377 . S
C5957 C5956 1.524 . S
C5957 C5958 1.397 . S
C5957 C5962 1.363 . S
C5958 H5935 0.950 . S
C5958 C5957 1.397 . S
C5958 C5959 1.334 . S
C5959 H5936 0.950 . S
C5959 C5958 1.334 . S
C5959 C5960 1.287 . S
C5960 C5959 1.287 . S
C5960 C5961 1.524 . S
C5960 H5979 0.913 . S
C5961 H5937 0.950 . S
C5961 C5960 1.524 . S
C5961 C5962 1.415 . S
C5962 H5938 0.950 . S
C5962 C5957 1.363 . S
C5962 C5961 1.415 . S
C5963 H5939 0.951 . S
C5963 C5964 1.366 . S
C5963 C5965 1.388 . S
C5964 C5963 1.366 . S
C5964 C5968 1.385 . S
C5965 H5940 0.951 . S
C5965 C5963 1.388 . S
C5965 C5966 1.366 . S
C5966 C5965 1.366 . S
C5966 C5967 1.414 . S
C5966 C5969 1.499 . S
C5967 H5941 0.950 . S
C5967 C5966 1.414 . S
C5967 C5968 1.374 . S
C5968 H5942 0.950 . S
C5968 C5964 1.385 . S
C5968 C5967 1.374 . S
C5969 C5966 1.499 . S
C5969 C5970 1.373 . S
C5969 C5971 1.389 . S
C5970 H5943 0.950 . S
C5970 C5956 1.377 . S
C5970 C5969 1.373 . S
C5971 C5955 1.377 . S
C5971 C5969 1.389 . S
C5971 C5972 1.524 . S
C5972 C5971 1.524 . S
C5972 C5973 1.397 . S
C5972 C5977 1.363 . S
C5973 H5944 0.950 . S
C5973 C5972 1.397 . S
C5973 C5974 1.334 . S
C5974 H5945 0.950 . S
C5974 C5973 1.334 . S
C5974 C5975 1.287 . S
C5975 C5974 1.287 . S
C5975 C5976 1.524 . S
C5975 H5978 0.999 . S
C5976 H5946 0.950 . S
C5976 C5975 1.524 . S
C5976 C5977 1.415 . S
C5977 H5947 0.950 . S
C5977 C5972 1.363 . S
C5977 C5976 1.415 . S
H5978 C5975 0.999 . S
H5979 C5960 0.913 . S
H5980 C5998 0.951 . S
H5981 C6000 0.951 . S
H5982 C6002 0.950 . S
H5983 C6003 0.950 . S
H5984 C6005 0.950 . S
H5985 C6008 0.950 . S
H5986 C6009 0.950 . S
H5987 C6011 0.950 . S
H5988 C6012 0.950 . S
H5989 C6013 0.951 . S
H5990 C6015 0.951 . S
H5991 C6017 0.950 . S
H5992 C6018 0.950 . S
H5993 C6020 0.950 . S
H5994 C6023 0.950 . S
H5995 C6024 0.950 . S
H5996 C6026 0.950 . S
H5997 C6027 0.950 . S
C5998 H5980 0.951 . S
C5998 C5999 1.366 . S
C5998 C6000 1.388 . S
C5999 C5998 1.366 . S
C5999 C6003 1.385 . S
C6000 H5981 0.951 . S
C6000 C5998 1.388 . S
C6000 C6001 1.366 . S
C6001 C6000 1.366 . S
C6001 C6002 1.414 . S
C6001 C6004 1.499 . S
C6002 H5982 0.950 . S
C6002 C6001 1.414 . S
C6002 C6003 1.374 . S
C6003 H5983 0.950 . S
C6003 C5999 1.385 . S
C6003 C6002 1.374 . S
C6004 C6001 1.499 . S
C6004 C6005 1.373 . S
C6004 C6006 1.389 . S
C6005 H5984 0.950 . S
C6005 C6004 1.373 . S
C6005 C6021 1.377 . S
C6006 C6004 1.389 . S
C6006 C6007 1.524 . S
C6006 C6020 1.377 . S
C6007 C6006 1.524 . S
C6007 C6008 1.397 . S
C6007 C6012 1.363 . S
C6008 H5985 0.950 . S
C6008 C6007 1.397 . S
C6008 C6009 1.334 . S
C6009 H5986 0.950 . S
C6009 C6008 1.334 . S
C6009 C6010 1.287 . S
C6010 C6009 1.287 . S
C6010 C6011 1.524 . S
C6010 H6029 0.913 . S
C6011 H5987 0.950 . S
C6011 C6010 1.524 . S
C6011 C6012 1.415 . S
C6012 H5988 0.950 . S
C6012 C6007 1.363 . S
C6012 C6011 1.415 . S
C6013 H5989 0.951 . S
C6013 C6014 1.366 . S
C6013 C6015 1.388 . S
C6014 C6013 1.366 . S
C6014 C6018 1.385 . S
C6015 H5990 0.951 . S
C6015 C6013 1.388 . S
C6015 C6016 1.366 . S
C6016 C6015 1.366 . S
C6016 C6017 1.414 . S
C6016 C6019 1.499 . S
C6017 H5991 0.950 . S
C6017 C6016 1.414 . S
C6017 C6018 1.374 . S
C6018 H5992 0.950 . S
C6018 C6014 1.385 . S
C6018 C6017 1.374 . S
C6019 C6016 1.499 . S
C6019 C6020 1.373 . S
C6019 C6021 1.389 . S
C6020 H5993 0.950 . S
C6020 C6006 1.377 . S
C6020 C6019 1.373 . S
C6021 C6005 1.377 . S
C6021 C6019 1.389 . S
C6021 C6022 1.524 . S
C6022 C6021 1.524 . S
C6022 C6023 1.397 . S
C6022 C6027 1.363 . S
C6023 H5994 0.950 . S
C6023 C6022 1.397 . S
C6023 C6024 1.334 . S
C6024 H5995 0.950 . S
C6024 C6023 1.334 . S
C6024 C6025 1.287 . S
C6025 C6024 1.287 . S
C6025 C6026 1.524 . S
C6025 H6028 0.999 . S
C6026 H5996 0.950 . S
C6026 C6025 1.524 . S
C6026 C6027 1.415 . S
C6027 H5997 0.950 . S
C6027 C6022 1.363 . S
C6027 C6026 1.415 . S
H6028 C6025 0.999 . S
H6029 C6010 0.913 . S
H6030 C6048 0.951 . S
H6031 C6050 0.951 . S
H6032 C6052 0.950 . S
H6033 C6053 0.950 . S
H6034 C6055 0.950 . S
H6035 C6058 0.950 . S
H6036 C6059 0.950 . S
H6037 C6061 0.950 . S
H6038 C6062 0.950 . S
H6039 C6063 0.951 . S
H6040 C6065 0.951 . S
H6041 C6067 0.950 . S
H6042 C6068 0.950 . S
H6043 C6070 0.950 . S
H6044 C6073 0.950 . S
H6045 C6074 0.950 . S
H6046 C6076 0.950 . S
H6047 C6077 0.950 . S
C6048 H6030 0.951 . S
C6048 C6049 1.366 . S
C6048 C6050 1.388 . S
C6049 C6048 1.366 . S
C6049 C6053 1.385 . S
C6050 H6031 0.951 . S
C6050 C6048 1.388 . S
C6050 C6051 1.366 . S
C6051 C6050 1.366 . S
C6051 C6052 1.414 . S
C6051 C6054 1.499 . S
C6052 H6032 0.950 . S
C6052 C6051 1.414 . S
C6052 C6053 1.374 . S
C6053 H6033 0.950 . S
C6053 C6049 1.385 . S
C6053 C6052 1.374 . S
C6054 C6051 1.499 . S
C6054 C6055 1.373 . S
C6054 C6056 1.389 . S
C6055 H6034 0.950 . S
C6055 C6054 1.373 . S
C6055 C6071 1.377 . S
C6056 C6054 1.389 . S
C6056 C6057 1.524 . S
C6056 C6070 1.377 . S
C6057 C6056 1.524 . S
C6057 C6058 1.397 . S
C6057 C6062 1.363 . S
C6058 H6035 0.950 . S
C6058 C6057 1.397 . S
C6058 C6059 1.334 . S
C6059 H6036 0.950 . S
C6059 C6058 1.334 . S
C6059 C6060 1.287 . S
C6060 C6059 1.287 . S
C6060 C6061 1.524 . S
C6060 H6079 0.913 . S
C6061 H6037 0.950 . S
C6061 C6060 1.524 . S
C6061 C6062 1.415 . S
C6062 H6038 0.950 . S
C6062 C6057 1.363 . S
C6062 C6061 1.415 . S
C6063 H6039 0.951 . S
C6063 C6064 1.366 . S
C6063 C6065 1.388 . S
C6064 C6063 1.366 . S
C6064 C6068 1.385 . S
C6065 H6040 0.951 . S
C6065 C6063 1.388 . S
C6065 C6066 1.366 . S
C6066 C6065 1.366 . S
C6066 C6067 1.414 . S
C6066 C6069 1.499 . S
C6067 H6041 0.950 . S
C6067 C6066 1.414 . S
C6067 C6068 1.374 . S
C6068 H6042 0.950 . S
C6068 C6064 1.385 . S
C6068 C6067 1.374 . S
C6069 C6066 1.499 . S
C6069 C6070 1.373 . S
C6069 C6071 1.389 . S
C6070 H6043 0.950 . S
C6070 C6056 1.377 . S
C6070 C6069 1.373 . S
C6071 C6055 1.377 . S
C6071 C6069 1.389 . S
C6071 C6072 1.524 . S
C6072 C6071 1.524 . S
C6072 C6073 1.397 . S
C6072 C6077 1.363 . S
C6073 H6044 0.950 . S
C6073 C6072 1.397 . S
C6073 C6074 1.334 . S
C6074 H6045 0.950 . S
C6074 C6073 1.334 . S
C6074 C6075 1.287 . S
C6075 C6074 1.287 . S
C6075 C6076 1.524 . S
C6075 H6078 0.999 . S
C6076 H6046 0.950 . S
C6076 C6075 1.524 . S
C6076 C6077 1.415 . S
C6077 H6047 0.950 . S
C6077 C6072 1.363 . S
C6077 C6076 1.415 . S
H6078 C6075 0.999 . S
H6079 C6060 0.913 . S
H6080 C6098 0.951 . S
H6081 C6100 0.951 . S
H6082 C6102 0.950 . S
H6083 C6103 0.950 . S
H6084 C6105 0.950 . S
H6085 C6108 0.950 . S
H6086 C6109 0.950 . S
H6087 C6111 0.950 . S
H6088 C6112 0.950 . S
H6089 C6113 0.951 . S
H6090 C6115 0.951 . S
H6091 C6117 0.950 . S
H6092 C6118 0.950 . S
H6093 C6120 0.950 . S
H6094 C6123 0.950 . S
H6095 C6124 0.950 . S
H6096 C6126 0.950 . S
H6097 C6127 0.950 . S
C6098 H6080 0.951 . S
C6098 C6099 1.366 . S
C6098 C6100 1.388 . S
C6099 C6098 1.366 . S
C6099 C6103 1.385 . S
C6100 H6081 0.951 . S
C6100 C6098 1.388 . S
C6100 C6101 1.366 . S
C6101 C6100 1.366 . S
C6101 C6102 1.414 . S
C6101 C6104 1.499 . S
C6102 H6082 0.950 . S
C6102 C6101 1.414 . S
C6102 C6103 1.374 . S
C6103 H6083 0.950 . S
C6103 C6099 1.385 . S
C6103 C6102 1.374 . S
C6104 C6101 1.499 . S
C6104 C6105 1.373 . S
C6104 C6106 1.389 . S
C6105 H6084 0.950 . S
C6105 C6104 1.373 . S
C6105 C6121 1.377 . S
C6106 C6104 1.389 . S
C6106 C6107 1.524 . S
C6106 C6120 1.377 . S
C6107 C6106 1.524 . S
C6107 C6108 1.397 . S
C6107 C6112 1.363 . S
C6108 H6085 0.950 . S
C6108 C6107 1.397 . S
C6108 C6109 1.334 . S
C6109 H6086 0.950 . S
C6109 C6108 1.334 . S
C6109 C6110 1.287 . S
C6110 C6109 1.287 . S
C6110 C6111 1.524 . S
C6110 H6129 0.913 . S
C6111 H6087 0.950 . S
C6111 C6110 1.524 . S
C6111 C6112 1.415 . S
C6112 H6088 0.950 . S
C6112 C6107 1.363 . S
C6112 C6111 1.415 . S
C6113 H6089 0.951 . S
C6113 C6114 1.366 . S
C6113 C6115 1.388 . S
C6114 C6113 1.366 . S
C6114 C6118 1.385 . S
C6115 H6090 0.951 . S
C6115 C6113 1.388 . S
C6115 C6116 1.366 . S
C6116 C6115 1.366 . S
C6116 C6117 1.414 . S
C6116 C6119 1.499 . S
C6117 H6091 0.950 . S
C6117 C6116 1.414 . S
C6117 C6118 1.374 . S
C6118 H6092 0.950 . S
C6118 C6114 1.385 . S
C6118 C6117 1.374 . S
C6119 C6116 1.499 . S
C6119 C6120 1.373 . S
C6119 C6121 1.389 . S
C6120 H6093 0.950 . S
C6120 C6106 1.377 . S
C6120 C6119 1.373 . S
C6121 C6105 1.377 . S
C6121 C6119 1.389 . S
C6121 C6122 1.524 . S
C6122 C6121 1.524 . S
C6122 C6123 1.397 . S
C6122 C6127 1.363 . S
C6123 H6094 0.950 . S
C6123 C6122 1.397 . S
C6123 C6124 1.334 . S
C6124 H6095 0.950 . S
C6124 C6123 1.334 . S
C6124 C6125 1.287 . S
C6125 C6124 1.287 . S
C6125 C6126 1.524 . S
C6125 H6128 0.999 . S
C6126 H6096 0.950 . S
C6126 C6125 1.524 . S
C6126 C6127 1.415 . S
C6127 H6097 0.950 . S
C6127 C6122 1.363 . S
C6127 C6126 1.415 . S
H6128 C6125 0.999 . S
H6129 C6110 0.913 . S
H6130 C6148 0.951 . S
H6131 C6150 0.951 . S
H6132 C6152 0.950 . S
H6133 C6153 0.950 . S
H6134 C6155 0.950 . S
H6135 C6158 0.950 . S
H6136 C6159 0.950 . S
H6137 C6161 0.950 . S
H6138 C6162 0.950 . S
H6139 C6163 0.951 . S
H6140 C6165 0.951 . S
H6141 C6167 0.950 . S
H6142 C6168 0.950 1_545 S
H6143 C6170 0.950 . S
H6144 C6173 0.950 . S
H6145 C6174 0.950 1_545 S
H6146 C6176 0.950 . S
H6147 C6177 0.950 . S
C6148 H6130 0.951 . S
C6148 C6149 1.366 . S
C6148 C6150 1.388 . S
C6149 C6148 1.366 . S
C6149 C6153 1.385 . S
C6150 H6131 0.951 . S
C6150 C6148 1.388 . S
C6150 C6151 1.366 . S
C6151 C6150 1.366 . S
C6151 C6152 1.414 . S
C6151 C6154 1.499 . S
C6152 H6132 0.950 . S
C6152 C6151 1.414 . S
C6152 C6153 1.374 . S
C6153 H6133 0.950 . S
C6153 C6149 1.385 . S
C6153 C6152 1.374 . S
C6154 C6151 1.499 . S
C6154 C6155 1.373 . S
C6154 C6156 1.389 . S
C6155 H6134 0.950 . S
C6155 C6154 1.373 . S
C6155 C6171 1.377 . S
C6156 C6154 1.389 . S
C6156 C6157 1.524 . S
C6156 C6170 1.377 . S
C6157 C6156 1.524 . S
C6157 C6158 1.397 . S
C6157 C6162 1.363 . S
C6158 H6135 0.950 . S
C6158 C6157 1.397 . S
C6158 C6159 1.334 . S
C6159 H6136 0.950 . S
C6159 C6158 1.334 . S
C6159 C6160 1.287 . S
C6160 C6159 1.287 . S
C6160 C6161 1.524 . S
C6160 H6179 0.913 . S
C6161 H6137 0.950 . S
C6161 C6160 1.524 . S
C6161 C6162 1.415 . S
C6162 H6138 0.950 . S
C6162 C6157 1.363 . S
C6162 C6161 1.415 . S
C6163 H6139 0.951 . S
C6163 C6164 1.366 . S
C6163 C6165 1.388 . S
C6164 C6163 1.366 . S
C6164 C6168 1.385 . S
C6165 H6140 0.951 . S
C6165 C6163 1.388 . S
C6165 C6166 1.366 . S
C6166 C6165 1.366 . S
C6166 C6167 1.414 . S
C6166 C6169 1.499 . S
C6167 H6141 0.950 . S
C6167 C6166 1.414 . S
C6167 C6168 1.374 . S
C6168 H6142 0.950 1_565 S
C6168 C6164 1.385 . S
C6168 C6167 1.374 . S
C6169 C6166 1.499 . S
C6169 C6170 1.373 . S
C6169 C6171 1.389 . S
C6170 H6143 0.950 . S
C6170 C6156 1.377 . S
C6170 C6169 1.373 . S
C6171 C6155 1.377 . S
C6171 C6169 1.389 . S
C6171 C6172 1.524 . S
C6172 C6171 1.524 . S
C6172 C6173 1.397 . S
C6172 C6177 1.363 . S
C6173 H6144 0.950 . S
C6173 C6172 1.397 . S
C6173 C6174 1.334 . S
C6174 H6145 0.950 1_565 S
C6174 C6173 1.334 . S
C6174 C6175 1.287 . S
C6175 C6174 1.287 . S
C6175 C6176 1.524 . S
C6175 H6178 0.999 . S
C6176 H6146 0.950 . S
C6176 C6175 1.524 . S
C6176 C6177 1.415 . S
C6177 H6147 0.950 . S
C6177 C6172 1.363 . S
C6177 C6176 1.415 . S
H6178 C6175 0.999 . S
H6179 C6160 0.913 . S
H6180 C6198 0.951 . S
H6181 C6200 0.951 . S
H6182 C6202 0.950 . S
H6183 C6203 0.950 . S
H6184 C6205 0.950 . S
H6185 C6208 0.950 . S
H6186 C6209 0.950 . S
H6187 C6211 0.950 . S
H6188 C6212 0.950 . S
H6189 C6213 0.951 . S
H6190 C6215 0.951 . S
H6191 C6217 0.950 . S
H6192 C6218 0.950 . S
H6193 C6220 0.950 . S
H6194 C6223 0.950 . S
H6195 C6224 0.950 . S
H6196 C6226 0.950 . S
H6197 C6227 0.950 . S
C6198 H6180 0.951 . S
C6198 C6199 1.366 . S
C6198 C6200 1.388 . S
C6199 C6198 1.366 . S
C6199 C6203 1.385 . S
C6200 H6181 0.951 . S
C6200 C6198 1.388 . S
C6200 C6201 1.366 . S
C6201 C6200 1.366 . S
C6201 C6202 1.414 . S
C6201 C6204 1.499 . S
C6202 H6182 0.950 . S
C6202 C6201 1.414 . S
C6202 C6203 1.374 . S
C6203 H6183 0.950 . S
C6203 C6199 1.385 . S
C6203 C6202 1.374 . S
C6204 C6201 1.499 . S
C6204 C6205 1.373 . S
C6204 C6206 1.389 . S
C6205 H6184 0.950 . S
C6205 C6204 1.373 . S
C6205 C6221 1.377 . S
C6206 C6204 1.389 . S
C6206 C6207 1.524 . S
C6206 C6220 1.377 . S
C6207 C6206 1.524 . S
C6207 C6208 1.397 . S
C6207 C6212 1.363 . S
C6208 H6185 0.950 . S
C6208 C6207 1.397 . S
C6208 C6209 1.334 . S
C6209 H6186 0.950 . S
C6209 C6208 1.334 . S
C6209 C6210 1.287 . S
C6210 C6209 1.287 . S
C6210 C6211 1.524 . S
C6210 H6229 0.913 . S
C6211 H6187 0.950 . S
C6211 C6210 1.524 . S
C6211 C6212 1.415 . S
C6212 H6188 0.950 . S
C6212 C6207 1.363 . S
C6212 C6211 1.415 . S
C6213 H6189 0.951 . S
C6213 C6214 1.366 . S
C6213 C6215 1.388 . S
C6214 C6213 1.366 . S
C6214 C6218 1.385 . S
C6215 H6190 0.951 . S
C6215 C6213 1.388 . S
C6215 C6216 1.366 . S
C6216 C6215 1.366 . S
C6216 C6217 1.414 . S
C6216 C6219 1.499 . S
C6217 H6191 0.950 . S
C6217 C6216 1.414 . S
C6217 C6218 1.374 . S
C6218 H6192 0.950 . S
C6218 C6214 1.385 . S
C6218 C6217 1.374 . S
C6219 C6216 1.499 . S
C6219 C6220 1.373 . S
C6219 C6221 1.389 . S
C6220 H6193 0.950 . S
C6220 C6206 1.377 . S
C6220 C6219 1.373 . S
C6221 C6205 1.377 . S
C6221 C6219 1.389 . S
C6221 C6222 1.524 . S
C6222 C6221 1.524 . S
C6222 C6223 1.397 . S
C6222 C6227 1.363 . S
C6223 H6194 0.950 . S
C6223 C6222 1.397 . S
C6223 C6224 1.334 . S
C6224 H6195 0.950 . S
C6224 C6223 1.334 . S
C6224 C6225 1.287 . S
C6225 C6224 1.287 . S
C6225 C6226 1.524 . S
C6225 H6228 0.999 . S
C6226 H6196 0.950 . S
C6226 C6225 1.524 . S
C6226 C6227 1.415 . S
C6227 H6197 0.950 . S
C6227 C6222 1.363 . S
C6227 C6226 1.415 . S
H6228 C6225 0.999 . S
H6229 C6210 0.913 . S
H6230 C6248 0.951 . S
H6231 C6250 0.951 . S
H6232 C6252 0.950 . S
H6233 C6253 0.950 . S
H6234 C6255 0.950 . S
H6235 C6258 0.950 . S
H6236 C6259 0.950 . S
H6237 C6261 0.950 . S
H6238 C6262 0.950 . S
H6239 C6263 0.951 . S
H6240 C6265 0.951 . S
H6241 C6267 0.950 . S
H6242 C6268 0.950 . S
H6243 C6270 0.950 . S
H6244 C6273 0.950 . S
H6245 C6274 0.950 . S
H6246 C6276 0.950 1_565 S
H6247 C6277 0.950 . S
C6248 H6230 0.951 . S
C6248 C6249 1.366 . S
C6248 C6250 1.388 . S
C6249 C6248 1.366 . S
C6249 C6253 1.385 . S
C6250 H6231 0.951 . S
C6250 C6248 1.388 . S
C6250 C6251 1.366 . S
C6251 C6250 1.366 . S
C6251 C6252 1.414 . S
C6251 C6254 1.499 . S
C6252 H6232 0.950 . S
C6252 C6251 1.414 . S
C6252 C6253 1.374 . S
C6253 H6233 0.950 . S
C6253 C6249 1.385 . S
C6253 C6252 1.374 . S
C6254 C6251 1.499 . S
C6254 C6255 1.373 . S
C6254 C6256 1.389 . S
C6255 H6234 0.950 . S
C6255 C6254 1.373 . S
C6255 C6271 1.377 . S
C6256 C6254 1.389 . S
C6256 C6257 1.524 . S
C6256 C6270 1.377 . S
C6257 C6256 1.524 . S
C6257 C6258 1.397 . S
C6257 C6262 1.363 . S
C6258 H6235 0.950 . S
C6258 C6257 1.397 . S
C6258 C6259 1.334 . S
C6259 H6236 0.950 . S
C6259 C6258 1.334 . S
C6259 C6260 1.287 . S
C6260 C6259 1.287 . S
C6260 C6261 1.524 . S
C6260 H6279 0.913 . S
C6261 H6237 0.950 . S
C6261 C6260 1.524 . S
C6261 C6262 1.415 . S
C6262 H6238 0.950 . S
C6262 C6257 1.363 . S
C6262 C6261 1.415 . S
C6263 H6239 0.951 . S
C6263 C6264 1.366 . S
C6263 C6265 1.388 . S
C6264 C6263 1.366 . S
C6264 C6268 1.385 . S
C6265 H6240 0.951 . S
C6265 C6263 1.388 . S
C6265 C6266 1.366 . S
C6266 C6265 1.366 . S
C6266 C6267 1.414 . S
C6266 C6269 1.499 . S
C6267 H6241 0.950 . S
C6267 C6266 1.414 . S
C6267 C6268 1.374 . S
C6268 H6242 0.950 . S
C6268 C6264 1.385 . S
C6268 C6267 1.374 . S
C6269 C6266 1.499 . S
C6269 C6270 1.373 . S
C6269 C6271 1.389 . S
C6270 H6243 0.950 . S
C6270 C6256 1.377 . S
C6270 C6269 1.373 . S
C6271 C6255 1.377 . S
C6271 C6269 1.389 . S
C6271 C6272 1.524 . S
C6272 C6271 1.524 . S
C6272 C6273 1.397 1_554 S
C6272 C6277 1.363 . S
C6273 H6244 0.950 . S
C6273 C6272 1.397 1_556 S
C6273 C6274 1.334 . S
C6274 H6245 0.950 . S
C6274 C6273 1.334 . S
C6274 C6275 1.287 . S
C6275 C6274 1.287 . S
C6275 C6276 1.524 1_556 S
C6275 H6278 0.999 1_545 S
C6276 H6246 0.950 1_545 S
C6276 C6275 1.524 1_554 S
C6276 C6277 1.415 . S
C6277 H6247 0.950 . S
C6277 C6272 1.363 . S
C6277 C6276 1.415 . S
H6278 C6275 0.999 1_565 S
H6279 C6260 0.913 . S
H6280 C6298 0.951 . S
H6281 C6300 0.951 . S
H6282 C6302 0.950 . S
H6283 C6303 0.950 . S
H6284 C6305 0.950 . S
H6285 C6308 0.950 . S
H6286 C6309 0.950 . S
H6287 C6311 0.950 . S
H6288 C6312 0.950 . S
H6289 C6313 0.951 . S
H6290 C6315 0.951 . S
H6291 C6317 0.950 . S
H6292 C6318 0.950 . S
H6293 C6320 0.950 . S
H6294 C6323 0.950 . S
H6295 C6324 0.950 . S
H6296 C6326 0.950 . S
H6297 C6327 0.950 . S
C6298 H6280 0.951 . S
C6298 C6299 1.366 . S
C6298 C6300 1.388 . S
C6299 C6298 1.366 . S
C6299 C6303 1.385 . S
C6300 H6281 0.951 . S
C6300 C6298 1.388 . S
C6300 C6301 1.366 . S
C6301 C6300 1.366 . S
C6301 C6302 1.414 . S
C6301 C6304 1.499 . S
C6302 H6282 0.950 . S
C6302 C6301 1.414 . S
C6302 C6303 1.374 . S
C6303 H6283 0.950 . S
C6303 C6299 1.385 . S
C6303 C6302 1.374 . S
C6304 C6301 1.499 . S
C6304 C6305 1.373 . S
C6304 C6306 1.389 . S
C6305 H6284 0.950 . S
C6305 C6304 1.373 . S
C6305 C6321 1.377 . S
C6306 C6304 1.389 . S
C6306 C6307 1.524 . S
C6306 C6320 1.377 . S
C6307 C6306 1.524 . S
C6307 C6308 1.397 . S
C6307 C6312 1.363 . S
C6308 H6285 0.950 . S
C6308 C6307 1.397 . S
C6308 C6309 1.334 . S
C6309 H6286 0.950 . S
C6309 C6308 1.334 . S
C6309 C6310 1.287 . S
C6310 C6309 1.287 . S
C6310 C6311 1.524 . S
C6310 H6329 0.913 . S
C6311 H6287 0.950 . S
C6311 C6310 1.524 . S
C6311 C6312 1.415 . S
C6312 H6288 0.950 . S
C6312 C6307 1.363 . S
C6312 C6311 1.415 . S
C6313 H6289 0.951 . S
C6313 C6314 1.366 . S
C6313 C6315 1.388 . S
C6314 C6313 1.366 . S
C6314 C6318 1.385 . S
C6315 H6290 0.951 . S
C6315 C6313 1.388 . S
C6315 C6316 1.366 . S
C6316 C6315 1.366 . S
C6316 C6317 1.414 . S
C6316 C6319 1.499 . S
C6317 H6291 0.950 . S
C6317 C6316 1.414 . S
C6317 C6318 1.374 . S
C6318 H6292 0.950 . S
C6318 C6314 1.385 . S
C6318 C6317 1.374 . S
C6319 C6316 1.499 . S
C6319 C6320 1.373 . S
C6319 C6321 1.389 . S
C6320 H6293 0.950 . S
C6320 C6306 1.377 . S
C6320 C6319 1.373 . S
C6321 C6305 1.377 . S
C6321 C6319 1.389 . S
C6321 C6322 1.524 . S
C6322 C6321 1.524 . S
C6322 C6323 1.397 . S
C6322 C6327 1.363 . S
C6323 H6294 0.950 . S
C6323 C6322 1.397 . S
C6323 C6324 1.334 . S
C6324 H6295 0.950 . S
C6324 C6323 1.334 . S
C6324 C6325 1.287 . S
C6325 C6324 1.287 . S
C6325 C6326 1.524 . S
C6325 H6328 0.999 . S
C6326 H6296 0.950 . S
C6326 C6325 1.524 . S
C6326 C6327 1.415 . S
C6327 H6297 0.950 . S
C6327 C6322 1.363 . S
C6327 C6326 1.415 . S
H6328 C6325 0.999 . S
H6329 C6310 0.913 . S
H6330 C6348 0.951 . S
H6331 C6350 0.951 . S
H6332 C6352 0.950 . S
H6333 C6353 0.950 . S
H6334 C6355 0.950 . S
H6335 C6358 0.991 . S
H6336 C6359 0.950 1_556 S
H6337 C6361 0.950 . S
H6338 C6362 0.950 . S
H6339 C6363 0.951 . S
H6340 C6365 0.951 . S
H6341 C6367 0.950 . S
H6342 C6368 0.950 . S
H6343 C6370 0.950 . S
H6344 C6373 0.950 . S
H6345 C6374 0.950 . S
H6346 C6376 0.950 . S
H6347 C6377 0.950 . S
C6348 H6330 0.951 . S
C6348 C6349 1.366 . S
C6348 C6350 1.388 . S
C6349 C6348 1.366 . S
C6349 C6353 1.385 . S
C6350 H6331 0.951 . S
C6350 C6348 1.388 . S
C6350 C6351 1.366 . S
C6351 C6350 1.366 . S
C6351 C6352 1.414 . S
C6351 C6354 1.499 . S
C6352 H6332 0.950 . S
C6352 C6351 1.414 . S
C6352 C6353 1.374 . S
C6353 H6333 0.950 . S
C6353 C6349 1.385 . S
C6353 C6352 1.374 . S
C6354 C6351 1.499 . S
C6354 C6355 1.373 . S
C6354 C6356 1.389 . S
C6355 H6334 0.950 . S
C6355 C6354 1.373 . S
C6355 C6371 1.377 . S
C6356 C6354 1.389 . S
C6356 C6357 1.524 . S
C6356 C6370 1.377 . S
C6357 C6356 1.524 . S
C6357 C6358 1.397 . S
C6357 C6362 1.363 . S
C6358 H6335 0.991 . S
C6358 C6357 1.397 . S
C6358 C6359 1.334 . S
C6359 H6336 0.950 1_554 S
C6359 C6358 1.334 . S
C6359 C6360 1.287 . S
C6360 C6359 1.287 . S
C6360 C6361 1.524 . S
C6360 H6379 0.913 . S
C6361 H6337 0.950 . S
C6361 C6360 1.524 . S
C6361 C6362 1.415 . S
C6362 H6338 0.950 . S
C6362 C6357 1.363 . S
C6362 C6361 1.415 . S
C6363 H6339 0.951 . S
C6363 C6364 1.366 . S
C6363 C6365 1.388 . S
C6364 C6363 1.366 . S
C6364 C6368 1.385 . S
C6365 H6340 0.951 . S
C6365 C6363 1.388 . S
C6365 C6366 1.366 . S
C6366 C6365 1.366 . S
C6366 C6367 1.414 . S
C6366 C6369 1.499 . S
C6367 H6341 0.950 . S
C6367 C6366 1.414 . S
C6367 C6368 1.374 . S
C6368 H6342 0.950 . S
C6368 C6364 1.385 . S
C6368 C6367 1.374 . S
C6369 C6366 1.499 . S
C6369 C6370 1.373 . S
C6369 C6371 1.389 . S
C6370 H6343 0.950 . S
C6370 C6356 1.377 . S
C6370 C6369 1.373 . S
C6371 C6355 1.377 . S
C6371 C6369 1.389 . S
C6371 C6372 1.524 . S
C6372 C6371 1.524 . S
C6372 C6373 1.397 . S
C6372 C6377 1.363 . S
C6373 H6344 0.950 . S
C6373 C6372 1.397 . S
C6373 C6374 1.334 . S
C6374 H6345 0.950 . S
C6374 C6373 1.334 . S
C6374 C6375 1.287 . S
C6375 C6374 1.287 . S
C6375 C6376 1.524 . S
C6375 H6378 0.999 . S
C6376 H6346 0.950 . S
C6376 C6375 1.524 . S
C6376 C6377 1.415 . S
C6377 H6347 0.950 . S
C6377 C6372 1.363 . S
C6377 C6376 1.415 . S
H6378 C6375 0.999 . S
H6379 C6360 0.913 . S
H6380 C6398 0.951 . S
H6381 C6400 0.951 . S
H6382 C6402 0.950 . S
H6383 C6403 0.950 . S
H6384 C6405 0.950 . S
H6385 C6408 0.950 . S
H6386 C6409 0.950 . S
H6387 C6411 0.950 . S
H6388 C6412 0.950 . S
H6389 C6413 0.951 . S
H6390 C6415 0.951 . S
H6391 C6417 0.950 . S
H6392 C6418 0.950 . S
H6393 C6420 0.950 . S
H6394 C6423 0.950 . S
H6395 C6424 0.950 . S
H6396 C6426 0.950 . S
H6397 C6427 0.950 . S
C6398 H6380 0.951 . S
C6398 C6399 1.366 . S
C6398 C6400 1.388 . S
C6399 C6398 1.366 . S
C6399 C6403 1.385 . S
C6400 H6381 0.951 . S
C6400 C6398 1.388 . S
C6400 C6401 1.366 . S
C6401 C6400 1.366 . S
C6401 C6402 1.414 . S
C6401 C6404 1.499 . S
C6402 H6382 0.950 . S
C6402 C6401 1.414 . S
C6402 C6403 1.374 . S
C6403 H6383 0.950 . S
C6403 C6399 1.385 . S
C6403 C6402 1.374 . S
C6404 C6401 1.499 . S
C6404 C6405 1.373 . S
C6404 C6406 1.389 . S
C6405 H6384 0.950 . S
C6405 C6404 1.373 . S
C6405 C6421 1.377 . S
C6406 C6404 1.389 . S
C6406 C6407 1.524 . S
C6406 C6420 1.377 . S
C6407 C6406 1.524 . S
C6407 C6408 1.397 . S
C6407 C6412 1.363 . S
C6408 H6385 0.950 . S
C6408 C6407 1.397 . S
C6408 C6409 1.334 . S
C6409 H6386 0.950 . S
C6409 C6408 1.334 . S
C6409 C6410 1.287 . S
C6410 C6409 1.287 . S
C6410 C6411 1.524 . S
C6410 H6429 0.913 . S
C6411 H6387 0.950 . S
C6411 C6410 1.524 . S
C6411 C6412 1.415 . S
C6412 H6388 0.950 . S
C6412 C6407 1.363 . S
C6412 C6411 1.415 . S
C6413 H6389 0.951 . S
C6413 C6414 1.366 . S
C6413 C6415 1.388 . S
C6414 C6413 1.366 . S
C6414 C6418 1.385 . S
C6415 H6390 0.951 . S
C6415 C6413 1.388 . S
C6415 C6416 1.366 . S
C6416 C6415 1.366 . S
C6416 C6417 1.414 . S
C6416 C6419 1.499 . S
C6417 H6391 0.950 . S
C6417 C6416 1.414 . S
C6417 C6418 1.374 . S
C6418 H6392 0.950 . S
C6418 C6414 1.385 . S
C6418 C6417 1.374 . S
C6419 C6416 1.499 . S
C6419 C6420 1.373 . S
C6419 C6421 1.389 . S
C6420 H6393 0.950 . S
C6420 C6406 1.377 . S
C6420 C6419 1.373 . S
C6421 C6405 1.377 . S
C6421 C6419 1.389 . S
C6421 C6422 1.524 . S
C6422 C6421 1.524 . S
C6422 C6423 1.397 . S
C6422 C6427 1.363 . S
C6423 H6394 0.950 . S
C6423 C6422 1.397 . S
C6423 C6424 1.334 . S
C6424 H6395 0.950 . S
C6424 C6423 1.334 . S
C6424 C6425 1.287 . S
C6425 C6424 1.287 . S
C6425 C6426 1.524 . S
C6425 H6428 0.999 . S
C6426 H6396 0.950 . S
C6426 C6425 1.524 . S
C6426 C6427 1.415 . S
C6427 H6397 0.950 . S
C6427 C6422 1.363 . S
C6427 C6426 1.415 . S
H6428 C6425 0.999 . S
H6429 C6410 0.913 . S
H6430 C6448 0.951 . S
H6431 C6450 0.951 . S
H6432 C6452 0.950 . S
H6433 C6453 0.950 . S
H6434 C6455 0.950 . S
H6435 C6458 0.950 . S
H6436 C6459 0.950 . S
H6437 C6461 0.950 . S
H6438 C6462 0.950 . S
H6439 C6463 0.951 . S
H6440 C6465 0.951 . S
H6441 C6467 0.950 . S
H6442 C6468 0.950 . S
H6443 C6470 0.950 . S
H6444 C6473 0.950 . S
H6445 C6474 0.950 . S
H6446 C6476 0.950 . S
H6447 C6477 0.950 . S
C6448 H6430 0.951 . S
C6448 C6449 1.366 . S
C6448 C6450 1.388 . S
C6449 C6448 1.366 . S
C6449 C6453 1.385 . S
C6450 H6431 0.951 . S
C6450 C6448 1.388 . S
C6450 C6451 1.366 . S
C6451 C6450 1.366 . S
C6451 C6452 1.414 . S
C6451 C6454 1.499 . S
C6452 H6432 0.950 . S
C6452 C6451 1.414 . S
C6452 C6453 1.374 . S
C6453 H6433 0.950 . S
C6453 C6449 1.385 . S
C6453 C6452 1.374 . S
C6454 C6451 1.499 . S
C6454 C6455 1.373 . S
C6454 C6456 1.389 . S
C6455 H6434 0.950 . S
C6455 C6454 1.373 . S
C6455 C6471 1.377 . S
C6456 C6454 1.389 . S
C6456 C6457 1.524 . S
C6456 C6470 1.377 . S
C6457 C6456 1.524 . S
C6457 C6458 1.397 . S
C6457 C6462 1.363 . S
C6458 H6435 0.950 . S
C6458 C6457 1.397 . S
C6458 C6459 1.334 . S
C6459 H6436 0.950 . S
C6459 C6458 1.334 . S
C6459 C6460 1.287 . S
C6460 C6459 1.287 . S
C6460 C6461 1.524 . S
C6460 H6479 0.913 . S
C6461 H6437 0.950 . S
C6461 C6460 1.524 . S
C6461 C6462 1.415 . S
C6462 H6438 0.950 . S
C6462 C6457 1.363 . S
C6462 C6461 1.415 . S
C6463 H6439 0.951 . S
C6463 C6464 1.366 . S
C6463 C6465 1.388 . S
C6464 C6463 1.366 . S
C6464 C6468 1.385 . S
C6465 H6440 0.951 . S
C6465 C6463 1.388 . S
C6465 C6466 1.366 . S
C6466 C6465 1.366 . S
C6466 C6467 1.414 . S
C6466 C6469 1.499 . S
C6467 H6441 0.950 . S
C6467 C6466 1.414 . S
C6467 C6468 1.374 . S
C6468 H6442 0.950 . S
C6468 C6464 1.385 . S
C6468 C6467 1.374 . S
C6469 C6466 1.499 . S
C6469 C6470 1.373 . S
C6469 C6471 1.389 . S
C6470 H6443 0.950 . S
C6470 C6456 1.377 . S
C6470 C6469 1.373 . S
C6471 C6455 1.377 . S
C6471 C6469 1.389 . S
C6471 C6472 1.524 . S
C6472 C6471 1.524 . S
C6472 C6473 1.397 . S
C6472 C6477 1.363 . S
C6473 H6444 0.950 . S
C6473 C6472 1.397 . S
C6473 C6474 1.334 . S
C6474 H6445 0.950 . S
C6474 C6473 1.334 . S
C6474 C6475 1.287 . S
C6475 C6474 1.287 . S
C6475 C6476 1.524 . S
C6475 H6478 0.999 . S
C6476 H6446 0.950 . S
C6476 C6475 1.524 . S
C6476 C6477 1.415 . S
C6477 H6447 0.950 . S
C6477 C6472 1.363 . S
C6477 C6476 1.415 . S
H6478 C6475 0.999 . S
H6479 C6460 0.913 . S
C1699 C105 2.017 1_455 S
C1714 C403 2.022 . S
C1749 C65 1.854 . S
C1764 C476 1.836 . S
C1799 C73 1.793 . S
C1814 C571 1.806 . S
C1864 C646 1.470 . S
C1849 C92 1.579 . S
C1899 C17 1.646 . S
C1914 C730 1.519 . S
C1964 C823 1.779 . S
C1949 C37 1.748 . S
C2014 C896 1.852 . S
C1999 C49 1.784 . S
C2049 C8 1.958 . S
C2064 C991 1.955 . S
C2114 C392 1.541 . S
C2099 C231 1.554 . S
C2149 C241 0.896 . S
C2164 C478 0.861 . S
C2214 C560 1.098 . S
C2199 C273 1.073 . S
C2264 C655 1.597 . S
C2249 C171 1.596 1_556 S
C2299 C227 1.582 . S
C2314 C739 1.583 . S
C2364 C812 1.103 . S
C2349 C245 1.076 . S
C2414 C898 0.863 . S
C2399 C269 0.896 . S
C2464 C980 1.532 . S
C2449 C175 1.546 . S
C2514 C394 0.871 1_565 S
C2499 C162 0.915 1_554 S
C2549 C289 1.703 . S
C2564 C1064 1.682 . S
C2614 C1150 1.295 . S
C2599 C330 1.370 . S
C2664 C1243 0.793 . S
C2649 C317 0.792 . S
C2699 C120 0.878 . S
C2714 C982 0.855 . S
C2749 C134 1.387 . S
C2764 C562 1.312 . S
C2799 C331 1.659 . S
C2814 C1316 1.638 . S
C2864 C1411 0.726 . S
C2849 C303 0.726 . S
C2914 C391 2.057 . S
C2899 C59 2.037 . S
C2964 C1412 1.890 . S
C2949 C107 1.902 . S
C2999 C91 1.843 . S
C3014 C559 1.866 . S
C3049 C78 1.617 . S
C3064 C1330 1.502 . S
C3114 C742 1.556 . S
C3099 C7 1.645 . S
C3149 C51 1.797 . S
C3164 C1147 1.832 . S
C3214 C908 1.904 1_556 S
C3199 C31 1.923 . S
C3264 C1483 1.996 . S
C3249 C22 1.984 . S
C3314 C404 1.589 . S
C3299 C143 1.623 . S
C3364 C1414 0.900 . S
C3349 C315 0.926 . S
C3399 C115 1.154 . S
C3414 C572 1.140 . S
C3449 C287 1.616 . S
C3464 C1315 1.652 . S
C3499 C147 1.606 . S
C3514 C727 1.641 . S
C3564 C1160 1.145 . S
C3549 C311 1.160 . S
C3599 C119 0.923 . S
C3614 C910 0.898 . S
C3649 C283 1.614 . S
C3664 C1496 1.579 . S
C3699 C190 0.936 . S
C3714 C406 0.909 . S
C3749 C177 1.742 . S
C3764 C1076 1.726 . S
C3799 C260 1.386 . S
C3814 C826 1.312 . S
C3849 C247 0.844 . S
C3864 C1231 0.847 . S
C3914 C1498 0.870 . S
C3899 C274 0.894 1_565 S
C3949 C218 1.408 . S
C3964 C574 1.331 . S
C4014 C656 1.684 . S
C3999 C261 1.701 . S
C4064 C475 0.780 . S
C4049 C205 0.779 . S
C4099 C77 2.019 . S
C4114 C1579 2.022 . S
C4164 C1400 1.835 . S
C4149 C93 1.854 . S
C4199 C101 1.792 . S
C4214 C1663 1.806 . S
C4249 C64 1.578 1_655 S
C4264 C1318 1.469 . S
C4299 C45 1.646 . S
C4314 C1066 1.518 . S
C4364 C1159 1.780 . S
C4349 C9 1.748 . S
C4414 C1232 1.852 . S
C4399 C21 1.784 . S
C4464 C1495 1.955 . S
C4449 C36 1.958 . S
C4514 C1568 1.541 . S
C4499 C259 1.554 . S
C4549 C185 0.896 . S
C4564 C1402 0.863 . S
C4614 C1652 1.098 . S
C4599 C203 1.072 . S
C4664 C1327 1.598 . S
C4649 C213 1.597 . S
C4714 C1075 1.582 . S
C4699 C255 1.581 . S
C4749 C189 1.076 . S
C4764 C1148 1.102 . S
C4814 C1234 0.861 . S
C4799 C199 0.896 . S
C4849 C217 1.545 . S
C4864 C1484 1.532 . S
C4914 C1570 0.893 . S
C4899 C316 0.922 . S
C4949 C135 1.703 . S
C4964 C728 1.682 . S
C5014 C814 1.296 . S
C4999 C148 1.373 . S
C5064 C907 0.793 . S
C5049 C163 0.791 . S
C5114 C1486 0.854 . S
C5099 C302 0.877 . S
C5149 C288 1.388 . S
C5164 C1654 1.312 . S
C5214 C644 1.638 . S
C5199 C149 1.659 . S
C5264 C487 0.726 . S
C5249 C121 0.726 . S
C5299 C87 2.037 . S
C5314 C1567 2.057 . S
C5364 C488 1.891 . S
C5349 C79 1.902 . S
C5399 C63 1.843 . S
C5414 C1651 1.867 . S
C5449 C106 1.617 . S
C5464 C658 1.502 . S
C5499 C35 1.645 . S
C5514 C1078 1.557 . S
C5564 C811 1.832 . S
C5549 C23 1.798 . S
C5599 C3 1.922 . S
C5614 C1244 1.903 . S
C5649 C50 1.984 . S
C5664 C979 1.996 . S
C5714 C1580 1.589 . S
C5699 C325 1.624 . S
C5749 C161 0.926 . S
C5764 C490 0.893 . S
C5814 C1664 1.139 1_655 S
C5799 C297 1.155 . S
C5849 C133 1.617 . S
C5864 C643 1.652 . S
C5899 C329 1.607 . S
C5914 C1063 1.641 . S
C5964 C824 1.145 . S
C5949 C157 1.166 . S
C5999 C301 0.924 . S
C6014 C1246 0.895 . S
C6064 C992 1.579 . S
C6049 C129 1.614 . S
C6114 C1582 0.906 . S
C6099 C246 0.936 . S
C6164 C740 1.726 1_565 S
C6149 C219 1.743 . S
C6199 C232 1.386 . S
C6214 C1162 1.313 . S
C6264 C895 0.848 . S
C6249 C191 0.844 . S
C6299 C204 0.894 . S
C6314 C994 0.871 . S
C6349 C176 1.408 . S
C6364 C1666 1.330 . S
C6414 C1328 1.684 . S
C6399 C233 1.700 . S
C6464 C1399 0.780 . S
C6449 C275 0.778 . S
