# Generated by pormake.
# Topology gar, (4,6)-cn, num edge types: 1
# Building blocks:
#     Node 0, Type 0, BuildingBlock: UXUYUI_clean_sbu_0, # of connection points: 4
#     Node 1, Type 0, BuildingBlock: UXUYUI_clean_sbu_0, # of connection points: 4
#     Node 2, Type 0, BuildingBlock: UXUYUI_clean_sbu_0, # of connection points: 4
#     Node 3, Type 0, BuildingBlock: UXUYUI_clean_sbu_0, # of connection points: 4
#     Node 4, Type 0, BuildingBlock: UXUYUI_clean_sbu_0, # of connection points: 4
#     Node 5, Type 0, BuildingBlock: UXUYUI_clean_sbu_0, # of connection points: 4
#     Node 6, Type 0, BuildingBlock: UXUYUI_clean_sbu_0, # of connection points: 4
#     Node 7, Type 0, BuildingBlock: UXUYUI_clean_sbu_0, # of connection points: 4
#     Node 8, Type 0, BuildingBlock: UXUYUI_clean_sbu_0, # of connection points: 4
#     Node 9, Type 0, BuildingBlock: UXUYUI_clean_sbu_0, # of connection points: 4
#     Node 10, Type 0, BuildingBlock: UXUYUI_clean_sbu_0, # of connection points: 4
#     Node 11, Type 0, BuildingBlock: UXUYUI_clean_sbu_0, # of connection points: 4
#     Node 12, Type 0, BuildingBlock: UXUYUI_clean_sbu_0, # of connection points: 4
#     Node 13, Type 0, BuildingBlock: UXUYUI_clean_sbu_0, # of connection points: 4
#     Node 14, Type 0, BuildingBlock: UXUYUI_clean_sbu_0, # of connection points: 4
#     Node 15, Type 0, BuildingBlock: UXUYUI_clean_sbu_0, # of connection points: 4
#     Node 16, Type 0, BuildingBlock: UXUYUI_clean_sbu_0, # of connection points: 4
#     Node 17, Type 0, BuildingBlock: UXUYUI_clean_sbu_0, # of connection points: 4
#     Node 18, Type 0, BuildingBlock: UXUYUI_clean_sbu_0, # of connection points: 4
#     Node 19, Type 0, BuildingBlock: UXUYUI_clean_sbu_0, # of connection points: 4
#     Node 20, Type 0, BuildingBlock: UXUYUI_clean_sbu_0, # of connection points: 4
#     Node 21, Type 0, BuildingBlock: UXUYUI_clean_sbu_0, # of connection points: 4
#     Node 22, Type 0, BuildingBlock: UXUYUI_clean_sbu_0, # of connection points: 4
#     Node 23, Type 0, BuildingBlock: UXUYUI_clean_sbu_0, # of connection points: 4
#     Node 24, Type 1, BuildingBlock: GEDQOX_clean_sbu_0, # of connection points: 6
#     Node 25, Type 1, BuildingBlock: GEDQOX_clean_sbu_0, # of connection points: 6
#     Node 26, Type 1, BuildingBlock: GEDQOX_clean_sbu_0, # of connection points: 6
#     Node 27, Type 1, BuildingBlock: GEDQOX_clean_sbu_0, # of connection points: 6
#     Node 28, Type 1, BuildingBlock: GEDQOX_clean_sbu_0, # of connection points: 6
#     Node 29, Type 1, BuildingBlock: GEDQOX_clean_sbu_0, # of connection points: 6
#     Node 30, Type 1, BuildingBlock: GEDQOX_clean_sbu_0, # of connection points: 6
#     Node 31, Type 1, BuildingBlock: GEDQOX_clean_sbu_0, # of connection points: 6
#     Node 32, Type 1, BuildingBlock: GEDQOX_clean_sbu_0, # of connection points: 6
#     Node 33, Type 1, BuildingBlock: GEDQOX_clean_sbu_0, # of connection points: 6
#     Node 34, Type 1, BuildingBlock: GEDQOX_clean_sbu_0, # of connection points: 6
#     Node 35, Type 1, BuildingBlock: GEDQOX_clean_sbu_0, # of connection points: 6
#     Node 36, Type 1, BuildingBlock: GEDQOX_clean_sbu_0, # of connection points: 6
#     Node 37, Type 1, BuildingBlock: GEDQOX_clean_sbu_0, # of connection points: 6
#     Node 38, Type 1, BuildingBlock: GEDQOX_clean_sbu_0, # of connection points: 6
#     Node 39, Type 1, BuildingBlock: GEDQOX_clean_sbu_0, # of connection points: 6
#     Edge 40, Type (0, 1), BuildingBlock: UVAHIK_clean_linker_0, # of connection points: 2
#     Edge 41, Type (0, 1), BuildingBlock: UVAHIK_clean_linker_0, # of connection points: 2
#     Edge 42, Type (0, 1), BuildingBlock: UVAHIK_clean_linker_0, # of connection points: 2
#     Edge 43, Type (0, 1), BuildingBlock: UVAHIK_clean_linker_0, # of connection points: 2
#     Edge 44, Type (0, 1), BuildingBlock: UVAHIK_clean_linker_0, # of connection points: 2
#     Edge 45, Type (0, 1), BuildingBlock: UVAHIK_clean_linker_0, # of connection points: 2
#     Edge 46, Type (0, 1), BuildingBlock: UVAHIK_clean_linker_0, # of connection points: 2
#     Edge 47, Type (0, 1), BuildingBlock: UVAHIK_clean_linker_0, # of connection points: 2
#     Edge 48, Type (0, 1), BuildingBlock: UVAHIK_clean_linker_0, # of connection points: 2
#     Edge 49, Type (0, 1), BuildingBlock: UVAHIK_clean_linker_0, # of connection points: 2
#     Edge 50, Type (0, 1), BuildingBlock: UVAHIK_clean_linker_0, # of connection points: 2
#     Edge 51, Type (0, 1), BuildingBlock: UVAHIK_clean_linker_0, # of connection points: 2
#     Edge 52, Type (0, 1), BuildingBlock: UVAHIK_clean_linker_0, # of connection points: 2
#     Edge 53, Type (0, 1), BuildingBlock: UVAHIK_clean_linker_0, # of connection points: 2
#     Edge 54, Type (0, 1), BuildingBlock: UVAHIK_clean_linker_0, # of connection points: 2
#     Edge 55, Type (0, 1), BuildingBlock: UVAHIK_clean_linker_0, # of connection points: 2
#     Edge 56, Type (0, 1), BuildingBlock: UVAHIK_clean_linker_0, # of connection points: 2
#     Edge 57, Type (0, 1), BuildingBlock: UVAHIK_clean_linker_0, # of connection points: 2
#     Edge 58, Type (0, 1), BuildingBlock: UVAHIK_clean_linker_0, # of connection points: 2
#     Edge 59, Type (0, 1), BuildingBlock: UVAHIK_clean_linker_0, # of connection points: 2
#     Edge 60, Type (0, 1), BuildingBlock: UVAHIK_clean_linker_0, # of connection points: 2
#     Edge 61, Type (0, 1), BuildingBlock: UVAHIK_clean_linker_0, # of connection points: 2
#     Edge 62, Type (0, 1), BuildingBlock: UVAHIK_clean_linker_0, # of connection points: 2
#     Edge 63, Type (0, 1), BuildingBlock: UVAHIK_clean_linker_0, # of connection points: 2
#     Edge 64, Type (0, 1), BuildingBlock: UVAHIK_clean_linker_0, # of connection points: 2
#     Edge 65, Type (0, 1), BuildingBlock: UVAHIK_clean_linker_0, # of connection points: 2
#     Edge 66, Type (0, 1), BuildingBlock: UVAHIK_clean_linker_0, # of connection points: 2
#     Edge 67, Type (0, 1), BuildingBlock: UVAHIK_clean_linker_0, # of connection points: 2
#     Edge 68, Type (0, 1), BuildingBlock: UVAHIK_clean_linker_0, # of connection points: 2
#     Edge 69, Type (0, 1), BuildingBlock: UVAHIK_clean_linker_0, # of connection points: 2
#     Edge 70, Type (0, 1), BuildingBlock: UVAHIK_clean_linker_0, # of connection points: 2
#     Edge 71, Type (0, 1), BuildingBlock: UVAHIK_clean_linker_0, # of connection points: 2
#     Edge 72, Type (0, 1), BuildingBlock: UVAHIK_clean_linker_0, # of connection points: 2
#     Edge 73, Type (0, 1), BuildingBlock: UVAHIK_clean_linker_0, # of connection points: 2
#     Edge 74, Type (0, 1), BuildingBlock: UVAHIK_clean_linker_0, # of connection points: 2
#     Edge 75, Type (0, 1), BuildingBlock: UVAHIK_clean_linker_0, # of connection points: 2
#     Edge 76, Type (0, 1), BuildingBlock: UVAHIK_clean_linker_0, # of connection points: 2
#     Edge 77, Type (0, 1), BuildingBlock: UVAHIK_clean_linker_0, # of connection points: 2
#     Edge 78, Type (0, 1), BuildingBlock: UVAHIK_clean_linker_0, # of connection points: 2
#     Edge 79, Type (0, 1), BuildingBlock: UVAHIK_clean_linker_0, # of connection points: 2
#     Edge 80, Type (0, 1), BuildingBlock: UVAHIK_clean_linker_0, # of connection points: 2
#     Edge 81, Type (0, 1), BuildingBlock: UVAHIK_clean_linker_0, # of connection points: 2
#     Edge 82, Type (0, 1), BuildingBlock: UVAHIK_clean_linker_0, # of connection points: 2
#     Edge 83, Type (0, 1), BuildingBlock: UVAHIK_clean_linker_0, # of connection points: 2
#     Edge 84, Type (0, 1), BuildingBlock: UVAHIK_clean_linker_0, # of connection points: 2
#     Edge 85, Type (0, 1), BuildingBlock: UVAHIK_clean_linker_0, # of connection points: 2
#     Edge 86, Type (0, 1), BuildingBlock: UVAHIK_clean_linker_0, # of connection points: 2
#     Edge 87, Type (0, 1), BuildingBlock: UVAHIK_clean_linker_0, # of connection points: 2
#     Edge 88, Type (0, 1), BuildingBlock: UVAHIK_clean_linker_0, # of connection points: 2
#     Edge 89, Type (0, 1), BuildingBlock: UVAHIK_clean_linker_0, # of connection points: 2
#     Edge 90, Type (0, 1), BuildingBlock: UVAHIK_clean_linker_0, # of connection points: 2
#     Edge 91, Type (0, 1), BuildingBlock: UVAHIK_clean_linker_0, # of connection points: 2
#     Edge 92, Type (0, 1), BuildingBlock: UVAHIK_clean_linker_0, # of connection points: 2
#     Edge 93, Type (0, 1), BuildingBlock: UVAHIK_clean_linker_0, # of connection points: 2
#     Edge 94, Type (0, 1), BuildingBlock: UVAHIK_clean_linker_0, # of connection points: 2
#     Edge 95, Type (0, 1), BuildingBlock: UVAHIK_clean_linker_0, # of connection points: 2
#     Edge 96, Type (0, 1), BuildingBlock: UVAHIK_clean_linker_0, # of connection points: 2
#     Edge 97, Type (0, 1), BuildingBlock: UVAHIK_clean_linker_0, # of connection points: 2
#     Edge 98, Type (0, 1), BuildingBlock: UVAHIK_clean_linker_0, # of connection points: 2
#     Edge 99, Type (0, 1), BuildingBlock: UVAHIK_clean_linker_0, # of connection points: 2
#     Edge 100, Type (0, 1), BuildingBlock: UVAHIK_clean_linker_0, # of connection points: 2
#     Edge 101, Type (0, 1), BuildingBlock: UVAHIK_clean_linker_0, # of connection points: 2
#     Edge 102, Type (0, 1), BuildingBlock: UVAHIK_clean_linker_0, # of connection points: 2
#     Edge 103, Type (0, 1), BuildingBlock: UVAHIK_clean_linker_0, # of connection points: 2
#     Edge 104, Type (0, 1), BuildingBlock: UVAHIK_clean_linker_0, # of connection points: 2
#     Edge 105, Type (0, 1), BuildingBlock: UVAHIK_clean_linker_0, # of connection points: 2
#     Edge 106, Type (0, 1), BuildingBlock: UVAHIK_clean_linker_0, # of connection points: 2
#     Edge 107, Type (0, 1), BuildingBlock: UVAHIK_clean_linker_0, # of connection points: 2
#     Edge 108, Type (0, 1), BuildingBlock: UVAHIK_clean_linker_0, # of connection points: 2
#     Edge 109, Type (0, 1), BuildingBlock: UVAHIK_clean_linker_0, # of connection points: 2
#     Edge 110, Type (0, 1), BuildingBlock: UVAHIK_clean_linker_0, # of connection points: 2
#     Edge 111, Type (0, 1), BuildingBlock: UVAHIK_clean_linker_0, # of connection points: 2
#     Edge 112, Type (0, 1), BuildingBlock: UVAHIK_clean_linker_0, # of connection points: 2
#     Edge 113, Type (0, 1), BuildingBlock: UVAHIK_clean_linker_0, # of connection points: 2
#     Edge 114, Type (0, 1), BuildingBlock: UVAHIK_clean_linker_0, # of connection points: 2
#     Edge 115, Type (0, 1), BuildingBlock: UVAHIK_clean_linker_0, # of connection points: 2
#     Edge 116, Type (0, 1), BuildingBlock: UVAHIK_clean_linker_0, # of connection points: 2
#     Edge 117, Type (0, 1), BuildingBlock: UVAHIK_clean_linker_0, # of connection points: 2
#     Edge 118, Type (0, 1), BuildingBlock: UVAHIK_clean_linker_0, # of connection points: 2
#     Edge 119, Type (0, 1), BuildingBlock: UVAHIK_clean_linker_0, # of connection points: 2
#     Edge 120, Type (0, 1), BuildingBlock: UVAHIK_clean_linker_0, # of connection points: 2
#     Edge 121, Type (0, 1), BuildingBlock: UVAHIK_clean_linker_0, # of connection points: 2
#     Edge 122, Type (0, 1), BuildingBlock: UVAHIK_clean_linker_0, # of connection points: 2
#     Edge 123, Type (0, 1), BuildingBlock: UVAHIK_clean_linker_0, # of connection points: 2
#     Edge 124, Type (0, 1), BuildingBlock: UVAHIK_clean_linker_0, # of connection points: 2
#     Edge 125, Type (0, 1), BuildingBlock: UVAHIK_clean_linker_0, # of connection points: 2
#     Edge 126, Type (0, 1), BuildingBlock: UVAHIK_clean_linker_0, # of connection points: 2
#     Edge 127, Type (0, 1), BuildingBlock: UVAHIK_clean_linker_0, # of connection points: 2
#     Edge 128, Type (0, 1), BuildingBlock: UVAHIK_clean_linker_0, # of connection points: 2
#     Edge 129, Type (0, 1), BuildingBlock: UVAHIK_clean_linker_0, # of connection points: 2
#     Edge 130, Type (0, 1), BuildingBlock: UVAHIK_clean_linker_0, # of connection points: 2
#     Edge 131, Type (0, 1), BuildingBlock: UVAHIK_clean_linker_0, # of connection points: 2
#     Edge 132, Type (0, 1), BuildingBlock: UVAHIK_clean_linker_0, # of connection points: 2
#     Edge 133, Type (0, 1), BuildingBlock: UVAHIK_clean_linker_0, # of connection points: 2
#     Edge 134, Type (0, 1), BuildingBlock: UVAHIK_clean_linker_0, # of connection points: 2
#     Edge 135, Type (0, 1), BuildingBlock: UVAHIK_clean_linker_0, # of connection points: 2
# Relax obj value: 0.239
# Max RMSD: 0.328
# Mean RMSD: 0.202
data_MOF--net-gar--node1-UXUYUI_clean_sbu_0--node2-GEDQOX_clean_sbu_0--edge1-UVAHIK_clean_linker_0
_symmetry_space_group_name_H-M    P1
_symmetry_Int_Tables_number       1
_symmetry_cell_setting            triclinic
loop_
_symmetry_equiv_pos_as_xyz
'x, y, z'
_cell_length_a     89.691492
_cell_length_b     87.042246
_cell_length_c     81.935014
_cell_angle_alpha  96.225121
_cell_angle_beta   96.29184
_cell_angle_gamma 100.28485
loop_
_atom_site_label
_atom_site_type_symbol
_atom_site_fract_x
_atom_site_fract_y
_atom_site_fract_z
_atom_type_partial_charge
Li0 Li 0.03089 0.32656 0.42596 0.0
Li1 Li 0.04807 0.34014 0.44981 0.0
Li2 Li 0.05803 0.32704 0.42706 0.0
Li3 Li 0.04304 0.31215 0.44642 0.0
C4 C 0.04561 0.35536 0.41615 0.0
N5 N 0.04127 0.37648 0.39408 0.0
C6 C 0.04248 0.37005 0.42175 0.0
C7 C 0.0467 0.35147 0.39939 0.0
C8 C 0.04028 0.38055 0.41037 0.0
C9 C 0.04441 0.36229 0.38841 0.0
C10 C 0.01728 0.3277 0.45908 0.0
C11 C 1.00615 0.32385 0.48416 0.0
N12 N 0.99398 0.32986 0.47814 0.0
C13 C 1.00471 0.33392 0.45316 0.0
C14 C 0.01804 0.32264 0.47471 0.0
C15 C 0.99303 0.33488 0.46297 0.0
C16 C 1.0039 0.31045 0.40948 0.0
N17 N 0.01267 0.32511 0.41231 0.0
C18 C 0.99373 0.33553 0.39675 0.0
C19 C 1.00788 0.33764 0.40638 0.0
C20 C 0.98451 0.32046 0.39356 0.0
C21 C 0.98967 0.30781 0.4 0.0
H22 H 1.00793 0.30084 0.41475 0.0
H23 H 0.01482 0.34927 0.40933 0.0
C24 C 0.06714 0.36665 0.46372 0.0
N25 N 0.05346 0.35776 0.46528 0.0
C26 C 0.07308 0.38011 0.47476 0.0
C27 C 0.05044 0.37517 0.48853 0.0
C28 C 0.0451 0.36155 0.47741 0.0
C29 C 0.06455 0.38469 0.48713 0.0
H30 H 0.07338 0.36322 0.4538 0.0
H31 H 0.03423 0.35426 0.47826 0.0
C32 C 0.03782 0.29715 0.40858 0.0
N33 N 0.03136 0.27408 0.38149 0.0
C34 C 0.03545 0.28125 0.41083 0.0
C35 C 0.03683 0.30132 0.39256 0.0
C36 C 0.0322 0.26976 0.39698 0.0
C37 C 0.03359 0.28948 0.37902 0.0
C38 C 0.07356 0.33149 0.46457 0.0
C39 C 0.08869 0.33785 0.46297 0.0
C40 C 0.069 0.33101 0.48031 0.0
C41 C 0.09903 0.3438 0.47722 0.0
C42 C 0.07967 0.33715 0.49424 0.0
N43 N 0.09434 0.34336 0.49242 0.0
C44 C 0.08164 0.34254 0.41272 0.0
C45 C 0.07619 0.31467 0.40606 0.0
C46 C 0.09195 0.34398 0.40121 0.0
N47 N 0.07378 0.32809 0.41447 0.0
C48 C 0.08628 0.31555 0.39438 0.0
C49 C 0.0939 0.33038 0.39157 0.0
H50 H 0.07939 0.35294 0.41976 0.0
H51 H 0.06986 0.30338 0.40799 0.0
C52 C 0.02613 0.28757 0.45836 0.0
N53 N 0.04057 0.29487 0.4572 0.0
C54 C 0.02381 0.2745 0.46671 0.0
C55 C 0.05132 0.2768 0.47227 0.0
C56 C 0.05309 0.28994 0.46395 0.0
C57 C 0.03653 0.26896 0.4736 0.0
H58 H 0.01649 0.29186 0.45267 0.0
H59 H 0.0644 0.29612 0.46267 0.0
O60 O 0.04773 0.34496 0.42714 0.0
O61 O 0.02845 0.32595 0.44931 0.0
O62 O 0.04115 0.3085 0.42208 0.0
O63 O 0.06328 0.32578 0.45075 0.0
H64 H 0.04167 0.37325 0.43472 0.0
H65 H 0.04932 0.34025 0.3949 0.0
H66 H 0.03778 0.39194 0.4145 0.0
H67 H 0.04517 0.35941 0.37538 0.0
H68 H 1.00657 0.31995 0.49627 0.0
H69 H 1.00391 0.33789 0.44111 0.0
H70 H 0.0277 0.31781 0.47947 0.0
H71 H 0.98319 0.33958 0.45851 0.0
H72 H 0.98993 0.34554 0.39205 0.0
H73 H 0.98286 0.296 0.39759 0.0
H74 H 0.08401 0.3871 0.47333 0.0
H75 H 0.04332 0.37852 0.49763 0.0
H76 H 0.03617 0.27783 0.42317 0.0
H77 H 0.03854 0.31355 0.3906 0.0
H78 H 0.03037 0.25741 0.39854 0.0
H79 H 0.03283 0.29253 0.36654 0.0
H80 H 0.09237 0.33824 0.45085 0.0
H81 H 0.0573 0.32613 0.4817 0.0
H82 H 0.11078 0.34879 0.47618 0.0
H83 H 0.07629 0.337 0.50651 0.0
H84 H 0.09774 0.35555 0.39931 0.0
H85 H 0.08783 0.30482 0.38731 0.0
H86 H 0.01225 0.26845 0.46725 0.0
H87 H 0.06131 0.27267 0.4774 0.0
Li88 Li 1.00294 0.77984 0.63205 0.0
Li89 Li 0.01369 0.76551 0.65284 0.0
Li90 Li 0.99594 0.7518 0.629 0.0
Li91 Li 0.9871 0.76715 0.65175 0.0
C92 C 0.0277 0.76708 0.61974 0.0
N93 N 0.05085 0.77224 0.60018 0.0
C94 C 0.04285 0.77244 0.62704 0.0
C95 C 0.02433 0.76436 0.60249 0.0
C96 C 0.05438 0.77498 0.61694 0.0
C97 C 0.0362 0.76704 0.59281 0.0
C98 C 1.00725 0.7972 0.66833 0.0
C99 C 1.00719 0.80809 0.69668 0.0
N100 N 0.01342 0.82256 0.69309 0.0
C101 C 0.01361 0.81219 0.66491 0.0
C102 C 1.00398 0.79512 0.68434 0.0
C103 C 0.01665 0.82486 0.67759 0.0
C104 C 0.99359 0.80358 0.61689 0.0
N105 N 1.00597 0.79709 0.62089 0.0
C106 C 0.02237 0.81717 0.61048 0.0
C107 C 0.02018 0.80351 0.61788 0.0
C108 C 0.00984 0.8242 0.60654 0.0
C109 C 0.99529 0.81734 0.60959 0.0
H110 H 0.98254 0.79835 0.61991 0.0
H111 H 0.02988 0.79847 0.62184 0.0
C112 C 0.03915 0.75298 0.66433 0.0
N113 N 0.03144 0.76497 0.66684 0.0
C114 C 0.05293 0.75327 0.67422 0.0
C115 C 0.05019 0.77801 0.68907 0.0
C116 C 0.03674 0.77735 0.67883 0.0
C117 C 0.0584 0.76593 0.68674 0.0
H118 H 0.03478 0.74345 0.65441 0.0
H119 H 0.03082 0.78696 0.68026 0.0
C120 C 0.97154 0.76457 0.61406 0.0
N121 N 0.94997 0.75814 0.58625 0.0
C122 C 0.95601 0.76056 0.61565 0.0
C123 C 0.97611 0.76551 0.59838 0.0
C124 C 0.94529 0.7573 0.60142 0.0
C125 C 0.96502 0.76217 0.58446 0.0
C126 C 1.00095 0.73879 0.66324 0.0
C127 C 1.00449 0.72433 0.65756 0.0
C128 C 1.00263 0.74384 0.68023 0.0
C129 C 0.00978 0.71514 0.66905 0.0
C130 C 1.00802 0.73434 0.69132 0.0
N131 N 0.01144 0.7203 0.68555 0.0
C132 C 1.00302 0.72844 0.60804 0.0
C133 C 0.9764 0.72811 0.60689 0.0
C134 C 1.00036 0.71588 0.59548 0.0
N135 N 0.99111 0.73433 0.61327 0.0
C136 C 0.9732 0.71574 0.59405 0.0
C137 C 0.98528 0.70945 0.58826 0.0
H138 H 0.01456 0.73344 0.61376 0.0
H139 H 0.96716 0.7327 0.61176 0.0
C140 C 0.96758 0.78156 0.66989 0.0
N141 N 0.97133 0.76774 0.66414 0.0
C142 C 0.95699 0.78169 0.68106 0.0
C143 C 0.95371 0.75325 0.67912 0.0
C144 C 0.96446 0.75371 0.66814 0.0
C145 C 0.95019 0.76741 0.68599 0.0
H146 H 0.9732 0.79248 0.66624 0.0
H147 H 0.96772 0.74295 0.66319 0.0
O148 O 0.01632 0.76417 0.62946 0.0
O149 O 1.00485 0.78457 0.6562 0.0
O150 O 0.98216 0.7674 0.62786 0.0
O151 O 0.99567 0.74789 0.65219 0.0
H152 H 0.04567 0.77472 0.64036 0.0
H153 H 0.01269 0.76014 0.59664 0.0
H154 H 0.06615 0.77914 0.62242 0.0
H155 H 0.03376 0.76495 0.57945 0.0
H156 H 1.00481 0.80664 0.70914 0.0
H157 H 0.01635 0.81401 0.65265 0.0
H158 H 0.99924 0.78358 0.68726 0.0
H159 H 0.02164 0.83651 0.67514 0.0
H160 H 0.03379 0.8226 0.60855 0.0
H161 H 0.98555 0.82289 0.60696 0.0
H162 H 0.05926 0.74391 0.67208 0.0
H163 H 0.05442 0.78813 0.69841 0.0
H164 H 0.95233 0.7598 0.62774 0.0
H165 H 0.98808 0.76868 0.59699 0.0
H166 H 0.93324 0.75405 0.60243 0.0
H167 H 0.96838 0.76276 0.57222 0.0
H168 H 1.00317 0.72026 0.64443 0.0
H169 H 0.99988 0.75499 0.68479 0.0
H170 H 0.01257 0.70391 0.66486 0.0
H171 H 0.00946 0.73812 0.70451 0.0
H172 H 0.00997 0.711 0.59183 0.0
H173 H 0.96142 0.71104 0.58888 0.0
H174 H 0.95434 0.79279 0.68602 0.0
H175 H 0.94869 0.74206 0.68273 0.0
Li176 Li 0.53093 0.8262 0.92538 0.0
Li177 Li 0.54816 0.84005 0.9492 0.0
Li178 Li 0.55799 0.8266 0.92628 0.0
Li179 Li 0.54308 0.81195 0.94592 0.0
C180 C 0.54611 0.85515 0.91553 0.0
N181 N 0.54257 0.87657 0.89358 0.0
C182 C 0.54313 0.8699 0.92113 0.0
C183 C 0.54746 0.85134 0.89882 0.0
C184 C 0.54134 0.88056 0.90983 0.0
C185 C 0.54558 0.86231 0.8879 0.0
C186 C 0.51727 0.82734 0.95845 0.0
C187 C 0.50644 0.82394 0.9838 0.0
N188 N 0.49402 0.82946 0.9776 0.0
C189 C 0.50443 0.83305 0.95237 0.0
C190 C 0.51832 0.82277 0.97431 0.0
C191 C 0.49278 0.834 0.96222 0.0
C192 C 0.50337 0.81051 0.90982 0.0
N193 N 0.51269 0.82487 0.91181 0.0
C194 C 0.49431 0.83536 0.8955 0.0
C195 C 0.50844 0.83729 0.90511 0.0
C196 C 0.48454 0.82062 0.89317 0.0
C197 C 0.48911 0.80809 0.90045 0.0
H198 H 0.50701 0.801 0.91566 0.0
H199 H 0.51581 0.84871 0.90738 0.0
C200 C 0.56751 0.86634 0.96453 0.0
N201 N 0.55341 0.85767 0.96482 0.0
C202 C 0.57308 0.87948 0.97615 0.0
C203 C 0.54919 0.87479 0.98772 0.0
C204 C 0.54422 0.86152 0.97606 0.0
C205 C 0.56378 0.88398 0.98777 0.0
H206 H 0.5744 0.86297 0.95522 0.0
H207 H 0.53298 0.85454 0.97583 0.0
C208 C 0.53686 0.79682 0.90801 0.0
N209 N 0.52869 0.77397 0.88077 0.0
C210 C 0.53385 0.78089 0.91013 0.0
C211 C 0.53566 0.80114 0.89205 0.0
C212 C 0.52974 0.76951 0.8962 0.0
C213 C 0.53152 0.7894 0.87844 0.0
C214 C 0.57368 0.83098 0.96391 0.0
C215 C 0.58894 0.83679 0.96233 0.0
C216 C 0.56907 0.83069 0.97964 0.0
C217 C 0.59936 0.8424 0.97658 0.0
C218 C 0.57983 0.83648 0.99359 0.0
N219 N 0.59463 0.84216 0.99178 0.0
C220 C 0.58239 0.84213 0.91351 0.0
C221 C 0.57569 0.81467 0.90403 0.0
C222 C 0.59331 0.8441 0.90272 0.0
N223 N 0.57375 0.82766 0.91368 0.0
C224 C 0.5864 0.81611 0.89299 0.0
C225 C 0.59509 0.831 0.89219 0.0
H226 H 0.58042 0.85217 0.9214 0.0
H227 H 0.56866 0.80334 0.90461 0.0
C228 C 0.52638 0.78772 0.95868 0.0
N229 N 0.54075 0.79481 0.95699 0.0
C230 C 0.5242 0.77478 0.96724 0.0
C231 C 0.55171 0.77674 0.97188 0.0
C232 C 0.55335 0.78978 0.96339 0.0
C233 C 0.53698 0.76912 0.97374 0.0
H234 H 0.51666 0.79206 0.95323 0.0
H235 H 0.5646 0.79579 0.96169 0.0
O236 O 0.54776 0.84459 0.92645 0.0
O237 O 0.52853 0.82581 0.94875 0.0
O238 O 0.54117 0.80804 0.92156 0.0
O239 O 0.56332 0.82566 0.95008 0.0
H240 H 0.54211 0.87303 0.93407 0.0
H241 H 0.54994 0.84005 0.89432 0.0
H242 H 0.53895 0.892 0.91396 0.0
H243 H 0.54653 0.85951 0.87491 0.0
H244 H 0.50709 0.82044 0.99609 0.0
H245 H 0.50343 0.83671 0.94017 0.0
H246 H 0.52819 0.81836 0.97924 0.0
H247 H 0.48275 0.83833 0.95763 0.0
H248 H 0.49097 0.84526 0.8901 0.0
H249 H 0.48182 0.79652 0.8987 0.0
H250 H 0.58437 0.88628 0.97579 0.0
H251 H 0.54146 0.87814 0.99612 0.0
H252 H 0.53475 0.77737 0.92241 0.0
H253 H 0.53789 0.8134 0.89021 0.0
H254 H 0.52742 0.75714 0.89765 0.0
H255 H 0.53058 0.79257 0.86601 0.0
H256 H 0.59265 0.83703 0.95021 0.0
H257 H 0.55728 0.82623 0.98102 0.0
H258 H 0.61121 0.84698 0.97556 0.0
H259 H 0.57642 0.83648 0.00585 0.0
H260 H 0.59993 0.8557 0.90223 0.0
H261 H 0.5877 0.80584 0.88495 0.0
H262 H 0.51268 0.76889 0.9682 0.0
H263 H 0.56174 0.77249 0.97668 0.0
Li264 Li 0.50324 0.27931 0.1324 0.0
Li265 Li 0.51452 0.26504 0.15273 0.0
Li266 Li 0.4967 0.25131 0.12875 0.0
Li267 Li 0.48762 0.26563 0.15189 0.0
C268 C 0.52814 0.26646 0.11927 0.0
N269 N 0.55086 0.27042 0.09902 0.0
C270 C 0.54352 0.26993 0.12614 0.0
C271 C 0.52432 0.26505 0.1021 0.0
C272 C 0.55484 0.27189 0.1157 0.0
C273 C 0.53597 0.26708 0.09208 0.0
C274 C 0.50771 0.29594 0.16909 0.0
C275 C 0.50846 0.30623 0.19778 0.0
N276 N 0.51504 0.32071 0.19452 0.0
C277 C 0.51439 0.31097 0.16601 0.0
C278 C 0.50465 0.29356 0.18508 0.0
C279 C 0.51804 0.32332 0.17904 0.0
C280 C 0.49498 0.30322 0.1158 0.0
N281 N 0.50681 0.29671 0.1217 0.0
C282 C 0.52501 0.31686 0.11378 0.0
C283 C 0.52158 0.30313 0.12083 0.0
C284 C 0.51308 0.32407 0.10797 0.0
C285 C 0.49789 0.31704 0.10869 0.0
H286 H 0.48338 0.29794 0.1171 0.0
H287 H 0.53071 0.29795 0.12621 0.0
C288 C 0.53884 0.25223 0.16722 0.0
N289 N 0.53246 0.26525 0.16661 0.0
C290 C 0.5524 0.25302 0.17766 0.0
C291 C 0.55249 0.28057 0.1862 0.0
C292 C 0.5392 0.27931 0.17548 0.0
C293 C 0.5591 0.26731 0.18741 0.0
H294 H 0.53351 0.24136 0.15948 0.0
H295 H 0.53451 0.28967 0.17404 0.0
C296 C 0.47184 0.26412 0.11445 0.0
N297 N 0.44993 0.25933 0.08702 0.0
C298 C 0.45634 0.26039 0.11624 0.0
C299 C 0.47621 0.26552 0.09874 0.0
C300 C 0.44544 0.25798 0.10221 0.0
C301 C 0.46495 0.26303 0.08502 0.0
C302 C 0.50114 0.23773 0.16335 0.0
C303 C 0.50325 0.22251 0.15831 0.0
C304 C 0.50294 0.24337 0.18021 0.0
C305 C 0.50722 0.21316 0.17029 0.0
C306 C 0.50696 0.23369 0.19181 0.0
N307 N 0.50899 0.21891 0.18665 0.0
C308 C 0.50216 0.22866 0.10519 0.0
C309 C 0.47618 0.22726 0.10938 0.0
C310 C 0.4981 0.21594 0.09281 0.0
N311 N 0.4912 0.23407 0.11299 0.0
C312 C 0.47157 0.21451 0.09705 0.0
C313 C 0.48263 0.20876 0.08868 0.0
H314 H 0.51405 0.23406 0.1088 0.0
H315 H 0.46784 0.23165 0.11622 0.0
C316 C 0.46608 0.2781 0.16847 0.0
N317 N 0.47158 0.26494 0.16405 0.0
C318 C 0.45426 0.27728 0.17818 0.0
C319 C 0.4541 0.2494 0.17836 0.0
C320 C 0.46573 0.25072 0.16844 0.0
C321 C 0.44836 0.26282 0.18333 0.0
H322 H 0.47103 0.28919 0.16463 0.0
H323 H 0.47021 0.24044 0.16439 0.0
O324 O 0.51695 0.26407 0.12934 0.0
O325 O 0.5048 0.28357 0.15661 0.0
O326 O 0.48261 0.26655 0.12809 0.0
O327 O 0.49707 0.24695 0.1518 0.0
H328 H 0.54672 0.27109 0.13939 0.0
H329 H 0.5125 0.26224 0.09656 0.0
H330 H 0.56678 0.27454 0.12085 0.0
H331 H 0.53318 0.26594 0.07876 0.0
H332 H 0.50622 0.30453 0.21023 0.0
H333 H 0.51694 0.31304 0.15376 0.0
H334 H 0.4995 0.28204 0.18771 0.0
H335 H 0.52332 0.33496 0.17685 0.0
H336 H 0.53685 0.32208 0.1134 0.0
H337 H 0.48849 0.32256 0.10454 0.0
H338 H 0.55754 0.2427 0.17819 0.0
H339 H 0.55775 0.29188 0.19324 0.0
H340 H 0.45281 0.25933 0.12835 0.0
H341 H 0.48814 0.26857 0.0972 0.0
H342 H 0.4334 0.25505 0.1034 0.0
H343 H 0.46816 0.26406 0.07278 0.0
H344 H 0.50182 0.21797 0.14528 0.0
H345 H 0.50128 0.25511 0.18428 0.0
H346 H 0.50889 0.20134 0.16659 0.0
H347 H 0.50845 0.23792 0.2049 0.0
H348 H 0.50698 0.21139 0.08699 0.0
H349 H 0.4596 0.209 0.09432 0.0
H350 H 0.45007 0.28785 0.18204 0.0
H351 H 0.44968 0.23811 0.18216 0.0
Li352 Li 0.01577 0.79733 0.18291 0.0
Li353 Li 0.03001 0.78688 0.20639 0.0
Li354 Li 0.01192 0.76887 0.18387 0.0
Li355 Li 0.99964 0.7844 0.20413 0.0
C356 C 0.04035 0.78426 0.17049 0.0
N357 N 0.05957 0.78528 0.1463 0.0
C358 C 0.056 0.79026 0.17472 0.0
C359 C 0.0345 0.77876 0.15396 0.0
C360 C 0.06552 0.79068 0.16231 0.0
C361 C 0.04439 0.77938 0.14191 0.0
C362 C 0.02348 0.81699 0.21808 0.0
C363 C 0.02724 0.83176 0.24531 0.0
N364 N 0.03688 0.84349 0.23994 0.0
C365 C 0.0334 0.82918 0.2128 0.0
C366 C 0.02032 0.81826 0.23443 0.0
C367 C 0.04007 0.8425 0.22405 0.0
C368 C 1.00428 0.81743 0.16191 0.0
N369 N 0.01731 0.81332 0.16864 0.0
C370 C 0.03241 0.83119 0.15393 0.0
C371 C 0.03123 0.82002 0.16496 0.0
C372 C 0.01914 0.83553 0.14661 0.0
C373 C 1.00492 0.82851 0.15075 0.0
H374 H 0.99337 0.81202 0.16514 0.0
H375 H 0.04144 0.81672 0.17062 0.0
C376 C 0.05737 0.77593 0.21578 0.0
N377 N 0.05086 0.78882 0.21851 0.0
C378 C 0.07279 0.77638 0.22165 0.0
C379 C 0.07491 0.80345 0.23307 0.0
C380 C 0.05936 0.80244 0.22708 0.0
C381 C 0.08202 0.79035 0.23028 0.0
H382 H 0.05066 0.7653 0.20859 0.0
H383 H 0.05429 0.81275 0.22885 0.0
C384 C 0.98546 0.77643 0.16597 0.0
N385 N 0.96372 0.76543 0.13865 0.0
C386 C 0.97063 0.76934 0.16802 0.0
C387 C 0.98916 0.7781 0.15004 0.0
C388 C 0.95983 0.76381 0.15404 0.0
C389 C 0.97803 0.77242 0.13638 0.0
C390 C 0.01345 0.75421 0.21353 0.0
C391 C 1.00257 0.74107 0.20609 0.0
C392 C 0.02449 0.75259 0.22632 0.0
C393 C 1.00326 0.72638 0.21123 0.0
C394 C 0.02471 0.73776 0.23121 0.0
N395 N 0.01422 0.72505 0.22358 0.0
C396 C 0.0238 0.74485 0.16777 0.0
C397 C 0.99688 0.74115 0.16146 0.0
C398 C 0.02419 0.73198 0.15622 0.0
N399 N 0.01034 0.74942 0.16988 0.0
C400 C 0.99671 0.72806 0.14991 0.0
C401 C 0.01054 0.72352 0.147 0.0
H402 H 0.03432 0.75147 0.1748 0.0
H403 H 0.98627 0.74474 0.16355 0.0
C404 C 0.97375 0.79753 0.21263 0.0
N405 N 0.98047 0.7848 0.21403 0.0
C406 C 0.95922 0.79779 0.21752 0.0
C407 C 0.95863 0.77188 0.22546 0.0
C408 C 0.97316 0.77208 0.22032 0.0
C409 C 0.95129 0.78481 0.22398 0.0
H410 H 0.97954 0.80743 0.20733 0.0
H411 H 0.97842 0.76186 0.22097 0.0
O412 O 0.03092 0.78356 0.18256 0.0
O413 O 0.01676 0.80393 0.20725 0.0
O414 O 0.99617 0.78194 0.17953 0.0
O415 O 0.01314 0.76873 0.20876 0.0
H416 H 0.06074 0.79461 0.18744 0.0
H417 H 0.02249 0.77382 0.15048 0.0
H418 H 0.07765 0.7953 0.16541 0.0
H419 H 0.04001 0.77511 0.12908 0.0
H420 H 0.02493 0.83291 0.25803 0.0
H421 H 0.03597 0.82835 0.20019 0.0
H422 H 0.01261 0.80891 0.23865 0.0
H423 H 0.04779 0.85203 0.22015 0.0
H424 H 0.04359 0.83624 0.15103 0.0
H425 H 0.99443 0.8317 0.1456 0.0
H426 H 0.07742 0.76581 0.21929 0.0
H427 H 0.0814 0.81461 0.23936 0.0
H428 H 0.96755 0.76804 0.18027 0.0
H429 H 1.00045 0.78386 0.14822 0.0
H430 H 0.94834 0.75822 0.15543 0.0
H431 H 0.98076 0.77362 0.12399 0.0
H432 H 0.99371 0.74219 0.19647 0.0
H433 H 0.03269 0.76275 0.23254 0.0
H434 H 0.99505 0.71605 0.20545 0.0
H435 H 0.0332 0.73636 0.24111 0.0
H436 H 0.03505 0.72864 0.15455 0.0
H437 H 0.98593 0.72177 0.14308 0.0
H438 H 0.95426 0.80813 0.21624 0.0
H439 H 0.95302 0.76147 0.23009 0.0
Li440 Li 0.5331 0.82669 0.3955 0.0
Li441 Li 0.51527 0.80945 0.37198 0.0
Li442 Li 0.53016 0.79802 0.39486 0.0
Li443 Li 0.54554 0.81112 0.37381 0.0
C444 C 0.50473 0.8119 0.40781 0.0
N445 N 0.48532 0.81407 0.4316 0.0
C446 C 0.48985 0.81421 0.40342 0.0
C447 C 0.50968 0.81061 0.4243 0.0
C448 C 0.48023 0.81532 0.41563 0.0
C449 C 0.49971 0.81174 0.43614 0.0
C450 C 0.53061 0.84005 0.36235 0.0
C451 C 0.5338 0.8533 0.33825 0.0
N452 N 0.52656 0.86458 0.34463 0.0
C453 C 0.52327 0.85181 0.36871 0.0
C454 C 0.53599 0.84081 0.34704 0.0
C455 C 0.5213 0.8641 0.35956 0.0
C456 C 0.549 0.85466 0.41659 0.0
N457 N 0.53516 0.8458 0.40996 0.0
C458 C 0.52222 0.86356 0.42443 0.0
C459 C 0.52193 0.85004 0.41363 0.0
C460 C 0.53628 0.87305 0.43142 0.0
C461 C 0.54984 0.86842 0.42751 0.0
H462 H 0.55937 0.85107 0.4134 0.0
H463 H 0.51109 0.84308 0.40791 0.0
C464 C 0.48471 0.79296 0.35729 0.0
N465 N 0.49447 0.80717 0.35954 0.0
C466 C 0.46916 0.79157 0.35106 0.0
C467 C 0.47378 0.81942 0.34954 0.0
C468 C 0.48921 0.82026 0.35568 0.0
C469 C 0.46331 0.80495 0.34719 0.0
H470 H 0.48886 0.7827 0.36083 0.0
H471 H 0.49681 0.83156 0.358 0.0
C472 C 0.55999 0.81601 0.41226 0.0
N473 N 0.58164 0.82028 0.43993 0.0
C474 C 0.57483 0.81375 0.41065 0.0
C475 C 0.55619 0.82049 0.42794 0.0
C476 C 0.58561 0.81596 0.42479 0.0
C477 C 0.56728 0.82257 0.44178 0.0
C478 C 0.52506 0.77805 0.36065 0.0
C479 C 0.52974 0.7651 0.36686 0.0
C480 C 0.51701 0.77623 0.34475 0.0
C481 C 0.52617 0.75044 0.35705 0.0
C482 C 0.51368 0.76138 0.33532 0.0
N483 N 0.51827 0.7489 0.34162 0.0
C484 C 0.51483 0.77473 0.41199 0.0
C485 C 0.5418 0.7773 0.41509 0.0
C486 C 0.5136 0.76336 0.42282 0.0
N487 N 0.52879 0.78156 0.40851 0.0
C488 C 0.54107 0.76578 0.42573 0.0
C489 C 0.52684 0.7588 0.42975 0.0
H490 H 0.50465 0.77821 0.40644 0.0
H491 H 0.55274 0.7828 0.41202 0.0
C492 C 0.57551 0.82452 0.36592 0.0
N493 N 0.56472 0.811 0.36366 0.0
C494 C 0.59008 0.82461 0.36093 0.0
C495 C 0.58231 0.79695 0.35106 0.0
C496 C 0.56793 0.79735 0.35635 0.0
C497 C 0.5938 0.81067 0.35343 0.0
H498 H 0.57296 0.83522 0.37201 0.0
H499 H 0.55945 0.7866 0.355 0.0
O500 O 0.51431 0.81091 0.39598 0.0
O501 O 0.53272 0.82794 0.37113 0.0
O502 O 0.54939 0.81416 0.39848 0.0
O503 O 0.52791 0.79236 0.37024 0.0
H504 H 0.48581 0.81527 0.39075 0.0
H505 H 0.521 0.8085 0.42791 0.0
H506 H 0.46873 0.81717 0.41241 0.0
H507 H 0.50339 0.81072 0.44893 0.0
H508 H 0.53786 0.85402 0.32635 0.0
H509 H 0.51887 0.85132 0.38041 0.0
H510 H 0.54178 0.83183 0.342 0.0
H511 H 0.51555 0.87322 0.36429 0.0
H512 H 0.51149 0.86655 0.42725 0.0
H513 H 0.56091 0.8755 0.43254 0.0
H514 H 0.46181 0.78007 0.34942 0.0
H515 H 0.47005 0.83024 0.34724 0.0
H516 H 0.57799 0.81033 0.3986 0.0
H517 H 0.5449 0.82264 0.42941 0.0
H518 H 0.59713 0.81426 0.42372 0.0
H519 H 0.56449 0.82609 0.45397 0.0
H520 H 0.53601 0.76633 0.37912 0.0
H521 H 0.51329 0.78616 0.33981 0.0
H522 H 0.52964 0.74029 0.36171 0.0
H523 H 0.50741 0.75977 0.32301 0.0
H524 H 0.50244 0.758 0.42555 0.0
H525 H 0.55148 0.76237 0.43081 0.0
H526 H 0.59836 0.83555 0.36296 0.0
H527 H 0.58456 0.78583 0.34562 0.0
Li528 Li 0.51559 0.29669 0.68276 0.0
Li529 Li 0.52966 0.28642 0.70651 0.0
Li530 Li 0.51152 0.26832 0.68432 0.0
Li531 Li 0.49935 0.28422 0.70416 0.0
C532 C 0.53985 0.282 0.67057 0.0
N533 N 0.55865 0.2807 0.64609 0.0
C534 C 0.55563 0.28741 0.67443 0.0
C535 C 0.53365 0.27592 0.65426 0.0
C536 C 0.56493 0.28665 0.66188 0.0
C537 C 0.54334 0.27536 0.64206 0.0
C538 C 0.5235 0.31696 0.71729 0.0
C539 C 0.52772 0.33274 0.744 0.0
N540 N 0.53736 0.34406 0.73802 0.0
C541 C 0.53342 0.32872 0.71136 0.0
C542 C 0.52057 0.31896 0.7337 0.0
C543 C 0.54032 0.34235 0.72205 0.0
C544 C 0.50483 0.31966 0.66574 0.0
N545 N 0.5171 0.31266 0.66845 0.0
C546 C 0.53046 0.32803 0.65016 0.0
C547 C 0.52984 0.31671 0.66103 0.0
C548 C 0.518 0.3355 0.64723 0.0
C549 C 0.50507 0.33126 0.6552 0.0
H550 H 0.49485 0.3162 0.67178 0.0
H551 H 0.5396 0.31131 0.66361 0.0
C552 C 0.55694 0.27555 0.71598 0.0
N553 N 0.55046 0.28847 0.71862 0.0
C554 C 0.57235 0.27601 0.72183 0.0
C555 C 0.57453 0.30317 0.73303 0.0
C556 C 0.55898 0.30214 0.72706 0.0
C557 C 0.5816 0.29003 0.73033 0.0
H558 H 0.55022 0.2649 0.70885 0.0
H559 H 0.55392 0.31247 0.72875 0.0
C560 C 0.48552 0.27656 0.66567 0.0
N561 N 0.46441 0.26686 0.63761 0.0
C562 C 0.47054 0.26941 0.66703 0.0
C563 C 0.48969 0.27901 0.65007 0.0
C564 C 0.46005 0.26452 0.65268 0.0
C565 C 0.47887 0.27396 0.63603 0.0
C566 C 0.51306 0.2539 0.71372 0.0
C567 C 0.50202 0.24089 0.7063 0.0
C568 C 0.52429 0.25204 0.72618 0.0
C569 C 0.50276 0.22607 0.71107 0.0
C570 C 0.52457 0.23708 0.73072 0.0
N571 N 0.51392 0.2245 0.72309 0.0
C572 C 0.52325 0.24322 0.67069 0.0
C573 C 0.49689 0.2407 0.66131 0.0
C574 C 0.52399 0.22983 0.66007 0.0
N575 N 0.50993 0.24856 0.67091 0.0
C576 C 0.49706 0.22713 0.65059 0.0
C577 C 0.5108 0.2216 0.64974 0.0
H578 H 0.53345 0.24967 0.67849 0.0
H579 H 0.48635 0.24494 0.66187 0.0
C580 C 0.47448 0.2983 0.71471 0.0
N581 N 0.48023 0.28481 0.71405 0.0
C582 C 0.45999 0.29869 0.71967 0.0
C583 C 0.45746 0.27133 0.72341 0.0
C584 C 0.47199 0.27145 0.71831 0.0
C585 C 0.4511 0.28505 0.72403 0.0
H586 H 0.48101 0.30875 0.711 0.0
H587 H 0.47649 0.2607 0.71733 0.0
O588 O 0.53059 0.28278 0.68273 0.0
O589 O 0.51656 0.30359 0.70703 0.0
O590 O 0.49591 0.28143 0.67959 0.0
O591 O 0.51271 0.26855 0.7093 0.0
H592 H 0.56062 0.29228 0.68695 0.0
H593 H 0.52152 0.27155 0.65105 0.0
H594 H 0.57715 0.29083 0.66468 0.0
H595 H 0.53869 0.27067 0.62939 0.0
H596 H 0.5256 0.33446 0.75676 0.0
H597 H 0.5358 0.32731 0.69868 0.0
H598 H 0.51287 0.30994 0.7384 0.0
H599 H 0.54804 0.35156 0.71767 0.0
H600 H 0.54069 0.33118 0.64439 0.0
H601 H 0.49524 0.33679 0.65318 0.0
H602 H 0.57696 0.26542 0.71956 0.0
H603 H 0.58104 0.31435 0.73921 0.0
H604 H 0.46709 0.26755 0.67903 0.0
H605 H 0.50112 0.28483 0.6488 0.0
H606 H 0.44845 0.25887 0.65353 0.0
H607 H 0.48197 0.27572 0.62388 0.0
H608 H 0.49301 0.2422 0.69694 0.0
H609 H 0.53259 0.26209 0.73245 0.0
H610 H 0.49443 0.21584 0.70529 0.0
H611 H 0.53321 0.23549 0.74035 0.0
H612 H 0.5349 0.22621 0.65971 0.0
H613 H 0.48654 0.22102 0.64311 0.0
H614 H 0.45582 0.30963 0.72006 0.0
H615 H 0.45109 0.26042 0.72635 0.0
Li616 Li 0.03352 0.32647 0.89506 0.0
Li617 Li 0.01587 0.30909 0.87183 0.0
Li618 Li 0.03074 0.29784 0.89479 0.0
Li619 Li 0.04603 0.311 0.87361 0.0
C620 C 1.00518 0.31147 0.90758 0.0
N621 N 0.98559 0.31323 0.93125 0.0
C622 C 0.99065 0.31479 0.90339 0.0
C623 C 0.0097 0.309 0.92382 0.0
C624 C 0.98094 0.31565 0.91553 0.0
C625 C 0.99964 0.30994 0.93559 0.0
C626 C 0.03042 0.33998 0.8626 0.0
C627 C 0.03434 0.35554 0.84028 0.0
N628 N 0.02509 0.36499 0.84625 0.0
C629 C 0.0209 0.3498 0.86849 0.0
C630 C 0.03722 0.34285 0.84841 0.0
C631 C 0.01839 0.36242 0.86008 0.0
C632 C 0.04939 0.35473 0.91581 0.0
N633 N 0.03556 0.34569 0.9094 0.0
C634 C 0.02261 0.36329 0.9241 0.0
C635 C 0.02234 0.34978 0.9133 0.0
C636 C 0.03664 0.37296 0.93085 0.0
C637 C 0.05021 0.3685 0.92671 0.0
H638 H 0.05976 0.35127 0.91246 0.0
H639 H 0.0115 0.34269 0.90781 0.0
C640 C 0.98448 0.29428 0.86236 0.0
N641 N 0.99521 0.30645 0.8593 0.0
C642 C 0.96892 0.29306 0.85644 0.0
C643 C 0.97559 0.3166 0.84377 0.0
C644 C 0.99102 0.31738 0.84994 0.0
C645 C 0.96412 0.30445 0.84718 0.0
H646 H 0.9879 0.28586 0.87009 0.0
H647 H 0.99955 0.327 0.84755 0.0
C648 C 0.06045 0.31704 0.91215 0.0
N649 N 0.08183 0.3229 0.94017 0.0
C650 C 0.07571 0.31626 0.91083 0.0
C651 C 0.05608 0.32085 0.92772 0.0
C652 C 0.08634 0.31924 0.92515 0.0
C653 C 0.06705 0.32377 0.94173 0.0
C654 C 0.02509 0.27767 0.86087 0.0
C655 C 0.02993 0.26475 0.86697 0.0
C656 C 0.01628 0.2757 0.84536 0.0
C657 C 0.0258 0.24997 0.85741 0.0
C658 C 0.01243 0.26074 0.83617 0.0
N659 N 0.01722 0.24829 0.84234 0.0
C660 C 0.01567 0.27291 0.9102 0.0
C661 C 0.04261 0.27899 0.91701 0.0
C662 C 0.01456 0.26149 0.92101 0.0
N663 N 0.02955 0.28142 0.90849 0.0
C664 C 0.04203 0.2678 0.928 0.0
C665 C 0.02787 0.25879 0.93009 0.0
H666 H 1.00546 0.2751 0.90326 0.0
H667 H 0.05352 0.28578 0.91536 0.0
C668 C 0.07507 0.32461 0.86366 0.0
N669 N 0.06501 0.31081 0.86335 0.0
C670 C 0.08955 0.32473 0.85846 0.0
C671 C 0.08319 0.29646 0.85252 0.0
C672 C 0.06886 0.29687 0.85789 0.0
C673 C 0.09394 0.3105 0.85285 0.0
H674 H 0.072 0.33558 0.86833 0.0
H675 H 0.06095 0.28596 0.85812 0.0
O676 O 0.01484 0.31062 0.89581 0.0
O677 O 0.0331 0.32758 0.87063 0.0
O678 O 0.0499 0.31406 0.89824 0.0
O679 O 0.02858 0.29212 0.87019 0.0
H680 H 0.98701 0.31693 0.89096 0.0
H681 H 0.02077 0.30622 0.92729 0.0
H682 H 0.9697 0.31829 0.91246 0.0
H683 H 1.003 0.30803 0.94819 0.0
H684 H 0.03947 0.35787 0.82924 0.0
H685 H 0.01532 0.34755 0.87925 0.0
H686 H 0.04458 0.33531 0.84369 0.0
H687 H 0.01105 0.37012 0.86449 0.0
H688 H 0.01187 0.36614 0.92711 0.0
H689 H 0.06127 0.37571 0.93155 0.0
H690 H 0.9607 0.28357 0.85971 0.0
H691 H 0.9727 0.32555 0.83646 0.0
H692 H 0.07928 0.31331 0.89888 0.0
H693 H 0.0444 0.32177 0.92895 0.0
H694 H 0.09818 0.31864 0.92431 0.0
H695 H 0.06383 0.32678 0.95384 0.0
H696 H 0.03676 0.2661 0.87895 0.0
H697 H 0.01243 0.28561 0.84052 0.0
H698 H 0.02942 0.23984 0.86198 0.0
H699 H 1.00561 0.25902 0.82415 0.0
H700 H 1.00342 0.25469 0.92204 0.0
H701 H 0.05258 0.26632 0.93486 0.0
H702 H 0.09723 0.33591 0.85887 0.0
H703 H 0.08598 0.28514 0.84862 0.0
Li704 Li 0.43109 0.0997 0.29918 0.0
Li705 Li 0.40858 0.08423 0.27909 0.0
Li706 Li 0.43029 0.09948 0.26862 0.0
Li707 Li 0.41174 0.11334 0.2821 0.0
C708 C 0.4396 0.07166 0.28008 0.0
N709 N 0.45917 0.05087 0.2755 0.0
C710 C 0.43391 0.05543 0.27748 0.0
C711 C 0.45523 0.07733 0.28042 0.0
C712 C 0.444 0.04511 0.27522 0.0
C713 C 0.46494 0.06662 0.27802 0.0
C714 C 0.39721 0.09514 0.30891 0.0
C715 C 0.37061 0.09138 0.31275 0.0
N716 N 0.37401 0.08594 0.32739 0.0
C717 C 0.40049 0.08971 0.32409 0.0
C718 C 0.3822 0.09617 0.30326 0.0
C719 C 0.38859 0.08505 0.33322 0.0
C720 C 0.45028 0.11054 0.33114 0.0
N721 N 0.44284 0.098 0.32006 0.0
C722 C 0.45027 0.08015 0.33834 0.0
C723 C 0.44277 0.08302 0.32342 0.0
C724 C 0.45801 0.09278 0.35018 0.0
C725 C 0.45795 0.10819 0.34632 0.0
H726 H 0.45016 0.12237 0.32828 0.0
H727 H 0.43657 0.07322 0.3146 0.0
C728 C 0.39225 0.05622 0.25935 0.0
N729 N 0.3949 0.06435 0.27489 0.0
C730 C 0.38351 0.04095 0.25638 0.0
C731 C 0.38059 0.04267 0.28545 0.0
C732 C 0.38935 0.05781 0.28784 0.0
C733 C 0.37775 0.03394 0.26961 0.0
H734 H 0.39735 0.06135 0.24936 0.0
H735 H 0.39215 0.06406 0.30017 0.0
C736 C 0.44657 0.12902 0.28211 0.0
N737 N 0.46983 0.15018 0.27271 0.0
C738 C 0.4432 0.14153 0.27394 0.0
C739 C 0.46175 0.12739 0.2857 0.0
C740 C 0.45513 0.1521 0.26927 0.0
C741 C 0.47335 0.13816 0.28076 0.0
C742 C 0.39733 0.09332 0.24843 0.0
C743 C 0.40128 0.09136 0.23239 0.0
C744 C 0.38196 0.09002 0.25083 0.0
C745 C 0.38978 0.08587 0.21904 0.0
C746 C 0.3708 0.0845 0.23716 0.0
N747 N 0.37491 0.08255 0.22168 0.0
C748 C 0.43864 0.08226 0.24232 0.0
C749 C 0.44978 0.10925 0.24369 0.0
C750 C 0.44496 0.07862 0.22795 0.0
N751 N 0.44124 0.09732 0.25001 0.0
C752 C 0.45632 0.10613 0.22926 0.0
C753 C 0.45388 0.09064 0.22118 0.0
H754 H 0.43128 0.07308 0.24712 0.0
H755 H 0.45126 0.1212 0.24952 0.0
C756 C 0.398 0.13834 0.29574 0.0
N757 N 0.4002 0.12998 0.28149 0.0
C758 C 0.3888 0.14976 0.29524 0.0
C759 C 0.38421 0.14369 0.26544 0.0
C760 C 0.39361 0.13252 0.26651 0.0
C761 C 0.38165 0.15249 0.27994 0.0
H762 H 0.40323 0.13599 0.30751 0.0
H763 H 0.39554 0.12578 0.25533 0.0
O764 O 0.4298 0.0819 0.28193 0.0
O765 O 0.40865 0.09925 0.29959 0.0
O766 O 0.43506 0.11855 0.28673 0.0
O767 O 0.40849 0.09842 0.26166 0.0
H768 H 0.42184 0.05086 0.27721 0.0
H769 H 0.45977 0.08985 0.2823 0.0
H770 H 0.43976 0.03253 0.2732 0.0
H771 H 0.47705 0.07083 0.27813 0.0
H772 H 0.3589 0.09198 0.30847 0.0
H773 H 0.41207 0.0889 0.32866 0.0
H774 H 0.37952 0.10055 0.29165 0.0
H775 H 0.39093 0.08067 0.34491 0.0
H776 H 0.44961 0.06807 0.34072 0.0
H777 H 0.46384 0.11836 0.35488 0.0
H778 H 0.38181 0.03451 0.24404 0.0
H779 H 0.3763 0.03773 0.296 0.0
H780 H 0.43149 0.14298 0.27116 0.0
H781 H 0.46454 0.11788 0.2922 0.0
H782 H 0.45271 0.16178 0.26286 0.0
H783 H 0.48515 0.13698 0.28333 0.0
H784 H 0.41307 0.09414 0.23022 0.0
H785 H 0.3787 0.09147 0.26313 0.0
H786 H 0.39269 0.08426 0.20658 0.0
H787 H 0.35887 0.08174 0.23885 0.0
H788 H 0.44284 0.06649 0.22222 0.0
H789 H 0.4629 0.1158 0.22427 0.0
H790 H 0.38704 0.15614 0.30674 0.0
H791 H 0.3791 0.14551 0.25338 0.0
Li792 Li 0.2664 0.15768 0.5096 0.0
Li793 Li 0.27315 0.13637 0.49199 0.0
Li794 Li 0.26209 0.15634 0.47957 0.0
Li795 Li 0.24657 0.13584 0.49351 0.0
C796 C 0.29402 0.1709 0.49772 0.0
N797 N 0.31921 0.19507 0.50583 0.0
C798 C 0.30811 0.1678 0.50419 0.0
C799 C 0.2928 0.18629 0.49523 0.0
C800 C 0.32069 0.18018 0.50826 0.0
C801 C 0.30566 0.19835 0.49944 0.0
C802 C 0.26305 0.12671 0.52453 0.0
C803 C 0.25406 0.10365 0.5372 0.0
N804 N 0.26363 0.10997 0.5513 0.0
C805 C 0.27289 0.13291 0.53909 0.0
C806 C 0.25361 0.11193 0.52353 0.0
C807 C 0.27297 0.1243 0.55252 0.0
C808 C 0.25877 0.1745 0.53712 0.0
N809 N 0.27081 0.1709 0.5298 0.0
C810 C 0.28852 0.1861 0.55198 0.0
C811 C 0.28546 0.17623 0.53702 0.0
C812 C 0.27634 0.19038 0.55957 0.0
C813 C 0.26129 0.18438 0.55207 0.0
H814 H 0.24722 0.16966 0.53133 0.0
H815 H 0.29477 0.17264 0.53137 0.0
C816 C 0.29999 0.12973 0.48225 0.0
N817 N 0.28832 0.1245 0.49072 0.0
C818 C 0.31361 0.12424 0.48468 0.0
C819 C 0.30222 0.10711 0.50325 0.0
C820 C 0.28886 0.11292 0.50045 0.0
C821 C 0.31499 0.1133 0.49587 0.0
H822 H 0.29911 0.13902 0.47464 0.0
H823 H 0.27932 0.10893 0.50687 0.0
C824 C 0.23974 0.17111 0.49698 0.0
N825 N 0.22408 0.19565 0.50002 0.0
C826 C 0.22378 0.16803 0.49511 0.0
C827 C 0.24775 0.18666 0.50046 0.0
C828 C 0.21606 0.1806 0.49669 0.0
C829 C 0.23963 0.19891 0.50191 0.0
C830 C 0.2608 0.12231 0.46218 0.0
C831 C 0.26622 0.1267 0.44768 0.0
C832 C 0.25991 0.10679 0.46553 0.0
C833 C 0.27081 0.1155 0.4368 0.0
C834 C 0.26472 0.09596 0.45439 0.0
N835 N 0.27 0.1005 0.44037 0.0
C836 C 0.27636 0.17114 0.4562 0.0
C837 C 0.25146 0.17642 0.45812 0.0
C838 C 0.27875 0.18163 0.44469 0.0
N839 N 0.26297 0.16893 0.46273 0.0
C840 C 0.25342 0.18714 0.44675 0.0
C841 C 0.26725 0.18983 0.44013 0.0
H842 H 0.28527 0.16497 0.46023 0.0
H843 H 0.24092 0.1743 0.46348 0.0
C844 C 0.22179 0.12732 0.50909 0.0
N845 N 0.22762 0.12387 0.49485 0.0
C846 C 0.20736 0.11954 0.51123 0.0
C847 C 0.20546 0.10443 0.48417 0.0
C848 C 0.21999 0.11259 0.48252 0.0
C849 C 0.19904 0.10813 0.49858 0.0
H850 H 0.22829 0.13635 0.51862 0.0
H851 H 0.22505 0.11018 0.47136 0.0
O852 O 0.28157 0.15888 0.4937 0.0
O853 O 0.26242 0.13522 0.51146 0.0
O854 O 0.24742 0.15889 0.4957 0.0
O855 O 0.25604 0.13305 0.47283 0.0
H856 H 0.30926 0.15601 0.50639 0.0
H857 H 0.2821 0.18891 0.49001 0.0
H858 H 0.33161 0.17795 0.51341 0.0
H859 H 0.30486 0.21031 0.4976 0.0
H860 H 0.2468 0.0922 0.5366 0.0
H861 H 0.28041 0.14423 0.54005 0.0
H862 H 0.24604 0.10687 0.51229 0.0
H863 H 0.28047 0.129 0.56389 0.0
H864 H 0.30027 0.19053 0.55742 0.0
H865 H 0.25161 0.18725 0.55775 0.0
H866 H 0.32319 0.12912 0.47863 0.0
H867 H 0.30286 0.09875 0.51207 0.0
H868 H 0.21741 0.15605 0.49247 0.0
H869 H 0.2601 0.18922 0.50222 0.0
H870 H 0.2037 0.17839 0.49529 0.0
H871 H 0.24568 0.211 0.50462 0.0
H872 H 0.26672 0.13859 0.44477 0.0
H873 H 0.25567 0.10321 0.47668 0.0
H874 H 0.27498 0.11873 0.42551 0.0
H875 H 0.26421 0.08393 0.45686 0.0
H876 H 0.28952 0.18356 0.43967 0.0
H877 H 0.24435 0.19333 0.44323 0.0
H878 H 0.20257 0.12265 0.52243 0.0
H879 H 0.19912 0.09578 0.47417 0.0
Li880 Li 0.16418 0.04577 0.80463 0.0
Li881 Li 0.14273 0.02798 0.81845 0.0
Li882 Li 0.16199 0.01363 0.80231 0.0
Li883 Li 0.14118 0.02587 0.78693 0.0
C884 C 0.17554 0.0332 0.83714 0.0
N885 N 0.19422 0.03689 0.86696 0.0
C886 C 0.1712 0.04042 0.85146 0.0
C887 C 0.18936 0.02786 0.83794 0.0
C888 C 0.1808 0.04215 0.86644 0.0
C889 C 0.19867 0.02987 0.85314 0.0
C890 C 0.13014 0.05313 0.80307 0.0
C891 C 0.10339 0.05432 0.79841 0.0
N892 N 0.10699 0.07022 0.80262 0.0
C893 C 0.1336 0.06947 0.80729 0.0
C894 C 0.11494 0.04547 0.79856 0.0
C895 C 0.12172 0.07791 0.80702 0.0
C896 C 0.17546 0.07434 0.78992 0.0
N897 N 0.17643 0.06819 0.80457 0.0
C898 C 0.19159 0.09335 0.81781 0.0
C899 C 0.1844 0.07751 0.81841 0.0
C900 C 0.19064 0.10012 0.80286 0.0
C901 C 0.18239 0.09008 0.7888 0.0
H902 H 0.16904 0.06706 0.77897 0.0
H903 H 0.185 0.07281 0.83011 0.0
C904 C 0.12671 0.01495 0.84536 0.0
N905 N 0.13045 0.0281 0.83782 0.0
C906 C 0.11791 0.01502 0.85869 0.0
C907 C 0.11675 0.04207 0.85642 0.0
C908 C 0.12562 0.04153 0.84325 0.0
C909 C 0.11265 0.02871 0.8645 0.0
H910 H 0.13048 1.00428 0.841 0.0
H911 H 0.12869 0.05198 0.8374 0.0
C912 C 0.17091 0.02672 0.77158 0.0
N913 N 0.18573 0.02206 0.74419 0.0
C914 C 0.16339 0.01651 0.7576 0.0
C915 C 0.18592 0.03458 0.77166 0.0
C916 C 0.17109 0.01433 0.74385 0.0
C917 C 0.19324 0.03204 0.75769 0.0
C918 C 0.12675 0.99643 0.79675 0.0
C919 C 0.12871 0.98234 0.78809 0.0
C920 C 0.11231 0.99798 0.80079 0.0
C921 C 0.11611 0.97005 0.78348 0.0
C922 C 0.09999 0.98543 0.79593 0.0
N923 N 0.10212 0.97184 0.78745 0.0
C924 C 0.17431 0.9862 0.81417 0.0
C925 C 0.17799 0.98933 0.78665 0.0
C926 C 0.18089 0.9725 0.81319 0.0
N927 N 0.17291 0.9945 0.80101 0.0
C928 C 0.18468 0.97574 0.78517 0.0
C929 C 0.18628 0.96687 0.79851 0.0
H930 H 0.1702 0.99011 0.82553 0.0
H931 H 0.17672 0.99561 0.77608 0.0
C932 C 0.1294 0.03866 0.75902 0.0
N933 N 0.12781 0.02495 0.76579 0.0
C934 C 0.12112 0.03959 0.74372 0.0
C935 C 0.10937 0.01228 0.74241 0.0
C936 C 0.11793 0.01186 0.7578 0.0
C937 C 0.11099 0.02627 0.73498 0.0
H938 H 0.13726 0.04895 0.7655 0.0
H939 H 0.1168 1.00099 0.76318 0.0
O940 O 0.1661 0.03092 0.82248 0.0
O941 O 0.14161 0.0447 0.80347 0.0
O942 O 0.16362 0.02906 0.78516 0.0
O943 O 0.13901 0.00846 0.80166 0.0
H944 H 0.16051 0.04457 0.85104 0.0
H945 H 0.19282 0.02219 0.82693 0.0
H946 H 0.17757 0.04766 0.87765 0.0
H947 H 0.20941 0.0258 0.85396 0.0
H948 H 0.09157 0.04856 0.79494 0.0
H949 H 0.14533 0.07555 0.81082 0.0
H950 H 0.1121 0.03284 0.79515 0.0
H951 H 0.12422 0.09056 0.81031 0.0
H952 H 0.19752 0.10033 0.82916 0.0
H953 H 0.18132 0.09428 0.77685 0.0
H954 H 0.11505 1.00429 0.86419 0.0
H955 H 0.11336 0.05306 0.86039 0.0
H956 H 0.1518 0.01025 0.75741 0.0
H957 H 0.19186 0.04252 0.78242 0.0
H958 H 0.16544 0.00645 0.73294 0.0
H959 H 0.20488 0.03801 0.75757 0.0
H960 H 0.13986 0.98093 0.78498 0.0
H961 H 0.11065 0.00872 0.80771 0.0
H962 H 0.11744 0.95907 0.77678 0.0
H963 H 0.08873 0.98647 0.79895 0.0
H964 H 0.18185 0.96645 0.82401 0.0
H965 H 0.18826 0.97206 0.77342 0.0
H966 H 0.12265 0.05075 0.73883 0.0
H967 H 0.10186 1.00163 0.73621 0.0
Li968 Li 0.20749 0.91253 0.04547 0.0
Li969 Li 0.22131 0.89342 0.05897 0.0
Li970 Li 0.23589 0.91604 0.04807 0.0
Li971 Li 0.22073 0.89263 0.02805 0.0
C972 C 0.22689 0.9275 0.07902 0.0
N973 N 0.23612 0.95068 0.10586 0.0
C974 C 0.22854 0.92344 0.09507 0.0
C975 C 0.22981 0.94335 0.07662 0.0
C976 C 0.23322 0.93533 0.10848 0.0
C977 C 0.23452 0.9549 0.09035 0.0
C978 C 0.19214 0.87689 0.04538 0.0
C979 C 0.1822 0.84941 0.04621 0.0
N980 N 0.17075 0.85345 0.05434 0.0
C981 C 0.18024 0.88079 0.05366 0.0
C982 C 0.1931 0.86109 0.04149 0.0
C983 C 0.16953 0.86875 0.0581 0.0
C984 C 0.18281 0.92667 0.03212 0.0
N985 N 0.1911 0.92436 0.04627 0.0
C986 C 0.17766 0.94056 0.06254 0.0
C987 C 0.18862 0.931 0.06132 0.0
C988 C 0.16897 0.94327 0.04816 0.0
C989 C 0.17162 0.93604 0.03279 0.0
H990 H 0.18505 0.92142 0.02027 0.0
H991 H 0.19526 0.92898 0.07244 0.0
C992 C 0.23804 0.88427 0.08564 0.0
N993 N 0.22352 0.88171 0.07763 0.0
C994 C 0.24141 0.877 0.09961 0.0
C995 C 0.21475 0.86481 0.09729 0.0
C996 C 0.21188 0.87233 0.08331 0.0
C997 C 0.22968 0.86713 0.10551 0.0
H998 H 0.24703 0.89221 0.08135 0.0
H999 H 0.20035 0.87081 0.07725 0.0
C1000 C 0.22412 0.92755 0.01825 0.0
N1001 N 0.23108 0.95145 0.99914 0.0
C1002 C 0.2288 0.9243 1.00273 0.0
C1003 C 0.22277 0.94289 0.02396 0.0
C1004 C 0.23232 0.93656 0.99328 0.0
C1005 C 0.2264 0.95483 0.01414 0.0
C1006 C 0.24815 0.8841 0.04772 0.0
C1007 C 0.26388 0.89001 0.05076 0.0
C1008 C 0.24265 0.86796 0.04714 0.0
C1009 C 0.27388 0.87964 0.05322 0.0
C1010 C 0.25303 0.85798 0.04977 0.0
N1011 N 0.26829 0.86398 0.05271 0.0
C1012 C 0.26342 0.93382 0.06681 0.0
C1013 C 0.26112 0.93527 0.03797 0.0
C1014 C 0.27835 0.94257 0.06895 0.0
N1015 N 0.25515 0.93034 0.05147 0.0
C1016 C 0.2759 0.94407 0.03954 0.0
C1017 C 0.28486 0.94757 0.05512 0.0
H1018 H 0.25868 0.92927 0.07729 0.0
H1019 H 0.25469 0.93185 0.02584 0.0
C1020 C 0.21048 0.87512 0.99459 0.0
N1021 N 0.22235 0.88063 0.00689 0.0
C1022 C 0.21299 0.86764 0.97927 0.0
C1023 C 0.23972 0.8712 0.98971 0.0
C1024 C 0.23676 0.87877 0.00461 0.0
C1025 C 0.22786 0.8657 0.97652 0.0
H1026 H 0.19912 0.87685 0.99651 0.0
H1027 H 0.24613 0.88346 0.0143 0.0
O1028 O 0.22239 0.91597 0.06576 0.0
O1029 O 0.20269 0.88849 0.0409 0.0
O1030 O 0.22097 0.91575 0.02779 0.0
O1031 O 0.23821 0.89411 0.04529 0.0
H1032 H 0.22612 0.91125 0.09719 0.0
H1033 H 0.22861 0.94669 0.06429 0.0
H1034 H 0.23454 0.93235 0.12097 0.0
H1035 H 0.23693 0.96721 0.08867 0.0
H1036 H 0.18284 0.83713 0.04339 0.0
H1037 H 0.17933 0.89298 0.05668 0.0
H1038 H 0.20219 0.85792 0.03497 0.0
H1039 H 0.16029 0.87157 0.06457 0.0
H1040 H 0.17593 0.94567 0.07468 0.0
H1041 H 0.16534 0.93789 0.02134 0.0
H1042 H 0.25302 0.87918 0.10583 0.0
H1043 H 0.20542 0.85742 0.10173 0.0
H1044 H 0.22986 0.91246 0.99813 0.0
H1045 H 0.21898 0.94555 0.03585 0.0
H1046 H 0.23606 0.93424 0.9813 0.0
H1047 H 0.2255 0.96678 0.01844 0.0
H1048 H 0.26831 0.90247 0.05113 0.0
H1049 H 0.2305 0.86323 0.04483 0.0
H1050 H 0.28609 0.88404 0.05554 0.0
H1051 H 0.24894 0.84548 0.04947 0.0
H1052 H 0.28493 0.94478 0.08115 0.0
H1053 H 0.28038 0.94778 0.02855 0.0
H1054 H 0.20342 0.86384 0.96957 0.0
H1055 H 0.25132 0.86978 0.98861 0.0
Li1056 Li 0.27325 0.45771 0.08491 0.0
Li1057 Li 0.28488 0.43913 0.10038 0.0
Li1058 Li 0.30062 0.45876 0.08517 0.0
Li1059 Li 0.28189 0.43589 0.07034 0.0
C1060 C 0.28523 0.47366 0.11559 0.0
N1061 N 0.27638 0.49555 0.13761 0.0
C1062 C 0.27802 0.46887 0.12898 0.0
C1063 C 0.28808 0.48958 0.11347 0.0
C1064 C 0.2736 0.48012 0.13996 0.0
C1065 C 0.28347 0.50047 0.12472 0.0
C1066 C 0.25425 0.42283 0.07999 0.0
C1067 C 0.24499 0.3949 0.07258 0.0
N1068 N 0.23063 0.3976 0.06866 0.0
C1069 C 0.23939 0.42531 0.076 0.0
C1070 C 0.25706 0.40749 0.07843 0.0
C1071 C 0.2276 0.41241 0.07028 0.0
C1072 C 0.25018 0.46509 0.06594 0.0
N1073 N 0.25665 0.4678 0.08201 0.0
C1074 C 0.23592 0.47927 0.09005 0.0
C1075 C 0.24987 0.47472 0.09409 0.0
C1076 C 0.22896 0.4763 0.07352 0.0
C1077 C 0.23638 0.46941 0.06136 0.0
H1078 H 0.25534 0.45883 0.05673 0.0
H1079 H 0.25482 0.47609 0.10687 0.0
C1080 C 0.29552 0.42185 0.12471 0.0
N1081 N 0.28341 0.42751 0.11803 0.0
C1082 C 0.29337 0.41083 0.13578 0.0
C1083 C 0.26655 0.41246 0.13343 0.0
C1084 C 0.26919 0.4233 0.1223 0.0
C1085 C 0.27867 0.40585 0.13998 0.0
H1086 H 0.30665 0.42536 0.12086 0.0
H1087 H 0.2598 0.42795 0.11659 0.0
C1088 C 0.28471 0.46684 0.05377 0.0
N1089 N 0.28373 0.4853 0.02844 0.0
C1090 C 0.28517 0.46038 0.03748 0.0
C1091 C 0.28391 0.48273 0.05721 0.0
C1092 C 0.28466 0.4699 0.02486 0.0
C1093 C 0.28335 0.49185 0.0442 0.0
C1094 C 0.30851 0.42441 0.08132 0.0
C1095 C 0.32103 0.42794 0.0727 0.0
C1096 C 0.3042 0.40918 0.08535 0.0
C1097 C 0.32898 0.41608 0.06811 0.0
C1098 C 0.31242 0.39765 0.08049 0.0
N1099 N 0.32454 0.40131 0.07204 0.0
C1100 C 0.33058 0.4757 0.0976 0.0
C1101 C 0.32261 0.47488 0.06891 0.0
C1102 C 0.3452 0.48365 0.09585 0.0
N1103 N 0.31976 0.47132 0.08413 0.0
C1104 C 0.33679 0.48309 0.06668 0.0
C1105 C 0.34849 0.48713 0.0801 0.0
H1106 H 0.32802 0.47251 0.10953 0.0
H1107 H 0.31411 0.47084 0.0583 0.0
C1108 C 0.26267 0.42371 0.04208 0.0
N1109 N 0.27582 0.42169 0.0508 0.0
C1110 C 0.25641 0.41385 0.02754 0.0
C1111 C 0.27735 0.39991 0.03124 0.0
C1112 C 0.28331 0.41019 0.0456 0.0
C1113 C 0.26375 0.40172 0.02216 0.0
H1114 H 0.25701 0.43299 0.04652 0.0
H1115 H 0.29384 0.40891 0.05246 0.0
O1116 O 0.28979 0.46285 0.10483 0.0
O1117 O 0.26598 0.43537 0.08528 0.0
O1118 O 0.28502 0.45758 0.06623 0.0
O1119 O 0.30065 0.43589 0.08597 0.0
H1120 H 0.27585 0.45662 0.13088 0.0
H1121 H 0.29375 0.49345 0.10321 0.0
H1122 H 0.26795 0.47658 0.15034 0.0
H1123 H 0.28554 0.51283 0.12321 0.0
H1124 H 0.24703 0.38298 0.07113 0.0
H1125 H 0.23693 0.43707 0.07737 0.0
H1126 H 0.26848 0.40535 0.08147 0.0
H1127 H 0.21605 0.41418 0.06714 0.0
H1128 H 0.23034 0.48442 0.09975 0.0
H1129 H 0.2314 0.46704 0.04847 0.0
H1130 H 0.30298 0.40601 0.14072 0.0
H1131 H 0.25504 0.40876 0.13628 0.0
H1132 H 0.28604 0.44817 0.03464 0.0
H1133 H 0.28359 0.48791 0.06976 0.0
H1134 H 0.28501 0.46505 0.01221 0.0
H1135 H 0.2826 0.50413 0.04664 0.0
H1136 H 0.32455 0.43969 0.06957 0.0
H1137 H 0.29456 0.40625 0.09202 0.0
H1138 H 0.33869 0.41862 0.06141 0.0
H1139 H 0.30916 0.38579 0.08342 0.0
H1140 H 0.35396 0.4864 0.10649 0.0
H1141 H 0.3387 0.48577 0.05439 0.0
H1142 H 0.24592 0.41553 0.0207 0.0
H1143 H 0.2834 0.39078 0.02714 0.0
Li1144 Li 0.82487 0.2018 0.04953 0.0
Li1145 Li 0.83851 0.18219 0.03236 0.0
Li1146 Li 0.82486 0.20143 0.01877 0.0
Li1147 Li 0.81024 0.17857 0.02904 0.0
C1148 C 0.85369 0.21826 0.03334 0.0
N1149 N 0.87514 0.24261 0.02602 0.0
C1150 C 0.86721 0.21522 0.02782 0.0
C1151 C 0.85113 0.23368 0.0353 0.0
C1152 C 0.87793 0.22771 0.02421 0.0
C1153 C 0.86207 0.24582 0.03141 0.0
C1154 C 0.82008 0.16658 0.05836 0.0
C1155 C 0.81327 0.13881 0.06015 0.0
N1156 N 0.81164 0.14217 0.07639 0.0
C1157 C 0.81828 0.16978 0.07503 0.0
C1158 C 0.81758 0.15099 0.05083 0.0
C1159 C 0.81405 0.15727 0.08396 0.0
C1160 C 0.80865 0.21364 0.07405 0.0
N1161 N 0.82317 0.21358 0.07068 0.0
C1162 C 0.83318 0.22876 0.09714 0.0
C1163 C 0.83538 0.22094 0.08188 0.0
C1164 C 0.81826 0.22912 0.1009 0.0
C1165 C 0.80594 0.2214 0.089 0.0
H1166 H 0.79909 0.20748 0.06515 0.0
H1167 H 0.84684 0.22068 0.07904 0.0
C1168 C 0.86156 0.16886 0.01795 0.0
N1169 N 0.85493 0.17049 0.03204 0.0
C1170 C 0.87263 0.15944 0.01666 0.0
C1171 C 0.86989 0.15348 0.04439 0.0
C1172 C 0.8589 0.16306 0.04517 0.0
C1173 C 0.87691 0.15148 0.02996 0.0
H1174 H 0.85803 0.17465 0.00756 0.0
H1175 H 0.85339 0.1644 0.05619 0.0
C1176 C 0.7974 0.21021 0.03001 0.0
N1177 N 0.77663 0.22983 0.02576 0.0
C1178 C 0.78227 0.20395 0.0232 0.0
C1179 C 0.80196 0.22644 0.03473 0.0
C1180 C 0.77195 0.21407 0.02113 0.0
C1181 C 0.79129 0.23616 0.03246 0.0
C1182 C 0.82041 0.16712 0.99859 0.0
C1183 C 0.81365 0.17008 0.98333 0.0
C1184 C 0.82326 0.15208 1.00036 0.0
C1185 C 0.80962 0.15787 0.97018 0.0
C1186 C 0.81904 0.14017 0.98691 0.0
N1187 N 0.81234 0.14328 0.97223 0.0
C1188 C 0.83503 0.22193 0.99409 0.0
C1189 C 0.80863 0.21128 0.99238 0.0
C1190 C 0.83239 0.22901 0.97971 0.0
N1191 N 0.82316 0.21333 1.00021 0.0
C1192 C 0.80552 0.21791 0.97796 0.0
C1193 C 0.81747 0.22683 0.97138 0.0
H1194 H 0.84658 0.22299 1.00003 0.0
H1195 H 0.79946 0.20383 0.99691 0.0
C1196 C 0.78275 0.1657 0.03884 0.0
N1197 N 0.7911 0.16419 0.02609 0.0
C1198 C 0.76782 0.15726 0.03755 0.0
C1199 C 0.77047 0.14534 0.01025 0.0
C1200 C 0.78529 0.15422 0.01195 0.0
C1201 C 0.76152 0.14704 0.02306 0.0
H1202 H 0.78757 0.17389 0.04983 0.0
H1203 H 0.79187 0.15339 1.00178 0.0
O1204 O 0.84319 0.20621 0.03713 0.0
O1205 O 0.82456 0.1787 0.0496 0.0
O1206 O 0.80764 0.20046 0.03214 0.0
O1207 O 0.82424 0.17891 0.01167 0.0
H1208 H 0.86944 0.20337 0.02644 0.0
H1209 H 0.84077 0.23622 0.03965 0.0
H1210 H 0.88847 0.22554 0.01997 0.0
H1211 H 0.86019 0.2578 0.0327 0.0
H1212 H 0.81125 0.12668 0.05448 0.0
H1213 H 0.82028 0.1818 0.08105 0.0
H1214 H 0.8189 0.14834 0.03793 0.0
H1215 H 0.81271 0.15956 0.0969 0.0
H1216 H 0.84306 0.23459 0.10582 0.0
H1217 H 0.79424 0.22104 0.09135 0.0
H1218 H 0.8775 0.1581 0.00519 0.0
H1219 H 0.87289 0.14775 0.05503 0.0
H1220 H 0.77856 0.19142 0.01942 0.0
H1221 H 0.81359 0.23144 0.04013 0.0
H1222 H 0.76022 0.20939 0.01582 0.0
H1223 H 0.79466 0.24875 0.03604 0.0
H1224 H 0.81147 0.18163 0.98163 0.0
H1225 H 0.82861 0.14959 0.01201 0.0
H1226 H 0.80431 0.16 0.95834 0.0
H1227 H 0.82107 0.12844 0.98814 0.0
H1228 H 0.84194 0.23566 0.97486 0.0
H1229 H 0.79386 0.21593 0.97189 0.0
H1230 H 0.7612 0.1588 0.04769 0.0
H1231 H 0.76586 0.13765 0.99883 0.0
Li1232 Li 0.13649 0.51014 0.29927 0.0
Li1233 Li 0.11413 0.49476 0.30876 0.0
Li1234 Li 0.13326 0.48107 0.29581 0.0
Li1235 Li 0.11457 0.49509 0.27846 0.0
C1236 C 0.14631 0.50004 0.33032 0.0
N1237 N 0.16761 0.50981 0.3582 0.0
C1238 C 0.14194 0.50654 0.345 0.0
C1239 C 0.16147 0.49832 0.32987 0.0
C1240 C 0.15289 0.51144 0.35896 0.0
C1241 C 0.17208 0.5034 0.34409 0.0
C1242 C 0.10608 0.52351 0.29518 0.0
C1243 C 0.08117 0.53003 0.28951 0.0
N1244 N 0.08722 0.54536 0.29538 0.0
C1245 C 0.11207 0.53934 0.3011 0.0
C1246 C 0.09052 0.5188 0.28932 0.0
C1247 C 0.10233 0.5502 0.30111 0.0
C1248 C 0.15121 0.53793 0.28977 0.0
N1249 N 0.15031 0.52993 0.30309 0.0
C1250 C 0.16633 0.55179 0.32061 0.0
C1251 C 0.15757 0.53658 0.31835 0.0
C1252 C 0.16734 0.56031 0.30708 0.0
C1253 C 0.15974 0.55318 0.29148 0.0
H1254 H 0.14494 0.5326 0.27788 0.0
H1255 H 0.15626 0.53041 0.32893 0.0
C1256 C 0.09881 0.48365 0.33582 0.0
N1257 N 0.102 0.49578 0.32676 0.0
C1258 C 0.09129 0.48552 0.34983 0.0
C1259 C 0.09048 0.51222 0.34488 0.0
C1260 C 0.0982 0.50994 0.33127 0.0
C1261 C 0.08699 0.49998 0.35438 0.0
H1262 H 0.10248 0.47269 0.33248 0.0
H1263 H 0.10167 0.51978 0.32482 0.0
C1264 C 0.14892 0.50073 0.27042 0.0
N1265 N 0.1729 0.511 0.25338 0.0
C1266 C 0.14605 0.50362 0.25404 0.0
C1267 C 0.16396 0.50298 0.27813 0.0
C1268 C 0.15834 0.5088 0.24562 0.0
C1269 C 0.17594 0.50824 0.26932 0.0
C1270 C 0.09846 0.4658 0.29558 0.0
C1271 C 0.10138 0.45207 0.30163 0.0
C1272 C 0.08372 0.46906 0.29465 0.0
C1273 C 0.08947 0.44186 0.30678 0.0
C1274 C 0.07213 0.45859 0.30002 0.0
N1275 N 0.07522 0.44531 0.30591 0.0
C1276 C 0.14687 0.45775 0.31036 0.0
C1277 C 0.15218 0.46074 0.28307 0.0
C1278 C 0.15635 0.44664 0.31155 0.0
N1279 N 0.14497 0.46455 0.29627 0.0
C1280 C 0.16184 0.44976 0.28376 0.0
C1281 C 0.1641 0.44257 0.29817 0.0
H1282 H 0.14123 0.46118 0.3208 0.0
H1283 H 0.15061 0.4664 0.27206 0.0
C1284 C 0.1052 0.51177 0.25308 0.0
N1285 N 0.10335 0.49695 0.2574 0.0
C1286 C 0.0975 0.51474 0.23832 0.0
C1287 C 0.08633 0.48706 0.23228 0.0
C1288 C 0.09411 0.48464 0.24736 0.0
C1289 C 0.08791 0.50231 0.22762 0.0
H1290 H 0.11274 0.52135 0.26114 0.0
H1291 H 0.09278 0.47295 0.25104 0.0
O1292 O 0.13582 0.49549 0.31645 0.0
O1293 O 0.11534 0.51262 0.29576 0.0
O1294 O 0.137 0.49559 0.27876 0.0
O1295 O 0.10995 0.47587 0.29037 0.0
H1296 H 0.13027 0.50797 0.34558 0.0
H1297 H 0.16501 0.49324 0.31864 0.0
H1298 H 0.14969 0.51658 0.37037 0.0
H1299 H 0.18388 0.50227 0.34389 0.0
H1300 H 0.0691 0.52655 0.28506 0.0
H1301 H 0.12404 0.54316 0.3059 0.0
H1302 H 0.08571 0.5066 0.28476 0.0
H1303 H 0.10678 0.56246 0.30577 0.0
H1304 H 0.17185 0.55701 0.33288 0.0
H1305 H 0.16031 0.55938 0.28072 0.0
H1306 H 0.08896 0.47587 0.35706 0.0
H1307 H 0.08779 0.52369 0.34832 0.0
H1308 H 0.13446 0.5018 0.24786 0.0
H1309 H 0.16635 0.50078 0.29081 0.0
H1310 H 0.15629 0.51105 0.23292 0.0
H1311 H 0.18766 0.51012 0.27514 0.0
H1312 H 0.11272 0.44933 0.3023 0.0
H1313 H 0.08127 0.47959 0.28993 0.0
H1314 H 0.09155 0.43118 0.31148 0.0
H1315 H 0.06068 0.46101 0.29948 0.0
H1316 H 0.15789 0.44159 0.32298 0.0
H1317 H 0.16742 0.44689 0.27308 0.0
H1318 H 0.09926 0.52664 0.23516 0.0
H1319 H 0.07901 0.47714 0.22445 0.0
Li1320 Li 0.77211 0.95748 0.58542 0.0
Li1321 Li 0.7843 0.93868 0.60008 0.0
Li1322 Li 0.79971 0.95908 0.58533 0.0
Li1323 Li 0.78121 0.93609 0.57007 0.0
C1324 C 0.78549 0.97328 0.6165 0.0
N1325 N 0.77908 0.99557 0.63995 0.0
C1326 C 0.77795 0.96858 0.6297 0.0
C1327 C 0.78989 0.98929 0.61525 0.0
C1328 C 0.77479 0.98004 0.64143 0.0
C1329 C 0.7865 1.00039 0.62723 0.0
C1330 C 0.75346 0.92231 0.58007 0.0
C1331 C 0.74421 0.89447 0.57181 0.0
N1332 N 0.72969 0.89709 0.56923 0.0
C1333 C 0.73841 0.92469 0.5775 0.0
C1334 C 0.75637 0.90705 0.5774 0.0
C1335 C 0.72656 0.9118 0.57198 0.0
C1336 C 0.74763 0.96372 0.56803 0.0
N1337 N 0.75562 0.96783 0.58341 0.0
C1338 C 0.73726 0.98266 0.59196 0.0
C1339 C 0.75078 0.97711 0.59539 0.0
C1340 C 0.7288 0.97827 0.57623 0.0
C1341 C 0.73409 0.96883 0.56414 0.0
H1342 H 0.75161 0.95603 0.55893 0.0
H1343 H 0.75708 0.9799 0.60764 0.0
C1344 C 0.79547 0.92101 0.62382 0.0
N1345 N 0.78325 0.92672 0.61749 0.0
C1346 C 0.79351 0.90973 0.63464 0.0
C1347 C 0.76668 0.91125 0.63282 0.0
C1348 C 0.76912 0.92234 0.62192 0.0
C1349 C 0.77891 0.90458 0.63899 0.0
H1350 H 0.80654 0.92471 0.61991 0.0
H1351 H 0.75965 0.92705 0.61651 0.0
C1352 C 0.78267 0.96587 0.55304 0.0
N1353 N 0.77994 0.98131 0.52544 0.0
C1354 C 0.78534 0.9589 0.53771 0.0
C1355 C 0.77879 0.98078 0.55437 0.0
C1356 C 0.78386 0.96688 0.5239 0.0
C1357 C 0.77742 0.98837 0.54025 0.0
C1358 C 0.8083 0.92486 0.58159 0.0
C1359 C 0.82162 0.9286 0.57427 0.0
C1360 C 0.80349 0.90947 0.58496 0.0
C1361 C 0.82987 0.91682 0.57034 0.0
C1362 C 0.81202 0.89803 0.58079 0.0
N1363 N 0.82493 0.90191 0.57363 0.0
C1364 C 0.83101 0.97044 0.5952 0.0
C1365 C 0.81998 0.98196 0.57308 0.0
C1366 C 0.84558 0.9784 0.59342 0.0
N1367 N 0.81868 0.97212 0.58483 0.0
C1368 C 0.83427 0.99006 0.57082 0.0
C1369 C 0.84732 0.98801 0.58078 0.0
H1370 H 0.82958 0.96242 0.60436 0.0
H1371 H 0.81003 0.9832 0.56509 0.0
C1372 C 0.76205 0.92235 0.54189 0.0
N1373 N 0.7758 0.92186 0.55042 0.0
C1374 C 0.75647 0.91207 0.52745 0.0
C1375 C 0.77939 0.90106 0.53074 0.0
C1376 C 0.7846 0.91167 0.54502 0.0
C1377 C 0.76516 0.9012 0.52187 0.0
H1378 H 0.7554 0.93071 0.5464 0.0
H1379 H 0.79565 0.91174 0.55161 0.0
O1380 O 0.78884 0.96225 0.60504 0.0
O1381 O 0.76524 0.93489 0.58503 0.0
O1382 O 0.78379 0.95811 0.56665 0.0
O1383 O 0.8001 0.93624 0.58548 0.0
H1384 H 0.77455 0.95623 0.63088 0.0
H1385 H 0.79579 0.99307 0.60511 0.0
H1386 H 0.76893 0.97659 0.6517 0.0
H1387 H 0.78976 0.01283 0.62641 0.0
H1388 H 0.74633 0.88263 0.56949 0.0
H1389 H 0.73586 0.93634 0.57984 0.0
H1390 H 0.76791 0.90498 0.57932 0.0
H1391 H 0.71488 0.9135 0.56988 0.0
H1392 H 0.73326 0.98991 0.6015 0.0
H1393 H 0.72768 0.96529 0.55189 0.0
H1394 H 0.8032 0.90487 0.6393 0.0
H1395 H 0.75525 0.90744 0.63581 0.0
H1396 H 0.78857 0.94748 0.53649 0.0
H1397 H 0.77688 0.98643 0.56618 0.0
H1398 H 0.78583 0.9616 0.51195 0.0
H1399 H 0.77437 0.99987 0.54108 0.0
H1400 H 0.82549 0.94044 0.57156 0.0
H1401 H 0.79324 0.90636 0.59063 0.0
H1402 H 0.84018 0.91954 0.56464 0.0
H1403 H 0.80839 0.88606 0.58325 0.0
H1404 H 0.85541 0.97643 0.60127 0.0
H1405 H 0.83513 0.99754 0.56109 0.0
H1406 H 0.74546 0.9125 0.5208 0.0
H1407 H 0.78653 0.89303 0.52649 0.0
Li1408 Li 0.90466 0.0676 0.29191 0.0
Li1409 Li 0.88142 0.0483 0.27427 0.0
Li1410 Li 0.90277 0.06667 0.26039 0.0
Li1411 Li 0.88363 0.08027 0.27582 0.0
C1412 C 0.91559 0.04097 0.27537 0.0
N1413 N 0.93899 0.02422 0.27721 0.0
C1414 C 0.91258 0.02512 0.27775 0.0
C1415 C 0.93046 0.0483 0.27383 0.0
C1416 C 0.92458 0.01686 0.27869 0.0
C1417 C 0.94214 0.03962 0.27481 0.0
C1418 C 0.87389 0.0651 0.30656 0.0
C1419 C 0.85183 0.07019 0.31902 0.0
N1420 N 0.85751 0.06525 0.33319 0.0
C1421 C 0.87949 0.06002 0.32121 0.0
C1422 C 0.85994 0.0702 0.3054 0.0
C1423 C 0.87104 0.0602 0.33455 0.0
C1424 C 0.9236 0.08259 0.32312 0.0
N1425 N 0.91829 0.06878 0.31293 0.0
C1426 C 0.93081 0.05487 0.33245 0.0
C1427 C 0.92173 0.05507 0.31743 0.0
C1428 C 0.9364 0.06888 0.34333 0.0
C1429 C 0.93264 0.0829 0.3384 0.0
H1430 H 0.92069 0.09338 0.31949 0.0
H1431 H 0.91712 0.04412 0.30954 0.0
C1432 C 0.86725 0.01475 0.26048 0.0
N1433 N 0.86904 0.02581 0.27409 0.0
C1434 C 0.86012 0.99885 0.26079 0.0
C1435 C 0.85653 1.00561 0.28904 0.0
C1436 C 0.86375 0.02135 0.28823 0.0
C1437 C 0.85459 0.99381 0.27525 0.0
H1438 H 0.8716 0.01814 0.24932 0.0
H1439 H 0.8654 0.02993 0.29916 0.0
C1440 C 0.91858 0.09762 0.2778 0.0
N1441 N 0.94257 0.12236 0.27754 0.0
C1442 C 0.91581 0.11157 0.27217 0.0
C1443 C 0.93351 0.09628 0.28342 0.0
C1444 C 0.9281 0.12394 0.27211 0.0
C1445 C 0.9455 0.10891 0.28314 0.0
C1446 C 0.87032 0.06452 0.24208 0.0
C1447 C 0.87637 0.07388 0.23066 0.0
C1448 C 0.85501 0.05691 0.23919 0.0
C1449 C 0.86693 0.07547 0.21645 0.0
C1450 C 0.84594 0.05884 0.22486 0.0
N1451 N 0.85204 0.06798 0.21387 0.0
C1452 C 0.91705 0.05287 0.23334 0.0
C1453 C 0.92181 0.0806 0.23589 0.0
C1454 C 0.92572 0.05217 0.22001 0.0
N1455 N 0.91516 0.06693 0.24111 0.0
C1456 C 0.93054 0.08043 0.22251 0.0
C1457 C 0.93265 0.06605 0.21415 0.0
H1458 H 0.91186 0.04206 0.23755 0.0
H1459 H 0.92029 0.09175 0.242 0.0
C1460 C 0.8735 0.10838 0.29216 0.0
N1461 N 0.87285 0.09951 0.27718 0.0
C1462 C 0.86697 0.1221 0.29368 0.0
C1463 C 0.85921 0.11784 0.26437 0.0
C1464 C 0.86581 0.10415 0.26341 0.0
C1465 C 0.85961 0.1273 0.27969 0.0
H1466 H 0.87918 0.10489 0.3031 0.0
H1467 H 0.86542 0.09737 0.25146 0.0
O1468 O 0.904 0.04925 0.27451 0.0
O1469 O 0.88215 0.06545 0.29351 0.0
O1470 O 0.90665 0.08552 0.27823 0.0
O1471 O 0.87942 0.06255 0.25589 0.0
H1472 H 0.90111 0.0193 0.27896 0.0
H1473 H 0.93293 0.06051 0.27181 0.0
H1474 H 0.92244 1.00459 0.28059 0.0
H1475 H 0.95371 0.04513 0.27363 0.0
H1476 H 0.84104 0.07415 0.31832 0.0
H1477 H 0.89023 0.05598 0.32229 0.0
H1478 H 0.85547 0.07418 0.29412 0.0
H1479 H 0.87525 0.05633 0.34599 0.0
H1480 H 0.93304 0.04369 0.3357 0.0
H1481 H 0.9367 0.09404 0.34623 0.0
H1482 H 0.85894 0.9906 0.24964 0.0
H1483 H 0.85287 1.00268 0.30066 0.0
H1484 H 0.90428 0.11283 0.2679 0.0
H1485 H 0.93582 0.08567 0.28808 0.0
H1486 H 0.92614 0.13481 0.26778 0.0
H1487 H 0.95712 0.10804 0.28744 0.0
H1488 H 0.8882 0.07987 0.23276 0.0
H1489 H 0.85021 0.04959 0.24793 0.0
H1490 H 0.87144 0.08265 0.20747 0.0
H1491 H 0.83405 0.05304 0.22245 0.0
H1492 H 0.9271 0.04072 0.2145 0.0
H1493 H 0.93535 0.09153 0.21862 0.0
H1494 H 0.86765 0.12844 0.30592 0.0
H1495 H 0.8541 0.12105 0.25298 0.0
Li1496 Li 0.32475 0.70164 0.54936 0.0
Li1497 Li 0.33848 0.68219 0.53219 0.0
Li1498 Li 0.32465 0.70145 0.51859 0.0
Li1499 Li 0.31016 0.67849 0.52905 0.0
C1500 C 0.35325 0.71804 0.53224 0.0
N1501 N 0.37418 0.74208 0.52354 0.0
C1502 C 0.36721 0.71517 0.52783 0.0
C1503 C 0.34993 0.73313 0.53229 0.0
C1504 C 0.37766 0.72749 0.5235 0.0
C1505 C 0.36065 0.74512 0.52777 0.0
C1506 C 0.32012 0.66632 0.55803 0.0
C1507 C 0.31348 0.63847 0.55939 0.0
N1508 N 0.3117 0.64158 0.57562 0.0
C1509 C 0.31817 0.66927 0.57468 0.0
C1510 C 0.3178 0.65082 0.55029 0.0
C1511 C 0.31395 0.6566 0.58339 0.0
C1512 C 0.30858 0.71146 0.57478 0.0
N1513 N 0.32299 0.71332 0.57053 0.0
C1514 C 0.33257 0.73047 0.59596 0.0
C1515 C 0.33494 0.72261 0.5808 0.0
C1516 C 0.31773 0.7289 0.60057 0.0
C1517 C 0.30569 0.71918 0.58966 0.0
H1518 H 0.29927 0.70386 0.56658 0.0
H1519 H 0.34632 0.72391 0.57724 0.0
C1520 C 0.36155 0.66885 0.5177 0.0
N1521 N 0.35491 0.67047 0.53178 0.0
C1522 C 0.37264 0.65945 0.51642 0.0
C1523 C 0.36992 0.6535 0.54415 0.0
C1524 C 0.35891 0.66306 0.54492 0.0
C1525 C 0.37695 0.65151 0.52972 0.0
H1526 H 0.35801 0.67464 0.50731 0.0
H1527 H 0.3534 0.6644 0.55595 0.0
C1528 C 0.29687 0.70979 0.53167 0.0
N1529 N 0.27552 0.72903 0.52995 0.0
C1530 C 0.28172 0.70352 0.52494 0.0
C1531 C 0.30117 0.72584 0.53755 0.0
C1532 C 0.2711 0.71345 0.52417 0.0
C1533 C 0.2902 0.73537 0.53657 0.0
C1534 C 0.31975 0.66793 0.49795 0.0
C1535 C 0.3121 0.67178 0.48361 0.0
C1536 C 0.32297 0.65282 0.49818 0.0
C1537 C 0.30769 0.66038 0.46973 0.0
C1538 C 0.31832 0.64173 0.48405 0.0
N1539 N 0.31084 0.64571 0.47025 0.0
C1540 C 0.33535 0.71662 0.49093 0.0
C1541 C 0.30974 0.71727 0.49503 0.0
C1542 C 0.33354 0.72383 0.47648 0.0
N1543 N 0.3235 0.71352 0.49995 0.0
C1544 C 0.30754 0.72466 0.48094 0.0
C1545 C 0.31946 0.72792 0.47144 0.0
H1546 H 0.34605 0.71312 0.49468 0.0
H1547 H 0.30019 0.71402 0.50159 0.0
C1548 C 0.28254 0.66589 0.53872 0.0
N1549 N 0.29103 0.66404 0.52615 0.0
C1550 C 0.26754 0.6576 0.53736 0.0
C1551 C 0.27047 0.64501 0.51043 0.0
C1552 C 0.28535 0.65376 0.5122 0.0
C1553 C 0.26134 0.64714 0.523 0.0
H1554 H 0.28728 0.67427 0.54959 0.0
H1555 H 0.29208 0.65257 0.50221 0.0
O1556 O 0.34308 0.70622 0.53693 0.0
O1557 O 0.32458 0.6786 0.54948 0.0
O1558 O 0.30751 0.70034 0.53202 0.0
O1559 O 0.32413 0.67893 0.51165 0.0
H1560 H 0.37 0.70358 0.52791 0.0
H1561 H 0.33919 0.73554 0.53573 0.0
H1562 H 0.38855 0.72547 0.52014 0.0
H1563 H 0.35822 0.75684 0.52768 0.0
H1564 H 0.31159 0.6264 0.55358 0.0
H1565 H 0.32006 0.68123 0.58086 0.0
H1566 H 0.31928 0.64838 0.53739 0.0
H1567 H 0.3125 0.6587 0.59632 0.0
H1568 H 0.34222 0.73787 0.60388 0.0
H1569 H 0.29411 0.71732 0.5927 0.0
H1570 H 0.37753 0.65813 0.50495 0.0
H1571 H 0.37293 0.64779 0.5548 0.0
H1572 H 0.27824 0.69118 0.52007 0.0
H1573 H 0.31286 0.73087 0.54274 0.0
H1574 H 0.25935 0.70877 0.5189 0.0
H1575 H 0.29336 0.74782 0.54103 0.0
H1576 H 0.30952 0.68342 0.48322 0.0
H1577 H 0.32888 0.64965 0.50918 0.0
H1578 H 0.30173 0.66318 0.45856 0.0
H1579 H 0.32065 0.62996 0.48407 0.0
H1580 H 0.34293 0.72603 0.46926 0.0
H1581 H 0.29643 0.72737 0.4772 0.0
H1582 H 0.26079 0.65945 0.54732 0.0
H1583 H 0.26595 0.6371 0.49915 0.0
Li1584 Li 0.38142 0.54825 0.77406 0.0
Li1585 Li 0.40472 0.56757 0.79168 0.0
Li1586 Li 0.38366 0.58031 0.77569 0.0
Li1587 Li 0.40277 0.56662 0.76016 0.0
C1588 C 0.3741 0.56498 0.80651 0.0
N1589 N 0.35802 0.5649 0.83338 0.0
C1590 C 0.37985 0.55978 0.82103 0.0
C1591 C 0.36016 0.57008 0.80561 0.0
C1592 C 0.37156 0.55985 0.8345 0.0
C1593 C 0.35219 0.56995 0.81933 0.0
C1594 C 0.41552 0.54083 0.77469 0.0
C1595 C 0.44194 0.53931 0.77336 0.0
N1596 N 0.43879 0.5239 0.77575 0.0
C1597 C 0.41251 0.52497 0.77704 0.0
C1598 C 0.43032 0.54807 0.77278 0.0
C1599 C 0.42445 0.51661 0.77758 0.0
C1600 C 0.36755 0.51455 0.76035 0.0
N1601 N 0.369 0.5257 0.77384 0.0
C1602 C 0.35609 0.50554 0.78859 0.0
C1603 C 0.36335 0.52129 0.78782 0.0
C1604 C 0.35451 0.49368 0.77492 0.0
C1605 C 0.36042 0.49865 0.76062 0.0
H1606 H 0.37219 0.51789 0.74931 0.0
H1607 H 0.36472 0.52993 0.79867 0.0
C1608 C 0.42283 0.58254 0.82328 0.0
N1609 N 0.4184 0.56886 0.8127 0.0
C1610 C 0.43184 0.58297 0.8386 0.0
C1611 C 0.43182 0.55534 0.8319 0.0
C1612 C 0.42274 0.5554 0.81684 0.0
C1613 C 0.43648 0.5692 0.8432 0.0
H1614 H 0.41923 0.59312 0.81993 0.0
H1615 H 0.41883 0.54452 0.80865 0.0
C1616 C 0.37043 0.56459 0.74186 0.0
N1617 N 0.35237 0.56814 0.71353 0.0
C1618 C 0.37662 0.57389 0.73047 0.0
C1619 C 0.35509 0.55709 0.73889 0.0
C1620 C 0.36729 0.57552 0.71619 0.0
C1621 C 0.34612 0.55906 0.72449 0.0
C1622 C 0.4187 0.59759 0.77796 0.0
C1623 C 0.4161 0.61174 0.77271 0.0
C1624 C 0.43358 0.596 0.7835 0.0
C1625 C 0.42851 0.62407 0.77295 0.0
C1626 C 0.44568 0.60859 0.78353 0.0
N1627 N 0.44291 0.62224 0.7783 0.0
C1628 C 0.37359 0.60849 0.79214 0.0
C1629 C 0.36594 0.60437 0.76337 0.0
C1630 C 0.36717 0.62228 0.7937 0.0
N1631 N 0.37294 0.59964 0.77713 0.0
C1632 C 0.35935 0.61806 0.7644 0.0
C1633 C 0.35983 0.62748 0.77973 0.0
H1634 H 0.37922 0.60493 0.80308 0.0
H1635 H 0.36557 0.59763 0.75141 0.0
C1636 C 0.41549 0.55279 0.73183 0.0
N1637 N 0.41515 0.56682 0.74084 0.0
C1638 C 0.42406 0.55202 0.71841 0.0
C1639 C 0.43208 0.58015 0.72348 0.0
C1640 C 0.42331 0.58039 0.73682 0.0
C1641 C 0.43258 0.56582 0.71386 0.0
H1642 H 0.40913 0.54204 0.73512 0.0
H1643 H 0.42303 0.59153 0.74389 0.0
O1644 O 0.3822 0.56542 0.79333 0.0
O1645 O 0.404 0.54921 0.77428 0.0
O1646 O 0.37942 0.56258 0.75573 0.0
O1647 O 0.40668 0.58548 0.77799 0.0
H1648 H 0.39059 0.55573 0.8219 0.0
H1649 H 0.35557 0.57415 0.79443 0.0
H1650 H 0.37589 0.5559 0.84584 0.0
H1651 H 0.3414 0.57389 0.81884 0.0
H1652 H 0.45346 0.54475 0.77191 0.0
H1653 H 0.4011 0.51921 0.77855 0.0
H1654 H 0.43279 0.56029 0.7708 0.0
H1655 H 0.42232 0.50434 0.77946 0.0
H1656 H 0.3521 0.50266 0.80009 0.0
H1657 H 0.35953 0.49033 0.74958 0.0
H1658 H 0.43516 0.59401 0.84674 0.0
H1659 H 0.43475 0.54433 0.83486 0.0
H1660 H 0.38848 0.57978 0.73263 0.0
H1661 H 0.35017 0.54982 0.74761 0.0
H1662 H 0.37192 0.58264 0.70722 0.0
H1663 H 0.33422 0.55334 0.72202 0.0
H1664 H 0.40463 0.61318 0.76849 0.0
H1665 H 0.43576 0.5852 0.78784 0.0
H1666 H 0.42668 0.63509 0.7689 0.0
H1667 H 0.45726 0.60752 0.78776 0.0
H1668 H 0.36787 0.62871 0.80592 0.0
H1669 H 0.35418 0.62138 0.75307 0.0
H1670 H 0.42414 0.54058 0.71181 0.0
H1671 H 0.43819 0.5912 0.72059 0.0
Li1672 Li 0.61408 0.99453 0.80893 0.0
Li1673 Li 0.63655 0.00988 0.79959 0.0
Li1674 Li 0.61464 0.99506 0.77869 0.0
Li1675 Li 0.63321 0.98081 0.79604 0.0
C1676 C 0.60649 0.02369 0.79595 0.0
N1677 N 0.58815 0.04603 0.79694 0.0
C1678 C 0.61252 0.03911 0.80337 0.0
C1679 C 0.59113 0.01963 0.78902 0.0
C1680 C 0.60306 0.05024 0.80372 0.0
C1681 C 0.58205 0.0311 0.78966 0.0
C1682 C 0.64605 0.99966 0.8307 0.0
C1683 C 0.67138 1.00188 0.84522 0.0
N1684 N 0.66694 0.00909 0.85895 0.0
C1685 C 0.64172 0.00704 0.84496 0.0
C1686 C 0.66096 0.99696 0.83082 0.0
C1687 C 0.65246 0.01172 0.85912 0.0
C1688 C 0.60161 0.98395 0.83752 0.0
N1689 N 0.60183 0.99499 0.82692 0.0
C1690 C 0.58754 0.00943 0.8438 0.0
C1691 C 0.59496 0.00755 0.8299 0.0
C1692 C 0.58736 0.99845 0.85506 0.0
C1693 C 0.59445 0.9855 0.85183 0.0
H1694 H 0.60745 0.97424 0.83516 0.0
H1695 H 0.59561 0.01654 0.82195 0.0
C1696 C 0.64987 0.03835 0.79056 0.0
N1697 N 0.6505 0.02965 0.80334 0.0
C1698 C 0.65834 0.05365 0.79227 0.0
C1699 C 0.6682 0.05075 0.82018 0.0
C1700 C 0.65942 0.03554 0.81799 0.0
C1701 C 0.66756 0.06003 0.80727 0.0
H1702 H 0.64246 0.03352 0.77917 0.0
H1703 H 0.65954 0.02875 0.82817 0.0
C1704 C 0.59839 0.96594 0.79597 0.0
N1705 N 0.57509 0.94595 0.8068 0.0
C1706 C 0.60112 0.9521 0.80191 0.0
C1707 C 0.58381 0.96959 0.79547 0.0
C1708 C 0.58917 0.94213 0.8073 0.0
C1709 C 0.57219 0.95936 0.80107 0.0
C1710 C 0.64894 1.00129 0.77098 0.0
C1711 C 0.64604 1.00483 0.75484 0.0
C1712 C 0.66399 1.00361 0.77872 0.0
C1713 C 0.65829 0.01072 0.74669 0.0
C1714 C 0.67593 0.00962 0.77018 0.0
N1715 N 0.67285 0.013 0.75448 0.0
C1716 C 0.60541 0.01213 0.75374 0.0
C1717 C 0.59461 0.98501 0.7471 0.0
C1718 C 0.59808 0.01541 0.73894 0.0
N1719 N 0.60358 0.99716 0.7576 0.0
C1720 C 0.5872 0.98774 0.73194 0.0
C1721 C 0.58894 1.00315 0.72758 0.0
H1722 H 0.61265 0.02161 0.76221 0.0
H1723 H 0.59333 0.97318 0.75039 0.0
C1724 C 0.64628 0.95715 0.81054 0.0
N1725 N 0.64479 0.96417 0.79656 0.0
C1726 C 0.65561 0.94591 0.81184 0.0
C1727 C 0.66181 0.94936 0.78436 0.0
C1728 C 0.65231 0.96049 0.78357 0.0
C1729 C 0.66362 0.9419 0.79866 0.0
H1730 H 0.64041 0.96049 0.82083 0.0
H1731 H 0.65109 0.96634 0.77265 0.0
O1732 O 0.61542 0.0125 0.79608 0.0
O1733 O 0.63575 0.99517 0.81667 0.0
O1734 O 0.60989 0.97573 0.79045 0.0
O1735 O 0.63708 0.99534 0.77901 0.0
H1736 H 0.6243 0.0424 0.80903 0.0
H1737 H 0.58625 0.00771 0.78341 0.0
H1738 H 0.60756 0.06219 0.80948 0.0
H1739 H 0.57013 0.02811 0.78444 0.0
H1740 H 0.68299 0.99999 0.84547 0.0
H1741 H 0.63025 0.00929 0.84506 0.0
H1742 H 0.66449 0.9913 0.81987 0.0
H1743 H 0.64929 0.0175 0.87023 0.0
H1744 H 0.58252 0.01977 0.84608 0.0
H1745 H 0.59459 0.97684 0.86036 0.0
H1746 H 0.65765 0.06044 0.78198 0.0
H1747 H 0.67507 0.05536 0.83199 0.0
H1748 H 0.61232 0.94906 0.80225 0.0
H1749 H 0.58154 0.98026 0.79088 0.0
H1750 H 0.5911 0.93135 0.81187 0.0
H1751 H 0.56087 0.96207 0.80084 0.0
H1752 H 0.63446 1.00291 0.74862 0.0
H1753 H 0.66639 1.00089 0.7912 0.0
H1754 H 0.65621 0.01346 0.73418 0.0
H1755 H 0.68764 0.01157 0.77603 0.0
H1756 H 0.59957 0.02753 0.73651 0.0
H1757 H 0.58045 0.97783 0.72362 0.0
H1758 H 0.6568 0.94068 0.8232 0.0
H1759 H 0.66761 0.94657 0.77383 0.0
Li1760 Li 0.76667 0.65786 0.00926 0.0
Li1761 Li 0.77354 0.63639 0.99193 0.0
Li1762 Li 0.76211 0.65609 0.97912 0.0
Li1763 Li 0.74696 0.63574 0.99358 0.0
C1764 C 0.79417 0.67095 0.99747 0.0
N1765 N 0.81935 0.69508 0.00611 0.0
C1766 C 0.80817 0.66779 1.00413 0.0
C1767 C 0.79304 0.68638 0.99505 0.0
C1768 C 0.82075 0.68015 0.00847 0.0
C1769 C 0.80588 0.69841 0.99953 0.0
C1770 C 0.76318 0.62691 0.02459 0.0
C1771 C 0.75416 0.60349 0.03669 0.0
N1772 N 0.76301 0.60994 0.05121 0.0
C1773 C 0.77227 0.63325 0.0396 0.0
C1774 C 0.7541 0.61188 0.02308 0.0
C1775 C 0.772 0.62451 0.05292 0.0
C1776 C 0.75903 0.6752 0.03644 0.0
N1777 N 0.77107 0.67131 0.02933 0.0
C1778 C 0.78874 0.68625 0.05171 0.0
C1779 C 0.78569 0.67636 0.03675 0.0
C1780 C 0.77656 0.69082 0.05907 0.0
C1781 C 0.76154 0.68512 0.05137 0.0
H1782 H 0.74749 0.67053 0.03054 0.0
H1783 H 0.79498 0.67249 0.03129 0.0
C1784 C 0.80053 0.62961 0.98237 0.0
N1785 N 0.78883 0.62458 0.99088 0.0
C1786 C 0.81412 0.62409 0.98495 0.0
C1787 C 0.80269 0.60738 1.00384 0.0
C1788 C 0.78936 0.61319 1.00086 0.0
C1789 C 0.81548 0.61332 0.99635 0.0
H1790 H 0.79968 0.63876 0.97456 0.0
H1791 H 0.77981 0.60934 0.00731 0.0
C1792 C 0.73975 0.67084 0.99628 0.0
N1793 N 0.72381 0.6952 0.99869 0.0
C1794 C 0.72378 0.6676 0.99453 0.0
C1795 C 0.74762 0.68645 0.99932 0.0
C1796 C 0.71593 0.68008 0.99578 0.0
C1797 C 0.73935 0.6986 1.00046 0.0
C1798 C 0.76107 0.62199 0.96221 0.0
C1799 C 0.76635 0.62636 0.94765 0.0
C1800 C 0.76027 0.6065 0.96561 0.0
C1801 C 0.77085 0.61514 0.93672 0.0
C1802 C 0.76499 0.59565 0.95443 0.0
N1803 N 0.77012 0.60015 0.94032 0.0
C1804 C 0.77615 0.67178 0.95605 0.0
C1805 C 0.75054 0.67511 0.9569 0.0
C1806 C 0.77833 0.6827 0.94494 0.0
N1807 N 0.76257 0.66852 0.96202 0.0
C1808 C 0.75219 0.6861 0.94574 0.0
C1809 C 0.76634 0.69023 0.93991 0.0
H1810 H 0.78548 0.66628 0.96042 0.0
H1811 H 0.73983 0.67215 0.96179 0.0
C1812 C 0.72248 0.62653 0.00958 0.0
N1813 N 0.72806 0.6237 0.99504 0.0
C1814 C 0.70806 0.61865 0.01166 0.0
C1815 C 0.70561 0.60487 0.98386 0.0
C1816 C 0.72016 0.61303 0.98232 0.0
C1817 C 0.69948 0.60788 0.99862 0.0
H1818 H 0.72915 0.63515 0.01939 0.0
H1819 H 0.725 0.61116 0.97091 0.0
O1820 O 0.78173 0.65896 0.99316 0.0
O1821 O 0.76299 0.63549 0.01154 0.0
O1822 O 0.74756 0.65871 0.99538 0.0
O1823 O 0.75631 0.63273 0.97286 0.0
H1824 H 0.80926 0.65597 0.00629 0.0
H1825 H 0.78241 0.68905 0.98968 0.0
H1826 H 0.8316 0.67788 0.01377 0.0
H1827 H 0.80515 0.7104 0.99775 0.0
H1828 H 0.74717 0.59186 0.0357 0.0
H1829 H 0.77951 0.64477 0.04096 0.0
H1830 H 0.74713 0.6067 0.0115 0.0
H1831 H 0.77893 0.62932 0.06463 0.0
H1832 H 0.80047 0.69043 0.05733 0.0
H1833 H 0.75186 0.6882 0.0569 0.0
H1834 H 0.8237 0.62877 0.97878 0.0
H1835 H 0.80328 0.59917 0.01282 0.0
H1836 H 0.71753 0.65556 0.99226 0.0
H1837 H 0.75996 0.68914 1.00099 0.0
H1838 H 0.70357 0.67775 0.99447 0.0
H1839 H 0.7453 0.71074 1.00282 0.0
H1840 H 0.76683 0.63825 0.94473 0.0
H1841 H 0.75613 0.60295 0.97683 0.0
H1842 H 0.7749 0.61833 0.92535 0.0
H1843 H 0.76455 0.58364 0.95694 0.0
H1844 H 0.78945 0.68566 0.94086 0.0
H1845 H 0.7426 0.69147 0.94191 0.0
H1846 H 0.70344 0.62128 0.0231 0.0
H1847 H 0.69904 0.59676 0.97354 0.0
Li1848 Li 0.90933 0.58421 0.77935 0.0
Li1849 Li 0.93165 0.59998 0.79948 0.0
Li1850 Li 0.9121 0.61337 0.7823 0.0
Li1851 Li 0.93088 0.59973 0.769 0.0
C1852 C 0.89764 0.59513 0.80904 0.0
N1853 N 0.87433 0.5858 0.82731 0.0
C1854 C 0.90083 0.58953 0.82414 0.0
C1855 C 0.88266 0.59624 0.80334 0.0
C1856 C 0.88887 0.58482 0.83318 0.0
C1857 C 0.87101 0.59138 0.81273 0.0
C1858 C 0.94045 0.57211 0.77959 0.0
C1859 C 0.96574 0.56754 0.77625 0.0
N1860 N 0.96013 0.55177 0.77335 0.0
C1861 C 0.93494 0.55586 0.7766 0.0
C1862 C 0.95598 0.57802 0.77951 0.0
C1863 C 0.94507 0.54577 0.7735 0.0
C1864 C 0.8939 0.55616 0.75943 0.0
N1865 N 0.89566 0.56435 0.77488 0.0
C1866 C 0.87877 0.54361 0.78407 0.0
C1867 C 0.88861 0.55818 0.78721 0.0
C1868 C 0.87642 0.53509 0.76817 0.0
C1869 C 0.88427 0.54137 0.75577 0.0
H1870 H 0.90008 0.56105 0.74998 0.0
H1871 H 0.89074 0.56437 0.79956 0.0
C1872 C 0.95065 0.61098 0.83149 0.0
N1873 N 0.94334 0.59842 0.82037 0.0
C1874 C 0.95823 0.60866 0.84672 0.0
C1875 C 0.95072 0.5806 0.83871 0.0
C1876 C 0.94335 0.58345 0.82371 0.0
C1877 C 0.95828 0.59326 0.85062 0.0
H1878 H 0.95048 0.6228 0.82862 0.0
H1879 H 0.9373 0.57363 0.81481 0.0
C1880 C 0.89792 0.5934 0.7487 0.0
N1881 N 0.87554 0.58279 0.72188 0.0
C1882 C 0.90178 0.59256 0.73259 0.0
C1883 C 0.88263 0.5891 0.75114 0.0
C1884 C 0.89032 0.58712 0.7192 0.0
C1885 C 0.8715 0.58367 0.73743 0.0
C1886 C 0.94702 0.6294 0.7828 0.0
C1887 C 0.94378 0.64171 0.77423 0.0
C1888 C 0.96219 0.62809 0.78721 0.0
C1889 C 0.95585 0.65243 0.77001 0.0
C1890 C 0.97393 0.63901 0.78271 0.0
N1891 N 0.97054 0.65085 0.77427 0.0
C1892 C 0.89786 0.63814 0.7957 0.0
C1893 C 0.89408 0.63258 0.76645 0.0
C1894 C 0.88865 0.64955 0.79505 0.0
N1895 N 0.90038 0.62991 0.78152 0.0
C1896 C 0.88471 0.64378 0.76523 0.0
C1897 C 0.88185 0.65248 0.77965 0.0
H1898 H 0.90285 0.6357 0.80754 0.0
H1899 H 0.89625 0.62594 0.75533 0.0
C1900 C 0.93811 0.58294 0.74188 0.0
N1901 N 0.94186 0.59768 0.75042 0.0
C1902 C 0.94434 0.57934 0.72744 0.0
C1903 C 0.95821 0.60619 0.73063 0.0
C1904 C 0.95163 0.60931 0.74504 0.0
C1905 C 0.9545 0.59105 0.72161 0.0
H1906 H 0.93 0.57401 0.74614 0.0
H1907 H 0.95418 0.62103 0.75163 0.0
O1908 O 0.90913 0.59926 0.79979 0.0
O1909 O 0.93061 0.58213 0.78235 0.0
O1910 O 0.90908 0.59837 0.76196 0.0
O1911 O 0.93538 0.61881 0.78703 0.0
H1912 H 0.91238 0.58865 0.82873 0.0
H1913 H 0.88005 0.6007 0.79176 0.0
H1914 H 0.89114 0.58033 0.84482 0.0
H1915 H 0.85933 0.59202 0.80842 0.0
H1916 H 0.97776 0.57195 0.776 0.0
H1917 H 0.92296 0.55109 0.77672 0.0
H1918 H 0.9604 0.59057 0.78172 0.0
H1919 H 0.94096 0.53316 0.77119 0.0
H1920 H 0.87324 0.53891 0.79406 0.0
H1921 H 0.88284 0.53502 0.74341 0.0
H1922 H 0.964 0.61885 0.85531 0.0
H1923 H 0.95007 0.56852 0.84108 0.0
H1924 H 0.91348 0.59617 0.73041 0.0
H1925 H 0.87944 0.58969 0.76351 0.0
H1926 H 0.89317 0.58637 0.70668 0.0
H1927 H 0.85965 0.58012 0.73915 0.0
H1928 H 0.93207 0.6429 0.77082 0.0
H1929 H 0.96485 0.6187 0.79399 0.0
H1930 H 0.95353 0.66197 0.76331 0.0
H1931 H 0.98573 0.63809 0.78592 0.0
H1932 H 0.88665 0.6558 0.80652 0.0
H1933 H 0.87991 0.64572 0.75309 0.0
H1934 H 0.94126 0.56747 0.72093 0.0
H1935 H 0.96584 0.6156 0.7264 0.0
Li1936 Li 0.72105 0.3929 0.559 0.0
Li1937 Li 0.70716 0.41194 0.54541 0.0
Li1938 Li 0.72071 0.39228 0.52824 0.0
Li1939 Li 0.73558 0.41577 0.54836 0.0
C1940 C 0.69194 0.37623 0.54502 0.0
N1941 N 0.67027 0.35263 0.55328 0.0
C1942 C 0.68059 0.38004 0.55426 0.0
C1943 C 0.69223 0.36046 0.53986 0.0
C1944 C 0.66973 0.36792 0.55832 0.0
C1945 C 0.68118 0.34869 0.54422 0.0
C1946 C 0.72695 0.4272 0.57881 0.0
C1947 C 0.73645 0.45457 0.58928 0.0
N1948 N 0.73749 0.45082 0.60501 0.0
C1949 C 0.72798 0.42363 0.59507 0.0
C1950 C 0.73105 0.44281 0.57587 0.0
C1951 C 0.73337 0.43573 0.60815 0.0
C1952 C 0.73731 0.38609 0.58691 0.0
N1953 N 0.72339 0.38129 0.57759 0.0
C1954 C 0.71586 0.36274 0.59617 0.0
C1955 C 0.71269 0.36982 0.58195 0.0
C1956 C 0.73005 0.36773 0.60613 0.0
C1957 C 0.74085 0.37954 0.60131 0.0
H1958 H 0.7456 0.39526 0.58325 0.0
H1959 H 0.70165 0.36622 0.57461 0.0
C1960 C 0.68267 0.42635 0.53199 0.0
N1961 N 0.69068 0.42366 0.54614 0.0
C1962 C 0.67157 0.43582 0.5327 0.0
C1963 C 0.67706 0.43954 0.56251 0.0
C1964 C 0.688 0.42997 0.56123 0.0
C1965 C 0.66867 0.4427 0.54813 0.0
H1966 H 0.68511 0.42138 0.52011 0.0
H1967 H 0.69447 0.42769 0.57233 0.0
C1968 C 0.74796 0.38369 0.54745 0.0
N1969 N 0.76797 0.3633 0.5516 0.0
C1970 C 0.76369 0.38917 0.54842 0.0
C1971 C 0.74236 0.36782 0.54843 0.0
C1972 C 0.77363 0.37867 0.55051 0.0
C1973 C 0.75269 0.35771 0.55062 0.0
C1974 C 0.72326 0.42691 0.518 0.0
C1975 C 0.72898 0.42388 0.50304 0.0
C1976 C 0.72022 0.44182 0.5228 0.0
C1977 C 0.73172 0.43591 0.49315 0.0
C1978 C 0.7231 0.45354 0.51255 0.0
N1979 N 0.72876 0.45037 0.49807 0.0
C1980 C 0.71048 0.37269 0.4959 0.0
C1981 C 0.73712 0.38055 0.50399 0.0
C1982 C 0.71296 0.36514 0.48061 0.0
N1983 N 0.72252 0.38032 0.50719 0.0
C1984 C 0.7401 0.37313 0.489 0.0
C1985 C 0.72798 0.36543 0.47684 0.0
H1986 H 0.69894 0.37269 0.4986 0.0
H1987 H 0.74655 0.38677 0.513 0.0
C1988 C 0.76448 0.42981 0.56627 0.0
N1989 N 0.75478 0.4303 0.55241 0.0
C1990 C 0.77945 0.43853 0.56859 0.0
C1991 C 0.77387 0.44865 0.54278 0.0
C1992 C 0.75915 0.43969 0.5409 0.0
C1993 C 0.78441 0.4478 0.55649 0.0
H1994 H 0.76078 0.42212 0.57518 0.0
H1995 H 0.75149 0.43991 0.52994 0.0
O1996 O 0.70258 0.3879 0.54081 0.0
O1997 O 0.72183 0.41544 0.56587 0.0
O1998 O 0.73811 0.39389 0.54565 0.0
O1999 O 0.72083 0.41536 0.52797 0.0
H2000 H 0.68021 0.39221 0.55826 0.0
H2001 H 0.70093 0.35737 0.53265 0.0
H2002 H 0.66089 0.37066 0.56549 0.0
H2003 H 0.6813 0.33642 0.54041 0.0
H2004 H 0.73981 0.46669 0.58719 0.0
H2005 H 0.7245 0.41167 0.59761 0.0
H2006 H 0.73023 0.44577 0.56336 0.0
H2007 H 0.73424 0.43312 0.62079 0.0
H2008 H 0.70719 0.35373 0.59956 0.0
H2009 H 0.75197 0.38363 0.60858 0.0
H2010 H 0.66559 0.43804 0.52125 0.0
H2011 H 0.67514 0.44435 0.57468 0.0
H2012 H 0.76818 0.40138 0.54746 0.0
H2013 H 0.7302 0.36341 0.54767 0.0
H2014 H 0.78584 0.38275 0.55126 0.0
H2015 H 0.74855 0.34542 0.55155 0.0
H2016 H 0.73141 0.4124 0.49918 0.0
H2017 H 0.71582 0.44435 0.53437 0.0
H2018 H 0.73624 0.43377 0.48158 0.0
H2019 H 0.72088 0.46517 0.51612 0.0
H2020 H 0.70318 0.35952 0.47168 0.0
H2021 H 0.75188 0.37349 0.48699 0.0
H2022 H 0.7872 0.43747 0.57933 0.0
H2023 H 0.77707 0.45591 0.53331 0.0
Li2024 Li 0.64264 0.52795 0.31823 0.0
Li2025 Li 0.66409 0.54574 0.30447 0.0
Li2026 Li 0.64107 0.52588 0.28672 0.0
Li2027 Li 0.66188 0.51363 0.30208 0.0
C2028 C 0.63008 0.55315 0.30308 0.0
N2029 N 0.60697 0.57029 0.30299 0.0
C2030 C 0.63358 0.56948 0.30746 0.0
C2031 C 0.61486 0.54553 0.29859 0.0
C2032 C 0.62172 0.57793 0.30737 0.0
C2033 C 0.60333 0.55441 0.29862 0.0
C2034 C 0.67546 0.53315 0.33692 0.0
C2035 C 0.69862 0.52982 0.35287 0.0
N2036 N 0.69421 0.53686 0.3667 0.0
C2037 C 0.67116 0.54039 0.35125 0.0
C2038 C 0.68928 0.5278 0.33768 0.0
C2039 C 0.68079 0.54213 0.36621 0.0
C2040 C 0.62636 0.51482 0.34491 0.0
N2041 N 0.63037 0.52806 0.33759 0.0
C2042 C 0.61699 0.54216 0.35644 0.0
C2043 C 0.62584 0.54159 0.34325 0.0
C2044 C 0.6126 0.5287 0.36428 0.0
C2045 C 0.61757 0.5149 0.35824 0.0
H2046 H 0.6299 0.50408 0.34037 0.0
H2047 H 0.62913 0.55211 0.33758 0.0
C2048 C 0.67504 0.5745 0.28998 0.0
N2049 N 0.67637 0.56815 0.30448 0.0
C2050 C 0.68199 0.59026 0.28894 0.0
C2051 C 0.69192 0.59311 0.31772 0.0
C2052 C 0.68469 0.57727 0.31825 0.0
C2053 C 0.69061 0.60009 0.30292 0.0
H2054 H 0.66835 0.56738 0.27909 0.0
H2055 H 0.68558 0.5724 0.32985 0.0
C2056 C 0.62665 0.49641 0.29653 0.0
N2057 N 0.60205 0.47177 0.28734 0.0
C2058 C 0.62863 0.48229 0.28795 0.0
C2059 C 0.6122 0.49798 0.30054 0.0
C2060 C 0.61604 0.46997 0.2834 0.0
C2061 C 0.59989 0.4854 0.29573 0.0
C2062 C 0.67089 0.52674 0.27144 0.0
C2063 C 0.66343 0.51655 0.25741 0.0
C2064 C 0.68594 0.53455 0.27164 0.0
C2065 C 0.67122 0.51436 0.24374 0.0
C2066 C 0.69335 0.532 0.25774 0.0
N2067 N 0.68589 0.52205 0.24419 0.0
C2068 C 0.62896 0.53884 0.25908 0.0
C2069 C 0.61809 0.51182 0.25738 0.0
C2070 C 0.62066 0.53981 0.2438 0.0
N2071 N 0.62768 0.525 0.2656 0.0
C2072 C 0.60953 0.51228 0.242 0.0
C2073 C 0.61083 0.5264 0.23483 0.0
H2074 H 0.6366 0.5492 0.26573 0.0
H2075 H 0.61722 0.50085 0.26257 0.0
C2076 C 0.67363 0.48585 0.31372 0.0
N2077 N 0.67279 0.4945 0.30078 0.0
C2078 C 0.68018 0.47213 0.31274 0.0
C2079 C 0.68512 0.47609 0.2852 0.0
C2080 C 0.67843 0.48969 0.28666 0.0
C2081 C 0.68614 0.46686 0.29831 0.0
H2082 H 0.66907 0.48948 0.32489 0.0
H2083 H 0.67763 0.49625 0.27626 0.0
O2084 O 0.64152 0.54469 0.30329 0.0
O2085 O 0.666 0.53087 0.32228 0.0
O2086 O 0.6389 0.50846 0.30141 0.0
O2087 O 0.66351 0.52908 0.28495 0.0
H2088 H 0.64532 0.57552 0.31098 0.0
H2089 H 0.61199 0.53292 0.29504 0.0
H2090 H 0.62424 0.59057 0.31078 0.0
H2091 H 0.5915 0.54869 0.29516 0.0
H2092 H 0.70936 0.52574 0.35366 0.0
H2093 H 0.66047 0.54455 0.35085 0.0
H2094 H 0.69271 0.5221 0.32667 0.0
H2095 H 0.67759 0.54765 0.37743 0.0
H2096 H 0.61383 0.55322 0.3606 0.0
H2097 H 0.61448 0.5041 0.36355 0.0
H2098 H 0.68063 0.59463 0.2771 0.0
H2099 H 0.69817 0.59994 0.32901 0.0
H2100 H 0.63979 0.48087 0.28488 0.0
H2101 H 0.61053 0.50874 0.30739 0.0
H2102 H 0.61739 0.45897 0.27677 0.0
H2103 H 0.58863 0.48644 0.29873 0.0
H2104 H 0.65181 0.51033 0.25713 0.0
H2105 H 0.69183 0.54247 0.28244 0.0
H2106 H 0.66562 0.50651 0.23279 0.0
H2107 H 0.70502 0.53794 0.25772 0.0
H2108 H 0.62193 0.55107 0.23912 0.0
H2109 H 0.60226 0.50156 0.23562 0.0
H2110 H 0.68068 0.46579 0.32339 0.0
H2111 H 0.68917 0.4727 0.27363 0.0
Nd2112 Nd 0.03164 0.06359 0.04268 0.0
Nd2113 Nd 0.01155 0.02908 0.0341 0.0
C2114 C 0.04149 0.09347 0.05459 0.0
C2115 C 0.04076 0.1078 0.04656 0.0
C2116 C 0.03491 0.12018 0.05437 0.0
C2117 C 0.03274 0.13308 0.04615 0.0
C2118 C 0.03642 0.13385 0.02997 0.0
C2119 C 0.04228 0.12141 0.0222 0.0
C2120 C 0.04439 0.10854 0.03037 0.0
C2121 C 0.0335 0.05219 0.00981 0.0
C2122 C 0.99525 0.05853 0.02623 0.0
C2123 C 1.00172 0.99926 0.022 0.0
C2124 C 1.00294 0.98499 0.02994 0.0
C2125 C 1.00821 0.97251 0.02152 0.0
C2126 C 0.01116 0.95979 0.02963 0.0
C2127 C 0.00912 0.9595 0.04635 0.0
C2128 C 1.00375 0.97191 0.05473 0.0
C2129 C 1.00064 0.98452 0.0466 0.0
C2130 C 0.009 0.03993 0.06686 0.0
C2131 C 0.04824 0.03396 0.04922 0.0
O2132 O 0.02828 0.08554 0.05703 0.0
O2133 O 0.05055 0.08435 0.04917 0.0
O2134 O 0.03995 0.06614 0.01698 0.0
O2135 O 0.02584 0.04534 0.01997 0.0
O2136 O 1.00798 0.06814 0.03323 0.0
O2137 O 0.99401 0.04304 0.02361 0.0
O2138 O 0.01474 0.00735 0.01923 0.0
O2139 O 0.99271 0.00822 0.02783 0.0
O2140 O 1.00324 0.026 0.0592 0.0
O2141 O 0.01701 0.04749 0.0573 0.0
O2142 O 0.03538 0.02468 0.04214 0.0
O2143 O 0.04939 0.0494 0.05284 0.0
H2144 H 0.03179 0.11974 0.06674 0.0
H2145 H 0.02827 0.14249 0.05251 0.0
H2146 H 0.04493 0.12145 0.00962 0.0
H2147 H 0.04859 0.09903 0.02385 0.0
H2148 H 0.01038 0.97279 0.0088 0.0
H2149 H 0.01542 0.95038 0.02299 0.0
H2150 H 1.00199 0.97187 0.06761 0.0
H2151 H 0.99677 0.99404 0.0535 0.0
Nd2152 Nd 0.27335 0.81545 0.29753 0.0
Nd2153 Nd 0.27238 0.7797 0.28052 0.0
C2154 C 0.26733 0.8436 0.30522 0.0
C2155 C 0.27506 0.85912 0.30172 0.0
C2156 C 0.26674 0.86855 0.293 0.0
C2157 C 0.27423 0.88242 0.28795 0.0
C2158 C 0.2902 0.88712 0.29159 0.0
C2159 C 0.29847 0.8777 0.30044 0.0
C2160 C 0.29101 0.86386 0.30542 0.0
C2161 C 0.30299 0.80984 0.29618 0.0
C2162 C 0.27396 0.80768 0.25703 0.0
C2163 C 0.27888 0.75171 0.27329 0.0
C2164 C 0.27189 0.73615 0.2775 0.0
C2165 C 0.27919 0.72961 0.29039 0.0
C2166 C 0.27205 0.71563 0.29549 0.0
C2167 C 0.25761 0.70784 0.28758 0.0
C2168 C 0.25037 0.71421 0.27458 0.0
C2169 C 0.25739 0.72827 0.26963 0.0
C2170 C 0.24263 0.78536 0.28057 0.0
C2171 C 0.27151 0.78728 0.321 0.0
O2172 O 0.26021 0.83399 0.29218 0.0
O2173 O 0.27493 0.83659 0.3158 0.0
O2174 O 0.29994 0.82329 0.30177 0.0
O2175 O 0.29044 0.80063 0.29094 0.0
O2176 O 0.27168 0.81727 0.26978 0.0
O2177 O 0.27658 0.79331 0.25835 0.0
O2178 O 0.28632 0.76184 0.2858 0.0
O2179 O 0.27059 0.75815 0.26277 0.0
O2180 O 0.24605 0.77214 0.27476 0.0
O2181 O 0.25505 0.79456 0.28674 0.0
O2182 O 0.27312 0.77745 0.30812 0.0
O2183 O 0.26964 0.80192 0.31987 0.0
H2184 H 0.25446 0.86501 0.2898 0.0
H2185 H 0.26753 0.88947 0.28123 0.0
H2186 H 0.31081 0.88082 0.30317 0.0
H2187 H 0.29782 0.85669 0.31181 0.0
H2188 H 0.29034 0.73544 0.29671 0.0
H2189 H 0.27784 0.71081 0.30547 0.0
H2190 H 0.23917 0.70838 0.2684 0.0
H2191 H 0.25133 0.73303 0.25979 0.0
Nd2192 Nd 0.53867 0.05276 0.53524 0.0
Nd2193 Nd 0.5066 0.04148 0.5407 0.0
C2194 C 0.56213 0.05815 0.51884 0.0
C2195 C 0.57456 0.04938 0.51826 0.0
C2196 C 0.582 0.04806 0.50416 0.0
C2197 C 0.59293 0.03847 0.5033 0.0
C2198 C 0.59622 0.02995 0.51642 0.0
C2199 C 0.5886 0.03119 0.53039 0.0
C2200 C 0.57786 0.0408 0.53129 0.0
C2201 C 0.54097 0.04244 0.56597 0.0
C2202 C 0.52425 0.01479 0.52952 0.0
C2203 C 0.48018 0.03736 0.55224 0.0
C2204 C 0.46983 0.04824 0.55518 0.0
C2205 C 0.46171 0.0475 0.5688 0.0
C2206 C 0.45179 0.05785 0.57161 0.0
C2207 C 0.44984 0.06901 0.56077 0.0
C2208 C 0.45863 0.07021 0.54761 0.0
C2209 C 0.46862 0.05996 0.5449 0.0
C2210 C 0.50974 0.0483 0.509 0.0
C2211 C 0.52206 0.07931 0.55068 0.0
O2212 O 0.54879 0.05002 0.51195 0.0
O2213 O 0.56163 0.06617 0.53323 0.0
O2214 O 0.55243 0.04896 0.5592 0.0
O2215 O 0.52854 0.04209 0.55686 0.0
O2216 O 0.53429 0.02633 0.52561 0.0
O2217 O 0.51288 0.01742 0.5375 0.0
O2218 O 0.49324 0.04084 0.56185 0.0
O2219 O 0.48155 0.0332 0.53674 0.0
O2220 O 0.50133 0.03554 0.51228 0.0
O2221 O 0.51637 0.05669 0.52225 0.0
O2222 O 0.50989 0.06805 0.54976 0.0
O2223 O 0.53486 0.07674 0.54553 0.0
H2224 H 0.57929 0.05431 0.49383 0.0
H2225 H 0.59876 0.03764 0.49243 0.0
H2226 H 0.59118 0.02497 0.5408 0.0
H2227 H 0.57207 0.0414 0.54215 0.0
H2228 H 0.46287 0.03876 0.57708 0.0
H2229 H 0.44526 0.0568 0.58193 0.0
H2230 H 0.45723 0.07851 0.53889 0.0
H2231 H 0.47513 0.06097 0.53455 0.0
Nd2232 Nd 0.27968 0.29841 0.80225 0.0
Nd2233 Nd 0.26456 0.2948 0.77305 0.0
C2234 C 0.28937 0.29855 0.83387 0.0
C2235 C 0.28288 0.3023 0.84909 0.0
C2236 C 0.27987 0.2907 0.85956 0.0
C2237 C 0.27286 0.29375 0.8736 0.0
C2238 C 0.26867 0.30837 0.87714 0.0
C2239 C 0.27158 0.31994 0.86667 0.0
C2240 C 0.27865 0.31695 0.85272 0.0
C2241 C 0.28783 0.32648 0.7885 0.0
C2242 C 0.24387 0.30379 0.79989 0.0
C2243 C 0.25526 0.29364 0.74122 0.0
C2244 C 0.2636 0.29437 0.72695 0.0
C2245 C 0.27857 0.3032 0.72851 0.0
C2246 C 0.2875 0.30149 0.71577 0.0
C2247 C 0.28143 0.29106 0.70144 0.0
C2248 C 0.26636 0.28261 0.69971 0.0
C2249 C 0.25749 0.28424 0.71243 0.0
C2250 C 0.25611 0.26686 0.78685 0.0
C2251 C 0.30007 0.28976 0.77528 0.0
O2252 O 0.28195 0.28598 0.8243 0.0
O2253 O 0.29372 0.3102 0.82565 0.0
O2254 O 0.29734 0.31856 0.79501 0.0
O2255 O 0.27419 0.31896 0.78833 0.0
O2256 O 0.25572 0.30153 0.80976 0.0
O2257 O 0.24473 0.30328 0.78401 0.0
O2258 O 0.25732 0.3065 0.75164 0.0
O2259 O 0.25578 0.28115 0.74851 0.0
O2260 O 0.2468 0.27484 0.78011 0.0
O2261 O 0.26982 0.27429 0.78717 0.0
O2262 O 0.28928 0.29481 0.76631 0.0
O2263 O 0.298 0.28749 0.79046 0.0
H2264 H 0.28288 0.27927 0.85681 0.0
H2265 H 0.27076 0.28479 0.88172 0.0
H2266 H 0.26868 0.33141 0.8695 0.0
H2267 H 0.28072 0.32607 0.84479 0.0
H2268 H 0.28354 0.31092 0.7398 0.0
H2269 H 0.29917 0.30796 0.71724 0.0
H2270 H 0.26166 0.27431 0.68873 0.0
H2271 H 0.24612 0.27709 0.71123 0.0
Nd2272 Nd 0.01872 0.06395 0.54717 0.0
Nd2273 Nd 0.02683 0.03211 0.5311 0.0
C2274 C 1.00307 0.08513 0.55632 0.0
C2275 C 1.00179 0.09908 0.54823 0.0
C2276 C 0.98741 0.10281 0.544 0.0
C2277 C 0.9858 0.11404 0.53332 0.0
C2278 C 0.99853 0.12144 0.52663 0.0
C2279 C 0.01294 0.11793 0.53119 0.0
C2280 C 0.01456 0.10687 0.54188 0.0
C2281 C 0.04636 0.06982 0.53488 0.0
C2282 C 0.01254 0.05361 0.50617 0.0
C2283 C 0.03965 0.0081 0.52323 0.0
C2284 C 0.0424 0.99586 0.53326 0.0
C2285 C 0.05497 0.98864 0.53163 0.0
C2286 C 0.05767 0.97716 0.54157 0.0
C2287 C 0.04779 0.97288 0.55319 0.0
C2288 C 0.03563 0.98073 0.55531 0.0
C2289 C 0.033 0.9922 0.54545 0.0
C2290 C 0.9978 0.03079 0.5386 0.0
C2291 C 0.03495 0.04307 0.57234 0.0
O2292 O 0.99665 0.07184 0.54705 0.0
O2293 O 0.01668 0.08488 0.56399 0.0
O2294 O 0.04062 0.08093 0.54222 0.0
O2295 O 0.03738 0.05704 0.53452 0.0
O2296 O 1.00825 0.06102 0.51941 0.0
O2297 O 0.022 0.04361 0.50762 0.0
O2298 O 0.04758 0.02207 0.5291 0.0
O2299 O 0.02524 0.00809 0.51836 0.0
O2300 O 1.00096 0.02274 0.52556 0.0
O2301 O 0.00975 0.03829 0.54748 0.0
O2302 O 0.03558 0.03285 0.55922 0.0
O2303 O 0.02851 0.05554 0.57102 0.0
H2304 H 0.97739 0.09664 0.54848 0.0
H2305 H 0.9746 0.11669 0.53 0.0
H2306 H 0.02302 0.12379 0.52654 0.0
H2307 H 0.02576 0.10409 0.54474 0.0
H2308 H 0.06255 0.99175 0.52257 0.0
H2309 H 0.06717 0.97129 0.53986 0.0
H2310 H 0.02773 0.97748 0.56402 0.0
H2311 H 0.02346 0.99803 0.54715 0.0
Nd2312 Nd 0.28631 0.80727 0.7934 0.0
Nd2313 Nd 0.25942 0.78719 0.78318 0.0
C2314 C 0.31193 0.82758 0.7955 0.0
C2315 C 0.32657 0.82329 0.79303 0.0
C2316 C 0.32684 0.8104 0.78113 0.0
C2317 C 0.33851 0.80184 0.78284 0.0
C2318 C 0.34985 0.80613 0.79646 0.0
C2319 C 0.35041 0.81986 0.8074 0.0
C2320 C 0.33883 0.82847 0.80564 0.0
C2321 C 0.27141 0.80215 0.82072 0.0
C2322 C 0.28917 0.77031 0.79184 0.0
C2323 C 0.23354 0.76679 0.77896 0.0
C2324 C 0.21815 0.77006 0.77985 0.0
C2325 C 0.2143 0.77717 0.7947 0.0
C2326 C 0.20178 0.78467 0.79438 0.0
C2327 C 0.19322 0.78525 0.77922 0.0
C2328 C 0.19629 0.77709 0.76464 0.0
C2329 C 0.20857 0.76938 0.76498 0.0
C2330 C 0.275 0.79283 0.75641 0.0
C2331 C 0.25646 0.82398 0.78536 0.0
O2332 O 0.30165 0.82505 0.7824 0.0
O2333 O 0.30655 0.82243 0.80849 0.0
O2334 O 0.28572 0.80179 0.82011 0.0
O2335 O 0.26516 0.8044 0.80681 0.0
O2336 O 0.29721 0.78469 0.79234 0.0
O2337 O 0.27409 0.7685 0.79022 0.0
O2338 O 0.24288 0.76943 0.79284 0.0
O2339 O 0.23997 0.77229 0.76669 0.0
O2340 O 0.26089 0.79421 0.75693 0.0
O2341 O 0.28066 0.78978 0.7702 0.0
O2342 O 0.24859 0.80972 0.78586 0.0
O2343 O 0.27144 0.82568 0.78581 0.0
H2344 H 0.31736 0.80603 0.77141 0.0
H2345 H 0.3381 0.79134 0.77426 0.0
H2346 H 0.35934 0.82338 0.81786 0.0
H2347 H 0.33866 0.83818 0.81506 0.0
H2348 H 0.22146 0.77782 0.80638 0.0
H2349 H 0.19926 0.79066 0.80574 0.0
H2350 H 0.18948 0.77714 0.75287 0.0
H2351 H 0.21127 0.76397 0.7534 0.0
Nd2352 Nd 0.50682 0.04597 0.0314 0.0
Nd2353 Nd 0.54065 0.04784 0.04794 0.0
C2354 C 0.47818 0.04904 0.02442 0.0
C2355 C 0.46368 0.04134 0.02958 0.0
C2356 C 0.454 0.05046 0.0366 0.0
C2357 C 0.44025 0.04321 0.0415 0.0
C2358 C 0.43591 0.02669 0.03937 0.0
C2359 C 0.44581 0.01761 0.03267 0.0
C2360 C 0.45953 0.02483 0.02788 0.0
C2361 C 0.5153 0.01781 0.03483 0.0
C2362 C 0.51529 0.04846 0.07226 0.0
C2363 C 0.56938 0.04516 0.05499 0.0
C2364 C 0.58381 0.05248 0.04926 0.0
C2365 C 0.59037 0.04415 0.03717 0.0
C2366 C 0.60371 0.05129 0.0314 0.0
C2367 C 0.61076 0.06691 0.03761 0.0
C2368 C 0.60423 0.07517 0.04977 0.0
C2369 C 0.59096 0.06806 0.05553 0.0
C2370 C 0.53176 0.07586 0.04479 0.0
C2371 C 0.53237 0.04542 0.00709 0.0
O2372 O 0.48783 0.05857 0.03588 0.0
O2373 O 0.48488 0.04013 0.01485 0.0
O2374 O 0.50551 0.01982 0.02278 0.0
O2375 O 0.51901 0.02995 0.04517 0.0
O2376 O 0.50615 0.05109 0.05949 0.0
O2377 O 0.52858 0.04428 0.07072 0.0
O2378 O 0.55958 0.03501 0.04419 0.0
O2379 O 0.56277 0.05455 0.0641 0.0
O2380 O 0.54156 0.07393 0.05687 0.0
O2381 O 0.52842 0.06381 0.03432 0.0
O2382 O 0.54127 0.04252 0.01992 0.0
O2383 O 0.51913 0.04976 0.00866 0.0
H2384 H 0.45703 0.0632 0.03819 0.0
H2385 H 0.43286 0.05053 0.04657 0.0
H2386 H 0.44296 1.00486 0.03117 0.0
H2387 H 0.46687 0.01743 0.02281 0.0
H2388 H 0.58513 0.03215 0.03208 0.0
H2389 H 0.6084 0.04463 0.02196 0.0
H2390 H 0.60952 0.0871 0.05506 0.0
H2391 H 0.58632 0.07485 0.06491 0.0
Nd2392 Nd 0.25774 0.28654 0.2838 0.0
Nd2393 Nd 0.28993 0.31072 0.29604 0.0
C2394 C 0.23187 0.26958 0.26906 0.0
C2395 C 0.21702 0.27433 0.27008 0.0
C2396 C 0.21573 0.28994 0.26818 0.0
C2397 C 0.20386 0.29626 0.27406 0.0
C2398 C 0.19298 0.28706 0.28178 0.0
C2399 C 0.19351 0.27111 0.28252 0.0
C2400 C 0.20552 0.26479 0.27675 0.0
C2401 C 0.26815 0.29117 0.31711 0.0
C2402 C 0.25769 0.32349 0.29654 0.0
C2403 C 0.31636 0.32466 0.31282 0.0
C2404 C 0.3316 0.32108 0.3109 0.0
C2405 C 0.336 0.30782 0.31698 0.0
C2406 C 0.34843 0.30209 0.3116 0.0
C2407 C 0.35671 0.30956 0.30015 0.0
C2408 C 0.35306 0.32351 0.2951 0.0
C2409 C 0.34068 0.32927 0.30051 0.0
C2410 C 0.28027 0.31045 0.26297 0.0
C2411 C 0.29029 0.27379 0.28141 0.0
O2412 O 0.24134 0.27823 0.26101 0.0
O2413 O 0.23845 0.26657 0.28315 0.0
O2414 O 0.25381 0.28944 0.31115 0.0
O2415 O 0.276 0.29031 0.30539 0.0
O2416 O 0.25042 0.31047 0.28699 0.0
O2417 O 0.27213 0.32545 0.30341 0.0
O2418 O 0.3068 0.31401 0.31861 0.0
O2419 O 0.30987 0.33034 0.3003 0.0
O2420 O 0.29288 0.31933 0.27039 0.0
O2421 O 0.27421 0.30258 0.27312 0.0
O2422 O 0.29816 0.28793 0.28795 0.0
O2423 O 0.27511 0.27056 0.27813 0.0
H2424 H 0.22448 0.2977 0.26327 0.0
H2425 H 0.20358 0.30856 0.27328 0.0
H2426 H 0.18526 0.26386 0.28857 0.0
H2427 H 0.20644 0.25284 0.27863 0.0
H2428 H 0.32932 0.30128 0.3251 0.0
H2429 H 0.35115 0.29143 0.31583 0.0
H2430 H 0.35912 0.32943 0.2861 0.0
H2431 H 0.3376 0.33952 0.29563 0.0
Nd2432 Nd 0.51892 0.56467 0.047 0.0
Nd2433 Nd 0.52813 0.53322 0.03079 0.0
C2434 C 0.50263 0.5853 0.05599 0.0
C2435 C 0.5012 0.59925 0.04795 0.0
C2436 C 0.48681 0.60309 0.04409 0.0
C2437 C 0.48507 0.6144 0.03353 0.0
C2438 C 0.49768 0.62173 0.02658 0.0
C2439 C 0.51209 0.61808 0.03076 0.0
C2440 C 0.51384 0.60697 0.04135 0.0
C2441 C 0.5466 0.57119 0.03481 0.0
C2442 C 0.513 0.55433 0.00601 0.0
C2443 C 0.54195 0.50994 0.02315 0.0
C2444 C 0.54333 0.49713 0.03278 0.0
C2445 C 0.55466 0.48822 0.03075 0.0
C2446 C 0.55567 0.47597 0.0402 0.0
C2447 C 0.5455 0.47288 0.05179 0.0
C2448 C 0.53465 0.48227 0.05434 0.0
C2449 C 0.53356 0.49438 0.04486 0.0
C2450 C 0.49901 0.53076 0.03837 0.0
C2451 C 0.53546 0.54395 0.07215 0.0
O2452 O 0.49657 0.57201 0.04655 0.0
O2453 O 0.51623 0.58531 0.06385 0.0
O2454 O 0.54069 0.58212 0.04223 0.0
O2455 O 0.53774 0.55835 0.03436 0.0
O2456 O 0.50841 0.56138 0.01926 0.0
O2457 O 0.52294 0.5448 0.00741 0.0
O2458 O 0.5493 0.52366 0.03058 0.0
O2459 O 0.52798 0.5101 0.01663 0.0
O2460 O 0.50248 0.52245 0.0257 0.0
O2461 O 0.51079 0.53884 0.04705 0.0
O2462 O 0.53657 0.53398 0.05899 0.0
O2463 O 0.52866 0.55619 0.07085 0.0
H2464 H 0.47688 0.59697 0.04877 0.0
H2465 H 0.47388 0.61719 0.03051 0.0
H2466 H 0.52207 0.62387 0.02589 0.0
H2467 H 0.52503 0.60412 0.04395 0.0
H2468 H 0.56245 0.49053 0.02171 0.0
H2469 H 0.56398 0.46858 0.0381 0.0
H2470 H 0.52656 0.47975 0.06306 0.0
H2471 H 0.5249 0.50141 0.04672 0.0
Nd2472 Nd 0.78593 0.30715 0.29371 0.0
Nd2473 Nd 0.7592 0.28713 0.28301 0.0
C2474 C 0.81169 0.32737 0.29668 0.0
C2475 C 0.82629 0.32306 0.2941 0.0
C2476 C 0.82656 0.31043 0.28188 0.0
C2477 C 0.83832 0.30196 0.28318 0.0
C2478 C 0.84977 0.30607 0.29671 0.0
C2479 C 0.85024 0.31948 0.30808 0.0
C2480 C 0.83856 0.328 0.30675 0.0
C2481 C 0.77044 0.30171 0.32068 0.0
C2482 C 0.78875 0.2702 0.29195 0.0
C2483 C 0.73334 0.26682 0.2786 0.0
C2484 C 0.71833 0.27044 0.28074 0.0
C2485 C 0.71653 0.28033 0.29491 0.0
C2486 C 0.70439 0.28834 0.29462 0.0
C2487 C 0.69414 0.28661 0.28015 0.0
C2488 C 0.69522 0.27583 0.2665 0.0
C2489 C 0.7072 0.26769 0.26684 0.0
C2490 C 0.77529 0.29274 0.25655 0.0
C2491 C 0.75628 0.32393 0.28532 0.0
O2492 O 0.80151 0.32535 0.28352 0.0
O2493 O 0.80613 0.32177 0.30938 0.0
O2494 O 0.78481 0.30147 0.32032 0.0
O2495 O 0.76452 0.30418 0.30671 0.0
O2496 O 0.79675 0.28453 0.292 0.0
O2497 O 0.7737 0.26849 0.2907 0.0
O2498 O 0.74313 0.2685 0.29204 0.0
O2499 O 0.73929 0.27309 0.26644 0.0
O2500 O 0.76113 0.29401 0.25673 0.0
O2501 O 0.7807 0.28972 0.27044 0.0
O2502 O 0.74842 0.30969 0.2859 0.0
O2503 O 0.77126 0.32559 0.28574 0.0
H2504 H 0.81704 0.30621 0.27217 0.0
H2505 H 0.83796 0.29169 0.27429 0.0
H2506 H 0.85924 0.32283 0.3185 0.0
H2507 H 0.83838 0.33748 0.31642 0.0
H2508 H 0.72508 0.28282 0.30573 0.0
H2509 H 0.7035 0.29651 0.30527 0.0
H2510 H 0.68715 0.27427 0.2553 0.0
H2511 H 0.7085 0.26032 0.25574 0.0
Nd2512 Nd 1.00692 0.5453 0.53193 0.0
Nd2513 Nd 0.04066 0.54671 0.54839 0.0
C2514 C 0.97827 0.54833 0.52491 0.0
C2515 C 0.96363 0.54072 0.52999 0.0
C2516 C 0.95688 0.54853 0.5423 0.0
C2517 C 0.9431 0.5413 0.54712 0.0
C2518 C 0.93572 0.52614 0.53964 0.0
C2519 C 0.94262 0.51826 0.52754 0.0
C2520 C 0.95635 0.52545 0.52274 0.0
C2521 C 0.01517 0.51697 0.5352 0.0
C2522 C 0.01533 0.54778 0.57269 0.0
C2523 C 0.06921 0.54334 0.55498 0.0
C2524 C 0.08359 0.55134 0.54983 0.0
C2525 C 0.09271 0.54261 0.54123 0.0
C2526 C 0.10625 0.55021 0.53619 0.0
C2527 C 0.11094 0.56663 0.53982 0.0
C2528 C 0.10164 0.57536 0.5481 0.0
C2529 C 0.08809 0.56783 0.55298 0.0
C2530 C 0.03254 0.57504 0.54493 0.0
C2531 C 0.03221 0.54407 0.50753 0.0
O2532 O 0.98796 0.55793 0.53629 0.0
O2533 O 0.98497 0.53939 0.51537 0.0
O2534 O 1.00523 0.51907 0.52334 0.0
O2535 O 0.0189 0.52907 0.54558 0.0
O2536 O 1.00647 0.55088 0.55995 0.0
O2537 O 0.02842 0.54315 0.57109 0.0
O2538 O 0.0595 0.53409 0.54335 0.0
O2539 O 0.06257 0.55189 0.56498 0.0
O2540 O 0.04239 0.57308 0.55695 0.0
O2541 O 0.02877 0.56284 0.53468 0.0
O2542 O 0.04087 0.54081 0.52034 0.0
O2543 O 0.01927 0.54901 0.50919 0.0
H2544 H 0.96221 0.56029 0.54814 0.0
H2545 H 0.93802 0.54775 0.55638 0.0
H2546 H 0.93738 0.50647 0.52172 0.0
H2547 H 0.96122 0.519 0.51329 0.0
H2548 H 0.08939 0.52992 0.53849 0.0
H2549 H 0.11324 0.54321 0.52985 0.0
H2550 H 0.10488 0.58806 0.55083 0.0
H2551 H 0.08119 0.57497 0.55926 0.0
Nd2552 Nd 0.78015 0.79868 0.3033 0.0
Nd2553 Nd 0.76494 0.79484 0.27408 0.0
C2554 C 0.78992 0.79989 0.33504 0.0
C2555 C 0.78206 0.80186 0.34961 0.0
C2556 C 0.7673 0.79313 0.34993 0.0
C2557 C 0.75876 0.79719 0.3624 0.0
C2558 C 0.76488 0.81008 0.37441 0.0
C2559 C 0.77977 0.81844 0.37444 0.0
C2560 C 0.78835 0.81429 0.36214 0.0
C2561 C 0.7884 0.82645 0.28907 0.0
C2562 C 0.74427 0.80371 0.30099 0.0
C2563 C 0.75546 0.79366 0.24228 0.0
C2564 C 0.76371 0.79411 0.22793 0.0
C2565 C 0.77875 0.80272 0.22932 0.0
C2566 C 0.78752 0.80079 0.21647 0.0
C2567 C 0.78123 0.79034 0.20221 0.0
C2568 C 0.76609 0.78212 0.20065 0.0
C2569 C 0.75737 0.78397 0.21347 0.0
C2570 C 0.7563 0.76709 0.28813 0.0
C2571 C 0.8006 0.78979 0.27634 0.0
O2572 O 0.78538 0.7867 0.32515 0.0
O2573 O 0.79183 0.81211 0.3271 0.0
O2574 O 0.79786 0.81848 0.29556 0.0
O2575 O 0.77475 0.81905 0.28906 0.0
O2576 O 0.75587 0.80067 0.31067 0.0
O2577 O 0.74546 0.80398 0.28524 0.0
O2578 O 0.75786 0.80659 0.25265 0.0
O2579 O 0.75574 0.78117 0.24964 0.0
O2580 O 0.74707 0.77504 0.28122 0.0
O2581 O 0.77004 0.77445 0.2885 0.0
O2582 O 0.78953 0.79419 0.26711 0.0
O2583 O 0.79888 0.78828 0.29177 0.0
H2584 H 0.76209 0.78363 0.34021 0.0
H2585 H 0.74724 0.79072 0.36229 0.0
H2586 H 0.78457 0.82844 0.38374 0.0
H2587 H 0.79961 0.82127 0.36193 0.0
H2588 H 0.78389 0.81044 0.24055 0.0
H2589 H 0.79924 0.8071 0.2178 0.0
H2590 H 0.76121 0.77383 0.18972 0.0
H2591 H 0.74593 0.777 0.2124 0.0
Nd2592 Nd 0.77444 0.31351 0.79829 0.0
Nd2593 Nd 0.77215 0.28088 0.78153 0.0
C2594 C 0.77351 0.34356 0.80597 0.0
C2595 C 0.77988 0.35793 0.79903 0.0
C2596 C 0.77007 0.36604 0.79037 0.0
C2597 C 0.77601 0.37936 0.78331 0.0
C2598 C 0.79189 0.38483 0.78483 0.0
C2599 C 0.80169 0.37666 0.79345 0.0
C2600 C 0.79577 0.36336 0.80047 0.0
C2601 C 0.80207 0.3034 0.80063 0.0
C2602 C 0.77459 0.30793 0.75766 0.0
C2603 C 0.77818 0.25269 0.7738 0.0
C2604 C 0.77087 0.23695 0.77723 0.0
C2605 C 0.77839 0.22935 0.78899 0.0
C2606 C 0.77107 0.21517 0.79352 0.0
C2607 C 0.75619 0.20822 0.78615 0.0
C2608 C 0.74873 0.21568 0.77423 0.0
C2609 C 0.75596 0.22994 0.76986 0.0
C2610 C 0.74203 0.28493 0.78133 0.0
C2611 C 0.76977 0.28676 0.82143 0.0
O2612 O 0.76247 0.33365 0.79652 0.0
O2613 O 0.78329 0.3365 0.81369 0.0
O2614 O 0.7973 0.31151 0.81246 0.0
O2615 O 0.79244 0.30119 0.7876 0.0
O2616 O 0.77471 0.3178 0.77111 0.0
O2617 O 0.77486 0.29293 0.75835 0.0
O2618 O 0.78528 0.26236 0.78679 0.0
O2619 O 0.77035 0.25961 0.76335 0.0
O2620 O 0.74621 0.27213 0.77568 0.0
O2621 O 0.75376 0.29521 0.78744 0.0
O2622 O 0.77367 0.278 0.80909 0.0
O2623 O 0.76657 0.30071 0.81964 0.0
H2624 H 0.75779 0.36205 0.78899 0.0
H2625 H 0.76819 0.38536 0.77664 0.0
H2626 H 0.81396 0.38075 0.79509 0.0
H2627 H 0.80369 0.35738 0.80703 0.0
H2628 H 0.78986 0.23453 0.79491 0.0
H2629 H 0.77707 0.20956 0.80267 0.0
H2630 H 0.73718 0.21061 0.76851 0.0
H2631 H 0.74973 0.23555 0.76091 0.0
Nd2632 Nd 0.75972 0.7865 0.78118 0.0
Nd2633 Nd 0.78731 0.80969 0.79725 0.0
C2634 C 0.73251 0.77285 0.76592 0.0
C2635 C 0.71757 0.77676 0.76877 0.0
C2636 C 0.71336 0.79047 0.76365 0.0
C2637 C 0.70122 0.7962 0.76973 0.0
C2638 C 0.6931 0.78842 0.78115 0.0
C2639 C 0.69663 0.77412 0.78535 0.0
C2640 C 0.70864 0.76828 0.77909 0.0
C2641 C 0.76977 0.7819 0.81246 0.0
C2642 C 0.75619 0.82173 0.79944 0.0
C2643 C 0.81453 0.82375 0.81238 0.0
C2644 C 0.82939 0.81899 0.81142 0.0
C2645 C 0.83146 0.80406 0.81513 0.0
C2646 C 0.84344 0.79763 0.80958 0.0
C2647 C 0.85345 0.80599 0.80023 0.0
C2648 C 0.85232 0.8215 0.79793 0.0
C2649 C 0.84037 0.82799 0.80355 0.0
C2650 C 0.77694 0.81422 0.76605 0.0
C2651 C 0.79074 0.77432 0.7795 0.0
O2652 O 0.7418 0.78325 0.75953 0.0
O2653 O 0.73947 0.76728 0.77816 0.0
O2654 O 0.76506 0.77059 0.80038 0.0
O2655 O 0.7687 0.79518 0.80818 0.0
O2656 O 0.75008 0.80898 0.78886 0.0
O2657 O 0.77045 0.82408 0.80655 0.0
O2658 O 0.80457 0.81493 0.81969 0.0
O2659 O 0.80841 0.82756 0.79855 0.0
O2660 O 0.78148 0.82553 0.77816 0.0
O2661 O 0.77829 0.80099 0.7703 0.0
O2662 O 0.7963 0.78664 0.79084 0.0
O2663 O 0.77692 0.77264 0.77131 0.0
H2664 H 0.71993 0.79726 0.75563 0.0
H2665 H 0.69855 0.80703 0.76591 0.0
H2666 H 0.69074 0.76787 0.79423 0.0
H2667 H 0.71159 0.75766 0.78323 0.0
H2668 H 0.82321 0.79682 0.82119 0.0
H2669 H 0.84431 0.78573 0.81169 0.0
H2670 H 0.85994 0.82816 0.79071 0.0
H2671 H 0.83899 0.83951 0.80052 0.0
Nd2672 Nd 0.53227 0.56414 0.54268 0.0
Nd2673 Nd 0.51203 0.52953 0.53407 0.0
C2674 C 0.54216 0.59401 0.55451 0.0
C2675 C 0.54086 0.60841 0.54668 0.0
C2676 C 0.53054 0.61786 0.55161 0.0
C2677 C 0.5278 0.63034 0.54299 0.0
C2678 C 0.53537 0.63369 0.52927 0.0
C2679 C 0.54605 0.62453 0.52468 0.0
C2680 C 0.54873 0.61203 0.53323 0.0
C2681 C 0.53392 0.55267 0.50977 0.0
C2682 C 0.49584 0.55912 0.5263 0.0
C2683 C 0.50225 0.49973 0.52199 0.0
C2684 C 0.50357 0.48538 0.52985 0.0
C2685 C 0.51337 0.47556 0.52437 0.0
C2686 C 0.51635 0.46319 0.53303 0.0
C2687 C 0.50955 0.46035 0.54736 0.0
C2688 C 0.4994 0.46991 0.55254 0.0
C2689 C 0.49648 0.48229 0.54395 0.0
C2690 C 0.50947 0.54067 0.56676 0.0
C2691 C 0.54877 0.53441 0.54907 0.0
O2692 O 0.52928 0.58588 0.55766 0.0
O2693 O 0.55111 0.58503 0.54856 0.0
O2694 O 0.54041 0.56663 0.51689 0.0
O2695 O 0.5263 0.54587 0.52 0.0
O2696 O 0.50858 0.5687 0.53335 0.0
O2697 O 0.49459 0.54362 0.52359 0.0
O2698 O 0.51517 0.5079 0.51903 0.0
O2699 O 0.49321 0.50865 0.52784 0.0
O2700 O 0.50359 0.5267 0.55923 0.0
O2701 O 0.51757 0.54797 0.55711 0.0
O2702 O 0.53587 0.52514 0.5421 0.0
O2703 O 0.54999 0.54986 0.55273 0.0
H2704 H 0.52424 0.6153 0.56185 0.0
H2705 H 0.51942 0.63705 0.5468 0.0
H2706 H 0.55233 0.62697 0.5144 0.0
H2707 H 0.55675 0.60502 0.52903 0.0
H2708 H 0.51912 0.47776 0.51365 0.0
H2709 H 0.52432 0.45616 0.52877 0.0
H2710 H 0.49372 0.46788 0.56334 0.0
H2711 H 0.48894 0.48965 0.54862 0.0
Nd2712 Nd 0.03656 0.5534 0.03593 0.0
Nd2713 Nd 1.00695 0.54103 0.04228 0.0
C2714 C 0.06179 0.55908 0.02219 0.0
C2715 C 0.07314 0.54928 0.01991 0.0
C2716 C 0.08467 0.55343 0.01013 0.0
C2717 C 0.09607 0.54452 0.009 0.0
C2718 C 0.09586 0.53134 0.0175 0.0
C2719 C 0.08381 0.52672 0.02655 0.0
C2720 C 0.07253 0.5357 0.0278 0.0
C2721 C 0.037 0.54594 0.06792 0.0
C2722 C 0.02359 0.51514 0.02789 0.0
C2723 C 0.98092 0.53607 0.05458 0.0
C2724 C 0.97018 0.54668 0.05679 0.0
C2725 C 0.96193 0.5464 0.07032 0.0
C2726 C 0.95187 0.55674 0.07251 0.0
C2727 C 0.94995 0.56746 0.06113 0.0
C2728 C 0.95879 0.56814 0.04799 0.0
C2729 C 0.96889 0.5579 0.04591 0.0
C2730 C 1.0073 0.5492 0.01054 0.0
C2731 C 0.02033 0.57894 0.05186 0.0
O2732 O 0.0484 0.55346 0.01363 0.0
O2733 O 0.061 0.56426 0.0376 0.0
O2734 O 0.0448 0.55864 0.06382 0.0
O2735 O 0.02935 0.53735 0.05524 0.0
O2736 O 0.03302 0.52738 0.02438 0.0
O2737 O 0.0128 0.51694 0.03706 0.0
O2738 O 0.9941 0.54056 0.06386 0.0
O2739 O 0.98218 0.53112 0.03925 0.0
O2740 O 1.00001 0.53595 0.01391 0.0
O2741 O 0.01424 0.55757 0.02362 0.0
O2742 O 0.0115 0.56645 0.05572 0.0
O2743 O 0.03016 0.57728 0.0414 0.0
H2744 H 0.08512 0.56379 1.00383 0.0
H2745 H 0.10538 0.54823 1.00204 0.0
H2746 H 0.08362 0.51675 0.03344 0.0
H2747 H 0.06363 0.53237 0.0354 0.0
H2748 H 0.96316 0.53808 0.07907 0.0
H2749 H 0.9453 0.5561 0.08282 0.0
H2750 H 0.9574 0.57606 0.03886 0.0
H2751 H 0.9755 0.55857 0.0356 0.0
C2752 C 0.01529 0.2434 0.95102 0.0
C2753 C 0.02718 0.24629 0.9412 0.0
C2754 C 0.01468 0.23137 0.96116 0.0
C2755 C 0.0291 0.19454 0.96537 0.0
H2756 H 0.01996 0.19994 0.01059 0.0
C2757 C 0.04523 0.15368 0.01134 0.0
C2758 C 0.03423 0.14749 0.02106 0.0
C2759 C 0.04294 0.16581 1.00212 0.0
C2760 C 0.02235 0.19823 0.99791 0.0
H2761 H 0.04771 0.23873 0.93441 0.0
H2762 H 0.0469 0.21829 0.9523 0.0
H2763 H 0.01847 0.22112 0.99333 0.0
H2764 H 0.0123 0.14956 0.02903 0.0
H2765 H 1.00838 0.17102 0.01294 0.0
H2766 H 0.03331 0.17189 0.96996 0.0
C2767 C 0.03789 0.22509 0.95202 0.0
C2768 C 0.02149 0.21032 0.98803 0.0
C2769 C 0.03848 0.23701 0.94191 0.0
C2770 C 0.02106 0.15413 0.02176 0.0
C2771 C 0.01879 0.16638 0.01254 0.0
C2772 C 0.03004 0.18257 0.97522 0.0
C2773 C 0.0259 0.22196 0.96162 0.0
C2774 C 0.02523 0.20874 0.97177 0.0
C2775 C 0.02961 0.17215 1.0024 0.0
C2776 C 0.02704 0.1844 0.9917 0.0
H2777 H 1.0065 0.25046 0.95094 0.0
H2778 H 1.00528 0.22925 0.9684 0.0
H2779 H 0.03162 0.19273 0.95276 0.0
H2780 H 0.05566 0.14911 0.01081 0.0
H2781 H 0.05164 0.17025 0.99472 0.0
C2782 C 0.10762 0.78242 0.22671 0.0
C2783 C 0.09888 0.79125 0.23591 0.0
C2784 C 0.1232 0.78299 0.23199 0.0
C2785 C 0.15756 0.8063 0.26045 0.0
H2786 H 0.1727 0.7675 0.25322 0.0
C2787 C 0.22053 0.79979 0.28565 0.0
C2788 C 0.22712 0.7891 0.27595 0.0
C2789 C 0.20511 0.80123 0.28133 0.0
C2790 C 0.16886 0.77858 0.25518 0.0
H2791 H 0.1003 0.80779 0.2581 0.0
H2792 H 0.12735 0.80882 0.26718 0.0
H2793 H 0.14604 0.76768 0.24456 0.0
H2794 H 0.22284 0.77242 0.25353 0.0
H2795 H 0.19683 0.77534 0.2458 0.0
H2796 H 0.18057 0.81716 0.27108 0.0
C2797 C 0.12213 0.8015 0.25574 0.0
C2798 C 0.15339 0.77866 0.25016 0.0
C2799 C 0.10649 0.8009 0.25048 0.0
C2800 C 0.21816 0.78057 0.26153 0.0
C2801 C 0.20303 0.78214 0.25713 0.0
C2802 C 0.17315 0.80624 0.26544 0.0
C2803 C 0.13076 0.79244 0.24668 0.0
C2804 C 0.14742 0.79253 0.25252 0.0
C2805 C 0.19598 0.79211 0.26714 0.0
C2806 C 0.17915 0.79239 0.2627 0.0
H2807 H 0.10251 0.77515 0.21521 0.0
H2808 H 0.12938 0.77608 0.22436 0.0
H2809 H 0.15355 0.81728 0.26246 0.0
H2810 H 0.22706 0.80655 0.29684 0.0
H2811 H 0.20022 0.80909 0.2894 0.0
C2812 C 0.52592 0.89739 0.43822 0.0
C2813 C 0.53652 0.88788 0.44229 0.0
C2814 C 0.52528 0.91084 0.44875 0.0
C2815 C 0.53603 0.92968 0.49206 0.0
H2816 H 0.52584 0.96598 0.47296 0.0
C2817 C 0.5385 0.99297 0.52602 0.0
C2818 C 0.52492 0.99866 0.52305 0.0
C2819 C 0.53985 0.97844 0.51785 0.0
C2820 C 0.5286 0.95586 0.47841 0.0
H2821 H 0.55505 0.88523 0.46046 0.0
H2822 H 0.55429 0.90919 0.47874 0.0
H2823 H 0.52978 0.94337 0.45488 0.0
H2824 H 0.50206 0.99392 0.50965 0.0
H2825 H 0.50466 0.96872 0.49476 0.0
H2826 H 0.5353 0.94269 0.51571 0.0
C2827 C 0.54624 0.90598 0.46751 0.0
C2828 C 0.53082 0.9429 0.4681 0.0
C2829 C 0.5468 0.89238 0.45696 0.0
C2830 C 0.51255 0.98955 0.51223 0.0
C2831 C 0.51405 0.97526 0.50371 0.0
C2832 C 0.53406 0.94283 0.50243 0.0
C2833 C 0.53539 0.9153 0.46354 0.0
C2834 C 0.5343 0.92953 0.47475 0.0
C2835 C 0.52781 0.96976 0.50626 0.0
C2836 C 0.5301 0.95588 0.49561 0.0
H2837 H 0.51799 0.89438 0.42688 0.0
H2838 H 0.51662 0.91757 0.44539 0.0
H2839 H 0.53853 0.91952 0.49758 0.0
H2840 H 0.54817 0.99995 0.53429 0.0
H2841 H 0.55057 0.9744 0.51989 0.0
C2842 C 0.42985 0.2764 0.74132 0.0
C2843 C 0.43529 0.28511 0.72891 0.0
C2844 C 0.41521 0.27663 0.74597 0.0
C2845 C 0.38264 0.29905 0.7421 0.0
H2846 H 0.36061 0.26292 0.75891 0.0
C2847 C 0.31891 0.29413 0.75443 0.0
C2848 C 0.31499 0.28824 0.76907 0.0
C2849 C 0.33331 0.29355 0.74925 0.0
C2850 C 0.36661 0.27319 0.75436 0.0
H2851 H 0.42894 0.30051 0.71137 0.0
H2852 H 0.40356 0.30067 0.71912 0.0
H2853 H 0.38568 0.26217 0.75041 0.0
H2854 H 0.32336 0.27696 0.78958 0.0
H2855 H 0.34822 0.27575 0.78047 0.0
H2856 H 0.36331 0.30988 0.74578 0.0
C2857 C 0.41074 0.29399 0.72573 0.0
C2858 C 0.38115 0.2728 0.74951 0.0
C2859 C 0.42543 0.29388 0.7212 0.0
C2860 C 0.32586 0.28155 0.77821 0.0
C2861 C 0.34016 0.28081 0.77293 0.0
C2862 C 0.36801 0.29934 0.74677 0.0
C2863 C 0.40531 0.28544 0.73828 0.0
C2864 C 0.38954 0.28576 0.74334 0.0
C2865 C 0.34421 0.2869 0.75842 0.0
C2866 C 0.35976 0.28645 0.75306 0.0
H2867 H 0.43705 0.26963 0.74775 0.0
H2868 H 0.41182 0.27006 0.75587 0.0
H2869 H 0.38862 0.30946 0.7378 0.0
H2870 H 0.31094 0.29945 0.74708 0.0
H2871 H 0.33586 0.29824 0.73794 0.0
C2872 C 0.01646 0.85282 0.6138 0.0
C2873 C 0.01249 0.83979 0.60152 0.0
C2874 C 0.02063 0.86778 0.60939 0.0
C2875 C 0.01854 0.89058 0.57462 0.0
H2876 H 0.05507 0.91733 0.59954 0.0
C2877 C 0.04917 0.9447 0.5512 0.0
C2878 C 0.04852 0.95869 0.56113 0.0
C2879 C 0.0463 0.93042 0.55741 0.0
C2880 C 0.04483 0.90995 0.59262 0.0
H2881 H 0.00935 0.83156 0.5753 0.0
H2882 H 0.01676 0.85795 0.56738 0.0
H2883 H 0.04578 0.89136 0.60749 0.0
H2884 H 0.04559 0.96904 0.58559 0.0
H2885 H 0.04072 0.94375 0.59659 0.0
H2886 H 0.01788 0.90903 0.55951 0.0
C2887 C 0.01649 0.85667 0.58035 0.0
C2888 C 0.03948 0.89522 0.59715 0.0
C2889 C 0.01231 0.84167 0.5848 0.0
C2890 C 0.04612 0.95835 0.57775 0.0
C2891 C 0.04339 0.94401 0.58402 0.0
C2892 C 0.02399 0.90521 0.57001 0.0
C2893 C 0.02091 0.86977 0.59266 0.0
C2894 C 0.02633 0.88544 0.58814 0.0
C2895 C 0.04291 0.93 0.57363 0.0
C2896 C 0.03719 0.91486 0.57893 0.0
H2897 H 0.01668 0.85134 0.62678 0.0
H2898 H 0.0238 0.87774 0.61905 0.0
H2899 H 1.00825 0.88333 0.56767 0.0
H2900 H 0.05076 0.94464 0.53828 0.0
H2901 H 0.04598 0.91963 0.54931 0.0
C2902 C 0.4694 0.82169 0.86636 0.0
C2903 C 0.46986 0.818 0.88259 0.0
C2904 C 0.45583 0.81747 0.8556 0.0
C2905 C 0.41962 0.78909 0.84903 0.0
H2906 H 0.40814 0.81647 0.81758 0.0
C2907 C 0.36092 0.7896 0.81507 0.0
C2908 C 0.36086 0.79613 0.80016 0.0
C2909 C 0.37439 0.78616 0.82254 0.0
C2910 C 0.41143 0.80851 0.82599 0.0
H2911 H 0.45669 0.80798 0.90083 0.0
H2912 H 0.43267 0.80093 0.88205 0.0
H2913 H 0.43075 0.82561 0.83768 0.0
H2914 H 0.3734 0.80162 0.77981 0.0
H2915 H 0.39708 0.79544 0.79282 0.0
H2916 H 0.39967 0.77232 0.83772 0.0
C2917 C 0.44287 0.80663 0.87751 0.0
C2918 C 0.42429 0.81382 0.8376 0.0
C2919 C 0.4565 0.81072 0.88823 0.0
C2920 C 0.3734 0.79667 0.79138 0.0
C2921 C 0.38688 0.79317 0.79883 0.0
C2922 C 0.40661 0.78382 0.83746 0.0
C2923 C 0.44253 0.80964 0.861 0.0
C2924 C 0.42853 0.80415 0.84918 0.0
C2925 C 0.38777 0.78936 0.8151 0.0
C2926 C 0.4025 0.79348 0.8258 0.0
H2927 H 0.47966 0.82719 0.8618 0.0
H2928 H 0.45591 0.81979 0.84288 0.0
H2929 H 0.42276 0.78136 0.85778 0.0
H2930 H 0.35116 0.78902 0.82185 0.0
H2931 H 0.37479 0.78314 0.83505 0.0
C2932 C 0.48517 0.19267 0.06265 0.0
C2933 C 0.47856 0.19404 0.07733 0.0
C2934 C 0.4853 0.17785 0.05454 0.0
C2935 C 0.47382 0.135 0.05431 0.0
H2936 H 0.51747 0.13663 0.05535 0.0
C2937 C 0.51867 0.09231 0.06262 0.0
C2938 C 0.52136 0.08671 0.04673 0.0
C2939 C 0.50869 0.10268 0.06446 0.0
C2940 C 0.50525 0.13611 0.0549 0.0
H2941 H 0.4654 0.18143 0.09408 0.0
H2942 H 0.46584 0.15546 0.08002 0.0
H2943 H 0.50796 0.161 0.05954 0.0
H2944 H 0.51524 0.08633 0.02035 0.0
H2945 H 0.49825 0.10533 0.02367 0.0
H2946 H 0.47147 0.1098 0.05016 0.0
C2947 C 0.4707 0.16575 0.07464 0.0
C2948 C 0.49979 0.14996 0.05706 0.0
C2949 C 0.47049 0.18059 0.0827 0.0
C2950 C 0.51341 0.09082 0.03269 0.0
C2951 C 0.50355 0.10134 0.03454 0.0
C2952 C 0.47935 0.12102 0.05201 0.0
C2953 C 0.47896 0.16433 0.06117 0.0
C2954 C 0.48405 0.14954 0.05679 0.0
C2955 C 0.50146 0.10752 0.05043 0.0
C2956 C 0.49508 0.12166 0.05242 0.0
H2957 H 0.49131 0.20298 0.05825 0.0
H2958 H 0.4916 0.17694 0.04403 0.0
H2959 H 0.46167 0.1345 0.05436 0.0
H2960 H 0.52438 0.08883 0.07358 0.0
H2961 H 0.50727 0.10761 0.07679 0.0
C2962 C 0.09697 0.32337 0.36229 0.0
C2963 C 0.1032 0.33143 0.37798 0.0
C2964 C 0.10626 0.32197 0.34997 0.0
C2965 C 0.14295 0.33471 0.33588 0.0
H2966 H 0.14017 0.28988 0.32338 0.0
C2967 C 0.18748 0.30818 0.30191 0.0
C2968 C 0.18211 0.29453 0.29051 0.0
C2969 C 0.17748 0.31465 0.31122 0.0
C2970 C 0.1409 0.30244 0.32643 0.0
H2971 H 0.12343 0.34561 0.39285 0.0
H2972 H 0.13994 0.34297 0.37109 0.0
H2973 H 0.12318 0.29886 0.34174 0.0
H2974 H 0.16219 0.27725 0.27931 0.0
H2975 H 0.14452 0.28878 0.29523 0.0
H2976 H 0.16073 0.33825 0.32045 0.0
C2977 C 0.12787 0.33783 0.3684 0.0
C2978 C 0.13122 0.30756 0.337 0.0
C2979 C 0.11851 0.33927 0.3808 0.0
C2980 C 0.16655 0.28772 0.28814 0.0
C2981 C 0.15651 0.29429 0.29729 0.0
C2982 C 0.1526 0.32957 0.32507 0.0
C2983 C 0.12189 0.32859 0.35319 0.0
C2984 C 0.13212 0.32369 0.34172 0.0
C2985 C 0.16194 0.30761 0.30918 0.0
C2986 C 0.1516 0.31336 0.32022 0.0
H2987 H 0.08507 0.31754 0.35982 0.0
H2988 H 0.10142 0.31498 0.3382 0.0
H2989 H 0.14382 0.34722 0.33951 0.0
H2990 H 0.19952 0.31349 0.30409 0.0
H2991 H 0.18205 0.32477 0.32045 0.0
C2992 C 0.95412 0.07752 0.19781 0.0
C2993 C 0.94176 0.06539 0.19946 0.0
C2994 C 0.96263 0.07655 0.18427 0.0
C2995 C 0.97177 0.0468 0.15205 0.0
H2996 H 0.98561 0.08206 0.12876 0.0
C2997 C 0.99185 0.03522 0.08856 0.0
C2998 C 1.00363 0.04555 0.08297 0.0
C2999 C 0.98577 0.03922 0.10309 0.0
C3000 C 0.98205 0.0721 0.13521 0.0
H3001 H 0.9286 0.04299 0.18704 0.0
H3002 H 0.94338 0.04122 0.16406 0.0
H3003 H 0.9722 0.086 0.15308 0.0
H3004 H 0.018 0.06873 0.0888 0.0
H3005 H 1.00757 0.07569 0.11485 0.0
H3006 H 0.98168 0.03291 0.1347 0.0
C3007 C 0.94674 0.05142 0.17341 0.0
C3008 C 0.97426 0.07436 0.14922 0.0
C3009 C 0.93819 0.05243 0.1868 0.0
C3010 C 0.00906 0.06035 0.09265 0.0
C3011 C 1.00296 0.06436 0.10758 0.0
C3012 C 0.97961 0.0446 0.13829 0.0
C3013 C 0.95922 0.06335 0.17189 0.0
C3014 C 0.96863 0.06162 0.15765 0.0
C3015 C 0.99127 0.0537 0.11317 0.0
C3016 C 0.98455 0.05704 0.12921 0.0
H3017 H 0.9575 0.08768 0.20718 0.0
H3018 H 0.97216 0.08598 0.18374 0.0
H3019 H 0.96815 0.03674 0.15835 0.0
H3020 H 0.98701 0.02382 0.08153 0.0
H3021 H 0.97648 0.03079 0.10629 0.0
C3022 C 0.3132 0.72528 0.44067 0.0
C3023 C 0.31664 0.73491 0.45599 0.0
C3024 C 0.30822 0.73137 0.42634 0.0
C3025 C 0.30696 0.76834 0.4082 0.0
H3026 H 0.2715 0.74338 0.37992 0.0
C3027 C 0.27786 0.79236 0.35212 0.0
C3028 C 0.27349 0.78171 0.33748 0.0
C3029 C 0.28227 0.78703 0.36716 0.0
C3030 C 0.28151 0.75047 0.38755 0.0
H3031 H 0.31781 0.75837 0.46847 0.0
H3032 H 0.30946 0.76919 0.44337 0.0
H3033 H 0.28203 0.73329 0.40434 0.0
H3034 H 0.26966 0.75699 0.32741 0.0
H3035 H 0.27738 0.74784 0.35331 0.0
H3036 H 0.30664 0.78541 0.39125 0.0
C3037 C 0.31064 0.75697 0.44235 0.0
C3038 C 0.28756 0.74465 0.40157 0.0
C3039 C 0.31543 0.75081 0.45671 0.0
C3040 C 0.27295 0.76557 0.33841 0.0
C3041 C 0.27733 0.76028 0.35336 0.0
C3042 C 0.30099 0.77413 0.39408 0.0
C3043 C 0.30668 0.74725 0.42705 0.0
C3044 C 0.30039 0.75347 0.41204 0.0
C3045 C 0.28235 0.77094 0.36791 0.0
C3046 C 0.28821 0.76523 0.3835 0.0
H3047 H 0.31384 0.71292 0.4399 0.0
H3048 H 0.30539 0.72361 0.41472 0.0
H3049 H 0.31693 0.77539 0.41594 0.0
H3050 H 0.27851 0.80487 0.35184 0.0
H3051 H 0.28584 0.79557 0.37815 0.0
C3052 C 0.56737 0.99792 0.70352 0.0
C3053 C 0.5817 0.00654 0.71124 0.0
C3054 C 0.5607 1.00141 0.68833 0.0
C3055 C 0.56278 0.03351 0.66145 0.0
H3056 H 0.54363 1.00041 0.62593 0.0
C3057 C 0.55636 0.04464 0.59362 0.0
C3058 C 0.54274 0.03811 0.58308 0.0
C3059 C 0.55881 0.04068 0.60963 0.0
C3060 C 0.54872 0.0098 0.63581 0.0
H3061 H 0.60038 0.02528 0.70835 0.0
H3062 H 0.58877 0.03143 0.68237 0.0
H3063 H 0.55237 0.99358 0.65317 0.0
H3064 H 0.52099 0.0221 0.58112 0.0
H3065 H 0.52545 0.01478 0.60929 0.0
H3066 H 0.55954 0.04969 0.64408 0.0
C3067 C 0.58249 0.02216 0.68816 0.0
C3068 C 0.55375 0.00589 0.65144 0.0
C3069 C 0.58917 0.01862 0.70319 0.0
C3070 C 0.53156 0.02739 0.58899 0.0
C3071 C 0.53416 0.02316 0.60506 0.0
C3072 C 0.55782 0.03739 0.64589 0.0
C3073 C 0.56813 0.01368 0.6805 0.0
C3074 C 0.56122 0.0177 0.66436 0.0
C3075 C 0.54782 0.02985 0.61561 0.0
C3076 C 0.55107 0.02559 0.63271 0.0
H3077 H 0.56113 0.98865 0.70933 0.0
H3078 H 0.5496 0.99468 0.68288 0.0
H3079 H 0.56808 0.04297 0.67117 0.0
H3080 H 0.56522 0.05293 0.58949 0.0
H3081 H 0.56954 0.04591 0.61725 0.0
C3082 C 0.25485 0.37486 0.00696 0.0
C3083 C 0.25758 0.39121 0.00683 0.0
C3084 C 0.25113 0.36478 0.99212 0.0
C3085 C 0.26197 0.36402 0.95197 0.0
H3086 H 0.23244 0.32475 0.94109 0.0
C3087 C 0.27248 0.31421 0.90754 0.0
C3088 C 0.26275 0.31241 0.89261 0.0
C3089 C 0.26867 0.32193 0.9218 0.0
C3090 C 0.24066 0.33572 0.94406 0.0
H3091 H 0.25785 0.41003 0.99154 0.0
H3092 H 0.2517 0.39229 0.96537 0.0
H3093 H 0.23024 0.34361 0.96498 0.0
H3094 H 0.24103 0.31587 0.88075 0.0
H3095 H 0.23409 0.3291 0.90607 0.0
H3096 H 0.27278 0.35592 0.93161 0.0
C3097 C 0.25223 0.38733 0.97694 0.0
C3098 C 0.23939 0.34645 0.95755 0.0
C3099 C 0.25572 0.39741 0.99181 0.0
C3100 C 0.24858 0.31714 0.89229 0.0
C3101 C 0.24463 0.32462 0.90665 0.0
C3102 C 0.26337 0.35323 0.93874 0.0
C3103 C 0.25035 0.37098 0.97702 0.0
C3104 C 0.25014 0.36059 0.96164 0.0
C3105 C 0.25499 0.32765 0.92123 0.0
C3106 C 0.25287 0.33896 0.93489 0.0
H3107 H 0.25619 0.36994 0.01851 0.0
H3108 H 0.24991 0.35221 0.99241 0.0
H3109 H 0.27052 0.37474 0.95509 0.0
H3110 H 0.28354 0.31079 0.90787 0.0
H3111 H 0.2768 0.3243 0.933 0.0
C3112 C 0.94369 0.07799 0.37422 0.0
C3113 C 0.9457 0.06863 0.35978 0.0
C3114 C 0.95173 0.07702 0.38971 0.0
C3115 C 0.97321 0.05047 0.41189 0.0
H3116 H 0.98595 0.08709 0.4451 0.0
C3117 C 0.00919 0.04755 0.47485 0.0
C3118 C 1.00604 0.05618 0.48921 0.0
C3119 C 1.00258 0.0495 0.45901 0.0
C3120 C 0.98235 0.07666 0.43608 0.0
H3121 H 0.95848 0.05138 0.35053 0.0
H3122 H 0.9725 0.04979 0.3773 0.0
H3123 H 0.97333 0.0898 0.41796 0.0
H3124 H 0.99344 0.07385 0.49786 0.0
H3125 H 0.98188 0.07713 0.47044 0.0
H3126 H 0.98215 0.03731 0.43002 0.0
C3127 C 0.96439 0.05762 0.37679 0.0
C3128 C 0.97506 0.07823 0.42041 0.0
C3129 C 0.95632 0.05856 0.36133 0.0
C3130 C 0.99621 0.06697 0.48718 0.0
C3131 C 0.98961 0.06894 0.47134 0.0
C3132 C 0.9805 0.0489 0.42755 0.0
C3133 C 0.96212 0.06669 0.39132 0.0
C3134 C 0.97029 0.06514 0.40803 0.0
C3135 C 0.99259 0.06017 0.45695 0.0
C3136 C 0.98514 0.06195 0.43999 0.0
H3137 H 0.93552 0.08576 0.37367 0.0
H3138 H 0.94944 0.08409 0.40052 0.0
H3139 H 0.96955 0.04001 0.40291 0.0
H3140 H 0.0167 0.03914 0.47582 0.0
H3141 H 1.00542 0.04267 0.44834 0.0
C3142 C 0.30144 0.74368 0.61729 0.0
C3143 C 0.31466 0.73714 0.61659 0.0
C3144 C 0.29805 0.75068 0.63233 0.0
C3145 C 0.31482 0.76657 0.67627 0.0
H3146 H 0.27219 0.76074 0.68305 0.0
C3147 C 0.29472 0.78293 0.74047 0.0
C3148 C 0.2811 0.78884 0.74056 0.0
C3149 C 0.29956 0.77757 0.72547 0.0
C3150 C 0.28415 0.7627 0.68135 0.0
H3151 H 0.3348 0.73315 0.63143 0.0
H3152 H 0.32882 0.74516 0.65768 0.0
H3153 H 0.27912 0.74962 0.65711 0.0
H3154 H 0.26222 0.79426 0.72484 0.0
H3155 H 0.27069 0.78517 0.6988 0.0
H3156 H 0.31978 0.77948 0.70073 0.0
C3157 C 0.32113 0.74509 0.64652 0.0
C3158 C 0.28817 0.7563 0.66636 0.0
C3159 C 0.32458 0.73815 0.63141 0.0
C3160 C 0.27272 0.78972 0.72526 0.0
C3161 C 0.27754 0.78436 0.71029 0.0
C3162 C 0.31079 0.77294 0.69134 0.0
C3163 C 0.3077 0.75133 0.64727 0.0
C3164 C 0.30356 0.75817 0.66349 0.0
C3165 C 0.29089 0.77793 0.71013 0.0
C3166 C 0.29537 0.77118 0.69409 0.0
H3167 H 0.29367 0.74346 0.60614 0.0
H3168 H 0.28782 0.75567 0.63218 0.0
H3169 H 0.32678 0.76848 0.67458 0.0
H3170 H 0.30143 0.78198 0.75201 0.0
H3171 H 0.30984 0.77263 0.72595 0.0
C3172 C 0.56575 1.00462 0.86974 0.0
C3173 C 0.58056 1.00134 0.87047 0.0
C3174 C 0.55996 0.00936 0.88421 0.0
C3175 C 0.56689 0.01136 0.9301 0.0
H3176 H 0.54164 0.0432 0.92903 0.0
C3177 C 0.55307 0.04275 0.98975 0.0
C3178 C 0.53761 0.04328 0.99067 0.0
C3179 C 0.55798 0.03861 0.97463 0.0
C3180 C 0.54858 0.03423 0.92946 0.0
H3181 H 0.60096 1.00042 0.88678 0.0
H3182 H 0.59108 0.00908 0.91209 0.0
H3183 H 0.55088 0.03344 0.9037 0.0
H3184 H 0.5153 0.04068 0.97635 0.0
H3185 H 0.52395 0.03335 0.9497 0.0
H3186 H 0.56486 0.01243 0.95593 0.0
C3187 C 0.5837 0.00757 0.90042 0.0
C3188 C 0.55384 0.02856 0.91495 0.0
C3189 C 0.58939 1.00259 0.88594 0.0
C3190 C 0.52729 0.0404 0.97599 0.0
C3191 C 0.53223 0.0362 0.96077 0.0
C3192 C 0.56178 0.01714 0.9446 0.0
C3193 C 0.56895 0.01117 0.89973 0.0
C3194 C 0.5631 0.01706 0.91509 0.0
C3195 C 0.54756 0.03485 0.96006 0.0
C3196 C 0.55264 0.02868 0.94446 0.0
H3197 H 0.55873 1.00374 0.85792 0.0
H3198 H 0.54845 0.01168 0.88319 0.0
H3199 H 0.57369 1.00229 0.93068 0.0
H3200 H 0.56138 0.04515 1.0008 0.0
H3201 H 0.56992 0.03803 0.9744 0.0
C3202 C 0.28139 0.37928 0.14689 0.0
C3203 C 0.27576 0.39314 0.15035 0.0
C3204 C 0.27849 0.36711 0.15649 0.0
C3205 C 0.25426 0.35182 0.18712 0.0
H3206 H 0.28954 0.3342 0.20127 0.0
C3207 C 0.26304 0.32369 0.24663 0.0
C3208 C 0.27274 0.31275 0.24706 0.0
C3209 C 0.25945 0.32975 0.23196 0.0
C3210 C 0.27942 0.33863 0.19712 0.0
H3211 H 0.26257 0.40521 0.1663 0.0
H3212 H 0.25783 0.38404 0.18347 0.0
H3213 H 0.29157 0.35289 0.18148 0.0
H3214 H 0.28511 0.29825 0.23274 0.0
H3215 H 0.27831 0.30832 0.20674 0.0
H3216 H 0.24234 0.33793 0.20344 0.0
C3217 C 0.26419 0.38244 0.17312 0.0
C3218 C 0.28062 0.34943 0.1858 0.0
C3219 C 0.26699 0.39458 0.16342 0.0
C3220 C 0.27758 0.3067 0.23249 0.0
C3221 C 0.27378 0.31254 0.21774 0.0
C3222 C 0.25305 0.34096 0.19851 0.0
C3223 C 0.27002 0.36864 0.16982 0.0
C3224 C 0.26814 0.35629 0.18085 0.0
C3225 C 0.26551 0.32484 0.21759 0.0
C3226 C 0.26571 0.33442 0.20376 0.0
H3227 H 0.28789 0.37779 0.13664 0.0
H3228 H 0.28291 0.3565 0.1535 0.0
H3229 H 0.24441 0.35684 0.18338 0.0
H3230 H 0.25937 0.32855 0.25793 0.0
H3231 H 0.25315 0.33927 0.23229 0.0
C3232 C 0.16026 0.96769 0.06023 0.0
C3233 C 0.15731 0.9536 0.04917 0.0
C3234 C 0.14942 0.97749 0.06095 0.0
C3235 C 0.11427 0.98521 0.03659 0.0
H3236 H 0.10891 0.00831 0.07808 0.0
C3237 C 0.06047 0.01054 0.04406 0.0
C3238 C 0.06185 0.02625 0.0514 0.0
C3239 C 0.07302 1.00312 0.04445 0.0
C3240 C 0.11042 1.0021 0.06637 0.0
H3241 H 0.14032 0.93863 0.03059 0.0
H3242 H 0.12139 0.9554 0.03203 0.0
H3243 H 0.12861 0.99214 0.07754 0.0
H3244 H 0.07779 0.04627 0.06527 0.0
H3245 H 0.09992 0.03293 0.06632 0.0
H3246 H 0.09577 0.99475 0.02555 0.0
C3247 C 0.13226 0.95921 0.03984 0.0
C3248 C 0.12173 0.9928 0.06602 0.0
C3249 C 0.14313 0.9495 0.03903 0.0
C3250 C 0.07626 0.03418 0.05954 0.0
C3251 C 0.08892 0.02655 0.06014 0.0
C3252 C 0.10293 0.99434 0.03699 0.0
C3253 C 0.13526 0.97346 0.0507 0.0
C3254 C 0.12369 0.98401 0.05114 0.0
C3255 C 0.08744 0.01099 0.05231 0.0
C3256 C 0.10068 1.00273 0.0519 0.0
H3257 H 0.1711 0.97134 0.06812 0.0
H3258 H 0.15231 0.98839 0.06933 0.0
H3259 H 0.11562 0.97907 0.02479 0.0
H3260 H 0.04969 1.0039 0.03758 0.0
H3261 H 0.07139 0.99109 0.0385 0.0
C3262 C 0.67282 0.61123 0.99799 0.0
C3263 C 0.68352 0.60146 0.99987 0.0
C3264 C 0.65794 0.60622 1.00111 0.0
C3265 C 0.62868 0.57258 0.00472 0.0
H3266 H 0.61402 0.60337 0.03357 0.0
C3267 C 0.56976 0.5608 0.02868 0.0
C3268 C 0.56187 0.57332 0.02959 0.0
C3269 C 0.58465 0.56301 0.02469 0.0
C3270 C 0.61786 0.59472 0.02534 0.0
H3271 H 0.68741 0.57881 0.00597 0.0
H3272 H 0.66101 0.56986 0.0115 0.0
H3273 H 0.64008 0.60903 0.02711 0.0
H3274 H 0.56299 0.59788 0.02665 0.0
H3275 H 0.5889 0.60179 0.01921 0.0
H3276 H 0.60627 0.55839 1.0027 0.0
C3277 C 0.66415 0.58132 0.00749 0.0
C3278 C 0.63279 0.59793 0.02173 0.0
C3279 C 0.67914 0.58638 1.00436 0.0
C3280 C 0.56892 0.58807 0.02611 0.0
C3281 C 0.58375 0.59029 0.02196 0.0
C3282 C 0.61362 0.56939 0.00826 0.0
C3283 C 0.65357 0.59139 0.00626 0.0
C3284 C 0.63821 0.58706 0.01112 0.0
C3285 C 0.59187 0.57785 0.0215 0.0
C3286 C 0.60799 0.58061 0.01833 0.0
H3287 H 0.67611 0.62291 0.99454 0.0
H3288 H 0.6499 0.61407 0.99983 0.0
H3289 H 0.63268 0.56403 0.99653 0.0
H3290 H 0.56468 0.54949 0.03171 0.0
H3291 H 0.59065 0.55326 0.02467 0.0
C3292 C 0.68806 0.43884 0.30489 0.0
C3293 C 0.69324 0.452 0.29688 0.0
C3294 C 0.69453 0.42508 0.30341 0.0
C3295 C 0.72245 0.40531 0.27943 0.0
H3296 H 0.7173 0.37611 0.31174 0.0
C3297 C 0.75634 0.353 0.28238 0.0
C3298 C 0.74863 0.33827 0.28571 0.0
C3299 C 0.74949 0.3665 0.28339 0.0
C3300 C 0.71882 0.38402 0.30246 0.0
H3301 H 0.71 0.46044 0.28115 0.0
H3302 H 0.7214 0.43719 0.27895 0.0
H3303 H 0.70626 0.39968 0.31446 0.0
H3304 H 0.72735 0.32669 0.29291 0.0
H3305 H 0.71563 0.35011 0.29499 0.0
H3306 H 0.73553 0.38972 0.26786 0.0
C3307 C 0.71193 0.43705 0.28608 0.0
C3308 C 0.71232 0.39775 0.30396 0.0
C3309 C 0.70532 0.4507 0.28739 0.0
C3310 C 0.73376 0.33766 0.29015 0.0
C3311 C 0.72702 0.35125 0.29147 0.0
C3312 C 0.72918 0.39173 0.27813 0.0
C3313 C 0.70672 0.42376 0.29399 0.0
C3314 C 0.71388 0.40882 0.29245 0.0
C3315 C 0.73472 0.366 0.28811 0.0
C3316 C 0.72748 0.38071 0.28957 0.0
H3317 H 0.67868 0.43895 0.31214 0.0
H3318 H 0.68965 0.41538 0.30957 0.0
H3319 H 0.7239 0.41291 0.2699 0.0
H3320 H 0.76778 0.35415 0.27899 0.0
H3321 H 0.75599 0.3775 0.2808 0.0
C3322 C 0.80905 0.46378 0.57245 0.0
C3323 C 0.80062 0.45591 0.55744 0.0
C3324 C 0.82402 0.47212 0.57277 0.0
C3325 C 0.84826 0.49207 0.54519 0.0
H3326 H 0.88305 0.48785 0.57575 0.0
C3327 C 0.90911 0.51083 0.53099 0.0
C3328 C 0.92051 0.51882 0.54373 0.0
C3329 C 0.89471 0.50411 0.5345 0.0
C3330 C 0.8734 0.48934 0.5673 0.0
H3331 H 0.80175 0.44966 0.53129 0.0
H3332 H 0.82753 0.4643 0.53182 0.0
H3333 H 0.85732 0.47412 0.57887 0.0
H3334 H 0.92573 0.52578 0.57027 0.0
H3335 H 0.90032 0.5141 0.57641 0.0
H3336 H 0.86412 0.50708 0.53348 0.0
C3337 C 0.8225 0.46437 0.54326 0.0
C3338 C 0.8587 0.48147 0.56909 0.0
C3339 C 0.80769 0.45602 0.54296 0.0
C3340 C 0.91715 0.51983 0.56015 0.0
C3341 C 0.90266 0.51302 0.56369 0.0
C3342 C 0.86284 0.49993 0.54345 0.0
C3343 C 0.83073 0.47276 0.55807 0.0
C3344 C 0.84607 0.48243 0.55773 0.0
C3345 C 0.89124 0.50523 0.55085 0.0
C3346 C 0.87564 0.4983 0.55416 0.0
H3347 H 0.80394 0.46389 0.58383 0.0
H3348 H 0.83015 0.47846 0.58437 0.0
H3349 H 0.83868 0.49332 0.53649 0.0
H3350 H 0.91123 0.50997 0.51819 0.0
H3351 H 0.88627 0.49797 0.52433 0.0
C3352 C 0.35768 0.16127 0.26848 0.0
C3353 C 0.37161 0.16444 0.27912 0.0
C3354 C 0.34815 0.17241 0.26801 0.0
C3355 C 0.3415 0.20888 0.2925 0.0
H3356 H 0.31766 0.21381 0.25162 0.0
C3357 C 0.31446 0.26326 0.28591 0.0
C3358 C 0.29898 0.26081 0.27911 0.0
C3359 C 0.3225 0.25092 0.28522 0.0
C3360 C 0.32415 0.21246 0.26315 0.0
H3361 H 0.38664 0.18208 0.29715 0.0
H3362 H 0.37036 0.20158 0.29607 0.0
H3363 H 0.33345 0.19361 0.25171 0.0
H3364 H 0.28 0.24337 0.26577 0.0
H3365 H 0.29427 0.22178 0.26426 0.0
H3366 H 0.33255 0.22803 0.30379 0.0
C3367 C 0.36645 0.19031 0.28846 0.0
C3368 C 0.33319 0.20084 0.26324 0.0
C3369 C 0.37587 0.17912 0.28905 0.0
C3370 C 0.2919 0.2457 0.27113 0.0
C3371 C 0.30006 0.23334 0.27023 0.0
C3372 C 0.33265 0.22057 0.29234 0.0
C3373 C 0.35236 0.18709 0.27807 0.0
C3374 C 0.34216 0.199 0.2779 0.0
C3375 C 0.31539 0.23578 0.27753 0.0
C3376 C 0.32401 0.22263 0.27765 0.0
H3377 H 0.35397 0.15002 0.26077 0.0
H3378 H 0.33735 0.16936 0.25999 0.0
H3379 H 0.34781 0.20761 0.30415 0.0
H3380 H 0.32036 0.27467 0.2922 0.0
H3381 H 0.33433 0.25322 0.29078 0.0
C3382 C 0.34283 0.12209 0.5057 0.0
C3383 C 0.33003 0.10979 0.50152 0.0
C3384 C 0.35654 0.11922 0.51332 0.0
C3385 C 0.37686 0.08702 0.52129 0.0
H3386 H 0.39906 0.11652 0.55872 0.0
C3387 C 0.42249 0.06904 0.56294 0.0
C3388 C 0.43702 0.07748 0.56134 0.0
C3389 C 0.40955 0.07521 0.55878 0.0
C3390 C 0.3929 0.10826 0.54829 0.0
H3391 H 0.32161 0.08484 0.50143 0.0
H3392 H 0.34539 0.07988 0.51511 0.0
H3393 H 0.37624 0.12252 0.54325 0.0
H3394 H 0.4496 0.09975 0.5562 0.0
H3395 H 0.42672 0.11052 0.54873 0.0
H3396 H 0.39323 0.07261 0.52655 0.0
C3397 C 0.34495 0.09168 0.5123 0.0
C3398 C 0.37999 0.1117 0.53936 0.0
C3399 C 0.33131 0.09452 0.50459 0.0
C3400 C 0.43849 0.09294 0.5573 0.0
C3401 C 0.42548 0.09914 0.55317 0.0
C3402 C 0.38955 0.08351 0.53031 0.0
C3403 C 0.35764 0.10403 0.51694 0.0
C3404 C 0.3718 0.10102 0.52587 0.0
C3405 C 0.41096 0.08991 0.55302 0.0
C3406 C 0.39754 0.09401 0.54394 0.0
H3407 H 0.34208 0.13405 0.50373 0.0
H3408 H 0.36621 0.12891 0.51658 0.0
H3409 H 0.371 0.07875 0.51073 0.0
H3410 H 0.42096 0.05707 0.56588 0.0
H3411 H 0.39838 0.06798 0.55879 0.0
C3412 C 0.71189 0.62486 0.31166 0.0
C3413 C 0.69792 0.61733 0.30202 0.0
C3414 C 0.71871 0.6407 0.31052 0.0
C3415 C 0.71529 0.6746 0.28436 0.0
H3416 H 0.74523 0.69911 0.31955 0.0
C3417 C 0.73544 0.74266 0.28544 0.0
C3418 C 0.75089 0.74992 0.29061 0.0
C3419 C 0.72978 0.72675 0.28709 0.0
C3420 C 0.73698 0.69248 0.30947 0.0
H3421 H 0.68014 0.62164 0.28394 0.0
H3422 H 0.69146 0.64875 0.28228 0.0
H3423 H 0.73384 0.67198 0.32209 0.0
H3424 H 0.77234 0.74547 0.30208 0.0
H3425 H 0.76242 0.71774 0.30525 0.0
H3426 H 0.71819 0.6953 0.272 0.0
C3427 C 0.6977 0.64242 0.29039 0.0
C3428 C 0.73035 0.67664 0.31089 0.0
C3429 C 0.69101 0.62656 0.2914 0.0
C3430 C 0.76042 0.74049 0.29785 0.0
C3431 C 0.75465 0.72449 0.29973 0.0
C3432 C 0.72174 0.69045 0.28308 0.0
C3433 C 0.71184 0.64998 0.2998 0.0
C3434 C 0.71924 0.6672 0.29837 0.0
C3435 C 0.73918 0.71719 0.29421 0.0
C3436 C 0.73271 0.69985 0.2956 0.0
H3437 H 0.71785 0.61841 0.31993 0.0
H3438 H 0.7296 0.64548 0.31795 0.0
H3439 H 0.70727 0.66815 0.27403 0.0
H3440 H 0.72755 0.7493 0.27991 0.0
H3441 H 0.7178 0.72199 0.2829 0.0
C3442 C 0.87061 0.5062 0.75781 0.0
C3443 C 0.86589 0.51967 0.76489 0.0
C3444 C 0.86128 0.49133 0.75691 0.0
C3445 C 0.83113 0.47153 0.77857 0.0
H3446 H 0.82678 0.43704 0.74313 0.0
C3447 C 0.7917 0.41289 0.78092 0.0
C3448 C 0.79828 0.3995 0.77832 0.0
C3449 C 0.79873 0.42726 0.77666 0.0
C3450 C 0.82795 0.44659 0.75312 0.0
H3451 H 0.84741 0.52844 0.77535 0.0
H3452 H 0.831 0.50265 0.77345 0.0
H3453 H 0.84148 0.46299 0.74028 0.0
H3454 H 0.81679 0.39038 0.7682 0.0
H3455 H 0.82921 0.41561 0.76094 0.0
H3456 H 0.81784 0.45525 0.79151 0.0
C3457 C 0.84204 0.50341 0.76907 0.0
C3458 C 0.83637 0.4614 0.75151 0.0
C3459 C 0.85138 0.51818 0.7701 0.0
C3460 C 0.81159 0.40058 0.77056 0.0
C3461 C 0.81861 0.41496 0.76625 0.0
C3462 C 0.82272 0.45683 0.78014 0.0
C3463 C 0.84708 0.48977 0.76298 0.0
C3464 C 0.838 0.47403 0.76423 0.0
C3465 C 0.81247 0.42853 0.76969 0.0
C3466 C 0.821 0.4442 0.76745 0.0
H3467 H 0.88179 0.50709 0.75376 0.0
H3468 H 0.8655 0.48104 0.75222 0.0
H3469 H 0.83252 0.48087 0.78881 0.0
H3470 H 0.7815 0.41246 0.78695 0.0
H3471 H 0.79364 0.4375 0.77925 0.0
C3472 C 0.03151 0.86129 0.13847 0.0
C3473 C 0.02013 0.84757 0.13501 0.0
C3474 C 0.03204 0.87298 0.128 0.0
C3475 C 0.01905 0.88086 0.08596 0.0
H3476 H 0.02243 0.92356 0.10723 0.0
C3477 C 1.00499 0.93086 0.04951 0.0
C3478 C 0.01259 0.94635 0.05517 0.0
C3479 C 1.0074 0.91859 0.05856 0.0
C3480 C 0.0218 0.9118 0.10101 0.0
H3481 H 1.00074 0.8351 0.1175 0.0
H3482 H 1.00161 0.85559 0.09927 0.0
H3483 H 0.02415 0.9025 0.12408 0.0
H3484 H 0.02922 0.96119 0.07416 0.0
H3485 H 0.03405 0.93974 0.08961 0.0
H3486 H 0.01684 0.89013 0.06287 0.0
C3487 C 0.01013 0.85727 0.11008 0.0
C3488 C 0.02272 0.89969 0.11073 0.0
C3489 C 0.00953 0.84562 0.12061 0.0
C3490 C 0.02309 0.94932 0.06968 0.0
C3491 C 0.02575 0.93703 0.07856 0.0
C3492 C 0.01832 0.89302 0.07621 0.0
C3493 C 0.02127 0.87117 0.11379 0.0
C3494 C 0.02118 0.88406 0.10333 0.0
C3495 C 0.0177 0.92152 0.07333 0.0
C3496 C 0.01949 0.90864 0.08361 0.0
H3497 H 0.03979 0.86321 0.14951 0.0
H3498 H 0.04084 0.8835 0.1311 0.0
H3499 H 0.01801 0.86894 0.07991 0.0
H3500 H 0.99677 0.92834 0.03838 0.0
H3501 H 1.0008 0.90691 0.05422 0.0
C3502 C 0.94154 0.31785 0.84054 0.0
C3503 C 0.94736 0.30391 0.84152 0.0
C3504 C 0.92595 0.31739 0.83542 0.0
C3505 C 0.8899 0.29043 0.8138 0.0
H3506 H 0.87058 0.32327 0.83282 0.0
C3507 C 0.82367 0.28828 0.80146 0.0
C3508 C 0.8186 0.30265 0.80128 0.0
C3509 C 0.83933 0.28802 0.8055 0.0
C3510 C 0.87575 0.31408 0.82712 0.0
H3511 H 0.94078 0.27842 0.83761 0.0
H3512 H 0.91373 0.27763 0.82923 0.0
H3513 H 0.89736 0.32362 0.84177 0.0
H3514 H 0.826 0.32795 0.80484 0.0
H3515 H 0.85315 0.32758 0.81109 0.0
H3516 H 0.86816 0.28084 0.79923 0.0
C3517 C 0.92129 0.28901 0.83216 0.0
C3518 C 0.89127 0.31428 0.83232 0.0
C3519 C 0.93691 0.28947 0.83723 0.0
C3520 C 0.82957 0.31668 0.8047 0.0
C3521 C 0.84516 0.31644 0.80856 0.0
C3522 C 0.87433 0.29021 0.80861 0.0
C3523 C 0.91549 0.30296 0.83114 0.0
C3524 C 0.8987 0.30252 0.8257 0.0
C3525 C 0.85034 0.30213 0.80947 0.0
C3526 C 0.86699 0.30211 0.81508 0.0
H3527 H 0.94899 0.32925 0.84395 0.0
H3528 H 0.92216 0.32845 0.83466 0.0
H3529 H 0.89508 0.28122 0.80817 0.0
H3530 H 0.81547 0.27728 0.79931 0.0
H3531 H 0.84269 0.27674 0.8062 0.0
C3532 C 0.52101 0.197 0.64269 0.0
C3533 C 0.5115 0.20746 0.6381 0.0
C3534 C 0.52222 0.18408 0.63161 0.0
C3535 C 0.50203 0.15652 0.59683 0.0
H3536 H 0.54227 0.14978 0.58854 0.0
C3537 C 0.5088 0.10202 0.5539 0.0
C3538 C 0.52143 0.09518 0.55821 0.0
C3539 C 0.50794 0.11684 0.56175 0.0
C3540 C 0.53094 0.1513 0.59087 0.0
H3541 H 0.4957 0.21236 0.61816 0.0
H3542 H 0.49743 0.18935 0.59901 0.0
H3543 H 0.5398 0.17317 0.60642 0.0
H3544 H 0.54297 0.09807 0.57398 0.0
H3545 H 0.54106 0.12334 0.58858 0.0
H3546 H 0.4931 0.13432 0.58221 0.0
C3547 C 0.50401 0.19136 0.61121 0.0
C3548 C 0.52956 0.16479 0.60101 0.0
C3549 C 0.50296 0.20445 0.62222 0.0
C3550 C 0.53322 0.1033 0.57037 0.0
C3551 C 0.53214 0.11785 0.57862 0.0
C3552 C 0.50341 0.14284 0.58698 0.0
C3553 C 0.51377 0.18118 0.61577 0.0
C3554 C 0.51511 0.16742 0.60419 0.0
C3555 C 0.51944 0.12483 0.57449 0.0
C3556 C 0.5179 0.13994 0.58399 0.0
H3557 H 0.52748 0.19871 0.65492 0.0
H3558 H 0.52962 0.17622 0.63549 0.0
H3559 H 0.49077 0.15827 0.59921 0.0
H3560 H 0.49965 0.09593 0.5444 0.0
H3561 H 0.49818 0.12194 0.55789 0.0
C3562 C 0.62288 0.81908 0.35815 0.0
C3563 C 0.60951 0.81038 0.34835 0.0
C3564 C 0.63752 0.81853 0.35358 0.0
C3565 C 0.65782 0.79576 0.32328 0.0
H3566 H 0.692 0.83001 0.33932 0.0
C3567 C 0.7157 0.80206 0.29601 0.0
C3568 C 0.72933 0.80519 0.30719 0.0
C3569 C 0.70149 0.80273 0.3015 0.0
C3570 C 0.68261 0.82028 0.3348 0.0
H3571 H 0.60143 0.79458 0.32558 0.0
H3572 H 0.6265 0.79407 0.31727 0.0
H3573 H 0.66684 0.83143 0.3473 0.0
H3574 H 0.73844 0.8117 0.33311 0.0
H3575 H 0.71362 0.81346 0.34264 0.0
H3576 H 0.67363 0.78504 0.31019 0.0
C3577 C 0.62595 0.80093 0.32893 0.0
C3578 C 0.66803 0.82101 0.33947 0.0
C3579 C 0.61135 0.80128 0.33367 0.0
C3580 C 0.72825 0.80925 0.3241 0.0
C3581 C 0.714 0.81029 0.32956 0.0
C3582 C 0.67229 0.79523 0.31834 0.0
C3583 C 0.63943 0.80943 0.33883 0.0
C3584 C 0.65524 0.80875 0.33384 0.0
C3585 C 0.70035 0.80688 0.31835 0.0
C3586 C 0.68496 0.80745 0.32402 0.0
H3587 H 0.62209 0.82609 0.36966 0.0
H3588 H 0.64732 0.82508 0.3619 0.0
H3589 H 0.64871 0.78577 0.31888 0.0
H3590 H 0.71596 0.79878 0.28292 0.0
H3591 H 0.69132 0.80012 0.29245 0.0
C3592 C 0.04103 0.24184 0.47411 0.0
C3593 C 0.03417 0.25405 0.48047 0.0
C3594 C 0.03662 0.22674 0.47811 0.0
C3595 C 1.00344 0.20227 0.49042 0.0
H3596 H 0.03125 0.17372 0.49837 0.0
C3597 C 0.99035 0.14628 0.52087 0.0
C3598 C 0.99731 0.13369 0.51583 0.0
C3599 C 0.9926 0.15985 0.5132 0.0
C3600 C 0.02333 0.18149 0.4958 0.0
H3601 H 0.01833 0.26067 0.49684 0.0
H3602 H 0.01086 0.23419 0.50427 0.0
H3603 H 0.04142 0.20065 0.4942 0.0
H3604 H 0.01043 0.12442 0.49769 0.0
H3605 H 0.01441 0.14829 0.48428 0.0
H3606 H 0.98539 0.18317 0.49255 0.0
C3607 C 0.01929 0.2362 0.49584 0.0
C3608 C 0.02916 0.1969 0.49356 0.0
C3609 C 0.02362 0.25128 0.49173 0.0
C3610 C 1.00519 0.13416 0.50194 0.0
C3611 C 1.00746 0.14774 0.49429 0.0
C3612 C 0.99761 0.18687 0.49275 0.0
C3613 C 0.02537 0.22372 0.48859 0.0
C3614 C 0.01927 0.20745 0.49104 0.0
C3615 C 1.00182 0.16093 0.50044 0.0
C3616 C 1.00754 0.17643 0.49561 0.0
H3617 H 0.04908 0.24376 0.46525 0.0
H3618 H 0.0414 0.21729 0.47227 0.0
H3619 H 0.99555 0.21011 0.48811 0.0
H3620 H 0.9843 0.14618 0.5316 0.0
H3621 H 0.98822 0.16994 0.51822 0.0
C3622 C 0.587 0.2685 0.19181 0.0
C3623 C 0.57335 0.2691 0.19845 0.0
C3624 C 0.60095 0.27416 0.20175 0.0
C3625 C 0.61706 0.30131 0.23982 0.0
H3626 H 0.65116 0.27963 0.23881 0.0
C3627 C 0.68319 0.30671 0.26676 0.0
C3628 C 0.6824 0.29616 0.27856 0.0
C3629 C 0.66979 0.31019 0.25912 0.0
C3630 C 0.64174 0.2859 0.23895 0.0
H3631 H 0.56315 0.27495 0.22047 0.0
H3632 H 0.58752 0.2842 0.23811 0.0
H3633 H 0.6278 0.2693 0.21978 0.0
H3634 H 0.66792 0.28303 0.29372 0.0
H3635 H 0.64439 0.28923 0.28041 0.0
H3636 H 0.63094 0.31733 0.25983 0.0
C3637 C 0.58755 0.27992 0.2252 0.0
C3638 C 0.62845 0.28003 0.2281 0.0
C3639 C 0.57367 0.27439 0.21525 0.0
C3640 C 0.66863 0.29129 0.28471 0.0
C3641 C 0.65525 0.29488 0.27715 0.0
C3642 C 0.63036 0.30708 0.25085 0.0
C3643 C 0.60129 0.28037 0.21839 0.0
C3644 C 0.61587 0.28747 0.22871 0.0
C3645 C 0.65572 0.30319 0.26342 0.0
C3646 C 0.64259 0.2992 0.25058 0.0
H3647 H 0.58686 0.26465 0.17876 0.0
H3648 H 0.6114 0.27436 0.19623 0.0
H3649 H 0.60758 0.30745 0.24023 0.0
H3650 H 0.69382 0.31051 0.26193 0.0
H3651 H 0.67026 0.31649 0.24843 0.0
C3652 C 0.564 0.90129 0.01423 0.0
C3653 C 0.56823 0.89932 0.99822 0.0
C3654 C 0.56428 0.91636 0.02212 0.0
C3655 C 0.55056 0.94623 0.00783 0.0
H3656 H 0.56846 0.97657 0.04629 0.0
C3657 C 0.52936 1.00271 0.01707 0.0
C3658 C 0.52532 0.00662 0.03277 0.0
C3659 C 0.53883 0.99194 0.01485 0.0
C3660 C 0.56339 0.96812 0.03556 0.0
H3661 H 0.57764 0.91149 0.97873 0.0
H3662 H 0.57816 0.93764 0.99261 0.0
H3663 H 0.57907 0.95259 0.0404 0.0
H3664 H 0.52864 1.00364 0.05872 0.0
H3665 H 0.54444 0.98361 0.05463 0.0
H3666 H 0.53452 0.96095 1.00313 0.0
C3667 C 0.57484 0.92759 0.99906 0.0
C3668 C 0.56945 0.95457 0.03223 0.0
C3669 C 0.57447 0.91259 0.99113 0.0
C3670 C 0.53144 1.00036 0.04645 0.0
C3671 C 0.54062 0.98917 0.04415 0.0
C3672 C 0.54446 0.95954 0.01119 0.0
C3673 C 0.5689 0.92945 0.01408 0.0
C3674 C 0.5631 0.94375 0.01824 0.0
C3675 C 0.54395 0.98454 0.02821 0.0
C3676 C 0.55092 0.9707 0.02494 0.0
H3677 H 0.55936 0.89121 0.02003 0.0
H3678 H 0.55943 0.91769 0.03362 0.0
H3679 H 0.54537 0.93774 0.99716 0.0
H3680 H 0.52517 0.00796 0.00649 0.0
H3681 H 0.54165 0.98891 1.00253 0.0
C3682 C 0.92608 0.75673 0.6968 0.0
C3683 C 0.94009 0.76736 0.69889 0.0
C3684 C 0.91647 0.75693 0.70904 0.0
C3685 C 0.91563 0.7717 0.75285 0.0
H3686 H 0.87386 0.77473 0.73774 0.0
C3687 C 0.87897 0.8049 0.79117 0.0
C3688 C 0.86362 0.79786 0.79103 0.0
C3689 C 0.88809 0.79777 0.78119 0.0
C3690 C 0.8854 0.77358 0.74213 0.0
H3691 H 0.95548 0.78599 0.7155 0.0
H3692 H 0.93858 0.78661 0.73675 0.0
H3693 H 0.89045 0.76793 0.71757 0.0
H3694 H 0.84566 0.77806 0.78036 0.0
H3695 H 0.86165 0.7656 0.76284 0.0
H3696 H 0.91076 0.77822 0.77736 0.0
C3697 C 0.93503 0.77804 0.72578 0.0
C3698 C 0.89487 0.76966 0.73061 0.0
C3699 C 0.94458 0.77787 0.71354 0.0
C3700 C 0.85757 0.78351 0.78093 0.0
C3701 C 0.86664 0.77647 0.77082 0.0
C3702 C 0.90619 0.77573 0.76435 0.0
C3703 C 0.92082 0.7677 0.72356 0.0
C3704 C 0.91019 0.76914 0.73585 0.0
C3705 C 0.88192 0.78363 0.77078 0.0
C3706 C 0.89115 0.77711 0.75902 0.0
H3707 H 0.92244 0.7485 0.68557 0.0
H3708 H 0.90558 0.7488 0.7071 0.0
H3709 H 0.92735 0.77112 0.75719 0.0
H3710 H 0.8838 0.81602 0.79878 0.0
H3711 H 0.89981 0.80361 0.78113 0.0
C3712 C 0.10525 0.02057 0.89223 0.0
C3713 C 0.10308 0.0292 0.87878 0.0
C3714 C 0.0967 0.02155 0.90571 0.0
C3715 C 0.07267 0.04735 0.92645 0.0
H3716 H 0.06106 0.01195 0.95029 0.0
C3717 C 0.03542 0.05374 0.97968 0.0
C3718 C 0.03728 0.04554 0.99339 0.0
C3719 C 0.0421 0.05029 0.96526 0.0
C3720 C 0.06429 0.02209 0.94399 0.0
H3721 H 0.0893 0.04511 0.86915 0.0
H3722 H 0.0746 0.04678 0.89231 0.0
H3723 H 0.07522 0.0089 0.92669 0.0
H3724 H 0.0479 0.02719 1.00259 0.0
H3725 H 0.0599 0.02135 0.97773 0.0
H3726 H 0.06222 0.06071 0.94379 0.0
C3727 C 0.08322 0.03952 0.89272 0.0
C3728 C 0.07249 0.0203 0.93028 0.0
C3729 C 0.09175 0.03855 0.87928 0.0
C3730 C 0.0458 0.03345 0.99209 0.0
C3731 C 0.0528 0.03017 0.97774 0.0
C3732 C 0.06461 0.04916 0.94016 0.0
C3733 C 0.0856 0.03119 0.90635 0.0
C3734 C 0.0768 0.0329 0.92116 0.0
C3735 C 0.05143 0.03883 0.96413 0.0
C3736 C 0.06012 0.03658 0.94924 0.0
H3737 H 0.11387 0.01332 0.8926 0.0
H3738 H 0.09911 0.01501 0.91588 0.0
H3739 H 0.07597 0.05753 0.92021 0.0
H3740 H 0.02913 0.06328 0.98029 0.0
H3741 H 0.04014 0.05698 0.95512 0.0
C3742 C 0.73146 0.34448 0.62156 0.0
C3743 C 0.73364 0.36088 0.62158 0.0
C3744 C 0.73568 0.33813 0.63598 0.0
C3745 C 0.74342 0.34753 0.68148 0.0
H3746 H 0.76767 0.31486 0.67902 0.0
C3747 C 0.77281 0.32984 0.74052 0.0
C3748 C 0.7724 0.31372 0.74134 0.0
C3749 C 0.76842 0.33516 0.72557 0.0
C3750 C 0.76075 0.32384 0.67992 0.0
H3751 H 0.74146 0.38346 0.63678 0.0
H3752 H 0.74865 0.37241 0.66198 0.0
H3753 H 0.7584 0.32461 0.6537 0.0
H3754 H 0.76755 0.2906 0.72683 0.0
H3755 H 0.7598 0.29988 0.70073 0.0
H3756 H 0.7456 0.34674 0.70761 0.0
C3757 C 0.74377 0.36444 0.65083 0.0
C3758 C 0.75543 0.32942 0.6654 0.0
C3759 C 0.73976 0.37078 0.63638 0.0
C3760 C 0.76812 0.30312 0.72665 0.0
C3761 C 0.76365 0.30844 0.71166 0.0
C3762 C 0.74864 0.3419 0.69597 0.0
C3763 C 0.74194 0.34805 0.65077 0.0
C3764 C 0.74685 0.34145 0.66604 0.0
C3765 C 0.76342 0.3245 0.71101 0.0
C3766 C 0.75755 0.33012 0.69542 0.0
H3767 H 0.72682 0.33659 0.61029 0.0
H3768 H 0.73402 0.32545 0.63559 0.0
H3769 H 0.73661 0.35662 0.68237 0.0
H3770 H 0.77612 0.33838 0.75156 0.0
H3771 H 0.76875 0.34765 0.72549 0.0
C3772 C 0.4725 0.0765 0.36763 0.0
C3773 C 0.46562 0.08976 0.36651 0.0
C3774 C 0.47871 0.07304 0.38297 0.0
C3775 C 0.47799 0.08268 0.42874 0.0
H3776 H 0.51111 0.05954 0.4319 0.0
C3777 C 0.50732 0.07018 0.49171 0.0
C3778 C 0.50759 0.0542 0.49268 0.0
C3779 C 0.50348 0.07534 0.4764 0.0
C3780 C 0.50184 0.066 0.43121 0.0
H3781 H 0.46035 0.10998 0.38104 0.0
H3782 H 0.47175 0.10444 0.40753 0.0
H3783 H 0.50236 0.06742 0.40536 0.0
H3784 H 0.50472 0.03125 0.47832 0.0
H3785 H 0.4987 0.04037 0.4515 0.0
H3786 H 0.47784 0.08154 0.45478 0.0
C3787 C 0.47197 0.09636 0.39659 0.0
C3788 C 0.4967 0.07045 0.41592 0.0
C3789 C 0.46561 0.09972 0.38125 0.0
C3790 C 0.50458 0.04363 0.47795 0.0
C3791 C 0.50117 0.04886 0.4626 0.0
C3792 C 0.48334 0.07849 0.44407 0.0
C3793 C 0.47845 0.08283 0.39778 0.0
C3794 C 0.48454 0.07872 0.41434 0.0
C3795 C 0.50024 0.06472 0.46166 0.0
C3796 C 0.49522 0.06995 0.44548 0.0
H3797 H 0.47305 0.06865 0.35661 0.0
H3798 H 0.48338 0.06242 0.38316 0.0
H3799 H 0.46842 0.08871 0.42818 0.0
H3800 H 0.50948 0.07859 0.50287 0.0
H3801 H 0.50293 0.08764 0.4761 0.0
C3802 C 0.79016 0.69986 0.0877 0.0
C3803 C 0.77957 0.70183 0.07451 0.0
C3804 C 0.79325 0.71061 0.10211 0.0
C3805 C 0.77677 0.74072 0.12489 0.0
H3806 H 0.81832 0.75654 0.14637 0.0
C3807 C 0.7868 0.79182 0.17372 0.0
C3808 C 0.79036 0.78687 0.1891 0.0
C3809 C 0.79012 0.78362 0.15948 0.0
C3810 C 0.80672 0.75219 0.14038 0.0
H3811 H 0.7641 0.71657 0.06579 0.0
H3812 H 0.76958 0.73542 0.09084 0.0
H3813 H 0.81351 0.73636 0.12198 0.0
H3814 H 0.80164 0.771 0.2023 0.0
H3815 H 0.80744 0.75649 0.17719 0.0
H3816 H 0.76996 0.75656 0.14305 0.0
C3817 C 0.77526 0.72543 0.09024 0.0
C3818 C 0.80393 0.74062 0.1266 0.0
C3819 C 0.77212 0.71466 0.07592 0.0
C3820 C 0.79901 0.77503 0.19045 0.0
C3821 C 0.80229 0.76676 0.17615 0.0
C3822 C 0.77956 0.75234 0.13843 0.0
C3823 C 0.78583 0.7235 0.10348 0.0
C3824 C 0.78893 0.73496 0.11863 0.0
C3825 C 0.79687 0.77035 0.16058 0.0
C3826 C 0.79455 0.75833 0.14609 0.0
H3827 H 0.79593 0.68993 0.08691 0.0
H3828 H 0.8013 0.70875 0.11223 0.0
H3829 H 0.76506 0.73625 0.11931 0.0
H3830 H 0.77999 0.80085 0.17255 0.0
H3831 H 0.78591 0.78655 0.14752 0.0
C3832 C 0.08735 0.01888 0.71319 0.0
C3833 C 0.10252 0.02704 0.71818 0.0
C3834 C 0.07947 0.02009 0.69765 0.0
C3835 C 0.08083 0.04553 0.66329 0.0
H3836 H 0.05193 0.01022 0.63817 0.0
C3837 C 0.04414 0.05271 0.60262 0.0
C3838 C 0.04167 0.04054 0.58923 0.0
C3839 C 0.05083 0.05069 0.61837 0.0
C3840 C 0.06004 0.0202 0.64493 0.0
H3841 H 0.12132 0.04234 0.71002 0.0
H3842 H 0.1078 0.04434 0.68323 0.0
H3843 H 0.06503 0.00728 0.6651 0.0
H3844 H 0.0441 0.01646 0.5823 0.0
H3845 H 0.05573 0.0129 0.60974 0.0
H3846 H 0.07617 0.05835 0.64305 0.0
C3847 C 0.10174 0.03734 0.69146 0.0
C3848 C 0.06746 0.01856 0.66056 0.0
C3849 C 0.10957 0.03617 0.70695 0.0
C3850 C 0.04587 0.02615 0.59222 0.0
C3851 C 0.05246 0.02407 0.60806 0.0
C3852 C 0.07343 0.04716 0.64773 0.0
C3853 C 0.0865 0.02946 0.68653 0.0
C3854 C 0.0781 0.03118 0.66998 0.0
C3855 C 0.05522 0.03638 0.62139 0.0
C3856 C 0.06294 0.03453 0.63821 0.0
H3857 H 0.08141 0.01182 0.72145 0.0
H3858 H 0.06773 0.01392 0.69452 0.0
H3859 H 0.08868 0.05566 0.67013 0.0
H3860 H 0.04108 0.06397 0.60092 0.0
H3861 H 0.05247 0.0604 0.62825 0.0
C3862 C 0.74363 0.36538 0.45293 0.0
C3863 C 0.73114 0.35825 0.4603 0.0
C3864 C 0.74683 0.35878 0.43763 0.0
C3865 C 0.73894 0.3216 0.40779 0.0
H3866 H 0.75566 0.34985 0.37803 0.0
C3867 C 0.7508 0.30016 0.34068 0.0
C3868 C 0.7649 0.30727 0.33632 0.0
C3869 C 0.74577 0.30581 0.35549 0.0
C3870 C 0.7511 0.34176 0.38621 0.0
H3871 H 0.71225 0.33831 0.45696 0.0
H3872 H 0.71759 0.32702 0.43007 0.0
H3873 H 0.74853 0.36062 0.40406 0.0
H3874 H 0.78455 0.3261 0.34379 0.0
H3875 H 0.77572 0.33614 0.36926 0.0
H3876 H 0.74146 0.30273 0.38968 0.0
C3877 C 0.72508 0.33767 0.43631 0.0
C3878 C 0.74703 0.34795 0.40126 0.0
C3879 C 0.72188 0.34428 0.45171 0.0
C3880 C 0.77372 0.32026 0.34691 0.0
C3881 C 0.76857 0.3261 0.36146 0.0
C3882 C 0.74293 0.31538 0.39263 0.0
C3883 C 0.7376 0.34485 0.42898 0.0
C3884 C 0.74111 0.33801 0.41245 0.0
C3885 C 0.75455 0.31896 0.36604 0.0
C3886 C 0.74928 0.32539 0.38172 0.0
H3887 H 0.75095 0.37625 0.45889 0.0
H3888 H 0.75672 0.3646 0.43267 0.0
H3889 H 0.73457 0.3135 0.41605 0.0
H3890 H 0.74376 0.29015 0.33272 0.0
H3891 H 0.73489 0.30006 0.35855 0.0
C3892 C 0.47546 0.09391 0.20396 0.0
C3893 C 0.46045 0.08691 0.20571 0.0
C3894 C 0.4819 0.08962 0.18978 0.0
C3895 C 0.47753 0.05713 0.15559 0.0
H3896 H 0.50378 0.08786 0.13528 0.0
C3897 C 0.49486 0.04556 0.09037 0.0
C3898 C 0.51029 0.05056 0.08865 0.0
C3899 C 0.48954 0.04919 0.1054 0.0
C3900 C 0.49662 0.07915 0.14098 0.0
H3901 H 0.44013 0.07053 0.19354 0.0
H3902 H 0.45133 0.0631 0.16884 0.0
H3903 H 0.49246 0.09648 0.15964 0.0
H3904 H 0.53235 0.06313 0.10103 0.0
H3905 H 0.52292 0.06988 0.1274 0.0
H3906 H 0.48139 0.03989 0.13661 0.0
C3907 C 0.45828 0.07161 0.17859 0.0
C3908 C 0.49014 0.08406 0.1549 0.0
C3909 C 0.45186 0.07588 0.19275 0.0
C3910 C 0.52044 0.05899 0.10222 0.0
C3911 C 0.51504 0.06295 0.11718 0.0
C3912 C 0.4839 0.05226 0.1416 0.0
C3913 C 0.47344 0.07826 0.17704 0.0
C3914 C 0.48047 0.07311 0.16233 0.0
C3915 C 0.49951 0.0582 0.11882 0.0
C3916 C 0.49346 0.06323 0.13416 0.0
H3917 H 0.48241 0.10235 0.21377 0.0
H3918 H 0.49366 0.09488 0.18902 0.0
H3919 H 0.47037 0.04835 0.16119 0.0
H3920 H 0.48685 0.03909 0.07999 0.0
H3921 H 0.47751 0.04548 0.10633 0.0
C3922 C 0.76323 0.71672 0.93265 0.0
C3923 C 0.76885 0.70282 0.92923 0.0
C3924 C 0.76597 0.72882 0.92288 0.0
C3925 C 0.79087 0.74394 0.89291 0.0
H3926 H 0.75616 0.76149 0.87662 0.0
C3927 C 0.78306 0.76662 0.83075 0.0
C3928 C 0.77525 0.77904 0.82909 0.0
C3929 C 0.78577 0.76151 0.8461 0.0
C3930 C 0.76608 0.75706 0.88142 0.0
H3931 H 0.78163 0.69058 0.91288 0.0
H3932 H 0.78634 0.71168 0.89575 0.0
H3933 H 0.75339 0.74349 0.8973 0.0
H3934 H 0.76512 0.79677 0.842 0.0
H3935 H 0.76951 0.78751 0.86909 0.0
H3936 H 0.8033 0.7569 0.8763 0.0
C3937 C 0.78006 0.71334 0.90616 0.0
C3938 C 0.76448 0.74669 0.8932 0.0
C3939 C 0.77731 0.70124 0.91591 0.0
C3940 C 0.77117 0.78714 0.84313 0.0
C3941 C 0.77363 0.78182 0.85852 0.0
C3942 C 0.79247 0.7543 0.88109 0.0
C3943 C 0.77441 0.72724 0.90956 0.0
C3944 C 0.77673 0.7397 0.89871 0.0
C3945 C 0.78047 0.76861 0.85997 0.0
C3946 C 0.77996 0.76059 0.87491 0.0
H3947 H 0.75693 0.71837 0.94304 0.0
H3948 H 0.76159 0.73946 0.92584 0.0
H3949 H 0.80058 0.73891 0.89718 0.0
H3950 H 0.78642 0.76035 0.82001 0.0
H3951 H 0.79096 0.75124 0.84682 0.0
C3952 C 0.90146 0.14535 0.02077 0.0
C3953 C 0.88848 0.14107 0.02871 0.0
C3954 C 0.91228 0.13562 0.01958 0.0
C3955 C 0.92551 0.10177 0.0376 0.0
H3956 H 0.94701 0.10017 0.99908 0.0
C3957 C 0.96726 0.05865 0.02644 0.0
C3958 C 0.98163 0.06577 0.02278 0.0
C3959 C 0.95514 0.06691 0.02621 0.0
C3960 C 0.94113 0.10051 0.00994 0.0
H3961 H 0.87668 0.12285 0.04133 0.0
H3962 H 0.89535 0.10582 0.03908 0.0
H3963 H 0.92747 0.11627 1.00071 0.0
H3964 H 0.99443 0.0869 0.01549 0.0
H3965 H 0.97321 0.10103 0.01445 0.0
H3966 H 0.93911 0.08577 0.04664 0.0
C3967 C 0.89741 0.1169 0.03408 0.0
C3968 C 0.92996 0.10985 0.01096 0.0
C3969 C 0.88663 0.1267 0.03537 0.0
C3970 C 0.98344 0.08103 0.01821 0.0
C3971 C 0.97128 0.08914 0.01763 0.0
C3972 C 0.93655 0.09227 0.03647 0.0
C3973 C 0.91044 0.1212 0.02618 0.0
C3974 C 0.92206 0.11078 0.02488 0.0
C3975 C 0.95707 0.08234 0.02197 0.0
C3976 C 0.94461 0.09163 0.0227 0.0
H3977 H 0.90342 0.15641 0.01569 0.0
H3978 H 0.92226 0.13959 0.0137 0.0
H3979 H 0.91994 0.10231 0.04866 0.0
H3980 H 0.9656 0.04702 0.03032 0.0
H3981 H 0.94432 0.06131 0.02956 0.0
C3982 C 0.36958 0.48781 0.06265 0.0
C3983 C 0.36424 0.49359 0.07714 0.0
C3984 C 0.38432 0.49353 0.05959 0.0
C3985 C 0.41723 0.52614 0.07059 0.0
H3986 H 0.43825 0.49482 0.05125 0.0
C3987 C 0.48101 0.53691 0.05824 0.0
C3988 C 0.48351 0.52956 0.04291 0.0
C3989 C 0.46642 0.53436 0.06312 0.0
C3990 C 0.43248 0.50371 0.05654 0.0
H3991 H 0.37024 0.50998 0.09981 0.0
H3992 H 0.39648 0.51966 0.09466 0.0
H3993 H 0.41316 0.48652 0.05938 0.0
H3994 H 0.47274 0.51481 0.02018 0.0
H3995 H 0.44728 0.51038 0.02868 0.0
H3996 H 0.43688 0.54332 0.06778 0.0
C3997 C 0.389 0.51089 0.08556 0.0
C3998 C 0.41812 0.49897 0.0612 0.0
C3999 C 0.37407 0.50523 0.08859 0.0
C4000 C 0.47113 0.52038 0.03217 0.0
C4001 C 0.4566 0.51785 0.03703 0.0
C4002 C 0.43176 0.5309 0.06601 0.0
C4003 C 0.39427 0.50494 0.07109 0.0
C4004 C 0.41017 0.51014 0.06787 0.0
C4005 C 0.45422 0.52441 0.05273 0.0
C4006 C 0.43931 0.51972 0.05859 0.0
H4007 H 0.36246 0.47862 0.05371 0.0
H4008 H 0.38795 0.48891 0.04818 0.0
H4009 H 0.41132 0.535 0.07569 0.0
H4010 H 0.49041 0.54416 0.06667 0.0
H4011 H 0.46483 0.53954 0.07529 0.0
C4012 C 0.35887 0.65552 0.79332 0.0
C4013 C 0.35281 0.64244 0.78112 0.0
C4014 C 0.35242 0.66931 0.79455 0.0
C4015 C 0.32259 0.68944 0.77179 0.0
H4016 H 0.33074 0.71827 0.81259 0.0
C4017 C 0.28865 0.74096 0.78382 0.0
C4018 C 0.29677 0.75593 0.79136 0.0
C4019 C 0.29567 0.7276 0.78256 0.0
C4020 C 0.32836 0.71046 0.80101 0.0
H4021 H 0.33453 0.63427 0.7608 0.0
H4022 H 0.32324 0.65759 0.76308 0.0
H4023 H 0.3419 0.6947 0.81067 0.0
H4024 H 0.31902 0.76808 0.80363 0.0
H4025 H 0.33105 0.74475 0.8021 0.0
H4026 H 0.30856 0.70509 0.76247 0.0
C4027 C 0.33334 0.65762 0.77159 0.0
C4028 C 0.33492 0.69673 0.7998 0.0
C4029 C 0.3399 0.64391 0.77026 0.0
C4030 C 0.31224 0.75688 0.7978 0.0
C4031 C 0.31917 0.74338 0.79693 0.0
C4032 C 0.31581 0.70299 0.77313 0.0
C4033 C 0.33941 0.6708 0.78375 0.0
C4034 C 0.33227 0.68578 0.78513 0.0
C4035 C 0.31108 0.72843 0.78914 0.0
C4036 C 0.31855 0.71386 0.78775 0.0
H4037 H 0.3689 0.65531 0.80188 0.0
H4038 H 0.35797 0.67891 0.80396 0.0
H4039 H 0.32027 0.68197 0.76003 0.0
H4040 H 0.2768 0.73958 0.77854 0.0
H4041 H 0.28888 0.71647 0.77654 0.0
C4042 C 0.23357 0.64769 0.52184 0.0
C4043 C 0.24523 0.63895 0.52101 0.0
C4044 C 0.21836 0.64007 0.5209 0.0
C4045 C 0.19246 0.60028 0.51226 0.0
H4046 H 0.1682 0.62119 0.54051 0.0
C4047 C 0.1302 0.57196 0.51996 0.0
C4048 C 0.12582 0.57472 0.5358 0.0
C4049 C 0.14417 0.58004 0.51633 0.0
C4050 C 0.17483 0.61506 0.53268 0.0
H4051 H 0.2503 0.61552 0.5181 0.0
H4052 H 0.22385 0.60209 0.51738 0.0
H4053 H 0.19361 0.63441 0.53756 0.0
H4054 H 0.13279 0.58757 0.56039 0.0
H4055 H 0.15722 0.60114 0.55437 0.0
H4056 H 0.17393 0.58045 0.50839 0.0
C4057 C 0.22624 0.61481 0.51822 0.0
C4058 C 0.18939 0.62282 0.5307 0.0
C4059 C 0.24144 0.62246 0.51878 0.0
C4060 C 0.13576 0.58543 0.54799 0.0
C4061 C 0.14974 0.59329 0.54447 0.0
C4062 C 0.17795 0.59238 0.5145 0.0
C4063 C 0.2145 0.62352 0.51954 0.0
C4064 C 0.19852 0.61551 0.5206 0.0
C4065 C 0.15411 0.59087 0.52855 0.0
C4066 C 0.16904 0.59958 0.52498 0.0
H4067 H 0.23625 0.66044 0.52329 0.0
H4068 H 0.20968 0.64722 0.52143 0.0
H4069 H 0.19897 0.59435 0.50411 0.0
H4070 H 0.12268 0.56381 0.51031 0.0
H4071 H 0.14704 0.57796 0.50389 0.0
C4072 C 0.66942 0.9163 0.80704 0.0
C4073 C 0.67381 0.93009 0.79984 0.0
C4074 C 0.67882 0.90508 0.80788 0.0
C4075 C 0.71214 0.89261 0.7898 0.0
H4076 H 0.71198 0.86717 0.82585 0.0
C4077 C 0.75434 0.85005 0.80011 0.0
C4078 C 0.74747 0.83455 0.80169 0.0
C4079 C 0.74585 0.86209 0.80061 0.0
C4080 C 0.7121 0.87416 0.81568 0.0
H4081 H 0.69188 0.94304 0.78835 0.0
H4082 H 0.70841 0.92378 0.79014 0.0
H4083 H 0.69664 0.88765 0.82551 0.0
H4084 H 0.72649 0.81951 0.80544 0.0
H4085 H 0.7119 0.8409 0.80754 0.0
H4086 H 0.72798 0.87928 0.7803 0.0
C4087 C 0.69748 0.92131 0.79472 0.0
C4088 C 0.70322 0.88587 0.81539 0.0
C4089 C 0.68799 0.93245 0.79372 0.0
C4090 C 0.73206 0.83138 0.80427 0.0
C4091 C 0.72372 0.84357 0.80539 0.0
C4092 C 0.72122 0.88108 0.79027 0.0
C4093 C 0.69301 0.90737 0.80171 0.0
C4094 C 0.70296 0.89521 0.80236 0.0
C4095 C 0.73042 0.85898 0.80321 0.0
C4096 C 0.72121 0.87164 0.80313 0.0
H4097 H 0.65851 0.91398 0.81171 0.0
H4098 H 0.67474 0.89444 0.81307 0.0
H4099 H 0.71211 0.89923 0.77936 0.0
H4100 H 0.76615 0.85275 0.79788 0.0
H4101 H 0.75134 0.87385 0.79896 0.0
C4102 C 0.70069 0.97186 0.57016 0.0
C4103 C 0.71426 0.98311 0.57215 0.0
C4104 C 0.68709 0.97547 0.56319 0.0
C4105 C 0.67372 0.9996 0.53379 0.0
H4106 H 0.63569 0.99238 0.55267 0.0
C4107 C 0.62331 0.02843 0.51477 0.0
C4108 C 0.60854 0.02089 0.51654 0.0
C4109 C 0.63573 0.02139 0.51888 0.0
C4110 C 0.64612 0.99409 0.54701 0.0
H4111 H 0.72461 0.00682 0.56899 0.0
H4112 H 0.70067 0.01324 0.55669 0.0
H4113 H 0.65849 0.98568 0.56693 0.0
H4114 H 0.59477 0.99962 0.52242 0.0
H4115 H 0.61649 0.98696 0.52907 0.0
H4116 H 0.66145 0.00795 0.51384 0.0
C4117 C 0.70055 1.00171 0.56055 0.0
C4118 C 0.65916 0.99041 0.55527 0.0
C4119 C 0.71412 0.99815 0.5677 0.0
C4120 C 0.60615 1.00565 0.52109 0.0
C4121 C 0.61856 0.9985 0.52501 0.0
C4122 C 0.66064 1.0031 0.52541 0.0
C4123 C 0.68704 0.99026 0.55791 0.0
C4124 C 0.6731 0.99347 0.54889 0.0
C4125 C 0.63352 0.00661 0.52465 0.0
C4126 C 0.64679 1.00071 0.53212 0.0
H4127 H 0.70078 0.96012 0.57336 0.0
H4128 H 0.67679 0.96647 0.56118 0.0
H4129 H 0.68434 1.00173 0.5285 0.0
H4130 H 0.62539 0.04028 0.51148 0.0
H4131 H 0.64711 0.02805 0.51866 0.0
C4132 C 0.3516 0.46361 0.76679 0.0
C4133 C 0.34698 0.47644 0.77567 0.0
C4134 C 0.34482 0.44772 0.76769 0.0
C4135 C 0.31641 0.42191 0.79096 0.0
H4136 H 0.32238 0.38861 0.75844 0.0
C4137 C 0.28421 0.35529 0.7878 0.0
C4138 C 0.29295 0.34346 0.78523 0.0
C4139 C 0.29015 0.37133 0.78628 0.0
C4140 C 0.32057 0.39768 0.76775 0.0
H4141 H 0.33085 0.4817 0.7923 0.0
H4142 H 0.31894 0.45466 0.79352 0.0
H4143 H 0.33343 0.41578 0.75639 0.0
H4144 H 0.31482 0.33969 0.77855 0.0
H4145 H 0.32477 0.36708 0.77528 0.0
H4146 H 0.30306 0.40351 0.80188 0.0
C4147 C 0.32818 0.45659 0.78612 0.0
C4148 C 0.32711 0.41359 0.76666 0.0
C4149 C 0.33511 0.47247 0.78538 0.0
C4150 C 0.30763 0.34828 0.78062 0.0
C4151 C 0.31338 0.36415 0.77869 0.0
C4152 C 0.30962 0.406 0.79182 0.0
C4153 C 0.33284 0.44364 0.77736 0.0
C4154 C 0.32539 0.42627 0.77832 0.0
C4155 C 0.30492 0.37615 0.78171 0.0
C4156 C 0.31164 0.39345 0.78034 0.0
H4157 H 0.36079 0.46578 0.75931 0.0
H4158 H 0.34934 0.43867 0.76086 0.0
H4159 H 0.31471 0.43071 0.80056 0.0
H4160 H 0.27295 0.35226 0.7915 0.0
H4161 H 0.28309 0.37998 0.78864 0.0
C4162 C 0.19095 0.58062 0.31763 0.0
C4163 C 0.17602 0.57668 0.30916 0.0
C4164 C 0.19964 0.59573 0.31803 0.0
C4165 C 0.20174 0.62846 0.29305 0.0
H4166 H 0.23291 0.65041 0.32856 0.0
C4167 C 0.24633 0.67941 0.2806 0.0
C4168 C 0.25014 0.69284 0.29241 0.0
C4169 C 0.23806 0.66546 0.28445 0.0
C4170 C 0.22416 0.64448 0.31859 0.0
H4171 H 0.15796 0.58569 0.29579 0.0
H4172 H 0.17292 0.6121 0.29678 0.0
H4173 H 0.21589 0.6263 0.33291 0.0
H4174 H 0.24885 0.7023 0.31765 0.0
H4175 H 0.23381 0.67788 0.32434 0.0
H4176 H 0.20957 0.64662 0.27883 0.0
C4177 C 0.17817 0.60344 0.3026 0.0
C4178 C 0.21451 0.6306 0.32103 0.0
C4179 C 0.16959 0.58833 0.30204 0.0
C4180 C 0.24601 0.692 0.30838 0.0
C4181 C 0.23748 0.67804 0.31219 0.0
C4182 C 0.21124 0.64228 0.29066 0.0
C4183 C 0.19347 0.60717 0.31009 0.0
C4184 C 0.20325 0.62239 0.30821 0.0
C4185 C 0.23312 0.66472 0.30011 0.0
C4186 C 0.22273 0.65034 0.30327 0.0
H4187 H 0.19615 0.57183 0.32327 0.0
H4188 H 0.2114 0.59819 0.32385 0.0
H4189 H 0.1934 0.62234 0.28278 0.0
H4190 H 0.2496 0.67979 0.26828 0.0
H4191 H 0.23531 0.65529 0.27502 0.0
C4192 C 0.52915 0.73162 0.43454 0.0
C4193 C 0.52585 0.74617 0.44042 0.0
C4194 C 0.52887 0.71971 0.44466 0.0
C4195 C 0.51606 0.70683 0.48362 0.0
H4196 H 0.54688 0.68113 0.47903 0.0
C4197 C 0.52999 0.66103 0.52756 0.0
C4198 C 0.53213 0.64655 0.51961 0.0
C4199 C 0.52794 0.67338 0.51844 0.0
C4200 C 0.53812 0.68812 0.48037 0.0
H4201 H 0.51946 0.75985 0.46126 0.0
H4202 H 0.51951 0.73917 0.47938 0.0
H4203 H 0.54612 0.70253 0.46249 0.0
H4204 H 0.53268 0.63344 0.49566 0.0
H4205 H 0.52943 0.65503 0.47989 0.0
H4206 H 0.50842 0.69244 0.50194 0.0
C4207 C 0.52198 0.73677 0.46682 0.0
C4208 C 0.53763 0.70038 0.47083 0.0
C4209 C 0.52202 0.74863 0.45653 0.0
C4210 C 0.53153 0.64455 0.50227 0.0
C4211 C 0.52959 0.65689 0.49321 0.0
C4212 C 0.51669 0.69461 0.49336 0.0
C4213 C 0.5256 0.7222 0.46106 0.0
C4214 C 0.52642 0.70973 0.47206 0.0
C4215 C 0.52808 0.67153 0.50121 0.0
C4216 C 0.52758 0.68497 0.4916 0.0
H4217 H 0.53196 0.72947 0.42207 0.0
H4218 H 0.53128 0.70853 0.4396 0.0
H4219 H 0.50724 0.71374 0.48486 0.0
H4220 H 0.53043 0.66301 0.5409 0.0
H4221 H 0.52684 0.68457 0.52492 0.0
C4222 C 0.60711 0.28197 0.72675 0.0
C4223 C 0.59844 0.29092 0.73591 0.0
C4224 C 0.62265 0.28243 0.73204 0.0
C4225 C 0.65714 0.30556 0.76014 0.0
H4226 H 0.67142 0.26615 0.75425 0.0
C4227 C 0.71968 0.29894 0.78589 0.0
C4228 C 0.72611 0.28763 0.77689 0.0
C4229 C 0.7043 0.30033 0.78141 0.0
C4230 C 0.66784 0.2774 0.7558 0.0
H4231 H 0.59996 0.30763 0.75799 0.0
H4232 H 0.627 0.30852 0.76707 0.0
H4233 H 0.64492 0.26676 0.74532 0.0
H4234 H 0.72162 0.26973 0.75549 0.0
H4235 H 0.69564 0.27259 0.74737 0.0
H4236 H 0.68023 0.31619 0.77056 0.0
C4237 C 0.62172 0.30115 0.75567 0.0
C4238 C 0.65246 0.27772 0.75065 0.0
C4239 C 0.6061 0.30064 0.75041 0.0
C4240 C 0.71701 0.27831 0.763 0.0
C4241 C 0.70192 0.27988 0.75838 0.0
C4242 C 0.67265 0.30527 0.76522 0.0
C4243 C 0.63024 0.29192 0.74667 0.0
C4244 C 0.6468 0.2918 0.75258 0.0
C4245 C 0.69506 0.29062 0.76767 0.0
C4246 C 0.67834 0.29118 0.76298 0.0
H4247 H 0.60196 0.27466 0.71528 0.0
H4248 H 0.62878 0.2754 0.72448 0.0
H4249 H 0.65334 0.31669 0.76181 0.0
H4250 H 0.72637 0.30639 0.79659 0.0
H4251 H 0.69958 0.30876 0.78897 0.0
C4252 C 0.04735 0.39265 0.95609 0.0
C4253 C 0.03683 0.38783 0.94163 0.0
C4254 C 0.04683 0.40637 0.96647 0.0
C4255 C 0.03117 0.44309 0.96648 0.0
H4256 H 0.03648 0.4441 0.01425 0.0
C4257 C 0.0126 0.48998 0.01012 0.0
C4258 C 0.02486 0.49937 0.02083 0.0
C4259 C 0.01441 0.47579 1.00164 0.0
C4260 C 0.03502 0.4439 1.00092 0.0
H4261 H 0.01789 0.39387 0.92645 0.0
H4262 H 0.01661 0.41725 0.94468 0.0
H4263 H 0.03962 0.42059 0.99658 0.0
H4264 H 0.04828 0.50134 0.0319 0.0
H4265 H 0.05126 0.47599 0.01753 0.0
H4266 H 0.02604 0.46615 0.97085 0.0
C4267 C 0.02542 0.41068 0.94799 0.0
C4268 C 0.03693 0.43056 0.99082 0.0
C4269 C 0.026 0.39711 0.93763 0.0
C4270 C 0.03872 0.49415 0.02364 0.0
C4271 C 0.04039 0.47973 0.01553 0.0
C4272 C 0.02902 0.45625 0.97654 0.0
C4273 C 0.03581 0.41551 0.96253 0.0
C4274 C 0.03486 0.42996 0.97346 0.0
C4275 C 0.02838 0.47068 1.00415 0.0
C4276 C 0.03081 0.45669 0.99379 0.0
H4277 H 0.05577 0.38567 0.95954 0.0
H4278 H 0.05509 0.40985 0.97752 0.0
H4279 H 0.02988 0.44321 0.9532 0.0
H4280 H 1.00189 0.49397 0.00772 0.0
H4281 H 1.00504 0.46896 0.99286 0.0
C4282 C 0.93096 0.77802 0.2429 0.0
C4283 C 0.93548 0.78474 0.22889 0.0
C4284 C 0.91633 0.77822 0.24762 0.0
C4285 C 0.88175 0.79738 0.23986 0.0
H4286 H 0.86287 0.76466 0.2637 0.0
C4287 C 0.81852 0.79197 0.25429 0.0
C4288 C 0.81548 0.78816 0.27005 0.0
C4289 C 0.83283 0.79127 0.24892 0.0
C4290 C 0.86797 0.774 0.25716 0.0
H4291 H 0.92751 0.79651 0.20859 0.0
H4292 H 0.90214 0.79654 0.21643 0.0
H4293 H 0.88784 0.76383 0.25504 0.0
H4294 H 0.8254 0.78052 0.29237 0.0
H4295 H 0.85011 0.77921 0.28304 0.0
H4296 H 0.86164 0.80733 0.24176 0.0
C4297 C 0.91002 0.79152 0.22423 0.0
C4298 C 0.88247 0.77357 0.2522 0.0
C4299 C 0.9247 0.79146 0.21964 0.0
C4300 C 0.82717 0.78345 0.28013 0.0
C4301 C 0.84141 0.78265 0.27472 0.0
C4302 C 0.86717 0.7977 0.24466 0.0
C4303 C 0.90551 0.78499 0.23839 0.0
C4304 C 0.88975 0.78531 0.24352 0.0
C4305 C 0.84457 0.78663 0.25905 0.0
C4306 C 0.86004 0.78606 0.25348 0.0
H4307 H 0.93888 0.77286 0.25052 0.0
H4308 H 0.91368 0.77329 0.25876 0.0
H4309 H 0.88684 0.80689 0.23354 0.0
H4310 H 0.80989 0.79569 0.24615 0.0
H4311 H 0.83466 0.79428 0.23671 0.0
C4312 C 0.50921 0.34303 0.08806 0.0
C4313 C 0.51665 0.33969 0.10282 0.0
C4314 C 0.51258 0.35808 0.08353 0.0
C4315 C 0.54213 0.39393 0.09132 0.0
H4316 H 0.50953 0.41295 0.07211 0.0
C4317 C 0.54858 0.45813 0.0758 0.0
C4318 C 0.54412 0.45823 0.0589 0.0
C4319 C 0.54553 0.44408 0.0826 0.0
C4320 C 0.51866 0.40772 0.07758 0.0
H4321 H 0.53295 0.34915 0.12469 0.0
H4322 H 0.53867 0.37551 0.11692 0.0
H4323 H 0.5033 0.38696 0.08105 0.0
H4324 H 0.53289 0.44451 0.0358 0.0
H4325 H 0.52733 0.41992 0.04775 0.0
H4326 H 0.55743 0.41482 0.08783 0.0
C4327 C 0.53059 0.36651 0.10864 0.0
C4328 C 0.51515 0.39289 0.08252 0.0
C4329 C 0.52733 0.35148 0.11308 0.0
C4330 C 0.53661 0.44441 0.04883 0.0
C4331 C 0.53332 0.43052 0.05564 0.0
C4332 C 0.5456 0.40885 0.08656 0.0
C4333 C 0.52328 0.36991 0.09384 0.0
C4334 C 0.52689 0.3858 0.08919 0.0
C4335 C 0.53767 0.43034 0.07254 0.0
C4336 C 0.5339 0.41564 0.07943 0.0
H4337 H 0.50096 0.33399 0.08001 0.0
H4338 H 0.50695 0.36042 0.07193 0.0
H4339 H 0.55138 0.38859 0.09625 0.0
H4340 H 0.55416 0.46888 0.08368 0.0
H4341 H 0.54891 0.444 0.09569 0.0
C4342 C 0.96879 0.32308 0.36757 0.0
C4343 C 0.96973 0.3177 0.38308 0.0
C4344 C 0.95522 0.31893 0.35678 0.0
C4345 C 0.92039 0.28854 0.34774 0.0
H4346 H 0.90681 0.31815 0.32015 0.0
C4347 C 0.86111 0.28877 0.31413 0.0
C4348 C 0.86106 0.29625 0.29981 0.0
C4349 C 0.8747 0.28549 0.32151 0.0
C4350 C 0.91071 0.30965 0.3275 0.0
H4351 H 0.95729 0.30468 0.40006 0.0
H4352 H 0.93333 0.29767 0.38125 0.0
H4353 H 0.92918 0.3269 0.3407 0.0
H4354 H 0.87391 0.30376 0.28032 0.0
H4355 H 0.8978 0.29796 0.2932 0.0
H4356 H 0.90121 0.27153 0.33494 0.0
C4357 C 0.94317 0.30468 0.37726 0.0
C4358 C 0.92342 0.3147 0.33934 0.0
C4359 C 0.95679 0.30874 0.38801 0.0
C4360 C 0.87387 0.29802 0.29141 0.0
C4361 C 0.88747 0.29472 0.29877 0.0
C4362 C 0.90748 0.28352 0.33596 0.0
C4363 C 0.94239 0.30945 0.36142 0.0
C4364 C 0.92845 0.30418 0.34948 0.0
C4365 C 0.8882 0.28983 0.31458 0.0
C4366 C 0.9027 0.29402 0.32565 0.0
H4367 H 0.97871 0.3299 0.36351 0.0
H4368 H 0.95498 0.32265 0.34458 0.0
H4369 H 0.92413 0.28018 0.35536 0.0
H4370 H 0.85117 0.2873 0.32065 0.0
H4371 H 0.87502 0.28167 0.33368 0.0
C4372 C 0.9703 0.68268 0.57755 0.0
C4373 C 0.98222 0.69514 0.57614 0.0
C4374 C 0.96963 0.66784 0.56902 0.0
C4375 C 0.98883 0.64497 0.53974 0.0
H4376 H 0.98872 0.61751 0.57405 0.0
C4377 C 0.01264 0.58818 0.53261 0.0
C4378 C 0.02333 0.58718 0.54609 0.0
C4379 C 1.00309 0.59906 0.534 0.0
C4380 C 0.98862 0.62498 0.5643 0.0
H4381 H 1.00154 0.70246 0.56311 0.0
H4382 H 1.00094 0.67636 0.54896 0.0
H4383 H 0.97891 0.64165 0.57849 0.0
H4384 H 0.03241 0.59629 0.57161 0.0
H4385 H 0.01599 0.61567 0.57392 0.0
H4386 H 0.99985 0.6289 0.52623 0.0
C4387 C 0.99195 0.67803 0.5564 0.0
C4388 C 0.9828 0.63868 0.5667 0.0
C4389 C 0.99246 0.69293 0.56472 0.0
C4390 C 0.02435 0.59704 0.561 0.0
C4391 C 0.01479 0.60791 0.5624 0.0
C4392 C 0.99473 0.63128 0.53738 0.0
C4393 C 0.98101 0.6652 0.5592 0.0
C4394 C 0.98341 0.6491 0.55471 0.0
C4395 C 1.00416 0.60904 0.54887 0.0
C4396 C 0.9952 0.62155 0.54993 0.0
H4397 H 0.96223 0.684 0.58627 0.0
H4398 H 0.96094 0.65816 0.57114 0.0
H4399 H 0.98935 0.65277 0.5303 0.0
H4400 H 0.0116 0.5805 0.52105 0.0
H4401 H 0.99492 0.59971 0.52345 0.0
C4402 C 0.62107 0.83313 0.88419 0.0
C4403 C 0.60551 0.83279 0.8798 0.0
C4404 C 0.63058 0.83233 0.8719 0.0
C4405 C 0.62741 0.81629 0.82832 0.0
H4406 H 0.67096 0.83314 0.83479 0.0
C4407 C 0.66891 0.78651 0.79417 0.0
C4408 C 0.68192 0.79581 0.78971 0.0
C4409 C 0.65921 0.79337 0.80358 0.0
C4410 C 0.65877 0.82855 0.83261 0.0
H4411 H 0.58754 0.83243 0.8598 0.0
H4412 H 0.60424 0.83159 0.8382 0.0
H4413 H 0.65493 0.84279 0.85413 0.0
H4414 H 0.6947 0.81968 0.79131 0.0
H4415 H 0.67749 0.83173 0.80722 0.0
H4416 H 0.63116 0.80219 0.80676 0.0
C4417 C 0.60912 0.83206 0.85097 0.0
C4418 C 0.64963 0.83395 0.8438 0.0
C4419 C 0.5996 0.83265 0.86325 0.0
C4420 C 0.68472 0.81219 0.79442 0.0
C4421 C 0.67496 0.81909 0.80372 0.0
C4422 C 0.6365 0.81105 0.81704 0.0
C4423 C 0.62458 0.83131 0.85512 0.0
C4424 C 0.63392 0.82756 0.84201 0.0
C4425 C 0.6622 0.80972 0.80856 0.0
C4426 C 0.65234 0.81677 0.81933 0.0
H4427 H 0.62568 0.83317 0.89699 0.0
H4428 H 0.64238 0.83158 0.87549 0.0
H4429 H 0.61539 0.81095 0.82668 0.0
H4430 H 0.66628 0.77388 0.79058 0.0
H4431 H 0.6496 0.78577 0.80732 0.0
C4432 C 0.45552 0.57578 0.69884 0.0
C4433 C 0.44166 0.56515 0.69917 0.0
C4434 C 0.46399 0.57475 0.68526 0.0
C4435 C 0.46809 0.54622 0.64859 0.0
H4436 H 0.49067 0.58263 0.63267 0.0
C4437 C 0.48887 0.53914 0.58497 0.0
C4438 C 0.50335 0.54692 0.58213 0.0
C4439 C 0.48266 0.54294 0.59949 0.0
C4440 C 0.48458 0.5723 0.63703 0.0
H4441 H 0.4258 0.54552 0.68448 0.0
H4442 H 0.44027 0.54375 0.66124 0.0
H4443 H 0.47731 0.58611 0.6571 0.0
H4444 H 0.52241 0.56559 0.59266 0.0
H4445 H 0.51155 0.57223 0.61853 0.0
H4446 H 0.47522 0.53238 0.62878 0.0
C4447 C 0.44494 0.55268 0.67167 0.0
C4448 C 0.47685 0.57428 0.65112 0.0
C4449 C 0.43653 0.5537 0.68518 0.0
C4450 C 0.51125 0.55927 0.59432 0.0
C4451 C 0.50498 0.56306 0.60919 0.0
C4452 C 0.47575 0.54425 0.63465 0.0
C4453 C 0.45896 0.56304 0.67145 0.0
C4454 C 0.46815 0.56126 0.65698 0.0
C4455 C 0.49067 0.55463 0.61217 0.0
C4456 C 0.48388 0.55722 0.62828 0.0
H4457 H 0.46009 0.58473 0.70928 0.0
H4458 H 0.47469 0.58294 0.68581 0.0
H4459 H 0.46209 0.53576 0.65281 0.0
H4460 H 0.48216 0.5298 0.57588 0.0
H4461 H 0.47144 0.53649 0.60076 0.0
C4462 C 0.81874 0.24944 0.95454 0.0
C4463 C 0.81415 0.23334 0.95565 0.0
C4464 C 0.81398 0.25574 0.94024 0.0
C4465 C 0.7838 0.24627 0.90351 0.0
H4466 H 0.80828 0.28158 0.8877 0.0
C4467 C 0.76982 0.26528 0.83917 0.0
C4468 C 0.7715 0.28146 0.83796 0.0
C4469 C 0.77428 0.26003 0.85413 0.0
C4470 C 0.80124 0.27183 0.8921 0.0
H4471 H 0.80191 0.21102 0.94233 0.0
H4472 H 0.79416 0.22175 0.91724 0.0
H4473 H 0.81859 0.2709 0.91194 0.0
H4474 H 0.77895 0.30485 0.85156 0.0
H4475 H 0.78683 0.29564 0.87784 0.0
H4476 H 0.76666 0.24693 0.88337 0.0
C4477 C 0.80085 0.22974 0.92757 0.0
C4478 C 0.80715 0.26569 0.90601 0.0
C4479 C 0.8054 0.22353 0.94191 0.0
C4480 C 0.77727 0.29231 0.8522 0.0
C4481 C 0.78198 0.28704 0.86716 0.0
C4482 C 0.778 0.25228 0.88953 0.0
C4483 C 0.80469 0.24601 0.92666 0.0
C4484 C 0.79853 0.25275 0.91188 0.0
C4485 C 0.78074 0.27084 0.8682 0.0
C4486 C 0.78665 0.26509 0.88363 0.0
H4487 H 0.82545 0.25726 0.96499 0.0
H4488 H 0.81712 0.26832 0.94011 0.0
H4489 H 0.7766 0.23659 0.90783 0.0
H4490 H 0.76555 0.25665 0.82835 0.0
H4491 H 0.77327 0.24748 0.85447 0.0
C4492 C 0.07994 0.49574 0.19673 0.0
C4493 C 0.07991 0.50539 0.21164 0.0
C4494 C 0.07348 0.49941 0.18158 0.0
C4495 C 0.06062 0.53317 0.16257 0.0
H4496 H 0.04636 0.50117 0.1247 0.0
C4497 C 0.0506 0.55053 0.09688 0.0
C4498 C 0.03983 0.54082 0.08458 0.0
C4499 C 0.05397 0.54581 0.11243 0.0
C4500 C 0.05006 0.51031 0.13514 0.0
H4501 H 0.07226 0.526 0.22235 0.0
H4502 H 0.06044 0.53201 0.19627 0.0
H4503 H 0.05408 0.49346 0.15148 0.0
H4504 H 0.02386 0.51856 0.07919 0.0
H4505 H 0.02932 0.51045 0.10659 0.0
H4506 H 0.05584 0.54994 0.14655 0.0
C4507 C 0.06601 0.52196 0.19599 0.0
C4508 C 0.0548 0.50587 0.15059 0.0
C4509 C 0.07272 0.51845 0.21107 0.0
C4510 C 0.03226 0.5263 0.08837 0.0
C4511 C 0.03552 0.52161 0.1041 0.0
C4512 C 0.05561 0.53756 0.14726 0.0
C4513 C 0.06653 0.5127 0.18088 0.0
C4514 C 0.06044 0.51725 0.16454 0.0
C4515 C 0.04652 0.53127 0.1164 0.0
C4516 C 0.05056 0.52627 0.13314 0.0
H4517 H 0.08548 0.48566 0.1967 0.0
H4518 H 0.07441 0.49203 0.17038 0.0
H4519 H 0.065 0.54244 0.17275 0.0
H4520 H 0.05667 0.56178 0.09441 0.0
H4521 H 0.06275 0.55353 0.1212 0.0
C4522 C 0.75523 0.89653 0.49192 0.0
C4523 C 0.75977 0.89048 0.50644 0.0
C4524 C 0.7514 0.88666 0.47696 0.0
C4525 C 0.74034 0.84564 0.45769 0.0
H4526 H 0.76288 0.86096 0.42304 0.0
C4527 C 0.75452 0.80833 0.40102 0.0
C4528 C 0.75575 0.81559 0.38667 0.0
C4529 C 0.75003 0.81621 0.41483 0.0
C4530 C 0.7562 0.85667 0.43244 0.0
H4531 H 0.76328 0.86948 0.5171 0.0
H4532 H 0.75653 0.85208 0.49075 0.0
H4533 H 0.76524 0.87748 0.44937 0.0
H4534 H 0.75188 0.8356 0.37444 0.0
H4535 H 0.74371 0.84932 0.39849 0.0
H4536 H 0.73173 0.82453 0.44075 0.0
C4537 C 0.7559 0.86442 0.49099 0.0
C4538 C 0.75761 0.8661 0.44751 0.0
C4539 C 0.75988 0.87434 0.50596 0.0
C4540 C 0.75096 0.82992 0.38552 0.0
C4541 C 0.74638 0.83773 0.39924 0.0
C4542 C 0.7389 0.83615 0.44251 0.0
C4543 C 0.75195 0.87059 0.47635 0.0
C4544 C 0.74973 0.86067 0.46026 0.0
C4545 C 0.7468 0.83137 0.41428 0.0
C4546 C 0.74684 0.84163 0.42978 0.0
H4547 H 0.75519 0.90898 0.49205 0.0
H4548 H 0.74834 0.89163 0.46579 0.0
H4549 H 0.73419 0.84125 0.46742 0.0
H4550 H 0.7583 0.79728 0.40201 0.0
H4551 H 0.75048 0.8111 0.42631 0.0
C4552 C 0.45692 0.55969 0.86134 0.0
C4553 C 0.44564 0.56904 0.85975 0.0
C4554 C 0.46485 0.55879 0.87689 0.0
C4555 C 0.46192 0.56561 0.92227 0.0
H4556 H 0.50438 0.56126 0.92731 0.0
C4557 C 0.49587 0.56704 0.98724 0.0
C4558 C 0.50629 0.55681 0.9891 0.0
C4559 C 0.48904 0.56891 0.97149 0.0
C4560 C 0.49247 0.56229 0.92615 0.0
H4561 H 0.43422 0.58499 0.87367 0.0
H4562 H 0.44815 0.58366 0.9006 0.0
H4563 H 0.49174 0.56408 0.90016 0.0
H4564 H 0.51772 0.54064 0.97546 0.0
H4565 H 0.50577 0.54382 0.94809 0.0
H4566 H 0.46261 0.56377 0.9482 0.0
C4567 C 0.45074 0.57679 0.88982 0.0
C4568 C 0.48517 0.56392 0.91049 0.0
C4569 C 0.44284 0.57773 0.87425 0.0
C4570 C 0.50981 0.54867 0.97462 0.0
C4571 C 0.50297 0.55056 0.95884 0.0
C4572 C 0.46921 0.564 0.9379 0.0
C4573 C 0.46178 0.56717 0.89146 0.0
C4574 C 0.46975 0.56562 0.90826 0.0
C4575 C 0.49236 0.56062 0.957 0.0
C4576 C 0.48462 0.56233 0.94015 0.0
H4577 H 0.45963 0.55298 0.85052 0.0
H4578 H 0.47315 0.55117 0.8775 0.0
H4579 H 0.44999 0.56653 0.92114 0.0
H4580 H 0.49288 0.5736 0.998 0.0
H4581 H 0.48119 0.577 0.9707 0.0
C4582 C 0.8034 0.24563 0.1178 0.0
C4583 C 0.81542 0.23723 0.11711 0.0
C4584 C 0.80026 0.25265 0.13297 0.0
C4585 C 0.8064 0.25087 0.17848 0.0
H4586 H 0.79241 0.2906 0.18131 0.0
C4587 C 0.79487 0.28198 0.24114 0.0
C4588 C 0.78172 0.28875 0.24091 0.0
C4589 C 0.79998 0.27666 0.22632 0.0
C4590 C 0.79616 0.27942 0.18075 0.0
H4591 H 0.8336 0.22983 0.13213 0.0
H4592 H 0.82829 0.24223 0.15852 0.0
H4593 H 0.7994 0.27957 0.15523 0.0
H4594 H 0.76398 0.29565 0.22483 0.0
H4595 H 0.77286 0.28648 0.19904 0.0
H4596 H 0.80306 0.25067 0.20398 0.0
C4597 C 0.82115 0.24325 0.1473 0.0
C4598 C 0.80018 0.27306 0.16572 0.0
C4599 C 0.82434 0.23628 0.13209 0.0
C4600 C 0.77414 0.29052 0.22548 0.0
C4601 C 0.7793 0.28529 0.21066 0.0
C4602 C 0.80239 0.25724 0.19352 0.0
C4603 C 0.809 0.2515 0.148 0.0
C4604 C 0.80526 0.25861 0.16428 0.0
C4605 C 0.79217 0.27805 0.21081 0.0
C4606 C 0.79709 0.27157 0.19489 0.0
H4607 H 0.79637 0.24682 0.10657 0.0
H4608 H 0.79073 0.25872 0.1329 0.0
H4609 H 0.81002 0.23963 0.1779 0.0
H4610 H 0.801 0.2804 0.2528 0.0
H4611 H 0.81006 0.27139 0.22703 0.0
C4612 C 0.08659 0.5004 0.3849 0.0
C4613 C 0.07968 0.50288 0.36946 0.0
C4614 C 0.08069 0.50496 0.39938 0.0
C4615 C 0.05526 0.53087 0.4156 0.0
H4616 H 0.05822 0.50715 0.45282 0.0
C4617 C 0.02764 0.54161 0.47637 0.0
C4618 C 0.03735 0.54161 0.49106 0.0
C4619 C 0.03229 0.5376 0.46093 0.0
C4620 C 0.05737 0.51392 0.44253 0.0
H4621 H 0.06098 0.51153 0.35688 0.0
H4622 H 0.05021 0.51882 0.38202 0.0
H4623 H 0.06684 0.49787 0.42708 0.0
H4624 H 0.05988 0.5383 0.50101 0.0
H4625 H 0.06782 0.53134 0.4743 0.0
H4626 H 0.04546 0.54675 0.43122 0.0
C4627 C 0.06046 0.51386 0.38311 0.0
C4628 C 0.06239 0.50866 0.42778 0.0
C4629 C 0.06651 0.50954 0.36868 0.0
C4630 C 0.05199 0.5382 0.48998 0.0
C4631 C 0.05656 0.53416 0.47467 0.0
C4632 C 0.05004 0.53603 0.43034 0.0
C4633 C 0.06759 0.51185 0.39869 0.0
C4634 C 0.06159 0.51715 0.41417 0.0
C4635 C 0.04667 0.53346 0.46002 0.0
C4636 C 0.05126 0.5277 0.444 0.0
H4637 H 0.09692 0.49555 0.38583 0.0
H4638 H 0.08669 0.50348 0.41113 0.0
H4639 H 0.05465 0.53788 0.4055 0.0
H4640 H 0.0163 0.54419 0.47679 0.0
H4641 H 0.02446 0.53715 0.44977 0.0
C4642 C 0.7816 0.87782 0.64552 0.0
C4643 C 0.77618 0.89178 0.64928 0.0
C4644 C 0.7785 0.86545 0.65488 0.0
C4645 C 0.75361 0.85066 0.68533 0.0
H4646 H 0.78768 0.83143 0.69994 0.0
C4647 C 0.76391 0.8299 0.74796 0.0
C4648 C 0.77097 0.81693 0.74952 0.0
C4649 C 0.76053 0.83449 0.73248 0.0
C4650 C 0.77791 0.83632 0.69561 0.0
H4651 H 0.76344 0.90393 0.66568 0.0
H4652 H 0.7584 0.88253 0.68239 0.0
H4653 H 0.79037 0.84918 0.67906 0.0
H4654 H 0.77901 0.79774 0.73633 0.0
H4655 H 0.77351 0.80612 0.70897 0.0
H4656 H 0.74157 0.83858 0.70282 0.0
C4657 C 0.76465 0.88091 0.67195 0.0
C4658 C 0.77946 0.84655 0.68369 0.0
C4659 C 0.76764 0.89321 0.66251 0.0
C4660 C 0.7736 0.80784 0.73531 0.0
C4661 C 0.77049 0.81262 0.71975 0.0
C4662 C 0.7521 0.84051 0.69735 0.0
C4663 C 0.77003 0.86689 0.66822 0.0
C4664 C 0.76751 0.85423 0.67885 0.0
C4665 C 0.7644 0.8263 0.71833 0.0
C4666 C 0.76443 0.83368 0.70297 0.0
H4667 H 0.788 0.87638 0.63517 0.0
H4668 H 0.78267 0.85474 0.65162 0.0
H4669 H 0.74409 0.85616 0.68157 0.0
H4670 H 0.76161 0.83693 0.75882 0.0
H4671 H 0.75597 0.84515 0.73177 0.0
C4672 C 0.65977 0.46675 0.56093 0.0
C4673 C 0.6571 0.45314 0.54919 0.0
C4674 C 0.64903 0.47666 0.5617 0.0
C4675 C 0.61532 0.48618 0.53648 0.0
H4676 H 0.60779 0.50676 0.57837 0.0
C4677 C 0.56129 0.5115 0.54239 0.0
C4678 C 0.56237 0.52668 0.551 0.0
C4679 C 0.57379 0.50401 0.54285 0.0
C4680 C 0.60992 0.50127 0.56657 0.0
H4681 H 0.64063 0.43914 0.52942 0.0
H4682 H 0.62193 0.45617 0.53084 0.0
H4683 H 0.62734 0.49038 0.57792 0.0
H4684 H 0.57772 0.54573 0.56707 0.0
H4685 H 0.59976 0.53226 0.56822 0.0
H4686 H 0.59763 0.49667 0.5252 0.0
C4687 C 0.63252 0.45949 0.53921 0.0
C4688 C 0.62114 0.49185 0.56627 0.0
C4689 C 0.64327 0.44965 0.5384 0.0
C4690 C 0.57644 0.53405 0.56035 0.0
C4691 C 0.58903 0.52633 0.56101 0.0
C4692 C 0.60409 0.49546 0.5368 0.0
C4693 C 0.63526 0.47325 0.55077 0.0
C4694 C 0.62384 0.48395 0.55122 0.0
C4695 C 0.58787 0.51129 0.55204 0.0
C4696 C 0.60105 0.50293 0.55185 0.0
H4697 H 0.67035 0.46997 0.56934 0.0
H4698 H 0.65171 0.48719 0.57064 0.0
H4699 H 0.61728 0.48073 0.5246 0.0
H4700 H 0.55079 0.50535 0.53489 0.0
H4701 H 0.57238 0.49237 0.53597 0.0
C4702 C 0.1787 0.08601 0.50315 0.0
C4703 C 0.18311 0.10155 0.49991 0.0
C4704 C 0.16379 0.08066 0.50636 0.0
C4705 C 0.13255 0.0965 0.52244 0.0
H4706 H 0.10602 0.05746 0.50192 0.0
C4707 C 0.06872 0.0866 0.52622 0.0
C4708 C 0.06156 0.0718 0.52946 0.0
C4709 C 0.08356 0.08881 0.5221 0.0
C4710 C 0.11338 0.06831 0.50788 0.0
H4711 H 0.17574 0.12348 0.49666 0.0
H4712 H 0.14965 0.11412 0.50193 0.0
H4713 H 0.13241 0.06355 0.49573 0.0
H4714 H 0.06414 0.04779 0.53103 0.0
H4715 H 0.09017 0.05158 0.52399 0.0
H4716 H 0.11377 0.10138 0.5346 0.0
C4717 C 0.15764 0.10615 0.50234 0.0
C4718 C 0.12843 0.07176 0.50434 0.0
C4719 C 0.17246 0.11147 0.49923 0.0
C4720 C 0.06932 0.05918 0.52823 0.0
C4721 C 0.08423 0.06139 0.52425 0.0
C4722 C 0.11763 0.09305 0.526 0.0
C4723 C 0.15327 0.09085 0.50635 0.0
C4724 C 0.13797 0.0861 0.51127 0.0
C4725 C 0.09158 0.07631 0.52141 0.0
C4726 C 0.10775 0.07915 0.51843 0.0
H4727 H 0.18692 0.07829 0.5038 0.0
H4728 H 0.16065 0.06882 0.50946 0.0
H4729 H 0.13983 0.10746 0.52827 0.0
H4730 H 0.06289 0.09649 0.52698 0.0
H4731 H 0.08881 0.10038 0.51961 0.0
C4732 C 0.18871 0.93914 0.80569 0.0
C4733 C 0.1934 0.95202 0.79707 0.0
C4734 C 0.19519 0.92539 0.80422 0.0
C4735 C 0.22189 0.90489 0.77911 0.0
H4736 H 0.21884 0.87699 0.81283 0.0
C4737 C 0.25622 0.85287 0.78176 0.0
C4738 C 0.24879 0.83831 0.7858 0.0
C4739 C 0.24936 0.86637 0.78279 0.0
C4740 C 0.21976 0.88453 0.80317 0.0
H4741 H 0.2093 0.95995 0.78025 0.0
H4742 H 0.22071 0.93669 0.77803 0.0
H4743 H 0.2078 0.90058 0.81554 0.0
H4744 H 0.22806 0.82705 0.79435 0.0
H4745 H 0.21636 0.85049 0.79651 0.0
H4746 H 0.23438 0.88894 0.76712 0.0
C4747 C 0.21162 0.93678 0.78565 0.0
C4748 C 0.21326 0.89826 0.80466 0.0
C4749 C 0.205 0.95043 0.78698 0.0
C4750 C 0.23422 0.83788 0.791 0.0
C4751 C 0.22751 0.85148 0.79237 0.0
C4752 C 0.22863 0.89132 0.7778 0.0
C4753 C 0.2069 0.92378 0.79418 0.0
C4754 C 0.21406 0.90886 0.79264 0.0
C4755 C 0.2349 0.86605 0.78827 0.0
C4756 C 0.22768 0.88076 0.78975 0.0
H4757 H 0.1797 0.93947 0.81343 0.0
H4758 H 0.19069 0.9159 0.81087 0.0
H4759 H 0.22273 0.91212 0.7692 0.0
H4760 H 0.26743 0.85387 0.77777 0.0
H4761 H 0.25562 0.87723 0.7796 0.0
C4762 C 0.31017 0.95139 0.04443 0.0
C4763 C 0.30116 0.95551 0.05658 0.0
C4764 C 0.32535 0.95895 0.04531 0.0
C4765 C 0.35219 0.99556 0.06265 0.0
H4766 H 0.382 0.97164 0.04816 0.0
C4767 C 0.41538 0.02401 0.05819 0.0
C4768 C 0.42095 0.01883 0.04358 0.0
C4769 C 0.40133 0.01634 0.06205 0.0
C4770 C 0.37381 0.9785 0.05219 0.0
H4771 H 0.30119 0.97065 0.07942 0.0
H4772 H 0.32796 0.98382 0.08108 0.0
H4773 H 0.35655 0.95791 0.05127 0.0
H4774 H 0.41587 1.00188 0.02133 0.0
H4775 H 0.39152 0.98857 0.02802 0.0
H4776 H 0.36949 0.01619 0.06328 0.0
C4777 C 0.32312 0.97482 0.07075 0.0
C4778 C 0.35921 0.97064 0.05397 0.0
C4779 C 0.30784 0.9672 0.06987 0.0
C4780 C 0.41209 0.00596 0.03286 0.0
C4781 C 0.39813 0.99831 0.0367 0.0
C4782 C 0.36686 1.00345 0.0609 0.0
C4783 C 0.33203 0.97079 0.05843 0.0
C4784 C 0.34809 0.97909 0.05876 0.0
C4785 C 0.39261 1.00333 0.05138 0.0
C4786 C 0.37768 0.99502 0.0552 0.0
H4787 H 0.3055 0.94224 0.03418 0.0
H4788 H 0.33179 0.95569 0.03548 0.0
H4789 H 0.34387 1.00242 0.0663 0.0
H4790 H 0.42199 0.03382 0.06677 0.0
H4791 H 0.39741 0.02043 0.07349 0.0
C4792 C 0.85842 0.66174 0.7673 0.0
C4793 C 0.87188 0.66452 0.77866 0.0
C4794 C 0.84902 0.673 0.76657 0.0
C4795 C 0.84094 0.70836 0.7915 0.0
H4796 H 0.82079 0.7161 0.74968 0.0
C4797 C 0.81393 0.763 0.78714 0.0
C4798 C 0.79974 0.76156 0.77737 0.0
C4799 C 0.82207 0.75074 0.78648 0.0
C4800 C 0.8262 0.71397 0.76148 0.0
H4801 H 0.88619 0.68165 0.79779 0.0
H4802 H 0.87002 0.70125 0.79644 0.0
H4803 H 0.83626 0.69563 0.75011 0.0
H4804 H 0.78304 0.74586 0.759 0.0
H4805 H 0.79729 0.72427 0.75787 0.0
H4806 H 0.83105 0.7267 0.80287 0.0
C4807 C 0.86644 0.6902 0.78835 0.0
C4808 C 0.83508 0.7022 0.76174 0.0
C4809 C 0.87577 0.67894 0.78912 0.0
C4810 C 0.794 0.74747 0.76663 0.0
C4811 C 0.80218 0.7351 0.76596 0.0
C4812 C 0.83214 0.7201 0.79122 0.0
C4813 C 0.85285 0.68738 0.77717 0.0
C4814 C 0.84276 0.69938 0.77675 0.0
C4815 C 0.81625 0.73651 0.77608 0.0
C4816 C 0.82483 0.72325 0.77621 0.0
H4817 H 0.85495 0.6507 0.75916 0.0
H4818 H 0.83858 0.67027 0.75793 0.0
H4819 H 0.84628 0.70629 0.80335 0.0
H4820 H 0.81868 0.77356 0.7956 0.0
H4821 H 0.83297 0.75243 0.79422 0.0
C4822 C 0.84349 0.62171 0.00561 0.0
C4823 C 0.83046 0.60964 1.00197 0.0
C4824 C 0.85721 0.6187 0.01309 0.0
C4825 C 0.87683 0.58607 0.02167 0.0
H4826 H 0.90051 0.61625 0.05772 0.0
C4827 C 0.92268 0.56811 0.06325 0.0
C4828 C 0.93727 0.57617 0.06132 0.0
C4829 C 0.90987 0.57446 0.05896 0.0
C4830 C 0.89394 0.6078 0.04767 0.0
H4831 H 0.82167 0.58488 1.0027 0.0
H4832 H 0.84539 0.57972 0.01621 0.0
H4833 H 0.8777 0.62247 0.04248 0.0
H4834 H 0.95012 0.59798 0.05538 0.0
H4835 H 0.92748 0.60903 0.04767 0.0
H4836 H 0.89278 0.57126 0.0271 0.0
C4837 C 0.84515 0.59145 0.01306 0.0
C4838 C 0.88103 0.61136 0.03887 0.0
C4839 C 0.83151 0.59442 0.00546 0.0
C4840 C 0.93895 0.59144 0.05674 0.0
C4841 C 0.92607 0.59782 0.05247 0.0
C4842 C 0.88952 0.58245 0.03058 0.0
C4843 C 0.85809 0.60359 0.01713 0.0
C4844 C 0.87228 0.60043 0.02588 0.0
C4845 C 0.91146 0.58894 0.05272 0.0
C4846 C 0.89805 0.59319 0.04372 0.0
H4847 H 0.84295 0.63363 1.0033 0.0
H4848 H 0.86705 0.62823 0.0159 0.0
H4849 H 0.87057 0.57759 0.01148 0.0
H4850 H 0.92098 0.5563 0.06664 0.0
H4851 H 0.89863 0.56751 0.0593 0.0
C4852 C 0.19135 0.12632 0.79066 0.0
C4853 C 0.19793 0.11736 0.80186 0.0
C4854 C 0.19804 0.14215 0.78954 0.0
C4855 C 0.22941 0.17704 0.8109 0.0
H4856 H 0.21986 0.19424 0.77026 0.0
C4857 C 0.26002 0.24067 0.79771 0.0
C4858 C 0.25078 0.24966 0.78928 0.0
C4859 C 0.25426 0.2247 0.79977 0.0
C4860 C 0.22266 0.18981 0.78183 0.0
H4861 H 0.21727 0.11894 0.82072 0.0
H4862 H 0.22899 0.14602 0.81862 0.0
H4863 H 0.20893 0.16713 0.77261 0.0
H4864 H 0.228 0.24828 0.77654 0.0
H4865 H 0.21831 0.22101 0.77976 0.0
H4866 H 0.24354 0.19987 0.8198 0.0
C4867 C 0.21836 0.14099 0.81077 0.0
C4868 C 0.21621 0.174 0.78327 0.0
C4869 C 0.21156 0.12517 0.81199 0.0
C4870 C 0.23565 0.24198 0.78303 0.0
C4871 C 0.23003 0.2261 0.78482 0.0
C4872 C 0.23605 0.19286 0.80935 0.0
C4873 C 0.21183 0.14996 0.79946 0.0
C4874 C 0.21923 0.16714 0.7979 0.0
C4875 C 0.23913 0.217 0.79321 0.0
C4876 C 0.2327 0.1997 0.79483 0.0
H4877 H 0.18073 0.1212 0.7828 0.0
H4878 H 0.19209 0.14828 0.78093 0.0
H4879 H 0.23214 0.17275 0.82255 0.0
H4880 H 0.27168 0.24599 0.80284 0.0
H4881 H 0.2618 0.21831 0.8063 0.0
C4882 C 0.37269 0.00747 0.27914 0.0
C4883 C 0.36947 0.01736 0.26732 0.0
C4884 C 0.36433 0.9922 0.27788 0.0
C4885 C 0.32702 0.96803 0.26075 0.0
H4886 H 0.34617 0.93515 0.27721 0.0
C4887 C 0.29447 0.90564 0.27019 0.0
C4888 C 0.29835 0.90169 0.28612 0.0
C4889 C 0.30284 0.91894 0.2649 0.0
C4890 C 0.34068 0.9442 0.27251 0.0
H4891 H 0.35538 0.01879 0.24449 0.0
H4892 H 0.34079 0.9918 0.24214 0.0
H4893 H 0.36206 0.95951 0.27224 0.0
H4894 H 0.31358 0.90901 0.30919 0.0
H4895 H 0.32825 0.93197 0.29986 0.0
H4896 H 0.30559 0.9526 0.2613 0.0
C4897 C 0.34967 0.99604 0.25252 0.0
C4898 C 0.34976 0.95816 0.2697 0.0
C4899 C 0.35809 0.01141 0.2538 0.0
C4900 C 0.31051 0.91151 0.29673 0.0
C4901 C 0.31891 0.92466 0.2914 0.0
C4902 C 0.31791 0.95393 0.26341 0.0
C4903 C 0.35261 0.98633 0.26468 0.0
C4904 C 0.34304 0.97049 0.26444 0.0
C4905 C 0.31529 0.9284 0.27539 0.0
C4906 C 0.32469 0.94216 0.26991 0.0
H4907 H 0.38158 0.01159 0.28953 0.0
H4908 H 0.36678 0.98518 0.28761 0.0
H4909 H 0.32148 0.97732 0.25675 0.0
H4910 H 0.28524 0.89823 0.26168 0.0
H4911 H 0.29984 0.92162 0.25249 0.0
C4912 C 0.52207 0.3455 0.62015 0.0
C4913 C 0.51866 0.34808 0.63643 0.0
C4914 C 0.52217 0.35738 0.60989 0.0
C4915 C 0.50777 0.39459 0.60656 0.0
H4916 H 0.53603 0.40105 0.57422 0.0
C4917 C 0.51461 0.44998 0.57444 0.0
C4918 C 0.51305 0.4476 0.55704 0.0
C4919 C 0.51662 0.43771 0.58358 0.0
C4920 C 0.52804 0.3993 0.58317 0.0
H4921 H 0.51346 0.36518 0.65508 0.0
H4922 H 0.51424 0.38608 0.63757 0.0
H4923 H 0.53696 0.37976 0.59137 0.0
H4924 H 0.51319 0.43058 0.53567 0.0
H4925 H 0.51693 0.40914 0.55177 0.0
H4926 H 0.4991 0.41427 0.59865 0.0
C4927 C 0.5162 0.37476 0.63236 0.0
C4928 C 0.52851 0.38708 0.59294 0.0
C4929 C 0.51584 0.36283 0.64246 0.0
C4930 C 0.51437 0.43284 0.54905 0.0
C4931 C 0.51651 0.42055 0.55824 0.0
C4932 C 0.50746 0.40686 0.597 0.0
C4933 C 0.51908 0.37213 0.61583 0.0
C4934 C 0.51846 0.38469 0.6049 0.0
C4935 C 0.51726 0.42279 0.57557 0.0
C4936 C 0.51766 0.40944 0.58532 0.0
H4937 H 0.52428 0.33417 0.61525 0.0
H4938 H 0.52431 0.35486 0.59721 0.0
H4939 H 0.49952 0.39285 0.61521 0.0
H4940 H 0.5141 0.46131 0.58104 0.0
H4941 H 0.51748 0.43984 0.59696 0.0
C4942 C 0.43492 0.79294 0.34612 0.0
C4943 C 0.44651 0.80401 0.34113 0.0
C4944 C 0.41931 0.79242 0.34075 0.0
C4945 C 0.39273 0.81721 0.32412 0.0
H4946 H 0.36396 0.77781 0.31098 0.0
C4947 C 0.33105 0.81799 0.29545 0.0
C4948 C 0.3188 0.80636 0.29797 0.0
C4949 C 0.34628 0.81659 0.29983 0.0
C4950 C 0.3717 0.78898 0.31478 0.0
H4951 H 0.45017 0.82293 0.32591 0.0
H4952 H 0.42328 0.82223 0.31699 0.0
H4953 H 0.39068 0.77761 0.3207 0.0
H4954 H 0.31307 0.78397 0.30715 0.0
H4955 H 0.33964 0.78166 0.31541 0.0
H4956 H 0.37396 0.82871 0.31887 0.0
C4957 C 0.42625 0.81401 0.32524 0.0
C4958 C 0.38715 0.78884 0.32036 0.0
C4959 C 0.44181 0.81444 0.33046 0.0
C4960 C 0.32223 0.793 0.30469 0.0
C4961 C 0.33757 0.79174 0.3095 0.0
C4962 C 0.37732 0.81737 0.31879 0.0
C4963 C 0.41469 0.80305 0.33033 0.0
C4964 C 0.39798 0.80298 0.32492 0.0
C4965 C 0.34994 0.80372 0.30749 0.0
C4966 C 0.36646 0.80328 0.31373 0.0
H4967 H 0.43782 0.78483 0.35452 0.0
H4968 H 0.41083 0.7839 0.34513 0.0
H4969 H 0.40053 0.82837 0.32787 0.0
H4970 H 0.32884 0.82846 0.29034 0.0
H4971 H 0.35519 0.82585 0.29737 0.0
C4972 C 0.02154 0.71088 0.12336 0.0
C4973 C 0.01076 0.70988 0.13461 0.0
C4974 C 0.02221 0.69778 0.11219 0.0
C4975 C 1.00027 0.65822 0.09382 0.0
H4976 H 0.04032 0.6491 0.0882 0.0
C4977 C 0.00881 0.59636 0.07093 0.0
C4978 C 0.01919 0.59475 0.0595 0.0
C4979 C 1.00776 0.61121 0.07841 0.0
C4980 C 0.02907 0.65161 0.08945 0.0
H4981 H 0.99217 0.6945 0.14295 0.0
H4982 H 0.99351 0.67153 0.12376 0.0
H4983 H 0.03828 0.67382 0.10413 0.0
H4984 H 0.03665 0.60745 0.04696 0.0
H4985 H 0.03472 0.63352 0.06004 0.0
H4986 H 0.99109 0.63581 0.07953 0.0
C4987 C 1.00123 0.6825 0.12324 0.0
C4988 C 0.02788 0.66577 0.09855 0.0
C4989 C 1.00049 0.69563 0.13429 0.0
C4990 C 0.02853 0.60832 0.05571 0.0
C4991 C 0.02748 0.62323 0.06324 0.0
C4992 C 1.00147 0.64406 0.0848 0.0
C4993 C 0.01218 0.68337 0.11215 0.0
C4994 C 0.01346 0.66909 0.10112 0.0
C4995 C 0.01704 0.6248 0.07462 0.0
C4996 C 0.01587 0.64047 0.08281 0.0
H4997 H 0.02945 0.72182 0.12319 0.0
H4998 H 0.0306 0.69892 0.10363 0.0
H4999 H 0.98899 0.66056 0.09523 0.0
H5000 H 1.00152 0.58614 0.07421 0.0
H5001 H 0.99982 0.61203 0.08737 0.0
C5002 C 0.11163 0.29939 0.83442 0.0
C5003 C 0.1096 0.31027 0.84764 0.0
C5004 C 0.1262 0.29903 0.82964 0.0
C5005 C 0.16697 0.3223 0.83543 0.0
H5006 H 0.17514 0.28291 0.81502 0.0
C5007 C 0.2282 0.31233 0.82217 0.0
C5008 C 0.22896 0.30515 0.80611 0.0
C5009 C 0.21395 0.3134 0.82762 0.0
C5010 C 0.17306 0.29404 0.82065 0.0
H5011 H 0.12181 0.32922 0.8663 0.0
H5012 H 0.14704 0.3284 0.85833 0.0
H5013 H 0.15022 0.28378 0.82382 0.0
H5014 H 0.21518 0.29309 0.78342 0.0
H5015 H 0.19056 0.2944 0.79308 0.0
H5016 H 0.19017 0.33231 0.83264 0.0
C5017 C 0.13734 0.32033 0.85125 0.0
C5018 C 0.15862 0.29462 0.82563 0.0
C5019 C 0.12273 0.32079 0.85591 0.0
C5020 C 0.21509 0.29885 0.7958 0.0
C5021 C 0.20092 0.29951 0.80138 0.0
C5022 C 0.18153 0.32164 0.83071 0.0
C5023 C 0.13942 0.30942 0.83801 0.0
C5024 C 0.15517 0.30879 0.83299 0.0
C5025 C 0.20008 0.30686 0.81734 0.0
C5026 C 0.18477 0.30752 0.8231 0.0
H5027 H 0.10189 0.29124 0.82749 0.0
H5028 H 0.12696 0.29067 0.81913 0.0
H5029 H 0.16496 0.33356 0.84072 0.0
H5030 H 0.23862 0.31729 0.83046 0.0
H5031 H 0.21379 0.31909 0.84001 0.0
C5032 C 0.54095 0.74179 0.9737 0.0
C5033 C 0.53469 0.75422 0.98063 0.0
C5034 C 0.53638 0.7267 0.97766 0.0
C5035 C 0.50342 0.703 0.99126 0.0
H5036 H 0.53045 0.67335 0.99725 0.0
C5037 C 0.48996 0.6469 0.02143 0.0
C5038 C 0.49638 0.63406 0.01592 0.0
C5039 C 0.49232 0.66053 0.01386 0.0
C5040 C 0.52273 0.68142 0.99523 0.0
H5041 H 0.51979 0.76124 0.99794 0.0
H5042 H 0.51208 0.73478 0.00535 0.0
H5043 H 0.54104 0.70014 0.993 0.0
H5044 H 0.50864 0.62444 0.99712 0.0
H5045 H 0.51277 0.64837 0.98382 0.0
H5046 H 0.48517 0.68434 0.994 0.0
C5047 C 0.52016 0.73661 0.9965 0.0
C5048 C 0.52881 0.69676 0.99294 0.0
C5049 C 0.52462 0.75168 0.99241 0.0
C5050 C 0.5038 0.63436 1.0017 0.0
C5051 C 0.50617 0.64799 0.99413 0.0
C5052 C 0.49735 0.68767 0.99363 0.0
C5053 C 0.52558 0.72392 0.98869 0.0
C5054 C 0.51922 0.70771 0.99115 0.0
C5055 C 0.50111 0.6614 1.00071 0.0
C5056 C 0.50698 0.67684 0.99581 0.0
H5057 H 0.5486 0.74354 0.96442 0.0
H5058 H 0.54065 0.7171 0.97139 0.0
H5059 H 0.49574 0.71115 0.9895 0.0
H5060 H 0.48428 0.64693 0.03244 0.0
H5061 H 0.4884 0.67078 0.01921 0.0
C5062 C 0.08658 0.77163 0.68967 0.0
C5063 C 0.07318 0.76766 0.69683 0.0
C5064 C 0.10035 0.77784 0.69975 0.0
C5065 C 0.11445 0.79797 0.74226 0.0
H5066 H 0.15284 0.78679 0.73295 0.0
C5067 C 0.18193 0.80619 0.76776 0.0
C5068 C 0.18097 0.79424 0.77802 0.0
C5069 C 0.16863 0.81004 0.76035 0.0
C5070 C 0.14223 0.79032 0.73543 0.0
H5071 H 0.06342 0.76594 0.71971 0.0
H5072 H 0.08763 0.7759 0.73743 0.0
H5073 H 0.12989 0.77643 0.71345 0.0
H5074 H 0.16606 0.77873 0.79078 0.0
H5075 H 0.14269 0.7856 0.77792 0.0
H5076 H 0.12681 0.81068 0.76509 0.0
C5077 C 0.08752 0.77486 0.72413 0.0
C5078 C 0.12911 0.78437 0.72432 0.0
C5079 C 0.07377 0.76886 0.71406 0.0
C5080 C 0.16694 0.78805 0.78298 0.0
C5081 C 0.15362 0.79202 0.77567 0.0
C5082 C 0.12757 0.80366 0.75357 0.0
C5083 C 0.10082 0.78 0.71707 0.0
C5084 C 0.11501 0.78775 0.72786 0.0
C5085 C 0.15441 0.80203 0.76333 0.0
C5086 C 0.14142 0.79958 0.75031 0.0
H5087 H 0.08618 0.77103 0.67634 0.0
H5088 H 0.11042 0.78169 0.69396 0.0
H5089 H 0.10378 0.80113 0.74506 0.0
H5090 H 0.19277 0.81106 0.76389 0.0
H5091 H 0.16937 0.81772 0.75078 0.0
C5092 C 0.07439 0.41336 0.48878 0.0
C5093 C 0.06918 0.40038 0.49685 0.0
C5094 C 0.0751 0.42853 0.49642 0.0
C5095 C 0.07259 0.45717 0.52868 0.0
H5096 H 0.03373 0.46029 0.5045 0.0
C5097 C 0.03351 0.50116 0.54589 0.0
C5098 C 0.02562 0.50631 0.53246 0.0
C5099 C 0.04332 0.49071 0.54303 0.0
C5100 C 0.04471 0.45973 0.51115 0.0
H5101 H 0.0624 0.39303 0.51987 0.0
H5102 H 0.06299 0.41981 0.53296 0.0
H5103 H 0.04451 0.43702 0.49842 0.0
H5104 H 0.02298 0.50646 0.50584 0.0
H5105 H 0.04033 0.4885 0.50086 0.0
H5106 H 0.07261 0.48005 0.54151 0.0
C5107 C 0.06686 0.41812 0.52093 0.0
C5108 C 0.05077 0.44641 0.50777 0.0
C5109 C 0.06625 0.40287 0.51334 0.0
C5110 C 0.0285 0.50205 0.51631 0.0
C5111 C 0.03853 0.49198 0.51349 0.0
C5112 C 0.06648 0.47068 0.53209 0.0
C5113 C 0.07052 0.43087 0.51212 0.0
C5114 C 0.06471 0.44512 0.51643 0.0
C5115 C 0.04543 0.48566 0.52675 0.0
C5116 C 0.05256 0.47203 0.5232 0.0
H5117 H 0.07648 0.41185 0.47599 0.0
H5118 H 0.07757 0.43831 0.48936 0.0
H5119 H 0.08336 0.45614 0.53544 0.0
H5120 H 0.03165 0.50477 0.55847 0.0
H5121 H 0.04854 0.48594 0.55341 0.0
C5122 C 0.44016 0.25766 0.21043 0.0
C5123 C 0.43686 0.26205 0.19467 0.0
C5124 C 0.43043 0.25958 0.2223 0.0
C5125 C 0.40481 0.28595 0.23217 0.0
H5126 H 0.39578 0.26038 0.26711 0.0
C5127 C 0.38141 0.31114 0.28843 0.0
C5128 C 0.3679 0.30199 0.29196 0.0
C5129 C 0.39057 0.30453 0.27811 0.0
C5130 C 0.39823 0.26758 0.25738 0.0
H5131 H 0.42046 0.27041 0.17819 0.0
H5132 H 0.40309 0.27336 0.1988 0.0
H5133 H 0.40845 0.25035 0.24429 0.0
H5134 H 0.35378 0.27857 0.28822 0.0
H5135 H 0.36987 0.267 0.2702 0.0
H5136 H 0.39453 0.30308 0.24497 0.0
C5137 C 0.41337 0.26888 0.20217 0.0
C5138 C 0.40546 0.26188 0.2444 0.0
C5139 C 0.4232 0.26718 0.19041 0.0
C5140 C 0.36424 0.28585 0.28588 0.0
C5141 C 0.37342 0.27923 0.27555 0.0
C5142 C 0.39764 0.29162 0.24508 0.0
C5143 C 0.41726 0.26579 0.21842 0.0
C5144 C 0.40878 0.27104 0.23169 0.0
C5145 C 0.38634 0.28867 0.27112 0.0
C5146 C 0.39437 0.28255 0.25784 0.0
H5147 H 0.45074 0.25371 0.21386 0.0
H5148 H 0.43374 0.25721 0.23475 0.0
H5149 H 0.40751 0.29342 0.22273 0.0
H5150 H 0.38459 0.32356 0.29314 0.0
H5151 H 0.40065 0.31197 0.27507 0.0
C5152 C 0.60497 0.52031 0.39183 0.0
C5153 C 0.60304 0.5292 0.37857 0.0
C5154 C 0.59644 0.52131 0.40534 0.0
C5155 C 0.57313 0.54759 0.42655 0.0
H5156 H 0.56055 0.51197 0.44976 0.0
C5157 C 0.53595 0.55435 0.4797 0.0
C5158 C 0.53757 0.54597 0.49332 0.0
C5159 C 0.54256 0.55083 0.46526 0.0
C5160 C 0.56405 0.52217 0.44363 0.0
H5161 H 0.58969 0.54561 0.36925 0.0
H5162 H 0.57504 0.54733 0.39244 0.0
H5163 H 0.57464 0.50883 0.42611 0.0
H5164 H 0.54765 0.52719 0.50228 0.0
H5165 H 0.55955 0.52121 0.47736 0.0
H5166 H 0.56303 0.56108 0.4441 0.0
C5167 C 0.58346 0.53984 0.3927 0.0
C5168 C 0.57222 0.52033 0.4299 0.0
C5169 C 0.59196 0.53884 0.37925 0.0
C5170 C 0.54576 0.53361 0.49187 0.0
C5171 C 0.5527 0.53026 0.47749 0.0
C5172 C 0.56511 0.54945 0.44027 0.0
C5173 C 0.58561 0.53125 0.40616 0.0
C5174 C 0.57687 0.533 0.421 0.0
C5175 C 0.55159 0.5391 0.464 0.0
C5176 C 0.56026 0.53679 0.44912 0.0
H5177 H 0.6134 0.51283 0.39206 0.0
H5178 H 0.59867 0.51456 0.41537 0.0
H5179 H 0.57671 0.55782 0.42049 0.0
H5180 H 0.52991 0.56408 0.48042 0.0
H5181 H 0.5408 0.55767 0.45521 0.0
C5182 C 0.23363 0.86798 0.13622 0.0
C5183 C 0.23311 0.85967 0.12047 0.0
C5184 C 0.23786 0.86138 0.15044 0.0
C5185 C 0.25842 0.83071 0.1647 0.0
H5186 H 0.23987 0.83898 0.20448 0.0
C5187 C 0.26986 0.80265 0.22573 0.0
C5188 C 0.27193 0.81314 0.24048 0.0
C5189 C 0.26554 0.80758 0.21043 0.0
C5190 C 0.24522 0.83663 0.19349 0.0
H5191 H 0.23644 0.83806 0.107 0.0
H5192 H 0.2436 0.82628 0.13184 0.0
H5193 H 0.23071 0.8486 0.17917 0.0
H5194 H 0.27195 0.83732 0.2505 0.0
H5195 H 0.26447 0.84574 0.22407 0.0
H5196 H 0.27283 0.81856 0.17917 0.0
C5197 C 0.24094 0.83796 0.13331 0.0
C5198 C 0.24001 0.8422 0.17896 0.0
C5199 C 0.23671 0.8446 0.11909 0.0
C5200 C 0.27031 0.82881 0.23947 0.0
C5201 C 0.26592 0.83366 0.2243 0.0
C5202 C 0.26355 0.825 0.17924 0.0
C5203 C 0.24168 0.8463 0.1492 0.0
C5204 C 0.24668 0.83953 0.16441 0.0
C5205 C 0.26312 0.82304 0.20965 0.0
C5206 C 0.25716 0.82813 0.19385 0.0
H5207 H 0.23099 0.87969 0.1375 0.0
H5208 H 0.2385 0.86828 0.1624 0.0
H5209 H 0.26398 0.82856 0.15382 0.0
H5210 H 0.27094 0.79048 0.22604 0.0
H5211 H 0.26348 0.79914 0.19931 0.0
C5212 C 0.9656 0.60037 0.8817 0.0
C5213 C 0.96568 0.59028 0.86707 0.0
C5214 C 0.97171 0.59704 0.89716 0.0
C5215 C 0.9956 0.57075 0.91717 0.0
H5216 H 0.97643 0.58271 0.95552 0.0
C5217 C 1.00162 0.54421 0.97953 0.0
C5218 C 1.00491 0.55493 0.99417 0.0
C5219 C 0.99851 0.54938 0.96409 0.0
C5220 C 0.98201 0.57941 0.94496 0.0
H5221 H 0.97301 0.56898 0.85751 0.0
H5222 H 0.98283 0.5628 0.88426 0.0
H5223 H 0.96762 0.58985 0.92871 0.0
H5224 H 1.00766 0.57951 1.00407 0.0
H5225 H 1.00158 0.58846 0.97713 0.0
H5226 H 0.00943 0.5596 0.93352 0.0
C5227 C 0.97832 0.5735 0.88389 0.0
C5228 C 0.97702 0.58359 0.9295 0.0
C5229 C 0.97239 0.57693 0.86843 0.0
C5230 C 1.0052 0.57098 0.99301 0.0
C5231 C 1.00166 0.57609 0.9776 0.0
C5232 C 1.00036 0.5663 0.93259 0.0
C5233 C 0.97797 0.58341 0.89859 0.0
C5234 C 0.98369 0.57932 0.91528 0.0
C5235 C 0.99819 0.56533 0.96296 0.0
C5236 C 0.99361 0.57056 0.94667 0.0
H5237 H 0.96046 0.61069 0.88132 0.0
H5238 H 0.97146 0.60524 0.90799 0.0
H5239 H 1.00136 0.56748 0.90677 0.0
H5240 H 1.0014 0.53178 0.98004 0.0
H5241 H 0.99586 0.54079 0.95307 0.0
C5242 C 0.29033 0.19981 0.58796 0.0
C5243 C 0.27936 0.20144 0.57497 0.0
C5244 C 0.29352 0.2107 0.60227 0.0
C5245 C 0.27695 0.24056 0.62535 0.0
H5246 H 0.31876 0.25752 0.64542 0.0
C5247 C 0.28708 0.29249 0.67296 0.0
C5248 C 0.29074 0.28776 0.68844 0.0
C5249 C 0.29046 0.28419 0.65881 0.0
C5250 C 0.30709 0.25286 0.63982 0.0
H5251 H 0.26328 0.21568 0.56653 0.0
H5252 H 0.2689 0.23474 0.59141 0.0
H5253 H 0.31372 0.23697 0.62134 0.0
H5254 H 0.30233 0.27226 0.70187 0.0
H5255 H 0.30824 0.25759 0.67693 0.0
H5256 H 0.2703 0.25647 0.64357 0.0
C5257 C 0.27483 0.22492 0.59073 0.0
C5258 C 0.30417 0.24107 0.62623 0.0
C5259 C 0.2716 0.21403 0.5765 0.0
C5260 C 0.29961 0.27612 0.68995 0.0
C5261 C 0.30296 0.26776 0.67574 0.0
C5262 C 0.27987 0.25239 0.6387 0.0
C5263 C 0.2858 0.22336 0.60375 0.0
C5264 C 0.28907 0.23501 0.61876 0.0
C5265 C 0.29738 0.27106 0.6601 0.0
C5266 C 0.29494 0.25879 0.64583 0.0
H5267 H 0.29635 0.19008 0.58708 0.0
H5268 H 0.30188 0.20912 0.61222 0.0
H5269 H 0.26519 0.23579 0.62015 0.0
H5270 H 0.2801 0.30135 0.67167 0.0
H5271 H 0.28612 0.28688 0.6468 0.0
C5272 C 0.60927 0.53678 0.20705 0.0
C5273 C 0.60236 0.52724 0.21804 0.0
C5274 C 0.60144 0.53801 0.19157 0.0
C5275 C 0.56767 0.51883 0.16019 0.0
H5276 H 0.57549 0.55909 0.14349 0.0
C5277 C 0.54651 0.52702 0.09193 0.0
C5278 C 0.542 0.54131 0.08907 0.0
C5279 C 0.55295 0.52485 0.10779 0.0
C5280 C 0.57299 0.54776 0.14794 0.0
H5281 H 0.58154 0.51133 0.22089 0.0
H5282 H 0.56786 0.51353 0.19398 0.0
H5283 H 0.58791 0.55627 0.17056 0.0
H5284 H 0.54067 0.56442 0.10102 0.0
H5285 H 0.5518 0.56067 0.12841 0.0
H5286 H 0.55246 0.51046 0.13758 0.0
C5287 C 0.57948 0.51998 0.19729 0.0
C5288 C 0.58035 0.54607 0.1635 0.0
C5289 C 0.58736 0.51872 0.21282 0.0
C5290 C 0.54399 0.55325 0.10262 0.0
C5291 C 0.55052 0.55113 0.1184 0.0
C5292 C 0.56029 0.52053 0.14457 0.0
C5293 C 0.58635 0.52977 0.18642 0.0
C5294 C 0.57795 0.53155 0.16989 0.0
C5295 C 0.55525 0.53694 0.12128 0.0
C5296 C 0.56287 0.53502 0.13813 0.0
H5297 H 0.6209 0.54324 0.21029 0.0
H5298 H 0.60739 0.54534 0.18354 0.0
H5299 H 0.5655 0.50741 0.1645 0.0
H5300 H 0.5451 0.51749 0.08189 0.0
H5301 H 0.55648 0.51378 0.10937 0.0
C5302 C 0.24545 0.86345 0.95452 0.0
C5303 C 0.23122 0.85853 0.96002 0.0
C5304 C 0.24886 0.85679 0.93935 0.0
C5305 C 0.23567 0.82264 0.90532 0.0
H5306 H 0.26407 0.84854 0.88236 0.0
C5307 C 0.25002 0.80492 0.83795 0.0
C5308 C 0.26575 0.80695 0.83661 0.0
C5309 C 0.2449 0.81045 0.85275 0.0
C5310 C 0.25615 0.84111 0.88863 0.0
H5311 H 0.20941 0.84244 0.95331 0.0
H5312 H 0.21502 0.83145 0.92654 0.0
H5313 H 0.25662 0.85978 0.90798 0.0
H5314 H 0.28837 0.81656 0.84978 0.0
H5315 H 0.27947 0.82661 0.87518 0.0
H5316 H 0.23496 0.80412 0.88537 0.0
C5317 C 0.22378 0.84024 0.93422 0.0
C5318 C 0.25193 0.84753 0.90349 0.0
C5319 C 0.22044 0.84677 0.94959 0.0
C5320 C 0.27619 0.81463 0.85039 0.0
C5321 C 0.27109 0.82051 0.86495 0.0
C5322 C 0.2397 0.8163 0.89022 0.0
C5323 C 0.23807 0.84515 0.9288 0.0
C5324 C 0.24183 0.83835 0.91232 0.0
C5325 C 0.25539 0.81856 0.86635 0.0
C5326 C 0.25019 0.8254 0.88183 0.0
H5327 H 0.25406 0.87266 0.96183 0.0
H5328 H 0.26012 0.86078 0.93603 0.0
H5329 H 0.22801 0.81503 0.91166 0.0
H5330 H 0.24169 0.79913 0.82753 0.0
H5331 H 0.23273 0.8088 0.8534 0.0
C5332 C 0.97677 0.59242 0.70547 0.0
C5333 C 0.96113 0.58734 0.70622 0.0
C5334 C 0.98318 0.58795 0.69133 0.0
C5335 C 0.97587 0.55746 0.65475 0.0
H5336 H 1.0077 0.5858 0.6385 0.0
C5337 C 0.99441 0.5469 0.59017 0.0
C5338 C 0.01014 0.54976 0.58903 0.0
C5339 C 0.98914 0.5505 0.60521 0.0
C5340 C 0.99897 0.57771 0.64307 0.0
H5341 H 0.93975 0.57434 0.69246 0.0
H5342 H 0.95085 0.56674 0.66771 0.0
H5343 H 0.99665 0.59495 0.66284 0.0
H5344 H 0.03275 0.55833 0.60259 0.0
H5345 H 0.02345 0.56498 0.62906 0.0
H5346 H 0.9779 0.5404 0.63464 0.0
C5347 C 0.95829 0.57377 0.6782 0.0
C5348 C 0.99263 0.58293 0.65698 0.0
C5349 C 0.95192 0.57816 0.69235 0.0
C5350 C 0.02057 0.5559 0.60325 0.0
C5351 C 0.01526 0.55981 0.61829 0.0
C5352 C 0.98211 0.55231 0.64077 0.0
C5353 C 0.97405 0.57838 0.67762 0.0
C5354 C 0.98094 0.57289 0.66293 0.0
C5355 C 0.99949 0.5573 0.61932 0.0
C5356 C 0.99366 0.5624 0.63478 0.0
H5357 H 0.98416 0.59941 0.71602 0.0
H5358 H 0.99538 0.59159 0.69136 0.0
H5359 H 0.96712 0.5493 0.6592 0.0
H5360 H 0.98615 0.54215 0.57933 0.0
H5361 H 0.97692 0.54855 0.60565 0.0
C5362 C 0.2734 0.2174 0.43437 0.0
C5363 C 0.26972 0.20129 0.42852 0.0
C5364 C 0.27523 0.22838 0.42322 0.0
C5365 C 0.26293 0.23214 0.3801 0.0
H5366 H 0.29476 0.26973 0.38729 0.0
C5367 C 0.27708 0.26949 0.32952 0.0
C5368 C 0.27216 0.28391 0.33177 0.0
C5369 C 0.27874 0.26091 0.34268 0.0
C5370 C 0.28579 0.25933 0.38533 0.0
H5371 H 0.26542 0.18367 0.40697 0.0
H5372 H 0.2686 0.20285 0.38729 0.0
H5373 H 0.29397 0.25084 0.40754 0.0
H5374 H 0.26593 0.30123 0.3494 0.0
H5375 H 0.26936 0.28619 0.37297 0.0
H5376 H 0.25503 0.2404 0.35771 0.0
C5377 C 0.26995 0.20708 0.4004 0.0
C5378 C 0.28531 0.24857 0.39681 0.0
C5379 C 0.2682 0.19613 0.41156 0.0
C5380 C 0.26975 0.29013 0.34755 0.0
C5381 C 0.27175 0.28163 0.3609 0.0
C5382 C 0.26351 0.24278 0.36862 0.0
C5383 C 0.27327 0.2233 0.40612 0.0
C5384 C 0.27392 0.23483 0.3942 0.0
C5385 C 0.27579 0.26678 0.35833 0.0
C5386 C 0.27495 0.25635 0.37115 0.0
H5387 H 0.27469 0.22145 0.44752 0.0
H5388 H 0.2777 0.24081 0.42793 0.0
H5389 H 0.25384 0.22184 0.37797 0.0
H5390 H 0.2788 0.2644 0.31735 0.0
H5391 H 0.28172 0.24939 0.34052 0.0
C5392 C 0.38676 0.62677 0.53515 0.0
C5393 C 0.38857 0.64115 0.52851 0.0
C5394 C 0.3976 0.61704 0.53391 0.0
C5395 C 0.43041 0.61029 0.51102 0.0
H5396 H 0.43937 0.58599 0.54657 0.0
C5397 C 0.48404 0.58172 0.51855 0.0
C5398 C 0.48222 0.56637 0.52291 0.0
C5399 C 0.47185 0.58979 0.51797 0.0
C5400 C 0.43687 0.59256 0.53644 0.0
H5401 H 0.40351 0.65658 0.51559 0.0
H5402 H 0.42247 0.63989 0.51371 0.0
H5403 H 0.42008 0.60241 0.54852 0.0
H5404 H 0.46613 0.54746 0.5301 0.0
H5405 H 0.4448 0.56168 0.52934 0.0
H5406 H 0.44764 0.60081 0.49928 0.0
C5407 C 0.41248 0.63585 0.51952 0.0
C5408 C 0.42575 0.60199 0.53752 0.0
C5409 C 0.40158 0.64551 0.52064 0.0
C5410 C 0.46781 0.55915 0.52638 0.0
C5411 C 0.45566 0.56737 0.52615 0.0
C5412 C 0.44165 0.60103 0.51007 0.0
C5413 C 0.41067 0.62142 0.5261 0.0
C5414 C 0.42236 0.61107 0.52485 0.0
C5415 C 0.45759 0.58286 0.5221 0.0
C5416 C 0.44506 0.59208 0.52277 0.0
H5417 H 0.37679 0.62287 0.54106 0.0
H5418 H 0.39556 0.60594 0.53889 0.0
H5419 H 0.42798 0.61676 0.50081 0.0
H5420 H 0.49506 0.58767 0.51599 0.0
H5421 H 0.47378 0.60173 0.51494 0.0
C5422 C 0.87448 1.00188 0.58975 0.0
C5423 C 0.86267 0.99481 0.57703 0.0
C5424 C 0.88911 0.00763 0.586 0.0
C5425 C 0.91355 1.00159 0.55386 0.0
H5426 H 0.93829 0.04174 0.57405 0.0
C5427 C 0.96971 0.02447 0.53086 0.0
C5428 C 0.98232 0.03019 0.54299 0.0
C5429 C 0.95497 0.02229 0.53519 0.0
C5430 C 0.93153 0.03046 0.56841 0.0
H5431 H 0.85685 0.98816 0.55048 0.0
H5432 H 0.88221 0.99838 0.54395 0.0
H5433 H 0.9127 0.03345 0.58169 0.0
H5434 H 0.98959 0.03905 0.56892 0.0
H5435 H 0.96372 0.03469 0.57667 0.0
H5436 H 0.93224 0.99839 0.54075 0.0
C5437 C 0.88024 0.99943 0.5568 0.0
C5438 C 0.91693 0.02572 0.57279 0.0
C5439 C 0.86568 0.99375 0.56053 0.0
C5440 C 0.97998 0.03451 0.55939 0.0
C5441 C 0.9652 0.03211 0.56379 0.0
C5442 C 0.92807 0.00629 0.54952 0.0
C5443 C 0.89215 0.00626 0.5695 0.0
C5444 C 0.90777 0.0113 0.56541 0.0
C5445 C 0.95259 0.02553 0.55178 0.0
C5446 C 0.93716 0.02083 0.5566 0.0
H5447 H 0.87241 1.00291 0.60257 0.0
H5448 H 0.89812 0.01275 0.59603 0.0
H5449 H 0.90689 0.99025 0.54826 0.0
H5450 H 0.97125 0.02138 0.51807 0.0
H5451 H 0.94543 0.01763 0.52559 0.0
C5452 C 0.84071 0.14447 0.26907 0.0
C5453 C 0.85254 0.14226 0.28103 0.0
C5454 C 0.83422 0.15821 0.27028 0.0
C5455 C 0.83955 0.1999 0.29424 0.0
H5456 H 0.79887 0.19812 0.27188 0.0
C5457 C 0.81241 0.25717 0.29302 0.0
C5458 C 0.79637 0.25582 0.29161 0.0
C5459 C 0.81932 0.24368 0.29191 0.0
C5460 C 0.81018 0.19901 0.27846 0.0
H5461 H 0.86659 0.15399 0.30379 0.0
H5462 H 0.855 0.1771 0.30627 0.0
H5463 H 0.81007 0.17476 0.27013 0.0
H5464 H 0.77523 0.23862 0.28788 0.0
H5465 H 0.78702 0.21547 0.28622 0.0
H5466 H 0.83935 0.22405 0.30308 0.0
C5467 C 0.85083 0.16833 0.29559 0.0
C5468 C 0.81686 0.1854 0.2772 0.0
C5469 C 0.85744 0.15466 0.2943 0.0
C5470 C 0.78758 0.24038 0.28912 0.0
C5471 C 0.79447 0.22692 0.28797 0.0
C5472 C 0.83281 0.21349 0.2956 0.0
C5473 C 0.83901 0.17054 0.28362 0.0
C5474 C 0.83176 0.18541 0.28503 0.0
C5475 C 0.81053 0.22815 0.28925 0.0
C5476 C 0.81793 0.21344 0.28776 0.0
H5477 H 0.83619 0.13547 0.25868 0.0
H5478 H 0.82544 0.1591 0.26046 0.0
H5479 H 0.85105 0.20095 0.30039 0.0
H5480 H 0.81971 0.26872 0.29485 0.0
H5481 H 0.83165 0.24554 0.29281 0.0
C5482 C 0.73375 0.14725 0.02277 0.0
C5483 C 0.74546 0.13868 0.02117 0.0
C5484 C 0.7186 0.13946 0.02178 0.0
C5485 C 0.69269 0.10013 0.01025 0.0
H5486 H 0.66859 0.11831 0.04089 0.0
C5487 C 0.63702 0.06623 0.02981 0.0
C5488 C 0.62513 0.07453 0.03191 0.0
C5489 C 0.65109 0.07389 0.02608 0.0
C5490 C 0.67508 0.11318 0.03209 0.0
H5491 H 0.75067 0.11537 0.01693 0.0
H5492 H 0.72426 0.1016 0.01593 0.0
H5493 H 0.69429 0.13195 0.0391 0.0
H5494 H 0.61838 0.09714 0.03064 0.0
H5495 H 0.64295 0.11052 0.0243 0.0
H5496 H 0.67347 0.08101 1.00379 0.0
C5497 C 0.72663 0.11435 0.0175 0.0
C5498 C 0.68985 0.12103 0.03101 0.0
C5499 C 0.74177 0.12219 0.01818 0.0
C5500 C 0.62741 0.09049 0.02947 0.0
C5501 C 0.64146 0.09815 0.02581 0.0
C5502 C 0.67792 0.09217 0.01147 0.0
C5503 C 0.71486 0.12288 0.01952 0.0
C5504 C 0.6989 0.11463 0.0201 0.0
C5505 C 0.65356 0.09002 0.02443 0.0
C5506 C 0.66898 0.09862 0.02244 0.0
H5507 H 0.73635 0.16001 0.02481 0.0
H5508 H 0.70984 0.14646 0.02292 0.0
H5509 H 0.69921 0.09492 1.00154 0.0
H5510 H 0.63569 0.05397 0.03173 0.0
H5511 H 0.66024 0.06735 0.02523 0.0
C5512 C 0.17049 0.4172 0.30657 0.0
C5513 C 0.17452 0.43098 0.29925 0.0
C5514 C 0.18011 0.40617 0.30724 0.0
C5515 C 0.21334 0.39428 0.28844 0.0
H5516 H 0.21416 0.36877 0.32437 0.0
C5517 C 0.25621 0.35209 0.2981 0.0
C5518 C 0.24925 0.3365 0.29912 0.0
C5519 C 0.2477 0.36413 0.29891 0.0
C5520 C 0.21402 0.37581 0.31426 0.0
H5521 H 0.19218 0.44416 0.28739 0.0
H5522 H 0.20909 0.42525 0.28892 0.0
H5523 H 0.19852 0.38901 0.32448 0.0
H5524 H 0.22815 0.32129 0.30226 0.0
H5525 H 0.21345 0.34247 0.30445 0.0
H5526 H 0.22924 0.38125 0.27855 0.0
C5527 C 0.19827 0.42262 0.2937 0.0
C5528 C 0.20496 0.38737 0.31421 0.0
C5529 C 0.18856 0.43355 0.29286 0.0
C5530 C 0.23377 0.33323 0.30147 0.0
C5531 C 0.22539 0.34533 0.30276 0.0
C5532 C 0.22262 0.38293 0.28867 0.0
C5533 C 0.19416 0.40867 0.30079 0.0
C5534 C 0.20432 0.3967 0.3012 0.0
C5535 C 0.23219 0.36087 0.30123 0.0
C5536 C 0.22295 0.37348 0.30149 0.0
H5537 H 0.1597 0.41474 0.31146 0.0
H5538 H 0.1763 0.39552 0.31253 0.0
H5539 H 0.21301 0.4009 0.278 0.0
H5540 H 0.26807 0.35487 0.29607 0.0
H5541 H 0.25323 0.37601 0.2977 0.0
C5542 C 0.20283 0.46891 0.05789 0.0
C5543 C 0.21385 0.47992 0.06878 0.0
C5544 C 0.18904 0.4728 0.05204 0.0
C5545 C 0.16389 0.50088 0.06021 0.0
H5546 H 0.15058 0.4918 0.01284 0.0
C5547 C 0.12326 0.5336 0.02691 0.0
C5548 C 0.10937 0.52412 0.01948 0.0
C5549 C 0.13557 0.52674 0.03182 0.0
C5550 C 0.15414 0.49419 0.02609 0.0
H5551 H 0.21906 0.50333 0.08254 0.0
H5552 H 0.19487 0.51023 0.07227 0.0
H5553 H 0.17297 0.48234 0.02476 0.0
H5554 H 0.09737 0.50028 0.01062 0.0
H5555 H 0.11939 0.48818 0.0188 0.0
H5556 H 0.14543 0.51329 0.06138 0.0
C5557 C 0.19685 0.49855 0.06838 0.0
C5558 C 0.16684 0.48878 0.03291 0.0
C5559 C 0.21066 0.49464 0.07425 0.0
C5560 C 0.10811 0.50774 0.01622 0.0
C5561 C 0.12058 0.50088 0.02088 0.0
C5562 C 0.15133 0.5064 0.05336 0.0
C5563 C 0.18603 0.48773 0.05705 0.0
C5564 C 0.17193 0.4923 0.05 0.0
C5565 C 0.13417 0.51036 0.02915 0.0
C5566 C 0.14656 0.50329 0.03627 0.0
H5567 H 0.20498 0.45735 0.05373 0.0
H5568 H 0.18077 0.46418 0.04353 0.0
H5569 H 0.16743 0.50349 0.07344 0.0
H5570 H 0.12433 0.54623 0.02978 0.0
H5571 H 0.14603 0.53418 0.03819 0.0
C5572 C 0.85131 0.96379 0.26663 0.0
C5573 C 0.84712 0.97657 0.27603 0.0
C5574 C 0.84459 0.94789 0.26753 0.0
C5575 C 0.81565 0.92198 0.29053 0.0
H5576 H 0.82469 0.88843 0.26051 0.0
C5577 C 0.78451 0.85507 0.28756 0.0
C5578 C 0.79357 0.84342 0.28586 0.0
C5579 C 0.79038 0.87111 0.28601 0.0
C5580 C 0.82201 0.89756 0.26913 0.0
H5581 H 0.8318 0.98174 0.29365 0.0
H5582 H 0.82009 0.95481 0.29506 0.0
H5583 H 0.8357 0.91545 0.25843 0.0
H5584 H 0.81599 0.83998 0.28074 0.0
H5585 H 0.8259 0.86736 0.27753 0.0
H5586 H 0.80158 0.90364 0.30083 0.0
C5587 C 0.82887 0.95667 0.28708 0.0
C5588 C 0.8285 0.91347 0.26801 0.0
C5589 C 0.83573 0.97255 0.2863 0.0
C5590 C 0.80854 0.84843 0.28212 0.0
C5591 C 0.81427 0.8643 0.28022 0.0
C5592 C 0.80896 0.90605 0.29144 0.0
C5593 C 0.83308 0.94372 0.27778 0.0
C5594 C 0.82568 0.92629 0.27877 0.0
C5595 C 0.80544 0.87612 0.28232 0.0
C5596 C 0.81208 0.89342 0.28087 0.0
H5597 H 0.86013 0.96599 0.25869 0.0
H5598 H 0.84878 0.93897 0.26015 0.0
H5599 H 0.81291 0.93079 0.29941 0.0
H5600 H 0.77299 0.85189 0.29056 0.0
H5601 H 0.78303 0.8796 0.28764 0.0
C5602 C 0.66909 0.08857 0.80481 0.0
C5603 C 0.6763 0.07636 0.80939 0.0
C5604 C 0.67753 0.10376 0.8054 0.0
C5605 C 0.71589 0.12952 0.81937 0.0
H5606 H 0.70437 0.14945 0.78111 0.0
C5607 C 0.74714 0.19116 0.8073 0.0
C5608 C 0.74836 0.19315 0.79068 0.0
C5609 C 0.73863 0.17727 0.81128 0.0
C5610 C 0.70787 0.14401 0.79179 0.0
H5611 H 0.69777 0.07052 0.81897 0.0
H5612 H 0.71272 0.09696 0.8194 0.0
H5613 H 0.68891 0.12495 0.78554 0.0
H5614 H 0.74254 0.18199 0.7653 0.0
H5615 H 0.72821 0.15763 0.77217 0.0
H5616 H 0.73541 0.14835 0.82501 0.0
C5617 C 0.7005 0.09493 0.81567 0.0
C5618 C 0.6988 0.13005 0.79454 0.0
C5619 C 0.69198 0.07976 0.81533 0.0
C5620 C 0.74152 0.18083 0.77818 0.0
C5621 C 0.73324 0.16693 0.78215 0.0
C5622 C 0.72512 0.14348 0.81651 0.0
C5623 C 0.69343 0.10703 0.81027 0.0
C5624 C 0.70271 0.12252 0.80827 0.0
C5625 C 0.73134 0.1651 0.79869 0.0
C5626 C 0.72132 0.15075 0.80251 0.0
H5627 H 0.65694 0.0863 0.80054 0.0
H5628 H 0.6716 0.11287 0.80165 0.0
H5629 H 0.71916 0.12415 0.8302 0.0
H5630 H 0.7523 0.20056 0.81715 0.0
H5631 H 0.73735 0.17629 0.82414 0.0
loop_
_geom_bond_atom_site_label_1
_geom_bond_atom_site_label_2
_geom_bond_distance
_geom_bond_site_symmetry_2
_ccdc_geom_bond_type
Li0 N17 1.990 1_455 S
Li0 O60 1.956 . S
Li0 O61 1.970 . S
Li0 O62 1.961 . S
Li1 N25 1.990 . S
Li1 O60 1.970 . S
Li1 O61 1.956 . S
Li1 O63 1.961 . S
Li2 N47 1.990 . S
Li2 O60 1.961 . S
Li2 O62 1.956 . S
Li2 O63 1.970 . S
Li3 N53 1.990 . S
Li3 O61 1.961 . S
Li3 O62 1.970 . S
Li3 O63 1.956 . S
C4 C6 1.348 . S
C4 C7 1.356 . S
C4 O60 1.325 . S
N5 C8 1.314 . S
N5 C9 1.279 . S
C6 C4 1.348 . S
C6 C8 1.353 . S
C6 H64 0.929 . S
C7 C4 1.356 . S
C7 C9 1.358 . S
C7 H65 0.930 . S
C8 N5 1.314 . S
C8 C6 1.353 . S
C8 H66 0.930 . S
C9 N5 1.279 . S
C9 C7 1.358 . S
C9 H67 0.930 . S
C10 C13 1.348 1_455 S
C10 C14 1.356 . S
C10 O61 1.325 . S
C11 N12 1.279 . S
C11 C14 1.358 1_655 S
C11 H68 0.930 . S
N12 C11 1.279 . S
N12 C15 1.314 . S
C13 C10 1.348 1_655 S
C13 C15 1.353 . S
C13 H69 0.929 . S
C14 C10 1.356 . S
C14 C11 1.358 1_455 S
C14 H70 0.930 . S
C15 N12 1.314 . S
C15 C13 1.353 . S
C15 H71 0.930 . S
C16 N17 1.314 . S
C16 C21 1.353 . S
C16 H22 0.930 . S
N17 Li0 1.990 1_655 S
N17 C16 1.314 . S
N17 C19 1.279 . S
C18 C19 1.358 . S
C18 C20 1.356 . S
C18 H72 0.930 . S
C19 N17 1.279 . S
C19 C18 1.358 . S
C19 H23 0.930 . S
C20 C18 1.356 . S
C20 C21 1.348 . S
C21 C16 1.353 . S
C21 C20 1.348 . S
C21 H73 0.929 . S
H22 C16 0.930 . S
H23 C19 0.930 . S
C24 N25 1.314 . S
C24 C26 1.353 . S
C24 H30 0.930 . S
N25 Li1 1.990 . S
N25 C24 1.314 . S
N25 C28 1.279 . S
C26 C24 1.353 . S
C26 C29 1.348 . S
C26 H74 0.929 . S
C27 C28 1.358 . S
C27 C29 1.356 . S
C27 H75 0.930 . S
C28 N25 1.279 . S
C28 C27 1.358 . S
C28 H31 0.930 . S
C29 C26 1.348 . S
C29 C27 1.356 . S
H30 C24 0.930 . S
H31 C28 0.930 . S
C32 C34 1.348 . S
C32 C35 1.356 . S
C32 O62 1.325 . S
N33 C36 1.314 . S
N33 C37 1.279 . S
C34 C32 1.348 . S
C34 C36 1.353 . S
C34 H76 0.929 . S
C35 C32 1.356 . S
C35 C37 1.358 . S
C35 H77 0.930 . S
C36 N33 1.314 . S
C36 C34 1.353 . S
C36 H78 0.930 . S
C37 N33 1.279 . S
C37 C35 1.358 . S
C37 H79 0.930 . S
C38 C39 1.348 . S
C38 C40 1.356 . S
C38 O63 1.325 . S
C39 C38 1.348 . S
C39 C41 1.353 . S
C39 H80 0.929 . S
C40 C38 1.356 . S
C40 C42 1.358 . S
C40 H81 0.930 . S
C41 C39 1.353 . S
C41 N43 1.314 . S
C41 H82 0.930 . S
C42 C40 1.358 . S
C42 N43 1.279 . S
C42 H83 0.930 . S
N43 C41 1.314 . S
N43 C42 1.279 . S
C44 C46 1.353 . S
C44 N47 1.314 . S
C44 H50 0.930 . S
C45 N47 1.279 . S
C45 C48 1.358 . S
C45 H51 0.930 . S
C46 C44 1.353 . S
C46 C49 1.348 . S
C46 H84 0.929 . S
N47 Li2 1.990 . S
N47 C44 1.314 . S
N47 C45 1.279 . S
C48 C45 1.358 . S
C48 C49 1.356 . S
C48 H85 0.930 . S
C49 C46 1.348 . S
C49 C48 1.356 . S
H50 C44 0.930 . S
H51 C45 0.930 . S
C52 N53 1.314 . S
C52 C54 1.353 . S
C52 H58 0.930 . S
N53 Li3 1.990 . S
N53 C52 1.314 . S
N53 C56 1.279 . S
C54 C52 1.353 . S
C54 C57 1.348 . S
C54 H86 0.929 . S
C55 C56 1.358 . S
C55 C57 1.356 . S
C55 H87 0.930 . S
C56 N53 1.279 . S
C56 C55 1.358 . S
C56 H59 0.930 . S
C57 C54 1.348 . S
C57 C55 1.356 . S
H58 C52 0.930 . S
H59 C56 0.930 . S
O60 Li0 1.956 . S
O60 Li1 1.970 . S
O60 Li2 1.961 . S
O60 C4 1.325 . S
O61 Li0 1.970 . S
O61 Li1 1.956 . S
O61 Li3 1.961 . S
O61 C10 1.325 . S
O62 Li0 1.961 . S
O62 Li2 1.956 . S
O62 Li3 1.970 . S
O62 C32 1.325 . S
O63 Li1 1.961 . S
O63 Li2 1.970 . S
O63 Li3 1.956 . S
O63 C38 1.325 . S
H64 C6 0.929 . S
H65 C7 0.930 . S
H66 C8 0.930 . S
H67 C9 0.930 . S
H68 C11 0.930 . S
H69 C13 0.929 . S
H70 C14 0.930 . S
H71 C15 0.930 . S
H72 C18 0.930 . S
H73 C21 0.929 . S
H74 C26 0.929 . S
H75 C27 0.930 . S
H76 C34 0.929 . S
H77 C35 0.930 . S
H78 C36 0.930 . S
H79 C37 0.930 . S
H80 C39 0.929 . S
H81 C40 0.930 . S
H82 C41 0.930 . S
H83 C42 0.930 . S
H84 C46 0.929 . S
H85 C48 0.930 . S
H86 C54 0.929 . S
H87 C55 0.930 . S
Li88 N105 1.990 . S
Li88 O148 1.956 . S
Li88 O149 1.970 . S
Li88 O150 1.961 1_455 S
Li89 N113 1.990 . S
Li89 O148 1.970 . S
Li89 O149 1.956 . S
Li89 O151 1.962 . S
Li90 N135 1.990 . S
Li90 O148 1.961 1_655 S
Li90 O150 1.956 . S
Li90 O151 1.970 1_655 S
Li91 N141 1.990 . S
Li91 O149 1.961 1_655 S
Li91 O150 1.970 . S
Li91 O151 1.954 1_655 S
C92 C94 1.348 . S
C92 C95 1.356 . S
C92 O148 1.325 . S
N93 C96 1.314 . S
N93 C97 1.279 . S
C94 C92 1.348 . S
C94 C96 1.353 . S
C94 H152 0.929 . S
C95 C92 1.356 . S
C95 C97 1.358 . S
C95 H153 0.930 . S
C96 N93 1.314 . S
C96 C94 1.353 . S
C96 H154 0.930 . S
C97 N93 1.279 . S
C97 C95 1.358 . S
C97 H155 0.930 . S
C98 C101 1.348 . S
C98 C102 1.356 . S
C98 O149 1.325 . S
C99 N100 1.279 . S
C99 C102 1.358 . S
C99 H156 0.930 . S
N100 C99 1.279 . S
N100 C103 1.314 . S
C101 C98 1.348 . S
C101 C103 1.353 . S
C101 H157 0.929 . S
C102 C98 1.356 . S
C102 C99 1.358 . S
C102 H158 0.940 . S
C103 N100 1.314 . S
C103 C101 1.353 . S
C103 H159 0.930 . S
C104 N105 1.314 1_655 S
C104 C109 1.353 . S
C104 H110 0.930 . S
N105 Li88 1.990 . S
N105 C104 1.314 1_455 S
N105 C107 1.279 . S
C106 C107 1.358 . S
C106 C108 1.356 . S
C106 H160 0.930 . S
C107 N105 1.279 . S
C107 C106 1.358 . S
C107 H111 0.930 . S
C108 C106 1.356 . S
C108 C109 1.348 1_455 S
C109 C104 1.353 . S
C109 C108 1.348 1_655 S
C109 H161 0.929 . S
H110 C104 0.930 . S
H111 C107 0.930 . S
C112 N113 1.314 . S
C112 C114 1.353 . S
C112 H118 0.930 . S
N113 Li89 1.990 . S
N113 C112 1.314 . S
N113 C116 1.279 . S
C114 C112 1.353 . S
C114 C117 1.348 . S
C114 H162 0.929 . S
C115 C116 1.358 . S
C115 C117 1.356 . S
C115 H163 0.930 . S
C116 N113 1.279 . S
C116 C115 1.358 . S
C116 H119 0.930 . S
C117 C114 1.348 . S
C117 C115 1.356 . S
H118 C112 0.930 . S
H119 C116 0.930 . S
C120 C122 1.348 . S
C120 C123 1.356 . S
C120 O150 1.325 . S
N121 C124 1.314 . S
N121 C125 1.279 . S
C122 C120 1.348 . S
C122 C124 1.353 . S
C122 H164 0.929 . S
C123 C120 1.356 . S
C123 C125 1.358 . S
C123 H165 0.930 . S
C124 N121 1.314 . S
C124 C122 1.353 . S
C124 H166 0.930 . S
C125 N121 1.279 . S
C125 C123 1.358 . S
C125 H167 0.930 . S
C126 C127 1.358 . S
C126 C128 1.350 1_655 S
C126 O151 1.327 1_655 S
C127 C126 1.358 . S
C127 C129 1.353 . S
C127 H168 0.929 . S
C128 C126 1.350 1_455 S
C128 C130 1.358 . S
C128 H169 0.930 . S
C129 C127 1.353 . S
C129 N131 1.314 . S
C129 H170 0.930 . S
C130 C128 1.358 . S
C130 N131 1.279 1_455 S
C130 H171 0.930 . S
N131 C129 1.314 . S
N131 C130 1.279 1_655 S
C132 C134 1.353 . S
C132 N135 1.314 1_455 S
C132 H138 0.930 . S
C133 N135 1.279 . S
C133 C136 1.358 . S
C133 H139 0.930 . S
C134 C132 1.353 . S
C134 C137 1.348 1_455 S
C134 H172 0.929 . S
N135 Li90 1.990 . S
N135 C132 1.314 1_655 S
N135 C133 1.279 . S
C136 C133 1.358 . S
C136 C137 1.356 . S
C136 H173 0.930 . S
C137 C134 1.348 1_655 S
C137 C136 1.356 . S
H138 C132 0.930 . S
H139 C133 0.930 . S
C140 N141 1.314 . S
C140 C142 1.353 . S
C140 H146 0.930 . S
N141 Li91 1.990 . S
N141 C140 1.314 . S
N141 C144 1.279 . S
C142 C140 1.353 . S
C142 C145 1.348 . S
C142 H174 0.929 . S
C143 C144 1.358 . S
C143 C145 1.356 . S
C143 H175 0.930 . S
C144 N141 1.279 . S
C144 C143 1.358 . S
C144 H147 0.930 . S
C145 C142 1.348 . S
C145 C143 1.356 . S
H146 C140 0.930 . S
H147 C144 0.930 . S
O148 Li88 1.956 . S
O148 Li89 1.970 . S
O148 Li90 1.961 1_455 S
O148 C92 1.325 . S
O149 Li88 1.970 . S
O149 Li89 1.956 . S
O149 Li91 1.961 1_455 S
O149 C98 1.325 . S
O150 Li88 1.961 1_655 S
O150 Li90 1.956 . S
O150 Li91 1.970 . S
O150 C120 1.325 . S
O151 Li89 1.962 . S
O151 Li90 1.970 1_455 S
O151 Li91 1.954 1_455 S
O151 C126 1.327 1_455 S
H152 C94 0.929 . S
H153 C95 0.930 . S
H154 C96 0.930 . S
H155 C97 0.930 . S
H156 C99 0.930 . S
H157 C101 0.929 . S
H158 C102 0.940 . S
H159 C103 0.930 . S
H160 C106 0.930 . S
H161 C109 0.929 . S
H162 C114 0.929 . S
H163 C115 0.930 . S
H164 C122 0.929 . S
H165 C123 0.930 . S
H166 C124 0.930 . S
H167 C125 0.930 . S
H168 C127 0.929 . S
H169 C128 0.930 . S
H170 C129 0.930 . S
H171 C130 0.930 . S
H172 C134 0.929 . S
H173 C136 0.930 . S
H174 C142 0.929 . S
H175 C143 0.930 . S
Li176 N193 1.990 . S
Li176 O236 1.956 . S
Li176 O237 1.970 . S
Li176 O238 1.961 . S
Li177 N201 1.990 . S
Li177 O236 1.970 . S
Li177 O237 1.956 . S
Li177 O239 1.961 . S
Li178 N223 1.990 . S
Li178 O236 1.961 . S
Li178 O238 1.956 . S
Li178 O239 1.970 . S
Li179 N229 1.990 . S
Li179 O237 1.961 . S
Li179 O238 1.970 . S
Li179 O239 1.956 . S
C180 C182 1.348 . S
C180 C183 1.356 . S
C180 O236 1.325 . S
N181 C184 1.314 . S
N181 C185 1.279 . S
C182 C180 1.348 . S
C182 C184 1.353 . S
C182 H240 0.929 . S
C183 C180 1.356 . S
C183 C185 1.358 . S
C183 H241 0.930 . S
C184 N181 1.314 . S
C184 C182 1.353 . S
C184 H242 0.930 . S
C185 N181 1.279 . S
C185 C183 1.358 . S
C185 H243 0.930 . S
C186 C189 1.348 . S
C186 C190 1.356 . S
C186 O237 1.325 . S
C187 N188 1.279 . S
C187 C190 1.358 . S
C187 H244 0.930 . S
N188 C187 1.279 . S
N188 C191 1.314 . S
C189 C186 1.348 . S
C189 C191 1.353 . S
C189 H245 0.929 . S
C190 C186 1.356 . S
C190 C187 1.358 . S
C190 H246 0.930 . S
C191 N188 1.314 . S
C191 C189 1.353 . S
C191 H247 0.930 . S
C192 N193 1.314 . S
C192 C197 1.353 . S
C192 H198 0.930 . S
N193 Li176 1.990 . S
N193 C192 1.314 . S
N193 C195 1.279 . S
C194 C195 1.358 . S
C194 C196 1.356 . S
C194 H248 0.930 . S
C195 N193 1.279 . S
C195 C194 1.358 . S
C195 H199 0.930 . S
C196 C194 1.356 . S
C196 C197 1.348 . S
C197 C192 1.353 . S
C197 C196 1.348 . S
C197 H249 0.929 . S
H198 C192 0.930 . S
H199 C195 0.930 . S
C200 N201 1.314 . S
C200 C202 1.353 . S
C200 H206 0.930 . S
N201 Li177 1.990 . S
N201 C200 1.314 . S
N201 C204 1.279 . S
C202 C200 1.353 . S
C202 C205 1.348 . S
C202 H250 0.929 . S
C203 C204 1.358 . S
C203 C205 1.356 . S
C203 H251 0.930 . S
C204 N201 1.279 . S
C204 C203 1.358 . S
C204 H207 0.930 . S
C205 C202 1.348 . S
C205 C203 1.356 . S
H206 C200 0.930 . S
H207 C204 0.930 . S
C208 C210 1.348 . S
C208 C211 1.356 . S
C208 O238 1.325 . S
N209 C212 1.314 . S
N209 C213 1.279 . S
C210 C208 1.348 . S
C210 C212 1.353 . S
C210 H252 0.929 . S
C211 C208 1.356 . S
C211 C213 1.358 . S
C211 H253 0.930 . S
C212 N209 1.314 . S
C212 C210 1.353 . S
C212 H254 0.930 . S
C213 N209 1.279 . S
C213 C211 1.358 . S
C213 H255 0.930 . S
C214 C215 1.348 . S
C214 C216 1.356 . S
C214 O239 1.325 . S
C215 C214 1.348 . S
C215 C217 1.353 . S
C215 H256 0.929 . S
C216 C214 1.356 . S
C216 C218 1.358 . S
C216 H257 0.930 . S
C217 C215 1.353 . S
C217 N219 1.314 . S
C217 H258 0.930 . S
C218 C216 1.358 . S
C218 N219 1.279 . S
C218 H259 0.930 . S
N219 C217 1.314 . S
N219 C218 1.279 . S
C220 C222 1.353 . S
C220 N223 1.314 . S
C220 H226 0.930 . S
C221 N223 1.279 . S
C221 C224 1.358 . S
C221 H227 0.930 . S
C222 C220 1.353 . S
C222 C225 1.348 . S
C222 H260 0.929 . S
N223 Li178 1.990 . S
N223 C220 1.314 . S
N223 C221 1.279 . S
C224 C221 1.358 . S
C224 C225 1.356 . S
C224 H261 0.930 . S
C225 C222 1.348 . S
C225 C224 1.356 . S
H226 C220 0.930 . S
H227 C221 0.930 . S
C228 N229 1.314 . S
C228 C230 1.353 . S
C228 H234 0.930 . S
N229 Li179 1.990 . S
N229 C228 1.314 . S
N229 C232 1.279 . S
C230 C228 1.353 . S
C230 C233 1.348 . S
C230 H262 0.929 . S
C231 C232 1.358 . S
C231 C233 1.356 . S
C231 H263 0.930 . S
C232 N229 1.279 . S
C232 C231 1.358 . S
C232 H235 0.930 . S
C233 C230 1.348 . S
C233 C231 1.356 . S
H234 C228 0.930 . S
H235 C232 0.930 . S
O236 Li176 1.956 . S
O236 Li177 1.970 . S
O236 Li178 1.961 . S
O236 C180 1.325 . S
O237 Li176 1.970 . S
O237 Li177 1.956 . S
O237 Li179 1.961 . S
O237 C186 1.325 . S
O238 Li176 1.961 . S
O238 Li178 1.956 . S
O238 Li179 1.970 . S
O238 C208 1.325 . S
O239 Li177 1.961 . S
O239 Li178 1.970 . S
O239 Li179 1.956 . S
O239 C214 1.325 . S
H240 C182 0.929 . S
H241 C183 0.930 . S
H242 C184 0.930 . S
H243 C185 0.930 . S
H244 C187 0.930 . S
H245 C189 0.929 . S
H246 C190 0.930 . S
H247 C191 0.930 . S
H248 C194 0.930 . S
H249 C197 0.929 . S
H250 C202 0.929 . S
H251 C203 0.930 . S
H252 C210 0.929 . S
H253 C211 0.930 . S
H254 C212 0.930 . S
H255 C213 0.930 . S
H256 C215 0.929 . S
H257 C216 0.930 . S
H258 C217 0.930 . S
H259 C218 0.930 . S
H260 C222 0.929 . S
H261 C224 0.930 . S
H262 C230 0.929 . S
H263 C231 0.930 . S
Li264 N281 1.990 . S
Li264 O324 1.956 . S
Li264 O325 1.970 . S
Li264 O326 1.961 . S
Li265 N289 1.990 . S
Li265 O324 1.970 . S
Li265 O325 1.956 . S
Li265 O327 1.961 . S
Li266 N311 1.990 . S
Li266 O324 1.961 . S
Li266 O326 1.956 . S
Li266 O327 1.970 . S
Li267 N317 1.990 . S
Li267 O325 1.961 . S
Li267 O326 1.970 . S
Li267 O327 1.956 . S
C268 C270 1.348 . S
C268 C271 1.356 . S
C268 O324 1.325 . S
N269 C272 1.314 . S
N269 C273 1.279 . S
C270 C268 1.348 . S
C270 C272 1.353 . S
C270 H328 0.929 . S
C271 C268 1.356 . S
C271 C273 1.358 . S
C271 H329 0.930 . S
C272 N269 1.314 . S
C272 C270 1.353 . S
C272 H330 0.930 . S
C273 N269 1.279 . S
C273 C271 1.358 . S
C273 H331 0.930 . S
C274 C277 1.348 . S
C274 C278 1.356 . S
C274 O325 1.325 . S
C275 N276 1.279 . S
C275 C278 1.358 . S
C275 H332 0.930 . S
N276 C275 1.279 . S
N276 C279 1.314 . S
C277 C274 1.348 . S
C277 C279 1.353 . S
C277 H333 0.929 . S
C278 C274 1.356 . S
C278 C275 1.358 . S
C278 H334 0.930 . S
C279 N276 1.314 . S
C279 C277 1.353 . S
C279 H335 0.930 . S
C280 N281 1.314 . S
C280 C285 1.353 . S
C280 H286 0.930 . S
N281 Li264 1.990 . S
N281 C280 1.314 . S
N281 C283 1.279 . S
C282 C283 1.358 . S
C282 C284 1.356 . S
C282 H336 0.930 . S
C283 N281 1.279 . S
C283 C282 1.358 . S
C283 H287 0.930 . S
C284 C282 1.356 . S
C284 C285 1.348 . S
C285 C280 1.353 . S
C285 C284 1.348 . S
C285 H337 0.929 . S
H286 C280 0.930 . S
H287 C283 0.930 . S
C288 N289 1.314 . S
C288 C290 1.353 . S
C288 H294 0.930 . S
N289 Li265 1.990 . S
N289 C288 1.314 . S
N289 C292 1.279 . S
C290 C288 1.353 . S
C290 C293 1.348 . S
C290 H338 0.929 . S
C291 C292 1.358 . S
C291 C293 1.356 . S
C291 H339 0.930 . S
C292 N289 1.279 . S
C292 C291 1.358 . S
C292 H295 0.930 . S
C293 C290 1.348 . S
C293 C291 1.356 . S
H294 C288 0.930 . S
H295 C292 0.930 . S
C296 C298 1.348 . S
C296 C299 1.356 . S
C296 O326 1.325 . S
N297 C300 1.314 . S
N297 C301 1.279 . S
C298 C296 1.348 . S
C298 C300 1.353 . S
C298 H340 0.929 . S
C299 C296 1.356 . S
C299 C301 1.358 . S
C299 H341 0.930 . S
C300 N297 1.314 . S
C300 C298 1.353 . S
C300 H342 0.930 . S
C301 N297 1.279 . S
C301 C299 1.358 . S
C301 H343 0.930 . S
C302 C303 1.348 . S
C302 C304 1.356 . S
C302 O327 1.325 . S
C303 C302 1.348 . S
C303 C305 1.353 . S
C303 H344 0.929 . S
C304 C302 1.356 . S
C304 C306 1.358 . S
C304 H345 0.930 . S
C305 C303 1.353 . S
C305 N307 1.314 . S
C305 H346 0.930 . S
C306 C304 1.358 . S
C306 N307 1.279 . S
C306 H347 0.930 . S
N307 C305 1.314 . S
N307 C306 1.279 . S
C308 C310 1.353 . S
C308 N311 1.314 . S
C308 H314 0.930 . S
C309 N311 1.279 . S
C309 C312 1.358 . S
C309 H315 0.930 . S
C310 C308 1.353 . S
C310 C313 1.348 . S
C310 H348 0.929 . S
N311 Li266 1.990 . S
N311 C308 1.314 . S
N311 C309 1.279 . S
C312 C309 1.358 . S
C312 C313 1.356 . S
C312 H349 0.930 . S
C313 C310 1.348 . S
C313 C312 1.356 . S
H314 C308 0.930 . S
H315 C309 0.930 . S
C316 N317 1.314 . S
C316 C318 1.353 . S
C316 H322 0.930 . S
N317 Li267 1.990 . S
N317 C316 1.314 . S
N317 C320 1.279 . S
C318 C316 1.353 . S
C318 C321 1.348 . S
C318 H350 0.929 . S
C319 C320 1.358 . S
C319 C321 1.356 . S
C319 H351 0.930 . S
C320 N317 1.279 . S
C320 C319 1.358 . S
C320 H323 0.930 . S
C321 C318 1.348 . S
C321 C319 1.356 . S
H322 C316 0.930 . S
H323 C320 0.930 . S
O324 Li264 1.956 . S
O324 Li265 1.970 . S
O324 Li266 1.961 . S
O324 C268 1.325 . S
O325 Li264 1.970 . S
O325 Li265 1.956 . S
O325 Li267 1.961 . S
O325 C274 1.325 . S
O326 Li264 1.961 . S
O326 Li266 1.956 . S
O326 Li267 1.970 . S
O326 C296 1.325 . S
O327 Li265 1.961 . S
O327 Li266 1.970 . S
O327 Li267 1.956 . S
O327 C302 1.325 . S
H328 C270 0.929 . S
H329 C271 0.930 . S
H330 C272 0.930 . S
H331 C273 0.930 . S
H332 C275 0.930 . S
H333 C277 0.929 . S
H334 C278 0.930 . S
H335 C279 0.930 . S
H336 C282 0.930 . S
H337 C285 0.929 . S
H338 C290 0.929 . S
H339 C291 0.930 . S
H340 C298 0.929 . S
H341 C299 0.930 . S
H342 C300 0.930 . S
H343 C301 0.930 . S
H344 C303 0.929 . S
H345 C304 0.930 . S
H346 C305 0.930 . S
H347 C306 0.930 . S
H348 C310 0.929 . S
H349 C312 0.930 . S
H350 C318 0.929 . S
H351 C319 0.930 . S
Li352 N369 1.990 . S
Li352 O412 1.956 . S
Li352 O413 1.970 . S
Li352 O414 1.961 1_455 S
Li353 N377 1.990 . S
Li353 O412 1.970 . S
Li353 O413 1.956 . S
Li353 O415 1.961 . S
Li354 N399 1.990 . S
Li354 O412 1.961 . S
Li354 O414 1.956 1_455 S
Li354 O415 1.970 . S
Li355 N405 1.990 . S
Li355 O413 1.961 1_655 S
Li355 O414 1.970 . S
Li355 O415 1.956 1_655 S
C356 C358 1.348 . S
C356 C359 1.356 . S
C356 O412 1.325 . S
N357 C360 1.314 . S
N357 C361 1.279 . S
C358 C356 1.348 . S
C358 C360 1.353 . S
C358 H416 0.929 . S
C359 C356 1.356 . S
C359 C361 1.358 . S
C359 H417 0.930 . S
C360 N357 1.314 . S
C360 C358 1.353 . S
C360 H418 0.930 . S
C361 N357 1.279 . S
C361 C359 1.358 . S
C361 H419 0.930 . S
C362 C365 1.348 . S
C362 C366 1.356 . S
C362 O413 1.325 . S
C363 N364 1.279 . S
C363 C366 1.358 . S
C363 H420 0.930 . S
N364 C363 1.279 . S
N364 C367 1.314 . S
C365 C362 1.348 . S
C365 C367 1.353 . S
C365 H421 0.929 . S
C366 C362 1.356 . S
C366 C363 1.358 . S
C366 H422 0.930 . S
C367 N364 1.314 . S
C367 C365 1.353 . S
C367 H423 0.930 . S
C368 N369 1.361 . S
C368 C373 1.348 . S
C368 H374 0.886 1_455 S
N369 Li352 1.990 . S
N369 C368 1.361 . S
N369 C371 1.279 . S
C370 C371 1.358 . S
C370 C372 1.356 . S
C370 H424 0.930 . S
C371 N369 1.279 . S
C371 C370 1.358 . S
C371 H375 0.930 . S
C372 C370 1.356 . S
C372 C373 1.353 . S
C373 C368 1.348 . S
C373 C372 1.353 . S
C373 H425 0.924 1_455 S
H374 C368 0.886 1_655 S
H375 C371 0.930 . S
C376 N377 1.314 . S
C376 C378 1.353 . S
C376 H382 0.930 . S
N377 Li353 1.990 . S
N377 C376 1.314 . S
N377 C380 1.279 . S
C378 C376 1.353 . S
C378 C381 1.348 . S
C378 H426 0.929 . S
C379 C380 1.358 . S
C379 C381 1.356 . S
C379 H427 0.930 . S
C380 N377 1.279 . S
C380 C379 1.358 . S
C380 H383 0.930 . S
C381 C378 1.348 . S
C381 C379 1.356 . S
H382 C376 0.930 . S
H383 C380 0.930 . S
C384 C386 1.348 . S
C384 C387 1.356 . S
C384 O414 1.325 . S
N385 C388 1.314 . S
N385 C389 1.279 . S
C386 C384 1.348 . S
C386 C388 1.353 . S
C386 H428 0.929 . S
C387 C384 1.356 . S
C387 C389 1.358 . S
C387 H429 0.930 . S
C388 N385 1.314 . S
C388 C386 1.353 . S
C388 H430 0.930 . S
C389 N385 1.279 . S
C389 C387 1.358 . S
C389 H431 0.930 . S
C390 C391 1.348 . S
C390 C392 1.356 . S
C390 O415 1.325 . S
C391 C390 1.348 . S
C391 C393 1.353 . S
C391 H432 0.915 1_455 S
C392 C390 1.356 . S
C392 C394 1.358 . S
C392 H433 0.930 . S
C393 C391 1.353 . S
C393 N395 1.314 . S
C393 H434 0.930 1_455 S
C394 C392 1.358 . S
C394 N395 1.279 . S
C394 H435 0.930 . S
N395 C393 1.314 . S
N395 C394 1.279 . S
C396 C398 1.353 . S
C396 N399 1.314 . S
C396 H402 0.930 . S
C397 N399 1.279 1_655 S
C397 C400 1.358 . S
C397 H403 0.930 . S
C398 C396 1.353 . S
C398 C401 1.385 . S
C398 H436 0.929 . S
N399 Li354 1.990 . S
N399 C396 1.314 . S
N399 C397 1.279 1_455 S
C400 C397 1.358 . S
C400 C401 1.315 1_655 S
C400 H437 0.930 . S
C401 C398 1.385 . S
C401 C400 1.315 1_455 S
H402 C396 0.930 . S
H403 C397 0.930 . S
C404 N405 1.314 . S
C404 C406 1.353 . S
C404 H410 0.930 . S
N405 Li355 1.990 . S
N405 C404 1.314 . S
N405 C408 1.279 . S
C406 C404 1.353 . S
C406 C409 1.348 . S
C406 H438 0.929 . S
C407 C408 1.358 . S
C407 C409 1.356 . S
C407 H439 0.930 . S
C408 N405 1.279 . S
C408 C407 1.358 . S
C408 H411 0.930 . S
C409 C406 1.348 . S
C409 C407 1.356 . S
H410 C404 0.930 . S
H411 C408 0.930 . S
O412 Li352 1.956 . S
O412 Li353 1.970 . S
O412 Li354 1.961 . S
O412 C356 1.325 . S
O413 Li352 1.970 . S
O413 Li353 1.956 . S
O413 Li355 1.961 1_455 S
O413 C362 1.325 . S
O414 Li352 1.961 1_655 S
O414 Li354 1.956 1_655 S
O414 Li355 1.970 . S
O414 C384 1.325 . S
O415 Li353 1.961 . S
O415 Li354 1.970 . S
O415 Li355 1.956 1_455 S
O415 C390 1.325 . S
H416 C358 0.929 . S
H417 C359 0.930 . S
H418 C360 0.930 . S
H419 C361 0.930 . S
H420 C363 0.930 . S
H421 C365 0.929 . S
H422 C366 0.930 . S
H423 C367 0.930 . S
H424 C370 0.930 . S
H425 C373 0.924 1_655 S
H426 C378 0.929 . S
H427 C379 0.930 . S
H428 C386 0.929 . S
H429 C387 0.930 . S
H430 C388 0.930 . S
H431 C389 0.930 . S
H432 C391 0.915 1_655 S
H433 C392 0.930 . S
H434 C393 0.930 1_655 S
H435 C394 0.930 . S
H436 C398 0.929 . S
H437 C400 0.930 . S
H438 C406 0.929 . S
H439 C407 0.930 . S
Li440 N457 1.990 . S
Li440 O500 1.956 . S
Li440 O501 1.970 . S
Li440 O502 1.961 . S
Li441 N465 1.990 . S
Li441 O500 1.970 . S
Li441 O501 1.956 . S
Li441 O503 1.961 . S
Li442 N487 1.990 . S
Li442 O500 1.961 . S
Li442 O502 1.956 . S
Li442 O503 1.970 . S
Li443 N493 1.990 . S
Li443 O501 1.961 . S
Li443 O502 1.970 . S
Li443 O503 1.956 . S
C444 C446 1.348 . S
C444 C447 1.356 . S
C444 O500 1.325 . S
N445 C448 1.314 . S
N445 C449 1.279 . S
C446 C444 1.348 . S
C446 C448 1.353 . S
C446 H504 0.929 . S
C447 C444 1.356 . S
C447 C449 1.358 . S
C447 H505 0.930 . S
C448 N445 1.314 . S
C448 C446 1.353 . S
C448 H506 0.930 . S
C449 N445 1.279 . S
C449 C447 1.358 . S
C449 H507 0.930 . S
C450 C453 1.348 . S
C450 C454 1.356 . S
C450 O501 1.325 . S
C451 N452 1.279 . S
C451 C454 1.358 . S
C451 H508 0.930 . S
N452 C451 1.279 . S
N452 C455 1.314 . S
C453 C450 1.348 . S
C453 C455 1.353 . S
C453 H509 0.929 . S
C454 C450 1.356 . S
C454 C451 1.358 . S
C454 H510 0.930 . S
C455 N452 1.314 . S
C455 C453 1.353 . S
C455 H511 0.930 . S
C456 N457 1.314 . S
C456 C461 1.353 . S
C456 H462 0.930 . S
N457 Li440 1.990 . S
N457 C456 1.314 . S
N457 C459 1.279 . S
C458 C459 1.358 . S
C458 C460 1.356 . S
C458 H512 0.930 . S
C459 N457 1.279 . S
C459 C458 1.358 . S
C459 H463 0.930 . S
C460 C458 1.356 . S
C460 C461 1.348 . S
C461 C456 1.353 . S
C461 C460 1.348 . S
C461 H513 0.929 . S
H462 C456 0.930 . S
H463 C459 0.930 . S
C464 N465 1.314 . S
C464 C466 1.353 . S
C464 H470 0.930 . S
N465 Li441 1.990 . S
N465 C464 1.314 . S
N465 C468 1.279 . S
C466 C464 1.353 . S
C466 C469 1.348 . S
C466 H514 0.929 . S
C467 C468 1.358 . S
C467 C469 1.356 . S
C467 H515 0.930 . S
C468 N465 1.279 . S
C468 C467 1.358 . S
C468 H471 0.930 . S
C469 C466 1.348 . S
C469 C467 1.356 . S
H470 C464 0.930 . S
H471 C468 0.930 . S
C472 C474 1.348 . S
C472 C475 1.356 . S
C472 O502 1.325 . S
N473 C476 1.314 . S
N473 C477 1.279 . S
C474 C472 1.348 . S
C474 C476 1.353 . S
C474 H516 0.929 . S
C475 C472 1.356 . S
C475 C477 1.358 . S
C475 H517 0.930 . S
C476 N473 1.314 . S
C476 C474 1.353 . S
C476 H518 0.930 . S
C477 N473 1.279 . S
C477 C475 1.358 . S
C477 H519 0.930 . S
C478 C479 1.348 . S
C478 C480 1.356 . S
C478 O503 1.325 . S
C479 C478 1.348 . S
C479 C481 1.353 . S
C479 H520 0.929 . S
C480 C478 1.356 . S
C480 C482 1.358 . S
C480 H521 0.930 . S
C481 C479 1.353 . S
C481 N483 1.314 . S
C481 H522 0.930 . S
C482 C480 1.358 . S
C482 N483 1.279 . S
C482 H523 0.930 . S
N483 C481 1.314 . S
N483 C482 1.279 . S
C484 C486 1.353 . S
C484 N487 1.314 . S
C484 H490 0.930 . S
C485 N487 1.279 . S
C485 C488 1.358 . S
C485 H491 0.930 . S
C486 C484 1.353 . S
C486 C489 1.348 . S
C486 H524 0.929 . S
N487 Li442 1.990 . S
N487 C484 1.314 . S
N487 C485 1.279 . S
C488 C485 1.358 . S
C488 C489 1.356 . S
C488 H525 0.930 . S
C489 C486 1.348 . S
C489 C488 1.356 . S
H490 C484 0.930 . S
H491 C485 0.930 . S
C492 N493 1.314 . S
C492 C494 1.353 . S
C492 H498 0.930 . S
N493 Li443 1.990 . S
N493 C492 1.314 . S
N493 C496 1.279 . S
C494 C492 1.353 . S
C494 C497 1.348 . S
C494 H526 0.929 . S
C495 C496 1.358 . S
C495 C497 1.356 . S
C495 H527 0.930 . S
C496 N493 1.279 . S
C496 C495 1.358 . S
C496 H499 0.930 . S
C497 C494 1.348 . S
C497 C495 1.356 . S
H498 C492 0.930 . S
H499 C496 0.930 . S
O500 Li440 1.956 . S
O500 Li441 1.970 . S
O500 Li442 1.961 . S
O500 C444 1.325 . S
O501 Li440 1.970 . S
O501 Li441 1.956 . S
O501 Li443 1.961 . S
O501 C450 1.325 . S
O502 Li440 1.961 . S
O502 Li442 1.956 . S
O502 Li443 1.970 . S
O502 C472 1.325 . S
O503 Li441 1.961 . S
O503 Li442 1.970 . S
O503 Li443 1.956 . S
O503 C478 1.325 . S
H504 C446 0.929 . S
H505 C447 0.930 . S
H506 C448 0.930 . S
H507 C449 0.930 . S
H508 C451 0.930 . S
H509 C453 0.929 . S
H510 C454 0.930 . S
H511 C455 0.930 . S
H512 C458 0.930 . S
H513 C461 0.929 . S
H514 C466 0.929 . S
H515 C467 0.930 . S
H516 C474 0.929 . S
H517 C475 0.930 . S
H518 C476 0.930 . S
H519 C477 0.930 . S
H520 C479 0.929 . S
H521 C480 0.930 . S
H522 C481 0.930 . S
H523 C482 0.930 . S
H524 C486 0.929 . S
H525 C488 0.930 . S
H526 C494 0.929 . S
H527 C495 0.930 . S
Li528 N545 1.990 . S
Li528 O588 1.956 . S
Li528 O589 1.970 . S
Li528 O590 1.961 . S
Li529 N553 1.990 . S
Li529 O588 1.970 . S
Li529 O589 1.956 . S
Li529 O591 1.961 . S
Li530 N575 1.990 . S
Li530 O588 1.961 . S
Li530 O590 1.956 . S
Li530 O591 1.970 . S
Li531 N581 1.990 . S
Li531 O589 1.961 . S
Li531 O590 1.970 . S
Li531 O591 1.956 . S
C532 C534 1.348 . S
C532 C535 1.356 . S
C532 O588 1.325 . S
N533 C536 1.314 . S
N533 C537 1.279 . S
C534 C532 1.348 . S
C534 C536 1.353 . S
C534 H592 0.929 . S
C535 C532 1.356 . S
C535 C537 1.358 . S
C535 H593 0.930 . S
C536 N533 1.314 . S
C536 C534 1.353 . S
C536 H594 0.930 . S
C537 N533 1.279 . S
C537 C535 1.358 . S
C537 H595 0.930 . S
C538 C541 1.348 . S
C538 C542 1.356 . S
C538 O589 1.325 . S
C539 N540 1.279 . S
C539 C542 1.358 . S
C539 H596 0.930 . S
N540 C539 1.279 . S
N540 C543 1.314 . S
C541 C538 1.348 . S
C541 C543 1.353 . S
C541 H597 0.929 . S
C542 C538 1.356 . S
C542 C539 1.358 . S
C542 H598 0.930 . S
C543 N540 1.314 . S
C543 C541 1.353 . S
C543 H599 0.930 . S
C544 N545 1.314 . S
C544 C549 1.353 . S
C544 H550 0.930 . S
N545 Li528 1.990 . S
N545 C544 1.314 . S
N545 C547 1.279 . S
C546 C547 1.358 . S
C546 C548 1.356 . S
C546 H600 0.930 . S
C547 N545 1.279 . S
C547 C546 1.358 . S
C547 H551 0.930 . S
C548 C546 1.356 . S
C548 C549 1.348 . S
C549 C544 1.353 . S
C549 C548 1.348 . S
C549 H601 0.929 . S
H550 C544 0.930 . S
H551 C547 0.930 . S
C552 N553 1.314 . S
C552 C554 1.353 . S
C552 H558 0.930 . S
N553 Li529 1.990 . S
N553 C552 1.314 . S
N553 C556 1.279 . S
C554 C552 1.353 . S
C554 C557 1.348 . S
C554 H602 0.929 . S
C555 C556 1.358 . S
C555 C557 1.356 . S
C555 H603 0.930 . S
C556 N553 1.279 . S
C556 C555 1.358 . S
C556 H559 0.930 . S
C557 C554 1.348 . S
C557 C555 1.356 . S
H558 C552 0.930 . S
H559 C556 0.930 . S
C560 C562 1.348 . S
C560 C563 1.356 . S
C560 O590 1.325 . S
N561 C564 1.314 . S
N561 C565 1.279 . S
C562 C560 1.348 . S
C562 C564 1.353 . S
C562 H604 0.929 . S
C563 C560 1.356 . S
C563 C565 1.358 . S
C563 H605 0.930 . S
C564 N561 1.314 . S
C564 C562 1.353 . S
C564 H606 0.930 . S
C565 N561 1.279 . S
C565 C563 1.358 . S
C565 H607 0.930 . S
C566 C567 1.348 . S
C566 C568 1.356 . S
C566 O591 1.325 . S
C567 C566 1.348 . S
C567 C569 1.353 . S
C567 H608 0.929 . S
C568 C566 1.356 . S
C568 C570 1.358 . S
C568 H609 0.930 . S
C569 C567 1.353 . S
C569 N571 1.314 . S
C569 H610 0.930 . S
C570 C568 1.358 . S
C570 N571 1.279 . S
C570 H611 0.930 . S
N571 C569 1.314 . S
N571 C570 1.279 . S
C572 C574 1.353 . S
C572 N575 1.314 . S
C572 H578 0.930 . S
C573 N575 1.279 . S
C573 C576 1.358 . S
C573 H579 0.930 . S
C574 C572 1.353 . S
C574 C577 1.348 . S
C574 H612 0.929 . S
N575 Li530 1.990 . S
N575 C572 1.314 . S
N575 C573 1.279 . S
C576 C573 1.358 . S
C576 C577 1.356 . S
C576 H613 0.930 . S
C577 C574 1.348 . S
C577 C576 1.356 . S
H578 C572 0.930 . S
H579 C573 0.930 . S
C580 N581 1.314 . S
C580 C582 1.353 . S
C580 H586 0.930 . S
N581 Li531 1.990 . S
N581 C580 1.314 . S
N581 C584 1.279 . S
C582 C580 1.353 . S
C582 C585 1.348 . S
C582 H614 0.929 . S
C583 C584 1.358 . S
C583 C585 1.356 . S
C583 H615 0.930 . S
C584 N581 1.279 . S
C584 C583 1.358 . S
C584 H587 0.930 . S
C585 C582 1.348 . S
C585 C583 1.356 . S
H586 C580 0.930 . S
H587 C584 0.930 . S
O588 Li528 1.956 . S
O588 Li529 1.970 . S
O588 Li530 1.961 . S
O588 C532 1.325 . S
O589 Li528 1.970 . S
O589 Li529 1.956 . S
O589 Li531 1.961 . S
O589 C538 1.325 . S
O590 Li528 1.961 . S
O590 Li530 1.956 . S
O590 Li531 1.970 . S
O590 C560 1.325 . S
O591 Li529 1.961 . S
O591 Li530 1.970 . S
O591 Li531 1.956 . S
O591 C566 1.325 . S
H592 C534 0.929 . S
H593 C535 0.930 . S
H594 C536 0.930 . S
H595 C537 0.930 . S
H596 C539 0.930 . S
H597 C541 0.929 . S
H598 C542 0.930 . S
H599 C543 0.930 . S
H600 C546 0.930 . S
H601 C549 0.929 . S
H602 C554 0.929 . S
H603 C555 0.930 . S
H604 C562 0.929 . S
H605 C563 0.930 . S
H606 C564 0.930 . S
H607 C565 0.930 . S
H608 C567 0.929 . S
H609 C568 0.930 . S
H610 C569 0.930 . S
H611 C570 0.930 . S
H612 C574 0.929 . S
H613 C576 0.930 . S
H614 C582 0.929 . S
H615 C583 0.930 . S
Li616 N633 1.990 . S
Li616 O676 1.956 . S
Li616 O677 1.970 . S
Li616 O678 1.961 . S
Li617 N641 1.990 1_455 S
Li617 O676 1.970 . S
Li617 O677 1.956 . S
Li617 O679 1.961 . S
Li618 N663 1.990 . S
Li618 O676 1.961 . S
Li618 O678 1.956 . S
Li618 O679 1.970 . S
Li619 N669 1.990 . S
Li619 O677 1.961 . S
Li619 O678 1.970 . S
Li619 O679 1.956 . S
C620 C622 1.348 . S
C620 C623 1.356 . S
C620 O676 1.325 1_655 S
N621 C624 1.314 . S
N621 C625 1.279 . S
C622 C620 1.348 . S
C622 C624 1.353 . S
C622 H680 0.929 . S
C623 C620 1.356 . S
C623 C625 1.358 . S
C623 H681 0.930 1_655 S
C624 N621 1.314 . S
C624 C622 1.353 . S
C624 H682 0.930 . S
C625 N621 1.279 . S
C625 C623 1.358 . S
C625 H683 0.930 . S
C626 C629 1.348 . S
C626 C630 1.356 . S
C626 O677 1.325 . S
C627 N628 1.279 . S
C627 C630 1.358 . S
C627 H684 0.930 . S
N628 C627 1.279 . S
N628 C631 1.314 . S
C629 C626 1.348 . S
C629 C631 1.353 . S
C629 H685 0.929 . S
C630 C626 1.356 . S
C630 C627 1.358 . S
C630 H686 0.930 . S
C631 N628 1.314 . S
C631 C629 1.353 . S
C631 H687 0.930 . S
C632 N633 1.314 . S
C632 C637 1.353 . S
C632 H638 0.930 . S
N633 Li616 1.990 . S
N633 C632 1.314 . S
N633 C635 1.279 . S
C634 C635 1.358 . S
C634 C636 1.356 . S
C634 H688 0.930 . S
C635 N633 1.279 . S
C635 C634 1.358 . S
C635 H639 0.930 . S
C636 C634 1.356 . S
C636 C637 1.348 . S
C637 C632 1.353 . S
C637 C636 1.348 . S
C637 H689 0.929 . S
H638 C632 0.930 . S
H639 C635 0.930 . S
C640 N641 1.314 . S
C640 C642 1.353 . S
C640 H646 0.930 . S
N641 Li617 1.990 1_655 S
N641 C640 1.314 . S
N641 C644 1.279 . S
C642 C640 1.353 . S
C642 C645 1.348 . S
C642 H690 0.929 . S
C643 C644 1.358 . S
C643 C645 1.356 . S
C643 H691 0.930 . S
C644 N641 1.279 . S
C644 C643 1.358 . S
C644 H647 0.930 . S
C645 C642 1.348 . S
C645 C643 1.356 . S
H646 C640 0.930 . S
H647 C644 0.930 . S
C648 C650 1.348 . S
C648 C651 1.356 . S
C648 O678 1.325 . S
N649 C652 1.314 . S
N649 C653 1.279 . S
C650 C648 1.348 . S
C650 C652 1.353 . S
C650 H692 0.929 . S
C651 C648 1.356 . S
C651 C653 1.358 . S
C651 H693 0.930 . S
C652 N649 1.314 . S
C652 C650 1.353 . S
C652 H694 0.930 . S
C653 N649 1.279 . S
C653 C651 1.358 . S
C653 H695 0.930 . S
C654 C655 1.348 . S
C654 C656 1.356 . S
C654 O679 1.325 . S
C655 C654 1.348 . S
C655 C657 1.353 . S
C655 H696 0.929 . S
C656 C654 1.356 . S
C656 C658 1.358 . S
C656 H697 0.930 . S
C657 C655 1.353 . S
C657 N659 1.314 . S
C657 H698 0.930 . S
C658 C656 1.358 . S
C658 N659 1.279 . S
C658 H699 0.930 . S
N659 C657 1.314 . S
N659 C658 1.279 . S
C660 C662 1.353 . S
C660 N663 1.314 . S
C660 H666 0.930 1_455 S
C661 N663 1.279 . S
C661 C664 1.358 . S
C661 H667 0.930 . S
C662 C660 1.353 . S
C662 C665 1.348 . S
C662 H700 0.929 1_455 S
N663 Li618 1.990 . S
N663 C660 1.314 . S
N663 C661 1.279 . S
C664 C661 1.358 . S
C664 C665 1.356 . S
C664 H701 0.930 . S
C665 C662 1.348 . S
C665 C664 1.356 . S
H666 C660 0.930 1_655 S
H667 C661 0.930 . S
C668 N669 1.314 . S
C668 C670 1.353 . S
C668 H674 0.930 . S
N669 Li619 1.990 . S
N669 C668 1.314 . S
N669 C672 1.279 . S
C670 C668 1.353 . S
C670 C673 1.348 . S
C670 H702 0.929 . S
C671 C672 1.358 . S
C671 C673 1.356 . S
C671 H703 0.930 . S
C672 N669 1.279 . S
C672 C671 1.358 . S
C672 H675 0.930 . S
C673 C670 1.348 . S
C673 C671 1.356 . S
H674 C668 0.930 . S
H675 C672 0.930 . S
O676 Li616 1.956 . S
O676 Li617 1.970 . S
O676 Li618 1.961 . S
O676 C620 1.325 1_455 S
O677 Li616 1.970 . S
O677 Li617 1.956 . S
O677 Li619 1.961 . S
O677 C626 1.325 . S
O678 Li616 1.961 . S
O678 Li618 1.956 . S
O678 Li619 1.970 . S
O678 C648 1.325 . S
O679 Li617 1.961 . S
O679 Li618 1.970 . S
O679 Li619 1.956 . S
O679 C654 1.325 . S
H680 C622 0.929 . S
H681 C623 0.930 1_455 S
H682 C624 0.930 . S
H683 C625 0.930 . S
H684 C627 0.930 . S
H685 C629 0.929 . S
H686 C630 0.930 . S
H687 C631 0.930 . S
H688 C634 0.930 . S
H689 C637 0.929 . S
H690 C642 0.929 . S
H691 C643 0.930 . S
H692 C650 0.929 . S
H693 C651 0.930 . S
H694 C652 0.930 . S
H695 C653 0.930 . S
H696 C655 0.929 . S
H697 C656 0.930 . S
H698 C657 0.930 . S
H699 C658 0.930 . S
H700 C662 0.929 1_655 S
H701 C664 0.930 . S
H702 C670 0.929 . S
H703 C671 0.930 . S
Li704 N721 1.990 . S
Li704 O764 1.956 . S
Li704 O765 1.970 . S
Li704 O766 1.961 . S
Li705 N729 1.990 . S
Li705 O764 1.970 . S
Li705 O765 1.956 . S
Li705 O767 1.961 . S
Li706 N751 1.990 . S
Li706 O764 1.961 . S
Li706 O766 1.956 . S
Li706 O767 1.970 . S
Li707 N757 1.990 . S
Li707 O765 1.961 . S
Li707 O766 1.970 . S
Li707 O767 1.956 . S
C708 C710 1.348 . S
C708 C711 1.356 . S
C708 O764 1.325 . S
N709 C712 1.314 . S
N709 C713 1.279 . S
C710 C708 1.348 . S
C710 C712 1.353 . S
C710 H768 0.929 . S
C711 C708 1.356 . S
C711 C713 1.358 . S
C711 H769 0.930 . S
C712 N709 1.314 . S
C712 C710 1.353 . S
C712 H770 0.930 . S
C713 N709 1.279 . S
C713 C711 1.358 . S
C713 H771 0.930 . S
C714 C717 1.348 . S
C714 C718 1.356 . S
C714 O765 1.325 . S
C715 N716 1.279 . S
C715 C718 1.358 . S
C715 H772 0.930 . S
N716 C715 1.279 . S
N716 C719 1.314 . S
C717 C714 1.348 . S
C717 C719 1.353 . S
C717 H773 0.929 . S
C718 C714 1.356 . S
C718 C715 1.358 . S
C718 H774 0.930 . S
C719 N716 1.314 . S
C719 C717 1.353 . S
C719 H775 0.930 . S
C720 N721 1.314 . S
C720 C725 1.353 . S
C720 H726 0.930 . S
N721 Li704 1.990 . S
N721 C720 1.314 . S
N721 C723 1.279 . S
C722 C723 1.358 . S
C722 C724 1.356 . S
C722 H776 0.930 . S
C723 N721 1.279 . S
C723 C722 1.358 . S
C723 H727 0.930 . S
C724 C722 1.356 . S
C724 C725 1.348 . S
C725 C720 1.353 . S
C725 C724 1.348 . S
C725 H777 0.929 . S
H726 C720 0.930 . S
H727 C723 0.930 . S
C728 N729 1.314 . S
C728 C730 1.353 . S
C728 H734 0.930 . S
N729 Li705 1.990 . S
N729 C728 1.314 . S
N729 C732 1.279 . S
C730 C728 1.353 . S
C730 C733 1.348 . S
C730 H778 0.929 . S
C731 C732 1.358 . S
C731 C733 1.356 . S
C731 H779 0.930 . S
C732 N729 1.279 . S
C732 C731 1.358 . S
C732 H735 0.930 . S
C733 C730 1.348 . S
C733 C731 1.356 . S
H734 C728 0.930 . S
H735 C732 0.930 . S
C736 C738 1.348 . S
C736 C739 1.356 . S
C736 O766 1.325 . S
N737 C740 1.314 . S
N737 C741 1.279 . S
C738 C736 1.348 . S
C738 C740 1.353 . S
C738 H780 0.929 . S
C739 C736 1.356 . S
C739 C741 1.358 . S
C739 H781 0.930 . S
C740 N737 1.314 . S
C740 C738 1.353 . S
C740 H782 0.930 . S
C741 N737 1.279 . S
C741 C739 1.358 . S
C741 H783 0.930 . S
C742 C743 1.348 . S
C742 C744 1.356 . S
C742 O767 1.325 . S
C743 C742 1.348 . S
C743 C745 1.353 . S
C743 H784 0.929 . S
C744 C742 1.356 . S
C744 C746 1.358 . S
C744 H785 0.930 . S
C745 C743 1.353 . S
C745 N747 1.314 . S
C745 H786 0.930 . S
C746 C744 1.358 . S
C746 N747 1.279 . S
C746 H787 0.930 . S
N747 C745 1.314 . S
N747 C746 1.279 . S
C748 C750 1.353 . S
C748 N751 1.314 . S
C748 H754 0.930 . S
C749 N751 1.279 . S
C749 C752 1.358 . S
C749 H755 0.930 . S
C750 C748 1.353 . S
C750 C753 1.348 . S
C750 H788 0.929 . S
N751 Li706 1.990 . S
N751 C748 1.314 . S
N751 C749 1.279 . S
C752 C749 1.358 . S
C752 C753 1.356 . S
C752 H789 0.930 . S
C753 C750 1.348 . S
C753 C752 1.356 . S
H754 C748 0.930 . S
H755 C749 0.930 . S
C756 N757 1.314 . S
C756 C758 1.353 . S
C756 H762 0.930 . S
N757 Li707 1.990 . S
N757 C756 1.314 . S
N757 C760 1.279 . S
C758 C756 1.353 . S
C758 C761 1.348 . S
C758 H790 0.929 . S
C759 C760 1.358 . S
C759 C761 1.356 . S
C759 H791 0.930 . S
C760 N757 1.279 . S
C760 C759 1.358 . S
C760 H763 0.930 . S
C761 C758 1.348 . S
C761 C759 1.356 . S
H762 C756 0.930 . S
H763 C760 0.930 . S
O764 Li704 1.956 . S
O764 Li705 1.970 . S
O764 Li706 1.961 . S
O764 C708 1.325 . S
O765 Li704 1.970 . S
O765 Li705 1.956 . S
O765 Li707 1.961 . S
O765 C714 1.325 . S
O766 Li704 1.961 . S
O766 Li706 1.956 . S
O766 Li707 1.970 . S
O766 C736 1.325 . S
O767 Li705 1.961 . S
O767 Li706 1.970 . S
O767 Li707 1.956 . S
O767 C742 1.325 . S
H768 C710 0.929 . S
H769 C711 0.930 . S
H770 C712 0.930 . S
H771 C713 0.930 . S
H772 C715 0.930 . S
H773 C717 0.929 . S
H774 C718 0.930 . S
H775 C719 0.930 . S
H776 C722 0.930 . S
H777 C725 0.929 . S
H778 C730 0.929 . S
H779 C731 0.930 . S
H780 C738 0.929 . S
H781 C739 0.930 . S
H782 C740 0.930 . S
H783 C741 0.930 . S
H784 C743 0.929 . S
H785 C744 0.930 . S
H786 C745 0.930 . S
H787 C746 0.930 . S
H788 C750 0.929 . S
H789 C752 0.930 . S
H790 C758 0.929 . S
H791 C759 0.930 . S
Li792 N809 1.990 . S
Li792 O852 1.956 . S
Li792 O853 1.970 . S
Li792 O854 1.961 . S
Li793 N817 1.990 . S
Li793 O852 1.970 . S
Li793 O853 1.956 . S
Li793 O855 1.961 . S
Li794 N839 1.990 . S
Li794 O852 1.961 . S
Li794 O854 1.956 . S
Li794 O855 1.970 . S
Li795 N845 1.990 . S
Li795 O853 1.961 . S
Li795 O854 1.970 . S
Li795 O855 1.956 . S
C796 C798 1.348 . S
C796 C799 1.356 . S
C796 O852 1.325 . S
N797 C800 1.314 . S
N797 C801 1.279 . S
C798 C796 1.348 . S
C798 C800 1.353 . S
C798 H856 0.929 . S
C799 C796 1.356 . S
C799 C801 1.358 . S
C799 H857 0.930 . S
C800 N797 1.314 . S
C800 C798 1.353 . S
C800 H858 0.930 . S
C801 N797 1.279 . S
C801 C799 1.358 . S
C801 H859 0.930 . S
C802 C805 1.348 . S
C802 C806 1.356 . S
C802 O853 1.325 . S
C803 N804 1.279 . S
C803 C806 1.358 . S
C803 H860 0.930 . S
N804 C803 1.279 . S
N804 C807 1.314 . S
C805 C802 1.348 . S
C805 C807 1.353 . S
C805 H861 0.929 . S
C806 C802 1.356 . S
C806 C803 1.358 . S
C806 H862 0.930 . S
C807 N804 1.314 . S
C807 C805 1.353 . S
C807 H863 0.930 . S
C808 N809 1.314 . S
C808 C813 1.353 . S
C808 H814 0.930 . S
N809 Li792 1.990 . S
N809 C808 1.314 . S
N809 C811 1.279 . S
C810 C811 1.358 . S
C810 C812 1.356 . S
C810 H864 0.930 . S
C811 N809 1.279 . S
C811 C810 1.358 . S
C811 H815 0.930 . S
C812 C810 1.356 . S
C812 C813 1.348 . S
C813 C808 1.353 . S
C813 C812 1.348 . S
C813 H865 0.929 . S
H814 C808 0.930 . S
H815 C811 0.930 . S
C816 N817 1.314 . S
C816 C818 1.353 . S
C816 H822 0.930 . S
N817 Li793 1.990 . S
N817 C816 1.314 . S
N817 C820 1.279 . S
C818 C816 1.353 . S
C818 C821 1.348 . S
C818 H866 0.929 . S
C819 C820 1.358 . S
C819 C821 1.356 . S
C819 H867 0.930 . S
C820 N817 1.279 . S
C820 C819 1.358 . S
C820 H823 0.930 . S
C821 C818 1.348 . S
C821 C819 1.356 . S
H822 C816 0.930 . S
H823 C820 0.930 . S
C824 C826 1.348 . S
C824 C827 1.356 . S
C824 O854 1.325 . S
N825 C828 1.314 . S
N825 C829 1.279 . S
C826 C824 1.348 . S
C826 C828 1.353 . S
C826 H868 0.929 . S
C827 C824 1.356 . S
C827 C829 1.358 . S
C827 H869 0.930 . S
C828 N825 1.314 . S
C828 C826 1.353 . S
C828 H870 0.930 . S
C829 N825 1.279 . S
C829 C827 1.358 . S
C829 H871 0.930 . S
C830 C831 1.348 . S
C830 C832 1.356 . S
C830 O855 1.325 . S
C831 C830 1.348 . S
C831 C833 1.353 . S
C831 H872 0.929 . S
C832 C830 1.356 . S
C832 C834 1.358 . S
C832 H873 0.930 . S
C833 C831 1.353 . S
C833 N835 1.314 . S
C833 H874 0.930 . S
C834 C832 1.358 . S
C834 N835 1.279 . S
C834 H875 0.930 . S
N835 C833 1.314 . S
N835 C834 1.279 . S
C836 C838 1.353 . S
C836 N839 1.314 . S
C836 H842 0.930 . S
C837 N839 1.279 . S
C837 C840 1.358 . S
C837 H843 0.930 . S
C838 C836 1.353 . S
C838 C841 1.348 . S
C838 H876 0.929 . S
N839 Li794 1.990 . S
N839 C836 1.314 . S
N839 C837 1.279 . S
C840 C837 1.358 . S
C840 C841 1.356 . S
C840 H877 0.930 . S
C841 C838 1.348 . S
C841 C840 1.356 . S
H842 C836 0.930 . S
H843 C837 0.930 . S
C844 N845 1.314 . S
C844 C846 1.353 . S
C844 H850 0.930 . S
N845 Li795 1.990 . S
N845 C844 1.314 . S
N845 C848 1.279 . S
C846 C844 1.353 . S
C846 C849 1.348 . S
C846 H878 0.929 . S
C847 C848 1.358 . S
C847 C849 1.356 . S
C847 H879 0.930 . S
C848 N845 1.279 . S
C848 C847 1.358 . S
C848 H851 0.930 . S
C849 C846 1.348 . S
C849 C847 1.356 . S
H850 C844 0.930 . S
H851 C848 0.930 . S
O852 Li792 1.956 . S
O852 Li793 1.970 . S
O852 Li794 1.961 . S
O852 C796 1.325 . S
O853 Li792 1.970 . S
O853 Li793 1.956 . S
O853 Li795 1.961 . S
O853 C802 1.325 . S
O854 Li792 1.961 . S
O854 Li794 1.956 . S
O854 Li795 1.970 . S
O854 C824 1.325 . S
O855 Li793 1.961 . S
O855 Li794 1.970 . S
O855 Li795 1.956 . S
O855 C830 1.325 . S
H856 C798 0.929 . S
H857 C799 0.930 . S
H858 C800 0.930 . S
H859 C801 0.930 . S
H860 C803 0.930 . S
H861 C805 0.929 . S
H862 C806 0.930 . S
H863 C807 0.930 . S
H864 C810 0.930 . S
H865 C813 0.929 . S
H866 C818 0.929 . S
H867 C819 0.930 . S
H868 C826 0.929 . S
H869 C827 0.930 . S
H870 C828 0.930 . S
H871 C829 0.930 . S
H872 C831 0.929 . S
H873 C832 0.930 . S
H874 C833 0.930 . S
H875 C834 0.930 . S
H876 C838 0.929 . S
H877 C840 0.930 . S
H878 C846 0.929 . S
H879 C847 0.930 . S
Li880 N897 1.990 . S
Li880 O940 1.956 . S
Li880 O941 1.970 . S
Li880 O942 1.961 . S
Li881 N905 1.990 . S
Li881 O940 1.970 . S
Li881 O941 1.956 . S
Li881 O943 1.931 1_545 S
Li882 N927 1.990 1_545 S
Li882 O940 1.961 . S
Li882 O942 1.956 . S
Li882 O943 1.971 1_545 S
Li883 N933 1.990 . S
Li883 O941 1.961 . S
Li883 O942 1.970 . S
Li883 O943 1.925 1_545 S
C884 C886 1.348 . S
C884 C887 1.356 . S
C884 O940 1.325 . S
N885 C888 1.314 . S
N885 C889 1.279 . S
C886 C884 1.348 . S
C886 C888 1.353 . S
C886 H944 0.929 . S
C887 C884 1.356 . S
C887 C889 1.358 . S
C887 H945 0.930 . S
C888 N885 1.314 . S
C888 C886 1.353 . S
C888 H946 0.930 . S
C889 N885 1.279 . S
C889 C887 1.358 . S
C889 H947 0.930 . S
C890 C893 1.348 . S
C890 C894 1.356 . S
C890 O941 1.325 . S
C891 N892 1.279 . S
C891 C894 1.358 . S
C891 H948 0.930 . S
N892 C891 1.279 . S
N892 C895 1.314 . S
C893 C890 1.348 . S
C893 C895 1.353 . S
C893 H949 0.929 . S
C894 C890 1.356 . S
C894 C891 1.358 . S
C894 H950 0.930 . S
C895 N892 1.314 . S
C895 C893 1.353 . S
C895 H951 0.930 . S
C896 N897 1.314 . S
C896 C901 1.353 . S
C896 H902 0.930 . S
N897 Li880 1.990 . S
N897 C896 1.314 . S
N897 C899 1.279 . S
C898 C899 1.358 . S
C898 C900 1.356 . S
C898 H952 0.930 . S
C899 N897 1.279 . S
C899 C898 1.358 . S
C899 H903 0.930 . S
C900 C898 1.356 . S
C900 C901 1.348 . S
C901 C896 1.353 . S
C901 C900 1.348 . S
C901 H953 0.929 . S
H902 C896 0.930 . S
H903 C899 0.930 . S
C904 N905 1.314 . S
C904 C906 1.353 . S
C904 H910 0.930 1_545 S
N905 Li881 1.990 . S
N905 C904 1.314 . S
N905 C908 1.279 . S
C906 C904 1.353 . S
C906 C909 1.348 . S
C906 H954 0.929 1_545 S
C907 C908 1.358 . S
C907 C909 1.356 . S
C907 H955 0.930 . S
C908 N905 1.279 . S
C908 C907 1.358 . S
C908 H911 0.930 . S
C909 C906 1.348 . S
C909 C907 1.356 . S
H910 C904 0.930 1_565 S
H911 C908 0.930 . S
C912 C914 1.348 . S
C912 C915 1.356 . S
C912 O942 1.325 . S
N913 C916 1.314 . S
N913 C917 1.279 . S
C914 C912 1.348 . S
C914 C916 1.353 . S
C914 H956 0.929 . S
C915 C912 1.356 . S
C915 C917 1.358 . S
C915 H957 0.930 . S
C916 N913 1.314 . S
C916 C914 1.353 . S
C916 H958 0.930 . S
C917 N913 1.279 . S
C917 C915 1.358 . S
C917 H959 0.930 . S
C918 C919 1.348 . S
C918 C920 1.356 . S
C918 O943 1.356 . S
C919 C918 1.348 . S
C919 C921 1.353 . S
C919 H960 0.929 . S
C920 C918 1.356 . S
C920 C922 1.358 . S
C920 H961 0.930 . S
C921 C919 1.353 . S
C921 N923 1.314 . S
C921 H962 0.930 . S
C922 C920 1.358 . S
C922 N923 1.279 . S
C922 H963 0.930 . S
N923 C921 1.314 . S
N923 C922 1.279 . S
C924 C926 1.353 . S
C924 N927 1.314 . S
C924 H930 0.930 . S
C925 N927 1.279 . S
C925 C928 1.358 . S
C925 H931 0.930 . S
C926 C924 1.353 . S
C926 C929 1.348 . S
C926 H964 0.929 . S
N927 Li882 1.990 1_565 S
N927 C924 1.314 . S
N927 C925 1.279 . S
C928 C925 1.358 . S
C928 C929 1.356 . S
C928 H965 0.930 . S
C929 C926 1.348 . S
C929 C928 1.356 . S
H930 C924 0.930 . S
H931 C925 0.930 . S
C932 N933 1.314 . S
C932 C934 1.353 . S
C932 H938 0.930 . S
N933 Li883 1.990 . S
N933 C932 1.314 . S
N933 C936 1.279 1_545 S
C934 C932 1.353 . S
C934 C937 1.348 . S
C934 H966 0.929 . S
C935 C936 1.358 . S
C935 C937 1.356 1_565 S
C935 H967 0.930 . S
C936 N933 1.279 1_565 S
C936 C935 1.358 . S
C936 H939 0.930 . S
C937 C934 1.348 . S
C937 C935 1.356 1_545 S
H938 C932 0.930 . S
H939 C936 0.930 . S
O940 Li880 1.956 . S
O940 Li881 1.970 . S
O940 Li882 1.961 . S
O940 C884 1.325 . S
O941 Li880 1.970 . S
O941 Li881 1.956 . S
O941 Li883 1.961 . S
O941 C890 1.325 . S
O942 Li880 1.961 . S
O942 Li882 1.956 . S
O942 Li883 1.970 . S
O942 C912 1.325 . S
O943 Li881 1.931 1_565 S
O943 Li882 1.971 1_565 S
O943 Li883 1.925 1_565 S
O943 C918 1.356 . S
H944 C886 0.929 . S
H945 C887 0.930 . S
H946 C888 0.930 . S
H947 C889 0.930 . S
H948 C891 0.930 . S
H949 C893 0.929 . S
H950 C894 0.930 . S
H951 C895 0.930 . S
H952 C898 0.930 . S
H953 C901 0.929 . S
H954 C906 0.929 1_565 S
H955 C907 0.930 . S
H956 C914 0.929 . S
H957 C915 0.930 . S
H958 C916 0.930 . S
H959 C917 0.930 . S
H960 C919 0.929 . S
H961 C920 0.930 . S
H962 C921 0.930 . S
H963 C922 0.930 . S
H964 C926 0.929 . S
H965 C928 0.930 . S
H966 C934 0.929 . S
H967 C935 0.930 . S
Li968 N985 1.990 . S
Li968 O1028 1.956 . S
Li968 O1029 1.970 . S
Li968 O1030 1.961 . S
Li969 N993 1.990 . S
Li969 O1028 1.970 . S
Li969 O1029 1.956 . S
Li969 O1031 1.961 . S
Li970 N1015 1.990 . S
Li970 O1028 1.961 . S
Li970 O1030 1.956 . S
Li970 O1031 1.970 . S
Li971 N1021 1.990 . S
Li971 O1029 1.961 . S
Li971 O1030 1.970 . S
Li971 O1031 1.956 . S
C972 C974 1.348 . S
C972 C975 1.356 . S
C972 O1028 1.325 . S
N973 C976 1.314 . S
N973 C977 1.279 . S
C974 C972 1.348 . S
C974 C976 1.353 . S
C974 H1032 0.929 . S
C975 C972 1.356 . S
C975 C977 1.358 . S
C975 H1033 0.930 . S
C976 N973 1.314 . S
C976 C974 1.353 . S
C976 H1034 0.930 . S
C977 N973 1.279 . S
C977 C975 1.358 . S
C977 H1035 0.930 . S
C978 C981 1.348 . S
C978 C982 1.356 . S
C978 O1029 1.325 . S
C979 N980 1.279 . S
C979 C982 1.358 . S
C979 H1036 0.930 . S
N980 C979 1.279 . S
N980 C983 1.314 . S
C981 C978 1.348 . S
C981 C983 1.353 . S
C981 H1037 0.929 . S
C982 C978 1.356 . S
C982 C979 1.358 . S
C982 H1038 0.930 . S
C983 N980 1.314 . S
C983 C981 1.353 . S
C983 H1039 0.930 . S
C984 N985 1.314 . S
C984 C989 1.353 . S
C984 H990 0.930 . S
N985 Li968 1.990 . S
N985 C984 1.314 . S
N985 C987 1.279 . S
C986 C987 1.358 . S
C986 C988 1.356 . S
C986 H1040 0.930 . S
C987 N985 1.279 . S
C987 C986 1.358 . S
C987 H991 0.930 . S
C988 C986 1.356 . S
C988 C989 1.348 . S
C989 C984 1.353 . S
C989 C988 1.348 . S
C989 H1041 0.929 . S
H990 C984 0.930 . S
H991 C987 0.930 . S
C992 N993 1.314 . S
C992 C994 1.353 . S
C992 H998 0.930 . S
N993 Li969 1.990 . S
N993 C992 1.314 . S
N993 C996 1.279 . S
C994 C992 1.353 . S
C994 C997 1.348 . S
C994 H1042 0.929 . S
C995 C996 1.358 . S
C995 C997 1.356 . S
C995 H1043 0.930 . S
C996 N993 1.279 . S
C996 C995 1.358 . S
C996 H999 0.930 . S
C997 C994 1.348 . S
C997 C995 1.356 . S
H998 C992 0.930 . S
H999 C996 0.930 . S
C1000 C1002 1.348 . S
C1000 C1003 1.356 . S
C1000 O1030 1.325 . S
N1001 C1004 1.314 . S
N1001 C1005 1.279 1_556 S
C1002 C1000 1.348 . S
C1002 C1004 1.353 1_554 S
C1002 H1044 0.929 . S
C1003 C1000 1.356 . S
C1003 C1005 1.358 . S
C1003 H1045 0.930 . S
C1004 N1001 1.314 . S
C1004 C1002 1.353 1_556 S
C1004 H1046 0.930 . S
C1005 N1001 1.279 1_554 S
C1005 C1003 1.358 . S
C1005 H1047 0.930 . S
C1006 C1007 1.348 . S
C1006 C1008 1.356 . S
C1006 O1031 1.325 . S
C1007 C1006 1.348 . S
C1007 C1009 1.353 . S
C1007 H1048 0.929 . S
C1008 C1006 1.356 . S
C1008 C1010 1.358 . S
C1008 H1049 0.930 . S
C1009 C1007 1.353 . S
C1009 N1011 1.314 . S
C1009 H1050 0.930 . S
C1010 C1008 1.358 . S
C1010 N1011 1.279 . S
C1010 H1051 0.930 . S
N1011 C1009 1.314 . S
N1011 C1010 1.279 . S
C1012 C1014 1.353 . S
C1012 N1015 1.314 . S
C1012 H1018 0.930 . S
C1013 N1015 1.279 . S
C1013 C1016 1.358 . S
C1013 H1019 0.930 . S
C1014 C1012 1.353 . S
C1014 C1017 1.348 . S
C1014 H1052 0.929 . S
N1015 Li970 1.990 . S
N1015 C1012 1.314 . S
N1015 C1013 1.279 . S
C1016 C1013 1.358 . S
C1016 C1017 1.356 . S
C1016 H1053 0.930 . S
C1017 C1014 1.348 . S
C1017 C1016 1.356 . S
H1018 C1012 0.930 . S
H1019 C1013 0.930 . S
C1020 N1021 1.314 . S
C1020 C1022 1.353 1_554 S
C1020 H1026 0.930 . S
N1021 Li971 1.990 . S
N1021 C1020 1.314 . S
N1021 C1024 1.279 . S
C1022 C1020 1.353 1_556 S
C1022 C1025 1.348 . S
C1022 H1054 0.929 . S
C1023 C1024 1.358 1_556 S
C1023 C1025 1.356 . S
C1023 H1055 0.930 . S
C1024 N1021 1.279 . S
C1024 C1023 1.358 1_554 S
C1024 H1027 0.930 . S
C1025 C1022 1.348 . S
C1025 C1023 1.356 . S
H1026 C1020 0.930 . S
H1027 C1024 0.930 . S
O1028 Li968 1.956 . S
O1028 Li969 1.970 . S
O1028 Li970 1.961 . S
O1028 C972 1.325 . S
O1029 Li968 1.970 . S
O1029 Li969 1.956 . S
O1029 Li971 1.961 . S
O1029 C978 1.325 . S
O1030 Li968 1.961 . S
O1030 Li970 1.956 . S
O1030 Li971 1.970 . S
O1030 C1000 1.325 . S
O1031 Li969 1.961 . S
O1031 Li970 1.970 . S
O1031 Li971 1.956 . S
O1031 C1006 1.325 . S
H1032 C974 0.929 . S
H1033 C975 0.930 . S
H1034 C976 0.930 . S
H1035 C977 0.930 . S
H1036 C979 0.930 . S
H1037 C981 0.929 . S
H1038 C982 0.930 . S
H1039 C983 0.930 . S
H1040 C986 0.930 . S
H1041 C989 0.929 . S
H1042 C994 0.929 . S
H1043 C995 0.930 . S
H1044 C1002 0.929 . S
H1045 C1003 0.930 . S
H1046 C1004 0.930 . S
H1047 C1005 0.930 . S
H1048 C1007 0.929 . S
H1049 C1008 0.930 . S
H1050 C1009 0.930 . S
H1051 C1010 0.930 . S
H1052 C1014 0.929 . S
H1053 C1016 0.930 . S
H1054 C1022 0.929 . S
H1055 C1023 0.930 . S
Li1056 N1073 1.990 . S
Li1056 O1116 1.956 . S
Li1056 O1117 1.970 . S
Li1056 O1118 1.961 . S
Li1057 N1081 1.990 . S
Li1057 O1116 1.970 . S
Li1057 O1117 1.956 . S
Li1057 O1119 1.961 . S
Li1058 N1103 1.990 . S
Li1058 O1116 1.961 . S
Li1058 O1118 1.956 . S
Li1058 O1119 1.970 . S
Li1059 N1109 1.990 . S
Li1059 O1117 1.961 . S
Li1059 O1118 1.970 . S
Li1059 O1119 1.956 . S
C1060 C1062 1.348 . S
C1060 C1063 1.356 . S
C1060 O1116 1.325 . S
N1061 C1064 1.314 . S
N1061 C1065 1.279 . S
C1062 C1060 1.348 . S
C1062 C1064 1.353 . S
C1062 H1120 0.929 . S
C1063 C1060 1.356 . S
C1063 C1065 1.358 . S
C1063 H1121 0.930 . S
C1064 N1061 1.314 . S
C1064 C1062 1.353 . S
C1064 H1122 0.930 . S
C1065 N1061 1.279 . S
C1065 C1063 1.358 . S
C1065 H1123 0.930 . S
C1066 C1069 1.348 . S
C1066 C1070 1.356 . S
C1066 O1117 1.325 . S
C1067 N1068 1.279 . S
C1067 C1070 1.358 . S
C1067 H1124 0.930 . S
N1068 C1067 1.279 . S
N1068 C1071 1.314 . S
C1069 C1066 1.348 . S
C1069 C1071 1.353 . S
C1069 H1125 0.929 . S
C1070 C1066 1.356 . S
C1070 C1067 1.358 . S
C1070 H1126 0.930 . S
C1071 N1068 1.314 . S
C1071 C1069 1.353 . S
C1071 H1127 0.930 . S
C1072 N1073 1.314 . S
C1072 C1077 1.353 . S
C1072 H1078 0.930 . S
N1073 Li1056 1.990 . S
N1073 C1072 1.314 . S
N1073 C1075 1.279 . S
C1074 C1075 1.358 . S
C1074 C1076 1.356 . S
C1074 H1128 0.930 . S
C1075 N1073 1.279 . S
C1075 C1074 1.358 . S
C1075 H1079 0.930 . S
C1076 C1074 1.356 . S
C1076 C1077 1.348 . S
C1077 C1072 1.353 . S
C1077 C1076 1.348 . S
C1077 H1129 0.929 . S
H1078 C1072 0.930 . S
H1079 C1075 0.930 . S
C1080 N1081 1.314 . S
C1080 C1082 1.353 . S
C1080 H1086 0.930 . S
N1081 Li1057 1.990 . S
N1081 C1080 1.314 . S
N1081 C1084 1.279 . S
C1082 C1080 1.353 . S
C1082 C1085 1.348 . S
C1082 H1130 0.929 . S
C1083 C1084 1.358 . S
C1083 C1085 1.356 . S
C1083 H1131 0.930 . S
C1084 N1081 1.279 . S
C1084 C1083 1.358 . S
C1084 H1087 0.930 . S
C1085 C1082 1.348 . S
C1085 C1083 1.356 . S
H1086 C1080 0.930 . S
H1087 C1084 0.930 . S
C1088 C1090 1.348 . S
C1088 C1091 1.356 . S
C1088 O1118 1.325 . S
N1089 C1092 1.314 . S
N1089 C1093 1.279 . S
C1090 C1088 1.348 . S
C1090 C1092 1.353 . S
C1090 H1132 0.929 . S
C1091 C1088 1.356 . S
C1091 C1093 1.358 . S
C1091 H1133 0.930 . S
C1092 N1089 1.314 . S
C1092 C1090 1.353 . S
C1092 H1134 0.930 . S
C1093 N1089 1.279 . S
C1093 C1091 1.358 . S
C1093 H1135 0.930 . S
C1094 C1095 1.348 . S
C1094 C1096 1.356 . S
C1094 O1119 1.325 . S
C1095 C1094 1.348 . S
C1095 C1097 1.353 . S
C1095 H1136 0.929 . S
C1096 C1094 1.356 . S
C1096 C1098 1.358 . S
C1096 H1137 0.930 . S
C1097 C1095 1.353 . S
C1097 N1099 1.314 . S
C1097 H1138 0.930 . S
C1098 C1096 1.358 . S
C1098 N1099 1.279 . S
C1098 H1139 0.930 . S
N1099 C1097 1.314 . S
N1099 C1098 1.279 . S
C1100 C1102 1.353 . S
C1100 N1103 1.314 . S
C1100 H1106 0.930 . S
C1101 N1103 1.279 . S
C1101 C1104 1.358 . S
C1101 H1107 0.930 . S
C1102 C1100 1.353 . S
C1102 C1105 1.348 . S
C1102 H1140 0.929 . S
N1103 Li1058 1.990 . S
N1103 C1100 1.314 . S
N1103 C1101 1.279 . S
C1104 C1101 1.358 . S
C1104 C1105 1.356 . S
C1104 H1141 0.930 . S
C1105 C1102 1.348 . S
C1105 C1104 1.356 . S
H1106 C1100 0.930 . S
H1107 C1101 0.930 . S
C1108 N1109 1.314 . S
C1108 C1110 1.353 . S
C1108 H1114 0.930 . S
N1109 Li1059 1.990 . S
N1109 C1108 1.314 . S
N1109 C1112 1.279 . S
C1110 C1108 1.353 . S
C1110 C1113 1.365 . S
C1110 H1142 0.944 . S
C1111 C1112 1.358 . S
C1111 C1113 1.379 . S
C1111 H1143 0.930 . S
C1112 N1109 1.279 . S
C1112 C1111 1.358 . S
C1112 H1115 0.930 . S
C1113 C1110 1.365 . S
C1113 C1111 1.379 . S
H1114 C1108 0.930 . S
H1115 C1112 0.930 . S
O1116 Li1056 1.956 . S
O1116 Li1057 1.970 . S
O1116 Li1058 1.961 . S
O1116 C1060 1.325 . S
O1117 Li1056 1.970 . S
O1117 Li1057 1.956 . S
O1117 Li1059 1.961 . S
O1117 C1066 1.325 . S
O1118 Li1056 1.961 . S
O1118 Li1058 1.956 . S
O1118 Li1059 1.970 . S
O1118 C1088 1.325 . S
O1119 Li1057 1.961 . S
O1119 Li1058 1.970 . S
O1119 Li1059 1.956 . S
O1119 C1094 1.325 . S
H1120 C1062 0.929 . S
H1121 C1063 0.930 . S
H1122 C1064 0.930 . S
H1123 C1065 0.930 . S
H1124 C1067 0.930 . S
H1125 C1069 0.929 . S
H1126 C1070 0.930 . S
H1127 C1071 0.930 . S
H1128 C1074 0.930 . S
H1129 C1077 0.929 . S
H1130 C1082 0.929 . S
H1131 C1083 0.930 . S
H1132 C1090 0.929 . S
H1133 C1091 0.930 . S
H1134 C1092 0.930 . S
H1135 C1093 0.930 . S
H1136 C1095 0.929 . S
H1137 C1096 0.930 . S
H1138 C1097 0.930 . S
H1139 C1098 0.930 . S
H1140 C1102 0.929 . S
H1141 C1104 0.930 . S
H1142 C1110 0.944 . S
H1143 C1111 0.930 . S
Li1144 N1161 1.990 . S
Li1144 O1204 1.956 . S
Li1144 O1205 1.970 . S
Li1144 O1206 1.961 . S
Li1145 N1169 1.990 . S
Li1145 O1204 1.970 . S
Li1145 O1205 1.956 . S
Li1145 O1207 1.923 1_554 S
Li1146 N1191 1.990 1_554 S
Li1146 O1204 1.961 . S
Li1146 O1206 1.956 . S
Li1146 O1207 1.969 1_554 S
Li1147 N1197 1.990 . S
Li1147 O1205 1.961 . S
Li1147 O1206 1.970 . S
Li1147 O1207 1.916 1_554 S
C1148 C1150 1.348 . S
C1148 C1151 1.356 . S
C1148 O1204 1.325 . S
N1149 C1152 1.314 . S
N1149 C1153 1.279 . S
C1150 C1148 1.348 . S
C1150 C1152 1.353 . S
C1150 H1208 0.929 . S
C1151 C1148 1.356 . S
C1151 C1153 1.358 . S
C1151 H1209 0.930 . S
C1152 N1149 1.314 . S
C1152 C1150 1.353 . S
C1152 H1210 0.930 . S
C1153 N1149 1.279 . S
C1153 C1151 1.358 . S
C1153 H1211 0.930 . S
C1154 C1157 1.348 . S
C1154 C1158 1.356 . S
C1154 O1205 1.325 . S
C1155 N1156 1.279 . S
C1155 C1158 1.358 . S
C1155 H1212 0.930 . S
N1156 C1155 1.279 . S
N1156 C1159 1.314 . S
C1157 C1154 1.348 . S
C1157 C1159 1.353 . S
C1157 H1213 0.929 . S
C1158 C1154 1.356 . S
C1158 C1155 1.358 . S
C1158 H1214 0.930 . S
C1159 N1156 1.314 . S
C1159 C1157 1.353 . S
C1159 H1215 0.930 . S
C1160 N1161 1.314 . S
C1160 C1165 1.353 . S
C1160 H1166 0.930 . S
N1161 Li1144 1.990 . S
N1161 C1160 1.314 . S
N1161 C1163 1.279 . S
C1162 C1163 1.358 . S
C1162 C1164 1.356 . S
C1162 H1216 0.930 . S
C1163 N1161 1.279 . S
C1163 C1162 1.358 . S
C1163 H1167 0.930 . S
C1164 C1162 1.356 . S
C1164 C1165 1.348 . S
C1165 C1160 1.353 . S
C1165 C1164 1.348 . S
C1165 H1217 0.929 . S
H1166 C1160 0.930 . S
H1167 C1163 0.930 . S
C1168 N1169 1.314 . S
C1168 C1170 1.353 . S
C1168 H1174 0.930 1_554 S
N1169 Li1145 1.990 . S
N1169 C1168 1.314 . S
N1169 C1172 1.279 . S
C1170 C1168 1.353 . S
C1170 C1173 1.348 . S
C1170 H1218 0.929 1_554 S
C1171 C1172 1.358 . S
C1171 C1173 1.356 . S
C1171 H1219 0.930 . S
C1172 N1169 1.279 . S
C1172 C1171 1.358 . S
C1172 H1175 0.930 . S
C1173 C1170 1.348 . S
C1173 C1171 1.356 . S
H1174 C1168 0.930 1_556 S
H1175 C1172 0.930 . S
C1176 C1178 1.348 . S
C1176 C1179 1.356 . S
C1176 O1206 1.325 . S
N1177 C1180 1.314 . S
N1177 C1181 1.279 . S
C1178 C1176 1.348 . S
C1178 C1180 1.353 . S
C1178 H1220 0.929 . S
C1179 C1176 1.356 . S
C1179 C1181 1.358 . S
C1179 H1221 0.930 . S
C1180 N1177 1.314 . S
C1180 C1178 1.353 . S
C1180 H1222 0.930 . S
C1181 N1177 1.279 . S
C1181 C1179 1.358 . S
C1181 H1223 0.930 . S
C1182 C1183 1.348 . S
C1182 C1184 1.356 . S
C1182 O1207 1.365 . S
C1183 C1182 1.348 . S
C1183 C1185 1.353 . S
C1183 H1224 0.929 . S
C1184 C1182 1.356 . S
C1184 C1186 1.358 . S
C1184 H1225 0.930 . S
C1185 C1183 1.353 . S
C1185 N1187 1.314 . S
C1185 H1226 0.930 . S
C1186 C1184 1.358 . S
C1186 N1187 1.279 . S
C1186 H1227 0.930 . S
N1187 C1185 1.314 . S
N1187 C1186 1.279 . S
C1188 C1190 1.353 . S
C1188 N1191 1.314 . S
C1188 H1194 0.930 . S
C1189 N1191 1.279 . S
C1189 C1192 1.358 . S
C1189 H1195 0.930 . S
C1190 C1188 1.353 . S
C1190 C1193 1.348 . S
C1190 H1228 0.929 . S
N1191 Li1146 1.990 1_556 S
N1191 C1188 1.314 . S
N1191 C1189 1.279 . S
C1192 C1189 1.358 . S
C1192 C1193 1.356 . S
C1192 H1229 0.930 . S
C1193 C1190 1.348 . S
C1193 C1192 1.356 . S
H1194 C1188 0.930 . S
H1195 C1189 0.930 . S
C1196 N1197 1.314 . S
C1196 C1198 1.353 . S
C1196 H1202 0.930 . S
N1197 Li1147 1.990 . S
N1197 C1196 1.314 . S
N1197 C1200 1.254 1_554 S
C1198 C1196 1.353 . S
C1198 C1201 1.348 . S
C1198 H1230 0.929 . S
C1199 C1200 1.357 . S
C1199 C1201 1.356 1_556 S
C1199 H1231 0.930 . S
C1200 N1197 1.254 1_556 S
C1200 C1199 1.357 . S
C1200 H1203 0.961 . S
C1201 C1198 1.348 . S
C1201 C1199 1.356 1_554 S
H1202 C1196 0.930 . S
H1203 C1200 0.961 . S
O1204 Li1144 1.956 . S
O1204 Li1145 1.970 . S
O1204 Li1146 1.961 . S
O1204 C1148 1.325 . S
O1205 Li1144 1.970 . S
O1205 Li1145 1.956 . S
O1205 Li1147 1.961 . S
O1205 C1154 1.325 . S
O1206 Li1144 1.961 . S
O1206 Li1146 1.956 . S
O1206 Li1147 1.970 . S
O1206 C1176 1.325 . S
O1207 Li1145 1.923 1_556 S
O1207 Li1146 1.969 1_556 S
O1207 Li1147 1.916 1_556 S
O1207 C1182 1.365 . S
H1208 C1150 0.929 . S
H1209 C1151 0.930 . S
H1210 C1152 0.930 . S
H1211 C1153 0.930 . S
H1212 C1155 0.930 . S
H1213 C1157 0.929 . S
H1214 C1158 0.930 . S
H1215 C1159 0.930 . S
H1216 C1162 0.930 . S
H1217 C1165 0.929 . S
H1218 C1170 0.929 1_556 S
H1219 C1171 0.930 . S
H1220 C1178 0.929 . S
H1221 C1179 0.930 . S
H1222 C1180 0.930 . S
H1223 C1181 0.930 . S
H1224 C1183 0.929 . S
H1225 C1184 0.930 . S
H1226 C1185 0.930 . S
H1227 C1186 0.930 . S
H1228 C1190 0.929 . S
H1229 C1192 0.930 . S
H1230 C1198 0.929 . S
H1231 C1199 0.930 . S
Li1232 N1249 1.990 . S
Li1232 O1292 1.956 . S
Li1232 O1293 1.970 . S
Li1232 O1294 1.961 . S
Li1233 N1257 1.990 . S
Li1233 O1292 1.970 . S
Li1233 O1293 1.956 . S
Li1233 O1295 1.961 . S
Li1234 N1279 1.990 . S
Li1234 O1292 1.961 . S
Li1234 O1294 1.956 . S
Li1234 O1295 1.970 . S
Li1235 N1285 1.990 . S
Li1235 O1293 1.961 . S
Li1235 O1294 1.970 . S
Li1235 O1295 1.956 . S
C1236 C1238 1.348 . S
C1236 C1239 1.356 . S
C1236 O1292 1.325 . S
N1237 C1240 1.314 . S
N1237 C1241 1.279 . S
C1238 C1236 1.348 . S
C1238 C1240 1.353 . S
C1238 H1296 0.929 . S
C1239 C1236 1.356 . S
C1239 C1241 1.358 . S
C1239 H1297 0.930 . S
C1240 N1237 1.314 . S
C1240 C1238 1.353 . S
C1240 H1298 0.930 . S
C1241 N1237 1.279 . S
C1241 C1239 1.358 . S
C1241 H1299 0.930 . S
C1242 C1245 1.348 . S
C1242 C1246 1.356 . S
C1242 O1293 1.325 . S
C1243 N1244 1.279 . S
C1243 C1246 1.358 . S
C1243 H1300 0.930 . S
N1244 C1243 1.279 . S
N1244 C1247 1.314 . S
C1245 C1242 1.348 . S
C1245 C1247 1.353 . S
C1245 H1301 0.929 . S
C1246 C1242 1.356 . S
C1246 C1243 1.358 . S
C1246 H1302 0.930 . S
C1247 N1244 1.314 . S
C1247 C1245 1.353 . S
C1247 H1303 0.930 . S
C1248 N1249 1.314 . S
C1248 C1253 1.353 . S
C1248 H1254 0.930 . S
N1249 Li1232 1.990 . S
N1249 C1248 1.314 . S
N1249 C1251 1.279 . S
C1250 C1251 1.358 . S
C1250 C1252 1.356 . S
C1250 H1304 0.930 . S
C1251 N1249 1.279 . S
C1251 C1250 1.358 . S
C1251 H1255 0.930 . S
C1252 C1250 1.356 . S
C1252 C1253 1.348 . S
C1253 C1248 1.353 . S
C1253 C1252 1.348 . S
C1253 H1305 0.929 . S
H1254 C1248 0.930 . S
H1255 C1251 0.930 . S
C1256 N1257 1.314 . S
C1256 C1258 1.353 . S
C1256 H1262 0.930 . S
N1257 Li1233 1.990 . S
N1257 C1256 1.314 . S
N1257 C1260 1.279 . S
C1258 C1256 1.353 . S
C1258 C1261 1.348 . S
C1258 H1306 0.929 . S
C1259 C1260 1.358 . S
C1259 C1261 1.356 . S
C1259 H1307 0.930 . S
C1260 N1257 1.279 . S
C1260 C1259 1.358 . S
C1260 H1263 0.930 . S
C1261 C1258 1.348 . S
C1261 C1259 1.356 . S
H1262 C1256 0.930 . S
H1263 C1260 0.930 . S
C1264 C1266 1.348 . S
C1264 C1267 1.356 . S
C1264 O1294 1.325 . S
N1265 C1268 1.314 . S
N1265 C1269 1.279 . S
C1266 C1264 1.348 . S
C1266 C1268 1.353 . S
C1266 H1308 0.929 . S
C1267 C1264 1.356 . S
C1267 C1269 1.358 . S
C1267 H1309 0.930 . S
C1268 N1265 1.314 . S
C1268 C1266 1.353 . S
C1268 H1310 0.930 . S
C1269 N1265 1.279 . S
C1269 C1267 1.358 . S
C1269 H1311 0.930 . S
C1270 C1271 1.348 . S
C1270 C1272 1.356 . S
C1270 O1295 1.325 . S
C1271 C1270 1.348 . S
C1271 C1273 1.353 . S
C1271 H1312 0.929 . S
C1272 C1270 1.356 . S
C1272 C1274 1.358 . S
C1272 H1313 0.930 . S
C1273 C1271 1.353 . S
C1273 N1275 1.314 . S
C1273 H1314 0.930 . S
C1274 C1272 1.358 . S
C1274 N1275 1.279 . S
C1274 H1315 0.930 . S
N1275 C1273 1.314 . S
N1275 C1274 1.279 . S
C1276 C1278 1.353 . S
C1276 N1279 1.314 . S
C1276 H1282 0.930 . S
C1277 N1279 1.279 . S
C1277 C1280 1.358 . S
C1277 H1283 0.930 . S
C1278 C1276 1.353 . S
C1278 C1281 1.348 . S
C1278 H1316 0.929 . S
N1279 Li1234 1.990 . S
N1279 C1276 1.314 . S
N1279 C1277 1.279 . S
C1280 C1277 1.358 . S
C1280 C1281 1.356 . S
C1280 H1317 0.930 . S
C1281 C1278 1.348 . S
C1281 C1280 1.356 . S
H1282 C1276 0.930 . S
H1283 C1277 0.930 . S
C1284 N1285 1.314 . S
C1284 C1286 1.353 . S
C1284 H1290 0.930 . S
N1285 Li1235 1.990 . S
N1285 C1284 1.314 . S
N1285 C1288 1.279 . S
C1286 C1284 1.353 . S
C1286 C1289 1.348 . S
C1286 H1318 0.929 . S
C1287 C1288 1.358 . S
C1287 C1289 1.356 . S
C1287 H1319 0.930 . S
C1288 N1285 1.279 . S
C1288 C1287 1.358 . S
C1288 H1291 0.930 . S
C1289 C1286 1.348 . S
C1289 C1287 1.356 . S
H1290 C1284 0.930 . S
H1291 C1288 0.930 . S
O1292 Li1232 1.956 . S
O1292 Li1233 1.970 . S
O1292 Li1234 1.961 . S
O1292 C1236 1.325 . S
O1293 Li1232 1.970 . S
O1293 Li1233 1.956 . S
O1293 Li1235 1.961 . S
O1293 C1242 1.325 . S
O1294 Li1232 1.961 . S
O1294 Li1234 1.956 . S
O1294 Li1235 1.970 . S
O1294 C1264 1.325 . S
O1295 Li1233 1.961 . S
O1295 Li1234 1.970 . S
O1295 Li1235 1.956 . S
O1295 C1270 1.325 . S
H1296 C1238 0.929 . S
H1297 C1239 0.930 . S
H1298 C1240 0.930 . S
H1299 C1241 0.930 . S
H1300 C1243 0.930 . S
H1301 C1245 0.929 . S
H1302 C1246 0.930 . S
H1303 C1247 0.930 . S
H1304 C1250 0.930 . S
H1305 C1253 0.929 . S
H1306 C1258 0.929 . S
H1307 C1259 0.930 . S
H1308 C1266 0.929 . S
H1309 C1267 0.930 . S
H1310 C1268 0.930 . S
H1311 C1269 0.930 . S
H1312 C1271 0.929 . S
H1313 C1272 0.930 . S
H1314 C1273 0.930 . S
H1315 C1274 0.930 . S
H1316 C1278 0.929 . S
H1317 C1280 0.930 . S
H1318 C1286 0.929 . S
H1319 C1287 0.930 . S
Li1320 N1337 1.990 . S
Li1320 O1380 1.956 . S
Li1320 O1381 1.970 . S
Li1320 O1382 1.961 . S
Li1321 N1345 1.990 . S
Li1321 O1380 1.970 . S
Li1321 O1381 1.956 . S
Li1321 O1383 1.961 . S
Li1322 N1367 1.990 . S
Li1322 O1380 1.961 . S
Li1322 O1382 1.956 . S
Li1322 O1383 1.970 . S
Li1323 N1373 1.990 . S
Li1323 O1381 1.961 . S
Li1323 O1382 1.970 . S
Li1323 O1383 1.956 . S
C1324 C1326 1.348 . S
C1324 C1327 1.356 . S
C1324 O1380 1.325 . S
N1325 C1328 1.314 . S
N1325 C1329 1.279 . S
C1326 C1324 1.348 . S
C1326 C1328 1.353 . S
C1326 H1384 0.929 . S
C1327 C1324 1.356 . S
C1327 C1329 1.358 . S
C1327 H1385 0.930 . S
C1328 N1325 1.314 . S
C1328 C1326 1.353 . S
C1328 H1386 0.930 . S
C1329 N1325 1.279 . S
C1329 C1327 1.358 . S
C1329 H1387 0.930 . S
C1330 C1333 1.348 . S
C1330 C1334 1.356 . S
C1330 O1381 1.325 . S
C1331 N1332 1.279 . S
C1331 C1334 1.358 . S
C1331 H1388 0.930 . S
N1332 C1331 1.279 . S
N1332 C1335 1.314 . S
C1333 C1330 1.348 . S
C1333 C1335 1.353 . S
C1333 H1389 0.929 . S
C1334 C1330 1.356 . S
C1334 C1331 1.358 . S
C1334 H1390 0.930 . S
C1335 N1332 1.314 . S
C1335 C1333 1.353 . S
C1335 H1391 0.930 . S
C1336 N1337 1.314 . S
C1336 C1341 1.353 . S
C1336 H1342 0.930 . S
N1337 Li1320 1.990 . S
N1337 C1336 1.314 . S
N1337 C1339 1.279 . S
C1338 C1339 1.358 . S
C1338 C1340 1.356 . S
C1338 H1392 0.930 . S
C1339 N1337 1.279 . S
C1339 C1338 1.358 . S
C1339 H1343 0.930 . S
C1340 C1338 1.356 . S
C1340 C1341 1.348 . S
C1341 C1336 1.353 . S
C1341 C1340 1.348 . S
C1341 H1393 0.929 . S
H1342 C1336 0.930 . S
H1343 C1339 0.930 . S
C1344 N1345 1.314 . S
C1344 C1346 1.353 . S
C1344 H1350 0.930 . S
N1345 Li1321 1.990 . S
N1345 C1344 1.314 . S
N1345 C1348 1.279 . S
C1346 C1344 1.353 . S
C1346 C1349 1.348 . S
C1346 H1394 0.929 . S
C1347 C1348 1.358 . S
C1347 C1349 1.356 . S
C1347 H1395 0.930 . S
C1348 N1345 1.279 . S
C1348 C1347 1.358 . S
C1348 H1351 0.930 . S
C1349 C1346 1.348 . S
C1349 C1347 1.356 . S
H1350 C1344 0.930 . S
H1351 C1348 0.930 . S
C1352 C1354 1.348 . S
C1352 C1355 1.356 . S
C1352 O1382 1.325 . S
N1353 C1356 1.314 . S
N1353 C1357 1.279 . S
C1354 C1352 1.348 . S
C1354 C1356 1.353 . S
C1354 H1396 0.929 . S
C1355 C1352 1.356 . S
C1355 C1357 1.358 . S
C1355 H1397 0.930 . S
C1356 N1353 1.314 . S
C1356 C1354 1.353 . S
C1356 H1398 0.930 . S
C1357 N1353 1.279 . S
C1357 C1355 1.358 . S
C1357 H1399 0.930 . S
C1358 C1359 1.348 . S
C1358 C1360 1.356 . S
C1358 O1383 1.325 . S
C1359 C1358 1.348 . S
C1359 C1361 1.353 . S
C1359 H1400 0.929 . S
C1360 C1358 1.356 . S
C1360 C1362 1.358 . S
C1360 H1401 0.930 . S
C1361 C1359 1.353 . S
C1361 N1363 1.314 . S
C1361 H1402 0.930 . S
C1362 C1360 1.358 . S
C1362 N1363 1.279 . S
C1362 H1403 0.930 . S
N1363 C1361 1.314 . S
N1363 C1362 1.279 . S
C1364 C1366 1.353 . S
C1364 N1367 1.314 . S
C1364 H1370 0.930 . S
C1365 N1367 1.279 . S
C1365 C1368 1.358 . S
C1365 H1371 0.930 . S
C1366 C1364 1.353 . S
C1366 C1369 1.348 . S
C1366 H1404 0.929 . S
N1367 Li1322 1.990 . S
N1367 C1364 1.314 . S
N1367 C1365 1.279 . S
C1368 C1365 1.358 . S
C1368 C1369 1.356 . S
C1368 H1405 0.930 . S
C1369 C1366 1.348 . S
C1369 C1368 1.356 . S
H1370 C1364 0.930 . S
H1371 C1365 0.930 . S
C1372 N1373 1.314 . S
C1372 C1374 1.353 . S
C1372 H1378 0.930 . S
N1373 Li1323 1.990 . S
N1373 C1372 1.314 . S
N1373 C1376 1.279 . S
C1374 C1372 1.353 . S
C1374 C1377 1.348 . S
C1374 H1406 0.929 . S
C1375 C1376 1.358 . S
C1375 C1377 1.356 . S
C1375 H1407 0.930 . S
C1376 N1373 1.279 . S
C1376 C1375 1.358 . S
C1376 H1379 0.930 . S
C1377 C1374 1.348 . S
C1377 C1375 1.356 . S
H1378 C1372 0.930 . S
H1379 C1376 0.930 . S
O1380 Li1320 1.956 . S
O1380 Li1321 1.970 . S
O1380 Li1322 1.961 . S
O1380 C1324 1.325 . S
O1381 Li1320 1.970 . S
O1381 Li1321 1.956 . S
O1381 Li1323 1.961 . S
O1381 C1330 1.325 . S
O1382 Li1320 1.961 . S
O1382 Li1322 1.956 . S
O1382 Li1323 1.970 . S
O1382 C1352 1.325 . S
O1383 Li1321 1.961 . S
O1383 Li1322 1.970 . S
O1383 Li1323 1.956 . S
O1383 C1358 1.325 . S
H1384 C1326 0.929 . S
H1385 C1327 0.930 . S
H1386 C1328 0.930 . S
H1387 C1329 0.930 . S
H1388 C1331 0.930 . S
H1389 C1333 0.929 . S
H1390 C1334 0.930 . S
H1391 C1335 0.930 . S
H1392 C1338 0.930 . S
H1393 C1341 0.929 . S
H1394 C1346 0.929 . S
H1395 C1347 0.930 . S
H1396 C1354 0.929 . S
H1397 C1355 0.930 . S
H1398 C1356 0.930 . S
H1399 C1357 0.930 . S
H1400 C1359 0.929 . S
H1401 C1360 0.930 . S
H1402 C1361 0.930 . S
H1403 C1362 0.930 . S
H1404 C1366 0.929 . S
H1405 C1368 0.930 . S
H1406 C1374 0.929 . S
H1407 C1375 0.930 . S
Li1408 N1425 1.990 . S
Li1408 O1468 1.956 . S
Li1408 O1469 1.970 . S
Li1408 O1470 1.961 . S
Li1409 N1433 1.990 . S
Li1409 O1468 1.970 . S
Li1409 O1469 1.956 . S
Li1409 O1471 1.961 . S
Li1410 N1455 1.990 . S
Li1410 O1468 1.961 . S
Li1410 O1470 1.956 . S
Li1410 O1471 1.970 . S
Li1411 N1461 1.990 . S
Li1411 O1469 1.961 . S
Li1411 O1470 1.970 . S
Li1411 O1471 1.956 . S
C1412 C1414 1.348 . S
C1412 C1415 1.356 . S
C1412 O1468 1.325 . S
N1413 C1416 1.314 . S
N1413 C1417 1.279 . S
C1414 C1412 1.348 . S
C1414 C1416 1.353 . S
C1414 H1472 0.929 . S
C1415 C1412 1.356 . S
C1415 C1417 1.358 . S
C1415 H1473 0.930 . S
C1416 N1413 1.314 . S
C1416 C1414 1.353 . S
C1416 H1474 0.930 . S
C1417 N1413 1.279 . S
C1417 C1415 1.358 . S
C1417 H1475 0.930 . S
C1418 C1421 1.348 . S
C1418 C1422 1.356 . S
C1418 O1469 1.325 . S
C1419 N1420 1.279 . S
C1419 C1422 1.358 . S
C1419 H1476 0.930 . S
N1420 C1419 1.279 . S
N1420 C1423 1.314 . S
C1421 C1418 1.348 . S
C1421 C1423 1.353 . S
C1421 H1477 0.929 . S
C1422 C1418 1.356 . S
C1422 C1419 1.358 . S
C1422 H1478 0.930 . S
C1423 N1420 1.314 . S
C1423 C1421 1.353 . S
C1423 H1479 0.930 . S
C1424 N1425 1.314 . S
C1424 C1429 1.353 . S
C1424 H1430 0.930 . S
N1425 Li1408 1.990 . S
N1425 C1424 1.314 . S
N1425 C1427 1.279 . S
C1426 C1427 1.358 . S
C1426 C1428 1.356 . S
C1426 H1480 0.930 . S
C1427 N1425 1.279 . S
C1427 C1426 1.358 . S
C1427 H1431 0.930 . S
C1428 C1426 1.356 . S
C1428 C1429 1.348 . S
C1429 C1424 1.353 . S
C1429 C1428 1.348 . S
C1429 H1481 0.929 . S
H1430 C1424 0.930 . S
H1431 C1427 0.930 . S
C1432 N1433 1.314 . S
C1432 C1434 1.353 . S
C1432 H1438 0.930 . S
N1433 Li1409 1.990 . S
N1433 C1432 1.314 . S
N1433 C1436 1.279 . S
C1434 C1432 1.353 . S
C1434 C1437 1.321 1_545 S
C1434 H1482 0.907 1_545 S
C1435 C1436 1.358 . S
C1435 C1437 1.319 1_545 S
C1435 H1483 0.930 . S
C1436 N1433 1.279 . S
C1436 C1435 1.358 . S
C1436 H1439 0.930 . S
C1437 C1434 1.321 1_565 S
C1437 C1435 1.319 1_565 S
H1438 C1432 0.930 . S
H1439 C1436 0.930 . S
C1440 C1442 1.348 . S
C1440 C1443 1.356 . S
C1440 O1470 1.325 . S
N1441 C1444 1.314 . S
N1441 C1445 1.279 . S
C1442 C1440 1.348 . S
C1442 C1444 1.353 . S
C1442 H1484 0.929 . S
C1443 C1440 1.356 . S
C1443 C1445 1.358 . S
C1443 H1485 0.930 . S
C1444 N1441 1.314 . S
C1444 C1442 1.353 . S
C1444 H1486 0.930 . S
C1445 N1441 1.279 . S
C1445 C1443 1.358 . S
C1445 H1487 0.930 . S
C1446 C1447 1.348 . S
C1446 C1448 1.356 . S
C1446 O1471 1.325 . S
C1447 C1446 1.348 . S
C1447 C1449 1.353 . S
C1447 H1488 0.929 . S
C1448 C1446 1.356 . S
C1448 C1450 1.358 . S
C1448 H1489 0.930 . S
C1449 C1447 1.353 . S
C1449 N1451 1.314 . S
C1449 H1490 0.930 . S
C1450 C1448 1.358 . S
C1450 N1451 1.279 . S
C1450 H1491 0.930 . S
N1451 C1449 1.314 . S
N1451 C1450 1.279 . S
C1452 C1454 1.353 . S
C1452 N1455 1.314 . S
C1452 H1458 0.930 . S
C1453 N1455 1.279 . S
C1453 C1456 1.358 . S
C1453 H1459 0.930 . S
C1454 C1452 1.353 . S
C1454 C1457 1.348 . S
C1454 H1492 0.929 . S
N1455 Li1410 1.990 . S
N1455 C1452 1.314 . S
N1455 C1453 1.279 . S
C1456 C1453 1.358 . S
C1456 C1457 1.356 . S
C1456 H1493 0.930 . S
C1457 C1454 1.348 . S
C1457 C1456 1.356 . S
H1458 C1452 0.930 . S
H1459 C1453 0.930 . S
C1460 N1461 1.314 . S
C1460 C1462 1.353 . S
C1460 H1466 0.930 . S
N1461 Li1411 1.990 . S
N1461 C1460 1.314 . S
N1461 C1464 1.279 . S
C1462 C1460 1.353 . S
C1462 C1465 1.348 . S
C1462 H1494 0.929 . S
C1463 C1464 1.358 . S
C1463 C1465 1.356 . S
C1463 H1495 0.930 . S
C1464 N1461 1.279 . S
C1464 C1463 1.358 . S
C1464 H1467 0.930 . S
C1465 C1462 1.348 . S
C1465 C1463 1.356 . S
H1466 C1460 0.930 . S
H1467 C1464 0.930 . S
O1468 Li1408 1.956 . S
O1468 Li1409 1.970 . S
O1468 Li1410 1.961 . S
O1468 C1412 1.325 . S
O1469 Li1408 1.970 . S
O1469 Li1409 1.956 . S
O1469 Li1411 1.961 . S
O1469 C1418 1.325 . S
O1470 Li1408 1.961 . S
O1470 Li1410 1.956 . S
O1470 Li1411 1.970 . S
O1470 C1440 1.325 . S
O1471 Li1409 1.961 . S
O1471 Li1410 1.970 . S
O1471 Li1411 1.956 . S
O1471 C1446 1.325 . S
H1472 C1414 0.929 . S
H1473 C1415 0.930 . S
H1474 C1416 0.930 . S
H1475 C1417 0.930 . S
H1476 C1419 0.930 . S
H1477 C1421 0.929 . S
H1478 C1422 0.930 . S
H1479 C1423 0.930 . S
H1480 C1426 0.930 . S
H1481 C1429 0.929 . S
H1482 C1434 0.907 1_565 S
H1483 C1435 0.930 . S
H1484 C1442 0.929 . S
H1485 C1443 0.930 . S
H1486 C1444 0.930 . S
H1487 C1445 0.930 . S
H1488 C1447 0.929 . S
H1489 C1448 0.930 . S
H1490 C1449 0.930 . S
H1491 C1450 0.930 . S
H1492 C1454 0.929 . S
H1493 C1456 0.930 . S
H1494 C1462 0.929 . S
H1495 C1463 0.930 . S
Li1496 N1513 1.990 . S
Li1496 O1556 1.956 . S
Li1496 O1557 1.970 . S
Li1496 O1558 1.961 . S
Li1497 N1521 1.990 . S
Li1497 O1556 1.970 . S
Li1497 O1557 1.956 . S
Li1497 O1559 1.961 . S
Li1498 N1543 1.990 . S
Li1498 O1556 1.961 . S
Li1498 O1558 1.956 . S
Li1498 O1559 1.970 . S
Li1499 N1549 1.990 . S
Li1499 O1557 1.961 . S
Li1499 O1558 1.970 . S
Li1499 O1559 1.956 . S
C1500 C1502 1.348 . S
C1500 C1503 1.356 . S
C1500 O1556 1.325 . S
N1501 C1504 1.314 . S
N1501 C1505 1.279 . S
C1502 C1500 1.348 . S
C1502 C1504 1.353 . S
C1502 H1560 0.929 . S
C1503 C1500 1.356 . S
C1503 C1505 1.358 . S
C1503 H1561 0.930 . S
C1504 N1501 1.314 . S
C1504 C1502 1.353 . S
C1504 H1562 0.930 . S
C1505 N1501 1.279 . S
C1505 C1503 1.358 . S
C1505 H1563 0.930 . S
C1506 C1509 1.348 . S
C1506 C1510 1.356 . S
C1506 O1557 1.325 . S
C1507 N1508 1.279 . S
C1507 C1510 1.358 . S
C1507 H1564 0.930 . S
N1508 C1507 1.279 . S
N1508 C1511 1.314 . S
C1509 C1506 1.348 . S
C1509 C1511 1.353 . S
C1509 H1565 0.929 . S
C1510 C1506 1.356 . S
C1510 C1507 1.358 . S
C1510 H1566 0.930 . S
C1511 N1508 1.314 . S
C1511 C1509 1.353 . S
C1511 H1567 0.930 . S
C1512 N1513 1.314 . S
C1512 C1517 1.353 . S
C1512 H1518 0.930 . S
N1513 Li1496 1.990 . S
N1513 C1512 1.314 . S
N1513 C1515 1.279 . S
C1514 C1515 1.358 . S
C1514 C1516 1.356 . S
C1514 H1568 0.930 . S
C1515 N1513 1.279 . S
C1515 C1514 1.358 . S
C1515 H1519 0.930 . S
C1516 C1514 1.356 . S
C1516 C1517 1.348 . S
C1517 C1512 1.353 . S
C1517 C1516 1.348 . S
C1517 H1569 0.929 . S
H1518 C1512 0.930 . S
H1519 C1515 0.930 . S
C1520 N1521 1.314 . S
C1520 C1522 1.353 . S
C1520 H1526 0.930 . S
N1521 Li1497 1.990 . S
N1521 C1520 1.314 . S
N1521 C1524 1.279 . S
C1522 C1520 1.353 . S
C1522 C1525 1.348 . S
C1522 H1570 0.929 . S
C1523 C1524 1.358 . S
C1523 C1525 1.356 . S
C1523 H1571 0.930 . S
C1524 N1521 1.279 . S
C1524 C1523 1.358 . S
C1524 H1527 0.930 . S
C1525 C1522 1.348 . S
C1525 C1523 1.356 . S
H1526 C1520 0.930 . S
H1527 C1524 0.930 . S
C1528 C1530 1.348 . S
C1528 C1531 1.356 . S
C1528 O1558 1.325 . S
N1529 C1532 1.314 . S
N1529 C1533 1.279 . S
C1530 C1528 1.348 . S
C1530 C1532 1.353 . S
C1530 H1572 0.929 . S
C1531 C1528 1.356 . S
C1531 C1533 1.358 . S
C1531 H1573 0.930 . S
C1532 N1529 1.314 . S
C1532 C1530 1.353 . S
C1532 H1574 0.930 . S
C1533 N1529 1.279 . S
C1533 C1531 1.358 . S
C1533 H1575 0.930 . S
C1534 C1535 1.348 . S
C1534 C1536 1.356 . S
C1534 O1559 1.325 . S
C1535 C1534 1.348 . S
C1535 C1537 1.353 . S
C1535 H1576 0.929 . S
C1536 C1534 1.356 . S
C1536 C1538 1.358 . S
C1536 H1577 0.930 . S
C1537 C1535 1.353 . S
C1537 N1539 1.314 . S
C1537 H1578 0.930 . S
C1538 C1536 1.358 . S
C1538 N1539 1.279 . S
C1538 H1579 0.930 . S
N1539 C1537 1.314 . S
N1539 C1538 1.279 . S
C1540 C1542 1.353 . S
C1540 N1543 1.314 . S
C1540 H1546 0.930 . S
C1541 N1543 1.279 . S
C1541 C1544 1.358 . S
C1541 H1547 0.930 . S
C1542 C1540 1.353 . S
C1542 C1545 1.348 . S
C1542 H1580 0.929 . S
N1543 Li1498 1.990 . S
N1543 C1540 1.314 . S
N1543 C1541 1.279 . S
C1544 C1541 1.358 . S
C1544 C1545 1.356 . S
C1544 H1581 0.930 . S
C1545 C1542 1.348 . S
C1545 C1544 1.356 . S
H1546 C1540 0.930 . S
H1547 C1541 0.930 . S
C1548 N1549 1.314 . S
C1548 C1550 1.353 . S
C1548 H1554 0.930 . S
N1549 Li1499 1.990 . S
N1549 C1548 1.314 . S
N1549 C1552 1.279 . S
C1550 C1548 1.353 . S
C1550 C1553 1.348 . S
C1550 H1582 0.929 . S
C1551 C1552 1.358 . S
C1551 C1553 1.356 . S
C1551 H1583 0.930 . S
C1552 N1549 1.279 . S
C1552 C1551 1.358 . S
C1552 H1555 0.930 . S
C1553 C1550 1.348 . S
C1553 C1551 1.356 . S
H1554 C1548 0.930 . S
H1555 C1552 0.930 . S
O1556 Li1496 1.956 . S
O1556 Li1497 1.970 . S
O1556 Li1498 1.961 . S
O1556 C1500 1.325 . S
O1557 Li1496 1.970 . S
O1557 Li1497 1.956 . S
O1557 Li1499 1.961 . S
O1557 C1506 1.325 . S
O1558 Li1496 1.961 . S
O1558 Li1498 1.956 . S
O1558 Li1499 1.970 . S
O1558 C1528 1.325 . S
O1559 Li1497 1.961 . S
O1559 Li1498 1.970 . S
O1559 Li1499 1.956 . S
O1559 C1534 1.325 . S
H1560 C1502 0.929 . S
H1561 C1503 0.930 . S
H1562 C1504 0.930 . S
H1563 C1505 0.930 . S
H1564 C1507 0.930 . S
H1565 C1509 0.929 . S
H1566 C1510 0.930 . S
H1567 C1511 0.930 . S
H1568 C1514 0.930 . S
H1569 C1517 0.929 . S
H1570 C1522 0.929 . S
H1571 C1523 0.930 . S
H1572 C1530 0.929 . S
H1573 C1531 0.930 . S
H1574 C1532 0.930 . S
H1575 C1533 0.930 . S
H1576 C1535 0.929 . S
H1577 C1536 0.930 . S
H1578 C1537 0.930 . S
H1579 C1538 0.930 . S
H1580 C1542 0.929 . S
H1581 C1544 0.930 . S
H1582 C1550 0.929 . S
H1583 C1551 0.930 . S
Li1584 N1601 1.990 . S
Li1584 O1644 1.956 . S
Li1584 O1645 1.970 . S
Li1584 O1646 1.961 . S
Li1585 N1609 1.990 . S
Li1585 O1644 1.970 . S
Li1585 O1645 1.956 . S
Li1585 O1647 1.961 . S
Li1586 N1631 1.990 . S
Li1586 O1644 1.961 . S
Li1586 O1646 1.956 . S
Li1586 O1647 1.970 . S
Li1587 N1637 1.990 . S
Li1587 O1645 1.961 . S
Li1587 O1646 1.970 . S
Li1587 O1647 1.956 . S
C1588 C1590 1.348 . S
C1588 C1591 1.356 . S
C1588 O1644 1.325 . S
N1589 C1592 1.314 . S
N1589 C1593 1.279 . S
C1590 C1588 1.348 . S
C1590 C1592 1.353 . S
C1590 H1648 0.929 . S
C1591 C1588 1.356 . S
C1591 C1593 1.358 . S
C1591 H1649 0.930 . S
C1592 N1589 1.314 . S
C1592 C1590 1.353 . S
C1592 H1650 0.930 . S
C1593 N1589 1.279 . S
C1593 C1591 1.358 . S
C1593 H1651 0.930 . S
C1594 C1597 1.348 . S
C1594 C1598 1.356 . S
C1594 O1645 1.325 . S
C1595 N1596 1.279 . S
C1595 C1598 1.358 . S
C1595 H1652 0.930 . S
N1596 C1595 1.279 . S
N1596 C1599 1.314 . S
C1597 C1594 1.348 . S
C1597 C1599 1.353 . S
C1597 H1653 0.929 . S
C1598 C1594 1.356 . S
C1598 C1595 1.358 . S
C1598 H1654 0.930 . S
C1599 N1596 1.314 . S
C1599 C1597 1.353 . S
C1599 H1655 0.930 . S
C1600 N1601 1.314 . S
C1600 C1605 1.353 . S
C1600 H1606 0.930 . S
N1601 Li1584 1.990 . S
N1601 C1600 1.314 . S
N1601 C1603 1.279 . S
C1602 C1603 1.358 . S
C1602 C1604 1.356 . S
C1602 H1656 0.930 . S
C1603 N1601 1.279 . S
C1603 C1602 1.358 . S
C1603 H1607 0.930 . S
C1604 C1602 1.356 . S
C1604 C1605 1.348 . S
C1605 C1600 1.353 . S
C1605 C1604 1.348 . S
C1605 H1657 0.929 . S
H1606 C1600 0.930 . S
H1607 C1603 0.930 . S
C1608 N1609 1.314 . S
C1608 C1610 1.353 . S
C1608 H1614 0.930 . S
N1609 Li1585 1.990 . S
N1609 C1608 1.314 . S
N1609 C1612 1.279 . S
C1610 C1608 1.353 . S
C1610 C1613 1.348 . S
C1610 H1658 0.929 . S
C1611 C1612 1.358 . S
C1611 C1613 1.356 . S
C1611 H1659 0.930 . S
C1612 N1609 1.279 . S
C1612 C1611 1.358 . S
C1612 H1615 0.930 . S
C1613 C1610 1.348 . S
C1613 C1611 1.356 . S
H1614 C1608 0.930 . S
H1615 C1612 0.930 . S
C1616 C1618 1.348 . S
C1616 C1619 1.356 . S
C1616 O1646 1.325 . S
N1617 C1620 1.314 . S
N1617 C1621 1.279 . S
C1618 C1616 1.348 . S
C1618 C1620 1.353 . S
C1618 H1660 0.929 . S
C1619 C1616 1.356 . S
C1619 C1621 1.358 . S
C1619 H1661 0.930 . S
C1620 N1617 1.314 . S
C1620 C1618 1.353 . S
C1620 H1662 0.930 . S
C1621 N1617 1.279 . S
C1621 C1619 1.358 . S
C1621 H1663 0.930 . S
C1622 C1623 1.348 . S
C1622 C1624 1.356 . S
C1622 O1647 1.325 . S
C1623 C1622 1.348 . S
C1623 C1625 1.353 . S
C1623 H1664 0.929 . S
C1624 C1622 1.356 . S
C1624 C1626 1.358 . S
C1624 H1665 0.930 . S
C1625 C1623 1.353 . S
C1625 N1627 1.314 . S
C1625 H1666 0.930 . S
C1626 C1624 1.358 . S
C1626 N1627 1.279 . S
C1626 H1667 0.930 . S
N1627 C1625 1.314 . S
N1627 C1626 1.279 . S
C1628 C1630 1.353 . S
C1628 N1631 1.314 . S
C1628 H1634 0.930 . S
C1629 N1631 1.279 . S
C1629 C1632 1.358 . S
C1629 H1635 0.930 . S
C1630 C1628 1.353 . S
C1630 C1633 1.348 . S
C1630 H1668 0.929 . S
N1631 Li1586 1.990 . S
N1631 C1628 1.314 . S
N1631 C1629 1.279 . S
C1632 C1629 1.358 . S
C1632 C1633 1.356 . S
C1632 H1669 0.930 . S
C1633 C1630 1.348 . S
C1633 C1632 1.356 . S
H1634 C1628 0.930 . S
H1635 C1629 0.930 . S
C1636 N1637 1.314 . S
C1636 C1638 1.353 . S
C1636 H1642 0.930 . S
N1637 Li1587 1.990 . S
N1637 C1636 1.314 . S
N1637 C1640 1.279 . S
C1638 C1636 1.353 . S
C1638 C1641 1.348 . S
C1638 H1670 0.929 . S
C1639 C1640 1.358 . S
C1639 C1641 1.356 . S
C1639 H1671 0.930 . S
C1640 N1637 1.279 . S
C1640 C1639 1.358 . S
C1640 H1643 0.930 . S
C1641 C1638 1.348 . S
C1641 C1639 1.356 . S
H1642 C1636 0.930 . S
H1643 C1640 0.930 . S
O1644 Li1584 1.956 . S
O1644 Li1585 1.970 . S
O1644 Li1586 1.961 . S
O1644 C1588 1.325 . S
O1645 Li1584 1.970 . S
O1645 Li1585 1.956 . S
O1645 Li1587 1.961 . S
O1645 C1594 1.325 . S
O1646 Li1584 1.961 . S
O1646 Li1586 1.956 . S
O1646 Li1587 1.970 . S
O1646 C1616 1.325 . S
O1647 Li1585 1.961 . S
O1647 Li1586 1.970 . S
O1647 Li1587 1.956 . S
O1647 C1622 1.325 . S
H1648 C1590 0.929 . S
H1649 C1591 0.930 . S
H1650 C1592 0.930 . S
H1651 C1593 0.930 . S
H1652 C1595 0.930 . S
H1653 C1597 0.929 . S
H1654 C1598 0.930 . S
H1655 C1599 0.930 . S
H1656 C1602 0.930 . S
H1657 C1605 0.929 . S
H1658 C1610 0.929 . S
H1659 C1611 0.930 . S
H1660 C1618 0.929 . S
H1661 C1619 0.930 . S
H1662 C1620 0.930 . S
H1663 C1621 0.930 . S
H1664 C1623 0.929 . S
H1665 C1624 0.930 . S
H1666 C1625 0.930 . S
H1667 C1626 0.930 . S
H1668 C1630 0.929 . S
H1669 C1632 0.930 . S
H1670 C1638 0.929 . S
H1671 C1639 0.930 . S
Li1672 N1689 1.991 . S
Li1672 O1732 2.000 . S
Li1672 O1733 1.964 . S
Li1672 O1734 1.920 1_545 S
Li1673 N1697 1.990 . S
Li1673 O1732 1.970 . S
Li1673 O1733 1.956 . S
Li1673 O1735 1.961 . S
Li1674 N1719 1.990 . S
Li1674 O1732 1.961 1_565 S
Li1674 O1734 1.956 . S
Li1674 O1735 1.970 1_565 S
Li1675 N1725 1.990 . S
Li1675 O1733 1.961 1_565 S
Li1675 O1734 1.970 . S
Li1675 O1735 1.956 1_565 S
C1676 C1678 1.348 . S
C1676 C1679 1.356 . S
C1676 O1732 1.325 . S
N1677 C1680 1.314 . S
N1677 C1681 1.279 . S
C1678 C1676 1.348 . S
C1678 C1680 1.353 . S
C1678 H1736 0.929 . S
C1679 C1676 1.356 . S
C1679 C1681 1.358 . S
C1679 H1737 0.930 . S
C1680 N1677 1.314 . S
C1680 C1678 1.353 . S
C1680 H1738 0.930 . S
C1681 N1677 1.279 . S
C1681 C1679 1.358 . S
C1681 H1739 0.930 . S
C1682 C1685 1.348 . S
C1682 C1686 1.356 . S
C1682 O1733 1.325 . S
C1683 N1684 1.279 . S
C1683 C1686 1.358 . S
C1683 H1740 0.930 . S
N1684 C1683 1.279 . S
N1684 C1687 1.314 . S
C1685 C1682 1.348 . S
C1685 C1687 1.353 . S
C1685 H1741 0.929 . S
C1686 C1682 1.356 . S
C1686 C1683 1.358 . S
C1686 H1742 0.930 . S
C1687 N1684 1.314 . S
C1687 C1685 1.353 . S
C1687 H1743 0.930 . S
C1688 N1689 1.292 1_565 S
C1688 C1693 1.353 . S
C1688 H1694 0.930 . S
N1689 Li1672 1.991 . S
N1689 C1688 1.292 1_545 S
N1689 C1691 1.301 . S
C1690 C1691 1.358 . S
C1690 C1692 1.319 1_545 S
C1690 H1744 0.930 . S
C1691 N1689 1.301 . S
C1691 C1690 1.358 . S
C1691 H1695 0.930 . S
C1692 C1690 1.319 1_565 S
C1692 C1693 1.385 . S
C1693 C1688 1.353 . S
C1693 C1692 1.385 . S
C1693 H1745 0.929 . S
H1694 C1688 0.930 . S
H1695 C1691 0.930 . S
C1696 N1697 1.314 . S
C1696 C1698 1.353 . S
C1696 H1702 0.930 . S
N1697 Li1673 1.990 . S
N1697 C1696 1.314 . S
N1697 C1700 1.279 . S
C1698 C1696 1.353 . S
C1698 C1701 1.348 . S
C1698 H1746 0.929 . S
C1699 C1700 1.358 . S
C1699 C1701 1.356 . S
C1699 H1747 0.930 . S
C1700 N1697 1.279 . S
C1700 C1699 1.358 . S
C1700 H1703 0.930 . S
C1701 C1698 1.348 . S
C1701 C1699 1.356 . S
H1702 C1696 0.930 . S
H1703 C1700 0.930 . S
C1704 C1706 1.348 . S
C1704 C1707 1.356 . S
C1704 O1734 1.325 . S
N1705 C1708 1.314 . S
N1705 C1709 1.279 . S
C1706 C1704 1.348 . S
C1706 C1708 1.353 . S
C1706 H1748 0.929 . S
C1707 C1704 1.356 . S
C1707 C1709 1.358 . S
C1707 H1749 0.930 . S
C1708 N1705 1.314 . S
C1708 C1706 1.353 . S
C1708 H1750 0.930 . S
C1709 N1705 1.279 . S
C1709 C1707 1.358 . S
C1709 H1751 0.930 . S
C1710 C1711 1.348 1_545 S
C1710 C1712 1.356 . S
C1710 O1735 1.325 . S
C1711 C1710 1.348 1_565 S
C1711 C1713 1.353 . S
C1711 H1752 0.929 . S
C1712 C1710 1.356 . S
C1712 C1714 1.358 . S
C1712 H1753 0.930 . S
C1713 C1711 1.353 . S
C1713 N1715 1.314 1_565 S
C1713 H1754 0.930 . S
C1714 C1712 1.358 . S
C1714 N1715 1.279 . S
C1714 H1755 0.930 . S
N1715 C1713 1.314 1_545 S
N1715 C1714 1.279 . S
C1716 C1718 1.353 . S
C1716 N1719 1.314 1_545 S
C1716 H1722 0.930 . S
C1717 N1719 1.279 . S
C1717 C1720 1.358 . S
C1717 H1723 0.930 . S
C1718 C1716 1.353 . S
C1718 C1721 1.348 1_545 S
C1718 H1756 0.929 . S
N1719 Li1674 1.990 . S
N1719 C1716 1.314 1_565 S
N1719 C1717 1.279 . S
C1720 C1717 1.358 . S
C1720 C1721 1.356 . S
C1720 H1757 0.930 . S
C1721 C1718 1.348 1_565 S
C1721 C1720 1.356 . S
H1722 C1716 0.930 . S
H1723 C1717 0.930 . S
C1724 N1725 1.314 . S
C1724 C1726 1.353 . S
C1724 H1730 0.930 . S
N1725 Li1675 1.990 . S
N1725 C1724 1.314 . S
N1725 C1728 1.279 . S
C1726 C1724 1.353 . S
C1726 C1729 1.348 . S
C1726 H1758 0.929 . S
C1727 C1728 1.358 . S
C1727 C1729 1.356 . S
C1727 H1759 0.930 . S
C1728 N1725 1.279 . S
C1728 C1727 1.358 . S
C1728 H1731 0.930 . S
C1729 C1726 1.348 . S
C1729 C1727 1.356 . S
H1730 C1724 0.930 . S
H1731 C1728 0.930 . S
O1732 Li1672 2.000 . S
O1732 Li1673 1.970 . S
O1732 Li1674 1.961 1_545 S
O1732 C1676 1.325 . S
O1733 Li1672 1.964 . S
O1733 Li1673 1.956 . S
O1733 Li1675 1.961 1_545 S
O1733 C1682 1.325 . S
O1734 Li1672 1.920 1_565 S
O1734 Li1674 1.956 . S
O1734 Li1675 1.970 . S
O1734 C1704 1.325 . S
O1735 Li1673 1.961 . S
O1735 Li1674 1.970 1_545 S
O1735 Li1675 1.956 1_545 S
O1735 C1710 1.325 . S
H1736 C1678 0.929 . S
H1737 C1679 0.930 . S
H1738 C1680 0.930 . S
H1739 C1681 0.930 . S
H1740 C1683 0.930 . S
H1741 C1685 0.929 . S
H1742 C1686 0.930 . S
H1743 C1687 0.930 . S
H1744 C1690 0.930 . S
H1745 C1693 0.929 . S
H1746 C1698 0.929 . S
H1747 C1699 0.930 . S
H1748 C1706 0.929 . S
H1749 C1707 0.930 . S
H1750 C1708 0.930 . S
H1751 C1709 0.930 . S
H1752 C1711 0.929 . S
H1753 C1712 0.930 . S
H1754 C1713 0.930 . S
H1755 C1714 0.930 . S
H1756 C1718 0.929 . S
H1757 C1720 0.930 . S
H1758 C1726 0.929 . S
H1759 C1727 0.930 . S
Li1760 N1777 1.990 . S
Li1760 O1820 1.956 . S
Li1760 O1821 1.970 . S
Li1760 O1822 1.975 . S
Li1761 N1785 1.990 . S
Li1761 O1820 1.967 . S
Li1761 O1821 1.989 . S
Li1761 O1823 1.931 1_554 S
Li1762 N1807 1.990 . S
Li1762 O1820 1.961 1_556 S
Li1762 O1822 1.939 1_556 S
Li1762 O1823 1.970 . S
Li1763 N1813 1.990 . S
Li1763 O1821 1.961 1_556 S
Li1763 O1822 1.971 1_556 S
Li1763 O1823 1.956 . S
C1764 C1766 1.348 . S
C1764 C1767 1.356 . S
C1764 O1820 1.325 . S
N1765 C1768 1.314 . S
N1765 C1769 1.279 . S
C1766 C1764 1.348 . S
C1766 C1768 1.353 . S
C1766 H1824 0.929 . S
C1767 C1764 1.356 . S
C1767 C1769 1.358 . S
C1767 H1825 0.926 1_554 S
C1768 N1765 1.314 . S
C1768 C1766 1.353 . S
C1768 H1826 0.930 . S
C1769 N1765 1.279 . S
C1769 C1767 1.358 . S
C1769 H1827 0.930 . S
C1770 C1773 1.348 . S
C1770 C1774 1.356 . S
C1770 O1821 1.325 . S
C1771 N1772 1.279 . S
C1771 C1774 1.358 . S
C1771 H1828 0.930 . S
N1772 C1771 1.279 . S
N1772 C1775 1.314 . S
C1773 C1770 1.348 . S
C1773 C1775 1.353 . S
C1773 H1829 0.929 . S
C1774 C1770 1.356 . S
C1774 C1771 1.358 . S
C1774 H1830 0.930 . S
C1775 N1772 1.314 . S
C1775 C1773 1.353 . S
C1775 H1831 0.930 . S
C1776 N1777 1.314 . S
C1776 C1781 1.353 . S
C1776 H1782 0.930 . S
N1777 Li1760 1.990 . S
N1777 C1776 1.314 . S
N1777 C1779 1.279 . S
C1778 C1779 1.358 . S
C1778 C1780 1.356 . S
C1778 H1832 0.930 . S
C1779 N1777 1.279 . S
C1779 C1778 1.358 . S
C1779 H1783 0.930 . S
C1780 C1778 1.356 . S
C1780 C1781 1.348 . S
C1781 C1776 1.353 . S
C1781 C1780 1.348 . S
C1781 H1833 0.929 . S
H1782 C1776 0.930 . S
H1783 C1779 0.930 . S
C1784 N1785 1.261 1_556 S
C1784 C1786 1.353 . S
C1784 H1790 0.930 . S
N1785 Li1761 1.990 . S
N1785 C1784 1.261 1_554 S
N1785 C1788 1.331 . S
C1786 C1784 1.353 . S
C1786 C1789 1.315 1_556 S
C1786 H1834 0.929 . S
C1787 C1788 1.358 . S
C1787 C1789 1.390 . S
C1787 H1835 0.930 . S
C1788 N1785 1.331 . S
C1788 C1787 1.358 . S
C1788 H1791 0.930 . S
C1789 C1786 1.315 1_554 S
C1789 C1787 1.390 . S
H1790 C1784 0.930 . S
H1791 C1788 0.930 . S
C1792 C1794 1.347 . S
C1792 C1795 1.356 1_556 S
C1792 O1822 1.325 1_556 S
N1793 C1796 1.314 . S
N1793 C1797 1.279 1_556 S
C1794 C1792 1.347 . S
C1794 C1796 1.353 . S
C1794 H1836 0.929 . S
C1795 C1792 1.356 1_554 S
C1795 C1797 1.358 . S
C1795 H1837 0.930 . S
C1796 N1793 1.314 . S
C1796 C1794 1.353 . S
C1796 H1838 0.930 . S
C1797 N1793 1.279 1_554 S
C1797 C1795 1.358 . S
C1797 H1839 0.930 . S
C1798 C1799 1.348 . S
C1798 C1800 1.356 . S
C1798 O1823 1.325 . S
C1799 C1798 1.348 . S
C1799 C1801 1.353 . S
C1799 H1840 0.929 . S
C1800 C1798 1.356 . S
C1800 C1802 1.358 . S
C1800 H1841 0.930 . S
C1801 C1799 1.353 . S
C1801 N1803 1.314 . S
C1801 H1842 0.930 . S
C1802 C1800 1.358 . S
C1802 N1803 1.279 . S
C1802 H1843 0.930 . S
N1803 C1801 1.314 . S
N1803 C1802 1.279 . S
C1804 C1806 1.353 . S
C1804 N1807 1.314 . S
C1804 H1810 0.930 . S
C1805 N1807 1.279 . S
C1805 C1808 1.358 . S
C1805 H1811 0.930 . S
C1806 C1804 1.353 . S
C1806 C1809 1.348 . S
C1806 H1844 0.929 . S
N1807 Li1762 1.990 . S
N1807 C1804 1.314 . S
N1807 C1805 1.279 . S
C1808 C1805 1.358 . S
C1808 C1809 1.356 . S
C1808 H1845 0.930 . S
C1809 C1806 1.348 . S
C1809 C1808 1.356 . S
H1810 C1804 0.930 . S
H1811 C1805 0.930 . S
C1812 N1813 1.314 1_554 S
C1812 C1814 1.353 . S
C1812 H1818 0.930 . S
N1813 Li1763 1.990 . S
N1813 C1812 1.314 1_556 S
N1813 C1816 1.279 . S
C1814 C1812 1.353 . S
C1814 C1817 1.348 1_554 S
C1814 H1846 0.929 . S
C1815 C1816 1.358 . S
C1815 C1817 1.356 . S
C1815 H1847 0.930 . S
C1816 N1813 1.279 . S
C1816 C1815 1.358 . S
C1816 H1819 0.930 . S
C1817 C1814 1.348 1_556 S
C1817 C1815 1.356 . S
H1818 C1812 0.930 . S
H1819 C1816 0.930 . S
O1820 Li1760 1.956 . S
O1820 Li1761 1.967 . S
O1820 Li1762 1.961 1_554 S
O1820 C1764 1.325 . S
O1821 Li1760 1.970 . S
O1821 Li1761 1.989 . S
O1821 Li1763 1.961 1_554 S
O1821 C1770 1.325 . S
O1822 Li1760 1.975 . S
O1822 Li1762 1.939 1_554 S
O1822 Li1763 1.971 1_554 S
O1822 C1792 1.325 1_554 S
O1823 Li1761 1.931 1_556 S
O1823 Li1762 1.970 . S
O1823 Li1763 1.956 . S
O1823 C1798 1.325 . S
H1824 C1766 0.929 . S
H1825 C1767 0.926 1_556 S
H1826 C1768 0.930 . S
H1827 C1769 0.930 . S
H1828 C1771 0.930 . S
H1829 C1773 0.929 . S
H1830 C1774 0.930 . S
H1831 C1775 0.930 . S
H1832 C1778 0.930 . S
H1833 C1781 0.929 . S
H1834 C1786 0.929 . S
H1835 C1787 0.930 . S
H1836 C1794 0.929 . S
H1837 C1795 0.930 . S
H1838 C1796 0.930 . S
H1839 C1797 0.930 . S
H1840 C1799 0.929 . S
H1841 C1800 0.930 . S
H1842 C1801 0.930 . S
H1843 C1802 0.930 . S
H1844 C1806 0.929 . S
H1845 C1808 0.930 . S
H1846 C1814 0.929 . S
H1847 C1815 0.930 . S
Li1848 N1865 1.990 . S
Li1848 O1908 1.956 . S
Li1848 O1909 1.970 . S
Li1848 O1910 1.961 . S
Li1849 N1873 1.990 . S
Li1849 O1908 1.970 . S
Li1849 O1909 1.956 . S
Li1849 O1911 1.961 . S
Li1850 N1895 1.990 . S
Li1850 O1908 1.961 . S
Li1850 O1910 1.956 . S
Li1850 O1911 1.970 . S
Li1851 N1901 1.990 . S
Li1851 O1909 1.961 . S
Li1851 O1910 1.970 . S
Li1851 O1911 1.956 . S
C1852 C1854 1.348 . S
C1852 C1855 1.356 . S
C1852 O1908 1.325 . S
N1853 C1856 1.314 . S
N1853 C1857 1.279 . S
C1854 C1852 1.348 . S
C1854 C1856 1.353 . S
C1854 H1912 0.929 . S
C1855 C1852 1.356 . S
C1855 C1857 1.358 . S
C1855 H1913 0.930 . S
C1856 N1853 1.314 . S
C1856 C1854 1.353 . S
C1856 H1914 0.930 . S
C1857 N1853 1.279 . S
C1857 C1855 1.358 . S
C1857 H1915 0.930 . S
C1858 C1861 1.348 . S
C1858 C1862 1.356 . S
C1858 O1909 1.325 . S
C1859 N1860 1.279 . S
C1859 C1862 1.358 . S
C1859 H1916 0.930 . S
N1860 C1859 1.279 . S
N1860 C1863 1.314 . S
C1861 C1858 1.348 . S
C1861 C1863 1.353 . S
C1861 H1917 0.929 . S
C1862 C1858 1.356 . S
C1862 C1859 1.358 . S
C1862 H1918 0.930 . S
C1863 N1860 1.314 . S
C1863 C1861 1.353 . S
C1863 H1919 0.930 . S
C1864 N1865 1.314 . S
C1864 C1869 1.353 . S
C1864 H1870 0.930 . S
N1865 Li1848 1.990 . S
N1865 C1864 1.314 . S
N1865 C1867 1.279 . S
C1866 C1867 1.358 . S
C1866 C1868 1.356 . S
C1866 H1920 0.930 . S
C1867 N1865 1.279 . S
C1867 C1866 1.358 . S
C1867 H1871 0.930 . S
C1868 C1866 1.356 . S
C1868 C1869 1.348 . S
C1869 C1864 1.353 . S
C1869 C1868 1.348 . S
C1869 H1921 0.929 . S
H1870 C1864 0.930 . S
H1871 C1867 0.930 . S
C1872 N1873 1.314 . S
C1872 C1874 1.353 . S
C1872 H1878 0.930 . S
N1873 Li1849 1.990 . S
N1873 C1872 1.314 . S
N1873 C1876 1.279 . S
C1874 C1872 1.353 . S
C1874 C1877 1.348 . S
C1874 H1922 0.929 . S
C1875 C1876 1.358 . S
C1875 C1877 1.356 . S
C1875 H1923 0.930 . S
C1876 N1873 1.279 . S
C1876 C1875 1.358 . S
C1876 H1879 0.930 . S
C1877 C1874 1.348 . S
C1877 C1875 1.356 . S
H1878 C1872 0.930 . S
H1879 C1876 0.930 . S
C1880 C1882 1.348 . S
C1880 C1883 1.356 . S
C1880 O1910 1.325 . S
N1881 C1884 1.314 . S
N1881 C1885 1.279 . S
C1882 C1880 1.348 . S
C1882 C1884 1.353 . S
C1882 H1924 0.929 . S
C1883 C1880 1.356 . S
C1883 C1885 1.358 . S
C1883 H1925 0.930 . S
C1884 N1881 1.314 . S
C1884 C1882 1.353 . S
C1884 H1926 0.930 . S
C1885 N1881 1.279 . S
C1885 C1883 1.358 . S
C1885 H1927 0.930 . S
C1886 C1887 1.348 . S
C1886 C1888 1.356 . S
C1886 O1911 1.325 . S
C1887 C1886 1.348 . S
C1887 C1889 1.353 . S
C1887 H1928 0.929 . S
C1888 C1886 1.356 . S
C1888 C1890 1.358 . S
C1888 H1929 0.930 . S
C1889 C1887 1.353 . S
C1889 N1891 1.314 . S
C1889 H1930 0.930 . S
C1890 C1888 1.358 . S
C1890 N1891 1.279 . S
C1890 H1931 0.930 . S
N1891 C1889 1.314 . S
N1891 C1890 1.279 . S
C1892 C1894 1.353 . S
C1892 N1895 1.314 . S
C1892 H1898 0.930 . S
C1893 N1895 1.279 . S
C1893 C1896 1.358 . S
C1893 H1899 0.930 . S
C1894 C1892 1.353 . S
C1894 C1897 1.348 . S
C1894 H1932 0.929 . S
N1895 Li1850 1.990 . S
N1895 C1892 1.314 . S
N1895 C1893 1.279 . S
C1896 C1893 1.358 . S
C1896 C1897 1.356 . S
C1896 H1933 0.930 . S
C1897 C1894 1.348 . S
C1897 C1896 1.356 . S
H1898 C1892 0.930 . S
H1899 C1893 0.930 . S
C1900 N1901 1.314 . S
C1900 C1902 1.353 . S
C1900 H1906 0.930 . S
N1901 Li1851 1.990 . S
N1901 C1900 1.314 . S
N1901 C1904 1.279 . S
C1902 C1900 1.353 . S
C1902 C1905 1.348 . S
C1902 H1934 0.929 . S
C1903 C1904 1.358 . S
C1903 C1905 1.356 . S
C1903 H1935 0.930 . S
C1904 N1901 1.279 . S
C1904 C1903 1.358 . S
C1904 H1907 0.930 . S
C1905 C1902 1.348 . S
C1905 C1903 1.356 . S
H1906 C1900 0.930 . S
H1907 C1904 0.930 . S
O1908 Li1848 1.956 . S
O1908 Li1849 1.970 . S
O1908 Li1850 1.961 . S
O1908 C1852 1.325 . S
O1909 Li1848 1.970 . S
O1909 Li1849 1.956 . S
O1909 Li1851 1.961 . S
O1909 C1858 1.325 . S
O1910 Li1848 1.961 . S
O1910 Li1850 1.956 . S
O1910 Li1851 1.970 . S
O1910 C1880 1.325 . S
O1911 Li1849 1.961 . S
O1911 Li1850 1.970 . S
O1911 Li1851 1.956 . S
O1911 C1886 1.325 . S
H1912 C1854 0.929 . S
H1913 C1855 0.930 . S
H1914 C1856 0.930 . S
H1915 C1857 0.930 . S
H1916 C1859 0.930 . S
H1917 C1861 0.929 . S
H1918 C1862 0.930 . S
H1919 C1863 0.930 . S
H1920 C1866 0.930 . S
H1921 C1869 0.929 . S
H1922 C1874 0.929 . S
H1923 C1875 0.930 . S
H1924 C1882 0.929 . S
H1925 C1883 0.930 . S
H1926 C1884 0.930 . S
H1927 C1885 0.930 . S
H1928 C1887 0.929 . S
H1929 C1888 0.930 . S
H1930 C1889 0.930 . S
H1931 C1890 0.930 . S
H1932 C1894 0.929 . S
H1933 C1896 0.930 . S
H1934 C1902 0.929 . S
H1935 C1903 0.930 . S
Li1936 N1953 1.990 . S
Li1936 O1996 1.956 . S
Li1936 O1997 1.970 . S
Li1936 O1998 1.961 . S
Li1937 N1961 1.990 . S
Li1937 O1996 1.970 . S
Li1937 O1997 1.956 . S
Li1937 O1999 1.961 . S
Li1938 N1983 1.990 . S
Li1938 O1996 1.961 . S
Li1938 O1998 1.956 . S
Li1938 O1999 1.970 . S
Li1939 N1989 1.990 . S
Li1939 O1997 1.961 . S
Li1939 O1998 1.970 . S
Li1939 O1999 1.956 . S
C1940 C1942 1.348 . S
C1940 C1943 1.356 . S
C1940 O1996 1.325 . S
N1941 C1944 1.314 . S
N1941 C1945 1.279 . S
C1942 C1940 1.348 . S
C1942 C1944 1.353 . S
C1942 H2000 0.929 . S
C1943 C1940 1.356 . S
C1943 C1945 1.358 . S
C1943 H2001 0.930 . S
C1944 N1941 1.314 . S
C1944 C1942 1.353 . S
C1944 H2002 0.930 . S
C1945 N1941 1.279 . S
C1945 C1943 1.358 . S
C1945 H2003 0.930 . S
C1946 C1949 1.348 . S
C1946 C1950 1.356 . S
C1946 O1997 1.325 . S
C1947 N1948 1.279 . S
C1947 C1950 1.358 . S
C1947 H2004 0.930 . S
N1948 C1947 1.279 . S
N1948 C1951 1.314 . S
C1949 C1946 1.348 . S
C1949 C1951 1.353 . S
C1949 H2005 0.929 . S
C1950 C1946 1.356 . S
C1950 C1947 1.358 . S
C1950 H2006 0.930 . S
C1951 N1948 1.314 . S
C1951 C1949 1.353 . S
C1951 H2007 0.930 . S
C1952 N1953 1.314 . S
C1952 C1957 1.353 . S
C1952 H1958 0.930 . S
N1953 Li1936 1.990 . S
N1953 C1952 1.314 . S
N1953 C1955 1.279 . S
C1954 C1955 1.358 . S
C1954 C1956 1.356 . S
C1954 H2008 0.930 . S
C1955 N1953 1.279 . S
C1955 C1954 1.358 . S
C1955 H1959 0.930 . S
C1956 C1954 1.356 . S
C1956 C1957 1.348 . S
C1957 C1952 1.353 . S
C1957 C1956 1.348 . S
C1957 H2009 0.929 . S
H1958 C1952 0.930 . S
H1959 C1955 0.930 . S
C1960 N1961 1.314 . S
C1960 C1962 1.353 . S
C1960 H1966 0.930 . S
N1961 Li1937 1.990 . S
N1961 C1960 1.314 . S
N1961 C1964 1.279 . S
C1962 C1960 1.353 . S
C1962 C1965 1.348 . S
C1962 H2010 0.929 . S
C1963 C1964 1.358 . S
C1963 C1965 1.356 . S
C1963 H2011 0.930 . S
C1964 N1961 1.279 . S
C1964 C1963 1.358 . S
C1964 H1967 0.930 . S
C1965 C1962 1.348 . S
C1965 C1963 1.356 . S
H1966 C1960 0.930 . S
H1967 C1964 0.930 . S
C1968 C1970 1.348 . S
C1968 C1971 1.356 . S
C1968 O1998 1.325 . S
N1969 C1972 1.314 . S
N1969 C1973 1.279 . S
C1970 C1968 1.348 . S
C1970 C1972 1.353 . S
C1970 H2012 0.929 . S
C1971 C1968 1.356 . S
C1971 C1973 1.358 . S
C1971 H2013 0.930 . S
C1972 N1969 1.314 . S
C1972 C1970 1.353 . S
C1972 H2014 0.930 . S
C1973 N1969 1.279 . S
C1973 C1971 1.358 . S
C1973 H2015 0.930 . S
C1974 C1975 1.348 . S
C1974 C1976 1.356 . S
C1974 O1999 1.325 . S
C1975 C1974 1.348 . S
C1975 C1977 1.353 . S
C1975 H2016 0.929 . S
C1976 C1974 1.356 . S
C1976 C1978 1.358 . S
C1976 H2017 0.930 . S
C1977 C1975 1.353 . S
C1977 N1979 1.314 . S
C1977 H2018 0.930 . S
C1978 C1976 1.358 . S
C1978 N1979 1.279 . S
C1978 H2019 0.930 . S
N1979 C1977 1.314 . S
N1979 C1978 1.279 . S
C1980 C1982 1.353 . S
C1980 N1983 1.314 . S
C1980 H1986 0.930 . S
C1981 N1983 1.279 . S
C1981 C1984 1.358 . S
C1981 H1987 0.930 . S
C1982 C1980 1.353 . S
C1982 C1985 1.348 . S
C1982 H2020 0.929 . S
N1983 Li1938 1.990 . S
N1983 C1980 1.314 . S
N1983 C1981 1.279 . S
C1984 C1981 1.358 . S
C1984 C1985 1.356 . S
C1984 H2021 0.930 . S
C1985 C1982 1.348 . S
C1985 C1984 1.356 . S
H1986 C1980 0.930 . S
H1987 C1981 0.930 . S
C1988 N1989 1.314 . S
C1988 C1990 1.353 . S
C1988 H1994 0.930 . S
N1989 Li1939 1.990 . S
N1989 C1988 1.314 . S
N1989 C1992 1.279 . S
C1990 C1988 1.353 . S
C1990 C1993 1.348 . S
C1990 H2022 0.929 . S
C1991 C1992 1.358 . S
C1991 C1993 1.356 . S
C1991 H2023 0.930 . S
C1992 N1989 1.279 . S
C1992 C1991 1.358 . S
C1992 H1995 0.930 . S
C1993 C1990 1.348 . S
C1993 C1991 1.356 . S
H1994 C1988 0.930 . S
H1995 C1992 0.930 . S
O1996 Li1936 1.956 . S
O1996 Li1937 1.970 . S
O1996 Li1938 1.961 . S
O1996 C1940 1.325 . S
O1997 Li1936 1.970 . S
O1997 Li1937 1.956 . S
O1997 Li1939 1.961 . S
O1997 C1946 1.325 . S
O1998 Li1936 1.961 . S
O1998 Li1938 1.956 . S
O1998 Li1939 1.970 . S
O1998 C1968 1.325 . S
O1999 Li1937 1.961 . S
O1999 Li1938 1.970 . S
O1999 Li1939 1.956 . S
O1999 C1974 1.325 . S
H2000 C1942 0.929 . S
H2001 C1943 0.930 . S
H2002 C1944 0.930 . S
H2003 C1945 0.930 . S
H2004 C1947 0.930 . S
H2005 C1949 0.929 . S
H2006 C1950 0.930 . S
H2007 C1951 0.930 . S
H2008 C1954 0.930 . S
H2009 C1957 0.929 . S
H2010 C1962 0.929 . S
H2011 C1963 0.930 . S
H2012 C1970 0.929 . S
H2013 C1971 0.930 . S
H2014 C1972 0.930 . S
H2015 C1973 0.930 . S
H2016 C1975 0.929 . S
H2017 C1976 0.930 . S
H2018 C1977 0.930 . S
H2019 C1978 0.930 . S
H2020 C1982 0.929 . S
H2021 C1984 0.930 . S
H2022 C1990 0.929 . S
H2023 C1991 0.930 . S
Li2024 N2041 1.990 . S
Li2024 O2084 1.956 . S
Li2024 O2085 1.970 . S
Li2024 O2086 1.961 . S
Li2025 N2049 1.990 . S
Li2025 O2084 1.970 . S
Li2025 O2085 1.956 . S
Li2025 O2087 1.961 . S
Li2026 N2071 1.990 . S
Li2026 O2084 1.961 . S
Li2026 O2086 1.956 . S
Li2026 O2087 1.970 . S
Li2027 N2077 1.990 . S
Li2027 O2085 1.961 . S
Li2027 O2086 1.970 . S
Li2027 O2087 1.956 . S
C2028 C2030 1.348 . S
C2028 C2031 1.356 . S
C2028 O2084 1.325 . S
N2029 C2032 1.314 . S
N2029 C2033 1.279 . S
C2030 C2028 1.348 . S
C2030 C2032 1.353 . S
C2030 H2088 0.929 . S
C2031 C2028 1.356 . S
C2031 C2033 1.358 . S
C2031 H2089 0.930 . S
C2032 N2029 1.314 . S
C2032 C2030 1.353 . S
C2032 H2090 0.930 . S
C2033 N2029 1.279 . S
C2033 C2031 1.358 . S
C2033 H2091 0.930 . S
C2034 C2037 1.348 . S
C2034 C2038 1.356 . S
C2034 O2085 1.325 . S
C2035 N2036 1.279 . S
C2035 C2038 1.358 . S
C2035 H2092 0.930 . S
N2036 C2035 1.279 . S
N2036 C2039 1.314 . S
C2037 C2034 1.348 . S
C2037 C2039 1.353 . S
C2037 H2093 0.929 . S
C2038 C2034 1.356 . S
C2038 C2035 1.358 . S
C2038 H2094 0.930 . S
C2039 N2036 1.314 . S
C2039 C2037 1.353 . S
C2039 H2095 0.930 . S
C2040 N2041 1.314 . S
C2040 C2045 1.353 . S
C2040 H2046 0.930 . S
N2041 Li2024 1.990 . S
N2041 C2040 1.314 . S
N2041 C2043 1.279 . S
C2042 C2043 1.358 . S
C2042 C2044 1.356 . S
C2042 H2096 0.930 . S
C2043 N2041 1.279 . S
C2043 C2042 1.358 . S
C2043 H2047 0.930 . S
C2044 C2042 1.356 . S
C2044 C2045 1.348 . S
C2045 C2040 1.353 . S
C2045 C2044 1.348 . S
C2045 H2097 0.929 . S
H2046 C2040 0.930 . S
H2047 C2043 0.930 . S
C2048 N2049 1.314 . S
C2048 C2050 1.353 . S
C2048 H2054 0.930 . S
N2049 Li2025 1.990 . S
N2049 C2048 1.314 . S
N2049 C2052 1.279 . S
C2050 C2048 1.353 . S
C2050 C2053 1.348 . S
C2050 H2098 0.929 . S
C2051 C2052 1.358 . S
C2051 C2053 1.356 . S
C2051 H2099 0.930 . S
C2052 N2049 1.279 . S
C2052 C2051 1.358 . S
C2052 H2055 0.930 . S
C2053 C2050 1.348 . S
C2053 C2051 1.356 . S
H2054 C2048 0.930 . S
H2055 C2052 0.930 . S
C2056 C2058 1.348 . S
C2056 C2059 1.356 . S
C2056 O2086 1.325 . S
N2057 C2060 1.314 . S
N2057 C2061 1.279 . S
C2058 C2056 1.348 . S
C2058 C2060 1.353 . S
C2058 H2100 0.929 . S
C2059 C2056 1.356 . S
C2059 C2061 1.358 . S
C2059 H2101 0.930 . S
C2060 N2057 1.314 . S
C2060 C2058 1.353 . S
C2060 H2102 0.930 . S
C2061 N2057 1.279 . S
C2061 C2059 1.358 . S
C2061 H2103 0.930 . S
C2062 C2063 1.348 . S
C2062 C2064 1.356 . S
C2062 O2087 1.325 . S
C2063 C2062 1.348 . S
C2063 C2065 1.353 . S
C2063 H2104 0.929 . S
C2064 C2062 1.356 . S
C2064 C2066 1.358 . S
C2064 H2105 0.930 . S
C2065 C2063 1.353 . S
C2065 N2067 1.314 . S
C2065 H2106 0.930 . S
C2066 C2064 1.358 . S
C2066 N2067 1.279 . S
C2066 H2107 0.930 . S
N2067 C2065 1.314 . S
N2067 C2066 1.279 . S
C2068 C2070 1.353 . S
C2068 N2071 1.314 . S
C2068 H2074 0.930 . S
C2069 N2071 1.279 . S
C2069 C2072 1.358 . S
C2069 H2075 0.930 . S
C2070 C2068 1.353 . S
C2070 C2073 1.348 . S
C2070 H2108 0.929 . S
N2071 Li2026 1.990 . S
N2071 C2068 1.314 . S
N2071 C2069 1.279 . S
C2072 C2069 1.358 . S
C2072 C2073 1.356 . S
C2072 H2109 0.930 . S
C2073 C2070 1.348 . S
C2073 C2072 1.356 . S
H2074 C2068 0.930 . S
H2075 C2069 0.930 . S
C2076 N2077 1.314 . S
C2076 C2078 1.353 . S
C2076 H2082 0.930 . S
N2077 Li2027 1.990 . S
N2077 C2076 1.314 . S
N2077 C2080 1.279 . S
C2078 C2076 1.353 . S
C2078 C2081 1.348 . S
C2078 H2110 0.929 . S
C2079 C2080 1.358 . S
C2079 C2081 1.356 . S
C2079 H2111 0.930 . S
C2080 N2077 1.279 . S
C2080 C2079 1.358 . S
C2080 H2083 0.930 . S
C2081 C2078 1.348 . S
C2081 C2079 1.356 . S
H2082 C2076 0.930 . S
H2083 C2080 0.930 . S
O2084 Li2024 1.956 . S
O2084 Li2025 1.970 . S
O2084 Li2026 1.961 . S
O2084 C2028 1.325 . S
O2085 Li2024 1.970 . S
O2085 Li2025 1.956 . S
O2085 Li2027 1.961 . S
O2085 C2034 1.325 . S
O2086 Li2024 1.961 . S
O2086 Li2026 1.956 . S
O2086 Li2027 1.970 . S
O2086 C2056 1.325 . S
O2087 Li2025 1.961 . S
O2087 Li2026 1.970 . S
O2087 Li2027 1.956 . S
O2087 C2062 1.325 . S
H2088 C2030 0.929 . S
H2089 C2031 0.930 . S
H2090 C2032 0.930 . S
H2091 C2033 0.930 . S
H2092 C2035 0.930 . S
H2093 C2037 0.929 . S
H2094 C2038 0.930 . S
H2095 C2039 0.930 . S
H2096 C2042 0.930 . S
H2097 C2045 0.929 . S
H2098 C2050 0.929 . S
H2099 C2051 0.930 . S
H2100 C2058 0.929 . S
H2101 C2059 0.930 . S
H2102 C2060 0.930 . S
H2103 C2061 0.930 . S
H2104 C2063 0.929 . S
H2105 C2064 0.930 . S
H2106 C2065 0.930 . S
H2107 C2066 0.930 . S
H2108 C2070 0.929 . S
H2109 C2072 0.930 . S
H2110 C2078 0.929 . S
H2111 C2079 0.930 . S
Nd2112 C2114 2.836 . S
Nd2112 O2132 2.500 . S
Nd2112 O2133 2.492 . S
Nd2112 O2134 2.487 . S
Nd2112 O2135 2.682 . S
Nd2112 O2136 2.410 . S
Nd2112 O2141 2.414 . S
Nd2112 O2143 2.424 . S
Nd2113 C2123 2.840 1_545 S
Nd2113 O2135 2.422 . S
Nd2113 O2137 2.416 1_455 S
Nd2113 O2138 2.506 1_545 S
Nd2113 O2139 2.492 1_445 S
Nd2113 O2140 2.484 1_455 S
Nd2113 O2141 2.683 . S
Nd2113 O2142 2.420 . S
C2114 Nd2112 2.836 . S
C2114 C2115 1.498 . S
C2114 O2132 1.258 . S
C2114 O2133 1.239 . S
C2115 C2114 1.498 . S
C2115 C2116 1.366 . S
C2115 C2120 1.407 . S
C2116 C2115 1.366 . S
C2116 C2117 1.392 . S
C2116 H2144 0.930 . S
C2117 C2116 1.392 . S
C2117 C2118 1.398 . S
C2117 H2145 0.929 . S
C2118 C2117 1.398 . S
C2118 C2119 1.352 . S
C2119 C2118 1.352 . S
C2119 C2120 1.384 . S
C2119 H2146 0.930 . S
C2120 C2115 1.407 . S
C2120 C2119 1.384 . S
C2120 H2147 0.929 . S
C2121 O2134 1.241 . S
C2121 O2135 1.273 . S
C2122 O2136 1.251 1_655 S
C2122 O2137 1.268 . S
C2123 Nd2113 2.840 1_565 S
C2123 C2124 1.498 . S
C2123 O2138 1.258 . S
C2123 O2139 1.239 1_455 S
C2124 C2123 1.498 . S
C2124 C2125 1.366 . S
C2124 C2129 1.407 . S
C2125 C2124 1.366 . S
C2125 C2126 1.392 . S
C2125 H2148 0.930 . S
C2126 C2125 1.392 . S
C2126 C2127 1.398 . S
C2126 H2149 0.929 . S
C2127 C2126 1.398 . S
C2127 C2128 1.352 . S
C2128 C2127 1.352 . S
C2128 C2129 1.384 . S
C2128 H2150 0.930 1_455 S
C2129 C2124 1.407 . S
C2129 C2128 1.384 . S
C2129 H2151 0.929 1_455 S
C2130 O2140 1.241 1_455 S
C2130 O2141 1.273 . S
C2131 O2142 1.251 . S
C2131 O2143 1.268 . S
O2132 Nd2112 2.500 . S
O2132 C2114 1.258 . S
O2133 Nd2112 2.492 . S
O2133 C2114 1.239 . S
O2134 Nd2112 2.487 . S
O2134 C2121 1.241 . S
O2135 Nd2112 2.682 . S
O2135 Nd2113 2.422 . S
O2135 C2121 1.273 . S
O2136 Nd2112 2.410 . S
O2136 C2122 1.251 1_455 S
O2137 Nd2113 2.416 1_655 S
O2137 C2122 1.268 . S
O2138 Nd2113 2.506 1_565 S
O2138 C2123 1.258 . S
O2139 Nd2113 2.492 1_665 S
O2139 C2123 1.239 1_655 S
O2140 Nd2113 2.484 1_655 S
O2140 C2130 1.241 1_655 S
O2141 Nd2112 2.414 . S
O2141 Nd2113 2.683 . S
O2141 C2130 1.273 . S
O2142 Nd2113 2.420 . S
O2142 C2131 1.251 . S
O2143 Nd2112 2.424 . S
O2143 C2131 1.268 . S
H2144 C2116 0.930 . S
H2145 C2117 0.929 . S
H2146 C2119 0.930 . S
H2147 C2120 0.929 . S
H2148 C2125 0.930 . S
H2149 C2126 0.929 . S
H2150 C2128 0.930 1_655 S
H2151 C2129 0.929 1_655 S
Nd2152 C2154 2.836 . S
Nd2152 O2172 2.500 . S
Nd2152 O2173 2.492 . S
Nd2152 O2174 2.487 . S
Nd2152 O2175 2.682 . S
Nd2152 O2176 2.410 . S
Nd2152 O2181 2.414 . S
Nd2152 O2183 2.424 . S
Nd2153 C2163 2.836 . S
Nd2153 O2175 2.414 . S
Nd2153 O2177 2.424 . S
Nd2153 O2178 2.500 . S
Nd2153 O2179 2.492 . S
Nd2153 O2180 2.487 . S
Nd2153 O2181 2.682 . S
Nd2153 O2182 2.410 . S
C2154 Nd2152 2.836 . S
C2154 C2155 1.498 . S
C2154 O2172 1.258 . S
C2154 O2173 1.239 . S
C2155 C2154 1.498 . S
C2155 C2156 1.366 . S
C2155 C2160 1.407 . S
C2156 C2155 1.366 . S
C2156 C2157 1.392 . S
C2156 H2184 0.930 . S
C2157 C2156 1.392 . S
C2157 C2158 1.398 . S
C2157 H2185 0.929 . S
C2158 C2157 1.398 . S
C2158 C2159 1.352 . S
C2159 C2158 1.352 . S
C2159 C2160 1.384 . S
C2159 H2186 0.930 . S
C2160 C2155 1.407 . S
C2160 C2159 1.384 . S
C2160 H2187 0.929 . S
C2161 O2174 1.241 . S
C2161 O2175 1.273 . S
C2162 O2176 1.251 . S
C2162 O2177 1.268 . S
C2163 Nd2153 2.836 . S
C2163 C2164 1.498 . S
C2163 O2178 1.258 . S
C2163 O2179 1.239 . S
C2164 C2163 1.498 . S
C2164 C2165 1.366 . S
C2164 C2169 1.407 . S
C2165 C2164 1.366 . S
C2165 C2166 1.392 . S
C2165 H2188 0.930 . S
C2166 C2165 1.392 . S
C2166 C2167 1.398 . S
C2166 H2189 0.929 . S
C2167 C2166 1.398 . S
C2167 C2168 1.352 . S
C2168 C2167 1.352 . S
C2168 C2169 1.384 . S
C2168 H2190 0.930 . S
C2169 C2164 1.407 . S
C2169 C2168 1.384 . S
C2169 H2191 0.929 . S
C2170 O2180 1.241 . S
C2170 O2181 1.273 . S
C2171 O2182 1.251 . S
C2171 O2183 1.268 . S
O2172 Nd2152 2.500 . S
O2172 C2154 1.258 . S
O2173 Nd2152 2.492 . S
O2173 C2154 1.239 . S
O2174 Nd2152 2.487 . S
O2174 C2161 1.241 . S
O2175 Nd2152 2.682 . S
O2175 Nd2153 2.414 . S
O2175 C2161 1.273 . S
O2176 Nd2152 2.410 . S
O2176 C2162 1.251 . S
O2177 Nd2153 2.424 . S
O2177 C2162 1.268 . S
O2178 Nd2153 2.500 . S
O2178 C2163 1.258 . S
O2179 Nd2153 2.492 . S
O2179 C2163 1.239 . S
O2180 Nd2153 2.487 . S
O2180 C2170 1.241 . S
O2181 Nd2152 2.414 . S
O2181 Nd2153 2.682 . S
O2181 C2170 1.273 . S
O2182 Nd2153 2.410 . S
O2182 C2171 1.251 . S
O2183 Nd2152 2.424 . S
O2183 C2171 1.268 . S
H2184 C2156 0.930 . S
H2185 C2157 0.929 . S
H2186 C2159 0.930 . S
H2187 C2160 0.929 . S
H2188 C2165 0.930 . S
H2189 C2166 0.929 . S
H2190 C2168 0.930 . S
H2191 C2169 0.929 . S
Nd2192 C2194 2.836 . S
Nd2192 O2212 2.500 . S
Nd2192 O2213 2.492 . S
Nd2192 O2214 2.487 . S
Nd2192 O2215 2.682 . S
Nd2192 O2216 2.410 . S
Nd2192 O2221 2.414 . S
Nd2192 O2223 2.424 . S
Nd2193 C2203 2.836 . S
Nd2193 O2215 2.414 . S
Nd2193 O2217 2.424 . S
Nd2193 O2218 2.500 . S
Nd2193 O2219 2.492 . S
Nd2193 O2220 2.487 . S
Nd2193 O2221 2.682 . S
Nd2193 O2222 2.410 . S
C2194 Nd2192 2.836 . S
C2194 C2195 1.498 . S
C2194 O2212 1.258 . S
C2194 O2213 1.239 . S
C2195 C2194 1.498 . S
C2195 C2196 1.366 . S
C2195 C2200 1.407 . S
C2196 C2195 1.366 . S
C2196 C2197 1.392 . S
C2196 H2224 0.930 . S
C2197 C2196 1.392 . S
C2197 C2198 1.398 . S
C2197 H2225 0.929 . S
C2198 C2197 1.398 . S
C2198 C2199 1.352 . S
C2199 C2198 1.352 . S
C2199 C2200 1.384 . S
C2199 H2226 0.930 . S
C2200 C2195 1.407 . S
C2200 C2199 1.384 . S
C2200 H2227 0.929 . S
C2201 O2214 1.241 . S
C2201 O2215 1.273 . S
C2202 O2216 1.251 . S
C2202 O2217 1.268 . S
C2203 Nd2193 2.836 . S
C2203 C2204 1.498 . S
C2203 O2218 1.258 . S
C2203 O2219 1.239 . S
C2204 C2203 1.498 . S
C2204 C2205 1.366 . S
C2204 C2209 1.407 . S
C2205 C2204 1.366 . S
C2205 C2206 1.392 . S
C2205 H2228 0.930 . S
C2206 C2205 1.392 . S
C2206 C2207 1.398 . S
C2206 H2229 0.929 . S
C2207 C2206 1.398 . S
C2207 C2208 1.352 . S
C2208 C2207 1.352 . S
C2208 C2209 1.384 . S
C2208 H2230 0.930 . S
C2209 C2204 1.407 . S
C2209 C2208 1.384 . S
C2209 H2231 0.929 . S
C2210 O2220 1.241 . S
C2210 O2221 1.273 . S
C2211 O2222 1.251 . S
C2211 O2223 1.268 . S
O2212 Nd2192 2.500 . S
O2212 C2194 1.258 . S
O2213 Nd2192 2.492 . S
O2213 C2194 1.239 . S
O2214 Nd2192 2.487 . S
O2214 C2201 1.241 . S
O2215 Nd2192 2.682 . S
O2215 Nd2193 2.414 . S
O2215 C2201 1.273 . S
O2216 Nd2192 2.410 . S
O2216 C2202 1.251 . S
O2217 Nd2193 2.424 . S
O2217 C2202 1.268 . S
O2218 Nd2193 2.500 . S
O2218 C2203 1.258 . S
O2219 Nd2193 2.492 . S
O2219 C2203 1.239 . S
O2220 Nd2193 2.487 . S
O2220 C2210 1.241 . S
O2221 Nd2192 2.414 . S
O2221 Nd2193 2.682 . S
O2221 C2210 1.273 . S
O2222 Nd2193 2.410 . S
O2222 C2211 1.251 . S
O2223 Nd2192 2.424 . S
O2223 C2211 1.268 . S
H2224 C2196 0.930 . S
H2225 C2197 0.929 . S
H2226 C2199 0.930 . S
H2227 C2200 0.929 . S
H2228 C2205 0.930 . S
H2229 C2206 0.929 . S
H2230 C2208 0.930 . S
H2231 C2209 0.929 . S
Nd2232 C2234 2.836 . S
Nd2232 O2252 2.500 . S
Nd2232 O2253 2.492 . S
Nd2232 O2254 2.487 . S
Nd2232 O2255 2.682 . S
Nd2232 O2256 2.410 . S
Nd2232 O2261 2.414 . S
Nd2232 O2263 2.424 . S
Nd2233 C2243 2.836 . S
Nd2233 O2255 2.414 . S
Nd2233 O2257 2.424 . S
Nd2233 O2258 2.500 . S
Nd2233 O2259 2.492 . S
Nd2233 O2260 2.487 . S
Nd2233 O2261 2.682 . S
Nd2233 O2262 2.410 . S
C2234 Nd2232 2.836 . S
C2234 C2235 1.498 . S
C2234 O2252 1.258 . S
C2234 O2253 1.239 . S
C2235 C2234 1.498 . S
C2235 C2236 1.366 . S
C2235 C2240 1.407 . S
C2236 C2235 1.366 . S
C2236 C2237 1.392 . S
C2236 H2264 0.930 . S
C2237 C2236 1.392 . S
C2237 C2238 1.398 . S
C2237 H2265 0.929 . S
C2238 C2237 1.398 . S
C2238 C2239 1.352 . S
C2239 C2238 1.352 . S
C2239 C2240 1.384 . S
C2239 H2266 0.930 . S
C2240 C2235 1.407 . S
C2240 C2239 1.384 . S
C2240 H2267 0.929 . S
C2241 O2254 1.241 . S
C2241 O2255 1.273 . S
C2242 O2256 1.251 . S
C2242 O2257 1.268 . S
C2243 Nd2233 2.836 . S
C2243 C2244 1.498 . S
C2243 O2258 1.258 . S
C2243 O2259 1.239 . S
C2244 C2243 1.498 . S
C2244 C2245 1.366 . S
C2244 C2249 1.407 . S
C2245 C2244 1.366 . S
C2245 C2246 1.392 . S
C2245 H2268 0.930 . S
C2246 C2245 1.392 . S
C2246 C2247 1.398 . S
C2246 H2269 0.929 . S
C2247 C2246 1.398 . S
C2247 C2248 1.352 . S
C2248 C2247 1.352 . S
C2248 C2249 1.384 . S
C2248 H2270 0.930 . S
C2249 C2244 1.407 . S
C2249 C2248 1.384 . S
C2249 H2271 0.929 . S
C2250 O2260 1.241 . S
C2250 O2261 1.273 . S
C2251 O2262 1.251 . S
C2251 O2263 1.268 . S
O2252 Nd2232 2.500 . S
O2252 C2234 1.258 . S
O2253 Nd2232 2.492 . S
O2253 C2234 1.239 . S
O2254 Nd2232 2.487 . S
O2254 C2241 1.241 . S
O2255 Nd2232 2.682 . S
O2255 Nd2233 2.414 . S
O2255 C2241 1.273 . S
O2256 Nd2232 2.410 . S
O2256 C2242 1.251 . S
O2257 Nd2233 2.424 . S
O2257 C2242 1.268 . S
O2258 Nd2233 2.500 . S
O2258 C2243 1.258 . S
O2259 Nd2233 2.492 . S
O2259 C2243 1.239 . S
O2260 Nd2233 2.487 . S
O2260 C2250 1.241 . S
O2261 Nd2232 2.414 . S
O2261 Nd2233 2.682 . S
O2261 C2250 1.273 . S
O2262 Nd2233 2.410 . S
O2262 C2251 1.251 . S
O2263 Nd2232 2.424 . S
O2263 C2251 1.268 . S
H2264 C2236 0.930 . S
H2265 C2237 0.929 . S
H2266 C2239 0.930 . S
H2267 C2240 0.929 . S
H2268 C2245 0.930 . S
H2269 C2246 0.929 . S
H2270 C2248 0.930 . S
H2271 C2249 0.929 . S
Nd2272 C2274 2.836 . S
Nd2272 O2292 2.500 1_455 S
Nd2272 O2293 2.492 . S
Nd2272 O2294 2.487 . S
Nd2272 O2295 2.682 . S
Nd2272 O2296 2.410 . S
Nd2272 O2301 2.414 1_455 S
Nd2272 O2303 2.424 . S
Nd2273 C2283 2.836 1_545 S
Nd2273 O2295 2.414 . S
Nd2273 O2297 2.424 . S
Nd2273 O2298 2.500 . S
Nd2273 O2299 2.492 1_545 S
Nd2273 O2300 2.487 1_455 S
Nd2273 O2301 2.682 1_455 S
Nd2273 O2302 2.410 . S
C2274 Nd2272 2.836 . S
C2274 C2275 1.498 . S
C2274 O2292 1.258 1_455 S
C2274 O2293 1.239 . S
C2275 C2274 1.498 . S
C2275 C2276 1.366 1_455 S
C2275 C2280 1.407 . S
C2276 C2275 1.366 1_655 S
C2276 C2277 1.392 . S
C2276 H2304 0.930 . S
C2277 C2276 1.392 . S
C2277 C2278 1.398 . S
C2277 H2305 0.929 . S
C2278 C2277 1.398 . S
C2278 C2279 1.352 1_655 S
C2279 C2278 1.352 1_455 S
C2279 C2280 1.384 . S
C2279 H2306 0.930 . S
C2280 C2275 1.407 . S
C2280 C2279 1.384 . S
C2280 H2307 0.929 . S
C2281 O2294 1.241 . S
C2281 O2295 1.273 . S
C2282 O2296 1.251 . S
C2282 O2297 1.268 . S
C2283 Nd2273 2.836 1_565 S
C2283 C2284 1.498 . S
C2283 O2298 1.258 1_565 S
C2283 O2299 1.239 . S
C2284 C2283 1.498 . S
C2284 C2285 1.366 . S
C2284 C2289 1.407 . S
C2285 C2284 1.366 . S
C2285 C2286 1.392 . S
C2285 H2308 0.930 . S
C2286 C2285 1.392 . S
C2286 C2287 1.398 . S
C2286 H2309 0.929 . S
C2287 C2286 1.398 . S
C2287 C2288 1.352 . S
C2288 C2287 1.352 . S
C2288 C2289 1.384 . S
C2288 H2310 0.930 . S
C2289 C2284 1.407 . S
C2289 C2288 1.384 . S
C2289 H2311 0.929 . S
C2290 O2300 1.241 . S
C2290 O2301 1.273 . S
C2291 O2302 1.251 . S
C2291 O2303 1.268 . S
O2292 Nd2272 2.500 1_655 S
O2292 C2274 1.258 1_655 S
O2293 Nd2272 2.492 . S
O2293 C2274 1.239 . S
O2294 Nd2272 2.487 . S
O2294 C2281 1.241 . S
O2295 Nd2272 2.682 . S
O2295 Nd2273 2.414 . S
O2295 C2281 1.273 . S
O2296 Nd2272 2.410 . S
O2296 C2282 1.251 . S
O2297 Nd2273 2.424 . S
O2297 C2282 1.268 . S
O2298 Nd2273 2.500 . S
O2298 C2283 1.258 1_545 S
O2299 Nd2273 2.492 1_565 S
O2299 C2283 1.239 . S
O2300 Nd2273 2.487 1_655 S
O2300 C2290 1.241 . S
O2301 Nd2272 2.414 1_655 S
O2301 Nd2273 2.682 1_655 S
O2301 C2290 1.273 . S
O2302 Nd2273 2.410 . S
O2302 C2291 1.251 . S
O2303 Nd2272 2.424 . S
O2303 C2291 1.268 . S
H2304 C2276 0.930 . S
H2305 C2277 0.929 . S
H2306 C2279 0.930 . S
H2307 C2280 0.929 . S
H2308 C2285 0.930 . S
H2309 C2286 0.929 . S
H2310 C2288 0.930 . S
H2311 C2289 0.929 . S
Nd2312 C2314 2.836 . S
Nd2312 O2332 2.500 . S
Nd2312 O2333 2.492 . S
Nd2312 O2334 2.487 . S
Nd2312 O2335 2.682 . S
Nd2312 O2336 2.410 . S
Nd2312 O2341 2.414 . S
Nd2312 O2343 2.424 . S
Nd2313 C2323 2.836 . S
Nd2313 O2335 2.414 . S
Nd2313 O2337 2.424 . S
Nd2313 O2338 2.500 . S
Nd2313 O2339 2.492 . S
Nd2313 O2340 2.487 . S
Nd2313 O2341 2.682 . S
Nd2313 O2342 2.410 . S
C2314 Nd2312 2.836 . S
C2314 C2315 1.498 . S
C2314 O2332 1.258 . S
C2314 O2333 1.239 . S
C2315 C2314 1.498 . S
C2315 C2316 1.366 . S
C2315 C2320 1.407 . S
C2316 C2315 1.366 . S
C2316 C2317 1.392 . S
C2316 H2344 0.930 . S
C2317 C2316 1.392 . S
C2317 C2318 1.398 . S
C2317 H2345 0.929 . S
C2318 C2317 1.398 . S
C2318 C2319 1.352 . S
C2319 C2318 1.352 . S
C2319 C2320 1.384 . S
C2319 H2346 0.930 . S
C2320 C2315 1.407 . S
C2320 C2319 1.384 . S
C2320 H2347 0.929 . S
C2321 O2334 1.241 . S
C2321 O2335 1.273 . S
C2322 O2336 1.251 . S
C2322 O2337 1.268 . S
C2323 Nd2313 2.836 . S
C2323 C2324 1.498 . S
C2323 O2338 1.258 . S
C2323 O2339 1.239 . S
C2324 C2323 1.498 . S
C2324 C2325 1.366 . S
C2324 C2329 1.407 . S
C2325 C2324 1.366 . S
C2325 C2326 1.392 . S
C2325 H2348 0.930 . S
C2326 C2325 1.392 . S
C2326 C2327 1.398 . S
C2326 H2349 0.929 . S
C2327 C2326 1.398 . S
C2327 C2328 1.352 . S
C2328 C2327 1.352 . S
C2328 C2329 1.384 . S
C2328 H2350 0.930 . S
C2329 C2324 1.407 . S
C2329 C2328 1.384 . S
C2329 H2351 0.929 . S
C2330 O2340 1.241 . S
C2330 O2341 1.273 . S
C2331 O2342 1.251 . S
C2331 O2343 1.268 . S
O2332 Nd2312 2.500 . S
O2332 C2314 1.258 . S
O2333 Nd2312 2.492 . S
O2333 C2314 1.239 . S
O2334 Nd2312 2.487 . S
O2334 C2321 1.241 . S
O2335 Nd2312 2.682 . S
O2335 Nd2313 2.414 . S
O2335 C2321 1.273 . S
O2336 Nd2312 2.410 . S
O2336 C2322 1.251 . S
O2337 Nd2313 2.424 . S
O2337 C2322 1.268 . S
O2338 Nd2313 2.500 . S
O2338 C2323 1.258 . S
O2339 Nd2313 2.492 . S
O2339 C2323 1.239 . S
O2340 Nd2313 2.487 . S
O2340 C2330 1.241 . S
O2341 Nd2312 2.414 . S
O2341 Nd2313 2.682 . S
O2341 C2330 1.273 . S
O2342 Nd2313 2.410 . S
O2342 C2331 1.251 . S
O2343 Nd2312 2.424 . S
O2343 C2331 1.268 . S
H2344 C2316 0.930 . S
H2345 C2317 0.929 . S
H2346 C2319 0.930 . S
H2347 C2320 0.929 . S
H2348 C2325 0.930 . S
H2349 C2326 0.929 . S
H2350 C2328 0.930 . S
H2351 C2329 0.929 . S
Nd2352 C2354 2.836 . S
Nd2352 O2372 2.500 . S
Nd2352 O2373 2.492 . S
Nd2352 O2374 2.487 . S
Nd2352 O2375 2.682 . S
Nd2352 O2376 2.410 . S
Nd2352 O2381 2.414 . S
Nd2352 O2383 2.424 . S
Nd2353 C2363 2.836 . S
Nd2353 O2375 2.414 . S
Nd2353 O2377 2.424 . S
Nd2353 O2378 2.500 . S
Nd2353 O2379 2.492 . S
Nd2353 O2380 2.487 . S
Nd2353 O2381 2.682 . S
Nd2353 O2382 2.410 . S
C2354 Nd2352 2.836 . S
C2354 C2355 1.498 . S
C2354 O2372 1.258 . S
C2354 O2373 1.239 . S
C2355 C2354 1.498 . S
C2355 C2356 1.366 . S
C2355 C2360 1.407 . S
C2356 C2355 1.366 . S
C2356 C2357 1.392 . S
C2356 H2384 0.930 . S
C2357 C2356 1.392 . S
C2357 C2358 1.398 . S
C2357 H2385 0.929 . S
C2358 C2357 1.398 . S
C2358 C2359 1.352 . S
C2359 C2358 1.352 . S
C2359 C2360 1.384 . S
C2359 H2386 0.930 1_545 S
C2360 C2355 1.407 . S
C2360 C2359 1.384 . S
C2360 H2387 0.905 1_545 S
C2361 O2374 1.241 . S
C2361 O2375 1.273 . S
C2362 O2376 1.251 . S
C2362 O2377 1.268 . S
C2363 Nd2353 2.836 . S
C2363 C2364 1.498 . S
C2363 O2378 1.258 . S
C2363 O2379 1.239 . S
C2364 C2363 1.498 . S
C2364 C2365 1.366 . S
C2364 C2369 1.407 . S
C2365 C2364 1.366 . S
C2365 C2366 1.392 . S
C2365 H2388 0.930 . S
C2366 C2365 1.392 . S
C2366 C2367 1.398 . S
C2366 H2389 0.929 . S
C2367 C2366 1.398 . S
C2367 C2368 1.352 . S
C2368 C2367 1.352 . S
C2368 C2369 1.384 . S
C2368 H2390 0.930 . S
C2369 C2364 1.407 . S
C2369 C2368 1.384 . S
C2369 H2391 0.929 . S
C2370 O2380 1.241 . S
C2370 O2381 1.273 . S
C2371 O2382 1.251 . S
C2371 O2383 1.268 . S
O2372 Nd2352 2.500 . S
O2372 C2354 1.258 . S
O2373 Nd2352 2.492 . S
O2373 C2354 1.239 . S
O2374 Nd2352 2.487 . S
O2374 C2361 1.241 . S
O2375 Nd2352 2.682 . S
O2375 Nd2353 2.414 . S
O2375 C2361 1.273 . S
O2376 Nd2352 2.410 . S
O2376 C2362 1.251 . S
O2377 Nd2353 2.424 . S
O2377 C2362 1.268 . S
O2378 Nd2353 2.500 . S
O2378 C2363 1.258 . S
O2379 Nd2353 2.492 . S
O2379 C2363 1.239 . S
O2380 Nd2353 2.487 . S
O2380 C2370 1.241 . S
O2381 Nd2352 2.414 . S
O2381 Nd2353 2.682 . S
O2381 C2370 1.273 . S
O2382 Nd2353 2.410 . S
O2382 C2371 1.251 . S
O2383 Nd2352 2.424 . S
O2383 C2371 1.268 . S
H2384 C2356 0.930 . S
H2385 C2357 0.929 . S
H2386 C2359 0.930 1_565 S
H2387 C2360 0.905 1_565 S
H2388 C2365 0.930 . S
H2389 C2366 0.929 . S
H2390 C2368 0.930 . S
H2391 C2369 0.929 . S
Nd2392 C2394 2.836 . S
Nd2392 O2412 2.500 . S
Nd2392 O2413 2.492 . S
Nd2392 O2414 2.487 . S
Nd2392 O2415 2.682 . S
Nd2392 O2416 2.410 . S
Nd2392 O2421 2.414 . S
Nd2392 O2423 2.424 . S
Nd2393 C2403 2.836 . S
Nd2393 O2415 2.414 . S
Nd2393 O2417 2.424 . S
Nd2393 O2418 2.500 . S
Nd2393 O2419 2.492 . S
Nd2393 O2420 2.487 . S
Nd2393 O2421 2.682 . S
Nd2393 O2422 2.410 . S
C2394 Nd2392 2.836 . S
C2394 C2395 1.498 . S
C2394 O2412 1.258 . S
C2394 O2413 1.239 . S
C2395 C2394 1.498 . S
C2395 C2396 1.366 . S
C2395 C2400 1.407 . S
C2396 C2395 1.366 . S
C2396 C2397 1.392 . S
C2396 H2424 0.930 . S
C2397 C2396 1.392 . S
C2397 C2398 1.398 . S
C2397 H2425 0.929 . S
C2398 C2397 1.398 . S
C2398 C2399 1.352 . S
C2399 C2398 1.352 . S
C2399 C2400 1.384 . S
C2399 H2426 0.930 . S
C2400 C2395 1.407 . S
C2400 C2399 1.384 . S
C2400 H2427 0.929 . S
C2401 O2414 1.241 . S
C2401 O2415 1.273 . S
C2402 O2416 1.251 . S
C2402 O2417 1.268 . S
C2403 Nd2393 2.836 . S
C2403 C2404 1.498 . S
C2403 O2418 1.258 . S
C2403 O2419 1.239 . S
C2404 C2403 1.498 . S
C2404 C2405 1.366 . S
C2404 C2409 1.407 . S
C2405 C2404 1.366 . S
C2405 C2406 1.392 . S
C2405 H2428 0.930 . S
C2406 C2405 1.392 . S
C2406 C2407 1.398 . S
C2406 H2429 0.929 . S
C2407 C2406 1.398 . S
C2407 C2408 1.352 . S
C2408 C2407 1.352 . S
C2408 C2409 1.384 . S
C2408 H2430 0.930 . S
C2409 C2404 1.407 . S
C2409 C2408 1.384 . S
C2409 H2431 0.929 . S
C2410 O2420 1.241 . S
C2410 O2421 1.273 . S
C2411 O2422 1.251 . S
C2411 O2423 1.268 . S
O2412 Nd2392 2.500 . S
O2412 C2394 1.258 . S
O2413 Nd2392 2.492 . S
O2413 C2394 1.239 . S
O2414 Nd2392 2.487 . S
O2414 C2401 1.241 . S
O2415 Nd2392 2.682 . S
O2415 Nd2393 2.414 . S
O2415 C2401 1.273 . S
O2416 Nd2392 2.410 . S
O2416 C2402 1.251 . S
O2417 Nd2393 2.424 . S
O2417 C2402 1.268 . S
O2418 Nd2393 2.500 . S
O2418 C2403 1.258 . S
O2419 Nd2393 2.492 . S
O2419 C2403 1.239 . S
O2420 Nd2393 2.487 . S
O2420 C2410 1.241 . S
O2421 Nd2392 2.414 . S
O2421 Nd2393 2.682 . S
O2421 C2410 1.273 . S
O2422 Nd2393 2.410 . S
O2422 C2411 1.251 . S
O2423 Nd2392 2.424 . S
O2423 C2411 1.268 . S
H2424 C2396 0.930 . S
H2425 C2397 0.929 . S
H2426 C2399 0.930 . S
H2427 C2400 0.929 . S
H2428 C2405 0.930 . S
H2429 C2406 0.929 . S
H2430 C2408 0.930 . S
H2431 C2409 0.929 . S
Nd2432 C2434 2.836 . S
Nd2432 O2452 2.500 . S
Nd2432 O2453 2.492 . S
Nd2432 O2454 2.487 . S
Nd2432 O2455 2.682 . S
Nd2432 O2456 2.410 . S
Nd2432 O2461 2.414 . S
Nd2432 O2463 2.424 . S
Nd2433 C2443 2.836 . S
Nd2433 O2455 2.414 . S
Nd2433 O2457 2.424 . S
Nd2433 O2458 2.500 . S
Nd2433 O2459 2.492 . S
Nd2433 O2460 2.487 . S
Nd2433 O2461 2.682 . S
Nd2433 O2462 2.410 . S
C2434 Nd2432 2.836 . S
C2434 C2435 1.498 . S
C2434 O2452 1.258 . S
C2434 O2453 1.239 . S
C2435 C2434 1.498 . S
C2435 C2436 1.366 . S
C2435 C2440 1.407 . S
C2436 C2435 1.366 . S
C2436 C2437 1.392 . S
C2436 H2464 0.930 . S
C2437 C2436 1.392 . S
C2437 C2438 1.398 . S
C2437 H2465 0.932 . S
C2438 C2437 1.398 . S
C2438 C2439 1.352 . S
C2439 C2438 1.352 . S
C2439 C2440 1.384 . S
C2439 H2466 0.930 . S
C2440 C2435 1.407 . S
C2440 C2439 1.384 . S
C2440 H2467 0.929 . S
C2441 O2454 1.241 . S
C2441 O2455 1.273 . S
C2442 O2456 1.251 . S
C2442 O2457 1.268 . S
C2443 Nd2433 2.836 . S
C2443 C2444 1.498 . S
C2443 O2458 1.258 . S
C2443 O2459 1.239 . S
C2444 C2443 1.498 . S
C2444 C2445 1.366 . S
C2444 C2449 1.407 . S
C2445 C2444 1.366 . S
C2445 C2446 1.392 . S
C2445 H2468 0.930 . S
C2446 C2445 1.392 . S
C2446 C2447 1.398 . S
C2446 H2469 0.929 . S
C2447 C2446 1.398 . S
C2447 C2448 1.352 . S
C2448 C2447 1.352 . S
C2448 C2449 1.384 . S
C2448 H2470 0.930 . S
C2449 C2444 1.407 . S
C2449 C2448 1.384 . S
C2449 H2471 0.929 . S
C2450 O2460 1.241 . S
C2450 O2461 1.273 . S
C2451 O2462 1.251 . S
C2451 O2463 1.268 . S
O2452 Nd2432 2.500 . S
O2452 C2434 1.258 . S
O2453 Nd2432 2.492 . S
O2453 C2434 1.239 . S
O2454 Nd2432 2.487 . S
O2454 C2441 1.241 . S
O2455 Nd2432 2.682 . S
O2455 Nd2433 2.414 . S
O2455 C2441 1.273 . S
O2456 Nd2432 2.410 . S
O2456 C2442 1.251 . S
O2457 Nd2433 2.424 . S
O2457 C2442 1.268 . S
O2458 Nd2433 2.500 . S
O2458 C2443 1.258 . S
O2459 Nd2433 2.492 . S
O2459 C2443 1.239 . S
O2460 Nd2433 2.487 . S
O2460 C2450 1.241 . S
O2461 Nd2432 2.414 . S
O2461 Nd2433 2.682 . S
O2461 C2450 1.273 . S
O2462 Nd2433 2.410 . S
O2462 C2451 1.251 . S
O2463 Nd2432 2.424 . S
O2463 C2451 1.268 . S
H2464 C2436 0.930 . S
H2465 C2437 0.932 . S
H2466 C2439 0.930 . S
H2467 C2440 0.929 . S
H2468 C2445 0.930 . S
H2469 C2446 0.929 . S
H2470 C2448 0.930 . S
H2471 C2449 0.929 . S
Nd2472 C2474 2.836 . S
Nd2472 O2492 2.500 . S
Nd2472 O2493 2.492 . S
Nd2472 O2494 2.487 . S
Nd2472 O2495 2.682 . S
Nd2472 O2496 2.410 . S
Nd2472 O2501 2.414 . S
Nd2472 O2503 2.424 . S
Nd2473 C2483 2.836 . S
Nd2473 O2495 2.414 . S
Nd2473 O2497 2.424 . S
Nd2473 O2498 2.500 . S
Nd2473 O2499 2.492 . S
Nd2473 O2500 2.487 . S
Nd2473 O2501 2.682 . S
Nd2473 O2502 2.410 . S
C2474 Nd2472 2.836 . S
C2474 C2475 1.498 . S
C2474 O2492 1.258 . S
C2474 O2493 1.239 . S
C2475 C2474 1.498 . S
C2475 C2476 1.366 . S
C2475 C2480 1.407 . S
C2476 C2475 1.366 . S
C2476 C2477 1.392 . S
C2476 H2504 0.930 . S
C2477 C2476 1.392 . S
C2477 C2478 1.398 . S
C2477 H2505 0.929 . S
C2478 C2477 1.398 . S
C2478 C2479 1.352 . S
C2479 C2478 1.352 . S
C2479 C2480 1.384 . S
C2479 H2506 0.930 . S
C2480 C2475 1.407 . S
C2480 C2479 1.384 . S
C2480 H2507 0.929 . S
C2481 O2494 1.241 . S
C2481 O2495 1.273 . S
C2482 O2496 1.251 . S
C2482 O2497 1.268 . S
C2483 Nd2473 2.836 . S
C2483 C2484 1.498 . S
C2483 O2498 1.258 . S
C2483 O2499 1.239 . S
C2484 C2483 1.498 . S
C2484 C2485 1.366 . S
C2484 C2489 1.407 . S
C2485 C2484 1.366 . S
C2485 C2486 1.392 . S
C2485 H2508 0.930 . S
C2486 C2485 1.392 . S
C2486 C2487 1.398 . S
C2486 H2509 0.929 . S
C2487 C2486 1.398 . S
C2487 C2488 1.352 . S
C2488 C2487 1.352 . S
C2488 C2489 1.384 . S
C2488 H2510 0.930 . S
C2489 C2484 1.407 . S
C2489 C2488 1.384 . S
C2489 H2511 0.929 . S
C2490 O2500 1.241 . S
C2490 O2501 1.273 . S
C2491 O2502 1.251 . S
C2491 O2503 1.268 . S
O2492 Nd2472 2.500 . S
O2492 C2474 1.258 . S
O2493 Nd2472 2.492 . S
O2493 C2474 1.239 . S
O2494 Nd2472 2.487 . S
O2494 C2481 1.241 . S
O2495 Nd2472 2.682 . S
O2495 Nd2473 2.414 . S
O2495 C2481 1.273 . S
O2496 Nd2472 2.410 . S
O2496 C2482 1.251 . S
O2497 Nd2473 2.424 . S
O2497 C2482 1.268 . S
O2498 Nd2473 2.500 . S
O2498 C2483 1.258 . S
O2499 Nd2473 2.492 . S
O2499 C2483 1.239 . S
O2500 Nd2473 2.487 . S
O2500 C2490 1.241 . S
O2501 Nd2472 2.414 . S
O2501 Nd2473 2.682 . S
O2501 C2490 1.273 . S
O2502 Nd2473 2.410 . S
O2502 C2491 1.251 . S
O2503 Nd2472 2.424 . S
O2503 C2491 1.268 . S
H2504 C2476 0.930 . S
H2505 C2477 0.929 . S
H2506 C2479 0.930 . S
H2507 C2480 0.929 . S
H2508 C2485 0.930 . S
H2509 C2486 0.929 . S
H2510 C2488 0.930 . S
H2511 C2489 0.929 . S
Nd2512 C2514 2.836 . S
Nd2512 O2532 2.500 . S
Nd2512 O2533 2.492 . S
Nd2512 O2534 2.462 1_655 S
Nd2512 O2535 2.682 1_655 S
Nd2512 O2536 2.410 . S
Nd2512 O2541 2.414 1_655 S
Nd2512 O2543 2.424 1_655 S
Nd2513 C2523 2.836 . S
Nd2513 O2535 2.414 . S
Nd2513 O2537 2.424 . S
Nd2513 O2538 2.500 . S
Nd2513 O2539 2.492 . S
Nd2513 O2540 2.487 . S
Nd2513 O2541 2.682 . S
Nd2513 O2542 2.410 . S
C2514 Nd2512 2.836 . S
C2514 C2515 1.498 . S
C2514 O2532 1.258 . S
C2514 O2533 1.239 . S
C2515 C2514 1.498 . S
C2515 C2516 1.366 . S
C2515 C2520 1.407 . S
C2516 C2515 1.366 . S
C2516 C2517 1.392 . S
C2516 H2544 0.930 . S
C2517 C2516 1.392 . S
C2517 C2518 1.398 . S
C2517 H2545 0.929 . S
C2518 C2517 1.398 . S
C2518 C2519 1.352 . S
C2519 C2518 1.352 . S
C2519 C2520 1.384 . S
C2519 H2546 0.930 . S
C2520 C2515 1.407 . S
C2520 C2519 1.384 . S
C2520 H2547 0.929 . S
C2521 O2534 1.294 . S
C2521 O2535 1.273 . S
C2522 O2536 1.251 1_455 S
C2522 O2537 1.268 . S
C2523 Nd2513 2.836 . S
C2523 C2524 1.498 . S
C2523 O2538 1.258 . S
C2523 O2539 1.239 . S
C2524 C2523 1.498 . S
C2524 C2525 1.366 . S
C2524 C2529 1.407 . S
C2525 C2524 1.366 . S
C2525 C2526 1.392 . S
C2525 H2548 0.930 . S
C2526 C2525 1.392 . S
C2526 C2527 1.398 . S
C2526 H2549 0.929 . S
C2527 C2526 1.398 . S
C2527 C2528 1.352 . S
C2528 C2527 1.352 . S
C2528 C2529 1.384 . S
C2528 H2550 0.930 . S
C2529 C2524 1.407 . S
C2529 C2528 1.384 . S
C2529 H2551 0.929 . S
C2530 O2540 1.241 . S
C2530 O2541 1.273 . S
C2531 O2542 1.251 . S
C2531 O2543 1.268 . S
O2532 Nd2512 2.500 . S
O2532 C2514 1.258 . S
O2533 Nd2512 2.492 . S
O2533 C2514 1.239 . S
O2534 Nd2512 2.462 1_455 S
O2534 C2521 1.294 . S
O2535 Nd2512 2.682 1_455 S
O2535 Nd2513 2.414 . S
O2535 C2521 1.273 . S
O2536 Nd2512 2.410 . S
O2536 C2522 1.251 1_655 S
O2537 Nd2513 2.424 . S
O2537 C2522 1.268 . S
O2538 Nd2513 2.500 . S
O2538 C2523 1.258 . S
O2539 Nd2513 2.492 . S
O2539 C2523 1.239 . S
O2540 Nd2513 2.487 . S
O2540 C2530 1.241 . S
O2541 Nd2512 2.414 1_455 S
O2541 Nd2513 2.682 . S
O2541 C2530 1.273 . S
O2542 Nd2513 2.410 . S
O2542 C2531 1.251 . S
O2543 Nd2512 2.424 1_455 S
O2543 C2531 1.268 . S
H2544 C2516 0.930 . S
H2545 C2517 0.929 . S
H2546 C2519 0.930 . S
H2547 C2520 0.929 . S
H2548 C2525 0.930 . S
H2549 C2526 0.929 . S
H2550 C2528 0.930 . S
H2551 C2529 0.929 . S
Nd2552 C2554 2.836 . S
Nd2552 O2572 2.500 . S
Nd2552 O2573 2.492 . S
Nd2552 O2574 2.487 . S
Nd2552 O2575 2.682 . S
Nd2552 O2576 2.410 . S
Nd2552 O2581 2.414 . S
Nd2552 O2583 2.424 . S
Nd2553 C2563 2.836 . S
Nd2553 O2575 2.414 . S
Nd2553 O2577 2.424 . S
Nd2553 O2578 2.500 . S
Nd2553 O2579 2.492 . S
Nd2553 O2580 2.487 . S
Nd2553 O2581 2.682 . S
Nd2553 O2582 2.410 . S
C2554 Nd2552 2.836 . S
C2554 C2555 1.498 . S
C2554 O2572 1.258 . S
C2554 O2573 1.239 . S
C2555 C2554 1.498 . S
C2555 C2556 1.366 . S
C2555 C2560 1.407 . S
C2556 C2555 1.366 . S
C2556 C2557 1.392 . S
C2556 H2584 0.930 . S
C2557 C2556 1.392 . S
C2557 C2558 1.398 . S
C2557 H2585 0.929 . S
C2558 C2557 1.398 . S
C2558 C2559 1.352 . S
C2559 C2558 1.352 . S
C2559 C2560 1.384 . S
C2559 H2586 0.930 . S
C2560 C2555 1.407 . S
C2560 C2559 1.384 . S
C2560 H2587 0.929 . S
C2561 O2574 1.241 . S
C2561 O2575 1.273 . S
C2562 O2576 1.251 . S
C2562 O2577 1.268 . S
C2563 Nd2553 2.836 . S
C2563 C2564 1.498 . S
C2563 O2578 1.258 . S
C2563 O2579 1.239 . S
C2564 C2563 1.498 . S
C2564 C2565 1.366 . S
C2564 C2569 1.407 . S
C2565 C2564 1.366 . S
C2565 C2566 1.392 . S
C2565 H2588 0.930 . S
C2566 C2565 1.392 . S
C2566 C2567 1.398 . S
C2566 H2589 0.929 . S
C2567 C2566 1.398 . S
C2567 C2568 1.352 . S
C2568 C2567 1.352 . S
C2568 C2569 1.384 . S
C2568 H2590 0.930 . S
C2569 C2564 1.407 . S
C2569 C2568 1.384 . S
C2569 H2591 0.929 . S
C2570 O2580 1.241 . S
C2570 O2581 1.273 . S
C2571 O2582 1.251 . S
C2571 O2583 1.268 . S
O2572 Nd2552 2.500 . S
O2572 C2554 1.258 . S
O2573 Nd2552 2.492 . S
O2573 C2554 1.239 . S
O2574 Nd2552 2.487 . S
O2574 C2561 1.241 . S
O2575 Nd2552 2.682 . S
O2575 Nd2553 2.414 . S
O2575 C2561 1.273 . S
O2576 Nd2552 2.410 . S
O2576 C2562 1.251 . S
O2577 Nd2553 2.424 . S
O2577 C2562 1.268 . S
O2578 Nd2553 2.500 . S
O2578 C2563 1.258 . S
O2579 Nd2553 2.492 . S
O2579 C2563 1.239 . S
O2580 Nd2553 2.487 . S
O2580 C2570 1.241 . S
O2581 Nd2552 2.414 . S
O2581 Nd2553 2.682 . S
O2581 C2570 1.273 . S
O2582 Nd2553 2.410 . S
O2582 C2571 1.251 . S
O2583 Nd2552 2.424 . S
O2583 C2571 1.268 . S
H2584 C2556 0.930 . S
H2585 C2557 0.929 . S
H2586 C2559 0.930 . S
H2587 C2560 0.929 . S
H2588 C2565 0.930 . S
H2589 C2566 0.929 . S
H2590 C2568 0.930 . S
H2591 C2569 0.929 . S
Nd2592 C2594 2.836 . S
Nd2592 O2612 2.500 . S
Nd2592 O2613 2.492 . S
Nd2592 O2614 2.487 . S
Nd2592 O2615 2.682 . S
Nd2592 O2616 2.410 . S
Nd2592 O2621 2.414 . S
Nd2592 O2623 2.424 . S
Nd2593 C2603 2.836 . S
Nd2593 O2615 2.414 . S
Nd2593 O2617 2.424 . S
Nd2593 O2618 2.500 . S
Nd2593 O2619 2.492 . S
Nd2593 O2620 2.487 . S
Nd2593 O2621 2.682 . S
Nd2593 O2622 2.410 . S
C2594 Nd2592 2.836 . S
C2594 C2595 1.498 . S
C2594 O2612 1.258 . S
C2594 O2613 1.239 . S
C2595 C2594 1.498 . S
C2595 C2596 1.366 . S
C2595 C2600 1.407 . S
C2596 C2595 1.366 . S
C2596 C2597 1.392 . S
C2596 H2624 0.930 . S
C2597 C2596 1.392 . S
C2597 C2598 1.398 . S
C2597 H2625 0.929 . S
C2598 C2597 1.398 . S
C2598 C2599 1.352 . S
C2599 C2598 1.352 . S
C2599 C2600 1.384 . S
C2599 H2626 0.930 . S
C2600 C2595 1.407 . S
C2600 C2599 1.384 . S
C2600 H2627 0.929 . S
C2601 O2614 1.241 . S
C2601 O2615 1.273 . S
C2602 O2616 1.251 . S
C2602 O2617 1.268 . S
C2603 Nd2593 2.836 . S
C2603 C2604 1.498 . S
C2603 O2618 1.258 . S
C2603 O2619 1.239 . S
C2604 C2603 1.498 . S
C2604 C2605 1.366 . S
C2604 C2609 1.407 . S
C2605 C2604 1.366 . S
C2605 C2606 1.392 . S
C2605 H2628 0.930 . S
C2606 C2605 1.392 . S
C2606 C2607 1.398 . S
C2606 H2629 0.929 . S
C2607 C2606 1.398 . S
C2607 C2608 1.352 . S
C2608 C2607 1.352 . S
C2608 C2609 1.384 . S
C2608 H2630 0.930 . S
C2609 C2604 1.407 . S
C2609 C2608 1.384 . S
C2609 H2631 0.929 . S
C2610 O2620 1.241 . S
C2610 O2621 1.273 . S
C2611 O2622 1.251 . S
C2611 O2623 1.268 . S
O2612 Nd2592 2.500 . S
O2612 C2594 1.258 . S
O2613 Nd2592 2.492 . S
O2613 C2594 1.239 . S
O2614 Nd2592 2.487 . S
O2614 C2601 1.241 . S
O2615 Nd2592 2.682 . S
O2615 Nd2593 2.414 . S
O2615 C2601 1.273 . S
O2616 Nd2592 2.410 . S
O2616 C2602 1.251 . S
O2617 Nd2593 2.424 . S
O2617 C2602 1.268 . S
O2618 Nd2593 2.500 . S
O2618 C2603 1.258 . S
O2619 Nd2593 2.492 . S
O2619 C2603 1.239 . S
O2620 Nd2593 2.487 . S
O2620 C2610 1.241 . S
O2621 Nd2592 2.414 . S
O2621 Nd2593 2.682 . S
O2621 C2610 1.273 . S
O2622 Nd2593 2.410 . S
O2622 C2611 1.251 . S
O2623 Nd2592 2.424 . S
O2623 C2611 1.268 . S
H2624 C2596 0.930 . S
H2625 C2597 0.929 . S
H2626 C2599 0.930 . S
H2627 C2600 0.929 . S
H2628 C2605 0.930 . S
H2629 C2606 0.929 . S
H2630 C2608 0.930 . S
H2631 C2609 0.929 . S
Nd2632 C2634 2.836 . S
Nd2632 O2652 2.500 . S
Nd2632 O2653 2.492 . S
Nd2632 O2654 2.487 . S
Nd2632 O2655 2.682 . S
Nd2632 O2656 2.410 . S
Nd2632 O2661 2.414 . S
Nd2632 O2663 2.424 . S
Nd2633 C2643 2.836 . S
Nd2633 O2655 2.414 . S
Nd2633 O2657 2.424 . S
Nd2633 O2658 2.500 . S
Nd2633 O2659 2.492 . S
Nd2633 O2660 2.487 . S
Nd2633 O2661 2.682 . S
Nd2633 O2662 2.410 . S
C2634 Nd2632 2.836 . S
C2634 C2635 1.498 . S
C2634 O2652 1.258 . S
C2634 O2653 1.239 . S
C2635 C2634 1.498 . S
C2635 C2636 1.366 . S
C2635 C2640 1.407 . S
C2636 C2635 1.366 . S
C2636 C2637 1.392 . S
C2636 H2664 0.930 . S
C2637 C2636 1.392 . S
C2637 C2638 1.398 . S
C2637 H2665 0.929 . S
C2638 C2637 1.398 . S
C2638 C2639 1.352 . S
C2639 C2638 1.352 . S
C2639 C2640 1.384 . S
C2639 H2666 0.930 . S
C2640 C2635 1.407 . S
C2640 C2639 1.384 . S
C2640 H2667 0.929 . S
C2641 O2654 1.241 . S
C2641 O2655 1.273 . S
C2642 O2656 1.251 . S
C2642 O2657 1.268 . S
C2643 Nd2633 2.836 . S
C2643 C2644 1.498 . S
C2643 O2658 1.258 . S
C2643 O2659 1.239 . S
C2644 C2643 1.498 . S
C2644 C2645 1.366 . S
C2644 C2649 1.407 . S
C2645 C2644 1.366 . S
C2645 C2646 1.392 . S
C2645 H2668 0.930 . S
C2646 C2645 1.392 . S
C2646 C2647 1.398 . S
C2646 H2669 0.929 . S
C2647 C2646 1.398 . S
C2647 C2648 1.352 . S
C2648 C2647 1.352 . S
C2648 C2649 1.384 . S
C2648 H2670 0.930 . S
C2649 C2644 1.407 . S
C2649 C2648 1.384 . S
C2649 H2671 0.929 . S
C2650 O2660 1.241 . S
C2650 O2661 1.273 . S
C2651 O2662 1.251 . S
C2651 O2663 1.268 . S
O2652 Nd2632 2.500 . S
O2652 C2634 1.258 . S
O2653 Nd2632 2.492 . S
O2653 C2634 1.239 . S
O2654 Nd2632 2.487 . S
O2654 C2641 1.241 . S
O2655 Nd2632 2.682 . S
O2655 Nd2633 2.414 . S
O2655 C2641 1.273 . S
O2656 Nd2632 2.410 . S
O2656 C2642 1.251 . S
O2657 Nd2633 2.424 . S
O2657 C2642 1.268 . S
O2658 Nd2633 2.500 . S
O2658 C2643 1.258 . S
O2659 Nd2633 2.492 . S
O2659 C2643 1.239 . S
O2660 Nd2633 2.487 . S
O2660 C2650 1.241 . S
O2661 Nd2632 2.414 . S
O2661 Nd2633 2.682 . S
O2661 C2650 1.273 . S
O2662 Nd2633 2.410 . S
O2662 C2651 1.251 . S
O2663 Nd2632 2.424 . S
O2663 C2651 1.268 . S
H2664 C2636 0.930 . S
H2665 C2637 0.929 . S
H2666 C2639 0.930 . S
H2667 C2640 0.929 . S
H2668 C2645 0.930 . S
H2669 C2646 0.929 . S
H2670 C2648 0.930 . S
H2671 C2649 0.929 . S
Nd2672 C2674 2.836 . S
Nd2672 O2692 2.500 . S
Nd2672 O2693 2.492 . S
Nd2672 O2694 2.487 . S
Nd2672 O2695 2.682 . S
Nd2672 O2696 2.410 . S
Nd2672 O2701 2.414 . S
Nd2672 O2703 2.424 . S
Nd2673 C2683 2.836 . S
Nd2673 O2695 2.414 . S
Nd2673 O2697 2.424 . S
Nd2673 O2698 2.500 . S
Nd2673 O2699 2.492 . S
Nd2673 O2700 2.487 . S
Nd2673 O2701 2.682 . S
Nd2673 O2702 2.410 . S
C2674 Nd2672 2.836 . S
C2674 C2675 1.498 . S
C2674 O2692 1.258 . S
C2674 O2693 1.239 . S
C2675 C2674 1.498 . S
C2675 C2676 1.366 . S
C2675 C2680 1.407 . S
C2676 C2675 1.366 . S
C2676 C2677 1.392 . S
C2676 H2704 0.930 . S
C2677 C2676 1.392 . S
C2677 C2678 1.398 . S
C2677 H2705 0.929 . S
C2678 C2677 1.398 . S
C2678 C2679 1.352 . S
C2679 C2678 1.352 . S
C2679 C2680 1.384 . S
C2679 H2706 0.930 . S
C2680 C2675 1.407 . S
C2680 C2679 1.384 . S
C2680 H2707 0.929 . S
C2681 O2694 1.241 . S
C2681 O2695 1.273 . S
C2682 O2696 1.251 . S
C2682 O2697 1.268 . S
C2683 Nd2673 2.836 . S
C2683 C2684 1.498 . S
C2683 O2698 1.258 . S
C2683 O2699 1.239 . S
C2684 C2683 1.498 . S
C2684 C2685 1.366 . S
C2684 C2689 1.407 . S
C2685 C2684 1.366 . S
C2685 C2686 1.392 . S
C2685 H2708 0.930 . S
C2686 C2685 1.392 . S
C2686 C2687 1.398 . S
C2686 H2709 0.929 . S
C2687 C2686 1.398 . S
C2687 C2688 1.352 . S
C2688 C2687 1.352 . S
C2688 C2689 1.384 . S
C2688 H2710 0.930 . S
C2689 C2684 1.407 . S
C2689 C2688 1.384 . S
C2689 H2711 0.929 . S
C2690 O2700 1.241 . S
C2690 O2701 1.273 . S
C2691 O2702 1.251 . S
C2691 O2703 1.268 . S
O2692 Nd2672 2.500 . S
O2692 C2674 1.258 . S
O2693 Nd2672 2.492 . S
O2693 C2674 1.239 . S
O2694 Nd2672 2.487 . S
O2694 C2681 1.241 . S
O2695 Nd2672 2.682 . S
O2695 Nd2673 2.414 . S
O2695 C2681 1.273 . S
O2696 Nd2672 2.410 . S
O2696 C2682 1.251 . S
O2697 Nd2673 2.424 . S
O2697 C2682 1.268 . S
O2698 Nd2673 2.500 . S
O2698 C2683 1.258 . S
O2699 Nd2673 2.492 . S
O2699 C2683 1.239 . S
O2700 Nd2673 2.487 . S
O2700 C2690 1.241 . S
O2701 Nd2672 2.414 . S
O2701 Nd2673 2.682 . S
O2701 C2690 1.273 . S
O2702 Nd2673 2.410 . S
O2702 C2691 1.251 . S
O2703 Nd2672 2.424 . S
O2703 C2691 1.268 . S
H2704 C2676 0.930 . S
H2705 C2677 0.929 . S
H2706 C2679 0.930 . S
H2707 C2680 0.929 . S
H2708 C2685 0.930 . S
H2709 C2686 0.929 . S
H2710 C2688 0.930 . S
H2711 C2689 0.929 . S
Nd2712 C2714 2.836 . S
Nd2712 O2732 2.500 . S
Nd2712 O2733 2.492 . S
Nd2712 O2734 2.487 . S
Nd2712 O2735 2.682 . S
Nd2712 O2736 2.410 . S
Nd2712 O2741 2.414 . S
Nd2712 O2743 2.424 . S
Nd2713 C2723 2.836 . S
Nd2713 O2735 2.414 1_655 S
Nd2713 O2737 2.424 1_655 S
Nd2713 O2738 2.500 . S
Nd2713 O2739 2.492 . S
Nd2713 O2740 2.487 . S
Nd2713 O2741 2.682 1_655 S
Nd2713 O2742 2.410 1_655 S
C2714 Nd2712 2.836 . S
C2714 C2715 1.498 . S
C2714 O2732 1.258 . S
C2714 O2733 1.239 . S
C2715 C2714 1.498 . S
C2715 C2716 1.366 . S
C2715 C2720 1.407 . S
C2716 C2715 1.366 . S
C2716 C2717 1.379 1_554 S
C2716 H2744 0.930 1_554 S
C2717 C2716 1.379 1_556 S
C2717 C2718 1.373 1_556 S
C2717 H2745 0.969 . S
C2718 C2717 1.373 1_554 S
C2718 C2719 1.352 . S
C2719 C2718 1.352 . S
C2719 C2720 1.384 . S
C2719 H2746 0.930 . S
C2720 C2715 1.407 . S
C2720 C2719 1.384 . S
C2720 H2747 0.929 . S
C2721 O2734 1.241 . S
C2721 O2735 1.273 . S
C2722 O2736 1.251 . S
C2722 O2737 1.268 . S
C2723 Nd2713 2.836 . S
C2723 C2724 1.498 . S
C2723 O2738 1.258 . S
C2723 O2739 1.239 . S
C2724 C2723 1.498 . S
C2724 C2725 1.366 . S
C2724 C2729 1.407 . S
C2725 C2724 1.366 . S
C2725 C2726 1.392 . S
C2725 H2748 0.930 . S
C2726 C2725 1.392 . S
C2726 C2727 1.398 . S
C2726 H2749 0.929 . S
C2727 C2726 1.398 . S
C2727 C2728 1.352 . S
C2728 C2727 1.352 . S
C2728 C2729 1.384 . S
C2728 H2750 0.930 . S
C2729 C2724 1.407 . S
C2729 C2728 1.384 . S
C2729 H2751 0.929 . S
C2730 O2740 1.241 1_455 S
C2730 O2741 1.273 . S
C2731 O2742 1.251 . S
C2731 O2743 1.268 . S
O2732 Nd2712 2.500 . S
O2732 C2714 1.258 . S
O2733 Nd2712 2.492 . S
O2733 C2714 1.239 . S
O2734 Nd2712 2.487 . S
O2734 C2721 1.241 . S
O2735 Nd2712 2.682 . S
O2735 Nd2713 2.414 1_455 S
O2735 C2721 1.273 . S
O2736 Nd2712 2.410 . S
O2736 C2722 1.251 . S
O2737 Nd2713 2.424 1_455 S
O2737 C2722 1.268 . S
O2738 Nd2713 2.500 . S
O2738 C2723 1.258 . S
O2739 Nd2713 2.492 . S
O2739 C2723 1.239 . S
O2740 Nd2713 2.487 . S
O2740 C2730 1.241 1_655 S
O2741 Nd2712 2.414 . S
O2741 Nd2713 2.682 1_455 S
O2741 C2730 1.273 . S
O2742 Nd2713 2.410 1_455 S
O2742 C2731 1.251 . S
O2743 Nd2712 2.424 . S
O2743 C2731 1.268 . S
H2744 C2716 0.930 1_556 S
H2745 C2717 0.969 . S
H2746 C2719 0.930 . S
H2747 C2720 0.929 . S
H2748 C2725 0.930 . S
H2749 C2726 0.929 . S
H2750 C2728 0.930 . S
H2751 C2729 0.929 . S
C2752 C2753 1.349 . S
C2752 C2754 1.327 . S
C2752 H2777 0.977 . S
C2753 C2752 1.349 . S
C2753 C2769 1.349 . S
C2754 C2752 1.327 . S
C2754 C2773 1.429 . S
C2754 H2778 0.953 . S
C2755 C2772 1.574 . S
C2755 C2774 1.368 . S
C2755 H2779 0.949 . S
H2756 C2760 0.952 1_554 S
C2757 C2758 1.349 . S
C2757 C2759 1.327 1_554 S
C2757 H2780 0.950 . S
C2758 C2757 1.349 . S
C2758 C2770 1.349 . S
C2759 C2757 1.327 1_556 S
C2759 C2775 1.429 . S
C2759 H2781 0.950 . S
C2760 H2756 0.952 1_556 S
C2760 C2768 1.574 . S
C2760 C2776 1.368 . S
H2761 C2769 0.950 . S
H2762 C2767 0.950 . S
H2763 C2768 0.948 . S
H2764 C2770 0.988 . S
H2765 C2771 0.963 . S
H2766 C2772 0.949 . S
C2767 H2762 0.950 . S
C2767 C2769 1.327 . S
C2767 C2773 1.429 . S
C2768 C2760 1.574 . S
C2768 H2763 0.948 . S
C2768 C2774 1.368 . S
C2769 C2753 1.349 . S
C2769 H2761 0.950 . S
C2769 C2767 1.327 . S
C2770 C2758 1.349 . S
C2770 H2764 0.988 . S
C2770 C2771 1.327 . S
C2771 H2765 0.963 . S
C2771 C2770 1.327 . S
C2771 C2775 1.429 1_554 S
C2772 C2755 1.574 . S
C2772 H2766 0.949 . S
C2772 C2776 1.368 . S
C2773 C2754 1.429 . S
C2773 C2767 1.429 . S
C2773 C2774 1.523 . S
C2774 C2755 1.368 . S
C2774 C2768 1.368 . S
C2774 C2773 1.523 . S
C2775 C2759 1.429 . S
C2775 C2771 1.429 1_556 S
C2775 C2776 1.523 . S
C2776 C2760 1.368 . S
C2776 C2772 1.368 . S
C2776 C2775 1.523 . S
H2777 C2752 0.977 . S
H2778 C2754 0.953 . S
H2779 C2755 0.949 . S
H2780 C2757 0.950 . S
H2781 C2759 0.950 . S
C2782 C2783 1.349 . S
C2782 C2784 1.327 . S
C2782 H2807 0.950 . S
C2783 C2782 1.349 . S
C2783 C2799 1.349 . S
C2784 C2782 1.327 . S
C2784 C2803 1.429 . S
C2784 H2808 0.950 . S
C2785 C2802 1.574 . S
C2785 C2804 1.368 . S
C2785 H2809 0.949 . S
H2786 C2790 0.949 . S
C2787 C2788 1.349 . S
C2787 C2789 1.327 . S
C2787 H2810 0.950 . S
C2788 C2787 1.349 . S
C2788 C2800 1.349 . S
C2789 C2787 1.327 . S
C2789 C2805 1.429 . S
C2789 H2811 0.950 . S
C2790 H2786 0.949 . S
C2790 C2798 1.574 . S
C2790 C2806 1.368 . S
H2791 C2799 0.950 . S
H2792 C2797 0.950 . S
H2793 C2798 0.949 . S
H2794 C2800 0.950 . S
H2795 C2801 0.950 . S
H2796 C2802 0.949 . S
C2797 H2792 0.950 . S
C2797 C2799 1.327 . S
C2797 C2803 1.429 . S
C2798 C2790 1.574 . S
C2798 H2793 0.949 . S
C2798 C2804 1.368 . S
C2799 C2783 1.349 . S
C2799 H2791 0.950 . S
C2799 C2797 1.327 . S
C2800 C2788 1.349 . S
C2800 H2794 0.950 . S
C2800 C2801 1.327 . S
C2801 H2795 0.950 . S
C2801 C2800 1.327 . S
C2801 C2805 1.429 . S
C2802 C2785 1.574 . S
C2802 H2796 0.949 . S
C2802 C2806 1.368 . S
C2803 C2784 1.429 . S
C2803 C2797 1.429 . S
C2803 C2804 1.523 . S
C2804 C2785 1.368 . S
C2804 C2798 1.368 . S
C2804 C2803 1.523 . S
C2805 C2789 1.429 . S
C2805 C2801 1.429 . S
C2805 C2806 1.523 . S
C2806 C2790 1.368 . S
C2806 C2802 1.368 . S
C2806 C2805 1.523 . S
H2807 C2782 0.950 . S
H2808 C2784 0.950 . S
H2809 C2785 0.949 . S
H2810 C2787 0.950 . S
H2811 C2789 0.950 . S
C2812 C2813 1.349 . S
C2812 C2814 1.327 . S
C2812 H2837 0.950 . S
C2813 C2812 1.349 . S
C2813 C2829 1.349 . S
C2814 C2812 1.327 . S
C2814 C2833 1.429 . S
C2814 H2838 0.950 . S
C2815 C2832 1.574 . S
C2815 C2834 1.368 . S
C2815 H2839 0.949 . S
H2816 C2820 0.949 . S
C2817 C2818 1.335 1_565 S
C2817 C2819 1.327 . S
C2817 H2840 0.950 . S
C2818 C2817 1.335 1_545 S
C2818 C2830 1.347 1_545 S
C2819 C2817 1.327 . S
C2819 C2835 1.429 . S
C2819 H2841 0.950 . S
C2820 H2816 0.949 . S
C2820 C2828 1.574 . S
C2820 C2836 1.368 . S
H2821 C2829 0.950 . S
H2822 C2827 0.950 . S
H2823 C2828 0.949 . S
H2824 C2830 0.950 1_545 S
H2825 C2831 0.950 . S
H2826 C2832 0.949 . S
C2827 H2822 0.950 . S
C2827 C2829 1.327 . S
C2827 C2833 1.429 . S
C2828 C2820 1.574 . S
C2828 H2823 0.949 . S
C2828 C2834 1.368 . S
C2829 C2813 1.349 . S
C2829 H2821 0.950 . S
C2829 C2827 1.327 . S
C2830 C2818 1.347 1_565 S
C2830 H2824 0.950 1_565 S
C2830 C2831 1.327 . S
C2831 H2825 0.950 . S
C2831 C2830 1.327 . S
C2831 C2835 1.429 . S
C2832 C2815 1.574 . S
C2832 H2826 0.949 . S
C2832 C2836 1.368 . S
C2833 C2814 1.429 . S
C2833 C2827 1.429 . S
C2833 C2834 1.523 . S
C2834 C2815 1.368 . S
C2834 C2828 1.368 . S
C2834 C2833 1.523 . S
C2835 C2819 1.429 . S
C2835 C2831 1.429 . S
C2835 C2836 1.523 . S
C2836 C2820 1.368 . S
C2836 C2832 1.368 . S
C2836 C2835 1.523 . S
H2837 C2812 0.950 . S
H2838 C2814 0.950 . S
H2839 C2815 0.949 . S
H2840 C2817 0.950 . S
H2841 C2819 0.950 . S
C2842 C2843 1.349 . S
C2842 C2844 1.327 . S
C2842 H2867 0.950 . S
C2843 C2842 1.349 . S
C2843 C2859 1.349 . S
C2844 C2842 1.327 . S
C2844 C2863 1.429 . S
C2844 H2868 0.950 . S
C2845 C2862 1.574 . S
C2845 C2864 1.368 . S
C2845 H2869 0.949 . S
H2846 C2850 0.949 . S
C2847 C2848 1.349 . S
C2847 C2849 1.327 . S
C2847 H2870 0.950 . S
C2848 C2847 1.349 . S
C2848 C2860 1.349 . S
C2849 C2847 1.327 . S
C2849 C2865 1.429 . S
C2849 H2871 0.950 . S
C2850 H2846 0.949 . S
C2850 C2858 1.574 . S
C2850 C2866 1.368 . S
H2851 C2859 0.950 . S
H2852 C2857 0.950 . S
H2853 C2858 0.949 . S
H2854 C2860 0.950 . S
H2855 C2861 0.950 . S
H2856 C2862 0.949 . S
C2857 H2852 0.950 . S
C2857 C2859 1.327 . S
C2857 C2863 1.429 . S
C2858 C2850 1.574 . S
C2858 H2853 0.949 . S
C2858 C2864 1.368 . S
C2859 C2843 1.349 . S
C2859 H2851 0.950 . S
C2859 C2857 1.327 . S
C2860 C2848 1.349 . S
C2860 H2854 0.950 . S
C2860 C2861 1.327 . S
C2861 H2855 0.950 . S
C2861 C2860 1.327 . S
C2861 C2865 1.429 . S
C2862 C2845 1.574 . S
C2862 H2856 0.949 . S
C2862 C2866 1.368 . S
C2863 C2844 1.429 . S
C2863 C2857 1.429 . S
C2863 C2864 1.523 . S
C2864 C2845 1.368 . S
C2864 C2858 1.368 . S
C2864 C2863 1.523 . S
C2865 C2849 1.429 . S
C2865 C2861 1.429 . S
C2865 C2866 1.523 . S
C2866 C2850 1.368 . S
C2866 C2862 1.368 . S
C2866 C2865 1.523 . S
H2867 C2842 0.950 . S
H2868 C2844 0.950 . S
H2869 C2845 0.949 . S
H2870 C2847 0.950 . S
H2871 C2849 0.950 . S
C2872 C2873 1.349 . S
C2872 C2874 1.327 . S
C2872 H2897 0.950 . S
C2873 C2872 1.349 . S
C2873 C2889 1.349 1_455 S
C2874 C2872 1.327 . S
C2874 C2893 1.429 . S
C2874 H2898 0.950 . S
C2875 C2892 1.574 . S
C2875 C2894 1.368 . S
C2875 H2899 0.949 . S
H2876 C2880 0.949 . S
C2877 C2878 1.349 . S
C2877 C2879 1.327 . S
C2877 H2900 0.950 . S
C2878 C2877 1.349 . S
C2878 C2890 1.349 . S
C2879 C2877 1.327 . S
C2879 C2895 1.429 . S
C2879 H2901 0.950 . S
C2880 H2876 0.949 . S
C2880 C2888 1.574 . S
C2880 C2896 1.368 . S
H2881 C2889 0.950 . S
H2882 C2887 0.929 1_655 S
H2883 C2888 0.949 . S
H2884 C2890 0.950 . S
H2885 C2891 0.950 . S
H2886 C2892 0.949 . S
C2887 H2882 0.929 1_455 S
C2887 C2889 1.323 1_455 S
C2887 C2893 1.457 . S
C2888 C2880 1.574 . S
C2888 H2883 0.949 . S
C2888 C2894 1.368 . S
C2889 C2873 1.349 1_655 S
C2889 H2881 0.950 . S
C2889 C2887 1.323 1_655 S
C2890 C2878 1.349 . S
C2890 H2884 0.950 . S
C2890 C2891 1.327 . S
C2891 H2885 0.950 . S
C2891 C2890 1.327 . S
C2891 C2895 1.429 . S
C2892 C2875 1.574 . S
C2892 H2886 0.949 . S
C2892 C2896 1.368 . S
C2893 C2874 1.429 . S
C2893 C2887 1.457 . S
C2893 C2894 1.523 . S
C2894 C2875 1.368 . S
C2894 C2888 1.368 . S
C2894 C2893 1.523 . S
C2895 C2879 1.429 . S
C2895 C2891 1.429 . S
C2895 C2896 1.523 . S
C2896 C2880 1.368 . S
C2896 C2892 1.368 . S
C2896 C2895 1.523 . S
H2897 C2872 0.950 . S
H2898 C2874 0.950 . S
H2899 C2875 0.949 . S
H2900 C2877 0.950 . S
H2901 C2879 0.950 . S
C2902 C2903 1.349 . S
C2902 C2904 1.327 . S
C2902 H2927 0.950 . S
C2903 C2902 1.349 . S
C2903 C2919 1.349 . S
C2904 C2902 1.327 . S
C2904 C2923 1.429 . S
C2904 H2928 0.950 . S
C2905 C2922 1.574 . S
C2905 C2924 1.368 . S
C2905 H2929 0.949 . S
H2906 C2910 0.949 . S
C2907 C2908 1.349 . S
C2907 C2909 1.327 . S
C2907 H2930 0.950 . S
C2908 C2907 1.349 . S
C2908 C2920 1.349 . S
C2909 C2907 1.327 . S
C2909 C2925 1.429 . S
C2909 H2931 0.950 . S
C2910 H2906 0.949 . S
C2910 C2918 1.574 . S
C2910 C2926 1.368 . S
H2911 C2919 0.950 . S
H2912 C2917 0.950 . S
H2913 C2918 0.949 . S
H2914 C2920 0.950 . S
H2915 C2921 0.950 . S
H2916 C2922 0.949 . S
C2917 H2912 0.950 . S
C2917 C2919 1.327 . S
C2917 C2923 1.429 . S
C2918 C2910 1.574 . S
C2918 H2913 0.949 . S
C2918 C2924 1.368 . S
C2919 C2903 1.349 . S
C2919 H2911 0.950 . S
C2919 C2917 1.327 . S
C2920 C2908 1.349 . S
C2920 H2914 0.950 . S
C2920 C2921 1.327 . S
C2921 H2915 0.950 . S
C2921 C2920 1.327 . S
C2921 C2925 1.429 . S
C2922 C2905 1.574 . S
C2922 H2916 0.949 . S
C2922 C2926 1.368 . S
C2923 C2904 1.429 . S
C2923 C2917 1.429 . S
C2923 C2924 1.523 . S
C2924 C2905 1.368 . S
C2924 C2918 1.368 . S
C2924 C2923 1.523 . S
C2925 C2909 1.429 . S
C2925 C2921 1.429 . S
C2925 C2926 1.523 . S
C2926 C2910 1.368 . S
C2926 C2922 1.368 . S
C2926 C2925 1.523 . S
H2927 C2902 0.950 . S
H2928 C2904 0.950 . S
H2929 C2905 0.949 . S
H2930 C2907 0.950 . S
H2931 C2909 0.950 . S
C2932 C2933 1.349 . S
C2932 C2934 1.327 . S
C2932 H2957 0.950 . S
C2933 C2932 1.349 . S
C2933 C2949 1.349 . S
C2934 C2932 1.327 . S
C2934 C2953 1.429 . S
C2934 H2958 0.950 . S
C2935 C2952 1.574 . S
C2935 C2954 1.368 . S
C2935 H2959 0.949 . S
H2936 C2940 0.949 . S
C2937 C2938 1.349 . S
C2937 C2939 1.327 . S
C2937 H2960 0.950 . S
C2938 C2937 1.349 . S
C2938 C2950 1.349 . S
C2939 C2937 1.327 . S
C2939 C2955 1.429 . S
C2939 H2961 0.950 . S
C2940 H2936 0.949 . S
C2940 C2948 1.574 . S
C2940 C2956 1.368 . S
H2941 C2949 0.950 . S
H2942 C2947 0.950 . S
H2943 C2948 0.949 . S
H2944 C2950 0.950 . S
H2945 C2951 0.950 . S
H2946 C2952 0.949 . S
C2947 H2942 0.950 . S
C2947 C2949 1.327 . S
C2947 C2953 1.429 . S
C2948 C2940 1.574 . S
C2948 H2943 0.949 . S
C2948 C2954 1.368 . S
C2949 C2933 1.349 . S
C2949 H2941 0.950 . S
C2949 C2947 1.327 . S
C2950 C2938 1.349 . S
C2950 H2944 0.950 . S
C2950 C2951 1.327 . S
C2951 H2945 0.950 . S
C2951 C2950 1.327 . S
C2951 C2955 1.429 . S
C2952 C2935 1.574 . S
C2952 H2946 0.949 . S
C2952 C2956 1.368 . S
C2953 C2934 1.429 . S
C2953 C2947 1.429 . S
C2953 C2954 1.523 . S
C2954 C2935 1.368 . S
C2954 C2948 1.368 . S
C2954 C2953 1.523 . S
C2955 C2939 1.429 . S
C2955 C2951 1.429 . S
C2955 C2956 1.523 . S
C2956 C2940 1.368 . S
C2956 C2952 1.368 . S
C2956 C2955 1.523 . S
H2957 C2932 0.950 . S
H2958 C2934 0.950 . S
H2959 C2935 0.949 . S
H2960 C2937 0.950 . S
H2961 C2939 0.950 . S
C2962 C2963 1.349 . S
C2962 C2964 1.327 . S
C2962 H2987 0.950 . S
C2963 C2962 1.349 . S
C2963 C2979 1.349 . S
C2964 C2962 1.327 . S
C2964 C2983 1.429 . S
C2964 H2988 0.950 . S
C2965 C2982 1.574 . S
C2965 C2984 1.368 . S
C2965 H2989 0.949 . S
H2966 C2970 0.949 . S
C2967 C2968 1.349 . S
C2967 C2969 1.327 . S
C2967 H2990 0.950 . S
C2968 C2967 1.349 . S
C2968 C2980 1.349 . S
C2969 C2967 1.327 . S
C2969 C2985 1.429 . S
C2969 H2991 0.950 . S
C2970 H2966 0.949 . S
C2970 C2978 1.574 . S
C2970 C2986 1.368 . S
H2971 C2979 0.950 . S
H2972 C2977 0.950 . S
H2973 C2978 0.949 . S
H2974 C2980 0.950 . S
H2975 C2981 0.950 . S
H2976 C2982 0.949 . S
C2977 H2972 0.950 . S
C2977 C2979 1.327 . S
C2977 C2983 1.429 . S
C2978 C2970 1.574 . S
C2978 H2973 0.949 . S
C2978 C2984 1.368 . S
C2979 C2963 1.349 . S
C2979 H2971 0.950 . S
C2979 C2977 1.327 . S
C2980 C2968 1.349 . S
C2980 H2974 0.950 . S
C2980 C2981 1.327 . S
C2981 H2975 0.950 . S
C2981 C2980 1.327 . S
C2981 C2985 1.429 . S
C2982 C2965 1.574 . S
C2982 H2976 0.949 . S
C2982 C2986 1.368 . S
C2983 C2964 1.429 . S
C2983 C2977 1.429 . S
C2983 C2984 1.523 . S
C2984 C2965 1.368 . S
C2984 C2978 1.368 . S
C2984 C2983 1.523 . S
C2985 C2969 1.429 . S
C2985 C2981 1.429 . S
C2985 C2986 1.523 . S
C2986 C2970 1.368 . S
C2986 C2982 1.368 . S
C2986 C2985 1.523 . S
H2987 C2962 0.950 . S
H2988 C2964 0.950 . S
H2989 C2965 0.949 . S
H2990 C2967 0.950 . S
H2991 C2969 0.950 . S
C2992 C2993 1.349 . S
C2992 C2994 1.327 . S
C2992 H3017 0.950 . S
C2993 C2992 1.349 . S
C2993 C3009 1.349 . S
C2994 C2992 1.327 . S
C2994 C3013 1.429 . S
C2994 H3018 0.950 . S
C2995 C3012 1.574 . S
C2995 C3014 1.368 . S
C2995 H3019 0.949 . S
H2996 C3000 0.949 . S
C2997 C2998 1.381 . S
C2997 C2999 1.327 . S
C2997 H3020 0.950 . S
C2998 C2997 1.381 . S
C2998 C3010 1.355 1_655 S
C2999 C2997 1.327 . S
C2999 C3015 1.429 . S
C2999 H3021 0.950 . S
C3000 H2996 0.949 . S
C3000 C3008 1.574 . S
C3000 C3016 1.368 . S
H3001 C3009 0.950 . S
H3002 C3007 0.950 . S
H3003 C3008 0.949 . S
H3004 C3010 0.950 . S
H3005 C3011 0.950 . S
H3006 C3012 0.949 . S
C3007 H3002 0.950 . S
C3007 C3009 1.327 . S
C3007 C3013 1.429 . S
C3008 C3000 1.574 . S
C3008 H3003 0.949 . S
C3008 C3014 1.368 . S
C3009 C2993 1.349 . S
C3009 H3001 0.950 . S
C3009 C3007 1.327 . S
C3010 C2998 1.355 1_455 S
C3010 H3004 0.950 . S
C3010 C3011 1.327 1_455 S
C3011 H3005 0.950 . S
C3011 C3010 1.327 1_655 S
C3011 C3015 1.429 . S
C3012 C2995 1.574 . S
C3012 H3006 0.949 . S
C3012 C3016 1.368 . S
C3013 C2994 1.429 . S
C3013 C3007 1.429 . S
C3013 C3014 1.523 . S
C3014 C2995 1.368 . S
C3014 C3008 1.368 . S
C3014 C3013 1.523 . S
C3015 C2999 1.429 . S
C3015 C3011 1.429 . S
C3015 C3016 1.523 . S
C3016 C3000 1.368 . S
C3016 C3012 1.368 . S
C3016 C3015 1.523 . S
H3017 C2992 0.950 . S
H3018 C2994 0.950 . S
H3019 C2995 0.949 . S
H3020 C2997 0.950 . S
H3021 C2999 0.950 . S
C3022 C3023 1.349 . S
C3022 C3024 1.327 . S
C3022 H3047 0.950 . S
C3023 C3022 1.349 . S
C3023 C3039 1.349 . S
C3024 C3022 1.327 . S
C3024 C3043 1.429 . S
C3024 H3048 0.950 . S
C3025 C3042 1.574 . S
C3025 C3044 1.368 . S
C3025 H3049 0.949 . S
H3026 C3030 0.949 . S
C3027 C3028 1.349 . S
C3027 C3029 1.327 . S
C3027 H3050 0.950 . S
C3028 C3027 1.349 . S
C3028 C3040 1.349 . S
C3029 C3027 1.327 . S
C3029 C3045 1.429 . S
C3029 H3051 0.950 . S
C3030 H3026 0.949 . S
C3030 C3038 1.574 . S
C3030 C3046 1.368 . S
H3031 C3039 0.950 . S
H3032 C3037 0.950 . S
H3033 C3038 0.949 . S
H3034 C3040 0.950 . S
H3035 C3041 0.950 . S
H3036 C3042 0.949 . S
C3037 H3032 0.950 . S
C3037 C3039 1.327 . S
C3037 C3043 1.429 . S
C3038 C3030 1.574 . S
C3038 H3033 0.949 . S
C3038 C3044 1.368 . S
C3039 C3023 1.349 . S
C3039 H3031 0.950 . S
C3039 C3037 1.327 . S
C3040 C3028 1.349 . S
C3040 H3034 0.950 . S
C3040 C3041 1.327 . S
C3041 H3035 0.950 . S
C3041 C3040 1.327 . S
C3041 C3045 1.429 . S
C3042 C3025 1.574 . S
C3042 H3036 0.949 . S
C3042 C3046 1.368 . S
C3043 C3024 1.429 . S
C3043 C3037 1.429 . S
C3043 C3044 1.523 . S
C3044 C3025 1.368 . S
C3044 C3038 1.368 . S
C3044 C3043 1.523 . S
C3045 C3029 1.429 . S
C3045 C3041 1.429 . S
C3045 C3046 1.523 . S
C3046 C3030 1.368 . S
C3046 C3042 1.368 . S
C3046 C3045 1.523 . S
H3047 C3022 0.950 . S
H3048 C3024 0.950 . S
H3049 C3025 0.949 . S
H3050 C3027 0.950 . S
H3051 C3029 0.950 . S
C3052 C3053 1.349 . S
C3052 C3054 1.327 . S
C3052 H3077 0.950 . S
C3053 C3052 1.349 . S
C3053 C3069 1.349 1_565 S
C3054 C3052 1.327 . S
C3054 C3073 1.429 1_565 S
C3054 H3078 0.950 . S
C3055 C3072 1.574 . S
C3055 C3074 1.368 . S
C3055 H3079 0.949 . S
H3056 C3060 0.949 1_565 S
C3057 C3058 1.349 . S
C3057 C3059 1.327 . S
C3057 H3080 0.950 . S
C3058 C3057 1.349 . S
C3058 C3070 1.349 . S
C3059 C3057 1.327 . S
C3059 C3075 1.429 . S
C3059 H3081 0.950 . S
C3060 H3056 0.949 1_545 S
C3060 C3068 1.574 1_545 S
C3060 C3076 1.368 . S
H3061 C3069 0.950 . S
H3062 C3067 0.950 . S
H3063 C3068 0.949 . S
H3064 C3070 0.950 . S
H3065 C3071 0.950 . S
H3066 C3072 0.949 . S
C3067 H3062 0.950 . S
C3067 C3069 1.327 . S
C3067 C3073 1.429 . S
C3068 C3060 1.574 1_565 S
C3068 H3063 0.949 . S
C3068 C3074 1.368 1_565 S
C3069 C3053 1.349 1_545 S
C3069 H3061 0.950 . S
C3069 C3067 1.327 . S
C3070 C3058 1.349 . S
C3070 H3064 0.950 . S
C3070 C3071 1.327 . S
C3071 H3065 0.950 . S
C3071 C3070 1.327 . S
C3071 C3075 1.429 . S
C3072 C3055 1.574 . S
C3072 H3066 0.949 . S
C3072 C3076 1.368 . S
C3073 C3054 1.429 1_545 S
C3073 C3067 1.429 . S
C3073 C3074 1.523 . S
C3074 C3055 1.368 . S
C3074 C3068 1.368 1_545 S
C3074 C3073 1.523 . S
C3075 C3059 1.429 . S
C3075 C3071 1.429 . S
C3075 C3076 1.523 . S
C3076 C3060 1.368 . S
C3076 C3072 1.368 . S
C3076 C3075 1.523 . S
H3077 C3052 0.950 . S
H3078 C3054 0.950 . S
H3079 C3055 0.949 . S
H3080 C3057 0.950 . S
H3081 C3059 0.950 . S
C3082 C3083 1.349 . S
C3082 C3084 1.326 1_554 S
C3082 H3107 0.951 . S
C3083 C3082 1.349 . S
C3083 C3099 1.349 1_554 S
C3084 C3082 1.326 1_556 S
C3084 C3103 1.429 . S
C3084 H3108 0.950 . S
C3085 C3102 1.574 . S
C3085 C3104 1.368 . S
C3085 H3109 0.949 . S
H3086 C3090 0.949 . S
C3087 C3088 1.349 . S
C3087 C3089 1.327 . S
C3087 H3110 0.950 . S
C3088 C3087 1.349 . S
C3088 C3100 1.349 . S
C3089 C3087 1.327 . S
C3089 C3105 1.429 . S
C3089 H3111 0.950 . S
C3090 H3086 0.949 . S
C3090 C3098 1.574 . S
C3090 C3106 1.368 . S
H3091 C3099 0.950 . S
H3092 C3097 0.950 . S
H3093 C3098 0.949 . S
H3094 C3100 0.950 . S
H3095 C3101 0.950 . S
H3096 C3102 0.949 . S
C3097 H3092 0.950 . S
C3097 C3099 1.327 . S
C3097 C3103 1.429 . S
C3098 C3090 1.574 . S
C3098 H3093 0.949 . S
C3098 C3104 1.368 . S
C3099 C3083 1.349 1_556 S
C3099 H3091 0.950 . S
C3099 C3097 1.327 . S
C3100 C3088 1.349 . S
C3100 H3094 0.950 . S
C3100 C3101 1.327 . S
C3101 H3095 0.950 . S
C3101 C3100 1.327 . S
C3101 C3105 1.429 . S
C3102 C3085 1.574 . S
C3102 H3096 0.949 . S
C3102 C3106 1.368 . S
C3103 C3084 1.429 . S
C3103 C3097 1.429 . S
C3103 C3104 1.523 . S
C3104 C3085 1.368 . S
C3104 C3098 1.368 . S
C3104 C3103 1.523 . S
C3105 C3089 1.429 . S
C3105 C3101 1.429 . S
C3105 C3106 1.523 . S
C3106 C3090 1.368 . S
C3106 C3102 1.368 . S
C3106 C3105 1.523 . S
H3107 C3082 0.951 . S
H3108 C3084 0.950 . S
H3109 C3085 0.949 . S
H3110 C3087 0.950 . S
H3111 C3089 0.950 . S
C3112 C3113 1.349 . S
C3112 C3114 1.327 . S
C3112 H3137 0.950 . S
C3113 C3112 1.349 . S
C3113 C3129 1.349 . S
C3114 C3112 1.327 . S
C3114 C3133 1.429 . S
C3114 H3138 0.950 . S
C3115 C3132 1.574 . S
C3115 C3134 1.368 . S
C3115 H3139 0.949 . S
H3116 C3120 0.949 . S
C3117 C3118 1.349 . S
C3117 C3119 1.327 . S
C3117 H3140 0.924 1_655 S
C3118 C3117 1.349 . S
C3118 C3130 1.349 . S
C3119 C3117 1.327 . S
C3119 C3135 1.429 . S
C3119 H3141 0.950 . S
C3120 H3116 0.949 . S
C3120 C3128 1.574 . S
C3120 C3136 1.368 . S
H3121 C3129 0.950 . S
H3122 C3127 0.950 . S
H3123 C3128 0.949 . S
H3124 C3130 0.950 . S
H3125 C3131 0.950 . S
H3126 C3132 0.949 . S
C3127 H3122 0.950 . S
C3127 C3129 1.327 . S
C3127 C3133 1.429 . S
C3128 C3120 1.574 . S
C3128 H3123 0.949 . S
C3128 C3134 1.368 . S
C3129 C3113 1.349 . S
C3129 H3121 0.950 . S
C3129 C3127 1.327 . S
C3130 C3118 1.349 . S
C3130 H3124 0.950 . S
C3130 C3131 1.327 . S
C3131 H3125 0.950 . S
C3131 C3130 1.327 . S
C3131 C3135 1.429 . S
C3132 C3115 1.574 . S
C3132 H3126 0.949 . S
C3132 C3136 1.368 . S
C3133 C3114 1.429 . S
C3133 C3127 1.429 . S
C3133 C3134 1.523 . S
C3134 C3115 1.368 . S
C3134 C3128 1.368 . S
C3134 C3133 1.523 . S
C3135 C3119 1.429 . S
C3135 C3131 1.429 . S
C3135 C3136 1.523 . S
C3136 C3120 1.368 . S
C3136 C3132 1.368 . S
C3136 C3135 1.523 . S
H3137 C3112 0.950 . S
H3138 C3114 0.950 . S
H3139 C3115 0.949 . S
H3140 C3117 0.924 1_455 S
H3141 C3119 0.950 . S
C3142 C3143 1.349 . S
C3142 C3144 1.327 . S
C3142 H3167 0.950 . S
C3143 C3142 1.349 . S
C3143 C3159 1.349 . S
C3144 C3142 1.327 . S
C3144 C3163 1.429 . S
C3144 H3168 0.950 . S
C3145 C3162 1.574 . S
C3145 C3164 1.368 . S
C3145 H3169 0.949 . S
H3146 C3150 0.949 . S
C3147 C3148 1.349 . S
C3147 C3149 1.327 . S
C3147 H3170 0.950 . S
C3148 C3147 1.349 . S
C3148 C3160 1.349 . S
C3149 C3147 1.327 . S
C3149 C3165 1.429 . S
C3149 H3171 0.950 . S
C3150 H3146 0.949 . S
C3150 C3158 1.574 . S
C3150 C3166 1.368 . S
H3151 C3159 0.950 . S
H3152 C3157 0.950 . S
H3153 C3158 0.949 . S
H3154 C3160 0.950 . S
H3155 C3161 0.950 . S
H3156 C3162 0.949 . S
C3157 H3152 0.950 . S
C3157 C3159 1.327 . S
C3157 C3163 1.429 . S
C3158 C3150 1.574 . S
C3158 H3153 0.949 . S
C3158 C3164 1.368 . S
C3159 C3143 1.349 . S
C3159 H3151 0.950 . S
C3159 C3157 1.327 . S
C3160 C3148 1.349 . S
C3160 H3154 0.950 . S
C3160 C3161 1.327 . S
C3161 H3155 0.950 . S
C3161 C3160 1.327 . S
C3161 C3165 1.429 . S
C3162 C3145 1.574 . S
C3162 H3156 0.949 . S
C3162 C3166 1.368 . S
C3163 C3144 1.429 . S
C3163 C3157 1.429 . S
C3163 C3164 1.523 . S
C3164 C3145 1.368 . S
C3164 C3158 1.368 . S
C3164 C3163 1.523 . S
C3165 C3149 1.429 . S
C3165 C3161 1.429 . S
C3165 C3166 1.523 . S
C3166 C3150 1.368 . S
C3166 C3162 1.368 . S
C3166 C3165 1.523 . S
H3167 C3142 0.950 . S
H3168 C3144 0.950 . S
H3169 C3145 0.949 . S
H3170 C3147 0.950 . S
H3171 C3149 0.950 . S
C3172 C3173 1.349 . S
C3172 C3174 1.327 . S
C3172 H3197 0.950 . S
C3173 C3172 1.349 . S
C3173 C3189 1.349 . S
C3174 C3172 1.327 . S
C3174 C3193 1.429 . S
C3174 H3198 0.950 . S
C3175 C3192 1.574 . S
C3175 C3194 1.368 . S
C3175 H3199 0.949 . S
H3176 C3180 0.949 . S
C3177 C3178 1.349 . S
C3177 C3179 1.327 . S
C3177 H3200 0.950 1_556 S
C3178 C3177 1.349 . S
C3178 C3190 1.349 . S
C3179 C3177 1.327 . S
C3179 C3195 1.429 . S
C3179 H3201 0.950 . S
C3180 H3176 0.949 . S
C3180 C3188 1.574 . S
C3180 C3196 1.368 . S
H3181 C3189 0.950 1_565 S
H3182 C3187 0.950 . S
H3183 C3188 0.949 . S
H3184 C3190 0.950 . S
H3185 C3191 0.950 . S
H3186 C3192 0.949 . S
C3187 H3182 0.950 . S
C3187 C3189 1.327 . S
C3187 C3193 1.429 . S
C3188 C3180 1.574 . S
C3188 H3183 0.949 . S
C3188 C3194 1.368 . S
C3189 C3173 1.349 . S
C3189 H3181 0.950 1_545 S
C3189 C3187 1.327 . S
C3190 C3178 1.349 . S
C3190 H3184 0.950 . S
C3190 C3191 1.327 . S
C3191 H3185 0.950 . S
C3191 C3190 1.327 . S
C3191 C3195 1.429 . S
C3192 C3175 1.574 . S
C3192 H3186 0.949 . S
C3192 C3196 1.368 . S
C3193 C3174 1.429 . S
C3193 C3187 1.429 . S
C3193 C3194 1.523 . S
C3194 C3175 1.368 . S
C3194 C3188 1.368 . S
C3194 C3193 1.523 . S
C3195 C3179 1.429 . S
C3195 C3191 1.429 . S
C3195 C3196 1.523 . S
C3196 C3180 1.368 . S
C3196 C3192 1.368 . S
C3196 C3195 1.523 . S
H3197 C3172 0.950 . S
H3198 C3174 0.950 . S
H3199 C3175 0.949 . S
H3200 C3177 0.950 1_554 S
H3201 C3179 0.950 . S
C3202 C3203 1.349 . S
C3202 C3204 1.327 . S
C3202 H3227 0.950 . S
C3203 C3202 1.349 . S
C3203 C3219 1.349 . S
C3204 C3202 1.327 . S
C3204 C3223 1.429 . S
C3204 H3228 0.950 . S
C3205 C3222 1.574 . S
C3205 C3224 1.368 . S
C3205 H3229 0.949 . S
H3206 C3210 0.949 . S
C3207 C3208 1.349 . S
C3207 C3209 1.327 . S
C3207 H3230 0.950 . S
C3208 C3207 1.349 . S
C3208 C3220 1.349 . S
C3209 C3207 1.327 . S
C3209 C3225 1.429 . S
C3209 H3231 0.950 . S
C3210 H3206 0.949 . S
C3210 C3218 1.574 . S
C3210 C3226 1.368 . S
H3211 C3219 0.950 . S
H3212 C3217 0.950 . S
H3213 C3218 0.949 . S
H3214 C3220 0.950 . S
H3215 C3221 0.950 . S
H3216 C3222 0.949 . S
C3217 H3212 0.950 . S
C3217 C3219 1.327 . S
C3217 C3223 1.429 . S
C3218 C3210 1.574 . S
C3218 H3213 0.949 . S
C3218 C3224 1.368 . S
C3219 C3203 1.349 . S
C3219 H3211 0.950 . S
C3219 C3217 1.327 . S
C3220 C3208 1.349 . S
C3220 H3214 0.950 . S
C3220 C3221 1.327 . S
C3221 H3215 0.950 . S
C3221 C3220 1.327 . S
C3221 C3225 1.429 . S
C3222 C3205 1.574 . S
C3222 H3216 0.949 . S
C3222 C3226 1.368 . S
C3223 C3204 1.429 . S
C3223 C3217 1.429 . S
C3223 C3224 1.523 . S
C3224 C3205 1.368 . S
C3224 C3218 1.368 . S
C3224 C3223 1.523 . S
C3225 C3209 1.429 . S
C3225 C3221 1.429 . S
C3225 C3226 1.523 . S
C3226 C3210 1.368 . S
C3226 C3222 1.368 . S
C3226 C3225 1.523 . S
H3227 C3202 0.950 . S
H3228 C3204 0.950 . S
H3229 C3205 0.949 . S
H3230 C3207 0.950 . S
H3231 C3209 0.950 . S
C3232 C3233 1.349 . S
C3232 C3234 1.327 . S
C3232 H3257 0.950 . S
C3233 C3232 1.349 . S
C3233 C3249 1.349 . S
C3234 C3232 1.327 . S
C3234 C3253 1.429 . S
C3234 H3258 0.950 . S
C3235 C3252 1.574 . S
C3235 C3254 1.368 . S
C3235 H3259 0.949 . S
H3236 C3240 0.949 1_545 S
C3237 C3238 1.349 . S
C3237 C3239 1.327 1_545 S
C3237 H3260 0.950 . S
C3238 C3237 1.349 . S
C3238 C3250 1.349 . S
C3239 C3237 1.327 1_565 S
C3239 C3255 1.430 1_565 S
C3239 H3261 0.950 . S
C3240 H3236 0.949 1_565 S
C3240 C3248 1.574 . S
C3240 C3256 1.368 . S
H3241 C3249 0.950 . S
H3242 C3247 0.950 . S
H3243 C3248 0.949 . S
H3244 C3250 0.950 . S
H3245 C3251 0.950 . S
H3246 C3252 0.949 . S
C3247 H3242 0.950 . S
C3247 C3249 1.327 . S
C3247 C3253 1.429 . S
C3248 C3240 1.574 . S
C3248 H3243 0.949 . S
C3248 C3254 1.368 . S
C3249 C3233 1.349 . S
C3249 H3241 0.950 . S
C3249 C3247 1.327 . S
C3250 C3238 1.349 . S
C3250 H3244 0.950 . S
C3250 C3251 1.327 . S
C3251 H3245 0.950 . S
C3251 C3250 1.327 . S
C3251 C3255 1.447 . S
C3252 C3235 1.574 . S
C3252 H3246 0.949 . S
C3252 C3256 1.368 . S
C3253 C3234 1.429 . S
C3253 C3247 1.429 . S
C3253 C3254 1.523 . S
C3254 C3235 1.368 . S
C3254 C3248 1.368 . S
C3254 C3253 1.523 . S
C3255 C3239 1.430 1_545 S
C3255 C3251 1.447 . S
C3255 C3256 1.505 1_545 S
C3256 C3240 1.368 . S
C3256 C3252 1.368 . S
C3256 C3255 1.505 1_565 S
H3257 C3232 0.950 . S
H3258 C3234 0.950 . S
H3259 C3235 0.949 . S
H3260 C3237 0.950 . S
H3261 C3239 0.950 . S
C3262 C3263 1.349 . S
C3262 C3264 1.308 1_556 S
C3262 H3287 0.950 . S
C3263 C3262 1.349 . S
C3263 C3279 1.349 . S
C3264 C3262 1.308 1_554 S
C3264 C3283 1.443 . S
C3264 H3288 0.958 . S
C3265 C3282 1.574 . S
C3265 C3284 1.368 . S
C3265 H3289 0.949 . S
H3266 C3270 0.949 . S
C3267 C3268 1.349 . S
C3267 C3269 1.327 . S
C3267 H3290 0.950 . S
C3268 C3267 1.349 . S
C3268 C3280 1.349 . S
C3269 C3267 1.327 . S
C3269 C3285 1.429 . S
C3269 H3291 0.950 . S
C3270 H3266 0.949 . S
C3270 C3278 1.574 . S
C3270 C3286 1.368 . S
H3271 C3279 0.950 . S
H3272 C3277 0.939 1_554 S
H3273 C3278 0.949 . S
H3274 C3280 0.950 . S
H3275 C3281 0.950 . S
H3276 C3282 0.949 . S
C3277 H3272 0.939 1_556 S
C3277 C3279 1.336 . S
C3277 C3283 1.425 1_556 S
C3278 C3270 1.574 . S
C3278 H3273 0.949 . S
C3278 C3284 1.368 . S
C3279 C3263 1.349 . S
C3279 H3271 0.950 . S
C3279 C3277 1.336 . S
C3280 C3268 1.349 . S
C3280 H3274 0.950 . S
C3280 C3281 1.327 . S
C3281 H3275 0.950 . S
C3281 C3280 1.327 . S
C3281 C3285 1.429 . S
C3282 C3265 1.574 . S
C3282 H3276 0.949 . S
C3282 C3286 1.368 . S
C3283 C3264 1.443 . S
C3283 C3277 1.425 1_554 S
C3283 C3284 1.523 . S
C3284 C3265 1.368 . S
C3284 C3278 1.368 . S
C3284 C3283 1.523 . S
C3285 C3269 1.429 . S
C3285 C3281 1.429 . S
C3285 C3286 1.523 . S
C3286 C3270 1.368 . S
C3286 C3282 1.368 . S
C3286 C3285 1.523 . S
H3287 C3262 0.950 . S
H3288 C3264 0.958 . S
H3289 C3265 0.949 . S
H3290 C3267 0.950 . S
H3291 C3269 0.950 . S
C3292 C3293 1.349 . S
C3292 C3294 1.327 . S
C3292 H3317 0.950 . S
C3293 C3292 1.349 . S
C3293 C3309 1.349 . S
C3294 C3292 1.327 . S
C3294 C3313 1.429 . S
C3294 H3318 0.950 . S
C3295 C3312 1.574 . S
C3295 C3314 1.368 . S
C3295 H3319 0.949 . S
H3296 C3300 0.949 . S
C3297 C3298 1.349 . S
C3297 C3299 1.327 . S
C3297 H3320 0.950 . S
C3298 C3297 1.349 . S
C3298 C3310 1.349 . S
C3299 C3297 1.327 . S
C3299 C3315 1.429 . S
C3299 H3321 0.950 . S
C3300 H3296 0.949 . S
C3300 C3308 1.574 . S
C3300 C3316 1.368 . S
H3301 C3309 0.950 . S
H3302 C3307 0.950 . S
H3303 C3308 0.949 . S
H3304 C3310 0.950 . S
H3305 C3311 0.950 . S
H3306 C3312 0.949 . S
C3307 H3302 0.950 . S
C3307 C3309 1.327 . S
C3307 C3313 1.429 . S
C3308 C3300 1.574 . S
C3308 H3303 0.949 . S
C3308 C3314 1.368 . S
C3309 C3293 1.349 . S
C3309 H3301 0.950 . S
C3309 C3307 1.327 . S
C3310 C3298 1.349 . S
C3310 H3304 0.950 . S
C3310 C3311 1.327 . S
C3311 H3305 0.950 . S
C3311 C3310 1.327 . S
C3311 C3315 1.429 . S
C3312 C3295 1.574 . S
C3312 H3306 0.949 . S
C3312 C3316 1.368 . S
C3313 C3294 1.429 . S
C3313 C3307 1.429 . S
C3313 C3314 1.523 . S
C3314 C3295 1.368 . S
C3314 C3308 1.368 . S
C3314 C3313 1.523 . S
C3315 C3299 1.429 . S
C3315 C3311 1.429 . S
C3315 C3316 1.523 . S
C3316 C3300 1.368 . S
C3316 C3312 1.368 . S
C3316 C3315 1.523 . S
H3317 C3292 0.950 . S
H3318 C3294 0.950 . S
H3319 C3295 0.949 . S
H3320 C3297 0.950 . S
H3321 C3299 0.950 . S
C3322 C3323 1.349 . S
C3322 C3324 1.327 . S
C3322 H3347 0.950 . S
C3323 C3322 1.349 . S
C3323 C3339 1.349 . S
C3324 C3322 1.327 . S
C3324 C3343 1.429 . S
C3324 H3348 0.950 . S
C3325 C3342 1.574 . S
C3325 C3344 1.368 . S
C3325 H3349 0.949 . S
H3326 C3330 0.949 . S
C3327 C3328 1.349 . S
C3327 C3329 1.327 . S
C3327 H3350 0.950 . S
C3328 C3327 1.349 . S
C3328 C3340 1.349 . S
C3329 C3327 1.327 . S
C3329 C3345 1.429 . S
C3329 H3351 0.950 . S
C3330 H3326 0.949 . S
C3330 C3338 1.574 . S
C3330 C3346 1.368 . S
H3331 C3339 0.950 . S
H3332 C3337 0.950 . S
H3333 C3338 0.949 . S
H3334 C3340 0.950 . S
H3335 C3341 0.950 . S
H3336 C3342 0.949 . S
C3337 H3332 0.950 . S
C3337 C3339 1.327 . S
C3337 C3343 1.429 . S
C3338 C3330 1.574 . S
C3338 H3333 0.949 . S
C3338 C3344 1.368 . S
C3339 C3323 1.349 . S
C3339 H3331 0.950 . S
C3339 C3337 1.327 . S
C3340 C3328 1.349 . S
C3340 H3334 0.950 . S
C3340 C3341 1.327 . S
C3341 H3335 0.950 . S
C3341 C3340 1.327 . S
C3341 C3345 1.429 . S
C3342 C3325 1.574 . S
C3342 H3336 0.949 . S
C3342 C3346 1.368 . S
C3343 C3324 1.429 . S
C3343 C3337 1.429 . S
C3343 C3344 1.523 . S
C3344 C3325 1.368 . S
C3344 C3338 1.368 . S
C3344 C3343 1.523 . S
C3345 C3329 1.429 . S
C3345 C3341 1.429 . S
C3345 C3346 1.523 . S
C3346 C3330 1.368 . S
C3346 C3342 1.368 . S
C3346 C3345 1.523 . S
H3347 C3322 0.950 . S
H3348 C3324 0.950 . S
H3349 C3325 0.949 . S
H3350 C3327 0.950 . S
H3351 C3329 0.950 . S
C3352 C3353 1.349 . S
C3352 C3354 1.327 . S
C3352 H3377 0.950 . S
C3353 C3352 1.349 . S
C3353 C3369 1.349 . S
C3354 C3352 1.327 . S
C3354 C3373 1.429 . S
C3354 H3378 0.950 . S
C3355 C3372 1.574 . S
C3355 C3374 1.368 . S
C3355 H3379 0.949 . S
H3356 C3360 0.949 . S
C3357 C3358 1.349 . S
C3357 C3359 1.327 . S
C3357 H3380 0.950 . S
C3358 C3357 1.349 . S
C3358 C3370 1.349 . S
C3359 C3357 1.327 . S
C3359 C3375 1.429 . S
C3359 H3381 0.950 . S
C3360 H3356 0.949 . S
C3360 C3368 1.574 . S
C3360 C3376 1.368 . S
H3361 C3369 0.950 . S
H3362 C3367 0.950 . S
H3363 C3368 0.949 . S
H3364 C3370 0.950 . S
H3365 C3371 0.950 . S
H3366 C3372 0.949 . S
C3367 H3362 0.950 . S
C3367 C3369 1.327 . S
C3367 C3373 1.429 . S
C3368 C3360 1.574 . S
C3368 H3363 0.949 . S
C3368 C3374 1.368 . S
C3369 C3353 1.349 . S
C3369 H3361 0.950 . S
C3369 C3367 1.327 . S
C3370 C3358 1.349 . S
C3370 H3364 0.950 . S
C3370 C3371 1.327 . S
C3371 H3365 0.950 . S
C3371 C3370 1.327 . S
C3371 C3375 1.429 . S
C3372 C3355 1.574 . S
C3372 H3366 0.949 . S
C3372 C3376 1.368 . S
C3373 C3354 1.429 . S
C3373 C3367 1.429 . S
C3373 C3374 1.523 . S
C3374 C3355 1.368 . S
C3374 C3368 1.368 . S
C3374 C3373 1.523 . S
C3375 C3359 1.429 . S
C3375 C3371 1.429 . S
C3375 C3376 1.523 . S
C3376 C3360 1.368 . S
C3376 C3372 1.368 . S
C3376 C3375 1.523 . S
H3377 C3352 0.950 . S
H3378 C3354 0.950 . S
H3379 C3355 0.949 . S
H3380 C3357 0.950 . S
H3381 C3359 0.950 . S
C3382 C3383 1.349 . S
C3382 C3384 1.327 . S
C3382 H3407 0.950 . S
C3383 C3382 1.349 . S
C3383 C3399 1.349 . S
C3384 C3382 1.327 . S
C3384 C3403 1.429 . S
C3384 H3408 0.950 . S
C3385 C3402 1.574 . S
C3385 C3404 1.368 . S
C3385 H3409 0.949 . S
H3386 C3390 0.949 . S
C3387 C3388 1.349 . S
C3387 C3389 1.327 . S
C3387 H3410 0.950 . S
C3388 C3387 1.349 . S
C3388 C3400 1.349 . S
C3389 C3387 1.327 . S
C3389 C3405 1.429 . S
C3389 H3411 0.950 . S
C3390 H3386 0.949 . S
C3390 C3398 1.574 . S
C3390 C3406 1.368 . S
H3391 C3399 0.950 . S
H3392 C3397 0.950 . S
H3393 C3398 0.949 . S
H3394 C3400 0.950 . S
H3395 C3401 0.950 . S
H3396 C3402 0.949 . S
C3397 H3392 0.950 . S
C3397 C3399 1.327 . S
C3397 C3403 1.429 . S
C3398 C3390 1.574 . S
C3398 H3393 0.949 . S
C3398 C3404 1.368 . S
C3399 C3383 1.349 . S
C3399 H3391 0.950 . S
C3399 C3397 1.327 . S
C3400 C3388 1.349 . S
C3400 H3394 0.950 . S
C3400 C3401 1.327 . S
C3401 H3395 0.950 . S
C3401 C3400 1.327 . S
C3401 C3405 1.429 . S
C3402 C3385 1.574 . S
C3402 H3396 0.949 . S
C3402 C3406 1.368 . S
C3403 C3384 1.429 . S
C3403 C3397 1.429 . S
C3403 C3404 1.523 . S
C3404 C3385 1.368 . S
C3404 C3398 1.368 . S
C3404 C3403 1.523 . S
C3405 C3389 1.429 . S
C3405 C3401 1.429 . S
C3405 C3406 1.523 . S
C3406 C3390 1.368 . S
C3406 C3402 1.368 . S
C3406 C3405 1.523 . S
H3407 C3382 0.950 . S
H3408 C3384 0.950 . S
H3409 C3385 0.949 . S
H3410 C3387 0.950 . S
H3411 C3389 0.950 . S
C3412 C3413 1.349 . S
C3412 C3414 1.327 . S
C3412 H3437 0.950 . S
C3413 C3412 1.349 . S
C3413 C3429 1.349 . S
C3414 C3412 1.327 . S
C3414 C3433 1.429 . S
C3414 H3438 0.950 . S
C3415 C3432 1.574 . S
C3415 C3434 1.368 . S
C3415 H3439 0.949 . S
H3416 C3420 0.949 . S
C3417 C3418 1.349 . S
C3417 C3419 1.327 . S
C3417 H3440 0.950 . S
C3418 C3417 1.349 . S
C3418 C3430 1.349 . S
C3419 C3417 1.327 . S
C3419 C3435 1.429 . S
C3419 H3441 0.950 . S
C3420 H3416 0.949 . S
C3420 C3428 1.574 . S
C3420 C3436 1.368 . S
H3421 C3429 0.950 . S
H3422 C3427 0.950 . S
H3423 C3428 0.949 . S
H3424 C3430 0.950 . S
H3425 C3431 0.950 . S
H3426 C3432 0.949 . S
C3427 H3422 0.950 . S
C3427 C3429 1.327 . S
C3427 C3433 1.429 . S
C3428 C3420 1.574 . S
C3428 H3423 0.949 . S
C3428 C3434 1.368 . S
C3429 C3413 1.349 . S
C3429 H3421 0.950 . S
C3429 C3427 1.327 . S
C3430 C3418 1.349 . S
C3430 H3424 0.950 . S
C3430 C3431 1.327 . S
C3431 H3425 0.950 . S
C3431 C3430 1.327 . S
C3431 C3435 1.429 . S
C3432 C3415 1.574 . S
C3432 H3426 0.949 . S
C3432 C3436 1.368 . S
C3433 C3414 1.429 . S
C3433 C3427 1.429 . S
C3433 C3434 1.523 . S
C3434 C3415 1.368 . S
C3434 C3428 1.368 . S
C3434 C3433 1.523 . S
C3435 C3419 1.429 . S
C3435 C3431 1.429 . S
C3435 C3436 1.523 . S
C3436 C3420 1.368 . S
C3436 C3432 1.368 . S
C3436 C3435 1.523 . S
H3437 C3412 0.950 . S
H3438 C3414 0.950 . S
H3439 C3415 0.949 . S
H3440 C3417 0.950 . S
H3441 C3419 0.950 . S
C3442 C3443 1.349 . S
C3442 C3444 1.327 . S
C3442 H3467 0.950 . S
C3443 C3442 1.349 . S
C3443 C3459 1.349 . S
C3444 C3442 1.327 . S
C3444 C3463 1.429 . S
C3444 H3468 0.950 . S
C3445 C3462 1.574 . S
C3445 C3464 1.368 . S
C3445 H3469 0.949 . S
H3446 C3450 0.949 . S
C3447 C3448 1.349 . S
C3447 C3449 1.327 . S
C3447 H3470 0.950 . S
C3448 C3447 1.349 . S
C3448 C3460 1.349 . S
C3449 C3447 1.327 . S
C3449 C3465 1.429 . S
C3449 H3471 0.950 . S
C3450 H3446 0.949 . S
C3450 C3458 1.574 . S
C3450 C3466 1.368 . S
H3451 C3459 0.950 . S
H3452 C3457 0.950 . S
H3453 C3458 0.949 . S
H3454 C3460 0.950 . S
H3455 C3461 0.950 . S
H3456 C3462 0.949 . S
C3457 H3452 0.950 . S
C3457 C3459 1.327 . S
C3457 C3463 1.429 . S
C3458 C3450 1.574 . S
C3458 H3453 0.949 . S
C3458 C3464 1.368 . S
C3459 C3443 1.349 . S
C3459 H3451 0.950 . S
C3459 C3457 1.327 . S
C3460 C3448 1.349 . S
C3460 H3454 0.950 . S
C3460 C3461 1.327 . S
C3461 H3455 0.950 . S
C3461 C3460 1.327 . S
C3461 C3465 1.429 . S
C3462 C3445 1.574 . S
C3462 H3456 0.949 . S
C3462 C3466 1.368 . S
C3463 C3444 1.429 . S
C3463 C3457 1.429 . S
C3463 C3464 1.523 . S
C3464 C3445 1.368 . S
C3464 C3458 1.368 . S
C3464 C3463 1.523 . S
C3465 C3449 1.429 . S
C3465 C3461 1.429 . S
C3465 C3466 1.523 . S
C3466 C3450 1.368 . S
C3466 C3462 1.368 . S
C3466 C3465 1.523 . S
H3467 C3442 0.950 . S
H3468 C3444 0.950 . S
H3469 C3445 0.949 . S
H3470 C3447 0.950 . S
H3471 C3449 0.950 . S
C3472 C3473 1.349 . S
C3472 C3474 1.327 . S
C3472 H3497 0.950 . S
C3473 C3472 1.349 . S
C3473 C3489 1.349 . S
C3474 C3472 1.327 . S
C3474 C3493 1.429 . S
C3474 H3498 0.950 . S
C3475 C3492 1.574 . S
C3475 C3494 1.368 . S
C3475 H3499 0.948 . S
H3476 C3480 0.949 . S
C3477 C3478 1.349 . S
C3477 C3479 1.327 . S
C3477 H3500 0.955 . S
C3478 C3477 1.349 . S
C3478 C3490 1.349 . S
C3479 C3477 1.327 . S
C3479 C3495 1.429 . S
C3479 H3501 0.948 . S
C3480 H3476 0.949 . S
C3480 C3488 1.574 . S
C3480 C3496 1.368 . S
H3481 C3489 0.962 . S
H3482 C3487 0.953 . S
H3483 C3488 0.949 . S
H3484 C3490 0.950 . S
H3485 C3491 0.950 . S
H3486 C3492 0.952 1_655 S
C3487 H3482 0.953 . S
C3487 C3489 1.327 . S
C3487 C3493 1.429 . S
C3488 C3480 1.574 . S
C3488 H3483 0.949 . S
C3488 C3494 1.368 . S
C3489 C3473 1.349 . S
C3489 H3481 0.962 . S
C3489 C3487 1.327 . S
C3490 C3478 1.349 . S
C3490 H3484 0.950 . S
C3490 C3491 1.327 . S
C3491 H3485 0.950 . S
C3491 C3490 1.327 . S
C3491 C3495 1.429 . S
C3492 C3475 1.574 . S
C3492 H3486 0.952 1_455 S
C3492 C3496 1.368 . S
C3493 C3474 1.429 . S
C3493 C3487 1.429 . S
C3493 C3494 1.523 . S
C3494 C3475 1.368 . S
C3494 C3488 1.368 . S
C3494 C3493 1.523 . S
C3495 C3479 1.429 . S
C3495 C3491 1.429 . S
C3495 C3496 1.523 . S
C3496 C3480 1.368 . S
C3496 C3492 1.368 . S
C3496 C3495 1.523 . S
H3497 C3472 0.950 . S
H3498 C3474 0.950 . S
H3499 C3475 0.948 . S
H3500 C3477 0.955 . S
H3501 C3479 0.948 . S
C3502 C3503 1.349 . S
C3502 C3504 1.327 . S
C3502 H3527 0.950 . S
C3503 C3502 1.349 . S
C3503 C3519 1.349 . S
C3504 C3502 1.327 . S
C3504 C3523 1.429 . S
C3504 H3528 0.950 . S
C3505 C3522 1.574 . S
C3505 C3524 1.368 . S
C3505 H3529 0.949 . S
H3506 C3510 0.949 . S
C3507 C3508 1.349 . S
C3507 C3509 1.327 . S
C3507 H3530 0.950 . S
C3508 C3507 1.349 . S
C3508 C3520 1.349 . S
C3509 C3507 1.327 . S
C3509 C3525 1.429 . S
C3509 H3531 0.950 . S
C3510 H3506 0.949 . S
C3510 C3518 1.574 . S
C3510 C3526 1.368 . S
H3511 C3519 0.950 . S
H3512 C3517 0.950 . S
H3513 C3518 0.949 . S
H3514 C3520 0.950 . S
H3515 C3521 0.950 . S
H3516 C3522 0.949 . S
C3517 H3512 0.950 . S
C3517 C3519 1.327 . S
C3517 C3523 1.429 . S
C3518 C3510 1.574 . S
C3518 H3513 0.949 . S
C3518 C3524 1.368 . S
C3519 C3503 1.349 . S
C3519 H3511 0.950 . S
C3519 C3517 1.327 . S
C3520 C3508 1.349 . S
C3520 H3514 0.950 . S
C3520 C3521 1.327 . S
C3521 H3515 0.950 . S
C3521 C3520 1.327 . S
C3521 C3525 1.429 . S
C3522 C3505 1.574 . S
C3522 H3516 0.949 . S
C3522 C3526 1.368 . S
C3523 C3504 1.429 . S
C3523 C3517 1.429 . S
C3523 C3524 1.523 . S
C3524 C3505 1.368 . S
C3524 C3518 1.368 . S
C3524 C3523 1.523 . S
C3525 C3509 1.429 . S
C3525 C3521 1.429 . S
C3525 C3526 1.523 . S
C3526 C3510 1.368 . S
C3526 C3522 1.368 . S
C3526 C3525 1.523 . S
H3527 C3502 0.950 . S
H3528 C3504 0.950 . S
H3529 C3505 0.949 . S
H3530 C3507 0.950 . S
H3531 C3509 0.950 . S
C3532 C3533 1.349 . S
C3532 C3534 1.327 . S
C3532 H3557 0.950 . S
C3533 C3532 1.349 . S
C3533 C3549 1.349 . S
C3534 C3532 1.327 . S
C3534 C3553 1.429 . S
C3534 H3558 0.950 . S
C3535 C3552 1.574 . S
C3535 C3554 1.368 . S
C3535 H3559 0.949 . S
H3536 C3540 0.949 . S
C3537 C3538 1.349 . S
C3537 C3539 1.327 . S
C3537 H3560 0.950 . S
C3538 C3537 1.349 . S
C3538 C3550 1.349 . S
C3539 C3537 1.327 . S
C3539 C3555 1.429 . S
C3539 H3561 0.950 . S
C3540 H3536 0.949 . S
C3540 C3548 1.574 . S
C3540 C3556 1.368 . S
H3541 C3549 0.950 . S
H3542 C3547 0.950 . S
H3543 C3548 0.949 . S
H3544 C3550 0.950 . S
H3545 C3551 0.950 . S
H3546 C3552 0.949 . S
C3547 H3542 0.950 . S
C3547 C3549 1.327 . S
C3547 C3553 1.429 . S
C3548 C3540 1.574 . S
C3548 H3543 0.949 . S
C3548 C3554 1.368 . S
C3549 C3533 1.349 . S
C3549 H3541 0.950 . S
C3549 C3547 1.327 . S
C3550 C3538 1.349 . S
C3550 H3544 0.950 . S
C3550 C3551 1.327 . S
C3551 H3545 0.950 . S
C3551 C3550 1.327 . S
C3551 C3555 1.429 . S
C3552 C3535 1.574 . S
C3552 H3546 0.949 . S
C3552 C3556 1.368 . S
C3553 C3534 1.429 . S
C3553 C3547 1.429 . S
C3553 C3554 1.523 . S
C3554 C3535 1.368 . S
C3554 C3548 1.368 . S
C3554 C3553 1.523 . S
C3555 C3539 1.429 . S
C3555 C3551 1.429 . S
C3555 C3556 1.523 . S
C3556 C3540 1.368 . S
C3556 C3552 1.368 . S
C3556 C3555 1.523 . S
H3557 C3532 0.950 . S
H3558 C3534 0.950 . S
H3559 C3535 0.949 . S
H3560 C3537 0.950 . S
H3561 C3539 0.950 . S
C3562 C3563 1.349 . S
C3562 C3564 1.327 . S
C3562 H3587 0.950 . S
C3563 C3562 1.349 . S
C3563 C3579 1.349 . S
C3564 C3562 1.327 . S
C3564 C3583 1.429 . S
C3564 H3588 0.950 . S
C3565 C3582 1.574 . S
C3565 C3584 1.368 . S
C3565 H3589 0.949 . S
H3566 C3570 0.949 . S
C3567 C3568 1.349 . S
C3567 C3569 1.327 . S
C3567 H3590 0.950 . S
C3568 C3567 1.349 . S
C3568 C3580 1.349 . S
C3569 C3567 1.327 . S
C3569 C3585 1.429 . S
C3569 H3591 0.950 . S
C3570 H3566 0.949 . S
C3570 C3578 1.574 . S
C3570 C3586 1.368 . S
H3571 C3579 0.950 . S
H3572 C3577 0.950 . S
H3573 C3578 0.949 . S
H3574 C3580 0.950 . S
H3575 C3581 0.950 . S
H3576 C3582 0.949 . S
C3577 H3572 0.950 . S
C3577 C3579 1.327 . S
C3577 C3583 1.429 . S
C3578 C3570 1.574 . S
C3578 H3573 0.949 . S
C3578 C3584 1.368 . S
C3579 C3563 1.349 . S
C3579 H3571 0.950 . S
C3579 C3577 1.327 . S
C3580 C3568 1.349 . S
C3580 H3574 0.950 . S
C3580 C3581 1.327 . S
C3581 H3575 0.950 . S
C3581 C3580 1.327 . S
C3581 C3585 1.429 . S
C3582 C3565 1.574 . S
C3582 H3576 0.949 . S
C3582 C3586 1.368 . S
C3583 C3564 1.429 . S
C3583 C3577 1.429 . S
C3583 C3584 1.523 . S
C3584 C3565 1.368 . S
C3584 C3578 1.368 . S
C3584 C3583 1.523 . S
C3585 C3569 1.429 . S
C3585 C3581 1.429 . S
C3585 C3586 1.523 . S
C3586 C3570 1.368 . S
C3586 C3582 1.368 . S
C3586 C3585 1.523 . S
H3587 C3562 0.950 . S
H3588 C3564 0.950 . S
H3589 C3565 0.949 . S
H3590 C3567 0.950 . S
H3591 C3569 0.950 . S
C3592 C3593 1.349 . S
C3592 C3594 1.327 . S
C3592 H3617 0.950 . S
C3593 C3592 1.349 . S
C3593 C3609 1.349 . S
C3594 C3592 1.327 . S
C3594 C3613 1.429 . S
C3594 H3618 0.950 . S
C3595 C3612 1.574 1_455 S
C3595 C3614 1.368 . S
C3595 H3619 0.949 1_455 S
H3596 C3600 0.949 . S
C3597 C3598 1.349 . S
C3597 C3599 1.327 . S
C3597 H3620 0.950 . S
C3598 C3597 1.349 . S
C3598 C3610 1.349 1_655 S
C3599 C3597 1.327 . S
C3599 C3615 1.403 1_655 S
C3599 H3621 0.950 . S
C3600 H3596 0.949 . S
C3600 C3608 1.574 . S
C3600 C3616 1.368 . S
H3601 C3609 0.950 . S
H3602 C3607 0.950 . S
H3603 C3608 0.949 . S
H3604 C3610 0.950 . S
H3605 C3611 0.950 . S
H3606 C3612 0.949 . S
C3607 H3602 0.950 . S
C3607 C3609 1.327 . S
C3607 C3613 1.429 . S
C3608 C3600 1.574 . S
C3608 H3603 0.949 . S
C3608 C3614 1.368 . S
C3609 C3593 1.349 . S
C3609 H3601 0.950 . S
C3609 C3607 1.327 . S
C3610 C3598 1.349 1_455 S
C3610 H3604 0.950 . S
C3610 C3611 1.327 . S
C3611 H3605 0.950 . S
C3611 C3610 1.327 . S
C3611 C3615 1.451 . S
C3612 C3595 1.574 1_655 S
C3612 H3606 0.949 . S
C3612 C3616 1.368 1_655 S
C3613 C3594 1.429 . S
C3613 C3607 1.429 . S
C3613 C3614 1.523 . S
C3614 C3595 1.368 . S
C3614 C3608 1.368 . S
C3614 C3613 1.523 . S
C3615 C3599 1.403 1_455 S
C3615 C3611 1.451 . S
C3615 C3616 1.527 . S
C3616 C3600 1.368 . S
C3616 C3612 1.368 1_455 S
C3616 C3615 1.527 . S
H3617 C3592 0.950 . S
H3618 C3594 0.950 . S
H3619 C3595 0.949 1_655 S
H3620 C3597 0.950 . S
H3621 C3599 0.950 . S
C3622 C3623 1.349 . S
C3622 C3624 1.327 . S
C3622 H3647 0.950 . S
C3623 C3622 1.349 . S
C3623 C3639 1.349 . S
C3624 C3622 1.327 . S
C3624 C3643 1.429 . S
C3624 H3648 0.950 . S
C3625 C3642 1.574 . S
C3625 C3644 1.368 . S
C3625 H3649 0.949 . S
H3626 C3630 0.949 . S
C3627 C3628 1.349 . S
C3627 C3629 1.327 . S
C3627 H3650 0.950 . S
C3628 C3627 1.349 . S
C3628 C3640 1.349 . S
C3629 C3627 1.327 . S
C3629 C3645 1.429 . S
C3629 H3651 0.950 . S
C3630 H3626 0.949 . S
C3630 C3638 1.574 . S
C3630 C3646 1.368 . S
H3631 C3639 0.950 . S
H3632 C3637 0.950 . S
H3633 C3638 0.949 . S
H3634 C3640 0.950 . S
H3635 C3641 0.950 . S
H3636 C3642 0.949 . S
C3637 H3632 0.950 . S
C3637 C3639 1.327 . S
C3637 C3643 1.429 . S
C3638 C3630 1.574 . S
C3638 H3633 0.949 . S
C3638 C3644 1.368 . S
C3639 C3623 1.349 . S
C3639 H3631 0.950 . S
C3639 C3637 1.327 . S
C3640 C3628 1.349 . S
C3640 H3634 0.950 . S
C3640 C3641 1.327 . S
C3641 H3635 0.950 . S
C3641 C3640 1.327 . S
C3641 C3645 1.429 . S
C3642 C3625 1.574 . S
C3642 H3636 0.949 . S
C3642 C3646 1.368 . S
C3643 C3624 1.429 . S
C3643 C3637 1.429 . S
C3643 C3644 1.523 . S
C3644 C3625 1.368 . S
C3644 C3638 1.368 . S
C3644 C3643 1.523 . S
C3645 C3629 1.429 . S
C3645 C3641 1.429 . S
C3645 C3646 1.523 . S
C3646 C3630 1.368 . S
C3646 C3642 1.368 . S
C3646 C3645 1.523 . S
H3647 C3622 0.950 . S
H3648 C3624 0.950 . S
H3649 C3625 0.949 . S
H3650 C3627 0.950 . S
H3651 C3629 0.950 . S
C3652 C3653 1.349 . S
C3652 C3654 1.327 1_556 S
C3652 H3677 0.950 1_556 S
C3653 C3652 1.349 . S
C3653 C3669 1.349 . S
C3654 C3652 1.327 1_554 S
C3654 C3673 1.429 1_554 S
C3654 H3678 0.950 . S
C3655 C3672 1.574 . S
C3655 C3674 1.368 . S
C3655 H3679 0.949 . S
H3656 C3660 0.949 . S
C3657 C3658 1.349 . S
C3657 C3659 1.327 1_545 S
C3657 H3680 0.950 . S
C3658 C3657 1.349 . S
C3658 C3670 1.368 . S
C3659 C3657 1.327 1_565 S
C3659 C3675 1.429 . S
C3659 H3681 0.950 1_554 S
C3660 H3656 0.949 . S
C3660 C3668 1.574 . S
C3660 C3676 1.368 . S
H3661 C3669 0.950 . S
H3662 C3667 0.950 . S
H3663 C3668 0.949 . S
H3664 C3670 0.955 . S
H3665 C3671 0.950 . S
H3666 C3672 0.949 . S
C3667 H3662 0.950 . S
C3667 C3669 1.327 . S
C3667 C3673 1.429 . S
C3668 C3660 1.574 . S
C3668 H3663 0.949 . S
C3668 C3674 1.368 1_554 S
C3669 C3653 1.349 . S
C3669 H3661 0.950 . S
C3669 C3667 1.327 . S
C3670 C3658 1.368 . S
C3670 H3664 0.955 . S
C3670 C3671 1.303 1_545 S
C3671 H3665 0.950 . S
C3671 C3670 1.303 1_565 S
C3671 C3675 1.429 . S
C3672 C3655 1.574 . S
C3672 H3666 0.949 . S
C3672 C3676 1.368 1_556 S
C3673 C3654 1.429 1_556 S
C3673 C3667 1.429 . S
C3673 C3674 1.523 . S
C3674 C3655 1.368 . S
C3674 C3668 1.368 1_556 S
C3674 C3673 1.523 . S
C3675 C3659 1.429 . S
C3675 C3671 1.429 . S
C3675 C3676 1.523 . S
C3676 C3660 1.368 . S
C3676 C3672 1.368 1_554 S
C3676 C3675 1.523 . S
H3677 C3652 0.950 1_554 S
H3678 C3654 0.950 . S
H3679 C3655 0.949 . S
H3680 C3657 0.950 . S
H3681 C3659 0.950 1_556 S
C3682 C3683 1.349 . S
C3682 C3684 1.327 . S
C3682 H3707 0.950 . S
C3683 C3682 1.349 . S
C3683 C3699 1.349 . S
C3684 C3682 1.327 . S
C3684 C3703 1.429 . S
C3684 H3708 0.950 . S
C3685 C3702 1.574 . S
C3685 C3704 1.368 . S
C3685 H3709 0.949 . S
H3686 C3690 0.949 . S
C3687 C3688 1.349 . S
C3687 C3689 1.327 . S
C3687 H3710 0.950 . S
C3688 C3687 1.349 . S
C3688 C3700 1.349 . S
C3689 C3687 1.327 . S
C3689 C3705 1.429 . S
C3689 H3711 0.950 . S
C3690 H3686 0.949 . S
C3690 C3698 1.574 . S
C3690 C3706 1.368 . S
H3691 C3699 0.950 . S
H3692 C3697 0.950 . S
H3693 C3698 0.949 . S
H3694 C3700 0.950 . S
H3695 C3701 0.950 . S
H3696 C3702 0.949 . S
C3697 H3692 0.950 . S
C3697 C3699 1.327 . S
C3697 C3703 1.429 . S
C3698 C3690 1.574 . S
C3698 H3693 0.949 . S
C3698 C3704 1.368 . S
C3699 C3683 1.349 . S
C3699 H3691 0.950 . S
C3699 C3697 1.327 . S
C3700 C3688 1.349 . S
C3700 H3694 0.950 . S
C3700 C3701 1.327 . S
C3701 H3695 0.950 . S
C3701 C3700 1.327 . S
C3701 C3705 1.429 . S
C3702 C3685 1.574 . S
C3702 H3696 0.949 . S
C3702 C3706 1.368 . S
C3703 C3684 1.429 . S
C3703 C3697 1.429 . S
C3703 C3704 1.523 . S
C3704 C3685 1.368 . S
C3704 C3698 1.368 . S
C3704 C3703 1.523 . S
C3705 C3689 1.429 . S
C3705 C3701 1.429 . S
C3705 C3706 1.523 . S
C3706 C3690 1.368 . S
C3706 C3702 1.368 . S
C3706 C3705 1.523 . S
H3707 C3682 0.950 . S
H3708 C3684 0.950 . S
H3709 C3685 0.949 . S
H3710 C3687 0.950 . S
H3711 C3689 0.950 . S
C3712 C3713 1.349 . S
C3712 C3714 1.327 . S
C3712 H3737 0.972 . S
C3713 C3712 1.349 . S
C3713 C3729 1.349 . S
C3714 C3712 1.327 . S
C3714 C3733 1.429 . S
C3714 H3738 0.950 . S
C3715 C3732 1.574 . S
C3715 C3734 1.368 . S
C3715 H3739 0.949 . S
H3716 C3720 0.949 . S
C3717 C3718 1.349 . S
C3717 C3719 1.327 . S
C3717 H3740 0.950 . S
C3718 C3717 1.349 . S
C3718 C3730 1.349 . S
C3719 C3717 1.327 . S
C3719 C3735 1.429 . S
C3719 H3741 0.950 . S
C3720 H3716 0.949 . S
C3720 C3728 1.574 . S
C3720 C3736 1.368 . S
H3721 C3729 0.950 . S
H3722 C3727 0.950 . S
H3723 C3728 0.949 . S
H3724 C3730 0.950 . S
H3725 C3731 0.950 . S
H3726 C3732 0.949 . S
C3727 H3722 0.950 . S
C3727 C3729 1.327 . S
C3727 C3733 1.429 . S
C3728 C3720 1.574 . S
C3728 H3723 0.949 . S
C3728 C3734 1.368 . S
C3729 C3713 1.349 . S
C3729 H3721 0.950 . S
C3729 C3727 1.327 . S
C3730 C3718 1.349 . S
C3730 H3724 0.950 . S
C3730 C3731 1.327 . S
C3731 H3725 0.950 . S
C3731 C3730 1.327 . S
C3731 C3735 1.429 . S
C3732 C3715 1.574 . S
C3732 H3726 0.949 . S
C3732 C3736 1.368 . S
C3733 C3714 1.429 . S
C3733 C3727 1.429 . S
C3733 C3734 1.523 . S
C3734 C3715 1.368 . S
C3734 C3728 1.368 . S
C3734 C3733 1.523 . S
C3735 C3719 1.429 . S
C3735 C3731 1.429 . S
C3735 C3736 1.523 . S
C3736 C3720 1.368 . S
C3736 C3732 1.368 . S
C3736 C3735 1.523 . S
H3737 C3712 0.972 . S
H3738 C3714 0.950 . S
H3739 C3715 0.949 . S
H3740 C3717 0.950 . S
H3741 C3719 0.950 . S
C3742 C3743 1.349 . S
C3742 C3744 1.327 . S
C3742 H3767 0.950 . S
C3743 C3742 1.349 . S
C3743 C3759 1.349 . S
C3744 C3742 1.327 . S
C3744 C3763 1.429 . S
C3744 H3768 0.950 . S
C3745 C3762 1.574 . S
C3745 C3764 1.368 . S
C3745 H3769 0.949 . S
H3746 C3750 0.949 . S
C3747 C3748 1.349 . S
C3747 C3749 1.327 . S
C3747 H3770 0.950 . S
C3748 C3747 1.349 . S
C3748 C3760 1.349 . S
C3749 C3747 1.327 . S
C3749 C3765 1.429 . S
C3749 H3771 0.950 . S
C3750 H3746 0.949 . S
C3750 C3758 1.574 . S
C3750 C3766 1.368 . S
H3751 C3759 0.950 . S
H3752 C3757 0.950 . S
H3753 C3758 0.949 . S
H3754 C3760 0.950 . S
H3755 C3761 0.950 . S
H3756 C3762 0.949 . S
C3757 H3752 0.950 . S
C3757 C3759 1.327 . S
C3757 C3763 1.429 . S
C3758 C3750 1.574 . S
C3758 H3753 0.949 . S
C3758 C3764 1.368 . S
C3759 C3743 1.349 . S
C3759 H3751 0.950 . S
C3759 C3757 1.327 . S
C3760 C3748 1.349 . S
C3760 H3754 0.950 . S
C3760 C3761 1.327 . S
C3761 H3755 0.950 . S
C3761 C3760 1.327 . S
C3761 C3765 1.429 . S
C3762 C3745 1.574 . S
C3762 H3756 0.949 . S
C3762 C3766 1.368 . S
C3763 C3744 1.429 . S
C3763 C3757 1.429 . S
C3763 C3764 1.523 . S
C3764 C3745 1.368 . S
C3764 C3758 1.368 . S
C3764 C3763 1.523 . S
C3765 C3749 1.429 . S
C3765 C3761 1.429 . S
C3765 C3766 1.523 . S
C3766 C3750 1.368 . S
C3766 C3762 1.368 . S
C3766 C3765 1.523 . S
H3767 C3742 0.950 . S
H3768 C3744 0.950 . S
H3769 C3745 0.949 . S
H3770 C3747 0.950 . S
H3771 C3749 0.950 . S
C3772 C3773 1.349 . S
C3772 C3774 1.327 . S
C3772 H3797 0.950 . S
C3773 C3772 1.349 . S
C3773 C3789 1.349 . S
C3774 C3772 1.327 . S
C3774 C3793 1.429 . S
C3774 H3798 0.950 . S
C3775 C3792 1.574 . S
C3775 C3794 1.368 . S
C3775 H3799 0.949 . S
H3776 C3780 0.949 . S
C3777 C3778 1.349 . S
C3777 C3779 1.327 . S
C3777 H3800 0.950 . S
C3778 C3777 1.349 . S
C3778 C3790 1.349 . S
C3779 C3777 1.327 . S
C3779 C3795 1.429 . S
C3779 H3801 0.950 . S
C3780 H3776 0.949 . S
C3780 C3788 1.574 . S
C3780 C3796 1.368 . S
H3781 C3789 0.950 . S
H3782 C3787 0.950 . S
H3783 C3788 0.949 . S
H3784 C3790 0.950 . S
H3785 C3791 0.950 . S
H3786 C3792 0.949 . S
C3787 H3782 0.950 . S
C3787 C3789 1.327 . S
C3787 C3793 1.429 . S
C3788 C3780 1.574 . S
C3788 H3783 0.949 . S
C3788 C3794 1.368 . S
C3789 C3773 1.349 . S
C3789 H3781 0.950 . S
C3789 C3787 1.327 . S
C3790 C3778 1.349 . S
C3790 H3784 0.950 . S
C3790 C3791 1.327 . S
C3791 H3785 0.950 . S
C3791 C3790 1.327 . S
C3791 C3795 1.429 . S
C3792 C3775 1.574 . S
C3792 H3786 0.949 . S
C3792 C3796 1.368 . S
C3793 C3774 1.429 . S
C3793 C3787 1.429 . S
C3793 C3794 1.523 . S
C3794 C3775 1.368 . S
C3794 C3788 1.368 . S
C3794 C3793 1.523 . S
C3795 C3779 1.429 . S
C3795 C3791 1.429 . S
C3795 C3796 1.523 . S
C3796 C3780 1.368 . S
C3796 C3792 1.368 . S
C3796 C3795 1.523 . S
H3797 C3772 0.950 . S
H3798 C3774 0.950 . S
H3799 C3775 0.949 . S
H3800 C3777 0.950 . S
H3801 C3779 0.950 . S
C3802 C3803 1.349 . S
C3802 C3804 1.327 . S
C3802 H3827 0.950 . S
C3803 C3802 1.349 . S
C3803 C3819 1.349 . S
C3804 C3802 1.327 . S
C3804 C3823 1.429 . S
C3804 H3828 0.950 . S
C3805 C3822 1.574 . S
C3805 C3824 1.368 . S
C3805 H3829 0.949 . S
H3806 C3810 0.949 . S
C3807 C3808 1.349 . S
C3807 C3809 1.327 . S
C3807 H3830 0.950 . S
C3808 C3807 1.349 . S
C3808 C3820 1.349 . S
C3809 C3807 1.327 . S
C3809 C3825 1.429 . S
C3809 H3831 0.950 . S
C3810 H3806 0.949 . S
C3810 C3818 1.574 . S
C3810 C3826 1.368 . S
H3811 C3819 0.950 . S
H3812 C3817 0.950 . S
H3813 C3818 0.949 . S
H3814 C3820 0.950 . S
H3815 C3821 0.950 . S
H3816 C3822 0.949 . S
C3817 H3812 0.950 . S
C3817 C3819 1.327 . S
C3817 C3823 1.429 . S
C3818 C3810 1.574 . S
C3818 H3813 0.949 . S
C3818 C3824 1.368 . S
C3819 C3803 1.349 . S
C3819 H3811 0.950 . S
C3819 C3817 1.327 . S
C3820 C3808 1.349 . S
C3820 H3814 0.950 . S
C3820 C3821 1.327 . S
C3821 H3815 0.950 . S
C3821 C3820 1.327 . S
C3821 C3825 1.429 . S
C3822 C3805 1.574 . S
C3822 H3816 0.949 . S
C3822 C3826 1.368 . S
C3823 C3804 1.429 . S
C3823 C3817 1.429 . S
C3823 C3824 1.523 . S
C3824 C3805 1.368 . S
C3824 C3818 1.368 . S
C3824 C3823 1.523 . S
C3825 C3809 1.429 . S
C3825 C3821 1.429 . S
C3825 C3826 1.523 . S
C3826 C3810 1.368 . S
C3826 C3822 1.368 . S
C3826 C3825 1.523 . S
H3827 C3802 0.950 . S
H3828 C3804 0.950 . S
H3829 C3805 0.949 . S
H3830 C3807 0.950 . S
H3831 C3809 0.950 . S
C3832 C3833 1.332 1_565 S
C3832 C3834 1.314 1_565 S
C3832 H3857 0.982 . S
C3833 C3832 1.332 1_545 S
C3833 C3849 1.349 . S
C3834 C3832 1.314 1_545 S
C3834 C3853 1.429 . S
C3834 H3858 0.950 1_545 S
C3835 C3852 1.574 . S
C3835 C3854 1.368 . S
C3835 H3859 0.949 . S
H3836 C3840 0.949 . S
C3837 C3838 1.349 . S
C3837 C3839 1.327 . S
C3837 H3860 0.950 . S
C3838 C3837 1.349 . S
C3838 C3850 1.349 . S
C3839 C3837 1.327 . S
C3839 C3855 1.429 . S
C3839 H3861 0.950 . S
C3840 H3836 0.949 . S
C3840 C3848 1.574 . S
C3840 C3856 1.368 . S
H3841 C3849 0.950 . S
H3842 C3847 0.950 . S
H3843 C3848 0.949 1_565 S
H3844 C3850 0.950 . S
H3845 C3851 0.950 . S
H3846 C3852 0.949 . S
C3847 H3842 0.950 . S
C3847 C3849 1.327 . S
C3847 C3853 1.429 . S
C3848 C3840 1.574 . S
C3848 H3843 0.949 1_545 S
C3848 C3854 1.368 . S
C3849 C3833 1.349 . S
C3849 H3841 0.950 . S
C3849 C3847 1.327 . S
C3850 C3838 1.349 . S
C3850 H3844 0.950 . S
C3850 C3851 1.327 . S
C3851 H3845 0.950 . S
C3851 C3850 1.327 . S
C3851 C3855 1.429 . S
C3852 C3835 1.574 . S
C3852 H3846 0.949 . S
C3852 C3856 1.368 . S
C3853 C3834 1.429 . S
C3853 C3847 1.429 . S
C3853 C3854 1.523 . S
C3854 C3835 1.368 . S
C3854 C3848 1.368 . S
C3854 C3853 1.523 . S
C3855 C3839 1.429 . S
C3855 C3851 1.429 . S
C3855 C3856 1.523 . S
C3856 C3840 1.368 . S
C3856 C3852 1.368 . S
C3856 C3855 1.523 . S
H3857 C3832 0.982 . S
H3858 C3834 0.950 1_565 S
H3859 C3835 0.949 . S
H3860 C3837 0.950 . S
H3861 C3839 0.950 . S
C3862 C3863 1.349 . S
C3862 C3864 1.327 . S
C3862 H3887 0.950 . S
C3863 C3862 1.349 . S
C3863 C3879 1.349 . S
C3864 C3862 1.327 . S
C3864 C3883 1.429 . S
C3864 H3888 0.950 . S
C3865 C3882 1.574 . S
C3865 C3884 1.368 . S
C3865 H3889 0.949 . S
H3866 C3870 0.949 . S
C3867 C3868 1.349 . S
C3867 C3869 1.327 . S
C3867 H3890 0.950 . S
C3868 C3867 1.349 . S
C3868 C3880 1.349 . S
C3869 C3867 1.327 . S
C3869 C3885 1.429 . S
C3869 H3891 0.950 . S
C3870 H3866 0.949 . S
C3870 C3878 1.574 . S
C3870 C3886 1.368 . S
H3871 C3879 0.950 . S
H3872 C3877 0.950 . S
H3873 C3878 0.949 . S
H3874 C3880 0.950 . S
H3875 C3881 0.950 . S
H3876 C3882 0.949 . S
C3877 H3872 0.950 . S
C3877 C3879 1.327 . S
C3877 C3883 1.429 . S
C3878 C3870 1.574 . S
C3878 H3873 0.949 . S
C3878 C3884 1.368 . S
C3879 C3863 1.349 . S
C3879 H3871 0.950 . S
C3879 C3877 1.327 . S
C3880 C3868 1.349 . S
C3880 H3874 0.950 . S
C3880 C3881 1.327 . S
C3881 H3875 0.950 . S
C3881 C3880 1.327 . S
C3881 C3885 1.429 . S
C3882 C3865 1.574 . S
C3882 H3876 0.949 . S
C3882 C3886 1.368 . S
C3883 C3864 1.429 . S
C3883 C3877 1.429 . S
C3883 C3884 1.523 . S
C3884 C3865 1.368 . S
C3884 C3878 1.368 . S
C3884 C3883 1.523 . S
C3885 C3869 1.429 . S
C3885 C3881 1.429 . S
C3885 C3886 1.523 . S
C3886 C3870 1.368 . S
C3886 C3882 1.368 . S
C3886 C3885 1.523 . S
H3887 C3862 0.950 . S
H3888 C3864 0.950 . S
H3889 C3865 0.949 . S
H3890 C3867 0.950 . S
H3891 C3869 0.950 . S
C3892 C3893 1.349 . S
C3892 C3894 1.327 . S
C3892 H3917 0.950 . S
C3893 C3892 1.349 . S
C3893 C3909 1.349 . S
C3894 C3892 1.327 . S
C3894 C3913 1.429 . S
C3894 H3918 0.950 . S
C3895 C3912 1.574 . S
C3895 C3914 1.368 . S
C3895 H3919 0.949 . S
H3896 C3900 0.949 . S
C3897 C3898 1.349 . S
C3897 C3899 1.327 . S
C3897 H3920 0.950 . S
C3898 C3897 1.349 . S
C3898 C3910 1.349 . S
C3899 C3897 1.327 . S
C3899 C3915 1.429 . S
C3899 H3921 0.950 . S
C3900 H3896 0.949 . S
C3900 C3908 1.574 . S
C3900 C3916 1.368 . S
H3901 C3909 0.950 . S
H3902 C3907 0.950 . S
H3903 C3908 0.949 . S
H3904 C3910 0.950 . S
H3905 C3911 0.950 . S
H3906 C3912 0.949 . S
C3907 H3902 0.950 . S
C3907 C3909 1.327 . S
C3907 C3913 1.429 . S
C3908 C3900 1.574 . S
C3908 H3903 0.949 . S
C3908 C3914 1.368 . S
C3909 C3893 1.349 . S
C3909 H3901 0.950 . S
C3909 C3907 1.327 . S
C3910 C3898 1.349 . S
C3910 H3904 0.950 . S
C3910 C3911 1.327 . S
C3911 H3905 0.950 . S
C3911 C3910 1.327 . S
C3911 C3915 1.429 . S
C3912 C3895 1.574 . S
C3912 H3906 0.949 . S
C3912 C3916 1.368 . S
C3913 C3894 1.429 . S
C3913 C3907 1.429 . S
C3913 C3914 1.523 . S
C3914 C3895 1.368 . S
C3914 C3908 1.368 . S
C3914 C3913 1.523 . S
C3915 C3899 1.429 . S
C3915 C3911 1.429 . S
C3915 C3916 1.523 . S
C3916 C3900 1.368 . S
C3916 C3912 1.368 . S
C3916 C3915 1.523 . S
H3917 C3892 0.950 . S
H3918 C3894 0.950 . S
H3919 C3895 0.949 . S
H3920 C3897 0.950 . S
H3921 C3899 0.950 . S
C3922 C3923 1.349 . S
C3922 C3924 1.327 . S
C3922 H3947 0.950 . S
C3923 C3922 1.349 . S
C3923 C3939 1.349 . S
C3924 C3922 1.327 . S
C3924 C3943 1.429 . S
C3924 H3948 0.950 . S
C3925 C3942 1.574 . S
C3925 C3944 1.368 . S
C3925 H3949 0.949 . S
H3926 C3930 0.949 . S
C3927 C3928 1.349 . S
C3927 C3929 1.327 . S
C3927 H3950 0.950 . S
C3928 C3927 1.349 . S
C3928 C3940 1.349 . S
C3929 C3927 1.327 . S
C3929 C3945 1.429 . S
C3929 H3951 0.950 . S
C3930 H3926 0.949 . S
C3930 C3938 1.574 . S
C3930 C3946 1.368 . S
H3931 C3939 0.950 . S
H3932 C3937 0.950 . S
H3933 C3938 0.949 . S
H3934 C3940 0.950 . S
H3935 C3941 0.950 . S
H3936 C3942 0.949 . S
C3937 H3932 0.950 . S
C3937 C3939 1.327 . S
C3937 C3943 1.429 . S
C3938 C3930 1.574 . S
C3938 H3933 0.949 . S
C3938 C3944 1.368 . S
C3939 C3923 1.349 . S
C3939 H3931 0.950 . S
C3939 C3937 1.327 . S
C3940 C3928 1.349 . S
C3940 H3934 0.950 . S
C3940 C3941 1.327 . S
C3941 H3935 0.950 . S
C3941 C3940 1.327 . S
C3941 C3945 1.429 . S
C3942 C3925 1.574 . S
C3942 H3936 0.949 . S
C3942 C3946 1.368 . S
C3943 C3924 1.429 . S
C3943 C3937 1.429 . S
C3943 C3944 1.523 . S
C3944 C3925 1.368 . S
C3944 C3938 1.368 . S
C3944 C3943 1.523 . S
C3945 C3929 1.429 . S
C3945 C3941 1.429 . S
C3945 C3946 1.523 . S
C3946 C3930 1.368 . S
C3946 C3942 1.368 . S
C3946 C3945 1.523 . S
H3947 C3922 0.950 . S
H3948 C3924 0.950 . S
H3949 C3925 0.949 . S
H3950 C3927 0.950 . S
H3951 C3929 0.950 . S
C3952 C3953 1.349 . S
C3952 C3954 1.327 . S
C3952 H3977 0.949 . S
C3953 C3952 1.349 . S
C3953 C3969 1.349 . S
C3954 C3952 1.327 . S
C3954 C3973 1.429 . S
C3954 H3978 0.948 1_554 S
C3955 C3972 1.574 . S
C3955 C3974 1.368 . S
C3955 H3979 0.949 . S
H3956 C3960 0.960 . S
C3957 C3958 1.349 . S
C3957 C3959 1.327 . S
C3957 H3980 0.950 . S
C3958 C3957 1.349 . S
C3958 C3970 1.349 . S
C3959 C3957 1.327 . S
C3959 C3975 1.429 . S
C3959 H3981 0.950 . S
C3960 H3956 0.960 . S
C3960 C3968 1.574 . S
C3960 C3976 1.368 . S
H3961 C3969 0.950 . S
H3962 C3967 0.950 . S
H3963 C3968 0.953 1_556 S
H3964 C3970 0.950 . S
H3965 C3971 0.984 . S
H3966 C3972 0.949 . S
C3967 H3962 0.950 . S
C3967 C3969 1.327 . S
C3967 C3973 1.429 . S
C3968 C3960 1.574 . S
C3968 H3963 0.953 1_554 S
C3968 C3974 1.368 . S
C3969 C3953 1.349 . S
C3969 H3961 0.950 . S
C3969 C3967 1.327 . S
C3970 C3958 1.349 . S
C3970 H3964 0.950 . S
C3970 C3971 1.327 . S
C3971 H3965 0.984 . S
C3971 C3970 1.327 . S
C3971 C3975 1.429 . S
C3972 C3955 1.574 . S
C3972 H3966 0.949 . S
C3972 C3976 1.368 . S
C3973 C3954 1.429 . S
C3973 C3967 1.429 . S
C3973 C3974 1.523 . S
C3974 C3955 1.368 . S
C3974 C3968 1.368 . S
C3974 C3973 1.523 . S
C3975 C3959 1.429 . S
C3975 C3971 1.429 . S
C3975 C3976 1.523 . S
C3976 C3960 1.368 . S
C3976 C3972 1.368 . S
C3976 C3975 1.523 . S
H3977 C3952 0.949 . S
H3978 C3954 0.948 1_556 S
H3979 C3955 0.949 . S
H3980 C3957 0.950 . S
H3981 C3959 0.950 . S
C3982 C3983 1.349 . S
C3982 C3984 1.327 . S
C3982 H4007 0.950 . S
C3983 C3982 1.349 . S
C3983 C3999 1.349 . S
C3984 C3982 1.327 . S
C3984 C4003 1.429 . S
C3984 H4008 0.950 . S
C3985 C4002 1.574 . S
C3985 C4004 1.368 . S
C3985 H4009 0.949 . S
H3986 C3990 0.949 . S
C3987 C3988 1.349 . S
C3987 C3989 1.327 . S
C3987 H4010 0.950 . S
C3988 C3987 1.349 . S
C3988 C4000 1.349 . S
C3989 C3987 1.327 . S
C3989 C4005 1.429 . S
C3989 H4011 0.950 . S
C3990 H3986 0.949 . S
C3990 C3998 1.574 . S
C3990 C4006 1.368 . S
H3991 C3999 0.950 . S
H3992 C3997 0.950 . S
H3993 C3998 0.949 . S
H3994 C4000 0.950 . S
H3995 C4001 0.950 . S
H3996 C4002 0.949 . S
C3997 H3992 0.950 . S
C3997 C3999 1.327 . S
C3997 C4003 1.429 . S
C3998 C3990 1.574 . S
C3998 H3993 0.949 . S
C3998 C4004 1.368 . S
C3999 C3983 1.349 . S
C3999 H3991 0.950 . S
C3999 C3997 1.327 . S
C4000 C3988 1.349 . S
C4000 H3994 0.950 . S
C4000 C4001 1.327 . S
C4001 H3995 0.950 . S
C4001 C4000 1.327 . S
C4001 C4005 1.429 . S
C4002 C3985 1.574 . S
C4002 H3996 0.949 . S
C4002 C4006 1.368 . S
C4003 C3984 1.429 . S
C4003 C3997 1.429 . S
C4003 C4004 1.523 . S
C4004 C3985 1.368 . S
C4004 C3998 1.368 . S
C4004 C4003 1.523 . S
C4005 C3989 1.429 . S
C4005 C4001 1.429 . S
C4005 C4006 1.523 . S
C4006 C3990 1.368 . S
C4006 C4002 1.368 . S
C4006 C4005 1.523 . S
H4007 C3982 0.950 . S
H4008 C3984 0.950 . S
H4009 C3985 0.949 . S
H4010 C3987 0.950 . S
H4011 C3989 0.950 . S
C4012 C4013 1.349 . S
C4012 C4014 1.327 . S
C4012 H4037 0.950 . S
C4013 C4012 1.349 . S
C4013 C4029 1.349 . S
C4014 C4012 1.327 . S
C4014 C4033 1.429 . S
C4014 H4038 0.950 . S
C4015 C4032 1.574 . S
C4015 C4034 1.368 . S
C4015 H4039 0.949 . S
H4016 C4020 0.949 . S
C4017 C4018 1.349 . S
C4017 C4019 1.327 . S
C4017 H4040 0.950 . S
C4018 C4017 1.349 . S
C4018 C4030 1.349 . S
C4019 C4017 1.327 . S
C4019 C4035 1.429 . S
C4019 H4041 0.950 . S
C4020 H4016 0.949 . S
C4020 C4028 1.574 . S
C4020 C4036 1.368 . S
H4021 C4029 0.950 . S
H4022 C4027 0.950 . S
H4023 C4028 0.949 . S
H4024 C4030 0.950 . S
H4025 C4031 0.950 . S
H4026 C4032 0.949 . S
C4027 H4022 0.950 . S
C4027 C4029 1.327 . S
C4027 C4033 1.429 . S
C4028 C4020 1.574 . S
C4028 H4023 0.949 . S
C4028 C4034 1.368 . S
C4029 C4013 1.349 . S
C4029 H4021 0.950 . S
C4029 C4027 1.327 . S
C4030 C4018 1.349 . S
C4030 H4024 0.950 . S
C4030 C4031 1.327 . S
C4031 H4025 0.950 . S
C4031 C4030 1.327 . S
C4031 C4035 1.429 . S
C4032 C4015 1.574 . S
C4032 H4026 0.949 . S
C4032 C4036 1.368 . S
C4033 C4014 1.429 . S
C4033 C4027 1.429 . S
C4033 C4034 1.523 . S
C4034 C4015 1.368 . S
C4034 C4028 1.368 . S
C4034 C4033 1.523 . S
C4035 C4019 1.429 . S
C4035 C4031 1.429 . S
C4035 C4036 1.523 . S
C4036 C4020 1.368 . S
C4036 C4032 1.368 . S
C4036 C4035 1.523 . S
H4037 C4012 0.950 . S
H4038 C4014 0.950 . S
H4039 C4015 0.949 . S
H4040 C4017 0.950 . S
H4041 C4019 0.950 . S
C4042 C4043 1.349 . S
C4042 C4044 1.327 . S
C4042 H4067 0.950 . S
C4043 C4042 1.349 . S
C4043 C4059 1.349 . S
C4044 C4042 1.327 . S
C4044 C4063 1.429 . S
C4044 H4068 0.950 . S
C4045 C4062 1.574 . S
C4045 C4064 1.368 . S
C4045 H4069 0.949 . S
H4046 C4050 0.949 . S
C4047 C4048 1.349 . S
C4047 C4049 1.327 . S
C4047 H4070 0.950 . S
C4048 C4047 1.349 . S
C4048 C4060 1.349 . S
C4049 C4047 1.327 . S
C4049 C4065 1.429 . S
C4049 H4071 0.950 . S
C4050 H4046 0.949 . S
C4050 C4058 1.574 . S
C4050 C4066 1.368 . S
H4051 C4059 0.950 . S
H4052 C4057 0.950 . S
H4053 C4058 0.949 . S
H4054 C4060 0.950 . S
H4055 C4061 0.950 . S
H4056 C4062 0.949 . S
C4057 H4052 0.950 . S
C4057 C4059 1.327 . S
C4057 C4063 1.429 . S
C4058 C4050 1.574 . S
C4058 H4053 0.949 . S
C4058 C4064 1.368 . S
C4059 C4043 1.349 . S
C4059 H4051 0.950 . S
C4059 C4057 1.327 . S
C4060 C4048 1.349 . S
C4060 H4054 0.950 . S
C4060 C4061 1.327 . S
C4061 H4055 0.950 . S
C4061 C4060 1.327 . S
C4061 C4065 1.429 . S
C4062 C4045 1.574 . S
C4062 H4056 0.949 . S
C4062 C4066 1.368 . S
C4063 C4044 1.429 . S
C4063 C4057 1.429 . S
C4063 C4064 1.523 . S
C4064 C4045 1.368 . S
C4064 C4058 1.368 . S
C4064 C4063 1.523 . S
C4065 C4049 1.429 . S
C4065 C4061 1.429 . S
C4065 C4066 1.523 . S
C4066 C4050 1.368 . S
C4066 C4062 1.368 . S
C4066 C4065 1.523 . S
H4067 C4042 0.950 . S
H4068 C4044 0.950 . S
H4069 C4045 0.949 . S
H4070 C4047 0.950 . S
H4071 C4049 0.950 . S
C4072 C4073 1.349 . S
C4072 C4074 1.327 . S
C4072 H4097 0.950 . S
C4073 C4072 1.349 . S
C4073 C4089 1.349 . S
C4074 C4072 1.327 . S
C4074 C4093 1.429 . S
C4074 H4098 0.950 . S
C4075 C4092 1.574 . S
C4075 C4094 1.368 . S
C4075 H4099 0.949 . S
H4076 C4080 0.949 . S
C4077 C4078 1.349 . S
C4077 C4079 1.327 . S
C4077 H4100 0.950 . S
C4078 C4077 1.349 . S
C4078 C4090 1.349 . S
C4079 C4077 1.327 . S
C4079 C4095 1.429 . S
C4079 H4101 0.950 . S
C4080 H4076 0.949 . S
C4080 C4088 1.574 . S
C4080 C4096 1.368 . S
H4081 C4089 0.950 . S
H4082 C4087 0.950 . S
H4083 C4088 0.949 . S
H4084 C4090 0.950 . S
H4085 C4091 0.950 . S
H4086 C4092 0.949 . S
C4087 H4082 0.950 . S
C4087 C4089 1.327 . S
C4087 C4093 1.429 . S
C4088 C4080 1.574 . S
C4088 H4083 0.949 . S
C4088 C4094 1.368 . S
C4089 C4073 1.349 . S
C4089 H4081 0.950 . S
C4089 C4087 1.327 . S
C4090 C4078 1.349 . S
C4090 H4084 0.950 . S
C4090 C4091 1.327 . S
C4091 H4085 0.950 . S
C4091 C4090 1.327 . S
C4091 C4095 1.429 . S
C4092 C4075 1.574 . S
C4092 H4086 0.949 . S
C4092 C4096 1.368 . S
C4093 C4074 1.429 . S
C4093 C4087 1.429 . S
C4093 C4094 1.523 . S
C4094 C4075 1.368 . S
C4094 C4088 1.368 . S
C4094 C4093 1.523 . S
C4095 C4079 1.429 . S
C4095 C4091 1.429 . S
C4095 C4096 1.523 . S
C4096 C4080 1.368 . S
C4096 C4092 1.368 . S
C4096 C4095 1.523 . S
H4097 C4072 0.950 . S
H4098 C4074 0.950 . S
H4099 C4075 0.949 . S
H4100 C4077 0.950 . S
H4101 C4079 0.950 . S
C4102 C4103 1.349 . S
C4102 C4104 1.327 . S
C4102 H4127 0.950 . S
C4103 C4102 1.349 . S
C4103 C4119 1.349 . S
C4104 C4102 1.327 . S
C4104 C4123 1.429 . S
C4104 H4128 0.950 . S
C4105 C4122 1.574 . S
C4105 C4124 1.368 1_545 S
C4105 H4129 0.949 . S
H4106 C4110 0.949 . S
C4107 C4108 1.349 . S
C4107 C4109 1.327 . S
C4107 H4130 0.950 . S
C4108 C4107 1.349 . S
C4108 C4120 1.349 1_545 S
C4109 C4107 1.327 . S
C4109 C4125 1.359 1_545 S
C4109 H4131 0.950 . S
C4110 H4106 0.949 . S
C4110 C4118 1.574 . S
C4110 C4126 1.368 . S
H4111 C4119 0.950 . S
H4112 C4117 0.950 1_545 S
H4113 C4118 0.949 . S
H4114 C4120 0.950 . S
H4115 C4121 0.950 . S
H4116 C4122 0.949 . S
C4117 H4112 0.950 1_565 S
C4117 C4119 1.327 . S
C4117 C4123 1.429 . S
C4118 C4110 1.574 . S
C4118 H4113 0.949 . S
C4118 C4124 1.368 . S
C4119 C4103 1.349 . S
C4119 H4111 0.950 . S
C4119 C4117 1.327 . S
C4120 C4108 1.349 1_565 S
C4120 H4114 0.950 . S
C4120 C4121 1.327 . S
C4121 H4115 0.950 . S
C4121 C4120 1.327 . S
C4121 C4125 1.462 . S
C4122 C4105 1.574 . S
C4122 H4116 0.949 . S
C4122 C4126 1.368 1_545 S
C4123 C4104 1.429 . S
C4123 C4117 1.429 . S
C4123 C4124 1.523 . S
C4124 C4105 1.368 1_565 S
C4124 C4118 1.368 . S
C4124 C4123 1.523 . S
C4125 C4109 1.359 1_565 S
C4125 C4121 1.462 . S
C4125 C4126 1.560 . S
C4126 C4110 1.368 . S
C4126 C4122 1.368 1_565 S
C4126 C4125 1.560 . S
H4127 C4102 0.950 . S
H4128 C4104 0.950 . S
H4129 C4105 0.949 . S
H4130 C4107 0.950 . S
H4131 C4109 0.950 . S
C4132 C4133 1.349 . S
C4132 C4134 1.327 . S
C4132 H4157 0.950 . S
C4133 C4132 1.349 . S
C4133 C4149 1.349 . S
C4134 C4132 1.327 . S
C4134 C4153 1.429 . S
C4134 H4158 0.950 . S
C4135 C4152 1.574 . S
C4135 C4154 1.368 . S
C4135 H4159 0.949 . S
H4136 C4140 0.949 . S
C4137 C4138 1.349 . S
C4137 C4139 1.327 . S
C4137 H4160 0.950 . S
C4138 C4137 1.349 . S
C4138 C4150 1.349 . S
C4139 C4137 1.327 . S
C4139 C4155 1.429 . S
C4139 H4161 0.950 . S
C4140 H4136 0.949 . S
C4140 C4148 1.574 . S
C4140 C4156 1.368 . S
H4141 C4149 0.950 . S
H4142 C4147 0.950 . S
H4143 C4148 0.949 . S
H4144 C4150 0.950 . S
H4145 C4151 0.950 . S
H4146 C4152 0.949 . S
C4147 H4142 0.950 . S
C4147 C4149 1.327 . S
C4147 C4153 1.429 . S
C4148 C4140 1.574 . S
C4148 H4143 0.949 . S
C4148 C4154 1.368 . S
C4149 C4133 1.349 . S
C4149 H4141 0.950 . S
C4149 C4147 1.327 . S
C4150 C4138 1.349 . S
C4150 H4144 0.950 . S
C4150 C4151 1.327 . S
C4151 H4145 0.950 . S
C4151 C4150 1.327 . S
C4151 C4155 1.429 . S
C4152 C4135 1.574 . S
C4152 H4146 0.949 . S
C4152 C4156 1.368 . S
C4153 C4134 1.429 . S
C4153 C4147 1.429 . S
C4153 C4154 1.523 . S
C4154 C4135 1.368 . S
C4154 C4148 1.368 . S
C4154 C4153 1.523 . S
C4155 C4139 1.429 . S
C4155 C4151 1.429 . S
C4155 C4156 1.523 . S
C4156 C4140 1.368 . S
C4156 C4152 1.368 . S
C4156 C4155 1.523 . S
H4157 C4132 0.950 . S
H4158 C4134 0.950 . S
H4159 C4135 0.949 . S
H4160 C4137 0.950 . S
H4161 C4139 0.950 . S
C4162 C4163 1.349 . S
C4162 C4164 1.327 . S
C4162 H4187 0.950 . S
C4163 C4162 1.349 . S
C4163 C4179 1.349 . S
C4164 C4162 1.327 . S
C4164 C4183 1.429 . S
C4164 H4188 0.950 . S
C4165 C4182 1.574 . S
C4165 C4184 1.368 . S
C4165 H4189 0.949 . S
H4166 C4170 0.949 . S
C4167 C4168 1.349 . S
C4167 C4169 1.327 . S
C4167 H4190 0.950 . S
C4168 C4167 1.349 . S
C4168 C4180 1.349 . S
C4169 C4167 1.327 . S
C4169 C4185 1.429 . S
C4169 H4191 0.950 . S
C4170 H4166 0.949 . S
C4170 C4178 1.574 . S
C4170 C4186 1.368 . S
H4171 C4179 0.950 . S
H4172 C4177 0.950 . S
H4173 C4178 0.949 . S
H4174 C4180 0.950 . S
H4175 C4181 0.950 . S
H4176 C4182 0.949 . S
C4177 H4172 0.950 . S
C4177 C4179 1.327 . S
C4177 C4183 1.429 . S
C4178 C4170 1.574 . S
C4178 H4173 0.949 . S
C4178 C4184 1.368 . S
C4179 C4163 1.349 . S
C4179 H4171 0.950 . S
C4179 C4177 1.327 . S
C4180 C4168 1.349 . S
C4180 H4174 0.950 . S
C4180 C4181 1.327 . S
C4181 H4175 0.950 . S
C4181 C4180 1.327 . S
C4181 C4185 1.429 . S
C4182 C4165 1.574 . S
C4182 H4176 0.949 . S
C4182 C4186 1.368 . S
C4183 C4164 1.429 . S
C4183 C4177 1.429 . S
C4183 C4184 1.523 . S
C4184 C4165 1.368 . S
C4184 C4178 1.368 . S
C4184 C4183 1.523 . S
C4185 C4169 1.429 . S
C4185 C4181 1.429 . S
C4185 C4186 1.523 . S
C4186 C4170 1.368 . S
C4186 C4182 1.368 . S
C4186 C4185 1.523 . S
H4187 C4162 0.950 . S
H4188 C4164 0.950 . S
H4189 C4165 0.949 . S
H4190 C4167 0.950 . S
H4191 C4169 0.950 . S
C4192 C4193 1.349 . S
C4192 C4194 1.327 . S
C4192 H4217 0.950 . S
C4193 C4192 1.349 . S
C4193 C4209 1.349 . S
C4194 C4192 1.327 . S
C4194 C4213 1.429 . S
C4194 H4218 0.950 . S
C4195 C4212 1.574 . S
C4195 C4214 1.368 . S
C4195 H4219 0.949 . S
H4196 C4200 0.949 . S
C4197 C4198 1.349 . S
C4197 C4199 1.327 . S
C4197 H4220 0.950 . S
C4198 C4197 1.349 . S
C4198 C4210 1.349 . S
C4199 C4197 1.327 . S
C4199 C4215 1.429 . S
C4199 H4221 0.950 . S
C4200 H4196 0.949 . S
C4200 C4208 1.574 . S
C4200 C4216 1.368 . S
H4201 C4209 0.950 . S
H4202 C4207 0.950 . S
H4203 C4208 0.949 . S
H4204 C4210 0.950 . S
H4205 C4211 0.950 . S
H4206 C4212 0.949 . S
C4207 H4202 0.950 . S
C4207 C4209 1.327 . S
C4207 C4213 1.429 . S
C4208 C4200 1.574 . S
C4208 H4203 0.949 . S
C4208 C4214 1.368 . S
C4209 C4193 1.349 . S
C4209 H4201 0.950 . S
C4209 C4207 1.327 . S
C4210 C4198 1.349 . S
C4210 H4204 0.950 . S
C4210 C4211 1.327 . S
C4211 H4205 0.950 . S
C4211 C4210 1.327 . S
C4211 C4215 1.429 . S
C4212 C4195 1.574 . S
C4212 H4206 0.949 . S
C4212 C4216 1.368 . S
C4213 C4194 1.429 . S
C4213 C4207 1.429 . S
C4213 C4214 1.523 . S
C4214 C4195 1.368 . S
C4214 C4208 1.368 . S
C4214 C4213 1.523 . S
C4215 C4199 1.429 . S
C4215 C4211 1.429 . S
C4215 C4216 1.523 . S
C4216 C4200 1.368 . S
C4216 C4212 1.368 . S
C4216 C4215 1.523 . S
H4217 C4192 0.950 . S
H4218 C4194 0.950 . S
H4219 C4195 0.949 . S
H4220 C4197 0.950 . S
H4221 C4199 0.950 . S
C4222 C4223 1.349 . S
C4222 C4224 1.327 . S
C4222 H4247 0.950 . S
C4223 C4222 1.349 . S
C4223 C4239 1.349 . S
C4224 C4222 1.327 . S
C4224 C4243 1.429 . S
C4224 H4248 0.950 . S
C4225 C4242 1.574 . S
C4225 C4244 1.368 . S
C4225 H4249 0.949 . S
H4226 C4230 0.949 . S
C4227 C4228 1.349 . S
C4227 C4229 1.327 . S
C4227 H4250 0.950 . S
C4228 C4227 1.349 . S
C4228 C4240 1.349 . S
C4229 C4227 1.327 . S
C4229 C4245 1.429 . S
C4229 H4251 0.950 . S
C4230 H4226 0.949 . S
C4230 C4238 1.574 . S
C4230 C4246 1.368 . S
H4231 C4239 0.950 . S
H4232 C4237 0.950 . S
H4233 C4238 0.949 . S
H4234 C4240 0.950 . S
H4235 C4241 0.950 . S
H4236 C4242 0.949 . S
C4237 H4232 0.950 . S
C4237 C4239 1.327 . S
C4237 C4243 1.429 . S
C4238 C4230 1.574 . S
C4238 H4233 0.949 . S
C4238 C4244 1.368 . S
C4239 C4223 1.349 . S
C4239 H4231 0.950 . S
C4239 C4237 1.327 . S
C4240 C4228 1.349 . S
C4240 H4234 0.950 . S
C4240 C4241 1.327 . S
C4241 H4235 0.950 . S
C4241 C4240 1.327 . S
C4241 C4245 1.429 . S
C4242 C4225 1.574 . S
C4242 H4236 0.949 . S
C4242 C4246 1.368 . S
C4243 C4224 1.429 . S
C4243 C4237 1.429 . S
C4243 C4244 1.523 . S
C4244 C4225 1.368 . S
C4244 C4238 1.368 . S
C4244 C4243 1.523 . S
C4245 C4229 1.429 . S
C4245 C4241 1.429 . S
C4245 C4246 1.523 . S
C4246 C4230 1.368 . S
C4246 C4242 1.368 . S
C4246 C4245 1.523 . S
H4247 C4222 0.950 . S
H4248 C4224 0.950 . S
H4249 C4225 0.949 . S
H4250 C4227 0.950 . S
H4251 C4229 0.950 . S
C4252 C4253 1.349 . S
C4252 C4254 1.327 . S
C4252 H4277 0.950 . S
C4253 C4252 1.349 . S
C4253 C4269 1.349 . S
C4254 C4252 1.327 . S
C4254 C4273 1.429 . S
C4254 H4278 0.950 . S
C4255 C4272 1.574 . S
C4255 C4274 1.368 . S
C4255 H4279 0.949 . S
H4256 C4260 0.896 1_554 S
C4257 C4258 1.349 1_556 S
C4257 C4259 1.327 . S
C4257 H4280 0.950 . S
C4258 C4257 1.349 1_554 S
C4258 C4270 1.349 . S
C4259 C4257 1.327 . S
C4259 C4275 1.429 . S
C4259 H4281 0.950 . S
C4260 H4256 0.896 1_556 S
C4260 C4268 1.599 . S
C4260 C4276 1.404 . S
H4261 C4269 0.950 . S
H4262 C4267 0.950 . S
H4263 C4268 0.949 . S
H4264 C4270 0.950 . S
H4265 C4271 0.950 . S
H4266 C4272 0.949 . S
C4267 H4262 0.950 . S
C4267 C4269 1.327 . S
C4267 C4273 1.429 . S
C4268 C4260 1.599 . S
C4268 H4263 0.949 . S
C4268 C4274 1.368 . S
C4269 C4253 1.349 . S
C4269 H4261 0.950 . S
C4269 C4267 1.327 . S
C4270 C4258 1.349 . S
C4270 H4264 0.950 . S
C4270 C4271 1.327 . S
C4271 H4265 0.950 . S
C4271 C4270 1.327 . S
C4271 C4275 1.429 1_554 S
C4272 C4255 1.574 . S
C4272 H4266 0.949 . S
C4272 C4276 1.368 . S
C4273 C4254 1.429 . S
C4273 C4267 1.429 . S
C4273 C4274 1.523 . S
C4274 C4255 1.368 . S
C4274 C4268 1.368 . S
C4274 C4273 1.523 . S
C4275 C4259 1.429 . S
C4275 C4271 1.429 1_556 S
C4275 C4276 1.523 . S
C4276 C4260 1.404 . S
C4276 C4272 1.368 . S
C4276 C4275 1.523 . S
H4277 C4252 0.950 . S
H4278 C4254 0.950 . S
H4279 C4255 0.949 . S
H4280 C4257 0.950 . S
H4281 C4259 0.950 . S
C4282 C4283 1.349 . S
C4282 C4284 1.327 . S
C4282 H4307 0.950 . S
C4283 C4282 1.349 . S
C4283 C4299 1.349 . S
C4284 C4282 1.327 . S
C4284 C4303 1.429 . S
C4284 H4308 0.950 . S
C4285 C4302 1.574 . S
C4285 C4304 1.368 . S
C4285 H4309 0.949 . S
H4286 C4290 0.949 . S
C4287 C4288 1.349 . S
C4287 C4289 1.327 . S
C4287 H4310 0.950 . S
C4288 C4287 1.349 . S
C4288 C4300 1.349 . S
C4289 C4287 1.327 . S
C4289 C4305 1.429 . S
C4289 H4311 0.950 . S
C4290 H4286 0.949 . S
C4290 C4298 1.574 . S
C4290 C4306 1.368 . S
H4291 C4299 0.950 . S
H4292 C4297 0.950 . S
H4293 C4298 0.949 . S
H4294 C4300 0.950 . S
H4295 C4301 0.950 . S
H4296 C4302 0.949 . S
C4297 H4292 0.950 . S
C4297 C4299 1.327 . S
C4297 C4303 1.429 . S
C4298 C4290 1.574 . S
C4298 H4293 0.949 . S
C4298 C4304 1.368 . S
C4299 C4283 1.349 . S
C4299 H4291 0.950 . S
C4299 C4297 1.327 . S
C4300 C4288 1.349 . S
C4300 H4294 0.950 . S
C4300 C4301 1.327 . S
C4301 H4295 0.950 . S
C4301 C4300 1.327 . S
C4301 C4305 1.429 . S
C4302 C4285 1.574 . S
C4302 H4296 0.949 . S
C4302 C4306 1.368 . S
C4303 C4284 1.429 . S
C4303 C4297 1.429 . S
C4303 C4304 1.523 . S
C4304 C4285 1.368 . S
C4304 C4298 1.368 . S
C4304 C4303 1.523 . S
C4305 C4289 1.429 . S
C4305 C4301 1.429 . S
C4305 C4306 1.523 . S
C4306 C4290 1.368 . S
C4306 C4302 1.368 . S
C4306 C4305 1.523 . S
H4307 C4282 0.950 . S
H4308 C4284 0.950 . S
H4309 C4285 0.949 . S
H4310 C4287 0.950 . S
H4311 C4289 0.950 . S
C4312 C4313 1.349 . S
C4312 C4314 1.327 . S
C4312 H4337 0.950 . S
C4313 C4312 1.349 . S
C4313 C4329 1.349 . S
C4314 C4312 1.327 . S
C4314 C4333 1.429 . S
C4314 H4338 0.950 . S
C4315 C4332 1.574 . S
C4315 C4334 1.368 . S
C4315 H4339 0.949 . S
H4316 C4320 0.949 . S
C4317 C4318 1.349 . S
C4317 C4319 1.327 . S
C4317 H4340 0.950 . S
C4318 C4317 1.349 . S
C4318 C4330 1.349 . S
C4319 C4317 1.327 . S
C4319 C4335 1.429 . S
C4319 H4341 0.950 . S
C4320 H4316 0.949 . S
C4320 C4328 1.574 . S
C4320 C4336 1.368 . S
H4321 C4329 0.950 . S
H4322 C4327 0.950 . S
H4323 C4328 0.949 . S
H4324 C4330 0.950 . S
H4325 C4331 0.950 . S
H4326 C4332 0.949 . S
C4327 H4322 0.950 . S
C4327 C4329 1.327 . S
C4327 C4333 1.429 . S
C4328 C4320 1.574 . S
C4328 H4323 0.949 . S
C4328 C4334 1.368 . S
C4329 C4313 1.349 . S
C4329 H4321 0.950 . S
C4329 C4327 1.327 . S
C4330 C4318 1.349 . S
C4330 H4324 0.950 . S
C4330 C4331 1.327 . S
C4331 H4325 0.950 . S
C4331 C4330 1.327 . S
C4331 C4335 1.429 . S
C4332 C4315 1.574 . S
C4332 H4326 0.949 . S
C4332 C4336 1.368 . S
C4333 C4314 1.429 . S
C4333 C4327 1.429 . S
C4333 C4334 1.523 . S
C4334 C4315 1.368 . S
C4334 C4328 1.368 . S
C4334 C4333 1.523 . S
C4335 C4319 1.429 . S
C4335 C4331 1.429 . S
C4335 C4336 1.523 . S
C4336 C4320 1.368 . S
C4336 C4332 1.368 . S
C4336 C4335 1.523 . S
H4337 C4312 0.950 . S
H4338 C4314 0.950 . S
H4339 C4315 0.949 . S
H4340 C4317 0.950 . S
H4341 C4319 0.950 . S
C4342 C4343 1.349 . S
C4342 C4344 1.327 . S
C4342 H4367 0.950 . S
C4343 C4342 1.349 . S
C4343 C4359 1.349 . S
C4344 C4342 1.327 . S
C4344 C4363 1.429 . S
C4344 H4368 0.950 . S
C4345 C4362 1.574 . S
C4345 C4364 1.368 . S
C4345 H4369 0.949 . S
H4346 C4350 0.949 . S
C4347 C4348 1.349 . S
C4347 C4349 1.327 . S
C4347 H4370 0.950 . S
C4348 C4347 1.349 . S
C4348 C4360 1.349 . S
C4349 C4347 1.327 . S
C4349 C4365 1.429 . S
C4349 H4371 0.950 . S
C4350 H4346 0.949 . S
C4350 C4358 1.574 . S
C4350 C4366 1.368 . S
H4351 C4359 0.950 . S
H4352 C4357 0.950 . S
H4353 C4358 0.949 . S
H4354 C4360 0.950 . S
H4355 C4361 0.950 . S
H4356 C4362 0.949 . S
C4357 H4352 0.950 . S
C4357 C4359 1.327 . S
C4357 C4363 1.429 . S
C4358 C4350 1.574 . S
C4358 H4353 0.949 . S
C4358 C4364 1.368 . S
C4359 C4343 1.349 . S
C4359 H4351 0.950 . S
C4359 C4357 1.327 . S
C4360 C4348 1.349 . S
C4360 H4354 0.950 . S
C4360 C4361 1.327 . S
C4361 H4355 0.950 . S
C4361 C4360 1.327 . S
C4361 C4365 1.429 . S
C4362 C4345 1.574 . S
C4362 H4356 0.949 . S
C4362 C4366 1.368 . S
C4363 C4344 1.429 . S
C4363 C4357 1.429 . S
C4363 C4364 1.523 . S
C4364 C4345 1.368 . S
C4364 C4358 1.368 . S
C4364 C4363 1.523 . S
C4365 C4349 1.429 . S
C4365 C4361 1.429 . S
C4365 C4366 1.523 . S
C4366 C4350 1.368 . S
C4366 C4362 1.368 . S
C4366 C4365 1.523 . S
H4367 C4342 0.950 . S
H4368 C4344 0.950 . S
H4369 C4345 0.949 . S
H4370 C4347 0.950 . S
H4371 C4349 0.950 . S
C4372 C4373 1.349 . S
C4372 C4374 1.327 . S
C4372 H4397 0.950 . S
C4373 C4372 1.349 . S
C4373 C4389 1.349 . S
C4374 C4372 1.327 . S
C4374 C4393 1.429 . S
C4374 H4398 0.950 . S
C4375 C4392 1.574 . S
C4375 C4394 1.368 1_455 S
C4375 H4399 0.949 . S
H4376 C4380 0.949 . S
C4377 C4378 1.349 . S
C4377 C4379 1.327 . S
C4377 H4400 0.950 . S
C4378 C4377 1.349 . S
C4378 C4390 1.349 . S
C4379 C4377 1.327 . S
C4379 C4395 1.429 . S
C4379 H4401 0.950 . S
C4380 H4376 0.949 . S
C4380 C4388 1.574 . S
C4380 C4396 1.368 1_655 S
H4381 C4389 0.950 . S
H4382 C4387 0.950 1_455 S
H4383 C4388 0.949 . S
H4384 C4390 0.961 . S
H4385 C4391 0.915 1_655 S
H4386 C4392 0.949 . S
C4387 H4382 0.950 1_655 S
C4387 C4389 1.327 . S
C4387 C4393 1.429 . S
C4388 C4380 1.574 . S
C4388 H4383 0.949 . S
C4388 C4394 1.368 . S
C4389 C4373 1.349 . S
C4389 H4381 0.950 . S
C4389 C4387 1.327 . S
C4390 C4378 1.349 . S
C4390 H4384 0.961 . S
C4390 C4391 1.355 . S
C4391 H4385 0.915 1_455 S
C4391 C4390 1.355 . S
C4391 C4395 1.439 . S
C4392 C4375 1.574 . S
C4392 H4386 0.949 . S
C4392 C4396 1.368 . S
C4393 C4374 1.429 . S
C4393 C4387 1.429 . S
C4393 C4394 1.523 . S
C4394 C4375 1.368 1_655 S
C4394 C4388 1.368 . S
C4394 C4393 1.523 . S
C4395 C4379 1.429 . S
C4395 C4391 1.439 . S
C4395 C4396 1.523 . S
C4396 C4380 1.368 1_455 S
C4396 C4392 1.368 . S
C4396 C4395 1.523 . S
H4397 C4372 0.950 . S
H4398 C4374 0.950 . S
H4399 C4375 0.949 . S
H4400 C4377 0.950 . S
H4401 C4379 0.950 . S
C4402 C4403 1.349 . S
C4402 C4404 1.327 . S
C4402 H4427 0.950 . S
C4403 C4402 1.349 . S
C4403 C4419 1.349 . S
C4404 C4402 1.327 . S
C4404 C4423 1.429 . S
C4404 H4428 0.950 . S
C4405 C4422 1.574 . S
C4405 C4424 1.368 . S
C4405 H4429 0.949 . S
H4406 C4410 0.949 . S
C4407 C4408 1.349 . S
C4407 C4409 1.327 . S
C4407 H4430 0.950 . S
C4408 C4407 1.349 . S
C4408 C4420 1.349 . S
C4409 C4407 1.327 . S
C4409 C4425 1.429 . S
C4409 H4431 0.950 . S
C4410 H4406 0.949 . S
C4410 C4418 1.574 . S
C4410 C4426 1.368 . S
H4411 C4419 0.950 . S
H4412 C4417 0.950 . S
H4413 C4418 0.949 . S
H4414 C4420 0.950 . S
H4415 C4421 0.950 . S
H4416 C4422 0.949 . S
C4417 H4412 0.950 . S
C4417 C4419 1.327 . S
C4417 C4423 1.429 . S
C4418 C4410 1.574 . S
C4418 H4413 0.949 . S
C4418 C4424 1.368 . S
C4419 C4403 1.349 . S
C4419 H4411 0.950 . S
C4419 C4417 1.327 . S
C4420 C4408 1.349 . S
C4420 H4414 0.950 . S
C4420 C4421 1.327 . S
C4421 H4415 0.950 . S
C4421 C4420 1.327 . S
C4421 C4425 1.429 . S
C4422 C4405 1.574 . S
C4422 H4416 0.949 . S
C4422 C4426 1.368 . S
C4423 C4404 1.429 . S
C4423 C4417 1.429 . S
C4423 C4424 1.523 . S
C4424 C4405 1.368 . S
C4424 C4418 1.368 . S
C4424 C4423 1.523 . S
C4425 C4409 1.429 . S
C4425 C4421 1.429 . S
C4425 C4426 1.523 . S
C4426 C4410 1.368 . S
C4426 C4422 1.368 . S
C4426 C4425 1.523 . S
H4427 C4402 0.950 . S
H4428 C4404 0.950 . S
H4429 C4405 0.949 . S
H4430 C4407 0.950 . S
H4431 C4409 0.950 . S
C4432 C4433 1.349 . S
C4432 C4434 1.327 . S
C4432 H4457 0.950 . S
C4433 C4432 1.349 . S
C4433 C4449 1.349 . S
C4434 C4432 1.327 . S
C4434 C4453 1.429 . S
C4434 H4458 0.950 . S
C4435 C4452 1.574 . S
C4435 C4454 1.368 . S
C4435 H4459 0.949 . S
H4436 C4440 0.949 . S
C4437 C4438 1.349 . S
C4437 C4439 1.327 . S
C4437 H4460 0.950 . S
C4438 C4437 1.349 . S
C4438 C4450 1.349 . S
C4439 C4437 1.327 . S
C4439 C4455 1.429 . S
C4439 H4461 0.950 . S
C4440 H4436 0.949 . S
C4440 C4448 1.574 . S
C4440 C4456 1.368 . S
H4441 C4449 0.950 . S
H4442 C4447 0.950 . S
H4443 C4448 0.949 . S
H4444 C4450 0.950 . S
H4445 C4451 0.950 . S
H4446 C4452 0.949 . S
C4447 H4442 0.950 . S
C4447 C4449 1.327 . S
C4447 C4453 1.429 . S
C4448 C4440 1.574 . S
C4448 H4443 0.949 . S
C4448 C4454 1.368 . S
C4449 C4433 1.349 . S
C4449 H4441 0.950 . S
C4449 C4447 1.327 . S
C4450 C4438 1.349 . S
C4450 H4444 0.950 . S
C4450 C4451 1.327 . S
C4451 H4445 0.950 . S
C4451 C4450 1.327 . S
C4451 C4455 1.429 . S
C4452 C4435 1.574 . S
C4452 H4446 0.949 . S
C4452 C4456 1.368 . S
C4453 C4434 1.429 . S
C4453 C4447 1.429 . S
C4453 C4454 1.523 . S
C4454 C4435 1.368 . S
C4454 C4448 1.368 . S
C4454 C4453 1.523 . S
C4455 C4439 1.429 . S
C4455 C4451 1.429 . S
C4455 C4456 1.523 . S
C4456 C4440 1.368 . S
C4456 C4452 1.368 . S
C4456 C4455 1.523 . S
H4457 C4432 0.950 . S
H4458 C4434 0.950 . S
H4459 C4435 0.949 . S
H4460 C4437 0.950 . S
H4461 C4439 0.950 . S
C4462 C4463 1.349 . S
C4462 C4464 1.327 . S
C4462 H4487 0.950 . S
C4463 C4462 1.349 . S
C4463 C4479 1.349 . S
C4464 C4462 1.327 . S
C4464 C4483 1.429 . S
C4464 H4488 0.950 . S
C4465 C4482 1.574 . S
C4465 C4484 1.368 . S
C4465 H4489 0.949 . S
H4466 C4470 0.949 . S
C4467 C4468 1.349 . S
C4467 C4469 1.327 . S
C4467 H4490 0.950 . S
C4468 C4467 1.349 . S
C4468 C4480 1.349 . S
C4469 C4467 1.327 . S
C4469 C4485 1.429 . S
C4469 H4491 0.950 . S
C4470 H4466 0.949 . S
C4470 C4478 1.574 . S
C4470 C4486 1.368 . S
H4471 C4479 0.950 . S
H4472 C4477 0.950 . S
H4473 C4478 0.949 . S
H4474 C4480 0.950 . S
H4475 C4481 0.950 . S
H4476 C4482 0.949 . S
C4477 H4472 0.950 . S
C4477 C4479 1.327 . S
C4477 C4483 1.429 . S
C4478 C4470 1.574 . S
C4478 H4473 0.949 . S
C4478 C4484 1.368 . S
C4479 C4463 1.349 . S
C4479 H4471 0.950 . S
C4479 C4477 1.327 . S
C4480 C4468 1.349 . S
C4480 H4474 0.950 . S
C4480 C4481 1.327 . S
C4481 H4475 0.950 . S
C4481 C4480 1.327 . S
C4481 C4485 1.429 . S
C4482 C4465 1.574 . S
C4482 H4476 0.949 . S
C4482 C4486 1.368 . S
C4483 C4464 1.429 . S
C4483 C4477 1.429 . S
C4483 C4484 1.523 . S
C4484 C4465 1.368 . S
C4484 C4478 1.368 . S
C4484 C4483 1.523 . S
C4485 C4469 1.429 . S
C4485 C4481 1.429 . S
C4485 C4486 1.523 . S
C4486 C4470 1.368 . S
C4486 C4482 1.368 . S
C4486 C4485 1.523 . S
H4487 C4462 0.950 . S
H4488 C4464 0.950 . S
H4489 C4465 0.949 . S
H4490 C4467 0.950 . S
H4491 C4469 0.950 . S
C4492 C4493 1.349 . S
C4492 C4494 1.327 . S
C4492 H4517 0.950 . S
C4493 C4492 1.349 . S
C4493 C4509 1.349 . S
C4494 C4492 1.327 . S
C4494 C4513 1.429 . S
C4494 H4518 0.950 . S
C4495 C4512 1.574 . S
C4495 C4514 1.368 . S
C4495 H4519 0.949 . S
H4496 C4500 0.949 . S
C4497 C4498 1.349 . S
C4497 C4499 1.327 . S
C4497 H4520 0.950 . S
C4498 C4497 1.349 . S
C4498 C4510 1.349 . S
C4499 C4497 1.327 . S
C4499 C4515 1.429 . S
C4499 H4521 0.950 . S
C4500 H4496 0.949 . S
C4500 C4508 1.574 . S
C4500 C4516 1.368 . S
H4501 C4509 0.950 . S
H4502 C4507 0.950 . S
H4503 C4508 0.949 . S
H4504 C4510 0.950 . S
H4505 C4511 0.950 . S
H4506 C4512 0.949 . S
C4507 H4502 0.950 . S
C4507 C4509 1.327 . S
C4507 C4513 1.429 . S
C4508 C4500 1.574 . S
C4508 H4503 0.949 . S
C4508 C4514 1.368 . S
C4509 C4493 1.349 . S
C4509 H4501 0.950 . S
C4509 C4507 1.327 . S
C4510 C4498 1.349 . S
C4510 H4504 0.950 . S
C4510 C4511 1.327 . S
C4511 H4505 0.950 . S
C4511 C4510 1.327 . S
C4511 C4515 1.429 . S
C4512 C4495 1.574 . S
C4512 H4506 0.949 . S
C4512 C4516 1.368 . S
C4513 C4494 1.429 . S
C4513 C4507 1.429 . S
C4513 C4514 1.523 . S
C4514 C4495 1.368 . S
C4514 C4508 1.368 . S
C4514 C4513 1.523 . S
C4515 C4499 1.429 . S
C4515 C4511 1.429 . S
C4515 C4516 1.523 . S
C4516 C4500 1.368 . S
C4516 C4512 1.368 . S
C4516 C4515 1.523 . S
H4517 C4492 0.950 . S
H4518 C4494 0.950 . S
H4519 C4495 0.949 . S
H4520 C4497 0.950 . S
H4521 C4499 0.950 . S
C4522 C4523 1.349 . S
C4522 C4524 1.327 . S
C4522 H4547 0.950 . S
C4523 C4522 1.349 . S
C4523 C4539 1.349 . S
C4524 C4522 1.327 . S
C4524 C4543 1.429 . S
C4524 H4548 0.950 . S
C4525 C4542 1.574 . S
C4525 C4544 1.368 . S
C4525 H4549 0.949 . S
H4526 C4530 0.949 . S
C4527 C4528 1.349 . S
C4527 C4529 1.327 . S
C4527 H4550 0.950 . S
C4528 C4527 1.349 . S
C4528 C4540 1.349 . S
C4529 C4527 1.327 . S
C4529 C4545 1.429 . S
C4529 H4551 0.950 . S
C4530 H4526 0.949 . S
C4530 C4538 1.574 . S
C4530 C4546 1.368 . S
H4531 C4539 0.950 . S
H4532 C4537 0.950 . S
H4533 C4538 0.949 . S
H4534 C4540 0.950 . S
H4535 C4541 0.950 . S
H4536 C4542 0.949 . S
C4537 H4532 0.950 . S
C4537 C4539 1.327 . S
C4537 C4543 1.429 . S
C4538 C4530 1.574 . S
C4538 H4533 0.949 . S
C4538 C4544 1.368 . S
C4539 C4523 1.349 . S
C4539 H4531 0.950 . S
C4539 C4537 1.327 . S
C4540 C4528 1.349 . S
C4540 H4534 0.950 . S
C4540 C4541 1.327 . S
C4541 H4535 0.950 . S
C4541 C4540 1.327 . S
C4541 C4545 1.429 . S
C4542 C4525 1.574 . S
C4542 H4536 0.949 . S
C4542 C4546 1.368 . S
C4543 C4524 1.429 . S
C4543 C4537 1.429 . S
C4543 C4544 1.523 . S
C4544 C4525 1.368 . S
C4544 C4538 1.368 . S
C4544 C4543 1.523 . S
C4545 C4529 1.429 . S
C4545 C4541 1.429 . S
C4545 C4546 1.523 . S
C4546 C4530 1.368 . S
C4546 C4542 1.368 . S
C4546 C4545 1.523 . S
H4547 C4522 0.950 . S
H4548 C4524 0.950 . S
H4549 C4525 0.949 . S
H4550 C4527 0.950 . S
H4551 C4529 0.950 . S
C4552 C4553 1.349 . S
C4552 C4554 1.327 . S
C4552 H4577 0.950 . S
C4553 C4552 1.349 . S
C4553 C4569 1.349 . S
C4554 C4552 1.327 . S
C4554 C4573 1.429 . S
C4554 H4578 0.950 . S
C4555 C4572 1.574 . S
C4555 C4574 1.368 . S
C4555 H4579 0.949 . S
H4556 C4560 0.949 . S
C4557 C4558 1.349 . S
C4557 C4559 1.327 . S
C4557 H4580 0.950 . S
C4558 C4557 1.349 . S
C4558 C4570 1.349 . S
C4559 C4557 1.327 . S
C4559 C4575 1.429 . S
C4559 H4581 0.950 . S
C4560 H4556 0.949 . S
C4560 C4568 1.574 . S
C4560 C4576 1.368 . S
H4561 C4569 0.950 . S
H4562 C4567 0.950 . S
H4563 C4568 0.949 . S
H4564 C4570 0.950 . S
H4565 C4571 0.950 . S
H4566 C4572 0.949 . S
C4567 H4562 0.950 . S
C4567 C4569 1.327 . S
C4567 C4573 1.429 . S
C4568 C4560 1.574 . S
C4568 H4563 0.949 . S
C4568 C4574 1.368 . S
C4569 C4553 1.349 . S
C4569 H4561 0.950 . S
C4569 C4567 1.327 . S
C4570 C4558 1.349 . S
C4570 H4564 0.950 . S
C4570 C4571 1.327 . S
C4571 H4565 0.950 . S
C4571 C4570 1.327 . S
C4571 C4575 1.429 . S
C4572 C4555 1.574 . S
C4572 H4566 0.949 . S
C4572 C4576 1.368 . S
C4573 C4554 1.429 . S
C4573 C4567 1.429 . S
C4573 C4574 1.523 . S
C4574 C4555 1.368 . S
C4574 C4568 1.368 . S
C4574 C4573 1.523 . S
C4575 C4559 1.429 . S
C4575 C4571 1.429 . S
C4575 C4576 1.523 . S
C4576 C4560 1.368 . S
C4576 C4572 1.368 . S
C4576 C4575 1.523 . S
H4577 C4552 0.950 . S
H4578 C4554 0.950 . S
H4579 C4555 0.949 . S
H4580 C4557 0.950 . S
H4581 C4559 0.950 . S
C4582 C4583 1.349 . S
C4582 C4584 1.327 . S
C4582 H4607 0.950 . S
C4583 C4582 1.349 . S
C4583 C4599 1.349 . S
C4584 C4582 1.327 . S
C4584 C4603 1.429 . S
C4584 H4608 0.950 . S
C4585 C4602 1.574 . S
C4585 C4604 1.368 . S
C4585 H4609 0.949 . S
H4586 C4590 0.949 . S
C4587 C4588 1.349 . S
C4587 C4589 1.327 . S
C4587 H4610 0.950 . S
C4588 C4587 1.349 . S
C4588 C4600 1.349 . S
C4589 C4587 1.327 . S
C4589 C4605 1.429 . S
C4589 H4611 0.950 . S
C4590 H4586 0.949 . S
C4590 C4598 1.574 . S
C4590 C4606 1.368 . S
H4591 C4599 0.950 . S
H4592 C4597 0.950 . S
H4593 C4598 0.949 . S
H4594 C4600 0.950 . S
H4595 C4601 0.950 . S
H4596 C4602 0.949 . S
C4597 H4592 0.950 . S
C4597 C4599 1.327 . S
C4597 C4603 1.429 . S
C4598 C4590 1.574 . S
C4598 H4593 0.949 . S
C4598 C4604 1.368 . S
C4599 C4583 1.349 . S
C4599 H4591 0.950 . S
C4599 C4597 1.327 . S
C4600 C4588 1.349 . S
C4600 H4594 0.950 . S
C4600 C4601 1.327 . S
C4601 H4595 0.950 . S
C4601 C4600 1.327 . S
C4601 C4605 1.429 . S
C4602 C4585 1.574 . S
C4602 H4596 0.949 . S
C4602 C4606 1.368 . S
C4603 C4584 1.429 . S
C4603 C4597 1.429 . S
C4603 C4604 1.523 . S
C4604 C4585 1.368 . S
C4604 C4598 1.368 . S
C4604 C4603 1.523 . S
C4605 C4589 1.429 . S
C4605 C4601 1.429 . S
C4605 C4606 1.523 . S
C4606 C4590 1.368 . S
C4606 C4602 1.368 . S
C4606 C4605 1.523 . S
H4607 C4582 0.950 . S
H4608 C4584 0.950 . S
H4609 C4585 0.949 . S
H4610 C4587 0.950 . S
H4611 C4589 0.950 . S
C4612 C4613 1.349 . S
C4612 C4614 1.327 . S
C4612 H4637 0.950 . S
C4613 C4612 1.349 . S
C4613 C4629 1.349 . S
C4614 C4612 1.327 . S
C4614 C4633 1.429 . S
C4614 H4638 0.950 . S
C4615 C4632 1.574 . S
C4615 C4634 1.368 . S
C4615 H4639 0.949 . S
H4616 C4620 0.949 . S
C4617 C4618 1.349 . S
C4617 C4619 1.327 . S
C4617 H4640 0.950 . S
C4618 C4617 1.349 . S
C4618 C4630 1.349 . S
C4619 C4617 1.327 . S
C4619 C4635 1.429 . S
C4619 H4641 0.950 . S
C4620 H4616 0.949 . S
C4620 C4628 1.574 . S
C4620 C4636 1.368 . S
H4621 C4629 0.950 . S
H4622 C4627 0.950 . S
H4623 C4628 0.949 . S
H4624 C4630 0.950 . S
H4625 C4631 0.950 . S
H4626 C4632 0.949 . S
C4627 H4622 0.950 . S
C4627 C4629 1.327 . S
C4627 C4633 1.429 . S
C4628 C4620 1.574 . S
C4628 H4623 0.949 . S
C4628 C4634 1.368 . S
C4629 C4613 1.349 . S
C4629 H4621 0.950 . S
C4629 C4627 1.327 . S
C4630 C4618 1.349 . S
C4630 H4624 0.950 . S
C4630 C4631 1.327 . S
C4631 H4625 0.950 . S
C4631 C4630 1.327 . S
C4631 C4635 1.429 . S
C4632 C4615 1.574 . S
C4632 H4626 0.949 . S
C4632 C4636 1.368 . S
C4633 C4614 1.429 . S
C4633 C4627 1.429 . S
C4633 C4634 1.523 . S
C4634 C4615 1.368 . S
C4634 C4628 1.368 . S
C4634 C4633 1.523 . S
C4635 C4619 1.429 . S
C4635 C4631 1.429 . S
C4635 C4636 1.523 . S
C4636 C4620 1.368 . S
C4636 C4632 1.368 . S
C4636 C4635 1.523 . S
H4637 C4612 0.950 . S
H4638 C4614 0.950 . S
H4639 C4615 0.949 . S
H4640 C4617 0.950 . S
H4641 C4619 0.950 . S
C4642 C4643 1.349 . S
C4642 C4644 1.327 . S
C4642 H4667 0.950 . S
C4643 C4642 1.349 . S
C4643 C4659 1.349 . S
C4644 C4642 1.327 . S
C4644 C4663 1.429 . S
C4644 H4668 0.950 . S
C4645 C4662 1.574 . S
C4645 C4664 1.368 . S
C4645 H4669 0.949 . S
H4646 C4650 0.949 . S
C4647 C4648 1.349 . S
C4647 C4649 1.327 . S
C4647 H4670 0.950 . S
C4648 C4647 1.349 . S
C4648 C4660 1.349 . S
C4649 C4647 1.327 . S
C4649 C4665 1.429 . S
C4649 H4671 0.950 . S
C4650 H4646 0.949 . S
C4650 C4658 1.574 . S
C4650 C4666 1.368 . S
H4651 C4659 0.950 . S
H4652 C4657 0.950 . S
H4653 C4658 0.949 . S
H4654 C4660 0.950 . S
H4655 C4661 0.950 . S
H4656 C4662 0.949 . S
C4657 H4652 0.950 . S
C4657 C4659 1.327 . S
C4657 C4663 1.429 . S
C4658 C4650 1.574 . S
C4658 H4653 0.949 . S
C4658 C4664 1.368 . S
C4659 C4643 1.349 . S
C4659 H4651 0.950 . S
C4659 C4657 1.327 . S
C4660 C4648 1.349 . S
C4660 H4654 0.950 . S
C4660 C4661 1.327 . S
C4661 H4655 0.950 . S
C4661 C4660 1.327 . S
C4661 C4665 1.429 . S
C4662 C4645 1.574 . S
C4662 H4656 0.949 . S
C4662 C4666 1.368 . S
C4663 C4644 1.429 . S
C4663 C4657 1.429 . S
C4663 C4664 1.523 . S
C4664 C4645 1.368 . S
C4664 C4658 1.368 . S
C4664 C4663 1.523 . S
C4665 C4649 1.429 . S
C4665 C4661 1.429 . S
C4665 C4666 1.523 . S
C4666 C4650 1.368 . S
C4666 C4662 1.368 . S
C4666 C4665 1.523 . S
H4667 C4642 0.950 . S
H4668 C4644 0.950 . S
H4669 C4645 0.949 . S
H4670 C4647 0.950 . S
H4671 C4649 0.950 . S
C4672 C4673 1.349 . S
C4672 C4674 1.327 . S
C4672 H4697 0.950 . S
C4673 C4672 1.349 . S
C4673 C4689 1.349 . S
C4674 C4672 1.327 . S
C4674 C4693 1.429 . S
C4674 H4698 0.950 . S
C4675 C4692 1.574 . S
C4675 C4694 1.368 . S
C4675 H4699 0.949 . S
H4676 C4680 0.949 . S
C4677 C4678 1.349 . S
C4677 C4679 1.327 . S
C4677 H4700 0.950 . S
C4678 C4677 1.349 . S
C4678 C4690 1.349 . S
C4679 C4677 1.327 . S
C4679 C4695 1.429 . S
C4679 H4701 0.950 . S
C4680 H4676 0.949 . S
C4680 C4688 1.574 . S
C4680 C4696 1.368 . S
H4681 C4689 0.950 . S
H4682 C4687 0.950 . S
H4683 C4688 0.949 . S
H4684 C4690 0.950 . S
H4685 C4691 0.950 . S
H4686 C4692 0.949 . S
C4687 H4682 0.950 . S
C4687 C4689 1.327 . S
C4687 C4693 1.429 . S
C4688 C4680 1.574 . S
C4688 H4683 0.949 . S
C4688 C4694 1.368 . S
C4689 C4673 1.349 . S
C4689 H4681 0.950 . S
C4689 C4687 1.327 . S
C4690 C4678 1.349 . S
C4690 H4684 0.950 . S
C4690 C4691 1.327 . S
C4691 H4685 0.950 . S
C4691 C4690 1.327 . S
C4691 C4695 1.429 . S
C4692 C4675 1.574 . S
C4692 H4686 0.949 . S
C4692 C4696 1.368 . S
C4693 C4674 1.429 . S
C4693 C4687 1.429 . S
C4693 C4694 1.523 . S
C4694 C4675 1.368 . S
C4694 C4688 1.368 . S
C4694 C4693 1.523 . S
C4695 C4679 1.429 . S
C4695 C4691 1.429 . S
C4695 C4696 1.523 . S
C4696 C4680 1.368 . S
C4696 C4692 1.368 . S
C4696 C4695 1.523 . S
H4697 C4672 0.950 . S
H4698 C4674 0.950 . S
H4699 C4675 0.949 . S
H4700 C4677 0.950 . S
H4701 C4679 0.950 . S
C4702 C4703 1.349 . S
C4702 C4704 1.327 . S
C4702 H4727 0.950 . S
C4703 C4702 1.349 . S
C4703 C4719 1.349 . S
C4704 C4702 1.327 . S
C4704 C4723 1.429 . S
C4704 H4728 0.950 . S
C4705 C4722 1.574 . S
C4705 C4724 1.368 . S
C4705 H4729 0.949 . S
H4706 C4710 0.949 . S
C4707 C4708 1.349 . S
C4707 C4709 1.327 . S
C4707 H4730 0.950 . S
C4708 C4707 1.349 . S
C4708 C4720 1.349 . S
C4709 C4707 1.327 . S
C4709 C4725 1.429 . S
C4709 H4731 0.950 . S
C4710 H4706 0.949 . S
C4710 C4718 1.574 . S
C4710 C4726 1.368 . S
H4711 C4719 0.950 . S
H4712 C4717 0.950 . S
H4713 C4718 0.949 . S
H4714 C4720 0.950 . S
H4715 C4721 0.950 . S
H4716 C4722 0.949 . S
C4717 H4712 0.950 . S
C4717 C4719 1.327 . S
C4717 C4723 1.429 . S
C4718 C4710 1.574 . S
C4718 H4713 0.949 . S
C4718 C4724 1.368 . S
C4719 C4703 1.349 . S
C4719 H4711 0.950 . S
C4719 C4717 1.327 . S
C4720 C4708 1.349 . S
C4720 H4714 0.950 . S
C4720 C4721 1.327 . S
C4721 H4715 0.950 . S
C4721 C4720 1.327 . S
C4721 C4725 1.429 . S
C4722 C4705 1.574 . S
C4722 H4716 0.949 . S
C4722 C4726 1.368 . S
C4723 C4704 1.429 . S
C4723 C4717 1.429 . S
C4723 C4724 1.523 . S
C4724 C4705 1.368 . S
C4724 C4718 1.368 . S
C4724 C4723 1.523 . S
C4725 C4709 1.429 . S
C4725 C4721 1.429 . S
C4725 C4726 1.523 . S
C4726 C4710 1.368 . S
C4726 C4722 1.368 . S
C4726 C4725 1.523 . S
H4727 C4702 0.950 . S
H4728 C4704 0.950 . S
H4729 C4705 0.949 . S
H4730 C4707 0.950 . S
H4731 C4709 0.950 . S
C4732 C4733 1.349 . S
C4732 C4734 1.327 . S
C4732 H4757 0.950 . S
C4733 C4732 1.349 . S
C4733 C4749 1.349 . S
C4734 C4732 1.327 . S
C4734 C4753 1.429 . S
C4734 H4758 0.950 . S
C4735 C4752 1.574 . S
C4735 C4754 1.368 . S
C4735 H4759 0.949 . S
H4736 C4740 0.949 . S
C4737 C4738 1.349 . S
C4737 C4739 1.327 . S
C4737 H4760 0.950 . S
C4738 C4737 1.349 . S
C4738 C4750 1.349 . S
C4739 C4737 1.327 . S
C4739 C4755 1.429 . S
C4739 H4761 0.950 . S
C4740 H4736 0.949 . S
C4740 C4748 1.574 . S
C4740 C4756 1.368 . S
H4741 C4749 0.950 . S
H4742 C4747 0.950 . S
H4743 C4748 0.949 . S
H4744 C4750 0.950 . S
H4745 C4751 0.950 . S
H4746 C4752 0.949 . S
C4747 H4742 0.950 . S
C4747 C4749 1.327 . S
C4747 C4753 1.429 . S
C4748 C4740 1.574 . S
C4748 H4743 0.949 . S
C4748 C4754 1.368 . S
C4749 C4733 1.349 . S
C4749 H4741 0.950 . S
C4749 C4747 1.327 . S
C4750 C4738 1.349 . S
C4750 H4744 0.950 . S
C4750 C4751 1.327 . S
C4751 H4745 0.950 . S
C4751 C4750 1.327 . S
C4751 C4755 1.429 . S
C4752 C4735 1.574 . S
C4752 H4746 0.949 . S
C4752 C4756 1.368 . S
C4753 C4734 1.429 . S
C4753 C4747 1.429 . S
C4753 C4754 1.523 . S
C4754 C4735 1.368 . S
C4754 C4748 1.368 . S
C4754 C4753 1.523 . S
C4755 C4739 1.429 . S
C4755 C4751 1.429 . S
C4755 C4756 1.523 . S
C4756 C4740 1.368 . S
C4756 C4752 1.368 . S
C4756 C4755 1.523 . S
H4757 C4732 0.950 . S
H4758 C4734 0.950 . S
H4759 C4735 0.949 . S
H4760 C4737 0.950 . S
H4761 C4739 0.950 . S
C4762 C4763 1.349 . S
C4762 C4764 1.327 . S
C4762 H4787 0.950 . S
C4763 C4762 1.349 . S
C4763 C4779 1.349 . S
C4764 C4762 1.327 . S
C4764 C4783 1.429 . S
C4764 H4788 0.950 . S
C4765 C4782 1.574 . S
C4765 C4784 1.368 . S
C4765 H4789 0.949 . S
H4766 C4770 0.949 . S
C4767 C4768 1.349 . S
C4767 C4769 1.327 . S
C4767 H4790 0.950 . S
C4768 C4767 1.349 . S
C4768 C4780 1.349 1_545 S
C4769 C4767 1.327 . S
C4769 C4785 1.429 1_545 S
C4769 H4791 0.950 . S
C4770 H4766 0.949 . S
C4770 C4778 1.574 . S
C4770 C4786 1.368 . S
H4771 C4779 0.950 . S
H4772 C4777 0.950 . S
H4773 C4778 0.949 . S
H4774 C4780 0.950 . S
H4775 C4781 0.950 . S
H4776 C4782 0.949 1_545 S
C4777 H4772 0.950 . S
C4777 C4779 1.327 . S
C4777 C4783 1.429 . S
C4778 C4770 1.574 . S
C4778 H4773 0.949 . S
C4778 C4784 1.368 . S
C4779 C4763 1.349 . S
C4779 H4771 0.950 . S
C4779 C4777 1.327 . S
C4780 C4768 1.349 1_565 S
C4780 H4774 0.950 . S
C4780 C4781 1.327 . S
C4781 H4775 0.950 . S
C4781 C4780 1.327 . S
C4781 C4785 1.429 . S
C4782 C4765 1.574 . S
C4782 H4776 0.949 1_565 S
C4782 C4786 1.368 . S
C4783 C4764 1.429 . S
C4783 C4777 1.429 . S
C4783 C4784 1.523 . S
C4784 C4765 1.368 . S
C4784 C4778 1.368 . S
C4784 C4783 1.523 . S
C4785 C4769 1.429 1_565 S
C4785 C4781 1.429 . S
C4785 C4786 1.523 . S
C4786 C4770 1.368 . S
C4786 C4782 1.368 . S
C4786 C4785 1.523 . S
H4787 C4762 0.950 . S
H4788 C4764 0.950 . S
H4789 C4765 0.949 . S
H4790 C4767 0.950 . S
H4791 C4769 0.950 . S
C4792 C4793 1.349 . S
C4792 C4794 1.327 . S
C4792 H4817 0.950 . S
C4793 C4792 1.349 . S
C4793 C4809 1.349 . S
C4794 C4792 1.327 . S
C4794 C4813 1.429 . S
C4794 H4818 0.950 . S
C4795 C4812 1.574 . S
C4795 C4814 1.368 . S
C4795 H4819 0.949 . S
H4796 C4800 0.949 . S
C4797 C4798 1.349 . S
C4797 C4799 1.327 . S
C4797 H4820 0.950 . S
C4798 C4797 1.349 . S
C4798 C4810 1.349 . S
C4799 C4797 1.327 . S
C4799 C4815 1.429 . S
C4799 H4821 0.950 . S
C4800 H4796 0.949 . S
C4800 C4808 1.574 . S
C4800 C4816 1.368 . S
H4801 C4809 0.950 . S
H4802 C4807 0.950 . S
H4803 C4808 0.949 . S
H4804 C4810 0.950 . S
H4805 C4811 0.950 . S
H4806 C4812 0.949 . S
C4807 H4802 0.950 . S
C4807 C4809 1.327 . S
C4807 C4813 1.429 . S
C4808 C4800 1.574 . S
C4808 H4803 0.949 . S
C4808 C4814 1.368 . S
C4809 C4793 1.349 . S
C4809 H4801 0.950 . S
C4809 C4807 1.327 . S
C4810 C4798 1.349 . S
C4810 H4804 0.950 . S
C4810 C4811 1.327 . S
C4811 H4805 0.950 . S
C4811 C4810 1.327 . S
C4811 C4815 1.429 . S
C4812 C4795 1.574 . S
C4812 H4806 0.949 . S
C4812 C4816 1.368 . S
C4813 C4794 1.429 . S
C4813 C4807 1.429 . S
C4813 C4814 1.523 . S
C4814 C4795 1.368 . S
C4814 C4808 1.368 . S
C4814 C4813 1.523 . S
C4815 C4799 1.429 . S
C4815 C4811 1.429 . S
C4815 C4816 1.523 . S
C4816 C4800 1.368 . S
C4816 C4812 1.368 . S
C4816 C4815 1.523 . S
H4817 C4792 0.950 . S
H4818 C4794 0.950 . S
H4819 C4795 0.949 . S
H4820 C4797 0.950 . S
H4821 C4799 0.950 . S
C4822 C4823 1.371 . S
C4822 C4824 1.327 . S
C4822 H4847 0.950 . S
C4823 C4822 1.371 . S
C4823 C4839 1.345 1_554 S
C4824 C4822 1.327 . S
C4824 C4843 1.429 . S
C4824 H4848 0.950 . S
C4825 C4842 1.574 . S
C4825 C4844 1.368 . S
C4825 H4849 0.949 . S
H4826 C4830 0.949 . S
C4827 C4828 1.349 . S
C4827 C4829 1.327 . S
C4827 H4850 0.950 . S
C4828 C4827 1.349 . S
C4828 C4840 1.349 . S
C4829 C4827 1.327 . S
C4829 C4845 1.429 . S
C4829 H4851 0.950 . S
C4830 H4826 0.949 . S
C4830 C4838 1.574 . S
C4830 C4846 1.368 . S
H4831 C4839 0.950 . S
H4832 C4837 0.950 . S
H4833 C4838 0.949 . S
H4834 C4840 0.950 . S
H4835 C4841 0.950 . S
H4836 C4842 0.949 . S
C4837 H4832 0.950 . S
C4837 C4839 1.327 1_554 S
C4837 C4843 1.429 . S
C4838 C4830 1.574 . S
C4838 H4833 0.949 . S
C4838 C4844 1.368 . S
C4839 C4823 1.345 1_556 S
C4839 H4831 0.950 . S
C4839 C4837 1.327 1_556 S
C4840 C4828 1.349 . S
C4840 H4834 0.950 . S
C4840 C4841 1.327 . S
C4841 H4835 0.950 . S
C4841 C4840 1.327 . S
C4841 C4845 1.429 . S
C4842 C4825 1.574 . S
C4842 H4836 0.949 . S
C4842 C4846 1.368 . S
C4843 C4824 1.429 . S
C4843 C4837 1.429 . S
C4843 C4844 1.523 . S
C4844 C4825 1.368 . S
C4844 C4838 1.368 . S
C4844 C4843 1.523 . S
C4845 C4829 1.429 . S
C4845 C4841 1.429 . S
C4845 C4846 1.523 . S
C4846 C4830 1.368 . S
C4846 C4842 1.368 . S
C4846 C4845 1.523 . S
H4847 C4822 0.950 . S
H4848 C4824 0.950 . S
H4849 C4825 0.949 . S
H4850 C4827 0.950 . S
H4851 C4829 0.950 . S
C4852 C4853 1.349 . S
C4852 C4854 1.327 . S
C4852 H4877 0.950 . S
C4853 C4852 1.349 . S
C4853 C4869 1.349 . S
C4854 C4852 1.327 . S
C4854 C4873 1.429 . S
C4854 H4878 0.950 . S
C4855 C4872 1.574 . S
C4855 C4874 1.368 . S
C4855 H4879 0.949 . S
H4856 C4860 0.949 . S
C4857 C4858 1.349 . S
C4857 C4859 1.327 . S
C4857 H4880 0.950 . S
C4858 C4857 1.349 . S
C4858 C4870 1.349 . S
C4859 C4857 1.327 . S
C4859 C4875 1.429 . S
C4859 H4881 0.950 . S
C4860 H4856 0.949 . S
C4860 C4868 1.574 . S
C4860 C4876 1.368 . S
H4861 C4869 0.950 . S
H4862 C4867 0.950 . S
H4863 C4868 0.949 . S
H4864 C4870 0.950 . S
H4865 C4871 0.950 . S
H4866 C4872 0.949 . S
C4867 H4862 0.950 . S
C4867 C4869 1.327 . S
C4867 C4873 1.429 . S
C4868 C4860 1.574 . S
C4868 H4863 0.949 . S
C4868 C4874 1.368 . S
C4869 C4853 1.349 . S
C4869 H4861 0.950 . S
C4869 C4867 1.327 . S
C4870 C4858 1.349 . S
C4870 H4864 0.950 . S
C4870 C4871 1.327 . S
C4871 H4865 0.950 . S
C4871 C4870 1.327 . S
C4871 C4875 1.429 . S
C4872 C4855 1.574 . S
C4872 H4866 0.949 . S
C4872 C4876 1.368 . S
C4873 C4854 1.429 . S
C4873 C4867 1.429 . S
C4873 C4874 1.523 . S
C4874 C4855 1.368 . S
C4874 C4868 1.368 . S
C4874 C4873 1.523 . S
C4875 C4859 1.429 . S
C4875 C4871 1.429 . S
C4875 C4876 1.523 . S
C4876 C4860 1.368 . S
C4876 C4872 1.368 . S
C4876 C4875 1.523 . S
H4877 C4852 0.950 . S
H4878 C4854 0.950 . S
H4879 C4855 0.949 . S
H4880 C4857 0.950 . S
H4881 C4859 0.950 . S
C4882 C4883 1.349 . S
C4882 C4884 1.327 1_545 S
C4882 H4907 0.950 . S
C4883 C4882 1.349 . S
C4883 C4899 1.349 . S
C4884 C4882 1.327 1_565 S
C4884 C4903 1.429 . S
C4884 H4908 0.950 . S
C4885 C4902 1.574 . S
C4885 C4904 1.368 . S
C4885 H4909 0.949 . S
H4886 C4890 0.949 . S
C4887 C4888 1.349 . S
C4887 C4889 1.327 . S
C4887 H4910 0.950 . S
C4888 C4887 1.349 . S
C4888 C4900 1.349 . S
C4889 C4887 1.327 . S
C4889 C4905 1.429 . S
C4889 H4911 0.950 . S
C4890 H4886 0.949 . S
C4890 C4898 1.574 . S
C4890 C4906 1.368 . S
H4891 C4899 0.950 . S
H4892 C4897 0.950 . S
H4893 C4898 0.949 . S
H4894 C4900 0.950 . S
H4895 C4901 0.950 . S
H4896 C4902 0.949 . S
C4897 H4892 0.950 . S
C4897 C4899 1.327 1_565 S
C4897 C4903 1.429 . S
C4898 C4890 1.574 . S
C4898 H4893 0.949 . S
C4898 C4904 1.368 . S
C4899 C4883 1.349 . S
C4899 H4891 0.950 . S
C4899 C4897 1.327 1_545 S
C4900 C4888 1.349 . S
C4900 H4894 0.950 . S
C4900 C4901 1.327 . S
C4901 H4895 0.950 . S
C4901 C4900 1.327 . S
C4901 C4905 1.429 . S
C4902 C4885 1.574 . S
C4902 H4896 0.949 . S
C4902 C4906 1.368 . S
C4903 C4884 1.429 . S
C4903 C4897 1.429 . S
C4903 C4904 1.523 . S
C4904 C4885 1.368 . S
C4904 C4898 1.368 . S
C4904 C4903 1.523 . S
C4905 C4889 1.429 . S
C4905 C4901 1.429 . S
C4905 C4906 1.523 . S
C4906 C4890 1.368 . S
C4906 C4902 1.368 . S
C4906 C4905 1.523 . S
H4907 C4882 0.950 . S
H4908 C4884 0.950 . S
H4909 C4885 0.949 . S
H4910 C4887 0.950 . S
H4911 C4889 0.950 . S
C4912 C4913 1.349 . S
C4912 C4914 1.327 . S
C4912 H4937 0.950 . S
C4913 C4912 1.349 . S
C4913 C4929 1.349 . S
C4914 C4912 1.327 . S
C4914 C4933 1.429 . S
C4914 H4938 0.950 . S
C4915 C4932 1.574 . S
C4915 C4934 1.368 . S
C4915 H4939 0.949 . S
H4916 C4920 0.949 . S
C4917 C4918 1.349 . S
C4917 C4919 1.327 . S
C4917 H4940 0.950 . S
C4918 C4917 1.349 . S
C4918 C4930 1.349 . S
C4919 C4917 1.327 . S
C4919 C4935 1.429 . S
C4919 H4941 0.950 . S
C4920 H4916 0.949 . S
C4920 C4928 1.574 . S
C4920 C4936 1.368 . S
H4921 C4929 0.950 . S
H4922 C4927 0.950 . S
H4923 C4928 0.949 . S
H4924 C4930 0.950 . S
H4925 C4931 0.950 . S
H4926 C4932 0.949 . S
C4927 H4922 0.950 . S
C4927 C4929 1.327 . S
C4927 C4933 1.429 . S
C4928 C4920 1.574 . S
C4928 H4923 0.949 . S
C4928 C4934 1.368 . S
C4929 C4913 1.349 . S
C4929 H4921 0.950 . S
C4929 C4927 1.327 . S
C4930 C4918 1.349 . S
C4930 H4924 0.950 . S
C4930 C4931 1.327 . S
C4931 H4925 0.950 . S
C4931 C4930 1.327 . S
C4931 C4935 1.429 . S
C4932 C4915 1.574 . S
C4932 H4926 0.949 . S
C4932 C4936 1.368 . S
C4933 C4914 1.429 . S
C4933 C4927 1.429 . S
C4933 C4934 1.523 . S
C4934 C4915 1.368 . S
C4934 C4928 1.368 . S
C4934 C4933 1.523 . S
C4935 C4919 1.429 . S
C4935 C4931 1.429 . S
C4935 C4936 1.523 . S
C4936 C4920 1.368 . S
C4936 C4932 1.368 . S
C4936 C4935 1.523 . S
H4937 C4912 0.950 . S
H4938 C4914 0.950 . S
H4939 C4915 0.949 . S
H4940 C4917 0.950 . S
H4941 C4919 0.950 . S
C4942 C4943 1.349 . S
C4942 C4944 1.327 . S
C4942 H4967 0.950 . S
C4943 C4942 1.349 . S
C4943 C4959 1.349 . S
C4944 C4942 1.327 . S
C4944 C4963 1.429 . S
C4944 H4968 0.950 . S
C4945 C4962 1.574 . S
C4945 C4964 1.368 . S
C4945 H4969 0.949 . S
H4946 C4950 0.949 . S
C4947 C4948 1.349 . S
C4947 C4949 1.327 . S
C4947 H4970 0.950 . S
C4948 C4947 1.349 . S
C4948 C4960 1.349 . S
C4949 C4947 1.327 . S
C4949 C4965 1.429 . S
C4949 H4971 0.950 . S
C4950 H4946 0.949 . S
C4950 C4958 1.574 . S
C4950 C4966 1.368 . S
H4951 C4959 0.950 . S
H4952 C4957 0.950 . S
H4953 C4958 0.949 . S
H4954 C4960 0.950 . S
H4955 C4961 0.950 . S
H4956 C4962 0.949 . S
C4957 H4952 0.950 . S
C4957 C4959 1.327 . S
C4957 C4963 1.429 . S
C4958 C4950 1.574 . S
C4958 H4953 0.949 . S
C4958 C4964 1.368 . S
C4959 C4943 1.349 . S
C4959 H4951 0.950 . S
C4959 C4957 1.327 . S
C4960 C4948 1.349 . S
C4960 H4954 0.950 . S
C4960 C4961 1.327 . S
C4961 H4955 0.950 . S
C4961 C4960 1.327 . S
C4961 C4965 1.429 . S
C4962 C4945 1.574 . S
C4962 H4956 0.949 . S
C4962 C4966 1.368 . S
C4963 C4944 1.429 . S
C4963 C4957 1.429 . S
C4963 C4964 1.523 . S
C4964 C4945 1.368 . S
C4964 C4958 1.368 . S
C4964 C4963 1.523 . S
C4965 C4949 1.429 . S
C4965 C4961 1.429 . S
C4965 C4966 1.523 . S
C4966 C4950 1.368 . S
C4966 C4962 1.368 . S
C4966 C4965 1.523 . S
H4967 C4942 0.950 . S
H4968 C4944 0.950 . S
H4969 C4945 0.949 . S
H4970 C4947 0.950 . S
H4971 C4949 0.950 . S
C4972 C4973 1.343 . S
C4972 C4974 1.327 . S
C4972 H4997 0.950 . S
C4973 C4972 1.343 . S
C4973 C4989 1.352 1_455 S
C4974 C4972 1.327 . S
C4974 C4993 1.429 . S
C4974 H4998 0.950 . S
C4975 C4992 1.574 . S
C4975 C4994 1.368 1_655 S
C4975 H4999 0.949 . S
H4976 C4980 0.949 . S
C4977 C4978 1.410 . S
C4977 C4979 1.287 1_455 S
C4977 H5000 0.916 1_455 S
C4978 C4977 1.410 . S
C4978 C4990 1.349 . S
C4979 C4977 1.287 1_655 S
C4979 C4995 1.401 1_655 S
C4979 H5001 1.001 . S
C4980 H4976 0.949 . S
C4980 C4988 1.574 . S
C4980 C4996 1.368 . S
H4981 C4989 0.950 . S
H4982 C4987 0.950 . S
H4983 C4988 0.949 . S
H4984 C4990 0.950 . S
H4985 C4991 0.950 . S
H4986 C4992 0.949 . S
C4987 H4982 0.950 . S
C4987 C4989 1.327 . S
C4987 C4993 1.429 1_655 S
C4988 C4980 1.574 . S
C4988 H4983 0.949 . S
C4988 C4994 1.368 . S
C4989 C4973 1.352 1_655 S
C4989 H4981 0.950 . S
C4989 C4987 1.327 . S
C4990 C4978 1.349 . S
C4990 H4984 0.950 . S
C4990 C4991 1.327 . S
C4991 H4985 0.950 . S
C4991 C4990 1.327 . S
C4991 C4995 1.429 . S
C4992 C4975 1.574 . S
C4992 H4986 0.949 . S
C4992 C4996 1.368 1_655 S
C4993 C4974 1.429 . S
C4993 C4987 1.429 1_455 S
C4993 C4994 1.523 . S
C4994 C4975 1.368 1_455 S
C4994 C4988 1.368 . S
C4994 C4993 1.523 . S
C4995 C4979 1.401 1_455 S
C4995 C4991 1.429 . S
C4995 C4996 1.523 . S
C4996 C4980 1.368 . S
C4996 C4992 1.368 1_455 S
C4996 C4995 1.523 . S
H4997 C4972 0.950 . S
H4998 C4974 0.950 . S
H4999 C4975 0.949 . S
H5000 C4977 0.916 1_655 S
H5001 C4979 1.001 . S
C5002 C5003 1.349 . S
C5002 C5004 1.327 . S
C5002 H5027 0.950 . S
C5003 C5002 1.349 . S
C5003 C5019 1.349 . S
C5004 C5002 1.327 . S
C5004 C5023 1.429 . S
C5004 H5028 0.950 . S
C5005 C5022 1.574 . S
C5005 C5024 1.368 . S
C5005 H5029 0.949 . S
H5006 C5010 0.949 . S
C5007 C5008 1.349 . S
C5007 C5009 1.327 . S
C5007 H5030 0.950 . S
C5008 C5007 1.349 . S
C5008 C5020 1.349 . S
C5009 C5007 1.327 . S
C5009 C5025 1.429 . S
C5009 H5031 0.950 . S
C5010 H5006 0.949 . S
C5010 C5018 1.574 . S
C5010 C5026 1.368 . S
H5011 C5019 0.950 . S
H5012 C5017 0.950 . S
H5013 C5018 0.949 . S
H5014 C5020 0.950 . S
H5015 C5021 0.950 . S
H5016 C5022 0.949 . S
C5017 H5012 0.950 . S
C5017 C5019 1.327 . S
C5017 C5023 1.429 . S
C5018 C5010 1.574 . S
C5018 H5013 0.949 . S
C5018 C5024 1.368 . S
C5019 C5003 1.349 . S
C5019 H5011 0.950 . S
C5019 C5017 1.327 . S
C5020 C5008 1.349 . S
C5020 H5014 0.950 . S
C5020 C5021 1.327 . S
C5021 H5015 0.950 . S
C5021 C5020 1.327 . S
C5021 C5025 1.429 . S
C5022 C5005 1.574 . S
C5022 H5016 0.949 . S
C5022 C5026 1.368 . S
C5023 C5004 1.429 . S
C5023 C5017 1.429 . S
C5023 C5024 1.523 . S
C5024 C5005 1.368 . S
C5024 C5018 1.368 . S
C5024 C5023 1.523 . S
C5025 C5009 1.429 . S
C5025 C5021 1.429 . S
C5025 C5026 1.523 . S
C5026 C5010 1.368 . S
C5026 C5022 1.368 . S
C5026 C5025 1.523 . S
H5027 C5002 0.950 . S
H5028 C5004 0.950 . S
H5029 C5005 0.949 . S
H5030 C5007 0.950 . S
H5031 C5009 0.950 . S
C5032 C5033 1.349 . S
C5032 C5034 1.327 . S
C5032 H5057 0.950 . S
C5033 C5032 1.349 . S
C5033 C5049 1.349 . S
C5034 C5032 1.327 . S
C5034 C5053 1.429 . S
C5034 H5058 0.950 . S
C5035 C5052 1.566 1_556 S
C5035 C5054 1.368 . S
C5035 H5059 0.949 1_556 S
H5036 C5040 0.949 . S
C5037 C5038 1.334 1_554 S
C5037 C5039 1.327 . S
C5037 H5060 0.950 . S
C5038 C5037 1.334 1_556 S
C5038 C5050 1.373 . S
C5039 C5037 1.327 . S
C5039 C5055 1.429 1_554 S
C5039 H5061 0.950 . S
C5040 H5036 0.949 . S
C5040 C5048 1.574 . S
C5040 C5056 1.368 . S
H5041 C5049 0.950 . S
H5042 C5047 0.950 . S
H5043 C5048 0.949 . S
H5044 C5050 0.950 . S
H5045 C5051 0.950 . S
H5046 C5052 0.970 . S
C5047 H5042 0.950 . S
C5047 C5049 1.327 . S
C5047 C5053 1.429 . S
C5048 C5040 1.574 . S
C5048 H5043 0.949 . S
C5048 C5054 1.368 . S
C5049 C5033 1.349 . S
C5049 H5041 0.950 . S
C5049 C5047 1.327 . S
C5050 C5038 1.373 . S
C5050 H5044 0.950 . S
C5050 C5051 1.327 . S
C5051 H5045 0.950 . S
C5051 C5050 1.327 . S
C5051 C5055 1.429 . S
C5052 C5035 1.566 1_554 S
C5052 H5046 0.970 . S
C5052 C5056 1.354 1_554 S
C5053 C5034 1.429 . S
C5053 C5047 1.429 . S
C5053 C5054 1.523 . S
C5054 C5035 1.368 . S
C5054 C5048 1.368 . S
C5054 C5053 1.523 . S
C5055 C5039 1.429 1_556 S
C5055 C5051 1.429 . S
C5055 C5056 1.523 . S
C5056 C5040 1.368 . S
C5056 C5052 1.354 1_556 S
C5056 C5055 1.523 . S
H5057 C5032 0.950 . S
H5058 C5034 0.950 . S
H5059 C5035 0.949 1_554 S
H5060 C5037 0.950 . S
H5061 C5039 0.950 . S
C5062 C5063 1.349 . S
C5062 C5064 1.327 . S
C5062 H5087 0.950 . S
C5063 C5062 1.349 . S
C5063 C5079 1.349 . S
C5064 C5062 1.327 . S
C5064 C5083 1.429 . S
C5064 H5088 0.950 . S
C5065 C5082 1.574 . S
C5065 C5084 1.368 . S
C5065 H5089 0.949 . S
H5066 C5070 0.949 . S
C5067 C5068 1.349 . S
C5067 C5069 1.327 . S
C5067 H5090 0.950 . S
C5068 C5067 1.349 . S
C5068 C5080 1.349 . S
C5069 C5067 1.327 . S
C5069 C5085 1.429 . S
C5069 H5091 0.950 . S
C5070 H5066 0.949 . S
C5070 C5078 1.574 . S
C5070 C5086 1.368 . S
H5071 C5079 0.950 . S
H5072 C5077 0.950 . S
H5073 C5078 0.949 . S
H5074 C5080 0.950 . S
H5075 C5081 0.950 . S
H5076 C5082 0.949 . S
C5077 H5072 0.950 . S
C5077 C5079 1.327 . S
C5077 C5083 1.429 . S
C5078 C5070 1.574 . S
C5078 H5073 0.949 . S
C5078 C5084 1.368 . S
C5079 C5063 1.349 . S
C5079 H5071 0.950 . S
C5079 C5077 1.327 . S
C5080 C5068 1.349 . S
C5080 H5074 0.950 . S
C5080 C5081 1.327 . S
C5081 H5075 0.950 . S
C5081 C5080 1.327 . S
C5081 C5085 1.429 . S
C5082 C5065 1.574 . S
C5082 H5076 0.949 . S
C5082 C5086 1.368 . S
C5083 C5064 1.429 . S
C5083 C5077 1.429 . S
C5083 C5084 1.523 . S
C5084 C5065 1.368 . S
C5084 C5078 1.368 . S
C5084 C5083 1.523 . S
C5085 C5069 1.429 . S
C5085 C5081 1.429 . S
C5085 C5086 1.523 . S
C5086 C5070 1.368 . S
C5086 C5082 1.368 . S
C5086 C5085 1.523 . S
H5087 C5062 0.950 . S
H5088 C5064 0.950 . S
H5089 C5065 0.949 . S
H5090 C5067 0.950 . S
H5091 C5069 0.950 . S
C5092 C5093 1.349 . S
C5092 C5094 1.327 . S
C5092 H5117 0.950 . S
C5093 C5092 1.349 . S
C5093 C5109 1.349 . S
C5094 C5092 1.327 . S
C5094 C5113 1.429 . S
C5094 H5118 0.950 . S
C5095 C5112 1.574 . S
C5095 C5114 1.368 . S
C5095 H5119 0.949 . S
H5096 C5100 0.949 . S
C5097 C5098 1.349 . S
C5097 C5099 1.327 . S
C5097 H5120 0.950 . S
C5098 C5097 1.349 . S
C5098 C5110 1.349 . S
C5099 C5097 1.327 . S
C5099 C5115 1.429 . S
C5099 H5121 0.950 . S
C5100 H5096 0.949 . S
C5100 C5108 1.574 . S
C5100 C5116 1.368 . S
H5101 C5109 0.950 . S
H5102 C5107 0.950 . S
H5103 C5108 0.949 . S
H5104 C5110 0.950 . S
H5105 C5111 0.950 . S
H5106 C5112 0.949 . S
C5107 H5102 0.950 . S
C5107 C5109 1.327 . S
C5107 C5113 1.429 . S
C5108 C5100 1.574 . S
C5108 H5103 0.949 . S
C5108 C5114 1.368 . S
C5109 C5093 1.349 . S
C5109 H5101 0.950 . S
C5109 C5107 1.327 . S
C5110 C5098 1.349 . S
C5110 H5104 0.950 . S
C5110 C5111 1.327 . S
C5111 H5105 0.950 . S
C5111 C5110 1.327 . S
C5111 C5115 1.429 . S
C5112 C5095 1.574 . S
C5112 H5106 0.949 . S
C5112 C5116 1.368 . S
C5113 C5094 1.429 . S
C5113 C5107 1.429 . S
C5113 C5114 1.523 . S
C5114 C5095 1.368 . S
C5114 C5108 1.368 . S
C5114 C5113 1.523 . S
C5115 C5099 1.429 . S
C5115 C5111 1.429 . S
C5115 C5116 1.523 . S
C5116 C5100 1.368 . S
C5116 C5112 1.368 . S
C5116 C5115 1.523 . S
H5117 C5092 0.950 . S
H5118 C5094 0.950 . S
H5119 C5095 0.949 . S
H5120 C5097 0.950 . S
H5121 C5099 0.950 . S
C5122 C5123 1.349 . S
C5122 C5124 1.327 . S
C5122 H5147 0.950 . S
C5123 C5122 1.349 . S
C5123 C5139 1.349 . S
C5124 C5122 1.327 . S
C5124 C5143 1.429 . S
C5124 H5148 0.950 . S
C5125 C5142 1.574 . S
C5125 C5144 1.368 . S
C5125 H5149 0.949 . S
H5126 C5130 0.949 . S
C5127 C5128 1.349 . S
C5127 C5129 1.327 . S
C5127 H5150 0.950 . S
C5128 C5127 1.349 . S
C5128 C5140 1.349 . S
C5129 C5127 1.327 . S
C5129 C5145 1.429 . S
C5129 H5151 0.950 . S
C5130 H5126 0.949 . S
C5130 C5138 1.574 . S
C5130 C5146 1.368 . S
H5131 C5139 0.950 . S
H5132 C5137 0.950 . S
H5133 C5138 0.949 . S
H5134 C5140 0.950 . S
H5135 C5141 0.950 . S
H5136 C5142 0.949 . S
C5137 H5132 0.950 . S
C5137 C5139 1.327 . S
C5137 C5143 1.429 . S
C5138 C5130 1.574 . S
C5138 H5133 0.949 . S
C5138 C5144 1.368 . S
C5139 C5123 1.349 . S
C5139 H5131 0.950 . S
C5139 C5137 1.327 . S
C5140 C5128 1.349 . S
C5140 H5134 0.950 . S
C5140 C5141 1.327 . S
C5141 H5135 0.950 . S
C5141 C5140 1.327 . S
C5141 C5145 1.429 . S
C5142 C5125 1.574 . S
C5142 H5136 0.949 . S
C5142 C5146 1.368 . S
C5143 C5124 1.429 . S
C5143 C5137 1.429 . S
C5143 C5144 1.523 . S
C5144 C5125 1.368 . S
C5144 C5138 1.368 . S
C5144 C5143 1.523 . S
C5145 C5129 1.429 . S
C5145 C5141 1.429 . S
C5145 C5146 1.523 . S
C5146 C5130 1.368 . S
C5146 C5142 1.368 . S
C5146 C5145 1.523 . S
H5147 C5122 0.950 . S
H5148 C5124 0.950 . S
H5149 C5125 0.949 . S
H5150 C5127 0.950 . S
H5151 C5129 0.950 . S
C5152 C5153 1.349 . S
C5152 C5154 1.327 . S
C5152 H5177 0.950 . S
C5153 C5152 1.349 . S
C5153 C5169 1.349 . S
C5154 C5152 1.327 . S
C5154 C5173 1.429 . S
C5154 H5178 0.950 . S
C5155 C5172 1.574 . S
C5155 C5174 1.368 . S
C5155 H5179 0.949 . S
H5156 C5160 0.949 . S
C5157 C5158 1.349 . S
C5157 C5159 1.327 . S
C5157 H5180 0.950 . S
C5158 C5157 1.349 . S
C5158 C5170 1.349 . S
C5159 C5157 1.327 . S
C5159 C5175 1.429 . S
C5159 H5181 0.950 . S
C5160 H5156 0.949 . S
C5160 C5168 1.574 . S
C5160 C5176 1.368 . S
H5161 C5169 0.950 . S
H5162 C5167 0.950 . S
H5163 C5168 0.949 . S
H5164 C5170 0.950 . S
H5165 C5171 0.950 . S
H5166 C5172 0.949 . S
C5167 H5162 0.950 . S
C5167 C5169 1.327 . S
C5167 C5173 1.429 . S
C5168 C5160 1.574 . S
C5168 H5163 0.949 . S
C5168 C5174 1.368 . S
C5169 C5153 1.349 . S
C5169 H5161 0.950 . S
C5169 C5167 1.327 . S
C5170 C5158 1.349 . S
C5170 H5164 0.950 . S
C5170 C5171 1.327 . S
C5171 H5165 0.950 . S
C5171 C5170 1.327 . S
C5171 C5175 1.429 . S
C5172 C5155 1.574 . S
C5172 H5166 0.949 . S
C5172 C5176 1.368 . S
C5173 C5154 1.429 . S
C5173 C5167 1.429 . S
C5173 C5174 1.523 . S
C5174 C5155 1.368 . S
C5174 C5168 1.368 . S
C5174 C5173 1.523 . S
C5175 C5159 1.429 . S
C5175 C5171 1.429 . S
C5175 C5176 1.523 . S
C5176 C5160 1.368 . S
C5176 C5172 1.368 . S
C5176 C5175 1.523 . S
H5177 C5152 0.950 . S
H5178 C5154 0.950 . S
H5179 C5155 0.949 . S
H5180 C5157 0.950 . S
H5181 C5159 0.950 . S
C5182 C5183 1.349 . S
C5182 C5184 1.327 . S
C5182 H5207 0.950 . S
C5183 C5182 1.349 . S
C5183 C5199 1.349 . S
C5184 C5182 1.327 . S
C5184 C5203 1.429 . S
C5184 H5208 0.950 . S
C5185 C5202 1.574 . S
C5185 C5204 1.368 . S
C5185 H5209 0.949 . S
H5186 C5190 0.949 . S
C5187 C5188 1.349 . S
C5187 C5189 1.327 . S
C5187 H5210 0.950 . S
C5188 C5187 1.349 . S
C5188 C5200 1.349 . S
C5189 C5187 1.327 . S
C5189 C5205 1.429 . S
C5189 H5211 0.950 . S
C5190 H5186 0.949 . S
C5190 C5198 1.574 . S
C5190 C5206 1.368 . S
H5191 C5199 0.950 . S
H5192 C5197 0.950 . S
H5193 C5198 0.949 . S
H5194 C5200 0.950 . S
H5195 C5201 0.950 . S
H5196 C5202 0.949 . S
C5197 H5192 0.950 . S
C5197 C5199 1.327 . S
C5197 C5203 1.429 . S
C5198 C5190 1.574 . S
C5198 H5193 0.949 . S
C5198 C5204 1.368 . S
C5199 C5183 1.349 . S
C5199 H5191 0.950 . S
C5199 C5197 1.327 . S
C5200 C5188 1.349 . S
C5200 H5194 0.950 . S
C5200 C5201 1.327 . S
C5201 H5195 0.950 . S
C5201 C5200 1.327 . S
C5201 C5205 1.429 . S
C5202 C5185 1.574 . S
C5202 H5196 0.949 . S
C5202 C5206 1.368 . S
C5203 C5184 1.429 . S
C5203 C5197 1.429 . S
C5203 C5204 1.523 . S
C5204 C5185 1.368 . S
C5204 C5198 1.368 . S
C5204 C5203 1.523 . S
C5205 C5189 1.429 . S
C5205 C5201 1.429 . S
C5205 C5206 1.523 . S
C5206 C5190 1.368 . S
C5206 C5202 1.368 . S
C5206 C5205 1.523 . S
H5207 C5182 0.950 . S
H5208 C5184 0.950 . S
H5209 C5185 0.949 . S
H5210 C5187 0.950 . S
H5211 C5189 0.950 . S
C5212 C5213 1.349 . S
C5212 C5214 1.327 . S
C5212 H5237 0.950 . S
C5213 C5212 1.349 . S
C5213 C5229 1.349 . S
C5214 C5212 1.327 . S
C5214 C5233 1.429 . S
C5214 H5238 0.950 . S
C5215 C5232 1.574 . S
C5215 C5234 1.368 . S
C5215 H5239 0.949 . S
H5216 C5220 0.949 . S
C5217 C5218 1.349 . S
C5217 C5219 1.327 . S
C5217 H5240 0.950 . S
C5218 C5217 1.349 . S
C5218 C5230 1.349 1_455 S
C5219 C5217 1.327 . S
C5219 C5235 1.429 1_455 S
C5219 H5241 0.950 . S
C5220 H5216 0.949 . S
C5220 C5228 1.574 . S
C5220 C5236 1.368 . S
H5221 C5229 0.950 . S
H5222 C5227 0.950 . S
H5223 C5228 0.949 . S
H5224 C5230 0.950 . S
H5225 C5231 0.950 . S
H5226 C5232 0.949 1_455 S
C5227 H5222 0.950 . S
C5227 C5229 1.327 . S
C5227 C5233 1.429 . S
C5228 C5220 1.574 . S
C5228 H5223 0.949 . S
C5228 C5234 1.368 . S
C5229 C5213 1.349 . S
C5229 H5221 0.950 . S
C5229 C5227 1.327 . S
C5230 C5218 1.349 1_655 S
C5230 H5224 0.950 . S
C5230 C5231 1.327 . S
C5231 H5225 0.950 . S
C5231 C5230 1.327 . S
C5231 C5235 1.429 . S
C5232 C5215 1.574 . S
C5232 H5226 0.949 1_655 S
C5232 C5236 1.368 . S
C5233 C5214 1.429 . S
C5233 C5227 1.429 . S
C5233 C5234 1.523 . S
C5234 C5215 1.368 . S
C5234 C5228 1.368 . S
C5234 C5233 1.523 . S
C5235 C5219 1.429 1_655 S
C5235 C5231 1.429 . S
C5235 C5236 1.523 . S
C5236 C5220 1.368 . S
C5236 C5232 1.368 . S
C5236 C5235 1.523 . S
H5237 C5212 0.950 . S
H5238 C5214 0.950 . S
H5239 C5215 0.949 . S
H5240 C5217 0.950 . S
H5241 C5219 0.950 . S
C5242 C5243 1.349 . S
C5242 C5244 1.327 . S
C5242 H5267 0.950 . S
C5243 C5242 1.349 . S
C5243 C5259 1.349 . S
C5244 C5242 1.327 . S
C5244 C5263 1.429 . S
C5244 H5268 0.950 . S
C5245 C5262 1.574 . S
C5245 C5264 1.368 . S
C5245 H5269 0.949 . S
H5246 C5250 0.949 . S
C5247 C5248 1.349 . S
C5247 C5249 1.327 . S
C5247 H5270 0.950 . S
C5248 C5247 1.349 . S
C5248 C5260 1.349 . S
C5249 C5247 1.327 . S
C5249 C5265 1.429 . S
C5249 H5271 0.950 . S
C5250 H5246 0.949 . S
C5250 C5258 1.574 . S
C5250 C5266 1.368 . S
H5251 C5259 0.950 . S
H5252 C5257 0.950 . S
H5253 C5258 0.949 . S
H5254 C5260 0.950 . S
H5255 C5261 0.950 . S
H5256 C5262 0.949 . S
C5257 H5252 0.950 . S
C5257 C5259 1.327 . S
C5257 C5263 1.429 . S
C5258 C5250 1.574 . S
C5258 H5253 0.949 . S
C5258 C5264 1.368 . S
C5259 C5243 1.349 . S
C5259 H5251 0.950 . S
C5259 C5257 1.327 . S
C5260 C5248 1.349 . S
C5260 H5254 0.950 . S
C5260 C5261 1.327 . S
C5261 H5255 0.950 . S
C5261 C5260 1.327 . S
C5261 C5265 1.429 . S
C5262 C5245 1.574 . S
C5262 H5256 0.949 . S
C5262 C5266 1.368 . S
C5263 C5244 1.429 . S
C5263 C5257 1.429 . S
C5263 C5264 1.523 . S
C5264 C5245 1.368 . S
C5264 C5258 1.368 . S
C5264 C5263 1.523 . S
C5265 C5249 1.429 . S
C5265 C5261 1.429 . S
C5265 C5266 1.523 . S
C5266 C5250 1.368 . S
C5266 C5262 1.368 . S
C5266 C5265 1.523 . S
H5267 C5242 0.950 . S
H5268 C5244 0.950 . S
H5269 C5245 0.949 . S
H5270 C5247 0.950 . S
H5271 C5249 0.950 . S
C5272 C5273 1.349 . S
C5272 C5274 1.327 . S
C5272 H5297 0.950 . S
C5273 C5272 1.349 . S
C5273 C5289 1.349 . S
C5274 C5272 1.327 . S
C5274 C5293 1.429 . S
C5274 H5298 0.950 . S
C5275 C5292 1.574 . S
C5275 C5294 1.368 . S
C5275 H5299 0.949 . S
H5276 C5280 0.949 . S
C5277 C5278 1.349 . S
C5277 C5279 1.327 . S
C5277 H5300 0.950 . S
C5278 C5277 1.349 . S
C5278 C5290 1.349 . S
C5279 C5277 1.327 . S
C5279 C5295 1.429 . S
C5279 H5301 0.950 . S
C5280 H5276 0.949 . S
C5280 C5288 1.574 . S
C5280 C5296 1.368 . S
H5281 C5289 0.950 . S
H5282 C5287 0.950 . S
H5283 C5288 0.949 . S
H5284 C5290 0.950 . S
H5285 C5291 0.950 . S
H5286 C5292 0.949 . S
C5287 H5282 0.950 . S
C5287 C5289 1.327 . S
C5287 C5293 1.429 . S
C5288 C5280 1.574 . S
C5288 H5283 0.949 . S
C5288 C5294 1.368 . S
C5289 C5273 1.349 . S
C5289 H5281 0.950 . S
C5289 C5287 1.327 . S
C5290 C5278 1.349 . S
C5290 H5284 0.950 . S
C5290 C5291 1.327 . S
C5291 H5285 0.950 . S
C5291 C5290 1.327 . S
C5291 C5295 1.429 . S
C5292 C5275 1.574 . S
C5292 H5286 0.949 . S
C5292 C5296 1.368 . S
C5293 C5274 1.429 . S
C5293 C5287 1.429 . S
C5293 C5294 1.523 . S
C5294 C5275 1.368 . S
C5294 C5288 1.368 . S
C5294 C5293 1.523 . S
C5295 C5279 1.429 . S
C5295 C5291 1.429 . S
C5295 C5296 1.523 . S
C5296 C5280 1.368 . S
C5296 C5292 1.368 . S
C5296 C5295 1.523 . S
H5297 C5272 0.950 . S
H5298 C5274 0.950 . S
H5299 C5275 0.949 . S
H5300 C5277 0.950 . S
H5301 C5279 0.950 . S
C5302 C5303 1.349 . S
C5302 C5304 1.327 . S
C5302 H5327 0.950 . S
C5303 C5302 1.349 . S
C5303 C5319 1.349 . S
C5304 C5302 1.327 . S
C5304 C5323 1.429 . S
C5304 H5328 0.950 . S
C5305 C5322 1.574 . S
C5305 C5324 1.368 . S
C5305 H5329 0.949 . S
H5306 C5310 0.949 . S
C5307 C5308 1.349 . S
C5307 C5309 1.327 . S
C5307 H5330 0.950 . S
C5308 C5307 1.349 . S
C5308 C5320 1.349 . S
C5309 C5307 1.327 . S
C5309 C5325 1.429 . S
C5309 H5331 0.950 . S
C5310 H5306 0.949 . S
C5310 C5318 1.574 . S
C5310 C5326 1.368 . S
H5311 C5319 0.950 . S
H5312 C5317 0.950 . S
H5313 C5318 0.949 . S
H5314 C5320 0.950 . S
H5315 C5321 0.950 . S
H5316 C5322 0.949 . S
C5317 H5312 0.950 . S
C5317 C5319 1.327 . S
C5317 C5323 1.429 . S
C5318 C5310 1.574 . S
C5318 H5313 0.949 . S
C5318 C5324 1.368 . S
C5319 C5303 1.349 . S
C5319 H5311 0.950 . S
C5319 C5317 1.327 . S
C5320 C5308 1.349 . S
C5320 H5314 0.950 . S
C5320 C5321 1.327 . S
C5321 H5315 0.950 . S
C5321 C5320 1.327 . S
C5321 C5325 1.429 . S
C5322 C5305 1.574 . S
C5322 H5316 0.949 . S
C5322 C5326 1.368 . S
C5323 C5304 1.429 . S
C5323 C5317 1.429 . S
C5323 C5324 1.523 . S
C5324 C5305 1.368 . S
C5324 C5318 1.368 . S
C5324 C5323 1.523 . S
C5325 C5309 1.429 . S
C5325 C5321 1.429 . S
C5325 C5326 1.523 . S
C5326 C5310 1.368 . S
C5326 C5322 1.368 . S
C5326 C5325 1.523 . S
H5327 C5302 0.950 . S
H5328 C5304 0.950 . S
H5329 C5305 0.949 . S
H5330 C5307 0.950 . S
H5331 C5309 0.950 . S
C5332 C5333 1.349 . S
C5332 C5334 1.327 . S
C5332 H5357 0.950 . S
C5333 C5332 1.349 . S
C5333 C5349 1.349 . S
C5334 C5332 1.327 . S
C5334 C5353 1.429 . S
C5334 H5358 0.950 . S
C5335 C5352 1.574 . S
C5335 C5354 1.368 . S
C5335 H5359 0.949 . S
H5336 C5340 0.949 1_455 S
C5337 C5338 1.349 . S
C5337 C5339 1.327 . S
C5337 H5360 0.950 . S
C5338 C5337 1.349 . S
C5338 C5350 1.349 1_655 S
C5339 C5337 1.327 . S
C5339 C5355 1.429 . S
C5339 H5361 0.950 . S
C5340 H5336 0.949 1_655 S
C5340 C5348 1.574 . S
C5340 C5356 1.368 . S
H5341 C5349 0.950 . S
H5342 C5347 0.950 . S
H5343 C5348 0.949 . S
H5344 C5350 0.950 . S
H5345 C5351 0.950 . S
H5346 C5352 0.949 . S
C5347 H5342 0.950 . S
C5347 C5349 1.327 . S
C5347 C5353 1.429 . S
C5348 C5340 1.574 . S
C5348 H5343 0.949 . S
C5348 C5354 1.368 . S
C5349 C5333 1.349 . S
C5349 H5341 0.950 . S
C5349 C5347 1.327 . S
C5350 C5338 1.349 1_455 S
C5350 H5344 0.950 . S
C5350 C5351 1.327 . S
C5351 H5345 0.950 . S
C5351 C5350 1.327 . S
C5351 C5355 1.429 1_455 S
C5352 C5335 1.574 . S
C5352 H5346 0.949 . S
C5352 C5356 1.368 . S
C5353 C5334 1.429 . S
C5353 C5347 1.429 . S
C5353 C5354 1.523 . S
C5354 C5335 1.368 . S
C5354 C5348 1.368 . S
C5354 C5353 1.523 . S
C5355 C5339 1.429 . S
C5355 C5351 1.429 1_655 S
C5355 C5356 1.523 . S
C5356 C5340 1.368 . S
C5356 C5352 1.368 . S
C5356 C5355 1.523 . S
H5357 C5332 0.950 . S
H5358 C5334 0.950 . S
H5359 C5335 0.949 . S
H5360 C5337 0.950 . S
H5361 C5339 0.950 . S
C5362 C5363 1.349 . S
C5362 C5364 1.327 . S
C5362 H5387 0.950 . S
C5363 C5362 1.349 . S
C5363 C5379 1.349 . S
C5364 C5362 1.327 . S
C5364 C5383 1.429 . S
C5364 H5388 0.950 . S
C5365 C5382 1.574 . S
C5365 C5384 1.368 . S
C5365 H5389 0.949 . S
H5366 C5370 0.949 . S
C5367 C5368 1.349 . S
C5367 C5369 1.327 . S
C5367 H5390 0.950 . S
C5368 C5367 1.349 . S
C5368 C5380 1.349 . S
C5369 C5367 1.327 . S
C5369 C5385 1.429 . S
C5369 H5391 0.950 . S
C5370 H5366 0.949 . S
C5370 C5378 1.574 . S
C5370 C5386 1.368 . S
H5371 C5379 0.950 . S
H5372 C5377 0.950 . S
H5373 C5378 0.949 . S
H5374 C5380 0.950 . S
H5375 C5381 0.950 . S
H5376 C5382 0.949 . S
C5377 H5372 0.950 . S
C5377 C5379 1.327 . S
C5377 C5383 1.429 . S
C5378 C5370 1.574 . S
C5378 H5373 0.949 . S
C5378 C5384 1.368 . S
C5379 C5363 1.349 . S
C5379 H5371 0.950 . S
C5379 C5377 1.327 . S
C5380 C5368 1.349 . S
C5380 H5374 0.950 . S
C5380 C5381 1.327 . S
C5381 H5375 0.950 . S
C5381 C5380 1.327 . S
C5381 C5385 1.429 . S
C5382 C5365 1.574 . S
C5382 H5376 0.949 . S
C5382 C5386 1.368 . S
C5383 C5364 1.429 . S
C5383 C5377 1.429 . S
C5383 C5384 1.523 . S
C5384 C5365 1.368 . S
C5384 C5378 1.368 . S
C5384 C5383 1.523 . S
C5385 C5369 1.429 . S
C5385 C5381 1.429 . S
C5385 C5386 1.523 . S
C5386 C5370 1.368 . S
C5386 C5382 1.368 . S
C5386 C5385 1.523 . S
H5387 C5362 0.950 . S
H5388 C5364 0.950 . S
H5389 C5365 0.949 . S
H5390 C5367 0.950 . S
H5391 C5369 0.950 . S
C5392 C5393 1.349 . S
C5392 C5394 1.327 . S
C5392 H5417 0.950 . S
C5393 C5392 1.349 . S
C5393 C5409 1.349 . S
C5394 C5392 1.327 . S
C5394 C5413 1.429 . S
C5394 H5418 0.950 . S
C5395 C5412 1.574 . S
C5395 C5414 1.368 . S
C5395 H5419 0.949 . S
H5396 C5400 0.949 . S
C5397 C5398 1.349 . S
C5397 C5399 1.327 . S
C5397 H5420 0.950 . S
C5398 C5397 1.349 . S
C5398 C5410 1.349 . S
C5399 C5397 1.327 . S
C5399 C5415 1.429 . S
C5399 H5421 0.950 . S
C5400 H5396 0.949 . S
C5400 C5408 1.574 . S
C5400 C5416 1.368 . S
H5401 C5409 0.950 . S
H5402 C5407 0.950 . S
H5403 C5408 0.949 . S
H5404 C5410 0.950 . S
H5405 C5411 0.950 . S
H5406 C5412 0.949 . S
C5407 H5402 0.950 . S
C5407 C5409 1.327 . S
C5407 C5413 1.429 . S
C5408 C5400 1.574 . S
C5408 H5403 0.949 . S
C5408 C5414 1.368 . S
C5409 C5393 1.349 . S
C5409 H5401 0.950 . S
C5409 C5407 1.327 . S
C5410 C5398 1.349 . S
C5410 H5404 0.950 . S
C5410 C5411 1.327 . S
C5411 H5405 0.950 . S
C5411 C5410 1.327 . S
C5411 C5415 1.429 . S
C5412 C5395 1.574 . S
C5412 H5406 0.949 . S
C5412 C5416 1.368 . S
C5413 C5394 1.429 . S
C5413 C5407 1.429 . S
C5413 C5414 1.523 . S
C5414 C5395 1.368 . S
C5414 C5408 1.368 . S
C5414 C5413 1.523 . S
C5415 C5399 1.429 . S
C5415 C5411 1.429 . S
C5415 C5416 1.523 . S
C5416 C5400 1.368 . S
C5416 C5412 1.368 . S
C5416 C5415 1.523 . S
H5417 C5392 0.950 . S
H5418 C5394 0.950 . S
H5419 C5395 0.949 . S
H5420 C5397 0.950 . S
H5421 C5399 0.950 . S
C5422 C5423 1.369 . S
C5422 C5424 1.320 1_565 S
C5422 H5447 0.940 1_565 S
C5423 C5422 1.369 . S
C5423 C5439 1.349 . S
C5424 C5422 1.320 1_545 S
C5424 C5443 1.427 . S
C5424 H5448 0.950 . S
C5425 C5442 1.573 . S
C5425 C5444 1.367 . S
C5425 H5449 0.952 1_545 S
H5426 C5430 0.949 . S
C5427 C5428 1.349 . S
C5427 C5429 1.327 . S
C5427 H5450 0.950 . S
C5428 C5427 1.349 . S
C5428 C5440 1.349 . S
C5429 C5427 1.327 . S
C5429 C5445 1.429 . S
C5429 H5451 0.950 . S
C5430 H5426 0.949 . S
C5430 C5438 1.574 . S
C5430 C5446 1.368 . S
H5431 C5439 0.950 . S
H5432 C5437 0.950 . S
H5433 C5438 0.949 . S
H5434 C5440 0.950 . S
H5435 C5441 0.950 . S
H5436 C5442 0.949 . S
C5437 H5432 0.950 . S
C5437 C5439 1.327 . S
C5437 C5443 1.431 1_565 S
C5438 C5430 1.574 . S
C5438 H5433 0.949 . S
C5438 C5444 1.368 . S
C5439 C5423 1.349 . S
C5439 H5431 0.950 . S
C5439 C5437 1.327 . S
C5440 C5428 1.349 . S
C5440 H5434 0.950 . S
C5440 C5441 1.327 . S
C5441 H5435 0.950 . S
C5441 C5440 1.327 . S
C5441 C5445 1.429 . S
C5442 C5425 1.573 . S
C5442 H5436 0.949 . S
C5442 C5446 1.368 . S
C5443 C5424 1.427 . S
C5443 C5437 1.431 1_545 S
C5443 C5444 1.522 . S
C5444 C5425 1.367 . S
C5444 C5438 1.368 . S
C5444 C5443 1.522 . S
C5445 C5429 1.429 . S
C5445 C5441 1.429 . S
C5445 C5446 1.523 . S
C5446 C5430 1.368 . S
C5446 C5442 1.368 . S
C5446 C5445 1.523 . S
H5447 C5422 0.940 1_545 S
H5448 C5424 0.950 . S
H5449 C5425 0.952 1_565 S
H5450 C5427 0.950 . S
H5451 C5429 0.950 . S
C5452 C5453 1.349 . S
C5452 C5454 1.327 . S
C5452 H5477 0.950 . S
C5453 C5452 1.349 . S
C5453 C5469 1.349 . S
C5454 C5452 1.327 . S
C5454 C5473 1.429 . S
C5454 H5478 0.950 . S
C5455 C5472 1.574 . S
C5455 C5474 1.368 . S
C5455 H5479 0.949 . S
H5456 C5460 0.949 . S
C5457 C5458 1.349 . S
C5457 C5459 1.327 . S
C5457 H5480 0.950 . S
C5458 C5457 1.349 . S
C5458 C5470 1.349 . S
C5459 C5457 1.327 . S
C5459 C5475 1.429 . S
C5459 H5481 0.950 . S
C5460 H5456 0.949 . S
C5460 C5468 1.574 . S
C5460 C5476 1.368 . S
H5461 C5469 0.950 . S
H5462 C5467 0.950 . S
H5463 C5468 0.949 . S
H5464 C5470 0.950 . S
H5465 C5471 0.950 . S
H5466 C5472 0.949 . S
C5467 H5462 0.950 . S
C5467 C5469 1.327 . S
C5467 C5473 1.429 . S
C5468 C5460 1.574 . S
C5468 H5463 0.949 . S
C5468 C5474 1.368 . S
C5469 C5453 1.349 . S
C5469 H5461 0.950 . S
C5469 C5467 1.327 . S
C5470 C5458 1.349 . S
C5470 H5464 0.950 . S
C5470 C5471 1.327 . S
C5471 H5465 0.950 . S
C5471 C5470 1.327 . S
C5471 C5475 1.429 . S
C5472 C5455 1.574 . S
C5472 H5466 0.949 . S
C5472 C5476 1.368 . S
C5473 C5454 1.429 . S
C5473 C5467 1.429 . S
C5473 C5474 1.523 . S
C5474 C5455 1.368 . S
C5474 C5468 1.368 . S
C5474 C5473 1.523 . S
C5475 C5459 1.429 . S
C5475 C5471 1.429 . S
C5475 C5476 1.523 . S
C5476 C5460 1.368 . S
C5476 C5472 1.368 . S
C5476 C5475 1.523 . S
H5477 C5452 0.950 . S
H5478 C5454 0.950 . S
H5479 C5455 0.949 . S
H5480 C5457 0.950 . S
H5481 C5459 0.950 . S
C5482 C5483 1.349 . S
C5482 C5484 1.327 . S
C5482 H5507 0.950 . S
C5483 C5482 1.349 . S
C5483 C5499 1.349 . S
C5484 C5482 1.327 . S
C5484 C5503 1.429 . S
C5484 H5508 0.950 . S
C5485 C5502 1.574 . S
C5485 C5504 1.368 . S
C5485 H5509 0.949 . S
H5486 C5490 0.949 . S
C5487 C5488 1.349 . S
C5487 C5489 1.327 . S
C5487 H5510 0.950 . S
C5488 C5487 1.349 . S
C5488 C5500 1.349 . S
C5489 C5487 1.327 . S
C5489 C5505 1.429 . S
C5489 H5511 0.950 . S
C5490 H5486 0.949 . S
C5490 C5498 1.574 . S
C5490 C5506 1.368 . S
H5491 C5499 0.950 . S
H5492 C5497 0.950 . S
H5493 C5498 0.949 . S
H5494 C5500 0.950 . S
H5495 C5501 0.950 . S
H5496 C5502 0.949 . S
C5497 H5492 0.950 . S
C5497 C5499 1.327 . S
C5497 C5503 1.429 . S
C5498 C5490 1.574 . S
C5498 H5493 0.949 . S
C5498 C5504 1.368 . S
C5499 C5483 1.349 . S
C5499 H5491 0.950 . S
C5499 C5497 1.327 . S
C5500 C5488 1.349 . S
C5500 H5494 0.950 . S
C5500 C5501 1.327 . S
C5501 H5495 0.950 . S
C5501 C5500 1.327 . S
C5501 C5505 1.429 . S
C5502 C5485 1.574 . S
C5502 H5496 0.949 . S
C5502 C5506 1.368 . S
C5503 C5484 1.429 . S
C5503 C5497 1.429 . S
C5503 C5504 1.523 . S
C5504 C5485 1.368 . S
C5504 C5498 1.368 . S
C5504 C5503 1.523 . S
C5505 C5489 1.429 . S
C5505 C5501 1.429 . S
C5505 C5506 1.523 . S
C5506 C5490 1.368 . S
C5506 C5502 1.368 . S
C5506 C5505 1.523 . S
H5507 C5482 0.950 . S
H5508 C5484 0.950 . S
H5509 C5485 0.949 . S
H5510 C5487 0.950 . S
H5511 C5489 0.950 . S
C5512 C5513 1.349 . S
C5512 C5514 1.327 . S
C5512 H5537 0.950 . S
C5513 C5512 1.349 . S
C5513 C5529 1.349 . S
C5514 C5512 1.327 . S
C5514 C5533 1.429 . S
C5514 H5538 0.950 . S
C5515 C5532 1.574 . S
C5515 C5534 1.368 . S
C5515 H5539 0.949 . S
H5516 C5520 0.949 . S
C5517 C5518 1.349 . S
C5517 C5519 1.327 . S
C5517 H5540 0.950 . S
C5518 C5517 1.349 . S
C5518 C5530 1.349 . S
C5519 C5517 1.327 . S
C5519 C5535 1.429 . S
C5519 H5541 0.950 . S
C5520 H5516 0.949 . S
C5520 C5528 1.574 . S
C5520 C5536 1.368 . S
H5521 C5529 0.950 . S
H5522 C5527 0.950 . S
H5523 C5528 0.949 . S
H5524 C5530 0.950 . S
H5525 C5531 0.950 . S
H5526 C5532 0.949 . S
C5527 H5522 0.950 . S
C5527 C5529 1.327 . S
C5527 C5533 1.429 . S
C5528 C5520 1.574 . S
C5528 H5523 0.949 . S
C5528 C5534 1.368 . S
C5529 C5513 1.349 . S
C5529 H5521 0.950 . S
C5529 C5527 1.327 . S
C5530 C5518 1.349 . S
C5530 H5524 0.950 . S
C5530 C5531 1.327 . S
C5531 H5525 0.950 . S
C5531 C5530 1.327 . S
C5531 C5535 1.429 . S
C5532 C5515 1.574 . S
C5532 H5526 0.949 . S
C5532 C5536 1.368 . S
C5533 C5514 1.429 . S
C5533 C5527 1.429 . S
C5533 C5534 1.523 . S
C5534 C5515 1.368 . S
C5534 C5528 1.368 . S
C5534 C5533 1.523 . S
C5535 C5519 1.429 . S
C5535 C5531 1.429 . S
C5535 C5536 1.523 . S
C5536 C5520 1.368 . S
C5536 C5532 1.368 . S
C5536 C5535 1.523 . S
H5537 C5512 0.950 . S
H5538 C5514 0.950 . S
H5539 C5515 0.949 . S
H5540 C5517 0.950 . S
H5541 C5519 0.950 . S
C5542 C5543 1.349 . S
C5542 C5544 1.327 . S
C5542 H5567 0.950 . S
C5543 C5542 1.349 . S
C5543 C5559 1.349 . S
C5544 C5542 1.327 . S
C5544 C5563 1.429 . S
C5544 H5568 0.950 . S
C5545 C5562 1.574 . S
C5545 C5564 1.368 . S
C5545 H5569 0.949 . S
H5546 C5550 0.949 . S
C5547 C5548 1.349 . S
C5547 C5549 1.327 . S
C5547 H5570 0.950 . S
C5548 C5547 1.349 . S
C5548 C5560 1.321 1_554 S
C5549 C5547 1.327 . S
C5549 C5565 1.429 . S
C5549 H5571 0.950 . S
C5550 H5546 0.949 . S
C5550 C5558 1.574 . S
C5550 C5566 1.368 . S
H5551 C5559 0.950 . S
H5552 C5557 0.950 . S
H5553 C5558 0.949 . S
H5554 C5560 0.997 . S
H5555 C5561 0.914 1_556 S
H5556 C5562 0.949 . S
C5557 H5552 0.950 . S
C5557 C5559 1.327 . S
C5557 C5563 1.429 . S
C5558 C5550 1.574 . S
C5558 H5553 0.949 . S
C5558 C5564 1.368 . S
C5559 C5543 1.349 . S
C5559 H5551 0.950 . S
C5559 C5557 1.327 . S
C5560 C5548 1.321 1_556 S
C5560 H5554 0.997 . S
C5560 C5561 1.311 1_556 S
C5561 H5555 0.914 1_554 S
C5561 C5560 1.311 1_554 S
C5561 C5565 1.429 . S
C5562 C5545 1.574 . S
C5562 H5556 0.949 . S
C5562 C5566 1.368 . S
C5563 C5544 1.429 . S
C5563 C5557 1.429 . S
C5563 C5564 1.523 . S
C5564 C5545 1.368 . S
C5564 C5558 1.368 . S
C5564 C5563 1.523 . S
C5565 C5549 1.429 . S
C5565 C5561 1.429 . S
C5565 C5566 1.523 . S
C5566 C5550 1.368 . S
C5566 C5562 1.368 . S
C5566 C5565 1.523 . S
H5567 C5542 0.950 . S
H5568 C5544 0.950 . S
H5569 C5545 0.949 . S
H5570 C5547 0.950 . S
H5571 C5549 0.950 . S
C5572 C5573 1.349 . S
C5572 C5574 1.327 . S
C5572 H5597 0.950 . S
C5573 C5572 1.349 . S
C5573 C5589 1.349 . S
C5574 C5572 1.327 . S
C5574 C5593 1.429 . S
C5574 H5598 0.950 . S
C5575 C5592 1.574 . S
C5575 C5594 1.368 . S
C5575 H5599 0.949 . S
H5576 C5580 0.949 . S
C5577 C5578 1.349 . S
C5577 C5579 1.327 . S
C5577 H5600 0.950 . S
C5578 C5577 1.349 . S
C5578 C5590 1.349 . S
C5579 C5577 1.327 . S
C5579 C5595 1.429 . S
C5579 H5601 0.950 . S
C5580 H5576 0.949 . S
C5580 C5588 1.574 . S
C5580 C5596 1.368 . S
H5581 C5589 0.950 . S
H5582 C5587 0.950 . S
H5583 C5588 0.949 . S
H5584 C5590 0.950 . S
H5585 C5591 0.950 . S
H5586 C5592 0.949 . S
C5587 H5582 0.950 . S
C5587 C5589 1.327 . S
C5587 C5593 1.429 . S
C5588 C5580 1.574 . S
C5588 H5583 0.949 . S
C5588 C5594 1.368 . S
C5589 C5573 1.349 . S
C5589 H5581 0.950 . S
C5589 C5587 1.327 . S
C5590 C5578 1.349 . S
C5590 H5584 0.950 . S
C5590 C5591 1.327 . S
C5591 H5585 0.950 . S
C5591 C5590 1.327 . S
C5591 C5595 1.429 . S
C5592 C5575 1.574 . S
C5592 H5586 0.949 . S
C5592 C5596 1.368 . S
C5593 C5574 1.429 . S
C5593 C5587 1.429 . S
C5593 C5594 1.523 . S
C5594 C5575 1.368 . S
C5594 C5588 1.368 . S
C5594 C5593 1.523 . S
C5595 C5579 1.429 . S
C5595 C5591 1.429 . S
C5595 C5596 1.523 . S
C5596 C5580 1.368 . S
C5596 C5592 1.368 . S
C5596 C5595 1.523 . S
H5597 C5572 0.950 . S
H5598 C5574 0.950 . S
H5599 C5575 0.949 . S
H5600 C5577 0.950 . S
H5601 C5579 0.950 . S
C5602 C5603 1.349 . S
C5602 C5604 1.327 . S
C5602 H5627 0.950 . S
C5603 C5602 1.349 . S
C5603 C5619 1.349 . S
C5604 C5602 1.327 . S
C5604 C5623 1.429 . S
C5604 H5628 0.950 . S
C5605 C5622 1.574 . S
C5605 C5624 1.368 . S
C5605 H5629 0.949 . S
H5606 C5610 0.949 . S
C5607 C5608 1.349 . S
C5607 C5609 1.327 . S
C5607 H5630 0.950 . S
C5608 C5607 1.349 . S
C5608 C5620 1.349 . S
C5609 C5607 1.327 . S
C5609 C5625 1.429 . S
C5609 H5631 0.950 . S
C5610 H5606 0.949 . S
C5610 C5618 1.574 . S
C5610 C5626 1.368 . S
H5611 C5619 0.950 . S
H5612 C5617 0.950 . S
H5613 C5618 0.949 . S
H5614 C5620 0.950 . S
H5615 C5621 0.950 . S
H5616 C5622 0.949 . S
C5617 H5612 0.950 . S
C5617 C5619 1.327 . S
C5617 C5623 1.429 . S
C5618 C5610 1.574 . S
C5618 H5613 0.949 . S
C5618 C5624 1.368 . S
C5619 C5603 1.349 . S
C5619 H5611 0.950 . S
C5619 C5617 1.327 . S
C5620 C5608 1.349 . S
C5620 H5614 0.950 . S
C5620 C5621 1.327 . S
C5621 H5615 0.950 . S
C5621 C5620 1.327 . S
C5621 C5625 1.429 . S
C5622 C5605 1.574 . S
C5622 H5616 0.949 . S
C5622 C5626 1.368 . S
C5623 C5604 1.429 . S
C5623 C5617 1.429 . S
C5623 C5624 1.523 . S
C5624 C5605 1.368 . S
C5624 C5618 1.368 . S
C5624 C5623 1.523 . S
C5625 C5609 1.429 . S
C5625 C5621 1.429 . S
C5625 C5626 1.523 . S
C5626 C5610 1.368 . S
C5626 C5622 1.368 . S
C5626 C5625 1.523 . S
H5627 C5602 0.950 . S
H5628 C5604 0.950 . S
H5629 C5605 0.949 . S
H5630 C5607 0.950 . S
H5631 C5609 0.950 . S
C2753 C665 0.939 . S
C2758 C2118 0.922 . S
C2783 C381 1.850 . S
C2788 C2170 1.765 . S
C2813 C460 1.103 . S
C2818 C2202 1.124 . S
C2848 C2251 2.613 . S
C2843 C585 2.602 . S
C2873 C108 0.856 . S
C2878 C2287 0.849 . S
C2908 C2318 0.570 . S
C2903 C196 0.492 . S
C2938 C2370 0.464 . S
C2933 C313 0.414 . S
C2963 C49 0.539 . S
C2968 C2398 0.575 . S
C2998 C2130 1.691 1_655 S
C2993 C1457 1.836 . S
C3023 C1545 1.385 . S
C3028 C2171 1.396 . S
C3058 C2201 2.128 . S
C3053 C1721 2.206 . S
C3088 C2238 0.432 . S
C3083 C1113 0.351 . S
C3113 C1428 1.792 . S
C3118 C2282 1.815 1_655 S
C3148 C2330 2.181 . S
C3143 C1516 2.193 . S
C3178 C2371 1.242 1_556 S
C3173 C1692 1.233 1_545 S
C3208 C2410 1.325 . S
C3203 C1085 1.445 . S
C3238 C2131 2.138 . S
C3233 C988 2.142 . S
C3263 C1817 1.820 . S
C3268 C2441 1.771 . S
C3298 C2491 2.349 . S
C3293 C2081 2.354 . S
C3328 C2518 0.844 . S
C3323 C1993 0.843 . S
C3353 C761 2.356 . S
C3358 C2411 2.349 . S
C3383 C821 0.768 . S
C3388 C2207 0.765 . S
C3413 C2053 2.515 . S
C3418 C2570 2.433 . S
C3448 C2598 0.655 . S
C3443 C1868 0.647 . S
C3478 C2127 0.920 . S
C3473 C372 0.937 . S
C3508 C2601 1.761 . S
C3503 C645 1.845 . S
C3533 C577 1.098 . S
C3538 C2211 1.104 . S
C3563 C497 2.595 . S
C3568 C2562 2.607 . S
C3598 C2278 0.845 . S
C3593 C57 0.852 . S
C3623 C293 0.498 . S
C3628 C2487 0.575 . S
C3658 C2361 0.462 . S
C3653 C205 0.415 . S
C3688 C2647 0.577 . S
C3683 C145 0.538 . S
C3718 C2121 1.715 1_556 S
C3713 C909 1.831 . S
C3748 C2602 1.390 . S
C3743 C1956 1.383 . S
C3773 C724 2.197 . S
C3778 C2210 2.124 . S
C3803 C1780 0.314 . S
C3808 C2567 0.441 . S
C3833 C937 1.790 . S
C3838 C2291 1.809 . S
C3868 C2481 2.179 . S
C3863 C1985 2.186 . S
C3893 C753 1.233 . S
C3898 C2362 1.236 . S
C3923 C1809 1.445 . S
C3928 C2641 1.332 . S
C3953 C1173 2.138 . S
C3958 C2122 2.134 . S
C3983 C1105 1.810 . S
C3988 C2450 1.767 . S
C4013 C1633 2.350 . S
C4018 C2322 2.343 . S
C4043 C1553 0.839 . S
C4048 C2527 0.838 . S
C4078 C2642 2.347 . S
C4073 C1729 2.354 . S
C4103 C1340 0.764 . S
C4108 C2198 0.761 . S
C4138 C2241 2.430 . S
C4133 C1604 2.509 . S
C4168 C2167 0.652 . S
C4163 C1252 0.642 . S
C4193 C489 0.939 . S
C4198 C2678 0.922 . S
C4228 C2610 1.765 . S
C4223 C557 1.849 . S
C4253 C636 1.102 . S
C4258 C2722 1.109 . S
C4283 C409 2.602 . S
C4288 C2571 2.613 . S
C4313 C284 0.856 . S
C4318 C2447 0.849 . S
C4348 C2478 0.570 . S
C4343 C20 0.493 . S
C4378 C2530 0.464 . S
C4373 C137 0.414 . S
C4408 C2638 0.575 . S
C4403 C225 0.539 . S
C4438 C2690 1.718 . S
C4433 C1641 1.836 . S
C4463 C1193 1.385 . S
C4468 C2611 1.396 . S
C4498 C2721 2.128 . S
C4493 C1289 2.206 . S
C4528 C2558 0.432 . S
C4523 C1377 0.316 . S
C4558 C2442 1.815 1_556 S
C4553 C1613 1.792 . S
C4583 C1164 2.193 . S
C4588 C2490 2.181 . S
C4618 C2531 1.242 . S
C4613 C1261 1.237 . S
C4643 C1349 1.445 . S
C4648 C2650 1.325 . S
C4678 C2691 2.138 . S
C4673 C1965 2.142 . S
C4703 C849 1.820 . S
C4708 C2281 1.774 . S
C4738 C2331 2.349 . S
C4733 C929 2.354 . S
C4768 C2358 0.844 . S
C4763 C1017 0.843 . S
C4798 C2651 2.349 . S
C4793 C1897 2.356 . S
C4823 C1789 0.768 . S
C4828 C2727 0.767 . S
C4858 C2250 2.433 . S
C4853 C900 2.515 . S
C4888 C2158 0.655 . S
C4883 C733 0.647 . S
C4913 C548 0.937 . S
C4918 C2687 0.920 . S
C4948 C2161 1.761 . S
C4943 C469 1.845 . S
C4973 C401 1.110 . S
C4978 C2731 1.103 . S
C5003 C673 2.595 . S
C5008 C2242 2.607 . S
C5033 C233 0.852 . S
C5038 C2438 0.833 1_556 S
C5068 C2327 0.575 . S
C5063 C117 0.498 . S
C5093 C29 0.415 . S
C5098 C2521 0.462 . S
C5123 C321 0.538 . S
C5128 C2407 0.577 . S
C5158 C2681 1.715 . S
C5153 C2044 1.832 . S
C5183 C997 1.383 . S
C5188 C2162 1.390 . S
C5218 C2730 2.124 1_556 S
C5213 C1877 2.197 . S
C5243 C812 0.313 . S
C5248 C2247 0.437 . S
C5273 C2073 1.789 . S
C5278 C2451 1.809 . S
C5308 C2321 2.179 . S
C5303 C1025 2.186 . S
C5333 C1905 1.233 . S
C5338 C2522 1.236 1_655 S
C5368 C2401 1.324 . S
C5363 C841 1.444 . S
C5398 C2682 2.134 . S
C5393 C1525 2.138 . S
C5428 C2290 1.768 . S
C5423 C1369 1.810 . S
C5453 C1465 2.350 . S
C5458 C2482 2.343 . S
C5488 C2367 0.838 . S
C5483 C1201 0.838 . S
C5513 C1281 2.353 . S
C5518 C2402 2.347 . S
C5543 C1076 0.764 . S
C5548 C2718 0.761 . S
C5578 C2561 2.429 . S
C5573 C1437 2.574 . S
C5608 C2607 0.652 . S
C5603 C1701 0.642 . S
