# Generated by pormake.
# Topology gar, (4,6)-cn, num edge types: 1
# Building blocks:
#     Node 0, Type 0, BuildingBlock: QUQFOY_clean_sbu_3, # of connection points: 4
#     Node 1, Type 0, BuildingBlock: QUQFOY_clean_sbu_3, # of connection points: 4
#     Node 2, Type 0, BuildingBlock: QUQFOY_clean_sbu_3, # of connection points: 4
#     Node 3, Type 0, BuildingBlock: QUQFOY_clean_sbu_3, # of connection points: 4
#     Node 4, Type 0, BuildingBlock: QUQFOY_clean_sbu_3, # of connection points: 4
#     Node 5, Type 0, BuildingBlock: QUQFOY_clean_sbu_3, # of connection points: 4
#     Node 6, Type 0, BuildingBlock: QUQFOY_clean_sbu_3, # of connection points: 4
#     Node 7, Type 0, BuildingBlock: QUQFOY_clean_sbu_3, # of connection points: 4
#     Node 8, Type 0, BuildingBlock: QUQFOY_clean_sbu_3, # of connection points: 4
#     Node 9, Type 0, BuildingBlock: QUQFOY_clean_sbu_3, # of connection points: 4
#     Node 10, Type 0, BuildingBlock: QUQFOY_clean_sbu_3, # of connection points: 4
#     Node 11, Type 0, BuildingBlock: QUQFOY_clean_sbu_3, # of connection points: 4
#     Node 12, Type 0, BuildingBlock: QUQFOY_clean_sbu_3, # of connection points: 4
#     Node 13, Type 0, BuildingBlock: QUQFOY_clean_sbu_3, # of connection points: 4
#     Node 14, Type 0, BuildingBlock: QUQFOY_clean_sbu_3, # of connection points: 4
#     Node 15, Type 0, BuildingBlock: QUQFOY_clean_sbu_3, # of connection points: 4
#     Node 16, Type 0, BuildingBlock: QUQFOY_clean_sbu_3, # of connection points: 4
#     Node 17, Type 0, BuildingBlock: QUQFOY_clean_sbu_3, # of connection points: 4
#     Node 18, Type 0, BuildingBlock: QUQFOY_clean_sbu_3, # of connection points: 4
#     Node 19, Type 0, BuildingBlock: QUQFOY_clean_sbu_3, # of connection points: 4
#     Node 20, Type 0, BuildingBlock: QUQFOY_clean_sbu_3, # of connection points: 4
#     Node 21, Type 0, BuildingBlock: QUQFOY_clean_sbu_3, # of connection points: 4
#     Node 22, Type 0, BuildingBlock: QUQFOY_clean_sbu_3, # of connection points: 4
#     Node 23, Type 0, BuildingBlock: QUQFOY_clean_sbu_3, # of connection points: 4
#     Node 24, Type 1, BuildingBlock: CUWYAW_clean_sbu_0, # of connection points: 6
#     Node 25, Type 1, BuildingBlock: CUWYAW_clean_sbu_0, # of connection points: 6
#     Node 26, Type 1, BuildingBlock: CUWYAW_clean_sbu_0, # of connection points: 6
#     Node 27, Type 1, BuildingBlock: CUWYAW_clean_sbu_0, # of connection points: 6
#     Node 28, Type 1, BuildingBlock: CUWYAW_clean_sbu_0, # of connection points: 6
#     Node 29, Type 1, BuildingBlock: CUWYAW_clean_sbu_0, # of connection points: 6
#     Node 30, Type 1, BuildingBlock: CUWYAW_clean_sbu_0, # of connection points: 6
#     Node 31, Type 1, BuildingBlock: CUWYAW_clean_sbu_0, # of connection points: 6
#     Node 32, Type 1, BuildingBlock: CUWYAW_clean_sbu_0, # of connection points: 6
#     Node 33, Type 1, BuildingBlock: CUWYAW_clean_sbu_0, # of connection points: 6
#     Node 34, Type 1, BuildingBlock: CUWYAW_clean_sbu_0, # of connection points: 6
#     Node 35, Type 1, BuildingBlock: CUWYAW_clean_sbu_0, # of connection points: 6
#     Node 36, Type 1, BuildingBlock: CUWYAW_clean_sbu_0, # of connection points: 6
#     Node 37, Type 1, BuildingBlock: CUWYAW_clean_sbu_0, # of connection points: 6
#     Node 38, Type 1, BuildingBlock: CUWYAW_clean_sbu_0, # of connection points: 6
#     Node 39, Type 1, BuildingBlock: CUWYAW_clean_sbu_0, # of connection points: 6
#     Edge 40, Type (0, 1), BuildingBlock: XUDNAN_clean_linker_2, # of connection points: 2
#     Edge 41, Type (0, 1), BuildingBlock: XUDNAN_clean_linker_2, # of connection points: 2
#     Edge 42, Type (0, 1), BuildingBlock: XUDNAN_clean_linker_2, # of connection points: 2
#     Edge 43, Type (0, 1), BuildingBlock: XUDNAN_clean_linker_2, # of connection points: 2
#     Edge 44, Type (0, 1), BuildingBlock: XUDNAN_clean_linker_2, # of connection points: 2
#     Edge 45, Type (0, 1), BuildingBlock: XUDNAN_clean_linker_2, # of connection points: 2
#     Edge 46, Type (0, 1), BuildingBlock: XUDNAN_clean_linker_2, # of connection points: 2
#     Edge 47, Type (0, 1), BuildingBlock: XUDNAN_clean_linker_2, # of connection points: 2
#     Edge 48, Type (0, 1), BuildingBlock: XUDNAN_clean_linker_2, # of connection points: 2
#     Edge 49, Type (0, 1), BuildingBlock: XUDNAN_clean_linker_2, # of connection points: 2
#     Edge 50, Type (0, 1), BuildingBlock: XUDNAN_clean_linker_2, # of connection points: 2
#     Edge 51, Type (0, 1), BuildingBlock: XUDNAN_clean_linker_2, # of connection points: 2
#     Edge 52, Type (0, 1), BuildingBlock: XUDNAN_clean_linker_2, # of connection points: 2
#     Edge 53, Type (0, 1), BuildingBlock: XUDNAN_clean_linker_2, # of connection points: 2
#     Edge 54, Type (0, 1), BuildingBlock: XUDNAN_clean_linker_2, # of connection points: 2
#     Edge 55, Type (0, 1), BuildingBlock: XUDNAN_clean_linker_2, # of connection points: 2
#     Edge 56, Type (0, 1), BuildingBlock: XUDNAN_clean_linker_2, # of connection points: 2
#     Edge 57, Type (0, 1), BuildingBlock: XUDNAN_clean_linker_2, # of connection points: 2
#     Edge 58, Type (0, 1), BuildingBlock: XUDNAN_clean_linker_2, # of connection points: 2
#     Edge 59, Type (0, 1), BuildingBlock: XUDNAN_clean_linker_2, # of connection points: 2
#     Edge 60, Type (0, 1), BuildingBlock: XUDNAN_clean_linker_2, # of connection points: 2
#     Edge 61, Type (0, 1), BuildingBlock: XUDNAN_clean_linker_2, # of connection points: 2
#     Edge 62, Type (0, 1), BuildingBlock: XUDNAN_clean_linker_2, # of connection points: 2
#     Edge 63, Type (0, 1), BuildingBlock: XUDNAN_clean_linker_2, # of connection points: 2
#     Edge 64, Type (0, 1), BuildingBlock: XUDNAN_clean_linker_2, # of connection points: 2
#     Edge 65, Type (0, 1), BuildingBlock: XUDNAN_clean_linker_2, # of connection points: 2
#     Edge 66, Type (0, 1), BuildingBlock: XUDNAN_clean_linker_2, # of connection points: 2
#     Edge 67, Type (0, 1), BuildingBlock: XUDNAN_clean_linker_2, # of connection points: 2
#     Edge 68, Type (0, 1), BuildingBlock: XUDNAN_clean_linker_2, # of connection points: 2
#     Edge 69, Type (0, 1), BuildingBlock: XUDNAN_clean_linker_2, # of connection points: 2
#     Edge 70, Type (0, 1), BuildingBlock: XUDNAN_clean_linker_2, # of connection points: 2
#     Edge 71, Type (0, 1), BuildingBlock: XUDNAN_clean_linker_2, # of connection points: 2
#     Edge 72, Type (0, 1), BuildingBlock: XUDNAN_clean_linker_2, # of connection points: 2
#     Edge 73, Type (0, 1), BuildingBlock: XUDNAN_clean_linker_2, # of connection points: 2
#     Edge 74, Type (0, 1), BuildingBlock: XUDNAN_clean_linker_2, # of connection points: 2
#     Edge 75, Type (0, 1), BuildingBlock: XUDNAN_clean_linker_2, # of connection points: 2
#     Edge 76, Type (0, 1), BuildingBlock: XUDNAN_clean_linker_2, # of connection points: 2
#     Edge 77, Type (0, 1), BuildingBlock: XUDNAN_clean_linker_2, # of connection points: 2
#     Edge 78, Type (0, 1), BuildingBlock: XUDNAN_clean_linker_2, # of connection points: 2
#     Edge 79, Type (0, 1), BuildingBlock: XUDNAN_clean_linker_2, # of connection points: 2
#     Edge 80, Type (0, 1), BuildingBlock: XUDNAN_clean_linker_2, # of connection points: 2
#     Edge 81, Type (0, 1), BuildingBlock: XUDNAN_clean_linker_2, # of connection points: 2
#     Edge 82, Type (0, 1), BuildingBlock: XUDNAN_clean_linker_2, # of connection points: 2
#     Edge 83, Type (0, 1), BuildingBlock: XUDNAN_clean_linker_2, # of connection points: 2
#     Edge 84, Type (0, 1), BuildingBlock: XUDNAN_clean_linker_2, # of connection points: 2
#     Edge 85, Type (0, 1), BuildingBlock: XUDNAN_clean_linker_2, # of connection points: 2
#     Edge 86, Type (0, 1), BuildingBlock: XUDNAN_clean_linker_2, # of connection points: 2
#     Edge 87, Type (0, 1), BuildingBlock: XUDNAN_clean_linker_2, # of connection points: 2
#     Edge 88, Type (0, 1), BuildingBlock: XUDNAN_clean_linker_2, # of connection points: 2
#     Edge 89, Type (0, 1), BuildingBlock: XUDNAN_clean_linker_2, # of connection points: 2
#     Edge 90, Type (0, 1), BuildingBlock: XUDNAN_clean_linker_2, # of connection points: 2
#     Edge 91, Type (0, 1), BuildingBlock: XUDNAN_clean_linker_2, # of connection points: 2
#     Edge 92, Type (0, 1), BuildingBlock: XUDNAN_clean_linker_2, # of connection points: 2
#     Edge 93, Type (0, 1), BuildingBlock: XUDNAN_clean_linker_2, # of connection points: 2
#     Edge 94, Type (0, 1), BuildingBlock: XUDNAN_clean_linker_2, # of connection points: 2
#     Edge 95, Type (0, 1), BuildingBlock: XUDNAN_clean_linker_2, # of connection points: 2
#     Edge 96, Type (0, 1), BuildingBlock: XUDNAN_clean_linker_2, # of connection points: 2
#     Edge 97, Type (0, 1), BuildingBlock: XUDNAN_clean_linker_2, # of connection points: 2
#     Edge 98, Type (0, 1), BuildingBlock: XUDNAN_clean_linker_2, # of connection points: 2
#     Edge 99, Type (0, 1), BuildingBlock: XUDNAN_clean_linker_2, # of connection points: 2
#     Edge 100, Type (0, 1), BuildingBlock: XUDNAN_clean_linker_2, # of connection points: 2
#     Edge 101, Type (0, 1), BuildingBlock: XUDNAN_clean_linker_2, # of connection points: 2
#     Edge 102, Type (0, 1), BuildingBlock: XUDNAN_clean_linker_2, # of connection points: 2
#     Edge 103, Type (0, 1), BuildingBlock: XUDNAN_clean_linker_2, # of connection points: 2
#     Edge 104, Type (0, 1), BuildingBlock: XUDNAN_clean_linker_2, # of connection points: 2
#     Edge 105, Type (0, 1), BuildingBlock: XUDNAN_clean_linker_2, # of connection points: 2
#     Edge 106, Type (0, 1), BuildingBlock: XUDNAN_clean_linker_2, # of connection points: 2
#     Edge 107, Type (0, 1), BuildingBlock: XUDNAN_clean_linker_2, # of connection points: 2
#     Edge 108, Type (0, 1), BuildingBlock: XUDNAN_clean_linker_2, # of connection points: 2
#     Edge 109, Type (0, 1), BuildingBlock: XUDNAN_clean_linker_2, # of connection points: 2
#     Edge 110, Type (0, 1), BuildingBlock: XUDNAN_clean_linker_2, # of connection points: 2
#     Edge 111, Type (0, 1), BuildingBlock: XUDNAN_clean_linker_2, # of connection points: 2
#     Edge 112, Type (0, 1), BuildingBlock: XUDNAN_clean_linker_2, # of connection points: 2
#     Edge 113, Type (0, 1), BuildingBlock: XUDNAN_clean_linker_2, # of connection points: 2
#     Edge 114, Type (0, 1), BuildingBlock: XUDNAN_clean_linker_2, # of connection points: 2
#     Edge 115, Type (0, 1), BuildingBlock: XUDNAN_clean_linker_2, # of connection points: 2
#     Edge 116, Type (0, 1), BuildingBlock: XUDNAN_clean_linker_2, # of connection points: 2
#     Edge 117, Type (0, 1), BuildingBlock: XUDNAN_clean_linker_2, # of connection points: 2
#     Edge 118, Type (0, 1), BuildingBlock: XUDNAN_clean_linker_2, # of connection points: 2
#     Edge 119, Type (0, 1), BuildingBlock: XUDNAN_clean_linker_2, # of connection points: 2
#     Edge 120, Type (0, 1), BuildingBlock: XUDNAN_clean_linker_2, # of connection points: 2
#     Edge 121, Type (0, 1), BuildingBlock: XUDNAN_clean_linker_2, # of connection points: 2
#     Edge 122, Type (0, 1), BuildingBlock: XUDNAN_clean_linker_2, # of connection points: 2
#     Edge 123, Type (0, 1), BuildingBlock: XUDNAN_clean_linker_2, # of connection points: 2
#     Edge 124, Type (0, 1), BuildingBlock: XUDNAN_clean_linker_2, # of connection points: 2
#     Edge 125, Type (0, 1), BuildingBlock: XUDNAN_clean_linker_2, # of connection points: 2
#     Edge 126, Type (0, 1), BuildingBlock: XUDNAN_clean_linker_2, # of connection points: 2
#     Edge 127, Type (0, 1), BuildingBlock: XUDNAN_clean_linker_2, # of connection points: 2
#     Edge 128, Type (0, 1), BuildingBlock: XUDNAN_clean_linker_2, # of connection points: 2
#     Edge 129, Type (0, 1), BuildingBlock: XUDNAN_clean_linker_2, # of connection points: 2
#     Edge 130, Type (0, 1), BuildingBlock: XUDNAN_clean_linker_2, # of connection points: 2
#     Edge 131, Type (0, 1), BuildingBlock: XUDNAN_clean_linker_2, # of connection points: 2
#     Edge 132, Type (0, 1), BuildingBlock: XUDNAN_clean_linker_2, # of connection points: 2
#     Edge 133, Type (0, 1), BuildingBlock: XUDNAN_clean_linker_2, # of connection points: 2
#     Edge 134, Type (0, 1), BuildingBlock: XUDNAN_clean_linker_2, # of connection points: 2
#     Edge 135, Type (0, 1), BuildingBlock: XUDNAN_clean_linker_2, # of connection points: 2
# Relax obj value: 0.200
# Max RMSD: 0.293
# Mean RMSD: 0.143
data_MOF--net-gar--node1-QUQFOY_clean_sbu_3--node2-CUWYAW_clean_sbu_0--edge1-XUDNAN_clean_linker_2
_symmetry_space_group_name_H-M    P1
_symmetry_Int_Tables_number       1
_symmetry_cell_setting            triclinic
loop_
_symmetry_equiv_pos_as_xyz
'x, y, z'
_cell_length_a     65.269056
_cell_length_b     56.191921
_cell_length_c     55.814427
_cell_angle_alpha  98.488619
_cell_angle_beta   96.042936
_cell_angle_gamma 98.760271
loop_
_atom_site_label
_atom_site_type_symbol
_atom_site_fract_x
_atom_site_fract_y
_atom_site_fract_z
_atom_type_partial_charge
C0 C 0.05006 0.3482 0.4419 0.0
O1 O 0.06239 0.36335 0.43304 0.0
Cd2 Cd 0.10019 0.36638 0.43871 0.0
O3 O 0.05698 0.33335 0.4545 0.0
Cd4 Cd 0.08961 0.31975 0.46889 0.0
C5 C 0.10306 0.36619 0.4967 0.0
O6 O 0.10183 0.32367 0.42911 0.0
O7 O 0.12165 0.30979 0.45563 0.0
O8 O 0.06625 0.28144 0.46097 0.0
C9 C 0.11807 0.3146 0.43422 0.0
O10 O 0.1144 0.36588 0.47968 0.0
C11 C 0.06972 0.27773 0.48279 0.0
O12 O 0.1013 0.34776 0.50708 0.0
O13 O 0.08437 0.29204 0.49697 0.0
C14 C 0.96905 0.72087 0.68463 0.0
O15 O 0.97851 0.70619 0.69498 0.0
Cd16 Cd 1.01521 0.70477 0.69993 0.0
O17 O 0.97784 0.73384 0.67057 0.0
Cd18 Cd 1.00929 0.73068 0.65305 0.0
C19 C 1.01346 0.67472 0.64583 0.0
O20 O 0.0318 0.74279 0.69156 0.0
O21 O 0.04657 0.73354 0.65936 0.0
O22 O 1.00758 0.76811 0.63856 0.0
C23 C 0.04848 0.74161 0.682 0.0
O24 O 0.02395 0.67807 0.66685 0.0
C25 C 1.01407 0.76137 0.61836 0.0
O26 O 0.99932 0.68734 0.64163 0.0
O27 O 1.01497 0.73884 0.61262 0.0
C28 C 0.55516 0.86091 0.94756 0.0
O29 O 0.56501 0.8795 0.94066 0.0
Cd30 Cd 0.60283 0.88777 0.94503 0.0
O31 O 0.56493 0.84598 0.95696 0.0
Cd32 Cd 0.59771 0.83337 0.96881 0.0
C33 C 0.60666 0.88138 1.00208 0.0
O34 O 0.60712 0.84645 0.93156 0.0
O35 O 0.62894 0.82771 0.95014 0.0
O36 O 0.57421 0.79544 0.95352 0.0
C37 C 0.62407 0.83811 0.9321 0.0
O38 O 0.61791 0.88903 0.98666 0.0
C39 C 0.57742 0.78654 0.97285 0.0
O40 O 0.60917 0.86092 1.00761 0.0
O41 O 0.59157 0.79855 0.98951 0.0
C42 C 0.48782 0.23214 0.19502 0.0
O43 O 0.49934 0.22033 0.20662 0.0
Cd44 Cd 0.52477 0.20303 0.18684 0.0
O45 O 0.48978 0.23472 0.17318 0.0
Cd46 Cd 0.50881 0.22533 0.13959 0.0
C47 C 0.4915 0.16789 0.13672 0.0
O48 O 0.54135 0.23323 0.16596 0.0
O49 O 0.54198 0.21384 0.12968 0.0
O50 O 0.50286 0.26561 0.14062 0.0
C51 C 0.55196 0.22486 0.14999 0.0
O52 O 0.50425 0.17144 0.15632 0.0
C53 C 0.50681 0.26752 0.11922 0.0
O54 O 0.48763 0.18582 0.1265 0.0
O55 O 0.5091 0.24817 0.10548 0.0
C56 C 0.04619 0.7982 0.20425 0.0
O57 O 0.05859 0.79429 0.22177 0.0
Cd58 Cd 0.09372 0.78867 0.21783 0.0
O59 O 0.05298 0.80233 0.18439 0.0
Cd60 Cd 0.08729 0.80725 0.16739 0.0
C61 C 0.08359 0.74691 0.1636 0.0
O62 O 0.11369 0.82122 0.20328 0.0
O63 O 0.12432 0.80136 0.17212 0.0
O64 O 0.08508 0.84876 0.15937 0.0
C65 C 0.12873 0.81361 0.19353 0.0
O66 O 0.08915 0.75255 0.18658 0.0
C67 C 0.08331 0.84352 0.13626 0.0
O68 O 0.08019 0.76326 0.15077 0.0
O69 O 0.0838 0.82143 0.1274 0.0
C70 C 0.47501 0.77107 0.38498 0.0
O71 O 0.49094 0.78248 0.37782 0.0
Cd72 Cd 0.52629 0.79182 0.39559 0.0
O73 O 0.4773 0.75987 0.40327 0.0
Cd74 Cd 0.51065 0.75511 0.43098 0.0
C75 C 0.51415 0.81517 0.45176 0.0
O76 O 0.53752 0.75535 0.4029 0.0
O77 O 0.54898 0.76677 0.441 0.0
O78 O 0.50017 0.71099 0.43073 0.0
C79 C 0.55313 0.76126 0.41941 0.0
O80 O 0.52292 0.81853 0.43294 0.0
C81 C 0.50547 0.71162 0.45345 0.0
O82 O 0.50674 0.79385 0.45534 0.0
O83 O 0.51186 0.73263 0.46618 0.0
C84 C 0.5459 0.29571 0.70142 0.0
O85 O 0.5576 0.28986 0.71846 0.0
Cd86 Cd 0.5925 0.28331 0.71704 0.0
O87 O 0.55323 0.30128 0.68221 0.0
Cd88 Cd 0.58779 0.30667 0.66488 0.0
C89 C 0.58267 0.24547 0.65988 0.0
O90 O 0.61064 0.31674 0.70296 0.0
O91 O 0.62672 0.30865 0.67201 0.0
O92 O 0.57953 0.34594 0.65717 0.0
C93 C 0.6277 0.31363 0.69505 0.0
O94 O 0.58702 0.25004 0.68307 0.0
C95 C 0.58349 0.34361 0.63523 0.0
O96 O 0.58109 0.26261 0.64745 0.0
O97 O 0.58945 0.32386 0.62678 0.0
C98 C 0.96724 0.26584 0.89174 0.0
O99 O 0.97932 0.27278 0.87683 0.0
Cd100 Cd 0.01675 0.28066 0.88455 0.0
O101 O 0.97456 0.25958 0.91158 0.0
Cd102 Cd 1.01036 0.25461 0.93097 0.0
C103 C 0.01991 0.3147 0.94304 0.0
O104 O 0.03365 0.2501 0.8986 0.0
O105 O 0.04769 0.26763 0.93489 0.0
O106 O 1.0008 0.21133 0.93172 0.0
C107 C 0.05019 0.2596 0.91316 0.0
O108 O 0.02252 0.31176 0.92054 0.0
C109 C 1.0069 0.21217 0.95425 0.0
O110 O 1.01311 0.29661 0.95312 0.0
O111 O 1.01367 0.23326 0.9668 0.0
C112 C 0.45394 0.04388 0.3434 0.0
O113 O 0.46079 0.02767 0.3296 0.0
Cd114 Cd 0.45104 0.01561 0.28631 0.0
O115 O 0.44061 0.05589 0.33375 0.0
Cd116 Cd 0.4203 0.05494 0.28742 0.0
C117 C 0.39972 0.9904 0.28496 0.0
O118 O 0.4539 0.05228 0.26713 0.0
O119 O 0.42729 0.05049 0.24118 0.0
O120 O 0.41236 0.09979 0.30094 0.0
C121 C 0.44688 0.05094 0.24472 0.0
O122 O 0.41824 0.98652 0.28331 0.0
C123 C 0.39494 0.09728 0.28733 0.0
O124 O 0.39591 1.01239 0.28661 0.0
O125 O 0.38939 0.0761 0.27455 0.0
C126 C 0.29936 0.1301 0.53478 0.0
O127 O 0.2883 0.11764 0.54743 0.0
Cd128 Cd 0.2529 0.12148 0.55252 0.0
O129 O 0.29174 0.14568 0.52363 0.0
Cd130 Cd 0.25752 0.16162 0.52084 0.0
C131 C 0.26314 0.18008 0.5821 0.0
O132 O 0.23219 0.12323 0.5145 0.0
O133 O 0.21982 0.15553 0.52719 0.0
O134 O 0.26105 0.16879 0.47827 0.0
C135 C 0.21632 0.13283 0.51895 0.0
O136 O 0.2564 0.15789 0.58338 0.0
C137 C 0.25953 0.19125 0.48264 0.0
O138 O 0.26654 0.18634 0.56167 0.0
O139 O 0.25679 0.19949 0.50429 0.0
C140 C 0.13945 0.02584 0.86414 0.0
O141 O 0.13408 0.04374 0.85499 0.0
Cd142 Cd 0.1414 0.05302 0.81498 0.0
O143 O 0.15104 1.01244 0.85248 0.0
Cd144 Cd 0.17085 1.01096 0.81068 0.0
C145 C 0.19237 0.07696 0.81416 0.0
O146 O 0.13722 0.01552 0.78522 0.0
O147 O 0.16175 1.00913 0.76392 0.0
O148 O 0.17341 0.96474 0.80068 0.0
C149 C 0.14322 1.01343 0.76412 0.0
O150 O 0.17406 0.08152 0.81609 0.0
C151 C 0.19266 0.96509 0.80787 0.0
O152 O 0.19553 0.05457 0.81229 0.0
O153 O 0.20253 0.98645 0.8168 0.0
C154 C 0.28649 0.88986 0.99862 0.0
O155 O 0.27329 0.89474 0.98246 0.0
Cd156 Cd 0.23688 0.89473 0.98904 0.0
O157 O 0.28043 0.88081 0.0167 0.0
Cd158 Cd 0.24566 0.8628 0.02453 0.0
C159 C 0.22319 0.83829 0.96818 0.0
O160 O 0.23329 0.90068 0.03148 0.0
O161 O 0.21108 0.86831 0.03352 0.0
O162 O 0.26426 0.86218 0.0631 0.0
C163 C 0.2156 0.89143 0.03645 0.0
O164 O 0.21471 0.85721 0.96905 0.0
C165 C 0.26073 0.8391 0.06112 0.0
O166 O 0.23683 0.83686 0.98562 0.0
O167 O 0.2481 0.8271 0.04296 0.0
C168 C 0.36911 0.43587 0.06908 0.0
O169 O 0.35847 0.45111 0.06181 0.0
Cd170 Cd 0.32184 0.43757 0.04914 0.0
O171 O 0.35982 0.41586 0.07415 0.0
Cd172 Cd 0.32169 0.39842 0.07798 0.0
C173 C 0.31899 0.37861 0.01899 0.0
O174 O 0.30153 0.43271 0.08204 0.0
O175 O 0.2841 0.3979 0.06373 0.0
O176 O 0.32908 0.39879 0.12194 0.0
C177 C 0.28389 0.41965 0.07363 0.0
O178 O 0.318 0.40091 0.0179 0.0
C179 C 0.32227 0.37633 0.1217 0.0
O180 O 0.32128 0.37154 0.03959 0.0
O181 O 0.31544 0.36353 0.10086 0.0
C182 C 0.85694 0.15483 0.08714 0.0
O183 O 0.85213 0.14666 0.10629 0.0
Cd184 Cd 0.83849 0.16589 0.14035 0.0
O185 O 0.85401 0.17583 0.08309 0.0
Cd186 Cd 0.83957 0.21186 0.09842 0.0
C187 C 0.86104 0.22082 0.14982 0.0
O188 O 0.81658 0.18614 0.11701 0.0
O189 O 0.80005 0.20745 0.09586 0.0
O190 O 0.84192 0.20784 0.05637 0.0
C191 C 0.79918 0.19041 0.10841 0.0
O192 O 0.867 0.20075 0.15249 0.0
C193 C 0.83541 0.22766 0.05399 0.0
O194 O 0.8673 0.23071 0.13226 0.0
O195 O 0.83399 0.24217 0.07342 0.0
C196 C 0.13172 0.5213 0.35106 0.0
O197 O 0.12601 0.53791 0.34008 0.0
Cd198 Cd 0.13498 0.54319 0.29928 0.0
O199 O 0.14377 0.50763 0.34103 0.0
Cd200 Cd 0.16469 0.50699 0.30153 0.0
C201 C 0.18481 0.57151 0.3084 0.0
O202 O 0.1327 0.5063 0.26892 0.0
O203 O 0.16258 0.51225 0.25659 0.0
O204 O 0.17088 0.4611 0.29845 0.0
C205 C 0.14287 0.50918 0.25101 0.0
O206 O 0.16625 0.57391 0.30112 0.0
C207 C 0.19076 0.46579 0.30283 0.0
O208 O 0.18855 0.55053 0.31255 0.0
O209 O 0.1982 0.4885 0.3062 0.0
C210 C 0.86916 0.93792 0.57091 0.0
O211 O 0.85832 0.94883 0.55725 0.0
Cd212 Cd 0.82112 0.94024 0.54495 0.0
O213 O 0.86048 0.92066 0.58101 0.0
Cd214 Cd 0.8229 0.90019 0.58179 0.0
C215 C 0.81794 0.88034 0.51996 0.0
O216 O 0.80527 0.93561 0.58065 0.0
O217 O 0.78454 0.90123 0.57467 0.0
O218 O 0.82636 0.89217 0.62511 0.0
C219 C 0.78662 0.92424 0.57677 0.0
O220 O 0.81463 0.90145 0.51665 0.0
C221 C 0.81989 0.86932 0.6187 0.0
O222 O 0.82293 0.8758 0.5413 0.0
O223 O 0.81602 0.86151 0.59588 0.0
C224 C 0.95422 0.03811 0.33712 0.0
O225 O 0.96368 0.02559 0.32252 0.0
Cd226 Cd 0.95162 0.01528 0.27926 0.0
O227 O 0.93854 0.04719 0.32819 0.0
Cd228 Cd 0.91904 0.04964 0.28264 0.0
C229 C 0.90096 0.98497 0.27834 0.0
O230 O 0.95209 0.05122 0.25956 0.0
O231 O 0.92332 0.04173 0.23614 0.0
O232 O 0.91433 0.09384 0.30033 0.0
C233 C 0.94308 0.04716 0.23764 0.0
O234 O 0.9197 0.98378 0.27441 0.0
C235 C 0.89719 0.09527 0.28783 0.0
O236 O 0.89557 1.00617 0.28301 0.0
O237 O 0.88948 0.07583 0.27282 0.0
C238 C 0.35518 0.65285 0.55271 0.0
O239 O 0.34008 0.63813 0.55775 0.0
Cd240 Cd 0.30654 0.6473 0.56587 0.0
O241 O 0.35396 0.67481 0.55115 0.0
Cd242 Cd 0.33041 0.7028 0.55567 0.0
C243 C 0.32658 0.69493 0.61278 0.0
O244 O 0.29788 0.67594 0.54143 0.0
O245 O 0.29593 0.7123 0.55864 0.0
O246 O 0.33952 0.71512 0.5189 0.0
C247 C 0.28664 0.69078 0.55015 0.0
O248 O 0.3155 0.67414 0.60437 0.0
C249 C 0.3396 0.73753 0.52685 0.0
O250 O 0.33553 0.70866 0.59936 0.0
O251 O 0.34142 0.74392 0.54993 0.0
C252 C 0.45471 0.54096 0.83773 0.0
O253 O 0.46159 0.52502 0.82364 0.0
Cd254 Cd 0.4481 0.51345 0.78081 0.0
O255 O 0.44052 0.55198 0.8285 0.0
Cd256 Cd 0.41899 0.55077 0.78373 0.0
C257 C 0.39773 0.48605 0.78136 0.0
O258 O 0.45053 0.54812 0.75829 0.0
O259 O 0.42066 0.54101 0.7369 0.0
O260 O 0.41995 0.59754 0.79431 0.0
C261 C 0.44038 0.54413 0.73692 0.0
O262 O 0.41606 0.48271 0.77761 0.0
C263 C 0.4007 0.59902 0.78956 0.0
O264 O 0.39385 0.50811 0.78474 0.0
O265 O 0.38909 0.57832 0.7819 0.0
C266 C 0.63337 0.02209 0.85152 0.0
O267 O 0.62363 0.03442 0.83831 0.0
Cd268 Cd 0.63397 0.04335 0.79909 0.0
O269 O 0.6487 1.0126 0.84343 0.0
Cd270 Cd 0.66688 1.00745 0.80176 0.0
C271 C 0.68587 0.07187 0.80881 0.0
O272 O 0.63377 1.00598 0.77119 0.0
O273 O 0.66234 1.01099 0.75598 0.0
O274 O 0.66847 0.96268 0.80602 0.0
C275 C 0.64252 1.00802 0.75211 0.0
O276 O 0.66679 0.07369 0.80314 0.0
C277 C 0.6875 0.96175 0.80339 0.0
O278 O 0.69065 0.05093 0.81166 0.0
O279 O 0.69768 0.98182 0.79971 0.0
C280 C 0.80313 0.63207 0.04268 0.0
O281 O 0.79062 0.61753 0.05192 0.0
Cd282 Cd 0.75554 0.62353 0.05733 0.0
O283 O 0.79685 0.64946 0.03327 0.0
Cd284 Cd 0.76287 0.66462 0.0236 0.0
C285 C 0.76671 0.68477 0.08378 0.0
O286 O 0.73532 0.62828 0.02065 0.0
O287 O 0.7259 0.66344 0.02871 0.0
O288 O 0.76622 0.6629 0.98041 0.0
C289 C 0.72066 0.6404 0.02425 0.0
O290 O 0.76125 0.66233 0.08533 0.0
C291 C 0.76749 0.68563 0.98004 0.0
O292 O 0.76948 0.69138 0.0633 0.0
O293 O 0.76655 0.6991 1.00017 0.0
C294 C 0.95535 0.54614 0.84326 0.0
O295 O 0.96569 0.53421 0.82929 0.0
Cd296 Cd 0.95152 0.52205 0.78675 0.0
O297 O 0.93929 0.55404 0.83354 0.0
Cd298 Cd 0.92062 0.55462 0.78691 0.0
C299 C 0.90189 0.4907 0.78407 0.0
O300 O 0.95319 0.55669 0.76397 0.0
O301 O 0.92466 0.54435 0.74015 0.0
O302 O 0.91438 0.60065 0.79225 0.0
C303 C 0.94434 0.55112 0.74199 0.0
O304 O 0.92096 0.48839 0.78354 0.0
C305 C 0.89447 0.59622 0.78874 0.0
O306 O 0.89713 0.51218 0.78523 0.0
O307 O 0.88692 0.57352 0.78456 0.0
C308 C 0.77816 0.39387 0.49568 0.0
O309 O 0.76538 0.40285 0.48226 0.0
Cd310 Cd 0.72838 0.39347 0.47979 0.0
O311 O 0.77187 0.37991 0.51042 0.0
Cd312 Cd 0.74001 0.36061 0.52544 0.0
C313 C 0.73372 0.33338 0.46642 0.0
O314 O 0.72637 0.39419 0.52116 0.0
O315 O 0.70424 0.36858 0.53464 0.0
O316 O 0.76324 0.37444 0.56206 0.0
C317 C 0.70865 0.38916 0.52781 0.0
O318 O 0.72684 0.35187 0.46006 0.0
C319 C 0.76206 0.35356 0.56842 0.0
O320 O 0.73815 0.33176 0.4888 0.0
O321 O 0.74889 0.33603 0.55559 0.0
C322 C 0.64023 0.52241 0.36294 0.0
O323 O 0.63428 0.53817 0.35103 0.0
Cd324 Cd 0.6589 0.53818 0.32098 0.0
O325 O 0.65412 0.5107 0.35405 0.0
Cd326 Cd 0.67222 0.51199 0.31062 0.0
C327 C 0.69606 0.57609 0.31566 0.0
O328 O 0.64185 0.52409 0.27957 0.0
O329 O 0.65942 0.49718 0.26558 0.0
O330 O 0.67501 0.466 0.30341 0.0
C331 C 0.64522 0.50961 0.26116 0.0
O332 O 0.67917 0.57903 0.32404 0.0
C333 C 0.69464 0.46678 0.30823 0.0
O334 O 0.69886 0.55387 0.30935 0.0
O335 O 0.70481 0.48847 0.3147 0.0
C336 C 0.09355 0.06462 0.09372 0.0
Eu337 Eu 0.05833 0.04467 0.06674 0.0
C338 C 0.11363 0.0558 0.09473 0.0
C339 C 0.12041 0.04587 0.11522 0.0
C340 C 0.13418 0.02924 0.11321 0.0
C341 C 0.14165 0.02296 0.09091 0.0
C342 C 0.13714 0.03535 0.07152 0.0
C343 C 0.12314 0.05166 0.07336 0.0
C344 C 0.0223 0.04125 0.08986 0.0
C345 C 0.05471 0.98596 0.0634 0.0
C346 C 0.99142 1.00001 0.00988 0.0
Eu347 Eu 0.02769 0.01599 0.03558 0.0
C348 C 0.97405 1.01344 0.01264 0.0
C349 C 0.95882 0.01388 0.99309 0.0
C350 C 0.94484 0.03051 0.99563 0.0
C351 C 0.94662 0.04742 0.01741 0.0
C352 C 0.96247 0.04714 0.03641 0.0
C353 C 0.97528 0.02976 0.03444 0.0
C354 C 0.06351 0.01657 0.01292 0.0
C355 C 0.03198 0.0736 0.03663 0.0
O356 O 0.08703 0.07165 0.07346 0.0
O357 O 0.07869 0.05063 0.10137 0.0
O358 O 0.03474 0.06134 0.08912 0.0
O359 O 0.02862 0.02398 0.07668 0.0
O360 O 0.06784 1.00693 0.06749 0.0
O361 O 0.0357 0.98485 0.05273 0.0
O362 O 0.99775 0.99108 0.02913 0.0
O363 O 1.00698 1.01189 1.00129 0.0
O364 O 0.04993 0.99749 0.0138 0.0
O365 O 0.05817 0.03517 0.02537 0.0
O366 O 0.01881 0.05337 0.03575 0.0
O367 O 0.05114 0.07505 0.04681 0.0
H368 H 0.11338 0.04894 0.13191 0.0
H369 H 0.13768 0.01985 0.12838 0.0
H370 H 0.14275 0.0306 0.05413 0.0
H371 H 0.11831 0.05908 0.05725 0.0
H372 H 0.95795 1.00173 0.97591 0.0
H373 H 0.93278 0.03012 0.98064 0.0
H374 H 0.96531 0.0605 0.053 0.0
H375 H 0.98702 0.03001 0.04975 0.0
C376 C 0.2815 0.80967 0.37081 0.0
Eu377 Eu 0.28876 0.79499 0.32673 0.0
C378 C 0.26731 0.79968 0.38688 0.0
C379 C 0.2547 0.81449 0.39865 0.0
C380 C 0.24331 0.80631 0.41653 0.0
C381 C 0.24521 0.78363 0.42361 0.0
C382 C 0.25511 0.76745 0.40875 0.0
C383 C 0.26622 0.77551 0.39074 0.0
C384 C 0.26183 0.80267 0.28966 0.0
C385 C 0.2699 0.73552 0.31058 0.0
C386 C 0.29416 0.75885 0.23277 0.0
Eu387 Eu 0.29525 0.77036 0.27928 0.0
C388 C 0.30866 0.76867 0.21677 0.0
C389 C 0.32249 0.7546 0.20635 0.0
C390 C 0.3352 0.76363 0.18993 0.0
C391 C 0.33378 0.78655 0.18315 0.0
C392 C 0.32157 0.8015 0.19587 0.0
C393 C 0.30917 0.79264 0.21233 0.0
C394 C 0.33134 0.7709 0.30939 0.0
C395 C 0.31648 0.82821 0.29655 0.0
O396 O 0.29707 0.7983 0.36605 0.0
O397 O 0.27234 0.81625 0.35161 0.0
O398 O 0.27261 0.81952 0.30644 0.0
O399 O 0.26652 0.78197 0.29222 0.0
O400 O 0.2736 0.75515 0.32799 0.0
O401 O 0.27613 0.73692 0.28907 0.0
O402 O 0.28297 0.77413 0.24276 0.0
O403 O 0.30152 0.74562 0.24797 0.0
O404 O 0.32773 0.76145 0.28657 0.0
O405 O 0.31571 0.77972 0.31571 0.0
O406 O 0.30806 0.81061 0.27803 0.0
O407 O 0.31412 0.82482 0.31915 0.0
H408 H 0.25459 0.83289 0.39499 0.0
H409 H 0.23492 0.81881 0.42658 0.0
H410 H 0.25658 0.74945 0.41262 0.0
H411 H 0.27507 0.76332 0.38102 0.0
H412 H 0.32292 0.73633 0.21019 0.0
H413 H 0.34493 0.7519 0.1812 0.0
H414 H 0.31976 0.81929 0.19164 0.0
H415 H 0.29922 0.80436 0.22064 0.0
C416 C 0.48628 0.04025 0.57446 0.0
Eu417 Eu 0.52308 0.03293 0.56422 0.0
C418 C 0.46901 0.05259 0.56654 0.0
C419 C 0.44929 0.04559 0.57351 0.0
C420 C 0.43278 0.05765 0.56734 0.0
C421 C 0.43564 0.07713 0.55411 0.0
C422 C 0.45546 0.08393 0.54687 0.0
C423 C 0.47201 0.07176 0.55304 0.0
C424 C 0.5549 0.02328 0.59777 0.0
C425 C 0.55583 0.08074 0.56293 0.0
C426 C 0.60181 0.02175 0.52934 0.0
Eu427 Eu 0.56457 0.02831 0.53885 0.0
C428 C 0.61912 1.00789 0.53315 0.0
C429 C 0.62788 0.99856 0.51261 0.0
C430 C 0.64586 0.98802 0.51526 0.0
C431 C 0.65552 0.98647 0.53856 0.0
C432 C 0.64613 0.99458 0.55915 0.0
C433 C 0.62811 1.00535 0.55649 0.0
C434 C 0.53338 0.03856 0.50539 0.0
C435 C 0.52964 0.9807 0.53768 0.0
O436 O 0.48923 0.02099 0.55971 0.0
O437 O 0.50377 0.05441 0.58476 0.0
O438 O 0.53638 0.02638 0.60244 0.0
O439 O 0.55504 0.02521 0.57541 0.0
O440 O 0.53582 0.07123 0.55977 0.0
O441 O 0.57046 0.06728 0.55887 0.0
O442 O 0.59856 0.03797 0.54736 0.0
O443 O 0.58453 1.00996 0.51605 0.0
O444 O 0.55201 0.03576 0.50092 0.0
O445 O 0.53266 0.03617 0.5276 0.0
O446 O 0.54991 0.98918 0.53939 0.0
O447 O 0.51583 0.99479 0.54331 0.0
H448 H 0.44667 0.03082 0.58391 0.0
H449 H 0.41769 0.05148 0.57277 0.0
H450 H 0.4583 0.09892 0.53682 0.0
H451 H 0.48718 0.07746 0.54752 0.0
H452 H 0.62122 1.00023 0.49443 0.0
H453 H 0.65262 0.98174 0.49906 0.0
H454 H 0.65331 0.99372 0.57733 0.0
H455 H 0.62163 1.01234 0.57265 0.0
C456 C 0.35564 0.26773 0.79665 0.0
Eu457 Eu 0.31677 0.27212 0.79934 0.0
C458 C 0.37234 0.27129 0.78107 0.0
C459 C 0.38519 0.25353 0.77806 0.0
C460 C 0.40152 0.25624 0.76391 0.0
C461 C 0.40547 0.27689 0.75253 0.0
C462 C 0.39213 0.29436 0.75494 0.0
C463 C 0.37567 0.29158 0.76911 0.0
C464 C 0.2852 0.23412 0.80369 0.0
C465 C 0.28804 0.27222 0.74836 0.0
C466 C 0.23403 0.2963 0.80142 0.0
Eu467 Eu 0.27315 0.292 0.79969 0.0
C468 C 0.2164 0.29369 0.81592 0.0
C469 C 0.20318 0.31113 0.81609 0.0
C470 C 0.18631 0.30977 0.82952 0.0
C471 C 0.1822 0.29088 0.84321 0.0
C472 C 0.19537 0.27317 0.84289 0.0
C473 C 0.21242 0.27462 0.82941 0.0
C474 C 0.30507 0.32907 0.79348 0.0
C475 C 0.30202 0.29189 0.85094 0.0
O476 O 0.35005 0.28707 0.8087 0.0
O477 O 0.33983 0.25037 0.78762 0.0
O478 O 0.30473 0.23269 0.80292 0.0
O479 O 0.28356 0.25632 0.80262 0.0
O480 O 0.30704 0.27272 0.75948 0.0
O481 O 0.27199 0.27643 0.75994 0.0
O482 O 0.2399 0.27655 0.79067 0.0
O483 O 0.24974 0.31384 0.8103 0.0
O484 O 0.28555 0.33106 0.79333 0.0
O485 O 0.3061 0.30716 0.79606 0.0
O486 O 0.2835 0.29355 0.83979 0.0
O487 O 0.3176 0.28561 0.8395 0.0
H488 H 0.3827 0.23757 0.78686 0.0
H489 H 0.41118 0.24218 0.76205 0.0
H490 H 0.3948 0.31053 0.7465 0.0
H491 H 0.36574 0.30537 0.77095 0.0
H492 H 0.2059 0.32591 0.80571 0.0
H493 H 0.17631 0.32344 0.82895 0.0
H494 H 0.19268 0.25847 0.85334 0.0
H495 H 0.22248 0.26097 0.8296 0.0
C496 C 0.04242 0.95352 0.53739 0.0
Eu497 Eu 0.04946 1.00051 0.54373 0.0
C498 C 0.05302 0.93443 0.54514 0.0
C499 C 0.07497 0.93685 0.54861 0.0
C500 C 0.08445 0.91903 0.5584 0.0
C501 C 0.0719 0.89916 0.56501 0.0
C502 C 0.05003 0.89681 0.56115 0.0
C503 C 0.04068 0.9143 0.5513 0.0
C504 C 0.08407 0.03195 0.53711 0.0
C505 C 0.06807 0.02841 0.60044 0.0
C506 C 0.049 0.10385 0.56539 0.0
Eu507 Eu 0.04464 0.0572 0.56006 0.0
C508 C 0.03523 0.11915 0.55492 0.0
C509 C 0.01649 0.12276 0.56421 0.0
C510 C 1.00339 0.13677 0.5534 0.0
C511 C 1.00878 0.14722 0.53311 0.0
C512 C 0.0271 0.14263 0.52334 0.0
C513 C 0.04021 0.12895 0.53421 0.0
C514 C 1.00928 0.02492 0.56327 0.0
C515 C 0.02442 0.0293 0.50433 0.0
O516 O 0.03585 0.96719 0.55514 0.0
O517 O 0.05079 0.96577 0.52152 0.0
O518 O 0.08146 1.00838 0.53069 0.0
O519 O 0.06831 0.03668 0.54693 0.0
O520 O 0.06375 1.00749 0.5845 0.0
O521 O 0.06331 0.04928 0.59447 0.0
O522 O 0.05829 0.09103 0.54952 0.0
O523 O 0.04183 0.09158 0.58193 0.0
O524 O 1.01092 0.04839 0.56966 0.0
O525 O 0.02625 0.0212 0.55618 0.0
O526 O 0.03084 0.0506 0.51927 0.0
O527 O 0.02833 1.00827 0.51085 0.0
H528 H 0.08469 0.95261 0.5442 0.0
H529 H 0.10133 0.92094 0.5612 0.0
H530 H 0.04014 0.88139 0.566 0.0
H531 H 0.02377 0.91239 0.549 0.0
H532 H 1.01208 0.11513 0.58002 0.0
H533 H 0.98953 0.14028 0.56146 0.0
H534 H 0.03218 0.15093 0.50818 0.0
H535 H 0.05445 0.12635 0.52656 0.0
C536 C 0.25543 0.73323 0.76713 0.0
Eu537 Eu 0.28417 0.76664 0.79275 0.0
C538 C 0.23296 0.73284 0.76102 0.0
C539 C 0.2201 0.73587 0.77955 0.0
C540 C 0.19911 0.73707 0.77364 0.0
C541 C 0.19067 0.73541 0.74918 0.0
C542 C 0.20352 0.73279 0.73068 0.0
C543 C 0.22454 0.73138 0.73657 0.0
C544 C 0.29056 0.77905 0.84171 0.0
C545 C 0.27455 0.82341 0.80108 0.0
C546 C 0.35084 0.84003 0.83839 0.0
Eu547 Eu 0.32158 0.80737 0.81269 0.0
C548 C 0.37172 0.83769 0.84941 0.0
C549 C 0.3893 0.84521 0.83819 0.0
C550 C 0.40896 0.84133 0.8474 0.0
C551 C 0.4114 0.8302 0.86823 0.0
C552 C 0.39378 0.8224 0.87924 0.0
C553 C 0.37412 0.82608 0.86992 0.0
C554 C 0.31763 0.79214 0.76446 0.0
C555 C 0.3298 0.7494 0.80417 0.0
O556 O 0.26768 0.74866 0.75726 0.0
O557 O 0.262 0.73314 0.7901 0.0
O558 O 0.27215 0.77271 0.82902 0.0
O559 O 0.30456 0.77792 0.82801 0.0
O560 O 0.26708 0.79988 0.79231 0.0
O561 O 0.29472 0.83038 0.80996 0.0
O562 O 0.33493 0.82949 0.84773 0.0
O563 O 0.34797 0.83647 0.81449 0.0
O564 O 0.33533 0.80135 0.7778 0.0
O565 O 0.30285 0.7946 0.77695 0.0
O566 O 0.3372 0.77263 0.81484 0.0
O567 O 0.31038 0.74348 0.79272 0.0
H568 H 0.22622 0.73753 0.79864 0.0
H569 H 0.18945 0.73935 0.78819 0.0
H570 H 0.19721 0.73131 0.71167 0.0
H571 H 0.23428 0.72935 0.72207 0.0
H572 H 0.38783 0.8539 0.82215 0.0
H573 H 0.42228 0.84727 0.83838 0.0
H574 H 0.39524 0.81412 0.89554 0.0
H575 H 0.36084 0.81982 0.87885 0.0
C576 C 0.60171 0.04542 0.09487 0.0
Eu577 Eu 0.5659 0.03421 0.06719 0.0
C578 C 0.62261 0.05876 0.09279 0.0
C579 C 0.63908 0.04569 0.08945 0.0
C580 C 0.65923 0.05795 0.08884 0.0
C581 C 0.66332 0.08353 0.0916 0.0
C582 C 0.64672 0.09659 0.09377 0.0
C583 C 0.62655 0.08432 0.09451 0.0
C584 C 0.54305 0.98842 0.05613 0.0
C585 C 0.56783 0.02775 1.00788 0.0
C586 C 0.4896 1.01082 1.006 0.0
Eu587 Eu 0.52415 0.02932 0.03442 0.0
C588 C 0.46952 0.99582 1.00789 0.0
C589 C 0.45164 0.99844 0.99302 0.0
C590 C 0.43274 0.98298 0.99276 0.0
C591 C 0.4314 0.96472 1.00748 0.0
C592 C 0.44901 0.9629 0.02341 0.0
C593 C 0.46804 0.97837 0.02358 0.0
C594 C 0.54598 0.07511 0.04233 0.0
C595 C 0.52418 0.04111 0.09483 0.0
O596 O 0.58657 0.05805 0.0974 0.0
O597 O 0.59567 0.02458 0.08013 0.0
O598 O 0.56323 0.99322 0.05868 0.0
O599 O 0.53614 1.00795 0.06055 0.0
O600 O 0.57812 0.03565 0.03023 0.0
O601 O 0.5469 0.02251 1.00498 0.0
O602 O 0.50604 1.00002 1.00718 0.0
O603 O 0.49319 0.03312 0.01822 0.0
O604 O 0.52568 0.06988 0.03819 0.0
O605 O 0.55374 0.05589 0.04072 0.0
O606 O 0.51254 0.03321 0.07304 0.0
O607 O 0.54495 0.04509 0.0962 0.0
H608 H 0.6365 0.02598 0.08794 0.0
H609 H 0.67179 0.04749 0.08705 0.0
H610 H 0.64955 0.11636 0.09624 0.0
H611 H 0.61424 0.09498 0.09714 0.0
H612 H 0.45245 1.01199 0.98104 0.0
H613 H 0.41925 0.98479 0.98051 0.0
H614 H 0.44826 0.9489 0.03487 0.0
H615 H 0.48169 0.97626 0.03541 0.0
C616 C 0.34711 0.32007 0.33317 0.0
Eu617 Eu 0.30993 0.29621 0.31643 0.0
C618 C 0.36636 0.31543 0.32398 0.0
C619 C 0.38605 0.32661 0.33637 0.0
C620 C 0.40406 0.32185 0.32633 0.0
C621 C 0.40215 0.30554 0.30431 0.0
C622 C 0.38246 0.29433 0.2922 0.0
C623 C 0.36471 0.29948 0.3018 0.0
C624 C 0.28162 0.27854 0.34425 0.0
C625 C 0.31363 0.23867 0.29339 0.0
C626 C 0.23596 0.24293 0.27089 0.0
Eu627 Eu 0.27381 0.26622 0.28649 0.0
C628 C 0.21571 0.24891 0.27629 0.0
C629 C 0.19695 0.23362 0.2657 0.0
C630 C 0.17807 0.23797 0.27388 0.0
C631 C 0.17793 0.25796 0.29224 0.0
C632 C 0.1966 0.27403 0.30147 0.0
C633 C 0.2153 0.2692 0.29397 0.0
C634 C 0.30136 0.28722 0.25915 0.0
C635 C 0.27147 0.32488 0.30619 0.0
O636 O 0.33429 0.32742 0.31741 0.0
O637 O 0.33782 0.3026 0.34332 0.0
O638 O 0.29173 0.30073 0.34811 0.0
O639 O 0.28671 0.2665 0.3254 0.0
O640 O 0.32346 0.26063 0.3046 0.0
O641 O 0.29353 0.23577 0.28486 0.0
O642 O 0.24763 0.23833 0.28958 0.0
O643 O 0.24645 0.25757 0.25866 0.0
O644 O 0.291 0.2651 0.25292 0.0
O645 O 0.29619 0.29688 0.27892 0.0
O646 O 0.26104 0.30276 0.29645 0.0
O647 O 0.29156 0.32731 0.31436 0.0
H648 H 0.38743 0.33913 0.35341 0.0
H649 H 0.41932 0.33082 0.33555 0.0
H650 H 0.38084 0.28214 0.27487 0.0
H651 H 0.34963 0.2914 0.29156 0.0
H652 H 0.19704 0.21769 0.25219 0.0
H653 H 0.16385 0.22508 0.26693 0.0
H654 H 0.19711 0.28904 0.31629 0.0
H655 H 0.2295 0.28042 0.30338 0.0
C656 C 0.55596 0.46252 0.02019 0.0
Eu657 Eu 0.55383 0.50735 0.03598 0.0
C658 C 0.55787 0.44345 0.03492 0.0
C659 C 0.57317 0.42871 0.03153 0.0
C660 C 0.57754 0.41352 0.04838 0.0
C661 C 0.56663 0.41303 0.06876 0.0
C662 C 0.55145 0.42805 0.07204 0.0
C663 C 0.54726 0.44322 0.05543 0.0
C664 C 0.58352 0.54698 0.03472 0.0
C665 C 0.56972 0.52238 0.09679 0.0
C666 C 0.5436 0.60225 0.08101 0.0
Eu667 Eu 0.54378 0.55649 0.06695 0.0
C668 C 0.53614 0.6194 0.06626 0.0
C669 C 0.52385 0.63595 0.07578 0.0
C670 C 0.51558 0.65114 0.06105 0.0
C671 C 0.5195 0.64987 0.03662 0.0
C672 C 0.53102 0.63243 0.02693 0.0
C673 C 0.53924 0.61734 0.0416 0.0
C674 C 0.51267 0.51835 0.06789 0.0
C675 C 0.52619 0.54017 1.00656 0.0
O676 O 0.53814 0.47077 0.01915 0.0
O677 O 0.57231 0.47988 0.02451 0.0
O678 O 0.58325 0.52563 0.02218 0.0
O679 O 0.56763 0.54558 0.0456 0.0
O680 O 0.56585 0.50561 0.07637 0.0
O681 O 0.56403 0.5442 0.09727 0.0
O682 O 0.56047 0.59394 0.07518 0.0
O683 O 0.52887 0.58513 0.08462 0.0
O684 O 0.51372 0.54038 0.07938 0.0
O685 O 0.52891 0.51754 0.05734 0.0
O686 O 0.52915 0.5568 0.02705 0.0
O687 O 0.5334 0.51922 1.00585 0.0
H688 H 0.58203 0.4294 0.01621 0.0
H689 H 0.58927 0.40207 0.04541 0.0
H690 H 0.54228 0.42766 0.0871 0.0
H691 H 0.53596 0.45513 0.05897 0.0
H692 H 0.52077 0.63719 0.09459 0.0
H693 H 0.50673 0.66443 0.06894 0.0
H694 H 0.53471 0.63129 1.00837 0.0
H695 H 0.54825 0.60426 0.03366 0.0
C696 C 0.74395 0.23147 0.28754 0.0
Eu697 Eu 0.77799 0.26379 0.29546 0.0
C698 C 0.72321 0.23102 0.27481 0.0
C699 C 0.707 0.21192 0.2757 0.0
C700 C 0.68764 0.21042 0.26186 0.0
C701 C 0.68437 0.22807 0.24713 0.0
C702 C 0.70028 0.24801 0.24748 0.0
C703 C 0.71966 0.24942 0.26121 0.0
C704 C 0.79749 0.27949 0.34113 0.0
C705 C 0.7723 0.32149 0.29978 0.0
C706 C 0.85065 0.33161 0.31586 0.0
Eu707 Eu 0.81699 0.30009 0.29936 0.0
C708 C 0.86981 0.32984 0.33147 0.0
C709 C 0.88925 0.34154 0.32708 0.0
C710 C 0.90754 0.33964 0.34162 0.0
C711 C 0.90666 0.32606 0.36087 0.0
C712 C 0.88716 0.31396 0.3649 0.0
C713 C 0.86891 0.31569 0.35023 0.0
C714 C 0.79812 0.28608 0.25288 0.0
C715 C 0.82168 0.24163 0.29263 0.0
O716 O 0.75891 0.231 0.27376 0.0
O717 O 0.74919 0.24759 0.30745 0.0
O718 O 0.77752 0.27637 0.33534 0.0
O719 O 0.80648 0.27419 0.32292 0.0
O720 O 0.76356 0.29835 0.29098 0.0
O721 O 0.79289 0.32649 0.3069 0.0
O722 O 0.83355 0.33072 0.32634 0.0
O723 O 0.84774 0.31836 0.29404 0.0
O724 O 0.81818 0.29199 0.25874 0.0
O725 O 0.78879 0.28935 0.27133 0.0
O726 O 0.83087 0.26456 0.30162 0.0
O727 O 0.80109 0.23707 0.28606 0.0
H728 H 0.70951 0.19784 0.28647 0.0
H729 H 0.67543 0.19508 0.26205 0.0
H730 H 0.69811 0.26175 0.23616 0.0
H731 H 0.73208 0.26441 0.26058 0.0
H732 H 0.89027 0.35226 0.3125 0.0
H733 H 0.92233 0.34933 0.3382 0.0
H734 H 0.88603 0.30314 0.37939 0.0
H735 H 0.8541 0.30603 0.35361 0.0
C736 C 0.09247 0.57317 0.591 0.0
Eu737 Eu 0.06027 0.54699 0.56263 0.0
C738 C 0.11379 0.58525 0.58983 0.0
C739 C 0.1302 0.58073 0.60597 0.0
C740 C 0.15072 0.59172 0.60528 0.0
C741 C 0.15505 0.60715 0.58825 0.0
C742 C 0.13872 0.61141 0.57185 0.0
C743 C 0.11817 0.60057 0.57266 0.0
C744 C 0.05039 0.49814 0.5596 0.0
C745 C 0.06148 0.52695 0.50406 0.0
C746 C 0.98649 0.4933 0.50624 0.0
Eu747 Eu 0.01816 0.52295 0.53157 0.0
C748 C 0.96648 0.48008 0.51111 0.0
C749 C 0.94949 0.49234 0.5145 0.0
C750 C 0.92975 0.47918 0.51523 0.0
C751 C 0.92674 0.45368 0.51264 0.0
C752 C 0.94388 0.44153 0.51117 0.0
C753 C 0.9637 0.45468 0.51039 0.0
C754 C 0.03028 0.57026 0.52855 0.0
C755 C 0.01668 0.54454 0.58916 0.0
O756 O 0.07677 0.58253 0.58185 0.0
O757 O 0.08943 0.54936 0.58604 0.0
O758 O 0.06924 0.51036 0.56406 0.0
O759 O 0.03782 0.51304 0.56115 0.0
O760 O 0.07163 0.54223 0.524 0.0
O761 O 0.04188 0.51582 0.50433 0.0
O762 O 1.00359 0.48596 0.51453 0.0
O763 O 0.98837 0.5171 0.50874 0.0
O764 O 1.01086 0.56062 0.5285 0.0
O765 O 0.0419 0.55473 0.53029 0.0
O766 O 1.00679 0.52876 0.56969 0.0
O767 O 0.03607 0.55597 0.58874 0.0
H768 H 0.12711 0.56871 0.61915 0.0
H769 H 0.16321 0.58819 0.61798 0.0
H770 H 0.14185 0.6235 0.55874 0.0
H771 H 0.10582 0.6042 0.55993 0.0
H772 H 0.95109 0.51191 0.51525 0.0
H773 H 0.91655 0.48874 0.51599 0.0
H774 H 0.94167 0.42178 0.50874 0.0
H775 H 0.97656 0.44485 0.50787 0.0
C776 C 0.85525 0.76745 0.29809 0.0
Eu777 Eu 0.81664 0.77299 0.30126 0.0
C778 C 0.87194 0.77037 0.28242 0.0
C779 C 0.88633 0.75425 0.28234 0.0
C780 C 0.90276 0.75661 0.26829 0.0
C781 C 0.90522 0.77524 0.25403 0.0
C782 C 0.89031 0.79092 0.25345 0.0
C783 C 0.87378 0.78851 0.26758 0.0
C784 C 0.7843 0.73623 0.30617 0.0
C785 C 0.78767 0.77455 0.25065 0.0
C786 C 0.73546 0.80099 0.30543 0.0
Eu787 Eu 0.77408 0.79505 0.30272 0.0
C788 C 0.71814 0.79565 0.31977 0.0
C789 C 0.6995 0.80432 0.31412 0.0
C790 C 0.68316 0.80082 0.32823 0.0
C791 C 0.68517 0.78861 0.3484 0.0
C792 C 0.70392 0.7798 0.35394 0.0
C793 C 0.72027 0.78328 0.33973 0.0
C794 C 0.80685 0.8309 0.29646 0.0
C795 C 0.80277 0.79276 0.35352 0.0
O796 O 0.8501 0.78718 0.3099 0.0
O797 O 0.83913 0.75042 0.28935 0.0
O798 O 0.80363 0.7339 0.30514 0.0
O799 O 0.78329 0.75862 0.30521 0.0
O800 O 0.80618 0.77248 0.26146 0.0
O801 O 0.7724 0.7812 0.26246 0.0
O802 O 0.7406 0.78257 0.29138 0.0
O803 O 0.75172 0.81663 0.31685 0.0
O804 O 0.78786 0.83435 0.29827 0.0
O805 O 0.80705 0.80867 0.29834 0.0
O806 O 0.78412 0.79413 0.34246 0.0
O807 O 0.81822 0.78682 0.34154 0.0
H808 H 0.88498 0.73991 0.2934 0.0
H809 H 0.91367 0.74392 0.26878 0.0
H810 H 0.8918 0.8055 0.24272 0.0
H811 H 0.86265 0.80095 0.26717 0.0
H812 H 0.69768 0.81416 0.29894 0.0
H813 H 0.66912 0.80817 0.32366 0.0
H814 H 0.70591 0.77011 0.36919 0.0
H815 H 0.73462 0.77657 0.34444 0.0
C816 C 0.78812 0.30836 0.87231 0.0
Eu817 Eu 0.78829 0.29606 0.82609 0.0
C818 C 0.77782 0.29302 0.88814 0.0
C819 C 0.76337 0.30139 0.90281 0.0
C820 C 0.75369 0.28629 0.91765 0.0
C821 C 0.7585 0.26273 0.91799 0.0
C822 C 0.77168 0.25393 0.90168 0.0
C823 C 0.78125 0.26888 0.88707 0.0
C824 C 0.75454 0.29223 0.79218 0.0
C825 C 0.77102 0.23642 0.80904 0.0
C826 C 0.80561 0.25621 0.7339 0.0
Eu827 Eu 0.79872 0.26965 0.77833 0.0
C828 C 0.81751 0.26947 0.71784 0.0
C829 C 0.82888 0.25732 0.70152 0.0
C830 C 0.83979 0.2701 0.6858 0.0
C831 C 0.83936 0.29513 0.68633 0.0
C832 C 0.82915 0.30743 0.70406 0.0
C833 C 0.8182 0.29469 0.71947 0.0
C834 C 0.82599 0.27016 0.81858 0.0
C835 C 0.81373 0.33045 0.79384 0.0
O836 O 0.80403 0.30057 0.86311 0.0
O837 O 0.77553 0.3157 0.85622 0.0
O838 O 0.75593 0.30294 0.81456 0.0
O839 O 0.77132 0.28459 0.78851 0.0
O840 O 0.77722 0.25506 0.82741 0.0
O841 O 0.7752 0.23872 0.78673 0.0
O842 O 0.78851 0.26417 0.73928 0.0
O843 O 0.81684 0.25162 0.7529 0.0
O844 O 0.81962 0.25095 0.80194 0.0
O845 O 0.81753 0.28767 0.81306 0.0
O846 O 0.81305 0.31014 0.77775 0.0
O847 O 0.80499 0.32991 0.81415 0.0
H848 H 0.75999 0.31972 0.90325 0.0
H849 H 0.7435 0.29353 0.92992 0.0
H850 H 0.77619 0.23615 0.90154 0.0
H851 H 0.79191 0.26159 0.87549 0.0
H852 H 0.82875 0.23788 0.70038 0.0
H853 H 0.84738 0.26015 0.67219 0.0
H854 H 0.82793 0.32651 0.70466 0.0
H855 H 0.80952 0.30447 0.7319 0.0
C856 C 0.8438 0.82798 0.81663 0.0
Eu857 Eu 0.80875 0.79725 0.80916 0.0
C858 C 0.86596 0.82703 0.81523 0.0
C859 C 0.87725 0.81458 0.83062 0.0
C860 C 0.89574 0.80743 0.82423 0.0
C861 C 0.90258 0.8119 0.802 0.0
C862 C 0.89313 0.82793 0.78905 0.0
C863 C 0.87499 0.83556 0.79577 0.0
C864 C 0.78908 0.77445 0.84223 0.0
C865 C 0.81336 0.73801 0.79286 0.0
C866 C 0.73407 0.7296 0.79004 0.0
Eu867 Eu 0.76852 0.75876 0.78888 0.0
C868 C 0.71235 0.73351 0.78774 0.0
C869 C 0.70599 0.75026 0.7734 0.0
C870 C 0.68852 0.76093 0.77802 0.0
C871 C 0.6776 0.75554 0.79754 0.0
C872 C 0.68285 0.73675 0.81 0.0
C873 C 0.69995 0.72573 0.80496 0.0
C874 C 0.78154 0.78013 0.75129 0.0
C875 C 0.76413 0.8173 0.8035 0.0
O876 O 0.8317 0.82222 0.79563 0.0
O877 O 0.83537 0.81845 0.83406 0.0
O878 O 0.79757 0.79741 0.84699 0.0
O879 O 0.79187 0.76564 0.82113 0.0
O880 O 0.82335 0.7613 0.7997 0.0
O881 O 0.79256 0.73314 0.788 0.0
O882 O 0.74543 0.74285 0.80959 0.0
O883 O 0.74359 0.72932 0.77044 0.0
O884 O 0.76563 0.76264 0.74903 0.0
O885 O 0.78993 0.78487 0.7733 0.0
O886 O 0.75499 0.79394 0.80017 0.0
O887 O 0.78481 0.82316 0.80553 0.0
H888 H 0.87099 0.80854 0.84634 0.0
H889 H 0.90327 0.79606 0.83521 0.0
H890 H 0.89798 0.83217 0.77199 0.0
H891 H 0.86682 0.84588 0.78412 0.0
H892 H 0.7155 0.75669 0.76011 0.0
H893 H 0.68464 0.77477 0.76758 0.0
H894 H 0.67524 0.73211 0.8254 0.0
H895 H 0.70482 0.71308 0.81642 0.0
C896 C 0.59764 0.56835 0.58973 0.0
Eu897 Eu 0.56065 0.5475 0.56911 0.0
C898 C 0.61603 0.55681 0.58731 0.0
C899 C 0.63248 0.56029 0.60653 0.0
C900 C 0.64735 0.54471 0.60583 0.0
C901 C 0.64523 0.52531 0.58631 0.0
C902 C 0.62894 0.52212 0.56716 0.0
C903 C 0.61461 0.53786 0.56754 0.0
C904 C 0.52705 0.54195 0.59579 0.0
C905 C 0.55754 0.4882 0.56541 0.0
C906 C 0.48911 0.49206 0.51662 0.0
Eu907 Eu 0.52646 0.51309 0.53469 0.0
C908 C 0.47173 0.50458 0.5219 0.0
C909 C 0.45554 0.50493 0.50347 0.0
C910 C 0.44413 0.52413 0.50544 0.0
C911 C 0.44912 0.54313 0.52571 0.0
C912 C 0.46436 0.54165 0.54474 0.0
C913 C 0.47543 0.52259 0.54282 0.0
C914 C 0.56025 0.51791 0.50842 0.0
C915 C 0.53023 0.57174 0.53513 0.0
O916 O 0.58888 0.57417 0.56963 0.0
O917 O 0.58413 0.55637 0.60114 0.0
O918 O 0.54444 0.5569 0.6026 0.0
O919 O 0.5274 0.53185 0.57361 0.0
O920 O 0.56943 0.50996 0.5712 0.0
O921 O 0.53893 0.4847 0.55286 0.0
O922 O 0.49918 0.48545 0.53549 0.0
O923 O 0.50166 0.50387 0.50396 0.0
O924 O 0.54238 0.50407 0.5009 0.0
O925 O 0.55986 0.52832 0.53045 0.0
O926 O 0.51821 0.55008 0.53101 0.0
O927 O 0.54858 0.57572 0.54879 0.0
H928 H 0.63342 0.57445 0.62224 0.0
H929 H 0.66018 0.54752 0.62049 0.0
H930 H 0.62737 0.50739 0.5518 0.0
H931 H 0.60175 0.53451 0.55289 0.0
H932 H 0.45289 0.49163 0.48682 0.0
H933 H 0.43216 0.52473 0.49066 0.0
H934 H 0.469 0.55622 0.56028 0.0
H935 H 0.4887 0.52375 0.55637 0.0
C936 C 0.98426 0.52964 0.06577 0.0
Eu937 Eu 0.02327 0.52787 0.06026 0.0
C938 C 0.96856 0.54602 0.06397 0.0
C939 C 0.95814 0.55185 0.08423 0.0
C940 C 0.94289 0.56678 0.08325 0.0
C941 C 0.93755 0.57624 0.0619 0.0
C942 C 0.94803 0.57045 0.04155 0.0
C943 C 0.96345 0.55556 0.0426 0.0
C944 C 0.05499 0.52038 0.09464 0.0
C945 C 0.0545 0.58063 0.0696 0.0
C946 C 0.10634 0.53061 0.03148 0.0
Eu947 Eu 0.06809 0.5342 0.0393 0.0
C948 C 0.12283 0.51656 0.03833 0.0
C949 C 0.14072 0.51783 0.02636 0.0
C950 C 0.15652 0.50457 0.03234 0.0
C951 C 0.1548 0.48973 0.05052 0.0
C952 C 0.13658 0.48815 0.06215 0.0
C953 C 0.12073 0.50139 0.05608 0.0
C954 C 0.03601 0.5412 1.00466 0.0
C955 C 0.03974 0.48099 0.03529 0.0
O956 O 0.99011 0.51927 0.04558 0.0
O957 O 0.99975 0.53672 0.08351 0.0
O958 O 0.03525 0.51745 0.09717 0.0
O959 O 0.05619 0.52558 0.07336 0.0
O960 O 0.03493 0.56888 0.06666 0.0
O961 O 0.07037 0.57051 0.06275 0.0
O962 O 0.10176 0.54683 0.04867 0.0
O963 O 0.08973 0.51807 0.0174 0.0
O964 O 0.05571 0.54385 1.00207 0.0
O965 O 0.03503 0.53626 0.02603 0.0
O966 O 0.05863 0.49431 0.04031 0.0
O967 O 0.02262 0.48995 0.03956 0.0
H968 H 0.96168 0.54463 0.10086 0.0
H969 H 0.93494 0.57047 0.09913 0.0
H970 H 0.94439 0.57756 0.02489 0.0
H971 H 0.97128 0.55146 0.02669 0.0
H972 H 0.14256 0.52927 0.01245 0.0
H973 H 0.17036 0.5065 0.02318 0.0
H974 H 0.13455 0.47668 0.076 0.0
H975 H 0.1069 0.49985 0.0653 0.0
H976 H 0.02751 0.20592 0.9984 0.0
H977 H 0.98739 0.16661 0.9331 0.0
H978 H 0.98935 0.12784 0.94794 0.0
H979 H 0.06142 0.16192 1.00245 0.0
H980 H 0.06443 0.16521 0.03531 0.0
H981 H 0.05909 0.19047 0.02061 0.0
H982 H 0.02659 0.19329 0.04307 0.0
H983 H 0.0319 0.16809 0.05795 0.0
H984 H 1.00676 0.16661 0.04047 0.0
H985 H 0.99486 0.09364 0.96917 0.0
H986 H 1.00539 0.06464 0.99496 0.0
H987 H 0.04419 0.12429 0.04608 0.0
C988 C 0.0189 0.18916 0.98744 0.0
C989 C 1.00708 0.18936 0.96466 0.0
C990 C 0.99639 0.167 0.95065 0.0
C991 C 0.99741 0.14484 0.95892 0.0
C992 C 1.00927 0.14521 0.98124 0.0
C993 C 0.01992 0.16667 0.99535 0.0
C994 C 0.03205 0.16148 0.01831 0.0
C995 C 0.05565 0.17029 0.01921 0.0
C996 C 0.02383 0.17306 0.04131 0.0
C997 C 0.02677 0.13374 0.01456 0.0
C998 C 1.01329 0.12497 0.99321 0.0
C999 C 1.00544 0.10024 0.98591 0.0
C1000 C 1.01146 0.08392 1.00078 0.0
C1001 C 0.02557 0.09219 0.02254 0.0
C1002 C 0.03346 0.11747 0.02948 0.0
H1003 H 0.15466 0.77911 0.19561 0.0
H1004 H 0.14932 0.85364 0.2244 0.0
H1005 H 0.18347 0.85862 0.24984 0.0
H1006 H 0.17658 0.76575 0.25307 0.0
H1007 H 0.19384 0.74663 0.2402 0.0
H1008 H 0.16983 0.7491 0.22235 0.0
H1009 H 0.19057 0.76256 0.1882 0.0
H1010 H 0.21465 0.76011 0.20595 0.0
H1011 H 0.21156 0.78838 0.19552 0.0
H1012 H 0.21736 0.85622 0.2715 0.0
H1013 H 0.24871 0.84591 0.29249 0.0
H1014 H 0.23247 0.77125 0.2536 0.0
C1015 C 0.16093 0.79655 0.20703 0.0
C1016 C 0.1496 0.81623 0.20781 0.0
C1017 C 0.15787 0.83851 0.22345 0.0
C1018 C 0.17725 0.84149 0.23788 0.0
C1019 C 0.18801 0.82183 0.23686 0.0
C1020 C 0.18015 0.79965 0.22217 0.0
C1021 C 0.19448 0.7811 0.22617 0.0
C1022 C 0.18299 0.75936 0.23604 0.0
C1023 C 0.20334 0.77254 0.20255 0.0
C1024 C 0.21156 0.79646 0.24539 0.0
C1025 C 0.20745 0.81995 0.25082 0.0
C1026 C 0.22071 0.83787 0.26755 0.0
C1027 C 0.23857 0.83172 0.2794 0.0
C1028 C 0.24309 0.80767 0.27493 0.0
C1029 C 0.22942 0.78974 0.25749 0.0
H1030 H 0.53996 0.84302 0.49065 0.0
H1031 H 0.48021 0.83663 0.44634 0.0
H1032 H 0.47583 0.87716 0.46735 0.0
H1033 H 0.52466 0.87857 0.54765 0.0
H1034 H 0.55046 0.89663 0.55523 0.0
H1035 H 0.54711 0.86545 0.53985 0.0
H1036 H 0.56702 0.88001 0.5054 0.0
H1037 H 0.57023 0.91114 0.52049 0.0
H1038 H 0.55786 0.90274 0.4893 0.0
H1039 H 0.47977 0.91968 0.48954 0.0
H1040 H 0.49197 0.96194 0.51085 0.0
H1041 H 0.54984 0.94152 0.54012 0.0
C1042 C 0.52565 0.84988 0.48617 0.0
C1043 C 0.51012 0.83672 0.4675 0.0
C1044 C 0.49192 0.84637 0.46117 0.0
C1045 C 0.48934 0.86931 0.47295 0.0
C1046 C 0.50509 0.88216 0.4911 0.0
C1047 C 0.52281 0.87274 0.49788 0.0
C1048 C 0.53816 0.89118 0.51642 0.0
C1049 C 0.54022 0.88244 0.54126 0.0
C1050 C 0.55957 0.89658 0.50733 0.0
C1051 C 0.52701 0.91298 0.51759 0.0
C1052 C 0.50767 0.90712 0.50345 0.0
C1053 C 0.49473 0.92439 0.50098 0.0
C1054 C 0.50179 0.94832 0.51317 0.0
C1055 C 0.52179 0.95488 0.52718 0.0
C1056 C 0.53446 0.93693 0.52956 0.0
H1057 H 0.52541 0.2796 0.73766 0.0
H1058 H 0.51516 0.30912 0.67061 0.0
H1059 H 0.47753 0.3065 0.67528 0.0
H1060 H 0.47704 0.23686 0.72807 0.0
H1061 H 0.47388 0.24114 0.76003 0.0
H1062 H 0.4997 0.24505 0.75095 0.0
H1063 H 0.50811 0.28877 0.77621 0.0
H1064 H 0.48238 0.28493 0.78547 0.0
H1065 H 0.49109 0.31038 0.77068 0.0
H1066 H 0.44071 0.30147 0.68867 0.0
H1067 H 0.40888 0.29436 0.70908 0.0
H1068 H 0.44459 0.26829 0.76683 0.0
C1069 C 0.51537 0.28561 0.72389 0.0
C1070 C 0.52334 0.29475 0.70383 0.0
C1071 C 0.50947 0.30216 0.68621 0.0
C1072 C 0.48806 0.30068 0.68868 0.0
C1073 C 0.4808 0.29158 0.70878 0.0
C1074 C 0.49412 0.28412 0.72599 0.0
C1075 C 0.48274 0.27517 0.74604 0.0
C1076 C 0.48338 0.24794 0.74627 0.0
C1077 C 0.49161 0.29075 0.77107 0.0
C1078 C 0.46094 0.27917 0.73778 0.0
C1079 C 0.45997 0.28851 0.71621 0.0
C1080 C 0.44135 0.2941 0.70554 0.0
C1081 C 0.42338 0.29015 0.71732 0.0
C1082 C 0.42418 0.28066 0.73952 0.0
C1083 C 0.44328 0.27511 0.74967 0.0
H1084 H 0.02458 0.80987 0.63518 0.0
H1085 H 0.0307 0.75396 0.57506 0.0
H1086 H 0.05655 0.7837 0.56045 0.0
H1087 H 0.02733 0.85914 0.60366 0.0
H1088 H 0.04166 0.88033 0.62958 0.0
H1089 H 0.02472 0.85366 0.63429 0.0
H1090 H 0.05626 0.84235 0.66015 0.0
H1091 H 0.07348 0.86839 0.65402 0.0
H1092 H 0.07956 0.83815 0.64652 0.0
H1093 H 0.07849 0.82044 0.55047 0.0
H1094 H 0.08786 0.862 0.54136 0.0
H1095 H 0.07186 0.89227 0.61123 0.0
C1096 C 0.03115 0.80383 0.61877 0.0
C1097 C 0.02557 0.77966 0.60617 0.0
C1098 C 0.03466 0.77251 0.58488 0.0
C1099 C 0.04964 0.78911 0.57677 0.0
C1100 C 0.05564 0.81245 0.59053 0.0
C1101 C 0.04643 0.81982 0.61089 0.0
C1102 C 0.05424 0.84628 0.62156 0.0
C1103 C 0.03592 0.86069 0.62227 0.0
C1104 C 0.06663 0.84893 0.64708 0.0
C1105 C 0.06843 0.85327 0.60308 0.0
C1106 C 0.06949 0.83333 0.58563 0.0
C1107 C 0.0783 0.83606 0.56428 0.0
C1108 C 0.08397 0.85975 0.55938 0.0
C1109 C 0.0805 0.87997 0.57572 0.0
C1110 C 0.07511 0.87687 0.59894 0.0
H1111 H 0.52867 0.88513 0.92305 0.0
H1112 H 0.53031 0.82029 0.95658 0.0
H1113 H 0.49376 0.80454 0.93885 0.0
H1114 H 0.47388 0.88981 0.93264 0.0
H1115 H 0.46913 0.90103 0.90429 0.0
H1116 H 0.49495 0.90765 0.92127 0.0
H1117 H 0.50956 0.88893 0.88265 0.0
H1118 H 0.48372 0.8814 0.86579 0.0
H1119 H 0.49929 0.85782 0.8685 0.0
H1120 H 0.45831 0.79398 0.91386 0.0
H1121 H 0.42431 0.79269 0.88905 0.0
H1122 H 0.44575 0.86559 0.87456 0.0
C1123 C 0.52118 0.86803 0.92739 0.0
C1124 C 0.53235 0.85403 0.9412 0.0
C1125 C 0.52206 0.83142 0.94602 0.0
C1126 C 0.50133 0.82222 0.93596 0.0
C1127 C 0.49106 0.83609 0.92158 0.0
C1128 C 0.50043 0.8588 0.9179 0.0
C1129 C 0.48598 0.87006 0.90174 0.0
C1130 C 0.48067 0.89352 0.91583 0.0
C1131 C 0.4952 0.87482 0.87829 0.0
C1132 C 0.46728 0.84982 0.89635 0.0
C1133 C 0.47049 0.83031 0.90783 0.0
C1134 C 0.45545 0.80933 0.90512 0.0
C1135 C 0.43626 0.80875 0.89102 0.0
C1136 C 0.43242 0.8291 0.88004 0.0
C1137 C 0.44831 0.84962 0.88243 0.0
H1138 H 0.48162 0.15537 0.08685 0.0
H1139 H 0.49596 0.12419 0.15172 0.0
H1140 H 0.52394 0.10634 0.13326 0.0
H1141 H 0.49483 0.10315 0.04274 0.0
H1142 H 0.50401 0.12461 0.02358 0.0
H1143 H 0.48308 0.12999 0.04109 0.0
H1144 H 0.50503 0.17268 0.05911 0.0
H1145 H 0.52695 0.16622 0.04371 0.0
H1146 H 0.5303 0.17465 0.0765 0.0
H1147 H 0.55761 0.10522 0.11387 0.0
H1148 H 0.57828 0.09154 0.081 0.0
H1149 H 0.54008 0.11913 0.02874 0.0
C1150 C 0.48975 0.14357 0.09665 0.0
C1151 C 0.48868 0.1435 0.12174 0.0
C1152 C 0.49786 0.12592 0.13297 0.0
C1153 C 0.51437 0.11657 0.1231 0.0
C1154 C 0.51921 0.12292 0.10096 0.0
C1155 C 0.5061 0.13402 0.0868 0.0
C1156 C 0.51401 0.13719 0.06278 0.0
C1157 C 0.49806 0.12286 0.04128 0.0
C1158 C 0.51938 0.1643 0.06042 0.0
C1159 C 0.53361 0.1261 0.06576 0.0
C1160 C 0.5369 0.11937 0.08857 0.0
C1161 C 0.55413 0.10886 0.0955 0.0
C1162 C 0.56577 0.10122 0.07702 0.0
C1163 C 0.557 0.09978 0.05269 0.0
C1164 C 0.54512 0.11773 0.04752 0.0
H1165 H 0.12911 0.33313 0.39407 0.0
H1166 H 0.12757 0.26918 0.42936 0.0
H1167 H 0.13617 0.24561 0.39198 0.0
H1168 H 0.10847 0.30349 0.33332 0.0
H1169 H 0.12631 0.32233 0.31846 0.0
H1170 H 0.11912 0.33448 0.34752 0.0
H1171 H 0.15806 0.34543 0.3665 0.0
H1172 H 0.16521 0.33441 0.33718 0.0
H1173 H 0.17439 0.32227 0.36367 0.0
H1174 H 0.14302 0.22857 0.35112 0.0
H1175 H 0.15948 0.22193 0.31361 0.0
H1176 H 0.15916 0.29737 0.3052 0.0
C1177 C 0.13088 0.31424 0.39388 0.0
C1178 C 0.1276 0.30275 0.41428 0.0
C1179 C 0.13019 0.27819 0.41381 0.0
C1180 C 0.13468 0.26459 0.39258 0.0
C1181 C 0.13685 0.27606 0.37232 0.0
C1182 C 0.13595 0.30056 0.37306 0.0
C1183 C 0.14127 0.30899 0.34959 0.0
C1184 C 0.12267 0.31784 0.33645 0.0
C1185 C 0.16091 0.32893 0.35455 0.0
C1186 C 0.14536 0.28531 0.33563 0.0
C1187 C 0.14199 0.26643 0.34883 0.0
C1188 C 0.14568 0.2431 0.34048 0.0
C1189 C 0.15471 0.23938 0.31894 0.0
C1190 C 0.16037 0.2591 0.30655 0.0
C1191 C 0.15451 0.28193 0.31416 0.0
H1192 H 0.96368 0.08016 0.2102 0.0
H1193 H 0.9489 1.00309 0.21375 0.0
H1194 H 0.96666 0.99348 0.17729 0.0
H1195 H 0.956 0.07276 0.14308 0.0
H1196 H 0.97707 0.09698 0.14142 0.0
H1197 H 0.96345 0.09809 0.16792 0.0
H1198 H 0.99846 0.10215 0.19574 0.0
H1199 H 1.01219 0.10112 0.16933 0.0
H1200 H 1.01508 0.07965 0.18996 0.0
H1201 H 0.98605 0.99182 0.139 0.0
H1202 H 1.00561 0.99832 0.10424 0.0
H1203 H 1.00892 0.07647 0.12401 0.0
C1204 C 0.96426 0.06125 0.20337 0.0
C1205 C 0.95475 0.04235 0.21537 0.0
C1206 C 0.95591 0.01795 0.20532 0.0
C1207 C 0.96603 1.01231 0.18441 0.0
C1208 C 0.9751 0.03116 0.173 0.0
C1209 C 0.97431 0.05522 0.18214 0.0
C1210 C 0.98518 0.07194 0.16607 0.0
C1211 C 0.96949 0.08577 0.15391 0.0
C1212 C 1.00384 0.08977 0.18118 0.0
C1213 C 0.99252 0.05367 0.14683 0.0
C1214 C 0.98632 0.0302 0.15111 0.0
C1215 C 0.99092 1.0102 0.13569 0.0
C1216 C 1.00211 0.01408 0.11572 0.0
C1217 C 1.00909 0.03787 0.11081 0.0
C1218 C 1.004 0.05794 0.12687 0.0
H1219 H 0.30829 0.71616 0.49124 0.0
H1220 H 0.33938 0.78673 0.53151 0.0
H1221 H 0.30877 0.80489 0.51783 0.0
H1222 H 0.28375 0.73397 0.44067 0.0
H1223 H 0.26022 0.71191 0.43898 0.0
H1224 H 0.28463 0.70597 0.45256 0.0
H1225 H 0.26782 0.69965 0.49164 0.0
H1226 H 0.24352 0.70693 0.47865 0.0
H1227 H 0.25669 0.72383 0.50755 0.0
H1228 H 0.2761 0.81504 0.49863 0.0
H1229 H 0.25133 0.81944 0.46469 0.0
H1230 H 0.23745 0.74086 0.44273 0.0
C1231 C 0.30903 0.73562 0.49673 0.0
C1232 C 0.3263 0.75021 0.51225 0.0
C1233 C 0.32637 0.77542 0.51934 0.0
C1234 C 0.30885 0.78563 0.51227 0.0
C1235 C 0.29132 0.77014 0.49891 0.0
C1236 C 0.29147 0.74578 0.49085 0.0
C1237 C 0.27118 0.73317 0.47563 0.0
C1238 C 0.27518 0.72057 0.45047 0.0
C1239 C 0.25909 0.71482 0.48918 0.0
C1240 C 0.26034 0.75497 0.47403 0.0
C1241 C 0.27181 0.77585 0.48867 0.0
C1242 C 0.26701 0.79887 0.48717 0.0
C1243 C 0.25253 0.8011 0.46771 0.0
C1244 C 0.24408 0.78045 0.44954 0.0
C1245 C 0.24485 0.75702 0.45554 0.0
H1246 H 0.61687 0.97692 0.71223 0.0
H1247 H 0.6427 0.05297 0.73931 0.0
H1248 H 0.62553 0.06443 0.70197 0.0
H1249 H 0.62238 0.98087 0.6473 0.0
H1250 H 0.59864 0.95966 0.63547 0.0
H1251 H 0.61329 0.95706 0.66395 0.0
H1252 H 0.58047 0.95964 0.68577 0.0
H1253 H 0.56571 0.96199 0.65734 0.0
H1254 H 0.5669 0.9851 0.6838 0.0
H1255 H 0.60573 0.06786 0.66052 0.0
H1256 H 0.5825 0.0634 0.62162 0.0
H1257 H 0.56717 0.98562 0.62098 0.0
C1258 C 0.61886 0.99599 0.7103 0.0
C1259 C 0.63128 0.01408 0.72906 0.0
C1260 C 0.63345 0.03875 0.72544 0.0
C1261 C 0.62373 0.04543 0.70413 0.0
C1262 C 0.61182 0.02729 0.68594 0.0
C1263 C 0.60927 1.00302 0.68881 0.0
C1264 C 0.59551 0.98723 0.66637 0.0
C1265 C 0.6082 0.97018 0.65246 0.0
C1266 C 0.57598 0.97263 0.67377 0.0
C1267 C 0.5898 1.00642 0.65111 0.0
C1268 C 0.59997 0.02935 0.66245 0.0
C1269 C 0.59772 0.04993 0.65166 0.0
C1270 C 0.58445 0.04722 0.62931 0.0
C1271 C 0.57296 0.02421 0.61768 0.0
C1272 C 0.57592 1.00349 0.62891 0.0
H1273 H 0.31558 0.38839 0.97236 0.0
H1274 H 0.31908 0.3291 0.01367 0.0
H1275 H 0.31628 0.30013 0.97503 0.0
H1276 H 0.27789 0.35598 0.92395 0.0
H1277 H 0.28958 0.37045 0.90075 0.0
H1278 H 0.29285 0.38643 0.93167 0.0
H1279 H 0.33314 0.39271 0.93247 0.0
H1280 H 0.32998 0.37672 0.90152 0.0
H1281 H 0.34568 0.36658 0.92527 0.0
H1282 H 0.31293 0.27761 0.93121 0.0
H1283 H 0.3077 0.26365 0.88622 0.0
H1284 H 0.30515 0.33774 0.87476 0.0
C1285 C 0.31583 0.36934 0.97339 0.0
C1286 C 0.31756 0.36104 0.99607 0.0
C1287 C 0.31781 0.33592 0.9965 0.0
C1288 C 0.31626 0.31933 0.97466 0.0
C1289 C 0.31453 0.32819 0.95261 0.0
C1290 C 0.31429 0.35263 0.95188 0.0
C1291 C 0.31184 0.35759 0.92595 0.0
C1292 C 0.29185 0.36823 0.92025 0.0
C1293 C 0.33132 0.37439 0.92102 0.0
C1294 C 0.31016 0.33204 0.9121 0.0
C1295 C 0.31211 0.3153 0.9277 0.0
C1296 C 0.31136 0.29056 0.91886 0.0
C1297 C 0.30843 0.28279 0.89342 0.0
C1298 C 0.30595 0.29972 0.87743 0.0
C1299 C 0.30688 0.32454 0.88684 0.0
H1300 H 0.98046 0.07118 0.37589 0.0
H1301 H 0.94105 0.99996 0.35892 0.0
H1302 H 0.95402 0.99083 0.39912 0.0
H1303 H 0.02414 0.05383 0.40781 0.0
H1304 H 0.03036 0.08024 0.4316 0.0
H1305 H 0.01707 0.08253 0.40227 0.0
H1306 H 0.98715 0.09851 0.42308 0.0
H1307 H 1.00049 0.09653 0.45251 0.0
H1308 H 0.97394 0.08103 0.44325 0.0
H1309 H 0.97403 0.98705 0.43936 0.0
H1310 H 0.99626 0.99063 0.47863 0.0
H1311 H 0.02205 0.06533 0.47356 0.0
C1312 C 0.97398 0.05404 0.38103 0.0
C1313 C 0.95904 0.03653 0.36407 0.0
C1314 C 0.95187 0.01398 0.37148 0.0
C1315 C 0.95936 1.00852 0.39436 0.0
C1316 C 0.97418 0.0258 0.41039 0.0
C1317 C 0.98113 0.04839 0.40436 0.0
C1318 C 0.99731 0.06342 0.42528 0.0
C1319 C 0.01848 0.07042 0.41619 0.0
C1320 C 0.98924 0.08623 0.43671 0.0
C1321 C 0.99879 0.0455 0.44349 0.0
C1322 C 0.98529 0.02388 0.43427 0.0
C1323 C 0.98439 1.00406 0.44682 0.0
C1324 C 0.99729 1.00626 0.46928 0.0
C1325 C 1.01111 0.02824 0.4798 0.0
C1326 C 1.01165 0.04824 0.46649 0.0
H1327 H 0.30154 0.72549 0.62925 0.0
H1328 H 0.34958 0.68513 0.65203 0.0
H1329 H 0.3466 0.69988 0.69531 0.0
H1330 H 0.31658 0.77721 0.67153 0.0
H1331 H 0.29074 0.78236 0.67694 0.0
H1332 H 0.29456 0.76572 0.64819 0.0
H1333 H 0.26688 0.72959 0.65438 0.0
H1334 H 0.26332 0.74611 0.68348 0.0
H1335 H 0.27014 0.71605 0.68156 0.0
H1336 H 0.34513 0.72568 0.7325 0.0
H1337 H 0.34402 0.76 0.76401 0.0
H1338 H 0.29174 0.77941 0.72099 0.0
C1339 C 0.31119 0.71971 0.64355 0.0
C1340 C 0.32598 0.70465 0.63798 0.0
C1341 C 0.33843 0.69701 0.6565 0.0
C1342 C 0.33657 0.70495 0.6809 0.0
C1343 C 0.32179 0.71984 0.686 0.0
C1344 C 0.30916 0.72703 0.66796 0.0
C1345 C 0.296 0.74494 0.67854 0.0
C1346 C 0.29972 0.76897 0.66819 0.0
C1347 C 0.2727 0.73348 0.67424 0.0
C1348 C 0.30475 0.74842 0.70526 0.0
C1349 C 0.31933 0.73331 0.70898 0.0
C1350 C 0.33296 0.7366 0.7304 0.0
C1351 C 0.33214 0.75616 0.74829 0.0
C1352 C 0.31693 0.77126 0.74542 0.0
C1353 C 0.30273 0.76716 0.7239 0.0
H1354 H 0.59518 1.0037 0.8666 0.0
H1355 H 0.65825 0.04013 0.89504 0.0
H1356 H 0.64827 0.04527 0.93689 0.0
H1357 H 0.56687 0.03742 0.9054 0.0
H1358 H 0.54832 1.01204 0.91057 0.0
H1359 H 0.56036 1.00997 0.88291 0.0
H1360 H 0.57361 0.97076 0.89211 0.0
H1361 H 0.56144 0.97261 0.91973 0.0
H1362 H 0.58891 0.97124 0.92106 0.0
H1363 H 0.63084 0.04878 0.97589 0.0
H1364 H 0.60883 0.0479 0.0089 0.0
H1365 H 0.55625 1.00771 0.95716 0.0
C1366 C 0.60701 1.01231 0.88172 0.0
C1367 C 0.62777 0.02124 0.87723 0.0
C1368 C 0.64251 0.03265 0.89772 0.0
C1369 C 0.63686 0.03582 0.92167 0.0
C1370 C 0.61636 0.02703 0.92541 0.0
C1371 C 0.60174 0.01496 0.90606 0.0
C1372 C 0.58092 1.00671 0.91545 0.0
C1373 C 0.56306 0.01717 0.90283 0.0
C1374 C 0.57592 0.97867 0.91186 0.0
C1375 C 0.58567 0.01743 0.94275 0.0
C1376 C 0.60637 0.02871 0.94802 0.0
C1377 C 0.61469 0.03978 0.97183 0.0
C1378 C 0.60187 0.03915 0.99066 0.0
C1379 C 0.58049 0.02771 0.98623 0.0
C1380 C 0.57237 0.01677 0.96157 0.0
H1381 H 0.3087 0.32857 0.12793 0.0
H1382 H 0.33496 0.40097 0.16796 0.0
H1383 H 0.33428 0.38511 0.20671 0.0
H1384 H 0.27381 0.31189 0.1706 0.0
H1385 H 0.27744 0.28046 0.16721 0.0
H1386 H 0.28059 0.29715 0.14229 0.0
H1387 H 0.31785 0.28694 0.14081 0.0
H1388 H 0.31486 0.27034 0.16585 0.0
H1389 H 0.33662 0.29486 0.16803 0.0
H1390 H 0.33031 0.36227 0.24115 0.0
H1391 H 0.32162 0.33393 0.2697 0.0
H1392 H 0.29778 0.27565 0.20852 0.0
C1393 C 0.31444 0.34103 0.14485 0.0
C1394 C 0.32205 0.36605 0.1448 0.0
C1395 C 0.32921 0.38174 0.1674 0.0
C1396 C 0.32891 0.3729 0.18957 0.0
C1397 C 0.32145 0.34822 0.18901 0.0
C1398 C 0.31427 0.33245 0.16731 0.0
C1399 C 0.30657 0.30685 0.17215 0.0
C1400 C 0.28322 0.29862 0.16249 0.0
C1401 C 0.31976 0.28867 0.16105 0.0
C1402 C 0.31031 0.31087 0.19993 0.0
C1403 C 0.31907 0.33488 0.20915 0.0
C1404 C 0.32357 0.34338 0.23416 0.0
C1405 C 0.31864 0.3271 0.25025 0.0
C1406 C 0.3092 0.30252 0.24142 0.0
C1407 C 0.30528 0.29422 0.21585 0.0
H1408 H 0.2211 0.94076 0.04103 0.0
H1409 H 0.17693 0.87748 0.04973 0.0
H1410 H 0.15316 0.90475 0.06522 0.0
H1411 H 0.21478 0.97888 0.09455 0.0
H1412 H 0.21684 1.00638 0.08127 0.0
H1413 H 0.22985 0.98193 0.06956 0.0
H1414 H 0.21072 0.98005 0.02603 0.0
H1415 H 0.19793 1.00481 0.03744 0.0
H1416 H 0.18259 0.97645 0.02137 0.0
H1417 H 0.13516 0.93874 0.08077 0.0
H1418 H 0.12293 0.97756 0.09416 0.0
H1419 H 0.1791 0.01817 0.07502 0.0
C1420 C 0.20639 0.93258 0.04608 0.0
C1421 C 0.20085 0.90711 0.04447 0.0
C1422 C 0.18144 0.89704 0.05103 0.0
C1423 C 0.16789 0.91233 0.0598 0.0
C1424 C 0.17409 0.93744 0.06168 0.0
C1425 C 0.19276 0.94748 0.05477 0.0
C1426 C 0.19591 0.97501 0.05881 0.0
C1427 C 0.21551 0.9862 0.07715 0.0
C1428 C 0.19683 0.98464 0.03446 0.0
C1429 C 0.17618 0.97897 0.06947 0.0
C1430 C 0.16381 0.95708 0.07095 0.0
C1431 C 0.14475 0.95604 0.08009 0.0
C1432 C 0.13808 0.97805 0.08781 0.0
C1433 C 0.15043 1.00057 0.0861 0.0
C1434 C 0.16967 1.00107 0.07684 0.0
H1435 H 0.6876 0.61215 0.99304 0.0
H1436 H 0.70803 0.64323 0.06908 0.0
H1437 H 0.67367 0.62578 0.0799 0.0
H1438 H 0.63355 0.62309 0.99403 0.0
H1439 H 0.62252 0.59537 0.97317 0.0
H1440 H 0.6485 0.61075 0.9713 0.0
H1441 H 0.66333 0.5712 0.976 0.0
H1442 H 0.63739 0.55565 0.97745 0.0
H1443 H 0.65811 0.55622 1.00169 0.0
H1444 H 0.63676 0.60451 0.08233 0.0
H1445 H 0.60205 0.57774 0.07659 0.0
H1446 H 0.60593 0.56034 0.99918 0.0
C1447 C 0.68477 0.61514 0.01194 0.0
C1448 C 0.70037 0.6289 0.03031 0.0
C1449 C 0.69617 0.63273 0.05481 0.0
C1450 C 0.6767 0.62299 0.06108 0.0
C1451 C 0.66143 0.60978 0.04254 0.0
C1452 C 0.66527 0.6058 0.01846 0.0
C1453 C 0.6463 0.59076 1.00207 0.0
C1454 C 0.63718 0.60589 0.98408 0.0
C1455 C 0.65161 0.56704 0.98852 0.0
C1456 C 0.63164 0.58578 0.02081 0.0
C1457 C 0.64038 0.59749 0.04397 0.0
C1458 C 0.62972 0.59543 0.06423 0.0
C1459 C 0.60992 0.58043 0.06081 0.0
C1460 C 0.60126 0.56736 0.03742 0.0
C1461 C 0.61213 0.57045 0.0172 0.0
H1462 H 0.73273 0.45514 0.33132 0.0
H1463 H 0.67925 0.42435 0.27681 0.0
H1464 H 0.69324 0.38602 0.26914 0.0
H1465 H 0.77215 0.42638 0.30212 0.0
H1466 H 0.78523 0.41939 0.32967 0.0
H1467 H 0.77149 0.44497 0.33119 0.0
H1468 H 0.74953 0.42733 0.36237 0.0
H1469 H 0.76318 0.40165 0.3609 0.0
H1470 H 0.73508 0.39664 0.3547 0.0
H1471 H 0.71262 0.34979 0.26698 0.0
H1472 H 0.73545 0.31912 0.27056 0.0
H1473 H 0.77776 0.37051 0.32656 0.0
C1474 C 0.72399 0.44039 0.31768 0.0
C1475 C 0.7046 0.44344 0.30459 0.0
C1476 C 0.69389 0.42308 0.28724 0.0
C1477 C 0.70182 0.40098 0.28268 0.0
C1478 C 0.72066 0.39852 0.29579 0.0
C1479 C 0.73161 0.41758 0.31315 0.0
C1480 C 0.75116 0.4093 0.32518 0.0
C1481 C 0.7712 0.42601 0.32184 0.0
C1482 C 0.74966 0.40872 0.35241 0.0
C1483 C 0.74994 0.38319 0.31115 0.0
C1484 C 0.73193 0.3774 0.29456 0.0
C1485 C 0.72673 0.35432 0.27994 0.0
C1486 C 0.73996 0.33678 0.28218 0.0
C1487 C 0.75881 0.34177 0.29873 0.0
C1488 C 0.76375 0.36571 0.31344 0.0
H1489 H 0.81194 0.3937 0.52972 0.0
H1490 H 0.79465 0.40481 0.45542 0.0
H1491 H 0.83172 0.41481 0.45046 0.0
H1492 H 0.85108 0.44306 0.54566 0.0
H1493 H 0.86917 0.42933 0.56362 0.0
H1494 H 0.84161 0.41781 0.56037 0.0
H1495 H 0.84805 0.3745 0.5437 0.0
H1496 H 0.87576 0.38586 0.54717 0.0
H1497 H 0.86237 0.37008 0.51795 0.0
H1498 H 0.86885 0.4291 0.45463 0.0
H1499 H 0.90557 0.44815 0.46821 0.0
H1500 H 0.90046 0.42961 0.54028 0.0
C1501 C 0.81608 0.39774 0.51229 0.0
C1502 C 0.8005 0.39857 0.49292 0.0
C1503 C 0.80636 0.40427 0.4705 0.0
C1504 C 0.82737 0.40971 0.46742 0.0
C1505 C 0.84236 0.40945 0.48697 0.0
C1506 C 0.83714 0.40357 0.509 0.0
C1507 C 0.85647 0.40748 0.52782 0.0
C1508 C 0.85445 0.42551 0.55071 0.0
C1509 C 0.86092 0.38302 0.53455 0.0
C1510 C 0.87296 0.41816 0.51333 0.0
C1511 C 0.86444 0.41829 0.48959 0.0
C1512 C 0.87588 0.42866 0.47297 0.0
C1513 C 0.89661 0.43949 0.48082 0.0
C1514 C 0.90556 0.43999 0.50506 0.0
C1515 C 0.89382 0.42895 0.52153 0.0
H1516 H 0.39147 0.13985 0.3212 0.0
H1517 H 0.36838 0.10175 0.24772 0.0
H1518 H 0.34677 0.13323 0.24153 0.0
H1519 H 0.34052 0.1576 0.33277 0.0
H1520 H 0.35179 0.18673 0.35108 0.0
H1521 H 0.36609 0.16162 0.35005 0.0
H1522 H 0.39725 0.18811 0.33635 0.0
H1523 H 0.38305 0.21327 0.33734 0.0
H1524 H 0.39306 0.20224 0.30966 0.0
H1525 H 0.32628 0.16867 0.24299 0.0
H1526 H 0.30916 0.20467 0.25198 0.0
H1527 H 0.34446 0.2223 0.32438 0.0
C1528 C 0.38199 0.13819 0.30373 0.0
C1529 C 0.38204 0.11782 0.28486 0.0
C1530 C 0.3689 0.11668 0.26258 0.0
C1531 C 0.35646 0.1347 0.25884 0.0
C1532 C 0.35664 0.15424 0.27762 0.0
C1533 C 0.36896 0.15609 0.29976 0.0
C1534 C 0.36536 0.17864 0.31714 0.0
C1535 C 0.35536 0.17068 0.33907 0.0
C1536 C 0.38591 0.19663 0.32562 0.0
C1537 C 0.34989 0.18966 0.30102 0.0
C1538 C 0.34487 0.17488 0.2784 0.0
C1539 C 0.33027 0.18032 0.26065 0.0
C1540 C 0.32051 0.201 0.26597 0.0
C1541 C 0.32532 0.21696 0.28878 0.0
C1542 C 0.34049 0.21102 0.30653 0.0
H1543 H 0.32553 0.11748 0.57034 0.0
H1544 H 0.32293 0.13531 0.49724 0.0
H1545 H 0.35898 0.12686 0.49515 0.0
H1546 H 0.3816 0.14472 0.58881 0.0
H1547 H 0.38583 0.12175 0.60729 0.0
H1548 H 0.36058 0.13096 0.60346 0.0
H1549 H 0.34329 0.08591 0.58773 0.0
H1550 H 0.36844 0.07661 0.59144 0.0
H1551 H 0.3524 0.06892 0.56214 0.0
H1552 H 0.39408 0.1121 0.49985 0.0
H1553 H 0.42521 0.09407 0.5113 0.0
H1554 H 0.40543 0.08883 0.58247 0.0
C1555 C 0.33261 0.11979 0.55395 0.0
C1556 C 0.32139 0.12679 0.53382 0.0
C1557 C 0.33127 0.12995 0.51284 0.0
C1558 C 0.35173 0.12521 0.51153 0.0
C1559 C 0.36225 0.11794 0.5316 0.0
C1560 C 0.35311 0.11569 0.55258 0.0
C1561 C 0.36751 0.10733 0.57152 0.0
C1562 C 0.37428 0.12738 0.5941 0.0
C1563 C 0.35729 0.08326 0.5786 0.0
C1564 C 0.38569 0.10376 0.55741 0.0
C1565 C 0.38256 0.11029 0.53456 0.0
C1566 C 0.39682 0.10733 0.51786 0.0
C1567 C 0.41453 0.09714 0.52458 0.0
C1568 C 0.41785 0.08991 0.54779 0.0
C1569 C 0.40333 0.09382 0.56447 0.0
H1570 H 0.70572 0.62356 0.34275 0.0
H1571 H 0.7195 0.57965 0.27774 0.0
H1572 H 0.73998 0.61651 0.26695 0.0
H1573 H 0.70189 0.67918 0.31879 0.0
H1574 H 0.71539 0.69952 0.34572 0.0
H1575 H 0.70125 0.67006 0.34839 0.0
H1576 H 0.73459 0.65929 0.37051 0.0
H1577 H 0.74871 0.68888 0.3683 0.0
H1578 H 0.75825 0.66165 0.35636 0.0
H1579 H 0.75777 0.65898 0.26187 0.0
H1580 H 0.77687 0.70112 0.26656 0.0
H1581 H 0.75524 0.71859 0.33677 0.0
C1582 C 0.71321 0.62163 0.32633 0.0
C1583 C 0.71081 0.59826 0.31109 0.0
C1584 C 0.72107 0.59692 0.2899 0.0
C1585 C 0.73264 0.61797 0.28349 0.0
C1586 C 0.73442 0.64062 0.29863 0.0
C1587 C 0.72546 0.6425 0.32001 0.0
C1588 C 0.73103 0.66887 0.33382 0.0
C1589 C 0.7112 0.68006 0.33686 0.0
C1590 C 0.74391 0.66972 0.35873 0.0
C1591 C 0.74423 0.68163 0.31674 0.0
C1592 C 0.7456 0.66492 0.29635 0.0
C1593 C 0.75677 0.67205 0.27784 0.0
C1594 C 0.76745 0.69629 0.28056 0.0
C1595 C 0.7673 0.71379 0.30165 0.0
C1596 C 0.75521 0.7062 0.31996 0.0
H1597 H 0.90712 0.44433 0.79373 0.0
H1598 H 0.85899 0.4857 0.77346 0.0
H1599 H 0.83199 0.44932 0.77225 0.0
H1600 H 0.88331 0.38583 0.75733 0.0
H1601 H 0.89085 0.36815 0.78021 0.0
H1602 H 0.90651 0.39716 0.77897 0.0
H1603 H 0.90288 0.41214 0.82418 0.0
H1604 H 0.88726 0.38313 0.82552 0.0
H1605 H 0.87719 0.41098 0.83353 0.0
H1606 H 0.80963 0.40789 0.77363 0.0
H1607 H 0.7942 0.36618 0.77889 0.0
H1608 H 0.85618 0.35079 0.79874 0.0
C1609 C 0.89091 0.44577 0.7889 0.0
C1610 C 0.88541 0.46826 0.78353 0.0
C1611 C 0.86385 0.46904 0.77766 0.0
C1612 C 0.84832 0.4483 0.77688 0.0
C1613 C 0.85427 0.42656 0.78225 0.0
C1614 C 0.87509 0.42521 0.78835 0.0
C1615 C 0.8772 0.39983 0.79419 0.0
C1616 C 0.89024 0.38699 0.77662 0.0
C1617 C 0.8867 0.40163 0.82094 0.0
C1618 C 0.8544 0.38698 0.79001 0.0
C1619 C 0.84144 0.40282 0.78318 0.0
C1620 C 0.81973 0.39543 0.77887 0.0
C1621 C 0.81105 0.37159 0.78183 0.0
C1622 C 0.82384 0.35491 0.78883 0.0
C1623 C 0.84591 0.36285 0.79289 0.0
H1624 H 0.09066 0.89364 0.14929 0.0
H1625 H 0.06793 0.83542 0.08775 0.0
H1626 H 0.06028 0.86596 0.06196 0.0
H1627 H 0.05325 0.9318 0.13662 0.0
H1628 H 0.07149 0.96002 0.14574 0.0
H1629 H 0.07557 0.93363 0.15919 0.0
H1630 H 0.11241 0.93728 0.14617 0.0
H1631 H 0.10858 0.96322 0.13176 0.0
H1632 H 0.11559 0.93659 0.11448 0.0
H1633 H 0.05218 0.90217 0.04398 0.0
H1634 H 0.046 0.94205 0.03401 0.0
H1635 H 0.07648 0.9778 0.10583 0.0
C1636 C 0.08424 0.88734 0.13032 0.0
C1637 C 0.07994 0.86209 0.12051 0.0
C1638 C 0.07152 0.85462 0.09562 0.0
C1639 C 0.06708 0.87185 0.08084 0.0
C1640 C 0.07145 0.89655 0.09108 0.0
C1641 C 0.08001 0.90436 0.11518 0.0
C1642 C 0.08302 0.93203 0.12165 0.0
C1643 C 0.07005 0.93982 0.142 0.0
C1644 C 0.10629 0.94295 0.12894 0.0
C1645 C 0.07458 0.93856 0.09748 0.0
C1646 C 0.06783 0.91771 0.0802 0.0
C1647 C 0.0578 0.91865 0.05716 0.0
C1648 C 0.05435 0.94137 0.05167 0.0
C1649 C 0.06115 0.963 0.06895 0.0
C1650 C 0.0717 0.96162 0.09204 0.0
H1651 H 0.93105 0.23207 0.87622 0.0
H1652 H 0.95482 0.30948 0.89711 0.0
H1653 H 0.91969 0.3187 0.88532 0.0
H1654 H 0.89989 0.23569 0.82374 0.0
H1655 H 0.87832 0.2125 0.8265 0.0
H1656 H 0.90417 0.21149 0.84062 0.0
H1657 H 0.89061 0.21122 0.88261 0.0
H1658 H 0.86461 0.21202 0.8685 0.0
H1659 H 0.87674 0.23493 0.8942 0.0
H1660 H 0.88332 0.31993 0.86751 0.0
H1661 H 0.8485 0.31319 0.84325 0.0
H1662 H 0.84795 0.23502 0.83197 0.0
C1663 C 0.92857 0.25085 0.87902 0.0
C1664 C 0.94544 0.27011 0.88801 0.0
C1665 C 0.94194 0.29453 0.89065 0.0
C1666 C 0.92205 0.29992 0.88404 0.0
C1667 C 0.90576 0.28064 0.87476 0.0
C1668 C 0.90871 0.25656 0.87233 0.0
C1669 C 0.88895 0.23952 0.85972 0.0
C1670 C 0.89309 0.22389 0.83625 0.0
C1671 C 0.87968 0.22347 0.87731 0.0
C1672 C 0.87499 0.25782 0.85413 0.0
C1673 C 0.8848 0.2814 0.86365 0.0
C1674 C 0.87539 0.30153 0.86023 0.0
C1675 C 0.85558 0.29752 0.84641 0.0
C1676 C 0.84551 0.27359 0.83576 0.0
C1677 C 0.85524 0.25349 0.84003 0.0
H1678 H 0.57943 0.22565 0.6105 0.0
H1679 H 0.57641 0.20634 0.68289 0.0
H1680 H 0.57022 0.16306 0.66523 0.0
H1681 H 0.53884 0.17571 0.57884 0.0
H1682 H 0.55176 0.17032 0.55204 0.0
H1683 H 0.55579 0.20045 0.56998 0.0
H1684 H 0.59578 0.20113 0.57497 0.0
H1685 H 0.59186 0.17093 0.55719 0.0
H1686 H 0.60621 0.177 0.58747 0.0
H1687 H 0.56354 0.12265 0.64131 0.0
H1688 H 0.55678 0.08516 0.61076 0.0
H1689 H 0.56541 0.12796 0.55293 0.0
C1690 C 0.57742 0.21226 0.62254 0.0
C1691 C 0.57856 0.21952 0.64814 0.0
C1692 C 0.57583 0.20142 0.66329 0.0
C1693 C 0.57225 0.17669 0.65346 0.0
C1694 C 0.57146 0.17014 0.62839 0.0
C1695 C 0.57391 0.18718 0.61298 0.0
C1696 C 0.57229 0.17458 0.58661 0.0
C1697 C 0.55355 0.18063 0.57094 0.0
C1698 C 0.59276 0.18132 0.57594 0.0
C1699 C 0.56871 0.14793 0.58987 0.0
C1700 C 0.56821 0.14607 0.61423 0.0
C1701 C 0.56431 0.12375 0.62223 0.0
C1702 C 0.56078 0.1026 0.60485 0.0
C1703 C 0.56158 0.10382 0.5799 0.0
C1704 C 0.56545 0.12671 0.57211 0.0
H1705 H 0.56623 0.75978 0.37402 0.0
H1706 H 0.58925 0.77378 0.45149 0.0
H1707 H 0.62547 0.78254 0.44192 0.0
H1708 H 0.60786 0.7303 0.3537 0.0
H1709 H 0.60862 0.74382 0.32639 0.0
H1710 H 0.58454 0.73869 0.33939 0.0
H1711 H 0.58178 0.78448 0.34167 0.0
H1712 H 0.60588 0.78976 0.32872 0.0
H1713 H 0.60319 0.80737 0.35759 0.0
H1714 H 0.65939 0.78926 0.42376 0.0
H1715 H 0.68816 0.79417 0.39844 0.0
H1716 H 0.64293 0.77602 0.33293 0.0
C1717 C 0.57889 0.76458 0.38898 0.0
C1718 C 0.57489 0.76594 0.41352 0.0
C1719 C 0.59191 0.77252 0.43255 0.0
C1720 C 0.61255 0.77756 0.4273 0.0
C1721 C 0.61595 0.77606 0.40292 0.0
C1722 C 0.59958 0.76981 0.38408 0.0
C1723 C 0.60745 0.76968 0.35947 0.0
C1724 C 0.60178 0.7441 0.34382 0.0
C1725 C 0.59907 0.78897 0.34608 0.0
C1726 C 0.6308 0.77656 0.36738 0.0
C1727 C 0.63541 0.78019 0.39251 0.0
C1728 C 0.65596 0.78643 0.40405 0.0
C1729 C 0.67221 0.78902 0.38951 0.0
C1730 C 0.66786 0.78543 0.36368 0.0
C1731 C 0.64681 0.77914 0.35261 0.0
H1732 H 0.04584 0.23541 0.45858 0.0
H1733 H 0.05948 0.28329 0.52872 0.0
H1734 H 0.03104 0.25835 0.54408 0.0
H1735 H 0.98753 0.21583 0.4596 0.0
H1736 H 0.98882 0.18485 0.44653 0.0
H1737 H 1.00598 0.20995 0.43851 0.0
H1738 H 0.03836 0.19134 0.45197 0.0
H1739 H 0.02146 0.16596 0.45918 0.0
H1740 H 0.04177 0.18365 0.48218 0.0
H1741 H 1.00636 0.22644 0.55414 0.0
H1742 H 0.9986 0.18509 0.563 0.0
H1743 H 0.9986 0.15567 0.48689 0.0
C1744 C 0.0425 0.2407 0.47703 0.0
C1745 C 0.05458 0.26113 0.49248 0.0
C1746 C 0.05035 0.26747 0.51669 0.0
C1747 C 0.03389 0.2538 0.52533 0.0
C1748 C 0.0219 0.23383 0.50957 0.0
C1749 C 0.02641 0.22688 0.48614 0.0
C1750 C 1.01469 0.20176 0.47496 0.0
C1751 C 0.99827 0.2032 0.45364 0.0
C1752 C 0.02996 0.18468 0.46664 0.0
C1753 C 1.00442 0.19473 0.49665 0.0
C1754 C 1.00765 0.2142 0.51584 0.0
C1755 C 1.00338 0.21117 0.53924 0.0
C1756 C 0.99867 0.18744 0.54409 0.0
C1757 C 0.99889 0.16738 0.52566 0.0
C1758 C 0.99864 0.171 0.50116 0.0
H1759 H 0.58073 0.25918 0.17995 0.0
H1760 H 0.57188 0.18696 0.13632 0.0
H1761 H 0.60647 0.18121 0.15491 0.0
H1762 H 0.63951 0.27292 0.17808 0.0
H1763 H 0.64371 0.28987 0.20873 0.0
H1764 H 0.6199 0.28959 0.18903 0.0
H1765 H 0.5986 0.27446 0.22206 0.0
H1766 H 0.62223 0.27392 0.24152 0.0
H1767 H 0.60281 0.24664 0.23283 0.0
H1768 H 0.6379 0.18031 0.18323 0.0
H1769 H 0.66835 0.18681 0.21503 0.0
H1770 H 0.6581 0.26062 0.23897 0.0
C1771 C 0.58646 0.2425 0.17383 0.0
C1772 C 0.57388 0.22344 0.15689 0.0
C1773 C 0.58154 0.20178 0.14917 0.0
C1774 C 0.60107 0.19835 0.15967 0.0
C1775 C 0.61276 0.21708 0.1772 0.0
C1776 C 0.60611 0.23906 0.18367 0.0
C1777 C 0.62129 0.25576 0.20377 0.0
C1778 C 0.63173 0.27837 0.19433 0.0
C1779 C 0.61059 0.2631 0.22638 0.0
C1780 C 0.63675 0.23901 0.20873 0.0
C1781 C 0.63157 0.21688 0.19307 0.0
C1782 C 0.64248 0.19774 0.19521 0.0
C1783 C 0.65953 0.20148 0.21348 0.0
C1784 C 0.66545 0.22419 0.22927 0.0
C1785 C 0.65394 0.24319 0.22688 0.0
H1786 H 0.59023 0.91518 0.97936 0.0
H1787 H 0.57539 0.86155 0.0259 0.0
H1788 H 0.54263 0.87652 0.03197 0.0
H1789 H 0.58106 0.96095 1.00643 0.0
H1790 H 0.56688 0.97404 0.98361 0.0
H1791 H 0.58303 0.95265 0.97429 0.0
H1792 H 0.55139 0.92568 0.94593 0.0
H1793 H 0.53546 0.94794 0.95553 0.0
H1794 H 0.52747 0.91648 0.95825 0.0
H1795 H 0.52311 0.90694 0.0474 0.0
H1796 H 0.52176 0.94788 0.06912 0.0
H1797 H 0.54227 0.97936 1.00829 0.0
C1798 C 0.57948 0.90581 0.98975 0.0
C1799 C 0.58533 0.88724 1.00201 0.0
C1800 C 0.57122 0.87574 0.01608 0.0
C1801 C 0.55232 0.88386 0.01931 0.0
C1802 C 0.54735 0.90302 1.00778 0.0
C1803 C 0.56014 0.91311 0.99224 0.0
C1804 C 0.55347 0.93614 0.98558 0.0
C1805 C 0.57224 0.95714 0.98773 0.0
C1806 C 0.54122 0.93122 0.95978 0.0
C1807 C 0.53883 0.94059 1.00446 0.0
C1808 C 0.53411 0.92038 0.01579 0.0
C1809 C 0.52584 0.92244 0.03803 0.0
C1810 C 0.52497 0.9458 0.05033 0.0
C1811 C 0.53186 0.96646 0.03999 0.0
C1812 C 0.53641 0.96355 0.01587 0.0
H1813 H 0.95927 0.76608 0.69051 0.0
H1814 H 0.9399 0.69257 0.70443 0.0
H1815 H 0.92094 0.70884 0.73738 0.0
H1816 H 0.97294 0.79129 0.74875 0.0
H1817 H 0.96446 0.8202 0.74757 0.0
H1818 H 0.97157 0.80343 0.72059 0.0
H1819 H 0.93543 0.8028 0.69621 0.0
H1820 H 0.92854 0.82095 0.72259 0.0
H1821 H 0.91198 0.79251 0.70884 0.0
H1822 H 0.91138 0.73311 0.77336 0.0
H1823 H 0.90093 0.7633 0.80393 0.0
H1824 H 0.93041 0.82166 0.76927 0.0
C1825 C 0.94999 0.75326 0.69947 0.0
C1826 C 0.95097 0.72813 0.69514 0.0
C1827 C 0.93915 0.7119 0.7076 0.0
C1828 C 0.92858 0.721 0.72646 0.0
C1829 C 0.93003 0.7462 0.73224 0.0
C1830 C 0.93981 0.7621 0.71866 0.0
C1831 C 0.94104 0.78845 0.73027 0.0
C1832 C 0.96386 0.80159 0.7372 0.0
C1833 C 0.92849 0.80197 0.71348 0.0
C1834 C 0.93076 0.78479 0.75273 0.0
C1835 C 0.92468 0.76033 0.7535 0.0
C1836 C 0.91531 0.75234 0.77268 0.0
C1837 C 0.91004 0.76979 0.79037 0.0
C1838 C 0.91457 0.79502 0.78891 0.0
C1839 C 0.92627 0.80255 0.77065 0.0
H1840 H 0.12222 0.05657 0.89799 0.0
H1841 H 0.13644 0.98325 0.88471 0.0
H1842 H 0.12005 0.97415 0.92122 0.0
H1843 H 0.13226 0.06438 0.9655 0.0
H1844 H 0.11165 0.08191 0.97012 0.0
H1845 H 0.12484 0.08291 0.94338 0.0
H1846 H 0.08934 0.06976 0.91578 0.0
H1847 H 0.07607 0.0687 0.94242 0.0
H1848 H 0.07245 0.04216 0.91892 0.0
H1849 H 0.10003 0.97228 0.95885 0.0
H1850 H 0.07998 0.97778 0.99369 0.0
H1851 H 0.07912 0.05301 0.98497 0.0
C1852 C 0.12211 0.03859 0.90278 0.0
C1853 C 0.13096 0.02066 0.88792 0.0
C1854 C 0.13018 0.99749 0.89539 0.0
C1855 C 0.12073 0.99213 0.91625 0.0
C1856 C 0.11212 1.01012 0.93022 0.0
C1857 C 0.11295 0.03303 0.92389 0.0
C1858 C 0.10266 0.04918 0.94215 0.0
C1859 C 0.11881 0.07089 0.95611 0.0
C1860 C 0.08402 0.05797 0.92903 0.0
C1861 C 0.09535 0.03168 0.95943 0.0
C1862 C 0.1011 1.00925 0.95213 0.0
C1863 C 0.09574 0.98989 0.96463 0.0
C1864 C 0.08424 0.99326 0.98465 0.0
C1865 C 0.07791 0.0159 0.99282 0.0
C1866 C 0.08386 0.03552 0.97987 0.0
H1867 H 0.77262 0.30992 0.57519 0.0
H1868 H 0.78782 0.38768 0.60288 0.0
H1869 H 0.81839 0.38094 0.62945 0.0
H1870 H 0.78374 0.29011 0.63028 0.0
H1871 H 0.79395 0.264 0.61661 0.0
H1872 H 0.77519 0.27659 0.59877 0.0
H1873 H 0.80151 0.28084 0.56705 0.0
H1874 H 0.82083 0.26972 0.58598 0.0
H1875 H 0.82712 0.29898 0.5765 0.0
H1876 H 0.8449 0.36554 0.65526 0.0
H1877 H 0.85849 0.34211 0.68544 0.0
H1878 H 0.82744 0.27478 0.63927 0.0
C1879 C 0.78235 0.32552 0.58691 0.0
C1880 C 0.77798 0.34927 0.58704 0.0
C1881 C 0.79102 0.36928 0.60255 0.0
C1882 C 0.8086 0.3657 0.61733 0.0
C1883 C 0.81304 0.3421 0.61597 0.0
C1884 C 0.80005 0.32232 0.60147 0.0
C1885 C 0.80676 0.29854 0.60536 0.0
C1886 C 0.78887 0.28134 0.61325 0.0
C1887 C 0.81452 0.28631 0.58235 0.0
C1888 C 0.82465 0.30786 0.6257 0.0
C1889 C 0.82863 0.33313 0.63083 0.0
C1890 C 0.84221 0.3458 0.65121 0.0
C1891 C 0.85005 0.33234 0.66817 0.0
C1892 C 0.84347 0.30673 0.66487 0.0
C1893 C 0.8328 0.29431 0.64217 0.0
H1894 H 0.47301 1.01256 0.36843 0.0
H1895 H 0.45378 0.08334 0.38103 0.0
H1896 H 0.46944 0.08886 0.42461 0.0
H1897 H 0.46343 0.99638 0.42853 0.0
H1898 H 0.48525 0.98027 0.43026 0.0
H1899 H 0.4714 0.98168 0.40094 0.0
H1900 H 0.50605 0.9999 0.38679 0.0
H1901 H 0.51997 0.99844 0.41597 0.0
H1902 H 0.52185 0.02709 0.40475 0.0
H1903 H 0.48937 0.08631 0.46862 0.0
H1904 H 0.51148 0.0772 0.50419 0.0
H1905 H 0.51823 1.00881 0.46141 0.0
C1906 C 0.47188 0.02929 0.38023 0.0
C1907 C 0.46195 0.04754 0.37073 0.0
C1908 C 0.461 0.06892 0.38741 0.0
C1909 C 0.46998 0.07219 0.41237 0.0
C1910 C 0.47979 0.05384 0.42091 0.0
C1911 C 0.48059 0.03272 0.40511 0.0
C1912 C 0.49215 0.01568 0.4182 0.0
C1913 C 0.47717 0.9921 0.41955 0.0
C1914 C 0.51113 1.00996 0.40569 0.0
C1915 C 0.49883 0.03085 0.44358 0.0
C1916 C 0.49112 0.05258 0.44519 0.0
C1917 C 0.49526 0.06923 0.46725 0.0
C1918 C 0.50775 0.06382 0.4876 0.0
C1919 C 0.51644 0.04205 0.48602 0.0
C1920 C 0.51166 0.02545 0.46354 0.0
H1921 H 0.77387 0.67658 0.1305 0.0
H1922 H 0.76671 0.73421 0.08799 0.0
H1923 H 0.77059 0.76405 0.12632 0.0
H1924 H 0.74592 0.69721 0.17893 0.0
H1925 H 0.7633 0.68873 0.20228 0.0
H1926 H 0.75968 0.67216 0.17154 0.0
H1927 H 0.79968 0.68108 0.17016 0.0
H1928 H 0.80343 0.69753 0.20095 0.0
H1929 H 0.81327 0.71221 0.17685 0.0
H1930 H 0.77368 0.78708 0.17009 0.0
H1931 H 0.77924 0.80169 0.21501 0.0
H1932 H 0.78643 0.72897 0.22737 0.0
C1933 C 0.77307 0.69546 0.12918 0.0
C1934 C 0.76984 0.70308 0.1063 0.0
C1935 C 0.76919 0.72802 0.10538 0.0
C1936 C 0.77128 0.74504 0.12702 0.0
C1937 C 0.77425 0.7368 0.14932 0.0
C1938 C 0.7754 0.71262 0.15045 0.0
C1939 C 0.77926 0.70832 0.17649 0.0
C1940 C 0.76095 0.69056 0.18266 0.0
C1941 C 0.80015 0.69926 0.18139 0.0
C1942 C 0.78015 0.73386 0.18995 0.0
C1943 C 0.77693 0.75006 0.17409 0.0
C1944 C 0.77639 0.77459 0.18263 0.0
C1945 C 0.77947 0.78271 0.20803 0.0
C1946 C 0.78336 0.76637 0.22424 0.0
C1947 C 0.78366 0.74175 0.21512 0.0
H1948 H 0.13674 0.98826 0.71545 0.0
H1949 H 0.11978 0.04951 0.76131 0.0
H1950 H 0.09968 0.05973 0.72522 0.0
H1951 H 0.14117 0.01433 0.66061 0.0
H1952 H 0.12864 0.98715 0.63975 0.0
H1953 H 0.14216 0.98466 0.6689 0.0
H1954 H 0.10867 0.95934 0.67909 0.0
H1955 H 0.09508 0.96169 0.64992 0.0
H1956 H 0.08468 0.97157 0.67765 0.0
H1957 H 0.08287 0.06507 0.68332 0.0
H1958 H 0.06757 0.06266 0.64063 0.0
H1959 H 0.09159 0.99562 0.62055 0.0
C1960 C 0.12877 1.00382 0.71789 0.0
C1961 C 0.13016 0.01822 0.74159 0.0
C1962 C 0.11911 0.03814 0.74369 0.0
C1963 C 0.10764 0.04415 0.72313 0.0
C1964 C 0.10663 0.02976 0.70017 0.0
C1965 C 0.11652 1.00964 0.69747 0.0
C1966 C 0.11186 0.99654 0.67081 0.0
C1967 C 0.13217 0.99562 0.65934 0.0
C1968 C 0.09933 0.97075 0.66928 0.0
C1969 C 0.09849 1.01289 0.6588 0.0
C1970 C 0.09583 0.032 0.67621 0.0
C1971 C 0.08474 0.04999 0.66971 0.0
C1972 C 0.07608 0.04847 0.64513 0.0
C1973 C 0.07805 0.02894 0.62664 0.0
C1974 C 0.08948 1.01079 0.63391 0.0
H1975 H 0.74729 0.34863 0.42616 0.0
H1976 H 0.74807 0.29004 0.46886 0.0
H1977 H 0.77622 0.27599 0.44684 0.0
H1978 H 0.75562 0.31737 0.37037 0.0
H1979 H 0.7716 0.34381 0.36316 0.0
H1980 H 0.75214 0.34769 0.38303 0.0
H1981 H 0.78146 0.37469 0.41522 0.0
H1982 H 0.80114 0.36901 0.39577 0.0
H1983 H 0.80366 0.36194 0.4263 0.0
H1984 H 0.80067 0.26599 0.41693 0.0
H1985 H 0.81236 0.25627 0.37668 0.0
H1986 H 0.80157 0.32606 0.35974 0.0
C1987 C 0.75298 0.33251 0.4307 0.0
C1988 C 0.74524 0.32021 0.44905 0.0
C1989 C 0.75354 0.29949 0.45457 0.0
C1990 C 0.76986 0.2918 0.44263 0.0
C1991 C 0.77806 0.30552 0.42588 0.0
C1992 C 0.76967 0.32528 0.41979 0.0
C1993 C 0.78012 0.33616 0.40015 0.0
C1994 C 0.76393 0.33621 0.37788 0.0
C1995 C 0.79233 0.36198 0.40997 0.0
C1996 C 0.79479 0.3183 0.39472 0.0
C1997 C 0.79379 0.30105 0.4102 0.0
C1998 C 0.80214 0.2797 0.40521 0.0
C1999 C 0.80919 0.27447 0.38248 0.0
C2000 C 0.80747 0.2905 0.36548 0.0
C2001 C 0.80325 0.31396 0.37298 0.0
H2002 H 0.43812 0.05243 0.1936 0.0
H2003 H 0.48812 0.04567 0.24855 0.0
H2004 H 0.51188 0.04291 0.21711 0.0
H2005 H 0.45175 1.01089 0.14319 0.0
H2006 H 0.446 0.0291 0.12012 0.0
H2007 H 0.43253 0.0306 0.14675 0.0
H2008 H 0.4443 0.0771 0.15561 0.0
H2009 H 0.45873 0.07625 0.12972 0.0
H2010 H 0.47174 0.08967 0.15986 0.0
H2011 H 0.53115 0.04135 0.17977 0.0
H2012 H 0.54406 0.03977 0.13997 0.0
H2013 H 0.48271 0.04664 0.10612 0.0
C2014 C 0.45406 0.05032 0.19906 0.0
C2015 C 0.46094 0.04931 0.22418 0.0
C2016 C 0.48211 0.04663 0.22994 0.0
C2017 C 0.49587 0.04501 0.212 0.0
C2018 C 0.4887 0.04615 0.18772 0.0
C2019 C 0.46827 0.04873 0.18111 0.0
C2020 C 0.46493 0.04975 0.15351 0.0
C2021 C 0.44778 0.02883 0.1401 0.0
C2022 C 0.45959 0.07466 0.1494 0.0
C2023 C 0.48643 0.04664 0.14558 0.0
C2024 C 0.49987 0.04497 0.1659 0.0
C2025 C 0.52063 0.04259 0.16384 0.0
C2026 C 0.5279 0.04178 0.14081 0.0
C2027 C 0.51472 0.04296 0.11914 0.0
C2028 C 0.49345 0.04545 0.12187 0.0
H2029 H 0.77543 0.7341 0.97343 0.0
H2030 H 0.76486 0.6595 0.9345 0.0
H2031 H 0.76823 0.67477 0.89582 0.0
H2032 H 0.74749 0.75981 0.92656 0.0
H2033 H 0.76584 0.78801 0.93104 0.0
H2034 H 0.76233 0.77163 0.95615 0.0
H2035 H 0.802 0.77044 0.96253 0.0
H2036 H 0.80564 0.7869 0.93751 0.0
H2037 H 0.81434 0.75793 0.93726 0.0
H2038 H 0.77211 0.69701 0.8616 0.0
H2039 H 0.77852 0.72541 0.8329 0.0
H2040 H 0.78787 0.78684 0.89246 0.0
C2041 C 0.77376 0.72102 0.95673 0.0
C2042 C 0.76974 0.69553 0.95703 0.0
C2043 C 0.76787 0.67905 0.93482 0.0
C2044 C 0.76973 0.68754 0.91269 0.0
C2045 C 0.77357 0.71263 0.91297 0.0
C2046 C 0.77575 0.72924 0.93431 0.0
C2047 C 0.78038 0.75527 0.92916 0.0
C2048 C 0.76297 0.76952 0.93615 0.0
C2049 C 0.80187 0.76841 0.9424 0.0
C2050 C 0.78039 0.75057 0.9016 0.0
C2051 C 0.77627 0.72577 0.89283 0.0
C2052 C 0.77534 0.71648 0.8682 0.0
C2053 C 0.77895 0.73288 0.852 0.0
C2054 C 0.78359 0.75844 0.86032 0.0
C2055 C 0.78421 0.76744 0.88552 0.0
H2056 H 0.88418 0.12698 0.10085 0.0
H2057 H 0.85627 0.15207 0.03731 0.0
H2058 H 0.87708 0.12803 0.01108 0.0
H2059 H 0.93574 0.12953 0.08117 0.0
H2060 H 0.94058 0.10362 0.09511 0.0
H2061 H 0.92411 0.12371 0.10807 0.0
H2062 H 0.89397 0.0869 0.1048 0.0
H2063 H 0.91042 0.06677 0.09218 0.0
H2064 H 0.88528 0.06743 0.07567 0.0
H2065 H 0.90145 0.09965 0.99243 0.0
H2066 H 0.92567 0.07037 0.98366 0.0
H2067 H 0.93346 0.06364 0.06056 0.0
C2068 C 0.88228 0.12728 0.08138 0.0
C2069 C 0.8685 0.14081 0.07088 0.0
C2070 C 0.8668 0.14148 0.04549 0.0
C2071 C 0.87856 0.12803 0.03058 0.0
C2072 C 0.89206 0.11465 0.04165 0.0
C2073 C 0.89397 0.11448 0.06655 0.0
C2074 C 0.90932 0.09898 0.0745 0.0
C2075 C 0.92857 0.1149 0.09066 0.0
C2076 C 0.89912 0.07882 0.08752 0.0
C2077 C 0.91471 0.08887 0.04998 0.0
C2078 C 0.90533 0.09856 0.0312 0.0
C2079 C 0.90882 0.09193 1.00706 0.0
C2080 C 0.92239 0.07508 1.00222 0.0
C2081 C 0.9318 0.06478 0.02143 0.0
C2082 C 0.92736 0.07161 0.0454 0.0
H2083 H 0.39489 0.4786 0.08861 0.0
H2084 H 0.39529 0.40572 0.05074 0.0
H2085 H 0.43296 0.41741 0.04677 0.0
H2086 H 0.42743 0.51122 0.05501 0.0
H2087 H 0.44086 0.53335 0.08071 0.0
H2088 H 0.41459 0.51847 0.08156 0.0
H2089 H 0.42656 0.50353 0.12171 0.0
H2090 H 0.45288 0.51859 0.12112 0.0
H2091 H 0.44781 0.48647 0.12274 0.0
H2092 H 0.47077 0.44012 0.04323 0.0
H2093 H 0.50396 0.46931 0.04474 0.0
H2094 H 0.47792 0.52505 0.08796 0.0
C2095 C 0.40302 0.46495 0.07991 0.0
C2096 C 0.39224 0.44124 0.0701 0.0
C2097 C 0.40337 0.42391 0.05871 0.0
C2098 C 0.42473 0.43047 0.05623 0.0
C2099 C 0.43487 0.45429 0.06575 0.0
C2100 C 0.42434 0.471 0.07788 0.0
C2101 C 0.43841 0.49536 0.08664 0.0
C2102 C 0.42981 0.51579 0.07529 0.0
C2103 C 0.44161 0.50133 0.11472 0.0
C2104 C 0.45834 0.49019 0.07691 0.0
C2105 C 0.45623 0.46652 0.0648 0.0
C2106 C 0.4726 0.45854 0.05314 0.0
C2107 C 0.49145 0.47518 0.05408 0.0
C2108 C 0.49378 0.49938 0.06678 0.0
C2109 C 0.47692 0.50662 0.07835 0.0
H2110 H 0.3593 0.61061 0.78264 0.0
H2111 H 0.42412 0.64475 0.80435 0.0
H2112 H 0.41342 0.68519 0.81051 0.0
H2113 H 0.34358 0.65822 0.74999 0.0
H2114 H 0.31818 0.65669 0.76018 0.0
H2115 H 0.33063 0.63008 0.75748 0.0
H2116 H 0.32703 0.62686 0.80261 0.0
H2117 H 0.31462 0.65352 0.80541 0.0
H2118 H 0.33758 0.65276 0.82608 0.0
H2119 H 0.39561 0.72349 0.81521 0.0
H2120 H 0.37273 0.75483 0.81652 0.0
H2121 H 0.31883 0.69791 0.79112 0.0
C2122 C 0.3713 0.62656 0.78867 0.0
C2123 C 0.39285 0.62379 0.79294 0.0
C2124 C 0.40764 0.64566 0.80087 0.0
C2125 C 0.40165 0.66903 0.80448 0.0
C2126 C 0.38053 0.6711 0.80022 0.0
C2127 C 0.36551 0.65041 0.79242 0.0
C2128 C 0.34383 0.65804 0.78924 0.0
C2129 C 0.33344 0.65029 0.76264 0.0
C2130 C 0.32994 0.64714 0.80687 0.0
C2131 C 0.34902 0.68606 0.79609 0.0
C2132 C 0.37033 0.69314 0.8026 0.0
C2133 C 0.37892 0.71794 0.81005 0.0
C2134 C 0.36566 0.73583 0.81082 0.0
C2135 C 0.34369 0.72947 0.80399 0.0
C2136 C 0.33546 0.7039 0.79648 0.0
H2137 H 0.2557 0.65327 0.52807 0.0
H2138 H 0.27462 0.70739 0.59376 0.0
H2139 H 0.24444 0.68938 0.61203 0.0
H2140 H 0.20053 0.65431 0.5272 0.0
H2141 H 0.19302 0.62213 0.51554 0.0
H2142 H 0.21681 0.63872 0.50835 0.0
H2143 H 0.23756 0.60785 0.52584 0.0
H2144 H 0.21386 0.59144 0.53352 0.0
H2145 H 0.23589 0.60289 0.55681 0.0
H2146 H 0.21303 0.66486 0.62365 0.0
H2147 H 0.17884 0.63947 0.62528 0.0
H2148 H 0.17875 0.60348 0.55102 0.0
C2149 C 0.25332 0.66134 0.5462 0.0
C2150 C 0.26734 0.68163 0.55951 0.0
C2151 C 0.26386 0.69192 0.58319 0.0
C2152 C 0.24691 0.68169 0.59382 0.0
C2153 C 0.23347 0.66146 0.58035 0.0
C2154 C 0.23618 0.65172 0.55688 0.0
C2155 C 0.21865 0.63096 0.54579 0.0
C2156 C 0.20653 0.63689 0.52287 0.0
C2157 C 0.22699 0.60686 0.54017 0.0
C2158 C 0.20561 0.63072 0.56663 0.0
C2159 C 0.21471 0.64808 0.58661 0.0
C2160 C 0.20565 0.65128 0.60811 0.0
C2161 C 0.18638 0.6368 0.60893 0.0
C2162 C 0.17639 0.61983 0.58823 0.0
C2163 C 0.18622 0.61648 0.56699 0.0
H2164 H 0.727 0.94972 0.79264 0.0
H2165 H 0.66949 0.92001 0.81815 0.0
H2166 H 0.6829 0.8818 0.82146 0.0
H2167 H 0.73371 0.89203 0.75629 0.0
H2168 H 0.76178 0.89721 0.76334 0.0
H2169 H 0.74813 0.92277 0.76318 0.0
H2170 H 0.76511 0.94033 0.80744 0.0
H2171 H 0.7788 0.9148 0.8077 0.0
H2172 H 0.76235 0.92162 0.83091 0.0
H2173 H 0.7022 0.84566 0.8217 0.0
H2174 H 0.72515 0.81461 0.81813 0.0
H2175 H 0.77165 0.86585 0.79334 0.0
C2176 C 0.71722 0.93522 0.799 0.0
C2177 C 0.69689 0.93845 0.80513 0.0
C2178 C 0.68491 0.91854 0.81321 0.0
C2179 C 0.69248 0.89653 0.81522 0.0
C2180 C 0.71232 0.89393 0.809 0.0
C2181 C 0.72459 0.9127 0.80099 0.0
C2182 C 0.74526 0.9046 0.79509 0.0
C2183 C 0.74735 0.90414 0.76786 0.0
C2184 C 0.76399 0.92134 0.81125 0.0
C2185 C 0.74275 0.87861 0.8013 0.0
C2186 C 0.7235 0.87291 0.80914 0.0
C2187 C 0.7172 0.84995 0.81539 0.0
C2188 C 0.73051 0.8323 0.81335 0.0
C2189 C 0.75052 0.83731 0.80556 0.0
C2190 C 0.75665 0.86114 0.79961 0.0
H2191 H 0.74574 0.9148 0.58608 0.0
H2192 H 0.78765 0.96069 0.54973 0.0
H2193 H 0.7583 0.97984 0.53469 0.0
H2194 H 0.6995 0.90617 0.54159 0.0
H2195 H 0.68166 0.90868 0.56403 0.0
H2196 H 0.70562 0.89737 0.57095 0.0
H2197 H 0.71587 0.93072 0.60945 0.0
H2198 H 0.6919 0.94206 0.6027 0.0
H2199 H 0.71665 0.96235 0.60646 0.0
H2200 H 0.72469 0.9933 0.52269 0.0
H2201 H 0.68938 1.00394 0.51812 0.0
H2202 H 0.66899 0.95226 0.56494 0.0
C2203 C 0.74864 0.92888 0.57493 0.0
C2204 C 0.76895 0.93624 0.56896 0.0
C2205 C 0.77227 0.95488 0.5546 0.0
C2206 C 0.75566 0.96575 0.54585 0.0
C2207 C 0.73586 0.95817 0.55204 0.0
C2208 C 0.73228 0.94048 0.56659 0.0
C2209 C 0.70967 0.93691 0.57171 0.0
C2210 C 0.69845 0.91072 0.56145 0.0
C2211 C 0.70846 0.9434 0.59922 0.0
C2212 C 0.70115 0.95529 0.55767 0.0
C2213 C 0.71652 0.967 0.54618 0.0
C2214 C 0.71255 0.98438 0.53172 0.0
C2215 C 0.69242 0.99022 0.52916 0.0
C2216 C 0.67646 0.97898 0.54119 0.0
C2217 C 0.68093 0.96126 0.55567 0.0
H2218 H 0.38267 0.46143 0.81831 0.0
H2219 H 0.37667 0.4575 0.73978 0.0
H2220 H 0.35463 0.41667 0.73454 0.0
H2221 H 0.38556 0.39789 0.81869 0.0
H2222 H 0.3704 0.39462 0.84356 0.0
H2223 H 0.38512 0.42398 0.84158 0.0
H2224 H 0.35161 0.44319 0.84261 0.0
H2225 H 0.3369 0.41398 0.84502 0.0
H2226 H 0.32889 0.4299 0.8208 0.0
H2227 H 0.33414 0.37444 0.73753 0.0
H2228 H 0.31402 0.33747 0.74857 0.0
H2229 H 0.33141 0.36775 0.82523 0.0
C2230 C 0.37621 0.45228 0.80003 0.0
C2231 C 0.38108 0.46341 0.77939 0.0
C2232 C 0.37286 0.45002 0.75588 0.0
C2233 C 0.36042 0.42654 0.75274 0.0
C2234 C 0.35613 0.416 0.77327 0.0
C2235 C 0.36352 0.4286 0.79654 0.0
C2236 C 0.3565 0.41291 0.81549 0.0
C2237 C 0.37553 0.40701 0.83074 0.0
C2238 C 0.34265 0.42576 0.83196 0.0
C2239 C 0.34394 0.38971 0.79933 0.0
C2240 C 0.34424 0.3918 0.77499 0.0
C2241 C 0.33393 0.37276 0.75657 0.0
C2242 C 0.32265 0.35154 0.76302 0.0
C2243 C 0.32149 0.34895 0.78774 0.0
C2244 C 0.33243 0.36854 0.80612 0.0
H2245 H 0.2025 0.59832 0.27557 0.0
H2246 H 0.20314 0.59708 0.35299 0.0
H2247 H 0.22505 0.6383 0.36215 0.0
H2248 H 0.25778 0.63086 0.28111 0.0
H2249 H 0.25188 0.6475 0.25674 0.0
H2250 H 0.2372 0.61755 0.25652 0.0
H2251 H 0.20286 0.6352 0.25331 0.0
H2252 H 0.2174 0.66522 0.25381 0.0
H2253 H 0.1997 0.6603 0.276 0.0
H2254 H 0.24425 0.68215 0.36264 0.0
H2255 H 0.26217 0.72174 0.35473 0.0
H2256 H 0.25155 0.69391 0.27694 0.0
C2257 C 0.20775 0.60648 0.29445 0.0
C2258 C 0.20135 0.59411 0.3136 0.0
C2259 C 0.20818 0.60578 0.33803 0.0
C2260 C 0.22051 0.62937 0.34338 0.0
C2261 C 0.22632 0.64121 0.32413 0.0
C2262 C 0.22055 0.62986 0.30012 0.0
C2263 C 0.22905 0.64647 0.28281 0.0
C2264 C 0.24492 0.63491 0.26844 0.0
C2265 C 0.21118 0.65213 0.26546 0.0
C2266 C 0.2398 0.66928 0.3007 0.0
C2267 C 0.23801 0.66588 0.32447 0.0
C2268 C 0.24594 0.68474 0.34407 0.0
C2269 C 0.25609 0.70736 0.33937 0.0
C2270 C 0.25857 0.71131 0.31522 0.0
C2271 C 0.25022 0.69172 0.29569 0.0
H2272 H 0.52787 0.70467 0.49621 0.0
H2273 H 0.48314 0.66667 0.43424 0.0
H2274 H 0.48389 0.62795 0.44982 0.0
H2275 H 0.55908 0.65763 0.49747 0.0
H2276 H 0.56451 0.66167 0.53029 0.0
H2277 H 0.55945 0.68706 0.51565 0.0
H2278 H 0.52956 0.69329 0.54167 0.0
H2279 H 0.53457 0.66793 0.55646 0.0
H2280 H 0.50877 0.66811 0.54145 0.0
H2281 H 0.48902 0.59362 0.47144 0.0
H2282 H 0.50024 0.5642 0.49605 0.0
H2283 H 0.54399 0.62249 0.54354 0.0
C2284 C 0.51799 0.68823 0.48617 0.0
C2285 C 0.50516 0.68879 0.46411 0.0
C2286 C 0.4929 0.66679 0.45121 0.0
C2287 C 0.49322 0.64468 0.45995 0.0
C2288 C 0.50606 0.64469 0.48155 0.0
C2289 C 0.51838 0.66577 0.49447 0.0
C2290 C 0.53157 0.66015 0.51651 0.0
C2291 C 0.55505 0.66703 0.51487 0.0
C2292 C 0.52577 0.67315 0.54044 0.0
C2293 C 0.52489 0.63258 0.51368 0.0
C2294 C 0.50987 0.62431 0.49357 0.0
C2295 C 0.5008 0.59985 0.48718 0.0
C2296 C 0.5073 0.58324 0.50146 0.0
C2297 C 0.52306 0.59085 0.52189 0.0
C2298 C 0.53196 0.616 0.52807 0.0
H2299 H 0.66956 0.31625 0.68836 0.0
H2300 H 0.62568 0.29907 0.73919 0.0
H2301 H 0.6527 0.28475 0.76431 0.0
H2302 H 0.70126 0.26831 0.69509 0.0
H2303 H 0.72589 0.28805 0.69577 0.0
H2304 H 0.70254 0.29398 0.67904 0.0
H2305 H 0.70846 0.33784 0.70364 0.0
H2306 H 0.73197 0.33211 0.72006 0.0
H2307 H 0.7117 0.34217 0.73656 0.0
H2308 H 0.68317 0.27232 0.78418 0.0
H2309 H 0.71843 0.27207 0.80429 0.0
H2310 H 0.74551 0.30162 0.74496 0.0
C2311 C 0.6657 0.3093 0.70471 0.0
C2312 C 0.64518 0.30795 0.71126 0.0
C2313 C 0.64093 0.29959 0.73323 0.0
C2314 C 0.65622 0.29129 0.74767 0.0
C2315 C 0.67603 0.29221 0.74047 0.0
C2316 C 0.68117 0.30181 0.72007 0.0
C2317 C 0.70457 0.30383 0.71877 0.0
C2318 C 0.70881 0.28757 0.6958 0.0
C2319 C 0.71478 0.33058 0.71983 0.0
C2320 C 0.71162 0.29414 0.74183 0.0
C2321 C 0.6946 0.28683 0.75342 0.0
C2322 C 0.69666 0.27796 0.77535 0.0
C2323 C 0.71673 0.27779 0.78657 0.0
C2324 C 0.73453 0.28658 0.77605 0.0
C2325 C 0.73205 0.29421 0.753 0.0
H2326 H 1.0048 0.33669 0.98432 0.0
H2327 H 0.04963 0.34902 0.93316 0.0
H2328 H 0.0592 0.39178 0.95237 0.0
H2329 H 0.98667 0.39307 0.98595 0.0
H2330 H 0.98488 0.39858 0.01825 0.0
H2331 H 0.98218 0.36775 1.00228 0.0
H2332 H 1.01223 0.35966 0.03251 0.0
H2333 H 1.01488 0.39042 0.04873 0.0
H2334 H 0.03717 0.37967 0.03719 0.0
H2335 H 0.06286 0.43241 0.97366 0.0
H2336 H 0.06195 0.47151 0.99887 0.0
H2337 H 1.01488 0.43631 0.0378 0.0
C2338 C 0.01685 0.3484 0.97755 0.0
C2339 C 0.02634 0.33958 0.95709 0.0
C2340 C 0.04194 0.35541 0.94857 0.0
C2341 C 0.04759 0.37975 0.95941 0.0
C2342 C 0.03762 0.38812 0.97893 0.0
C2343 C 0.02275 0.37316 0.98825 0.0
C2344 C 1.01432 0.38777 0.00912 0.0
C2345 C 0.9906 0.38672 1.00355 0.0
C2346 C 0.01999 0.37885 0.03332 0.0
C2347 C 0.02629 0.41326 0.00919 0.0
C2348 C 0.03979 0.41259 0.99171 0.0
C2349 C 0.05258 0.43326 0.98764 0.0
C2350 C 0.05194 0.45537 1.00211 0.0
C2351 C 0.03853 0.45684 0.02041 0.0
C2352 C 0.02525 0.43558 0.02389 0.0
H2353 H 0.02677 0.78732 0.24334 0.0
H2354 H 1.01422 0.80441 0.17043 0.0
H2355 H 0.97642 0.79957 0.17438 0.0
H2356 H 0.9813 0.74134 0.2391 0.0
H2357 H 0.97749 0.74984 0.27053 0.0
H2358 H 1.00338 0.75471 0.26178 0.0
H2359 H 1.00813 0.80065 0.28032 0.0
H2360 H 0.98232 0.79587 0.28928 0.0
H2361 H 0.98915 0.81857 0.27046 0.0
H2362 H 0.93949 0.79322 0.1872 0.0
H2363 H 0.90763 0.78611 0.20758 0.0
H2364 H 0.94545 0.77326 0.27156 0.0
C2365 C 0.01616 0.79019 0.22817 0.0
C2366 C 0.02356 0.79643 0.20663 0.0
C2367 C 1.00899 0.79979 0.18721 0.0
C2368 C 0.98747 0.79699 0.18925 0.0
C2369 C 0.98076 0.79074 0.21079 0.0
C2370 C 0.99475 0.78738 0.22986 0.0
C2371 C 0.98379 0.78078 0.25111 0.0
C2372 C 0.98666 0.75515 0.2559 0.0
C2373 C 0.99129 0.80013 0.27415 0.0
C2374 C 0.96142 0.78122 0.24124 0.0
C2375 C 0.95985 0.7869 0.21793 0.0
C2376 C 0.9406 0.78874 0.20545 0.0
C2377 C 0.92261 0.7848 0.2172 0.0
C2378 C 0.924 0.77902 0.24114 0.0
C2379 C 0.94374 0.7772 0.25311 0.0
H2380 H 0.52618 0.27924 0.08013 0.0
H2381 H 0.50467 0.31089 0.14681 0.0
H2382 H 0.52641 0.3503 0.14559 0.0
H2383 H 0.57913 0.31332 0.09197 0.0
H2384 H 0.58016 0.31791 0.06081 0.0
H2385 H 0.5642 0.29107 0.06728 0.0
H2386 H 0.53108 0.30138 0.04355 0.0
H2387 H 0.54735 0.32717 0.03584 0.0
H2388 H 0.52467 0.33151 0.05074 0.0
H2389 H 0.55139 0.38526 0.13888 0.0
H2390 H 0.56637 0.41838 0.1183 0.0
H2391 H 0.56909 0.36531 0.05431 0.0
C2392 C 0.52573 0.29458 0.0942 0.0
C2393 C 0.51408 0.29191 0.11381 0.0
C2394 C 0.51371 0.31247 0.13174 0.0
C2395 C 0.52632 0.33479 0.13153 0.0
C2396 C 0.53893 0.3363 0.11307 0.0
C2397 C 0.53803 0.31717 0.09411 0.0
C2398 C 0.55117 0.32468 0.07489 0.0
C2399 C 0.56976 0.31092 0.07368 0.0
C2400 C 0.53776 0.321 0.04979 0.0
C2401 C 0.55852 0.35139 0.08539 0.0
C2402 C 0.55231 0.35727 0.10813 0.0
C2403 C 0.55622 0.381 0.121 0.0
C2404 C 0.56476 0.39965 0.1092 0.0
C2405 C 0.56812 0.39434 0.08447 0.0
C2406 C 0.5667 0.36986 0.07323 0.0
H2407 H 0.02942 0.33644 0.39588 0.0
H2408 H 0.01983 0.35109 0.47189 0.0
H2409 H 0.98144 0.3434 0.45961 0.0
H2410 H 0.98937 0.36238 0.36928 0.0
H2411 H 0.9816 0.33849 0.3431 0.0
H2412 H 1.00803 0.34427 0.35815 0.0
H2413 H 1.00447 0.299 0.36412 0.0
H2414 H 0.97789 0.29319 0.34922 0.0
H2415 H 0.98352 0.28622 0.37946 0.0
H2416 H 0.9444 0.33679 0.43863 0.0
H2417 H 0.91157 0.33244 0.41076 0.0
H2418 H 0.94528 0.31954 0.34844 0.0
C2419 C 0.01915 0.33826 0.40984 0.0
C2420 C 0.02737 0.34508 0.43474 0.0
C2421 C 1.01367 0.34641 0.4527 0.0
C2422 C 0.99192 0.34184 0.44589 0.0
C2423 C 0.98424 0.33515 0.42112 0.0
C2424 C 0.99745 0.33303 0.40339 0.0
C2425 C 0.98522 0.32532 0.37808 0.0
C2426 C 0.99143 0.34373 0.36117 0.0
C2427 C 0.98794 0.2994 0.36707 0.0
C2428 C 0.96318 0.32557 0.38415 0.0
C2429 C 0.96289 0.33056 0.40911 0.0
C2430 C 0.94441 0.33258 0.41908 0.0
C2431 C 0.92583 0.33 0.40311 0.0
C2432 C 0.9259 0.32573 0.37746 0.0
C2433 C 0.94479 0.32298 0.36797 0.0
H2434 H 0.99464 0.66305 0.59944 0.0
H2435 H 0.05247 0.66231 0.64504 0.0
H2436 H 0.06881 0.65045 0.6083 0.0
H2437 H 0.99192 0.6123 0.56358 0.0
H2438 H 0.98168 0.62156 0.53569 0.0
H2439 H 0.97777 0.63753 0.56439 0.0
H2440 H 0.99493 0.67768 0.55165 0.0
H2441 H 0.99997 0.66121 0.52319 0.0
H2442 H 0.02112 0.6807 0.54366 0.0
H2443 H 0.07712 0.633 0.56905 0.0
H2444 H 0.07045 0.59428 0.54023 0.0
H2445 H 1.00757 0.60453 0.51926 0.0
C2446 C 1.01088 0.66077 0.60158 0.0
C2447 C 0.02237 0.66381 0.62484 0.0
C2448 C 0.04338 0.6601 0.62723 0.0
C2449 C 0.05297 0.65414 0.60644 0.0
C2450 C 0.04141 0.65223 0.58351 0.0
C2451 C 0.02058 0.6548 0.58112 0.0
C2452 C 1.00995 0.64595 0.55544 0.0
C2453 C 0.98917 0.62825 0.55479 0.0
C2454 C 1.00629 0.66768 0.54274 0.0
C2455 C 0.02686 0.63367 0.54496 0.0
C2456 C 0.04576 0.64022 0.56039 0.0
C2457 C 0.06246 0.62779 0.55705 0.0
C2458 C 0.05853 0.60569 0.5409 0.0
C2459 C 0.03791 0.59624 0.53005 0.0
C2460 C 0.02312 0.6117 0.52869 0.0
H2461 H 0.62013 0.79275 0.90769 0.0
H2462 H 0.64365 0.86832 0.90427 0.0
H2463 H 0.65414 0.85569 0.86334 0.0
H2464 H 0.65853 0.76663 0.88161 0.0
H2465 H 0.64123 0.73993 0.86483 0.0
H2466 H 0.63429 0.75575 0.89235 0.0
H2467 H 0.59924 0.76066 0.86855 0.0
H2468 H 0.60626 0.74514 0.84074 0.0
H2469 H 0.59953 0.77519 0.84185 0.0
H2470 H 0.66619 0.83376 0.82634 0.0
H2471 H 0.68098 0.8052 0.79822 0.0
H2472 H 0.64408 0.74418 0.82227 0.0
C2473 C 0.62757 0.80655 0.89825 0.0
C2474 C 0.63178 0.83129 0.909 0.0
C2475 C 0.64087 0.84917 0.8962 0.0
C2476 C 0.64653 0.84219 0.87295 0.0
C2477 C 0.64214 0.81745 0.8627 0.0
C2478 C 0.63266 0.79999 0.8749 0.0
C2479 C 0.63062 0.77455 0.86073 0.0
C2480 C 0.64185 0.75828 0.87577 0.0
C2481 C 0.60754 0.76323 0.85248 0.0
C2482 C 0.64169 0.78016 0.8393 0.0
C2483 C 0.64794 0.80501 0.84053 0.0
C2484 C 0.66107 0.8143 0.82482 0.0
C2485 C 0.66922 0.79779 0.80864 0.0
C2486 C 0.66398 0.77221 0.80813 0.0
C2487 C 0.64877 0.76353 0.82241 0.0
H2488 H 0.47978 0.56611 0.72594 0.0
H2489 H 0.42413 0.51458 0.69317 0.0
H2490 H 0.43952 0.50761 0.6546 0.0
H2491 H 0.48677 0.59296 0.67065 0.0
H2492 H 0.51493 0.59777 0.67599 0.0
H2493 H 0.50004 0.59786 0.70142 0.0
H2494 H 0.51853 0.56409 0.71617 0.0
H2495 H 0.53344 0.56391 0.69076 0.0
H2496 H 0.51791 0.53603 0.69552 0.0
H2497 H 0.46307 0.50389 0.61893 0.0
H2498 H 0.48937 0.50791 0.59023 0.0
H2499 H 0.52772 0.56602 0.64314 0.0
C2500 C 0.47082 0.55326 0.71071 0.0
C2501 C 0.45055 0.54071 0.71322 0.0
C2502 C 0.43955 0.52446 0.69227 0.0
C2503 C 0.44829 0.5203 0.67006 0.0
C2504 C 0.46817 0.53285 0.6682 0.0
C2505 C 0.47914 0.5494 0.68793 0.0
C2506 C 0.49976 0.56151 0.68066 0.0
C2507 C 0.50041 0.58917 0.68228 0.0
C2508 C 0.51852 0.55606 0.69674 0.0
C2509 C 0.49882 0.54909 0.65404 0.0
C2510 C 0.48061 0.53231 0.64725 0.0
C2511 C 0.47701 0.51762 0.62402 0.0
C2512 C 0.49202 0.52033 0.60738 0.0
C2513 C 0.51044 0.53827 0.61323 0.0
C2514 C 0.51368 0.55255 0.6373 0.0
H2515 H 0.81818 0.26651 0.0422 0.0
H2516 H 0.82621 0.19292 0.01306 0.0
H2517 H 0.79797 0.19088 0.9796 0.0
H2518 H 0.76245 0.25857 0.02731 0.0
H2519 H 0.76266 0.28799 0.01803 0.0
H2520 H 0.78289 0.28376 0.04083 0.0
H2521 H 0.81202 0.2985 0.01525 0.0
H2522 H 0.7919 0.30454 0.99363 0.0
H2523 H 0.80993 0.28507 0.9835 0.0
H2524 H 0.76779 0.19578 0.95077 0.0
H2525 H 0.7493 0.21325 0.91868 0.0
H2526 H 0.76233 0.28404 0.96546 0.0
C2527 C 0.81424 0.25013 0.02856 0.0
C2528 C 0.82405 0.22974 0.03051 0.0
C2529 C 0.81874 0.20876 0.01206 0.0
C2530 C 0.8024 0.20717 0.99328 0.0
C2531 C 0.79181 0.22683 0.9931 0.0
C2532 C 0.79817 0.24832 0.00951 0.0
C2533 C 0.78601 0.26787 1.0034 0.0
C2534 C 0.77272 0.27496 0.0236 0.0
C2535 C 0.80084 0.29029 0.99863 0.0
C2536 C 0.77237 0.25428 0.9804 0.0
C2537 C 0.7752 0.23024 0.9755 0.0
C2538 C 0.76555 0.21461 0.95429 0.0
C2539 C 0.75487 0.22465 0.93627 0.0
C2540 C 0.7554 0.25024 0.9392 0.0
C2541 C 0.76187 0.26449 0.96254 0.0
H2542 H 0.10158 0.49258 0.22699 0.0
H2543 H 0.16144 0.53272 0.21718 0.0
H2544 H 0.14648 0.53898 0.17652 0.0
H2545 H 0.08921 0.46244 0.16221 0.0
H2546 H 0.06158 0.46286 0.16122 0.0
H2547 H 0.07695 0.46131 0.18958 0.0
H2548 H 0.06451 0.49986 0.21036 0.0
H2549 H 0.04908 0.50145 0.18212 0.0
H2550 H 0.06819 0.52739 0.19717 0.0
H2551 H 0.12432 0.54129 0.13547 0.0
H2552 H 0.09734 0.54001 0.10015 0.0
H2553 H 0.05173 0.49844 0.13573 0.0
C2554 C 0.11157 0.5027 0.21633 0.0
C2555 C 0.13292 0.51216 0.2258 0.0
C2556 C 0.1452 0.52508 0.21072 0.0
C2557 C 0.13676 0.5288 0.1874 0.0
C2558 C 0.11583 0.51921 0.17858 0.0
C2559 C 0.10341 0.50625 0.19258 0.0
C2560 C 0.08149 0.49739 0.17851 0.0
C2561 C 0.07704 0.46934 0.17254 0.0
C2562 C 0.06483 0.50712 0.1929 0.0
C2563 C 0.08317 0.50841 0.15512 0.0
C2564 C 0.10325 0.52053 0.15525 0.0
C2565 C 0.10859 0.53176 0.13534 0.0
C2566 C 0.09313 0.53085 0.11514 0.0
C2567 C 0.07225 0.51907 0.11475 0.0
C2568 C 0.06747 0.50763 0.13519 0.0
H2569 H 0.7881 0.86849 0.48021 0.0
H2570 H 0.84619 0.85013 0.51119 0.0
H2571 H 0.84721 0.82214 0.47276 0.0
H2572 H 0.76728 0.80517 0.44537 0.0
H2573 H 0.75456 0.81702 0.42056 0.0
H2574 H 0.75745 0.83346 0.45134 0.0
H2575 H 0.77612 0.87207 0.43716 0.0
H2576 H 0.77339 0.85574 0.40648 0.0
H2577 H 0.79893 0.87021 0.42178 0.0
H2578 H 0.84431 0.80112 0.42892 0.0
H2579 H 0.83628 0.78603 0.38451 0.0
H2580 H 0.77865 0.8158 0.38346 0.0
C2581 C 0.80078 0.85815 0.47899 0.0
C2582 C 0.81709 0.86137 0.49847 0.0
C2583 C 0.83348 0.84765 0.49643 0.0
C2584 C 0.83418 0.83178 0.4747 0.0
C2585 C 0.81803 0.82934 0.45557 0.0
C2586 C 0.80137 0.84172 0.45775 0.0
C2587 C 0.78628 0.83641 0.43433 0.0
C2588 C 0.76514 0.82217 0.43813 0.0
C2589 C 0.78355 0.86001 0.42436 0.0
C2590 C 0.79776 0.82049 0.41811 0.0
C2591 C 0.81592 0.81636 0.43072 0.0
C2592 C 0.82989 0.80376 0.41901 0.0
C2593 C 0.82524 0.79534 0.39374 0.0
C2594 C 0.80675 0.79953 0.38048 0.0
C2595 C 0.79274 0.81191 0.39306 0.0
H2596 H 0.48088 0.51541 0.86235 0.0
H2597 H 0.44858 0.57711 0.87527 0.0
H2598 H 0.46342 0.58426 0.91913 0.0
H2599 H 0.47325 0.49325 0.91863 0.0
H2600 H 0.4985 0.484 0.9223 0.0
H2601 H 0.48572 0.48439 0.89218 0.0
H2602 H 0.5182 0.5128 0.88348 0.0
H2603 H 0.53108 0.51252 0.91359 0.0
H2604 H 0.52798 0.54114 0.90396 0.0
H2605 H 0.48328 0.58474 0.96307 0.0
H2606 H 0.50342 0.57733 1.00063 0.0
H2607 H 0.5216 0.51429 0.95895 0.0
C2608 C 0.47686 0.53054 0.87426 0.0
C2609 C 0.46341 0.54575 0.86482 0.0
C2610 C 0.45872 0.56513 0.8816 0.0
C2611 C 0.46718 0.56934 0.9067 0.0
C2612 C 0.48037 0.55399 0.91525 0.0
C2613 C 0.48503 0.53486 0.89937 0.0
C2614 C 0.49925 0.52059 0.91293 0.0
C2615 C 0.48854 0.49398 0.91142 0.0
C2616 C 0.52038 0.52184 0.90289 0.0
C2617 C 0.50189 0.53446 0.93902 0.0
C2618 C 0.49106 0.55385 0.94003 0.0
C2619 C 0.49161 0.56946 0.96223 0.0
C2620 C 0.50322 0.5651 0.98366 0.0
C2621 C 0.51421 0.54508 0.98329 0.0
C2622 C 0.5134 0.52969 0.96033 0.0
H2623 H 0.84147 0.25878 0.1428 0.0
H2624 H 0.83469 0.19262 0.17418 0.0
H2625 H 0.80044 0.19895 0.18432 0.0
H2626 H 0.83691 0.29012 0.1907 0.0
H2627 H 0.82259 0.31282 0.18083 0.0
H2628 H 0.83712 0.29725 0.16022 0.0
H2629 H 0.80392 0.28346 0.12894 0.0
H2630 H 0.78911 0.29908 0.14981 0.0
H2631 H 0.7806 0.26718 0.13753 0.0
H2632 H 0.77329 0.21572 0.20143 0.0
H2633 H 0.7733 0.24245 0.23979 0.0
H2634 H 0.80287 0.30391 0.21121 0.0
C2635 C 0.83212 0.24511 0.15071 0.0
C2636 C 0.83992 0.22401 0.15553 0.0
C2637 C 0.82833 0.20769 0.16808 0.0
C2638 C 0.80865 0.21125 0.17394 0.0
C2639 C 0.80145 0.23258 0.16955 0.0
C2640 C 0.81347 0.24986 0.15911 0.0
C2641 C 0.80781 0.2749 0.16599 0.0
C2642 C 0.82727 0.29488 0.17503 0.0
C2643 C 0.79456 0.28153 0.14428 0.0
C2644 C 0.79445 0.26981 0.18593 0.0
C2645 C 0.78808 0.24484 0.18446 0.0
C2646 C 0.77813 0.23521 0.20268 0.0
C2647 C 0.77808 0.25057 0.22464 0.0
C2648 C 0.78827 0.2749 0.22824 0.0
C2649 C 0.79483 0.2852 0.20826 0.0
H2650 H 0.13669 0.55074 0.39744 0.0
H2651 H 0.10325 0.48196 0.35611 0.0
H2652 H 0.08208 0.47673 0.38987 0.0
H2653 H 0.13834 0.52948 0.45792 0.0
H2654 H 0.13547 0.55866 0.47435 0.0
H2655 H 0.14808 0.55718 0.44707 0.0
H2656 H 0.12193 0.58177 0.42838 0.0
H2657 H 0.10911 0.58307 0.45549 0.0
H2658 H 0.09426 0.57071 0.42604 0.0
H2659 H 0.06091 0.48194 0.4258 0.0
H2660 H 0.04692 0.49121 0.46465 0.0
H2661 H 0.0968 0.55354 0.48759 0.0
C2662 C 0.12524 0.53428 0.39575 0.0
C2663 C 0.12194 0.51655 0.37386 0.0
C2664 C 0.10648 0.49558 0.37253 0.0
C2665 C 0.09418 0.49259 0.39166 0.0
C2666 C 0.09759 0.51045 0.41269 0.0
C2667 C 0.11322 0.53055 0.41525 0.0
C2668 C 0.11403 0.54646 0.44036 0.0
C2669 C 0.13525 0.54804 0.45584 0.0
C2670 C 0.10957 0.57202 0.43738 0.0
C2671 C 0.09632 0.53233 0.45139 0.0
C2672 C 0.08674 0.51201 0.43464 0.0
C2673 C 0.06877 0.49739 0.43924 0.0
C2674 C 0.06083 0.50297 0.4616 0.0
C2675 C 0.07096 0.52262 0.48015 0.0
C2676 C 0.08896 0.53774 0.47455 0.0
H2677 H 0.82666 0.87862 0.66985 0.0
H2678 H 0.80277 0.82141 0.60752 0.0
H2679 H 0.79278 0.79291 0.63515 0.0
H2680 H 0.84717 0.83734 0.70936 0.0
H2681 H 0.84006 0.85325 0.7369 0.0
H2682 H 0.84668 0.86964 0.71256 0.0
H2683 H 0.81112 0.88482 0.71119 0.0
H2684 H 0.80442 0.86852 0.73551 0.0
H2685 H 0.78727 0.86288 0.70702 0.0
H2686 H 0.78292 0.77125 0.66785 0.0
H2687 H 0.77428 0.75635 0.70527 0.0
H2688 H 0.80508 0.82559 0.74867 0.0
C2689 C 0.81959 0.86 0.66211 0.0
C2690 C 0.8156 0.85232 0.63638 0.0
C2691 C 0.80615 0.82783 0.62702 0.0
C2692 C 0.80038 0.81141 0.6426 0.0
C2693 C 0.80432 0.81949 0.66767 0.0
C2694 C 0.81384 0.84306 0.67757 0.0
C2695 C 0.8157 0.84667 0.70542 0.0
C2696 C 0.83878 0.85205 0.71673 0.0
C2697 C 0.80392 0.86693 0.71536 0.0
C2698 C 0.80514 0.82168 0.70936 0.0
C2699 C 0.79888 0.80642 0.68716 0.0
C2700 C 0.78797 0.78286 0.68539 0.0
C2701 C 0.78312 0.7746 0.70682 0.0
C2702 C 0.78919 0.78968 0.72991 0.0
C2703 C 0.80062 0.81352 0.73129 0.0
H2704 H 0.67686 0.39473 0.55642 0.0
H2705 H 0.71195 0.4274 0.50397 0.0
H2706 H 0.70222 0.46683 0.5181 0.0
H2707 H 0.63354 0.43356 0.54779 0.0
H2708 H 0.62933 0.43437 0.57931 0.0
H2709 H 0.63747 0.40808 0.56292 0.0
H2710 H 0.66842 0.41342 0.59746 0.0
H2711 H 0.66108 0.44071 0.61285 0.0
H2712 H 0.68696 0.44156 0.60408 0.0
H2713 H 0.69633 0.50343 0.54325 0.0
H2714 H 0.67983 0.53492 0.56562 0.0
H2715 H 0.64359 0.47945 0.59768 0.0
C2716 C 0.68168 0.40995 0.54725 0.0
C2717 C 0.69577 0.40834 0.52981 0.0
C2718 C 0.70162 0.42847 0.51791 0.0
C2719 C 0.69635 0.45103 0.5259 0.0
C2720 C 0.68438 0.45278 0.54493 0.0
C2721 C 0.67581 0.43267 0.55435 0.0
C2722 C 0.6623 0.44003 0.57374 0.0
C2723 C 0.63929 0.42832 0.56542 0.0
C2724 C 0.67018 0.43354 0.5985 0.0
C2725 C 0.66566 0.46749 0.57437 0.0
C2726 C 0.67902 0.47428 0.55805 0.0
C2727 C 0.68542 0.49849 0.55572 0.0
C2728 C 0.67638 0.51626 0.56885 0.0
C2729 C 0.6608 0.50946 0.58339 0.0
C2730 C 0.65592 0.48499 0.58706 0.0
H2731 H 0.18623 0.13563 0.55025 0.0
H2732 H 0.19919 0.09558 0.48255 0.0
H2733 H 0.16466 0.06921 0.47808 0.0
H2734 H 0.16227 0.0827 0.57167 0.0
H2735 H 0.14306 0.09729 0.58638 0.0
H2736 H 0.16767 0.11507 0.58302 0.0
H2737 H 0.14801 0.14388 0.56083 0.0
H2738 H 0.1233 0.12607 0.56396 0.0
H2739 H 0.12927 0.13133 0.53417 0.0
H2740 H 0.13028 0.04609 0.48146 0.0
H2741 H 0.09897 0.02405 0.49436 0.0
H2742 H 0.10733 0.07673 0.56126 0.0
C2743 C 0.18154 0.12156 0.53429 0.0
C2744 C 0.19521 0.11783 0.51645 0.0
C2745 C 0.1889 0.0988 0.49625 0.0
C2746 C 0.16927 0.08384 0.49353 0.0
C2747 C 0.15618 0.08783 0.51139 0.0
C2748 C 0.16207 0.10595 0.53159 0.0
C2749 C 0.14573 0.10451 0.54921 0.0
C2750 C 0.15525 0.0996 0.57404 0.0
C2751 C 0.136 0.12784 0.55221 0.0
C2752 C 0.12984 0.08264 0.53576 0.0
C2753 C 0.13623 0.07368 0.51382 0.0
C2754 C 0.12504 0.05301 0.49849 0.0
C2755 C 0.10722 0.04062 0.50599 0.0
C2756 C 0.10056 0.04877 0.52865 0.0
C2757 C 0.11177 0.07043 0.54357 0.0
H2758 H 0.23061 0.95417 0.83167 0.0
H2759 H 0.17779 0.92204 0.77672 0.0
H2760 H 0.19247 0.88407 0.7697 0.0
H2761 H 0.27074 0.92681 0.80329 0.0
H2762 H 0.28393 0.92037 0.83104 0.0
H2763 H 0.26948 0.94531 0.83221 0.0
H2764 H 0.24769 0.92705 0.86322 0.0
H2765 H 0.26208 0.90201 0.86209 0.0
H2766 H 0.23397 0.89602 0.85558 0.0
H2767 H 0.21291 0.84828 0.7681 0.0
H2768 H 0.23703 0.81886 0.77184 0.0
H2769 H 0.27788 0.87186 0.82777 0.0
C2770 C 0.22212 0.93919 0.8181 0.0
C2771 C 0.20273 0.94178 0.80468 0.0
C2772 C 0.19241 0.92115 0.7874 0.0
C2773 C 0.20074 0.89923 0.78322 0.0
C2774 C 0.21963 0.89727 0.7966 0.0
C2775 C 0.23017 0.91665 0.81391 0.0
C2776 C 0.24996 0.90912 0.82618 0.0
C2777 C 0.2697 0.92644 0.82298 0.0
C2778 C 0.24834 0.90853 0.85339 0.0
C2779 C 0.24943 0.88312 0.81228 0.0
C2780 C 0.23148 0.87661 0.79562 0.0
C2781 C 0.227 0.85342 0.78109 0.0
C2782 C 0.24096 0.83659 0.78339 0.0
C2783 C 0.25984 0.84249 0.79989 0.0
C2784 C 0.26391 0.86641 0.81462 0.0
H2785 H 0.3182 0.9107 0.03495 0.0
H2786 H 0.30526 0.88053 0.95777 0.0
H2787 H 0.34289 0.89049 0.95396 0.0
H2788 H 0.35274 0.96149 0.02804 0.0
H2789 H 0.37019 0.96305 0.05572 0.0
H2790 H 0.34321 0.94922 0.05365 0.0
H2791 H 0.35443 0.90947 0.06464 0.0
H2792 H 0.38151 0.9233 0.0668 0.0
H2793 H 0.37179 0.89468 0.04677 0.0
H2794 H 0.38031 0.90754 0.95713 0.0
H2795 H 0.41499 0.93385 0.96601 0.0
H2796 H 0.4042 0.95528 0.04084 0.0
C2797 C 0.32347 0.90573 0.01742 0.0
C2798 C 0.30901 0.89476 0.99663 0.0
C2799 C 0.31618 0.88901 0.97382 0.0
C2800 C 0.33751 0.89437 0.97158 0.0
C2801 C 0.35136 0.9057 0.99228 0.0
C2802 C 0.34467 0.9115 0.01477 0.0
C2803 C 0.36231 0.92663 0.03327 0.0
C2804 C 0.35678 0.95157 0.04324 0.0
C2805 C 0.36784 0.91268 0.0541 0.0
C2806 C 0.37973 0.92927 0.01736 0.0
C2807 C 0.37315 0.91645 0.99398 0.0
C2808 C 0.38575 0.91739 0.97541 0.0
C2809 C 0.40535 0.93241 0.98057 0.0
C2810 C 0.41212 0.9464 1.00404 0.0
C2811 C 0.39942 0.94436 0.02288 0.0
H2812 H 0.90247 0.64688 0.7838 0.0
H2813 H 0.85378 0.59064 0.79739 0.0
H2814 H 0.82967 0.62033 0.80051 0.0
H2815 H 0.88938 0.69676 0.82385 0.0
H2816 H 0.89253 0.71985 0.80486 0.0
H2817 H 0.9077 0.69552 0.80185 0.0
H2818 H 0.89463 0.68215 0.75664 0.0
H2819 H 0.87949 0.70654 0.75692 0.0
H2820 H 0.86698 0.67546 0.74621 0.0
H2821 H 0.81008 0.65584 0.80232 0.0
H2822 H 0.79603 0.69369 0.80164 0.0
H2823 H 0.85569 0.73 0.78619 0.0
C2824 C 0.88676 0.6408 0.78751 0.0
C2825 C 0.88036 0.61587 0.79044 0.0
C2826 C 0.85942 0.60918 0.79499 0.0
C2827 C 0.84546 0.62611 0.79684 0.0
C2828 C 0.85213 0.65022 0.79382 0.0
C2829 C 0.87223 0.65764 0.78903 0.0
C2830 C 0.87484 0.68474 0.78597 0.0
C2831 C 0.89218 0.70013 0.80524 0.0
C2832 C 0.8793 0.68741 0.75991 0.0
C2833 C 0.85333 0.69147 0.79025 0.0
C2834 C 0.84058 0.67097 0.79462 0.0
C2835 C 0.82001 0.67187 0.79878 0.0
C2836 C 0.81208 0.69381 0.79824 0.0
C2837 C 0.82432 0.71554 0.79367 0.0
C2838 C 0.84559 0.71416 0.78984 0.0
H2839 H 0.82638 0.60651 0.01311 0.0
H2840 H 0.83005 0.65426 0.08237 0.0
H2841 H 0.86665 0.64885 0.09298 0.0
H2842 H 0.85355 0.56396 0.03397 0.0
H2843 H 0.86757 0.55859 1.00808 0.0
H2844 H 0.84286 0.56894 1.00434 0.0
H2845 H 0.8601 0.60594 0.98649 0.0
H2846 H 0.88492 0.59563 0.99012 0.0
H2847 H 0.88265 0.62609 1.00376 0.0
H2848 H 0.9011 0.63455 0.0981 0.0
H2849 H 0.9311 0.61264 0.09735 0.0
H2850 H 0.90557 0.57396 0.02467 0.0
C2851 C 0.83519 0.61631 0.03016 0.0
C2852 C 0.82566 0.63109 0.04684 0.0
C2853 C 0.83731 0.64319 0.06927 0.0
C2854 C 0.85807 0.64022 0.07542 0.0
C2855 C 0.86702 0.62522 0.05881 0.0
C2856 C 0.85606 0.61365 0.03651 0.0
C2857 C 0.86893 0.59726 0.02274 0.0
C2858 C 0.85755 0.57061 0.01696 0.0
C2859 C 0.87447 0.6068 0.99939 0.0
C2860 C 0.88826 0.6003 0.04135 0.0
C2861 C 0.88699 0.61689 0.06182 0.0
C2862 C 0.90236 0.62174 0.08204 0.0
C2863 C 0.91929 0.60906 0.08151 0.0
C2864 C 0.92072 0.5915 0.06099 0.0
C2865 C 0.90514 0.58752 0.04047 0.0
H2866 H 0.19957 0.12577 0.83753 0.0
H2867 H 0.22234 0.0768 0.78295 0.0
H2868 H 0.24543 0.11208 0.7727 0.0
H2869 H 0.20028 0.17745 0.80675 0.0
H2870 H 0.21026 0.20029 0.8333 0.0
H2871 H 0.19532 0.17152 0.83667 0.0
H2872 H 0.22555 0.16397 0.86685 0.0
H2873 H 0.24043 0.19295 0.86395 0.0
H2874 H 0.2514 0.16545 0.85789 0.0
H2875 H 0.26446 0.15323 0.76616 0.0
H2876 H 0.2832 0.19518 0.76897 0.0
H2877 H 0.25156 0.21916 0.83034 0.0
C2878 C 0.20968 0.1224 0.82367 0.0
C2879 C 0.20903 0.09806 0.81115 0.0
C2880 C 0.22257 0.09483 0.79312 0.0
C2881 C 0.23564 0.11496 0.78697 0.0
C2882 C 0.23558 0.13858 0.79928 0.0
C2883 C 0.2234 0.14236 0.81779 0.0
C2884 C 0.22732 0.1696 0.82906 0.0
C2885 C 0.20708 0.18034 0.82628 0.0
C2886 C 0.23673 0.17321 0.85604 0.0
C2887 C 0.24323 0.18067 0.81365 0.0
C2888 C 0.24743 0.1623 0.79637 0.0
C2889 C 0.26133 0.16757 0.77979 0.0
C2890 C 0.27184 0.19172 0.78141 0.0
C2891 C 0.26885 0.21102 0.79954 0.0
C2892 C 0.25396 0.20528 0.81576 0.0
H2893 H 0.39155 0.96189 0.32079 0.0
H2894 H 0.37083 0.96789 0.24598 0.0
H2895 H 0.34747 0.92783 0.24109 0.0
H2896 H 0.39209 0.89842 0.3123 0.0
H2897 H 0.38177 0.89292 0.34007 0.0
H2898 H 0.39603 0.92257 0.33834 0.0
H2899 H 0.3647 0.94266 0.35057 0.0
H2900 H 0.35044 0.91308 0.35261 0.0
H2901 H 0.33923 0.93198 0.33319 0.0
H2902 H 0.32875 0.88475 0.24314 0.0
H2903 H 0.31321 0.84517 0.25301 0.0
H2904 H 0.34355 0.8671 0.3277 0.0
C2905 C 0.38166 0.95506 0.30358 0.0
C2906 C 0.38281 0.96851 0.28385 0.0
C2907 C 0.36995 0.95844 0.2615 0.0
C2908 C 0.35673 0.93549 0.25853 0.0
C2909 C 0.35615 0.9226 0.27816 0.0
C2910 C 0.36794 0.93228 0.30047 0.0
C2911 C 0.36426 0.91465 0.31867 0.0
C2912 C 0.38476 0.90667 0.32789 0.0
C2913 C 0.35405 0.92629 0.34003 0.0
C2914 C 0.3491 0.89322 0.30296 0.0
C2915 C 0.34474 0.89822 0.27961 0.0
C2916 C 0.33191 0.88093 0.26149 0.0
C2917 C 0.32317 0.85826 0.26731 0.0
C2918 C 0.3269 0.85261 0.29122 0.0
C2919 C 0.34012 0.87062 0.30928 0.0
H2920 H 0.56228 0.3817 0.64422 0.0
H2921 H 0.60038 0.34998 0.59317 0.0
H2922 H 0.5985 0.38408 0.56997 0.0
H2923 H 0.52823 0.4024 0.59869 0.0
H2924 H 0.52585 0.42967 0.61896 0.0
H2925 H 0.53017 0.40265 0.63118 0.0
H2926 H 0.5629 0.42752 0.65927 0.0
H2927 H 0.55881 0.45456 0.64699 0.0
H2928 H 0.58349 0.44401 0.64595 0.0
H2929 H 0.59302 0.42249 0.55295 0.0
H2930 H 0.58337 0.46126 0.54283 0.0
H2931 H 0.54778 0.4666 0.60406 0.0
C2932 C 0.5702 0.38188 0.62813 0.0
C2933 C 0.58159 0.36327 0.62056 0.0
C2934 C 0.59155 0.36404 0.59926 0.0
C2935 C 0.59061 0.38336 0.58602 0.0
C2936 C 0.57941 0.40156 0.59414 0.0
C2937 C 0.56918 0.4008 0.61455 0.0
C2938 C 0.5579 0.42235 0.61927 0.0
C2939 C 0.53413 0.41375 0.61687 0.0
C2940 C 0.56629 0.43803 0.64436 0.0
C2941 C 0.56377 0.4357 0.59867 0.0
C2942 C 0.57618 0.42344 0.58434 0.0
C2943 C 0.58352 0.43234 0.56421 0.0
C2944 C 0.57805 0.45432 0.55862 0.0
C2945 C 0.56517 0.46684 0.57294 0.0
C2946 C 0.55792 0.45741 0.59312 0.0
H2947 H 0.4342 0.75014 0.39206 0.0
H2948 H 0.46803 0.7985 0.3499 0.0
H2949 H 0.43517 0.80625 0.3304 0.0
H2950 H 0.39278 0.72325 0.34322 0.0
H2951 H 0.37213 0.72154 0.36227 0.0
H2952 H 0.39846 0.7205 0.37492 0.0
H2953 H 0.39723 0.75717 0.40844 0.0
H2954 H 0.37094 0.75846 0.39569 0.0
H2955 H 0.39098 0.78512 0.39969 0.0
H2956 H 0.3998 0.80895 0.3141 0.0
H2957 H 0.36231 0.80264 0.2985 0.0
H2958 H 0.34888 0.75204 0.34865 0.0
C2959 C 0.43464 0.76232 0.37873 0.0
C2960 C 0.45404 0.77366 0.37277 0.0
C2961 C 0.4537 0.78943 0.35506 0.0
C2962 C 0.43499 0.79419 0.34384 0.0
C2963 C 0.41633 0.78305 0.35015 0.0
C2964 C 0.41578 0.76721 0.3669 0.0
C2965 C 0.39311 0.75683 0.36892 0.0
C2966 C 0.38888 0.72887 0.36191 0.0
C2967 C 0.38775 0.76487 0.39473 0.0
C2968 C 0.38134 0.76884 0.35019 0.0
C2969 C 0.39525 0.78428 0.3401 0.0
C2970 C 0.38869 0.79704 0.32194 0.0
C2971 C 0.36738 0.79343 0.31325 0.0
C2972 C 0.35278 0.77723 0.32262 0.0
C2973 C 0.35974 0.76499 0.34162 0.0
H2974 H 0.06785 0.72501 0.11588 0.0
H2975 H 0.09344 0.70965 0.18601 0.0
H2976 H 0.08869 0.66618 0.16893 0.0
H2977 H 0.0285 0.67118 0.10036 0.0
H2978 H 0.03146 0.66603 0.06835 0.0
H2979 H 0.03733 0.69656 0.08551 0.0
H2980 H 0.07453 0.7017 0.07266 0.0
H2981 H 0.06874 0.67119 0.05541 0.0
H2982 H 0.09113 0.6798 0.07862 0.0
H2983 H 0.08153 0.62493 0.14553 0.0
H2984 H 0.07151 0.5866 0.11596 0.0
H2985 H 0.0495 0.62667 0.06055 0.0
C2986 C 0.07253 0.71249 0.12756 0.0
C2987 C 0.08101 0.72086 0.15234 0.0
C2988 C 0.08687 0.70384 0.16703 0.0
C2989 C 0.08428 0.67903 0.15751 0.0
C2990 C 0.07579 0.67136 0.13322 0.0
C2991 C 0.06998 0.68742 0.11832 0.0
C2992 C 0.06101 0.67389 0.09285 0.0
C2993 C 0.03822 0.67711 0.0864 0.0
C2994 C 0.07467 0.68214 0.07376 0.0
C2995 C 0.06242 0.64778 0.09606 0.0
C2996 C 0.07121 0.64697 0.11951 0.0
C2997 C 0.07458 0.62524 0.12713 0.0
C2998 C 0.06884 0.60364 0.1103 0.0
C2999 C 0.05968 0.60393 0.08631 0.0
C3000 C 0.05634 0.62618 0.07897 0.0
H3001 H 0.07425 0.23284 0.88559 0.0
H3002 H 0.0711 0.30586 0.92145 0.0
H3003 H 0.10513 0.32134 0.90896 0.0
H3004 H 0.13062 0.2381 0.90351 0.0
H3005 H 0.13481 0.22017 0.87548 0.0
H3006 H 0.11 0.21459 0.88692 0.0
H3007 H 0.09091 0.22112 0.84589 0.0
H3008 H 0.11562 0.22649 0.83427 0.0
H3009 H 0.09866 0.249 0.83433 0.0
H3010 H 0.13894 0.32918 0.89223 0.0
H3011 H 0.1705 0.32915 0.8716 0.0
H3012 H 0.153 0.25093 0.84727 0.0
C3013 C 0.08073 0.25208 0.89057 0.0
C3014 C 0.07007 0.26825 0.90429 0.0
C3015 C 0.0791 0.29324 0.91092 0.0
C3016 C 0.09841 0.30218 0.90396 0.0
C3017 C 0.10873 0.28581 0.89072 0.0
C3018 C 0.10033 0.26128 0.88418 0.0
C3019 C 0.11503 0.24766 0.87035 0.0
C3020 C 0.12309 0.22902 0.88493 0.0
C3021 C 0.10442 0.23535 0.84468 0.0
C3022 C 0.1325 0.26853 0.86924 0.0
C3023 C 0.1286 0.29031 0.88141 0.0
C3024 C 0.14217 0.31224 0.88265 0.0
C3025 C 0.16003 0.31204 0.87076 0.0
C3026 C 0.1642 0.29008 0.85763 0.0
C3027 C 0.15037 0.26797 0.8573 0.0
H3028 H 0.56753 0.77648 0.01645 0.0
H3029 H 0.55509 0.74905 0.93866 0.0
H3030 H 0.53042 0.71376 0.94643 0.0
H3031 H 0.56947 0.72283 0.03642 0.0
H3032 H 0.55675 0.72995 0.0631 0.0
H3033 H 0.57047 0.75414 0.05032 0.0
H3034 H 0.53662 0.77322 0.04671 0.0
H3035 H 0.52267 0.74839 0.05882 0.0
H3036 H 0.51288 0.75531 0.02968 0.0
H3037 H 0.5123 0.67871 0.96333 0.0
H3038 H 0.50505 0.64592 0.9878 0.0
H3039 H 0.52743 0.69804 0.05412 0.0
C3040 C 0.55951 0.76308 1.00105 0.0
C3041 C 0.56336 0.76507 0.97706 0.0
C3042 C 0.55239 0.74756 0.95725 0.0
C3043 C 0.53818 0.72772 0.96146 0.0
C3044 C 0.5347 0.72627 0.98548 0.0
C3045 C 0.54498 0.74364 1.0049 0.0
C3046 C 0.54019 0.73687 0.0291 0.0
C3047 C 0.56041 0.73586 0.04567 0.0
C3048 C 0.52732 0.7545 0.04182 0.0
C3049 C 0.52713 0.71191 0.02043 0.0
C3050 C 0.5235 0.70638 0.99518 0.0
C3051 C 0.51453 0.68302 0.98308 0.0
C3052 C 0.51048 0.66451 0.99709 0.0
C3053 C 0.5157 0.66957 0.02282 0.0
C3054 C 0.52274 0.69382 0.03457 0.0
H3055 H 0.08735 0.76569 0.67897 0.0
H3056 H 0.05287 0.71427 0.71718 0.0
H3057 H 0.08586 0.70797 0.73906 0.0
H3058 H 0.13057 0.73635 0.67087 0.0
H3059 H 0.15002 0.76371 0.67734 0.0
H3060 H 0.12365 0.76506 0.66515 0.0
H3061 H 0.12158 0.79845 0.70163 0.0
H3062 H 0.14796 0.79721 0.71403 0.0
H3063 H 0.12701 0.7927 0.73238 0.0
H3064 H 0.12148 0.70515 0.75462 0.0
H3065 H 0.15937 0.70727 0.76528 0.0
H3066 H 0.17158 0.76206 0.71889 0.0
C3067 C 0.08691 0.75354 0.69236 0.0
C3068 C 0.06783 0.74073 0.69694 0.0
C3069 C 0.06746 0.72462 0.71408 0.0
C3070 C 0.08605 0.72083 0.72641 0.0
C3071 C 0.10469 0.73371 0.72164 0.0
C3072 C 0.10537 0.75 0.70533 0.0
C3073 C 0.12765 0.7615 0.70388 0.0
C3074 C 0.13329 0.75632 0.67775 0.0
C3075 C 0.13126 0.7891 0.71356 0.0
C3076 C 0.1393 0.74814 0.72105 0.0
C3077 C 0.12564 0.73242 0.73119 0.0
C3078 C 0.13243 0.71762 0.74716 0.0
C3079 C 0.15389 0.71898 0.75313 0.0
C3080 C 0.16819 0.73493 0.74301 0.0
C3081 C 0.16084 0.74971 0.72679 0.0
H3082 H 0.10375 0.40968 0.48353 0.0
H3083 H 0.06336 0.35287 0.5089 0.0
H3084 H 0.03764 0.3803 0.51555 0.0
H3085 H 0.10038 0.4476 0.53282 0.0
H3086 H 0.10418 0.47497 0.51946 0.0
H3087 H 0.11424 0.44885 0.50661 0.0
H3088 H 0.09205 0.44617 0.46318 0.0
H3089 H 0.08649 0.47476 0.47729 0.0
H3090 H 0.06522 0.45062 0.46264 0.0
H3091 H 0.02212 0.41643 0.53109 0.0
H3092 H 0.02078 0.45652 0.55607 0.0
H3093 H 0.07299 0.48936 0.52348 0.0
C3094 C 0.08895 0.40268 0.48923 0.0
C3095 C 0.08542 0.37942 0.49551 0.0
C3096 C 0.06634 0.37089 0.50395 0.0
C3097 C 0.05153 0.38626 0.50754 0.0
C3098 C 0.0563 0.41011 0.50308 0.0
C3099 C 0.07477 0.4182 0.49424 0.0
C3100 C 0.08 0.4455 0.49822 0.0
C3101 C 0.10088 0.45472 0.51529 0.0
C3102 C 0.08086 0.45479 0.47383 0.0
C3103 C 0.06164 0.45177 0.51062 0.0
C3104 C 0.04783 0.43127 0.51307 0.0
C3105 C 0.03237 0.43268 0.52861 0.0
C3106 C 0.03173 0.45537 0.54282 0.0
C3107 C 0.04668 0.47586 0.54139 0.0
C3108 C 0.06095 0.47412 0.5243 0.0
H3109 H 0.46428 0.21816 0.22934 0.0
H3110 H 0.48138 0.2775 0.18966 0.0
H3111 H 0.4633 0.30411 0.21627 0.0
H3112 H 0.41181 0.23339 0.23757 0.0
H3113 H 0.41256 0.22365 0.26696 0.0
H3114 H 0.42601 0.20938 0.24373 0.0
H3115 H 0.4602 0.21986 0.27414 0.0
H3116 H 0.44709 0.23503 0.29717 0.0
H3117 H 0.47007 0.25123 0.28769 0.0
H3118 H 0.44671 0.32506 0.24922 0.0
H3119 H 0.42488 0.33688 0.28118 0.0
H3120 H 0.41733 0.26343 0.29796 0.0
C3121 C 0.46389 0.23666 0.22615 0.0
C3122 C 0.47426 0.2461 0.20793 0.0
C3123 C 0.47338 0.27015 0.20371 0.0
C3124 C 0.46336 0.28539 0.21878 0.0
C3125 C 0.45405 0.27593 0.23741 0.0
C3126 C 0.45352 0.2519 0.24059 0.0
C3127 C 0.44169 0.24605 0.26135 0.0
C3128 C 0.42184 0.22701 0.25184 0.0
C3129 C 0.45561 0.23755 0.28127 0.0
C3130 C 0.43651 0.27089 0.27004 0.0
C3131 C 0.44389 0.28788 0.25607 0.0
C3132 C 0.44079 0.31202 0.26035 0.0
C3133 C 0.42878 0.31868 0.27871 0.0
C3134 C 0.42012 0.30113 0.29213 0.0
C3135 C 0.42447 0.27721 0.28828 0.0
H3136 H 0.60218 0.53175 0.37794 0.0
H3137 H 0.6585 0.50618 0.40371 0.0
H3138 H 0.64581 0.50463 0.44401 0.0
H3139 H 0.59546 0.56895 0.43381 0.0
H3140 H 0.5674 0.56042 0.4301 0.0
H3141 H 0.58103 0.55985 0.40363 0.0
H3142 H 0.5645 0.51454 0.3888 0.0
H3143 H 0.55061 0.51508 0.41506 0.0
H3144 H 0.56723 0.49265 0.409 0.0
H3145 H 0.62633 0.50766 0.48391 0.0
H3146 H 0.6014 0.50951 0.51457 0.0
H3147 H 0.55681 0.53047 0.46214 0.0
C3148 C 0.6119 0.52567 0.39196 0.0
C3149 C 0.63162 0.51914 0.38712 0.0
C3150 C 0.64342 0.51118 0.40638 0.0
C3151 C 0.6363 0.5104 0.4296 0.0
C3152 C 0.61696 0.51723 0.43376 0.0
C3153 C 0.60476 0.52424 0.41512 0.0
C3154 C 0.58412 0.52959 0.42367 0.0
C3155 C 0.58188 0.55629 0.42274 0.0
C3156 C 0.56551 0.51192 0.40821 0.0
C3157 C 0.58657 0.52492 0.45009 0.0
C3158 C 0.60574 0.51809 0.45579 0.0
C3159 C 0.61139 0.51311 0.47934 0.0
C3160 C 0.59718 0.51463 0.49703 0.0
C3161 C 0.57718 0.52103 0.49154 0.0
C3162 C 0.57206 0.5261 0.46747 0.0
H3163 H 0.2876 0.8602 0.10181 0.0
H3164 H 0.26437 0.79086 0.05413 0.0
H3165 H 0.29195 0.77266 0.07471 0.0
H3166 H 0.3435 0.85603 0.10696 0.0
H3167 H 0.34797 0.86947 0.13886 0.0
H3168 H 0.32793 0.87791 0.11859 0.0
H3169 H 0.29979 0.8655 0.14611 0.0
H3170 H 0.31993 0.85841 0.16693 0.0
H3171 H 0.29724 0.83561 0.1547 0.0
H3172 H 0.31886 0.76116 0.10218 0.0
H3173 H 0.33411 0.75375 0.14137 0.0
H3174 H 0.34485 0.83146 0.16932 0.0
C3175 C 0.28835 0.84118 0.09566 0.0
C3176 C 0.27407 0.82696 0.07628 0.0
C3177 C 0.27522 0.80206 0.06901 0.0
C3178 C 0.2911 0.79174 0.0802 0.0
C3179 C 0.30569 0.80666 0.09839 0.0
C3180 C 0.30411 0.83066 0.10651 0.0
C3181 C 0.31977 0.84178 0.12866 0.0
C3182 C 0.33575 0.86252 0.12291 0.0
C3183 C 0.30852 0.85081 0.15037 0.0
C3184 C 0.32974 0.81977 0.13261 0.0
C3185 C 0.32185 0.79997 0.11438 0.0
C3186 C 0.32536 0.77652 0.11642 0.0
C3187 C 0.33441 0.77253 0.13895 0.0
C3188 C 0.33929 0.79195 0.15908 0.0
C3189 C 0.34027 0.81615 0.15451 0.0
H3190 H 0.99307 0.56794 0.87144 0.0
H3191 H 0.9327 0.52661 0.87699 0.0
H3192 H 0.94542 0.52206 0.91937 0.0
H3193 H 0.02517 0.53617 0.90315 0.0
H3194 H 0.04346 0.56237 0.9193 0.0
H3195 H 0.02894 0.56404 0.89054 0.0
H3196 H 1.01477 0.60163 0.91068 0.0
H3197 H 0.02941 0.6002 0.93954 0.0
H3198 H 1.0016 0.59965 0.9373 0.0
H3199 H 0.96702 0.51956 0.96201 0.0
H3200 H 0.99354 0.5205 0.99775 0.0
H3201 H 0.03943 0.56417 0.96447 0.0
C3202 C 0.98228 0.55857 0.88182 0.0
C3203 C 0.96153 0.54822 0.8707 0.0
C3204 C 0.94833 0.53548 0.88501 0.0
C3205 C 0.95558 0.53259 0.9092 0.0
C3206 C 0.97618 0.54285 0.9195 0.0
C3207 C 0.98916 0.55604 0.90625 0.0
C3208 C 1.0106 0.56534 0.92126 0.0
C3209 C 0.02807 0.55643 0.90775 0.0
C3210 C 1.01432 0.59337 0.92756 0.0
C3211 C 1.00832 0.55398 0.94429 0.0
C3212 C 0.98821 0.5415 0.94333 0.0
C3213 C 0.98267 0.52957 0.96276 0.0
C3214 C 0.99789 0.53029 0.98326 0.0
C3215 C 0.01875 0.54259 0.98445 0.0
C3216 C 0.02371 0.55464 0.96449 0.0
H3217 H 0.25862 0.17255 0.62875 0.0
H3218 H 0.27737 0.22941 0.58665 0.0
H3219 H 0.2849 0.25984 0.62463 0.0
H3220 H 0.23344 0.2082 0.67173 0.0
H3221 H 0.24251 0.1944 0.69714 0.0
H3222 H 0.2384 0.17727 0.66661 0.0
H3223 H 0.27664 0.1694 0.67158 0.0
H3224 H 0.2808 0.18642 0.70215 0.0
H3225 H 0.29777 0.19495 0.68024 0.0
H3226 H 0.29158 0.28385 0.66782 0.0
H3227 H 0.29626 0.29913 0.71254 0.0
H3228 H 0.27222 0.2266 0.72538 0.0
C3229 C 0.26421 0.1914 0.62741 0.0
C3230 C 0.26734 0.19857 0.60466 0.0
C3231 C 0.2748 0.22346 0.60384 0.0
C3232 C 0.27912 0.24088 0.62531 0.0
C3233 C 0.27587 0.23313 0.64742 0.0
C3234 C 0.26857 0.20896 0.64857 0.0
C3235 C 0.26669 0.20516 0.67456 0.0
C3236 C 0.2439 0.19571 0.67768 0.0
C3237 C 0.28135 0.18797 0.6826 0.0
C3238 C 0.27394 0.23098 0.68789 0.0
C3239 C 0.2793 0.2469 0.67201 0.0
C3240 C 0.28723 0.27159 0.68038 0.0
C3241 C 0.28981 0.28012 0.70566 0.0
C3242 C 0.28425 0.26399 0.72196 0.0
C3243 C 0.27618 0.23924 0.71301 0.0
H3244 H 0.62226 0.54213 0.24018 0.0
H3245 H 0.64175 0.47187 0.22294 0.0
H3246 H 0.62434 0.46731 0.18067 0.0
H3247 H 0.57137 0.52677 0.2015 0.0
H3248 H 0.57301 0.55609 0.19171 0.0
H3249 H 0.58615 0.55362 0.22108 0.0
H3250 H 0.62113 0.57401 0.20943 0.0
H3251 H 0.60809 0.5765 0.18002 0.0
H3252 H 0.63035 0.56109 0.18189 0.0
H3253 H 0.60449 0.47002 0.13918 0.0
H3254 H 0.5857 0.48054 0.10256 0.0
H3255 H 0.57961 0.55 0.14447 0.0
C3256 C 0.6227 0.52565 0.2276 0.0
C3257 C 0.63346 0.50722 0.23547 0.0
C3258 C 0.63375 0.48627 0.21788 0.0
C3259 C 0.6238 0.48349 0.19361 0.0
C3260 C 0.61354 0.50191 0.18645 0.0
C3261 C 0.613 0.52271 0.2029 0.0
C3262 C 0.6015 0.54011 0.19 0.0
C3263 C 0.58184 0.5444 0.20178 0.0
C3264 C 0.61614 0.56437 0.19036 0.0
C3265 C 0.59565 0.52589 0.16387 0.0
C3266 C 0.60267 0.5038 0.16236 0.0
C3267 C 0.59907 0.48737 0.14031 0.0
C3268 C 0.58826 0.49358 0.11938 0.0
C3269 C 0.58099 0.51624 0.12001 0.0
C3270 C 0.58485 0.53253 0.14291 0.0
H3271 H 0.23634 0.7941 0.95703 0.0
H3272 H 0.21653 0.85407 0.92474 0.0
H3273 H 0.24164 0.84991 0.89543 0.0
H3274 H 0.28894 0.80565 0.95129 0.0
H3275 H 0.29244 0.77473 0.94118 0.0
H3276 H 0.27232 0.78053 0.95996 0.0
H3277 H 0.24334 0.75335 0.92765 0.0
H3278 H 0.26373 0.74582 0.91011 0.0
H3279 H 0.24219 0.7579 0.89624 0.0
H3280 H 0.27468 0.84745 0.87867 0.0
H3281 H 0.29632 0.82826 0.85136 0.0
H3282 H 0.28894 0.76395 0.88568 0.0
C3283 C 0.23646 0.80547 0.94295 0.0
C3284 C 0.22556 0.82544 0.9441 0.0
C3285 C 0.22544 0.83931 0.92488 0.0
C3286 C 0.24007 0.8376 0.90858 0.0
C3287 C 0.2533 0.82069 0.91081 0.0
C3288 C 0.25033 0.80328 0.92569 0.0
C3289 C 0.26507 0.78508 0.92181 0.0
C3290 C 0.2806 0.7866 0.94494 0.0
C3291 C 0.25285 0.759 0.91342 0.0
C3292 C 0.27613 0.79477 0.90178 0.0
C3293 C 0.27028 0.81656 0.89759 0.0
C3294 C 0.27877 0.82989 0.88097 0.0
C3295 C 0.2912 0.81886 0.86556 0.0
C3296 C 0.29317 0.79425 0.86559 0.0
C3297 C 0.28742 0.78282 0.8853 0.0
H3298 H 0.94544 0.51758 0.69889 0.0
H3299 H 0.97089 0.59141 0.73497 0.0
H3300 H 0.99051 0.59794 0.7002 0.0
H3301 H 0.99503 0.50747 0.67531 0.0
H3302 H 0.98231 0.4882 0.64739 0.0
H3303 H 0.96961 0.48937 0.67461 0.0
H3304 H 0.93732 0.50113 0.65128 0.0
H3305 H 0.94994 0.50007 0.62403 0.0
H3306 H 0.94057 0.52739 0.63608 0.0
H3307 H 1.00814 0.59664 0.66074 0.0
H3308 H 0.02274 0.58724 0.62203 0.0
H3309 H 0.98734 0.51376 0.61023 0.0
C3310 C 0.95502 0.5352 0.6994 0.0
C3311 C 0.95621 0.55415 0.72 0.0
C3312 C 0.96946 0.5766 0.71976 0.0
C3313 C 0.98073 0.58049 0.69989 0.0
C3314 C 0.97929 0.56159 0.68004 0.0
C3315 C 0.96697 0.53921 0.67978 0.0
C3316 C 0.96927 0.52155 0.65675 0.0
C3317 C 0.97966 0.50038 0.66394 0.0
C3318 C 0.948 0.51197 0.64111 0.0
C3319 C 0.98385 0.53776 0.64351 0.0
C3320 C 0.98966 0.56072 0.65755 0.0
C3321 C 1.00357 0.57866 0.64977 0.0
C3322 C 1.01187 0.57311 0.62752 0.0
C3323 C 1.0063 0.54979 0.61242 0.0
C3324 C 0.99184 0.53195 0.62078 0.0
H3325 H 0.2674 0.18002 0.43469 0.0
H3326 H 0.2553 0.23914 0.48792 0.0
H3327 H 0.25765 0.26651 0.45737 0.0
H3328 H 0.30509 0.21726 0.40685 0.0
H3329 H 0.29661 0.20083 0.37628 0.0
H3330 H 0.29348 0.18542 0.40209 0.0
H3331 H 0.25387 0.17262 0.38704 0.0
H3332 H 0.25686 0.18818 0.36127 0.0
H3333 H 0.23833 0.19571 0.38174 0.0
H3334 H 0.26137 0.28773 0.42185 0.0
H3335 H 0.26861 0.30261 0.38373 0.0
H3336 H 0.27877 0.23059 0.35251 0.0
C3337 C 0.26513 0.19869 0.43985 0.0
C3338 C 0.26097 0.20733 0.46373 0.0
C3339 C 0.25835 0.23198 0.46978 0.0
C3340 C 0.25963 0.24771 0.45252 0.0
C3341 C 0.26356 0.23863 0.42917 0.0
C3342 C 0.26644 0.21478 0.42276 0.0
C3343 C 0.27109 0.21007 0.39648 0.0
C3344 C 0.29286 0.20298 0.39537 0.0
C3345 C 0.25402 0.19048 0.3807 0.0
C3346 C 0.27041 0.23503 0.38923 0.0
C3347 C 0.26591 0.25109 0.40843 0.0
C3348 C 0.26482 0.27532 0.40664 0.0
C3349 C 0.26888 0.28357 0.38487 0.0
C3350 C 0.27407 0.26776 0.36508 0.0
C3351 C 0.27449 0.243 0.36716 0.0
H3352 H 0.38171 0.63397 0.58206 0.0
H3353 H 0.37023 0.65241 0.50983 0.0
H3354 H 0.39992 0.63333 0.49733 0.0
H3355 H 0.44285 0.63989 0.58072 0.0
H3356 H 0.44356 0.61558 0.59837 0.0
H3357 H 0.42584 0.63689 0.60391 0.0
H3358 H 0.39478 0.60095 0.59717 0.0
H3359 H 0.41225 0.57969 0.59168 0.0
H3360 H 0.39029 0.57934 0.56903 0.0
H3361 H 0.42324 0.60405 0.48977 0.0
H3362 H 0.44041 0.56781 0.48813 0.0
H3363 H 0.437 0.56866 0.5655 0.0
C3364 C 0.38606 0.63453 0.56393 0.0
C3365 C 0.374 0.64414 0.54667 0.0
C3366 C 0.37962 0.64493 0.52308 0.0
C3367 C 0.39653 0.63447 0.51598 0.0
C3368 C 0.40788 0.62421 0.53309 0.0
C3369 C 0.40328 0.62476 0.55685 0.0
C3370 C 0.41615 0.60978 0.57062 0.0
C3371 C 0.43311 0.62653 0.58952 0.0
C3372 C 0.40253 0.59134 0.58277 0.0
C3373 C 0.42577 0.59748 0.54974 0.0
C3374 C 0.42183 0.60709 0.52864 0.0
C3375 C 0.42699 0.59677 0.50629 0.0
C3376 C 0.43625 0.5759 0.50541 0.0
C3377 C 0.43975 0.56537 0.52664 0.0
C3378 C 0.4348 0.57662 0.54909 0.0
H3379 H 0.89452 0.98003 0.59411 0.0
H3380 H 0.89505 0.91041 0.54933 0.0
H3381 H 0.9321 0.92392 0.54426 0.0
H3382 H 0.92371 0.01713 0.56231 0.0
H3383 H 0.93854 0.03774 0.5883 0.0
H3384 H 0.9131 0.02156 0.59088 0.0
H3385 H 0.92872 1.00356 0.62744 0.0
H3386 H 0.95424 0.01999 0.62522 0.0
H3387 H 0.95034 0.98738 0.6241 0.0
H3388 H 0.96785 0.94741 0.53996 0.0
H3389 H 0.99969 0.97751 0.53935 0.0
H3390 H 0.9763 0.03111 0.58847 0.0
C3391 C 0.90273 0.96739 0.58397 0.0
C3392 C 0.89217 0.944 0.57253 0.0
C3393 C 0.90311 0.92813 0.55877 0.0
C3394 C 0.92409 0.93575 0.55567 0.0
C3395 C 0.93402 0.95915 0.56682 0.0
C3396 C 0.9238 0.97453 0.58116 0.0
C3397 C 0.93773 0.99902 0.59054 0.0
C3398 C 0.92766 0.02009 0.58251 0.0
C3399 C 0.94307 1.00271 0.61848 0.0
C3400 C 0.95687 0.99563 0.57806 0.0
C3401 C 0.95461 0.97239 0.56474 0.0
C3402 C 0.96995 0.96544 0.55081 0.0
C3403 C 0.98805 0.9826 0.55066 0.0
C3404 C 0.99067 1.00644 0.56426 0.0
C3405 C 0.97483 1.01292 0.5781 0.0
H3406 H 0.87214 0.11683 0.2545 0.0
H3407 H 0.89791 0.12614 0.33076 0.0
H3408 H 0.88153 0.16274 0.33955 0.0
H3409 H 0.88064 0.18368 0.25298 0.0
H3410 H 0.85748 0.18222 0.2318 0.0
H3411 H 0.87079 0.15631 0.23111 0.0
H3412 H 0.83652 0.12903 0.23637 0.0
H3413 H 0.82317 0.15488 0.23708 0.0
H3414 H 0.82285 0.13763 0.26188 0.0
H3415 H 0.86272 0.19967 0.34067 0.0
H3416 H 0.84317 0.23299 0.33399 0.0
H3417 H 0.82831 0.20203 0.25714 0.0
C3418 C 0.87424 0.12647 0.2731 0.0
C3419 C 0.88648 0.11793 0.29199 0.0
C3420 C 0.88888 0.1318 0.31585 0.0
C3421 C 0.87951 0.15282 0.32107 0.0
C3422 C 0.86779 0.16077 0.30225 0.0
C3423 C 0.86524 0.14816 0.27861 0.0
C3424 C 0.85257 0.16161 0.26171 0.0
C3425 C 0.86617 0.17153 0.2433 0.0
C3426 C 0.83258 0.14477 0.24848 0.0
C3427 C 0.84745 0.18283 0.27968 0.0
C3428 C 0.85686 0.18214 0.30291 0.0
C3429 C 0.85532 0.20018 0.32252 0.0
C3430 C 0.84412 0.21926 0.31852 0.0
C3431 C 0.83387 0.22057 0.29514 0.0
C3432 C 0.83562 0.20175 0.2754 0.0
H3433 H 0.76053 0.1861 0.08155 0.0
H3434 H 0.79377 0.15931 0.14081 0.0
H3435 H 0.76271 0.12876 0.14176 0.0
H3436 H 0.70897 0.17786 0.10263 0.0
H3437 H 0.69517 0.16787 0.07222 0.0
H3438 H 0.71968 0.18865 0.07694 0.0
H3439 H 0.73421 0.15881 0.04584 0.0
H3440 H 0.70988 0.13771 0.04139 0.0
H3441 H 0.73405 0.12775 0.05059 0.0
H3442 H 0.72998 0.09949 0.13471 0.0
H3443 H 0.69446 0.07569 0.12374 0.0
H3444 H 0.68106 0.12117 0.06955 0.0
C3445 C 0.76104 0.17414 0.09506 0.0
C3446 C 0.77949 0.17506 0.11119 0.0
C3447 C 0.77978 0.1589 0.12834 0.0
C3448 C 0.76226 0.14142 0.12895 0.0
C3449 C 0.7446 0.14036 0.11229 0.0
C3450 C 0.74363 0.15644 0.09589 0.0
C3451 C 0.72264 0.15084 0.07978 0.0
C3452 C 0.71092 0.1726 0.08311 0.0
C3453 C 0.72537 0.14333 0.05281 0.0
C3454 C 0.71198 0.12935 0.09008 0.0
C3455 C 0.72519 0.12346 0.1085 0.0
C3456 C 0.71938 0.10398 0.12048 0.0
C3457 C 0.69926 0.09046 0.11398 0.0
C3458 C 0.68512 0.09663 0.09585 0.0
C3459 C 0.69161 0.11621 0.08357 0.0
H3460 H 0.18182 0.41335 0.29174 0.0
H3461 H 0.23267 0.474 0.31814 0.0
H3462 H 0.25709 0.44516 0.32203 0.0
H3463 H 0.20015 0.37112 0.33056 0.0
H3464 H 0.19301 0.34427 0.3074 0.0
H3465 H 0.17869 0.36925 0.30683 0.0
H3466 H 0.18628 0.37187 0.26271 0.0
H3467 H 0.20056 0.34685 0.26321 0.0
H3468 H 0.21294 0.37545 0.25614 0.0
H3469 H 0.27684 0.4103 0.32376 0.0
H3470 H 0.2908 0.37207 0.32183 0.0
H3471 H 0.22896 0.33105 0.29332 0.0
C3472 C 0.19808 0.42058 0.29839 0.0
C3473 C 0.20499 0.44652 0.30467 0.0
C3474 C 0.22659 0.45466 0.31314 0.0
C3475 C 0.24076 0.43824 0.31548 0.0
C3476 C 0.23357 0.41312 0.30921 0.0
C3477 C 0.21276 0.40415 0.30071 0.0
C3478 C 0.20965 0.37603 0.29487 0.0
C3479 C 0.19447 0.36449 0.31086 0.0
C3480 C 0.20189 0.36701 0.26761 0.0
C3481 C 0.23187 0.37078 0.30147 0.0
C3482 C 0.24525 0.39266 0.3098 0.0
C3483 C 0.26643 0.39312 0.3172 0.0
C3484 C 0.27428 0.37098 0.31604 0.0
C3485 C 0.26132 0.34791 0.30741 0.0
C3486 C 0.23958 0.34806 0.30002 0.0
H3487 H 0.25551 0.42446 0.03527 0.0
H3488 H 0.26803 0.43722 0.1143 0.0
H3489 H 0.23491 0.45336 0.11679 0.0
H3490 H 0.23562 0.48019 0.03158 0.0
H3491 H 0.21623 0.46737 1.00561 0.0
H3492 H 0.23986 0.45478 0.00999 0.0
H3493 H 0.21784 0.41206 1.00853 0.0
H3494 H 0.19414 0.42458 1.00427 0.0
H3495 H 0.19862 0.40816 0.02921 0.0
H3496 H 0.2008 0.46848 0.11082 0.0
H3497 H 0.16999 0.48583 0.09714 0.0
H3498 H 0.18012 0.46582 0.02169 0.0
C3499 C 0.2511 0.43049 0.05305 0.0
C3500 C 0.26414 0.42946 0.07467 0.0
C3501 C 0.25819 0.4379 0.09761 0.0
C3502 C 0.23938 0.44695 0.09916 0.0
C3503 C 0.22685 0.44787 0.07757 0.0
C3504 C 0.23257 0.44021 0.05491 0.0
C3505 C 0.21707 0.44502 0.0346 0.0
C3506 C 0.22784 0.4629 0.01956 0.0
C3507 C 0.20628 0.42102 0.01819 0.0
C3508 C 0.20179 0.4566 0.04941 0.0
C3509 C 0.20759 0.45768 0.07413 0.0
C3510 C 0.19611 0.46774 0.09151 0.0
C3511 C 0.17849 0.47742 0.08352 0.0
C3512 C 0.1725 0.47728 0.05833 0.0
C3513 C 0.1843 0.46643 0.04109 0.0
H3514 H 0.87101 0.96978 0.30914 0.0
H3515 H 0.89804 0.94423 0.24448 0.0
H3516 H 0.87861 0.90271 0.24302 0.0
H3517 H 0.87308 0.91435 0.33554 0.0
H3518 H 0.84893 0.91465 0.34843 0.0
H3519 H 0.86432 0.9429 0.34434 0.0
H3520 H 0.83253 0.95323 0.31866 0.0
H3521 H 0.81699 0.9252 0.323 0.0
H3522 H 0.81922 0.93152 0.29254 0.0
H3523 H 0.85764 0.86211 0.24986 0.0
H3524 H 0.83372 0.82821 0.26157 0.0
H3525 H 0.81833 0.87885 0.32054 0.0
C3526 C 0.87246 0.9556 0.29435 0.0
C3527 C 0.88609 0.96082 0.27665 0.0
C3528 C 0.88779 0.94116 0.25818 0.0
C3529 C 0.87681 0.91727 0.25725 0.0
C3530 C 0.864 0.91257 0.27512 0.0
C3531 C 0.86158 0.93124 0.29324 0.0
C3532 C 0.84709 0.92087 0.31049 0.0
C3533 C 0.85906 0.92335 0.33623 0.0
C3534 C 0.8278 0.93346 0.3112 0.0
C3535 C 0.84111 0.89389 0.29866 0.0
C3536 C 0.85156 0.88936 0.27866 0.0
C3537 C 0.84934 0.86563 0.26545 0.0
C3538 C 0.83583 0.84628 0.27238 0.0
C3539 C 0.82416 0.8505 0.29214 0.0
C3540 C 0.82704 0.87481 0.30541 0.0
H3541 H 0.69866 0.10148 0.77555 0.0
H3542 H 0.70876 0.09557 0.85218 0.0
H3543 H 0.73117 0.13653 0.86079 0.0
H3544 H 0.75289 0.1328 0.7737 0.0
H3545 H 0.74455 0.15123 0.75193 0.0
H3546 H 0.72978 0.12139 0.75196 0.0
H3547 H 0.69647 0.14051 0.75659 0.0
H3548 H 0.71117 0.17042 0.75686 0.0
H3549 H 0.69666 0.16471 0.78177 0.0
H3550 H 0.75062 0.18065 0.8613 0.0
H3551 H 0.76818 0.2203 0.85317 0.0
H3552 H 0.74792 0.19685 0.77566 0.0
C3553 C 0.70594 0.10862 0.79408 0.0
C3554 C 0.70204 0.09494 0.81317 0.0
C3555 C 0.7117 0.10527 0.83717 0.0
C3556 C 0.72438 0.12872 0.84224 0.0
C3557 C 0.72774 0.14181 0.82308 0.0
C3558 C 0.71914 0.13182 0.79935 0.0
C3559 C 0.72559 0.14938 0.78195 0.0
C3560 C 0.73899 0.13802 0.76381 0.0
C3561 C 0.70632 0.15668 0.7685 0.0
C3562 C 0.7386 0.17114 0.79955 0.0
C3563 C 0.73957 0.16646 0.82325 0.0
C3564 C 0.7501 0.18418 0.84272 0.0
C3565 C 0.76002 0.20689 0.83792 0.0
C3566 C 0.75974 0.21211 0.81375 0.0
C3567 C 0.74875 0.19369 0.79438 0.0
loop_
_geom_bond_atom_site_label_1
_geom_bond_atom_site_label_2
_geom_bond_distance
_geom_bond_site_symmetry_2
_ccdc_geom_bond_type
C0 O1 1.306 . S
C0 O3 1.160 . S
O1 C0 1.306 . S
O1 Cd2 2.228 . S
Cd2 O1 2.228 . S
Cd2 O6 2.273 . S
Cd2 O10 2.277 . S
O3 C0 1.160 . S
O3 Cd4 2.203 . S
Cd4 O3 2.203 . S
Cd4 O6 2.411 . S
Cd4 O7 2.333 . S
Cd4 O8 2.352 . S
Cd4 O12 2.277 . S
Cd4 O13 2.356 . S
C5 O10 1.209 . S
C5 O12 1.226 . S
O6 Cd2 2.273 . S
O6 Cd4 2.411 . S
O6 C9 1.320 . S
O7 Cd4 2.333 . S
O7 C9 1.214 . S
O8 Cd4 2.352 . S
O8 C11 1.258 . S
C9 O6 1.320 . S
C9 O7 1.214 . S
O10 Cd2 2.277 . S
O10 C5 1.209 . S
C11 O8 1.258 . S
C11 O13 1.282 . S
O12 Cd4 2.277 . S
O12 C5 1.226 . S
O13 Cd4 2.356 . S
O13 C11 1.282 . S
C14 O15 1.306 . S
C14 O17 1.160 . S
O15 C14 1.306 . S
O15 Cd16 2.228 1_655 S
Cd16 O15 2.228 1_455 S
Cd16 O20 2.273 . S
Cd16 O24 2.277 . S
O17 C14 1.160 . S
O17 Cd18 2.203 1_655 S
Cd18 O17 2.203 1_455 S
Cd18 O20 2.411 . S
Cd18 O21 2.333 . S
Cd18 O22 2.352 . S
Cd18 O26 2.277 . S
Cd18 O27 2.356 . S
C19 O24 1.209 . S
C19 O26 1.226 . S
O20 Cd16 2.273 . S
O20 Cd18 2.411 . S
O20 C23 1.320 . S
O21 Cd18 2.333 . S
O21 C23 1.214 . S
O22 Cd18 2.352 . S
O22 C25 1.258 . S
C23 O20 1.320 . S
C23 O21 1.214 . S
O24 Cd16 2.277 . S
O24 C19 1.209 . S
C25 O22 1.258 . S
C25 O27 1.282 . S
O26 Cd18 2.277 . S
O26 C19 1.226 . S
O27 Cd18 2.356 . S
O27 C25 1.282 . S
C28 O29 1.306 . S
C28 O31 1.160 . S
O29 C28 1.306 . S
O29 Cd30 2.228 . S
Cd30 O29 2.228 . S
Cd30 O34 2.273 . S
Cd30 O38 2.277 . S
O31 C28 1.160 . S
O31 Cd32 2.203 . S
Cd32 O31 2.203 . S
Cd32 O34 2.411 . S
Cd32 O35 2.333 . S
Cd32 O36 2.352 . S
Cd32 O40 2.277 . S
Cd32 O41 2.356 . S
C33 O38 1.209 . S
C33 O40 1.226 . S
O34 Cd30 2.273 . S
O34 Cd32 2.411 . S
O34 C37 1.320 . S
O35 Cd32 2.333 . S
O35 C37 1.214 . S
O36 Cd32 2.352 . S
O36 C39 1.258 . S
C37 O34 1.320 . S
C37 O35 1.214 . S
O38 Cd30 2.277 . S
O38 C33 1.209 . S
C39 O36 1.258 . S
C39 O41 1.282 . S
O40 Cd32 2.277 . S
O40 C33 1.226 . S
O41 Cd32 2.356 . S
O41 C39 1.282 . S
C42 O43 1.306 . S
C42 O45 1.160 . S
O43 C42 1.306 . S
O43 Cd44 2.228 . S
Cd44 O43 2.228 . S
Cd44 O48 2.273 . S
Cd44 O52 2.277 . S
O45 C42 1.160 . S
O45 Cd46 2.203 . S
Cd46 O45 2.203 . S
Cd46 O48 2.411 . S
Cd46 O49 2.333 . S
Cd46 O50 2.352 . S
Cd46 O54 2.277 . S
Cd46 O55 2.356 . S
C47 O52 1.209 . S
C47 O54 1.226 . S
O48 Cd44 2.273 . S
O48 Cd46 2.411 . S
O48 C51 1.320 . S
O49 Cd46 2.333 . S
O49 C51 1.214 . S
O50 Cd46 2.352 . S
O50 C53 1.258 . S
C51 O48 1.320 . S
C51 O49 1.214 . S
O52 Cd44 2.277 . S
O52 C47 1.209 . S
C53 O50 1.258 . S
C53 O55 1.282 . S
O54 Cd46 2.277 . S
O54 C47 1.226 . S
O55 Cd46 2.356 . S
O55 C53 1.282 . S
C56 O57 1.306 . S
C56 O59 1.160 . S
O57 C56 1.306 . S
O57 Cd58 2.228 . S
Cd58 O57 2.228 . S
Cd58 O62 2.273 . S
Cd58 O66 2.277 . S
O59 C56 1.160 . S
O59 Cd60 2.203 . S
Cd60 O59 2.203 . S
Cd60 O62 2.411 . S
Cd60 O63 2.333 . S
Cd60 O64 2.352 . S
Cd60 O68 2.277 . S
Cd60 O69 2.356 . S
C61 O66 1.209 . S
C61 O68 1.226 . S
O62 Cd58 2.273 . S
O62 Cd60 2.411 . S
O62 C65 1.320 . S
O63 Cd60 2.333 . S
O63 C65 1.214 . S
O64 Cd60 2.352 . S
O64 C67 1.258 . S
C65 O62 1.320 . S
C65 O63 1.214 . S
O66 Cd58 2.277 . S
O66 C61 1.209 . S
C67 O64 1.258 . S
C67 O69 1.282 . S
O68 Cd60 2.277 . S
O68 C61 1.226 . S
O69 Cd60 2.356 . S
O69 C67 1.282 . S
C70 O71 1.306 . S
C70 O73 1.160 . S
O71 C70 1.306 . S
O71 Cd72 2.228 . S
Cd72 O71 2.228 . S
Cd72 O76 2.273 . S
Cd72 O80 2.277 . S
O73 C70 1.160 . S
O73 Cd74 2.203 . S
Cd74 O73 2.203 . S
Cd74 O76 2.411 . S
Cd74 O77 2.333 . S
Cd74 O78 2.352 . S
Cd74 O82 2.277 . S
Cd74 O83 2.356 . S
C75 O80 1.209 . S
C75 O82 1.226 . S
O76 Cd72 2.273 . S
O76 Cd74 2.411 . S
O76 C79 1.320 . S
O77 Cd74 2.333 . S
O77 C79 1.214 . S
O78 Cd74 2.352 . S
O78 C81 1.258 . S
C79 O76 1.320 . S
C79 O77 1.214 . S
O80 Cd72 2.277 . S
O80 C75 1.209 . S
C81 O78 1.258 . S
C81 O83 1.282 . S
O82 Cd74 2.277 . S
O82 C75 1.226 . S
O83 Cd74 2.356 . S
O83 C81 1.282 . S
C84 O85 1.306 . S
C84 O87 1.160 . S
O85 C84 1.306 . S
O85 Cd86 2.228 . S
Cd86 O85 2.228 . S
Cd86 O90 2.273 . S
Cd86 O94 2.277 . S
O87 C84 1.160 . S
O87 Cd88 2.203 . S
Cd88 O87 2.203 . S
Cd88 O90 2.411 . S
Cd88 O91 2.333 . S
Cd88 O92 2.352 . S
Cd88 O96 2.277 . S
Cd88 O97 2.356 . S
C89 O94 1.209 . S
C89 O96 1.226 . S
O90 Cd86 2.273 . S
O90 Cd88 2.411 . S
O90 C93 1.320 . S
O91 Cd88 2.333 . S
O91 C93 1.214 . S
O92 Cd88 2.352 . S
O92 C95 1.258 . S
C93 O90 1.320 . S
C93 O91 1.214 . S
O94 Cd86 2.277 . S
O94 C89 1.209 . S
C95 O92 1.258 . S
C95 O97 1.282 . S
O96 Cd88 2.277 . S
O96 C89 1.226 . S
O97 Cd88 2.356 . S
O97 C95 1.282 . S
C98 O99 1.306 . S
C98 O101 1.160 . S
O99 C98 1.306 . S
O99 Cd100 2.228 1_655 S
Cd100 O99 2.228 1_455 S
Cd100 O104 2.273 . S
Cd100 O108 2.277 . S
O101 C98 1.160 . S
O101 Cd102 2.203 1_655 S
Cd102 O101 2.203 1_455 S
Cd102 O104 2.411 . S
Cd102 O105 2.333 . S
Cd102 O106 2.352 1_455 S
Cd102 O110 2.277 . S
Cd102 O111 2.356 . S
C103 O108 1.209 . S
C103 O110 1.226 . S
O104 Cd100 2.273 . S
O104 Cd102 2.411 . S
O104 C107 1.320 . S
O105 Cd102 2.333 . S
O105 C107 1.214 . S
O106 Cd102 2.352 1_655 S
O106 C109 1.258 1_655 S
C107 O104 1.320 . S
C107 O105 1.214 . S
O108 Cd100 2.277 . S
O108 C103 1.209 . S
C109 O106 1.258 1_455 S
C109 O111 1.282 . S
O110 Cd102 2.277 . S
O110 C103 1.226 . S
O111 Cd102 2.356 . S
O111 C109 1.282 . S
C112 O113 1.306 . S
C112 O115 1.160 . S
O113 C112 1.306 . S
O113 Cd114 2.228 1_545 S
Cd114 O113 2.228 1_565 S
Cd114 O118 2.273 1_565 S
Cd114 O122 2.277 . S
O115 C112 1.160 . S
O115 Cd116 2.203 . S
Cd116 O115 2.203 . S
Cd116 O118 2.411 . S
Cd116 O119 2.333 . S
Cd116 O120 2.352 . S
Cd116 O124 2.277 1_545 S
Cd116 O125 2.356 . S
C117 O122 1.209 . S
C117 O124 1.226 . S
O118 Cd114 2.273 1_545 S
O118 Cd116 2.411 . S
O118 C121 1.320 . S
O119 Cd116 2.333 . S
O119 C121 1.214 . S
O120 Cd116 2.352 . S
O120 C123 1.258 . S
C121 O118 1.320 . S
C121 O119 1.214 . S
O122 Cd114 2.277 . S
O122 C117 1.209 . S
C123 O120 1.258 . S
C123 O125 1.282 . S
O124 Cd116 2.277 1_565 S
O124 C117 1.226 . S
O125 Cd116 2.356 . S
O125 C123 1.282 . S
C126 O127 1.306 . S
C126 O129 1.160 . S
O127 C126 1.306 . S
O127 Cd128 2.228 . S
Cd128 O127 2.228 . S
Cd128 O132 2.273 . S
Cd128 O136 2.277 . S
O129 C126 1.160 . S
O129 Cd130 2.203 . S
Cd130 O129 2.203 . S
Cd130 O132 2.411 . S
Cd130 O133 2.333 . S
Cd130 O134 2.352 . S
Cd130 O138 2.277 . S
Cd130 O139 2.356 . S
C131 O136 1.209 . S
C131 O138 1.226 . S
O132 Cd128 2.273 . S
O132 Cd130 2.411 . S
O132 C135 1.320 . S
O133 Cd130 2.333 . S
O133 C135 1.214 . S
O134 Cd130 2.352 . S
O134 C137 1.258 . S
C135 O132 1.320 . S
C135 O133 1.214 . S
O136 Cd128 2.277 . S
O136 C131 1.209 . S
C137 O134 1.258 . S
C137 O139 1.282 . S
O138 Cd130 2.277 . S
O138 C131 1.226 . S
O139 Cd130 2.356 . S
O139 C137 1.282 . S
C140 O141 1.306 . S
C140 O143 1.160 . S
O141 C140 1.306 . S
O141 Cd142 2.228 . S
Cd142 O141 2.228 . S
Cd142 O146 2.273 1_545 S
Cd142 O150 2.277 . S
O143 C140 1.160 . S
O143 Cd144 2.203 1_545 S
Cd144 O143 2.203 1_565 S
Cd144 O146 2.411 . S
Cd144 O147 2.333 . S
Cd144 O148 2.352 . S
Cd144 O152 2.277 1_565 S
Cd144 O153 2.356 . S
C145 O150 1.209 . S
C145 O152 1.226 . S
O146 Cd142 2.273 1_565 S
O146 Cd144 2.411 . S
O146 C149 1.320 . S
O147 Cd144 2.333 . S
O147 C149 1.214 . S
O148 Cd144 2.352 . S
O148 C151 1.258 . S
C149 O146 1.320 . S
C149 O147 1.214 . S
O150 Cd142 2.277 . S
O150 C145 1.209 . S
C151 O148 1.258 . S
C151 O153 1.282 . S
O152 Cd144 2.277 1_545 S
O152 C145 1.226 . S
O153 Cd144 2.356 . S
O153 C151 1.282 . S
C154 O155 1.306 1_554 S
C154 O157 1.160 . S
O155 C154 1.306 1_556 S
O155 Cd156 2.228 . S
Cd156 O155 2.228 . S
Cd156 O160 2.229 1_556 S
Cd156 O164 2.277 . S
O157 C154 1.160 . S
O157 Cd158 2.203 . S
Cd158 O157 2.203 . S
Cd158 O160 2.419 . S
Cd158 O161 2.331 . S
Cd158 O162 2.352 . S
Cd158 O166 2.277 1_554 S
Cd158 O167 2.356 . S
C159 O164 1.209 . S
C159 O166 1.226 . S
O160 Cd156 2.229 1_554 S
O160 Cd158 2.419 . S
O160 C163 1.328 . S
O161 Cd158 2.331 . S
O161 C163 1.208 . S
O162 Cd158 2.352 . S
O162 C165 1.258 . S
C163 O160 1.328 . S
C163 O161 1.208 . S
O164 Cd156 2.277 . S
O164 C159 1.209 . S
C165 O162 1.258 . S
C165 O167 1.282 . S
O166 Cd158 2.277 1_556 S
O166 C159 1.226 . S
O167 Cd158 2.356 . S
O167 C165 1.282 . S
C168 O169 1.306 . S
C168 O171 1.160 . S
O169 C168 1.306 . S
O169 Cd170 2.228 . S
Cd170 O169 2.228 . S
Cd170 O174 2.273 . S
Cd170 O178 2.277 . S
O171 C168 1.160 . S
O171 Cd172 2.203 . S
Cd172 O171 2.203 . S
Cd172 O174 2.411 . S
Cd172 O175 2.333 . S
Cd172 O176 2.352 . S
Cd172 O180 2.277 . S
Cd172 O181 2.356 . S
C173 O178 1.209 . S
C173 O180 1.226 . S
O174 Cd170 2.273 . S
O174 Cd172 2.411 . S
O174 C177 1.320 . S
O175 Cd172 2.333 . S
O175 C177 1.214 . S
O176 Cd172 2.352 . S
O176 C179 1.258 . S
C177 O174 1.320 . S
C177 O175 1.214 . S
O178 Cd170 2.277 . S
O178 C173 1.209 . S
C179 O176 1.258 . S
C179 O181 1.282 . S
O180 Cd172 2.277 . S
O180 C173 1.226 . S
O181 Cd172 2.356 . S
O181 C179 1.282 . S
C182 O183 1.306 . S
C182 O185 1.160 . S
O183 C182 1.306 . S
O183 Cd184 2.228 . S
Cd184 O183 2.228 . S
Cd184 O188 2.273 . S
Cd184 O192 2.277 . S
O185 C182 1.160 . S
O185 Cd186 2.203 . S
Cd186 O185 2.203 . S
Cd186 O188 2.411 . S
Cd186 O189 2.333 . S
Cd186 O190 2.352 . S
Cd186 O194 2.277 . S
Cd186 O195 2.356 . S
C187 O192 1.209 . S
C187 O194 1.226 . S
O188 Cd184 2.273 . S
O188 Cd186 2.411 . S
O188 C191 1.320 . S
O189 Cd186 2.333 . S
O189 C191 1.214 . S
O190 Cd186 2.352 . S
O190 C193 1.258 . S
C191 O188 1.320 . S
C191 O189 1.214 . S
O192 Cd184 2.277 . S
O192 C187 1.209 . S
C193 O190 1.258 . S
C193 O195 1.282 . S
O194 Cd186 2.277 . S
O194 C187 1.226 . S
O195 Cd186 2.356 . S
O195 C193 1.282 . S
C196 O197 1.306 . S
C196 O199 1.160 . S
O197 C196 1.306 . S
O197 Cd198 2.228 . S
Cd198 O197 2.228 . S
Cd198 O202 2.273 . S
Cd198 O206 2.277 . S
O199 C196 1.160 . S
O199 Cd200 2.203 . S
Cd200 O199 2.203 . S
Cd200 O202 2.411 . S
Cd200 O203 2.333 . S
Cd200 O204 2.352 . S
Cd200 O208 2.277 . S
Cd200 O209 2.356 . S
C201 O206 1.209 . S
C201 O208 1.226 . S
O202 Cd198 2.273 . S
O202 Cd200 2.411 . S
O202 C205 1.320 . S
O203 Cd200 2.333 . S
O203 C205 1.214 . S
O204 Cd200 2.352 . S
O204 C207 1.258 . S
C205 O202 1.320 . S
C205 O203 1.214 . S
O206 Cd198 2.277 . S
O206 C201 1.209 . S
C207 O204 1.258 . S
C207 O209 1.282 . S
O208 Cd200 2.277 . S
O208 C201 1.226 . S
O209 Cd200 2.356 . S
O209 C207 1.282 . S
C210 O211 1.306 . S
C210 O213 1.160 . S
O211 C210 1.306 . S
O211 Cd212 2.228 . S
Cd212 O211 2.228 . S
Cd212 O216 2.273 . S
Cd212 O220 2.277 . S
O213 C210 1.160 . S
O213 Cd214 2.203 . S
Cd214 O213 2.203 . S
Cd214 O216 2.411 . S
Cd214 O217 2.333 . S
Cd214 O218 2.352 . S
Cd214 O222 2.277 . S
Cd214 O223 2.356 . S
C215 O220 1.209 . S
C215 O222 1.226 . S
O216 Cd212 2.273 . S
O216 Cd214 2.411 . S
O216 C219 1.320 . S
O217 Cd214 2.333 . S
O217 C219 1.214 . S
O218 Cd214 2.352 . S
O218 C221 1.258 . S
C219 O216 1.320 . S
C219 O217 1.214 . S
O220 Cd212 2.277 . S
O220 C215 1.209 . S
C221 O218 1.258 . S
C221 O223 1.282 . S
O222 Cd214 2.277 . S
O222 C215 1.226 . S
O223 Cd214 2.356 . S
O223 C221 1.282 . S
C224 O225 1.306 . S
C224 O227 1.160 . S
O225 C224 1.306 . S
O225 Cd226 2.228 . S
Cd226 O225 2.228 . S
Cd226 O230 2.273 . S
Cd226 O234 2.277 1_545 S
O227 C224 1.160 . S
O227 Cd228 2.203 . S
Cd228 O227 2.203 . S
Cd228 O230 2.411 . S
Cd228 O231 2.333 . S
Cd228 O232 2.352 . S
Cd228 O236 2.277 . S
Cd228 O237 2.356 . S
C229 O234 1.209 . S
C229 O236 1.226 1_565 S
O230 Cd226 2.273 . S
O230 Cd228 2.411 . S
O230 C233 1.320 . S
O231 Cd228 2.333 . S
O231 C233 1.214 . S
O232 Cd228 2.352 . S
O232 C235 1.258 . S
C233 O230 1.320 . S
C233 O231 1.214 . S
O234 Cd226 2.277 1_565 S
O234 C229 1.209 . S
C235 O232 1.258 . S
C235 O237 1.282 . S
O236 Cd228 2.277 . S
O236 C229 1.226 1_545 S
O237 Cd228 2.356 . S
O237 C235 1.282 . S
C238 O239 1.306 . S
C238 O241 1.160 . S
O239 C238 1.306 . S
O239 Cd240 2.228 . S
Cd240 O239 2.228 . S
Cd240 O244 2.273 . S
Cd240 O248 2.277 . S
O241 C238 1.160 . S
O241 Cd242 2.203 . S
Cd242 O241 2.203 . S
Cd242 O244 2.411 . S
Cd242 O245 2.333 . S
Cd242 O246 2.352 . S
Cd242 O250 2.277 . S
Cd242 O251 2.356 . S
C243 O248 1.209 . S
C243 O250 1.226 . S
O244 Cd240 2.273 . S
O244 Cd242 2.411 . S
O244 C247 1.320 . S
O245 Cd242 2.333 . S
O245 C247 1.214 . S
O246 Cd242 2.352 . S
O246 C249 1.258 . S
C247 O244 1.320 . S
C247 O245 1.214 . S
O248 Cd240 2.277 . S
O248 C243 1.209 . S
C249 O246 1.258 . S
C249 O251 1.282 . S
O250 Cd242 2.277 . S
O250 C243 1.226 . S
O251 Cd242 2.356 . S
O251 C249 1.282 . S
C252 O253 1.306 . S
C252 O255 1.160 . S
O253 C252 1.306 . S
O253 Cd254 2.228 . S
Cd254 O253 2.228 . S
Cd254 O258 2.273 . S
Cd254 O262 2.277 . S
O255 C252 1.160 . S
O255 Cd256 2.203 . S
Cd256 O255 2.203 . S
Cd256 O258 2.411 . S
Cd256 O259 2.333 . S
Cd256 O260 2.352 . S
Cd256 O264 2.277 . S
Cd256 O265 2.356 . S
C257 O262 1.209 . S
C257 O264 1.226 . S
O258 Cd254 2.273 . S
O258 Cd256 2.411 . S
O258 C261 1.320 . S
O259 Cd256 2.333 . S
O259 C261 1.214 . S
O260 Cd256 2.352 . S
O260 C263 1.258 . S
C261 O258 1.320 . S
C261 O259 1.214 . S
O262 Cd254 2.277 . S
O262 C257 1.209 . S
C263 O260 1.258 . S
C263 O265 1.282 . S
O264 Cd256 2.277 . S
O264 C257 1.226 . S
O265 Cd256 2.356 . S
O265 C263 1.282 . S
C266 O267 1.306 . S
C266 O269 1.160 . S
O267 C266 1.306 . S
O267 Cd268 2.228 . S
Cd268 O267 2.228 . S
Cd268 O272 2.273 . S
Cd268 O276 2.277 . S
O269 C266 1.160 . S
O269 Cd270 2.203 . S
Cd270 O269 2.203 . S
Cd270 O272 2.411 . S
Cd270 O273 2.333 . S
Cd270 O274 2.352 1_545 S
Cd270 O278 2.277 . S
Cd270 O279 2.356 1_545 S
C271 O276 1.209 . S
C271 O278 1.226 . S
O272 Cd268 2.273 . S
O272 Cd270 2.411 . S
O272 C275 1.320 . S
O273 Cd270 2.333 . S
O273 C275 1.214 . S
O274 Cd270 2.352 1_565 S
O274 C277 1.258 . S
C275 O272 1.320 . S
C275 O273 1.214 . S
O276 Cd268 2.277 . S
O276 C271 1.209 . S
C277 O274 1.258 . S
C277 O279 1.282 . S
O278 Cd270 2.277 . S
O278 C271 1.226 . S
O279 Cd270 2.356 1_565 S
O279 C277 1.282 . S
C280 O281 1.306 . S
C280 O283 1.160 . S
O281 C280 1.306 . S
O281 Cd282 2.228 . S
Cd282 O281 2.228 . S
Cd282 O286 2.273 . S
Cd282 O290 2.277 . S
O283 C280 1.160 . S
O283 Cd284 2.203 . S
Cd284 O283 2.203 . S
Cd284 O286 2.411 . S
Cd284 O287 2.333 . S
Cd284 O288 2.352 1_554 S
Cd284 O292 2.277 . S
Cd284 O293 2.356 . S
C285 O290 1.209 . S
C285 O292 1.226 . S
O286 Cd282 2.273 . S
O286 Cd284 2.411 . S
O286 C289 1.320 . S
O287 Cd284 2.333 . S
O287 C289 1.214 . S
O288 Cd284 2.352 1_556 S
O288 C291 1.258 . S
C289 O286 1.320 . S
C289 O287 1.214 . S
O290 Cd282 2.277 . S
O290 C285 1.209 . S
C291 O288 1.258 . S
C291 O293 1.282 1_556 S
O292 Cd284 2.277 . S
O292 C285 1.226 . S
O293 Cd284 2.356 . S
O293 C291 1.282 1_554 S
C294 O295 1.306 . S
C294 O297 1.160 . S
O295 C294 1.306 . S
O295 Cd296 2.228 . S
Cd296 O295 2.228 . S
Cd296 O300 2.273 . S
Cd296 O304 2.277 . S
O297 C294 1.160 . S
O297 Cd298 2.203 . S
Cd298 O297 2.203 . S
Cd298 O300 2.411 . S
Cd298 O301 2.333 . S
Cd298 O302 2.352 . S
Cd298 O306 2.277 . S
Cd298 O307 2.356 . S
C299 O304 1.209 . S
C299 O306 1.226 . S
O300 Cd296 2.273 . S
O300 Cd298 2.411 . S
O300 C303 1.320 . S
O301 Cd298 2.333 . S
O301 C303 1.214 . S
O302 Cd298 2.352 . S
O302 C305 1.258 . S
C303 O300 1.320 . S
C303 O301 1.214 . S
O304 Cd296 2.277 . S
O304 C299 1.209 . S
C305 O302 1.258 . S
C305 O307 1.282 . S
O306 Cd298 2.277 . S
O306 C299 1.226 . S
O307 Cd298 2.356 . S
O307 C305 1.282 . S
C308 O309 1.306 . S
C308 O311 1.160 . S
O309 C308 1.306 . S
O309 Cd310 2.228 . S
Cd310 O309 2.228 . S
Cd310 O314 2.273 . S
Cd310 O318 2.277 . S
O311 C308 1.160 . S
O311 Cd312 2.203 . S
Cd312 O311 2.203 . S
Cd312 O314 2.411 . S
Cd312 O315 2.333 . S
Cd312 O316 2.352 . S
Cd312 O320 2.277 . S
Cd312 O321 2.356 . S
C313 O318 1.209 . S
C313 O320 1.226 . S
O314 Cd310 2.273 . S
O314 Cd312 2.411 . S
O314 C317 1.320 . S
O315 Cd312 2.333 . S
O315 C317 1.214 . S
O316 Cd312 2.352 . S
O316 C319 1.258 . S
C317 O314 1.320 . S
C317 O315 1.214 . S
O318 Cd310 2.277 . S
O318 C313 1.209 . S
C319 O316 1.258 . S
C319 O321 1.282 . S
O320 Cd312 2.277 . S
O320 C313 1.226 . S
O321 Cd312 2.356 . S
O321 C319 1.282 . S
C322 O323 1.306 . S
C322 O325 1.160 . S
O323 C322 1.306 . S
O323 Cd324 2.228 . S
Cd324 O323 2.228 . S
Cd324 O328 2.273 . S
Cd324 O332 2.277 . S
O325 C322 1.160 . S
O325 Cd326 2.203 . S
Cd326 O325 2.203 . S
Cd326 O328 2.411 . S
Cd326 O329 2.333 . S
Cd326 O330 2.352 . S
Cd326 O334 2.277 . S
Cd326 O335 2.356 . S
C327 O332 1.209 . S
C327 O334 1.226 . S
O328 Cd324 2.273 . S
O328 Cd326 2.411 . S
O328 C331 1.320 . S
O329 Cd326 2.333 . S
O329 C331 1.214 . S
O330 Cd326 2.352 . S
O330 C333 1.258 . S
C331 O328 1.320 . S
C331 O329 1.214 . S
O332 Cd324 2.277 . S
O332 C327 1.209 . S
C333 O330 1.258 . S
C333 O335 1.282 . S
O334 Cd326 2.277 . S
O334 C327 1.226 . S
O335 Cd326 2.356 . S
O335 C333 1.282 . S
C336 Eu337 2.835 . S
C336 C338 1.500 1_545 S
C336 O356 1.257 . S
C336 O357 1.260 . S
Eu337 C336 2.835 . S
Eu337 O356 2.473 . S
Eu337 O357 2.480 . S
Eu337 O358 2.430 . S
Eu337 O359 2.670 . S
Eu337 O360 2.394 1_545 S
Eu337 O365 2.355 . S
Eu337 O367 2.374 . S
C338 C336 1.500 1_565 S
C338 C339 1.377 . S
C338 C343 1.377 . S
C339 C338 1.377 . S
C339 C340 1.395 . S
C339 H368 0.930 . S
C340 C339 1.395 . S
C340 C341 1.383 . S
C340 H369 0.931 . S
C341 C340 1.383 . S
C341 C342 1.394 . S
C342 C341 1.394 . S
C342 C343 1.378 . S
C342 H370 0.931 . S
C343 C338 1.377 . S
C343 C342 1.378 . S
C343 H371 0.931 . S
C344 O358 1.259 . S
C344 O359 1.270 . S
C345 O360 1.251 . S
C345 O361 1.251 . S
C346 Eu347 2.817 1_655 S
C346 C348 1.500 . S
C346 O362 1.257 . S
C346 O363 1.260 . S
Eu347 C346 2.817 1_455 S
Eu347 O359 2.364 . S
Eu347 O361 2.383 1_545 S
Eu347 O362 2.457 1_455 S
Eu347 O363 2.465 1_455 S
Eu347 O364 2.440 1_554 S
Eu347 O365 2.691 . S
Eu347 O366 2.401 . S
C348 C346 1.500 . S
C348 C349 1.377 1_554 S
C348 C353 1.377 . S
C349 C348 1.377 1_556 S
C349 C350 1.395 . S
C349 H372 0.931 . S
C350 C349 1.395 . S
C350 C351 1.383 1_556 S
C350 H373 0.931 . S
C351 C350 1.383 1_554 S
C351 C352 1.394 . S
C352 C351 1.394 . S
C352 C353 1.378 . S
C352 H374 0.931 . S
C353 C348 1.377 . S
C353 C352 1.378 . S
C353 H375 0.931 . S
C354 O364 1.259 . S
C354 O365 1.270 1_556 S
C355 O366 1.251 . S
C355 O367 1.251 . S
O356 C336 1.257 . S
O356 Eu337 2.473 . S
O357 C336 1.260 . S
O357 Eu337 2.480 . S
O358 Eu337 2.430 . S
O358 C344 1.259 . S
O359 Eu337 2.670 . S
O359 C344 1.270 . S
O359 Eu347 2.364 . S
O360 Eu337 2.394 1_565 S
O360 C345 1.251 . S
O361 C345 1.251 . S
O361 Eu347 2.383 1_565 S
O362 C346 1.257 . S
O362 Eu347 2.457 1_655 S
O363 C346 1.260 . S
O363 Eu347 2.465 1_655 S
O364 Eu347 2.440 1_556 S
O364 C354 1.259 . S
O365 Eu337 2.355 . S
O365 Eu347 2.691 . S
O365 C354 1.270 1_554 S
O366 Eu347 2.401 . S
O366 C355 1.251 . S
O367 Eu337 2.374 . S
O367 C355 1.251 . S
H368 C339 0.930 . S
H369 C340 0.931 . S
H370 C342 0.931 . S
H371 C343 0.931 . S
H372 C349 0.931 . S
H373 C350 0.931 . S
H374 C352 0.931 . S
H375 C353 0.931 . S
C376 Eu377 2.835 . S
C376 C378 1.500 . S
C376 O396 1.257 . S
C376 O397 1.260 . S
Eu377 C376 2.835 . S
Eu377 O396 2.473 . S
Eu377 O397 2.480 . S
Eu377 O398 2.430 . S
Eu377 O399 2.670 . S
Eu377 O400 2.394 . S
Eu377 O405 2.355 . S
Eu377 O407 2.374 . S
C378 C376 1.500 . S
C378 C379 1.377 . S
C378 C383 1.377 . S
C379 C378 1.377 . S
C379 C380 1.395 . S
C379 H408 0.931 . S
C380 C379 1.395 . S
C380 C381 1.383 . S
C380 H409 0.931 . S
C381 C380 1.383 . S
C381 C382 1.394 . S
C382 C381 1.394 . S
C382 C383 1.378 . S
C382 H410 0.931 . S
C383 C378 1.377 . S
C383 C382 1.378 . S
C383 H411 0.931 . S
C384 O398 1.259 . S
C384 O399 1.270 . S
C385 O400 1.251 . S
C385 O401 1.251 . S
C386 Eu387 2.835 . S
C386 C388 1.500 . S
C386 O402 1.257 . S
C386 O403 1.260 . S
Eu387 C386 2.835 . S
Eu387 O399 2.355 . S
Eu387 O401 2.374 . S
Eu387 O402 2.473 . S
Eu387 O403 2.480 . S
Eu387 O404 2.430 . S
Eu387 O405 2.670 . S
Eu387 O406 2.394 . S
C388 C386 1.500 . S
C388 C389 1.377 . S
C388 C393 1.377 . S
C389 C388 1.377 . S
C389 C390 1.395 . S
C389 H412 0.931 . S
C390 C389 1.395 . S
C390 C391 1.383 . S
C390 H413 0.931 . S
C391 C390 1.383 . S
C391 C392 1.394 . S
C392 C391 1.394 . S
C392 C393 1.378 . S
C392 H414 0.931 . S
C393 C388 1.377 . S
C393 C392 1.378 . S
C393 H415 0.931 . S
C394 O404 1.259 . S
C394 O405 1.270 . S
C395 O406 1.251 . S
C395 O407 1.251 . S
O396 C376 1.257 . S
O396 Eu377 2.473 . S
O397 C376 1.260 . S
O397 Eu377 2.480 . S
O398 Eu377 2.430 . S
O398 C384 1.259 . S
O399 Eu377 2.670 . S
O399 C384 1.270 . S
O399 Eu387 2.355 . S
O400 Eu377 2.394 . S
O400 C385 1.251 . S
O401 C385 1.251 . S
O401 Eu387 2.374 . S
O402 C386 1.257 . S
O402 Eu387 2.473 . S
O403 C386 1.260 . S
O403 Eu387 2.480 . S
O404 Eu387 2.430 . S
O404 C394 1.259 . S
O405 Eu377 2.355 . S
O405 Eu387 2.670 . S
O405 C394 1.270 . S
O406 Eu387 2.394 . S
O406 C395 1.251 . S
O407 Eu377 2.374 . S
O407 C395 1.251 . S
H408 C379 0.931 . S
H409 C380 0.931 . S
H410 C382 0.931 . S
H411 C383 0.931 . S
H412 C389 0.931 . S
H413 C390 0.931 . S
H414 C392 0.931 . S
H415 C393 0.931 . S
C416 Eu417 2.835 . S
C416 C418 1.500 . S
C416 O436 1.257 . S
C416 O437 1.260 . S
Eu417 C416 2.835 . S
Eu417 O436 2.473 . S
Eu417 O437 2.480 . S
Eu417 O438 2.430 . S
Eu417 O439 2.670 . S
Eu417 O440 2.394 . S
Eu417 O445 2.355 . S
Eu417 O447 2.374 1_545 S
C418 C416 1.500 . S
C418 C419 1.377 . S
C418 C423 1.377 . S
C419 C418 1.377 . S
C419 C420 1.395 . S
C419 H448 0.931 . S
C420 C419 1.395 . S
C420 C421 1.383 . S
C420 H449 0.931 . S
C421 C420 1.383 . S
C421 C422 1.394 . S
C422 C421 1.394 . S
C422 C423 1.378 . S
C422 H450 0.931 . S
C423 C418 1.377 . S
C423 C422 1.378 . S
C423 H451 0.931 . S
C424 O438 1.259 . S
C424 O439 1.270 . S
C425 O440 1.251 . S
C425 O441 1.251 . S
C426 Eu427 2.835 1_565 S
C426 C428 1.500 . S
C426 O442 1.257 . S
C426 O443 1.260 1_565 S
Eu427 C426 2.835 1_545 S
Eu427 O439 2.355 . S
Eu427 O441 2.374 . S
Eu427 O442 2.473 1_545 S
Eu427 O443 2.480 . S
Eu427 O444 2.430 . S
Eu427 O445 2.670 . S
Eu427 O446 2.394 1_545 S
C428 C426 1.500 . S
C428 C429 1.377 . S
C428 C433 1.377 . S
C429 C428 1.377 . S
C429 C430 1.395 . S
C429 H452 0.931 . S
C430 C429 1.395 . S
C430 C431 1.383 . S
C430 H453 0.931 . S
C431 C430 1.383 . S
C431 C432 1.394 . S
C432 C431 1.394 . S
C432 C433 1.378 . S
C432 H454 0.931 . S
C433 C428 1.377 . S
C433 C432 1.378 . S
C433 H455 0.931 . S
C434 O444 1.259 . S
C434 O445 1.270 . S
C435 O446 1.251 . S
C435 O447 1.251 . S
O436 C416 1.257 . S
O436 Eu417 2.473 . S
O437 C416 1.260 . S
O437 Eu417 2.480 . S
O438 Eu417 2.430 . S
O438 C424 1.259 . S
O439 Eu417 2.670 . S
O439 C424 1.270 . S
O439 Eu427 2.355 . S
O440 Eu417 2.394 . S
O440 C425 1.251 . S
O441 C425 1.251 . S
O441 Eu427 2.374 . S
O442 C426 1.257 . S
O442 Eu427 2.473 1_565 S
O443 C426 1.260 1_545 S
O443 Eu427 2.480 . S
O444 Eu427 2.430 . S
O444 C434 1.259 . S
O445 Eu417 2.355 . S
O445 Eu427 2.670 . S
O445 C434 1.270 . S
O446 Eu427 2.394 1_565 S
O446 C435 1.251 . S
O447 Eu417 2.374 1_565 S
O447 C435 1.251 . S
H448 C419 0.931 . S
H449 C420 0.931 . S
H450 C422 0.931 . S
H451 C423 0.931 . S
H452 C429 0.931 . S
H453 C430 0.931 . S
H454 C432 0.931 . S
H455 C433 0.931 . S
C456 Eu457 2.835 . S
C456 C458 1.500 . S
C456 O476 1.257 . S
C456 O477 1.260 . S
Eu457 C456 2.835 . S
Eu457 O476 2.473 . S
Eu457 O477 2.480 . S
Eu457 O478 2.430 . S
Eu457 O479 2.670 . S
Eu457 O480 2.394 . S
Eu457 O485 2.355 . S
Eu457 O487 2.374 . S
C458 C456 1.500 . S
C458 C459 1.377 . S
C458 C463 1.377 . S
C459 C458 1.377 . S
C459 C460 1.395 . S
C459 H488 0.931 . S
C460 C459 1.395 . S
C460 C461 1.383 . S
C460 H489 0.931 . S
C461 C460 1.383 . S
C461 C462 1.394 . S
C462 C461 1.394 . S
C462 C463 1.378 . S
C462 H490 0.931 . S
C463 C458 1.377 . S
C463 C462 1.378 . S
C463 H491 0.931 . S
C464 O478 1.259 . S
C464 O479 1.270 . S
C465 O480 1.251 . S
C465 O481 1.251 . S
C466 Eu467 2.835 . S
C466 C468 1.500 . S
C466 O482 1.257 . S
C466 O483 1.260 . S
Eu467 C466 2.835 . S
Eu467 O479 2.355 . S
Eu467 O481 2.374 . S
Eu467 O482 2.473 . S
Eu467 O483 2.480 . S
Eu467 O484 2.430 . S
Eu467 O485 2.670 . S
Eu467 O486 2.394 . S
C468 C466 1.500 . S
C468 C469 1.377 . S
C468 C473 1.377 . S
C469 C468 1.377 . S
C469 C470 1.395 . S
C469 H492 0.931 . S
C470 C469 1.395 . S
C470 C471 1.383 . S
C470 H493 0.931 . S
C471 C470 1.383 . S
C471 C472 1.394 . S
C472 C471 1.394 . S
C472 C473 1.378 . S
C472 H494 0.931 . S
C473 C468 1.377 . S
C473 C472 1.378 . S
C473 H495 0.931 . S
C474 O484 1.259 . S
C474 O485 1.270 . S
C475 O486 1.251 . S
C475 O487 1.251 . S
O476 C456 1.257 . S
O476 Eu457 2.473 . S
O477 C456 1.260 . S
O477 Eu457 2.480 . S
O478 Eu457 2.430 . S
O478 C464 1.259 . S
O479 Eu457 2.670 . S
O479 C464 1.270 . S
O479 Eu467 2.355 . S
O480 Eu457 2.394 . S
O480 C465 1.251 . S
O481 C465 1.251 . S
O481 Eu467 2.374 . S
O482 C466 1.257 . S
O482 Eu467 2.473 . S
O483 C466 1.260 . S
O483 Eu467 2.480 . S
O484 Eu467 2.430 . S
O484 C474 1.259 . S
O485 Eu457 2.355 . S
O485 Eu467 2.670 . S
O485 C474 1.270 . S
O486 Eu467 2.394 . S
O486 C475 1.251 . S
O487 Eu457 2.374 . S
O487 C475 1.251 . S
H488 C459 0.931 . S
H489 C460 0.931 . S
H490 C462 0.931 . S
H491 C463 0.931 . S
H492 C469 0.931 . S
H493 C470 0.931 . S
H494 C472 0.931 . S
H495 C473 0.931 . S
C496 Eu497 2.835 . S
C496 C498 1.500 . S
C496 O516 1.257 . S
C496 O517 1.260 . S
Eu497 C496 2.835 . S
Eu497 O516 2.473 . S
Eu497 O517 2.480 . S
Eu497 O518 2.430 1_565 S
Eu497 O519 2.670 1_565 S
Eu497 O520 2.395 . S
Eu497 O525 2.355 1_565 S
Eu497 O527 2.355 1_565 S
C498 C496 1.500 . S
C498 C499 1.377 . S
C498 C503 1.377 . S
C499 C498 1.377 . S
C499 C500 1.395 . S
C499 H528 0.931 . S
C500 C499 1.395 . S
C500 C501 1.383 . S
C500 H529 0.931 . S
C501 C500 1.383 . S
C501 C502 1.394 . S
C502 C501 1.394 . S
C502 C503 1.378 . S
C502 H530 0.931 . S
C503 C498 1.377 . S
C503 C502 1.378 . S
C503 H531 0.931 . S
C504 O518 1.259 . S
C504 O519 1.270 . S
C505 O520 1.249 1_545 S
C505 O521 1.251 . S
C506 Eu507 2.835 . S
C506 C508 1.500 . S
C506 O522 1.257 . S
C506 O523 1.260 . S
Eu507 C506 2.835 . S
Eu507 O519 2.355 . S
Eu507 O521 2.374 . S
Eu507 O522 2.473 . S
Eu507 O523 2.480 . S
Eu507 O524 2.430 1_455 S
Eu507 O525 2.670 . S
Eu507 O526 2.394 . S
C508 C506 1.500 . S
C508 C509 1.377 1_455 S
C508 C513 1.377 . S
C509 C508 1.377 1_655 S
C509 C510 1.395 . S
C509 H532 0.931 . S
C510 C509 1.395 . S
C510 C511 1.383 1_655 S
C510 H533 0.931 . S
C511 C510 1.383 1_455 S
C511 C512 1.394 . S
C512 C511 1.394 . S
C512 C513 1.378 . S
C512 H534 0.931 . S
C513 C508 1.377 . S
C513 C512 1.378 . S
C513 H535 0.931 . S
C514 O524 1.259 . S
C514 O525 1.270 1_655 S
C515 O526 1.251 . S
C515 O527 1.281 . S
O516 C496 1.257 . S
O516 Eu497 2.473 . S
O517 C496 1.260 . S
O517 Eu497 2.480 . S
O518 Eu497 2.430 1_545 S
O518 C504 1.259 . S
O519 Eu497 2.670 1_545 S
O519 C504 1.270 . S
O519 Eu507 2.355 . S
O520 Eu497 2.395 . S
O520 C505 1.249 1_565 S
O521 C505 1.251 . S
O521 Eu507 2.374 . S
O522 C506 1.257 . S
O522 Eu507 2.473 . S
O523 C506 1.260 . S
O523 Eu507 2.480 . S
O524 Eu507 2.430 1_655 S
O524 C514 1.259 . S
O525 Eu497 2.355 1_545 S
O525 Eu507 2.670 . S
O525 C514 1.270 1_455 S
O526 Eu507 2.394 . S
O526 C515 1.251 . S
O527 Eu497 2.355 1_545 S
O527 C515 1.281 . S
H528 C499 0.931 . S
H529 C500 0.931 . S
H530 C502 0.931 . S
H531 C503 0.931 . S
H532 C509 0.931 . S
H533 C510 0.931 . S
H534 C512 0.931 . S
H535 C513 0.931 . S
C536 Eu537 2.835 . S
C536 C538 1.500 . S
C536 O556 1.257 . S
C536 O557 1.260 . S
Eu537 C536 2.835 . S
Eu537 O556 2.473 . S
Eu537 O557 2.480 . S
Eu537 O558 2.430 . S
Eu537 O559 2.670 . S
Eu537 O560 2.394 . S
Eu537 O565 2.355 . S
Eu537 O567 2.374 . S
C538 C536 1.500 . S
C538 C539 1.377 . S
C538 C543 1.377 . S
C539 C538 1.377 . S
C539 C540 1.395 . S
C539 H568 0.931 . S
C540 C539 1.395 . S
C540 C541 1.383 . S
C540 H569 0.931 . S
C541 C540 1.383 . S
C541 C542 1.394 . S
C542 C541 1.394 . S
C542 C543 1.378 . S
C542 H570 0.931 . S
C543 C538 1.377 . S
C543 C542 1.378 . S
C543 H571 0.931 . S
C544 O558 1.259 . S
C544 O559 1.270 . S
C545 O560 1.251 . S
C545 O561 1.251 . S
C546 Eu547 2.835 . S
C546 C548 1.500 . S
C546 O562 1.257 . S
C546 O563 1.260 . S
Eu547 C546 2.835 . S
Eu547 O559 2.355 . S
Eu547 O561 2.374 . S
Eu547 O562 2.473 . S
Eu547 O563 2.480 . S
Eu547 O564 2.430 . S
Eu547 O565 2.670 . S
Eu547 O566 2.394 . S
C548 C546 1.500 . S
C548 C549 1.377 . S
C548 C553 1.377 . S
C549 C548 1.377 . S
C549 C550 1.395 . S
C549 H572 0.931 . S
C550 C549 1.395 . S
C550 C551 1.383 . S
C550 H573 0.931 . S
C551 C550 1.383 . S
C551 C552 1.394 . S
C552 C551 1.394 . S
C552 C553 1.378 . S
C552 H574 0.931 . S
C553 C548 1.377 . S
C553 C552 1.378 . S
C553 H575 0.931 . S
C554 O564 1.259 . S
C554 O565 1.270 . S
C555 O566 1.251 . S
C555 O567 1.251 . S
O556 C536 1.257 . S
O556 Eu537 2.473 . S
O557 C536 1.260 . S
O557 Eu537 2.480 . S
O558 Eu537 2.430 . S
O558 C544 1.259 . S
O559 Eu537 2.670 . S
O559 C544 1.270 . S
O559 Eu547 2.355 . S
O560 Eu537 2.394 . S
O560 C545 1.251 . S
O561 C545 1.251 . S
O561 Eu547 2.374 . S
O562 C546 1.257 . S
O562 Eu547 2.473 . S
O563 C546 1.260 . S
O563 Eu547 2.480 . S
O564 Eu547 2.430 . S
O564 C554 1.259 . S
O565 Eu537 2.355 . S
O565 Eu547 2.670 . S
O565 C554 1.270 . S
O566 Eu547 2.394 . S
O566 C555 1.251 . S
O567 Eu537 2.374 . S
O567 C555 1.251 . S
H568 C539 0.931 . S
H569 C540 0.931 . S
H570 C542 0.931 . S
H571 C543 0.931 . S
H572 C549 0.931 . S
H573 C550 0.931 . S
H574 C552 0.931 . S
H575 C553 0.931 . S
C576 Eu577 2.835 . S
C576 C578 1.500 . S
C576 O596 1.257 . S
C576 O597 1.260 . S
Eu577 C576 2.835 . S
Eu577 O596 2.473 . S
Eu577 O597 2.480 . S
Eu577 O598 2.430 1_545 S
Eu577 O599 2.670 1_545 S
Eu577 O600 2.394 . S
Eu577 O605 2.355 . S
Eu577 O607 2.374 . S
C578 C576 1.500 . S
C578 C579 1.377 . S
C578 C583 1.377 . S
C579 C578 1.377 . S
C579 C580 1.395 . S
C579 H608 0.931 . S
C580 C579 1.395 . S
C580 C581 1.383 . S
C580 H609 0.931 . S
C581 C580 1.383 . S
C581 C582 1.394 . S
C582 C581 1.394 . S
C582 C583 1.378 . S
C582 H610 0.931 . S
C583 C578 1.377 . S
C583 C582 1.378 . S
C583 H611 0.931 . S
C584 O598 1.259 . S
C584 O599 1.270 . S
C585 O600 1.251 . S
C585 O601 1.251 1_554 S
C586 Eu587 2.835 1_565 S
C586 C588 1.500 . S
C586 O602 1.257 . S
C586 O603 1.260 1_565 S
Eu587 C586 2.835 1_545 S
Eu587 O599 2.355 1_545 S
Eu587 O601 2.374 1_554 S
Eu587 O602 2.473 1_545 S
Eu587 O603 2.480 . S
Eu587 O604 2.430 . S
Eu587 O605 2.670 . S
Eu587 O606 2.394 . S
C588 C586 1.500 . S
C588 C589 1.377 . S
C588 C593 1.377 . S
C589 C588 1.377 . S
C589 C590 1.395 . S
C589 H612 0.931 1_565 S
C590 C589 1.395 . S
C590 C591 1.383 . S
C590 H613 0.931 . S
C591 C590 1.383 . S
C591 C592 1.394 . S
C592 C591 1.394 . S
C592 C593 1.378 . S
C592 H614 0.931 . S
C593 C588 1.377 . S
C593 C592 1.378 . S
C593 H615 0.931 . S
C594 O604 1.259 . S
C594 O605 1.270 . S
C595 O606 1.251 . S
C595 O607 1.251 . S
O596 C576 1.257 . S
O596 Eu577 2.473 . S
O597 C576 1.260 . S
O597 Eu577 2.480 . S
O598 Eu577 2.430 1_565 S
O598 C584 1.259 . S
O599 Eu577 2.670 1_565 S
O599 C584 1.270 . S
O599 Eu587 2.355 1_565 S
O600 Eu577 2.394 . S
O600 C585 1.251 . S
O601 C585 1.251 1_556 S
O601 Eu587 2.374 1_556 S
O602 C586 1.257 . S
O602 Eu587 2.473 1_565 S
O603 C586 1.260 1_545 S
O603 Eu587 2.480 . S
O604 Eu587 2.430 . S
O604 C594 1.259 . S
O605 Eu577 2.355 . S
O605 Eu587 2.670 . S
O605 C594 1.270 . S
O606 Eu587 2.394 . S
O606 C595 1.251 . S
O607 Eu577 2.374 . S
O607 C595 1.251 . S
H608 C579 0.931 . S
H609 C580 0.931 . S
H610 C582 0.931 . S
H611 C583 0.931 . S
H612 C589 0.931 1_545 S
H613 C590 0.931 . S
H614 C592 0.931 . S
H615 C593 0.931 . S
C616 Eu617 2.835 . S
C616 C618 1.500 . S
C616 O636 1.257 . S
C616 O637 1.260 . S
Eu617 C616 2.835 . S
Eu617 O636 2.473 . S
Eu617 O637 2.480 . S
Eu617 O638 2.430 . S
Eu617 O639 2.670 . S
Eu617 O640 2.394 . S
Eu617 O645 2.355 . S
Eu617 O647 2.374 . S
C618 C616 1.500 . S
C618 C619 1.377 . S
C618 C623 1.377 . S
C619 C618 1.377 . S
C619 C620 1.395 . S
C619 H648 0.931 . S
C620 C619 1.395 . S
C620 C621 1.383 . S
C620 H649 0.931 . S
C621 C620 1.383 . S
C621 C622 1.394 . S
C622 C621 1.394 . S
C622 C623 1.378 . S
C622 H650 0.931 . S
C623 C618 1.377 . S
C623 C622 1.378 . S
C623 H651 0.931 . S
C624 O638 1.259 . S
C624 O639 1.270 . S
C625 O640 1.251 . S
C625 O641 1.251 . S
C626 Eu627 2.835 . S
C626 C628 1.500 . S
C626 O642 1.257 . S
C626 O643 1.260 . S
Eu627 C626 2.835 . S
Eu627 O639 2.355 . S
Eu627 O641 2.374 . S
Eu627 O642 2.473 . S
Eu627 O643 2.480 . S
Eu627 O644 2.430 . S
Eu627 O645 2.670 . S
Eu627 O646 2.394 . S
C628 C626 1.500 . S
C628 C629 1.377 . S
C628 C633 1.377 . S
C629 C628 1.377 . S
C629 C630 1.395 . S
C629 H652 0.931 . S
C630 C629 1.395 . S
C630 C631 1.383 . S
C630 H653 0.931 . S
C631 C630 1.383 . S
C631 C632 1.394 . S
C632 C631 1.394 . S
C632 C633 1.378 . S
C632 H654 0.931 . S
C633 C628 1.377 . S
C633 C632 1.378 . S
C633 H655 0.931 . S
C634 O644 1.259 . S
C634 O645 1.270 . S
C635 O646 1.251 . S
C635 O647 1.251 . S
O636 C616 1.257 . S
O636 Eu617 2.473 . S
O637 C616 1.260 . S
O637 Eu617 2.480 . S
O638 Eu617 2.430 . S
O638 C624 1.259 . S
O639 Eu617 2.670 . S
O639 C624 1.270 . S
O639 Eu627 2.355 . S
O640 Eu617 2.394 . S
O640 C625 1.251 . S
O641 C625 1.251 . S
O641 Eu627 2.374 . S
O642 C626 1.257 . S
O642 Eu627 2.473 . S
O643 C626 1.260 . S
O643 Eu627 2.480 . S
O644 Eu627 2.430 . S
O644 C634 1.259 . S
O645 Eu617 2.355 . S
O645 Eu627 2.670 . S
O645 C634 1.270 . S
O646 Eu627 2.394 . S
O646 C635 1.251 . S
O647 Eu617 2.374 . S
O647 C635 1.251 . S
H648 C619 0.931 . S
H649 C620 0.931 . S
H650 C622 0.931 . S
H651 C623 0.931 . S
H652 C629 0.931 . S
H653 C630 0.931 . S
H654 C632 0.931 . S
H655 C633 0.931 . S
C656 Eu657 2.835 . S
C656 C658 1.500 . S
C656 O676 1.257 . S
C656 O677 1.260 . S
Eu657 C656 2.835 . S
Eu657 O676 2.473 . S
Eu657 O677 2.480 . S
Eu657 O678 2.430 . S
Eu657 O679 2.670 . S
Eu657 O680 2.394 . S
Eu657 O685 2.355 . S
Eu657 O687 2.374 1_554 S
C658 C656 1.500 . S
C658 C659 1.377 . S
C658 C663 1.377 . S
C659 C658 1.377 . S
C659 C660 1.395 . S
C659 H688 0.931 . S
C660 C659 1.395 . S
C660 C661 1.383 . S
C660 H689 0.931 . S
C661 C660 1.383 . S
C661 C662 1.394 . S
C662 C661 1.394 . S
C662 C663 1.378 . S
C662 H690 0.931 . S
C663 C658 1.377 . S
C663 C662 1.378 . S
C663 H691 0.931 . S
C664 O678 1.259 . S
C664 O679 1.270 . S
C665 O680 1.251 . S
C665 O681 1.251 . S
C666 Eu667 2.835 . S
C666 C668 1.500 . S
C666 O682 1.257 . S
C666 O683 1.260 . S
Eu667 C666 2.835 . S
Eu667 O679 2.355 . S
Eu667 O681 2.374 . S
Eu667 O682 2.473 . S
Eu667 O683 2.480 . S
Eu667 O684 2.430 . S
Eu667 O685 2.670 . S
Eu667 O686 2.394 . S
C668 C666 1.500 . S
C668 C669 1.377 . S
C668 C673 1.377 . S
C669 C668 1.377 . S
C669 C670 1.395 . S
C669 H692 0.931 . S
C670 C669 1.395 . S
C670 C671 1.383 . S
C670 H693 0.931 . S
C671 C670 1.383 . S
C671 C672 1.400 . S
C672 C671 1.400 . S
C672 C673 1.394 . S
C672 H694 0.910 1_554 S
C673 C668 1.377 . S
C673 C672 1.394 . S
C673 H695 0.931 . S
C674 O684 1.259 . S
C674 O685 1.270 . S
C675 O686 1.251 1_556 S
C675 O687 1.251 . S
O676 C656 1.257 . S
O676 Eu657 2.473 . S
O677 C656 1.260 . S
O677 Eu657 2.480 . S
O678 Eu657 2.430 . S
O678 C664 1.259 . S
O679 Eu657 2.670 . S
O679 C664 1.270 . S
O679 Eu667 2.355 . S
O680 Eu657 2.394 . S
O680 C665 1.251 . S
O681 C665 1.251 . S
O681 Eu667 2.374 . S
O682 C666 1.257 . S
O682 Eu667 2.473 . S
O683 C666 1.260 . S
O683 Eu667 2.480 . S
O684 Eu667 2.430 . S
O684 C674 1.259 . S
O685 Eu657 2.355 . S
O685 Eu667 2.670 . S
O685 C674 1.270 . S
O686 Eu667 2.394 . S
O686 C675 1.251 1_554 S
O687 Eu657 2.374 1_556 S
O687 C675 1.251 . S
H688 C659 0.931 . S
H689 C660 0.931 . S
H690 C662 0.931 . S
H691 C663 0.931 . S
H692 C669 0.931 . S
H693 C670 0.931 . S
H694 C672 0.910 1_556 S
H695 C673 0.931 . S
C696 Eu697 2.835 . S
C696 C698 1.500 . S
C696 O716 1.257 . S
C696 O717 1.260 . S
Eu697 C696 2.835 . S
Eu697 O716 2.473 . S
Eu697 O717 2.480 . S
Eu697 O718 2.430 . S
Eu697 O719 2.670 . S
Eu697 O720 2.394 . S
Eu697 O725 2.355 . S
Eu697 O727 2.374 . S
C698 C696 1.500 . S
C698 C699 1.377 . S
C698 C703 1.377 . S
C699 C698 1.377 . S
C699 C700 1.395 . S
C699 H728 0.931 . S
C700 C699 1.395 . S
C700 C701 1.383 . S
C700 H729 0.931 . S
C701 C700 1.383 . S
C701 C702 1.394 . S
C702 C701 1.394 . S
C702 C703 1.378 . S
C702 H730 0.931 . S
C703 C698 1.377 . S
C703 C702 1.378 . S
C703 H731 0.931 . S
C704 O718 1.259 . S
C704 O719 1.270 . S
C705 O720 1.251 . S
C705 O721 1.251 . S
C706 Eu707 2.835 . S
C706 C708 1.500 . S
C706 O722 1.257 . S
C706 O723 1.260 . S
Eu707 C706 2.835 . S
Eu707 O719 2.355 . S
Eu707 O721 2.374 . S
Eu707 O722 2.473 . S
Eu707 O723 2.480 . S
Eu707 O724 2.430 . S
Eu707 O725 2.670 . S
Eu707 O726 2.394 . S
C708 C706 1.500 . S
C708 C709 1.377 . S
C708 C713 1.377 . S
C709 C708 1.377 . S
C709 C710 1.395 . S
C709 H732 0.931 . S
C710 C709 1.395 . S
C710 C711 1.383 . S
C710 H733 0.931 . S
C711 C710 1.383 . S
C711 C712 1.394 . S
C712 C711 1.394 . S
C712 C713 1.378 . S
C712 H734 0.931 . S
C713 C708 1.377 . S
C713 C712 1.378 . S
C713 H735 0.931 . S
C714 O724 1.259 . S
C714 O725 1.270 . S
C715 O726 1.251 . S
C715 O727 1.251 . S
O716 C696 1.257 . S
O716 Eu697 2.473 . S
O717 C696 1.260 . S
O717 Eu697 2.480 . S
O718 Eu697 2.430 . S
O718 C704 1.259 . S
O719 Eu697 2.670 . S
O719 C704 1.270 . S
O719 Eu707 2.355 . S
O720 Eu697 2.394 . S
O720 C705 1.251 . S
O721 C705 1.251 . S
O721 Eu707 2.374 . S
O722 C706 1.257 . S
O722 Eu707 2.473 . S
O723 C706 1.260 . S
O723 Eu707 2.480 . S
O724 Eu707 2.430 . S
O724 C714 1.259 . S
O725 Eu697 2.355 . S
O725 Eu707 2.670 . S
O725 C714 1.270 . S
O726 Eu707 2.394 . S
O726 C715 1.251 . S
O727 Eu697 2.374 . S
O727 C715 1.251 . S
H728 C699 0.931 . S
H729 C700 0.931 . S
H730 C702 0.931 . S
H731 C703 0.931 . S
H732 C709 0.931 . S
H733 C710 0.931 . S
H734 C712 0.931 . S
H735 C713 0.931 . S
C736 Eu737 2.835 . S
C736 C738 1.500 . S
C736 O756 1.257 . S
C736 O757 1.260 . S
Eu737 C736 2.835 . S
Eu737 O756 2.473 . S
Eu737 O757 2.480 . S
Eu737 O758 2.430 . S
Eu737 O759 2.670 . S
Eu737 O760 2.394 . S
Eu737 O765 2.355 . S
Eu737 O767 2.374 . S
C738 C736 1.500 . S
C738 C739 1.377 . S
C738 C743 1.377 . S
C739 C738 1.377 . S
C739 C740 1.395 . S
C739 H768 0.931 . S
C740 C739 1.395 . S
C740 C741 1.383 . S
C740 H769 0.931 . S
C741 C740 1.383 . S
C741 C742 1.394 . S
C742 C741 1.394 . S
C742 C743 1.378 . S
C742 H770 0.931 . S
C743 C738 1.377 . S
C743 C742 1.378 . S
C743 H771 0.931 . S
C744 O758 1.259 . S
C744 O759 1.270 . S
C745 O760 1.251 . S
C745 O761 1.251 . S
C746 Eu747 2.829 1_655 S
C746 C748 1.500 . S
C746 O762 1.257 . S
C746 O763 1.260 . S
Eu747 C746 2.829 1_455 S
Eu747 O759 2.360 . S
Eu747 O761 2.379 . S
Eu747 O762 2.469 1_455 S
Eu747 O763 2.473 1_455 S
Eu747 O764 2.429 . S
Eu747 O765 2.675 . S
Eu747 O766 2.393 1_455 S
C748 C746 1.500 . S
C748 C749 1.377 . S
C748 C753 1.377 . S
C749 C748 1.377 . S
C749 C750 1.395 . S
C749 H772 0.931 . S
C750 C749 1.395 . S
C750 C751 1.383 . S
C750 H773 0.931 . S
C751 C750 1.383 . S
C751 C752 1.394 . S
C752 C751 1.394 . S
C752 C753 1.378 . S
C752 H774 0.931 . S
C753 C748 1.377 . S
C753 C752 1.378 . S
C753 H775 0.931 . S
C754 O764 1.259 . S
C754 O765 1.270 . S
C755 O766 1.251 1_455 S
C755 O767 1.251 . S
O756 C736 1.257 . S
O756 Eu737 2.473 . S
O757 C736 1.260 . S
O757 Eu737 2.480 . S
O758 Eu737 2.430 . S
O758 C744 1.259 . S
O759 Eu737 2.670 . S
O759 C744 1.270 . S
O759 Eu747 2.360 . S
O760 Eu737 2.394 . S
O760 C745 1.251 . S
O761 C745 1.251 . S
O761 Eu747 2.379 . S
O762 C746 1.257 . S
O762 Eu747 2.469 1_655 S
O763 C746 1.260 . S
O763 Eu747 2.473 1_655 S
O764 Eu747 2.429 . S
O764 C754 1.259 . S
O765 Eu737 2.355 . S
O765 Eu747 2.675 . S
O765 C754 1.270 . S
O766 Eu747 2.393 1_655 S
O766 C755 1.251 1_655 S
O767 Eu737 2.374 . S
O767 C755 1.251 . S
H768 C739 0.931 . S
H769 C740 0.931 . S
H770 C742 0.931 . S
H771 C743 0.931 . S
H772 C749 0.931 . S
H773 C750 0.931 . S
H774 C752 0.931 . S
H775 C753 0.931 . S
C776 Eu777 2.835 . S
C776 C778 1.500 . S
C776 O796 1.257 . S
C776 O797 1.260 . S
Eu777 C776 2.835 . S
Eu777 O796 2.473 . S
Eu777 O797 2.480 . S
Eu777 O798 2.430 . S
Eu777 O799 2.670 . S
Eu777 O800 2.394 . S
Eu777 O805 2.355 . S
Eu777 O807 2.374 . S
C778 C776 1.500 . S
C778 C779 1.377 . S
C778 C783 1.377 . S
C779 C778 1.377 . S
C779 C780 1.395 . S
C779 H808 0.931 . S
C780 C779 1.395 . S
C780 C781 1.383 . S
C780 H809 0.931 . S
C781 C780 1.383 . S
C781 C782 1.394 . S
C782 C781 1.394 . S
C782 C783 1.378 . S
C782 H810 0.931 . S
C783 C778 1.377 . S
C783 C782 1.378 . S
C783 H811 0.931 . S
C784 O798 1.259 . S
C784 O799 1.270 . S
C785 O800 1.251 . S
C785 O801 1.251 . S
C786 Eu787 2.835 . S
C786 C788 1.500 . S
C786 O802 1.257 . S
C786 O803 1.260 . S
Eu787 C786 2.835 . S
Eu787 O799 2.355 . S
Eu787 O801 2.374 . S
Eu787 O802 2.473 . S
Eu787 O803 2.480 . S
Eu787 O804 2.430 . S
Eu787 O805 2.670 . S
Eu787 O806 2.394 . S
C788 C786 1.500 . S
C788 C789 1.377 . S
C788 C793 1.377 . S
C789 C788 1.377 . S
C789 C790 1.395 . S
C789 H812 0.931 . S
C790 C789 1.395 . S
C790 C791 1.383 . S
C790 H813 0.931 . S
C791 C790 1.383 . S
C791 C792 1.394 . S
C792 C791 1.394 . S
C792 C793 1.378 . S
C792 H814 0.931 . S
C793 C788 1.377 . S
C793 C792 1.378 . S
C793 H815 0.931 . S
C794 O804 1.259 . S
C794 O805 1.270 . S
C795 O806 1.251 . S
C795 O807 1.251 . S
O796 C776 1.257 . S
O796 Eu777 2.473 . S
O797 C776 1.260 . S
O797 Eu777 2.480 . S
O798 Eu777 2.430 . S
O798 C784 1.259 . S
O799 Eu777 2.670 . S
O799 C784 1.270 . S
O799 Eu787 2.355 . S
O800 Eu777 2.394 . S
O800 C785 1.251 . S
O801 C785 1.251 . S
O801 Eu787 2.374 . S
O802 C786 1.257 . S
O802 Eu787 2.473 . S
O803 C786 1.260 . S
O803 Eu787 2.480 . S
O804 Eu787 2.430 . S
O804 C794 1.259 . S
O805 Eu777 2.355 . S
O805 Eu787 2.670 . S
O805 C794 1.270 . S
O806 Eu787 2.394 . S
O806 C795 1.251 . S
O807 Eu777 2.374 . S
O807 C795 1.251 . S
H808 C779 0.931 . S
H809 C780 0.931 . S
H810 C782 0.931 . S
H811 C783 0.931 . S
H812 C789 0.931 . S
H813 C790 0.931 . S
H814 C792 0.931 . S
H815 C793 0.931 . S
C816 Eu817 2.835 . S
C816 C818 1.500 . S
C816 O836 1.257 . S
C816 O837 1.260 . S
Eu817 C816 2.835 . S
Eu817 O836 2.473 . S
Eu817 O837 2.480 . S
Eu817 O838 2.430 . S
Eu817 O839 2.670 . S
Eu817 O840 2.394 . S
Eu817 O845 2.355 . S
Eu817 O847 2.374 . S
C818 C816 1.500 . S
C818 C819 1.377 . S
C818 C823 1.377 . S
C819 C818 1.377 . S
C819 C820 1.395 . S
C819 H848 0.931 . S
C820 C819 1.395 . S
C820 C821 1.383 . S
C820 H849 0.931 . S
C821 C820 1.383 . S
C821 C822 1.394 . S
C822 C821 1.394 . S
C822 C823 1.378 . S
C822 H850 0.931 . S
C823 C818 1.377 . S
C823 C822 1.378 . S
C823 H851 0.931 . S
C824 O838 1.259 . S
C824 O839 1.270 . S
C825 O840 1.251 . S
C825 O841 1.251 . S
C826 Eu827 2.835 . S
C826 C828 1.500 . S
C826 O842 1.257 . S
C826 O843 1.260 . S
Eu827 C826 2.835 . S
Eu827 O839 2.355 . S
Eu827 O841 2.374 . S
Eu827 O842 2.473 . S
Eu827 O843 2.480 . S
Eu827 O844 2.430 . S
Eu827 O845 2.670 . S
Eu827 O846 2.394 . S
C828 C826 1.500 . S
C828 C829 1.377 . S
C828 C833 1.377 . S
C829 C828 1.377 . S
C829 C830 1.395 . S
C829 H852 0.931 . S
C830 C829 1.395 . S
C830 C831 1.383 . S
C830 H853 0.931 . S
C831 C830 1.383 . S
C831 C832 1.394 . S
C832 C831 1.394 . S
C832 C833 1.378 . S
C832 H854 0.931 . S
C833 C828 1.377 . S
C833 C832 1.378 . S
C833 H855 0.931 . S
C834 O844 1.259 . S
C834 O845 1.270 . S
C835 O846 1.251 . S
C835 O847 1.251 . S
O836 C816 1.257 . S
O836 Eu817 2.473 . S
O837 C816 1.260 . S
O837 Eu817 2.480 . S
O838 Eu817 2.430 . S
O838 C824 1.259 . S
O839 Eu817 2.670 . S
O839 C824 1.270 . S
O839 Eu827 2.355 . S
O840 Eu817 2.394 . S
O840 C825 1.251 . S
O841 C825 1.251 . S
O841 Eu827 2.374 . S
O842 C826 1.257 . S
O842 Eu827 2.473 . S
O843 C826 1.260 . S
O843 Eu827 2.480 . S
O844 Eu827 2.430 . S
O844 C834 1.259 . S
O845 Eu817 2.355 . S
O845 Eu827 2.670 . S
O845 C834 1.270 . S
O846 Eu827 2.394 . S
O846 C835 1.251 . S
O847 Eu817 2.374 . S
O847 C835 1.251 . S
H848 C819 0.931 . S
H849 C820 0.931 . S
H850 C822 0.931 . S
H851 C823 0.931 . S
H852 C829 0.931 . S
H853 C830 0.931 . S
H854 C832 0.931 . S
H855 C833 0.931 . S
C856 Eu857 2.835 . S
C856 C858 1.500 . S
C856 O876 1.257 . S
C856 O877 1.260 . S
Eu857 C856 2.835 . S
Eu857 O876 2.473 . S
Eu857 O877 2.480 . S
Eu857 O878 2.430 . S
Eu857 O879 2.670 . S
Eu857 O880 2.394 . S
Eu857 O885 2.355 . S
Eu857 O887 2.374 . S
C858 C856 1.500 . S
C858 C859 1.377 . S
C858 C863 1.377 . S
C859 C858 1.377 . S
C859 C860 1.395 . S
C859 H888 0.931 . S
C860 C859 1.395 . S
C860 C861 1.383 . S
C860 H889 0.931 . S
C861 C860 1.383 . S
C861 C862 1.394 . S
C862 C861 1.394 . S
C862 C863 1.378 . S
C862 H890 0.931 . S
C863 C858 1.377 . S
C863 C862 1.378 . S
C863 H891 0.931 . S
C864 O878 1.259 . S
C864 O879 1.270 . S
C865 O880 1.251 . S
C865 O881 1.251 . S
C866 Eu867 2.835 . S
C866 C868 1.500 . S
C866 O882 1.257 . S
C866 O883 1.260 . S
Eu867 C866 2.835 . S
Eu867 O879 2.355 . S
Eu867 O881 2.374 . S
Eu867 O882 2.473 . S
Eu867 O883 2.480 . S
Eu867 O884 2.430 . S
Eu867 O885 2.670 . S
Eu867 O886 2.394 . S
C868 C866 1.500 . S
C868 C869 1.377 . S
C868 C873 1.377 . S
C869 C868 1.377 . S
C869 C870 1.395 . S
C869 H892 0.931 . S
C870 C869 1.395 . S
C870 C871 1.383 . S
C870 H893 0.931 . S
C871 C870 1.383 . S
C871 C872 1.394 . S
C872 C871 1.394 . S
C872 C873 1.378 . S
C872 H894 0.931 . S
C873 C868 1.377 . S
C873 C872 1.378 . S
C873 H895 0.931 . S
C874 O884 1.259 . S
C874 O885 1.270 . S
C875 O886 1.251 . S
C875 O887 1.251 . S
O876 C856 1.257 . S
O876 Eu857 2.473 . S
O877 C856 1.260 . S
O877 Eu857 2.480 . S
O878 Eu857 2.430 . S
O878 C864 1.259 . S
O879 Eu857 2.670 . S
O879 C864 1.270 . S
O879 Eu867 2.355 . S
O880 Eu857 2.394 . S
O880 C865 1.251 . S
O881 C865 1.251 . S
O881 Eu867 2.374 . S
O882 C866 1.257 . S
O882 Eu867 2.473 . S
O883 C866 1.260 . S
O883 Eu867 2.480 . S
O884 Eu867 2.430 . S
O884 C874 1.259 . S
O885 Eu857 2.355 . S
O885 Eu867 2.670 . S
O885 C874 1.270 . S
O886 Eu867 2.394 . S
O886 C875 1.251 . S
O887 Eu857 2.374 . S
O887 C875 1.251 . S
H888 C859 0.931 . S
H889 C860 0.931 . S
H890 C862 0.931 . S
H891 C863 0.931 . S
H892 C869 0.931 . S
H893 C870 0.931 . S
H894 C872 0.931 . S
H895 C873 0.931 . S
C896 Eu897 2.835 . S
C896 C898 1.500 . S
C896 O916 1.257 . S
C896 O917 1.260 . S
Eu897 C896 2.835 . S
Eu897 O916 2.473 . S
Eu897 O917 2.480 . S
Eu897 O918 2.430 . S
Eu897 O919 2.670 . S
Eu897 O920 2.394 . S
Eu897 O925 2.355 . S
Eu897 O927 2.374 . S
C898 C896 1.500 . S
C898 C899 1.377 . S
C898 C903 1.377 . S
C899 C898 1.377 . S
C899 C900 1.395 . S
C899 H928 0.931 . S
C900 C899 1.395 . S
C900 C901 1.383 . S
C900 H929 0.931 . S
C901 C900 1.383 . S
C901 C902 1.394 . S
C902 C901 1.394 . S
C902 C903 1.378 . S
C902 H930 0.931 . S
C903 C898 1.377 . S
C903 C902 1.378 . S
C903 H931 0.931 . S
C904 O918 1.259 . S
C904 O919 1.270 . S
C905 O920 1.251 . S
C905 O921 1.251 . S
C906 Eu907 2.835 . S
C906 C908 1.500 . S
C906 O922 1.257 . S
C906 O923 1.260 . S
Eu907 C906 2.835 . S
Eu907 O919 2.355 . S
Eu907 O921 2.374 . S
Eu907 O922 2.473 . S
Eu907 O923 2.480 . S
Eu907 O924 2.430 . S
Eu907 O925 2.670 . S
Eu907 O926 2.394 . S
C908 C906 1.500 . S
C908 C909 1.377 . S
C908 C913 1.377 . S
C909 C908 1.377 . S
C909 C910 1.395 . S
C909 H932 0.931 . S
C910 C909 1.395 . S
C910 C911 1.383 . S
C910 H933 0.931 . S
C911 C910 1.383 . S
C911 C912 1.394 . S
C912 C911 1.394 . S
C912 C913 1.378 . S
C912 H934 0.931 . S
C913 C908 1.377 . S
C913 C912 1.378 . S
C913 H935 0.931 . S
C914 O924 1.259 . S
C914 O925 1.270 . S
C915 O926 1.251 . S
C915 O927 1.251 . S
O916 C896 1.257 . S
O916 Eu897 2.473 . S
O917 C896 1.260 . S
O917 Eu897 2.480 . S
O918 Eu897 2.430 . S
O918 C904 1.259 . S
O919 Eu897 2.670 . S
O919 C904 1.270 . S
O919 Eu907 2.355 . S
O920 Eu897 2.394 . S
O920 C905 1.251 . S
O921 C905 1.251 . S
O921 Eu907 2.374 . S
O922 C906 1.257 . S
O922 Eu907 2.473 . S
O923 C906 1.260 . S
O923 Eu907 2.480 . S
O924 Eu907 2.430 . S
O924 C914 1.259 . S
O925 Eu897 2.355 . S
O925 Eu907 2.670 . S
O925 C914 1.270 . S
O926 Eu907 2.394 . S
O926 C915 1.251 . S
O927 Eu897 2.374 . S
O927 C915 1.251 . S
H928 C899 0.931 . S
H929 C900 0.931 . S
H930 C902 0.931 . S
H931 C903 0.931 . S
H932 C909 0.931 . S
H933 C910 0.931 . S
H934 C912 0.931 . S
H935 C913 0.931 . S
C936 Eu937 2.835 . S
C936 C938 1.500 . S
C936 O956 1.257 . S
C936 O957 1.260 . S
Eu937 C936 2.835 . S
Eu937 O956 2.473 . S
Eu937 O957 2.480 . S
Eu937 O958 2.430 1_655 S
Eu937 O959 2.670 1_655 S
Eu937 O960 2.394 1_655 S
Eu937 O965 2.355 1_655 S
Eu937 O967 2.373 1_655 S
C938 C936 1.500 . S
C938 C939 1.377 . S
C938 C943 1.377 . S
C939 C938 1.377 . S
C939 C940 1.395 . S
C939 H968 0.931 . S
C940 C939 1.395 . S
C940 C941 1.383 . S
C940 H969 0.931 . S
C941 C940 1.383 . S
C941 C942 1.394 . S
C942 C941 1.394 . S
C942 C943 1.378 . S
C942 H970 0.931 . S
C943 C938 1.377 . S
C943 C942 1.378 . S
C943 H971 0.931 . S
C944 O958 1.259 . S
C944 O959 1.270 . S
C945 O960 1.251 . S
C945 O961 1.251 . S
C946 Eu947 2.835 . S
C946 C948 1.500 . S
C946 O962 1.257 . S
C946 O963 1.260 . S
Eu947 C946 2.835 . S
Eu947 O959 2.355 . S
Eu947 O961 2.374 . S
Eu947 O962 2.473 . S
Eu947 O963 2.480 . S
Eu947 O964 2.430 1_554 S
Eu947 O965 2.670 . S
Eu947 O966 2.394 . S
C948 C946 1.500 . S
C948 C949 1.377 1_554 S
C948 C953 1.377 . S
C949 C948 1.377 1_556 S
C949 C950 1.395 . S
C949 H972 0.931 . S
C950 C949 1.395 . S
C950 C951 1.383 1_556 S
C950 H973 0.931 . S
C951 C950 1.383 1_554 S
C951 C952 1.394 . S
C952 C951 1.394 . S
C952 C953 1.378 . S
C952 H974 0.931 . S
C953 C948 1.377 . S
C953 C952 1.378 . S
C953 H975 0.931 . S
C954 O964 1.259 . S
C954 O965 1.270 1_556 S
C955 O966 1.251 . S
C955 O967 1.251 . S
O956 C936 1.257 . S
O956 Eu937 2.473 . S
O957 C936 1.260 . S
O957 Eu937 2.480 . S
O958 Eu937 2.430 1_455 S
O958 C944 1.259 . S
O959 Eu937 2.670 1_455 S
O959 C944 1.270 . S
O959 Eu947 2.355 . S
O960 Eu937 2.394 1_455 S
O960 C945 1.251 . S
O961 C945 1.251 . S
O961 Eu947 2.374 . S
O962 C946 1.257 . S
O962 Eu947 2.473 . S
O963 C946 1.260 . S
O963 Eu947 2.480 . S
O964 Eu947 2.430 1_556 S
O964 C954 1.259 . S
O965 Eu937 2.355 1_455 S
O965 Eu947 2.670 . S
O965 C954 1.270 1_554 S
O966 Eu947 2.394 . S
O966 C955 1.251 . S
O967 Eu937 2.373 1_455 S
O967 C955 1.251 . S
H968 C939 0.931 . S
H969 C940 0.931 . S
H970 C942 0.931 . S
H971 C943 0.931 . S
H972 C949 0.931 . S
H973 C950 0.931 . S
H974 C952 0.931 . S
H975 C953 0.931 . S
H976 C988 0.950 . S
H977 C990 0.930 . S
H978 C991 0.930 . S
H979 C995 0.959 . S
H980 C995 0.959 . S
H981 C995 0.961 . S
H982 C996 0.960 . S
H983 C996 0.961 . S
H984 C996 0.959 1_655 S
H985 C999 0.929 1_655 S
H986 C1000 0.931 1_556 S
H987 C1002 0.930 . S
C988 H976 0.950 . S
C988 C989 1.399 . S
C988 C993 1.399 . S
C989 C988 1.399 . S
C989 C990 1.376 1_455 S
C990 H977 0.930 . S
C990 C989 1.376 1_655 S
C990 C991 1.388 . S
C991 H978 0.930 . S
C991 C990 1.388 . S
C991 C992 1.390 1_655 S
C992 C991 1.390 1_455 S
C992 C993 1.394 . S
C992 C998 1.465 . S
C993 C988 1.399 . S
C993 C992 1.394 . S
C993 C994 1.516 1_556 S
C994 C993 1.516 1_554 S
C994 C995 1.502 . S
C994 C996 1.561 . S
C994 C997 1.526 . S
C995 H979 0.959 . S
C995 H980 0.959 . S
C995 H981 0.961 . S
C995 C994 1.502 . S
C996 H982 0.960 . S
C996 H983 0.961 . S
C996 H984 0.959 1_455 S
C996 C994 1.561 . S
C997 C994 1.526 . S
C997 C998 1.396 1_554 S
C997 C1002 1.390 . S
C998 C992 1.465 . S
C998 C997 1.396 1_556 S
C998 C999 1.399 . S
C999 H985 0.929 1_455 S
C999 C998 1.399 . S
C999 C1000 1.385 1_556 S
C1000 H986 0.931 1_554 S
C1000 C999 1.385 1_554 S
C1000 C1001 1.389 . S
C1001 C1000 1.389 . S
C1001 C1002 1.387 . S
C1002 H987 0.930 . S
C1002 C997 1.390 . S
C1002 C1001 1.387 . S
H1003 C1015 0.930 . S
H1004 C1017 0.930 . S
H1005 C1018 0.930 . S
H1006 C1022 0.959 . S
H1007 C1022 0.959 . S
H1008 C1022 0.961 . S
H1009 C1023 0.960 . S
H1010 C1023 0.961 . S
H1011 C1023 0.959 . S
H1012 C1026 0.929 . S
H1013 C1027 0.931 . S
H1014 C1029 0.930 . S
C1015 H1003 0.930 . S
C1015 C1016 1.399 . S
C1015 C1020 1.399 . S
C1016 C1015 1.399 . S
C1016 C1017 1.376 . S
C1017 H1004 0.930 . S
C1017 C1016 1.376 . S
C1017 C1018 1.388 . S
C1018 H1005 0.930 . S
C1018 C1017 1.388 . S
C1018 C1019 1.390 . S
C1019 C1018 1.390 . S
C1019 C1020 1.394 . S
C1019 C1025 1.465 . S
C1020 C1015 1.399 . S
C1020 C1019 1.394 . S
C1020 C1021 1.516 . S
C1021 C1020 1.516 . S
C1021 C1022 1.502 . S
C1021 C1023 1.561 . S
C1021 C1024 1.526 . S
C1022 H1006 0.959 . S
C1022 H1007 0.959 . S
C1022 H1008 0.961 . S
C1022 C1021 1.502 . S
C1023 H1009 0.960 . S
C1023 H1010 0.961 . S
C1023 H1011 0.959 . S
C1023 C1021 1.561 . S
C1024 C1021 1.526 . S
C1024 C1025 1.396 . S
C1024 C1029 1.390 . S
C1025 C1019 1.465 . S
C1025 C1024 1.396 . S
C1025 C1026 1.399 . S
C1026 H1012 0.929 . S
C1026 C1025 1.399 . S
C1026 C1027 1.385 . S
C1027 H1013 0.931 . S
C1027 C1026 1.385 . S
C1027 C1028 1.389 . S
C1028 C1027 1.389 . S
C1028 C1029 1.387 . S
C1029 H1014 0.930 . S
C1029 C1024 1.390 . S
C1029 C1028 1.387 . S
H1030 C1042 0.930 . S
H1031 C1044 0.930 . S
H1032 C1045 0.930 . S
H1033 C1049 0.959 . S
H1034 C1049 0.959 . S
H1035 C1049 0.961 . S
H1036 C1050 0.960 . S
H1037 C1050 0.961 . S
H1038 C1050 0.959 . S
H1039 C1053 0.929 . S
H1040 C1054 0.931 . S
H1041 C1056 0.930 . S
C1042 H1030 0.930 . S
C1042 C1043 1.399 . S
C1042 C1047 1.399 . S
C1043 C1042 1.399 . S
C1043 C1044 1.376 . S
C1044 H1031 0.930 . S
C1044 C1043 1.376 . S
C1044 C1045 1.388 . S
C1045 H1032 0.930 . S
C1045 C1044 1.388 . S
C1045 C1046 1.390 . S
C1046 C1045 1.390 . S
C1046 C1047 1.394 . S
C1046 C1052 1.465 . S
C1047 C1042 1.399 . S
C1047 C1046 1.394 . S
C1047 C1048 1.516 . S
C1048 C1047 1.516 . S
C1048 C1049 1.502 . S
C1048 C1050 1.561 . S
C1048 C1051 1.526 . S
C1049 H1033 0.959 . S
C1049 H1034 0.959 . S
C1049 H1035 0.961 . S
C1049 C1048 1.502 . S
C1050 H1036 0.960 . S
C1050 H1037 0.961 . S
C1050 H1038 0.959 . S
C1050 C1048 1.561 . S
C1051 C1048 1.526 . S
C1051 C1052 1.396 . S
C1051 C1056 1.390 . S
C1052 C1046 1.465 . S
C1052 C1051 1.396 . S
C1052 C1053 1.399 . S
C1053 H1039 0.929 . S
C1053 C1052 1.399 . S
C1053 C1054 1.385 . S
C1054 H1040 0.931 . S
C1054 C1053 1.385 . S
C1054 C1055 1.389 . S
C1055 C1054 1.389 . S
C1055 C1056 1.387 . S
C1056 H1041 0.930 . S
C1056 C1051 1.390 . S
C1056 C1055 1.387 . S
H1057 C1069 0.930 . S
H1058 C1071 0.930 . S
H1059 C1072 0.930 . S
H1060 C1076 0.959 . S
H1061 C1076 0.959 . S
H1062 C1076 0.961 . S
H1063 C1077 0.960 . S
H1064 C1077 0.961 . S
H1065 C1077 0.959 . S
H1066 C1080 0.929 . S
H1067 C1081 0.931 . S
H1068 C1083 0.930 . S
C1069 H1057 0.930 . S
C1069 C1070 1.399 . S
C1069 C1074 1.399 . S
C1070 C1069 1.399 . S
C1070 C1071 1.376 . S
C1071 H1058 0.930 . S
C1071 C1070 1.376 . S
C1071 C1072 1.388 . S
C1072 H1059 0.930 . S
C1072 C1071 1.388 . S
C1072 C1073 1.390 . S
C1073 C1072 1.390 . S
C1073 C1074 1.394 . S
C1073 C1079 1.465 . S
C1074 C1069 1.399 . S
C1074 C1073 1.394 . S
C1074 C1075 1.516 . S
C1075 C1074 1.516 . S
C1075 C1076 1.502 . S
C1075 C1077 1.561 . S
C1075 C1078 1.526 . S
C1076 H1060 0.959 . S
C1076 H1061 0.959 . S
C1076 H1062 0.961 . S
C1076 C1075 1.502 . S
C1077 H1063 0.960 . S
C1077 H1064 0.961 . S
C1077 H1065 0.959 . S
C1077 C1075 1.561 . S
C1078 C1075 1.526 . S
C1078 C1079 1.396 . S
C1078 C1083 1.390 . S
C1079 C1073 1.465 . S
C1079 C1078 1.396 . S
C1079 C1080 1.399 . S
C1080 H1066 0.929 . S
C1080 C1079 1.399 . S
C1080 C1081 1.385 . S
C1081 H1067 0.931 . S
C1081 C1080 1.385 . S
C1081 C1082 1.389 . S
C1082 C1081 1.389 . S
C1082 C1083 1.387 . S
C1083 H1068 0.930 . S
C1083 C1078 1.390 . S
C1083 C1082 1.387 . S
H1084 C1096 0.930 . S
H1085 C1098 0.930 . S
H1086 C1099 0.930 . S
H1087 C1103 0.959 1_655 S
H1088 C1103 0.959 . S
H1089 C1103 0.961 1_655 S
H1090 C1104 0.960 . S
H1091 C1104 0.961 . S
H1092 C1104 0.959 . S
H1093 C1107 0.929 . S
H1094 C1108 0.931 . S
H1095 C1110 0.930 . S
C1096 H1084 0.930 . S
C1096 C1097 1.399 . S
C1096 C1101 1.399 . S
C1097 C1096 1.399 . S
C1097 C1098 1.376 . S
C1098 H1085 0.930 . S
C1098 C1097 1.376 . S
C1098 C1099 1.388 . S
C1099 H1086 0.930 . S
C1099 C1098 1.388 . S
C1099 C1100 1.390 . S
C1100 C1099 1.390 . S
C1100 C1101 1.394 . S
C1100 C1106 1.465 . S
C1101 C1096 1.399 . S
C1101 C1100 1.394 . S
C1101 C1102 1.516 . S
C1102 C1101 1.516 . S
C1102 C1103 1.502 . S
C1102 C1104 1.561 . S
C1102 C1105 1.526 . S
C1103 H1087 0.959 1_455 S
C1103 H1088 0.959 . S
C1103 H1089 0.961 1_455 S
C1103 C1102 1.502 . S
C1104 H1090 0.960 . S
C1104 H1091 0.961 . S
C1104 H1092 0.959 . S
C1104 C1102 1.561 . S
C1105 C1102 1.526 . S
C1105 C1106 1.396 . S
C1105 C1110 1.390 . S
C1106 C1100 1.465 . S
C1106 C1105 1.396 . S
C1106 C1107 1.399 . S
C1107 H1093 0.929 . S
C1107 C1106 1.399 . S
C1107 C1108 1.385 . S
C1108 H1094 0.931 . S
C1108 C1107 1.385 . S
C1108 C1109 1.389 . S
C1109 C1108 1.389 . S
C1109 C1110 1.387 . S
C1110 H1095 0.930 . S
C1110 C1105 1.390 . S
C1110 C1109 1.387 . S
H1111 C1123 0.930 . S
H1112 C1125 0.930 . S
H1113 C1126 0.930 . S
H1114 C1130 0.959 . S
H1115 C1130 0.959 . S
H1116 C1130 0.961 . S
H1117 C1131 0.960 . S
H1118 C1131 0.961 . S
H1119 C1131 0.959 . S
H1120 C1134 0.929 . S
H1121 C1135 0.931 . S
H1122 C1137 0.930 . S
C1123 H1111 0.930 . S
C1123 C1124 1.399 . S
C1123 C1128 1.399 . S
C1124 C1123 1.399 . S
C1124 C1125 1.376 . S
C1125 H1112 0.930 . S
C1125 C1124 1.376 . S
C1125 C1126 1.388 . S
C1126 H1113 0.930 . S
C1126 C1125 1.388 . S
C1126 C1127 1.390 . S
C1127 C1126 1.390 . S
C1127 C1128 1.394 . S
C1127 C1133 1.465 . S
C1128 C1123 1.399 . S
C1128 C1127 1.394 . S
C1128 C1129 1.516 . S
C1129 C1128 1.516 . S
C1129 C1130 1.502 . S
C1129 C1131 1.561 . S
C1129 C1132 1.526 . S
C1130 H1114 0.959 . S
C1130 H1115 0.959 . S
C1130 H1116 0.961 . S
C1130 C1129 1.502 . S
C1131 H1117 0.960 . S
C1131 H1118 0.961 . S
C1131 H1119 0.959 . S
C1131 C1129 1.561 . S
C1132 C1129 1.526 . S
C1132 C1133 1.396 . S
C1132 C1137 1.390 . S
C1133 C1127 1.465 . S
C1133 C1132 1.396 . S
C1133 C1134 1.399 . S
C1134 H1120 0.929 . S
C1134 C1133 1.399 . S
C1134 C1135 1.385 . S
C1135 H1121 0.931 . S
C1135 C1134 1.385 . S
C1135 C1136 1.389 . S
C1136 C1135 1.389 . S
C1136 C1137 1.387 . S
C1137 H1122 0.930 . S
C1137 C1132 1.390 . S
C1137 C1136 1.387 . S
H1138 C1150 0.930 . S
H1139 C1152 0.930 . S
H1140 C1153 0.930 . S
H1141 C1157 0.959 . S
H1142 C1157 0.959 . S
H1143 C1157 0.961 . S
H1144 C1158 0.960 . S
H1145 C1158 0.961 . S
H1146 C1158 0.959 . S
H1147 C1161 0.929 . S
H1148 C1162 0.931 . S
H1149 C1164 0.930 . S
C1150 H1138 0.930 . S
C1150 C1151 1.399 . S
C1150 C1155 1.399 . S
C1151 C1150 1.399 . S
C1151 C1152 1.376 . S
C1152 H1139 0.930 . S
C1152 C1151 1.376 . S
C1152 C1153 1.388 . S
C1153 H1140 0.930 . S
C1153 C1152 1.388 . S
C1153 C1154 1.390 . S
C1154 C1153 1.390 . S
C1154 C1155 1.394 . S
C1154 C1160 1.465 . S
C1155 C1150 1.399 . S
C1155 C1154 1.394 . S
C1155 C1156 1.516 . S
C1156 C1155 1.516 . S
C1156 C1157 1.502 . S
C1156 C1158 1.561 . S
C1156 C1159 1.526 . S
C1157 H1141 0.959 . S
C1157 H1142 0.959 . S
C1157 H1143 0.961 . S
C1157 C1156 1.502 . S
C1158 H1144 0.960 . S
C1158 H1145 0.961 . S
C1158 H1146 0.959 . S
C1158 C1156 1.561 . S
C1159 C1156 1.526 . S
C1159 C1160 1.396 . S
C1159 C1164 1.390 . S
C1160 C1154 1.465 . S
C1160 C1159 1.396 . S
C1160 C1161 1.399 . S
C1161 H1147 0.929 . S
C1161 C1160 1.399 . S
C1161 C1162 1.385 . S
C1162 H1148 0.931 . S
C1162 C1161 1.385 . S
C1162 C1163 1.389 . S
C1163 C1162 1.389 . S
C1163 C1164 1.387 . S
C1164 H1149 0.930 . S
C1164 C1159 1.390 . S
C1164 C1163 1.387 . S
H1165 C1177 0.930 . S
H1166 C1179 0.930 . S
H1167 C1180 0.930 . S
H1168 C1184 0.959 . S
H1169 C1184 0.959 . S
H1170 C1184 0.961 . S
H1171 C1185 0.960 . S
H1172 C1185 0.961 . S
H1173 C1185 0.959 . S
H1174 C1188 0.929 . S
H1175 C1189 0.931 . S
H1176 C1191 0.930 . S
C1177 H1165 0.930 . S
C1177 C1178 1.399 . S
C1177 C1182 1.399 . S
C1178 C1177 1.399 . S
C1178 C1179 1.376 . S
C1179 H1166 0.930 . S
C1179 C1178 1.376 . S
C1179 C1180 1.388 . S
C1180 H1167 0.930 . S
C1180 C1179 1.388 . S
C1180 C1181 1.390 . S
C1181 C1180 1.390 . S
C1181 C1182 1.394 . S
C1181 C1187 1.465 . S
C1182 C1177 1.399 . S
C1182 C1181 1.394 . S
C1182 C1183 1.516 . S
C1183 C1182 1.516 . S
C1183 C1184 1.502 . S
C1183 C1185 1.561 . S
C1183 C1186 1.526 . S
C1184 H1168 0.959 . S
C1184 H1169 0.959 . S
C1184 H1170 0.961 . S
C1184 C1183 1.502 . S
C1185 H1171 0.960 . S
C1185 H1172 0.961 . S
C1185 H1173 0.959 . S
C1185 C1183 1.561 . S
C1186 C1183 1.526 . S
C1186 C1187 1.396 . S
C1186 C1191 1.390 . S
C1187 C1181 1.465 . S
C1187 C1186 1.396 . S
C1187 C1188 1.399 . S
C1188 H1174 0.929 . S
C1188 C1187 1.399 . S
C1188 C1189 1.385 . S
C1189 H1175 0.931 . S
C1189 C1188 1.385 . S
C1189 C1190 1.389 . S
C1190 C1189 1.389 . S
C1190 C1191 1.387 . S
C1191 H1176 0.930 . S
C1191 C1186 1.390 . S
C1191 C1190 1.387 . S
H1192 C1204 0.930 . S
H1193 C1206 0.930 1_565 S
H1194 C1207 0.930 1_565 S
H1195 C1211 0.959 . S
H1196 C1211 0.959 . S
H1197 C1211 0.961 . S
H1198 C1212 0.960 . S
H1199 C1212 0.961 . S
H1200 C1212 0.959 1_455 S
H1201 C1215 0.929 1_565 S
H1202 C1216 0.931 1_565 S
H1203 C1218 0.930 . S
C1204 H1192 0.930 . S
C1204 C1205 1.399 . S
C1204 C1209 1.399 . S
C1205 C1204 1.399 . S
C1205 C1206 1.376 . S
C1206 H1193 0.930 1_545 S
C1206 C1205 1.376 . S
C1206 C1207 1.388 . S
C1207 H1194 0.930 1_545 S
C1207 C1206 1.388 . S
C1207 C1208 1.390 . S
C1208 C1207 1.390 . S
C1208 C1209 1.394 . S
C1208 C1214 1.465 . S
C1209 C1204 1.399 . S
C1209 C1208 1.394 . S
C1209 C1210 1.516 . S
C1210 C1209 1.516 . S
C1210 C1211 1.502 . S
C1210 C1212 1.561 . S
C1210 C1213 1.526 . S
C1211 H1195 0.959 . S
C1211 H1196 0.959 . S
C1211 H1197 0.961 . S
C1211 C1210 1.502 . S
C1212 H1198 0.960 . S
C1212 H1199 0.961 . S
C1212 H1200 0.959 1_655 S
C1212 C1210 1.561 . S
C1213 C1210 1.526 . S
C1213 C1214 1.396 . S
C1213 C1218 1.390 . S
C1214 C1208 1.465 . S
C1214 C1213 1.396 . S
C1214 C1215 1.399 . S
C1215 H1201 0.929 1_545 S
C1215 C1214 1.399 . S
C1215 C1216 1.385 1_655 S
C1216 H1202 0.931 1_545 S
C1216 C1215 1.385 1_455 S
C1216 C1217 1.389 . S
C1217 C1216 1.389 . S
C1217 C1218 1.387 1_455 S
C1218 H1203 0.930 . S
C1218 C1213 1.390 . S
C1218 C1217 1.387 1_655 S
H1219 C1231 0.930 . S
H1220 C1233 0.930 . S
H1221 C1234 0.930 . S
H1222 C1238 0.959 . S
H1223 C1238 0.959 . S
H1224 C1238 0.961 . S
H1225 C1239 0.960 . S
H1226 C1239 0.961 . S
H1227 C1239 0.959 . S
H1228 C1242 0.929 . S
H1229 C1243 0.931 . S
H1230 C1245 0.930 . S
C1231 H1219 0.930 . S
C1231 C1232 1.399 . S
C1231 C1236 1.399 . S
C1232 C1231 1.399 . S
C1232 C1233 1.376 . S
C1233 H1220 0.930 . S
C1233 C1232 1.376 . S
C1233 C1234 1.388 . S
C1234 H1221 0.930 . S
C1234 C1233 1.388 . S
C1234 C1235 1.390 . S
C1235 C1234 1.390 . S
C1235 C1236 1.394 . S
C1235 C1241 1.465 . S
C1236 C1231 1.399 . S
C1236 C1235 1.394 . S
C1236 C1237 1.516 . S
C1237 C1236 1.516 . S
C1237 C1238 1.502 . S
C1237 C1239 1.561 . S
C1237 C1240 1.526 . S
C1238 H1222 0.959 . S
C1238 H1223 0.959 . S
C1238 H1224 0.961 . S
C1238 C1237 1.502 . S
C1239 H1225 0.960 . S
C1239 H1226 0.961 . S
C1239 H1227 0.959 . S
C1239 C1237 1.561 . S
C1240 C1237 1.526 . S
C1240 C1241 1.396 . S
C1240 C1245 1.390 . S
C1241 C1235 1.465 . S
C1241 C1240 1.396 . S
C1241 C1242 1.399 . S
C1242 H1228 0.929 . S
C1242 C1241 1.399 . S
C1242 C1243 1.385 . S
C1243 H1229 0.931 . S
C1243 C1242 1.385 . S
C1243 C1244 1.389 . S
C1244 C1243 1.389 . S
C1244 C1245 1.387 . S
C1245 H1230 0.930 . S
C1245 C1240 1.390 . S
C1245 C1244 1.387 . S
H1246 C1258 0.930 . S
H1247 C1260 0.930 . S
H1248 C1261 0.930 . S
H1249 C1265 0.959 . S
H1250 C1265 0.959 . S
H1251 C1265 0.961 . S
H1252 C1266 0.960 . S
H1253 C1266 0.961 . S
H1254 C1266 0.959 . S
H1255 C1269 0.929 . S
H1256 C1270 0.931 . S
H1257 C1272 0.930 . S
C1258 H1246 0.930 . S
C1258 C1259 1.399 1_565 S
C1258 C1263 1.399 . S
C1259 C1258 1.399 1_545 S
C1259 C1260 1.376 . S
C1260 H1247 0.930 . S
C1260 C1259 1.376 . S
C1260 C1261 1.388 . S
C1261 H1248 0.930 . S
C1261 C1260 1.388 . S
C1261 C1262 1.390 . S
C1262 C1261 1.390 . S
C1262 C1263 1.394 1_545 S
C1262 C1268 1.465 . S
C1263 C1258 1.399 . S
C1263 C1262 1.394 1_565 S
C1263 C1264 1.516 . S
C1264 C1263 1.516 . S
C1264 C1265 1.502 . S
C1264 C1266 1.561 . S
C1264 C1267 1.526 . S
C1265 H1249 0.959 . S
C1265 H1250 0.959 . S
C1265 H1251 0.961 . S
C1265 C1264 1.502 . S
C1266 H1252 0.960 . S
C1266 H1253 0.961 . S
C1266 H1254 0.959 . S
C1266 C1264 1.561 . S
C1267 C1264 1.526 . S
C1267 C1268 1.396 1_565 S
C1267 C1272 1.390 . S
C1268 C1262 1.465 . S
C1268 C1267 1.396 1_545 S
C1268 C1269 1.399 . S
C1269 H1255 0.929 . S
C1269 C1268 1.399 . S
C1269 C1270 1.385 . S
C1270 H1256 0.931 . S
C1270 C1269 1.385 . S
C1270 C1271 1.389 . S
C1271 C1270 1.389 . S
C1271 C1272 1.387 1_545 S
C1272 H1257 0.930 . S
C1272 C1267 1.390 . S
C1272 C1271 1.387 1_565 S
H1273 C1285 0.930 . S
H1274 C1287 0.930 . S
H1275 C1288 0.930 . S
H1276 C1292 0.959 . S
H1277 C1292 0.959 . S
H1278 C1292 0.961 . S
H1279 C1293 0.960 . S
H1280 C1293 0.961 . S
H1281 C1293 0.959 . S
H1282 C1296 0.929 . S
H1283 C1297 0.931 . S
H1284 C1299 0.930 . S
C1285 H1273 0.930 . S
C1285 C1286 1.399 . S
C1285 C1290 1.399 . S
C1286 C1285 1.399 . S
C1286 C1287 1.376 . S
C1287 H1274 0.930 . S
C1287 C1286 1.376 . S
C1287 C1288 1.388 . S
C1288 H1275 0.930 . S
C1288 C1287 1.388 . S
C1288 C1289 1.390 . S
C1289 C1288 1.390 . S
C1289 C1290 1.394 . S
C1289 C1295 1.465 . S
C1290 C1285 1.399 . S
C1290 C1289 1.394 . S
C1290 C1291 1.516 . S
C1291 C1290 1.516 . S
C1291 C1292 1.502 . S
C1291 C1293 1.561 . S
C1291 C1294 1.526 . S
C1292 H1276 0.959 . S
C1292 H1277 0.959 . S
C1292 H1278 0.961 . S
C1292 C1291 1.502 . S
C1293 H1279 0.960 . S
C1293 H1280 0.961 . S
C1293 H1281 0.959 . S
C1293 C1291 1.561 . S
C1294 C1291 1.526 . S
C1294 C1295 1.396 . S
C1294 C1299 1.390 . S
C1295 C1289 1.465 . S
C1295 C1294 1.396 . S
C1295 C1296 1.399 . S
C1296 H1282 0.929 . S
C1296 C1295 1.399 . S
C1296 C1297 1.385 . S
C1297 H1283 0.931 . S
C1297 C1296 1.385 . S
C1297 C1298 1.389 . S
C1298 C1297 1.389 . S
C1298 C1299 1.387 . S
C1299 H1284 0.930 . S
C1299 C1294 1.390 . S
C1299 C1298 1.387 . S
H1300 C1312 0.930 . S
H1301 C1314 0.930 . S
H1302 C1315 0.930 1_565 S
H1303 C1319 0.959 . S
H1304 C1319 0.959 . S
H1305 C1319 0.961 1_655 S
H1306 C1320 0.960 . S
H1307 C1320 0.961 . S
H1308 C1320 0.959 . S
H1309 C1323 0.929 . S
H1310 C1324 0.889 1_565 S
H1311 C1326 0.931 1_455 S
C1312 H1300 0.930 . S
C1312 C1313 1.399 . S
C1312 C1317 1.399 . S
C1313 C1312 1.399 . S
C1313 C1314 1.376 . S
C1314 H1301 0.930 . S
C1314 C1313 1.376 . S
C1314 C1315 1.388 . S
C1315 H1302 0.930 1_545 S
C1315 C1314 1.388 . S
C1315 C1316 1.390 . S
C1316 C1315 1.390 . S
C1316 C1317 1.394 . S
C1316 C1322 1.465 . S
C1317 C1312 1.399 . S
C1317 C1316 1.394 . S
C1317 C1318 1.516 . S
C1318 C1317 1.516 . S
C1318 C1319 1.502 1_655 S
C1318 C1320 1.561 . S
C1318 C1321 1.526 . S
C1319 H1303 0.959 . S
C1319 H1304 0.959 . S
C1319 H1305 0.961 1_455 S
C1319 C1318 1.502 1_455 S
C1320 H1306 0.960 . S
C1320 H1307 0.961 . S
C1320 H1308 0.959 . S
C1320 C1318 1.561 . S
C1321 C1318 1.526 . S
C1321 C1322 1.396 . S
C1321 C1326 1.387 . S
C1322 C1316 1.465 . S
C1322 C1321 1.396 . S
C1322 C1323 1.399 1_545 S
C1323 H1309 0.929 . S
C1323 C1322 1.399 1_565 S
C1323 C1324 1.393 1_565 S
C1324 H1310 0.889 1_545 S
C1324 C1323 1.393 1_545 S
C1324 C1325 1.423 1_655 S
C1325 C1324 1.423 1_455 S
C1325 C1326 1.387 1_455 S
C1326 H1311 0.931 1_655 S
C1326 C1321 1.387 . S
C1326 C1325 1.387 1_655 S
H1327 C1339 0.930 . S
H1328 C1341 0.930 . S
H1329 C1342 0.930 . S
H1330 C1346 0.959 . S
H1331 C1346 0.959 . S
H1332 C1346 0.961 . S
H1333 C1347 0.960 . S
H1334 C1347 0.961 . S
H1335 C1347 0.959 . S
H1336 C1350 0.929 . S
H1337 C1351 0.931 . S
H1338 C1353 0.930 . S
C1339 H1327 0.930 . S
C1339 C1340 1.399 . S
C1339 C1344 1.399 . S
C1340 C1339 1.399 . S
C1340 C1341 1.376 . S
C1341 H1328 0.930 . S
C1341 C1340 1.376 . S
C1341 C1342 1.388 . S
C1342 H1329 0.930 . S
C1342 C1341 1.388 . S
C1342 C1343 1.390 . S
C1343 C1342 1.390 . S
C1343 C1344 1.394 . S
C1343 C1349 1.465 . S
C1344 C1339 1.399 . S
C1344 C1343 1.394 . S
C1344 C1345 1.516 . S
C1345 C1344 1.516 . S
C1345 C1346 1.502 . S
C1345 C1347 1.561 . S
C1345 C1348 1.526 . S
C1346 H1330 0.959 . S
C1346 H1331 0.959 . S
C1346 H1332 0.961 . S
C1346 C1345 1.502 . S
C1347 H1333 0.960 . S
C1347 H1334 0.961 . S
C1347 H1335 0.959 . S
C1347 C1345 1.561 . S
C1348 C1345 1.526 . S
C1348 C1349 1.396 . S
C1348 C1353 1.390 . S
C1349 C1343 1.465 . S
C1349 C1348 1.396 . S
C1349 C1350 1.399 . S
C1350 H1336 0.929 . S
C1350 C1349 1.399 . S
C1350 C1351 1.385 . S
C1351 H1337 0.931 . S
C1351 C1350 1.385 . S
C1351 C1352 1.389 . S
C1352 C1351 1.389 . S
C1352 C1353 1.387 . S
C1353 H1338 0.930 . S
C1353 C1348 1.390 . S
C1353 C1352 1.387 . S
H1354 C1366 0.930 1_565 S
H1355 C1368 0.930 . S
H1356 C1369 0.930 . S
H1357 C1373 0.983 . S
H1358 C1373 0.959 . S
H1359 C1373 0.961 . S
H1360 C1374 0.960 . S
H1361 C1374 0.961 . S
H1362 C1374 0.959 . S
H1363 C1377 0.929 . S
H1364 C1378 0.931 . S
H1365 C1380 0.930 1_565 S
C1366 H1354 0.930 1_545 S
C1366 C1367 1.399 . S
C1366 C1371 1.399 . S
C1367 C1366 1.399 . S
C1367 C1368 1.376 . S
C1368 H1355 0.930 . S
C1368 C1367 1.376 . S
C1368 C1369 1.388 . S
C1369 H1356 0.930 . S
C1369 C1368 1.388 . S
C1369 C1370 1.390 . S
C1370 C1369 1.390 . S
C1370 C1371 1.394 . S
C1370 C1376 1.465 . S
C1371 C1366 1.399 . S
C1371 C1370 1.394 . S
C1371 C1372 1.516 1_545 S
C1372 C1371 1.516 1_565 S
C1372 C1373 1.502 . S
C1372 C1374 1.561 . S
C1372 C1375 1.526 1_565 S
C1373 H1357 0.983 . S
C1373 H1358 0.959 . S
C1373 H1359 0.961 . S
C1373 C1372 1.502 . S
C1374 H1360 0.960 . S
C1374 H1361 0.961 . S
C1374 H1362 0.959 . S
C1374 C1372 1.561 . S
C1375 C1372 1.526 1_545 S
C1375 C1376 1.396 . S
C1375 C1380 1.390 . S
C1376 C1370 1.465 . S
C1376 C1375 1.396 . S
C1376 C1377 1.399 . S
C1377 H1363 0.929 . S
C1377 C1376 1.399 . S
C1377 C1378 1.385 . S
C1378 H1364 0.931 . S
C1378 C1377 1.385 . S
C1378 C1379 1.389 . S
C1379 C1378 1.389 . S
C1379 C1380 1.387 . S
C1380 H1365 0.930 1_545 S
C1380 C1375 1.390 . S
C1380 C1379 1.387 . S
H1381 C1393 0.930 . S
H1382 C1395 0.930 . S
H1383 C1396 0.930 . S
H1384 C1400 0.959 . S
H1385 C1400 0.959 . S
H1386 C1400 0.961 . S
H1387 C1401 0.960 . S
H1388 C1401 0.961 . S
H1389 C1401 0.959 . S
H1390 C1404 0.929 . S
H1391 C1405 0.931 . S
H1392 C1407 0.930 . S
C1393 H1381 0.930 . S
C1393 C1394 1.399 . S
C1393 C1398 1.399 . S
C1394 C1393 1.399 . S
C1394 C1395 1.376 . S
C1395 H1382 0.930 . S
C1395 C1394 1.376 . S
C1395 C1396 1.388 . S
C1396 H1383 0.930 . S
C1396 C1395 1.388 . S
C1396 C1397 1.390 . S
C1397 C1396 1.390 . S
C1397 C1398 1.394 . S
C1397 C1403 1.465 . S
C1398 C1393 1.399 . S
C1398 C1397 1.394 . S
C1398 C1399 1.516 . S
C1399 C1398 1.516 . S
C1399 C1400 1.502 . S
C1399 C1401 1.561 . S
C1399 C1402 1.526 . S
C1400 H1384 0.959 . S
C1400 H1385 0.959 . S
C1400 H1386 0.961 . S
C1400 C1399 1.502 . S
C1401 H1387 0.960 . S
C1401 H1388 0.961 . S
C1401 H1389 0.959 . S
C1401 C1399 1.561 . S
C1402 C1399 1.526 . S
C1402 C1403 1.396 . S
C1402 C1407 1.390 . S
C1403 C1397 1.465 . S
C1403 C1402 1.396 . S
C1403 C1404 1.399 . S
C1404 H1390 0.929 . S
C1404 C1403 1.399 . S
C1404 C1405 1.385 . S
C1405 H1391 0.931 . S
C1405 C1404 1.385 . S
C1405 C1406 1.389 . S
C1406 C1405 1.389 . S
C1406 C1407 1.387 . S
C1407 H1392 0.930 . S
C1407 C1402 1.390 . S
C1407 C1406 1.387 . S
H1408 C1420 0.930 . S
H1409 C1422 0.930 . S
H1410 C1423 0.930 . S
H1411 C1427 0.959 . S
H1412 C1427 0.959 . S
H1413 C1427 0.961 . S
H1414 C1428 0.960 . S
H1415 C1428 0.961 . S
H1416 C1428 0.959 . S
H1417 C1431 0.929 . S
H1418 C1432 0.931 . S
H1419 C1434 0.930 . S
C1420 H1408 0.930 . S
C1420 C1421 1.399 . S
C1420 C1425 1.399 . S
C1421 C1420 1.399 . S
C1421 C1422 1.376 . S
C1422 H1409 0.930 . S
C1422 C1421 1.376 . S
C1422 C1423 1.388 . S
C1423 H1410 0.930 . S
C1423 C1422 1.388 . S
C1423 C1424 1.390 . S
C1424 C1423 1.390 . S
C1424 C1425 1.394 . S
C1424 C1430 1.465 . S
C1425 C1420 1.399 . S
C1425 C1424 1.394 . S
C1425 C1426 1.516 . S
C1426 C1425 1.516 . S
C1426 C1427 1.502 . S
C1426 C1428 1.561 . S
C1426 C1429 1.526 . S
C1427 H1411 0.959 . S
C1427 H1412 0.959 . S
C1427 H1413 0.961 . S
C1427 C1426 1.502 . S
C1428 H1414 0.960 . S
C1428 H1415 0.961 . S
C1428 H1416 0.959 . S
C1428 C1426 1.561 . S
C1429 C1426 1.526 . S
C1429 C1430 1.396 . S
C1429 C1434 1.390 . S
C1430 C1424 1.465 . S
C1430 C1429 1.396 . S
C1430 C1431 1.399 . S
C1431 H1417 0.929 . S
C1431 C1430 1.399 . S
C1431 C1432 1.385 . S
C1432 H1418 0.931 . S
C1432 C1431 1.385 . S
C1432 C1433 1.389 . S
C1433 C1432 1.389 . S
C1433 C1434 1.387 . S
C1434 H1419 0.930 . S
C1434 C1429 1.390 . S
C1434 C1433 1.387 . S
H1435 C1447 0.930 1_556 S
H1436 C1449 0.930 . S
H1437 C1450 0.930 . S
H1438 C1454 0.959 1_554 S
H1439 C1454 0.959 . S
H1440 C1454 0.961 . S
H1441 C1455 0.960 . S
H1442 C1455 0.961 . S
H1443 C1455 0.959 . S
H1444 C1458 0.929 . S
H1445 C1459 0.931 . S
H1446 C1461 0.930 . S
C1447 H1435 0.930 1_554 S
C1447 C1448 1.399 . S
C1447 C1452 1.399 . S
C1448 C1447 1.399 . S
C1448 C1449 1.376 . S
C1449 H1436 0.930 . S
C1449 C1448 1.376 . S
C1449 C1450 1.388 . S
C1450 H1437 0.930 . S
C1450 C1449 1.388 . S
C1450 C1451 1.390 . S
C1451 C1450 1.390 . S
C1451 C1452 1.394 . S
C1451 C1457 1.465 . S
C1452 C1447 1.399 . S
C1452 C1451 1.394 . S
C1452 C1453 1.516 . S
C1453 C1452 1.516 . S
C1453 C1454 1.502 1_554 S
C1453 C1455 1.561 1_554 S
C1453 C1456 1.526 . S
C1454 H1438 0.959 1_556 S
C1454 H1439 0.959 . S
C1454 H1440 0.961 . S
C1454 C1453 1.502 1_556 S
C1455 H1441 0.960 . S
C1455 H1442 0.961 . S
C1455 H1443 0.959 . S
C1455 C1453 1.561 1_556 S
C1456 C1453 1.526 . S
C1456 C1457 1.396 . S
C1456 C1461 1.390 . S
C1457 C1451 1.465 . S
C1457 C1456 1.396 . S
C1457 C1458 1.399 . S
C1458 H1444 0.929 . S
C1458 C1457 1.399 . S
C1458 C1459 1.385 . S
C1459 H1445 0.931 . S
C1459 C1458 1.385 . S
C1459 C1460 1.389 . S
C1460 C1459 1.389 . S
C1460 C1461 1.387 . S
C1461 H1446 0.930 . S
C1461 C1456 1.390 . S
C1461 C1460 1.387 . S
H1462 C1474 0.930 . S
H1463 C1476 0.930 . S
H1464 C1477 0.930 . S
H1465 C1481 0.959 . S
H1466 C1481 0.959 . S
H1467 C1481 0.961 . S
H1468 C1482 0.960 . S
H1469 C1482 0.961 . S
H1470 C1482 0.959 . S
H1471 C1485 0.929 . S
H1472 C1486 0.931 . S
H1473 C1488 0.930 . S
C1474 H1462 0.930 . S
C1474 C1475 1.399 . S
C1474 C1479 1.399 . S
C1475 C1474 1.399 . S
C1475 C1476 1.376 . S
C1476 H1463 0.930 . S
C1476 C1475 1.376 . S
C1476 C1477 1.388 . S
C1477 H1464 0.930 . S
C1477 C1476 1.388 . S
C1477 C1478 1.390 . S
C1478 C1477 1.390 . S
C1478 C1479 1.394 . S
C1478 C1484 1.465 . S
C1479 C1474 1.399 . S
C1479 C1478 1.394 . S
C1479 C1480 1.516 . S
C1480 C1479 1.516 . S
C1480 C1481 1.502 . S
C1480 C1482 1.561 . S
C1480 C1483 1.526 . S
C1481 H1465 0.959 . S
C1481 H1466 0.959 . S
C1481 H1467 0.961 . S
C1481 C1480 1.502 . S
C1482 H1468 0.960 . S
C1482 H1469 0.961 . S
C1482 H1470 0.959 . S
C1482 C1480 1.561 . S
C1483 C1480 1.526 . S
C1483 C1484 1.396 . S
C1483 C1488 1.390 . S
C1484 C1478 1.465 . S
C1484 C1483 1.396 . S
C1484 C1485 1.399 . S
C1485 H1471 0.929 . S
C1485 C1484 1.399 . S
C1485 C1486 1.385 . S
C1486 H1472 0.931 . S
C1486 C1485 1.385 . S
C1486 C1487 1.389 . S
C1487 C1486 1.389 . S
C1487 C1488 1.387 . S
C1488 H1473 0.930 . S
C1488 C1483 1.390 . S
C1488 C1487 1.387 . S
H1489 C1501 0.930 . S
H1490 C1503 0.930 . S
H1491 C1504 0.930 . S
H1492 C1508 0.959 . S
H1493 C1508 0.959 . S
H1494 C1508 0.961 . S
H1495 C1509 0.960 . S
H1496 C1509 0.961 . S
H1497 C1509 0.959 . S
H1498 C1512 0.929 . S
H1499 C1513 0.931 . S
H1500 C1515 0.930 . S
C1501 H1489 0.930 . S
C1501 C1502 1.399 . S
C1501 C1506 1.399 . S
C1502 C1501 1.399 . S
C1502 C1503 1.376 . S
C1503 H1490 0.930 . S
C1503 C1502 1.376 . S
C1503 C1504 1.388 . S
C1504 H1491 0.930 . S
C1504 C1503 1.388 . S
C1504 C1505 1.390 . S
C1505 C1504 1.390 . S
C1505 C1506 1.394 . S
C1505 C1511 1.465 . S
C1506 C1501 1.399 . S
C1506 C1505 1.394 . S
C1506 C1507 1.516 . S
C1507 C1506 1.516 . S
C1507 C1508 1.502 . S
C1507 C1509 1.561 . S
C1507 C1510 1.526 . S
C1508 H1492 0.959 . S
C1508 H1493 0.959 . S
C1508 H1494 0.961 . S
C1508 C1507 1.502 . S
C1509 H1495 0.960 . S
C1509 H1496 0.961 . S
C1509 H1497 0.959 . S
C1509 C1507 1.561 . S
C1510 C1507 1.526 . S
C1510 C1511 1.396 . S
C1510 C1515 1.390 . S
C1511 C1505 1.465 . S
C1511 C1510 1.396 . S
C1511 C1512 1.399 . S
C1512 H1498 0.929 . S
C1512 C1511 1.399 . S
C1512 C1513 1.385 . S
C1513 H1499 0.931 . S
C1513 C1512 1.385 . S
C1513 C1514 1.389 . S
C1514 C1513 1.389 . S
C1514 C1515 1.387 . S
C1515 H1500 0.930 . S
C1515 C1510 1.390 . S
C1515 C1514 1.387 . S
H1516 C1528 0.930 . S
H1517 C1530 0.930 . S
H1518 C1531 0.930 . S
H1519 C1535 0.959 . S
H1520 C1535 0.959 . S
H1521 C1535 0.961 . S
H1522 C1536 0.960 . S
H1523 C1536 0.961 . S
H1524 C1536 0.959 . S
H1525 C1539 0.929 . S
H1526 C1540 0.931 . S
H1527 C1542 0.930 . S
C1528 H1516 0.930 . S
C1528 C1529 1.399 . S
C1528 C1533 1.399 . S
C1529 C1528 1.399 . S
C1529 C1530 1.376 . S
C1530 H1517 0.930 . S
C1530 C1529 1.376 . S
C1530 C1531 1.388 . S
C1531 H1518 0.930 . S
C1531 C1530 1.388 . S
C1531 C1532 1.390 . S
C1532 C1531 1.390 . S
C1532 C1533 1.394 . S
C1532 C1538 1.465 . S
C1533 C1528 1.399 . S
C1533 C1532 1.394 . S
C1533 C1534 1.516 . S
C1534 C1533 1.516 . S
C1534 C1535 1.502 . S
C1534 C1536 1.561 . S
C1534 C1537 1.526 . S
C1535 H1519 0.959 . S
C1535 H1520 0.959 . S
C1535 H1521 0.961 . S
C1535 C1534 1.502 . S
C1536 H1522 0.960 . S
C1536 H1523 0.961 . S
C1536 H1524 0.959 . S
C1536 C1534 1.561 . S
C1537 C1534 1.526 . S
C1537 C1538 1.396 . S
C1537 C1542 1.390 . S
C1538 C1532 1.465 . S
C1538 C1537 1.396 . S
C1538 C1539 1.399 . S
C1539 H1525 0.929 . S
C1539 C1538 1.399 . S
C1539 C1540 1.385 . S
C1540 H1526 0.931 . S
C1540 C1539 1.385 . S
C1540 C1541 1.389 . S
C1541 C1540 1.389 . S
C1541 C1542 1.387 . S
C1542 H1527 0.930 . S
C1542 C1537 1.390 . S
C1542 C1541 1.387 . S
H1543 C1555 0.930 . S
H1544 C1557 0.930 . S
H1545 C1558 0.930 . S
H1546 C1562 0.959 . S
H1547 C1562 0.959 . S
H1548 C1562 0.961 . S
H1549 C1563 0.960 . S
H1550 C1563 0.961 . S
H1551 C1563 0.959 . S
H1552 C1566 0.929 . S
H1553 C1567 0.931 . S
H1554 C1569 0.930 . S
C1555 H1543 0.930 . S
C1555 C1556 1.399 . S
C1555 C1560 1.399 . S
C1556 C1555 1.399 . S
C1556 C1557 1.376 . S
C1557 H1544 0.930 . S
C1557 C1556 1.376 . S
C1557 C1558 1.388 . S
C1558 H1545 0.930 . S
C1558 C1557 1.388 . S
C1558 C1559 1.390 . S
C1559 C1558 1.390 . S
C1559 C1560 1.394 . S
C1559 C1565 1.465 . S
C1560 C1555 1.399 . S
C1560 C1559 1.394 . S
C1560 C1561 1.516 . S
C1561 C1560 1.516 . S
C1561 C1562 1.502 . S
C1561 C1563 1.561 . S
C1561 C1564 1.526 . S
C1562 H1546 0.959 . S
C1562 H1547 0.959 . S
C1562 H1548 0.961 . S
C1562 C1561 1.502 . S
C1563 H1549 0.960 . S
C1563 H1550 0.961 . S
C1563 H1551 0.959 . S
C1563 C1561 1.561 . S
C1564 C1561 1.526 . S
C1564 C1565 1.396 . S
C1564 C1569 1.390 . S
C1565 C1559 1.465 . S
C1565 C1564 1.396 . S
C1565 C1566 1.399 . S
C1566 H1552 0.929 . S
C1566 C1565 1.399 . S
C1566 C1567 1.385 . S
C1567 H1553 0.931 . S
C1567 C1566 1.385 . S
C1567 C1568 1.389 . S
C1568 C1567 1.389 . S
C1568 C1569 1.387 . S
C1569 H1554 0.930 . S
C1569 C1564 1.390 . S
C1569 C1568 1.387 . S
H1570 C1582 0.930 . S
H1571 C1584 0.930 . S
H1572 C1585 0.930 . S
H1573 C1589 0.959 . S
H1574 C1589 0.959 . S
H1575 C1589 0.961 . S
H1576 C1590 0.960 . S
H1577 C1590 0.961 . S
H1578 C1590 0.959 . S
H1579 C1593 0.929 . S
H1580 C1594 0.931 . S
H1581 C1596 0.930 . S
C1582 H1570 0.930 . S
C1582 C1583 1.399 . S
C1582 C1587 1.399 . S
C1583 C1582 1.399 . S
C1583 C1584 1.376 . S
C1584 H1571 0.930 . S
C1584 C1583 1.376 . S
C1584 C1585 1.388 . S
C1585 H1572 0.930 . S
C1585 C1584 1.388 . S
C1585 C1586 1.390 . S
C1586 C1585 1.390 . S
C1586 C1587 1.394 . S
C1586 C1592 1.465 . S
C1587 C1582 1.399 . S
C1587 C1586 1.394 . S
C1587 C1588 1.516 . S
C1588 C1587 1.516 . S
C1588 C1589 1.502 . S
C1588 C1590 1.561 . S
C1588 C1591 1.526 . S
C1589 H1573 0.959 . S
C1589 H1574 0.959 . S
C1589 H1575 0.961 . S
C1589 C1588 1.502 . S
C1590 H1576 0.960 . S
C1590 H1577 0.961 . S
C1590 H1578 0.959 . S
C1590 C1588 1.561 . S
C1591 C1588 1.526 . S
C1591 C1592 1.396 . S
C1591 C1596 1.390 . S
C1592 C1586 1.465 . S
C1592 C1591 1.396 . S
C1592 C1593 1.399 . S
C1593 H1579 0.929 . S
C1593 C1592 1.399 . S
C1593 C1594 1.385 . S
C1594 H1580 0.931 . S
C1594 C1593 1.385 . S
C1594 C1595 1.389 . S
C1595 C1594 1.389 . S
C1595 C1596 1.387 . S
C1596 H1581 0.930 . S
C1596 C1591 1.390 . S
C1596 C1595 1.387 . S
H1597 C1609 0.930 . S
H1598 C1611 0.930 . S
H1599 C1612 0.930 . S
H1600 C1616 0.959 . S
H1601 C1616 0.959 . S
H1602 C1616 0.961 . S
H1603 C1617 0.960 . S
H1604 C1617 0.961 . S
H1605 C1617 0.959 . S
H1606 C1620 0.929 . S
H1607 C1621 0.931 . S
H1608 C1623 0.930 . S
C1609 H1597 0.930 . S
C1609 C1610 1.399 . S
C1609 C1614 1.399 . S
C1610 C1609 1.399 . S
C1610 C1611 1.376 . S
C1611 H1598 0.930 . S
C1611 C1610 1.376 . S
C1611 C1612 1.388 . S
C1612 H1599 0.930 . S
C1612 C1611 1.388 . S
C1612 C1613 1.390 . S
C1613 C1612 1.390 . S
C1613 C1614 1.394 . S
C1613 C1619 1.465 . S
C1614 C1609 1.399 . S
C1614 C1613 1.394 . S
C1614 C1615 1.516 . S
C1615 C1614 1.516 . S
C1615 C1616 1.502 . S
C1615 C1617 1.561 . S
C1615 C1618 1.526 . S
C1616 H1600 0.959 . S
C1616 H1601 0.959 . S
C1616 H1602 0.961 . S
C1616 C1615 1.502 . S
C1617 H1603 0.960 . S
C1617 H1604 0.961 . S
C1617 H1605 0.959 . S
C1617 C1615 1.561 . S
C1618 C1615 1.526 . S
C1618 C1619 1.396 . S
C1618 C1623 1.390 . S
C1619 C1613 1.465 . S
C1619 C1618 1.396 . S
C1619 C1620 1.399 . S
C1620 H1606 0.929 . S
C1620 C1619 1.399 . S
C1620 C1621 1.385 . S
C1621 H1607 0.931 . S
C1621 C1620 1.385 . S
C1621 C1622 1.389 . S
C1622 C1621 1.389 . S
C1622 C1623 1.387 . S
C1623 H1608 0.930 . S
C1623 C1618 1.390 . S
C1623 C1622 1.387 . S
H1624 C1636 0.930 . S
H1625 C1638 0.930 . S
H1626 C1639 0.930 . S
H1627 C1643 0.959 . S
H1628 C1643 0.959 . S
H1629 C1643 0.961 . S
H1630 C1644 0.960 . S
H1631 C1644 0.961 . S
H1632 C1644 0.959 . S
H1633 C1647 0.929 . S
H1634 C1648 0.931 . S
H1635 C1650 0.930 . S
C1636 H1624 0.930 . S
C1636 C1637 1.399 . S
C1636 C1641 1.399 . S
C1637 C1636 1.399 . S
C1637 C1638 1.376 . S
C1638 H1625 0.930 . S
C1638 C1637 1.376 . S
C1638 C1639 1.388 . S
C1639 H1626 0.930 . S
C1639 C1638 1.388 . S
C1639 C1640 1.390 . S
C1640 C1639 1.390 . S
C1640 C1641 1.394 . S
C1640 C1646 1.465 . S
C1641 C1636 1.399 . S
C1641 C1640 1.394 . S
C1641 C1642 1.516 . S
C1642 C1641 1.516 . S
C1642 C1643 1.502 . S
C1642 C1644 1.561 . S
C1642 C1645 1.526 . S
C1643 H1627 0.959 . S
C1643 H1628 0.959 . S
C1643 H1629 0.961 . S
C1643 C1642 1.502 . S
C1644 H1630 0.960 . S
C1644 H1631 0.961 . S
C1644 H1632 0.959 . S
C1644 C1642 1.561 . S
C1645 C1642 1.526 . S
C1645 C1646 1.396 . S
C1645 C1650 1.390 . S
C1646 C1640 1.465 . S
C1646 C1645 1.396 . S
C1646 C1647 1.399 . S
C1647 H1633 0.929 . S
C1647 C1646 1.399 . S
C1647 C1648 1.385 . S
C1648 H1634 0.931 . S
C1648 C1647 1.385 . S
C1648 C1649 1.389 . S
C1649 C1648 1.389 . S
C1649 C1650 1.387 . S
C1650 H1635 0.930 . S
C1650 C1645 1.390 . S
C1650 C1649 1.387 . S
H1651 C1663 0.930 . S
H1652 C1665 0.930 . S
H1653 C1666 0.930 . S
H1654 C1670 0.959 . S
H1655 C1670 0.959 . S
H1656 C1670 0.961 . S
H1657 C1671 0.960 . S
H1658 C1671 0.961 . S
H1659 C1671 0.959 . S
H1660 C1674 0.929 . S
H1661 C1675 0.931 . S
H1662 C1677 0.930 . S
C1663 H1651 0.930 . S
C1663 C1664 1.399 . S
C1663 C1668 1.399 . S
C1664 C1663 1.399 . S
C1664 C1665 1.376 . S
C1665 H1652 0.930 . S
C1665 C1664 1.376 . S
C1665 C1666 1.388 . S
C1666 H1653 0.930 . S
C1666 C1665 1.388 . S
C1666 C1667 1.390 . S
C1667 C1666 1.390 . S
C1667 C1668 1.394 . S
C1667 C1673 1.465 . S
C1668 C1663 1.399 . S
C1668 C1667 1.394 . S
C1668 C1669 1.516 . S
C1669 C1668 1.516 . S
C1669 C1670 1.502 . S
C1669 C1671 1.561 . S
C1669 C1672 1.526 . S
C1670 H1654 0.959 . S
C1670 H1655 0.959 . S
C1670 H1656 0.961 . S
C1670 C1669 1.502 . S
C1671 H1657 0.960 . S
C1671 H1658 0.961 . S
C1671 H1659 0.959 . S
C1671 C1669 1.561 . S
C1672 C1669 1.526 . S
C1672 C1673 1.396 . S
C1672 C1677 1.390 . S
C1673 C1667 1.465 . S
C1673 C1672 1.396 . S
C1673 C1674 1.399 . S
C1674 H1660 0.929 . S
C1674 C1673 1.399 . S
C1674 C1675 1.385 . S
C1675 H1661 0.931 . S
C1675 C1674 1.385 . S
C1675 C1676 1.389 . S
C1676 C1675 1.389 . S
C1676 C1677 1.387 . S
C1677 H1662 0.930 . S
C1677 C1672 1.390 . S
C1677 C1676 1.387 . S
H1678 C1690 0.930 . S
H1679 C1692 0.930 . S
H1680 C1693 0.930 . S
H1681 C1697 0.959 . S
H1682 C1697 0.959 . S
H1683 C1697 0.961 . S
H1684 C1698 0.960 . S
H1685 C1698 0.961 . S
H1686 C1698 0.959 . S
H1687 C1701 0.929 . S
H1688 C1702 0.931 . S
H1689 C1704 0.930 . S
C1690 H1678 0.930 . S
C1690 C1691 1.399 . S
C1690 C1695 1.399 . S
C1691 C1690 1.399 . S
C1691 C1692 1.376 . S
C1692 H1679 0.930 . S
C1692 C1691 1.376 . S
C1692 C1693 1.388 . S
C1693 H1680 0.930 . S
C1693 C1692 1.388 . S
C1693 C1694 1.390 . S
C1694 C1693 1.390 . S
C1694 C1695 1.394 . S
C1694 C1700 1.465 . S
C1695 C1690 1.399 . S
C1695 C1694 1.394 . S
C1695 C1696 1.516 . S
C1696 C1695 1.516 . S
C1696 C1697 1.502 . S
C1696 C1698 1.561 . S
C1696 C1699 1.526 . S
C1697 H1681 0.959 . S
C1697 H1682 0.959 . S
C1697 H1683 0.961 . S
C1697 C1696 1.502 . S
C1698 H1684 0.960 . S
C1698 H1685 0.961 . S
C1698 H1686 0.959 . S
C1698 C1696 1.561 . S
C1699 C1696 1.526 . S
C1699 C1700 1.396 . S
C1699 C1704 1.390 . S
C1700 C1694 1.465 . S
C1700 C1699 1.396 . S
C1700 C1701 1.399 . S
C1701 H1687 0.929 . S
C1701 C1700 1.399 . S
C1701 C1702 1.385 . S
C1702 H1688 0.931 . S
C1702 C1701 1.385 . S
C1702 C1703 1.389 . S
C1703 C1702 1.389 . S
C1703 C1704 1.387 . S
C1704 H1689 0.930 . S
C1704 C1699 1.390 . S
C1704 C1703 1.387 . S
H1705 C1717 0.930 . S
H1706 C1719 0.930 . S
H1707 C1720 0.930 . S
H1708 C1724 0.959 . S
H1709 C1724 0.959 . S
H1710 C1724 0.961 . S
H1711 C1725 0.960 . S
H1712 C1725 0.961 . S
H1713 C1725 0.959 . S
H1714 C1728 0.929 . S
H1715 C1729 0.931 . S
H1716 C1731 0.930 . S
C1717 H1705 0.930 . S
C1717 C1718 1.399 . S
C1717 C1722 1.399 . S
C1718 C1717 1.399 . S
C1718 C1719 1.376 . S
C1719 H1706 0.930 . S
C1719 C1718 1.376 . S
C1719 C1720 1.388 . S
C1720 H1707 0.930 . S
C1720 C1719 1.388 . S
C1720 C1721 1.390 . S
C1721 C1720 1.390 . S
C1721 C1722 1.394 . S
C1721 C1727 1.465 . S
C1722 C1717 1.399 . S
C1722 C1721 1.394 . S
C1722 C1723 1.516 . S
C1723 C1722 1.516 . S
C1723 C1724 1.502 . S
C1723 C1725 1.561 . S
C1723 C1726 1.526 . S
C1724 H1708 0.959 . S
C1724 H1709 0.959 . S
C1724 H1710 0.961 . S
C1724 C1723 1.502 . S
C1725 H1711 0.960 . S
C1725 H1712 0.961 . S
C1725 H1713 0.959 . S
C1725 C1723 1.561 . S
C1726 C1723 1.526 . S
C1726 C1727 1.396 . S
C1726 C1731 1.390 . S
C1727 C1721 1.465 . S
C1727 C1726 1.396 . S
C1727 C1728 1.399 . S
C1728 H1714 0.929 . S
C1728 C1727 1.399 . S
C1728 C1729 1.385 . S
C1729 H1715 0.931 . S
C1729 C1728 1.385 . S
C1729 C1730 1.389 . S
C1730 C1729 1.389 . S
C1730 C1731 1.387 . S
C1731 H1716 0.930 . S
C1731 C1726 1.390 . S
C1731 C1730 1.387 . S
H1732 C1744 0.930 . S
H1733 C1746 0.930 . S
H1734 C1747 0.930 . S
H1735 C1751 0.959 . S
H1736 C1751 0.959 . S
H1737 C1751 0.962 . S
H1738 C1752 0.960 . S
H1739 C1752 0.961 . S
H1740 C1752 0.959 . S
H1741 C1755 0.929 . S
H1742 C1756 0.931 . S
H1743 C1758 0.930 . S
C1744 H1732 0.930 . S
C1744 C1745 1.399 . S
C1744 C1749 1.399 . S
C1745 C1744 1.399 . S
C1745 C1746 1.376 . S
C1746 H1733 0.930 . S
C1746 C1745 1.376 . S
C1746 C1747 1.388 . S
C1747 H1734 0.930 . S
C1747 C1746 1.388 . S
C1747 C1748 1.390 . S
C1748 C1747 1.390 . S
C1748 C1749 1.394 . S
C1748 C1754 1.465 . S
C1749 C1744 1.399 . S
C1749 C1748 1.394 . S
C1749 C1750 1.516 . S
C1750 C1749 1.516 . S
C1750 C1751 1.502 1_455 S
C1750 C1752 1.561 . S
C1750 C1753 1.526 . S
C1751 H1735 0.959 . S
C1751 H1736 0.959 . S
C1751 H1737 0.962 . S
C1751 C1750 1.502 1_655 S
C1752 H1738 0.960 . S
C1752 H1739 0.961 . S
C1752 H1740 0.959 . S
C1752 C1750 1.561 . S
C1753 C1750 1.526 . S
C1753 C1754 1.396 . S
C1753 C1758 1.390 . S
C1754 C1748 1.465 . S
C1754 C1753 1.396 . S
C1754 C1755 1.399 . S
C1755 H1741 0.929 . S
C1755 C1754 1.399 . S
C1755 C1756 1.385 . S
C1756 H1742 0.931 . S
C1756 C1755 1.385 . S
C1756 C1757 1.389 . S
C1757 C1756 1.389 . S
C1757 C1758 1.387 . S
C1758 H1743 0.930 . S
C1758 C1753 1.390 . S
C1758 C1757 1.387 . S
H1759 C1771 0.930 . S
H1760 C1773 0.930 . S
H1761 C1774 0.930 . S
H1762 C1778 0.959 . S
H1763 C1778 0.959 . S
H1764 C1778 0.961 . S
H1765 C1779 0.960 . S
H1766 C1779 0.961 . S
H1767 C1779 0.959 . S
H1768 C1782 0.929 . S
H1769 C1783 0.931 . S
H1770 C1785 0.930 . S
C1771 H1759 0.930 . S
C1771 C1772 1.399 . S
C1771 C1776 1.399 . S
C1772 C1771 1.399 . S
C1772 C1773 1.376 . S
C1773 H1760 0.930 . S
C1773 C1772 1.376 . S
C1773 C1774 1.388 . S
C1774 H1761 0.930 . S
C1774 C1773 1.388 . S
C1774 C1775 1.390 . S
C1775 C1774 1.390 . S
C1775 C1776 1.394 . S
C1775 C1781 1.465 . S
C1776 C1771 1.399 . S
C1776 C1775 1.394 . S
C1776 C1777 1.516 . S
C1777 C1776 1.516 . S
C1777 C1778 1.502 . S
C1777 C1779 1.561 . S
C1777 C1780 1.526 . S
C1778 H1762 0.959 . S
C1778 H1763 0.959 . S
C1778 H1764 0.961 . S
C1778 C1777 1.502 . S
C1779 H1765 0.960 . S
C1779 H1766 0.961 . S
C1779 H1767 0.959 . S
C1779 C1777 1.561 . S
C1780 C1777 1.526 . S
C1780 C1781 1.396 . S
C1780 C1785 1.390 . S
C1781 C1775 1.465 . S
C1781 C1780 1.396 . S
C1781 C1782 1.399 . S
C1782 H1768 0.929 . S
C1782 C1781 1.399 . S
C1782 C1783 1.385 . S
C1783 H1769 0.931 . S
C1783 C1782 1.385 . S
C1783 C1784 1.389 . S
C1784 C1783 1.389 . S
C1784 C1785 1.387 . S
C1785 H1770 0.930 . S
C1785 C1780 1.390 . S
C1785 C1784 1.387 . S
H1786 C1798 0.930 . S
H1787 C1800 0.930 . S
H1788 C1801 0.930 . S
H1789 C1805 0.959 1_554 S
H1790 C1805 0.959 . S
H1791 C1805 0.961 . S
H1792 C1806 0.960 . S
H1793 C1806 0.961 . S
H1794 C1806 0.959 . S
H1795 C1809 0.929 . S
H1796 C1810 0.931 . S
H1797 C1812 0.930 . S
C1798 H1786 0.930 . S
C1798 C1799 1.399 . S
C1798 C1803 1.399 . S
C1799 C1798 1.399 . S
C1799 C1800 1.376 . S
C1800 H1787 0.930 . S
C1800 C1799 1.376 . S
C1800 C1801 1.388 1_556 S
C1801 H1788 0.930 . S
C1801 C1800 1.388 1_554 S
C1801 C1802 1.395 . S
C1802 C1801 1.395 . S
C1802 C1803 1.379 1_554 S
C1802 C1808 1.473 . S
C1803 C1798 1.399 . S
C1803 C1802 1.379 1_556 S
C1803 C1804 1.516 . S
C1804 C1803 1.516 . S
C1804 C1805 1.502 . S
C1804 C1806 1.561 . S
C1804 C1807 1.526 1_556 S
C1805 H1789 0.959 1_556 S
C1805 H1790 0.959 . S
C1805 H1791 0.961 . S
C1805 C1804 1.502 . S
C1806 H1792 0.960 . S
C1806 H1793 0.961 . S
C1806 H1794 0.959 . S
C1806 C1804 1.561 . S
C1807 C1804 1.526 1_554 S
C1807 C1808 1.396 . S
C1807 C1812 1.390 . S
C1808 C1802 1.473 . S
C1808 C1807 1.396 . S
C1808 C1809 1.399 . S
C1809 H1795 0.929 . S
C1809 C1808 1.399 . S
C1809 C1810 1.385 . S
C1810 H1796 0.931 . S
C1810 C1809 1.385 . S
C1810 C1811 1.389 . S
C1811 C1810 1.389 . S
C1811 C1812 1.387 . S
C1812 H1797 0.930 . S
C1812 C1807 1.390 . S
C1812 C1811 1.387 . S
H1813 C1825 0.930 . S
H1814 C1827 0.930 . S
H1815 C1828 0.930 . S
H1816 C1832 0.959 . S
H1817 C1832 0.959 . S
H1818 C1832 0.961 . S
H1819 C1833 0.960 . S
H1820 C1833 0.961 . S
H1821 C1833 0.959 . S
H1822 C1836 0.929 . S
H1823 C1837 0.931 . S
H1824 C1839 0.930 . S
C1825 H1813 0.930 . S
C1825 C1826 1.399 . S
C1825 C1830 1.399 . S
C1826 C1825 1.399 . S
C1826 C1827 1.376 . S
C1827 H1814 0.930 . S
C1827 C1826 1.376 . S
C1827 C1828 1.388 . S
C1828 H1815 0.930 . S
C1828 C1827 1.388 . S
C1828 C1829 1.390 . S
C1829 C1828 1.390 . S
C1829 C1830 1.394 . S
C1829 C1835 1.465 . S
C1830 C1825 1.399 . S
C1830 C1829 1.394 . S
C1830 C1831 1.516 . S
C1831 C1830 1.516 . S
C1831 C1832 1.502 . S
C1831 C1833 1.561 . S
C1831 C1834 1.526 . S
C1832 H1816 0.959 . S
C1832 H1817 0.959 . S
C1832 H1818 0.961 . S
C1832 C1831 1.502 . S
C1833 H1819 0.960 . S
C1833 H1820 0.961 . S
C1833 H1821 0.959 . S
C1833 C1831 1.561 . S
C1834 C1831 1.526 . S
C1834 C1835 1.396 . S
C1834 C1839 1.390 . S
C1835 C1829 1.465 . S
C1835 C1834 1.396 . S
C1835 C1836 1.399 . S
C1836 H1822 0.929 . S
C1836 C1835 1.399 . S
C1836 C1837 1.385 . S
C1837 H1823 0.931 . S
C1837 C1836 1.385 . S
C1837 C1838 1.389 . S
C1838 C1837 1.389 . S
C1838 C1839 1.387 . S
C1839 H1824 0.930 . S
C1839 C1834 1.390 . S
C1839 C1838 1.387 . S
H1840 C1852 0.930 . S
H1841 C1854 0.930 . S
H1842 C1855 0.930 . S
H1843 C1859 0.959 . S
H1844 C1859 0.959 . S
H1845 C1859 0.961 . S
H1846 C1860 0.960 . S
H1847 C1860 0.961 . S
H1848 C1860 0.959 . S
H1849 C1863 0.929 . S
H1850 C1864 0.931 . S
H1851 C1866 0.930 . S
C1852 H1840 0.930 . S
C1852 C1853 1.399 . S
C1852 C1857 1.399 . S
C1853 C1852 1.399 . S
C1853 C1854 1.376 1_545 S
C1854 H1841 0.930 . S
C1854 C1853 1.376 1_565 S
C1854 C1855 1.388 . S
C1855 H1842 0.930 . S
C1855 C1854 1.388 . S
C1855 C1856 1.390 . S
C1856 C1855 1.390 . S
C1856 C1857 1.394 1_565 S
C1856 C1862 1.465 . S
C1857 C1852 1.399 . S
C1857 C1856 1.394 1_545 S
C1857 C1858 1.516 . S
C1858 C1857 1.516 . S
C1858 C1859 1.502 . S
C1858 C1860 1.561 . S
C1858 C1861 1.526 . S
C1859 H1843 0.959 . S
C1859 H1844 0.959 . S
C1859 H1845 0.961 . S
C1859 C1858 1.502 . S
C1860 H1846 0.960 . S
C1860 H1847 0.961 . S
C1860 H1848 0.959 . S
C1860 C1858 1.561 . S
C1861 C1858 1.526 . S
C1861 C1862 1.396 1_545 S
C1861 C1866 1.390 . S
C1862 C1856 1.465 . S
C1862 C1861 1.396 1_565 S
C1862 C1863 1.399 . S
C1863 H1849 0.929 . S
C1863 C1862 1.399 . S
C1863 C1864 1.385 . S
C1864 H1850 0.931 . S
C1864 C1863 1.385 . S
C1864 C1865 1.389 1_565 S
C1865 C1864 1.389 1_545 S
C1865 C1866 1.387 . S
C1866 H1851 0.930 . S
C1866 C1861 1.390 . S
C1866 C1865 1.387 . S
H1867 C1879 0.930 . S
H1868 C1881 0.930 . S
H1869 C1882 0.930 . S
H1870 C1886 0.959 . S
H1871 C1886 0.959 . S
H1872 C1886 0.961 . S
H1873 C1887 0.960 . S
H1874 C1887 0.961 . S
H1875 C1887 0.959 . S
H1876 C1890 0.929 . S
H1877 C1891 0.931 . S
H1878 C1893 0.930 . S
C1879 H1867 0.930 . S
C1879 C1880 1.399 . S
C1879 C1884 1.399 . S
C1880 C1879 1.399 . S
C1880 C1881 1.376 . S
C1881 H1868 0.930 . S
C1881 C1880 1.376 . S
C1881 C1882 1.388 . S
C1882 H1869 0.930 . S
C1882 C1881 1.388 . S
C1882 C1883 1.390 . S
C1883 C1882 1.390 . S
C1883 C1884 1.394 . S
C1883 C1889 1.465 . S
C1884 C1879 1.399 . S
C1884 C1883 1.394 . S
C1884 C1885 1.516 . S
C1885 C1884 1.516 . S
C1885 C1886 1.502 . S
C1885 C1887 1.561 . S
C1885 C1888 1.526 . S
C1886 H1870 0.959 . S
C1886 H1871 0.959 . S
C1886 H1872 0.961 . S
C1886 C1885 1.502 . S
C1887 H1873 0.960 . S
C1887 H1874 0.961 . S
C1887 H1875 0.959 . S
C1887 C1885 1.561 . S
C1888 C1885 1.526 . S
C1888 C1889 1.396 . S
C1888 C1893 1.390 . S
C1889 C1883 1.465 . S
C1889 C1888 1.396 . S
C1889 C1890 1.399 . S
C1890 H1876 0.929 . S
C1890 C1889 1.399 . S
C1890 C1891 1.385 . S
C1891 H1877 0.931 . S
C1891 C1890 1.385 . S
C1891 C1892 1.389 . S
C1892 C1891 1.389 . S
C1892 C1893 1.387 . S
C1893 H1878 0.930 . S
C1893 C1888 1.390 . S
C1893 C1892 1.387 . S
H1894 C1906 0.930 1_565 S
H1895 C1908 0.930 . S
H1896 C1909 0.930 . S
H1897 C1913 0.959 . S
H1898 C1913 0.959 . S
H1899 C1913 0.961 . S
H1900 C1914 0.960 . S
H1901 C1914 0.961 . S
H1902 C1914 0.959 . S
H1903 C1917 0.929 . S
H1904 C1918 0.931 . S
H1905 C1920 0.930 1_565 S
C1906 H1894 0.930 1_545 S
C1906 C1907 1.399 . S
C1906 C1911 1.399 . S
C1907 C1906 1.399 . S
C1907 C1908 1.376 . S
C1908 H1895 0.930 . S
C1908 C1907 1.376 . S
C1908 C1909 1.388 . S
C1909 H1896 0.930 . S
C1909 C1908 1.388 . S
C1909 C1910 1.390 . S
C1910 C1909 1.390 . S
C1910 C1911 1.394 . S
C1910 C1916 1.465 . S
C1911 C1906 1.399 . S
C1911 C1910 1.394 . S
C1911 C1912 1.516 1_545 S
C1912 C1911 1.516 1_565 S
C1912 C1913 1.502 . S
C1912 C1914 1.561 . S
C1912 C1915 1.526 1_565 S
C1913 H1897 0.959 . S
C1913 H1898 0.959 . S
C1913 H1899 0.961 . S
C1913 C1912 1.502 . S
C1914 H1900 0.960 . S
C1914 H1901 0.961 . S
C1914 H1902 0.959 . S
C1914 C1912 1.561 . S
C1915 C1912 1.526 1_545 S
C1915 C1916 1.396 . S
C1915 C1920 1.390 . S
C1916 C1910 1.465 . S
C1916 C1915 1.396 . S
C1916 C1917 1.399 . S
C1917 H1903 0.929 . S
C1917 C1916 1.399 . S
C1917 C1918 1.385 . S
C1918 H1904 0.931 . S
C1918 C1917 1.385 . S
C1918 C1919 1.389 . S
C1919 C1918 1.389 . S
C1919 C1920 1.387 . S
C1920 H1905 0.930 1_545 S
C1920 C1915 1.390 . S
C1920 C1919 1.387 . S
H1921 C1933 0.930 . S
H1922 C1935 0.930 . S
H1923 C1936 0.930 . S
H1924 C1940 0.959 . S
H1925 C1940 0.959 . S
H1926 C1940 0.961 . S
H1927 C1941 0.960 . S
H1928 C1941 0.961 . S
H1929 C1941 0.959 . S
H1930 C1944 0.929 . S
H1931 C1945 0.931 . S
H1932 C1947 0.930 . S
C1933 H1921 0.930 . S
C1933 C1934 1.399 . S
C1933 C1938 1.399 . S
C1934 C1933 1.399 . S
C1934 C1935 1.376 . S
C1935 H1922 0.930 . S
C1935 C1934 1.376 . S
C1935 C1936 1.388 . S
C1936 H1923 0.930 . S
C1936 C1935 1.388 . S
C1936 C1937 1.390 . S
C1937 C1936 1.390 . S
C1937 C1938 1.394 . S
C1937 C1943 1.465 . S
C1938 C1933 1.399 . S
C1938 C1937 1.394 . S
C1938 C1939 1.516 . S
C1939 C1938 1.516 . S
C1939 C1940 1.502 . S
C1939 C1941 1.561 . S
C1939 C1942 1.526 . S
C1940 H1924 0.959 . S
C1940 H1925 0.959 . S
C1940 H1926 0.961 . S
C1940 C1939 1.502 . S
C1941 H1927 0.960 . S
C1941 H1928 0.961 . S
C1941 H1929 0.959 . S
C1941 C1939 1.561 . S
C1942 C1939 1.526 . S
C1942 C1943 1.396 . S
C1942 C1947 1.390 . S
C1943 C1937 1.465 . S
C1943 C1942 1.396 . S
C1943 C1944 1.399 . S
C1944 H1930 0.929 . S
C1944 C1943 1.399 . S
C1944 C1945 1.385 . S
C1945 H1931 0.931 . S
C1945 C1944 1.385 . S
C1945 C1946 1.389 . S
C1946 C1945 1.389 . S
C1946 C1947 1.387 . S
C1947 H1932 0.930 . S
C1947 C1942 1.390 . S
C1947 C1946 1.387 . S
H1948 C1960 0.930 . S
H1949 C1962 0.930 . S
H1950 C1963 0.930 . S
H1951 C1967 0.959 . S
H1952 C1967 0.959 . S
H1953 C1967 0.961 . S
H1954 C1968 0.960 . S
H1955 C1968 0.961 . S
H1956 C1968 0.959 . S
H1957 C1971 0.929 . S
H1958 C1972 0.931 . S
H1959 C1974 0.930 . S
C1960 H1948 0.930 . S
C1960 C1961 1.399 . S
C1960 C1965 1.399 . S
C1961 C1960 1.399 . S
C1961 C1962 1.376 1_565 S
C1962 H1949 0.930 . S
C1962 C1961 1.376 1_545 S
C1962 C1963 1.388 . S
C1963 H1950 0.930 . S
C1963 C1962 1.388 . S
C1963 C1964 1.390 . S
C1964 C1963 1.390 . S
C1964 C1965 1.394 1_545 S
C1964 C1970 1.465 . S
C1965 C1960 1.399 . S
C1965 C1964 1.394 1_565 S
C1965 C1966 1.516 . S
C1966 C1965 1.516 . S
C1966 C1967 1.502 . S
C1966 C1968 1.561 . S
C1966 C1969 1.526 . S
C1967 H1951 0.959 . S
C1967 H1952 0.959 . S
C1967 H1953 0.961 . S
C1967 C1966 1.502 . S
C1968 H1954 0.960 . S
C1968 H1955 0.961 . S
C1968 H1956 0.959 . S
C1968 C1966 1.561 . S
C1969 C1966 1.526 . S
C1969 C1970 1.396 1_565 S
C1969 C1974 1.390 . S
C1970 C1964 1.465 . S
C1970 C1969 1.396 1_545 S
C1970 C1971 1.399 . S
C1971 H1957 0.929 . S
C1971 C1970 1.399 . S
C1971 C1972 1.385 . S
C1972 H1958 0.931 . S
C1972 C1971 1.385 . S
C1972 C1973 1.389 . S
C1973 C1972 1.389 . S
C1973 C1974 1.387 1_545 S
C1974 H1959 0.930 . S
C1974 C1969 1.390 . S
C1974 C1973 1.387 1_565 S
H1975 C1987 0.930 . S
H1976 C1989 0.930 . S
H1977 C1990 0.930 . S
H1978 C1994 0.959 . S
H1979 C1994 0.959 . S
H1980 C1994 0.961 . S
H1981 C1995 0.960 . S
H1982 C1995 0.961 . S
H1983 C1995 0.959 . S
H1984 C1998 0.929 . S
H1985 C1999 0.931 . S
H1986 C2001 0.930 . S
C1987 H1975 0.930 . S
C1987 C1988 1.399 . S
C1987 C1992 1.399 . S
C1988 C1987 1.399 . S
C1988 C1989 1.376 . S
C1989 H1976 0.930 . S
C1989 C1988 1.376 . S
C1989 C1990 1.388 . S
C1990 H1977 0.930 . S
C1990 C1989 1.388 . S
C1990 C1991 1.390 . S
C1991 C1990 1.390 . S
C1991 C1992 1.394 . S
C1991 C1997 1.465 . S
C1992 C1987 1.399 . S
C1992 C1991 1.394 . S
C1992 C1993 1.516 . S
C1993 C1992 1.516 . S
C1993 C1994 1.502 . S
C1993 C1995 1.561 . S
C1993 C1996 1.526 . S
C1994 H1978 0.959 . S
C1994 H1979 0.959 . S
C1994 H1980 0.961 . S
C1994 C1993 1.502 . S
C1995 H1981 0.960 . S
C1995 H1982 0.961 . S
C1995 H1983 0.959 . S
C1995 C1993 1.561 . S
C1996 C1993 1.526 . S
C1996 C1997 1.396 . S
C1996 C2001 1.390 . S
C1997 C1991 1.465 . S
C1997 C1996 1.396 . S
C1997 C1998 1.399 . S
C1998 H1984 0.929 . S
C1998 C1997 1.399 . S
C1998 C1999 1.385 . S
C1999 H1985 0.931 . S
C1999 C1998 1.385 . S
C1999 C2000 1.389 . S
C2000 C1999 1.389 . S
C2000 C2001 1.387 . S
C2001 H1986 0.930 . S
C2001 C1996 1.390 . S
C2001 C2000 1.387 . S
H2002 C2014 0.930 . S
H2003 C2016 0.909 1_565 S
H2004 C2017 0.917 1_565 S
H2005 C2021 0.959 . S
H2006 C2021 0.959 . S
H2007 C2021 0.961 . S
H2008 C2022 0.960 . S
H2009 C2022 0.961 . S
H2010 C2022 0.959 . S
H2011 C2025 0.929 . S
H2012 C2026 0.931 . S
H2013 C2028 0.930 . S
C2014 H2002 0.930 . S
C2014 C2015 1.399 . S
C2014 C2019 1.399 . S
C2015 C2014 1.399 . S
C2015 C2016 1.376 . S
C2016 H2003 0.909 1_545 S
C2016 C2015 1.376 . S
C2016 C2017 1.392 . S
C2017 H2004 0.917 1_545 S
C2017 C2016 1.392 . S
C2017 C2018 1.400 . S
C2018 C2017 1.400 . S
C2018 C2019 1.394 . S
C2018 C2024 1.465 . S
C2019 C2014 1.399 . S
C2019 C2018 1.394 . S
C2019 C2020 1.516 . S
C2020 C2019 1.516 . S
C2020 C2021 1.502 . S
C2020 C2022 1.561 . S
C2020 C2023 1.526 . S
C2021 H2005 0.959 . S
C2021 H2006 0.959 . S
C2021 H2007 0.961 . S
C2021 C2020 1.502 . S
C2022 H2008 0.960 . S
C2022 H2009 0.961 . S
C2022 H2010 0.959 . S
C2022 C2020 1.561 . S
C2023 C2020 1.526 . S
C2023 C2024 1.396 . S
C2023 C2028 1.390 . S
C2024 C2018 1.465 . S
C2024 C2023 1.396 . S
C2024 C2025 1.399 1_545 S
C2025 H2011 0.929 . S
C2025 C2024 1.399 1_565 S
C2025 C2026 1.385 . S
C2026 H2012 0.931 . S
C2026 C2025 1.385 . S
C2026 C2027 1.389 1_565 S
C2027 C2026 1.389 1_545 S
C2027 C2028 1.387 . S
C2028 H2013 0.930 . S
C2028 C2023 1.390 . S
C2028 C2027 1.387 . S
H2029 C2041 0.930 . S
H2030 C2043 0.930 . S
H2031 C2044 0.930 . S
H2032 C2048 0.959 . S
H2033 C2048 0.959 . S
H2034 C2048 0.961 . S
H2035 C2049 0.960 . S
H2036 C2049 0.961 . S
H2037 C2049 0.959 . S
H2038 C2052 0.929 . S
H2039 C2053 0.931 . S
H2040 C2055 0.930 . S
C2041 H2029 0.930 . S
C2041 C2042 1.399 . S
C2041 C2046 1.399 . S
C2042 C2041 1.399 . S
C2042 C2043 1.376 . S
C2043 H2030 0.930 . S
C2043 C2042 1.376 . S
C2043 C2044 1.388 . S
C2044 H2031 0.930 . S
C2044 C2043 1.388 . S
C2044 C2045 1.390 . S
C2045 C2044 1.390 . S
C2045 C2046 1.394 . S
C2045 C2051 1.465 . S
C2046 C2041 1.399 . S
C2046 C2045 1.394 . S
C2046 C2047 1.516 . S
C2047 C2046 1.516 . S
C2047 C2048 1.502 . S
C2047 C2049 1.561 . S
C2047 C2050 1.526 . S
C2048 H2032 0.959 . S
C2048 H2033 0.959 . S
C2048 H2034 0.961 . S
C2048 C2047 1.502 . S
C2049 H2035 0.960 . S
C2049 H2036 0.961 . S
C2049 H2037 0.959 . S
C2049 C2047 1.561 . S
C2050 C2047 1.526 . S
C2050 C2051 1.396 . S
C2050 C2055 1.390 . S
C2051 C2045 1.465 . S
C2051 C2050 1.396 . S
C2051 C2052 1.399 . S
C2052 H2038 0.929 . S
C2052 C2051 1.399 . S
C2052 C2053 1.385 . S
C2053 H2039 0.931 . S
C2053 C2052 1.385 . S
C2053 C2054 1.389 . S
C2054 C2053 1.389 . S
C2054 C2055 1.387 . S
C2055 H2040 0.930 . S
C2055 C2050 1.390 . S
C2055 C2054 1.387 . S
H2056 C2068 0.930 . S
H2057 C2070 0.930 . S
H2058 C2071 0.930 . S
H2059 C2075 0.959 . S
H2060 C2075 0.959 . S
H2061 C2075 0.961 . S
H2062 C2076 0.960 . S
H2063 C2076 0.961 . S
H2064 C2076 0.959 . S
H2065 C2079 0.929 1_556 S
H2066 C2080 0.931 . S
H2067 C2082 0.930 . S
C2068 H2056 0.930 . S
C2068 C2069 1.399 . S
C2068 C2073 1.399 . S
C2069 C2068 1.399 . S
C2069 C2070 1.376 . S
C2070 H2057 0.930 . S
C2070 C2069 1.376 . S
C2070 C2071 1.388 . S
C2071 H2058 0.930 . S
C2071 C2070 1.388 . S
C2071 C2072 1.390 . S
C2072 C2071 1.390 . S
C2072 C2073 1.394 . S
C2072 C2078 1.465 . S
C2073 C2068 1.399 . S
C2073 C2072 1.394 . S
C2073 C2074 1.516 . S
C2074 C2073 1.516 . S
C2074 C2075 1.502 . S
C2074 C2076 1.561 . S
C2074 C2077 1.526 . S
C2075 H2059 0.959 . S
C2075 H2060 0.959 . S
C2075 H2061 0.961 . S
C2075 C2074 1.502 . S
C2076 H2062 0.960 . S
C2076 H2063 0.961 . S
C2076 H2064 0.959 . S
C2076 C2074 1.561 . S
C2077 C2074 1.526 . S
C2077 C2078 1.396 . S
C2077 C2082 1.390 . S
C2078 C2072 1.465 . S
C2078 C2077 1.396 . S
C2078 C2079 1.399 . S
C2079 H2065 0.929 1_554 S
C2079 C2078 1.399 . S
C2079 C2080 1.385 1_554 S
C2080 H2066 0.931 . S
C2080 C2079 1.385 1_556 S
C2080 C2081 1.389 1_556 S
C2081 C2080 1.389 1_554 S
C2081 C2082 1.387 . S
C2082 H2067 0.930 . S
C2082 C2077 1.390 . S
C2082 C2081 1.387 . S
H2083 C2095 0.930 . S
H2084 C2097 0.930 . S
H2085 C2098 0.930 . S
H2086 C2102 0.959 . S
H2087 C2102 0.959 . S
H2088 C2102 0.961 . S
H2089 C2103 0.960 . S
H2090 C2103 0.961 . S
H2091 C2103 0.959 . S
H2092 C2106 0.929 . S
H2093 C2107 0.931 . S
H2094 C2109 0.930 . S
C2095 H2083 0.930 . S
C2095 C2096 1.399 . S
C2095 C2100 1.399 . S
C2096 C2095 1.399 . S
C2096 C2097 1.376 . S
C2097 H2084 0.930 . S
C2097 C2096 1.376 . S
C2097 C2098 1.388 . S
C2098 H2085 0.930 . S
C2098 C2097 1.388 . S
C2098 C2099 1.390 . S
C2099 C2098 1.390 . S
C2099 C2100 1.394 . S
C2099 C2105 1.465 . S
C2100 C2095 1.399 . S
C2100 C2099 1.394 . S
C2100 C2101 1.516 . S
C2101 C2100 1.516 . S
C2101 C2102 1.502 . S
C2101 C2103 1.561 . S
C2101 C2104 1.526 . S
C2102 H2086 0.959 . S
C2102 H2087 0.959 . S
C2102 H2088 0.961 . S
C2102 C2101 1.502 . S
C2103 H2089 0.960 . S
C2103 H2090 0.961 . S
C2103 H2091 0.959 . S
C2103 C2101 1.561 . S
C2104 C2101 1.526 . S
C2104 C2105 1.396 . S
C2104 C2109 1.390 . S
C2105 C2099 1.465 . S
C2105 C2104 1.396 . S
C2105 C2106 1.399 . S
C2106 H2092 0.929 . S
C2106 C2105 1.399 . S
C2106 C2107 1.385 . S
C2107 H2093 0.931 . S
C2107 C2106 1.385 . S
C2107 C2108 1.389 . S
C2108 C2107 1.389 . S
C2108 C2109 1.387 . S
C2109 H2094 0.930 . S
C2109 C2104 1.390 . S
C2109 C2108 1.387 . S
H2110 C2122 0.930 . S
H2111 C2124 0.930 . S
H2112 C2125 0.930 . S
H2113 C2129 0.959 . S
H2114 C2129 0.959 . S
H2115 C2129 0.961 . S
H2116 C2130 0.960 . S
H2117 C2130 0.961 . S
H2118 C2130 0.959 . S
H2119 C2133 0.929 . S
H2120 C2134 0.931 . S
H2121 C2136 0.930 . S
C2122 H2110 0.930 . S
C2122 C2123 1.399 . S
C2122 C2127 1.399 . S
C2123 C2122 1.399 . S
C2123 C2124 1.376 . S
C2124 H2111 0.930 . S
C2124 C2123 1.376 . S
C2124 C2125 1.388 . S
C2125 H2112 0.930 . S
C2125 C2124 1.388 . S
C2125 C2126 1.390 . S
C2126 C2125 1.390 . S
C2126 C2127 1.394 . S
C2126 C2132 1.465 . S
C2127 C2122 1.399 . S
C2127 C2126 1.394 . S
C2127 C2128 1.516 . S
C2128 C2127 1.516 . S
C2128 C2129 1.502 . S
C2128 C2130 1.561 . S
C2128 C2131 1.526 . S
C2129 H2113 0.959 . S
C2129 H2114 0.959 . S
C2129 H2115 0.961 . S
C2129 C2128 1.502 . S
C2130 H2116 0.960 . S
C2130 H2117 0.961 . S
C2130 H2118 0.959 . S
C2130 C2128 1.561 . S
C2131 C2128 1.526 . S
C2131 C2132 1.396 . S
C2131 C2136 1.390 . S
C2132 C2126 1.465 . S
C2132 C2131 1.396 . S
C2132 C2133 1.399 . S
C2133 H2119 0.929 . S
C2133 C2132 1.399 . S
C2133 C2134 1.385 . S
C2134 H2120 0.931 . S
C2134 C2133 1.385 . S
C2134 C2135 1.389 . S
C2135 C2134 1.389 . S
C2135 C2136 1.387 . S
C2136 H2121 0.930 . S
C2136 C2131 1.390 . S
C2136 C2135 1.387 . S
H2137 C2149 0.930 . S
H2138 C2151 0.930 . S
H2139 C2152 0.930 . S
H2140 C2156 0.959 . S
H2141 C2156 0.959 . S
H2142 C2156 0.961 . S
H2143 C2157 0.960 . S
H2144 C2157 0.961 . S
H2145 C2157 0.959 . S
H2146 C2160 0.929 . S
H2147 C2161 0.931 . S
H2148 C2163 0.930 . S
C2149 H2137 0.930 . S
C2149 C2150 1.399 . S
C2149 C2154 1.399 . S
C2150 C2149 1.399 . S
C2150 C2151 1.376 . S
C2151 H2138 0.930 . S
C2151 C2150 1.376 . S
C2151 C2152 1.388 . S
C2152 H2139 0.930 . S
C2152 C2151 1.388 . S
C2152 C2153 1.390 . S
C2153 C2152 1.390 . S
C2153 C2154 1.394 . S
C2153 C2159 1.465 . S
C2154 C2149 1.399 . S
C2154 C2153 1.394 . S
C2154 C2155 1.516 . S
C2155 C2154 1.516 . S
C2155 C2156 1.502 . S
C2155 C2157 1.561 . S
C2155 C2158 1.526 . S
C2156 H2140 0.959 . S
C2156 H2141 0.959 . S
C2156 H2142 0.961 . S
C2156 C2155 1.502 . S
C2157 H2143 0.960 . S
C2157 H2144 0.961 . S
C2157 H2145 0.959 . S
C2157 C2155 1.561 . S
C2158 C2155 1.526 . S
C2158 C2159 1.396 . S
C2158 C2163 1.390 . S
C2159 C2153 1.465 . S
C2159 C2158 1.396 . S
C2159 C2160 1.399 . S
C2160 H2146 0.929 . S
C2160 C2159 1.399 . S
C2160 C2161 1.385 . S
C2161 H2147 0.931 . S
C2161 C2160 1.385 . S
C2161 C2162 1.389 . S
C2162 C2161 1.389 . S
C2162 C2163 1.387 . S
C2163 H2148 0.930 . S
C2163 C2158 1.390 . S
C2163 C2162 1.387 . S
H2164 C2176 0.930 . S
H2165 C2178 0.930 . S
H2166 C2179 0.930 . S
H2167 C2183 0.959 . S
H2168 C2183 0.959 . S
H2169 C2183 0.961 . S
H2170 C2184 0.960 . S
H2171 C2184 0.961 . S
H2172 C2184 0.959 . S
H2173 C2187 0.929 . S
H2174 C2188 0.931 . S
H2175 C2190 0.930 . S
C2176 H2164 0.930 . S
C2176 C2177 1.399 . S
C2176 C2181 1.399 . S
C2177 C2176 1.399 . S
C2177 C2178 1.376 . S
C2178 H2165 0.930 . S
C2178 C2177 1.376 . S
C2178 C2179 1.388 . S
C2179 H2166 0.930 . S
C2179 C2178 1.388 . S
C2179 C2180 1.390 . S
C2180 C2179 1.390 . S
C2180 C2181 1.394 . S
C2180 C2186 1.465 . S
C2181 C2176 1.399 . S
C2181 C2180 1.394 . S
C2181 C2182 1.516 . S
C2182 C2181 1.516 . S
C2182 C2183 1.502 . S
C2182 C2184 1.561 . S
C2182 C2185 1.526 . S
C2183 H2167 0.959 . S
C2183 H2168 0.959 . S
C2183 H2169 0.961 . S
C2183 C2182 1.502 . S
C2184 H2170 0.960 . S
C2184 H2171 0.961 . S
C2184 H2172 0.959 . S
C2184 C2182 1.561 . S
C2185 C2182 1.526 . S
C2185 C2186 1.396 . S
C2185 C2190 1.390 . S
C2186 C2180 1.465 . S
C2186 C2185 1.396 . S
C2186 C2187 1.399 . S
C2187 H2173 0.929 . S
C2187 C2186 1.399 . S
C2187 C2188 1.385 . S
C2188 H2174 0.931 . S
C2188 C2187 1.385 . S
C2188 C2189 1.389 . S
C2189 C2188 1.389 . S
C2189 C2190 1.387 . S
C2190 H2175 0.930 . S
C2190 C2185 1.390 . S
C2190 C2189 1.387 . S
H2191 C2203 0.930 . S
H2192 C2205 0.930 . S
H2193 C2206 0.930 . S
H2194 C2210 0.959 . S
H2195 C2210 0.959 . S
H2196 C2210 0.961 . S
H2197 C2211 0.960 . S
H2198 C2211 0.961 . S
H2199 C2211 0.959 . S
H2200 C2214 0.929 . S
H2201 C2215 0.931 . S
H2202 C2217 0.930 . S
C2203 H2191 0.930 . S
C2203 C2204 1.399 . S
C2203 C2208 1.399 . S
C2204 C2203 1.399 . S
C2204 C2205 1.376 . S
C2205 H2192 0.930 . S
C2205 C2204 1.376 . S
C2205 C2206 1.388 . S
C2206 H2193 0.930 . S
C2206 C2205 1.388 . S
C2206 C2207 1.390 . S
C2207 C2206 1.390 . S
C2207 C2208 1.394 . S
C2207 C2213 1.465 . S
C2208 C2203 1.399 . S
C2208 C2207 1.394 . S
C2208 C2209 1.516 . S
C2209 C2208 1.516 . S
C2209 C2210 1.502 . S
C2209 C2211 1.561 . S
C2209 C2212 1.526 . S
C2210 H2194 0.959 . S
C2210 H2195 0.959 . S
C2210 H2196 0.961 . S
C2210 C2209 1.502 . S
C2211 H2197 0.960 . S
C2211 H2198 0.961 . S
C2211 H2199 0.959 . S
C2211 C2209 1.561 . S
C2212 C2209 1.526 . S
C2212 C2213 1.396 . S
C2212 C2217 1.390 . S
C2213 C2207 1.465 . S
C2213 C2212 1.396 . S
C2213 C2214 1.399 . S
C2214 H2200 0.929 . S
C2214 C2213 1.399 . S
C2214 C2215 1.385 . S
C2215 H2201 0.931 . S
C2215 C2214 1.385 . S
C2215 C2216 1.389 . S
C2216 C2215 1.389 . S
C2216 C2217 1.387 . S
C2217 H2202 0.930 . S
C2217 C2212 1.390 . S
C2217 C2216 1.387 . S
H2218 C2230 0.930 . S
H2219 C2232 0.930 . S
H2220 C2233 0.930 . S
H2221 C2237 0.959 . S
H2222 C2237 0.959 . S
H2223 C2237 0.961 . S
H2224 C2238 0.960 . S
H2225 C2238 0.961 . S
H2226 C2238 0.959 . S
H2227 C2241 0.929 . S
H2228 C2242 0.931 . S
H2229 C2244 0.930 . S
C2230 H2218 0.930 . S
C2230 C2231 1.399 . S
C2230 C2235 1.399 . S
C2231 C2230 1.399 . S
C2231 C2232 1.376 . S
C2232 H2219 0.930 . S
C2232 C2231 1.376 . S
C2232 C2233 1.388 . S
C2233 H2220 0.930 . S
C2233 C2232 1.388 . S
C2233 C2234 1.390 . S
C2234 C2233 1.390 . S
C2234 C2235 1.394 . S
C2234 C2240 1.465 . S
C2235 C2230 1.399 . S
C2235 C2234 1.394 . S
C2235 C2236 1.516 . S
C2236 C2235 1.516 . S
C2236 C2237 1.502 . S
C2236 C2238 1.561 . S
C2236 C2239 1.526 . S
C2237 H2221 0.959 . S
C2237 H2222 0.959 . S
C2237 H2223 0.961 . S
C2237 C2236 1.502 . S
C2238 H2224 0.960 . S
C2238 H2225 0.961 . S
C2238 H2226 0.959 . S
C2238 C2236 1.561 . S
C2239 C2236 1.526 . S
C2239 C2240 1.396 . S
C2239 C2244 1.390 . S
C2240 C2234 1.465 . S
C2240 C2239 1.396 . S
C2240 C2241 1.399 . S
C2241 H2227 0.929 . S
C2241 C2240 1.399 . S
C2241 C2242 1.385 . S
C2242 H2228 0.931 . S
C2242 C2241 1.385 . S
C2242 C2243 1.389 . S
C2243 C2242 1.389 . S
C2243 C2244 1.387 . S
C2244 H2229 0.930 . S
C2244 C2239 1.390 . S
C2244 C2243 1.387 . S
H2245 C2257 0.930 . S
H2246 C2259 0.930 . S
H2247 C2260 0.930 . S
H2248 C2264 0.959 . S
H2249 C2264 0.959 . S
H2250 C2264 0.961 . S
H2251 C2265 0.960 . S
H2252 C2265 0.961 . S
H2253 C2265 0.959 . S
H2254 C2268 0.929 . S
H2255 C2269 0.931 . S
H2256 C2271 0.930 . S
C2257 H2245 0.930 . S
C2257 C2258 1.399 . S
C2257 C2262 1.399 . S
C2258 C2257 1.399 . S
C2258 C2259 1.376 . S
C2259 H2246 0.930 . S
C2259 C2258 1.376 . S
C2259 C2260 1.388 . S
C2260 H2247 0.930 . S
C2260 C2259 1.388 . S
C2260 C2261 1.390 . S
C2261 C2260 1.390 . S
C2261 C2262 1.394 . S
C2261 C2267 1.465 . S
C2262 C2257 1.399 . S
C2262 C2261 1.394 . S
C2262 C2263 1.516 . S
C2263 C2262 1.516 . S
C2263 C2264 1.502 . S
C2263 C2265 1.561 . S
C2263 C2266 1.526 . S
C2264 H2248 0.959 . S
C2264 H2249 0.959 . S
C2264 H2250 0.961 . S
C2264 C2263 1.502 . S
C2265 H2251 0.960 . S
C2265 H2252 0.961 . S
C2265 H2253 0.959 . S
C2265 C2263 1.561 . S
C2266 C2263 1.526 . S
C2266 C2267 1.396 . S
C2266 C2271 1.390 . S
C2267 C2261 1.465 . S
C2267 C2266 1.396 . S
C2267 C2268 1.399 . S
C2268 H2254 0.929 . S
C2268 C2267 1.399 . S
C2268 C2269 1.385 . S
C2269 H2255 0.931 . S
C2269 C2268 1.385 . S
C2269 C2270 1.389 . S
C2270 C2269 1.389 . S
C2270 C2271 1.387 . S
C2271 H2256 0.930 . S
C2271 C2266 1.390 . S
C2271 C2270 1.387 . S
H2272 C2284 0.930 . S
H2273 C2286 0.930 . S
H2274 C2287 0.930 . S
H2275 C2291 0.959 . S
H2276 C2291 0.959 . S
H2277 C2291 0.961 . S
H2278 C2292 0.960 . S
H2279 C2292 0.961 . S
H2280 C2292 0.959 . S
H2281 C2295 0.929 . S
H2282 C2296 0.931 . S
H2283 C2298 0.930 . S
C2284 H2272 0.930 . S
C2284 C2285 1.399 . S
C2284 C2289 1.399 . S
C2285 C2284 1.399 . S
C2285 C2286 1.376 . S
C2286 H2273 0.930 . S
C2286 C2285 1.376 . S
C2286 C2287 1.388 . S
C2287 H2274 0.930 . S
C2287 C2286 1.388 . S
C2287 C2288 1.390 . S
C2288 C2287 1.390 . S
C2288 C2289 1.394 . S
C2288 C2294 1.465 . S
C2289 C2284 1.399 . S
C2289 C2288 1.394 . S
C2289 C2290 1.516 . S
C2290 C2289 1.516 . S
C2290 C2291 1.502 . S
C2290 C2292 1.561 . S
C2290 C2293 1.526 . S
C2291 H2275 0.959 . S
C2291 H2276 0.959 . S
C2291 H2277 0.961 . S
C2291 C2290 1.502 . S
C2292 H2278 0.960 . S
C2292 H2279 0.961 . S
C2292 H2280 0.959 . S
C2292 C2290 1.561 . S
C2293 C2290 1.526 . S
C2293 C2294 1.396 . S
C2293 C2298 1.390 . S
C2294 C2288 1.465 . S
C2294 C2293 1.396 . S
C2294 C2295 1.399 . S
C2295 H2281 0.929 . S
C2295 C2294 1.399 . S
C2295 C2296 1.385 . S
C2296 H2282 0.931 . S
C2296 C2295 1.385 . S
C2296 C2297 1.389 . S
C2297 C2296 1.389 . S
C2297 C2298 1.387 . S
C2298 H2283 0.930 . S
C2298 C2293 1.390 . S
C2298 C2297 1.387 . S
H2299 C2311 0.930 . S
H2300 C2313 0.930 . S
H2301 C2314 0.930 . S
H2302 C2318 0.959 . S
H2303 C2318 0.959 . S
H2304 C2318 0.961 . S
H2305 C2319 0.960 . S
H2306 C2319 0.961 . S
H2307 C2319 0.959 . S
H2308 C2322 0.929 . S
H2309 C2323 0.931 . S
H2310 C2325 0.930 . S
C2311 H2299 0.930 . S
C2311 C2312 1.399 . S
C2311 C2316 1.399 . S
C2312 C2311 1.399 . S
C2312 C2313 1.376 . S
C2313 H2300 0.930 . S
C2313 C2312 1.376 . S
C2313 C2314 1.388 . S
C2314 H2301 0.930 . S
C2314 C2313 1.388 . S
C2314 C2315 1.390 . S
C2315 C2314 1.390 . S
C2315 C2316 1.394 . S
C2315 C2321 1.465 . S
C2316 C2311 1.399 . S
C2316 C2315 1.394 . S
C2316 C2317 1.516 . S
C2317 C2316 1.516 . S
C2317 C2318 1.502 . S
C2317 C2319 1.561 . S
C2317 C2320 1.526 . S
C2318 H2302 0.959 . S
C2318 H2303 0.959 . S
C2318 H2304 0.961 . S
C2318 C2317 1.502 . S
C2319 H2305 0.960 . S
C2319 H2306 0.961 . S
C2319 H2307 0.959 . S
C2319 C2317 1.561 . S
C2320 C2317 1.526 . S
C2320 C2321 1.396 . S
C2320 C2325 1.390 . S
C2321 C2315 1.465 . S
C2321 C2320 1.396 . S
C2321 C2322 1.399 . S
C2322 H2308 0.929 . S
C2322 C2321 1.399 . S
C2322 C2323 1.385 . S
C2323 H2309 0.931 . S
C2323 C2322 1.385 . S
C2323 C2324 1.389 . S
C2324 C2323 1.389 . S
C2324 C2325 1.387 . S
C2325 H2310 0.930 . S
C2325 C2320 1.390 . S
C2325 C2324 1.387 . S
H2326 C2338 0.930 1_655 S
H2327 C2340 0.930 . S
H2328 C2341 0.930 . S
H2329 C2345 0.959 . S
H2330 C2345 0.959 . S
H2331 C2345 0.961 . S
H2332 C2346 0.960 . S
H2333 C2346 0.961 . S
H2334 C2346 0.959 . S
H2335 C2349 0.929 . S
H2336 C2350 0.931 . S
H2337 C2352 0.930 . S
C2338 H2326 0.930 1_455 S
C2338 C2339 1.399 . S
C2338 C2343 1.399 . S
C2339 C2338 1.399 . S
C2339 C2340 1.376 . S
C2340 H2327 0.930 . S
C2340 C2339 1.376 . S
C2340 C2341 1.388 . S
C2341 H2328 0.930 . S
C2341 C2340 1.388 . S
C2341 C2342 1.390 . S
C2342 C2341 1.390 . S
C2342 C2343 1.394 . S
C2342 C2348 1.465 . S
C2343 C2338 1.399 . S
C2343 C2342 1.394 . S
C2343 C2344 1.516 1_556 S
C2344 C2343 1.516 1_554 S
C2344 C2345 1.502 1_455 S
C2344 C2346 1.561 . S
C2344 C2347 1.526 . S
C2345 H2329 0.959 . S
C2345 H2330 0.959 . S
C2345 H2331 0.961 . S
C2345 C2344 1.502 1_655 S
C2346 H2332 0.960 . S
C2346 H2333 0.961 . S
C2346 H2334 0.959 . S
C2346 C2344 1.561 . S
C2347 C2344 1.526 . S
C2347 C2348 1.396 1_554 S
C2347 C2352 1.390 . S
C2348 C2342 1.465 . S
C2348 C2347 1.396 1_556 S
C2348 C2349 1.399 . S
C2349 H2335 0.929 . S
C2349 C2348 1.399 . S
C2349 C2350 1.385 . S
C2350 H2336 0.931 . S
C2350 C2349 1.385 . S
C2350 C2351 1.389 1_556 S
C2351 C2350 1.389 1_554 S
C2351 C2352 1.387 . S
C2352 H2337 0.930 . S
C2352 C2347 1.390 . S
C2352 C2351 1.387 . S
H2353 C2365 0.930 1_455 S
H2354 C2367 0.930 . S
H2355 C2368 0.930 . S
H2356 C2372 0.959 . S
H2357 C2372 0.959 . S
H2358 C2372 0.961 . S
H2359 C2373 0.960 . S
H2360 C2373 0.961 . S
H2361 C2373 0.959 . S
H2362 C2376 0.929 . S
H2363 C2377 0.931 . S
H2364 C2379 0.930 . S
C2365 H2353 0.930 1_655 S
C2365 C2366 1.399 . S
C2365 C2370 1.399 . S
C2366 C2365 1.399 . S
C2366 C2367 1.376 . S
C2367 H2354 0.930 . S
C2367 C2366 1.376 . S
C2367 C2368 1.388 . S
C2368 H2355 0.930 . S
C2368 C2367 1.388 . S
C2368 C2369 1.390 . S
C2369 C2368 1.390 . S
C2369 C2370 1.394 . S
C2369 C2375 1.465 . S
C2370 C2365 1.399 . S
C2370 C2369 1.394 . S
C2370 C2371 1.516 . S
C2371 C2370 1.516 . S
C2371 C2372 1.502 . S
C2371 C2373 1.561 . S
C2371 C2374 1.526 . S
C2372 H2356 0.959 . S
C2372 H2357 0.959 . S
C2372 H2358 0.961 . S
C2372 C2371 1.502 . S
C2373 H2359 0.960 . S
C2373 H2360 0.961 . S
C2373 H2361 0.959 . S
C2373 C2371 1.561 . S
C2374 C2371 1.526 . S
C2374 C2375 1.396 . S
C2374 C2379 1.390 . S
C2375 C2369 1.465 . S
C2375 C2374 1.396 . S
C2375 C2376 1.399 . S
C2376 H2362 0.929 . S
C2376 C2375 1.399 . S
C2376 C2377 1.385 . S
C2377 H2363 0.931 . S
C2377 C2376 1.385 . S
C2377 C2378 1.389 . S
C2378 C2377 1.389 . S
C2378 C2379 1.387 . S
C2379 H2364 0.930 . S
C2379 C2374 1.390 . S
C2379 C2378 1.387 . S
H2380 C2392 0.930 . S
H2381 C2394 0.930 . S
H2382 C2395 0.930 . S
H2383 C2399 0.959 . S
H2384 C2399 0.959 . S
H2385 C2399 0.961 . S
H2386 C2400 0.960 . S
H2387 C2400 0.961 . S
H2388 C2400 0.959 . S
H2389 C2403 0.929 . S
H2390 C2404 0.931 . S
H2391 C2406 0.930 . S
C2392 H2380 0.930 . S
C2392 C2393 1.399 . S
C2392 C2397 1.399 . S
C2393 C2392 1.399 . S
C2393 C2394 1.376 . S
C2394 H2381 0.930 . S
C2394 C2393 1.376 . S
C2394 C2395 1.388 . S
C2395 H2382 0.930 . S
C2395 C2394 1.388 . S
C2395 C2396 1.390 . S
C2396 C2395 1.390 . S
C2396 C2397 1.394 . S
C2396 C2402 1.465 . S
C2397 C2392 1.399 . S
C2397 C2396 1.394 . S
C2397 C2398 1.516 . S
C2398 C2397 1.516 . S
C2398 C2399 1.502 . S
C2398 C2400 1.561 . S
C2398 C2401 1.526 . S
C2399 H2383 0.959 . S
C2399 H2384 0.959 . S
C2399 H2385 0.961 . S
C2399 C2398 1.502 . S
C2400 H2386 0.960 . S
C2400 H2387 0.961 . S
C2400 H2388 0.959 . S
C2400 C2398 1.561 . S
C2401 C2398 1.526 . S
C2401 C2402 1.396 . S
C2401 C2406 1.390 . S
C2402 C2396 1.465 . S
C2402 C2401 1.396 . S
C2402 C2403 1.399 . S
C2403 H2389 0.929 . S
C2403 C2402 1.399 . S
C2403 C2404 1.385 . S
C2404 H2390 0.931 . S
C2404 C2403 1.385 . S
C2404 C2405 1.389 . S
C2405 C2404 1.389 . S
C2405 C2406 1.387 . S
C2406 H2391 0.930 . S
C2406 C2401 1.390 . S
C2406 C2405 1.387 . S
H2407 C2419 0.930 1_455 S
H2408 C2421 0.930 . S
H2409 C2422 0.930 . S
H2410 C2426 0.959 . S
H2411 C2426 0.959 . S
H2412 C2426 0.961 . S
H2413 C2427 0.960 . S
H2414 C2427 0.961 . S
H2415 C2427 0.959 . S
H2416 C2430 0.929 . S
H2417 C2431 0.931 . S
H2418 C2433 0.930 . S
C2419 H2407 0.930 1_655 S
C2419 C2420 1.400 . S
C2419 C2424 1.399 . S
C2420 C2419 1.400 . S
C2420 C2421 1.387 . S
C2421 H2408 0.930 . S
C2421 C2420 1.387 . S
C2421 C2422 1.388 . S
C2422 H2409 0.930 . S
C2422 C2421 1.388 . S
C2422 C2423 1.390 . S
C2423 C2422 1.390 . S
C2423 C2424 1.394 . S
C2423 C2429 1.465 . S
C2424 C2419 1.399 . S
C2424 C2423 1.394 . S
C2424 C2425 1.516 . S
C2425 C2424 1.516 . S
C2425 C2426 1.502 . S
C2425 C2427 1.561 . S
C2425 C2428 1.526 . S
C2426 H2410 0.959 . S
C2426 H2411 0.959 . S
C2426 H2412 0.961 . S
C2426 C2425 1.502 . S
C2427 H2413 0.960 . S
C2427 H2414 0.961 . S
C2427 H2415 0.959 . S
C2427 C2425 1.561 . S
C2428 C2425 1.526 . S
C2428 C2429 1.396 . S
C2428 C2433 1.390 . S
C2429 C2423 1.465 . S
C2429 C2428 1.396 . S
C2429 C2430 1.399 . S
C2430 H2416 0.929 . S
C2430 C2429 1.399 . S
C2430 C2431 1.385 . S
C2431 H2417 0.931 . S
C2431 C2430 1.385 . S
C2431 C2432 1.389 . S
C2432 C2431 1.389 . S
C2432 C2433 1.387 . S
C2433 H2418 0.930 . S
C2433 C2428 1.390 . S
C2433 C2432 1.387 . S
H2434 C2446 0.930 . S
H2435 C2448 0.930 . S
H2436 C2449 0.930 . S
H2437 C2453 0.959 . S
H2438 C2453 0.959 . S
H2439 C2453 0.961 . S
H2440 C2454 0.960 . S
H2441 C2454 0.961 . S
H2442 C2454 0.959 1_455 S
H2443 C2457 0.929 . S
H2444 C2458 0.931 . S
H2445 C2460 0.930 . S
C2446 H2434 0.930 . S
C2446 C2447 1.399 1_655 S
C2446 C2451 1.399 1_655 S
C2447 C2446 1.399 1_455 S
C2447 C2448 1.376 . S
C2448 H2435 0.930 . S
C2448 C2447 1.376 . S
C2448 C2449 1.388 . S
C2449 H2436 0.930 . S
C2449 C2448 1.388 . S
C2449 C2450 1.390 . S
C2450 C2449 1.390 . S
C2450 C2451 1.394 . S
C2450 C2456 1.465 . S
C2451 C2446 1.399 1_455 S
C2451 C2450 1.394 . S
C2451 C2452 1.516 1_455 S
C2452 C2451 1.516 1_655 S
C2452 C2453 1.502 . S
C2452 C2454 1.561 . S
C2452 C2455 1.526 1_655 S
C2453 H2437 0.959 . S
C2453 H2438 0.959 . S
C2453 H2439 0.961 . S
C2453 C2452 1.502 . S
C2454 H2440 0.960 . S
C2454 H2441 0.961 . S
C2454 H2442 0.959 1_655 S
C2454 C2452 1.561 . S
C2455 C2452 1.526 1_455 S
C2455 C2456 1.396 . S
C2455 C2460 1.390 . S
C2456 C2450 1.465 . S
C2456 C2455 1.396 . S
C2456 C2457 1.399 . S
C2457 H2443 0.929 . S
C2457 C2456 1.399 . S
C2457 C2458 1.385 . S
C2458 H2444 0.931 . S
C2458 C2457 1.385 . S
C2458 C2459 1.389 . S
C2459 C2458 1.389 . S
C2459 C2460 1.387 . S
C2460 H2445 0.930 . S
C2460 C2455 1.390 . S
C2460 C2459 1.387 . S
H2461 C2473 0.930 . S
H2462 C2475 0.930 . S
H2463 C2476 0.930 . S
H2464 C2480 0.959 . S
H2465 C2480 0.959 . S
H2466 C2480 0.961 . S
H2467 C2481 0.960 . S
H2468 C2481 0.961 . S
H2469 C2481 0.959 . S
H2470 C2484 0.929 . S
H2471 C2485 0.931 . S
H2472 C2487 0.930 . S
C2473 H2461 0.930 . S
C2473 C2474 1.399 . S
C2473 C2478 1.399 . S
C2474 C2473 1.399 . S
C2474 C2475 1.376 . S
C2475 H2462 0.930 . S
C2475 C2474 1.376 . S
C2475 C2476 1.388 . S
C2476 H2463 0.930 . S
C2476 C2475 1.388 . S
C2476 C2477 1.390 . S
C2477 C2476 1.390 . S
C2477 C2478 1.394 . S
C2477 C2483 1.465 . S
C2478 C2473 1.399 . S
C2478 C2477 1.394 . S
C2478 C2479 1.516 . S
C2479 C2478 1.516 . S
C2479 C2480 1.502 . S
C2479 C2481 1.561 . S
C2479 C2482 1.526 . S
C2480 H2464 0.959 . S
C2480 H2465 0.959 . S
C2480 H2466 0.961 . S
C2480 C2479 1.502 . S
C2481 H2467 0.960 . S
C2481 H2468 0.961 . S
C2481 H2469 0.959 . S
C2481 C2479 1.561 . S
C2482 C2479 1.526 . S
C2482 C2483 1.396 . S
C2482 C2487 1.390 . S
C2483 C2477 1.465 . S
C2483 C2482 1.396 . S
C2483 C2484 1.399 . S
C2484 H2470 0.929 . S
C2484 C2483 1.399 . S
C2484 C2485 1.385 . S
C2485 H2471 0.931 . S
C2485 C2484 1.385 . S
C2485 C2486 1.389 . S
C2486 C2485 1.389 . S
C2486 C2487 1.387 . S
C2487 H2472 0.930 . S
C2487 C2482 1.390 . S
C2487 C2486 1.387 . S
H2488 C2500 0.930 . S
H2489 C2502 0.930 . S
H2490 C2503 0.930 . S
H2491 C2507 0.959 . S
H2492 C2507 0.959 . S
H2493 C2507 0.961 . S
H2494 C2508 0.960 . S
H2495 C2508 0.961 . S
H2496 C2508 0.959 . S
H2497 C2511 0.929 . S
H2498 C2512 0.931 . S
H2499 C2514 0.930 . S
C2500 H2488 0.930 . S
C2500 C2501 1.399 . S
C2500 C2505 1.399 . S
C2501 C2500 1.399 . S
C2501 C2502 1.376 . S
C2502 H2489 0.930 . S
C2502 C2501 1.376 . S
C2502 C2503 1.388 . S
C2503 H2490 0.930 . S
C2503 C2502 1.388 . S
C2503 C2504 1.390 . S
C2504 C2503 1.390 . S
C2504 C2505 1.394 . S
C2504 C2510 1.465 . S
C2505 C2500 1.399 . S
C2505 C2504 1.394 . S
C2505 C2506 1.516 . S
C2506 C2505 1.516 . S
C2506 C2507 1.502 . S
C2506 C2508 1.561 . S
C2506 C2509 1.526 . S
C2507 H2491 0.959 . S
C2507 H2492 0.959 . S
C2507 H2493 0.961 . S
C2507 C2506 1.502 . S
C2508 H2494 0.960 . S
C2508 H2495 0.961 . S
C2508 H2496 0.959 . S
C2508 C2506 1.561 . S
C2509 C2506 1.526 . S
C2509 C2510 1.396 . S
C2509 C2514 1.390 . S
C2510 C2504 1.465 . S
C2510 C2509 1.396 . S
C2510 C2511 1.399 . S
C2511 H2497 0.929 . S
C2511 C2510 1.399 . S
C2511 C2512 1.385 . S
C2512 H2498 0.931 . S
C2512 C2511 1.385 . S
C2512 C2513 1.389 . S
C2513 C2512 1.389 . S
C2513 C2514 1.387 . S
C2514 H2499 0.930 . S
C2514 C2509 1.390 . S
C2514 C2513 1.387 . S
H2515 C2527 0.930 . S
H2516 C2529 0.930 . S
H2517 C2530 0.930 . S
H2518 C2534 0.959 . S
H2519 C2534 0.974 . S
H2520 C2534 0.961 . S
H2521 C2535 0.960 1_554 S
H2522 C2535 0.961 . S
H2523 C2535 0.959 . S
H2524 C2538 0.929 . S
H2525 C2539 0.931 . S
H2526 C2541 0.930 . S
C2527 H2515 0.930 . S
C2527 C2528 1.399 . S
C2527 C2532 1.399 . S
C2528 C2527 1.399 . S
C2528 C2529 1.376 . S
C2529 H2516 0.930 . S
C2529 C2528 1.376 . S
C2529 C2530 1.388 1_554 S
C2530 H2517 0.930 . S
C2530 C2529 1.388 1_556 S
C2530 C2531 1.390 . S
C2531 C2530 1.390 . S
C2531 C2532 1.394 1_556 S
C2531 C2537 1.465 . S
C2532 C2527 1.399 . S
C2532 C2531 1.394 1_554 S
C2532 C2533 1.516 1_554 S
C2533 C2532 1.516 1_556 S
C2533 C2534 1.502 1_556 S
C2533 C2535 1.561 . S
C2533 C2536 1.526 . S
C2534 H2518 0.959 . S
C2534 H2519 0.974 . S
C2534 H2520 0.961 . S
C2534 C2533 1.502 1_554 S
C2535 H2521 0.960 1_556 S
C2535 H2522 0.961 . S
C2535 H2523 0.959 . S
C2535 C2533 1.561 . S
C2536 C2533 1.526 . S
C2536 C2537 1.396 . S
C2536 C2541 1.390 . S
C2537 C2531 1.465 . S
C2537 C2536 1.396 . S
C2537 C2538 1.399 . S
C2538 H2524 0.929 . S
C2538 C2537 1.399 . S
C2538 C2539 1.385 . S
C2539 H2525 0.931 . S
C2539 C2538 1.385 . S
C2539 C2540 1.389 . S
C2540 C2539 1.389 . S
C2540 C2541 1.387 . S
C2541 H2526 0.930 . S
C2541 C2536 1.390 . S
C2541 C2540 1.387 . S
H2542 C2554 0.930 . S
H2543 C2556 0.930 . S
H2544 C2557 0.930 . S
H2545 C2561 0.959 . S
H2546 C2561 0.959 . S
H2547 C2561 0.961 . S
H2548 C2562 0.960 . S
H2549 C2562 0.961 . S
H2550 C2562 0.959 . S
H2551 C2565 0.929 . S
H2552 C2566 0.931 . S
H2553 C2568 0.930 . S
C2554 H2542 0.930 . S
C2554 C2555 1.399 . S
C2554 C2559 1.399 . S
C2555 C2554 1.399 . S
C2555 C2556 1.376 . S
C2556 H2543 0.930 . S
C2556 C2555 1.376 . S
C2556 C2557 1.388 . S
C2557 H2544 0.930 . S
C2557 C2556 1.388 . S
C2557 C2558 1.390 . S
C2558 C2557 1.390 . S
C2558 C2559 1.394 . S
C2558 C2564 1.465 . S
C2559 C2554 1.399 . S
C2559 C2558 1.394 . S
C2559 C2560 1.516 . S
C2560 C2559 1.516 . S
C2560 C2561 1.502 . S
C2560 C2562 1.561 . S
C2560 C2563 1.526 . S
C2561 H2545 0.959 . S
C2561 H2546 0.959 . S
C2561 H2547 0.961 . S
C2561 C2560 1.502 . S
C2562 H2548 0.960 . S
C2562 H2549 0.961 . S
C2562 H2550 0.959 . S
C2562 C2560 1.561 . S
C2563 C2560 1.526 . S
C2563 C2564 1.396 . S
C2563 C2568 1.390 . S
C2564 C2558 1.465 . S
C2564 C2563 1.396 . S
C2564 C2565 1.399 . S
C2565 H2551 0.929 . S
C2565 C2564 1.399 . S
C2565 C2566 1.385 . S
C2566 H2552 0.931 . S
C2566 C2565 1.385 . S
C2566 C2567 1.389 . S
C2567 C2566 1.389 . S
C2567 C2568 1.387 . S
C2568 H2553 0.930 . S
C2568 C2563 1.390 . S
C2568 C2567 1.387 . S
H2569 C2581 0.930 . S
H2570 C2583 0.930 . S
H2571 C2584 0.930 . S
H2572 C2588 0.959 . S
H2573 C2588 0.959 . S
H2574 C2588 0.961 . S
H2575 C2589 0.960 . S
H2576 C2589 0.961 . S
H2577 C2589 0.959 . S
H2578 C2592 0.929 . S
H2579 C2593 0.931 . S
H2580 C2595 0.930 . S
C2581 H2569 0.930 . S
C2581 C2582 1.399 . S
C2581 C2586 1.399 . S
C2582 C2581 1.399 . S
C2582 C2583 1.376 . S
C2583 H2570 0.930 . S
C2583 C2582 1.376 . S
C2583 C2584 1.388 . S
C2584 H2571 0.930 . S
C2584 C2583 1.388 . S
C2584 C2585 1.390 . S
C2585 C2584 1.390 . S
C2585 C2586 1.394 . S
C2585 C2591 1.465 . S
C2586 C2581 1.399 . S
C2586 C2585 1.394 . S
C2586 C2587 1.516 . S
C2587 C2586 1.516 . S
C2587 C2588 1.502 . S
C2587 C2589 1.561 . S
C2587 C2590 1.526 . S
C2588 H2572 0.959 . S
C2588 H2573 0.959 . S
C2588 H2574 0.961 . S
C2588 C2587 1.502 . S
C2589 H2575 0.960 . S
C2589 H2576 0.961 . S
C2589 H2577 0.959 . S
C2589 C2587 1.561 . S
C2590 C2587 1.526 . S
C2590 C2591 1.396 . S
C2590 C2595 1.390 . S
C2591 C2585 1.465 . S
C2591 C2590 1.396 . S
C2591 C2592 1.399 . S
C2592 H2578 0.929 . S
C2592 C2591 1.399 . S
C2592 C2593 1.385 . S
C2593 H2579 0.931 . S
C2593 C2592 1.385 . S
C2593 C2594 1.389 . S
C2594 C2593 1.389 . S
C2594 C2595 1.387 . S
C2595 H2580 0.930 . S
C2595 C2590 1.390 . S
C2595 C2594 1.387 . S
H2596 C2608 0.930 . S
H2597 C2610 0.930 . S
H2598 C2611 0.930 . S
H2599 C2615 0.959 . S
H2600 C2615 0.959 . S
H2601 C2615 0.961 . S
H2602 C2616 0.960 . S
H2603 C2616 0.961 . S
H2604 C2616 0.959 . S
H2605 C2619 0.929 . S
H2606 C2620 0.931 . S
H2607 C2622 0.930 . S
C2608 H2596 0.930 . S
C2608 C2609 1.399 . S
C2608 C2613 1.399 . S
C2609 C2608 1.399 . S
C2609 C2610 1.376 . S
C2610 H2597 0.930 . S
C2610 C2609 1.376 . S
C2610 C2611 1.388 . S
C2611 H2598 0.930 . S
C2611 C2610 1.388 . S
C2611 C2612 1.390 . S
C2612 C2611 1.390 . S
C2612 C2613 1.394 . S
C2612 C2618 1.465 . S
C2613 C2608 1.399 . S
C2613 C2612 1.394 . S
C2613 C2614 1.516 . S
C2614 C2613 1.516 . S
C2614 C2615 1.502 . S
C2614 C2616 1.561 . S
C2614 C2617 1.526 . S
C2615 H2599 0.959 . S
C2615 H2600 0.959 . S
C2615 H2601 0.961 . S
C2615 C2614 1.502 . S
C2616 H2602 0.960 . S
C2616 H2603 0.961 . S
C2616 H2604 0.959 . S
C2616 C2614 1.561 . S
C2617 C2614 1.526 . S
C2617 C2618 1.396 . S
C2617 C2622 1.390 . S
C2618 C2612 1.465 . S
C2618 C2617 1.396 . S
C2618 C2619 1.399 . S
C2619 H2605 0.929 . S
C2619 C2618 1.399 . S
C2619 C2620 1.385 . S
C2620 H2606 0.931 . S
C2620 C2619 1.385 . S
C2620 C2621 1.389 . S
C2621 C2620 1.389 . S
C2621 C2622 1.387 . S
C2622 H2607 0.930 . S
C2622 C2617 1.390 . S
C2622 C2621 1.387 . S
H2623 C2635 0.930 . S
H2624 C2637 0.930 . S
H2625 C2638 0.930 . S
H2626 C2642 0.959 . S
H2627 C2642 0.959 . S
H2628 C2642 0.961 . S
H2629 C2643 0.960 . S
H2630 C2643 0.961 . S
H2631 C2643 0.959 . S
H2632 C2646 0.929 . S
H2633 C2647 0.931 . S
H2634 C2649 0.930 . S
C2635 H2623 0.930 . S
C2635 C2636 1.399 . S
C2635 C2640 1.399 . S
C2636 C2635 1.399 . S
C2636 C2637 1.376 . S
C2637 H2624 0.930 . S
C2637 C2636 1.376 . S
C2637 C2638 1.388 . S
C2638 H2625 0.930 . S
C2638 C2637 1.388 . S
C2638 C2639 1.390 . S
C2639 C2638 1.390 . S
C2639 C2640 1.394 . S
C2639 C2645 1.465 . S
C2640 C2635 1.399 . S
C2640 C2639 1.394 . S
C2640 C2641 1.516 . S
C2641 C2640 1.516 . S
C2641 C2642 1.502 . S
C2641 C2643 1.561 . S
C2641 C2644 1.526 . S
C2642 H2626 0.959 . S
C2642 H2627 0.959 . S
C2642 H2628 0.961 . S
C2642 C2641 1.502 . S
C2643 H2629 0.960 . S
C2643 H2630 0.961 . S
C2643 H2631 0.959 . S
C2643 C2641 1.561 . S
C2644 C2641 1.526 . S
C2644 C2645 1.396 . S
C2644 C2649 1.390 . S
C2645 C2639 1.465 . S
C2645 C2644 1.396 . S
C2645 C2646 1.399 . S
C2646 H2632 0.929 . S
C2646 C2645 1.399 . S
C2646 C2647 1.385 . S
C2647 H2633 0.931 . S
C2647 C2646 1.385 . S
C2647 C2648 1.389 . S
C2648 C2647 1.389 . S
C2648 C2649 1.387 . S
C2649 H2634 0.930 . S
C2649 C2644 1.390 . S
C2649 C2648 1.387 . S
H2650 C2662 0.930 . S
H2651 C2664 0.930 . S
H2652 C2665 0.930 . S
H2653 C2669 0.959 . S
H2654 C2669 0.959 . S
H2655 C2669 0.961 . S
H2656 C2670 0.960 . S
H2657 C2670 0.961 . S
H2658 C2670 0.959 . S
H2659 C2673 0.929 . S
H2660 C2674 0.931 . S
H2661 C2676 0.930 . S
C2662 H2650 0.930 . S
C2662 C2663 1.399 . S
C2662 C2667 1.399 . S
C2663 C2662 1.399 . S
C2663 C2664 1.376 . S
C2664 H2651 0.930 . S
C2664 C2663 1.376 . S
C2664 C2665 1.388 . S
C2665 H2652 0.930 . S
C2665 C2664 1.388 . S
C2665 C2666 1.390 . S
C2666 C2665 1.390 . S
C2666 C2667 1.394 . S
C2666 C2672 1.465 . S
C2667 C2662 1.399 . S
C2667 C2666 1.394 . S
C2667 C2668 1.516 . S
C2668 C2667 1.516 . S
C2668 C2669 1.502 . S
C2668 C2670 1.561 . S
C2668 C2671 1.526 . S
C2669 H2653 0.959 . S
C2669 H2654 0.959 . S
C2669 H2655 0.961 . S
C2669 C2668 1.502 . S
C2670 H2656 0.960 . S
C2670 H2657 0.961 . S
C2670 H2658 0.959 . S
C2670 C2668 1.561 . S
C2671 C2668 1.526 . S
C2671 C2672 1.396 . S
C2671 C2676 1.390 . S
C2672 C2666 1.465 . S
C2672 C2671 1.396 . S
C2672 C2673 1.399 . S
C2673 H2659 0.929 . S
C2673 C2672 1.399 . S
C2673 C2674 1.385 . S
C2674 H2660 0.931 . S
C2674 C2673 1.385 . S
C2674 C2675 1.389 . S
C2675 C2674 1.389 . S
C2675 C2676 1.387 . S
C2676 H2661 0.930 . S
C2676 C2671 1.390 . S
C2676 C2675 1.387 . S
H2677 C2689 0.930 . S
H2678 C2691 0.930 . S
H2679 C2692 0.930 . S
H2680 C2696 0.959 . S
H2681 C2696 0.959 . S
H2682 C2696 0.961 . S
H2683 C2697 0.960 . S
H2684 C2697 0.961 . S
H2685 C2697 0.959 . S
H2686 C2700 0.929 . S
H2687 C2701 0.931 . S
H2688 C2703 0.930 . S
C2689 H2677 0.930 . S
C2689 C2690 1.399 . S
C2689 C2694 1.399 . S
C2690 C2689 1.399 . S
C2690 C2691 1.376 . S
C2691 H2678 0.930 . S
C2691 C2690 1.376 . S
C2691 C2692 1.388 . S
C2692 H2679 0.930 . S
C2692 C2691 1.388 . S
C2692 C2693 1.390 . S
C2693 C2692 1.390 . S
C2693 C2694 1.394 . S
C2693 C2699 1.465 . S
C2694 C2689 1.399 . S
C2694 C2693 1.394 . S
C2694 C2695 1.516 . S
C2695 C2694 1.516 . S
C2695 C2696 1.502 . S
C2695 C2697 1.561 . S
C2695 C2698 1.526 . S
C2696 H2680 0.959 . S
C2696 H2681 0.959 . S
C2696 H2682 0.961 . S
C2696 C2695 1.502 . S
C2697 H2683 0.960 . S
C2697 H2684 0.961 . S
C2697 H2685 0.959 . S
C2697 C2695 1.561 . S
C2698 C2695 1.526 . S
C2698 C2699 1.396 . S
C2698 C2703 1.390 . S
C2699 C2693 1.465 . S
C2699 C2698 1.396 . S
C2699 C2700 1.399 . S
C2700 H2686 0.929 . S
C2700 C2699 1.399 . S
C2700 C2701 1.385 . S
C2701 H2687 0.931 . S
C2701 C2700 1.385 . S
C2701 C2702 1.389 . S
C2702 C2701 1.389 . S
C2702 C2703 1.387 . S
C2703 H2688 0.930 . S
C2703 C2698 1.390 . S
C2703 C2702 1.387 . S
H2704 C2716 0.930 . S
H2705 C2718 0.930 . S
H2706 C2719 0.930 . S
H2707 C2723 0.959 . S
H2708 C2723 0.959 . S
H2709 C2723 0.961 . S
H2710 C2724 0.960 . S
H2711 C2724 0.961 . S
H2712 C2724 0.959 . S
H2713 C2727 0.929 . S
H2714 C2728 0.931 . S
H2715 C2730 0.930 . S
C2716 H2704 0.930 . S
C2716 C2717 1.399 . S
C2716 C2721 1.399 . S
C2717 C2716 1.399 . S
C2717 C2718 1.376 . S
C2718 H2705 0.930 . S
C2718 C2717 1.376 . S
C2718 C2719 1.388 . S
C2719 H2706 0.930 . S
C2719 C2718 1.388 . S
C2719 C2720 1.390 . S
C2720 C2719 1.390 . S
C2720 C2721 1.394 . S
C2720 C2726 1.465 . S
C2721 C2716 1.399 . S
C2721 C2720 1.394 . S
C2721 C2722 1.516 . S
C2722 C2721 1.516 . S
C2722 C2723 1.502 . S
C2722 C2724 1.561 . S
C2722 C2725 1.526 . S
C2723 H2707 0.959 . S
C2723 H2708 0.959 . S
C2723 H2709 0.961 . S
C2723 C2722 1.502 . S
C2724 H2710 0.960 . S
C2724 H2711 0.961 . S
C2724 H2712 0.959 . S
C2724 C2722 1.561 . S
C2725 C2722 1.526 . S
C2725 C2726 1.396 . S
C2725 C2730 1.390 . S
C2726 C2720 1.465 . S
C2726 C2725 1.396 . S
C2726 C2727 1.399 . S
C2727 H2713 0.929 . S
C2727 C2726 1.399 . S
C2727 C2728 1.385 . S
C2728 H2714 0.931 . S
C2728 C2727 1.385 . S
C2728 C2729 1.389 . S
C2729 C2728 1.389 . S
C2729 C2730 1.387 . S
C2730 H2715 0.930 . S
C2730 C2725 1.390 . S
C2730 C2729 1.387 . S
H2731 C2743 0.930 . S
H2732 C2745 0.930 . S
H2733 C2746 0.930 . S
H2734 C2750 0.959 . S
H2735 C2750 0.959 . S
H2736 C2750 0.961 . S
H2737 C2751 0.960 . S
H2738 C2751 0.961 . S
H2739 C2751 0.959 . S
H2740 C2754 0.929 . S
H2741 C2755 0.931 . S
H2742 C2757 0.930 . S
C2743 H2731 0.930 . S
C2743 C2744 1.399 . S
C2743 C2748 1.399 . S
C2744 C2743 1.399 . S
C2744 C2745 1.376 . S
C2745 H2732 0.930 . S
C2745 C2744 1.376 . S
C2745 C2746 1.388 . S
C2746 H2733 0.930 . S
C2746 C2745 1.388 . S
C2746 C2747 1.390 . S
C2747 C2746 1.390 . S
C2747 C2748 1.394 . S
C2747 C2753 1.465 . S
C2748 C2743 1.399 . S
C2748 C2747 1.394 . S
C2748 C2749 1.516 . S
C2749 C2748 1.516 . S
C2749 C2750 1.502 . S
C2749 C2751 1.561 . S
C2749 C2752 1.526 . S
C2750 H2734 0.959 . S
C2750 H2735 0.959 . S
C2750 H2736 0.961 . S
C2750 C2749 1.502 . S
C2751 H2737 0.960 . S
C2751 H2738 0.961 . S
C2751 H2739 0.959 . S
C2751 C2749 1.561 . S
C2752 C2749 1.526 . S
C2752 C2753 1.396 . S
C2752 C2757 1.390 . S
C2753 C2747 1.465 . S
C2753 C2752 1.396 . S
C2753 C2754 1.399 . S
C2754 H2740 0.929 . S
C2754 C2753 1.399 . S
C2754 C2755 1.385 . S
C2755 H2741 0.931 . S
C2755 C2754 1.385 . S
C2755 C2756 1.389 . S
C2756 C2755 1.389 . S
C2756 C2757 1.387 . S
C2757 H2742 0.930 . S
C2757 C2752 1.390 . S
C2757 C2756 1.387 . S
H2758 C2770 0.930 . S
H2759 C2772 0.930 . S
H2760 C2773 0.930 . S
H2761 C2777 0.959 . S
H2762 C2777 0.959 . S
H2763 C2777 0.961 . S
H2764 C2778 0.960 . S
H2765 C2778 0.961 . S
H2766 C2778 0.959 . S
H2767 C2781 0.929 . S
H2768 C2782 0.931 . S
H2769 C2784 0.930 . S
C2770 H2758 0.930 . S
C2770 C2771 1.399 . S
C2770 C2775 1.399 . S
C2771 C2770 1.399 . S
C2771 C2772 1.376 . S
C2772 H2759 0.930 . S
C2772 C2771 1.376 . S
C2772 C2773 1.388 . S
C2773 H2760 0.930 . S
C2773 C2772 1.388 . S
C2773 C2774 1.390 . S
C2774 C2773 1.390 . S
C2774 C2775 1.394 . S
C2774 C2780 1.465 . S
C2775 C2770 1.399 . S
C2775 C2774 1.394 . S
C2775 C2776 1.516 . S
C2776 C2775 1.516 . S
C2776 C2777 1.502 . S
C2776 C2778 1.561 . S
C2776 C2779 1.526 . S
C2777 H2761 0.959 . S
C2777 H2762 0.959 . S
C2777 H2763 0.961 . S
C2777 C2776 1.502 . S
C2778 H2764 0.960 . S
C2778 H2765 0.961 . S
C2778 H2766 0.959 . S
C2778 C2776 1.561 . S
C2779 C2776 1.526 . S
C2779 C2780 1.396 . S
C2779 C2784 1.390 . S
C2780 C2774 1.465 . S
C2780 C2779 1.396 . S
C2780 C2781 1.399 . S
C2781 H2767 0.929 . S
C2781 C2780 1.399 . S
C2781 C2782 1.385 . S
C2782 H2768 0.931 . S
C2782 C2781 1.385 . S
C2782 C2783 1.389 . S
C2783 C2782 1.389 . S
C2783 C2784 1.387 . S
C2784 H2769 0.930 . S
C2784 C2779 1.390 . S
C2784 C2783 1.387 . S
H2785 C2797 0.930 . S
H2786 C2799 0.930 . S
H2787 C2800 0.930 . S
H2788 C2804 0.959 . S
H2789 C2804 0.959 . S
H2790 C2804 0.961 . S
H2791 C2805 0.960 . S
H2792 C2805 0.961 . S
H2793 C2805 0.959 . S
H2794 C2808 0.929 . S
H2795 C2809 0.931 . S
H2796 C2811 0.930 . S
C2797 H2785 0.930 . S
C2797 C2798 1.399 . S
C2797 C2802 1.399 . S
C2798 C2797 1.399 . S
C2798 C2799 1.376 1_554 S
C2799 H2786 0.930 . S
C2799 C2798 1.376 1_556 S
C2799 C2800 1.388 . S
C2800 H2787 0.930 . S
C2800 C2799 1.388 . S
C2800 C2801 1.381 1_556 S
C2801 C2800 1.381 1_554 S
C2801 C2802 1.406 . S
C2801 C2807 1.464 . S
C2802 C2797 1.399 . S
C2802 C2801 1.406 . S
C2802 C2803 1.516 . S
C2803 C2802 1.516 . S
C2803 C2804 1.502 . S
C2803 C2805 1.561 . S
C2803 C2806 1.526 . S
C2804 H2788 0.959 . S
C2804 H2789 0.959 . S
C2804 H2790 0.961 . S
C2804 C2803 1.502 . S
C2805 H2791 0.960 . S
C2805 H2792 0.961 . S
C2805 H2793 0.959 . S
C2805 C2803 1.561 . S
C2806 C2803 1.526 . S
C2806 C2807 1.396 . S
C2806 C2811 1.390 . S
C2807 C2801 1.464 . S
C2807 C2806 1.396 . S
C2807 C2808 1.399 1_554 S
C2808 H2794 0.929 . S
C2808 C2807 1.399 1_556 S
C2808 C2809 1.385 . S
C2809 H2795 0.931 . S
C2809 C2808 1.385 . S
C2809 C2810 1.389 1_556 S
C2810 C2809 1.389 1_554 S
C2810 C2811 1.387 . S
C2811 H2796 0.930 . S
C2811 C2806 1.390 . S
C2811 C2810 1.387 . S
H2812 C2824 0.930 . S
H2813 C2826 0.930 . S
H2814 C2827 0.930 . S
H2815 C2831 0.959 . S
H2816 C2831 0.959 . S
H2817 C2831 0.961 . S
H2818 C2832 0.960 . S
H2819 C2832 0.961 . S
H2820 C2832 0.959 . S
H2821 C2835 0.929 . S
H2822 C2836 0.931 . S
H2823 C2838 0.930 . S
C2824 H2812 0.930 . S
C2824 C2825 1.399 . S
C2824 C2829 1.399 . S
C2825 C2824 1.399 . S
C2825 C2826 1.376 . S
C2826 H2813 0.930 . S
C2826 C2825 1.376 . S
C2826 C2827 1.388 . S
C2827 H2814 0.930 . S
C2827 C2826 1.388 . S
C2827 C2828 1.390 . S
C2828 C2827 1.390 . S
C2828 C2829 1.394 . S
C2828 C2834 1.465 . S
C2829 C2824 1.399 . S
C2829 C2828 1.394 . S
C2829 C2830 1.516 . S
C2830 C2829 1.516 . S
C2830 C2831 1.502 . S
C2830 C2832 1.561 . S
C2830 C2833 1.526 . S
C2831 H2815 0.959 . S
C2831 H2816 0.959 . S
C2831 H2817 0.961 . S
C2831 C2830 1.502 . S
C2832 H2818 0.960 . S
C2832 H2819 0.961 . S
C2832 H2820 0.959 . S
C2832 C2830 1.561 . S
C2833 C2830 1.526 . S
C2833 C2834 1.396 . S
C2833 C2838 1.390 . S
C2834 C2828 1.465 . S
C2834 C2833 1.396 . S
C2834 C2835 1.399 . S
C2835 H2821 0.929 . S
C2835 C2834 1.399 . S
C2835 C2836 1.385 . S
C2836 H2822 0.931 . S
C2836 C2835 1.385 . S
C2836 C2837 1.389 . S
C2837 C2836 1.389 . S
C2837 C2838 1.387 . S
C2838 H2823 0.930 . S
C2838 C2833 1.390 . S
C2838 C2837 1.387 . S
H2839 C2851 0.930 . S
H2840 C2853 0.930 . S
H2841 C2854 0.930 . S
H2842 C2858 0.959 . S
H2843 C2858 0.959 . S
H2844 C2858 0.973 . S
H2845 C2859 0.960 1_556 S
H2846 C2859 0.961 . S
H2847 C2859 0.959 . S
H2848 C2862 0.929 . S
H2849 C2863 0.931 . S
H2850 C2865 0.930 . S
C2851 H2839 0.930 . S
C2851 C2852 1.399 . S
C2851 C2856 1.399 . S
C2852 C2851 1.399 . S
C2852 C2853 1.376 . S
C2853 H2840 0.930 . S
C2853 C2852 1.376 . S
C2853 C2854 1.388 . S
C2854 H2841 0.930 . S
C2854 C2853 1.388 . S
C2854 C2855 1.390 . S
C2855 C2854 1.390 . S
C2855 C2856 1.394 . S
C2855 C2861 1.465 . S
C2856 C2851 1.399 . S
C2856 C2855 1.394 . S
C2856 C2857 1.516 . S
C2857 C2856 1.516 . S
C2857 C2858 1.502 . S
C2857 C2859 1.561 . S
C2857 C2860 1.526 . S
C2858 H2842 0.959 . S
C2858 H2843 0.959 . S
C2858 H2844 0.973 . S
C2858 C2857 1.502 . S
C2859 H2845 0.960 1_554 S
C2859 H2846 0.961 . S
C2859 H2847 0.959 . S
C2859 C2857 1.561 . S
C2860 C2857 1.526 . S
C2860 C2861 1.396 . S
C2860 C2865 1.390 . S
C2861 C2855 1.465 . S
C2861 C2860 1.396 . S
C2861 C2862 1.399 . S
C2862 H2848 0.929 . S
C2862 C2861 1.399 . S
C2862 C2863 1.385 . S
C2863 H2849 0.931 . S
C2863 C2862 1.385 . S
C2863 C2864 1.389 . S
C2864 C2863 1.389 . S
C2864 C2865 1.387 . S
C2865 H2850 0.930 . S
C2865 C2860 1.390 . S
C2865 C2864 1.387 . S
H2866 C2878 0.930 . S
H2867 C2880 0.930 . S
H2868 C2881 0.930 . S
H2869 C2885 0.959 . S
H2870 C2885 0.959 . S
H2871 C2885 0.961 . S
H2872 C2886 0.960 . S
H2873 C2886 0.961 . S
H2874 C2886 0.959 . S
H2875 C2889 0.929 . S
H2876 C2890 0.931 . S
H2877 C2892 0.930 . S
C2878 H2866 0.930 . S
C2878 C2879 1.399 . S
C2878 C2883 1.399 . S
C2879 C2878 1.399 . S
C2879 C2880 1.376 . S
C2880 H2867 0.930 . S
C2880 C2879 1.376 . S
C2880 C2881 1.388 . S
C2881 H2868 0.930 . S
C2881 C2880 1.388 . S
C2881 C2882 1.390 . S
C2882 C2881 1.390 . S
C2882 C2883 1.394 . S
C2882 C2888 1.465 . S
C2883 C2878 1.399 . S
C2883 C2882 1.394 . S
C2883 C2884 1.516 . S
C2884 C2883 1.516 . S
C2884 C2885 1.502 . S
C2884 C2886 1.561 . S
C2884 C2887 1.526 . S
C2885 H2869 0.959 . S
C2885 H2870 0.959 . S
C2885 H2871 0.961 . S
C2885 C2884 1.502 . S
C2886 H2872 0.960 . S
C2886 H2873 0.961 . S
C2886 H2874 0.959 . S
C2886 C2884 1.561 . S
C2887 C2884 1.526 . S
C2887 C2888 1.396 . S
C2887 C2892 1.390 . S
C2888 C2882 1.465 . S
C2888 C2887 1.396 . S
C2888 C2889 1.399 . S
C2889 H2875 0.929 . S
C2889 C2888 1.399 . S
C2889 C2890 1.385 . S
C2890 H2876 0.931 . S
C2890 C2889 1.385 . S
C2890 C2891 1.389 . S
C2891 C2890 1.389 . S
C2891 C2892 1.387 . S
C2892 H2877 0.930 . S
C2892 C2887 1.390 . S
C2892 C2891 1.387 . S
H2893 C2905 0.930 . S
H2894 C2907 0.930 . S
H2895 C2908 0.930 . S
H2896 C2912 0.959 . S
H2897 C2912 0.959 . S
H2898 C2912 0.961 . S
H2899 C2913 0.960 . S
H2900 C2913 0.961 . S
H2901 C2913 0.959 . S
H2902 C2916 0.929 . S
H2903 C2917 0.931 . S
H2904 C2919 0.930 . S
C2905 H2893 0.930 . S
C2905 C2906 1.399 . S
C2905 C2910 1.399 . S
C2906 C2905 1.399 . S
C2906 C2907 1.376 . S
C2907 H2894 0.930 . S
C2907 C2906 1.376 . S
C2907 C2908 1.388 . S
C2908 H2895 0.930 . S
C2908 C2907 1.388 . S
C2908 C2909 1.390 . S
C2909 C2908 1.390 . S
C2909 C2910 1.394 . S
C2909 C2915 1.465 . S
C2910 C2905 1.399 . S
C2910 C2909 1.394 . S
C2910 C2911 1.516 . S
C2911 C2910 1.516 . S
C2911 C2912 1.502 . S
C2911 C2913 1.561 . S
C2911 C2914 1.526 . S
C2912 H2896 0.959 . S
C2912 H2897 0.959 . S
C2912 H2898 0.961 . S
C2912 C2911 1.502 . S
C2913 H2899 0.960 . S
C2913 H2900 0.961 . S
C2913 H2901 0.959 . S
C2913 C2911 1.561 . S
C2914 C2911 1.526 . S
C2914 C2915 1.396 . S
C2914 C2919 1.390 . S
C2915 C2909 1.465 . S
C2915 C2914 1.396 . S
C2915 C2916 1.399 . S
C2916 H2902 0.929 . S
C2916 C2915 1.399 . S
C2916 C2917 1.385 . S
C2917 H2903 0.931 . S
C2917 C2916 1.385 . S
C2917 C2918 1.389 . S
C2918 C2917 1.389 . S
C2918 C2919 1.387 . S
C2919 H2904 0.930 . S
C2919 C2914 1.390 . S
C2919 C2918 1.387 . S
H2920 C2932 0.930 . S
H2921 C2934 0.930 . S
H2922 C2935 0.930 . S
H2923 C2939 0.959 . S
H2924 C2939 0.959 . S
H2925 C2939 0.961 . S
H2926 C2940 0.960 . S
H2927 C2940 0.961 . S
H2928 C2940 0.959 . S
H2929 C2943 0.929 . S
H2930 C2944 0.931 . S
H2931 C2946 0.930 . S
C2932 H2920 0.930 . S
C2932 C2933 1.399 . S
C2932 C2937 1.399 . S
C2933 C2932 1.399 . S
C2933 C2934 1.376 . S
C2934 H2921 0.930 . S
C2934 C2933 1.376 . S
C2934 C2935 1.388 . S
C2935 H2922 0.930 . S
C2935 C2934 1.388 . S
C2935 C2936 1.390 . S
C2936 C2935 1.390 . S
C2936 C2937 1.394 . S
C2936 C2942 1.465 . S
C2937 C2932 1.399 . S
C2937 C2936 1.394 . S
C2937 C2938 1.516 . S
C2938 C2937 1.516 . S
C2938 C2939 1.502 . S
C2938 C2940 1.561 . S
C2938 C2941 1.526 . S
C2939 H2923 0.959 . S
C2939 H2924 0.959 . S
C2939 H2925 0.961 . S
C2939 C2938 1.502 . S
C2940 H2926 0.960 . S
C2940 H2927 0.961 . S
C2940 H2928 0.959 . S
C2940 C2938 1.561 . S
C2941 C2938 1.526 . S
C2941 C2942 1.396 . S
C2941 C2946 1.390 . S
C2942 C2936 1.465 . S
C2942 C2941 1.396 . S
C2942 C2943 1.399 . S
C2943 H2929 0.929 . S
C2943 C2942 1.399 . S
C2943 C2944 1.385 . S
C2944 H2930 0.931 . S
C2944 C2943 1.385 . S
C2944 C2945 1.389 . S
C2945 C2944 1.389 . S
C2945 C2946 1.387 . S
C2946 H2931 0.930 . S
C2946 C2941 1.390 . S
C2946 C2945 1.387 . S
H2947 C2959 0.930 . S
H2948 C2961 0.930 . S
H2949 C2962 0.930 . S
H2950 C2966 0.959 . S
H2951 C2966 0.959 . S
H2952 C2966 0.961 . S
H2953 C2967 0.960 . S
H2954 C2967 0.961 . S
H2955 C2967 0.959 . S
H2956 C2970 0.929 . S
H2957 C2971 0.931 . S
H2958 C2973 0.930 . S
C2959 H2947 0.930 . S
C2959 C2960 1.399 . S
C2959 C2964 1.399 . S
C2960 C2959 1.399 . S
C2960 C2961 1.376 . S
C2961 H2948 0.930 . S
C2961 C2960 1.376 . S
C2961 C2962 1.388 . S
C2962 H2949 0.930 . S
C2962 C2961 1.388 . S
C2962 C2963 1.390 . S
C2963 C2962 1.390 . S
C2963 C2964 1.394 . S
C2963 C2969 1.465 . S
C2964 C2959 1.399 . S
C2964 C2963 1.394 . S
C2964 C2965 1.516 . S
C2965 C2964 1.516 . S
C2965 C2966 1.502 . S
C2965 C2967 1.561 . S
C2965 C2968 1.526 . S
C2966 H2950 0.959 . S
C2966 H2951 0.959 . S
C2966 H2952 0.961 . S
C2966 C2965 1.502 . S
C2967 H2953 0.960 . S
C2967 H2954 0.961 . S
C2967 H2955 0.959 . S
C2967 C2965 1.561 . S
C2968 C2965 1.526 . S
C2968 C2969 1.396 . S
C2968 C2973 1.390 . S
C2969 C2963 1.465 . S
C2969 C2968 1.396 . S
C2969 C2970 1.399 . S
C2970 H2956 0.929 . S
C2970 C2969 1.399 . S
C2970 C2971 1.385 . S
C2971 H2957 0.931 . S
C2971 C2970 1.385 . S
C2971 C2972 1.389 . S
C2972 C2971 1.389 . S
C2972 C2973 1.387 . S
C2973 H2958 0.930 . S
C2973 C2968 1.390 . S
C2973 C2972 1.387 . S
H2974 C2986 0.930 . S
H2975 C2988 0.930 . S
H2976 C2989 0.930 . S
H2977 C2993 0.959 . S
H2978 C2993 0.959 . S
H2979 C2993 0.961 . S
H2980 C2994 0.960 . S
H2981 C2994 0.961 . S
H2982 C2994 0.959 . S
H2983 C2997 0.929 . S
H2984 C2998 0.931 . S
H2985 C3000 0.930 . S
C2986 H2974 0.930 . S
C2986 C2987 1.399 . S
C2986 C2991 1.399 . S
C2987 C2986 1.399 . S
C2987 C2988 1.376 . S
C2988 H2975 0.930 . S
C2988 C2987 1.376 . S
C2988 C2989 1.388 . S
C2989 H2976 0.930 . S
C2989 C2988 1.388 . S
C2989 C2990 1.390 . S
C2990 C2989 1.390 . S
C2990 C2991 1.394 . S
C2990 C2996 1.465 . S
C2991 C2986 1.399 . S
C2991 C2990 1.394 . S
C2991 C2992 1.516 . S
C2992 C2991 1.516 . S
C2992 C2993 1.502 . S
C2992 C2994 1.561 . S
C2992 C2995 1.526 . S
C2993 H2977 0.959 . S
C2993 H2978 0.959 . S
C2993 H2979 0.961 . S
C2993 C2992 1.502 . S
C2994 H2980 0.960 . S
C2994 H2981 0.961 . S
C2994 H2982 0.959 . S
C2994 C2992 1.561 . S
C2995 C2992 1.526 . S
C2995 C2996 1.396 . S
C2995 C3000 1.390 . S
C2996 C2990 1.465 . S
C2996 C2995 1.396 . S
C2996 C2997 1.399 . S
C2997 H2983 0.929 . S
C2997 C2996 1.399 . S
C2997 C2998 1.385 . S
C2998 H2984 0.931 . S
C2998 C2997 1.385 . S
C2998 C2999 1.389 . S
C2999 C2998 1.389 . S
C2999 C3000 1.387 . S
C3000 H2985 0.930 . S
C3000 C2995 1.390 . S
C3000 C2999 1.387 . S
H3001 C3013 0.930 . S
H3002 C3015 0.930 . S
H3003 C3016 0.930 . S
H3004 C3020 0.959 . S
H3005 C3020 0.959 . S
H3006 C3020 0.961 . S
H3007 C3021 0.960 . S
H3008 C3021 0.961 . S
H3009 C3021 0.959 . S
H3010 C3024 0.929 . S
H3011 C3025 0.931 . S
H3012 C3027 0.930 . S
C3013 H3001 0.930 . S
C3013 C3014 1.399 . S
C3013 C3018 1.399 . S
C3014 C3013 1.399 . S
C3014 C3015 1.376 . S
C3015 H3002 0.930 . S
C3015 C3014 1.376 . S
C3015 C3016 1.388 . S
C3016 H3003 0.930 . S
C3016 C3015 1.388 . S
C3016 C3017 1.390 . S
C3017 C3016 1.390 . S
C3017 C3018 1.394 . S
C3017 C3023 1.465 . S
C3018 C3013 1.399 . S
C3018 C3017 1.394 . S
C3018 C3019 1.516 . S
C3019 C3018 1.516 . S
C3019 C3020 1.502 . S
C3019 C3021 1.561 . S
C3019 C3022 1.526 . S
C3020 H3004 0.959 . S
C3020 H3005 0.959 . S
C3020 H3006 0.961 . S
C3020 C3019 1.502 . S
C3021 H3007 0.960 . S
C3021 H3008 0.961 . S
C3021 H3009 0.959 . S
C3021 C3019 1.561 . S
C3022 C3019 1.526 . S
C3022 C3023 1.396 . S
C3022 C3027 1.390 . S
C3023 C3017 1.465 . S
C3023 C3022 1.396 . S
C3023 C3024 1.399 . S
C3024 H3010 0.929 . S
C3024 C3023 1.399 . S
C3024 C3025 1.385 . S
C3025 H3011 0.931 . S
C3025 C3024 1.385 . S
C3025 C3026 1.389 . S
C3026 C3025 1.389 . S
C3026 C3027 1.387 . S
C3027 H3012 0.930 . S
C3027 C3022 1.390 . S
C3027 C3026 1.387 . S
H3028 C3040 0.930 1_554 S
H3029 C3042 0.930 . S
H3030 C3043 0.930 . S
H3031 C3047 0.959 . S
H3032 C3047 0.959 . S
H3033 C3047 0.961 . S
H3034 C3048 0.960 . S
H3035 C3048 0.961 . S
H3036 C3048 0.959 . S
H3037 C3051 0.929 . S
H3038 C3052 0.931 . S
H3039 C3054 0.930 . S
C3040 H3028 0.930 1_556 S
C3040 C3041 1.399 . S
C3040 C3045 1.399 . S
C3041 C3040 1.399 . S
C3041 C3042 1.376 . S
C3042 H3029 0.930 . S
C3042 C3041 1.376 . S
C3042 C3043 1.388 . S
C3043 H3030 0.930 . S
C3043 C3042 1.388 . S
C3043 C3044 1.390 . S
C3044 C3043 1.390 . S
C3044 C3045 1.394 . S
C3044 C3050 1.465 . S
C3045 C3040 1.399 . S
C3045 C3044 1.394 . S
C3045 C3046 1.516 1_556 S
C3046 C3045 1.516 1_554 S
C3046 C3047 1.502 . S
C3046 C3048 1.561 . S
C3046 C3049 1.526 . S
C3047 H3031 0.959 . S
C3047 H3032 0.959 . S
C3047 H3033 0.961 . S
C3047 C3046 1.502 . S
C3048 H3034 0.960 . S
C3048 H3035 0.961 . S
C3048 H3036 0.959 . S
C3048 C3046 1.561 . S
C3049 C3046 1.526 . S
C3049 C3050 1.396 1_554 S
C3049 C3054 1.390 . S
C3050 C3044 1.465 . S
C3050 C3049 1.396 1_556 S
C3050 C3051 1.399 . S
C3051 H3037 0.929 . S
C3051 C3050 1.399 . S
C3051 C3052 1.385 . S
C3052 H3038 0.931 . S
C3052 C3051 1.385 . S
C3052 C3053 1.411 . S
C3053 C3052 1.411 . S
C3053 C3054 1.378 1_556 S
C3054 H3039 0.930 . S
C3054 C3049 1.390 . S
C3054 C3053 1.378 1_554 S
H3055 C3067 0.930 . S
H3056 C3069 0.930 . S
H3057 C3070 0.930 . S
H3058 C3074 0.959 . S
H3059 C3074 0.959 . S
H3060 C3074 0.961 . S
H3061 C3075 0.960 . S
H3062 C3075 0.961 . S
H3063 C3075 0.959 . S
H3064 C3078 0.929 . S
H3065 C3079 0.931 . S
H3066 C3081 0.930 . S
C3067 H3055 0.930 . S
C3067 C3068 1.399 . S
C3067 C3072 1.399 . S
C3068 C3067 1.399 . S
C3068 C3069 1.376 . S
C3069 H3056 0.930 . S
C3069 C3068 1.376 . S
C3069 C3070 1.388 . S
C3070 H3057 0.930 . S
C3070 C3069 1.388 . S
C3070 C3071 1.390 . S
C3071 C3070 1.390 . S
C3071 C3072 1.394 . S
C3071 C3077 1.465 . S
C3072 C3067 1.399 . S
C3072 C3071 1.394 . S
C3072 C3073 1.516 . S
C3073 C3072 1.516 . S
C3073 C3074 1.502 . S
C3073 C3075 1.561 . S
C3073 C3076 1.526 . S
C3074 H3058 0.959 . S
C3074 H3059 0.959 . S
C3074 H3060 0.961 . S
C3074 C3073 1.502 . S
C3075 H3061 0.960 . S
C3075 H3062 0.961 . S
C3075 H3063 0.959 . S
C3075 C3073 1.561 . S
C3076 C3073 1.526 . S
C3076 C3077 1.396 . S
C3076 C3081 1.390 . S
C3077 C3071 1.465 . S
C3077 C3076 1.396 . S
C3077 C3078 1.399 . S
C3078 H3064 0.929 . S
C3078 C3077 1.399 . S
C3078 C3079 1.385 . S
C3079 H3065 0.931 . S
C3079 C3078 1.385 . S
C3079 C3080 1.389 . S
C3080 C3079 1.389 . S
C3080 C3081 1.387 . S
C3081 H3066 0.930 . S
C3081 C3076 1.390 . S
C3081 C3080 1.387 . S
H3082 C3094 0.930 . S
H3083 C3096 0.930 . S
H3084 C3097 0.930 . S
H3085 C3101 0.959 . S
H3086 C3101 0.959 . S
H3087 C3101 0.961 . S
H3088 C3102 0.960 . S
H3089 C3102 0.961 . S
H3090 C3102 0.959 . S
H3091 C3105 0.929 1_655 S
H3092 C3106 0.931 1_655 S
H3093 C3108 0.930 . S
C3094 H3082 0.930 . S
C3094 C3095 1.399 . S
C3094 C3099 1.399 . S
C3095 C3094 1.399 . S
C3095 C3096 1.376 . S
C3096 H3083 0.930 . S
C3096 C3095 1.376 . S
C3096 C3097 1.388 . S
C3097 H3084 0.930 . S
C3097 C3096 1.388 . S
C3097 C3098 1.390 . S
C3098 C3097 1.390 . S
C3098 C3099 1.394 . S
C3098 C3104 1.465 . S
C3099 C3094 1.399 . S
C3099 C3098 1.394 . S
C3099 C3100 1.516 . S
C3100 C3099 1.516 . S
C3100 C3101 1.502 . S
C3100 C3102 1.561 . S
C3100 C3103 1.526 . S
C3101 H3085 0.959 . S
C3101 H3086 0.959 . S
C3101 H3087 0.961 . S
C3101 C3100 1.502 . S
C3102 H3088 0.960 . S
C3102 H3089 0.961 . S
C3102 H3090 0.959 . S
C3102 C3100 1.561 . S
C3103 C3100 1.526 . S
C3103 C3104 1.396 . S
C3103 C3108 1.390 . S
C3104 C3098 1.465 . S
C3104 C3103 1.396 . S
C3104 C3105 1.399 . S
C3105 H3091 0.929 1_455 S
C3105 C3104 1.399 . S
C3105 C3106 1.385 . S
C3106 H3092 0.931 1_455 S
C3106 C3105 1.385 . S
C3106 C3107 1.389 . S
C3107 C3106 1.389 . S
C3107 C3108 1.387 . S
C3108 H3093 0.930 . S
C3108 C3103 1.390 . S
C3108 C3107 1.387 . S
H3109 C3121 0.930 . S
H3110 C3123 0.930 . S
H3111 C3124 0.930 . S
H3112 C3128 0.959 . S
H3113 C3128 0.959 . S
H3114 C3128 0.961 . S
H3115 C3129 0.960 . S
H3116 C3129 0.961 . S
H3117 C3129 0.959 . S
H3118 C3132 0.929 . S
H3119 C3133 0.931 . S
H3120 C3135 0.930 . S
C3121 H3109 0.930 . S
C3121 C3122 1.399 . S
C3121 C3126 1.399 . S
C3122 C3121 1.399 . S
C3122 C3123 1.376 . S
C3123 H3110 0.930 . S
C3123 C3122 1.376 . S
C3123 C3124 1.388 . S
C3124 H3111 0.930 . S
C3124 C3123 1.388 . S
C3124 C3125 1.390 . S
C3125 C3124 1.390 . S
C3125 C3126 1.394 . S
C3125 C3131 1.465 . S
C3126 C3121 1.399 . S
C3126 C3125 1.394 . S
C3126 C3127 1.516 . S
C3127 C3126 1.516 . S
C3127 C3128 1.502 . S
C3127 C3129 1.561 . S
C3127 C3130 1.526 . S
C3128 H3112 0.959 . S
C3128 H3113 0.959 . S
C3128 H3114 0.961 . S
C3128 C3127 1.502 . S
C3129 H3115 0.960 . S
C3129 H3116 0.961 . S
C3129 H3117 0.959 . S
C3129 C3127 1.561 . S
C3130 C3127 1.526 . S
C3130 C3131 1.396 . S
C3130 C3135 1.390 . S
C3131 C3125 1.465 . S
C3131 C3130 1.396 . S
C3131 C3132 1.399 . S
C3132 H3118 0.929 . S
C3132 C3131 1.399 . S
C3132 C3133 1.385 . S
C3133 H3119 0.931 . S
C3133 C3132 1.385 . S
C3133 C3134 1.389 . S
C3134 C3133 1.389 . S
C3134 C3135 1.387 . S
C3135 H3120 0.930 . S
C3135 C3130 1.390 . S
C3135 C3134 1.387 . S
H3136 C3148 0.930 . S
H3137 C3150 0.930 . S
H3138 C3151 0.930 . S
H3139 C3155 0.959 . S
H3140 C3155 0.959 . S
H3141 C3155 0.961 . S
H3142 C3156 0.960 . S
H3143 C3156 0.961 . S
H3144 C3156 0.959 . S
H3145 C3159 0.929 . S
H3146 C3160 0.931 . S
H3147 C3162 0.930 . S
C3148 H3136 0.930 . S
C3148 C3149 1.399 . S
C3148 C3153 1.399 . S
C3149 C3148 1.399 . S
C3149 C3150 1.376 . S
C3150 H3137 0.930 . S
C3150 C3149 1.376 . S
C3150 C3151 1.388 . S
C3151 H3138 0.930 . S
C3151 C3150 1.388 . S
C3151 C3152 1.390 . S
C3152 C3151 1.390 . S
C3152 C3153 1.394 . S
C3152 C3158 1.465 . S
C3153 C3148 1.399 . S
C3153 C3152 1.394 . S
C3153 C3154 1.516 . S
C3154 C3153 1.516 . S
C3154 C3155 1.502 . S
C3154 C3156 1.561 . S
C3154 C3157 1.526 . S
C3155 H3139 0.959 . S
C3155 H3140 0.959 . S
C3155 H3141 0.961 . S
C3155 C3154 1.502 . S
C3156 H3142 0.960 . S
C3156 H3143 0.961 . S
C3156 H3144 0.959 . S
C3156 C3154 1.561 . S
C3157 C3154 1.526 . S
C3157 C3158 1.396 . S
C3157 C3162 1.390 . S
C3158 C3152 1.465 . S
C3158 C3157 1.396 . S
C3158 C3159 1.399 . S
C3159 H3145 0.929 . S
C3159 C3158 1.399 . S
C3159 C3160 1.385 . S
C3160 H3146 0.931 . S
C3160 C3159 1.385 . S
C3160 C3161 1.389 . S
C3161 C3160 1.389 . S
C3161 C3162 1.387 . S
C3162 H3147 0.930 . S
C3162 C3157 1.390 . S
C3162 C3161 1.387 . S
H3163 C3175 0.930 . S
H3164 C3177 0.930 . S
H3165 C3178 0.930 . S
H3166 C3182 0.959 . S
H3167 C3182 0.959 . S
H3168 C3182 0.961 . S
H3169 C3183 0.960 . S
H3170 C3183 0.961 . S
H3171 C3183 0.959 . S
H3172 C3186 0.929 . S
H3173 C3187 0.931 . S
H3174 C3189 0.930 . S
C3175 H3163 0.930 . S
C3175 C3176 1.399 . S
C3175 C3180 1.399 . S
C3176 C3175 1.399 . S
C3176 C3177 1.376 . S
C3177 H3164 0.930 . S
C3177 C3176 1.376 . S
C3177 C3178 1.388 . S
C3178 H3165 0.930 . S
C3178 C3177 1.388 . S
C3178 C3179 1.390 . S
C3179 C3178 1.390 . S
C3179 C3180 1.394 . S
C3179 C3185 1.465 . S
C3180 C3175 1.399 . S
C3180 C3179 1.394 . S
C3180 C3181 1.516 . S
C3181 C3180 1.516 . S
C3181 C3182 1.502 . S
C3181 C3183 1.561 . S
C3181 C3184 1.526 . S
C3182 H3166 0.959 . S
C3182 H3167 0.959 . S
C3182 H3168 0.961 . S
C3182 C3181 1.502 . S
C3183 H3169 0.960 . S
C3183 H3170 0.961 . S
C3183 H3171 0.959 . S
C3183 C3181 1.561 . S
C3184 C3181 1.526 . S
C3184 C3185 1.396 . S
C3184 C3189 1.390 . S
C3185 C3179 1.465 . S
C3185 C3184 1.396 . S
C3185 C3186 1.399 . S
C3186 H3172 0.929 . S
C3186 C3185 1.399 . S
C3186 C3187 1.385 . S
C3187 H3173 0.931 . S
C3187 C3186 1.385 . S
C3187 C3188 1.389 . S
C3188 C3187 1.389 . S
C3188 C3189 1.387 . S
C3189 H3174 0.930 . S
C3189 C3184 1.390 . S
C3189 C3188 1.387 . S
H3190 C3202 0.930 . S
H3191 C3204 0.930 . S
H3192 C3205 0.930 . S
H3193 C3209 0.959 1_455 S
H3194 C3209 0.959 1_455 S
H3195 C3209 0.961 . S
H3196 C3210 0.960 . S
H3197 C3210 0.961 . S
H3198 C3210 0.959 . S
H3199 C3213 0.929 . S
H3200 C3214 0.931 . S
H3201 C3216 0.930 1_455 S
C3202 H3190 0.930 . S
C3202 C3203 1.399 . S
C3202 C3207 1.399 . S
C3203 C3202 1.399 . S
C3203 C3204 1.376 . S
C3204 H3191 0.930 . S
C3204 C3203 1.376 . S
C3204 C3205 1.388 . S
C3205 H3192 0.930 . S
C3205 C3204 1.388 . S
C3205 C3206 1.390 . S
C3206 C3205 1.390 . S
C3206 C3207 1.394 . S
C3206 C3212 1.465 . S
C3207 C3202 1.399 . S
C3207 C3206 1.394 . S
C3207 C3208 1.516 . S
C3208 C3207 1.516 . S
C3208 C3209 1.502 . S
C3208 C3210 1.561 . S
C3208 C3211 1.526 . S
C3209 H3193 0.959 1_655 S
C3209 H3194 0.959 1_655 S
C3209 H3195 0.961 . S
C3209 C3208 1.502 . S
C3210 H3196 0.960 . S
C3210 H3197 0.961 . S
C3210 H3198 0.959 . S
C3210 C3208 1.561 . S
C3211 C3208 1.526 . S
C3211 C3212 1.396 . S
C3211 C3216 1.390 . S
C3212 C3206 1.465 . S
C3212 C3211 1.396 . S
C3212 C3213 1.399 . S
C3213 H3199 0.929 . S
C3213 C3212 1.399 . S
C3213 C3214 1.385 . S
C3214 H3200 0.931 . S
C3214 C3213 1.385 . S
C3214 C3215 1.389 . S
C3215 C3214 1.389 . S
C3215 C3216 1.387 . S
C3216 H3201 0.930 1_655 S
C3216 C3211 1.390 . S
C3216 C3215 1.387 . S
H3217 C3229 0.930 . S
H3218 C3231 0.930 . S
H3219 C3232 0.930 . S
H3220 C3236 0.959 . S
H3221 C3236 0.959 . S
H3222 C3236 0.961 . S
H3223 C3237 0.960 . S
H3224 C3237 0.961 . S
H3225 C3237 0.959 . S
H3226 C3240 0.929 . S
H3227 C3241 0.931 . S
H3228 C3243 0.930 . S
C3229 H3217 0.930 . S
C3229 C3230 1.399 . S
C3229 C3234 1.399 . S
C3230 C3229 1.399 . S
C3230 C3231 1.376 . S
C3231 H3218 0.930 . S
C3231 C3230 1.376 . S
C3231 C3232 1.388 . S
C3232 H3219 0.930 . S
C3232 C3231 1.388 . S
C3232 C3233 1.390 . S
C3233 C3232 1.390 . S
C3233 C3234 1.394 . S
C3233 C3239 1.465 . S
C3234 C3229 1.399 . S
C3234 C3233 1.394 . S
C3234 C3235 1.516 . S
C3235 C3234 1.516 . S
C3235 C3236 1.502 . S
C3235 C3237 1.561 . S
C3235 C3238 1.526 . S
C3236 H3220 0.959 . S
C3236 H3221 0.959 . S
C3236 H3222 0.961 . S
C3236 C3235 1.502 . S
C3237 H3223 0.960 . S
C3237 H3224 0.961 . S
C3237 H3225 0.959 . S
C3237 C3235 1.561 . S
C3238 C3235 1.526 . S
C3238 C3239 1.396 . S
C3238 C3243 1.390 . S
C3239 C3233 1.465 . S
C3239 C3238 1.396 . S
C3239 C3240 1.399 . S
C3240 H3226 0.929 . S
C3240 C3239 1.399 . S
C3240 C3241 1.385 . S
C3241 H3227 0.931 . S
C3241 C3240 1.385 . S
C3241 C3242 1.389 . S
C3242 C3241 1.389 . S
C3242 C3243 1.387 . S
C3243 H3228 0.930 . S
C3243 C3238 1.390 . S
C3243 C3242 1.387 . S
H3244 C3256 0.930 . S
H3245 C3258 0.930 . S
H3246 C3259 0.930 . S
H3247 C3263 0.959 . S
H3248 C3263 0.959 . S
H3249 C3263 0.961 . S
H3250 C3264 0.960 . S
H3251 C3264 0.961 . S
H3252 C3264 0.959 . S
H3253 C3267 0.929 . S
H3254 C3268 0.931 . S
H3255 C3270 0.930 . S
C3256 H3244 0.930 . S
C3256 C3257 1.399 . S
C3256 C3261 1.399 . S
C3257 C3256 1.399 . S
C3257 C3258 1.376 . S
C3258 H3245 0.930 . S
C3258 C3257 1.376 . S
C3258 C3259 1.388 . S
C3259 H3246 0.930 . S
C3259 C3258 1.388 . S
C3259 C3260 1.390 . S
C3260 C3259 1.390 . S
C3260 C3261 1.394 . S
C3260 C3266 1.465 . S
C3261 C3256 1.399 . S
C3261 C3260 1.394 . S
C3261 C3262 1.516 . S
C3262 C3261 1.516 . S
C3262 C3263 1.502 . S
C3262 C3264 1.561 . S
C3262 C3265 1.526 . S
C3263 H3247 0.959 . S
C3263 H3248 0.959 . S
C3263 H3249 0.961 . S
C3263 C3262 1.502 . S
C3264 H3250 0.960 . S
C3264 H3251 0.961 . S
C3264 H3252 0.959 . S
C3264 C3262 1.561 . S
C3265 C3262 1.526 . S
C3265 C3266 1.396 . S
C3265 C3270 1.390 . S
C3266 C3260 1.465 . S
C3266 C3265 1.396 . S
C3266 C3267 1.399 . S
C3267 H3253 0.929 . S
C3267 C3266 1.399 . S
C3267 C3268 1.385 . S
C3268 H3254 0.931 . S
C3268 C3267 1.385 . S
C3268 C3269 1.389 . S
C3269 C3268 1.389 . S
C3269 C3270 1.387 . S
C3270 H3255 0.930 . S
C3270 C3265 1.390 . S
C3270 C3269 1.387 . S
H3271 C3283 0.930 . S
H3272 C3285 0.930 . S
H3273 C3286 0.930 . S
H3274 C3290 0.959 . S
H3275 C3290 0.959 . S
H3276 C3290 0.961 . S
H3277 C3291 0.960 . S
H3278 C3291 0.961 . S
H3279 C3291 0.959 . S
H3280 C3294 0.929 . S
H3281 C3295 0.931 . S
H3282 C3297 0.930 . S
C3283 H3271 0.930 . S
C3283 C3284 1.399 . S
C3283 C3288 1.399 . S
C3284 C3283 1.399 . S
C3284 C3285 1.376 . S
C3285 H3272 0.930 . S
C3285 C3284 1.376 . S
C3285 C3286 1.388 . S
C3286 H3273 0.930 . S
C3286 C3285 1.388 . S
C3286 C3287 1.390 . S
C3287 C3286 1.390 . S
C3287 C3288 1.394 . S
C3287 C3293 1.465 . S
C3288 C3283 1.399 . S
C3288 C3287 1.394 . S
C3288 C3289 1.516 . S
C3289 C3288 1.516 . S
C3289 C3290 1.502 . S
C3289 C3291 1.561 . S
C3289 C3292 1.526 . S
C3290 H3274 0.959 . S
C3290 H3275 0.959 . S
C3290 H3276 0.961 . S
C3290 C3289 1.502 . S
C3291 H3277 0.960 . S
C3291 H3278 0.961 . S
C3291 H3279 0.959 . S
C3291 C3289 1.561 . S
C3292 C3289 1.526 . S
C3292 C3293 1.396 . S
C3292 C3297 1.390 . S
C3293 C3287 1.465 . S
C3293 C3292 1.396 . S
C3293 C3294 1.399 . S
C3294 H3280 0.929 . S
C3294 C3293 1.399 . S
C3294 C3295 1.385 . S
C3295 H3281 0.931 . S
C3295 C3294 1.385 . S
C3295 C3296 1.389 . S
C3296 C3295 1.389 . S
C3296 C3297 1.387 . S
C3297 H3282 0.930 . S
C3297 C3292 1.390 . S
C3297 C3296 1.387 . S
H3298 C3310 0.930 . S
H3299 C3312 0.930 . S
H3300 C3313 0.930 . S
H3301 C3317 0.959 . S
H3302 C3317 0.959 . S
H3303 C3317 0.961 . S
H3304 C3318 0.960 . S
H3305 C3318 0.961 . S
H3306 C3318 0.959 . S
H3307 C3321 0.929 . S
H3308 C3322 0.931 . S
H3309 C3324 0.930 . S
C3310 H3298 0.930 . S
C3310 C3311 1.399 . S
C3310 C3315 1.399 . S
C3311 C3310 1.399 . S
C3311 C3312 1.376 . S
C3312 H3299 0.930 . S
C3312 C3311 1.376 . S
C3312 C3313 1.388 . S
C3313 H3300 0.930 . S
C3313 C3312 1.388 . S
C3313 C3314 1.390 . S
C3314 C3313 1.390 . S
C3314 C3315 1.394 . S
C3314 C3320 1.465 . S
C3315 C3310 1.399 . S
C3315 C3314 1.394 . S
C3315 C3316 1.516 . S
C3316 C3315 1.516 . S
C3316 C3317 1.502 . S
C3316 C3318 1.561 . S
C3316 C3319 1.526 . S
C3317 H3301 0.959 . S
C3317 H3302 0.959 . S
C3317 H3303 0.961 . S
C3317 C3316 1.502 . S
C3318 H3304 0.960 . S
C3318 H3305 0.961 . S
C3318 H3306 0.959 . S
C3318 C3316 1.561 . S
C3319 C3316 1.526 . S
C3319 C3320 1.396 . S
C3319 C3324 1.390 . S
C3320 C3314 1.465 . S
C3320 C3319 1.396 . S
C3320 C3321 1.399 . S
C3321 H3307 0.929 . S
C3321 C3320 1.399 . S
C3321 C3322 1.385 . S
C3322 H3308 0.931 . S
C3322 C3321 1.385 . S
C3322 C3323 1.389 . S
C3323 C3322 1.389 . S
C3323 C3324 1.387 . S
C3324 H3309 0.930 . S
C3324 C3319 1.390 . S
C3324 C3323 1.387 . S
H3325 C3337 0.930 . S
H3326 C3339 0.930 . S
H3327 C3340 0.930 . S
H3328 C3344 0.959 . S
H3329 C3344 0.959 . S
H3330 C3344 0.961 . S
H3331 C3345 0.960 . S
H3332 C3345 0.961 . S
H3333 C3345 0.959 . S
H3334 C3348 0.929 . S
H3335 C3349 0.931 . S
H3336 C3351 0.930 . S
C3337 H3325 0.930 . S
C3337 C3338 1.399 . S
C3337 C3342 1.399 . S
C3338 C3337 1.399 . S
C3338 C3339 1.376 . S
C3339 H3326 0.930 . S
C3339 C3338 1.376 . S
C3339 C3340 1.388 . S
C3340 H3327 0.930 . S
C3340 C3339 1.388 . S
C3340 C3341 1.390 . S
C3341 C3340 1.390 . S
C3341 C3342 1.394 . S
C3341 C3347 1.465 . S
C3342 C3337 1.399 . S
C3342 C3341 1.394 . S
C3342 C3343 1.516 . S
C3343 C3342 1.516 . S
C3343 C3344 1.502 . S
C3343 C3345 1.561 . S
C3343 C3346 1.526 . S
C3344 H3328 0.959 . S
C3344 H3329 0.959 . S
C3344 H3330 0.961 . S
C3344 C3343 1.502 . S
C3345 H3331 0.960 . S
C3345 H3332 0.961 . S
C3345 H3333 0.959 . S
C3345 C3343 1.561 . S
C3346 C3343 1.526 . S
C3346 C3347 1.396 . S
C3346 C3351 1.390 . S
C3347 C3341 1.465 . S
C3347 C3346 1.396 . S
C3347 C3348 1.399 . S
C3348 H3334 0.929 . S
C3348 C3347 1.399 . S
C3348 C3349 1.385 . S
C3349 H3335 0.931 . S
C3349 C3348 1.385 . S
C3349 C3350 1.389 . S
C3350 C3349 1.389 . S
C3350 C3351 1.387 . S
C3351 H3336 0.930 . S
C3351 C3346 1.390 . S
C3351 C3350 1.387 . S
H3352 C3364 0.930 . S
H3353 C3366 0.930 . S
H3354 C3367 0.930 . S
H3355 C3371 0.959 . S
H3356 C3371 0.959 . S
H3357 C3371 0.961 . S
H3358 C3372 0.960 . S
H3359 C3372 0.961 . S
H3360 C3372 0.959 . S
H3361 C3375 0.929 . S
H3362 C3376 0.931 . S
H3363 C3378 0.930 . S
C3364 H3352 0.930 . S
C3364 C3365 1.399 . S
C3364 C3369 1.399 . S
C3365 C3364 1.399 . S
C3365 C3366 1.376 . S
C3366 H3353 0.930 . S
C3366 C3365 1.376 . S
C3366 C3367 1.388 . S
C3367 H3354 0.930 . S
C3367 C3366 1.388 . S
C3367 C3368 1.390 . S
C3368 C3367 1.390 . S
C3368 C3369 1.394 . S
C3368 C3374 1.465 . S
C3369 C3364 1.399 . S
C3369 C3368 1.394 . S
C3369 C3370 1.516 . S
C3370 C3369 1.516 . S
C3370 C3371 1.502 . S
C3370 C3372 1.561 . S
C3370 C3373 1.526 . S
C3371 H3355 0.959 . S
C3371 H3356 0.959 . S
C3371 H3357 0.961 . S
C3371 C3370 1.502 . S
C3372 H3358 0.960 . S
C3372 H3359 0.961 . S
C3372 H3360 0.959 . S
C3372 C3370 1.561 . S
C3373 C3370 1.526 . S
C3373 C3374 1.396 . S
C3373 C3378 1.390 . S
C3374 C3368 1.465 . S
C3374 C3373 1.396 . S
C3374 C3375 1.399 . S
C3375 H3361 0.929 . S
C3375 C3374 1.399 . S
C3375 C3376 1.385 . S
C3376 H3362 0.931 . S
C3376 C3375 1.385 . S
C3376 C3377 1.389 . S
C3377 C3376 1.389 . S
C3377 C3378 1.387 . S
C3378 H3363 0.930 . S
C3378 C3373 1.390 . S
C3378 C3377 1.387 . S
H3379 C3391 0.930 . S
H3380 C3393 0.930 . S
H3381 C3394 0.930 . S
H3382 C3398 0.959 . S
H3383 C3398 0.959 1_545 S
H3384 C3398 0.961 . S
H3385 C3399 0.960 . S
H3386 C3399 0.961 . S
H3387 C3399 0.959 . S
H3388 C3402 0.929 . S
H3389 C3403 0.931 . S
H3390 C3405 0.930 . S
C3391 H3379 0.930 . S
C3391 C3392 1.399 . S
C3391 C3396 1.399 . S
C3392 C3391 1.399 . S
C3392 C3393 1.376 . S
C3393 H3380 0.930 . S
C3393 C3392 1.376 . S
C3393 C3394 1.388 . S
C3394 H3381 0.930 . S
C3394 C3393 1.388 . S
C3394 C3395 1.390 . S
C3395 C3394 1.390 . S
C3395 C3396 1.394 . S
C3395 C3401 1.465 . S
C3396 C3391 1.399 . S
C3396 C3395 1.394 . S
C3396 C3397 1.516 . S
C3397 C3396 1.516 . S
C3397 C3398 1.502 . S
C3397 C3399 1.561 . S
C3397 C3400 1.526 . S
C3398 H3382 0.959 . S
C3398 H3383 0.959 1_565 S
C3398 H3384 0.961 . S
C3398 C3397 1.502 . S
C3399 H3385 0.960 . S
C3399 H3386 0.961 . S
C3399 H3387 0.959 . S
C3399 C3397 1.561 . S
C3400 C3397 1.526 . S
C3400 C3401 1.396 . S
C3400 C3405 1.390 . S
C3401 C3395 1.465 . S
C3401 C3400 1.396 . S
C3401 C3402 1.399 . S
C3402 H3388 0.929 . S
C3402 C3401 1.399 . S
C3402 C3403 1.385 . S
C3403 H3389 0.931 . S
C3403 C3402 1.385 . S
C3403 C3404 1.389 . S
C3404 C3403 1.389 . S
C3404 C3405 1.387 . S
C3405 H3390 0.930 . S
C3405 C3400 1.390 . S
C3405 C3404 1.387 . S
H3406 C3418 0.930 . S
H3407 C3420 0.930 . S
H3408 C3421 0.930 . S
H3409 C3425 0.959 . S
H3410 C3425 0.959 . S
H3411 C3425 0.961 . S
H3412 C3426 0.960 . S
H3413 C3426 0.961 . S
H3414 C3426 0.959 . S
H3415 C3429 0.929 . S
H3416 C3430 0.931 . S
H3417 C3432 0.930 . S
C3418 H3406 0.930 . S
C3418 C3419 1.399 . S
C3418 C3423 1.399 . S
C3419 C3418 1.399 . S
C3419 C3420 1.376 . S
C3420 H3407 0.930 . S
C3420 C3419 1.376 . S
C3420 C3421 1.388 . S
C3421 H3408 0.930 . S
C3421 C3420 1.388 . S
C3421 C3422 1.390 . S
C3422 C3421 1.390 . S
C3422 C3423 1.394 . S
C3422 C3428 1.465 . S
C3423 C3418 1.399 . S
C3423 C3422 1.394 . S
C3423 C3424 1.516 . S
C3424 C3423 1.516 . S
C3424 C3425 1.502 . S
C3424 C3426 1.561 . S
C3424 C3427 1.526 . S
C3425 H3409 0.959 . S
C3425 H3410 0.959 . S
C3425 H3411 0.961 . S
C3425 C3424 1.502 . S
C3426 H3412 0.960 . S
C3426 H3413 0.961 . S
C3426 H3414 0.959 . S
C3426 C3424 1.561 . S
C3427 C3424 1.526 . S
C3427 C3428 1.396 . S
C3427 C3432 1.390 . S
C3428 C3422 1.465 . S
C3428 C3427 1.396 . S
C3428 C3429 1.399 . S
C3429 H3415 0.929 . S
C3429 C3428 1.399 . S
C3429 C3430 1.385 . S
C3430 H3416 0.931 . S
C3430 C3429 1.385 . S
C3430 C3431 1.389 . S
C3431 C3430 1.389 . S
C3431 C3432 1.387 . S
C3432 H3417 0.930 . S
C3432 C3427 1.390 . S
C3432 C3431 1.387 . S
H3433 C3445 0.930 . S
H3434 C3447 0.930 . S
H3435 C3448 0.930 . S
H3436 C3452 0.959 . S
H3437 C3452 0.959 . S
H3438 C3452 0.961 . S
H3439 C3453 0.960 . S
H3440 C3453 0.961 . S
H3441 C3453 0.959 . S
H3442 C3456 0.929 . S
H3443 C3457 0.931 . S
H3444 C3459 0.930 . S
C3445 H3433 0.930 . S
C3445 C3446 1.399 . S
C3445 C3450 1.399 . S
C3446 C3445 1.399 . S
C3446 C3447 1.376 . S
C3447 H3434 0.930 . S
C3447 C3446 1.376 . S
C3447 C3448 1.388 . S
C3448 H3435 0.930 . S
C3448 C3447 1.388 . S
C3448 C3449 1.390 . S
C3449 C3448 1.390 . S
C3449 C3450 1.394 . S
C3449 C3455 1.465 . S
C3450 C3445 1.399 . S
C3450 C3449 1.394 . S
C3450 C3451 1.516 . S
C3451 C3450 1.516 . S
C3451 C3452 1.502 . S
C3451 C3453 1.561 . S
C3451 C3454 1.526 . S
C3452 H3436 0.959 . S
C3452 H3437 0.959 . S
C3452 H3438 0.961 . S
C3452 C3451 1.502 . S
C3453 H3439 0.960 . S
C3453 H3440 0.961 . S
C3453 H3441 0.959 . S
C3453 C3451 1.561 . S
C3454 C3451 1.526 . S
C3454 C3455 1.396 . S
C3454 C3459 1.390 . S
C3455 C3449 1.465 . S
C3455 C3454 1.396 . S
C3455 C3456 1.399 . S
C3456 H3442 0.929 . S
C3456 C3455 1.399 . S
C3456 C3457 1.385 . S
C3457 H3443 0.931 . S
C3457 C3456 1.385 . S
C3457 C3458 1.389 . S
C3458 C3457 1.389 . S
C3458 C3459 1.387 . S
C3459 H3444 0.930 . S
C3459 C3454 1.390 . S
C3459 C3458 1.387 . S
H3460 C3472 0.930 . S
H3461 C3474 0.930 . S
H3462 C3475 0.930 . S
H3463 C3479 0.959 . S
H3464 C3479 0.959 . S
H3465 C3479 0.961 . S
H3466 C3480 0.960 . S
H3467 C3480 0.961 . S
H3468 C3480 0.959 . S
H3469 C3483 0.929 . S
H3470 C3484 0.931 . S
H3471 C3486 0.930 . S
C3472 H3460 0.930 . S
C3472 C3473 1.399 . S
C3472 C3477 1.399 . S
C3473 C3472 1.399 . S
C3473 C3474 1.376 . S
C3474 H3461 0.930 . S
C3474 C3473 1.376 . S
C3474 C3475 1.388 . S
C3475 H3462 0.930 . S
C3475 C3474 1.388 . S
C3475 C3476 1.390 . S
C3476 C3475 1.390 . S
C3476 C3477 1.394 . S
C3476 C3482 1.465 . S
C3477 C3472 1.399 . S
C3477 C3476 1.394 . S
C3477 C3478 1.516 . S
C3478 C3477 1.516 . S
C3478 C3479 1.502 . S
C3478 C3480 1.561 . S
C3478 C3481 1.526 . S
C3479 H3463 0.959 . S
C3479 H3464 0.959 . S
C3479 H3465 0.961 . S
C3479 C3478 1.502 . S
C3480 H3466 0.960 . S
C3480 H3467 0.961 . S
C3480 H3468 0.959 . S
C3480 C3478 1.561 . S
C3481 C3478 1.526 . S
C3481 C3482 1.396 . S
C3481 C3486 1.390 . S
C3482 C3476 1.465 . S
C3482 C3481 1.396 . S
C3482 C3483 1.399 . S
C3483 H3469 0.929 . S
C3483 C3482 1.399 . S
C3483 C3484 1.385 . S
C3484 H3470 0.931 . S
C3484 C3483 1.385 . S
C3484 C3485 1.389 . S
C3485 C3484 1.389 . S
C3485 C3486 1.387 . S
C3486 H3471 0.930 . S
C3486 C3481 1.390 . S
C3486 C3485 1.387 . S
H3487 C3499 0.930 . S
H3488 C3501 0.930 . S
H3489 C3502 0.930 . S
H3490 C3506 0.959 1_554 S
H3491 C3506 0.959 . S
H3492 C3506 0.961 . S
H3493 C3507 0.960 . S
H3494 C3507 0.961 . S
H3495 C3507 0.959 . S
H3496 C3510 0.929 . S
H3497 C3511 0.931 . S
H3498 C3513 0.930 1_556 S
C3499 H3487 0.930 . S
C3499 C3500 1.399 . S
C3499 C3504 1.399 . S
C3500 C3499 1.399 . S
C3500 C3501 1.376 . S
C3501 H3488 0.930 . S
C3501 C3500 1.376 . S
C3501 C3502 1.388 . S
C3502 H3489 0.930 . S
C3502 C3501 1.388 . S
C3502 C3503 1.390 . S
C3503 C3502 1.390 . S
C3503 C3504 1.394 . S
C3503 C3509 1.465 . S
C3504 C3499 1.399 . S
C3504 C3503 1.394 . S
C3504 C3505 1.516 . S
C3505 C3504 1.516 . S
C3505 C3506 1.502 1_554 S
C3505 C3507 1.561 1_554 S
C3505 C3508 1.526 . S
C3506 H3490 0.959 1_556 S
C3506 H3491 0.959 . S
C3506 H3492 0.961 . S
C3506 C3505 1.502 1_556 S
C3507 H3493 0.960 . S
C3507 H3494 0.961 . S
C3507 H3495 0.959 . S
C3507 C3505 1.561 1_556 S
C3508 C3505 1.526 . S
C3508 C3509 1.396 . S
C3508 C3513 1.390 . S
C3509 C3503 1.465 . S
C3509 C3508 1.396 . S
C3509 C3510 1.399 . S
C3510 H3496 0.929 . S
C3510 C3509 1.399 . S
C3510 C3511 1.385 . S
C3511 H3497 0.931 . S
C3511 C3510 1.385 . S
C3511 C3512 1.389 . S
C3512 C3511 1.389 . S
C3512 C3513 1.387 . S
C3513 H3498 0.930 1_554 S
C3513 C3508 1.390 . S
C3513 C3512 1.387 . S
H3514 C3526 0.930 . S
H3515 C3528 0.930 . S
H3516 C3529 0.930 . S
H3517 C3533 0.959 . S
H3518 C3533 0.959 . S
H3519 C3533 0.961 . S
H3520 C3534 0.960 . S
H3521 C3534 0.961 . S
H3522 C3534 0.959 . S
H3523 C3537 0.929 . S
H3524 C3538 0.931 . S
H3525 C3540 0.930 . S
C3526 H3514 0.930 . S
C3526 C3527 1.399 . S
C3526 C3531 1.399 . S
C3527 C3526 1.399 . S
C3527 C3528 1.376 . S
C3528 H3515 0.930 . S
C3528 C3527 1.376 . S
C3528 C3529 1.388 . S
C3529 H3516 0.930 . S
C3529 C3528 1.388 . S
C3529 C3530 1.390 . S
C3530 C3529 1.390 . S
C3530 C3531 1.394 . S
C3530 C3536 1.465 . S
C3531 C3526 1.399 . S
C3531 C3530 1.394 . S
C3531 C3532 1.516 . S
C3532 C3531 1.516 . S
C3532 C3533 1.502 . S
C3532 C3534 1.561 . S
C3532 C3535 1.526 . S
C3533 H3517 0.959 . S
C3533 H3518 0.959 . S
C3533 H3519 0.961 . S
C3533 C3532 1.502 . S
C3534 H3520 0.960 . S
C3534 H3521 0.961 . S
C3534 H3522 0.959 . S
C3534 C3532 1.561 . S
C3535 C3532 1.526 . S
C3535 C3536 1.396 . S
C3535 C3540 1.390 . S
C3536 C3530 1.465 . S
C3536 C3535 1.396 . S
C3536 C3537 1.399 . S
C3537 H3523 0.929 . S
C3537 C3536 1.399 . S
C3537 C3538 1.385 . S
C3538 H3524 0.931 . S
C3538 C3537 1.385 . S
C3538 C3539 1.389 . S
C3539 C3538 1.389 . S
C3539 C3540 1.387 . S
C3540 H3525 0.930 . S
C3540 C3535 1.390 . S
C3540 C3539 1.387 . S
H3541 C3553 0.930 . S
H3542 C3555 0.930 . S
H3543 C3556 0.930 . S
H3544 C3560 0.959 . S
H3545 C3560 0.959 . S
H3546 C3560 0.961 . S
H3547 C3561 0.960 . S
H3548 C3561 0.961 . S
H3549 C3561 0.959 . S
H3550 C3564 0.929 . S
H3551 C3565 0.931 . S
H3552 C3567 0.930 . S
C3553 H3541 0.930 . S
C3553 C3554 1.399 . S
C3553 C3558 1.399 . S
C3554 C3553 1.399 . S
C3554 C3555 1.376 . S
C3555 H3542 0.930 . S
C3555 C3554 1.376 . S
C3555 C3556 1.388 . S
C3556 H3543 0.930 . S
C3556 C3555 1.388 . S
C3556 C3557 1.390 . S
C3557 C3556 1.390 . S
C3557 C3558 1.394 . S
C3557 C3563 1.465 . S
C3558 C3553 1.399 . S
C3558 C3557 1.394 . S
C3558 C3559 1.516 . S
C3559 C3558 1.516 . S
C3559 C3560 1.502 . S
C3559 C3561 1.561 . S
C3559 C3562 1.526 . S
C3560 H3544 0.959 . S
C3560 H3545 0.959 . S
C3560 H3546 0.961 . S
C3560 C3559 1.502 . S
C3561 H3547 0.960 . S
C3561 H3548 0.961 . S
C3561 H3549 0.959 . S
C3561 C3559 1.561 . S
C3562 C3559 1.526 . S
C3562 C3563 1.396 . S
C3562 C3567 1.390 . S
C3563 C3557 1.465 . S
C3563 C3562 1.396 . S
C3563 C3564 1.399 . S
C3564 H3550 0.929 . S
C3564 C3563 1.399 . S
C3564 C3565 1.385 . S
C3565 H3551 0.931 . S
C3565 C3564 1.385 . S
C3565 C3566 1.389 . S
C3566 C3565 1.389 . S
C3566 C3567 1.387 . S
C3567 H3552 0.930 . S
C3567 C3562 1.390 . S
C3567 C3566 1.387 . S
C989 C109 2.114 . S
C1001 C355 2.025 . S
C1016 C65 2.238 . S
C1028 C384 2.210 . S
C1043 C75 1.210 . S
C1055 C435 1.156 . S
C1082 C461 1.526 . S
C1070 C84 1.555 . S
C1097 C25 0.525 . S
C1109 C501 0.633 . S
C1136 C551 0.349 . S
C1124 C28 0.314 . S
C1163 C594 0.508 . S
C1151 C47 0.258 . S
C1178 C9 1.216 . S
C1190 C631 1.168 . S
C1217 C344 2.478 . S
C1205 C233 2.480 . S
C1232 C249 0.498 . S
C1244 C381 0.375 . S
C1271 C424 2.419 . S
C1259 C275 2.434 . S
C1298 C475 1.288 . S
C1286 C173 1.289 1_556 S
C1313 C224 1.897 . S
C1325 C515 1.886 . S
C1352 C554 0.310 . S
C1340 C243 0.370 . S
C1379 C585 1.950 1_556 S
C1367 C266 1.977 . S
C1406 C634 1.969 . S
C1394 C179 1.971 . S
C1433 C341 1.400 . S
C1421 C163 1.473 . S
C1448 C289 2.313 . S
C1460 C664 2.295 . S
C1487 C705 2.371 . S
C1475 C333 2.387 . S
C1514 C751 0.530 . S
C1502 C308 0.457 . S
C1529 C123 2.588 . S
C1541 C625 2.551 . S
C1556 C126 1.520 . S
C1568 C421 1.469 . S
C1583 C327 2.253 . S
C1595 C784 2.259 . S
C1622 C835 1.970 . S
C1610 C299 1.969 . S
C1649 C345 2.069 . S
C1637 C67 2.091 . S
C1676 C834 2.265 . S
C1664 C98 2.230 . S
C1691 C89 1.235 . S
C1703 C425 1.186 . S
C1718 C79 1.578 . S
C1730 C791 1.591 . S
C1757 C511 0.556 . S
C1745 C11 0.606 . S
C1772 C51 0.392 . S
C1784 C701 0.315 . S
C1811 C584 0.513 . S
C1799 C33 0.166 . S
C1838 C861 1.100 . S
C1826 C14 1.202 . S
C1865 C354 2.453 . S
C1853 C140 2.435 . S
C1892 C831 0.519 . S
C1880 C319 0.260 . S
C1907 C112 2.429 . S
C1919 C434 2.421 . S
C1934 C285 1.310 . S
C1946 C785 1.311 . S
C1961 C149 1.955 . S
C1973 C505 1.925 . S
C2000 C704 0.461 . S
C1988 C313 0.276 . S
C2015 C121 2.074 . S
C2027 C595 2.025 . S
C2042 C291 1.972 . S
C2054 C864 1.965 . S
C2069 C182 1.379 . S
C2081 C351 1.429 . S
C2096 C168 2.330 . S
C2108 C674 2.343 . S
C2123 C263 2.451 . S
C2135 C555 2.410 . S
C2150 C247 0.553 . S
C2162 C741 0.511 . S
C2189 C875 2.552 . S
C2177 C277 2.592 . S
C2204 C219 1.554 . S
C2216 C431 1.545 . S
C2243 C474 2.290 . S
C2231 C257 2.313 . S
C2270 C385 1.943 . S
C2258 C201 1.990 . S
C2285 C81 2.114 . S
C2297 C915 2.027 . S
C2324 C824 2.212 . S
C2312 C93 2.235 . S
C2339 C103 1.210 . S
C2351 C955 1.183 . S
C2366 C56 1.551 1_655 S
C2378 C781 1.532 . S
C2393 C53 0.623 . S
C2405 C661 0.537 . S
C2432 C711 0.240 . S
C2420 C0 0.406 1_655 S
C2459 C754 0.537 . S
C2447 C19 0.211 . S
C2486 C871 1.183 . S
C2474 C37 1.230 . S
C2513 C904 2.481 . S
C2501 C261 2.483 . S
C2528 C193 0.474 . S
C2540 C821 0.472 . S
C2567 C944 2.423 . S
C2555 C205 2.433 . S
C2594 C795 1.235 . S
C2582 C215 1.281 . S
C2621 C675 1.897 . S
C2609 C252 1.928 . S
C2636 C187 0.194 . S
C2648 C714 0.489 . S
C2675 C745 1.899 . S
C2663 C196 1.972 . S
C2690 C221 1.943 . S
C2702 C874 1.959 . S
C2729 C901 1.427 . S
C2717 C317 1.439 . S
C2744 C135 2.315 . S
C2756 C504 2.282 . S
C2783 C545 2.370 . S
C2771 C151 2.388 . S
C2810 C591 0.467 . S
C2798 C154 0.536 . S
C2837 C865 2.521 . S
C2825 C305 2.571 . S
C2852 C280 1.482 . S
C2864 C941 1.523 . S
C2891 C464 2.256 . S
C2879 C145 2.254 . S
C2918 C395 1.960 . S
C2906 C117 1.983 . S
C2933 C95 2.107 . S
C2945 C905 2.065 . S
C2972 C394 2.256 . S
C2960 C70 2.228 . S
C2987 C61 1.237 . S
C2999 C945 1.183 . S
C3014 C107 1.594 . S
C3026 C471 1.598 . S
C3041 C39 0.541 . S
C3053 C671 0.605 1_556 S
C3080 C541 0.355 . S
C3068 C23 0.369 . S
C3095 C5 0.192 . S
C3107 C744 0.548 . S
C3122 C42 1.128 . S
C3134 C621 1.158 . S
C3161 C914 2.460 . S
C3149 C322 2.450 . S
C3176 C165 0.477 . S
C3188 C391 0.377 . S
C3215 C954 2.443 1_655 S
C3203 C294 2.417 . S
C3230 C131 1.310 . S
C3242 C465 1.312 . S
C3257 C331 1.963 . S
C3269 C665 1.921 . S
C3296 C544 0.406 . S
C3284 C159 0.402 . S
C3311 C303 2.075 . S
C3323 C755 1.983 1_655 S
C3350 C624 1.967 . S
C3338 C137 1.962 . S
C3377 C911 1.429 . S
C3365 C238 1.379 . S
C3404 C514 2.342 1_565 S
C3392 C210 2.326 . S
C3419 C235 2.428 . S
C3431 C715 2.427 . S
C3458 C581 0.547 . S
C3446 C191 0.531 . S
C3473 C207 2.577 . S
C3485 C635 2.543 . S
C3500 C177 1.551 . S
C3512 C951 1.506 . S
C3539 C794 2.292 . S
C3527 C229 2.315 . S
C3566 C825 1.948 . S
C3554 C271 1.990 . S
