# Generated by pormake.
# Topology cml, (3,6)-cn, num edge types: 1
# Building blocks:
#     Node 0, Type 0, BuildingBlock: OLANEW_clean_sbu_2, # of connection points: 3
#     Node 1, Type 0, BuildingBlock: OLANEW_clean_sbu_2, # of connection points: 3
#     Node 2, Type 0, BuildingBlock: OLANEW_clean_sbu_2, # of connection points: 3
#     Node 3, Type 0, BuildingBlock: OLANEW_clean_sbu_2, # of connection points: 3
#     Node 4, Type 0, BuildingBlock: OLANEW_clean_sbu_2, # of connection points: 3
#     Node 5, Type 0, BuildingBlock: OLANEW_clean_sbu_2, # of connection points: 3
#     Node 6, Type 0, BuildingBlock: OLANEW_clean_sbu_2, # of connection points: 3
#     Node 7, Type 0, BuildingBlock: OLANEW_clean_sbu_2, # of connection points: 3
#     Node 8, Type 1, BuildingBlock: IZENUY_clean_sbu_0, # of connection points: 6
#     Node 9, Type 1, BuildingBlock: IZENUY_clean_sbu_0, # of connection points: 6
#     Node 10, Type 1, BuildingBlock: IZENUY_clean_sbu_0, # of connection points: 6
#     Node 11, Type 1, BuildingBlock: IZENUY_clean_sbu_0, # of connection points: 6
#     Edge 12, Type (0, 1), BuildingBlock: ZUJKAS_clean_linker_0, # of connection points: 2
#     Edge 13, Type (0, 1), BuildingBlock: ZUJKAS_clean_linker_0, # of connection points: 2
#     Edge 14, Type (0, 1), BuildingBlock: ZUJKAS_clean_linker_0, # of connection points: 2
#     Edge 15, Type (0, 1), BuildingBlock: ZUJKAS_clean_linker_0, # of connection points: 2
#     Edge 16, Type (0, 1), BuildingBlock: ZUJKAS_clean_linker_0, # of connection points: 2
#     Edge 17, Type (0, 1), BuildingBlock: ZUJKAS_clean_linker_0, # of connection points: 2
#     Edge 18, Type (0, 1), BuildingBlock: ZUJKAS_clean_linker_0, # of connection points: 2
#     Edge 19, Type (0, 1), BuildingBlock: ZUJKAS_clean_linker_0, # of connection points: 2
#     Edge 20, Type (0, 1), BuildingBlock: ZUJKAS_clean_linker_0, # of connection points: 2
#     Edge 21, Type (0, 1), BuildingBlock: ZUJKAS_clean_linker_0, # of connection points: 2
#     Edge 22, Type (0, 1), BuildingBlock: ZUJKAS_clean_linker_0, # of connection points: 2
#     Edge 23, Type (0, 1), BuildingBlock: ZUJKAS_clean_linker_0, # of connection points: 2
#     Edge 24, Type (0, 1), BuildingBlock: ZUJKAS_clean_linker_0, # of connection points: 2
#     Edge 25, Type (0, 1), BuildingBlock: ZUJKAS_clean_linker_0, # of connection points: 2
#     Edge 26, Type (0, 1), BuildingBlock: ZUJKAS_clean_linker_0, # of connection points: 2
#     Edge 27, Type (0, 1), BuildingBlock: ZUJKAS_clean_linker_0, # of connection points: 2
#     Edge 28, Type (0, 1), BuildingBlock: ZUJKAS_clean_linker_0, # of connection points: 2
#     Edge 29, Type (0, 1), BuildingBlock: ZUJKAS_clean_linker_0, # of connection points: 2
#     Edge 30, Type (0, 1), BuildingBlock: ZUJKAS_clean_linker_0, # of connection points: 2
#     Edge 31, Type (0, 1), BuildingBlock: ZUJKAS_clean_linker_0, # of connection points: 2
#     Edge 32, Type (0, 1), BuildingBlock: ZUJKAS_clean_linker_0, # of connection points: 2
#     Edge 33, Type (0, 1), BuildingBlock: ZUJKAS_clean_linker_0, # of connection points: 2
#     Edge 34, Type (0, 1), BuildingBlock: ZUJKAS_clean_linker_0, # of connection points: 2
#     Edge 35, Type (0, 1), BuildingBlock: ZUJKAS_clean_linker_0, # of connection points: 2
# Relax obj value: 0.015
# Max RMSD: 0.079
# Mean RMSD: 0.063
data_MOF--net-cml--node1-OLANEW_clean_sbu_2--node2-IZENUY_clean_sbu_0--edge1-ZUJKAS_clean_linker_0
_symmetry_space_group_name_H-M    P1
_symmetry_Int_Tables_number       1
_symmetry_cell_setting            triclinic
loop_
_symmetry_equiv_pos_as_xyz
'x, y, z'
_cell_length_a     50.228238
_cell_length_b     55.569401
_cell_length_c     50.524638
_cell_angle_alpha  88.552024
_cell_angle_beta   87.965632
_cell_angle_gamma 88.833211
loop_
_atom_site_label
_atom_site_type_symbol
_atom_site_fract_x
_atom_site_fract_y
_atom_site_fract_z
_atom_type_partial_charge
O0 O 0.26588 0.42769 0.94526 0.0
Cd1 Cd 0.22858 0.4055 0.96613 0.0
O2 O 0.28828 0.41718 0.98011 0.0
Cd3 Cd 0.31978 0.41663 0.00895 0.0
O4 O 0.34365 0.409 0.04362 0.0
C5 C 0.33914 0.42076 0.0646 0.0
O6 O 0.32078 0.43795 0.06464 0.0
C7 C 0.28707 0.42884 0.95817 0.0
C8 C 0.21218 0.36376 0.94218 0.0
O9 O 0.20316 0.38458 0.93502 0.0
O10 O 0.22973 0.36272 0.96001 0.0
O11 O 0.71389 0.6386 0.53367 0.0
Cd12 Cd 0.73186 0.62959 0.48921 0.0
O13 O 0.74287 0.61538 0.55437 0.0
Cd14 Cd 0.75431 0.59801 0.51733 0.0
O15 O 0.73919 0.57285 0.48918 0.0
C16 C 0.7139 0.5721 0.48922 0.0
O17 O 0.69998 0.58655 0.50485 0.0
C18 C 0.72366 0.63065 0.55516 0.0
C19 C 0.7695 0.66274 0.47034 0.0
O20 O 0.74468 0.66595 0.46598 0.0
O21 O 0.7765 0.64393 0.48378 0.0
O22 O 0.7429 0.40791 0.96947 0.0
Cd23 Cd 0.76209 0.37634 0.99817 0.0
O24 O 0.74119 0.43326 0.00228 0.0
Cd25 Cd 0.75212 0.407 0.03305 0.0
O26 O 0.74093 0.38829 0.07017 0.0
C27 C 0.7169 0.38153 0.07201 0.0
O28 O 0.70184 0.38494 0.05144 0.0
C29 C 0.73763 0.42887 0.97809 0.0
C30 C 0.79501 0.34273 0.97212 0.0
O31 O 0.80409 0.36284 0.97935 0.0
O32 O 0.77023 0.33867 0.97678 0.0
O33 O 0.29285 0.595 0.4748 0.0
Cd34 Cd 0.27415 0.62697 0.50288 0.0
O35 O 0.28363 0.56679 0.50487 0.0
Cd36 Cd 0.27319 0.59184 0.53632 0.0
O37 O 0.28877 0.6035 0.57362 0.0
C38 C 0.30528 0.58844 0.58347 0.0
O39 O 0.31011 0.56816 0.57118 0.0
C40 C 0.29264 0.57286 0.48188 0.0
C41 C 0.23736 0.65772 0.47818 0.0
O42 O 0.26228 0.66235 0.47732 0.0
O43 O 0.2299 0.63835 0.49035 0.0
O44 O 0.76411 0.92938 0.94319 0.0
Cd45 Cd 0.72753 0.90655 0.9645 0.0
O46 O 0.78691 0.91901 0.9778 0.0
Cd47 Cd 0.81851 0.9189 0.00653 0.0
O48 O 0.84183 0.91133 0.04158 0.0
C49 C 0.83627 0.92247 0.0628 0.0
O50 O 0.81721 0.93903 0.06281 0.0
C51 C 0.78535 0.93079 0.95597 0.0
C52 C 0.71052 0.86515 0.94032 0.0
O53 O 0.70105 0.88602 0.93396 0.0
O54 O 0.72881 0.86393 0.9574 0.0
O55 O 0.21737 0.14174 0.53361 0.0
Cd56 Cd 0.23636 0.13273 0.48957 0.0
O57 O 0.24026 0.11277 0.55342 0.0
Cd58 Cd 0.24966 0.09516 0.51601 0.0
O59 O 0.23546 0.06832 0.48917 0.0
C60 C 0.214 0.07317 0.47736 0.0
O61 O 0.20264 0.09449 0.48032 0.0
C62 C 0.22445 0.1309 0.55478 0.0
C63 C 0.27408 0.16608 0.47138 0.0
O64 O 0.24937 0.16907 0.46639 0.0
O65 O 0.2809 0.14739 0.48511 0.0
O66 O 0.23751 0.90433 0.96279 0.0
Cd67 Cd 0.25292 0.87078 0.99115 0.0
O68 O 0.23571 0.9289 0.9963 0.0
Cd69 Cd 0.24537 0.9019 0.02675 0.0
O70 O 0.23239 0.88485 0.06427 0.0
C71 C 0.20741 0.88181 0.06667 0.0
O72 O 0.19257 0.8877 0.04651 0.0
C73 C 0.23278 0.9252 0.97185 0.0
C74 C 0.28912 0.83888 0.96662 0.0
O75 O 0.26395 0.83575 0.96587 0.0
O76 O 0.29715 0.85734 0.97857 0.0
O77 O 0.79541 0.09571 0.47909 0.0
Cd78 Cd 0.78064 0.13018 0.50561 0.0
O79 O 0.78205 0.06881 0.50912 0.0
Cd80 Cd 0.77249 0.09508 0.53956 0.0
O81 O 0.78429 0.10731 0.57808 0.0
C82 C 0.80234 0.12291 0.57915 0.0
O83 O 0.81174 0.13287 0.55698 0.0
C84 C 0.7925 0.07381 0.4864 0.0
C85 C 0.74229 0.15989 0.48181 0.0
O86 O 0.7672 0.16259 0.47643 0.0
O87 O 0.73546 0.14294 0.49819 0.0
Fe88 Fe 0.0083 0.83545 0.3311 0.0
Fe89 Fe 0.00646 0.86141 0.38405 0.0
O90 O 0.00806 0.86248 0.34897 0.0
Fe91 Fe 0.00939 0.89057 0.33176 0.0
O92 O 0.97887 0.8849 0.3152 0.0
O93 O 0.99032 0.84844 0.30278 0.0
O94 O 0.97619 0.82712 0.34566 0.0
C95 C 0.97112 0.82495 0.37022 0.0
C96 C 0.04522 0.86091 0.30178 0.0
O97 O 0.98607 0.83426 0.38671 0.0
C98 C 0.04288 0.89882 0.37176 0.0
O99 O 0.02645 0.81754 0.35606 0.0
O100 O 0.03727 0.84395 0.38527 0.0
O101 O 0.03012 0.87937 0.30382 0.0
O102 O 0.04042 0.84205 0.31538 0.0
C103 C 0.97237 0.89932 0.3742 0.0
O104 O 0.02661 0.88837 0.38777 0.0
O105 O 0.04001 0.89811 0.34712 0.0
C106 C 0.04133 0.82406 0.37421 0.0
O107 O 0.97551 0.87881 0.38505 0.0
O108 O 0.9889 0.9069 0.35655 0.0
C109 C 0.97569 0.86721 0.3006 0.0
Fe110 Fe 0.02032 0.13389 0.87009 0.0
Fe111 Fe 0.0201 0.10782 0.81723 0.0
O112 O 0.01914 0.13488 0.83509 0.0
Fe113 Fe 0.01695 0.16289 0.81773 0.0
O114 O 0.03608 0.17942 0.84132 0.0
O115 O 0.0503 0.15175 0.86949 0.0
O116 O 0.04239 0.10703 0.87142 0.0
C117 C 0.05761 0.09746 0.85388 0.0
C118 C 0.98229 0.17125 0.85953 0.0
O119 O 0.05243 0.09938 0.82966 0.0
C120 C 0.98234 0.13341 0.79041 0.0
O121 O 0.99041 0.11602 0.87325 0.0
O122 O 0.0028 0.08981 0.84324 0.0
O123 O 0.98575 0.17063 0.8347 0.0
O124 O 0.99848 0.16059 0.87481 0.0
C125 C 0.05241 0.13899 0.78537 0.0
O126 O 0.98773 0.11458 0.80378 0.0
O127 O 0.99718 0.15156 0.79091 0.0
C128 C 0.98752 0.09609 0.86239 0.0
O129 O 0.03771 0.12076 0.78781 0.0
O130 O 0.04819 0.15697 0.79974 0.0
C131 C 0.05248 0.17224 0.85838 0.0
Fe132 Fe 0.5144 0.33671 0.33213 0.0
Fe133 Fe 0.5121 0.36392 0.38439 0.0
O134 O 0.51445 0.36411 0.3493 0.0
Fe135 Fe 0.51681 0.39178 0.33136 0.0
O136 O 0.48643 0.3864 0.31448 0.0
O137 O 0.49699 0.34939 0.30328 0.0
O138 O 0.48195 0.32909 0.34646 0.0
C139 C 0.47644 0.32753 0.37099 0.0
C140 C 0.55237 0.36091 0.30276 0.0
O141 O 0.49111 0.33721 0.38746 0.0
C142 C 0.54972 0.40026 0.37172 0.0
O143 O 0.53193 0.31915 0.35774 0.0
O144 O 0.54241 0.34586 0.38685 0.0
O145 O 0.53762 0.37964 0.30401 0.0
O146 O 0.54687 0.34243 0.31669 0.0
C147 C 0.47918 0.40223 0.3727 0.0
O148 O 0.53279 0.39063 0.38769 0.0
O149 O 0.54738 0.39892 0.34706 0.0
C150 C 0.54642 0.32578 0.37616 0.0
O151 O 0.48155 0.38194 0.38423 0.0
O152 O 0.49638 0.40907 0.35533 0.0
C153 C 0.48285 0.3684 0.30045 0.0
Fe154 Fe 0.5212 0.63261 0.87175 0.0
Fe155 Fe 0.52198 0.60515 0.81978 0.0
O156 O 0.51993 0.63264 0.83677 0.0
Fe157 Fe 0.51656 0.66014 0.81865 0.0
O158 O 0.53524 0.67781 0.84165 0.0
O159 O 0.55065 0.65114 0.87035 0.0
O160 O 0.54392 0.60624 0.87393 0.0
C161 C 0.55955 0.59666 0.85675 0.0
C162 C 0.48199 0.66872 0.86037 0.0
O163 O 0.55453 0.59807 0.83247 0.0
C164 C 0.48332 0.6287 0.7921 0.0
O165 O 0.4918 0.61409 0.87549 0.0
O166 O 0.50522 0.58738 0.84636 0.0
O167 O 0.48512 0.66719 0.83559 0.0
O168 O 0.49876 0.65903 0.87576 0.0
C169 C 0.55297 0.63661 0.78688 0.0
O170 O 0.48949 0.61044 0.80607 0.0
O171 O 0.49716 0.64751 0.79225 0.0
C172 C 0.4896 0.59378 0.86523 0.0
O173 O 0.53918 0.61784 0.79 0.0
O174 O 0.5479 0.65486 0.80062 0.0
C175 C 0.55211 0.67142 0.85863 0.0
H176 H 0.22217 0.31703 0.95802 0.0
H177 H 0.20091 0.28078 0.9429 0.0
H178 H 0.15612 0.324 0.88737 0.0
H179 H 0.17724 0.36026 0.90226 0.0
H180 H 0.14524 0.27316 0.94553 0.0
H181 H 0.18595 0.26812 0.84238 0.0
H182 H 0.2012 0.28558 0.86722 0.0
H183 H 0.17243 0.29725 0.85061 0.0
C184 C 0.2081 0.31879 0.9423 0.0
C185 C 0.20141 0.34155 0.93133 0.0
C186 C 0.19595 0.29805 0.93373 0.0
C187 C 0.17717 0.29967 0.91382 0.0
C188 C 0.17092 0.32229 0.90242 0.0
H189 H 0.05977 0.21862 0.8411 0.0
H190 H 0.0922 0.24704 0.85554 0.0
C191 C 0.18293 0.34302 0.91106 0.0
C192 C 0.16257 0.2781 0.90625 0.0
H193 H 0.14723 0.24497 0.8531 0.0
C194 C 0.14595 0.2667 0.92543 0.0
C195 C 0.16357 0.26977 0.88002 0.0
C196 C 0.18194 0.28065 0.8589 0.0
C197 C 0.12922 0.24799 0.91876 0.0
C198 C 0.12957 0.24017 0.8923 0.0
C199 C 0.14694 0.251 0.87336 0.0
C200 C 0.11057 0.22218 0.88337 0.0
C201 C 0.11036 0.2376 0.93978 0.0
C202 C 0.11031 0.19857 0.89398 0.0
C203 C 0.09156 0.18218 0.88586 0.0
C204 C 0.0729 0.18911 0.86684 0.0
C205 C 0.07371 0.21264 0.85588 0.0
C206 C 0.09232 0.22895 0.86405 0.0
H207 H 0.1086 0.24902 0.95752 0.0
H208 H 0.09019 0.23553 0.9319 0.0
H209 H 0.11785 0.21953 0.94616 0.0
H210 H 0.12457 0.19282 0.90854 0.0
H211 H 0.09167 0.16415 0.89452 0.0
H212 H 0.76099 0.70359 0.44018 0.0
H213 H 0.79427 0.73167 0.42212 0.0
H214 H 0.8564 0.68961 0.45911 0.0
H215 H 0.82335 0.66125 0.47695 0.0
H216 H 0.82986 0.75954 0.44819 0.0
H217 H 0.88344 0.69526 0.38195 0.0
H218 H 0.85107 0.68918 0.39701 0.0
H219 H 0.88057 0.68492 0.41587 0.0
C220 C 0.78174 0.70027 0.44444 0.0
C221 C 0.78953 0.68008 0.45988 0.0
C222 C 0.80072 0.71635 0.43412 0.0
C223 C 0.82784 0.71251 0.43892 0.0
C224 C 0.83564 0.69263 0.45469 0.0
H225 H 0.95629 0.81386 0.42168 0.0
H226 H 0.92066 0.78742 0.43773 0.0
C227 C 0.81669 0.67651 0.465 0.0
C228 C 0.84793 0.72951 0.42773 0.0
H229 H 0.90407 0.73283 0.38775 0.0
C230 C 0.84602 0.75374 0.43488 0.0
C231 C 0.86877 0.72197 0.41006 0.0
C232 C 0.87102 0.69647 0.40053 0.0
C233 C 0.86477 0.77055 0.42532 0.0
C234 C 0.8862 0.7628 0.40849 0.0
C235 C 0.88775 0.73869 0.40085 0.0
C236 C 0.90738 0.77935 0.39872 0.0
C237 C 0.86127 0.7965 0.43307 0.0
C238 C 0.9121 0.78324 0.37141 0.0
C239 C 0.93261 0.79823 0.36212 0.0
C240 C 0.94893 0.8095 0.37999 0.0
C241 C 0.94408 0.80556 0.40735 0.0
C242 C 0.92359 0.79056 0.41659 0.0
H243 H 0.8404 0.80071 0.4397 0.0
H244 H 0.87434 0.79999 0.44975 0.0
H245 H 0.86689 0.8089 0.41631 0.0
H246 H 0.89988 0.77467 0.35728 0.0
H247 H 0.93575 0.80086 0.34093 0.0
H248 H 0.78473 0.29538 0.96413 0.0
H249 H 0.81519 0.2647 0.94571 0.0
H250 H 0.87557 0.3182 0.93237 0.0
H251 H 0.84558 0.34876 0.95161 0.0
H252 H 0.83906 0.25968 0.8984 0.0
H253 H 0.91635 0.26763 0.97289 0.0
H254 H 0.88388 0.28184 0.97663 0.0
H255 H 0.90958 0.29579 0.95613 0.0
C256 C 0.80451 0.30061 0.95728 0.0
C257 C 0.81284 0.32445 0.95955 0.0
C258 C 0.8219 0.28305 0.94676 0.0
C259 C 0.8479 0.289 0.9382 0.0
C260 C 0.85591 0.31299 0.93959 0.0
H261 H 0.9532 0.20637 0.83411 0.0
H262 H 0.9196 0.23364 0.85345 0.0
C263 C 0.83866 0.33049 0.95041 0.0
C264 C 0.86652 0.27018 0.92759 0.0
H265 H 0.92877 0.24547 0.93438 0.0
C266 C 0.85861 0.25645 0.90639 0.0
C267 C 0.89182 0.26559 0.93836 0.0
C268 C 0.90081 0.27831 0.96244 0.0
C269 C 0.87554 0.23871 0.89521 0.0
C270 C 0.90142 0.23509 0.90501 0.0
C271 C 0.90906 0.24841 0.92665 0.0
C272 C 0.92108 0.21785 0.89301 0.0
C273 C 0.8653 0.2238 0.87334 0.0
C274 C 0.93369 0.20024 0.9089 0.0
C275 C 0.95334 0.1849 0.89798 0.0
C276 C 0.9607 0.1868 0.87091 0.0
C277 C 0.94782 0.20425 0.85498 0.0
C278 C 0.92843 0.21977 0.86598 0.0
H279 H 0.84319 0.22312 0.87429 0.0
H280 H 0.87137 0.23209 0.8539 0.0
H281 H 0.87346 0.20509 0.87429 0.0
H282 H 0.92843 0.19846 0.92983 0.0
H283 H 0.96282 0.17161 0.91078 0.0
H284 H 0.24678 0.70105 0.45297 0.0
H285 H 0.21401 0.72961 0.43489 0.0
H286 H 0.15088 0.68102 0.45756 0.0
H287 H 0.18342 0.65251 0.47604 0.0
H288 H 0.17768 0.7245 0.39541 0.0
H289 H 0.12595 0.74388 0.4916 0.0
H290 H 0.15789 0.72846 0.48933 0.0
H291 H 0.12783 0.71245 0.48418 0.0
C292 C 0.22593 0.69641 0.4541 0.0
C293 C 0.2177 0.67456 0.46612 0.0
C294 C 0.20723 0.71276 0.44374 0.0
C295 C 0.17997 0.70763 0.44528 0.0
C296 C 0.17176 0.68558 0.45667 0.0
H297 H 0.05316 0.77823 0.35813 0.0
H298 H 0.08733 0.75047 0.37489 0.0
C299 C 0.19042 0.66924 0.46709 0.0
C300 C 0.16016 0.72531 0.4349 0.0
H301 H 0.10543 0.75936 0.45292 0.0
C302 C 0.16192 0.73219 0.40797 0.0
C303 C 0.13987 0.73559 0.45143 0.0
C304 C 0.13784 0.72993 0.48079 0.0
C305 C 0.1436 0.74874 0.39702 0.0
C306 C 0.12274 0.75834 0.41335 0.0
C307 C 0.12129 0.7518 0.44037 0.0
C308 C 0.10224 0.77531 0.40288 0.0
C309 C 0.14703 0.75607 0.36816 0.0
C310 C 0.09885 0.79833 0.41346 0.0
C311 C 0.07917 0.8142 0.40409 0.0
C312 C 0.06237 0.80731 0.38402 0.0
C313 C 0.0658 0.78419 0.37352 0.0
C314 C 0.08545 0.76832 0.38295 0.0
H315 H 0.16765 0.75237 0.36043 0.0
H316 H 0.13324 0.74563 0.3564 0.0
H317 H 0.14228 0.77551 0.36501 0.0
H318 H 0.11152 0.80405 0.42894 0.0
H319 H 0.07714 0.83186 0.41262 0.0
H320 H 0.67317 0.86202 0.90254 0.0
H321 H 0.65159 0.82577 0.8881 0.0
H322 H 0.7007 0.78205 0.93934 0.0
H323 H 0.7224 0.81823 0.95401 0.0
H324 H 0.67443 0.78186 0.86511 0.0
H325 H 0.62235 0.76629 0.96302 0.0
H326 H 0.63697 0.79479 0.95354 0.0
H327 H 0.65788 0.76971 0.9631 0.0
C328 C 0.67958 0.84469 0.91058 0.0
C329 C 0.69939 0.84305 0.92957 0.0
C330 C 0.66724 0.824 0.90229 0.0
C331 C 0.6743 0.8013 0.91294 0.0
C332 C 0.69472 0.79946 0.93117 0.0
H333 H 0.59125 0.6653 0.8951 0.0
H334 H 0.62378 0.69489 0.9077 0.0
C335 C 0.70718 0.82015 0.93942 0.0
C336 C 0.65956 0.77977 0.90556 0.0
H337 H 0.61409 0.73911 0.92953 0.0
C338 C 0.66136 0.77239 0.87921 0.0
C339 C 0.64268 0.76738 0.92406 0.0
C340 C 0.63959 0.77494 0.9525 0.0
C341 C 0.64644 0.75309 0.87075 0.0
C342 C 0.62877 0.74127 0.88901 0.0
C343 C 0.62762 0.74819 0.91556 0.0
C344 C 0.61 0.72286 0.88062 0.0
C345 C 0.64978 0.74554 0.84232 0.0
C346 C 0.59129 0.72884 0.86145 0.0
C347 C 0.57276 0.71204 0.85421 0.0
C348 C 0.57229 0.6889 0.8662 0.0
C349 C 0.59104 0.68293 0.88547 0.0
C350 C 0.60965 0.69981 0.89268 0.0
H351 H 0.66958 0.75061 0.83366 0.0
H352 H 0.64753 0.72581 0.84059 0.0
H353 H 0.63434 0.75482 0.83041 0.0
H354 H 0.59069 0.7467 0.85237 0.0
H355 H 0.55859 0.71735 0.83938 0.0
H356 H 0.32762 0.16515 0.47962 0.0
H357 H 0.36082 0.19375 0.46263 0.0
H358 H 0.29951 0.2347 0.42298 0.0
H359 H 0.26608 0.2064 0.44021 0.0
H360 H 0.37469 0.20552 0.41053 0.0
H361 H 0.33675 0.28614 0.46369 0.0
H362 H 0.32609 0.25608 0.47252 0.0
H363 H 0.31232 0.27194 0.44457 0.0
C364 C 0.32115 0.18031 0.46742 0.0
C365 C 0.29417 0.18355 0.46137 0.0
C366 C 0.34016 0.19662 0.45769 0.0
C367 C 0.33259 0.21653 0.44184 0.0
C368 C 0.30571 0.21974 0.43563 0.0
H369 H 0.44145 0.30272 0.34191 0.0
H370 H 0.40598 0.27622 0.35855 0.0
C371 C 0.28666 0.20347 0.44538 0.0
C372 C 0.35297 0.23351 0.43123 0.0
H373 H 0.37122 0.29239 0.43103 0.0
C374 C 0.37397 0.22451 0.41502 0.0
C375 C 0.35211 0.25822 0.43735 0.0
C376 C 0.33076 0.26869 0.45568 0.0
C377 C 0.39404 0.2396 0.40458 0.0
C378 C 0.39281 0.26443 0.41016 0.0
C379 C 0.37195 0.2734 0.42655 0.0
C380 C 0.41354 0.28123 0.39993 0.0
C381 C 0.4167 0.22871 0.38819 0.0
C382 C 0.42898 0.29345 0.41767 0.0
C383 C 0.44914 0.30872 0.40826 0.0
C384 C 0.45424 0.31215 0.38086 0.0
C385 C 0.43825 0.30033 0.36312 0.0
C386 C 0.41805 0.28508 0.37258 0.0
H387 H 0.41816 0.20886 0.39121 0.0
H388 H 0.41335 0.23255 0.3669 0.0
H389 H 0.436 0.2366 0.39311 0.0
H390 H 0.42573 0.29084 0.43885 0.0
H391 H 0.46094 0.31761 0.4225 0.0
H392 H 0.27828 0.79837 0.93956 0.0
H393 H 0.31013 0.76883 0.92115 0.0
H394 H 0.37522 0.8099 0.94852 0.0
H395 H 0.34356 0.83973 0.96665 0.0
H396 H 0.3834 0.7948 0.89702 0.0
H397 H 0.35262 0.71874 0.96381 0.0
H398 H 0.32588 0.73259 0.94589 0.0
H399 H 0.34263 0.74955 0.96991 0.0
C400 C 0.29937 0.80115 0.94165 0.0
C401 C 0.30837 0.82136 0.95469 0.0
C402 C 0.31754 0.78415 0.93127 0.0
C403 C 0.34502 0.78694 0.93389 0.0
C404 C 0.35409 0.80733 0.94643 0.0
H405 H 0.47239 0.68085 0.91212 0.0
H406 H 0.43876 0.7093 0.92953 0.0
C407 C 0.33595 0.82435 0.95678 0.0
C408 C 0.3644 0.76879 0.92331 0.0
H409 H 0.38336 0.70952 0.92857 0.0
C410 C 0.38342 0.77616 0.90392 0.0
C411 C 0.36459 0.74455 0.93261 0.0
C412 C 0.34551 0.73586 0.95437 0.0
C413 C 0.40246 0.75988 0.89334 0.0
C414 C 0.40216 0.73549 0.90209 0.0
C415 C 0.38335 0.72817 0.92171 0.0
C416 C 0.42167 0.71743 0.89155 0.0
C417 C 0.42308 0.76907 0.87332 0.0
C418 C 0.42278 0.71213 0.86453 0.0
C419 C 0.44201 0.69593 0.85448 0.0
C420 C 0.46043 0.68459 0.87132 0.0
C421 C 0.45863 0.68933 0.89856 0.0
C422 C 0.43941 0.70558 0.90857 0.0
H423 H 0.42479 0.78896 0.87381 0.0
H424 H 0.44295 0.76072 0.87687 0.0
H425 H 0.41723 0.76435 0.85315 0.0
H426 H 0.40887 0.72067 0.85116 0.0
H427 H 0.44262 0.69254 0.83345 0.0
H428 H 0.68969 0.16521 0.49673 0.0
H429 H 0.6568 0.19321 0.47803 0.0
H430 H 0.71603 0.21905 0.42083 0.0
H431 H 0.74928 0.19171 0.4401 0.0
H432 H 0.68893 0.25552 0.44153 0.0
H433 H 0.6171 0.18808 0.41129 0.0
H434 H 0.62348 0.18559 0.44595 0.0
H435 H 0.65001 0.17977 0.4219 0.0
C436 C 0.69567 0.17674 0.48005 0.0
C437 C 0.72207 0.17617 0.46982 0.0
C438 C 0.67678 0.19264 0.46925 0.0
C439 C 0.68375 0.20793 0.44765 0.0
C440 C 0.71012 0.20736 0.43741 0.0
H441 H 0.5681 0.28608 0.35226 0.0
H442 H 0.60222 0.2583 0.3691 0.0
C443 C 0.7291 0.19169 0.44842 0.0
C444 C 0.66386 0.22512 0.43632 0.0
H445 H 0.60177 0.22901 0.41091 0.0
C446 C 0.66994 0.24969 0.43468 0.0
C447 C 0.63922 0.21752 0.42698 0.0
C448 C 0.63216 0.19128 0.42634 0.0
C449 C 0.65196 0.26688 0.42436 0.0
C450 C 0.6268 0.25941 0.4162 0.0
C451 C 0.6209 0.2348 0.41746 0.0
C452 C 0.60644 0.27672 0.40593 0.0
C453 C 0.66041 0.29277 0.42177 0.0
C454 C 0.59725 0.29625 0.42108 0.0
C455 C 0.57798 0.31237 0.41133 0.0
C456 C 0.56707 0.30895 0.38648 0.0
C457 C 0.57602 0.28917 0.37153 0.0
C458 C 0.59553 0.27327 0.38113 0.0
H459 H 0.68247 0.29419 0.42092 0.0
H460 H 0.65244 0.30172 0.40373 0.0
H461 H 0.65273 0.30268 0.43933 0.0
H462 H 0.60476 0.29893 0.44058 0.0
H463 H 0.57134 0.32728 0.42346 0.0
H464 H 0.28254 0.46954 0.92758 0.0
H465 H 0.31777 0.49685 0.91248 0.0
H466 H 0.37601 0.45145 0.95116 0.0
H467 H 0.34078 0.42401 0.96636 0.0
H468 H 0.38255 0.49929 0.96097 0.0
H469 H 0.37294 0.48648 0.85337 0.0
H470 H 0.34216 0.49556 0.86962 0.0
H471 H 0.35734 0.4669 0.8781 0.0
C472 C 0.30288 0.46527 0.93274 0.0
C473 C 0.30882 0.44476 0.94847 0.0
C474 C 0.32301 0.48088 0.92402 0.0
C475 C 0.34959 0.47608 0.93042 0.0
C476 C 0.35562 0.45555 0.94604 0.0
H477 H 0.48531 0.54633 0.85349 0.0
H478 H 0.45224 0.51788 0.87065 0.0
C479 C 0.33543 0.43998 0.95492 0.0
C480 C 0.37096 0.49274 0.9212 0.0
H481 H 0.39931 0.51925 0.86567 0.0
C482 C 0.38633 0.50357 0.94012 0.0
C483 C 0.37612 0.49808 0.89398 0.0
C484 C 0.36146 0.48597 0.87258 0.0
C485 C 0.40638 0.51992 0.9326 0.0
C486 C 0.41081 0.52599 0.90544 0.0
C487 C 0.39573 0.51483 0.88652 0.0
C488 C 0.43141 0.54336 0.89603 0.0
C489 C 0.42295 0.53017 0.95379 0.0
C490 C 0.43072 0.56727 0.90451 0.0
C491 C 0.4498 0.58363 0.89486 0.0
C492 C 0.46975 0.57646 0.87627 0.0
C493 C 0.47027 0.55252 0.86778 0.0
C494 C 0.45134 0.53619 0.87756 0.0
H495 H 0.42221 0.51883 0.97222 0.0
H496 H 0.44407 0.53188 0.94688 0.0
H497 H 0.41504 0.54835 0.95877 0.0
H498 H 0.41516 0.5734 0.91826 0.0
H499 H 0.44866 0.60198 0.90162 0.0
H500 H 0.73608 0.53617 0.45868 0.0
H501 H 0.71251 0.50595 0.43434 0.0
H502 H 0.63722 0.53772 0.45998 0.0
H503 H 0.66042 0.56795 0.48404 0.0
H504 H 0.67567 0.47247 0.45554 0.0
H505 H 0.62971 0.53232 0.37987 0.0
H506 H 0.65712 0.5415 0.39924 0.0
H507 H 0.6236 0.54246 0.41302 0.0
C508 C 0.71451 0.53686 0.45888 0.0
C509 C 0.70013 0.55451 0.47325 0.0
C510 C 0.7011 0.51957 0.44502 0.0
C511 C 0.67314 0.51982 0.44508 0.0
C512 C 0.6588 0.53749 0.45924 0.0
H513 H 0.55812 0.4112 0.42329 0.0
H514 H 0.59081 0.43866 0.43963 0.0
C515 C 0.67213 0.55469 0.47312 0.0
C516 C 0.65868 0.501 0.43149 0.0
H517 H 0.61082 0.49328 0.38636 0.0
C518 C 0.66174 0.47694 0.44016 0.0
C519 C 0.64079 0.50683 0.41121 0.0
C520 C 0.63776 0.53215 0.40008 0.0
C521 C 0.64647 0.45869 0.4299 0.0
C522 C 0.6274 0.46478 0.41077 0.0
C523 C 0.62523 0.48867 0.40125 0.0
C524 C 0.60881 0.4469 0.40099 0.0
C525 C 0.6508 0.43309 0.43971 0.0
C526 C 0.60783 0.44266 0.3738 0.0
C527 C 0.58902 0.42711 0.36435 0.0
C528 C 0.57066 0.41563 0.38191 0.0
C529 C 0.57198 0.41967 0.40921 0.0
C530 C 0.59079 0.43524 0.41862 0.0
H531 H 0.67092 0.43037 0.44786 0.0
H532 H 0.63587 0.42894 0.4558 0.0
H533 H 0.64842 0.42015 0.4236 0.0
H534 H 0.62147 0.45157 0.35985 0.0
H535 H 0.58863 0.42439 0.34321 0.0
H536 H 0.72567 0.42621 0.92557 0.0
H537 H 0.70141 0.45626 0.8989 0.0
H538 H 0.69668 0.50358 0.96535 0.0
H539 H 0.72133 0.47414 0.99175 0.0
H540 H 0.65139 0.47224 0.90872 0.0
H541 H 0.718 0.55019 0.90689 0.0
H542 H 0.72906 0.52031 0.91688 0.0
H543 H 0.71128 0.53937 0.94012 0.0
C544 C 0.71992 0.44321 0.93432 0.0
C545 C 0.72548 0.44774 0.96081 0.0
C546 C 0.70603 0.46036 0.91906 0.0
C547 C 0.69758 0.48236 0.92997 0.0
C548 C 0.70361 0.48707 0.95621 0.0
H549 H 0.57874 0.59153 0.90663 0.0
H550 H 0.61411 0.56401 0.92153 0.0
C551 C 0.71756 0.47006 0.97139 0.0
C552 C 0.68028 0.49946 0.91503 0.0
H553 H 0.67165 0.55907 0.89852 0.0
C554 C 0.65607 0.49113 0.90602 0.0
C555 C 0.68637 0.52414 0.9115 0.0
C556 C 0.71273 0.53396 0.91912 0.0
C557 C 0.63726 0.50699 0.89479 0.0
C558 C 0.64287 0.53178 0.89245 0.0
C559 C 0.66739 0.54004 0.90058 0.0
C560 C 0.62284 0.54948 0.88281 0.0
C561 C 0.61103 0.49738 0.88648 0.0
C562 C 0.61646 0.55065 0.85603 0.0
C563 C 0.59633 0.56642 0.8474 0.0
C564 C 0.58213 0.58118 0.86548 0.0
C565 C 0.58912 0.58033 0.89222 0.0
C566 C 0.60937 0.56468 0.90076 0.0
H567 H 0.60854 0.47815 0.89244 0.0
H568 H 0.59422 0.50809 0.89532 0.0
H569 H 0.60987 0.49906 0.86462 0.0
H570 H 0.62681 0.53913 0.84189 0.0
H571 H 0.59154 0.56665 0.82666 0.0
H572 H 0.32034 0.57966 0.43459 0.0
H573 H 0.3479 0.54988 0.41079 0.0
H574 H 0.32306 0.49477 0.46747 0.0
H575 H 0.29526 0.52421 0.49114 0.0
H576 H 0.38984 0.5256 0.43401 0.0
H577 H 0.3185 0.46032 0.39767 0.0
H578 H 0.30836 0.49007 0.40814 0.0
H579 H 0.3137 0.46627 0.43228 0.0
C580 C 0.3202 0.56109 0.44163 0.0
C581 C 0.30566 0.55437 0.46486 0.0
C582 C 0.33602 0.5441 0.42802 0.0
C583 C 0.33739 0.52007 0.43723 0.0
C584 C 0.32193 0.51309 0.45969 0.0
H585 H 0.44109 0.39596 0.41252 0.0
H586 H 0.40624 0.42477 0.4268 0.0
C587 C 0.30615 0.53003 0.47331 0.0
C588 C 0.35715 0.50295 0.42532 0.0
H589 H 0.36423 0.44732 0.39834 0.0
C590 C 0.38422 0.50862 0.42588 0.0
C591 C 0.34979 0.48071 0.41499 0.0
C592 C 0.32099 0.47403 0.41297 0.0
C593 C 0.40419 0.4924 0.41709 0.0
C594 C 0.39686 0.47005 0.407 0.0
C595 C 0.36978 0.46445 0.40614 0.0
C596 C 0.41715 0.45222 0.39751 0.0
C597 C 0.433 0.499 0.41949 0.0
C598 C 0.43448 0.45796 0.376 0.0
C599 C 0.45446 0.44164 0.36789 0.0
C600 C 0.45743 0.41915 0.38101 0.0
C601 C 0.43951 0.41318 0.40209 0.0
C602 C 0.41953 0.42958 0.41024 0.0
H603 H 0.43526 0.51387 0.4335 0.0
H604 H 0.44511 0.48324 0.4263 0.0
H605 H 0.44115 0.50508 0.3998 0.0
H606 H 0.43264 0.47515 0.36558 0.0
H607 H 0.46766 0.44675 0.35137 0.0
H608 H 0.8392 0.92663 0.9635 0.0
H609 H 0.87374 0.95485 0.94858 0.0
H610 H 0.8143 0.99993 0.91124 0.0
H611 H 0.77979 0.97171 0.92592 0.0
H612 H 0.85735 0.99424 0.87936 0.0
H613 H 0.88916 0.01956 0.97869 0.0
H614 H 0.89135 0.98776 0.97342 0.0
H615 H 0.85932 0.00287 0.974 0.0
C616 C 0.83344 0.94276 0.95254 0.0
C617 C 0.80668 0.9472 0.94639 0.0
C618 C 0.85321 0.95887 0.94397 0.0
C619 C 0.84655 0.97985 0.92932 0.0
C620 C 0.81992 0.98399 0.92268 0.0
H621 H 0.94714 0.10453 0.8993 0.0
H622 H 0.91273 0.07657 0.91536 0.0
C623 C 0.80022 0.96781 0.93105 0.0
C624 C 0.86731 0.9972 0.92025 0.0
H625 H 0.91602 0.03325 0.94182 0.0
C626 C 0.87012 0.00282 0.89305 0.0
C627 C 0.88371 0.00872 0.93812 0.0
C628 C 0.88061 0.00464 0.9677 0.0
C629 C 0.88905 0.01932 0.88319 0.0
C630 C 0.90616 0.0301 0.90095 0.0
C631 C 0.9031 0.02479 0.92819 0.0
C632 C 0.92734 0.04692 0.89159 0.0
C633 C 0.89013 0.0254 0.85389 0.0
C634 C 0.94726 0.03943 0.87327 0.0
C635 C 0.96679 0.05538 0.86392 0.0
C636 C 0.96709 0.07911 0.87299 0.0
C637 C 0.9475 0.08641 0.89188 0.0
C638 C 0.92782 0.07044 0.90109 0.0
H639 H 0.87105 0.02141 0.84457 0.0
H640 H 0.89459 0.04469 0.85008 0.0
H641 H 0.90607 0.01436 0.84407 0.0
H642 H 0.94774 0.0212 0.86617 0.0
H643 H 0.9817 0.04904 0.84958 0.0
H644 H 0.17051 0.0788 0.44679 0.0
H645 H 0.14458 0.04727 0.42771 0.0
H646 H 0.19953 0.99331 0.45744 0.0
H647 H 0.226 0.02484 0.47617 0.0
H648 H 0.18349 0.98394 0.4069 0.0
H649 H 0.09641 0.00406 0.47373 0.0
H650 H 0.10723 0.02974 0.45428 0.0
H651 H 0.12886 0.01629 0.47839 0.0
C652 C 0.17726 0.06025 0.44909 0.0
C653 C 0.20016 0.05431 0.46327 0.0
C654 C 0.16231 0.04224 0.43829 0.0
C655 C 0.16976 0.01792 0.44174 0.0
C656 C 0.19332 0.01197 0.45476 0.0
H657 H 0.05774 0.90243 0.42309 0.0
H658 H 0.09062 0.92934 0.44022 0.0
C659 C 0.20842 0.03001 0.46543 0.0
C660 C 0.15248 0.99874 0.43251 0.0
H661 H 0.08925 0.97747 0.43865 0.0
C662 C 0.16292 0.98241 0.41391 0.0
C663 C 0.12582 0.99647 0.44212 0.0
C664 C 0.11396 0.01241 0.46343 0.0
C665 C 0.14715 0.96429 0.40408 0.0
C666 C 0.12009 0.96281 0.41272 0.0
C667 C 0.10991 0.97874 0.43185 0.0
C668 C 0.10172 0.9452 0.40195 0.0
C669 C 0.15971 0.94675 0.3848 0.0
C670 C 0.09704 0.94515 0.37473 0.0
C671 C 0.07839 0.92969 0.36485 0.0
C672 C 0.06371 0.91422 0.38206 0.0
C673 C 0.06861 0.91417 0.4093 0.0
C674 C 0.08742 0.92952 0.41913 0.0
H675 H 0.18168 0.9455 0.38666 0.0
H676 H 0.1514 0.92849 0.38787 0.0
H677 H 0.15568 0.95305 0.36429 0.0
H678 H 0.10731 0.95751 0.36117 0.0
H679 H 0.07504 0.9303 0.34378 0.0
H680 H 0.21535 0.96981 0.98685 0.0
H681 H 0.19093 0.99973 0.96078 0.0
H682 H 0.20018 0.95533 0.89214 0.0
H683 H 0.22405 0.92474 0.91842 0.0
H684 H 0.20171 0.02654 0.91637 0.0
H685 H 0.12013 0.96321 0.89901 0.0
H686 H 0.14606 0.95627 0.92193 0.0
H687 H 0.1525 0.95348 0.88689 0.0
C688 C 0.21246 0.96641 0.96614 0.0
C689 C 0.22137 0.94467 0.95483 0.0
C690 C 0.19849 0.98361 0.95124 0.0
C691 C 0.19319 0.97955 0.92467 0.0
C692 C 0.20342 0.95855 0.91281 0.0
H693 H 0.08749 0.06603 0.82353 0.0
H694 H 0.12289 0.03831 0.83807 0.0
C695 C 0.21724 0.94116 0.92781 0.0
C696 C 0.17584 0.99691 0.91011 0.0
H697 H 0.11544 0.00251 0.88125 0.0
C698 C 0.18295 0.02124 0.9085 0.0
C699 C 0.15128 0.99 0.89992 0.0
C700 C 0.14184 0.96438 0.90217 0.0
C701 C 0.16597 0.03888 0.89745 0.0
C702 C 0.14124 0.03201 0.88787 0.0
C703 C 0.1345 0.00764 0.88859 0.0
C704 C 0.12125 0.04996 0.87861 0.0
C705 C 0.17442 0.06479 0.89636 0.0
C706 C 0.10862 0.06563 0.89665 0.0
C707 C 0.08824 0.08133 0.88852 0.0
C708 C 0.08014 0.08168 0.86214 0.0
C709 C 0.09324 0.06626 0.84398 0.0
C710 C 0.11347 0.0504 0.85222 0.0
H711 H 0.19623 0.06637 0.89863 0.0
H712 H 0.16888 0.0737 0.87736 0.0
H713 H 0.16403 0.07459 0.91271 0.0
H714 H 0.1141 0.0653 0.9172 0.0
H715 H 0.07864 0.09299 0.90298 0.0
H716 H 0.82244 0.07778 0.44011 0.0
H717 H 0.84796 0.04575 0.41791 0.0
H718 H 0.81499 0.99341 0.47367 0.0
H719 H 0.78964 0.02529 0.4962 0.0
H720 H 0.86999 0.99273 0.47077 0.0
H721 H 0.82993 0.99061 0.37 0.0
H722 H 0.83878 0.02012 0.37992 0.0
H723 H 0.81208 0.00469 0.39734 0.0
C724 C 0.8201 0.05939 0.44729 0.0
C725 C 0.80411 0.05415 0.47006 0.0
C726 C 0.83463 0.04107 0.43448 0.0
C727 C 0.83325 0.01717 0.44404 0.0
C728 C 0.8163 0.01173 0.46594 0.0
H729 H 0.93274 0.88948 0.41143 0.0
H730 H 0.89751 0.91687 0.42787 0.0
C731 C 0.8018 0.03 0.47877 0.0
C732 C 0.85167 0.99838 0.43317 0.0
H733 H 0.87149 0.96999 0.37642 0.0
C734 C 0.87012 0.98754 0.45021 0.0
C735 C 0.85192 0.9918 0.40631 0.0
C736 C 0.83196 0.00224 0.38735 0.0
C737 C 0.88931 0.97077 0.44098 0.0
C738 C 0.88973 0.96431 0.41407 0.0
C739 C 0.87109 0.97495 0.39706 0.0
C740 C 0.91001 0.94719 0.40307 0.0
C741 C 0.90957 0.96079 0.45993 0.0
C742 C 0.9282 0.95493 0.3831 0.0
C743 C 0.94826 0.9393 0.37355 0.0
C744 C 0.95052 0.91558 0.38379 0.0
C745 C 0.9318 0.90769 0.40333 0.0
C746 C 0.91168 0.92334 0.41281 0.0
H747 H 0.91052 0.97184 0.47789 0.0
H748 H 0.90397 0.94229 0.4664 0.0
H749 H 0.92973 0.95985 0.45022 0.0
H750 H 0.9272 0.97324 0.37525 0.0
H751 H 0.9622 0.94596 0.35838 0.0
H752 H 0.37447 0.38336 0.07275 0.0
H753 H 0.39684 0.37227 0.11364 0.0
H754 H 0.35917 0.433 0.15233 0.0
H755 H 0.33629 0.44394 0.11175 0.0
H756 H 0.43179 0.39768 0.14153 0.0
H757 H 0.34158 0.3783 0.20424 0.0
H758 H 0.34072 0.38176 0.16866 0.0
H759 H 0.34092 0.40784 0.18905 0.0
C760 C 0.37088 0.39434 0.08997 0.0
C761 C 0.35346 0.41447 0.08903 0.0
C762 C 0.38367 0.38796 0.11333 0.0
C763 C 0.37926 0.40152 0.13619 0.0
C764 C 0.36232 0.4219 0.13515 0.0
H765 H 0.44767 0.40535 0.28992 0.0
H766 H 0.42178 0.41177 0.25018 0.0
C767 C 0.34942 0.42824 0.11185 0.0
C768 C 0.39305 0.39479 0.16085 0.0
H769 H 0.38246 0.3808 0.22659 0.0
C770 C 0.42101 0.39377 0.16007 0.0
C771 C 0.37892 0.38966 0.18502 0.0
C772 C 0.34888 0.3892 0.18682 0.0
C773 C 0.43524 0.3884 0.18295 0.0
C774 C 0.42111 0.38368 0.20716 0.0
C775 C 0.39318 0.38446 0.20795 0.0
C776 C 0.43513 0.37863 0.23201 0.0
C777 C 0.4653 0.38844 0.18125 0.0
C778 C 0.4506 0.35753 0.23521 0.0
C779 C 0.46537 0.35373 0.25793 0.0
C780 C 0.46498 0.37104 0.2778 0.0
C781 C 0.44859 0.39173 0.27493 0.0
C782 C 0.43374 0.39543 0.25227 0.0
H783 H 0.47303 0.3968 0.16237 0.0
H784 H 0.47323 0.39829 0.19803 0.0
H785 H 0.47305 0.36962 0.18247 0.0
H786 H 0.45161 0.34421 0.2199 0.0
H787 H 0.47769 0.33756 0.25954 0.0
H788 H 0.74323 0.62384 0.60482 0.0
H789 H 0.71901 0.62908 0.64727 0.0
H790 H 0.65011 0.65545 0.60605 0.0
H791 H 0.6745 0.6513 0.56377 0.0
H792 H 0.65517 0.67939 0.65011 0.0
H793 H 0.66479 0.58141 0.67303 0.0
H794 H 0.69612 0.59624 0.66921 0.0
H795 H 0.67498 0.59438 0.64133 0.0
C796 C 0.72305 0.6311 0.60486 0.0
C797 C 0.71068 0.6369 0.58092 0.0
C798 C 0.70916 0.6339 0.62912 0.0
C799 C 0.68246 0.64197 0.62982 0.0
C800 C 0.67062 0.64902 0.60602 0.0
H801 H 0.55778 0.60828 0.74362 0.0
H802 H 0.5905 0.61112 0.70689 0.0
C803 C 0.68462 0.64663 0.58183 0.0
C804 C 0.66622 0.64194 0.65499 0.0
H805 H 0.64246 0.60507 0.70512 0.0
C806 C 0.65247 0.66317 0.66223 0.0
C807 C 0.66241 0.62067 0.67059 0.0
C808 C 0.67513 0.59683 0.66307 0.0
C809 C 0.63459 0.66361 0.68425 0.0
C810 C 0.63105 0.6424 0.70001 0.0
C811 C 0.6453 0.62135 0.69313 0.0
C812 C 0.61134 0.64106 0.72262 0.0
C813 C 0.61882 0.68649 0.68961 0.0
C814 C 0.61224 0.6568 0.74388 0.0
C815 C 0.5932 0.65548 0.76475 0.0
C816 C 0.5733 0.63802 0.76501 0.0
C817 C 0.57287 0.62191 0.74404 0.0
C818 C 0.59159 0.62351 0.72302 0.0
H819 H 0.61853 0.69872 0.67187 0.0
H820 H 0.59794 0.68255 0.69594 0.0
H821 H 0.62814 0.69621 0.7057 0.0
H822 H 0.62772 0.67003 0.74442 0.0
H823 H 0.59424 0.66794 0.78081 0.0
H824 H 0.74163 0.37355 0.11912 0.0
H825 H 0.72056 0.3629 0.1622 0.0
H826 H 0.64431 0.35991 0.12585 0.0
H827 H 0.66518 0.36985 0.08289 0.0
H828 H 0.6841 0.38909 0.18842 0.0
H829 H 0.64162 0.30023 0.17195 0.0
H830 H 0.66637 0.31339 0.14952 0.0
H831 H 0.6316 0.32136 0.14667 0.0
C832 C 0.72047 0.37014 0.12024 0.0
C833 C 0.70508 0.37258 0.09757 0.0
C834 C 0.70846 0.36407 0.14487 0.0
C835 C 0.68091 0.36023 0.14723 0.0
C836 C 0.66569 0.36209 0.12447 0.0
H837 H 0.56578 0.39538 0.26551 0.0
H838 H 0.60059 0.39327 0.23086 0.0
C839 C 0.67766 0.36802 0.09989 0.0
C840 C 0.66742 0.35682 0.17363 0.0
H841 H 0.61948 0.32386 0.20647 0.0
C842 C 0.67039 0.37453 0.19258 0.0
C843 C 0.6499 0.33761 0.17938 0.0
C844 C 0.64743 0.31695 0.16088 0.0
C845 C 0.65496 0.37445 0.21628 0.0
C846 C 0.6356 0.35654 0.22082 0.0
C847 C 0.63398 0.33787 0.20277 0.0
C848 C 0.61542 0.35796 0.2429 0.0
C849 C 0.65924 0.39386 0.23596 0.0
C850 C 0.61168 0.33854 0.26087 0.0
C851 C 0.59146 0.33954 0.28062 0.0
C852 C 0.57453 0.35997 0.28263 0.0
C853 C 0.57851 0.37942 0.26468 0.0
C854 C 0.59859 0.37834 0.24494 0.0
H855 H 0.68003 0.40036 0.23443 0.0
H856 H 0.64578 0.40944 0.23165 0.0
H857 H 0.65495 0.38735 0.2566 0.0
H858 H 0.62431 0.32255 0.2595 0.0
H859 H 0.58894 0.32425 0.29414 0.0
H860 H 0.3428 0.5602 0.60732 0.0
H861 H 0.36957 0.56983 0.64481 0.0
H862 H 0.3289 0.63864 0.65106 0.0
H863 H 0.30178 0.62913 0.61336 0.0
H864 H 0.40331 0.61115 0.64585 0.0
H865 H 0.32668 0.60861 0.72822 0.0
H866 H 0.3222 0.59412 0.69712 0.0
H867 H 0.31876 0.62622 0.69904 0.0
C868 C 0.3393 0.57732 0.61675 0.0
C869 C 0.32016 0.59393 0.6073 0.0
C870 C 0.35466 0.58278 0.63818 0.0
C871 C 0.35109 0.60485 0.65076 0.0
C872 C 0.3317 0.62137 0.64177 0.0
H873 H 0.46832 0.66237 0.75474 0.0
H874 H 0.43486 0.65843 0.7212 0.0
C875 C 0.31632 0.61594 0.6202 0.0
C876 C 0.36879 0.61085 0.67233 0.0
H877 H 0.37032 0.61889 0.73905 0.0
C878 C 0.39611 0.61302 0.66621 0.0
C879 C 0.35926 0.61306 0.69883 0.0
C880 C 0.33016 0.61025 0.70642 0.0
C881 C 0.41427 0.61712 0.68597 0.0
C882 C 0.40478 0.61935 0.71249 0.0
C883 C 0.37743 0.61734 0.71863 0.0
C884 C 0.42329 0.62265 0.73418 0.0
C885 C 0.44358 0.61835 0.67846 0.0
C886 C 0.42727 0.60408 0.75301 0.0
C887 C 0.4464 0.60622 0.7722 0.0
C888 C 0.4618 0.62705 0.77295 0.0
C889 C 0.45698 0.646 0.75462 0.0
C890 C 0.4379 0.6438 0.73541 0.0
H891 H 0.44806 0.61177 0.65817 0.0
H892 H 0.44999 0.63731 0.67914 0.0
H893 H 0.45555 0.60753 0.69268 0.0
H894 H 0.4161 0.58764 0.75239 0.0
H895 H 0.44943 0.59136 0.78614 0.0
H896 H 0.87269 0.88595 0.07096 0.0
H897 H 0.8942 0.87459 0.11223 0.0
H898 H 0.85328 0.93337 0.15152 0.0
H899 H 0.83124 0.94456 0.11052 0.0
H900 H 0.92731 0.90022 0.14187 0.0
H901 H 0.83614 0.87717 0.20149 0.0
H902 H 0.83619 0.88143 0.16595 0.0
H903 H 0.83498 0.90701 0.18711 0.0
C904 C 0.86821 0.89644 0.08839 0.0
C905 C 0.85012 0.91608 0.08748 0.0
C906 C 0.8805 0.8899 0.11197 0.0
C907 C 0.87493 0.90282 0.13509 0.0
C908 C 0.85732 0.92274 0.13411 0.0
H909 H 0.93987 0.90389 0.29088 0.0
H910 H 0.91452 0.91107 0.25088 0.0
C911 C 0.84491 0.92923 0.11058 0.0
C912 C 0.88819 0.89591 0.16001 0.0
H913 H 0.87623 0.87995 0.22506 0.0
C914 C 0.91615 0.89559 0.15999 0.0
C915 C 0.87358 0.88985 0.18364 0.0
C916 C 0.84357 0.88863 0.18457 0.0
C917 C 0.92987 0.88993 0.18311 0.0
C918 C 0.91524 0.88422 0.20678 0.0
C919 C 0.88733 0.88437 0.20683 0.0
C920 C 0.92874 0.87862 0.23181 0.0
C921 C 0.95991 0.89066 0.18226 0.0
C922 C 0.94446 0.85762 0.23458 0.0
C923 C 0.9589 0.85338 0.25744 0.0
C924 C 0.95793 0.87015 0.27789 0.0
C925 C 0.94123 0.89068 0.27545 0.0
C926 C 0.9267 0.89482 0.25264 0.0
H927 H 0.9679 0.89968 0.16387 0.0
H928 H 0.96707 0.90021 0.19961 0.0
H929 H 0.96816 0.87198 0.18308 0.0
H930 H 0.94598 0.84477 0.21881 0.0
H931 H 0.97147 0.83736 0.25869 0.0
H932 H 0.24226 0.12005 0.60433 0.0
H933 H 0.21796 0.12555 0.64667 0.0
H934 H 0.15319 0.16035 0.60574 0.0
H935 H 0.17791 0.15601 0.56362 0.0
H936 H 0.15931 0.18095 0.65143 0.0
H937 H 0.15862 0.08188 0.6683 0.0
H938 H 0.19149 0.09392 0.66618 0.0
H939 H 0.17093 0.09555 0.63768 0.0
C940 C 0.22303 0.12924 0.60444 0.0
C941 C 0.21186 0.13735 0.58062 0.0
C942 C 0.20906 0.13218 0.62862 0.0
C943 C 0.18336 0.14266 0.62932 0.0
C944 C 0.17289 0.15204 0.60572 0.0
H945 H 0.05488 0.11282 0.74044 0.0
H946 H 0.08779 0.11526 0.70386 0.0
C947 C 0.18707 0.14955 0.58162 0.0
C948 C 0.16661 0.14267 0.65418 0.0
H949 H 0.13871 0.10551 0.70186 0.0
C950 C 0.15485 0.16447 0.66252 0.0
C951 C 0.16047 0.12109 0.66843 0.0
C952 C 0.17081 0.09676 0.65959 0.0
C953 C 0.13676 0.16525 0.68437 0.0
C954 C 0.131 0.14371 0.69886 0.0
C955 C 0.14324 0.12203 0.69086 0.0
C956 C 0.11102 0.14281 0.72127 0.0
C957 C 0.12317 0.18895 0.6909 0.0
C958 C 0.11313 0.15737 0.74341 0.0
C959 C 0.09397 0.15632 0.7642 0.0
C960 C 0.07274 0.14025 0.7635 0.0
C961 C 0.07102 0.12534 0.74161 0.0
C962 C 0.08985 0.12671 0.72068 0.0
H963 H 0.12411 0.2019 0.67379 0.0
H964 H 0.10193 0.1864 0.69696 0.0
H965 H 0.13333 0.19711 0.70752 0.0
H966 H 0.12967 0.16941 0.74474 0.0
H967 H 0.09598 0.16782 0.78098 0.0
H968 H 0.15441 0.8769 0.07828 0.0
H969 H 0.13288 0.86857 0.12141 0.0
H970 H 0.20973 0.86076 0.15644 0.0
H971 H 0.23159 0.86968 0.11324 0.0
H972 H 0.13536 0.83015 0.15657 0.0
H973 H 0.17318 0.91308 0.20061 0.0
H974 H 0.17584 0.90781 0.16553 0.0
H975 H 0.19818 0.89256 0.18765 0.0
C976 C 0.16682 0.87327 0.09507 0.0
C977 C 0.19473 0.87423 0.09236 0.0
C978 C 0.15445 0.86845 0.11973 0.0
C979 C 0.16968 0.86445 0.14221 0.0
C980 C 0.1976 0.8643 0.13943 0.0
H981 H 0.08213 0.82493 0.29122 0.0
H982 H 0.11563 0.82389 0.25479 0.0
C983 C 0.21004 0.86926 0.11471 0.0
C984 C 0.15594 0.86146 0.16851 0.0
H985 H 0.14446 0.8893 0.22743 0.0
C986 C 0.13755 0.84289 0.17224 0.0
C987 C 0.15871 0.87827 0.18877 0.0
C988 C 0.17736 0.89919 0.1855 0.0
C989 C 0.12117 0.84113 0.19527 0.0
C990 C 0.12368 0.85815 0.21536 0.0
C991 C 0.14273 0.87621 0.21204 0.0
C992 C 0.10492 0.85907 0.23864 0.0
C993 C 0.10037 0.82188 0.19726 0.0
C994 C 0.08848 0.87952 0.24219 0.0
C995 C 0.06956 0.88028 0.26305 0.0
C996 C 0.06661 0.86055 0.28082 0.0
C997 C 0.08368 0.84033 0.27772 0.0
C998 C 0.10276 0.83965 0.25686 0.0
H999 H 0.09748 0.81343 0.1779 0.0
H1000 H 0.10673 0.80756 0.21151 0.0
H1001 H 0.08092 0.82945 0.2046 0.0
H1002 H 0.08987 0.89474 0.2284 0.0
H1003 H 0.05686 0.89619 0.26487 0.0
H1004 H 0.84086 0.15539 0.58854 0.0
H1005 H 0.86656 0.15831 0.62857 0.0
H1006 H 0.8195 0.10259 0.6668 0.0
H1007 H 0.79359 0.09953 0.62695 0.0
H1008 H 0.84794 0.16472 0.68641 0.0
H1009 H 0.90057 0.07803 0.66367 0.0
H1010 H 0.88359 0.09571 0.63872 0.0
H1011 H 0.86474 0.07868 0.6632 0.0
C1012 C 0.83568 0.144 0.60558 0.0
C1013 C 0.81533 0.12707 0.60445 0.0
C1014 C 0.85036 0.14572 0.62843 0.0
C1015 C 0.84506 0.13048 0.65043 0.0
C1016 C 0.82398 0.11437 0.64988 0.0
H1017 H 0.94385 0.09955 0.78637 0.0
H1018 H 0.90809 0.09935 0.75471 0.0
C1019 C 0.80917 0.11271 0.62711 0.0
C1020 C 0.86278 0.13032 0.67317 0.0
H1021 H 0.91297 0.09781 0.7017 0.0
C1022 C 0.86209 0.15007 0.68991 0.0
C1023 C 0.88105 0.1111 0.67765 0.0
C1024 C 0.8828 0.08967 0.65985 0.0
C1025 C 0.87936 0.15114 0.71111 0.0
C1026 C 0.89825 0.13224 0.71512 0.0
C1027 C 0.8985 0.11228 0.69862 0.0
C1028 C 0.91877 0.13321 0.73546 0.0
C1029 C 0.877 0.17239 0.72911 0.0
C1030 C 0.93673 0.15223 0.73508 0.0
C1031 C 0.95707 0.15247 0.75321 0.0
C1032 C 0.96015 0.13347 0.77185 0.0
C1033 C 0.9421 0.11443 0.77223 0.0
C1034 C 0.92162 0.1143 0.75418 0.0
H1035 H 0.85671 0.18072 0.72893 0.0
H1036 H 0.88152 0.16707 0.74983 0.0
H1037 H 0.89135 0.18627 0.72209 0.0
H1038 H 0.93542 0.16667 0.72036 0.0
H1039 H 0.9707 0.16735 0.75223 0.0
loop_
_geom_bond_atom_site_label_1
_geom_bond_atom_site_label_2
_geom_bond_distance
_geom_bond_site_symmetry_2
_ccdc_geom_bond_type
O0 Cd1 2.300 . S
O0 C7 1.275 . S
Cd1 O0 2.300 . S
Cd1 O9 2.381 . S
Cd1 O10 2.378 . S
O2 Cd3 2.385 1_556 S
O2 C7 1.255 . S
Cd3 O2 2.385 1_554 S
Cd3 O4 2.317 . S
O4 Cd3 2.317 . S
O4 C5 1.232 . S
C5 O4 1.232 . S
C5 O6 1.218 . S
O6 C5 1.218 . S
C7 O0 1.275 . S
C7 O2 1.255 . S
C8 O9 1.258 . S
C8 O10 1.256 . S
O9 Cd1 2.381 . S
O9 C8 1.258 . S
O10 Cd1 2.378 . S
O10 C8 1.256 . S
O11 Cd12 2.300 . S
O11 C18 1.275 . S
Cd12 O11 2.300 . S
Cd12 O20 2.381 . S
Cd12 O21 2.378 . S
O13 Cd14 2.385 . S
O13 C18 1.255 . S
Cd14 O13 2.385 . S
Cd14 O15 2.317 . S
O15 Cd14 2.317 . S
O15 C16 1.232 . S
C16 O15 1.232 . S
C16 O17 1.218 . S
O17 C16 1.218 . S
C18 O11 1.275 . S
C18 O13 1.255 . S
C19 O20 1.258 . S
C19 O21 1.256 . S
O20 Cd12 2.381 . S
O20 C19 1.258 . S
O21 Cd12 2.378 . S
O21 C19 1.256 . S
O22 Cd23 2.300 . S
O22 C29 1.275 . S
Cd23 O22 2.300 . S
Cd23 O31 2.381 . S
Cd23 O32 2.378 . S
O24 Cd25 2.385 . S
O24 C29 1.255 1_554 S
Cd25 O24 2.385 . S
Cd25 O26 2.317 . S
O26 Cd25 2.317 . S
O26 C27 1.232 . S
C27 O26 1.232 . S
C27 O28 1.218 . S
O28 C27 1.218 . S
C29 O22 1.275 . S
C29 O24 1.255 1_556 S
C30 O31 1.258 . S
C30 O32 1.256 . S
O31 Cd23 2.381 . S
O31 C30 1.258 . S
O32 Cd23 2.378 . S
O32 C30 1.256 . S
O33 Cd34 2.300 . S
O33 C40 1.275 . S
Cd34 O33 2.300 . S
Cd34 O42 2.381 . S
Cd34 O43 2.378 . S
O35 Cd36 2.385 . S
O35 C40 1.255 . S
Cd36 O35 2.385 . S
Cd36 O37 2.317 . S
O37 Cd36 2.317 . S
O37 C38 1.232 . S
C38 O37 1.232 . S
C38 O39 1.218 . S
O39 C38 1.218 . S
C40 O33 1.275 . S
C40 O35 1.255 . S
C41 O42 1.258 . S
C41 O43 1.256 . S
O42 Cd34 2.381 . S
O42 C41 1.258 . S
O43 Cd34 2.378 . S
O43 C41 1.256 . S
O44 Cd45 2.300 . S
O44 C51 1.275 . S
Cd45 O44 2.300 . S
Cd45 O53 2.381 . S
Cd45 O54 2.378 . S
O46 Cd47 2.385 1_556 S
O46 C51 1.255 . S
Cd47 O46 2.385 1_554 S
Cd47 O48 2.317 . S
O48 Cd47 2.317 . S
O48 C49 1.232 . S
C49 O48 1.232 . S
C49 O50 1.218 . S
O50 C49 1.218 . S
C51 O44 1.275 . S
C51 O46 1.255 . S
C52 O53 1.258 . S
C52 O54 1.256 . S
O53 Cd45 2.381 . S
O53 C52 1.258 . S
O54 Cd45 2.378 . S
O54 C52 1.256 . S
O55 Cd56 2.300 . S
O55 C62 1.275 . S
Cd56 O55 2.300 . S
Cd56 O64 2.381 . S
Cd56 O65 2.378 . S
O57 Cd58 2.385 . S
O57 C62 1.255 . S
Cd58 O57 2.385 . S
Cd58 O59 2.317 . S
O59 Cd58 2.317 . S
O59 C60 1.232 . S
C60 O59 1.232 . S
C60 O61 1.218 . S
O61 C60 1.218 . S
C62 O55 1.275 . S
C62 O57 1.255 . S
C63 O64 1.258 . S
C63 O65 1.256 . S
O64 Cd56 2.381 . S
O64 C63 1.258 . S
O65 Cd56 2.378 . S
O65 C63 1.256 . S
O66 Cd67 2.300 . S
O66 C73 1.275 . S
Cd67 O66 2.300 . S
Cd67 O75 2.381 . S
Cd67 O76 2.378 . S
O68 Cd69 2.385 . S
O68 C73 1.255 1_554 S
Cd69 O68 2.385 . S
Cd69 O70 2.317 . S
O70 Cd69 2.317 . S
O70 C71 1.232 . S
C71 O70 1.232 . S
C71 O72 1.218 . S
O72 C71 1.218 . S
C73 O66 1.275 . S
C73 O68 1.255 1_556 S
C74 O75 1.258 . S
C74 O76 1.256 . S
O75 Cd67 2.381 . S
O75 C74 1.258 . S
O76 Cd67 2.378 . S
O76 C74 1.256 . S
O77 Cd78 2.300 . S
O77 C84 1.275 . S
Cd78 O77 2.300 . S
Cd78 O86 2.381 . S
Cd78 O87 2.378 . S
O79 Cd80 2.385 . S
O79 C84 1.255 . S
Cd80 O79 2.385 . S
Cd80 O81 2.317 . S
O81 Cd80 2.317 . S
O81 C82 1.232 . S
C82 O81 1.232 . S
C82 O83 1.218 . S
O83 C82 1.218 . S
C84 O77 1.275 . S
C84 O79 1.255 . S
C85 O86 1.258 . S
C85 O87 1.256 . S
O86 Cd78 2.381 . S
O86 C85 1.258 . S
O87 Cd78 2.378 . S
O87 C85 1.256 . S
Fe88 O90 1.918 . S
Fe88 O93 1.997 1_455 S
Fe88 O94 2.002 1_455 S
Fe88 O99 1.976 . S
Fe88 O102 1.996 . S
Fe89 O90 1.918 . S
Fe89 O97 1.997 1_455 S
Fe89 O100 1.996 . S
Fe89 O104 1.976 . S
Fe89 O107 2.002 1_455 S
O90 Fe88 1.918 . S
O90 Fe89 1.918 . S
O90 Fe91 1.918 . S
Fe91 O90 1.918 . S
Fe91 O92 2.002 1_455 S
Fe91 O101 1.976 . S
Fe91 O105 1.996 . S
Fe91 O108 1.997 1_455 S
O92 Fe91 2.002 1_655 S
O92 C109 1.295 . S
O93 Fe88 1.997 1_655 S
O93 C109 1.235 . S
O94 Fe88 2.002 1_655 S
O94 C95 1.295 . S
C95 O94 1.295 . S
C95 O97 1.235 . S
C96 O101 1.287 . S
C96 O102 1.255 . S
O97 Fe89 1.997 1_655 S
O97 C95 1.235 . S
C98 O104 1.287 . S
C98 O105 1.255 . S
O99 Fe88 1.976 . S
O99 C106 1.287 . S
O100 Fe89 1.996 . S
O100 C106 1.255 . S
O101 Fe91 1.976 . S
O101 C96 1.287 . S
O102 Fe88 1.996 . S
O102 C96 1.255 . S
C103 O107 1.295 . S
C103 O108 1.235 . S
O104 Fe89 1.976 . S
O104 C98 1.287 . S
O105 Fe91 1.996 . S
O105 C98 1.255 . S
C106 O99 1.287 . S
C106 O100 1.255 . S
O107 Fe89 2.002 1_655 S
O107 C103 1.295 . S
O108 Fe91 1.997 1_655 S
O108 C103 1.235 . S
C109 O92 1.295 . S
C109 O93 1.235 . S
Fe110 O112 1.918 . S
Fe110 O115 1.997 . S
Fe110 O116 2.002 . S
Fe110 O121 1.976 1_455 S
Fe110 O124 1.996 1_455 S
Fe111 O112 1.918 . S
Fe111 O119 1.997 . S
Fe111 O122 1.996 1_455 S
Fe111 O126 1.976 1_455 S
Fe111 O129 2.002 . S
O112 Fe110 1.918 . S
O112 Fe111 1.918 . S
O112 Fe113 1.918 . S
Fe113 O112 1.918 . S
Fe113 O114 2.002 . S
Fe113 O123 1.976 1_455 S
Fe113 O127 1.996 1_455 S
Fe113 O130 1.997 . S
O114 Fe113 2.002 . S
O114 C131 1.295 . S
O115 Fe110 1.997 . S
O115 C131 1.235 . S
O116 Fe110 2.002 . S
O116 C117 1.295 . S
C117 O116 1.295 . S
C117 O119 1.235 . S
C118 O123 1.287 . S
C118 O124 1.255 . S
O119 Fe111 1.997 . S
O119 C117 1.235 . S
C120 O126 1.287 . S
C120 O127 1.255 . S
O121 Fe110 1.976 1_655 S
O121 C128 1.287 . S
O122 Fe111 1.996 1_655 S
O122 C128 1.255 . S
O123 Fe113 1.976 1_655 S
O123 C118 1.287 . S
O124 Fe110 1.996 1_655 S
O124 C118 1.255 . S
C125 O129 1.295 . S
C125 O130 1.235 . S
O126 Fe111 1.976 1_655 S
O126 C120 1.287 . S
O127 Fe113 1.996 1_655 S
O127 C120 1.255 . S
C128 O121 1.287 . S
C128 O122 1.255 . S
O129 Fe111 2.002 . S
O129 C125 1.295 . S
O130 Fe113 1.997 . S
O130 C125 1.235 . S
C131 O114 1.295 . S
C131 O115 1.235 . S
Fe132 O134 1.918 . S
Fe132 O137 1.997 . S
Fe132 O138 2.002 . S
Fe132 O143 1.976 . S
Fe132 O146 1.996 . S
Fe133 O134 1.918 . S
Fe133 O141 1.997 . S
Fe133 O144 1.996 . S
Fe133 O148 1.976 . S
Fe133 O151 2.002 . S
O134 Fe132 1.918 . S
O134 Fe133 1.918 . S
O134 Fe135 1.918 . S
Fe135 O134 1.918 . S
Fe135 O136 2.002 . S
Fe135 O145 1.976 . S
Fe135 O149 1.996 . S
Fe135 O152 1.997 . S
O136 Fe135 2.002 . S
O136 C153 1.295 . S
O137 Fe132 1.997 . S
O137 C153 1.235 . S
O138 Fe132 2.002 . S
O138 C139 1.295 . S
C139 O138 1.295 . S
C139 O141 1.235 . S
C140 O145 1.287 . S
C140 O146 1.255 . S
O141 Fe133 1.997 . S
O141 C139 1.235 . S
C142 O148 1.287 . S
C142 O149 1.255 . S
O143 Fe132 1.976 . S
O143 C150 1.287 . S
O144 Fe133 1.996 . S
O144 C150 1.255 . S
O145 Fe135 1.976 . S
O145 C140 1.287 . S
O146 Fe132 1.996 . S
O146 C140 1.255 . S
C147 O151 1.295 . S
C147 O152 1.235 . S
O148 Fe133 1.976 . S
O148 C142 1.287 . S
O149 Fe135 1.996 . S
O149 C142 1.255 . S
C150 O143 1.287 . S
C150 O144 1.255 . S
O151 Fe133 2.002 . S
O151 C147 1.295 . S
O152 Fe135 1.997 . S
O152 C147 1.235 . S
C153 O136 1.295 . S
C153 O137 1.235 . S
Fe154 O156 1.918 . S
Fe154 O159 1.997 . S
Fe154 O160 2.002 . S
Fe154 O165 1.976 . S
Fe154 O168 1.996 . S
Fe155 O156 1.918 . S
Fe155 O163 1.997 . S
Fe155 O166 1.996 . S
Fe155 O170 1.976 . S
Fe155 O173 2.002 . S
O156 Fe154 1.918 . S
O156 Fe155 1.918 . S
O156 Fe157 1.918 . S
Fe157 O156 1.918 . S
Fe157 O158 2.002 . S
Fe157 O167 1.976 . S
Fe157 O171 1.996 . S
Fe157 O174 1.997 . S
O158 Fe157 2.002 . S
O158 C175 1.295 . S
O159 Fe154 1.997 . S
O159 C175 1.235 . S
O160 Fe154 2.002 . S
O160 C161 1.295 . S
C161 O160 1.295 . S
C161 O163 1.235 . S
C162 O167 1.287 . S
C162 O168 1.255 . S
O163 Fe155 1.997 . S
O163 C161 1.235 . S
C164 O170 1.287 . S
C164 O171 1.255 . S
O165 Fe154 1.976 . S
O165 C172 1.287 . S
O166 Fe155 1.996 . S
O166 C172 1.255 . S
O167 Fe157 1.976 . S
O167 C162 1.287 . S
O168 Fe154 1.996 . S
O168 C162 1.255 . S
C169 O173 1.295 . S
C169 O174 1.235 . S
O170 Fe155 1.976 . S
O170 C164 1.287 . S
O171 Fe157 1.996 . S
O171 C164 1.255 . S
C172 O165 1.287 . S
C172 O166 1.255 . S
O173 Fe155 2.002 . S
O173 C169 1.295 . S
O174 Fe157 1.997 . S
O174 C169 1.235 . S
C175 O158 1.295 . S
C175 O159 1.235 . S
H176 C184 0.929 . S
H177 C186 0.930 . S
H178 C188 0.930 . S
H179 C191 0.929 . S
H180 C194 0.930 . S
H181 C196 0.960 . S
H182 C196 0.960 . S
H183 C196 0.960 . S
C184 H176 0.929 . S
C184 C185 1.377 . S
C184 C186 1.384 . S
C185 C184 1.377 . S
C185 C191 1.390 . S
C186 H177 0.930 . S
C186 C184 1.384 . S
C186 C187 1.372 . S
C187 C186 1.372 . S
C187 C188 1.400 . S
C187 C192 1.490 . S
C188 H178 0.930 . S
C188 C187 1.400 . S
C188 C191 1.386 . S
H189 C205 0.930 . S
H190 C206 0.931 . S
C191 H179 0.929 . S
C191 C185 1.390 . S
C191 C188 1.386 . S
C192 C187 1.490 . S
C192 C194 1.395 . S
C192 C195 1.403 . S
H193 C199 0.930 . S
C194 H180 0.930 . S
C194 C192 1.395 . S
C194 C197 1.403 . S
C195 C192 1.403 . S
C195 C196 1.524 . S
C195 C199 1.400 . S
C196 H181 0.960 . S
C196 H182 0.960 . S
C196 H183 0.960 . S
C196 C195 1.524 . S
C197 C194 1.403 . S
C197 C198 1.392 . S
C197 C201 1.495 . S
C198 C197 1.392 . S
C198 C199 1.385 . S
C198 C200 1.478 . S
C199 H193 0.930 . S
C199 C195 1.400 . S
C199 C198 1.385 . S
C200 C198 1.478 . S
C200 C202 1.381 . S
C200 C206 1.383 . S
C201 C197 1.495 . S
C201 H207 0.959 . S
C201 H208 0.961 . S
C201 H209 0.960 . S
C202 C200 1.381 . S
C202 C203 1.394 . S
C202 H210 0.930 . S
C203 C202 1.394 . S
C203 C204 1.383 . S
C203 H211 0.929 . S
C204 C203 1.383 . S
C204 C205 1.377 . S
C205 H189 0.930 . S
C205 C204 1.377 . S
C205 C206 1.379 . S
C206 H190 0.931 . S
C206 C200 1.383 . S
C206 C205 1.379 . S
H207 C201 0.959 . S
H208 C201 0.961 . S
H209 C201 0.960 . S
H210 C202 0.930 . S
H211 C203 0.929 . S
H212 C220 0.929 . S
H213 C222 0.930 . S
H214 C224 0.930 . S
H215 C227 0.929 . S
H216 C230 0.930 . S
H217 C232 0.960 . S
H218 C232 0.960 . S
H219 C232 0.960 . S
C220 H212 0.929 . S
C220 C221 1.377 . S
C220 C222 1.384 . S
C221 C220 1.377 . S
C221 C227 1.390 . S
C222 H213 0.930 . S
C222 C220 1.384 . S
C222 C223 1.372 . S
C223 C222 1.372 . S
C223 C224 1.400 . S
C223 C228 1.490 . S
C224 H214 0.930 . S
C224 C223 1.400 . S
C224 C227 1.386 . S
H225 C241 0.930 . S
H226 C242 0.931 . S
C227 H215 0.929 . S
C227 C221 1.390 . S
C227 C224 1.386 . S
C228 C223 1.490 . S
C228 C230 1.395 . S
C228 C231 1.403 . S
H229 C235 0.930 . S
C230 H216 0.930 . S
C230 C228 1.395 . S
C230 C233 1.403 . S
C231 C228 1.403 . S
C231 C232 1.524 . S
C231 C235 1.400 . S
C232 H217 0.960 . S
C232 H218 0.960 . S
C232 H219 0.960 . S
C232 C231 1.524 . S
C233 C230 1.403 . S
C233 C234 1.392 . S
C233 C237 1.495 . S
C234 C233 1.392 . S
C234 C235 1.385 . S
C234 C236 1.478 . S
C235 H229 0.930 . S
C235 C231 1.400 . S
C235 C234 1.385 . S
C236 C234 1.478 . S
C236 C238 1.381 . S
C236 C242 1.383 . S
C237 C233 1.495 . S
C237 H243 0.959 . S
C237 H244 0.961 . S
C237 H245 0.960 . S
C238 C236 1.381 . S
C238 C239 1.394 . S
C238 H246 0.930 . S
C239 C238 1.394 . S
C239 C240 1.383 . S
C239 H247 0.929 . S
C240 C239 1.383 . S
C240 C241 1.377 . S
C241 H225 0.930 . S
C241 C240 1.377 . S
C241 C242 1.379 . S
C242 H226 0.931 . S
C242 C236 1.383 . S
C242 C241 1.379 . S
H243 C237 0.959 . S
H244 C237 0.961 . S
H245 C237 0.960 . S
H246 C238 0.930 . S
H247 C239 0.929 . S
H248 C256 0.929 . S
H249 C258 0.930 . S
H250 C260 0.930 . S
H251 C263 0.929 . S
H252 C266 0.930 . S
H253 C268 0.960 . S
H254 C268 0.960 . S
H255 C268 0.960 . S
C256 H248 0.929 . S
C256 C257 1.377 . S
C256 C258 1.384 . S
C257 C256 1.377 . S
C257 C263 1.390 . S
C258 H249 0.930 . S
C258 C256 1.384 . S
C258 C259 1.372 . S
C259 C258 1.372 . S
C259 C260 1.400 . S
C259 C264 1.490 . S
C260 H250 0.930 . S
C260 C259 1.400 . S
C260 C263 1.386 . S
H261 C277 0.930 . S
H262 C278 0.931 . S
C263 H251 0.929 . S
C263 C257 1.390 . S
C263 C260 1.386 . S
C264 C259 1.490 . S
C264 C266 1.395 . S
C264 C267 1.403 . S
H265 C271 0.930 . S
C266 H252 0.930 . S
C266 C264 1.395 . S
C266 C269 1.403 . S
C267 C264 1.403 . S
C267 C268 1.524 . S
C267 C271 1.400 . S
C268 H253 0.960 . S
C268 H254 0.960 . S
C268 H255 0.960 . S
C268 C267 1.524 . S
C269 C266 1.403 . S
C269 C270 1.392 . S
C269 C273 1.495 . S
C270 C269 1.392 . S
C270 C271 1.385 . S
C270 C272 1.478 . S
C271 H265 0.930 . S
C271 C267 1.400 . S
C271 C270 1.385 . S
C272 C270 1.478 . S
C272 C274 1.381 . S
C272 C278 1.383 . S
C273 C269 1.495 . S
C273 H279 0.959 . S
C273 H280 0.961 . S
C273 H281 0.960 . S
C274 C272 1.381 . S
C274 C275 1.394 . S
C274 H282 0.930 . S
C275 C274 1.394 . S
C275 C276 1.383 . S
C275 H283 0.929 . S
C276 C275 1.383 . S
C276 C277 1.377 . S
C277 H261 0.930 . S
C277 C276 1.377 . S
C277 C278 1.379 . S
C278 H262 0.931 . S
C278 C272 1.383 . S
C278 C277 1.379 . S
H279 C273 0.959 . S
H280 C273 0.961 . S
H281 C273 0.960 . S
H282 C274 0.930 . S
H283 C275 0.929 . S
H284 C292 0.929 . S
H285 C294 0.930 . S
H286 C296 0.930 . S
H287 C299 0.929 . S
H288 C302 0.930 . S
H289 C304 0.960 . S
H290 C304 0.960 . S
H291 C304 0.960 . S
C292 H284 0.929 . S
C292 C293 1.377 . S
C292 C294 1.384 . S
C293 C292 1.377 . S
C293 C299 1.390 . S
C294 H285 0.930 . S
C294 C292 1.384 . S
C294 C295 1.372 . S
C295 C294 1.372 . S
C295 C296 1.400 . S
C295 C300 1.490 . S
C296 H286 0.930 . S
C296 C295 1.400 . S
C296 C299 1.386 . S
H297 C313 0.930 . S
H298 C314 0.931 . S
C299 H287 0.929 . S
C299 C293 1.390 . S
C299 C296 1.386 . S
C300 C295 1.490 . S
C300 C302 1.395 . S
C300 C303 1.403 . S
H301 C307 0.930 . S
C302 H288 0.930 . S
C302 C300 1.395 . S
C302 C305 1.403 . S
C303 C300 1.403 . S
C303 C304 1.524 . S
C303 C307 1.400 . S
C304 H289 0.960 . S
C304 H290 0.960 . S
C304 H291 0.960 . S
C304 C303 1.524 . S
C305 C302 1.403 . S
C305 C306 1.392 . S
C305 C309 1.495 . S
C306 C305 1.392 . S
C306 C307 1.385 . S
C306 C308 1.478 . S
C307 H301 0.930 . S
C307 C303 1.400 . S
C307 C306 1.385 . S
C308 C306 1.478 . S
C308 C310 1.381 . S
C308 C314 1.383 . S
C309 C305 1.495 . S
C309 H315 0.959 . S
C309 H316 0.961 . S
C309 H317 0.960 . S
C310 C308 1.381 . S
C310 C311 1.394 . S
C310 H318 0.930 . S
C311 C310 1.394 . S
C311 C312 1.383 . S
C311 H319 0.929 . S
C312 C311 1.383 . S
C312 C313 1.377 . S
C313 H297 0.930 . S
C313 C312 1.377 . S
C313 C314 1.379 . S
C314 H298 0.931 . S
C314 C308 1.383 . S
C314 C313 1.379 . S
H315 C309 0.959 . S
H316 C309 0.961 . S
H317 C309 0.960 . S
H318 C310 0.930 . S
H319 C311 0.929 . S
H320 C328 0.929 . S
H321 C330 0.930 . S
H322 C332 0.930 . S
H323 C335 0.929 . S
H324 C338 0.930 . S
H325 C340 0.960 . S
H326 C340 0.960 . S
H327 C340 0.960 . S
C328 H320 0.929 . S
C328 C329 1.377 . S
C328 C330 1.384 . S
C329 C328 1.377 . S
C329 C335 1.390 . S
C330 H321 0.930 . S
C330 C328 1.384 . S
C330 C331 1.372 . S
C331 C330 1.372 . S
C331 C332 1.400 . S
C331 C336 1.490 . S
C332 H322 0.930 . S
C332 C331 1.400 . S
C332 C335 1.386 . S
H333 C349 0.930 . S
H334 C350 0.931 . S
C335 H323 0.929 . S
C335 C329 1.390 . S
C335 C332 1.386 . S
C336 C331 1.490 . S
C336 C338 1.395 . S
C336 C339 1.403 . S
H337 C343 0.930 . S
C338 H324 0.930 . S
C338 C336 1.395 . S
C338 C341 1.403 . S
C339 C336 1.403 . S
C339 C340 1.524 . S
C339 C343 1.400 . S
C340 H325 0.960 . S
C340 H326 0.960 . S
C340 H327 0.960 . S
C340 C339 1.524 . S
C341 C338 1.403 . S
C341 C342 1.392 . S
C341 C345 1.495 . S
C342 C341 1.392 . S
C342 C343 1.385 . S
C342 C344 1.478 . S
C343 H337 0.930 . S
C343 C339 1.400 . S
C343 C342 1.385 . S
C344 C342 1.478 . S
C344 C346 1.381 . S
C344 C350 1.383 . S
C345 C341 1.495 . S
C345 H351 0.959 . S
C345 H352 0.961 . S
C345 H353 0.960 . S
C346 C344 1.381 . S
C346 C347 1.394 . S
C346 H354 0.930 . S
C347 C346 1.394 . S
C347 C348 1.383 . S
C347 H355 0.929 . S
C348 C347 1.383 . S
C348 C349 1.377 . S
C349 H333 0.930 . S
C349 C348 1.377 . S
C349 C350 1.379 . S
C350 H334 0.931 . S
C350 C344 1.383 . S
C350 C349 1.379 . S
H351 C345 0.959 . S
H352 C345 0.961 . S
H353 C345 0.960 . S
H354 C346 0.930 . S
H355 C347 0.929 . S
H356 C364 0.929 . S
H357 C366 0.930 . S
H358 C368 0.930 . S
H359 C371 0.929 . S
H360 C374 0.930 . S
H361 C376 0.960 . S
H362 C376 0.960 . S
H363 C376 0.960 . S
C364 H356 0.929 . S
C364 C365 1.377 . S
C364 C366 1.384 . S
C365 C364 1.377 . S
C365 C371 1.390 . S
C366 H357 0.930 . S
C366 C364 1.384 . S
C366 C367 1.372 . S
C367 C366 1.372 . S
C367 C368 1.400 . S
C367 C372 1.490 . S
C368 H358 0.930 . S
C368 C367 1.400 . S
C368 C371 1.386 . S
H369 C385 0.930 . S
H370 C386 0.931 . S
C371 H359 0.929 . S
C371 C365 1.390 . S
C371 C368 1.386 . S
C372 C367 1.490 . S
C372 C374 1.395 . S
C372 C375 1.403 . S
H373 C379 0.930 . S
C374 H360 0.930 . S
C374 C372 1.395 . S
C374 C377 1.403 . S
C375 C372 1.403 . S
C375 C376 1.524 . S
C375 C379 1.400 . S
C376 H361 0.960 . S
C376 H362 0.960 . S
C376 H363 0.960 . S
C376 C375 1.524 . S
C377 C374 1.403 . S
C377 C378 1.392 . S
C377 C381 1.495 . S
C378 C377 1.392 . S
C378 C379 1.385 . S
C378 C380 1.478 . S
C379 H373 0.930 . S
C379 C375 1.400 . S
C379 C378 1.385 . S
C380 C378 1.478 . S
C380 C382 1.381 . S
C380 C386 1.383 . S
C381 C377 1.495 . S
C381 H387 0.959 . S
C381 H388 0.961 . S
C381 H389 0.960 . S
C382 C380 1.381 . S
C382 C383 1.394 . S
C382 H390 0.930 . S
C383 C382 1.394 . S
C383 C384 1.383 . S
C383 H391 0.929 . S
C384 C383 1.383 . S
C384 C385 1.377 . S
C385 H369 0.930 . S
C385 C384 1.377 . S
C385 C386 1.379 . S
C386 H370 0.931 . S
C386 C380 1.383 . S
C386 C385 1.379 . S
H387 C381 0.959 . S
H388 C381 0.961 . S
H389 C381 0.960 . S
H390 C382 0.930 . S
H391 C383 0.929 . S
H392 C400 0.929 . S
H393 C402 0.930 . S
H394 C404 0.930 . S
H395 C407 0.929 . S
H396 C410 0.930 . S
H397 C412 0.960 . S
H398 C412 0.960 . S
H399 C412 0.960 . S
C400 H392 0.929 . S
C400 C401 1.377 . S
C400 C402 1.384 . S
C401 C400 1.377 . S
C401 C407 1.390 . S
C402 H393 0.930 . S
C402 C400 1.384 . S
C402 C403 1.372 . S
C403 C402 1.372 . S
C403 C404 1.400 . S
C403 C408 1.490 . S
C404 H394 0.930 . S
C404 C403 1.400 . S
C404 C407 1.386 . S
H405 C421 0.930 . S
H406 C422 0.931 . S
C407 H395 0.929 . S
C407 C401 1.390 . S
C407 C404 1.386 . S
C408 C403 1.490 . S
C408 C410 1.395 . S
C408 C411 1.403 . S
H409 C415 0.930 . S
C410 H396 0.930 . S
C410 C408 1.395 . S
C410 C413 1.403 . S
C411 C408 1.403 . S
C411 C412 1.524 . S
C411 C415 1.400 . S
C412 H397 0.960 . S
C412 H398 0.960 . S
C412 H399 0.960 . S
C412 C411 1.524 . S
C413 C410 1.403 . S
C413 C414 1.392 . S
C413 C417 1.495 . S
C414 C413 1.392 . S
C414 C415 1.385 . S
C414 C416 1.478 . S
C415 H409 0.930 . S
C415 C411 1.400 . S
C415 C414 1.385 . S
C416 C414 1.478 . S
C416 C418 1.381 . S
C416 C422 1.383 . S
C417 C413 1.495 . S
C417 H423 0.959 . S
C417 H424 0.961 . S
C417 H425 0.960 . S
C418 C416 1.381 . S
C418 C419 1.394 . S
C418 H426 0.930 . S
C419 C418 1.394 . S
C419 C420 1.383 . S
C419 H427 0.929 . S
C420 C419 1.383 . S
C420 C421 1.377 . S
C421 H405 0.930 . S
C421 C420 1.377 . S
C421 C422 1.379 . S
C422 H406 0.931 . S
C422 C416 1.383 . S
C422 C421 1.379 . S
H423 C417 0.959 . S
H424 C417 0.961 . S
H425 C417 0.960 . S
H426 C418 0.930 . S
H427 C419 0.929 . S
H428 C436 0.929 . S
H429 C438 0.930 . S
H430 C440 0.930 . S
H431 C443 0.929 . S
H432 C446 0.930 . S
H433 C448 0.960 . S
H434 C448 0.960 . S
H435 C448 0.960 . S
C436 H428 0.929 . S
C436 C437 1.377 . S
C436 C438 1.384 . S
C437 C436 1.377 . S
C437 C443 1.390 . S
C438 H429 0.930 . S
C438 C436 1.384 . S
C438 C439 1.372 . S
C439 C438 1.372 . S
C439 C440 1.400 . S
C439 C444 1.490 . S
C440 H430 0.930 . S
C440 C439 1.400 . S
C440 C443 1.386 . S
H441 C457 0.930 . S
H442 C458 0.931 . S
C443 H431 0.929 . S
C443 C437 1.390 . S
C443 C440 1.386 . S
C444 C439 1.490 . S
C444 C446 1.395 . S
C444 C447 1.403 . S
H445 C451 0.930 . S
C446 H432 0.930 . S
C446 C444 1.395 . S
C446 C449 1.403 . S
C447 C444 1.403 . S
C447 C448 1.524 . S
C447 C451 1.400 . S
C448 H433 0.960 . S
C448 H434 0.960 . S
C448 H435 0.960 . S
C448 C447 1.524 . S
C449 C446 1.403 . S
C449 C450 1.392 . S
C449 C453 1.495 . S
C450 C449 1.392 . S
C450 C451 1.385 . S
C450 C452 1.478 . S
C451 H445 0.930 . S
C451 C447 1.400 . S
C451 C450 1.385 . S
C452 C450 1.478 . S
C452 C454 1.381 . S
C452 C458 1.383 . S
C453 C449 1.495 . S
C453 H459 0.959 . S
C453 H460 0.961 . S
C453 H461 0.960 . S
C454 C452 1.381 . S
C454 C455 1.394 . S
C454 H462 0.930 . S
C455 C454 1.394 . S
C455 C456 1.383 . S
C455 H463 0.929 . S
C456 C455 1.383 . S
C456 C457 1.377 . S
C457 H441 0.930 . S
C457 C456 1.377 . S
C457 C458 1.379 . S
C458 H442 0.931 . S
C458 C452 1.383 . S
C458 C457 1.379 . S
H459 C453 0.959 . S
H460 C453 0.961 . S
H461 C453 0.960 . S
H462 C454 0.930 . S
H463 C455 0.929 . S
H464 C472 0.929 . S
H465 C474 0.930 . S
H466 C476 0.930 . S
H467 C479 0.929 . S
H468 C482 0.930 . S
H469 C484 0.960 . S
H470 C484 0.960 . S
H471 C484 0.960 . S
C472 H464 0.929 . S
C472 C473 1.377 . S
C472 C474 1.384 . S
C473 C472 1.377 . S
C473 C479 1.390 . S
C474 H465 0.930 . S
C474 C472 1.384 . S
C474 C475 1.372 . S
C475 C474 1.372 . S
C475 C476 1.400 . S
C475 C480 1.490 . S
C476 H466 0.930 . S
C476 C475 1.400 . S
C476 C479 1.386 . S
H477 C493 0.930 . S
H478 C494 0.931 . S
C479 H467 0.929 . S
C479 C473 1.390 . S
C479 C476 1.386 . S
C480 C475 1.490 . S
C480 C482 1.395 . S
C480 C483 1.403 . S
H481 C487 0.930 . S
C482 H468 0.930 . S
C482 C480 1.395 . S
C482 C485 1.403 . S
C483 C480 1.403 . S
C483 C484 1.524 . S
C483 C487 1.400 . S
C484 H469 0.960 . S
C484 H470 0.960 . S
C484 H471 0.960 . S
C484 C483 1.524 . S
C485 C482 1.403 . S
C485 C486 1.392 . S
C485 C489 1.495 . S
C486 C485 1.392 . S
C486 C487 1.385 . S
C486 C488 1.478 . S
C487 H481 0.930 . S
C487 C483 1.400 . S
C487 C486 1.385 . S
C488 C486 1.478 . S
C488 C490 1.381 . S
C488 C494 1.383 . S
C489 C485 1.495 . S
C489 H495 0.959 . S
C489 H496 0.961 . S
C489 H497 0.960 . S
C490 C488 1.381 . S
C490 C491 1.394 . S
C490 H498 0.930 . S
C491 C490 1.394 . S
C491 C492 1.383 . S
C491 H499 0.929 . S
C492 C491 1.383 . S
C492 C493 1.377 . S
C493 H477 0.930 . S
C493 C492 1.377 . S
C493 C494 1.379 . S
C494 H478 0.931 . S
C494 C488 1.383 . S
C494 C493 1.379 . S
H495 C489 0.959 . S
H496 C489 0.961 . S
H497 C489 0.960 . S
H498 C490 0.930 . S
H499 C491 0.929 . S
H500 C508 0.929 . S
H501 C510 0.930 . S
H502 C512 0.930 . S
H503 C515 0.929 . S
H504 C518 0.930 . S
H505 C520 0.960 . S
H506 C520 0.960 . S
H507 C520 0.960 . S
C508 H500 0.929 . S
C508 C509 1.377 . S
C508 C510 1.384 . S
C509 C508 1.377 . S
C509 C515 1.390 . S
C510 H501 0.930 . S
C510 C508 1.384 . S
C510 C511 1.372 . S
C511 C510 1.372 . S
C511 C512 1.400 . S
C511 C516 1.490 . S
C512 H502 0.930 . S
C512 C511 1.400 . S
C512 C515 1.386 . S
H513 C529 0.930 . S
H514 C530 0.931 . S
C515 H503 0.929 . S
C515 C509 1.390 . S
C515 C512 1.386 . S
C516 C511 1.490 . S
C516 C518 1.395 . S
C516 C519 1.403 . S
H517 C523 0.930 . S
C518 H504 0.930 . S
C518 C516 1.395 . S
C518 C521 1.403 . S
C519 C516 1.403 . S
C519 C520 1.524 . S
C519 C523 1.400 . S
C520 H505 0.960 . S
C520 H506 0.960 . S
C520 H507 0.960 . S
C520 C519 1.524 . S
C521 C518 1.403 . S
C521 C522 1.392 . S
C521 C525 1.495 . S
C522 C521 1.392 . S
C522 C523 1.385 . S
C522 C524 1.478 . S
C523 H517 0.930 . S
C523 C519 1.400 . S
C523 C522 1.385 . S
C524 C522 1.478 . S
C524 C526 1.381 . S
C524 C530 1.383 . S
C525 C521 1.495 . S
C525 H531 0.959 . S
C525 H532 0.961 . S
C525 H533 0.960 . S
C526 C524 1.381 . S
C526 C527 1.394 . S
C526 H534 0.930 . S
C527 C526 1.394 . S
C527 C528 1.383 . S
C527 H535 0.929 . S
C528 C527 1.383 . S
C528 C529 1.377 . S
C529 H513 0.930 . S
C529 C528 1.377 . S
C529 C530 1.379 . S
C530 H514 0.931 . S
C530 C524 1.383 . S
C530 C529 1.379 . S
H531 C525 0.959 . S
H532 C525 0.961 . S
H533 C525 0.960 . S
H534 C526 0.930 . S
H535 C527 0.929 . S
H536 C544 0.929 . S
H537 C546 0.930 . S
H538 C548 0.930 . S
H539 C551 0.929 1_554 S
H540 C554 0.930 . S
H541 C556 0.960 . S
H542 C556 0.960 . S
H543 C556 0.960 . S
C544 H536 0.929 . S
C544 C545 1.377 . S
C544 C546 1.384 . S
C545 C544 1.377 . S
C545 C551 1.390 . S
C546 H537 0.930 . S
C546 C544 1.384 . S
C546 C547 1.372 . S
C547 C546 1.372 . S
C547 C548 1.400 . S
C547 C552 1.490 . S
C548 H538 0.930 . S
C548 C547 1.400 . S
C548 C551 1.386 . S
H549 C565 0.930 . S
H550 C566 0.931 . S
C551 H539 0.929 1_556 S
C551 C545 1.390 . S
C551 C548 1.386 . S
C552 C547 1.490 . S
C552 C554 1.395 . S
C552 C555 1.403 . S
H553 C559 0.930 . S
C554 H540 0.930 . S
C554 C552 1.395 . S
C554 C557 1.403 . S
C555 C552 1.403 . S
C555 C556 1.524 . S
C555 C559 1.400 . S
C556 H541 0.960 . S
C556 H542 0.960 . S
C556 H543 0.960 . S
C556 C555 1.524 . S
C557 C554 1.403 . S
C557 C558 1.392 . S
C557 C561 1.495 . S
C558 C557 1.392 . S
C558 C559 1.385 . S
C558 C560 1.478 . S
C559 H553 0.930 . S
C559 C555 1.400 . S
C559 C558 1.385 . S
C560 C558 1.478 . S
C560 C562 1.381 . S
C560 C566 1.383 . S
C561 C557 1.495 . S
C561 H567 0.959 . S
C561 H568 0.961 . S
C561 H569 0.960 . S
C562 C560 1.381 . S
C562 C563 1.394 . S
C562 H570 0.930 . S
C563 C562 1.394 . S
C563 C564 1.383 . S
C563 H571 0.929 . S
C564 C563 1.383 . S
C564 C565 1.377 . S
C565 H549 0.930 . S
C565 C564 1.377 . S
C565 C566 1.379 . S
C566 H550 0.931 . S
C566 C560 1.383 . S
C566 C565 1.379 . S
H567 C561 0.959 . S
H568 C561 0.961 . S
H569 C561 0.960 . S
H570 C562 0.930 . S
H571 C563 0.929 . S
H572 C580 0.929 . S
H573 C582 0.930 . S
H574 C584 0.930 . S
H575 C587 0.929 . S
H576 C590 0.930 . S
H577 C592 0.960 . S
H578 C592 0.960 . S
H579 C592 0.960 . S
C580 H572 0.929 . S
C580 C581 1.377 . S
C580 C582 1.384 . S
C581 C580 1.377 . S
C581 C587 1.390 . S
C582 H573 0.930 . S
C582 C580 1.384 . S
C582 C583 1.372 . S
C583 C582 1.372 . S
C583 C584 1.400 . S
C583 C588 1.490 . S
C584 H574 0.930 . S
C584 C583 1.400 . S
C584 C587 1.386 . S
H585 C601 0.930 . S
H586 C602 0.931 . S
C587 H575 0.929 . S
C587 C581 1.390 . S
C587 C584 1.386 . S
C588 C583 1.490 . S
C588 C590 1.395 . S
C588 C591 1.403 . S
H589 C595 0.930 . S
C590 H576 0.930 . S
C590 C588 1.395 . S
C590 C593 1.403 . S
C591 C588 1.403 . S
C591 C592 1.524 . S
C591 C595 1.400 . S
C592 H577 0.960 . S
C592 H578 0.960 . S
C592 H579 0.960 . S
C592 C591 1.524 . S
C593 C590 1.403 . S
C593 C594 1.392 . S
C593 C597 1.495 . S
C594 C593 1.392 . S
C594 C595 1.385 . S
C594 C596 1.478 . S
C595 H589 0.930 . S
C595 C591 1.400 . S
C595 C594 1.385 . S
C596 C594 1.478 . S
C596 C598 1.381 . S
C596 C602 1.383 . S
C597 C593 1.495 . S
C597 H603 0.959 . S
C597 H604 0.961 . S
C597 H605 0.960 . S
C598 C596 1.381 . S
C598 C599 1.394 . S
C598 H606 0.930 . S
C599 C598 1.394 . S
C599 C600 1.383 . S
C599 H607 0.929 . S
C600 C599 1.383 . S
C600 C601 1.377 . S
C601 H585 0.930 . S
C601 C600 1.377 . S
C601 C602 1.379 . S
C602 H586 0.931 . S
C602 C596 1.383 . S
C602 C601 1.379 . S
H603 C597 0.959 . S
H604 C597 0.961 . S
H605 C597 0.960 . S
H606 C598 0.930 . S
H607 C599 0.929 . S
H608 C616 0.929 . S
H609 C618 0.930 . S
H610 C620 0.930 . S
H611 C623 0.929 . S
H612 C626 0.930 . S
H613 C628 0.960 . S
H614 C628 0.960 . S
H615 C628 0.960 . S
C616 H608 0.929 . S
C616 C617 1.377 . S
C616 C618 1.384 . S
C617 C616 1.377 . S
C617 C623 1.390 . S
C618 H609 0.930 . S
C618 C616 1.384 . S
C618 C619 1.372 . S
C619 C618 1.372 . S
C619 C620 1.400 . S
C619 C624 1.490 . S
C620 H610 0.930 . S
C620 C619 1.400 . S
C620 C623 1.386 . S
H621 C637 0.930 . S
H622 C638 0.931 . S
C623 H611 0.929 . S
C623 C617 1.390 . S
C623 C620 1.386 . S
C624 C619 1.490 . S
C624 C626 1.395 . S
C624 C627 1.403 1_565 S
H625 C631 0.930 . S
C626 H612 0.930 . S
C626 C624 1.395 . S
C626 C629 1.403 . S
C627 C624 1.403 1_545 S
C627 C628 1.524 . S
C627 C631 1.400 . S
C628 H613 0.960 . S
C628 H614 0.960 . S
C628 H615 0.960 . S
C628 C627 1.524 . S
C629 C626 1.403 . S
C629 C630 1.392 1_565 S
C629 C633 1.495 . S
C630 C629 1.392 1_545 S
C630 C631 1.385 . S
C630 C632 1.478 . S
C631 H625 0.930 . S
C631 C627 1.400 . S
C631 C630 1.385 . S
C632 C630 1.478 . S
C632 C634 1.381 . S
C632 C638 1.383 . S
C633 C629 1.495 . S
C633 H639 0.959 . S
C633 H640 0.961 . S
C633 H641 0.960 . S
C634 C632 1.381 . S
C634 C635 1.394 . S
C634 H642 0.930 . S
C635 C634 1.394 . S
C635 C636 1.383 . S
C635 H643 0.929 . S
C636 C635 1.383 . S
C636 C637 1.377 . S
C637 H621 0.930 . S
C637 C636 1.377 . S
C637 C638 1.379 . S
C638 H622 0.931 . S
C638 C632 1.383 . S
C638 C637 1.379 . S
H639 C633 0.959 . S
H640 C633 0.961 . S
H641 C633 0.960 . S
H642 C634 0.930 . S
H643 C635 0.929 . S
H644 C652 0.929 . S
H645 C654 0.930 . S
H646 C656 0.930 1_565 S
H647 C659 0.929 . S
H648 C662 0.930 . S
H649 C664 0.960 . S
H650 C664 0.960 1_545 S
H651 C664 0.960 . S
C652 H644 0.929 . S
C652 C653 1.377 . S
C652 C654 1.384 . S
C653 C652 1.377 . S
C653 C659 1.390 . S
C654 H645 0.930 . S
C654 C652 1.384 . S
C654 C655 1.372 . S
C655 C654 1.372 . S
C655 C656 1.400 . S
C655 C660 1.490 . S
C656 H646 0.930 1_545 S
C656 C655 1.400 . S
C656 C659 1.386 . S
H657 C673 0.930 . S
H658 C674 0.931 . S
C659 H647 0.929 . S
C659 C653 1.390 . S
C659 C656 1.386 . S
C660 C655 1.490 . S
C660 C662 1.395 . S
C660 C663 1.403 1_545 S
H661 C667 0.930 . S
C662 H648 0.930 . S
C662 C660 1.395 . S
C662 C665 1.403 1_545 S
C663 C660 1.403 1_565 S
C663 C664 1.524 . S
C663 C667 1.400 . S
C664 H649 0.960 . S
C664 H650 0.960 1_565 S
C664 H651 0.960 . S
C664 C663 1.524 . S
C665 C662 1.403 1_565 S
C665 C666 1.392 . S
C665 C669 1.497 . S
C666 C665 1.392 . S
C666 C667 1.385 . S
C666 C668 1.478 . S
C667 H661 0.930 . S
C667 C663 1.400 . S
C667 C666 1.385 . S
C668 C666 1.478 . S
C668 C670 1.381 . S
C668 C674 1.383 . S
C669 C665 1.497 . S
C669 H675 0.947 1_565 S
C669 H676 0.974 . S
C669 H677 0.957 1_565 S
C670 C668 1.381 . S
C670 C671 1.394 . S
C670 H678 0.930 . S
C671 C670 1.394 . S
C671 C672 1.383 . S
C671 H679 0.929 . S
C672 C671 1.383 . S
C672 C673 1.377 . S
C673 H657 0.930 . S
C673 C672 1.377 . S
C673 C674 1.379 . S
C674 H658 0.931 . S
C674 C668 1.383 . S
C674 C673 1.379 . S
H675 C669 0.947 1_545 S
H676 C669 0.974 . S
H677 C669 0.957 1_545 S
H678 C670 0.930 . S
H679 C671 0.929 . S
H680 C688 0.929 1_554 S
H681 C690 0.930 . S
H682 C692 0.930 . S
H683 C695 0.929 . S
H684 C698 0.930 . S
H685 C700 0.960 . S
H686 C700 0.960 . S
H687 C700 0.960 . S
C688 H680 0.929 1_556 S
C688 C689 1.377 . S
C688 C690 1.384 . S
C689 C688 1.377 . S
C689 C695 1.390 . S
C690 H681 0.930 . S
C690 C688 1.384 . S
C690 C691 1.372 . S
C691 C690 1.372 . S
C691 C692 1.400 . S
C691 C696 1.490 . S
C692 H682 0.930 . S
C692 C691 1.400 . S
C692 C695 1.386 . S
H693 C709 0.930 . S
H694 C710 0.931 . S
C695 H683 0.929 . S
C695 C689 1.390 . S
C695 C692 1.386 . S
C696 C691 1.490 . S
C696 C698 1.395 1_565 S
C696 C699 1.403 . S
H697 C703 0.930 1_565 S
C698 H684 0.930 . S
C698 C696 1.395 1_545 S
C698 C701 1.403 . S
C699 C696 1.403 . S
C699 C700 1.524 . S
C699 C703 1.397 1_565 S
C700 H685 0.960 . S
C700 H686 0.960 . S
C700 H687 0.960 . S
C700 C699 1.524 . S
C701 C698 1.403 . S
C701 C702 1.392 . S
C701 C705 1.495 . S
C702 C701 1.392 . S
C702 C703 1.388 . S
C702 C704 1.478 . S
C703 H697 0.930 1_545 S
C703 C699 1.397 1_545 S
C703 C702 1.388 . S
C704 C702 1.478 . S
C704 C706 1.381 . S
C704 C710 1.383 . S
C705 C701 1.495 . S
C705 H711 0.959 . S
C705 H712 0.961 . S
C705 H713 0.960 . S
C706 C704 1.381 . S
C706 C707 1.394 . S
C706 H714 0.930 . S
C707 C706 1.394 . S
C707 C708 1.383 . S
C707 H715 0.929 . S
C708 C707 1.383 . S
C708 C709 1.377 . S
C709 H693 0.930 . S
C709 C708 1.377 . S
C709 C710 1.379 . S
C710 H694 0.931 . S
C710 C704 1.383 . S
C710 C709 1.379 . S
H711 C705 0.959 . S
H712 C705 0.961 . S
H713 C705 0.960 . S
H714 C706 0.930 . S
H715 C707 0.929 . S
H716 C724 0.929 . S
H717 C726 0.930 . S
H718 C728 0.930 . S
H719 C731 0.929 . S
H720 C734 0.930 . S
H721 C736 0.960 . S
H722 C736 0.960 . S
H723 C736 0.960 . S
C724 H716 0.929 . S
C724 C725 1.377 . S
C724 C726 1.384 . S
C725 C724 1.377 . S
C725 C731 1.390 . S
C726 H717 0.930 . S
C726 C724 1.384 . S
C726 C727 1.372 . S
C727 C726 1.372 . S
C727 C728 1.400 . S
C727 C732 1.490 . S
C728 H718 0.930 . S
C728 C727 1.400 . S
C728 C731 1.386 . S
H729 C745 0.930 . S
H730 C746 0.931 . S
C731 H719 0.929 . S
C731 C725 1.390 . S
C731 C728 1.386 . S
C732 C727 1.490 . S
C732 C734 1.395 . S
C732 C735 1.403 . S
H733 C739 0.930 . S
C734 H720 0.930 . S
C734 C732 1.395 . S
C734 C737 1.403 1_545 S
C735 C732 1.403 . S
C735 C736 1.524 . S
C735 C739 1.400 1_545 S
C736 H721 0.960 . S
C736 H722 0.960 . S
C736 H723 0.960 . S
C736 C735 1.524 . S
C737 C734 1.403 1_565 S
C737 C738 1.392 . S
C737 C741 1.495 . S
C738 C737 1.392 . S
C738 C739 1.385 . S
C738 C740 1.478 . S
C739 H733 0.930 . S
C739 C735 1.400 1_565 S
C739 C738 1.385 . S
C740 C738 1.478 . S
C740 C742 1.381 . S
C740 C746 1.383 . S
C741 C737 1.495 . S
C741 H747 0.959 . S
C741 H748 0.961 . S
C741 H749 0.960 . S
C742 C740 1.381 . S
C742 C743 1.394 . S
C742 H750 0.930 . S
C743 C742 1.394 . S
C743 C744 1.383 . S
C743 H751 0.929 . S
C744 C743 1.383 . S
C744 C745 1.377 . S
C745 H729 0.930 . S
C745 C744 1.377 . S
C745 C746 1.379 . S
C746 H730 0.931 . S
C746 C740 1.383 . S
C746 C745 1.379 . S
H747 C741 0.959 . S
H748 C741 0.961 . S
H749 C741 0.960 . S
H750 C742 0.930 . S
H751 C743 0.929 . S
H752 C760 0.929 . S
H753 C762 0.930 . S
H754 C764 0.930 . S
H755 C767 0.929 . S
H756 C770 0.930 . S
H757 C772 0.960 . S
H758 C772 0.960 . S
H759 C772 0.960 . S
C760 H752 0.929 . S
C760 C761 1.377 . S
C760 C762 1.384 . S
C761 C760 1.377 . S
C761 C767 1.390 . S
C762 H753 0.930 . S
C762 C760 1.384 . S
C762 C763 1.372 . S
C763 C762 1.372 . S
C763 C764 1.400 . S
C763 C768 1.490 . S
C764 H754 0.930 . S
C764 C763 1.400 . S
C764 C767 1.386 . S
H765 C781 0.930 . S
H766 C782 0.931 . S
C767 H755 0.929 . S
C767 C761 1.390 . S
C767 C764 1.386 . S
C768 C763 1.490 . S
C768 C770 1.395 . S
C768 C771 1.403 . S
H769 C775 0.930 . S
C770 H756 0.930 . S
C770 C768 1.395 . S
C770 C773 1.403 . S
C771 C768 1.403 . S
C771 C772 1.524 . S
C771 C775 1.400 . S
C772 H757 0.960 . S
C772 H758 0.960 . S
C772 H759 0.960 . S
C772 C771 1.524 . S
C773 C770 1.403 . S
C773 C774 1.392 . S
C773 C777 1.495 . S
C774 C773 1.392 . S
C774 C775 1.385 . S
C774 C776 1.478 . S
C775 H769 0.930 . S
C775 C771 1.400 . S
C775 C774 1.385 . S
C776 C774 1.478 . S
C776 C778 1.381 . S
C776 C782 1.383 . S
C777 C773 1.495 . S
C777 H783 0.959 . S
C777 H784 0.961 . S
C777 H785 0.960 . S
C778 C776 1.381 . S
C778 C779 1.394 . S
C778 H786 0.930 . S
C779 C778 1.394 . S
C779 C780 1.383 . S
C779 H787 0.929 . S
C780 C779 1.383 . S
C780 C781 1.377 . S
C781 H765 0.930 . S
C781 C780 1.377 . S
C781 C782 1.379 . S
C782 H766 0.931 . S
C782 C776 1.383 . S
C782 C781 1.379 . S
H783 C777 0.959 . S
H784 C777 0.961 . S
H785 C777 0.960 . S
H786 C778 0.930 . S
H787 C779 0.929 . S
H788 C796 0.929 . S
H789 C798 0.930 . S
H790 C800 0.930 . S
H791 C803 0.929 . S
H792 C806 0.930 . S
H793 C808 0.960 . S
H794 C808 0.960 . S
H795 C808 0.960 . S
C796 H788 0.929 . S
C796 C797 1.377 . S
C796 C798 1.384 . S
C797 C796 1.377 . S
C797 C803 1.390 . S
C798 H789 0.930 . S
C798 C796 1.384 . S
C798 C799 1.372 . S
C799 C798 1.372 . S
C799 C800 1.400 . S
C799 C804 1.490 . S
C800 H790 0.930 . S
C800 C799 1.400 . S
C800 C803 1.386 . S
H801 C817 0.930 . S
H802 C818 0.931 . S
C803 H791 0.929 . S
C803 C797 1.390 . S
C803 C800 1.386 . S
C804 C799 1.490 . S
C804 C806 1.395 . S
C804 C807 1.403 . S
H805 C811 0.930 . S
C806 H792 0.930 . S
C806 C804 1.395 . S
C806 C809 1.403 . S
C807 C804 1.403 . S
C807 C808 1.524 . S
C807 C811 1.400 . S
C808 H793 0.960 . S
C808 H794 0.960 . S
C808 H795 0.960 . S
C808 C807 1.524 . S
C809 C806 1.403 . S
C809 C810 1.392 . S
C809 C813 1.495 . S
C810 C809 1.392 . S
C810 C811 1.385 . S
C810 C812 1.478 . S
C811 H805 0.930 . S
C811 C807 1.400 . S
C811 C810 1.385 . S
C812 C810 1.478 . S
C812 C814 1.381 . S
C812 C818 1.383 . S
C813 C809 1.495 . S
C813 H819 0.959 . S
C813 H820 0.961 . S
C813 H821 0.960 . S
C814 C812 1.381 . S
C814 C815 1.394 . S
C814 H822 0.930 . S
C815 C814 1.394 . S
C815 C816 1.383 . S
C815 H823 0.929 . S
C816 C815 1.383 . S
C816 C817 1.377 . S
C817 H801 0.930 . S
C817 C816 1.377 . S
C817 C818 1.379 . S
C818 H802 0.931 . S
C818 C812 1.383 . S
C818 C817 1.379 . S
H819 C813 0.959 . S
H820 C813 0.961 . S
H821 C813 0.960 . S
H822 C814 0.930 . S
H823 C815 0.929 . S
H824 C832 0.929 . S
H825 C834 0.930 . S
H826 C836 0.930 . S
H827 C839 0.929 . S
H828 C842 0.930 . S
H829 C844 0.960 . S
H830 C844 0.960 . S
H831 C844 0.960 . S
C832 H824 0.929 . S
C832 C833 1.377 . S
C832 C834 1.384 . S
C833 C832 1.377 . S
C833 C839 1.390 . S
C834 H825 0.930 . S
C834 C832 1.384 . S
C834 C835 1.372 . S
C835 C834 1.372 . S
C835 C836 1.400 . S
C835 C840 1.490 . S
C836 H826 0.930 . S
C836 C835 1.400 . S
C836 C839 1.386 . S
H837 C853 0.930 . S
H838 C854 0.931 . S
C839 H827 0.929 . S
C839 C833 1.390 . S
C839 C836 1.386 . S
C840 C835 1.490 . S
C840 C842 1.395 . S
C840 C843 1.403 . S
H841 C847 0.930 . S
C842 H828 0.930 . S
C842 C840 1.395 . S
C842 C845 1.403 . S
C843 C840 1.403 . S
C843 C844 1.524 . S
C843 C847 1.400 . S
C844 H829 0.960 . S
C844 H830 0.960 . S
C844 H831 0.960 . S
C844 C843 1.524 . S
C845 C842 1.403 . S
C845 C846 1.392 . S
C845 C849 1.495 . S
C846 C845 1.392 . S
C846 C847 1.385 . S
C846 C848 1.478 . S
C847 H841 0.930 . S
C847 C843 1.400 . S
C847 C846 1.385 . S
C848 C846 1.478 . S
C848 C850 1.381 . S
C848 C854 1.383 . S
C849 C845 1.495 . S
C849 H855 0.959 . S
C849 H856 0.961 . S
C849 H857 0.960 . S
C850 C848 1.381 . S
C850 C851 1.394 . S
C850 H858 0.930 . S
C851 C850 1.394 . S
C851 C852 1.383 . S
C851 H859 0.929 . S
C852 C851 1.383 . S
C852 C853 1.377 . S
C853 H837 0.930 . S
C853 C852 1.377 . S
C853 C854 1.379 . S
C854 H838 0.931 . S
C854 C848 1.383 . S
C854 C853 1.379 . S
H855 C849 0.959 . S
H856 C849 0.961 . S
H857 C849 0.960 . S
H858 C850 0.930 . S
H859 C851 0.929 . S
H860 C868 0.929 . S
H861 C870 0.930 . S
H862 C872 0.930 . S
H863 C875 0.929 . S
H864 C878 0.930 . S
H865 C880 0.960 . S
H866 C880 0.960 . S
H867 C880 0.960 . S
C868 H860 0.929 . S
C868 C869 1.377 . S
C868 C870 1.384 . S
C869 C868 1.377 . S
C869 C875 1.390 . S
C870 H861 0.930 . S
C870 C868 1.384 . S
C870 C871 1.372 . S
C871 C870 1.372 . S
C871 C872 1.400 . S
C871 C876 1.490 . S
C872 H862 0.930 . S
C872 C871 1.400 . S
C872 C875 1.386 . S
H873 C889 0.930 . S
H874 C890 0.931 . S
C875 H863 0.929 . S
C875 C869 1.390 . S
C875 C872 1.386 . S
C876 C871 1.490 . S
C876 C878 1.395 . S
C876 C879 1.403 . S
H877 C883 0.930 . S
C878 H864 0.930 . S
C878 C876 1.395 . S
C878 C881 1.403 . S
C879 C876 1.403 . S
C879 C880 1.524 . S
C879 C883 1.400 . S
C880 H865 0.960 . S
C880 H866 0.960 . S
C880 H867 0.960 . S
C880 C879 1.524 . S
C881 C878 1.403 . S
C881 C882 1.392 . S
C881 C885 1.495 . S
C882 C881 1.392 . S
C882 C883 1.385 . S
C882 C884 1.478 . S
C883 H877 0.930 . S
C883 C879 1.400 . S
C883 C882 1.385 . S
C884 C882 1.478 . S
C884 C886 1.381 . S
C884 C890 1.383 . S
C885 C881 1.495 . S
C885 H891 0.959 . S
C885 H892 0.961 . S
C885 H893 0.960 . S
C886 C884 1.381 . S
C886 C887 1.394 . S
C886 H894 0.930 . S
C887 C886 1.394 . S
C887 C888 1.383 . S
C887 H895 0.929 . S
C888 C887 1.383 . S
C888 C889 1.377 . S
C889 H873 0.930 . S
C889 C888 1.377 . S
C889 C890 1.379 . S
C890 H874 0.931 . S
C890 C884 1.383 . S
C890 C889 1.379 . S
H891 C885 0.959 . S
H892 C885 0.961 . S
H893 C885 0.960 . S
H894 C886 0.930 . S
H895 C887 0.929 . S
H896 C904 0.929 . S
H897 C906 0.930 . S
H898 C908 0.930 . S
H899 C911 0.929 . S
H900 C914 0.930 . S
H901 C916 0.960 . S
H902 C916 0.960 . S
H903 C916 0.960 . S
C904 H896 0.929 . S
C904 C905 1.377 . S
C904 C906 1.384 . S
C905 C904 1.377 . S
C905 C911 1.390 . S
C906 H897 0.930 . S
C906 C904 1.384 . S
C906 C907 1.372 . S
C907 C906 1.372 . S
C907 C908 1.400 . S
C907 C912 1.490 . S
C908 H898 0.930 . S
C908 C907 1.400 . S
C908 C911 1.386 . S
H909 C925 0.930 . S
H910 C926 0.931 . S
C911 H899 0.929 . S
C911 C905 1.390 . S
C911 C908 1.386 . S
C912 C907 1.490 . S
C912 C914 1.395 . S
C912 C915 1.403 . S
H913 C919 0.930 . S
C914 H900 0.930 . S
C914 C912 1.395 . S
C914 C917 1.403 . S
C915 C912 1.403 . S
C915 C916 1.524 . S
C915 C919 1.400 . S
C916 H901 0.960 . S
C916 H902 0.960 . S
C916 H903 0.960 . S
C916 C915 1.524 . S
C917 C914 1.403 . S
C917 C918 1.392 . S
C917 C921 1.495 . S
C918 C917 1.392 . S
C918 C919 1.385 . S
C918 C920 1.478 . S
C919 H913 0.930 . S
C919 C915 1.400 . S
C919 C918 1.385 . S
C920 C918 1.478 . S
C920 C922 1.381 . S
C920 C926 1.383 . S
C921 C917 1.495 . S
C921 H927 0.959 . S
C921 H928 0.961 . S
C921 H929 0.960 . S
C922 C920 1.381 . S
C922 C923 1.394 . S
C922 H930 0.930 . S
C923 C922 1.394 . S
C923 C924 1.383 . S
C923 H931 0.929 . S
C924 C923 1.383 . S
C924 C925 1.377 . S
C925 H909 0.930 . S
C925 C924 1.377 . S
C925 C926 1.379 . S
C926 H910 0.931 . S
C926 C920 1.383 . S
C926 C925 1.379 . S
H927 C921 0.959 . S
H928 C921 0.961 . S
H929 C921 0.960 . S
H930 C922 0.930 . S
H931 C923 0.929 . S
H932 C940 0.929 . S
H933 C942 0.930 . S
H934 C944 0.930 . S
H935 C947 0.929 . S
H936 C950 0.930 . S
H937 C952 0.960 . S
H938 C952 0.960 . S
H939 C952 0.960 . S
C940 H932 0.929 . S
C940 C941 1.377 . S
C940 C942 1.384 . S
C941 C940 1.377 . S
C941 C947 1.390 . S
C942 H933 0.930 . S
C942 C940 1.384 . S
C942 C943 1.372 . S
C943 C942 1.372 . S
C943 C944 1.400 . S
C943 C948 1.490 . S
C944 H934 0.930 . S
C944 C943 1.400 . S
C944 C947 1.386 . S
H945 C961 0.930 . S
H946 C962 0.931 . S
C947 H935 0.929 . S
C947 C941 1.390 . S
C947 C944 1.386 . S
C948 C943 1.490 . S
C948 C950 1.395 . S
C948 C951 1.403 . S
H949 C955 0.930 . S
C950 H936 0.930 . S
C950 C948 1.395 . S
C950 C953 1.403 . S
C951 C948 1.403 . S
C951 C952 1.524 . S
C951 C955 1.400 . S
C952 H937 0.960 . S
C952 H938 0.960 . S
C952 H939 0.960 . S
C952 C951 1.524 . S
C953 C950 1.403 . S
C953 C954 1.392 . S
C953 C957 1.495 . S
C954 C953 1.392 . S
C954 C955 1.385 . S
C954 C956 1.478 . S
C955 H949 0.930 . S
C955 C951 1.400 . S
C955 C954 1.385 . S
C956 C954 1.478 . S
C956 C958 1.381 . S
C956 C962 1.383 . S
C957 C953 1.495 . S
C957 H963 0.959 . S
C957 H964 0.961 . S
C957 H965 0.960 . S
C958 C956 1.381 . S
C958 C959 1.394 . S
C958 H966 0.930 . S
C959 C958 1.394 . S
C959 C960 1.383 . S
C959 H967 0.929 . S
C960 C959 1.383 . S
C960 C961 1.377 . S
C961 H945 0.930 . S
C961 C960 1.377 . S
C961 C962 1.379 . S
C962 H946 0.931 . S
C962 C956 1.383 . S
C962 C961 1.379 . S
H963 C957 0.959 . S
H964 C957 0.961 . S
H965 C957 0.960 . S
H966 C958 0.930 . S
H967 C959 0.929 . S
H968 C976 0.929 . S
H969 C978 0.930 . S
H970 C980 0.930 . S
H971 C983 0.929 . S
H972 C986 0.930 . S
H973 C988 0.960 . S
H974 C988 0.960 . S
H975 C988 0.960 . S
C976 H968 0.929 . S
C976 C977 1.377 . S
C976 C978 1.384 . S
C977 C976 1.377 . S
C977 C983 1.390 . S
C978 H969 0.930 . S
C978 C976 1.384 . S
C978 C979 1.372 . S
C979 C978 1.372 . S
C979 C980 1.400 . S
C979 C984 1.490 . S
C980 H970 0.930 . S
C980 C979 1.400 . S
C980 C983 1.386 . S
H981 C997 0.930 . S
H982 C998 0.931 . S
C983 H971 0.929 . S
C983 C977 1.390 . S
C983 C980 1.386 . S
C984 C979 1.490 . S
C984 C986 1.395 . S
C984 C987 1.403 . S
H985 C991 0.930 . S
C986 H972 0.930 . S
C986 C984 1.395 . S
C986 C989 1.403 . S
C987 C984 1.403 . S
C987 C988 1.524 . S
C987 C991 1.400 . S
C988 H973 0.960 . S
C988 H974 0.960 . S
C988 H975 0.960 . S
C988 C987 1.524 . S
C989 C986 1.403 . S
C989 C990 1.392 . S
C989 C993 1.495 . S
C990 C989 1.392 . S
C990 C991 1.385 . S
C990 C992 1.478 . S
C991 H985 0.930 . S
C991 C987 1.400 . S
C991 C990 1.385 . S
C992 C990 1.478 . S
C992 C994 1.381 . S
C992 C998 1.383 . S
C993 C989 1.495 . S
C993 H999 0.959 . S
C993 H1000 0.961 . S
C993 H1001 0.960 . S
C994 C992 1.381 . S
C994 C995 1.394 . S
C994 H1002 0.930 . S
C995 C994 1.394 . S
C995 C996 1.383 . S
C995 H1003 0.929 . S
C996 C995 1.383 . S
C996 C997 1.377 . S
C997 H981 0.930 . S
C997 C996 1.377 . S
C997 C998 1.379 . S
C998 H982 0.931 . S
C998 C992 1.383 . S
C998 C997 1.379 . S
H999 C993 0.959 . S
H1000 C993 0.961 . S
H1001 C993 0.960 . S
H1002 C994 0.930 . S
H1003 C995 0.929 . S
H1004 C1012 0.929 . S
H1005 C1014 0.930 . S
H1006 C1016 0.930 . S
H1007 C1019 0.929 . S
H1008 C1022 0.930 . S
H1009 C1024 0.960 . S
H1010 C1024 0.960 . S
H1011 C1024 0.960 . S
C1012 H1004 0.929 . S
C1012 C1013 1.377 . S
C1012 C1014 1.384 . S
C1013 C1012 1.377 . S
C1013 C1019 1.390 . S
C1014 H1005 0.930 . S
C1014 C1012 1.384 . S
C1014 C1015 1.372 . S
C1015 C1014 1.372 . S
C1015 C1016 1.400 . S
C1015 C1020 1.490 . S
C1016 H1006 0.930 . S
C1016 C1015 1.400 . S
C1016 C1019 1.386 . S
H1017 C1033 0.930 . S
H1018 C1034 0.931 . S
C1019 H1007 0.929 . S
C1019 C1013 1.390 . S
C1019 C1016 1.386 . S
C1020 C1015 1.490 . S
C1020 C1022 1.395 . S
C1020 C1023 1.403 . S
H1021 C1027 0.930 . S
C1022 H1008 0.930 . S
C1022 C1020 1.395 . S
C1022 C1025 1.403 . S
C1023 C1020 1.403 . S
C1023 C1024 1.524 . S
C1023 C1027 1.400 . S
C1024 H1009 0.960 . S
C1024 H1010 0.960 . S
C1024 H1011 0.960 . S
C1024 C1023 1.524 . S
C1025 C1022 1.403 . S
C1025 C1026 1.392 . S
C1025 C1029 1.495 . S
C1026 C1025 1.392 . S
C1026 C1027 1.385 . S
C1026 C1028 1.478 . S
C1027 H1021 0.930 . S
C1027 C1023 1.400 . S
C1027 C1026 1.385 . S
C1028 C1026 1.478 . S
C1028 C1030 1.381 . S
C1028 C1034 1.383 . S
C1029 C1025 1.495 . S
C1029 H1035 0.959 . S
C1029 H1036 0.961 . S
C1029 H1037 0.960 . S
C1030 C1028 1.381 . S
C1030 C1031 1.394 . S
C1030 H1038 0.930 . S
C1031 C1030 1.394 . S
C1031 C1032 1.383 . S
C1031 H1039 0.929 . S
C1032 C1031 1.383 . S
C1032 C1033 1.377 . S
C1033 H1017 0.930 . S
C1033 C1032 1.377 . S
C1033 C1034 1.379 . S
C1034 H1018 0.931 . S
C1034 C1028 1.383 . S
C1034 C1033 1.379 . S
H1035 C1029 0.959 . S
H1036 C1029 0.961 . S
H1037 C1029 0.960 . S
H1038 C1030 0.930 . S
H1039 C1031 0.929 . S
C185 C8 1.729 . S
C204 C131 1.737 . S
C240 C95 1.411 . S
C221 C19 1.417 . S
C276 C118 1.541 . S
C257 C30 1.542 . S
C312 C106 1.544 . S
C293 C41 1.546 . S
C348 C175 1.755 . S
C329 C52 1.734 . S
C384 C139 1.386 . S
C365 C63 1.418 . S
C401 C74 1.543 . S
C420 C162 1.538 . S
C456 C150 1.539 . S
C437 C85 1.546 . S
C473 C7 1.647 . S
C492 C172 1.709 . S
C528 C142 1.303 . S
C509 C16 1.198 . S
C545 C29 1.583 . S
C564 C161 1.575 . S
C581 C40 1.526 . S
C600 C147 1.510 . S
C636 C128 1.705 . S
C617 C51 1.650 . S
C653 C60 1.192 . S
C672 C98 1.303 . S
C708 C117 1.583 . S
C689 C73 1.588 . S
C744 C103 1.513 . S
C725 C84 1.528 . S
C780 C153 1.500 . S
C761 C5 1.264 . S
C816 C169 1.489 . S
C797 C18 1.485 . S
C833 C27 1.350 . S
C852 C140 1.479 . S
C888 C164 1.440 . S
C869 C38 1.307 . S
C924 C109 1.500 . S
C905 C49 1.263 . S
C941 C62 1.486 . S
C960 C125 1.492 . S
C977 C71 1.345 . S
C996 C96 1.478 . S
C1013 C82 1.312 . S
C1032 C120 1.443 . S
