# Generated by pormake.
# Topology pth, (4,4)-cn, num edge types: 1
# Building blocks:
#     Node 0, Type 0, BuildingBlock: TATPOV_clean_sbu_0, # of connection points: 4
#     Node 1, Type 0, BuildingBlock: TATPOV_clean_sbu_0, # of connection points: 4
#     Node 2, Type 0, BuildingBlock: TATPOV_clean_sbu_0, # of connection points: 4
#     Node 3, Type 1, BuildingBlock: NAWXER_clean_sbu_0, # of connection points: 4
#     Node 4, Type 1, BuildingBlock: NAWXER_clean_sbu_0, # of connection points: 4
#     Node 5, Type 1, BuildingBlock: NAWXER_clean_sbu_0, # of connection points: 4
#     Edge 6, Type (0, 1), BuildingBlock: FUNLAD_clean_linker_1, # of connection points: 2
#     Edge 7, Type (0, 1), BuildingBlock: FUNLAD_clean_linker_1, # of connection points: 2
#     Edge 8, Type (0, 1), BuildingBlock: FUNLAD_clean_linker_1, # of connection points: 2
#     Edge 9, Type (0, 1), BuildingBlock: FUNLAD_clean_linker_1, # of connection points: 2
#     Edge 10, Type (0, 1), BuildingBlock: FUNLAD_clean_linker_1, # of connection points: 2
#     Edge 11, Type (0, 1), BuildingBlock: FUNLAD_clean_linker_1, # of connection points: 2
#     Edge 12, Type (0, 1), BuildingBlock: FUNLAD_clean_linker_1, # of connection points: 2
#     Edge 13, Type (0, 1), BuildingBlock: FUNLAD_clean_linker_1, # of connection points: 2
#     Edge 14, Type (0, 1), BuildingBlock: FUNLAD_clean_linker_1, # of connection points: 2
#     Edge 15, Type (0, 1), BuildingBlock: FUNLAD_clean_linker_1, # of connection points: 2
#     Edge 16, Type (0, 1), BuildingBlock: FUNLAD_clean_linker_1, # of connection points: 2
#     Edge 17, Type (0, 1), BuildingBlock: FUNLAD_clean_linker_1, # of connection points: 2
# Relax obj value: 0.048
# Max RMSD: 0.171
# Mean RMSD: 0.098
data_MOF--net-pth--node1-TATPOV_clean_sbu_0--node2-NAWXER_clean_sbu_0--edge1-FUNLAD_clean_linker_1
_symmetry_space_group_name_H-M    P1
_symmetry_Int_Tables_number       1
_symmetry_cell_setting            triclinic
loop_
_symmetry_equiv_pos_as_xyz
'x, y, z'
_cell_length_a     23.852274
_cell_length_b     23.793215
_cell_length_c     58.499468
_cell_angle_alpha  92.505268
_cell_angle_beta   92.15666
_cell_angle_gamma 120.81848
loop_
_atom_site_label
_atom_site_type_symbol
_atom_site_fract_x
_atom_site_fract_y
_atom_site_fract_z
_atom_type_partial_charge
Zn0 Zn 0.14815 1.0 0.03274 0.0
Zn1 Zn 0.12307 0.08411 0.05605 0.0
O2 O 0.12994 0.02758 0.08066 0.0
O3 O 0.15307 0.96034 0.06201 0.0
O4 O 0.11636 0.15333 0.07502 0.0
O5 O 0.22887 0.07393 0.02043 0.0
O6 O 0.20353 0.14127 0.03771 0.0
C7 C 0.14174 0.98103 0.08055 0.0
C8 C 0.02178 0.98701 0.01974 0.0
O9 O 0.03802 0.03292 0.03532 0.0
O10 O 0.05988 0.96607 0.01549 0.0
C11 C 0.06599 0.14419 0.0848 0.0
O12 O 0.01215 0.0862 0.08249 0.0
C13 C 0.23994 0.13139 0.02474 0.0
Zn14 Zn 0.21414 0.14682 0.38119 0.0
Zn15 Zn 0.09919 0.09114 0.40089 0.0
O16 O 0.16708 0.10605 0.42722 0.0
O17 O 0.26181 0.15535 0.41156 0.0
O18 O 0.01566 0.0639 0.41668 0.0
O19 O 0.20403 0.22002 0.36983 0.0
O20 O 0.10845 0.17095 0.3848 0.0
C21 C 0.22903 0.13161 0.42881 0.0
C22 C 0.11824 0.01246 0.36317 0.0
O23 O 0.0811 0.0145 0.37792 0.0
O24 O 0.17482 0.06159 0.36134 0.0
C25 C 0.99671 0.03006 0.43402 0.0
O26 O 0.03094 0.00588 0.44261 0.0
C27 C 0.15044 0.2166 0.37344 0.0
Zn28 Zn 0.16652 0.98587 0.76867 0.0
Zn29 Zn 0.09434 0.0119 0.73947 0.0
O30 O 0.15533 0.99729 0.71848 0.0
O31 O 0.21705 0.98042 0.74289 0.0
O32 O 0.0355 0.02617 0.71749 0.0
O33 O 0.08573 0.90559 0.77808 0.0
O34 O 0.02709 0.93284 0.75639 0.0
C35 C 0.20186 0.98654 0.7226 0.0
C36 C 0.18179 0.11329 0.77843 0.0
O37 O 0.14288 0.09758 0.76059 0.0
O38 O 0.19817 0.07385 0.7855 0.0
C39 C 0.01549 0.99491 0.69787 0.0
O40 O 0.03483 0.95436 0.69145 0.0
C41 C 0.03066 0.89578 0.77075 0.0
C42 C 0.01398 0.61374 0.25735 0.0
C43 C 0.01995 0.46419 0.19955 0.0
O44 O 0.07303 0.63079 0.25335 0.0
Zn45 Zn 0.12053 0.59481 0.23118 0.0
O46 O 0.96656 0.5635 0.24646 0.0
Zn47 Zn 0.01826 0.54055 0.22827 0.0
O48 O 0.06423 0.50963 0.25359 0.0
O49 O 0.17081 0.57693 0.25265 0.0
O50 O 0.97094 0.46406 0.20726 0.0
O51 O 0.07798 0.50961 0.20686 0.0
O52 O 0.16966 0.66637 0.21261 0.0
O53 O 0.06292 0.62097 0.20601 0.0
C54 C 0.12312 0.52853 0.26098 0.0
C55 C 0.12156 0.66481 0.20199 0.0
C56 C 0.68395 0.07095 0.60377 0.0
C57 C 0.55011 0.09597 0.54496 0.0
O58 O 0.63952 0.01506 0.5942 0.0
Zn59 Zn 0.5604 0.98032 0.56769 0.0
O60 O 0.68704 0.12294 0.59772 0.0
Zn61 Zn 0.61666 0.08244 0.57418 0.0
O62 O 0.53031 0.03342 0.59348 0.0
O63 O 0.48273 0.92757 0.58338 0.0
O64 O 0.60001 0.14017 0.557 0.0
O65 O 0.5307 0.0353 0.54707 0.0
O66 O 0.58336 0.93492 0.54545 0.0
O67 O 0.65348 0.04169 0.54905 0.0
C68 C 0.4835 0.97415 0.59507 0.0
C69 C 0.6356 0.98443 0.53985 0.0
C70 C 0.49829 0.52697 0.92701 0.0
C71 C 0.62858 0.65546 0.86618 0.0
O72 O 0.4818 0.56764 0.92055 0.0
Zn73 Zn 0.51143 0.64112 0.89588 0.0
O74 O 0.5444 0.52453 0.91774 0.0
Zn75 Zn 0.56386 0.59122 0.89669 0.0
O76 O 0.60493 0.67906 0.91901 0.0
O77 O 0.54182 0.72129 0.91503 0.0
O78 O 0.6322 0.61116 0.87631 0.0
O79 O 0.58635 0.67078 0.87178 0.0
O80 O 0.43223 0.60729 0.87609 0.0
O81 O 0.4772 0.54615 0.87386 0.0
C82 C 0.59211 0.72395 0.92439 0.0
C83 C 0.43154 0.55685 0.86763 0.0
H84 H 0.11733 0.244 0.10189 0.0
C85 C 0.0702 0.19855 0.09945 0.0
H86 H 0.97206 0.14788 0.10829 0.0
H87 H 0.02788 0.31679 0.20187 0.0
H88 H 0.99475 0.20943 0.21487 0.0
H89 H 0.97688 0.11879 0.18762 0.0
H90 H 0.99126 0.13467 0.14715 0.0
C91 C 0.01898 0.19362 0.11005 0.0
C92 C 0.02656 0.24788 0.12617 0.0
C93 C 0.01737 0.23758 0.14979 0.0
C94 C 0.0277 0.2899 0.16554 0.0
C95 C 0.01971 0.2786 0.1891 0.0
C96 C 1.00112 0.2173 0.19684 0.0
C97 C 0.99097 0.16624 0.18149 0.0
C98 C 0.99922 0.17602 0.15826 0.0
H99 H 0.9593 0.37239 0.1777 0.0
C100 C 1.00938 0.4109 0.18277 0.0
H101 H 0.10946 0.44636 0.17847 0.0
H102 H 0.03895 0.28204 0.08166 0.0
H103 H 0.07125 0.38924 0.0687 0.0
H104 H 0.09343 0.48096 0.09625 0.0
H105 H 0.08271 0.46572 0.13694 0.0
C106 C 0.05907 0.40764 0.17408 0.0
C107 C 0.04683 0.35234 0.15763 0.0
C108 C 0.05506 0.36243 0.134 0.0
C109 C 0.0439 0.30993 0.11819 0.0
C110 C 0.04925 0.3207 0.09454 0.0
C111 C 0.06719 0.38191 0.08683 0.0
C112 C 0.07956 0.43352 0.10234 0.0
C113 C 0.07337 0.42413 0.12565 0.0
H114 H 0.91909 0.05266 0.43928 0.0
C115 C 0.94059 0.02513 0.44567 0.0
H116 H 0.94055 0.96567 0.47135 0.0
H117 H 0.8281 0.06772 0.54736 0.0
H118 H 0.93661 0.1028 0.56392 0.0
H119 H 0.0161 0.09186 0.54134 0.0
H120 H 0.98718 0.04453 0.50216 0.0
C121 C 0.91811 0.99174 0.46443 0.0
C122 C 0.86891 0.99704 0.478 0.0
C123 C 0.88702 0.02599 0.50082 0.0
C124 C 0.84177 0.03405 0.51367 0.0
C125 C 0.86081 0.06164 0.53661 0.0
C126 C 0.92299 0.08193 0.54639 0.0
C127 C 0.96767 0.07558 0.53369 0.0
C128 C 0.95026 0.04809 0.51119 0.0
H129 H 0.66236 0.92492 0.51798 0.0
C130 C 0.67693 0.97488 0.52381 0.0
H131 H 0.74891 0.07511 0.52352 0.0
H132 H 0.81429 0.93012 0.43621 0.0
H133 H 0.70702 0.89827 0.41907 0.0
H134 H 0.63264 0.92211 0.43988 0.0
H135 H 0.66442 0.97643 0.47815 0.0
C136 C 0.73287 0.02519 0.51715 0.0
C137 C 0.77876 0.01434 0.50358 0.0
C138 C 0.76057 0.98538 0.48075 0.0
C139 C 0.80497 0.97499 0.46821 0.0
C140 C 0.78385 0.94207 0.44606 0.0
C141 C 0.72217 0.92305 0.43608 0.0
C142 C 0.68018 0.93621 0.44784 0.0
C143 C 0.69891 0.96706 0.46989 0.0
H144 H 0.97714 0.81132 0.79152 0.0
C145 C 0.97171 0.84471 0.7808 0.0
H146 H 0.90969 0.87956 0.77058 0.0
H147 H 0.69588 0.59577 0.81064 0.0
H148 H 0.70234 0.5478 0.77407 0.0
H149 H 0.78231 0.61609 0.74687 0.0
H150 H 0.85627 0.73296 0.75605 0.0
C151 C 0.91495 0.84385 0.77992 0.0
C152 C 0.8634 0.80306 0.79541 0.0
C153 C 0.82068 0.735 0.78983 0.0
C154 C 0.77463 0.69567 0.80555 0.0
C155 C 0.7321 0.62787 0.79942 0.0
C156 C 0.73521 0.59973 0.77847 0.0
C157 C 0.78026 0.63818 0.76315 0.0
C158 C 0.82255 0.70509 0.76866 0.0
H159 H 0.66875 0.72952 0.84069 0.0
C160 C 0.67402 0.69189 0.84867 0.0
H161 H 0.72865 0.64474 0.85064 0.0
H162 H 0.93668 0.93259 0.81094 0.0
H163 H 0.93322 0.98026 0.84797 0.0
H164 H 0.85775 0.91123 0.87613 0.0
H165 H 0.78466 0.79463 0.86734 0.0
C166 C 0.72335 0.68304 0.84326 0.0
C167 C 0.7715 0.72453 0.82683 0.0
C168 C 0.81488 0.79269 0.83251 0.0
C169 C 0.8599 0.83214 0.81657 0.0
C170 C 0.90198 0.90019 0.8225 0.0
C171 C 0.90056 0.92823 0.84371 0.0
C172 C 0.85794 0.88941 0.85953 0.0
C173 C 0.81574 0.82245 0.85415 0.0
H174 H 0.11692 0.95937 0.11643 0.0
C175 C 0.13635 0.94733 0.10172 0.0
H176 H 0.16782 0.88591 0.08763 0.0
H177 H 0.15895 0.83389 0.1994 0.0
H178 H 0.23926 0.94984 0.20659 0.0
H179 H 0.27404 0.02337 0.17495 0.0
H180 H 0.2275 0.98174 0.13608 0.0
C181 C 0.15005 0.89913 0.10256 0.0
C182 C 0.13212 0.85545 0.12189 0.0
C183 C 0.1622 0.88021 0.14434 0.0
C184 C 0.14495 0.83709 0.16237 0.0
C185 C 0.17258 0.86379 0.18489 0.0
C186 C 0.21839 0.93038 0.18929 0.0
C187 C 0.23775 0.97182 0.17149 0.0
C188 C 0.21025 0.94732 0.14925 0.0
H189 H 0.18396 0.74331 0.18004 0.0
C190 C 0.13411 0.71331 0.18502 0.0
H191 H 0.03671 0.69175 0.1804 0.0
H192 H 0.06159 0.7923 0.08128 0.0
H193 H 0.98427 0.67587 0.07394 0.0
H194 H 0.95988 0.60027 0.10461 0.0
H195 H 0.01213 0.6408 0.14287 0.0
C196 C 0.08689 0.72204 0.17582 0.0
C197 C 0.1006 0.76871 0.15765 0.0
C198 C 0.07013 0.74411 0.13528 0.0
C199 C 0.08544 0.78752 0.11746 0.0
C200 C 0.05311 0.76157 0.09538 0.0
C201 C 1.00832 0.69475 0.09092 0.0
C202 C 0.9945 0.65222 0.10819 0.0
C203 C 0.02485 0.67626 0.13013 0.0
H204 H 0.2312 0.09795 0.46334 0.0
C205 C 0.26155 0.12617 0.44992 0.0
H206 H 0.35612 0.17434 0.43779 0.0
H207 H 0.4204 0.13507 0.54593 0.0
H208 H 0.3803 0.20663 0.55743 0.0
H209 H 0.33094 0.24441 0.52869 0.0
H210 H 0.32021 0.20979 0.48833 0.0
C211 C 0.32611 0.14821 0.45158 0.0
C212 C 0.35631 0.12682 0.46932 0.0
C213 C 0.36412 0.1493 0.49274 0.0
C214 C 0.39506 0.12966 0.5092 0.0
C215 C 0.3995 0.15035 0.53261 0.0
C216 C 0.37632 0.19115 0.53946 0.0
C217 C 0.34834 0.21225 0.52329 0.0
C218 C 0.34223 0.19179 0.50018 0.0
H219 H 0.53591 0.16632 0.52583 0.0
C220 C 0.5141 0.1148 0.52902 0.0
H221 H 0.4331 0.01885 0.52172 0.0
H222 H 0.34538 0.07115 0.42608 0.0
H223 H 0.38656 1.00069 0.4146 0.0
H224 H 0.44429 0.9706 0.44285 0.0
H225 H 0.46075 0.01045 0.4828 0.0
C226 C 0.45501 0.07059 0.51889 0.0
C227 C 0.42022 0.08953 0.50207 0.0
C228 C 0.41157 0.06636 0.47873 0.0
C229 C 0.37939 0.08476 0.46237 0.0
C230 C 0.37055 0.05989 0.43921 0.0
C231 C 0.39374 0.01912 0.43236 0.0
C232 C 0.42613 0.0021 0.44827 0.0
C233 C 0.43513 0.02529 0.47118 0.0
H234 H 0.24468 0.18778 0.80575 0.0
C235 C 0.20986 0.17758 0.79131 0.0
H236 H 0.16269 0.21586 0.77154 0.0
H237 H 0.29816 0.3912 0.87324 0.0
H238 H 0.21137 0.29657 0.89012 0.0
H239 H 0.13056 0.19838 0.86576 0.0
H240 H 0.13664 0.19398 0.82435 0.0
C241 C 0.19573 0.22368 0.78625 0.0
C242 C 0.23035 0.28834 0.79986 0.0
C243 C 0.22403 0.29146 0.82383 0.0
C244 C 0.26955 0.34861 0.83779 0.0
C245 C 0.26442 0.34913 0.86183 0.0
C246 C 0.21479 0.29523 0.87172 0.0
C247 C 0.16934 0.23991 0.85801 0.0
C248 C 0.17361 0.23781 0.83433 0.0
H249 H 0.33673 0.51652 0.84725 0.0
C250 C 0.37719 0.5091 0.85135 0.0
H251 H 0.41628 0.44768 0.84637 0.0
H252 H 0.24799 0.30286 0.75406 0.0
H253 H 0.33023 0.40021 0.73701 0.0
H254 H 0.40804 0.50011 0.76124 0.0
H255 H 0.4041 0.50324 0.80274 0.0
C256 C 0.37611 0.4556 0.84235 0.0
C257 C 0.31992 0.40315 0.82763 0.0
C258 C 0.32164 0.40276 0.80347 0.0
C259 C 0.2766 0.34523 0.78951 0.0
C260 C 0.2809 0.34532 0.76545 0.0
C261 C 0.32782 0.40087 0.75545 0.0
C262 C 0.37166 0.45714 0.7691 0.0
C263 C 0.36899 0.45828 0.79286 0.0
H264 H 0.95772 0.97736 0.66524 0.0
C265 C 0.96945 0.0019 0.68236 0.0
H266 H 0.94841 0.05686 0.70618 0.0
H267 H 0.84589 0.10272 0.60476 0.0
H268 H 0.96125 0.17321 0.59943 0.0
H269 H 0.04515 0.18183 0.62766 0.0
H270 H 0.01407 0.12016 0.66156 0.0
C271 C 0.93978 0.03458 0.68882 0.0
C272 C 0.88956 0.03545 0.6731 0.0
C273 C 0.90839 0.0731 0.65367 0.0
C274 C 0.85987 0.06978 0.63778 0.0
C275 C 0.88033 0.10533 0.61793 0.0
C276 C 0.94652 0.1455 0.61449 0.0
C277 C 0.99379 0.15034 0.63039 0.0
C278 C 0.97526 0.11449 0.64973 0.0
H279 H 0.76647 0.12337 0.63005 0.0
C280 C 0.73328 0.07581 0.62107 0.0
H281 H 0.70741 0.97672 0.61634 0.0
H282 H 0.83708 0.95959 0.70912 0.0
H283 H 0.72184 0.89394 0.71585 0.0
H284 H 0.63776 0.89061 0.68899 0.0
H285 H 0.66832 0.95265 0.65518 0.0
C286 C 0.74081 0.0247 0.62499 0.0
C287 C 0.79249 0.03055 0.64181 0.0
C288 C 0.7739 0.99448 0.66163 0.0
C289 C 0.82243 0.99697 0.67727 0.0
C290 C 0.8023 0.95983 0.69677 0.0
C291 C 0.73631 0.92191 0.70083 0.0
C292 C 0.68897 0.91998 0.6857 0.0
C293 C 0.70721 0.95573 0.66632 0.0
H294 H 0.95057 0.92114 0.99208 0.0
C295 C 0.95864 0.95656 0.00614 0.0
H296 H 0.91543 1.0007 0.0251 0.0
H297 H 0.74759 0.87221 0.92285 0.0
H298 H 0.83579 0.97085 0.90846 0.0
H299 H 0.92928 0.05241 0.93435 0.0
H300 H 0.93503 0.03568 0.97491 0.0
C301 C 0.91039 0.96795 0.01059 0.0
C302 C 0.84683 0.9299 0.99669 0.0
C303 C 0.84284 0.94154 0.97331 0.0
C304 C 0.78839 0.89504 0.95849 0.0
C305 C 0.78731 0.9063 0.93495 0.0
C306 C 0.83771 0.96267 0.92645 0.0
C307 C 0.89038 0.00861 0.94103 0.0
C308 C 0.89324 0.99835 0.96421 0.0
H309 H 0.6278 0.81917 0.94427 0.0
C310 C 0.63688 0.77933 0.94094 0.0
H311 H 0.69788 0.74134 0.94852 0.0
H312 H 0.83448 0.89929 0.04141 0.0
H313 H 0.74334 0.80379 0.0564 0.0
H314 H 0.64833 0.72339 0.03078 0.0
H315 H 0.64384 0.73797 0.98999 0.0
C316 C 0.68937 0.78175 0.95133 0.0
C317 C 0.73762 0.83763 0.96727 0.0
C318 C 0.73869 0.82934 0.99108 0.0
C319 C 0.79329 0.87577 0.00586 0.0
C320 C 0.79407 0.86537 0.02947 0.0
C321 C 0.74209 0.81089 0.03828 0.0
C322 C 0.68859 0.7656 0.02385 0.0
C323 C 0.68669 0.77441 1.0005 0.0
H324 H 0.13033 0.95802 0.33455 0.0
C325 C 0.09755 0.95363 0.34773 0.0
H326 H 0.01059 0.88814 0.36304 0.0
H327 H 0.01595 0.76453 0.2578 0.0
H328 H 0.99021 0.84397 0.24411 0.0
H329 H 0.98025 0.92016 0.2713 0.0
H330 H 0.99689 0.91774 0.31242 0.0
C331 C 0.04298 0.89533 0.34945 0.0
C332 C 0.03054 0.83842 0.33379 0.0
C333 C 0.01764 0.83824 0.30992 0.0
C334 C 0.02141 0.79296 0.29432 0.0
C335 C 0.01212 0.79659 0.27049 0.0
C336 C 0.99749 0.84215 0.26238 0.0
C337 C 0.99205 0.88515 0.27768 0.0
C338 C 1.00204 0.88351 0.30119 0.0
H339 H 0.95023 0.63972 0.27584 0.0
C340 C 1.0007 0.65303 0.27406 0.0
H341 H 0.09966 0.71805 0.28552 0.0
H342 H 0.04824 0.81967 0.37864 0.0
H343 H 0.06803 0.73623 0.39261 0.0
H344 H 0.07254 0.6562 0.36562 0.0
H345 H 0.05752 0.65922 0.32447 0.0
C346 C 0.04914 0.70529 0.28658 0.0
C347 C 0.03612 0.74663 0.30273 0.0
C348 C 0.04369 0.74337 0.3267 0.0
C349 C 0.04067 0.78922 0.34226 0.0
C350 C 0.04999 0.78591 0.36609 0.0
C351 C 0.06126 0.73823 0.37433 0.0
C352 C 0.06383 0.69318 0.35913 0.0
C353 C 0.05527 0.69553 0.33557 0.0
H354 H 0.28797 0.98853 0.70989 0.0
C355 C 0.2418 0.98428 0.70436 0.0
H356 H 0.17874 0.97267 0.67594 0.0
H357 H 0.4027 0.08588 0.60633 0.0
H358 H 0.35564 0.1545 0.60245 0.0
H359 H 0.26994 0.14396 0.6273 0.0
H360 H 0.2299 0.06388 0.65585 0.0
C361 C 0.22436 0.97639 0.68181 0.0
C362 C 0.26962 0.97686 0.66464 0.0
C363 C 0.2932 0.02469 0.64825 0.0
C364 C 0.34405 0.03208 0.63437 0.0
C365 C 0.36543 0.07918 0.61774 0.0
C366 C 0.33865 0.1188 0.61526 0.0
C367 C 0.29032 0.11278 0.62922 0.0
C368 C 0.26776 0.0665 0.64557 0.0
H369 H 0.38609 0.91058 0.60784 0.0
C370 C 0.42882 0.95988 0.60947 0.0
H371 H 0.47197 0.05552 0.62529 0.0
H372 H 0.22194 0.86716 0.68874 0.0
H373 H 0.2707 0.80017 0.6937 0.0
H374 H 0.37019 0.82425 0.67448 0.0
H375 H 0.41962 0.91327 0.64951 0.0
C376 C 0.42997 0.00578 0.62407 0.0
C377 C 0.3727 0.99299 0.63733 0.0
C378 C 0.34763 0.9437 0.65325 0.0
C379 C 0.29382 0.93346 0.66594 0.0
C380 C 0.26553 0.87979 0.67994 0.0
C381 C 0.29264 0.84059 0.68276 0.0
C382 C 0.34837 0.8539 0.67183 0.0
C383 C 0.37587 0.90486 0.65729 0.0
H384 H 0.32175 0.17415 1.00223 0.0
C385 C 0.29149 0.18526 0.01273 0.0
H386 H 0.26767 0.25682 0.02245 0.0
H387 H 0.53317 0.49231 0.98986 0.0
H388 H 0.55577 0.51183 0.03122 0.0
H389 H 0.48096 0.43145 0.05708 0.0
H390 H 0.38299 0.33108 0.04178 0.0
C391 C 0.2972 0.24435 0.01212 0.0
C392 C 0.34193 0.29324 0.99651 0.0
C393 C 0.39883 0.35159 0.00573 0.0
C394 C 0.44206 0.3979 0.99082 0.0
C395 C 0.49869 0.45565 1.00045 0.0
C396 C 0.51225 0.46739 0.02413 0.0
C397 C 0.47012 0.42212 0.03869 0.0
C398 C 0.41405 0.36475 0.0297 0.0
H399 H 0.42142 0.48546 0.95149 0.0
C400 C 0.46115 0.48183 0.94449 0.0
H401 H 0.51073 0.42923 0.94413 0.0
H402 H 0.233 0.19028 0.97309 0.0
H403 H 0.21083 0.17128 0.93184 0.0
H404 H 0.28828 0.24944 0.90604 0.0
H405 H 0.38802 0.34761 0.9214 0.0
C406 C 0.47215 0.43482 0.95111 0.0
C407 C 0.42813 0.38585 0.96675 0.0
C408 C 0.37107 0.32777 0.9575 0.0
C409 C 0.32737 0.28184 0.97238 0.0
C410 C 0.26912 0.22579 0.96264 0.0
C411 C 0.2555 0.21448 0.93896 0.0
C412 C 0.299 0.25856 0.92443 0.0
C413 C 0.35608 0.31471 0.93349 0.0
H414 H 0.08581 0.25538 0.36541 0.0
C415 C 0.13319 0.26112 0.36255 0.0
H416 H 0.21699 0.30664 0.34358 0.0
H417 H 0.08261 0.35183 0.25817 0.0
H418 H 0.09382 0.26154 0.24329 0.0
H419 H 0.12782 0.20336 0.26903 0.0
H420 H 0.15175 0.23562 0.30975 0.0
C421 C 0.17104 0.30298 0.34741 0.0
C422 C 0.14683 0.33618 0.33244 0.0
C423 C 0.13224 0.31608 0.30869 0.0
C424 C 0.11187 0.34904 0.29388 0.0
C425 C 0.09816 0.32837 0.2702 0.0
C426 C 0.1042 0.2765 0.26143 0.0
C427 C 0.1235 0.24384 0.27592 0.0
C428 C 0.1373 0.26306 0.29927 0.0
H429 H 0.18727 0.51246 0.28441 0.0
C430 C 0.1365 0.4938 0.27863 0.0
H431 H 0.0382 0.41803 0.28094 0.0
H432 H 0.17266 0.38841 0.37691 0.0
H433 H 0.15996 0.47783 0.39176 0.0
H434 H 0.12166 0.53291 0.36615 0.0
H435 H 0.09626 0.49914 0.32547 0.0
C436 C 0.08915 0.43898 0.28694 0.0
C437 C 0.10626 0.4021 0.30281 0.0
C438 C 0.11944 0.42137 0.32659 0.0
C439 C 0.14026 0.38869 0.34143 0.0
C440 C 0.15528 0.41049 0.36497 0.0
C441 C 0.14847 0.46196 0.37369 0.0
C442 C 0.12701 0.49305 0.35927 0.0
C443 C 0.11271 0.47329 0.33596 0.0
loop_
_geom_bond_atom_site_label_1
_geom_bond_atom_site_label_2
_geom_bond_distance
_geom_bond_site_symmetry_2
_ccdc_geom_bond_type
Zn0 O3 2.031 1_545 S
Zn0 O5 2.049 . S
Zn0 O10 2.067 1_545 S
Zn1 O2 1.962 . S
Zn1 O4 1.986 . S
Zn1 O6 1.996 . S
Zn1 O9 1.943 . S
O2 Zn1 1.962 . S
O2 C7 1.254 1_545 S
O3 Zn0 2.031 1_565 S
O3 C7 1.269 . S
O4 Zn1 1.986 . S
O4 C11 1.262 . S
O5 Zn0 2.049 . S
O5 C13 1.260 . S
O6 Zn1 1.996 . S
O6 C13 1.257 . S
C7 O2 1.254 1_565 S
C7 O3 1.269 . S
C8 O9 1.247 1_565 S
C8 O10 1.271 . S
O9 Zn1 1.943 . S
O9 C8 1.247 1_545 S
O10 Zn0 2.067 1_565 S
O10 C8 1.271 . S
C11 O4 1.262 . S
C11 O12 1.232 . S
O12 C11 1.232 . S
C13 O5 1.260 . S
C13 O6 1.257 . S
Zn14 O17 2.031 . S
Zn14 O19 2.049 . S
Zn14 O24 2.067 . S
Zn15 O16 1.962 . S
Zn15 O18 1.986 1_455 S
Zn15 O20 1.996 . S
Zn15 O23 1.943 . S
O16 Zn15 1.962 . S
O16 C21 1.254 . S
O17 Zn14 2.031 . S
O17 C21 1.269 . S
O18 Zn15 1.986 1_655 S
O18 C25 1.262 . S
O19 Zn14 2.049 . S
O19 C27 1.260 . S
O20 Zn15 1.996 . S
O20 C27 1.257 . S
C21 O16 1.254 . S
C21 O17 1.269 . S
C22 O23 1.249 . S
C22 O24 1.270 . S
O23 Zn15 1.943 . S
O23 C22 1.249 . S
O24 Zn14 2.067 . S
O24 C22 1.270 . S
C25 O18 1.262 . S
C25 O26 1.232 . S
O26 C25 1.232 . S
C27 O19 1.260 . S
C27 O20 1.257 . S
Zn28 O31 2.031 1_565 S
Zn28 O33 2.049 . S
Zn28 O38 2.067 1_565 S
Zn29 O30 1.962 1_545 S
Zn29 O32 1.986 1_455 S
Zn29 O34 1.996 1_545 S
Zn29 O37 1.943 . S
O30 Zn29 1.962 1_565 S
O30 C35 1.254 1_565 S
O31 Zn28 2.031 1_545 S
O31 C35 1.269 . S
O32 Zn29 1.986 1_655 S
O32 C39 1.262 . S
O33 Zn28 2.049 . S
O33 C41 1.260 1_455 S
O34 Zn29 1.996 1_565 S
O34 C41 1.257 1_455 S
C35 O30 1.254 1_545 S
C35 O31 1.269 . S
C36 O37 1.249 . S
C36 O38 1.270 . S
O37 Zn29 1.943 . S
O37 C36 1.249 . S
O38 Zn28 2.067 1_545 S
O38 C36 1.270 . S
C39 O32 1.262 . S
C39 O40 1.232 1_655 S
O40 C39 1.232 1_455 S
C41 O33 1.260 1_655 S
C41 O34 1.257 1_655 S
C42 O44 1.247 . S
C42 O46 1.258 . S
C43 O50 1.247 . S
C43 O51 1.258 . S
O44 C42 1.247 . S
O44 Zn45 2.028 . S
Zn45 O44 2.028 . S
Zn45 O49 2.035 . S
Zn45 O51 2.035 . S
Zn45 O52 2.028 . S
O46 C42 1.258 . S
O46 Zn47 2.035 . S
Zn47 O46 2.035 . S
Zn47 O48 2.028 . S
Zn47 O50 2.028 . S
Zn47 O53 2.035 . S
O48 Zn47 2.028 . S
O48 C54 1.247 . S
O49 Zn45 2.035 . S
O49 C54 1.258 . S
O50 C43 1.247 . S
O50 Zn47 2.028 . S
O51 C43 1.258 . S
O51 Zn45 2.035 . S
O52 Zn45 2.028 . S
O52 C55 1.247 . S
O53 Zn47 2.035 . S
O53 C55 1.258 . S
C54 O48 1.247 . S
C54 O49 1.258 . S
C55 O52 1.247 . S
C55 O53 1.258 . S
C56 O58 1.247 1_545 S
C56 O60 1.258 . S
C57 O64 1.247 . S
C57 O65 1.258 . S
O58 C56 1.247 1_565 S
O58 Zn59 2.028 . S
Zn59 O58 2.028 . S
Zn59 O63 2.035 . S
Zn59 O65 2.035 1_565 S
Zn59 O66 2.028 1_565 S
O60 C56 1.258 . S
O60 Zn61 2.035 . S
Zn61 O60 2.035 . S
Zn61 O62 2.028 . S
Zn61 O64 2.028 . S
Zn61 O67 2.035 . S
O62 Zn61 2.028 . S
O62 C68 1.247 . S
O63 Zn59 2.035 . S
O63 C68 1.258 1_565 S
O64 C57 1.247 . S
O64 Zn61 2.028 . S
O65 C57 1.258 . S
O65 Zn59 2.035 1_545 S
O66 Zn59 2.028 1_545 S
O66 C69 1.247 . S
O67 Zn61 2.035 . S
O67 C69 1.258 . S
C68 O62 1.247 . S
C68 O63 1.258 1_545 S
C69 O66 1.247 . S
C69 O67 1.258 . S
C70 O72 1.247 . S
C70 O74 1.258 . S
C71 O78 1.247 . S
C71 O79 1.258 . S
O72 C70 1.247 . S
O72 Zn73 2.028 . S
Zn73 O72 2.028 . S
Zn73 O77 2.035 . S
Zn73 O79 2.035 . S
Zn73 O80 2.028 . S
O74 C70 1.258 . S
O74 Zn75 2.035 . S
Zn75 O74 2.035 . S
Zn75 O76 2.028 . S
Zn75 O78 2.028 . S
Zn75 O81 2.035 . S
O76 Zn75 2.028 . S
O76 C82 1.247 . S
O77 Zn73 2.035 . S
O77 C82 1.258 . S
O78 C71 1.247 . S
O78 Zn75 2.028 . S
O79 C71 1.258 . S
O79 Zn73 2.035 . S
O80 Zn73 2.028 . S
O80 C83 1.247 . S
O81 Zn75 2.035 . S
O81 C83 1.258 . S
C82 O76 1.247 . S
C82 O77 1.258 . S
C83 O80 1.247 . S
C83 O81 1.258 . S
H84 C85 0.951 . S
C85 H84 0.951 . S
C85 C91 1.265 . S
H86 C91 0.950 1_655 S
H87 C95 0.949 . S
H88 C96 0.950 . S
H89 C97 0.951 . S
H90 C98 0.951 1_655 S
C91 C85 1.265 . S
C91 H86 0.950 1_455 S
C91 C92 1.478 . S
C92 C91 1.478 . S
C92 C93 1.397 . S
C92 C109 1.394 . S
C93 C92 1.397 . S
C93 C94 1.438 . S
C93 C98 1.429 . S
C94 C93 1.438 . S
C94 C95 1.428 . S
C94 C107 1.394 . S
C95 H87 0.949 . S
C95 C94 1.428 . S
C95 C96 1.345 1_455 S
C96 H88 0.950 . S
C96 C95 1.345 1_655 S
C96 C97 1.424 . S
C97 H89 0.951 . S
C97 C96 1.424 . S
C97 C98 1.347 1_655 S
C98 H90 0.951 1_455 S
C98 C93 1.429 . S
C98 C97 1.347 1_455 S
H99 C100 0.951 . S
C100 H99 0.951 . S
C100 C106 1.265 . S
H101 C106 0.950 . S
H102 C110 0.949 . S
H103 C111 0.950 . S
H104 C112 0.951 . S
H105 C113 0.951 . S
C106 C100 1.265 . S
C106 H101 0.950 . S
C106 C107 1.478 . S
C107 C94 1.394 . S
C107 C106 1.478 . S
C107 C108 1.397 . S
C108 C107 1.397 . S
C108 C109 1.438 . S
C108 C113 1.429 . S
C109 C92 1.394 . S
C109 C108 1.438 . S
C109 C110 1.428 . S
C110 H102 0.949 . S
C110 C109 1.428 . S
C110 C111 1.345 . S
C111 H103 0.950 . S
C111 C110 1.345 . S
C111 C112 1.424 . S
C112 H104 0.951 . S
C112 C111 1.424 . S
C112 C113 1.347 . S
C113 H105 0.951 . S
C113 C108 1.429 . S
C113 C112 1.347 . S
H114 C115 0.951 . S
C115 H114 0.951 . S
C115 C121 1.265 . S
H116 C121 0.950 . S
H117 C125 0.949 . S
H118 C126 0.950 . S
H119 C127 0.951 . S
H120 C128 0.951 . S
C121 C115 1.265 . S
C121 H116 0.950 . S
C121 C122 1.478 . S
C122 C121 1.478 . S
C122 C123 1.397 . S
C122 C139 1.398 . S
C123 C122 1.397 . S
C123 C124 1.438 . S
C123 C128 1.429 . S
C124 C123 1.438 . S
C124 C125 1.428 . S
C124 C137 1.394 . S
C125 H117 0.949 . S
C125 C124 1.428 . S
C125 C126 1.345 . S
C126 H118 0.950 . S
C126 C125 1.345 . S
C126 C127 1.424 . S
C127 H119 0.951 . S
C127 C126 1.424 . S
C127 C128 1.347 . S
C128 H120 0.951 . S
C128 C123 1.429 . S
C128 C127 1.347 . S
H129 C130 0.951 . S
C130 H129 0.951 . S
C130 C136 1.265 . S
H131 C136 0.950 . S
H132 C140 0.949 . S
H133 C141 0.950 . S
H134 C142 0.951 . S
H135 C143 0.951 . S
C136 C130 1.265 . S
C136 H131 0.950 . S
C136 C137 1.478 . S
C137 C124 1.394 . S
C137 C136 1.478 . S
C137 C138 1.403 . S
C138 C137 1.403 . S
C138 C139 1.439 . S
C138 C143 1.426 1_545 S
C139 C122 1.398 . S
C139 C138 1.439 . S
C139 C140 1.419 1_545 S
C140 H132 0.949 . S
C140 C139 1.419 1_565 S
C140 C141 1.345 . S
C141 H133 0.950 . S
C141 C140 1.345 . S
C141 C142 1.424 . S
C142 H134 0.951 . S
C142 C141 1.424 . S
C142 C143 1.347 . S
C143 H135 0.951 . S
C143 C138 1.426 1_565 S
C143 C142 1.347 . S
H144 C145 0.951 . S
C145 H144 0.951 . S
C145 C151 1.265 . S
H146 C151 0.950 . S
H147 C155 0.949 . S
H148 C156 0.950 . S
H149 C157 0.951 . S
H150 C158 0.951 . S
C151 C145 1.265 . S
C151 H146 0.950 . S
C151 C152 1.478 . S
C152 C151 1.478 . S
C152 C153 1.397 . S
C152 C169 1.394 . S
C153 C152 1.397 . S
C153 C154 1.438 . S
C153 C158 1.429 . S
C154 C153 1.438 . S
C154 C155 1.428 . S
C154 C167 1.394 . S
C155 H147 0.949 . S
C155 C154 1.428 . S
C155 C156 1.345 . S
C156 H148 0.950 . S
C156 C155 1.345 . S
C156 C157 1.424 . S
C157 H149 0.951 . S
C157 C156 1.424 . S
C157 C158 1.347 . S
C158 H150 0.951 . S
C158 C153 1.429 . S
C158 C157 1.347 . S
H159 C160 0.951 . S
C160 H159 0.951 . S
C160 C166 1.265 . S
H161 C166 0.950 . S
H162 C170 0.949 . S
H163 C171 0.950 . S
H164 C172 0.951 . S
H165 C173 0.951 . S
C166 C160 1.265 . S
C166 H161 0.950 . S
C166 C167 1.478 . S
C167 C154 1.394 . S
C167 C166 1.478 . S
C167 C168 1.397 . S
C168 C167 1.397 . S
C168 C169 1.438 . S
C168 C173 1.429 . S
C169 C152 1.394 . S
C169 C168 1.438 . S
C169 C170 1.428 . S
C170 H162 0.949 . S
C170 C169 1.428 . S
C170 C171 1.345 . S
C171 H163 0.950 . S
C171 C170 1.345 . S
C171 C172 1.424 . S
C172 H164 0.951 . S
C172 C171 1.424 . S
C172 C173 1.347 . S
C173 H165 0.951 . S
C173 C168 1.429 . S
C173 C172 1.347 . S
H174 C175 0.951 . S
C175 H174 0.951 . S
C175 C181 1.265 . S
H176 C181 0.950 . S
H177 C185 0.949 . S
H178 C186 0.950 . S
H179 C187 0.951 1_545 S
H180 C188 0.952 . S
C181 C175 1.265 . S
C181 H176 0.950 . S
C181 C182 1.478 . S
C182 C181 1.478 . S
C182 C183 1.397 . S
C182 C199 1.394 . S
C183 C182 1.397 . S
C183 C184 1.438 . S
C183 C188 1.429 . S
C184 C183 1.438 . S
C184 C185 1.428 . S
C184 C197 1.394 . S
C185 H177 0.949 . S
C185 C184 1.428 . S
C185 C186 1.345 . S
C186 H178 0.950 . S
C186 C185 1.345 . S
C186 C187 1.424 . S
C187 H179 0.951 1_565 S
C187 C186 1.424 . S
C187 C188 1.347 . S
C188 H180 0.952 . S
C188 C183 1.429 . S
C188 C187 1.347 . S
H189 C190 0.951 . S
C190 H189 0.951 . S
C190 C196 1.265 . S
H191 C196 0.950 . S
H192 C200 0.949 . S
H193 C201 0.950 . S
H194 C202 0.951 1_655 S
H195 C203 0.951 . S
C196 C190 1.265 . S
C196 H191 0.950 . S
C196 C197 1.478 . S
C197 C184 1.394 . S
C197 C196 1.478 . S
C197 C198 1.397 . S
C198 C197 1.397 . S
C198 C199 1.438 . S
C198 C203 1.429 . S
C199 C182 1.394 . S
C199 C198 1.438 . S
C199 C200 1.428 . S
C200 H192 0.949 . S
C200 C199 1.428 . S
C200 C201 1.345 . S
C201 H193 0.950 . S
C201 C200 1.345 . S
C201 C202 1.424 . S
C202 H194 0.951 1_455 S
C202 C201 1.424 . S
C202 C203 1.347 . S
C203 H195 0.951 . S
C203 C198 1.429 . S
C203 C202 1.347 . S
H204 C205 0.951 . S
C205 H204 0.951 . S
C205 C211 1.265 . S
H206 C211 0.950 . S
H207 C215 0.949 . S
H208 C216 0.950 . S
H209 C217 0.951 . S
H210 C218 0.951 . S
C211 C205 1.265 . S
C211 H206 0.950 . S
C211 C212 1.478 . S
C212 C211 1.478 . S
C212 C213 1.397 . S
C212 C229 1.394 . S
C213 C212 1.397 . S
C213 C214 1.438 . S
C213 C218 1.429 . S
C214 C213 1.438 . S
C214 C215 1.428 . S
C214 C227 1.394 . S
C215 H207 0.949 . S
C215 C214 1.428 . S
C215 C216 1.345 . S
C216 H208 0.950 . S
C216 C215 1.345 . S
C216 C217 1.424 . S
C217 H209 0.951 . S
C217 C216 1.424 . S
C217 C218 1.347 . S
C218 H210 0.951 . S
C218 C213 1.429 . S
C218 C217 1.347 . S
H219 C220 0.951 . S
C220 H219 0.951 . S
C220 C226 1.265 . S
H221 C226 0.950 . S
H222 C230 0.949 . S
H223 C231 0.950 . S
H224 C232 0.951 . S
H225 C233 0.951 . S
C226 C220 1.265 . S
C226 H221 0.950 . S
C226 C227 1.478 . S
C227 C214 1.394 . S
C227 C226 1.478 . S
C227 C228 1.397 . S
C228 C227 1.397 . S
C228 C229 1.438 . S
C228 C233 1.429 1_545 S
C229 C212 1.394 . S
C229 C228 1.438 . S
C229 C230 1.428 1_545 S
C230 H222 0.949 . S
C230 C229 1.428 1_565 S
C230 C231 1.345 . S
C231 H223 0.950 . S
C231 C230 1.345 . S
C231 C232 1.424 . S
C232 H224 0.951 . S
C232 C231 1.424 . S
C232 C233 1.347 . S
C233 H225 0.951 . S
C233 C228 1.429 1_565 S
C233 C232 1.347 . S
H234 C235 0.951 . S
C235 H234 0.951 . S
C235 C241 1.265 . S
H236 C241 0.950 . S
H237 C245 0.949 . S
H238 C246 0.950 . S
H239 C247 0.951 . S
H240 C248 0.951 . S
C241 C235 1.265 . S
C241 H236 0.950 . S
C241 C242 1.478 . S
C242 C241 1.478 . S
C242 C243 1.397 . S
C242 C259 1.394 . S
C243 C242 1.397 . S
C243 C244 1.438 . S
C243 C248 1.429 . S
C244 C243 1.438 . S
C244 C245 1.428 . S
C244 C257 1.394 . S
C245 H237 0.949 . S
C245 C244 1.428 . S
C245 C246 1.345 . S
C246 H238 0.950 . S
C246 C245 1.345 . S
C246 C247 1.424 . S
C247 H239 0.951 . S
C247 C246 1.424 . S
C247 C248 1.347 . S
C248 H240 0.951 . S
C248 C243 1.429 . S
C248 C247 1.347 . S
H249 C250 0.951 . S
C250 H249 0.951 . S
C250 C256 1.265 . S
H251 C256 0.950 . S
H252 C260 0.949 . S
H253 C261 0.950 . S
H254 C262 0.951 . S
H255 C263 0.951 . S
C256 C250 1.265 . S
C256 H251 0.950 . S
C256 C257 1.478 . S
C257 C244 1.394 . S
C257 C256 1.478 . S
C257 C258 1.397 . S
C258 C257 1.397 . S
C258 C259 1.438 . S
C258 C263 1.429 . S
C259 C242 1.394 . S
C259 C258 1.438 . S
C259 C260 1.428 . S
C260 H252 0.949 . S
C260 C259 1.428 . S
C260 C261 1.345 . S
C261 H253 0.950 . S
C261 C260 1.345 . S
C261 C262 1.424 . S
C262 H254 0.951 . S
C262 C261 1.424 . S
C262 C263 1.347 . S
C263 H255 0.951 . S
C263 C258 1.429 . S
C263 C262 1.347 . S
H264 C265 0.951 . S
C265 H264 0.951 . S
C265 C271 1.265 . S
H266 C271 0.950 . S
H267 C275 0.949 . S
H268 C276 0.950 . S
H269 C277 0.951 . S
H270 C278 0.951 . S
C271 C265 1.265 . S
C271 H266 0.950 . S
C271 C272 1.478 . S
C272 C271 1.478 . S
C272 C273 1.397 . S
C272 C289 1.394 . S
C273 C272 1.397 . S
C273 C274 1.438 . S
C273 C278 1.429 . S
C274 C273 1.438 . S
C274 C275 1.428 . S
C274 C287 1.394 . S
C275 H267 0.949 . S
C275 C274 1.428 . S
C275 C276 1.345 . S
C276 H268 0.950 . S
C276 C275 1.345 . S
C276 C277 1.424 . S
C277 H269 0.951 . S
C277 C276 1.424 . S
C277 C278 1.347 . S
C278 H270 0.951 . S
C278 C273 1.429 . S
C278 C277 1.347 . S
H279 C280 0.951 . S
C280 H279 0.951 . S
C280 C286 1.265 . S
H281 C286 0.950 . S
H282 C290 0.949 . S
H283 C291 0.950 . S
H284 C292 0.951 . S
H285 C293 0.951 . S
C286 C280 1.265 . S
C286 H281 0.950 . S
C286 C287 1.478 . S
C287 C274 1.394 . S
C287 C286 1.478 . S
C287 C288 1.397 1_545 S
C288 C287 1.397 1_565 S
C288 C289 1.438 1_565 S
C288 C293 1.429 . S
C289 C272 1.394 . S
C289 C288 1.438 1_545 S
C289 C290 1.428 1_545 S
C290 H282 0.949 . S
C290 C289 1.428 1_565 S
C290 C291 1.345 . S
C291 H283 0.950 . S
C291 C290 1.345 . S
C291 C292 1.424 . S
C292 H284 0.951 . S
C292 C291 1.424 . S
C292 C293 1.347 . S
C293 H285 0.951 . S
C293 C288 1.429 . S
C293 C292 1.347 . S
H294 C295 0.951 . S
C295 H294 0.951 . S
C295 C301 1.265 . S
H296 C301 0.950 . S
H297 C305 0.949 . S
H298 C306 0.950 . S
H299 C307 0.951 . S
H300 C308 0.951 . S
C301 C295 1.265 . S
C301 H296 0.950 . S
C301 C302 1.478 1_554 S
C302 C301 1.478 1_556 S
C302 C303 1.397 . S
C302 C319 1.394 1_556 S
C303 C302 1.397 . S
C303 C304 1.438 . S
C303 C308 1.429 . S
C304 C303 1.438 . S
C304 C305 1.428 . S
C304 C317 1.394 . S
C305 H297 0.949 . S
C305 C304 1.428 . S
C305 C306 1.345 . S
C306 H298 0.950 . S
C306 C305 1.345 . S
C306 C307 1.424 . S
C307 H299 0.951 . S
C307 C306 1.424 . S
C307 C308 1.347 . S
C308 H300 0.951 . S
C308 C303 1.429 . S
C308 C307 1.347 . S
H309 C310 0.951 . S
C310 H309 0.951 . S
C310 C316 1.265 . S
H311 C316 0.950 . S
H312 C320 0.949 . S
H313 C321 0.950 . S
H314 C322 0.951 . S
H315 C323 0.951 1_556 S
C316 C310 1.265 . S
C316 H311 0.950 . S
C316 C317 1.478 . S
C317 C304 1.394 . S
C317 C316 1.478 . S
C317 C318 1.397 . S
C318 C317 1.397 . S
C318 C319 1.438 1_556 S
C318 C323 1.429 1_556 S
C319 C302 1.394 1_554 S
C319 C318 1.438 1_554 S
C319 C320 1.428 . S
C320 H312 0.949 . S
C320 C319 1.428 . S
C320 C321 1.345 . S
C321 H313 0.950 . S
C321 C320 1.345 . S
C321 C322 1.424 . S
C322 H314 0.951 . S
C322 C321 1.424 . S
C322 C323 1.347 . S
C323 H315 0.951 1_554 S
C323 C318 1.429 1_554 S
C323 C322 1.347 . S
H324 C325 0.951 . S
C325 H324 0.951 . S
C325 C331 1.265 . S
H326 C331 0.950 1_655 S
H327 C335 0.949 . S
H328 C336 0.950 . S
H329 C337 0.951 1_655 S
H330 C338 0.964 . S
C331 C325 1.265 . S
C331 H326 0.950 1_455 S
C331 C332 1.478 . S
C332 C331 1.478 . S
C332 C333 1.397 . S
C332 C349 1.394 . S
C333 C332 1.397 . S
C333 C334 1.438 . S
C333 C338 1.429 . S
C334 C333 1.438 . S
C334 C335 1.428 . S
C334 C347 1.394 . S
C335 H327 0.949 . S
C335 C334 1.428 . S
C335 C336 1.345 . S
C336 H328 0.950 . S
C336 C335 1.345 . S
C336 C337 1.424 . S
C337 H329 0.951 1_455 S
C337 C336 1.424 . S
C337 C338 1.347 . S
C338 H330 0.964 . S
C338 C333 1.429 . S
C338 C337 1.347 . S
H339 C340 0.951 . S
C340 H339 0.951 . S
C340 C346 1.265 . S
H341 C346 0.950 . S
H342 C350 0.949 . S
H343 C351 0.950 . S
H344 C352 0.951 . S
H345 C353 0.951 . S
C346 C340 1.265 . S
C346 H341 0.950 . S
C346 C347 1.478 . S
C347 C334 1.394 . S
C347 C346 1.478 . S
C347 C348 1.397 . S
C348 C347 1.397 . S
C348 C349 1.438 . S
C348 C353 1.429 . S
C349 C332 1.394 . S
C349 C348 1.438 . S
C349 C350 1.428 . S
C350 H342 0.949 . S
C350 C349 1.428 . S
C350 C351 1.345 . S
C351 H343 0.950 . S
C351 C350 1.345 . S
C351 C352 1.424 . S
C352 H344 0.951 . S
C352 C351 1.424 . S
C352 C353 1.347 . S
C353 H345 0.951 . S
C353 C348 1.429 . S
C353 C352 1.347 . S
H354 C355 0.951 . S
C355 H354 0.951 . S
C355 C361 1.265 . S
H356 C361 0.950 . S
H357 C365 0.949 . S
H358 C366 0.950 . S
H359 C367 0.951 . S
H360 C368 0.951 . S
C361 C355 1.265 . S
C361 H356 0.950 . S
C361 C362 1.478 . S
C362 C361 1.478 . S
C362 C363 1.397 . S
C362 C379 1.394 1_545 S
C363 C362 1.397 . S
C363 C364 1.438 . S
C363 C368 1.429 . S
C364 C363 1.438 . S
C364 C365 1.428 . S
C364 C377 1.394 . S
C365 H357 0.949 . S
C365 C364 1.428 . S
C365 C366 1.345 . S
C366 H358 0.950 . S
C366 C365 1.345 . S
C366 C367 1.424 . S
C367 H359 0.951 . S
C367 C366 1.424 . S
C367 C368 1.347 . S
C368 H360 0.951 . S
C368 C363 1.429 . S
C368 C367 1.347 . S
H369 C370 0.951 . S
C370 H369 0.951 . S
C370 C376 1.265 . S
H371 C376 0.950 . S
H372 C380 0.949 . S
H373 C381 0.950 . S
H374 C382 0.951 . S
H375 C383 0.951 . S
C376 C370 1.265 . S
C376 H371 0.950 . S
C376 C377 1.478 . S
C377 C364 1.394 . S
C377 C376 1.478 . S
C377 C378 1.397 1_545 S
C378 C377 1.397 1_565 S
C378 C379 1.438 . S
C378 C383 1.429 . S
C379 C362 1.394 1_565 S
C379 C378 1.438 . S
C379 C380 1.428 . S
C380 H372 0.949 . S
C380 C379 1.428 . S
C380 C381 1.345 . S
C381 H373 0.950 . S
C381 C380 1.345 . S
C381 C382 1.424 . S
C382 H374 0.951 . S
C382 C381 1.424 . S
C382 C383 1.347 . S
C383 H375 0.951 . S
C383 C378 1.429 . S
C383 C382 1.347 . S
H384 C385 0.951 . S
C385 H384 0.951 . S
C385 C391 1.265 . S
H386 C391 0.950 . S
H387 C395 0.949 . S
H388 C396 0.950 . S
H389 C397 0.951 . S
H390 C398 0.951 . S
C391 C385 1.265 . S
C391 H386 0.950 . S
C391 C392 1.478 1_554 S
C392 C391 1.478 1_556 S
C392 C393 1.397 1_556 S
C392 C409 1.394 . S
C393 C392 1.397 1_554 S
C393 C394 1.438 1_554 S
C393 C398 1.429 . S
C394 C393 1.438 1_556 S
C394 C395 1.428 . S
C394 C407 1.394 . S
C395 H387 0.949 . S
C395 C394 1.428 . S
C395 C396 1.345 1_556 S
C396 H388 0.950 . S
C396 C395 1.345 1_554 S
C396 C397 1.424 . S
C397 H389 0.951 . S
C397 C396 1.424 . S
C397 C398 1.347 . S
C398 H390 0.951 . S
C398 C393 1.429 . S
C398 C397 1.347 . S
H399 C400 0.951 . S
C400 H399 0.951 . S
C400 C406 1.265 . S
H401 C406 0.950 . S
H402 C410 0.949 . S
H403 C411 0.950 . S
H404 C412 0.951 . S
H405 C413 0.951 . S
C406 C400 1.265 . S
C406 H401 0.950 . S
C406 C407 1.478 . S
C407 C394 1.394 . S
C407 C406 1.478 . S
C407 C408 1.397 . S
C408 C407 1.397 . S
C408 C409 1.438 . S
C408 C413 1.429 . S
C409 C392 1.394 . S
C409 C408 1.438 . S
C409 C410 1.428 . S
C410 H402 0.949 . S
C410 C409 1.428 . S
C410 C411 1.345 . S
C411 H403 0.950 . S
C411 C410 1.345 . S
C411 C412 1.424 . S
C412 H404 0.951 . S
C412 C411 1.424 . S
C412 C413 1.347 . S
C413 H405 0.951 . S
C413 C408 1.429 . S
C413 C412 1.347 . S
H414 C415 0.951 . S
C415 H414 0.951 . S
C415 C421 1.265 . S
H416 C421 0.950 . S
H417 C425 0.949 . S
H418 C426 0.950 . S
H419 C427 0.951 . S
H420 C428 0.951 . S
C421 C415 1.265 . S
C421 H416 0.950 . S
C421 C422 1.478 . S
C422 C421 1.478 . S
C422 C423 1.397 . S
C422 C439 1.394 . S
C423 C422 1.397 . S
C423 C424 1.438 . S
C423 C428 1.429 . S
C424 C423 1.438 . S
C424 C425 1.428 . S
C424 C437 1.394 . S
C425 H417 0.949 . S
C425 C424 1.428 . S
C425 C426 1.345 . S
C426 H418 0.950 . S
C426 C425 1.345 . S
C426 C427 1.424 . S
C427 H419 0.951 . S
C427 C426 1.424 . S
C427 C428 1.347 . S
C428 H420 0.951 . S
C428 C423 1.429 . S
C428 C427 1.347 . S
H429 C430 0.951 . S
C430 H429 0.951 . S
C430 C436 1.265 . S
H431 C436 0.950 . S
H432 C440 0.949 . S
H433 C441 0.950 . S
H434 C442 0.951 . S
H435 C443 0.951 . S
C436 C430 1.265 . S
C436 H431 0.950 . S
C436 C437 1.478 . S
C437 C424 1.394 . S
C437 C436 1.478 . S
C437 C438 1.397 . S
C438 C437 1.397 . S
C438 C439 1.438 . S
C438 C443 1.429 . S
C439 C422 1.394 . S
C439 C438 1.438 . S
C439 C440 1.428 . S
C440 H432 0.949 . S
C440 C439 1.428 . S
C440 C441 1.345 . S
C441 H433 0.950 . S
C441 C440 1.345 . S
C441 C442 1.424 . S
C442 H434 0.951 . S
C442 C441 1.424 . S
C442 C443 1.347 . S
C443 H435 0.951 . S
C443 C438 1.429 . S
C443 C442 1.347 . S
C100 C43 1.313 . S
C85 C11 1.281 . S
C115 C25 1.390 . S
C130 C69 1.389 . S
C145 C41 1.299 . S
C160 C71 1.399 . S
C175 C7 1.352 . S
C190 C55 1.353 . S
C220 C57 1.409 . S
C205 C21 1.422 . S
C235 C36 1.355 . S
C250 C83 1.422 . S
C280 C56 1.369 . S
C265 C39 1.331 . S
C295 C8 1.329 1_655 S
C310 C82 1.414 . S
C340 C42 1.482 . S
C325 C22 1.392 1_565 S
C370 C68 1.419 . S
C355 C35 1.403 . S
C400 C70 1.397 . S
C385 C13 1.286 . S
C415 C27 1.437 . S
C430 C54 1.441 . S
