# Generated by pormake.
# Topology ocu, (6,8)-cn, num edge types: 1
# Building blocks:
#     Node 0, Type 0, BuildingBlock: PAMTOO_clean_sbu_0, # of connection points: 6
#     Node 1, Type 0, BuildingBlock: PAMTOO_clean_sbu_0, # of connection points: 6
#     Node 2, Type 0, BuildingBlock: PAMTOO_clean_sbu_0, # of connection points: 6
#     Node 3, Type 0, BuildingBlock: PAMTOO_clean_sbu_0, # of connection points: 6
#     Node 4, Type 0, BuildingBlock: PAMTOO_clean_sbu_0, # of connection points: 6
#     Node 5, Type 0, BuildingBlock: PAMTOO_clean_sbu_0, # of connection points: 6
#     Node 6, Type 0, BuildingBlock: PAMTOO_clean_sbu_0, # of connection points: 6
#     Node 7, Type 0, BuildingBlock: PAMTOO_clean_sbu_0, # of connection points: 6
#     Node 8, Type 1, BuildingBlock: VETTIZ_charged_sbu_0, # of connection points: 8
#     Node 9, Type 1, BuildingBlock: VETTIZ_charged_sbu_0, # of connection points: 8
#     Node 10, Type 1, BuildingBlock: VETTIZ_charged_sbu_0, # of connection points: 8
#     Node 11, Type 1, BuildingBlock: VETTIZ_charged_sbu_0, # of connection points: 8
#     Node 12, Type 1, BuildingBlock: VETTIZ_charged_sbu_0, # of connection points: 8
#     Node 13, Type 1, BuildingBlock: VETTIZ_charged_sbu_0, # of connection points: 8
#     Edge 14, Type (0, 1), BuildingBlock: AJUNOK_clean_linker_0, # of connection points: 2
#     Edge 15, Type (0, 1), BuildingBlock: AJUNOK_clean_linker_0, # of connection points: 2
#     Edge 16, Type (0, 1), BuildingBlock: AJUNOK_clean_linker_0, # of connection points: 2
#     Edge 17, Type (0, 1), BuildingBlock: AJUNOK_clean_linker_0, # of connection points: 2
#     Edge 18, Type (0, 1), BuildingBlock: AJUNOK_clean_linker_0, # of connection points: 2
#     Edge 19, Type (0, 1), BuildingBlock: AJUNOK_clean_linker_0, # of connection points: 2
#     Edge 20, Type (0, 1), BuildingBlock: AJUNOK_clean_linker_0, # of connection points: 2
#     Edge 21, Type (0, 1), BuildingBlock: AJUNOK_clean_linker_0, # of connection points: 2
#     Edge 22, Type (0, 1), BuildingBlock: AJUNOK_clean_linker_0, # of connection points: 2
#     Edge 23, Type (0, 1), BuildingBlock: AJUNOK_clean_linker_0, # of connection points: 2
#     Edge 24, Type (0, 1), BuildingBlock: AJUNOK_clean_linker_0, # of connection points: 2
#     Edge 25, Type (0, 1), BuildingBlock: AJUNOK_clean_linker_0, # of connection points: 2
#     Edge 26, Type (0, 1), BuildingBlock: AJUNOK_clean_linker_0, # of connection points: 2
#     Edge 27, Type (0, 1), BuildingBlock: AJUNOK_clean_linker_0, # of connection points: 2
#     Edge 28, Type (0, 1), BuildingBlock: AJUNOK_clean_linker_0, # of connection points: 2
#     Edge 29, Type (0, 1), BuildingBlock: AJUNOK_clean_linker_0, # of connection points: 2
#     Edge 30, Type (0, 1), BuildingBlock: AJUNOK_clean_linker_0, # of connection points: 2
#     Edge 31, Type (0, 1), BuildingBlock: AJUNOK_clean_linker_0, # of connection points: 2
#     Edge 32, Type (0, 1), BuildingBlock: AJUNOK_clean_linker_0, # of connection points: 2
#     Edge 33, Type (0, 1), BuildingBlock: AJUNOK_clean_linker_0, # of connection points: 2
#     Edge 34, Type (0, 1), BuildingBlock: AJUNOK_clean_linker_0, # of connection points: 2
#     Edge 35, Type (0, 1), BuildingBlock: AJUNOK_clean_linker_0, # of connection points: 2
#     Edge 36, Type (0, 1), BuildingBlock: AJUNOK_clean_linker_0, # of connection points: 2
#     Edge 37, Type (0, 1), BuildingBlock: AJUNOK_clean_linker_0, # of connection points: 2
#     Edge 38, Type (0, 1), BuildingBlock: AJUNOK_clean_linker_0, # of connection points: 2
#     Edge 39, Type (0, 1), BuildingBlock: AJUNOK_clean_linker_0, # of connection points: 2
#     Edge 40, Type (0, 1), BuildingBlock: AJUNOK_clean_linker_0, # of connection points: 2
#     Edge 41, Type (0, 1), BuildingBlock: AJUNOK_clean_linker_0, # of connection points: 2
#     Edge 42, Type (0, 1), BuildingBlock: AJUNOK_clean_linker_0, # of connection points: 2
#     Edge 43, Type (0, 1), BuildingBlock: AJUNOK_clean_linker_0, # of connection points: 2
#     Edge 44, Type (0, 1), BuildingBlock: AJUNOK_clean_linker_0, # of connection points: 2
#     Edge 45, Type (0, 1), BuildingBlock: AJUNOK_clean_linker_0, # of connection points: 2
#     Edge 46, Type (0, 1), BuildingBlock: AJUNOK_clean_linker_0, # of connection points: 2
#     Edge 47, Type (0, 1), BuildingBlock: AJUNOK_clean_linker_0, # of connection points: 2
#     Edge 48, Type (0, 1), BuildingBlock: AJUNOK_clean_linker_0, # of connection points: 2
#     Edge 49, Type (0, 1), BuildingBlock: AJUNOK_clean_linker_0, # of connection points: 2
#     Edge 50, Type (0, 1), BuildingBlock: AJUNOK_clean_linker_0, # of connection points: 2
#     Edge 51, Type (0, 1), BuildingBlock: AJUNOK_clean_linker_0, # of connection points: 2
#     Edge 52, Type (0, 1), BuildingBlock: AJUNOK_clean_linker_0, # of connection points: 2
#     Edge 53, Type (0, 1), BuildingBlock: AJUNOK_clean_linker_0, # of connection points: 2
#     Edge 54, Type (0, 1), BuildingBlock: AJUNOK_clean_linker_0, # of connection points: 2
#     Edge 55, Type (0, 1), BuildingBlock: AJUNOK_clean_linker_0, # of connection points: 2
#     Edge 56, Type (0, 1), BuildingBlock: AJUNOK_clean_linker_0, # of connection points: 2
#     Edge 57, Type (0, 1), BuildingBlock: AJUNOK_clean_linker_0, # of connection points: 2
#     Edge 58, Type (0, 1), BuildingBlock: AJUNOK_clean_linker_0, # of connection points: 2
#     Edge 59, Type (0, 1), BuildingBlock: AJUNOK_clean_linker_0, # of connection points: 2
#     Edge 60, Type (0, 1), BuildingBlock: AJUNOK_clean_linker_0, # of connection points: 2
#     Edge 61, Type (0, 1), BuildingBlock: AJUNOK_clean_linker_0, # of connection points: 2
# Relax obj value: 0.289
# Max RMSD: 0.274
# Mean RMSD: 0.145
data_MOF--net-ocu--node1-PAMTOO_clean_sbu_0--node2-VETTIZ_charged_sbu_0--edge1-AJUNOK_clean_linker_0
_symmetry_space_group_name_H-M    P1
_symmetry_Int_Tables_number       1
_symmetry_cell_setting            triclinic
loop_
_symmetry_equiv_pos_as_xyz
'x, y, z'
_cell_length_a     29.521495
_cell_length_b     31.583421
_cell_length_c     29.925159
_cell_angle_alpha  92.434845
_cell_angle_beta   93.698195
_cell_angle_gamma 98.627871
loop_
_atom_site_label
_atom_site_type_symbol
_atom_site_fract_x
_atom_site_fract_y
_atom_site_fract_z
_atom_type_partial_charge
Dy0 Dy 0.35675 0.33146 0.34123 0.0
Dy1 Dy 0.27462 0.30415 0.27452 0.0
C2 C 0.37176 0.26379 0.25322 0.0
O3 O 0.37053 0.38415 0.29158 0.0
O4 O 0.31503 0.35855 0.23656 0.0
O5 O 0.42848 0.33422 0.3621 0.0
O6 O 0.38428 0.36248 0.40513 0.0
O7 O 0.24166 0.34548 0.32871 0.0
O8 O 0.30635 0.37428 0.37073 0.0
O9 O 0.25069 0.26446 0.3322 0.0
O10 O 0.31744 0.27372 0.37552 0.0
O11 O 0.21171 0.31367 0.24036 0.0
O12 O 0.23721 0.25331 0.22917 0.0
C13 C 0.35214 0.38638 0.25042 0.0
O14 O 0.39065 0.29012 0.28799 0.0
O15 O 0.32635 0.2615 0.24549 0.0
C16 C 0.43894 0.32555 0.43853 0.0
C17 C 0.47925 0.27145 0.49497 0.0
C18 C 0.43944 0.25548 0.46771 0.0
C19 C 0.41965 0.28235 0.4395 0.0
C20 C 0.47538 0.34282 0.4693 0.0
C21 C 0.49547 0.31578 0.49768 0.0
C22 C 0.42412 0.35047 0.40197 0.0
C23 C 0.26095 0.37145 0.3637 0.0
C24 C 0.27376 0.25594 0.36876 0.0
C25 C 0.18883 0.27679 0.17178 0.0
C26 C 0.13474 0.32511 0.12392 0.0
C27 C 0.18259 0.33355 0.12162 0.0
C28 C 0.21007 0.3091 0.14597 0.0
C29 C 0.14219 0.2608 0.16218 0.0
C30 C 0.11473 0.28534 0.13804 0.0
C31 C 0.20538 0.27628 0.21866 0.0
H32 H 0.42681 0.2214 0.46405 0.0
H33 H 0.39189 0.26845 0.41563 0.0
H34 H 0.49033 0.37629 0.46907 0.0
H35 H 0.52631 0.32863 0.51843 0.0
H36 H 0.19854 0.36372 0.10963 0.0
H37 H 0.2464 0.3211 0.15214 0.0
H38 H 0.12553 0.23493 0.18084 0.0
H39 H 0.07776 0.27777 0.1389 0.0
Dy40 Dy 0.86341 0.31805 0.27088 0.0
Dy41 Dy 0.79253 0.32144 0.33942 0.0
C42 C 0.89157 0.37991 0.35759 0.0
O43 O 0.8936 0.28088 0.33038 0.0
O44 O 0.83026 0.26661 0.36924 0.0
O45 O 0.92331 0.29009 0.25358 0.0
O46 O 0.89415 0.3318 0.20884 0.0
O47 O 0.75073 0.27565 0.2856 0.0
O48 O 0.80994 0.26244 0.24447 0.0
O49 O 0.76707 0.36861 0.28711 0.0
O50 O 0.81468 0.36059 0.23198 0.0
O51 O 0.73959 0.30137 0.38386 0.0
O52 O 0.76938 0.36861 0.38313 0.0
C53 C 0.87355 0.26028 0.36379 0.0
O54 O 0.8926 0.37875 0.31375 0.0
O55 O 0.86052 0.35261 0.37447 0.0
C56 C 0.97373 0.34511 0.22358 0.0
C57 C 0.97032 0.42861 0.25004 0.0
C58 C 0.98683 0.40217 0.28151 0.0
C59 C 0.99041 0.36003 0.26762 0.0
C60 C 0.97557 0.37542 0.19075 0.0
C61 C 0.9696 0.41681 0.20415 0.0
C62 C 0.93047 0.31461 0.22013 0.0
C63 C 0.76604 0.25517 0.25153 0.0
C64 C 0.77879 0.37807 0.24578 0.0
C65 C 0.75742 0.33971 0.45287 0.0
C66 C 0.76579 0.29255 0.52714 0.0
C67 C 0.72953 0.31697 0.52335 0.0
C68 C 0.72359 0.33828 0.48374 0.0
C69 C 0.80069 0.32958 0.46692 0.0
C70 C 0.80556 0.3076 0.5059 0.0
C71 C 0.7448 0.33939 0.40464 0.0
H72 H 0.98981 0.41146 0.31694 0.0
H73 H 0.9946 0.33748 0.2933 0.0
H74 H 0.96684 0.36505 0.15584 0.0
H75 H 0.95716 0.43694 0.1792 0.0
H76 H 0.69984 0.3091 0.54259 0.0
H77 H 0.69053 0.34759 0.47455 0.0
H78 H 0.82834 0.33233 0.44488 0.0
H79 H 0.83628 0.293 0.51123 0.0
Dy80 Dy 0.77924 0.77244 0.37079 0.0
Dy81 Dy 0.82847 0.83508 0.2983 0.0
C82 C 0.8558 0.84993 0.40227 0.0
O83 O 0.7444 0.82973 0.37383 0.0
O84 O 0.76041 0.8568 0.30521 0.0
O85 O 0.77226 0.75319 0.43881 0.0
O86 O 0.7298 0.71756 0.3842 0.0
O87 O 0.79057 0.77698 0.2583 0.0
O88 O 0.73523 0.75919 0.30697 0.0
O89 O 0.87885 0.79173 0.31718 0.0
O90 O 0.82627 0.73593 0.33578 0.0
O91 O 0.84237 0.85025 0.23054 0.0
O92 O 0.87565 0.89201 0.28573 0.0
C93 C 0.73679 0.85468 0.34106 0.0
O94 O 0.84414 0.8086 0.40575 0.0
O95 O 0.84194 0.86829 0.36652 0.0
C96 C 0.76941 0.67886 0.43488 0.0
C97 C 0.84216 0.63207 0.44768 0.0
C98 C 0.82561 0.65259 0.48452 0.0
C99 C 0.78932 0.67581 0.47816 0.0
C100 C 0.78212 0.65363 0.39912 0.0
C101 C 0.81842 0.63049 0.40551 0.0
C102 C 0.74756 0.71662 0.42505 0.0
C103 C 0.751 0.7552 0.26732 0.0
C104 C 0.86673 0.75066 0.32234 0.0
C105 C 0.84723 0.92458 0.22221 0.0
C106 C 0.79599 0.98778 0.19426 0.0
C107 C 0.79156 0.94843 0.16975 0.0
C108 C 0.81714 0.91716 0.18339 0.0
C109 C 0.85445 0.96552 0.24451 0.0
C110 C 0.82862 0.99694 0.23073 0.0
C111 C 0.86507 0.88807 0.24265 0.0
H112 H 0.84334 0.65397 0.51752 0.0
H113 H 0.78027 0.69505 0.50611 0.0
H114 H 0.76729 0.65505 0.36525 0.0
H115 H 0.83001 0.61397 0.37693 0.0
H116 H 0.76647 0.94109 0.14135 0.0
H117 H 0.81121 0.88628 0.16504 0.0
H118 H 0.87787 0.97235 0.27419 0.0
H119 H 0.83239 1.02737 0.24976 0.0
Dy120 Dy 0.27298 0.87216 0.31231 0.0
Dy121 Dy 0.35213 0.81946 0.33158 0.0
C122 C 0.35966 0.91054 0.37751 0.0
O123 O 0.3241 0.90702 0.2675 0.0
O124 O 0.37545 0.85989 0.26997 0.0
O125 O 0.22429 0.91391 0.32787 0.0
O126 O 0.2239 0.88515 0.26039 0.0
O127 O 0.29408 0.76939 0.30326 0.0
O128 O 0.26417 0.81724 0.26191 0.0
O129 O 0.30212 0.78767 0.38039 0.0
O130 O 0.24356 0.82659 0.36828 0.0
O131 O 0.39007 0.76741 0.32123 0.0
O132 O 0.41612 0.81896 0.37075 0.0
C133 C 0.36146 0.89473 0.2528 0.0
O134 O 0.33133 0.92047 0.3455 0.0
O135 O 0.3577 0.87027 0.38621 0.0
C136 C 0.15352 0.89161 0.28843 0.0
C137 C 0.0796 0.88899 0.33907 0.0
C138 C 0.0999 0.85175 0.33427 0.0
C139 C 0.13875 0.85379 0.30985 0.0
C140 C 0.12328 0.92097 0.28087 0.0
C141 C 0.08417 0.91819 0.30484 0.0
C142 C 0.20248 0.90653 0.28806 0.0
C143 C 0.26314 0.77776 0.27309 0.0
C144 C 0.26036 0.79486 0.38931 0.0
C145 C 0.46933 0.78396 0.33422 0.0
C146 C 0.53396 0.76033 0.27815 0.0
C147 C 0.51848 0.80006 0.27363 0.0
C148 C 0.48517 0.81138 0.30103 0.0
C149 C 0.49188 0.74954 0.34472 0.0
C150 C 0.5242 0.73775 0.31688 0.0
C151 C 0.42379 0.78393 0.35007 0.0
H152 H 0.09421 0.82695 0.3581 0.0
H153 H 0.16106 0.82977 0.3143 0.0
H154 H 0.13334 0.94942 0.26268 0.0
H155 H 0.06589 0.94549 0.30504 0.0
H156 H 0.52755 0.81952 0.24568 0.0
H157 H 0.46855 0.8388 0.29332 0.0
H158 H 0.48043 0.72859 0.37087 0.0
H159 H 0.53611 0.70747 0.32243 0.0
Dy160 Dy 0.3543 0.81805 0.77822 0.0
Dy161 Dy 0.28856 0.83255 0.84941 0.0
C162 C 0.37969 0.89525 0.8453 0.0
O163 O 0.37451 0.76969 0.83143 0.0
O164 O 0.33485 0.78924 0.88952 0.0
O165 O 0.41014 0.83748 0.73779 0.0
O166 O 0.37521 0.77127 0.73214 0.0
O167 O 0.26195 0.76602 0.82046 0.0
O168 O 0.28639 0.78522 0.7537 0.0
O169 O 0.24972 0.85885 0.78858 0.0
O170 O 0.3097 0.86716 0.744 0.0
O171 O 0.22307 0.83393 0.87644 0.0
O172 O 0.28579 0.86747 0.91203 0.0
C173 C 0.36549 0.76557 0.87449 0.0
O174 O 0.39639 0.86231 0.8297 0.0
O175 O 0.33538 0.89379 0.84082 0.0
C176 C 0.40334 0.80178 0.66693 0.0
C177 C 0.4428 0.83514 0.59232 0.0
C178 C 0.40514 0.85208 0.60881 0.0
C179 C 0.38551 0.83539 0.64652 0.0
C180 C 0.43055 0.77763 0.64282 0.0
C181 C 0.4486 0.79346 0.60377 0.0
C182 C 0.40493 0.80016 0.71568 0.0
C183 C 0.26262 0.75785 0.77726 0.0
C184 C 0.26673 0.87452 0.75144 0.0
C185 C 0.22625 0.83771 0.95432 0.0
C186 C 0.1901 0.78333 1.0178 0.0
C187 C 0.16137 0.80657 0.99281 0.0
C188 C 0.17953 0.83392 0.96128 0.0
C189 C 0.25587 0.81849 0.9829 0.0
C190 C 0.2378 0.7918 1.01513 0.0
C191 C 0.24162 0.85547 0.91303 0.0
H192 H 0.39666 0.88267 0.59892 0.0
H193 H 0.36235 0.85305 0.6636 0.0
H194 H 0.44269 0.75004 0.65703 0.0
H195 H 0.47376 0.77716 0.5882 0.0
H196 H 0.12442 0.80064 0.99452 0.0
H197 H 0.15649 0.84896 0.9396 0.0
H198 H 0.29229 0.82146 0.97828 0.0
H199 H 0.26056 0.77507 1.03524 0.0
Dy200 Dy 0.3405 0.32589 0.78282 0.0
Dy201 Dy 0.26391 0.31682 0.85093 0.0
C202 C 0.2485 0.26222 0.759 0.0
O203 O 0.29678 0.37593 0.75591 0.0
O204 O 0.23927 0.36663 0.80406 0.0
O205 O 0.36043 0.31336 0.71624 0.0
O206 O 0.41198 0.34078 0.76809 0.0
O207 O 0.31571 0.37246 0.88316 0.0
O208 O 0.3635 0.38474 0.82624 0.0
O209 O 0.31081 0.27575 0.8858 0.0
O210 O 0.36107 0.27369 0.83143 0.0
O211 O 0.23805 0.31435 0.91647 0.0
O212 O 0.19119 0.30004 0.85743 0.0
C213 C 0.25648 0.38485 0.76826 0.0
O214 O 0.27834 0.29155 0.74372 0.0
O215 O 0.2478 0.25872 0.80244 0.0
C216 C 0.43286 0.29094 0.71519 0.0
C217 C 0.48824 0.23009 0.68991 0.0
C218 C 0.44078 0.21785 0.69224 0.0
C219 C 0.41338 0.2479 0.70514 0.0
C220 C 0.48025 0.30323 0.71304 0.0
C221 C 0.50777 0.27303 0.70057 0.0
C222 C 0.40411 0.32316 0.72766 0.0
C223 C 0.35169 0.39466 0.86631 0.0
C224 C 0.34731 0.26164 0.87144 0.0
C225 C 0.16651 0.33799 0.91839 0.0
C226 C 0.12144 0.4045 0.94789 0.0
C227 C 0.15628 0.39137 0.97555 0.0
C228 C 0.17846 0.35817 0.96106 0.0
C229 C 0.12951 0.34936 0.89182 0.0
C230 C 0.10701 0.38257 0.9066 0.0
C231 C 0.19527 0.30809 0.90067 0.0
H232 H 0.42464 0.18525 0.68316 0.0
H233 H 0.37687 0.23748 0.70671 0.0
H234 H 0.49593 0.33621 0.72085 0.0
H235 H 0.54433 0.28326 0.69916 0.0
H236 H 0.1667 0.40723 1.00823 0.0
H237 H 0.20607 0.34936 0.98265 0.0
H238 H 0.11895 0.33368 0.85911 0.0
H239 H 0.07939 0.39189 0.88543 0.0
Dy240 Dy 0.79696 0.3506 0.80269 0.0
Dy241 Dy 0.88009 0.30536 0.845 0.0
C242 C 0.84884 0.38952 0.89735 0.0
O243 O 0.85437 0.38135 0.76345 0.0
O244 O 0.90867 0.33978 0.78478 0.0
O245 O 0.75709 0.40037 0.78551 0.0
O246 O 0.73117 0.33393 0.76572 0.0
O247 O 0.83994 0.25512 0.79486 0.0
O248 O 0.81348 0.30384 0.7507 0.0
O249 O 0.82361 0.27411 0.8846 0.0
O250 O 0.76448 0.30361 0.85108 0.0
O251 O 0.91799 0.25359 0.86007 0.0
O252 O 0.94725 0.31904 0.88022 0.0
C253 C 0.8946 0.36895 0.75902 0.0
O254 O 0.82232 0.39648 0.86219 0.0
O255 O 0.87005 0.35568 0.89795 0.0
C256 C 0.68046 0.37426 0.79599 0.0
C257 C 0.60791 0.3876 0.84808 0.0
C258 C 0.64845 0.37621 0.86811 0.0
C259 C 0.68438 0.36995 0.84233 0.0
C260 C 0.63846 0.38047 0.77485 0.0
C261 C 0.60205 0.38685 0.80086 0.0
C262 C 0.72118 0.37247 0.77128 0.0
C263 C 0.81864 0.26416 0.75719 0.0
C264 C 0.77975 0.27758 0.87981 0.0
C265 C 0.99617 0.27405 0.852 0.0
C266 C 1.04597 0.24178 0.78577 0.0
C267 C 1.03021 0.28123 0.78086 0.0
C268 C 1.00576 0.29739 0.8141 0.0
C269 C 1.01923 0.23936 0.86082 0.0
C270 C 1.04544 0.22404 0.82819 0.0
C271 C 0.95497 0.27962 0.87503 0.0
H272 H 0.65502 0.37708 0.90417 0.0
H273 H 0.71649 0.3647 0.85913 0.0
H274 H 0.63467 0.38266 0.73882 0.0
H275 H 0.57102 0.39515 0.78447 0.0
H276 H 1.03107 0.29668 0.74923 0.0
H277 H 0.98972 0.32524 0.80774 0.0
H278 H 1.0133 0.22162 0.89063 0.0
H279 H 0.05996 0.19506 0.83394 0.0
Dy280 Dy 0.87194 0.83785 0.86066 0.0
Dy281 Dy 0.79494 0.81183 0.79059 0.0
C282 C 0.89435 0.76812 0.77414 0.0
O283 O 0.89993 0.87903 0.80558 0.0
O284 O 0.83797 0.8672 0.75568 0.0
O285 O 0.92674 0.82623 0.90728 0.0
O286 O 0.9139 0.89131 0.89753 0.0
O287 O 0.75652 0.85633 0.84003 0.0
O288 O 0.81759 0.88148 0.88808 0.0
O289 O 0.7717 0.76415 0.84268 0.0
O290 O 0.82775 0.78529 0.89813 0.0
O291 O 0.74083 0.8245 0.74331 0.0
O292 O 0.75432 0.75958 0.75031 0.0
C293 C 0.88022 0.88729 0.76715 0.0
O294 O 0.90972 0.79205 0.8123 0.0
O295 O 0.8502 0.77053 0.76154 0.0
C296 C 0.94132 0.87496 0.96896 0.0
C297 C 0.94005 0.85236 0.0576 0.0
C298 C 0.98187 0.85844 1.03656 0.0
C299 C 0.98224 0.86921 0.9921 0.0
C300 C 0.90253 0.87894 0.99262 0.0
C301 C 0.90259 0.86921 1.0377 0.0
C302 C 0.93717 0.8667 0.92056 0.0
C303 C 0.77273 0.88251 0.87657 0.0
C304 C 0.78911 0.7599 0.88356 0.0
C305 C 0.73979 0.78172 0.6779 0.0
C306 C 0.75825 0.81912 0.59766 0.0
C307 C 0.79384 0.80466 0.62301 0.0
C308 C 0.78462 0.78636 0.66361 0.0
C309 C 0.70323 0.7863 0.64734 0.0
C310 C 0.7125 0.80383 0.60628 0.0
C311 C 0.73379 0.7852 0.72599 0.0
H312 H 1.01258 0.848 0.05108 0.0
H313 H 1.01286 0.86737 0.97441 0.0
H314 H 0.87093 0.88499 0.97535 0.0
H315 H 0.87115 0.86886 0.05449 0.0
H316 H 0.82929 0.81532 0.61639 0.0
H317 H 0.81333 0.78215 0.68633 0.0
H318 H 0.66833 0.7821 0.65749 0.0
H319 H 0.68431 0.81375 0.58638 0.0
Fe320 Fe 0.0725 0.11241 0.5343 0.0
O321 O 1.02386 0.06654 0.55481 0.0
Fe322 Fe 0.1723 0.06486 0.56542 0.0
Fe323 Fe 0.96005 0.07086 0.56405 0.0
O324 O 0.10789 0.07046 0.56836 0.0
O325 O 0.10716 0.06419 0.58419 0.0
O326 O 1.02248 0.05946 0.5528 0.0
Fe327 Fe 0.05613 1.01322 0.58044 0.0
C328 C 1.02562 0.14822 0.61419 0.0
O329 O 1.02408 0.15153 0.50081 0.0
O330 O 0.95519 0.11076 0.50633 0.0
O331 O 0.07765 0.99942 0.52008 0.0
O332 O 0.15421 1.01537 0.51576 0.0
O333 O 0.1809 0.1114 0.51476 0.0
O334 O 0.12618 0.15299 0.50793 0.0
O335 O 0.9439 1.01181 0.52903 0.0
O336 O 0.99555 0.96912 0.5587 0.0
C337 C 0.16564 0.14418 0.49838 0.0
O338 O 0.10432 0.97271 0.61397 0.0
O339 O 0.17332 1.01675 0.61484 0.0
O340 O 0.062 0.14653 0.59247 0.0
O341 O 0.98567 0.12568 0.60413 0.0
C342 C 0.97948 0.14366 0.48968 0.0
C343 C 0.95861 0.97504 0.53385 0.0
C344 C 0.98296 1.01468 0.64734 0.0
O345 O 0.95714 1.0324 0.62008 0.0
O346 O 1.02688 1.01928 0.64322 0.0
C347 C 0.11378 0.99796 0.49998 0.0
O348 O 0.17943 0.11705 0.61075 0.0
O349 O 0.11131 0.14585 0.59503 0.0
C350 C 0.14893 0.98183 0.6273 0.0
C351 C 0.15144 0.14468 0.61793 0.0
Fe352 Fe 0.55865 0.98894 0.05882 0.0
O353 O 0.55991 0.04918 0.05493 0.0
Fe354 Fe 0.49401 0.08332 0.05461 0.0
Fe355 Fe 0.60722 0.08784 1.02424 0.0
O356 O 0.55112 0.0528 0.06946 0.0
O357 O 0.54702 0.12442 1.0334 0.0
O358 O 0.55603 0.12449 1.03807 0.0
Fe359 Fe 0.55875 0.18753 1.04419 0.0
C360 C 0.64362 0.04367 0.1095 0.0
O361 O 0.60889 0.9804 1.00709 0.0
O362 O 0.65451 0.04169 1.00017 0.0
O363 O 0.5002 0.18363 0.99933 0.0
O364 O 0.44903 0.1251 1.01895 0.0
O365 O 0.48718 0.04429 0.99474 0.0
O366 O 0.50592 0.97866 1.0101 0.0
O367 O 0.64901 0.13732 0.99607 0.0
O368 O 0.60617 0.19185 0.99333 0.0
C369 C 0.4869 1.00398 0.98513 0.0
O370 O 0.5127 0.19015 0.09724 0.0
O371 O 0.48737 0.12383 0.11612 0.0
O372 O 0.61503 1.00781 0.10396 0.0
O373 O 0.64236 0.0779 0.08612 0.0
C374 C 0.6461 0.99981 0.99091 0.0
C375 C 0.6418 0.17457 0.98353 0.0
C376 C 0.64153 0.16047 0.10428 0.0
O377 O 0.64249 0.12225 0.08492 0.0
O378 O 0.61384 0.18613 0.09098 0.0
C379 C 0.45955 0.16053 0.99601 0.0
O380 O 0.45339 1.03089 0.08909 0.0
O381 O 0.50749 0.98701 0.10675 0.0
C382 C 0.48811 0.16537 0.12251 0.0
C383 C 0.46769 0.99937 0.11198 0.0
Fe384 Fe 1.01589 0.62662 0.14595 0.0
O385 O 0.96362 0.59018 0.11027 0.0
Fe386 Fe 0.10233 0.56328 0.15311 0.0
Fe387 Fe 0.89863 0.59483 0.11436 0.0
O388 O 1.03837 0.57212 0.1605 0.0
O389 O 1.03782 0.56909 0.15777 0.0
O390 O 0.96275 0.58706 0.10838 0.0
Fe391 Fe 0.98616 0.53266 0.12125 0.0
C392 C 0.9415 0.63835 0.20501 0.0
O393 O 0.98616 0.67873 0.12726 0.0
O394 O 0.91873 0.65242 0.08456 0.0
O395 O 1.02026 0.53639 0.06413 0.0
O396 O 0.08963 0.52764 0.09333 0.0
O397 O 0.11847 0.61641 0.11798 0.0
O398 O 0.05096 0.62988 0.08955 0.0
O399 O 0.88719 0.55015 0.05776 0.0
O400 O 0.92953 0.49906 0.08203 0.0
C401 C 0.09436 0.63445 0.09031 0.0
O402 O 1.01706 0.48022 0.1375 0.0
O403 O 0.08243 0.50621 0.18241 0.0
O404 O 0.98085 0.62679 0.20269 0.0
O405 O 0.91075 0.6332 0.1725 0.0
C406 C 0.94968 0.68362 0.1026 0.0
C407 C 0.89927 0.51195 0.05436 0.0
C408 C 0.91313 0.53652 0.18659 0.0
O409 O 0.88441 0.544 0.15532 0.0
O410 O 0.95304 0.52952 0.17828 0.0
C411 C 0.05976 0.52602 0.06036 0.0
O412 O 0.11543 0.60647 0.20857 0.0
O413 O 0.07446 0.65863 0.18391 0.0
C414 C 0.05309 0.47514 0.16266 0.0
C415 C 0.10819 0.64617 0.20784 0.0
Fe416 Fe 0.56423 0.60342 0.96436 0.0
O417 O 0.57382 0.59906 1.03118 0.0
Fe418 Fe 0.51063 0.57382 0.06225 0.0
Fe419 Fe 0.62375 0.56685 0.06068 0.0
O420 O 0.56535 0.59928 1.02966 0.0
O421 O 0.56059 0.54159 0.09199 0.0
O422 O 0.56935 0.54148 0.09359 0.0
Fe423 Fe 0.5727 0.53856 0.15918 0.0
C424 C 0.59661 0.52051 0.97169 0.0
O425 O 0.62664 0.64456 0.97446 0.0
O426 O 0.67215 0.60436 1.01636 0.0
O427 O 0.53655 0.58836 0.17094 0.0
O428 O 0.52916 0.62366 0.10855 0.0
O429 O 0.46769 0.6169 1.02029 0.0
O430 O 0.51907 0.64862 0.97252 0.0
O431 O 0.6423 0.61756 0.10738 0.0
O432 O 0.63287 0.58211 0.16928 0.0
C433 C 0.47851 0.64486 0.988 0.0
O434 O 0.50924 0.49928 0.15138 0.0
O435 O 0.4627 0.53738 0.10794 0.0
O436 O 0.60408 0.55699 0.95529 0.0
O437 O 0.60479 0.51663 1.01346 0.0
C438 C 0.6667 0.636 0.98887 0.0
C439 C 0.64965 0.61512 0.14942 0.0
C440 C 0.65722 0.49592 0.1349 0.0
O441 O 0.66752 0.52422 0.10274 0.0
O442 O 0.61639 0.49169 0.15011 0.0
C443 C 0.53669 0.62304 0.15071 0.0
O444 O 0.49014 0.52368 1.01486 0.0
O445 O 0.50525 0.5576 0.95252 0.0
C446 C 0.46895 0.50747 0.13737 0.0
C447 C 0.48386 0.52653 0.97259 0.0
Fe448 Fe 0.08625 0.50709 0.57125 0.0
O449 O 0.06017 0.55376 0.60905 0.0
Fe450 Fe 0.1124 0.56668 0.47673 0.0
Fe451 Fe 0.05723 0.55625 0.67613 0.0
O452 O 0.1163 0.56122 0.54337 0.0
O453 O 0.11513 0.57064 0.54502 0.0
O454 O 0.06014 0.56187 0.61119 0.0
Fe455 Fe 0.08585 0.61622 0.5819 0.0
C456 C 1.0144 0.46594 0.63999 0.0
O457 O 0.1419 0.50495 0.62073 0.0
O458 O 0.10653 0.51254 0.68401 0.0
O459 O 0.12203 0.66564 0.53733 0.0
O460 O 0.1572 0.62543 0.4871 0.0
O461 O 0.16001 0.52173 0.47816 0.0
O462 O 0.12369 0.46939 0.52105 0.0
O463 O 0.10852 0.60645 0.69044 0.0
O464 O 0.14156 0.62743 0.6279 0.0
C465 C 0.15286 0.48161 0.48926 0.0
O466 O 1.02992 0.60507 0.53912 0.0
O467 O 0.05905 0.60327 0.47223 0.0
O468 O 1.04476 0.46047 0.61011 0.0
O469 O 1.00969 0.5023 0.65981 0.0
C470 C 0.13842 0.49799 0.66293 0.0
C471 C 0.14076 0.62739 0.67057 0.0
C472 C 1.01567 0.64533 0.6619 0.0
O473 O 1.01086 0.60546 0.6747 0.0
O474 O 1.04501 0.65585 0.62953 0.0
C475 C 0.15052 0.66249 0.50437 0.0
O476 O 0.06316 0.51229 0.46175 0.0
O477 O 1.02838 0.49906 0.52409 0.0
C478 C 1.02536 0.60381 0.49684 0.0
C479 C 1.02911 0.4942 0.48138 0.0
Fe480 Fe 0.61105 0.99223 0.51786 0.0
O481 O 0.63408 1.04027 0.57121 0.0
Fe482 Fe 0.62377 0.07169 0.43407 0.0
Fe483 Fe 0.6609 1.03973 0.63747 0.0
O484 O 0.63299 0.05057 0.49519 0.0
O485 O 0.6296 0.05629 0.495 0.0
O486 O 0.65629 0.0474 0.57372 0.0
Fe487 Fe 0.66473 0.10026 0.54118 0.0
C488 C 0.57807 0.98397 0.6072 0.0
O489 O 0.67335 0.9751 0.54459 0.0
O490 O 0.70044 0.99474 0.61738 0.0
O491 O 0.71905 0.0876 0.50889 0.0
O492 O 0.69157 0.10491 0.4421 0.0
O493 O 0.64761 1.01784 0.41008 0.0
O494 O 0.62418 0.96499 0.45651 0.0
O495 O 0.7172 0.08979 0.64015 0.0
O496 O 0.70203 0.13907 0.59161 0.0
C497 C 0.64106 0.97843 0.42018 0.0
O498 O 0.60479 0.12489 0.5379 0.0
O499 O 0.59817 0.12521 0.46098 0.0
O500 O 0.58498 1.0104 0.57705 0.0
O501 O 0.60664 0.98995 0.64094 0.0
C502 C 0.70231 0.97482 0.57892 0.0
C503 C 0.72204 0.12866 0.62786 0.0
C504 C 0.6014 0.11011 0.62222 0.0
O505 O 0.6197 0.08575 0.64937 0.0
O506 O 0.60969 0.11337 0.58001 0.0
C507 C 0.72202 0.11168 0.4758 0.0
O508 O 0.55703 1.03722 0.42655 0.0
O509 O 0.54712 1.00363 0.49126 0.0
C510 C 0.58821 0.13756 0.50052 0.0
C511 C 0.53198 1.01379 0.45251 0.0
C512 C 0.19933 0.22129 0.40229 0.0
C513 C 0.2481 0.22704 0.40285 0.0
C514 C 0.17374 0.19562 0.43308 0.0
C515 C 0.19472 0.17271 0.46628 0.0
H516 H 0.18029 0.23737 0.37786 0.0
H517 H 0.13668 0.19327 0.43023 0.0
S518 S 0.32147 0.17628 0.48403 0.0
N519 N 0.31607 0.20744 0.44162 0.0
N520 N 0.26878 0.15876 0.49759 0.0
C521 C 0.24352 0.17798 0.46728 0.0
C522 C 0.26973 0.20502 0.43644 0.0
C523 C 0.94927 0.2385 0.4082 0.0
C524 C 0.90066 0.23035 0.39575 0.0
C525 C 0.97395 0.2119 0.43733 0.0
C526 C 0.95302 0.17349 0.45669 0.0
H527 H 0.96904 0.26664 0.39567 0.0
H528 H 1.01045 0.22195 0.44467 0.0
S529 S 0.82782 0.13233 0.43138 0.0
N530 N 0.83422 0.17731 0.40475 0.0
N531 N 0.87858 0.12851 0.45604 0.0
C532 C 0.90465 0.1645 0.44334 0.0
C533 C 0.87952 0.19198 0.41443 0.0
C534 C 0.8621 0.91287 0.45619 0.0
C535 C 0.88064 0.87723 0.44033 0.0
C536 C 0.88644 0.94231 0.48873 0.0
C537 C 0.93109 0.93815 0.50629 0.0
H538 H 0.82869 0.9185 0.44269 0.0
H539 H 0.87046 0.96954 0.49895 0.0
S540 S 0.99455 0.84924 0.47602 0.0
N541 N 0.94517 0.83784 0.44549 0.0
N542 N 0.99199 0.89402 0.50575 0.0
C543 C 0.94936 0.90154 0.49181 0.0
C544 C 0.92396 0.87099 0.45897 0.0
C545 C 0.12597 0.91408 0.41013 0.0
C546 C 0.08333 0.90992 0.38447 0.0
C547 C 0.13692 0.94414 0.44629 0.0
C548 C 0.10569 0.97111 0.45806 0.0
H549 H 0.15228 0.89554 0.40091 0.0
H550 H 0.16969 0.94593 0.46533 0.0
S551 S 0.98916 0.97232 0.40259 0.0
N552 N 1.0095 0.9341 0.37445 0.0
N553 N 1.02993 0.99166 0.44164 0.0
C554 C 0.0626 0.9668 0.43317 0.0
C555 C 0.05136 0.9358 0.39683 0.0
C556 C 0.1881 0.90237 0.72218 0.0
C557 C 0.23627 0.9006 0.71841 0.0
C558 C 0.16001 0.92614 0.69317 0.0
C559 C 0.17722 0.95154 0.65754 0.0
H560 H 0.17127 0.88489 0.74839 0.0
H561 H 0.12427 0.92527 0.69978 0.0
S562 S 0.30024 0.95873 0.63008 0.0
N563 N 0.29808 0.92729 0.67283 0.0
N564 N 0.24813 0.97114 0.62117 0.0
C565 C 0.22527 0.94979 0.65341 0.0
C566 C 0.25349 0.92505 0.68238 0.0
C567 C 0.2047 0.18954 0.73263 0.0
C568 C 0.2166 0.23349 0.72601 0.0
C569 C 0.18086 0.1613 0.69824 0.0
C570 C 0.16693 0.17605 0.65639 0.0
H571 H 0.21615 0.17647 0.76352 0.0
H572 H 0.17481 0.1273 0.70379 0.0
S573 S 0.18488 0.28887 0.62403 0.0
N574 N 0.20902 0.29094 0.6756 0.0
N575 N 0.16425 0.23787 0.6116 0.0
C576 C 0.1761 0.22021 0.65044 0.0
C577 C 0.20086 0.24888 0.68509 0.0
C578 C 0.06804 0.23333 0.70659 0.0
C579 C 1.04902 0.21475 0.74455 0.0
C580 C 0.06 0.212 0.66411 0.0
C581 C 1.03281 0.17144 0.65825 0.0
H582 H 0.08766 0.26531 0.70943 0.0
H583 H 0.07406 0.22773 0.63551 0.0
S584 S 0.98032 0.10598 0.74685 0.0
N585 N 1.00462 0.15138 0.77328 0.0
N586 N 0.99145 0.11125 0.69393 0.0
C587 C 1.01604 0.1514 0.69605 0.0
C588 C 1.02393 0.17294 0.73913 0.0
C589 C 0.88522 0.94 0.70224 0.0
C590 C 0.90716 0.92006 0.7372 0.0
C591 C 0.90972 0.97061 0.67507 0.0
C592 C 0.95829 0.98364 0.68036 0.0
H593 H 0.84837 0.93235 0.69598 0.0
H594 H 0.8899 0.98382 0.6489 0.0
S595 S 1.03373 0.94156 0.76663 0.0
N596 N 0.98193 0.91665 0.77518 0.0
N597 N 1.02693 0.97265 0.72447 0.0
C598 C 0.98076 0.96391 0.71517 0.0
C599 C 0.95572 0.93295 0.74322 0.0
C600 C 0.44853 0.25141 0.21218 0.0
C601 C 0.40184 0.23676 0.22173 0.0
C602 C 0.47511 0.22866 0.18201 0.0
C603 C 0.45908 0.18756 0.15919 0.0
H604 H 0.46491 0.28206 0.22738 0.0
H605 H 0.50945 0.24406 0.17653 0.0
S606 S 0.33959 0.13208 0.17073 0.0
N607 N 0.34157 0.17629 0.20285 0.0
N608 N 0.39051 0.1342 0.15024 0.0
C609 C 0.41276 0.17208 0.16908 0.0
C610 C 0.38507 0.19597 0.19864 0.0
C611 C 0.89498 0.45298 0.24618 0.0
C612 C 0.94147 0.46035 0.26292 0.0
C613 C 0.87296 0.48735 0.23359 0.0
C614 C 0.89979 0.5275 0.23239 0.0
H615 H 0.87857 0.42088 0.23604 0.0
H616 H 0.84049 0.48062 0.21393 0.0
S617 S 1.00706 0.56532 0.30251 0.0
N618 N 1.00298 0.51248 0.2993 0.0
N619 N 0.95938 0.57636 0.2766 0.0
C620 C 0.93715 0.53627 0.26509 0.0
C621 C 0.96079 0.50202 0.27738 0.0
C622 C 0.71869 1.00656 0.20071 0.0
C623 C 0.76213 1.01608 0.18381 0.0
C624 C 0.6802 1.01989 0.17919 0.0
C625 C 0.68431 0.04337 0.14044 0.0
H626 H 0.71372 0.98512 0.22792 0.0
H627 H 0.64661 1.0087 0.19064 0.0
S628 S 0.79217 0.08142 0.08737 0.0
N629 N 0.80836 0.05411 0.12988 0.0
N630 N 0.73618 0.0799 0.08936 0.0
C631 C 0.72848 0.05707 0.12635 0.0
C632 C 0.76751 0.04309 0.14807 0.0
C633 C 0.22296 0.70104 0.26524 0.0
C634 C 0.22365 0.74442 0.25607 0.0
C635 C 0.18493 0.66962 0.25142 0.0
C636 C 0.1453 0.68052 0.22826 0.0
H637 H 0.25258 0.69085 0.28322 0.0
H638 H 0.18692 0.63691 0.2582 0.0
S639 S 0.12805 0.79056 0.19857 0.0
N640 N 0.18022 0.79676 0.22354 0.0
N641 N 0.1087 0.73888 0.19905 0.0
C642 C 0.14503 0.72416 0.22025 0.0
C643 C 0.18403 0.75584 0.23355 0.0
C644 C 0.45471 0.92463 0.88643 0.0
C645 C 0.40905 0.92946 0.87414 0.0
C646 C 0.48074 0.9511 0.92037 0.0
C647 C 0.46247 0.9839 0.94304 0.0
H648 H 0.4698 0.89864 0.8716 0.0
H649 H 0.51485 0.94455 0.93037 0.0
S650 S 0.34727 1.01434 0.9193 0.0
N651 N 0.3484 0.97286 0.88406 0.0
N652 N 0.3979 1.02287 0.94778 0.0
C653 C 0.41838 0.99157 0.92867 0.0
C654 C 0.39149 0.96424 0.89425 0.0
C655 C 0.12827 0.47981 0.97629 0.0
C656 C 0.10014 0.44069 0.96376 0.0
C657 C 0.11272 0.5103 1.00405 0.0
C658 C 0.06857 0.50254 1.01958 0.0
H659 H 0.1637 0.48525 0.96768 0.0
H660 H 0.13661 0.53843 1.01643 0.0
S661 S 0.98071 0.40686 0.99182 0.0
N662 N 1.02543 0.39714 0.96503 0.0
N663 N 0.99543 0.455 1.01697 0.0
C664 C 1.03858 0.46544 1.00351 0.0
C665 C 0.05465 0.43422 0.97552 0.0
C666 C 0.69949 0.25849 0.90661 0.0
C667 C 0.74554 0.25094 0.90696 0.0
C668 C 0.66651 0.2339 0.93109 0.0
C669 C 0.67747 0.19989 0.95684 0.0
H670 H 0.68858 0.28388 0.88733 0.0
H671 H 0.63192 0.24156 0.92948 0.0
S672 S 0.79316 0.16673 0.97028 0.0
N673 N 0.80016 0.20678 0.93644 0.0
N674 N 0.73868 0.16074 0.98168 0.0
C675 C 0.7234 0.19194 0.95754 0.0
C676 C 0.75713 0.21729 0.93297 0.0
C677 C 0.9705 0.80498 0.11247 0.0
C678 C 0.9324 0.81554 0.08715 0.0
C679 C 0.97569 0.76222 0.11736 0.0
C680 C 0.94151 0.72848 0.0997 0.0
H681 H 0.99921 0.82956 0.12349 0.0
H682 H 1.00776 0.75589 0.13341 0.0
S683 S 0.82471 0.74026 0.05475 0.0
N684 N 0.85285 0.7896 0.05976 0.0
N685 N 0.86167 0.70923 0.07199 0.0
C686 C 0.89934 0.73899 0.0833 0.0
C687 C 0.89456 0.78263 0.07715 0.0
C688 C 0.07648 0.37259 0.10592 0.0
C689 C 0.11148 0.3617 0.13477 0.0
C690 C 0.05516 0.40787 0.11702 0.0
C691 C 0.06825 0.43309 0.1573 0.0
H692 H 0.06645 0.35454 0.07433 0.0
H693 H 1.02972 0.41645 0.0928 0.0
S694 S 0.15268 0.41212 0.24737 0.0
N695 N 0.15441 0.37471 0.20755 0.0
N696 N 0.11421 0.44108 0.22828 0.0
C697 C 0.10103 0.42046 0.18765 0.0
C698 C 0.12272 0.38472 0.17637 0.0
C699 C 0.13148 0.74834 0.06525 0.0
C700 C 0.16917 0.74544 1.03962 0.0
C701 C 0.10589 0.71157 0.07979 0.0
C702 C 0.11784 0.67112 0.06966 0.0
H703 H 0.12124 0.77915 0.07335 0.0
H704 H 0.07726 0.71487 0.09992 0.0
S705 S 0.21349 0.64596 1.00456 0.0
N706 N 0.2168 0.69861 1.00423 0.0
N707 N 0.16968 0.62951 1.03439 0.0
C708 C 0.15599 0.66762 0.04533 0.0
C709 C 0.18159 0.7049 1.02965 0.0
C710 C 0.41176 0.21378 0.88927 0.0
C711 C 0.37308 0.232 0.90224 0.0
C712 C 0.43679 0.18875 0.91841 0.0
C713 C 0.42493 0.17879 0.96274 0.0
H714 H 0.42383 0.21973 0.85638 0.0
H715 H 0.46702 0.17784 0.9062 0.0
S716 S 0.3285 0.21969 1.01602 0.0
N717 N 0.32572 0.23823 0.96526 0.0
N718 N 0.37177 0.19201 1.01803 0.0
C719 C 0.38623 0.19646 0.9761 0.0
C720 C 0.36088 0.22238 0.94669 0.0
C721 C 0.85657 0.46504 0.9348 0.0
C722 C 0.85587 0.42042 0.93821 0.0
C723 C 0.86818 0.49443 0.9726 0.0
C724 C 0.87968 0.4806 1.01563 0.0
H725 H 0.84985 0.47761 0.90233 0.0
H726 H 0.87013 0.52839 0.9676 0.0
S727 S 0.8758 0.36659 1.04425 0.0
N728 N 0.86221 0.36385 0.98971 0.0
N729 N 0.88488 0.41817 0.0595 0.0
C730 C 0.87655 0.43583 1.01971 0.0
C731 C 0.86445 0.40611 0.98151 0.0
C732 C 0.69121 0.9051 0.90826 0.0
C733 C 0.74072 0.91344 0.90533 0.0
C734 C 0.66305 0.93142 0.93454 0.0
C735 C 0.6794 0.97129 0.96091 0.0
H736 H 0.67301 0.87653 0.89018 0.0
H737 H 0.62657 0.91985 0.93353 0.0
S738 S 0.80609 1.01224 0.96768 0.0
N739 N 0.80338 0.9681 0.93526 0.0
N740 N 0.75299 1.01589 0.97998 0.0
C741 C 0.7288 0.98045 0.95784 0.0
C742 C 0.75777 0.95287 0.93215 0.0
C743 C 0.87179 0.67682 0.29337 0.0
C744 C 0.89355 0.71944 0.30272 0.0
C745 C 0.89005 0.64902 0.26455 0.0
C746 C 0.9313 0.66235 0.24504 0.0
H747 H 0.83853 0.6656 0.30547 0.0
H748 H 0.87028 0.61778 0.25519 0.0
S749 S 1.00626 0.76738 0.26455 0.0
N750 N 0.96192 0.77158 0.29458 0.0
N751 N 0.99659 0.71839 0.24076 0.0
C752 C 0.95595 0.70307 0.25747 0.0
C753 C 0.93698 0.7319 0.28633 0.0
C754 C 0.42975 0.91283 0.20067 0.0
C755 C 0.38753 0.92157 0.21622 0.0
C756 C 0.45396 0.93762 0.16785 0.0
C757 C 0.43834 0.97346 0.14717 0.0
H758 H 0.44478 0.88643 0.2142 0.0
H759 H 0.48598 0.92811 0.15864 0.0
S760 S 0.32934 1.01123 0.17455 0.0
N761 N 0.33134 0.97022 0.20672 0.0
N762 N 0.37597 1.01535 0.14637 0.0
C763 C 0.396 0.9825 0.16222 0.0
C764 C 0.37126 0.95729 0.19591 0.0
C765 C 0.75036 0.20306 0.18193 0.0
C766 C 0.73339 0.22554 0.21785 0.0
C767 C 0.72089 0.17948 0.14693 0.0
C768 C 0.67273 0.17719 0.14572 0.0
H769 H 0.78706 0.20478 0.17984 0.0
H770 H 0.73619 0.165 0.11937 0.0
S771 S 0.60945 0.22678 0.2325 0.0
N772 N 0.66394 0.2409 0.25039 0.0
N773 N 0.60947 0.19758 0.18542 0.0
C774 C 0.65526 0.19799 0.18224 0.0
C775 C 0.68511 0.22168 0.21792 0.0
C776 C 0.75674 0.73356 0.95884 0.0
C777 C 0.76347 0.7256 0.91283 0.0
C778 C 0.72881 0.70347 0.98446 0.0
C779 C 0.7067 0.66266 0.96638 0.0
H780 H 0.77121 0.76449 0.9747 0.0
H781 H 0.72278 0.7132 1.01839 0.0
S782 S 0.71091 0.6254 0.84726 0.0
N783 N 0.74341 0.67296 0.85055 0.0
N784 N 0.69298 0.61762 0.89785 0.0
C785 C 0.7135 0.65438 0.92053 0.0
C786 C 0.74113 0.68511 0.89432 0.0
C787 C 0.42971 0.71549 0.89125 0.0
C788 C 0.39144 0.734 0.90568 0.0
C789 C 0.45493 0.68778 0.91761 0.0
C790 C 0.44505 0.67402 0.96175 0.0
H791 H 0.44128 0.72292 0.85848 0.0
H792 H 0.4835 0.67668 0.90222 0.0
S793 S 0.34751 0.71107 1.01842 0.0
N794 N 0.3452 0.73455 0.97012 0.0
N795 N 0.39076 0.68331 1.01769 0.0
C796 C 0.4062 0.69168 0.97681 0.0
C797 C 0.38055 0.72081 0.94989 0.0
C798 C 0.38493 0.43316 0.94067 0.0
C799 C 0.38258 0.43046 0.89334 0.0
C800 C 0.41776 0.46375 0.96605 0.0
C801 C 0.4496 0.49338 0.94535 0.0
H802 H 0.36205 0.41075 0.95838 0.0
H803 H 0.4181 0.46412 1.00227 0.0
S804 S 0.4572 0.50089 0.82222 0.0
N805 N 0.41475 0.46136 0.82699 0.0
N806 N 0.47555 0.51792 0.874 0.0
C807 C 0.44699 0.49133 0.89802 0.0
C808 C 0.41385 0.46028 0.87232 0.0
C809 C 0.57791 0.45495 0.86248 0.0
C810 C 0.58166 0.41353 0.87614 0.0
C811 C 0.57965 0.48892 0.89402 0.0
C812 C 0.58459 0.4826 0.94026 0.0
H813 H 0.57999 0.46267 0.82769 0.0
H814 H 0.58075 0.5208 0.88174 0.0
S815 S 0.57466 0.37732 0.99205 0.0
N816 N 0.57466 0.36564 0.9377 0.0
N817 N 0.57841 0.43003 0.99767 0.0
C818 C 0.57934 0.44028 0.95407 0.0
C819 C 0.57714 0.40548 0.92168 0.0
C820 C 0.70766 0.42093 0.22784 0.0
C821 C 0.75002 0.40856 0.21517 0.0
C822 C 0.68031 0.4477 0.2021 0.0
C823 C 0.69172 0.46675 0.16046 0.0
H824 H 0.69456 0.40932 0.25874 0.0
H825 H 0.64888 0.45383 0.2161 0.0
S826 S 0.79948 0.44735 0.1092 0.0
N827 N 0.80096 0.41924 0.1545 0.0
N828 N 0.75232 0.46969 0.10917 0.0
C829 C 0.73447 0.45526 0.14728 0.0
C830 C 0.76211 0.42677 0.17318 0.0
C831 C 0.70889 0.68116 0.25217 0.0
C832 C 0.72667 0.72063 0.2354 0.0
C833 C 0.68578 0.64726 0.22383 0.0
C834 C 0.67801 0.65142 0.1773 0.0
H835 H 0.71327 0.67617 0.2877 0.0
H836 H 0.673 0.6177 0.23903 0.0
S837 S 0.71822 0.74878 0.11652 0.0
N838 N 0.7365 0.76205 0.16933 0.0
N839 N 0.69118 0.69895 0.1158 0.0
C840 C 0.69614 0.69084 0.15991 0.0
C841 C 0.72083 0.72522 0.18896 0.0
C842 C 0.57588 0.70494 0.2458 0.0
C843 C 0.54684 0.73586 0.23865 0.0
C844 C 0.57257 0.66871 0.21673 0.0
C845 C 0.54279 0.66364 0.17777 0.0
H846 H 0.59778 0.70641 0.2765 0.0
H847 H 0.59194 0.64353 0.2259 0.0
S848 S 0.46757 0.73993 0.1374 0.0
N849 N 0.49163 0.76164 0.18597 0.0
N850 N 0.48947 0.69538 0.12929 0.0
C851 C 0.51837 0.69697 0.1668 0.0
C852 C 0.51991 0.73302 0.19747 0.0
C853 C 0.41005 0.45413 0.23774 0.0
C854 C 0.37567 0.42052 0.21949 0.0
C855 C 0.43617 0.48367 0.21085 0.0
C856 C 0.43032 0.48255 0.16326 0.0
H857 H 0.41811 0.45717 0.27366 0.0
H858 H 0.46313 0.50697 0.22785 0.0
S859 S 0.34496 0.40161 0.09658 0.0
N860 N 0.33696 0.3891 0.14891 0.0
N861 N 0.38613 0.44358 0.09923 0.0
C862 C 0.39527 0.44984 0.14423 0.0
C863 C 0.3682 0.41953 0.17184 0.0
C864 C 0.91096 0.69435 0.72661 0.0
C865 C 0.92626 0.73787 0.74485 0.0
C866 C 0.9385 0.6669 0.70125 0.0
C867 C 0.98498 0.67913 0.68784 0.0
H868 H 0.87644 0.6801 0.73291 0.0
H869 H 0.92204 0.63458 0.6915 0.0
S870 S 1.04554 0.78994 0.72346 0.0
N871 N 0.99543 0.79034 0.74505 0.0
N872 N 1.04349 0.74225 0.69771 0.0
C873 C 1.00058 0.72298 0.70502 0.0
C874 C 0.97303 0.75053 0.73242 0.0
C875 C 0.47569 0.90469 0.56239 0.0
C876 C 0.48334 0.86658 0.58229 0.0
C877 C 0.50719 0.94233 0.57019 0.0
C878 C 0.54842 0.94285 0.59636 0.0
H879 H 0.44324 0.90651 0.54406 0.0
H880 H 0.498 0.9718 0.55761 0.0
S881 S 0.59222 0.84987 0.645 0.0
N882 N 0.54029 0.83051 0.62268 0.0
N883 N 0.60011 0.90118 0.63448 0.0
C884 C 0.55953 0.90422 0.61157 0.0
C885 C 0.52713 0.8659 0.60459 0.0
C886 C 0.18963 0.43063 0.7578 0.0
C887 C 0.22853 0.41529 0.74095 0.0
C888 C 0.1623 0.4572 0.73321 0.0
C889 C 0.17087 0.47055 0.68918 0.0
H890 H 0.17975 0.42192 0.7908 0.0
H891 H 0.1333 0.4669 0.74911 0.0
S892 S 0.26738 0.43911 0.6272 0.0
N893 N 0.27313 0.41623 0.67546 0.0
N894 N 0.22249 0.46444 0.63005 0.0
C895 C 0.20954 0.45526 0.67169 0.0
C896 C 0.23778 0.42849 0.69702 0.0
C897 C 0.80336 0.18668 0.72501 0.0
C898 C 0.79742 0.23001 0.72198 0.0
C899 C 0.78021 0.15428 0.69389 0.0
C900 C 0.74999 0.16363 0.6583 0.0
H901 H 0.82544 0.17754 0.75205 0.0
H902 H 0.78556 0.12147 0.69826 0.0
S903 S 0.72057 0.27159 0.63616 0.0
N904 N 0.75816 0.27999 0.67995 0.0
N905 N 0.71461 0.21975 0.62317 0.0
C906 C 0.74407 0.20686 0.6548 0.0
C907 C 0.76772 0.23974 0.68607 0.0
C908 C 0.95482 0.3931 0.42164 0.0
C909 C 0.92629 0.40963 0.38893 0.0
C910 C 0.98647 0.42024 0.45237 0.0
C911 C 0.991 0.46548 0.45253 0.0
H912 H 0.95308 0.35869 0.42316 0.0
H913 H 1.00834 0.4056 0.4756 0.0
S914 S 0.91953 0.52517 0.37887 0.0
N915 N 0.90148 0.47446 0.36266 0.0
N916 N 0.96133 0.52484 0.41824 0.0
C917 C 0.96189 0.48218 0.42062 0.0
C918 C 0.9295 0.4546 0.38966 0.0
C919 C 0.72035 0.92932 0.34602 0.0
C920 C 0.70494 0.88531 0.34859 0.0
C921 C 0.69728 0.95973 0.36656 0.0
C922 C 0.6582 0.94689 0.39024 0.0
H923 H 0.7525 0.94024 0.33155 0.0
H924 H 0.71222 0.99323 0.36674 0.0
S925 S 0.59854 0.83549 0.39678 0.0
N926 N 0.64437 0.83042 0.36931 0.0
N927 N 0.60062 0.88748 0.40774 0.0
C928 C 0.63976 0.90309 0.38853 0.0
C929 C 0.66326 0.87226 0.36763 0.0
C930 C 0.1855 0.76553 0.43231 0.0
C931 C 0.23231 0.76455 0.42271 0.0
C932 C 0.16 0.73549 0.46077 0.0
C933 C 0.17913 0.70193 0.48235 0.0
H934 H 0.16762 0.7892 0.41668 0.0
H935 H 0.12412 0.73762 0.46421 0.0
S936 S 0.30017 0.68439 0.47116 0.0
N937 N 0.29585 0.72585 0.44029 0.0
N938 N 0.24952 0.67157 0.49138 0.0
C939 C 0.22591 0.70136 0.47359 0.0
C940 C 0.2517 0.73165 0.445 0.0
C941 C 0.55348 0.24589 0.48987 0.0
C942 C 0.51019 0.24094 0.50776 0.0
C943 C 0.57844 0.21191 0.4877 0.0
C944 C 0.56126 0.17227 0.50396 0.0
H945 H 0.56668 0.27512 0.47427 0.0
H946 H 0.61087 0.21637 0.47225 0.0
S947 S 0.45297 0.14419 0.55914 0.0
N948 N 0.45321 0.19446 0.54574 0.0
N949 N 0.50109 0.13031 0.54209 0.0
C950 C 0.5197 0.16745 0.52462 0.0
C951 C 0.49395 0.202 0.52658 0.0
C952 C 0.77562 0.89559 0.61911 0.0
C953 C 0.76636 0.86363 0.58411 0.0
C954 C 0.76006 0.9349 0.61519 0.0
C955 C 0.73483 0.94342 0.57602 0.0
H956 H 0.78883 0.88794 0.65191 0.0
H957 H 0.76329 0.95635 0.64483 0.0
S958 S 0.71936 0.87655 0.4694 0.0
N959 N 0.7428 0.84701 0.5058 0.0
N960 N 0.71502 0.92207 0.49685 0.0
C961 C 0.73368 0.91497 0.53801 0.0
C962 C 0.74901 0.87457 0.54249 0.0
C963 C 0.71613 0.22948 0.48947 0.0
C964 C 0.75247 0.24531 0.52151 0.0
C965 C 0.70863 0.18714 0.47337 0.0
C966 C 0.73627 0.15764 0.48908 0.0
H967 H 0.6942 0.25029 0.4744 0.0
H968 H 0.68009 0.1777 0.44864 0.0
S969 S 0.83523 0.18156 0.57398 0.0
N970 N 0.81672 0.22807 0.56855 0.0
N971 N 0.80082 0.14658 0.53978 0.0
C972 C 0.77218 0.17233 0.52199 0.0
C973 C 0.78062 0.21638 0.53782 0.0
C974 C 0.8967 0.59264 0.48876 0.0
C975 C 0.8874 0.61777 0.45286 0.0
C976 C 0.94151 0.58659 0.50088 0.0
C977 C 0.97869 0.60545 0.47753 0.0
H978 H 0.8694 0.57925 0.50892 0.0
H979 H 0.94726 0.56813 0.52987 0.0
S980 S 0.97185 0.66994 0.37768 0.0
N981 N 0.91824 0.65881 0.39154 0.0
N982 N 1.00296 0.64657 0.41423 0.0
C983 C 0.96962 0.62795 0.43948 0.0
C984 C 0.92375 0.63435 0.42716 0.0
C985 C 0.4246 0.92932 0.43637 0.0
C986 C 0.39885 0.94201 0.39942 0.0
C987 C 0.46631 0.95354 0.45345 0.0
C988 C 0.48459 0.99239 0.4354 0.0
H989 H 0.4136 0.89915 0.45127 0.0
H990 H 0.48575 0.94011 0.47951 0.0
S991 S 0.43047 0.04129 0.33886 0.0
N992 N 0.39455 0.99689 0.34533 0.0
N993 N 0.47261 0.043 0.37836 0.0
C994 C 0.45867 1.00638 0.39912 0.0
C995 C 0.4159 0.98131 0.38123 0.0
C996 C 0.2522 0.43593 0.42273 0.0
C997 C 0.23199 0.39802 0.39635 0.0
C998 C 0.2274 0.46071 0.45239 0.0
C999 C 0.17989 0.44957 0.46102 0.0
H1000 H 0.28821 0.44763 0.41981 0.0
H1001 H 0.24634 0.48972 0.46904 0.0
S1002 S 0.10768 0.35351 0.40201 0.0
N1003 N 0.15843 0.35178 0.38222 0.0
N1004 N 0.11399 0.39589 0.43752 0.0
C1005 C 0.15917 0.41136 0.43537 0.0
C1006 C 0.18417 0.38669 0.40395 0.0
C1007 C 0.54761 0.20994 0.64103 0.0
C1008 C 0.51705 0.19871 0.67417 0.0
C1009 C 0.57465 0.18091 0.62471 0.0
C1010 C 0.57178 0.13931 0.64041 0.0
H1011 H 0.5503 0.24128 0.62714 0.0
H1012 H 0.59826 0.19137 0.59971 0.0
S1013 S 0.49874 0.09462 0.7285 0.0
N1014 N 0.48692 0.14379 0.72373 0.0
N1015 N 0.53711 0.08863 0.69186 0.0
C1016 C 0.5419 0.12774 0.67397 0.0
C1017 C 0.51446 0.15749 0.69091 0.0
C1018 C 0.97256 0.38714 0.7257 0.0
C1019 C 0.92458 0.38756 0.72295 0.0
C1020 C 1.00156 0.40773 0.69451 0.0
C1021 C 0.98408 0.42925 0.65841 0.0
H1022 H 0.98849 0.37305 0.75367 0.0
H1023 H 1.0384 0.40974 0.70088 0.0
S1024 S 0.86086 0.43596 0.63201 0.0
N1025 N 0.86092 0.40843 0.67772 0.0
N1026 N 0.9151 0.44698 0.62016 0.0
C1027 C 0.93601 0.4276 0.65365 0.0
C1028 C 0.9065 0.40693 0.68544 0.0
C1029 C 0.19504 0.69983 0.76963 0.0
C1030 C 0.23543 0.72011 0.75302 0.0
C1031 C 0.16554 0.66847 0.74317 0.0
C1032 C 0.17553 0.65641 0.69924 0.0
H1033 H 0.18504 0.70964 0.80223 0.0
H1034 H 0.13366 0.65504 0.75669 0.0
S1035 S 0.28121 0.69511 0.64346 0.0
N1036 N 0.28712 0.72228 0.69235 0.0
N1037 N 0.23121 0.66362 0.64268 0.0
C1038 C 0.2173 0.67451 0.6835 0.0
C1039 C 0.24742 0.70626 0.71044 0.0
loop_
_geom_bond_atom_site_label_1
_geom_bond_atom_site_label_2
_geom_bond_distance
_geom_bond_site_symmetry_2
_ccdc_geom_bond_type
Dy0 O3 2.307 . S
Dy0 O5 2.395 . S
Dy0 O6 2.379 . S
Dy0 O8 2.339 . S
Dy0 O10 2.298 . S
Dy0 O14 2.275 . S
Dy0 C22 2.738 . S
Dy1 O4 2.298 . S
Dy1 O7 2.275 . S
Dy1 O9 2.307 . S
Dy1 O11 2.395 . S
Dy1 O12 2.379 . S
Dy1 O15 2.339 . S
Dy1 C31 2.738 . S
C2 O14 1.254 . S
C2 O15 1.257 . S
O3 Dy0 2.307 . S
O3 C13 1.266 . S
O4 Dy1 2.298 . S
O4 C13 1.236 . S
O5 Dy0 2.395 . S
O5 C22 1.255 . S
O6 Dy0 2.379 . S
O6 C22 1.249 . S
O7 Dy1 2.275 . S
O7 C23 1.254 . S
O8 Dy0 2.339 . S
O8 C23 1.257 . S
O9 Dy1 2.307 . S
O9 C24 1.266 . S
O10 Dy0 2.298 . S
O10 C24 1.236 . S
O11 Dy1 2.395 . S
O11 C31 1.255 . S
O12 Dy1 2.379 . S
O12 C31 1.249 . S
C13 O3 1.266 . S
C13 O4 1.236 . S
O14 Dy0 2.275 . S
O14 C2 1.254 . S
O15 Dy1 2.339 . S
O15 C2 1.257 . S
C16 C19 1.344 . S
C16 C20 1.328 . S
C16 C22 1.516 . S
C17 C18 1.304 . S
C17 C21 1.323 . S
C18 C17 1.304 . S
C18 C19 1.371 . S
C18 H32 0.930 . S
C19 C16 1.344 . S
C19 C18 1.371 . S
C19 H33 0.931 . S
C20 C16 1.328 . S
C20 C21 1.433 . S
C20 H34 0.931 . S
C21 C17 1.323 . S
C21 C20 1.433 . S
C21 H35 0.933 . S
C22 Dy0 2.738 . S
C22 O5 1.255 . S
C22 O6 1.249 . S
C22 C16 1.516 . S
C23 O7 1.254 . S
C23 O8 1.257 . S
C24 O9 1.266 . S
C24 O10 1.236 . S
C25 C28 1.344 . S
C25 C29 1.328 . S
C25 C31 1.516 . S
C26 C27 1.304 . S
C26 C30 1.323 . S
C27 C26 1.304 . S
C27 C28 1.371 . S
C27 H36 0.930 . S
C28 C25 1.344 . S
C28 C27 1.371 . S
C28 H37 0.931 . S
C29 C25 1.328 . S
C29 C30 1.433 . S
C29 H38 0.931 . S
C30 C26 1.323 . S
C30 C29 1.433 . S
C30 H39 0.933 . S
C31 Dy1 2.738 . S
C31 O11 1.255 . S
C31 O12 1.249 . S
C31 C25 1.516 . S
H32 C18 0.930 . S
H33 C19 0.931 . S
H34 C20 0.931 . S
H35 C21 0.933 . S
H36 C27 0.930 . S
H37 C28 0.931 . S
H38 C29 0.931 . S
H39 C30 0.933 . S
Dy40 O43 2.307 . S
Dy40 O45 2.395 . S
Dy40 O46 2.379 . S
Dy40 O48 2.339 . S
Dy40 O50 2.298 . S
Dy40 O54 2.275 . S
Dy40 C62 2.738 . S
Dy41 O44 2.298 . S
Dy41 O47 2.275 . S
Dy41 O49 2.307 . S
Dy41 O51 2.395 . S
Dy41 O52 2.379 . S
Dy41 O55 2.339 . S
Dy41 C71 2.738 . S
C42 O54 1.254 . S
C42 O55 1.257 . S
O43 Dy40 2.307 . S
O43 C53 1.266 . S
O44 Dy41 2.298 . S
O44 C53 1.236 . S
O45 Dy40 2.395 . S
O45 C62 1.255 . S
O46 Dy40 2.379 . S
O46 C62 1.249 . S
O47 Dy41 2.275 . S
O47 C63 1.254 . S
O48 Dy40 2.339 . S
O48 C63 1.257 . S
O49 Dy41 2.307 . S
O49 C64 1.266 . S
O50 Dy40 2.298 . S
O50 C64 1.236 . S
O51 Dy41 2.395 . S
O51 C71 1.255 . S
O52 Dy41 2.379 . S
O52 C71 1.249 . S
C53 O43 1.266 . S
C53 O44 1.236 . S
O54 Dy40 2.275 . S
O54 C42 1.254 . S
O55 Dy41 2.339 . S
O55 C42 1.257 . S
C56 C59 1.344 . S
C56 C60 1.328 . S
C56 C62 1.516 . S
C57 C58 1.304 . S
C57 C61 1.323 . S
C58 C57 1.304 . S
C58 C59 1.371 . S
C58 H72 0.930 . S
C59 C56 1.344 . S
C59 C58 1.371 . S
C59 H73 0.931 . S
C60 C56 1.328 . S
C60 C61 1.433 . S
C60 H74 0.931 . S
C61 C57 1.323 . S
C61 C60 1.433 . S
C61 H75 0.933 . S
C62 Dy40 2.738 . S
C62 O45 1.255 . S
C62 O46 1.249 . S
C62 C56 1.516 . S
C63 O47 1.254 . S
C63 O48 1.257 . S
C64 O49 1.266 . S
C64 O50 1.236 . S
C65 C68 1.344 . S
C65 C69 1.328 . S
C65 C71 1.516 . S
C66 C67 1.304 . S
C66 C70 1.323 . S
C67 C66 1.304 . S
C67 C68 1.371 . S
C67 H76 0.930 . S
C68 C65 1.344 . S
C68 C67 1.371 . S
C68 H77 0.931 . S
C69 C65 1.328 . S
C69 C70 1.433 . S
C69 H78 0.931 . S
C70 C66 1.323 . S
C70 C69 1.433 . S
C70 H79 0.933 . S
C71 Dy41 2.738 . S
C71 O51 1.255 . S
C71 O52 1.249 . S
C71 C65 1.516 . S
H72 C58 0.930 . S
H73 C59 0.931 . S
H74 C60 0.931 . S
H75 C61 0.933 . S
H76 C67 0.930 . S
H77 C68 0.931 . S
H78 C69 0.931 . S
H79 C70 0.933 . S
Dy80 O83 2.307 . S
Dy80 O85 2.395 . S
Dy80 O86 2.379 . S
Dy80 O88 2.339 . S
Dy80 O90 2.298 . S
Dy80 O94 2.275 . S
Dy80 C102 2.738 . S
Dy81 O84 2.298 . S
Dy81 O87 2.275 . S
Dy81 O89 2.307 . S
Dy81 O91 2.395 . S
Dy81 O92 2.379 . S
Dy81 O95 2.339 . S
Dy81 C111 2.738 . S
C82 O94 1.254 . S
C82 O95 1.257 . S
O83 Dy80 2.307 . S
O83 C93 1.266 . S
O84 Dy81 2.298 . S
O84 C93 1.236 . S
O85 Dy80 2.395 . S
O85 C102 1.255 . S
O86 Dy80 2.379 . S
O86 C102 1.249 . S
O87 Dy81 2.275 . S
O87 C103 1.254 . S
O88 Dy80 2.339 . S
O88 C103 1.257 . S
O89 Dy81 2.307 . S
O89 C104 1.266 . S
O90 Dy80 2.298 . S
O90 C104 1.236 . S
O91 Dy81 2.395 . S
O91 C111 1.255 . S
O92 Dy81 2.379 . S
O92 C111 1.249 . S
C93 O83 1.266 . S
C93 O84 1.236 . S
O94 Dy80 2.275 . S
O94 C82 1.254 . S
O95 Dy81 2.339 . S
O95 C82 1.257 . S
C96 C99 1.344 . S
C96 C100 1.328 . S
C96 C102 1.516 . S
C97 C98 1.304 . S
C97 C101 1.323 . S
C98 C97 1.304 . S
C98 C99 1.371 . S
C98 H112 0.930 . S
C99 C96 1.344 . S
C99 C98 1.371 . S
C99 H113 0.931 . S
C100 C96 1.328 . S
C100 C101 1.433 . S
C100 H114 0.931 . S
C101 C97 1.323 . S
C101 C100 1.433 . S
C101 H115 0.933 . S
C102 Dy80 2.738 . S
C102 O85 1.255 . S
C102 O86 1.249 . S
C102 C96 1.516 . S
C103 O87 1.254 . S
C103 O88 1.257 . S
C104 O89 1.266 . S
C104 O90 1.236 . S
C105 C108 1.344 . S
C105 C109 1.328 . S
C105 C111 1.516 . S
C106 C107 1.304 . S
C106 C110 1.323 . S
C107 C106 1.304 . S
C107 C108 1.371 . S
C107 H116 0.930 . S
C108 C105 1.344 . S
C108 C107 1.371 . S
C108 H117 0.931 . S
C109 C105 1.328 . S
C109 C110 1.433 . S
C109 H118 0.931 . S
C110 C106 1.323 . S
C110 C109 1.433 . S
C110 H119 0.933 . S
C111 Dy81 2.738 . S
C111 O91 1.255 . S
C111 O92 1.249 . S
C111 C105 1.516 . S
H112 C98 0.930 . S
H113 C99 0.931 . S
H114 C100 0.931 . S
H115 C101 0.933 . S
H116 C107 0.930 . S
H117 C108 0.931 . S
H118 C109 0.931 . S
H119 C110 0.933 . S
Dy120 O123 2.307 . S
Dy120 O125 2.395 . S
Dy120 O126 2.379 . S
Dy120 O128 2.339 . S
Dy120 O130 2.298 . S
Dy120 O134 2.275 . S
Dy120 C142 2.738 . S
Dy121 O124 2.298 . S
Dy121 O127 2.275 . S
Dy121 O129 2.307 . S
Dy121 O131 2.395 . S
Dy121 O132 2.379 . S
Dy121 O135 2.339 . S
Dy121 C151 2.738 . S
C122 O134 1.254 . S
C122 O135 1.257 . S
O123 Dy120 2.307 . S
O123 C133 1.266 . S
O124 Dy121 2.298 . S
O124 C133 1.236 . S
O125 Dy120 2.395 . S
O125 C142 1.255 . S
O126 Dy120 2.379 . S
O126 C142 1.249 . S
O127 Dy121 2.275 . S
O127 C143 1.254 . S
O128 Dy120 2.339 . S
O128 C143 1.257 . S
O129 Dy121 2.307 . S
O129 C144 1.266 . S
O130 Dy120 2.298 . S
O130 C144 1.236 . S
O131 Dy121 2.395 . S
O131 C151 1.255 . S
O132 Dy121 2.379 . S
O132 C151 1.249 . S
C133 O123 1.266 . S
C133 O124 1.236 . S
O134 Dy120 2.275 . S
O134 C122 1.254 . S
O135 Dy121 2.339 . S
O135 C122 1.257 . S
C136 C139 1.344 . S
C136 C140 1.328 . S
C136 C142 1.516 . S
C137 C138 1.304 . S
C137 C141 1.323 . S
C138 C137 1.304 . S
C138 C139 1.371 . S
C138 H152 0.930 . S
C139 C136 1.344 . S
C139 C138 1.371 . S
C139 H153 0.931 . S
C140 C136 1.328 . S
C140 C141 1.433 . S
C140 H154 0.931 . S
C141 C137 1.323 . S
C141 C140 1.433 . S
C141 H155 0.933 . S
C142 Dy120 2.738 . S
C142 O125 1.255 . S
C142 O126 1.249 . S
C142 C136 1.516 . S
C143 O127 1.254 . S
C143 O128 1.257 . S
C144 O129 1.266 . S
C144 O130 1.236 . S
C145 C148 1.344 . S
C145 C149 1.328 . S
C145 C151 1.516 . S
C146 C147 1.304 . S
C146 C150 1.323 . S
C147 C146 1.304 . S
C147 C148 1.371 . S
C147 H156 0.930 . S
C148 C145 1.344 . S
C148 C147 1.371 . S
C148 H157 0.931 . S
C149 C145 1.328 . S
C149 C150 1.433 . S
C149 H158 0.931 . S
C150 C146 1.323 . S
C150 C149 1.433 . S
C150 H159 0.933 . S
C151 Dy121 2.738 . S
C151 O131 1.255 . S
C151 O132 1.249 . S
C151 C145 1.516 . S
H152 C138 0.930 . S
H153 C139 0.931 . S
H154 C140 0.931 . S
H155 C141 0.933 . S
H156 C147 0.930 . S
H157 C148 0.931 . S
H158 C149 0.931 . S
H159 C150 0.933 . S
Dy160 O163 2.307 . S
Dy160 O165 2.395 . S
Dy160 O166 2.379 . S
Dy160 O168 2.339 . S
Dy160 O170 2.298 . S
Dy160 O174 2.275 . S
Dy160 C182 2.738 . S
Dy161 O164 2.298 . S
Dy161 O167 2.275 . S
Dy161 O169 2.307 . S
Dy161 O171 2.395 . S
Dy161 O172 2.379 . S
Dy161 O175 2.339 . S
Dy161 C191 2.738 . S
C162 O174 1.254 . S
C162 O175 1.257 . S
O163 Dy160 2.307 . S
O163 C173 1.266 . S
O164 Dy161 2.298 . S
O164 C173 1.236 . S
O165 Dy160 2.395 . S
O165 C182 1.255 . S
O166 Dy160 2.379 . S
O166 C182 1.249 . S
O167 Dy161 2.275 . S
O167 C183 1.254 . S
O168 Dy160 2.339 . S
O168 C183 1.257 . S
O169 Dy161 2.307 . S
O169 C184 1.266 . S
O170 Dy160 2.298 . S
O170 C184 1.236 . S
O171 Dy161 2.395 . S
O171 C191 1.255 . S
O172 Dy161 2.379 . S
O172 C191 1.249 . S
C173 O163 1.266 . S
C173 O164 1.236 . S
O174 Dy160 2.275 . S
O174 C162 1.254 . S
O175 Dy161 2.339 . S
O175 C162 1.257 . S
C176 C179 1.344 . S
C176 C180 1.328 . S
C176 C182 1.516 . S
C177 C178 1.304 . S
C177 C181 1.323 . S
C178 C177 1.304 . S
C178 C179 1.371 . S
C178 H192 0.930 . S
C179 C176 1.344 . S
C179 C178 1.371 . S
C179 H193 0.931 . S
C180 C176 1.328 . S
C180 C181 1.433 . S
C180 H194 0.931 . S
C181 C177 1.323 . S
C181 C180 1.433 . S
C181 H195 0.933 . S
C182 Dy160 2.738 . S
C182 O165 1.255 . S
C182 O166 1.249 . S
C182 C176 1.516 . S
C183 O167 1.254 . S
C183 O168 1.257 . S
C184 O169 1.266 . S
C184 O170 1.236 . S
C185 C188 1.344 . S
C185 C189 1.328 . S
C185 C191 1.516 . S
C186 C187 1.304 . S
C186 C190 1.323 . S
C187 C186 1.304 . S
C187 C188 1.371 . S
C187 H196 0.930 . S
C188 C185 1.344 . S
C188 C187 1.371 . S
C188 H197 0.931 . S
C189 C185 1.328 . S
C189 C190 1.433 . S
C189 H198 0.931 . S
C190 C186 1.323 . S
C190 C189 1.433 . S
C190 H199 0.933 . S
C191 Dy161 2.738 . S
C191 O171 1.255 . S
C191 O172 1.249 . S
C191 C185 1.516 . S
H192 C178 0.930 . S
H193 C179 0.931 . S
H194 C180 0.931 . S
H195 C181 0.933 . S
H196 C187 0.930 . S
H197 C188 0.931 . S
H198 C189 0.931 . S
H199 C190 0.933 . S
Dy200 O203 2.307 . S
Dy200 O205 2.395 . S
Dy200 O206 2.379 . S
Dy200 O208 2.339 . S
Dy200 O210 2.298 . S
Dy200 O214 2.275 . S
Dy200 C222 2.738 . S
Dy201 O204 2.298 . S
Dy201 O207 2.275 . S
Dy201 O209 2.307 . S
Dy201 O211 2.395 . S
Dy201 O212 2.379 . S
Dy201 O215 2.339 . S
Dy201 C231 2.738 . S
C202 O214 1.254 . S
C202 O215 1.257 . S
O203 Dy200 2.307 . S
O203 C213 1.266 . S
O204 Dy201 2.298 . S
O204 C213 1.236 . S
O205 Dy200 2.395 . S
O205 C222 1.255 . S
O206 Dy200 2.379 . S
O206 C222 1.249 . S
O207 Dy201 2.275 . S
O207 C223 1.254 . S
O208 Dy200 2.339 . S
O208 C223 1.257 . S
O209 Dy201 2.307 . S
O209 C224 1.266 . S
O210 Dy200 2.298 . S
O210 C224 1.236 . S
O211 Dy201 2.395 . S
O211 C231 1.255 . S
O212 Dy201 2.379 . S
O212 C231 1.249 . S
C213 O203 1.266 . S
C213 O204 1.236 . S
O214 Dy200 2.275 . S
O214 C202 1.254 . S
O215 Dy201 2.339 . S
O215 C202 1.257 . S
C216 C219 1.344 . S
C216 C220 1.328 . S
C216 C222 1.516 . S
C217 C218 1.304 . S
C217 C221 1.323 . S
C218 C217 1.304 . S
C218 C219 1.371 . S
C218 H232 0.930 . S
C219 C216 1.344 . S
C219 C218 1.371 . S
C219 H233 0.931 . S
C220 C216 1.328 . S
C220 C221 1.433 . S
C220 H234 0.931 . S
C221 C217 1.323 . S
C221 C220 1.433 . S
C221 H235 0.933 . S
C222 Dy200 2.738 . S
C222 O205 1.255 . S
C222 O206 1.249 . S
C222 C216 1.516 . S
C223 O207 1.254 . S
C223 O208 1.257 . S
C224 O209 1.266 . S
C224 O210 1.236 . S
C225 C228 1.344 . S
C225 C229 1.328 . S
C225 C231 1.516 . S
C226 C227 1.304 . S
C226 C230 1.323 . S
C227 C226 1.304 . S
C227 C228 1.371 . S
C227 H236 0.930 . S
C228 C225 1.344 . S
C228 C227 1.371 . S
C228 H237 0.931 . S
C229 C225 1.328 . S
C229 C230 1.433 . S
C229 H238 0.931 . S
C230 C226 1.323 . S
C230 C229 1.433 . S
C230 H239 0.933 . S
C231 Dy201 2.738 . S
C231 O211 1.255 . S
C231 O212 1.249 . S
C231 C225 1.516 . S
H232 C218 0.930 . S
H233 C219 0.931 . S
H234 C220 0.931 . S
H235 C221 0.933 . S
H236 C227 0.930 . S
H237 C228 0.931 . S
H238 C229 0.931 . S
H239 C230 0.933 . S
Dy240 O243 2.307 . S
Dy240 O245 2.395 . S
Dy240 O246 2.379 . S
Dy240 O248 2.339 . S
Dy240 O250 2.298 . S
Dy240 O254 2.275 . S
Dy240 C262 2.738 . S
Dy241 O244 2.298 . S
Dy241 O247 2.275 . S
Dy241 O249 2.307 . S
Dy241 O251 2.395 . S
Dy241 O252 2.379 . S
Dy241 O255 2.339 . S
Dy241 C271 2.738 . S
C242 O254 1.254 . S
C242 O255 1.257 . S
O243 Dy240 2.307 . S
O243 C253 1.266 . S
O244 Dy241 2.298 . S
O244 C253 1.236 . S
O245 Dy240 2.395 . S
O245 C262 1.255 . S
O246 Dy240 2.379 . S
O246 C262 1.249 . S
O247 Dy241 2.275 . S
O247 C263 1.254 . S
O248 Dy240 2.339 . S
O248 C263 1.257 . S
O249 Dy241 2.307 . S
O249 C264 1.266 . S
O250 Dy240 2.298 . S
O250 C264 1.236 . S
O251 Dy241 2.395 . S
O251 C271 1.255 . S
O252 Dy241 2.379 . S
O252 C271 1.249 . S
C253 O243 1.266 . S
C253 O244 1.236 . S
O254 Dy240 2.275 . S
O254 C242 1.254 . S
O255 Dy241 2.339 . S
O255 C242 1.257 . S
C256 C259 1.344 . S
C256 C260 1.328 . S
C256 C262 1.516 . S
C257 C258 1.304 . S
C257 C261 1.323 . S
C258 C257 1.304 . S
C258 C259 1.371 . S
C258 H272 0.930 . S
C259 C256 1.344 . S
C259 C258 1.371 . S
C259 H273 0.931 . S
C260 C256 1.328 . S
C260 C261 1.433 . S
C260 H274 0.931 . S
C261 C257 1.323 . S
C261 C260 1.433 . S
C261 H275 0.933 . S
C262 Dy240 2.738 . S
C262 O245 1.255 . S
C262 O246 1.249 . S
C262 C256 1.516 . S
C263 O247 1.254 . S
C263 O248 1.257 . S
C264 O249 1.266 . S
C264 O250 1.236 . S
C265 C268 1.344 . S
C265 C269 1.328 . S
C265 C271 1.516 . S
C266 C267 1.304 . S
C266 C270 1.323 . S
C267 C266 1.304 . S
C267 C268 1.371 . S
C267 H276 0.930 . S
C268 C265 1.344 . S
C268 C267 1.371 . S
C268 H277 0.931 . S
C269 C265 1.328 . S
C269 C270 1.433 . S
C269 H278 0.931 . S
C270 C266 1.323 . S
C270 C269 1.433 . S
C270 H279 0.933 . S
C271 Dy241 2.738 . S
C271 O251 1.255 . S
C271 O252 1.249 . S
C271 C265 1.516 . S
H272 C258 0.930 . S
H273 C259 0.931 . S
H274 C260 0.931 . S
H275 C261 0.933 . S
H276 C267 0.930 . S
H277 C268 0.931 . S
H278 C269 0.931 . S
H279 C270 0.933 . S
Dy280 O283 2.307 . S
Dy280 O285 2.395 . S
Dy280 O286 2.379 . S
Dy280 O288 2.339 . S
Dy280 O290 2.298 . S
Dy280 O294 2.275 . S
Dy280 C302 2.738 . S
Dy281 O284 2.298 . S
Dy281 O287 2.275 . S
Dy281 O289 2.307 . S
Dy281 O291 2.395 . S
Dy281 O292 2.379 . S
Dy281 O295 2.339 . S
Dy281 C311 2.738 . S
C282 O294 1.254 . S
C282 O295 1.257 . S
O283 Dy280 2.307 . S
O283 C293 1.266 . S
O284 Dy281 2.298 . S
O284 C293 1.236 . S
O285 Dy280 2.395 . S
O285 C302 1.255 . S
O286 Dy280 2.379 . S
O286 C302 1.249 . S
O287 Dy281 2.275 . S
O287 C303 1.254 . S
O288 Dy280 2.339 . S
O288 C303 1.257 . S
O289 Dy281 2.307 . S
O289 C304 1.266 . S
O290 Dy280 2.298 . S
O290 C304 1.236 . S
O291 Dy281 2.395 . S
O291 C311 1.255 . S
O292 Dy281 2.379 . S
O292 C311 1.249 . S
C293 O283 1.266 . S
C293 O284 1.236 . S
O294 Dy280 2.275 . S
O294 C282 1.254 . S
O295 Dy281 2.339 . S
O295 C282 1.257 . S
C296 C299 1.344 . S
C296 C300 1.328 . S
C296 C302 1.516 . S
C297 C298 1.304 . S
C297 C301 1.323 . S
C298 C297 1.304 . S
C298 C299 1.371 . S
C298 H312 0.930 . S
C299 C296 1.344 . S
C299 C298 1.371 . S
C299 H313 0.931 . S
C300 C296 1.328 . S
C300 C301 1.433 . S
C300 H314 0.931 . S
C301 C297 1.323 . S
C301 C300 1.433 . S
C301 H315 0.933 1_556 S
C302 Dy280 2.738 . S
C302 O285 1.255 . S
C302 O286 1.249 . S
C302 C296 1.516 . S
C303 O287 1.254 . S
C303 O288 1.257 . S
C304 O289 1.266 . S
C304 O290 1.236 . S
C305 C308 1.344 . S
C305 C309 1.328 . S
C305 C311 1.516 . S
C306 C307 1.304 . S
C306 C310 1.323 . S
C307 C306 1.304 . S
C307 C308 1.371 . S
C307 H316 0.930 . S
C308 C305 1.344 . S
C308 C307 1.371 . S
C308 H317 0.931 . S
C309 C305 1.328 . S
C309 C310 1.433 . S
C309 H318 0.931 . S
C310 C306 1.323 . S
C310 C309 1.433 . S
C310 H319 0.933 . S
C311 Dy281 2.738 . S
C311 O291 1.255 . S
C311 O292 1.249 . S
C311 C305 1.516 . S
H312 C298 0.930 . S
H313 C299 0.931 . S
H314 C300 0.931 . S
H315 C301 0.933 1_554 S
H316 C307 0.930 . S
H317 C308 0.931 . S
H318 C309 0.931 . S
H319 C310 0.933 . S
Fe320 O321 1.886 1_455 S
Fe320 O324 1.715 . S
Fe320 O329 2.077 1_455 S
Fe320 O334 1.935 . S
Fe320 O340 2.077 1_455 S
Fe320 O349 1.935 . S
O321 Fe320 1.886 1_655 S
O321 Fe323 1.715 . S
Fe322 O324 1.886 . S
Fe322 O325 1.715 1_545 S
Fe322 O332 1.935 . S
Fe322 O333 2.077 . S
Fe322 O339 1.935 . S
Fe322 O348 2.077 . S
Fe323 O321 1.715 . S
Fe323 O326 1.886 1_545 S
Fe323 O330 1.935 . S
Fe323 O335 2.077 1_545 S
Fe323 O341 1.935 . S
Fe323 O345 2.077 1_545 S
O324 Fe320 1.715 . S
O324 Fe322 1.886 . S
O325 Fe322 1.715 1_565 S
O325 Fe327 1.886 . S
O326 Fe323 1.886 1_565 S
O326 Fe327 1.715 1_655 S
Fe327 O325 1.886 . S
Fe327 O326 1.715 1_455 S
Fe327 O331 2.077 . S
Fe327 O336 1.935 1_455 S
Fe327 O338 2.077 . S
Fe327 O346 1.935 1_455 S
C328 O340 1.381 . S
C328 O341 1.421 . S
O329 Fe320 2.077 1_655 S
O329 C342 1.381 . S
O330 Fe323 1.935 . S
O330 C342 1.421 . S
O331 Fe327 2.077 . S
O331 C347 1.381 . S
O332 Fe322 1.935 . S
O332 C347 1.421 1_545 S
O333 Fe322 2.077 . S
O333 C337 1.381 . S
O334 Fe320 1.935 . S
O334 C337 1.421 . S
O335 Fe323 2.077 1_565 S
O335 C343 1.381 . S
O336 Fe327 1.935 1_655 S
O336 C343 1.421 . S
C337 O333 1.381 . S
C337 O334 1.421 . S
O338 Fe327 2.077 . S
O338 C350 1.381 . S
O339 Fe322 1.935 . S
O339 C350 1.421 1_545 S
O340 Fe320 2.077 1_655 S
O340 C328 1.381 . S
O341 Fe323 1.935 . S
O341 C328 1.421 . S
C342 O329 1.381 . S
C342 O330 1.421 . S
C343 O335 1.381 . S
C343 O336 1.421 . S
C344 O345 1.381 . S
C344 O346 1.421 . S
O345 Fe323 2.077 1_565 S
O345 C344 1.381 . S
O346 Fe327 1.935 1_655 S
O346 C344 1.421 . S
C347 O331 1.381 . S
C347 O332 1.421 1_565 S
O348 Fe322 2.077 . S
O348 C351 1.381 . S
O349 Fe320 1.935 . S
O349 C351 1.421 . S
C350 O338 1.381 . S
C350 O339 1.421 1_565 S
C351 O348 1.381 . S
C351 O349 1.421 . S
Fe352 O353 1.886 1_566 S
Fe352 O356 1.715 . S
Fe352 O361 2.077 . S
Fe352 O366 1.935 . S
Fe352 O372 2.077 1_556 S
Fe352 O381 1.935 1_556 S
O353 Fe352 1.886 1_544 S
O353 Fe355 1.715 . S
Fe354 O356 1.886 1_545 S
Fe354 O357 1.718 1_556 S
Fe354 O364 1.935 . S
Fe354 O365 2.077 1_545 S
Fe354 O371 1.935 1_556 S
Fe354 O380 2.077 1_546 S
Fe355 O353 1.715 . S
Fe355 O358 1.886 . S
Fe355 O362 1.935 1_554 S
Fe355 O367 2.077 1_554 S
Fe355 O373 1.935 . S
Fe355 O377 2.077 . S
O356 Fe352 1.715 . S
O356 Fe354 1.886 1_565 S
O357 Fe354 1.718 1_554 S
O357 Fe359 1.883 . S
O358 Fe355 1.886 . S
O358 Fe359 1.715 . S
Fe359 O357 1.883 . S
Fe359 O358 1.715 . S
Fe359 O363 2.077 1_554 S
Fe359 O368 1.935 1_554 S
Fe359 O370 2.077 . S
Fe359 O378 1.935 . S
C360 O372 1.381 . S
C360 O373 1.421 1_565 S
O361 Fe352 2.077 . S
O361 C374 1.381 . S
O362 Fe355 1.935 1_556 S
O362 C374 1.421 1_545 S
O363 Fe359 2.077 1_556 S
O363 C379 1.381 . S
O364 Fe354 1.935 . S
O364 C379 1.421 . S
O365 Fe354 2.077 1_565 S
O365 C369 1.381 . S
O366 Fe352 1.935 . S
O366 C369 1.421 . S
O367 Fe355 2.077 1_556 S
O367 C375 1.381 . S
O368 Fe359 1.935 1_556 S
O368 C375 1.421 . S
C369 O365 1.381 . S
C369 O366 1.421 . S
O370 Fe359 2.077 . S
O370 C382 1.381 . S
O371 Fe354 1.935 1_554 S
O371 C382 1.421 . S
O372 Fe352 2.077 1_554 S
O372 C360 1.381 . S
O373 Fe355 1.935 . S
O373 C360 1.421 1_545 S
C374 O361 1.381 . S
C374 O362 1.421 1_565 S
C375 O367 1.381 . S
C375 O368 1.421 . S
C376 O377 1.381 . S
C376 O378 1.421 . S
O377 Fe355 2.077 . S
O377 C376 1.381 . S
O378 Fe359 1.935 . S
O378 C376 1.421 . S
C379 O363 1.381 . S
C379 O364 1.421 . S
O380 Fe354 2.077 1_564 S
O380 C383 1.381 . S
O381 Fe352 1.935 1_554 S
O381 C383 1.421 . S
C382 O370 1.381 . S
C382 O371 1.421 . S
C383 O380 1.381 . S
C383 O381 1.421 . S
Fe384 O385 1.886 1_455 S
Fe384 O388 1.715 . S
Fe384 O393 2.077 1_455 S
Fe384 O398 1.935 . S
Fe384 O404 2.077 1_455 S
Fe384 O413 1.935 . S
O385 Fe384 1.886 1_655 S
O385 Fe387 1.715 . S
Fe386 O388 1.886 . S
Fe386 O389 1.715 . S
Fe386 O396 1.935 . S
Fe386 O397 2.077 . S
Fe386 O403 1.935 . S
Fe386 O412 2.077 . S
Fe387 O385 1.715 . S
Fe387 O390 1.886 . S
Fe387 O394 1.935 . S
Fe387 O399 2.077 . S
Fe387 O405 1.935 . S
Fe387 O409 2.077 . S
O388 Fe384 1.715 . S
O388 Fe386 1.886 . S
O389 Fe386 1.715 . S
O389 Fe391 1.886 1_455 S
O390 Fe387 1.886 . S
O390 Fe391 1.715 . S
Fe391 O389 1.886 1_655 S
Fe391 O390 1.715 . S
Fe391 O395 2.077 1_655 S
Fe391 O400 1.935 . S
Fe391 O402 2.077 1_655 S
Fe391 O410 1.935 . S
C392 O404 1.381 . S
C392 O405 1.421 . S
O393 Fe384 2.077 1_655 S
O393 C406 1.386 . S
O394 Fe387 1.935 . S
O394 C406 1.426 . S
O395 Fe391 2.077 1_455 S
O395 C411 1.390 . S
O396 Fe386 1.935 . S
O396 C411 1.424 . S
O397 Fe386 2.077 . S
O397 C401 1.381 . S
O398 Fe384 1.935 . S
O398 C401 1.421 . S
O399 Fe387 2.077 . S
O399 C407 1.381 1_554 S
O400 Fe391 1.935 . S
O400 C407 1.421 1_554 S
C401 O397 1.381 . S
C401 O398 1.421 . S
O402 Fe391 2.077 1_455 S
O402 C414 1.381 . S
O403 Fe386 1.935 . S
O403 C414 1.421 . S
O404 Fe384 2.077 1_655 S
O404 C392 1.381 . S
O405 Fe387 1.935 . S
O405 C392 1.421 . S
C406 O393 1.386 . S
C406 O394 1.426 . S
C407 O399 1.381 1_556 S
C407 O400 1.421 1_556 S
C408 O409 1.381 . S
C408 O410 1.421 . S
O409 Fe387 2.077 . S
O409 C408 1.381 . S
O410 Fe391 1.935 . S
O410 C408 1.421 . S
C411 O395 1.390 . S
C411 O396 1.424 . S
O412 Fe386 2.077 . S
O412 C415 1.381 . S
O413 Fe384 1.935 . S
O413 C415 1.421 . S
C414 O402 1.381 . S
C414 O403 1.421 . S
C415 O412 1.381 . S
C415 O413 1.421 . S
Fe416 O417 1.886 . S
Fe416 O420 1.715 . S
Fe416 O425 2.077 . S
Fe416 O430 1.935 . S
Fe416 O436 2.077 . S
Fe416 O445 1.935 . S
O417 Fe416 1.886 . S
O417 Fe419 1.715 1_556 S
Fe418 O420 1.886 1_554 S
Fe418 O421 1.715 . S
Fe418 O428 1.935 . S
Fe418 O429 2.077 1_554 S
Fe418 O435 1.935 . S
Fe418 O444 2.077 1_554 S
Fe419 O417 1.715 1_554 S
Fe419 O422 1.886 . S
Fe419 O426 1.935 . S
Fe419 O431 2.077 . S
Fe419 O437 1.935 1_554 S
Fe419 O441 2.077 . S
O420 Fe416 1.715 . S
O420 Fe418 1.886 1_556 S
O421 Fe418 1.715 . S
O421 Fe423 1.886 . S
O422 Fe419 1.886 . S
O422 Fe423 1.715 . S
Fe423 O421 1.886 . S
Fe423 O422 1.715 . S
Fe423 O427 2.077 . S
Fe423 O432 1.935 . S
Fe423 O434 2.077 . S
Fe423 O442 1.935 . S
C424 O436 1.381 . S
C424 O437 1.421 . S
O425 Fe416 2.077 . S
O425 C438 1.381 . S
O426 Fe419 1.935 . S
O426 C438 1.421 1_554 S
O427 Fe423 2.077 . S
O427 C443 1.381 . S
O428 Fe418 1.935 . S
O428 C443 1.421 . S
O429 Fe418 2.077 1_556 S
O429 C433 1.381 . S
O430 Fe416 1.935 . S
O430 C433 1.421 . S
O431 Fe419 2.077 . S
O431 C439 1.381 . S
O432 Fe423 1.935 . S
O432 C439 1.421 . S
C433 O429 1.381 . S
C433 O430 1.421 . S
O434 Fe423 2.077 . S
O434 C446 1.381 . S
O435 Fe418 1.935 . S
O435 C446 1.421 . S
O436 Fe416 2.077 . S
O436 C424 1.381 . S
O437 Fe419 1.935 1_556 S
O437 C424 1.421 . S
C438 O425 1.381 . S
C438 O426 1.421 1_556 S
C439 O431 1.381 . S
C439 O432 1.421 . S
C440 O441 1.381 . S
C440 O442 1.421 . S
O441 Fe419 2.077 . S
O441 C440 1.381 . S
O442 Fe423 1.935 . S
O442 C440 1.421 . S
C443 O427 1.381 . S
C443 O428 1.421 . S
O444 Fe418 2.077 1_556 S
O444 C447 1.381 . S
O445 Fe416 1.935 . S
O445 C447 1.421 . S
C446 O434 1.381 . S
C446 O435 1.421 . S
C447 O444 1.381 . S
C447 O445 1.421 . S
Fe448 O449 1.886 . S
Fe448 O452 1.715 . S
Fe448 O457 2.077 . S
Fe448 O462 1.935 . S
Fe448 O468 2.077 1_455 S
Fe448 O477 1.935 1_455 S
O449 Fe448 1.886 . S
O449 Fe451 1.715 . S
Fe450 O452 1.886 . S
Fe450 O453 1.715 . S
Fe450 O460 1.935 . S
Fe450 O461 2.077 . S
Fe450 O467 1.935 1_455 S
Fe450 O476 2.077 1_455 S
Fe451 O449 1.715 . S
Fe451 O454 1.886 . S
Fe451 O458 1.935 . S
Fe451 O463 2.077 . S
Fe451 O469 1.935 1_455 S
Fe451 O473 2.077 . S
O452 Fe448 1.715 . S
O452 Fe450 1.886 . S
O453 Fe450 1.715 . S
O453 Fe455 1.886 . S
O454 Fe451 1.886 . S
O454 Fe455 1.715 . S
Fe455 O453 1.886 . S
Fe455 O454 1.715 . S
Fe455 O459 2.077 . S
Fe455 O464 1.935 . S
Fe455 O466 2.077 . S
Fe455 O474 1.935 . S
C456 O468 1.381 . S
C456 O469 1.421 . S
O457 Fe448 2.077 . S
O457 C470 1.381 . S
O458 Fe451 1.935 . S
O458 C470 1.421 . S
O459 Fe455 2.077 . S
O459 C475 1.381 . S
O460 Fe450 1.935 . S
O460 C475 1.421 . S
O461 Fe450 2.077 . S
O461 C465 1.381 . S
O462 Fe448 1.935 . S
O462 C465 1.421 . S
O463 Fe451 2.077 . S
O463 C471 1.381 . S
O464 Fe455 1.935 . S
O464 C471 1.421 . S
C465 O461 1.381 . S
C465 O462 1.421 . S
O466 Fe455 2.077 . S
O466 C478 1.381 1_455 S
O467 Fe450 1.935 1_655 S
O467 C478 1.421 . S
O468 Fe448 2.077 1_655 S
O468 C456 1.381 . S
O469 Fe451 1.935 1_655 S
O469 C456 1.421 . S
C470 O457 1.381 . S
C470 O458 1.421 . S
C471 O463 1.381 . S
C471 O464 1.421 . S
C472 O473 1.381 1_655 S
C472 O474 1.421 1_655 S
O473 Fe451 2.077 . S
O473 C472 1.381 1_455 S
O474 Fe455 1.935 . S
O474 C472 1.421 1_455 S
C475 O459 1.381 . S
C475 O460 1.421 . S
O476 Fe450 2.077 1_655 S
O476 C479 1.381 . S
O477 Fe448 1.935 1_655 S
O477 C479 1.421 . S
C478 O466 1.381 1_655 S
C478 O467 1.421 . S
C479 O476 1.381 . S
C479 O477 1.421 . S
Fe480 O481 1.886 . S
Fe480 O484 1.715 . S
Fe480 O489 2.077 . S
Fe480 O494 1.935 . S
Fe480 O500 2.077 . S
Fe480 O509 1.935 . S
O481 Fe480 1.886 . S
O481 Fe483 1.715 1_565 S
Fe482 O484 1.886 . S
Fe482 O485 1.715 1_565 S
Fe482 O492 1.935 1_565 S
Fe482 O493 2.077 . S
Fe482 O499 1.935 1_565 S
Fe482 O508 2.077 . S
Fe483 O481 1.715 1_545 S
Fe483 O486 1.886 . S
Fe483 O490 1.935 1_545 S
Fe483 O495 2.077 . S
Fe483 O501 1.935 1_545 S
Fe483 O505 2.077 . S
O484 Fe480 1.715 . S
O484 Fe482 1.886 . S
O485 Fe482 1.715 1_545 S
O485 Fe487 1.886 . S
O486 Fe483 1.886 . S
O486 Fe487 1.715 . S
Fe487 O485 1.886 . S
Fe487 O486 1.715 . S
Fe487 O491 2.077 . S
Fe487 O496 1.935 . S
Fe487 O498 2.077 . S
Fe487 O506 1.935 . S
C488 O500 1.381 . S
C488 O501 1.421 . S
O489 Fe480 2.077 . S
O489 C502 1.381 . S
O490 Fe483 1.935 1_565 S
O490 C502 1.421 . S
O491 Fe487 2.077 . S
O491 C507 1.381 . S
O492 Fe482 1.935 1_545 S
O492 C507 1.421 . S
O493 Fe482 2.077 . S
O493 C497 1.381 . S
O494 Fe480 1.935 . S
O494 C497 1.421 . S
O495 Fe483 2.077 . S
O495 C503 1.381 . S
O496 Fe487 1.935 . S
O496 C503 1.421 . S
C497 O493 1.381 . S
C497 O494 1.421 . S
O498 Fe487 2.077 . S
O498 C510 1.381 . S
O499 Fe482 1.935 1_545 S
O499 C510 1.421 . S
O500 Fe480 2.077 . S
O500 C488 1.381 . S
O501 Fe483 1.935 1_565 S
O501 C488 1.421 . S
C502 O489 1.381 . S
C502 O490 1.421 . S
C503 O495 1.381 . S
C503 O496 1.421 . S
C504 O505 1.381 . S
C504 O506 1.421 . S
O505 Fe483 2.077 . S
O505 C504 1.381 . S
O506 Fe487 1.935 . S
O506 C504 1.421 . S
C507 O491 1.381 . S
C507 O492 1.421 . S
O508 Fe482 2.077 . S
O508 C511 1.381 . S
O509 Fe480 1.935 . S
O509 C511 1.421 . S
C510 O498 1.381 . S
C510 O499 1.421 . S
C511 O508 1.381 . S
C511 O509 1.421 . S
C512 C513 1.369 . S
C512 C514 1.419 . S
C512 H516 0.930 . S
C513 C512 1.369 . S
C513 C522 1.429 . S
C514 C512 1.419 . S
C514 C515 1.363 . S
C514 H517 0.929 . S
C515 C514 1.363 . S
C515 C521 1.428 . S
H516 C512 0.930 . S
H517 C514 0.929 . S
S518 N519 1.613 . S
S518 N520 1.610 . S
N519 S518 1.613 . S
N519 C522 1.350 . S
N520 S518 1.610 . S
N520 C521 1.351 . S
C521 C515 1.428 . S
C521 N520 1.351 . S
C521 C522 1.434 . S
C522 C513 1.429 . S
C522 N519 1.350 . S
C522 C521 1.434 . S
C523 C524 1.369 . S
C523 C525 1.419 . S
C523 H527 0.930 . S
C524 C523 1.369 . S
C524 C533 1.429 . S
C525 C523 1.419 . S
C525 C526 1.363 . S
C525 H528 0.929 . S
C526 C525 1.363 . S
C526 C532 1.428 . S
H527 C523 0.930 . S
H528 C525 0.929 . S
S529 N530 1.613 . S
S529 N531 1.610 . S
N530 S529 1.613 . S
N530 C533 1.350 . S
N531 S529 1.610 . S
N531 C532 1.351 . S
C532 C526 1.428 . S
C532 N531 1.351 . S
C532 C533 1.434 . S
C533 C524 1.429 . S
C533 N530 1.350 . S
C533 C532 1.434 . S
C534 C535 1.369 . S
C534 C536 1.419 . S
C534 H538 0.930 . S
C535 C534 1.369 . S
C535 C544 1.429 . S
C536 C534 1.419 . S
C536 C537 1.363 . S
C536 H539 0.929 . S
C537 C536 1.363 . S
C537 C543 1.428 . S
H538 C534 0.930 . S
H539 C536 0.929 . S
S540 N541 1.613 . S
S540 N542 1.610 . S
N541 S540 1.613 . S
N541 C544 1.350 . S
N542 S540 1.610 . S
N542 C543 1.351 . S
C543 C537 1.428 . S
C543 N542 1.351 . S
C543 C544 1.434 . S
C544 C535 1.429 . S
C544 N541 1.350 . S
C544 C543 1.434 . S
C545 C546 1.369 . S
C545 C547 1.419 . S
C545 H549 0.930 . S
C546 C545 1.369 . S
C546 C555 1.429 . S
C547 C545 1.419 . S
C547 C548 1.363 . S
C547 H550 0.929 . S
C548 C547 1.363 . S
C548 C554 1.428 . S
H549 C545 0.930 . S
H550 C547 0.929 . S
S551 N552 1.613 . S
S551 N553 1.610 . S
N552 S551 1.613 . S
N552 C555 1.350 . S
N553 S551 1.610 . S
N553 C554 1.351 . S
C554 C548 1.428 . S
C554 N553 1.351 . S
C554 C555 1.434 . S
C555 C546 1.429 . S
C555 N552 1.350 . S
C555 C554 1.434 . S
C556 C557 1.369 . S
C556 C558 1.419 . S
C556 H560 0.930 . S
C557 C556 1.369 . S
C557 C566 1.429 . S
C558 C556 1.419 . S
C558 C559 1.363 . S
C558 H561 0.929 . S
C559 C558 1.363 . S
C559 C565 1.428 . S
H560 C556 0.930 . S
H561 C558 0.929 . S
S562 N563 1.613 . S
S562 N564 1.610 . S
N563 S562 1.613 . S
N563 C566 1.350 . S
N564 S562 1.610 . S
N564 C565 1.351 . S
C565 C559 1.428 . S
C565 N564 1.351 . S
C565 C566 1.434 . S
C566 C557 1.429 . S
C566 N563 1.350 . S
C566 C565 1.434 . S
C567 C568 1.369 . S
C567 C569 1.419 . S
C567 H571 0.930 . S
C568 C567 1.369 . S
C568 C577 1.429 . S
C569 C567 1.419 . S
C569 C570 1.363 . S
C569 H572 0.929 . S
C570 C569 1.363 . S
C570 C576 1.428 . S
H571 C567 0.930 . S
H572 C569 0.929 . S
S573 N574 1.613 . S
S573 N575 1.610 . S
N574 S573 1.613 . S
N574 C577 1.350 . S
N575 S573 1.610 . S
N575 C576 1.351 . S
C576 C570 1.428 . S
C576 N575 1.351 . S
C576 C577 1.434 . S
C577 C568 1.429 . S
C577 N574 1.350 . S
C577 C576 1.434 . S
C578 C579 1.369 . S
C578 C580 1.419 . S
C578 H582 0.930 1_655 S
C579 C578 1.369 . S
C579 C588 1.429 . S
C580 C578 1.419 . S
C580 C581 1.363 . S
C580 H583 0.929 . S
C581 C580 1.363 . S
C581 C587 1.428 . S
H582 C578 0.930 1_455 S
H583 C580 0.929 . S
S584 N585 1.613 . S
S584 N586 1.610 . S
N585 S584 1.613 . S
N585 C588 1.350 . S
N586 S584 1.610 . S
N586 C587 1.351 . S
C587 C581 1.428 . S
C587 N586 1.351 . S
C587 C588 1.434 . S
C588 C579 1.429 . S
C588 N585 1.350 . S
C588 C587 1.434 . S
C589 C590 1.369 . S
C589 C591 1.419 . S
C589 H593 0.930 . S
C590 C589 1.369 . S
C590 C599 1.429 . S
C591 C589 1.419 . S
C591 C592 1.363 . S
C591 H594 0.929 . S
C592 C591 1.363 . S
C592 C598 1.428 . S
H593 C589 0.930 . S
H594 C591 0.929 . S
S595 N596 1.613 . S
S595 N597 1.610 . S
N596 S595 1.613 . S
N596 C599 1.350 . S
N597 S595 1.610 . S
N597 C598 1.351 . S
C598 C592 1.428 . S
C598 N597 1.351 . S
C598 C599 1.434 . S
C599 C590 1.429 . S
C599 N596 1.350 . S
C599 C598 1.434 . S
C600 C601 1.369 . S
C600 C602 1.419 . S
C600 H604 0.930 . S
C601 C600 1.369 . S
C601 C610 1.429 . S
C602 C600 1.419 . S
C602 C603 1.363 . S
C602 H605 0.929 . S
C603 C602 1.363 . S
C603 C609 1.428 . S
H604 C600 0.930 . S
H605 C602 0.929 . S
S606 N607 1.613 . S
S606 N608 1.610 . S
N607 S606 1.613 . S
N607 C610 1.350 . S
N608 S606 1.610 . S
N608 C609 1.351 . S
C609 C603 1.428 . S
C609 N608 1.351 . S
C609 C610 1.434 . S
C610 C601 1.429 . S
C610 N607 1.350 . S
C610 C609 1.434 . S
C611 C612 1.369 . S
C611 C613 1.419 . S
C611 H615 0.930 . S
C612 C611 1.369 . S
C612 C621 1.429 . S
C613 C611 1.419 . S
C613 C614 1.363 . S
C613 H616 0.929 . S
C614 C613 1.363 . S
C614 C620 1.428 . S
H615 C611 0.930 . S
H616 C613 0.929 . S
S617 N618 1.613 . S
S617 N619 1.610 . S
N618 S617 1.613 . S
N618 C621 1.350 . S
N619 S617 1.610 . S
N619 C620 1.351 . S
C620 C614 1.428 . S
C620 N619 1.351 . S
C620 C621 1.434 . S
C621 C612 1.429 . S
C621 N618 1.350 . S
C621 C620 1.434 . S
C622 C623 1.369 . S
C622 C624 1.419 . S
C622 H626 0.930 . S
C623 C622 1.369 . S
C623 C632 1.429 . S
C624 C622 1.419 . S
C624 C625 1.363 . S
C624 H627 0.929 . S
C625 C624 1.363 . S
C625 C631 1.428 1_565 S
H626 C622 0.930 . S
H627 C624 0.929 . S
S628 N629 1.613 . S
S628 N630 1.610 . S
N629 S628 1.613 . S
N629 C632 1.350 1_545 S
N630 S628 1.610 . S
N630 C631 1.351 . S
C631 C625 1.428 1_545 S
C631 N630 1.351 . S
C631 C632 1.434 1_545 S
C632 C623 1.429 . S
C632 N629 1.350 1_565 S
C632 C631 1.434 1_565 S
C633 C634 1.369 . S
C633 C635 1.419 . S
C633 H637 0.930 . S
C634 C633 1.369 . S
C634 C643 1.429 . S
C635 C633 1.419 . S
C635 C636 1.363 . S
C635 H638 0.929 . S
C636 C635 1.363 . S
C636 C642 1.428 . S
H637 C633 0.930 . S
H638 C635 0.929 . S
S639 N640 1.613 . S
S639 N641 1.610 . S
N640 S639 1.613 . S
N640 C643 1.350 . S
N641 S639 1.610 . S
N641 C642 1.351 . S
C642 C636 1.428 . S
C642 N641 1.351 . S
C642 C643 1.434 . S
C643 C634 1.429 . S
C643 N640 1.350 . S
C643 C642 1.434 . S
C644 C645 1.369 . S
C644 C646 1.419 . S
C644 H648 0.930 . S
C645 C644 1.369 . S
C645 C654 1.429 . S
C646 C644 1.419 . S
C646 C647 1.363 . S
C646 H649 0.929 . S
C647 C646 1.363 . S
C647 C653 1.428 . S
H648 C644 0.930 . S
H649 C646 0.929 . S
S650 N651 1.613 . S
S650 N652 1.610 . S
N651 S650 1.613 . S
N651 C654 1.350 . S
N652 S650 1.610 . S
N652 C653 1.351 . S
C653 C647 1.428 . S
C653 N652 1.351 . S
C653 C654 1.434 . S
C654 C645 1.429 . S
C654 N651 1.350 . S
C654 C653 1.434 . S
C655 C656 1.369 . S
C655 C657 1.419 . S
C655 H659 0.930 . S
C656 C655 1.369 . S
C656 C665 1.429 . S
C657 C655 1.419 . S
C657 C658 1.363 . S
C657 H660 0.929 . S
C658 C657 1.363 . S
C658 C664 1.428 . S
H659 C655 0.930 . S
H660 C657 0.929 . S
S661 N662 1.613 1_554 S
S661 N663 1.610 . S
N662 S661 1.613 1_556 S
N662 C665 1.350 . S
N663 S661 1.610 . S
N663 C664 1.351 1_554 S
C664 C658 1.428 . S
C664 N663 1.351 1_556 S
C664 C665 1.434 . S
C665 C656 1.429 . S
C665 N662 1.350 . S
C665 C664 1.434 . S
C666 C667 1.369 . S
C666 C668 1.419 . S
C666 H670 0.930 . S
C667 C666 1.369 . S
C667 C676 1.429 . S
C668 C666 1.419 . S
C668 C669 1.363 . S
C668 H671 0.929 . S
C669 C668 1.363 . S
C669 C675 1.428 . S
H670 C666 0.930 . S
H671 C668 0.929 . S
S672 N673 1.613 . S
S672 N674 1.610 . S
N673 S672 1.613 . S
N673 C676 1.350 . S
N674 S672 1.610 . S
N674 C675 1.351 . S
C675 C669 1.428 . S
C675 N674 1.351 . S
C675 C676 1.434 . S
C676 C667 1.429 . S
C676 N673 1.350 . S
C676 C675 1.434 . S
C677 C678 1.369 . S
C677 C679 1.419 . S
C677 H681 0.930 . S
C678 C677 1.369 . S
C678 C687 1.429 1_556 S
C679 C677 1.419 . S
C679 C680 1.363 . S
C679 H682 0.929 . S
C680 C679 1.363 . S
C680 C686 1.428 1_556 S
H681 C677 0.930 . S
H682 C679 0.929 . S
S683 N684 1.613 . S
S683 N685 1.610 . S
N684 S683 1.613 . S
N684 C687 1.350 . S
N685 S683 1.610 . S
N685 C686 1.351 . S
C686 C680 1.428 1_554 S
C686 N685 1.351 . S
C686 C687 1.434 . S
C687 C678 1.429 1_554 S
C687 N684 1.350 . S
C687 C686 1.434 . S
C688 C689 1.369 . S
C688 C690 1.419 . S
C688 H692 0.930 . S
C689 C688 1.369 . S
C689 C698 1.429 . S
C690 C688 1.419 . S
C690 C691 1.363 . S
C690 H693 0.929 . S
C691 C690 1.363 . S
C691 C697 1.428 . S
H692 C688 0.930 . S
H693 C690 0.929 . S
S694 N695 1.613 . S
S694 N696 1.610 . S
N695 S694 1.613 . S
N695 C698 1.350 . S
N696 S694 1.610 . S
N696 C697 1.351 . S
C697 C691 1.428 . S
C697 N696 1.351 . S
C697 C698 1.434 . S
C698 C689 1.429 . S
C698 N695 1.350 . S
C698 C697 1.434 . S
C699 C700 1.369 . S
C699 C701 1.423 . S
C699 H703 0.930 . S
C700 C699 1.369 . S
C700 C709 1.429 . S
C701 C699 1.423 . S
C701 C702 1.361 1_556 S
C701 H704 0.926 1_556 S
C702 C701 1.361 1_554 S
C702 C708 1.428 1_554 S
H703 C699 0.930 . S
H704 C701 0.926 1_554 S
S705 N706 1.613 . S
S705 N707 1.610 . S
N706 S705 1.613 . S
N706 C709 1.350 . S
N707 S705 1.610 . S
N707 C708 1.351 . S
C708 C702 1.428 1_556 S
C708 N707 1.351 . S
C708 C709 1.434 . S
C709 C700 1.429 . S
C709 N706 1.350 . S
C709 C708 1.434 . S
C710 C711 1.369 . S
C710 C712 1.419 . S
C710 H714 0.930 . S
C711 C710 1.369 . S
C711 C720 1.429 . S
C712 C710 1.419 . S
C712 C713 1.363 . S
C712 H715 0.929 . S
C713 C712 1.363 . S
C713 C719 1.428 . S
H714 C710 0.930 . S
H715 C712 0.929 . S
S716 N717 1.613 . S
S716 N718 1.610 . S
N717 S716 1.613 . S
N717 C720 1.350 . S
N718 S716 1.610 . S
N718 C719 1.351 . S
C719 C713 1.428 . S
C719 N718 1.351 . S
C719 C720 1.434 . S
C720 C711 1.429 . S
C720 N717 1.350 . S
C720 C719 1.434 . S
C721 C722 1.369 . S
C721 C723 1.419 . S
C721 H725 0.930 . S
C722 C721 1.369 . S
C722 C731 1.429 . S
C723 C721 1.419 . S
C723 C724 1.363 . S
C723 H726 0.929 . S
C724 C723 1.363 . S
C724 C730 1.428 . S
H725 C721 0.930 . S
H726 C723 0.929 . S
S727 N728 1.613 . S
S727 N729 1.610 . S
N728 S727 1.613 . S
N728 C731 1.350 . S
N729 S727 1.610 . S
N729 C730 1.351 . S
C730 C724 1.428 . S
C730 N729 1.351 . S
C730 C731 1.434 . S
C731 C722 1.429 . S
C731 N728 1.350 . S
C731 C730 1.434 . S
C732 C733 1.369 . S
C732 C734 1.419 . S
C732 H736 0.930 . S
C733 C732 1.369 . S
C733 C742 1.429 . S
C734 C732 1.419 . S
C734 C735 1.363 . S
C734 H737 0.929 . S
C735 C734 1.363 . S
C735 C741 1.428 . S
H736 C732 0.930 . S
H737 C734 0.929 . S
S738 N739 1.641 . S
S738 N740 1.612 . S
N739 S738 1.641 . S
N739 C742 1.350 . S
N740 S738 1.612 . S
N740 C741 1.351 . S
C741 C735 1.428 . S
C741 N740 1.351 . S
C741 C742 1.434 . S
C742 C733 1.429 . S
C742 N739 1.350 . S
C742 C741 1.434 . S
C743 C744 1.369 . S
C743 C745 1.419 . S
C743 H747 0.930 . S
C744 C743 1.369 . S
C744 C753 1.429 . S
C745 C743 1.419 . S
C745 C746 1.363 . S
C745 H748 0.929 . S
C746 C745 1.363 . S
C746 C752 1.428 . S
H747 C743 0.930 . S
H748 C745 0.929 . S
S749 N750 1.613 . S
S749 N751 1.610 . S
N750 S749 1.613 . S
N750 C753 1.350 . S
N751 S749 1.610 . S
N751 C752 1.351 . S
C752 C746 1.428 . S
C752 N751 1.351 . S
C752 C753 1.434 . S
C753 C744 1.429 . S
C753 N750 1.350 . S
C753 C752 1.434 . S
C754 C755 1.369 . S
C754 C756 1.419 . S
C754 H758 0.930 . S
C755 C754 1.369 . S
C755 C764 1.429 . S
C756 C754 1.419 . S
C756 C757 1.363 . S
C756 H759 0.929 . S
C757 C756 1.363 . S
C757 C763 1.428 . S
H758 C754 0.930 . S
H759 C756 0.929 . S
S760 N761 1.613 . S
S760 N762 1.610 . S
N761 S760 1.613 . S
N761 C764 1.350 . S
N762 S760 1.610 . S
N762 C763 1.351 . S
C763 C757 1.428 . S
C763 N762 1.351 . S
C763 C764 1.434 . S
C764 C755 1.429 . S
C764 N761 1.350 . S
C764 C763 1.434 . S
C765 C766 1.369 . S
C765 C767 1.419 . S
C765 H769 0.930 . S
C766 C765 1.369 . S
C766 C775 1.429 . S
C767 C765 1.419 . S
C767 C768 1.363 . S
C767 H770 0.929 . S
C768 C767 1.363 . S
C768 C774 1.428 . S
H769 C765 0.930 . S
H770 C767 0.929 . S
S771 N772 1.613 . S
S771 N773 1.610 . S
N772 S771 1.613 . S
N772 C775 1.350 . S
N773 S771 1.610 . S
N773 C774 1.351 . S
C774 C768 1.428 . S
C774 N773 1.351 . S
C774 C775 1.434 . S
C775 C766 1.429 . S
C775 N772 1.350 . S
C775 C774 1.434 . S
C776 C777 1.369 . S
C776 C778 1.419 . S
C776 H780 0.930 . S
C777 C776 1.369 . S
C777 C786 1.429 . S
C778 C776 1.419 . S
C778 C779 1.363 . S
C778 H781 0.929 . S
C779 C778 1.363 . S
C779 C785 1.428 . S
H780 C776 0.930 . S
H781 C778 0.929 . S
S782 N783 1.613 . S
S782 N784 1.610 . S
N783 S782 1.613 . S
N783 C786 1.350 . S
N784 S782 1.610 . S
N784 C785 1.351 . S
C785 C779 1.428 . S
C785 N784 1.351 . S
C785 C786 1.434 . S
C786 C777 1.429 . S
C786 N783 1.350 . S
C786 C785 1.434 . S
C787 C788 1.369 . S
C787 C789 1.419 . S
C787 H791 0.930 . S
C788 C787 1.369 . S
C788 C797 1.429 . S
C789 C787 1.419 . S
C789 C790 1.363 . S
C789 H792 0.929 . S
C790 C789 1.363 . S
C790 C796 1.428 . S
H791 C787 0.930 . S
H792 C789 0.929 . S
S793 N794 1.613 . S
S793 N795 1.610 . S
N794 S793 1.613 . S
N794 C797 1.350 . S
N795 S793 1.610 . S
N795 C796 1.351 . S
C796 C790 1.428 . S
C796 N795 1.351 . S
C796 C797 1.434 . S
C797 C788 1.429 . S
C797 N794 1.350 . S
C797 C796 1.434 . S
C798 C799 1.369 . S
C798 C800 1.419 . S
C798 H802 0.930 . S
C799 C798 1.369 . S
C799 C808 1.429 . S
C800 C798 1.419 . S
C800 C801 1.363 . S
C800 H803 0.929 . S
C801 C800 1.363 . S
C801 C807 1.428 . S
H802 C798 0.930 . S
H803 C800 0.929 . S
S804 N805 1.613 . S
S804 N806 1.610 . S
N805 S804 1.613 . S
N805 C808 1.350 . S
N806 S804 1.610 . S
N806 C807 1.351 . S
C807 C801 1.428 . S
C807 N806 1.351 . S
C807 C808 1.434 . S
C808 C799 1.429 . S
C808 N805 1.350 . S
C808 C807 1.434 . S
C809 C810 1.369 . S
C809 C811 1.419 . S
C809 H813 0.930 . S
C810 C809 1.369 . S
C810 C819 1.429 . S
C811 C809 1.419 . S
C811 C812 1.363 . S
C811 H814 0.929 . S
C812 C811 1.363 . S
C812 C818 1.428 . S
H813 C809 0.930 . S
H814 C811 0.929 . S
S815 N816 1.613 . S
S815 N817 1.610 . S
N816 S815 1.613 . S
N816 C819 1.350 . S
N817 S815 1.610 . S
N817 C818 1.351 . S
C818 C812 1.428 . S
C818 N817 1.351 . S
C818 C819 1.434 . S
C819 C810 1.429 . S
C819 N816 1.350 . S
C819 C818 1.434 . S
C820 C821 1.369 . S
C820 C822 1.419 . S
C820 H824 0.930 . S
C821 C820 1.369 . S
C821 C830 1.429 . S
C822 C820 1.419 . S
C822 C823 1.363 . S
C822 H825 0.929 . S
C823 C822 1.363 . S
C823 C829 1.428 . S
H824 C820 0.930 . S
H825 C822 0.929 . S
S826 N827 1.613 . S
S826 N828 1.610 . S
N827 S826 1.613 . S
N827 C830 1.350 . S
N828 S826 1.610 . S
N828 C829 1.351 . S
C829 C823 1.428 . S
C829 N828 1.351 . S
C829 C830 1.434 . S
C830 C821 1.429 . S
C830 N827 1.350 . S
C830 C829 1.434 . S
C831 C832 1.369 . S
C831 C833 1.419 . S
C831 H835 0.930 . S
C832 C831 1.369 . S
C832 C841 1.429 . S
C833 C831 1.419 . S
C833 C834 1.363 . S
C833 H836 0.929 . S
C834 C833 1.363 . S
C834 C840 1.428 . S
H835 C831 0.930 . S
H836 C833 0.929 . S
S837 N838 1.613 . S
S837 N839 1.610 . S
N838 S837 1.613 . S
N838 C841 1.350 . S
N839 S837 1.610 . S
N839 C840 1.351 . S
C840 C834 1.428 . S
C840 N839 1.351 . S
C840 C841 1.434 . S
C841 C832 1.429 . S
C841 N838 1.350 . S
C841 C840 1.434 . S
C842 C843 1.369 . S
C842 C844 1.419 . S
C842 H846 0.930 . S
C843 C842 1.369 . S
C843 C852 1.429 . S
C844 C842 1.419 . S
C844 C845 1.363 . S
C844 H847 0.929 . S
C845 C844 1.363 . S
C845 C851 1.428 . S
H846 C842 0.930 . S
H847 C844 0.929 . S
S848 N849 1.613 . S
S848 N850 1.610 . S
N849 S848 1.613 . S
N849 C852 1.350 . S
N850 S848 1.610 . S
N850 C851 1.351 . S
C851 C845 1.428 . S
C851 N850 1.351 . S
C851 C852 1.434 . S
C852 C843 1.429 . S
C852 N849 1.350 . S
C852 C851 1.434 . S
C853 C854 1.369 . S
C853 C855 1.419 . S
C853 H857 0.930 . S
C854 C853 1.369 . S
C854 C863 1.429 . S
C855 C853 1.419 . S
C855 C856 1.363 . S
C855 H858 0.929 . S
C856 C855 1.363 . S
C856 C862 1.428 . S
H857 C853 0.930 . S
H858 C855 0.929 . S
S859 N860 1.613 . S
S859 N861 1.610 . S
N860 S859 1.613 . S
N860 C863 1.350 . S
N861 S859 1.610 . S
N861 C862 1.351 . S
C862 C856 1.428 . S
C862 N861 1.351 . S
C862 C863 1.434 . S
C863 C854 1.429 . S
C863 N860 1.350 . S
C863 C862 1.434 . S
C864 C865 1.369 . S
C864 C866 1.419 . S
C864 H868 0.930 . S
C865 C864 1.369 . S
C865 C874 1.429 . S
C866 C864 1.419 . S
C866 C867 1.363 . S
C866 H869 0.929 . S
C867 C866 1.363 . S
C867 C873 1.428 . S
H868 C864 0.930 . S
H869 C866 0.929 . S
S870 N871 1.613 . S
S870 N872 1.610 . S
N871 S870 1.613 . S
N871 C874 1.350 . S
N872 S870 1.610 . S
N872 C873 1.351 . S
C873 C867 1.428 . S
C873 N872 1.351 . S
C873 C874 1.434 . S
C874 C865 1.429 . S
C874 N871 1.350 . S
C874 C873 1.434 . S
C875 C876 1.369 . S
C875 C877 1.419 . S
C875 H879 0.930 . S
C876 C875 1.369 . S
C876 C885 1.429 . S
C877 C875 1.419 . S
C877 C878 1.363 . S
C877 H880 0.929 . S
C878 C877 1.363 . S
C878 C884 1.428 . S
H879 C875 0.930 . S
H880 C877 0.929 . S
S881 N882 1.613 . S
S881 N883 1.610 . S
N882 S881 1.613 . S
N882 C885 1.350 . S
N883 S881 1.610 . S
N883 C884 1.351 . S
C884 C878 1.428 . S
C884 N883 1.351 . S
C884 C885 1.434 . S
C885 C876 1.429 . S
C885 N882 1.350 . S
C885 C884 1.434 . S
C886 C887 1.369 . S
C886 C888 1.419 . S
C886 H890 0.930 . S
C887 C886 1.369 . S
C887 C896 1.429 . S
C888 C886 1.419 . S
C888 C889 1.363 . S
C888 H891 0.929 . S
C889 C888 1.363 . S
C889 C895 1.428 . S
H890 C886 0.930 . S
H891 C888 0.929 . S
S892 N893 1.613 . S
S892 N894 1.610 . S
N893 S892 1.613 . S
N893 C896 1.350 . S
N894 S892 1.610 . S
N894 C895 1.351 . S
C895 C889 1.428 . S
C895 N894 1.351 . S
C895 C896 1.434 . S
C896 C887 1.429 . S
C896 N893 1.350 . S
C896 C895 1.434 . S
C897 C898 1.369 . S
C897 C899 1.419 . S
C897 H901 0.930 . S
C898 C897 1.369 . S
C898 C907 1.429 . S
C899 C897 1.419 . S
C899 C900 1.363 . S
C899 H902 0.929 . S
C900 C899 1.363 . S
C900 C906 1.428 . S
H901 C897 0.930 . S
H902 C899 0.929 . S
S903 N904 1.613 . S
S903 N905 1.610 . S
N904 S903 1.613 . S
N904 C907 1.350 . S
N905 S903 1.610 . S
N905 C906 1.351 . S
C906 C900 1.428 . S
C906 N905 1.351 . S
C906 C907 1.434 . S
C907 C898 1.429 . S
C907 N904 1.350 . S
C907 C906 1.434 . S
C908 C909 1.369 . S
C908 C910 1.419 . S
C908 H912 0.930 . S
C909 C908 1.369 . S
C909 C918 1.429 . S
C910 C908 1.419 . S
C910 C911 1.363 . S
C910 H913 0.929 . S
C911 C910 1.363 . S
C911 C917 1.428 . S
H912 C908 0.930 . S
H913 C910 0.929 . S
S914 N915 1.613 . S
S914 N916 1.610 . S
N915 S914 1.613 . S
N915 C918 1.350 . S
N916 S914 1.610 . S
N916 C917 1.351 . S
C917 C911 1.428 . S
C917 N916 1.351 . S
C917 C918 1.434 . S
C918 C909 1.429 . S
C918 N915 1.350 . S
C918 C917 1.434 . S
C919 C920 1.369 . S
C919 C921 1.419 . S
C919 H923 0.930 . S
C920 C919 1.369 . S
C920 C929 1.429 . S
C921 C919 1.419 . S
C921 C922 1.363 . S
C921 H924 0.929 . S
C922 C921 1.363 . S
C922 C928 1.428 . S
H923 C919 0.930 . S
H924 C921 0.929 . S
S925 N926 1.613 . S
S925 N927 1.610 . S
N926 S925 1.613 . S
N926 C929 1.350 . S
N927 S925 1.610 . S
N927 C928 1.351 . S
C928 C922 1.428 . S
C928 N927 1.351 . S
C928 C929 1.434 . S
C929 C920 1.429 . S
C929 N926 1.350 . S
C929 C928 1.434 . S
C930 C931 1.369 . S
C930 C932 1.419 . S
C930 H934 0.930 . S
C931 C930 1.369 . S
C931 C940 1.429 . S
C932 C930 1.419 . S
C932 C933 1.363 . S
C932 H935 0.929 . S
C933 C932 1.363 . S
C933 C939 1.428 . S
H934 C930 0.930 . S
H935 C932 0.929 . S
S936 N937 1.613 . S
S936 N938 1.610 . S
N937 S936 1.613 . S
N937 C940 1.350 . S
N938 S936 1.610 . S
N938 C939 1.351 . S
C939 C933 1.428 . S
C939 N938 1.351 . S
C939 C940 1.434 . S
C940 C931 1.429 . S
C940 N937 1.350 . S
C940 C939 1.434 . S
C941 C942 1.369 . S
C941 C943 1.419 . S
C941 H945 0.930 . S
C942 C941 1.369 . S
C942 C951 1.429 . S
C943 C941 1.419 . S
C943 C944 1.363 . S
C943 H946 0.929 . S
C944 C943 1.363 . S
C944 C950 1.428 . S
H945 C941 0.930 . S
H946 C943 0.929 . S
S947 N948 1.613 . S
S947 N949 1.610 . S
N948 S947 1.613 . S
N948 C951 1.350 . S
N949 S947 1.610 . S
N949 C950 1.351 . S
C950 C944 1.428 . S
C950 N949 1.351 . S
C950 C951 1.434 . S
C951 C942 1.429 . S
C951 N948 1.350 . S
C951 C950 1.434 . S
C952 C953 1.369 . S
C952 C954 1.419 . S
C952 H956 0.930 . S
C953 C952 1.369 . S
C953 C962 1.429 . S
C954 C952 1.419 . S
C954 C955 1.363 . S
C954 H957 0.929 . S
C955 C954 1.363 . S
C955 C961 1.428 . S
H956 C952 0.930 . S
H957 C954 0.929 . S
S958 N959 1.613 . S
S958 N960 1.610 . S
N959 S958 1.613 . S
N959 C962 1.350 . S
N960 S958 1.610 . S
N960 C961 1.351 . S
C961 C955 1.428 . S
C961 N960 1.351 . S
C961 C962 1.434 . S
C962 C953 1.429 . S
C962 N959 1.350 . S
C962 C961 1.434 . S
C963 C964 1.369 . S
C963 C965 1.419 . S
C963 H967 0.930 . S
C964 C963 1.369 . S
C964 C973 1.429 . S
C965 C963 1.419 . S
C965 C966 1.363 . S
C965 H968 0.929 . S
C966 C965 1.363 . S
C966 C972 1.428 . S
H967 C963 0.930 . S
H968 C965 0.929 . S
S969 N970 1.613 . S
S969 N971 1.610 . S
N970 S969 1.613 . S
N970 C973 1.350 . S
N971 S969 1.610 . S
N971 C972 1.351 . S
C972 C966 1.428 . S
C972 N971 1.351 . S
C972 C973 1.434 . S
C973 C964 1.429 . S
C973 N970 1.350 . S
C973 C972 1.434 . S
C974 C975 1.369 . S
C974 C976 1.419 . S
C974 H978 0.930 . S
C975 C974 1.369 . S
C975 C984 1.429 . S
C976 C974 1.419 . S
C976 C977 1.363 . S
C976 H979 0.929 . S
C977 C976 1.363 . S
C977 C983 1.428 . S
H978 C974 0.930 . S
H979 C976 0.929 . S
S980 N981 1.613 1_455 S
S980 N982 1.610 . S
N981 S980 1.613 1_655 S
N981 C984 1.350 . S
N982 S980 1.610 . S
N982 C983 1.351 1_455 S
C983 C977 1.428 . S
C983 N982 1.351 1_655 S
C983 C984 1.434 . S
C984 C975 1.429 . S
C984 N981 1.350 . S
C984 C983 1.434 . S
C985 C986 1.369 . S
C985 C987 1.419 . S
C985 H989 0.930 . S
C986 C985 1.369 . S
C986 C995 1.429 . S
C987 C985 1.419 . S
C987 C988 1.363 . S
C987 H990 0.929 . S
C988 C987 1.363 . S
C988 C994 1.428 . S
H989 C985 0.930 . S
H990 C987 0.929 . S
S991 N992 1.613 . S
S991 N993 1.610 . S
N992 S991 1.613 . S
N992 C995 1.350 . S
N993 S991 1.610 . S
N993 C994 1.351 . S
C994 C988 1.428 . S
C994 N993 1.351 . S
C994 C995 1.434 . S
C995 C986 1.429 . S
C995 N992 1.350 . S
C995 C994 1.434 . S
C996 C997 1.369 . S
C996 C998 1.419 . S
C996 H1000 0.930 . S
C997 C996 1.369 . S
C997 C1006 1.429 . S
C998 C996 1.419 . S
C998 C999 1.363 . S
C998 H1001 0.929 . S
C999 C998 1.363 . S
C999 C1005 1.428 . S
H1000 C996 0.930 . S
H1001 C998 0.929 . S
S1002 N1003 1.613 . S
S1002 N1004 1.610 . S
N1003 S1002 1.613 . S
N1003 C1006 1.350 . S
N1004 S1002 1.610 . S
N1004 C1005 1.351 . S
C1005 C999 1.428 . S
C1005 N1004 1.351 . S
C1005 C1006 1.434 . S
C1006 C997 1.429 . S
C1006 N1003 1.350 . S
C1006 C1005 1.434 . S
C1007 C1008 1.369 . S
C1007 C1009 1.419 . S
C1007 H1011 0.930 . S
C1008 C1007 1.369 . S
C1008 C1017 1.429 . S
C1009 C1007 1.419 . S
C1009 C1010 1.363 . S
C1009 H1012 0.929 . S
C1010 C1009 1.363 . S
C1010 C1016 1.428 . S
H1011 C1007 0.930 . S
H1012 C1009 0.929 . S
S1013 N1014 1.613 . S
S1013 N1015 1.610 . S
N1014 S1013 1.613 . S
N1014 C1017 1.350 . S
N1015 S1013 1.610 . S
N1015 C1016 1.351 . S
C1016 C1010 1.428 . S
C1016 N1015 1.351 . S
C1016 C1017 1.434 . S
C1017 C1008 1.429 . S
C1017 N1014 1.350 . S
C1017 C1016 1.434 . S
C1018 C1019 1.369 . S
C1018 C1020 1.419 . S
C1018 H1022 0.930 . S
C1019 C1018 1.369 . S
C1019 C1028 1.429 . S
C1020 C1018 1.419 . S
C1020 C1021 1.363 . S
C1020 H1023 0.929 . S
C1021 C1020 1.363 . S
C1021 C1027 1.428 . S
H1022 C1018 0.930 . S
H1023 C1020 0.929 . S
S1024 N1025 1.613 . S
S1024 N1026 1.610 . S
N1025 S1024 1.613 . S
N1025 C1028 1.350 . S
N1026 S1024 1.610 . S
N1026 C1027 1.351 . S
C1027 C1021 1.428 . S
C1027 N1026 1.351 . S
C1027 C1028 1.434 . S
C1028 C1019 1.429 . S
C1028 N1025 1.350 . S
C1028 C1027 1.434 . S
C1029 C1030 1.369 . S
C1029 C1031 1.419 . S
C1029 H1033 0.930 . S
C1030 C1029 1.369 . S
C1030 C1039 1.429 . S
C1031 C1029 1.419 . S
C1031 C1032 1.363 . S
C1031 H1034 0.929 . S
C1032 C1031 1.363 . S
C1032 C1038 1.428 . S
H1033 C1029 0.930 . S
H1034 C1031 0.929 . S
S1035 N1036 1.613 . S
S1035 N1037 1.610 . S
N1036 S1035 1.613 . S
N1036 C1039 1.350 . S
N1037 S1035 1.610 . S
N1037 C1038 1.351 . S
C1038 C1032 1.428 . S
C1038 N1037 1.351 . S
C1038 C1039 1.434 . S
C1039 C1030 1.429 . S
C1039 N1036 1.350 . S
C1039 C1038 1.434 . S
C515 C337 2.752 . S
C513 C24 2.676 . S
C526 C342 3.080 . S
C524 C53 3.092 . S
C537 C343 1.492 . S
C535 C82 1.473 . S
C546 C137 0.574 . S
C548 C347 0.680 . S
C557 C184 2.965 . S
C559 C350 2.911 . S
C570 C351 1.475 . S
C568 C202 1.472 . S
C579 C266 0.676 . S
C581 C328 0.503 . S
C590 C293 2.678 . S
C592 C344 2.737 . S
C603 C382 2.788 . S
C601 C2 2.808 . S
C612 C57 1.059 . S
C614 C408 1.179 . S
C625 C360 0.715 . S
C623 C106 0.725 . S
C636 C415 1.056 . S
C634 C143 1.083 . S
C645 C162 1.169 . S
C647 C369 1.147 . S
C658 C411 0.854 1_556 S
C656 C226 0.867 . S
C667 C264 2.449 . S
C669 C375 2.413 . S
C678 C297 0.759 . S
C680 C406 0.729 1_556 S
C689 C26 0.919 . S
C691 C414 0.854 . S
C700 C186 0.273 . S
C702 C401 0.353 . S
C713 C379 2.329 . S
C711 C224 2.366 . S
C724 C407 1.906 . S
C722 C242 1.980 . S
C733 C303 3.269 . S
C735 C374 3.147 . S
C744 C104 2.058 . S
C746 C392 2.041 . S
C757 C383 2.869 . S
C755 C133 2.896 . S
C766 C63 1.775 . S
C768 C376 1.817 . S
C777 C304 2.640 . S
C779 C438 2.605 . S
C788 C173 2.936 . S
C790 C433 2.905 . S
C801 C447 1.402 . S
C799 C223 1.445 . S
C812 C424 0.484 . S
C810 C257 0.696 . S
C821 C64 3.058 . S
C823 C440 3.049 . S
C834 C439 1.448 . S
C832 C103 1.455 . S
C843 C146 0.597 . S
C845 C443 0.190 . S
C854 C13 2.638 . S
C856 C446 2.624 . S
C865 C282 3.281 . S
C867 C472 3.287 . S
C878 C488 0.341 . S
C876 C177 0.249 . S
C887 C213 2.388 . S
C889 C470 2.348 . S
C898 C263 1.983 . S
C900 C503 1.836 . S
C911 C479 1.836 . S
C909 C42 1.792 . S
C920 C93 2.087 . S
C922 C497 2.058 . S
C933 C475 2.785 . S
C931 C144 2.885 . S
C944 C510 1.009 . S
C942 C17 0.942 . S
C955 C502 0.670 . S
C953 C306 0.728 . S
C964 C66 1.022 . S
C966 C507 1.009 . S
C975 C97 0.722 . S
C977 C478 0.721 . S
C988 C511 1.139 . S
C986 C122 1.098 . S
C997 C23 2.819 . S
C999 C465 2.831 . S
C1008 C217 0.870 . S
C1010 C504 0.850 . S
C1021 C456 2.452 . S
C1019 C253 2.446 . S
C1032 C471 1.145 . S
C1030 C183 1.169 . S
