# Generated by pormake.
# Topology zzz, (3,6)-cn, num edge types: 1
# Building blocks:
#     Node 0, Type 0, BuildingBlock: OLANEW_clean_sbu_2, # of connection points: 3
#     Node 1, Type 0, BuildingBlock: OLANEW_clean_sbu_2, # of connection points: 3
#     Node 2, Type 0, BuildingBlock: OLANEW_clean_sbu_2, # of connection points: 3
#     Node 3, Type 0, BuildingBlock: OLANEW_clean_sbu_2, # of connection points: 3
#     Node 4, Type 0, BuildingBlock: OLANEW_clean_sbu_2, # of connection points: 3
#     Node 5, Type 0, BuildingBlock: OLANEW_clean_sbu_2, # of connection points: 3
#     Node 6, Type 0, BuildingBlock: OLANEW_clean_sbu_2, # of connection points: 3
#     Node 7, Type 0, BuildingBlock: OLANEW_clean_sbu_2, # of connection points: 3
#     Node 8, Type 1, BuildingBlock: INOVEN_clean_sbu_0, # of connection points: 6
#     Node 9, Type 1, BuildingBlock: INOVEN_clean_sbu_0, # of connection points: 6
#     Node 10, Type 1, BuildingBlock: INOVEN_clean_sbu_0, # of connection points: 6
#     Node 11, Type 1, BuildingBlock: INOVEN_clean_sbu_0, # of connection points: 6
#     Edge 12, Type (0, 1), BuildingBlock: KIFKEQ_clean_linker_1, # of connection points: 2
#     Edge 13, Type (0, 1), BuildingBlock: KIFKEQ_clean_linker_1, # of connection points: 2
#     Edge 14, Type (0, 1), BuildingBlock: KIFKEQ_clean_linker_1, # of connection points: 2
#     Edge 15, Type (0, 1), BuildingBlock: KIFKEQ_clean_linker_1, # of connection points: 2
#     Edge 16, Type (0, 1), BuildingBlock: KIFKEQ_clean_linker_1, # of connection points: 2
#     Edge 17, Type (0, 1), BuildingBlock: KIFKEQ_clean_linker_1, # of connection points: 2
#     Edge 18, Type (0, 1), BuildingBlock: KIFKEQ_clean_linker_1, # of connection points: 2
#     Edge 19, Type (0, 1), BuildingBlock: KIFKEQ_clean_linker_1, # of connection points: 2
#     Edge 20, Type (0, 1), BuildingBlock: KIFKEQ_clean_linker_1, # of connection points: 2
#     Edge 21, Type (0, 1), BuildingBlock: KIFKEQ_clean_linker_1, # of connection points: 2
#     Edge 22, Type (0, 1), BuildingBlock: KIFKEQ_clean_linker_1, # of connection points: 2
#     Edge 23, Type (0, 1), BuildingBlock: KIFKEQ_clean_linker_1, # of connection points: 2
#     Edge 24, Type (0, 1), BuildingBlock: KIFKEQ_clean_linker_1, # of connection points: 2
#     Edge 25, Type (0, 1), BuildingBlock: KIFKEQ_clean_linker_1, # of connection points: 2
#     Edge 26, Type (0, 1), BuildingBlock: KIFKEQ_clean_linker_1, # of connection points: 2
#     Edge 27, Type (0, 1), BuildingBlock: KIFKEQ_clean_linker_1, # of connection points: 2
#     Edge 28, Type (0, 1), BuildingBlock: KIFKEQ_clean_linker_1, # of connection points: 2
#     Edge 29, Type (0, 1), BuildingBlock: KIFKEQ_clean_linker_1, # of connection points: 2
#     Edge 30, Type (0, 1), BuildingBlock: KIFKEQ_clean_linker_1, # of connection points: 2
#     Edge 31, Type (0, 1), BuildingBlock: KIFKEQ_clean_linker_1, # of connection points: 2
#     Edge 32, Type (0, 1), BuildingBlock: KIFKEQ_clean_linker_1, # of connection points: 2
#     Edge 33, Type (0, 1), BuildingBlock: KIFKEQ_clean_linker_1, # of connection points: 2
#     Edge 34, Type (0, 1), BuildingBlock: KIFKEQ_clean_linker_1, # of connection points: 2
#     Edge 35, Type (0, 1), BuildingBlock: KIFKEQ_clean_linker_1, # of connection points: 2
# Relax obj value: 0.237
# Max RMSD: 0.186
# Mean RMSD: 0.170
data_MOF--net-zzz--node1-OLANEW_clean_sbu_2--node2-INOVEN_clean_sbu_0--edge1-KIFKEQ_clean_linker_1
_symmetry_space_group_name_H-M    P1
_symmetry_Int_Tables_number       1
_symmetry_cell_setting            triclinic
loop_
_symmetry_equiv_pos_as_xyz
'x, y, z'
_cell_length_a     57.196788
_cell_length_b     57.304737
_cell_length_c     15.435
_cell_angle_alpha  90.098685
_cell_angle_beta   89.510719
_cell_angle_gamma 90.008476
loop_
_atom_site_label
_atom_site_type_symbol
_atom_site_fract_x
_atom_site_fract_y
_atom_site_fract_z
_atom_type_partial_charge
O0 O 0.7278 0.53242 0.21896 0.0
Cd1 Cd 0.69463 0.54197 0.31336 0.0
O2 O 0.73452 0.5064 0.31842 0.0
Cd3 Cd 0.75803 0.48522 0.3946 0.0
O4 O 0.79086 0.4876 0.46248 0.0
C5 C 0.80527 0.50191 0.42907 0.0
O6 O 0.79946 0.51338 0.35902 0.0
C7 C 0.74071 0.51632 0.24826 0.0
C8 C 0.65297 0.53514 0.22702 0.0
O9 O 0.66325 0.55502 0.22606 0.0
O10 O 0.66227 0.51855 0.2704 0.0
O11 O 0.96593 0.73312 0.28279 0.0
Cd12 Cd 0.95966 0.69642 0.35992 0.0
O13 O 0.00338 0.72971 0.30909 0.0
Cd14 Cd 0.03733 0.74638 0.32275 0.0
O15 O 0.04073 0.7829 0.35668 0.0
C16 C 0.03806 0.78855 0.43567 0.0
O17 O 0.03646 0.77205 0.49443 0.0
C18 C 0.98655 0.74122 0.27664 0.0
C19 C 0.96902 0.65849 0.25256 0.0
O20 O 0.9485 0.66742 0.25726 0.0
O21 O 0.98512 0.66739 0.29954 0.0
O22 O 0.76357 0.99267 0.23041 0.0
Cd23 Cd 0.80246 0.98352 0.28693 0.0
O24 O 0.75352 0.99499 0.36669 0.0
Cd25 Cd 0.73345 0.00163 0.48541 0.0
O26 O 0.73757 0.00597 0.63153 0.0
C27 C 0.72304 0.00077 0.69208 0.0
O28 O 0.73832 0.00631 0.63254 0.0
C29 C 0.74778 0.99617 0.28742 0.0
C30 C 0.83889 0.98591 0.16576 0.0
O31 O 0.82734 0.96698 0.1773 0.0
O32 O 0.83297 0.00384 0.21063 0.0
O33 O 0.53445 0.77515 0.20777 0.0
Cd34 Cd 0.54437 0.80794 0.30207 0.0
O35 O 0.50722 0.77033 0.30548 0.0
Cd36 Cd 0.48426 0.74888 0.3843 0.0
O37 O 0.4866 0.71657 0.45569 0.0
C38 C 0.50208 0.70281 0.42569 0.0
O39 O 0.51449 0.70907 0.35775 0.0
C40 C 0.51745 0.76321 0.23689 0.0
C41 C 0.53786 0.84992 0.21735 0.0
O42 O 0.55782 0.83976 0.21678 0.0
O43 O 0.52101 0.84033 0.25944 0.0
O44 O 0.28052 0.53139 0.08781 0.0
Cd45 Cd 0.31905 0.52688 0.02156 0.0
O46 O 0.27933 0.49321 0.08696 0.0
Cd47 Cd 0.25926 0.46098 0.09306 0.0
O48 O 0.22361 0.45269 0.0583 0.0
C49 C 0.2189 0.45277 0.97807 0.0
O50 O 0.23604 0.45523 0.92158 0.0
C51 C 0.26965 0.51263 0.10511 0.0
C52 C 0.3515 0.51799 0.15022 0.0
O53 O 0.3479 0.53879 0.12301 0.0
O54 O 0.34 0.50129 0.11537 0.0
O55 O 0.98035 0.2782 0.12772 0.0
Cd56 Cd 0.985 0.31625 0.05942 0.0
O57 O 0.01475 0.27074 0.07105 0.0
Cd58 Cd 0.04439 0.24799 0.04247 0.0
O59 O 0.05534 0.21481 0.98751 0.0
C60 C 0.04703 0.21048 0.91316 0.0
O61 O 0.03493 0.2268 0.87404 0.0
C62 C 0.99702 0.26399 0.11466 0.0
C63 C 0.99307 0.35038 0.18337 0.0
O64 O 0.97236 0.34617 0.15635 0.0
O65 O 0.01004 0.33855 0.15095 0.0
O66 O 0.23994 0.0016 0.09477 0.0
Cd67 Cd 0.20391 0.00939 0.01645 0.0
O68 O 0.25155 0.03773 0.07505 0.0
Cd69 Cd 0.23712 0.0384 0.94473 0.0
O70 O 0.26679 0.03324 0.85535 0.0
C71 C 0.27924 0.01544 0.87206 0.0
O72 O 0.27178 0.0008 0.93162 0.0
C73 C 0.25349 0.01835 0.11418 0.0
C74 C 0.1674 0.00967 0.13816 0.0
O75 O 0.17287 0.99104 0.09665 0.0
O76 O 0.17876 0.02836 0.12041 0.0
O77 O 0.5282 0.2272 0.08686 0.0
Cd78 Cd 0.52447 0.18886 0.02023 0.0
O79 O 0.48993 0.22784 0.08878 0.0
Cd80 Cd 0.45731 0.24742 0.09344 0.0
O81 O 0.44948 0.28144 0.03983 0.0
C82 C 0.46368 0.28689 0.97945 0.0
O83 O 0.47967 0.27164 0.95571 0.0
C84 C 0.5093 0.2378 0.10514 0.0
C85 C 0.51605 0.15578 0.14796 0.0
O86 O 0.53689 0.16033 0.12183 0.0
O87 O 0.49907 0.16668 0.11253 0.0
Gd88 Gd 0.01942 0.99037 0.75793 0.0
Gd89 Gd 0.99813 0.00805 0.58898 0.0
C90 C 0.00139 0.95351 0.61219 0.0
C91 C 0.0265 0.96894 0.90292 0.0
C92 C 0.02234 0.94538 0.93994 0.0
C93 C 0.03942 0.92781 0.93266 0.0
C94 C 0.00151 0.94043 0.98544 0.0
C95 C 0.01475 0.90077 0.01405 0.0
C96 C 0.99775 0.91839 0.02187 0.0
C97 C 0.03564 0.90576 0.96897 0.0
C98 C 0.05023 0.99942 0.62897 0.0
C99 C 0.02034 0.04469 0.72903 0.0
C100 C 0.98847 0.02918 0.44561 0.0
C101 C 0.98955 0.05324 0.41245 0.0
C102 C 0.97212 0.06117 0.35648 0.0
C103 C 0.00755 0.06851 0.43682 0.0
C104 C 0.99067 0.09941 0.34889 0.0
C105 C 0.0081 0.09138 0.40539 0.0
C106 C 0.97266 0.08402 0.32493 0.0
C107 C 0.96737 0.99796 0.7166 0.0
O108 O 0.00432 0.95784 0.69573 0.0
O109 O 0.00118 0.97041 0.55417 0.0
O110 O 0.04241 0.97076 0.84178 0.0
O111 O 0.00805 0.98183 0.88821 0.0
O112 O 0.05482 0.00315 0.7102 0.0
O113 O 0.03052 0.99002 0.6214 0.0
O114 O 0.01466 0.04025 0.64764 0.0
O115 O 0.02057 0.02829 0.78891 0.0
O116 O 0.97293 0.02525 0.50645 0.0
O117 O 0.00847 0.01884 0.46 0.0
O118 O 0.96363 0.99354 0.63539 0.0
O119 O 0.98667 0.00823 0.72579 0.0
H120 H 0.05581 0.93111 0.89924 0.0
H121 H 0.98805 0.95359 0.99306 0.0
H122 H 0.98137 0.91508 0.0554 0.0
H123 H 0.04925 0.89272 0.96286 0.0
H124 H 0.95802 0.04968 0.33736 0.0
H125 H 0.02123 0.06273 0.47982 0.0
H126 H 0.02236 0.10267 0.42438 0.0
H127 H 0.95878 0.08971 0.2826 0.0
Gd128 Gd 0.50359 0.01825 0.78952 0.0
Gd129 Gd 0.49614 0.9925 0.61702 0.0
C130 C 0.54827 0.99809 0.67756 0.0
C131 C 0.51839 0.0308 0.9402 0.0
C132 C 0.54041 0.02711 0.987 0.0
C133 C 0.55018 0.04548 0.03463 0.0
C134 C 0.55251 0.00582 0.98063 0.0
C135 C 0.58417 0.02157 0.06744 0.0
C136 C 0.57414 0.00306 0.02078 0.0
C137 C 0.57189 0.04277 0.07438 0.0
C138 C 0.49766 0.04546 0.64926 0.0
C139 C 0.45141 0.0113 0.73301 0.0
C140 C 0.48073 0.98081 0.46704 0.0
C141 C 0.45786 0.98514 0.42696 0.0
C142 C 0.4451 0.96645 0.39242 0.0
C143 C 0.44759 0.00741 0.43072 0.0
C144 C 0.41193 0.99211 0.36787 0.0
C145 C 0.4249 0.01087 0.40097 0.0
C146 C 0.42226 0.96988 0.36338 0.0
C147 C 0.50392 0.96495 0.75351 0.0
O148 O 0.53913 0.00361 0.75406 0.0
O149 O 0.53516 0.99537 0.60807 0.0
O150 O 0.51987 0.04419 0.87183 0.0
O151 O 0.50534 0.01234 0.92774 0.0
O152 O 0.48956 0.05094 0.72554 0.0
O153 O 0.50923 0.0269 0.65276 0.0
O154 O 0.46002 0.00604 0.65533 0.0
O155 O 0.46503 0.01448 0.80053 0.0
O156 O 0.4803 0.96664 0.53346 0.0
O157 O 0.49404 0.99912 0.47939 0.0
O158 O 0.51113 0.96001 0.67557 0.0
O159 O 0.49161 0.9832 0.75404 0.0
H160 H 0.54116 0.06205 0.03998 0.0
H161 H 0.54548 0.99145 0.94326 0.0
H162 H 0.58332 0.98664 0.01324 0.0
H163 H 0.57909 0.05727 0.1105 0.0
H164 H 0.4526 0.9491 0.3898 0.0
H165 H 0.45683 0.02208 0.45863 0.0
H166 H 0.41725 0.02812 0.40613 0.0
H167 H 0.41268 0.95517 0.33747 0.0
Gd168 Gd 0.48526 0.50566 0.79836 0.0
Gd169 Gd 0.51023 0.48697 0.63362 0.0
C170 C 0.51111 0.54146 0.66438 0.0
C171 C 0.47496 0.52839 0.93847 0.0
C172 C 0.47932 0.55235 0.96994 0.0
C173 C 0.46155 0.56446 0.01414 0.0
C174 C 0.50079 0.56356 0.95417 0.0
C175 C 0.48662 0.59869 0.02688 0.0
C176 C 0.50443 0.58646 0.9827 0.0
C177 C 0.46512 0.58743 0.04215 0.0
C178 C 0.4581 0.49883 0.65886 0.0
C179 C 0.48406 0.45126 0.7697 0.0
C180 C 0.52133 0.46668 0.48913 0.0
C181 C 0.51948 0.44347 0.44894 0.0
C182 C 0.53625 0.43659 0.38735 0.0
C183 C 0.50133 0.42807 0.47128 0.0
C184 C 0.51678 0.39908 0.37018 0.0
C185 C 0.49997 0.40608 0.4321 0.0
C186 C 0.53494 0.41461 0.34832 0.0
C187 C 0.53792 0.49588 0.76875 0.0
O188 O 0.50405 0.53711 0.74452 0.0
O189 O 0.51248 0.52504 0.6044 0.0
O190 O 0.46064 0.52651 0.87321 0.0
O191 O 0.49319 0.51467 0.93116 0.0
O192 O 0.4509 0.49504 0.73773 0.0
O193 O 0.47845 0.50703 0.65885 0.0
O194 O 0.49189 0.45524 0.6899 0.0
O195 O 0.48233 0.46792 0.82859 0.0
O196 O 0.53565 0.46843 0.55447 0.0
O197 O 0.50174 0.47813 0.50131 0.0
O198 O 0.54434 0.49912 0.68878 0.0
O199 O 0.51792 0.48672 0.77287 0.0
H200 H 0.44483 0.55617 0.0267 0.0
H201 H 0.51473 0.55471 0.91931 0.0
H202 H 0.52108 0.59473 0.9689 0.0
H203 H 0.45113 0.5963 0.0766 0.0
H204 H 0.55037 0.44827 0.36925 0.0
H205 H 0.48824 0.43303 0.51899 0.0
H206 H 0.48593 0.39442 0.45118 0.0
H207 H 0.54801 0.40988 0.3002 0.0
Gd208 Gd 0.00121 0.49163 0.81319 0.0
Gd209 Gd 0.02074 0.51575 0.64948 0.0
C210 C 0.96583 0.5157 0.67515 0.0
C211 C 0.97786 0.48176 0.95256 0.0
C212 C 0.9535 0.48529 0.98214 0.0
C213 C 0.94174 0.46722 0.02548 0.0
C214 C 0.94156 0.50621 0.96532 0.0
C215 C 0.90646 0.49094 0.03565 0.0
C216 C 0.91831 0.50904 0.99221 0.0
C217 C 0.91842 0.46997 0.05178 0.0
C218 C 0.0093 0.46363 0.67586 0.0
C219 C 0.05573 0.48974 0.78661 0.0
C220 C 0.04172 0.5266 0.50584 0.0
C221 C 0.06493 0.52452 0.46474 0.0
C222 C 0.07165 0.54089 0.40197 0.0
C223 C 0.08039 0.50651 0.48682 0.0
C224 C 0.10912 0.52128 0.38291 0.0
C225 C 0.10229 0.50486 0.446 0.0
C226 C 0.09354 0.53932 0.36148 0.0
C227 C 0.01065 0.54414 0.78301 0.0
O228 O 0.96966 0.50918 0.75589 0.0
O229 O 0.9828 0.51721 0.61686 0.0
O230 O 0.98079 0.46695 0.88882 0.0
O231 O 0.99086 0.50048 0.94442 0.0
O232 O 0.01257 0.45708 0.75541 0.0
O233 O 1.00086 0.48385 0.67388 0.0
O234 O 0.05225 0.49753 0.70685 0.0
O235 O 0.0388 0.48849 0.84501 0.0
O236 O 0.04013 0.54081 0.57206 0.0
O237 O 0.02996 0.50721 0.51699 0.0
O238 O 0.00765 0.54988 0.70256 0.0
O239 O 0.02011 0.52433 0.78864 0.0
H240 H 0.95058 0.45091 0.03873 0.0
H241 H 0.95013 0.52035 0.93098 0.0
H242 H 0.90949 0.52529 0.97781 0.0
H243 H 0.90982 0.45578 0.08568 0.0
H244 H 0.05991 0.55488 0.38404 0.0
H245 H 0.07556 0.49376 0.53553 0.0
H246 H 0.114 0.49094 0.46469 0.0
H247 H 0.09814 0.55208 0.31253 0.0
H248 H 0.1386 0.97356 0.18316 0.0
H249 H 0.15504 0.04497 0.24929 0.0
H250 H 0.11 0.97226 0.30093 0.0
H251 H 0.12618 0.04371 0.36686 0.0
H252 H 0.09309 0.02064 0.6305 0.0
H253 H 0.12087 0.0242 0.50941 0.0
H254 H 0.07202 0.98897 0.34196 0.0
H255 H 0.04462 0.98512 0.46272 0.0
C256 C 0.13599 0.98905 0.2224 0.0
C257 C 0.14912 0.00937 0.20679 0.0
C258 C 0.11952 0.98833 0.28971 0.0
C259 C 0.11583 0.00788 0.34332 0.0
C260 C 0.1288 0.02828 0.32729 0.0
C261 C 0.14521 0.02905 0.25954 0.0
C262 C 0.08835 0.01375 0.56766 0.0
C263 C 0.06677 0.00257 0.55599 0.0
C264 C 0.10414 0.0159 0.49826 0.0
C265 C 0.09868 0.00677 0.41615 0.0
C266 C 0.0769 0.99591 0.40458 0.0
C267 C 0.06113 0.99385 0.47365 0.0
H268 H 0.54812 0.12804 0.22677 0.0
H269 H 0.47453 0.14522 0.22851 0.0
H270 H 0.54171 0.10096 0.34569 0.0
H271 H 0.46807 0.11775 0.34742 0.0
H272 H 0.47533 0.08736 0.62882 0.0
H273 H 0.47826 0.11362 0.50384 0.0
H274 H 0.52248 0.06353 0.37204 0.0
H275 H 0.5201 0.03785 0.49683 0.0
C276 C 0.53054 0.12594 0.25219 0.0
C277 C 0.51184 0.13877 0.2182 0.0
C278 C 0.52684 0.11031 0.32006 0.0
C279 C 0.50436 0.10717 0.35566 0.0
C280 C 0.48561 0.11995 0.32167 0.0
C281 C 0.4893 0.13556 0.25331 0.0
C282 C 0.4855 0.08199 0.57273 0.0
C283 C 0.49753 0.06066 0.57246 0.0
C284 C 0.48708 0.09691 0.50114 0.0
C285 C 0.50078 0.0907 0.42852 0.0
C286 C 0.51211 0.06897 0.42755 0.0
C287 C 0.51056 0.05416 0.49878 0.0
H288 H 0.38273 0.54843 0.22018 0.0
H289 H 0.3575 0.47754 0.24133 0.0
H290 H 0.40896 0.54171 0.3411 0.0
H291 H 0.3839 0.47085 0.36267 0.0
H292 H 0.41331 0.4826 0.64433 0.0
H293 H 0.38796 0.48556 0.5174 0.0
H294 H 0.44432 0.51778 0.37298 0.0
H295 H 0.4694 0.51504 0.49915 0.0
C296 C 0.38286 0.53138 0.25037 0.0
C297 C 0.36805 0.51352 0.22125 0.0
C298 C 0.39797 0.5275 0.31934 0.0
C299 C 0.39846 0.50575 0.36113 0.0
C300 C 0.38373 0.48783 0.33194 0.0
C301 C 0.36875 0.49164 0.26225 0.0
C302 C 0.42025 0.4901 0.58511 0.0
C303 C 0.44322 0.49868 0.58152 0.0
C304 C 0.40584 0.4917 0.51251 0.0
C305 C 0.41416 0.50207 0.43567 0.0
C306 C 0.43736 0.50999 0.43169 0.0
C307 C 0.45174 0.50827 0.50378 0.0
H308 H 0.03327 0.3583 0.27342 0.0
H309 H 0.96204 0.38228 0.24719 0.0
H310 H 0.03937 0.38661 0.38983 0.0
H311 H 0.96817 0.41044 0.36325 0.0
H312 H 0.99375 0.47306 0.51412 0.0
H313 H 0.99172 0.44651 0.39092 0.0
H314 H 0.02396 0.39233 0.54315 0.0
H315 H 0.02613 0.41909 0.66687 0.0
C316 C 0.01898 0.36968 0.29216 0.0
C317 C 0.99716 0.36805 0.25131 0.0
C318 C 0.02245 0.38577 0.359 0.0
C319 C 0.00426 0.4007 0.38541 0.0
C320 C 0.98258 0.39931 0.34356 0.0
C321 C 0.97904 0.3831 0.27744 0.0
C322 C 1.00066 0.45557 0.52101 0.0
C323 C 0.01 0.44804 0.60003 0.0
C324 C 0.99937 0.44035 0.45067 0.0
C325 C 0.00751 0.41734 0.45777 0.0
C326 C 0.01766 0.41004 0.53584 0.0
C327 C 0.01881 0.42527 0.60662 0.0
H328 H 0.86764 0.02295 0.13078 0.0
H329 H 0.85483 0.95118 0.05897 0.0
H330 H 0.89969 0.02478 0.02567 0.0
H331 H 0.88708 0.95294 0.95485 0.0
H332 H 0.92567 0.97559 0.70502 0.0
H333 H 0.89539 0.97203 0.81641 0.0
H334 H 0.93918 0.00929 0.99669 0.0
H335 H 0.96935 0.01319 0.8843 0.0
C336 C 0.87171 0.00754 0.09283 0.0
C337 C 0.85858 0.98696 0.10288 0.0
C338 C 0.8902 0.00854 0.03307 0.0
C339 C 0.89592 0.98901 0.98182 0.0
C340 C 0.88293 0.96837 0.99257 0.0
C341 C 0.8645 0.96735 0.05248 0.0
C342 C 0.92886 0.9829 0.7686 0.0
C343 C 0.9498 0.9947 0.78606 0.0
C344 C 0.91158 0.98075 0.83259 0.0
C345 C 0.91485 0.99041 0.91541 0.0
C346 C 0.93602 0.00189 0.93323 0.0
C347 C 0.95336 0.00398 0.86918 0.0
H348 H 0.49648 0.87221 0.1873 0.0
H349 H 0.57054 0.87568 0.13053 0.0
H350 H 0.48949 0.90355 0.08415 0.0
H351 H 0.56358 0.90737 0.02899 0.0
H352 H 0.48566 0.96866 0.91722 0.0
H353 H 0.49553 0.94475 0.04325 0.0
H354 H 0.54549 0.90644 0.8867 0.0
H355 H 0.53606 0.93056 0.76248 0.0
C356 C 0.51132 0.87999 0.15419 0.0
C357 C 0.53401 0.87121 0.16579 0.0
C358 C 0.50732 0.89805 0.09551 0.0
C359 C 0.52596 0.90767 0.04766 0.0
C360 C 0.54882 0.89995 0.06374 0.0
C361 C 0.55281 0.88185 0.12207 0.0
C362 C 0.49896 0.95531 0.91053 0.0
C363 C 0.51009 0.95134 0.83047 0.0
C364 C 0.50452 0.94159 0.98231 0.0
C365 C 0.52134 0.92379 0.97491 0.0
C366 C 0.53275 0.92027 0.89497 0.0
C367 C 0.52717 0.9339 0.82353 0.0
H368 H 0.62991 0.56657 0.12653 0.0
H369 H 0.62851 0.49446 0.20848 0.0
H370 H 0.59863 0.5586 0.0245 0.0
H371 H 0.59738 0.4865 0.10543 0.0
H372 H 0.57558 0.5243 0.76702 0.0
H373 H 0.59996 0.53546 0.88867 0.0
H374 H 0.55602 0.49512 0.06143 0.0
H375 H 0.53161 0.4837 0.93847 0.0
C376 C 0.62273 0.54909 0.12361 0.0
C377 C 0.63191 0.53105 0.17457 0.0
C378 C 0.60487 0.54454 0.06503 0.0
C379 C 0.59582 0.52188 0.05635 0.0
C380 C 0.60396 0.50416 0.1111 0.0
C381 C 0.62188 0.5087 0.16969 0.0
C382 C 0.57107 0.51791 0.83104 0.0
C383 C 0.55183 0.50311 0.84364 0.0
C384 C 0.58487 0.52449 0.90081 0.0
C385 C 0.57979 0.51626 0.98456 0.0
C386 C 0.56033 0.50165 0.99744 0.0
C387 C 0.54637 0.4952 0.92741 0.0
H388 H 0.01049 0.63542 0.22892 0.0
H389 H 0.93914 0.63769 0.13925 0.0
H390 H 0.01963 0.60567 0.12034 0.0
H391 H 0.94826 0.60783 0.03156 0.0
H392 H 0.98347 0.58269 0.7781 0.0
H393 H 0.97248 0.60823 0.89791 0.0
H394 H 0.01089 0.5645 0.07458 0.0
H395 H 0.02213 0.53893 0.9536 0.0
C396 C 0.9967 0.62939 0.18675 0.0
C397 C 0.97415 0.63907 0.1921 0.0
C398 C 0.00191 0.61225 0.12498 0.0
C399 C 0.98469 0.60457 0.06715 0.0
C400 C 0.96195 0.61367 0.07454 0.0
C401 C 0.95672 0.63071 0.13644 0.0
C402 C 0.9895 0.57849 0.84257 0.0
C403 C 0.00365 0.5589 0.85682 0.0
C404 C 0.98306 0.593 0.91127 0.0
C405 C 0.99075 0.5883 0.99565 0.0
C406 C 0.00482 0.56859 0.01008 0.0
C407 C 0.01114 0.55392 0.94115 0.0
H408 H 0.97989 0.24999 0.27132 0.0
H409 H 0.00956 0.2238 0.03281 0.0
H410 H 0.97783 0.2102 0.32821 0.0
H411 H 0.00881 0.1842 0.09048 0.0
H412 H 0.98104 0.11414 0.18435 0.0
H413 H 0.9816 0.15385 0.12849 0.0
H414 H 0.00329 0.17929 0.37895 0.0
H415 H 0.00178 0.13963 0.43584 0.0
C416 C 0.9862 0.2357 0.2315 0.0
C417 C 0.9956 0.23997 0.14874 0.0
C418 C 0.98521 0.21295 0.2642 0.0
C419 C 0.99339 0.19399 0.21436 0.0
C420 C 0.00233 0.19833 0.13072 0.0
C421 C 0.00326 0.22106 0.09821 0.0
C422 C 0.98567 0.12822 0.22782 0.0
C423 C 0.99131 0.12367 0.31467 0.0
C424 C 0.98627 0.15098 0.19548 0.0
C425 C 0.99254 0.16979 0.24914 0.0
C426 C 0.99815 0.16525 0.33606 0.0
C427 C 0.99756 0.14247 0.36841 0.0
H428 H 0.28102 0.05116 0.19078 0.0
H429 H 0.2721 0.97664 0.16391 0.0
H430 H 0.31808 0.04484 0.26352 0.0
H431 H 0.30958 0.97031 0.23358 0.0
H432 H 0.37334 0.96593 0.407 0.0
H433 H 0.33312 0.97256 0.36066 0.0
H434 H 0.35591 0.03305 0.21567 0.0
H435 H 0.39578 0.02671 0.2639 0.0
C436 C 0.28687 0.03342 0.20127 0.0
C437 C 0.27375 0.01441 0.17097 0.0
C438 C 0.30821 0.02979 0.24227 0.0
C439 C 0.31706 0.00708 0.25287 0.0
C440 C 0.30327 0.98802 0.22699 0.0
C441 C 0.28177 0.99165 0.18685 0.0
C442 C 0.36965 0.98059 0.36505 0.0
C443 C 0.38762 0.99581 0.33892 0.0
C444 C 0.34665 0.98441 0.33856 0.0
C445 C 0.34122 0.00343 0.28487 0.0
C446 C 0.35931 0.01857 0.25871 0.0
C447 C 0.3822 0.01487 0.28579 0.0
H448 H 0.479 0.25777 0.22107 0.0
H449 H 0.54173 0.27157 0.07253 0.0
H450 H 0.48035 0.29713 0.28097 0.0
H451 H 0.54324 0.31101 0.13274 0.0
H452 H 0.55267 0.36868 0.33721 0.0
H453 H 0.55062 0.3302 0.27022 0.0
H454 H 0.47595 0.33802 0.24179 0.0
H455 H 0.47801 0.37651 0.30933 0.0
C456 C 0.49278 0.26941 0.19971 0.0
C457 C 0.50997 0.26177 0.14069 0.0
C458 C 0.49364 0.29195 0.23437 0.0
C459 C 0.51184 0.30729 0.21141 0.0
C460 C 0.5291 0.29957 0.15251 0.0
C461 C 0.52822 0.27702 0.11782 0.0
C462 C 0.53584 0.36229 0.31595 0.0
C463 C 0.51549 0.37566 0.32875 0.0
C464 C 0.53467 0.34023 0.27739 0.0
C465 C 0.51312 0.33101 0.25056 0.0
C466 C 0.49278 0.34445 0.2629 0.0
C467 C 0.49395 0.3665 0.30163 0.0
H468 H 0.23589 0.54521 0.07615 0.0
H469 H 0.24994 0.48269 0.22212 0.0
H470 H 0.1966 0.54696 0.13942 0.0
H471 H 0.21073 0.48424 0.28488 0.0
H472 H 0.13131 0.48233 0.32009 0.0
H473 H 0.16958 0.47999 0.24914 0.0
H474 H 0.1779 0.55452 0.27818 0.0
H475 H 0.13963 0.55685 0.34821 0.0
C476 C 0.23052 0.53178 0.12144 0.0
C477 C 0.24577 0.51349 0.14256 0.0
C478 C 0.20806 0.5328 0.1579 0.0
C479 C 0.20044 0.51564 0.21687 0.0
C480 C 0.21581 0.49743 0.23822 0.0
C481 C 0.23825 0.49646 0.20186 0.0
C482 C 0.14139 0.49818 0.31173 0.0
C483 C 0.13244 0.51977 0.33985 0.0
C484 C 0.16331 0.49685 0.27108 0.0
C485 C 0.17683 0.51707 0.25793 0.0
C486 C 0.16781 0.53866 0.2859 0.0
C487 C 0.14588 0.53999 0.32624 0.0
H488 H 0.95793 0.77922 0.28344 0.0
H489 H 0.02382 0.75534 0.17803 0.0
H490 H 0.96457 0.81763 0.21938 0.0
H491 H 0.03111 0.79398 0.11758 0.0
H492 H 0.02506 0.85807 0.94341 0.0
H493 H 0.01816 0.81963 0.00583 0.0
H494 H 0.98836 0.85182 0.23473 0.0
H495 H 0.99528 0.89026 0.17224 0.0
C496 C 0.97392 0.78226 0.24707 0.0
C497 C 0.99059 0.76444 0.23732 0.0
C498 C 0.97785 0.80433 0.21099 0.0
C499 C 0.99847 0.80902 0.16371 0.0
C500 C 0.01496 0.791 0.153 0.0
C501 C 0.01099 0.76895 0.1889 0.0
C502 C 0.01725 0.85695 0.00744 0.0
C503 C 0.01072 0.87728 0.05271 0.0
C504 C 0.0133 0.83489 0.04334 0.0
C505 C 0.00273 0.83256 0.12554 0.0
C506 C 0.99625 0.85291 0.17087 0.0
C507 C 1.0002 0.87498 0.13497 0.0
H508 H 0.70697 0.98813 0.37747 0.0
H509 H 0.73376 0.01548 0.13571 0.0
H510 H 0.66711 0.99581 0.33005 0.0
H511 H 0.69391 0.02257 0.08735 0.0
H512 H 0.62047 0.05252 0.06144 0.0
H513 H 0.65967 0.04772 0.12035 0.0
H514 H 0.6404 0.97974 0.21807 0.0
H515 H 0.60105 0.98472 0.16043 0.0
C516 C 0.70441 0.99617 0.31497 0.0
C517 C 0.72356 0.00156 0.26096 0.0
C518 C 0.68154 0.00025 0.28724 0.0
C519 C 0.67737 0.00984 0.20502 0.0
C520 C 0.69655 0.01545 0.15149 0.0
C521 C 0.71937 0.01124 0.17897 0.0
C522 C 0.62452 0.03668 0.09647 0.0
C523 C 0.60769 0.01899 0.10628 0.0
C524 C 0.64702 0.03385 0.12952 0.0
C525 C 0.65313 0.01334 0.17369 0.0
C526 C 0.63616 0.99583 0.185 0.0
C527 C 0.61371 0.99858 0.15131 0.0
H528 H 0.47513 0.74066 0.23367 0.0
H529 H 0.54706 0.73394 0.15062 0.0
H530 H 0.46731 0.70094 0.18414 0.0
H531 H 0.53907 0.69472 0.09727 0.0
H532 H 0.52505 0.61662 0.10754 0.0
H533 H 0.53167 0.65666 0.15485 0.0
H534 H 0.46363 0.67622 0.05938 0.0
H535 H 0.45689 0.63599 0.01366 0.0
C536 C 0.48926 0.73069 0.20478 0.0
C537 C 0.51187 0.74019 0.19827 0.0
C538 C 0.48472 0.70802 0.17529 0.0
C539 C 0.50264 0.69441 0.13776 0.0
C540 C 0.52498 0.70441 0.12776 0.0
C541 C 0.52951 0.72702 0.15741 0.0
C542 C 0.51156 0.6295 0.09625 0.0
C543 C 0.49048 0.62312 0.05655 0.0
C544 C 0.51537 0.65251 0.12312 0.0
C545 C 0.49828 0.66981 0.11034 0.0
C546 C 0.47709 0.66336 0.07121 0.0
C547 C 0.47322 0.64029 0.04486 0.0
H548 H 0.76874 0.54671 0.16062 0.0
H549 H 0.76448 0.47481 0.2419 0.0
H550 H 0.80814 0.53996 0.10468 0.0
H551 H 0.80435 0.46819 0.18933 0.0
H552 H 0.8702 0.46001 0.01963 0.0
H553 H 0.82947 0.46539 0.06421 0.0
H554 H 0.84635 0.53395 0.16259 0.0
H555 H 0.88685 0.5287 0.1164 0.0
C556 C 0.77623 0.52943 0.16632 0.0
C557 C 0.76376 0.51144 0.20763 0.0
C558 C 0.79893 0.5256 0.13512 0.0
C559 C 0.80968 0.50365 0.14397 0.0
C560 C 0.79669 0.48533 0.18138 0.0
C561 C 0.77394 0.48917 0.21258 0.0
C562 C 0.86518 0.47618 0.05112 0.0
C563 C 0.88172 0.49399 0.06407 0.0
C564 C 0.84184 0.47926 0.0768 0.0
C565 C 0.83451 0.50018 0.11647 0.0
C566 C 0.85118 0.51784 0.13035 0.0
C567 C 0.87445 0.51482 0.10416 0.0
H568 H 0.0257 0.19451 0.7675 0.0
H569 H 0.06884 0.17211 0.98038 0.0
H570 H 0.02145 0.15428 0.72085 0.0
H571 H 0.06522 0.13176 0.93181 0.0
H572 H 0.0255 0.06273 0.8918 0.0
H573 H 0.03496 0.10275 0.93122 0.0
H574 H 0.04027 0.12091 0.66002 0.0
H575 H 0.0301 0.08111 0.62071 0.0
C576 C 0.03468 0.18104 0.80337 0.0
C577 C 0.04745 0.18649 0.87807 0.0
C578 C 0.03233 0.15793 0.77632 0.0
C579 C 0.04284 0.13975 0.82298 0.0
C580 C 0.05653 0.14532 0.89539 0.0
C581 C 0.05877 0.16846 0.92279 0.0
C582 C 0.02877 0.07524 0.84059 0.0
C583 C 0.02684 0.06878 0.75312 0.0
C584 C 0.03439 0.09816 0.86318 0.0
C585 C 0.03839 0.11506 0.79878 0.0
C586 C 0.03695 0.10843 0.71127 0.0
C587 C 0.03115 0.08557 0.68872 0.0
H588 H 0.31215 0.98372 0.91914 0.0
H589 H 0.30116 0.04204 0.74694 0.0
H590 H 0.35326 0.98282 0.87801 0.0
H591 H 0.34265 0.04088 0.70513 0.0
H592 H 0.41708 0.01268 0.60911 0.0
H593 H 0.3746 0.01303 0.63303 0.0
H594 H 0.38541 0.01301 0.9094 0.0
H595 H 0.4275 0.01287 0.88626 0.0
C596 C 0.31838 0.99614 0.87143 0.0
C597 C 0.30335 0.0131 0.83688 0.0
C598 C 0.342 0.99567 0.84826 0.0
C599 C 0.35117 0.01195 0.78922 0.0
C600 C 0.33599 0.02812 0.75079 0.0
C601 C 0.31228 0.0288 0.77487 0.0
C602 C 0.41037 0.01289 0.67494 0.0
C603 C 0.42572 0.0127 0.74579 0.0
C604 C 0.38608 0.01315 0.68848 0.0
C605 C 0.37677 0.01283 0.77303 0.0
C606 C 0.39212 0.01296 0.84353 0.0
C607 C 0.41626 0.01302 0.83014 0.0
H608 H 0.43411 0.32324 0.01629 0.0
H609 H 0.49326 0.3038 0.85561 0.0
H610 H 0.43604 0.36287 0.95875 0.0
H611 H 0.49553 0.34336 0.80002 0.0
H612 H 0.48416 0.41215 0.66746 0.0
H613 H 0.47607 0.37214 0.71158 0.0
H614 H 0.46241 0.39577 0.9732 0.0
H615 H 0.46989 0.43575 0.92893 0.0
C616 C 0.44741 0.32738 0.96839 0.0
C617 C 0.46358 0.31043 0.94076 0.0
C618 C 0.4486 0.35009 0.93578 0.0
C619 C 0.46598 0.35627 0.87504 0.0
C620 C 0.48172 0.33911 0.84579 0.0
C621 C 0.48051 0.31644 0.8782 0.0
C622 C 0.47922 0.40885 0.7342 0.0
C623 C 0.47782 0.42715 0.79476 0.0
C624 C 0.47467 0.3859 0.75954 0.0
C625 C 0.46869 0.38077 0.84596 0.0
C626 C 0.46667 0.39916 0.90588 0.0
C627 C 0.47115 0.42209 0.88054 0.0
H628 H 0.20238 0.44818 0.81348 0.0
H629 H 0.18013 0.46076 0.07775 0.0
H630 H 0.16247 0.45455 0.76435 0.0
H631 H 0.14057 0.46796 0.02864 0.0
H632 H 0.06762 0.46342 0.92626 0.0
H633 H 0.10645 0.45108 0.96937 0.0
H634 H 0.13618 0.48655 0.74727 0.0
H635 H 0.09714 0.49815 0.7023 0.0
C636 C 0.18893 0.45213 0.8611 0.0
C637 C 0.19438 0.45395 0.94941 0.0
C638 C 0.16611 0.45599 0.8329 0.0
C639 C 0.14832 0.46194 0.89239 0.0
C640 C 0.15371 0.46306 0.98107 0.0
C641 C 0.17645 0.45899 0.0093 0.0
C642 C 0.08243 0.46855 0.88647 0.0
C643 C 0.07934 0.48194 0.81129 0.0
C644 C 0.10472 0.46153 0.91137 0.0
C645 C 0.12448 0.46795 0.86223 0.0
C646 C 0.12133 0.48102 0.78608 0.0
C647 C 0.09897 0.48783 0.76061 0.0
H648 H 0.04208 0.80906 0.59432 0.0
H649 H 0.02179 0.82283 0.33049 0.0
H650 H 0.03125 0.84874 0.63487 0.0
H651 H 0.00959 0.86192 0.37151 0.0
H652 H 0.01397 0.93809 0.45199 0.0
H653 H 0.02281 0.89841 0.40889 0.0
H654 H 0.99993 0.8738 0.66068 0.0
H655 H 0.99243 0.91394 0.70536 0.0
C656 C 0.03524 0.8206 0.54512 0.0
C657 C 0.03296 0.81296 0.45923 0.0
C658 C 0.02872 0.84326 0.56846 0.0
C659 C 0.0193 0.8586 0.50669 0.0
C660 C 0.01709 0.85082 0.42063 0.0
C661 C 0.02407 0.82836 0.39701 0.0
C662 C 0.01045 0.92418 0.49771 0.0
C663 C 0.00256 0.92912 0.58213 0.0
C664 C 0.0155 0.90131 0.47292 0.0
C665 C 0.01233 0.88276 0.53144 0.0
C666 C 0.00321 0.88765 0.61455 0.0
C667 C 0.9986 0.91062 0.63992 0.0
H668 H 0.69579 0.01464 0.55292 0.0
H669 H 0.69448 0.97607 0.79277 0.0
H670 H 0.65333 0.01066 0.54217 0.0
H671 H 0.65234 0.97134 0.78095 0.0
H672 H 0.57935 0.00083 0.80934 0.0
H673 H 0.62141 0.99837 0.80229 0.0
H674 H 0.61835 0.98612 0.52623 0.0
H675 H 0.5756 0.98922 0.53292 0.0
C676 C 0.68653 0.00464 0.60174 0.0
C677 C 0.69835 0.99557 0.67382 0.0
C678 C 0.66218 0.00237 0.59568 0.0
C679 C 0.64935 0.991 0.66147 0.0
C680 C 0.66156 0.9807 0.73025 0.0
C681 C 0.68572 0.98323 0.73678 0.0
C682 C 0.58747 0.99747 0.74691 0.0
C683 C 0.57399 0.99524 0.67163 0.0
C684 C 0.61172 0.99585 0.74301 0.0
C685 C 0.62334 0.99178 0.66381 0.0
C686 C 0.60994 0.98935 0.58823 0.0
C687 C 0.58546 0.99101 0.59213 0.0
H688 H 0.50083 0.692 0.59685 0.0
H689 H 0.51258 0.6626 0.34269 0.0
H690 H 0.50817 0.65406 0.66215 0.0
H691 H 0.51792 0.62424 0.40615 0.0
H692 H 0.53871 0.55859 0.5341 0.0
H693 H 0.54047 0.59882 0.48323 0.0
H694 H 0.49083 0.61883 0.68349 0.0
H695 H 0.49073 0.57932 0.7376 0.0
C696 C 0.5047 0.67724 0.55516 0.0
C697 C 0.50606 0.67998 0.46515 0.0
C698 C 0.50881 0.65546 0.59226 0.0
C699 C 0.51354 0.63586 0.53968 0.0
C700 C 0.51492 0.63887 0.44924 0.0
C701 C 0.51156 0.66079 0.41253 0.0
C702 C 0.5286 0.57181 0.56788 0.0
C703 C 0.51451 0.56592 0.63924 0.0
C704 C 0.52937 0.59482 0.53838 0.0
C705 C 0.51548 0.61217 0.57811 0.0
C706 C 0.5021 0.60623 0.65173 0.0
C707 C 0.50188 0.58344 0.6826 0.0
H708 H 0.81561 0.50224 0.60035 0.0
H709 H 0.84601 0.51115 0.34576 0.0
H710 H 0.85336 0.51024 0.6657 0.0
H711 H 0.88423 0.5172 0.40968 0.0
H712 H 0.949 0.54102 0.53943 0.0
H713 H 0.90909 0.54102 0.48508 0.0
H714 H 0.88872 0.49351 0.69025 0.0
H715 H 0.92784 0.49513 0.74746 0.0
C716 C 0.83055 0.50559 0.55856 0.0
C717 C 0.82811 0.506 0.4684 0.0
C718 C 0.85223 0.51007 0.59574 0.0
C719 C 0.87206 0.51428 0.54324 0.0
C720 C 0.8694 0.51461 0.45261 0.0
C721 C 0.84757 0.51085 0.4157 0.0
C722 C 0.93576 0.531 0.57348 0.0
C723 C 0.94146 0.51806 0.64731 0.0
C724 C 0.91295 0.53075 0.54198 0.0
C725 C 0.89558 0.51699 0.58232 0.0
C726 C 0.90132 0.50467 0.65797 0.0
C727 C 0.92389 0.50546 0.69069 0.0
loop_
_geom_bond_atom_site_label_1
_geom_bond_atom_site_label_2
_geom_bond_distance
_geom_bond_site_symmetry_2
_ccdc_geom_bond_type
O0 Cd1 2.300 . S
O0 C7 1.275 . S
Cd1 O0 2.300 . S
Cd1 O9 2.381 . S
Cd1 O10 2.378 . S
O2 Cd3 2.385 . S
O2 C7 1.255 . S
Cd3 O2 2.385 . S
Cd3 O4 2.317 . S
O4 Cd3 2.317 . S
O4 C5 1.232 . S
C5 O4 1.232 . S
C5 O6 1.218 . S
O6 C5 1.218 . S
C7 O0 1.275 . S
C7 O2 1.255 . S
C8 O9 1.258 . S
C8 O10 1.256 . S
O9 Cd1 2.381 . S
O9 C8 1.258 . S
O10 Cd1 2.378 . S
O10 C8 1.256 . S
O11 Cd12 2.300 1_655 S
O11 C18 1.275 1_655 S
Cd12 O11 2.300 1_455 S
Cd12 O20 2.381 1_455 S
Cd12 O21 2.378 . S
O13 Cd14 2.385 . S
O13 C18 1.255 . S
Cd14 O13 2.385 . S
Cd14 O15 2.317 . S
O15 Cd14 2.317 . S
O15 C16 1.232 . S
C16 O15 1.232 . S
C16 O17 1.218 . S
O17 C16 1.218 . S
C18 O11 1.275 1_455 S
C18 O13 1.255 . S
C19 O20 1.258 1_455 S
C19 O21 1.256 . S
O20 Cd12 2.381 1_655 S
O20 C19 1.258 1_655 S
O21 Cd12 2.378 . S
O21 C19 1.256 . S
O22 Cd23 2.300 1_565 S
O22 C29 1.275 1_565 S
Cd23 O22 2.300 1_545 S
Cd23 O31 2.381 1_545 S
Cd23 O32 2.378 . S
O24 Cd25 2.385 . S
O24 C29 1.255 . S
Cd25 O24 2.385 . S
Cd25 O26 2.317 . S
O26 Cd25 2.317 . S
O26 C27 1.232 . S
C27 O26 1.232 . S
C27 O28 1.218 . S
O28 C27 1.218 . S
C29 O22 1.275 1_545 S
C29 O24 1.255 . S
C30 O31 1.251 1_545 S
C30 O32 1.264 . S
O31 Cd23 2.381 1_565 S
O31 C30 1.251 1_565 S
O32 Cd23 2.378 . S
O32 C30 1.264 . S
O33 Cd34 2.300 . S
O33 C40 1.275 . S
Cd34 O33 2.300 . S
Cd34 O42 2.381 . S
Cd34 O43 2.378 . S
O35 Cd36 2.385 . S
O35 C40 1.255 . S
Cd36 O35 2.385 . S
Cd36 O37 2.317 . S
O37 Cd36 2.317 . S
O37 C38 1.232 . S
C38 O37 1.232 . S
C38 O39 1.218 . S
O39 C38 1.218 . S
C40 O33 1.275 . S
C40 O35 1.255 . S
C41 O42 1.258 . S
C41 O43 1.256 . S
O42 Cd34 2.381 . S
O42 C41 1.258 . S
O43 Cd34 2.378 . S
O43 C41 1.256 . S
O44 Cd45 2.300 . S
O44 C51 1.275 . S
Cd45 O44 2.300 . S
Cd45 O53 2.381 . S
Cd45 O54 2.378 . S
O46 Cd47 2.385 1_554 S
O46 C51 1.255 . S
Cd47 O46 2.385 1_556 S
Cd47 O48 2.317 . S
O48 Cd47 2.317 . S
O48 C49 1.232 . S
C49 O48 1.232 . S
C49 O50 1.218 . S
O50 C49 1.218 . S
C51 O44 1.275 . S
C51 O46 1.255 . S
C52 O53 1.258 . S
C52 O54 1.256 . S
O53 Cd45 2.381 . S
O53 C52 1.258 . S
O54 Cd45 2.378 . S
O54 C52 1.256 . S
O55 Cd56 2.300 . S
O55 C62 1.275 . S
Cd56 O55 2.300 . S
Cd56 O64 2.354 1_455 S
Cd56 O65 2.378 . S
O57 Cd58 2.385 1_554 S
O57 C62 1.255 . S
Cd58 O57 2.385 1_556 S
Cd58 O59 2.317 . S
O59 Cd58 2.317 . S
O59 C60 1.232 . S
C60 O59 1.232 . S
C60 O61 1.218 . S
O61 C60 1.218 . S
C62 O55 1.275 . S
C62 O57 1.255 . S
C63 O64 1.233 1_455 S
C63 O65 1.256 . S
O64 Cd56 2.354 1_655 S
O64 C63 1.233 1_655 S
O65 Cd56 2.378 . S
O65 C63 1.256 . S
O66 Cd67 2.300 . S
O66 C73 1.275 . S
Cd67 O66 2.300 . S
Cd67 O75 2.381 1_545 S
Cd67 O76 2.378 . S
O68 Cd69 2.385 1_554 S
O68 C73 1.255 . S
Cd69 O68 2.385 1_556 S
Cd69 O70 2.317 . S
O70 Cd69 2.317 . S
O70 C71 1.232 . S
C71 O70 1.232 . S
C71 O72 1.218 . S
O72 C71 1.218 . S
C73 O66 1.275 . S
C73 O68 1.255 . S
C74 O75 1.258 1_545 S
C74 O76 1.256 . S
O75 Cd67 2.381 1_565 S
O75 C74 1.258 1_565 S
O76 Cd67 2.378 . S
O76 C74 1.256 . S
O77 Cd78 2.300 . S
O77 C84 1.275 . S
Cd78 O77 2.300 . S
Cd78 O86 2.381 . S
Cd78 O87 2.378 . S
O79 Cd80 2.385 1_554 S
O79 C84 1.255 . S
Cd80 O79 2.385 1_556 S
Cd80 O81 2.317 . S
O81 Cd80 2.317 . S
O81 C82 1.232 . S
C82 O81 1.232 . S
C82 O83 1.218 . S
O83 C82 1.218 . S
C84 O77 1.275 . S
C84 O79 1.255 . S
C85 O86 1.258 . S
C85 O87 1.256 . S
O86 Cd78 2.381 . S
O86 C85 1.258 . S
O87 Cd78 2.378 . S
O87 C85 1.256 . S
Gd88 C91 2.818 . S
Gd88 O108 2.377 . S
Gd88 O110 2.448 . S
Gd88 O111 2.506 . S
Gd88 O112 2.435 . S
Gd88 O113 2.717 1_565 S
Gd88 O115 2.395 1_565 S
Gd88 O119 2.327 1_455 S
Gd89 C100 2.818 . S
Gd89 O109 2.395 1_545 S
Gd89 O113 2.327 1_655 S
Gd89 O114 2.377 . S
Gd89 O116 2.448 . S
Gd89 O117 2.506 1_655 S
Gd89 O118 2.435 . S
Gd89 O119 2.717 1_545 S
C90 O108 1.240 1_655 S
C90 O109 1.240 . S
C91 Gd88 2.818 . S
C91 C92 1.510 . S
C91 O110 1.249 . S
C91 O111 1.252 . S
C92 C91 1.510 . S
C92 C93 1.404 . S
C92 C94 1.352 . S
C93 C92 1.404 . S
C93 C97 1.389 . S
C93 H120 0.930 . S
C94 C92 1.352 . S
C94 C96 1.374 . S
C94 H121 0.931 1_455 S
C95 C96 1.359 1_554 S
C95 C97 1.364 1_554 S
C96 C94 1.374 . S
C96 C95 1.359 1_556 S
C96 H122 0.931 1_456 S
C97 C93 1.389 . S
C97 C95 1.364 1_556 S
C97 H123 0.931 . S
C98 O112 1.256 1_545 S
C98 O113 1.257 . S
C99 O114 1.240 1_455 S
C99 O115 1.240 . S
C100 Gd89 2.818 . S
C100 C101 1.510 . S
C100 O116 1.249 . S
C100 O117 1.252 1_655 S
C101 C100 1.510 . S
C101 C102 1.404 . S
C101 C103 1.368 . S
C102 C101 1.404 . S
C102 C106 1.389 . S
C102 H124 0.930 . S
C103 C101 1.368 . S
C103 C105 1.375 . S
C103 H125 0.912 1_655 S
C104 C105 1.359 . S
C104 C106 1.364 . S
C105 C103 1.375 . S
C105 C104 1.359 . S
C105 H126 0.931 1_655 S
C106 C102 1.389 . S
C106 C104 1.364 . S
C106 H127 0.931 . S
C107 O118 1.256 . S
C107 O119 1.257 1_545 S
O108 Gd88 2.377 . S
O108 C90 1.240 1_455 S
O109 Gd89 2.395 1_565 S
O109 C90 1.240 . S
O110 Gd88 2.448 . S
O110 C91 1.249 . S
O111 Gd88 2.506 . S
O111 C91 1.252 . S
O112 Gd88 2.435 . S
O112 C98 1.256 1_565 S
O113 Gd88 2.717 1_545 S
O113 Gd89 2.327 1_455 S
O113 C98 1.257 . S
O114 Gd89 2.377 . S
O114 C99 1.240 1_655 S
O115 Gd88 2.395 1_545 S
O115 C99 1.240 . S
O116 Gd89 2.448 . S
O116 C100 1.249 . S
O117 Gd89 2.506 1_455 S
O117 C100 1.252 1_455 S
O118 Gd89 2.435 . S
O118 C107 1.256 . S
O119 Gd88 2.327 1_655 S
O119 Gd89 2.717 1_565 S
O119 C107 1.257 1_565 S
H120 C93 0.930 . S
H121 C94 0.931 1_655 S
H122 C96 0.931 1_654 S
H123 C97 0.931 . S
H124 C102 0.930 . S
H125 C103 0.912 1_455 S
H126 C105 0.931 1_455 S
H127 C106 0.931 . S
Gd128 C131 2.818 . S
Gd128 O148 2.377 . S
Gd128 O150 2.448 . S
Gd128 O151 2.506 . S
Gd128 O152 2.435 . S
Gd128 O153 2.717 . S
Gd128 O155 2.395 . S
Gd128 O159 2.327 1_545 S
Gd129 C140 2.818 . S
Gd129 O149 2.395 . S
Gd129 O153 2.327 1_565 S
Gd129 O154 2.377 . S
Gd129 O156 2.448 . S
Gd129 O157 2.487 1_565 S
Gd129 O158 2.435 . S
Gd129 O159 2.717 . S
C130 O148 1.240 1_565 S
C130 O149 1.240 . S
C131 Gd128 2.818 . S
C131 C132 1.510 . S
C131 O150 1.249 . S
C131 O151 1.252 . S
C132 C131 1.510 . S
C132 C133 1.404 . S
C132 C134 1.352 . S
C133 C132 1.404 . S
C133 C137 1.389 . S
C133 H160 0.930 . S
C134 C132 1.352 . S
C134 C136 1.374 . S
C134 H161 0.931 1_545 S
C135 C136 1.359 1_554 S
C135 C137 1.364 1_554 S
C136 C134 1.374 . S
C136 C135 1.359 1_556 S
C136 H162 0.931 1_546 S
C137 C133 1.389 . S
C137 C135 1.364 1_556 S
C137 H163 0.931 . S
C138 O152 1.256 . S
C138 O153 1.257 . S
C139 O154 1.240 1_545 S
C139 O155 1.240 . S
C140 Gd129 2.818 . S
C140 C141 1.510 . S
C140 O156 1.249 . S
C140 O157 1.206 1_565 S
C141 C140 1.510 . S
C141 C142 1.404 . S
C141 C143 1.352 . S
C142 C141 1.404 . S
C142 C146 1.389 . S
C142 H164 0.930 . S
C143 C141 1.352 . S
C143 C145 1.374 . S
C143 H165 0.931 1_565 S
C144 C145 1.359 . S
C144 C146 1.364 . S
C145 C143 1.374 . S
C145 C144 1.359 . S
C145 H166 0.931 1_565 S
C146 C142 1.389 . S
C146 C144 1.364 . S
C146 H167 0.931 . S
C147 O158 1.256 . S
C147 O159 1.257 . S
O148 Gd128 2.377 . S
O148 C130 1.240 1_545 S
O149 Gd129 2.395 . S
O149 C130 1.240 . S
O150 Gd128 2.448 . S
O150 C131 1.249 . S
O151 Gd128 2.506 . S
O151 C131 1.252 . S
O152 Gd128 2.435 . S
O152 C138 1.256 . S
O153 Gd128 2.717 . S
O153 Gd129 2.327 1_545 S
O153 C138 1.257 . S
O154 Gd129 2.377 . S
O154 C139 1.240 1_565 S
O155 Gd128 2.395 . S
O155 C139 1.240 . S
O156 Gd129 2.448 . S
O156 C140 1.249 . S
O157 Gd129 2.487 1_545 S
O157 C140 1.206 1_545 S
O158 Gd129 2.435 . S
O158 C147 1.256 . S
O159 Gd128 2.327 1_565 S
O159 Gd129 2.717 . S
O159 C147 1.257 . S
H160 C133 0.930 . S
H161 C134 0.931 1_565 S
H162 C136 0.931 1_564 S
H163 C137 0.931 . S
H164 C142 0.930 . S
H165 C143 0.931 1_545 S
H166 C145 0.931 1_545 S
H167 C146 0.931 . S
Gd168 C171 2.818 . S
Gd168 O188 2.377 . S
Gd168 O190 2.448 . S
Gd168 O191 2.506 . S
Gd168 O192 2.435 . S
Gd168 O193 2.717 . S
Gd168 O195 2.395 . S
Gd168 O199 2.327 . S
Gd169 C180 2.818 . S
Gd169 O189 2.395 . S
Gd169 O193 2.327 . S
Gd169 O194 2.377 . S
Gd169 O196 2.448 . S
Gd169 O197 2.506 . S
Gd169 O198 2.435 . S
Gd169 O199 2.717 . S
C170 O188 1.240 . S
C170 O189 1.240 . S
C171 Gd168 2.818 . S
C171 C172 1.510 . S
C171 O190 1.249 . S
C171 O191 1.252 . S
C172 C171 1.510 . S
C172 C173 1.404 . S
C172 C174 1.352 . S
C173 C172 1.404 . S
C173 C177 1.389 . S
C173 H200 0.930 . S
C174 C172 1.352 . S
C174 C176 1.374 . S
C174 H201 0.931 . S
C175 C176 1.359 1_554 S
C175 C177 1.364 1_554 S
C176 C174 1.374 . S
C176 C175 1.359 1_556 S
C176 H202 0.931 1_556 S
C177 C173 1.389 . S
C177 C175 1.364 1_556 S
C177 H203 0.931 . S
C178 O192 1.256 . S
C178 O193 1.257 . S
C179 O194 1.240 . S
C179 O195 1.240 . S
C180 Gd169 2.818 . S
C180 C181 1.510 . S
C180 O196 1.249 . S
C180 O197 1.252 . S
C181 C180 1.510 . S
C181 C182 1.404 . S
C181 C183 1.352 . S
C182 C181 1.404 . S
C182 C186 1.389 . S
C182 H204 0.930 . S
C183 C181 1.352 . S
C183 C185 1.374 . S
C183 H205 0.931 . S
C184 C185 1.359 . S
C184 C186 1.364 . S
C185 C183 1.374 . S
C185 C184 1.359 . S
C185 H206 0.931 . S
C186 C182 1.389 . S
C186 C184 1.364 . S
C186 H207 0.931 . S
C187 O198 1.256 . S
C187 O199 1.257 . S
O188 Gd168 2.377 . S
O188 C170 1.240 . S
O189 Gd169 2.395 . S
O189 C170 1.240 . S
O190 Gd168 2.448 . S
O190 C171 1.249 . S
O191 Gd168 2.506 . S
O191 C171 1.252 . S
O192 Gd168 2.435 . S
O192 C178 1.256 . S
O193 Gd168 2.717 . S
O193 Gd169 2.327 . S
O193 C178 1.257 . S
O194 Gd169 2.377 . S
O194 C179 1.240 . S
O195 Gd168 2.395 . S
O195 C179 1.240 . S
O196 Gd169 2.448 . S
O196 C180 1.249 . S
O197 Gd169 2.506 . S
O197 C180 1.252 . S
O198 Gd169 2.435 . S
O198 C187 1.256 . S
O199 Gd168 2.327 . S
O199 Gd169 2.717 . S
O199 C187 1.257 . S
H200 C173 0.930 . S
H201 C174 0.931 . S
H202 C176 0.931 1_554 S
H203 C177 0.931 . S
H204 C182 0.930 . S
H205 C183 0.931 . S
H206 C185 0.931 . S
H207 C186 0.931 . S
Gd208 C211 2.818 . S
Gd208 O228 2.377 . S
Gd208 O230 2.448 . S
Gd208 O231 2.506 . S
Gd208 O232 2.435 . S
Gd208 O233 2.717 1_655 S
Gd208 O235 2.395 1_655 S
Gd208 O239 2.327 . S
Gd209 C220 2.818 . S
Gd209 O229 2.395 1_455 S
Gd209 O233 2.327 . S
Gd209 O234 2.377 . S
Gd209 O236 2.448 . S
Gd209 O237 2.506 . S
Gd209 O238 2.435 . S
Gd209 O239 2.717 1_455 S
C210 O228 1.240 . S
C210 O229 1.240 . S
C211 Gd208 2.818 . S
C211 C212 1.510 . S
C211 O230 1.249 . S
C211 O231 1.252 . S
C212 C211 1.510 . S
C212 C213 1.404 . S
C212 C214 1.352 . S
C213 C212 1.404 . S
C213 C217 1.389 . S
C213 H240 0.930 . S
C214 C212 1.352 . S
C214 C216 1.374 . S
C214 H241 0.931 . S
C215 C216 1.359 1_554 S
C215 C217 1.364 1_554 S
C216 C214 1.374 . S
C216 C215 1.359 1_556 S
C216 H242 0.931 1_556 S
C217 C213 1.389 . S
C217 C215 1.364 1_556 S
C217 H243 0.931 . S
C218 O232 1.256 1_455 S
C218 O233 1.257 . S
C219 O234 1.240 . S
C219 O235 1.240 . S
C220 Gd209 2.818 . S
C220 C221 1.510 . S
C220 O236 1.249 . S
C220 O237 1.252 . S
C221 C220 1.510 . S
C221 C222 1.404 . S
C221 C223 1.352 . S
C222 C221 1.404 . S
C222 C226 1.389 . S
C222 H244 0.930 . S
C223 C221 1.352 . S
C223 C225 1.374 . S
C223 H245 0.931 . S
C224 C225 1.359 . S
C224 C226 1.364 . S
C225 C223 1.374 . S
C225 C224 1.359 . S
C225 H246 0.931 . S
C226 C222 1.389 . S
C226 C224 1.364 . S
C226 H247 0.931 . S
C227 O238 1.256 . S
C227 O239 1.257 1_455 S
O228 Gd208 2.377 . S
O228 C210 1.240 . S
O229 Gd209 2.395 1_655 S
O229 C210 1.240 . S
O230 Gd208 2.448 . S
O230 C211 1.249 . S
O231 Gd208 2.506 . S
O231 C211 1.252 . S
O232 Gd208 2.435 . S
O232 C218 1.256 1_655 S
O233 Gd208 2.717 1_455 S
O233 Gd209 2.327 . S
O233 C218 1.257 . S
O234 Gd209 2.377 . S
O234 C219 1.240 . S
O235 Gd208 2.395 1_455 S
O235 C219 1.240 . S
O236 Gd209 2.448 . S
O236 C220 1.249 . S
O237 Gd209 2.506 . S
O237 C220 1.252 . S
O238 Gd209 2.435 . S
O238 C227 1.256 . S
O239 Gd208 2.327 . S
O239 Gd209 2.717 1_655 S
O239 C227 1.257 1_655 S
H240 C213 0.930 . S
H241 C214 0.931 . S
H242 C216 0.931 1_554 S
H243 C217 0.931 . S
H244 C222 0.930 . S
H245 C223 0.931 . S
H246 C225 0.931 . S
H247 C226 0.931 . S
H248 C256 0.950 . S
H249 C261 0.950 . S
H250 C258 0.950 . S
H251 C260 0.950 . S
H252 C262 0.950 . S
H253 C264 0.950 . S
H254 C266 0.950 . S
H255 C267 0.950 . S
C256 H248 0.950 . S
C256 C257 1.386 1_565 S
C256 C258 1.391 . S
C257 C256 1.386 1_545 S
C257 C261 1.393 . S
C258 H250 0.950 . S
C258 C256 1.391 . S
C258 C259 1.400 1_565 S
C259 C258 1.400 1_545 S
C259 C260 1.398 . S
C259 C265 1.491 . S
C260 H251 0.950 . S
C260 C259 1.398 . S
C260 C261 1.391 . S
C261 H249 0.950 . S
C261 C257 1.393 . S
C261 C260 1.391 . S
C262 H252 0.950 . S
C262 C263 1.386 . S
C262 C264 1.391 . S
C263 C262 1.386 . S
C263 C267 1.393 1_545 S
C264 H253 0.950 . S
C264 C262 1.391 . S
C264 C265 1.400 . S
C265 C259 1.491 . S
C265 C264 1.400 . S
C265 C266 1.398 1_545 S
C266 H254 0.950 . S
C266 C265 1.398 1_565 S
C266 C267 1.391 . S
C267 H255 0.950 . S
C267 C263 1.393 1_565 S
C267 C266 1.391 . S
H268 C276 0.950 . S
H269 C281 0.950 . S
H270 C278 0.950 . S
H271 C280 0.950 . S
H272 C282 0.950 . S
H273 C284 0.950 . S
H274 C286 0.950 . S
H275 C287 0.950 . S
C276 H268 0.950 . S
C276 C277 1.386 . S
C276 C278 1.391 . S
C277 C276 1.386 . S
C277 C281 1.393 . S
C278 H270 0.950 . S
C278 C276 1.391 . S
C278 C279 1.400 . S
C279 C278 1.400 . S
C279 C280 1.398 . S
C279 C285 1.491 . S
C280 H271 0.950 . S
C280 C279 1.398 . S
C280 C281 1.391 . S
C281 H269 0.950 . S
C281 C277 1.393 . S
C281 C280 1.391 . S
C282 H272 0.950 . S
C282 C283 1.386 . S
C282 C284 1.391 . S
C283 C282 1.386 . S
C283 C287 1.393 . S
C284 H273 0.950 . S
C284 C282 1.391 . S
C284 C285 1.400 . S
C285 C279 1.491 . S
C285 C284 1.400 . S
C285 C286 1.398 . S
C286 H274 0.950 . S
C286 C285 1.398 . S
C286 C287 1.391 . S
C287 H275 0.950 . S
C287 C283 1.393 . S
C287 C286 1.391 . S
H288 C296 0.950 . S
H289 C301 0.950 . S
H290 C298 0.950 . S
H291 C300 0.950 . S
H292 C302 0.950 . S
H293 C304 0.950 . S
H294 C306 0.950 . S
H295 C307 0.950 . S
C296 H288 0.950 . S
C296 C297 1.386 . S
C296 C298 1.391 . S
C297 C296 1.386 . S
C297 C301 1.393 . S
C298 H290 0.950 . S
C298 C296 1.391 . S
C298 C299 1.400 . S
C299 C298 1.400 . S
C299 C300 1.398 . S
C299 C305 1.491 . S
C300 H291 0.950 . S
C300 C299 1.398 . S
C300 C301 1.391 . S
C301 H289 0.950 . S
C301 C297 1.393 . S
C301 C300 1.391 . S
C302 H292 0.950 . S
C302 C303 1.386 . S
C302 C304 1.391 . S
C303 C302 1.386 . S
C303 C307 1.393 . S
C304 H293 0.950 . S
C304 C302 1.391 . S
C304 C305 1.400 . S
C305 C299 1.491 . S
C305 C304 1.400 . S
C305 C306 1.398 . S
C306 H294 0.950 . S
C306 C305 1.398 . S
C306 C307 1.391 . S
C307 H295 0.950 . S
C307 C303 1.393 . S
C307 C306 1.391 . S
H308 C316 0.950 . S
H309 C321 0.950 . S
H310 C318 0.950 . S
H311 C320 0.950 . S
H312 C322 0.950 . S
H313 C324 0.950 . S
H314 C326 0.950 . S
H315 C327 0.950 . S
C316 H308 0.950 . S
C316 C317 1.386 . S
C316 C318 1.391 . S
C317 C316 1.386 . S
C317 C321 1.393 1_455 S
C318 H310 0.950 . S
C318 C316 1.391 . S
C318 C319 1.400 . S
C319 C318 1.400 . S
C319 C320 1.398 1_455 S
C319 C325 1.491 . S
C320 H311 0.950 . S
C320 C319 1.398 1_655 S
C320 C321 1.391 . S
C321 H309 0.950 . S
C321 C317 1.393 1_655 S
C321 C320 1.391 . S
C322 H312 0.950 . S
C322 C323 1.386 1_655 S
C322 C324 1.391 . S
C323 C322 1.386 1_455 S
C323 C327 1.393 . S
C324 H313 0.950 . S
C324 C322 1.391 . S
C324 C325 1.400 1_655 S
C325 C319 1.491 . S
C325 C324 1.400 1_455 S
C325 C326 1.398 . S
C326 H314 0.950 . S
C326 C325 1.398 . S
C326 C327 1.391 . S
C327 H315 0.950 . S
C327 C323 1.393 . S
C327 C326 1.391 . S
H328 C336 0.950 . S
H329 C341 0.950 . S
H330 C338 0.950 . S
H331 C340 0.950 . S
H332 C342 0.950 . S
H333 C344 0.950 . S
H334 C346 0.950 1_554 S
H335 C347 0.950 . S
C336 H328 0.950 . S
C336 C337 1.386 1_545 S
C336 C338 1.391 . S
C337 C336 1.386 1_565 S
C337 C341 1.393 . S
C338 H330 0.950 . S
C338 C336 1.391 . S
C338 C339 1.400 1_545 S
C339 C338 1.400 1_565 S
C339 C340 1.398 . S
C339 C345 1.484 1_554 S
C340 H331 0.950 . S
C340 C339 1.398 . S
C340 C341 1.391 . S
C341 H329 0.950 . S
C341 C337 1.393 . S
C341 C340 1.391 . S
C342 H332 0.950 . S
C342 C343 1.388 1_565 S
C342 C344 1.391 . S
C343 C342 1.388 1_545 S
C343 C347 1.390 . S
C344 H333 0.950 . S
C344 C342 1.391 . S
C344 C345 1.441 . S
C345 C339 1.484 1_556 S
C345 C344 1.441 . S
C345 C346 1.366 1_565 S
C346 H334 0.950 1_556 S
C346 C345 1.366 1_545 S
C346 C347 1.391 . S
C347 H335 0.950 . S
C347 C343 1.390 . S
C347 C346 1.391 . S
H348 C356 0.950 . S
H349 C361 0.950 . S
H350 C358 0.950 . S
H351 C360 0.950 . S
H352 C362 0.950 . S
H353 C364 0.950 . S
H354 C366 0.950 . S
H355 C367 0.950 . S
C356 H348 0.950 . S
C356 C357 1.386 . S
C356 C358 1.391 . S
C357 C356 1.386 . S
C357 C361 1.393 . S
C358 H350 0.950 . S
C358 C356 1.391 . S
C358 C359 1.400 . S
C359 C358 1.400 . S
C359 C360 1.398 . S
C359 C365 1.489 1_554 S
C360 H351 0.950 . S
C360 C359 1.398 . S
C360 C361 1.391 . S
C361 H349 0.950 . S
C361 C357 1.393 . S
C361 C360 1.391 . S
C362 H352 0.950 . S
C362 C363 1.386 . S
C362 C364 1.391 1_556 S
C363 C362 1.386 . S
C363 C367 1.393 . S
C364 H353 0.950 . S
C364 C362 1.391 1_554 S
C364 C365 1.400 1_554 S
C365 C359 1.489 1_556 S
C365 C364 1.400 1_556 S
C365 C366 1.400 . S
C366 H354 0.950 . S
C366 C365 1.400 . S
C366 C367 1.391 . S
C367 H355 0.950 . S
C367 C363 1.393 . S
C367 C366 1.391 . S
H368 C376 0.950 . S
H369 C381 0.950 . S
H370 C378 0.950 . S
H371 C380 0.950 . S
H372 C382 0.950 . S
H373 C384 0.950 . S
H374 C386 0.950 1_554 S
H375 C387 0.950 . S
C376 H368 0.950 . S
C376 C377 1.386 . S
C376 C378 1.391 . S
C377 C376 1.386 . S
C377 C381 1.393 . S
C378 H370 0.950 . S
C378 C376 1.391 . S
C378 C379 1.400 . S
C379 C378 1.400 . S
C379 C380 1.398 . S
C379 C385 1.500 . S
C380 H371 0.950 . S
C380 C379 1.398 . S
C380 C381 1.391 . S
C381 H369 0.950 . S
C381 C377 1.393 . S
C381 C380 1.391 . S
C382 H372 0.950 . S
C382 C383 1.386 . S
C382 C384 1.391 . S
C383 C382 1.386 . S
C383 C387 1.393 . S
C384 H373 0.950 . S
C384 C382 1.391 . S
C384 C385 1.392 1_556 S
C385 C379 1.500 . S
C385 C384 1.392 1_554 S
C385 C386 1.397 1_554 S
C386 H374 0.950 1_556 S
C386 C385 1.397 1_556 S
C386 C387 1.391 . S
C387 H375 0.950 . S
C387 C383 1.393 . S
C387 C386 1.391 . S
H388 C396 0.950 . S
H389 C401 0.950 . S
H390 C398 0.950 . S
H391 C400 0.950 . S
H392 C402 0.950 . S
H393 C404 0.950 . S
H394 C406 0.950 . S
H395 C407 0.950 . S
C396 H388 0.950 . S
C396 C397 1.386 1_455 S
C396 C398 1.391 . S
C397 C396 1.386 1_655 S
C397 C401 1.393 . S
C398 H390 0.950 . S
C398 C396 1.391 . S
C398 C399 1.400 1_455 S
C399 C398 1.400 1_655 S
C399 C400 1.398 . S
C399 C405 1.485 1_654 S
C400 H391 0.950 . S
C400 C399 1.398 . S
C400 C401 1.391 . S
C401 H389 0.950 . S
C401 C397 1.393 . S
C401 C400 1.391 . S
C402 H392 0.950 . S
C402 C403 1.386 1_655 S
C402 C404 1.391 . S
C403 C402 1.386 1_455 S
C403 C407 1.393 . S
C404 H393 0.950 . S
C404 C402 1.391 . S
C404 C405 1.406 1_655 S
C405 C399 1.485 1_456 S
C405 C404 1.406 1_455 S
C405 C406 1.398 1_556 S
C406 H394 0.950 . S
C406 C405 1.398 1_554 S
C406 C407 1.391 1_554 S
C407 H395 0.950 . S
C407 C403 1.393 . S
C407 C406 1.391 1_556 S
H408 C416 0.950 . S
H409 C421 0.950 . S
H410 C418 0.950 . S
H411 C420 0.954 . S
H412 C422 0.950 . S
H413 C424 0.950 . S
H414 C426 0.950 . S
H415 C427 0.950 . S
C416 H408 0.950 . S
C416 C417 1.386 . S
C416 C418 1.391 1_455 S
C417 C416 1.386 . S
C417 C421 1.393 . S
C418 H410 0.950 . S
C418 C416 1.391 1_655 S
C418 C419 1.400 . S
C419 C418 1.400 . S
C419 C420 1.407 . S
C419 C425 1.491 . S
C420 H411 0.954 . S
C420 C419 1.407 . S
C420 C421 1.380 1_655 S
C421 H409 0.950 . S
C421 C417 1.393 . S
C421 C420 1.380 1_455 S
C422 H412 0.950 . S
C422 C423 1.386 . S
C422 C424 1.391 . S
C423 C422 1.386 . S
C423 C427 1.393 . S
C424 H413 0.950 . S
C424 C422 1.391 . S
C424 C425 1.400 . S
C425 C419 1.491 . S
C425 C424 1.400 . S
C425 C426 1.398 . S
C426 H414 0.950 . S
C426 C425 1.398 . S
C426 C427 1.391 . S
C427 H415 0.950 . S
C427 C423 1.393 . S
C427 C426 1.391 . S
H428 C436 0.950 . S
H429 C441 0.950 . S
H430 C438 0.950 . S
H431 C440 0.950 . S
H432 C442 0.950 . S
H433 C444 0.950 . S
H434 C446 0.950 1_545 S
H435 C447 0.950 . S
C436 H428 0.950 . S
C436 C437 1.386 . S
C436 C438 1.391 . S
C437 C436 1.386 . S
C437 C441 1.393 1_545 S
C438 H430 0.950 . S
C438 C436 1.391 . S
C438 C439 1.400 1_545 S
C439 C438 1.400 1_565 S
C439 C440 1.398 . S
C439 C445 1.491 . S
C440 H431 0.950 . S
C440 C439 1.398 . S
C440 C441 1.391 . S
C441 H429 0.950 . S
C441 C437 1.393 1_565 S
C441 C440 1.391 . S
C442 H432 0.950 . S
C442 C443 1.386 . S
C442 C444 1.391 . S
C443 C442 1.386 . S
C443 C447 1.393 . S
C444 H433 0.950 . S
C444 C442 1.391 . S
C444 C445 1.400 . S
C445 C439 1.491 . S
C445 C444 1.400 . S
C445 C446 1.398 . S
C446 H434 0.950 1_565 S
C446 C445 1.398 . S
C446 C447 1.391 . S
C447 H435 0.950 . S
C447 C443 1.393 . S
C447 C446 1.391 . S
H448 C456 0.950 . S
H449 C461 0.950 . S
H450 C458 0.950 . S
H451 C460 0.950 . S
H452 C462 0.950 . S
H453 C464 0.950 . S
H454 C466 0.950 . S
H455 C467 0.950 . S
C456 H448 0.950 . S
C456 C457 1.386 . S
C456 C458 1.391 . S
C457 C456 1.386 . S
C457 C461 1.393 . S
C458 H450 0.950 . S
C458 C456 1.391 . S
C458 C459 1.400 . S
C459 C458 1.400 . S
C459 C460 1.398 . S
C459 C465 1.491 . S
C460 H451 0.950 . S
C460 C459 1.398 . S
C460 C461 1.391 . S
C461 H449 0.950 . S
C461 C457 1.393 . S
C461 C460 1.391 . S
C462 H452 0.950 . S
C462 C463 1.386 . S
C462 C464 1.391 . S
C463 C462 1.386 . S
C463 C467 1.393 . S
C464 H453 0.950 . S
C464 C462 1.391 . S
C464 C465 1.400 . S
C465 C459 1.491 . S
C465 C464 1.400 . S
C465 C466 1.398 . S
C466 H454 0.950 . S
C466 C465 1.398 . S
C466 C467 1.391 . S
C467 H455 0.950 . S
C467 C463 1.393 . S
C467 C466 1.391 . S
H468 C476 0.950 . S
H469 C481 0.950 . S
H470 C478 0.950 . S
H471 C480 0.950 . S
H472 C482 0.950 . S
H473 C484 0.950 . S
H474 C486 0.950 . S
H475 C487 0.950 . S
C476 H468 0.950 . S
C476 C477 1.386 . S
C476 C478 1.391 . S
C477 C476 1.386 . S
C477 C481 1.393 . S
C478 H470 0.950 . S
C478 C476 1.391 . S
C478 C479 1.400 . S
C479 C478 1.400 . S
C479 C480 1.398 . S
C479 C485 1.491 . S
C480 H471 0.950 . S
C480 C479 1.398 . S
C480 C481 1.391 . S
C481 H469 0.950 . S
C481 C477 1.393 . S
C481 C480 1.391 . S
C482 H472 0.950 . S
C482 C483 1.386 . S
C482 C484 1.391 . S
C483 C482 1.386 . S
C483 C487 1.393 . S
C484 H473 0.950 . S
C484 C482 1.391 . S
C484 C485 1.400 . S
C485 C479 1.491 . S
C485 C484 1.400 . S
C485 C486 1.398 . S
C486 H474 0.950 . S
C486 C485 1.398 . S
C486 C487 1.391 . S
C487 H475 0.950 . S
C487 C483 1.393 . S
C487 C486 1.391 . S
H488 C496 0.950 . S
H489 C501 0.950 . S
H490 C498 0.950 . S
H491 C500 0.950 . S
H492 C502 0.950 . S
H493 C504 0.950 . S
H494 C506 0.950 1_655 S
H495 C507 0.950 . S
C496 H488 0.950 . S
C496 C497 1.386 . S
C496 C498 1.391 . S
C497 C496 1.386 . S
C497 C501 1.393 1_655 S
C498 H490 0.950 . S
C498 C496 1.391 . S
C498 C499 1.400 1_655 S
C499 C498 1.400 1_455 S
C499 C500 1.398 . S
C499 C505 1.491 . S
C500 H491 0.950 . S
C500 C499 1.398 . S
C500 C501 1.391 . S
C501 H489 0.950 . S
C501 C497 1.393 1_455 S
C501 C500 1.391 . S
C502 H492 0.950 . S
C502 C503 1.386 1_556 S
C502 C504 1.391 1_556 S
C503 C502 1.386 1_554 S
C503 C507 1.393 . S
C504 H493 0.950 . S
C504 C502 1.391 1_554 S
C504 C505 1.400 . S
C505 C499 1.491 . S
C505 C504 1.400 . S
C505 C506 1.398 . S
C506 H494 0.950 1_455 S
C506 C505 1.398 . S
C506 C507 1.391 . S
C507 H495 0.950 . S
C507 C503 1.393 . S
C507 C506 1.391 . S
H508 C516 0.950 . S
H509 C521 0.950 . S
H510 C518 0.950 . S
H511 C520 0.950 . S
H512 C522 0.950 . S
H513 C524 0.950 . S
H514 C526 0.950 . S
H515 C527 0.950 . S
C516 H508 0.950 . S
C516 C517 1.386 . S
C516 C518 1.391 . S
C517 C516 1.386 . S
C517 C521 1.393 1_565 S
C518 H510 0.950 . S
C518 C516 1.391 . S
C518 C519 1.400 1_565 S
C519 C518 1.400 1_545 S
C519 C520 1.398 . S
C519 C525 1.491 . S
C520 H511 0.950 . S
C520 C519 1.398 . S
C520 C521 1.391 . S
C521 H509 0.950 . S
C521 C517 1.393 1_545 S
C521 C520 1.391 . S
C522 H512 0.950 . S
C522 C523 1.386 1_556 S
C522 C524 1.391 1_556 S
C523 C522 1.386 1_554 S
C523 C527 1.393 . S
C524 H513 0.950 . S
C524 C522 1.391 1_554 S
C524 C525 1.400 . S
C525 C519 1.491 . S
C525 C524 1.400 . S
C525 C526 1.398 . S
C526 H514 0.950 . S
C526 C525 1.398 . S
C526 C527 1.391 . S
C527 H515 0.950 . S
C527 C523 1.393 . S
C527 C526 1.391 . S
H528 C536 0.950 . S
H529 C541 0.950 . S
H530 C538 0.950 . S
H531 C540 0.950 . S
H532 C542 0.950 . S
H533 C544 0.950 . S
H534 C546 0.950 . S
H535 C547 0.950 1_556 S
C536 H528 0.950 . S
C536 C537 1.386 . S
C536 C538 1.391 . S
C537 C536 1.386 . S
C537 C541 1.393 . S
C538 H530 0.950 . S
C538 C536 1.391 . S
C538 C539 1.400 . S
C539 C538 1.400 . S
C539 C540 1.398 . S
C539 C545 1.491 . S
C540 H531 0.950 . S
C540 C539 1.398 . S
C540 C541 1.391 . S
C541 H529 0.950 . S
C541 C537 1.393 . S
C541 C540 1.391 . S
C542 H532 0.950 . S
C542 C543 1.386 . S
C542 C544 1.391 . S
C543 C542 1.386 . S
C543 C547 1.393 . S
C544 H533 0.950 . S
C544 C542 1.391 . S
C544 C545 1.400 . S
C545 C539 1.491 . S
C545 C544 1.400 . S
C545 C546 1.398 . S
C546 H534 0.950 . S
C546 C545 1.398 . S
C546 C547 1.391 . S
C547 H535 0.950 1_554 S
C547 C543 1.393 . S
C547 C546 1.391 . S
H548 C556 0.950 . S
H549 C561 0.950 . S
H550 C558 0.950 . S
H551 C560 0.950 . S
H552 C562 0.950 1_556 S
H553 C564 0.950 . S
H554 C566 0.950 . S
H555 C567 0.950 . S
C556 H548 0.950 . S
C556 C557 1.386 . S
C556 C558 1.391 . S
C557 C556 1.386 . S
C557 C561 1.393 . S
C558 H550 0.950 . S
C558 C556 1.391 . S
C558 C559 1.400 . S
C559 C558 1.400 . S
C559 C560 1.398 . S
C559 C565 1.491 . S
C560 H551 0.950 . S
C560 C559 1.398 . S
C560 C561 1.391 . S
C561 H549 0.950 . S
C561 C557 1.393 . S
C561 C560 1.391 . S
C562 H552 0.950 1_554 S
C562 C563 1.386 . S
C562 C564 1.391 . S
C563 C562 1.386 . S
C563 C567 1.393 . S
C564 H553 0.950 . S
C564 C562 1.391 . S
C564 C565 1.400 . S
C565 C559 1.491 . S
C565 C564 1.400 . S
C565 C566 1.398 . S
C566 H554 0.950 . S
C566 C565 1.398 . S
C566 C567 1.391 . S
C567 H555 0.950 . S
C567 C563 1.393 . S
C567 C566 1.391 . S
H568 C576 0.950 . S
H569 C581 0.950 . S
H570 C578 0.950 . S
H571 C580 0.950 . S
H572 C582 0.950 . S
H573 C584 0.950 . S
H574 C586 0.950 . S
H575 C587 0.950 . S
C576 H568 0.950 . S
C576 C577 1.386 1_655 S
C576 C578 1.391 . S
C577 C576 1.386 1_455 S
C577 C581 1.393 . S
C578 H570 0.950 . S
C578 C576 1.391 . S
C578 C579 1.400 1_655 S
C579 C578 1.400 1_455 S
C579 C580 1.398 . S
C579 C585 1.491 . S
C580 H571 0.950 . S
C580 C579 1.398 . S
C580 C581 1.391 . S
C581 H569 0.950 . S
C581 C577 1.393 . S
C581 C580 1.391 . S
C582 H572 0.950 . S
C582 C583 1.386 . S
C582 C584 1.391 . S
C583 C582 1.386 . S
C583 C587 1.393 1_455 S
C584 H573 0.950 . S
C584 C582 1.391 . S
C584 C585 1.400 . S
C585 C579 1.491 . S
C585 C584 1.400 . S
C585 C586 1.398 1_455 S
C586 H574 0.950 . S
C586 C585 1.398 1_655 S
C586 C587 1.391 . S
C587 H575 0.950 . S
C587 C583 1.393 1_655 S
C587 C586 1.391 . S
H588 C596 0.950 . S
H589 C601 0.950 . S
H590 C598 0.950 . S
H591 C600 0.950 . S
H592 C602 0.950 . S
H593 C604 0.950 . S
H594 C606 0.950 . S
H595 C607 0.961 . S
C596 H588 0.950 . S
C596 C597 1.386 1_565 S
C596 C598 1.391 . S
C597 C596 1.386 1_545 S
C597 C601 1.393 . S
C598 H590 0.950 . S
C598 C596 1.391 . S
C598 C599 1.400 1_565 S
C599 C598 1.400 1_545 S
C599 C600 1.398 . S
C599 C605 1.491 . S
C600 H591 0.950 . S
C600 C599 1.398 . S
C600 C601 1.391 . S
C601 H589 0.950 . S
C601 C597 1.393 . S
C601 C600 1.391 . S
C602 H592 0.950 . S
C602 C603 1.386 . S
C602 C604 1.391 . S
C603 C602 1.386 . S
C603 C607 1.381 1_545 S
C604 H593 0.950 . S
C604 C602 1.391 . S
C604 C605 1.400 . S
C605 C599 1.491 . S
C605 C604 1.400 . S
C605 C606 1.398 1_545 S
C606 H594 0.950 . S
C606 C605 1.398 1_565 S
C606 C607 1.391 . S
C607 H595 0.961 . S
C607 C603 1.381 1_565 S
C607 C606 1.391 . S
H608 C616 0.950 . S
H609 C621 0.950 . S
H610 C618 0.950 . S
H611 C620 0.950 . S
H612 C622 0.950 . S
H613 C624 0.950 . S
H614 C626 0.950 . S
H615 C627 0.950 . S
C616 H608 0.950 . S
C616 C617 1.386 . S
C616 C618 1.391 . S
C617 C616 1.386 . S
C617 C621 1.393 . S
C618 H610 0.950 . S
C618 C616 1.391 . S
C618 C619 1.400 . S
C619 C618 1.400 . S
C619 C620 1.398 . S
C619 C625 1.491 . S
C620 H611 0.950 . S
C620 C619 1.398 . S
C620 C621 1.391 . S
C621 H609 0.950 . S
C621 C617 1.393 . S
C621 C620 1.391 . S
C622 H612 0.950 . S
C622 C623 1.386 . S
C622 C624 1.391 . S
C623 C622 1.386 . S
C623 C627 1.393 . S
C624 H613 0.950 . S
C624 C622 1.391 . S
C624 C625 1.400 . S
C625 C619 1.491 . S
C625 C624 1.400 . S
C625 C626 1.398 . S
C626 H614 0.950 . S
C626 C625 1.398 . S
C626 C627 1.391 . S
C627 H615 0.950 . S
C627 C623 1.393 . S
C627 C626 1.391 . S
H628 C636 0.950 . S
H629 C641 0.950 . S
H630 C638 0.950 . S
H631 C640 0.950 . S
H632 C642 0.950 . S
H633 C644 0.950 . S
H634 C646 0.950 . S
H635 C647 0.950 . S
C636 H628 0.950 . S
C636 C637 1.386 . S
C636 C638 1.391 . S
C637 C636 1.386 . S
C637 C641 1.393 . S
C638 H630 0.950 . S
C638 C636 1.391 . S
C638 C639 1.400 . S
C639 C638 1.400 . S
C639 C640 1.398 . S
C639 C645 1.491 . S
C640 H631 0.950 . S
C640 C639 1.398 . S
C640 C641 1.391 . S
C641 H629 0.950 . S
C641 C637 1.393 . S
C641 C640 1.391 . S
C642 H632 0.950 . S
C642 C643 1.386 . S
C642 C644 1.391 . S
C643 C642 1.386 . S
C643 C647 1.393 . S
C644 H633 0.950 . S
C644 C642 1.391 . S
C644 C645 1.400 . S
C645 C639 1.491 . S
C645 C644 1.400 . S
C645 C646 1.398 . S
C646 H634 0.950 . S
C646 C645 1.398 . S
C646 C647 1.391 . S
C647 H635 0.950 . S
C647 C643 1.393 . S
C647 C646 1.391 . S
H648 C656 0.950 . S
H649 C661 0.950 . S
H650 C658 0.950 . S
H651 C660 0.950 . S
H652 C662 0.950 . S
H653 C664 0.950 . S
H654 C666 0.950 . S
H655 C667 0.950 . S
C656 H648 0.950 . S
C656 C657 1.386 . S
C656 C658 1.391 . S
C657 C656 1.386 . S
C657 C661 1.393 1_655 S
C658 H650 0.950 . S
C658 C656 1.391 . S
C658 C659 1.400 . S
C659 C658 1.400 . S
C659 C660 1.398 1_655 S
C659 C665 1.491 . S
C660 H651 0.950 . S
C660 C659 1.398 1_455 S
C660 C661 1.391 . S
C661 H649 0.950 . S
C661 C657 1.393 1_455 S
C661 C660 1.391 . S
C662 H652 0.950 . S
C662 C663 1.386 1_455 S
C662 C664 1.391 . S
C663 C662 1.386 1_655 S
C663 C667 1.393 . S
C664 H653 0.950 . S
C664 C662 1.391 . S
C664 C665 1.400 1_455 S
C665 C659 1.491 . S
C665 C664 1.400 1_655 S
C665 C666 1.398 . S
C666 H654 0.950 . S
C666 C665 1.398 . S
C666 C667 1.391 . S
C667 H655 0.950 . S
C667 C663 1.393 . S
C667 C666 1.391 . S
H668 C676 0.950 . S
H669 C681 0.950 . S
H670 C678 0.950 . S
H671 C680 0.950 . S
H672 C682 0.950 . S
H673 C684 0.950 . S
H674 C686 0.950 . S
H675 C687 0.950 . S
C676 H668 0.950 . S
C676 C677 1.386 1_545 S
C676 C678 1.391 . S
C677 C676 1.386 1_565 S
C677 C681 1.393 . S
C678 H670 0.950 . S
C678 C676 1.391 . S
C678 C679 1.400 1_545 S
C679 C678 1.400 1_565 S
C679 C680 1.398 . S
C679 C685 1.491 . S
C680 H671 0.950 . S
C680 C679 1.398 . S
C680 C681 1.391 . S
C681 H669 0.950 . S
C681 C677 1.393 . S
C681 C680 1.391 . S
C682 H672 0.950 . S
C682 C683 1.386 . S
C682 C684 1.391 . S
C683 C682 1.386 . S
C683 C687 1.393 1_565 S
C684 H673 0.950 . S
C684 C682 1.391 . S
C684 C685 1.400 . S
C685 C679 1.491 . S
C685 C684 1.400 . S
C685 C686 1.398 1_565 S
C686 H674 0.950 . S
C686 C685 1.398 1_545 S
C686 C687 1.391 . S
C687 H675 0.950 . S
C687 C683 1.393 1_545 S
C687 C686 1.391 . S
H688 C696 0.950 . S
H689 C701 0.950 . S
H690 C698 0.950 . S
H691 C700 0.950 . S
H692 C702 0.950 . S
H693 C704 0.950 . S
H694 C706 0.950 . S
H695 C707 0.950 . S
C696 H688 0.950 . S
C696 C697 1.386 . S
C696 C698 1.391 . S
C697 C696 1.386 . S
C697 C701 1.393 . S
C698 H690 0.950 . S
C698 C696 1.391 . S
C698 C699 1.400 . S
C699 C698 1.400 . S
C699 C700 1.398 . S
C699 C705 1.491 . S
C700 H691 0.950 . S
C700 C699 1.398 . S
C700 C701 1.391 . S
C701 H689 0.950 . S
C701 C697 1.393 . S
C701 C700 1.391 . S
C702 H692 0.950 . S
C702 C703 1.386 . S
C702 C704 1.391 . S
C703 C702 1.386 . S
C703 C707 1.393 . S
C704 H693 0.950 . S
C704 C702 1.391 . S
C704 C705 1.400 . S
C705 C699 1.491 . S
C705 C704 1.400 . S
C705 C706 1.398 . S
C706 H694 0.950 . S
C706 C705 1.398 . S
C706 C707 1.391 . S
C707 H695 0.950 . S
C707 C703 1.393 . S
C707 C706 1.391 . S
H708 C716 0.950 . S
H709 C721 0.950 . S
H710 C718 0.950 . S
H711 C720 0.950 . S
H712 C722 0.950 . S
H713 C724 0.950 . S
H714 C726 0.950 . S
H715 C727 0.950 . S
C716 H708 0.950 . S
C716 C717 1.386 . S
C716 C718 1.391 . S
C717 C716 1.386 . S
C717 C721 1.393 . S
C718 H710 0.950 . S
C718 C716 1.391 . S
C718 C719 1.400 . S
C719 C718 1.400 . S
C719 C720 1.398 . S
C719 C725 1.491 . S
C720 H711 0.950 . S
C720 C719 1.398 . S
C720 C721 1.391 . S
C721 H709 0.950 . S
C721 C717 1.393 . S
C721 C720 1.391 . S
C722 H712 0.950 . S
C722 C723 1.386 . S
C722 C724 1.391 . S
C723 C722 1.386 . S
C723 C727 1.393 . S
C724 H713 0.950 . S
C724 C722 1.391 . S
C724 C725 1.400 . S
C725 C719 1.491 . S
C725 C724 1.400 . S
C725 C726 1.398 . S
C726 H714 0.950 . S
C726 C725 1.398 . S
C726 C727 1.391 . S
C727 H715 0.950 . S
C727 C723 1.393 . S
C727 C726 1.391 . S
C257 C74 1.771 . S
C263 C98 1.872 . S
C283 C138 1.873 . S
C277 C85 1.773 . S
C303 C178 1.872 . S
C297 C52 1.771 . S
C323 C218 1.865 . S
C317 C63 1.785 . S
C343 C107 1.865 . S
C337 C30 1.785 1_565 S
C357 C41 1.771 . S
C363 C147 1.872 . S
C377 C8 1.764 . S
C383 C187 1.867 . S
C397 C19 1.782 1_655 S
C403 C227 1.864 . S
C423 C104 0.587 . S
C417 C62 0.599 . S
C443 C144 0.628 . S
C437 C73 0.585 . S
C463 C184 0.628 . S
C457 C84 0.585 . S
C477 C51 0.602 . S
C483 C224 0.591 . S
C497 C18 0.606 1_655 S
C503 C95 0.591 . S
C523 C135 0.589 . S
C517 C29 0.601 1_565 S
C543 C175 0.630 . S
C537 C40 0.646 . S
C557 C7 0.615 . S
C563 C215 0.598 . S
C577 C60 1.708 . S
C583 C99 2.225 . S
C597 C71 1.725 . S
C603 C139 2.230 . S
C623 C179 2.227 . S
C617 C82 1.700 . S
C643 C219 2.221 . S
C637 C49 1.689 . S
C657 C16 1.742 1_655 S
C663 C90 2.231 . S
C683 C130 2.221 . S
C677 C27 1.757 1_565 S
C703 C170 2.226 . S
C697 C38 1.734 . S
C717 C5 1.734 . S
C723 C210 2.227 . S
