# Generated by pormake.
# Topology rtl, (3,6)-cn, num edge types: 1
# Building blocks:
#     Node 0, Type 0, BuildingBlock: OLANEW_clean_sbu_2, # of connection points: 3
#     Node 1, Type 0, BuildingBlock: OLANEW_clean_sbu_2, # of connection points: 3
#     Node 2, Type 0, BuildingBlock: OLANEW_clean_sbu_2, # of connection points: 3
#     Node 3, Type 0, BuildingBlock: OLANEW_clean_sbu_2, # of connection points: 3
#     Node 4, Type 1, BuildingBlock: FUNLAD_clean_sbu_0, # of connection points: 6
#     Node 5, Type 1, BuildingBlock: FUNLAD_clean_sbu_0, # of connection points: 6
#     Edge 6, Type (0, 1), BuildingBlock: EZIPEK_clean_linker_0, # of connection points: 2
#     Edge 7, Type (0, 1), BuildingBlock: EZIPEK_clean_linker_0, # of connection points: 2
#     Edge 8, Type (0, 1), BuildingBlock: EZIPEK_clean_linker_0, # of connection points: 2
#     Edge 9, Type (0, 1), BuildingBlock: EZIPEK_clean_linker_0, # of connection points: 2
#     Edge 10, Type (0, 1), BuildingBlock: EZIPEK_clean_linker_0, # of connection points: 2
#     Edge 11, Type (0, 1), BuildingBlock: EZIPEK_clean_linker_0, # of connection points: 2
#     Edge 12, Type (0, 1), BuildingBlock: EZIPEK_clean_linker_0, # of connection points: 2
#     Edge 13, Type (0, 1), BuildingBlock: EZIPEK_clean_linker_0, # of connection points: 2
#     Edge 14, Type (0, 1), BuildingBlock: EZIPEK_clean_linker_0, # of connection points: 2
#     Edge 15, Type (0, 1), BuildingBlock: EZIPEK_clean_linker_0, # of connection points: 2
#     Edge 16, Type (0, 1), BuildingBlock: EZIPEK_clean_linker_0, # of connection points: 2
#     Edge 17, Type (0, 1), BuildingBlock: EZIPEK_clean_linker_0, # of connection points: 2
# Relax obj value: 0.016
# Max RMSD: 0.082
# Mean RMSD: 0.055
data_MOF--net-rtl--node1-OLANEW_clean_sbu_2--node2-FUNLAD_clean_sbu_0--edge1-EZIPEK_clean_linker_0
_symmetry_space_group_name_H-M    P1
_symmetry_Int_Tables_number       1
_symmetry_cell_setting            triclinic
loop_
_symmetry_equiv_pos_as_xyz
'x, y, z'
_cell_length_a     33.553247
_cell_length_b     31.729927
_cell_length_c     16.793603
_cell_angle_alpha  86.469205
_cell_angle_beta   94.727918
_cell_angle_gamma 90.10245
loop_
_atom_site_label
_atom_site_type_symbol
_atom_site_fract_x
_atom_site_fract_y
_atom_site_fract_z
_atom_type_partial_charge
O0 O 0.14152 0.83105 0.95846 0.0
Cd1 Cd 0.16739 0.78611 0.07474 0.0
O2 O 0.18189 0.88349 0.98935 0.0
Cd3 Cd 0.194 0.85713 0.11155 0.0
O4 O 0.16481 0.87262 0.21729 0.0
C5 C 0.12731 0.87884 0.20578 0.0
O6 O 0.10892 0.87268 0.13542 0.0
C7 C 0.15558 0.86745 0.94158 0.0
C8 C 0.23467 0.73979 0.04625 0.0
O9 O 0.19949 0.72452 0.03374 0.0
O10 O 0.23823 0.77706 0.07129 0.0
O11 O 0.64449 0.70127 0.67973 0.0
Cd12 Cd 0.67584 0.73578 0.56587 0.0
O13 O 0.64717 0.64024 0.62424 0.0
Cd14 Cd 0.6739 0.66297 0.51618 0.0
O15 O 0.65364 0.64656 0.39598 0.0
C16 C 0.61906 0.63011 0.39408 0.0
O17 O 0.60043 0.62664 0.45997 0.0
C18 C 0.63727 0.66188 0.68059 0.0
C19 C 0.74889 0.77664 0.59177 0.0
O20 O 0.74765 0.73699 0.58104 0.0
O21 O 0.71585 0.79657 0.59404 0.0
O22 O 0.80758 0.13852 0.28342 0.0
Cd23 Cd 0.74972 0.15103 0.18636 0.0
O24 O 0.84151 0.1417 0.17746 0.0
Cd25 Cd 0.89498 0.12946 0.11777 0.0
O26 O 0.93393 0.10834 0.03109 0.0
C27 C 0.92257 0.11689 0.9579 0.0
O28 O 0.88991 0.1393 0.93902 0.0
C29 C 0.84037 0.13386 0.25225 0.0
C30 C 0.72368 0.23299 0.14338 0.0
O31 O 0.70907 0.21127 0.20092 0.0
O32 O 0.75236 0.21699 0.1091 0.0
O33 O 0.34861 0.37153 0.6115 0.0
Cd34 Cd 0.31998 0.33394 0.49651 0.0
O35 O 0.40635 0.33812 0.6139 0.0
Cd36 Cd 0.38847 0.30614 0.50565 0.0
O37 O 0.39115 0.33052 0.38224 0.0
C38 C 0.41963 0.35666 0.37657 0.0
O39 O 0.44331 0.36348 0.4407 0.0
C40 C 0.38423 0.36509 0.64208 0.0
C41 C 0.26331 0.27127 0.52193 0.0
O42 O 0.30075 0.26275 0.53275 0.0
O43 O 0.25255 0.30946 0.50195 0.0
C44 C 0.04831 0.96376 0.44434 0.0
N45 N 0.08628 0.07713 0.54648 0.0
C46 C 0.12464 0.06597 0.53638 0.0
C47 C 0.15431 0.09681 0.53153 0.0
C48 C 0.1443 0.13926 0.53784 0.0
C49 C 0.10462 0.15005 0.5475 0.0
C50 C 0.07585 0.11829 0.55131 0.0
Zn51 Zn 0.0436 0.03155 0.55991 0.0
C52 C 0.96759 0.0523 0.45792 0.0
N53 N 0.95281 0.93783 0.58716 0.0
C54 C 0.96087 0.8958 0.58661 0.0
C55 C 0.91509 0.95192 0.59494 0.0
C56 C 0.88356 0.9235 0.60076 0.0
C57 C 0.89092 0.88021 0.5985 0.0
C58 C 0.93009 0.86619 0.59224 0.0
Zn59 Zn 0.99656 0.98221 0.57244 0.0
O60 O 0.06434 0.99819 0.46538 0.0
C61 C 0.0719 0.96202 0.67557 0.0
O62 O 0.01808 0.94968 0.47829 0.0
H63 H 0.90924 0.98541 0.59522 0.0
H64 H 0.13232 0.03308 0.53296 0.0
H65 H 0.99103 0.88527 0.58052 0.0
O66 O 0.08334 0.9964 0.64213 0.0
O67 O 0.03692 0.94812 0.65757 0.0
H68 H 0.04522 0.12651 0.55894 0.0
O69 O 0.9756 0.01561 0.66587 0.0
O70 O 0.02317 0.06268 0.65742 0.0
O71 O 0.95747 0.01677 0.48861 0.0
O72 O 1.00222 0.06694 0.47668 0.0
C73 C 0.99301 0.04838 0.69114 0.0
H74 H 0.18477 0.08767 0.52381 0.0
H75 H 0.09606 0.18266 0.55208 0.0
H76 H 0.85357 0.93519 0.60531 0.0
H77 H 0.93655 0.83286 0.59016 0.0
C78 C 0.46322 0.46917 0.87715 0.0
N79 N 0.57289 0.44393 0.01119 0.0
C80 C 0.56215 0.40252 0.01307 0.0
C81 C 0.59098 0.37098 0.0296 0.0
C82 C 0.63118 0.38215 0.04427 0.0
C83 C 0.64189 0.4249 0.03902 0.0
C84 C 0.61195 0.45559 0.02249 0.0
Zn85 Zn 0.52806 0.48791 0.00192 0.0
C86 C 0.54297 0.5616 0.89224 0.0
N87 N 0.43219 0.5775 -0.00977 0.0
C88 C 0.39382 0.56327 0.98353 0.0
C89 C 0.44042 0.61909 -0.00096 0.0
C90 C 0.4094 0.64794 0.00382 0.0
C91 C 0.36977 0.6337 -0.00083 0.0
C92 C 0.36195 0.59104 0.98772 0.0
Zn93 Zn 0.47785 0.53443 -0.00474 0.0
O94 O 0.49684 0.45575 0.90906 0.0
C95 C 0.46486 0.4616 0.10878 0.0
O96 O 0.44837 0.50289 0.89939 0.0
H97 H 0.47112 0.6297 0.00446 0.0
H98 H 0.53098 0.39391 0.0043 0.0
H99 H 0.38792 0.53008 0.97708 0.0
O100 O 0.49867 0.45119 0.08749 0.0
O101 O 0.44784 0.49516 0.07798 0.0
H102 H 0.61978 0.48869 0.02102 0.0
O103 O 0.50769 0.56479 0.09185 0.0
O104 O 0.55793 0.52017 0.09474 0.0
O105 O 0.50941 0.57328 0.91379 0.0
O106 O 0.55757 0.52587 0.91777 0.0
C107 C 0.54182 0.5519 0.12175 0.0
H108 H 0.58193 0.33816 0.03296 0.0
H109 H 0.6728 0.43434 0.04975 0.0
H110 H 0.41622 0.68077 0.0129 0.0
H111 H 0.33159 0.57922 0.98425 0.0
C112 C 0.22604 0.21689 0.60167 0.0
C113 C 0.23316 0.23721 0.52656 0.0
C114 C 0.18077 0.1947 0.45956 0.0
C115 C 0.17531 0.17263 0.53389 0.0
N116 N 0.19523 0.15855 0.67421 0.0
N117 N 0.22257 0.24122 0.38246 0.0
C118 C 0.19876 0.18248 0.60458 0.0
C119 C 0.21186 0.22505 0.45503 0.0
N120 N 0.24424 0.23161 0.67035 0.0
N121 N 0.15579 0.18706 0.39349 0.0
H122 H 0.24521 0.26349 0.37651 0.0
H123 H 0.21143 0.23018 0.32794 0.0
H124 H 0.13382 0.16376 0.39349 0.0
H125 H 0.15493 0.20559 0.34002 0.0
H126 H 0.2372 0.22137 0.72755 0.0
H127 H 0.26456 0.25653 0.67028 0.0
H128 H 0.21446 0.16086 0.72562 0.0
H129 H 0.17452 0.13418 0.67931 0.0
C130 C 0.29522 0.69805 0.10121 0.0
C131 C 0.27041 0.71443 0.03381 0.0
C132 C 0.31368 0.68195 0.94342 0.0
C133 C 0.33644 0.66279 0.01091 0.0
N134 N 0.34718 0.64832 0.15368 0.0
N135 N 0.25365 0.72037 0.89113 0.0
C136 C 0.3269 0.66988 0.08979 0.0
C137 C 0.27897 0.70588 0.95493 0.0
N138 N 0.28847 0.70947 0.1762 0.0
N139 N 0.32597 0.67807 0.86854 0.0
H140 H 0.22935 0.74012 0.89673 0.0
H141 H 0.25531 0.71121 0.83306 0.0
H142 H 0.35093 0.6603 0.85807 0.0
H143 H 0.31338 0.6947 0.81729 0.0
H144 H 0.30822 0.70295 0.22655 0.0
H145 H 0.26417 0.72787 0.18788 0.0
H146 H 0.33875 0.64799 0.21197 0.0
H147 H 0.37115 0.62814 0.14797 0.0
C148 C 0.80302 0.81589 0.66867 0.0
C149 C 0.78738 0.79973 0.59558 0.0
C150 C 0.84042 0.83529 0.52482 0.0
C151 C 0.85693 0.85012 0.59842 0.0
N152 N 0.85865 0.84939 0.74209 0.0
N153 N 0.79399 0.78833 0.4564 0.0
C154 C 0.83957 0.83886 0.67096 0.0
C155 C 0.80715 0.80744 0.5245 0.0
N156 N 0.78257 0.80973 0.73555 0.0
N157 N 0.85528 0.84959 0.45465 0.0
H158 H 0.76834 0.76977 0.45187 0.0
H159 H 0.80991 0.78845 0.40574 0.0
H160 H 0.87991 0.86958 0.45224 0.0
H161 H 0.84159 0.84428 0.39829 0.0
H162 H 0.78961 0.82475 0.78824 0.0
H163 H 0.75695 0.79113 0.73715 0.0
H164 H 0.84992 0.83872 0.79783 0.0
H165 H 0.88537 0.86631 0.74562 0.0
C166 C 0.70162 0.30576 0.17056 0.0
C167 C 0.70602 0.2746 0.11483 0.0
C168 C 0.67162 0.32103 0.00884 0.0
C169 C 0.66133 0.34849 0.06727 0.0
N170 N 0.66355 0.3657 0.2056 0.0
N171 N 0.69051 0.2502 0.98198 0.0
C172 C 0.67586 0.34081 0.14864 0.0
C173 C 0.69032 0.28177 0.03382 0.0
N174 N 0.72274 0.30226 0.24382 0.0
N175 N 0.66341 0.33255 0.92943 0.0
H176 H 0.7025 0.22031 -0.00227 0.0
H177 H 0.6754 0.25229 0.92514 0.0
H178 H 0.64964 0.36117 0.90941 0.0
H179 H 0.67375 0.3158 0.88376 0.0
H180 H 0.72372 0.32598 0.28413 0.0
H181 H 0.74257 0.27742 0.26099 0.0
H182 H 0.66935 0.35857 0.26683 0.0
H183 H 0.64501 0.39194 0.19207 0.0
C184 C 0.09809 0.94365 0.25515 0.0
C185 C 0.10576 0.89968 0.26575 0.0
C186 C 0.0746 0.89657 0.39284 0.0
C187 C 0.06517 0.94046 0.38051 0.0
N188 N 0.05873 0.00262 0.28972 0.0
N189 N 0.09495 0.83252 0.33499 0.0
C190 C 0.0743 0.96311 0.30867 0.0
C191 C 0.09204 0.87559 0.33167 0.0
N192 N 0.11448 0.96713 0.19512 0.0
N193 N 0.06888 0.8752 0.46416 0.0
H194 H 0.10843 0.81625 0.29215 0.0
H195 H 0.08121 0.81277 0.37628 0.0
H196 H 0.0557 0.88841 0.51067 0.0
H197 H 0.08003 0.84498 0.48003 0.0
H198 H 0.11381 1.00001 0.19012 0.0
H199 H 0.13173 0.95402 0.15395 0.0
H200 H 0.06084 0.0188 0.23437 0.0
H201 H 0.04002 0.01756 0.32583 0.0
C202 C 0.5716 0.63251 0.71494 0.0
C203 C 0.61198 0.64158 0.73988 0.0
C204 C 0.60474 0.60394 0.86958 0.0
C205 C 0.56608 0.59032 0.84063 0.0
N206 N 0.51426 0.5874 0.73259 0.0
N207 N 0.66851 0.63407 0.8376 0.0
C208 C 0.54971 0.60379 0.76269 0.0
C209 C 0.62894 0.62704 0.81657 0.0
N210 N 0.55405 0.65189 0.64587 0.0
N211 N 0.6178 0.59593 0.94837 0.0
H212 H 0.68661 0.65217 0.80119 0.0
H213 H 0.68398 0.61997 0.88861 0.0
H214 H 0.60101 0.57922 0.98919 0.0
H215 H 0.64374 0.60886 0.97508 0.0
H216 H 0.52361 0.65005 0.62854 0.0
H217 H 0.56924 0.67312 0.60934 0.0
H218 H 0.50313 0.59215 0.673 0.0
H219 H 0.49738 0.56603 0.76533 0.0
C220 C 0.89291 0.13613 0.36733 0.0
C221 C 0.87554 0.11514 0.30093 0.0
C222 C 0.92457 0.05775 0.32891 0.0
C223 C 0.93854 0.07608 0.40084 0.0
N224 N 0.93241 0.12971 0.4948 0.0
N225 N 0.87072 0.05275 0.22499 0.0
C226 C 0.92201 0.1147 0.42151 0.0
C227 C 0.89047 0.07522 0.28292 0.0
N228 N 0.88217 0.17684 0.3777 0.0
N229 N 0.94428 0.02391 0.30396 0.0
H230 H 0.84509 0.06374 0.19076 0.0
H231 H 0.87757 0.02154 0.21557 0.0
H232 H 0.96907 0.00989 0.33668 0.0
H233 H 0.93836 0.01216 0.24765 0.0
H234 H 0.89671 0.1953 0.42023 0.0
H235 H 0.86104 0.19349 0.33893 0.0
H236 H 0.91815 0.15506 0.5171 0.0
H237 H 0.9531 0.11445 0.5363 0.0
C238 C 0.43272 0.42192 0.67887 0.0
C239 C 0.4023 0.39354 0.70174 0.0
C240 C 0.40741 0.42032 0.83607 0.0
C241 C 0.44107 0.44477 0.81574 0.0
N242 N 0.48836 0.46646 0.72075 0.0
N243 N 0.36263 0.36253 0.80303 0.0
C244 C 0.45453 0.44481 0.73799 0.0
C245 C 0.38989 0.39208 0.7805 0.0
N246 N 0.43947 0.42846 0.59984 0.0
N247 N 0.39216 0.42418 0.90833 0.0
H248 H 0.349 0.34171 0.76354 0.0
H249 H 0.3556 0.3565 0.86186 0.0
H250 H 0.40487 0.44347 0.95158 0.0
H251 H 0.3653 0.41068 0.92344 0.0
H252 H 0.45826 0.45188 0.57823 0.0
H253 H 0.42322 0.41329 0.55444 0.0
H254 H 0.5024 0.46355 0.66831 0.0
H255 H 0.50404 0.4854 0.76113 0.0
C256 C 0.58991 0.63548 0.25119 0.0
C257 C 0.60164 0.61033 0.32197 0.0
C258 C 0.57096 0.54814 0.26351 0.0
C259 C 0.56202 0.57238 0.19045 0.0
N260 N 0.5682 0.63731 0.10965 0.0
N261 N 0.61128 0.54137 0.3898 0.0
C262 C 0.57293 0.61561 0.18275 0.0
C263 C 0.59447 0.56623 0.32648 0.0
N264 N 0.5935 0.67842 0.25039 0.0
N265 N 0.55546 0.50846 0.27417 0.0
H266 H 0.62944 0.55333 0.43654 0.0
H267 H 0.61055 0.5085 0.39206 0.0
H268 H 0.53736 0.4942 0.23012 0.0
H269 H 0.55729 0.49128 0.32923 0.0
H270 H 0.5813 0.69879 0.20377 0.0
H271 H 0.60611 0.69405 0.29917 0.0
H272 H 0.57974 0.66737 0.0984 0.0
H273 H 0.55549 0.62403 0.05828 0.0
C274 C 0.94885 0.05566 0.89029 0.0
C275 C 0.94447 0.09989 0.89403 0.0
C276 C 0.97366 0.1116 0.76549 0.0
C277 C 0.97968 0.06727 0.76342 0.0
N278 N 0.98467 0.99924 0.83722 0.0
N279 N 0.96154 0.17024 0.8464 0.0
C280 C 0.97084 0.03993 0.82994 0.0
C281 C 0.95958 0.12797 0.83498 0.0
N282 N 0.93038 0.02843 0.94169 0.0
N283 N 0.9795 0.13809 0.70028 0.0
H284 H 0.95193 0.18327 0.8971 0.0
H285 H 0.97625 0.19176 0.80977 0.0
H286 H 0.99081 0.1283 0.64878 0.0
H287 H 0.97039 0.16958 0.69499 0.0
H288 H 0.92893 0.99598 0.93533 0.0
H289 H 0.9132 0.03837 0.98603 0.0
H290 H 0.98254 0.97949 0.8886 0.0
H291 H 1.00233 0.98667 0.79624 0.0
C292 C 0.4341 0.36463 0.23174 0.0
C293 C 0.42392 0.38304 0.30216 0.0
C294 C 0.43786 0.45355 0.24385 0.0
C295 C 0.44683 0.43542 0.17218 0.0
N296 N 0.44448 0.37527 0.09073 0.0
N297 N 0.40463 0.44487 0.36632 0.0
C298 C 0.44203 0.39138 0.16383 0.0
C299 C 0.42207 0.42752 0.3052 0.0
N300 N 0.43829 0.32182 0.23102 0.0
N301 N 0.44686 0.49484 0.25602 0.0
H302 H 0.3918 0.42659 0.41123 0.0
H303 H 0.39904 0.4771 0.36765 0.0
H304 H 0.4596 0.5151 0.21407 0.0
H305 H 0.44522 0.50802 0.31097 0.0
H306 H 0.4503 0.30697 0.18479 0.0
H307 H 0.43241 0.30116 0.27932 0.0
H308 H 0.43735 0.34417 0.07908 0.0
H309 H 0.45003 0.394 0.03961 0.0
C310 C 0.11627 0.93083 0.88482 0.0
C311 C 0.13749 0.89346 0.87178 0.0
C312 C 0.1185 0.90295 0.72754 0.0
C313 C 0.09771 0.94039 0.74103 0.0
N314 N 0.0851 0.99579 0.82794 0.0
N315 N 0.16451 0.84712 0.78131 0.0
C316 C 0.09935 0.95622 0.81823 0.0
C317 C 0.14017 0.8803 0.79314 0.0
N318 N 0.11007 0.9408 0.96097 0.0
N319 N 0.11765 0.88946 0.65175 0.0
H320 H 0.18106 0.83032 0.82815 0.0
H321 H 0.17063 0.83784 0.72524 0.0
H322 H 0.10589 0.90801 0.60201 0.0
H323 H 0.12776 0.86001 0.63803 0.0
H324 H 0.09053 0.96444 0.97383 0.0
H325 H 0.12168 0.92324 0.01196 0.0
H326 H 0.0896 0.01095 0.88119 0.0
H327 H 0.07172 0.01519 0.78097 0.0
loop_
_geom_bond_atom_site_label_1
_geom_bond_atom_site_label_2
_geom_bond_distance
_geom_bond_site_symmetry_2
_ccdc_geom_bond_type
O0 Cd1 2.300 1_556 S
O0 C7 1.275 . S
Cd1 O0 2.300 1_554 S
Cd1 O9 2.381 1_554 S
Cd1 O10 2.378 . S
O2 Cd3 2.385 . S
O2 C7 1.255 1_554 S
Cd3 O2 2.385 . S
Cd3 O4 2.317 . S
O4 Cd3 2.317 . S
O4 C5 1.232 . S
C5 O4 1.232 . S
C5 O6 1.218 . S
O6 C5 1.218 . S
C7 O0 1.275 . S
C7 O2 1.255 1_556 S
C8 O9 1.258 1_554 S
C8 O10 1.256 . S
O9 Cd1 2.381 1_556 S
O9 C8 1.258 1_556 S
O10 Cd1 2.378 . S
O10 C8 1.256 . S
O11 Cd12 2.300 . S
O11 C18 1.275 . S
Cd12 O11 2.300 . S
Cd12 O20 2.381 . S
Cd12 O21 2.378 . S
O13 Cd14 2.385 . S
O13 C18 1.255 . S
Cd14 O13 2.385 . S
Cd14 O15 2.317 . S
O15 Cd14 2.317 . S
O15 C16 1.232 . S
C16 O15 1.232 . S
C16 O17 1.218 . S
O17 C16 1.218 . S
C18 O11 1.275 . S
C18 O13 1.255 . S
C19 O20 1.258 . S
C19 O21 1.256 . S
O20 Cd12 2.381 . S
O20 C19 1.258 . S
O21 Cd12 2.378 . S
O21 C19 1.256 . S
O22 Cd23 2.300 . S
O22 C29 1.275 . S
Cd23 O22 2.300 . S
Cd23 O31 2.381 . S
Cd23 O32 2.378 . S
O24 Cd25 2.385 . S
O24 C29 1.255 . S
Cd25 O24 2.385 . S
Cd25 O26 2.317 1_554 S
O26 Cd25 2.317 1_556 S
O26 C27 1.232 . S
C27 O26 1.232 . S
C27 O28 1.218 . S
O28 C27 1.218 . S
C29 O22 1.275 . S
C29 O24 1.255 . S
C30 O31 1.258 . S
C30 O32 1.256 . S
O31 Cd23 2.381 . S
O31 C30 1.258 . S
O32 Cd23 2.378 . S
O32 C30 1.256 . S
O33 Cd34 2.300 . S
O33 C40 1.275 . S
Cd34 O33 2.300 . S
Cd34 O42 2.381 . S
Cd34 O43 2.378 . S
O35 Cd36 2.385 . S
O35 C40 1.255 . S
Cd36 O35 2.385 . S
Cd36 O37 2.317 . S
O37 Cd36 2.317 . S
O37 C38 1.232 . S
C38 O37 1.232 . S
C38 O39 1.218 . S
O39 C38 1.218 . S
C40 O33 1.275 . S
C40 O35 1.255 . S
C41 O42 1.258 . S
C41 O43 1.256 . S
O42 Cd34 2.381 . S
O42 C41 1.258 . S
O43 Cd34 2.378 . S
O43 C41 1.256 . S
C44 O60 1.251 . S
C44 O62 1.254 . S
N45 C46 1.333 . S
N45 C50 1.307 . S
N45 Zn51 2.020 . S
C46 N45 1.333 . S
C46 C47 1.379 . S
C46 H64 0.952 . S
C47 C46 1.379 . S
C47 C48 1.390 . S
C47 H74 0.949 . S
C48 C47 1.390 . S
C48 C49 1.357 . S
C49 C48 1.357 . S
C49 C50 1.370 . S
C49 H75 0.950 . S
C50 N45 1.307 . S
C50 C49 1.370 . S
C50 H68 0.948 . S
Zn51 N45 2.020 . S
Zn51 O60 2.039 1_545 S
Zn51 O66 2.034 1_545 S
Zn51 O70 2.025 . S
Zn51 O72 2.025 . S
C52 O71 1.246 . S
C52 O72 1.248 1_655 S
N53 C54 1.307 . S
N53 C55 1.333 . S
N53 Zn59 2.020 . S
C54 N53 1.307 . S
C54 C58 1.370 . S
C54 H65 0.948 . S
C55 N53 1.333 . S
C55 C56 1.379 . S
C55 H63 0.952 . S
C56 C55 1.379 . S
C56 C57 1.390 . S
C56 H76 0.949 . S
C57 C56 1.390 . S
C57 C58 1.357 . S
C58 C54 1.370 . S
C58 C57 1.357 . S
C58 H77 0.950 . S
Zn59 N53 2.020 . S
Zn59 O62 2.025 1_655 S
Zn59 O67 2.024 1_655 S
Zn59 O69 2.039 1_565 S
Zn59 O71 2.034 1_565 S
O60 C44 1.251 . S
O60 Zn51 2.039 1_565 S
C61 O66 1.246 . S
C61 O67 1.249 . S
O62 C44 1.254 . S
O62 Zn59 2.025 1_455 S
H63 C55 0.952 . S
H64 C46 0.952 . S
H65 C54 0.948 . S
O66 Zn51 2.034 1_565 S
O66 C61 1.246 . S
O67 Zn59 2.024 1_455 S
O67 C61 1.249 . S
H68 C50 0.948 . S
O69 Zn59 2.039 1_545 S
O69 C73 1.251 . S
O70 Zn51 2.025 . S
O70 C73 1.254 1_455 S
O71 C52 1.246 . S
O71 Zn59 2.034 1_545 S
O72 Zn51 2.025 . S
O72 C52 1.248 1_455 S
C73 O69 1.251 . S
C73 O70 1.254 1_655 S
H74 C47 0.949 . S
H75 C49 0.950 . S
H76 C56 0.949 . S
H77 C58 0.950 . S
C78 O94 1.251 . S
C78 O96 1.254 . S
N79 C80 1.333 . S
N79 C84 1.307 . S
N79 Zn85 2.020 . S
C80 N79 1.333 . S
C80 C81 1.379 . S
C80 H98 0.952 1_554 S
C81 C80 1.379 . S
C81 C82 1.390 . S
C81 H108 0.949 . S
C82 C81 1.390 . S
C82 C83 1.357 . S
C83 C82 1.357 . S
C83 C84 1.370 . S
C83 H109 0.950 . S
C84 N79 1.307 . S
C84 C83 1.370 . S
C84 H102 0.948 . S
Zn85 N79 2.020 . S
Zn85 O94 2.039 1_554 S
Zn85 O100 2.034 . S
Zn85 O104 2.025 . S
Zn85 O106 2.024 1_554 S
C86 O105 1.246 . S
C86 O106 1.249 . S
N87 C88 1.307 1_554 S
N87 C89 1.333 . S
N87 Zn93 2.020 . S
C88 N87 1.307 1_556 S
C88 C92 1.370 . S
C88 H99 0.948 . S
C89 N87 1.333 . S
C89 C90 1.379 . S
C89 H97 0.952 . S
C90 C89 1.379 . S
C90 C91 1.390 . S
C90 H110 0.949 . S
C91 C90 1.390 . S
C91 C92 1.357 1_554 S
C92 C88 1.370 . S
C92 C91 1.357 1_556 S
C92 H111 0.950 . S
Zn93 N87 2.020 . S
Zn93 O96 2.025 1_554 S
Zn93 O101 2.024 . S
Zn93 O103 2.039 . S
Zn93 O105 2.034 1_554 S
O94 C78 1.251 . S
O94 Zn85 2.039 1_556 S
C95 O100 1.246 . S
C95 O101 1.249 . S
O96 C78 1.254 . S
O96 Zn93 2.025 1_556 S
H97 C89 0.952 . S
H98 C80 0.952 1_556 S
H99 C88 0.948 . S
O100 Zn85 2.034 . S
O100 C95 1.246 . S
O101 Zn93 2.024 . S
O101 C95 1.249 . S
H102 C84 0.948 . S
O103 Zn93 2.039 . S
O103 C107 1.251 . S
O104 Zn85 2.025 . S
O104 C107 1.254 . S
O105 C86 1.246 . S
O105 Zn93 2.034 1_556 S
O106 Zn85 2.024 1_556 S
O106 C86 1.249 . S
C107 O103 1.251 . S
C107 O104 1.254 . S
H108 C81 0.949 . S
H109 C83 0.950 . S
H110 C90 0.949 . S
H111 C92 0.950 . S
C112 C113 1.363 . S
C112 C118 1.379 . S
C112 N120 1.356 . S
C113 C112 1.363 . S
C113 C119 1.363 . S
C114 C115 1.363 . S
C114 C119 1.379 . S
C114 N121 1.356 . S
C115 C114 1.363 . S
C115 C118 1.363 . S
N116 C118 1.356 . S
N116 H128 0.984 . S
N116 H129 0.985 . S
N117 C119 1.356 . S
N117 H122 0.984 . S
N117 H123 0.985 . S
C118 C112 1.379 . S
C118 C115 1.363 . S
C118 N116 1.356 . S
C119 C113 1.363 . S
C119 C114 1.379 . S
C119 N117 1.356 . S
N120 C112 1.356 . S
N120 H126 0.984 . S
N120 H127 0.984 . S
N121 C114 1.356 . S
N121 H124 0.984 . S
N121 H125 0.985 . S
H122 N117 0.984 . S
H123 N117 0.985 . S
H124 N121 0.984 . S
H125 N121 0.985 . S
H126 N120 0.984 . S
H127 N120 0.984 . S
H128 N116 0.984 . S
H129 N116 0.985 . S
C130 C131 1.363 . S
C130 C136 1.379 . S
C130 N138 1.356 . S
C131 C130 1.363 . S
C131 C137 1.363 1_554 S
C132 C133 1.363 1_556 S
C132 C137 1.379 . S
C132 N139 1.356 . S
C133 C132 1.363 1_554 S
C133 C136 1.363 . S
N134 C136 1.356 . S
N134 H146 0.984 . S
N134 H147 0.985 . S
N135 C137 1.356 . S
N135 H140 0.984 . S
N135 H141 0.985 . S
C136 C130 1.379 . S
C136 C133 1.363 . S
C136 N134 1.356 . S
C137 C131 1.363 1_556 S
C137 C132 1.379 . S
C137 N135 1.356 . S
N138 C130 1.356 . S
N138 H144 0.984 . S
N138 H145 0.984 . S
N139 C132 1.356 . S
N139 H142 0.984 . S
N139 H143 0.985 . S
H140 N135 0.984 . S
H141 N135 0.985 . S
H142 N139 0.984 . S
H143 N139 0.985 . S
H144 N138 0.984 . S
H145 N138 0.984 . S
H146 N134 0.984 . S
H147 N134 0.985 . S
C148 C149 1.363 . S
C148 C154 1.379 . S
C148 N156 1.356 . S
C149 C148 1.363 . S
C149 C155 1.363 . S
C150 C151 1.363 . S
C150 C155 1.379 . S
C150 N157 1.356 . S
C151 C150 1.363 . S
C151 C154 1.363 . S
N152 C154 1.356 . S
N152 H164 0.984 . S
N152 H165 0.985 . S
N153 C155 1.356 . S
N153 H158 0.984 . S
N153 H159 0.985 . S
C154 C148 1.379 . S
C154 C151 1.363 . S
C154 N152 1.356 . S
C155 C149 1.363 . S
C155 C150 1.379 . S
C155 N153 1.356 . S
N156 C148 1.356 . S
N156 H162 0.984 . S
N156 H163 0.984 . S
N157 C150 1.356 . S
N157 H160 0.984 . S
N157 H161 0.985 . S
H158 N153 0.984 . S
H159 N153 0.985 . S
H160 N157 0.984 . S
H161 N157 0.985 . S
H162 N156 0.984 . S
H163 N156 0.984 . S
H164 N152 0.984 . S
H165 N152 0.985 . S
C166 C167 1.363 . S
C166 C172 1.379 . S
C166 N174 1.356 . S
C167 C166 1.363 . S
C167 C173 1.363 . S
C168 C169 1.360 1_556 S
C168 C173 1.378 1_556 S
C168 N175 1.359 . S
C169 C168 1.360 1_554 S
C169 C172 1.363 . S
N170 C172 1.356 . S
N170 H182 0.984 . S
N170 H183 0.985 . S
N171 C173 1.356 1_556 S
N171 H176 0.984 1_556 S
N171 H177 0.985 . S
C172 C166 1.379 . S
C172 C169 1.363 . S
C172 N170 1.356 . S
C173 C167 1.363 . S
C173 C168 1.378 1_554 S
C173 N171 1.356 1_554 S
N174 C166 1.356 . S
N174 H180 0.984 . S
N174 H181 0.984 . S
N175 C168 1.359 . S
N175 H178 0.984 . S
N175 H179 0.985 . S
H176 N171 0.984 1_554 S
H177 N171 0.985 . S
H178 N175 0.984 . S
H179 N175 0.985 . S
H180 N174 0.984 . S
H181 N174 0.984 . S
H182 N170 0.984 . S
H183 N170 0.985 . S
C184 C185 1.363 . S
C184 C190 1.379 . S
C184 N192 1.356 . S
C185 C184 1.363 . S
C185 C191 1.363 . S
C186 C187 1.363 . S
C186 C191 1.379 . S
C186 N193 1.356 . S
C187 C186 1.363 . S
C187 C190 1.363 . S
N188 C190 1.356 1_545 S
N188 H200 0.984 . S
N188 H201 0.985 . S
N189 C191 1.356 . S
N189 H194 0.984 . S
N189 H195 0.985 . S
C190 C184 1.379 . S
C190 C187 1.363 . S
C190 N188 1.356 1_565 S
C191 C185 1.363 . S
C191 C186 1.379 . S
C191 N189 1.356 . S
N192 C184 1.356 . S
N192 H198 0.984 . S
N192 H199 0.984 . S
N193 C186 1.356 . S
N193 H196 0.984 . S
N193 H197 0.985 . S
H194 N189 0.984 . S
H195 N189 0.985 . S
H196 N193 0.984 . S
H197 N193 0.985 . S
H198 N192 0.984 . S
H199 N192 0.984 . S
H200 N188 0.984 . S
H201 N188 0.985 . S
C202 C203 1.363 . S
C202 C208 1.379 . S
C202 N210 1.356 . S
C203 C202 1.363 . S
C203 C209 1.363 . S
C204 C205 1.363 . S
C204 C209 1.379 . S
C204 N211 1.356 . S
C205 C204 1.363 . S
C205 C208 1.363 . S
N206 C208 1.356 . S
N206 H218 0.984 . S
N206 H219 0.985 . S
N207 C209 1.356 . S
N207 H212 0.984 . S
N207 H213 0.985 . S
C208 C202 1.379 . S
C208 C205 1.363 . S
C208 N206 1.356 . S
C209 C203 1.363 . S
C209 C204 1.379 . S
C209 N207 1.356 . S
N210 C202 1.356 . S
N210 H216 0.984 . S
N210 H217 0.984 . S
N211 C204 1.356 . S
N211 H214 0.984 . S
N211 H215 0.985 . S
H212 N207 0.984 . S
H213 N207 0.985 . S
H214 N211 0.984 . S
H215 N211 0.985 . S
H216 N210 0.984 . S
H217 N210 0.984 . S
H218 N206 0.984 . S
H219 N206 0.985 . S
C220 C221 1.363 . S
C220 C226 1.379 . S
C220 N228 1.356 . S
C221 C220 1.363 . S
C221 C227 1.363 . S
C222 C223 1.363 . S
C222 C227 1.379 . S
C222 N229 1.356 . S
C223 C222 1.363 . S
C223 C226 1.363 . S
N224 C226 1.356 . S
N224 H236 0.984 . S
N224 H237 0.985 . S
N225 C227 1.356 . S
N225 H230 0.984 . S
N225 H231 0.985 . S
C226 C220 1.379 . S
C226 C223 1.363 . S
C226 N224 1.356 . S
C227 C221 1.363 . S
C227 C222 1.379 . S
C227 N225 1.356 . S
N228 C220 1.356 . S
N228 H234 0.984 . S
N228 H235 0.984 . S
N229 C222 1.356 . S
N229 H232 0.984 . S
N229 H233 0.985 . S
H230 N225 0.984 . S
H231 N225 0.985 . S
H232 N229 0.984 . S
H233 N229 0.985 . S
H234 N228 0.984 . S
H235 N228 0.984 . S
H236 N224 0.984 . S
H237 N224 0.985 . S
C238 C239 1.363 . S
C238 C244 1.379 . S
C238 N246 1.356 . S
C239 C238 1.363 . S
C239 C245 1.363 . S
C240 C241 1.363 . S
C240 C245 1.379 . S
C240 N247 1.356 . S
C241 C240 1.363 . S
C241 C244 1.363 . S
N242 C244 1.356 . S
N242 H254 0.984 . S
N242 H255 0.985 . S
N243 C245 1.356 . S
N243 H248 0.984 . S
N243 H249 0.985 . S
C244 C238 1.379 . S
C244 C241 1.363 . S
C244 N242 1.356 . S
C245 C239 1.363 . S
C245 C240 1.379 . S
C245 N243 1.356 . S
N246 C238 1.356 . S
N246 H252 0.984 . S
N246 H253 0.984 . S
N247 C240 1.356 . S
N247 H250 0.984 . S
N247 H251 0.985 . S
H248 N243 0.984 . S
H249 N243 0.985 . S
H250 N247 0.984 . S
H251 N247 0.985 . S
H252 N246 0.984 . S
H253 N246 0.984 . S
H254 N242 0.984 . S
H255 N242 0.985 . S
C256 C257 1.363 . S
C256 C262 1.379 . S
C256 N264 1.356 . S
C257 C256 1.363 . S
C257 C263 1.363 . S
C258 C259 1.363 . S
C258 C263 1.379 . S
C258 N265 1.356 . S
C259 C258 1.363 . S
C259 C262 1.363 . S
N260 C262 1.356 . S
N260 H272 0.984 . S
N260 H273 0.985 . S
N261 C263 1.356 . S
N261 H266 0.984 . S
N261 H267 0.985 . S
C262 C256 1.379 . S
C262 C259 1.363 . S
C262 N260 1.356 . S
C263 C257 1.363 . S
C263 C258 1.379 . S
C263 N261 1.356 . S
N264 C256 1.356 . S
N264 H270 0.984 . S
N264 H271 0.984 . S
N265 C258 1.356 . S
N265 H268 0.984 . S
N265 H269 0.985 . S
H266 N261 0.984 . S
H267 N261 0.985 . S
H268 N265 0.984 . S
H269 N265 0.985 . S
H270 N264 0.984 . S
H271 N264 0.984 . S
H272 N260 0.984 . S
H273 N260 0.985 . S
C274 C275 1.363 . S
C274 C280 1.379 . S
C274 N282 1.356 . S
C275 C274 1.363 . S
C275 C281 1.363 . S
C276 C277 1.363 . S
C276 C281 1.379 . S
C276 N283 1.356 . S
C277 C276 1.363 . S
C277 C280 1.363 . S
N278 C280 1.356 . S
N278 H290 0.984 1_545 S
N278 H291 0.985 . S
N279 C281 1.356 . S
N279 H284 0.984 . S
N279 H285 0.985 . S
C280 C274 1.379 . S
C280 C277 1.363 . S
C280 N278 1.356 . S
C281 C275 1.363 . S
C281 C276 1.379 . S
C281 N279 1.356 . S
N282 C274 1.356 . S
N282 H288 0.984 1_556 S
N282 H289 0.984 1_556 S
N283 C276 1.356 . S
N283 H286 0.984 . S
N283 H287 0.985 . S
H284 N279 0.984 . S
H285 N279 0.985 . S
H286 N283 0.984 . S
H287 N283 0.985 . S
H288 N282 0.984 1_554 S
H289 N282 0.984 1_554 S
H290 N278 0.984 1_565 S
H291 N278 0.985 . S
C292 C293 1.363 . S
C292 C298 1.379 . S
C292 N300 1.356 . S
C293 C292 1.363 . S
C293 C299 1.363 . S
C294 C295 1.363 . S
C294 C299 1.379 . S
C294 N301 1.356 . S
C295 C294 1.363 . S
C295 C298 1.363 . S
N296 C298 1.356 . S
N296 H308 0.984 . S
N296 H309 0.985 . S
N297 C299 1.356 . S
N297 H302 0.984 . S
N297 H303 0.985 . S
C298 C292 1.379 . S
C298 C295 1.363 . S
C298 N296 1.356 . S
C299 C293 1.363 . S
C299 C294 1.379 . S
C299 N297 1.356 . S
N300 C292 1.356 . S
N300 H306 0.984 . S
N300 H307 0.984 . S
N301 C294 1.356 . S
N301 H304 0.984 . S
N301 H305 0.985 . S
H302 N297 0.984 . S
H303 N297 0.985 . S
H304 N301 0.984 . S
H305 N301 0.985 . S
H306 N300 0.984 . S
H307 N300 0.984 . S
H308 N296 0.984 . S
H309 N296 0.985 . S
C310 C311 1.363 . S
C310 C316 1.379 . S
C310 N318 1.356 . S
C311 C310 1.363 . S
C311 C317 1.363 . S
C312 C313 1.363 . S
C312 C317 1.379 . S
C312 N319 1.356 . S
C313 C312 1.363 . S
C313 C316 1.363 . S
N314 C316 1.356 . S
N314 H326 0.984 . S
N314 H327 0.985 . S
N315 C317 1.356 . S
N315 H320 0.984 . S
N315 H321 0.985 . S
C316 C310 1.379 . S
C316 C313 1.363 . S
C316 N314 1.356 . S
C317 C311 1.363 . S
C317 C312 1.379 . S
C317 N315 1.356 . S
N318 C310 1.356 . S
N318 H324 0.984 1_556 S
N318 H325 0.984 1_556 S
N319 C312 1.356 . S
N319 H322 0.984 . S
N319 H323 0.985 . S
H320 N315 0.984 . S
H321 N315 0.985 . S
H322 N319 0.984 . S
H323 N319 0.985 . S
H324 N318 0.984 1_554 S
H325 N318 0.984 1_554 S
H326 N314 0.984 . S
H327 N314 0.985 . S
C115 C48 1.529 . S
C113 C41 1.506 . S
C131 C8 1.504 . S
C133 C91 1.518 . S
C149 C19 1.514 . S
C151 C57 1.542 . S
C167 C30 1.523 . S
C169 C82 1.520 . S
C187 C44 1.568 . S
C185 C5 1.332 . S
C205 C86 1.646 . S
C203 C18 1.596 . S
C221 C29 1.552 . S
C223 C52 1.572 . S
C239 C40 1.587 . S
C241 C78 1.651 . S
C259 C107 1.415 . S
C257 C16 1.167 . S
C277 C73 1.428 . S
C275 C27 1.276 . S
C295 C95 1.407 . S
C293 C38 1.165 . S
C311 C7 1.375 . S
C313 C61 1.413 . S
