# Generated by pormake.
# Topology gar, (4,6)-cn, num edge types: 1
# Building blocks:
#     Node 0, Type 0, BuildingBlock: QUQFOY_clean_sbu_3, # of connection points: 4
#     Node 1, Type 0, BuildingBlock: QUQFOY_clean_sbu_3, # of connection points: 4
#     Node 2, Type 0, BuildingBlock: QUQFOY_clean_sbu_3, # of connection points: 4
#     Node 3, Type 0, BuildingBlock: QUQFOY_clean_sbu_3, # of connection points: 4
#     Node 4, Type 0, BuildingBlock: QUQFOY_clean_sbu_3, # of connection points: 4
#     Node 5, Type 0, BuildingBlock: QUQFOY_clean_sbu_3, # of connection points: 4
#     Node 6, Type 0, BuildingBlock: QUQFOY_clean_sbu_3, # of connection points: 4
#     Node 7, Type 0, BuildingBlock: QUQFOY_clean_sbu_3, # of connection points: 4
#     Node 8, Type 0, BuildingBlock: QUQFOY_clean_sbu_3, # of connection points: 4
#     Node 9, Type 0, BuildingBlock: QUQFOY_clean_sbu_3, # of connection points: 4
#     Node 10, Type 0, BuildingBlock: QUQFOY_clean_sbu_3, # of connection points: 4
#     Node 11, Type 0, BuildingBlock: QUQFOY_clean_sbu_3, # of connection points: 4
#     Node 12, Type 0, BuildingBlock: QUQFOY_clean_sbu_3, # of connection points: 4
#     Node 13, Type 0, BuildingBlock: QUQFOY_clean_sbu_3, # of connection points: 4
#     Node 14, Type 0, BuildingBlock: QUQFOY_clean_sbu_3, # of connection points: 4
#     Node 15, Type 0, BuildingBlock: QUQFOY_clean_sbu_3, # of connection points: 4
#     Node 16, Type 0, BuildingBlock: QUQFOY_clean_sbu_3, # of connection points: 4
#     Node 17, Type 0, BuildingBlock: QUQFOY_clean_sbu_3, # of connection points: 4
#     Node 18, Type 0, BuildingBlock: QUQFOY_clean_sbu_3, # of connection points: 4
#     Node 19, Type 0, BuildingBlock: QUQFOY_clean_sbu_3, # of connection points: 4
#     Node 20, Type 0, BuildingBlock: QUQFOY_clean_sbu_3, # of connection points: 4
#     Node 21, Type 0, BuildingBlock: QUQFOY_clean_sbu_3, # of connection points: 4
#     Node 22, Type 0, BuildingBlock: QUQFOY_clean_sbu_3, # of connection points: 4
#     Node 23, Type 0, BuildingBlock: QUQFOY_clean_sbu_3, # of connection points: 4
#     Node 24, Type 1, BuildingBlock: BETDEL_clean_sbu_0, # of connection points: 6
#     Node 25, Type 1, BuildingBlock: BETDEL_clean_sbu_0, # of connection points: 6
#     Node 26, Type 1, BuildingBlock: BETDEL_clean_sbu_0, # of connection points: 6
#     Node 27, Type 1, BuildingBlock: BETDEL_clean_sbu_0, # of connection points: 6
#     Node 28, Type 1, BuildingBlock: BETDEL_clean_sbu_0, # of connection points: 6
#     Node 29, Type 1, BuildingBlock: BETDEL_clean_sbu_0, # of connection points: 6
#     Node 30, Type 1, BuildingBlock: BETDEL_clean_sbu_0, # of connection points: 6
#     Node 31, Type 1, BuildingBlock: BETDEL_clean_sbu_0, # of connection points: 6
#     Node 32, Type 1, BuildingBlock: BETDEL_clean_sbu_0, # of connection points: 6
#     Node 33, Type 1, BuildingBlock: BETDEL_clean_sbu_0, # of connection points: 6
#     Node 34, Type 1, BuildingBlock: BETDEL_clean_sbu_0, # of connection points: 6
#     Node 35, Type 1, BuildingBlock: BETDEL_clean_sbu_0, # of connection points: 6
#     Node 36, Type 1, BuildingBlock: BETDEL_clean_sbu_0, # of connection points: 6
#     Node 37, Type 1, BuildingBlock: BETDEL_clean_sbu_0, # of connection points: 6
#     Node 38, Type 1, BuildingBlock: BETDEL_clean_sbu_0, # of connection points: 6
#     Node 39, Type 1, BuildingBlock: BETDEL_clean_sbu_0, # of connection points: 6
#     Edge 40, Type (0, 1), BuildingBlock: MIFKUJ_clean_linker_0, # of connection points: 2
#     Edge 41, Type (0, 1), BuildingBlock: MIFKUJ_clean_linker_0, # of connection points: 2
#     Edge 42, Type (0, 1), BuildingBlock: MIFKUJ_clean_linker_0, # of connection points: 2
#     Edge 43, Type (0, 1), BuildingBlock: MIFKUJ_clean_linker_0, # of connection points: 2
#     Edge 44, Type (0, 1), BuildingBlock: MIFKUJ_clean_linker_0, # of connection points: 2
#     Edge 45, Type (0, 1), BuildingBlock: MIFKUJ_clean_linker_0, # of connection points: 2
#     Edge 46, Type (0, 1), BuildingBlock: MIFKUJ_clean_linker_0, # of connection points: 2
#     Edge 47, Type (0, 1), BuildingBlock: MIFKUJ_clean_linker_0, # of connection points: 2
#     Edge 48, Type (0, 1), BuildingBlock: MIFKUJ_clean_linker_0, # of connection points: 2
#     Edge 49, Type (0, 1), BuildingBlock: MIFKUJ_clean_linker_0, # of connection points: 2
#     Edge 50, Type (0, 1), BuildingBlock: MIFKUJ_clean_linker_0, # of connection points: 2
#     Edge 51, Type (0, 1), BuildingBlock: MIFKUJ_clean_linker_0, # of connection points: 2
#     Edge 52, Type (0, 1), BuildingBlock: MIFKUJ_clean_linker_0, # of connection points: 2
#     Edge 53, Type (0, 1), BuildingBlock: MIFKUJ_clean_linker_0, # of connection points: 2
#     Edge 54, Type (0, 1), BuildingBlock: MIFKUJ_clean_linker_0, # of connection points: 2
#     Edge 55, Type (0, 1), BuildingBlock: MIFKUJ_clean_linker_0, # of connection points: 2
#     Edge 56, Type (0, 1), BuildingBlock: MIFKUJ_clean_linker_0, # of connection points: 2
#     Edge 57, Type (0, 1), BuildingBlock: MIFKUJ_clean_linker_0, # of connection points: 2
#     Edge 58, Type (0, 1), BuildingBlock: MIFKUJ_clean_linker_0, # of connection points: 2
#     Edge 59, Type (0, 1), BuildingBlock: MIFKUJ_clean_linker_0, # of connection points: 2
#     Edge 60, Type (0, 1), BuildingBlock: MIFKUJ_clean_linker_0, # of connection points: 2
#     Edge 61, Type (0, 1), BuildingBlock: MIFKUJ_clean_linker_0, # of connection points: 2
#     Edge 62, Type (0, 1), BuildingBlock: MIFKUJ_clean_linker_0, # of connection points: 2
#     Edge 63, Type (0, 1), BuildingBlock: MIFKUJ_clean_linker_0, # of connection points: 2
#     Edge 64, Type (0, 1), BuildingBlock: MIFKUJ_clean_linker_0, # of connection points: 2
#     Edge 65, Type (0, 1), BuildingBlock: MIFKUJ_clean_linker_0, # of connection points: 2
#     Edge 66, Type (0, 1), BuildingBlock: MIFKUJ_clean_linker_0, # of connection points: 2
#     Edge 67, Type (0, 1), BuildingBlock: MIFKUJ_clean_linker_0, # of connection points: 2
#     Edge 68, Type (0, 1), BuildingBlock: MIFKUJ_clean_linker_0, # of connection points: 2
#     Edge 69, Type (0, 1), BuildingBlock: MIFKUJ_clean_linker_0, # of connection points: 2
#     Edge 70, Type (0, 1), BuildingBlock: MIFKUJ_clean_linker_0, # of connection points: 2
#     Edge 71, Type (0, 1), BuildingBlock: MIFKUJ_clean_linker_0, # of connection points: 2
#     Edge 72, Type (0, 1), BuildingBlock: MIFKUJ_clean_linker_0, # of connection points: 2
#     Edge 73, Type (0, 1), BuildingBlock: MIFKUJ_clean_linker_0, # of connection points: 2
#     Edge 74, Type (0, 1), BuildingBlock: MIFKUJ_clean_linker_0, # of connection points: 2
#     Edge 75, Type (0, 1), BuildingBlock: MIFKUJ_clean_linker_0, # of connection points: 2
#     Edge 76, Type (0, 1), BuildingBlock: MIFKUJ_clean_linker_0, # of connection points: 2
#     Edge 77, Type (0, 1), BuildingBlock: MIFKUJ_clean_linker_0, # of connection points: 2
#     Edge 78, Type (0, 1), BuildingBlock: MIFKUJ_clean_linker_0, # of connection points: 2
#     Edge 79, Type (0, 1), BuildingBlock: MIFKUJ_clean_linker_0, # of connection points: 2
#     Edge 80, Type (0, 1), BuildingBlock: MIFKUJ_clean_linker_0, # of connection points: 2
#     Edge 81, Type (0, 1), BuildingBlock: MIFKUJ_clean_linker_0, # of connection points: 2
#     Edge 82, Type (0, 1), BuildingBlock: MIFKUJ_clean_linker_0, # of connection points: 2
#     Edge 83, Type (0, 1), BuildingBlock: MIFKUJ_clean_linker_0, # of connection points: 2
#     Edge 84, Type (0, 1), BuildingBlock: MIFKUJ_clean_linker_0, # of connection points: 2
#     Edge 85, Type (0, 1), BuildingBlock: MIFKUJ_clean_linker_0, # of connection points: 2
#     Edge 86, Type (0, 1), BuildingBlock: MIFKUJ_clean_linker_0, # of connection points: 2
#     Edge 87, Type (0, 1), BuildingBlock: MIFKUJ_clean_linker_0, # of connection points: 2
#     Edge 88, Type (0, 1), BuildingBlock: MIFKUJ_clean_linker_0, # of connection points: 2
#     Edge 89, Type (0, 1), BuildingBlock: MIFKUJ_clean_linker_0, # of connection points: 2
#     Edge 90, Type (0, 1), BuildingBlock: MIFKUJ_clean_linker_0, # of connection points: 2
#     Edge 91, Type (0, 1), BuildingBlock: MIFKUJ_clean_linker_0, # of connection points: 2
#     Edge 92, Type (0, 1), BuildingBlock: MIFKUJ_clean_linker_0, # of connection points: 2
#     Edge 93, Type (0, 1), BuildingBlock: MIFKUJ_clean_linker_0, # of connection points: 2
#     Edge 94, Type (0, 1), BuildingBlock: MIFKUJ_clean_linker_0, # of connection points: 2
#     Edge 95, Type (0, 1), BuildingBlock: MIFKUJ_clean_linker_0, # of connection points: 2
#     Edge 96, Type (0, 1), BuildingBlock: MIFKUJ_clean_linker_0, # of connection points: 2
#     Edge 97, Type (0, 1), BuildingBlock: MIFKUJ_clean_linker_0, # of connection points: 2
#     Edge 98, Type (0, 1), BuildingBlock: MIFKUJ_clean_linker_0, # of connection points: 2
#     Edge 99, Type (0, 1), BuildingBlock: MIFKUJ_clean_linker_0, # of connection points: 2
#     Edge 100, Type (0, 1), BuildingBlock: MIFKUJ_clean_linker_0, # of connection points: 2
#     Edge 101, Type (0, 1), BuildingBlock: MIFKUJ_clean_linker_0, # of connection points: 2
#     Edge 102, Type (0, 1), BuildingBlock: MIFKUJ_clean_linker_0, # of connection points: 2
#     Edge 103, Type (0, 1), BuildingBlock: MIFKUJ_clean_linker_0, # of connection points: 2
#     Edge 104, Type (0, 1), BuildingBlock: MIFKUJ_clean_linker_0, # of connection points: 2
#     Edge 105, Type (0, 1), BuildingBlock: MIFKUJ_clean_linker_0, # of connection points: 2
#     Edge 106, Type (0, 1), BuildingBlock: MIFKUJ_clean_linker_0, # of connection points: 2
#     Edge 107, Type (0, 1), BuildingBlock: MIFKUJ_clean_linker_0, # of connection points: 2
#     Edge 108, Type (0, 1), BuildingBlock: MIFKUJ_clean_linker_0, # of connection points: 2
#     Edge 109, Type (0, 1), BuildingBlock: MIFKUJ_clean_linker_0, # of connection points: 2
#     Edge 110, Type (0, 1), BuildingBlock: MIFKUJ_clean_linker_0, # of connection points: 2
#     Edge 111, Type (0, 1), BuildingBlock: MIFKUJ_clean_linker_0, # of connection points: 2
#     Edge 112, Type (0, 1), BuildingBlock: MIFKUJ_clean_linker_0, # of connection points: 2
#     Edge 113, Type (0, 1), BuildingBlock: MIFKUJ_clean_linker_0, # of connection points: 2
#     Edge 114, Type (0, 1), BuildingBlock: MIFKUJ_clean_linker_0, # of connection points: 2
#     Edge 115, Type (0, 1), BuildingBlock: MIFKUJ_clean_linker_0, # of connection points: 2
#     Edge 116, Type (0, 1), BuildingBlock: MIFKUJ_clean_linker_0, # of connection points: 2
#     Edge 117, Type (0, 1), BuildingBlock: MIFKUJ_clean_linker_0, # of connection points: 2
#     Edge 118, Type (0, 1), BuildingBlock: MIFKUJ_clean_linker_0, # of connection points: 2
#     Edge 119, Type (0, 1), BuildingBlock: MIFKUJ_clean_linker_0, # of connection points: 2
#     Edge 120, Type (0, 1), BuildingBlock: MIFKUJ_clean_linker_0, # of connection points: 2
#     Edge 121, Type (0, 1), BuildingBlock: MIFKUJ_clean_linker_0, # of connection points: 2
#     Edge 122, Type (0, 1), BuildingBlock: MIFKUJ_clean_linker_0, # of connection points: 2
#     Edge 123, Type (0, 1), BuildingBlock: MIFKUJ_clean_linker_0, # of connection points: 2
#     Edge 124, Type (0, 1), BuildingBlock: MIFKUJ_clean_linker_0, # of connection points: 2
#     Edge 125, Type (0, 1), BuildingBlock: MIFKUJ_clean_linker_0, # of connection points: 2
#     Edge 126, Type (0, 1), BuildingBlock: MIFKUJ_clean_linker_0, # of connection points: 2
#     Edge 127, Type (0, 1), BuildingBlock: MIFKUJ_clean_linker_0, # of connection points: 2
#     Edge 128, Type (0, 1), BuildingBlock: MIFKUJ_clean_linker_0, # of connection points: 2
#     Edge 129, Type (0, 1), BuildingBlock: MIFKUJ_clean_linker_0, # of connection points: 2
#     Edge 130, Type (0, 1), BuildingBlock: MIFKUJ_clean_linker_0, # of connection points: 2
#     Edge 131, Type (0, 1), BuildingBlock: MIFKUJ_clean_linker_0, # of connection points: 2
#     Edge 132, Type (0, 1), BuildingBlock: MIFKUJ_clean_linker_0, # of connection points: 2
#     Edge 133, Type (0, 1), BuildingBlock: MIFKUJ_clean_linker_0, # of connection points: 2
#     Edge 134, Type (0, 1), BuildingBlock: MIFKUJ_clean_linker_0, # of connection points: 2
#     Edge 135, Type (0, 1), BuildingBlock: MIFKUJ_clean_linker_0, # of connection points: 2
# Relax obj value: 0.136
# Max RMSD: 0.263
# Mean RMSD: 0.138
data_MOF--net-gar--node1-QUQFOY_clean_sbu_3--node2-BETDEL_clean_sbu_0--edge1-MIFKUJ_clean_linker_0
_symmetry_space_group_name_H-M    P1
_symmetry_Int_Tables_number       1
_symmetry_cell_setting            triclinic
loop_
_symmetry_equiv_pos_as_xyz
'x, y, z'
_cell_length_a     71.927245
_cell_length_b     70.359009
_cell_length_c     71.269163
_cell_angle_alpha  96.12059
_cell_angle_beta   92.463445
_cell_angle_gamma 100.48184
loop_
_atom_site_label
_atom_site_type_symbol
_atom_site_fract_x
_atom_site_fract_y
_atom_site_fract_z
_atom_type_partial_charge
C0 C -0.00158 0.27446 0.36469 0.0
O1 O 0.01194 0.28152 0.3551 0.0
Cd2 Cd 0.04466 0.28314 0.36315 0.0
O3 O 0.00165 0.26669 0.37959 0.0
Cd4 Cd 0.02971 0.25961 0.39749 0.0
C5 C 0.04606 0.30817 0.40749 0.0
O6 O 0.04609 0.25105 0.37 0.0
O7 O 0.06314 0.25509 0.39608 0.0
O8 O 0.01115 0.22825 0.4029 0.0
C9 C 0.06169 0.25018 0.37836 0.0
O10 O 0.05129 0.30797 0.39062 0.0
C11 C 0.01533 0.23024 0.42058 0.0
O12 O 0.03716 0.29278 0.41329 0.0
O13 O 0.02592 0.2461 0.42758 0.0
C14 C 0.97033 0.7657 0.66111 0.0
O15 O 0.98089 0.75774 0.67133 0.0
Cd16 Cd 0.01327 0.75565 0.66771 0.0
O17 O 0.97649 0.77366 0.64674 0.0
Cd18 Cd 0.00617 0.7794 0.62976 0.0
C19 C 0.00771 0.73064 0.62271 0.0
O20 O 0.02544 0.78647 0.65853 0.0
O21 O 0.04122 0.78641 0.63375 0.0
O22 O -0.00141 0.81057 0.62375 0.0
C23 C 0.04144 0.78801 0.65164 0.0
O24 O 0.01203 0.73148 0.64035 0.0
C25 C 0.00135 0.80873 0.60623 0.0
O26 O 0.00392 0.74547 0.61549 0.0
O27 O 0.00596 0.79291 0.59945 0.0
C28 C 0.4875 0.76807 0.85888 0.0
O29 O 0.50023 0.77537 0.84851 0.0
Cd30 Cd 0.53352 0.78099 0.85513 0.0
O31 O 0.49183 0.76152 0.8742 0.0
Cd32 Cd 0.52086 0.75684 0.89238 0.0
C33 C 0.53276 0.80648 0.89944 0.0
O34 O 0.53744 0.75088 0.86473 0.0
O35 O 0.55451 0.75314 0.8906 0.0
O36 O 0.50366 0.72498 0.89825 0.0
C37 C 0.55337 0.75053 0.87269 0.0
O38 O 0.53677 0.80609 0.88217 0.0
C39 C 0.50885 0.72694 0.91573 0.0
O40 O 0.52649 0.79084 0.90653 0.0
O41 O 0.51912 0.7431 0.92247 0.0
C42 C 0.46603 0.26729 0.16215 0.0
O43 O 0.47513 0.25632 0.17038 0.0
Cd44 Cd 0.50376 0.24629 0.16161 0.0
O45 O 0.47184 0.27434 0.14721 0.0
Cd46 Cd 0.49877 0.27338 0.12637 0.0
C47 C 0.48874 0.22384 0.11659 0.0
O48 O 0.52161 0.2748 0.15214 0.0
O49 O 0.53277 0.27084 0.12482 0.0
O50 O 0.50094 0.30771 0.12262 0.0
C51 C 0.53563 0.27251 0.14264 0.0
O52 O 0.49473 0.22306 0.13353 0.0
C53 C 0.49861 0.30532 0.1047 0.0
O54 O 0.48762 0.24009 0.11062 0.0
O55 O 0.49604 0.28792 0.09673 0.0
C56 C -0.00187 0.79313 0.17831 0.0
O57 O 0.0106 0.7872 0.18813 0.0
Cd58 Cd 0.041 0.78351 0.17742 0.0
O59 O 0.00145 0.79809 0.1619 0.0
Cd60 Cd 0.02825 0.80148 0.14078 0.0
C61 C 0.02842 0.75323 0.13588 0.0
O62 O 0.05266 0.81378 0.16578 0.0
O63 O 0.06301 0.80633 0.13871 0.0
O64 O 0.01699 0.83012 0.1319 0.0
C65 C 0.06676 0.8133 0.15587 0.0
O66 O 0.03641 0.75575 0.1525 0.0
C67 C 0.01895 0.82644 0.11435 0.0
O68 O 0.02272 0.76717 0.1288 0.0
O69 O 0.02507 0.81103 0.10907 0.0
C70 C 0.46126 0.75673 0.35343 0.0
O71 O 0.47289 0.76689 0.34382 0.0
Cd72 Cd 0.50561 0.779 0.35174 0.0
O73 O 0.46664 0.75128 0.36897 0.0
Cd74 Cd 0.49764 0.75398 0.3875 0.0
C75 C 0.50244 0.80328 0.39562 0.0
O76 O 0.51491 0.74993 0.35948 0.0
O77 O 0.53221 0.75442 0.38546 0.0
O78 O 0.48522 0.72162 0.39624 0.0
C79 C 0.53109 0.75115 0.36759 0.0
O80 O 0.50609 0.80413 0.37837 0.0
C81 C 0.49161 0.72564 0.41339 0.0
O82 O 0.49856 0.78699 0.40216 0.0
O83 O 0.50022 0.74295 0.41851 0.0
C84 C 0.50211 0.28391 0.68015 0.0
O85 O 0.51532 0.27875 0.68963 0.0
Cd86 Cd 0.54658 0.27885 0.67895 0.0
O87 O 0.50502 0.29003 0.66414 0.0
Cd88 Cd 0.53127 0.29653 0.64302 0.0
C89 C 0.53637 0.24944 0.6367 0.0
O90 O 0.55622 0.30959 0.6673 0.0
O91 O 0.56569 0.30292 0.63955 0.0
O92 O 0.52237 0.32676 0.63572 0.0
C93 C 0.56989 0.30992 0.65665 0.0
O94 O 0.54426 0.25213 0.65337 0.0
C95 C 0.51939 0.32169 0.61806 0.0
O96 O 0.5292 0.26275 0.63001 0.0
O97 O 0.52176 0.30473 0.61195 0.0
C98 C 0.96442 0.26952 0.85562 0.0
O99 O 0.9771 0.2818 0.84928 0.0
Cd100 Cd 0.0103 0.28817 0.85749 0.0
O101 O 0.96871 0.25909 0.86815 0.0
Cd102 Cd -0.00143 0.25714 0.88634 0.0
C103 C 0.00739 0.30534 0.90326 0.0
O104 O 0.01756 0.25671 0.85903 0.0
O105 O 0.03316 0.25805 0.88577 0.0
O106 O 0.98797 0.22258 0.88972 0.0
C107 C 0.0331 0.2564 0.8679 0.0
O108 O 0.01382 0.30897 0.88742 0.0
C109 C 0.991 0.22484 0.90759 0.0
O110 O 2e-05 0.28808 0.90596 0.0
O111 O -0.00333 0.24212 0.9154 0.0
C112 C 0.42159 0.031 0.30973 0.0
O113 O 0.42928 0.0178 0.3015 0.0
Cd114 Cd 0.42481 0.00672 0.26824 0.0
O115 O 0.4096 0.03848 0.30078 0.0
Cd116 Cd 0.39409 0.03221 0.26867 0.0
C117 C 0.37966 0.98332 0.26765 0.0
O118 O 0.42352 0.03492 0.25219 0.0
O119 O 0.39746 0.02776 0.23466 0.0
O120 O 0.38843 0.06531 0.2748 0.0
C121 C 0.41537 0.03221 0.23575 0.0
O122 O 0.39646 0.98153 0.26402 0.0
C123 C 0.37102 0.06098 0.26919 0.0
O124 O 0.37559 9e-05 0.27149 0.0
O125 O 0.36443 0.04327 0.26332 0.0
C126 C 0.28175 0.111 0.49366 0.0
O127 O 0.26838 0.10079 0.50128 0.0
Cd128 Cd 0.23758 0.1079 0.50512 0.0
O129 O 0.27934 0.12654 0.48691 0.0
Cd130 Cd 0.25309 0.14527 0.48341 0.0
C131 C 0.24941 0.15313 0.53105 0.0
O132 O 0.22783 0.11725 0.47565 0.0
O133 O 0.21857 0.14451 0.48166 0.0
O134 O 0.26102 0.15114 0.4513 0.0
C135 C 0.21419 0.12634 0.47666 0.0
O136 O 0.2423 0.13508 0.53013 0.0
C137 C 0.2644 0.16958 0.45447 0.0
O138 O 0.25521 0.16072 0.51638 0.0
O139 O 0.26278 0.17687 0.47128 0.0
C140 C 0.09526 0.00527 0.79707 0.0
O141 O 0.08714 0.01321 0.78466 0.0
Cd142 Cd 0.0968 0.01874 0.75373 0.0
O143 O 0.11021 -0.00155 0.79356 0.0
Cd144 Cd 0.13083 0.99496 0.76637 0.0
C145 C 0.14238 0.04424 0.76626 0.0
O146 O 0.10603 0.9897 0.74145 0.0
O147 O 0.13425 0.99387 0.73195 0.0
O148 O 0.13258 0.96143 0.77096 0.0
C149 C 0.1166 0.99107 0.72772 0.0
O150 O 0.12558 0.04332 0.75928 0.0
C151 C 0.15054 0.96413 0.77278 0.0
O152 O 0.14784 0.02912 0.77126 0.0
O153 O 0.15942 0.98143 0.77238 0.0
C154 C 0.26501 0.91555 -0.00062 0.0
O155 O 0.25351 0.92579 0.99375 0.0
Cd156 Cd 0.22009 0.91715 -0.00401 0.0
O157 O 0.25911 0.8999 0.00658 0.0
Cd158 Cd 0.22967 0.87919 0.01481 0.0
C159 C 0.2134 0.87283 0.96873 0.0
O160 O 0.21814 0.90721 0.02721 0.0
O161 O 0.19819 0.88047 0.02717 0.0
O162 O 0.25161 0.87174 0.03847 0.0
C163 C 0.20207 0.89877 0.03139 0.0
O164 O 0.21153 0.89058 0.97018 0.0
C165 C 0.2437 0.85404 0.03813 0.0
O166 O 0.21995 0.8656 0.98263 0.0
O167 O 0.2291 0.84798 0.02694 0.0
C168 C 0.27959 0.4226 0.01994 0.0
O169 O 0.26888 0.43243 0.01226 0.0
Cd170 Cd 0.23633 0.42057 0.00404 0.0
O171 O 0.27284 0.40602 0.02512 0.0
Cd172 Cd 0.24089 0.38493 0.02697 0.0
C173 C 0.23933 0.37612 0.97928 0.0
O174 O 0.22449 0.41171 0.03323 0.0
O175 O 0.20598 0.38424 0.02503 0.0
O176 O 0.25197 0.38146 0.05905 0.0
C177 C 0.20775 0.40216 0.03097 0.0
O178 O 0.23659 0.39352 0.97938 0.0
C179 C 0.24585 0.36328 0.05819 0.0
O180 O 0.24172 0.36902 0.99473 0.0
O181 O 0.2376 0.35488 0.04257 0.0
C182 C 0.78863 0.11626 0.02365 0.0
O183 O 0.77377 0.10793 0.03065 0.0
Cd184 Cd 0.7439 0.11804 0.03053 0.0
O185 O 0.78882 0.13161 0.01553 0.0
Cd186 Cd 0.76665 0.1531 0.00718 0.0
C187 C 0.75729 0.16473 0.05299 0.0
O188 O 0.74184 0.12585 -0.0009 0.0
O189 O 0.73307 0.15306 -0.00332 0.0
O190 O 0.78225 0.15846 0.97799 0.0
C191 C 0.7287 0.13466 0.99504 0.0
O192 O 0.74803 0.14748 0.05306 0.0
C193 C 0.78399 0.17687 0.98052 0.0
O194 O 0.7659 0.16984 0.03859 0.0
O195 O 0.77829 0.18415 -0.00419 0.0
C196 C 0.06622 0.49672 0.26123 0.0
O197 O 0.05844 0.50127 0.24643 0.0
Cd198 Cd 0.0724 0.49994 0.21652 0.0
O199 O 0.08199 0.49089 0.26072 0.0
Cd200 Cd 0.10598 0.48402 0.23864 0.0
C201 C 0.11472 0.5311 0.22919 0.0
O202 O 0.08257 0.46915 0.21402 0.0
O203 O 0.11113 0.47243 0.20558 0.0
O204 O 0.11204 0.4587 0.25779 0.0
C205 C 0.09364 0.46643 0.20112 0.0
O206 O 0.0988 0.52799 0.21978 0.0
C207 C 0.12994 0.46391 0.25831 0.0
O208 O 0.1199 0.51786 0.23784 0.0
O209 O 0.13644 0.47836 0.24972 0.0
C210 C 0.77809 0.91098 0.51842 0.0
O211 O 0.76787 0.91829 0.50726 0.0
Cd212 Cd 0.73448 0.90791 0.50133 0.0
O213 O 0.77082 0.89688 0.52725 0.0
Cd214 Cd 0.73877 0.87642 0.52815 0.0
C215 C 0.73661 0.86249 0.4809 0.0
O216 O 0.72185 0.90326 0.5314 0.0
O217 O 0.70406 0.87507 0.52428 0.0
O218 O 0.74541 0.87402 0.56155 0.0
C219 C 0.70533 0.8931 0.52949 0.0
O220 O 0.73157 0.87863 0.47892 0.0
C221 C 0.74112 0.85559 0.56026 0.0
O222 O 0.74145 0.85846 0.4972 0.0
O223 O 0.73606 0.84669 0.54386 0.0
C224 C 0.90744 0.0268 0.26795 0.0
O225 O 0.91776 0.01995 0.25591 0.0
Cd226 Cd 0.91129 0.01493 0.22246 0.0
O227 O 0.89271 0.0331 0.26263 0.0
Cd228 Cd 0.87529 0.03802 0.23281 0.0
C229 C 0.86584 0.98827 0.22347 0.0
O230 O 0.90338 0.04489 0.21591 0.0
O231 O 0.87768 0.04413 0.19906 0.0
O232 O 0.87163 0.06936 0.24896 0.0
C233 C 0.8956 0.04636 0.20002 0.0
O234 O 0.8833 0.98914 0.2205 0.0
C235 C 0.85395 0.0672 0.24487 0.0
O236 O 0.85919 0.00363 0.22804 0.0
O237 O 0.84603 0.05123 0.23537 0.0
C238 C 0.28407 0.60785 0.5108 0.0
O239 O 0.26778 0.59969 0.51499 0.0
Cd240 Cd 0.2414 0.61558 0.51923 0.0
O241 O 0.28742 0.62562 0.50764 0.0
Cd242 Cd 0.26976 0.65253 0.50531 0.0
C243 C 0.26118 0.65493 0.5516 0.0
O244 O 0.24102 0.63198 0.49175 0.0
O245 O 0.23819 0.66136 0.50041 0.0
O246 O 0.28686 0.66167 0.478 0.0
C247 C 0.23046 0.64452 0.49283 0.0
O248 O 0.24913 0.63912 0.54782 0.0
C249 C 0.29076 0.67973 0.48383 0.0
O250 O 0.27125 0.66206 0.53889 0.0
O251 O 0.2856 0.68496 0.50009 0.0
C252 C 0.41409 0.52591 0.76898 0.0
O253 O 0.42379 0.5194 0.75618 0.0
Cd254 Cd 0.41271 0.51261 0.72384 0.0
O255 O 0.39852 0.53114 0.76465 0.0
Cd256 Cd 0.37885 0.53436 0.73573 0.0
C257 C 0.36873 0.48536 0.73039 0.0
O258 O 0.40404 0.54167 0.7146 0.0
O259 O 0.37609 0.53197 0.70093 0.0
O260 O 0.3764 0.56748 0.74797 0.0
C261 C 0.39352 0.5386 0.69946 0.0
O262 O 0.38569 0.48616 0.72558 0.0
C263 C 0.35842 0.56453 0.74705 0.0
O264 O 0.36229 0.50078 0.73501 0.0
O265 O 0.34984 0.54742 0.74093 0.0
C266 C 0.57384 0.98866 0.75603 0.0
O267 O 0.56661 0.99365 0.74117 0.0
Cd268 Cd 0.58136 0.99483 0.71169 0.0
O269 O 0.59003 0.98371 0.75609 0.0
Cd270 Cd 0.61479 0.98047 0.73348 0.0
C271 C 0.62148 0.02802 0.72578 0.0
O272 O 0.59343 0.96521 0.70688 0.0
O273 O 0.62222 0.97403 0.70004 0.0
O274 O 0.62481 0.95341 0.74751 0.0
C275 C 0.60547 0.96569 0.69445 0.0
O276 O 0.60621 0.02425 0.71524 0.0
C277 C 0.64182 0.9623 0.75125 0.0
O278 O 0.62667 0.01501 0.73473 0.0
O279 O 0.64597 0.97947 0.7468 0.0
C280 C 0.78371 0.61878 0.00019 0.0
O281 O 0.76981 0.6101 0.00832 0.0
Cd282 Cd 0.73893 0.61826 0.00764 0.0
O283 O 0.78207 0.63328 0.99135 0.0
Cd284 Cd 0.75744 0.65264 0.98442 0.0
C285 C 0.75007 0.66466 0.03054 0.0
O286 O 0.73236 0.62442 0.97599 0.0
O287 O 0.72333 0.652 0.97845 0.0
O288 O 0.77305 0.65698 0.95494 0.0
C289 C 0.71898 0.6337 0.97442 0.0
O290 O 0.74089 0.64732 0.0301 0.0
C291 C 0.77266 0.67499 0.95554 0.0
O292 O 0.759 0.67012 0.01639 0.0
O293 O 0.76542 0.68266 0.96971 0.0
C294 C 0.92705 0.53543 0.79852 0.0
O295 O 0.93556 0.52692 0.78585 0.0
Cd296 Cd 0.92541 0.52034 0.75317 0.0
O297 O 0.91143 0.54068 0.7945 0.0
Cd298 Cd 0.88988 0.5382 0.76583 0.0
C299 C 0.88443 0.48884 0.75734 0.0
O300 O 0.91523 0.54978 0.74649 0.0
O301 O 0.88829 0.53972 0.73117 0.0
O302 O 0.87903 0.56721 0.77974 0.0
C303 C 0.90551 0.54782 0.731 0.0
O304 O 0.90082 0.49095 0.75091 0.0
C305 C 0.86153 0.56004 0.77629 0.0
O306 O 0.87801 0.50352 0.7644 0.0
O307 O 0.85737 0.54275 0.76815 0.0
C308 C 0.77175 0.43042 0.507 0.0
O309 O 0.76051 0.4409 0.50131 0.0
Cd310 Cd 0.72704 0.42994 0.49733 0.0
O311 O 0.76543 0.41355 0.51165 0.0
Cd312 Cd 0.73503 0.39152 0.51485 0.0
C313 C 0.72536 0.38791 0.46754 0.0
O314 O 0.71963 0.41734 0.5268 0.0
O315 O 0.70109 0.38956 0.52031 0.0
O316 O 0.75083 0.38145 0.54197 0.0
C317 C 0.70317 0.40733 0.52687 0.0
O318 O 0.72276 0.40543 0.46929 0.0
C319 C 0.7448 0.36337 0.53729 0.0
O320 O 0.73028 0.38009 0.48175 0.0
O321 O 0.73412 0.35848 0.52226 0.0
C322 C 0.5991 0.50296 0.29925 0.0
O323 O 0.5902 0.51003 0.28676 0.0
Cd324 Cd 0.60163 0.51904 0.2574 0.0
O325 O 0.61552 0.49917 0.29645 0.0
Cd326 Cd 0.63738 0.50071 0.27005 0.0
C327 C 0.64405 0.54975 0.27254 0.0
O328 O 0.61454 0.49297 0.24285 0.0
O329 O 0.64286 0.50601 0.23715 0.0
O330 O 0.64253 0.46763 0.27075 0.0
C331 C 0.6261 0.49862 0.23076 0.0
O332 O 0.62739 0.54698 0.26463 0.0
C333 C 0.6603 0.47206 0.27448 0.0
O334 O 0.65105 0.53553 0.2776 0.0
O335 O 0.66755 0.4901 0.27694 0.0
Dy336 Dy 0.98836 0.02231 0.00326 0.0
C337 C 0.06694 0.01968 0.016 0.0
C338 C 0.95357 0.03171 0.00546 0.0
Dy339 Dy 0.03087 0.02621 0.01282 0.0
O340 O 0.95708 0.01674 0.99478 0.0
O341 O 0.96881 0.04102 0.01501 0.0
O342 O 0.99016 0.00572 0.97485 0.0
O343 O 0.01345 0.02634 0.98718 0.0
C344 C 0.00802 0.01297 0.97387 0.0
C345 C 0.01005 0.03576 0.04137 0.0
O346 O 0.03234 0.05501 0.0021 0.0
O347 O -1e-05 0.05432 0.0035 0.0
O348 O 0.05802 0.02674 0.02973 0.0
O349 O 0.05633 0.01674 0.00038 0.0
O350 O 0.02724 0.04483 0.0398 0.0
O351 O 0.00562 0.02174 0.02859 0.0
O352 O 0.98788 0.99403 0.01474 0.0
O353 O 0.01959 0.99387 0.01029 0.0
C354 C 0.01747 0.06366 0.00167 0.0
C355 C 0.00236 0.98481 0.01346 0.0
Dy356 Dy 0.25349 0.76108 0.24015 0.0
C357 C 0.25327 0.74862 0.31799 0.0
C358 C 0.25611 0.77077 0.20429 0.0
Dy359 Dy 0.24734 0.75773 0.28246 0.0
O360 O 0.26271 0.75652 0.21056 0.0
O361 O 0.24768 0.77946 0.21747 0.0
O362 O 0.27882 0.74644 0.24279 0.0
O363 O 0.27165 0.76373 0.26588 0.0
C364 C 0.28229 0.75222 0.26066 0.0
C365 C 0.21891 0.76822 0.2634 0.0
O366 O 0.2639 0.78805 0.28401 0.0
O367 O 0.25746 0.7923 0.25269 0.0
O368 O 0.24423 0.76217 0.31379 0.0
O369 O 0.25844 0.73972 0.30276 0.0
O370 O 0.22199 0.77229 0.28166 0.0
O371 O 0.22914 0.75655 0.25716 0.0
O372 O 0.23464 0.73184 0.23765 0.0
O373 O 0.23926 0.72655 0.26904 0.0
C374 C 0.263 0.79939 0.27042 0.0
C375 C 0.23346 0.72013 0.25114 0.0
Dy376 Dy 0.53121 0.02427 0.51041 0.0
C377 C 0.45441 0.03757 0.50479 0.0
C378 C 0.56393 0.01007 0.51227 0.0
Dy379 Dy 0.48812 0.02663 0.5123 0.0
O380 O 0.55253 0.00833 0.49732 0.0
O381 O 0.55798 0.02053 0.5261 0.0
O382 O 0.5326 0.04193 0.48573 0.0
O383 O 0.50749 0.02285 0.49041 0.0
C384 C 0.51476 0.03567 0.48054 0.0
C385 C 0.50459 0.01572 0.54261 0.0
O386 O 0.48579 -0.00331 0.49748 0.0
O387 O 0.51546 0.99336 0.50928 0.0
O388 O 0.45776 0.02738 0.51835 0.0
O389 O 0.46939 0.04162 0.49539 0.0
O390 O 0.48659 0.00985 0.53785 0.0
O391 O 0.51171 0.02794 0.53214 0.0
O392 O 0.53509 0.05459 0.52461 0.0
O393 O 0.50339 0.05777 0.52017 0.0
C394 C 0.49846 0.98579 0.50102 0.0
C395 C 0.52154 0.06517 0.52534 0.0
Dy396 Dy 0.2365 0.26404 0.75709 0.0
C397 C 0.31677 0.27478 0.75056 0.0
C398 C 0.19992 0.25384 0.76612 0.0
Dy399 Dy 0.27975 0.26643 0.75868 0.0
O400 O 0.20587 0.2672 0.75534 0.0
O401 O 0.21384 0.24586 0.77146 0.0
O402 O 0.23931 0.29161 0.74315 0.0
O403 O 0.26121 0.28743 0.76177 0.0
C404 C 0.25664 0.29812 0.74998 0.0
C405 C 0.25951 0.23221 0.76529 0.0
O406 O 0.27704 0.28158 0.78757 0.0
O407 O 0.24483 0.26974 0.78823 0.0
O408 O 0.31062 0.26567 0.76467 0.0
O409 O 0.30282 0.2797 0.7413 0.0
O410 O 0.27673 0.23865 0.77239 0.0
O411 O 0.2552 0.24317 0.7537 0.0
O412 O 0.23851 0.25046 0.72769 0.0
O413 O 0.27118 0.26015 0.72738 0.0
C414 C 0.26139 0.2782 0.7969 0.0
C415 C 0.25431 0.25282 0.71856 0.0
Dy416 Dy 0.98812 0.00881 0.4879 0.0
C417 C 0.03562 0.03657 0.55736 0.0
C418 C 0.96504 0.00056 0.4556 0.0
Dy419 Dy 0.00788 0.0256 0.52921 0.0
O420 O 0.98141 0.99546 0.45775 0.0
O421 O 0.96107 0.00971 0.47128 0.0
O422 O 0.01722 0.00698 0.47798 0.0
O423 O 0.01402 0.0281 0.49985 0.0
C424 C 0.02594 0.0207 0.49066 0.0
C425 C 0.97145 0.00802 0.53076 0.0
O426 O 0.00179 0.05317 0.5193 0.0
O427 O 0.9842 0.0399 0.49093 0.0
O428 O 0.01894 0.04133 0.55768 0.0
O429 O 0.03724 0.02633 0.54141 0.0
O430 O 0.98211 0.0158 0.54584 0.0
O431 O 0.98109 0.01076 0.51677 0.0
O432 O 0.98765 0.98162 0.5015 0.0
O433 O 0.0127 0.99477 0.52375 0.0
C434 C 0.99128 0.05481 0.50391 0.0
C435 C 0.00092 0.97968 0.51431 0.0
Dy436 Dy 0.27382 0.77573 0.77071 0.0
C437 C 0.20011 0.73649 0.74051 0.0
C438 C 0.30644 0.79103 0.79193 0.0
Dy439 Dy 0.23416 0.7515 0.75949 0.0
O440 O 0.30425 0.791 0.77372 0.0
O441 O 0.29072 0.78304 0.79849 0.0
O442 O 0.2786 0.77947 0.74018 0.0
O443 O 0.26142 0.75421 0.74746 0.0
C444 C 0.26697 0.76337 0.73393 0.0
C445 C 0.24095 0.76414 0.79628 0.0
O446 O 0.24938 0.72676 0.76187 0.0
O447 O 0.27691 0.74567 0.77708 0.0
O448 O 0.2036 0.73684 0.75858 0.0
O449 O 0.2154 0.74385 0.73279 0.0
O450 O 0.22998 0.74768 0.78997 0.0
O451 O 0.24638 0.77322 0.78264 0.0
O452 O 0.25887 0.80045 0.76817 0.0
O453 O 0.23147 0.78171 0.75267 0.0
C454 C 0.26615 0.72847 0.77108 0.0
C455 C 0.24228 0.79891 0.75876 0.0
Dy456 Dy 0.50109 0.01865 0.02098 0.0
C457 C 0.50047 0.01303 0.93757 0.0
C458 C 0.49655 0.03047 0.05768 0.0
Dy459 Dy 0.49675 0.01802 0.97544 0.0
O460 O 0.51107 0.02337 0.05177 0.0
O461 O 0.48474 0.03114 0.04355 0.0
O462 O 0.50841 0.98858 0.0212 0.0
O463 O 0.50293 -0.00038 -0.00385 0.0
C464 C 0.50737 0.98514 0.0028 0.0
C465 C 0.48655 0.04777 -0.00327 0.0
O466 O 0.46947 -0.00062 0.98048 0.0
O467 O 0.4703 0.0063 0.01346 0.0
O468 O 0.50653 0.02915 0.94853 0.0
O469 O 0.4922 -0.00037 0.94727 0.0
O470 O 0.47925 0.0417 0.97963 0.0
O471 O 0.49971 0.03898 0.00034 0.0
O472 O 0.52933 0.03518 0.01493 0.0
O473 O 0.52808 0.02509 0.9824 0.0
C474 C 0.46156 -0.00157 -0.00311 0.0
C475 C 0.53738 0.03372 -0.0015 0.0
Dy476 Dy 0.2621 0.29846 0.26936 0.0
C477 C 0.27762 0.22204 0.25957 0.0
C478 C 0.25119 0.3336 0.27288 0.0
Dy479 Dy 0.26506 0.25607 0.25864 0.0
O480 O 0.26059 0.32706 0.28591 0.0
O481 O 0.2481 0.32111 0.25779 0.0
O482 O 0.27938 0.29859 0.29664 0.0
O483 O 0.26116 0.27318 0.28459 0.0
C484 C 0.27359 0.28014 0.29762 0.0
C485 C 0.25387 0.27357 0.22969 0.0
O486 O 0.23685 0.25175 0.27106 0.0
O487 O 0.23169 0.28294 0.26852 0.0
O488 O 0.26317 0.22417 0.24892 0.0
O489 O 0.28499 0.23835 0.26957 0.0
O490 O 0.24908 0.25497 0.23064 0.0
O491 O 0.26585 0.28111 0.24305 0.0
O492 O 0.29062 0.30381 0.25775 0.0
O493 O 0.2952 0.27207 0.25858 0.0
C494 C 0.22546 0.2646 0.27139 0.0
C495 C 0.30166 0.29064 0.25671 0.0
Dy496 Dy 0.49707 0.50729 0.98833 0.0
C497 C 0.53719 0.53465 0.05939 0.0
C498 C 0.47486 0.49789 0.95548 0.0
Dy499 Dy 0.51321 0.52433 0.02781 0.0
O500 O 0.49201 0.49476 0.95779 0.0
O501 O 0.46965 0.50557 0.97131 0.0
O502 O 0.52659 0.50737 0.979 0.0
O503 O 0.52171 0.52898 -0.0004 0.0
C504 C 0.53433 0.52222 0.99093 0.0
C505 C 0.47593 0.51048 0.02513 0.0
O506 O 0.5093 0.55204 0.01697 0.0
O507 O 0.48916 0.53703 0.99126 0.0
O508 O 0.51911 0.53468 0.05883 0.0
O509 O 0.54217 0.52938 0.04262 0.0
O510 O 0.48389 0.52532 0.03703 0.0
O511 O 0.48829 0.50304 0.01661 0.0
O512 O 0.49963 0.4794 -0.00046 0.0
O513 O 0.52003 0.49405 0.02515 0.0
C514 C 0.49707 0.55281 0.00273 0.0
C515 C 0.51164 0.4783 0.01384 0.0
Dy516 Dy 0.78465 0.28459 0.27035 0.0
C517 C 0.71104 0.25558 0.23406 0.0
C518 C 0.81778 0.2964 0.29175 0.0
Dy519 Dy 0.74374 0.26524 0.25648 0.0
O520 O 0.8158 0.29704 0.27363 0.0
O521 O 0.80161 0.28952 0.29819 0.0
O522 O 0.79121 0.28919 0.24025 0.0
O523 O 0.77133 0.26512 0.246 0.0
C524 C 0.77842 0.27435 0.23313 0.0
C525 C 0.74884 0.27667 0.29375 0.0
O526 O 0.75628 0.23843 0.25775 0.0
O527 O 0.78331 0.25353 0.27636 0.0
O528 O 0.71391 0.24847 0.24983 0.0
O529 O 0.72609 0.2675 0.23047 0.0
O530 O 0.73588 0.2621 0.28637 0.0
O531 O 0.75675 0.28508 0.28073 0.0
O532 O 0.77306 0.31166 0.26874 0.0
O533 O 0.74558 0.29663 0.25077 0.0
C534 C 0.7716 0.23757 0.2685 0.0
C535 C 0.75765 0.31256 0.25826 0.0
Dy536 Dy 0.01319 0.51609 0.53131 0.0
C537 C 0.00903 0.50872 0.44873 0.0
C538 C 0.00847 0.51851 0.56903 0.0
Dy539 Dy 0.00739 0.51701 0.48647 0.0
O540 O 0.00185 0.5034 0.55692 0.0
O541 O 0.01826 0.53214 0.56061 0.0
O542 O 0.03299 0.49506 0.52593 0.0
O543 O 0.011 0.49553 0.50575 0.0
C544 C 0.02553 0.48848 0.509 0.0
C545 C 0.00079 0.54963 0.5065 0.0
O546 O 0.97999 0.49911 0.49246 0.0
O547 O 0.98166 0.50893 0.52493 0.0
O548 O -0.0053 0.51426 0.45678 0.0
O549 O 0.02221 0.50732 0.46131 0.0
O550 O -0.0003 0.54728 0.4881 0.0
O551 O 0.00512 0.53462 0.51193 0.0
O552 O 0.03833 0.53813 0.52613 0.0
O553 O 0.03807 0.52983 0.49345 0.0
C554 C 0.9721 0.50052 0.5089 0.0
C555 C 0.04626 0.5393 0.5097 0.0
Dy556 Dy 0.73251 0.76909 0.2541 0.0
C557 C 0.81313 0.78055 0.24635 0.0
C558 C 0.69632 0.75623 0.26301 0.0
Dy559 Dy 0.77614 0.77273 0.25484 0.0
O560 O 0.70121 0.76947 0.25178 0.0
O561 O 0.71111 0.74996 0.269 0.0
O562 O 0.73388 0.79692 0.24085 0.0
O563 O 0.75668 0.7929 0.25852 0.0
C564 C 0.75131 0.80375 0.24728 0.0
C565 C 0.75678 0.73828 0.2618 0.0
O566 O 0.77429 0.78283 0.2855 0.0
O567 O 0.74126 0.7764 0.28499 0.0
O568 O 0.80091 0.76515 0.23968 0.0
O569 O 0.80532 0.79163 0.25813 0.0
O570 O 0.77393 0.74525 0.26889 0.0
O571 O 0.75194 0.74901 0.25018 0.0
O572 O 0.73564 0.75656 0.22468 0.0
O573 O 0.76667 0.77278 0.22421 0.0
C574 C 0.75819 0.78187 0.29412 0.0
C575 C 0.75067 0.76282 0.21534 0.0
Dy576 Dy 0.75892 0.25679 0.72806 0.0
C577 C 0.76441 0.25342 0.8088 0.0
C578 C 0.75233 0.2563 0.69026 0.0
Dy579 Dy 0.75725 0.25748 0.77193 0.0
O580 O 0.76418 0.24701 0.69795 0.0
O581 O 0.74424 0.26574 0.70318 0.0
O582 O 0.79086 0.26293 0.73235 0.0
O583 O 0.77434 0.24663 0.75059 0.0
C584 C 0.79091 0.25419 0.7475 0.0
C585 C 0.7304 0.27252 0.75487 0.0
O586 O 0.77619 0.28586 0.76845 0.0
O587 O 0.76525 0.28852 0.73792 0.0
O588 O 0.74796 0.24775 0.79959 0.0
O589 O 0.77686 0.26133 0.79789 0.0
O590 O 0.73649 0.27798 0.77241 0.0
O591 O 0.73746 0.25828 0.74842 0.0
O592 O 0.74273 0.2268 0.72967 0.0
O593 O 0.74551 0.22594 0.76241 0.0
C594 C 0.77462 0.2962 0.75414 0.0
C595 C 0.73994 0.2176 0.74494 0.0
Dy596 Dy 0.76332 0.79288 0.7663 0.0
C597 C 0.76556 0.71256 0.76623 0.0
C598 C 0.76035 0.83114 0.76944 0.0
Dy599 Dy 0.75864 0.74791 0.75942 0.0
O600 O 0.7623 0.8213 0.78355 0.0
O601 O 0.76021 0.82012 0.75362 0.0
O602 O 0.78455 0.79207 0.79051 0.0
O603 O 0.76121 0.76941 0.78369 0.0
C604 C 0.77601 0.77509 0.79423 0.0
C605 C 0.74556 0.76362 0.73023 0.0
O606 O 0.733 0.75097 0.77487 0.0
O607 O 0.73196 0.7825 0.76862 0.0
O608 O 0.7516 0.7151 0.75509 0.0
O609 O 0.77571 0.72918 0.77317 0.0
O610 O 0.73998 0.74544 0.73282 0.0
O611 O 0.7596 0.7711 0.74155 0.0
O612 O 0.78961 0.79128 0.75124 0.0
O613 O 0.78872 0.75807 0.75219 0.0
C614 C 0.72399 0.76575 0.77441 0.0
C615 C 0.79738 0.77556 0.74864 0.0
Dy616 Dy 0.47839 0.50845 0.49716 0.0
C617 C 0.55904 0.51678 0.50595 0.0
C618 C 0.44169 0.51166 0.50097 0.0
Dy619 Dy 0.52176 0.519 0.50701 0.0
O620 O 0.44762 0.50198 0.48653 0.0
O621 O 0.45568 0.51909 0.51315 0.0
O622 O 0.48312 0.49267 0.46905 0.0
O623 O 0.50327 0.51658 0.48179 0.0
C624 C 0.50004 0.50301 0.46841 0.0
C625 C 0.50001 0.52439 0.5357 0.0
O626 O 0.51825 0.5475 0.49769 0.0
O627 O 0.48519 0.5408 0.49588 0.0
O628 O 0.55152 0.52504 0.52016 0.0
O629 O 0.54627 0.51033 0.49223 0.0
O630 O 0.51676 0.53497 0.5349 0.0
O631 O 0.49691 0.51078 0.52237 0.0
O632 O 0.48197 0.48038 0.50713 0.0
O633 O 0.51489 0.48636 0.50732 0.0
C634 C 0.50162 0.55292 0.49552 0.0
C635 C 0.49842 0.47452 0.50853 0.0
Dy636 Dy 0.02902 0.52811 0.01291 0.0
C637 C 0.9499 0.53387 0.0049 0.0
C638 C 0.06336 0.51685 0.01417 0.0
Dy639 Dy 0.98517 0.52652 0.01261 0.0
O640 O 0.05103 0.51319 -0.00015 0.0
O641 O 0.05737 0.5276 0.02775 0.0
O642 O 0.02995 0.54566 0.98824 0.0
O643 O 0.00584 0.52466 0.99164 0.0
C644 C 0.01264 0.53798 0.98209 0.0
C645 C 0.00058 0.51674 0.04384 0.0
O646 O 0.98562 0.49615 -0.00025 0.0
O647 O 0.01621 0.49657 0.01204 0.0
O648 O 0.95511 0.52664 0.01985 0.0
O649 O 0.96388 0.53678 0.99397 0.0
O650 O 0.98295 0.51013 0.03804 0.0
O651 O 0.00806 0.52941 0.03385 0.0
O652 O 0.02993 0.55784 0.02747 0.0
O653 O -0.00201 0.55844 0.02034 0.0
C654 C -0.00017 0.48723 0.00368 0.0
C655 C 0.01544 0.56713 0.02693 0.0
H656 H 0.994 0.22576 0.94594 0.0
H657 H -0.00182 0.19906 0.96399 0.0
H658 H 0.9909 0.15961 0.91244 0.0
H659 H 0.98637 0.18623 0.89427 0.0
H660 H 0.97479 0.14202 0.94217 0.0
H661 H 0.03473 0.18112 0.92963 0.0
H662 H 0.05752 0.21197 0.93006 0.0
H663 H 0.05812 0.22089 0.99065 0.0
H664 H 0.03513 0.19022 0.99056 0.0
H665 H 0.04131 0.08118 0.97716 0.0
H666 H 0.0384 0.11114 0.96338 0.0
H667 H -0.005 0.12073 0.0013 0.0
H668 H -0.00252 0.09071 0.01471 0.0
H669 H 0.03751 0.15275 0.97777 0.0
H670 H 0.96058 0.12287 0.9776 0.0
H671 H 0.94044 0.09092 0.98007 0.0
H672 H 0.97609 0.06277 0.94399 0.0
H673 H -0.00322 0.09449 0.94187 0.0
C674 C 0.99291 0.21133 0.93847 0.0
C675 C 0.9901 0.20813 0.91866 0.0
C676 C -0.00464 0.1961 0.9488 0.0
C677 C -0.00475 0.17748 0.93949 0.0
C678 C 0.99112 0.17392 0.91987 0.0
C679 C 0.98856 0.18914 0.90951 0.0
C680 C 0.00105 0.16222 0.94998 0.0
C681 C 0.98849 0.14442 0.94991 0.0
C682 C 0.01902 0.16522 0.95999 0.0
C683 C 0.03312 0.18346 0.96008 0.0
C684 C 0.03966 0.18972 0.94304 0.0
C685 C 0.05261 0.20717 0.94322 0.0
C686 C 0.05923 0.21841 0.96037 0.0
C687 C 0.05297 0.21219 0.97738 0.0
C688 C 0.03999 0.19476 0.97727 0.0
C689 C 0.03165 0.09008 0.98296 0.0
C690 C 0.01949 0.08366 -0.00317 0.0
C691 C 0.03 0.10713 0.9751 0.0
C692 C 0.01632 0.11791 0.98122 0.0
C693 C 0.0055 0.11246 -0.00368 0.0
C694 C 0.00693 0.09534 0.00395 0.0
C695 C 0.01118 0.1329 0.97009 0.0
C696 C 0.02383 0.1505 0.97 0.0
C697 C 0.99343 0.12972 0.95981 0.0
C698 C 0.98001 0.11101 0.95936 0.0
C699 C 0.96391 0.10988 0.96995 0.0
C700 C 0.95252 0.09181 0.97145 0.0
C701 C 0.95685 0.07485 0.96203 0.0
C702 C 0.97267 0.07592 0.95119 0.0
C703 C 0.98428 0.09392 0.94991 0.0
H704 H 0.948 0.0609 0.96322 0.0
H705 H 0.06925 0.23192 0.96048 0.0
H706 H 0.09794 0.8019 0.14084 0.0
H707 H 0.12732 0.79949 0.15831 0.0
H708 H 0.10839 0.82767 0.20878 0.0
H709 H 0.07889 0.82978 0.19156 0.0
H710 H 0.15716 0.82313 0.18111 0.0
H711 H 0.11384 0.80036 0.24414 0.0
H712 H 0.08082 0.7868 0.25022 0.0
H713 H 0.07119 0.75898 0.19311 0.0
H714 H 0.10424 0.77204 0.18683 0.0
H715 H 0.19556 0.79266 0.27545 0.0
H716 H 0.17289 0.80561 0.25615 0.0
H717 H 0.1898 0.77523 0.2058 0.0
H718 H 0.21222 0.76187 0.22509 0.0
H719 H 0.14296 0.78236 0.23329 0.0
H720 H 0.18463 0.80639 0.16907 0.0
H721 H 0.21697 0.82051 0.16147 0.0
H722 H 0.23053 0.8441 0.21954 0.0
H723 H 0.1981 0.83059 0.22742 0.0
C724 C 0.10024 0.808 0.15554 0.0
C725 C 0.08598 0.81566 0.16497 0.0
C726 C 0.11707 0.80668 0.16547 0.0
C727 C 0.11981 0.81305 0.18489 0.0
C728 C 0.10637 0.82239 0.19385 0.0
C729 C 0.08953 0.82357 0.184 0.0
C730 C 0.13525 0.80758 0.19632 0.0
C731 C 0.15414 0.81408 0.19242 0.0
C732 C 0.13117 0.79589 0.21113 0.0
C733 C 0.11145 0.78737 0.21497 0.0
C734 C 0.10471 0.79125 0.23293 0.0
C735 C 0.08598 0.78366 0.23641 0.0
C736 C 0.0739 0.7721 0.22205 0.0
C737 C 0.08055 0.76798 0.20421 0.0
C738 C 0.09927 0.77547 0.20069 0.0
C739 C 0.19447 0.78879 0.26026 0.0
C740 C 0.20556 0.77625 0.25173 0.0
C741 C 0.1816 0.79625 0.24928 0.0
C742 C 0.17985 0.79152 0.22957 0.0
C743 C 0.19117 0.77927 0.22097 0.0
C744 C 0.20388 0.77159 0.23199 0.0
C745 C 0.16501 0.79804 0.21826 0.0
C746 C 0.1461 0.79154 0.22209 0.0
C747 C 0.16917 0.80948 0.20325 0.0
C748 C 0.18892 0.81726 0.19886 0.0
C749 C 0.19448 0.81461 0.18023 0.0
C750 C 0.21281 0.82258 0.17586 0.0
C751 C 0.22576 0.83324 0.19 0.0
C752 C 0.22045 0.83585 0.20859 0.0
C753 C 0.20209 0.828 0.21302 0.0
H754 H 0.23991 0.83941 0.18654 0.0
H755 H 0.05939 0.7663 0.22475 0.0
H756 H 0.5001 0.83894 0.38501 0.0
H757 H 0.49797 0.86848 0.40536 0.0
H758 H 0.50198 0.83837 0.45465 0.0
H759 H 0.50336 0.80847 0.43427 0.0
H760 H 0.47654 0.8596 0.45941 0.0
H761 H 0.54001 0.87174 0.44155 0.0
H762 H 0.56643 0.87411 0.42047 0.0
H763 H 0.54464 0.91759 0.39291 0.0
H764 H 0.51794 0.91531 0.41367 0.0
H765 H 0.51503 0.95742 0.51396 0.0
H766 H 0.51302 0.92418 0.49867 0.0
H767 H 0.47229 0.93409 0.4564 0.0
H768 H 0.47384 0.96723 0.47181 0.0
H769 H 0.51698 0.9227 0.45062 0.0
H770 H 0.45067 0.90568 0.46942 0.0
H771 H 0.42749 0.90352 0.494 0.0
H772 H 0.45974 0.86935 0.52405 0.0
H773 H 0.48325 0.87158 0.49975 0.0
C774 C 0.50065 0.83862 0.40019 0.0
C775 C 0.50201 0.8214 0.40804 0.0
C776 C 0.49949 0.85555 0.41183 0.0
C777 C 0.50012 0.85576 0.43158 0.0
C778 C 0.50147 0.83857 0.43946 0.0
C779 C 0.50234 0.82152 0.4278 0.0
C780 C 0.49911 0.87389 0.4439 0.0
C781 C 0.48552 0.87333 0.45754 0.0
C782 C 0.5109 0.89186 0.44167 0.0
C783 C 0.52687 0.89321 0.42906 0.0
C784 C 0.54076 0.88169 0.43089 0.0
C785 C 0.55581 0.88304 0.41902 0.0
C786 C 0.55719 0.89596 0.40533 0.0
C787 C 0.54354 0.90758 0.40351 0.0
C788 C 0.52846 0.90627 0.41533 0.0
C789 C 0.50527 0.95235 0.50169 0.0
C790 C 0.49463 0.9649 0.49399 0.0
C791 C 0.50411 0.93338 0.49304 0.0
C792 C 0.49243 0.92678 0.47655 0.0
C793 C 0.48117 0.93894 0.46931 0.0
C794 C 0.48207 0.95782 0.47812 0.0
C795 C 0.49408 0.90834 0.46545 0.0
C796 C 0.50799 0.90889 0.45227 0.0
C797 C 0.48295 0.89038 0.46842 0.0
C798 C 0.46881 0.88902 0.48293 0.0
C799 C 0.45293 0.89792 0.48139 0.0
C800 C 0.4397 0.89662 0.49523 0.0
C801 C 0.44217 0.88636 0.51062 0.0
C802 C 0.45785 0.87733 0.51215 0.0
C803 C 0.47112 0.87859 0.49835 0.0
H804 H 0.43192 0.88537 0.52131 0.0
H805 H 0.56885 0.89699 0.39616 0.0
H806 H 0.49251 0.27931 0.71633 0.0
H807 H 0.46136 0.27829 0.72896 0.0
H808 H 0.43773 0.28479 0.67383 0.0
H809 H 0.46896 0.2865 0.66126 0.0
H810 H 0.42438 0.30693 0.69904 0.0
H811 H 0.43102 0.24019 0.69258 0.0
H812 H 0.44626 0.21214 0.69691 0.0
H813 H 0.44386 0.22323 0.7571 0.0
H814 H 0.42882 0.25153 0.75313 0.0
H815 H 0.32767 0.27982 0.71533 0.0
H816 H 0.35925 0.28085 0.70385 0.0
H817 H 0.38123 0.27576 0.76007 0.0
H818 H 0.34919 0.27342 0.77134 0.0
H819 H 0.39576 0.25358 0.73506 0.0
H820 H 0.38614 0.32043 0.73911 0.0
H821 H 0.36679 0.34453 0.73172 0.0
H822 H 0.37267 0.3306 0.6724 0.0
H823 H 0.39162 0.30602 0.67939 0.0
C824 C 0.48067 0.28048 0.70688 0.0
C825 C 0.4832 0.28294 0.68778 0.0
C826 C 0.46284 0.27981 0.71411 0.0
C827 C 0.44712 0.2812 0.7023 0.0
C828 C 0.44964 0.28371 0.68323 0.0
C829 C 0.4675 0.28463 0.67605 0.0
C830 C 0.42808 0.28029 0.70983 0.0
C831 C 0.41807 0.29517 0.70678 0.0
C832 C 0.4199 0.26508 0.72012 0.0
C833 C 0.42898 0.2481 0.72257 0.0
C834 C 0.43388 0.23675 0.70674 0.0
C835 C 0.44246 0.22078 0.70913 0.0
C836 C 0.44607 0.21594 0.72727 0.0
C837 C 0.44108 0.22702 0.74306 0.0
C838 C 0.43252 0.24302 0.74075 0.0
C839 C 0.33928 0.27907 0.72526 0.0
C840 C 0.33614 0.27679 0.74425 0.0
C841 C 0.35734 0.27972 0.7187 0.0
C842 C 0.37275 0.27889 0.73118 0.0
C843 C 0.36958 0.27656 0.7502 0.0
C844 C 0.35136 0.27535 0.75666 0.0
C845 C 0.3921 0.28023 0.72431 0.0
C846 C 0.40217 0.26544 0.72749 0.0
C847 C 0.40019 0.29534 0.71383 0.0
C848 C 0.39018 0.31127 0.70978 0.0
C849 C 0.38334 0.32254 0.72449 0.0
C850 C 0.37237 0.33623 0.72036 0.0
C851 C 0.36842 0.33902 0.70158 0.0
C852 C 0.37568 0.32836 0.68692 0.0
C853 C 0.38654 0.31454 0.69096 0.0
H854 H 0.3597 0.34941 0.69837 0.0
H855 H 0.45271 0.20357 0.72909 0.0
H856 H 0.00975 0.81045 0.56927 0.0
H857 H 0.01037 0.83816 0.55106 0.0
H858 H 0.99077 0.87064 0.59858 0.0
H859 H 0.99042 0.84321 0.61693 0.0
H860 H 0.98438 0.85801 0.53949 0.0
H861 H 0.01302 0.91809 0.60177 0.0
H862 H 0.03301 0.92222 0.63147 0.0
H863 H 0.06068 0.87616 0.60959 0.0
H864 H 0.04114 0.872 0.57963 0.0
H865 H 0.97113 0.95055 0.51724 0.0
H866 H 0.97189 0.92005 0.53055 0.0
H867 H 0.03296 0.93442 0.5367 0.0
H868 H 0.03212 0.96555 0.5246 0.0
H869 H 0.02132 0.9223 0.56683 0.0
H870 H 0.00683 0.89707 0.50171 0.0
H871 H 0.98924 0.89303 0.47062 0.0
H872 H 0.93811 0.8688 0.4953 0.0
H873 H 0.95537 0.87286 0.52657 0.0
C874 C 0.00545 0.82345 0.57578 0.0
C875 C 0.00019 0.82471 0.59459 0.0
C876 C 0.00578 0.83925 0.56535 0.0
C877 C 0.0009 0.85656 0.57357 0.0
C878 C -0.00507 0.85755 0.59208 0.0
C879 C -0.00533 0.84182 0.60253 0.0
C880 C 0.00251 0.87381 0.56304 0.0
C881 C 0.9925 0.87207 0.54541 0.0
C882 C 0.01344 0.89205 0.5706 0.0
C883 C 0.02542 0.89457 0.58853 0.0
C884 C 0.02342 0.90888 0.60326 0.0
C885 C 0.03467 0.91123 0.62015 0.0
C886 C 0.04802 0.89937 0.62245 0.0
C887 C 0.05026 0.88526 0.60782 0.0
C888 C 0.03909 0.88289 0.59089 0.0
C889 C 0.98471 0.94699 0.52111 0.0
C890 C 0.00159 0.96024 0.51978 0.0
C891 C 0.98515 0.92952 0.52864 0.0
C892 C 0.0025 0.9247 0.53431 0.0
C893 C 0.0194 0.93777 0.53243 0.0
C894 C 0.01893 0.95548 0.52543 0.0
C895 C 0.00295 0.90666 0.54332 0.0
C896 C 0.01331 0.90825 0.56076 0.0
C897 C 0.99272 0.88822 0.53535 0.0
C898 C 0.98239 0.88534 0.51649 0.0
C899 C 0.99183 0.89092 0.50051 0.0
C900 C 0.98192 0.88862 0.48286 0.0
C901 C 0.96258 0.88065 0.48099 0.0
C902 C 0.95311 0.87492 0.49676 0.0
C903 C 0.96296 0.87718 0.51444 0.0
H904 H 0.95492 0.87892 0.46732 0.0
H905 H 0.05664 0.90114 0.63557 0.0
H906 H 0.45679 0.76179 0.88056 0.0
H907 H 0.42487 0.76756 0.87296 0.0
H908 H 0.44142 0.78196 0.81797 0.0
H909 H 0.47319 0.77643 0.82542 0.0
H910 H 0.42518 0.80964 0.83617 0.0
H911 H 0.41278 0.73951 0.82343 0.0
H912 H 0.41126 0.70583 0.83079 0.0
H913 H 0.3736 0.71511 0.87457 0.0
H914 H 0.37517 0.74898 0.8677 0.0
H915 H 0.34122 0.80203 0.77878 0.0
H916 H 0.37169 0.80161 0.79504 0.0
H917 H 0.34359 0.78838 0.84567 0.0
H918 H 0.31299 0.7885 0.82933 0.0
H919 H 0.36485 0.76234 0.83516 0.0
H920 H 0.37437 0.83152 0.84498 0.0
H921 H 0.37517 0.86469 0.83642 0.0
H922 H 0.4176 0.85691 0.79722 0.0
H923 H 0.41687 0.82359 0.80533 0.0
C924 C 0.45352 0.76588 0.86675 0.0
C925 C 0.46756 0.76881 0.85365 0.0
C926 C 0.4353 0.76919 0.86245 0.0
C927 C 0.43087 0.77531 0.84496 0.0
C928 C 0.44463 0.77743 0.83162 0.0
C929 C 0.46277 0.7742 0.8359 0.0
C930 C 0.41226 0.78049 0.84067 0.0
C931 C 0.41197 0.79927 0.83584 0.0
C932 C 0.39503 0.76716 0.84093 0.0
C933 C 0.39436 0.7469 0.84527 0.0
C934 C 0.40439 0.73446 0.83481 0.0
C935 C 0.40348 0.71532 0.83886 0.0
C936 C 0.39245 0.70837 0.85323 0.0
C937 C 0.38224 0.72054 0.86353 0.0
C938 C 0.38314 0.73971 0.85956 0.0
C939 C 0.34161 0.79958 0.79353 0.0
C940 C 0.32482 0.79516 0.80279 0.0
C941 C 0.35903 0.79939 0.80284 0.0
C942 C 0.35988 0.79497 0.82158 0.0
C943 C 0.3432 0.79179 0.83121 0.0
C944 C 0.32577 0.79194 0.82189 0.0
C945 C 0.37781 0.79134 0.83016 0.0
C946 C 0.37799 0.77285 0.83583 0.0
C947 C 0.39495 0.80491 0.83061 0.0
C948 C 0.39548 0.82499 0.8257 0.0
C949 C 0.38377 0.83682 0.83443 0.0
C950 C 0.38423 0.85567 0.82967 0.0
C951 C 0.39641 0.86289 0.81626 0.0
C952 C 0.40818 0.8513 0.80761 0.0
C953 C 0.40777 0.83244 0.8123 0.0
H954 H 0.39674 0.87748 0.8126 0.0
H955 H 0.39171 0.69353 0.8563 0.0
H956 H 0.49487 0.18801 0.12329 0.0
H957 H 0.49043 0.15855 0.10105 0.0
H958 H 0.46777 0.18829 0.05812 0.0
H959 H 0.47239 0.21823 0.08031 0.0
H960 H 0.4484 0.14507 0.06373 0.0
H961 H 0.50753 0.18688 0.05144 0.0
H962 H 0.53803 0.20841 0.06209 0.0
H963 H 0.5564 0.16214 0.08814 0.0
H964 H 0.52588 0.1404 0.07786 0.0
H965 H 0.46181 0.07183 0.98937 0.0
H966 H 0.45863 0.10216 0.00842 0.0
H967 H 0.50032 0.09256 0.05003 0.0
H968 H 0.50415 0.06303 0.03074 0.0
H969 H 0.50865 0.12785 0.04246 0.0
H970 H 0.45215 0.0864 0.05751 0.0
H971 H 0.42162 0.06362 0.05105 0.0
H972 H 0.3982 0.1066 0.02426 0.0
H973 H 0.4287 0.12957 0.03034 0.0
C974 C 0.4887 0.18833 0.10922 0.0
C975 C 0.48414 0.20557 0.10353 0.0
C976 C 0.48614 0.17143 0.09656 0.0
C977 C 0.47882 0.17134 0.07802 0.0
C978 C 0.47337 0.18815 0.07245 0.0
C979 C 0.47613 0.20523 0.08509 0.0
C980 C 0.47866 0.15412 0.06421 0.0
C981 C 0.46147 0.14141 0.05868 0.0
C982 C 0.49582 0.14919 0.05826 0.0
C983 C 0.51438 0.16207 0.064 0.0
C984 C 0.51803 0.18133 0.05954 0.0
C985 C 0.53532 0.19357 0.06549 0.0
C986 C 0.54913 0.18666 0.07582 0.0
C987 C 0.54569 0.16747 0.08014 0.0
C988 C 0.52841 0.15518 0.07423 0.0
C989 C 0.47014 0.07618 0.00267 0.0
C990 C 0.48313 0.06506 0.00866 0.0
C991 C 0.46827 0.09344 0.01357 0.0
C992 C 0.47919 0.09961 0.03071 0.0
C993 C 0.4918 0.08817 0.03684 0.0
C994 C 0.49385 0.07117 0.02588 0.0
C995 C 0.47834 0.11841 0.04196 0.0
C996 C 0.49544 0.1315 0.04712 0.0
C997 C 0.46111 0.1234 0.04787 0.0
C998 C 0.44277 0.10962 0.04416 0.0
C999 C 0.44054 0.09093 0.05009 0.0
C1000 C 0.42324 0.078 0.04653 0.0
C1001 C 0.408 0.08363 0.03719 0.0
C1002 C 0.41003 0.10224 0.03145 0.0
C1003 C 0.42732 0.11523 0.03495 0.0
H1004 H 0.39461 0.0736 0.03446 0.0
H1005 H 0.56249 0.19616 0.08044 0.0
H1006 H 0.06205 0.24068 0.34039 0.0
H1007 H 0.08955 0.23971 0.32175 0.0
H1008 H 0.12625 0.2528 0.37277 0.0
H1009 H 0.09869 0.25405 0.39161 0.0
H1010 H 0.13855 0.27615 0.34683 0.0
H1011 H 0.11897 0.2078 0.34813 0.0
H1012 H 0.09669 0.17637 0.34459 0.0
H1013 H 0.08683 0.18062 0.28547 0.0
H1014 H 0.10886 0.21222 0.2887 0.0
H1015 H 0.21133 0.23259 0.28846 0.0
H1016 H 0.18251 0.2273 0.30549 0.0
H1017 H 0.16746 0.27938 0.28729 0.0
H1018 H 0.19663 0.28516 0.27067 0.0
H1019 H 0.1455 0.22214 0.29844 0.0
H1020 H 0.14906 0.30367 0.32454 0.0
H1021 H 0.17262 0.33424 0.32961 0.0
H1022 H 0.21709 0.30199 0.33724 0.0
H1023 H 0.19372 0.27125 0.33268 0.0
C1024 C 0.07594 0.24313 0.3477 0.0
C1025 C 0.07823 0.24754 0.36747 0.0
C1026 C 0.09165 0.24248 0.33701 0.0
C1027 C 0.10993 0.24609 0.34588 0.0
C1028 C 0.11224 0.24998 0.36567 0.0
C1029 C 0.0965 0.25062 0.3764 0.0
C1030 C 0.12664 0.24699 0.33434 0.0
C1031 C 0.14011 0.26432 0.33629 0.0
C1032 C 0.12871 0.23149 0.32071 0.0
C1033 C 0.11546 0.21247 0.3187 0.0
C1034 C 0.11194 0.20211 0.3344 0.0
C1035 C 0.09937 0.18425 0.33244 0.0
C1036 C 0.09032 0.17652 0.31482 0.0
C1037 C 0.09384 0.18663 0.29911 0.0
C1038 C 0.10639 0.2045 0.30099 0.0
C1039 C 0.20174 0.24275 0.28777 0.0
C1040 C 0.2064 0.25945 0.27845 0.0
C1041 C 0.18525 0.23968 0.29752 0.0
C1042 C 0.17308 0.25318 0.29801 0.0
C1043 C 0.17692 0.26904 0.28745 0.0
C1044 C 0.19354 0.27226 0.27789 0.0
C1045 C 0.15724 0.25141 0.31072 0.0
C1046 C 0.14393 0.23396 0.30898 0.0
C1047 C 0.1555 0.26669 0.32479 0.0
C1048 C 0.16964 0.28513 0.32807 0.0
C1049 C 0.16384 0.3031 0.32744 0.0
C1050 C 0.17716 0.32046 0.33026 0.0
C1051 C 0.19634 0.32005 0.33367 0.0
C1052 C 0.20223 0.30228 0.33452 0.0
C1053 C 0.18895 0.28489 0.33186 0.0
H1054 H 0.20664 0.3335 0.33569 0.0
H1055 H 0.08059 0.16269 0.31334 0.0
H1056 H 0.8891 0.06489 0.16922 0.0
H1057 H 0.90815 0.06781 0.14156 0.0
H1058 H 0.94502 0.03286 0.16475 0.0
H1059 H 0.92699 0.03137 0.19286 0.0
H1060 H 0.96573 0.05864 0.151 0.0
H1061 H 0.90655 0.01667 0.12684 0.0
H1062 H 0.87206 0.00777 0.1192 0.0
H1063 H 0.87474 0.055 0.08528 0.0
H1064 H 0.90917 0.06438 0.09298 0.0
H1065 H 0.97753 0.01306 0.04967 0.0
H1066 H 0.95764 0.019 0.07565 0.0
H1067 H 0.99393 0.07473 0.09269 0.0
H1068 H 0.01448 0.06832 0.06704 0.0
H1069 H 0.9366 0.04322 0.08556 0.0
H1070 H -0.00503 0.08565 0.14013 0.0
H1071 H 0.02937 0.08909 0.14745 0.0
H1072 H 0.02776 0.03116 0.12057 0.0
H1073 H 0.99335 0.02732 0.1133 0.0
C1074 C 0.90134 0.05794 0.16833 0.0
C1075 C 0.90663 0.04792 0.18311 0.0
C1076 C 0.91215 0.05948 0.15248 0.0
C1077 C 0.92795 0.05032 0.15081 0.0
C1078 C 0.93304 0.04022 0.16564 0.0
C1079 C 0.92267 0.03927 0.1817 0.0
C1080 C 0.9394 0.05113 0.13385 0.0
C1081 C 0.95927 0.05528 0.13671 0.0
C1082 C 0.93115 0.04686 0.11508 0.0
C1083 C 0.91039 0.0414 0.11072 0.0
C1084 C 0.89974 0.02528 0.11791 0.0
C1085 C 0.88021 0.02013 0.11355 0.0
C1086 C 0.87119 0.03087 0.10184 0.0
C1087 C 0.8817 0.04675 0.09443 0.0
C1088 C 0.90123 0.05199 0.0988 0.0
C1089 C 0.98128 0.02659 0.05896 0.0
C1090 C -0.00233 0.04013 0.05655 0.0
C1091 C 0.96981 0.03004 0.07375 0.0
C1092 C 0.97436 0.04721 0.08633 0.0
C1093 C 0.99033 0.06118 0.08343 0.0
C1094 C 0.00204 0.05755 0.06878 0.0
C1095 C 0.96277 0.04985 0.10287 0.0
C1096 C 0.94296 0.04667 0.09989 0.0
C1097 C 0.971 0.0542 0.12158 0.0
C1098 C 0.99166 0.05632 0.12597 0.0
C1099 C 0.00197 0.07366 0.13582 0.0
C1100 C 0.02146 0.07567 0.13996 0.0
C1101 C 0.03076 0.06038 0.13441 0.0
C1102 C 0.02057 0.04302 0.12479 0.0
C1103 C 0.00108 0.04092 0.12064 0.0
H1104 H 0.04584 0.06198 0.13762 0.0
H1105 H 0.85608 0.02683 0.09847 0.0
H1106 H 0.30494 0.67296 0.4494 0.0
H1107 H 0.30734 0.69464 0.42478 0.0
H1108 H 0.29459 0.7406 0.46436 0.0
H1109 H 0.29224 0.71898 0.48915 0.0
H1110 H 0.26781 0.72902 0.43566 0.0
H1111 H 0.33401 0.74943 0.44132 0.0
H1112 H 0.36779 0.74733 0.44464 0.0
H1113 H 0.36273 0.71226 0.39089 0.0
H1114 H 0.32885 0.71378 0.38744 0.0
H1115 H 0.25013 0.77096 0.35096 0.0
H1116 H 0.26328 0.76756 0.38249 0.0
H1117 H 0.28355 0.71642 0.35953 0.0
H1118 H 0.27113 0.72015 0.32798 0.0
H1119 H 0.31032 0.74021 0.38337 0.0
H1120 H 0.24326 0.71271 0.38284 0.0
H1121 H 0.20913 0.71345 0.37945 0.0
H1122 H 0.2162 0.76085 0.42399 0.0
H1123 H 0.25044 0.76053 0.42748 0.0
C1124 C 0.30337 0.68791 0.45306 0.0
C1125 C 0.29797 0.69415 0.47105 0.0
C1126 C 0.30489 0.70035 0.439 0.0
C1127 C 0.30099 0.71918 0.44273 0.0
C1128 C 0.29764 0.72611 0.46123 0.0
C1129 C 0.29627 0.71371 0.47536 0.0
C1130 C 0.29614 0.72945 0.4267 0.0
C1131 C 0.27732 0.7321 0.42449 0.0
C1132 C 0.30842 0.73298 0.41198 0.0
C1133 C 0.32878 0.73167 0.41414 0.0
C1134 C 0.34003 0.74109 0.43029 0.0
C1135 C 0.35923 0.74003 0.43219 0.0
C1136 C 0.36741 0.72965 0.418 0.0
C1137 C 0.35639 0.7203 0.40188 0.0
C1138 C 0.33718 0.72128 0.39993 0.0
C1139 C 0.25732 0.75895 0.35272 0.0
C1140 C 0.25952 0.74572 0.33716 0.0
C1141 C 0.26489 0.75708 0.37066 0.0
C1142 C 0.2745 0.74179 0.37326 0.0
C1143 C 0.2765 0.72849 0.35772 0.0
C1144 C 0.26916 0.73048 0.33979 0.0
C1145 C 0.28192 0.73901 0.39223 0.0
C1146 C 0.3011 0.73773 0.39487 0.0
C1147 C 0.26997 0.73655 0.40736 0.0
C1148 C 0.24942 0.73678 0.40523 0.0
C1149 C 0.23755 0.7234 0.39179 0.0
C1150 C 0.21819 0.72372 0.38988 0.0
C1151 C 0.21051 0.73724 0.40145 0.0
C1152 C 0.22217 0.75042 0.415 0.0
C1153 C 0.24156 0.75018 0.41695 0.0
H1154 H 0.19552 0.73745 0.39996 0.0
H1155 H 0.38228 0.72888 0.41948 0.0
H1156 H 0.6245 0.97968 0.66491 0.0
H1157 H 0.61036 0.98213 0.63364 0.0
H1158 H 0.5579 0.94741 0.64706 0.0
H1159 H 0.5718 0.9451 0.67846 0.0
H1160 H 0.57018 0.94505 0.60416 0.0
H1161 H 0.55461 0.98857 0.65943 0.0
H1162 H 0.56367 0.01201 0.68811 0.0
H1163 H 0.60495 0.04683 0.65801 0.0
H1164 H 0.59596 0.02364 0.6291 0.0
H1165 H 0.49534 0.98148 0.5582 0.0
H1166 H 0.5159 0.96792 0.57963 0.0
H1167 H 0.56037 0.01783 0.57766 0.0
H1168 H 0.53982 0.03159 0.557 0.0
H1169 H 0.55487 0.01135 0.61256 0.0
H1170 H 0.56468 0.97415 0.55559 0.0
H1171 H 0.55538 0.95287 0.52565 0.0
H1172 H 0.528 0.90728 0.55612 0.0
H1173 H 0.53688 0.92841 0.58627 0.0
C1174 C 0.6102 0.97194 0.66096 0.0
C1175 C 0.5991 0.96252 0.67422 0.0
C1176 C 0.60218 0.97328 0.64306 0.0
C1177 C 0.58311 0.96499 0.63817 0.0
C1178 C 0.57269 0.95375 0.65058 0.0
C1179 C 0.5806 0.9526 0.66856 0.0
C1180 C 0.57295 0.97186 0.62261 0.0
C1181 C 0.56673 0.95948 0.60589 0.0
C1182 C 0.5689 0.99082 0.6248 0.0
C1183 C 0.57476 0.00435 0.64225 0.0
C1184 C 0.56574 0.00114 0.65902 0.0
C1185 C 0.57081 0.01439 0.67527 0.0
C1186 C 0.58492 0.03085 0.67489 0.0
C1187 C 0.59403 0.03406 0.65827 0.0
C1188 C 0.58892 0.02091 0.64195 0.0
C1189 C 0.50947 0.98952 0.5625 0.0
C1190 C 0.51606 0.00753 0.55604 0.0
C1191 C 0.52127 0.98168 0.57447 0.0
C1192 C 0.53974 0.99179 0.58002 0.0
C1193 C 0.54622 0.00976 0.57349 0.0
C1194 C 0.53447 0.01758 0.56169 0.0
C1195 C 0.55186 0.9846 0.59388 0.0
C1196 C 0.55843 -0.00304 0.61048 0.0
C1197 C 0.55646 0.96581 0.59126 0.0
C1198 C 0.5513 0.95293 0.5732 0.0
C1199 C 0.55656 0.95963 0.55591 0.0
C1200 C 0.55139 0.94759 0.5389 0.0
C1201 C 0.54108 0.92875 0.53898 0.0
C1202 C 0.53597 0.92189 0.55609 0.0
C1203 C 0.54109 0.93388 0.57315 0.0
H1204 H 0.53708 0.91945 0.5258 0.0
H1205 H 0.58868 0.04118 0.68743 0.0
H1206 H 0.24591 0.38966 0.9453 0.0
H1207 H 0.24985 0.37121 0.91534 0.0
H1208 H 0.23957 0.31792 0.94136 0.0
H1209 H 0.23647 0.33655 0.97177 0.0
H1210 H 0.26677 0.31628 0.91986 0.0
H1211 H 0.20563 0.33136 0.90995 0.0
H1212 H 0.18099 0.35155 0.90938 0.0
H1213 H 0.21097 0.38492 0.86931 0.0
H1214 H 0.23592 0.36509 0.86981 0.0
H1215 H 0.23624 0.26525 0.82221 0.0
H1216 H 0.23354 0.2801 0.85435 0.0
H1217 H 0.2831 0.32353 0.84916 0.0
H1218 H 0.28621 0.30848 0.817 0.0
H1219 H 0.23486 0.32765 0.86006 0.0
H1220 H 0.29915 0.31222 0.87681 0.0
H1221 H 0.31987 0.28784 0.87683 0.0
H1222 H 0.2778 0.25012 0.90345 0.0
H1223 H 0.25675 0.27421 0.90332 0.0
C1224 C 0.24434 0.37399 0.94466 0.0
C1225 C 0.24076 0.36456 0.96092 0.0
C1226 C 0.24651 0.36341 0.92744 0.0
C1227 C 0.24465 0.34307 0.9259 0.0
C1228 C 0.24104 0.33359 0.94213 0.0
C1229 C 0.2392 0.34424 0.9595 0.0
C1230 C 0.24705 0.33191 0.90747 0.0
C1231 C 0.25966 0.31878 0.90686 0.0
C1232 C 0.23769 0.33484 0.89037 0.0
C1233 C 0.22274 0.34686 0.89006 0.0
C1234 C 0.20705 0.34311 0.90113 0.0
C1235 C 0.19301 0.35446 0.90079 0.0
C1236 C 0.19444 0.36954 0.88935 0.0
C1237 C 0.20989 0.37326 0.87818 0.0
C1238 C 0.22398 0.36195 0.87847 0.0
C1239 C 0.2468 0.27776 0.82801 0.0
C1240 C 0.26147 0.28572 0.81709 0.0
C1241 C 0.24522 0.28618 0.84637 0.0
C1242 C 0.2582 0.30277 0.8541 0.0
C1243 C 0.27313 0.31052 0.84347 0.0
C1244 C 0.2749 0.30192 0.82514 0.0
C1245 C 0.25504 0.31289 0.87261 0.0
C1246 C 0.24204 0.3255 0.87316 0.0
C1247 C 0.26365 0.30917 0.88964 0.0
C1248 C 0.27634 0.29486 0.88984 0.0
C1249 C 0.29427 0.29863 0.88247 0.0
C1250 C 0.30608 0.2849 0.88255 0.0
C1251 C 0.30013 0.26741 0.89008 0.0
C1252 C 0.28237 0.26365 0.89759 0.0
C1253 C 0.27051 0.27733 0.89753 0.0
H1254 H 0.30929 0.25679 0.89013 0.0
H1255 H 0.18355 0.37832 0.88912 0.0
H1256 H 0.93706 0.01346 0.28379 0.0
H1257 H 0.9428 0.00888 0.31677 0.0
H1258 H 0.8939 0.03342 0.33147 0.0
H1259 H 0.88795 0.03815 0.29828 0.0
H1260 H 0.92589 0.04611 0.35766 0.0
H1261 H 0.88869 0.9865 0.3274 0.0
H1262 H 0.88027 0.95883 0.30236 0.0
H1263 H 0.93313 0.94107 0.31446 0.0
H1264 H 0.942 0.96882 0.33938 0.0
H1265 H 0.93254 0.01409 0.44854 0.0
H1266 H 0.91838 0.01768 0.41751 0.0
H1267 H 0.96048 0.98979 0.39034 0.0
H1268 H 0.9744 0.98584 0.42123 0.0
H1269 H 0.92693 0.97857 0.37133 0.0
H1270 H 0.96564 0.03956 0.39892 0.0
H1271 H 0.97516 0.06771 0.42333 0.0
H1272 H 0.92056 0.08334 0.41583 0.0
H1273 H 0.91058 0.05505 0.39162 0.0
C1274 C 0.92757 0.01808 0.29399 0.0
C1275 C 0.91192 0.02602 0.28832 0.0
C1276 C 0.93086 0.01538 0.31285 0.0
C1277 C 0.91859 0.02051 0.32646 0.0
C1278 C 0.90346 0.02927 0.32111 0.0
C1279 C 0.90009 0.03194 0.30215 0.0
C1280 C 0.92139 0.01598 0.34609 0.0
C1281 C 0.92575 0.03133 0.36077 0.0
C1282 C 0.92146 -0.0033 0.35001 0.0
C1283 C 0.91606 0.97983 0.33518 0.0
C1284 C 0.89858 0.97677 0.32464 0.0
C1285 C 0.89371 0.96106 0.31047 0.0
C1286 C 0.90617 0.94822 0.3068 0.0
C1287 C 0.9235 0.95103 0.31732 0.0
C1288 C 0.92844 0.96674 0.33148 0.0
C1289 C 0.9385 0.00838 0.43591 0.0
C1290 C 0.95461 -0.0002 0.43722 0.0
C1291 C 0.93049 0.01056 0.41823 0.0
C1292 C 0.93861 0.00435 0.40163 0.0
C1293 C 0.95403 0.99476 0.40296 0.0
C1294 C 0.96197 0.99251 0.42061 0.0
C1295 C 0.93188 0.00874 0.3829 0.0
C1296 C 0.92677 0.99335 0.36834 0.0
C1297 C 0.93125 0.028 0.3791 0.0
C1298 C 0.93728 0.04505 0.39362 0.0
C1299 C 0.9556 0.0489 0.40259 0.0
C1300 C 0.96109 0.06489 0.41638 0.0
C1301 C 0.94846 0.07727 0.42116 0.0
C1302 C 0.93032 0.0737 0.41214 0.0
C1303 C 0.92474 0.05769 0.3984 0.0
H1304 H 0.95274 0.08967 0.4318 0.0
H1305 H 0.90238 0.93606 0.29582 0.0
H1306 H 0.28243 0.69085 0.56323 0.0
H1307 H 0.28315 0.71014 0.5938 0.0
H1308 H 0.24444 0.66337 0.61381 0.0
H1309 H 0.24324 0.64406 0.58299 0.0
H1310 H 0.23352 0.6971 0.62221 0.0
H1311 H 0.29184 0.67388 0.62869 0.0
H1312 H 0.32309 0.66782 0.61947 0.0
H1313 H 0.34344 0.72928 0.62104 0.0
H1314 H 0.31222 0.7357 0.63003 0.0
H1315 H 0.24604 0.72818 0.72042 0.0
H1316 H 0.24415 0.71161 0.6884 0.0
H1317 H 0.28072 0.76136 0.67075 0.0
H1318 H 0.28271 0.77811 0.70303 0.0
H1319 H 0.29274 0.72762 0.66043 0.0
H1320 H 0.23409 0.75044 0.65589 0.0
H1321 H 0.20236 0.75566 0.66437 0.0
H1322 H 0.18241 0.69391 0.65956 0.0
H1323 H 0.21407 0.68829 0.65134 0.0
C1324 C 0.27419 0.68454 0.57416 0.0
C1325 C 0.26276 0.66589 0.57066 0.0
C1326 C 0.27468 0.69559 0.59167 0.0
C1327 C 0.26399 0.68812 0.60613 0.0
C1328 C 0.2528 0.6694 0.60281 0.0
C1329 C 0.25218 0.65836 0.58523 0.0
C1330 C 0.26389 0.70019 0.62444 0.0
C1331 C 0.24644 0.70355 0.63073 0.0
C1332 C 0.28082 0.70908 0.6352 0.0
C1333 C 0.29963 0.70526 0.62985 0.0
C1334 C 0.30293 0.68609 0.62692 0.0
C1335 C 0.32065 0.68259 0.62177 0.0
C1336 C 0.33522 0.69815 0.61962 0.0
C1337 C 0.33212 0.71724 0.62268 0.0
C1338 C 0.31443 0.72082 0.62783 0.0
C1339 C 0.25342 0.73575 0.70966 0.0
C1340 C 0.26453 0.75442 0.71415 0.0
C1341 C 0.25228 0.72628 0.69135 0.0
C1342 C 0.26216 0.73533 0.67718 0.0
C1343 C 0.27294 0.75418 0.68151 0.0
C1344 C 0.27404 0.76372 0.69989 0.0
C1345 C 0.26233 0.72441 0.65829 0.0
C1346 C 0.27981 0.72125 0.65188 0.0
C1347 C 0.2454 0.71557 0.6475 0.0
C1348 C 0.22651 0.71895 0.65309 0.0
C1349 C 0.223 0.73797 0.65685 0.0
C1350 C 0.20501 0.741 0.66155 0.0
C1351 C 0.19038 0.72512 0.66243 0.0
C1352 C 0.19375 0.70618 0.65881 0.0
C1353 C 0.21171 0.70307 0.65412 0.0
H1354 H 0.17641 0.72747 0.66585 0.0
H1355 H 0.34893 0.69541 0.61563 0.0
H1356 H 0.58728 0.98548 0.79179 0.0
H1357 H 0.57064 0.98755 0.82084 0.0
H1358 H 0.52038 0.99441 0.78896 0.0
H1359 H 0.53711 0.99292 0.75989 0.0
H1360 H 0.5261 0.01947 0.81891 0.0
H1361 H 0.52373 0.95129 0.80723 0.0
H1362 H 0.53589 0.92091 0.80016 0.0
H1363 H 0.57127 0.93396 0.8517 0.0
H1364 H 0.55956 0.96459 0.85894 0.0
H1365 H 0.48674 0.98101 0.91252 0.0
H1366 H 0.49431 0.97523 0.87944 0.0
H1367 H 0.53045 0.03194 0.88466 0.0
H1368 H 0.52239 0.03799 0.9174 0.0
H1369 H 0.52625 0.97204 0.86563 0.0
H1370 H 0.53351 0.05032 0.84353 0.0
H1371 H 0.51843 0.079 0.84954 0.0
H1372 H 0.46743 0.0424 0.86317 0.0
H1373 H 0.48209 0.01347 0.857 0.0
C1374 C 0.57265 0.9873 0.79093 0.0
C1375 C 0.56352 0.98903 0.77352 0.0
C1376 C 0.56312 0.98839 0.80754 0.0
C1377 C 0.54417 0.99088 0.80705 0.0
C1378 C 0.53498 0.99247 0.78967 0.0
C1379 C 0.54457 0.99158 0.77307 0.0
C1380 C 0.53425 0.99259 0.82478 0.0
C1381 C 0.52603 0.00904 0.82908 0.0
C1382 C 0.53374 0.97874 0.83786 0.0
C1383 C 0.54086 0.96033 0.83355 0.0
C1384 C 0.53422 0.94777 0.81698 0.0
C1385 C 0.54102 0.93049 0.81295 0.0
C1386 C 0.55438 0.92553 0.82545 0.0
C1387 C 0.56094 0.93783 0.84202 0.0
C1388 C 0.55421 0.95515 0.8461 0.0
C1389 C 0.49607 0.99232 0.90646 0.0
C1390 C 0.50395 0.00996 0.9174 0.0
C1391 C 0.50042 0.98899 0.88762 0.0
C1392 C 0.51279 0.00323 0.87949 0.0
C1393 C 0.52053 0.02092 0.89045 0.0
C1394 C 0.51601 0.02432 0.90919 0.0
C1395 C 0.51858 -0.00081 0.85998 0.0
C1396 C 0.52609 0.98234 0.85536 0.0
C1397 C 0.518 0.01242 0.84642 0.0
C1398 C 0.50897 0.02973 0.84993 0.0
C1399 C 0.51904 0.04837 0.84771 0.0
C1400 C 0.51057 0.06468 0.85117 0.0
C1401 C 0.492 0.06253 0.85678 0.0
C1402 C 0.48184 0.04406 0.85889 0.0
C1403 C 0.49023 0.0277 0.85544 0.0
H1404 H 0.48548 0.07517 0.85946 0.0
H1405 H 0.55962 0.91214 0.8223 0.0
H1406 H 0.23039 0.32544 0.06217 0.0
H1407 H 0.23178 0.30887 0.09061 0.0
H1408 H 0.26656 0.36063 0.12036 0.0
H1409 H 0.2653 0.37724 0.09205 0.0
H1410 H 0.27932 0.32735 0.12772 0.0
H1411 H 0.22007 0.35065 0.12665 0.0
H1412 H 0.18904 0.35384 0.11251 0.0
H1413 H 0.17037 0.29191 0.10836 0.0
H1414 H 0.2014 0.28833 0.12225 0.0
H1415 H 0.26951 0.31023 0.22271 0.0
H1416 H 0.26777 0.32423 0.19285 0.0
H1417 H 0.23127 0.2714 0.16732 0.0
H1418 H 0.23283 0.25737 0.19726 0.0
H1419 H 0.21933 0.30335 0.15683 0.0
H1420 H 0.27707 0.2793 0.15836 0.0
H1421 H 0.30779 0.27483 0.17208 0.0
H1422 H 0.32921 0.33621 0.17472 0.0
H1423 H 0.29848 0.34108 0.16116 0.0
C1424 C 0.23845 0.33323 0.07472 0.0
C1425 C 0.24764 0.35269 0.07488 0.0
C1426 C 0.23918 0.32377 0.09098 0.0
C1427 C 0.24911 0.33359 0.10767 0.0
C1428 C 0.2588 0.35278 0.10766 0.0
C1429 C 0.258 0.36227 0.09146 0.0
C1430 C 0.24892 0.32416 0.12537 0.0
C1431 C 0.26622 0.32228 0.13419 0.0
C1432 C 0.2318 0.31705 0.13354 0.0
C1433 C 0.21311 0.3192 0.1253 0.0
C1434 C 0.20939 0.3377 0.12258 0.0
C1435 C 0.1918 0.33958 0.11464 0.0
C1436 C 0.17777 0.32308 0.10948 0.0
C1437 C 0.18127 0.30467 0.11232 0.0
C1438 C 0.19885 0.30271 0.12024 0.0
C1439 C 0.26097 0.30167 0.21078 0.0
C1440 C 0.2514 0.28266 0.21224 0.0
C1441 C 0.26007 0.30964 0.1937 0.0
C1442 C 0.24964 0.29874 0.17776 0.0
C1443 C 0.23947 0.28003 0.17941 0.0
C1444 C 0.24039 0.27203 0.1965 0.0
C1445 C 0.24973 0.30673 0.15929 0.0
C1446 C 0.23242 0.30833 0.15033 0.0
C1447 C 0.26683 0.3134 0.15089 0.0
C1448 C 0.28542 0.31057 0.15888 0.0
C1449 C 0.28829 0.29187 0.16198 0.0
C1450 C 0.30571 0.28926 0.16971 0.0
C1451 C 0.32044 0.30524 0.17431 0.0
C1452 C 0.31778 0.32385 0.17115 0.0
C1453 C 0.30037 0.32654 0.16341 0.0
H1454 H 0.33394 0.30318 0.18024 0.0
H1455 H 0.16416 0.32457 0.10334 0.0
H1456 H 0.16359 0.88719 0.02664 0.0
H1457 H 0.1403 0.90867 0.02788 0.0
H1458 H 0.1844 0.95751 0.04874 0.0
H1459 H 0.20774 0.93629 0.0471 0.0
H1460 H 0.12709 0.93537 0.05237 0.0
H1461 H 0.18154 0.99343 0.02178 0.0
H1462 H 0.21033 0.99484 0.00395 0.0
H1463 H 0.19106 0.93565 0.97953 0.0
H1464 H 0.16202 0.93402 -0.00307 0.0
H1465 H 0.08697 0.01926 0.04913 0.0
H1466 H 0.11089 -0.00058 0.05454 0.0
H1467 H 0.10866 0.98087 0.99465 0.0
H1468 H 0.08484 0.00077 0.98915 0.0
H1469 H 0.14415 0.98665 0.00999 0.0
H1470 H 0.08287 0.95451 0.02271 0.0
H1471 H 0.05238 0.95017 0.03754 0.0
H1472 H 0.08111 0.95132 0.09183 0.0
H1473 H 0.11194 0.9566 0.07744 0.0
C1474 C 0.16819 0.9024 0.03198 0.0
C1475 C 0.18747 0.91022 0.03639 0.0
C1476 C 0.15488 0.91463 0.03272 0.0
C1477 C 0.16077 0.93469 0.03798 0.0
C1478 C 0.17969 0.94209 0.04431 0.0
C1479 C 0.19299 0.92998 0.04336 0.0
C1480 C 0.14793 0.94822 0.03438 0.0
C1481 C 0.13082 0.94671 0.04326 0.0
C1482 C 0.1526 0.96247 0.02189 0.0
C1483 C 0.16971 0.96356 0.01083 0.0
C1484 C 0.1834 0.98077 0.01251 0.0
C1485 C 0.19976 0.98159 0.00249 0.0
C1486 C 0.20255 0.96532 0.99067 0.0
C1487 C 0.18891 0.94822 0.98873 0.0
C1488 C 0.1725 0.94734 -0.00133 0.0
C1489 C 0.09194 0.01132 0.03709 0.0
C1490 C 0.08403 0.01138 0.01874 0.0
C1491 C 0.10547 -0.0001 0.04021 0.0
C1492 C 0.1112 0.98841 0.02503 0.0
C1493 C 0.10432 0.98958 0.00655 0.0
C1494 C 0.09076 0.00096 0.00342 0.0
C1495 C 0.12349 0.97429 0.02846 0.0
C1496 C 0.14047 0.97555 0.01936 0.0
C1497 C 0.11834 0.95941 0.04026 0.0
C1498 C 0.09979 0.95631 0.04901 0.0
C1499 C 0.08275 0.95415 0.03785 0.0
C1500 C 0.06538 0.9515 0.04619 0.0
C1501 C 0.06479 0.9505 0.06563 0.0
C1502 C 0.0816 0.95221 0.07678 0.0
C1503 C 0.09904 0.95512 0.06855 0.0
H1504 H 0.05131 0.9483 0.07205 0.0
H1505 H 0.21526 0.96597 0.98298 0.0
H1506 H 0.68736 0.64867 0.98264 0.0
H1507 H 0.65504 0.63043 0.98358 0.0
H1508 H 0.67328 0.57741 0.9628 0.0
H1509 H 0.70567 0.59548 0.96205 0.0
H1510 H 0.6367 0.58256 0.94654 0.0
H1511 H 0.67154 0.58531 0.00708 0.0
H1512 H 0.6909 0.60279 0.03521 0.0
H1513 H 0.64663 0.63436 0.04919 0.0
H1514 H 0.62713 0.61729 0.02093 0.0
H1515 H 0.56335 0.51077 0.9721 0.0
H1516 H 0.59432 0.53059 0.96802 0.0
H1517 H 0.57885 0.57935 0.00175 0.0
H1518 H 0.54826 0.5594 0.00641 0.0
H1519 H 0.61361 0.5779 0.01084 0.0
H1520 H 0.5781 0.57606 0.95262 0.0
H1521 H 0.55798 0.56115 0.92406 0.0
H1522 H 0.6018 0.53106 0.90502 0.0
H1523 H 0.62208 0.54561 0.93364 0.0
C1524 C 0.68442 0.63317 0.97795 0.0
C1525 C 0.69907 0.62343 0.97241 0.0
C1526 C 0.66598 0.62281 0.97854 0.0
C1527 C 0.66189 0.60261 0.97341 0.0
C1528 C 0.67622 0.59304 0.96682 0.0
C1529 C 0.69471 0.60333 0.96646 0.0
C1530 C 0.64307 0.59121 0.97633 0.0
C1531 C 0.63167 0.58134 0.96057 0.0
C1532 C 0.63638 0.59018 0.99463 0.0
C1533 C 0.64797 0.60018 0.01179 0.0
C1534 C 0.666 0.59609 0.01607 0.0
C1535 C 0.67699 0.60591 0.03205 0.0
C1536 C 0.67002 0.61972 0.04395 0.0
C1537 C 0.65202 0.62368 0.03994 0.0
C1538 C 0.64099 0.61394 0.02395 0.0
C1539 C 0.56667 0.52567 0.97874 0.0
C1540 C 0.55344 0.53358 0.98949 0.0
C1541 C 0.58428 0.53703 0.97629 0.0
C1542 C 0.58877 0.5566 0.98426 0.0
C1543 C 0.5757 0.56433 -0.00459 0.0
C1544 C 0.55822 0.55291 -0.00194 0.0
C1545 C 0.60711 0.569 0.98102 0.0
C1546 C 0.61849 0.5791 -0.00326 0.0
C1547 C 0.6136 0.57053 0.96264 0.0
C1548 C 0.60152 0.56178 0.94537 0.0
C1549 C 0.58337 0.56615 0.94241 0.0
C1550 C 0.57195 0.55778 0.9262 0.0
C1551 C 0.57859 0.54512 0.91275 0.0
C1552 C 0.59667 0.54085 0.91547 0.0
C1553 C 0.60814 0.54917 0.93168 0.0
H1554 H 0.56973 0.53865 0.90021 0.0
H1555 H 0.67856 0.62731 0.05631 0.0
H1556 H 0.69751 0.47604 0.28723 0.0
H1557 H 0.71705 0.45085 0.28539 0.0
H1558 H 0.6692 0.40883 0.25922 0.0
H1559 H 0.64952 0.43362 0.2618 0.0
H1560 H 0.68705 0.39216 0.28264 0.0
H1561 H 0.70648 0.43321 0.23371 0.0
H1562 H 0.71879 0.46423 0.22141 0.0
H1563 H 0.77017 0.47078 0.25642 0.0
H1564 H 0.75806 0.4399 0.26909 0.0
H1565 H 0.73022 0.32131 0.23471 0.0
H1566 H 0.71769 0.35146 0.23674 0.0
H1567 H 0.75956 0.37702 0.28178 0.0
H1568 H 0.77246 0.34705 0.2797 0.0
H1569 H 0.74734 0.40286 0.25042 0.0
H1570 H 0.72104 0.36686 0.30549 0.0
H1571 H 0.71151 0.33391 0.31507 0.0
H1572 H 0.67583 0.31655 0.26405 0.0
H1573 H 0.68454 0.34955 0.25457 0.0
C1574 C 0.69115 0.46138 0.28126 0.0
C1575 C 0.672 0.45682 0.27461 0.0
C1576 C 0.70236 0.44702 0.28009 0.0
C1577 C 0.69471 0.42798 0.27183 0.0
C1578 C 0.67546 0.42337 0.26564 0.0
C1579 C 0.66421 0.4376 0.2671 0.0
C1580 C 0.70664 0.41282 0.26924 0.0
C1581 C 0.70015 0.39463 0.27552 0.0
C1582 C 0.72397 0.41589 0.26019 0.0
C1583 C 0.73129 0.43437 0.25249 0.0
C1584 C 0.72035 0.44134 0.23887 0.0
C1585 C 0.7273 0.45888 0.23182 0.0
C1586 C 0.74522 0.4695 0.23817 0.0
C1587 C 0.75627 0.46256 0.25154 0.0
C1588 C 0.74938 0.44504 0.25865 0.0
C1589 C 0.73707 0.33348 0.24475 0.0
C1590 C 0.75221 0.33171 0.25717 0.0
C1591 C 0.72995 0.35071 0.24583 0.0
C1592 C 0.73769 0.36635 0.25946 0.0
C1593 C 0.75353 0.36512 0.27108 0.0
C1594 C 0.76081 0.34794 0.2699 0.0
C1595 C 0.72741 0.38253 0.26347 0.0
C1596 C 0.73426 0.40072 0.25762 0.0
C1597 C 0.71037 0.37956 0.27272 0.0
C1598 C 0.70319 0.36064 0.2795 0.0
C1599 C 0.71079 0.3561 0.29658 0.0
C1600 C 0.70551 0.33744 0.30199 0.0
C1601 C 0.69281 0.32321 0.29032 0.0
C1602 C 0.68525 0.32767 0.2733 0.0
C1603 C 0.69023 0.34639 0.26797 0.0
H1604 H 0.68896 0.30869 0.29438 0.0
H1605 H 0.75057 0.48308 0.2327 0.0
H1606 H 0.79013 0.46757 0.50459 0.0
H1607 H 0.82429 0.47952 0.50595 0.0
H1608 H 0.83411 0.42189 0.51288 0.0
H1609 H 0.79999 0.40994 0.5121 0.0
H1610 H 0.85793 0.44788 0.53562 0.0
H1611 H 0.83727 0.44005 0.46968 0.0
H1612 H 0.81787 0.44502 0.44188 0.0
H1613 H 0.83867 0.50664 0.45208 0.0
H1614 H 0.85802 0.50205 0.48009 0.0
H1615 H 0.94905 0.47626 0.48154 0.0
H1616 H 0.91511 0.46398 0.48207 0.0
H1617 H 0.91485 0.49567 0.53732 0.0
H1618 H 0.9489 0.50759 0.53715 0.0
H1619 H 0.88634 0.48195 0.48327 0.0
H1620 H 0.88134 0.47153 0.56238 0.0
H1621 H 0.90123 0.46424 0.58877 0.0
H1622 H 0.93249 0.43407 0.54941 0.0
H1623 H 0.91265 0.44098 0.52281 0.0
C1624 C 0.79956 0.45745 0.50644 0.0
C1625 C 0.79237 0.43778 0.50813 0.0
C1626 C 0.81907 0.46429 0.50716 0.0
C1627 C 0.83171 0.45152 0.50924 0.0
C1628 C 0.82458 0.43198 0.51126 0.0
C1629 C 0.80509 0.42516 0.51075 0.0
C1630 C 0.85238 0.45843 0.50902 0.0
C1631 C 0.86415 0.45534 0.52418 0.0
C1632 C 0.86049 0.46794 0.49398 0.0
C1633 C 0.84896 0.47072 0.47708 0.0
C1634 C 0.83761 0.45467 0.46607 0.0
C1635 C 0.82664 0.45742 0.45026 0.0
C1636 C 0.827 0.47614 0.44525 0.0
C1637 C 0.83838 0.49215 0.45599 0.0
C1638 C 0.84937 0.48949 0.47182 0.0
C1639 C 0.94179 0.48056 0.49384 0.0
C1640 C 0.95166 0.49283 0.50934 0.0
C1641 C 0.92239 0.47357 0.4941 0.0
C1642 C 0.9125 0.47878 0.50979 0.0
C1643 C 0.92228 0.49118 0.52521 0.0
C1644 C 0.94173 0.49801 0.52507 0.0
C1645 C 0.89189 0.4714 0.50986 0.0
C1646 C 0.88012 0.4745 0.49472 0.0
C1647 C 0.88384 0.46151 0.5247 0.0
C1648 C 0.89562 0.45694 0.54061 0.0
C1649 C 0.89241 0.46327 0.55937 0.0
C1650 C 0.90368 0.45922 0.57436 0.0
C1651 C 0.91815 0.44875 0.57077 0.0
C1652 C 0.92132 0.44224 0.55218 0.0
C1653 C 0.91008 0.44624 0.53714 0.0
H1654 H 0.92688 0.44566 0.58239 0.0
H1655 H 0.81849 0.47824 0.43301 0.0
H1656 H 0.38021 0.09896 0.28444 0.0
H1657 H 0.36065 0.12389 0.28365 0.0
H1658 H 0.31535 0.08176 0.25325 0.0
H1659 H 0.33482 0.05667 0.25398 0.0
H1660 H 0.32381 0.11613 0.23687 0.0
H1661 H 0.31045 0.09652 0.29813 0.0
H1662 H 0.31807 0.08914 0.33032 0.0
H1663 H 0.34828 0.14773 0.345 0.0
H1664 H 0.34097 0.15543 0.31287 0.0
H1665 H 0.26235 0.18567 0.24216 0.0
H1666 H 0.27498 0.15575 0.24426 0.0
H1667 H 0.3222 0.18833 0.28061 0.0
H1668 H 0.30943 0.21794 0.27895 0.0
H1669 H 0.3087 0.15566 0.2941 0.0
H1670 H 0.32664 0.17456 0.23327 0.0
H1671 H 0.32107 0.18309 0.20108 0.0
H1672 H 0.28474 0.12754 0.18568 0.0
H1673 H 0.29003 0.1187 0.21782 0.0
C1674 C 0.36605 0.09497 0.27768 0.0
C1675 C 0.35904 0.07589 0.26925 0.0
C1676 C 0.35487 0.10919 0.27733 0.0
C1677 C 0.33653 0.10457 0.26854 0.0
C1678 C 0.32946 0.08553 0.26016 0.0
C1679 C 0.34058 0.07125 0.26061 0.0
C1680 C 0.32516 0.11992 0.26733 0.0
C1681 C 0.32015 0.12455 0.24936 0.0
C1682 C 0.32084 0.13111 0.28367 0.0
C1683 C 0.32528 0.1265 0.30302 0.0
C1684 C 0.31884 0.10779 0.30818 0.0
C1685 C 0.32306 0.10357 0.32644 0.0
C1686 C 0.33366 0.11796 0.3397 0.0
C1687 C 0.34006 0.1366 0.33473 0.0
C1688 C 0.33584 0.14091 0.31651 0.0
C1689 C 0.27541 0.18634 0.25058 0.0
C1690 C 0.28496 0.20401 0.26039 0.0
C1691 C 0.28262 0.16932 0.25173 0.0
C1692 C 0.29958 0.16987 0.2625 0.0
C1693 C 0.30905 0.18756 0.2723 0.0
C1694 C 0.30179 0.20447 0.27128 0.0
C1695 C 0.30772 0.15217 0.26364 0.0
C1696 C 0.31211 0.14707 0.28159 0.0
C1697 C 0.31176 0.14075 0.2473 0.0
C1698 C 0.30855 0.14605 0.228 0.0
C1699 C 0.31735 0.16422 0.22306 0.0
C1700 C 0.31426 0.1691 0.20482 0.0
C1701 C 0.30248 0.15591 0.19138 0.0
C1702 C 0.29382 0.13776 0.19612 0.0
C1703 C 0.29688 0.13279 0.21433 0.0
H1704 H 0.30011 0.15972 0.17727 0.0
H1705 H 0.3369 0.11466 0.35383 0.0
H1706 H 0.31179 0.12384 0.47266 0.0
H1707 H 0.34237 0.11294 0.47207 0.0
H1708 H 0.3241 0.07334 0.51271 0.0
H1709 H 0.29371 0.0839 0.51331 0.0
H1710 H 0.36012 0.09661 0.52192 0.0
H1711 H 0.32393 0.05635 0.46801 0.0
H1712 H 0.30598 0.05071 0.43703 0.0
H1713 H 0.35403 0.08132 0.41189 0.0
H1714 H 0.37221 0.08732 0.44278 0.0
H1715 H 0.42245 0.03153 0.52416 0.0
H1716 H 0.39411 0.04567 0.51991 0.0
H1717 H 0.41852 0.07458 0.47381 0.0
H1718 H 0.44674 0.0601 0.47776 0.0
H1719 H 0.38183 0.06094 0.46567 0.0
H1720 H 0.41904 0.09976 0.5172 0.0
H1721 H 0.43819 0.10696 0.54751 0.0
H1722 H 0.39011 0.08222 0.57647 0.0
H1723 H 0.37073 0.0746 0.54627 0.0
C1724 C 0.31432 0.1128 0.48145 0.0
C1725 C 0.30031 0.10473 0.49302 0.0
C1726 C 0.33174 0.10656 0.48103 0.0
C1727 C 0.33542 0.0923 0.49231 0.0
C1728 C 0.32152 0.08435 0.50391 0.0
C1729 C 0.30412 0.09039 0.50418 0.0
C1730 C 0.35383 0.08573 0.49251 0.0
C1731 C 0.36483 0.0887 0.50966 0.0
C1732 C 0.36029 0.07611 0.4763 0.0
C1733 C 0.34932 0.07255 0.45777 0.0
C1734 C 0.3306 0.06207 0.45592 0.0
C1735 C 0.32041 0.05875 0.43836 0.0
C1736 C 0.32884 0.06572 0.42251 0.0
C1737 C 0.3475 0.07598 0.42419 0.0
C1738 C 0.35775 0.07933 0.44171 0.0
C1739 C 0.42168 0.04078 0.51304 0.0
C1740 C 0.43679 0.04489 0.50141 0.0
C1741 C 0.40556 0.04894 0.51068 0.0
C1742 C 0.40437 0.06151 0.49679 0.0
C1743 C 0.41919 0.06503 0.48469 0.0
C1744 C 0.4353 0.0568 0.487 0.0
C1745 C 0.38782 0.07126 0.49528 0.0
C1746 C 0.37725 0.06901 0.47789 0.0
C1747 C 0.38189 0.08187 0.5112 0.0
C1748 C 0.39347 0.08646 0.52943 0.0
C1749 C 0.41258 0.09572 0.53001 0.0
C1750 C 0.42348 0.0999 0.54717 0.0
C1751 C 0.41538 0.09502 0.5639 0.0
C1752 C 0.39637 0.08598 0.5635 0.0
C1753 C 0.38541 0.08174 0.54636 0.0
H1754 H 0.42384 0.09827 0.57717 0.0
H1755 H 0.32093 0.06312 0.40893 0.0
H1756 H 0.67951 0.56262 0.29037 0.0
H1757 H 0.69947 0.59493 0.29086 0.0
H1758 H 0.65508 0.61382 0.25927 0.0
H1759 H 0.6351 0.58186 0.25874 0.0
H1760 H 0.68989 0.62125 0.24364 0.0
H1761 H 0.6638 0.62991 0.30459 0.0
H1762 H 0.65681 0.62176 0.33667 0.0
H1763 H 0.71633 0.62904 0.35178 0.0
H1764 H 0.72366 0.63697 0.31969 0.0
H1765 H 0.72186 0.72146 0.24583 0.0
H1766 H 0.70343 0.68969 0.25013 0.0
H1767 H 0.74846 0.67964 0.28765 0.0
H1768 H 0.76659 0.712 0.28413 0.0
H1769 H 0.71545 0.66659 0.30083 0.0
H1770 H 0.74206 0.65893 0.2408 0.0
H1771 H 0.74966 0.66686 0.20879 0.0
H1772 H 0.69037 0.65676 0.19174 0.0
H1773 H 0.6824 0.64903 0.22373 0.0
C1774 C 0.67393 0.57373 0.28372 0.0
C1775 C 0.65571 0.56961 0.27449 0.0
C1776 C 0.68533 0.59217 0.28404 0.0
C1777 C 0.67873 0.60672 0.27509 0.0
C1778 C 0.66045 0.60276 0.26622 0.0
C1779 C 0.64902 0.58447 0.26601 0.0
C1780 C 0.69107 0.62584 0.27406 0.0
C1781 C 0.69534 0.63126 0.25613 0.0
C1782 C 0.69866 0.63856 0.29039 0.0
C1783 C 0.69427 0.6338 0.30967 0.0
C1784 C 0.67539 0.62959 0.3147 0.0
C1785 C 0.67137 0.62505 0.33289 0.0
C1786 C 0.68612 0.62482 0.34624 0.0
C1787 C 0.70492 0.62919 0.34142 0.0
C1788 C 0.70902 0.63371 0.32324 0.0
C1789 C 0.72774 0.71258 0.25517 0.0
C1790 C 0.74563 0.71918 0.26468 0.0
C1791 C 0.71727 0.69434 0.25749 0.0
C1792 C 0.72471 0.68208 0.26892 0.0
C1793 C 0.74246 0.6888 0.2787 0.0
C1794 C 0.75284 0.70723 0.27662 0.0
C1795 C 0.71402 0.66219 0.27036 0.0
C1796 C 0.71012 0.65656 0.28833 0.0
C1797 C 0.70689 0.64914 0.25406 0.0
C1798 C 0.71163 0.65355 0.23472 0.0
C1799 C 0.73064 0.65851 0.23026 0.0
C1800 C 0.73501 0.66296 0.21211 0.0
C1801 C 0.72051 0.66236 0.19825 0.0
C1802 C 0.70159 0.65724 0.2025 0.0
C1803 C 0.69714 0.6528 0.22063 0.0
H1804 H 0.72393 0.66582 0.18422 0.0
H1805 H 0.68297 0.62131 0.36032 0.0
H1806 H 0.89446 0.45359 0.74702 0.0
H1807 H 0.87496 0.42124 0.74699 0.0
H1808 H 0.8283 0.44732 0.76625 0.0
H1809 H 0.84774 0.47961 0.76673 0.0
H1810 H 0.83145 0.418 0.78523 0.0
H1811 H 0.82935 0.42843 0.71998 0.0
H1812 H 0.84244 0.43634 0.68973 0.0
H1813 H 0.87062 0.38742 0.68799 0.0
H1814 H 0.8579 0.37937 0.71837 0.0
H1815 H 0.76891 0.3236 0.73132 0.0
H1816 H 0.78634 0.3569 0.73263 0.0
H1817 H 0.82018 0.34847 0.78146 0.0
H1818 H 0.80252 0.31515 0.78046 0.0
H1819 H 0.82217 0.36956 0.72812 0.0
H1820 H 0.83414 0.39173 0.80914 0.0
H1821 H 0.81791 0.38519 0.83823 0.0
H1822 H 0.76421 0.37121 0.80634 0.0
H1823 H 0.78008 0.37792 0.77712 0.0
C1824 C 0.88004 0.45244 0.75122 0.0
C1825 C 0.87266 0.46919 0.75685 0.0
C1826 C 0.8689 0.43394 0.75114 0.0
C1827 C 0.85012 0.43188 0.75647 0.0
C1828 C 0.84276 0.44857 0.76213 0.0
C1829 C 0.8539 0.46703 0.76233 0.0
C1830 C 0.8381 0.41234 0.7562 0.0
C1831 C 0.82944 0.40739 0.77275 0.0
C1832 C 0.83517 0.39864 0.73982 0.0
C1833 C 0.84283 0.40342 0.72154 0.0
C1834 C 0.83846 0.41945 0.71322 0.0
C1835 C 0.84579 0.42394 0.69604 0.0
C1836 C 0.8574 0.41242 0.68697 0.0
C1837 C 0.86165 0.39635 0.69504 0.0
C1838 C 0.85438 0.39181 0.71223 0.0
C1839 C 0.77997 0.32885 0.74244 0.0
C1840 C 0.78435 0.31674 0.7558 0.0
C1841 C 0.78995 0.34789 0.74313 0.0
C1842 C 0.80453 0.3552 0.75716 0.0
C1843 C 0.8088 0.34322 0.77067 0.0
C1844 C 0.79871 0.32418 0.77007 0.0
C1845 C 0.81564 0.37514 0.7572 0.0
C1846 C 0.8242 0.38014 0.74062 0.0
C1847 C 0.81804 0.38906 0.77339 0.0
C1848 C 0.80834 0.38513 0.79092 0.0
C1849 C 0.81886 0.38732 0.80835 0.0
C1850 C 0.80973 0.38358 0.82486 0.0
C1851 C 0.79005 0.37772 0.82412 0.0
C1852 C 0.77946 0.37567 0.80688 0.0
C1853 C 0.78852 0.37941 0.79034 0.0
H1854 H 0.783 0.37482 0.83691 0.0
H1855 H 0.86306 0.41592 0.67367 0.0
H1856 H 0.03188 0.82896 0.07913 0.0
H1857 H 0.0268 0.85264 0.0575 0.0
H1858 H 0.99164 0.87743 0.09715 0.0
H1859 H -0.003 0.85412 0.11907 0.0
H1860 H 0.97703 0.87059 0.05724 0.0
H1861 H 0.03301 0.89951 0.09775 0.0
H1862 H 0.06528 0.90265 0.11233 0.0
H1863 H 0.08758 0.90005 0.05738 0.0
H1864 H 0.05537 0.89644 0.04244 0.0
H1865 H 0.97624 0.96622 0.0352 0.0
H1866 H 0.97615 0.93488 0.04694 0.0
H1867 H 0.02287 0.9262 0.01297 0.0
H1868 H 0.02356 0.95798 0.00192 0.0
H1869 H 0.03145 0.92166 0.04654 0.0
H1870 H 0.97698 0.89633 0.00561 0.0
H1871 H 0.94529 0.89477 0.99025 0.0
H1872 H 0.92062 0.89127 0.04387 0.0
H1873 H 0.95221 0.8931 0.05962 0.0
C1874 C 0.02295 0.83936 0.08316 0.0
C1875 C 0.01489 0.8398 0.10079 0.0
C1876 C 0.02009 0.85286 0.07082 0.0
C1877 C 0.00889 0.86673 0.07581 0.0
C1878 C 0.0003 0.86677 0.0931 0.0
C1879 C 0.00344 0.85353 0.1056 0.0
C1880 C 0.0068 0.8818 0.06342 0.0
C1881 C 0.98886 0.88189 0.05492 0.0
C1882 C 0.02243 0.89606 0.05998 0.0
C1883 C 0.04169 0.89725 0.06896 0.0
C1884 C 0.04472 0.89918 0.08875 0.0
C1885 C 0.06303 0.90115 0.09708 0.0
C1886 C 0.07845 0.9014 0.08578 0.0
C1887 C 0.07561 0.89969 0.06612 0.0
C1888 C 0.05732 0.89764 0.05771 0.0
C1889 C 0.98619 0.95741 0.02991 0.0
C1890 C 2e-05 0.96456 0.01781 0.0
C1891 C 0.98605 0.93941 0.03653 0.0
C1892 C -0.00056 0.92807 0.03077 0.0
C1893 C 0.01244 0.9347 0.01767 0.0
C1894 C 0.01284 0.95285 0.01137 0.0
C1895 C 0.00161 0.91081 0.04035 0.0
C1896 C 0.0196 0.91027 0.04845 0.0
C1897 C 0.98607 0.89611 0.04321 0.0
C1898 C 0.96701 0.89499 0.03382 0.0
C1899 C 0.96482 0.89538 0.01416 0.0
C1900 C 0.94687 0.89442 0.00538 0.0
C1901 C 0.93095 0.89296 0.01608 0.0
C1902 C 0.93296 0.89241 0.0356 0.0
C1903 C 0.95089 0.89338 0.04445 0.0
H1904 H 0.91706 0.89222 0.00926 0.0
H1905 H 0.09263 0.90305 0.09227 0.0
H1906 H 0.95017 0.29298 0.83306 0.0
H1907 H 0.91793 0.28933 0.81958 0.0
H1908 H 0.90117 0.23814 0.8477 0.0
H1909 H 0.93373 0.24161 0.86131 0.0
H1910 H 0.88929 0.23246 0.81009 0.0
H1911 H 0.88591 0.27823 0.86288 0.0
H1912 H 0.89608 0.30769 0.88553 0.0
H1913 H 0.89201 0.34358 0.841 0.0
H1914 H 0.8821 0.31433 0.81799 0.0
H1915 H 0.79378 0.23161 0.77563 0.0
H1916 H 0.82084 0.23354 0.79832 0.0
H1917 H 0.8518 0.28125 0.77234 0.0
H1918 H 0.82477 0.27932 0.74953 0.0
H1919 H 0.8532 0.2864 0.81357 0.0
H1920 H 0.86149 0.23924 0.76069 0.0
H1921 H 0.8508 0.20933 0.73869 0.0
H1922 H 0.84453 0.17548 0.78551 0.0
H1923 H 0.85498 0.20523 0.80779 0.0
C1924 C 0.93968 0.28097 0.83651 0.0
C1925 C 0.94456 0.26752 0.84821 0.0
C1926 C 0.92119 0.279 0.82889 0.0
C1927 C 0.90715 0.26359 0.83281 0.0
C1928 C 0.91185 0.25018 0.84459 0.0
C1929 C 0.93041 0.2522 0.85236 0.0
C1930 C 0.88795 0.26107 0.82352 0.0
C1931 C 0.8812 0.24408 0.81118 0.0
C1932 C 0.87749 0.27633 0.82485 0.0
C1933 C 0.88334 0.29403 0.83866 0.0
C1934 C 0.88729 0.29239 0.85787 0.0
C1935 C 0.893 0.30907 0.87079 0.0
C1936 C 0.89471 0.3275 0.86471 0.0
C1937 C 0.89068 0.32929 0.8457 0.0
C1938 C 0.88498 0.31266 0.83271 0.0
C1939 C 0.80639 0.24249 0.77477 0.0
C1940 C 0.80734 0.25523 0.7608 0.0
C1941 C 0.82175 0.24359 0.78774 0.0
C1942 C 0.83824 0.2575 0.78692 0.0
C1943 C 0.83912 0.27045 0.77316 0.0
C1944 C 0.8238 0.26923 0.76007 0.0
C1945 C 0.85494 0.25807 0.79988 0.0
C1946 C 0.86118 0.27469 0.81282 0.0
C1947 C 0.86481 0.2424 0.7993 0.0
C1948 C 0.85878 0.22449 0.78591 0.0
C1949 C 0.85768 0.22544 0.76629 0.0
C1950 C 0.8517 0.20851 0.75377 0.0
C1951 C 0.84692 0.19052 0.7607 0.0
C1952 C 0.84819 0.18943 0.78016 0.0
C1953 C 0.85415 0.20632 0.79274 0.0
H1954 H 0.84229 0.17743 0.75098 0.0
H1955 H 0.89915 0.34039 0.87473 0.0
H1956 H 0.51509 0.23559 0.60372 0.0
H1957 H 0.51457 0.20489 0.58396 0.0
H1958 H 0.5568 0.19094 0.62236 0.0
H1959 H 0.55692 0.22128 0.64251 0.0
H1960 H 0.53986 0.19082 0.56453 0.0
H1961 H 0.55104 0.1425 0.62359 0.0
H1962 H 0.54382 0.13993 0.65686 0.0
H1963 H 0.49663 0.16865 0.64954 0.0
H1964 H 0.50342 0.17115 0.61618 0.0
H1965 H 0.55176 0.08212 0.54972 0.0
H1966 H 0.55718 0.1147 0.56731 0.0
H1967 H 0.50738 0.12674 0.53853 0.0
H1968 H 0.50171 0.09414 0.52105 0.0
H1969 H 0.52995 0.12776 0.59132 0.0
H1970 H 0.51754 0.1765 0.5335 0.0
H1971 H 0.52239 0.17816 0.49962 0.0
H1972 H 0.56854 0.14744 0.50366 0.0
H1973 H 0.56416 0.14585 0.53761 0.0
C1974 C 0.5242 0.22594 0.60801 0.0
C1975 C 0.53593 0.2308 0.62477 0.0
C1976 C 0.52395 0.20843 0.59665 0.0
C1977 C 0.53548 0.19549 0.60176 0.0
C1978 C 0.54747 0.20048 0.61832 0.0
C1979 C 0.54755 0.21786 0.62981 0.0
C1980 C 0.53493 0.17676 0.58978 0.0
C1981 C 0.53749 0.17702 0.57037 0.0
C1982 C 0.53218 0.15876 0.59743 0.0
C1983 C 0.52789 0.15722 0.61745 0.0
C1984 C 0.5391 0.14822 0.62908 0.0
C1985 C 0.53508 0.14678 0.64795 0.0
C1986 C 0.51982 0.15419 0.65533 0.0
C1987 C 0.5085 0.16299 0.64383 0.0
C1988 C 0.51244 0.16445 0.62495 0.0
C1989 C 0.54216 0.09183 0.54689 0.0
C1990 C 0.52626 0.08557 0.53407 0.0
C1991 C 0.54523 0.11037 0.557 0.0
C1992 C 0.53269 0.12306 0.55417 0.0
C1993 C 0.51728 0.11717 0.5408 0.0
C1994 C 0.51403 0.09854 0.53089 0.0
C1995 C 0.53482 0.14189 0.56617 0.0
C1996 C 0.53248 0.14161 0.58557 0.0
C1997 C 0.53744 0.15979 0.55845 0.0
C1998 C 0.54038 0.16089 0.53808 0.0
C1999 C 0.52877 0.17017 0.52718 0.0
C2000 C 0.53143 0.17109 0.50796 0.0
C2001 C 0.54573 0.16286 0.49948 0.0
C2002 C 0.55743 0.15374 0.51023 0.0
C2003 C 0.55483 0.1528 0.52946 0.0
H2004 H 0.54776 0.16358 0.48459 0.0
H2005 H 0.51674 0.15307 0.66995 0.0
H2006 H 0.53541 0.75882 0.33137 0.0
H2007 H 0.56289 0.75714 0.31285 0.0
H2008 H 0.59167 0.7385 0.36006 0.0
H2009 H 0.56447 0.74131 0.37905 0.0
H2010 H 0.61556 0.76233 0.34533 0.0
H2011 H 0.57105 0.70644 0.31902 0.0
H2012 H 0.54045 0.68738 0.30512 0.0
H2013 H 0.54467 0.72009 0.25745 0.0
H2014 H 0.57519 0.73953 0.27118 0.0
H2015 H 0.68655 0.73244 0.28989 0.0
H2016 H 0.65726 0.72848 0.30642 0.0
H2017 H 0.63457 0.76513 0.27012 0.0
H2018 H 0.66407 0.7694 0.2536 0.0
H2019 H 0.60809 0.72993 0.27935 0.0
H2020 H 0.65379 0.78628 0.3088 0.0
H2021 H 0.68556 0.80167 0.32301 0.0
H2022 H 0.67961 0.76305 0.36603 0.0
H2023 H 0.64793 0.74719 0.35187 0.0
C2024 C 0.5476 0.75435 0.33779 0.0
C2025 C 0.54782 0.75009 0.35659 0.0
C2026 C 0.56326 0.75324 0.32714 0.0
C2027 C 0.57922 0.74721 0.33485 0.0
C2028 C 0.57951 0.7431 0.35374 0.0
C2029 C 0.56398 0.74468 0.36457 0.0
C2030 C 0.59576 0.74575 0.32334 0.0
C2031 C 0.61387 0.75495 0.33103 0.0
C2032 C 0.59369 0.73624 0.30458 0.0
C2033 C 0.57534 0.72456 0.29622 0.0
C2034 C 0.56539 0.70966 0.30564 0.0
C2035 C 0.54807 0.69878 0.29778 0.0
C2036 C 0.5406 0.70256 0.28044 0.0
C2037 C 0.55047 0.7172 0.27089 0.0
C2038 C 0.56779 0.72814 0.2787 0.0
C2039 C 0.6752 0.73938 0.2852 0.0
C2040 C 0.67758 0.75138 0.2706 0.0
C2041 C 0.65851 0.7371 0.29466 0.0
C2042 C 0.64392 0.74668 0.28957 0.0
C2043 C 0.64575 0.75765 0.2742 0.0
C2044 C 0.66256 0.7601 0.26483 0.0
C2045 C 0.62754 0.74663 0.30136 0.0
C2046 C 0.60958 0.73717 0.29371 0.0
C2047 C 0.62979 0.75544 0.3203 0.0
C2048 C 0.64858 0.76541 0.32915 0.0
C2049 C 0.65931 0.78098 0.32122 0.0
C2050 C 0.67729 0.7898 0.32927 0.0
C2051 C 0.6846 0.78329 0.34537 0.0
C2052 C 0.67392 0.76805 0.35354 0.0
C2053 C 0.65595 0.75915 0.34551 0.0
H2054 H 0.69854 0.79008 0.35153 0.0
H2055 H 0.52719 0.69411 0.27437 0.0
H2056 H 0.99414 0.19429 0.40894 0.0
H2057 H 0.98636 0.1671 0.4276 0.0
H2058 H 0.0145 0.20303 0.47724 0.0
H2059 H 0.02262 0.23026 0.45856 0.0
H2060 H 0.02616 0.16884 0.47218 0.0
H2061 H 0.96589 0.18905 0.47279 0.0
H2062 H 0.9373 0.19824 0.45883 0.0
H2063 H 0.92266 0.14208 0.42624 0.0
H2064 H 0.95129 0.13264 0.43979 0.0
H2065 H 0.00358 0.08989 0.5257 0.0
H2066 H 0.0036 0.12233 0.51626 0.0
H2067 H 0.97474 0.0965 0.46277 0.0
H2068 H 0.97406 0.06425 0.47221 0.0
H2069 H 0.96231 0.12837 0.47427 0.0
H2070 H 0.02334 0.10988 0.46805 0.0
H2071 H 0.05206 0.0991 0.4797 0.0
H2072 H 0.06561 0.15044 0.51979 0.0
H2073 H 0.03679 0.16137 0.50856 0.0
C2074 C -0.00153 0.1965 0.42388 0.0
C2075 C 0.00905 0.21441 0.43227 0.0
C2076 C 0.99392 0.18096 0.43456 0.0
C2077 C -0.00031 0.18309 0.45386 0.0
C2078 C 0.00987 0.2011 0.46238 0.0
C2079 C 0.01446 0.21664 0.45169 0.0
C2080 C -0.00365 0.16608 0.46473 0.0
C2081 C 0.01213 0.16025 0.47303 0.0
C2082 C 0.97811 0.15456 0.46535 0.0
C2083 C 0.96082 0.16019 0.45724 0.0
C2084 C 0.95665 0.17871 0.46255 0.0
C2085 C 0.94042 0.18395 0.45472 0.0
C2086 C 0.92819 0.17077 0.44163 0.0
C2087 C 0.93214 0.15228 0.43637 0.0
C2088 C 0.94836 0.14697 0.44415 0.0
C2089 C -0.00307 0.09112 0.51207 0.0
C2090 C 0.98907 0.07444 0.49963 0.0
C2091 C -0.00299 0.10967 0.50667 0.0
C2092 C 0.98949 0.11181 0.48866 0.0
C2093 C 0.98065 0.09521 0.47672 0.0
C2094 C 0.98038 0.07673 0.48214 0.0
C2095 C 0.99213 0.13106 0.48146 0.0
C2096 C 0.97626 0.13724 0.47378 0.0
C2097 C 0.01032 0.14272 0.48105 0.0
C2098 C 0.02781 0.13633 0.48762 0.0
C2099 C 0.03239 0.11881 0.47943 0.0
C2100 C 0.04868 0.11268 0.48595 0.0
C2101 C 0.06062 0.12406 0.50052 0.0
C2102 C 0.05632 0.14163 0.50854 0.0
C2103 C 0.04001 0.1478 0.5021 0.0
H2104 H 0.07322 0.11928 0.50556 0.0
H2105 H 0.91564 0.17486 0.43559 0.0
H2106 H 0.56977 0.27143 0.12736 0.0
H2107 H 0.5984 0.26444 0.14297 0.0
H2108 H 0.56878 0.25613 0.19376 0.0
H2109 H 0.54056 0.26387 0.17856 0.0
H2110 H 0.60086 0.27691 0.20309 0.0
H2111 H 0.57979 0.21755 0.16332 0.0
H2112 H 0.56906 0.19632 0.13359 0.0
H2113 H 0.62242 0.21583 0.11048 0.0
H2114 H 0.63337 0.23744 0.13996 0.0
H2115 H 0.68083 0.22536 0.232 0.0
H2116 H 0.64924 0.22384 0.21641 0.0
H2117 H 0.66797 0.28056 0.1987 0.0
H2118 H 0.69959 0.28174 0.21335 0.0
H2119 H 0.63958 0.23093 0.17492 0.0
H2120 H 0.63023 0.30411 0.21622 0.0
H2121 H 0.63696 0.3221 0.24818 0.0
H2122 H 0.63968 0.26882 0.27153 0.0
H2123 H 0.63263 0.25048 0.23981 0.0
C2124 C 0.56943 0.26812 0.14186 0.0
C2125 C 0.553 0.26831 0.15178 0.0
C2126 C 0.58572 0.26395 0.15071 0.0
C2127 C 0.58569 0.25951 0.16949 0.0
C2128 C 0.56919 0.25954 0.17929 0.0
C2129 C 0.55306 0.264 0.17058 0.0
C2130 C 0.60309 0.25589 0.17935 0.0
C2131 C 0.60921 0.26676 0.19691 0.0
C2132 C 0.61383 0.24231 0.17155 0.0
C2133 C 0.60734 0.22926 0.15381 0.0
C2134 C 0.58919 0.21744 0.15185 0.0
C2135 C 0.58307 0.20531 0.13505 0.0
C2136 C 0.59503 0.20476 0.12015 0.0
C2137 C 0.61316 0.2163 0.12203 0.0
C2138 C 0.61933 0.22847 0.13879 0.0
C2139 C 0.6782 0.23731 0.2245 0.0
C2140 C 0.69255 0.2536 0.22374 0.0
C2141 C 0.66025 0.23643 0.21564 0.0
C2142 C 0.65638 0.25214 0.20654 0.0
C2143 C 0.67075 0.26835 0.20572 0.0
C2144 C 0.68878 0.26895 0.21401 0.0
C2145 C 0.63724 0.2522 0.19831 0.0
C2146 C 0.63097 0.24086 0.18105 0.0
C2147 C 0.62599 0.26487 0.20661 0.0
C2148 C 0.63115 0.27596 0.22559 0.0
C2149 C 0.6323 0.29624 0.22818 0.0
C2150 C 0.63608 0.30649 0.24626 0.0
C2151 C 0.63865 0.29659 0.26188 0.0
C2152 C 0.63767 0.27646 0.25942 0.0
C2153 C 0.63386 0.26615 0.24138 0.0
H2154 H 0.6415 0.30453 0.27588 0.0
H2155 H 0.59028 0.19535 0.10716 0.0
H2156 H 0.53703 0.8422 0.88679 0.0
H2157 H 0.53471 0.87306 0.90465 0.0
H2158 H 0.52842 0.84512 0.95565 0.0
H2159 H 0.53003 0.8139 0.93767 0.0
H2160 H 0.50265 0.86635 0.95256 0.0
H2161 H 0.57002 0.8777 0.94678 0.0
H2162 H 0.59941 0.87942 0.92992 0.0
H2163 H 0.58288 0.92237 0.89751 0.0
H2164 H 0.55328 0.92074 0.91402 0.0
H2165 H 0.51217 0.95184 0.01654 0.0
H2166 H 0.51836 0.92212 -0.00112 0.0
H2167 H 0.51772 0.94883 0.94715 0.0
H2168 H 0.5118 0.97878 0.96493 0.0
H2169 H 0.54721 0.92873 0.95048 0.0
H2170 H 0.48024 0.91775 0.95658 0.0
H2171 H 0.45123 0.9167 0.97391 0.0
H2172 H 0.46698 0.87287 0.00559 0.0
H2173 H 0.4964 0.87406 0.98884 0.0
C2174 C 0.53543 0.84262 0.90187 0.0
C2175 C 0.5337 0.82555 0.91081 0.0
C2176 C 0.53419 0.86035 0.91209 0.0
C2177 C 0.53159 0.8615 0.93156 0.0
C2178 C 0.53041 0.84459 0.94064 0.0
C2179 C 0.5314 0.82677 0.93036 0.0
C2180 C 0.52888 0.88004 0.94216 0.0
C2181 C 0.5126 0.87991 0.95236 0.0
C2182 C 0.54151 0.89789 0.9414 0.0
C2183 C 0.55936 0.89897 0.93153 0.0
C2184 C 0.57259 0.88742 0.93597 0.0
C2185 C 0.5893 0.88839 0.92649 0.0
C2186 C 0.59299 0.90097 0.91263 0.0
C2187 C 0.58 0.91263 0.90824 0.0
C2188 C 0.56327 0.9117 0.91768 0.0
C2189 C 0.51336 0.95136 0.0014 0.0
C2190 C 0.51124 0.96744 0.99199 0.0
C2191 C 0.51686 0.93439 0.99134 0.0
C2192 C 0.51826 0.93322 0.97169 0.0
C2193 C 0.51659 0.94944 0.96231 0.0
C2194 C 0.51303 0.96644 0.9724 0.0
C2195 C 0.52116 0.91488 0.96099 0.0
C2196 C 0.53738 0.9151 0.95071 0.0
C2197 C 0.50849 0.8971 0.96167 0.0
C2198 C 0.49064 0.89613 0.97157 0.0
C2199 C 0.47761 0.908 0.96735 0.0
C2200 C 0.46107 0.90736 0.97705 0.0
C2201 C 0.45724 0.89472 0.99082 0.0
C2202 C 0.46996 0.88267 0.99492 0.0
C2203 C 0.48659 0.88333 0.98534 0.0
H2204 H 0.44442 0.89424 -0.0017 0.0
H2205 H 0.60593 0.90169 0.9053 0.0
H2206 H 0.95061 0.74472 0.6862 0.0
H2207 H 0.91966 0.74765 0.69747 0.0
H2208 H 0.91506 0.79131 0.66027 0.0
H2209 H 0.94624 0.78851 0.64883 0.0
H2210 H 0.9073 0.80212 0.69762 0.0
H2211 H 0.88779 0.74832 0.64986 0.0
H2212 H 0.8888 0.71645 0.63224 0.0
H2213 H 0.87715 0.68866 0.68237 0.0
H2214 H 0.87635 0.72041 0.70037 0.0
H2215 H 0.8127 0.80231 0.7258 0.0
H2216 H 0.84102 0.80203 0.70803 0.0
H2217 H 0.85144 0.75178 0.73372 0.0
H2218 H 0.82281 0.75156 0.75092 0.0
H2219 H 0.85445 0.74593 0.69755 0.0
H2220 H 0.87805 0.79927 0.74621 0.0
H2221 H 0.87815 0.83091 0.76485 0.0
H2222 H 0.88305 0.85919 0.71431 0.0
H2223 H 0.88275 0.82766 0.69534 0.0
C2224 C 0.94299 0.75484 0.68026 0.0
C2225 C 0.9509 0.76642 0.66665 0.0
C2226 C 0.92526 0.75642 0.68666 0.0
C2227 C 0.91507 0.76959 0.6796 0.0
C2228 C 0.92274 0.78102 0.66582 0.0
C2229 C 0.94048 0.77933 0.65927 0.0
C2230 C 0.89686 0.77196 0.68747 0.0
C2231 C 0.89554 0.78997 0.6973 0.0
C2232 C 0.88177 0.75596 0.68732 0.0
C2233 C 0.88212 0.73679 0.6765 0.0
C2234 C 0.88558 0.73544 0.65717 0.0
C2235 C 0.88609 0.71738 0.6471 0.0
C2236 C 0.88307 0.70054 0.65619 0.0
C2237 C 0.87949 0.70172 0.67535 0.0
C2238 C 0.87898 0.71974 0.68548 0.0
C2239 C 0.8212 0.79138 0.72784 0.0
C2240 C 0.81558 0.77694 0.73971 0.0
C2241 C 0.83738 0.79124 0.71769 0.0
C2242 C 0.8484 0.77692 0.7196 0.0
C2243 C 0.84308 0.76288 0.73192 0.0
C2244 C 0.82678 0.76282 0.7418 0.0
C2245 C 0.86509 0.77595 0.7083 0.0
C2246 C 0.86608 0.75819 0.69772 0.0
C2247 C 0.87994 0.79214 0.70793 0.0
C2248 C 0.88016 0.81108 0.71934 0.0
C2249 C 0.879 0.81222 0.73906 0.0
C2250 C 0.87912 0.83013 0.74969 0.0
C2251 C 0.88054 0.84704 0.74077 0.0
C2252 C 0.88191 0.84608 0.7212 0.0
C2253 C 0.88178 0.82819 0.7105 0.0
H2254 H 0.88064 0.8609 0.74902 0.0
H2255 H 0.88348 0.68658 0.64837 0.0
H2256 H 0.11025 0.99319 0.82893 0.0
H2257 H 0.09723 0.99316 0.86015 0.0
H2258 H 0.04927 0.01521 0.83884 0.0
H2259 H 0.06223 0.01562 0.80788 0.0
H2260 H 0.06238 0.0346 0.87189 0.0
H2261 H 0.04604 0.96704 0.8459 0.0
H2262 H 0.05264 0.93556 0.83185 0.0
H2263 H 0.08866 0.93292 0.88077 0.0
H2264 H 0.08245 0.96452 0.89501 0.0
H2265 H -0.00282 0.98689 0.94251 0.0
H2266 H 0.01417 0.98364 0.9136 0.0
H2267 H 0.06049 0.02803 0.93896 0.0
H2268 H 0.04346 0.03156 0.96772 0.0
H2269 H 0.04911 0.97521 0.90464 0.0
H2270 H 0.07428 0.05776 0.90559 0.0
H2271 H 0.06545 0.08823 0.91966 0.0
H2272 H 0.00738 0.05943 0.91892 0.0
H2273 H 0.01581 0.0289 0.90457 0.0
C2274 C 0.0969 -0.00204 0.83088 0.0
C2275 C 0.0873 0.00441 0.81588 0.0
C2276 C 0.08946 -0.00209 0.84873 0.0
C2277 C 0.07223 0.00412 0.85181 0.0
C2278 C 0.06263 0.01045 0.83683 0.0
C2279 C 0.07006 0.0106 0.81908 0.0
C2280 C 0.06409 0.0042 0.87061 0.0
C2281 C 0.05958 0.02162 0.87906 0.0
C2282 C 0.06026 0.98725 0.87993 0.0
C2283 C 0.06394 0.96823 0.87142 0.0
C2284 C 0.05548 0.95981 0.8536 0.0
C2285 C 0.05913 0.94194 0.84561 0.0
C2286 C 0.07111 0.93227 0.85539 0.0
C2287 C 0.07942 0.94044 0.8732 0.0
C2288 C 0.07582 0.95832 0.88124 0.0
C2289 C 0.01107 -0.0042 0.94195 0.0
C2290 C 0.01894 0.00961 0.95722 0.0
C2291 C 0.0208 0.99384 0.92551 0.0
C2292 C 0.03848 0.00573 0.9241 0.0
C2293 C 0.04677 0.01886 0.93971 0.0
C2294 C 0.03704 0.02084 0.95612 0.0
C2295 C 0.04749 0.00557 0.90581 0.0
C2296 C 0.05213 0.9882 0.89749 0.0
C2297 C 0.05113 0.02247 0.89642 0.0
C2298 C 0.04574 0.041 0.90418 0.0
C2299 C 0.05961 0.05798 0.9083 0.0
C2300 C 0.05468 0.07525 0.91634 0.0
C2301 C 0.03588 0.07574 0.92025 0.0
C2302 C 0.02194 0.05901 0.91595 0.0
C2303 C 0.0268 0.04172 0.90785 0.0
H2304 H 0.03211 0.08909 0.92657 0.0
H2305 H 0.07392 0.91844 0.84918 0.0
H2306 H 0.72737 0.32541 0.53561 0.0
H2307 H 0.73173 0.30258 0.55822 0.0
H2308 H 0.77702 0.34518 0.58811 0.0
H2309 H 0.77226 0.36836 0.56593 0.0
H2310 H 0.75861 0.28492 0.57196 0.0
H2311 H 0.77229 0.34484 0.63521 0.0
H2312 H 0.76694 0.37818 0.64417 0.0
H2313 H 0.71844 0.36767 0.60459 0.0
H2314 H 0.72336 0.33419 0.59562 0.0
H2315 H 0.77807 0.2525 0.66375 0.0
H2316 H 0.77818 0.26527 0.633 0.0
H2317 H 0.72255 0.27839 0.64103 0.0
H2318 H 0.72277 0.26656 0.67198 0.0
H2319 H 0.7487 0.31022 0.63768 0.0
H2320 H 0.72966 0.24523 0.60553 0.0
H2321 H 0.73261 0.21105 0.5971 0.0
H2322 H 0.78664 0.22974 0.57494 0.0
H2323 H 0.78413 0.26405 0.58348 0.0
C2324 C 0.73843 0.32982 0.54686 0.0
C2325 C 0.74921 0.34878 0.54929 0.0
C2326 C 0.74099 0.31671 0.55968 0.0
C2327 C 0.75447 0.32232 0.57501 0.0
C2328 C 0.7663 0.34071 0.57655 0.0
C2329 C 0.76354 0.35394 0.56392 0.0
C2330 C 0.75448 0.3099 0.59049 0.0
C2331 C 0.75649 0.29042 0.58636 0.0
C2332 C 0.75155 0.31706 0.60924 0.0
C2333 C 0.74838 0.33713 0.61455 0.0
C2334 C 0.76049 0.34966 0.62844 0.0
C2335 C 0.75752 0.36857 0.63353 0.0
C2336 C 0.74242 0.37507 0.62489 0.0
C2337 C 0.73019 0.36265 0.61121 0.0
C2338 C 0.73307 0.34371 0.60611 0.0
C2339 C 0.76567 0.25759 0.65863 0.0
C2340 C 0.75052 0.25886 0.67019 0.0
C2341 C 0.76573 0.26482 0.64109 0.0
C2342 C 0.75048 0.273 0.63493 0.0
C2343 C 0.73456 0.2724 0.64571 0.0
C2344 C 0.73466 0.26558 0.66331 0.0
C2345 C 0.75218 0.28506 0.61913 0.0
C2346 C 0.75079 0.30464 0.62329 0.0
C2347 C 0.75529 0.27783 0.6005 0.0
C2348 C 0.75679 0.25721 0.59533 0.0
C2349 C 0.74225 0.24206 0.59902 0.0
C2350 C 0.74383 0.22265 0.59418 0.0
C2351 C 0.75983 0.21822 0.58554 0.0
C2352 C 0.77427 0.23319 0.58166 0.0
C2353 C 0.77276 0.25262 0.58648 0.0
H2354 H 0.76102 0.20319 0.5818 0.0
H2355 H 0.74015 0.38973 0.62883 0.0
H2356 H 0.43055 0.00974 0.33715 0.0
H2357 H 0.44231 0.02169 0.36977 0.0
H2358 H 0.43764 0.08007 0.35984 0.0
H2359 H 0.42498 0.06802 0.32725 0.0
H2360 H 0.47749 0.06408 0.37277 0.0
H2361 H 0.41698 0.07768 0.3888 0.0
H2362 H 0.38222 0.0715 0.38996 0.0
H2363 H 0.3845 0.02163 0.41923 0.0
H2364 H 0.41925 0.02727 0.41792 0.0
H2365 H 0.5233 0.06982 0.46484 0.0
H2366 H 0.50469 0.08045 0.43953 0.0
H2367 H 0.46389 0.02682 0.43699 0.0
H2368 H 0.48192 0.01666 0.46248 0.0
H2369 H 0.44588 0.05488 0.43249 0.0
H2370 H 0.50236 0.03425 0.40669 0.0
H2371 H 0.53688 0.0369 0.40457 0.0
H2372 H 0.54172 0.09615 0.39278 0.0
H2373 H 0.50722 0.09386 0.39501 0.0
C2374 C 0.43167 0.02505 0.34203 0.0
C2375 C 0.42697 0.03799 0.32976 0.0
C2376 C 0.43824 0.03182 0.36065 0.0
C2377 C 0.44059 0.05168 0.36715 0.0
C2378 C 0.43557 0.06465 0.35508 0.0
C2379 C 0.42845 0.05776 0.33654 0.0
C2380 C 0.45081 0.05867 0.38564 0.0
C2381 C 0.47063 0.06277 0.38597 0.0
C2382 C 0.44171 0.05659 0.40265 0.0
C2383 C 0.42075 0.0528 0.40306 0.0
C2384 C 0.41006 0.06522 0.39523 0.0
C2385 C 0.39035 0.06186 0.39598 0.0
C2386 C 0.38115 0.04614 0.40461 0.0
C2387 C 0.39164 0.03378 0.41252 0.0
C2388 C 0.41135 0.03706 0.41178 0.0
C2389 C 0.51031 0.06043 0.45883 0.0
C2390 C 0.50406 0.04239 0.46539 0.0
C2391 C 0.49967 0.06651 0.44448 0.0
C2392 C 0.48294 0.05438 0.43626 0.0
C2393 C 0.47663 0.03653 0.44317 0.0
C2394 C 0.48705 0.03063 0.45762 0.0
C2395 C 0.47259 0.05905 0.41945 0.0
C2396 C 0.45279 0.05709 0.41945 0.0
C2397 C 0.48166 0.06262 0.4026 0.0
C2398 C 0.50233 0.06398 0.40127 0.0
C2399 C 0.51083 0.04787 0.40376 0.0
C2400 C 0.53037 0.0493 0.40253 0.0
C2401 C 0.5415 0.06671 0.39862 0.0
C2402 C 0.53309 0.0827 0.39587 0.0
C2403 C 0.51356 0.08135 0.39712 0.0
H2404 H 0.55662 0.06779 0.39766 0.0
H2405 H 0.3659 0.04357 0.40519 0.0
H2406 H 0.77381 0.69987 0.04066 0.0
H2407 H 0.77448 0.7218 0.06997 0.0
H2408 H 0.7273 0.68264 0.08844 0.0
H2409 H 0.72657 0.66068 0.05942 0.0
H2410 H 0.72391 0.72202 0.09447 0.0
H2411 H 0.77043 0.68109 0.10464 0.0
H2412 H 0.79902 0.66773 0.09719 0.0
H2413 H 0.83246 0.72546 0.10403 0.0
H2414 H 0.80399 0.73917 0.11127 0.0
H2415 H 0.72351 0.73689 0.19322 0.0
H2416 H 0.72403 0.72577 0.15974 0.0
H2417 H 0.77683 0.76558 0.1569 0.0
H2418 H 0.77669 0.77644 0.19065 0.0
H2419 H 0.77947 0.73156 0.14049 0.0
H2420 H 0.73462 0.77258 0.13507 0.0
H2421 H 0.7065 0.78682 0.14228 0.0
H2422 H 0.67046 0.73128 0.12585 0.0
H2423 H 0.69839 0.71663 0.1188 0.0
C2424 C 0.76352 0.696 0.05093 0.0
C2425 C 0.75023 0.67846 0.04778 0.0
C2426 C 0.76393 0.70853 0.06764 0.0
C2427 C 0.75097 0.70378 0.08136 0.0
C2428 C 0.73739 0.68658 0.078 0.0
C2429 C 0.73709 0.67398 0.06145 0.0
C2430 C 0.75189 0.71616 0.09965 0.0
C2431 C 0.736 0.7241 0.1046 0.0
C2432 C 0.76796 0.71942 0.11253 0.0
C2433 C 0.78506 0.71116 0.10825 0.0
C2434 C 0.78385 0.69094 0.10438 0.0
C2435 C 0.80004 0.6833 0.10023 0.0
C2436 C 0.81754 0.69574 0.10007 0.0
C2437 C 0.81889 0.71584 0.10411 0.0
C2438 C 0.80274 0.72355 0.10825 0.0
C2439 C 0.73512 0.74351 0.18546 0.0
C2440 C 0.75007 0.75753 0.19464 0.0
C2441 C 0.73534 0.7372 0.16624 0.0
C2442 C 0.75035 0.74501 0.15569 0.0
C2443 C 0.76509 0.75936 0.16473 0.0
C2444 C 0.76496 0.76557 0.18402 0.0
C2445 C 0.75123 0.73708 0.13564 0.0
C2446 C 0.76747 0.72992 0.13032 0.0
C2447 C 0.73554 0.73474 0.12234 0.0
C2448 C 0.71864 0.74348 0.12651 0.0
C2449 C 0.72072 0.76337 0.13312 0.0
C2450 C 0.7048 0.77152 0.13716 0.0
C2451 C 0.68671 0.75995 0.13455 0.0
C2452 C 0.68449 0.74022 0.12786 0.0
C2453 C 0.70036 0.73199 0.12381 0.0
H2454 H 0.6744 0.76629 0.13768 0.0
H2455 H 0.83005 0.6898 0.09686 0.0
H2456 H 0.08219 -0.0003 0.71837 0.0
H2457 H 0.07161 0.00929 0.68831 0.0
H2458 H 0.12374 -0.00016 0.66453 0.0
H2459 H 0.13469 0.99063 0.69478 0.0
H2460 H 0.09297 0.04151 0.67014 0.0
H2461 H 0.10804 0.9802 0.61655 0.0
H2462 H 0.10936 0.94522 0.61424 0.0
H2463 H 0.06919 0.9374 0.65692 0.0
H2464 H 0.06749 0.97226 0.65933 0.0
H2465 H 0.07047 0.0267 0.55879 0.0
H2466 H 0.08888 0.02234 0.58717 0.0
H2467 H 0.04791 0.04405 0.62201 0.0
H2468 H 0.02986 0.04897 0.59374 0.0
H2469 H 0.0771 -0.00253 0.61026 0.0
H2470 H 0.06588 0.06084 0.66596 0.0
H2471 H 0.06523 0.0959 0.66761 0.0
H2472 H 0.0994 0.10052 0.61977 0.0
H2473 H 0.10049 0.06556 0.61799 0.0
C2474 C 0.09133 -0.00056 0.7067 0.0
C2475 C 0.1093 0.99448 0.70893 0.0
C2476 C 0.0853 0.00502 0.68959 0.0
C2477 C 0.09694 0.00532 0.67431 0.0
C2478 C 0.11458 -0.00034 0.67621 0.0
C2479 C 0.12078 0.9944 0.69345 0.0
C2480 C 0.09086 0.01228 0.65663 0.0
C2481 C 0.08934 0.03191 0.65704 0.0
C2482 C 0.08687 -0.00015 0.63949 0.0
C2483 C 0.08788 0.9789 0.63831 0.0
C2484 C 0.09952 0.97101 0.62545 0.0
C2485 C 0.10032 0.95121 0.62411 0.0
C2486 C 0.08945 0.93912 0.6355 0.0
C2487 C 0.07771 0.9468 0.6482 0.0
C2488 C 0.07686 0.9666 0.6496 0.0
C2489 C 0.06575 0.0311 0.57254 0.0
C2490 C 0.04873 0.03809 0.57412 0.0
C2491 C 0.07621 0.02851 0.58873 0.0
C2492 C 0.06979 0.03282 0.60675 0.0
C2493 C 0.05336 0.0409 0.60832 0.0
C2494 C 0.043 0.04367 0.59214 0.0
C2495 C 0.07888 0.02679 0.62368 0.0
C2496 C 0.08098 0.00727 0.62321 0.0
C2497 C 0.08361 0.03942 0.64072 0.0
C2498 C 0.08312 0.06051 0.64175 0.0
C2499 C 0.07332 0.06935 0.65584 0.0
C2500 C 0.07286 0.08921 0.65679 0.0
C2501 C 0.08222 0.10042 0.64377 0.0
C2502 C 0.09209 0.0918 0.6298 0.0
C2503 C 0.09261 0.07195 0.6288 0.0
H2504 H 0.08184 0.11579 0.64453 0.0
H2505 H 0.0901 0.9238 0.63444 0.0
H2506 H 0.73244 0.4014 0.43351 0.0
H2507 H 0.73472 0.38185 0.40344 0.0
H2508 H 0.71655 0.32932 0.42927 0.0
H2509 H 0.71516 0.34877 0.45945 0.0
H2510 H 0.74606 0.32584 0.41192 0.0
H2511 H 0.68863 0.3469 0.39514 0.0
H2512 H 0.66721 0.36986 0.39039 0.0
H2513 H 0.70377 0.39621 0.35048 0.0
H2514 H 0.72559 0.37363 0.35522 0.0
H2515 H 0.731 0.26238 0.32372 0.0
H2516 H 0.72615 0.28101 0.35371 0.0
H2517 H 0.75866 0.33291 0.33569 0.0
H2518 H 0.76397 0.31442 0.30608 0.0
H2519 H 0.72117 0.33589 0.34852 0.0
H2520 H 0.77894 0.31513 0.36689 0.0
H2521 H 0.79914 0.29083 0.37073 0.0
H2522 H 0.75963 0.26236 0.40702 0.0
H2523 H 0.73903 0.28633 0.40313 0.0
C2524 C 0.7286 0.38569 0.43262 0.0
C2525 C 0.72374 0.37656 0.44876 0.0
C2526 C 0.72985 0.37452 0.41543 0.0
C2527 C 0.72575 0.35408 0.41405 0.0
C2528 C 0.71993 0.34504 0.43 0.0
C2529 C 0.71908 0.35616 0.44722 0.0
C2530 C 0.72899 0.34204 0.39655 0.0
C2531 C 0.74029 0.32786 0.39812 0.0
C2532 C 0.72189 0.34492 0.37843 0.0
C2533 C 0.70889 0.35871 0.37574 0.0
C2534 C 0.69223 0.35773 0.38551 0.0
C2535 C 0.67999 0.37066 0.38279 0.0
C2536 C 0.68416 0.38453 0.3702 0.0
C2537 C 0.70058 0.38549 0.36027 0.0
C2538 C 0.71289 0.37263 0.36297 0.0
C2539 C 0.73736 0.27768 0.32635 0.0
C2540 C 0.74782 0.28697 0.31263 0.0
C2541 C 0.73454 0.28828 0.34338 0.0
C2542 C 0.74198 0.30829 0.34673 0.0
C2543 C 0.75277 0.31748 0.33324 0.0
C2544 C 0.75587 0.30686 0.31641 0.0
C2545 C 0.73803 0.31986 0.36408 0.0
C2546 C 0.72671 0.33391 0.36242 0.0
C2547 C 0.74491 0.31675 0.3821 0.0
C2548 C 0.75734 0.30239 0.38454 0.0
C2549 C 0.77447 0.30358 0.37554 0.0
C2550 C 0.78601 0.28989 0.37775 0.0
C2551 C 0.78065 0.27503 0.38907 0.0
C2552 C 0.76375 0.27386 0.39823 0.0
C2553 C 0.75214 0.2875 0.39604 0.0
H2554 H 0.7896 0.26444 0.39077 0.0
H2555 H 0.67465 0.39451 0.36809 0.0
H2556 H 0.45386 0.03813 0.23364 0.0
H2557 H 0.47156 0.0395 0.20507 0.0
H2558 H 0.41907 0.031 0.17089 0.0
H2559 H 0.40132 0.02922 0.19926 0.0
H2560 H 0.44117 0.00796 0.15648 0.0
H2561 H 0.44859 0.07583 0.18013 0.0
H2562 H 0.45768 0.10476 0.20367 0.0
H2563 H 0.51538 0.09643 0.20559 0.0
H2564 H 0.50657 0.06727 0.18222 0.0
H2565 H 0.46516 0.04196 0.07081 0.0
H2566 H 0.45596 0.04423 0.10343 0.0
H2567 H 0.50948 0.03104 0.12218 0.0
H2568 H 0.51874 0.02836 0.0893 0.0
H2569 H 0.49107 0.06381 0.14577 0.0
H2570 H 0.48243 0.99567 0.12048 0.0
H2571 H 0.47215 0.96832 0.09538 0.0
H2572 H 0.41521 0.9789 0.09573 0.0
H2573 H 0.42524 0.00652 0.12064 0.0
C2574 C 0.44611 0.0366 0.22003 0.0
C2575 C 0.4262 0.03353 0.21867 0.0
C2576 C 0.45625 0.03748 0.20374 0.0
C2577 C 0.44663 0.03548 0.18587 0.0
C2578 C 0.42677 0.03252 0.18454 0.0
C2579 C 0.41665 0.03154 0.20076 0.0
C2580 C 0.45707 0.03596 0.16841 0.0
C2581 C 0.45204 0.02022 0.15419 0.0
C2582 C 0.47157 0.05175 0.16554 0.0
C2583 C 0.47688 0.06923 0.17961 0.0
C2584 C 0.46318 0.08006 0.1857 0.0
C2585 C 0.46829 0.09652 0.19899 0.0
C2586 C 0.48709 0.10239 0.20617 0.0
C2587 C 0.50082 0.09184 0.20004 0.0
C2588 C 0.49578 0.07535 0.18678 0.0
C2589 C 0.47512 0.03986 0.08189 0.0
C2590 C 0.49257 0.03477 0.07758 0.0
C2591 C 0.46986 0.04121 0.10049 0.0
C2592 C 0.48203 0.0377 0.11507 0.0
C2593 C 0.49998 0.03384 0.11103 0.0
C2594 C 0.5052 0.03226 0.09231 0.0
C2595 C 0.47488 0.036 0.13399 0.0
C2596 C 0.48047 0.05145 0.14837 0.0
C2597 C 0.46077 0.02005 0.13703 0.0
C2598 C 0.45462 0.00325 0.12229 0.0
C2599 C 0.46775 0.99226 0.11509 0.0
C2600 C 0.46197 0.97669 0.10092 0.0
C2601 C 0.44305 0.9719 0.09393 0.0
C2602 C 0.42987 0.98263 0.10114 0.0
C2603 C 0.43559 -0.00177 0.1153 0.0
H2604 H 0.4386 0.95986 0.08295 0.0
H2605 H 0.49102 0.11515 0.21645 0.0
H2606 H 0.76505 0.71012 0.94838 0.0
H2607 H 0.77278 0.72693 0.92074 0.0
H2608 H 0.80361 0.68256 0.90013 0.0
H2609 H 0.7951 0.66517 0.92744 0.0
H2610 H 0.80177 0.74359 0.90558 0.0
H2611 H 0.79829 0.67537 0.85109 0.0
H2612 H 0.78349 0.64052 0.84633 0.0
H2613 H 0.73965 0.65173 0.88256 0.0
H2614 H 0.75385 0.68666 0.88719 0.0
H2615 H 0.80956 0.78113 0.81598 0.0
H2616 H 0.81674 0.76345 0.84258 0.0
H2617 H 0.7604 0.72852 0.83456 0.0
H2618 H 0.75368 0.74528 0.8078 0.0
H2619 H 0.78253 0.70642 0.84253 0.0
H2620 H 0.77437 0.77081 0.86897 0.0
H2621 H 0.78224 0.80669 0.87372 0.0
H2622 H 0.83865 0.80436 0.89441 0.0
H2623 H 0.83114 0.76844 0.88958 0.0
C2624 C 0.77362 0.70403 0.93805 0.0
C2625 C 0.77927 0.68622 0.93994 0.0
C2626 C 0.77812 0.71371 0.92227 0.0
C2627 C 0.78857 0.7059 0.90816 0.0
C2628 C 0.7952 0.68867 0.9106 0.0
C2629 C 0.79038 0.67878 0.92624 0.0
C2630 C 0.79123 0.7152 0.89044 0.0
C2631 C 0.79772 0.73541 0.89178 0.0
C2632 C 0.78591 0.70461 0.87237 0.0
C2633 C 0.77737 0.68358 0.86981 0.0
C2634 C 0.78552 0.67039 0.85807 0.0
C2635 C 0.77722 0.65064 0.85536 0.0
C2636 C 0.76077 0.64391 0.86426 0.0
C2637 C 0.75247 0.65694 0.87578 0.0
C2638 C 0.76063 0.67672 0.87845 0.0
C2639 C 0.79885 0.76956 0.81991 0.0
C2640 C 0.78105 0.76463 0.80996 0.0
C2641 C 0.80292 0.75951 0.8351 0.0
C2642 C 0.78905 0.74474 0.84074 0.0
C2643 C 0.77143 0.7397 0.83047 0.0
C2644 C 0.76753 0.74942 0.81521 0.0
C2645 C 0.79209 0.73492 0.85779 0.0
C2646 C 0.78698 0.71455 0.8563 0.0
C2647 C 0.79776 0.74546 0.87579 0.0
C2648 C 0.80228 0.767 0.87868 0.0
C2649 C 0.78849 0.77797 0.87441 0.0
C2650 C 0.79287 0.7983 0.87713 0.0
C2651 C 0.81096 0.8078 0.8843 0.0
C2652 C 0.82467 0.79698 0.88881 0.0
C2653 C 0.82036 0.77665 0.88608 0.0
H2654 H 0.81433 0.82354 0.8864 0.0
H2655 H 0.75441 0.62861 0.86215 0.0
H2656 H 0.7897 0.07819 0.0263 0.0
H2657 H 0.81685 0.06214 0.02283 0.0
H2658 H 0.85278 0.11743 0.01785 0.0
H2659 H 0.82537 0.13342 0.02036 0.0
H2660 H 0.85968 0.09248 0.99188 0.0
H2661 H 0.85367 0.09196 0.05854 0.0
H2662 H 0.83783 0.08551 0.08784 0.0
H2663 H 0.82609 0.02426 0.06902 0.0
H2664 H 0.84168 0.03035 0.0395 0.0
H2665 H 0.9489 0.06832 0.01588 0.0
H2666 H 0.91923 0.08049 0.01709 0.0
H2667 H 0.88799 0.02297 -0.0026 0.0
H2668 H 0.91795 0.01071 -0.00443 0.0
H2669 H 0.87755 0.04612 0.03405 0.0
H2670 H 0.88742 0.04861 0.9679 0.0
H2671 H 0.90529 0.05717 0.9403 0.0
H2672 H 0.9123 0.11784 0.96075 0.0
H2673 H 0.89488 0.10963 0.98875 0.0
C2674 C 0.80343 0.08697 0.0247 0.0
C2675 C 0.80546 0.10706 0.02358 0.0
C2676 C 0.81897 0.07778 0.02281 0.0
C2677 C 0.83691 0.08859 0.02028 0.0
C2678 C 0.83905 0.10877 0.01972 0.0
C2679 C 0.82342 0.11791 0.02121 0.0
C2680 C 0.85323 0.07875 0.01709 0.0
C2681 C 0.86369 0.08254 0.00127 0.0
C2682 C 0.85816 0.06533 0.02902 0.0
C2683 C 0.84863 0.06164 0.0467 0.0
C2684 C 0.84754 0.07713 0.06056 0.0
C2685 C 0.83864 0.07353 0.07723 0.0
C2686 C 0.83087 0.0545 0.08024 0.0
C2687 C 0.83204 0.039 0.06663 0.0
C2688 C 0.84093 0.04252 0.04994 0.0
C2689 C 0.93571 0.05827 0.01176 0.0
C2690 C 0.93555 0.03858 0.00574 0.0
C2691 C 0.91885 0.06525 0.01238 0.0
C2692 C 0.90159 0.05259 0.0073 0.0
C2693 C 0.9013 0.03288 0.00131 0.0
C2694 C 0.9183 0.02594 0.00025 0.0
C2695 C 0.88392 0.06013 0.00909 0.0
C2696 C 0.8733 0.05595 0.02465 0.0
C2697 C 0.8791 0.07353 -0.00281 0.0
C2698 C 0.88996 0.07847 0.98054 0.0
C2699 C 0.89298 0.06376 0.96667 0.0
C2700 C 0.90297 0.06856 0.95089 0.0
C2701 C 0.90985 0.08803 0.94873 0.0
C2702 C 0.90687 0.10276 0.96239 0.0
C2703 C 0.89697 0.09804 0.97824 0.0
H2704 H 0.9176 0.09171 0.93652 0.0
H2705 H 0.82403 0.05174 0.09317 0.0
H2706 H 0.29672 0.46057 0.02257 0.0
H2707 H 0.33053 0.47392 0.02443 0.0
H2708 H 0.3428 0.41607 0.02407 0.0
H2709 H 0.30876 0.40264 0.02299 0.0
H2710 H 0.36729 0.44011 0.04729 0.0
H2711 H 0.34498 0.44 0.98362 0.0
H2712 H 0.32437 0.44614 0.95726 0.0
H2713 H 0.34008 0.50771 0.97368 0.0
H2714 H 0.36058 0.50193 0.00032 0.0
H2715 H 0.46118 0.47223 0.01443 0.0
H2716 H 0.42811 0.45582 0.0152 0.0
H2717 H 0.41292 0.51023 0.03658 0.0
H2718 H 0.44612 0.52665 0.03641 0.0
H2719 H 0.39088 0.48592 0.00152 0.0
H2720 H 0.41285 0.48374 0.06661 0.0
H2721 H 0.43337 0.47544 0.09192 0.0
H2722 H 0.41921 0.41507 0.06974 0.0
H2723 H 0.39878 0.42305 0.04414 0.0
C2724 C 0.30661 0.45067 0.02298 0.0
C2725 C 0.30011 0.43054 0.02244 0.0
C2726 C 0.32594 0.45832 0.02394 0.0
C2727 C 0.33922 0.44596 0.02385 0.0
C2728 C 0.33281 0.42587 0.024 0.0
C2729 C 0.31339 0.41822 0.02339 0.0
C2730 C 0.3597 0.45413 0.02337 0.0
C2731 C 0.37247 0.44988 0.03708 0.0
C2732 C 0.3665 0.46695 0.0101 0.0
C2733 C 0.3542 0.47052 0.99407 0.0
C2734 C 0.34393 0.45484 0.9817 0.0
C2735 C 0.33229 0.45826 0.96669 0.0
C2736 C 0.33089 0.4773 0.96382 0.0
C2737 C 0.34116 0.49296 0.97593 0.0
C2738 C 0.35282 0.48963 0.99098 0.0
C2739 C 0.45077 0.48067 0.01932 0.0
C2740 C 0.45607 0.50069 0.02531 0.0
C2741 C 0.43198 0.47127 0.01984 0.0
C2742 C 0.41822 0.48185 0.02602 0.0
C2743 C 0.42345 0.50188 0.03185 0.0
C2744 C 0.44232 0.5112 0.03174 0.0
C2745 C 0.3982 0.47219 0.02563 0.0
C2746 C 0.38561 0.47608 0.01164 0.0
C2747 C 0.39168 0.45873 0.03833 0.0
C2748 C 0.40444 0.45403 0.05335 0.0
C2749 C 0.4143 0.46873 0.06698 0.0
C2750 C 0.42583 0.46407 0.08144 0.0
C2751 C 0.42751 0.44473 0.08248 0.0
C2752 C 0.41782 0.43003 0.06896 0.0
C2753 C 0.40627 0.43462 0.05448 0.0
H2754 H 0.43637 0.44114 0.09373 0.0
H2755 H 0.32186 0.47991 0.9522 0.0
H2756 H 0.32025 0.56185 0.75007 0.0
H2757 H 0.30315 0.58842 0.75783 0.0
H2758 H 0.35596 0.62966 0.76342 0.0
H2759 H 0.37316 0.60314 0.75623 0.0
H2760 H 0.33421 0.63901 0.79031 0.0
H2761 H 0.32581 0.6222 0.72284 0.0
H2762 H 0.3166 0.60033 0.69321 0.0
H2763 H 0.25934 0.58724 0.70962 0.0
H2764 H 0.26828 0.60887 0.73947 0.0
H2765 H 0.30339 0.72656 0.77684 0.0
H2766 H 0.31745 0.69762 0.77614 0.0
H2767 H 0.26174 0.66144 0.76877 0.0
H2768 H 0.24755 0.69055 0.76847 0.0
H2769 H 0.28312 0.64793 0.74496 0.0
H2770 H 0.29229 0.66846 0.81207 0.0
H2771 H 0.30282 0.69192 0.84044 0.0
H2772 H 0.36003 0.69981 0.82352 0.0
H2773 H 0.34985 0.67648 0.79503 0.0
C2774 C 0.32822 0.57657 0.75305 0.0
C2775 C 0.34804 0.58042 0.75241 0.0
C2776 C 0.31843 0.59175 0.75743 0.0
C2777 C 0.32824 0.61109 0.76094 0.0
C2778 C 0.34808 0.61488 0.76077 0.0
C2779 C 0.35788 0.5997 0.75657 0.0
C2780 C 0.31789 0.62748 0.76422 0.0
C2781 C 0.3231 0.64104 0.78036 0.0
C2782 C 0.30315 0.62996 0.75142 0.0
C2783 C 0.29776 0.61697 0.73348 0.0
C2784 C 0.31129 0.61454 0.72019 0.0
C2785 C 0.30612 0.60221 0.70335 0.0
C2786 C 0.28741 0.59235 0.69956 0.0
C2787 C 0.27383 0.59486 0.71259 0.0
C2788 C 0.27894 0.60715 0.72947 0.0
C2789 C 0.29407 0.71248 0.77535 0.0
C2790 C 0.27433 0.71085 0.77274 0.0
C2791 C 0.30216 0.69588 0.77509 0.0
C2792 C 0.29069 0.67727 0.77277 0.0
C2793 C 0.27091 0.67563 0.77065 0.0
C2794 C 0.2628 0.69226 0.77052 0.0
C2795 C 0.29942 0.65959 0.77107 0.0
C2796 C 0.29397 0.64579 0.75515 0.0
C2797 C 0.31408 0.65704 0.78399 0.0
C2798 C 0.32027 0.67078 0.80136 0.0
C2799 C 0.3071 0.67523 0.81438 0.0
C2800 C 0.31302 0.6885 0.8305 0.0
C2801 C 0.33209 0.69735 0.83379 0.0
C2802 C 0.34529 0.6929 0.82101 0.0
C2803 C 0.33945 0.67962 0.80489 0.0
H2804 H 0.33664 0.70765 0.84625 0.0
H2805 H 0.28344 0.58282 0.68651 0.0
H2806 H 0.20343 0.66515 0.50483 0.0
H2807 H 0.16992 0.65171 0.50804 0.0
H2808 H 0.17737 0.59638 0.48014 0.0
H2809 H 0.2107 0.60956 0.47691 0.0
H2810 H 0.13755 0.63005 0.48324 0.0
H2811 H 0.16221 0.5636 0.51027 0.0
H2812 H 0.1912 0.55591 0.52504 0.0
H2813 H 0.2078 0.61525 0.54999 0.0
H2814 H 0.17874 0.62318 0.53572 0.0
H2815 H 0.06527 0.5481 0.47851 0.0
H2816 H 0.095 0.57068 0.47724 0.0
H2817 H 0.09889 0.5831 0.53802 0.0
H2818 H 0.06899 0.56036 0.53952 0.0
H2819 H 0.1323 0.57646 0.52395 0.0
H2820 H 0.08735 0.61637 0.51298 0.0
H2821 H 0.05871 0.62483 0.49838 0.0
H2822 H 0.08221 0.62105 0.44404 0.0
H2823 H 0.11088 0.61225 0.45825 0.0
C2824 C 0.19778 0.65028 0.49891 0.0
C2825 C 0.20972 0.63826 0.49095 0.0
C2826 C 0.17867 0.64267 0.50073 0.0
C2827 C 0.1714 0.62301 0.49463 0.0
C2828 C 0.18287 0.61154 0.48513 0.0
C2829 C 0.20189 0.61909 0.48332 0.0
C2830 C 0.15274 0.61362 0.50017 0.0
C2831 C 0.13631 0.61842 0.49222 0.0
C2832 C 0.1513 0.59888 0.51235 0.0
C2833 C 0.16835 0.594 0.5218 0.0
C2834 C 0.17196 0.57496 0.51906 0.0
C2835 C 0.18842 0.57056 0.52732 0.0
C2836 C 0.20136 0.58509 0.5384 0.0
C2837 C 0.19779 0.60401 0.54137 0.0
C2838 C 0.18133 0.60846 0.5332 0.0
C2839 C 0.07239 0.55555 0.49166 0.0
C2840 C 0.06472 0.55241 0.50914 0.0
C2841 C 0.08933 0.56858 0.49087 0.0
C2842 C 0.09893 0.57875 0.50751 0.0
C2843 C 0.09156 0.57545 0.52502 0.0
C2844 C 0.07451 0.56245 0.52584 0.0
C2845 C 0.117 0.59233 0.50643 0.0
C2846 C 0.13341 0.58831 0.51524 0.0
C2847 C 0.11836 0.60799 0.4953 0.0
C2848 C 0.10124 0.61354 0.48669 0.0
C2849 C 0.08637 0.61722 0.4979 0.0
C2850 C 0.07013 0.62209 0.48969 0.0
C2851 C 0.06863 0.62346 0.47029 0.0
C2852 C 0.08339 0.61999 0.45906 0.0
C2853 C 0.09966 0.61509 0.4672 0.0
H2854 H 0.05604 0.62722 0.46396 0.0
H2855 H 0.21413 0.58169 0.5447 0.0
H2856 H 0.63903 0.924 0.75627 0.0
H2857 H 0.66446 0.90792 0.76636 0.0
H2858 H 0.70301 0.96325 0.77509 0.0
H2859 H 0.67775 0.97934 0.76447 0.0
H2860 H 0.71859 0.93846 0.75531 0.0
H2861 H 0.68886 0.93811 0.81293 0.0
H2862 H 0.66277 0.93369 0.83432 0.0
H2863 H 0.65037 0.87243 0.81555 0.0
H2864 H 0.6762 0.8765 0.79383 0.0
H2865 H 0.7603 0.85574 0.80162 0.0
H2866 H 0.74688 0.88543 0.80482 0.0
H2867 H 0.73475 0.87903 0.74436 0.0
H2868 H 0.74871 0.8499 0.7411 0.0
H2869 H 0.712 0.88678 0.79806 0.0
H2870 H 0.7309 0.91977 0.72769 0.0
H2871 H 0.75851 0.92592 0.70836 0.0
H2872 H 0.7959 0.92597 0.75698 0.0
H2873 H 0.76855 0.92009 0.77668 0.0
C2874 C 0.65284 0.93277 0.76062 0.0
C2875 C 0.65645 0.95288 0.75946 0.0
C2876 C 0.66735 0.9236 0.76651 0.0
C2877 C 0.68561 0.93442 0.77165 0.0
C2878 C 0.68904 0.95462 0.77118 0.0
C2879 C 0.67458 0.96378 0.76512 0.0
C2880 C 0.70142 0.9243 0.7757 0.0
C2881 C 0.71729 0.92732 0.76483 0.0
C2882 C 0.70003 0.91024 0.7886 0.0
C2883 C 0.68446 0.90764 0.80168 0.0
C2884 C 0.6805 0.92371 0.81326 0.0
C2885 C 0.66576 0.92126 0.82547 0.0
C2886 C 0.65491 0.90279 0.82628 0.0
C2887 C 0.6588 0.88672 0.81491 0.0
C2888 C 0.67351 0.88909 0.80267 0.0
C2889 C 0.75524 0.86104 0.789 0.0
C2890 C 0.75544 0.85058 0.77113 0.0
C2891 C 0.74754 0.87794 0.79084 0.0
C2892 C 0.73988 0.88454 0.77484 0.0
C2893 C 0.74093 0.87453 0.75689 0.0
C2894 C 0.74881 0.85779 0.75503 0.0
C2895 C 0.72866 0.90025 0.77691 0.0
C2896 C 0.71361 0.89827 0.78891 0.0
C2897 C 0.73106 0.91559 0.7654 0.0
C2898 C 0.74763 0.91941 0.75366 0.0
C2899 C 0.74501 0.92124 0.7343 0.0
C2900 C 0.76062 0.92464 0.72327 0.0
C2901 C 0.77894 0.92631 0.73143 0.0
C2902 C 0.7817 0.92462 0.75067 0.0
C2903 C 0.76614 0.92123 0.76177 0.0
H2904 H 0.79101 0.92892 0.72286 0.0
H2905 H 0.64351 0.90093 0.83574 0.0
H2906 H 0.70309 0.92792 0.54881 0.0
H2907 H 0.67659 0.94531 0.54793 0.0
H2908 H 0.64364 0.89743 0.51089 0.0
H2909 H 0.67 0.87967 0.51209 0.0
H2910 H 0.64885 0.93595 0.49765 0.0
H2911 H 0.6292 0.90359 0.5513 0.0
H2912 H 0.63257 0.89323 0.58304 0.0
H2913 H 0.64445 0.95292 0.60763 0.0
H2914 H 0.64152 0.96367 0.57599 0.0
H2915 H 0.56784 0.97804 0.48943 0.0
H2916 H 0.58981 0.95616 0.49401 0.0
H2917 H 0.61527 0.99339 0.54409 0.0
H2918 H 0.59222 0.01469 0.5402 0.0
H2919 H 0.61278 0.95832 0.5508 0.0
H2920 H 0.63617 0.9915 0.4986 0.0
H2921 H 0.63429 0.0034 0.46737 0.0
H2922 H 0.61796 0.94463 0.44079 0.0
H2923 H 0.61953 0.93239 0.47189 0.0
C2924 C 0.69008 0.92096 0.54072 0.0
C2925 C 0.6886 0.9025 0.53044 0.0
C2926 C 0.67495 0.93087 0.54032 0.0
C2927 C 0.6582 0.9226 0.5294 0.0
C2928 C 0.65647 0.90396 0.51948 0.0
C2929 C 0.67149 0.89385 0.52019 0.0
C2930 C 0.64334 0.93431 0.52692 0.0
C2931 C 0.6407 0.9406 0.50917 0.0
C2932 C 0.63332 0.94088 0.54218 0.0
C2933 C 0.63536 0.93444 0.56121 0.0
C2934 C 0.63278 0.91453 0.56343 0.0
C2935 C 0.63456 0.90858 0.58142 0.0
C2936 C 0.63879 0.92241 0.59733 0.0
C2937 C 0.64122 0.94222 0.59529 0.0
C2938 C 0.6395 0.94825 0.57732 0.0
C2939 C 0.57829 0.98171 0.50128 0.0
C2940 C 0.57863 -0.00175 0.51427 0.0
C2941 C 0.59089 0.96919 0.50387 0.0
C2942 C 0.6046 0.97333 0.51911 0.0
C2943 C 0.60493 0.98991 0.53214 0.0
C2944 C 0.59192 0.00218 0.52983 0.0
C2945 C 0.61838 0.96024 0.52151 0.0
C2946 C 0.62088 0.95369 0.53924 0.0
C2947 C 0.62863 0.95372 0.50632 0.0
C2948 C 0.62781 0.96105 0.48759 0.0
C2949 C 0.63208 0.98113 0.4861 0.0
C2950 C 0.63108 0.98793 0.46842 0.0
C2951 C 0.62596 0.97478 0.45211 0.0
C2952 C 0.6219 0.9548 0.45343 0.0
C2953 C 0.62286 0.94792 0.47108 0.0
H2954 H 0.62519 0.98008 0.43844 0.0
H2955 H 0.64012 0.91778 0.61125 0.0
H2956 H 0.38001 0.45417 0.74321 0.0
H2957 H 0.3606 0.42267 0.74664 0.0
H2958 H 0.31149 0.44145 0.72333 0.0
H2959 H 0.33075 0.47369 0.72133 0.0
H2960 H 0.30129 0.4215 0.75036 0.0
H2961 H 0.33629 0.40672 0.69524 0.0
H2962 H 0.36587 0.40875 0.67857 0.0
H2963 H 0.39079 0.38206 0.72229 0.0
H2964 H 0.36125 0.37967 0.73906 0.0
H2965 H 0.24633 0.32589 0.72991 0.0
H2966 H 0.26535 0.35765 0.72581 0.0
H2967 H 0.31214 0.34439 0.75867 0.0
H2968 H 0.29313 0.31274 0.76299 0.0
H2969 H 0.32316 0.3611 0.72596 0.0
H2970 H 0.28628 0.37313 0.77918 0.0
H2971 H 0.25694 0.37216 0.79601 0.0
H2972 H 0.23546 0.40554 0.75592 0.0
H2973 H 0.26459 0.40646 0.73868 0.0
C2974 C 0.36508 0.45152 0.73874 0.0
C2975 C 0.35688 0.46621 0.73178 0.0
C2976 C 0.354 0.43344 0.74055 0.0
C2977 C 0.33466 0.42935 0.73463 0.0
C2978 C 0.3264 0.44415 0.72785 0.0
C2979 C 0.33739 0.46252 0.72664 0.0
C2980 C 0.32307 0.40973 0.73578 0.0
C2981 C 0.30592 0.40833 0.74469 0.0
C2982 C 0.32923 0.39245 0.72882 0.0
C2983 C 0.3466 0.39295 0.71832 0.0
C2984 C 0.34806 0.40117 0.7012 0.0
C2985 C 0.3648 0.40239 0.69175 0.0
C2986 C 0.38019 0.39551 0.69936 0.0
C2987 C 0.37885 0.38735 0.7164 0.0
C2988 C 0.36206 0.38589 0.72579 0.0
C2989 C 0.26069 0.32975 0.7362 0.0
C2990 C 0.26825 0.31693 0.74683 0.0
C2991 C 0.27151 0.34788 0.73388 0.0
C2992 C 0.2901 0.35341 0.74205 0.0
C2993 C 0.29783 0.3404 0.75225 0.0
C2994 C 0.28695 0.32236 0.75474 0.0
C2995 C 0.30133 0.37295 0.74035 0.0
C2996 C 0.31844 0.37431 0.7314 0.0
C2997 C 0.29503 0.39018 0.74716 0.0
C2998 C 0.27752 0.38968 0.75752 0.0
C2999 C 0.27523 0.38011 0.77385 0.0
C3000 C 0.25865 0.3796 0.78349 0.0
C3001 C 0.24432 0.38873 0.77701 0.0
C3002 C 0.24656 0.39844 0.7609 0.0
C3003 C 0.26311 0.39897 0.7512 0.0
H3004 H 0.2315 0.38833 0.78449 0.0
H3005 H 0.39316 0.39653 0.69206 0.0
H3006 H 0.10925 0.56297 0.21207 0.0
H3007 H 0.13063 0.59455 0.21398 0.0
H3008 H 0.16996 0.57444 0.25104 0.0
H3009 H 0.14897 0.54279 0.24898 0.0
H3010 H 0.1613 0.61101 0.26404 0.0
H3011 H 0.18025 0.5773 0.20739 0.0
H3012 H 0.17429 0.55885 0.17563 0.0
H3013 H 0.15347 0.60641 0.1544 0.0
H3014 H 0.15905 0.62504 0.18612 0.0
H3015 H 0.23777 0.68896 0.26938 0.0
H3016 H 0.21905 0.656 0.26364 0.0
H3017 H 0.18691 0.67298 0.21777 0.0
H3018 H 0.20628 0.70567 0.22284 0.0
H3019 H 0.19142 0.63775 0.20868 0.0
H3020 H 0.17071 0.67126 0.26364 0.0
H3021 H 0.17434 0.69034 0.29511 0.0
H3022 H 0.19529 0.64434 0.31923 0.0
H3023 H 0.19201 0.62508 0.28783 0.0
C3024 C 0.12253 0.56518 0.22046 0.0
C3025 C 0.12746 0.55028 0.23024 0.0
C3026 C 0.1347 0.58323 0.22155 0.0
C3027 C 0.15189 0.58671 0.23255 0.0
C3028 C 0.15676 0.57198 0.24245 0.0
C3029 C 0.14473 0.5539 0.24122 0.0
C3030 C 0.16466 0.60587 0.23417 0.0
C3031 C 0.1681 0.61679 0.25201 0.0
C3032 C 0.17296 0.61356 0.21832 0.0
C3033 C 0.1699 0.60249 0.19918 0.0
C3034 C 0.17427 0.58377 0.19598 0.0
C3035 C 0.17098 0.57328 0.17798 0.0
C3036 C 0.16345 0.58143 0.16302 0.0
C3037 C 0.15928 0.60011 0.16601 0.0
C3038 C 0.16252 0.61064 0.18399 0.0
C3039 C 0.22685 0.68557 0.25794 0.0
C3040 C 0.22334 0.69987 0.24667 0.0
C3041 C 0.21609 0.66678 0.25472 0.0
C3042 C 0.20122 0.66214 0.24059 0.0
C3043 C 0.19824 0.67622 0.22881 0.0
C3044 C 0.20929 0.6949 0.23174 0.0
C3045 C 0.18826 0.64295 0.23865 0.0
C3046 C 0.18469 0.63202 0.22076 0.0
C3047 C 0.1795 0.63537 0.25441 0.0
C3048 C 0.18128 0.64681 0.27336 0.0
C3049 C 0.17619 0.66526 0.27564 0.0
C3050 C 0.17818 0.6761 0.29346 0.0
C3051 C 0.18509 0.66858 0.30915 0.0
C3052 C 0.18996 0.65016 0.30706 0.0
C3053 C 0.18803 0.63927 0.28926 0.0
H3054 H 0.18663 0.677 0.32294 0.0
H3055 H 0.16089 0.57328 0.1491 0.0
H3056 H 0.46934 0.68941 0.40881 0.0
H3057 H 0.47035 0.66319 0.42862 0.0
H3058 H 0.51273 0.70129 0.46667 0.0
H3059 H 0.51158 0.72769 0.44714 0.0
H3060 H 0.52278 0.66545 0.45171 0.0
H3061 H 0.47217 0.68878 0.48262 0.0
H3062 H 0.44125 0.69896 0.48508 0.0
H3063 H 0.41294 0.64208 0.46065 0.0
H3064 H 0.4437 0.63167 0.45765 0.0
H3065 H 0.52737 0.58659 0.50606 0.0
H3066 H 0.52558 0.61917 0.49758 0.0
H3067 H 0.47319 0.59548 0.46451 0.0
H3068 H 0.47428 0.56348 0.4739 0.0
H3069 H 0.46973 0.62785 0.48232 0.0
H3070 H 0.5182 0.60617 0.44509 0.0
H3071 H 0.54816 0.59456 0.44003 0.0
H3072 H 0.57913 0.64625 0.47283 0.0
H3073 H 0.5493 0.65806 0.47826 0.0
C3074 C 0.47861 0.6923 0.42158 0.0
C3075 C 0.49043 0.71055 0.4264 0.0
C3076 C 0.47912 0.67735 0.4329 0.0
C3077 C 0.49159 0.68038 0.44909 0.0
C3078 C 0.50298 0.69874 0.45425 0.0
C3079 C 0.50227 0.71379 0.4431 0.0
C3080 C 0.49398 0.66383 0.45949 0.0
C3081 C 0.51132 0.65742 0.45876 0.0
C3082 C 0.47884 0.65317 0.46821 0.0
C3083 C 0.4603 0.6595 0.46974 0.0
C3084 C 0.45938 0.67851 0.47755 0.0
C3085 C 0.44186 0.68431 0.47908 0.0
C3086 C 0.42514 0.67119 0.47298 0.0
C3087 C 0.4259 0.65224 0.46534 0.0
C3088 C 0.44338 0.64638 0.46372 0.0
C3089 C 0.51545 0.58847 0.49708 0.0
C3090 C 0.50096 0.5726 0.49065 0.0
C3091 C 0.51446 0.60703 0.4922 0.0
C3092 C 0.49928 0.60978 0.4803 0.0
C3093 C 0.48487 0.59383 0.47392 0.0
C3094 C 0.48558 0.5755 0.47921 0.0
C3095 C 0.49834 0.62902 0.47398 0.0
C3096 C 0.4813 0.636 0.47551 0.0
C3097 C 0.51359 0.63994 0.46554 0.0
C3098 C 0.53152 0.63287 0.46227 0.0
C3099 C 0.53139 0.61499 0.45133 0.0
C3100 C 0.54835 0.60838 0.44838 0.0
C3101 C 0.56553 0.61963 0.45616 0.0
C3102 C 0.5658 0.63753 0.46685 0.0
C3103 C 0.54888 0.64419 0.46987 0.0
H3104 H 0.57864 0.61449 0.45386 0.0
H3105 H 0.4116 0.67571 0.47421 0.0
H3106 H 0.60037 0.29748 0.64134 0.0
H3107 H 0.631 0.29784 0.65779 0.0
H3108 H 0.61462 0.33138 0.70652 0.0
H3109 H 0.58371 0.3304 0.69043 0.0
H3110 H 0.66125 0.32221 0.67492 0.0
H3111 H 0.62656 0.31292 0.74591 0.0
H3112 H 0.59497 0.30165 0.75735 0.0
H3113 H 0.57856 0.2647 0.70513 0.0
H3114 H 0.61013 0.27548 0.69355 0.0
H3115 H 0.71515 0.30416 0.76655 0.0
H3116 H 0.69095 0.31729 0.74933 0.0
H3117 H 0.69024 0.27308 0.70236 0.0
H3118 H 0.71349 0.25921 0.71991 0.0
H3119 H 0.65388 0.29184 0.73456 0.0
H3120 H 0.68508 0.30256 0.66146 0.0
H3121 H 0.71595 0.31184 0.64805 0.0
H3122 H 0.7398 0.34075 0.70214 0.0
H3123 H 0.70882 0.33259 0.71567 0.0
C3124 C 0.60346 0.30529 0.65544 0.0
C3125 C 0.58956 0.31359 0.66482 0.0
C3126 C 0.621 0.30554 0.66478 0.0
C3127 C 0.62491 0.31424 0.68353 0.0
C3128 C 0.61172 0.3242 0.69219 0.0
C3129 C 0.59407 0.32365 0.683 0.0
C3130 C 0.64159 0.31082 0.69471 0.0
C3131 C 0.65969 0.3155 0.68791 0.0
C3132 C 0.63949 0.30219 0.71175 0.0
C3133 C 0.62062 0.29521 0.7188 0.0
C3134 C 0.61623 0.30232 0.73692 0.0
C3135 C 0.59833 0.29602 0.74342 0.0
C3136 C 0.58475 0.28253 0.73194 0.0
C3137 C 0.58907 0.2752 0.71399 0.0
C3138 C 0.60696 0.2814 0.70745 0.0
C3139 C 0.70986 0.29731 0.75253 0.0
C3140 C 0.71637 0.28087 0.7444 0.0
C3141 C 0.69616 0.30487 0.74271 0.0
C3142 C 0.68915 0.29634 0.72449 0.0
C3143 C 0.69582 0.28008 0.71626 0.0
C3144 C 0.70915 0.27225 0.72624 0.0
C3145 C 0.67354 0.30314 0.71473 0.0
C3146 C 0.65554 0.29888 0.72174 0.0
C3147 C 0.67577 0.31165 0.69765 0.0
C3148 C 0.6946 0.31662 0.6897 0.0
C3149 C 0.69687 0.31095 0.67052 0.0
C3150 C 0.71441 0.31606 0.66287 0.0
C3151 C 0.7299 0.32668 0.67428 0.0
C3152 C 0.72782 0.33239 0.69333 0.0
C3153 C 0.71024 0.32755 0.701 0.0
H3154 H 0.74348 0.3306 0.66833 0.0
H3155 H 0.57089 0.27771 0.73698 0.0
H3156 H 0.98687 0.30523 0.93476 0.0
H3157 H 0.98471 0.33317 0.9577 0.0
H3158 H 0.02558 0.36994 0.92841 0.0
H3159 H 0.02776 0.34225 0.90543 0.0
H3160 H 0.03175 0.37613 0.96789 0.0
H3161 H 0.98011 0.36909 0.91946 0.0
H3162 H 0.95125 0.35104 0.90111 0.0
H3163 H 0.92259 0.34496 0.95238 0.0
H3164 H 0.9514 0.36277 0.97105 0.0
H3165 H 0.02491 0.47303 0.98237 0.0
H3166 H 0.02551 0.43927 0.97146 0.0
H3167 H 0.97448 0.42106 -0.0002 0.0
H3168 H 0.97324 0.45545 0.00972 0.0
H3169 H 0.97154 0.40108 0.96797 0.0
H3170 H 0.02226 0.41213 0.01634 0.0
H3171 H 0.05181 0.42859 0.0348 0.0
H3172 H 0.08251 0.42618 0.98458 0.0
H3173 H 0.05325 0.40984 0.96586 0.0
C3174 C -0.00443 0.31922 0.93335 0.0
C3175 C 0.00741 0.32159 0.91822 0.0
C3176 C -0.00574 0.33514 0.94642 0.0
C3177 C 0.00489 0.35358 0.94462 0.0
C3178 C 0.01727 0.35579 0.93001 0.0
C3179 C 0.01844 0.33998 0.91685 0.0
C3180 C 0.00264 0.37093 0.9573 0.0
C3181 C 0.01861 0.38165 0.968 0.0
C3182 C 0.98528 0.37763 0.9579 0.0
C3183 C 0.96796 0.36702 0.94666 0.0
C3184 C 0.9677 0.36375 0.92683 0.0
C3185 C 0.95135 0.3536 0.91637 0.0
C3186 C 0.93512 0.34679 0.92558 0.0
C3187 C 0.93519 0.35019 0.94527 0.0
C3188 C 0.95152 0.36032 0.95579 0.0
C3189 C 0.01377 0.46179 0.9862 0.0
C3190 C -0.00104 0.46669 -0.00327 0.0
C3191 C 0.01431 0.44244 0.98027 0.0
C3192 C 0.00044 0.42744 0.98536 0.0
C3193 C 0.98547 0.43235 -0.00414 0.0
C3194 C 0.98466 0.45191 0.00141 0.0
C3195 C 0.00094 0.40691 0.9782 0.0
C3196 C 0.98461 0.39546 0.96847 0.0
C3197 C 0.01802 0.39947 0.97858 0.0
C3198 C 0.03552 0.40991 0.98971 0.0
C3199 C 0.03528 0.41535 0.00923 0.0
C3200 C 0.05197 0.42459 0.01974 0.0
C3201 C 0.06897 0.42847 0.01085 0.0
C3202 C 0.06933 0.42316 0.99145 0.0
C3203 C 0.05272 0.41387 0.9809 0.0
H3204 H 0.08189 0.4355 0.01899 0.0
H3205 H 0.92247 0.33894 0.91745 0.0
H3206 H 0.9641 0.79101 0.15897 0.0
H3207 H 0.93355 0.79263 0.17215 0.0
H3208 H 0.96037 0.80141 0.22859 0.0
H3209 H 0.9907 0.79862 0.21545 0.0
H3210 H 0.93014 0.77782 0.22924 0.0
H3211 H 0.94402 0.839 0.20548 0.0
H3212 H 0.95318 0.86221 0.1824 0.0
H3213 H 0.90402 0.83549 0.14625 0.0
H3214 H 0.8947 0.81194 0.16898 0.0
H3215 H 0.84311 0.80703 0.26388 0.0
H3216 H 0.87581 0.81322 0.25383 0.0
H3217 H 0.85909 0.77113 0.20476 0.0
H3218 H 0.82675 0.7644 0.21499 0.0
H3219 H 0.88498 0.81573 0.20378 0.0
H3220 H 0.87727 0.75038 0.2274 0.0
H3221 H 0.86861 0.72956 0.25263 0.0
H3222 H 0.90775 0.76928 0.29215 0.0
H3223 H 0.91641 0.79046 0.26716 0.0
C3224 C 0.96345 0.79334 0.17419 0.0
C3225 C 0.97974 0.79465 0.18619 0.0
C3226 C 0.94601 0.79445 0.18173 0.0
C3227 C 0.94464 0.79754 0.20141 0.0
C3228 C 0.961 0.79903 0.21338 0.0
C3229 C 0.97834 0.79743 0.20586 0.0
C3230 C 0.926 0.7982 0.20951 0.0
C3231 C 0.92051 0.78643 0.22381 0.0
C3232 C 0.91324 0.80941 0.20259 0.0
C3233 C 0.91874 0.8236 0.18888 0.0
C3234 C 0.93523 0.83798 0.19255 0.0
C3235 C 0.94044 0.85121 0.17953 0.0
C3236 C 0.92921 0.8503 0.16285 0.0
C3237 C 0.91272 0.83618 0.15917 0.0
C3238 C 0.90745 0.8229 0.17213 0.0
C3239 C 0.84648 0.79915 0.25097 0.0
C3240 C 0.83257 0.78508 0.24031 0.0
C3241 C 0.86505 0.80272 0.24524 0.0
C3242 C 0.8697 0.79258 0.2286 0.0
C3243 C 0.85567 0.77905 0.21764 0.0
C3244 C 0.83729 0.77516 0.22356 0.0
C3245 C 0.88939 0.79516 0.22297 0.0
C3246 C 0.89495 0.80748 0.20922 0.0
C3247 C 0.90239 0.78485 0.23063 0.0
C3248 C 0.89728 0.77208 0.24553 0.0
C3249 C 0.88387 0.75475 0.24153 0.0
C3250 C 0.879 0.74287 0.25576 0.0
C3251 C 0.88757 0.74813 0.274 0.0
C3252 C 0.90109 0.76525 0.27803 0.0
C3253 C 0.90598 0.77719 0.26384 0.0
H3254 H 0.8838 0.73891 0.285 0.0
H3255 H 0.93327 0.86055 0.15279 0.0
H3256 H 0.48885 0.3049 0.06706 0.0
H3257 H 0.49083 0.33284 0.049 0.0
H3258 H 0.51282 0.37146 0.09935 0.0
H3259 H 0.51019 0.34373 0.11755 0.0
H3260 H 0.48875 0.38693 0.08146 0.0
H3261 H 0.54152 0.35754 0.06336 0.0
H3262 H 0.55758 0.3311 0.05106 0.0
H3263 H 0.52539 0.32504 -0.0021 0.0
H3264 H 0.50896 0.35129 0.00998 0.0
H3265 H 0.53128 0.47048 0.04487 0.0
H3266 H 0.52943 0.43908 0.05693 0.0
H3267 H 0.49436 0.41084 0.00773 0.0
H3268 H 0.49581 0.4423 -0.00452 0.0
H3269 H 0.52328 0.38934 0.02265 0.0
H3270 H 0.47163 0.42112 0.04226 0.0
H3271 H 0.46019 0.45068 0.0547 0.0
H3272 H 0.49431 0.45408 0.10634 0.0
H3273 H 0.50628 0.42478 0.094 0.0
C3274 C 0.49404 0.31936 0.07427 0.0
C3275 C 0.4994 0.32211 0.09371 0.0
C3276 C 0.49527 0.33532 0.06391 0.0
C3277 C 0.50224 0.35428 0.07274 0.0
C3278 C 0.50738 0.35701 0.09221 0.0
C3279 C 0.50591 0.34112 0.10259 0.0
C3280 C 0.50426 0.37134 0.06181 0.0
C3281 C 0.49639 0.3874 0.06867 0.0
C3282 C 0.51401 0.372 0.04493 0.0
C3283 C 0.52385 0.35621 0.03765 0.0
C3284 C 0.53776 0.35046 0.0491 0.0
C3285 C 0.54695 0.33553 0.04216 0.0
C3286 C 0.54246 0.32635 0.02374 0.0
C3287 C 0.52882 0.33213 0.01219 0.0
C3288 C 0.51957 0.34704 0.01907 0.0
C3289 C 0.52348 0.4576 0.03634 0.0
C3290 C 0.51346 0.45897 0.0193 0.0
C3291 C 0.52253 0.43967 0.04326 0.0
C3292 C 0.5117 0.42277 0.03327 0.0
C3293 C 0.50282 0.42377 0.01561 0.0
C3294 C 0.50361 0.44178 0.00869 0.0
C3295 C 0.50795 0.4047 0.04247 0.0
C3296 C 0.51545 0.38858 0.0353 0.0
C3297 C 0.49812 0.40404 0.05921 0.0
C3298 C 0.48989 0.42079 0.06719 0.0
C3299 C 0.47668 0.42817 0.05627 0.0
C3300 C 0.47017 0.44492 0.06326 0.0
C3301 C 0.47656 0.45428 0.08128 0.0
C3302 C 0.48937 0.44682 0.09238 0.0
C3303 C 0.49602 0.43013 0.0854 0.0
H3304 H 0.47153 0.46727 0.08667 0.0
H3305 H 0.54959 0.3148 0.01839 0.0
H3306 H 0.98614 0.2852 0.33142 0.0
H3307 H 0.95467 0.29075 0.32257 0.0
H3308 H 0.93498 0.27376 0.37574 0.0
H3309 H 0.96653 0.26779 0.38467 0.0
H3310 H 0.90905 0.25892 0.34595 0.0
H3311 H 0.94589 0.32138 0.37014 0.0
H3312 H 0.97372 0.34801 0.37266 0.0
H3313 H 0.96397 0.3554 0.31425 0.0
H3314 H 0.93623 0.32863 0.3113 0.0
H3315 H 0.82403 0.29235 0.32892 0.0
H3316 H 0.85453 0.29187 0.34534 0.0
H3317 H 0.88314 0.30641 0.29534 0.0
H3318 H 0.85275 0.30716 0.27896 0.0
H3319 H 0.90374 0.32405 0.32781 0.0
H3320 H 0.87088 0.2599 0.30197 0.0
H3321 H 0.84265 0.23368 0.29767 0.0
H3322 H 0.84512 0.22926 0.35731 0.0
H3323 H 0.87325 0.25571 0.36201 0.0
C3324 C 0.97513 0.28252 0.34124 0.0
C3325 C 0.9789 0.27624 0.35885 0.0
C3326 C 0.95716 0.28578 0.33617 0.0
C3327 C 0.94263 0.28308 0.34868 0.0
C3328 C 0.94607 0.27607 0.36596 0.0
C3329 C 0.96409 0.27267 0.37102 0.0
C3330 C 0.92402 0.28796 0.34368 0.0
C3331 C 0.90781 0.27327 0.34237 0.0
C3332 C 0.92251 0.3066 0.33867 0.0
C3333 C 0.93903 0.32292 0.34048 0.0
C3334 C 0.94974 0.32861 0.3578 0.0
C3335 C 0.9655 0.34374 0.35931 0.0
C3336 C 0.97063 0.35337 0.34361 0.0
C3337 C 0.95998 0.34793 0.32639 0.0
C3338 C 0.94422 0.3328 0.3248 0.0
C3339 C 0.83688 0.29587 0.3216 0.0
C3340 C 0.8361 0.29957 0.30264 0.0
C3341 C 0.85425 0.29555 0.33097 0.0
C3342 C 0.871 0.29878 0.32142 0.0
C3343 C 0.87035 0.30384 0.30292 0.0
C3344 C 0.853 0.30421 0.29357 0.0
C3345 C 0.8889 0.29497 0.32987 0.0
C3346 C 0.90495 0.30983 0.33176 0.0
C3347 C 0.89032 0.27645 0.33522 0.0
C3348 C 0.87403 0.2599 0.33237 0.0
C3349 C 0.86538 0.25336 0.31418 0.0
C3350 C 0.8494 0.23849 0.31166 0.0
C3351 C 0.84204 0.2299 0.32722 0.0
C3352 C 0.85081 0.236 0.34529 0.0
C3353 C 0.86678 0.25091 0.34789 0.0
H3354 H 0.82954 0.21857 0.32524 0.0
H3355 H 0.98284 0.36507 0.34481 0.0
H3356 H 0.01266 0.69585 0.6339 0.0
H3357 H 0.01073 0.66493 0.61432 0.0
H3358 H -0.00046 0.69205 0.56456 0.0
H3359 H 0.00098 0.72309 0.58418 0.0
H3360 H 0.97618 0.65839 0.56392 0.0
H3361 H 0.04407 0.67883 0.57352 0.0
H3362 H 0.07492 0.69016 0.59147 0.0
H3363 H 0.06445 0.64097 0.62296 0.0
H3364 H 0.03359 0.62926 0.60507 0.0
H3365 H -0.00347 0.58448 0.49541 0.0
H3366 H -0.004 0.61473 0.51575 0.0
H3367 H 0.0011 0.58511 0.56518 0.0
H3368 H 0.00118 0.55481 0.54484 0.0
H3369 H 0.02696 0.61936 0.56651 0.0
H3370 H 0.96023 0.59749 0.55434 0.0
H3371 H 0.93056 0.58538 0.53466 0.0
H3372 H 0.93914 0.63744 0.50719 0.0
H3373 H 0.96903 0.64975 0.52655 0.0
C3374 C 0.00985 0.69532 0.61878 0.0
C3375 C 0.00696 0.712 0.61062 0.0
C3376 C 0.00887 0.67761 0.60758 0.0
C3377 C 0.00525 0.67621 0.58793 0.0
C3378 C 0.00239 0.69281 0.5797 0.0
C3379 C 0.00324 0.71055 0.59093 0.0
C3380 C 0.00387 0.65727 0.57608 0.0
C3381 C 0.98742 0.65 0.56427 0.0
C3382 C 0.01825 0.64601 0.57695 0.0
C3383 C 0.0365 0.65328 0.58809 0.0
C3384 C 0.04831 0.67051 0.58436 0.0
C3385 C 0.06584 0.67692 0.59443 0.0
C3386 C 0.07162 0.6663 0.60837 0.0
C3387 C 0.05994 0.64918 0.61218 0.0
C3388 C 0.04248 0.6426 0.60202 0.0
C3389 C -0.00268 0.58442 0.51062 0.0
C3390 C -0.00082 0.56744 0.51864 0.0
C3391 C -0.00302 0.60165 0.5222 0.0
C3392 C -0.00153 0.60212 0.54196 0.0
C3393 C -3e-05 0.58505 0.54997 0.0
C3394 C 0.00015 0.56781 0.53838 0.0
C3395 C -0.00059 0.62064 0.55423 0.0
C3396 C 0.01573 0.62777 0.56618 0.0
C3397 C 0.98496 0.63177 0.5534 0.0
C3398 C 0.96696 0.62445 0.54178 0.0
C3399 C 0.95588 0.60629 0.544 0.0
C3400 C 0.939 0.5994 0.53292 0.0
C3401 C 0.93299 0.61061 0.51965 0.0
C3402 C 0.94383 0.62876 0.51746 0.0
C3403 C 0.96073 0.63571 0.5285 0.0
H3404 H 0.91992 0.60525 0.51108 0.0
H3405 H 0.08516 0.67135 0.61621 0.0
H3406 H 0.5875 0.74195 0.8834 0.0
H3407 H 0.61591 0.74457 0.86541 0.0
H3408 H 0.58606 0.7648 0.8199 0.0
H3409 H 0.55743 0.76099 0.83727 0.0
H3410 H 0.60622 0.74257 0.80508 0.0
H3411 H 0.61923 0.79615 0.85363 0.0
H3412 H 0.62223 0.81303 0.88608 0.0
H3413 H 0.66489 0.78104 0.90149 0.0
H3414 H 0.66197 0.76378 0.86919 0.0
H3415 H 0.69594 0.78647 0.76814 0.0
H3416 H 0.66576 0.7842 0.78354 0.0
H3417 H 0.68077 0.73987 0.81543 0.0
H3418 H 0.71049 0.74161 0.79991 0.0
H3419 H 0.66827 0.77654 0.83593 0.0
H3420 H 0.65216 0.72207 0.78539 0.0
H3421 H 0.64918 0.70835 0.75184 0.0
H3422 H 0.61207 0.7473 0.73913 0.0
H3423 H 0.61507 0.76145 0.77258 0.0
C3424 C 0.58704 0.74682 0.86951 0.0
C3425 C 0.57035 0.75135 0.86176 0.0
C3426 C 0.60329 0.74848 0.85929 0.0
C3427 C 0.60329 0.75533 0.84145 0.0
C3428 C 0.58647 0.75952 0.83362 0.0
C3429 C 0.57011 0.75738 0.84359 0.0
C3430 C 0.62074 0.75812 0.83091 0.0
C3431 C 0.61969 0.75026 0.81183 0.0
C3432 C 0.63841 0.76817 0.8396 0.0
C3433 C 0.64025 0.77854 0.85903 0.0
C3434 C 0.62916 0.79262 0.86398 0.0
C3435 C 0.63086 0.80227 0.88234 0.0
C3436 C 0.64371 0.79807 0.89585 0.0
C3437 C 0.65492 0.78425 0.89101 0.0
C3438 C 0.65327 0.77455 0.87268 0.0
C3439 C 0.69269 0.77616 0.77833 0.0
C3440 C 0.70548 0.76415 0.78276 0.0
C3441 C 0.67552 0.77489 0.78707 0.0
C3442 C 0.67121 0.76188 0.80056 0.0
C3443 C 0.68395 0.74996 0.80502 0.0
C3444 C 0.70084 0.75091 0.79605 0.0
C3445 C 0.65357 0.76082 0.81043 0.0
C3446 C 0.65466 0.76904 0.82932 0.0
C3447 C 0.6359 0.75158 0.80146 0.0
C3448 C 0.63404 0.74298 0.78141 0.0
C3449 C 0.64353 0.72785 0.7754 0.0
C3450 C 0.6418 0.71996 0.75642 0.0
C3451 C 0.6305 0.727 0.74335 0.0
C3452 C 0.62085 0.74189 0.74925 0.0
C3453 C 0.62256 0.74985 0.76822 0.0
H3454 H 0.62918 0.72087 0.72866 0.0
H3455 H 0.645 0.80556 0.91006 0.0
H3456 H 0.37879 0.51848 0.66556 0.0
H3457 H 0.39446 0.51697 0.63566 0.0
H3458 H 0.44242 0.55885 0.66157 0.0
H3459 H 0.42712 0.56003 0.69163 0.0
H3460 H 0.42755 0.56378 0.62189 0.0
H3461 H 0.44811 0.51733 0.66079 0.0
H3462 H 0.4423 0.48945 0.67937 0.0
H3463 H 0.41315 0.45317 0.63079 0.0
H3464 H 0.41847 0.48097 0.61203 0.0
H3465 H 0.50349 0.55411 0.56421 0.0
H3466 H 0.48252 0.55727 0.59008 0.0
H3467 H 0.44683 0.50271 0.56762 0.0
H3468 H 0.46806 0.49925 0.54211 0.0
H3469 H 0.45243 0.50349 0.60387 0.0
H3470 H 0.43214 0.54631 0.56393 0.0
H3471 H 0.43515 0.57282 0.54357 0.0
H3472 H 0.45981 0.61405 0.59083 0.0
H3473 H 0.45717 0.58774 0.61142 0.0
C3474 C 0.39256 0.52756 0.66479 0.0
C3475 C 0.40181 0.5393 0.68091 0.0
C3476 C 0.40147 0.52667 0.64775 0.0
C3477 C 0.41957 0.53778 0.6465 0.0
C3478 C 0.42842 0.55022 0.6623 0.0
C3479 C 0.41971 0.55081 0.67944 0.0
C3480 C 0.42991 0.53539 0.6292 0.0
C3481 C 0.43315 0.5507 0.61797 0.0
C3482 C 0.43655 0.51801 0.62382 0.0
C3483 C 0.43342 0.50131 0.6351 0.0
C3484 C 0.44025 0.50348 0.65414 0.0
C3485 C 0.43709 0.48767 0.66469 0.0
C3486 C 0.42729 0.46957 0.65629 0.0
C3487 C 0.42068 0.46722 0.6373 0.0
C3488 C 0.42376 0.48299 0.62671 0.0
C3489 C 0.49114 0.54284 0.56481 0.0
C3490 C 0.4873 0.52652 0.55114 0.0
C3491 C 0.47908 0.54472 0.57949 0.0
C3492 C 0.46291 0.53037 0.58063 0.0
C3493 C 0.45915 0.51401 0.56698 0.0
C3494 C 0.47125 0.51209 0.55238 0.0
C3495 C 0.45042 0.53205 0.59653 0.0
C3496 C 0.44675 0.51657 0.60757 0.0
C3497 C 0.44301 0.5491 0.60145 0.0
C3498 C 0.44463 0.56502 0.58917 0.0
C3499 C 0.43836 0.56101 0.56994 0.0
C3500 C 0.43996 0.57599 0.55837 0.0
C3501 C 0.44771 0.59509 0.56589 0.0
C3502 C 0.45383 0.59924 0.58502 0.0
C3503 C 0.45225 0.5843 0.59665 0.0
H3504 H 0.44895 0.60667 0.55691 0.0
H3505 H 0.42487 0.45734 0.66448 0.0
H3506 H 0.78789 0.21634 0.98173 0.0
H3507 H 0.79099 0.23522 0.9548 0.0
H3508 H 0.79628 0.18378 0.91825 0.0
H3509 H 0.79348 0.16485 0.94512 0.0
H3510 H 0.81722 0.21681 0.90684 0.0
H3511 H 0.7534 0.19368 0.92474 0.0
H3512 H 0.72798 0.19052 0.947 0.0
H3513 H 0.73259 0.25262 0.95466 0.0
H3514 H 0.75825 0.25613 0.93263 0.0
H3515 H 0.74292 0.22915 0.82986 0.0
H3516 H 0.75134 0.22132 0.8613 0.0
H3517 H 0.80369 0.26309 0.86357 0.0
H3518 H 0.79572 0.27012 0.83158 0.0
H3519 H 0.75704 0.23974 0.89444 0.0
H3520 H 0.83749 0.24834 0.89095 0.0
H3521 H 0.86165 0.24841 0.86737 0.0
H3522 H 0.82136 0.21017 0.82783 0.0
H3523 H 0.79703 0.2096 0.85128 0.0
C3524 C 0.79024 0.20916 0.96807 0.0
C3525 C 0.79007 0.18903 0.96545 0.0
C3526 C 0.79202 0.21998 0.95271 0.0
C3527 C 0.7935 0.21079 0.93451 0.0
C3528 C 0.79511 0.19112 0.93219 0.0
C3529 C 0.7934 0.1803 0.94755 0.0
C3530 C 0.7905 0.22067 0.91764 0.0
C3531 C 0.80418 0.22205 0.90417 0.0
C3532 C 0.77337 0.22727 0.91412 0.0
C3533 C 0.75788 0.22518 0.92725 0.0
C3534 C 0.74908 0.20666 0.93129 0.0
C3535 C 0.73462 0.20481 0.94384 0.0
C3536 C 0.72871 0.22136 0.95228 0.0
C3537 C 0.73722 0.23981 0.94814 0.0
C3538 C 0.75172 0.24174 0.93563 0.0
C3539 C 0.75618 0.2367 0.83713 0.0
C3540 C 0.76874 0.2501 0.82835 0.0
C3541 C 0.76097 0.23229 0.8551 0.0
C3542 C 0.77828 0.24142 0.86473 0.0
C3543 C 0.79047 0.25553 0.85627 0.0
C3544 C 0.78586 0.25962 0.83808 0.0
C3545 C 0.78357 0.23552 0.88329 0.0
C3546 C 0.7703 0.23493 0.89718 0.0
C3547 C 0.80088 0.22923 0.88694 0.0
C3548 C 0.81541 0.22911 0.8728 0.0
C3549 C 0.83381 0.2399 0.87725 0.0
C3550 C 0.84752 0.24004 0.86391 0.0
C3551 C 0.843 0.22936 0.84613 0.0
C3552 C 0.8248 0.21847 0.84162 0.0
C3553 C 0.81105 0.21822 0.85492 0.0
H3554 H 0.85365 0.22944 0.8359 0.0
H3555 H 0.71752 0.2199 0.962 0.0
H3556 H 0.11311 0.47246 0.1695 0.0
H3557 H 0.09906 0.47421 0.13803 0.0
H3558 H 0.04352 0.45302 0.15641 0.0
H3559 H 0.05741 0.45125 0.1879 0.0
H3560 H 0.04898 0.44262 0.11558 0.0
H3561 H 0.05598 0.4989 0.16527 0.0
H3562 H 0.07492 0.5233 0.18937 0.0
H3563 H 0.11445 0.54112 0.14825 0.0
H3564 H 0.09548 0.51705 0.1238 0.0
H3565 H 0.98627 0.48936 0.06627 0.0
H3566 H 0.00377 0.47627 0.0905 0.0
H3567 H 0.05543 0.51366 0.07841 0.0
H3568 H 0.03755 0.52809 0.05572 0.0
H3569 H 0.05457 0.51375 0.11355 0.0
H3570 H 0.04092 0.46425 0.06153 0.0
H3571 H 0.01976 0.44214 0.03746 0.0
H3572 H 0.99406 0.40997 0.08056 0.0
H3573 H 0.01414 0.43279 0.10515 0.0
C3574 C 0.098 0.46747 0.16665 0.0
C3575 C 0.08626 0.46218 0.18123 0.0
C3576 C 0.09001 0.46841 0.14865 0.0
C3577 C 0.07027 0.46399 0.14508 0.0
C3578 C 0.05879 0.45647 0.15895 0.0
C3579 C 0.06674 0.45564 0.17696 0.0
C3580 C 0.06137 0.47125 0.12897 0.0
C3581 C 0.0501 0.45813 0.11498 0.0
C3582 C 0.06317 0.49148 0.12823 0.0
C3583 C 0.0745 0.50601 0.14283 0.0
C3584 C 0.06878 0.50795 0.16142 0.0
C3585 C 0.0795 0.52175 0.17513 0.0
C3586 C 0.09602 0.53361 0.17041 0.0
C3587 C 0.10171 0.53185 0.15191 0.0
C3588 C 0.09094 0.5182 0.1381 0.0
C3589 C 0.00133 0.49485 0.06896 0.0
C3590 C 0.01076 0.50936 0.05887 0.0
C3591 C 0.01134 0.48724 0.08262 0.0
C3592 C 0.03101 0.49356 0.08585 0.0
C3593 C 0.0403 0.50838 0.07601 0.0
C3594 C 0.03017 0.51643 0.06286 0.0
C3595 C 0.04192 0.4852 0.09987 0.0
C3596 C 0.05355 0.49818 0.11368 0.0
C3597 C 0.04045 0.46484 0.10019 0.0
C3598 C 0.02904 0.45041 0.08531 0.0
C3599 C 0.03072 0.45256 0.06599 0.0
C3600 C 0.01883 0.43992 0.05221 0.0
C3601 C 0.00569 0.42453 0.05744 0.0
C3602 C 0.00429 0.42188 0.07652 0.0
C3603 C 0.01583 0.43478 0.09041 0.0
H3604 H -0.00342 0.4147 0.04672 0.0
H3605 H 0.10436 0.54423 0.18103 0.0
H3606 H 0.71797 0.8599 0.4464 0.0
H3607 H 0.72337 0.8407 0.41719 0.0
H3608 H 0.76516 0.81648 0.44717 0.0
H3609 H 0.75956 0.83545 0.47668 0.0
H3610 H 0.77718 0.8338 0.41305 0.0
H3611 H 0.72799 0.78585 0.43275 0.0
H3612 H 0.69696 0.77362 0.44481 0.0
H3613 H 0.66873 0.79177 0.3974 0.0
H3614 H 0.6996 0.80448 0.3853 0.0
H3615 H 0.78515 0.78003 0.32218 0.0
H3616 H 0.78357 0.7888 0.35637 0.0
H3617 H 0.73056 0.80755 0.3458 0.0
H3618 H 0.73162 0.79801 0.31218 0.0
H3619 H 0.72721 0.78683 0.37355 0.0
H3620 H 0.77474 0.83958 0.35664 0.0
H3621 H 0.80501 0.85367 0.34414 0.0
H3622 H 0.83552 0.82907 0.38556 0.0
H3623 H 0.80539 0.81464 0.39816 0.0
C3624 C 0.7281 0.85027 0.44686 0.0
C3625 C 0.73833 0.84917 0.46382 0.0
C3626 C 0.73115 0.83929 0.43017 0.0
C3627 C 0.74464 0.82719 0.43007 0.0
C3628 C 0.75466 0.82573 0.44702 0.0
C3629 C 0.75136 0.83648 0.46384 0.0
C3630 C 0.74886 0.81706 0.41191 0.0
C3631 C 0.76645 0.82317 0.40453 0.0
C3632 C 0.73471 0.80351 0.40075 0.0
C3633 C 0.71611 0.79609 0.40811 0.0
C3634 C 0.71516 0.78735 0.42498 0.0
C3635 C 0.6976 0.78033 0.43182 0.0
C3636 C 0.68088 0.78191 0.42188 0.0
C3637 C 0.68169 0.79054 0.40509 0.0
C3638 C 0.69921 0.79762 0.39821 0.0
C3639 C 0.77324 0.78608 0.32725 0.0
C3640 C 0.75846 0.78822 0.31457 0.0
C3641 C 0.77233 0.7911 0.34675 0.0
C3642 C 0.75687 0.79878 0.35371 0.0
C3643 C 0.74244 0.80133 0.34088 0.0
C3644 C 0.74313 0.79597 0.32161 0.0
C3645 C 0.75528 0.8042 0.37424 0.0
C3646 C 0.73815 0.79715 0.38213 0.0
C3647 C 0.76975 0.81715 0.38572 0.0
C3648 C 0.78783 0.82583 0.37817 0.0
C3649 C 0.7879 0.83705 0.36298 0.0
C3650 C 0.80503 0.84512 0.3559 0.0
C3651 C 0.82217 0.84221 0.36401 0.0
C3652 C 0.82223 0.83127 0.37926 0.0
C3653 C 0.80514 0.82315 0.38638 0.0
H3654 H 0.83542 0.84847 0.35851 0.0
H3655 H 0.6673 0.77644 0.42719 0.0
H3656 H 0.44415 0.51175 0.78276 0.0
H3657 H 0.45171 0.50708 0.8154 0.0
H3658 H 0.40528 0.53409 0.83351 0.0
H3659 H 0.39743 0.53878 0.80069 0.0
H3660 H 0.43988 0.54545 0.85751 0.0
H3661 H 0.39742 0.48787 0.8292 0.0
H3662 H 0.3861 0.46047 0.80441 0.0
H3663 H 0.43733 0.43855 0.81335 0.0
H3664 H 0.4491 0.46602 0.83799 0.0
H3665 H 0.44304 0.51226 0.94788 0.0
H3666 H 0.42991 0.51666 0.91669 0.0
H3667 H 0.47125 0.48716 0.89016 0.0
H3668 H 0.48446 0.48278 0.92131 0.0
H3669 H 0.43609 0.47712 0.87109 0.0
H3670 H 0.47982 0.5348 0.89692 0.0
H3671 H 0.49325 0.56299 0.92019 0.0
H3672 H 0.44169 0.58517 0.91509 0.0
H3673 H 0.42781 0.55691 0.89201 0.0
C3674 C 0.43564 0.51695 0.79365 0.0
C3675 C 0.42006 0.5255 0.78906 0.0
C3676 C 0.43996 0.51419 0.8123 0.0
C3677 C 0.42887 0.51998 0.82676 0.0
C3678 C 0.41393 0.52945 0.82247 0.0
C3679 C 0.40947 0.53209 0.80373 0.0
C3680 C 0.43251 0.51528 0.84615 0.0
C3681 C 0.43869 0.53053 0.86062 0.0
C3682 C 0.43134 0.49578 0.84999 0.0
C3683 C 0.4242 0.4791 0.83534 0.0
C3684 C 0.40633 0.47729 0.82578 0.0
C3685 C 0.39983 0.46173 0.81177 0.0
C3686 C 0.41101 0.4478 0.80728 0.0
C3687 C 0.42869 0.44937 0.81683 0.0
C3688 C 0.43528 0.46492 0.83084 0.0
C3689 C 0.44904 0.50634 0.93538 0.0
C3690 C 0.46479 0.49725 0.93694 0.0
C3691 C 0.44162 0.50898 0.9176 0.0
C3692 C 0.44981 0.50249 0.90117 0.0
C3693 C 0.46478 0.49232 0.90269 0.0
C3694 C 0.47229 0.48981 0.92046 0.0
C3695 C 0.44361 0.5073 0.88247 0.0
C3696 C 0.43699 0.49205 0.86809 0.0
C3697 C 0.44454 0.52681 0.8787 0.0
C3698 C 0.45269 0.5436 0.8929 0.0
C3699 C 0.47125 0.54555 0.90093 0.0
C3700 C 0.47896 0.56157 0.91406 0.0
C3701 C 0.46832 0.57584 0.91912 0.0
C3702 C 0.4499 0.57408 0.91116 0.0
C3703 C 0.4421 0.55806 0.89806 0.0
H3704 H 0.47439 0.58834 0.92912 0.0
H3705 H 0.40595 0.43577 0.79642 0.0
H3706 H 0.77508 0.20293 0.05771 0.0
H3707 H 0.77687 0.22635 0.08591 0.0
H3708 H 0.7433 0.1825 0.11467 0.0
H3709 H 0.74118 0.15905 0.08649 0.0
H3710 H 0.73217 0.21727 0.12106 0.0
H3711 H 0.79103 0.19316 0.12226 0.0
H3712 H 0.82077 0.18652 0.10935 0.0
H3713 H 0.83969 0.24751 0.10604 0.0
H3714 H 0.80992 0.25448 0.11871 0.0
H3715 H 0.75421 0.24177 0.21804 0.0
H3716 H 0.74853 0.22865 0.18494 0.0
H3717 H 0.78656 0.2785 0.16925 0.0
H3718 H 0.79277 0.29152 0.20278 0.0
H3719 H 0.79502 0.24636 0.15315 0.0
H3720 H 0.73723 0.27019 0.15839 0.0
H3721 H 0.70696 0.27547 0.17108 0.0
H3722 H 0.68552 0.21393 0.16304 0.0
H3723 H 0.71573 0.2082 0.15064 0.0
C3724 C 0.76802 0.19826 0.07001 0.0
C3725 C 0.75809 0.17906 0.06989 0.0
C3726 C 0.76908 0.21167 0.0861 0.0
C3727 C 0.76035 0.20609 0.10239 0.0
C3728 C 0.7501 0.18709 0.1022 0.0
C3729 C 0.749 0.17368 0.08612 0.0
C3730 C 0.76234 0.21977 0.11992 0.0
C3731 C 0.74587 0.2236 0.12819 0.0
C3732 C 0.78027 0.22848 0.12878 0.0
C3733 C 0.79817 0.22431 0.1212 0.0
C3734 C 0.80147 0.20513 0.11862 0.0
C3735 C 0.81834 0.20131 0.11138 0.0
C3736 C 0.83209 0.21657 0.10682 0.0
C3737 C 0.82901 0.2357 0.10954 0.0
C3738 C 0.81215 0.23959 0.11676 0.0
C3739 C 0.76123 0.25008 0.20755 0.0
C3740 C 0.77404 0.2676 0.21292 0.0
C3741 C 0.75779 0.24265 0.18858 0.0
C3742 C 0.76686 0.25274 0.17456 0.0
C3743 C 0.77932 0.27055 0.17986 0.0
C3744 C 0.78288 0.27795 0.19895 0.0
C3745 C 0.76478 0.24351 0.15472 0.0
C3746 C 0.78126 0.24046 0.14593 0.0
C3747 C 0.74681 0.23537 0.1455 0.0
C3748 C 0.72881 0.23877 0.15357 0.0
C3749 C 0.72614 0.25776 0.1595 0.0
C3750 C 0.70897 0.26083 0.16661 0.0
C3751 C 0.69432 0.24505 0.16777 0.0
C3752 C 0.69687 0.22614 0.16206 0.0
C3753 C 0.714 0.22298 0.15498 0.0
H3754 H 0.68093 0.24743 0.17296 0.0
H3755 H 0.84514 0.21359 0.10122 0.0
H3756 H 0.08034 0.49103 0.2958 0.0
H3757 H 0.06476 0.49179 0.3254 0.0
H3758 H 0.01529 0.50533 0.29729 0.0
H3759 H 0.03097 0.50493 0.26741 0.0
H3760 H 0.02458 0.52733 0.3313 0.0
H3761 H 0.01376 0.46023 0.30861 0.0
H3762 H 0.02151 0.42917 0.29492 0.0
H3763 H 0.05983 0.42959 0.34291 0.0
H3764 H 0.05255 0.46082 0.35677 0.0
H3765 H 0.98212 0.50862 0.42044 0.0
H3766 H 0.98632 0.50564 0.38624 0.0
H3767 H 0.0447 0.50104 0.39712 0.0
H3768 H 0.04065 0.50409 0.43109 0.0
H3769 H 0.02271 0.47162 0.36886 0.0
H3770 H 0.03724 0.54186 0.38773 0.0
H3771 H 0.02923 0.57287 0.4013 0.0
H3772 H 0.98235 0.56545 0.3601 0.0
H3773 H 0.98994 0.53422 0.34647 0.0
C3774 C 0.06614 0.49417 0.29583 0.0
C3775 C 0.05683 0.49777 0.27921 0.0
C3776 C 0.05723 0.49451 0.31277 0.0
C3777 C 0.03874 0.49822 0.31341 0.0
C3778 C 0.02951 0.50229 0.297 0.0
C3779 C 0.03848 0.50203 0.27998 0.0
C3780 C 0.02939 0.49797 0.33145 0.0
C3781 C 0.02372 0.51498 0.33935 0.0
C3782 C 0.02829 0.48184 0.34191 0.0
C3783 C 0.03267 0.46296 0.33369 0.0
C3784 C 0.02394 0.45378 0.31619 0.0
C3785 C 0.02824 0.43613 0.30841 0.0
C3786 C 0.04117 0.42743 0.31803 0.0
C3787 C 0.04981 0.43635 0.33547 0.0
C3788 C 0.04558 0.45402 0.34332 0.0
C3789 C -0.00421 0.50686 0.41545 0.0
C3790 C 0.01102 0.50629 0.42826 0.0
C3791 C -0.00184 0.50522 0.39601 0.0
C3792 C 0.01578 0.50302 0.3893 0.0
C3793 C 0.03097 0.50259 0.40212 0.0
C3794 C 0.02862 0.50425 0.42146 0.0
C3795 C 0.01873 0.5012 0.36893 0.0
C3796 C 0.02311 0.48375 0.3606 0.0
C3797 C 0.0185 0.51684 0.35809 0.0
C3798 C 0.01399 0.5356 0.36626 0.0
C3799 C 0.0251 0.54674 0.3817 0.0
C3800 C 0.02067 0.56438 0.38937 0.0
C3801 C 0.00525 0.57109 0.38161 0.0
C3802 C -0.00573 0.56021 0.36613 0.0
C3803 C -0.00137 0.54255 0.35842 0.0
H3804 H 0.00184 0.58475 0.38757 0.0
H3805 H 0.04448 0.41375 0.31197 0.0
H3806 H 0.74478 0.87116 0.5972 0.0
H3807 H 0.74442 0.854 0.62519 0.0
H3808 H 0.73826 0.79927 0.58971 0.0
H3809 H 0.73794 0.81638 0.56153 0.0
H3810 H 0.71553 0.79546 0.6175 0.0
H3811 H 0.78136 0.82201 0.61378 0.0
H3812 H 0.80922 0.84761 0.61118 0.0
H3813 H 0.7973 0.87894 0.66296 0.0
H3814 H 0.76923 0.85365 0.66575 0.0
H3815 H 0.73864 0.74394 0.69475 0.0
H3816 H 0.73661 0.75806 0.66487 0.0
H3817 H 0.7416 0.81508 0.69594 0.0
H3818 H 0.74378 0.80089 0.72559 0.0
H3819 H 0.76581 0.81603 0.66927 0.0
H3820 H 0.69936 0.78972 0.67238 0.0
H3821 H 0.67169 0.7639 0.67494 0.0
H3822 H 0.68519 0.7317 0.62434 0.0
H3823 H 0.71309 0.75723 0.62161 0.0
C3824 C 0.74344 0.85548 0.59533 0.0
C3825 C 0.74151 0.84513 0.57715 0.0
C3826 C 0.7433 0.84568 0.61137 0.0
C3827 C 0.74165 0.82535 0.60959 0.0
C3828 C 0.73962 0.81496 0.59144 0.0
C3829 C 0.73951 0.82475 0.57535 0.0
C3830 C 0.74179 0.81502 0.62671 0.0
C3831 C 0.72668 0.79976 0.6287 0.0
C3832 C 0.75616 0.82082 0.64148 0.0
C3833 C 0.7731 0.83601 0.63988 0.0
C3834 C 0.78461 0.83442 0.62454 0.0
C3835 C 0.80045 0.84887 0.62305 0.0
C3836 C 0.805 0.86491 0.63687 0.0
C3837 C 0.79375 0.86652 0.65225 0.0
C3838 C 0.77788 0.85212 0.65381 0.0
C3839 C 0.739 0.75943 0.69513 0.0
C3840 C 0.74172 0.77149 0.71243 0.0
C3841 C 0.73783 0.76749 0.67808 0.0
C3842 C 0.739 0.78767 0.67814 0.0
C3843 C 0.74089 0.79952 0.6955 0.0
C3844 C 0.74225 0.79148 0.71246 0.0
C3845 C 0.73939 0.79672 0.66023 0.0
C3846 C 0.75468 0.81169 0.65805 0.0
C3847 C 0.72523 0.79061 0.6453 0.0
C3848 C 0.70842 0.77529 0.6469 0.0
C3849 C 0.69651 0.77706 0.66188 0.0
C3850 C 0.68077 0.76249 0.66335 0.0
C3851 C 0.67672 0.74614 0.64984 0.0
C3852 C 0.68836 0.74436 0.63481 0.0
C3853 C 0.70413 0.75888 0.63328 0.0
H3854 H 0.66452 0.73488 0.651 0.0
H3855 H 0.81727 0.87608 0.63569 0.0
H3856 H 0.66746 0.39588 0.51032 0.0
H3857 H 0.64294 0.41586 0.50942 0.0
H3858 H 0.67769 0.46062 0.54848 0.0
H3859 H 0.70256 0.44101 0.549 0.0
H3860 H 0.63104 0.44821 0.5502 0.0
H3861 H 0.68564 0.47276 0.51328 0.0
H3862 H 0.70886 0.46573 0.49027 0.0
H3863 H 0.66356 0.43882 0.44942 0.0
H3864 H 0.64008 0.44536 0.47237 0.0
H3865 H 0.58606 0.52576 0.53511 0.0
H3866 H 0.61244 0.50889 0.5402 0.0
H3867 H 0.59881 0.4758 0.4852 0.0
H3868 H 0.57293 0.49307 0.47981 0.0
H3869 H 0.63537 0.48224 0.49248 0.0
H3870 H 0.5809 0.45825 0.52496 0.0
H3871 H 0.55509 0.46003 0.54638 0.0
H3872 H 0.59584 0.48014 0.59334 0.0
H3873 H 0.62193 0.4788 0.57213 0.0
C3874 C 0.66963 0.40972 0.51913 0.0
C3875 C 0.68691 0.41705 0.52961 0.0
C3876 C 0.65565 0.42108 0.5186 0.0
C3877 C 0.65867 0.43964 0.52883 0.0
C3878 C 0.67519 0.44627 0.54057 0.0
C3879 C 0.68935 0.43512 0.54079 0.0
C3880 C 0.64594 0.45314 0.52514 0.0
C3881 C 0.6321 0.45595 0.5378 0.0
C3882 C 0.64707 0.46257 0.5086 0.0
C3883 C 0.66114 0.45939 0.49457 0.0
C3884 C 0.68065 0.46524 0.49943 0.0
C3885 C 0.69385 0.46135 0.48641 0.0
C3886 C 0.68769 0.45179 0.46841 0.0
C3887 C 0.66831 0.4462 0.46337 0.0
C3888 C 0.65506 0.45 0.47638 0.0
C3889 C 0.5891 0.51532 0.52391 0.0
C3890 C 0.57739 0.51051 0.50719 0.0
C3891 C 0.60403 0.50557 0.52688 0.0
C3892 C 0.6072 0.4907 0.5133 0.0
C3893 C 0.59651 0.48711 0.49593 0.0
C3894 C 0.58173 0.49699 0.49287 0.0
C3895 C 0.62046 0.47777 0.51776 0.0
C3896 C 0.63437 0.47485 0.50511 0.0
C3897 C 0.61902 0.46785 0.53411 0.0
C3898 C 0.60338 0.46864 0.54692 0.0
C3899 C 0.58437 0.4632 0.53982 0.0
C3900 C 0.56968 0.4641 0.55193 0.0
C3901 C 0.57382 0.47023 0.57119 0.0
C3902 C 0.59266 0.47543 0.5784 0.0
C3903 C 0.6074 0.4746 0.56635 0.0
H3904 H 0.56243 0.47091 0.58054 0.0
H3905 H 0.69793 0.44876 0.45835 0.0
H3906 H 0.18309 0.14036 0.48851 0.0
H3907 H 0.15109 0.12175 0.49039 0.0
H3908 H 0.16861 0.06987 0.46525 0.0
H3909 H 0.2007 0.08831 0.46348 0.0
H3910 H 0.13247 0.07548 0.45074 0.0
H3911 H 0.16697 0.07514 0.51038 0.0
H3912 H 0.18643 0.09059 0.53919 0.0
H3913 H 0.14264 0.12185 0.55574 0.0
H3914 H 0.12304 0.10682 0.52685 0.0
H3915 H 0.0541 0.00678 0.47234 0.0
H3916 H 0.08662 0.02399 0.46999 0.0
H3917 H 0.07481 0.07359 0.50539 0.0
H3918 H 0.04272 0.05612 0.50845 0.0
H3919 H 0.10861 0.06891 0.5145 0.0
H3920 H 0.07437 0.07132 0.45588 0.0
H3921 H 0.05439 0.05788 0.42682 0.0
H3922 H 0.09651 0.02534 0.408 0.0
H3923 H 0.11665 0.03839 0.43708 0.0
C3924 C 0.18008 0.12504 0.48318 0.0
C3925 C 0.19442 0.11575 0.47595 0.0
C3926 C 0.16183 0.11444 0.48432 0.0
C3927 C 0.1576 0.09443 0.47813 0.0
C3928 C 0.17165 0.0853 0.47013 0.0
C3929 C 0.18995 0.09584 0.46918 0.0
C3930 C 0.13876 0.08284 0.48071 0.0
C3931 C 0.1273 0.07381 0.46467 0.0
C3932 C 0.13193 0.08113 0.49888 0.0
C3933 C 0.14362 0.09001 0.51635 0.0
C3934 C 0.16156 0.08543 0.52008 0.0
C3935 C 0.17261 0.09409 0.53644 0.0
C3936 C 0.1658 0.10723 0.54926 0.0
C3937 C 0.14791 0.11169 0.54578 0.0
C3938 C 0.13682 0.1031 0.52942 0.0
C3939 C 0.05858 0.02126 0.47978 0.0
C3940 C 0.04593 0.03018 0.49047 0.0
C3941 C 0.07708 0.03115 0.47833 0.0
C3942 C 0.08306 0.05027 0.48719 0.0
C3943 C 0.07056 0.05889 0.49839 0.0
C3944 C 0.0522 0.0489 0.5001 0.0
C3945 C 0.10214 0.06151 0.4845 0.0
C3946 C 0.11371 0.0705 0.50054 0.0
C3947 C 0.10894 0.06345 0.46629 0.0
C3948 C 0.09693 0.05568 0.44874 0.0
C3949 C 0.07932 0.06119 0.4456 0.0
C3950 C 0.06797 0.05366 0.42912 0.0
C3951 C 0.07415 0.04072 0.4156 0.0
C3952 C 0.09173 0.03534 0.4185 0.0
C3953 C 0.10312 0.04281 0.43497 0.0
H3954 H 0.06535 0.0349 0.40285 0.0
H3955 H 0.17438 0.11392 0.56192 0.0
H3956 H 0.13519 0.92537 0.76874 0.0
H3957 H 0.15187 0.89808 0.76714 0.0
H3958 H 0.20531 0.93807 0.77784 0.0
H3959 H 0.18866 0.96553 0.77886 0.0
H3960 H 0.2083 0.91256 0.75008 0.0
H3961 H 0.18557 0.90831 0.81131 0.0
H3962 H 0.16307 0.90624 0.83648 0.0
H3963 H 0.13182 0.85245 0.80772 0.0
H3964 H 0.15397 0.85431 0.78221 0.0
H3965 H 0.25925 0.83665 0.77074 0.0
H3966 H 0.24452 0.86543 0.77242 0.0
H3967 H 0.19268 0.83059 0.74587 0.0
H3968 H 0.20746 0.80176 0.74356 0.0
H3969 H 0.19009 0.85367 0.78262 0.0
H3970 H 0.21457 0.85971 0.721 0.0
H3971 H 0.23964 0.86195 0.69837 0.0
H3972 H 0.27051 0.9134 0.73161 0.0
H3973 H 0.24574 0.9113 0.7546 0.0
C3974 C 0.15048 0.92838 0.771 0.0
C3975 C 0.1606 0.94764 0.77391 0.0
C3976 C 0.16002 0.91272 0.77018 0.0
C3977 C 0.17988 0.91595 0.77254 0.0
C3978 C 0.18999 0.93518 0.77594 0.0
C3979 C 0.18045 0.95087 0.7766 0.0
C3980 C 0.19009 0.89931 0.77027 0.0
C3981 C 0.20447 0.89985 0.75747 0.0
C3982 C 0.185 0.88251 0.77965 0.0
C3983 C 0.17132 0.88159 0.79471 0.0
C3984 C 0.17376 0.89616 0.81021 0.0
C3985 C 0.16109 0.895 0.82457 0.0
C3986 C 0.14598 0.87927 0.82366 0.0
C3987 C 0.14351 0.86465 0.80838 0.0
C3988 C 0.15612 0.86575 0.79397 0.0
C3989 C 0.24482 0.83511 0.76494 0.0
C3990 C 0.23441 0.8168 0.75729 0.0
C3991 C 0.23643 0.8516 0.76595 0.0
C3992 C 0.21748 0.85004 0.75945 0.0
C3993 C 0.20729 0.83199 0.75111 0.0
C3994 C 0.21575 0.81556 0.74983 0.0
C3995 C 0.20797 0.86699 0.76238 0.0
C3996 C 0.19381 0.86647 0.77532 0.0
C3997 C 0.21352 0.88393 0.75346 0.0
C3998 C 0.2284 0.88522 0.73963 0.0
C3999 C 0.22679 0.87139 0.72358 0.0
C4000 C 0.24093 0.87266 0.71067 0.0
C4001 C 0.25668 0.88778 0.71357 0.0
C4002 C 0.25831 0.90168 0.72939 0.0
C4003 C 0.24422 0.90047 0.74236 0.0
H4004 H 0.26761 0.88874 0.70355 0.0
H4005 H 0.13623 0.87836 0.83482 0.0
H4006 H 0.29377 0.90521 0.01972 0.0
H4007 H 0.32779 0.91744 0.01875 0.0
H4008 H 0.3166 0.9526 0.9751 0.0
H4009 H 0.28249 0.94077 0.97622 0.0
H4010 H 0.3475 0.92901 0.9697 0.0
H4011 H 0.32467 0.97564 0.01418 0.0
H4012 H 0.308 0.98481 0.04229 0.0
H4013 H 0.34544 0.96036 0.07724 0.0
H4014 H 0.36215 0.95077 0.04926 0.0
H4015 H 0.43395 0.99448 0.96872 0.0
H4016 H 0.40098 0.97818 0.9688 0.0
H4017 H 0.41204 0.96189 0.02437 0.0
H4018 H 0.44481 0.97915 0.02473 0.0
H4019 H 0.38106 0.97377 0.02416 0.0
H4020 H 0.40522 0.92818 0.98192 0.0
H4021 H 0.4218 0.91656 0.95463 0.0
H4022 H 0.38291 0.93563 0.9167 0.0
H4023 H 0.36614 0.94747 0.94374 0.0
C4024 C 0.29856 0.91544 0.00983 0.0
C4025 C 0.28551 0.92212 -0.0019 0.0
C4026 C 0.31794 0.9224 0.00932 0.0
C4027 C 0.32455 0.93589 -0.00312 0.0
C4028 C 0.31165 0.94215 0.98475 0.0
C4029 C 0.29223 0.93547 0.98549 0.0
C4030 C 0.34491 0.94406 -0.00293 0.0
C4031 C 0.35491 0.93895 0.98148 0.0
C4032 C 0.35448 0.95643 0.01277 0.0
C4033 C 0.3445 0.96228 0.0296 0.0
C4034 C 0.32922 0.97204 0.02783 0.0
C4035 C 0.31979 0.97736 0.04374 0.0
C4036 C 0.32562 0.97312 0.06153 0.0
C4037 C 0.34092 0.9636 0.06345 0.0
C4038 C 0.35038 0.95823 0.04757 0.0
C4039 C 0.42934 0.98732 0.9809 0.0
C4040 C 0.44186 0.98804 -0.00328 0.0
C4041 C 0.41053 0.97788 0.98088 0.0
C4042 C 0.40408 0.96845 -0.00357 0.0
C4043 C 0.41668 0.96903 0.01219 0.0
C4044 C 0.43538 0.97889 0.0124 0.0
C4045 C 0.38396 0.95886 -0.00335 0.0
C4046 C 0.37389 0.96371 0.01236 0.0
C4047 C 0.37443 0.94592 0.98118 0.0
C4048 C 0.38452 0.93886 0.96488 0.0
C4049 C 0.40028 0.93002 0.96777 0.0
C4050 C 0.4097 0.92337 0.95235 0.0
C4051 C 0.40346 0.92543 0.93397 0.0
C4052 C 0.38774 0.93407 0.93095 0.0
C4053 C 0.37824 0.94071 0.94631 0.0
H4054 H 0.41078 0.92027 0.92206 0.0
H4055 H 0.3183 0.97725 0.07384 0.0
H4056 H 0.86604 0.59666 0.79504 0.0
H4057 H 0.8422 0.61727 0.7982 0.0
H4058 H 0.79983 0.57039 0.77 0.0
H4059 H 0.82361 0.54965 0.76673 0.0
H4060 H 0.80271 0.60337 0.75303 0.0
H4061 H 0.79468 0.58661 0.81564 0.0
H4062 H 0.80435 0.58127 0.84799 0.0
H4063 H 0.83135 0.64131 0.85966 0.0
H4064 H 0.82209 0.64696 0.82731 0.0
H4065 H 0.74577 0.67599 0.75374 0.0
H4066 H 0.75447 0.64495 0.75994 0.0
H4067 H 0.8037 0.67623 0.79432 0.0
H4068 H 0.79476 0.70696 0.78871 0.0
H4069 H 0.7895 0.64514 0.80958 0.0
H4070 H 0.80537 0.65984 0.74637 0.0
H4071 H 0.79817 0.66657 0.71384 0.0
H4072 H 0.75953 0.61182 0.70314 0.0
H4073 H 0.76637 0.60488 0.73571 0.0
C4074 C 0.85157 0.59061 0.78983 0.0
C4075 C 0.84673 0.57162 0.78046 0.0
C4076 C 0.83792 0.60235 0.79179 0.0
C4077 C 0.81922 0.59529 0.78444 0.0
C4078 C 0.81417 0.57605 0.77584 0.0
C4079 C 0.82778 0.56426 0.77396 0.0
C4080 C 0.80585 0.60886 0.78344 0.0
C4081 C 0.79934 0.61213 0.76544 0.0
C4082 C 0.80187 0.62055 0.7996 0.0
C4083 C 0.80773 0.61717 0.819 0.0
C4084 C 0.80281 0.59864 0.82505 0.0
C4085 C 0.8082 0.59556 0.8434 0.0
C4086 C 0.81847 0.61093 0.85586 0.0
C4087 C 0.82341 0.62941 0.84999 0.0
C4088 C 0.81809 0.63255 0.83164 0.0
C4089 C 0.75832 0.67613 0.76276 0.0
C4090 C 0.76978 0.69378 0.77051 0.0
C4091 C 0.76327 0.65845 0.76629 0.0
C4092 C 0.77988 0.65829 0.77738 0.0
C4093 C 0.79082 0.67597 0.78575 0.0
C4094 C 0.78579 0.69354 0.78238 0.0
C4095 C 0.787 0.64006 0.77914 0.0
C4096 C 0.79236 0.63594 0.79724 0.0
C4097 C 0.7903 0.6278 0.76305 0.0
C4098 C 0.78617 0.63197 0.74351 0.0
C4099 C 0.79524 0.64931 0.73711 0.0
C4100 C 0.79124 0.65315 0.71867 0.0
C4101 C 0.77835 0.63967 0.70646 0.0
C4102 C 0.76947 0.62228 0.71264 0.0
C4103 C 0.77339 0.61838 0.73108 0.0
H4104 H 0.77527 0.64266 0.69218 0.0
H4105 H 0.82259 0.60853 0.87008 0.0
H4106 H 0.79574 0.59562 0.02467 0.0
H4107 H 0.82479 0.58218 0.02417 0.0
H4108 H 0.84118 0.61143 0.9756 0.0
H4109 H 0.81223 0.62522 0.97614 0.0
H4110 H 0.84312 0.57064 0.97224 0.0
H4111 H 0.86422 0.62919 0.01406 0.0
H4112 H 0.8629 0.65344 0.04137 0.0
H4113 H 0.86566 0.61024 0.07913 0.0
H4114 H 0.8667 0.58563 0.052 0.0
H4115 H 0.93815 0.5516 0.97551 0.0
H4116 H 0.90964 0.56595 0.97311 0.0
H4117 H 0.89259 0.54549 0.02588 0.0
H4118 H 0.92107 0.5313 0.0284 0.0
H4119 H 0.89171 0.58347 0.02587 0.0
H4120 H 0.87089 0.5248 0.98415 0.0
H4121 H 0.8713 0.50024 0.95689 0.0
H4122 H 0.86649 0.54273 0.91889 0.0
H4123 H 0.86693 0.5678 0.94589 0.0
C4124 C 0.80557 0.5993 0.01395 0.0
C4125 C 0.80172 0.61148 0.00045 0.0
C4126 C 0.82216 0.59165 0.01371 0.0
C4127 C 0.83507 0.59587 -0.00013 0.0
C4128 C 0.83134 0.60805 0.98639 0.0
C4129 C 0.81487 0.61597 0.98679 0.0
C4130 C 0.85224 0.5871 -0.00071 0.0
C4131 C 0.85397 0.57365 0.98377 0.0
C4132 C 0.86602 0.59077 0.01461 0.0
C4133 C 0.86533 0.60551 0.03097 0.0
C4134 C 0.86435 0.6248 0.02817 0.0
C4135 C 0.86369 0.63863 0.04362 0.0
C4136 C 0.86414 0.63337 0.06197 0.0
C4137 C 0.86529 0.61429 0.06491 0.0
C4138 C 0.86592 0.6004 0.04949 0.0
C4139 C 0.92815 0.54994 0.98643 0.0
C4140 C 0.93177 0.5404 0.00216 0.0
C4141 C 0.91189 0.55811 0.98504 0.0
C4142 C 0.89902 0.55678 -0.00067 0.0
C4143 C 0.90239 0.54674 0.01475 0.0
C4144 C 0.91859 0.53856 0.01612 0.0
C4145 C 0.88259 0.56675 -0.00114 0.0
C4146 C 0.88097 0.58048 0.01422 0.0
C4147 C 0.8689 0.56326 0.98339 0.0
C4148 C 0.86926 0.5483 0.96711 0.0
C4149 C 0.87032 0.52903 0.97 0.0
C4150 C 0.8704 0.515 0.95457 0.0
C4151 C 0.86914 0.51997 0.93615 0.0
C4152 C 0.86776 0.53897 0.93314 0.0
C4153 C 0.86789 0.55311 0.94851 0.0
H4154 H 0.8691 0.50907 0.92422 0.0
H4155 H 0.86364 0.6441 0.07392 0.0
H4156 H 0.13625 0.07773 0.7532 0.0
H4157 H 0.15818 0.10862 0.75458 0.0
H4158 H 0.20062 0.08504 0.78429 0.0
H4159 H 0.17863 0.05374 0.78297 0.0
H4160 H 0.19649 0.12341 0.79963 0.0
H4161 H 0.20507 0.08857 0.73987 0.0
H4162 H 0.19485 0.06964 0.70885 0.0
H4163 H 0.17106 0.11701 0.69104 0.0
H4164 H 0.18081 0.13609 0.72208 0.0
H4165 H 0.26882 0.20467 0.78634 0.0
H4166 H 0.25055 0.17195 0.78802 0.0
H4167 H 0.20651 0.18377 0.75036 0.0
H4168 H 0.22495 0.21611 0.74818 0.0
H4169 H 0.21418 0.14958 0.73958 0.0
H4170 H 0.20173 0.18318 0.79849 0.0
H4171 H 0.21003 0.20307 0.82935 0.0
H4172 H 0.23873 0.1596 0.84857 0.0
H4173 H 0.23082 0.13956 0.81769 0.0
C4174 C 0.15021 0.07902 0.76012 0.0
C4175 C 0.1557 0.06317 0.76791 0.0
C4176 C 0.16274 0.09672 0.76083 0.0
C4177 C 0.18106 0.09902 0.76934 0.0
C4178 C 0.18653 0.08348 0.7776 0.0
C4179 C 0.17398 0.06562 0.77678 0.0
C4180 C 0.19441 0.1177 0.76925 0.0
C4181 C 0.20069 0.12903 0.78654 0.0
C4182 C 0.19939 0.12516 0.75212 0.0
C4183 C 0.19353 0.11369 0.7334 0.0
C4184 C 0.1975 0.09488 0.72941 0.0
C4185 C 0.19181 0.08413 0.71181 0.0
C4186 C 0.18226 0.09209 0.698 0.0
C4187 C 0.17842 0.11084 0.70176 0.0
C4188 C 0.18404 0.12163 0.71936 0.0
C4189 C 0.2552 0.20026 0.77851 0.0
C4190 C 0.24825 0.21289 0.76718 0.0
C4191 C 0.24474 0.18162 0.77954 0.0
C4192 C 0.22708 0.17545 0.76943 0.0
C4193 C 0.2201 0.18819 0.75825 0.0
C4194 C 0.2306 0.20671 0.75711 0.0
C4195 C 0.21602 0.15556 0.76995 0.0
C4196 C 0.21018 0.14395 0.75271 0.0
C4197 C 0.21118 0.14801 0.78711 0.0
C4198 C 0.21587 0.15997 0.80571 0.0
C4199 C 0.20994 0.17793 0.80924 0.0
C4200 C 0.21455 0.18922 0.82675 0.0
C4201 C 0.22495 0.18263 0.84089 0.0
C4202 C 0.23071 0.1647 0.83758 0.0
C4203 C 0.22616 0.15336 0.82009 0.0
H4204 H 0.22851 0.19139 0.85444 0.0
H4205 H 0.17788 0.08375 0.68438 0.0
H4206 H 0.34413 0.98122 0.28052 0.0
H4207 H 0.32027 0.95192 0.28209 0.0
H4208 H 0.35771 0.91658 0.25673 0.0
H4209 H 0.38167 0.94572 0.25512 0.0
H4210 H 0.32012 0.90555 0.2417 0.0
H4211 H 0.35551 0.92039 0.30263 0.0
H4212 H 0.36833 0.94149 0.3319 0.0
H4213 H 0.31195 0.94676 0.34622 0.0
H4214 H 0.29882 0.92589 0.31687 0.0
H4215 H 0.29318 0.81757 0.29392 0.0
H4216 H 0.30851 0.85181 0.29581 0.0
H4217 H 0.26339 0.86278 0.25892 0.0
H4218 H 0.24875 0.82827 0.25602 0.0
H4219 H 0.30215 0.88776 0.30495 0.0
H4220 H 0.28035 0.89063 0.22844 0.0
H4221 H 0.26596 0.86743 0.201 0.0
H4222 H 0.29687 0.82494 0.21861 0.0
H4223 H 0.31153 0.84797 0.24612 0.0
C4224 C 0.34725 0.96723 0.27515 0.0
C4225 C 0.36485 0.96577 0.2678 0.0
C4226 C 0.33361 0.95053 0.27608 0.0
C4227 C 0.33731 0.93214 0.2696 0.0
C4228 C 0.35461 0.93068 0.26176 0.0
C4229 C 0.36831 0.94733 0.26095 0.0
C4230 C 0.32357 0.91428 0.27176 0.0
C4231 C 0.3161 0.90173 0.25551 0.0
C4232 C 0.31833 0.90932 0.28979 0.0
C4233 C 0.32621 0.92177 0.30746 0.0
C4234 C 0.34586 0.92618 0.31194 0.0
C4235 C 0.35318 0.93807 0.32856 0.0
C4236 C 0.34097 0.94551 0.34088 0.0
C4237 C 0.3214 0.94102 0.33664 0.0
C4238 C 0.31401 0.92916 0.32002 0.0
C4239 C 0.28641 0.82741 0.28651 0.0
C4240 C 0.27009 0.82037 0.27452 0.0
C4241 C 0.29509 0.84696 0.28766 0.0
C4242 C 0.28733 0.85971 0.27712 0.0
C4243 C 0.26989 0.85305 0.26675 0.0
C4244 C 0.26154 0.8334 0.26511 0.0
C4245 C 0.29881 0.87897 0.27492 0.0
C4246 C 0.30591 0.89176 0.29113 0.0
C4247 C 0.3039 0.88407 0.25688 0.0
C4248 C 0.29694 0.87097 0.23932 0.0
C4249 C 0.28426 0.87643 0.2263 0.0
C4250 C 0.27592 0.86325 0.21086 0.0
C4251 C 0.28031 0.84463 0.20822 0.0
C4252 C 0.29337 0.8393 0.22078 0.0
C4253 C 0.30173 0.85243 0.23627 0.0
H4254 H 0.27382 0.83444 0.19628 0.0
H4255 H 0.34666 0.95471 0.35374 0.0
H4256 H 0.50572 0.31325 0.58113 0.0
H4257 H 0.49863 0.33618 0.55953 0.0
H4258 H 0.51496 0.3836 0.60423 0.0
H4259 H 0.52127 0.36071 0.62598 0.0
H4260 H 0.48599 0.38965 0.58525 0.0
H4261 H 0.54537 0.37195 0.5691 0.0
H4262 H 0.5668 0.34948 0.55957 0.0
H4263 H 0.53239 0.32932 0.50808 0.0
H4264 H 0.51062 0.35152 0.51742 0.0
H4265 H 0.52945 0.45887 0.51691 0.0
H4266 H 0.53001 0.42945 0.53193 0.0
H4267 H 0.4689 0.41633 0.52807 0.0
H4268 H 0.46815 0.44604 0.51339 0.0
H4269 H 0.51799 0.39145 0.52497 0.0
H4270 H 0.45431 0.40051 0.56976 0.0
H4271 H 0.43724 0.42638 0.58148 0.0
H4272 H 0.48761 0.46942 0.57975 0.0
H4273 H 0.50505 0.44378 0.56836 0.0
C4274 C 0.50764 0.32855 0.58635 0.0
C4275 C 0.51416 0.33522 0.60519 0.0
C4276 C 0.50365 0.34165 0.57399 0.0
C4277 C 0.50655 0.36167 0.58017 0.0
C4278 C 0.51258 0.36823 0.59913 0.0
C4279 C 0.51626 0.35513 0.61154 0.0
C4280 C 0.50399 0.37597 0.56687 0.0
C4281 C 0.49287 0.38992 0.572 0.0
C4282 C 0.5132 0.37656 0.5497 0.0
C4283 C 0.52626 0.36322 0.54406 0.0
C4284 C 0.5423 0.36262 0.55581 0.0
C4285 C 0.55452 0.34995 0.55044 0.0
C4286 C 0.55093 0.33793 0.53326 0.0
C4287 C 0.53513 0.3386 0.5214 0.0
C4288 C 0.52286 0.35123 0.52672 0.0
C4289 C 0.5161 0.4496 0.51896 0.0
C4290 C 0.49874 0.45501 0.51429 0.0
C4291 C 0.51646 0.43272 0.52748 0.0
C4292 C 0.4995 0.42094 0.53145 0.0
C4293 C 0.48215 0.42546 0.52544 0.0
C4294 C 0.48176 0.44242 0.51701 0.0
C4295 C 0.50011 0.40511 0.54343 0.0
C4296 C 0.51084 0.39091 0.53805 0.0
C4297 C 0.49114 0.40473 0.56073 0.0
C4298 C 0.48089 0.42023 0.56797 0.0
C4299 C 0.46174 0.41548 0.57195 0.0
C4300 C 0.45201 0.43011 0.57854 0.0
C4301 C 0.46131 0.44954 0.58129 0.0
C4302 C 0.4804 0.45437 0.57756 0.0
C4303 C 0.49021 0.4398 0.57103 0.0
H4304 H 0.45374 0.46084 0.58635 0.0
H4305 H 0.5604 0.32814 0.52912 0.0
H4306 H 0.44811 0.75012 0.31681 0.0
H4307 H 0.41539 0.74564 0.30427 0.0
H4308 H 0.39643 0.74778 0.36096 0.0
H4309 H 0.42944 0.75156 0.37366 0.0
H4310 H 0.37108 0.72246 0.33658 0.0
H4311 H 0.4019 0.78825 0.33938 0.0
H4312 H 0.42729 0.81583 0.3351 0.0
H4313 H 0.42001 0.80111 0.27486 0.0
H4314 H 0.39477 0.77324 0.27879 0.0
H4315 H 0.29066 0.76397 0.29819 0.0
H4316 H 0.31854 0.76013 0.31734 0.0
H4317 H 0.33882 0.73035 0.2686 0.0
H4318 H 0.31049 0.73329 0.24953 0.0
H4319 H 0.36151 0.77084 0.29295 0.0
H4320 H 0.32993 0.70312 0.29275 0.0
H4321 H 0.30334 0.67786 0.29948 0.0
H4322 H 0.31074 0.6994 0.35846 0.0
H4323 H 0.33697 0.72532 0.35202 0.0
C4324 C 0.43696 0.74938 0.32662 0.0
C4325 C 0.44128 0.7515 0.3462 0.0
C4326 C 0.41828 0.74684 0.31944 0.0
C4327 C 0.40355 0.74694 0.3317 0.0
C4328 C 0.40764 0.74783 0.35127 0.0
C4329 C 0.42644 0.75001 0.3585 0.0
C4330 C 0.38429 0.74758 0.32387 0.0
C4331 C 0.36893 0.73317 0.32723 0.0
C4332 C 0.38141 0.76173 0.31187 0.0
C4333 C 0.39653 0.77856 0.30939 0.0
C4334 C 0.4058 0.79081 0.32522 0.0
C4335 C 0.42016 0.80651 0.32286 0.0
C4336 C 0.42528 0.8102 0.30472 0.0
C4337 C 0.41603 0.79822 0.28891 0.0
C4338 C 0.40168 0.78248 0.29119 0.0
C4339 C 0.30079 0.75612 0.29169 0.0
C4340 C 0.2984 0.74879 0.27242 0.0
C4341 C 0.31667 0.75395 0.30264 0.0
C4342 C 0.3305 0.74475 0.29438 0.0
C4343 C 0.32807 0.73723 0.27521 0.0
C4344 C 0.31197 0.73899 0.26435 0.0
C4345 C 0.34863 0.74526 0.30499 0.0
C4346 C 0.36371 0.76015 0.30233 0.0
C4347 C 0.35102 0.73189 0.31794 0.0
C4348 C 0.3352 0.7164 0.32182 0.0
C4349 C 0.32566 0.70274 0.3071 0.0
C4350 C 0.31068 0.68828 0.31088 0.0
C4351 C 0.30527 0.68715 0.32938 0.0
C4352 C 0.31488 0.70043 0.34414 0.0
C4353 C 0.32977 0.71503 0.34042 0.0
H4354 H 0.29369 0.67591 0.33229 0.0
H4355 H 0.4364 0.82236 0.30292 0.0
H4356 H 0.04589 0.72289 0.14237 0.0
H4357 H 0.04378 0.69204 0.12224 0.0
H4358 H 0.00435 0.70943 0.0832 0.0
H4359 H 0.00645 0.74038 0.10314 0.0
H4360 H 0.99355 0.6708 0.09188 0.0
H4361 H 0.04764 0.71262 0.07159 0.0
H4362 H 0.0784 0.73523 0.07599 0.0
H4363 H 0.10414 0.69141 0.09872 0.0
H4364 H 0.07344 0.66862 0.09471 0.0
H4365 H -0.00544 0.5945 0.01954 0.0
H4366 H -0.00275 0.62722 0.03614 0.0
H4367 H 0.04457 0.61808 0.07117 0.0
H4368 H 0.04248 0.58572 0.05403 0.0
H4369 H 0.05097 0.65358 0.06351 0.0
H4370 H -0.00259 0.61223 0.08562 0.0
H4371 H 0.96683 0.58927 0.08214 0.0
H4372 H 0.94025 0.63148 0.05754 0.0
H4373 H 0.97075 0.65462 0.06065 0.0
C4374 C 0.03667 0.72012 0.12957 0.0
C4375 C 0.02638 0.73411 0.12432 0.0
C4376 C 0.03556 0.70253 0.11805 0.0
C4377 C 0.02404 0.69858 0.10118 0.0
C4378 C 0.01335 0.71226 0.09615 0.0
C4379 C 0.01462 0.72994 0.10754 0.0
C4380 C 0.02331 0.68023 0.08868 0.0
C4381 C 0.00603 0.6671 0.08545 0.0
C4382 C 0.0397 0.67533 0.08066 0.0
C4383 C 0.05819 0.68898 0.08302 0.0
C4384 C 0.05982 0.70786 0.07768 0.0
C4385 C 0.07725 0.7207 0.08007 0.0
C4386 C 0.09321 0.71478 0.08768 0.0
C4387 C 0.09176 0.69598 0.09286 0.0
C4388 C 0.07435 0.6831 0.09051 0.0
C4389 C 0.00566 0.59958 0.03065 0.0
C4390 C 0.01822 0.58753 0.03559 0.0
C4391 C 0.00712 0.61823 0.04021 0.0
C4392 C 0.02081 0.62495 0.05525 0.0
C4393 C 0.03384 0.61321 0.05968 0.0
C4394 C 0.03263 0.5947 0.04987 0.0
C4395 C 0.02121 0.64391 0.0668 0.0
C4396 C 0.03845 0.65721 0.06987 0.0
C4397 C 0.0048 0.64888 0.07485 0.0
C4398 C 0.9864 0.63508 0.0732 0.0
C4399 C 0.98506 0.61657 0.07937 0.0
C4400 C 0.96775 0.60353 0.07747 0.0
C4401 C 0.95162 0.60889 0.06958 0.0
C4402 C 0.95276 0.62734 0.06363 0.0
C4403 C 0.97005 0.64043 0.06547 0.0
H4404 H 0.93823 0.59877 0.0681 0.0
H4405 H 0.10669 0.72474 0.08952 0.0
H4406 H 0.03956 0.26548 0.83238 0.0
H4407 H 0.06775 0.26366 0.81501 0.0
H4408 H 0.09375 0.24298 0.86268 0.0
H4409 H 0.06574 0.24572 0.88052 0.0
H4410 H 0.11904 0.26728 0.84843 0.0
H4411 H 0.07364 0.21181 0.82199 0.0
H4412 H 0.04282 0.19367 0.8077 0.0
H4413 H 0.04921 0.22598 0.75981 0.0
H4414 H 0.07997 0.2445 0.77393 0.0
H4415 H 0.18924 0.23222 0.79445 0.0
H4416 H 0.16027 0.23107 0.81138 0.0
H4417 H 0.13975 0.26744 0.77331 0.0
H4418 H 0.16898 0.269 0.75647 0.0
H4419 H 0.11219 0.23351 0.783 0.0
H4420 H 0.15819 0.28945 0.81154 0.0
H4421 H 0.18951 0.30561 0.8263 0.0
H4422 H 0.18235 0.26916 0.87107 0.0
H4423 H 0.15109 0.25256 0.85641 0.0
C4424 C 0.05128 0.26056 0.83918 0.0
C4425 C 0.05042 0.25559 0.85773 0.0
C4426 C 0.06736 0.25941 0.8292 0.0
C4427 C 0.08271 0.25271 0.83735 0.0
C4428 C 0.08204 0.24808 0.85605 0.0
C4429 C 0.06605 0.24962 0.86621 0.0
C4430 C 0.09942 0.25068 0.82632 0.0
C4431 C 0.11753 0.25962 0.83425 0.0
C4432 C 0.0975 0.24085 0.80771 0.0
C4433 C 0.07905 0.22965 0.7991 0.0
C4434 C 0.06842 0.21513 0.80847 0.0
C4435 C 0.05097 0.20477 0.80039 0.0
C4436 C 0.04404 0.2087 0.78288 0.0
C4437 C 0.05459 0.22296 0.77338 0.0
C4438 C 0.07204 0.23338 0.7814 0.0
C4439 C 0.17843 0.23972 0.78949 0.0
C4440 C 0.18131 0.25078 0.77422 0.0
C4441 C 0.16196 0.2391 0.79922 0.0
C4442 C 0.14806 0.24933 0.79367 0.0
C4443 C 0.15041 0.2595 0.77777 0.0
C4444 C 0.16704 0.26037 0.76819 0.0
C4445 C 0.13155 0.25024 0.80508 0.0
C4446 C 0.11358 0.24106 0.79722 0.0
C4447 C 0.13363 0.25953 0.82385 0.0
C4448 C 0.15238 0.26961 0.83276 0.0
C4449 C 0.16336 0.28475 0.82443 0.0
C4450 C 0.18109 0.29402 0.8328 0.0
C4451 C 0.18794 0.28839 0.84959 0.0
C4452 C 0.17704 0.27349 0.85806 0.0
C4453 C 0.15931 0.26416 0.84973 0.0
H4454 H 0.20165 0.2956 0.85606 0.0
H4455 H 0.03053 0.20066 0.77665 0.0
H4456 H 0.48486 0.69206 0.90601 0.0
H4457 H 0.47983 0.66404 0.92404 0.0
H4458 H 0.51777 0.69681 0.96946 0.0
H4459 H 0.52283 0.72493 0.95157 0.0
H4460 H 0.52646 0.6606 0.95758 0.0
H4461 H 0.47159 0.687 0.97553 0.0
H4462 H 0.44212 0.69925 0.96961 0.0
H4463 H 0.41678 0.64434 0.93847 0.0
H4464 H 0.4462 0.63183 0.94397 0.0
H4465 H 0.51464 0.58895 0.01916 0.0
H4466 H 0.51328 0.62016 0.0076 0.0
H4467 H 0.47172 0.59132 0.96339 0.0
H4468 H 0.47285 0.56008 0.97487 0.0
H4469 H 0.46449 0.62637 0.97588 0.0
H4470 H 0.51771 0.60022 0.95474 0.0
H4471 H 0.54643 0.58616 0.9586 0.0
H4472 H 0.57448 0.63869 0.99218 0.0
H4473 H 0.54574 0.65292 0.98884 0.0
C4474 C 0.49193 0.6934 0.91995 0.0
C4475 C 0.50427 0.7107 0.92735 0.0
C4476 C 0.489 0.67739 0.93025 0.0
C4477 C 0.49839 0.67839 0.9481 0.0
C4478 C 0.51039 0.69577 0.95571 0.0
C4479 C 0.5132 0.71183 0.94549 0.0
C4480 C 0.49661 0.66093 0.95831 0.0
C4481 C 0.51297 0.65333 0.96192 0.0
C4482 C 0.47889 0.65106 0.9633 0.0
C4483 C 0.46116 0.65854 0.96003 0.0
C4484 C 0.45979 0.67758 0.96729 0.0
C4485 C 0.44308 0.68457 0.96403 0.0
C4486 C 0.4276 0.6726 0.95363 0.0
C4487 C 0.42879 0.6536 0.94651 0.0
C4488 C 0.44547 0.64655 0.94971 0.0
C4489 C 0.50496 0.58926 0.00717 0.0
C4490 C 0.49409 0.57197 -0.00225 0.0
C4491 C 0.50425 0.60711 0.00055 0.0
C4492 C 0.49275 0.60797 0.98434 0.0
C4493 C 0.48087 0.59095 0.97576 0.0
C4494 C 0.48157 0.57309 0.98235 0.0
C4495 C 0.49437 0.62621 0.97534 0.0
C4496 C 0.478 0.63382 0.97178 0.0
C4497 C 0.51203 0.6359 0.97 0.0
C4498 C 0.5295 0.62756 0.97171 0.0
C4499 C 0.52996 0.60873 0.96305 0.0
C4500 C 0.54625 0.60073 0.96514 0.0
C4501 C 0.56227 0.61151 0.97566 0.0
C4502 C 0.56205 0.63034 0.98406 0.0
C4503 C 0.54576 0.63839 0.98208 0.0
H4504 H 0.57488 0.6053 0.97727 0.0
H4505 H 0.41468 0.67803 0.95113 0.0
H4506 H 0.0761 0.78358 0.63955 0.0
H4507 H 0.10089 0.7721 0.65722 0.0
H4508 H 0.06877 0.77346 0.70694 0.0
H4509 H 0.04404 0.78524 0.68948 0.0
H4510 H 0.10609 0.78429 0.71624 0.0
H4511 H 0.06544 0.73161 0.6817 0.0
H4512 H 0.0457 0.71426 0.65381 0.0
H4513 H 0.09552 0.71209 0.62317 0.0
H4514 H 0.1156 0.72975 0.65085 0.0
H4515 H 0.16634 0.72847 0.75671 0.0
H4516 H 0.1356 0.73274 0.74335 0.0
H4517 H 0.16034 0.74369 0.6906 0.0
H4518 H 0.19099 0.73924 0.70375 0.0
H4519 H 0.12224 0.72284 0.68627 0.0
H4520 H 0.16143 0.77975 0.72548 0.0
H4521 H 0.17691 0.79658 0.75584 0.0
H4522 H 0.12369 0.7875 0.78155 0.0
H4523 H 0.10792 0.77012 0.75154 0.0
C4524 C 0.0745 0.78185 0.65435 0.0
C4525 C 0.05801 0.78501 0.66306 0.0
C4526 C 0.0886 0.77518 0.66439 0.0
C4527 C 0.08638 0.77149 0.68322 0.0
C4528 C 0.07064 0.77607 0.69237 0.0
C4529 C 0.05654 0.78279 0.68236 0.0
C4530 C 0.09987 0.76164 0.69283 0.0
C4531 C 0.10943 0.77071 0.70987 0.0
C4532 C 0.10379 0.74365 0.68474 0.0
C4533 C 0.09202 0.73217 0.6683 0.0
C4534 C 0.0722 0.72749 0.669 0.0
C4535 C 0.06095 0.71761 0.65324 0.0
C4536 C 0.06934 0.71217 0.63671 0.0
C4537 C 0.08904 0.71637 0.63599 0.0
C4538 C 0.10039 0.72629 0.65173 0.0
C4539 C 0.16503 0.7311 0.74205 0.0
C4540 C 0.18101 0.73372 0.73126 0.0
C4541 C 0.14751 0.7336 0.73449 0.0
C4542 C 0.14586 0.73878 0.7161 0.0
C4543 C 0.16139 0.73962 0.70479 0.0
C4544 C 0.17887 0.73712 0.71232 0.0
C4545 C 0.12899 0.7459 0.70933 0.0
C4546 C 0.11871 0.73627 0.69279 0.0
C4547 C 0.12388 0.76299 0.71834 0.0
C4548 C 0.13354 0.77341 0.73633 0.0
C4549 C 0.15306 0.78116 0.73765 0.0
C4550 C 0.16188 0.79083 0.75478 0.0
C4551 C 0.15132 0.79312 0.77058 0.0
C4552 C 0.13188 0.78569 0.76931 0.0
C4553 C 0.12299 0.77589 0.75227 0.0
H4554 H 0.15821 0.80067 0.78379 0.0
H4555 H 0.06053 0.70472 0.6245 0.0
H4556 H 0.06704 0.34316 0.40121 0.0
H4557 H 0.06822 0.37478 0.41948 0.0
H4558 H 0.03193 0.34744 0.45947 0.0
H4559 H 0.03103 0.31571 0.44153 0.0
H4560 H 0.03956 0.39226 0.42432 0.0
H4561 H 0.03848 0.37518 0.50213 0.0
H4562 H 0.05119 0.35348 0.52226 0.0
H4563 H 0.09678 0.35039 0.48576 0.0
H4564 H 0.0845 0.37227 0.46557 0.0
H4565 H 0.00375 0.46439 0.48077 0.0
H4566 H 0.01072 0.43474 0.46384 0.0
H4567 H 0.06597 0.44568 0.49346 0.0
H4568 H 0.05846 0.47475 0.51129 0.0
H4569 H 0.05239 0.41015 0.49346 0.0
H4570 H 0.05856 0.45032 0.44178 0.0
H4571 H 0.04895 0.47175 0.41947 0.0
H4572 H -0.00204 0.43008 0.40265 0.0
H4573 H 0.00754 0.40817 0.42454 0.0
C4574 C 0.05958 0.34381 0.41407 0.0
C4575 C 0.04884 0.3269 0.41984 0.0
C4576 C 0.06024 0.36191 0.42449 0.0
C4577 C 0.05019 0.36351 0.44085 0.0
C4578 C 0.04004 0.34657 0.44705 0.0
C4579 C 0.03948 0.32842 0.43671 0.0
C4580 C 0.04888 0.38299 0.45038 0.0
C4581 C 0.04252 0.39622 0.43943 0.0
C4582 C 0.05282 0.38822 0.47006 0.0
C4583 C 0.06046 0.37524 0.48225 0.0
C4584 C 0.05127 0.36994 0.49845 0.0
C4585 C 0.05838 0.35759 0.50986 0.0
C4586 C 0.07475 0.35052 0.50526 0.0
C4587 C 0.08407 0.35582 0.48927 0.0
C4588 C 0.07701 0.36817 0.47782 0.0
C4589 C 0.01745 0.46054 0.48351 0.0
C4590 C 0.03057 0.47179 0.49734 0.0
C4591 C 0.02151 0.44366 0.4737 0.0
C4592 C 0.03903 0.43802 0.47708 0.0
C4593 C 0.05234 0.44963 0.49058 0.0
C4594 C 0.04809 0.46627 0.50071 0.0
C4595 C 0.04305 0.41951 0.46737 0.0
C4596 C 0.04971 0.40634 0.47831 0.0
C4597 C 0.0397 0.41439 0.44759 0.0
C4598 C 0.03367 0.42776 0.43489 0.0
C4599 C 0.04524 0.44582 0.43341 0.0
C4600 C 0.03982 0.45801 0.42079 0.0
C4601 C 0.02274 0.45237 0.40979 0.0
C4602 C 0.01114 0.43444 0.41123 0.0
C4603 C 0.01662 0.42209 0.42363 0.0
H4604 H 0.01848 0.46179 0.40009 0.0
H4605 H 0.08023 0.34095 0.51411 0.0
H4606 H 0.44413 0.29289 0.1511 0.0
H4607 H 0.41587 0.30097 0.16574 0.0
H4608 H 0.42072 0.2607 0.20649 0.0
H4609 H 0.44863 0.25244 0.192 0.0
H4610 H 0.38472 0.25665 0.19191 0.0
H4611 H 0.43582 0.30938 0.2178 0.0
H4612 H 0.4619 0.33699 0.21556 0.0
H4613 H 0.42354 0.3667 0.18768 0.0
H4614 H 0.39727 0.33913 0.18956 0.0
H4615 H 0.33208 0.27528 0.26627 0.0
H4616 H 0.36109 0.27677 0.2495 0.0
H4617 H 0.34308 0.31756 0.21482 0.0
H4618 H 0.31409 0.31646 0.23193 0.0
H4619 H 0.38303 0.32336 0.22172 0.0
H4620 H 0.33119 0.27209 0.19915 0.0
H4621 H 0.30493 0.24531 0.20329 0.0
H4622 H 0.34448 0.21288 0.22505 0.0
H4623 H 0.37097 0.23964 0.22128 0.0
C4624 C 0.43911 0.28571 0.16313 0.0
C4625 C 0.44867 0.27204 0.1704 0.0
C4626 C 0.42303 0.2904 0.1715 0.0
C4627 C 0.4163 0.28151 0.18725 0.0
C4628 C 0.42567 0.26771 0.19432 0.0
C4629 C 0.44168 0.26305 0.18603 0.0
C4630 C 0.39957 0.28642 0.19666 0.0
C4631 C 0.38438 0.27123 0.19844 0.0
C4632 C 0.39888 0.30555 0.2047 0.0
C4633 C 0.41465 0.32211 0.20361 0.0
C4634 C 0.43299 0.32173 0.21105 0.0
C4635 C 0.44779 0.33739 0.20987 0.0
C4636 C 0.44439 0.35356 0.20142 0.0
C4637 C 0.42616 0.35414 0.19418 0.0
C4638 C 0.41131 0.33852 0.19531 0.0
C4639 C 0.3346 0.28504 0.25548 0.0
C4640 C 0.32084 0.29558 0.2502 0.0
C4641 C 0.35113 0.28586 0.24591 0.0
C4642 C 0.3539 0.29684 0.2306 0.0
C4643 C 0.34107 0.30887 0.22649 0.0
C4644 C 0.32457 0.30827 0.2363 0.0
C4645 C 0.36865 0.29346 0.21751 0.0
C4646 C 0.38328 0.30888 0.21491 0.0
C4647 C 0.36885 0.27452 0.20862 0.0
C4648 C 0.35306 0.25793 0.20999 0.0
C4649 C 0.33428 0.25925 0.20481 0.0
C4650 C 0.31936 0.24409 0.20712 0.0
C4651 C 0.32303 0.22742 0.21447 0.0
C4652 C 0.34166 0.22581 0.21936 0.0
C4653 C 0.35664 0.24097 0.21711 0.0
H4654 H 0.31144 0.21574 0.21637 0.0
H4655 H 0.45587 0.36567 0.20053 0.0
H4656 H 0.5625 0.50343 0.30725 0.0
H4657 H 0.54862 0.50145 0.3377 0.0
H4658 H 0.60191 0.49387 0.36309 0.0
H4659 H 0.61594 0.49549 0.33238 0.0
H4660 H 0.57202 0.47131 0.37745 0.0
H4661 H 0.59083 0.53785 0.36825 0.0
H4662 H 0.59344 0.56686 0.35123 0.0
H4663 H 0.53301 0.56213 0.34931 0.0
H4664 H 0.53 0.5329 0.36607 0.0
H4665 H 0.53187 0.52838 0.46255 0.0
H4666 H 0.55223 0.52661 0.43613 0.0
H4667 H 0.51693 0.47234 0.41238 0.0
H4668 H 0.49652 0.47396 0.43904 0.0
H4669 H 0.54255 0.52742 0.39996 0.0
H4670 H 0.54541 0.44463 0.38836 0.0
H4671 H 0.54622 0.41768 0.4077 0.0
H4672 H 0.56948 0.4586 0.45569 0.0
H4673 H 0.56907 0.48575 0.4366 0.0
C4674 C 0.57129 0.50118 0.31923 0.0
C4675 C 0.59042 0.49988 0.31743 0.0
C4676 C 0.56331 0.50006 0.33665 0.0
C4677 C 0.57433 0.49789 0.35273 0.0
C4678 C 0.59319 0.49563 0.35086 0.0
C4679 C 0.60119 0.49662 0.33332 0.0
C4680 C 0.56629 0.49916 0.37154 0.0
C4681 C 0.56559 0.48356 0.38241 0.0
C4682 C 0.55846 0.51545 0.37831 0.0
C4683 C 0.56019 0.53309 0.36829 0.0
C4684 C 0.57808 0.54291 0.36408 0.0
C4685 C 0.57964 0.5594 0.3545 0.0
C4686 C 0.5634 0.56631 0.34916 0.0
C4687 C 0.54557 0.55675 0.35344 0.0
C4688 C 0.54394 0.54023 0.363 0.0
C4689 C 0.52856 0.51595 0.45181 0.0
C4690 C 0.51262 0.50129 0.45279 0.0
C4691 C 0.54018 0.51499 0.43672 0.0
C4692 C 0.53615 0.49932 0.42235 0.0
C4693 C 0.52042 0.48445 0.42345 0.0
C4694 C 0.50872 0.48544 0.43858 0.0
C4695 C 0.54764 0.49926 0.40558 0.0
C4696 C 0.54902 0.51516 0.39507 0.0
C4697 C 0.55655 0.48353 0.39953 0.0
C4698 C 0.55702 0.46723 0.41106 0.0
C4699 C 0.55077 0.44787 0.40301 0.0
C4700 C 0.55114 0.43256 0.41394 0.0
C4701 C 0.55783 0.43643 0.43292 0.0
C4702 C 0.56422 0.45562 0.44101 0.0
C4703 C 0.56389 0.47097 0.43014 0.0
H4704 H 0.5581 0.42455 0.44135 0.0
H4705 H 0.56463 0.57908 0.34174 0.0
H4706 H 0.27929 0.85801 0.05447 0.0
H4707 H 0.28971 0.8395 0.07875 0.0
H4708 H 0.23355 0.80432 0.07596 0.0
H4709 H 0.22353 0.822 0.05096 0.0
H4710 H 0.27994 0.83985 0.11127 0.0
H4711 H 0.23128 0.76249 0.09265 0.0
H4712 H 0.2215 0.73863 0.06448 0.0
H4713 H 0.27006 0.76427 0.03671 0.0
H4714 H 0.28031 0.78811 0.0648 0.0
H4715 H 0.24507 0.80173 0.19082 0.0
H4716 H 0.2513 0.81356 0.16024 0.0
H4717 H 0.28114 0.76668 0.1454 0.0
H4718 H 0.27474 0.75473 0.17602 0.0
H4719 H 0.25871 0.76973 0.11698 0.0
H4720 H 0.30591 0.81297 0.15431 0.0
H4721 H 0.3232 0.8368 0.17988 0.0
H4722 H 0.28807 0.87773 0.16768 0.0
H4723 H 0.27031 0.85403 0.14226 0.0
C4724 C 0.26935 0.84601 0.05877 0.0
C4725 C 0.25059 0.84147 0.05099 0.0
C4726 C 0.2753 0.83544 0.07263 0.0
C4727 C 0.26248 0.82042 0.0792 0.0
C4728 C 0.24391 0.81546 0.07086 0.0
C4729 C 0.2381 0.82571 0.05668 0.0
C4730 C 0.26754 0.81179 0.09638 0.0
C4731 C 0.27548 0.82448 0.11243 0.0
C4732 C 0.26259 0.7916 0.09778 0.0
C4733 C 0.25652 0.77718 0.08085 0.0
C4734 C 0.23995 0.76298 0.0806 0.0
C4735 C 0.23431 0.74946 0.06461 0.0
C4736 C 0.24514 0.74995 0.0488 0.0
C4737 C 0.26165 0.76394 0.04894 0.0
C4738 C 0.26737 0.77748 0.06489 0.0
C4739 C 0.2529 0.79398 0.18098 0.0
C4740 C 0.25934 0.77734 0.18563 0.0
C4741 C 0.25663 0.80082 0.16363 0.0
C4742 C 0.26693 0.79116 0.15066 0.0
C4743 C 0.27326 0.7744 0.15525 0.0
C4744 C 0.26955 0.76757 0.17267 0.0
C4745 C 0.26991 0.79805 0.13193 0.0
C4746 C 0.26351 0.78503 0.11565 0.0
C4747 C 0.2771 0.8178 0.13013 0.0
C4748 C 0.28675 0.83166 0.14634 0.0
C4749 C 0.3017 0.82695 0.15721 0.0
C4750 C 0.31167 0.84049 0.17161 0.0
C4751 C 0.30689 0.85885 0.17524 0.0
C4752 C 0.29189 0.86358 0.16471 0.0
C4753 C 0.28185 0.85008 0.15032 0.0
H4754 H 0.31464 0.86932 0.18638 0.0
H4755 H 0.24074 0.73948 0.03644 0.0
H4756 H 0.95298 0.51716 0.81417 0.0
H4757 H 0.96688 0.52285 0.84648 0.0
H4758 H 0.93488 0.56841 0.85927 0.0
H4759 H 0.92023 0.56215 0.82699 0.0
H4760 H 0.9887 0.55175 0.86579 0.0
H4761 H 0.92584 0.57153 0.90549 0.0
H4762 H 0.89094 0.56602 0.90164 0.0
H4763 H 0.89018 0.51136 0.86815 0.0
H4764 H 0.92507 0.51655 0.87186 0.0
H4765 H 0.02266 0.56892 0.96214 0.0
H4766 H 0.00717 0.57471 0.93246 0.0
H4767 H 0.96582 0.52208 0.93371 0.0
H4768 H 0.9808 0.51667 0.96347 0.0
H4769 H 0.94905 0.54818 0.92103 0.0
H4770 H 0.00641 0.52347 0.90816 0.0
H4771 H 0.0408 0.52392 0.91097 0.0
H4772 H 0.05157 0.57941 0.88956 0.0
H4773 H 0.01723 0.57937 0.88684 0.0
C4774 C 0.94887 0.52838 0.82386 0.0
C4775 C 0.93546 0.53915 0.8181 0.0
C4776 C 0.95689 0.53169 0.84231 0.0
C4777 C 0.95187 0.54599 0.85535 0.0
C4778 C 0.93873 0.55707 0.84955 0.0
C4779 C 0.93041 0.55351 0.83112 0.0
C4780 C 0.96028 0.54885 0.87503 0.0
C4781 C 0.98003 0.55114 0.87788 0.0
C4782 C 0.949 0.54798 0.89082 0.0
C4783 C 0.92803 0.54455 0.88876 0.0
C4784 C 0.9182 0.55833 0.89734 0.0
C4785 C 0.89844 0.55528 0.89515 0.0
C4786 C 0.88836 0.53839 0.88458 0.0
C4787 C 0.89802 0.52448 0.87625 0.0
C4788 C 0.91778 0.52749 0.87835 0.0
C4789 C 0.01015 0.55875 0.9561 0.0
C4790 C 0.00297 0.54229 0.96492 0.0
C4791 C 0.00133 0.56204 0.9392 0.0
C4792 C 0.98547 0.54869 0.93075 0.0
C4793 C 0.97797 0.53262 0.93998 0.0
C4794 C 0.98662 0.52948 0.95693 0.0
C4795 C 0.97739 0.5504 0.91168 0.0
C4796 C 0.95774 0.54917 0.90897 0.0
C4797 C 0.98869 0.55149 0.89591 0.0
C4798 C 0.00931 0.55154 0.89753 0.0
C4799 C 0.01614 0.53583 0.90419 0.0
C4800 C 0.03561 0.536 0.90574 0.0
C4801 C 0.04837 0.55172 0.90051 0.0
C4802 C 0.04168 0.56727 0.89366 0.0
C4803 C 0.02221 0.56718 0.8921 0.0
H4804 H 0.06344 0.55182 0.90172 0.0
H4805 H 0.87306 0.53605 0.8829 0.0
H4806 H 0.24816 0.19194 0.53794 0.0
H4807 H 0.24807 0.211 0.5688 0.0
H4808 H 0.25428 0.16064 0.59653 0.0
H4809 H 0.25326 0.14142 0.56584 0.0
H4810 H 0.23035 0.17631 0.61351 0.0
H4811 H 0.29192 0.20174 0.59315 0.0
H4812 H 0.31471 0.21688 0.5717 0.0
H4813 H 0.28912 0.26764 0.5757 0.0
H4814 H 0.26604 0.25269 0.597 0.0
H4815 H 0.28388 0.24753 0.69701 0.0
H4816 H 0.28238 0.2328 0.66432 0.0
H4817 H 0.22156 0.22741 0.66099 0.0
H4818 H 0.22289 0.24155 0.694 0.0
H4819 H 0.27182 0.24073 0.63142 0.0
H4820 H 0.20131 0.18611 0.63311 0.0
H4821 H 0.18229 0.16862 0.65615 0.0
H4822 H 0.23243 0.1721 0.69228 0.0
H4823 H 0.25176 0.18935 0.66933 0.0
C4824 C 0.24961 0.18504 0.55066 0.0
C4825 C 0.25072 0.16522 0.54951 0.0
C4826 C 0.24963 0.19594 0.56831 0.0
C4827 C 0.25135 0.18736 0.58511 0.0
C4828 C 0.25278 0.16763 0.58386 0.0
C4829 C 0.25229 0.15665 0.56629 0.0
C4830 C 0.25134 0.19864 0.60404 0.0
C4831 C 0.23941 0.19042 0.61735 0.0
C4832 C 0.26326 0.21699 0.60927 0.0
C4833 C 0.27713 0.22601 0.59649 0.0
C4834 C 0.29107 0.21607 0.58934 0.0
C4835 C 0.30405 0.22463 0.57723 0.0
C4836 C 0.30333 0.24319 0.5723 0.0
C4837 C 0.28965 0.25325 0.57951 0.0
C4838 C 0.27662 0.24475 0.59161 0.0
C4839 C 0.27016 0.24334 0.68933 0.0
C4840 C 0.25347 0.24551 0.69821 0.0
C4841 C 0.26935 0.23496 0.67057 0.0
C4842 C 0.25184 0.22871 0.66023 0.0
C4843 C 0.23521 0.23173 0.66879 0.0
C4844 C 0.23599 0.23988 0.68765 0.0
C4845 C 0.25105 0.21825 0.64086 0.0
C4846 C 0.2627 0.22667 0.62747 0.0
C4847 C 0.23941 0.19974 0.63577 0.0
C4848 C 0.22793 0.18923 0.6496 0.0
C4849 C 0.20827 0.1831 0.64595 0.0
C4850 C 0.19744 0.17322 0.65899 0.0
C4851 C 0.20614 0.16931 0.6757 0.0
C4852 C 0.2257 0.1752 0.67937 0.0
C4853 C 0.23659 0.18504 0.66635 0.0
H4854 H 0.19773 0.16167 0.68578 0.0
H4855 H 0.31339 0.24979 0.56292 0.0
H4856 H 0.64473 0.52111 0.20594 0.0
H4857 H 0.6318 0.52874 0.17591 0.0
H4858 H 0.57926 0.4899 0.18217 0.0
H4859 H 0.59198 0.48235 0.21236 0.0
H4860 H 0.59266 0.48736 0.14475 0.0
H4861 H 0.58061 0.53488 0.19488 0.0
H4862 H 0.59056 0.5597 0.22232 0.0
H4863 H 0.62707 0.59479 0.18804 0.0
H4864 H 0.61758 0.56999 0.16047 0.0
H4865 H 0.52784 0.54276 0.09563 0.0
H4866 H 0.54593 0.53912 0.12452 0.0
H4867 H 0.59173 0.52595 0.09138 0.0
H4868 H 0.57372 0.52956 0.06246 0.0
H4869 H 0.5825 0.55503 0.14217 0.0
H4870 H 0.60459 0.486 0.10808 0.0
H4871 H 0.59501 0.46073 0.08093 0.0
H4872 H 0.5372 0.46816 0.08393 0.0
H4873 H 0.54644 0.49333 0.11122 0.0
C4874 C 0.63053 0.51396 0.2008 0.0
C4875 C 0.6193 0.50122 0.21154 0.0
C4876 C 0.62316 0.51839 0.18369 0.0
C4877 C 0.60456 0.51 0.17699 0.0
C4878 C 0.59366 0.49652 0.18718 0.0
C4879 C 0.60092 0.49226 0.2044 0.0
C4880 C 0.59604 0.51605 0.1599 0.0
C4881 C 0.59053 0.50216 0.14413 0.0
C4882 C 0.5932 0.53535 0.15922 0.0
C4883 C 0.59853 0.55049 0.17566 0.0
C4884 C 0.59086 0.54783 0.19323 0.0
C4885 C 0.5964 0.5619 0.2088 0.0
C4886 C 0.60948 0.57879 0.20694 0.0
C4887 C 0.61697 0.58168 0.18947 0.0
C4888 C 0.6115 0.56763 0.17386 0.0
C4889 C 0.54195 0.53956 0.09457 0.0
C4890 C 0.54934 0.53625 0.07685 0.0
C4891 C 0.55227 0.53752 0.11106 0.0
C4892 C 0.57003 0.53202 0.11001 0.0
C4893 C 0.57797 0.53003 0.09243 0.0
C4894 C 0.56769 0.53214 0.07595 0.0
C4895 C 0.57925 0.52635 0.12695 0.0
C4896 C 0.58484 0.54028 0.14271 0.0
C4897 C 0.58212 0.50706 0.12767 0.0
C4898 C 0.57625 0.49166 0.11155 0.0
C4899 C 0.58983 0.48217 0.10298 0.0
C4900 C 0.58447 0.46789 0.08756 0.0
C4901 C 0.56554 0.4629 0.08066 0.0
C4902 C 0.55189 0.4721 0.08923 0.0
C4903 C 0.55718 0.48639 0.10466 0.0
H4904 H 0.5615 0.45188 0.06869 0.0
H4905 H 0.61378 0.58965 0.21902 0.0
H4906 H 0.21678 0.88552 0.93404 0.0
H4907 H 0.21845 0.86567 0.90416 0.0
H4908 H 0.20423 0.81355 0.93159 0.0
H4909 H 0.20351 0.83344 0.96171 0.0
H4910 H 0.23421 0.81213 0.91437 0.0
H4911 H 0.17436 0.82762 0.8961 0.0
H4912 H 0.1508 0.84813 0.89033 0.0
H4913 H 0.18611 0.87659 0.85064 0.0
H4914 H 0.21002 0.8565 0.85639 0.0
H4915 H 0.22613 0.74839 0.82696 0.0
H4916 H 0.21997 0.7662 0.85686 0.0
H4917 H 0.24648 0.82021 0.83782 0.0
H4918 H 0.25298 0.80256 0.80815 0.0
H4919 H 0.20885 0.81926 0.85023 0.0
H4920 H 0.26916 0.80527 0.87015 0.0
H4921 H 0.29229 0.78405 0.8749 0.0
H4922 H 0.25501 0.75217 0.91092 0.0
H4923 H 0.23151 0.77304 0.90613 0.0
C4924 C 0.21352 0.86982 0.93357 0.0
C4925 C 0.21017 0.86098 0.95017 0.0
C4926 C 0.21441 0.85846 0.91645 0.0
C4927 C 0.21144 0.83808 0.91558 0.0
C4928 C 0.20671 0.82925 0.93193 0.0
C4929 C 0.20623 0.8406 0.94912 0.0
C4930 C 0.21553 0.82615 0.89837 0.0
C4931 C 0.22829 0.81343 0.9004 0.0
C4932 C 0.20834 0.82827 0.88004 0.0
C4933 C 0.19409 0.84065 0.87683 0.0
C4934 C 0.17721 0.83839 0.88629 0.0
C4935 C 0.16376 0.84993 0.88299 0.0
C4936 C 0.16697 0.86369 0.87016 0.0
C4937 C 0.18364 0.86595 0.86059 0.0
C4938 C 0.19714 0.85448 0.86387 0.0
C4939 C 0.23095 0.76401 0.82935 0.0
C4940 C 0.2399 0.77414 0.81527 0.0
C4941 C 0.22739 0.77413 0.84635 0.0
C4942 C 0.23264 0.79448 0.84935 0.0
C4943 C 0.24223 0.80452 0.83562 0.0
C4944 C 0.24601 0.7944 0.81876 0.0
C4945 C 0.22734 0.80543 0.86644 0.0
C4946 C 0.21448 0.81793 0.8643 0.0
C4947 C 0.23434 0.80311 0.88466 0.0
C4948 C 0.24848 0.79057 0.8876 0.0
C4949 C 0.26581 0.79362 0.87893 0.0
C4950 C 0.27901 0.78168 0.88167 0.0
C4951 C 0.2751 0.76673 0.89317 0.0
C4952 C 0.258 0.76373 0.90199 0.0
C4953 C 0.24474 0.77562 0.89928 0.0
H4954 H 0.28534 0.7575 0.89527 0.0
H4955 H 0.15653 0.87258 0.8676 0.0
H4956 H 0.89332 0.52987 0.69562 0.0
H4957 H 0.91232 0.52868 0.66796 0.0
H4958 H 0.95803 0.56991 0.69873 0.0
H4959 H 0.9393 0.57088 0.72659 0.0
H4960 H 0.95002 0.57245 0.65579 0.0
H4961 H 0.96348 0.52998 0.70267 0.0
H4962 H 0.95286 0.50548 0.72416 0.0
H4963 H 0.92511 0.46577 0.67709 0.0
H4964 H 0.93525 0.49023 0.65537 0.0
H4965 H 0.02074 0.54907 0.59629 0.0
H4966 H 0.0053 0.55671 0.62541 0.0
H4967 H 0.96444 0.5032 0.61263 0.0
H4968 H 0.98037 0.49511 0.58422 0.0
H4969 H 0.97159 0.50906 0.64817 0.0
H4970 H 0.95657 0.54924 0.60104 0.0
H4971 H 0.96385 0.57315 0.57824 0.0
H4972 H 0.9912 0.61613 0.62302 0.0
H4973 H 0.98428 0.59236 0.64608 0.0
C4974 C 0.90719 0.5391 0.69631 0.0
C4975 C 0.91497 0.55027 0.71327 0.0
C4976 C 0.918 0.53842 0.68053 0.0
C4977 C 0.93655 0.54914 0.68145 0.0
C4978 C 0.94371 0.56162 0.6978 0.0
C4979 C 0.93304 0.56205 0.71369 0.0
C4980 C 0.94936 0.54496 0.66661 0.0
C4981 C 0.95499 0.55874 0.65417 0.0
C4982 C 0.95549 0.52693 0.66449 0.0
C4983 C 0.94996 0.51199 0.67744 0.0
C4984 C 0.955 0.51607 0.69693 0.0
C4985 C 0.94908 0.5022 0.70915 0.0
C4986 C 0.93828 0.48409 0.702 0.0
C4987 C 0.93346 0.47981 0.68261 0.0
C4988 C 0.93929 0.49367 0.67034 0.0
C4989 C 0.00876 0.53875 0.60002 0.0
C4990 C 0.00167 0.52156 0.58805 0.0
C4991 C -0.00018 0.54322 0.61652 0.0
C4992 C 0.98339 0.53078 0.62094 0.0
C4993 C 0.97703 0.51307 0.6095 0.0
C4994 C 0.98616 0.50844 0.59326 0.0
C4995 C 0.97219 0.53643 0.63689 0.0
C4996 C 0.96685 0.5229 0.6497 0.0
C4997 C 0.96607 0.55457 0.63907 0.0
C4998 C 0.97007 0.56896 0.62526 0.0
C4999 C 0.96422 0.56376 0.60601 0.0
C5000 C 0.96827 0.57729 0.59305 0.0
C5001 C 0.97799 0.59615 0.59918 0.0
C5002 C 0.98367 0.60151 0.6183 0.0
C5003 C 0.97968 0.58802 0.63133 0.0
H5004 H 0.98108 0.60662 0.58913 0.0
H5005 H 0.93368 0.47338 0.71148 0.0
H5006 H 0.26217 0.158 0.41657 0.0
H5007 H 0.26846 0.1783 0.39106 0.0
H5008 H 0.28457 0.22917 0.43197 0.0
H5009 H 0.27755 0.20892 0.45762 0.0
H5010 H 0.26245 0.2369 0.40559 0.0
H5011 H 0.31762 0.20784 0.40484 0.0
H5012 H 0.33577 0.18125 0.40393 0.0
H5013 H 0.30832 0.15678 0.3498 0.0
H5014 H 0.28981 0.18307 0.35049 0.0
H5015 H 0.29184 0.29529 0.33195 0.0
H5016 H 0.29506 0.27792 0.35972 0.0
H5017 H 0.26707 0.22421 0.32747 0.0
H5018 H 0.26338 0.24147 0.29998 0.0
H5019 H 0.29933 0.2206 0.35084 0.0
H5020 H 0.24127 0.2459 0.35403 0.0
H5021 H 0.22239 0.27181 0.35417 0.0
H5022 H 0.25545 0.30286 0.40327 0.0
H5023 H 0.27469 0.27714 0.4033 0.0
C5024 C 0.26721 0.17349 0.42017 0.0
C5025 C 0.26937 0.18186 0.43913 0.0
C5026 C 0.27095 0.18509 0.40554 0.0
C5027 C 0.27734 0.20527 0.40953 0.0
C5028 C 0.27973 0.21364 0.4285 0.0
C5029 C 0.27574 0.20205 0.44316 0.0
C5030 C 0.28034 0.21772 0.39388 0.0
C5031 C 0.27091 0.23356 0.39388 0.0
C5032 C 0.29102 0.21319 0.37829 0.0
C5033 C 0.30221 0.19737 0.3778 0.0
C5034 C 0.31535 0.19672 0.3928 0.0
C5035 C 0.32573 0.18171 0.39231 0.0
C5036 C 0.32318 0.16731 0.37684 0.0
C5037 C 0.31029 0.16793 0.36179 0.0
C5038 C 0.29987 0.1829 0.36221 0.0
C5039 C 0.28659 0.27975 0.33077 0.0
C5040 C 0.27736 0.26971 0.31385 0.0
C5041 C 0.28842 0.26987 0.3466 0.0
C5042 C 0.28127 0.2498 0.34561 0.0
C5043 C 0.27277 0.23966 0.32848 0.0
C5044 C 0.27065 0.24956 0.3128 0.0
C5045 C 0.28138 0.23949 0.36268 0.0
C5046 C 0.29127 0.22407 0.36285 0.0
C5047 C 0.27114 0.24434 0.37841 0.0
C5048 C 0.25956 0.25974 0.37852 0.0
C5049 C 0.24462 0.25834 0.36476 0.0
C5050 C 0.23383 0.27297 0.36482 0.0
C5051 C 0.23776 0.28903 0.37866 0.0
C5052 C 0.25245 0.29043 0.39253 0.0
C5053 C 0.26329 0.27582 0.39252 0.0
H5054 H 0.22939 0.30036 0.37867 0.0
H5055 H 0.3312 0.15568 0.37652 0.0
H5056 H 0.28053 0.56986 0.49685 0.0
H5057 H 0.3057 0.55089 0.49342 0.0
H5058 H 0.34656 0.60083 0.51875 0.0
H5059 H 0.32155 0.62017 0.52083 0.0
H5060 H 0.36178 0.58514 0.49237 0.0
H5061 H 0.32736 0.55927 0.54276 0.0
H5062 H 0.29946 0.54461 0.55875 0.0
H5063 H 0.29057 0.49422 0.51743 0.0
H5064 H 0.3183 0.5087 0.50106 0.0
H5065 H 0.43059 0.53562 0.52854 0.0
H5066 H 0.40156 0.54896 0.52841 0.0
H5067 H 0.38124 0.513 0.47614 0.0
H5068 H 0.41072 0.49984 0.47588 0.0
H5069 H 0.35518 0.51944 0.51357 0.0
H5070 H 0.39363 0.54901 0.46482 0.0
H5071 H 0.42367 0.5657 0.45378 0.0
H5072 H 0.42717 0.61182 0.49911 0.0
H5073 H 0.39736 0.59517 0.51069 0.0
C5074 C 0.29491 0.57672 0.50167 0.0
C5075 C 0.29919 0.59639 0.50917 0.0
C5076 C 0.30927 0.56585 0.49983 0.0
C5077 C 0.32802 0.57427 0.50619 0.0
C5078 C 0.33223 0.59398 0.51371 0.0
C5079 C 0.31797 0.60502 0.51497 0.0
C5080 C 0.34333 0.56271 0.50473 0.0
C5081 C 0.36026 0.57083 0.49713 0.0
C5082 C 0.34145 0.54391 0.51076 0.0
C5083 C 0.32477 0.53517 0.52057 0.0
C5084 C 0.31936 0.54513 0.53701 0.0
C5085 C 0.3036 0.53684 0.54615 0.0
C5086 C 0.29322 0.51852 0.53908 0.0
C5087 C 0.29861 0.50842 0.52287 0.0
C5088 C 0.31435 0.51666 0.51366 0.0
C5089 C 0.41982 0.5303 0.51716 0.0
C5090 C 0.42287 0.51682 0.50214 0.0
C5091 C 0.40331 0.53795 0.51712 0.0
C5092 C 0.3895 0.53203 0.50218 0.0
C5093 C 0.39189 0.51769 0.48772 0.0
C5094 C 0.40863 0.5102 0.48761 0.0
C5095 C 0.37327 0.54199 0.50129 0.0
C5096 C 0.35634 0.53363 0.50857 0.0
C5097 C 0.37536 0.56084 0.49561 0.0
C5098 C 0.39338 0.57072 0.48873 0.0
C5099 C 0.40094 0.56256 0.47259 0.0
C5100 C 0.4179 0.57205 0.46621 0.0
C5101 C 0.42733 0.58978 0.47577 0.0
C5102 C 0.41986 0.59806 0.49175 0.0
C5103 C 0.40294 0.58861 0.49823 0.0
H5104 H 0.44037 0.59717 0.47074 0.0
H5105 H 0.28102 0.51213 0.54618 0.0
H5106 H 0.80271 0.9094 0.54837 0.0
H5107 H 0.83675 0.92331 0.55212 0.0
H5108 H 0.83385 0.94327 0.49712 0.0
H5109 H 0.7999 0.92991 0.49345 0.0
H5110 H 0.86571 0.92295 0.50587 0.0
H5111 H 0.83373 0.97517 0.53 0.0
H5112 H 0.81209 0.98932 0.5509 0.0
H5113 H 0.84451 0.97931 0.59968 0.0
H5114 H 0.8662 0.96483 0.57902 0.0
H5115 H 0.94727 0.99363 0.50006 0.0
H5116 H 0.91538 0.97432 0.49962 0.0
H5117 H 0.92111 0.9755 0.56033 0.0
H5118 H 0.9527 -0.00432 0.5608 0.0
H5119 H 0.88838 0.98198 0.55134 0.0
H5120 H 0.9224 0.93293 0.52876 0.0
H5121 H 0.94404 0.91742 0.50894 0.0
H5122 H 0.90893 0.91946 0.45925 0.0
H5123 H 0.88705 0.93498 0.47873 0.0
C5124 C 0.80937 0.9167 0.53708 0.0
C5125 C 0.79866 0.9187 0.52068 0.0
C5126 C 0.82875 0.9246 0.53923 0.0
C5127 C 0.8377 0.93424 0.52487 0.0
C5128 C 0.82715 0.9358 0.50831 0.0
C5129 C 0.80776 0.92829 0.50631 0.0
C5130 C 0.85792 0.94349 0.52728 0.0
C5131 C 0.87075 0.9359 0.51574 0.0
C5132 C 0.86443 0.95998 0.54058 0.0
C5133 C 0.85142 0.96869 0.55297 0.0
C5134 C 0.83612 0.9758 0.54518 0.0
C5135 C 0.82388 0.98392 0.55698 0.0
C5136 C 0.82688 0.98515 0.57661 0.0
C5137 C 0.84218 0.97831 0.58447 0.0
C5138 C 0.85445 0.97015 0.57272 0.0
C5139 C 0.94167 0.98981 0.51327 0.0
C5140 C 0.95232 -0.00377 0.53045 0.0
C5141 C 0.92353 0.97856 0.51302 0.0
C5142 C 0.91592 0.97311 0.52992 0.0
C5143 C 0.92667 0.97947 0.5471 0.0
C5144 C 0.94469 0.99099 0.54737 0.0
C5145 C 0.8964 0.96167 0.52972 0.0
C5146 C 0.88359 0.96885 0.54166 0.0
C5147 C 0.89001 0.94459 0.51699 0.0
C5148 C 0.90314 0.93525 0.50521 0.0
C5149 C 0.91935 0.93018 0.5136 0.0
C5150 C 0.93165 0.92137 0.50243 0.0
C5151 C 0.92792 0.91756 0.48286 0.0
C5152 C 0.91181 0.92244 0.47442 0.0
C5153 C 0.89942 0.93118 0.48551 0.0
H5154 H 0.93749 0.91079 0.47425 0.0
H5155 H 0.81739 0.99144 0.58572 0.0
H5156 H 0.81629 0.06718 0.23725 0.0
H5157 H 0.79941 0.09407 0.24431 0.0
H5158 H 0.85072 0.12971 0.27133 0.0
H5159 H 0.86759 0.10284 0.26458 0.0
H5160 H 0.82037 0.13476 0.29107 0.0
H5161 H 0.83664 0.13394 0.22598 0.0
H5162 H 0.83713 0.11915 0.19308 0.0
H5163 H 0.77632 0.10845 0.18758 0.0
H5164 H 0.77547 0.12296 0.22055 0.0
H5165 H 0.80427 0.23052 0.28522 0.0
H5166 H 0.81512 0.19963 0.28431 0.0
H5167 H 0.76256 0.17028 0.25442 0.0
H5168 H 0.75177 0.20131 0.25479 0.0
H5169 H 0.79076 0.15998 0.23712 0.0
H5170 H 0.77481 0.16478 0.30147 0.0
H5171 H 0.77468 0.17965 0.33437 0.0
H5172 H 0.83476 0.18287 0.34178 0.0
H5173 H 0.83536 0.16847 0.30878 0.0
C5174 C 0.82393 0.08068 0.24484 0.0
C5175 C 0.84332 0.08292 0.25023 0.0
C5176 C 0.81428 0.09606 0.24882 0.0
C5177 C 0.82386 0.114 0.25814 0.0
C5178 C 0.84304 0.11602 0.26412 0.0
C5179 C 0.85269 0.10066 0.26017 0.0
C5180 C 0.81421 0.13097 0.26095 0.0
C5181 C 0.814 0.14041 0.27929 0.0
C5182 C 0.80549 0.138 0.24562 0.0
C5183 C 0.80599 0.12933 0.22579 0.0
C5184 C 0.82337 0.1283 0.2178 0.0
C5185 C 0.82371 0.11998 0.19913 0.0
C5186 C 0.80676 0.11281 0.18826 0.0
C5187 C 0.78944 0.11398 0.19602 0.0
C5188 C 0.78901 0.12225 0.21469 0.0
C5189 C 0.79486 0.21748 0.27865 0.0
C5190 C 0.77716 0.21846 0.26997 0.0
C5191 C 0.80107 0.19975 0.27826 0.0
C5192 C 0.78962 0.18253 0.26942 0.0
C5193 C 0.77167 0.18336 0.26131 0.0
C5194 C 0.7655 0.20113 0.26157 0.0
C5195 C 0.79699 0.16402 0.2673 0.0
C5196 C 0.79686 0.15428 0.24902 0.0
C5197 C 0.80542 0.15677 0.28272 0.0
C5198 C 0.80514 0.16566 0.30255 0.0
C5199 C 0.78803 0.16884 0.31004 0.0
C5200 C 0.78787 0.17717 0.32872 0.0
C5201 C 0.8047 0.18222 0.34015 0.0
C5202 C 0.82173 0.17892 0.33292 0.0
C5203 C 0.82199 0.17072 0.31421 0.0
H5204 H 0.80455 0.18868 0.35461 0.0
H5205 H 0.80706 0.10638 0.17381 0.0
H5206 H 0.697 0.14874 0.98504 0.0
H5207 H 0.66402 0.13143 0.98355 0.0
H5208 H 0.68309 0.08015 -0.00091 0.0
H5209 H 0.71579 0.09695 -0.00017 0.0
H5210 H 0.65573 0.06951 0.97396 0.0
H5211 H 0.6667 0.11312 0.03181 0.0
H5212 H 0.67572 0.14494 0.05124 0.0
H5213 H 0.6311 0.16593 0.02265 0.0
H5214 H 0.62197 0.1343 0.00288 0.0
H5215 H 0.56335 0.04844 0.02807 0.0
H5216 H 0.59601 0.06528 0.02632 0.0
H5217 H 0.58872 0.05803 0.96539 0.0
H5218 H 0.55639 0.04079 0.96695 0.0
H5219 H 0.60999 0.09801 0.01308 0.0
H5220 H 0.62967 0.05287 0.94631 0.0
H5221 H 0.62194 0.01925 0.93038 0.0
H5222 H 0.60764 -0.00204 0.98318 0.0
H5223 H 0.61553 0.0314 -0.00054 0.0
C5224 C 0.69409 0.13371 0.98792 0.0
C5225 C 0.70891 0.12423 0.99267 0.0
C5226 C 0.67529 0.12388 0.98716 0.0
C5227 C 0.6711 0.10459 0.99151 0.0
C5228 C 0.68597 0.095 -0.00434 0.0
C5229 C 0.70467 0.10467 -0.00386 0.0
C5230 C 0.65133 0.09441 0.99243 0.0
C5231 C 0.6457 0.07579 0.98244 0.0
C5232 C 0.63838 0.10243 0.00382 0.0
C5233 C 0.64379 0.12142 0.01574 0.0
C5234 C 0.6589 0.12457 0.02958 0.0
C5235 C 0.66402 0.14256 0.04067 0.0
C5236 C 0.65402 0.15747 0.03814 0.0
C5237 C 0.63885 0.15439 0.02456 0.0
C5238 C 0.63369 0.13643 0.01342 0.0
C5239 C 0.56876 0.0503 0.0143 0.0
C5240 C 0.55733 0.04316 -0.00234 0.0
C5241 C 0.58738 0.05999 0.01333 0.0
C5242 C 0.59481 0.06275 -0.00428 0.0
C5243 C 0.58338 0.05575 0.97911 0.0
C5244 C 0.56487 0.0459 0.98006 0.0
C5245 C 0.61447 0.07312 0.99467 0.0
C5246 C 0.62001 0.09179 0.00454 0.0
C5247 C 0.62757 0.06488 0.98369 0.0
C5248 C 0.623 0.04467 0.97405 0.0
C5249 C 0.62494 0.041 0.95453 0.0
C5250 C 0.62052 0.02198 0.94544 0.0
C5251 C 0.61424 0.00648 0.95575 0.0
C5252 C 0.61244 0.00998 0.97519 0.0
C5253 C 0.61685 0.02897 0.98435 0.0
H5254 H 0.61082 0.99177 0.94868 0.0
H5255 H 0.658 0.17139 0.04674 0.0
H5256 H 0.12085 0.4355 0.28157 0.0
H5257 H 0.14201 0.41575 0.29439 0.0
H5258 H 0.18872 0.44772 0.26779 0.0
H5259 H 0.16797 0.46786 0.25573 0.0
H5260 H 0.1582 0.39156 0.27614 0.0
H5261 H 0.2304 0.44764 0.28733 0.0
H5262 H 0.24174 0.48164 0.30113 0.0
H5263 H 0.19322 0.47893 0.33448 0.0
H5264 H 0.18171 0.44482 0.32112 0.0
H5265 H 0.23127 0.34856 0.24687 0.0
H5266 H 0.21127 0.37282 0.25303 0.0
H5267 H 0.22965 0.38046 0.31224 0.0
H5268 H 0.25 0.35632 0.30608 0.0
H5269 H 0.22539 0.41496 0.29935 0.0
H5270 H 0.18969 0.35228 0.30008 0.0
H5271 H 0.1785 0.3175 0.28903 0.0
H5272 H 0.1522 0.33233 0.2388 0.0
H5273 H 0.16375 0.36721 0.24919 0.0
C5274 C 0.13573 0.43852 0.27881 0.0
C5275 C 0.14276 0.45313 0.26758 0.0
C5276 C 0.1478 0.42726 0.28615 0.0
C5277 C 0.16703 0.43037 0.28227 0.0
C5278 C 0.1741 0.44535 0.27148 0.0
C5279 C 0.16214 0.45675 0.26439 0.0
C5280 C 0.17928 0.4166 0.28723 0.0
C5281 C 0.17279 0.39669 0.28152 0.0
C5282 C 0.19816 0.42313 0.29489 0.0
C5283 C 0.20515 0.44363 0.30315 0.0
C5284 C 0.22221 0.45422 0.29771 0.0
C5285 C 0.22865 0.47355 0.30543 0.0
C5286 C 0.21819 0.48245 0.31865 0.0
C5287 C 0.20128 0.47203 0.3242 0.0
C5288 C 0.19478 0.45271 0.31654 0.0
C5289 C 0.23134 0.3557 0.26112 0.0
C5290 C 0.24199 0.35053 0.27603 0.0
C5291 C 0.21986 0.36945 0.26465 0.0
C5292 C 0.21871 0.37804 0.28316 0.0
C5293 C 0.23029 0.37386 0.2979 0.0
C5294 C 0.24188 0.36013 0.29435 0.0
C5295 C 0.20452 0.39044 0.28699 0.0
C5296 C 0.21065 0.40993 0.29445 0.0
C5297 C 0.18513 0.38343 0.28156 0.0
C5298 C 0.17767 0.36243 0.27541 0.0
C5299 C 0.18161 0.34816 0.28662 0.0
C5300 C 0.17521 0.32841 0.28048 0.0
C5301 C 0.1646 0.32272 0.26327 0.0
C5302 C 0.16039 0.33677 0.25215 0.0
C5303 C 0.16688 0.35654 0.25815 0.0
H5304 H 0.15966 0.30741 0.25855 0.0
H5305 H 0.2232 0.49741 0.3246 0.0
H5306 H 0.17182 0.38952 0.01454 0.0
H5307 H 0.14644 0.40851 0.013 0.0
H5308 H 0.18181 0.4567 0.04763 0.0
H5309 H 0.20722 0.43798 0.04905 0.0
H5310 H 0.14322 0.44928 0.05724 0.0
H5311 H 0.18054 0.4578 0.00253 0.0
H5312 H 0.19488 0.44579 0.97387 0.0
H5313 H 0.13976 0.41842 0.94907 0.0
H5314 H 0.12512 0.43003 0.97774 0.0
H5315 H 0.09356 0.52498 0.04049 0.0
H5316 H 0.11824 0.50553 0.0444 0.0
H5317 H 0.09209 0.46477 -0.00315 0.0
H5318 H 0.06841 0.4847 0.99226 0.0
H5319 H 0.12614 0.46755 0.99432 0.0
H5320 H 0.08785 0.4584 0.04767 0.0
H5321 H 0.0727 0.46752 0.07675 0.0
H5322 H 0.12701 0.49311 0.10434 0.0
H5323 H 0.14259 0.48428 0.07534 0.0
C5324 C 0.17405 0.40405 0.02205 0.0
C5325 C 0.19152 0.41235 0.0318 0.0
C5326 C 0.1596 0.41488 0.02111 0.0
C5327 C 0.16236 0.43404 0.03008 0.0
C5328 C 0.17943 0.44195 0.04061 0.0
C5329 C 0.19394 0.43126 0.04134 0.0
C5330 C 0.14802 0.44637 0.0276 0.0
C5331 C 0.13949 0.45343 0.04353 0.0
C5332 C 0.14298 0.45137 0.00965 0.0
C5333 C 0.15176 0.44461 0.99234 0.0
C5334 C 0.17149 0.44909 0.99103 0.0
C5335 C 0.17967 0.44238 0.97477 0.0
C5336 C 0.16824 0.4313 0.95967 0.0
C5337 C 0.1486 0.42697 0.96078 0.0
C5338 C 0.14035 0.43362 0.97702 0.0
C5339 C 0.09333 0.51199 0.03078 0.0
C5340 C 0.0792 0.50639 0.01603 0.0
C5341 C 0.10726 0.50071 0.03316 0.0
C5342 C 0.10682 0.48328 0.02125 0.0
C5343 C 0.09281 0.47801 0.00632 0.0
C5344 C 0.07927 0.48949 0.00366 0.0
C5345 C 0.1209 0.4705 0.02401 0.0
C5346 C 0.12956 0.46338 0.00809 0.0
C5347 C 0.12577 0.46516 0.04197 0.0
C5348 C 0.11638 0.47082 0.05926 0.0
C5349 C 0.09657 0.46609 0.05986 0.0
C5350 C 0.0879 0.47119 0.07634 0.0
C5351 C 0.09888 0.48091 0.09233 0.0
C5352 C 0.11855 0.48559 0.09191 0.0
C5353 C 0.12731 0.48053 0.07547 0.0
H5354 H 0.09217 0.48475 0.10506 0.0
H5355 H 0.1746 0.42612 0.9471 0.0
H5356 H 0.82772 0.97767 0.21412 0.0
H5357 H 0.8077 0.94575 0.21541 0.0
H5358 H 0.85644 0.92397 0.23544 0.0
H5359 H 0.87653 0.95529 0.23282 0.0
H5360 H 0.83703 0.89672 0.21452 0.0
H5361 H 0.82114 0.93934 0.26529 0.0
H5362 H 0.81121 0.96847 0.28103 0.0
H5363 H 0.75787 0.95372 0.24852 0.0
H5364 H 0.76759 0.92461 0.2324 0.0
H5365 H 0.78677 0.82041 0.2619 0.0
H5366 H 0.80579 0.8513 0.25551 0.0
H5367 H 0.76004 0.86078 0.21866 0.0
H5368 H 0.74108 0.82955 0.22465 0.0
H5369 H 0.77692 0.89335 0.24672 0.0
H5370 H 0.79555 0.84674 0.19907 0.0
H5371 H 0.80734 0.8166 0.18943 0.0
H5372 H 0.85881 0.83855 0.22382 0.0
H5373 H 0.84718 0.8687 0.23395 0.0
C5374 C 0.83411 0.96596 0.2186 0.0
C5375 C 0.85364 0.96893 0.22337 0.0
C5376 C 0.82267 0.94776 0.2195 0.0
C5377 C 0.83042 0.93244 0.22594 0.0
C5378 C 0.85003 0.93541 0.23038 0.0
C5379 C 0.86153 0.95338 0.22892 0.0
C5380 C 0.81818 0.91348 0.22849 0.0
C5381 C 0.82398 0.89609 0.22171 0.0
C5382 C 0.80108 0.91242 0.23787 0.0
C5383 C 0.79519 0.92993 0.24748 0.0
C5384 C 0.80735 0.94239 0.26139 0.0
C5385 C 0.80175 0.95888 0.2704 0.0
C5386 C 0.78395 0.96298 0.26573 0.0
C5387 C 0.77168 0.95055 0.25209 0.0
C5388 C 0.77722 0.93405 0.24302 0.0
C5389 C 0.78087 0.82895 0.25226 0.0
C5390 C 0.76258 0.82251 0.24358 0.0
C5391 C 0.7917 0.84661 0.24869 0.0
C5392 C 0.78434 0.85819 0.23651 0.0
C5393 C 0.76595 0.85197 0.22806 0.0
C5394 C 0.75518 0.83417 0.23147 0.0
C5395 C 0.79584 0.87691 0.23277 0.0
C5396 C 0.7899 0.89417 0.23938 0.0
C5397 C 0.81318 0.87783 0.22397 0.0
C5398 C 0.82043 0.85996 0.21735 0.0
C5399 C 0.80934 0.84512 0.20465 0.0
C5400 C 0.816 0.82802 0.19911 0.0
C5401 C 0.83381 0.82566 0.20603 0.0
C5402 C 0.84502 0.8404 0.21848 0.0
C5403 C 0.83841 0.85751 0.2241 0.0
H5404 H 0.83893 0.81242 0.20173 0.0
H5405 H 0.77963 0.97575 0.27273 0.0
H5406 H 0.6513 0.04249 0.75134 0.0
H5407 H 0.67191 0.0744 0.75409 0.0
H5408 H 0.64021 0.08973 0.70707 0.0
H5409 H 0.61942 0.05769 0.70415 0.0
H5410 H 0.68003 0.09877 0.70504 0.0
H5411 H 0.63305 0.10791 0.74993 0.0
H5412 H 0.61412 0.09983 0.77702 0.0
H5413 H 0.66502 0.10759 0.81298 0.0
H5414 H 0.68427 0.11545 0.78603 0.0
H5415 H 0.71587 0.19982 0.71512 0.0
H5416 H 0.69669 0.1672 0.71163 0.0
H5417 H 0.72111 0.15677 0.76511 0.0
H5418 H 0.73978 0.18984 0.76907 0.0
H5419 H 0.68531 0.14453 0.76385 0.0
H5420 H 0.73275 0.13548 0.72075 0.0
H5421 H 0.75303 0.14239 0.69435 0.0
H5422 H 0.70377 0.13303 0.65587 0.0
H5423 H 0.68317 0.12631 0.6821 0.0
C5424 C 0.64864 0.05263 0.74157 0.0
C5425 C 0.63364 0.04757 0.72756 0.0
C5426 C 0.66042 0.07087 0.74321 0.0
C5427 C 0.65747 0.08442 0.73087 0.0
C5428 C 0.64266 0.07943 0.71675 0.0
C5429 C 0.63074 0.06118 0.71517 0.0
C5430 C 0.66994 0.1038 0.73278 0.0
C5431 C 0.68104 0.10894 0.71777 0.0
C5432 C 0.67168 0.11666 0.74968 0.0
C5433 C 0.6601 0.11209 0.76592 0.0
C5434 C 0.64021 0.10774 0.76358 0.0
C5435 C 0.62942 0.10323 0.77891 0.0
C5436 C 0.63837 0.10315 0.79669 0.0
C5437 C 0.65812 0.10764 0.79919 0.0
C5438 C 0.66897 0.11214 0.7839 0.0
C5439 C 0.71731 0.19052 0.72606 0.0
C5440 C 0.72937 0.19737 0.74236 0.0
C5441 C 0.70639 0.17181 0.724 0.0
C5442 C 0.70765 0.15936 0.73795 0.0
C5443 C 0.71989 0.16609 0.75414 0.0
C5444 C 0.73058 0.18497 0.75638 0.0
C5445 C 0.69553 0.13969 0.73606 0.0
C5446 C 0.68444 0.13443 0.75109 0.0
C5447 C 0.69405 0.12659 0.71927 0.0
C5448 C 0.70641 0.13056 0.70344 0.0
C5449 C 0.72623 0.13503 0.70669 0.0
C5450 C 0.73779 0.13889 0.69174 0.0
C5451 C 0.72969 0.1382 0.67345 0.0
C5452 C 0.71002 0.13358 0.67005 0.0
C5453 C 0.6984 0.12972 0.68495 0.0
H5454 H 0.73866 0.1412 0.6619 0.0
H5455 H 0.62999 0.09965 0.80855 0.0
loop_
_geom_bond_atom_site_label_1
_geom_bond_atom_site_label_2
_geom_bond_distance
_geom_bond_site_symmetry_2
_ccdc_geom_bond_type
C0 O1 1.306 . S
C0 O3 1.160 . S
O1 C0 1.306 . S
O1 Cd2 2.228 1_655 S
Cd2 O1 2.228 1_455 S
Cd2 O6 2.273 . S
Cd2 O10 2.277 . S
O3 C0 1.160 . S
O3 Cd4 2.203 1_655 S
Cd4 O3 2.203 1_455 S
Cd4 O6 2.411 . S
Cd4 O7 2.333 . S
Cd4 O8 2.352 . S
Cd4 O12 2.277 . S
Cd4 O13 2.356 . S
C5 O10 1.209 . S
C5 O12 1.226 . S
O6 Cd2 2.273 . S
O6 Cd4 2.411 . S
O6 C9 1.320 . S
O7 Cd4 2.333 . S
O7 C9 1.214 . S
O8 Cd4 2.352 . S
O8 C11 1.258 . S
C9 O6 1.320 . S
C9 O7 1.214 . S
O10 Cd2 2.277 . S
O10 C5 1.209 . S
C11 O8 1.258 . S
C11 O13 1.282 . S
O12 Cd4 2.277 . S
O12 C5 1.226 . S
O13 Cd4 2.356 . S
O13 C11 1.282 . S
C14 O15 1.306 . S
C14 O17 1.160 . S
O15 C14 1.306 . S
O15 Cd16 2.228 1_655 S
Cd16 O15 2.228 1_455 S
Cd16 O20 2.273 . S
Cd16 O24 2.277 . S
O17 C14 1.160 . S
O17 Cd18 2.203 1_655 S
Cd18 O17 2.203 1_455 S
Cd18 O20 2.411 . S
Cd18 O21 2.333 . S
Cd18 O22 2.352 . S
Cd18 O26 2.277 . S
Cd18 O27 2.356 . S
C19 O24 1.209 . S
C19 O26 1.226 . S
O20 Cd16 2.273 . S
O20 Cd18 2.411 . S
O20 C23 1.320 . S
O21 Cd18 2.333 . S
O21 C23 1.214 . S
O22 Cd18 2.352 . S
O22 C25 1.258 . S
C23 O20 1.320 . S
C23 O21 1.214 . S
O24 Cd16 2.277 . S
O24 C19 1.209 . S
C25 O22 1.258 . S
C25 O27 1.282 . S
O26 Cd18 2.277 . S
O26 C19 1.226 . S
O27 Cd18 2.356 . S
O27 C25 1.282 . S
C28 O29 1.306 . S
C28 O31 1.160 . S
O29 C28 1.306 . S
O29 Cd30 2.228 . S
Cd30 O29 2.228 . S
Cd30 O34 2.273 . S
Cd30 O38 2.277 . S
O31 C28 1.160 . S
O31 Cd32 2.203 . S
Cd32 O31 2.203 . S
Cd32 O34 2.411 . S
Cd32 O35 2.333 . S
Cd32 O36 2.352 . S
Cd32 O40 2.277 . S
Cd32 O41 2.356 . S
C33 O38 1.209 . S
C33 O40 1.226 . S
O34 Cd30 2.273 . S
O34 Cd32 2.411 . S
O34 C37 1.320 . S
O35 Cd32 2.333 . S
O35 C37 1.214 . S
O36 Cd32 2.352 . S
O36 C39 1.258 . S
C37 O34 1.320 . S
C37 O35 1.214 . S
O38 Cd30 2.277 . S
O38 C33 1.209 . S
C39 O36 1.258 . S
C39 O41 1.282 . S
O40 Cd32 2.277 . S
O40 C33 1.226 . S
O41 Cd32 2.356 . S
O41 C39 1.282 . S
C42 O43 1.306 . S
C42 O45 1.160 . S
O43 C42 1.306 . S
O43 Cd44 2.228 . S
Cd44 O43 2.228 . S
Cd44 O48 2.273 . S
Cd44 O52 2.277 . S
O45 C42 1.160 . S
O45 Cd46 2.203 . S
Cd46 O45 2.203 . S
Cd46 O48 2.411 . S
Cd46 O49 2.333 . S
Cd46 O50 2.352 . S
Cd46 O54 2.277 . S
Cd46 O55 2.356 . S
C47 O52 1.209 . S
C47 O54 1.226 . S
O48 Cd44 2.273 . S
O48 Cd46 2.411 . S
O48 C51 1.320 . S
O49 Cd46 2.333 . S
O49 C51 1.214 . S
O50 Cd46 2.352 . S
O50 C53 1.258 . S
C51 O48 1.320 . S
C51 O49 1.214 . S
O52 Cd44 2.277 . S
O52 C47 1.209 . S
C53 O50 1.258 . S
C53 O55 1.282 . S
O54 Cd46 2.277 . S
O54 C47 1.226 . S
O55 Cd46 2.356 . S
O55 C53 1.282 . S
C56 O57 1.306 . S
C56 O59 1.160 . S
O57 C56 1.306 . S
O57 Cd58 2.228 1_655 S
Cd58 O57 2.228 1_455 S
Cd58 O62 2.273 . S
Cd58 O66 2.277 . S
O59 C56 1.160 . S
O59 Cd60 2.203 1_655 S
Cd60 O59 2.203 1_455 S
Cd60 O62 2.411 . S
Cd60 O63 2.333 . S
Cd60 O64 2.352 . S
Cd60 O68 2.277 . S
Cd60 O69 2.356 . S
C61 O66 1.209 . S
C61 O68 1.226 . S
O62 Cd58 2.273 . S
O62 Cd60 2.411 . S
O62 C65 1.320 . S
O63 Cd60 2.333 . S
O63 C65 1.214 . S
O64 Cd60 2.352 . S
O64 C67 1.258 . S
C65 O62 1.320 . S
C65 O63 1.214 . S
O66 Cd58 2.277 . S
O66 C61 1.209 . S
C67 O64 1.258 . S
C67 O69 1.282 . S
O68 Cd60 2.277 . S
O68 C61 1.226 . S
O69 Cd60 2.356 . S
O69 C67 1.282 . S
C70 O71 1.306 . S
C70 O73 1.160 . S
O71 C70 1.306 . S
O71 Cd72 2.228 . S
Cd72 O71 2.228 . S
Cd72 O76 2.273 . S
Cd72 O80 2.277 . S
O73 C70 1.160 . S
O73 Cd74 2.203 . S
Cd74 O73 2.203 . S
Cd74 O76 2.411 . S
Cd74 O77 2.333 . S
Cd74 O78 2.352 . S
Cd74 O82 2.277 . S
Cd74 O83 2.356 . S
C75 O80 1.209 . S
C75 O82 1.226 . S
O76 Cd72 2.273 . S
O76 Cd74 2.411 . S
O76 C79 1.320 . S
O77 Cd74 2.333 . S
O77 C79 1.214 . S
O78 Cd74 2.352 . S
O78 C81 1.258 . S
C79 O76 1.320 . S
C79 O77 1.214 . S
O80 Cd72 2.277 . S
O80 C75 1.209 . S
C81 O78 1.258 . S
C81 O83 1.282 . S
O82 Cd74 2.277 . S
O82 C75 1.226 . S
O83 Cd74 2.356 . S
O83 C81 1.282 . S
C84 O85 1.306 . S
C84 O87 1.160 . S
O85 C84 1.306 . S
O85 Cd86 2.228 . S
Cd86 O85 2.228 . S
Cd86 O90 2.273 . S
Cd86 O94 2.277 . S
O87 C84 1.160 . S
O87 Cd88 2.203 . S
Cd88 O87 2.203 . S
Cd88 O90 2.411 . S
Cd88 O91 2.333 . S
Cd88 O92 2.352 . S
Cd88 O96 2.277 . S
Cd88 O97 2.356 . S
C89 O94 1.209 . S
C89 O96 1.226 . S
O90 Cd86 2.273 . S
O90 Cd88 2.411 . S
O90 C93 1.320 . S
O91 Cd88 2.333 . S
O91 C93 1.214 . S
O92 Cd88 2.352 . S
O92 C95 1.258 . S
C93 O90 1.320 . S
C93 O91 1.214 . S
O94 Cd86 2.277 . S
O94 C89 1.209 . S
C95 O92 1.258 . S
C95 O97 1.282 . S
O96 Cd88 2.277 . S
O96 C89 1.226 . S
O97 Cd88 2.356 . S
O97 C95 1.282 . S
C98 O99 1.306 . S
C98 O101 1.160 . S
O99 C98 1.306 . S
O99 Cd100 2.228 1_655 S
Cd100 O99 2.228 1_455 S
Cd100 O104 2.273 . S
Cd100 O108 2.277 . S
O101 C98 1.160 . S
O101 Cd102 2.203 1_655 S
Cd102 O101 2.203 1_455 S
Cd102 O104 2.411 . S
Cd102 O105 2.333 . S
Cd102 O106 2.352 1_455 S
Cd102 O110 2.277 . S
Cd102 O111 2.356 . S
C103 O108 1.209 . S
C103 O110 1.226 . S
O104 Cd100 2.273 . S
O104 Cd102 2.411 . S
O104 C107 1.320 . S
O105 Cd102 2.333 . S
O105 C107 1.214 . S
O106 Cd102 2.352 1_655 S
O106 C109 1.254 1_655 S
C107 O104 1.320 . S
C107 O105 1.214 . S
O108 Cd100 2.277 . S
O108 C103 1.209 . S
C109 O106 1.254 1_455 S
C109 O111 1.288 . S
O110 Cd102 2.277 . S
O110 C103 1.226 . S
O111 Cd102 2.356 . S
O111 C109 1.288 . S
C112 O113 1.306 . S
C112 O115 1.160 . S
O113 C112 1.306 . S
O113 Cd114 2.228 1_545 S
Cd114 O113 2.228 1_565 S
Cd114 O118 2.273 1_565 S
Cd114 O122 2.277 . S
O115 C112 1.160 . S
O115 Cd116 2.203 . S
Cd116 O115 2.203 . S
Cd116 O118 2.411 . S
Cd116 O119 2.333 . S
Cd116 O120 2.352 . S
Cd116 O124 2.277 1_545 S
Cd116 O125 2.356 . S
C117 O122 1.209 . S
C117 O124 1.226 . S
O118 Cd114 2.273 1_545 S
O118 Cd116 2.411 . S
O118 C121 1.320 . S
O119 Cd116 2.333 . S
O119 C121 1.214 . S
O120 Cd116 2.352 . S
O120 C123 1.258 . S
C121 O118 1.320 . S
C121 O119 1.214 . S
O122 Cd114 2.277 . S
O122 C117 1.209 . S
C123 O120 1.258 . S
C123 O125 1.282 . S
O124 Cd116 2.277 1_565 S
O124 C117 1.226 . S
O125 Cd116 2.356 . S
O125 C123 1.282 . S
C126 O127 1.306 . S
C126 O129 1.160 . S
O127 C126 1.306 . S
O127 Cd128 2.228 . S
Cd128 O127 2.228 . S
Cd128 O132 2.273 . S
Cd128 O136 2.277 . S
O129 C126 1.160 . S
O129 Cd130 2.203 . S
Cd130 O129 2.203 . S
Cd130 O132 2.411 . S
Cd130 O133 2.333 . S
Cd130 O134 2.352 . S
Cd130 O138 2.277 . S
Cd130 O139 2.356 . S
C131 O136 1.209 . S
C131 O138 1.226 . S
O132 Cd128 2.273 . S
O132 Cd130 2.411 . S
O132 C135 1.320 . S
O133 Cd130 2.333 . S
O133 C135 1.214 . S
O134 Cd130 2.352 . S
O134 C137 1.258 . S
C135 O132 1.320 . S
C135 O133 1.214 . S
O136 Cd128 2.277 . S
O136 C131 1.209 . S
C137 O134 1.258 . S
C137 O139 1.282 . S
O138 Cd130 2.277 . S
O138 C131 1.226 . S
O139 Cd130 2.356 . S
O139 C137 1.282 . S
C140 O141 1.306 . S
C140 O143 1.150 1_545 S
O141 C140 1.306 . S
O141 Cd142 2.228 . S
Cd142 O141 2.228 . S
Cd142 O146 2.273 1_545 S
Cd142 O150 2.277 . S
O143 C140 1.150 1_565 S
O143 Cd144 2.203 . S
Cd144 O143 2.203 . S
Cd144 O146 2.411 . S
Cd144 O147 2.333 . S
Cd144 O148 2.352 . S
Cd144 O152 2.277 1_565 S
Cd144 O153 2.356 . S
C145 O150 1.209 . S
C145 O152 1.226 . S
O146 Cd142 2.273 1_565 S
O146 Cd144 2.411 . S
O146 C149 1.320 . S
O147 Cd144 2.333 . S
O147 C149 1.214 . S
O148 Cd144 2.352 . S
O148 C151 1.258 . S
C149 O146 1.320 . S
C149 O147 1.214 . S
O150 Cd142 2.277 . S
O150 C145 1.209 . S
C151 O148 1.258 . S
C151 O153 1.282 . S
O152 Cd144 2.277 1_545 S
O152 C145 1.226 . S
O153 Cd144 2.356 . S
O153 C151 1.282 . S
C154 O155 1.306 . S
C154 O157 1.160 . S
O155 C154 1.306 . S
O155 Cd156 2.252 . S
Cd156 O155 2.252 . S
Cd156 O160 2.312 . S
Cd156 O164 2.270 1_554 S
O157 C154 1.160 . S
O157 Cd158 2.203 . S
Cd158 O157 2.203 . S
Cd158 O160 2.411 . S
Cd158 O161 2.333 . S
Cd158 O162 2.352 . S
Cd158 O166 2.277 . S
Cd158 O167 2.356 . S
C159 O164 1.209 . S
C159 O166 1.226 1_556 S
O160 Cd156 2.312 . S
O160 Cd158 2.411 . S
O160 C163 1.320 . S
O161 Cd158 2.333 . S
O161 C163 1.214 . S
O162 Cd158 2.352 . S
O162 C165 1.258 . S
C163 O160 1.320 . S
C163 O161 1.214 . S
O164 Cd156 2.270 1_556 S
O164 C159 1.209 . S
C165 O162 1.258 . S
C165 O167 1.282 . S
O166 Cd158 2.277 . S
O166 C159 1.226 1_554 S
O167 Cd158 2.356 . S
O167 C165 1.282 . S
C168 O169 1.306 . S
C168 O171 1.160 . S
O169 C168 1.306 . S
O169 Cd170 2.228 1_554 S
Cd170 O169 2.228 1_556 S
Cd170 O174 2.273 1_556 S
Cd170 O178 2.277 . S
O171 C168 1.160 . S
O171 Cd172 2.203 . S
Cd172 O171 2.203 . S
Cd172 O174 2.411 . S
Cd172 O175 2.333 . S
Cd172 O176 2.352 . S
Cd172 O180 2.277 1_554 S
Cd172 O181 2.356 . S
C173 O178 1.209 . S
C173 O180 1.226 . S
O174 Cd170 2.273 1_554 S
O174 Cd172 2.411 . S
O174 C177 1.320 . S
O175 Cd172 2.333 . S
O175 C177 1.214 . S
O176 Cd172 2.352 . S
O176 C179 1.258 . S
C177 O174 1.320 . S
C177 O175 1.214 . S
O178 Cd170 2.277 . S
O178 C173 1.209 . S
C179 O176 1.258 . S
C179 O181 1.282 . S
O180 Cd172 2.277 1_556 S
O180 C173 1.226 . S
O181 Cd172 2.356 . S
O181 C179 1.282 . S
C182 O183 1.306 . S
C182 O185 1.160 1_554 S
O183 C182 1.306 . S
O183 Cd184 2.228 . S
Cd184 O183 2.228 . S
Cd184 O188 2.235 1_554 S
Cd184 O192 2.277 . S
O185 C182 1.160 1_556 S
O185 Cd186 2.203 . S
Cd186 O185 2.203 . S
Cd186 O188 2.419 . S
Cd186 O189 2.333 . S
Cd186 O190 2.352 . S
Cd186 O194 2.277 1_556 S
Cd186 O195 2.356 . S
C187 O192 1.209 . S
C187 O194 1.226 . S
O188 Cd184 2.235 1_556 S
O188 Cd186 2.419 . S
O188 C191 1.325 . S
O189 Cd186 2.333 . S
O189 C191 1.214 . S
O190 Cd186 2.352 . S
O190 C193 1.258 . S
C191 O188 1.325 . S
C191 O189 1.214 . S
O192 Cd184 2.277 . S
O192 C187 1.209 . S
C193 O190 1.258 . S
C193 O195 1.282 . S
O194 Cd186 2.277 1_554 S
O194 C187 1.226 . S
O195 Cd186 2.356 . S
O195 C193 1.282 . S
C196 O197 1.306 . S
C196 O199 1.160 . S
O197 C196 1.306 . S
O197 Cd198 2.228 . S
Cd198 O197 2.228 . S
Cd198 O202 2.273 . S
Cd198 O206 2.277 . S
O199 C196 1.160 . S
O199 Cd200 2.203 . S
Cd200 O199 2.203 . S
Cd200 O202 2.411 . S
Cd200 O203 2.333 . S
Cd200 O204 2.352 . S
Cd200 O208 2.277 . S
Cd200 O209 2.356 . S
C201 O206 1.209 . S
C201 O208 1.226 . S
O202 Cd198 2.273 . S
O202 Cd200 2.411 . S
O202 C205 1.320 . S
O203 Cd200 2.333 . S
O203 C205 1.214 . S
O204 Cd200 2.352 . S
O204 C207 1.258 . S
C205 O202 1.320 . S
C205 O203 1.214 . S
O206 Cd198 2.277 . S
O206 C201 1.209 . S
C207 O204 1.258 . S
C207 O209 1.282 . S
O208 Cd200 2.277 . S
O208 C201 1.226 . S
O209 Cd200 2.356 . S
O209 C207 1.282 . S
C210 O211 1.306 . S
C210 O213 1.160 . S
O211 C210 1.306 . S
O211 Cd212 2.228 . S
Cd212 O211 2.228 . S
Cd212 O216 2.273 . S
Cd212 O220 2.277 . S
O213 C210 1.160 . S
O213 Cd214 2.203 . S
Cd214 O213 2.203 . S
Cd214 O216 2.411 . S
Cd214 O217 2.333 . S
Cd214 O218 2.352 . S
Cd214 O222 2.277 . S
Cd214 O223 2.356 . S
C215 O220 1.209 . S
C215 O222 1.226 . S
O216 Cd212 2.273 . S
O216 Cd214 2.411 . S
O216 C219 1.320 . S
O217 Cd214 2.333 . S
O217 C219 1.214 . S
O218 Cd214 2.352 . S
O218 C221 1.258 . S
C219 O216 1.320 . S
C219 O217 1.214 . S
O220 Cd212 2.277 . S
O220 C215 1.209 . S
C221 O218 1.258 . S
C221 O223 1.282 . S
O222 Cd214 2.277 . S
O222 C215 1.226 . S
O223 Cd214 2.356 . S
O223 C221 1.282 . S
C224 O225 1.306 . S
C224 O227 1.160 . S
O225 C224 1.306 . S
O225 Cd226 2.228 . S
Cd226 O225 2.228 . S
Cd226 O230 2.273 . S
Cd226 O234 2.277 . S
O227 C224 1.160 . S
O227 Cd228 2.203 . S
Cd228 O227 2.203 . S
Cd228 O230 2.411 . S
Cd228 O231 2.333 . S
Cd228 O232 2.352 . S
Cd228 O236 2.277 . S
Cd228 O237 2.356 . S
C229 O234 1.209 . S
C229 O236 1.226 . S
O230 Cd226 2.273 . S
O230 Cd228 2.411 . S
O230 C233 1.320 . S
O231 Cd228 2.333 . S
O231 C233 1.214 . S
O232 Cd228 2.352 . S
O232 C235 1.258 . S
C233 O230 1.320 . S
C233 O231 1.214 . S
O234 Cd226 2.277 . S
O234 C229 1.209 . S
C235 O232 1.258 . S
C235 O237 1.282 . S
O236 Cd228 2.277 . S
O236 C229 1.226 . S
O237 Cd228 2.356 . S
O237 C235 1.282 . S
C238 O239 1.306 . S
C238 O241 1.160 . S
O239 C238 1.306 . S
O239 Cd240 2.228 . S
Cd240 O239 2.228 . S
Cd240 O244 2.273 . S
Cd240 O248 2.277 . S
O241 C238 1.160 . S
O241 Cd242 2.203 . S
Cd242 O241 2.203 . S
Cd242 O244 2.411 . S
Cd242 O245 2.333 . S
Cd242 O246 2.352 . S
Cd242 O250 2.277 . S
Cd242 O251 2.356 . S
C243 O248 1.209 . S
C243 O250 1.226 . S
O244 Cd240 2.273 . S
O244 Cd242 2.411 . S
O244 C247 1.320 . S
O245 Cd242 2.333 . S
O245 C247 1.214 . S
O246 Cd242 2.352 . S
O246 C249 1.258 . S
C247 O244 1.320 . S
C247 O245 1.214 . S
O248 Cd240 2.277 . S
O248 C243 1.209 . S
C249 O246 1.258 . S
C249 O251 1.282 . S
O250 Cd242 2.277 . S
O250 C243 1.226 . S
O251 Cd242 2.356 . S
O251 C249 1.282 . S
C252 O253 1.306 . S
C252 O255 1.160 . S
O253 C252 1.306 . S
O253 Cd254 2.228 . S
Cd254 O253 2.228 . S
Cd254 O258 2.273 . S
Cd254 O262 2.277 . S
O255 C252 1.160 . S
O255 Cd256 2.203 . S
Cd256 O255 2.203 . S
Cd256 O258 2.411 . S
Cd256 O259 2.333 . S
Cd256 O260 2.352 . S
Cd256 O264 2.277 . S
Cd256 O265 2.356 . S
C257 O262 1.209 . S
C257 O264 1.226 . S
O258 Cd254 2.273 . S
O258 Cd256 2.411 . S
O258 C261 1.320 . S
O259 Cd256 2.333 . S
O259 C261 1.214 . S
O260 Cd256 2.352 . S
O260 C263 1.258 . S
C261 O258 1.320 . S
C261 O259 1.214 . S
O262 Cd254 2.277 . S
O262 C257 1.209 . S
C263 O260 1.258 . S
C263 O265 1.282 . S
O264 Cd256 2.277 . S
O264 C257 1.226 . S
O265 Cd256 2.356 . S
O265 C263 1.282 . S
C266 O267 1.306 . S
C266 O269 1.160 . S
O267 C266 1.306 . S
O267 Cd268 2.228 . S
Cd268 O267 2.228 . S
Cd268 O272 2.273 . S
Cd268 O276 2.277 . S
O269 C266 1.160 . S
O269 Cd270 2.203 . S
Cd270 O269 2.203 . S
Cd270 O272 2.411 . S
Cd270 O273 2.333 . S
Cd270 O274 2.352 1_545 S
Cd270 O278 2.277 . S
Cd270 O279 2.386 . S
C271 O276 1.209 . S
C271 O278 1.226 . S
O272 Cd268 2.273 . S
O272 Cd270 2.411 . S
O272 C275 1.320 . S
O273 Cd270 2.333 . S
O273 C275 1.214 . S
O274 Cd270 2.352 1_565 S
O274 C277 1.258 . S
C275 O272 1.320 . S
C275 O273 1.214 . S
O276 Cd268 2.277 . S
O276 C271 1.209 . S
C277 O274 1.258 . S
C277 O279 1.253 1_565 S
O278 Cd270 2.277 . S
O278 C271 1.226 . S
O279 Cd270 2.386 . S
O279 C277 1.253 1_545 S
C280 O281 1.306 . S
C280 O283 1.160 . S
O281 C280 1.306 . S
O281 Cd282 2.228 . S
Cd282 O281 2.228 . S
Cd282 O286 2.273 . S
Cd282 O290 2.277 . S
O283 C280 1.160 . S
O283 Cd284 2.203 . S
Cd284 O283 2.203 . S
Cd284 O286 2.411 . S
Cd284 O287 2.333 . S
Cd284 O288 2.352 1_554 S
Cd284 O292 2.277 . S
Cd284 O293 2.356 1_554 S
C285 O290 1.209 . S
C285 O292 1.226 . S
O286 Cd282 2.273 . S
O286 Cd284 2.411 . S
O286 C289 1.320 . S
O287 Cd284 2.333 . S
O287 C289 1.214 . S
O288 Cd284 2.352 1_556 S
O288 C291 1.258 . S
C289 O286 1.320 . S
C289 O287 1.214 . S
O290 Cd282 2.277 . S
O290 C285 1.209 . S
C291 O288 1.258 . S
C291 O293 1.282 . S
O292 Cd284 2.277 . S
O292 C285 1.226 . S
O293 Cd284 2.356 1_556 S
O293 C291 1.282 . S
C294 O295 1.306 . S
C294 O297 1.160 . S
O295 C294 1.306 . S
O295 Cd296 2.228 . S
Cd296 O295 2.228 . S
Cd296 O300 2.273 . S
Cd296 O304 2.277 . S
O297 C294 1.160 . S
O297 Cd298 2.203 . S
Cd298 O297 2.203 . S
Cd298 O300 2.411 . S
Cd298 O301 2.333 . S
Cd298 O302 2.352 . S
Cd298 O306 2.277 . S
Cd298 O307 2.356 . S
C299 O304 1.209 . S
C299 O306 1.226 . S
O300 Cd296 2.273 . S
O300 Cd298 2.411 . S
O300 C303 1.320 . S
O301 Cd298 2.333 . S
O301 C303 1.214 . S
O302 Cd298 2.352 . S
O302 C305 1.258 . S
C303 O300 1.320 . S
C303 O301 1.214 . S
O304 Cd296 2.277 . S
O304 C299 1.209 . S
C305 O302 1.258 . S
C305 O307 1.282 . S
O306 Cd298 2.277 . S
O306 C299 1.226 . S
O307 Cd298 2.356 . S
O307 C305 1.282 . S
C308 O309 1.306 . S
C308 O311 1.160 . S
O309 C308 1.306 . S
O309 Cd310 2.228 . S
Cd310 O309 2.228 . S
Cd310 O314 2.273 . S
Cd310 O318 2.277 . S
O311 C308 1.160 . S
O311 Cd312 2.203 . S
Cd312 O311 2.203 . S
Cd312 O314 2.411 . S
Cd312 O315 2.333 . S
Cd312 O316 2.352 . S
Cd312 O320 2.277 . S
Cd312 O321 2.356 . S
C313 O318 1.209 . S
C313 O320 1.226 . S
O314 Cd310 2.273 . S
O314 Cd312 2.411 . S
O314 C317 1.320 . S
O315 Cd312 2.333 . S
O315 C317 1.214 . S
O316 Cd312 2.352 . S
O316 C319 1.258 . S
C317 O314 1.320 . S
C317 O315 1.214 . S
O318 Cd310 2.277 . S
O318 C313 1.209 . S
C319 O316 1.258 . S
C319 O321 1.282 . S
O320 Cd312 2.277 . S
O320 C313 1.226 . S
O321 Cd312 2.356 . S
O321 C319 1.282 . S
C322 O323 1.306 . S
C322 O325 1.160 . S
O323 C322 1.306 . S
O323 Cd324 2.228 . S
Cd324 O323 2.228 . S
Cd324 O328 2.273 . S
Cd324 O332 2.277 . S
O325 C322 1.160 . S
O325 Cd326 2.203 . S
Cd326 O325 2.203 . S
Cd326 O328 2.411 . S
Cd326 O329 2.333 . S
Cd326 O330 2.352 . S
Cd326 O334 2.277 . S
Cd326 O335 2.356 . S
C327 O332 1.209 . S
C327 O334 1.226 . S
O328 Cd324 2.273 . S
O328 Cd326 2.411 . S
O328 C331 1.320 . S
O329 Cd326 2.333 . S
O329 C331 1.214 . S
O330 Cd326 2.352 . S
O330 C333 1.258 . S
C331 O328 1.320 . S
C331 O329 1.214 . S
O332 Cd324 2.277 . S
O332 C327 1.209 . S
C333 O330 1.258 . S
C333 O335 1.282 . S
O334 Cd326 2.277 . S
O334 C327 1.226 . S
O335 Cd326 2.356 . S
O335 C333 1.282 . S
Dy336 O340 2.398 1_554 S
Dy336 O341 2.491 . S
Dy336 O342 2.417 1_554 S
Dy336 O343 2.664 1_654 S
Dy336 O347 2.314 1_654 S
Dy336 O351 2.310 1_655 S
Dy336 O352 2.351 1_545 S
C337 O348 1.185 . S
C337 O349 1.355 . S
C338 O340 1.185 . S
C338 O341 1.355 1_556 S
Dy339 O343 2.310 1_554 S
Dy339 O346 2.351 . S
Dy339 O348 2.398 . S
Dy339 O349 2.491 . S
Dy339 O350 2.403 . S
Dy339 O351 2.664 . S
Dy339 O353 2.325 1_545 S
O340 Dy336 2.398 1_556 S
O340 C338 1.185 . S
O341 Dy336 2.491 . S
O341 C338 1.355 1_554 S
O342 Dy336 2.417 1_556 S
O342 C344 1.226 1_655 S
O343 Dy336 2.664 1_456 S
O343 Dy339 2.310 1_556 S
O343 C344 1.268 . S
C344 O342 1.226 1_455 S
C344 O343 1.268 . S
C345 O350 1.254 . S
C345 O351 1.268 . S
O346 Dy339 2.351 . S
O346 C354 1.249 . S
O347 Dy336 2.314 1_456 S
O347 C354 1.293 1_556 S
O348 C337 1.185 . S
O348 Dy339 2.398 . S
O349 C337 1.355 . S
O349 Dy339 2.491 . S
O350 Dy339 2.403 . S
O350 C345 1.254 . S
O351 Dy336 2.310 1_455 S
O351 Dy339 2.664 . S
O351 C345 1.268 . S
O352 Dy336 2.351 1_565 S
O352 C355 1.249 1_655 S
O353 Dy339 2.325 1_565 S
O353 C355 1.268 . S
C354 O346 1.249 . S
C354 O347 1.293 1_554 S
C355 O352 1.249 1_455 S
C355 O353 1.268 . S
Dy356 O360 2.398 . S
Dy356 O361 2.491 . S
Dy356 O362 2.403 . S
Dy356 O363 2.664 . S
Dy356 O367 2.326 . S
Dy356 O371 2.310 . S
Dy356 O372 2.351 . S
C357 O368 1.185 . S
C357 O369 1.355 . S
C358 O360 1.185 . S
C358 O361 1.355 . S
Dy359 O363 2.310 . S
Dy359 O366 2.351 . S
Dy359 O368 2.398 . S
Dy359 O369 2.491 . S
Dy359 O370 2.403 . S
Dy359 O371 2.664 . S
Dy359 O373 2.326 . S
O360 Dy356 2.398 . S
O360 C358 1.185 . S
O361 Dy356 2.491 . S
O361 C358 1.355 . S
O362 Dy356 2.403 . S
O362 C364 1.254 . S
O363 Dy356 2.664 . S
O363 Dy359 2.310 . S
O363 C364 1.268 . S
C364 O362 1.254 . S
C364 O363 1.268 . S
C365 O370 1.254 . S
C365 O371 1.268 . S
O366 Dy359 2.351 . S
O366 C374 1.249 . S
O367 Dy356 2.326 . S
O367 C374 1.267 . S
O368 C357 1.185 . S
O368 Dy359 2.398 . S
O369 C357 1.355 . S
O369 Dy359 2.491 . S
O370 Dy359 2.403 . S
O370 C365 1.254 . S
O371 Dy356 2.310 . S
O371 Dy359 2.664 . S
O371 C365 1.268 . S
O372 Dy356 2.351 . S
O372 C375 1.249 . S
O373 Dy359 2.326 . S
O373 C375 1.267 . S
C374 O366 1.249 . S
C374 O367 1.267 . S
C375 O372 1.249 . S
C375 O373 1.267 . S
Dy376 O380 2.398 . S
Dy376 O381 2.509 . S
Dy376 O382 2.403 . S
Dy376 O383 2.664 . S
Dy376 O387 2.326 1_545 S
Dy376 O391 2.310 . S
Dy376 O392 2.351 . S
C377 O388 1.185 . S
C377 O389 1.355 . S
C378 O380 1.162 1_565 S
C378 O381 1.355 1_565 S
Dy379 O383 2.310 . S
Dy379 O386 2.351 1_545 S
Dy379 O388 2.398 . S
Dy379 O389 2.491 . S
Dy379 O390 2.403 . S
Dy379 O391 2.664 . S
Dy379 O393 2.326 . S
O380 Dy376 2.398 . S
O380 C378 1.162 1_545 S
O381 Dy376 2.509 . S
O381 C378 1.355 1_545 S
O382 Dy376 2.403 . S
O382 C384 1.254 . S
O383 Dy376 2.664 . S
O383 Dy379 2.310 . S
O383 C384 1.268 . S
C384 O382 1.254 . S
C384 O383 1.268 . S
C385 O390 1.254 . S
C385 O391 1.268 . S
O386 Dy379 2.351 1_565 S
O386 C394 1.249 . S
O387 Dy376 2.326 1_565 S
O387 C394 1.267 . S
O388 C377 1.185 . S
O388 Dy379 2.398 . S
O389 C377 1.355 . S
O389 Dy379 2.491 . S
O390 Dy379 2.403 . S
O390 C385 1.254 . S
O391 Dy376 2.310 . S
O391 Dy379 2.664 . S
O391 C385 1.268 . S
O392 Dy376 2.351 . S
O392 C395 1.249 . S
O393 Dy379 2.326 . S
O393 C395 1.267 . S
C394 O386 1.249 . S
C394 O387 1.267 . S
C395 O392 1.249 . S
C395 O393 1.267 . S
Dy396 O400 2.398 . S
Dy396 O401 2.491 . S
Dy396 O402 2.403 . S
Dy396 O403 2.664 . S
Dy396 O407 2.326 . S
Dy396 O411 2.310 . S
Dy396 O412 2.351 . S
C397 O408 1.185 . S
C397 O409 1.355 . S
C398 O400 1.185 . S
C398 O401 1.355 . S
Dy399 O403 2.310 . S
Dy399 O406 2.351 . S
Dy399 O408 2.398 . S
Dy399 O409 2.491 . S
Dy399 O410 2.403 . S
Dy399 O411 2.664 . S
Dy399 O413 2.326 . S
O400 Dy396 2.398 . S
O400 C398 1.185 . S
O401 Dy396 2.491 . S
O401 C398 1.355 . S
O402 Dy396 2.403 . S
O402 C404 1.254 . S
O403 Dy396 2.664 . S
O403 Dy399 2.310 . S
O403 C404 1.268 . S
C404 O402 1.254 . S
C404 O403 1.268 . S
C405 O410 1.254 . S
C405 O411 1.268 . S
O406 Dy399 2.351 . S
O406 C414 1.249 . S
O407 Dy396 2.326 . S
O407 C414 1.267 . S
O408 C397 1.185 . S
O408 Dy399 2.398 . S
O409 C397 1.355 . S
O409 Dy399 2.491 . S
O410 Dy399 2.403 . S
O410 C405 1.254 . S
O411 Dy396 2.310 . S
O411 Dy399 2.664 . S
O411 C405 1.268 . S
O412 Dy396 2.351 . S
O412 C415 1.249 . S
O413 Dy399 2.326 . S
O413 C415 1.267 . S
C414 O406 1.249 . S
C414 O407 1.267 . S
C415 O412 1.249 . S
C415 O413 1.267 . S
Dy416 O420 2.398 . S
Dy416 O421 2.491 1_455 S
Dy416 O422 2.403 . S
Dy416 O423 2.664 . S
Dy416 O427 2.326 . S
Dy416 O431 2.310 1_455 S
Dy416 O432 2.351 1_545 S
C417 O428 1.185 . S
C417 O429 1.355 . S
C418 O420 1.150 1_655 S
C418 O421 1.379 . S
Dy419 O423 2.310 . S
Dy419 O426 2.351 . S
Dy419 O428 2.398 . S
Dy419 O429 2.491 . S
Dy419 O430 2.403 1_455 S
Dy419 O431 2.664 1_455 S
Dy419 O433 2.330 1_545 S
O420 Dy416 2.398 . S
O420 C418 1.150 1_455 S
O421 Dy416 2.491 1_655 S
O421 C418 1.379 . S
O422 Dy416 2.403 . S
O422 C424 1.254 . S
O423 Dy416 2.664 . S
O423 Dy419 2.310 . S
O423 C424 1.268 . S
C424 O422 1.254 . S
C424 O423 1.268 . S
C425 O430 1.254 . S
C425 O431 1.268 . S
O426 Dy419 2.351 . S
O426 C434 1.249 . S
O427 Dy416 2.326 . S
O427 C434 1.267 . S
O428 C417 1.185 . S
O428 Dy419 2.398 . S
O429 C417 1.355 . S
O429 Dy419 2.491 . S
O430 Dy419 2.403 1_655 S
O430 C425 1.254 . S
O431 Dy416 2.310 1_655 S
O431 Dy419 2.664 1_655 S
O431 C425 1.268 . S
O432 Dy416 2.351 1_565 S
O432 C435 1.249 . S
O433 Dy419 2.330 1_565 S
O433 C435 1.265 . S
C434 O426 1.249 . S
C434 O427 1.267 . S
C435 O432 1.249 . S
C435 O433 1.265 . S
Dy436 O440 2.398 . S
Dy436 O441 2.491 . S
Dy436 O442 2.403 . S
Dy436 O443 2.664 . S
Dy436 O447 2.326 . S
Dy436 O451 2.310 . S
Dy436 O452 2.351 . S
C437 O448 1.185 . S
C437 O449 1.355 . S
C438 O440 1.185 . S
C438 O441 1.355 . S
Dy439 O443 2.310 . S
Dy439 O446 2.351 . S
Dy439 O448 2.398 . S
Dy439 O449 2.491 . S
Dy439 O450 2.403 . S
Dy439 O451 2.664 . S
Dy439 O453 2.326 . S
O440 Dy436 2.398 . S
O440 C438 1.185 . S
O441 Dy436 2.491 . S
O441 C438 1.355 . S
O442 Dy436 2.403 . S
O442 C444 1.254 . S
O443 Dy436 2.664 . S
O443 Dy439 2.310 . S
O443 C444 1.268 . S
C444 O442 1.254 . S
C444 O443 1.268 . S
C445 O450 1.254 . S
C445 O451 1.268 . S
O446 Dy439 2.351 . S
O446 C454 1.249 . S
O447 Dy436 2.326 . S
O447 C454 1.267 . S
O448 C437 1.185 . S
O448 Dy439 2.398 . S
O449 C437 1.355 . S
O449 Dy439 2.491 . S
O450 Dy439 2.403 . S
O450 C445 1.254 . S
O451 Dy436 2.310 . S
O451 Dy439 2.664 . S
O451 C445 1.268 . S
O452 Dy436 2.351 . S
O452 C455 1.249 . S
O453 Dy439 2.326 . S
O453 C455 1.267 . S
C454 O446 1.249 . S
C454 O447 1.267 . S
C455 O452 1.249 . S
C455 O453 1.267 . S
Dy456 O460 2.398 1_545 S
Dy456 O461 2.491 . S
Dy456 O462 2.403 1_545 S
Dy456 O463 2.664 . S
Dy456 O467 2.326 . S
Dy456 O471 2.310 . S
Dy456 O472 2.351 . S
C457 O468 1.185 . S
C457 O469 1.355 . S
C458 O460 1.185 1_545 S
C458 O461 1.355 . S
Dy459 O463 2.310 1_556 S
Dy459 O466 2.351 . S
Dy459 O468 2.398 . S
Dy459 O469 2.491 . S
Dy459 O470 2.403 1_556 S
Dy459 O471 2.664 1_556 S
Dy459 O473 2.325 . S
O460 Dy456 2.398 1_565 S
O460 C458 1.185 1_565 S
O461 Dy456 2.491 . S
O461 C458 1.355 . S
O462 Dy456 2.403 1_565 S
O462 C464 1.254 . S
O463 Dy456 2.664 . S
O463 Dy459 2.310 1_554 S
O463 C464 1.268 1_545 S
C464 O462 1.254 . S
C464 O463 1.268 1_565 S
C465 O470 1.254 . S
C465 O471 1.268 . S
O466 Dy459 2.351 . S
O466 C474 1.249 1_556 S
O467 Dy456 2.326 . S
O467 C474 1.267 . S
O468 C457 1.185 . S
O468 Dy459 2.398 . S
O469 C457 1.355 . S
O469 Dy459 2.491 . S
O470 Dy459 2.403 1_554 S
O470 C465 1.254 . S
O471 Dy456 2.310 . S
O471 Dy459 2.664 1_554 S
O471 C465 1.268 . S
O472 Dy456 2.351 . S
O472 C475 1.249 . S
O473 Dy459 2.325 . S
O473 C475 1.270 1_556 S
C474 O466 1.249 1_554 S
C474 O467 1.267 . S
C475 O472 1.249 . S
C475 O473 1.270 1_554 S
Dy476 O480 2.398 . S
Dy476 O481 2.491 . S
Dy476 O482 2.403 . S
Dy476 O483 2.664 . S
Dy476 O487 2.326 . S
Dy476 O491 2.310 . S
Dy476 O492 2.351 . S
C477 O488 1.185 . S
C477 O489 1.355 . S
C478 O480 1.185 . S
C478 O481 1.355 . S
Dy479 O483 2.310 . S
Dy479 O486 2.351 . S
Dy479 O488 2.398 . S
Dy479 O489 2.491 . S
Dy479 O490 2.403 . S
Dy479 O491 2.664 . S
Dy479 O493 2.326 . S
O480 Dy476 2.398 . S
O480 C478 1.185 . S
O481 Dy476 2.491 . S
O481 C478 1.355 . S
O482 Dy476 2.403 . S
O482 C484 1.254 . S
O483 Dy476 2.664 . S
O483 Dy479 2.310 . S
O483 C484 1.268 . S
C484 O482 1.254 . S
C484 O483 1.268 . S
C485 O490 1.254 . S
C485 O491 1.268 . S
O486 Dy479 2.351 . S
O486 C494 1.249 . S
O487 Dy476 2.326 . S
O487 C494 1.267 . S
O488 C477 1.185 . S
O488 Dy479 2.398 . S
O489 C477 1.355 . S
O489 Dy479 2.491 . S
O490 Dy479 2.403 . S
O490 C485 1.254 . S
O491 Dy476 2.310 . S
O491 Dy479 2.664 . S
O491 C485 1.268 . S
O492 Dy476 2.351 . S
O492 C495 1.249 . S
O493 Dy479 2.326 . S
O493 C495 1.267 . S
C494 O486 1.249 . S
C494 O487 1.267 . S
C495 O492 1.249 . S
C495 O493 1.267 . S
Dy496 O500 2.398 . S
Dy496 O501 2.491 . S
Dy496 O502 2.403 . S
Dy496 O503 2.664 1_556 S
Dy496 O507 2.326 . S
Dy496 O511 2.310 1_556 S
Dy496 O512 2.351 1_556 S
C497 O508 1.185 . S
C497 O509 1.355 . S
C498 O500 1.185 . S
C498 O501 1.355 . S
Dy499 O503 2.310 . S
Dy499 O506 2.351 . S
Dy499 O508 2.398 . S
Dy499 O509 2.491 . S
Dy499 O510 2.403 . S
Dy499 O511 2.664 . S
Dy499 O513 2.326 . S
O500 Dy496 2.398 . S
O500 C498 1.185 . S
O501 Dy496 2.491 . S
O501 C498 1.355 . S
O502 Dy496 2.403 . S
O502 C504 1.254 1_556 S
O503 Dy496 2.664 1_554 S
O503 Dy499 2.310 . S
O503 C504 1.268 . S
C504 O502 1.254 1_554 S
C504 O503 1.268 . S
C505 O510 1.254 . S
C505 O511 1.268 . S
O506 Dy499 2.351 . S
O506 C514 1.302 . S
O507 Dy496 2.326 . S
O507 C514 1.235 1_556 S
O508 C497 1.185 . S
O508 Dy499 2.398 . S
O509 C497 1.355 . S
O509 Dy499 2.491 . S
O510 Dy499 2.403 . S
O510 C505 1.254 . S
O511 Dy496 2.310 1_554 S
O511 Dy499 2.664 . S
O511 C505 1.268 . S
O512 Dy496 2.351 1_554 S
O512 C515 1.249 . S
O513 Dy499 2.326 . S
O513 C515 1.267 . S
C514 O506 1.302 . S
C514 O507 1.235 1_554 S
C515 O512 1.249 . S
C515 O513 1.267 . S
Dy516 O520 2.398 . S
Dy516 O521 2.491 . S
Dy516 O522 2.403 . S
Dy516 O523 2.664 . S
Dy516 O527 2.326 . S
Dy516 O531 2.310 . S
Dy516 O532 2.351 . S
C517 O528 1.185 . S
C517 O529 1.355 . S
C518 O520 1.185 . S
C518 O521 1.355 . S
Dy519 O523 2.310 . S
Dy519 O526 2.351 . S
Dy519 O528 2.398 . S
Dy519 O529 2.491 . S
Dy519 O530 2.403 . S
Dy519 O531 2.664 . S
Dy519 O533 2.326 . S
O520 Dy516 2.398 . S
O520 C518 1.185 . S
O521 Dy516 2.491 . S
O521 C518 1.355 . S
O522 Dy516 2.403 . S
O522 C524 1.254 . S
O523 Dy516 2.664 . S
O523 Dy519 2.310 . S
O523 C524 1.268 . S
C524 O522 1.254 . S
C524 O523 1.268 . S
C525 O530 1.254 . S
C525 O531 1.268 . S
O526 Dy519 2.351 . S
O526 C534 1.249 . S
O527 Dy516 2.326 . S
O527 C534 1.267 . S
O528 C517 1.185 . S
O528 Dy519 2.398 . S
O529 C517 1.355 . S
O529 Dy519 2.491 . S
O530 Dy519 2.403 . S
O530 C525 1.254 . S
O531 Dy516 2.310 . S
O531 Dy519 2.664 . S
O531 C525 1.268 . S
O532 Dy516 2.351 . S
O532 C535 1.249 . S
O533 Dy519 2.326 . S
O533 C535 1.267 . S
C534 O526 1.249 . S
C534 O527 1.267 . S
C535 O532 1.249 . S
C535 O533 1.267 . S
Dy536 O540 2.397 . S
Dy536 O541 2.491 1_455 S
Dy536 O542 2.403 . S
Dy536 O543 2.664 . S
Dy536 O547 2.326 1_455 S
Dy536 O551 2.310 . S
Dy536 O552 2.351 . S
C537 O548 1.185 . S
C537 O549 1.355 . S
C538 O540 1.187 1_655 S
C538 O541 1.355 . S
Dy539 O543 2.310 . S
Dy539 O546 2.351 1_455 S
Dy539 O548 2.398 . S
Dy539 O549 2.491 . S
Dy539 O550 2.403 . S
Dy539 O551 2.664 . S
Dy539 O553 2.326 . S
O540 Dy536 2.397 . S
O540 C538 1.187 1_455 S
O541 Dy536 2.491 1_655 S
O541 C538 1.355 . S
O542 Dy536 2.403 . S
O542 C544 1.254 . S
O543 Dy536 2.664 . S
O543 Dy539 2.310 . S
O543 C544 1.268 . S
C544 O542 1.254 . S
C544 O543 1.268 . S
C545 O550 1.254 . S
C545 O551 1.268 . S
O546 Dy539 2.351 1_655 S
O546 C554 1.249 . S
O547 Dy536 2.326 1_655 S
O547 C554 1.267 . S
O548 C537 1.185 . S
O548 Dy539 2.398 . S
O549 C537 1.355 . S
O549 Dy539 2.491 . S
O550 Dy539 2.403 . S
O550 C545 1.254 . S
O551 Dy536 2.310 . S
O551 Dy539 2.664 . S
O551 C545 1.268 . S
O552 Dy536 2.351 . S
O552 C555 1.249 . S
O553 Dy539 2.326 . S
O553 C555 1.267 . S
C554 O546 1.249 . S
C554 O547 1.267 . S
C555 O552 1.249 . S
C555 O553 1.267 . S
Dy556 O560 2.398 . S
Dy556 O561 2.491 . S
Dy556 O562 2.403 . S
Dy556 O563 2.664 . S
Dy556 O567 2.326 . S
Dy556 O571 2.310 . S
Dy556 O572 2.351 . S
C557 O568 1.185 . S
C557 O569 1.355 . S
C558 O560 1.185 . S
C558 O561 1.355 . S
Dy559 O563 2.310 . S
Dy559 O566 2.351 . S
Dy559 O568 2.398 . S
Dy559 O569 2.491 . S
Dy559 O570 2.403 . S
Dy559 O571 2.664 . S
Dy559 O573 2.326 . S
O560 Dy556 2.398 . S
O560 C558 1.185 . S
O561 Dy556 2.491 . S
O561 C558 1.355 . S
O562 Dy556 2.403 . S
O562 C564 1.254 . S
O563 Dy556 2.664 . S
O563 Dy559 2.310 . S
O563 C564 1.268 . S
C564 O562 1.254 . S
C564 O563 1.268 . S
C565 O570 1.254 . S
C565 O571 1.268 . S
O566 Dy559 2.351 . S
O566 C574 1.249 . S
O567 Dy556 2.326 . S
O567 C574 1.267 . S
O568 C557 1.185 . S
O568 Dy559 2.398 . S
O569 C557 1.355 . S
O569 Dy559 2.491 . S
O570 Dy559 2.403 . S
O570 C565 1.254 . S
O571 Dy556 2.310 . S
O571 Dy559 2.664 . S
O571 C565 1.268 . S
O572 Dy556 2.351 . S
O572 C575 1.249 . S
O573 Dy559 2.326 . S
O573 C575 1.267 . S
C574 O566 1.249 . S
C574 O567 1.267 . S
C575 O572 1.249 . S
C575 O573 1.267 . S
Dy576 O580 2.398 . S
Dy576 O581 2.491 . S
Dy576 O582 2.403 . S
Dy576 O583 2.664 . S
Dy576 O587 2.326 . S
Dy576 O591 2.310 . S
Dy576 O592 2.351 . S
C577 O588 1.185 . S
C577 O589 1.355 . S
C578 O580 1.185 . S
C578 O581 1.355 . S
Dy579 O583 2.310 . S
Dy579 O586 2.351 . S
Dy579 O588 2.398 . S
Dy579 O589 2.491 . S
Dy579 O590 2.403 . S
Dy579 O591 2.664 . S
Dy579 O593 2.326 . S
O580 Dy576 2.398 . S
O580 C578 1.185 . S
O581 Dy576 2.491 . S
O581 C578 1.355 . S
O582 Dy576 2.403 . S
O582 C584 1.254 . S
O583 Dy576 2.664 . S
O583 Dy579 2.310 . S
O583 C584 1.268 . S
C584 O582 1.254 . S
C584 O583 1.268 . S
C585 O590 1.254 . S
C585 O591 1.268 . S
O586 Dy579 2.351 . S
O586 C594 1.249 . S
O587 Dy576 2.326 . S
O587 C594 1.267 . S
O588 C577 1.185 . S
O588 Dy579 2.398 . S
O589 C577 1.355 . S
O589 Dy579 2.491 . S
O590 Dy579 2.403 . S
O590 C585 1.254 . S
O591 Dy576 2.310 . S
O591 Dy579 2.664 . S
O591 C585 1.268 . S
O592 Dy576 2.351 . S
O592 C595 1.249 . S
O593 Dy579 2.326 . S
O593 C595 1.267 . S
C594 O586 1.249 . S
C594 O587 1.267 . S
C595 O592 1.249 . S
C595 O593 1.267 . S
Dy596 O600 2.398 . S
Dy596 O601 2.491 . S
Dy596 O602 2.403 . S
Dy596 O603 2.664 . S
Dy596 O607 2.326 . S
Dy596 O611 2.310 . S
Dy596 O612 2.351 . S
C597 O608 1.185 . S
C597 O609 1.355 . S
C598 O600 1.185 . S
C598 O601 1.355 . S
Dy599 O603 2.310 . S
Dy599 O606 2.351 . S
Dy599 O608 2.398 . S
Dy599 O609 2.491 . S
Dy599 O610 2.403 . S
Dy599 O611 2.664 . S
Dy599 O613 2.326 . S
O600 Dy596 2.398 . S
O600 C598 1.185 . S
O601 Dy596 2.491 . S
O601 C598 1.355 . S
O602 Dy596 2.403 . S
O602 C604 1.254 . S
O603 Dy596 2.664 . S
O603 Dy599 2.310 . S
O603 C604 1.268 . S
C604 O602 1.254 . S
C604 O603 1.268 . S
C605 O610 1.254 . S
C605 O611 1.268 . S
O606 Dy599 2.351 . S
O606 C614 1.249 . S
O607 Dy596 2.326 . S
O607 C614 1.267 . S
O608 C597 1.185 . S
O608 Dy599 2.398 . S
O609 C597 1.355 . S
O609 Dy599 2.491 . S
O610 Dy599 2.403 . S
O610 C605 1.254 . S
O611 Dy596 2.310 . S
O611 Dy599 2.664 . S
O611 C605 1.268 . S
O612 Dy596 2.351 . S
O612 C615 1.249 . S
O613 Dy599 2.326 . S
O613 C615 1.267 . S
C614 O606 1.249 . S
C614 O607 1.267 . S
C615 O612 1.249 . S
C615 O613 1.267 . S
Dy616 O620 2.398 . S
Dy616 O621 2.491 . S
Dy616 O622 2.403 . S
Dy616 O623 2.664 . S
Dy616 O627 2.326 . S
Dy616 O631 2.310 . S
Dy616 O632 2.351 . S
C617 O628 1.185 . S
C617 O629 1.355 . S
C618 O620 1.185 . S
C618 O621 1.355 . S
Dy619 O623 2.310 . S
Dy619 O626 2.351 . S
Dy619 O628 2.398 . S
Dy619 O629 2.491 . S
Dy619 O630 2.403 . S
Dy619 O631 2.664 . S
Dy619 O633 2.326 . S
O620 Dy616 2.398 . S
O620 C618 1.185 . S
O621 Dy616 2.491 . S
O621 C618 1.355 . S
O622 Dy616 2.403 . S
O622 C624 1.254 . S
O623 Dy616 2.664 . S
O623 Dy619 2.310 . S
O623 C624 1.268 . S
C624 O622 1.254 . S
C624 O623 1.268 . S
C625 O630 1.254 . S
C625 O631 1.268 . S
O626 Dy619 2.351 . S
O626 C634 1.249 . S
O627 Dy616 2.326 . S
O627 C634 1.267 . S
O628 C617 1.185 . S
O628 Dy619 2.398 . S
O629 C617 1.355 . S
O629 Dy619 2.491 . S
O630 Dy619 2.403 . S
O630 C625 1.254 . S
O631 Dy616 2.310 . S
O631 Dy619 2.664 . S
O631 C625 1.268 . S
O632 Dy616 2.351 . S
O632 C635 1.249 . S
O633 Dy619 2.326 . S
O633 C635 1.267 . S
C634 O626 1.249 . S
C634 O627 1.267 . S
C635 O632 1.249 . S
C635 O633 1.267 . S
Dy636 O640 2.398 1_554 S
Dy636 O641 2.491 . S
Dy636 O642 2.403 1_554 S
Dy636 O643 2.664 1_554 S
Dy636 O647 2.326 1_554 S
Dy636 O651 2.310 . S
Dy636 O652 2.351 . S
C637 O648 1.185 . S
C637 O649 1.355 . S
C638 O640 1.150 1_554 S
C638 O641 1.400 . S
Dy639 O643 2.310 1_654 S
Dy639 O646 2.351 . S
Dy639 O648 2.398 . S
Dy639 O649 2.491 . S
Dy639 O650 2.403 . S
Dy639 O651 2.664 1_655 S
Dy639 O653 2.326 1_655 S
O640 Dy636 2.398 1_556 S
O640 C638 1.150 1_556 S
O641 Dy636 2.491 . S
O641 C638 1.400 . S
O642 Dy636 2.403 1_556 S
O642 C644 1.254 . S
O643 Dy636 2.664 1_556 S
O643 Dy639 2.310 1_456 S
O643 C644 1.268 . S
C644 O642 1.254 . S
C644 O643 1.268 . S
C645 O650 1.254 1_455 S
C645 O651 1.268 . S
O646 Dy639 2.351 . S
O646 C654 1.249 1_655 S
O647 Dy636 2.326 1_556 S
O647 C654 1.267 1_556 S
O648 C637 1.185 . S
O648 Dy639 2.398 . S
O649 C637 1.355 . S
O649 Dy639 2.491 . S
O650 Dy639 2.403 . S
O650 C645 1.254 1_655 S
O651 Dy636 2.310 . S
O651 Dy639 2.664 1_455 S
O651 C645 1.268 . S
O652 Dy636 2.351 . S
O652 C655 1.249 . S
O653 Dy639 2.326 1_455 S
O653 C655 1.267 . S
C654 O646 1.249 1_455 S
C654 O647 1.267 1_554 S
C655 O652 1.249 . S
C655 O653 1.267 . S
H656 C674 0.951 . S
H657 C676 0.951 . S
H658 C678 0.950 . S
H659 C679 0.950 . S
H660 C681 0.950 . S
H661 C684 0.950 . S
H662 C685 0.950 . S
H663 C687 0.950 . S
H664 C688 0.950 . S
H665 C689 0.951 . S
H666 C691 0.951 . S
H667 C693 0.950 1_655 S
H668 C694 0.940 1_655 S
H669 C696 0.950 . S
H670 C699 0.950 . S
H671 C700 0.950 . S
H672 C702 0.950 . S
H673 C703 0.950 1_455 S
C674 H656 0.951 . S
C674 C675 1.361 1_655 S
C674 C676 1.388 . S
C675 C674 1.361 1_455 S
C675 C679 1.393 . S
C676 H657 0.951 . S
C676 C674 1.388 . S
C676 C677 1.366 1_655 S
C677 C676 1.366 1_455 S
C677 C678 1.414 . S
C677 C680 1.499 . S
C678 H658 0.950 . S
C678 C677 1.414 . S
C678 C679 1.374 . S
C679 H659 0.950 . S
C679 C675 1.393 . S
C679 C678 1.374 . S
C680 C677 1.499 . S
C680 C681 1.373 1_455 S
C680 C682 1.389 . S
C681 H660 0.950 . S
C681 C680 1.373 1_655 S
C681 C697 1.377 . S
C682 C680 1.389 . S
C682 C683 1.524 . S
C682 C696 1.377 . S
C683 C682 1.524 . S
C683 C684 1.397 . S
C683 C688 1.363 1_556 S
C684 H661 0.950 . S
C684 C683 1.397 . S
C684 C685 1.334 . S
C685 H662 0.950 . S
C685 C684 1.334 . S
C685 C686 1.287 1_556 S
C686 C685 1.287 1_554 S
C686 C687 1.524 . S
C686 H705 0.913 . S
C687 H663 0.950 . S
C687 C686 1.524 . S
C687 C688 1.415 . S
C688 H664 0.950 . S
C688 C683 1.363 1_554 S
C688 C687 1.415 . S
C689 H665 0.951 . S
C689 C690 1.366 1_556 S
C689 C691 1.388 . S
C690 C689 1.366 1_554 S
C690 C694 1.385 . S
C691 H666 0.951 . S
C691 C689 1.388 . S
C691 C692 1.366 . S
C692 C691 1.366 . S
C692 C693 1.414 1_556 S
C692 C695 1.499 . S
C693 H667 0.950 1_455 S
C693 C692 1.414 1_554 S
C693 C694 1.374 . S
C694 H668 0.940 1_455 S
C694 C690 1.385 . S
C694 C693 1.374 . S
C695 C692 1.499 . S
C695 C696 1.373 . S
C695 C697 1.389 1_455 S
C696 H669 0.950 . S
C696 C682 1.377 . S
C696 C695 1.373 . S
C697 C681 1.377 . S
C697 C695 1.389 1_655 S
C697 C698 1.524 . S
C698 C697 1.524 . S
C698 C699 1.397 . S
C698 C703 1.363 . S
C699 H670 0.950 . S
C699 C698 1.397 . S
C699 C700 1.334 . S
C700 H671 0.950 . S
C700 C699 1.334 . S
C700 C701 1.287 . S
C701 C700 1.287 . S
C701 C702 1.524 . S
C701 H704 0.999 . S
C702 H672 0.950 . S
C702 C701 1.524 . S
C702 C703 1.415 . S
C703 H673 0.950 1_655 S
C703 C698 1.363 . S
C703 C702 1.415 . S
H704 C701 0.999 . S
H705 C686 0.913 . S
H706 C724 0.951 . S
H707 C726 0.951 . S
H708 C728 0.950 . S
H709 C729 0.950 . S
H710 C731 0.950 . S
H711 C734 0.950 . S
H712 C735 0.950 . S
H713 C737 0.950 . S
H714 C738 0.950 . S
H715 C739 0.951 . S
H716 C741 0.951 . S
H717 C743 0.950 . S
H718 C744 0.950 . S
H719 C746 0.950 . S
H720 C749 0.950 . S
H721 C750 0.950 . S
H722 C752 0.950 . S
H723 C753 0.950 . S
C724 H706 0.951 . S
C724 C725 1.366 . S
C724 C726 1.388 . S
C725 C724 1.366 . S
C725 C729 1.385 . S
C726 H707 0.951 . S
C726 C724 1.388 . S
C726 C727 1.366 . S
C727 C726 1.366 . S
C727 C728 1.414 . S
C727 C730 1.499 . S
C728 H708 0.950 . S
C728 C727 1.414 . S
C728 C729 1.374 . S
C729 H709 0.950 . S
C729 C725 1.385 . S
C729 C728 1.374 . S
C730 C727 1.499 . S
C730 C731 1.373 . S
C730 C732 1.389 . S
C731 H710 0.950 . S
C731 C730 1.373 . S
C731 C747 1.377 . S
C732 C730 1.389 . S
C732 C733 1.524 . S
C732 C746 1.377 . S
C733 C732 1.524 . S
C733 C734 1.397 . S
C733 C738 1.363 . S
C734 H711 0.950 . S
C734 C733 1.397 . S
C734 C735 1.334 . S
C735 H712 0.950 . S
C735 C734 1.334 . S
C735 C736 1.287 . S
C736 C735 1.287 . S
C736 C737 1.524 . S
C736 H755 0.913 . S
C737 H713 0.950 . S
C737 C736 1.524 . S
C737 C738 1.415 . S
C738 H714 0.950 . S
C738 C733 1.363 . S
C738 C737 1.415 . S
C739 H715 0.951 . S
C739 C740 1.366 . S
C739 C741 1.388 . S
C740 C739 1.366 . S
C740 C744 1.385 . S
C741 H716 0.951 . S
C741 C739 1.388 . S
C741 C742 1.366 . S
C742 C741 1.366 . S
C742 C743 1.414 . S
C742 C745 1.499 . S
C743 H717 0.950 . S
C743 C742 1.414 . S
C743 C744 1.374 . S
C744 H718 0.950 . S
C744 C740 1.385 . S
C744 C743 1.374 . S
C745 C742 1.499 . S
C745 C746 1.373 . S
C745 C747 1.389 . S
C746 H719 0.950 . S
C746 C732 1.377 . S
C746 C745 1.373 . S
C747 C731 1.377 . S
C747 C745 1.389 . S
C747 C748 1.524 . S
C748 C747 1.524 . S
C748 C749 1.397 . S
C748 C753 1.363 . S
C749 H720 0.950 . S
C749 C748 1.397 . S
C749 C750 1.334 . S
C750 H721 0.950 . S
C750 C749 1.334 . S
C750 C751 1.287 . S
C751 C750 1.287 . S
C751 C752 1.524 . S
C751 H754 0.999 . S
C752 H722 0.950 . S
C752 C751 1.524 . S
C752 C753 1.415 . S
C753 H723 0.950 . S
C753 C748 1.363 . S
C753 C752 1.415 . S
H754 C751 0.999 . S
H755 C736 0.913 . S
H756 C774 0.951 . S
H757 C776 0.951 . S
H758 C778 0.950 . S
H759 C779 0.950 . S
H760 C781 0.950 . S
H761 C784 0.950 . S
H762 C785 0.950 . S
H763 C787 0.950 . S
H764 C788 0.950 . S
H765 C789 0.951 . S
H766 C791 0.951 . S
H767 C793 0.950 . S
H768 C794 0.950 . S
H769 C796 0.950 . S
H770 C799 0.950 . S
H771 C800 0.950 . S
H772 C802 0.950 . S
H773 C803 0.950 . S
C774 H756 0.951 . S
C774 C775 1.366 . S
C774 C776 1.388 . S
C775 C774 1.366 . S
C775 C779 1.385 . S
C776 H757 0.951 . S
C776 C774 1.388 . S
C776 C777 1.366 . S
C777 C776 1.366 . S
C777 C778 1.414 . S
C777 C780 1.499 . S
C778 H758 0.950 . S
C778 C777 1.414 . S
C778 C779 1.374 . S
C779 H759 0.950 . S
C779 C775 1.385 . S
C779 C778 1.374 . S
C780 C777 1.499 . S
C780 C781 1.373 . S
C780 C782 1.389 . S
C781 H760 0.950 . S
C781 C780 1.373 . S
C781 C797 1.377 . S
C782 C780 1.389 . S
C782 C783 1.524 . S
C782 C796 1.377 . S
C783 C782 1.524 . S
C783 C784 1.397 . S
C783 C788 1.363 . S
C784 H761 0.950 . S
C784 C783 1.397 . S
C784 C785 1.334 . S
C785 H762 0.950 . S
C785 C784 1.334 . S
C785 C786 1.287 . S
C786 C785 1.287 . S
C786 C787 1.524 . S
C786 H805 0.913 . S
C787 H763 0.950 . S
C787 C786 1.524 . S
C787 C788 1.415 . S
C788 H764 0.950 . S
C788 C783 1.363 . S
C788 C787 1.415 . S
C789 H765 0.951 . S
C789 C790 1.366 . S
C789 C791 1.388 . S
C790 C789 1.366 . S
C790 C794 1.385 . S
C791 H766 0.951 . S
C791 C789 1.388 . S
C791 C792 1.366 . S
C792 C791 1.366 . S
C792 C793 1.414 . S
C792 C795 1.499 . S
C793 H767 0.950 . S
C793 C792 1.414 . S
C793 C794 1.374 . S
C794 H768 0.950 . S
C794 C790 1.385 . S
C794 C793 1.374 . S
C795 C792 1.499 . S
C795 C796 1.373 . S
C795 C797 1.389 . S
C796 H769 0.950 . S
C796 C782 1.377 . S
C796 C795 1.373 . S
C797 C781 1.377 . S
C797 C795 1.389 . S
C797 C798 1.524 . S
C798 C797 1.524 . S
C798 C799 1.397 . S
C798 C803 1.363 . S
C799 H770 0.950 . S
C799 C798 1.397 . S
C799 C800 1.334 . S
C800 H771 0.950 . S
C800 C799 1.334 . S
C800 C801 1.287 . S
C801 C800 1.287 . S
C801 C802 1.524 . S
C801 H804 0.999 . S
C802 H772 0.950 . S
C802 C801 1.524 . S
C802 C803 1.415 . S
C803 H773 0.950 . S
C803 C798 1.363 . S
C803 C802 1.415 . S
H804 C801 0.999 . S
H805 C786 0.913 . S
H806 C824 0.951 . S
H807 C826 0.951 . S
H808 C828 0.950 . S
H809 C829 0.950 . S
H810 C831 0.950 . S
H811 C834 0.950 . S
H812 C835 0.950 . S
H813 C837 0.950 . S
H814 C838 0.950 . S
H815 C839 0.951 . S
H816 C841 0.951 . S
H817 C843 0.950 . S
H818 C844 0.950 . S
H819 C846 0.950 . S
H820 C849 0.950 . S
H821 C850 0.950 . S
H822 C852 0.950 . S
H823 C853 0.950 . S
C824 H806 0.951 . S
C824 C825 1.366 . S
C824 C826 1.388 . S
C825 C824 1.366 . S
C825 C829 1.385 . S
C826 H807 0.951 . S
C826 C824 1.388 . S
C826 C827 1.366 . S
C827 C826 1.366 . S
C827 C828 1.414 . S
C827 C830 1.499 . S
C828 H808 0.950 . S
C828 C827 1.414 . S
C828 C829 1.374 . S
C829 H809 0.950 . S
C829 C825 1.385 . S
C829 C828 1.374 . S
C830 C827 1.499 . S
C830 C831 1.373 . S
C830 C832 1.389 . S
C831 H810 0.950 . S
C831 C830 1.373 . S
C831 C847 1.377 . S
C832 C830 1.389 . S
C832 C833 1.524 . S
C832 C846 1.377 . S
C833 C832 1.524 . S
C833 C834 1.397 . S
C833 C838 1.363 . S
C834 H811 0.950 . S
C834 C833 1.397 . S
C834 C835 1.334 . S
C835 H812 0.950 . S
C835 C834 1.334 . S
C835 C836 1.287 . S
C836 C835 1.287 . S
C836 C837 1.524 . S
C836 H855 0.913 . S
C837 H813 0.950 . S
C837 C836 1.524 . S
C837 C838 1.415 . S
C838 H814 0.950 . S
C838 C833 1.363 . S
C838 C837 1.415 . S
C839 H815 0.951 . S
C839 C840 1.366 . S
C839 C841 1.388 . S
C840 C839 1.366 . S
C840 C844 1.385 . S
C841 H816 0.951 . S
C841 C839 1.388 . S
C841 C842 1.366 . S
C842 C841 1.366 . S
C842 C843 1.414 . S
C842 C845 1.499 . S
C843 H817 0.950 . S
C843 C842 1.414 . S
C843 C844 1.374 . S
C844 H818 0.950 . S
C844 C840 1.385 . S
C844 C843 1.374 . S
C845 C842 1.499 . S
C845 C846 1.373 . S
C845 C847 1.389 . S
C846 H819 0.950 . S
C846 C832 1.377 . S
C846 C845 1.373 . S
C847 C831 1.377 . S
C847 C845 1.389 . S
C847 C848 1.524 . S
C848 C847 1.524 . S
C848 C849 1.397 . S
C848 C853 1.363 . S
C849 H820 0.950 . S
C849 C848 1.397 . S
C849 C850 1.334 . S
C850 H821 0.950 . S
C850 C849 1.334 . S
C850 C851 1.287 . S
C851 C850 1.287 . S
C851 C852 1.524 . S
C851 H854 0.999 . S
C852 H822 0.950 . S
C852 C851 1.524 . S
C852 C853 1.415 . S
C853 H823 0.950 . S
C853 C848 1.363 . S
C853 C852 1.415 . S
H854 C851 0.999 . S
H855 C836 0.913 . S
H856 C874 0.951 . S
H857 C876 0.951 . S
H858 C878 0.950 . S
H859 C879 0.950 . S
H860 C881 0.950 1_655 S
H861 C884 0.950 . S
H862 C885 0.950 . S
H863 C887 0.950 . S
H864 C888 0.950 . S
H865 C889 0.951 1_655 S
H866 C891 0.951 1_655 S
H867 C893 0.950 . S
H868 C894 0.950 . S
H869 C896 0.950 . S
H870 C899 0.950 . S
H871 C900 0.950 . S
H872 C902 0.950 . S
H873 C903 0.950 . S
C874 H856 0.951 . S
C874 C875 1.366 . S
C874 C876 1.388 . S
C875 C874 1.366 . S
C875 C879 1.385 1_455 S
C876 H857 0.951 . S
C876 C874 1.388 . S
C876 C877 1.366 . S
C877 C876 1.366 . S
C877 C878 1.414 1_455 S
C877 C880 1.499 . S
C878 H858 0.950 . S
C878 C877 1.414 1_655 S
C878 C879 1.374 . S
C879 H859 0.950 . S
C879 C875 1.385 1_655 S
C879 C878 1.374 . S
C880 C877 1.499 . S
C880 C881 1.373 . S
C880 C882 1.389 . S
C881 H860 0.950 1_455 S
C881 C880 1.373 . S
C881 C897 1.377 . S
C882 C880 1.389 . S
C882 C883 1.524 . S
C882 C896 1.377 . S
C883 C882 1.524 . S
C883 C884 1.397 . S
C883 C888 1.363 . S
C884 H861 0.950 . S
C884 C883 1.397 . S
C884 C885 1.334 . S
C885 H862 0.950 . S
C885 C884 1.334 . S
C885 C886 1.287 . S
C886 C885 1.287 . S
C886 C887 1.524 . S
C886 H905 0.913 . S
C887 H863 0.950 . S
C887 C886 1.524 . S
C887 C888 1.415 . S
C888 H864 0.950 . S
C888 C883 1.363 . S
C888 C887 1.415 . S
C889 H865 0.951 1_455 S
C889 C890 1.366 . S
C889 C891 1.388 . S
C890 C889 1.366 . S
C890 C894 1.385 . S
C891 H866 0.951 1_455 S
C891 C889 1.388 . S
C891 C892 1.366 . S
C892 C891 1.366 . S
C892 C893 1.414 . S
C892 C895 1.499 . S
C893 H867 0.950 . S
C893 C892 1.414 . S
C893 C894 1.374 . S
C894 H868 0.950 . S
C894 C890 1.385 . S
C894 C893 1.374 . S
C895 C892 1.499 . S
C895 C896 1.373 . S
C895 C897 1.389 . S
C896 H869 0.950 . S
C896 C882 1.377 . S
C896 C895 1.373 . S
C897 C881 1.377 . S
C897 C895 1.389 . S
C897 C898 1.534 . S
C898 C897 1.534 . S
C898 C899 1.413 . S
C898 C903 1.340 1_455 S
C899 H870 0.950 . S
C899 C898 1.413 . S
C899 C900 1.334 . S
C900 H871 0.950 . S
C900 C899 1.334 . S
C900 C901 1.287 1_455 S
C901 C900 1.287 1_655 S
C901 C902 1.524 . S
C901 H904 0.999 . S
C902 H872 0.950 . S
C902 C901 1.524 . S
C902 C903 1.415 . S
C903 H873 0.950 . S
C903 C898 1.340 1_655 S
C903 C902 1.415 . S
H904 C901 0.999 . S
H905 C886 0.913 . S
H906 C924 0.951 . S
H907 C926 0.951 . S
H908 C928 0.950 . S
H909 C929 0.950 . S
H910 C931 0.950 . S
H911 C934 0.950 . S
H912 C935 0.950 . S
H913 C937 0.950 . S
H914 C938 0.950 . S
H915 C939 0.951 . S
H916 C941 0.951 . S
H917 C943 0.950 . S
H918 C944 0.950 . S
H919 C946 0.950 . S
H920 C949 0.950 . S
H921 C950 0.950 . S
H922 C952 0.950 . S
H923 C953 0.950 . S
C924 H906 0.951 . S
C924 C925 1.366 . S
C924 C926 1.388 . S
C925 C924 1.366 . S
C925 C929 1.385 . S
C926 H907 0.951 . S
C926 C924 1.388 . S
C926 C927 1.366 . S
C927 C926 1.366 . S
C927 C928 1.414 . S
C927 C930 1.499 . S
C928 H908 0.950 . S
C928 C927 1.414 . S
C928 C929 1.374 . S
C929 H909 0.950 . S
C929 C925 1.385 . S
C929 C928 1.374 . S
C930 C927 1.499 . S
C930 C931 1.373 . S
C930 C932 1.389 . S
C931 H910 0.950 . S
C931 C930 1.373 . S
C931 C947 1.377 . S
C932 C930 1.389 . S
C932 C933 1.524 . S
C932 C946 1.377 . S
C933 C932 1.524 . S
C933 C934 1.397 . S
C933 C938 1.363 . S
C934 H911 0.950 . S
C934 C933 1.397 . S
C934 C935 1.334 . S
C935 H912 0.950 . S
C935 C934 1.334 . S
C935 C936 1.287 . S
C936 C935 1.287 . S
C936 C937 1.524 . S
C936 H955 0.913 . S
C937 H913 0.950 . S
C937 C936 1.524 . S
C937 C938 1.415 . S
C938 H914 0.950 . S
C938 C933 1.363 . S
C938 C937 1.415 . S
C939 H915 0.951 . S
C939 C940 1.366 . S
C939 C941 1.388 . S
C940 C939 1.366 . S
C940 C944 1.385 . S
C941 H916 0.951 . S
C941 C939 1.388 . S
C941 C942 1.366 . S
C942 C941 1.366 . S
C942 C943 1.414 . S
C942 C945 1.499 . S
C943 H917 0.950 . S
C943 C942 1.414 . S
C943 C944 1.374 . S
C944 H918 0.950 . S
C944 C940 1.385 . S
C944 C943 1.374 . S
C945 C942 1.499 . S
C945 C946 1.373 . S
C945 C947 1.389 . S
C946 H919 0.950 . S
C946 C932 1.377 . S
C946 C945 1.373 . S
C947 C931 1.377 . S
C947 C945 1.389 . S
C947 C948 1.524 . S
C948 C947 1.524 . S
C948 C949 1.397 . S
C948 C953 1.363 . S
C949 H920 0.950 . S
C949 C948 1.397 . S
C949 C950 1.334 . S
C950 H921 0.950 . S
C950 C949 1.334 . S
C950 C951 1.287 . S
C951 C950 1.287 . S
C951 C952 1.524 . S
C951 H954 0.999 . S
C952 H922 0.950 . S
C952 C951 1.524 . S
C952 C953 1.415 . S
C953 H923 0.950 . S
C953 C948 1.363 . S
C953 C952 1.415 . S
H954 C951 0.999 . S
H955 C936 0.913 . S
H956 C974 0.951 . S
H957 C976 0.951 . S
H958 C978 0.950 . S
H959 C979 0.950 . S
H960 C981 0.950 . S
H961 C984 0.950 . S
H962 C985 0.950 . S
H963 C987 0.950 . S
H964 C988 0.950 . S
H965 C989 0.951 . S
H966 C991 0.951 . S
H967 C993 0.950 . S
H968 C994 0.950 . S
H969 C996 0.950 . S
H970 C999 0.950 . S
H971 C1000 0.950 . S
H972 C1002 0.950 . S
H973 C1003 0.950 . S
C974 H956 0.951 . S
C974 C975 1.366 . S
C974 C976 1.388 . S
C975 C974 1.366 . S
C975 C979 1.385 . S
C976 H957 0.951 . S
C976 C974 1.388 . S
C976 C977 1.366 . S
C977 C976 1.366 . S
C977 C978 1.414 . S
C977 C980 1.499 . S
C978 H958 0.950 . S
C978 C977 1.414 . S
C978 C979 1.374 . S
C979 H959 0.950 . S
C979 C975 1.385 . S
C979 C978 1.374 . S
C980 C977 1.499 . S
C980 C981 1.373 . S
C980 C982 1.389 . S
C981 H960 0.950 . S
C981 C980 1.373 . S
C981 C997 1.377 . S
C982 C980 1.389 . S
C982 C983 1.524 . S
C982 C996 1.377 . S
C983 C982 1.524 . S
C983 C984 1.397 . S
C983 C988 1.363 . S
C984 H961 0.950 . S
C984 C983 1.397 . S
C984 C985 1.334 . S
C985 H962 0.950 . S
C985 C984 1.334 . S
C985 C986 1.287 . S
C986 C985 1.287 . S
C986 C987 1.524 . S
C986 H1005 0.913 . S
C987 H963 0.950 . S
C987 C986 1.524 . S
C987 C988 1.415 . S
C988 H964 0.950 . S
C988 C983 1.363 . S
C988 C987 1.415 . S
C989 H965 0.951 . S
C989 C990 1.366 . S
C989 C991 1.388 . S
C990 C989 1.366 . S
C990 C994 1.385 . S
C991 H966 0.951 . S
C991 C989 1.388 . S
C991 C992 1.366 . S
C992 C991 1.366 . S
C992 C993 1.414 . S
C992 C995 1.499 . S
C993 H967 0.950 . S
C993 C992 1.414 . S
C993 C994 1.374 . S
C994 H968 0.950 . S
C994 C990 1.385 . S
C994 C993 1.374 . S
C995 C992 1.499 . S
C995 C996 1.373 . S
C995 C997 1.389 . S
C996 H969 0.950 . S
C996 C982 1.377 . S
C996 C995 1.373 . S
C997 C981 1.377 . S
C997 C995 1.389 . S
C997 C998 1.524 . S
C998 C997 1.524 . S
C998 C999 1.397 . S
C998 C1003 1.363 . S
C999 H970 0.950 . S
C999 C998 1.397 . S
C999 C1000 1.334 . S
C1000 H971 0.950 . S
C1000 C999 1.334 . S
C1000 C1001 1.287 . S
C1001 C1000 1.287 . S
C1001 C1002 1.524 . S
C1001 H1004 0.999 . S
C1002 H972 0.950 . S
C1002 C1001 1.524 . S
C1002 C1003 1.415 . S
C1003 H973 0.950 . S
C1003 C998 1.363 . S
C1003 C1002 1.415 . S
H1004 C1001 0.999 . S
H1005 C986 0.913 . S
H1006 C1024 0.951 . S
H1007 C1026 0.951 . S
H1008 C1028 0.950 . S
H1009 C1029 0.950 . S
H1010 C1031 0.950 . S
H1011 C1034 0.950 . S
H1012 C1035 0.950 . S
H1013 C1037 0.950 . S
H1014 C1038 0.950 . S
H1015 C1039 0.951 . S
H1016 C1041 0.951 . S
H1017 C1043 0.950 . S
H1018 C1044 0.950 . S
H1019 C1046 0.950 . S
H1020 C1049 0.950 . S
H1021 C1050 0.950 . S
H1022 C1052 0.950 . S
H1023 C1053 0.950 . S
C1024 H1006 0.951 . S
C1024 C1025 1.366 . S
C1024 C1026 1.388 . S
C1025 C1024 1.366 . S
C1025 C1029 1.385 . S
C1026 H1007 0.951 . S
C1026 C1024 1.388 . S
C1026 C1027 1.366 . S
C1027 C1026 1.366 . S
C1027 C1028 1.414 . S
C1027 C1030 1.499 . S
C1028 H1008 0.950 . S
C1028 C1027 1.414 . S
C1028 C1029 1.374 . S
C1029 H1009 0.950 . S
C1029 C1025 1.385 . S
C1029 C1028 1.374 . S
C1030 C1027 1.499 . S
C1030 C1031 1.373 . S
C1030 C1032 1.389 . S
C1031 H1010 0.950 . S
C1031 C1030 1.373 . S
C1031 C1047 1.377 . S
C1032 C1030 1.389 . S
C1032 C1033 1.524 . S
C1032 C1046 1.377 . S
C1033 C1032 1.524 . S
C1033 C1034 1.397 . S
C1033 C1038 1.363 . S
C1034 H1011 0.950 . S
C1034 C1033 1.397 . S
C1034 C1035 1.334 . S
C1035 H1012 0.950 . S
C1035 C1034 1.334 . S
C1035 C1036 1.287 . S
C1036 C1035 1.287 . S
C1036 C1037 1.524 . S
C1036 H1055 0.913 . S
C1037 H1013 0.950 . S
C1037 C1036 1.524 . S
C1037 C1038 1.415 . S
C1038 H1014 0.950 . S
C1038 C1033 1.363 . S
C1038 C1037 1.415 . S
C1039 H1015 0.951 . S
C1039 C1040 1.366 . S
C1039 C1041 1.388 . S
C1040 C1039 1.366 . S
C1040 C1044 1.385 . S
C1041 H1016 0.951 . S
C1041 C1039 1.388 . S
C1041 C1042 1.366 . S
C1042 C1041 1.366 . S
C1042 C1043 1.414 . S
C1042 C1045 1.499 . S
C1043 H1017 0.950 . S
C1043 C1042 1.414 . S
C1043 C1044 1.374 . S
C1044 H1018 0.950 . S
C1044 C1040 1.385 . S
C1044 C1043 1.374 . S
C1045 C1042 1.499 . S
C1045 C1046 1.373 . S
C1045 C1047 1.389 . S
C1046 H1019 0.950 . S
C1046 C1032 1.377 . S
C1046 C1045 1.373 . S
C1047 C1031 1.377 . S
C1047 C1045 1.389 . S
C1047 C1048 1.524 . S
C1048 C1047 1.524 . S
C1048 C1049 1.397 . S
C1048 C1053 1.363 . S
C1049 H1020 0.950 . S
C1049 C1048 1.397 . S
C1049 C1050 1.334 . S
C1050 H1021 0.950 . S
C1050 C1049 1.334 . S
C1050 C1051 1.287 . S
C1051 C1050 1.287 . S
C1051 C1052 1.524 . S
C1051 H1054 0.999 . S
C1052 H1022 0.950 . S
C1052 C1051 1.524 . S
C1052 C1053 1.415 . S
C1053 H1023 0.950 . S
C1053 C1048 1.363 . S
C1053 C1052 1.415 . S
H1054 C1051 0.999 . S
H1055 C1036 0.913 . S
H1056 C1074 0.951 . S
H1057 C1076 0.951 . S
H1058 C1078 0.950 . S
H1059 C1079 0.950 . S
H1060 C1081 0.950 . S
H1061 C1084 0.950 . S
H1062 C1085 0.950 . S
H1063 C1087 0.950 . S
H1064 C1088 0.950 . S
H1065 C1089 0.953 . S
H1066 C1091 0.951 . S
H1067 C1093 0.950 . S
H1068 C1094 0.950 . S
H1069 C1096 0.950 . S
H1070 C1099 0.950 . S
H1071 C1100 0.950 . S
H1072 C1102 0.950 . S
H1073 C1103 0.950 . S
C1074 H1056 0.951 . S
C1074 C1075 1.366 . S
C1074 C1076 1.388 . S
C1075 C1074 1.366 . S
C1075 C1079 1.385 . S
C1076 H1057 0.951 . S
C1076 C1074 1.388 . S
C1076 C1077 1.366 . S
C1077 C1076 1.366 . S
C1077 C1078 1.414 . S
C1077 C1080 1.499 . S
C1078 H1058 0.950 . S
C1078 C1077 1.414 . S
C1078 C1079 1.374 . S
C1079 H1059 0.950 . S
C1079 C1075 1.385 . S
C1079 C1078 1.374 . S
C1080 C1077 1.499 . S
C1080 C1081 1.373 . S
C1080 C1082 1.389 . S
C1081 H1060 0.950 . S
C1081 C1080 1.373 . S
C1081 C1097 1.377 . S
C1082 C1080 1.389 . S
C1082 C1083 1.524 . S
C1082 C1096 1.377 . S
C1083 C1082 1.524 . S
C1083 C1084 1.397 . S
C1083 C1088 1.363 . S
C1084 H1061 0.950 . S
C1084 C1083 1.397 . S
C1084 C1085 1.334 . S
C1085 H1062 0.950 . S
C1085 C1084 1.334 . S
C1085 C1086 1.287 . S
C1086 C1085 1.287 . S
C1086 C1087 1.524 . S
C1086 H1105 0.913 . S
C1087 H1063 0.950 . S
C1087 C1086 1.524 . S
C1087 C1088 1.415 . S
C1088 H1064 0.950 . S
C1088 C1083 1.363 . S
C1088 C1087 1.415 . S
C1089 H1065 0.953 . S
C1089 C1090 1.366 . S
C1089 C1091 1.388 . S
C1090 C1089 1.366 . S
C1090 C1094 1.385 . S
C1091 H1066 0.951 . S
C1091 C1089 1.388 . S
C1091 C1092 1.366 . S
C1092 C1091 1.366 . S
C1092 C1093 1.414 . S
C1092 C1095 1.499 . S
C1093 H1067 0.950 . S
C1093 C1092 1.414 . S
C1093 C1094 1.374 . S
C1094 H1068 0.950 . S
C1094 C1090 1.385 . S
C1094 C1093 1.374 . S
C1095 C1092 1.499 . S
C1095 C1096 1.373 . S
C1095 C1097 1.389 . S
C1096 H1069 0.950 . S
C1096 C1082 1.377 . S
C1096 C1095 1.373 . S
C1097 C1081 1.377 . S
C1097 C1095 1.389 . S
C1097 C1098 1.524 . S
C1098 C1097 1.524 . S
C1098 C1099 1.397 1_655 S
C1098 C1103 1.363 . S
C1099 H1070 0.950 . S
C1099 C1098 1.397 1_455 S
C1099 C1100 1.334 . S
C1100 H1071 0.950 . S
C1100 C1099 1.334 . S
C1100 C1101 1.287 . S
C1101 C1100 1.287 . S
C1101 C1102 1.524 . S
C1101 H1104 0.999 . S
C1102 H1072 0.950 . S
C1102 C1101 1.524 . S
C1102 C1103 1.415 1_455 S
C1103 H1073 0.950 . S
C1103 C1098 1.363 . S
C1103 C1102 1.415 1_655 S
H1104 C1101 0.999 . S
H1105 C1086 0.913 . S
H1106 C1124 0.951 . S
H1107 C1126 0.951 . S
H1108 C1128 0.950 . S
H1109 C1129 0.950 . S
H1110 C1131 0.950 . S
H1111 C1134 0.950 . S
H1112 C1135 0.950 . S
H1113 C1137 0.950 . S
H1114 C1138 0.950 . S
H1115 C1139 0.951 . S
H1116 C1141 0.951 . S
H1117 C1143 0.950 . S
H1118 C1144 0.950 . S
H1119 C1146 0.950 . S
H1120 C1149 0.950 . S
H1121 C1150 0.950 . S
H1122 C1152 0.950 . S
H1123 C1153 0.950 . S
C1124 H1106 0.951 . S
C1124 C1125 1.366 . S
C1124 C1126 1.388 . S
C1125 C1124 1.366 . S
C1125 C1129 1.385 . S
C1126 H1107 0.951 . S
C1126 C1124 1.388 . S
C1126 C1127 1.366 . S
C1127 C1126 1.366 . S
C1127 C1128 1.414 . S
C1127 C1130 1.499 . S
C1128 H1108 0.950 . S
C1128 C1127 1.414 . S
C1128 C1129 1.374 . S
C1129 H1109 0.950 . S
C1129 C1125 1.385 . S
C1129 C1128 1.374 . S
C1130 C1127 1.499 . S
C1130 C1131 1.373 . S
C1130 C1132 1.389 . S
C1131 H1110 0.950 . S
C1131 C1130 1.373 . S
C1131 C1147 1.377 . S
C1132 C1130 1.389 . S
C1132 C1133 1.524 . S
C1132 C1146 1.377 . S
C1133 C1132 1.524 . S
C1133 C1134 1.397 . S
C1133 C1138 1.363 . S
C1134 H1111 0.950 . S
C1134 C1133 1.397 . S
C1134 C1135 1.334 . S
C1135 H1112 0.950 . S
C1135 C1134 1.334 . S
C1135 C1136 1.287 . S
C1136 C1135 1.287 . S
C1136 C1137 1.524 . S
C1136 H1155 0.913 . S
C1137 H1113 0.950 . S
C1137 C1136 1.524 . S
C1137 C1138 1.415 . S
C1138 H1114 0.950 . S
C1138 C1133 1.363 . S
C1138 C1137 1.415 . S
C1139 H1115 0.951 . S
C1139 C1140 1.366 . S
C1139 C1141 1.388 . S
C1140 C1139 1.366 . S
C1140 C1144 1.385 . S
C1141 H1116 0.951 . S
C1141 C1139 1.388 . S
C1141 C1142 1.366 . S
C1142 C1141 1.366 . S
C1142 C1143 1.414 . S
C1142 C1145 1.499 . S
C1143 H1117 0.950 . S
C1143 C1142 1.414 . S
C1143 C1144 1.374 . S
C1144 H1118 0.950 . S
C1144 C1140 1.385 . S
C1144 C1143 1.374 . S
C1145 C1142 1.499 . S
C1145 C1146 1.373 . S
C1145 C1147 1.389 . S
C1146 H1119 0.950 . S
C1146 C1132 1.377 . S
C1146 C1145 1.373 . S
C1147 C1131 1.377 . S
C1147 C1145 1.389 . S
C1147 C1148 1.524 . S
C1148 C1147 1.524 . S
C1148 C1149 1.397 . S
C1148 C1153 1.363 . S
C1149 H1120 0.950 . S
C1149 C1148 1.397 . S
C1149 C1150 1.334 . S
C1150 H1121 0.950 . S
C1150 C1149 1.334 . S
C1150 C1151 1.287 . S
C1151 C1150 1.287 . S
C1151 C1152 1.524 . S
C1151 H1154 0.999 . S
C1152 H1122 0.950 . S
C1152 C1151 1.524 . S
C1152 C1153 1.415 . S
C1153 H1123 0.950 . S
C1153 C1148 1.363 . S
C1153 C1152 1.415 . S
H1154 C1151 0.999 . S
H1155 C1136 0.913 . S
H1156 C1174 0.951 . S
H1157 C1176 0.951 . S
H1158 C1178 0.950 . S
H1159 C1179 0.950 . S
H1160 C1181 0.950 1_565 S
H1161 C1184 0.950 . S
H1162 C1185 0.950 . S
H1163 C1187 0.950 . S
H1164 C1188 0.950 . S
H1165 C1189 0.951 . S
H1166 C1191 0.951 . S
H1167 C1193 0.950 . S
H1168 C1194 0.950 . S
H1169 C1196 0.950 . S
H1170 C1199 0.950 . S
H1171 C1200 0.950 . S
H1172 C1202 0.950 . S
H1173 C1203 0.950 . S
C1174 H1156 0.951 . S
C1174 C1175 1.366 . S
C1174 C1176 1.388 . S
C1175 C1174 1.366 . S
C1175 C1179 1.385 . S
C1176 H1157 0.951 . S
C1176 C1174 1.388 . S
C1176 C1177 1.366 . S
C1177 C1176 1.366 . S
C1177 C1178 1.414 . S
C1177 C1180 1.499 . S
C1178 H1158 0.950 . S
C1178 C1177 1.414 . S
C1178 C1179 1.374 . S
C1179 H1159 0.950 . S
C1179 C1175 1.385 . S
C1179 C1178 1.374 . S
C1180 C1177 1.499 . S
C1180 C1181 1.373 . S
C1180 C1182 1.389 . S
C1181 H1160 0.950 1_545 S
C1181 C1180 1.373 . S
C1181 C1197 1.377 . S
C1182 C1180 1.389 . S
C1182 C1183 1.524 . S
C1182 C1196 1.377 . S
C1183 C1182 1.524 . S
C1183 C1184 1.397 . S
C1183 C1188 1.363 . S
C1184 H1161 0.950 . S
C1184 C1183 1.397 . S
C1184 C1185 1.334 . S
C1185 H1162 0.950 . S
C1185 C1184 1.334 . S
C1185 C1186 1.287 . S
C1186 C1185 1.287 . S
C1186 C1187 1.524 . S
C1186 H1205 0.913 . S
C1187 H1163 0.950 . S
C1187 C1186 1.524 . S
C1187 C1188 1.415 . S
C1188 H1164 0.950 . S
C1188 C1183 1.363 . S
C1188 C1187 1.415 . S
C1189 H1165 0.951 . S
C1189 C1190 1.366 . S
C1189 C1191 1.388 . S
C1190 C1189 1.366 . S
C1190 C1194 1.385 . S
C1191 H1166 0.951 . S
C1191 C1189 1.388 . S
C1191 C1192 1.366 . S
C1192 C1191 1.366 . S
C1192 C1193 1.414 . S
C1192 C1195 1.499 . S
C1193 H1167 0.950 . S
C1193 C1192 1.414 . S
C1193 C1194 1.374 . S
C1194 H1168 0.950 . S
C1194 C1190 1.385 . S
C1194 C1193 1.374 . S
C1195 C1192 1.499 . S
C1195 C1196 1.373 . S
C1195 C1197 1.389 . S
C1196 H1169 0.950 . S
C1196 C1182 1.377 . S
C1196 C1195 1.373 . S
C1197 C1181 1.377 . S
C1197 C1195 1.389 . S
C1197 C1198 1.524 1_545 S
C1198 C1197 1.524 1_565 S
C1198 C1199 1.397 . S
C1198 C1203 1.363 . S
C1199 H1170 0.950 . S
C1199 C1198 1.397 . S
C1199 C1200 1.334 . S
C1200 H1171 0.950 . S
C1200 C1199 1.334 . S
C1200 C1201 1.287 . S
C1201 C1200 1.287 . S
C1201 C1202 1.524 . S
C1201 H1204 0.999 . S
C1202 H1172 0.950 . S
C1202 C1201 1.524 . S
C1202 C1203 1.415 . S
C1203 H1173 0.950 . S
C1203 C1198 1.363 . S
C1203 C1202 1.415 . S
H1204 C1201 0.999 . S
H1205 C1186 0.913 . S
H1206 C1224 0.951 . S
H1207 C1226 0.951 . S
H1208 C1228 0.950 . S
H1209 C1229 0.950 . S
H1210 C1231 0.950 . S
H1211 C1234 0.950 . S
H1212 C1235 0.950 . S
H1213 C1237 0.950 . S
H1214 C1238 0.950 . S
H1215 C1239 0.951 . S
H1216 C1241 0.951 . S
H1217 C1243 0.950 . S
H1218 C1244 0.950 . S
H1219 C1246 0.950 . S
H1220 C1249 0.950 . S
H1221 C1250 0.950 . S
H1222 C1252 0.950 . S
H1223 C1253 0.950 . S
C1224 H1206 0.951 . S
C1224 C1225 1.366 . S
C1224 C1226 1.388 . S
C1225 C1224 1.366 . S
C1225 C1229 1.385 . S
C1226 H1207 0.951 . S
C1226 C1224 1.388 . S
C1226 C1227 1.366 . S
C1227 C1226 1.366 . S
C1227 C1228 1.414 . S
C1227 C1230 1.499 . S
C1228 H1208 0.950 . S
C1228 C1227 1.414 . S
C1228 C1229 1.374 . S
C1229 H1209 0.950 . S
C1229 C1225 1.385 . S
C1229 C1228 1.374 . S
C1230 C1227 1.499 . S
C1230 C1231 1.373 . S
C1230 C1232 1.389 . S
C1231 H1210 0.950 . S
C1231 C1230 1.373 . S
C1231 C1247 1.377 . S
C1232 C1230 1.389 . S
C1232 C1233 1.524 . S
C1232 C1246 1.377 . S
C1233 C1232 1.524 . S
C1233 C1234 1.397 . S
C1233 C1238 1.363 . S
C1234 H1211 0.950 . S
C1234 C1233 1.397 . S
C1234 C1235 1.334 . S
C1235 H1212 0.950 . S
C1235 C1234 1.334 . S
C1235 C1236 1.287 . S
C1236 C1235 1.287 . S
C1236 C1237 1.524 . S
C1236 H1255 0.913 . S
C1237 H1213 0.950 . S
C1237 C1236 1.524 . S
C1237 C1238 1.415 . S
C1238 H1214 0.950 . S
C1238 C1233 1.363 . S
C1238 C1237 1.415 . S
C1239 H1215 0.951 . S
C1239 C1240 1.366 . S
C1239 C1241 1.388 . S
C1240 C1239 1.366 . S
C1240 C1244 1.385 . S
C1241 H1216 0.951 . S
C1241 C1239 1.388 . S
C1241 C1242 1.366 . S
C1242 C1241 1.366 . S
C1242 C1243 1.414 . S
C1242 C1245 1.499 . S
C1243 H1217 0.950 . S
C1243 C1242 1.414 . S
C1243 C1244 1.374 . S
C1244 H1218 0.950 . S
C1244 C1240 1.385 . S
C1244 C1243 1.374 . S
C1245 C1242 1.499 . S
C1245 C1246 1.373 . S
C1245 C1247 1.389 . S
C1246 H1219 0.950 . S
C1246 C1232 1.377 . S
C1246 C1245 1.373 . S
C1247 C1231 1.377 . S
C1247 C1245 1.389 . S
C1247 C1248 1.524 . S
C1248 C1247 1.524 . S
C1248 C1249 1.397 . S
C1248 C1253 1.363 . S
C1249 H1220 0.950 . S
C1249 C1248 1.397 . S
C1249 C1250 1.334 . S
C1250 H1221 0.950 . S
C1250 C1249 1.334 . S
C1250 C1251 1.287 . S
C1251 C1250 1.287 . S
C1251 C1252 1.524 . S
C1251 H1254 0.999 . S
C1252 H1222 0.950 . S
C1252 C1251 1.524 . S
C1252 C1253 1.415 . S
C1253 H1223 0.950 . S
C1253 C1248 1.363 . S
C1253 C1252 1.415 . S
H1254 C1251 0.999 . S
H1255 C1236 0.913 . S
H1256 C1274 0.951 . S
H1257 C1276 0.951 . S
H1258 C1278 0.950 . S
H1259 C1279 0.950 . S
H1260 C1281 0.950 . S
H1261 C1284 0.951 1_545 S
H1262 C1285 0.950 . S
H1263 C1287 0.950 . S
H1264 C1288 0.950 . S
H1265 C1289 0.951 . S
H1266 C1291 0.951 . S
H1267 C1293 0.950 1_455 S
H1268 C1294 0.950 . S
H1269 C1296 0.950 . S
H1270 C1299 0.950 . S
H1271 C1300 0.950 . S
H1272 C1302 0.950 . S
H1273 C1303 0.950 . S
C1274 H1256 0.951 . S
C1274 C1275 1.366 . S
C1274 C1276 1.388 . S
C1275 C1274 1.366 . S
C1275 C1279 1.385 . S
C1276 H1257 0.951 . S
C1276 C1274 1.388 . S
C1276 C1277 1.366 . S
C1277 C1276 1.366 . S
C1277 C1278 1.414 . S
C1277 C1280 1.499 . S
C1278 H1258 0.950 . S
C1278 C1277 1.414 . S
C1278 C1279 1.374 . S
C1279 H1259 0.950 . S
C1279 C1275 1.385 . S
C1279 C1278 1.374 . S
C1280 C1277 1.499 . S
C1280 C1281 1.373 . S
C1280 C1282 1.389 . S
C1281 H1260 0.950 . S
C1281 C1280 1.373 . S
C1281 C1297 1.377 . S
C1282 C1280 1.389 . S
C1282 C1283 1.524 . S
C1282 C1296 1.377 . S
C1283 C1282 1.524 . S
C1283 C1284 1.397 1_545 S
C1283 C1288 1.363 . S
C1284 H1261 0.951 1_565 S
C1284 C1283 1.397 1_565 S
C1284 C1285 1.334 . S
C1285 H1262 0.950 . S
C1285 C1284 1.334 . S
C1285 C1286 1.287 . S
C1286 C1285 1.287 . S
C1286 C1287 1.524 . S
C1286 H1305 0.913 . S
C1287 H1263 0.950 . S
C1287 C1286 1.524 . S
C1287 C1288 1.415 1_565 S
C1288 H1264 0.950 . S
C1288 C1283 1.363 . S
C1288 C1287 1.415 1_545 S
C1289 H1265 0.951 . S
C1289 C1290 1.366 . S
C1289 C1291 1.388 . S
C1290 C1289 1.366 . S
C1290 C1294 1.385 1_655 S
C1291 H1266 0.951 . S
C1291 C1289 1.388 . S
C1291 C1292 1.366 . S
C1292 C1291 1.366 . S
C1292 C1293 1.414 . S
C1292 C1295 1.499 . S
C1293 H1267 0.950 1_655 S
C1293 C1292 1.414 . S
C1293 C1294 1.374 1_655 S
C1294 H1268 0.950 . S
C1294 C1290 1.385 1_455 S
C1294 C1293 1.374 1_455 S
C1295 C1292 1.499 . S
C1295 C1296 1.373 . S
C1295 C1297 1.389 . S
C1296 H1269 0.950 . S
C1296 C1282 1.377 . S
C1296 C1295 1.373 . S
C1297 C1281 1.377 . S
C1297 C1295 1.389 . S
C1297 C1298 1.524 . S
C1298 C1297 1.524 . S
C1298 C1299 1.397 . S
C1298 C1303 1.363 . S
C1299 H1270 0.950 . S
C1299 C1298 1.397 . S
C1299 C1300 1.334 . S
C1300 H1271 0.950 . S
C1300 C1299 1.334 . S
C1300 C1301 1.287 . S
C1301 C1300 1.287 . S
C1301 C1302 1.524 . S
C1301 H1304 0.999 . S
C1302 H1272 0.950 . S
C1302 C1301 1.524 . S
C1302 C1303 1.415 . S
C1303 H1273 0.950 . S
C1303 C1298 1.363 . S
C1303 C1302 1.415 . S
H1304 C1301 0.999 . S
H1305 C1286 0.913 . S
H1306 C1324 0.951 . S
H1307 C1326 0.951 . S
H1308 C1328 0.950 . S
H1309 C1329 0.950 . S
H1310 C1331 0.950 . S
H1311 C1334 0.950 . S
H1312 C1335 0.950 . S
H1313 C1337 0.950 . S
H1314 C1338 0.950 . S
H1315 C1339 0.951 . S
H1316 C1341 0.951 . S
H1317 C1343 0.950 . S
H1318 C1344 0.950 . S
H1319 C1346 0.950 . S
H1320 C1349 0.950 . S
H1321 C1350 0.950 . S
H1322 C1352 0.950 . S
H1323 C1353 0.950 . S
C1324 H1306 0.951 . S
C1324 C1325 1.366 . S
C1324 C1326 1.388 . S
C1325 C1324 1.366 . S
C1325 C1329 1.385 . S
C1326 H1307 0.951 . S
C1326 C1324 1.388 . S
C1326 C1327 1.366 . S
C1327 C1326 1.366 . S
C1327 C1328 1.414 . S
C1327 C1330 1.499 . S
C1328 H1308 0.950 . S
C1328 C1327 1.414 . S
C1328 C1329 1.374 . S
C1329 H1309 0.950 . S
C1329 C1325 1.385 . S
C1329 C1328 1.374 . S
C1330 C1327 1.499 . S
C1330 C1331 1.373 . S
C1330 C1332 1.389 . S
C1331 H1310 0.950 . S
C1331 C1330 1.373 . S
C1331 C1347 1.377 . S
C1332 C1330 1.389 . S
C1332 C1333 1.524 . S
C1332 C1346 1.377 . S
C1333 C1332 1.524 . S
C1333 C1334 1.397 . S
C1333 C1338 1.363 . S
C1334 H1311 0.950 . S
C1334 C1333 1.397 . S
C1334 C1335 1.334 . S
C1335 H1312 0.950 . S
C1335 C1334 1.334 . S
C1335 C1336 1.287 . S
C1336 C1335 1.287 . S
C1336 C1337 1.524 . S
C1336 H1355 0.913 . S
C1337 H1313 0.950 . S
C1337 C1336 1.524 . S
C1337 C1338 1.415 . S
C1338 H1314 0.950 . S
C1338 C1333 1.363 . S
C1338 C1337 1.415 . S
C1339 H1315 0.951 . S
C1339 C1340 1.366 . S
C1339 C1341 1.388 . S
C1340 C1339 1.366 . S
C1340 C1344 1.385 . S
C1341 H1316 0.951 . S
C1341 C1339 1.388 . S
C1341 C1342 1.366 . S
C1342 C1341 1.366 . S
C1342 C1343 1.414 . S
C1342 C1345 1.499 . S
C1343 H1317 0.950 . S
C1343 C1342 1.414 . S
C1343 C1344 1.374 . S
C1344 H1318 0.950 . S
C1344 C1340 1.385 . S
C1344 C1343 1.374 . S
C1345 C1342 1.499 . S
C1345 C1346 1.373 . S
C1345 C1347 1.389 . S
C1346 H1319 0.950 . S
C1346 C1332 1.377 . S
C1346 C1345 1.373 . S
C1347 C1331 1.377 . S
C1347 C1345 1.389 . S
C1347 C1348 1.524 . S
C1348 C1347 1.524 . S
C1348 C1349 1.397 . S
C1348 C1353 1.363 . S
C1349 H1320 0.950 . S
C1349 C1348 1.397 . S
C1349 C1350 1.334 . S
C1350 H1321 0.950 . S
C1350 C1349 1.334 . S
C1350 C1351 1.287 . S
C1351 C1350 1.287 . S
C1351 C1352 1.524 . S
C1351 H1354 0.999 . S
C1352 H1322 0.950 . S
C1352 C1351 1.524 . S
C1352 C1353 1.415 . S
C1353 H1323 0.950 . S
C1353 C1348 1.363 . S
C1353 C1352 1.415 . S
H1354 C1351 0.999 . S
H1355 C1336 0.913 . S
H1356 C1374 0.951 . S
H1357 C1376 0.951 . S
H1358 C1378 0.950 . S
H1359 C1379 0.950 . S
H1360 C1381 0.950 . S
H1361 C1384 0.950 . S
H1362 C1385 0.950 . S
H1363 C1387 0.950 . S
H1364 C1388 0.950 1_545 S
H1365 C1389 0.951 . S
H1366 C1391 0.951 . S
H1367 C1393 0.950 . S
H1368 C1394 0.950 . S
H1369 C1396 0.950 . S
H1370 C1399 0.950 . S
H1371 C1400 0.950 . S
H1372 C1402 0.950 . S
H1373 C1403 0.950 . S
C1374 H1356 0.951 . S
C1374 C1375 1.366 . S
C1374 C1376 1.388 . S
C1375 C1374 1.366 . S
C1375 C1379 1.385 . S
C1376 H1357 0.951 . S
C1376 C1374 1.388 . S
C1376 C1377 1.366 . S
C1377 C1376 1.366 . S
C1377 C1378 1.414 . S
C1377 C1380 1.499 . S
C1378 H1358 0.950 . S
C1378 C1377 1.414 . S
C1378 C1379 1.374 . S
C1379 H1359 0.950 . S
C1379 C1375 1.385 . S
C1379 C1378 1.374 . S
C1380 C1377 1.499 . S
C1380 C1381 1.373 . S
C1380 C1382 1.389 . S
C1381 H1360 0.950 . S
C1381 C1380 1.373 . S
C1381 C1397 1.377 . S
C1382 C1380 1.389 . S
C1382 C1383 1.524 1_545 S
C1382 C1396 1.377 . S
C1383 C1382 1.524 1_565 S
C1383 C1384 1.397 . S
C1383 C1388 1.363 . S
C1384 H1361 0.950 . S
C1384 C1383 1.397 . S
C1384 C1385 1.334 . S
C1385 H1362 0.950 . S
C1385 C1384 1.334 . S
C1385 C1386 1.287 . S
C1386 C1385 1.287 . S
C1386 C1387 1.524 . S
C1386 H1405 0.913 . S
C1387 H1363 0.950 . S
C1387 C1386 1.524 . S
C1387 C1388 1.415 . S
C1388 H1364 0.950 1_565 S
C1388 C1383 1.363 . S
C1388 C1387 1.415 . S
C1389 H1365 0.951 . S
C1389 C1390 1.366 . S
C1389 C1391 1.388 . S
C1390 C1389 1.366 . S
C1390 C1394 1.385 . S
C1391 H1366 0.951 . S
C1391 C1389 1.388 . S
C1391 C1392 1.366 . S
C1392 C1391 1.366 . S
C1392 C1393 1.414 . S
C1392 C1395 1.499 . S
C1393 H1367 0.950 . S
C1393 C1392 1.414 . S
C1393 C1394 1.374 . S
C1394 H1368 0.950 . S
C1394 C1390 1.385 . S
C1394 C1393 1.374 . S
C1395 C1392 1.499 . S
C1395 C1396 1.373 . S
C1395 C1397 1.389 . S
C1396 H1369 0.950 . S
C1396 C1382 1.377 . S
C1396 C1395 1.373 . S
C1397 C1381 1.377 . S
C1397 C1395 1.389 . S
C1397 C1398 1.524 . S
C1398 C1397 1.524 . S
C1398 C1399 1.397 . S
C1398 C1403 1.363 . S
C1399 H1370 0.950 . S
C1399 C1398 1.397 . S
C1399 C1400 1.334 . S
C1400 H1371 0.950 . S
C1400 C1399 1.334 . S
C1400 C1401 1.287 . S
C1401 C1400 1.287 . S
C1401 C1402 1.524 . S
C1401 H1404 0.999 . S
C1402 H1372 0.950 . S
C1402 C1401 1.524 . S
C1402 C1403 1.415 . S
C1403 H1373 0.950 . S
C1403 C1398 1.363 . S
C1403 C1402 1.415 . S
H1404 C1401 0.999 . S
H1405 C1386 0.913 . S
H1406 C1424 0.951 . S
H1407 C1426 0.951 . S
H1408 C1428 0.950 . S
H1409 C1429 0.950 . S
H1410 C1431 0.950 . S
H1411 C1434 0.950 . S
H1412 C1435 0.950 . S
H1413 C1437 0.950 . S
H1414 C1438 0.950 . S
H1415 C1439 0.951 . S
H1416 C1441 0.951 . S
H1417 C1443 0.950 . S
H1418 C1444 0.950 . S
H1419 C1446 0.950 . S
H1420 C1449 0.950 . S
H1421 C1450 0.950 . S
H1422 C1452 0.950 . S
H1423 C1453 0.950 . S
C1424 H1406 0.951 . S
C1424 C1425 1.366 . S
C1424 C1426 1.388 . S
C1425 C1424 1.366 . S
C1425 C1429 1.385 . S
C1426 H1407 0.951 . S
C1426 C1424 1.388 . S
C1426 C1427 1.366 . S
C1427 C1426 1.366 . S
C1427 C1428 1.414 . S
C1427 C1430 1.499 . S
C1428 H1408 0.950 . S
C1428 C1427 1.414 . S
C1428 C1429 1.374 . S
C1429 H1409 0.950 . S
C1429 C1425 1.385 . S
C1429 C1428 1.374 . S
C1430 C1427 1.499 . S
C1430 C1431 1.373 . S
C1430 C1432 1.389 . S
C1431 H1410 0.950 . S
C1431 C1430 1.373 . S
C1431 C1447 1.377 . S
C1432 C1430 1.389 . S
C1432 C1433 1.524 . S
C1432 C1446 1.377 . S
C1433 C1432 1.524 . S
C1433 C1434 1.397 . S
C1433 C1438 1.363 . S
C1434 H1411 0.950 . S
C1434 C1433 1.397 . S
C1434 C1435 1.334 . S
C1435 H1412 0.950 . S
C1435 C1434 1.334 . S
C1435 C1436 1.287 . S
C1436 C1435 1.287 . S
C1436 C1437 1.524 . S
C1436 H1455 0.913 . S
C1437 H1413 0.950 . S
C1437 C1436 1.524 . S
C1437 C1438 1.415 . S
C1438 H1414 0.950 . S
C1438 C1433 1.363 . S
C1438 C1437 1.415 . S
C1439 H1415 0.951 . S
C1439 C1440 1.366 . S
C1439 C1441 1.388 . S
C1440 C1439 1.366 . S
C1440 C1444 1.385 . S
C1441 H1416 0.951 . S
C1441 C1439 1.388 . S
C1441 C1442 1.366 . S
C1442 C1441 1.366 . S
C1442 C1443 1.414 . S
C1442 C1445 1.499 . S
C1443 H1417 0.950 . S
C1443 C1442 1.414 . S
C1443 C1444 1.374 . S
C1444 H1418 0.950 . S
C1444 C1440 1.385 . S
C1444 C1443 1.374 . S
C1445 C1442 1.499 . S
C1445 C1446 1.373 . S
C1445 C1447 1.389 . S
C1446 H1419 0.950 . S
C1446 C1432 1.377 . S
C1446 C1445 1.373 . S
C1447 C1431 1.377 . S
C1447 C1445 1.389 . S
C1447 C1448 1.524 . S
C1448 C1447 1.524 . S
C1448 C1449 1.397 . S
C1448 C1453 1.363 . S
C1449 H1420 0.950 . S
C1449 C1448 1.397 . S
C1449 C1450 1.334 . S
C1450 H1421 0.950 . S
C1450 C1449 1.334 . S
C1450 C1451 1.287 . S
C1451 C1450 1.287 . S
C1451 C1452 1.524 . S
C1451 H1454 0.999 . S
C1452 H1422 0.950 . S
C1452 C1451 1.524 . S
C1452 C1453 1.415 . S
C1453 H1423 0.950 . S
C1453 C1448 1.363 . S
C1453 C1452 1.415 . S
H1454 C1451 0.999 . S
H1455 C1436 0.913 . S
H1456 C1474 0.951 . S
H1457 C1476 0.951 . S
H1458 C1478 0.950 . S
H1459 C1479 0.950 . S
H1460 C1481 0.950 . S
H1461 C1484 0.950 . S
H1462 C1485 0.950 . S
H1463 C1487 0.950 . S
H1464 C1488 0.950 . S
H1465 C1489 0.951 . S
H1466 C1491 0.952 1_545 S
H1467 C1493 0.950 . S
H1468 C1494 0.950 . S
H1469 C1496 0.950 . S
H1470 C1499 0.950 . S
H1471 C1500 0.950 . S
H1472 C1502 0.950 . S
H1473 C1503 0.951 1_545 S
C1474 H1456 0.951 . S
C1474 C1475 1.366 . S
C1474 C1476 1.388 . S
C1475 C1474 1.366 . S
C1475 C1479 1.385 . S
C1476 H1457 0.951 . S
C1476 C1474 1.388 . S
C1476 C1477 1.366 . S
C1477 C1476 1.366 . S
C1477 C1478 1.414 . S
C1477 C1480 1.499 . S
C1478 H1458 0.950 . S
C1478 C1477 1.414 . S
C1478 C1479 1.374 . S
C1479 H1459 0.950 . S
C1479 C1475 1.385 . S
C1479 C1478 1.374 . S
C1480 C1477 1.499 . S
C1480 C1481 1.373 . S
C1480 C1482 1.389 . S
C1481 H1460 0.950 . S
C1481 C1480 1.373 . S
C1481 C1497 1.377 . S
C1482 C1480 1.389 . S
C1482 C1483 1.524 1_554 S
C1482 C1496 1.377 . S
C1483 C1482 1.524 1_556 S
C1483 C1484 1.397 . S
C1483 C1488 1.363 . S
C1484 H1461 0.950 . S
C1484 C1483 1.397 . S
C1484 C1485 1.334 . S
C1485 H1462 0.950 . S
C1485 C1484 1.334 . S
C1485 C1486 1.287 . S
C1486 C1485 1.287 . S
C1486 C1487 1.524 . S
C1486 H1505 0.913 . S
C1487 H1463 0.950 . S
C1487 C1486 1.524 . S
C1487 C1488 1.415 . S
C1488 H1464 0.950 . S
C1488 C1483 1.363 . S
C1488 C1487 1.415 . S
C1489 H1465 0.951 . S
C1489 C1490 1.366 1_545 S
C1489 C1491 1.391 1_545 S
C1490 C1489 1.366 1_565 S
C1490 C1494 1.385 . S
C1491 H1466 0.952 1_565 S
C1491 C1489 1.391 1_565 S
C1491 C1492 1.361 . S
C1492 C1491 1.361 . S
C1492 C1493 1.414 . S
C1492 C1495 1.499 . S
C1493 H1467 0.950 . S
C1493 C1492 1.414 . S
C1493 C1494 1.374 . S
C1494 H1468 0.950 . S
C1494 C1490 1.385 . S
C1494 C1493 1.374 . S
C1495 C1492 1.499 . S
C1495 C1496 1.373 . S
C1495 C1497 1.389 . S
C1496 H1469 0.950 . S
C1496 C1482 1.377 . S
C1496 C1495 1.373 . S
C1497 C1481 1.377 . S
C1497 C1495 1.389 . S
C1497 C1498 1.524 . S
C1498 C1497 1.524 . S
C1498 C1499 1.397 . S
C1498 C1503 1.360 . S
C1499 H1470 0.950 . S
C1499 C1498 1.397 . S
C1499 C1500 1.334 . S
C1500 H1471 0.950 . S
C1500 C1499 1.334 . S
C1500 C1501 1.287 1_565 S
C1501 C1500 1.287 1_545 S
C1501 C1502 1.524 . S
C1501 H1504 0.999 . S
C1502 H1472 0.950 . S
C1502 C1501 1.524 . S
C1502 C1503 1.417 1_545 S
C1503 H1473 0.951 1_565 S
C1503 C1498 1.360 . S
C1503 C1502 1.417 1_565 S
H1504 C1501 0.999 . S
H1505 C1486 0.913 . S
H1506 C1524 0.951 . S
H1507 C1526 0.951 . S
H1508 C1528 0.950 . S
H1509 C1529 0.950 . S
H1510 C1531 0.952 . S
H1511 C1534 0.950 . S
H1512 C1535 0.950 . S
H1513 C1537 0.950 . S
H1514 C1538 0.950 . S
H1515 C1539 0.951 . S
H1516 C1541 0.951 . S
H1517 C1543 0.950 . S
H1518 C1544 0.950 . S
H1519 C1546 0.950 . S
H1520 C1549 0.950 . S
H1521 C1550 0.950 . S
H1522 C1552 0.950 . S
H1523 C1553 0.950 . S
C1524 H1506 0.951 . S
C1524 C1525 1.366 . S
C1524 C1526 1.388 . S
C1525 C1524 1.366 . S
C1525 C1529 1.385 . S
C1526 H1507 0.951 . S
C1526 C1524 1.388 . S
C1526 C1527 1.366 . S
C1527 C1526 1.366 . S
C1527 C1528 1.414 . S
C1527 C1530 1.499 . S
C1528 H1508 0.950 . S
C1528 C1527 1.414 . S
C1528 C1529 1.374 . S
C1529 H1509 0.950 . S
C1529 C1525 1.385 . S
C1529 C1528 1.374 . S
C1530 C1527 1.499 . S
C1530 C1531 1.371 1_554 S
C1530 C1532 1.389 . S
C1531 H1510 0.952 . S
C1531 C1530 1.371 1_556 S
C1531 C1547 1.376 . S
C1532 C1530 1.389 . S
C1532 C1533 1.524 . S
C1532 C1546 1.377 . S
C1533 C1532 1.524 . S
C1533 C1534 1.397 . S
C1533 C1538 1.363 . S
C1534 H1511 0.950 . S
C1534 C1533 1.397 . S
C1534 C1535 1.334 . S
C1535 H1512 0.950 . S
C1535 C1534 1.334 . S
C1535 C1536 1.287 . S
C1536 C1535 1.287 . S
C1536 C1537 1.524 . S
C1536 H1555 0.913 . S
C1537 H1513 0.950 . S
C1537 C1536 1.524 . S
C1537 C1538 1.415 . S
C1538 H1514 0.950 . S
C1538 C1533 1.363 . S
C1538 C1537 1.415 . S
C1539 H1515 0.951 . S
C1539 C1540 1.366 . S
C1539 C1541 1.388 . S
C1540 C1539 1.366 . S
C1540 C1544 1.385 . S
C1541 H1516 0.951 . S
C1541 C1539 1.388 . S
C1541 C1542 1.366 . S
C1542 C1541 1.366 . S
C1542 C1543 1.414 . S
C1542 C1545 1.499 . S
C1543 H1517 0.950 . S
C1543 C1542 1.414 . S
C1543 C1544 1.374 . S
C1544 H1518 0.950 . S
C1544 C1540 1.385 . S
C1544 C1543 1.374 . S
C1545 C1542 1.499 . S
C1545 C1546 1.373 . S
C1545 C1547 1.389 1_554 S
C1546 H1519 0.950 . S
C1546 C1532 1.377 . S
C1546 C1545 1.373 . S
C1547 C1531 1.376 . S
C1547 C1545 1.389 1_556 S
C1547 C1548 1.524 . S
C1548 C1547 1.524 . S
C1548 C1549 1.397 . S
C1548 C1553 1.363 . S
C1549 H1520 0.950 . S
C1549 C1548 1.397 . S
C1549 C1550 1.334 . S
C1550 H1521 0.950 . S
C1550 C1549 1.334 . S
C1550 C1551 1.287 . S
C1551 C1550 1.287 . S
C1551 C1552 1.524 . S
C1551 H1554 0.999 . S
C1552 H1522 0.950 . S
C1552 C1551 1.524 . S
C1552 C1553 1.415 . S
C1553 H1523 0.950 . S
C1553 C1548 1.363 . S
C1553 C1552 1.415 . S
H1554 C1551 0.999 . S
H1555 C1536 0.913 . S
H1556 C1574 0.951 . S
H1557 C1576 0.951 . S
H1558 C1578 0.950 . S
H1559 C1579 0.950 . S
H1560 C1581 0.950 . S
H1561 C1584 0.950 . S
H1562 C1585 0.950 . S
H1563 C1587 0.950 . S
H1564 C1588 0.950 . S
H1565 C1589 0.951 . S
H1566 C1591 0.951 . S
H1567 C1593 0.950 . S
H1568 C1594 0.950 . S
H1569 C1596 0.950 . S
H1570 C1599 0.950 . S
H1571 C1600 0.950 . S
H1572 C1602 0.950 . S
H1573 C1603 0.950 . S
C1574 H1556 0.951 . S
C1574 C1575 1.366 . S
C1574 C1576 1.388 . S
C1575 C1574 1.366 . S
C1575 C1579 1.385 . S
C1576 H1557 0.951 . S
C1576 C1574 1.388 . S
C1576 C1577 1.366 . S
C1577 C1576 1.366 . S
C1577 C1578 1.414 . S
C1577 C1580 1.499 . S
C1578 H1558 0.950 . S
C1578 C1577 1.414 . S
C1578 C1579 1.374 . S
C1579 H1559 0.950 . S
C1579 C1575 1.385 . S
C1579 C1578 1.374 . S
C1580 C1577 1.499 . S
C1580 C1581 1.373 . S
C1580 C1582 1.389 . S
C1581 H1560 0.950 . S
C1581 C1580 1.373 . S
C1581 C1597 1.377 . S
C1582 C1580 1.389 . S
C1582 C1583 1.524 . S
C1582 C1596 1.377 . S
C1583 C1582 1.524 . S
C1583 C1584 1.397 . S
C1583 C1588 1.363 . S
C1584 H1561 0.950 . S
C1584 C1583 1.397 . S
C1584 C1585 1.334 . S
C1585 H1562 0.950 . S
C1585 C1584 1.334 . S
C1585 C1586 1.287 . S
C1586 C1585 1.287 . S
C1586 C1587 1.524 . S
C1586 H1605 0.913 . S
C1587 H1563 0.950 . S
C1587 C1586 1.524 . S
C1587 C1588 1.415 . S
C1588 H1564 0.950 . S
C1588 C1583 1.363 . S
C1588 C1587 1.415 . S
C1589 H1565 0.951 . S
C1589 C1590 1.366 . S
C1589 C1591 1.388 . S
C1590 C1589 1.366 . S
C1590 C1594 1.385 . S
C1591 H1566 0.951 . S
C1591 C1589 1.388 . S
C1591 C1592 1.366 . S
C1592 C1591 1.366 . S
C1592 C1593 1.414 . S
C1592 C1595 1.499 . S
C1593 H1567 0.950 . S
C1593 C1592 1.414 . S
C1593 C1594 1.374 . S
C1594 H1568 0.950 . S
C1594 C1590 1.385 . S
C1594 C1593 1.374 . S
C1595 C1592 1.499 . S
C1595 C1596 1.373 . S
C1595 C1597 1.389 . S
C1596 H1569 0.950 . S
C1596 C1582 1.377 . S
C1596 C1595 1.373 . S
C1597 C1581 1.377 . S
C1597 C1595 1.389 . S
C1597 C1598 1.524 . S
C1598 C1597 1.524 . S
C1598 C1599 1.397 . S
C1598 C1603 1.363 . S
C1599 H1570 0.950 . S
C1599 C1598 1.397 . S
C1599 C1600 1.334 . S
C1600 H1571 0.950 . S
C1600 C1599 1.334 . S
C1600 C1601 1.287 . S
C1601 C1600 1.287 . S
C1601 C1602 1.524 . S
C1601 H1604 0.999 . S
C1602 H1572 0.950 . S
C1602 C1601 1.524 . S
C1602 C1603 1.415 . S
C1603 H1573 0.950 . S
C1603 C1598 1.363 . S
C1603 C1602 1.415 . S
H1604 C1601 0.999 . S
H1605 C1586 0.913 . S
H1606 C1624 0.951 . S
H1607 C1626 0.951 . S
H1608 C1628 0.950 . S
H1609 C1629 0.950 . S
H1610 C1631 0.950 . S
H1611 C1634 0.950 . S
H1612 C1635 0.950 . S
H1613 C1637 0.950 . S
H1614 C1638 0.950 . S
H1615 C1639 0.951 . S
H1616 C1641 0.951 . S
H1617 C1643 0.950 . S
H1618 C1644 0.950 . S
H1619 C1646 0.950 . S
H1620 C1649 0.950 . S
H1621 C1650 0.950 . S
H1622 C1652 0.950 . S
H1623 C1653 0.950 . S
C1624 H1606 0.951 . S
C1624 C1625 1.366 . S
C1624 C1626 1.388 . S
C1625 C1624 1.366 . S
C1625 C1629 1.385 . S
C1626 H1607 0.951 . S
C1626 C1624 1.388 . S
C1626 C1627 1.366 . S
C1627 C1626 1.366 . S
C1627 C1628 1.414 . S
C1627 C1630 1.499 . S
C1628 H1608 0.950 . S
C1628 C1627 1.414 . S
C1628 C1629 1.374 . S
C1629 H1609 0.950 . S
C1629 C1625 1.385 . S
C1629 C1628 1.374 . S
C1630 C1627 1.499 . S
C1630 C1631 1.373 . S
C1630 C1632 1.389 . S
C1631 H1610 0.950 . S
C1631 C1630 1.373 . S
C1631 C1647 1.377 . S
C1632 C1630 1.389 . S
C1632 C1633 1.524 . S
C1632 C1646 1.377 . S
C1633 C1632 1.524 . S
C1633 C1634 1.397 . S
C1633 C1638 1.363 . S
C1634 H1611 0.950 . S
C1634 C1633 1.397 . S
C1634 C1635 1.334 . S
C1635 H1612 0.950 . S
C1635 C1634 1.334 . S
C1635 C1636 1.287 . S
C1636 C1635 1.287 . S
C1636 C1637 1.524 . S
C1636 H1655 0.913 . S
C1637 H1613 0.950 . S
C1637 C1636 1.524 . S
C1637 C1638 1.415 . S
C1638 H1614 0.950 . S
C1638 C1633 1.363 . S
C1638 C1637 1.415 . S
C1639 H1615 0.951 . S
C1639 C1640 1.366 . S
C1639 C1641 1.388 . S
C1640 C1639 1.366 . S
C1640 C1644 1.385 . S
C1641 H1616 0.951 . S
C1641 C1639 1.388 . S
C1641 C1642 1.366 . S
C1642 C1641 1.366 . S
C1642 C1643 1.414 . S
C1642 C1645 1.499 . S
C1643 H1617 0.950 . S
C1643 C1642 1.414 . S
C1643 C1644 1.374 . S
C1644 H1618 0.950 . S
C1644 C1640 1.385 . S
C1644 C1643 1.374 . S
C1645 C1642 1.499 . S
C1645 C1646 1.373 . S
C1645 C1647 1.389 . S
C1646 H1619 0.950 . S
C1646 C1632 1.377 . S
C1646 C1645 1.373 . S
C1647 C1631 1.377 . S
C1647 C1645 1.389 . S
C1647 C1648 1.524 . S
C1648 C1647 1.524 . S
C1648 C1649 1.397 . S
C1648 C1653 1.363 . S
C1649 H1620 0.950 . S
C1649 C1648 1.397 . S
C1649 C1650 1.334 . S
C1650 H1621 0.950 . S
C1650 C1649 1.334 . S
C1650 C1651 1.287 . S
C1651 C1650 1.287 . S
C1651 C1652 1.524 . S
C1651 H1654 0.999 . S
C1652 H1622 0.950 . S
C1652 C1651 1.524 . S
C1652 C1653 1.415 . S
C1653 H1623 0.950 . S
C1653 C1648 1.363 . S
C1653 C1652 1.415 . S
H1654 C1651 0.999 . S
H1655 C1636 0.913 . S
H1656 C1674 0.951 . S
H1657 C1676 0.951 . S
H1658 C1678 0.950 . S
H1659 C1679 0.950 . S
H1660 C1681 0.950 . S
H1661 C1684 0.950 . S
H1662 C1685 0.950 . S
H1663 C1687 0.950 . S
H1664 C1688 0.950 . S
H1665 C1689 0.951 . S
H1666 C1691 0.951 . S
H1667 C1693 0.950 . S
H1668 C1694 0.950 . S
H1669 C1696 0.950 . S
H1670 C1699 0.950 . S
H1671 C1700 0.950 . S
H1672 C1702 0.950 . S
H1673 C1703 0.950 . S
C1674 H1656 0.951 . S
C1674 C1675 1.366 . S
C1674 C1676 1.388 . S
C1675 C1674 1.366 . S
C1675 C1679 1.385 . S
C1676 H1657 0.951 . S
C1676 C1674 1.388 . S
C1676 C1677 1.366 . S
C1677 C1676 1.366 . S
C1677 C1678 1.414 . S
C1677 C1680 1.499 . S
C1678 H1658 0.950 . S
C1678 C1677 1.414 . S
C1678 C1679 1.374 . S
C1679 H1659 0.950 . S
C1679 C1675 1.385 . S
C1679 C1678 1.374 . S
C1680 C1677 1.499 . S
C1680 C1681 1.373 . S
C1680 C1682 1.389 . S
C1681 H1660 0.950 . S
C1681 C1680 1.373 . S
C1681 C1697 1.377 . S
C1682 C1680 1.389 . S
C1682 C1683 1.524 . S
C1682 C1696 1.377 . S
C1683 C1682 1.524 . S
C1683 C1684 1.397 . S
C1683 C1688 1.363 . S
C1684 H1661 0.950 . S
C1684 C1683 1.397 . S
C1684 C1685 1.334 . S
C1685 H1662 0.950 . S
C1685 C1684 1.334 . S
C1685 C1686 1.287 . S
C1686 C1685 1.287 . S
C1686 C1687 1.524 . S
C1686 H1705 0.913 . S
C1687 H1663 0.950 . S
C1687 C1686 1.524 . S
C1687 C1688 1.415 . S
C1688 H1664 0.950 . S
C1688 C1683 1.363 . S
C1688 C1687 1.415 . S
C1689 H1665 0.951 . S
C1689 C1690 1.366 . S
C1689 C1691 1.388 . S
C1690 C1689 1.366 . S
C1690 C1694 1.385 . S
C1691 H1666 0.951 . S
C1691 C1689 1.388 . S
C1691 C1692 1.366 . S
C1692 C1691 1.366 . S
C1692 C1693 1.414 . S
C1692 C1695 1.499 . S
C1693 H1667 0.950 . S
C1693 C1692 1.414 . S
C1693 C1694 1.374 . S
C1694 H1668 0.950 . S
C1694 C1690 1.385 . S
C1694 C1693 1.374 . S
C1695 C1692 1.499 . S
C1695 C1696 1.373 . S
C1695 C1697 1.389 . S
C1696 H1669 0.950 . S
C1696 C1682 1.377 . S
C1696 C1695 1.373 . S
C1697 C1681 1.377 . S
C1697 C1695 1.389 . S
C1697 C1698 1.524 . S
C1698 C1697 1.524 . S
C1698 C1699 1.397 . S
C1698 C1703 1.363 . S
C1699 H1670 0.950 . S
C1699 C1698 1.397 . S
C1699 C1700 1.334 . S
C1700 H1671 0.950 . S
C1700 C1699 1.334 . S
C1700 C1701 1.287 . S
C1701 C1700 1.287 . S
C1701 C1702 1.524 . S
C1701 H1704 0.999 . S
C1702 H1672 0.950 . S
C1702 C1701 1.524 . S
C1702 C1703 1.415 . S
C1703 H1673 0.950 . S
C1703 C1698 1.363 . S
C1703 C1702 1.415 . S
H1704 C1701 0.999 . S
H1705 C1686 0.913 . S
H1706 C1724 0.951 . S
H1707 C1726 0.951 . S
H1708 C1728 0.950 . S
H1709 C1729 0.950 . S
H1710 C1731 0.950 . S
H1711 C1734 0.950 . S
H1712 C1735 0.950 . S
H1713 C1737 0.950 . S
H1714 C1738 0.950 . S
H1715 C1739 0.951 . S
H1716 C1741 0.951 . S
H1717 C1743 0.950 . S
H1718 C1744 0.950 . S
H1719 C1746 0.950 . S
H1720 C1749 0.950 . S
H1721 C1750 0.950 . S
H1722 C1752 0.950 . S
H1723 C1753 0.950 . S
C1724 H1706 0.951 . S
C1724 C1725 1.366 . S
C1724 C1726 1.388 . S
C1725 C1724 1.366 . S
C1725 C1729 1.385 . S
C1726 H1707 0.951 . S
C1726 C1724 1.388 . S
C1726 C1727 1.366 . S
C1727 C1726 1.366 . S
C1727 C1728 1.414 . S
C1727 C1730 1.499 . S
C1728 H1708 0.950 . S
C1728 C1727 1.414 . S
C1728 C1729 1.374 . S
C1729 H1709 0.950 . S
C1729 C1725 1.385 . S
C1729 C1728 1.374 . S
C1730 C1727 1.499 . S
C1730 C1731 1.373 . S
C1730 C1732 1.389 . S
C1731 H1710 0.950 . S
C1731 C1730 1.373 . S
C1731 C1747 1.377 . S
C1732 C1730 1.389 . S
C1732 C1733 1.524 . S
C1732 C1746 1.377 . S
C1733 C1732 1.524 . S
C1733 C1734 1.397 . S
C1733 C1738 1.363 . S
C1734 H1711 0.950 . S
C1734 C1733 1.397 . S
C1734 C1735 1.334 . S
C1735 H1712 0.950 . S
C1735 C1734 1.334 . S
C1735 C1736 1.287 . S
C1736 C1735 1.287 . S
C1736 C1737 1.524 . S
C1736 H1755 0.913 . S
C1737 H1713 0.950 . S
C1737 C1736 1.524 . S
C1737 C1738 1.415 . S
C1738 H1714 0.950 . S
C1738 C1733 1.363 . S
C1738 C1737 1.415 . S
C1739 H1715 0.951 . S
C1739 C1740 1.366 . S
C1739 C1741 1.388 . S
C1740 C1739 1.366 . S
C1740 C1744 1.385 . S
C1741 H1716 0.951 . S
C1741 C1739 1.388 . S
C1741 C1742 1.366 . S
C1742 C1741 1.366 . S
C1742 C1743 1.414 . S
C1742 C1745 1.499 . S
C1743 H1717 0.950 . S
C1743 C1742 1.414 . S
C1743 C1744 1.374 . S
C1744 H1718 0.950 . S
C1744 C1740 1.385 . S
C1744 C1743 1.374 . S
C1745 C1742 1.499 . S
C1745 C1746 1.373 . S
C1745 C1747 1.389 . S
C1746 H1719 0.950 . S
C1746 C1732 1.377 . S
C1746 C1745 1.373 . S
C1747 C1731 1.377 . S
C1747 C1745 1.389 . S
C1747 C1748 1.524 . S
C1748 C1747 1.524 . S
C1748 C1749 1.397 . S
C1748 C1753 1.363 . S
C1749 H1720 0.950 . S
C1749 C1748 1.397 . S
C1749 C1750 1.334 . S
C1750 H1721 0.950 . S
C1750 C1749 1.334 . S
C1750 C1751 1.287 . S
C1751 C1750 1.287 . S
C1751 C1752 1.524 . S
C1751 H1754 0.999 . S
C1752 H1722 0.950 . S
C1752 C1751 1.524 . S
C1752 C1753 1.415 . S
C1753 H1723 0.950 . S
C1753 C1748 1.363 . S
C1753 C1752 1.415 . S
H1754 C1751 0.999 . S
H1755 C1736 0.913 . S
H1756 C1774 0.951 . S
H1757 C1776 0.951 . S
H1758 C1778 0.950 . S
H1759 C1779 0.950 . S
H1760 C1781 0.950 . S
H1761 C1784 0.950 . S
H1762 C1785 0.950 . S
H1763 C1787 0.950 . S
H1764 C1788 0.950 . S
H1765 C1789 0.951 . S
H1766 C1791 0.951 . S
H1767 C1793 0.950 . S
H1768 C1794 0.950 . S
H1769 C1796 0.950 . S
H1770 C1799 0.950 . S
H1771 C1800 0.950 . S
H1772 C1802 0.950 . S
H1773 C1803 0.950 . S
C1774 H1756 0.951 . S
C1774 C1775 1.366 . S
C1774 C1776 1.388 . S
C1775 C1774 1.366 . S
C1775 C1779 1.385 . S
C1776 H1757 0.951 . S
C1776 C1774 1.388 . S
C1776 C1777 1.366 . S
C1777 C1776 1.366 . S
C1777 C1778 1.414 . S
C1777 C1780 1.499 . S
C1778 H1758 0.950 . S
C1778 C1777 1.414 . S
C1778 C1779 1.374 . S
C1779 H1759 0.950 . S
C1779 C1775 1.385 . S
C1779 C1778 1.374 . S
C1780 C1777 1.499 . S
C1780 C1781 1.373 . S
C1780 C1782 1.389 . S
C1781 H1760 0.950 . S
C1781 C1780 1.373 . S
C1781 C1797 1.377 . S
C1782 C1780 1.389 . S
C1782 C1783 1.524 . S
C1782 C1796 1.377 . S
C1783 C1782 1.524 . S
C1783 C1784 1.397 . S
C1783 C1788 1.363 . S
C1784 H1761 0.950 . S
C1784 C1783 1.397 . S
C1784 C1785 1.334 . S
C1785 H1762 0.950 . S
C1785 C1784 1.334 . S
C1785 C1786 1.287 . S
C1786 C1785 1.287 . S
C1786 C1787 1.524 . S
C1786 H1805 0.913 . S
C1787 H1763 0.950 . S
C1787 C1786 1.524 . S
C1787 C1788 1.415 . S
C1788 H1764 0.950 . S
C1788 C1783 1.363 . S
C1788 C1787 1.415 . S
C1789 H1765 0.951 . S
C1789 C1790 1.366 . S
C1789 C1791 1.388 . S
C1790 C1789 1.366 . S
C1790 C1794 1.385 . S
C1791 H1766 0.951 . S
C1791 C1789 1.388 . S
C1791 C1792 1.366 . S
C1792 C1791 1.366 . S
C1792 C1793 1.414 . S
C1792 C1795 1.499 . S
C1793 H1767 0.950 . S
C1793 C1792 1.414 . S
C1793 C1794 1.374 . S
C1794 H1768 0.950 . S
C1794 C1790 1.385 . S
C1794 C1793 1.374 . S
C1795 C1792 1.499 . S
C1795 C1796 1.373 . S
C1795 C1797 1.389 . S
C1796 H1769 0.950 . S
C1796 C1782 1.377 . S
C1796 C1795 1.373 . S
C1797 C1781 1.377 . S
C1797 C1795 1.389 . S
C1797 C1798 1.524 . S
C1798 C1797 1.524 . S
C1798 C1799 1.397 . S
C1798 C1803 1.363 . S
C1799 H1770 0.950 . S
C1799 C1798 1.397 . S
C1799 C1800 1.334 . S
C1800 H1771 0.950 . S
C1800 C1799 1.334 . S
C1800 C1801 1.287 . S
C1801 C1800 1.287 . S
C1801 C1802 1.524 . S
C1801 H1804 0.999 . S
C1802 H1772 0.950 . S
C1802 C1801 1.524 . S
C1802 C1803 1.415 . S
C1803 H1773 0.950 . S
C1803 C1798 1.363 . S
C1803 C1802 1.415 . S
H1804 C1801 0.999 . S
H1805 C1786 0.913 . S
H1806 C1824 0.951 . S
H1807 C1826 0.951 . S
H1808 C1828 0.950 . S
H1809 C1829 0.950 . S
H1810 C1831 0.950 . S
H1811 C1834 0.950 . S
H1812 C1835 0.950 . S
H1813 C1837 0.950 . S
H1814 C1838 0.950 . S
H1815 C1839 0.951 . S
H1816 C1841 0.951 . S
H1817 C1843 0.950 . S
H1818 C1844 0.950 . S
H1819 C1846 0.950 . S
H1820 C1849 0.950 . S
H1821 C1850 0.950 . S
H1822 C1852 0.950 . S
H1823 C1853 0.950 . S
C1824 H1806 0.951 . S
C1824 C1825 1.366 . S
C1824 C1826 1.388 . S
C1825 C1824 1.366 . S
C1825 C1829 1.385 . S
C1826 H1807 0.951 . S
C1826 C1824 1.388 . S
C1826 C1827 1.366 . S
C1827 C1826 1.366 . S
C1827 C1828 1.414 . S
C1827 C1830 1.499 . S
C1828 H1808 0.950 . S
C1828 C1827 1.414 . S
C1828 C1829 1.374 . S
C1829 H1809 0.950 . S
C1829 C1825 1.385 . S
C1829 C1828 1.374 . S
C1830 C1827 1.499 . S
C1830 C1831 1.373 . S
C1830 C1832 1.389 . S
C1831 H1810 0.950 . S
C1831 C1830 1.373 . S
C1831 C1847 1.377 . S
C1832 C1830 1.389 . S
C1832 C1833 1.524 . S
C1832 C1846 1.377 . S
C1833 C1832 1.524 . S
C1833 C1834 1.397 . S
C1833 C1838 1.363 . S
C1834 H1811 0.950 . S
C1834 C1833 1.397 . S
C1834 C1835 1.334 . S
C1835 H1812 0.950 . S
C1835 C1834 1.334 . S
C1835 C1836 1.287 . S
C1836 C1835 1.287 . S
C1836 C1837 1.524 . S
C1836 H1855 0.913 . S
C1837 H1813 0.950 . S
C1837 C1836 1.524 . S
C1837 C1838 1.415 . S
C1838 H1814 0.950 . S
C1838 C1833 1.363 . S
C1838 C1837 1.415 . S
C1839 H1815 0.951 . S
C1839 C1840 1.366 . S
C1839 C1841 1.388 . S
C1840 C1839 1.366 . S
C1840 C1844 1.385 . S
C1841 H1816 0.951 . S
C1841 C1839 1.388 . S
C1841 C1842 1.366 . S
C1842 C1841 1.366 . S
C1842 C1843 1.414 . S
C1842 C1845 1.499 . S
C1843 H1817 0.950 . S
C1843 C1842 1.414 . S
C1843 C1844 1.374 . S
C1844 H1818 0.950 . S
C1844 C1840 1.385 . S
C1844 C1843 1.374 . S
C1845 C1842 1.499 . S
C1845 C1846 1.373 . S
C1845 C1847 1.389 . S
C1846 H1819 0.950 . S
C1846 C1832 1.377 . S
C1846 C1845 1.373 . S
C1847 C1831 1.377 . S
C1847 C1845 1.389 . S
C1847 C1848 1.524 . S
C1848 C1847 1.524 . S
C1848 C1849 1.397 . S
C1848 C1853 1.363 . S
C1849 H1820 0.950 . S
C1849 C1848 1.397 . S
C1849 C1850 1.334 . S
C1850 H1821 0.950 . S
C1850 C1849 1.334 . S
C1850 C1851 1.287 . S
C1851 C1850 1.287 . S
C1851 C1852 1.524 . S
C1851 H1854 0.999 . S
C1852 H1822 0.950 . S
C1852 C1851 1.524 . S
C1852 C1853 1.415 . S
C1853 H1823 0.950 . S
C1853 C1848 1.363 . S
C1853 C1852 1.415 . S
H1854 C1851 0.999 . S
H1855 C1836 0.913 . S
H1856 C1874 0.951 . S
H1857 C1876 0.951 . S
H1858 C1878 0.948 . S
H1859 C1879 0.950 . S
H1860 C1881 0.950 1_655 S
H1861 C1884 0.950 . S
H1862 C1885 0.950 . S
H1863 C1887 0.950 . S
H1864 C1888 0.950 . S
H1865 C1889 0.951 1_655 S
H1866 C1891 0.951 1_655 S
H1867 C1893 0.950 . S
H1868 C1894 0.950 . S
H1869 C1896 0.950 . S
H1870 C1899 0.950 . S
H1871 C1900 0.950 . S
H1872 C1902 0.950 . S
H1873 C1903 0.950 . S
C1874 H1856 0.951 . S
C1874 C1875 1.366 . S
C1874 C1876 1.388 . S
C1875 C1874 1.366 . S
C1875 C1879 1.385 . S
C1876 H1857 0.951 . S
C1876 C1874 1.388 . S
C1876 C1877 1.366 . S
C1877 C1876 1.366 . S
C1877 C1878 1.414 . S
C1877 C1880 1.499 . S
C1878 H1858 0.948 . S
C1878 C1877 1.414 . S
C1878 C1879 1.374 . S
C1879 H1859 0.950 . S
C1879 C1875 1.385 . S
C1879 C1878 1.374 . S
C1880 C1877 1.499 . S
C1880 C1881 1.373 . S
C1880 C1882 1.389 . S
C1881 H1860 0.950 1_455 S
C1881 C1880 1.373 . S
C1881 C1897 1.377 . S
C1882 C1880 1.389 . S
C1882 C1883 1.524 . S
C1882 C1896 1.377 . S
C1883 C1882 1.524 . S
C1883 C1884 1.397 . S
C1883 C1888 1.363 . S
C1884 H1861 0.950 . S
C1884 C1883 1.397 . S
C1884 C1885 1.334 . S
C1885 H1862 0.950 . S
C1885 C1884 1.334 . S
C1885 C1886 1.287 . S
C1886 C1885 1.287 . S
C1886 C1887 1.524 . S
C1886 H1905 0.913 . S
C1887 H1863 0.950 . S
C1887 C1886 1.524 . S
C1887 C1888 1.415 . S
C1888 H1864 0.950 . S
C1888 C1883 1.363 . S
C1888 C1887 1.415 . S
C1889 H1865 0.951 1_455 S
C1889 C1890 1.366 . S
C1889 C1891 1.388 . S
C1890 C1889 1.366 . S
C1890 C1894 1.385 . S
C1891 H1866 0.951 1_455 S
C1891 C1889 1.388 . S
C1891 C1892 1.366 . S
C1892 C1891 1.366 . S
C1892 C1893 1.414 . S
C1892 C1895 1.499 . S
C1893 H1867 0.950 . S
C1893 C1892 1.414 . S
C1893 C1894 1.374 . S
C1894 H1868 0.950 . S
C1894 C1890 1.385 . S
C1894 C1893 1.374 . S
C1895 C1892 1.499 . S
C1895 C1896 1.373 . S
C1895 C1897 1.389 . S
C1896 H1869 0.950 . S
C1896 C1882 1.377 . S
C1896 C1895 1.373 . S
C1897 C1881 1.377 . S
C1897 C1895 1.389 . S
C1897 C1898 1.524 1_455 S
C1898 C1897 1.524 1_655 S
C1898 C1899 1.397 . S
C1898 C1903 1.363 . S
C1899 H1870 0.950 . S
C1899 C1898 1.397 . S
C1899 C1900 1.334 . S
C1900 H1871 0.950 . S
C1900 C1899 1.334 . S
C1900 C1901 1.287 . S
C1901 C1900 1.287 . S
C1901 C1902 1.524 . S
C1901 H1904 0.999 . S
C1902 H1872 0.950 . S
C1902 C1901 1.524 . S
C1902 C1903 1.415 . S
C1903 H1873 0.950 . S
C1903 C1898 1.363 . S
C1903 C1902 1.415 . S
H1904 C1901 0.999 . S
H1905 C1886 0.913 . S
H1906 C1924 0.951 . S
H1907 C1926 0.951 . S
H1908 C1928 0.950 . S
H1909 C1929 0.950 . S
H1910 C1931 0.950 . S
H1911 C1934 0.950 . S
H1912 C1935 0.950 . S
H1913 C1937 0.950 . S
H1914 C1938 0.950 . S
H1915 C1939 0.951 . S
H1916 C1941 0.951 . S
H1917 C1943 0.950 . S
H1918 C1944 0.950 . S
H1919 C1946 0.950 . S
H1920 C1949 0.950 . S
H1921 C1950 0.950 . S
H1922 C1952 0.950 . S
H1923 C1953 0.950 . S
C1924 H1906 0.951 . S
C1924 C1925 1.366 . S
C1924 C1926 1.388 . S
C1925 C1924 1.366 . S
C1925 C1929 1.385 . S
C1926 H1907 0.951 . S
C1926 C1924 1.388 . S
C1926 C1927 1.366 . S
C1927 C1926 1.366 . S
C1927 C1928 1.414 . S
C1927 C1930 1.499 . S
C1928 H1908 0.950 . S
C1928 C1927 1.414 . S
C1928 C1929 1.374 . S
C1929 H1909 0.950 . S
C1929 C1925 1.385 . S
C1929 C1928 1.374 . S
C1930 C1927 1.499 . S
C1930 C1931 1.373 . S
C1930 C1932 1.389 . S
C1931 H1910 0.950 . S
C1931 C1930 1.373 . S
C1931 C1947 1.377 . S
C1932 C1930 1.389 . S
C1932 C1933 1.524 . S
C1932 C1946 1.377 . S
C1933 C1932 1.524 . S
C1933 C1934 1.397 . S
C1933 C1938 1.363 . S
C1934 H1911 0.950 . S
C1934 C1933 1.397 . S
C1934 C1935 1.334 . S
C1935 H1912 0.950 . S
C1935 C1934 1.334 . S
C1935 C1936 1.287 . S
C1936 C1935 1.287 . S
C1936 C1937 1.524 . S
C1936 H1955 0.913 . S
C1937 H1913 0.950 . S
C1937 C1936 1.524 . S
C1937 C1938 1.415 . S
C1938 H1914 0.950 . S
C1938 C1933 1.363 . S
C1938 C1937 1.415 . S
C1939 H1915 0.951 . S
C1939 C1940 1.366 . S
C1939 C1941 1.388 . S
C1940 C1939 1.366 . S
C1940 C1944 1.385 . S
C1941 H1916 0.951 . S
C1941 C1939 1.388 . S
C1941 C1942 1.366 . S
C1942 C1941 1.366 . S
C1942 C1943 1.414 . S
C1942 C1945 1.499 . S
C1943 H1917 0.950 . S
C1943 C1942 1.414 . S
C1943 C1944 1.374 . S
C1944 H1918 0.950 . S
C1944 C1940 1.385 . S
C1944 C1943 1.374 . S
C1945 C1942 1.499 . S
C1945 C1946 1.373 . S
C1945 C1947 1.389 . S
C1946 H1919 0.950 . S
C1946 C1932 1.377 . S
C1946 C1945 1.373 . S
C1947 C1931 1.377 . S
C1947 C1945 1.389 . S
C1947 C1948 1.524 . S
C1948 C1947 1.524 . S
C1948 C1949 1.397 . S
C1948 C1953 1.363 . S
C1949 H1920 0.950 . S
C1949 C1948 1.397 . S
C1949 C1950 1.334 . S
C1950 H1921 0.950 . S
C1950 C1949 1.334 . S
C1950 C1951 1.287 . S
C1951 C1950 1.287 . S
C1951 C1952 1.524 . S
C1951 H1954 0.999 . S
C1952 H1922 0.950 . S
C1952 C1951 1.524 . S
C1952 C1953 1.415 . S
C1953 H1923 0.950 . S
C1953 C1948 1.363 . S
C1953 C1952 1.415 . S
H1954 C1951 0.999 . S
H1955 C1936 0.913 . S
H1956 C1974 0.951 . S
H1957 C1976 0.951 . S
H1958 C1978 0.950 . S
H1959 C1979 0.950 . S
H1960 C1981 0.950 . S
H1961 C1984 0.950 . S
H1962 C1985 0.950 . S
H1963 C1987 0.950 . S
H1964 C1988 0.950 . S
H1965 C1989 0.951 . S
H1966 C1991 0.951 . S
H1967 C1993 0.950 . S
H1968 C1994 0.950 . S
H1969 C1996 0.950 . S
H1970 C1999 0.950 . S
H1971 C2000 0.950 . S
H1972 C2002 0.950 . S
H1973 C2003 0.950 . S
C1974 H1956 0.951 . S
C1974 C1975 1.366 . S
C1974 C1976 1.388 . S
C1975 C1974 1.366 . S
C1975 C1979 1.385 . S
C1976 H1957 0.951 . S
C1976 C1974 1.388 . S
C1976 C1977 1.366 . S
C1977 C1976 1.366 . S
C1977 C1978 1.414 . S
C1977 C1980 1.499 . S
C1978 H1958 0.950 . S
C1978 C1977 1.414 . S
C1978 C1979 1.374 . S
C1979 H1959 0.950 . S
C1979 C1975 1.385 . S
C1979 C1978 1.374 . S
C1980 C1977 1.499 . S
C1980 C1981 1.373 . S
C1980 C1982 1.389 . S
C1981 H1960 0.950 . S
C1981 C1980 1.373 . S
C1981 C1997 1.377 . S
C1982 C1980 1.389 . S
C1982 C1983 1.524 . S
C1982 C1996 1.377 . S
C1983 C1982 1.524 . S
C1983 C1984 1.397 . S
C1983 C1988 1.363 . S
C1984 H1961 0.950 . S
C1984 C1983 1.397 . S
C1984 C1985 1.334 . S
C1985 H1962 0.950 . S
C1985 C1984 1.334 . S
C1985 C1986 1.287 . S
C1986 C1985 1.287 . S
C1986 C1987 1.524 . S
C1986 H2005 0.913 . S
C1987 H1963 0.950 . S
C1987 C1986 1.524 . S
C1987 C1988 1.415 . S
C1988 H1964 0.950 . S
C1988 C1983 1.363 . S
C1988 C1987 1.415 . S
C1989 H1965 0.951 . S
C1989 C1990 1.366 . S
C1989 C1991 1.388 . S
C1990 C1989 1.366 . S
C1990 C1994 1.385 . S
C1991 H1966 0.951 . S
C1991 C1989 1.388 . S
C1991 C1992 1.366 . S
C1992 C1991 1.366 . S
C1992 C1993 1.414 . S
C1992 C1995 1.499 . S
C1993 H1967 0.950 . S
C1993 C1992 1.414 . S
C1993 C1994 1.374 . S
C1994 H1968 0.950 . S
C1994 C1990 1.385 . S
C1994 C1993 1.374 . S
C1995 C1992 1.499 . S
C1995 C1996 1.373 . S
C1995 C1997 1.389 . S
C1996 H1969 0.950 . S
C1996 C1982 1.377 . S
C1996 C1995 1.373 . S
C1997 C1981 1.377 . S
C1997 C1995 1.389 . S
C1997 C1998 1.524 . S
C1998 C1997 1.524 . S
C1998 C1999 1.397 . S
C1998 C2003 1.363 . S
C1999 H1970 0.950 . S
C1999 C1998 1.397 . S
C1999 C2000 1.334 . S
C2000 H1971 0.950 . S
C2000 C1999 1.334 . S
C2000 C2001 1.287 . S
C2001 C2000 1.287 . S
C2001 C2002 1.524 . S
C2001 H2004 0.999 . S
C2002 H1972 0.950 . S
C2002 C2001 1.524 . S
C2002 C2003 1.415 . S
C2003 H1973 0.950 . S
C2003 C1998 1.363 . S
C2003 C2002 1.415 . S
H2004 C2001 0.999 . S
H2005 C1986 0.913 . S
H2006 C2024 0.951 . S
H2007 C2026 0.951 . S
H2008 C2028 0.950 . S
H2009 C2029 0.950 . S
H2010 C2031 0.950 . S
H2011 C2034 0.950 . S
H2012 C2035 0.950 . S
H2013 C2037 0.950 . S
H2014 C2038 0.950 . S
H2015 C2039 0.951 . S
H2016 C2041 0.951 . S
H2017 C2043 0.950 . S
H2018 C2044 0.950 . S
H2019 C2046 0.950 . S
H2020 C2049 0.950 . S
H2021 C2050 0.950 . S
H2022 C2052 0.950 . S
H2023 C2053 0.950 . S
C2024 H2006 0.951 . S
C2024 C2025 1.366 . S
C2024 C2026 1.388 . S
C2025 C2024 1.366 . S
C2025 C2029 1.385 . S
C2026 H2007 0.951 . S
C2026 C2024 1.388 . S
C2026 C2027 1.366 . S
C2027 C2026 1.366 . S
C2027 C2028 1.414 . S
C2027 C2030 1.499 . S
C2028 H2008 0.950 . S
C2028 C2027 1.414 . S
C2028 C2029 1.374 . S
C2029 H2009 0.950 . S
C2029 C2025 1.385 . S
C2029 C2028 1.374 . S
C2030 C2027 1.499 . S
C2030 C2031 1.373 . S
C2030 C2032 1.389 . S
C2031 H2010 0.950 . S
C2031 C2030 1.373 . S
C2031 C2047 1.377 . S
C2032 C2030 1.389 . S
C2032 C2033 1.524 . S
C2032 C2046 1.377 . S
C2033 C2032 1.524 . S
C2033 C2034 1.397 . S
C2033 C2038 1.363 . S
C2034 H2011 0.950 . S
C2034 C2033 1.397 . S
C2034 C2035 1.334 . S
C2035 H2012 0.950 . S
C2035 C2034 1.334 . S
C2035 C2036 1.287 . S
C2036 C2035 1.287 . S
C2036 C2037 1.524 . S
C2036 H2055 0.913 . S
C2037 H2013 0.950 . S
C2037 C2036 1.524 . S
C2037 C2038 1.415 . S
C2038 H2014 0.950 . S
C2038 C2033 1.363 . S
C2038 C2037 1.415 . S
C2039 H2015 0.951 . S
C2039 C2040 1.366 . S
C2039 C2041 1.388 . S
C2040 C2039 1.366 . S
C2040 C2044 1.385 . S
C2041 H2016 0.951 . S
C2041 C2039 1.388 . S
C2041 C2042 1.366 . S
C2042 C2041 1.366 . S
C2042 C2043 1.414 . S
C2042 C2045 1.499 . S
C2043 H2017 0.950 . S
C2043 C2042 1.414 . S
C2043 C2044 1.374 . S
C2044 H2018 0.950 . S
C2044 C2040 1.385 . S
C2044 C2043 1.374 . S
C2045 C2042 1.499 . S
C2045 C2046 1.373 . S
C2045 C2047 1.389 . S
C2046 H2019 0.950 . S
C2046 C2032 1.377 . S
C2046 C2045 1.373 . S
C2047 C2031 1.377 . S
C2047 C2045 1.389 . S
C2047 C2048 1.524 . S
C2048 C2047 1.524 . S
C2048 C2049 1.397 . S
C2048 C2053 1.363 . S
C2049 H2020 0.950 . S
C2049 C2048 1.397 . S
C2049 C2050 1.334 . S
C2050 H2021 0.950 . S
C2050 C2049 1.334 . S
C2050 C2051 1.287 . S
C2051 C2050 1.287 . S
C2051 C2052 1.524 . S
C2051 H2054 0.999 . S
C2052 H2022 0.950 . S
C2052 C2051 1.524 . S
C2052 C2053 1.415 . S
C2053 H2023 0.950 . S
C2053 C2048 1.363 . S
C2053 C2052 1.415 . S
H2054 C2051 0.999 . S
H2055 C2036 0.913 . S
H2056 C2074 0.951 . S
H2057 C2076 0.951 . S
H2058 C2078 0.950 . S
H2059 C2079 0.950 . S
H2060 C2081 0.950 . S
H2061 C2084 0.950 . S
H2062 C2085 0.950 . S
H2063 C2087 0.950 . S
H2064 C2088 0.950 . S
H2065 C2089 0.951 . S
H2066 C2091 0.951 . S
H2067 C2093 0.950 . S
H2068 C2094 0.950 . S
H2069 C2096 0.950 . S
H2070 C2099 0.950 . S
H2071 C2100 0.950 . S
H2072 C2102 0.950 1_655 S
H2073 C2103 0.950 . S
C2074 H2056 0.951 . S
C2074 C2075 1.366 . S
C2074 C2076 1.388 . S
C2075 C2074 1.366 . S
C2075 C2079 1.385 1_455 S
C2076 H2057 0.951 . S
C2076 C2074 1.388 . S
C2076 C2077 1.366 . S
C2077 C2076 1.366 . S
C2077 C2078 1.414 1_455 S
C2077 C2080 1.499 . S
C2078 H2058 0.950 . S
C2078 C2077 1.414 1_655 S
C2078 C2079 1.374 . S
C2079 H2059 0.950 . S
C2079 C2075 1.385 1_655 S
C2079 C2078 1.374 . S
C2080 C2077 1.499 . S
C2080 C2081 1.373 . S
C2080 C2082 1.389 . S
C2081 H2060 0.950 . S
C2081 C2080 1.373 . S
C2081 C2097 1.377 . S
C2082 C2080 1.389 . S
C2082 C2083 1.524 . S
C2082 C2096 1.377 . S
C2083 C2082 1.524 . S
C2083 C2084 1.397 1_455 S
C2083 C2088 1.363 . S
C2084 H2061 0.950 . S
C2084 C2083 1.397 1_655 S
C2084 C2085 1.334 . S
C2085 H2062 0.950 . S
C2085 C2084 1.334 . S
C2085 C2086 1.287 . S
C2086 C2085 1.287 . S
C2086 C2087 1.524 1_655 S
C2086 H2105 0.913 . S
C2087 H2063 0.950 . S
C2087 C2086 1.524 1_455 S
C2087 C2088 1.415 . S
C2088 H2064 0.950 . S
C2088 C2083 1.363 . S
C2088 C2087 1.415 . S
C2089 H2065 0.951 . S
C2089 C2090 1.366 1_655 S
C2089 C2091 1.388 . S
C2090 C2089 1.366 1_455 S
C2090 C2094 1.385 . S
C2091 H2066 0.951 . S
C2091 C2089 1.388 . S
C2091 C2092 1.366 1_655 S
C2092 C2091 1.366 1_455 S
C2092 C2093 1.414 . S
C2092 C2095 1.499 . S
C2093 H2067 0.950 . S
C2093 C2092 1.414 . S
C2093 C2094 1.374 . S
C2094 H2068 0.950 . S
C2094 C2090 1.385 . S
C2094 C2093 1.374 . S
C2095 C2092 1.499 . S
C2095 C2096 1.373 . S
C2095 C2097 1.389 . S
C2096 H2069 0.950 . S
C2096 C2082 1.377 . S
C2096 C2095 1.373 . S
C2097 C2081 1.377 . S
C2097 C2095 1.389 . S
C2097 C2098 1.524 . S
C2098 C2097 1.524 . S
C2098 C2099 1.397 . S
C2098 C2103 1.363 1_455 S
C2099 H2070 0.950 . S
C2099 C2098 1.397 . S
C2099 C2100 1.334 . S
C2100 H2071 0.950 . S
C2100 C2099 1.334 . S
C2100 C2101 1.287 . S
C2101 C2100 1.287 . S
C2101 C2102 1.524 . S
C2101 H2104 0.999 . S
C2102 H2072 0.950 1_455 S
C2102 C2101 1.524 . S
C2102 C2103 1.415 1_455 S
C2103 H2073 0.950 . S
C2103 C2098 1.363 1_655 S
C2103 C2102 1.415 1_655 S
H2104 C2101 0.999 . S
H2105 C2086 0.913 . S
H2106 C2124 0.951 . S
H2107 C2126 0.951 . S
H2108 C2128 0.950 . S
H2109 C2129 0.950 . S
H2110 C2131 0.950 . S
H2111 C2134 0.950 . S
H2112 C2135 0.950 . S
H2113 C2137 0.950 . S
H2114 C2138 0.950 . S
H2115 C2139 0.951 . S
H2116 C2141 0.951 . S
H2117 C2143 0.950 . S
H2118 C2144 0.950 . S
H2119 C2146 0.950 . S
H2120 C2149 0.950 . S
H2121 C2150 0.950 . S
H2122 C2152 0.950 . S
H2123 C2153 0.950 . S
C2124 H2106 0.951 . S
C2124 C2125 1.366 . S
C2124 C2126 1.388 . S
C2125 C2124 1.366 . S
C2125 C2129 1.385 . S
C2126 H2107 0.951 . S
C2126 C2124 1.388 . S
C2126 C2127 1.366 . S
C2127 C2126 1.366 . S
C2127 C2128 1.414 . S
C2127 C2130 1.499 . S
C2128 H2108 0.950 . S
C2128 C2127 1.414 . S
C2128 C2129 1.374 . S
C2129 H2109 0.950 . S
C2129 C2125 1.385 . S
C2129 C2128 1.374 . S
C2130 C2127 1.499 . S
C2130 C2131 1.373 . S
C2130 C2132 1.389 . S
C2131 H2110 0.950 . S
C2131 C2130 1.373 . S
C2131 C2147 1.377 . S
C2132 C2130 1.389 . S
C2132 C2133 1.524 . S
C2132 C2146 1.377 . S
C2133 C2132 1.524 . S
C2133 C2134 1.397 . S
C2133 C2138 1.363 . S
C2134 H2111 0.950 . S
C2134 C2133 1.397 . S
C2134 C2135 1.334 . S
C2135 H2112 0.950 . S
C2135 C2134 1.334 . S
C2135 C2136 1.287 . S
C2136 C2135 1.287 . S
C2136 C2137 1.524 . S
C2136 H2155 0.913 . S
C2137 H2113 0.950 . S
C2137 C2136 1.524 . S
C2137 C2138 1.415 . S
C2138 H2114 0.950 . S
C2138 C2133 1.363 . S
C2138 C2137 1.415 . S
C2139 H2115 0.951 . S
C2139 C2140 1.366 . S
C2139 C2141 1.388 . S
C2140 C2139 1.366 . S
C2140 C2144 1.385 . S
C2141 H2116 0.951 . S
C2141 C2139 1.388 . S
C2141 C2142 1.366 . S
C2142 C2141 1.366 . S
C2142 C2143 1.414 . S
C2142 C2145 1.499 . S
C2143 H2117 0.950 . S
C2143 C2142 1.414 . S
C2143 C2144 1.374 . S
C2144 H2118 0.950 . S
C2144 C2140 1.385 . S
C2144 C2143 1.374 . S
C2145 C2142 1.499 . S
C2145 C2146 1.373 . S
C2145 C2147 1.389 . S
C2146 H2119 0.950 . S
C2146 C2132 1.377 . S
C2146 C2145 1.373 . S
C2147 C2131 1.377 . S
C2147 C2145 1.389 . S
C2147 C2148 1.524 . S
C2148 C2147 1.524 . S
C2148 C2149 1.397 . S
C2148 C2153 1.363 . S
C2149 H2120 0.950 . S
C2149 C2148 1.397 . S
C2149 C2150 1.334 . S
C2150 H2121 0.950 . S
C2150 C2149 1.334 . S
C2150 C2151 1.287 . S
C2151 C2150 1.287 . S
C2151 C2152 1.524 . S
C2151 H2154 0.999 . S
C2152 H2122 0.950 . S
C2152 C2151 1.524 . S
C2152 C2153 1.415 . S
C2153 H2123 0.950 . S
C2153 C2148 1.363 . S
C2153 C2152 1.415 . S
H2154 C2151 0.999 . S
H2155 C2136 0.913 . S
H2156 C2174 0.951 . S
H2157 C2176 0.951 . S
H2158 C2178 0.950 . S
H2159 C2179 0.950 . S
H2160 C2181 0.950 . S
H2161 C2184 0.950 . S
H2162 C2185 0.950 . S
H2163 C2187 0.950 . S
H2164 C2188 0.950 . S
H2165 C2189 0.951 . S
H2166 C2191 0.949 1_554 S
H2167 C2193 0.950 . S
H2168 C2194 0.950 . S
H2169 C2196 0.950 . S
H2170 C2199 0.950 . S
H2171 C2200 0.950 . S
H2172 C2202 0.950 . S
H2173 C2203 0.950 . S
C2174 H2156 0.951 . S
C2174 C2175 1.366 . S
C2174 C2176 1.388 . S
C2175 C2174 1.366 . S
C2175 C2179 1.385 . S
C2176 H2157 0.951 . S
C2176 C2174 1.388 . S
C2176 C2177 1.366 . S
C2177 C2176 1.366 . S
C2177 C2178 1.414 . S
C2177 C2180 1.499 . S
C2178 H2158 0.950 . S
C2178 C2177 1.414 . S
C2178 C2179 1.374 . S
C2179 H2159 0.950 . S
C2179 C2175 1.385 . S
C2179 C2178 1.374 . S
C2180 C2177 1.499 . S
C2180 C2181 1.373 . S
C2180 C2182 1.389 . S
C2181 H2160 0.950 . S
C2181 C2180 1.373 . S
C2181 C2197 1.377 . S
C2182 C2180 1.389 . S
C2182 C2183 1.524 . S
C2182 C2196 1.377 . S
C2183 C2182 1.524 . S
C2183 C2184 1.397 . S
C2183 C2188 1.363 . S
C2184 H2161 0.950 . S
C2184 C2183 1.397 . S
C2184 C2185 1.334 . S
C2185 H2162 0.950 . S
C2185 C2184 1.334 . S
C2185 C2186 1.287 . S
C2186 C2185 1.287 . S
C2186 C2187 1.524 . S
C2186 H2205 0.913 . S
C2187 H2163 0.950 . S
C2187 C2186 1.524 . S
C2187 C2188 1.415 . S
C2188 H2164 0.950 . S
C2188 C2183 1.363 . S
C2188 C2187 1.415 . S
C2189 H2165 0.951 . S
C2189 C2190 1.366 1_554 S
C2189 C2191 1.388 1_554 S
C2190 C2189 1.366 1_556 S
C2190 C2194 1.385 . S
C2191 H2166 0.949 1_556 S
C2191 C2189 1.388 1_556 S
C2191 C2192 1.366 . S
C2192 C2191 1.366 . S
C2192 C2193 1.414 . S
C2192 C2195 1.499 . S
C2193 H2167 0.950 . S
C2193 C2192 1.414 . S
C2193 C2194 1.374 . S
C2194 H2168 0.950 . S
C2194 C2190 1.385 . S
C2194 C2193 1.374 . S
C2195 C2192 1.499 . S
C2195 C2196 1.373 . S
C2195 C2197 1.389 . S
C2196 H2169 0.950 . S
C2196 C2182 1.377 . S
C2196 C2195 1.373 . S
C2197 C2181 1.377 . S
C2197 C2195 1.389 . S
C2197 C2198 1.524 . S
C2198 C2197 1.524 . S
C2198 C2199 1.397 . S
C2198 C2203 1.363 . S
C2199 H2170 0.950 . S
C2199 C2198 1.397 . S
C2199 C2200 1.334 . S
C2200 H2171 0.950 . S
C2200 C2199 1.334 . S
C2200 C2201 1.287 . S
C2201 C2200 1.287 . S
C2201 C2202 1.524 1_556 S
C2201 H2204 0.999 1_556 S
C2202 H2172 0.950 . S
C2202 C2201 1.524 1_554 S
C2202 C2203 1.415 1_554 S
C2203 H2173 0.950 . S
C2203 C2198 1.363 . S
C2203 C2202 1.415 1_556 S
H2204 C2201 0.999 1_554 S
H2205 C2186 0.913 . S
H2206 C2224 0.951 . S
H2207 C2226 0.951 . S
H2208 C2228 0.950 . S
H2209 C2229 0.950 . S
H2210 C2231 0.950 . S
H2211 C2234 0.950 . S
H2212 C2235 0.950 . S
H2213 C2237 0.950 . S
H2214 C2238 0.950 . S
H2215 C2239 0.951 . S
H2216 C2241 0.951 . S
H2217 C2243 0.950 . S
H2218 C2244 0.950 . S
H2219 C2246 0.950 . S
H2220 C2249 0.950 . S
H2221 C2250 0.950 . S
H2222 C2252 0.950 . S
H2223 C2253 0.950 . S
C2224 H2206 0.951 . S
C2224 C2225 1.366 . S
C2224 C2226 1.388 . S
C2225 C2224 1.366 . S
C2225 C2229 1.385 . S
C2226 H2207 0.951 . S
C2226 C2224 1.388 . S
C2226 C2227 1.366 . S
C2227 C2226 1.366 . S
C2227 C2228 1.414 . S
C2227 C2230 1.499 . S
C2228 H2208 0.950 . S
C2228 C2227 1.414 . S
C2228 C2229 1.374 . S
C2229 H2209 0.950 . S
C2229 C2225 1.385 . S
C2229 C2228 1.374 . S
C2230 C2227 1.499 . S
C2230 C2231 1.373 . S
C2230 C2232 1.389 . S
C2231 H2210 0.950 . S
C2231 C2230 1.373 . S
C2231 C2247 1.377 . S
C2232 C2230 1.389 . S
C2232 C2233 1.524 . S
C2232 C2246 1.377 . S
C2233 C2232 1.524 . S
C2233 C2234 1.397 . S
C2233 C2238 1.363 . S
C2234 H2211 0.950 . S
C2234 C2233 1.397 . S
C2234 C2235 1.334 . S
C2235 H2212 0.950 . S
C2235 C2234 1.334 . S
C2235 C2236 1.287 . S
C2236 C2235 1.287 . S
C2236 C2237 1.524 . S
C2236 H2255 0.913 . S
C2237 H2213 0.950 . S
C2237 C2236 1.524 . S
C2237 C2238 1.415 . S
C2238 H2214 0.950 . S
C2238 C2233 1.363 . S
C2238 C2237 1.415 . S
C2239 H2215 0.951 . S
C2239 C2240 1.366 . S
C2239 C2241 1.388 . S
C2240 C2239 1.366 . S
C2240 C2244 1.385 . S
C2241 H2216 0.951 . S
C2241 C2239 1.388 . S
C2241 C2242 1.366 . S
C2242 C2241 1.366 . S
C2242 C2243 1.414 . S
C2242 C2245 1.499 . S
C2243 H2217 0.950 . S
C2243 C2242 1.414 . S
C2243 C2244 1.374 . S
C2244 H2218 0.950 . S
C2244 C2240 1.385 . S
C2244 C2243 1.374 . S
C2245 C2242 1.499 . S
C2245 C2246 1.373 . S
C2245 C2247 1.389 . S
C2246 H2219 0.950 . S
C2246 C2232 1.377 . S
C2246 C2245 1.373 . S
C2247 C2231 1.377 . S
C2247 C2245 1.389 . S
C2247 C2248 1.524 . S
C2248 C2247 1.524 . S
C2248 C2249 1.397 . S
C2248 C2253 1.363 . S
C2249 H2220 0.950 . S
C2249 C2248 1.397 . S
C2249 C2250 1.334 . S
C2250 H2221 0.950 . S
C2250 C2249 1.334 . S
C2250 C2251 1.287 . S
C2251 C2250 1.287 . S
C2251 C2252 1.524 . S
C2251 H2254 0.999 . S
C2252 H2222 0.950 . S
C2252 C2251 1.524 . S
C2252 C2253 1.415 . S
C2253 H2223 0.950 . S
C2253 C2248 1.363 . S
C2253 C2252 1.415 . S
H2254 C2251 0.999 . S
H2255 C2236 0.913 . S
H2256 C2274 0.951 . S
H2257 C2276 0.951 . S
H2258 C2278 0.950 . S
H2259 C2279 0.950 . S
H2260 C2281 0.950 . S
H2261 C2284 0.950 . S
H2262 C2285 0.950 . S
H2263 C2287 0.950 . S
H2264 C2288 0.950 . S
H2265 C2289 0.951 . S
H2266 C2291 0.951 . S
H2267 C2293 0.950 1_565 S
H2268 C2294 0.950 . S
H2269 C2296 0.950 . S
H2270 C2299 0.950 . S
H2271 C2300 0.950 . S
H2272 C2302 0.950 . S
H2273 C2303 0.950 . S
C2274 H2256 0.951 . S
C2274 C2275 1.366 1_565 S
C2274 C2276 1.388 . S
C2275 C2274 1.366 1_545 S
C2275 C2279 1.385 . S
C2276 H2257 0.951 . S
C2276 C2274 1.388 . S
C2276 C2277 1.366 1_565 S
C2277 C2276 1.366 1_545 S
C2277 C2278 1.414 . S
C2277 C2280 1.499 . S
C2278 H2258 0.950 . S
C2278 C2277 1.414 . S
C2278 C2279 1.374 . S
C2279 H2259 0.950 . S
C2279 C2275 1.385 . S
C2279 C2278 1.374 . S
C2280 C2277 1.499 . S
C2280 C2281 1.373 . S
C2280 C2282 1.389 1_545 S
C2281 H2260 0.950 . S
C2281 C2280 1.373 . S
C2281 C2297 1.377 . S
C2282 C2280 1.389 1_565 S
C2282 C2283 1.524 . S
C2282 C2296 1.377 . S
C2283 C2282 1.524 . S
C2283 C2284 1.397 . S
C2283 C2288 1.363 . S
C2284 H2261 0.950 . S
C2284 C2283 1.397 . S
C2284 C2285 1.334 . S
C2285 H2262 0.950 . S
C2285 C2284 1.334 . S
C2285 C2286 1.287 . S
C2286 C2285 1.287 . S
C2286 C2287 1.524 . S
C2286 H2305 0.913 . S
C2287 H2263 0.950 . S
C2287 C2286 1.524 . S
C2287 C2288 1.415 . S
C2288 H2264 0.950 . S
C2288 C2283 1.363 . S
C2288 C2287 1.415 . S
C2289 H2265 0.951 . S
C2289 C2290 1.366 . S
C2289 C2291 1.388 . S
C2290 C2289 1.366 . S
C2290 C2294 1.385 . S
C2291 H2266 0.951 . S
C2291 C2289 1.388 . S
C2291 C2292 1.366 . S
C2292 C2291 1.366 . S
C2292 C2293 1.414 . S
C2292 C2295 1.499 . S
C2293 H2267 0.950 1_545 S
C2293 C2292 1.414 . S
C2293 C2294 1.374 . S
C2294 H2268 0.950 . S
C2294 C2290 1.385 . S
C2294 C2293 1.374 . S
C2295 C2292 1.499 . S
C2295 C2296 1.373 1_545 S
C2295 C2297 1.389 . S
C2296 H2269 0.950 . S
C2296 C2282 1.377 . S
C2296 C2295 1.373 1_565 S
C2297 C2281 1.377 . S
C2297 C2295 1.389 . S
C2297 C2298 1.524 . S
C2298 C2297 1.524 . S
C2298 C2299 1.397 . S
C2298 C2303 1.363 . S
C2299 H2270 0.950 . S
C2299 C2298 1.397 . S
C2299 C2300 1.334 . S
C2300 H2271 0.950 . S
C2300 C2299 1.334 . S
C2300 C2301 1.287 . S
C2301 C2300 1.287 . S
C2301 C2302 1.524 . S
C2301 H2304 0.999 . S
C2302 H2272 0.950 . S
C2302 C2301 1.524 . S
C2302 C2303 1.415 . S
C2303 H2273 0.950 . S
C2303 C2298 1.363 . S
C2303 C2302 1.415 . S
H2304 C2301 0.999 . S
H2305 C2286 0.913 . S
H2306 C2324 0.951 . S
H2307 C2326 0.951 . S
H2308 C2328 0.950 . S
H2309 C2329 0.950 . S
H2310 C2331 0.950 . S
H2311 C2334 0.950 . S
H2312 C2335 0.950 . S
H2313 C2337 0.950 . S
H2314 C2338 0.950 . S
H2315 C2339 0.951 . S
H2316 C2341 0.951 . S
H2317 C2343 0.950 . S
H2318 C2344 0.950 . S
H2319 C2346 0.950 . S
H2320 C2349 0.950 . S
H2321 C2350 0.950 . S
H2322 C2352 0.950 . S
H2323 C2353 0.950 . S
C2324 H2306 0.951 . S
C2324 C2325 1.366 . S
C2324 C2326 1.388 . S
C2325 C2324 1.366 . S
C2325 C2329 1.385 . S
C2326 H2307 0.951 . S
C2326 C2324 1.388 . S
C2326 C2327 1.366 . S
C2327 C2326 1.366 . S
C2327 C2328 1.414 . S
C2327 C2330 1.499 . S
C2328 H2308 0.950 . S
C2328 C2327 1.414 . S
C2328 C2329 1.374 . S
C2329 H2309 0.950 . S
C2329 C2325 1.385 . S
C2329 C2328 1.374 . S
C2330 C2327 1.499 . S
C2330 C2331 1.373 . S
C2330 C2332 1.389 . S
C2331 H2310 0.950 . S
C2331 C2330 1.373 . S
C2331 C2347 1.377 . S
C2332 C2330 1.389 . S
C2332 C2333 1.524 . S
C2332 C2346 1.377 . S
C2333 C2332 1.524 . S
C2333 C2334 1.397 . S
C2333 C2338 1.363 . S
C2334 H2311 0.950 . S
C2334 C2333 1.397 . S
C2334 C2335 1.334 . S
C2335 H2312 0.950 . S
C2335 C2334 1.334 . S
C2335 C2336 1.287 . S
C2336 C2335 1.287 . S
C2336 C2337 1.524 . S
C2336 H2355 0.913 . S
C2337 H2313 0.950 . S
C2337 C2336 1.524 . S
C2337 C2338 1.415 . S
C2338 H2314 0.950 . S
C2338 C2333 1.363 . S
C2338 C2337 1.415 . S
C2339 H2315 0.951 . S
C2339 C2340 1.366 . S
C2339 C2341 1.388 . S
C2340 C2339 1.366 . S
C2340 C2344 1.385 . S
C2341 H2316 0.951 . S
C2341 C2339 1.388 . S
C2341 C2342 1.366 . S
C2342 C2341 1.366 . S
C2342 C2343 1.414 . S
C2342 C2345 1.499 . S
C2343 H2317 0.950 . S
C2343 C2342 1.414 . S
C2343 C2344 1.374 . S
C2344 H2318 0.950 . S
C2344 C2340 1.385 . S
C2344 C2343 1.374 . S
C2345 C2342 1.499 . S
C2345 C2346 1.373 . S
C2345 C2347 1.389 . S
C2346 H2319 0.950 . S
C2346 C2332 1.377 . S
C2346 C2345 1.373 . S
C2347 C2331 1.377 . S
C2347 C2345 1.389 . S
C2347 C2348 1.524 . S
C2348 C2347 1.524 . S
C2348 C2349 1.397 . S
C2348 C2353 1.363 . S
C2349 H2320 0.950 . S
C2349 C2348 1.397 . S
C2349 C2350 1.334 . S
C2350 H2321 0.950 . S
C2350 C2349 1.334 . S
C2350 C2351 1.287 . S
C2351 C2350 1.287 . S
C2351 C2352 1.524 . S
C2351 H2354 0.999 . S
C2352 H2322 0.950 . S
C2352 C2351 1.524 . S
C2352 C2353 1.415 . S
C2353 H2323 0.950 . S
C2353 C2348 1.363 . S
C2353 C2352 1.415 . S
H2354 C2351 0.999 . S
H2355 C2336 0.913 . S
H2356 C2374 0.951 1_565 S
H2357 C2376 0.951 1_565 S
H2358 C2378 0.950 . S
H2359 C2379 0.950 . S
H2360 C2381 0.950 . S
H2361 C2384 0.950 . S
H2362 C2385 0.950 . S
H2363 C2387 0.950 . S
H2364 C2388 0.950 . S
H2365 C2389 0.951 . S
H2366 C2391 0.951 . S
H2367 C2393 0.950 1_565 S
H2368 C2394 0.950 1_565 S
H2369 C2396 0.950 . S
H2370 C2399 0.950 . S
H2371 C2400 0.950 . S
H2372 C2402 0.950 . S
H2373 C2403 0.950 . S
C2374 H2356 0.951 1_545 S
C2374 C2375 1.366 . S
C2374 C2376 1.388 . S
C2375 C2374 1.366 . S
C2375 C2379 1.385 . S
C2376 H2357 0.951 1_545 S
C2376 C2374 1.388 . S
C2376 C2377 1.366 . S
C2377 C2376 1.366 . S
C2377 C2378 1.414 . S
C2377 C2380 1.499 . S
C2378 H2358 0.950 . S
C2378 C2377 1.414 . S
C2378 C2379 1.374 . S
C2379 H2359 0.950 . S
C2379 C2375 1.385 . S
C2379 C2378 1.374 . S
C2380 C2377 1.499 . S
C2380 C2381 1.373 . S
C2380 C2382 1.389 . S
C2381 H2360 0.950 . S
C2381 C2380 1.373 . S
C2381 C2397 1.377 . S
C2382 C2380 1.389 . S
C2382 C2383 1.524 1_545 S
C2382 C2396 1.377 . S
C2383 C2382 1.524 1_565 S
C2383 C2384 1.397 1_565 S
C2383 C2388 1.363 . S
C2384 H2361 0.950 . S
C2384 C2383 1.397 1_545 S
C2384 C2385 1.334 1_545 S
C2385 H2362 0.950 . S
C2385 C2384 1.334 1_565 S
C2385 C2386 1.287 . S
C2386 C2385 1.287 . S
C2386 C2387 1.524 . S
C2386 H2405 0.913 . S
C2387 H2363 0.950 . S
C2387 C2386 1.524 . S
C2387 C2388 1.415 . S
C2388 H2364 0.950 . S
C2388 C2383 1.363 . S
C2388 C2387 1.415 . S
C2389 H2365 0.951 . S
C2389 C2390 1.366 . S
C2389 C2391 1.388 . S
C2390 C2389 1.366 . S
C2390 C2394 1.385 . S
C2391 H2366 0.951 . S
C2391 C2389 1.388 . S
C2391 C2392 1.366 . S
C2392 C2391 1.366 . S
C2392 C2393 1.414 . S
C2392 C2395 1.499 . S
C2393 H2367 0.950 1_545 S
C2393 C2392 1.414 . S
C2393 C2394 1.374 . S
C2394 H2368 0.950 1_545 S
C2394 C2390 1.385 . S
C2394 C2393 1.374 . S
C2395 C2392 1.499 . S
C2395 C2396 1.373 . S
C2395 C2397 1.389 . S
C2396 H2369 0.950 . S
C2396 C2382 1.377 . S
C2396 C2395 1.373 . S
C2397 C2381 1.377 . S
C2397 C2395 1.389 . S
C2397 C2398 1.524 . S
C2398 C2397 1.524 . S
C2398 C2399 1.397 . S
C2398 C2403 1.363 . S
C2399 H2370 0.950 . S
C2399 C2398 1.397 . S
C2399 C2400 1.334 . S
C2400 H2371 0.950 . S
C2400 C2399 1.334 . S
C2400 C2401 1.287 . S
C2401 C2400 1.287 . S
C2401 C2402 1.524 . S
C2401 H2404 0.999 . S
C2402 H2372 0.950 . S
C2402 C2401 1.524 . S
C2402 C2403 1.415 . S
C2403 H2373 0.950 . S
C2403 C2398 1.363 . S
C2403 C2402 1.415 . S
H2404 C2401 0.999 . S
H2405 C2386 0.913 . S
H2406 C2424 0.951 . S
H2407 C2426 0.951 . S
H2408 C2428 0.950 . S
H2409 C2429 0.950 . S
H2410 C2431 0.950 . S
H2411 C2434 0.950 . S
H2412 C2435 0.950 . S
H2413 C2437 0.950 . S
H2414 C2438 0.950 . S
H2415 C2439 0.951 . S
H2416 C2441 0.951 . S
H2417 C2443 0.950 . S
H2418 C2444 0.950 . S
H2419 C2446 0.950 . S
H2420 C2449 0.950 . S
H2421 C2450 0.950 . S
H2422 C2452 0.950 . S
H2423 C2453 0.950 . S
C2424 H2406 0.951 . S
C2424 C2425 1.366 . S
C2424 C2426 1.388 . S
C2425 C2424 1.366 . S
C2425 C2429 1.385 . S
C2426 H2407 0.951 . S
C2426 C2424 1.388 . S
C2426 C2427 1.366 . S
C2427 C2426 1.366 . S
C2427 C2428 1.414 . S
C2427 C2430 1.499 . S
C2428 H2408 0.950 . S
C2428 C2427 1.414 . S
C2428 C2429 1.374 . S
C2429 H2409 0.950 . S
C2429 C2425 1.385 . S
C2429 C2428 1.374 . S
C2430 C2427 1.499 . S
C2430 C2431 1.373 . S
C2430 C2432 1.389 . S
C2431 H2410 0.950 . S
C2431 C2430 1.373 . S
C2431 C2447 1.377 . S
C2432 C2430 1.389 . S
C2432 C2433 1.524 . S
C2432 C2446 1.377 . S
C2433 C2432 1.524 . S
C2433 C2434 1.397 . S
C2433 C2438 1.363 . S
C2434 H2411 0.950 . S
C2434 C2433 1.397 . S
C2434 C2435 1.334 . S
C2435 H2412 0.950 . S
C2435 C2434 1.334 . S
C2435 C2436 1.287 . S
C2436 C2435 1.287 . S
C2436 C2437 1.524 . S
C2436 H2455 0.913 . S
C2437 H2413 0.950 . S
C2437 C2436 1.524 . S
C2437 C2438 1.415 . S
C2438 H2414 0.950 . S
C2438 C2433 1.363 . S
C2438 C2437 1.415 . S
C2439 H2415 0.951 . S
C2439 C2440 1.366 . S
C2439 C2441 1.388 . S
C2440 C2439 1.366 . S
C2440 C2444 1.385 . S
C2441 H2416 0.951 . S
C2441 C2439 1.388 . S
C2441 C2442 1.366 . S
C2442 C2441 1.366 . S
C2442 C2443 1.414 . S
C2442 C2445 1.499 . S
C2443 H2417 0.950 . S
C2443 C2442 1.414 . S
C2443 C2444 1.374 . S
C2444 H2418 0.950 . S
C2444 C2440 1.385 . S
C2444 C2443 1.374 . S
C2445 C2442 1.499 . S
C2445 C2446 1.373 . S
C2445 C2447 1.389 . S
C2446 H2419 0.950 . S
C2446 C2432 1.377 . S
C2446 C2445 1.373 . S
C2447 C2431 1.377 . S
C2447 C2445 1.389 . S
C2447 C2448 1.524 . S
C2448 C2447 1.524 . S
C2448 C2449 1.397 . S
C2448 C2453 1.363 . S
C2449 H2420 0.950 . S
C2449 C2448 1.397 . S
C2449 C2450 1.334 . S
C2450 H2421 0.950 . S
C2450 C2449 1.334 . S
C2450 C2451 1.287 . S
C2451 C2450 1.287 . S
C2451 C2452 1.524 . S
C2451 H2454 0.999 . S
C2452 H2422 0.950 . S
C2452 C2451 1.524 . S
C2452 C2453 1.415 . S
C2453 H2423 0.950 . S
C2453 C2448 1.363 . S
C2453 C2452 1.415 . S
H2454 C2451 0.999 . S
H2455 C2436 0.913 . S
H2456 C2474 0.951 . S
H2457 C2476 0.951 . S
H2458 C2478 0.950 . S
H2459 C2479 0.950 . S
H2460 C2481 0.950 . S
H2461 C2484 0.950 . S
H2462 C2485 0.950 . S
H2463 C2487 0.950 . S
H2464 C2488 0.950 . S
H2465 C2489 0.951 . S
H2466 C2491 0.951 . S
H2467 C2493 0.950 1_565 S
H2468 C2494 0.950 1_565 S
H2469 C2496 0.950 . S
H2470 C2499 0.950 . S
H2471 C2500 0.950 . S
H2472 C2502 0.950 . S
H2473 C2503 0.950 . S
C2474 H2456 0.951 . S
C2474 C2475 1.366 . S
C2474 C2476 1.388 . S
C2475 C2474 1.366 . S
C2475 C2479 1.385 1_565 S
C2476 H2457 0.951 . S
C2476 C2474 1.388 . S
C2476 C2477 1.366 1_565 S
C2477 C2476 1.366 1_545 S
C2477 C2478 1.414 . S
C2477 C2480 1.499 . S
C2478 H2458 0.950 . S
C2478 C2477 1.414 . S
C2478 C2479 1.374 . S
C2479 H2459 0.950 . S
C2479 C2475 1.385 1_545 S
C2479 C2478 1.374 . S
C2480 C2477 1.499 . S
C2480 C2481 1.373 . S
C2480 C2482 1.389 1_545 S
C2481 H2460 0.950 . S
C2481 C2480 1.373 . S
C2481 C2497 1.377 . S
C2482 C2480 1.389 1_565 S
C2482 C2483 1.524 . S
C2482 C2496 1.377 . S
C2483 C2482 1.524 . S
C2483 C2484 1.397 . S
C2483 C2488 1.363 . S
C2484 H2461 0.950 . S
C2484 C2483 1.397 . S
C2484 C2485 1.334 . S
C2485 H2462 0.950 . S
C2485 C2484 1.334 . S
C2485 C2486 1.287 . S
C2486 C2485 1.287 . S
C2486 C2487 1.524 . S
C2486 H2505 0.913 . S
C2487 H2463 0.950 . S
C2487 C2486 1.524 . S
C2487 C2488 1.415 . S
C2488 H2464 0.950 . S
C2488 C2483 1.363 . S
C2488 C2487 1.415 . S
C2489 H2465 0.951 . S
C2489 C2490 1.366 . S
C2489 C2491 1.388 . S
C2490 C2489 1.366 . S
C2490 C2494 1.385 . S
C2491 H2466 0.951 . S
C2491 C2489 1.388 . S
C2491 C2492 1.366 . S
C2492 C2491 1.366 . S
C2492 C2493 1.414 . S
C2492 C2495 1.499 . S
C2493 H2467 0.950 1_545 S
C2493 C2492 1.414 . S
C2493 C2494 1.374 . S
C2494 H2468 0.950 1_545 S
C2494 C2490 1.385 . S
C2494 C2493 1.374 . S
C2495 C2492 1.499 . S
C2495 C2496 1.373 1_545 S
C2495 C2497 1.389 . S
C2496 H2469 0.950 . S
C2496 C2482 1.377 . S
C2496 C2495 1.373 1_565 S
C2497 C2481 1.377 . S
C2497 C2495 1.389 . S
C2497 C2498 1.524 . S
C2498 C2497 1.524 . S
C2498 C2499 1.397 . S
C2498 C2503 1.363 . S
C2499 H2470 0.950 . S
C2499 C2498 1.397 . S
C2499 C2500 1.334 . S
C2500 H2471 0.950 . S
C2500 C2499 1.334 . S
C2500 C2501 1.287 . S
C2501 C2500 1.287 . S
C2501 C2502 1.524 . S
C2501 H2504 0.999 . S
C2502 H2472 0.950 . S
C2502 C2501 1.524 . S
C2502 C2503 1.415 . S
C2503 H2473 0.950 . S
C2503 C2498 1.363 . S
C2503 C2502 1.415 . S
H2504 C2501 0.999 . S
H2505 C2486 0.913 . S
H2506 C2524 0.951 . S
H2507 C2526 0.951 . S
H2508 C2528 0.950 . S
H2509 C2529 0.950 . S
H2510 C2531 0.950 . S
H2511 C2534 0.950 . S
H2512 C2535 0.950 . S
H2513 C2537 0.950 . S
H2514 C2538 0.950 . S
H2515 C2539 0.951 . S
H2516 C2541 0.951 . S
H2517 C2543 0.950 . S
H2518 C2544 0.950 . S
H2519 C2546 0.950 . S
H2520 C2549 0.950 . S
H2521 C2550 0.950 . S
H2522 C2552 0.950 . S
H2523 C2553 0.950 . S
C2524 H2506 0.951 . S
C2524 C2525 1.366 . S
C2524 C2526 1.388 . S
C2525 C2524 1.366 . S
C2525 C2529 1.385 . S
C2526 H2507 0.951 . S
C2526 C2524 1.388 . S
C2526 C2527 1.366 . S
C2527 C2526 1.366 . S
C2527 C2528 1.414 . S
C2527 C2530 1.499 . S
C2528 H2508 0.950 . S
C2528 C2527 1.414 . S
C2528 C2529 1.374 . S
C2529 H2509 0.950 . S
C2529 C2525 1.385 . S
C2529 C2528 1.374 . S
C2530 C2527 1.499 . S
C2530 C2531 1.373 . S
C2530 C2532 1.389 . S
C2531 H2510 0.950 . S
C2531 C2530 1.373 . S
C2531 C2547 1.377 . S
C2532 C2530 1.389 . S
C2532 C2533 1.524 . S
C2532 C2546 1.377 . S
C2533 C2532 1.524 . S
C2533 C2534 1.397 . S
C2533 C2538 1.363 . S
C2534 H2511 0.950 . S
C2534 C2533 1.397 . S
C2534 C2535 1.334 . S
C2535 H2512 0.950 . S
C2535 C2534 1.334 . S
C2535 C2536 1.287 . S
C2536 C2535 1.287 . S
C2536 C2537 1.524 . S
C2536 H2555 0.913 . S
C2537 H2513 0.950 . S
C2537 C2536 1.524 . S
C2537 C2538 1.415 . S
C2538 H2514 0.950 . S
C2538 C2533 1.363 . S
C2538 C2537 1.415 . S
C2539 H2515 0.951 . S
C2539 C2540 1.366 . S
C2539 C2541 1.388 . S
C2540 C2539 1.366 . S
C2540 C2544 1.385 . S
C2541 H2516 0.951 . S
C2541 C2539 1.388 . S
C2541 C2542 1.366 . S
C2542 C2541 1.366 . S
C2542 C2543 1.414 . S
C2542 C2545 1.499 . S
C2543 H2517 0.950 . S
C2543 C2542 1.414 . S
C2543 C2544 1.374 . S
C2544 H2518 0.950 . S
C2544 C2540 1.385 . S
C2544 C2543 1.374 . S
C2545 C2542 1.499 . S
C2545 C2546 1.373 . S
C2545 C2547 1.389 . S
C2546 H2519 0.950 . S
C2546 C2532 1.377 . S
C2546 C2545 1.373 . S
C2547 C2531 1.377 . S
C2547 C2545 1.389 . S
C2547 C2548 1.524 . S
C2548 C2547 1.524 . S
C2548 C2549 1.397 . S
C2548 C2553 1.363 . S
C2549 H2520 0.950 . S
C2549 C2548 1.397 . S
C2549 C2550 1.334 . S
C2550 H2521 0.950 . S
C2550 C2549 1.334 . S
C2550 C2551 1.287 . S
C2551 C2550 1.287 . S
C2551 C2552 1.524 . S
C2551 H2554 0.999 . S
C2552 H2522 0.950 . S
C2552 C2551 1.524 . S
C2552 C2553 1.415 . S
C2553 H2523 0.950 . S
C2553 C2548 1.363 . S
C2553 C2552 1.415 . S
H2554 C2551 0.999 . S
H2555 C2536 0.913 . S
H2556 C2574 0.951 . S
H2557 C2576 0.951 . S
H2558 C2578 0.950 . S
H2559 C2579 0.950 . S
H2560 C2581 0.950 . S
H2561 C2584 0.950 . S
H2562 C2585 0.950 . S
H2563 C2587 0.950 . S
H2564 C2588 0.950 . S
H2565 C2589 0.967 . S
H2566 C2591 0.942 1_565 S
H2567 C2593 0.950 . S
H2568 C2594 0.950 . S
H2569 C2596 0.950 . S
H2570 C2599 0.950 . S
H2571 C2600 0.950 . S
H2572 C2602 0.950 . S
H2573 C2603 0.950 . S
C2574 H2556 0.951 . S
C2574 C2575 1.366 . S
C2574 C2576 1.388 . S
C2575 C2574 1.366 . S
C2575 C2579 1.385 . S
C2576 H2557 0.951 . S
C2576 C2574 1.388 . S
C2576 C2577 1.366 . S
C2577 C2576 1.366 . S
C2577 C2578 1.414 . S
C2577 C2580 1.499 . S
C2578 H2558 0.950 . S
C2578 C2577 1.414 . S
C2578 C2579 1.374 . S
C2579 H2559 0.950 . S
C2579 C2575 1.385 . S
C2579 C2578 1.374 . S
C2580 C2577 1.499 . S
C2580 C2581 1.373 1_545 S
C2580 C2582 1.389 . S
C2581 H2560 0.950 . S
C2581 C2580 1.373 1_565 S
C2581 C2597 1.377 . S
C2582 C2580 1.389 . S
C2582 C2583 1.524 . S
C2582 C2596 1.377 . S
C2583 C2582 1.524 . S
C2583 C2584 1.397 . S
C2583 C2588 1.363 . S
C2584 H2561 0.950 . S
C2584 C2583 1.397 . S
C2584 C2585 1.334 . S
C2585 H2562 0.950 . S
C2585 C2584 1.334 . S
C2585 C2586 1.287 . S
C2586 C2585 1.287 . S
C2586 C2587 1.524 . S
C2586 H2605 0.913 . S
C2587 H2563 0.950 . S
C2587 C2586 1.524 . S
C2587 C2588 1.415 . S
C2588 H2564 0.950 . S
C2588 C2583 1.363 . S
C2588 C2587 1.415 . S
C2589 H2565 0.967 . S
C2589 C2590 1.355 1_565 S
C2589 C2591 1.385 1_565 S
C2590 C2589 1.355 1_545 S
C2590 C2594 1.385 . S
C2591 H2566 0.942 1_545 S
C2591 C2589 1.385 1_545 S
C2591 C2592 1.377 . S
C2592 C2591 1.377 . S
C2592 C2593 1.414 . S
C2592 C2595 1.499 . S
C2593 H2567 0.950 . S
C2593 C2592 1.414 . S
C2593 C2594 1.374 . S
C2594 H2568 0.950 . S
C2594 C2590 1.385 . S
C2594 C2593 1.374 . S
C2595 C2592 1.499 . S
C2595 C2596 1.373 . S
C2595 C2597 1.389 1_545 S
C2596 H2569 0.950 . S
C2596 C2582 1.377 . S
C2596 C2595 1.373 . S
C2597 C2581 1.377 . S
C2597 C2595 1.389 1_565 S
C2597 C2598 1.524 . S
C2598 C2597 1.524 . S
C2598 C2599 1.397 . S
C2598 C2603 1.363 . S
C2599 H2570 0.950 . S
C2599 C2598 1.397 . S
C2599 C2600 1.334 . S
C2600 H2571 0.950 . S
C2600 C2599 1.334 . S
C2600 C2601 1.287 . S
C2601 C2600 1.287 . S
C2601 C2602 1.524 . S
C2601 H2604 0.999 . S
C2602 H2572 0.950 . S
C2602 C2601 1.524 . S
C2602 C2603 1.415 . S
C2603 H2573 0.950 . S
C2603 C2598 1.363 . S
C2603 C2602 1.415 . S
H2604 C2601 0.999 . S
H2605 C2586 0.913 . S
H2606 C2624 0.951 . S
H2607 C2626 0.951 . S
H2608 C2628 0.950 . S
H2609 C2629 0.950 . S
H2610 C2631 0.950 . S
H2611 C2634 0.950 . S
H2612 C2635 0.950 . S
H2613 C2637 0.950 . S
H2614 C2638 0.950 . S
H2615 C2639 0.951 . S
H2616 C2641 0.951 . S
H2617 C2643 0.950 . S
H2618 C2644 0.950 . S
H2619 C2646 0.950 . S
H2620 C2649 0.950 . S
H2621 C2650 0.950 . S
H2622 C2652 0.950 . S
H2623 C2653 0.950 . S
C2624 H2606 0.951 . S
C2624 C2625 1.366 . S
C2624 C2626 1.388 . S
C2625 C2624 1.366 . S
C2625 C2629 1.385 . S
C2626 H2607 0.951 . S
C2626 C2624 1.388 . S
C2626 C2627 1.366 . S
C2627 C2626 1.366 . S
C2627 C2628 1.414 . S
C2627 C2630 1.499 . S
C2628 H2608 0.950 . S
C2628 C2627 1.414 . S
C2628 C2629 1.374 . S
C2629 H2609 0.950 . S
C2629 C2625 1.385 . S
C2629 C2628 1.374 . S
C2630 C2627 1.499 . S
C2630 C2631 1.373 . S
C2630 C2632 1.389 . S
C2631 H2610 0.950 . S
C2631 C2630 1.373 . S
C2631 C2647 1.377 . S
C2632 C2630 1.389 . S
C2632 C2633 1.524 . S
C2632 C2646 1.377 . S
C2633 C2632 1.524 . S
C2633 C2634 1.397 . S
C2633 C2638 1.363 . S
C2634 H2611 0.950 . S
C2634 C2633 1.397 . S
C2634 C2635 1.334 . S
C2635 H2612 0.950 . S
C2635 C2634 1.334 . S
C2635 C2636 1.287 . S
C2636 C2635 1.287 . S
C2636 C2637 1.524 . S
C2636 H2655 0.913 . S
C2637 H2613 0.950 . S
C2637 C2636 1.524 . S
C2637 C2638 1.415 . S
C2638 H2614 0.950 . S
C2638 C2633 1.363 . S
C2638 C2637 1.415 . S
C2639 H2615 0.951 . S
C2639 C2640 1.366 . S
C2639 C2641 1.388 . S
C2640 C2639 1.366 . S
C2640 C2644 1.385 . S
C2641 H2616 0.951 . S
C2641 C2639 1.388 . S
C2641 C2642 1.366 . S
C2642 C2641 1.366 . S
C2642 C2643 1.414 . S
C2642 C2645 1.499 . S
C2643 H2617 0.950 . S
C2643 C2642 1.414 . S
C2643 C2644 1.374 . S
C2644 H2618 0.950 . S
C2644 C2640 1.385 . S
C2644 C2643 1.374 . S
C2645 C2642 1.499 . S
C2645 C2646 1.373 . S
C2645 C2647 1.389 . S
C2646 H2619 0.950 . S
C2646 C2632 1.377 . S
C2646 C2645 1.373 . S
C2647 C2631 1.377 . S
C2647 C2645 1.389 . S
C2647 C2648 1.524 . S
C2648 C2647 1.524 . S
C2648 C2649 1.397 . S
C2648 C2653 1.363 . S
C2649 H2620 0.950 . S
C2649 C2648 1.397 . S
C2649 C2650 1.334 . S
C2650 H2621 0.950 . S
C2650 C2649 1.334 . S
C2650 C2651 1.287 . S
C2651 C2650 1.287 . S
C2651 C2652 1.524 . S
C2651 H2654 0.999 . S
C2652 H2622 0.950 . S
C2652 C2651 1.524 . S
C2652 C2653 1.415 . S
C2653 H2623 0.950 . S
C2653 C2648 1.363 . S
C2653 C2652 1.415 . S
H2654 C2651 0.999 . S
H2655 C2636 0.913 . S
H2656 C2674 0.951 . S
H2657 C2676 0.951 . S
H2658 C2678 0.950 . S
H2659 C2679 0.950 . S
H2660 C2681 0.950 . S
H2661 C2684 0.950 . S
H2662 C2685 0.950 . S
H2663 C2687 0.950 . S
H2664 C2688 0.950 . S
H2665 C2689 0.951 . S
H2666 C2691 0.951 . S
H2667 C2693 0.950 . S
H2668 C2694 0.950 . S
H2669 C2696 0.950 . S
H2670 C2699 0.950 . S
H2671 C2700 0.950 . S
H2672 C2702 0.950 1_554 S
H2673 C2703 0.950 . S
C2674 H2656 0.951 . S
C2674 C2675 1.366 1_556 S
C2674 C2676 1.388 . S
C2675 C2674 1.366 1_554 S
C2675 C2679 1.385 . S
C2676 H2657 0.951 . S
C2676 C2674 1.388 . S
C2676 C2677 1.358 1_556 S
C2677 C2676 1.358 1_554 S
C2677 C2678 1.422 . S
C2677 C2680 1.499 1_554 S
C2678 H2658 0.950 . S
C2678 C2677 1.422 . S
C2678 C2679 1.374 . S
C2679 H2659 0.950 . S
C2679 C2675 1.385 . S
C2679 C2678 1.374 . S
C2680 C2677 1.499 1_556 S
C2680 C2681 1.372 . S
C2680 C2682 1.388 1_556 S
C2681 H2660 0.950 . S
C2681 C2680 1.372 . S
C2681 C2697 1.377 . S
C2682 C2680 1.388 1_554 S
C2682 C2683 1.530 . S
C2682 C2696 1.375 1_554 S
C2683 C2682 1.530 . S
C2683 C2684 1.397 . S
C2683 C2688 1.363 1_554 S
C2684 H2661 0.950 . S
C2684 C2683 1.397 . S
C2684 C2685 1.334 . S
C2685 H2662 0.950 . S
C2685 C2684 1.334 . S
C2685 C2686 1.287 . S
C2686 C2685 1.287 . S
C2686 C2687 1.524 1_554 S
C2686 H2705 0.913 . S
C2687 H2663 0.950 . S
C2687 C2686 1.524 1_556 S
C2687 C2688 1.415 . S
C2688 H2664 0.950 . S
C2688 C2683 1.363 1_556 S
C2688 C2687 1.415 . S
C2689 H2665 0.951 . S
C2689 C2690 1.366 1_554 S
C2689 C2691 1.388 . S
C2690 C2689 1.366 1_556 S
C2690 C2694 1.385 . S
C2691 H2666 0.951 . S
C2691 C2689 1.388 . S
C2691 C2692 1.366 1_554 S
C2692 C2691 1.366 1_556 S
C2692 C2693 1.414 . S
C2692 C2695 1.499 . S
C2693 H2667 0.950 . S
C2693 C2692 1.414 . S
C2693 C2694 1.374 . S
C2694 H2668 0.950 . S
C2694 C2690 1.385 . S
C2694 C2693 1.374 . S
C2695 C2692 1.499 . S
C2695 C2696 1.373 . S
C2695 C2697 1.389 . S
C2696 H2669 0.950 . S
C2696 C2682 1.375 1_556 S
C2696 C2695 1.373 . S
C2697 C2681 1.377 . S
C2697 C2695 1.389 . S
C2697 C2698 1.524 . S
C2698 C2697 1.524 . S
C2698 C2699 1.397 . S
C2698 C2703 1.363 1_556 S
C2699 H2670 0.950 . S
C2699 C2698 1.397 . S
C2699 C2700 1.334 . S
C2700 H2671 0.950 . S
C2700 C2699 1.334 . S
C2700 C2701 1.287 . S
C2701 C2700 1.287 . S
C2701 C2702 1.524 . S
C2701 H2704 0.999 . S
C2702 H2672 0.950 1_556 S
C2702 C2701 1.524 . S
C2702 C2703 1.415 1_556 S
C2703 H2673 0.950 . S
C2703 C2698 1.363 1_554 S
C2703 C2702 1.415 1_554 S
H2704 C2701 0.999 . S
H2705 C2686 0.913 . S
H2706 C2724 0.951 . S
H2707 C2726 0.951 . S
H2708 C2728 0.950 . S
H2709 C2729 0.950 . S
H2710 C2731 0.950 . S
H2711 C2734 0.950 . S
H2712 C2735 0.950 . S
H2713 C2737 0.950 . S
H2714 C2738 0.950 1_554 S
H2715 C2739 0.951 . S
H2716 C2741 0.951 . S
H2717 C2743 0.950 . S
H2718 C2744 0.950 . S
H2719 C2746 0.953 . S
H2720 C2749 0.950 . S
H2721 C2750 0.950 . S
H2722 C2752 0.950 . S
H2723 C2753 0.950 . S
C2724 H2706 0.951 . S
C2724 C2725 1.366 . S
C2724 C2726 1.388 . S
C2725 C2724 1.366 . S
C2725 C2729 1.385 . S
C2726 H2707 0.951 . S
C2726 C2724 1.388 . S
C2726 C2727 1.366 . S
C2727 C2726 1.366 . S
C2727 C2728 1.414 . S
C2727 C2730 1.499 . S
C2728 H2708 0.950 . S
C2728 C2727 1.414 . S
C2728 C2729 1.374 . S
C2729 H2709 0.950 . S
C2729 C2725 1.385 . S
C2729 C2728 1.374 . S
C2730 C2727 1.499 . S
C2730 C2731 1.373 . S
C2730 C2732 1.389 . S
C2731 H2710 0.950 . S
C2731 C2730 1.373 . S
C2731 C2747 1.377 . S
C2732 C2730 1.389 . S
C2732 C2733 1.524 1_554 S
C2732 C2746 1.377 . S
C2733 C2732 1.524 1_556 S
C2733 C2734 1.397 . S
C2733 C2738 1.363 . S
C2734 H2711 0.950 . S
C2734 C2733 1.397 . S
C2734 C2735 1.334 . S
C2735 H2712 0.950 . S
C2735 C2734 1.334 . S
C2735 C2736 1.287 . S
C2736 C2735 1.287 . S
C2736 C2737 1.524 . S
C2736 H2755 0.913 . S
C2737 H2713 0.950 . S
C2737 C2736 1.524 . S
C2737 C2738 1.415 . S
C2738 H2714 0.950 1_556 S
C2738 C2733 1.363 . S
C2738 C2737 1.415 . S
C2739 H2715 0.951 . S
C2739 C2740 1.366 . S
C2739 C2741 1.388 . S
C2740 C2739 1.366 . S
C2740 C2744 1.385 . S
C2741 H2716 0.951 . S
C2741 C2739 1.388 . S
C2741 C2742 1.366 . S
C2742 C2741 1.366 . S
C2742 C2743 1.414 . S
C2742 C2745 1.499 . S
C2743 H2717 0.950 . S
C2743 C2742 1.414 . S
C2743 C2744 1.374 . S
C2744 H2718 0.950 . S
C2744 C2740 1.385 . S
C2744 C2743 1.374 . S
C2745 C2742 1.499 . S
C2745 C2746 1.373 . S
C2745 C2747 1.389 . S
C2746 H2719 0.953 . S
C2746 C2732 1.377 . S
C2746 C2745 1.373 . S
C2747 C2731 1.377 . S
C2747 C2745 1.389 . S
C2747 C2748 1.524 . S
C2748 C2747 1.524 . S
C2748 C2749 1.397 . S
C2748 C2753 1.363 . S
C2749 H2720 0.950 . S
C2749 C2748 1.397 . S
C2749 C2750 1.334 . S
C2750 H2721 0.950 . S
C2750 C2749 1.334 . S
C2750 C2751 1.287 . S
C2751 C2750 1.287 . S
C2751 C2752 1.524 . S
C2751 H2754 0.999 . S
C2752 H2722 0.950 . S
C2752 C2751 1.524 . S
C2752 C2753 1.415 . S
C2753 H2723 0.950 . S
C2753 C2748 1.363 . S
C2753 C2752 1.415 . S
H2754 C2751 0.999 . S
H2755 C2736 0.913 . S
H2756 C2774 0.951 . S
H2757 C2776 0.951 . S
H2758 C2778 0.950 . S
H2759 C2779 0.950 . S
H2760 C2781 0.950 . S
H2761 C2784 0.950 . S
H2762 C2785 0.950 . S
H2763 C2787 0.950 . S
H2764 C2788 0.950 . S
H2765 C2789 0.951 . S
H2766 C2791 0.951 . S
H2767 C2793 0.950 . S
H2768 C2794 0.950 . S
H2769 C2796 0.950 . S
H2770 C2799 0.950 . S
H2771 C2800 0.950 . S
H2772 C2802 0.950 . S
H2773 C2803 0.950 . S
C2774 H2756 0.951 . S
C2774 C2775 1.366 . S
C2774 C2776 1.388 . S
C2775 C2774 1.366 . S
C2775 C2779 1.385 . S
C2776 H2757 0.951 . S
C2776 C2774 1.388 . S
C2776 C2777 1.366 . S
C2777 C2776 1.366 . S
C2777 C2778 1.414 . S
C2777 C2780 1.499 . S
C2778 H2758 0.950 . S
C2778 C2777 1.414 . S
C2778 C2779 1.374 . S
C2779 H2759 0.950 . S
C2779 C2775 1.385 . S
C2779 C2778 1.374 . S
C2780 C2777 1.499 . S
C2780 C2781 1.373 . S
C2780 C2782 1.389 . S
C2781 H2760 0.950 . S
C2781 C2780 1.373 . S
C2781 C2797 1.377 . S
C2782 C2780 1.389 . S
C2782 C2783 1.524 . S
C2782 C2796 1.377 . S
C2783 C2782 1.524 . S
C2783 C2784 1.397 . S
C2783 C2788 1.363 . S
C2784 H2761 0.950 . S
C2784 C2783 1.397 . S
C2784 C2785 1.334 . S
C2785 H2762 0.950 . S
C2785 C2784 1.334 . S
C2785 C2786 1.287 . S
C2786 C2785 1.287 . S
C2786 C2787 1.524 . S
C2786 H2805 0.913 . S
C2787 H2763 0.950 . S
C2787 C2786 1.524 . S
C2787 C2788 1.415 . S
C2788 H2764 0.950 . S
C2788 C2783 1.363 . S
C2788 C2787 1.415 . S
C2789 H2765 0.951 . S
C2789 C2790 1.366 . S
C2789 C2791 1.388 . S
C2790 C2789 1.366 . S
C2790 C2794 1.385 . S
C2791 H2766 0.951 . S
C2791 C2789 1.388 . S
C2791 C2792 1.366 . S
C2792 C2791 1.366 . S
C2792 C2793 1.414 . S
C2792 C2795 1.499 . S
C2793 H2767 0.950 . S
C2793 C2792 1.414 . S
C2793 C2794 1.374 . S
C2794 H2768 0.950 . S
C2794 C2790 1.385 . S
C2794 C2793 1.374 . S
C2795 C2792 1.499 . S
C2795 C2796 1.373 . S
C2795 C2797 1.389 . S
C2796 H2769 0.950 . S
C2796 C2782 1.377 . S
C2796 C2795 1.373 . S
C2797 C2781 1.377 . S
C2797 C2795 1.389 . S
C2797 C2798 1.524 . S
C2798 C2797 1.524 . S
C2798 C2799 1.397 . S
C2798 C2803 1.363 . S
C2799 H2770 0.950 . S
C2799 C2798 1.397 . S
C2799 C2800 1.334 . S
C2800 H2771 0.950 . S
C2800 C2799 1.334 . S
C2800 C2801 1.287 . S
C2801 C2800 1.287 . S
C2801 C2802 1.524 . S
C2801 H2804 0.999 . S
C2802 H2772 0.950 . S
C2802 C2801 1.524 . S
C2802 C2803 1.415 . S
C2803 H2773 0.950 . S
C2803 C2798 1.363 . S
C2803 C2802 1.415 . S
H2804 C2801 0.999 . S
H2805 C2786 0.913 . S
H2806 C2824 0.951 . S
H2807 C2826 0.951 . S
H2808 C2828 0.950 . S
H2809 C2829 0.950 . S
H2810 C2831 0.950 . S
H2811 C2834 0.950 . S
H2812 C2835 0.950 . S
H2813 C2837 0.950 . S
H2814 C2838 0.950 . S
H2815 C2839 0.951 . S
H2816 C2841 0.951 . S
H2817 C2843 0.950 . S
H2818 C2844 0.950 . S
H2819 C2846 0.950 . S
H2820 C2849 0.950 . S
H2821 C2850 0.950 . S
H2822 C2852 0.950 . S
H2823 C2853 0.950 . S
C2824 H2806 0.951 . S
C2824 C2825 1.366 . S
C2824 C2826 1.388 . S
C2825 C2824 1.366 . S
C2825 C2829 1.385 . S
C2826 H2807 0.951 . S
C2826 C2824 1.388 . S
C2826 C2827 1.366 . S
C2827 C2826 1.366 . S
C2827 C2828 1.414 . S
C2827 C2830 1.499 . S
C2828 H2808 0.950 . S
C2828 C2827 1.414 . S
C2828 C2829 1.374 . S
C2829 H2809 0.950 . S
C2829 C2825 1.385 . S
C2829 C2828 1.374 . S
C2830 C2827 1.499 . S
C2830 C2831 1.373 . S
C2830 C2832 1.389 . S
C2831 H2810 0.950 . S
C2831 C2830 1.373 . S
C2831 C2847 1.377 . S
C2832 C2830 1.389 . S
C2832 C2833 1.524 . S
C2832 C2846 1.377 . S
C2833 C2832 1.524 . S
C2833 C2834 1.397 . S
C2833 C2838 1.363 . S
C2834 H2811 0.950 . S
C2834 C2833 1.397 . S
C2834 C2835 1.334 . S
C2835 H2812 0.950 . S
C2835 C2834 1.334 . S
C2835 C2836 1.287 . S
C2836 C2835 1.287 . S
C2836 C2837 1.524 . S
C2836 H2855 0.913 . S
C2837 H2813 0.950 . S
C2837 C2836 1.524 . S
C2837 C2838 1.415 . S
C2838 H2814 0.950 . S
C2838 C2833 1.363 . S
C2838 C2837 1.415 . S
C2839 H2815 0.951 . S
C2839 C2840 1.366 . S
C2839 C2841 1.388 . S
C2840 C2839 1.366 . S
C2840 C2844 1.385 . S
C2841 H2816 0.951 . S
C2841 C2839 1.388 . S
C2841 C2842 1.366 . S
C2842 C2841 1.366 . S
C2842 C2843 1.414 . S
C2842 C2845 1.499 . S
C2843 H2817 0.950 . S
C2843 C2842 1.414 . S
C2843 C2844 1.374 . S
C2844 H2818 0.950 . S
C2844 C2840 1.385 . S
C2844 C2843 1.374 . S
C2845 C2842 1.499 . S
C2845 C2846 1.373 . S
C2845 C2847 1.389 . S
C2846 H2819 0.950 . S
C2846 C2832 1.377 . S
C2846 C2845 1.373 . S
C2847 C2831 1.377 . S
C2847 C2845 1.389 . S
C2847 C2848 1.524 . S
C2848 C2847 1.524 . S
C2848 C2849 1.397 . S
C2848 C2853 1.363 . S
C2849 H2820 0.950 . S
C2849 C2848 1.397 . S
C2849 C2850 1.334 . S
C2850 H2821 0.950 . S
C2850 C2849 1.334 . S
C2850 C2851 1.287 . S
C2851 C2850 1.287 . S
C2851 C2852 1.524 . S
C2851 H2854 0.999 . S
C2852 H2822 0.950 . S
C2852 C2851 1.524 . S
C2852 C2853 1.415 . S
C2853 H2823 0.950 . S
C2853 C2848 1.363 . S
C2853 C2852 1.415 . S
H2854 C2851 0.999 . S
H2855 C2836 0.913 . S
H2856 C2874 0.951 . S
H2857 C2876 0.951 . S
H2858 C2878 0.950 . S
H2859 C2879 0.950 . S
H2860 C2881 0.950 . S
H2861 C2884 0.950 . S
H2862 C2885 0.950 . S
H2863 C2887 0.950 . S
H2864 C2888 0.950 . S
H2865 C2889 0.951 . S
H2866 C2891 0.951 . S
H2867 C2893 0.950 . S
H2868 C2894 0.950 . S
H2869 C2896 0.950 . S
H2870 C2899 0.950 . S
H2871 C2900 0.950 . S
H2872 C2902 0.950 . S
H2873 C2903 0.950 . S
C2874 H2856 0.951 . S
C2874 C2875 1.366 . S
C2874 C2876 1.388 . S
C2875 C2874 1.366 . S
C2875 C2879 1.385 . S
C2876 H2857 0.951 . S
C2876 C2874 1.388 . S
C2876 C2877 1.366 . S
C2877 C2876 1.366 . S
C2877 C2878 1.414 . S
C2877 C2880 1.499 . S
C2878 H2858 0.950 . S
C2878 C2877 1.414 . S
C2878 C2879 1.374 . S
C2879 H2859 0.950 . S
C2879 C2875 1.385 . S
C2879 C2878 1.374 . S
C2880 C2877 1.499 . S
C2880 C2881 1.373 . S
C2880 C2882 1.389 . S
C2881 H2860 0.950 . S
C2881 C2880 1.373 . S
C2881 C2897 1.377 . S
C2882 C2880 1.389 . S
C2882 C2883 1.524 . S
C2882 C2896 1.377 . S
C2883 C2882 1.524 . S
C2883 C2884 1.397 . S
C2883 C2888 1.363 . S
C2884 H2861 0.950 . S
C2884 C2883 1.397 . S
C2884 C2885 1.334 . S
C2885 H2862 0.950 . S
C2885 C2884 1.334 . S
C2885 C2886 1.287 . S
C2886 C2885 1.287 . S
C2886 C2887 1.524 . S
C2886 H2905 0.913 . S
C2887 H2863 0.950 . S
C2887 C2886 1.524 . S
C2887 C2888 1.415 . S
C2888 H2864 0.950 . S
C2888 C2883 1.363 . S
C2888 C2887 1.415 . S
C2889 H2865 0.951 . S
C2889 C2890 1.366 . S
C2889 C2891 1.388 . S
C2890 C2889 1.366 . S
C2890 C2894 1.385 . S
C2891 H2866 0.951 . S
C2891 C2889 1.388 . S
C2891 C2892 1.366 . S
C2892 C2891 1.366 . S
C2892 C2893 1.414 . S
C2892 C2895 1.499 . S
C2893 H2867 0.950 . S
C2893 C2892 1.414 . S
C2893 C2894 1.374 . S
C2894 H2868 0.950 . S
C2894 C2890 1.385 . S
C2894 C2893 1.374 . S
C2895 C2892 1.499 . S
C2895 C2896 1.373 . S
C2895 C2897 1.389 . S
C2896 H2869 0.950 . S
C2896 C2882 1.377 . S
C2896 C2895 1.373 . S
C2897 C2881 1.377 . S
C2897 C2895 1.389 . S
C2897 C2898 1.524 . S
C2898 C2897 1.524 . S
C2898 C2899 1.397 . S
C2898 C2903 1.363 . S
C2899 H2870 0.950 . S
C2899 C2898 1.397 . S
C2899 C2900 1.334 . S
C2900 H2871 0.950 . S
C2900 C2899 1.334 . S
C2900 C2901 1.287 . S
C2901 C2900 1.287 . S
C2901 C2902 1.524 . S
C2901 H2904 0.999 . S
C2902 H2872 0.950 . S
C2902 C2901 1.524 . S
C2902 C2903 1.415 . S
C2903 H2873 0.950 . S
C2903 C2898 1.363 . S
C2903 C2902 1.415 . S
H2904 C2901 0.999 . S
H2905 C2886 0.913 . S
H2906 C2924 0.951 . S
H2907 C2926 0.951 . S
H2908 C2928 0.950 . S
H2909 C2929 0.950 . S
H2910 C2931 0.950 . S
H2911 C2934 0.950 . S
H2912 C2935 0.950 . S
H2913 C2937 0.950 . S
H2914 C2938 0.950 . S
H2915 C2939 0.951 . S
H2916 C2941 0.951 . S
H2917 C2943 0.950 . S
H2918 C2944 0.950 1_545 S
H2919 C2946 0.950 . S
H2920 C2949 0.950 . S
H2921 C2950 0.950 1_545 S
H2922 C2952 0.950 . S
H2923 C2953 0.950 . S
C2924 H2906 0.951 . S
C2924 C2925 1.366 . S
C2924 C2926 1.388 . S
C2925 C2924 1.366 . S
C2925 C2929 1.385 . S
C2926 H2907 0.951 . S
C2926 C2924 1.388 . S
C2926 C2927 1.366 . S
C2927 C2926 1.366 . S
C2927 C2928 1.414 . S
C2927 C2930 1.499 . S
C2928 H2908 0.950 . S
C2928 C2927 1.414 . S
C2928 C2929 1.374 . S
C2929 H2909 0.950 . S
C2929 C2925 1.385 . S
C2929 C2928 1.374 . S
C2930 C2927 1.499 . S
C2930 C2931 1.373 . S
C2930 C2932 1.389 . S
C2931 H2910 0.950 . S
C2931 C2930 1.373 . S
C2931 C2947 1.377 . S
C2932 C2930 1.389 . S
C2932 C2933 1.524 . S
C2932 C2946 1.377 . S
C2933 C2932 1.524 . S
C2933 C2934 1.397 . S
C2933 C2938 1.363 . S
C2934 H2911 0.950 . S
C2934 C2933 1.397 . S
C2934 C2935 1.334 . S
C2935 H2912 0.950 . S
C2935 C2934 1.334 . S
C2935 C2936 1.287 . S
C2936 C2935 1.287 . S
C2936 C2937 1.524 . S
C2936 H2955 0.913 . S
C2937 H2913 0.950 . S
C2937 C2936 1.524 . S
C2937 C2938 1.415 . S
C2938 H2914 0.950 . S
C2938 C2933 1.363 . S
C2938 C2937 1.415 . S
C2939 H2915 0.951 . S
C2939 C2940 1.366 . S
C2939 C2941 1.388 . S
C2940 C2939 1.366 . S
C2940 C2944 1.385 . S
C2941 H2916 0.951 . S
C2941 C2939 1.388 . S
C2941 C2942 1.366 . S
C2942 C2941 1.366 . S
C2942 C2943 1.414 . S
C2942 C2945 1.499 . S
C2943 H2917 0.950 . S
C2943 C2942 1.414 . S
C2943 C2944 1.374 . S
C2944 H2918 0.950 1_565 S
C2944 C2940 1.385 . S
C2944 C2943 1.374 . S
C2945 C2942 1.499 . S
C2945 C2946 1.373 . S
C2945 C2947 1.389 . S
C2946 H2919 0.950 . S
C2946 C2932 1.377 . S
C2946 C2945 1.373 . S
C2947 C2931 1.377 . S
C2947 C2945 1.389 . S
C2947 C2948 1.524 . S
C2948 C2947 1.524 . S
C2948 C2949 1.397 . S
C2948 C2953 1.363 . S
C2949 H2920 0.950 . S
C2949 C2948 1.397 . S
C2949 C2950 1.334 . S
C2950 H2921 0.950 1_565 S
C2950 C2949 1.334 . S
C2950 C2951 1.287 . S
C2951 C2950 1.287 . S
C2951 C2952 1.524 . S
C2951 H2954 0.999 . S
C2952 H2922 0.950 . S
C2952 C2951 1.524 . S
C2952 C2953 1.415 . S
C2953 H2923 0.950 . S
C2953 C2948 1.363 . S
C2953 C2952 1.415 . S
H2954 C2951 0.999 . S
H2955 C2936 0.913 . S
H2956 C2974 0.951 . S
H2957 C2976 0.951 . S
H2958 C2978 0.950 . S
H2959 C2979 0.950 . S
H2960 C2981 0.950 . S
H2961 C2984 0.950 . S
H2962 C2985 0.950 . S
H2963 C2987 0.950 . S
H2964 C2988 0.950 . S
H2965 C2989 0.951 . S
H2966 C2991 0.951 . S
H2967 C2993 0.950 . S
H2968 C2994 0.950 . S
H2969 C2996 0.950 . S
H2970 C2999 0.950 . S
H2971 C3000 0.950 . S
H2972 C3002 0.950 . S
H2973 C3003 0.950 . S
C2974 H2956 0.951 . S
C2974 C2975 1.366 . S
C2974 C2976 1.388 . S
C2975 C2974 1.366 . S
C2975 C2979 1.385 . S
C2976 H2957 0.951 . S
C2976 C2974 1.388 . S
C2976 C2977 1.366 . S
C2977 C2976 1.366 . S
C2977 C2978 1.414 . S
C2977 C2980 1.499 . S
C2978 H2958 0.950 . S
C2978 C2977 1.414 . S
C2978 C2979 1.374 . S
C2979 H2959 0.950 . S
C2979 C2975 1.385 . S
C2979 C2978 1.374 . S
C2980 C2977 1.499 . S
C2980 C2981 1.373 . S
C2980 C2982 1.389 . S
C2981 H2960 0.950 . S
C2981 C2980 1.373 . S
C2981 C2997 1.377 . S
C2982 C2980 1.389 . S
C2982 C2983 1.524 . S
C2982 C2996 1.377 . S
C2983 C2982 1.524 . S
C2983 C2984 1.397 . S
C2983 C2988 1.363 . S
C2984 H2961 0.950 . S
C2984 C2983 1.397 . S
C2984 C2985 1.334 . S
C2985 H2962 0.950 . S
C2985 C2984 1.334 . S
C2985 C2986 1.287 . S
C2986 C2985 1.287 . S
C2986 C2987 1.524 . S
C2986 H3005 0.913 . S
C2987 H2963 0.950 . S
C2987 C2986 1.524 . S
C2987 C2988 1.415 . S
C2988 H2964 0.950 . S
C2988 C2983 1.363 . S
C2988 C2987 1.415 . S
C2989 H2965 0.951 . S
C2989 C2990 1.366 . S
C2989 C2991 1.388 . S
C2990 C2989 1.366 . S
C2990 C2994 1.385 . S
C2991 H2966 0.951 . S
C2991 C2989 1.388 . S
C2991 C2992 1.366 . S
C2992 C2991 1.366 . S
C2992 C2993 1.414 . S
C2992 C2995 1.499 . S
C2993 H2967 0.950 . S
C2993 C2992 1.414 . S
C2993 C2994 1.374 . S
C2994 H2968 0.950 . S
C2994 C2990 1.385 . S
C2994 C2993 1.374 . S
C2995 C2992 1.499 . S
C2995 C2996 1.373 . S
C2995 C2997 1.389 . S
C2996 H2969 0.950 . S
C2996 C2982 1.377 . S
C2996 C2995 1.373 . S
C2997 C2981 1.377 . S
C2997 C2995 1.389 . S
C2997 C2998 1.524 . S
C2998 C2997 1.524 . S
C2998 C2999 1.397 . S
C2998 C3003 1.363 . S
C2999 H2970 0.950 . S
C2999 C2998 1.397 . S
C2999 C3000 1.334 . S
C3000 H2971 0.950 . S
C3000 C2999 1.334 . S
C3000 C3001 1.287 . S
C3001 C3000 1.287 . S
C3001 C3002 1.524 . S
C3001 H3004 0.999 . S
C3002 H2972 0.950 . S
C3002 C3001 1.524 . S
C3002 C3003 1.415 . S
C3003 H2973 0.950 . S
C3003 C2998 1.363 . S
C3003 C3002 1.415 . S
H3004 C3001 0.999 . S
H3005 C2986 0.913 . S
H3006 C3024 0.951 . S
H3007 C3026 0.951 . S
H3008 C3028 0.950 . S
H3009 C3029 0.950 . S
H3010 C3031 0.950 . S
H3011 C3034 0.950 . S
H3012 C3035 0.950 . S
H3013 C3037 0.950 . S
H3014 C3038 0.950 . S
H3015 C3039 0.951 . S
H3016 C3041 0.951 . S
H3017 C3043 0.950 . S
H3018 C3044 0.950 . S
H3019 C3046 0.950 . S
H3020 C3049 0.950 . S
H3021 C3050 0.950 . S
H3022 C3052 0.950 . S
H3023 C3053 0.950 . S
C3024 H3006 0.951 . S
C3024 C3025 1.366 . S
C3024 C3026 1.388 . S
C3025 C3024 1.366 . S
C3025 C3029 1.385 . S
C3026 H3007 0.951 . S
C3026 C3024 1.388 . S
C3026 C3027 1.366 . S
C3027 C3026 1.366 . S
C3027 C3028 1.414 . S
C3027 C3030 1.499 . S
C3028 H3008 0.950 . S
C3028 C3027 1.414 . S
C3028 C3029 1.374 . S
C3029 H3009 0.950 . S
C3029 C3025 1.385 . S
C3029 C3028 1.374 . S
C3030 C3027 1.499 . S
C3030 C3031 1.373 . S
C3030 C3032 1.389 . S
C3031 H3010 0.950 . S
C3031 C3030 1.373 . S
C3031 C3047 1.377 . S
C3032 C3030 1.389 . S
C3032 C3033 1.524 . S
C3032 C3046 1.377 . S
C3033 C3032 1.524 . S
C3033 C3034 1.397 . S
C3033 C3038 1.363 . S
C3034 H3011 0.950 . S
C3034 C3033 1.397 . S
C3034 C3035 1.334 . S
C3035 H3012 0.950 . S
C3035 C3034 1.334 . S
C3035 C3036 1.287 . S
C3036 C3035 1.287 . S
C3036 C3037 1.524 . S
C3036 H3055 0.913 . S
C3037 H3013 0.950 . S
C3037 C3036 1.524 . S
C3037 C3038 1.415 . S
C3038 H3014 0.950 . S
C3038 C3033 1.363 . S
C3038 C3037 1.415 . S
C3039 H3015 0.951 . S
C3039 C3040 1.366 . S
C3039 C3041 1.388 . S
C3040 C3039 1.366 . S
C3040 C3044 1.385 . S
C3041 H3016 0.951 . S
C3041 C3039 1.388 . S
C3041 C3042 1.366 . S
C3042 C3041 1.366 . S
C3042 C3043 1.414 . S
C3042 C3045 1.499 . S
C3043 H3017 0.950 . S
C3043 C3042 1.414 . S
C3043 C3044 1.374 . S
C3044 H3018 0.950 . S
C3044 C3040 1.385 . S
C3044 C3043 1.374 . S
C3045 C3042 1.499 . S
C3045 C3046 1.373 . S
C3045 C3047 1.389 . S
C3046 H3019 0.950 . S
C3046 C3032 1.377 . S
C3046 C3045 1.373 . S
C3047 C3031 1.377 . S
C3047 C3045 1.389 . S
C3047 C3048 1.524 . S
C3048 C3047 1.524 . S
C3048 C3049 1.397 . S
C3048 C3053 1.363 . S
C3049 H3020 0.950 . S
C3049 C3048 1.397 . S
C3049 C3050 1.334 . S
C3050 H3021 0.950 . S
C3050 C3049 1.334 . S
C3050 C3051 1.287 . S
C3051 C3050 1.287 . S
C3051 C3052 1.524 . S
C3051 H3054 0.999 . S
C3052 H3022 0.950 . S
C3052 C3051 1.524 . S
C3052 C3053 1.415 . S
C3053 H3023 0.950 . S
C3053 C3048 1.363 . S
C3053 C3052 1.415 . S
H3054 C3051 0.999 . S
H3055 C3036 0.913 . S
H3056 C3074 0.951 . S
H3057 C3076 0.951 . S
H3058 C3078 0.950 . S
H3059 C3079 0.950 . S
H3060 C3081 0.950 . S
H3061 C3084 0.950 . S
H3062 C3085 0.950 . S
H3063 C3087 0.950 . S
H3064 C3088 0.950 . S
H3065 C3089 0.951 . S
H3066 C3091 0.951 . S
H3067 C3093 0.950 . S
H3068 C3094 0.950 . S
H3069 C3096 0.950 . S
H3070 C3099 0.950 . S
H3071 C3100 0.950 . S
H3072 C3102 0.950 . S
H3073 C3103 0.950 . S
C3074 H3056 0.951 . S
C3074 C3075 1.366 . S
C3074 C3076 1.388 . S
C3075 C3074 1.366 . S
C3075 C3079 1.385 . S
C3076 H3057 0.951 . S
C3076 C3074 1.388 . S
C3076 C3077 1.366 . S
C3077 C3076 1.366 . S
C3077 C3078 1.414 . S
C3077 C3080 1.499 . S
C3078 H3058 0.950 . S
C3078 C3077 1.414 . S
C3078 C3079 1.374 . S
C3079 H3059 0.950 . S
C3079 C3075 1.385 . S
C3079 C3078 1.374 . S
C3080 C3077 1.499 . S
C3080 C3081 1.373 . S
C3080 C3082 1.389 . S
C3081 H3060 0.950 . S
C3081 C3080 1.373 . S
C3081 C3097 1.377 . S
C3082 C3080 1.389 . S
C3082 C3083 1.524 . S
C3082 C3096 1.377 . S
C3083 C3082 1.524 . S
C3083 C3084 1.397 . S
C3083 C3088 1.363 . S
C3084 H3061 0.950 . S
C3084 C3083 1.397 . S
C3084 C3085 1.334 . S
C3085 H3062 0.950 . S
C3085 C3084 1.334 . S
C3085 C3086 1.287 . S
C3086 C3085 1.287 . S
C3086 C3087 1.524 . S
C3086 H3105 0.913 . S
C3087 H3063 0.950 . S
C3087 C3086 1.524 . S
C3087 C3088 1.415 . S
C3088 H3064 0.950 . S
C3088 C3083 1.363 . S
C3088 C3087 1.415 . S
C3089 H3065 0.951 . S
C3089 C3090 1.366 . S
C3089 C3091 1.388 . S
C3090 C3089 1.366 . S
C3090 C3094 1.385 . S
C3091 H3066 0.951 . S
C3091 C3089 1.388 . S
C3091 C3092 1.366 . S
C3092 C3091 1.366 . S
C3092 C3093 1.414 . S
C3092 C3095 1.499 . S
C3093 H3067 0.950 . S
C3093 C3092 1.414 . S
C3093 C3094 1.374 . S
C3094 H3068 0.950 . S
C3094 C3090 1.385 . S
C3094 C3093 1.374 . S
C3095 C3092 1.499 . S
C3095 C3096 1.373 . S
C3095 C3097 1.389 . S
C3096 H3069 0.950 . S
C3096 C3082 1.377 . S
C3096 C3095 1.373 . S
C3097 C3081 1.377 . S
C3097 C3095 1.389 . S
C3097 C3098 1.524 . S
C3098 C3097 1.524 . S
C3098 C3099 1.397 . S
C3098 C3103 1.363 . S
C3099 H3070 0.950 . S
C3099 C3098 1.397 . S
C3099 C3100 1.334 . S
C3100 H3071 0.950 . S
C3100 C3099 1.334 . S
C3100 C3101 1.287 . S
C3101 C3100 1.287 . S
C3101 C3102 1.524 . S
C3101 H3104 0.999 . S
C3102 H3072 0.950 . S
C3102 C3101 1.524 . S
C3102 C3103 1.415 . S
C3103 H3073 0.950 . S
C3103 C3098 1.363 . S
C3103 C3102 1.415 . S
H3104 C3101 0.999 . S
H3105 C3086 0.913 . S
H3106 C3124 0.951 . S
H3107 C3126 0.951 . S
H3108 C3128 0.950 . S
H3109 C3129 0.950 . S
H3110 C3131 0.950 . S
H3111 C3134 0.950 . S
H3112 C3135 0.950 . S
H3113 C3137 0.950 . S
H3114 C3138 0.950 . S
H3115 C3139 0.951 . S
H3116 C3141 0.951 . S
H3117 C3143 0.950 . S
H3118 C3144 0.950 . S
H3119 C3146 0.950 . S
H3120 C3149 0.950 . S
H3121 C3150 0.950 . S
H3122 C3152 0.950 . S
H3123 C3153 0.950 . S
C3124 H3106 0.951 . S
C3124 C3125 1.366 . S
C3124 C3126 1.388 . S
C3125 C3124 1.366 . S
C3125 C3129 1.385 . S
C3126 H3107 0.951 . S
C3126 C3124 1.388 . S
C3126 C3127 1.366 . S
C3127 C3126 1.366 . S
C3127 C3128 1.414 . S
C3127 C3130 1.499 . S
C3128 H3108 0.950 . S
C3128 C3127 1.414 . S
C3128 C3129 1.374 . S
C3129 H3109 0.950 . S
C3129 C3125 1.385 . S
C3129 C3128 1.374 . S
C3130 C3127 1.499 . S
C3130 C3131 1.373 . S
C3130 C3132 1.389 . S
C3131 H3110 0.950 . S
C3131 C3130 1.373 . S
C3131 C3147 1.377 . S
C3132 C3130 1.389 . S
C3132 C3133 1.524 . S
C3132 C3146 1.377 . S
C3133 C3132 1.524 . S
C3133 C3134 1.397 . S
C3133 C3138 1.363 . S
C3134 H3111 0.950 . S
C3134 C3133 1.397 . S
C3134 C3135 1.334 . S
C3135 H3112 0.950 . S
C3135 C3134 1.334 . S
C3135 C3136 1.287 . S
C3136 C3135 1.287 . S
C3136 C3137 1.524 . S
C3136 H3155 0.913 . S
C3137 H3113 0.950 . S
C3137 C3136 1.524 . S
C3137 C3138 1.415 . S
C3138 H3114 0.950 . S
C3138 C3133 1.363 . S
C3138 C3137 1.415 . S
C3139 H3115 0.951 . S
C3139 C3140 1.366 . S
C3139 C3141 1.388 . S
C3140 C3139 1.366 . S
C3140 C3144 1.385 . S
C3141 H3116 0.951 . S
C3141 C3139 1.388 . S
C3141 C3142 1.366 . S
C3142 C3141 1.366 . S
C3142 C3143 1.414 . S
C3142 C3145 1.499 . S
C3143 H3117 0.950 . S
C3143 C3142 1.414 . S
C3143 C3144 1.374 . S
C3144 H3118 0.950 . S
C3144 C3140 1.385 . S
C3144 C3143 1.374 . S
C3145 C3142 1.499 . S
C3145 C3146 1.373 . S
C3145 C3147 1.389 . S
C3146 H3119 0.950 . S
C3146 C3132 1.377 . S
C3146 C3145 1.373 . S
C3147 C3131 1.377 . S
C3147 C3145 1.389 . S
C3147 C3148 1.524 . S
C3148 C3147 1.524 . S
C3148 C3149 1.397 . S
C3148 C3153 1.363 . S
C3149 H3120 0.950 . S
C3149 C3148 1.397 . S
C3149 C3150 1.334 . S
C3150 H3121 0.950 . S
C3150 C3149 1.334 . S
C3150 C3151 1.287 . S
C3151 C3150 1.287 . S
C3151 C3152 1.524 . S
C3151 H3154 0.999 . S
C3152 H3122 0.950 . S
C3152 C3151 1.524 . S
C3152 C3153 1.415 . S
C3153 H3123 0.950 . S
C3153 C3148 1.363 . S
C3153 C3152 1.415 . S
H3154 C3151 0.999 . S
H3155 C3136 0.913 . S
H3156 C3174 0.951 . S
H3157 C3176 0.951 . S
H3158 C3178 0.950 . S
H3159 C3179 0.950 . S
H3160 C3181 0.950 . S
H3161 C3184 0.950 . S
H3162 C3185 0.950 . S
H3163 C3187 0.950 . S
H3164 C3188 0.950 . S
H3165 C3189 0.951 . S
H3166 C3191 0.951 . S
H3167 C3193 0.950 1_554 S
H3168 C3194 0.950 . S
H3169 C3196 0.950 . S
H3170 C3199 0.950 . S
H3171 C3200 0.950 . S
H3172 C3202 0.950 . S
H3173 C3203 0.950 . S
C3174 H3156 0.951 . S
C3174 C3175 1.366 1_655 S
C3174 C3176 1.388 . S
C3175 C3174 1.366 1_455 S
C3175 C3179 1.385 . S
C3176 H3157 0.951 . S
C3176 C3174 1.388 . S
C3176 C3177 1.366 1_655 S
C3177 C3176 1.366 1_455 S
C3177 C3178 1.414 . S
C3177 C3180 1.499 . S
C3178 H3158 0.950 . S
C3178 C3177 1.414 . S
C3178 C3179 1.374 . S
C3179 H3159 0.950 . S
C3179 C3175 1.385 . S
C3179 C3178 1.374 . S
C3180 C3177 1.499 . S
C3180 C3181 1.373 . S
C3180 C3182 1.389 1_455 S
C3181 H3160 0.950 . S
C3181 C3180 1.373 . S
C3181 C3197 1.377 . S
C3182 C3180 1.389 1_655 S
C3182 C3183 1.524 . S
C3182 C3196 1.377 . S
C3183 C3182 1.524 . S
C3183 C3184 1.397 . S
C3183 C3188 1.363 . S
C3184 H3161 0.950 . S
C3184 C3183 1.397 . S
C3184 C3185 1.334 . S
C3185 H3162 0.950 . S
C3185 C3184 1.334 . S
C3185 C3186 1.287 . S
C3186 C3185 1.287 . S
C3186 C3187 1.524 . S
C3186 H3205 0.913 . S
C3187 H3163 0.950 . S
C3187 C3186 1.524 . S
C3187 C3188 1.415 . S
C3188 H3164 0.950 . S
C3188 C3183 1.363 . S
C3188 C3187 1.415 . S
C3189 H3165 0.951 . S
C3189 C3190 1.366 1_556 S
C3189 C3191 1.388 . S
C3190 C3189 1.366 1_554 S
C3190 C3194 1.385 1_455 S
C3191 H3166 0.951 . S
C3191 C3189 1.388 . S
C3191 C3192 1.366 . S
C3192 C3191 1.366 . S
C3192 C3193 1.414 1_455 S
C3192 C3195 1.499 . S
C3193 H3167 0.950 1_556 S
C3193 C3192 1.414 1_655 S
C3193 C3194 1.374 1_556 S
C3194 H3168 0.950 . S
C3194 C3190 1.385 1_655 S
C3194 C3193 1.374 1_554 S
C3195 C3192 1.499 . S
C3195 C3196 1.373 1_455 S
C3195 C3197 1.389 . S
C3196 H3169 0.950 . S
C3196 C3182 1.377 . S
C3196 C3195 1.373 1_655 S
C3197 C3181 1.377 . S
C3197 C3195 1.389 . S
C3197 C3198 1.524 . S
C3198 C3197 1.524 . S
C3198 C3199 1.397 1_556 S
C3198 C3203 1.363 . S
C3199 H3170 0.950 . S
C3199 C3198 1.397 1_554 S
C3199 C3200 1.334 . S
C3200 H3171 0.950 . S
C3200 C3199 1.334 . S
C3200 C3201 1.287 . S
C3201 C3200 1.287 . S
C3201 C3202 1.524 1_554 S
C3201 H3204 0.999 . S
C3202 H3172 0.950 . S
C3202 C3201 1.524 1_556 S
C3202 C3203 1.415 . S
C3203 H3173 0.950 . S
C3203 C3198 1.363 . S
C3203 C3202 1.415 . S
H3204 C3201 0.999 . S
H3205 C3186 0.913 . S
H3206 C3224 0.951 . S
H3207 C3226 0.951 . S
H3208 C3228 0.950 . S
H3209 C3229 0.950 . S
H3210 C3231 0.950 . S
H3211 C3234 0.950 . S
H3212 C3235 0.950 . S
H3213 C3237 0.950 . S
H3214 C3238 0.950 . S
H3215 C3239 0.951 . S
H3216 C3241 0.951 . S
H3217 C3243 0.950 . S
H3218 C3244 0.950 . S
H3219 C3246 0.950 . S
H3220 C3249 0.950 . S
H3221 C3250 0.950 . S
H3222 C3252 0.950 . S
H3223 C3253 0.950 . S
C3224 H3206 0.951 . S
C3224 C3225 1.366 . S
C3224 C3226 1.388 . S
C3225 C3224 1.366 . S
C3225 C3229 1.385 . S
C3226 H3207 0.951 . S
C3226 C3224 1.388 . S
C3226 C3227 1.366 . S
C3227 C3226 1.366 . S
C3227 C3228 1.414 . S
C3227 C3230 1.499 . S
C3228 H3208 0.950 . S
C3228 C3227 1.414 . S
C3228 C3229 1.374 . S
C3229 H3209 0.950 . S
C3229 C3225 1.385 . S
C3229 C3228 1.374 . S
C3230 C3227 1.499 . S
C3230 C3231 1.373 . S
C3230 C3232 1.389 . S
C3231 H3210 0.950 . S
C3231 C3230 1.373 . S
C3231 C3247 1.377 . S
C3232 C3230 1.389 . S
C3232 C3233 1.524 . S
C3232 C3246 1.377 . S
C3233 C3232 1.524 . S
C3233 C3234 1.397 . S
C3233 C3238 1.363 . S
C3234 H3211 0.950 . S
C3234 C3233 1.397 . S
C3234 C3235 1.334 . S
C3235 H3212 0.950 . S
C3235 C3234 1.334 . S
C3235 C3236 1.287 . S
C3236 C3235 1.287 . S
C3236 C3237 1.524 . S
C3236 H3255 0.913 . S
C3237 H3213 0.950 . S
C3237 C3236 1.524 . S
C3237 C3238 1.415 . S
C3238 H3214 0.950 . S
C3238 C3233 1.363 . S
C3238 C3237 1.415 . S
C3239 H3215 0.951 . S
C3239 C3240 1.366 . S
C3239 C3241 1.388 . S
C3240 C3239 1.366 . S
C3240 C3244 1.385 . S
C3241 H3216 0.951 . S
C3241 C3239 1.388 . S
C3241 C3242 1.366 . S
C3242 C3241 1.366 . S
C3242 C3243 1.414 . S
C3242 C3245 1.499 . S
C3243 H3217 0.950 . S
C3243 C3242 1.414 . S
C3243 C3244 1.374 . S
C3244 H3218 0.950 . S
C3244 C3240 1.385 . S
C3244 C3243 1.374 . S
C3245 C3242 1.499 . S
C3245 C3246 1.373 . S
C3245 C3247 1.389 . S
C3246 H3219 0.950 . S
C3246 C3232 1.377 . S
C3246 C3245 1.373 . S
C3247 C3231 1.377 . S
C3247 C3245 1.389 . S
C3247 C3248 1.524 . S
C3248 C3247 1.524 . S
C3248 C3249 1.397 . S
C3248 C3253 1.363 . S
C3249 H3220 0.950 . S
C3249 C3248 1.397 . S
C3249 C3250 1.334 . S
C3250 H3221 0.950 . S
C3250 C3249 1.334 . S
C3250 C3251 1.287 . S
C3251 C3250 1.287 . S
C3251 C3252 1.524 . S
C3251 H3254 0.999 . S
C3252 H3222 0.950 . S
C3252 C3251 1.524 . S
C3252 C3253 1.415 . S
C3253 H3223 0.950 . S
C3253 C3248 1.363 . S
C3253 C3252 1.415 . S
H3254 C3251 0.999 . S
H3255 C3236 0.913 . S
H3256 C3274 0.951 . S
H3257 C3276 0.951 . S
H3258 C3278 0.950 . S
H3259 C3279 0.950 . S
H3260 C3281 0.950 . S
H3261 C3284 0.950 . S
H3262 C3285 0.950 . S
H3263 C3287 0.950 . S
H3264 C3288 0.950 . S
H3265 C3289 0.951 . S
H3266 C3291 0.951 . S
H3267 C3293 0.950 . S
H3268 C3294 0.950 . S
H3269 C3296 0.950 . S
H3270 C3299 0.950 . S
H3271 C3300 0.950 . S
H3272 C3302 0.950 . S
H3273 C3303 0.950 . S
C3274 H3256 0.951 . S
C3274 C3275 1.366 . S
C3274 C3276 1.388 . S
C3275 C3274 1.366 . S
C3275 C3279 1.385 . S
C3276 H3257 0.951 . S
C3276 C3274 1.388 . S
C3276 C3277 1.366 . S
C3277 C3276 1.366 . S
C3277 C3278 1.414 . S
C3277 C3280 1.499 . S
C3278 H3258 0.950 . S
C3278 C3277 1.414 . S
C3278 C3279 1.374 . S
C3279 H3259 0.950 . S
C3279 C3275 1.385 . S
C3279 C3278 1.374 . S
C3280 C3277 1.499 . S
C3280 C3281 1.373 . S
C3280 C3282 1.389 . S
C3281 H3260 0.950 . S
C3281 C3280 1.373 . S
C3281 C3297 1.377 . S
C3282 C3280 1.389 . S
C3282 C3283 1.524 . S
C3282 C3296 1.377 . S
C3283 C3282 1.524 . S
C3283 C3284 1.397 . S
C3283 C3288 1.363 . S
C3284 H3261 0.950 . S
C3284 C3283 1.397 . S
C3284 C3285 1.334 . S
C3285 H3262 0.950 . S
C3285 C3284 1.334 . S
C3285 C3286 1.287 . S
C3286 C3285 1.287 . S
C3286 C3287 1.524 . S
C3286 H3305 0.913 . S
C3287 H3263 0.950 . S
C3287 C3286 1.524 . S
C3287 C3288 1.415 . S
C3288 H3264 0.950 . S
C3288 C3283 1.363 . S
C3288 C3287 1.415 . S
C3289 H3265 0.951 . S
C3289 C3290 1.366 . S
C3289 C3291 1.388 . S
C3290 C3289 1.366 . S
C3290 C3294 1.385 . S
C3291 H3266 0.951 . S
C3291 C3289 1.388 . S
C3291 C3292 1.366 . S
C3292 C3291 1.366 . S
C3292 C3293 1.414 . S
C3292 C3295 1.499 . S
C3293 H3267 0.950 . S
C3293 C3292 1.414 . S
C3293 C3294 1.374 . S
C3294 H3268 0.950 . S
C3294 C3290 1.385 . S
C3294 C3293 1.374 . S
C3295 C3292 1.499 . S
C3295 C3296 1.373 . S
C3295 C3297 1.389 . S
C3296 H3269 0.950 . S
C3296 C3282 1.377 . S
C3296 C3295 1.373 . S
C3297 C3281 1.377 . S
C3297 C3295 1.389 . S
C3297 C3298 1.524 . S
C3298 C3297 1.524 . S
C3298 C3299 1.397 . S
C3298 C3303 1.363 . S
C3299 H3270 0.950 . S
C3299 C3298 1.397 . S
C3299 C3300 1.334 . S
C3300 H3271 0.950 . S
C3300 C3299 1.334 . S
C3300 C3301 1.287 . S
C3301 C3300 1.287 . S
C3301 C3302 1.524 . S
C3301 H3304 0.999 . S
C3302 H3272 0.950 . S
C3302 C3301 1.524 . S
C3302 C3303 1.415 . S
C3303 H3273 0.950 . S
C3303 C3298 1.363 . S
C3303 C3302 1.415 . S
H3304 C3301 0.999 . S
H3305 C3286 0.913 . S
H3306 C3324 0.951 . S
H3307 C3326 0.951 . S
H3308 C3328 0.950 . S
H3309 C3329 0.950 . S
H3310 C3331 0.950 . S
H3311 C3334 0.950 . S
H3312 C3335 0.950 . S
H3313 C3337 0.950 . S
H3314 C3338 0.950 . S
H3315 C3339 0.951 . S
H3316 C3341 0.951 . S
H3317 C3343 0.950 . S
H3318 C3344 0.950 . S
H3319 C3346 0.950 . S
H3320 C3349 0.950 . S
H3321 C3350 0.950 . S
H3322 C3352 0.950 . S
H3323 C3353 0.950 . S
C3324 H3306 0.951 . S
C3324 C3325 1.366 . S
C3324 C3326 1.388 . S
C3325 C3324 1.366 . S
C3325 C3329 1.385 . S
C3326 H3307 0.951 . S
C3326 C3324 1.388 . S
C3326 C3327 1.366 . S
C3327 C3326 1.366 . S
C3327 C3328 1.414 . S
C3327 C3330 1.499 . S
C3328 H3308 0.950 . S
C3328 C3327 1.414 . S
C3328 C3329 1.374 . S
C3329 H3309 0.950 . S
C3329 C3325 1.385 . S
C3329 C3328 1.374 . S
C3330 C3327 1.499 . S
C3330 C3331 1.373 . S
C3330 C3332 1.389 . S
C3331 H3310 0.950 . S
C3331 C3330 1.373 . S
C3331 C3347 1.377 . S
C3332 C3330 1.389 . S
C3332 C3333 1.524 . S
C3332 C3346 1.377 . S
C3333 C3332 1.524 . S
C3333 C3334 1.397 . S
C3333 C3338 1.363 . S
C3334 H3311 0.950 . S
C3334 C3333 1.397 . S
C3334 C3335 1.334 . S
C3335 H3312 0.950 . S
C3335 C3334 1.334 . S
C3335 C3336 1.287 . S
C3336 C3335 1.287 . S
C3336 C3337 1.524 . S
C3336 H3355 0.913 . S
C3337 H3313 0.950 . S
C3337 C3336 1.524 . S
C3337 C3338 1.415 . S
C3338 H3314 0.950 . S
C3338 C3333 1.363 . S
C3338 C3337 1.415 . S
C3339 H3315 0.951 . S
C3339 C3340 1.366 . S
C3339 C3341 1.388 . S
C3340 C3339 1.366 . S
C3340 C3344 1.385 . S
C3341 H3316 0.951 . S
C3341 C3339 1.388 . S
C3341 C3342 1.366 . S
C3342 C3341 1.366 . S
C3342 C3343 1.414 . S
C3342 C3345 1.499 . S
C3343 H3317 0.950 . S
C3343 C3342 1.414 . S
C3343 C3344 1.374 . S
C3344 H3318 0.950 . S
C3344 C3340 1.385 . S
C3344 C3343 1.374 . S
C3345 C3342 1.499 . S
C3345 C3346 1.373 . S
C3345 C3347 1.389 . S
C3346 H3319 0.950 . S
C3346 C3332 1.377 . S
C3346 C3345 1.373 . S
C3347 C3331 1.377 . S
C3347 C3345 1.389 . S
C3347 C3348 1.524 . S
C3348 C3347 1.524 . S
C3348 C3349 1.397 . S
C3348 C3353 1.363 . S
C3349 H3320 0.950 . S
C3349 C3348 1.397 . S
C3349 C3350 1.334 . S
C3350 H3321 0.950 . S
C3350 C3349 1.334 . S
C3350 C3351 1.287 . S
C3351 C3350 1.287 . S
C3351 C3352 1.524 . S
C3351 H3354 0.999 . S
C3352 H3322 0.950 . S
C3352 C3351 1.524 . S
C3352 C3353 1.415 . S
C3353 H3323 0.950 . S
C3353 C3348 1.363 . S
C3353 C3352 1.415 . S
H3354 C3351 0.999 . S
H3355 C3336 0.913 . S
H3356 C3374 0.951 . S
H3357 C3376 0.951 . S
H3358 C3378 0.950 . S
H3359 C3379 0.950 . S
H3360 C3381 0.950 . S
H3361 C3384 0.950 . S
H3362 C3385 0.950 . S
H3363 C3387 0.950 . S
H3364 C3388 0.950 . S
H3365 C3389 0.951 . S
H3366 C3391 0.951 . S
H3367 C3393 0.950 . S
H3368 C3394 0.955 . S
H3369 C3396 0.950 . S
H3370 C3399 0.950 . S
H3371 C3400 0.950 . S
H3372 C3402 0.950 . S
H3373 C3403 0.950 . S
C3374 H3356 0.951 . S
C3374 C3375 1.366 1_655 S
C3374 C3376 1.388 . S
C3375 C3374 1.366 1_455 S
C3375 C3379 1.385 . S
C3376 H3357 0.951 . S
C3376 C3374 1.388 . S
C3376 C3377 1.366 1_655 S
C3377 C3376 1.366 1_455 S
C3377 C3378 1.414 . S
C3377 C3380 1.499 . S
C3378 H3358 0.950 . S
C3378 C3377 1.414 . S
C3378 C3379 1.374 . S
C3379 H3359 0.950 . S
C3379 C3375 1.385 . S
C3379 C3378 1.374 . S
C3380 C3377 1.499 . S
C3380 C3381 1.373 1_455 S
C3380 C3382 1.389 . S
C3381 H3360 0.950 . S
C3381 C3380 1.373 1_655 S
C3381 C3397 1.377 . S
C3382 C3380 1.389 . S
C3382 C3383 1.524 . S
C3382 C3396 1.377 . S
C3383 C3382 1.524 . S
C3383 C3384 1.397 . S
C3383 C3388 1.363 . S
C3384 H3361 0.950 . S
C3384 C3383 1.397 . S
C3384 C3385 1.334 . S
C3385 H3362 0.950 . S
C3385 C3384 1.334 . S
C3385 C3386 1.287 . S
C3386 C3385 1.287 . S
C3386 C3387 1.524 . S
C3386 H3405 0.913 . S
C3387 H3363 0.950 . S
C3387 C3386 1.524 . S
C3387 C3388 1.415 . S
C3388 H3364 0.950 . S
C3388 C3383 1.363 . S
C3388 C3387 1.415 . S
C3389 H3365 0.951 . S
C3389 C3390 1.366 . S
C3389 C3391 1.388 . S
C3390 C3389 1.366 . S
C3390 C3394 1.374 1_455 S
C3391 H3366 0.951 . S
C3391 C3389 1.388 . S
C3391 C3392 1.366 . S
C3392 C3391 1.366 . S
C3392 C3393 1.414 1_455 S
C3392 C3395 1.499 . S
C3393 H3367 0.950 . S
C3393 C3392 1.414 1_655 S
C3393 C3394 1.381 . S
C3394 H3368 0.955 . S
C3394 C3390 1.374 1_655 S
C3394 C3393 1.381 . S
C3395 C3392 1.499 . S
C3395 C3396 1.373 . S
C3395 C3397 1.389 1_455 S
C3396 H3369 0.950 . S
C3396 C3382 1.377 . S
C3396 C3395 1.373 . S
C3397 C3381 1.377 . S
C3397 C3395 1.389 1_655 S
C3397 C3398 1.524 . S
C3398 C3397 1.524 . S
C3398 C3399 1.397 . S
C3398 C3403 1.363 . S
C3399 H3370 0.950 . S
C3399 C3398 1.397 . S
C3399 C3400 1.334 . S
C3400 H3371 0.950 . S
C3400 C3399 1.334 . S
C3400 C3401 1.287 . S
C3401 C3400 1.287 . S
C3401 C3402 1.524 . S
C3401 H3404 0.999 . S
C3402 H3372 0.950 . S
C3402 C3401 1.524 . S
C3402 C3403 1.415 . S
C3403 H3373 0.950 . S
C3403 C3398 1.363 . S
C3403 C3402 1.415 . S
H3404 C3401 0.999 . S
H3405 C3386 0.913 . S
H3406 C3424 0.951 . S
H3407 C3426 0.951 . S
H3408 C3428 0.950 . S
H3409 C3429 0.950 . S
H3410 C3431 0.950 . S
H3411 C3434 0.950 . S
H3412 C3435 0.950 . S
H3413 C3437 0.950 . S
H3414 C3438 0.950 . S
H3415 C3439 0.951 . S
H3416 C3441 0.951 . S
H3417 C3443 0.950 . S
H3418 C3444 0.950 . S
H3419 C3446 0.950 . S
H3420 C3449 0.950 . S
H3421 C3450 0.950 . S
H3422 C3452 0.950 . S
H3423 C3453 0.950 . S
C3424 H3406 0.951 . S
C3424 C3425 1.366 . S
C3424 C3426 1.388 . S
C3425 C3424 1.366 . S
C3425 C3429 1.385 . S
C3426 H3407 0.951 . S
C3426 C3424 1.388 . S
C3426 C3427 1.366 . S
C3427 C3426 1.366 . S
C3427 C3428 1.414 . S
C3427 C3430 1.499 . S
C3428 H3408 0.950 . S
C3428 C3427 1.414 . S
C3428 C3429 1.374 . S
C3429 H3409 0.950 . S
C3429 C3425 1.385 . S
C3429 C3428 1.374 . S
C3430 C3427 1.499 . S
C3430 C3431 1.373 . S
C3430 C3432 1.389 . S
C3431 H3410 0.950 . S
C3431 C3430 1.373 . S
C3431 C3447 1.377 . S
C3432 C3430 1.389 . S
C3432 C3433 1.524 . S
C3432 C3446 1.377 . S
C3433 C3432 1.524 . S
C3433 C3434 1.397 . S
C3433 C3438 1.363 . S
C3434 H3411 0.950 . S
C3434 C3433 1.397 . S
C3434 C3435 1.334 . S
C3435 H3412 0.950 . S
C3435 C3434 1.334 . S
C3435 C3436 1.287 . S
C3436 C3435 1.287 . S
C3436 C3437 1.524 . S
C3436 H3455 0.913 . S
C3437 H3413 0.950 . S
C3437 C3436 1.524 . S
C3437 C3438 1.415 . S
C3438 H3414 0.950 . S
C3438 C3433 1.363 . S
C3438 C3437 1.415 . S
C3439 H3415 0.951 . S
C3439 C3440 1.366 . S
C3439 C3441 1.388 . S
C3440 C3439 1.366 . S
C3440 C3444 1.385 . S
C3441 H3416 0.951 . S
C3441 C3439 1.388 . S
C3441 C3442 1.366 . S
C3442 C3441 1.366 . S
C3442 C3443 1.414 . S
C3442 C3445 1.499 . S
C3443 H3417 0.950 . S
C3443 C3442 1.414 . S
C3443 C3444 1.374 . S
C3444 H3418 0.950 . S
C3444 C3440 1.385 . S
C3444 C3443 1.374 . S
C3445 C3442 1.499 . S
C3445 C3446 1.373 . S
C3445 C3447 1.389 . S
C3446 H3419 0.950 . S
C3446 C3432 1.377 . S
C3446 C3445 1.373 . S
C3447 C3431 1.377 . S
C3447 C3445 1.389 . S
C3447 C3448 1.524 . S
C3448 C3447 1.524 . S
C3448 C3449 1.397 . S
C3448 C3453 1.363 . S
C3449 H3420 0.950 . S
C3449 C3448 1.397 . S
C3449 C3450 1.334 . S
C3450 H3421 0.950 . S
C3450 C3449 1.334 . S
C3450 C3451 1.287 . S
C3451 C3450 1.287 . S
C3451 C3452 1.524 . S
C3451 H3454 0.999 . S
C3452 H3422 0.950 . S
C3452 C3451 1.524 . S
C3452 C3453 1.415 . S
C3453 H3423 0.950 . S
C3453 C3448 1.363 . S
C3453 C3452 1.415 . S
H3454 C3451 0.999 . S
H3455 C3436 0.913 . S
H3456 C3474 0.951 . S
H3457 C3476 0.951 . S
H3458 C3478 0.950 . S
H3459 C3479 0.950 . S
H3460 C3481 0.950 . S
H3461 C3484 0.950 . S
H3462 C3485 0.950 . S
H3463 C3487 0.950 . S
H3464 C3488 0.950 . S
H3465 C3489 0.951 . S
H3466 C3491 0.951 . S
H3467 C3493 0.950 . S
H3468 C3494 0.950 . S
H3469 C3496 0.950 . S
H3470 C3499 0.950 . S
H3471 C3500 0.950 . S
H3472 C3502 0.950 . S
H3473 C3503 0.950 . S
C3474 H3456 0.951 . S
C3474 C3475 1.366 . S
C3474 C3476 1.388 . S
C3475 C3474 1.366 . S
C3475 C3479 1.385 . S
C3476 H3457 0.951 . S
C3476 C3474 1.388 . S
C3476 C3477 1.366 . S
C3477 C3476 1.366 . S
C3477 C3478 1.414 . S
C3477 C3480 1.499 . S
C3478 H3458 0.950 . S
C3478 C3477 1.414 . S
C3478 C3479 1.374 . S
C3479 H3459 0.950 . S
C3479 C3475 1.385 . S
C3479 C3478 1.374 . S
C3480 C3477 1.499 . S
C3480 C3481 1.373 . S
C3480 C3482 1.389 . S
C3481 H3460 0.950 . S
C3481 C3480 1.373 . S
C3481 C3497 1.377 . S
C3482 C3480 1.389 . S
C3482 C3483 1.524 . S
C3482 C3496 1.377 . S
C3483 C3482 1.524 . S
C3483 C3484 1.397 . S
C3483 C3488 1.363 . S
C3484 H3461 0.950 . S
C3484 C3483 1.397 . S
C3484 C3485 1.334 . S
C3485 H3462 0.950 . S
C3485 C3484 1.334 . S
C3485 C3486 1.287 . S
C3486 C3485 1.287 . S
C3486 C3487 1.524 . S
C3486 H3505 0.913 . S
C3487 H3463 0.950 . S
C3487 C3486 1.524 . S
C3487 C3488 1.415 . S
C3488 H3464 0.950 . S
C3488 C3483 1.363 . S
C3488 C3487 1.415 . S
C3489 H3465 0.951 . S
C3489 C3490 1.366 . S
C3489 C3491 1.388 . S
C3490 C3489 1.366 . S
C3490 C3494 1.385 . S
C3491 H3466 0.951 . S
C3491 C3489 1.388 . S
C3491 C3492 1.366 . S
C3492 C3491 1.366 . S
C3492 C3493 1.414 . S
C3492 C3495 1.499 . S
C3493 H3467 0.950 . S
C3493 C3492 1.414 . S
C3493 C3494 1.374 . S
C3494 H3468 0.950 . S
C3494 C3490 1.385 . S
C3494 C3493 1.374 . S
C3495 C3492 1.499 . S
C3495 C3496 1.373 . S
C3495 C3497 1.389 . S
C3496 H3469 0.950 . S
C3496 C3482 1.377 . S
C3496 C3495 1.373 . S
C3497 C3481 1.377 . S
C3497 C3495 1.389 . S
C3497 C3498 1.524 . S
C3498 C3497 1.524 . S
C3498 C3499 1.397 . S
C3498 C3503 1.363 . S
C3499 H3470 0.950 . S
C3499 C3498 1.397 . S
C3499 C3500 1.334 . S
C3500 H3471 0.950 . S
C3500 C3499 1.334 . S
C3500 C3501 1.287 . S
C3501 C3500 1.287 . S
C3501 C3502 1.524 . S
C3501 H3504 0.999 . S
C3502 H3472 0.950 . S
C3502 C3501 1.524 . S
C3502 C3503 1.415 . S
C3503 H3473 0.950 . S
C3503 C3498 1.363 . S
C3503 C3502 1.415 . S
H3504 C3501 0.999 . S
H3505 C3486 0.913 . S
H3506 C3524 0.951 . S
H3507 C3526 0.951 . S
H3508 C3528 0.950 . S
H3509 C3529 0.950 . S
H3510 C3531 0.950 . S
H3511 C3534 0.950 . S
H3512 C3535 0.950 . S
H3513 C3537 0.950 . S
H3514 C3538 0.950 . S
H3515 C3539 0.951 . S
H3516 C3541 0.951 . S
H3517 C3543 0.950 . S
H3518 C3544 0.950 . S
H3519 C3546 0.950 . S
H3520 C3549 0.950 . S
H3521 C3550 0.950 . S
H3522 C3552 0.950 . S
H3523 C3553 0.950 . S
C3524 H3506 0.951 . S
C3524 C3525 1.366 . S
C3524 C3526 1.388 . S
C3525 C3524 1.366 . S
C3525 C3529 1.385 . S
C3526 H3507 0.951 . S
C3526 C3524 1.388 . S
C3526 C3527 1.366 . S
C3527 C3526 1.366 . S
C3527 C3528 1.414 . S
C3527 C3530 1.499 . S
C3528 H3508 0.950 . S
C3528 C3527 1.414 . S
C3528 C3529 1.374 . S
C3529 H3509 0.950 . S
C3529 C3525 1.385 . S
C3529 C3528 1.374 . S
C3530 C3527 1.499 . S
C3530 C3531 1.373 . S
C3530 C3532 1.389 . S
C3531 H3510 0.950 . S
C3531 C3530 1.373 . S
C3531 C3547 1.377 . S
C3532 C3530 1.389 . S
C3532 C3533 1.524 . S
C3532 C3546 1.377 . S
C3533 C3532 1.524 . S
C3533 C3534 1.397 . S
C3533 C3538 1.363 . S
C3534 H3511 0.950 . S
C3534 C3533 1.397 . S
C3534 C3535 1.334 . S
C3535 H3512 0.950 . S
C3535 C3534 1.334 . S
C3535 C3536 1.287 . S
C3536 C3535 1.287 . S
C3536 C3537 1.524 . S
C3536 H3555 0.913 . S
C3537 H3513 0.950 . S
C3537 C3536 1.524 . S
C3537 C3538 1.415 . S
C3538 H3514 0.950 . S
C3538 C3533 1.363 . S
C3538 C3537 1.415 . S
C3539 H3515 0.951 . S
C3539 C3540 1.366 . S
C3539 C3541 1.388 . S
C3540 C3539 1.366 . S
C3540 C3544 1.385 . S
C3541 H3516 0.951 . S
C3541 C3539 1.388 . S
C3541 C3542 1.366 . S
C3542 C3541 1.366 . S
C3542 C3543 1.414 . S
C3542 C3545 1.499 . S
C3543 H3517 0.950 . S
C3543 C3542 1.414 . S
C3543 C3544 1.374 . S
C3544 H3518 0.950 . S
C3544 C3540 1.385 . S
C3544 C3543 1.374 . S
C3545 C3542 1.499 . S
C3545 C3546 1.373 . S
C3545 C3547 1.389 . S
C3546 H3519 0.950 . S
C3546 C3532 1.377 . S
C3546 C3545 1.373 . S
C3547 C3531 1.377 . S
C3547 C3545 1.389 . S
C3547 C3548 1.524 . S
C3548 C3547 1.524 . S
C3548 C3549 1.397 . S
C3548 C3553 1.363 . S
C3549 H3520 0.950 . S
C3549 C3548 1.397 . S
C3549 C3550 1.334 . S
C3550 H3521 0.950 . S
C3550 C3549 1.334 . S
C3550 C3551 1.287 . S
C3551 C3550 1.287 . S
C3551 C3552 1.524 . S
C3551 H3554 0.999 . S
C3552 H3522 0.950 . S
C3552 C3551 1.524 . S
C3552 C3553 1.415 . S
C3553 H3523 0.950 . S
C3553 C3548 1.363 . S
C3553 C3552 1.415 . S
H3554 C3551 0.999 . S
H3555 C3536 0.913 . S
H3556 C3574 0.951 . S
H3557 C3576 0.951 . S
H3558 C3578 0.950 . S
H3559 C3579 0.950 . S
H3560 C3581 0.950 . S
H3561 C3584 0.950 . S
H3562 C3585 0.950 . S
H3563 C3587 0.950 . S
H3564 C3588 0.950 . S
H3565 C3589 0.951 . S
H3566 C3591 0.951 . S
H3567 C3593 0.950 . S
H3568 C3594 0.950 . S
H3569 C3596 0.950 . S
H3570 C3599 0.950 . S
H3571 C3600 0.950 . S
H3572 C3602 0.950 . S
H3573 C3603 0.950 . S
C3574 H3556 0.951 . S
C3574 C3575 1.366 . S
C3574 C3576 1.388 . S
C3575 C3574 1.366 . S
C3575 C3579 1.385 . S
C3576 H3557 0.951 . S
C3576 C3574 1.388 . S
C3576 C3577 1.366 . S
C3577 C3576 1.366 . S
C3577 C3578 1.414 . S
C3577 C3580 1.499 . S
C3578 H3558 0.950 . S
C3578 C3577 1.414 . S
C3578 C3579 1.374 . S
C3579 H3559 0.950 . S
C3579 C3575 1.385 . S
C3579 C3578 1.374 . S
C3580 C3577 1.499 . S
C3580 C3581 1.373 . S
C3580 C3582 1.389 . S
C3581 H3560 0.950 . S
C3581 C3580 1.373 . S
C3581 C3597 1.377 . S
C3582 C3580 1.389 . S
C3582 C3583 1.524 . S
C3582 C3596 1.377 . S
C3583 C3582 1.524 . S
C3583 C3584 1.397 . S
C3583 C3588 1.363 . S
C3584 H3561 0.950 . S
C3584 C3583 1.397 . S
C3584 C3585 1.334 . S
C3585 H3562 0.950 . S
C3585 C3584 1.334 . S
C3585 C3586 1.287 . S
C3586 C3585 1.287 . S
C3586 C3587 1.524 . S
C3586 H3605 0.913 . S
C3587 H3563 0.950 . S
C3587 C3586 1.524 . S
C3587 C3588 1.415 . S
C3588 H3564 0.950 . S
C3588 C3583 1.363 . S
C3588 C3587 1.415 . S
C3589 H3565 0.951 . S
C3589 C3590 1.366 . S
C3589 C3591 1.388 . S
C3590 C3589 1.366 . S
C3590 C3594 1.385 . S
C3591 H3566 0.951 . S
C3591 C3589 1.388 . S
C3591 C3592 1.366 . S
C3592 C3591 1.366 . S
C3592 C3593 1.414 . S
C3592 C3595 1.499 . S
C3593 H3567 0.950 . S
C3593 C3592 1.414 . S
C3593 C3594 1.374 . S
C3594 H3568 0.950 . S
C3594 C3590 1.385 . S
C3594 C3593 1.374 . S
C3595 C3592 1.499 . S
C3595 C3596 1.373 . S
C3595 C3597 1.389 . S
C3596 H3569 0.950 . S
C3596 C3582 1.377 . S
C3596 C3595 1.373 . S
C3597 C3581 1.377 . S
C3597 C3595 1.389 . S
C3597 C3598 1.524 . S
C3598 C3597 1.524 . S
C3598 C3599 1.397 . S
C3598 C3603 1.363 . S
C3599 H3570 0.950 . S
C3599 C3598 1.397 . S
C3599 C3600 1.334 . S
C3600 H3571 0.950 . S
C3600 C3599 1.334 . S
C3600 C3601 1.287 . S
C3601 C3600 1.287 . S
C3601 C3602 1.524 . S
C3601 H3604 0.999 . S
C3602 H3572 0.950 . S
C3602 C3601 1.524 . S
C3602 C3603 1.415 . S
C3603 H3573 0.950 . S
C3603 C3598 1.363 . S
C3603 C3602 1.415 . S
H3604 C3601 0.999 . S
H3605 C3586 0.913 . S
H3606 C3624 0.951 . S
H3607 C3626 0.951 . S
H3608 C3628 0.950 . S
H3609 C3629 0.950 . S
H3610 C3631 0.950 . S
H3611 C3634 0.950 . S
H3612 C3635 0.950 . S
H3613 C3637 0.950 . S
H3614 C3638 0.950 . S
H3615 C3639 0.951 . S
H3616 C3641 0.951 . S
H3617 C3643 0.950 . S
H3618 C3644 0.950 . S
H3619 C3646 0.950 . S
H3620 C3649 0.950 . S
H3621 C3650 0.950 . S
H3622 C3652 0.950 . S
H3623 C3653 0.950 . S
C3624 H3606 0.951 . S
C3624 C3625 1.366 . S
C3624 C3626 1.388 . S
C3625 C3624 1.366 . S
C3625 C3629 1.385 . S
C3626 H3607 0.951 . S
C3626 C3624 1.388 . S
C3626 C3627 1.366 . S
C3627 C3626 1.366 . S
C3627 C3628 1.414 . S
C3627 C3630 1.499 . S
C3628 H3608 0.950 . S
C3628 C3627 1.414 . S
C3628 C3629 1.374 . S
C3629 H3609 0.950 . S
C3629 C3625 1.385 . S
C3629 C3628 1.374 . S
C3630 C3627 1.499 . S
C3630 C3631 1.373 . S
C3630 C3632 1.389 . S
C3631 H3610 0.950 . S
C3631 C3630 1.373 . S
C3631 C3647 1.377 . S
C3632 C3630 1.389 . S
C3632 C3633 1.524 . S
C3632 C3646 1.377 . S
C3633 C3632 1.524 . S
C3633 C3634 1.397 . S
C3633 C3638 1.363 . S
C3634 H3611 0.950 . S
C3634 C3633 1.397 . S
C3634 C3635 1.334 . S
C3635 H3612 0.950 . S
C3635 C3634 1.334 . S
C3635 C3636 1.287 . S
C3636 C3635 1.287 . S
C3636 C3637 1.524 . S
C3636 H3655 0.913 . S
C3637 H3613 0.950 . S
C3637 C3636 1.524 . S
C3637 C3638 1.415 . S
C3638 H3614 0.950 . S
C3638 C3633 1.363 . S
C3638 C3637 1.415 . S
C3639 H3615 0.951 . S
C3639 C3640 1.366 . S
C3639 C3641 1.388 . S
C3640 C3639 1.366 . S
C3640 C3644 1.385 . S
C3641 H3616 0.951 . S
C3641 C3639 1.388 . S
C3641 C3642 1.366 . S
C3642 C3641 1.366 . S
C3642 C3643 1.414 . S
C3642 C3645 1.499 . S
C3643 H3617 0.950 . S
C3643 C3642 1.414 . S
C3643 C3644 1.374 . S
C3644 H3618 0.950 . S
C3644 C3640 1.385 . S
C3644 C3643 1.374 . S
C3645 C3642 1.499 . S
C3645 C3646 1.373 . S
C3645 C3647 1.389 . S
C3646 H3619 0.950 . S
C3646 C3632 1.377 . S
C3646 C3645 1.373 . S
C3647 C3631 1.377 . S
C3647 C3645 1.389 . S
C3647 C3648 1.524 . S
C3648 C3647 1.524 . S
C3648 C3649 1.397 . S
C3648 C3653 1.363 . S
C3649 H3620 0.950 . S
C3649 C3648 1.397 . S
C3649 C3650 1.334 . S
C3650 H3621 0.950 . S
C3650 C3649 1.334 . S
C3650 C3651 1.287 . S
C3651 C3650 1.287 . S
C3651 C3652 1.524 . S
C3651 H3654 0.999 . S
C3652 H3622 0.950 . S
C3652 C3651 1.524 . S
C3652 C3653 1.415 . S
C3653 H3623 0.950 . S
C3653 C3648 1.363 . S
C3653 C3652 1.415 . S
H3654 C3651 0.999 . S
H3655 C3636 0.913 . S
H3656 C3674 0.951 . S
H3657 C3676 0.951 . S
H3658 C3678 0.950 . S
H3659 C3679 0.950 . S
H3660 C3681 0.950 . S
H3661 C3684 0.950 . S
H3662 C3685 0.950 . S
H3663 C3687 0.950 . S
H3664 C3688 0.950 . S
H3665 C3689 0.951 . S
H3666 C3691 0.951 . S
H3667 C3693 0.950 . S
H3668 C3694 0.950 . S
H3669 C3696 0.950 . S
H3670 C3699 0.950 . S
H3671 C3700 0.950 . S
H3672 C3702 0.950 . S
H3673 C3703 0.950 . S
C3674 H3656 0.951 . S
C3674 C3675 1.366 . S
C3674 C3676 1.388 . S
C3675 C3674 1.366 . S
C3675 C3679 1.385 . S
C3676 H3657 0.951 . S
C3676 C3674 1.388 . S
C3676 C3677 1.366 . S
C3677 C3676 1.366 . S
C3677 C3678 1.414 . S
C3677 C3680 1.499 . S
C3678 H3658 0.950 . S
C3678 C3677 1.414 . S
C3678 C3679 1.374 . S
C3679 H3659 0.950 . S
C3679 C3675 1.385 . S
C3679 C3678 1.374 . S
C3680 C3677 1.499 . S
C3680 C3681 1.373 . S
C3680 C3682 1.389 . S
C3681 H3660 0.950 . S
C3681 C3680 1.373 . S
C3681 C3697 1.377 . S
C3682 C3680 1.389 . S
C3682 C3683 1.524 . S
C3682 C3696 1.377 . S
C3683 C3682 1.524 . S
C3683 C3684 1.397 . S
C3683 C3688 1.363 . S
C3684 H3661 0.950 . S
C3684 C3683 1.397 . S
C3684 C3685 1.334 . S
C3685 H3662 0.950 . S
C3685 C3684 1.334 . S
C3685 C3686 1.287 . S
C3686 C3685 1.287 . S
C3686 C3687 1.524 . S
C3686 H3705 0.913 . S
C3687 H3663 0.950 . S
C3687 C3686 1.524 . S
C3687 C3688 1.415 . S
C3688 H3664 0.950 . S
C3688 C3683 1.363 . S
C3688 C3687 1.415 . S
C3689 H3665 0.951 . S
C3689 C3690 1.366 . S
C3689 C3691 1.388 . S
C3690 C3689 1.366 . S
C3690 C3694 1.385 . S
C3691 H3666 0.951 . S
C3691 C3689 1.388 . S
C3691 C3692 1.366 . S
C3692 C3691 1.366 . S
C3692 C3693 1.414 . S
C3692 C3695 1.499 . S
C3693 H3667 0.950 . S
C3693 C3692 1.414 . S
C3693 C3694 1.374 . S
C3694 H3668 0.950 . S
C3694 C3690 1.385 . S
C3694 C3693 1.374 . S
C3695 C3692 1.499 . S
C3695 C3696 1.373 . S
C3695 C3697 1.389 . S
C3696 H3669 0.950 . S
C3696 C3682 1.377 . S
C3696 C3695 1.373 . S
C3697 C3681 1.377 . S
C3697 C3695 1.389 . S
C3697 C3698 1.524 . S
C3698 C3697 1.524 . S
C3698 C3699 1.397 . S
C3698 C3703 1.363 . S
C3699 H3670 0.950 . S
C3699 C3698 1.397 . S
C3699 C3700 1.334 . S
C3700 H3671 0.950 . S
C3700 C3699 1.334 . S
C3700 C3701 1.287 . S
C3701 C3700 1.287 . S
C3701 C3702 1.524 . S
C3701 H3704 0.999 . S
C3702 H3672 0.950 . S
C3702 C3701 1.524 . S
C3702 C3703 1.415 . S
C3703 H3673 0.950 . S
C3703 C3698 1.363 . S
C3703 C3702 1.415 . S
H3704 C3701 0.999 . S
H3705 C3686 0.913 . S
H3706 C3724 0.951 . S
H3707 C3726 0.951 . S
H3708 C3728 0.950 . S
H3709 C3729 0.950 . S
H3710 C3731 0.950 . S
H3711 C3734 0.950 . S
H3712 C3735 0.950 . S
H3713 C3737 0.950 . S
H3714 C3738 0.950 . S
H3715 C3739 0.951 . S
H3716 C3741 0.951 . S
H3717 C3743 0.950 . S
H3718 C3744 0.950 . S
H3719 C3746 0.950 . S
H3720 C3749 0.950 . S
H3721 C3750 0.950 . S
H3722 C3752 0.950 . S
H3723 C3753 0.950 . S
C3724 H3706 0.951 . S
C3724 C3725 1.366 . S
C3724 C3726 1.388 . S
C3725 C3724 1.366 . S
C3725 C3729 1.385 . S
C3726 H3707 0.951 . S
C3726 C3724 1.388 . S
C3726 C3727 1.366 . S
C3727 C3726 1.366 . S
C3727 C3728 1.414 . S
C3727 C3730 1.499 . S
C3728 H3708 0.950 . S
C3728 C3727 1.414 . S
C3728 C3729 1.374 . S
C3729 H3709 0.950 . S
C3729 C3725 1.385 . S
C3729 C3728 1.374 . S
C3730 C3727 1.499 . S
C3730 C3731 1.373 . S
C3730 C3732 1.389 . S
C3731 H3710 0.950 . S
C3731 C3730 1.373 . S
C3731 C3747 1.377 . S
C3732 C3730 1.389 . S
C3732 C3733 1.524 . S
C3732 C3746 1.377 . S
C3733 C3732 1.524 . S
C3733 C3734 1.397 . S
C3733 C3738 1.363 . S
C3734 H3711 0.950 . S
C3734 C3733 1.397 . S
C3734 C3735 1.334 . S
C3735 H3712 0.950 . S
C3735 C3734 1.334 . S
C3735 C3736 1.287 . S
C3736 C3735 1.287 . S
C3736 C3737 1.524 . S
C3736 H3755 0.913 . S
C3737 H3713 0.950 . S
C3737 C3736 1.524 . S
C3737 C3738 1.415 . S
C3738 H3714 0.950 . S
C3738 C3733 1.363 . S
C3738 C3737 1.415 . S
C3739 H3715 0.951 . S
C3739 C3740 1.366 . S
C3739 C3741 1.388 . S
C3740 C3739 1.366 . S
C3740 C3744 1.385 . S
C3741 H3716 0.951 . S
C3741 C3739 1.388 . S
C3741 C3742 1.366 . S
C3742 C3741 1.366 . S
C3742 C3743 1.414 . S
C3742 C3745 1.499 . S
C3743 H3717 0.950 . S
C3743 C3742 1.414 . S
C3743 C3744 1.374 . S
C3744 H3718 0.950 . S
C3744 C3740 1.385 . S
C3744 C3743 1.374 . S
C3745 C3742 1.499 . S
C3745 C3746 1.373 . S
C3745 C3747 1.389 . S
C3746 H3719 0.950 . S
C3746 C3732 1.377 . S
C3746 C3745 1.373 . S
C3747 C3731 1.377 . S
C3747 C3745 1.389 . S
C3747 C3748 1.524 . S
C3748 C3747 1.524 . S
C3748 C3749 1.397 . S
C3748 C3753 1.363 . S
C3749 H3720 0.950 . S
C3749 C3748 1.397 . S
C3749 C3750 1.334 . S
C3750 H3721 0.950 . S
C3750 C3749 1.334 . S
C3750 C3751 1.287 . S
C3751 C3750 1.287 . S
C3751 C3752 1.524 . S
C3751 H3754 0.999 . S
C3752 H3722 0.950 . S
C3752 C3751 1.524 . S
C3752 C3753 1.415 . S
C3753 H3723 0.950 . S
C3753 C3748 1.363 . S
C3753 C3752 1.415 . S
H3754 C3751 0.999 . S
H3755 C3736 0.913 . S
H3756 C3774 0.951 . S
H3757 C3776 0.951 . S
H3758 C3778 0.950 . S
H3759 C3779 0.950 . S
H3760 C3781 0.950 . S
H3761 C3784 0.950 . S
H3762 C3785 0.950 . S
H3763 C3787 0.950 . S
H3764 C3788 0.950 . S
H3765 C3789 0.951 . S
H3766 C3791 0.951 . S
H3767 C3793 0.950 . S
H3768 C3794 0.950 . S
H3769 C3796 0.950 . S
H3770 C3799 0.950 . S
H3771 C3800 0.950 . S
H3772 C3802 0.950 . S
H3773 C3803 0.950 . S
C3774 H3756 0.951 . S
C3774 C3775 1.366 . S
C3774 C3776 1.388 . S
C3775 C3774 1.366 . S
C3775 C3779 1.385 . S
C3776 H3757 0.951 . S
C3776 C3774 1.388 . S
C3776 C3777 1.366 . S
C3777 C3776 1.366 . S
C3777 C3778 1.414 . S
C3777 C3780 1.499 . S
C3778 H3758 0.950 . S
C3778 C3777 1.414 . S
C3778 C3779 1.374 . S
C3779 H3759 0.950 . S
C3779 C3775 1.385 . S
C3779 C3778 1.374 . S
C3780 C3777 1.499 . S
C3780 C3781 1.373 . S
C3780 C3782 1.389 . S
C3781 H3760 0.950 . S
C3781 C3780 1.373 . S
C3781 C3797 1.377 . S
C3782 C3780 1.389 . S
C3782 C3783 1.524 . S
C3782 C3796 1.377 . S
C3783 C3782 1.524 . S
C3783 C3784 1.397 . S
C3783 C3788 1.363 . S
C3784 H3761 0.950 . S
C3784 C3783 1.397 . S
C3784 C3785 1.334 . S
C3785 H3762 0.950 . S
C3785 C3784 1.334 . S
C3785 C3786 1.287 . S
C3786 C3785 1.287 . S
C3786 C3787 1.524 . S
C3786 H3805 0.913 . S
C3787 H3763 0.950 . S
C3787 C3786 1.524 . S
C3787 C3788 1.415 . S
C3788 H3764 0.950 . S
C3788 C3783 1.363 . S
C3788 C3787 1.415 . S
C3789 H3765 0.951 . S
C3789 C3790 1.366 . S
C3789 C3791 1.388 . S
C3790 C3789 1.366 . S
C3790 C3794 1.385 . S
C3791 H3766 0.951 . S
C3791 C3789 1.388 . S
C3791 C3792 1.366 . S
C3792 C3791 1.366 . S
C3792 C3793 1.414 . S
C3792 C3795 1.499 . S
C3793 H3767 0.950 . S
C3793 C3792 1.414 . S
C3793 C3794 1.374 . S
C3794 H3768 0.950 . S
C3794 C3790 1.385 . S
C3794 C3793 1.374 . S
C3795 C3792 1.499 . S
C3795 C3796 1.373 . S
C3795 C3797 1.389 . S
C3796 H3769 0.950 . S
C3796 C3782 1.377 . S
C3796 C3795 1.373 . S
C3797 C3781 1.377 . S
C3797 C3795 1.389 . S
C3797 C3798 1.524 . S
C3798 C3797 1.524 . S
C3798 C3799 1.397 . S
C3798 C3803 1.363 . S
C3799 H3770 0.950 . S
C3799 C3798 1.397 . S
C3799 C3800 1.334 . S
C3800 H3771 0.950 . S
C3800 C3799 1.334 . S
C3800 C3801 1.287 . S
C3801 C3800 1.287 . S
C3801 C3802 1.524 . S
C3801 H3804 0.999 . S
C3802 H3772 0.950 . S
C3802 C3801 1.524 . S
C3802 C3803 1.415 . S
C3803 H3773 0.950 . S
C3803 C3798 1.363 . S
C3803 C3802 1.415 . S
H3804 C3801 0.999 . S
H3805 C3786 0.913 . S
H3806 C3824 0.951 . S
H3807 C3826 0.951 . S
H3808 C3828 0.950 . S
H3809 C3829 0.950 . S
H3810 C3831 0.950 . S
H3811 C3834 0.950 . S
H3812 C3835 0.950 . S
H3813 C3837 0.950 . S
H3814 C3838 0.950 . S
H3815 C3839 0.951 . S
H3816 C3841 0.951 . S
H3817 C3843 0.950 . S
H3818 C3844 0.950 . S
H3819 C3846 0.950 . S
H3820 C3849 0.950 . S
H3821 C3850 0.950 . S
H3822 C3852 0.950 . S
H3823 C3853 0.950 . S
C3824 H3806 0.951 . S
C3824 C3825 1.366 . S
C3824 C3826 1.388 . S
C3825 C3824 1.366 . S
C3825 C3829 1.385 . S
C3826 H3807 0.951 . S
C3826 C3824 1.388 . S
C3826 C3827 1.366 . S
C3827 C3826 1.366 . S
C3827 C3828 1.414 . S
C3827 C3830 1.499 . S
C3828 H3808 0.950 . S
C3828 C3827 1.414 . S
C3828 C3829 1.374 . S
C3829 H3809 0.950 . S
C3829 C3825 1.385 . S
C3829 C3828 1.374 . S
C3830 C3827 1.499 . S
C3830 C3831 1.373 . S
C3830 C3832 1.389 . S
C3831 H3810 0.950 . S
C3831 C3830 1.373 . S
C3831 C3847 1.377 . S
C3832 C3830 1.389 . S
C3832 C3833 1.524 . S
C3832 C3846 1.377 . S
C3833 C3832 1.524 . S
C3833 C3834 1.397 . S
C3833 C3838 1.363 . S
C3834 H3811 0.950 . S
C3834 C3833 1.397 . S
C3834 C3835 1.334 . S
C3835 H3812 0.950 . S
C3835 C3834 1.334 . S
C3835 C3836 1.287 . S
C3836 C3835 1.287 . S
C3836 C3837 1.524 . S
C3836 H3855 0.913 . S
C3837 H3813 0.950 . S
C3837 C3836 1.524 . S
C3837 C3838 1.415 . S
C3838 H3814 0.950 . S
C3838 C3833 1.363 . S
C3838 C3837 1.415 . S
C3839 H3815 0.951 . S
C3839 C3840 1.366 . S
C3839 C3841 1.388 . S
C3840 C3839 1.366 . S
C3840 C3844 1.385 . S
C3841 H3816 0.951 . S
C3841 C3839 1.388 . S
C3841 C3842 1.366 . S
C3842 C3841 1.366 . S
C3842 C3843 1.414 . S
C3842 C3845 1.499 . S
C3843 H3817 0.950 . S
C3843 C3842 1.414 . S
C3843 C3844 1.374 . S
C3844 H3818 0.950 . S
C3844 C3840 1.385 . S
C3844 C3843 1.374 . S
C3845 C3842 1.499 . S
C3845 C3846 1.373 . S
C3845 C3847 1.389 . S
C3846 H3819 0.950 . S
C3846 C3832 1.377 . S
C3846 C3845 1.373 . S
C3847 C3831 1.377 . S
C3847 C3845 1.389 . S
C3847 C3848 1.524 . S
C3848 C3847 1.524 . S
C3848 C3849 1.397 . S
C3848 C3853 1.363 . S
C3849 H3820 0.950 . S
C3849 C3848 1.397 . S
C3849 C3850 1.334 . S
C3850 H3821 0.950 . S
C3850 C3849 1.334 . S
C3850 C3851 1.287 . S
C3851 C3850 1.287 . S
C3851 C3852 1.524 . S
C3851 H3854 0.999 . S
C3852 H3822 0.950 . S
C3852 C3851 1.524 . S
C3852 C3853 1.415 . S
C3853 H3823 0.950 . S
C3853 C3848 1.363 . S
C3853 C3852 1.415 . S
H3854 C3851 0.999 . S
H3855 C3836 0.913 . S
H3856 C3874 0.951 . S
H3857 C3876 0.951 . S
H3858 C3878 0.950 . S
H3859 C3879 0.950 . S
H3860 C3881 0.950 . S
H3861 C3884 0.950 . S
H3862 C3885 0.950 . S
H3863 C3887 0.950 . S
H3864 C3888 0.950 . S
H3865 C3889 0.951 . S
H3866 C3891 0.951 . S
H3867 C3893 0.950 . S
H3868 C3894 0.950 . S
H3869 C3896 0.950 . S
H3870 C3899 0.950 . S
H3871 C3900 0.950 . S
H3872 C3902 0.950 . S
H3873 C3903 0.950 . S
C3874 H3856 0.951 . S
C3874 C3875 1.366 . S
C3874 C3876 1.388 . S
C3875 C3874 1.366 . S
C3875 C3879 1.385 . S
C3876 H3857 0.951 . S
C3876 C3874 1.388 . S
C3876 C3877 1.366 . S
C3877 C3876 1.366 . S
C3877 C3878 1.414 . S
C3877 C3880 1.499 . S
C3878 H3858 0.950 . S
C3878 C3877 1.414 . S
C3878 C3879 1.374 . S
C3879 H3859 0.950 . S
C3879 C3875 1.385 . S
C3879 C3878 1.374 . S
C3880 C3877 1.499 . S
C3880 C3881 1.373 . S
C3880 C3882 1.389 . S
C3881 H3860 0.950 . S
C3881 C3880 1.373 . S
C3881 C3897 1.377 . S
C3882 C3880 1.389 . S
C3882 C3883 1.524 . S
C3882 C3896 1.377 . S
C3883 C3882 1.524 . S
C3883 C3884 1.397 . S
C3883 C3888 1.363 . S
C3884 H3861 0.950 . S
C3884 C3883 1.397 . S
C3884 C3885 1.334 . S
C3885 H3862 0.950 . S
C3885 C3884 1.334 . S
C3885 C3886 1.287 . S
C3886 C3885 1.287 . S
C3886 C3887 1.524 . S
C3886 H3905 0.913 . S
C3887 H3863 0.950 . S
C3887 C3886 1.524 . S
C3887 C3888 1.415 . S
C3888 H3864 0.950 . S
C3888 C3883 1.363 . S
C3888 C3887 1.415 . S
C3889 H3865 0.951 . S
C3889 C3890 1.366 . S
C3889 C3891 1.388 . S
C3890 C3889 1.366 . S
C3890 C3894 1.385 . S
C3891 H3866 0.951 . S
C3891 C3889 1.388 . S
C3891 C3892 1.366 . S
C3892 C3891 1.366 . S
C3892 C3893 1.414 . S
C3892 C3895 1.499 . S
C3893 H3867 0.950 . S
C3893 C3892 1.414 . S
C3893 C3894 1.374 . S
C3894 H3868 0.950 . S
C3894 C3890 1.385 . S
C3894 C3893 1.374 . S
C3895 C3892 1.499 . S
C3895 C3896 1.373 . S
C3895 C3897 1.389 . S
C3896 H3869 0.950 . S
C3896 C3882 1.377 . S
C3896 C3895 1.373 . S
C3897 C3881 1.377 . S
C3897 C3895 1.389 . S
C3897 C3898 1.524 . S
C3898 C3897 1.524 . S
C3898 C3899 1.397 . S
C3898 C3903 1.363 . S
C3899 H3870 0.950 . S
C3899 C3898 1.397 . S
C3899 C3900 1.334 . S
C3900 H3871 0.950 . S
C3900 C3899 1.334 . S
C3900 C3901 1.287 . S
C3901 C3900 1.287 . S
C3901 C3902 1.524 . S
C3901 H3904 0.999 . S
C3902 H3872 0.950 . S
C3902 C3901 1.524 . S
C3902 C3903 1.415 . S
C3903 H3873 0.950 . S
C3903 C3898 1.363 . S
C3903 C3902 1.415 . S
H3904 C3901 0.999 . S
H3905 C3886 0.913 . S
H3906 C3924 0.951 . S
H3907 C3926 0.951 . S
H3908 C3928 0.950 . S
H3909 C3929 0.950 . S
H3910 C3931 0.950 . S
H3911 C3934 0.950 . S
H3912 C3935 0.950 . S
H3913 C3937 0.950 . S
H3914 C3938 0.950 . S
H3915 C3939 0.951 . S
H3916 C3941 0.951 . S
H3917 C3943 0.950 . S
H3918 C3944 0.950 . S
H3919 C3946 0.950 . S
H3920 C3949 0.950 . S
H3921 C3950 0.950 . S
H3922 C3952 0.950 . S
H3923 C3953 0.950 . S
C3924 H3906 0.951 . S
C3924 C3925 1.366 . S
C3924 C3926 1.388 . S
C3925 C3924 1.366 . S
C3925 C3929 1.385 . S
C3926 H3907 0.951 . S
C3926 C3924 1.388 . S
C3926 C3927 1.366 . S
C3927 C3926 1.366 . S
C3927 C3928 1.414 . S
C3927 C3930 1.499 . S
C3928 H3908 0.950 . S
C3928 C3927 1.414 . S
C3928 C3929 1.374 . S
C3929 H3909 0.950 . S
C3929 C3925 1.385 . S
C3929 C3928 1.374 . S
C3930 C3927 1.499 . S
C3930 C3931 1.373 . S
C3930 C3932 1.389 . S
C3931 H3910 0.950 . S
C3931 C3930 1.373 . S
C3931 C3947 1.377 . S
C3932 C3930 1.389 . S
C3932 C3933 1.524 . S
C3932 C3946 1.377 . S
C3933 C3932 1.524 . S
C3933 C3934 1.397 . S
C3933 C3938 1.363 . S
C3934 H3911 0.950 . S
C3934 C3933 1.397 . S
C3934 C3935 1.334 . S
C3935 H3912 0.950 . S
C3935 C3934 1.334 . S
C3935 C3936 1.287 . S
C3936 C3935 1.287 . S
C3936 C3937 1.524 . S
C3936 H3955 0.913 . S
C3937 H3913 0.950 . S
C3937 C3936 1.524 . S
C3937 C3938 1.415 . S
C3938 H3914 0.950 . S
C3938 C3933 1.363 . S
C3938 C3937 1.415 . S
C3939 H3915 0.951 . S
C3939 C3940 1.366 . S
C3939 C3941 1.388 . S
C3940 C3939 1.366 . S
C3940 C3944 1.385 . S
C3941 H3916 0.951 . S
C3941 C3939 1.388 . S
C3941 C3942 1.366 . S
C3942 C3941 1.366 . S
C3942 C3943 1.414 . S
C3942 C3945 1.499 . S
C3943 H3917 0.950 . S
C3943 C3942 1.414 . S
C3943 C3944 1.374 . S
C3944 H3918 0.950 . S
C3944 C3940 1.385 . S
C3944 C3943 1.374 . S
C3945 C3942 1.499 . S
C3945 C3946 1.373 . S
C3945 C3947 1.389 . S
C3946 H3919 0.950 . S
C3946 C3932 1.377 . S
C3946 C3945 1.373 . S
C3947 C3931 1.377 . S
C3947 C3945 1.389 . S
C3947 C3948 1.524 . S
C3948 C3947 1.524 . S
C3948 C3949 1.397 . S
C3948 C3953 1.363 . S
C3949 H3920 0.950 . S
C3949 C3948 1.397 . S
C3949 C3950 1.334 . S
C3950 H3921 0.950 . S
C3950 C3949 1.334 . S
C3950 C3951 1.287 . S
C3951 C3950 1.287 . S
C3951 C3952 1.524 . S
C3951 H3954 0.999 . S
C3952 H3922 0.950 . S
C3952 C3951 1.524 . S
C3952 C3953 1.415 . S
C3953 H3923 0.950 . S
C3953 C3948 1.363 . S
C3953 C3952 1.415 . S
H3954 C3951 0.999 . S
H3955 C3936 0.913 . S
H3956 C3974 0.951 . S
H3957 C3976 0.951 . S
H3958 C3978 0.950 . S
H3959 C3979 0.950 . S
H3960 C3981 0.950 . S
H3961 C3984 0.950 . S
H3962 C3985 0.950 . S
H3963 C3987 0.950 . S
H3964 C3988 0.950 . S
H3965 C3989 0.951 . S
H3966 C3991 0.951 . S
H3967 C3993 0.950 . S
H3968 C3994 0.950 . S
H3969 C3996 0.950 . S
H3970 C3999 0.950 . S
H3971 C4000 0.950 . S
H3972 C4002 0.950 . S
H3973 C4003 0.950 . S
C3974 H3956 0.951 . S
C3974 C3975 1.366 . S
C3974 C3976 1.388 . S
C3975 C3974 1.366 . S
C3975 C3979 1.385 . S
C3976 H3957 0.951 . S
C3976 C3974 1.388 . S
C3976 C3977 1.366 . S
C3977 C3976 1.366 . S
C3977 C3978 1.414 . S
C3977 C3980 1.499 . S
C3978 H3958 0.950 . S
C3978 C3977 1.414 . S
C3978 C3979 1.374 . S
C3979 H3959 0.950 . S
C3979 C3975 1.385 . S
C3979 C3978 1.374 . S
C3980 C3977 1.499 . S
C3980 C3981 1.373 . S
C3980 C3982 1.389 . S
C3981 H3960 0.950 . S
C3981 C3980 1.373 . S
C3981 C3997 1.377 . S
C3982 C3980 1.389 . S
C3982 C3983 1.524 . S
C3982 C3996 1.377 . S
C3983 C3982 1.524 . S
C3983 C3984 1.397 . S
C3983 C3988 1.363 . S
C3984 H3961 0.950 . S
C3984 C3983 1.397 . S
C3984 C3985 1.334 . S
C3985 H3962 0.950 . S
C3985 C3984 1.334 . S
C3985 C3986 1.287 . S
C3986 C3985 1.287 . S
C3986 C3987 1.524 . S
C3986 H4005 0.913 . S
C3987 H3963 0.950 . S
C3987 C3986 1.524 . S
C3987 C3988 1.415 . S
C3988 H3964 0.950 . S
C3988 C3983 1.363 . S
C3988 C3987 1.415 . S
C3989 H3965 0.951 . S
C3989 C3990 1.366 . S
C3989 C3991 1.388 . S
C3990 C3989 1.366 . S
C3990 C3994 1.385 . S
C3991 H3966 0.951 . S
C3991 C3989 1.388 . S
C3991 C3992 1.366 . S
C3992 C3991 1.366 . S
C3992 C3993 1.414 . S
C3992 C3995 1.499 . S
C3993 H3967 0.950 . S
C3993 C3992 1.414 . S
C3993 C3994 1.374 . S
C3994 H3968 0.950 . S
C3994 C3990 1.385 . S
C3994 C3993 1.374 . S
C3995 C3992 1.499 . S
C3995 C3996 1.373 . S
C3995 C3997 1.389 . S
C3996 H3969 0.950 . S
C3996 C3982 1.377 . S
C3996 C3995 1.373 . S
C3997 C3981 1.377 . S
C3997 C3995 1.389 . S
C3997 C3998 1.524 . S
C3998 C3997 1.524 . S
C3998 C3999 1.397 . S
C3998 C4003 1.363 . S
C3999 H3970 0.950 . S
C3999 C3998 1.397 . S
C3999 C4000 1.334 . S
C4000 H3971 0.950 . S
C4000 C3999 1.334 . S
C4000 C4001 1.287 . S
C4001 C4000 1.287 . S
C4001 C4002 1.524 . S
C4001 H4004 0.999 . S
C4002 H3972 0.950 . S
C4002 C4001 1.524 . S
C4002 C4003 1.415 . S
C4003 H3973 0.950 . S
C4003 C3998 1.363 . S
C4003 C4002 1.415 . S
H4004 C4001 0.999 . S
H4005 C3986 0.913 . S
H4006 C4024 0.951 . S
H4007 C4026 0.951 . S
H4008 C4028 0.950 . S
H4009 C4029 0.950 . S
H4010 C4031 0.950 1_556 S
H4011 C4034 0.950 . S
H4012 C4035 0.950 . S
H4013 C4037 0.950 . S
H4014 C4038 0.950 . S
H4015 C4039 0.951 1_556 S
H4016 C4041 0.951 1_556 S
H4017 C4043 0.950 . S
H4018 C4044 0.950 . S
H4019 C4046 0.950 . S
H4020 C4049 0.950 . S
H4021 C4050 0.950 . S
H4022 C4052 0.950 . S
H4023 C4053 0.950 . S
C4024 H4006 0.951 . S
C4024 C4025 1.366 . S
C4024 C4026 1.388 . S
C4025 C4024 1.366 . S
C4025 C4029 1.385 . S
C4026 H4007 0.951 . S
C4026 C4024 1.388 . S
C4026 C4027 1.366 . S
C4027 C4026 1.366 . S
C4027 C4028 1.414 . S
C4027 C4030 1.499 . S
C4028 H4008 0.950 . S
C4028 C4027 1.414 . S
C4028 C4029 1.374 . S
C4029 H4009 0.950 . S
C4029 C4025 1.385 . S
C4029 C4028 1.374 . S
C4030 C4027 1.499 . S
C4030 C4031 1.373 . S
C4030 C4032 1.389 . S
C4031 H4010 0.950 1_554 S
C4031 C4030 1.373 . S
C4031 C4047 1.377 . S
C4032 C4030 1.389 . S
C4032 C4033 1.524 . S
C4032 C4046 1.377 . S
C4033 C4032 1.524 . S
C4033 C4034 1.397 . S
C4033 C4038 1.363 . S
C4034 H4011 0.950 . S
C4034 C4033 1.397 . S
C4034 C4035 1.334 . S
C4035 H4012 0.950 . S
C4035 C4034 1.334 . S
C4035 C4036 1.287 . S
C4036 C4035 1.287 . S
C4036 C4037 1.524 . S
C4036 H4055 0.913 . S
C4037 H4013 0.950 . S
C4037 C4036 1.524 . S
C4037 C4038 1.415 . S
C4038 H4014 0.950 . S
C4038 C4033 1.363 . S
C4038 C4037 1.415 . S
C4039 H4015 0.951 1_554 S
C4039 C4040 1.366 . S
C4039 C4041 1.388 . S
C4040 C4039 1.366 . S
C4040 C4044 1.385 1_545 S
C4041 H4016 0.951 1_554 S
C4041 C4039 1.388 . S
C4041 C4042 1.366 1_545 S
C4042 C4041 1.366 1_565 S
C4042 C4043 1.414 . S
C4042 C4045 1.499 . S
C4043 H4017 0.950 . S
C4043 C4042 1.414 . S
C4043 C4044 1.374 . S
C4044 H4018 0.950 . S
C4044 C4040 1.385 1_565 S
C4044 C4043 1.374 . S
C4045 C4042 1.499 . S
C4045 C4046 1.373 . S
C4045 C4047 1.389 . S
C4046 H4019 0.950 . S
C4046 C4032 1.377 . S
C4046 C4045 1.373 . S
C4047 C4031 1.377 . S
C4047 C4045 1.389 . S
C4047 C4048 1.524 1_554 S
C4048 C4047 1.524 1_556 S
C4048 C4049 1.397 . S
C4048 C4053 1.363 . S
C4049 H4020 0.950 . S
C4049 C4048 1.397 . S
C4049 C4050 1.334 . S
C4050 H4021 0.950 . S
C4050 C4049 1.334 . S
C4050 C4051 1.287 . S
C4051 C4050 1.287 . S
C4051 C4052 1.524 . S
C4051 H4054 0.999 . S
C4052 H4022 0.950 . S
C4052 C4051 1.524 . S
C4052 C4053 1.415 . S
C4053 H4023 0.950 . S
C4053 C4048 1.363 . S
C4053 C4052 1.415 . S
H4054 C4051 0.999 . S
H4055 C4036 0.913 . S
H4056 C4074 0.951 . S
H4057 C4076 0.951 . S
H4058 C4078 0.950 . S
H4059 C4079 0.950 . S
H4060 C4081 0.950 . S
H4061 C4084 0.950 . S
H4062 C4085 0.950 . S
H4063 C4087 0.950 . S
H4064 C4088 0.950 . S
H4065 C4089 0.951 . S
H4066 C4091 0.951 . S
H4067 C4093 0.950 . S
H4068 C4094 0.950 . S
H4069 C4096 0.950 . S
H4070 C4099 0.950 . S
H4071 C4100 0.950 . S
H4072 C4102 0.950 . S
H4073 C4103 0.950 . S
C4074 H4056 0.951 . S
C4074 C4075 1.366 . S
C4074 C4076 1.388 . S
C4075 C4074 1.366 . S
C4075 C4079 1.385 . S
C4076 H4057 0.951 . S
C4076 C4074 1.388 . S
C4076 C4077 1.366 . S
C4077 C4076 1.366 . S
C4077 C4078 1.414 . S
C4077 C4080 1.499 . S
C4078 H4058 0.950 . S
C4078 C4077 1.414 . S
C4078 C4079 1.374 . S
C4079 H4059 0.950 . S
C4079 C4075 1.385 . S
C4079 C4078 1.374 . S
C4080 C4077 1.499 . S
C4080 C4081 1.373 . S
C4080 C4082 1.389 . S
C4081 H4060 0.950 . S
C4081 C4080 1.373 . S
C4081 C4097 1.377 . S
C4082 C4080 1.389 . S
C4082 C4083 1.524 . S
C4082 C4096 1.377 . S
C4083 C4082 1.524 . S
C4083 C4084 1.397 . S
C4083 C4088 1.363 . S
C4084 H4061 0.950 . S
C4084 C4083 1.397 . S
C4084 C4085 1.334 . S
C4085 H4062 0.950 . S
C4085 C4084 1.334 . S
C4085 C4086 1.287 . S
C4086 C4085 1.287 . S
C4086 C4087 1.524 . S
C4086 H4105 0.913 . S
C4087 H4063 0.950 . S
C4087 C4086 1.524 . S
C4087 C4088 1.415 . S
C4088 H4064 0.950 . S
C4088 C4083 1.363 . S
C4088 C4087 1.415 . S
C4089 H4065 0.951 . S
C4089 C4090 1.366 . S
C4089 C4091 1.388 . S
C4090 C4089 1.366 . S
C4090 C4094 1.385 . S
C4091 H4066 0.951 . S
C4091 C4089 1.388 . S
C4091 C4092 1.366 . S
C4092 C4091 1.366 . S
C4092 C4093 1.414 . S
C4092 C4095 1.499 . S
C4093 H4067 0.950 . S
C4093 C4092 1.414 . S
C4093 C4094 1.374 . S
C4094 H4068 0.950 . S
C4094 C4090 1.385 . S
C4094 C4093 1.374 . S
C4095 C4092 1.499 . S
C4095 C4096 1.373 . S
C4095 C4097 1.389 . S
C4096 H4069 0.950 . S
C4096 C4082 1.377 . S
C4096 C4095 1.373 . S
C4097 C4081 1.377 . S
C4097 C4095 1.389 . S
C4097 C4098 1.524 . S
C4098 C4097 1.524 . S
C4098 C4099 1.397 . S
C4098 C4103 1.363 . S
C4099 H4070 0.950 . S
C4099 C4098 1.397 . S
C4099 C4100 1.334 . S
C4100 H4071 0.950 . S
C4100 C4099 1.334 . S
C4100 C4101 1.287 . S
C4101 C4100 1.287 . S
C4101 C4102 1.524 . S
C4101 H4104 0.999 . S
C4102 H4072 0.950 . S
C4102 C4101 1.524 . S
C4102 C4103 1.415 . S
C4103 H4073 0.950 . S
C4103 C4098 1.363 . S
C4103 C4102 1.415 . S
H4104 C4101 0.999 . S
H4105 C4086 0.913 . S
H4106 C4124 0.951 . S
H4107 C4126 0.951 . S
H4108 C4128 0.950 1_556 S
H4109 C4129 0.969 . S
H4110 C4131 0.950 . S
H4111 C4134 0.950 . S
H4112 C4135 0.950 . S
H4113 C4137 0.950 . S
H4114 C4138 0.950 . S
H4115 C4139 0.951 . S
H4116 C4141 0.949 1_556 S
H4117 C4143 0.950 . S
H4118 C4144 0.950 . S
H4119 C4146 0.950 . S
H4120 C4149 0.950 . S
H4121 C4150 0.950 . S
H4122 C4152 0.950 . S
H4123 C4153 0.950 . S
C4124 H4106 0.951 . S
C4124 C4125 1.366 . S
C4124 C4126 1.388 . S
C4125 C4124 1.366 . S
C4125 C4129 1.368 1_554 S
C4126 H4107 0.951 . S
C4126 C4124 1.388 . S
C4126 C4127 1.366 . S
C4127 C4126 1.366 . S
C4127 C4128 1.414 . S
C4127 C4130 1.499 . S
C4128 H4108 0.950 1_554 S
C4128 C4127 1.414 . S
C4128 C4129 1.372 1_554 S
C4129 H4109 0.969 . S
C4129 C4125 1.368 1_556 S
C4129 C4128 1.372 1_556 S
C4130 C4127 1.499 . S
C4130 C4131 1.373 . S
C4130 C4132 1.389 . S
C4131 H4110 0.950 . S
C4131 C4130 1.373 . S
C4131 C4147 1.377 . S
C4132 C4130 1.389 . S
C4132 C4133 1.524 . S
C4132 C4146 1.377 . S
C4133 C4132 1.524 . S
C4133 C4134 1.397 . S
C4133 C4138 1.363 . S
C4134 H4111 0.950 . S
C4134 C4133 1.397 . S
C4134 C4135 1.334 . S
C4135 H4112 0.950 . S
C4135 C4134 1.334 . S
C4135 C4136 1.287 . S
C4136 C4135 1.287 . S
C4136 C4137 1.524 . S
C4136 H4155 0.913 . S
C4137 H4113 0.950 . S
C4137 C4136 1.524 . S
C4137 C4138 1.415 . S
C4138 H4114 0.950 . S
C4138 C4133 1.363 . S
C4138 C4137 1.415 . S
C4139 H4115 0.951 . S
C4139 C4140 1.366 . S
C4139 C4141 1.388 . S
C4140 C4139 1.366 . S
C4140 C4144 1.385 . S
C4141 H4116 0.949 1_554 S
C4141 C4139 1.388 . S
C4141 C4142 1.366 . S
C4142 C4141 1.366 . S
C4142 C4143 1.414 . S
C4142 C4145 1.499 . S
C4143 H4117 0.950 . S
C4143 C4142 1.414 . S
C4143 C4144 1.374 . S
C4144 H4118 0.950 . S
C4144 C4140 1.385 . S
C4144 C4143 1.374 . S
C4145 C4142 1.499 . S
C4145 C4146 1.373 . S
C4145 C4147 1.389 . S
C4146 H4119 0.950 . S
C4146 C4132 1.377 . S
C4146 C4145 1.373 . S
C4147 C4131 1.377 . S
C4147 C4145 1.389 . S
C4147 C4148 1.524 . S
C4148 C4147 1.524 . S
C4148 C4149 1.397 . S
C4148 C4153 1.363 1_554 S
C4149 H4120 0.950 . S
C4149 C4148 1.397 . S
C4149 C4150 1.334 . S
C4150 H4121 0.950 . S
C4150 C4149 1.334 . S
C4150 C4151 1.287 . S
C4151 C4150 1.287 . S
C4151 C4152 1.524 1_554 S
C4151 H4154 0.999 . S
C4152 H4122 0.950 . S
C4152 C4151 1.524 1_556 S
C4152 C4153 1.415 . S
C4153 H4123 0.950 . S
C4153 C4148 1.363 1_556 S
C4153 C4152 1.415 . S
H4154 C4151 0.999 . S
H4155 C4136 0.913 . S
H4156 C4174 0.951 . S
H4157 C4176 0.951 . S
H4158 C4178 0.950 . S
H4159 C4179 0.950 . S
H4160 C4181 0.950 . S
H4161 C4184 0.950 . S
H4162 C4185 0.950 . S
H4163 C4187 0.950 . S
H4164 C4188 0.950 . S
H4165 C4189 0.951 . S
H4166 C4191 0.951 . S
H4167 C4193 0.950 . S
H4168 C4194 0.950 . S
H4169 C4196 0.950 . S
H4170 C4199 0.950 . S
H4171 C4200 0.950 . S
H4172 C4202 0.950 . S
H4173 C4203 0.950 . S
C4174 H4156 0.951 . S
C4174 C4175 1.366 . S
C4174 C4176 1.388 . S
C4175 C4174 1.366 . S
C4175 C4179 1.385 . S
C4176 H4157 0.951 . S
C4176 C4174 1.388 . S
C4176 C4177 1.366 . S
C4177 C4176 1.366 . S
C4177 C4178 1.414 . S
C4177 C4180 1.499 . S
C4178 H4158 0.950 . S
C4178 C4177 1.414 . S
C4178 C4179 1.374 . S
C4179 H4159 0.950 . S
C4179 C4175 1.385 . S
C4179 C4178 1.374 . S
C4180 C4177 1.499 . S
C4180 C4181 1.373 . S
C4180 C4182 1.389 . S
C4181 H4160 0.950 . S
C4181 C4180 1.373 . S
C4181 C4197 1.377 . S
C4182 C4180 1.389 . S
C4182 C4183 1.524 . S
C4182 C4196 1.377 . S
C4183 C4182 1.524 . S
C4183 C4184 1.397 . S
C4183 C4188 1.363 . S
C4184 H4161 0.950 . S
C4184 C4183 1.397 . S
C4184 C4185 1.334 . S
C4185 H4162 0.950 . S
C4185 C4184 1.334 . S
C4185 C4186 1.287 . S
C4186 C4185 1.287 . S
C4186 C4187 1.524 . S
C4186 H4205 0.913 . S
C4187 H4163 0.950 . S
C4187 C4186 1.524 . S
C4187 C4188 1.415 . S
C4188 H4164 0.950 . S
C4188 C4183 1.363 . S
C4188 C4187 1.415 . S
C4189 H4165 0.951 . S
C4189 C4190 1.366 . S
C4189 C4191 1.388 . S
C4190 C4189 1.366 . S
C4190 C4194 1.385 . S
C4191 H4166 0.951 . S
C4191 C4189 1.388 . S
C4191 C4192 1.366 . S
C4192 C4191 1.366 . S
C4192 C4193 1.414 . S
C4192 C4195 1.499 . S
C4193 H4167 0.950 . S
C4193 C4192 1.414 . S
C4193 C4194 1.374 . S
C4194 H4168 0.950 . S
C4194 C4190 1.385 . S
C4194 C4193 1.374 . S
C4195 C4192 1.499 . S
C4195 C4196 1.373 . S
C4195 C4197 1.389 . S
C4196 H4169 0.950 . S
C4196 C4182 1.377 . S
C4196 C4195 1.373 . S
C4197 C4181 1.377 . S
C4197 C4195 1.389 . S
C4197 C4198 1.524 . S
C4198 C4197 1.524 . S
C4198 C4199 1.397 . S
C4198 C4203 1.363 . S
C4199 H4170 0.950 . S
C4199 C4198 1.397 . S
C4199 C4200 1.334 . S
C4200 H4171 0.950 . S
C4200 C4199 1.334 . S
C4200 C4201 1.287 . S
C4201 C4200 1.287 . S
C4201 C4202 1.524 . S
C4201 H4204 0.999 . S
C4202 H4172 0.950 . S
C4202 C4201 1.524 . S
C4202 C4203 1.415 . S
C4203 H4173 0.950 . S
C4203 C4198 1.363 . S
C4203 C4202 1.415 . S
H4204 C4201 0.999 . S
H4205 C4186 0.913 . S
H4206 C4224 0.951 . S
H4207 C4226 0.951 . S
H4208 C4228 0.950 . S
H4209 C4229 0.950 . S
H4210 C4231 0.950 . S
H4211 C4234 0.950 . S
H4212 C4235 0.950 . S
H4213 C4237 0.950 . S
H4214 C4238 0.950 . S
H4215 C4239 0.951 . S
H4216 C4241 0.951 . S
H4217 C4243 0.950 . S
H4218 C4244 0.950 . S
H4219 C4246 0.950 . S
H4220 C4249 0.950 . S
H4221 C4250 0.950 . S
H4222 C4252 0.950 . S
H4223 C4253 0.950 . S
C4224 H4206 0.951 . S
C4224 C4225 1.366 . S
C4224 C4226 1.388 . S
C4225 C4224 1.366 . S
C4225 C4229 1.385 . S
C4226 H4207 0.951 . S
C4226 C4224 1.388 . S
C4226 C4227 1.366 . S
C4227 C4226 1.366 . S
C4227 C4228 1.414 . S
C4227 C4230 1.499 . S
C4228 H4208 0.950 . S
C4228 C4227 1.414 . S
C4228 C4229 1.374 . S
C4229 H4209 0.950 . S
C4229 C4225 1.385 . S
C4229 C4228 1.374 . S
C4230 C4227 1.499 . S
C4230 C4231 1.373 . S
C4230 C4232 1.389 . S
C4231 H4210 0.950 . S
C4231 C4230 1.373 . S
C4231 C4247 1.377 . S
C4232 C4230 1.389 . S
C4232 C4233 1.524 . S
C4232 C4246 1.377 . S
C4233 C4232 1.524 . S
C4233 C4234 1.397 . S
C4233 C4238 1.363 . S
C4234 H4211 0.950 . S
C4234 C4233 1.397 . S
C4234 C4235 1.334 . S
C4235 H4212 0.950 . S
C4235 C4234 1.334 . S
C4235 C4236 1.287 . S
C4236 C4235 1.287 . S
C4236 C4237 1.524 . S
C4236 H4255 0.913 . S
C4237 H4213 0.950 . S
C4237 C4236 1.524 . S
C4237 C4238 1.415 . S
C4238 H4214 0.950 . S
C4238 C4233 1.363 . S
C4238 C4237 1.415 . S
C4239 H4215 0.951 . S
C4239 C4240 1.366 . S
C4239 C4241 1.388 . S
C4240 C4239 1.366 . S
C4240 C4244 1.385 . S
C4241 H4216 0.951 . S
C4241 C4239 1.388 . S
C4241 C4242 1.366 . S
C4242 C4241 1.366 . S
C4242 C4243 1.414 . S
C4242 C4245 1.499 . S
C4243 H4217 0.950 . S
C4243 C4242 1.414 . S
C4243 C4244 1.374 . S
C4244 H4218 0.950 . S
C4244 C4240 1.385 . S
C4244 C4243 1.374 . S
C4245 C4242 1.499 . S
C4245 C4246 1.373 . S
C4245 C4247 1.389 . S
C4246 H4219 0.950 . S
C4246 C4232 1.377 . S
C4246 C4245 1.373 . S
C4247 C4231 1.377 . S
C4247 C4245 1.389 . S
C4247 C4248 1.524 . S
C4248 C4247 1.524 . S
C4248 C4249 1.397 . S
C4248 C4253 1.363 . S
C4249 H4220 0.950 . S
C4249 C4248 1.397 . S
C4249 C4250 1.334 . S
C4250 H4221 0.950 . S
C4250 C4249 1.334 . S
C4250 C4251 1.287 . S
C4251 C4250 1.287 . S
C4251 C4252 1.524 . S
C4251 H4254 0.999 . S
C4252 H4222 0.950 . S
C4252 C4251 1.524 . S
C4252 C4253 1.415 . S
C4253 H4223 0.950 . S
C4253 C4248 1.363 . S
C4253 C4252 1.415 . S
H4254 C4251 0.999 . S
H4255 C4236 0.913 . S
H4256 C4274 0.951 . S
H4257 C4276 0.951 . S
H4258 C4278 0.950 . S
H4259 C4279 0.950 . S
H4260 C4281 0.950 . S
H4261 C4284 0.950 . S
H4262 C4285 0.950 . S
H4263 C4287 0.950 . S
H4264 C4288 0.950 . S
H4265 C4289 0.951 . S
H4266 C4291 0.951 . S
H4267 C4293 0.950 . S
H4268 C4294 0.950 . S
H4269 C4296 0.950 . S
H4270 C4299 0.950 . S
H4271 C4300 0.950 . S
H4272 C4302 0.950 . S
H4273 C4303 0.950 . S
C4274 H4256 0.951 . S
C4274 C4275 1.366 . S
C4274 C4276 1.388 . S
C4275 C4274 1.366 . S
C4275 C4279 1.385 . S
C4276 H4257 0.951 . S
C4276 C4274 1.388 . S
C4276 C4277 1.366 . S
C4277 C4276 1.366 . S
C4277 C4278 1.414 . S
C4277 C4280 1.499 . S
C4278 H4258 0.950 . S
C4278 C4277 1.414 . S
C4278 C4279 1.374 . S
C4279 H4259 0.950 . S
C4279 C4275 1.385 . S
C4279 C4278 1.374 . S
C4280 C4277 1.499 . S
C4280 C4281 1.373 . S
C4280 C4282 1.389 . S
C4281 H4260 0.950 . S
C4281 C4280 1.373 . S
C4281 C4297 1.377 . S
C4282 C4280 1.389 . S
C4282 C4283 1.524 . S
C4282 C4296 1.377 . S
C4283 C4282 1.524 . S
C4283 C4284 1.397 . S
C4283 C4288 1.363 . S
C4284 H4261 0.950 . S
C4284 C4283 1.397 . S
C4284 C4285 1.334 . S
C4285 H4262 0.950 . S
C4285 C4284 1.334 . S
C4285 C4286 1.287 . S
C4286 C4285 1.287 . S
C4286 C4287 1.524 . S
C4286 H4305 0.913 . S
C4287 H4263 0.950 . S
C4287 C4286 1.524 . S
C4287 C4288 1.415 . S
C4288 H4264 0.950 . S
C4288 C4283 1.363 . S
C4288 C4287 1.415 . S
C4289 H4265 0.951 . S
C4289 C4290 1.366 . S
C4289 C4291 1.388 . S
C4290 C4289 1.366 . S
C4290 C4294 1.385 . S
C4291 H4266 0.951 . S
C4291 C4289 1.388 . S
C4291 C4292 1.366 . S
C4292 C4291 1.366 . S
C4292 C4293 1.414 . S
C4292 C4295 1.499 . S
C4293 H4267 0.950 . S
C4293 C4292 1.414 . S
C4293 C4294 1.374 . S
C4294 H4268 0.950 . S
C4294 C4290 1.385 . S
C4294 C4293 1.374 . S
C4295 C4292 1.499 . S
C4295 C4296 1.373 . S
C4295 C4297 1.389 . S
C4296 H4269 0.950 . S
C4296 C4282 1.377 . S
C4296 C4295 1.373 . S
C4297 C4281 1.377 . S
C4297 C4295 1.389 . S
C4297 C4298 1.524 . S
C4298 C4297 1.524 . S
C4298 C4299 1.397 . S
C4298 C4303 1.363 . S
C4299 H4270 0.950 . S
C4299 C4298 1.397 . S
C4299 C4300 1.334 . S
C4300 H4271 0.950 . S
C4300 C4299 1.334 . S
C4300 C4301 1.287 . S
C4301 C4300 1.287 . S
C4301 C4302 1.524 . S
C4301 H4304 0.999 . S
C4302 H4272 0.950 . S
C4302 C4301 1.524 . S
C4302 C4303 1.415 . S
C4303 H4273 0.950 . S
C4303 C4298 1.363 . S
C4303 C4302 1.415 . S
H4304 C4301 0.999 . S
H4305 C4286 0.913 . S
H4306 C4324 0.951 . S
H4307 C4326 0.951 . S
H4308 C4328 0.950 . S
H4309 C4329 0.950 . S
H4310 C4331 0.950 . S
H4311 C4334 0.950 . S
H4312 C4335 0.950 . S
H4313 C4337 0.950 . S
H4314 C4338 0.950 . S
H4315 C4339 0.951 . S
H4316 C4341 0.951 . S
H4317 C4343 0.950 . S
H4318 C4344 0.950 . S
H4319 C4346 0.950 . S
H4320 C4349 0.950 . S
H4321 C4350 0.950 . S
H4322 C4352 0.950 . S
H4323 C4353 0.950 . S
C4324 H4306 0.951 . S
C4324 C4325 1.366 . S
C4324 C4326 1.388 . S
C4325 C4324 1.366 . S
C4325 C4329 1.385 . S
C4326 H4307 0.951 . S
C4326 C4324 1.388 . S
C4326 C4327 1.366 . S
C4327 C4326 1.366 . S
C4327 C4328 1.414 . S
C4327 C4330 1.499 . S
C4328 H4308 0.950 . S
C4328 C4327 1.414 . S
C4328 C4329 1.374 . S
C4329 H4309 0.950 . S
C4329 C4325 1.385 . S
C4329 C4328 1.374 . S
C4330 C4327 1.499 . S
C4330 C4331 1.373 . S
C4330 C4332 1.389 . S
C4331 H4310 0.950 . S
C4331 C4330 1.373 . S
C4331 C4347 1.377 . S
C4332 C4330 1.389 . S
C4332 C4333 1.524 . S
C4332 C4346 1.377 . S
C4333 C4332 1.524 . S
C4333 C4334 1.397 . S
C4333 C4338 1.363 . S
C4334 H4311 0.950 . S
C4334 C4333 1.397 . S
C4334 C4335 1.334 . S
C4335 H4312 0.950 . S
C4335 C4334 1.334 . S
C4335 C4336 1.287 . S
C4336 C4335 1.287 . S
C4336 C4337 1.524 . S
C4336 H4355 0.913 . S
C4337 H4313 0.950 . S
C4337 C4336 1.524 . S
C4337 C4338 1.415 . S
C4338 H4314 0.950 . S
C4338 C4333 1.363 . S
C4338 C4337 1.415 . S
C4339 H4315 0.951 . S
C4339 C4340 1.366 . S
C4339 C4341 1.388 . S
C4340 C4339 1.366 . S
C4340 C4344 1.385 . S
C4341 H4316 0.951 . S
C4341 C4339 1.388 . S
C4341 C4342 1.366 . S
C4342 C4341 1.366 . S
C4342 C4343 1.414 . S
C4342 C4345 1.499 . S
C4343 H4317 0.950 . S
C4343 C4342 1.414 . S
C4343 C4344 1.374 . S
C4344 H4318 0.950 . S
C4344 C4340 1.385 . S
C4344 C4343 1.374 . S
C4345 C4342 1.499 . S
C4345 C4346 1.373 . S
C4345 C4347 1.389 . S
C4346 H4319 0.950 . S
C4346 C4332 1.377 . S
C4346 C4345 1.373 . S
C4347 C4331 1.377 . S
C4347 C4345 1.389 . S
C4347 C4348 1.524 . S
C4348 C4347 1.524 . S
C4348 C4349 1.397 . S
C4348 C4353 1.363 . S
C4349 H4320 0.950 . S
C4349 C4348 1.397 . S
C4349 C4350 1.334 . S
C4350 H4321 0.950 . S
C4350 C4349 1.334 . S
C4350 C4351 1.287 . S
C4351 C4350 1.287 . S
C4351 C4352 1.524 . S
C4351 H4354 0.999 . S
C4352 H4322 0.950 . S
C4352 C4351 1.524 . S
C4352 C4353 1.415 . S
C4353 H4323 0.950 . S
C4353 C4348 1.363 . S
C4353 C4352 1.415 . S
H4354 C4351 0.999 . S
H4355 C4336 0.913 . S
H4356 C4374 0.951 . S
H4357 C4376 0.951 . S
H4358 C4378 0.950 1_655 S
H4359 C4379 0.950 1_655 S
H4360 C4381 0.950 . S
H4361 C4384 0.950 . S
H4362 C4385 0.950 . S
H4363 C4387 0.950 . S
H4364 C4388 0.950 . S
H4365 C4389 0.951 1_655 S
H4366 C4391 0.951 1_655 S
H4367 C4393 0.950 . S
H4368 C4394 0.950 . S
H4369 C4396 0.950 . S
H4370 C4399 0.950 . S
H4371 C4400 0.950 . S
H4372 C4402 0.950 . S
H4373 C4403 0.950 . S
C4374 H4356 0.951 . S
C4374 C4375 1.366 . S
C4374 C4376 1.388 . S
C4375 C4374 1.366 . S
C4375 C4379 1.385 . S
C4376 H4357 0.951 . S
C4376 C4374 1.388 . S
C4376 C4377 1.366 . S
C4377 C4376 1.366 . S
C4377 C4378 1.414 . S
C4377 C4380 1.499 . S
C4378 H4358 0.950 1_455 S
C4378 C4377 1.414 . S
C4378 C4379 1.374 . S
C4379 H4359 0.950 1_455 S
C4379 C4375 1.385 . S
C4379 C4378 1.374 . S
C4380 C4377 1.499 . S
C4380 C4381 1.373 1_455 S
C4380 C4382 1.389 . S
C4381 H4360 0.950 . S
C4381 C4380 1.373 1_655 S
C4381 C4397 1.377 . S
C4382 C4380 1.389 . S
C4382 C4383 1.524 . S
C4382 C4396 1.377 . S
C4383 C4382 1.524 . S
C4383 C4384 1.397 . S
C4383 C4388 1.363 . S
C4384 H4361 0.950 . S
C4384 C4383 1.397 . S
C4384 C4385 1.334 . S
C4385 H4362 0.950 . S
C4385 C4384 1.334 . S
C4385 C4386 1.287 . S
C4386 C4385 1.287 . S
C4386 C4387 1.524 . S
C4386 H4405 0.913 . S
C4387 H4363 0.950 . S
C4387 C4386 1.524 . S
C4387 C4388 1.415 . S
C4388 H4364 0.950 . S
C4388 C4383 1.363 . S
C4388 C4387 1.415 . S
C4389 H4365 0.951 1_455 S
C4389 C4390 1.366 . S
C4389 C4391 1.388 . S
C4390 C4389 1.366 . S
C4390 C4394 1.385 . S
C4391 H4366 0.951 1_455 S
C4391 C4389 1.388 . S
C4391 C4392 1.366 . S
C4392 C4391 1.366 . S
C4392 C4393 1.414 . S
C4392 C4395 1.499 . S
C4393 H4367 0.950 . S
C4393 C4392 1.414 . S
C4393 C4394 1.374 . S
C4394 H4368 0.950 . S
C4394 C4390 1.385 . S
C4394 C4393 1.374 . S
C4395 C4392 1.499 . S
C4395 C4396 1.373 . S
C4395 C4397 1.389 1_455 S
C4396 H4369 0.950 . S
C4396 C4382 1.377 . S
C4396 C4395 1.373 . S
C4397 C4381 1.377 . S
C4397 C4395 1.389 1_655 S
C4397 C4398 1.524 . S
C4398 C4397 1.524 . S
C4398 C4399 1.397 . S
C4398 C4403 1.363 . S
C4399 H4370 0.950 . S
C4399 C4398 1.397 . S
C4399 C4400 1.334 . S
C4400 H4371 0.950 . S
C4400 C4399 1.334 . S
C4400 C4401 1.287 . S
C4401 C4400 1.287 . S
C4401 C4402 1.524 . S
C4401 H4404 0.999 . S
C4402 H4372 0.950 . S
C4402 C4401 1.524 . S
C4402 C4403 1.415 . S
C4403 H4373 0.950 . S
C4403 C4398 1.363 . S
C4403 C4402 1.415 . S
H4404 C4401 0.999 . S
H4405 C4386 0.913 . S
H4406 C4424 0.951 . S
H4407 C4426 0.951 . S
H4408 C4428 0.950 . S
H4409 C4429 0.950 . S
H4410 C4431 0.950 . S
H4411 C4434 0.950 . S
H4412 C4435 0.950 . S
H4413 C4437 0.950 . S
H4414 C4438 0.950 . S
H4415 C4439 0.951 . S
H4416 C4441 0.951 . S
H4417 C4443 0.950 . S
H4418 C4444 0.950 . S
H4419 C4446 0.950 . S
H4420 C4449 0.950 . S
H4421 C4450 0.950 . S
H4422 C4452 0.950 . S
H4423 C4453 0.950 . S
C4424 H4406 0.951 . S
C4424 C4425 1.366 . S
C4424 C4426 1.388 . S
C4425 C4424 1.366 . S
C4425 C4429 1.385 . S
C4426 H4407 0.951 . S
C4426 C4424 1.388 . S
C4426 C4427 1.366 . S
C4427 C4426 1.366 . S
C4427 C4428 1.414 . S
C4427 C4430 1.499 . S
C4428 H4408 0.950 . S
C4428 C4427 1.414 . S
C4428 C4429 1.374 . S
C4429 H4409 0.950 . S
C4429 C4425 1.385 . S
C4429 C4428 1.374 . S
C4430 C4427 1.499 . S
C4430 C4431 1.373 . S
C4430 C4432 1.389 . S
C4431 H4410 0.950 . S
C4431 C4430 1.373 . S
C4431 C4447 1.377 . S
C4432 C4430 1.389 . S
C4432 C4433 1.524 . S
C4432 C4446 1.377 . S
C4433 C4432 1.524 . S
C4433 C4434 1.397 . S
C4433 C4438 1.363 . S
C4434 H4411 0.950 . S
C4434 C4433 1.397 . S
C4434 C4435 1.334 . S
C4435 H4412 0.950 . S
C4435 C4434 1.334 . S
C4435 C4436 1.287 . S
C4436 C4435 1.287 . S
C4436 C4437 1.524 . S
C4436 H4455 0.913 . S
C4437 H4413 0.950 . S
C4437 C4436 1.524 . S
C4437 C4438 1.415 . S
C4438 H4414 0.950 . S
C4438 C4433 1.363 . S
C4438 C4437 1.415 . S
C4439 H4415 0.951 . S
C4439 C4440 1.366 . S
C4439 C4441 1.388 . S
C4440 C4439 1.366 . S
C4440 C4444 1.385 . S
C4441 H4416 0.951 . S
C4441 C4439 1.388 . S
C4441 C4442 1.366 . S
C4442 C4441 1.366 . S
C4442 C4443 1.414 . S
C4442 C4445 1.499 . S
C4443 H4417 0.950 . S
C4443 C4442 1.414 . S
C4443 C4444 1.374 . S
C4444 H4418 0.950 . S
C4444 C4440 1.385 . S
C4444 C4443 1.374 . S
C4445 C4442 1.499 . S
C4445 C4446 1.373 . S
C4445 C4447 1.389 . S
C4446 H4419 0.950 . S
C4446 C4432 1.377 . S
C4446 C4445 1.373 . S
C4447 C4431 1.377 . S
C4447 C4445 1.389 . S
C4447 C4448 1.524 . S
C4448 C4447 1.524 . S
C4448 C4449 1.397 . S
C4448 C4453 1.363 . S
C4449 H4420 0.950 . S
C4449 C4448 1.397 . S
C4449 C4450 1.334 . S
C4450 H4421 0.950 . S
C4450 C4449 1.334 . S
C4450 C4451 1.287 . S
C4451 C4450 1.287 . S
C4451 C4452 1.524 . S
C4451 H4454 0.999 . S
C4452 H4422 0.950 . S
C4452 C4451 1.524 . S
C4452 C4453 1.415 . S
C4453 H4423 0.950 . S
C4453 C4448 1.363 . S
C4453 C4452 1.415 . S
H4454 C4451 0.999 . S
H4455 C4436 0.913 . S
H4456 C4474 0.951 . S
H4457 C4476 0.951 . S
H4458 C4478 0.950 . S
H4459 C4479 0.950 . S
H4460 C4481 0.950 . S
H4461 C4484 0.950 . S
H4462 C4485 0.950 . S
H4463 C4487 0.950 . S
H4464 C4488 0.950 . S
H4465 C4489 0.915 1_554 S
H4466 C4491 0.951 . S
H4467 C4493 0.950 . S
H4468 C4494 0.950 . S
H4469 C4496 0.950 . S
H4470 C4499 0.950 . S
H4471 C4500 0.950 . S
H4472 C4502 0.950 . S
H4473 C4503 0.950 . S
C4474 H4456 0.951 . S
C4474 C4475 1.366 . S
C4474 C4476 1.388 . S
C4475 C4474 1.366 . S
C4475 C4479 1.385 . S
C4476 H4457 0.951 . S
C4476 C4474 1.388 . S
C4476 C4477 1.366 . S
C4477 C4476 1.366 . S
C4477 C4478 1.414 . S
C4477 C4480 1.499 . S
C4478 H4458 0.950 . S
C4478 C4477 1.414 . S
C4478 C4479 1.374 . S
C4479 H4459 0.950 . S
C4479 C4475 1.385 . S
C4479 C4478 1.374 . S
C4480 C4477 1.499 . S
C4480 C4481 1.373 . S
C4480 C4482 1.389 . S
C4481 H4460 0.950 . S
C4481 C4480 1.373 . S
C4481 C4497 1.377 . S
C4482 C4480 1.389 . S
C4482 C4483 1.524 . S
C4482 C4496 1.377 . S
C4483 C4482 1.524 . S
C4483 C4484 1.397 . S
C4483 C4488 1.363 . S
C4484 H4461 0.950 . S
C4484 C4483 1.397 . S
C4484 C4485 1.334 . S
C4485 H4462 0.950 . S
C4485 C4484 1.334 . S
C4485 C4486 1.287 . S
C4486 C4485 1.287 . S
C4486 C4487 1.524 . S
C4486 H4505 0.913 . S
C4487 H4463 0.950 . S
C4487 C4486 1.524 . S
C4487 C4488 1.415 . S
C4488 H4464 0.950 . S
C4488 C4483 1.363 . S
C4488 C4487 1.415 . S
C4489 H4465 0.915 1_556 S
C4489 C4490 1.379 . S
C4489 C4491 1.411 . S
C4490 C4489 1.379 . S
C4490 C4494 1.385 . S
C4491 H4466 0.951 . S
C4491 C4489 1.411 . S
C4491 C4492 1.366 . S
C4492 C4491 1.366 . S
C4492 C4493 1.414 . S
C4492 C4495 1.499 . S
C4493 H4467 0.950 . S
C4493 C4492 1.414 . S
C4493 C4494 1.374 . S
C4494 H4468 0.950 . S
C4494 C4490 1.385 . S
C4494 C4493 1.374 . S
C4495 C4492 1.499 . S
C4495 C4496 1.373 . S
C4495 C4497 1.389 . S
C4496 H4469 0.950 . S
C4496 C4482 1.377 . S
C4496 C4495 1.373 . S
C4497 C4481 1.377 . S
C4497 C4495 1.389 . S
C4497 C4498 1.524 . S
C4498 C4497 1.524 . S
C4498 C4499 1.397 . S
C4498 C4503 1.363 . S
C4499 H4470 0.950 . S
C4499 C4498 1.397 . S
C4499 C4500 1.334 . S
C4500 H4471 0.950 . S
C4500 C4499 1.334 . S
C4500 C4501 1.287 . S
C4501 C4500 1.287 . S
C4501 C4502 1.524 . S
C4501 H4504 0.999 . S
C4502 H4472 0.950 . S
C4502 C4501 1.524 . S
C4502 C4503 1.415 . S
C4503 H4473 0.950 . S
C4503 C4498 1.363 . S
C4503 C4502 1.415 . S
H4504 C4501 0.999 . S
H4505 C4486 0.913 . S
H4506 C4524 0.951 . S
H4507 C4526 0.951 . S
H4508 C4528 0.950 . S
H4509 C4529 0.950 . S
H4510 C4531 0.950 . S
H4511 C4534 0.950 . S
H4512 C4535 0.950 . S
H4513 C4537 0.950 . S
H4514 C4538 0.950 . S
H4515 C4539 0.951 . S
H4516 C4541 0.951 . S
H4517 C4543 0.950 . S
H4518 C4544 0.950 . S
H4519 C4546 0.950 . S
H4520 C4549 0.950 . S
H4521 C4550 0.950 . S
H4522 C4552 0.950 . S
H4523 C4553 0.950 . S
C4524 H4506 0.951 . S
C4524 C4525 1.366 . S
C4524 C4526 1.388 . S
C4525 C4524 1.366 . S
C4525 C4529 1.385 . S
C4526 H4507 0.951 . S
C4526 C4524 1.388 . S
C4526 C4527 1.366 . S
C4527 C4526 1.366 . S
C4527 C4528 1.414 . S
C4527 C4530 1.499 . S
C4528 H4508 0.950 . S
C4528 C4527 1.414 . S
C4528 C4529 1.374 . S
C4529 H4509 0.950 . S
C4529 C4525 1.385 . S
C4529 C4528 1.374 . S
C4530 C4527 1.499 . S
C4530 C4531 1.373 . S
C4530 C4532 1.389 . S
C4531 H4510 0.950 . S
C4531 C4530 1.373 . S
C4531 C4547 1.377 . S
C4532 C4530 1.389 . S
C4532 C4533 1.524 . S
C4532 C4546 1.377 . S
C4533 C4532 1.524 . S
C4533 C4534 1.397 . S
C4533 C4538 1.363 . S
C4534 H4511 0.950 . S
C4534 C4533 1.397 . S
C4534 C4535 1.334 . S
C4535 H4512 0.950 . S
C4535 C4534 1.334 . S
C4535 C4536 1.287 . S
C4536 C4535 1.287 . S
C4536 C4537 1.524 . S
C4536 H4555 0.913 . S
C4537 H4513 0.950 . S
C4537 C4536 1.524 . S
C4537 C4538 1.415 . S
C4538 H4514 0.950 . S
C4538 C4533 1.363 . S
C4538 C4537 1.415 . S
C4539 H4515 0.951 . S
C4539 C4540 1.366 . S
C4539 C4541 1.388 . S
C4540 C4539 1.366 . S
C4540 C4544 1.385 . S
C4541 H4516 0.951 . S
C4541 C4539 1.388 . S
C4541 C4542 1.366 . S
C4542 C4541 1.366 . S
C4542 C4543 1.414 . S
C4542 C4545 1.499 . S
C4543 H4517 0.950 . S
C4543 C4542 1.414 . S
C4543 C4544 1.374 . S
C4544 H4518 0.950 . S
C4544 C4540 1.385 . S
C4544 C4543 1.374 . S
C4545 C4542 1.499 . S
C4545 C4546 1.373 . S
C4545 C4547 1.389 . S
C4546 H4519 0.950 . S
C4546 C4532 1.377 . S
C4546 C4545 1.373 . S
C4547 C4531 1.377 . S
C4547 C4545 1.389 . S
C4547 C4548 1.524 . S
C4548 C4547 1.524 . S
C4548 C4549 1.397 . S
C4548 C4553 1.363 . S
C4549 H4520 0.950 . S
C4549 C4548 1.397 . S
C4549 C4550 1.334 . S
C4550 H4521 0.950 . S
C4550 C4549 1.334 . S
C4550 C4551 1.287 . S
C4551 C4550 1.287 . S
C4551 C4552 1.524 . S
C4551 H4554 0.999 . S
C4552 H4522 0.950 . S
C4552 C4551 1.524 . S
C4552 C4553 1.415 . S
C4553 H4523 0.950 . S
C4553 C4548 1.363 . S
C4553 C4552 1.415 . S
H4554 C4551 0.999 . S
H4555 C4536 0.913 . S
H4556 C4574 0.951 . S
H4557 C4576 0.951 . S
H4558 C4578 0.950 1_655 S
H4559 C4579 0.950 1_655 S
H4560 C4581 0.946 1_655 S
H4561 C4584 0.950 . S
H4562 C4585 0.950 . S
H4563 C4587 0.950 . S
H4564 C4588 0.950 . S
H4565 C4589 0.950 1_655 S
H4566 C4591 0.926 1_655 S
H4567 C4593 0.950 . S
H4568 C4594 0.950 . S
H4569 C4596 0.950 . S
H4570 C4599 0.950 . S
H4571 C4600 0.950 1_455 S
H4572 C4602 0.950 . S
H4573 C4603 0.950 . S
C4574 H4556 0.951 . S
C4574 C4575 1.366 . S
C4574 C4576 1.388 . S
C4575 C4574 1.366 . S
C4575 C4579 1.385 . S
C4576 H4557 0.951 . S
C4576 C4574 1.388 . S
C4576 C4577 1.366 . S
C4577 C4576 1.366 . S
C4577 C4578 1.414 . S
C4577 C4580 1.499 . S
C4578 H4558 0.950 1_455 S
C4578 C4577 1.414 . S
C4578 C4579 1.374 . S
C4579 H4559 0.950 1_455 S
C4579 C4575 1.385 . S
C4579 C4578 1.374 . S
C4580 C4577 1.499 . S
C4580 C4581 1.373 . S
C4580 C4582 1.389 . S
C4581 H4560 0.946 1_455 S
C4581 C4580 1.373 . S
C4581 C4597 1.377 . S
C4582 C4580 1.389 . S
C4582 C4583 1.524 . S
C4582 C4596 1.377 . S
C4583 C4582 1.524 . S
C4583 C4584 1.397 . S
C4583 C4588 1.363 . S
C4584 H4561 0.950 . S
C4584 C4583 1.397 . S
C4584 C4585 1.334 . S
C4585 H4562 0.950 . S
C4585 C4584 1.334 . S
C4585 C4586 1.287 . S
C4586 C4585 1.287 . S
C4586 C4587 1.524 . S
C4586 H4605 0.913 . S
C4587 H4563 0.950 . S
C4587 C4586 1.524 . S
C4587 C4588 1.415 . S
C4588 H4564 0.950 . S
C4588 C4583 1.363 . S
C4588 C4587 1.415 . S
C4589 H4565 0.950 1_455 S
C4589 C4590 1.367 . S
C4589 C4591 1.381 . S
C4590 C4589 1.367 . S
C4590 C4594 1.385 . S
C4591 H4566 0.926 1_455 S
C4591 C4589 1.381 . S
C4591 C4592 1.398 . S
C4592 C4591 1.398 . S
C4592 C4593 1.414 . S
C4592 C4595 1.499 . S
C4593 H4567 0.950 . S
C4593 C4592 1.414 . S
C4593 C4594 1.374 . S
C4594 H4568 0.950 . S
C4594 C4590 1.385 . S
C4594 C4593 1.374 . S
C4595 C4592 1.499 . S
C4595 C4596 1.373 . S
C4595 C4597 1.389 . S
C4596 H4569 0.950 . S
C4596 C4582 1.377 . S
C4596 C4595 1.373 . S
C4597 C4581 1.377 . S
C4597 C4595 1.389 . S
C4597 C4598 1.524 1_455 S
C4598 C4597 1.524 1_655 S
C4598 C4599 1.397 1_655 S
C4598 C4603 1.363 . S
C4599 H4570 0.950 . S
C4599 C4598 1.397 1_455 S
C4599 C4600 1.334 1_455 S
C4600 H4571 0.950 1_655 S
C4600 C4599 1.334 1_655 S
C4600 C4601 1.287 . S
C4601 C4600 1.287 . S
C4601 C4602 1.524 . S
C4601 H4604 0.999 . S
C4602 H4572 0.950 . S
C4602 C4601 1.524 . S
C4602 C4603 1.415 . S
C4603 H4573 0.950 . S
C4603 C4598 1.363 . S
C4603 C4602 1.415 . S
H4604 C4601 0.999 . S
H4605 C4586 0.913 . S
H4606 C4624 0.951 . S
H4607 C4626 0.951 . S
H4608 C4628 0.950 . S
H4609 C4629 0.950 . S
H4610 C4631 0.950 . S
H4611 C4634 0.950 . S
H4612 C4635 0.950 . S
H4613 C4637 0.950 . S
H4614 C4638 0.950 . S
H4615 C4639 0.951 . S
H4616 C4641 0.951 . S
H4617 C4643 0.950 . S
H4618 C4644 0.950 . S
H4619 C4646 0.950 . S
H4620 C4649 0.950 . S
H4621 C4650 0.950 . S
H4622 C4652 0.950 . S
H4623 C4653 0.950 . S
C4624 H4606 0.951 . S
C4624 C4625 1.366 . S
C4624 C4626 1.388 . S
C4625 C4624 1.366 . S
C4625 C4629 1.385 . S
C4626 H4607 0.951 . S
C4626 C4624 1.388 . S
C4626 C4627 1.366 . S
C4627 C4626 1.366 . S
C4627 C4628 1.414 . S
C4627 C4630 1.499 . S
C4628 H4608 0.950 . S
C4628 C4627 1.414 . S
C4628 C4629 1.374 . S
C4629 H4609 0.950 . S
C4629 C4625 1.385 . S
C4629 C4628 1.374 . S
C4630 C4627 1.499 . S
C4630 C4631 1.373 . S
C4630 C4632 1.389 . S
C4631 H4610 0.950 . S
C4631 C4630 1.373 . S
C4631 C4647 1.377 . S
C4632 C4630 1.389 . S
C4632 C4633 1.524 . S
C4632 C4646 1.377 . S
C4633 C4632 1.524 . S
C4633 C4634 1.397 . S
C4633 C4638 1.363 . S
C4634 H4611 0.950 . S
C4634 C4633 1.397 . S
C4634 C4635 1.334 . S
C4635 H4612 0.950 . S
C4635 C4634 1.334 . S
C4635 C4636 1.287 . S
C4636 C4635 1.287 . S
C4636 C4637 1.524 . S
C4636 H4655 0.913 . S
C4637 H4613 0.950 . S
C4637 C4636 1.524 . S
C4637 C4638 1.415 . S
C4638 H4614 0.950 . S
C4638 C4633 1.363 . S
C4638 C4637 1.415 . S
C4639 H4615 0.951 . S
C4639 C4640 1.366 . S
C4639 C4641 1.388 . S
C4640 C4639 1.366 . S
C4640 C4644 1.385 . S
C4641 H4616 0.951 . S
C4641 C4639 1.388 . S
C4641 C4642 1.366 . S
C4642 C4641 1.366 . S
C4642 C4643 1.414 . S
C4642 C4645 1.499 . S
C4643 H4617 0.950 . S
C4643 C4642 1.414 . S
C4643 C4644 1.374 . S
C4644 H4618 0.950 . S
C4644 C4640 1.385 . S
C4644 C4643 1.374 . S
C4645 C4642 1.499 . S
C4645 C4646 1.373 . S
C4645 C4647 1.389 . S
C4646 H4619 0.950 . S
C4646 C4632 1.377 . S
C4646 C4645 1.373 . S
C4647 C4631 1.377 . S
C4647 C4645 1.389 . S
C4647 C4648 1.524 . S
C4648 C4647 1.524 . S
C4648 C4649 1.397 . S
C4648 C4653 1.363 . S
C4649 H4620 0.950 . S
C4649 C4648 1.397 . S
C4649 C4650 1.334 . S
C4650 H4621 0.950 . S
C4650 C4649 1.334 . S
C4650 C4651 1.287 . S
C4651 C4650 1.287 . S
C4651 C4652 1.524 . S
C4651 H4654 0.999 . S
C4652 H4622 0.950 . S
C4652 C4651 1.524 . S
C4652 C4653 1.415 . S
C4653 H4623 0.950 . S
C4653 C4648 1.363 . S
C4653 C4652 1.415 . S
H4654 C4651 0.999 . S
H4655 C4636 0.913 . S
H4656 C4674 0.951 . S
H4657 C4676 0.951 . S
H4658 C4678 0.950 . S
H4659 C4679 0.950 . S
H4660 C4681 0.950 . S
H4661 C4684 0.950 . S
H4662 C4685 0.950 . S
H4663 C4687 0.950 . S
H4664 C4688 0.950 . S
H4665 C4689 0.951 . S
H4666 C4691 0.951 . S
H4667 C4693 0.950 . S
H4668 C4694 0.950 . S
H4669 C4696 0.950 . S
H4670 C4699 0.950 . S
H4671 C4700 0.950 . S
H4672 C4702 0.950 . S
H4673 C4703 0.950 . S
C4674 H4656 0.951 . S
C4674 C4675 1.366 . S
C4674 C4676 1.388 . S
C4675 C4674 1.366 . S
C4675 C4679 1.385 . S
C4676 H4657 0.951 . S
C4676 C4674 1.388 . S
C4676 C4677 1.366 . S
C4677 C4676 1.366 . S
C4677 C4678 1.414 . S
C4677 C4680 1.499 . S
C4678 H4658 0.950 . S
C4678 C4677 1.414 . S
C4678 C4679 1.374 . S
C4679 H4659 0.950 . S
C4679 C4675 1.385 . S
C4679 C4678 1.374 . S
C4680 C4677 1.499 . S
C4680 C4681 1.373 . S
C4680 C4682 1.389 . S
C4681 H4660 0.950 . S
C4681 C4680 1.373 . S
C4681 C4697 1.377 . S
C4682 C4680 1.389 . S
C4682 C4683 1.524 . S
C4682 C4696 1.377 . S
C4683 C4682 1.524 . S
C4683 C4684 1.397 . S
C4683 C4688 1.363 . S
C4684 H4661 0.950 . S
C4684 C4683 1.397 . S
C4684 C4685 1.334 . S
C4685 H4662 0.950 . S
C4685 C4684 1.334 . S
C4685 C4686 1.287 . S
C4686 C4685 1.287 . S
C4686 C4687 1.524 . S
C4686 H4705 0.913 . S
C4687 H4663 0.950 . S
C4687 C4686 1.524 . S
C4687 C4688 1.415 . S
C4688 H4664 0.950 . S
C4688 C4683 1.363 . S
C4688 C4687 1.415 . S
C4689 H4665 0.951 . S
C4689 C4690 1.366 . S
C4689 C4691 1.388 . S
C4690 C4689 1.366 . S
C4690 C4694 1.385 . S
C4691 H4666 0.951 . S
C4691 C4689 1.388 . S
C4691 C4692 1.366 . S
C4692 C4691 1.366 . S
C4692 C4693 1.414 . S
C4692 C4695 1.499 . S
C4693 H4667 0.950 . S
C4693 C4692 1.414 . S
C4693 C4694 1.374 . S
C4694 H4668 0.950 . S
C4694 C4690 1.385 . S
C4694 C4693 1.374 . S
C4695 C4692 1.499 . S
C4695 C4696 1.373 . S
C4695 C4697 1.389 . S
C4696 H4669 0.950 . S
C4696 C4682 1.377 . S
C4696 C4695 1.373 . S
C4697 C4681 1.377 . S
C4697 C4695 1.389 . S
C4697 C4698 1.524 . S
C4698 C4697 1.524 . S
C4698 C4699 1.397 . S
C4698 C4703 1.363 . S
C4699 H4670 0.950 . S
C4699 C4698 1.397 . S
C4699 C4700 1.334 . S
C4700 H4671 0.950 . S
C4700 C4699 1.334 . S
C4700 C4701 1.287 . S
C4701 C4700 1.287 . S
C4701 C4702 1.524 . S
C4701 H4704 0.999 . S
C4702 H4672 0.950 . S
C4702 C4701 1.524 . S
C4702 C4703 1.415 . S
C4703 H4673 0.950 . S
C4703 C4698 1.363 . S
C4703 C4702 1.415 . S
H4704 C4701 0.999 . S
H4705 C4686 0.913 . S
H4706 C4724 0.951 . S
H4707 C4726 0.951 . S
H4708 C4728 0.950 . S
H4709 C4729 0.950 . S
H4710 C4731 0.950 . S
H4711 C4734 0.950 . S
H4712 C4735 0.950 . S
H4713 C4737 0.950 . S
H4714 C4738 0.950 . S
H4715 C4739 0.951 . S
H4716 C4741 0.951 . S
H4717 C4743 0.950 . S
H4718 C4744 0.950 . S
H4719 C4746 0.950 . S
H4720 C4749 0.950 . S
H4721 C4750 0.950 . S
H4722 C4752 0.950 . S
H4723 C4753 0.950 . S
C4724 H4706 0.951 . S
C4724 C4725 1.366 . S
C4724 C4726 1.388 . S
C4725 C4724 1.366 . S
C4725 C4729 1.385 . S
C4726 H4707 0.951 . S
C4726 C4724 1.388 . S
C4726 C4727 1.366 . S
C4727 C4726 1.366 . S
C4727 C4728 1.414 . S
C4727 C4730 1.499 . S
C4728 H4708 0.950 . S
C4728 C4727 1.414 . S
C4728 C4729 1.374 . S
C4729 H4709 0.950 . S
C4729 C4725 1.385 . S
C4729 C4728 1.374 . S
C4730 C4727 1.499 . S
C4730 C4731 1.373 . S
C4730 C4732 1.389 . S
C4731 H4710 0.950 . S
C4731 C4730 1.373 . S
C4731 C4747 1.377 . S
C4732 C4730 1.389 . S
C4732 C4733 1.524 . S
C4732 C4746 1.377 . S
C4733 C4732 1.524 . S
C4733 C4734 1.397 . S
C4733 C4738 1.363 . S
C4734 H4711 0.950 . S
C4734 C4733 1.397 . S
C4734 C4735 1.334 . S
C4735 H4712 0.950 . S
C4735 C4734 1.334 . S
C4735 C4736 1.287 . S
C4736 C4735 1.287 . S
C4736 C4737 1.524 . S
C4736 H4755 0.913 . S
C4737 H4713 0.950 . S
C4737 C4736 1.524 . S
C4737 C4738 1.415 . S
C4738 H4714 0.950 . S
C4738 C4733 1.363 . S
C4738 C4737 1.415 . S
C4739 H4715 0.951 . S
C4739 C4740 1.366 . S
C4739 C4741 1.388 . S
C4740 C4739 1.366 . S
C4740 C4744 1.385 . S
C4741 H4716 0.951 . S
C4741 C4739 1.388 . S
C4741 C4742 1.366 . S
C4742 C4741 1.366 . S
C4742 C4743 1.414 . S
C4742 C4745 1.499 . S
C4743 H4717 0.950 . S
C4743 C4742 1.414 . S
C4743 C4744 1.374 . S
C4744 H4718 0.950 . S
C4744 C4740 1.385 . S
C4744 C4743 1.374 . S
C4745 C4742 1.499 . S
C4745 C4746 1.373 . S
C4745 C4747 1.389 . S
C4746 H4719 0.950 . S
C4746 C4732 1.377 . S
C4746 C4745 1.373 . S
C4747 C4731 1.377 . S
C4747 C4745 1.389 . S
C4747 C4748 1.524 . S
C4748 C4747 1.524 . S
C4748 C4749 1.397 . S
C4748 C4753 1.363 . S
C4749 H4720 0.950 . S
C4749 C4748 1.397 . S
C4749 C4750 1.334 . S
C4750 H4721 0.950 . S
C4750 C4749 1.334 . S
C4750 C4751 1.287 . S
C4751 C4750 1.287 . S
C4751 C4752 1.524 . S
C4751 H4754 0.999 . S
C4752 H4722 0.950 . S
C4752 C4751 1.524 . S
C4752 C4753 1.415 . S
C4753 H4723 0.950 . S
C4753 C4748 1.363 . S
C4753 C4752 1.415 . S
H4754 C4751 0.999 . S
H4755 C4736 0.913 . S
H4756 C4774 0.951 . S
H4757 C4776 0.951 . S
H4758 C4778 0.950 . S
H4759 C4779 0.950 . S
H4760 C4781 0.950 . S
H4761 C4784 0.950 . S
H4762 C4785 0.950 . S
H4763 C4787 0.950 . S
H4764 C4788 0.950 . S
H4765 C4789 0.951 1_455 S
H4766 C4791 0.951 . S
H4767 C4793 0.950 . S
H4768 C4794 0.950 . S
H4769 C4796 0.950 . S
H4770 C4799 0.950 . S
H4771 C4800 0.950 . S
H4772 C4802 0.950 . S
H4773 C4803 0.950 1_655 S
C4774 H4756 0.951 . S
C4774 C4775 1.366 . S
C4774 C4776 1.388 . S
C4775 C4774 1.366 . S
C4775 C4779 1.385 . S
C4776 H4757 0.951 . S
C4776 C4774 1.388 . S
C4776 C4777 1.366 . S
C4777 C4776 1.366 . S
C4777 C4778 1.414 . S
C4777 C4780 1.499 . S
C4778 H4758 0.950 . S
C4778 C4777 1.414 . S
C4778 C4779 1.374 . S
C4779 H4759 0.950 . S
C4779 C4775 1.385 . S
C4779 C4778 1.374 . S
C4780 C4777 1.499 . S
C4780 C4781 1.373 . S
C4780 C4782 1.389 . S
C4781 H4760 0.950 . S
C4781 C4780 1.373 . S
C4781 C4797 1.377 . S
C4782 C4780 1.389 . S
C4782 C4783 1.524 . S
C4782 C4796 1.377 . S
C4783 C4782 1.524 . S
C4783 C4784 1.397 . S
C4783 C4788 1.363 . S
C4784 H4761 0.950 . S
C4784 C4783 1.397 . S
C4784 C4785 1.334 . S
C4785 H4762 0.950 . S
C4785 C4784 1.334 . S
C4785 C4786 1.287 . S
C4786 C4785 1.287 . S
C4786 C4787 1.524 . S
C4786 H4805 0.913 . S
C4787 H4763 0.950 . S
C4787 C4786 1.524 . S
C4787 C4788 1.415 . S
C4788 H4764 0.950 . S
C4788 C4783 1.363 . S
C4788 C4787 1.415 . S
C4789 H4765 0.951 1_655 S
C4789 C4790 1.366 . S
C4789 C4791 1.388 . S
C4790 C4789 1.366 . S
C4790 C4794 1.385 . S
C4791 H4766 0.951 . S
C4791 C4789 1.388 . S
C4791 C4792 1.366 . S
C4792 C4791 1.366 . S
C4792 C4793 1.414 . S
C4792 C4795 1.499 . S
C4793 H4767 0.950 . S
C4793 C4792 1.414 . S
C4793 C4794 1.374 . S
C4794 H4768 0.950 . S
C4794 C4790 1.385 . S
C4794 C4793 1.374 . S
C4795 C4792 1.499 . S
C4795 C4796 1.373 . S
C4795 C4797 1.389 . S
C4796 H4769 0.950 . S
C4796 C4782 1.377 . S
C4796 C4795 1.373 . S
C4797 C4781 1.377 . S
C4797 C4795 1.389 . S
C4797 C4798 1.575 . S
C4798 C4797 1.575 . S
C4798 C4799 1.362 1_655 S
C4798 C4803 1.350 1_655 S
C4799 H4770 0.950 . S
C4799 C4798 1.362 1_455 S
C4799 C4800 1.334 . S
C4800 H4771 0.950 . S
C4800 C4799 1.334 . S
C4800 C4801 1.287 . S
C4801 C4800 1.287 . S
C4801 C4802 1.524 . S
C4801 H4804 0.999 . S
C4802 H4772 0.950 . S
C4802 C4801 1.524 . S
C4802 C4803 1.415 . S
C4803 H4773 0.950 1_455 S
C4803 C4798 1.350 1_455 S
C4803 C4802 1.415 . S
H4804 C4801 0.999 . S
H4805 C4786 0.913 . S
H4806 C4824 0.951 . S
H4807 C4826 0.951 . S
H4808 C4828 0.950 . S
H4809 C4829 0.950 . S
H4810 C4831 0.950 . S
H4811 C4834 0.950 . S
H4812 C4835 0.950 . S
H4813 C4837 0.950 . S
H4814 C4838 0.950 . S
H4815 C4839 0.951 . S
H4816 C4841 0.951 . S
H4817 C4843 0.950 . S
H4818 C4844 0.950 . S
H4819 C4846 0.950 . S
H4820 C4849 0.950 . S
H4821 C4850 0.950 . S
H4822 C4852 0.950 . S
H4823 C4853 0.950 . S
C4824 H4806 0.951 . S
C4824 C4825 1.366 . S
C4824 C4826 1.388 . S
C4825 C4824 1.366 . S
C4825 C4829 1.385 . S
C4826 H4807 0.951 . S
C4826 C4824 1.388 . S
C4826 C4827 1.366 . S
C4827 C4826 1.366 . S
C4827 C4828 1.414 . S
C4827 C4830 1.499 . S
C4828 H4808 0.950 . S
C4828 C4827 1.414 . S
C4828 C4829 1.374 . S
C4829 H4809 0.950 . S
C4829 C4825 1.385 . S
C4829 C4828 1.374 . S
C4830 C4827 1.499 . S
C4830 C4831 1.373 . S
C4830 C4832 1.389 . S
C4831 H4810 0.950 . S
C4831 C4830 1.373 . S
C4831 C4847 1.377 . S
C4832 C4830 1.389 . S
C4832 C4833 1.524 . S
C4832 C4846 1.377 . S
C4833 C4832 1.524 . S
C4833 C4834 1.397 . S
C4833 C4838 1.363 . S
C4834 H4811 0.950 . S
C4834 C4833 1.397 . S
C4834 C4835 1.334 . S
C4835 H4812 0.950 . S
C4835 C4834 1.334 . S
C4835 C4836 1.287 . S
C4836 C4835 1.287 . S
C4836 C4837 1.524 . S
C4836 H4855 0.913 . S
C4837 H4813 0.950 . S
C4837 C4836 1.524 . S
C4837 C4838 1.415 . S
C4838 H4814 0.950 . S
C4838 C4833 1.363 . S
C4838 C4837 1.415 . S
C4839 H4815 0.951 . S
C4839 C4840 1.366 . S
C4839 C4841 1.388 . S
C4840 C4839 1.366 . S
C4840 C4844 1.385 . S
C4841 H4816 0.951 . S
C4841 C4839 1.388 . S
C4841 C4842 1.366 . S
C4842 C4841 1.366 . S
C4842 C4843 1.414 . S
C4842 C4845 1.499 . S
C4843 H4817 0.950 . S
C4843 C4842 1.414 . S
C4843 C4844 1.374 . S
C4844 H4818 0.950 . S
C4844 C4840 1.385 . S
C4844 C4843 1.374 . S
C4845 C4842 1.499 . S
C4845 C4846 1.373 . S
C4845 C4847 1.389 . S
C4846 H4819 0.950 . S
C4846 C4832 1.377 . S
C4846 C4845 1.373 . S
C4847 C4831 1.377 . S
C4847 C4845 1.389 . S
C4847 C4848 1.524 . S
C4848 C4847 1.524 . S
C4848 C4849 1.397 . S
C4848 C4853 1.363 . S
C4849 H4820 0.950 . S
C4849 C4848 1.397 . S
C4849 C4850 1.334 . S
C4850 H4821 0.950 . S
C4850 C4849 1.334 . S
C4850 C4851 1.287 . S
C4851 C4850 1.287 . S
C4851 C4852 1.524 . S
C4851 H4854 0.999 . S
C4852 H4822 0.950 . S
C4852 C4851 1.524 . S
C4852 C4853 1.415 . S
C4853 H4823 0.950 . S
C4853 C4848 1.363 . S
C4853 C4852 1.415 . S
H4854 C4851 0.999 . S
H4855 C4836 0.913 . S
H4856 C4874 0.951 . S
H4857 C4876 0.951 . S
H4858 C4878 0.950 . S
H4859 C4879 0.950 . S
H4860 C4881 0.950 . S
H4861 C4884 0.950 . S
H4862 C4885 0.950 . S
H4863 C4887 0.950 . S
H4864 C4888 0.950 . S
H4865 C4889 0.951 . S
H4866 C4891 0.951 . S
H4867 C4893 0.950 . S
H4868 C4894 0.950 . S
H4869 C4896 0.950 . S
H4870 C4899 0.950 . S
H4871 C4900 0.950 . S
H4872 C4902 0.950 . S
H4873 C4903 0.950 . S
C4874 H4856 0.951 . S
C4874 C4875 1.366 . S
C4874 C4876 1.388 . S
C4875 C4874 1.366 . S
C4875 C4879 1.385 . S
C4876 H4857 0.951 . S
C4876 C4874 1.388 . S
C4876 C4877 1.366 . S
C4877 C4876 1.366 . S
C4877 C4878 1.414 . S
C4877 C4880 1.499 . S
C4878 H4858 0.950 . S
C4878 C4877 1.414 . S
C4878 C4879 1.374 . S
C4879 H4859 0.950 . S
C4879 C4875 1.385 . S
C4879 C4878 1.374 . S
C4880 C4877 1.499 . S
C4880 C4881 1.373 . S
C4880 C4882 1.389 . S
C4881 H4860 0.950 . S
C4881 C4880 1.373 . S
C4881 C4897 1.377 . S
C4882 C4880 1.389 . S
C4882 C4883 1.524 . S
C4882 C4896 1.377 . S
C4883 C4882 1.524 . S
C4883 C4884 1.397 . S
C4883 C4888 1.363 . S
C4884 H4861 0.950 . S
C4884 C4883 1.397 . S
C4884 C4885 1.334 . S
C4885 H4862 0.950 . S
C4885 C4884 1.334 . S
C4885 C4886 1.287 . S
C4886 C4885 1.287 . S
C4886 C4887 1.524 . S
C4886 H4905 0.913 . S
C4887 H4863 0.950 . S
C4887 C4886 1.524 . S
C4887 C4888 1.415 . S
C4888 H4864 0.950 . S
C4888 C4883 1.363 . S
C4888 C4887 1.415 . S
C4889 H4865 0.951 . S
C4889 C4890 1.366 . S
C4889 C4891 1.388 . S
C4890 C4889 1.366 . S
C4890 C4894 1.385 . S
C4891 H4866 0.951 . S
C4891 C4889 1.388 . S
C4891 C4892 1.366 . S
C4892 C4891 1.366 . S
C4892 C4893 1.414 . S
C4892 C4895 1.499 . S
C4893 H4867 0.950 . S
C4893 C4892 1.414 . S
C4893 C4894 1.374 . S
C4894 H4868 0.950 . S
C4894 C4890 1.385 . S
C4894 C4893 1.374 . S
C4895 C4892 1.499 . S
C4895 C4896 1.373 . S
C4895 C4897 1.389 . S
C4896 H4869 0.950 . S
C4896 C4882 1.377 . S
C4896 C4895 1.373 . S
C4897 C4881 1.377 . S
C4897 C4895 1.389 . S
C4897 C4898 1.524 . S
C4898 C4897 1.524 . S
C4898 C4899 1.397 . S
C4898 C4903 1.363 . S
C4899 H4870 0.950 . S
C4899 C4898 1.397 . S
C4899 C4900 1.334 . S
C4900 H4871 0.950 . S
C4900 C4899 1.334 . S
C4900 C4901 1.287 . S
C4901 C4900 1.287 . S
C4901 C4902 1.524 . S
C4901 H4904 0.999 . S
C4902 H4872 0.950 . S
C4902 C4901 1.524 . S
C4902 C4903 1.415 . S
C4903 H4873 0.950 . S
C4903 C4898 1.363 . S
C4903 C4902 1.415 . S
H4904 C4901 0.999 . S
H4905 C4886 0.913 . S
H4906 C4924 0.951 . S
H4907 C4926 0.951 . S
H4908 C4928 0.950 . S
H4909 C4929 0.950 . S
H4910 C4931 0.950 . S
H4911 C4934 0.950 . S
H4912 C4935 0.950 . S
H4913 C4937 0.950 . S
H4914 C4938 0.950 . S
H4915 C4939 0.951 . S
H4916 C4941 0.951 . S
H4917 C4943 0.950 . S
H4918 C4944 0.950 . S
H4919 C4946 0.950 . S
H4920 C4949 0.950 . S
H4921 C4950 0.950 . S
H4922 C4952 0.950 . S
H4923 C4953 0.950 . S
C4924 H4906 0.951 . S
C4924 C4925 1.366 . S
C4924 C4926 1.388 . S
C4925 C4924 1.366 . S
C4925 C4929 1.385 . S
C4926 H4907 0.951 . S
C4926 C4924 1.388 . S
C4926 C4927 1.366 . S
C4927 C4926 1.366 . S
C4927 C4928 1.414 . S
C4927 C4930 1.499 . S
C4928 H4908 0.950 . S
C4928 C4927 1.414 . S
C4928 C4929 1.374 . S
C4929 H4909 0.950 . S
C4929 C4925 1.385 . S
C4929 C4928 1.374 . S
C4930 C4927 1.499 . S
C4930 C4931 1.373 . S
C4930 C4932 1.389 . S
C4931 H4910 0.950 . S
C4931 C4930 1.373 . S
C4931 C4947 1.377 . S
C4932 C4930 1.389 . S
C4932 C4933 1.524 . S
C4932 C4946 1.377 . S
C4933 C4932 1.524 . S
C4933 C4934 1.397 . S
C4933 C4938 1.363 . S
C4934 H4911 0.950 . S
C4934 C4933 1.397 . S
C4934 C4935 1.334 . S
C4935 H4912 0.950 . S
C4935 C4934 1.334 . S
C4935 C4936 1.287 . S
C4936 C4935 1.287 . S
C4936 C4937 1.524 . S
C4936 H4955 0.913 . S
C4937 H4913 0.950 . S
C4937 C4936 1.524 . S
C4937 C4938 1.415 . S
C4938 H4914 0.950 . S
C4938 C4933 1.363 . S
C4938 C4937 1.415 . S
C4939 H4915 0.951 . S
C4939 C4940 1.366 . S
C4939 C4941 1.388 . S
C4940 C4939 1.366 . S
C4940 C4944 1.385 . S
C4941 H4916 0.951 . S
C4941 C4939 1.388 . S
C4941 C4942 1.366 . S
C4942 C4941 1.366 . S
C4942 C4943 1.414 . S
C4942 C4945 1.499 . S
C4943 H4917 0.950 . S
C4943 C4942 1.414 . S
C4943 C4944 1.374 . S
C4944 H4918 0.950 . S
C4944 C4940 1.385 . S
C4944 C4943 1.374 . S
C4945 C4942 1.499 . S
C4945 C4946 1.373 . S
C4945 C4947 1.389 . S
C4946 H4919 0.950 . S
C4946 C4932 1.377 . S
C4946 C4945 1.373 . S
C4947 C4931 1.377 . S
C4947 C4945 1.389 . S
C4947 C4948 1.524 . S
C4948 C4947 1.524 . S
C4948 C4949 1.397 . S
C4948 C4953 1.363 . S
C4949 H4920 0.950 . S
C4949 C4948 1.397 . S
C4949 C4950 1.334 . S
C4950 H4921 0.950 . S
C4950 C4949 1.334 . S
C4950 C4951 1.287 . S
C4951 C4950 1.287 . S
C4951 C4952 1.524 . S
C4951 H4954 0.999 . S
C4952 H4922 0.950 . S
C4952 C4951 1.524 . S
C4952 C4953 1.415 . S
C4953 H4923 0.950 . S
C4953 C4948 1.363 . S
C4953 C4952 1.415 . S
H4954 C4951 0.999 . S
H4955 C4936 0.913 . S
H4956 C4974 0.951 . S
H4957 C4976 0.951 . S
H4958 C4978 0.950 . S
H4959 C4979 0.950 . S
H4960 C4981 0.950 . S
H4961 C4984 0.950 . S
H4962 C4985 0.950 . S
H4963 C4987 0.950 . S
H4964 C4988 0.950 . S
H4965 C4989 0.951 1_455 S
H4966 C4991 0.951 . S
H4967 C4993 0.950 . S
H4968 C4994 0.950 . S
H4969 C4996 0.950 . S
H4970 C4999 0.950 . S
H4971 C5000 0.950 . S
H4972 C5002 0.950 . S
H4973 C5003 0.950 . S
C4974 H4956 0.951 . S
C4974 C4975 1.366 . S
C4974 C4976 1.388 . S
C4975 C4974 1.366 . S
C4975 C4979 1.385 . S
C4976 H4957 0.951 . S
C4976 C4974 1.388 . S
C4976 C4977 1.366 . S
C4977 C4976 1.366 . S
C4977 C4978 1.414 . S
C4977 C4980 1.499 . S
C4978 H4958 0.950 . S
C4978 C4977 1.414 . S
C4978 C4979 1.374 . S
C4979 H4959 0.950 . S
C4979 C4975 1.385 . S
C4979 C4978 1.374 . S
C4980 C4977 1.499 . S
C4980 C4981 1.373 . S
C4980 C4982 1.389 . S
C4981 H4960 0.950 . S
C4981 C4980 1.373 . S
C4981 C4997 1.377 . S
C4982 C4980 1.389 . S
C4982 C4983 1.524 . S
C4982 C4996 1.377 . S
C4983 C4982 1.524 . S
C4983 C4984 1.397 . S
C4983 C4988 1.363 . S
C4984 H4961 0.950 . S
C4984 C4983 1.397 . S
C4984 C4985 1.334 . S
C4985 H4962 0.950 . S
C4985 C4984 1.334 . S
C4985 C4986 1.287 . S
C4986 C4985 1.287 . S
C4986 C4987 1.524 . S
C4986 H5005 0.913 . S
C4987 H4963 0.950 . S
C4987 C4986 1.524 . S
C4987 C4988 1.415 . S
C4988 H4964 0.950 . S
C4988 C4983 1.363 . S
C4988 C4987 1.415 . S
C4989 H4965 0.951 1_655 S
C4989 C4990 1.366 . S
C4989 C4991 1.388 . S
C4990 C4989 1.366 . S
C4990 C4994 1.385 . S
C4991 H4966 0.951 . S
C4991 C4989 1.388 . S
C4991 C4992 1.366 . S
C4992 C4991 1.366 . S
C4992 C4993 1.414 . S
C4992 C4995 1.499 . S
C4993 H4967 0.950 . S
C4993 C4992 1.414 . S
C4993 C4994 1.374 . S
C4994 H4968 0.950 . S
C4994 C4990 1.385 . S
C4994 C4993 1.374 . S
C4995 C4992 1.499 . S
C4995 C4996 1.373 . S
C4995 C4997 1.389 . S
C4996 H4969 0.950 . S
C4996 C4982 1.377 . S
C4996 C4995 1.373 . S
C4997 C4981 1.377 . S
C4997 C4995 1.389 . S
C4997 C4998 1.524 . S
C4998 C4997 1.524 . S
C4998 C4999 1.397 . S
C4998 C5003 1.363 . S
C4999 H4970 0.950 . S
C4999 C4998 1.397 . S
C4999 C5000 1.334 . S
C5000 H4971 0.950 . S
C5000 C4999 1.334 . S
C5000 C5001 1.287 . S
C5001 C5000 1.287 . S
C5001 C5002 1.524 . S
C5001 H5004 0.999 . S
C5002 H4972 0.950 . S
C5002 C5001 1.524 . S
C5002 C5003 1.415 . S
C5003 H4973 0.950 . S
C5003 C4998 1.363 . S
C5003 C5002 1.415 . S
H5004 C5001 0.999 . S
H5005 C4986 0.913 . S
H5006 C5024 0.951 . S
H5007 C5026 0.951 . S
H5008 C5028 0.950 . S
H5009 C5029 0.950 . S
H5010 C5031 0.950 . S
H5011 C5034 0.950 . S
H5012 C5035 0.950 . S
H5013 C5037 0.950 . S
H5014 C5038 0.950 . S
H5015 C5039 0.951 . S
H5016 C5041 0.951 . S
H5017 C5043 0.950 . S
H5018 C5044 0.950 . S
H5019 C5046 0.950 . S
H5020 C5049 0.950 . S
H5021 C5050 0.950 . S
H5022 C5052 0.950 . S
H5023 C5053 0.950 . S
C5024 H5006 0.951 . S
C5024 C5025 1.366 . S
C5024 C5026 1.388 . S
C5025 C5024 1.366 . S
C5025 C5029 1.385 . S
C5026 H5007 0.951 . S
C5026 C5024 1.388 . S
C5026 C5027 1.366 . S
C5027 C5026 1.366 . S
C5027 C5028 1.414 . S
C5027 C5030 1.499 . S
C5028 H5008 0.950 . S
C5028 C5027 1.414 . S
C5028 C5029 1.374 . S
C5029 H5009 0.950 . S
C5029 C5025 1.385 . S
C5029 C5028 1.374 . S
C5030 C5027 1.499 . S
C5030 C5031 1.373 . S
C5030 C5032 1.389 . S
C5031 H5010 0.950 . S
C5031 C5030 1.373 . S
C5031 C5047 1.377 . S
C5032 C5030 1.389 . S
C5032 C5033 1.524 . S
C5032 C5046 1.377 . S
C5033 C5032 1.524 . S
C5033 C5034 1.397 . S
C5033 C5038 1.363 . S
C5034 H5011 0.950 . S
C5034 C5033 1.397 . S
C5034 C5035 1.334 . S
C5035 H5012 0.950 . S
C5035 C5034 1.334 . S
C5035 C5036 1.287 . S
C5036 C5035 1.287 . S
C5036 C5037 1.524 . S
C5036 H5055 0.913 . S
C5037 H5013 0.950 . S
C5037 C5036 1.524 . S
C5037 C5038 1.415 . S
C5038 H5014 0.950 . S
C5038 C5033 1.363 . S
C5038 C5037 1.415 . S
C5039 H5015 0.951 . S
C5039 C5040 1.366 . S
C5039 C5041 1.388 . S
C5040 C5039 1.366 . S
C5040 C5044 1.385 . S
C5041 H5016 0.951 . S
C5041 C5039 1.388 . S
C5041 C5042 1.366 . S
C5042 C5041 1.366 . S
C5042 C5043 1.414 . S
C5042 C5045 1.499 . S
C5043 H5017 0.950 . S
C5043 C5042 1.414 . S
C5043 C5044 1.374 . S
C5044 H5018 0.950 . S
C5044 C5040 1.385 . S
C5044 C5043 1.374 . S
C5045 C5042 1.499 . S
C5045 C5046 1.373 . S
C5045 C5047 1.389 . S
C5046 H5019 0.950 . S
C5046 C5032 1.377 . S
C5046 C5045 1.373 . S
C5047 C5031 1.377 . S
C5047 C5045 1.389 . S
C5047 C5048 1.524 . S
C5048 C5047 1.524 . S
C5048 C5049 1.397 . S
C5048 C5053 1.363 . S
C5049 H5020 0.950 . S
C5049 C5048 1.397 . S
C5049 C5050 1.334 . S
C5050 H5021 0.950 . S
C5050 C5049 1.334 . S
C5050 C5051 1.287 . S
C5051 C5050 1.287 . S
C5051 C5052 1.524 . S
C5051 H5054 0.999 . S
C5052 H5022 0.950 . S
C5052 C5051 1.524 . S
C5052 C5053 1.415 . S
C5053 H5023 0.950 . S
C5053 C5048 1.363 . S
C5053 C5052 1.415 . S
H5054 C5051 0.999 . S
H5055 C5036 0.913 . S
H5056 C5074 0.951 . S
H5057 C5076 0.951 . S
H5058 C5078 0.950 . S
H5059 C5079 0.950 . S
H5060 C5081 0.950 . S
H5061 C5084 0.950 . S
H5062 C5085 0.950 . S
H5063 C5087 0.950 . S
H5064 C5088 0.950 . S
H5065 C5089 0.951 . S
H5066 C5091 0.951 . S
H5067 C5093 0.950 . S
H5068 C5094 0.950 . S
H5069 C5096 0.950 . S
H5070 C5099 0.950 . S
H5071 C5100 0.950 . S
H5072 C5102 0.950 . S
H5073 C5103 0.950 . S
C5074 H5056 0.951 . S
C5074 C5075 1.366 . S
C5074 C5076 1.388 . S
C5075 C5074 1.366 . S
C5075 C5079 1.385 . S
C5076 H5057 0.951 . S
C5076 C5074 1.388 . S
C5076 C5077 1.366 . S
C5077 C5076 1.366 . S
C5077 C5078 1.414 . S
C5077 C5080 1.499 . S
C5078 H5058 0.950 . S
C5078 C5077 1.414 . S
C5078 C5079 1.374 . S
C5079 H5059 0.950 . S
C5079 C5075 1.385 . S
C5079 C5078 1.374 . S
C5080 C5077 1.499 . S
C5080 C5081 1.373 . S
C5080 C5082 1.389 . S
C5081 H5060 0.950 . S
C5081 C5080 1.373 . S
C5081 C5097 1.377 . S
C5082 C5080 1.389 . S
C5082 C5083 1.524 . S
C5082 C5096 1.377 . S
C5083 C5082 1.524 . S
C5083 C5084 1.397 . S
C5083 C5088 1.363 . S
C5084 H5061 0.950 . S
C5084 C5083 1.397 . S
C5084 C5085 1.334 . S
C5085 H5062 0.950 . S
C5085 C5084 1.334 . S
C5085 C5086 1.287 . S
C5086 C5085 1.287 . S
C5086 C5087 1.524 . S
C5086 H5105 0.913 . S
C5087 H5063 0.950 . S
C5087 C5086 1.524 . S
C5087 C5088 1.415 . S
C5088 H5064 0.950 . S
C5088 C5083 1.363 . S
C5088 C5087 1.415 . S
C5089 H5065 0.951 . S
C5089 C5090 1.366 . S
C5089 C5091 1.388 . S
C5090 C5089 1.366 . S
C5090 C5094 1.385 . S
C5091 H5066 0.951 . S
C5091 C5089 1.388 . S
C5091 C5092 1.366 . S
C5092 C5091 1.366 . S
C5092 C5093 1.414 . S
C5092 C5095 1.499 . S
C5093 H5067 0.950 . S
C5093 C5092 1.414 . S
C5093 C5094 1.374 . S
C5094 H5068 0.950 . S
C5094 C5090 1.385 . S
C5094 C5093 1.374 . S
C5095 C5092 1.499 . S
C5095 C5096 1.373 . S
C5095 C5097 1.389 . S
C5096 H5069 0.950 . S
C5096 C5082 1.377 . S
C5096 C5095 1.373 . S
C5097 C5081 1.377 . S
C5097 C5095 1.389 . S
C5097 C5098 1.524 . S
C5098 C5097 1.524 . S
C5098 C5099 1.397 . S
C5098 C5103 1.363 . S
C5099 H5070 0.950 . S
C5099 C5098 1.397 . S
C5099 C5100 1.334 . S
C5100 H5071 0.950 . S
C5100 C5099 1.334 . S
C5100 C5101 1.287 . S
C5101 C5100 1.287 . S
C5101 C5102 1.524 . S
C5101 H5104 0.999 . S
C5102 H5072 0.950 . S
C5102 C5101 1.524 . S
C5102 C5103 1.415 . S
C5103 H5073 0.950 . S
C5103 C5098 1.363 . S
C5103 C5102 1.415 . S
H5104 C5101 0.999 . S
H5105 C5086 0.913 . S
H5106 C5124 0.951 . S
H5107 C5126 0.951 . S
H5108 C5128 0.950 . S
H5109 C5129 0.950 . S
H5110 C5131 0.950 . S
H5111 C5134 0.950 . S
H5112 C5135 0.950 . S
H5113 C5137 0.950 1_545 S
H5114 C5138 0.950 . S
H5115 C5139 0.951 . S
H5116 C5141 0.951 . S
H5117 C5143 0.950 . S
H5118 C5144 0.945 1_545 S
H5119 C5146 0.950 . S
H5120 C5149 0.950 . S
H5121 C5150 0.950 . S
H5122 C5152 0.950 . S
H5123 C5153 0.950 . S
C5124 H5106 0.951 . S
C5124 C5125 1.366 . S
C5124 C5126 1.388 . S
C5125 C5124 1.366 . S
C5125 C5129 1.385 . S
C5126 H5107 0.951 . S
C5126 C5124 1.388 . S
C5126 C5127 1.366 . S
C5127 C5126 1.366 . S
C5127 C5128 1.414 . S
C5127 C5130 1.499 . S
C5128 H5108 0.950 . S
C5128 C5127 1.414 . S
C5128 C5129 1.374 . S
C5129 H5109 0.950 . S
C5129 C5125 1.385 . S
C5129 C5128 1.374 . S
C5130 C5127 1.499 . S
C5130 C5131 1.373 . S
C5130 C5132 1.389 . S
C5131 H5110 0.950 . S
C5131 C5130 1.373 . S
C5131 C5147 1.377 . S
C5132 C5130 1.389 . S
C5132 C5133 1.524 . S
C5132 C5146 1.377 . S
C5133 C5132 1.524 . S
C5133 C5134 1.397 . S
C5133 C5138 1.363 . S
C5134 H5111 0.950 . S
C5134 C5133 1.397 . S
C5134 C5135 1.334 . S
C5135 H5112 0.950 . S
C5135 C5134 1.334 . S
C5135 C5136 1.287 . S
C5136 C5135 1.287 . S
C5136 C5137 1.524 . S
C5136 H5155 0.913 1_565 S
C5137 H5113 0.950 1_565 S
C5137 C5136 1.524 . S
C5137 C5138 1.415 . S
C5138 H5114 0.950 . S
C5138 C5133 1.363 . S
C5138 C5137 1.415 . S
C5139 H5115 0.951 . S
C5139 C5140 1.374 . S
C5139 C5141 1.388 . S
C5140 C5139 1.374 . S
C5140 C5144 1.385 . S
C5141 H5116 0.951 . S
C5141 C5139 1.388 . S
C5141 C5142 1.366 . S
C5142 C5141 1.366 . S
C5142 C5143 1.414 . S
C5142 C5145 1.499 . S
C5143 H5117 0.950 . S
C5143 C5142 1.414 . S
C5143 C5144 1.379 . S
C5144 H5118 0.945 1_565 S
C5144 C5140 1.385 . S
C5144 C5143 1.379 . S
C5145 C5142 1.499 . S
C5145 C5146 1.373 . S
C5145 C5147 1.389 . S
C5146 H5119 0.950 . S
C5146 C5132 1.377 . S
C5146 C5145 1.373 . S
C5147 C5131 1.377 . S
C5147 C5145 1.389 . S
C5147 C5148 1.524 . S
C5148 C5147 1.524 . S
C5148 C5149 1.397 . S
C5148 C5153 1.363 . S
C5149 H5120 0.950 . S
C5149 C5148 1.397 . S
C5149 C5150 1.334 . S
C5150 H5121 0.950 . S
C5150 C5149 1.334 . S
C5150 C5151 1.287 . S
C5151 C5150 1.287 . S
C5151 C5152 1.524 . S
C5151 H5154 0.999 . S
C5152 H5122 0.950 . S
C5152 C5151 1.524 . S
C5152 C5153 1.415 . S
C5153 H5123 0.950 . S
C5153 C5148 1.363 . S
C5153 C5152 1.415 . S
H5154 C5151 0.999 . S
H5155 C5136 0.913 1_545 S
H5156 C5174 0.951 . S
H5157 C5176 0.951 . S
H5158 C5178 0.950 . S
H5159 C5179 0.950 . S
H5160 C5181 0.950 . S
H5161 C5184 0.950 . S
H5162 C5185 0.950 . S
H5163 C5187 0.950 . S
H5164 C5188 0.950 . S
H5165 C5189 0.951 . S
H5166 C5191 0.951 . S
H5167 C5193 0.950 . S
H5168 C5194 0.950 . S
H5169 C5196 0.950 . S
H5170 C5199 0.950 . S
H5171 C5200 0.950 . S
H5172 C5202 0.950 . S
H5173 C5203 0.950 . S
C5174 H5156 0.951 . S
C5174 C5175 1.366 . S
C5174 C5176 1.388 . S
C5175 C5174 1.366 . S
C5175 C5179 1.385 . S
C5176 H5157 0.951 . S
C5176 C5174 1.388 . S
C5176 C5177 1.366 . S
C5177 C5176 1.366 . S
C5177 C5178 1.414 . S
C5177 C5180 1.499 . S
C5178 H5158 0.950 . S
C5178 C5177 1.414 . S
C5178 C5179 1.374 . S
C5179 H5159 0.950 . S
C5179 C5175 1.385 . S
C5179 C5178 1.374 . S
C5180 C5177 1.499 . S
C5180 C5181 1.373 . S
C5180 C5182 1.389 . S
C5181 H5160 0.950 . S
C5181 C5180 1.373 . S
C5181 C5197 1.377 . S
C5182 C5180 1.389 . S
C5182 C5183 1.524 . S
C5182 C5196 1.377 . S
C5183 C5182 1.524 . S
C5183 C5184 1.397 . S
C5183 C5188 1.363 . S
C5184 H5161 0.950 . S
C5184 C5183 1.397 . S
C5184 C5185 1.334 . S
C5185 H5162 0.950 . S
C5185 C5184 1.334 . S
C5185 C5186 1.287 . S
C5186 C5185 1.287 . S
C5186 C5187 1.524 . S
C5186 H5205 0.913 . S
C5187 H5163 0.950 . S
C5187 C5186 1.524 . S
C5187 C5188 1.415 . S
C5188 H5164 0.950 . S
C5188 C5183 1.363 . S
C5188 C5187 1.415 . S
C5189 H5165 0.951 . S
C5189 C5190 1.366 . S
C5189 C5191 1.388 . S
C5190 C5189 1.366 . S
C5190 C5194 1.385 . S
C5191 H5166 0.951 . S
C5191 C5189 1.388 . S
C5191 C5192 1.366 . S
C5192 C5191 1.366 . S
C5192 C5193 1.414 . S
C5192 C5195 1.499 . S
C5193 H5167 0.950 . S
C5193 C5192 1.414 . S
C5193 C5194 1.374 . S
C5194 H5168 0.950 . S
C5194 C5190 1.385 . S
C5194 C5193 1.374 . S
C5195 C5192 1.499 . S
C5195 C5196 1.373 . S
C5195 C5197 1.389 . S
C5196 H5169 0.950 . S
C5196 C5182 1.377 . S
C5196 C5195 1.373 . S
C5197 C5181 1.377 . S
C5197 C5195 1.389 . S
C5197 C5198 1.524 . S
C5198 C5197 1.524 . S
C5198 C5199 1.397 . S
C5198 C5203 1.363 . S
C5199 H5170 0.950 . S
C5199 C5198 1.397 . S
C5199 C5200 1.334 . S
C5200 H5171 0.950 . S
C5200 C5199 1.334 . S
C5200 C5201 1.287 . S
C5201 C5200 1.287 . S
C5201 C5202 1.524 . S
C5201 H5204 0.999 . S
C5202 H5172 0.950 . S
C5202 C5201 1.524 . S
C5202 C5203 1.415 . S
C5203 H5173 0.950 . S
C5203 C5198 1.363 . S
C5203 C5202 1.415 . S
H5204 C5201 0.999 . S
H5205 C5186 0.913 . S
H5206 C5224 0.951 . S
H5207 C5226 0.951 . S
H5208 C5228 0.950 . S
H5209 C5229 0.950 . S
H5210 C5231 0.950 . S
H5211 C5234 0.950 . S
H5212 C5235 0.950 . S
H5213 C5237 0.950 . S
H5214 C5238 0.950 . S
H5215 C5239 0.951 . S
H5216 C5241 0.951 . S
H5217 C5243 0.950 . S
H5218 C5244 0.950 . S
H5219 C5246 0.950 . S
H5220 C5249 0.950 . S
H5221 C5250 0.950 1_565 S
H5222 C5252 0.950 . S
H5223 C5253 0.950 . S
C5224 H5206 0.951 . S
C5224 C5225 1.366 . S
C5224 C5226 1.388 . S
C5225 C5224 1.366 . S
C5225 C5229 1.385 1_556 S
C5226 H5207 0.951 . S
C5226 C5224 1.388 . S
C5226 C5227 1.366 1_556 S
C5227 C5226 1.366 1_554 S
C5227 C5228 1.414 . S
C5227 C5230 1.499 . S
C5228 H5208 0.950 . S
C5228 C5227 1.414 . S
C5228 C5229 1.374 . S
C5229 H5209 0.950 . S
C5229 C5225 1.385 1_554 S
C5229 C5228 1.374 . S
C5230 C5227 1.499 . S
C5230 C5231 1.373 . S
C5230 C5232 1.389 . S
C5231 H5210 0.950 . S
C5231 C5230 1.373 . S
C5231 C5247 1.377 . S
C5232 C5230 1.389 . S
C5232 C5233 1.524 . S
C5232 C5246 1.377 . S
C5233 C5232 1.524 . S
C5233 C5234 1.397 . S
C5233 C5238 1.363 1_554 S
C5234 H5211 0.950 . S
C5234 C5233 1.397 . S
C5234 C5235 1.334 . S
C5235 H5212 0.950 . S
C5235 C5234 1.334 . S
C5235 C5236 1.287 . S
C5236 C5235 1.287 . S
C5236 C5237 1.524 1_554 S
C5236 H5255 0.913 . S
C5237 H5213 0.950 . S
C5237 C5236 1.524 1_556 S
C5237 C5238 1.415 . S
C5238 H5214 0.950 . S
C5238 C5233 1.363 1_556 S
C5238 C5237 1.415 . S
C5239 H5215 0.951 . S
C5239 C5240 1.366 . S
C5239 C5241 1.388 . S
C5240 C5239 1.366 . S
C5240 C5244 1.385 1_554 S
C5241 H5216 0.951 . S
C5241 C5239 1.388 . S
C5241 C5242 1.366 . S
C5242 C5241 1.366 . S
C5242 C5243 1.414 1_554 S
C5242 C5245 1.499 . S
C5243 H5217 0.950 . S
C5243 C5242 1.414 1_556 S
C5243 C5244 1.374 . S
C5244 H5218 0.950 . S
C5244 C5240 1.385 1_556 S
C5244 C5243 1.374 . S
C5245 C5242 1.499 . S
C5245 C5246 1.373 . S
C5245 C5247 1.389 . S
C5246 H5219 0.950 . S
C5246 C5232 1.377 . S
C5246 C5245 1.373 . S
C5247 C5231 1.377 . S
C5247 C5245 1.389 . S
C5247 C5248 1.524 . S
C5248 C5247 1.524 . S
C5248 C5249 1.397 1_554 S
C5248 C5253 1.363 . S
C5249 H5220 0.950 . S
C5249 C5248 1.397 1_556 S
C5249 C5250 1.334 . S
C5250 H5221 0.950 1_545 S
C5250 C5249 1.334 . S
C5250 C5251 1.287 1_546 S
C5251 C5250 1.287 1_564 S
C5251 C5252 1.524 1_565 S
C5251 H5254 0.999 . S
C5252 H5222 0.950 . S
C5252 C5251 1.524 1_545 S
C5252 C5253 1.415 . S
C5253 H5223 0.950 . S
C5253 C5248 1.363 . S
C5253 C5252 1.415 . S
H5254 C5251 0.999 . S
H5255 C5236 0.913 . S
H5256 C5274 0.951 . S
H5257 C5276 0.951 . S
H5258 C5278 0.950 . S
H5259 C5279 0.950 . S
H5260 C5281 0.950 . S
H5261 C5284 0.950 . S
H5262 C5285 0.950 . S
H5263 C5287 0.950 . S
H5264 C5288 0.950 . S
H5265 C5289 0.951 . S
H5266 C5291 0.951 . S
H5267 C5293 0.950 . S
H5268 C5294 0.950 . S
H5269 C5296 0.950 . S
H5270 C5299 0.950 . S
H5271 C5300 0.950 . S
H5272 C5302 0.950 . S
H5273 C5303 0.950 . S
C5274 H5256 0.951 . S
C5274 C5275 1.366 . S
C5274 C5276 1.388 . S
C5275 C5274 1.366 . S
C5275 C5279 1.385 . S
C5276 H5257 0.951 . S
C5276 C5274 1.388 . S
C5276 C5277 1.366 . S
C5277 C5276 1.366 . S
C5277 C5278 1.414 . S
C5277 C5280 1.499 . S
C5278 H5258 0.950 . S
C5278 C5277 1.414 . S
C5278 C5279 1.374 . S
C5279 H5259 0.950 . S
C5279 C5275 1.385 . S
C5279 C5278 1.374 . S
C5280 C5277 1.499 . S
C5280 C5281 1.373 . S
C5280 C5282 1.389 . S
C5281 H5260 0.950 . S
C5281 C5280 1.373 . S
C5281 C5297 1.377 . S
C5282 C5280 1.389 . S
C5282 C5283 1.524 . S
C5282 C5296 1.377 . S
C5283 C5282 1.524 . S
C5283 C5284 1.397 . S
C5283 C5288 1.363 . S
C5284 H5261 0.950 . S
C5284 C5283 1.397 . S
C5284 C5285 1.334 . S
C5285 H5262 0.950 . S
C5285 C5284 1.334 . S
C5285 C5286 1.287 . S
C5286 C5285 1.287 . S
C5286 C5287 1.524 . S
C5286 H5305 0.913 . S
C5287 H5263 0.950 . S
C5287 C5286 1.524 . S
C5287 C5288 1.415 . S
C5288 H5264 0.950 . S
C5288 C5283 1.363 . S
C5288 C5287 1.415 . S
C5289 H5265 0.951 . S
C5289 C5290 1.366 . S
C5289 C5291 1.388 . S
C5290 C5289 1.366 . S
C5290 C5294 1.385 . S
C5291 H5266 0.951 . S
C5291 C5289 1.388 . S
C5291 C5292 1.366 . S
C5292 C5291 1.366 . S
C5292 C5293 1.414 . S
C5292 C5295 1.499 . S
C5293 H5267 0.950 . S
C5293 C5292 1.414 . S
C5293 C5294 1.374 . S
C5294 H5268 0.950 . S
C5294 C5290 1.385 . S
C5294 C5293 1.374 . S
C5295 C5292 1.499 . S
C5295 C5296 1.373 . S
C5295 C5297 1.389 . S
C5296 H5269 0.950 . S
C5296 C5282 1.377 . S
C5296 C5295 1.373 . S
C5297 C5281 1.377 . S
C5297 C5295 1.389 . S
C5297 C5298 1.524 . S
C5298 C5297 1.524 . S
C5298 C5299 1.397 . S
C5298 C5303 1.363 . S
C5299 H5270 0.950 . S
C5299 C5298 1.397 . S
C5299 C5300 1.334 . S
C5300 H5271 0.950 . S
C5300 C5299 1.334 . S
C5300 C5301 1.287 . S
C5301 C5300 1.287 . S
C5301 C5302 1.524 . S
C5301 H5304 0.999 . S
C5302 H5272 0.950 . S
C5302 C5301 1.524 . S
C5302 C5303 1.415 . S
C5303 H5273 0.950 . S
C5303 C5298 1.363 . S
C5303 C5302 1.415 . S
H5304 C5301 0.999 . S
H5305 C5286 0.913 . S
H5306 C5324 0.971 . S
H5307 C5326 0.951 . S
H5308 C5328 0.950 . S
H5309 C5329 0.950 . S
H5310 C5331 0.950 . S
H5311 C5334 0.950 . S
H5312 C5335 0.950 . S
H5313 C5337 0.950 . S
H5314 C5338 0.950 . S
H5315 C5339 0.951 . S
H5316 C5341 0.951 . S
H5317 C5343 0.950 . S
H5318 C5344 0.950 . S
H5319 C5346 0.950 . S
H5320 C5349 0.950 . S
H5321 C5350 0.950 . S
H5322 C5352 0.950 . S
H5323 C5353 0.950 . S
C5324 H5306 0.971 . S
C5324 C5325 1.342 1_556 S
C5324 C5326 1.392 . S
C5325 C5324 1.342 1_554 S
C5325 C5329 1.385 . S
C5326 H5307 0.951 . S
C5326 C5324 1.392 . S
C5326 C5327 1.366 1_556 S
C5327 C5326 1.366 1_554 S
C5327 C5328 1.414 . S
C5327 C5330 1.499 . S
C5328 H5308 0.950 . S
C5328 C5327 1.414 . S
C5328 C5329 1.374 . S
C5329 H5309 0.950 . S
C5329 C5325 1.385 . S
C5329 C5328 1.374 . S
C5330 C5327 1.499 . S
C5330 C5331 1.373 . S
C5330 C5332 1.389 1_554 S
C5331 H5310 0.950 . S
C5331 C5330 1.373 . S
C5331 C5347 1.377 . S
C5332 C5330 1.389 1_556 S
C5332 C5333 1.524 . S
C5332 C5346 1.377 . S
C5333 C5332 1.524 . S
C5333 C5334 1.397 . S
C5333 C5338 1.363 . S
C5334 H5311 0.950 . S
C5334 C5333 1.397 . S
C5334 C5335 1.334 . S
C5335 H5312 0.950 . S
C5335 C5334 1.334 . S
C5335 C5336 1.287 . S
C5336 C5335 1.287 . S
C5336 C5337 1.524 . S
C5336 H5355 0.913 . S
C5337 H5313 0.950 . S
C5337 C5336 1.524 . S
C5337 C5338 1.415 . S
C5338 H5314 0.950 . S
C5338 C5333 1.363 . S
C5338 C5337 1.415 . S
C5339 H5315 0.951 . S
C5339 C5340 1.369 1_554 S
C5339 C5341 1.388 . S
C5340 C5339 1.369 1_556 S
C5340 C5344 1.382 . S
C5341 H5316 0.951 . S
C5341 C5339 1.388 . S
C5341 C5342 1.366 . S
C5342 C5341 1.366 . S
C5342 C5343 1.414 1_554 S
C5342 C5345 1.499 . S
C5343 H5317 0.950 . S
C5343 C5342 1.414 1_556 S
C5343 C5344 1.374 . S
C5344 H5318 0.950 . S
C5344 C5340 1.382 . S
C5344 C5343 1.374 . S
C5345 C5342 1.499 . S
C5345 C5346 1.373 1_554 S
C5345 C5347 1.389 . S
C5346 H5319 0.950 . S
C5346 C5332 1.377 . S
C5346 C5345 1.373 1_556 S
C5347 C5331 1.377 . S
C5347 C5345 1.389 . S
C5347 C5348 1.524 . S
C5348 C5347 1.524 . S
C5348 C5349 1.397 . S
C5348 C5353 1.363 . S
C5349 H5320 0.950 . S
C5349 C5348 1.397 . S
C5349 C5350 1.334 . S
C5350 H5321 0.950 . S
C5350 C5349 1.334 . S
C5350 C5351 1.287 . S
C5351 C5350 1.287 . S
C5351 C5352 1.524 . S
C5351 H5354 0.999 . S
C5352 H5322 0.950 . S
C5352 C5351 1.524 . S
C5352 C5353 1.415 . S
C5353 H5323 0.950 . S
C5353 C5348 1.363 . S
C5353 C5352 1.415 . S
H5354 C5351 0.999 . S
H5355 C5336 0.913 . S
H5356 C5374 0.951 . S
H5357 C5376 0.951 . S
H5358 C5378 0.950 . S
H5359 C5379 0.950 . S
H5360 C5381 0.950 . S
H5361 C5384 0.950 . S
H5362 C5385 0.950 . S
H5363 C5387 0.950 . S
H5364 C5388 0.950 . S
H5365 C5389 0.951 . S
H5366 C5391 0.951 . S
H5367 C5393 0.950 . S
H5368 C5394 0.950 . S
H5369 C5396 0.950 . S
H5370 C5399 0.950 . S
H5371 C5400 0.950 . S
H5372 C5402 0.950 . S
H5373 C5403 0.950 . S
C5374 H5356 0.951 . S
C5374 C5375 1.366 . S
C5374 C5376 1.388 . S
C5375 C5374 1.366 . S
C5375 C5379 1.385 . S
C5376 H5357 0.951 . S
C5376 C5374 1.388 . S
C5376 C5377 1.366 . S
C5377 C5376 1.366 . S
C5377 C5378 1.414 . S
C5377 C5380 1.499 . S
C5378 H5358 0.950 . S
C5378 C5377 1.414 . S
C5378 C5379 1.374 . S
C5379 H5359 0.950 . S
C5379 C5375 1.385 . S
C5379 C5378 1.374 . S
C5380 C5377 1.499 . S
C5380 C5381 1.373 . S
C5380 C5382 1.389 . S
C5381 H5360 0.950 . S
C5381 C5380 1.373 . S
C5381 C5397 1.377 . S
C5382 C5380 1.389 . S
C5382 C5383 1.524 . S
C5382 C5396 1.377 . S
C5383 C5382 1.524 . S
C5383 C5384 1.397 . S
C5383 C5388 1.363 . S
C5384 H5361 0.950 . S
C5384 C5383 1.397 . S
C5384 C5385 1.334 . S
C5385 H5362 0.950 . S
C5385 C5384 1.334 . S
C5385 C5386 1.287 . S
C5386 C5385 1.287 . S
C5386 C5387 1.524 . S
C5386 H5405 0.913 . S
C5387 H5363 0.950 . S
C5387 C5386 1.524 . S
C5387 C5388 1.415 . S
C5388 H5364 0.950 . S
C5388 C5383 1.363 . S
C5388 C5387 1.415 . S
C5389 H5365 0.951 . S
C5389 C5390 1.366 . S
C5389 C5391 1.388 . S
C5390 C5389 1.366 . S
C5390 C5394 1.385 . S
C5391 H5366 0.951 . S
C5391 C5389 1.388 . S
C5391 C5392 1.366 . S
C5392 C5391 1.366 . S
C5392 C5393 1.414 . S
C5392 C5395 1.499 . S
C5393 H5367 0.950 . S
C5393 C5392 1.414 . S
C5393 C5394 1.374 . S
C5394 H5368 0.950 . S
C5394 C5390 1.385 . S
C5394 C5393 1.374 . S
C5395 C5392 1.499 . S
C5395 C5396 1.373 . S
C5395 C5397 1.389 . S
C5396 H5369 0.950 . S
C5396 C5382 1.377 . S
C5396 C5395 1.373 . S
C5397 C5381 1.377 . S
C5397 C5395 1.389 . S
C5397 C5398 1.524 . S
C5398 C5397 1.524 . S
C5398 C5399 1.397 . S
C5398 C5403 1.363 . S
C5399 H5370 0.950 . S
C5399 C5398 1.397 . S
C5399 C5400 1.334 . S
C5400 H5371 0.950 . S
C5400 C5399 1.334 . S
C5400 C5401 1.287 . S
C5401 C5400 1.287 . S
C5401 C5402 1.524 . S
C5401 H5404 0.999 . S
C5402 H5372 0.950 . S
C5402 C5401 1.524 . S
C5402 C5403 1.415 . S
C5403 H5373 0.950 . S
C5403 C5398 1.363 . S
C5403 C5402 1.415 . S
H5404 C5401 0.999 . S
H5405 C5386 0.913 . S
H5406 C5424 0.951 . S
H5407 C5426 0.951 . S
H5408 C5428 0.950 . S
H5409 C5429 0.950 . S
H5410 C5431 0.950 . S
H5411 C5434 0.950 . S
H5412 C5435 0.950 . S
H5413 C5437 0.950 . S
H5414 C5438 0.950 . S
H5415 C5439 0.951 . S
H5416 C5441 0.951 . S
H5417 C5443 0.950 . S
H5418 C5444 0.950 . S
H5419 C5446 0.950 . S
H5420 C5449 0.950 . S
H5421 C5450 0.950 . S
H5422 C5452 0.950 . S
H5423 C5453 0.950 . S
C5424 H5406 0.951 . S
C5424 C5425 1.366 . S
C5424 C5426 1.388 . S
C5425 C5424 1.366 . S
C5425 C5429 1.385 . S
C5426 H5407 0.951 . S
C5426 C5424 1.388 . S
C5426 C5427 1.366 . S
C5427 C5426 1.366 . S
C5427 C5428 1.414 . S
C5427 C5430 1.499 . S
C5428 H5408 0.950 . S
C5428 C5427 1.414 . S
C5428 C5429 1.374 . S
C5429 H5409 0.950 . S
C5429 C5425 1.385 . S
C5429 C5428 1.374 . S
C5430 C5427 1.499 . S
C5430 C5431 1.373 . S
C5430 C5432 1.389 . S
C5431 H5410 0.950 . S
C5431 C5430 1.373 . S
C5431 C5447 1.377 . S
C5432 C5430 1.389 . S
C5432 C5433 1.524 . S
C5432 C5446 1.377 . S
C5433 C5432 1.524 . S
C5433 C5434 1.397 . S
C5433 C5438 1.363 . S
C5434 H5411 0.950 . S
C5434 C5433 1.397 . S
C5434 C5435 1.334 . S
C5435 H5412 0.950 . S
C5435 C5434 1.334 . S
C5435 C5436 1.287 . S
C5436 C5435 1.287 . S
C5436 C5437 1.524 . S
C5436 H5455 0.913 . S
C5437 H5413 0.950 . S
C5437 C5436 1.524 . S
C5437 C5438 1.415 . S
C5438 H5414 0.950 . S
C5438 C5433 1.363 . S
C5438 C5437 1.415 . S
C5439 H5415 0.951 . S
C5439 C5440 1.366 . S
C5439 C5441 1.388 . S
C5440 C5439 1.366 . S
C5440 C5444 1.385 . S
C5441 H5416 0.951 . S
C5441 C5439 1.388 . S
C5441 C5442 1.366 . S
C5442 C5441 1.366 . S
C5442 C5443 1.414 . S
C5442 C5445 1.499 . S
C5443 H5417 0.950 . S
C5443 C5442 1.414 . S
C5443 C5444 1.374 . S
C5444 H5418 0.950 . S
C5444 C5440 1.385 . S
C5444 C5443 1.374 . S
C5445 C5442 1.499 . S
C5445 C5446 1.373 . S
C5445 C5447 1.389 . S
C5446 H5419 0.950 . S
C5446 C5432 1.377 . S
C5446 C5445 1.373 . S
C5447 C5431 1.377 . S
C5447 C5445 1.389 . S
C5447 C5448 1.524 . S
C5448 C5447 1.524 . S
C5448 C5449 1.397 . S
C5448 C5453 1.363 . S
C5449 H5420 0.950 . S
C5449 C5448 1.397 . S
C5449 C5450 1.334 . S
C5450 H5421 0.950 . S
C5450 C5449 1.334 . S
C5450 C5451 1.287 . S
C5451 C5450 1.287 . S
C5451 C5452 1.524 . S
C5451 H5454 0.999 . S
C5452 H5422 0.950 . S
C5452 C5451 1.524 . S
C5452 C5453 1.415 . S
C5453 H5423 0.950 . S
C5453 C5448 1.363 . S
C5453 C5452 1.415 . S
H5454 C5451 0.999 . S
H5455 C5436 0.913 . S
C675 C109 1.469 . S
C690 C354 1.429 . S
C725 C65 1.569 . S
C740 C365 1.564 . S
C775 C75 0.852 . S
C790 C394 0.842 . S
C840 C397 1.469 . S
C825 C84 1.469 . S
C875 C25 1.576 . S
C890 C435 1.532 . S
C940 C438 0.766 . S
C925 C28 0.764 . S
C990 C465 1.429 . S
C975 C47 1.434 . S
C1025 C9 1.647 . S
C1040 C494 1.589 . S
C1090 C345 1.561 1_655 S
C1075 C233 1.571 . S
C1125 C249 0.665 . S
C1140 C357 0.666 . S
C1190 C385 1.634 . S
C1175 C275 1.644 . S
C1240 C414 0.940 . S
C1225 C173 0.952 . S
C1275 C224 0.896 . S
C1290 C418 0.918 . S
C1340 C444 1.628 . S
C1325 C243 1.651 . S
C1390 C457 0.598 . S
C1375 C266 0.595 . S
C1440 C485 1.482 . S
C1425 C179 1.490 . S
C1490 C337 1.551 1_565 S
C1475 C163 1.564 . S
C1525 C289 1.740 . S
C1540 C504 1.715 . S
C1590 C535 1.426 . S
C1575 C333 1.468 . S
C1640 C554 0.755 . S
C1625 C308 0.755 . S
C1675 C123 1.320 . S
C1690 C477 1.316 . S
C1725 C126 1.455 . S
C1740 C377 1.464 . S
C1775 C327 1.605 . S
C1790 C565 1.592 . S
C1840 C594 0.854 . S
C1825 C299 0.866 . S
C1890 C355 1.449 . S
C1875 C67 1.488 . S
C1940 C584 1.590 . S
C1925 C98 1.574 . S
C1975 C89 0.883 . S
C1990 C395 0.871 . S
C2025 C79 1.522 . S
C2040 C558 1.513 . S
C2090 C434 1.562 . S
C2075 C11 1.606 . S
C2125 C51 0.795 . S
C2140 C517 0.794 . S
C2190 C464 1.477 1_556 S
C2175 C33 1.483 . S
C2240 C615 1.596 . S
C2225 C14 1.647 . S
C2290 C344 1.544 . S
C2275 C140 1.544 . S
C2340 C578 0.683 . S
C2325 C319 0.679 . S
C2375 C112 1.652 . S
C2390 C384 1.651 . S
C2425 C285 0.985 . S
C2440 C575 0.973 . S
C2475 C149 0.936 . S
C2490 C417 0.934 . S
C2540 C525 1.668 . S
C2525 C313 1.692 . S
C2575 C121 0.659 . S
C2590 C458 0.663 . S
C2625 C291 1.527 . S
C2640 C604 1.519 . S
C2675 C182 1.563 . S
C2690 C338 1.550 . S
C2725 C168 1.746 . S
C2740 C505 1.732 . S
C2775 C263 1.512 . S
C2790 C454 1.468 . S
C2825 C247 0.819 . S
C2840 C555 0.815 . S
C2890 C598 1.320 . S
C2875 C277 1.329 . S
C2925 C219 1.502 . S
C2940 C378 1.512 . S
C2990 C404 1.636 . S
C2975 C257 1.650 . S
C3040 C375 0.866 . S
C3025 C201 0.878 . S
C3075 C81 1.464 . S
C3090 C634 1.429 . S
C3140 C585 1.564 . S
C3125 C93 1.569 . S
C3175 C103 0.852 . S
C3190 C654 0.841 . S
C3225 C56 1.469 . S
C3240 C557 1.469 . S
C3275 C53 1.577 . S
C3290 C515 1.532 . S
C3340 C518 0.766 . S
C3325 C0 0.765 . S
C3390 C545 1.430 . S
C3375 C19 1.434 . S
C3440 C614 1.589 . S
C3425 C37 1.647 . S
C3490 C625 1.561 . S
C3475 C261 1.570 . S
C3525 C193 0.666 . S
C3540 C577 0.672 . S
C3590 C645 1.634 . S
C3575 C205 1.644 . S
C3640 C574 0.942 . S
C3625 C215 0.952 . S
C3690 C498 0.904 . S
C3675 C252 0.895 . S
C3725 C187 1.650 . S
C3740 C524 1.623 . S
C3790 C537 0.598 . S
C3775 C196 0.595 . S
C3825 C221 1.490 . S
C3840 C605 1.482 . S
C3890 C617 1.551 . S
C3875 C317 1.564 . S
C3925 C135 1.740 . S
C3940 C424 1.715 . S
C3990 C455 1.426 . S
C3975 C151 1.475 . S
C4040 C474 0.755 . S
C4025 C154 0.754 . S
C4090 C597 1.316 . S
C4075 C305 1.320 . S
C4125 C280 1.455 . S
C4140 C637 1.465 . S
C4190 C405 1.590 . S
C4175 C145 1.597 . S
C4240 C374 0.853 . S
C4225 C117 0.866 . S
C4275 C95 1.488 . S
C4290 C635 1.450 . S
C4340 C364 1.589 . S
C4325 C70 1.574 . S
C4375 C61 0.884 . S
C4390 C655 0.872 . S
C4425 C107 1.522 . S
C4440 C398 1.513 . S
C4475 C39 1.606 . S
C4490 C514 1.535 1_556 S
C4540 C437 0.794 . S
C4525 C23 0.795 . S
C4575 C5 1.483 . S
C4590 C544 1.477 . S
C4625 C42 1.647 . S
C4640 C495 1.596 . S
C4690 C624 1.544 . S
C4675 C322 1.544 . S
C4725 C165 0.680 . S
C4740 C358 0.682 . S
C4790 C644 1.651 1_655 S
C4775 C294 1.652 . S
C4825 C131 0.985 . S
C4840 C415 0.975 . S
C4875 C331 0.936 . S
C4890 C497 0.937 . S
C4940 C445 1.668 . S
C4925 C159 1.692 . S
C4975 C303 0.658 . S
C4990 C538 0.664 . S
C5040 C484 1.519 . S
C5025 C137 1.527 . S
C5090 C618 1.550 . S
C5075 C238 1.564 . S
C5140 C425 1.725 1_565 S
C5125 C210 1.747 . S
C5175 C235 1.512 . S
C5190 C534 1.467 . S
C5240 C475 0.813 . S
C5225 C191 0.819 . S
C5275 C207 1.330 . S
C5290 C478 1.320 . S
C5325 C177 1.502 . S
C5340 C638 1.489 1_556 S
C5390 C564 1.636 . S
C5375 C229 1.651 1_565 S
C5440 C595 0.867 . S
C5425 C271 0.878 . S
