# Generated by pormake.
# Topology anh, (6,3)-cn, num edge types: 1
# Building blocks:
#     Node 0, Type 0, BuildingBlock: HISSIN_clean_sbu_0, # of connection points: 6
#     Node 1, Type 0, BuildingBlock: HISSIN_clean_sbu_0, # of connection points: 6
#     Node 2, Type 0, BuildingBlock: HISSIN_clean_sbu_0, # of connection points: 6
#     Node 3, Type 1, BuildingBlock: OLANEW_clean_sbu_2, # of connection points: 3
#     Node 4, Type 1, BuildingBlock: OLANEW_clean_sbu_2, # of connection points: 3
#     Node 5, Type 1, BuildingBlock: OLANEW_clean_sbu_2, # of connection points: 3
#     Node 6, Type 1, BuildingBlock: OLANEW_clean_sbu_2, # of connection points: 3
#     Node 7, Type 1, BuildingBlock: OLANEW_clean_sbu_2, # of connection points: 3
#     Node 8, Type 1, BuildingBlock: OLANEW_clean_sbu_2, # of connection points: 3
#     Edge 9, Type (0, 1), BuildingBlock: ZUJKAS_clean_linker_0, # of connection points: 2
#     Edge 10, Type (0, 1), BuildingBlock: ZUJKAS_clean_linker_0, # of connection points: 2
#     Edge 11, Type (0, 1), BuildingBlock: ZUJKAS_clean_linker_0, # of connection points: 2
#     Edge 12, Type (0, 1), BuildingBlock: ZUJKAS_clean_linker_0, # of connection points: 2
#     Edge 13, Type (0, 1), BuildingBlock: ZUJKAS_clean_linker_0, # of connection points: 2
#     Edge 14, Type (0, 1), BuildingBlock: ZUJKAS_clean_linker_0, # of connection points: 2
#     Edge 15, Type (0, 1), BuildingBlock: ZUJKAS_clean_linker_0, # of connection points: 2
#     Edge 16, Type (0, 1), BuildingBlock: ZUJKAS_clean_linker_0, # of connection points: 2
#     Edge 17, Type (0, 1), BuildingBlock: ZUJKAS_clean_linker_0, # of connection points: 2
#     Edge 18, Type (0, 1), BuildingBlock: ZUJKAS_clean_linker_0, # of connection points: 2
#     Edge 19, Type (0, 1), BuildingBlock: ZUJKAS_clean_linker_0, # of connection points: 2
#     Edge 20, Type (0, 1), BuildingBlock: ZUJKAS_clean_linker_0, # of connection points: 2
#     Edge 21, Type (0, 1), BuildingBlock: ZUJKAS_clean_linker_0, # of connection points: 2
#     Edge 22, Type (0, 1), BuildingBlock: ZUJKAS_clean_linker_0, # of connection points: 2
#     Edge 23, Type (0, 1), BuildingBlock: ZUJKAS_clean_linker_0, # of connection points: 2
#     Edge 24, Type (0, 1), BuildingBlock: ZUJKAS_clean_linker_0, # of connection points: 2
#     Edge 25, Type (0, 1), BuildingBlock: ZUJKAS_clean_linker_0, # of connection points: 2
#     Edge 26, Type (0, 1), BuildingBlock: ZUJKAS_clean_linker_0, # of connection points: 2
# Relax obj value: 0.164
# Max RMSD: 0.125
# Mean RMSD: 0.108
data_MOF--net-anh--node1-HISSIN_clean_sbu_0--node2-OLANEW_clean_sbu_2--edge1-ZUJKAS_clean_linker_0
_symmetry_space_group_name_H-M    P1
_symmetry_Int_Tables_number       1
_symmetry_cell_setting            triclinic
loop_
_symmetry_equiv_pos_as_xyz
'x, y, z'
_cell_length_a     45.248951
_cell_length_b     45.431242
_cell_length_c     65.127156
_cell_angle_alpha  93.360548
_cell_angle_beta   90.2314
_cell_angle_gamma 120.02827
loop_
_atom_site_label
_atom_site_type_symbol
_atom_site_fract_x
_atom_site_fract_y
_atom_site_fract_z
_atom_type_partial_charge
Eu0 Eu 1.01804 0.49275 0.17142 0.0
Eu1 Eu 0.05654 0.57433 0.18365 0.0
C2 C 0.02787 0.52176 0.21876 0.0
C3 C 0.94682 0.40223 0.16296 0.0
C4 C 0.92414 0.41282 0.17001 0.0
C5 C 0.89939 0.34468 0.15645 0.0
C6 C 0.88921 0.38951 0.17014 0.0
C7 C 0.93437 0.3681 0.15625 0.0
C8 C 0.87644 0.35523 0.16328 0.0
C9 C 0.98314 0.42726 0.16176 0.0
O10 O 0.09777 0.56366 0.17201 0.0
O11 O 0.07278 0.5074 0.17869 0.0
C12 C 0.09986 0.53617 0.1744 0.0
O13 O 0.04466 0.51772 0.14282 0.0
O14 O 0.09754 0.61984 0.20014 0.0
O15 O 0.06049 0.62382 0.18111 0.0
O16 O 0.0447 0.56757 0.14967 0.0
C17 C 0.0474 0.54598 0.1367 0.0
O18 O 0.9797 0.5096 0.16542 0.0
O19 O 1.00054 0.55511 0.18915 0.0
O20 O 0.05351 0.55041 0.21326 0.0
O21 O 0.98999 0.45024 0.14866 0.0
O22 O 0.99992 0.44049 0.17932 0.0
O23 O 1.00663 0.49831 0.2049 0.0
C24 C 0.11833 0.66777 0.18075 0.0
C25 C 0.11714 0.66965 0.15928 0.0
C26 C 0.1773 0.71359 0.18224 0.0
C27 C 0.14597 0.69323 0.14938 0.0
C28 C 0.14841 0.69038 0.19216 0.0
C29 C 0.17648 0.71479 0.16075 0.0
C30 C 0.08997 0.64025 0.19114 0.0
C31 C 0.97559 0.53202 0.17681 0.0
H32 H 0.93345 0.43919 0.17522 0.0
H33 H 0.89022 0.31849 0.15091 0.0
H34 H 0.87224 0.39828 0.17575 0.0
H35 H 0.95161 0.35966 0.15065 0.0
H36 H 0.09436 0.65224 0.15005 0.0
H37 H 0.20051 0.73028 0.19134 0.0
H38 H 0.14484 0.69368 0.13279 0.0
H39 H 0.14991 0.68927 0.20868 0.0
Eu40 Eu 0.57437 0.02799 0.50898 0.0
Eu41 Eu 0.52906 0.06578 0.51297 0.0
C42 C 0.55006 0.04134 0.55303 0.0
C43 C 0.59863 0.95978 0.50738 0.0
C44 C 0.56502 0.93581 0.51184 0.0
C45 C 0.61223 0.91461 0.50312 0.0
C46 C 0.55493 0.90133 0.51168 0.0
C47 C 0.62227 0.94913 0.50322 0.0
C48 C 0.57833 0.89029 0.50709 0.0
C49 C 0.60812 0.99533 0.50547 0.0
O50 O 0.58133 0.10575 0.5034 0.0
O51 O 0.61305 0.08387 0.51598 0.0
C52 C 0.61102 0.10935 0.50888 0.0
O53 O 0.5765 0.04886 0.4782 0.0
O54 O 0.5216 0.10585 0.52754 0.0
O55 O 0.48616 0.07164 0.50327 0.0
O56 O 0.52647 0.04965 0.4794 0.0
C57 C 0.55122 0.04977 0.46896 0.0
O58 O 0.51961 0.98673 0.50111 0.0
O59 O 0.49119 1.0106 0.5177 0.0
O60 O 0.54651 0.06551 0.54538 0.0
O61 O 0.59303 1.00018 0.49004 0.0
O62 O 0.60839 1.01243 0.52235 0.0
O63 O 0.5543 0.01961 0.54104 0.0
C64 C 0.50253 0.12956 0.50373 0.0
C65 C 0.52497 0.14011 0.48742 0.0
C66 C 0.49771 0.18013 0.50224 0.0
C67 C 0.53423 0.17084 0.4788 0.0
C68 C 0.48849 0.14938 0.51086 0.0
C69 C 0.52126 0.19154 0.48641 0.0
C70 C 0.49687 0.09998 0.51462 0.0
C71 C 0.49144 0.98409 0.50857 0.0
H72 H 0.54639 0.9437 0.51491 0.0
H73 H 0.63095 0.90693 0.49982 0.0
H74 H 0.52855 0.88324 0.51455 0.0
H75 H 0.64828 0.9674 0.49968 0.0
H76 H 0.53622 0.12512 0.48182 0.0
H77 H 0.48767 0.19573 0.50866 0.0
H78 H 0.55216 0.17879 0.46653 0.0
H79 H 0.47144 0.14172 0.52359 0.0
Eu80 Eu 0.48169 0.47835 0.83999 0.0
Eu81 Eu 0.56526 0.52201 0.84497 0.0
C82 C 0.51953 0.5025 0.88412 0.0
C83 C 0.39149 0.46035 0.8392 0.0
C84 C 0.40156 0.49014 0.85186 0.0
C85 C 0.33997 0.46037 0.82872 0.0
C86 C 0.38115 0.50511 0.85281 0.0
C87 C 0.36041 0.4453 0.82784 0.0
C88 C 0.35046 0.49082 0.84092 0.0
C89 C 0.41527 0.44758 0.83597 0.0
O90 O 0.55271 0.46755 0.83759 0.0
O91 O 0.49593 0.43814 0.84535 0.0
C92 C 0.52462 0.43885 0.84078 0.0
O93 O 0.50263 0.47244 0.80973 0.0
O94 O 0.61206 0.55681 0.86291 0.0
O95 O 0.61492 0.53791 0.83207 0.0
O96 O 0.5508 0.52458 0.81234 0.0
C97 C 0.52788 0.49787 0.80109 0.0
O98 O 0.4956 0.53211 0.83352 0.0
O99 O 0.54994 0.56244 0.84805 0.0
O100 O 0.5453 0.50151 0.87567 0.0
O101 O 0.43555 0.46044 0.8208 0.0
O102 O 0.43143 0.44666 0.85237 0.0
O103 O 0.49541 0.50191 0.87257 0.0
C104 C 0.65817 0.54788 0.85606 0.0
C105 C 0.69255 0.57143 0.85334 0.0
C106 C 0.67465 0.50996 0.87062 0.0
C107 C 0.71792 0.56432 0.85915 0.0
C108 C 0.64925 0.5171 0.86475 0.0
C109 C 0.70929 0.53349 0.86784 0.0
C110 C 0.63186 0.5551 0.84895 0.0
C111 C 0.52253 0.5612 0.84007 0.0
H112 H 0.42572 0.50239 0.86055 0.0
H113 H 0.31665 0.44892 0.81924 0.0
H114 H 0.38969 0.5282 0.86264 0.0
H115 H 0.35255 0.42259 0.81776 0.0
H116 H 0.69976 0.59515 0.84646 0.0
H117 H 0.66719 0.48614 0.87742 0.0
H118 H 0.74426 0.58272 0.85643 0.0
H119 H 0.62268 0.49856 0.86684 0.0
O120 O 0.50161 0.0361 0.23986 0.0
Cd121 Cd 0.48686 0.03249 0.20312 0.0
O122 O 0.54578 0.02816 0.2375 0.0
Cd123 Cd 0.53586 1.01399 0.20472 0.0
O124 O 0.50644 0.98643 0.17664 0.0
C125 C 0.50066 0.95628 0.17269 0.0
O126 O 0.51507 0.94437 0.18469 0.0
C127 C 0.52621 0.03469 0.24839 0.0
C128 C 0.53764 0.08954 0.18523 0.0
O129 O 0.53689 0.06098 0.18368 0.0
O130 O 0.51358 0.091 0.19469 0.0
O131 O 0.56097 0.5359 0.57487 0.0
Cd132 Cd 0.5668 0.55491 0.53971 0.0
O133 O 0.51238 0.48705 0.57099 0.0
Cd134 Cd 0.50234 0.4983 0.54077 0.0
O135 O 0.49884 0.53353 0.52121 0.0
C136 C 0.48041 0.54565 0.52768 0.0
O137 O 0.46295 0.53396 0.54427 0.0
C138 C 0.53824 0.50853 0.58217 0.0
C139 C 0.57811 0.51258 0.51207 0.0
O140 O 0.54828 0.50864 0.51424 0.0
O141 O 0.6031 0.5373 0.52259 0.0
O142 O 0.1666 0.71171 0.93934 0.0
Cd143 Cd 0.181 0.73525 0.90568 0.0
O144 O 0.13567 0.66258 0.92197 0.0
Cd145 Cd 0.0954 0.60911 0.91824 0.0
O146 O 0.04244 0.56966 0.91165 0.0
C147 C 0.02942 0.57107 0.89467 0.0
O148 O 0.04911 0.59394 0.88207 0.0
C149 C 0.14675 0.67968 0.93919 0.0
C150 C 0.2019 0.69613 0.88244 0.0
O151 O 0.1704 0.68804 0.88231 0.0
O152 O 0.22356 0.72341 0.89294 0.0
O153 O 0.08066 0.57226 0.4411 0.0
Cd154 Cd 0.11262 0.59791 0.47463 0.0
O155 O 0.03667 0.52511 0.45112 0.0
Cd156 Cd 0.98701 0.47591 0.45075 0.0
O157 O 0.94121 0.42671 0.45793 0.0
C158 C 0.91087 0.4217 0.45669 0.0
O159 O 0.90628 0.44622 0.45056 0.0
C160 C 0.05271 0.54435 0.43673 0.0
C161 C 0.17434 0.66177 0.47577 0.0
O162 O 0.17416 0.63368 0.47186 0.0
O163 O 0.14542 0.65995 0.47842 0.0
O164 O 0.53045 0.96433 0.77434 0.0
Cd165 Cd 0.52384 0.938 0.80774 0.0
O166 O 0.5299 1.0111 0.78503 0.0
Cd167 Cd 0.53322 0.06202 0.7855 0.0
O168 O 0.53746 0.11308 0.79099 0.0
C169 C 0.51265 0.11603 0.79789 0.0
O170 O 0.48405 0.08823 0.8015 0.0
C171 C 0.53181 0.99222 0.77034 0.0
C172 C 0.52442 0.87581 0.80866 0.0
O173 O 0.49673 0.8761 0.80489 0.0
O174 O 0.55203 0.90472 0.81127 0.0
O175 O 0.57236 0.53312 0.1111 0.0
Cd176 Cd 0.60003 0.54222 0.1457 0.0
O177 O 0.52594 0.53527 0.11861 0.0
Cd178 Cd 0.47756 0.53736 0.117 0.0
O179 O 0.43114 0.54211 0.12173 0.0
C180 C 0.40468 0.51878 0.12972 0.0
O181 O 0.4049 0.49134 0.13484 0.0
C182 C 0.54493 0.53223 0.10514 0.0
C183 C 0.66009 0.53742 0.14834 0.0
O184 O 0.63081 0.51228 0.15216 0.0
O185 O 0.66107 0.56446 0.14272 0.0
H186 H 0.11422 0.48474 0.17843 0.0
H187 H 0.16712 0.48483 0.17083 0.0
H188 H 0.21277 0.58846 0.15368 0.0
H189 H 0.16011 0.58882 0.1616 0.0
H190 H 0.19874 0.49324 0.13434 0.0
H191 H 0.28672 0.59497 0.19208 0.0
H192 H 0.24089 0.57554 0.19291 0.0
H193 H 0.26427 0.60784 0.17535 0.0
C194 C 0.13558 0.50774 0.17325 0.0
C195 C 0.13278 0.53684 0.17076 0.0
C196 C 0.16588 0.5077 0.16885 0.0
C197 C 0.19428 0.53678 0.16192 0.0
C198 C 0.19162 0.56593 0.15945 0.0
H199 H 0.39577 0.57348 0.12346 0.0
H200 H 0.34512 0.57858 0.13037 0.0
C201 C 0.16132 0.56602 0.1639 0.0
C202 C 0.226 0.53593 0.15653 0.0
H203 H 0.3119 0.57406 0.16778 0.0
C204 C 0.22344 0.5109 0.14171 0.0
C205 C 0.25842 0.55905 0.166 0.0
C206 C 0.26284 0.58569 0.1826 0.0
C207 C 0.25217 0.5084 0.13609 0.0
C208 C 0.28448 0.53121 0.14575 0.0
C209 C 0.28721 0.55659 0.16034 0.0
C210 C 0.31538 0.52826 0.14145 0.0
C211 C 0.24771 0.48158 0.11961 0.0
C212 C 0.31583 0.49849 0.14559 0.0
C213 C 0.34469 0.49552 0.14169 0.0
C214 C 0.37402 0.5223 0.13359 0.0
C215 C 0.37366 0.55227 0.12959 0.0
C216 C 0.34471 0.55526 0.13358 0.0
H217 H 0.2243 0.47291 0.10979 0.0
H218 H 0.27008 0.49126 0.10963 0.0
H219 H 0.24529 0.45911 0.127 0.0
H220 H 0.29388 0.47755 0.15205 0.0
H221 H 0.34397 0.47213 0.1451 0.0
H222 H 0.61677 0.16751 0.49446 0.0
H223 H 0.66882 0.21967 0.48672 0.0
H224 H 0.72978 0.1779 0.50763 0.0
H225 H 0.6778 0.1254 0.51524 0.0
H226 H 0.7248 0.26622 0.51196 0.0
H227 H 0.76548 0.20596 0.4503 0.0
H228 H 0.72313 0.18467 0.46026 0.0
H229 H 0.75837 0.18691 0.47452 0.0
C230 C 0.64121 0.16933 0.49749 0.0
C231 C 0.64292 0.14199 0.50542 0.0
C232 C 0.67102 0.19927 0.49303 0.0
C233 C 0.70333 0.20262 0.49622 0.0
C234 C 0.7052 0.17574 0.50459 0.0
H235 H 0.9104 0.36606 0.47189 0.0
H236 H 0.86093 0.3134 0.48219 0.0
C237 C 0.67538 0.14577 0.5091 0.0
C238 C 0.73489 0.2343 0.49088 0.0
H239 H 0.80367 0.26416 0.45996 0.0
C240 C 0.74201 0.26574 0.50057 0.0
C241 C 0.75753 0.23381 0.47607 0.0
C242 C 0.75072 0.20111 0.46452 0.0
C243 C 0.77111 0.29651 0.49601 0.0
C244 C 0.79352 0.2961 0.48099 0.0
C245 C 0.78661 0.26461 0.47147 0.0
C246 C 0.82372 0.3281 0.4746 0.0
C247 C 0.77787 0.32913 0.50765 0.0
C248 C 0.81942 0.35378 0.46651 0.0
C249 C 0.84763 0.38391 0.46066 0.0
C250 C 0.88097 0.38911 0.46254 0.0
C251 C 0.88519 0.36306 0.47026 0.0
C252 C 0.85688 0.33288 0.47616 0.0
H253 H 0.76477 0.32412 0.52251 0.0
H254 H 0.80565 0.34662 0.51082 0.0
H255 H 0.76798 0.34219 0.49828 0.0
H256 H 0.79413 0.35047 0.46461 0.0
H257 H 0.84323 0.40316 0.45463 0.0
H258 H 0.46929 0.56919 0.82695 0.0
H259 H 0.4699 0.62232 0.82141 0.0
H260 H 0.57565 0.67999 0.84216 0.0
H261 H 0.57543 0.62703 0.84758 0.0
H262 H 0.48444 0.67821 0.84892 0.0
H263 H 0.57696 0.71789 0.78643 0.0
H264 H 0.55586 0.67521 0.79497 0.0
H265 H 0.59173 0.70908 0.80966 0.0
C266 C 0.49276 0.59314 0.83033 0.0
C267 C 0.5224 0.59364 0.83759 0.0
C268 C 0.49302 0.62357 0.82717 0.0
C269 C 0.52298 0.65526 0.83099 0.0
C270 C 0.5524 0.6559 0.83865 0.0
H271 H 0.57816 0.86711 0.81944 0.0
H272 H 0.57714 0.81374 0.82488 0.0
C273 C 0.55215 0.6255 0.8419 0.0
C274 C 0.52332 0.68757 0.82716 0.0
H275 H 0.56152 0.75807 0.79923 0.0
C276 C 0.50119 0.69559 0.83799 0.0
C277 C 0.54521 0.7104 0.81292 0.0
C278 C 0.56859 0.70268 0.80017 0.0
C279 C 0.50084 0.72599 0.83532 0.0
C280 C 0.52267 0.74881 0.82103 0.0
C281 C 0.54477 0.74073 0.81018 0.0
C282 C 0.5232 0.78126 0.81724 0.0
C283 C 0.47772 0.73378 0.84831 0.0
C284 C 0.49342 0.78101 0.81067 0.0
C285 C 0.4939 0.81157 0.8076 0.0
C286 C 0.52429 0.84319 0.81081 0.0
C287 C 0.55428 0.84332 0.81683 0.0
C288 C 0.55374 0.81275 0.81997 0.0
H289 H 0.47034 0.71921 0.86232 0.0
H290 H 0.49018 0.76138 0.8531 0.0
H291 H 0.45399 0.72647 0.83919 0.0
H292 H 0.4697 0.75712 0.80789 0.0
H293 H 0.47036 0.8104 0.80283 0.0
H294 H 0.94917 0.56114 0.20372 0.0
H295 H 0.8947 0.56018 0.20017 0.0
H296 H 0.87434 0.50355 0.1413 0.0
H297 H 0.92758 0.50289 0.14529 0.0
H298 H 0.87111 0.58544 0.17507 0.0
H299 H 0.78541 0.44615 0.16536 0.0
H300 H 0.82994 0.46496 0.1728 0.0
H301 H 0.81676 0.46007 0.14605 0.0
C302 C 0.93288 0.5482 0.19012 0.0
C303 C 0.94264 0.53178 0.17491 0.0
C304 C 0.9017 0.54769 0.18807 0.0
C305 C 0.87969 0.53108 0.17066 0.0
C306 C 0.88994 0.51543 0.15525 0.0
H307 H 0.72235 0.57702 0.13177 0.0
H308 H 0.77494 0.57517 0.13702 0.0
C309 C 0.92069 0.51534 0.15748 0.0
C310 C 0.84676 0.53118 0.16823 0.0
H311 H 0.7617 0.48017 0.15527 0.0
C312 C 0.84715 0.56231 0.17093 0.0
C313 C 0.81511 0.50104 0.1632 0.0
C314 C 0.81169 0.46617 0.16193 0.0
C315 C 0.81727 0.56429 0.16836 0.0
C316 C 0.78605 0.53447 0.16203 0.0
C317 C 0.78553 0.50323 0.15976 0.0
C318 C 0.75357 0.53489 0.15807 0.0
C319 C 0.81952 0.59829 0.17306 0.0
C320 C 0.72318 0.51168 0.16716 0.0
C321 C 0.69273 0.51198 0.16361 0.0
C322 C 0.69194 0.53578 0.15108 0.0
C323 C 0.72215 0.55864 0.14172 0.0
C324 C 0.75242 0.55783 0.14491 0.0
H325 H 0.8411 0.61489 0.18412 0.0
H326 H 0.82414 0.61163 0.15866 0.0
H327 H 0.79561 0.59524 0.17961 0.0
H328 H 0.72306 0.49353 0.17727 0.0
H329 H 0.66996 0.49404 0.17109 0.0
H330 H 0.48251 0.92218 0.49367 0.0
H331 H 0.4289 0.86797 0.4879 0.0
H332 H 0.37298 0.9155 0.51166 0.0
H333 H 0.4264 0.96988 0.51739 0.0
H334 H 0.37873 0.829 0.51608 0.0
H335 H 0.32429 0.87103 0.45546 0.0
H336 H 0.36893 0.89455 0.46349 0.0
H337 H 0.33777 0.89778 0.47898 0.0
C338 C 0.45885 0.92121 0.49768 0.0
C339 C 0.45892 0.95064 0.5059 0.0
C340 C 0.42816 0.89009 0.49438 0.0
C341 C 0.39674 0.88766 0.49901 0.0
C342 C 0.39676 0.9168 0.50758 0.0
H343 H 0.18344 0.72498 0.48729 0.0
H344 H 0.23729 0.77899 0.49294 0.0
C345 C 0.42745 0.9479 0.51098 0.0
C346 C 0.36406 0.85463 0.49504 0.0
H347 H 0.28781 0.81662 0.46754 0.0
C348 C 0.35891 0.82625 0.5054 0.0
C349 C 0.33807 0.85096 0.48115 0.0
C350 C 0.34251 0.88007 0.46897 0.0
C351 C 0.32835 0.79465 0.50259 0.0
C352 C 0.30236 0.7909 0.48861 0.0
C353 C 0.30758 0.81932 0.47824 0.0
C354 C 0.26952 0.75788 0.48467 0.0
C355 C 0.32385 0.76587 0.51512 0.0
C356 C 0.26938 0.72792 0.47769 0.0
C357 C 0.23856 0.69689 0.47452 0.0
C358 C 0.20702 0.69509 0.47802 0.0
C359 C 0.20717 0.72531 0.48445 0.0
C360 C 0.23802 0.7563 0.4877 0.0
H361 H 0.34112 0.77542 0.52909 0.0
H362 H 0.29711 0.75067 0.51997 0.0
H363 H 0.33012 0.74876 0.50565 0.0
H364 H 0.29316 0.72848 0.47466 0.0
H365 H 0.23949 0.67426 0.46943 0.0
H366 H 0.57816 0.42943 0.83004 0.0
H367 H 0.5774 0.3756 0.82279 0.0
H368 H 0.47129 0.32004 0.8378 0.0
H369 H 0.4716 0.37369 0.84474 0.0
H370 H 0.56353 0.32231 0.84652 0.0
H371 H 0.46905 0.27693 0.78104 0.0
H372 H 0.4898 0.32026 0.79212 0.0
H373 H 0.45409 0.28705 0.80439 0.0
C374 C 0.55461 0.4058 0.83186 0.0
C375 C 0.52484 0.40608 0.83784 0.0
C376 C 0.55425 0.37496 0.82769 0.0
C377 C 0.52411 0.3436 0.8293 0.0
C378 C 0.49466 0.3438 0.83591 0.0
H379 H 0.46342 0.12978 0.81155 0.0
H380 H 0.46795 0.18522 0.81905 0.0
C381 C 0.49497 0.37461 0.84005 0.0
C382 C 0.5235 0.31077 0.82407 0.0
H383 H 0.48308 0.23688 0.79308 0.0
C384 C 0.54608 0.30373 0.83474 0.0
C385 C 0.50087 0.28647 0.80862 0.0
C386 C 0.47731 0.29311 0.79573 0.0
C387 C 0.54594 0.27279 0.83085 0.0
C388 C 0.52295 0.2483 0.81562 0.0
C389 C 0.50065 0.25551 0.8048 0.0
C390 C 0.52084 0.21463 0.81105 0.0
C391 C 0.56972 0.26617 0.84352 0.0
C392 C 0.54897 0.21243 0.80378 0.0
C393 C 0.54646 0.18056 0.79942 0.0
C394 C 0.51571 0.15014 0.80218 0.0
C395 C 0.48756 0.15253 0.80927 0.0
C396 C 0.49007 0.18431 0.81357 0.0
H397 H 0.57964 0.28353 0.85771 0.0
H398 H 0.55666 0.23943 0.84796 0.0
H399 H 0.59186 0.27038 0.83425 0.0
H400 H 0.57281 0.23537 0.80129 0.0
H401 H 0.56861 0.17977 0.7939 0.0
H402 H 0.53603 0.84243 0.53281 0.0
H403 H 0.51652 0.78144 0.53031 0.0
H404 H 0.5756 0.7938 0.47641 0.0
H405 H 0.59483 0.85477 0.47853 0.0
H406 H 0.48146 0.73205 0.4947 0.0
H407 H 0.60719 0.74696 0.51788 0.0
H408 H 0.59718 0.78044 0.52298 0.0
H409 H 0.60678 0.77172 0.49741 0.0
C410 C 0.54468 0.83216 0.52033 0.0
C411 C 0.56709 0.85345 0.50591 0.0
C412 C 0.53357 0.79737 0.51896 0.0
C413 C 0.54483 0.78334 0.50326 0.0
C414 C 0.567 0.80436 0.48877 0.0
H415 H 0.51783 0.57905 0.49515 0.0
H416 H 0.53004 0.63485 0.48484 0.0
C417 C 0.57809 0.83916 0.49009 0.0
C418 C 0.5336 0.74669 0.50232 0.0
H419 H 0.56155 0.69124 0.5109 0.0
C420 C 0.49894 0.72301 0.49807 0.0
C421 C 0.55663 0.73519 0.50656 0.0
C422 C 0.59401 0.75978 0.5116 0.0
C423 C 0.4865 0.68789 0.49832 0.0
C424 C 0.50928 0.6764 0.50339 0.0
C425 C 0.54416 0.70012 0.50694 0.0
C426 C 0.49732 0.64037 0.50699 0.0
C427 C 0.44911 0.66348 0.49326 0.0
C428 C 0.47429 0.6247 0.52253 0.0
C429 C 0.46714 0.59281 0.52839 0.0
C430 C 0.48328 0.57624 0.51899 0.0
C431 C 0.50504 0.59121 0.50272 0.0
C432 C 0.51207 0.62308 0.49681 0.0
H433 H 0.4382 0.67475 0.48308 0.0
H434 H 0.44494 0.63913 0.48561 0.0
H435 H 0.43491 0.65783 0.5077 0.0
H436 H 0.46322 0.6379 0.53092 0.0
H437 H 0.45031 0.58202 0.541 0.0
H438 H 0.70859 0.47278 0.8621 0.0
H439 H 0.75522 0.46185 0.86958 0.0
H440 H 0.81849 0.56661 0.89276 0.0
H441 H 0.77175 0.57725 0.88631 0.0
H442 H 0.81605 0.48948 0.85297 0.0
H443 H 0.83627 0.5189 0.93676 0.0
H444 H 0.79821 0.51219 0.92327 0.0
H445 H 0.83642 0.55355 0.92489 0.0
C446 C 0.73216 0.49324 0.86929 0.0
C447 C 0.73648 0.52592 0.87359 0.0
C448 C 0.75883 0.48699 0.87343 0.0
C449 C 0.79016 0.51324 0.88206 0.0
C450 C 0.79428 0.5457 0.88661 0.0
H451 H 0.99317 0.57726 0.86343 0.0
H452 H 0.93165 0.55267 0.8601 0.0
C453 C 0.76768 0.5519 0.8826 0.0
C454 C 0.81976 0.50805 0.88466 0.0
H455 H 0.8867 0.52877 0.91791 0.0
C456 C 0.83111 0.49727 0.86731 0.0
C457 C 0.83894 0.51716 0.90348 0.0
C458 C 0.82654 0.52569 0.92318 0.0
C459 C 0.86266 0.49839 0.86783 0.0
C460 C 0.88376 0.51157 0.88598 0.0
C461 C 0.87093 0.51929 0.90383 0.0
C462 C 0.92047 0.52172 0.88619 0.0
C463 C 0.87337 0.48628 0.84873 0.0
C464 C 0.93496 0.51275 0.90205 0.0
C465 C 0.97044 0.52745 0.90427 0.0
C466 C 0.99201 0.55136 0.89064 0.0
C467 C 0.97733 0.55886 0.87416 0.0
C468 C 0.94199 0.54447 0.87209 0.0
H469 H 0.8508 0.46495 0.84016 0.0
H470 H 0.8856 0.50742 0.83836 0.0
H471 H 0.89169 0.47768 0.85245 0.0
H472 H 0.9189 0.49539 0.91318 0.0
H473 H 0.98098 0.52107 0.9171 0.0
H474 H 0.1857 0.76156 0.13315 0.0
H475 H 0.24014 0.80366 0.1192 0.0
H476 H 0.29206 0.76098 0.15118 0.0
H477 H 0.23815 0.71928 0.16509 0.0
H478 H 0.29385 0.84962 0.14646 0.0
H479 H 0.33694 0.77882 0.09501 0.0
H480 H 0.29258 0.7623 0.10093 0.0
H481 H 0.32106 0.75826 0.11843 0.0
C482 C 0.2087 0.76082 0.13676 0.0
C483 C 0.20801 0.73757 0.15033 0.0
C484 C 0.23963 0.78469 0.12875 0.0
C485 C 0.26997 0.78501 0.13388 0.0
C486 C 0.26884 0.76066 0.14663 0.0
H487 H 0.46833 0.88694 0.16917 0.0
H488 H 0.41336 0.84862 0.15176 0.0
C489 C 0.23816 0.73719 0.1548 0.0
C490 C 0.30361 0.81382 0.12915 0.0
H491 H 0.38198 0.8303 0.11362 0.0
C492 C 0.31302 0.84591 0.13867 0.0
C493 C 0.32833 0.80872 0.11894 0.0
C494 C 0.31911 0.7752 0.10757 0.0
C495 C 0.34729 0.87195 0.14038 0.0
C496 C 0.37261 0.86589 0.13169 0.0
C497 C 0.36262 0.83487 0.12035 0.0
C498 C 0.40925 0.88846 0.1376 0.0
C499 C 0.35624 0.9043 0.15325 0.0
C500 C 0.42622 0.92337 0.13442 0.0
C501 C 0.45747 0.94554 0.14476 0.0
C502 C 0.47247 0.93291 0.15804 0.0
C503 C 0.4573 0.89753 0.15924 0.0
C504 C 0.42585 0.87553 0.1492 0.0
H505 H 0.33398 0.90249 0.16147 0.0
H506 H 0.3769 0.91037 0.16486 0.0
H507 H 0.36539 0.92579 0.14316 0.0
H508 H 0.41431 0.93374 0.12501 0.0
H509 H 0.46892 0.97268 0.14325 0.0
H510 H 0.58736 0.23847 0.47896 0.0
H511 H 0.61013 0.29842 0.47257 0.0
H512 H 0.50819 0.2834 0.4723 0.0
H513 H 0.48504 0.22318 0.47808 0.0
H514 H 0.55436 0.33006 0.44238 0.0
H515 H 0.60849 0.35824 0.52296 0.0
H516 H 0.6202 0.33407 0.50541 0.0
H517 H 0.57692 0.31574 0.51331 0.0
C518 C 0.56966 0.24765 0.47692 0.0
C519 C 0.5344 0.2262 0.47928 0.0
C520 C 0.58277 0.28195 0.47338 0.0
C521 C 0.56085 0.2953 0.47225 0.0
C522 C 0.52549 0.27349 0.47317 0.0
H523 H 0.52936 0.45734 0.48906 0.0
H524 H 0.53377 0.40958 0.474 0.0
C525 C 0.51235 0.23921 0.47668 0.0
C526 C 0.57456 0.33246 0.47282 0.0
H527 H 0.60904 0.40263 0.50657 0.0
C528 C 0.56697 0.34622 0.45623 0.0
C529 C 0.5913 0.35346 0.49084 0.0
C530 C 0.59965 0.33979 0.50924 0.0
C531 C 0.57407 0.38011 0.45763 0.0
C532 C 0.58829 0.40028 0.47629 0.0
C533 C 0.59814 0.38719 0.49226 0.0
C534 C 0.58798 0.43242 0.48106 0.0
C535 C 0.56536 0.39361 0.43935 0.0
C536 C 0.61706 0.46147 0.48994 0.0
C537 C 0.61446 0.48876 0.49896 0.0
C538 C 0.58268 0.48729 0.49929 0.0
C539 C 0.5542 0.45924 0.48912 0.0
C540 C 0.55677 0.432 0.48023 0.0
H541 H 0.5686 0.38185 0.42472 0.0
H542 H 0.53816 0.3868 0.43978 0.0
H543 H 0.58149 0.42174 0.43933 0.0
H544 H 0.64134 0.46222 0.49089 0.0
H545 H 0.6369 0.51009 0.50661 0.0
H546 H 0.28077 0.46262 0.841 0.0
H547 H 0.24831 0.49257 0.84138 0.0
H548 H 0.34242 0.5888 0.84155 0.0
H549 H 0.3748 0.55917 0.84024 0.0
H550 H 0.25105 0.53786 0.87104 0.0
H551 H 0.28672 0.60027 0.79773 0.0
H552 H 0.29436 0.56616 0.80342 0.0
H553 H 0.32382 0.60938 0.81293 0.0
C554 C 0.29447 0.49011 0.84072 0.0
C555 C 0.33038 0.50851 0.84068 0.0
C556 C 0.27591 0.50718 0.841 0.0
C557 C 0.29291 0.54287 0.84111 0.0
C558 C 0.32869 0.56122 0.84094 0.0
H559 H 0.26697 0.70902 0.87706 0.0
H560 H 0.28466 0.66889 0.86396 0.0
C561 C 0.34721 0.54424 0.84057 0.0
C562 C 0.27374 0.56137 0.84315 0.0
H563 H 0.26662 0.62583 0.82369 0.0
C564 C 0.25381 0.55656 0.86045 0.0
C565 C 0.27729 0.58568 0.82926 0.0
C566 C 0.29643 0.59041 0.80969 0.0
C567 C 0.23909 0.57688 0.86491 0.0
C568 C 0.2443 0.60245 0.85164 0.0
C569 C 0.26288 0.60627 0.83386 0.0
C570 C 0.23323 0.62735 0.85708 0.0
C571 C 0.21957 0.57213 0.88434 0.0
C572 C 0.19848 0.6174 0.85696 0.0
C573 C 0.18825 0.64031 0.86437 0.0
C574 C 0.21269 0.67342 0.87209 0.0
C575 C 0.24754 0.68367 0.87131 0.0
C576 C 0.25771 0.66083 0.8638 0.0
H577 H 0.2213 0.55387 0.8942 0.0
H578 H 0.22937 0.59693 0.8934 0.0
H579 H 0.19223 0.56233 0.88025 0.0
H580 H 0.17928 0.59166 0.85168 0.0
H581 H 0.1612 0.63166 0.86475 0.0
H582 H 0.84516 0.29052 0.17587 0.0
H583 H 0.78382 0.2501 0.17639 0.0
H584 H 0.7625 0.32397 0.15189 0.0
H585 H 0.82392 0.36442 0.15093 0.0
H586 H 0.73481 0.26276 0.19816 0.0
H587 H 0.70627 0.23438 0.11368 0.0
H588 H 0.74899 0.25239 0.12477 0.0
H589 H 0.72982 0.2785 0.12309 0.0
C590 C 0.82743 0.29801 0.17034 0.0
C591 C 0.83931 0.33058 0.16331 0.0
C592 C 0.79246 0.275 0.17076 0.0
C593 C 0.7688 0.28406 0.16403 0.0
C594 C 0.78046 0.31647 0.15694 0.0
H595 H 0.55283 0.15585 0.19181 0.0
H596 H 0.60659 0.20694 0.18462 0.0
C597 C 0.81548 0.33958 0.15658 0.0
C598 C 0.73192 0.25968 0.16506 0.0
H599 H 0.66041 0.20573 0.13548 0.0
C600 C 0.71836 0.25054 0.1845 0.0
C601 C 0.7108 0.24387 0.14714 0.0
C602 C 0.72456 0.25249 0.12593 0.0
C603 C 0.68431 0.22516 0.18652 0.0
C604 C 0.66328 0.20887 0.16859 0.0
C605 C 0.6766 0.21862 0.14915 0.0
C606 C 0.62876 0.17903 0.16984 0.0
C607 C 0.67154 0.21482 0.20777 0.0
C608 C 0.62303 0.1467 0.16303 0.0
C609 C 0.59249 0.11758 0.16707 0.0
C610 C 0.56712 0.12035 0.17794 0.0
C611 C 0.57199 0.15291 0.1835 0.0
C612 C 0.60267 0.18209 0.17948 0.0
H613 H 0.69259 0.22624 0.21973 0.0
H614 H 0.65308 0.22338 0.21174 0.0
H615 H 0.65809 0.18666 0.20821 0.0
H616 H 0.6429 0.1439 0.15552 0.0
H617 H 0.58941 0.09287 0.16245 0.0
H618 H 0.05746 0.60379 0.1201 0.0
H619 H 0.0739 0.62091 0.08535 0.0
H620 H 0.07287 0.52688 0.06961 0.0
H621 H 0.05625 0.50925 0.10463 0.0
H622 H 0.13496 0.62691 0.06659 0.0
H623 H 1.01399 0.53585 0.02273 0.0
H624 H 1.01515 0.54588 0.05008 0.0
H625 H 0.03113 0.51887 0.04057 0.0
C626 C 0.06042 0.58649 0.10929 0.0
C627 C 0.05551 0.55508 0.11518 0.0
C628 C 0.06987 0.5964 0.08942 0.0
C629 C 0.07438 0.57509 0.07494 0.0
C630 C 0.06911 0.54349 0.08056 0.0
H631 H 0.13183 0.61531 0.94707 0.0
H632 H 0.11477 0.58818 0.97968 0.0
C633 C 0.05972 0.53353 0.10056 0.0
C634 C 0.08598 0.58702 0.05429 0.0
H635 H 0.0592 0.5758 1.00391 0.0
C636 C 0.11853 0.61562 0.05284 0.0
C637 C 0.0645 0.57203 0.03644 0.0
C638 C 0.02913 0.54155 0.03737 0.0
C639 C 0.13002 0.63009 0.034 0.0
C640 C 0.10802 0.616 0.01627 0.0
C641 C 0.07588 0.58666 0.01758 0.0
C642 C 0.11751 0.63209 0.99642 0.0
C643 C 0.16562 0.66032 0.03328 0.0
C644 C 0.1242 0.66557 0.99497 0.0
C645 C 0.13365 0.681 0.97633 0.0
C646 C 0.13601 0.66301 0.95874 0.0
C647 C 0.12908 0.6294 0.96019 0.0
C648 C 0.11971 0.61399 0.97885 0.0
H649 H 0.1823 0.66157 0.04627 0.0
H650 H 0.17761 0.6594 0.01859 0.0
H651 H 0.16431 0.6841 0.03448 0.0
H652 H 0.12204 0.67976 0.00826 0.0
H653 H 0.13883 0.70692 0.97565 0.0
H654 H 0.5056 0.05643 0.44486 0.0
H655 H 0.50329 0.05628 0.40738 0.0
H656 H 0.59232 0.04499 0.40424 0.0
H657 H 0.59517 0.04554 0.44179 0.0
H658 H 0.59413 0.09393 0.37884 0.0
H659 H 0.47176 0.97126 0.36804 0.0
H660 H 0.46999 1.00244 0.38546 0.0
H661 H 0.49666 0.98519 0.39199 0.0
C662 C 0.52471 0.05389 0.43623 0.0
C663 C 0.55041 0.05069 0.44632 0.0
C664 C 0.52325 0.05368 0.4148 0.0
C665 C 0.54727 0.05001 0.40306 0.0
C666 C 0.57343 0.04763 0.41306 0.0
H667 H 0.57592 0.03351 0.27189 0.0
H668 H 0.58244 0.03902 0.30945 0.0
C669 C 0.57497 0.04792 0.43451 0.0
C670 C 0.54502 0.04856 0.38032 0.0
H671 H 0.49312 1.00272 0.33854 0.0
C672 C 0.57215 0.07394 0.36999 0.0
C673 C 0.5163 0.02238 0.36888 0.0
C674 C 0.48714 0.99357 0.37911 0.0
C675 C 0.57098 0.07421 0.34846 0.0
C676 C 0.54214 0.04817 0.33705 0.0
C677 C 0.51511 0.02273 0.34739 0.0
C678 C 0.53939 0.04663 0.31434 0.0
C679 C 0.60024 0.10271 0.33812 0.0
C680 C 0.5128 0.0487 0.3047 0.0
C681 C 0.50889 0.04542 0.28326 0.0
C682 C 0.53138 0.03974 0.27107 0.0
C683 C 0.55821 0.03797 0.2808 0.0
C684 C 0.56212 0.0413 0.30226 0.0
H685 H 0.61634 0.12477 0.34919 0.0
H686 H 0.61664 0.09326 0.33131 0.0
H687 H 0.59068 0.11159 0.32552 0.0
H688 H 0.49491 0.05263 0.31379 0.0
H689 H 0.48793 0.04689 0.27629 0.0
H690 H 0.48469 0.44691 0.77298 0.0
H691 H 0.48888 0.44486 0.73556 0.0
H692 H 0.58084 0.5432 0.74057 0.0
H693 H 0.57713 0.54542 0.77801 0.0
H694 H 0.48889 0.49191 0.70959 0.0
H695 H 0.60759 0.48499 0.70302 0.0
H696 H 0.58371 0.47596 0.72623 0.0
H697 H 0.61154 0.5193 0.72019 0.0
C698 C 0.50595 0.46803 0.76616 0.0
C699 C 0.5306 0.49633 0.77848 0.0
C700 C 0.5083 0.46677 0.74478 0.0
C701 C 0.53544 0.49362 0.73537 0.0
C702 C 0.5601 0.52189 0.7476 0.0
H703 H 0.58659 0.55172 0.61139 0.0
H704 H 0.58615 0.54559 0.64844 0.0
C705 C 0.55778 0.5232 0.76898 0.0
C706 C 0.5368 0.49299 0.71267 0.0
H707 H 0.58614 0.4955 0.67253 0.0
C708 C 0.50997 0.49237 0.70144 0.0
C709 C 0.56446 0.49376 0.70218 0.0
C710 C 0.59335 0.49324 0.71347 0.0
C711 C 0.51042 0.49337 0.67998 0.0
C712 C 0.53815 0.4943 0.66946 0.0
C713 C 0.56489 0.49466 0.68067 0.0
C714 C 0.54022 0.49611 0.64687 0.0
C715 C 0.48175 0.49453 0.66881 0.0
C716 C 0.51518 0.46977 0.6337 0.0
C717 C 0.51523 0.47322 0.61253 0.0
C718 C 0.54051 0.50301 0.60416 0.0
C719 C 0.56664 0.52853 0.61732 0.0
C720 C 0.56648 0.52508 0.6385 0.0
H721 H 0.4669 0.50169 0.67946 0.0
H722 H 0.49178 0.513 0.65668 0.0
H723 H 0.46399 0.46896 0.66128 0.0
H724 H 0.49509 0.4469 0.63987 0.0
H725 H 0.49493 0.45293 0.60282 0.0
H726 H 0.53531 0.07741 0.58236 0.0
H727 H 0.53384 0.07277 0.61964 0.0
H728 H 0.56076 0.99428 0.61239 0.0
H729 H 0.56237 0.9987 0.5751 0.0
H730 H 0.49267 1.01305 0.64166 0.0
H731 H 0.63158 0.06486 0.65619 0.0
H732 H 0.61438 0.07107 0.63282 0.0
H733 H 0.61211 0.03104 0.63622 0.0
C734 C 0.54105 0.05921 0.58866 0.0
C735 C 0.54911 0.03852 0.57568 0.0
C736 C 0.54014 0.05659 0.60999 0.0
C737 C 0.54762 0.03351 0.61882 0.0
C738 C 0.55545 1.01267 0.60594 0.0
H739 H 0.55606 0.96894 0.73908 0.0
H740 H 0.55965 0.98096 0.7029 0.0
C741 C 0.55618 1.01512 0.58459 0.0
C742 C 0.54652 0.03069 0.64146 0.0
H743 H 0.59561 0.0398 0.68397 0.0
C744 C 0.51519 0.01914 0.65098 0.0
C745 C 0.57595 0.03867 0.65355 0.0
C746 C 0.61052 0.05239 0.64427 0.0
C747 C 0.51224 1.01418 0.67216 0.0
C748 C 0.54163 0.02181 0.68426 0.0
C749 C 0.57309 0.03397 0.67474 0.0
C750 C 0.54005 0.01563 0.70655 0.0
C751 C 0.4774 0.99956 0.6812 0.0
C752 C 0.52828 0.03147 0.72083 0.0
C753 C 0.52592 0.02441 0.74164 0.0
C754 C 0.53577 1.00174 0.74863 0.0
C755 C 0.54819 0.98651 0.7343 0.0
C756 C 0.55038 0.99344 0.71357 0.0
H757 H 0.4566 0.98717 0.66911 0.0
H758 H 0.47355 0.98054 0.6924 0.0
H759 H 0.47517 0.02042 0.68942 0.0
H760 H 0.52066 0.04913 0.71588 0.0
H761 H 0.51544 0.03594 0.75202 0.0
H762 H 0.46782 0.49993 0.90732 0.0
H763 H 0.46669 0.50575 0.94495 0.0
H764 H 0.56681 0.51683 0.9501 0.0
H765 H 0.56826 0.51106 0.91264 0.0
H766 H 0.47528 0.46518 0.97537 0.0
H767 H 0.57504 0.60192 0.98359 0.0
H768 H 0.55214 0.58109 0.95949 0.0
H769 H 0.58667 0.57547 0.96813 0.0
C770 C 0.48962 0.5036 0.91645 0.0
C771 C 0.51821 0.50517 0.90691 0.0
C772 C 0.48887 0.50687 0.93795 0.0
C773 C 0.51683 0.51215 0.9503 0.0
C774 C 0.54516 0.51326 0.94085 0.0
H775 H 0.58777 0.53909 0.07436 0.0
H776 H 0.57689 0.53392 0.03743 0.0
C777 C 0.54586 0.5098 0.9194 0.0
C778 C 0.51664 0.51643 0.97308 0.0
H779 H 0.56032 0.57223 0.0142 0.0
C780 C 0.49353 0.48869 0.98392 0.0
C781 C 0.54037 0.54718 0.98414 0.0
C782 C 0.56479 0.57827 0.97328 0.0
C783 C 0.49478 0.49031 0.00559 0.0
C784 C 0.51937 0.52075 0.01666 0.0
C785 C 0.54153 0.54888 0.00574 0.0
C786 C 0.52477 0.52319 0.03941 0.0
C787 C 0.47092 0.45896 0.01641 0.0
C788 C 0.49906 0.51892 0.053 0.0
C789 C 0.50514 0.52164 0.0744 0.0
C790 C 0.53716 0.52902 0.08257 0.0
C791 C 0.56273 0.53333 0.06879 0.0
C792 C 0.55663 0.53051 0.04756 0.0
H793 H 0.4585 0.43576 0.00565 0.0
H794 H 0.48482 0.45465 0.0289 0.0
H795 H 0.45057 0.46257 0.02344 0.0
H796 H 0.47437 0.51369 0.0471 0.0
H797 H 0.48465 0.51759 0.08438 0.0
H798 H 0.06194 0.56879 0.25069 0.0
H799 H 0.05427 0.56197 0.28742 0.0
H800 H 0.97495 0.45744 0.27485 0.0
H801 H 0.98229 0.46399 0.23764 0.0
H802 H 0.98631 0.53679 0.3086 0.0
H803 H 0.04959 0.45958 0.31737 0.0
H804 H 0.05926 0.48698 0.29641 0.0
H805 H 1.0187 0.44858 0.29652 0.0
C806 C 0.04284 0.54422 0.25559 0.0
C807 C 1.02278 0.51688 0.24112 0.0
C808 C 0.03847 0.54044 0.27666 0.0
C809 C 1.01418 0.50922 0.28385 0.0
C810 C 0.99399 0.48172 0.26958 0.0
H811 H 1.01086 0.48064 0.41715 0.0
H812 H 0.99398 0.46712 0.38041 0.0
C813 C 0.99818 0.48554 0.24834 0.0
C814 C 1.0104 0.50622 0.30638 0.0
H815 H 0.0367 0.48092 0.34766 0.0
C816 C 0.99675 0.52405 0.31715 0.0
C817 C 1.02378 0.48938 0.31746 0.0
C818 C 0.03878 0.47002 0.3065 0.0
C819 C 0.99745 0.52673 0.33877 0.0
C820 C 1.01304 0.51193 0.34993 0.0
C821 C 0.02488 0.49239 0.33913 0.0
C822 C 1.02071 0.51964 0.3725 0.0
C823 C 0.98209 0.54602 0.34944 0.0
C824 C 0.04142 0.55355 0.38028 0.0
C825 C 0.05084 0.56131 0.40118 0.0
C826 C 0.0399 0.53534 0.41491 0.0
C827 C 1.01895 0.50131 0.40717 0.0
C828 C 1.00957 0.49353 0.38612 0.0
H829 H 0.96135 0.54506 0.33972 0.0
H830 H 0.97163 0.53566 0.36443 0.0
H831 H 1.00213 0.57318 0.3523 0.0
H832 H 0.05112 0.57411 0.37005 0.0
H833 H 0.06718 0.58778 0.40655 0.0
loop_
_geom_bond_atom_site_label_1
_geom_bond_atom_site_label_2
_geom_bond_distance
_geom_bond_site_symmetry_2
_ccdc_geom_bond_type
Eu0 C9 2.828 . S
Eu0 O11 2.392 1_655 S
Eu0 O13 2.418 . S
Eu0 O18 2.373 . S
Eu0 O21 2.488 . S
Eu0 O22 2.471 . S
Eu0 O23 2.349 . S
Eu1 O10 2.373 . S
Eu1 O14 2.488 . S
Eu1 O15 2.471 . S
Eu1 O16 2.349 . S
Eu1 O19 2.392 1_455 S
Eu1 O20 2.418 . S
Eu1 C30 2.828 . S
C2 O20 1.244 . S
C2 O23 1.265 1_455 S
C3 C4 1.379 . S
C3 C7 1.373 . S
C3 C9 1.505 . S
C4 C3 1.379 . S
C4 C6 1.369 . S
C4 H32 0.930 . S
C5 C7 1.383 . S
C5 C8 1.382 . S
C5 H33 0.930 . S
C6 C4 1.369 . S
C6 C8 1.392 . S
C6 H34 0.930 . S
C7 C3 1.373 . S
C7 C5 1.383 . S
C7 H35 0.931 . S
C8 C5 1.382 . S
C8 C6 1.392 . S
C9 Eu0 2.828 . S
C9 C3 1.505 . S
C9 O21 1.249 . S
C9 O22 1.244 . S
O10 Eu1 2.373 . S
O10 C12 1.258 . S
O11 Eu0 2.392 1_455 S
O11 C12 1.242 . S
C12 O10 1.258 . S
C12 O11 1.242 . S
O13 Eu0 2.418 . S
O13 C17 1.244 . S
O14 Eu1 2.488 . S
O14 C30 1.249 . S
O15 Eu1 2.471 . S
O15 C30 1.244 . S
O16 Eu1 2.349 . S
O16 C17 1.265 1_455 S
C17 O13 1.244 . S
C17 O16 1.265 1_655 S
O18 Eu0 2.373 . S
O18 C31 1.258 . S
O19 Eu1 2.392 1_655 S
O19 C31 1.242 . S
O20 Eu1 2.418 . S
O20 C2 1.244 . S
O21 Eu0 2.488 . S
O21 C9 1.249 . S
O22 Eu0 2.471 . S
O22 C9 1.244 . S
O23 Eu0 2.349 . S
O23 C2 1.265 1_655 S
C24 C25 1.379 . S
C24 C28 1.373 . S
C24 C30 1.505 . S
C25 C24 1.379 . S
C25 C27 1.369 . S
C25 H36 0.930 . S
C26 C28 1.383 . S
C26 C29 1.382 . S
C26 H37 0.930 . S
C27 C25 1.369 . S
C27 C29 1.392 . S
C27 H38 0.930 . S
C28 C24 1.373 . S
C28 C26 1.383 . S
C28 H39 0.931 . S
C29 C26 1.382 . S
C29 C27 1.392 . S
C30 Eu1 2.828 . S
C30 O14 1.249 . S
C30 O15 1.244 . S
C30 C24 1.505 . S
C31 O18 1.258 . S
C31 O19 1.242 . S
H32 C4 0.930 . S
H33 C5 0.930 . S
H34 C6 0.930 . S
H35 C7 0.931 . S
H36 C25 0.930 . S
H37 C26 0.930 . S
H38 C27 0.930 . S
H39 C28 0.931 . S
Eu40 C49 2.828 . S
Eu40 O51 2.392 1_565 S
Eu40 O53 2.418 . S
Eu40 O58 2.373 . S
Eu40 O61 2.488 . S
Eu40 O62 2.471 . S
Eu40 O63 2.348 . S
Eu41 O50 2.373 . S
Eu41 O54 2.488 . S
Eu41 O55 2.471 . S
Eu41 O56 2.349 . S
Eu41 O59 2.392 1_545 S
Eu41 O60 2.418 . S
Eu41 C70 2.828 . S
C42 O60 1.244 . S
C42 O63 1.265 1_545 S
C43 C44 1.379 . S
C43 C47 1.373 . S
C43 C49 1.505 . S
C44 C43 1.379 . S
C44 C46 1.369 . S
C44 H72 0.930 . S
C45 C47 1.383 . S
C45 C48 1.382 . S
C45 H73 0.930 . S
C46 C44 1.369 . S
C46 C48 1.392 . S
C46 H74 0.930 . S
C47 C43 1.373 . S
C47 C45 1.383 . S
C47 H75 0.931 . S
C48 C45 1.382 . S
C48 C46 1.392 . S
C49 Eu40 2.828 . S
C49 C43 1.505 . S
C49 O61 1.249 . S
C49 O62 1.244 . S
O50 Eu41 2.373 . S
O50 C52 1.258 . S
O51 Eu40 2.392 1_545 S
O51 C52 1.242 . S
C52 O50 1.258 . S
C52 O51 1.242 . S
O53 Eu40 2.418 . S
O53 C57 1.244 1_565 S
O54 Eu41 2.488 . S
O54 C70 1.249 . S
O55 Eu41 2.471 . S
O55 C70 1.244 . S
O56 Eu41 2.349 . S
O56 C57 1.265 . S
C57 O53 1.244 1_545 S
C57 O56 1.265 . S
O58 Eu40 2.373 . S
O58 C71 1.258 . S
O59 Eu41 2.392 1_565 S
O59 C71 1.242 . S
O60 Eu41 2.418 . S
O60 C42 1.244 . S
O61 Eu40 2.488 . S
O61 C49 1.249 . S
O62 Eu40 2.471 . S
O62 C49 1.244 . S
O63 Eu40 2.348 . S
O63 C42 1.265 1_565 S
C64 C65 1.379 . S
C64 C68 1.373 . S
C64 C70 1.505 . S
C65 C64 1.379 . S
C65 C67 1.369 . S
C65 H76 0.930 . S
C66 C68 1.383 . S
C66 C69 1.382 . S
C66 H77 0.930 . S
C67 C65 1.369 . S
C67 C69 1.392 . S
C67 H78 0.930 . S
C68 C64 1.373 . S
C68 C66 1.383 . S
C68 H79 0.931 . S
C69 C66 1.382 . S
C69 C67 1.392 . S
C70 Eu41 2.828 . S
C70 O54 1.249 . S
C70 O55 1.244 . S
C70 C64 1.505 . S
C71 O58 1.258 . S
C71 O59 1.242 . S
H72 C44 0.930 . S
H73 C45 0.930 . S
H74 C46 0.930 . S
H75 C47 0.931 . S
H76 C65 0.930 . S
H77 C66 0.930 . S
H78 C67 0.930 . S
H79 C68 0.931 . S
Eu80 C89 2.828 . S
Eu80 O91 2.392 . S
Eu80 O93 2.418 . S
Eu80 O98 2.373 . S
Eu80 O101 2.488 . S
Eu80 O102 2.471 . S
Eu80 O103 2.349 . S
Eu81 O90 2.373 . S
Eu81 O94 2.488 . S
Eu81 O95 2.471 . S
Eu81 O96 2.349 . S
Eu81 O99 2.392 . S
Eu81 O100 2.418 . S
Eu81 C110 2.828 . S
C82 O100 1.244 . S
C82 O103 1.265 . S
C83 C84 1.379 . S
C83 C87 1.373 . S
C83 C89 1.505 . S
C84 C83 1.379 . S
C84 C86 1.369 . S
C84 H112 0.930 . S
C85 C87 1.383 . S
C85 C88 1.382 . S
C85 H113 0.930 . S
C86 C84 1.369 . S
C86 C88 1.392 . S
C86 H114 0.930 . S
C87 C83 1.373 . S
C87 C85 1.383 . S
C87 H115 0.931 . S
C88 C85 1.382 . S
C88 C86 1.392 . S
C89 Eu80 2.828 . S
C89 C83 1.505 . S
C89 O101 1.249 . S
C89 O102 1.244 . S
O90 Eu81 2.373 . S
O90 C92 1.258 . S
O91 Eu80 2.392 . S
O91 C92 1.242 . S
C92 O90 1.258 . S
C92 O91 1.242 . S
O93 Eu80 2.418 . S
O93 C97 1.244 . S
O94 Eu81 2.488 . S
O94 C110 1.249 . S
O95 Eu81 2.471 . S
O95 C110 1.244 . S
O96 Eu81 2.349 . S
O96 C97 1.265 . S
C97 O93 1.244 . S
C97 O96 1.265 . S
O98 Eu80 2.373 . S
O98 C111 1.258 . S
O99 Eu81 2.392 . S
O99 C111 1.242 . S
O100 Eu81 2.418 . S
O100 C82 1.244 . S
O101 Eu80 2.488 . S
O101 C89 1.249 . S
O102 Eu80 2.471 . S
O102 C89 1.244 . S
O103 Eu80 2.349 . S
O103 C82 1.265 . S
C104 C105 1.379 . S
C104 C108 1.373 . S
C104 C110 1.505 . S
C105 C104 1.379 . S
C105 C107 1.369 . S
C105 H116 0.930 . S
C106 C108 1.383 . S
C106 C109 1.382 . S
C106 H117 0.930 . S
C107 C105 1.369 . S
C107 C109 1.392 . S
C107 H118 0.930 . S
C108 C104 1.373 . S
C108 C106 1.383 . S
C108 H119 0.931 . S
C109 C106 1.382 . S
C109 C107 1.392 . S
C110 Eu81 2.828 . S
C110 O94 1.249 . S
C110 O95 1.244 . S
C110 C104 1.505 . S
C111 O98 1.258 . S
C111 O99 1.242 . S
H112 C84 0.930 . S
H113 C85 0.930 . S
H114 C86 0.930 . S
H115 C87 0.931 . S
H116 C105 0.930 . S
H117 C106 0.930 . S
H118 C107 0.930 . S
H119 C108 0.931 . S
O120 Cd121 2.300 . S
O120 C127 1.275 . S
Cd121 O120 2.300 . S
Cd121 O129 2.381 . S
Cd121 O130 2.378 . S
O122 Cd123 2.385 1_545 S
O122 C127 1.255 . S
Cd123 O122 2.385 1_565 S
Cd123 O124 2.317 . S
O124 Cd123 2.317 . S
O124 C125 1.232 . S
C125 O124 1.232 . S
C125 O126 1.218 . S
O126 C125 1.218 . S
C127 O120 1.275 . S
C127 O122 1.255 . S
C128 O129 1.258 . S
C128 O130 1.256 . S
O129 Cd121 2.381 . S
O129 C128 1.258 . S
O130 Cd121 2.378 . S
O130 C128 1.256 . S
O131 Cd132 2.300 . S
O131 C138 1.275 . S
Cd132 O131 2.300 . S
Cd132 O140 2.381 . S
Cd132 O141 2.378 . S
O133 Cd134 2.385 . S
O133 C138 1.255 . S
Cd134 O133 2.385 . S
Cd134 O135 2.317 . S
O135 Cd134 2.317 . S
O135 C136 1.232 . S
C136 O135 1.232 . S
C136 O137 1.218 . S
O137 C136 1.218 . S
C138 O131 1.275 . S
C138 O133 1.255 . S
C139 O140 1.258 . S
C139 O141 1.256 . S
O140 Cd132 2.381 . S
O140 C139 1.258 . S
O141 Cd132 2.378 . S
O141 C139 1.256 . S
O142 Cd143 2.300 . S
O142 C149 1.275 . S
Cd143 O142 2.300 . S
Cd143 O151 2.381 . S
Cd143 O152 2.378 . S
O144 Cd145 2.385 1_455 S
O144 C149 1.255 . S
Cd145 O144 2.385 1_655 S
Cd145 O146 2.317 . S
O146 Cd145 2.317 . S
O146 C147 1.232 . S
C147 O146 1.232 . S
C147 O148 1.218 . S
O148 C147 1.218 . S
C149 O142 1.275 . S
C149 O144 1.255 . S
C150 O151 1.258 . S
C150 O152 1.256 . S
O151 Cd143 2.381 . S
O151 C150 1.258 . S
O152 Cd143 2.378 . S
O152 C150 1.256 . S
O153 Cd154 2.300 . S
O153 C160 1.275 . S
Cd154 O153 2.300 . S
Cd154 O162 2.381 . S
Cd154 O163 2.378 . S
O155 Cd156 2.385 . S
O155 C160 1.255 1_655 S
Cd156 O155 2.385 . S
Cd156 O157 2.317 . S
O157 Cd156 2.317 . S
O157 C158 1.232 . S
C158 O157 1.232 . S
C158 O159 1.218 . S
O159 C158 1.218 . S
C160 O153 1.275 . S
C160 O155 1.255 1_455 S
C161 O162 1.258 . S
C161 O163 1.256 . S
O162 Cd154 2.381 . S
O162 C161 1.258 . S
O163 Cd154 2.378 . S
O163 C161 1.256 . S
O164 Cd165 2.300 . S
O164 C171 1.275 1_565 S
Cd165 O164 2.300 . S
Cd165 O173 2.381 . S
Cd165 O174 2.378 . S
O166 Cd167 2.385 . S
O166 C171 1.255 . S
Cd167 O166 2.385 . S
Cd167 O168 2.317 . S
O168 Cd167 2.317 . S
O168 C169 1.232 . S
C169 O168 1.232 . S
C169 O170 1.218 . S
O170 C169 1.218 . S
C171 O164 1.275 1_545 S
C171 O166 1.255 . S
C172 O173 1.258 . S
C172 O174 1.256 . S
O173 Cd165 2.381 . S
O173 C172 1.258 . S
O174 Cd165 2.378 . S
O174 C172 1.256 . S
O175 Cd176 2.300 . S
O175 C182 1.275 . S
Cd176 O175 2.300 . S
Cd176 O184 2.381 . S
Cd176 O185 2.378 . S
O177 Cd178 2.385 . S
O177 C182 1.255 . S
Cd178 O177 2.385 . S
Cd178 O179 2.317 . S
O179 Cd178 2.317 . S
O179 C180 1.232 . S
C180 O179 1.232 . S
C180 O181 1.218 . S
O181 C180 1.218 . S
C182 O175 1.275 . S
C182 O177 1.255 . S
C183 O184 1.258 . S
C183 O185 1.256 . S
O184 Cd176 2.381 . S
O184 C183 1.258 . S
O185 Cd176 2.378 . S
O185 C183 1.256 . S
H186 C194 0.929 . S
H187 C196 0.930 . S
H188 C198 0.930 . S
H189 C201 0.929 . S
H190 C204 0.930 . S
H191 C206 0.960 . S
H192 C206 0.960 . S
H193 C206 0.960 . S
C194 H186 0.929 . S
C194 C195 1.377 . S
C194 C196 1.384 . S
C195 C194 1.377 . S
C195 C201 1.390 . S
C196 H187 0.930 . S
C196 C194 1.384 . S
C196 C197 1.372 . S
C197 C196 1.372 . S
C197 C198 1.400 . S
C197 C202 1.490 . S
C198 H188 0.930 . S
C198 C197 1.400 . S
C198 C201 1.386 . S
H199 C215 0.930 . S
H200 C216 0.931 . S
C201 H189 0.929 . S
C201 C195 1.390 . S
C201 C198 1.386 . S
C202 C197 1.490 . S
C202 C204 1.395 . S
C202 C205 1.403 . S
H203 C209 0.930 . S
C204 H190 0.930 . S
C204 C202 1.395 . S
C204 C207 1.403 . S
C205 C202 1.403 . S
C205 C206 1.524 . S
C205 C209 1.400 . S
C206 H191 0.960 . S
C206 H192 0.960 . S
C206 H193 0.960 . S
C206 C205 1.524 . S
C207 C204 1.403 . S
C207 C208 1.392 . S
C207 C211 1.495 . S
C208 C207 1.392 . S
C208 C209 1.385 . S
C208 C210 1.478 . S
C209 H203 0.930 . S
C209 C205 1.400 . S
C209 C208 1.385 . S
C210 C208 1.478 . S
C210 C212 1.381 . S
C210 C216 1.383 . S
C211 C207 1.495 . S
C211 H217 0.959 . S
C211 H218 0.961 . S
C211 H219 0.960 . S
C212 C210 1.381 . S
C212 C213 1.394 . S
C212 H220 0.930 . S
C213 C212 1.394 . S
C213 C214 1.383 . S
C213 H221 0.929 . S
C214 C213 1.383 . S
C214 C215 1.377 . S
C215 H199 0.930 . S
C215 C214 1.377 . S
C215 C216 1.379 . S
C216 H200 0.931 . S
C216 C210 1.383 . S
C216 C215 1.379 . S
H217 C211 0.959 . S
H218 C211 0.961 . S
H219 C211 0.960 . S
H220 C212 0.930 . S
H221 C213 0.929 . S
H222 C230 0.929 . S
H223 C232 0.930 . S
H224 C234 0.930 . S
H225 C237 0.929 . S
H226 C240 0.930 . S
H227 C242 0.960 . S
H228 C242 0.960 . S
H229 C242 0.960 . S
C230 H222 0.929 . S
C230 C231 1.377 . S
C230 C232 1.384 . S
C231 C230 1.377 . S
C231 C237 1.390 . S
C232 H223 0.930 . S
C232 C230 1.384 . S
C232 C233 1.372 . S
C233 C232 1.372 . S
C233 C234 1.400 . S
C233 C238 1.490 . S
C234 H224 0.930 . S
C234 C233 1.400 . S
C234 C237 1.386 . S
H235 C251 0.930 . S
H236 C252 0.931 . S
C237 H225 0.929 . S
C237 C231 1.390 . S
C237 C234 1.386 . S
C238 C233 1.490 . S
C238 C240 1.395 . S
C238 C241 1.403 . S
H239 C245 0.930 . S
C240 H226 0.930 . S
C240 C238 1.395 . S
C240 C243 1.403 . S
C241 C238 1.403 . S
C241 C242 1.524 . S
C241 C245 1.400 . S
C242 H227 0.960 . S
C242 H228 0.960 . S
C242 H229 0.960 . S
C242 C241 1.524 . S
C243 C240 1.403 . S
C243 C244 1.392 . S
C243 C247 1.495 . S
C244 C243 1.392 . S
C244 C245 1.385 . S
C244 C246 1.478 . S
C245 H239 0.930 . S
C245 C241 1.400 . S
C245 C244 1.385 . S
C246 C244 1.478 . S
C246 C248 1.381 . S
C246 C252 1.383 . S
C247 C243 1.495 . S
C247 H253 0.959 . S
C247 H254 0.961 . S
C247 H255 0.960 . S
C248 C246 1.381 . S
C248 C249 1.394 . S
C248 H256 0.930 . S
C249 C248 1.394 . S
C249 C250 1.383 . S
C249 H257 0.929 . S
C250 C249 1.383 . S
C250 C251 1.377 . S
C251 H235 0.930 . S
C251 C250 1.377 . S
C251 C252 1.379 . S
C252 H236 0.931 . S
C252 C246 1.383 . S
C252 C251 1.379 . S
H253 C247 0.959 . S
H254 C247 0.961 . S
H255 C247 0.960 . S
H256 C248 0.930 . S
H257 C249 0.929 . S
H258 C266 0.929 . S
H259 C268 0.930 . S
H260 C270 0.930 . S
H261 C273 0.929 . S
H262 C276 0.930 . S
H263 C278 0.960 . S
H264 C278 0.960 . S
H265 C278 0.960 . S
C266 H258 0.929 . S
C266 C267 1.377 . S
C266 C268 1.384 . S
C267 C266 1.377 . S
C267 C273 1.390 . S
C268 H259 0.930 . S
C268 C266 1.384 . S
C268 C269 1.372 . S
C269 C268 1.372 . S
C269 C270 1.400 . S
C269 C274 1.490 . S
C270 H260 0.930 . S
C270 C269 1.400 . S
C270 C273 1.386 . S
H271 C287 0.930 . S
H272 C288 0.931 . S
C273 H261 0.929 . S
C273 C267 1.390 . S
C273 C270 1.386 . S
C274 C269 1.490 . S
C274 C276 1.395 . S
C274 C277 1.403 . S
H275 C281 0.930 . S
C276 H262 0.930 . S
C276 C274 1.395 . S
C276 C279 1.403 . S
C277 C274 1.403 . S
C277 C278 1.524 . S
C277 C281 1.400 . S
C278 H263 0.960 . S
C278 H264 0.960 . S
C278 H265 0.960 . S
C278 C277 1.524 . S
C279 C276 1.403 . S
C279 C280 1.392 . S
C279 C283 1.495 . S
C280 C279 1.392 . S
C280 C281 1.385 . S
C280 C282 1.478 . S
C281 H275 0.930 . S
C281 C277 1.400 . S
C281 C280 1.385 . S
C282 C280 1.478 . S
C282 C284 1.381 . S
C282 C288 1.383 . S
C283 C279 1.495 . S
C283 H289 0.959 . S
C283 H290 0.961 . S
C283 H291 0.960 . S
C284 C282 1.381 . S
C284 C285 1.394 . S
C284 H292 0.930 . S
C285 C284 1.394 . S
C285 C286 1.383 . S
C285 H293 0.929 . S
C286 C285 1.383 . S
C286 C287 1.377 . S
C287 H271 0.930 . S
C287 C286 1.377 . S
C287 C288 1.379 . S
C288 H272 0.931 . S
C288 C282 1.383 . S
C288 C287 1.379 . S
H289 C283 0.959 . S
H290 C283 0.961 . S
H291 C283 0.960 . S
H292 C284 0.930 . S
H293 C285 0.929 . S
H294 C302 0.929 . S
H295 C304 0.930 . S
H296 C306 0.930 . S
H297 C309 0.929 . S
H298 C312 0.930 . S
H299 C314 0.960 . S
H300 C314 0.960 . S
H301 C314 0.960 . S
C302 H294 0.929 . S
C302 C303 1.377 . S
C302 C304 1.384 . S
C303 C302 1.377 . S
C303 C309 1.390 . S
C304 H295 0.930 . S
C304 C302 1.384 . S
C304 C305 1.372 . S
C305 C304 1.372 . S
C305 C306 1.400 . S
C305 C310 1.490 . S
C306 H296 0.930 . S
C306 C305 1.400 . S
C306 C309 1.386 . S
H307 C323 0.930 . S
H308 C324 0.931 . S
C309 H297 0.929 . S
C309 C303 1.390 . S
C309 C306 1.386 . S
C310 C305 1.490 . S
C310 C312 1.395 . S
C310 C313 1.403 . S
H311 C317 0.930 . S
C312 H298 0.930 . S
C312 C310 1.395 . S
C312 C315 1.403 . S
C313 C310 1.403 . S
C313 C314 1.524 . S
C313 C317 1.400 . S
C314 H299 0.960 . S
C314 H300 0.960 . S
C314 H301 0.960 . S
C314 C313 1.524 . S
C315 C312 1.403 . S
C315 C316 1.392 . S
C315 C319 1.495 . S
C316 C315 1.392 . S
C316 C317 1.385 . S
C316 C318 1.478 . S
C317 H311 0.930 . S
C317 C313 1.400 . S
C317 C316 1.385 . S
C318 C316 1.478 . S
C318 C320 1.381 . S
C318 C324 1.383 . S
C319 C315 1.495 . S
C319 H325 0.959 . S
C319 H326 0.961 . S
C319 H327 0.960 . S
C320 C318 1.381 . S
C320 C321 1.394 . S
C320 H328 0.930 . S
C321 C320 1.394 . S
C321 C322 1.383 . S
C321 H329 0.929 . S
C322 C321 1.383 . S
C322 C323 1.377 . S
C323 H307 0.930 . S
C323 C322 1.377 . S
C323 C324 1.379 . S
C324 H308 0.931 . S
C324 C318 1.383 . S
C324 C323 1.379 . S
H325 C319 0.959 . S
H326 C319 0.961 . S
H327 C319 0.960 . S
H328 C320 0.930 . S
H329 C321 0.929 . S
H330 C338 0.929 . S
H331 C340 0.930 . S
H332 C342 0.930 . S
H333 C345 0.929 . S
H334 C348 0.930 . S
H335 C350 0.960 . S
H336 C350 0.960 . S
H337 C350 0.960 . S
C338 H330 0.929 . S
C338 C339 1.377 . S
C338 C340 1.384 . S
C339 C338 1.377 . S
C339 C345 1.390 . S
C340 H331 0.930 . S
C340 C338 1.384 . S
C340 C341 1.372 . S
C341 C340 1.372 . S
C341 C342 1.400 . S
C341 C346 1.490 . S
C342 H332 0.930 . S
C342 C341 1.400 . S
C342 C345 1.386 . S
H343 C359 0.930 . S
H344 C360 0.931 . S
C345 H333 0.929 . S
C345 C339 1.390 . S
C345 C342 1.386 . S
C346 C341 1.490 . S
C346 C348 1.395 . S
C346 C349 1.403 . S
H347 C353 0.930 . S
C348 H334 0.930 . S
C348 C346 1.395 . S
C348 C351 1.403 . S
C349 C346 1.403 . S
C349 C350 1.524 . S
C349 C353 1.400 . S
C350 H335 0.960 . S
C350 H336 0.960 . S
C350 H337 0.960 . S
C350 C349 1.524 . S
C351 C348 1.403 . S
C351 C352 1.392 . S
C351 C355 1.495 . S
C352 C351 1.392 . S
C352 C353 1.385 . S
C352 C354 1.478 . S
C353 H347 0.930 . S
C353 C349 1.400 . S
C353 C352 1.385 . S
C354 C352 1.478 . S
C354 C356 1.381 . S
C354 C360 1.383 . S
C355 C351 1.495 . S
C355 H361 0.959 . S
C355 H362 0.961 . S
C355 H363 0.960 . S
C356 C354 1.381 . S
C356 C357 1.394 . S
C356 H364 0.930 . S
C357 C356 1.394 . S
C357 C358 1.383 . S
C357 H365 0.929 . S
C358 C357 1.383 . S
C358 C359 1.377 . S
C359 H343 0.930 . S
C359 C358 1.377 . S
C359 C360 1.379 . S
C360 H344 0.931 . S
C360 C354 1.383 . S
C360 C359 1.379 . S
H361 C355 0.959 . S
H362 C355 0.961 . S
H363 C355 0.960 . S
H364 C356 0.930 . S
H365 C357 0.929 . S
H366 C374 0.929 . S
H367 C376 0.930 . S
H368 C378 0.930 . S
H369 C381 0.929 . S
H370 C384 0.930 . S
H371 C386 0.960 . S
H372 C386 0.960 . S
H373 C386 0.960 . S
C374 H366 0.929 . S
C374 C375 1.377 . S
C374 C376 1.384 . S
C375 C374 1.377 . S
C375 C381 1.390 . S
C376 H367 0.930 . S
C376 C374 1.384 . S
C376 C377 1.372 . S
C377 C376 1.372 . S
C377 C378 1.400 . S
C377 C382 1.490 . S
C378 H368 0.930 . S
C378 C377 1.400 . S
C378 C381 1.386 . S
H379 C395 0.930 . S
H380 C396 0.931 . S
C381 H369 0.929 . S
C381 C375 1.390 . S
C381 C378 1.386 . S
C382 C377 1.490 . S
C382 C384 1.395 . S
C382 C385 1.403 . S
H383 C389 0.930 . S
C384 H370 0.930 . S
C384 C382 1.395 . S
C384 C387 1.403 . S
C385 C382 1.403 . S
C385 C386 1.524 . S
C385 C389 1.400 . S
C386 H371 0.960 . S
C386 H372 0.960 . S
C386 H373 0.960 . S
C386 C385 1.524 . S
C387 C384 1.403 . S
C387 C388 1.392 . S
C387 C391 1.495 . S
C388 C387 1.392 . S
C388 C389 1.385 . S
C388 C390 1.478 . S
C389 H383 0.930 . S
C389 C385 1.400 . S
C389 C388 1.385 . S
C390 C388 1.478 . S
C390 C392 1.381 . S
C390 C396 1.383 . S
C391 C387 1.495 . S
C391 H397 0.959 . S
C391 H398 0.961 . S
C391 H399 0.960 . S
C392 C390 1.381 . S
C392 C393 1.394 . S
C392 H400 0.930 . S
C393 C392 1.394 . S
C393 C394 1.383 . S
C393 H401 0.929 . S
C394 C393 1.383 . S
C394 C395 1.377 . S
C395 H379 0.930 . S
C395 C394 1.377 . S
C395 C396 1.379 . S
C396 H380 0.931 . S
C396 C390 1.383 . S
C396 C395 1.379 . S
H397 C391 0.959 . S
H398 C391 0.961 . S
H399 C391 0.960 . S
H400 C392 0.930 . S
H401 C393 0.929 . S
H402 C410 0.929 . S
H403 C412 0.930 . S
H404 C414 0.930 . S
H405 C417 0.929 . S
H406 C420 0.930 . S
H407 C422 0.960 . S
H408 C422 0.960 . S
H409 C422 0.960 . S
C410 H402 0.929 . S
C410 C411 1.377 . S
C410 C412 1.384 . S
C411 C410 1.377 . S
C411 C417 1.390 . S
C412 H403 0.930 . S
C412 C410 1.384 . S
C412 C413 1.372 . S
C413 C412 1.372 . S
C413 C414 1.400 . S
C413 C418 1.490 . S
C414 H404 0.930 . S
C414 C413 1.400 . S
C414 C417 1.386 . S
H415 C431 0.930 . S
H416 C432 0.931 . S
C417 H405 0.929 . S
C417 C411 1.390 . S
C417 C414 1.386 . S
C418 C413 1.490 . S
C418 C420 1.395 . S
C418 C421 1.403 . S
H419 C425 0.930 . S
C420 H406 0.930 . S
C420 C418 1.395 . S
C420 C423 1.403 . S
C421 C418 1.403 . S
C421 C422 1.524 . S
C421 C425 1.400 . S
C422 H407 0.960 . S
C422 H408 0.960 . S
C422 H409 0.960 . S
C422 C421 1.524 . S
C423 C420 1.403 . S
C423 C424 1.392 . S
C423 C427 1.495 . S
C424 C423 1.392 . S
C424 C425 1.385 . S
C424 C426 1.478 . S
C425 H419 0.930 . S
C425 C421 1.400 . S
C425 C424 1.385 . S
C426 C424 1.478 . S
C426 C428 1.381 . S
C426 C432 1.383 . S
C427 C423 1.495 . S
C427 H433 0.959 . S
C427 H434 0.961 . S
C427 H435 0.960 . S
C428 C426 1.381 . S
C428 C429 1.394 . S
C428 H436 0.930 . S
C429 C428 1.394 . S
C429 C430 1.383 . S
C429 H437 0.929 . S
C430 C429 1.383 . S
C430 C431 1.377 . S
C431 H415 0.930 . S
C431 C430 1.377 . S
C431 C432 1.379 . S
C432 H416 0.931 . S
C432 C426 1.383 . S
C432 C431 1.379 . S
H433 C427 0.959 . S
H434 C427 0.961 . S
H435 C427 0.960 . S
H436 C428 0.930 . S
H437 C429 0.929 . S
H438 C446 0.929 . S
H439 C448 0.930 . S
H440 C450 0.930 . S
H441 C453 0.929 . S
H442 C456 0.930 . S
H443 C458 0.960 . S
H444 C458 0.960 . S
H445 C458 0.960 . S
C446 H438 0.929 . S
C446 C447 1.377 . S
C446 C448 1.384 . S
C447 C446 1.377 . S
C447 C453 1.390 . S
C448 H439 0.930 . S
C448 C446 1.384 . S
C448 C449 1.372 . S
C449 C448 1.372 . S
C449 C450 1.400 . S
C449 C454 1.490 . S
C450 H440 0.930 . S
C450 C449 1.400 . S
C450 C453 1.386 . S
H451 C467 0.930 . S
H452 C468 0.931 . S
C453 H441 0.929 . S
C453 C447 1.390 . S
C453 C450 1.386 . S
C454 C449 1.490 . S
C454 C456 1.395 . S
C454 C457 1.403 . S
H455 C461 0.930 . S
C456 H442 0.930 . S
C456 C454 1.395 . S
C456 C459 1.403 . S
C457 C454 1.403 . S
C457 C458 1.524 . S
C457 C461 1.400 . S
C458 H443 0.960 . S
C458 H444 0.960 . S
C458 H445 0.960 . S
C458 C457 1.524 . S
C459 C456 1.403 . S
C459 C460 1.392 . S
C459 C463 1.495 . S
C460 C459 1.392 . S
C460 C461 1.385 . S
C460 C462 1.478 . S
C461 H455 0.930 . S
C461 C457 1.400 . S
C461 C460 1.385 . S
C462 C460 1.478 . S
C462 C464 1.381 . S
C462 C468 1.383 . S
C463 C459 1.495 . S
C463 H469 0.959 . S
C463 H470 0.961 . S
C463 H471 0.960 . S
C464 C462 1.381 . S
C464 C465 1.394 . S
C464 H472 0.930 . S
C465 C464 1.394 . S
C465 C466 1.383 . S
C465 H473 0.929 . S
C466 C465 1.383 . S
C466 C467 1.377 . S
C467 H451 0.930 . S
C467 C466 1.377 . S
C467 C468 1.379 . S
C468 H452 0.931 . S
C468 C462 1.383 . S
C468 C467 1.379 . S
H469 C463 0.959 . S
H470 C463 0.961 . S
H471 C463 0.960 . S
H472 C464 0.930 . S
H473 C465 0.929 . S
H474 C482 0.929 . S
H475 C484 0.930 . S
H476 C486 0.930 . S
H477 C489 0.929 . S
H478 C492 0.930 . S
H479 C494 0.960 . S
H480 C494 0.960 . S
H481 C494 0.960 . S
C482 H474 0.929 . S
C482 C483 1.377 . S
C482 C484 1.384 . S
C483 C482 1.377 . S
C483 C489 1.390 . S
C484 H475 0.930 . S
C484 C482 1.384 . S
C484 C485 1.372 . S
C485 C484 1.372 . S
C485 C486 1.400 . S
C485 C490 1.490 . S
C486 H476 0.930 . S
C486 C485 1.400 . S
C486 C489 1.386 . S
H487 C503 0.930 . S
H488 C504 0.931 . S
C489 H477 0.929 . S
C489 C483 1.390 . S
C489 C486 1.386 . S
C490 C485 1.490 . S
C490 C492 1.395 . S
C490 C493 1.403 . S
H491 C497 0.930 . S
C492 H478 0.930 . S
C492 C490 1.395 . S
C492 C495 1.403 . S
C493 C490 1.403 . S
C493 C494 1.524 . S
C493 C497 1.400 . S
C494 H479 0.960 . S
C494 H480 0.960 . S
C494 H481 0.960 . S
C494 C493 1.524 . S
C495 C492 1.403 . S
C495 C496 1.392 . S
C495 C499 1.495 . S
C496 C495 1.392 . S
C496 C497 1.385 . S
C496 C498 1.478 . S
C497 H491 0.930 . S
C497 C493 1.400 . S
C497 C496 1.385 . S
C498 C496 1.478 . S
C498 C500 1.381 . S
C498 C504 1.383 . S
C499 C495 1.495 . S
C499 H505 0.959 . S
C499 H506 0.961 . S
C499 H507 0.960 . S
C500 C498 1.381 . S
C500 C501 1.394 . S
C500 H508 0.930 . S
C501 C500 1.394 . S
C501 C502 1.383 . S
C501 H509 0.929 . S
C502 C501 1.383 . S
C502 C503 1.377 . S
C503 H487 0.930 . S
C503 C502 1.377 . S
C503 C504 1.379 . S
C504 H488 0.931 . S
C504 C498 1.383 . S
C504 C503 1.379 . S
H505 C499 0.959 . S
H506 C499 0.961 . S
H507 C499 0.960 . S
H508 C500 0.930 . S
H509 C501 0.929 . S
H510 C518 0.929 . S
H511 C520 0.930 . S
H512 C522 0.930 . S
H513 C525 0.929 . S
H514 C528 0.930 . S
H515 C530 0.960 . S
H516 C530 0.960 . S
H517 C530 0.960 . S
C518 H510 0.929 . S
C518 C519 1.377 . S
C518 C520 1.384 . S
C519 C518 1.377 . S
C519 C525 1.390 . S
C520 H511 0.930 . S
C520 C518 1.384 . S
C520 C521 1.372 . S
C521 C520 1.372 . S
C521 C522 1.400 . S
C521 C526 1.490 . S
C522 H512 0.930 . S
C522 C521 1.400 . S
C522 C525 1.386 . S
H523 C539 0.930 . S
H524 C540 0.931 . S
C525 H513 0.929 . S
C525 C519 1.390 . S
C525 C522 1.386 . S
C526 C521 1.490 . S
C526 C528 1.395 . S
C526 C529 1.403 . S
H527 C533 0.930 . S
C528 H514 0.930 . S
C528 C526 1.395 . S
C528 C531 1.403 . S
C529 C526 1.403 . S
C529 C530 1.524 . S
C529 C533 1.400 . S
C530 H515 0.960 . S
C530 H516 0.960 . S
C530 H517 0.960 . S
C530 C529 1.524 . S
C531 C528 1.403 . S
C531 C532 1.392 . S
C531 C535 1.495 . S
C532 C531 1.392 . S
C532 C533 1.385 . S
C532 C534 1.478 . S
C533 H527 0.930 . S
C533 C529 1.400 . S
C533 C532 1.385 . S
C534 C532 1.478 . S
C534 C536 1.381 . S
C534 C540 1.383 . S
C535 C531 1.495 . S
C535 H541 0.959 . S
C535 H542 0.961 . S
C535 H543 0.960 . S
C536 C534 1.381 . S
C536 C537 1.394 . S
C536 H544 0.930 . S
C537 C536 1.394 . S
C537 C538 1.383 . S
C537 H545 0.929 . S
C538 C537 1.383 . S
C538 C539 1.377 . S
C539 H523 0.930 . S
C539 C538 1.377 . S
C539 C540 1.379 . S
C540 H524 0.931 . S
C540 C534 1.383 . S
C540 C539 1.379 . S
H541 C535 0.959 . S
H542 C535 0.961 . S
H543 C535 0.960 . S
H544 C536 0.930 . S
H545 C537 0.929 . S
H546 C554 0.929 . S
H547 C556 0.930 . S
H548 C558 0.930 . S
H549 C561 0.929 . S
H550 C564 0.930 . S
H551 C566 0.960 . S
H552 C566 0.960 . S
H553 C566 0.960 . S
C554 H546 0.929 . S
C554 C555 1.377 . S
C554 C556 1.384 . S
C555 C554 1.377 . S
C555 C561 1.390 . S
C556 H547 0.930 . S
C556 C554 1.384 . S
C556 C557 1.372 . S
C557 C556 1.372 . S
C557 C558 1.400 . S
C557 C562 1.490 . S
C558 H548 0.930 . S
C558 C557 1.400 . S
C558 C561 1.386 . S
H559 C575 0.930 . S
H560 C576 0.931 . S
C561 H549 0.929 . S
C561 C555 1.390 . S
C561 C558 1.386 . S
C562 C557 1.490 . S
C562 C564 1.395 . S
C562 C565 1.403 . S
H563 C569 0.930 . S
C564 H550 0.930 . S
C564 C562 1.395 . S
C564 C567 1.403 . S
C565 C562 1.403 . S
C565 C566 1.524 . S
C565 C569 1.400 . S
C566 H551 0.960 . S
C566 H552 0.960 . S
C566 H553 0.960 . S
C566 C565 1.524 . S
C567 C564 1.403 . S
C567 C568 1.392 . S
C567 C571 1.495 . S
C568 C567 1.392 . S
C568 C569 1.385 . S
C568 C570 1.478 . S
C569 H563 0.930 . S
C569 C565 1.400 . S
C569 C568 1.385 . S
C570 C568 1.478 . S
C570 C572 1.381 . S
C570 C576 1.383 . S
C571 C567 1.495 . S
C571 H577 0.959 . S
C571 H578 0.961 . S
C571 H579 0.960 . S
C572 C570 1.381 . S
C572 C573 1.394 . S
C572 H580 0.930 . S
C573 C572 1.394 . S
C573 C574 1.383 . S
C573 H581 0.929 . S
C574 C573 1.383 . S
C574 C575 1.377 . S
C575 H559 0.930 . S
C575 C574 1.377 . S
C575 C576 1.379 . S
C576 H560 0.931 . S
C576 C570 1.383 . S
C576 C575 1.379 . S
H577 C571 0.959 . S
H578 C571 0.961 . S
H579 C571 0.960 . S
H580 C572 0.930 . S
H581 C573 0.929 . S
H582 C590 0.929 . S
H583 C592 0.930 . S
H584 C594 0.930 . S
H585 C597 0.929 . S
H586 C600 0.930 . S
H587 C602 0.960 . S
H588 C602 0.960 . S
H589 C602 0.960 . S
C590 H582 0.929 . S
C590 C591 1.377 . S
C590 C592 1.384 . S
C591 C590 1.377 . S
C591 C597 1.390 . S
C592 H583 0.930 . S
C592 C590 1.384 . S
C592 C593 1.372 . S
C593 C592 1.372 . S
C593 C594 1.400 . S
C593 C598 1.490 . S
C594 H584 0.930 . S
C594 C593 1.400 . S
C594 C597 1.386 . S
H595 C611 0.930 . S
H596 C612 0.931 . S
C597 H585 0.929 . S
C597 C591 1.390 . S
C597 C594 1.386 . S
C598 C593 1.490 . S
C598 C600 1.395 . S
C598 C601 1.403 . S
H599 C605 0.930 . S
C600 H586 0.930 . S
C600 C598 1.395 . S
C600 C603 1.403 . S
C601 C598 1.403 . S
C601 C602 1.524 . S
C601 C605 1.400 . S
C602 H587 0.960 . S
C602 H588 0.960 . S
C602 H589 0.960 . S
C602 C601 1.524 . S
C603 C600 1.403 . S
C603 C604 1.392 . S
C603 C607 1.495 . S
C604 C603 1.392 . S
C604 C605 1.385 . S
C604 C606 1.478 . S
C605 H599 0.930 . S
C605 C601 1.400 . S
C605 C604 1.385 . S
C606 C604 1.478 . S
C606 C608 1.381 . S
C606 C612 1.383 . S
C607 C603 1.495 . S
C607 H613 0.959 . S
C607 H614 0.961 . S
C607 H615 0.960 . S
C608 C606 1.381 . S
C608 C609 1.394 . S
C608 H616 0.930 . S
C609 C608 1.394 . S
C609 C610 1.383 . S
C609 H617 0.929 . S
C610 C609 1.383 . S
C610 C611 1.377 . S
C611 H595 0.930 . S
C611 C610 1.377 . S
C611 C612 1.379 . S
C612 H596 0.931 . S
C612 C606 1.383 . S
C612 C611 1.379 . S
H613 C607 0.959 . S
H614 C607 0.961 . S
H615 C607 0.960 . S
H616 C608 0.930 . S
H617 C609 0.929 . S
H618 C626 0.929 . S
H619 C628 0.930 . S
H620 C630 0.930 . S
H621 C633 0.929 . S
H622 C636 0.930 . S
H623 C638 0.960 . S
H624 C638 0.960 . S
H625 C638 0.960 . S
C626 H618 0.929 . S
C626 C627 1.377 1_655 S
C626 C628 1.384 . S
C627 C626 1.377 1_455 S
C627 C633 1.390 . S
C628 H619 0.930 . S
C628 C626 1.384 . S
C628 C629 1.372 1_655 S
C629 C628 1.372 1_455 S
C629 C630 1.400 . S
C629 C634 1.490 . S
C630 H620 0.930 . S
C630 C629 1.400 . S
C630 C633 1.386 . S
H631 C647 0.930 . S
H632 C648 0.931 . S
C633 H621 0.929 . S
C633 C627 1.390 . S
C633 C630 1.386 . S
C634 C629 1.490 . S
C634 C636 1.395 . S
C634 C637 1.403 1_455 S
H635 C641 0.931 1_556 S
C636 H622 0.930 . S
C636 C634 1.395 . S
C636 C639 1.403 . S
C637 C634 1.403 1_655 S
C637 C638 1.524 . S
C637 C641 1.401 . S
C638 H623 0.960 . S
C638 H624 0.960 . S
C638 H625 0.960 . S
C638 C637 1.524 . S
C639 C636 1.403 . S
C639 C640 1.392 1_554 S
C639 C643 1.495 . S
C640 C639 1.392 1_556 S
C640 C641 1.383 1_456 S
C640 C642 1.478 . S
C641 H635 0.931 1_554 S
C641 C637 1.401 . S
C641 C640 1.383 1_654 S
C642 C640 1.478 . S
C642 C644 1.381 . S
C642 C648 1.383 . S
C643 C639 1.495 . S
C643 H649 0.959 . S
C643 H650 0.961 1_554 S
C643 H651 0.960 1_554 S
C644 C642 1.381 . S
C644 C645 1.394 . S
C644 H652 0.930 1_455 S
C645 C644 1.394 . S
C645 C646 1.383 . S
C645 H653 0.925 1_455 S
C646 C645 1.383 . S
C646 C647 1.377 . S
C647 H631 0.930 . S
C647 C646 1.377 . S
C647 C648 1.379 . S
C648 H632 0.931 . S
C648 C642 1.383 . S
C648 C647 1.379 . S
H649 C643 0.959 . S
H650 C643 0.961 1_556 S
H651 C643 0.960 1_556 S
H652 C644 0.930 1_655 S
H653 C645 0.925 1_655 S
H654 C662 0.929 . S
H655 C664 0.930 . S
H656 C666 0.930 . S
H657 C669 0.929 . S
H658 C672 0.930 . S
H659 C674 0.960 . S
H660 C674 0.960 . S
H661 C674 0.960 . S
C662 H654 0.929 . S
C662 C663 1.377 . S
C662 C664 1.384 . S
C663 C662 1.377 . S
C663 C669 1.390 1_545 S
C664 H655 0.930 . S
C664 C662 1.384 . S
C664 C665 1.372 . S
C665 C664 1.372 . S
C665 C666 1.400 1_545 S
C665 C670 1.490 . S
C666 H656 0.930 . S
C666 C665 1.400 1_565 S
C666 C669 1.386 . S
H667 C683 0.900 1_565 S
H668 C684 0.931 1_565 S
C669 H657 0.929 . S
C669 C663 1.390 1_565 S
C669 C666 1.386 . S
C670 C665 1.490 . S
C670 C672 1.395 . S
C670 C673 1.403 1_545 S
H671 C677 0.930 . S
C672 H658 0.930 . S
C672 C670 1.395 . S
C672 C675 1.403 . S
C673 C670 1.403 1_565 S
C673 C674 1.524 . S
C673 C677 1.400 . S
C674 H659 0.960 . S
C674 H660 0.960 . S
C674 H661 0.960 . S
C674 C673 1.524 . S
C675 C672 1.403 . S
C675 C676 1.392 . S
C675 C679 1.495 . S
C676 C675 1.392 . S
C676 C677 1.385 1_545 S
C676 C678 1.478 . S
C677 H671 0.930 . S
C677 C673 1.400 . S
C677 C676 1.385 1_565 S
C678 C676 1.478 . S
C678 C680 1.381 . S
C678 C684 1.383 . S
C679 C675 1.495 . S
C679 H685 0.959 . S
C679 H686 0.961 . S
C679 H687 0.960 . S
C680 C678 1.381 . S
C680 C681 1.394 . S
C680 H688 0.930 . S
C681 C680 1.394 . S
C681 C682 1.383 . S
C681 H689 0.929 . S
C682 C681 1.383 . S
C682 C683 1.410 . S
C683 H667 0.900 1_545 S
C683 C682 1.410 . S
C683 C684 1.376 . S
C684 H668 0.931 1_545 S
C684 C678 1.383 . S
C684 C683 1.376 . S
H685 C679 0.959 . S
H686 C679 0.961 . S
H687 C679 0.960 . S
H688 C680 0.930 . S
H689 C681 0.929 . S
H690 C698 0.929 . S
H691 C700 0.930 . S
H692 C702 0.930 . S
H693 C705 0.929 . S
H694 C708 0.930 . S
H695 C710 0.960 . S
H696 C710 0.960 . S
H697 C710 0.960 . S
C698 H690 0.929 . S
C698 C699 1.377 . S
C698 C700 1.384 . S
C699 C698 1.377 . S
C699 C705 1.390 . S
C700 H691 0.930 . S
C700 C698 1.384 . S
C700 C701 1.372 . S
C701 C700 1.372 . S
C701 C702 1.400 . S
C701 C706 1.490 . S
C702 H692 0.930 . S
C702 C701 1.400 . S
C702 C705 1.386 . S
H703 C719 0.930 . S
H704 C720 0.931 . S
C705 H693 0.929 . S
C705 C699 1.390 . S
C705 C702 1.386 . S
C706 C701 1.490 . S
C706 C708 1.395 . S
C706 C709 1.403 . S
H707 C713 0.930 . S
C708 H694 0.930 . S
C708 C706 1.395 . S
C708 C711 1.403 . S
C709 C706 1.403 . S
C709 C710 1.524 . S
C709 C713 1.400 . S
C710 H695 0.960 . S
C710 H696 0.960 . S
C710 H697 0.960 . S
C710 C709 1.524 . S
C711 C708 1.403 . S
C711 C712 1.392 . S
C711 C715 1.495 . S
C712 C711 1.392 . S
C712 C713 1.385 . S
C712 C714 1.478 . S
C713 H707 0.930 . S
C713 C709 1.400 . S
C713 C712 1.385 . S
C714 C712 1.478 . S
C714 C716 1.381 . S
C714 C720 1.383 . S
C715 C711 1.495 . S
C715 H721 0.959 . S
C715 H722 0.961 . S
C715 H723 0.960 . S
C716 C714 1.381 . S
C716 C717 1.394 . S
C716 H724 0.930 . S
C717 C716 1.394 . S
C717 C718 1.383 . S
C717 H725 0.929 . S
C718 C717 1.383 . S
C718 C719 1.377 . S
C719 H703 0.930 . S
C719 C718 1.377 . S
C719 C720 1.379 . S
C720 H704 0.931 . S
C720 C714 1.383 . S
C720 C719 1.379 . S
H721 C715 0.959 . S
H722 C715 0.961 . S
H723 C715 0.960 . S
H724 C716 0.930 . S
H725 C717 0.929 . S
H726 C734 0.929 . S
H727 C736 0.930 . S
H728 C738 0.930 . S
H729 C741 0.929 . S
H730 C744 0.930 . S
H731 C746 0.960 . S
H732 C746 0.960 . S
H733 C746 0.960 . S
C734 H726 0.929 . S
C734 C735 1.377 . S
C734 C736 1.384 . S
C735 C734 1.377 . S
C735 C741 1.390 . S
C736 H727 0.930 . S
C736 C734 1.384 . S
C736 C737 1.372 . S
C737 C736 1.372 . S
C737 C738 1.400 . S
C737 C742 1.490 . S
C738 H728 0.930 . S
C738 C737 1.400 . S
C738 C741 1.386 . S
H739 C755 0.930 . S
H740 C756 0.931 . S
C741 H729 0.929 . S
C741 C735 1.390 . S
C741 C738 1.386 . S
C742 C737 1.490 . S
C742 C744 1.395 1_545 S
C742 C745 1.403 . S
H743 C749 0.930 . S
C744 H730 0.930 . S
C744 C742 1.395 1_565 S
C744 C747 1.403 . S
C745 C742 1.403 . S
C745 C746 1.524 . S
C745 C749 1.400 . S
C746 H731 0.960 . S
C746 H732 0.960 . S
C746 H733 0.960 . S
C746 C745 1.524 . S
C747 C744 1.403 . S
C747 C748 1.392 1_565 S
C747 C751 1.495 . S
C748 C747 1.392 1_545 S
C748 C749 1.385 . S
C748 C750 1.478 . S
C749 H743 0.930 . S
C749 C745 1.400 . S
C749 C748 1.385 . S
C750 C748 1.478 . S
C750 C752 1.381 . S
C750 C756 1.383 . S
C751 C747 1.495 . S
C751 H757 0.959 . S
C751 H758 0.961 . S
C751 H759 0.960 . S
C752 C750 1.381 . S
C752 C753 1.394 . S
C752 H760 0.930 . S
C753 C752 1.394 . S
C753 C754 1.383 . S
C753 H761 0.929 . S
C754 C753 1.383 . S
C754 C755 1.377 . S
C755 H739 0.930 . S
C755 C754 1.377 . S
C755 C756 1.379 . S
C756 H740 0.931 . S
C756 C750 1.383 . S
C756 C755 1.379 . S
H757 C751 0.959 . S
H758 C751 0.961 . S
H759 C751 0.960 . S
H760 C752 0.930 . S
H761 C753 0.929 . S
H762 C770 0.929 . S
H763 C772 0.930 . S
H764 C774 0.930 . S
H765 C777 0.929 . S
H766 C780 0.930 . S
H767 C782 0.960 . S
H768 C782 0.960 . S
H769 C782 0.960 . S
C770 H762 0.929 . S
C770 C771 1.377 . S
C770 C772 1.384 . S
C771 C770 1.377 . S
C771 C777 1.390 . S
C772 H763 0.930 . S
C772 C770 1.384 . S
C772 C773 1.372 . S
C773 C772 1.372 . S
C773 C774 1.400 . S
C773 C778 1.490 . S
C774 H764 0.930 . S
C774 C773 1.400 . S
C774 C777 1.386 . S
H775 C791 0.930 . S
H776 C792 0.931 . S
C777 H765 0.929 . S
C777 C771 1.390 . S
C777 C774 1.386 . S
C778 C773 1.490 . S
C778 C780 1.395 . S
C778 C781 1.403 . S
H779 C785 0.938 . S
C780 H766 0.930 . S
C780 C778 1.395 . S
C780 C783 1.403 . S
C781 C778 1.403 . S
C781 C782 1.524 . S
C781 C785 1.400 . S
C782 H767 0.960 . S
C782 H768 0.960 . S
C782 H769 0.960 . S
C782 C781 1.524 . S
C783 C780 1.403 . S
C783 C784 1.394 1_556 S
C783 C787 1.495 . S
C784 C783 1.394 1_554 S
C784 C785 1.387 1_554 S
C784 C786 1.474 . S
C785 H779 0.938 . S
C785 C781 1.400 . S
C785 C784 1.387 1_556 S
C786 C784 1.474 . S
C786 C788 1.381 . S
C786 C792 1.383 . S
C787 C783 1.495 . S
C787 H793 0.959 . S
C787 H794 0.961 1_556 S
C787 H795 0.960 1_556 S
C788 C786 1.381 . S
C788 C789 1.394 . S
C788 H796 0.930 . S
C789 C788 1.394 . S
C789 C790 1.383 . S
C789 H797 0.929 . S
C790 C789 1.383 . S
C790 C791 1.377 . S
C791 H775 0.930 . S
C791 C790 1.377 . S
C791 C792 1.379 . S
C792 H776 0.931 . S
C792 C786 1.383 . S
C792 C791 1.379 . S
H793 C787 0.959 . S
H794 C787 0.961 1_554 S
H795 C787 0.960 1_554 S
H796 C788 0.930 . S
H797 C789 0.929 . S
H798 C806 0.929 . S
H799 C808 0.930 . S
H800 C810 0.930 . S
H801 C813 0.929 . S
H802 C816 0.930 . S
H803 C818 0.960 . S
H804 C818 0.960 . S
H805 C818 0.960 . S
C806 H798 0.929 . S
C806 C807 1.366 1_455 S
C806 C808 1.384 . S
C807 C806 1.366 1_655 S
C807 C813 1.400 . S
C808 H799 0.930 . S
C808 C806 1.384 . S
C808 C809 1.372 . S
C809 C808 1.372 . S
C809 C810 1.400 1_455 S
C809 C814 1.490 . S
C810 H800 0.930 . S
C810 C809 1.400 1_655 S
C810 C813 1.386 . S
H811 C827 0.930 . S
H812 C828 0.931 . S
C813 H801 0.929 . S
C813 C807 1.400 . S
C813 C810 1.386 . S
C814 C809 1.490 . S
C814 C816 1.395 . S
C814 C817 1.403 1_455 S
H815 C821 0.930 . S
C816 H802 0.930 . S
C816 C814 1.395 . S
C816 C819 1.403 . S
C817 C814 1.403 1_655 S
C817 C818 1.524 . S
C817 C821 1.400 . S
C818 H803 0.960 . S
C818 H804 0.960 . S
C818 H805 0.960 . S
C818 C817 1.524 . S
C819 C816 1.403 . S
C819 C820 1.392 . S
C819 C823 1.495 . S
C820 C819 1.392 . S
C820 C821 1.385 1_455 S
C820 C822 1.478 . S
C821 H815 0.930 . S
C821 C817 1.400 . S
C821 C820 1.385 1_655 S
C822 C820 1.478 . S
C822 C824 1.381 . S
C822 C828 1.383 1_455 S
C823 C819 1.495 . S
C823 H829 0.959 . S
C823 H830 0.961 . S
C823 H831 0.960 . S
C824 C822 1.381 . S
C824 C825 1.394 . S
C824 H832 0.930 . S
C825 C824 1.394 . S
C825 C826 1.383 . S
C825 H833 0.929 . S
C826 C825 1.383 . S
C826 C827 1.377 1_455 S
C827 H811 0.930 . S
C827 C826 1.377 1_655 S
C827 C828 1.379 . S
C828 H812 0.931 . S
C828 C822 1.383 1_655 S
C828 C827 1.379 . S
H829 C823 0.959 . S
H830 C823 0.961 . S
H831 C823 0.960 . S
H832 C824 0.930 . S
H833 C825 0.929 . S
C195 C12 3.123 . S
C214 C180 2.774 . S
C231 C52 3.126 . S
C250 C158 2.782 . S
C267 C111 2.792 . S
C286 C172 2.735 . S
C303 C31 2.932 . S
C322 C183 2.858 . S
C358 C161 2.864 . S
C339 C71 2.931 . S
C394 C169 2.895 . S
C375 C92 3.244 . S
C411 C48 0.521 . S
C430 C136 0.610 . S
C447 C109 0.474 . S
C466 C147 0.696 . S
C483 C29 0.472 . S
C502 C125 0.759 . S
C538 C139 0.367 . S
C519 C69 0.264 . S
C574 C150 0.223 . S
C555 C88 0.137 . S
C591 C8 0.138 . S
C610 C128 0.219 . S
C646 C149 1.224 . S
C627 C17 1.234 1_455 S
C663 C57 1.243 . S
C682 C127 1.179 . S
C699 C97 1.259 . S
C718 C138 1.185 . S
C754 C171 1.644 . S
C735 C42 1.650 . S
C790 C182 1.650 . S
C771 C82 1.695 . S
C807 C2 1.697 1_655 S
C826 C160 1.625 . S
