# Generated by pormake.
# Topology zzz, (3,6)-cn, num edge types: 1
# Building blocks:
#     Node 0, Type 0, BuildingBlock: OLANEW_clean_sbu_2, # of connection points: 3
#     Node 1, Type 0, BuildingBlock: OLANEW_clean_sbu_2, # of connection points: 3
#     Node 2, Type 0, BuildingBlock: OLANEW_clean_sbu_2, # of connection points: 3
#     Node 3, Type 0, BuildingBlock: OLANEW_clean_sbu_2, # of connection points: 3
#     Node 4, Type 0, BuildingBlock: OLANEW_clean_sbu_2, # of connection points: 3
#     Node 5, Type 0, BuildingBlock: OLANEW_clean_sbu_2, # of connection points: 3
#     Node 6, Type 0, BuildingBlock: OLANEW_clean_sbu_2, # of connection points: 3
#     Node 7, Type 0, BuildingBlock: OLANEW_clean_sbu_2, # of connection points: 3
#     Node 8, Type 1, BuildingBlock: CUKXOW_clean_sbu_0, # of connection points: 6
#     Node 9, Type 1, BuildingBlock: CUKXOW_clean_sbu_0, # of connection points: 6
#     Node 10, Type 1, BuildingBlock: CUKXOW_clean_sbu_0, # of connection points: 6
#     Node 11, Type 1, BuildingBlock: CUKXOW_clean_sbu_0, # of connection points: 6
#     Edge 12, Type (0, 1), BuildingBlock: TEMPAE_clean_linker_10, # of connection points: 2
#     Edge 13, Type (0, 1), BuildingBlock: TEMPAE_clean_linker_10, # of connection points: 2
#     Edge 14, Type (0, 1), BuildingBlock: TEMPAE_clean_linker_10, # of connection points: 2
#     Edge 15, Type (0, 1), BuildingBlock: TEMPAE_clean_linker_10, # of connection points: 2
#     Edge 16, Type (0, 1), BuildingBlock: TEMPAE_clean_linker_10, # of connection points: 2
#     Edge 17, Type (0, 1), BuildingBlock: TEMPAE_clean_linker_10, # of connection points: 2
#     Edge 18, Type (0, 1), BuildingBlock: TEMPAE_clean_linker_10, # of connection points: 2
#     Edge 19, Type (0, 1), BuildingBlock: TEMPAE_clean_linker_10, # of connection points: 2
#     Edge 20, Type (0, 1), BuildingBlock: TEMPAE_clean_linker_10, # of connection points: 2
#     Edge 21, Type (0, 1), BuildingBlock: TEMPAE_clean_linker_10, # of connection points: 2
#     Edge 22, Type (0, 1), BuildingBlock: TEMPAE_clean_linker_10, # of connection points: 2
#     Edge 23, Type (0, 1), BuildingBlock: TEMPAE_clean_linker_10, # of connection points: 2
#     Edge 24, Type (0, 1), BuildingBlock: TEMPAE_clean_linker_10, # of connection points: 2
#     Edge 25, Type (0, 1), BuildingBlock: TEMPAE_clean_linker_10, # of connection points: 2
#     Edge 26, Type (0, 1), BuildingBlock: TEMPAE_clean_linker_10, # of connection points: 2
#     Edge 27, Type (0, 1), BuildingBlock: TEMPAE_clean_linker_10, # of connection points: 2
#     Edge 28, Type (0, 1), BuildingBlock: TEMPAE_clean_linker_10, # of connection points: 2
#     Edge 29, Type (0, 1), BuildingBlock: TEMPAE_clean_linker_10, # of connection points: 2
#     Edge 30, Type (0, 1), BuildingBlock: TEMPAE_clean_linker_10, # of connection points: 2
#     Edge 31, Type (0, 1), BuildingBlock: TEMPAE_clean_linker_10, # of connection points: 2
#     Edge 32, Type (0, 1), BuildingBlock: TEMPAE_clean_linker_10, # of connection points: 2
#     Edge 33, Type (0, 1), BuildingBlock: TEMPAE_clean_linker_10, # of connection points: 2
#     Edge 34, Type (0, 1), BuildingBlock: TEMPAE_clean_linker_10, # of connection points: 2
#     Edge 35, Type (0, 1), BuildingBlock: TEMPAE_clean_linker_10, # of connection points: 2
# Relax obj value: 0.076
# Max RMSD: 0.134
# Mean RMSD: 0.094
data_MOF--net-zzz--node1-OLANEW_clean_sbu_2--node2-CUKXOW_clean_sbu_0--edge1-TEMPAE_clean_linker_10
_symmetry_space_group_name_H-M    P1
_symmetry_Int_Tables_number       1
_symmetry_cell_setting            triclinic
loop_
_symmetry_equiv_pos_as_xyz
'x, y, z'
_cell_length_a     54.640074
_cell_length_b     55.303668
_cell_length_c     17.760382
_cell_angle_alpha  92.709659
_cell_angle_beta   87.120816
_cell_angle_gamma 94.655593
loop_
_atom_site_label
_atom_site_type_symbol
_atom_site_fract_x
_atom_site_fract_y
_atom_site_fract_z
_atom_type_partial_charge
O0 O 0.79212 0.56187 0.90958 0.0
Cd1 Cd 0.75522 0.58256 0.94286 0.0
O2 O 0.78393 0.53756 0.00273 0.0
Cd3 Cd 0.78925 0.51004 0.08385 0.0
O4 O 0.80847 0.49958 0.18052 0.0
C5 C 0.81357 0.51673 0.22873 0.0
O6 O 0.80604 0.53824 0.21819 0.0
C7 C 0.79829 0.54477 0.94808 0.0
C8 C 0.71188 0.55446 0.91476 0.0
O9 O 0.72404 0.56599 0.86226 0.0
O10 O 0.72044 0.55588 0.98086 0.0
O11 O 0.92749 0.79781 0.8157 0.0
Cd12 Cd 0.90476 0.758 0.81468 0.0
O13 O 0.94619 0.78879 0.91587 0.0
Cd14 Cd 0.96743 0.80033 0.01339 0.0
O15 O 0.97499 0.82145 0.11716 0.0
C16 C 0.96924 0.84327 0.11895 0.0
O17 O 0.96011 0.85143 0.05885 0.0
C18 C 0.9426 0.80387 0.86657 0.0
C19 C 0.93388 0.71942 0.82822 0.0
O20 O 0.93052 0.72779 0.76375 0.0
O21 O 0.92382 0.72965 0.88683 0.0
O22 O 0.70082 0.94869 0.85955 0.0
Cd23 Cd 0.73489 0.92465 0.88163 0.0
O24 O 0.7004 0.96024 0.97907 0.0
Cd25 Cd 0.68723 0.97869 0.08293 0.0
O26 O 0.6645 0.98667 0.18382 0.0
C27 C 0.64766 0.97042 0.20137 0.0
O28 O 0.64538 0.95032 0.15892 0.0
C29 C 0.69117 0.96054 0.91474 0.0
C30 C 0.77984 0.95209 0.87956 0.0
O31 O 0.77085 0.94261 0.81869 0.0
O32 O 0.76739 0.94877 0.94185 0.0
O33 O 0.59254 0.71049 0.91199 0.0
Cd34 Cd 0.61548 0.74896 0.94713 0.0
O35 O 0.58088 0.70913 0.03099 0.0
Cd36 Cd 0.56511 0.69911 0.14248 0.0
O37 O 0.56454 0.72331 0.25085 0.0
C38 C 0.56556 0.71881 0.32081 0.0
O39 O 0.5645 0.724 0.2504 0.0
C40 C 0.58043 0.69939 0.96465 0.0
C41 C 0.5906 0.79013 0.92582 0.0
O42 O 0.60572 0.78217 0.87479 0.0
O43 O 0.587 0.77844 0.98652 0.0
O44 O 0.21202 0.51493 0.42074 0.0
Cd45 Cd 0.24584 0.50329 0.33526 0.0
O46 O 0.20855 0.47869 0.4676 0.0
Cd47 Cd 0.22423 0.46429 0.36107 0.0
O48 O 0.20494 0.46736 0.25727 0.0
C49 C 0.18304 0.47307 0.27146 0.0
O50 O 0.17494 0.47491 0.34222 0.0
C51 C 0.20274 0.50056 0.47035 0.0
C52 C 0.28828 0.50405 0.41536 0.0
O53 O 0.28523 0.52108 0.3711 0.0
O54 O 0.27155 0.48655 0.42089 0.0
O55 O 0.04709 0.21993 0.48782 0.0
Cd56 Cd 0.06084 0.25286 0.4052 0.0
O57 O 0.08326 0.20566 0.49413 0.0
Cd58 Cd 0.09668 0.22581 0.39581 0.0
O59 O 0.08876 0.20816 0.28612 0.0
C60 C 0.06642 0.20016 0.28059 0.0
O61 O 0.05048 0.20572 0.33516 0.0
C62 C 0.06058 0.20504 0.51443 0.0
C63 C 0.05185 0.29739 0.47558 0.0
O64 O 0.03469 0.28401 0.44409 0.0
O65 O 0.07347 0.28987 0.47328 0.0
O66 O 0.29827 0.02949 0.43854 0.0
Cd67 Cd 0.26567 0.03387 0.35262 0.0
O68 O 0.30537 0.06823 0.46936 0.0
Cd69 Cd 0.28981 0.07506 0.36274 0.0
O70 O 0.31236 0.06606 0.26169 0.0
C71 C 0.33504 0.06623 0.27499 0.0
O72 O 0.34197 0.0727 0.34331 0.0
C73 C 0.30894 0.04623 0.47951 0.0
C74 C 0.22067 0.02945 0.43362 0.0
O75 O 0.23141 0.01067 0.40931 0.0
O76 O 0.23096 0.05043 0.41854 0.0
O77 O 0.4273 0.30217 0.43006 0.0
Cd78 Cd 0.41146 0.26463 0.36442 0.0
O79 O 0.39412 0.32051 0.41047 0.0
Cd80 Cd 0.38209 0.29392 0.32277 0.0
O81 O 0.39253 0.30617 0.20992 0.0
C82 C 0.41496 0.3142 0.20304 0.0
O83 O 0.42933 0.3114 0.25861 0.0
C84 C 0.41483 0.3206 0.44018 0.0
C85 C 0.42428 0.22302 0.43122 0.0
O86 O 0.43806 0.23299 0.37894 0.0
O87 O 0.40443 0.2328 0.45217 0.0
Tb88 Tb -0.00222 0.99325 0.67804 0.0
C89 C 0.054 0.00889 0.70158 0.0
Tb90 Tb 0.01284 0.02236 0.82275 0.0
O91 O 0.98434 0.02499 0.62876 0.0
O92 O 0.01106 0.02932 0.70693 0.0
O93 O 0.03773 0.99294 0.66982 0.0
C94 C 0.02061 0.05894 0.9243 0.0
O95 O 0.04771 0.02458 0.75684 0.0
C96 C 0.01461 0.97494 0.82618 0.0
C97 C 0.95722 0.003 0.80518 0.0
O98 O 0.02849 0.03753 0.92801 0.0
O99 O 0.00809 0.05946 0.86456 0.0
O100 O 0.02648 0.99029 0.8716 0.0
O101 O 8e-05 0.98647 0.79232 0.0
O102 O 0.97243 0.02003 0.83715 0.0
O103 O 0.96479 0.98756 0.751 0.0
C104 C 0.99146 0.95895 0.56851 0.0
O105 O 0.97439 0.97174 0.59886 0.0
O106 O 0.01206 0.96558 0.59933 0.0
C107 C -0.00373 0.04062 0.67287 0.0
Tb108 Tb 0.49354 0.03566 0.72547 0.0
C109 C 0.52465 0.99937 0.63134 0.0
Tb110 Tb 0.49493 0.98352 0.78464 0.0
O111 O 0.53235 0.04522 0.74747 0.0
O112 O 0.51173 0.01858 0.80832 0.0
O113 O 0.51277 0.01928 0.62921 0.0
C114 C 0.50811 0.94181 0.83384 0.0
O115 O 0.52183 0.98435 0.68809 0.0
C116 C 0.45586 0.99198 0.7148 0.0
C117 C 0.46352 0.02054 0.87745 0.0
O118 O 0.49677 0.94416 0.77241 0.0
O119 O 0.5117 0.96294 0.86841 0.0
O120 O 0.45563 0.97607 0.76643 0.0
O121 O 0.47758 1.00035 0.70068 0.0
O122 O 0.47506 1.00033 0.88007 0.0
O123 O 0.46667 0.03541 0.82053 0.0
C124 C 0.47772 0.07485 0.66754 0.0
O125 O 0.4915 0.07509 0.72519 0.0
O126 O 0.47313 0.05265 0.64239 0.0
C127 C 0.53318 0.02816 0.79508 0.0
Tb128 Tb 0.49959 0.52833 0.67207 0.0
C129 C 0.44431 0.51065 0.69227 0.0
Tb130 Tb 0.48416 0.4908 0.79434 0.0
O131 O 0.49046 0.50166 0.58002 0.0
O132 O 0.50012 0.49042 0.68378 0.0
O133 O 0.46003 0.52893 0.67147 0.0
C134 C 0.46879 0.45155 0.8704 0.0
O135 O 0.45049 0.49268 0.73294 0.0
C136 C 0.49194 0.53593 0.84516 0.0
C137 C 0.53923 0.51067 0.77747 0.0
O138 O 0.45943 0.47242 0.87815 0.0
O139 O 0.48697 0.45282 0.82048 0.0
O140 O 0.49389 0.51726 0.88555 0.0
O141 O 0.48333 0.52859 0.78289 0.0
O142 O 0.52407 0.49183 0.79769 0.0
O143 O 0.53252 0.52816 0.73609 0.0
C144 C 0.51607 0.56663 0.59273 0.0
O145 O 0.52528 0.54568 0.58849 0.0
O146 O 0.49768 0.56606 0.64206 0.0
C147 C 0.49174 0.48309 0.62122 0.0
Tb148 Tb 0.98279 0.50588 0.6866 0.0
C149 C 0.00977 0.45953 0.70307 0.0
Tb150 Tb 0.01857 0.50592 0.81569 0.0
O151 O 0.01313 0.5033 0.60217 0.0
O152 O 0.01904 0.52033 0.70775 0.0
O153 O 0.98965 0.46794 0.67912 0.0
C154 C 0.05626 0.50039 0.90145 0.0
O155 O 0.02485 0.47229 0.74923 0.0
C156 C 0.97185 0.49948 0.85544 0.0
C157 C 0.99245 0.55322 0.79403 0.0
O158 O 0.03593 0.48659 0.90036 0.0
O159 O 0.05527 0.51773 0.85513 0.0
O160 O 0.98841 0.50933 0.89975 0.0
O161 O 0.98232 0.49181 0.79519 0.0
O162 O 0.01197 0.54444 0.82168 0.0
O163 O 0.97775 0.5405 0.7467 0.0
C164 C 0.94431 0.50729 0.6009 0.0
O165 O 0.94388 0.49676 0.66482 0.0
O166 O 0.96626 0.51712 0.58585 0.0
C167 C 0.02952 0.51317 0.64702 0.0
C168 C 0.19117 0.00633 0.52057 0.0
C169 C 0.19711 0.02689 0.47808 0.0
C170 C 0.16876 0.00345 0.56252 0.0
C171 C 0.15161 0.02122 0.56002 0.0
C172 C 0.15758 0.04209 0.51746 0.0
C173 C 0.18045 0.04484 0.47781 0.0
C174 C 0.1633 0.98126 0.60875 0.0
C175 C 0.13952 0.06114 0.51193 0.0
C176 C 0.08426 1.00086 0.59537 0.0
C177 C 0.07938 0.01091 0.66807 0.0
C178 C 0.10769 0.00408 0.55977 0.0
C179 C 0.12687 0.01729 0.5983 0.0
C180 C 0.12228 0.02695 0.67249 0.0
C181 C 0.09849 0.02385 0.70627 0.0
C182 C 0.11173 0.99383 0.48014 0.0
C183 C 0.14244 0.0407 0.71585 0.0
H184 H 0.20418 0.99256 0.52155 0.0
H185 H 0.18499 0.06071 0.44475 0.0
H186 H 0.15786 0.98673 0.66776 0.0
H187 H 0.14762 0.96977 0.58555 0.0
H188 H 0.17932 0.97013 0.60934 0.0
H189 H 0.14718 0.07653 0.47774 0.0
H190 H 0.12261 0.05285 0.48588 0.0
H191 H 0.134 0.06836 0.56905 0.0
H192 H 0.06957 0.99101 0.56509 0.0
H193 H 0.09485 0.03159 0.76254 0.0
H194 H 0.12641 0.98106 0.47797 0.0
H195 H 0.11795 0.00871 0.44218 0.0
H196 H 0.09482 0.98408 0.45798 0.0
H197 H 0.15829 0.02947 0.71826 0.0
H198 H 0.13617 0.04596 0.77438 0.0
H199 H 0.14913 0.0574 0.68647 0.0
C200 C 0.45267 0.19014 0.44142 0.0
C201 C 0.43113 0.20087 0.46628 0.0
C202 C 0.45956 0.16929 0.47434 0.0
C203 C 0.44459 0.15892 0.53371 0.0
C204 C 0.42272 0.16952 0.55874 0.0
C205 C 0.41625 0.19037 0.52471 0.0
C206 C 0.48294 0.15843 0.44582 0.0
C207 C 0.4063 0.15896 0.62191 0.0
C208 C 0.45302 0.09339 0.57468 0.0
C209 C 0.46864 0.0963 0.63519 0.0
C210 C 0.44464 0.1136 0.5419 0.0
C211 C 0.45214 0.13725 0.57039 0.0
C212 C 0.46759 0.14023 0.63243 0.0
C213 C 0.47566 0.11967 0.66416 0.0
C214 C 0.42803 0.10964 0.47626 0.0
C215 C 0.47589 0.16514 0.66458 0.0
H216 H 0.46424 0.19807 0.39619 0.0
H217 H 0.39956 0.19852 0.5442 0.0
H218 H 0.49581 0.15854 0.49223 0.0
H219 H 0.47882 0.13921 0.42656 0.0
H220 H 0.49232 0.16844 0.39836 0.0
H221 H 0.38966 0.16905 0.63368 0.0
H222 H 0.40042 0.13969 0.6076 0.0
H223 H 0.41663 0.1593 0.67422 0.0
H224 H 0.44745 0.07527 0.55259 0.0
H225 H 0.48767 0.12191 0.71119 0.0
H226 H 0.43684 0.11858 0.42605 0.0
H227 H 0.41051 0.11805 0.49003 0.0
H228 H 0.42376 0.09007 0.46129 0.0
H229 H 0.48689 0.17552 0.62092 0.0
H230 H 0.4872 0.16431 0.71453 0.0
H231 H 0.45971 0.1754 0.68127 0.0
C232 C 0.33359 0.51019 0.42565 0.0
C233 C 0.3103 0.50473 0.45981 0.0
C234 C 0.35477 0.51035 0.46721 0.0
C235 C 0.35239 0.50609 0.54538 0.0
C236 C 0.32879 0.50104 0.58031 0.0
C237 C 0.308 0.4999 0.53661 0.0
C238 C 0.37969 0.51464 0.42727 0.0
C239 C 0.32554 0.49679 0.66368 0.0
C240 C 0.40832 0.48674 0.63835 0.0
C241 C 0.4195 0.50921 0.66299 0.0
C242 C 0.38611 0.48532 0.60147 0.0
C243 C 0.37468 0.50689 0.59032 0.0
C244 C 0.38528 0.52948 0.61891 0.0
C245 C 0.40783 0.53042 0.65373 0.0
C246 C 0.37594 0.46082 0.57079 0.0
C247 C 0.37305 0.55272 0.61137 0.0
H248 H 0.33524 0.51369 0.36597 0.0
H249 H 0.28988 0.49579 0.5628 0.0
H250 H 0.38953 0.53137 0.45116 0.0
H251 H 0.39099 0.49931 0.43622 0.0
H252 H 0.37838 0.51651 0.36562 0.0
H253 H 0.30586 0.49445 0.68296 0.0
H254 H 0.33453 0.4803 0.67671 0.0
H255 H 0.33458 0.51231 0.69644 0.0
H256 H 0.41754 0.47034 0.64451 0.0
H257 H 0.41646 0.54778 0.67332 0.0
H258 H 0.38381 0.45777 0.5126 0.0
H259 H 0.35565 0.45947 0.56832 0.0
H260 H 0.38113 0.44606 0.60563 0.0
H261 H 0.37338 0.55724 0.55114 0.0
H262 H 0.38229 0.56827 0.64361 0.0
H263 H 0.35349 0.55039 0.63167 0.0
C264 C 0.06483 0.34028 0.51432 0.0
C265 C 0.04674 0.32083 0.51349 0.0
C266 C 0.05967 0.36303 0.54698 0.0
C267 C 0.03614 0.36603 0.5817 0.0
C268 C 0.01812 0.34615 0.58329 0.0
C269 C 0.02351 0.32388 0.54797 0.0
C270 C 0.07908 0.38403 0.54218 0.0
C271 C 0.99305 0.34847 0.6216 0.0
C272 C 0.02856 0.42044 0.71727 0.0
C273 C 0.01653 0.43561 0.67292 0.0
C274 C 0.03493 0.39758 0.68856 0.0
C275 C 0.02987 0.39024 0.61307 0.0
C276 C 0.01828 0.40584 0.5676 0.0
C277 C 0.0114 0.4282 0.59852 0.0
C278 C 0.04668 0.38115 0.73927 0.0
C279 C 0.01323 0.39898 0.48618 0.0
H280 H 0.08275 0.33793 0.48721 0.0
H281 H 0.00961 0.30873 0.54798 0.0
H282 H 0.0723 0.39863 0.50992 0.0
H283 H 0.08292 0.39185 0.59942 0.0
H284 H 0.09657 0.37857 0.5143 0.0
H285 H 0.98186 0.33079 0.62305 0.0
H286 H -0.00503 0.35591 0.68033 0.0
H287 H 0.98293 0.36135 0.59148 0.0
H288 H 0.03248 0.42623 0.77489 0.0
H289 H 0.00246 0.44015 0.56385 0.0
H290 H 0.06488 0.37668 0.71452 0.0
H291 H 0.03512 0.36379 0.74405 0.0
H292 H 0.04915 0.38949 0.79679 0.0
H293 H 0.03049 0.39452 0.45489 0.0
H294 H 0.00531 0.41375 0.45744 0.0
H295 H 0.00022 0.38254 0.48295 0.0
C296 C 0.81667 0.97071 0.8088 0.0
C297 C 0.80452 0.96526 0.87803 0.0
C298 C 0.84115 0.98047 0.80542 0.0
C299 C 0.85387 0.9847 0.87291 0.0
C300 C 0.84128 0.98063 0.94332 0.0
C301 C 0.81667 0.971 0.94508 0.0
C302 C 0.85385 0.98482 0.72917 0.0
C303 C 0.85421 0.98492 0.01644 0.0
C304 C 0.92122 0.97517 0.84025 0.0
C305 C 0.93167 0.99901 0.83468 0.0
C306 C 0.89611 0.97041 0.85773 0.0
C307 C 0.88098 0.99 0.86827 0.0
C308 C 0.89165 0.01422 0.86651 0.0
C309 C 0.91707 0.01847 0.85034 0.0
C310 C 0.8856 0.94433 0.8607 0.0
C311 C 0.87607 0.03554 0.87696 0.0
H312 H 0.80729 0.96663 0.7568 0.0
H313 H 0.80734 0.96697 -0.00113 0.0
H314 H 0.86391 0.00306 0.72908 0.0
H315 H 0.86754 0.97123 0.71679 0.0
H316 H 0.84071 0.98338 0.68311 0.0
H317 H 0.84108 0.98451 0.06628 0.0
H318 H 0.86706 0.9706 0.02154 0.0
H319 H 0.86527 0.00265 0.01737 0.0
H320 H 0.93266 0.96014 0.82908 0.0
H321 H 0.92524 0.0369 0.84568 0.0
H322 H 0.8739 0.93979 0.81193 0.0
H323 H 0.87383 0.94165 0.91282 0.0
H324 H 0.90018 0.93142 0.85904 0.0
H325 H 0.86508 0.03654 0.8265 0.0
H326 H 0.88741 0.053 0.88475 0.0
H327 H 0.86296 0.03325 0.92632 0.0
C328 C 0.58568 0.82773 0.85676 0.0
C329 C 0.57792 0.81235 0.91535 0.0
C330 C 0.57409 0.84903 0.84679 0.0
C331 C 0.554 0.8549 0.89588 0.0
C332 C 0.54602 0.8394 0.95498 0.0
C333 C 0.55818 0.8184 0.96434 0.0
C334 C 0.58335 0.86526 0.78369 0.0
C335 C 0.52447 0.8449 0.00783 0.0
C336 C 0.5368 0.92029 0.90696 0.0
C337 C 0.51826 0.91933 0.85498 0.0
C338 C 0.54855 0.89943 0.92126 0.0
C339 C 0.54104 0.87699 0.88419 0.0
C340 C 0.52164 0.87581 0.83385 0.0
C341 C 0.51067 0.89708 0.81917 0.0
C342 C 0.56953 0.90158 0.97394 0.0
C343 C 0.51281 0.85218 0.79424 0.0
H344 H 0.60102 0.82327 0.81898 0.0
H345 H 0.55205 0.80657 0.00965 0.0
H346 H 0.56867 0.86639 0.74335 0.0
H347 H 0.58816 0.88395 0.8067 0.0
H348 H 0.59976 0.85861 0.7523 0.0
H349 H 0.52054 0.83101 0.05092 0.0
H350 H 0.52813 0.86289 0.03716 0.0
H351 H 0.5078 0.84581 0.97519 0.0
H352 H 0.54278 0.93756 0.93427 0.0
H353 H 0.49629 0.89635 0.77904 0.0
H354 H 0.58668 0.89685 0.94251 0.0
H355 H 0.56589 0.88856 0.01958 0.0
H356 H 0.57265 0.92019 -0.00014 0.0
H357 H 0.52774 0.8456 0.75591 0.0
H358 H 0.49651 0.85406 0.7606 0.0
H359 H 0.50798 0.83808 0.83607 0.0
C360 C 0.67042 0.53688 0.95976 0.0
C361 C 0.68778 0.54143 0.90023 0.0
C362 C 0.64616 0.52821 0.94542 0.0
C363 C 0.63933 0.52368 0.86989 0.0
C364 C 0.65733 0.52638 0.81008 0.0
C365 C 0.6813 0.53544 0.82594 0.0
C366 C 0.62746 0.52569 0.01067 0.0
C367 C 0.65087 0.52138 0.72883 0.0
C368 C 0.5767 0.49329 0.82192 0.0
C369 C 0.5643 0.51348 0.80544 0.0
C370 C 0.60109 0.49622 0.8447 0.0
C371 C 0.61298 0.51988 0.85232 0.0
C372 C 0.60009 0.54031 0.83876 0.0
C373 C 0.57602 0.53684 0.81488 0.0
C374 C 0.61437 0.47405 0.85812 0.0
C375 C 0.6119 0.56589 0.84793 0.0
H376 H 0.67537 0.54143 0.01735 0.0
H377 H 0.69477 0.53861 0.77981 0.0
H378 H 0.61524 0.54078 0.01122 0.0
H379 H 0.61572 0.50846 0.00449 0.0
H380 H 0.63629 0.52625 0.06579 0.0
H381 H 0.66749 0.52103 0.69021 0.0
H382 H 0.63978 0.50377 0.72223 0.0
H383 H 0.63958 0.53575 0.71128 0.0
H384 H 0.56762 0.47522 0.81479 0.0
H385 H 0.56634 0.55254 0.80357 0.0
H386 H 0.62288 0.47591 0.91371 0.0
H387 H 0.62945 0.47228 0.81448 0.0
H388 H 0.60194 0.45713 0.85611 0.0
H389 H 0.61848 0.56921 0.90588 0.0
H390 H 0.59907 0.57979 0.83742 0.0
H391 H 0.62812 0.56836 0.80807 0.0
C392 C 0.95894 0.68712 0.7692 0.0
C393 C 0.94758 0.69758 0.83394 0.0
C394 C 0.96918 0.66474 0.77124 0.0
C395 C 0.96799 0.65246 0.83967 0.0
C396 C 0.95793 0.66361 0.90629 0.0
C397 C 0.94784 0.68609 0.90267 0.0
C398 C 0.97984 0.65351 0.69895 0.0
C399 C 0.95644 0.65115 0.98038 0.0
C400 C 0.96198 0.58423 0.80876 0.0
C401 C 0.98621 0.57823 0.81529 0.0
C402 C 0.95566 0.60815 0.82036 0.0
C403 C 0.97408 0.6267 0.83845 0.0
C404 C -0.00164 0.62065 0.84889 0.0
C405 C 0.00416 0.59636 0.83746 0.0
C406 C 0.92943 0.61367 0.80988 0.0
C407 C 0.01842 0.63995 0.86866 0.0
H408 H 0.95905 0.69599 0.71603 0.0
H409 H 0.93925 0.69412 0.95311 0.0
H410 H -0.00191 0.64701 0.70809 0.0
H411 H 0.96763 0.63753 0.68054 0.0
H412 H 0.98187 0.66647 0.6527 0.0
H413 H 0.9516 0.66364 0.0287 0.0
H414 H 0.94221 0.63567 0.97832 0.0
H415 H 0.97417 0.6437 0.99062 0.0
H416 H 0.94789 0.57021 0.79304 0.0
H417 H 0.02289 0.59178 0.84276 0.0
H418 H 0.9288 0.62534 0.761 0.0
H419 H 0.92217 0.62381 0.8604 0.0
H420 H 0.9171 0.59696 0.79993 0.0
H421 H 0.02297 0.65145 0.81958 0.0
H422 H 0.03542 0.63201 0.88415 0.0
H423 H 0.01212 0.65199 0.91623 0.0
C424 C 0.02362 0.17833 0.5535 0.0
C425 C 0.04903 0.18433 0.55672 0.0
C426 C 0.01295 0.15602 0.57826 0.0
C427 C 0.02797 0.13954 0.60831 0.0
C428 C 0.05323 0.14632 0.61743 0.0
C429 C 0.06354 0.16857 0.59082 0.0
C430 C 0.98593 0.14945 0.56781 0.0
C431 C 0.06962 0.1295 0.65165 0.0
C432 C -0.00117 0.08469 0.70976 0.0
C433 C 0.00168 0.06616 0.65449 0.0
C434 C 0.00687 0.10886 0.69538 0.0
C435 C 0.0178 0.11444 0.6237 0.0
C436 C 0.01955 0.09583 0.56647 0.0
C437 C 0.01152 0.07184 0.58272 0.0
C438 C 0.00453 0.12811 0.75789 0.0
C439 C 0.03053 0.10115 0.48867 0.0
H440 H 0.01224 0.19037 0.52721 0.0
H441 H 0.08314 0.17318 0.59404 0.0
H442 H 0.98371 0.13437 0.52459 0.0
H443 H 0.97675 0.14298 0.6211 0.0
H444 H 0.9764 0.16502 0.5495 0.0
H445 H 0.08821 0.1384 0.66164 0.0
H446 H 0.0612 0.12309 0.70604 0.0
H447 H 0.07163 0.11327 0.61335 0.0
H448 H 0.99034 0.08033 0.76422 0.0
H449 H 0.01363 0.05738 0.54003 0.0
H450 H -0.0004 0.14546 0.73615 0.0
H451 H 0.0225 0.13168 0.78445 0.0
H452 H 0.99048 0.12226 0.8021 0.0
H453 H 0.02105 0.11578 0.46442 0.0
H454 H 0.02921 0.0849 0.4494 0.0
H455 H 0.05019 0.10769 0.49242 0.0
C456 C 0.33224 0.01564 0.53771 0.0
C457 C 0.32779 0.04005 0.53086 0.0
C458 C 0.35256 0.00929 0.57511 0.0
C459 C 0.36868 0.02777 0.6075 0.0
C460 C 0.36352 0.05239 0.60499 0.0
C461 C 0.34313 0.05827 0.56631 0.0
C462 C 0.35754 0.98282 0.576 0.0
C463 C 0.38017 0.07257 0.63979 0.0
C464 C 0.4132 0.00401 0.73752 0.0
C465 C 0.43401 1.00225 0.68894 0.0
C466 C 0.39219 0.01379 0.71333 0.0
C467 C 0.39188 0.02116 0.63814 0.0
C468 C 0.41315 0.01987 0.5895 0.0
C469 C 0.43408 0.01058 0.61587 0.0
C470 C 0.37019 0.0157 0.76759 0.0
C471 C 0.41347 0.02725 0.50863 0.0
H472 H 0.32043 1.00142 0.5109 0.0
H473 H 0.33982 0.07718 0.56137 0.0
H474 H 0.37501 0.97983 0.5435 0.0
H475 H 0.35974 0.97756 0.63462 0.0
H476 H 0.34261 0.97062 0.55117 0.0
H477 H 0.37169 0.0902 0.64306 0.0
H478 H 0.38482 0.06808 0.69735 0.0
H479 H 0.39764 0.07475 0.60534 0.0
H480 H 0.41343 0.99791 0.79461 0.0
H481 H 0.4503 0.00917 0.57864 0.0
H482 H 0.35518 1.00215 0.75043 0.0
H483 H 0.36316 0.03393 0.76622 0.0
H484 H 0.3746 0.01243 0.82649 0.0
H485 H 0.40054 0.01464 0.47659 0.0
H486 H 0.43205 0.02699 0.4803 0.0
H487 H 0.40719 0.04574 0.50588 0.0
C488 C 0.44876 0.34399 0.50919 0.0
C489 C 0.42558 0.3432 0.47808 0.0
C490 C 0.46041 0.36604 0.53649 0.0
C491 C 0.44864 0.38778 0.53222 0.0
C492 C 0.42491 0.38696 0.5033 0.0
C493 C 0.41366 0.36471 0.47676 0.0
C494 C 0.48559 0.3662 0.56785 0.0
C495 C 0.41169 0.40972 0.49805 0.0
C496 C 0.4683 0.44389 0.65219 0.0
C497 C 0.48217 0.4581 0.59998 0.0
C498 C 0.4577 0.42075 0.63153 0.0
C499 C 0.46121 0.41154 0.55646 0.0
C500 C 0.47544 0.42574 0.50334 0.0
C501 C 0.48554 0.44901 0.52563 0.0
C502 C 0.44213 0.40651 0.68946 0.0
C503 C 0.47957 0.41657 0.42266 0.0
H504 H 0.45812 0.32748 0.51052 0.0
H505 H 0.39579 0.36437 0.45265 0.0
H506 H 0.4991 0.37734 0.53262 0.0
H507 H 0.48549 0.37465 0.62576 0.0
H508 H 0.4919 0.34765 0.56966 0.0
H509 H 0.39216 0.40567 0.48393 0.0
H510 H 0.41235 0.4206 0.55205 0.0
H511 H 0.42103 0.42112 0.45375 0.0
H512 H 0.46457 0.45129 0.70818 0.0
H513 H 0.49607 0.46014 0.48488 0.0
H514 H 0.45059 0.38945 0.69951 0.0
H515 H 0.42357 0.40137 0.66834 0.0
H516 H 0.44002 0.41691 0.74413 0.0
H517 H 0.48719 0.39855 0.42111 0.0
H518 H 0.49233 0.42918 0.38966 0.0
H519 H 0.46177 0.41418 0.39471 0.0
C520 C 0.17057 0.4912 0.57219 0.0
C521 C 0.18155 0.50742 0.51972 0.0
C522 C 0.14706 0.49434 0.60489 0.0
C523 C 0.13425 0.51405 0.58405 0.0
C524 C 0.14619 0.53172 0.53682 0.0
C525 C 0.16979 0.52827 0.50556 0.0
C526 C 0.13514 0.47539 0.65639 0.0
C527 C 0.13317 0.55301 0.51329 0.0
C528 C 0.06555 0.50155 0.56675 0.0
C529 C 0.05627 0.51391 0.63116 0.0
C530 C 0.09092 0.50159 0.55089 0.0
C531 C 0.10738 0.51405 0.60135 0.0
C532 C 0.09809 0.52653 0.66668 0.0
C533 C 0.07255 0.52661 0.6802 0.0
C534 C 0.10008 0.48828 0.48004 0.0
C535 C 0.11507 0.53974 0.72217 0.0
H536 H 0.17966 0.4752 0.58423 0.0
H537 H 0.17817 0.54101 0.46549 0.0
H538 H 0.12536 0.48403 0.70553 0.0
H539 H 0.12133 0.46357 0.62518 0.0
H540 H 0.14878 0.46376 0.67728 0.0
H541 H 0.14608 0.56697 0.4864 0.0
H542 H 0.1192 0.54651 0.47217 0.0
H543 H 0.1234 0.56164 0.56243 0.0
H544 H 0.05295 0.49177 0.52867 0.0
H545 H 0.06531 0.53672 0.72884 0.0
H546 H 0.11174 0.47386 0.49494 0.0
H547 H 0.11164 0.501 0.44411 0.0
H548 H 0.08482 0.47976 0.44636 0.0
H549 H 0.12778 0.52709 0.74253 0.0
H550 H 0.10487 0.54774 0.7717 0.0
H551 H 0.1265 0.55447 0.69396 0.0
C552 C 0.98037 0.83207 0.8785 0.0
C553 C 0.95499 0.82856 0.86964 0.0
C554 C 0.99265 0.85536 0.87511 0.0
C555 C 0.97904 0.8756 0.86498 0.0
C556 C 0.95319 0.87218 0.85937 0.0
C557 C 0.94156 0.84862 0.86026 0.0
C558 C 0.02026 0.85818 0.87933 0.0
C559 C 0.93786 0.89335 0.8512 0.0
C560 C 0.00567 0.94009 0.90959 0.0
C561 C 0.00996 0.94878 0.83704 0.0
C562 C -0.00374 0.916 0.91984 0.0
C563 C 0.99176 0.90021 0.85596 0.0
C564 C -0.00238 0.90864 0.78265 0.0
C565 C 0.00623 0.93298 0.77417 0.0
C566 C 0.98937 0.90805 -0.00138 0.0
C567 C 0.99375 0.89231 0.71298 0.0
H568 H 0.99074 0.81645 0.88508 0.0
H569 H 0.92188 0.84585 0.85396 0.0
H570 H 0.02862 0.86519 0.82561 0.0
H571 H 0.02566 0.87163 0.925 0.0
H572 H 0.02805 0.84075 0.88963 0.0
H573 H 0.91784 0.88785 0.8547 0.0
H574 H 0.94197 0.90762 0.89586 0.0
H575 H 0.94247 0.9016 0.79604 0.0
H576 H 0.00811 0.95253 0.95816 0.0
H577 H 0.00953 0.93983 0.7182 0.0
H578 H -0.00316 0.89047 0.0083 0.0
H579 H 0.96905 0.90531 0.00543 0.0
H580 H -0.00396 0.92166 0.04249 0.0
H581 H 0.00196 0.87484 0.71899 0.0
H582 H 0.00191 0.90081 0.66107 0.0
H583 H 0.97379 0.88812 0.70577 0.0
C584 C 0.65089 0.97583 0.96077 0.0
C585 C 0.6692 0.97366 0.90328 0.0
C586 C 0.62926 0.98681 0.94836 0.0
C587 C 0.62557 0.99517 0.87599 0.0
C588 C 0.64406 0.99316 0.81776 0.0
C589 C 0.66569 0.98252 0.83224 0.0
C590 C 0.60993 0.9885 0.0118 0.0
C591 C 0.64052 1.00125 0.73921 0.0
C592 C 0.55996 0.99501 0.81691 0.0
C593 C 0.55616 0.01973 0.82076 0.0
C594 C 0.58246 0.9868 0.83458 0.0
C595 C 0.60148 0.00379 0.85896 0.0
C596 C 0.59765 0.02885 0.86459 0.0
C597 C 0.57511 0.03658 0.84398 0.0
C598 C 0.58602 0.95998 0.82515 0.0
C599 C 0.61738 0.04744 0.89168 0.0
H600 H 0.65281 0.96791 0.01438 0.0
H601 H 0.67971 0.98068 0.78737 0.0
H602 H 0.60317 0.00692 0.01635 0.0
H603 H 0.59398 0.97539 -0.00013 0.0
H604 H 0.61698 0.98439 0.06699 0.0
H605 H 0.65718 0.9996 0.70138 0.0
H606 H 0.62496 0.99007 0.71404 0.0
H607 H 0.63579 0.0204 0.74144 0.0
H608 H 0.54586 0.98205 0.79667 0.0
H609 H 0.57224 0.05578 0.84641 0.0
H610 H 0.58905 0.95265 0.88069 0.0
H611 H 0.60255 0.957 0.78806 0.0
H612 H 0.56998 0.94944 0.80035 0.0
H613 H 0.62335 0.04264 0.94753 0.0
H614 H 0.61104 0.06606 0.89663 0.0
H615 H 0.63372 0.04747 0.852 0.0
C616 C 0.54671 0.66712 -0.00598 0.0
C617 C 0.56677 0.67566 0.94774 0.0
C618 C 0.5335 0.64484 0.97664 0.0
C619 C 0.5408 0.63061 0.91214 0.0
C620 C 0.56109 0.63916 0.8653 0.0
C621 C 0.5736 0.66169 0.8832 0.0
C622 C 0.51159 0.63661 0.02688 0.0
C623 C 0.56963 0.62485 0.79562 0.0
C624 C 0.52279 0.56292 0.91326 0.0
C625 C 0.50386 0.56028 0.86249 0.0
C626 C 0.53517 0.58565 0.92898 0.0
C627 C 0.52778 0.60641 0.89528 0.0
C628 C 0.5085 0.60385 0.84426 0.0
C629 C 0.49691 0.5807 0.82779 0.0
C630 C 0.55653 0.58734 0.98028 0.0
C631 C 0.50025 0.62551 0.80666 0.0
H632 H 0.54096 0.67807 0.04286 0.0
H633 H 0.58902 0.66824 0.84683 0.0
H634 H 0.49509 0.63302 0.99282 0.0
H635 H 0.5149 0.61935 0.05263 0.0
H636 H 0.50761 0.65026 0.07285 0.0
H637 H 0.58944 0.62942 0.78131 0.0
H638 H 0.56662 0.60498 0.8022 0.0
H639 H 0.55912 0.62948 0.74713 0.0
H640 H 0.52844 0.54703 0.93921 0.0
H641 H 0.48223 0.57859 0.78861 0.0
H642 H 0.55202 0.59831 0.03227 0.0
H643 H 0.57299 0.59666 0.95193 0.0
H644 H 0.56128 0.5692 -0.00336 0.0
H645 H 0.49647 0.64018 0.84947 0.0
H646 H 0.4835 0.62083 0.77435 0.0
H647 H 0.51513 0.63278 0.76723 0.0
C648 C 0.83488 0.52393 0.98493 0.0
C649 C 0.82233 0.53465 0.92994 0.0
C650 C 0.85827 0.51571 0.96871 0.0
C651 C 0.87 0.5195 0.89687 0.0
C652 C 0.85753 0.53034 0.84095 0.0
C653 C 0.83375 0.53751 0.8579 0.0
C654 C 0.87079 0.50387 0.02964 0.0
C655 C 0.86977 0.53562 0.76467 0.0
C656 C 0.93945 0.5264 0.8985 0.0
C657 C 0.94581 0.50435 0.86417 0.0
C658 C 0.91488 0.53192 0.90649 0.0
C659 C 0.89616 0.51436 0.88317 0.0
C660 C 0.9025 0.49189 0.84902 0.0
C661 C 0.92741 0.48734 0.83847 0.0
C662 C 0.90903 0.55655 0.93982 0.0
C663 C 0.883 0.47253 0.82524 0.0
H664 H 0.82717 0.52298 0.04181 0.0
H665 H 0.82433 0.54603 0.81515 0.0
H666 H 0.87881 0.4871 0.00659 0.0
H667 H 0.88608 0.51638 0.05075 0.0
H668 H 0.85795 0.49916 0.0782 0.0
H669 H 0.85679 0.54191 0.72499 0.0
H670 H 0.88506 0.54992 0.77161 0.0
H671 H 0.87785 0.51927 0.739 0.0
H672 H 0.95378 0.53964 0.91773 0.0
H673 H 0.93249 0.47028 0.81204 0.0
H674 H 0.89878 0.55449 -0.00508 0.0
H675 H 0.89711 0.56531 0.90217 0.0
H676 H 0.92585 0.56886 0.94862 0.0
H677 H 0.87058 0.46767 0.87453 0.0
H678 H 0.891 0.45583 0.80123 0.0
H679 H 0.87159 0.47949 0.78242 0.0
C680 C 0.07572 0.17508 0.16279 0.0
C681 C 0.05901 0.18178 0.22108 0.0
C682 C 0.06948 0.15577 0.11125 0.0
C683 C 0.04613 0.14277 0.11893 0.0
C684 C 0.02897 0.14992 0.17627 0.0
C685 C 0.03555 0.16943 0.22628 0.0
C686 C 0.08808 0.14888 0.04987 0.0
C687 C 0.00391 0.13646 0.18641 0.0
C688 C 0.02098 0.10318 0.95592 0.0
C689 C 0.02672 0.08011 0.97522 0.0
C690 C 0.02752 0.12383 0.00156 0.0
C691 C 0.03981 0.12121 0.06859 0.0
C692 C 0.04542 0.09786 0.08875 0.0
C693 C 0.03895 0.07755 0.04137 0.0
C694 C 0.02147 0.14844 0.97778 0.0
C695 C 0.05813 0.09433 0.16054 0.0
H696 H 0.09384 0.18459 0.15831 0.0
H697 H 0.0225 0.17445 0.27116 0.0
H698 H 0.09366 0.13041 0.05865 0.0
H699 H 0.0798 0.14834 -0.00602 0.0
H700 H 0.10479 0.16174 0.04865 0.0
H701 H 0.99244 0.14479 0.23248 0.0
H702 H -0.006 0.1361 0.13334 0.0
H703 H 0.00599 0.11734 0.19958 0.0
H704 H 0.01163 0.10514 0.90451 0.0
H705 H 0.04338 0.05967 0.05619 0.0
H706 H 0.03869 0.16017 0.96813 0.0
H707 H 0.01042 0.15752 0.02323 0.0
H708 H 0.01109 0.14725 0.92539 0.0
H709 H 0.07618 0.10508 0.16027 0.0
H710 H 0.06114 0.07498 0.16808 0.0
H711 H 0.04697 0.10106 0.20993 0.0
C712 C 0.37838 0.05988 0.23303 0.0
C713 C 0.35346 0.05867 0.21636 0.0
C714 C 0.39629 0.05274 0.17911 0.0
C715 C 0.38913 0.04407 0.10666 0.0
C716 C 0.36399 0.04251 0.08953 0.0
C717 C 0.34642 0.04989 0.14462 0.0
C718 C 0.42293 0.05484 0.19938 0.0
C719 C 0.35571 0.03324 0.01283 0.0
C720 C 0.43719 0.05 0.9458 0.0
C721 C 0.44523 0.02651 0.93835 0.0
C722 C 0.4189 0.05588 0.00013 0.0
C723 C 0.40818 0.03777 0.04788 0.0
C724 C 0.41614 0.01399 0.04073 0.0
C725 C 0.43471 0.00866 0.98624 0.0
C726 C 0.41111 0.08152 0.00654 0.0
C727 C 0.40492 0.99417 0.09025 0.0
H728 H 0.38402 0.06657 0.28836 0.0
H729 H 0.3272 0.04877 0.13147 0.0
H730 H 0.43075 0.03698 0.19044 0.0
H731 H 0.43373 0.06768 0.16197 0.0
H732 H 0.42535 0.06131 0.25892 0.0
H733 H 0.3354 0.03217 0.00951 0.0
H734 H 0.36401 0.04538 0.96885 0.0
H735 H 0.36213 0.01495 -0.00071 0.0
H736 H 0.44523 0.06393 0.9091 0.0
H737 H 0.4406 0.9904 0.98016 0.0
H738 H 0.41428 0.08948 0.0641 0.0
H739 H 0.39115 0.08144 -0.0023 0.0
H740 H 0.42126 0.09345 0.96494 0.0
H741 H 0.40782 0.9994 0.1504 0.0
H742 H 0.41286 0.97653 0.07671 0.0
H743 H 0.38478 0.99171 0.08358 0.0
C744 C 0.44699 0.34293 0.14386 0.0
C745 C 0.42369 0.33031 0.1413 0.0
C746 C 0.45428 0.36116 0.09343 0.0
C747 C 0.43804 0.36671 0.03827 0.0
C748 C 0.41511 0.35302 0.03223 0.0
C749 C 0.40812 0.33505 0.08419 0.0
C750 C 0.47884 0.37542 0.10206 0.0
C751 C 0.39752 0.35811 0.97311 0.0
C752 C 0.445 0.43175 0.97687 0.0
C753 C 0.45998 0.42971 0.91105 0.0
C754 C 0.43732 0.41125 0.01805 0.0
C755 C 0.44434 0.38813 0.99152 0.0
C756 C 0.45868 0.38589 0.92328 0.0
C757 C 0.46666 0.40681 0.88437 0.0
C758 C 0.42237 0.41445 0.09119 0.0
C759 C 0.46599 0.3615 0.89218 0.0
H760 H 0.4592 0.33935 0.18757 0.0
H761 H 0.39014 0.32528 0.08154 0.0
H762 H 0.48958 0.37559 0.04741 0.0
H763 H 0.4759 0.39456 0.11932 0.0
H764 H 0.48992 0.3679 0.14484 0.0
H765 H 0.38192 0.34396 0.9697 0.0
H766 H 0.38999 0.37591 0.98673 0.0
H767 H 0.40723 0.35922 0.91685 0.0
H768 H 0.43984 0.44949 -0.00266 0.0
H769 H 0.47804 0.40525 0.83283 0.0
H770 H 0.43271 0.4088 0.13873 0.0
H771 H 0.40495 0.40269 0.08971 0.0
H772 H 0.41789 0.43355 0.10283 0.0
H773 H 0.47472 0.36254 0.83443 0.0
H774 H 0.44967 0.34819 0.89058 0.0
H775 H 0.47915 0.35445 0.92964 0.0
C776 C 0.17237 0.47159 0.13522 0.0
C777 C 0.16679 0.47817 0.21097 0.0
C778 C 0.15619 0.47562 0.07875 0.0
C779 C 0.13417 0.48673 0.09869 0.0
C780 C 0.12889 0.49407 0.17476 0.0
C781 C 0.14518 0.48958 0.2299 0.0
C782 C 0.16227 0.46734 -0.00173 0.0
C783 C 0.10574 0.5062 0.19836 0.0
C784 C 0.09685 0.51418 0.95418 0.0
C785 C 0.07716 0.49649 0.94744 0.0
C786 C 0.11612 0.51094 0.00134 0.0
C787 C 0.11571 0.48937 0.04155 0.0
C788 C 0.09633 0.47105 0.03217 0.0
C789 C 0.07719 0.47492 0.98564 0.0
C790 C 0.13635 0.53097 0.01046 0.0
C791 C 0.09537 0.44765 0.07321 0.0
H792 H 0.18907 0.46279 0.12031 0.0
H793 H 0.14085 0.49499 0.28823 0.0
H794 H 0.14846 0.45267 0.98017 0.0
H795 H 0.16139 0.4825 0.96002 0.0
H796 H 0.18081 0.46043 0.99123 0.0
H797 H 0.10513 0.51213 0.25903 0.0
H798 H 0.10426 0.52226 0.16422 0.0
H799 H 0.08941 0.49343 0.1879 0.0
H800 H 0.09687 0.53081 0.92419 0.0
H801 H 0.06208 0.4611 0.97972 0.0
H802 H 0.15461 0.5236 0.00174 0.0
H803 H 0.13523 0.53902 0.06885 0.0
H804 H 0.13514 0.54562 0.97042 0.0
H805 H 0.11304 0.43914 0.06404 0.0
H806 H 0.08027 0.4344 0.05458 0.0
H807 H 0.0926 0.45153 0.13478 0.0
C808 C 0.96971 0.88413 0.18481 0.0
C809 C 0.9724 0.85921 0.18757 0.0
C810 C 0.97309 0.89972 0.24851 0.0
C811 C 0.97839 0.89 0.31759 0.0
C812 C 0.98051 0.86475 0.32149 0.0
C813 C 0.9778 0.84967 0.25608 0.0
C814 C 0.97118 0.92662 0.24163 0.0
C815 C 0.98547 0.85368 0.39478 0.0
C816 C 0.00861 0.93342 0.46312 0.0
C817 C 0.9882 0.9404 0.50715 0.0
C818 C 0.00572 0.91677 0.40161 0.0
C819 C 0.9819 0.90642 0.38538 0.0
C820 C 0.96133 0.91277 0.43163 0.0
C821 C 0.9647 0.92999 0.49151 0.0
C822 C 0.02802 0.91088 0.35255 0.0
C823 C 0.93574 0.90165 0.41718 0.0
H824 H 0.96511 0.89156 0.1326 0.0
H825 H 0.97961 0.83037 0.25889 0.0
H826 H 0.95593 0.93279 0.27943 0.0
H827 H 0.98836 0.93688 0.25964 0.0
H828 H 0.9679 0.93133 0.18304 0.0
H829 H 0.9857 0.83361 0.3889 0.0
H830 H 0.00344 0.86137 0.41525 0.0
H831 H 0.9712 0.85825 0.43866 0.0
H832 H 0.02679 0.94157 0.47534 0.0
H833 H 0.94896 0.93528 0.52623 0.0
H834 H 0.02588 0.9165 0.29422 0.0
H835 H 0.02974 0.89101 0.3494 0.0
H836 H 0.04529 0.92012 0.37381 0.0
H837 H 0.92991 0.90743 0.36233 0.0
H838 H 0.92207 0.907 0.46204 0.0
H839 H 0.93556 0.88155 0.4135 0.0
C840 C 0.63365 0.9949 0.31549 0.0
C841 C 0.63048 0.97418 0.26719 0.0
C842 C 0.61708 0.99881 0.37701 0.0
C843 C 0.59679 0.98168 0.39011 0.0
C844 C 0.59365 0.96062 0.34209 0.0
C845 C 0.61056 0.9571 0.28133 0.0
C846 C 0.62108 0.02141 0.4274 0.0
C847 C 0.57218 0.94201 0.35411 0.0
C848 C 0.56284 0.98105 0.58202 0.0
C849 C 0.5427 0.99424 0.56925 0.0
C850 C 0.58082 0.97709 0.52453 0.0
C851 C 0.5783 0.98618 0.45234 0.0
C852 C 0.55787 0.99933 0.43905 0.0
C853 C 0.54042 0.00339 0.49792 0.0
C854 C 0.60261 0.96341 0.54124 0.0
C855 C 0.55442 0.00907 0.36257 0.0
H856 H 0.64904 0.00814 0.30509 0.0
H857 H 0.60796 0.94105 0.24429 0.0
H858 H 0.60545 0.03288 0.42418 0.0
H859 H 0.62175 0.01645 0.48702 0.0
H860 H 0.63835 0.03238 0.41156 0.0
H861 H 0.57268 0.92635 0.31266 0.0
H862 H 0.57207 0.93512 0.4118 0.0
H863 H 0.55468 0.95057 0.34928 0.0
H864 H 0.56487 0.97429 0.63751 0.0
H865 H 0.52484 0.01357 0.48791 0.0
H866 H 0.6199 0.97493 0.5305 0.0
H867 H 0.60332 0.94698 0.50311 0.0
H868 H 0.60194 0.95777 0.60059 0.0
H869 H 0.57038 0.02176 0.3464 0.0
H870 H 0.53742 0.01875 0.36144 0.0
H871 H 0.55352 0.99394 0.31921 0.0
C872 C 0.54864 0.67495 0.30925 0.0
C873 C 0.56197 0.69395 0.34808 0.0
C874 C 0.54232 0.6527 0.34341 0.0
C875 C 0.54973 0.64946 0.41746 0.0
C876 C 0.56433 0.66819 0.45477 0.0
C877 C 0.57 0.69028 0.41988 0.0
C878 C 0.52656 0.63324 0.30205 0.0
C879 C 0.573 0.66536 0.5331 0.0
C880 C 0.51114 0.60807 0.54953 0.0
C881 C 0.52455 0.58751 0.54684 0.0
C882 C 0.51875 0.62802 0.50576 0.0
C883 C 0.54053 0.62752 0.45902 0.0
C884 C 0.55412 0.60672 0.45599 0.0
C885 C 0.54587 0.58687 0.4997 0.0
C886 C 0.50366 0.64978 0.51034 0.0
C887 C 0.57762 0.60567 0.40792 0.0
H888 H 0.54205 0.67786 0.25414 0.0
H889 H 0.58024 0.70504 0.44983 0.0
H890 H 0.53446 0.61543 0.30364 0.0
H891 H 0.50799 0.63138 0.33048 0.0
H892 H 0.52459 0.63748 0.24222 0.0
H893 H 0.58624 0.68061 0.551 0.0
H894 H 0.55702 0.66458 0.57423 0.0
H895 H 0.58189 0.6481 0.53566 0.0
H896 H 0.49461 0.60856 0.58582 0.0
H897 H 0.55627 0.57096 0.49765 0.0
H898 H 0.49883 0.6543 0.45298 0.0
H899 H 0.51458 0.6658 0.53463 0.0
H900 H 0.48643 0.64669 0.54571 0.0
H901 H 0.5743 0.60934 0.34857 0.0
H902 H 0.58544 0.58777 0.40918 0.0
H903 H 0.59147 0.61997 0.42817 0.0
C904 C 0.83562 0.53287 0.34262 0.0
C905 C 0.82952 0.51336 0.29182 0.0
C906 C 0.85257 0.53088 0.39826 0.0
C907 C 0.86373 0.50884 0.40329 0.0
C908 C 0.85686 0.48871 0.35445 0.0
C909 C 0.83983 0.49121 0.29919 0.0
C910 C 0.85939 0.55274 0.44935 0.0
C911 C 0.86834 0.4649 0.35823 0.0
C912 C 0.92791 0.51474 0.47705 0.0
C913 C 0.92357 0.50735 0.55114 0.0
C914 C 0.90861 0.51479 0.42805 0.0
C915 C 0.88431 0.50771 0.45437 0.0
C916 C 0.87981 0.5003 0.52943 0.0
C917 C 0.89961 0.49994 0.57681 0.0
C918 C 0.91424 0.52256 0.34819 0.0
C919 C 0.85411 0.49303 0.55986 0.0
H920 H 0.82765 0.55001 0.33769 0.0
H921 H 0.83515 0.47602 0.26037 0.0
H922 H 0.85822 0.54768 0.5092 0.0
H923 H 0.87869 0.5596 0.43591 0.0
H924 H 0.84737 0.56772 0.44315 0.0
H925 H 0.85936 0.45037 0.32135 0.0
H926 H 0.88811 0.46736 0.34038 0.0
H927 H 0.86723 0.45883 0.41703 0.0
H928 H 0.9465 0.5203 0.45704 0.0
H929 H 0.89633 0.49413 0.63414 0.0
H930 H 0.90456 0.53891 0.3383 0.0
H931 H 0.90747 0.508 0.30749 0.0
H932 H 0.93423 0.52677 0.33596 0.0
H933 H 0.84577 0.47772 0.5247 0.0
H934 H 0.84241 0.50841 0.5569 0.0
H935 H 0.85378 0.48755 0.61932 0.0
loop_
_geom_bond_atom_site_label_1
_geom_bond_atom_site_label_2
_geom_bond_distance
_geom_bond_site_symmetry_2
_ccdc_geom_bond_type
O0 Cd1 2.300 1_556 S
O0 C7 1.275 . S
Cd1 O0 2.300 1_554 S
Cd1 O9 2.381 1_554 S
Cd1 O10 2.378 . S
O2 Cd3 2.385 . S
O2 C7 1.255 1_554 S
Cd3 O2 2.385 . S
Cd3 O4 2.317 . S
O4 Cd3 2.317 . S
O4 C5 1.232 . S
C5 O4 1.232 . S
C5 O6 1.218 . S
O6 C5 1.218 . S
C7 O0 1.275 . S
C7 O2 1.255 1_556 S
C8 O9 1.258 1_554 S
C8 O10 1.256 . S
O9 Cd1 2.381 1_556 S
O9 C8 1.258 1_556 S
O10 Cd1 2.378 . S
O10 C8 1.256 . S
O11 Cd12 2.300 . S
O11 C18 1.275 . S
Cd12 O11 2.300 . S
Cd12 O20 2.381 . S
Cd12 O21 2.378 1_556 S
O13 Cd14 2.395 . S
O13 C18 1.246 1_554 S
Cd14 O13 2.395 . S
Cd14 O15 2.317 . S
O15 Cd14 2.317 . S
O15 C16 1.232 . S
C16 O15 1.232 . S
C16 O17 1.218 . S
O17 C16 1.218 . S
C18 O11 1.275 . S
C18 O13 1.246 1_556 S
C19 O20 1.258 . S
C19 O21 1.256 1_556 S
O20 Cd12 2.381 . S
O20 C19 1.258 . S
O21 Cd12 2.378 1_554 S
O21 C19 1.256 1_554 S
O22 Cd23 2.300 1_556 S
O22 C29 1.275 1_556 S
Cd23 O22 2.300 1_554 S
Cd23 O31 2.381 1_554 S
Cd23 O32 2.378 . S
O24 Cd25 2.385 1_565 S
O24 C29 1.256 . S
Cd25 O24 2.385 1_545 S
Cd25 O26 2.317 1_545 S
O26 Cd25 2.317 1_565 S
O26 C27 1.232 . S
C27 O26 1.232 . S
C27 O28 1.218 . S
O28 C27 1.218 . S
C29 O22 1.275 1_554 S
C29 O24 1.256 . S
C30 O31 1.258 1_554 S
C30 O32 1.256 . S
O31 Cd23 2.381 1_556 S
O31 C30 1.258 1_556 S
O32 Cd23 2.378 . S
O32 C30 1.256 . S
O33 Cd34 2.300 1_556 S
O33 C40 1.275 1_556 S
Cd34 O33 2.300 1_554 S
Cd34 O42 2.381 1_554 S
Cd34 O43 2.378 . S
O35 Cd36 2.385 . S
O35 C40 1.255 . S
Cd36 O35 2.385 . S
Cd36 O37 2.317 . S
O37 Cd36 2.317 . S
O37 C38 1.232 . S
C38 O37 1.232 . S
C38 O39 1.218 . S
O39 C38 1.218 . S
C40 O33 1.275 1_554 S
C40 O35 1.255 . S
C41 O42 1.258 1_554 S
C41 O43 1.256 . S
O42 Cd34 2.381 1_556 S
O42 C41 1.258 1_556 S
O43 Cd34 2.378 . S
O43 C41 1.256 . S
O44 Cd45 2.300 . S
O44 C51 1.275 . S
Cd45 O44 2.300 . S
Cd45 O53 2.381 . S
Cd45 O54 2.378 . S
O46 Cd47 2.385 . S
O46 C51 1.255 . S
Cd47 O46 2.385 . S
Cd47 O48 2.317 . S
O48 Cd47 2.317 . S
O48 C49 1.232 . S
C49 O48 1.232 . S
C49 O50 1.218 . S
O50 C49 1.218 . S
C51 O44 1.275 . S
C51 O46 1.255 . S
C52 O53 1.258 . S
C52 O54 1.256 . S
O53 Cd45 2.381 . S
O53 C52 1.258 . S
O54 Cd45 2.378 . S
O54 C52 1.256 . S
O55 Cd56 2.300 . S
O55 C62 1.275 . S
Cd56 O55 2.300 . S
Cd56 O64 2.381 . S
Cd56 O65 2.378 . S
O57 Cd58 2.385 . S
O57 C62 1.255 . S
Cd58 O57 2.385 . S
Cd58 O59 2.317 . S
O59 Cd58 2.317 . S
O59 C60 1.232 . S
C60 O59 1.232 . S
C60 O61 1.218 . S
O61 C60 1.218 . S
C62 O55 1.275 . S
C62 O57 1.255 . S
C63 O64 1.258 . S
C63 O65 1.256 . S
O64 Cd56 2.381 . S
O64 C63 1.258 . S
O65 Cd56 2.378 . S
O65 C63 1.256 . S
O66 Cd67 2.300 . S
O66 C73 1.275 . S
Cd67 O66 2.300 . S
Cd67 O75 2.381 . S
Cd67 O76 2.378 . S
O68 Cd69 2.385 . S
O68 C73 1.255 . S
Cd69 O68 2.385 . S
Cd69 O70 2.317 . S
O70 Cd69 2.317 . S
O70 C71 1.232 . S
C71 O70 1.232 . S
C71 O72 1.218 . S
O72 C71 1.218 . S
C73 O66 1.275 . S
C73 O68 1.255 . S
C74 O75 1.258 . S
C74 O76 1.256 . S
O75 Cd67 2.381 . S
O75 C74 1.258 . S
O76 Cd67 2.378 . S
O76 C74 1.256 . S
O77 Cd78 2.300 . S
O77 C84 1.275 . S
Cd78 O77 2.300 . S
Cd78 O86 2.381 . S
Cd78 O87 2.378 . S
O79 Cd80 2.385 . S
O79 C84 1.255 . S
Cd80 O79 2.385 . S
Cd80 O81 2.317 . S
O81 Cd80 2.317 . S
O81 C82 1.232 . S
C82 O81 1.232 . S
C82 O83 1.218 . S
O83 C82 1.218 . S
C84 O77 1.275 . S
C84 O79 1.255 . S
C85 O86 1.258 . S
C85 O87 1.256 . S
O86 Cd78 2.381 . S
O86 C85 1.258 . S
O87 Cd78 2.378 . S
O87 C85 1.256 . S
Tb88 O91 2.416 1_565 S
Tb88 O92 2.571 1_665 S
Tb88 O93 2.375 1_665 S
Tb88 O101 2.362 1_655 S
Tb88 O103 2.347 1_565 S
Tb88 O105 2.456 . S
Tb88 O106 2.546 1_655 S
C89 O93 1.251 . S
C89 O95 1.263 . S
Tb90 O92 2.343 . S
Tb90 O95 2.353 . S
Tb90 O98 2.427 . S
Tb90 O99 2.513 . S
Tb90 O100 2.453 1_545 S
Tb90 O101 2.596 1_545 S
Tb90 O102 2.374 1_455 S
O91 Tb88 2.416 1_545 S
O91 C107 1.245 1_655 S
O92 Tb88 2.571 1_445 S
O92 Tb90 2.343 . S
O92 C107 1.259 . S
O93 Tb88 2.375 1_445 S
O93 C89 1.251 . S
C94 O98 1.275 . S
C94 O99 1.246 . S
O95 C89 1.263 . S
O95 Tb90 2.353 . S
C96 O100 1.245 . S
C96 O101 1.259 . S
C97 O102 1.250 . S
C97 O103 1.263 . S
O98 Tb90 2.427 . S
O98 C94 1.275 . S
O99 Tb90 2.513 . S
O99 C94 1.246 . S
O100 Tb90 2.453 1_565 S
O100 C96 1.245 . S
O101 Tb88 2.362 1_455 S
O101 Tb90 2.596 1_565 S
O101 C96 1.259 . S
O102 Tb90 2.374 1_655 S
O102 C97 1.250 . S
O103 Tb88 2.347 1_545 S
O103 C97 1.263 . S
C104 O105 1.275 . S
C104 O106 1.246 1_655 S
O105 Tb88 2.456 . S
O105 C104 1.275 . S
O106 Tb88 2.546 1_455 S
O106 C104 1.246 1_455 S
C107 O91 1.245 1_455 S
C107 O92 1.259 . S
Tb108 O111 2.453 . S
Tb108 O112 2.596 1_545 S
Tb108 O113 2.374 . S
Tb108 O121 2.343 . S
Tb108 O123 2.353 . S
Tb108 O125 2.427 . S
Tb108 O126 2.513 . S
C109 O113 1.225 1_565 S
C109 O115 1.283 . S
Tb110 O112 2.343 . S
Tb110 O115 2.353 . S
Tb110 O118 2.427 . S
Tb110 O119 2.513 . S
Tb110 O120 2.453 . S
Tb110 O121 2.596 1_565 S
Tb110 O122 2.374 . S
O111 Tb108 2.453 . S
O111 C127 1.245 . S
O112 Tb108 2.596 1_565 S
O112 Tb110 2.343 . S
O112 C127 1.259 1_565 S
O113 Tb108 2.374 . S
O113 C109 1.225 1_545 S
C114 O118 1.275 . S
C114 O119 1.246 . S
O115 C109 1.283 . S
O115 Tb110 2.353 . S
C116 O120 1.245 1_545 S
C116 O121 1.259 . S
C117 O122 1.250 1_545 S
C117 O123 1.263 . S
O118 Tb110 2.427 . S
O118 C114 1.275 . S
O119 Tb110 2.513 . S
O119 C114 1.246 . S
O120 Tb110 2.453 . S
O120 C116 1.245 1_565 S
O121 Tb108 2.343 . S
O121 Tb110 2.596 1_545 S
O121 C116 1.259 . S
O122 Tb110 2.374 . S
O122 C117 1.250 1_565 S
O123 Tb108 2.353 . S
O123 C117 1.263 . S
C124 O125 1.275 . S
C124 O126 1.246 . S
O125 Tb108 2.427 . S
O125 C124 1.275 . S
O126 Tb108 2.513 . S
O126 C124 1.246 . S
C127 O111 1.245 . S
C127 O112 1.259 1_545 S
Tb128 O131 2.453 . S
Tb128 O132 2.596 . S
Tb128 O133 2.374 . S
Tb128 O141 2.343 . S
Tb128 O143 2.353 . S
Tb128 O145 2.427 . S
Tb128 O146 2.513 . S
C129 O133 1.251 . S
C129 O135 1.263 . S
Tb130 O132 2.343 . S
Tb130 O135 2.353 . S
Tb130 O138 2.427 . S
Tb130 O139 2.513 . S
Tb130 O140 2.453 . S
Tb130 O141 2.596 . S
Tb130 O142 2.374 . S
O131 Tb128 2.453 . S
O131 C147 1.245 . S
O132 Tb128 2.596 . S
O132 Tb130 2.343 . S
O132 C147 1.259 . S
O133 Tb128 2.374 . S
O133 C129 1.251 . S
C134 O138 1.275 . S
C134 O139 1.246 . S
O135 C129 1.263 . S
O135 Tb130 2.353 . S
C136 O140 1.245 . S
C136 O141 1.259 . S
C137 O142 1.250 . S
C137 O143 1.263 . S
O138 Tb130 2.427 . S
O138 C134 1.275 . S
O139 Tb130 2.513 . S
O139 C134 1.246 . S
O140 Tb130 2.453 . S
O140 C136 1.245 . S
O141 Tb128 2.343 . S
O141 Tb130 2.596 . S
O141 C136 1.259 . S
O142 Tb130 2.374 . S
O142 C137 1.250 . S
O143 Tb128 2.353 . S
O143 C137 1.263 . S
C144 O145 1.275 . S
C144 O146 1.246 . S
O145 Tb128 2.427 . S
O145 C144 1.275 . S
O146 Tb128 2.513 . S
O146 C144 1.246 . S
C147 O131 1.245 . S
C147 O132 1.259 . S
Tb148 O151 2.453 1_655 S
Tb148 O152 2.596 1_655 S
Tb148 O153 2.374 1_655 S
Tb148 O161 2.343 . S
Tb148 O163 2.353 1_655 S
Tb148 O165 2.427 . S
Tb148 O166 2.513 . S
C149 O153 1.251 . S
C149 O155 1.263 . S
Tb150 O152 2.343 . S
Tb150 O155 2.353 . S
Tb150 O158 2.427 . S
Tb150 O159 2.513 . S
Tb150 O160 2.453 1_455 S
Tb150 O161 2.596 1_455 S
Tb150 O162 2.374 . S
O151 Tb148 2.453 1_455 S
O151 C167 1.245 . S
O152 Tb148 2.596 1_455 S
O152 Tb150 2.343 . S
O152 C167 1.259 . S
O153 Tb148 2.374 1_455 S
O153 C149 1.251 . S
C154 O158 1.275 . S
C154 O159 1.246 . S
O155 C149 1.263 . S
O155 Tb150 2.353 . S
C156 O160 1.245 . S
C156 O161 1.259 . S
C157 O162 1.250 . S
C157 O163 1.263 . S
O158 Tb150 2.427 . S
O158 C154 1.275 . S
O159 Tb150 2.513 . S
O159 C154 1.246 . S
O160 Tb150 2.453 1_655 S
O160 C156 1.245 . S
O161 Tb148 2.343 . S
O161 Tb150 2.596 1_655 S
O161 C156 1.259 . S
O162 Tb150 2.374 . S
O162 C157 1.250 . S
O163 Tb148 2.353 1_455 S
O163 C157 1.263 . S
C164 O165 1.275 . S
C164 O166 1.246 . S
O165 Tb148 2.427 . S
O165 C164 1.275 . S
O166 Tb148 2.513 . S
O166 C164 1.246 . S
C167 O151 1.245 . S
C167 O152 1.259 . S
C168 C169 1.391 . S
C168 C170 1.394 . S
C168 H184 0.931 . S
C169 C168 1.391 . S
C169 C173 1.376 . S
C170 C168 1.394 . S
C170 C171 1.369 . S
C170 C174 1.531 . S
C171 C170 1.369 . S
C171 C172 1.410 . S
C171 C179 1.503 . S
C172 C171 1.410 . S
C172 C173 1.392 . S
C172 C175 1.511 . S
C173 C169 1.376 . S
C173 C172 1.392 . S
C173 H185 0.929 . S
C174 C170 1.531 . S
C174 H186 0.960 . S
C174 H187 0.962 . S
C174 H188 0.960 . S
C175 C172 1.511 . S
C175 H189 0.961 . S
C175 H190 0.961 . S
C175 H191 0.961 . S
C176 C177 1.394 . S
C176 C178 1.372 . S
C176 H192 0.898 1_545 S
C177 C176 1.394 . S
C177 C181 1.408 . S
C178 C176 1.372 . S
C178 C179 1.370 . S
C178 C182 1.524 1_545 S
C179 C171 1.503 . S
C179 C178 1.370 . S
C179 C180 1.403 . S
C180 C179 1.403 . S
C180 C181 1.404 . S
C180 C183 1.539 . S
C181 C177 1.408 . S
C181 C180 1.404 . S
C181 H193 0.930 . S
C182 C178 1.524 1_565 S
C182 H194 0.956 . S
C182 H195 0.961 . S
C182 H196 0.961 . S
C183 C180 1.539 . S
C183 H197 0.958 . S
C183 H198 0.961 . S
C183 H199 0.960 . S
H184 C168 0.931 . S
H185 C173 0.929 . S
H186 C174 0.960 . S
H187 C174 0.962 . S
H188 C174 0.960 . S
H189 C175 0.961 . S
H190 C175 0.961 . S
H191 C175 0.961 . S
H192 C176 0.898 1_565 S
H193 C181 0.930 . S
H194 C182 0.956 . S
H195 C182 0.961 . S
H196 C182 0.961 . S
H197 C183 0.958 . S
H198 C183 0.961 . S
H199 C183 0.960 . S
C200 C201 1.391 . S
C200 C202 1.394 . S
C200 H216 0.931 . S
C201 C200 1.391 . S
C201 C205 1.376 . S
C202 C200 1.394 . S
C202 C203 1.369 . S
C202 C206 1.531 . S
C203 C202 1.369 . S
C203 C204 1.410 . S
C203 C211 1.503 . S
C204 C203 1.410 . S
C204 C205 1.392 . S
C204 C207 1.511 . S
C205 C201 1.376 . S
C205 C204 1.392 . S
C205 H217 0.929 . S
C206 C202 1.531 . S
C206 H218 0.960 . S
C206 H219 0.962 . S
C206 H220 0.960 . S
C207 C204 1.511 . S
C207 H221 0.961 . S
C207 H222 0.961 . S
C207 H223 0.961 . S
C208 C209 1.370 . S
C208 C210 1.363 . S
C208 H224 0.931 . S
C209 C208 1.370 . S
C209 C213 1.408 . S
C210 C208 1.363 . S
C210 C211 1.370 . S
C210 C214 1.524 . S
C211 C203 1.503 . S
C211 C210 1.370 . S
C211 C212 1.403 . S
C212 C211 1.403 . S
C212 C213 1.404 . S
C212 C215 1.539 . S
C213 C209 1.408 . S
C213 C212 1.404 . S
C213 H225 0.930 . S
C214 C210 1.524 . S
C214 H226 0.956 . S
C214 H227 0.961 . S
C214 H228 0.961 . S
C215 C212 1.539 . S
C215 H229 0.958 . S
C215 H230 0.961 . S
C215 H231 0.960 . S
H216 C200 0.931 . S
H217 C205 0.929 . S
H218 C206 0.960 . S
H219 C206 0.962 . S
H220 C206 0.960 . S
H221 C207 0.961 . S
H222 C207 0.961 . S
H223 C207 0.961 . S
H224 C208 0.931 . S
H225 C213 0.930 . S
H226 C214 0.956 . S
H227 C214 0.961 . S
H228 C214 0.961 . S
H229 C215 0.958 . S
H230 C215 0.961 . S
H231 C215 0.960 . S
C232 C233 1.391 . S
C232 C234 1.394 . S
C232 H248 0.931 . S
C233 C232 1.391 . S
C233 C237 1.376 . S
C234 C232 1.394 . S
C234 C235 1.369 . S
C234 C238 1.531 . S
C235 C234 1.369 . S
C235 C236 1.410 . S
C235 C243 1.503 . S
C236 C235 1.410 . S
C236 C237 1.392 . S
C236 C239 1.511 . S
C237 C233 1.376 . S
C237 C236 1.392 . S
C237 H249 0.929 . S
C238 C234 1.531 . S
C238 H250 0.960 . S
C238 H251 0.962 . S
C238 H252 0.960 . S
C239 C236 1.511 . S
C239 H253 0.961 . S
C239 H254 0.961 . S
C239 H255 0.961 . S
C240 C241 1.370 . S
C240 C242 1.363 . S
C240 H256 0.931 . S
C241 C240 1.370 . S
C241 C245 1.408 . S
C242 C240 1.363 . S
C242 C243 1.370 . S
C242 C246 1.524 . S
C243 C235 1.503 . S
C243 C242 1.370 . S
C243 C244 1.403 . S
C244 C243 1.403 . S
C244 C245 1.404 . S
C244 C247 1.539 . S
C245 C241 1.408 . S
C245 C244 1.404 . S
C245 H257 0.930 . S
C246 C242 1.524 . S
C246 H258 0.956 . S
C246 H259 0.961 . S
C246 H260 0.961 . S
C247 C244 1.539 . S
C247 H261 0.958 . S
C247 H262 0.961 . S
C247 H263 0.960 . S
H248 C232 0.931 . S
H249 C237 0.929 . S
H250 C238 0.960 . S
H251 C238 0.962 . S
H252 C238 0.960 . S
H253 C239 0.961 . S
H254 C239 0.961 . S
H255 C239 0.961 . S
H256 C240 0.931 . S
H257 C245 0.930 . S
H258 C246 0.956 . S
H259 C246 0.961 . S
H260 C246 0.961 . S
H261 C247 0.958 . S
H262 C247 0.961 . S
H263 C247 0.960 . S
C264 C265 1.391 . S
C264 C266 1.394 . S
C264 H280 0.931 . S
C265 C264 1.391 . S
C265 C269 1.376 . S
C266 C264 1.394 . S
C266 C267 1.369 . S
C266 C270 1.531 . S
C267 C266 1.369 . S
C267 C268 1.410 . S
C267 C275 1.503 . S
C268 C267 1.410 . S
C268 C269 1.392 . S
C268 C271 1.511 . S
C269 C265 1.376 . S
C269 C268 1.392 . S
C269 H281 0.929 . S
C270 C266 1.531 . S
C270 H282 0.960 . S
C270 H283 0.962 . S
C270 H284 0.960 . S
C271 C268 1.511 . S
C271 H285 0.961 1_455 S
C271 H286 0.965 . S
C271 H287 0.961 1_455 S
C272 C273 1.370 . S
C272 C274 1.363 . S
C272 H288 0.931 . S
C273 C272 1.370 . S
C273 C277 1.408 . S
C274 C272 1.363 . S
C274 C275 1.370 . S
C274 C278 1.524 . S
C275 C267 1.503 . S
C275 C274 1.370 . S
C275 C276 1.403 . S
C276 C275 1.403 . S
C276 C277 1.404 . S
C276 C279 1.539 . S
C277 C273 1.408 . S
C277 C276 1.404 . S
C277 H289 0.930 . S
C278 C274 1.524 . S
C278 H290 0.956 . S
C278 H291 0.961 . S
C278 H292 0.961 . S
C279 C276 1.539 . S
C279 H293 0.958 . S
C279 H294 0.938 1_455 S
C279 H295 0.960 . S
H280 C264 0.931 . S
H281 C269 0.929 . S
H282 C270 0.960 . S
H283 C270 0.962 . S
H284 C270 0.960 . S
H285 C271 0.961 1_655 S
H286 C271 0.965 . S
H287 C271 0.961 1_655 S
H288 C272 0.931 . S
H289 C277 0.930 . S
H290 C278 0.956 . S
H291 C278 0.961 . S
H292 C278 0.961 . S
H293 C279 0.958 . S
H294 C279 0.938 1_655 S
H295 C279 0.960 . S
C296 C297 1.391 . S
C296 C298 1.394 . S
C296 H312 0.931 . S
C297 C296 1.391 . S
C297 C301 1.376 1_556 S
C298 C296 1.394 . S
C298 C299 1.369 . S
C298 C302 1.531 . S
C299 C298 1.369 . S
C299 C300 1.410 . S
C299 C307 1.503 . S
C300 C299 1.410 . S
C300 C301 1.392 1_556 S
C300 C303 1.511 1_566 S
C301 C297 1.376 1_554 S
C301 C300 1.392 1_554 S
C301 H313 0.929 . S
C302 C298 1.531 . S
C302 H314 0.960 . S
C302 H315 0.962 . S
C302 H316 0.960 . S
C303 C300 1.511 1_544 S
C303 H317 0.961 . S
C303 H318 0.961 . S
C303 H319 0.961 . S
C304 C305 1.370 . S
C304 C306 1.363 . S
C304 H320 0.931 . S
C305 C304 1.370 . S
C305 C309 1.408 1_565 S
C306 C304 1.363 . S
C306 C307 1.370 . S
C306 C310 1.524 . S
C307 C299 1.503 . S
C307 C306 1.370 . S
C307 C308 1.403 1_565 S
C308 C307 1.403 1_545 S
C308 C309 1.404 . S
C308 C311 1.539 . S
C309 C305 1.408 1_545 S
C309 C308 1.404 . S
C309 H321 0.930 . S
C310 C306 1.524 . S
C310 H322 0.956 . S
C310 H323 0.961 . S
C310 H324 0.961 . S
C311 C308 1.539 . S
C311 H325 0.958 . S
C311 H326 0.961 . S
C311 H327 0.960 . S
H312 C296 0.931 . S
H313 C301 0.929 . S
H314 C302 0.960 . S
H315 C302 0.962 . S
H316 C302 0.960 . S
H317 C303 0.961 . S
H318 C303 0.961 . S
H319 C303 0.961 . S
H320 C304 0.931 . S
H321 C309 0.930 . S
H322 C310 0.956 . S
H323 C310 0.961 . S
H324 C310 0.961 . S
H325 C311 0.958 . S
H326 C311 0.961 . S
H327 C311 0.960 . S
C328 C329 1.391 . S
C328 C330 1.394 . S
C328 H344 0.931 . S
C329 C328 1.391 . S
C329 C333 1.376 1_556 S
C330 C328 1.394 . S
C330 C331 1.369 . S
C330 C334 1.531 . S
C331 C330 1.369 . S
C331 C332 1.410 1_556 S
C331 C339 1.503 . S
C332 C331 1.410 1_554 S
C332 C333 1.392 . S
C332 C335 1.511 . S
C333 C329 1.376 1_554 S
C333 C332 1.392 . S
C333 H345 0.929 . S
C334 C330 1.531 . S
C334 H346 0.960 . S
C334 H347 0.962 . S
C334 H348 0.960 . S
C335 C332 1.511 . S
C335 H349 0.961 . S
C335 H350 0.961 . S
C335 H351 0.961 . S
C336 C337 1.370 . S
C336 C338 1.363 . S
C336 H352 0.931 . S
C337 C336 1.370 . S
C337 C341 1.408 . S
C338 C336 1.363 . S
C338 C339 1.370 . S
C338 C342 1.524 . S
C339 C331 1.503 . S
C339 C338 1.370 . S
C339 C340 1.403 . S
C340 C339 1.403 . S
C340 C341 1.404 . S
C340 C343 1.539 . S
C341 C337 1.408 . S
C341 C340 1.404 . S
C341 H353 0.930 . S
C342 C338 1.524 . S
C342 H354 0.956 . S
C342 H355 0.961 . S
C342 H356 0.961 . S
C343 C340 1.539 . S
C343 H357 0.958 . S
C343 H358 0.961 . S
C343 H359 0.960 . S
H344 C328 0.931 . S
H345 C333 0.929 . S
H346 C334 0.960 . S
H347 C334 0.962 . S
H348 C334 0.960 . S
H349 C335 0.961 . S
H350 C335 0.961 . S
H351 C335 0.961 . S
H352 C336 0.931 . S
H353 C341 0.930 . S
H354 C342 0.956 . S
H355 C342 0.961 . S
H356 C342 0.961 . S
H357 C343 0.958 . S
H358 C343 0.961 . S
H359 C343 0.960 . S
C360 C361 1.391 1_554 S
C360 C362 1.394 1_554 S
C360 H376 0.931 . S
C361 C360 1.391 1_556 S
C361 C365 1.376 . S
C362 C360 1.394 1_556 S
C362 C363 1.369 . S
C362 C366 1.531 1_556 S
C363 C362 1.369 . S
C363 C364 1.410 . S
C363 C371 1.503 . S
C364 C363 1.410 . S
C364 C365 1.392 . S
C364 C367 1.511 . S
C365 C361 1.376 . S
C365 C364 1.392 . S
C365 H377 0.929 . S
C366 C362 1.531 1_554 S
C366 H378 0.960 . S
C366 H379 0.962 . S
C366 H380 0.960 . S
C367 C364 1.511 . S
C367 H381 0.961 . S
C367 H382 0.961 . S
C367 H383 0.961 . S
C368 C369 1.370 . S
C368 C370 1.363 . S
C368 H384 0.931 . S
C369 C368 1.370 . S
C369 C373 1.408 . S
C370 C368 1.363 . S
C370 C371 1.370 . S
C370 C374 1.524 . S
C371 C363 1.503 . S
C371 C370 1.370 . S
C371 C372 1.403 . S
C372 C371 1.403 . S
C372 C373 1.404 . S
C372 C375 1.539 . S
C373 C369 1.408 . S
C373 C372 1.404 . S
C373 H385 0.930 . S
C374 C370 1.524 . S
C374 H386 0.956 . S
C374 H387 0.961 . S
C374 H388 0.961 . S
C375 C372 1.539 . S
C375 H389 0.958 . S
C375 H390 0.961 . S
C375 H391 0.960 . S
H376 C360 0.931 . S
H377 C365 0.929 . S
H378 C366 0.960 . S
H379 C366 0.962 . S
H380 C366 0.960 . S
H381 C367 0.961 . S
H382 C367 0.961 . S
H383 C367 0.961 . S
H384 C368 0.931 . S
H385 C373 0.930 . S
H386 C374 0.956 . S
H387 C374 0.961 . S
H388 C374 0.961 . S
H389 C375 0.958 . S
H390 C375 0.961 . S
H391 C375 0.960 . S
C392 C393 1.391 . S
C392 C394 1.394 . S
C392 H408 0.931 . S
C393 C392 1.391 . S
C393 C397 1.376 . S
C394 C392 1.394 . S
C394 C395 1.369 . S
C394 C398 1.531 . S
C395 C394 1.369 . S
C395 C396 1.410 . S
C395 C403 1.503 . S
C396 C395 1.410 . S
C396 C397 1.392 . S
C396 C399 1.511 1_556 S
C397 C393 1.376 . S
C397 C396 1.392 . S
C397 H409 0.929 1_556 S
C398 C394 1.531 . S
C398 H410 0.960 . S
C398 H411 0.962 . S
C398 H412 0.960 . S
C399 C396 1.511 1_554 S
C399 H413 0.961 . S
C399 H414 0.964 . S
C399 H415 0.961 . S
C400 C401 1.370 . S
C400 C402 1.363 . S
C400 H416 0.931 . S
C401 C400 1.370 . S
C401 C405 1.408 1_655 S
C402 C400 1.363 . S
C402 C403 1.370 . S
C402 C406 1.524 . S
C403 C395 1.503 . S
C403 C402 1.370 . S
C403 C404 1.403 1_655 S
C404 C403 1.403 1_455 S
C404 C405 1.404 . S
C404 C407 1.539 . S
C405 C401 1.408 1_455 S
C405 C404 1.404 . S
C405 H417 0.930 . S
C406 C402 1.524 . S
C406 H418 0.956 . S
C406 H419 0.961 . S
C406 H420 0.961 . S
C407 C404 1.539 . S
C407 H421 0.958 . S
C407 H422 0.961 . S
C407 H423 0.960 . S
H408 C392 0.931 . S
H409 C397 0.929 1_554 S
H410 C398 0.960 . S
H411 C398 0.962 . S
H412 C398 0.960 . S
H413 C399 0.961 . S
H414 C399 0.964 . S
H415 C399 0.961 . S
H416 C400 0.931 . S
H417 C405 0.930 . S
H418 C406 0.956 . S
H419 C406 0.961 . S
H420 C406 0.961 . S
H421 C407 0.958 . S
H422 C407 0.961 . S
H423 C407 0.960 . S
C424 C425 1.391 . S
C424 C426 1.394 . S
C424 H440 0.931 . S
C425 C424 1.391 . S
C425 C429 1.376 . S
C426 C424 1.394 . S
C426 C427 1.369 . S
C426 C430 1.531 . S
C427 C426 1.369 . S
C427 C428 1.410 . S
C427 C435 1.503 . S
C428 C427 1.410 . S
C428 C429 1.392 . S
C428 C431 1.511 . S
C429 C425 1.376 . S
C429 C428 1.392 . S
C429 H441 0.929 . S
C430 C426 1.531 . S
C430 H442 0.961 . S
C430 H443 0.962 1_455 S
C430 H444 0.960 1_455 S
C431 C428 1.511 . S
C431 H445 0.961 . S
C431 H446 0.961 . S
C431 H447 0.961 . S
C432 C433 1.370 . S
C432 C434 1.363 . S
C432 H448 0.931 . S
C433 C432 1.370 . S
C433 C437 1.408 . S
C434 C432 1.363 . S
C434 C435 1.370 . S
C434 C438 1.524 . S
C435 C427 1.503 . S
C435 C434 1.370 . S
C435 C436 1.403 . S
C436 C435 1.403 . S
C436 C437 1.404 . S
C436 C439 1.539 . S
C437 C433 1.408 . S
C437 C436 1.404 . S
C437 H449 0.930 . S
C438 C434 1.524 . S
C438 H450 0.956 . S
C438 H451 0.961 . S
C438 H452 0.961 . S
C439 C436 1.539 . S
C439 H453 0.958 . S
C439 H454 0.961 . S
C439 H455 0.960 . S
H440 C424 0.931 . S
H441 C429 0.929 . S
H442 C430 0.961 . S
H443 C430 0.962 1_655 S
H444 C430 0.960 1_655 S
H445 C431 0.961 . S
H446 C431 0.961 . S
H447 C431 0.961 . S
H448 C432 0.931 . S
H449 C437 0.930 . S
H450 C438 0.956 . S
H451 C438 0.961 . S
H452 C438 0.961 . S
H453 C439 0.958 . S
H454 C439 0.961 . S
H455 C439 0.960 . S
C456 C457 1.391 . S
C456 C458 1.394 . S
C456 H472 0.931 . S
C457 C456 1.391 . S
C457 C461 1.376 . S
C458 C456 1.394 . S
C458 C459 1.369 . S
C458 C462 1.531 1_545 S
C459 C458 1.369 . S
C459 C460 1.410 . S
C459 C467 1.503 . S
C460 C459 1.410 . S
C460 C461 1.392 . S
C460 C463 1.511 . S
C461 C457 1.376 . S
C461 C460 1.392 . S
C461 H473 0.929 . S
C462 C458 1.531 1_565 S
C462 H474 0.960 . S
C462 H475 0.962 . S
C462 H476 0.960 . S
C463 C460 1.511 . S
C463 H477 0.961 . S
C463 H478 0.961 . S
C463 H479 0.961 . S
C464 C465 1.370 . S
C464 C466 1.363 . S
C464 H480 0.931 . S
C465 C464 1.370 . S
C465 C469 1.408 . S
C466 C464 1.363 . S
C466 C467 1.370 . S
C466 C470 1.524 . S
C467 C459 1.503 . S
C467 C466 1.370 . S
C467 C468 1.403 . S
C468 C467 1.403 . S
C468 C469 1.404 . S
C468 C471 1.539 . S
C469 C465 1.408 . S
C469 C468 1.404 . S
C469 H481 0.930 . S
C470 C466 1.524 . S
C470 H482 0.956 . S
C470 H483 0.961 . S
C470 H484 0.961 . S
C471 C468 1.539 . S
C471 H485 0.958 . S
C471 H486 0.961 . S
C471 H487 0.960 . S
H472 C456 0.931 . S
H473 C461 0.929 . S
H474 C462 0.960 . S
H475 C462 0.962 . S
H476 C462 0.960 . S
H477 C463 0.961 . S
H478 C463 0.961 . S
H479 C463 0.961 . S
H480 C464 0.931 . S
H481 C469 0.930 . S
H482 C470 0.956 . S
H483 C470 0.961 . S
H484 C470 0.961 . S
H485 C471 0.958 . S
H486 C471 0.961 . S
H487 C471 0.960 . S
C488 C489 1.391 . S
C488 C490 1.394 . S
C488 H504 0.931 . S
C489 C488 1.391 . S
C489 C493 1.376 . S
C490 C488 1.394 . S
C490 C491 1.369 . S
C490 C494 1.531 . S
C491 C490 1.369 . S
C491 C492 1.410 . S
C491 C499 1.503 . S
C492 C491 1.410 . S
C492 C493 1.392 . S
C492 C495 1.511 . S
C493 C489 1.376 . S
C493 C492 1.392 . S
C493 H505 0.929 . S
C494 C490 1.531 . S
C494 H506 0.960 . S
C494 H507 0.962 . S
C494 H508 0.960 . S
C495 C492 1.511 . S
C495 H509 0.961 . S
C495 H510 0.961 . S
C495 H511 0.961 . S
C496 C497 1.370 . S
C496 C498 1.363 . S
C496 H512 0.931 . S
C497 C496 1.370 . S
C497 C501 1.408 . S
C498 C496 1.363 . S
C498 C499 1.370 . S
C498 C502 1.524 . S
C499 C491 1.503 . S
C499 C498 1.370 . S
C499 C500 1.403 . S
C500 C499 1.403 . S
C500 C501 1.404 . S
C500 C503 1.539 . S
C501 C497 1.408 . S
C501 C500 1.404 . S
C501 H513 0.930 . S
C502 C498 1.524 . S
C502 H514 0.956 . S
C502 H515 0.961 . S
C502 H516 0.961 . S
C503 C500 1.539 . S
C503 H517 0.958 . S
C503 H518 0.961 . S
C503 H519 0.960 . S
H504 C488 0.931 . S
H505 C493 0.929 . S
H506 C494 0.960 . S
H507 C494 0.962 . S
H508 C494 0.960 . S
H509 C495 0.961 . S
H510 C495 0.961 . S
H511 C495 0.961 . S
H512 C496 0.931 . S
H513 C501 0.930 . S
H514 C502 0.956 . S
H515 C502 0.961 . S
H516 C502 0.961 . S
H517 C503 0.958 . S
H518 C503 0.961 . S
H519 C503 0.960 . S
C520 C521 1.391 . S
C520 C522 1.394 . S
C520 H536 0.931 . S
C521 C520 1.391 . S
C521 C525 1.376 . S
C522 C520 1.394 . S
C522 C523 1.369 . S
C522 C526 1.531 . S
C523 C522 1.369 . S
C523 C524 1.410 . S
C523 C531 1.503 . S
C524 C523 1.410 . S
C524 C525 1.392 . S
C524 C527 1.511 . S
C525 C521 1.376 . S
C525 C524 1.392 . S
C525 H537 0.929 . S
C526 C522 1.531 . S
C526 H538 0.960 . S
C526 H539 0.962 . S
C526 H540 0.960 . S
C527 C524 1.511 . S
C527 H541 0.961 . S
C527 H542 0.961 . S
C527 H543 0.961 . S
C528 C529 1.370 . S
C528 C530 1.363 . S
C528 H544 0.931 . S
C529 C528 1.370 . S
C529 C533 1.408 . S
C530 C528 1.363 . S
C530 C531 1.370 . S
C530 C534 1.524 . S
C531 C523 1.503 . S
C531 C530 1.370 . S
C531 C532 1.403 . S
C532 C531 1.403 . S
C532 C533 1.404 . S
C532 C535 1.539 . S
C533 C529 1.408 . S
C533 C532 1.404 . S
C533 H545 0.930 . S
C534 C530 1.524 . S
C534 H546 0.956 . S
C534 H547 0.961 . S
C534 H548 0.961 . S
C535 C532 1.539 . S
C535 H549 0.958 . S
C535 H550 0.961 . S
C535 H551 0.960 . S
H536 C520 0.931 . S
H537 C525 0.929 . S
H538 C526 0.960 . S
H539 C526 0.962 . S
H540 C526 0.960 . S
H541 C527 0.961 . S
H542 C527 0.961 . S
H543 C527 0.961 . S
H544 C528 0.931 . S
H545 C533 0.930 . S
H546 C534 0.956 . S
H547 C534 0.961 . S
H548 C534 0.961 . S
H549 C535 0.958 . S
H550 C535 0.961 . S
H551 C535 0.960 . S
C552 C553 1.391 . S
C552 C554 1.394 . S
C552 H568 0.931 . S
C553 C552 1.391 . S
C553 C557 1.376 . S
C554 C552 1.394 . S
C554 C555 1.369 . S
C554 C558 1.531 1_655 S
C555 C554 1.369 . S
C555 C556 1.410 . S
C555 C563 1.503 . S
C556 C555 1.410 . S
C556 C557 1.392 . S
C556 C559 1.511 . S
C557 C553 1.376 . S
C557 C556 1.392 . S
C557 H569 0.929 . S
C558 C554 1.531 1_455 S
C558 H570 0.960 . S
C558 H571 0.962 . S
C558 H572 0.960 . S
C559 C556 1.511 . S
C559 H573 0.961 . S
C559 H574 0.961 . S
C559 H575 0.961 . S
C560 C561 1.370 . S
C560 C562 1.363 . S
C560 H576 0.931 . S
C561 C560 1.370 . S
C561 C565 1.408 . S
C562 C560 1.363 . S
C562 C563 1.370 . S
C562 C566 1.524 . S
C563 C555 1.503 . S
C563 C562 1.370 . S
C563 C564 1.403 . S
C564 C563 1.403 . S
C564 C565 1.404 . S
C564 C567 1.539 . S
C565 C561 1.408 . S
C565 C564 1.404 . S
C565 H577 0.930 . S
C566 C562 1.524 . S
C566 H578 0.956 . S
C566 H579 0.961 . S
C566 H580 0.961 1_556 S
C567 C564 1.539 . S
C567 H581 0.958 . S
C567 H582 0.961 . S
C567 H583 0.960 . S
H568 C552 0.931 . S
H569 C557 0.929 . S
H570 C558 0.960 . S
H571 C558 0.962 . S
H572 C558 0.960 . S
H573 C559 0.961 . S
H574 C559 0.961 . S
H575 C559 0.961 . S
H576 C560 0.931 . S
H577 C565 0.930 . S
H578 C566 0.956 . S
H579 C566 0.961 . S
H580 C566 0.961 1_554 S
H581 C567 0.958 . S
H582 C567 0.961 . S
H583 C567 0.960 . S
C584 C585 1.391 1_554 S
C584 C586 1.394 1_554 S
C584 H600 0.931 . S
C585 C584 1.391 1_556 S
C585 C589 1.376 . S
C586 C584 1.394 1_556 S
C586 C587 1.369 . S
C586 C590 1.531 1_556 S
C587 C586 1.369 . S
C587 C588 1.410 . S
C587 C595 1.503 . S
C588 C587 1.410 . S
C588 C589 1.392 . S
C588 C591 1.511 1_565 S
C589 C585 1.376 . S
C589 C588 1.392 . S
C589 H601 0.929 . S
C590 C586 1.531 1_554 S
C590 H602 0.960 . S
C590 H603 0.962 1_554 S
C590 H604 0.960 . S
C591 C588 1.511 1_545 S
C591 H605 0.961 . S
C591 H606 0.961 . S
C591 H607 0.961 . S
C592 C593 1.370 . S
C592 C594 1.363 . S
C592 H608 0.931 . S
C593 C592 1.370 . S
C593 C597 1.408 1_565 S
C594 C592 1.363 . S
C594 C595 1.370 . S
C594 C598 1.524 . S
C595 C587 1.503 . S
C595 C594 1.370 . S
C595 C596 1.403 1_565 S
C596 C595 1.403 1_545 S
C596 C597 1.404 . S
C596 C599 1.539 1_556 S
C597 C593 1.408 1_545 S
C597 C596 1.404 . S
C597 H609 0.930 . S
C598 C594 1.524 . S
C598 H610 0.956 . S
C598 H611 0.961 . S
C598 H612 0.961 . S
C599 C596 1.539 1_554 S
C599 H613 0.958 . S
C599 H614 0.961 . S
C599 H615 0.960 . S
H600 C584 0.931 . S
H601 C589 0.929 . S
H602 C590 0.960 . S
H603 C590 0.962 1_556 S
H604 C590 0.960 . S
H605 C591 0.961 . S
H606 C591 0.961 . S
H607 C591 0.961 . S
H608 C592 0.931 . S
H609 C597 0.930 . S
H610 C598 0.956 . S
H611 C598 0.961 . S
H612 C598 0.961 . S
H613 C599 0.958 . S
H614 C599 0.961 . S
H615 C599 0.960 . S
C616 C617 1.391 . S
C616 C618 1.394 . S
C616 H632 0.931 1_556 S
C617 C616 1.391 . S
C617 C621 1.376 . S
C618 C616 1.394 . S
C618 C619 1.369 . S
C618 C622 1.531 . S
C619 C618 1.369 . S
C619 C620 1.410 . S
C619 C627 1.503 . S
C620 C619 1.410 . S
C620 C621 1.392 . S
C620 C623 1.511 . S
C621 C617 1.376 . S
C621 C620 1.392 . S
C621 H633 0.929 . S
C622 C618 1.531 . S
C622 H634 0.960 . S
C622 H635 0.962 . S
C622 H636 0.960 . S
C623 C620 1.511 . S
C623 H637 0.961 . S
C623 H638 0.961 . S
C623 H639 0.961 . S
C624 C625 1.370 . S
C624 C626 1.363 . S
C624 H640 0.931 . S
C625 C624 1.370 . S
C625 C629 1.408 . S
C626 C624 1.363 . S
C626 C627 1.370 . S
C626 C630 1.524 . S
C627 C619 1.503 . S
C627 C626 1.370 . S
C627 C628 1.403 . S
C628 C627 1.403 . S
C628 C629 1.404 . S
C628 C631 1.539 . S
C629 C625 1.408 . S
C629 C628 1.404 . S
C629 H641 0.930 . S
C630 C626 1.524 . S
C630 H642 0.956 1_556 S
C630 H643 0.961 . S
C630 H644 0.961 1_556 S
C631 C628 1.539 . S
C631 H645 0.958 . S
C631 H646 0.961 . S
C631 H647 0.960 . S
H632 C616 0.931 1_554 S
H633 C621 0.929 . S
H634 C622 0.960 . S
H635 C622 0.962 . S
H636 C622 0.960 . S
H637 C623 0.961 . S
H638 C623 0.961 . S
H639 C623 0.961 . S
H640 C624 0.931 . S
H641 C629 0.930 . S
H642 C630 0.956 1_554 S
H643 C630 0.961 . S
H644 C630 0.961 1_554 S
H645 C631 0.958 . S
H646 C631 0.961 . S
H647 C631 0.960 . S
C648 C649 1.391 1_554 S
C648 C650 1.394 1_554 S
C648 H664 0.931 . S
C649 C648 1.391 1_556 S
C649 C653 1.376 . S
C650 C648 1.394 1_556 S
C650 C651 1.369 . S
C650 C654 1.531 1_556 S
C651 C650 1.369 . S
C651 C652 1.410 . S
C651 C659 1.503 . S
C652 C651 1.410 . S
C652 C653 1.392 . S
C652 C655 1.511 . S
C653 C649 1.376 . S
C653 C652 1.392 . S
C653 H665 0.929 . S
C654 C650 1.531 1_554 S
C654 H666 0.960 . S
C654 H667 0.962 . S
C654 H668 0.960 . S
C655 C652 1.511 . S
C655 H669 0.961 . S
C655 H670 0.961 . S
C655 H671 0.961 . S
C656 C657 1.370 . S
C656 C658 1.363 . S
C656 H672 0.931 . S
C657 C656 1.370 . S
C657 C661 1.408 . S
C658 C656 1.363 . S
C658 C659 1.370 . S
C658 C662 1.524 . S
C659 C651 1.503 . S
C659 C658 1.370 . S
C659 C660 1.403 . S
C660 C659 1.403 . S
C660 C661 1.404 . S
C660 C663 1.539 . S
C661 C657 1.408 . S
C661 C660 1.404 . S
C661 H673 0.930 . S
C662 C658 1.524 . S
C662 H674 0.956 . S
C662 H675 0.961 . S
C662 H676 0.961 . S
C663 C660 1.539 . S
C663 H677 0.958 . S
C663 H678 0.961 . S
C663 H679 0.960 . S
H664 C648 0.931 . S
H665 C653 0.929 . S
H666 C654 0.960 . S
H667 C654 0.962 . S
H668 C654 0.960 . S
H669 C655 0.961 . S
H670 C655 0.961 . S
H671 C655 0.961 . S
H672 C656 0.931 . S
H673 C661 0.930 . S
H674 C662 0.956 . S
H675 C662 0.961 . S
H676 C662 0.961 . S
H677 C663 0.958 . S
H678 C663 0.961 . S
H679 C663 0.960 . S
C680 C681 1.391 . S
C680 C682 1.394 . S
C680 H696 0.931 . S
C681 C680 1.391 . S
C681 C685 1.376 . S
C682 C680 1.394 . S
C682 C683 1.369 . S
C682 C686 1.531 . S
C683 C682 1.369 . S
C683 C684 1.410 . S
C683 C691 1.503 . S
C684 C683 1.410 . S
C684 C685 1.392 . S
C684 C687 1.511 . S
C685 C681 1.376 . S
C685 C684 1.392 . S
C685 H697 0.929 . S
C686 C682 1.531 . S
C686 H698 0.960 . S
C686 H699 0.962 . S
C686 H700 0.960 . S
C687 C684 1.511 . S
C687 H701 0.961 1_455 S
C687 H702 0.961 . S
C687 H703 0.961 1_455 S
C688 C689 1.370 . S
C688 C690 1.363 . S
C688 H704 0.931 . S
C689 C688 1.370 . S
C689 C693 1.408 1_556 S
C690 C688 1.363 . S
C690 C691 1.370 1_556 S
C690 C694 1.524 . S
C691 C683 1.503 . S
C691 C690 1.370 1_554 S
C691 C692 1.403 . S
C692 C691 1.403 . S
C692 C693 1.404 . S
C692 C695 1.539 . S
C693 C689 1.408 1_554 S
C693 C692 1.404 . S
C693 H705 0.930 . S
C694 C690 1.524 . S
C694 H706 0.956 . S
C694 H707 0.961 . S
C694 H708 0.961 . S
C695 C692 1.539 . S
C695 H709 0.958 . S
C695 H710 0.961 . S
C695 H711 0.960 . S
H696 C680 0.931 . S
H697 C685 0.929 . S
H698 C686 0.960 . S
H699 C686 0.962 . S
H700 C686 0.960 . S
H701 C687 0.961 1_655 S
H702 C687 0.961 . S
H703 C687 0.961 1_655 S
H704 C688 0.931 . S
H705 C693 0.930 . S
H706 C694 0.956 . S
H707 C694 0.961 . S
H708 C694 0.961 . S
H709 C695 0.958 . S
H710 C695 0.961 . S
H711 C695 0.960 . S
C712 C713 1.391 . S
C712 C714 1.394 . S
C712 H728 0.931 . S
C713 C712 1.391 . S
C713 C717 1.376 . S
C714 C712 1.394 . S
C714 C715 1.369 . S
C714 C718 1.531 . S
C715 C714 1.369 . S
C715 C716 1.410 . S
C715 C723 1.503 . S
C716 C715 1.410 . S
C716 C717 1.392 . S
C716 C719 1.511 1_554 S
C717 C713 1.376 . S
C717 C716 1.392 . S
C717 H729 0.929 . S
C718 C714 1.531 . S
C718 H730 0.960 . S
C718 H731 0.962 . S
C718 H732 0.960 . S
C719 C716 1.511 1_556 S
C719 H733 0.961 . S
C719 H734 0.961 . S
C719 H735 0.961 . S
C720 C721 1.370 . S
C720 C722 1.363 . S
C720 H736 0.931 . S
C721 C720 1.370 . S
C721 C725 1.408 1_545 S
C722 C720 1.363 . S
C722 C723 1.370 1_556 S
C722 C726 1.522 1_556 S
C723 C715 1.503 . S
C723 C722 1.370 1_554 S
C723 C724 1.403 1_554 S
C724 C723 1.403 1_556 S
C724 C725 1.404 1_545 S
C724 C727 1.539 1_546 S
C725 C721 1.408 1_565 S
C725 C724 1.404 1_565 S
C725 H737 0.930 . S
C726 C722 1.522 1_554 S
C726 H738 0.967 . S
C726 H739 0.958 1_554 S
C726 H740 0.955 1_554 S
C727 C724 1.539 1_564 S
C727 H741 0.958 . S
C727 H742 0.961 1_554 S
C727 H743 0.960 . S
H728 C712 0.931 . S
H729 C717 0.929 . S
H730 C718 0.960 . S
H731 C718 0.962 . S
H732 C718 0.960 . S
H733 C719 0.961 . S
H734 C719 0.961 . S
H735 C719 0.961 . S
H736 C720 0.931 . S
H737 C725 0.930 . S
H738 C726 0.967 . S
H739 C726 0.958 1_556 S
H740 C726 0.955 1_556 S
H741 C727 0.958 . S
H742 C727 0.961 1_556 S
H743 C727 0.960 . S
C744 C745 1.391 . S
C744 C746 1.394 . S
C744 H760 0.931 . S
C745 C744 1.391 . S
C745 C749 1.376 . S
C746 C744 1.394 . S
C746 C747 1.369 . S
C746 C750 1.531 . S
C747 C746 1.369 . S
C747 C748 1.410 . S
C747 C755 1.495 1_554 S
C748 C747 1.410 . S
C748 C749 1.392 . S
C748 C751 1.511 . S
C749 C745 1.376 . S
C749 C748 1.392 . S
C749 H761 0.929 . S
C750 C746 1.531 . S
C750 H762 0.960 . S
C750 H763 0.962 . S
C750 H764 0.960 . S
C751 C748 1.511 . S
C751 H765 0.961 . S
C751 H766 0.961 . S
C751 H767 0.961 1_554 S
C752 C753 1.370 . S
C752 C754 1.363 1_556 S
C752 H768 0.931 1_556 S
C753 C752 1.370 . S
C753 C757 1.408 . S
C754 C752 1.363 1_554 S
C754 C755 1.364 1_554 S
C754 C758 1.524 . S
C755 C747 1.495 1_556 S
C755 C754 1.364 1_556 S
C755 C756 1.418 . S
C756 C755 1.418 . S
C756 C757 1.404 . S
C756 C759 1.539 . S
C757 C753 1.408 . S
C757 C756 1.404 . S
C757 H769 0.930 . S
C758 C754 1.524 . S
C758 H770 0.956 . S
C758 H771 0.961 . S
C758 H772 0.961 . S
C759 C756 1.539 . S
C759 H773 0.958 . S
C759 H774 0.961 . S
C759 H775 0.960 . S
H760 C744 0.931 . S
H761 C749 0.929 . S
H762 C750 0.960 . S
H763 C750 0.962 . S
H764 C750 0.960 . S
H765 C751 0.961 . S
H766 C751 0.961 . S
H767 C751 0.961 1_556 S
H768 C752 0.931 1_554 S
H769 C757 0.930 . S
H770 C758 0.956 . S
H771 C758 0.961 . S
H772 C758 0.961 . S
H773 C759 0.958 . S
H774 C759 0.961 . S
H775 C759 0.960 . S
C776 C777 1.391 . S
C776 C778 1.394 . S
C776 H792 0.931 . S
C777 C776 1.391 . S
C777 C781 1.376 . S
C778 C776 1.394 . S
C778 C779 1.369 . S
C778 C782 1.531 1_554 S
C779 C778 1.369 . S
C779 C780 1.410 . S
C779 C787 1.503 . S
C780 C779 1.410 . S
C780 C781 1.392 . S
C780 C783 1.511 . S
C781 C777 1.376 . S
C781 C780 1.392 . S
C781 H793 0.929 . S
C782 C778 1.531 1_556 S
C782 H794 0.960 . S
C782 H795 0.962 . S
C782 H796 0.960 . S
C783 C780 1.511 . S
C783 H797 0.961 . S
C783 H798 0.961 . S
C783 H799 0.961 . S
C784 C785 1.370 . S
C784 C786 1.363 1_556 S
C784 H800 0.931 . S
C785 C784 1.370 . S
C785 C789 1.408 . S
C786 C784 1.363 1_554 S
C786 C787 1.370 . S
C786 C790 1.524 . S
C787 C779 1.503 . S
C787 C786 1.370 . S
C787 C788 1.403 1_554 S
C788 C787 1.403 1_556 S
C788 C789 1.404 . S
C788 C791 1.541 . S
C789 C785 1.408 . S
C789 C788 1.404 . S
C789 H801 0.930 . S
C790 C786 1.524 . S
C790 H802 0.956 . S
C790 H803 0.961 . S
C790 H804 0.961 . S
C791 C788 1.541 . S
C791 H805 0.963 . S
C791 H806 0.962 . S
C791 H807 0.952 1_556 S
H792 C776 0.931 . S
H793 C781 0.929 . S
H794 C782 0.960 . S
H795 C782 0.962 . S
H796 C782 0.960 . S
H797 C783 0.961 . S
H798 C783 0.961 . S
H799 C783 0.961 . S
H800 C784 0.931 . S
H801 C789 0.930 . S
H802 C790 0.956 . S
H803 C790 0.961 . S
H804 C790 0.961 . S
H805 C791 0.963 . S
H806 C791 0.962 . S
H807 C791 0.952 1_554 S
C808 C809 1.391 . S
C808 C810 1.394 . S
C808 H824 0.931 . S
C809 C808 1.391 . S
C809 C813 1.376 . S
C810 C808 1.394 . S
C810 C811 1.369 . S
C810 C814 1.531 . S
C811 C810 1.369 . S
C811 C812 1.410 . S
C811 C819 1.503 . S
C812 C811 1.410 . S
C812 C813 1.392 . S
C812 C815 1.511 . S
C813 C809 1.376 . S
C813 C812 1.392 . S
C813 H825 0.929 . S
C814 C810 1.531 . S
C814 H826 0.960 . S
C814 H827 0.962 . S
C814 H828 0.960 . S
C815 C812 1.511 . S
C815 H829 0.961 . S
C815 H830 0.961 . S
C815 H831 0.961 . S
C816 C817 1.370 . S
C816 C818 1.363 . S
C816 H832 0.931 1_655 S
C817 C816 1.370 . S
C817 C821 1.408 . S
C818 C816 1.363 . S
C818 C819 1.370 . S
C818 C822 1.524 1_655 S
C819 C811 1.503 . S
C819 C818 1.370 . S
C819 C820 1.403 . S
C820 C819 1.403 . S
C820 C821 1.404 . S
C820 C823 1.539 . S
C821 C817 1.408 . S
C821 C820 1.404 . S
C821 H833 0.930 . S
C822 C818 1.524 1_455 S
C822 H834 0.956 . S
C822 H835 0.961 . S
C822 H836 0.961 . S
C823 C820 1.539 . S
C823 H837 0.958 . S
C823 H838 0.961 . S
C823 H839 0.960 . S
H824 C808 0.931 . S
H825 C813 0.929 . S
H826 C814 0.960 . S
H827 C814 0.962 . S
H828 C814 0.960 . S
H829 C815 0.961 . S
H830 C815 0.961 . S
H831 C815 0.961 . S
H832 C816 0.931 1_455 S
H833 C821 0.930 . S
H834 C822 0.956 . S
H835 C822 0.961 . S
H836 C822 0.961 . S
H837 C823 0.958 . S
H838 C823 0.961 . S
H839 C823 0.960 . S
C840 C841 1.391 . S
C840 C842 1.394 . S
C840 H856 0.931 1_565 S
C841 C840 1.391 . S
C841 C845 1.376 . S
C842 C840 1.394 . S
C842 C843 1.369 . S
C842 C846 1.531 1_565 S
C843 C842 1.369 . S
C843 C844 1.410 . S
C843 C851 1.503 . S
C844 C843 1.410 . S
C844 C845 1.392 . S
C844 C847 1.511 . S
C845 C841 1.376 . S
C845 C844 1.392 . S
C845 H857 0.929 . S
C846 C842 1.531 1_545 S
C846 H858 0.960 . S
C846 H859 0.962 . S
C846 H860 0.960 . S
C847 C844 1.511 . S
C847 H861 0.961 . S
C847 H862 0.961 . S
C847 H863 0.961 . S
C848 C849 1.370 . S
C848 C850 1.363 . S
C848 H864 0.931 . S
C849 C848 1.370 . S
C849 C853 1.408 . S
C850 C848 1.363 . S
C850 C851 1.370 . S
C850 C854 1.524 . S
C851 C843 1.503 . S
C851 C850 1.370 . S
C851 C852 1.403 . S
C852 C851 1.403 . S
C852 C853 1.404 . S
C852 C855 1.539 . S
C853 C849 1.408 . S
C853 C852 1.404 . S
C853 H865 0.930 . S
C854 C850 1.524 . S
C854 H866 0.956 . S
C854 H867 0.961 . S
C854 H868 0.961 . S
C855 C852 1.539 . S
C855 H869 0.972 . S
C855 H870 0.961 . S
C855 H871 0.960 . S
H856 C840 0.931 1_545 S
H857 C845 0.929 . S
H858 C846 0.960 . S
H859 C846 0.962 . S
H860 C846 0.960 . S
H861 C847 0.961 . S
H862 C847 0.961 . S
H863 C847 0.961 . S
H864 C848 0.931 . S
H865 C853 0.930 . S
H866 C854 0.956 . S
H867 C854 0.961 . S
H868 C854 0.961 . S
H869 C855 0.972 . S
H870 C855 0.961 . S
H871 C855 0.960 . S
C872 C873 1.391 . S
C872 C874 1.394 . S
C872 H888 0.931 . S
C873 C872 1.391 . S
C873 C877 1.376 . S
C874 C872 1.394 . S
C874 C875 1.369 . S
C874 C878 1.531 . S
C875 C874 1.369 . S
C875 C876 1.410 . S
C875 C883 1.503 . S
C876 C875 1.410 . S
C876 C877 1.392 . S
C876 C879 1.511 . S
C877 C873 1.376 . S
C877 C876 1.392 . S
C877 H889 0.929 . S
C878 C874 1.531 . S
C878 H890 0.960 . S
C878 H891 0.962 . S
C878 H892 0.960 . S
C879 C876 1.511 . S
C879 H893 0.961 . S
C879 H894 0.961 . S
C879 H895 0.961 . S
C880 C881 1.370 . S
C880 C882 1.363 . S
C880 H896 0.931 . S
C881 C880 1.370 . S
C881 C885 1.408 . S
C882 C880 1.363 . S
C882 C883 1.370 . S
C882 C886 1.524 . S
C883 C875 1.503 . S
C883 C882 1.370 . S
C883 C884 1.403 . S
C884 C883 1.403 . S
C884 C885 1.404 . S
C884 C887 1.539 . S
C885 C881 1.408 . S
C885 C884 1.404 . S
C885 H897 0.930 . S
C886 C882 1.524 . S
C886 H898 0.956 . S
C886 H899 0.961 . S
C886 H900 0.961 . S
C887 C884 1.539 . S
C887 H901 0.958 . S
C887 H902 0.961 . S
C887 H903 0.960 . S
H888 C872 0.931 . S
H889 C877 0.929 . S
H890 C878 0.960 . S
H891 C878 0.962 . S
H892 C878 0.960 . S
H893 C879 0.961 . S
H894 C879 0.961 . S
H895 C879 0.961 . S
H896 C880 0.931 . S
H897 C885 0.930 . S
H898 C886 0.956 . S
H899 C886 0.961 . S
H900 C886 0.961 . S
H901 C887 0.958 . S
H902 C887 0.961 . S
H903 C887 0.960 . S
C904 C905 1.391 . S
C904 C906 1.394 . S
C904 H920 0.931 . S
C905 C904 1.391 . S
C905 C909 1.376 . S
C906 C904 1.394 . S
C906 C907 1.369 . S
C906 C910 1.531 . S
C907 C906 1.369 . S
C907 C908 1.410 . S
C907 C915 1.503 . S
C908 C907 1.410 . S
C908 C909 1.392 . S
C908 C911 1.511 . S
C909 C905 1.376 . S
C909 C908 1.392 . S
C909 H921 0.929 . S
C910 C906 1.531 . S
C910 H922 0.960 . S
C910 H923 0.962 . S
C910 H924 0.960 . S
C911 C908 1.511 . S
C911 H925 0.961 . S
C911 H926 0.961 . S
C911 H927 0.961 . S
C912 C913 1.370 . S
C912 C914 1.363 . S
C912 H928 0.931 . S
C913 C912 1.370 . S
C913 C917 1.408 . S
C914 C912 1.363 . S
C914 C915 1.370 . S
C914 C918 1.524 . S
C915 C907 1.503 . S
C915 C914 1.370 . S
C915 C916 1.403 . S
C916 C915 1.403 . S
C916 C917 1.404 . S
C916 C919 1.539 . S
C917 C913 1.408 . S
C917 C916 1.404 . S
C917 H929 0.930 . S
C918 C914 1.524 . S
C918 H930 0.956 . S
C918 H931 0.961 . S
C918 H932 0.961 . S
C919 C916 1.539 . S
C919 H933 0.958 . S
C919 H934 0.961 . S
C919 H935 0.960 . S
H920 C904 0.931 . S
H921 C909 0.929 . S
H922 C910 0.960 . S
H923 C910 0.962 . S
H924 C910 0.960 . S
H925 C911 0.961 . S
H926 C911 0.961 . S
H927 C911 0.961 . S
H928 C912 0.931 . S
H929 C917 0.930 . S
H930 C918 0.956 . S
H931 C918 0.961 . S
H932 C918 0.961 . S
H933 C919 0.958 . S
H934 C919 0.961 . S
H935 C919 0.960 . S
C169 C74 1.569 . S
C177 C89 1.579 . S
C209 C124 1.650 . S
C201 C85 1.622 . S
C241 C129 1.266 . S
C233 C52 1.267 . S
C273 C149 1.487 . S
C265 C63 1.483 . S
C305 C97 1.575 1_565 S
C297 C30 1.506 1_556 S
C329 C41 1.532 1_556 S
C337 C114 1.649 . S
C361 C8 1.275 1_556 S
C369 C137 1.272 . S
C393 C19 1.399 . S
C401 C157 1.486 1_655 S
C433 C107 1.321 . S
C425 C62 1.373 . S
C465 C116 1.034 . S
C457 C73 1.055 . S
C497 C147 1.436 . S
C489 C84 1.466 . S
C521 C51 1.056 . S
C529 C167 1.024 . S
C553 C18 1.296 . S
C561 C96 1.345 1_655 S
C593 C127 1.022 1_565 S
C585 C29 0.986 1_556 S
C625 C136 1.451 . S
C617 C40 1.346 1_556 S
C649 C7 0.995 . S
C657 C156 1.011 . S
C681 C60 1.354 . S
C689 C94 1.507 . S
C713 C71 1.365 . S
C721 C117 1.506 . S
C753 C134 1.646 . S
C745 C82 1.518 . S
C785 C154 1.585 . S
C777 C49 1.308 . S
C809 C16 1.265 . S
C817 C104 1.519 . S
C849 C109 1.510 . S
C841 C27 1.129 . S
C881 C144 1.636 . S
C873 C38 1.263 . S
C905 C5 1.369 . S
C913 C164 1.595 . S
