# Generated by pormake.
# Topology pyr, (3,6)-cn, num edge types: 1
# Building blocks:
#     Node 0, Type 0, BuildingBlock: OLANEW_clean_sbu_2, # of connection points: 3
#     Node 1, Type 0, BuildingBlock: OLANEW_clean_sbu_2, # of connection points: 3
#     Node 2, Type 0, BuildingBlock: OLANEW_clean_sbu_2, # of connection points: 3
#     Node 3, Type 0, BuildingBlock: OLANEW_clean_sbu_2, # of connection points: 3
#     Node 4, Type 0, BuildingBlock: OLANEW_clean_sbu_2, # of connection points: 3
#     Node 5, Type 0, BuildingBlock: OLANEW_clean_sbu_2, # of connection points: 3
#     Node 6, Type 0, BuildingBlock: OLANEW_clean_sbu_2, # of connection points: 3
#     Node 7, Type 0, BuildingBlock: OLANEW_clean_sbu_2, # of connection points: 3
#     Node 8, Type 1, BuildingBlock: PAMTOO_clean_sbu_0, # of connection points: 6
#     Node 9, Type 1, BuildingBlock: PAMTOO_clean_sbu_0, # of connection points: 6
#     Node 10, Type 1, BuildingBlock: PAMTOO_clean_sbu_0, # of connection points: 6
#     Node 11, Type 1, BuildingBlock: PAMTOO_clean_sbu_0, # of connection points: 6
#     Edge 12, Type (0, 1), BuildingBlock: MIFKUJ_clean_linker_0, # of connection points: 2
#     Edge 13, Type (0, 1), BuildingBlock: MIFKUJ_clean_linker_0, # of connection points: 2
#     Edge 14, Type (0, 1), BuildingBlock: MIFKUJ_clean_linker_0, # of connection points: 2
#     Edge 15, Type (0, 1), BuildingBlock: MIFKUJ_clean_linker_0, # of connection points: 2
#     Edge 16, Type (0, 1), BuildingBlock: MIFKUJ_clean_linker_0, # of connection points: 2
#     Edge 17, Type (0, 1), BuildingBlock: MIFKUJ_clean_linker_0, # of connection points: 2
#     Edge 18, Type (0, 1), BuildingBlock: MIFKUJ_clean_linker_0, # of connection points: 2
#     Edge 19, Type (0, 1), BuildingBlock: MIFKUJ_clean_linker_0, # of connection points: 2
#     Edge 20, Type (0, 1), BuildingBlock: MIFKUJ_clean_linker_0, # of connection points: 2
#     Edge 21, Type (0, 1), BuildingBlock: MIFKUJ_clean_linker_0, # of connection points: 2
#     Edge 22, Type (0, 1), BuildingBlock: MIFKUJ_clean_linker_0, # of connection points: 2
#     Edge 23, Type (0, 1), BuildingBlock: MIFKUJ_clean_linker_0, # of connection points: 2
#     Edge 24, Type (0, 1), BuildingBlock: MIFKUJ_clean_linker_0, # of connection points: 2
#     Edge 25, Type (0, 1), BuildingBlock: MIFKUJ_clean_linker_0, # of connection points: 2
#     Edge 26, Type (0, 1), BuildingBlock: MIFKUJ_clean_linker_0, # of connection points: 2
#     Edge 27, Type (0, 1), BuildingBlock: MIFKUJ_clean_linker_0, # of connection points: 2
#     Edge 28, Type (0, 1), BuildingBlock: MIFKUJ_clean_linker_0, # of connection points: 2
#     Edge 29, Type (0, 1), BuildingBlock: MIFKUJ_clean_linker_0, # of connection points: 2
#     Edge 30, Type (0, 1), BuildingBlock: MIFKUJ_clean_linker_0, # of connection points: 2
#     Edge 31, Type (0, 1), BuildingBlock: MIFKUJ_clean_linker_0, # of connection points: 2
#     Edge 32, Type (0, 1), BuildingBlock: MIFKUJ_clean_linker_0, # of connection points: 2
#     Edge 33, Type (0, 1), BuildingBlock: MIFKUJ_clean_linker_0, # of connection points: 2
#     Edge 34, Type (0, 1), BuildingBlock: MIFKUJ_clean_linker_0, # of connection points: 2
#     Edge 35, Type (0, 1), BuildingBlock: MIFKUJ_clean_linker_0, # of connection points: 2
# Relax obj value: 0.097
# Max RMSD: 0.205
# Mean RMSD: 0.126
data_MOF--net-pyr--node1-OLANEW_clean_sbu_2--node2-PAMTOO_clean_sbu_0--edge1-MIFKUJ_clean_linker_0
_symmetry_space_group_name_H-M    P1
_symmetry_Int_Tables_number       1
_symmetry_cell_setting            triclinic
loop_
_symmetry_equiv_pos_as_xyz
'x, y, z'
_cell_length_a     50.102385
_cell_length_b     54.161601
_cell_length_c     53.793258
_cell_angle_alpha  93.848001
_cell_angle_beta   89.17959
_cell_angle_gamma 105.42652
loop_
_atom_site_label
_atom_site_type_symbol
_atom_site_fract_x
_atom_site_fract_y
_atom_site_fract_z
_atom_type_partial_charge
O0 O 0.36378 0.27879 0.15965 0.0
Cd1 Cd 0.34552 0.31401 0.17706 0.0
O2 O 0.33536 0.2549 0.18507 0.0
Cd3 Cd 0.31794 0.22158 0.20663 0.0
O4 O 0.29517 0.19828 0.23559 0.0
C5 C 0.28967 0.21027 0.2553 0.0
O6 O 0.29831 0.23545 0.2572 0.0
C7 C 0.35441 0.25717 0.16884 0.0
C8 C 0.30137 0.32398 0.15211 0.0
O9 O 0.32649 0.33592 0.14746 0.0
O10 O 0.29715 0.3067 0.16796 0.0
O11 O 0.21343 0.76663 0.76928 0.0
Cd12 Cd 0.19144 0.74526 0.73056 0.0
O13 O 0.19239 0.79763 0.77157 0.0
Cd14 Cd 0.16623 0.78628 0.73845 0.0
O15 O 0.13946 0.79854 0.7129 0.0
C16 C 0.15009 0.81048 0.69409 0.0
O17 O 0.17651 0.81327 0.68944 0.0
C18 C 0.20962 0.78691 0.78029 0.0
C19 C 0.22836 0.72127 0.70632 0.0
O20 O 0.22863 0.74439 0.7023 0.0
O21 O 0.21009 0.70923 0.72128 0.0
O22 O 0.68958 0.39754 0.85634 0.0
Cd23 Cd 0.6454 0.38205 0.83251 0.0
O24 O 0.68203 0.37113 0.88726 0.0
Cd25 Cd 0.64265 0.34091 0.8835 0.0
O26 O 0.61846 0.30511 0.89964 0.0
C27 C 0.63235 0.2911 0.90846 0.0
O28 O 0.65947 0.2983 0.90662 0.0
C29 C 0.69725 0.3902 0.87653 0.0
C30 C 0.63724 0.4089 0.79087 0.0
O31 O 0.63253 0.41663 0.81314 0.0
O32 O 0.64665 0.38906 0.78818 0.0
O33 O 0.91455 0.715 0.34872 0.0
Cd34 Cd 0.89123 0.67228 0.3297 0.0
O35 O 0.91752 0.69884 0.38472 0.0
Cd36 Cd 0.89119 0.66058 0.3748 0.0
O37 O 0.85166 0.63918 0.38958 0.0
C38 C 0.83983 0.65325 0.40313 0.0
O39 O 0.8518 0.678 0.406 0.0
C40 C 0.92247 0.71804 0.37138 0.0
C41 C 0.91079 0.6579 0.28342 0.0
O42 O 0.89147 0.66941 0.28489 0.0
O43 O 0.92141 0.65389 0.30381 0.0
O44 O 0.71313 0.75181 0.80698 0.0
Cd45 Cd 0.68982 0.71956 0.83536 0.0
O46 O 0.70496 0.78222 0.83234 0.0
Cd47 Cd 0.7024 0.82036 0.84666 0.0
O48 O 0.68805 0.84802 0.87127 0.0
C49 C 0.67282 0.86125 0.8634 0.0
O50 O 0.66667 0.85924 0.83955 0.0
C51 C 0.71549 0.77554 0.81217 0.0
C52 C 0.72841 0.70037 0.85914 0.0
O53 O 0.71791 0.69035 0.83803 0.0
O54 O 0.72041 0.71933 0.86915 0.0
O55 O 0.81358 0.24636 0.36608 0.0
Cd56 Cd 0.84523 0.26796 0.3997 0.0
O57 O 0.83111 0.27606 0.34006 0.0
Cd58 Cd 0.84562 0.30403 0.37127 0.0
O59 O 0.82668 0.32891 0.39504 0.0
C60 C 0.80835 0.31834 0.4104 0.0
O61 O 0.80369 0.29359 0.4129 0.0
C62 C 0.81551 0.25402 0.34412 0.0
C63 C 0.86884 0.23236 0.41956 0.0
O64 O 0.87833 0.2432 0.39963 0.0
O65 O 0.84846 0.23865 0.43044 0.0
O66 O 0.42115 0.72931 0.22901 0.0
Cd67 Cd 0.40915 0.68398 0.24103 0.0
O68 O 0.3813 0.72691 0.21028 0.0
Cd69 Cd 0.35603 0.68731 0.21278 0.0
O70 O 0.31659 0.66234 0.19787 0.0
C71 C 0.31516 0.64338 0.18216 0.0
O72 O 0.33798 0.63707 0.17568 0.0
C73 C 0.40558 0.73968 0.21707 0.0
C74 C 0.42736 0.67007 0.28646 0.0
O75 O 0.44375 0.67504 0.26785 0.0
O76 O 0.40289 0.6728 0.28415 0.0
O77 O 0.16184 0.40542 0.74605 0.0
Cd78 Cd 0.17334 0.38361 0.70763 0.0
O79 O 0.13784 0.36886 0.76011 0.0
Cd80 Cd 0.14452 0.34354 0.72857 0.0
O81 O 0.1383 0.30859 0.70398 0.0
C82 C 0.11336 0.29655 0.6988 0.0
O83 O 0.09342 0.30618 0.70765 0.0
C84 C 0.1469 0.39317 0.7629 0.0
C85 C 0.22058 0.4114 0.68369 0.0
O86 O 0.19661 0.41416 0.6788 0.0
O87 O 0.2222 0.39576 0.70011 0.0
Dy88 Dy 0.02738 0.00975 0.52137 0.0
Dy89 Dy 0.97175 0.99887 0.55718 0.0
C90 C 0.02297 0.04871 0.56738 0.0
O91 O 0.0292 0.97704 0.54368 0.0
O92 O 0.00219 0.98354 0.5771 0.0
O93 O 0.07169 0.0175 0.51566 0.0
O94 O 0.04352 0.0096 0.48412 0.0
O95 O 0.97011 0.96186 0.53546 0.0
O96 O 0.99262 0.98075 0.50175 0.0
O97 O 0.9629 0.01795 0.52361 0.0
O98 O 0.00715 0.0406 0.51453 0.0
O99 O 0.92762 0.98334 0.56156 0.0
O100 O 0.95256 0.0051 0.59237 0.0
C101 C 0.02092 0.97317 0.56671 0.0
O102 O 0.03948 0.03747 0.55456 0.0
O103 O 0.99595 0.03928 0.56687 0.0
C104 C 0.08876 0.03496 0.47748 0.0
C105 C 0.12357 0.068 0.44521 0.0
C106 C 0.10042 0.07451 0.45608 0.0
C107 C 0.08306 0.05804 0.47208 0.0
C108 C 0.11242 0.02899 0.46754 0.0
C109 C 0.1297 0.04535 0.45157 0.0
C110 C 0.06926 0.01571 0.49146 0.0
C111 C 0.97678 0.96067 0.51184 0.0
C112 C 0.98027 0.03731 0.51348 0.0
C113 C 0.91199 0.97403 0.60266 0.0
C114 C 0.88126 0.9417 0.63788 0.0
C115 C 0.89729 0.93218 0.61983 0.0
C116 C 0.91266 0.94827 0.60239 0.0
C117 C 0.896 0.98351 0.62054 0.0
C118 C 0.8808 0.96754 0.638 0.0
C119 C 0.92803 0.99167 0.58494 0.0
H120 H 0.09511 0.09177 0.45143 0.0
H121 H 0.06477 0.06289 0.47957 0.0
H122 H 0.1171 0.01124 0.47155 0.0
H123 H 0.14763 0.04004 0.44384 0.0
H124 H 0.89826 0.91242 0.61942 0.0
H125 H 0.9251 0.94068 0.58881 0.0
H126 H 0.89527 0.00336 0.62101 0.0
H127 H 0.86839 0.97537 0.65141 0.0
Dy128 Dy 0.47493 0.01255 0.05132 0.0
Dy129 Dy 0.53032 0.02861 0.08659 0.0
C130 C 0.48361 0.97683 0.0926 0.0
O131 O 0.46445 0.03279 0.08632 0.0
O132 O 0.5076 0.05798 0.09719 0.0
O133 O 0.43117 0.99423 0.04758 0.0
O134 O 0.45406 0.01368 0.01674 0.0
O135 O 0.53968 0.05572 0.05586 0.0
O136 O 0.49512 0.05356 0.04431 0.0
O137 O 0.5352 0.99644 0.06026 0.0
O138 O 0.50824 0.00213 0.02829 0.0
O139 O 0.57472 0.0394 0.09179 0.0
O140 O 0.54733 0.03098 0.12354 0.0
C141 C 0.48053 0.05344 0.09787 0.0
O142 O 0.47706 0.97681 0.06907 0.0
O143 O 0.4981 0.998 0.1044 0.0
C144 C 0.41517 0.979 0.00647 0.0
C145 C 0.38308 0.94126 0.97243 0.0
C146 C 0.3932 0.93417 0.99438 0.0
C147 C 0.40914 0.95291 0.0113 0.0
C148 C 0.40563 0.986 0.98436 0.0
C149 C 0.38985 0.96736 0.96747 0.0
C150 C 0.43046 0.9995 0.02431 0.0
C151 C 0.52183 0.06478 0.04405 0.0
C152 C 0.52813 0.99323 0.03662 0.0
C153 C 0.59166 0.05866 0.13148 0.0
C154 C 0.62744 0.09623 0.16304 0.0
C155 C 0.61604 0.10327 0.1417 0.0
C156 C 0.59811 0.08457 0.12604 0.0
C157 C 0.60319 0.05165 0.15256 0.0
C158 C 0.6209 0.07021 0.16819 0.0
C159 C 0.57285 0.03831 0.11593 0.0
H160 H 0.38825 0.91423 0.99876 0.0
H161 H 0.41638 0.94703 0.02824 0.0
H162 H 0.41017 0.00601 0.98024 0.0
H163 H 0.38291 0.97344 0.95049 0.0
H164 H 0.62065 0.12321 0.13737 0.0
H165 H 0.58924 0.09031 0.10985 0.0
H166 H 0.59846 0.03171 0.15697 0.0
H167 H 0.62972 0.06412 0.18421 0.0
Dy168 Dy 0.5231 0.50888 0.52339 0.0
Dy169 Dy 0.52762 0.56388 0.55492 0.0
C170 C 0.54641 0.51826 0.57886 0.0
O171 O 0.48684 0.50194 0.54895 0.0
O172 O 0.48273 0.543 0.55245 0.0
O173 O 0.51364 0.4675 0.52076 0.0
O174 O 0.52604 0.48864 0.48784 0.0
O175 O 0.52776 0.57039 0.51426 0.0
O176 O 0.49983 0.53107 0.50223 0.0
O177 O 0.57154 0.56777 0.54389 0.0
O178 O 0.56473 0.53374 0.51427 0.0
O179 O 0.52115 0.60178 0.55624 0.0
O180 O 0.5346 0.58792 0.58928 0.0
C181 C 0.47244 0.5184 0.55495 0.0
O182 O 0.54967 0.50855 0.55634 0.0
O183 O 0.53327 0.53624 0.58249 0.0
C184 C 0.54347 0.45283 0.49218 0.0
C185 C 0.58734 0.43038 0.48086 0.0
C186 C 0.5805 0.43545 0.50575 0.0
C187 C 0.5589 0.44671 0.51137 0.0
C188 C 0.5499 0.44726 0.46731 0.0
C189 C 0.57172 0.43624 0.46169 0.0
C190 C 0.52208 0.46661 0.49772 0.0
C191 C 0.51007 0.55548 0.49834 0.0
C192 C 0.58057 0.55456 0.52579 0.0
C193 C 0.50245 0.61263 0.59414 0.0
C194 C 0.45725 0.62743 0.61637 0.0
C195 C 0.45423 0.60197 0.6069 0.0
C196 C 0.47665 0.59465 0.59598 0.0
C197 C 0.50588 0.63779 0.60419 0.0
C198 C 0.48352 0.64512 0.61533 0.0
C199 C 0.52505 0.6056 0.58021 0.0
H200 H 0.59237 0.43139 0.5209 0.0
H201 H 0.55469 0.45106 0.53075 0.0
H202 H 0.53838 0.45189 0.45222 0.0
H203 H 0.57639 0.4323 0.44234 0.0
H204 H 0.43434 0.58786 0.6071 0.0
H205 H 0.47363 0.5751 0.58836 0.0
H206 H 0.52569 0.65189 0.60298 0.0
H207 H 0.48677 0.66474 0.62288 0.0
Dy208 Dy 0.0153 0.54482 0.00642 0.0
Dy209 Dy 0.01007 0.49059 0.03236 0.0
C210 C 0.98658 0.53514 0.05837 0.0
O211 O 0.04878 0.55293 0.0354 0.0
O212 O 0.05459 0.51242 0.03584 0.0
O213 O 0.01921 0.58557 0.00971 0.0
O214 O 0.01687 0.56555 0.97324 0.0
O215 O 0.02414 0.48562 0.99317 0.0
O216 O 0.04606 0.52745 0.98667 0.0
O217 O 0.96723 0.48803 0.01881 0.0
O218 O 0.98029 0.51532 0.98745 0.0
O219 O 0.002 0.44923 0.03012 0.0
O220 O 0.01295 0.47089 0.06542 0.0
C221 C 0.06338 0.53726 0.04127 0.0
O222 O 0.98333 0.54244 0.03612 0.0
O223 O 1.00094 0.51857 0.06152 0.0
C224 C 0.99422 0.59832 0.9782 0.0
C225 C 0.95089 0.61712 0.96121 0.0
C226 C 0.94878 0.60585 0.9842 0.0
C227 C 0.97018 0.59637 0.99255 0.0
C228 C 0.99661 0.60999 0.9555 0.0
C229 C 0.97509 0.61926 0.94703 0.0
C230 C 0.01602 0.58674 0.98582 0.0
C231 C 0.04169 0.50281 0.98066 0.0
C232 C 0.96189 0.49688 0.99778 0.0
C233 C 0.03084 0.43542 0.05734 0.0
C234 C 0.07403 0.41333 0.06833 0.0
C235 C 0.07662 0.42969 0.04866 0.0
C236 C 0.05529 0.44072 0.04329 0.0
C237 C 0.02788 0.41879 0.07664 0.0
C238 C 0.04926 0.40782 0.0821 0.0
C239 C 0.00938 0.44868 0.05319 0.0
H240 H 0.93023 0.60368 0.99537 0.0
H241 H 0.96768 0.58709 0.00998 0.0
H242 H 0.01492 0.61152 0.94411 0.0
H243 H 0.97735 0.62804 0.92934 0.0
H244 H 0.0952 0.43409 0.03744 0.0
H245 H 0.05805 0.45372 0.02843 0.0
H246 H 0.00928 0.41475 0.08786 0.0
H247 H 0.04669 0.39565 0.09761 0.0
H248 H 0.2676 0.15839 0.25706 0.0
H249 H 0.23905 0.13572 0.29001 0.0
H250 H 0.24528 0.20779 0.33192 0.0
H251 H 0.2741 0.23059 0.29925 0.0
H252 H 0.25211 0.17203 0.36169 0.0
H253 H 0.1867 0.17784 0.29998 0.0
H254 H 0.16615 0.17309 0.25797 0.0
H255 H 0.15409 0.09148 0.25632 0.0
H256 H 0.17493 0.09578 0.2982 0.0
H257 H 0.14281 0.1205 0.44627 0.0
H258 H 0.17067 0.14621 0.41451 0.0
H259 H 0.17025 0.07696 0.36977 0.0
H260 H 0.14209 0.0513 0.40105 0.0
H261 H 0.15943 0.11333 0.34207 0.0
H262 H 0.22656 0.10822 0.40355 0.0
H263 H 0.24665 0.1134 0.44577 0.0
H264 H 0.25473 0.19446 0.44805 0.0
H265 H 0.23431 0.1897 0.40594 0.0
C266 C 0.26295 0.16942 0.27331 0.0
C267 C 0.27302 0.19631 0.27547 0.0
C268 C 0.24653 0.15645 0.29207 0.0
C269 C 0.23974 0.17011 0.31327 0.0
C270 C 0.25021 0.19689 0.3157 0.0
C271 C 0.26663 0.20988 0.29696 0.0
C272 C 0.22168 0.15646 0.3329 0.0
C273 C 0.23168 0.15948 0.35747 0.0
C274 C 0.19517 0.13983 0.32733 0.0
C275 C 0.18263 0.13716 0.30213 0.0
C276 C 0.17988 0.1589 0.29057 0.0
C277 C 0.16814 0.15629 0.2668 0.0
C278 C 0.15889 0.13201 0.25446 0.0
C279 C 0.1613 0.11028 0.26589 0.0
C280 C 0.17306 0.11279 0.28966 0.0
C281 C 0.14857 0.11081 0.42959 0.0
C282 C 0.14047 0.08388 0.42624 0.0
C283 C 0.16461 0.12549 0.41156 0.0
C284 C 0.17272 0.11345 0.3899 0.0
C285 C 0.16429 0.08662 0.38638 0.0
C286 C 0.14841 0.07198 0.40438 0.0
C287 C 0.19001 0.12867 0.37076 0.0
C288 C 0.17982 0.12597 0.34628 0.0
C289 C 0.21627 0.14566 0.37644 0.0
C290 C 0.22863 0.14856 0.40171 0.0
C291 C 0.23241 0.12712 0.41313 0.0
C292 C 0.24389 0.12999 0.43703 0.0
C293 C 0.25189 0.15424 0.44961 0.0
C294 C 0.24848 0.17569 0.4383 0.0
C295 C 0.23697 0.17292 0.41441 0.0
H296 H 0.26078 0.15642 0.46811 0.0
H297 H 0.14979 0.13003 0.23606 0.0
H298 H 0.24826 0.76967 0.80475 0.0
H299 H 0.27851 0.79206 0.83921 0.0
H300 H 0.23945 0.85411 0.84017 0.0
H301 H 0.20926 0.83204 0.80589 0.0
H302 H 0.29601 0.87077 0.83832 0.0
H303 H 0.22632 0.81304 0.88525 0.0
H304 H 0.19766 0.77071 0.89631 0.0
H305 H 0.27094 0.74775 0.91242 0.0
H306 H 0.30006 0.78987 0.90112 0.0
H307 H 0.33678 0.94502 0.94868 0.0
H308 H 0.309 0.91486 0.91732 0.0
H309 H 0.3599 0.86296 0.92528 0.0
H310 H 0.38832 0.89342 0.95658 0.0
H311 H 0.3022 0.83826 0.92156 0.0
H312 H 0.37183 0.89683 0.87754 0.0
H313 H 0.40066 0.9392 0.8668 0.0
H314 H 0.32807 0.96018 0.84469 0.0
H315 H 0.29873 0.91807 0.85569 0.0
C316 C 0.24592 0.78795 0.81247 0.0
C317 C 0.22641 0.79911 0.80247 0.0
C318 C 0.26317 0.80068 0.83219 0.0
C319 C 0.2612 0.82473 0.8422 0.0
C320 C 0.24135 0.83559 0.83263 0.0
C321 C 0.22406 0.82289 0.81307 0.0
C322 C 0.28061 0.8394 0.86179 0.0
C323 C 0.29719 0.86374 0.85658 0.0
C324 C 0.28286 0.82979 0.88527 0.0
C325 C 0.26537 0.80448 0.89204 0.0
C326 C 0.23633 0.79888 0.89091 0.0
C327 C 0.22 0.77495 0.89728 0.0
C328 C 0.23247 0.75652 0.90498 0.0
C329 C 0.26131 0.76202 0.9064 0.0
C330 C 0.27774 0.78593 0.90003 0.0
C331 C 0.34222 0.92727 0.94371 0.0
C332 C 0.36506 0.92182 0.95482 0.0
C333 C 0.32622 0.90999 0.92589 0.0
C334 C 0.33267 0.88688 0.91876 0.0
C335 C 0.35467 0.88075 0.93053 0.0
C336 C 0.37083 0.89814 0.9484 0.0
C337 C 0.31692 0.86988 0.89825 0.0
C338 C 0.30119 0.84513 0.9032 0.0
C339 C 0.31548 0.87902 0.87442 0.0
C340 C 0.33305 0.90435 0.86763 0.0
C341 C 0.36198 0.91055 0.87058 0.0
C342 C 0.37842 0.93451 0.86441 0.0
C343 C 0.3662 0.95239 0.85512 0.0
C344 C 0.33751 0.94632 0.85192 0.0
C345 C 0.32096 0.92239 0.85809 0.0
H346 H 0.37897 0.97093 0.85035 0.0
H347 H 0.21979 0.73801 0.90991 0.0
H348 H 0.63371 0.39123 0.74172 0.0
H349 H 0.62017 0.41102 0.70614 0.0
H350 H 0.61336 0.47594 0.75445 0.0
H351 H 0.62574 0.45564 0.79025 0.0
H352 H 0.57201 0.46452 0.72541 0.0
H353 H 0.66861 0.4772 0.7103 0.0
H354 H 0.71258 0.46523 0.70451 0.0
H355 H 0.67838 0.41481 0.64116 0.0
H356 H 0.63407 0.42622 0.64676 0.0
H357 H 0.55588 0.54053 0.6264 0.0
H358 H 0.57366 0.52413 0.66213 0.0
H359 H 0.57842 0.45659 0.61688 0.0
H360 H 0.56188 0.4735 0.58082 0.0
H361 H 0.62191 0.47092 0.64487 0.0
H362 H 0.52379 0.46014 0.66228 0.0
H363 H 0.48195 0.47556 0.66925 0.0
H364 H 0.52236 0.5268 0.72991 0.0
H365 H 0.56451 0.51198 0.7231 0.0
C366 C 0.62955 0.40983 0.74476 0.0
C367 C 0.6309 0.42184 0.76891 0.0
C368 C 0.62193 0.42125 0.72429 0.0
C369 C 0.61605 0.44529 0.72731 0.0
C370 C 0.61772 0.45743 0.75143 0.0
C371 C 0.62493 0.44582 0.77195 0.0
C372 C 0.60713 0.4573 0.70561 0.0
C373 C 0.58323 0.46621 0.70794 0.0
C374 C 0.62133 0.45933 0.68251 0.0
C375 C 0.64793 0.45238 0.6791 0.0
C376 C 0.6704 0.46341 0.69525 0.0
C377 C 0.69539 0.45675 0.69198 0.0
C378 C 0.69824 0.43922 0.67252 0.0
C379 C 0.67613 0.42836 0.65625 0.0
C380 C 0.65108 0.43493 0.65944 0.0
C381 C 0.56069 0.52217 0.62405 0.0
C382 C 0.55727 0.5083 0.6007 0.0
C383 C 0.57074 0.51268 0.6446 0.0
C384 C 0.5769 0.48873 0.64257 0.0
C385 C 0.5738 0.47504 0.61915 0.0
C386 C 0.56424 0.48473 0.59848 0.0
C387 C 0.58669 0.47792 0.66464 0.0
C388 C 0.61074 0.46921 0.66236 0.0
C389 C 0.57288 0.47646 0.68793 0.0
C390 C 0.54736 0.48509 0.69205 0.0
C391 C 0.52378 0.47478 0.67701 0.0
C392 C 0.50001 0.48342 0.68094 0.0
C393 C 0.49955 0.50217 0.69998 0.0
C394 C 0.52278 0.5123 0.71516 0.0
C395 C 0.54658 0.50378 0.71129 0.0
H396 H 0.48122 0.50887 0.70307 0.0
H397 H 0.71761 0.4341 0.67002 0.0
H398 H 0.88946 0.66011 0.23727 0.0
H399 H 0.9018 0.64155 0.19745 0.0
H400 H 0.96397 0.61525 0.2344 0.0
H401 H 0.95193 0.63392 0.27425 0.0
H402 H 0.98277 0.63498 0.19042 0.0
H403 H 0.90165 0.57442 0.21973 0.0
H404 H 0.85362 0.56032 0.23478 0.0
H405 H 0.82381 0.58101 0.16684 0.0
H406 H 0.87175 0.59557 0.15152 0.0
H407 H 1.00134 0.53475 0.1069 0.0
H408 H 0.98761 0.55803 0.14315 0.0
H409 H 0.93512 0.58712 0.09661 0.0
H410 H 0.94911 0.56411 0.05995 0.0
H411 H 0.91055 0.56863 0.14298 0.0
H412 H 0.99233 0.62473 0.11196 0.0
H413 H 0.0405 0.63739 0.09714 0.0
H414 H 0.06957 0.62539 0.16881 0.0
H415 H 0.02153 0.61151 0.18378 0.0
C416 C 0.90592 0.65057 0.23691 0.0
C417 C 0.91961 0.64839 0.25899 0.0
C418 C 0.91286 0.63987 0.21414 0.0
C419 C 0.93357 0.62672 0.21298 0.0
C420 C 0.94789 0.62527 0.23485 0.0
C421 C 0.94093 0.6359 0.25764 0.0
C422 C 0.93981 0.6138 0.18919 0.0
C423 C 0.96705 0.62032 0.18017 0.0
C424 C 0.91912 0.59511 0.17546 0.0
C425 C 0.8903 0.58636 0.18461 0.0
C426 C 0.88487 0.57617 0.2081 0.0
C427 C 0.85766 0.56805 0.21665 0.0
C428 C 0.83568 0.56984 0.20181 0.0
C429 C 0.84087 0.57969 0.17834 0.0
C430 C 0.86805 0.58786 0.1697 0.0
C431 C 0.98666 0.54588 0.10433 0.0
C432 C 0.97633 0.54759 0.0805 0.0
C433 C 0.97895 0.55927 0.12508 0.0
C434 C 0.96055 0.57444 0.12251 0.0
C435 C 0.9494 0.57554 0.09894 0.0
C436 C 0.95744 0.56242 0.07804 0.0
C437 C 0.95357 0.58956 0.14447 0.0
C438 C 0.92622 0.58346 0.15313 0.0
C439 C 0.97419 0.60856 0.1579 0.0
C440 C 0.00321 0.61672 0.1489 0.0
C441 C 0.00894 0.62434 0.12446 0.0
C442 C 0.03626 0.63171 0.11601 0.0
C443 C 0.05809 0.63193 0.13195 0.0
C444 C 0.05264 0.62487 0.15639 0.0
C445 C 0.02536 0.61721 0.16485 0.0
H446 H 0.07924 0.63773 0.12542 0.0
H447 H 0.81463 0.56354 0.20846 0.0
H448 H 0.32861 0.20576 0.16396 0.0
H449 H 0.34981 0.17064 0.15327 0.0
H450 H 0.42964 0.2254 0.14799 0.0
H451 H 0.40823 0.26052 0.15766 0.0
H452 H 0.4255 0.19148 0.11229 0.0
H453 H 0.40804 0.18671 0.19997 0.0
H454 H 0.37953 0.18389 0.23797 0.0
H455 H 0.32757 0.11136 0.20939 0.0
H456 H 0.35554 0.11392 0.17105 0.0
H457 H 0.50666 0.10266 0.11476 0.0
H458 H 0.48518 0.13674 0.12876 0.0
H459 H 0.40433 0.08347 0.12064 0.0
H460 H 0.42557 0.04922 0.10665 0.0
H461 H 0.40926 0.11614 0.16359 0.0
H462 H 0.42899 0.12202 0.07569 0.0
H463 H 0.45855 0.12628 0.03832 0.0
H464 H 0.50875 0.1986 0.06919 0.0
H465 H 0.4798 0.19456 0.10697 0.0
C466 C 0.3507 0.21023 0.1607 0.0
C467 C 0.36686 0.23581 0.16198 0.0
C468 C 0.36285 0.19015 0.15463 0.0
C469 C 0.39151 0.19524 0.15035 0.0
C470 C 0.40753 0.22088 0.15126 0.0
C471 C 0.39529 0.24096 0.15682 0.0
C472 C 0.40485 0.17398 0.14465 0.0
C473 C 0.42224 0.17524 0.12378 0.0
C474 C 0.4003 0.15244 0.15931 0.0
C475 C 0.38374 0.15062 0.18254 0.0
C476 C 0.39044 0.17022 0.20174 0.0
C477 C 0.37438 0.16867 0.22333 0.0
C478 C 0.3517 0.1475 0.22606 0.0
C479 C 0.34512 0.12777 0.20723 0.0
C480 C 0.36108 0.12925 0.18557 0.0
C481 C 0.48432 0.09805 0.11631 0.0
C482 C 0.46783 0.07321 0.10944 0.0
C483 C 0.47208 0.11761 0.12419 0.0
C484 C 0.44315 0.11271 0.1254 0.0
C485 C 0.42669 0.08768 0.11975 0.0
C486 C 0.43889 0.06813 0.11171 0.0
C487 C 0.42998 0.13389 0.13145 0.0
C488 C 0.41258 0.13253 0.15228 0.0
C489 C 0.43484 0.15553 0.11697 0.0
C490 C 0.45237 0.15785 0.0943 0.0
C491 C 0.4465 0.1387 0.07464 0.0
C492 C 0.46313 0.14109 0.05337 0.0
C493 C 0.48554 0.16267 0.05142 0.0
C494 C 0.4914 0.18188 0.07075 0.0
C495 C 0.47489 0.17954 0.0921 0.0
H496 H 0.49829 0.1646 0.0349 0.0
H497 H 0.33927 0.14635 0.24278 0.0
H498 H 0.09804 0.8159 0.70375 0.0
H499 H 0.0738 0.84201 0.68237 0.0
H500 H 0.14113 0.86122 0.63011 0.0
H501 H 0.16578 0.83565 0.65174 0.0
H502 H 0.12804 0.90294 0.64733 0.0
H503 H 0.07699 0.81967 0.6138 0.0
H504 H 0.04913 0.77479 0.61527 0.0
H505 H 0.98578 0.79987 0.65609 0.0
H506 H 0.01344 0.84491 0.65516 0.0
H507 H 0.06634 0.95616 0.555 0.0
H508 H 0.08569 0.9275 0.57779 0.0
H509 H 0.02154 0.9221 0.63304 0.0
H510 H 0.0019 0.95102 0.61029 0.0
H511 H 0.03115 0.87404 0.61644 0.0
H512 H 0.08227 0.9577 0.64833 0.0
H513 H 0.11012 0.0024 0.64552 0.0
H514 H 0.17365 0.97598 0.60638 0.0
H515 H 0.14597 0.9311 0.60863 0.0
C516 C 0.10754 0.82541 0.6875 0.0
C517 C 0.13391 0.82376 0.6795 0.0
C518 C 0.0936 0.84028 0.67525 0.0
C519 C 0.10557 0.85352 0.65455 0.0
C520 C 0.13152 0.85127 0.6461 0.0
C521 C 0.14555 0.83655 0.65843 0.0
C522 C 0.09187 0.87086 0.64252 0.0
C523 C 0.10697 0.89647 0.64029 0.0
C524 C 0.06408 0.8627 0.63402 0.0
C525 C 0.04743 0.83564 0.63465 0.0
C526 C 0.05723 0.8156 0.62329 0.0
C527 C 0.04145 0.79014 0.62398 0.0
C528 C 0.01574 0.78448 0.63583 0.0
C529 C 0.00572 0.80428 0.64696 0.0
C530 C 0.02143 0.82978 0.64633 0.0
C531 C 0.05627 0.94892 0.57199 0.0
C532 C 0.03261 0.95596 0.58088 0.0
C533 C 0.06742 0.93258 0.58502 0.0
C534 C 0.05514 0.92284 0.60715 0.0
C535 C 0.03131 0.92949 0.61598 0.0
C536 C 0.02024 0.9461 0.60305 0.0
C537 C 0.06752 0.90583 0.62098 0.0
C538 C 0.05217 0.8804 0.6236 0.0
C539 C 0.09514 0.91407 0.62973 0.0
C540 C 0.11193 0.94104 0.62846 0.0
C541 C 0.10208 0.96142 0.63894 0.0
C542 C 0.11785 0.98679 0.63748 0.0
C543 C 0.14361 0.99203 0.62572 0.0
C544 C 0.15368 0.9719 0.61546 0.0
C545 C 0.13797 0.94649 0.61684 0.0
H546 H 0.15579 0.01169 0.62461 0.0
H547 H 0.00355 0.76475 0.63634 0.0
H548 H 0.7132 0.38898 0.92455 0.0
H549 H 0.7581 0.40922 0.94384 0.0
H550 H 0.78835 0.44191 0.87465 0.0
H551 H 0.74301 0.42178 0.85507 0.0
H552 H 0.82446 0.41723 0.89739 0.0
H553 H 0.77624 0.48071 0.91949 0.0
H554 H 0.73762 0.49702 0.9361 0.0
H555 H 0.74804 0.47041 0.00782 0.0
H556 H 0.78651 0.45361 0.99154 0.0
H557 H 0.94878 0.50113 0.94941 0.0
H558 H 0.90421 0.48374 0.92832 0.0
H559 H 0.86871 0.45076 0.99595 0.0
H560 H 0.9135 0.46789 0.01722 0.0
H561 H 0.83553 0.477 0.97289 0.0
H562 H 0.88251 0.41289 0.95146 0.0
H563 H 0.91982 0.39449 0.93531 0.0
H564 H 0.91078 0.42023 0.86291 0.0
H565 H 0.8738 0.43934 0.87878 0.0
C566 C 0.72929 0.40056 0.91336 0.0
C567 C 0.72444 0.40371 0.88819 0.0
C568 C 0.75496 0.41222 0.9245 0.0
C569 C 0.77657 0.42719 0.91076 0.0
C570 C 0.77193 0.43046 0.88562 0.0
C571 C 0.74599 0.41905 0.87449 0.0
C572 C 0.8041 0.43871 0.92271 0.0
C573 C 0.82704 0.43072 0.91359 0.0
C574 C 0.80724 0.45564 0.94435 0.0
C575 C 0.7841 0.46569 0.95422 0.0
C576 C 0.77014 0.47813 0.93875 0.0
C577 C 0.74831 0.48751 0.94811 0.0
C578 C 0.74033 0.4847 0.97298 0.0
C579 C 0.75422 0.47255 0.98855 0.0
C580 C 0.77606 0.46312 0.97927 0.0
C581 C 0.93154 0.49015 0.95986 0.0
C582 C 0.93475 0.4859 0.98505 0.0
C583 C 0.90607 0.48014 0.94771 0.0
C584 C 0.88312 0.46586 0.9605 0.0
C585 C 0.88615 0.46172 0.9857 0.0
C586 C 0.91178 0.47143 0.99781 0.0
C587 C 0.85595 0.45554 0.94757 0.0
C588 C 0.83305 0.4637 0.95655 0.0
C589 C 0.85283 0.43866 0.92587 0.0
C590 C 0.87561 0.42786 0.91641 0.0
C591 C 0.88874 0.41498 0.93219 0.0
C592 C 0.90978 0.40435 0.92307 0.0
C593 C 0.91769 0.40623 0.89811 0.0
C594 C 0.90464 0.41882 0.88225 0.0
C595 C 0.88367 0.42959 0.89131 0.0
H596 H 0.93386 0.39785 0.89106 0.0
H597 H 0.72343 0.49198 0.9802 0.0
H598 H 0.81088 0.6026 0.40402 0.0
H599 H 0.76801 0.5848 0.42657 0.0
H600 H 0.76657 0.66112 0.45404 0.0
H601 H 0.80952 0.67899 0.43198 0.0
H602 H 0.7552 0.62865 0.49058 0.0
H603 H 0.72436 0.62915 0.40611 0.0
H604 H 0.72351 0.61879 0.36072 0.0
H605 H 0.70031 0.53827 0.37267 0.0
H606 H 0.70137 0.54817 0.41815 0.0
H607 H 0.61485 0.60335 0.53092 0.0
H608 H 0.66033 0.61915 0.51187 0.0
H609 H 0.65667 0.54246 0.48161 0.0
H610 H 0.61097 0.52676 0.49988 0.0
H611 H 0.67145 0.57414 0.44695 0.0
H612 H 0.70065 0.57312 0.53129 0.0
H613 H 0.70152 0.58314 0.57672 0.0
H614 H 0.72795 0.66375 0.56546 0.0
H615 H 0.72689 0.65423 0.51994 0.0
C616 C 0.80139 0.61558 0.41481 0.0
C617 C 0.81357 0.64221 0.41614 0.0
C618 C 0.77687 0.60539 0.42765 0.0
C619 C 0.76398 0.62167 0.44184 0.0
C620 C 0.77618 0.64821 0.44325 0.0
C621 C 0.80069 0.65839 0.43052 0.0
C622 C 0.73776 0.61115 0.45525 0.0
C623 C 0.73677 0.61693 0.48103 0.0
C624 C 0.71395 0.59537 0.44287 0.0
C625 C 0.71322 0.58941 0.41553 0.0
C626 C 0.71928 0.60924 0.39906 0.0
C627 C 0.71872 0.60345 0.37332 0.0
C628 C 0.71193 0.57789 0.36382 0.0
C629 C 0.70561 0.55806 0.38005 0.0
C630 C 0.70616 0.56375 0.40581 0.0
C631 C 0.62394 0.58982 0.5205 0.0
C632 C 0.60929 0.56385 0.51682 0.0
C633 C 0.64998 0.59885 0.50966 0.0
C634 C 0.66205 0.58196 0.4954 0.0
C635 C 0.64776 0.55588 0.49241 0.0
C636 C 0.62164 0.54693 0.50292 0.0
C637 C 0.68879 0.59159 0.48238 0.0
C638 C 0.68987 0.5857 0.45661 0.0
C639 C 0.71269 0.60718 0.49481 0.0
C640 C 0.71345 0.61296 0.52219 0.0
C641 C 0.70645 0.59299 0.53849 0.0
C642 C 0.70702 0.59858 0.56426 0.0
C643 C 0.71472 0.62407 0.57397 0.0
C644 C 0.72196 0.64402 0.55792 0.0
C645 C 0.72141 0.63853 0.53213 0.0
H646 H 0.71514 0.62835 0.59393 0.0
H647 H 0.71151 0.57345 0.34389 0.0
H648 H 0.30333 0.36553 0.12533 0.0
H649 H 0.26431 0.37909 0.1095 0.0
H650 H 0.20739 0.31207 0.137 0.0
H651 H 0.24633 0.29842 0.15313 0.0
H652 H 0.19448 0.32343 0.08825 0.0
H653 H 0.2153 0.3652 0.17013 0.0
H654 H 0.24543 0.39156 0.20324 0.0
H655 H 0.26489 0.45575 0.15726 0.0
H656 H 0.23516 0.42964 0.12371 0.0
H657 H 0.07161 0.36528 0.08335 0.0
H658 H 0.10997 0.34891 0.09601 0.0
H659 H 0.16779 0.42076 0.08038 0.0
H660 H 0.1295 0.43768 0.06886 0.0
H661 H 0.18022 0.40614 0.12308 0.0
H662 H 0.15981 0.36543 0.04122 0.0
H663 H 0.13049 0.33954 0.00737 0.0
H664 H 0.11124 0.27414 0.05178 0.0
H665 H 0.14017 0.29976 0.08606 0.0
C666 C 0.28254 0.35351 0.1278 0.0
C667 C 0.27792 0.33095 0.14059 0.0
C668 C 0.26027 0.36134 0.11881 0.0
C669 C 0.23298 0.34669 0.12228 0.0
C670 C 0.22831 0.32365 0.13417 0.0
C671 C 0.25057 0.31593 0.14342 0.0
C672 C 0.20934 0.35597 0.11434 0.0
C673 C 0.1911 0.34135 0.09604 0.0
C674 C 0.20538 0.37963 0.12415 0.0
C675 C 0.22325 0.39538 0.14431 0.0
C676 C 0.2262 0.38487 0.16699 0.0
C677 C 0.24317 0.39977 0.18585 0.0
C678 C 0.25713 0.42529 0.18233 0.0
C679 C 0.2541 0.43597 0.15995 0.0
C680 C 0.23718 0.42113 0.14101 0.0
C681 C 0.09247 0.37767 0.08274 0.0
C682 C 0.09741 0.40281 0.07501 0.0
C683 C 0.11444 0.36817 0.08972 0.0
C684 C 0.14185 0.38347 0.08886 0.0
C685 C 0.14685 0.40853 0.08111 0.0
C686 C 0.1249 0.4181 0.07427 0.0
C687 C 0.16529 0.37372 0.09675 0.0
C688 C 0.18352 0.38824 0.11516 0.0
C689 C 0.16932 0.35006 0.08688 0.0
C690 C 0.15194 0.33459 0.0663 0.0
C691 C 0.14915 0.34559 0.04385 0.0
C692 C 0.13263 0.33095 0.02457 0.0
C693 C 0.11895 0.30523 0.02745 0.0
C694 C 0.12182 0.29408 0.04959 0.0
C695 C 0.13829 0.30864 0.06895 0.0
H696 H 0.10617 0.29393 0.0125 0.0
H697 H 0.27024 0.43681 0.19697 0.0
H698 H 0.57727 0.27254 0.92068 0.0
H699 H 0.55602 0.23418 0.94312 0.0
H700 H 0.63556 0.2182 0.94805 0.0
H701 H 0.65678 0.25614 0.92564 0.0
H702 H 0.59628 0.17532 0.9348 0.0
H703 H 0.60699 0.24532 0.99737 0.0
H704 H 0.60021 0.28587 0.01646 0.0
H705 H 0.51223 0.25283 0.01679 0.0
H706 H 0.51845 0.2122 0.99732 0.0
H707 H 0.57522 0.08854 0.03109 0.0
H708 H 0.59132 0.12661 0.00718 0.0
H709 H 0.50753 0.13254 1.0017 0.0
H710 H 0.49121 0.09454 0.0256 0.0
H711 H 0.54557 0.17984 0.01411 0.0
H712 H 0.53389 0.10998 0.95318 0.0
H713 H 0.53939 0.06911 0.93376 0.0
H714 H 0.62729 0.10143 0.92966 0.0
H715 H 0.62241 0.14236 0.94959 0.0
C716 C 0.5902 0.2608 0.92647 0.0
C717 C 0.61877 0.26751 0.92135 0.0
C718 C 0.57805 0.23893 0.93943 0.0
C719 C 0.59422 0.22334 0.94751 0.0
C720 C 0.62261 0.22985 0.94205 0.0
C721 C 0.63474 0.25166 0.92924 0.0
C722 C 0.58185 0.20018 0.96157 0.0
C723 C 0.58544 0.17641 0.95227 0.0
C724 C 0.56693 0.20132 0.98403 0.0
C725 C 0.56317 0.22584 0.99552 0.0
C726 C 0.58618 0.24679 1.00124 0.0
C727 C 0.58243 0.26978 0.01219 0.0
C728 C 0.5558 0.27196 0.01773 0.0
C729 C 0.53284 0.25114 0.0124 0.0
C730 C 0.53647 0.22814 1.0014 0.0
C731 C 0.5602 0.09799 0.02492 0.0
C732 C 0.53189 0.08837 0.03023 0.0
C733 C 0.56944 0.11971 0.01116 0.0
C734 C 0.55062 0.1324 1.00256 0.0
C735 C 0.52244 0.12315 0.00822 0.0
C736 C 0.51314 0.1013 0.02178 0.0
C737 C 0.56037 0.15517 0.98747 0.0
C738 C 0.55627 0.17879 0.99656 0.0
C739 C 0.57468 0.15389 0.96475 0.0
C740 C 0.57781 0.12917 0.95315 0.0
C741 C 0.55445 0.10829 0.94845 0.0
C742 C 0.55744 0.08512 0.9373 0.0
C743 C 0.58367 0.08266 0.93054 0.0
C744 C 0.60699 0.10335 0.93497 0.0
C745 C 0.60412 0.12654 0.9462 0.0
H746 H 0.58589 0.06475 0.92178 0.0
H747 H 0.55295 0.28976 0.02624 0.0
H748 H 0.93851 0.73045 0.41986 0.0
H749 H 0.94917 0.77275 0.44181 0.0
H750 H 0.94293 0.8072 0.37293 0.0
H751 H 0.9319 0.76467 0.35061 0.0
H752 H 0.98819 0.83547 0.40684 0.0
H753 H 0.88938 0.79683 0.4062 0.0
H754 H 0.84762 0.76161 0.41261 0.0
H755 H 0.86798 0.76405 0.49016 0.0
H756 H 0.91014 0.79902 0.48411 0.0
H757 H 0.97536 0.95365 0.46118 0.0
H758 H 0.96647 0.91312 0.43595 0.0
H759 H 0.9519 0.87157 0.5027 0.0
H760 H 0.95981 0.91214 0.52805 0.0
H761 H 0.91696 0.84696 0.46841 0.0
H762 H 0.015 0.88353 0.47084 0.0
H763 H 0.05858 0.91718 0.4662 0.0
H764 H 0.04234 0.9172 0.38804 0.0
H765 H 0.99843 0.88379 0.39229 0.0
C766 C 0.93985 0.74699 0.40918 0.0
C767 C 0.93402 0.74409 0.38346 0.0
C768 C 0.94591 0.77117 0.42183 0.0
C769 C 0.9464 0.79298 0.40904 0.0
C770 C 0.94252 0.79051 0.38311 0.0
C771 C 0.93623 0.76621 0.3704 0.0
C772 C 0.94887 0.81791 0.42319 0.0
C773 C 0.97247 0.8382 0.42003 0.0
C774 C 0.92867 0.82109 0.44088 0.0
C775 C 0.90305 0.80038 0.44465 0.0
C776 C 0.88506 0.78973 0.42458 0.0
C777 C 0.86131 0.76982 0.42815 0.0
C778 C 0.85519 0.76055 0.45176 0.0
C779 C 0.87277 0.77123 0.47187 0.0
C780 C 0.89658 0.79111 0.46839 0.0
C781 C 0.96997 0.93587 0.47049 0.0
C782 C 0.96845 0.93608 0.49662 0.0
C783 C 0.96507 0.9127 0.45604 0.0
C784 C 0.95919 0.88928 0.46742 0.0
C785 C 0.95655 0.88939 0.49348 0.0
C786 C 0.96104 0.91259 0.50795 0.0
C787 C 0.95641 0.86475 0.45221 0.0
C788 C 0.93271 0.84443 0.45517 0.0
C789 C 0.97676 0.86144 0.43461 0.0
C790 C 0.00329 0.88134 0.43194 0.0
C791 C 0.02063 0.89083 0.4527 0.0
C792 C 0.0454 0.90985 0.45013 0.0
C793 C 0.05319 0.91937 0.42685 0.0
C794 C 0.03626 0.90983 0.40607 0.0
C795 C 0.01143 0.89084 0.40854 0.0
H796 H 0.07237 0.9341 0.42491 0.0
H797 H 0.8368 0.74512 0.45449 0.0
H798 H 0.27182 0.74316 0.6767 0.0
H799 H 0.3083 0.72444 0.66043 0.0
H800 H 0.26905 0.6536 0.69377 0.0
H801 H 0.23269 0.6724 0.71056 0.0
H802 H 0.32304 0.66752 0.70343 0.0
H803 H 0.26715 0.65848 0.63032 0.0
H804 H 0.24111 0.67264 0.59804 0.0
H805 H 0.3155 0.72657 0.5756 0.0
H806 H 0.34194 0.71299 0.60798 0.0
H807 H 0.41376 0.60057 0.64395 0.0
H808 H 0.3727 0.61374 0.65788 0.0
H809 H 0.40473 0.68656 0.62562 0.0
H810 H 0.44501 0.67304 0.61042 0.0
H811 H 0.3519 0.66832 0.61483 0.0
H812 H 0.40701 0.67933 0.68972 0.0
H813 H 0.43312 0.66529 0.72203 0.0
H814 H 0.36006 0.60764 0.74105 0.0
H815 H 0.33359 0.62114 0.70862 0.0
C816 C 0.27077 0.72351 0.68039 0.0
C817 C 0.24932 0.70927 0.69492 0.0
C818 C 0.29161 0.71279 0.67098 0.0
C819 C 0.29128 0.68751 0.67566 0.0
C820 C 0.26971 0.67313 0.68991 0.0
C821 C 0.2489 0.68388 0.69942 0.0
C822 C 0.3141 0.67654 0.66656 0.0
C823 C 0.32905 0.66729 0.68398 0.0
C824 C 0.32231 0.67669 0.64127 0.0
C825 C 0.30648 0.68485 0.62172 0.0
C826 C 0.27792 0.67349 0.61862 0.0
C827 C 0.26309 0.68139 0.60029 0.0
C828 C 0.27663 0.70053 0.58482 0.0
C829 C 0.30504 0.71176 0.58761 0.0
C830 C 0.31997 0.70395 0.60593 0.0
C831 C 0.41201 0.61932 0.63964 0.0
C832 C 0.43285 0.63578 0.62613 0.0
C833 C 0.38862 0.62693 0.64786 0.0
C834 C 0.38576 0.65128 0.64306 0.0
C835 C 0.4065 0.66771 0.62961 0.0
C836 C 0.42974 0.66006 0.62121 0.0
C837 C 0.36109 0.65968 0.65176 0.0
C838 C 0.34577 0.66841 0.63426 0.0
C839 C 0.35255 0.65907 0.67697 0.0
C840 C 0.3684 0.65108 0.69659 0.0
C841 C 0.39656 0.66355 0.70068 0.0
C842 C 0.41142 0.65571 0.71903 0.0
C843 C 0.39828 0.63554 0.73354 0.0
C844 C 0.37022 0.62323 0.72978 0.0
C845 C 0.35528 0.63098 0.71143 0.0
H846 H 0.40982 0.62949 0.74773 0.0
H847 H 0.26511 0.70662 0.57064 0.0
H848 H 0.74499 0.82558 0.82287 0.0
H849 H 0.77272 0.85515 0.79401 0.0
H850 H 0.74824 0.79733 0.73347 0.0
H851 H 0.72075 0.76773 0.76223 0.0
H852 H 0.80225 0.81758 0.733 0.0
H853 H 0.722 0.85083 0.74048 0.0
H854 H 0.68729 0.86803 0.76359 0.0
H855 H 0.75164 0.9318 0.79379 0.0
H856 H 0.7868 0.91478 0.77112 0.0
H857 H 0.84902 0.89238 0.63009 0.0
H858 H 0.82091 0.86531 0.66059 0.0
H859 H 0.84826 0.92589 0.71821 0.0
H860 H 0.87627 0.9531 0.68776 0.0
H861 H 0.79401 0.90537 0.7216 0.0
H862 H 0.87408 0.87302 0.71404 0.0
H863 H 0.90942 0.85579 0.69201 0.0
H864 H 0.84615 0.79044 0.66302 0.0
H865 H 0.81038 0.80747 0.68461 0.0
C866 C 0.74495 0.81943 0.80332 0.0
C867 C 0.73036 0.79447 0.79475 0.0
C868 C 0.76095 0.83629 0.78684 0.0
C869 C 0.76241 0.82854 0.76149 0.0
C870 C 0.7475 0.80373 0.75292 0.0
C871 C 0.73173 0.78686 0.76937 0.0
C872 C 0.78028 0.84575 0.74397 0.0
C873 C 0.80018 0.83665 0.73027 0.0
C874 C 0.77821 0.87094 0.74097 0.0
C875 C 0.75705 0.8814 0.75429 0.0
C876 C 0.72877 0.86844 0.75217 0.0
C877 C 0.70901 0.87817 0.76517 0.0
C878 C 0.71726 0.90096 0.7802 0.0
C879 C 0.74528 0.91413 0.78217 0.0
C880 C 0.76513 0.90447 0.76923 0.0
C881 C 0.84928 0.89982 0.64931 0.0
C882 C 0.86491 0.92486 0.65652 0.0
C883 C 0.83317 0.88435 0.66673 0.0
C884 C 0.83266 0.89348 0.69177 0.0
C885 C 0.84825 0.91846 0.699 0.0
C886 C 0.86424 0.93399 0.68157 0.0
C887 C 0.81569 0.87702 0.71036 0.0
C888 C 0.79606 0.88629 0.72433 0.0
C889 C 0.81805 0.85199 0.71369 0.0
C890 C 0.83953 0.84165 0.70076 0.0
C891 C 0.86768 0.85507 0.70282 0.0
C892 C 0.88779 0.84532 0.69043 0.0
C893 C 0.88003 0.82206 0.67607 0.0
C894 C 0.85214 0.80847 0.67412 0.0
C895 C 0.83194 0.81815 0.68645 0.0
H896 H 0.89563 0.81455 0.6665 0.0
H897 H 0.70194 0.90844 0.79028 0.0
H898 H 0.77238 0.21147 0.34813 0.0
H899 H 0.74276 0.18629 0.31489 0.0
H900 H 0.79084 0.2345 0.2606 0.0
H901 H 0.82009 0.26045 0.29401 0.0
H902 H 0.73814 0.22639 0.25086 0.0
H903 H 0.79604 0.17226 0.26731 0.0
H904 H 0.81971 0.14831 0.29284 0.0
H905 H 0.74118 0.10245 0.31707 0.0
H906 H 0.71702 0.12636 0.29194 0.0
H907 H 0.67094 0.13624 0.15073 0.0
H908 H 0.70479 0.16517 0.17923 0.0
H909 H 0.66044 0.12852 0.24199 0.0
H910 H 0.62661 0.0998 0.21375 0.0
H911 H 0.71534 0.13129 0.24382 0.0
H912 H 0.65812 0.18812 0.22871 0.0
H913 H 0.6353 0.2121 0.20239 0.0
H914 H 0.7143 0.25253 0.17412 0.0
H915 H 0.73757 0.22853 0.20004 0.0
C916 C 0.77683 0.21663 0.32911 0.0
C917 C 0.79866 0.2379 0.3237 0.0
C918 C 0.75992 0.20213 0.31008 0.0
C919 C 0.76483 0.20823 0.28517 0.0
C920 C 0.7867 0.2294 0.27967 0.0
C921 C 0.80345 0.24415 0.29877 0.0
C922 C 0.74652 0.1929 0.26506 0.0
C923 C 0.73355 0.20561 0.24903 0.0
C924 C 0.74026 0.16577 0.26281 0.0
C925 C 0.75472 0.15124 0.27787 0.0
C926 C 0.78381 0.15718 0.27821 0.0
C927 C 0.79732 0.14359 0.29259 0.0
C928 C 0.78196 0.12391 0.3066 0.0
C929 C 0.75305 0.11772 0.30621 0.0
C930 C 0.73944 0.13126 0.29188 0.0
C931 C 0.66818 0.13471 0.17062 0.0
C932 C 0.6463 0.11562 0.18002 0.0
C933 C 0.68754 0.15118 0.18686 0.0
C934 C 0.68515 0.14889 0.21271 0.0
C935 C 0.66279 0.13044 0.2221 0.0
C936 C 0.64352 0.11403 0.20594 0.0
C937 C 0.70653 0.16474 0.23011 0.0
C938 C 0.72017 0.15208 0.24555 0.0
C939 C 0.71354 0.19187 0.23163 0.0
C940 C 0.69955 0.20633 0.2161 0.0
C941 C 0.6706 0.20197 0.21672 0.0
C942 C 0.65759 0.2156 0.20191 0.0
C943 C 0.67333 0.23377 0.18653 0.0
C944 C 0.70213 0.23841 0.186 0.0
C945 C 0.71524 0.22482 0.20076 0.0
H946 H 0.66322 0.24431 0.17508 0.0
H947 H 0.79246 0.11341 0.31773 0.0
H948 H 0.39406 0.64164 0.32069 0.0
H949 H 0.40784 0.62218 0.35631 0.0
H950 H 0.49381 0.65695 0.34028 0.0
H951 H 0.47998 0.67506 0.30361 0.0
H952 H 0.49154 0.61302 0.35235 0.0
H953 H 0.45432 0.6778 0.39189 0.0
H954 H 0.42025 0.70262 0.40131 0.0
H955 H 0.36203 0.63506 0.42548 0.0
H956 H 0.39564 0.60975 0.4159 0.0
H957 H 0.53839 0.59852 0.47594 0.0
H958 H 0.52416 0.61751 0.43996 0.0
H959 H 0.4479 0.5574 0.43499 0.0
H960 H 0.46237 0.53778 0.47061 0.0
H961 H 0.44565 0.614 0.43459 0.0
H962 H 0.48751 0.55057 0.39431 0.0
H963 H 0.52544 0.52978 0.38738 0.0
H964 H 0.57993 0.60132 0.36762 0.0
H965 H 0.5424 0.62263 0.3748 0.0
C966 C 0.41591 0.64533 0.32488 0.0
C967 C 0.4359 0.66006 0.30935 0.0
C968 C 0.42383 0.63428 0.34544 0.0
C969 C 0.45198 0.63836 0.35158 0.0
C970 C 0.47196 0.65336 0.33616 0.0
C971 C 0.46404 0.66387 0.3152 0.0
C972 C 0.46056 0.62637 0.37349 0.0
C973 C 0.48164 0.61365 0.37036 0.0
C974 C 0.4477 0.6267 0.39719 0.0
C975 C 0.4274 0.64183 0.40294 0.0
C976 C 0.43418 0.66819 0.39904 0.0
C977 C 0.41496 0.68235 0.40444 0.0
C978 C 0.38897 0.67041 0.41392 0.0
C979 C 0.38216 0.64428 0.41809 0.0
C980 C 0.40129 0.63002 0.41271 0.0
C981 C 0.51862 0.58925 0.46716 0.0
C982 C 0.50152 0.56659 0.47615 0.0
C983 C 0.51054 0.60014 0.44657 0.0
C984 C 0.48496 0.58891 0.4348 0.0
C985 C 0.46772 0.5664 0.44381 0.0
C986 C 0.47607 0.55515 0.46409 0.0
C987 C 0.47628 0.60082 0.41316 0.0
C988 C 0.45534 0.61351 0.41646 0.0
C989 C 0.48975 0.60109 0.38986 0.0
C990 C 0.51223 0.58825 0.38535 0.0
C991 C 0.50765 0.56192 0.38872 0.0
C992 C 0.52906 0.55003 0.38469 0.0
C993 C 0.55511 0.56424 0.37713 0.0
C994 C 0.55976 0.59035 0.37351 0.0
C995 C 0.53842 0.60234 0.37753 0.0
H996 H 0.57166 0.555 0.37403 0.0
H997 H 0.37412 0.6814 0.41809 0.0
H998 H 0.16392 0.4448 0.77682 0.0
H999 H 0.14918 0.46721 0.81348 0.0
H1000 H 0.09763 0.39522 0.83643 0.0
H1001 H 0.11208 0.37277 0.80009 0.0
H1002 H 0.07006 0.43272 0.83713 0.0
H1003 H 0.15818 0.42349 0.86554 0.0
H1004 H 0.20867 0.42944 0.86323 0.0
H1005 H 0.22168 0.51123 0.86676 0.0
H1006 H 0.17121 0.50574 0.86876 0.0
H1007 H 0.03491 0.45369 0.96114 0.0
H1008 H 0.0559 0.43932 0.92367 0.0
H1009 H 0.10148 0.51737 0.91274 0.0
H1010 H 0.08053 0.53208 0.95043 0.0
H1011 H 0.13341 0.48251 0.90366 0.0
H1012 H 0.04717 0.49317 0.87845 0.0
H1013 H 0.99698 0.48893 0.88001 0.0
H1014 H 0.98056 0.40704 0.86859 0.0
H1015 H 0.0307 0.41073 0.86749 0.0
C1016 C 0.14956 0.43374 0.78975 0.0
C1017 C 0.13916 0.40697 0.78547 0.0
C1018 C 0.14122 0.44656 0.81071 0.0
C1019 C 0.12235 0.43285 0.8277 0.0
C1020 C 0.11215 0.40617 0.82353 0.0
C1021 C 0.12053 0.39336 0.80274 0.0
C1022 C 0.11244 0.4461 0.84954 0.0
C1023 C 0.08389 0.44341 0.85178 0.0
C1024 C 0.13061 0.46091 0.86815 0.0
C1025 C 0.16092 0.46419 0.867 0.0
C1026 C 0.1718 0.44273 0.8656 0.0
C1027 C 0.20041 0.44602 0.8644 0.0
C1028 C 0.21837 0.47069 0.86477 0.0
C1029 C 0.20775 0.49213 0.86642 0.0
C1030 C 0.17914 0.48894 0.86761 0.0
C1031 C 0.0495 0.46787 0.95091 0.0
C1032 C 0.05584 0.49409 0.95871 0.0
C1033 C 0.06144 0.45959 0.92944 0.0
C1034 C 0.07998 0.47731 0.91526 0.0
C1035 C 0.08716 0.50341 0.9234 0.0
C1036 C 0.07509 0.51176 0.94489 0.0
C1037 C 0.09096 0.46839 0.89156 0.0
C1038 C 0.11963 0.47199 0.88891 0.0
C1039 C 0.07295 0.45463 0.87237 0.0
C1040 C 0.04273 0.45222 0.87311 0.0
C1041 C 0.03287 0.47423 0.87653 0.0
C1042 C 0.00443 0.47193 0.87731 0.0
C1043 C 0.9856 0.44774 0.87447 0.0
C1044 C 0.99517 0.42577 0.87085 0.0
C1045 C 0.02361 0.42796 0.87014 0.0
H1046 H 0.96362 0.44607 0.87497 0.0
H1047 H 0.24052 0.4732 0.86384 0.0
H1048 H 0.6775 0.86598 0.91424 0.0
H1049 H 0.65406 0.88939 0.94371 0.0
H1050 H 0.61605 0.91528 0.88266 0.0
H1051 H 0.63956 0.89203 0.85296 0.0
H1052 H 0.63496 0.9537 0.91932 0.0
H1053 H 0.57954 0.86597 0.91395 0.0
H1054 H 0.57096 0.81912 0.91562 0.0
H1055 H 0.59743 0.82913 0.99207 0.0
H1056 H 0.60654 0.87609 0.99075 0.0
H1057 H 0.5263 0.99033 0.98566 0.0
H1058 H 0.55235 0.96897 0.95664 0.0
H1059 H 0.58997 0.94392 0.01847 0.0
H1060 H 0.56406 0.96527 0.04765 0.0
H1061 H 0.57195 0.90535 0.98189 0.0
H1062 H 0.62638 0.99221 0.98835 0.0
H1063 H 0.63658 0.03922 0.98741 0.0
H1064 H 0.6139 0.03138 0.91004 0.0
H1065 H 0.60295 0.98425 0.91065 0.0
C1066 C 0.66432 0.8768 0.90702 0.0
C1067 C 0.66026 0.87698 0.88122 0.0
C1068 C 0.65085 0.89009 0.92393 0.0
C1069 C 0.63301 0.90378 0.91538 0.0
C1070 C 0.62966 0.90475 0.88964 0.0
C1071 C 0.64307 0.8914 0.8727 0.0
C1072 C 0.61733 0.91655 0.93331 0.0
C1073 C 0.62088 0.94309 0.93278 0.0
C1074 C 0.59954 0.90279 0.95131 0.0
C1075 C 0.59399 0.87456 0.95217 0.0
C1076 C 0.58375 0.85819 0.93106 0.0
C1077 C 0.57875 0.83162 0.93195 0.0
C1078 C 0.58372 0.82116 0.95392 0.0
C1079 C 0.59363 0.83726 0.97506 0.0
C1080 C 0.59869 0.86385 0.97425 0.0
C1081 C 0.54002 0.9802 0.99311 0.0
C1082 C 0.54313 0.97955 0.01899 0.0
C1083 C 0.55501 0.96812 0.97649 0.0
C1084 C 0.57327 0.95506 0.98541 0.0
C1085 C 0.57602 0.95394 0.0112 0.0
C1086 C 0.56124 0.96622 0.02785 0.0
C1087 C 0.58946 0.9425 0.96782 0.0
C1088 C 0.586 0.91598 0.96842 0.0
C1089 C 0.60743 0.95632 0.94998 0.0
C1090 C 0.61353 0.98465 0.94962 0.0
C1091 C 0.62321 1.00047 0.97121 0.0
C1092 C 0.62918 0.02716 0.97073 0.0
C1093 C 0.62582 0.03828 0.94871 0.0
C1094 C 0.61642 0.02274 0.92711 0.0
C1095 C 0.61032 0.99603 0.92752 0.0
H1096 H 0.63062 0.05894 0.94836 0.0
H1097 H 0.57984 0.80057 0.95458 0.0
H1098 H 0.86842 0.21889 0.46759 0.0
H1099 H 0.88864 0.18672 0.48379 0.0
H1100 H 0.91425 0.16812 0.40945 0.0
H1101 H 0.89566 0.20136 0.39358 0.0
H1102 H 0.87893 0.13907 0.47886 0.0
H1103 H 0.96995 0.14594 0.40881 0.0
H1104 H 0.00191 0.17857 0.38486 0.0
H1105 H 0.99084 0.23809 0.43764 0.0
H1106 H 0.95911 0.2058 0.46206 0.0
H1107 H 0.9298 0.03103 0.49157 0.0
H1108 H 0.91148 0.06421 0.47492 0.0
H1109 H 0.98736 0.12127 0.49565 0.0
H1110 H 0.00625 0.08793 0.51082 0.0
H1111 H 0.97288 0.13253 0.4549 0.0
H1112 H 0.92408 0.11173 0.53057 0.0
H1113 H 0.89563 0.08388 0.56087 0.0
H1114 H 0.82851 0.06107 0.50825 0.0
H1115 H 0.85671 0.08853 0.47751 0.0
C1116 C 0.87859 0.20804 0.45479 0.0
C1117 C 0.88076 0.21279 0.4294 0.0
C1118 C 0.89004 0.18958 0.46402 0.0
C1119 C 0.90343 0.17516 0.44796 0.0
C1120 C 0.90485 0.17945 0.42242 0.0
C1121 C 0.89407 0.19837 0.41332 0.0
C1122 C 0.91559 0.15548 0.45784 0.0
C1123 C 0.89952 0.13772 0.47365 0.0
C1124 C 0.9427 0.15392 0.45159 0.0
C1125 C 0.96193 0.17346 0.43711 0.0
C1126 C 0.97442 0.16598 0.41534 0.0
C1127 C 0.99248 0.18442 0.40168 0.0
C1128 C 0.99833 0.21039 0.40967 0.0
C1129 C 0.98621 0.21798 0.43141 0.0
C1130 C 0.96816 0.19962 0.44515 0.0
C1131 C 0.94258 0.05064 0.49236 0.0
C1132 C 0.96942 0.05693 0.50244 0.0
C1133 C 0.93204 0.06965 0.48303 0.0
C1134 C 0.94777 0.09544 0.48445 0.0
C1135 C 0.97477 0.10158 0.49425 0.0
C1136 C 0.98556 0.0825 0.50295 0.0
C1137 C 0.93621 0.11609 0.47587 0.0
C1138 C 0.95234 0.13394 0.46019 0.0
C1139 C 0.90968 0.11848 0.48321 0.0
C1140 C 0.89261 0.102 0.50166 0.0
C1141 C 0.90332 0.10064 0.52541 0.0
C1142 C 0.88723 0.08494 0.54266 0.0
C1143 C 0.86031 0.07066 0.53646 0.0
C1144 C 0.84939 0.07211 0.51301 0.0
C1145 C 0.8654 0.08776 0.49567 0.0
H1146 H 0.84789 0.05852 0.54985 0.0
H1147 H 0.0123 0.22463 0.39906 0.0
H1148 H 0.30337 0.59937 0.15146 0.0
H1149 H 0.2605 0.57946 0.12841 0.0
H1150 H 0.22418 0.63814 0.16033 0.0
H1151 H 0.26663 0.65764 0.18403 0.0
H1152 H 0.18701 0.59421 0.1588 0.0
H1153 H 0.25157 0.63909 0.09956 0.0
H1154 H 0.29545 0.65044 0.0763 0.0
H1155 H 0.28063 0.57247 0.04631 0.0
H1156 H 0.23681 0.56058 0.06966 0.0
H1157 H 0.08077 0.58328 0.0683 0.0
H1158 H 0.12327 0.59933 0.093 0.0
H1159 H 0.14825 0.53093 0.07039 0.0
H1160 H 0.10556 0.5145 0.04595 0.0
H1161 H 0.19086 0.57776 0.06715 0.0
H1162 H 0.12274 0.5349 0.12408 0.0
H1163 H 0.07861 0.52543 0.14691 0.0
H1164 H 0.10033 0.60168 0.18198 0.0
H1165 H 0.14393 0.61211 0.15836 0.0
C1166 C 0.28619 0.60794 0.15372 0.0
C1167 C 0.28852 0.6302 0.16951 0.0
C1168 C 0.26171 0.59661 0.14039 0.0
C1169 C 0.2392 0.60755 0.14219 0.0
C1170 C 0.24123 0.62934 0.15852 0.0
C1171 C 0.26557 0.6405 0.17207 0.0
C1172 C 0.21372 0.59664 0.12682 0.0
C1173 C 0.18786 0.59094 0.13872 0.0
C1174 C 0.21476 0.59179 0.10064 0.0
C1175 C 0.24107 0.5989 0.08657 0.0
C1176 C 0.25778 0.62433 0.08815 0.0
C1177 C 0.28262 0.63086 0.07493 0.0
C1178 C 0.29086 0.61217 0.05989 0.0
C1179 C 0.27424 0.58692 0.058 0.0
C1180 C 0.24939 0.58027 0.07121 0.0
C1181 C 0.09538 0.57171 0.06843 0.0
C1182 C 0.08979 0.54761 0.05514 0.0
C1183 C 0.11959 0.58087 0.08266 0.0
C1184 C 0.13883 0.56625 0.08363 0.0
C1185 C 0.13365 0.54248 0.0699 0.0
C1186 C 0.10922 0.53311 0.056 0.0
C1187 C 0.16426 0.5757 0.09912 0.0
C1188 C 0.19007 0.58105 0.08723 0.0
C1189 C 0.16311 0.58052 0.12526 0.0
C1190 C 0.1365 0.57442 0.13908 0.0
C1191 C 0.11789 0.54985 0.13624 0.0
C1192 C 0.0929 0.54432 0.14931 0.0
C1193 C 0.08649 0.56304 0.16567 0.0
C1194 C 0.10509 0.58732 0.16901 0.0
C1195 C 0.12991 0.59308 0.15572 0.0
H1196 H 0.06722 0.55869 0.17589 0.0
H1197 H 0.3101 0.61727 0.04966 0.0
H1198 H 0.224 0.44609 0.64818 0.0
H1199 H 0.26513 0.46792 0.62529 0.0
H1200 H 0.31457 0.42985 0.66579 0.0
H1201 H 0.27372 0.40831 0.68902 0.0
H1202 H 0.34137 0.47888 0.66214 0.0
H1203 H 0.29206 0.40908 0.6061 0.0
H1204 H 0.25191 0.38314 0.58159 0.0
H1205 H 0.25077 0.44856 0.54113 0.0
H1206 H 0.29072 0.47498 0.56565 0.0
H1207 H 0.45096 0.47341 0.57675 0.0
H1208 H 0.4061 0.45952 0.59736 0.0
H1209 H 0.38576 0.52832 0.57804 0.0
H1210 H 0.43105 0.54284 0.55794 0.0
H1211 H 0.34324 0.4687 0.56979 0.0
H1212 H 0.39507 0.53817 0.62695 0.0
H1213 H 0.43713 0.56109 0.65066 0.0
H1214 H 0.43416 0.49309 0.68859 0.0
H1215 H 0.39261 0.46964 0.6646 0.0
C1216 C 0.24365 0.44244 0.65229 0.0
C1217 C 0.24556 0.42537 0.67037 0.0
C1218 C 0.26712 0.45487 0.63912 0.0
C1219 C 0.29288 0.45031 0.64362 0.0
C1220 C 0.29492 0.43367 0.662 0.0
C1221 C 0.27151 0.4213 0.67522 0.0
C1222 C 0.31774 0.46251 0.62903 0.0
C1223 C 0.34169 0.47662 0.64195 0.0
C1224 C 0.31816 0.45991 0.60264 0.0
C1225 C 0.29415 0.44407 0.58791 0.0
C1226 C 0.28309 0.41798 0.59213 0.0
C1227 C 0.2604 0.40319 0.57821 0.0
C1228 C 0.24873 0.41422 0.55987 0.0
C1229 C 0.25979 0.44006 0.55538 0.0
C1230 C 0.28246 0.45495 0.56927 0.0
C1231 C 0.43688 0.48551 0.57667 0.0
C1232 C 0.44453 0.50923 0.56574 0.0
C1233 C 0.41131 0.47755 0.58847 0.0
C1234 C 0.39279 0.49294 0.58917 0.0
C1235 C 0.39988 0.51623 0.57762 0.0
C1236 C 0.42573 0.52449 0.56623 0.0
C1237 C 0.36655 0.48488 0.60297 0.0
C1238 C 0.34254 0.47138 0.58993 0.0
C1239 C 0.36605 0.48788 0.62923 0.0
C1240 C 0.39096 0.50206 0.64375 0.0
C1241 C 0.40364 0.52802 0.64009 0.0
C1242 C 0.42738 0.54114 0.65362 0.0
C1243 C 0.43845 0.52855 0.67104 0.0
C1244 C 0.42574 0.50284 0.67501 0.0
C1245 C 0.40209 0.48962 0.66145 0.0
H1246 H 0.45679 0.53875 0.68153 0.0
H1247 H 0.23117 0.40273 0.54911 0.0
H1248 H 0.7543 0.66494 0.83986 0.0
H1249 H 0.79057 0.65027 0.85923 0.0
H1250 H 0.78642 0.69877 0.92539 0.0
H1251 H 0.75061 0.7141 0.90582 0.0
H1252 H 0.83809 0.70346 0.91346 0.0
H1253 H 0.75965 0.63242 0.9235 0.0
H1254 H 0.7181 0.59795 0.91095 0.0
H1255 H 0.76706 0.56274 0.86118 0.0
H1256 H 0.80886 0.59721 0.87317 0.0
H1257 H 0.92049 0.64568 0.98654 0.0
H1258 H 0.88139 0.65941 0.97081 0.0
H1259 H 0.88945 0.62184 0.8989 0.0
H1260 H 0.92841 0.60795 0.91453 0.0
H1261 H 0.83477 0.61132 0.91626 0.0
H1262 H 0.91296 0.6845 0.90605 0.0
H1263 H 0.95401 0.71868 0.92039 0.0
H1264 H 0.90405 0.74935 0.9731 0.0
H1265 H 0.86275 0.71511 0.9593 0.0
C1266 C 0.76097 0.67238 0.8586 0.0
C1267 C 0.74955 0.69066 0.87132 0.0
C1268 C 0.78163 0.66387 0.86971 0.0
C1269 C 0.791 0.67314 0.89392 0.0
C1270 C 0.77951 0.69131 0.90671 0.0
C1271 C 0.759 0.70001 0.89552 0.0
C1272 C 0.81349 0.66459 0.90547 0.0
C1273 C 0.83711 0.6833 0.91445 0.0
C1274 C 0.81248 0.63828 0.90642 0.0
C1275 C 0.78736 0.61755 0.89907 0.0
C1276 C 0.76152 0.61745 0.90972 0.0
C1277 C 0.73793 0.59788 0.90274 0.0
C1278 C 0.73992 0.5782 0.88524 0.0
C1279 C 0.76554 0.57802 0.87471 0.0
C1280 C 0.78919 0.59756 0.88161 0.0
C1281 C 0.91385 0.64032 0.9674 0.0
C1282 C 0.92754 0.62586 0.95171 0.0
C1283 C 0.89164 0.64825 0.95843 0.0
C1284 C 0.88267 0.64173 0.93367 0.0
C1285 C 0.89611 0.62708 0.91805 0.0
C1286 C 0.91847 0.61935 0.92694 0.0
C1287 C 0.85926 0.65018 0.92396 0.0
C1288 C 0.83554 0.63145 0.91537 0.0
C1289 C 0.86004 0.67643 0.9236 0.0
C1290 C 0.88483 0.69708 0.93183 0.0
C1291 C 0.91077 0.6984 0.92085 0.0
C1292 C 0.93408 0.71781 0.92885 0.0
C1293 C 0.93166 0.73613 0.94769 0.0
C1294 C 0.90591 0.73512 0.95853 0.0
C1295 C 0.88254 0.71573 0.95062 0.0
H1296 H 0.94972 0.75115 0.95386 0.0
H1297 H 0.72164 0.56306 0.87987 0.0
H1298 H 0.45839 0.76526 0.20378 0.0
H1299 H 0.4727 0.80621 0.184 0.0
H1300 H 0.38996 0.81521 0.19283 0.0
H1301 H 0.37542 0.77382 0.21126 0.0
H1302 H 0.40421 0.82614 0.1496 0.0
H1303 H 0.45018 0.85263 0.2281 0.0
H1304 H 0.48093 0.85125 0.26308 0.0
H1305 H 0.55032 0.86212 0.21337 0.0
H1306 H 0.51991 0.86326 0.17803 0.0
H1307 H 0.48181 0.97229 0.14292 0.0
H1308 H 0.46907 0.93309 0.16528 0.0
H1309 H 0.45553 0.88775 0.09525 0.0
H1310 H 0.46704 0.92705 0.07283 0.0
H1311 H 0.48938 0.89557 0.16968 0.0
H1312 H 0.40862 0.83123 0.10036 0.0
H1313 H 0.37442 0.83567 0.06957 0.0
H1314 H 0.368 0.90555 0.10879 0.0
H1315 H 0.40188 0.90137 0.13997 0.0
C1316 C 0.44345 0.77625 0.20189 0.0
C1317 C 0.41579 0.76632 0.20912 0.0
C1318 C 0.45163 0.79973 0.19057 0.0
C1319 C 0.43249 0.81411 0.18687 0.0
C1320 C 0.40516 0.80457 0.19513 0.0
C1321 C 0.39688 0.78093 0.20587 0.0
C1322 C 0.44027 0.83835 0.17336 0.0
C1323 C 0.42286 0.84129 0.15411 0.0
C1324 C 0.46438 0.85848 0.17919 0.0
C1325 C 0.48271 0.85777 0.20038 0.0
C1326 C 0.47196 0.85454 0.2246 0.0
C1327 C 0.48933 0.85383 0.2445 0.0
C1328 C 0.51754 0.85652 0.24044 0.0
C1329 C 0.52845 0.86 0.21648 0.0
C1330 C 0.51117 0.8607 0.19651 0.0
C1331 C 0.47591 0.95398 0.13226 0.0
C1332 C 0.47522 0.95285 0.10606 0.0
C1333 C 0.46876 0.9315 0.1451 0.0
C1334 C 0.461 0.90726 0.13211 0.0
C1335 C 0.46076 0.9061 0.10587 0.0
C1336 C 0.46743 0.92863 0.093 0.0
C1337 C 0.45324 0.88335 0.14608 0.0
C1338 C 0.47073 0.88041 0.16526 0.0
C1339 C 0.42867 0.86359 0.1408 0.0
C1340 C 0.40801 0.86611 0.12233 0.0
C1341 C 0.39983 0.84749 0.10245 0.0
C1342 C 0.38052 0.84997 0.08493 0.0
C1343 C 0.36912 0.87093 0.08717 0.0
C1344 C 0.37692 0.88939 0.10701 0.0
C1345 C 0.3962 0.88698 0.1246 0.0
H1346 H 0.3542 0.87283 0.07357 0.0
H1347 H 0.53096 0.85597 0.25587 0.0
H1348 H 0.1491 0.26935 0.68003 0.0
H1349 H 0.13713 0.2268 0.65792 0.0
H1350 H 0.05049 0.22452 0.6626 0.0
H1351 H 0.06219 0.26673 0.68488 0.0
H1352 H 0.0594 0.18062 0.67622 0.0
H1353 H 0.08678 0.2358 0.60807 0.0
H1354 H 0.11872 0.26932 0.58511 0.0
H1355 H 0.17824 0.22495 0.58072 0.0
H1356 H 0.14677 0.1913 0.60395 0.0
H1357 H 0.99486 0.08083 0.58988 0.0
H1358 H 0.01384 0.12212 0.61246 0.0
H1359 H 0.09662 0.11454 0.60001 0.0
H1360 H 0.07774 0.07319 0.57673 0.0
H1361 H 0.09424 0.16204 0.59215 0.0
H1362 H 0.06586 0.10539 0.65741 0.0
H1363 H 0.03417 0.07162 0.68027 0.0
H1364 H 0.97737 0.11841 0.69071 0.0
H1365 H 0.00854 0.15233 0.66761 0.0
C1366 C 0.12751 0.25985 0.67621 0.0
C1367 C 0.10659 0.27144 0.68425 0.0
C1368 C 0.12071 0.23555 0.66352 0.0
C1369 C 0.09291 0.22251 0.65852 0.0
C1370 C 0.07207 0.23418 0.66632 0.0
C1371 C 0.07882 0.25838 0.679 0.0
C1372 C 0.08522 0.19643 0.64572 0.0
C1373 C 0.06682 0.17661 0.65774 0.0
C1374 C 0.09567 0.19098 0.62199 0.0
C1375 C 0.11456 0.21118 0.608 0.0
C1376 C 0.10678 0.23329 0.60239 0.0
C1377 C 0.12477 0.25229 0.58929 0.0
C1378 C 0.15053 0.2493 0.58153 0.0
C1379 C 0.1583 0.22726 0.58678 0.0
C1380 C 0.14039 0.20821 0.5999 0.0
C1381 C 0.01712 0.08778 0.592 0.0
C1382 C 0.03477 0.07356 0.58161 0.0
C1383 C 0.02795 0.11142 0.60503 0.0
C1384 C 0.05665 0.12126 0.60832 0.0
C1385 C 0.0744 0.10726 0.5978 0.0
C1386 C 0.06356 0.0836 0.58456 0.0
C1387 C 0.06789 0.14637 0.62242 0.0
C1388 C 0.08701 0.16597 0.61072 0.0
C1389 C 0.0582 0.15163 0.64653 0.0
C1390 C 0.03947 0.13134 0.66062 0.0
C1391 C 0.04653 0.10841 0.66444 0.0
C1392 C 0.02867 0.08925 0.67746 0.0
C1393 C 0.00375 0.09285 0.6869 0.0
C1394 C 0.99667 0.11564 0.68339 0.0
C1395 C 0.01445 0.13486 0.67035 0.0
H1396 H 0.98994 0.07798 0.69697 0.0
H1397 H 0.16443 0.26403 0.57138 0.0
H1398 H 0.80395 0.36612 0.40085 0.0
H1399 H 0.76846 0.38666 0.41609 0.0
H1400 H 0.73489 0.32351 0.46215 0.0
H1401 H 0.76987 0.30253 0.44646 0.0
H1402 H 0.69523 0.33274 0.43658 0.0
H1403 H 0.76961 0.38477 0.487 0.0
H1404 H 0.81638 0.4129 0.49592 0.0
H1405 H 0.80046 0.46893 0.44952 0.0
H1406 H 0.75369 0.44097 0.44004 0.0
H1407 H 0.59994 0.39013 0.50153 0.0
H1408 H 0.63951 0.37258 0.49205 0.0
H1409 H 0.66799 0.42865 0.43761 0.0
H1410 H 0.62853 0.44639 0.44711 0.0
H1411 H 0.71036 0.42337 0.46893 0.0
H1412 H 0.63661 0.37015 0.41762 0.0
H1413 H 0.58977 0.34192 0.40917 0.0
H1414 H 0.60494 0.28792 0.45844 0.0
H1415 H 0.65177 0.31602 0.46746 0.0
C1416 C 0.78932 0.3568 0.41456 0.0
C1417 C 0.78965 0.33262 0.42235 0.0
C1418 C 0.76907 0.36863 0.42333 0.0
C1419 C 0.74903 0.3567 0.44037 0.0
C1420 C 0.75005 0.33304 0.44895 0.0
C1421 C 0.77014 0.32111 0.44002 0.0
C1422 C 0.7258 0.36787 0.44778 0.0
C1423 C 0.69861 0.35243 0.44409 0.0
C1424 C 0.73012 0.39376 0.45695 0.0
C1425 C 0.75822 0.41065 0.46263 0.0
C1426 C 0.77615 0.403 0.47854 0.0
C1427 C 0.80265 0.41893 0.48373 0.0
C1428 C 0.81141 0.44266 0.47325 0.0
C1429 C 0.79365 0.45053 0.4576 0.0
C1430 C 0.76714 0.43466 0.45234 0.0
C1431 C 0.61471 0.39877 0.48762 0.0
C1432 C 0.61111 0.41954 0.47497 0.0
C1433 C 0.63721 0.38868 0.48217 0.0
C1434 C 0.65657 0.39927 0.46406 0.0
C1435 C 0.65325 0.42023 0.45164 0.0
C1436 C 0.63061 0.43017 0.45692 0.0
C1437 C 0.68003 0.38818 0.4578 0.0
C1438 C 0.70715 0.40364 0.4616 0.0
C1439 C 0.67571 0.36227 0.44885 0.0
C1440 C 0.64758 0.34532 0.44342 0.0
C1441 C 0.62987 0.35236 0.42682 0.0
C1442 C 0.60334 0.33637 0.4219 0.0
C1443 C 0.59435 0.31318 0.43332 0.0
C1444 C 0.61192 0.30591 0.44964 0.0
C1445 C 0.63846 0.32185 0.45465 0.0
H1446 H 0.57381 0.30081 0.42947 0.0
H1447 H 0.83193 0.45497 0.47729 0.0
loop_
_geom_bond_atom_site_label_1
_geom_bond_atom_site_label_2
_geom_bond_distance
_geom_bond_site_symmetry_2
_ccdc_geom_bond_type
O0 Cd1 2.300 . S
O0 C7 1.275 . S
Cd1 O0 2.300 . S
Cd1 O9 2.381 . S
Cd1 O10 2.378 . S
O2 Cd3 2.385 . S
O2 C7 1.255 . S
Cd3 O2 2.385 . S
Cd3 O4 2.317 . S
O4 Cd3 2.317 . S
O4 C5 1.232 . S
C5 O4 1.232 . S
C5 O6 1.218 . S
O6 C5 1.218 . S
C7 O0 1.275 . S
C7 O2 1.255 . S
C8 O9 1.258 . S
C8 O10 1.256 . S
O9 Cd1 2.381 . S
O9 C8 1.258 . S
O10 Cd1 2.378 . S
O10 C8 1.256 . S
O11 Cd12 2.300 . S
O11 C18 1.275 . S
Cd12 O11 2.300 . S
Cd12 O20 2.381 . S
Cd12 O21 2.378 . S
O13 Cd14 2.385 . S
O13 C18 1.255 . S
Cd14 O13 2.385 . S
Cd14 O15 2.317 . S
O15 Cd14 2.317 . S
O15 C16 1.232 . S
C16 O15 1.232 . S
C16 O17 1.218 . S
O17 C16 1.218 . S
C18 O11 1.275 . S
C18 O13 1.255 . S
C19 O20 1.258 . S
C19 O21 1.256 . S
O20 Cd12 2.381 . S
O20 C19 1.258 . S
O21 Cd12 2.378 . S
O21 C19 1.256 . S
O22 Cd23 2.300 . S
O22 C29 1.275 . S
Cd23 O22 2.300 . S
Cd23 O31 2.381 . S
Cd23 O32 2.378 . S
O24 Cd25 2.385 . S
O24 C29 1.255 . S
Cd25 O24 2.385 . S
Cd25 O26 2.317 . S
O26 Cd25 2.317 . S
O26 C27 1.232 . S
C27 O26 1.232 . S
C27 O28 1.218 . S
O28 C27 1.218 . S
C29 O22 1.275 . S
C29 O24 1.255 . S
C30 O31 1.258 . S
C30 O32 1.256 . S
O31 Cd23 2.381 . S
O31 C30 1.258 . S
O32 Cd23 2.378 . S
O32 C30 1.256 . S
O33 Cd34 2.300 . S
O33 C40 1.275 . S
Cd34 O33 2.300 . S
Cd34 O42 2.381 . S
Cd34 O43 2.378 . S
O35 Cd36 2.385 . S
O35 C40 1.255 . S
Cd36 O35 2.385 . S
Cd36 O37 2.317 . S
O37 Cd36 2.317 . S
O37 C38 1.232 . S
C38 O37 1.232 . S
C38 O39 1.218 . S
O39 C38 1.218 . S
C40 O33 1.275 . S
C40 O35 1.255 . S
C41 O42 1.258 . S
C41 O43 1.256 . S
O42 Cd34 2.381 . S
O42 C41 1.258 . S
O43 Cd34 2.378 . S
O43 C41 1.256 . S
O44 Cd45 2.300 . S
O44 C51 1.275 . S
Cd45 O44 2.300 . S
Cd45 O53 2.381 . S
Cd45 O54 2.378 . S
O46 Cd47 2.385 . S
O46 C51 1.255 . S
Cd47 O46 2.385 . S
Cd47 O48 2.317 . S
O48 Cd47 2.317 . S
O48 C49 1.232 . S
C49 O48 1.232 . S
C49 O50 1.218 . S
O50 C49 1.218 . S
C51 O44 1.275 . S
C51 O46 1.255 . S
C52 O53 1.258 . S
C52 O54 1.256 . S
O53 Cd45 2.381 . S
O53 C52 1.258 . S
O54 Cd45 2.378 . S
O54 C52 1.256 . S
O55 Cd56 2.300 . S
O55 C62 1.275 . S
Cd56 O55 2.300 . S
Cd56 O64 2.381 . S
Cd56 O65 2.378 . S
O57 Cd58 2.385 . S
O57 C62 1.255 . S
Cd58 O57 2.385 . S
Cd58 O59 2.317 . S
O59 Cd58 2.317 . S
O59 C60 1.232 . S
C60 O59 1.232 . S
C60 O61 1.218 . S
O61 C60 1.218 . S
C62 O55 1.275 . S
C62 O57 1.255 . S
C63 O64 1.258 . S
C63 O65 1.256 . S
O64 Cd56 2.381 . S
O64 C63 1.258 . S
O65 Cd56 2.378 . S
O65 C63 1.256 . S
O66 Cd67 2.300 . S
O66 C73 1.275 . S
Cd67 O66 2.300 . S
Cd67 O75 2.381 . S
Cd67 O76 2.378 . S
O68 Cd69 2.385 . S
O68 C73 1.255 . S
Cd69 O68 2.385 . S
Cd69 O70 2.317 . S
O70 Cd69 2.317 . S
O70 C71 1.232 . S
C71 O70 1.232 . S
C71 O72 1.218 . S
O72 C71 1.218 . S
C73 O66 1.275 . S
C73 O68 1.255 . S
C74 O75 1.258 . S
C74 O76 1.256 . S
O75 Cd67 2.381 . S
O75 C74 1.258 . S
O76 Cd67 2.378 . S
O76 C74 1.256 . S
O77 Cd78 2.300 . S
O77 C84 1.275 . S
Cd78 O77 2.300 . S
Cd78 O86 2.381 . S
Cd78 O87 2.378 . S
O79 Cd80 2.385 . S
O79 C84 1.255 . S
Cd80 O79 2.385 . S
Cd80 O81 2.317 . S
O81 Cd80 2.317 . S
O81 C82 1.232 . S
C82 O81 1.232 . S
C82 O83 1.218 . S
O83 C82 1.218 . S
C84 O77 1.275 . S
C84 O79 1.255 . S
C85 O86 1.258 . S
C85 O87 1.256 . S
O86 Cd78 2.381 . S
O86 C85 1.258 . S
O87 Cd78 2.378 . S
O87 C85 1.256 . S
Dy88 O91 2.307 1_545 S
Dy88 O93 2.395 . S
Dy88 O94 2.379 . S
Dy88 O96 2.339 1_545 S
Dy88 O98 2.318 . S
Dy88 O102 2.275 . S
Dy88 C110 2.738 . S
Dy89 O92 2.298 1_645 S
Dy89 O95 2.275 1_545 S
Dy89 O97 2.307 . S
Dy89 O99 2.395 1_545 S
Dy89 O100 2.379 1_545 S
Dy89 O103 2.348 . S
Dy89 C119 2.738 1_545 S
C90 O102 1.254 . S
C90 O103 1.237 1_455 S
O91 Dy88 2.307 1_565 S
O91 C101 1.266 . S
O92 Dy89 2.298 1_465 S
O92 C101 1.236 . S
O93 Dy88 2.395 . S
O93 C110 1.255 . S
O94 Dy88 2.379 . S
O94 C110 1.249 . S
O95 Dy89 2.275 1_565 S
O95 C111 1.254 . S
O96 Dy88 2.339 1_565 S
O96 C111 1.257 1_455 S
O97 Dy89 2.307 . S
O97 C112 1.266 . S
O98 Dy88 2.318 . S
O98 C112 1.216 1_455 S
O99 Dy89 2.395 1_565 S
O99 C119 1.255 . S
O100 Dy89 2.379 1_565 S
O100 C119 1.249 . S
C101 O91 1.266 . S
C101 O92 1.236 . S
O102 Dy88 2.275 . S
O102 C90 1.254 . S
O103 Dy89 2.348 . S
O103 C90 1.237 1_655 S
C104 C107 1.344 . S
C104 C108 1.328 . S
C104 C110 1.516 . S
C105 C106 1.304 . S
C105 C109 1.323 . S
C106 C105 1.304 . S
C106 C107 1.371 . S
C106 H120 0.930 . S
C107 C104 1.344 . S
C107 C106 1.371 . S
C107 H121 0.931 . S
C108 C104 1.328 . S
C108 C109 1.433 . S
C108 H122 0.931 . S
C109 C105 1.323 . S
C109 C108 1.433 . S
C109 H123 0.933 . S
C110 Dy88 2.738 . S
C110 O93 1.255 . S
C110 O94 1.249 . S
C110 C104 1.516 . S
C111 O95 1.254 . S
C111 O96 1.257 1_655 S
C112 O97 1.266 . S
C112 O98 1.216 1_655 S
C113 C116 1.344 . S
C113 C117 1.328 . S
C113 C119 1.516 . S
C114 C115 1.304 . S
C114 C118 1.323 . S
C115 C114 1.304 . S
C115 C116 1.371 . S
C115 H124 0.930 . S
C116 C113 1.344 . S
C116 C115 1.371 . S
C116 H125 0.931 . S
C117 C113 1.328 . S
C117 C118 1.433 . S
C117 H126 0.931 . S
C118 C114 1.323 . S
C118 C117 1.433 . S
C118 H127 0.933 . S
C119 Dy89 2.738 1_565 S
C119 O99 1.255 . S
C119 O100 1.249 . S
C119 C113 1.516 . S
H120 C106 0.930 . S
H121 C107 0.931 . S
H122 C108 0.931 . S
H123 C109 0.933 . S
H124 C115 0.930 . S
H125 C116 0.931 . S
H126 C117 0.931 . S
H127 C118 0.933 . S
Dy128 O131 2.307 . S
Dy128 O133 2.395 1_545 S
Dy128 O134 2.379 1_554 S
Dy128 O136 2.339 . S
Dy128 O138 2.298 . S
Dy128 O142 2.280 . S
Dy128 C150 2.738 1_544 S
Dy129 O132 2.298 . S
Dy129 O135 2.275 . S
Dy129 O137 2.307 . S
Dy129 O139 2.395 . S
Dy129 O140 2.379 . S
Dy129 O143 2.339 1_545 S
Dy129 C159 2.738 . S
C130 O142 1.249 1_565 S
C130 O143 1.257 . S
O131 Dy128 2.307 . S
O131 C141 1.266 . S
O132 Dy129 2.298 . S
O132 C141 1.236 . S
O133 Dy128 2.395 1_565 S
O133 C150 1.255 1_554 S
O134 Dy128 2.379 1_556 S
O134 C150 1.249 1_545 S
O135 Dy129 2.275 . S
O135 C151 1.254 . S
O136 Dy128 2.339 . S
O136 C151 1.257 . S
O137 Dy129 2.307 . S
O137 C152 1.266 1_545 S
O138 Dy128 2.298 . S
O138 C152 1.236 1_545 S
O139 Dy129 2.395 . S
O139 C159 1.255 . S
O140 Dy129 2.379 . S
O140 C159 1.249 . S
C141 O131 1.266 . S
C141 O132 1.236 . S
O142 Dy128 2.280 . S
O142 C130 1.249 1_545 S
O143 Dy129 2.339 1_565 S
O143 C130 1.257 . S
C144 C147 1.344 . S
C144 C148 1.328 . S
C144 C150 1.516 . S
C145 C146 1.304 . S
C145 C149 1.323 . S
C146 C145 1.304 . S
C146 C147 1.371 . S
C146 H160 0.930 . S
C147 C144 1.344 . S
C147 C146 1.371 . S
C147 H161 0.931 . S
C148 C144 1.328 . S
C148 C149 1.433 . S
C148 H162 0.931 . S
C149 C145 1.323 . S
C149 C148 1.433 . S
C149 H163 0.933 . S
C150 Dy128 2.738 1_566 S
C150 O133 1.255 1_556 S
C150 O134 1.249 1_565 S
C150 C144 1.516 . S
C151 O135 1.254 . S
C151 O136 1.257 . S
C152 O137 1.266 1_565 S
C152 O138 1.236 1_565 S
C153 C156 1.344 . S
C153 C157 1.328 . S
C153 C159 1.516 . S
C154 C155 1.304 . S
C154 C158 1.323 . S
C155 C154 1.304 . S
C155 C156 1.371 . S
C155 H164 0.930 . S
C156 C153 1.344 . S
C156 C155 1.371 . S
C156 H165 0.931 . S
C157 C153 1.328 . S
C157 C158 1.433 . S
C157 H166 0.931 . S
C158 C154 1.323 . S
C158 C157 1.433 . S
C158 H167 0.933 . S
C159 Dy129 2.738 . S
C159 O139 1.255 . S
C159 O140 1.249 . S
C159 C153 1.516 . S
H160 C146 0.930 . S
H161 C147 0.931 . S
H162 C148 0.931 . S
H163 C149 0.933 . S
H164 C155 0.930 . S
H165 C156 0.931 . S
H166 C157 0.931 . S
H167 C158 0.933 . S
Dy168 O171 2.307 . S
Dy168 O173 2.395 . S
Dy168 O174 2.379 . S
Dy168 O176 2.339 . S
Dy168 O178 2.298 . S
Dy168 O182 2.275 . S
Dy168 C190 2.738 . S
Dy169 O172 2.298 . S
Dy169 O175 2.275 . S
Dy169 O177 2.307 . S
Dy169 O179 2.395 . S
Dy169 O180 2.379 . S
Dy169 O183 2.339 . S
Dy169 C199 2.738 . S
C170 O182 1.254 . S
C170 O183 1.257 . S
O171 Dy168 2.307 . S
O171 C181 1.266 . S
O172 Dy169 2.298 . S
O172 C181 1.236 . S
O173 Dy168 2.395 . S
O173 C190 1.255 . S
O174 Dy168 2.379 . S
O174 C190 1.249 . S
O175 Dy169 2.275 . S
O175 C191 1.254 . S
O176 Dy168 2.339 . S
O176 C191 1.257 . S
O177 Dy169 2.307 . S
O177 C192 1.266 . S
O178 Dy168 2.298 . S
O178 C192 1.236 . S
O179 Dy169 2.395 . S
O179 C199 1.255 . S
O180 Dy169 2.379 . S
O180 C199 1.249 . S
C181 O171 1.266 . S
C181 O172 1.236 . S
O182 Dy168 2.275 . S
O182 C170 1.254 . S
O183 Dy169 2.339 . S
O183 C170 1.257 . S
C184 C187 1.344 . S
C184 C188 1.328 . S
C184 C190 1.516 . S
C185 C186 1.304 . S
C185 C189 1.323 . S
C186 C185 1.304 . S
C186 C187 1.371 . S
C186 H200 0.930 . S
C187 C184 1.344 . S
C187 C186 1.371 . S
C187 H201 0.931 . S
C188 C184 1.328 . S
C188 C189 1.433 . S
C188 H202 0.931 . S
C189 C185 1.323 . S
C189 C188 1.433 . S
C189 H203 0.933 . S
C190 Dy168 2.738 . S
C190 O173 1.255 . S
C190 O174 1.249 . S
C190 C184 1.516 . S
C191 O175 1.254 . S
C191 O176 1.257 . S
C192 O177 1.266 . S
C192 O178 1.236 . S
C193 C196 1.344 . S
C193 C197 1.328 . S
C193 C199 1.516 . S
C194 C195 1.304 . S
C194 C198 1.323 . S
C195 C194 1.304 . S
C195 C196 1.371 . S
C195 H204 0.930 . S
C196 C193 1.344 . S
C196 C195 1.371 . S
C196 H205 0.931 . S
C197 C193 1.328 . S
C197 C198 1.433 . S
C197 H206 0.931 . S
C198 C194 1.323 . S
C198 C197 1.433 . S
C198 H207 0.933 . S
C199 Dy169 2.738 . S
C199 O179 1.255 . S
C199 O180 1.249 . S
C199 C193 1.516 . S
H200 C186 0.930 . S
H201 C187 0.931 . S
H202 C188 0.931 . S
H203 C189 0.933 . S
H204 C195 0.930 . S
H205 C196 0.931 . S
H206 C197 0.931 . S
H207 C198 0.933 . S
Dy208 O211 2.307 1_556 S
Dy208 O213 2.395 1_455 S
Dy208 O214 2.379 . S
Dy208 O216 2.339 . S
Dy208 O218 2.298 1_455 S
Dy208 O222 2.275 1_556 S
Dy208 C230 2.738 1_455 S
Dy209 O212 2.298 . S
Dy209 O215 2.275 1_554 S
Dy209 O217 2.307 1_455 S
Dy209 O219 2.395 . S
Dy209 O220 2.379 . S
Dy209 O223 2.339 . S
Dy209 C239 2.738 . S
C210 O222 1.254 1_655 S
C210 O223 1.257 1_655 S
O211 Dy208 2.307 1_554 S
O211 C221 1.266 . S
O212 Dy209 2.298 . S
O212 C221 1.236 . S
O213 Dy208 2.395 1_655 S
O213 C230 1.255 . S
O214 Dy208 2.379 . S
O214 C230 1.249 1_455 S
O215 Dy209 2.275 1_556 S
O215 C231 1.254 . S
O216 Dy208 2.339 . S
O216 C231 1.257 . S
O217 Dy209 2.307 1_655 S
O217 C232 1.266 1_554 S
O218 Dy208 2.298 1_655 S
O218 C232 1.236 . S
O219 Dy209 2.395 . S
O219 C239 1.255 . S
O220 Dy209 2.379 . S
O220 C239 1.249 . S
C221 O211 1.266 . S
C221 O212 1.236 . S
O222 Dy208 2.275 1_554 S
O222 C210 1.254 1_455 S
O223 Dy209 2.339 . S
O223 C210 1.257 1_455 S
C224 C227 1.344 . S
C224 C228 1.328 . S
C224 C230 1.516 . S
C225 C226 1.304 . S
C225 C229 1.323 . S
C226 C225 1.304 . S
C226 C227 1.371 . S
C226 H240 0.930 . S
C227 C224 1.344 . S
C227 C226 1.371 . S
C227 H241 0.931 . S
C228 C224 1.328 . S
C228 C229 1.433 . S
C228 H242 0.931 . S
C229 C225 1.323 . S
C229 C228 1.433 . S
C229 H243 0.933 . S
C230 Dy208 2.738 1_655 S
C230 O213 1.255 . S
C230 O214 1.249 1_655 S
C230 C224 1.516 . S
C231 O215 1.254 . S
C231 O216 1.257 . S
C232 O217 1.266 1_556 S
C232 O218 1.236 . S
C233 C236 1.344 . S
C233 C237 1.328 . S
C233 C239 1.516 . S
C234 C235 1.304 . S
C234 C238 1.323 . S
C235 C234 1.304 . S
C235 C236 1.371 . S
C235 H244 0.930 . S
C236 C233 1.344 . S
C236 C235 1.371 . S
C236 H245 0.931 . S
C237 C233 1.328 . S
C237 C238 1.433 . S
C237 H246 0.931 . S
C238 C234 1.323 . S
C238 C237 1.433 . S
C238 H247 0.933 . S
C239 Dy209 2.738 . S
C239 O219 1.255 . S
C239 O220 1.249 . S
C239 C233 1.516 . S
H240 C226 0.930 . S
H241 C227 0.931 . S
H242 C228 0.931 . S
H243 C229 0.933 . S
H244 C235 0.930 . S
H245 C236 0.931 . S
H246 C237 0.931 . S
H247 C238 0.933 . S
H248 C266 0.951 . S
H249 C268 0.951 . S
H250 C270 0.950 . S
H251 C271 0.950 . S
H252 C273 0.950 . S
H253 C276 0.950 . S
H254 C277 0.950 . S
H255 C279 0.950 . S
H256 C280 0.950 . S
H257 C281 0.951 . S
H258 C283 0.951 . S
H259 C285 0.950 . S
H260 C286 0.950 . S
H261 C288 0.950 . S
H262 C291 0.950 . S
H263 C292 0.950 . S
H264 C294 0.950 . S
H265 C295 0.950 . S
C266 H248 0.951 . S
C266 C267 1.366 . S
C266 C268 1.388 . S
C267 C266 1.366 . S
C267 C271 1.385 . S
C268 H249 0.951 . S
C268 C266 1.388 . S
C268 C269 1.366 . S
C269 C268 1.366 . S
C269 C270 1.414 . S
C269 C272 1.499 . S
C270 H250 0.950 . S
C270 C269 1.414 . S
C270 C271 1.374 . S
C271 H251 0.950 . S
C271 C267 1.385 . S
C271 C270 1.374 . S
C272 C269 1.499 . S
C272 C273 1.373 . S
C272 C274 1.389 . S
C273 H252 0.950 . S
C273 C272 1.373 . S
C273 C289 1.377 . S
C274 C272 1.389 . S
C274 C275 1.524 . S
C274 C288 1.377 . S
C275 C274 1.524 . S
C275 C276 1.397 . S
C275 C280 1.363 . S
C276 H253 0.950 . S
C276 C275 1.397 . S
C276 C277 1.334 . S
C277 H254 0.950 . S
C277 C276 1.334 . S
C277 C278 1.287 . S
C278 C277 1.287 . S
C278 C279 1.524 . S
C278 H297 0.913 . S
C279 H255 0.950 . S
C279 C278 1.524 . S
C279 C280 1.415 . S
C280 H256 0.950 . S
C280 C275 1.363 . S
C280 C279 1.415 . S
C281 H257 0.951 . S
C281 C282 1.366 . S
C281 C283 1.388 . S
C282 C281 1.366 . S
C282 C286 1.385 . S
C283 H258 0.951 . S
C283 C281 1.388 . S
C283 C284 1.366 . S
C284 C283 1.366 . S
C284 C285 1.414 . S
C284 C287 1.499 . S
C285 H259 0.950 . S
C285 C284 1.414 . S
C285 C286 1.374 . S
C286 H260 0.950 . S
C286 C282 1.385 . S
C286 C285 1.374 . S
C287 C284 1.499 . S
C287 C288 1.373 . S
C287 C289 1.389 . S
C288 H261 0.950 . S
C288 C274 1.377 . S
C288 C287 1.373 . S
C289 C273 1.377 . S
C289 C287 1.389 . S
C289 C290 1.524 . S
C290 C289 1.524 . S
C290 C291 1.397 . S
C290 C295 1.363 . S
C291 H262 0.950 . S
C291 C290 1.397 . S
C291 C292 1.334 . S
C292 H263 0.950 . S
C292 C291 1.334 . S
C292 C293 1.287 . S
C293 C292 1.287 . S
C293 C294 1.524 . S
C293 H296 0.999 . S
C294 H264 0.950 . S
C294 C293 1.524 . S
C294 C295 1.415 . S
C295 H265 0.950 . S
C295 C290 1.363 . S
C295 C294 1.415 . S
H296 C293 0.999 . S
H297 C278 0.913 . S
H298 C316 0.951 . S
H299 C318 0.951 . S
H300 C320 0.950 . S
H301 C321 0.950 . S
H302 C323 0.950 . S
H303 C326 0.950 . S
H304 C327 0.950 . S
H305 C329 0.950 . S
H306 C330 0.950 . S
H307 C331 0.951 . S
H308 C333 0.951 . S
H309 C335 0.950 . S
H310 C336 0.950 . S
H311 C338 0.950 . S
H312 C341 0.950 . S
H313 C342 0.950 . S
H314 C344 0.950 . S
H315 C345 0.950 . S
C316 H298 0.951 . S
C316 C317 1.366 . S
C316 C318 1.388 . S
C317 C316 1.366 . S
C317 C321 1.385 . S
C318 H299 0.951 . S
C318 C316 1.388 . S
C318 C319 1.366 . S
C319 C318 1.366 . S
C319 C320 1.414 . S
C319 C322 1.499 . S
C320 H300 0.950 . S
C320 C319 1.414 . S
C320 C321 1.374 . S
C321 H301 0.950 . S
C321 C317 1.385 . S
C321 C320 1.374 . S
C322 C319 1.499 . S
C322 C323 1.373 . S
C322 C324 1.389 . S
C323 H302 0.950 . S
C323 C322 1.373 . S
C323 C339 1.377 . S
C324 C322 1.389 . S
C324 C325 1.524 . S
C324 C338 1.377 . S
C325 C324 1.524 . S
C325 C326 1.397 . S
C325 C330 1.363 . S
C326 H303 0.950 . S
C326 C325 1.397 . S
C326 C327 1.334 . S
C327 H304 0.950 . S
C327 C326 1.334 . S
C327 C328 1.287 . S
C328 C327 1.287 . S
C328 C329 1.524 . S
C328 H347 0.913 . S
C329 H305 0.950 . S
C329 C328 1.524 . S
C329 C330 1.415 . S
C330 H306 0.950 . S
C330 C325 1.363 . S
C330 C329 1.415 . S
C331 H307 0.951 . S
C331 C332 1.366 . S
C331 C333 1.388 . S
C332 C331 1.366 . S
C332 C336 1.385 . S
C333 H308 0.951 . S
C333 C331 1.388 . S
C333 C334 1.366 . S
C334 C333 1.366 . S
C334 C335 1.414 . S
C334 C337 1.499 . S
C335 H309 0.950 . S
C335 C334 1.414 . S
C335 C336 1.374 . S
C336 H310 0.950 . S
C336 C332 1.385 . S
C336 C335 1.374 . S
C337 C334 1.499 . S
C337 C338 1.373 . S
C337 C339 1.389 . S
C338 H311 0.950 . S
C338 C324 1.377 . S
C338 C337 1.373 . S
C339 C323 1.377 . S
C339 C337 1.389 . S
C339 C340 1.524 . S
C340 C339 1.524 . S
C340 C341 1.397 . S
C340 C345 1.363 . S
C341 H312 0.950 . S
C341 C340 1.397 . S
C341 C342 1.334 . S
C342 H313 0.950 . S
C342 C341 1.334 . S
C342 C343 1.287 . S
C343 C342 1.287 . S
C343 C344 1.524 . S
C343 H346 0.999 . S
C344 H314 0.950 . S
C344 C343 1.524 . S
C344 C345 1.415 . S
C345 H315 0.950 . S
C345 C340 1.363 . S
C345 C344 1.415 . S
H346 C343 0.999 . S
H347 C328 0.913 . S
H348 C366 0.951 . S
H349 C368 0.951 . S
H350 C370 0.950 . S
H351 C371 0.950 . S
H352 C373 0.950 . S
H353 C376 0.950 . S
H354 C377 0.950 . S
H355 C379 0.950 . S
H356 C380 0.950 . S
H357 C381 0.951 . S
H358 C383 0.951 . S
H359 C385 0.950 . S
H360 C386 0.950 . S
H361 C388 0.950 . S
H362 C391 0.950 . S
H363 C392 0.950 . S
H364 C394 0.950 . S
H365 C395 0.950 . S
C366 H348 0.951 . S
C366 C367 1.366 . S
C366 C368 1.388 . S
C367 C366 1.366 . S
C367 C371 1.385 . S
C368 H349 0.951 . S
C368 C366 1.388 . S
C368 C369 1.366 . S
C369 C368 1.366 . S
C369 C370 1.414 . S
C369 C372 1.499 . S
C370 H350 0.950 . S
C370 C369 1.414 . S
C370 C371 1.374 . S
C371 H351 0.950 . S
C371 C367 1.385 . S
C371 C370 1.374 . S
C372 C369 1.499 . S
C372 C373 1.373 . S
C372 C374 1.389 . S
C373 H352 0.950 . S
C373 C372 1.373 . S
C373 C389 1.377 . S
C374 C372 1.389 . S
C374 C375 1.524 . S
C374 C388 1.377 . S
C375 C374 1.524 . S
C375 C376 1.397 . S
C375 C380 1.363 . S
C376 H353 0.950 . S
C376 C375 1.397 . S
C376 C377 1.334 . S
C377 H354 0.950 . S
C377 C376 1.334 . S
C377 C378 1.287 . S
C378 C377 1.287 . S
C378 C379 1.524 . S
C378 H397 0.913 . S
C379 H355 0.950 . S
C379 C378 1.524 . S
C379 C380 1.415 . S
C380 H356 0.950 . S
C380 C375 1.363 . S
C380 C379 1.415 . S
C381 H357 0.951 . S
C381 C382 1.366 . S
C381 C383 1.388 . S
C382 C381 1.366 . S
C382 C386 1.385 . S
C383 H358 0.951 . S
C383 C381 1.388 . S
C383 C384 1.366 . S
C384 C383 1.366 . S
C384 C385 1.414 . S
C384 C387 1.499 . S
C385 H359 0.950 . S
C385 C384 1.414 . S
C385 C386 1.374 . S
C386 H360 0.950 . S
C386 C382 1.385 . S
C386 C385 1.374 . S
C387 C384 1.499 . S
C387 C388 1.373 . S
C387 C389 1.389 . S
C388 H361 0.950 . S
C388 C374 1.377 . S
C388 C387 1.373 . S
C389 C373 1.377 . S
C389 C387 1.389 . S
C389 C390 1.524 . S
C390 C389 1.524 . S
C390 C391 1.397 . S
C390 C395 1.363 . S
C391 H362 0.950 . S
C391 C390 1.397 . S
C391 C392 1.334 . S
C392 H363 0.950 . S
C392 C391 1.334 . S
C392 C393 1.287 . S
C393 C392 1.287 . S
C393 C394 1.524 . S
C393 H396 0.999 . S
C394 H364 0.950 . S
C394 C393 1.524 . S
C394 C395 1.415 . S
C395 H365 0.950 . S
C395 C390 1.363 . S
C395 C394 1.415 . S
H396 C393 0.999 . S
H397 C378 0.913 . S
H398 C416 0.951 . S
H399 C418 0.951 . S
H400 C420 0.950 . S
H401 C421 0.950 . S
H402 C423 0.950 . S
H403 C426 0.950 . S
H404 C427 0.950 . S
H405 C429 0.950 . S
H406 C430 0.950 . S
H407 C431 0.951 . S
H408 C433 0.951 1_455 S
H409 C435 0.950 . S
H410 C436 0.950 . S
H411 C438 0.950 . S
H412 C441 0.950 . S
H413 C442 0.950 1_655 S
H414 C444 0.950 . S
H415 C445 0.950 . S
C416 H398 0.951 . S
C416 C417 1.366 . S
C416 C418 1.388 . S
C417 C416 1.366 . S
C417 C421 1.385 . S
C418 H399 0.951 . S
C418 C416 1.388 . S
C418 C419 1.366 . S
C419 C418 1.366 . S
C419 C420 1.414 . S
C419 C422 1.499 . S
C420 H400 0.950 . S
C420 C419 1.414 . S
C420 C421 1.374 . S
C421 H401 0.950 . S
C421 C417 1.385 . S
C421 C420 1.374 . S
C422 C419 1.499 . S
C422 C423 1.373 . S
C422 C424 1.389 . S
C423 H402 0.950 . S
C423 C422 1.373 . S
C423 C439 1.377 . S
C424 C422 1.389 . S
C424 C425 1.524 . S
C424 C438 1.377 . S
C425 C424 1.524 . S
C425 C426 1.397 . S
C425 C430 1.363 . S
C426 H403 0.950 . S
C426 C425 1.397 . S
C426 C427 1.334 . S
C427 H404 0.950 . S
C427 C426 1.334 . S
C427 C428 1.287 . S
C428 C427 1.287 . S
C428 C429 1.524 . S
C428 H447 0.913 . S
C429 H405 0.950 . S
C429 C428 1.524 . S
C429 C430 1.415 . S
C430 H406 0.950 . S
C430 C425 1.363 . S
C430 C429 1.415 . S
C431 H407 0.951 . S
C431 C432 1.366 1_455 S
C431 C433 1.388 1_455 S
C432 C431 1.366 1_655 S
C432 C436 1.385 . S
C433 H408 0.951 1_655 S
C433 C431 1.388 1_655 S
C433 C434 1.366 . S
C434 C433 1.366 . S
C434 C435 1.414 . S
C434 C437 1.499 . S
C435 H409 0.950 . S
C435 C434 1.414 . S
C435 C436 1.374 . S
C436 H410 0.950 . S
C436 C432 1.385 . S
C436 C435 1.374 . S
C437 C434 1.499 . S
C437 C438 1.373 . S
C437 C439 1.389 . S
C438 H411 0.950 . S
C438 C424 1.377 . S
C438 C437 1.373 . S
C439 C423 1.377 . S
C439 C437 1.389 . S
C439 C440 1.524 . S
C440 C439 1.524 . S
C440 C441 1.397 . S
C440 C445 1.363 1_655 S
C441 H412 0.950 . S
C441 C440 1.397 . S
C441 C442 1.334 1_655 S
C442 H413 0.950 1_455 S
C442 C441 1.334 1_455 S
C442 C443 1.287 . S
C443 C442 1.287 . S
C443 C444 1.524 . S
C443 H446 0.999 . S
C444 H414 0.950 . S
C444 C443 1.524 . S
C444 C445 1.415 . S
C445 H415 0.950 . S
C445 C440 1.363 1_455 S
C445 C444 1.415 . S
H446 C443 0.999 . S
H447 C428 0.913 . S
H448 C466 0.951 . S
H449 C468 0.951 . S
H450 C470 0.950 . S
H451 C471 0.950 . S
H452 C473 0.950 . S
H453 C476 0.950 . S
H454 C477 0.950 . S
H455 C479 0.950 . S
H456 C480 0.950 . S
H457 C481 0.951 . S
H458 C483 0.951 . S
H459 C485 0.950 . S
H460 C486 0.950 . S
H461 C488 0.950 . S
H462 C491 0.950 . S
H463 C492 0.950 . S
H464 C494 0.950 . S
H465 C495 0.950 . S
C466 H448 0.951 . S
C466 C467 1.366 . S
C466 C468 1.388 . S
C467 C466 1.366 . S
C467 C471 1.385 . S
C468 H449 0.951 . S
C468 C466 1.388 . S
C468 C469 1.366 . S
C469 C468 1.366 . S
C469 C470 1.414 . S
C469 C472 1.499 . S
C470 H450 0.950 . S
C470 C469 1.414 . S
C470 C471 1.374 . S
C471 H451 0.950 . S
C471 C467 1.385 . S
C471 C470 1.374 . S
C472 C469 1.499 . S
C472 C473 1.373 . S
C472 C474 1.389 . S
C473 H452 0.950 . S
C473 C472 1.373 . S
C473 C489 1.377 . S
C474 C472 1.389 . S
C474 C475 1.524 . S
C474 C488 1.377 . S
C475 C474 1.524 . S
C475 C476 1.397 . S
C475 C480 1.363 . S
C476 H453 0.950 . S
C476 C475 1.397 . S
C476 C477 1.334 . S
C477 H454 0.950 . S
C477 C476 1.334 . S
C477 C478 1.287 . S
C478 C477 1.287 . S
C478 C479 1.524 . S
C478 H497 0.913 . S
C479 H455 0.950 . S
C479 C478 1.524 . S
C479 C480 1.415 . S
C480 H456 0.950 . S
C480 C475 1.363 . S
C480 C479 1.415 . S
C481 H457 0.951 . S
C481 C482 1.366 . S
C481 C483 1.388 . S
C482 C481 1.366 . S
C482 C486 1.385 . S
C483 H458 0.951 . S
C483 C481 1.388 . S
C483 C484 1.366 . S
C484 C483 1.366 . S
C484 C485 1.414 . S
C484 C487 1.499 . S
C485 H459 0.950 . S
C485 C484 1.414 . S
C485 C486 1.374 . S
C486 H460 0.950 . S
C486 C482 1.385 . S
C486 C485 1.374 . S
C487 C484 1.499 . S
C487 C488 1.373 . S
C487 C489 1.389 . S
C488 H461 0.950 . S
C488 C474 1.377 . S
C488 C487 1.373 . S
C489 C473 1.377 . S
C489 C487 1.389 . S
C489 C490 1.524 . S
C490 C489 1.524 . S
C490 C491 1.397 . S
C490 C495 1.363 . S
C491 H462 0.950 . S
C491 C490 1.397 . S
C491 C492 1.334 . S
C492 H463 0.950 . S
C492 C491 1.334 . S
C492 C493 1.287 . S
C493 C492 1.287 . S
C493 C494 1.524 . S
C493 H496 0.999 . S
C494 H464 0.950 . S
C494 C493 1.524 . S
C494 C495 1.415 . S
C495 H465 0.950 . S
C495 C490 1.363 . S
C495 C494 1.415 . S
H496 C493 0.999 . S
H497 C478 0.913 . S
H498 C516 0.951 . S
H499 C518 0.951 . S
H500 C520 0.950 . S
H501 C521 0.950 . S
H502 C523 0.950 . S
H503 C526 0.950 . S
H504 C527 0.950 . S
H505 C529 0.950 1_655 S
H506 C530 0.950 . S
H507 C531 0.951 . S
H508 C533 0.951 . S
H509 C535 0.950 . S
H510 C536 0.950 . S
H511 C538 0.950 . S
H512 C541 0.950 . S
H513 C542 0.950 . S
H514 C544 0.950 . S
H515 C545 0.950 . S
C516 H498 0.951 . S
C516 C517 1.366 . S
C516 C518 1.388 . S
C517 C516 1.366 . S
C517 C521 1.385 . S
C518 H499 0.951 . S
C518 C516 1.388 . S
C518 C519 1.366 . S
C519 C518 1.366 . S
C519 C520 1.414 . S
C519 C522 1.499 . S
C520 H500 0.950 . S
C520 C519 1.414 . S
C520 C521 1.374 . S
C521 H501 0.950 . S
C521 C517 1.385 . S
C521 C520 1.374 . S
C522 C519 1.499 . S
C522 C523 1.373 . S
C522 C524 1.389 . S
C523 H502 0.950 . S
C523 C522 1.373 . S
C523 C539 1.377 . S
C524 C522 1.389 . S
C524 C525 1.524 . S
C524 C538 1.377 . S
C525 C524 1.524 . S
C525 C526 1.397 . S
C525 C530 1.363 . S
C526 H503 0.950 . S
C526 C525 1.397 . S
C526 C527 1.334 . S
C527 H504 0.950 . S
C527 C526 1.334 . S
C527 C528 1.287 . S
C528 C527 1.287 . S
C528 C529 1.524 . S
C528 H547 0.913 . S
C529 H505 0.950 1_455 S
C529 C528 1.524 . S
C529 C530 1.415 . S
C530 H506 0.950 . S
C530 C525 1.363 . S
C530 C529 1.415 . S
C531 H507 0.951 . S
C531 C532 1.366 . S
C531 C533 1.388 . S
C532 C531 1.366 . S
C532 C536 1.385 . S
C533 H508 0.951 . S
C533 C531 1.388 . S
C533 C534 1.366 . S
C534 C533 1.366 . S
C534 C535 1.414 . S
C534 C537 1.499 . S
C535 H509 0.950 . S
C535 C534 1.414 . S
C535 C536 1.374 . S
C536 H510 0.950 . S
C536 C532 1.385 . S
C536 C535 1.374 . S
C537 C534 1.499 . S
C537 C538 1.373 . S
C537 C539 1.389 . S
C538 H511 0.950 . S
C538 C524 1.377 . S
C538 C537 1.373 . S
C539 C523 1.377 . S
C539 C537 1.389 . S
C539 C540 1.524 . S
C540 C539 1.524 . S
C540 C541 1.397 . S
C540 C545 1.363 . S
C541 H512 0.950 . S
C541 C540 1.397 . S
C541 C542 1.334 . S
C542 H513 0.950 . S
C542 C541 1.334 . S
C542 C543 1.287 . S
C543 C542 1.287 . S
C543 C544 1.524 . S
C543 H546 0.999 1_565 S
C544 H514 0.950 . S
C544 C543 1.524 . S
C544 C545 1.415 . S
C545 H515 0.950 . S
C545 C540 1.363 . S
C545 C544 1.415 . S
H546 C543 0.999 1_545 S
H547 C528 0.913 . S
H548 C566 0.951 . S
H549 C568 0.951 . S
H550 C570 0.950 . S
H551 C571 0.950 . S
H552 C573 0.950 . S
H553 C576 0.950 . S
H554 C577 0.950 . S
H555 C579 0.950 . S
H556 C580 0.950 . S
H557 C581 0.951 . S
H558 C583 0.951 . S
H559 C585 0.950 . S
H560 C586 0.950 1_554 S
H561 C588 0.950 . S
H562 C591 0.950 . S
H563 C592 0.950 . S
H564 C594 0.950 . S
H565 C595 0.950 . S
C566 H548 0.951 . S
C566 C567 1.366 . S
C566 C568 1.388 . S
C567 C566 1.366 . S
C567 C571 1.385 . S
C568 H549 0.951 . S
C568 C566 1.388 . S
C568 C569 1.366 . S
C569 C568 1.366 . S
C569 C570 1.414 . S
C569 C572 1.499 . S
C570 H550 0.950 . S
C570 C569 1.414 . S
C570 C571 1.374 . S
C571 H551 0.950 . S
C571 C567 1.385 . S
C571 C570 1.374 . S
C572 C569 1.499 . S
C572 C573 1.373 . S
C572 C574 1.389 . S
C573 H552 0.950 . S
C573 C572 1.373 . S
C573 C589 1.377 . S
C574 C572 1.389 . S
C574 C575 1.524 . S
C574 C588 1.377 . S
C575 C574 1.524 . S
C575 C576 1.397 . S
C575 C580 1.363 . S
C576 H553 0.950 . S
C576 C575 1.397 . S
C576 C577 1.334 . S
C577 H554 0.950 . S
C577 C576 1.334 . S
C577 C578 1.287 . S
C578 C577 1.287 . S
C578 C579 1.524 . S
C578 H597 0.913 . S
C579 H555 0.950 . S
C579 C578 1.524 . S
C579 C580 1.415 . S
C580 H556 0.950 . S
C580 C575 1.363 . S
C580 C579 1.415 . S
C581 H557 0.951 . S
C581 C582 1.366 . S
C581 C583 1.388 . S
C582 C581 1.366 . S
C582 C586 1.385 . S
C583 H558 0.951 . S
C583 C581 1.388 . S
C583 C584 1.366 . S
C584 C583 1.366 . S
C584 C585 1.414 . S
C584 C587 1.499 . S
C585 H559 0.950 . S
C585 C584 1.414 . S
C585 C586 1.374 . S
C586 H560 0.950 1_556 S
C586 C582 1.385 . S
C586 C585 1.374 . S
C587 C584 1.499 . S
C587 C588 1.373 . S
C587 C589 1.389 . S
C588 H561 0.950 . S
C588 C574 1.377 . S
C588 C587 1.373 . S
C589 C573 1.377 . S
C589 C587 1.389 . S
C589 C590 1.524 . S
C590 C589 1.524 . S
C590 C591 1.397 . S
C590 C595 1.363 . S
C591 H562 0.950 . S
C591 C590 1.397 . S
C591 C592 1.334 . S
C592 H563 0.950 . S
C592 C591 1.334 . S
C592 C593 1.287 . S
C593 C592 1.287 . S
C593 C594 1.524 . S
C593 H596 0.999 . S
C594 H564 0.950 . S
C594 C593 1.524 . S
C594 C595 1.415 . S
C595 H565 0.950 . S
C595 C590 1.363 . S
C595 C594 1.415 . S
H596 C593 0.999 . S
H597 C578 0.913 . S
H598 C616 0.951 . S
H599 C618 0.951 . S
H600 C620 0.950 . S
H601 C621 0.950 . S
H602 C623 0.950 . S
H603 C626 0.950 . S
H604 C627 0.950 . S
H605 C629 0.950 . S
H606 C630 0.950 . S
H607 C631 0.951 . S
H608 C633 0.951 . S
H609 C635 0.950 . S
H610 C636 0.950 . S
H611 C638 0.950 . S
H612 C641 0.950 . S
H613 C642 0.950 . S
H614 C644 0.950 . S
H615 C645 0.950 . S
C616 H598 0.951 . S
C616 C617 1.366 . S
C616 C618 1.388 . S
C617 C616 1.366 . S
C617 C621 1.385 . S
C618 H599 0.951 . S
C618 C616 1.388 . S
C618 C619 1.366 . S
C619 C618 1.366 . S
C619 C620 1.414 . S
C619 C622 1.499 . S
C620 H600 0.950 . S
C620 C619 1.414 . S
C620 C621 1.374 . S
C621 H601 0.950 . S
C621 C617 1.385 . S
C621 C620 1.374 . S
C622 C619 1.499 . S
C622 C623 1.373 . S
C622 C624 1.389 . S
C623 H602 0.950 . S
C623 C622 1.373 . S
C623 C639 1.377 . S
C624 C622 1.389 . S
C624 C625 1.524 . S
C624 C638 1.377 . S
C625 C624 1.524 . S
C625 C626 1.397 . S
C625 C630 1.363 . S
C626 H603 0.950 . S
C626 C625 1.397 . S
C626 C627 1.334 . S
C627 H604 0.950 . S
C627 C626 1.334 . S
C627 C628 1.287 . S
C628 C627 1.287 . S
C628 C629 1.524 . S
C628 H647 0.913 . S
C629 H605 0.950 . S
C629 C628 1.524 . S
C629 C630 1.415 . S
C630 H606 0.950 . S
C630 C625 1.363 . S
C630 C629 1.415 . S
C631 H607 0.951 . S
C631 C632 1.366 . S
C631 C633 1.388 . S
C632 C631 1.366 . S
C632 C636 1.385 . S
C633 H608 0.951 . S
C633 C631 1.388 . S
C633 C634 1.366 . S
C634 C633 1.366 . S
C634 C635 1.414 . S
C634 C637 1.499 . S
C635 H609 0.950 . S
C635 C634 1.414 . S
C635 C636 1.374 . S
C636 H610 0.950 . S
C636 C632 1.385 . S
C636 C635 1.374 . S
C637 C634 1.499 . S
C637 C638 1.373 . S
C637 C639 1.389 . S
C638 H611 0.950 . S
C638 C624 1.377 . S
C638 C637 1.373 . S
C639 C623 1.377 . S
C639 C637 1.389 . S
C639 C640 1.524 . S
C640 C639 1.524 . S
C640 C641 1.397 . S
C640 C645 1.363 . S
C641 H612 0.950 . S
C641 C640 1.397 . S
C641 C642 1.334 . S
C642 H613 0.950 . S
C642 C641 1.334 . S
C642 C643 1.287 . S
C643 C642 1.287 . S
C643 C644 1.524 . S
C643 H646 0.999 . S
C644 H614 0.950 . S
C644 C643 1.524 . S
C644 C645 1.415 . S
C645 H615 0.950 . S
C645 C640 1.363 . S
C645 C644 1.415 . S
H646 C643 0.999 . S
H647 C628 0.913 . S
H648 C666 0.951 . S
H649 C668 0.951 . S
H650 C670 0.950 . S
H651 C671 0.950 . S
H652 C673 0.950 . S
H653 C676 0.950 . S
H654 C677 0.950 . S
H655 C679 0.950 . S
H656 C680 0.950 . S
H657 C681 0.951 . S
H658 C683 0.951 . S
H659 C685 0.950 . S
H660 C686 0.950 . S
H661 C688 0.950 . S
H662 C691 0.950 . S
H663 C692 0.950 . S
H664 C694 0.950 . S
H665 C695 0.950 . S
C666 H648 0.951 . S
C666 C667 1.366 . S
C666 C668 1.388 . S
C667 C666 1.366 . S
C667 C671 1.385 . S
C668 H649 0.951 . S
C668 C666 1.388 . S
C668 C669 1.366 . S
C669 C668 1.366 . S
C669 C670 1.414 . S
C669 C672 1.499 . S
C670 H650 0.950 . S
C670 C669 1.414 . S
C670 C671 1.374 . S
C671 H651 0.950 . S
C671 C667 1.385 . S
C671 C670 1.374 . S
C672 C669 1.499 . S
C672 C673 1.373 . S
C672 C674 1.389 . S
C673 H652 0.950 . S
C673 C672 1.373 . S
C673 C689 1.377 . S
C674 C672 1.389 . S
C674 C675 1.524 . S
C674 C688 1.377 . S
C675 C674 1.524 . S
C675 C676 1.397 . S
C675 C680 1.363 . S
C676 H653 0.950 . S
C676 C675 1.397 . S
C676 C677 1.334 . S
C677 H654 0.950 . S
C677 C676 1.334 . S
C677 C678 1.287 . S
C678 C677 1.287 . S
C678 C679 1.524 . S
C678 H697 0.913 . S
C679 H655 0.950 . S
C679 C678 1.524 . S
C679 C680 1.415 . S
C680 H656 0.950 . S
C680 C675 1.363 . S
C680 C679 1.415 . S
C681 H657 0.951 . S
C681 C682 1.366 . S
C681 C683 1.388 . S
C682 C681 1.366 . S
C682 C686 1.385 . S
C683 H658 0.951 . S
C683 C681 1.388 . S
C683 C684 1.366 . S
C684 C683 1.366 . S
C684 C685 1.414 . S
C684 C687 1.499 . S
C685 H659 0.950 . S
C685 C684 1.414 . S
C685 C686 1.374 . S
C686 H660 0.950 . S
C686 C682 1.385 . S
C686 C685 1.374 . S
C687 C684 1.499 . S
C687 C688 1.373 . S
C687 C689 1.389 . S
C688 H661 0.950 . S
C688 C674 1.377 . S
C688 C687 1.373 . S
C689 C673 1.377 . S
C689 C687 1.389 . S
C689 C690 1.524 . S
C690 C689 1.524 . S
C690 C691 1.397 . S
C690 C695 1.363 . S
C691 H662 0.950 . S
C691 C690 1.397 . S
C691 C692 1.334 . S
C692 H663 0.950 . S
C692 C691 1.334 . S
C692 C693 1.287 . S
C693 C692 1.287 . S
C693 C694 1.524 . S
C693 H696 0.999 . S
C694 H664 0.950 . S
C694 C693 1.524 . S
C694 C695 1.415 . S
C695 H665 0.950 . S
C695 C690 1.363 . S
C695 C694 1.415 . S
H696 C693 0.999 . S
H697 C678 0.913 . S
H698 C716 0.951 . S
H699 C718 0.951 . S
H700 C720 0.950 . S
H701 C721 0.950 . S
H702 C723 0.950 . S
H703 C726 0.950 . S
H704 C727 0.950 . S
H705 C729 0.950 . S
H706 C730 0.950 . S
H707 C731 0.951 1_554 S
H708 C733 0.951 . S
H709 C735 0.950 . S
H710 C736 0.950 . S
H711 C738 0.950 . S
H712 C741 0.950 . S
H713 C742 0.950 . S
H714 C744 0.950 . S
H715 C745 0.950 . S
C716 H698 0.951 . S
C716 C717 1.366 . S
C716 C718 1.388 . S
C717 C716 1.366 . S
C717 C721 1.385 . S
C718 H699 0.951 . S
C718 C716 1.388 . S
C718 C719 1.366 . S
C719 C718 1.366 . S
C719 C720 1.414 . S
C719 C722 1.499 . S
C720 H700 0.950 . S
C720 C719 1.414 . S
C720 C721 1.374 . S
C721 H701 0.950 . S
C721 C717 1.385 . S
C721 C720 1.374 . S
C722 C719 1.499 . S
C722 C723 1.373 . S
C722 C724 1.389 . S
C723 H702 0.950 . S
C723 C722 1.373 . S
C723 C739 1.377 . S
C724 C722 1.389 . S
C724 C725 1.524 . S
C724 C738 1.377 . S
C725 C724 1.524 . S
C725 C726 1.397 . S
C725 C730 1.363 . S
C726 H703 0.950 . S
C726 C725 1.397 . S
C726 C727 1.334 1_556 S
C727 H704 0.950 . S
C727 C726 1.334 1_554 S
C727 C728 1.287 . S
C728 C727 1.287 . S
C728 C729 1.524 . S
C728 H747 0.913 . S
C729 H705 0.950 . S
C729 C728 1.524 . S
C729 C730 1.415 1_554 S
C730 H706 0.950 . S
C730 C725 1.363 . S
C730 C729 1.415 1_556 S
C731 H707 0.951 1_556 S
C731 C732 1.366 1_556 S
C731 C733 1.388 . S
C732 C731 1.366 1_554 S
C732 C736 1.385 . S
C733 H708 0.951 . S
C733 C731 1.388 . S
C733 C734 1.366 . S
C734 C733 1.366 . S
C734 C735 1.414 . S
C734 C737 1.499 . S
C735 H709 0.950 . S
C735 C734 1.414 . S
C735 C736 1.374 1_556 S
C736 H710 0.950 . S
C736 C732 1.385 . S
C736 C735 1.374 1_554 S
C737 C734 1.499 . S
C737 C738 1.373 . S
C737 C739 1.389 . S
C738 H711 0.950 . S
C738 C724 1.377 . S
C738 C737 1.373 . S
C739 C723 1.377 . S
C739 C737 1.389 . S
C739 C740 1.524 . S
C740 C739 1.524 . S
C740 C741 1.397 . S
C740 C745 1.363 . S
C741 H712 0.950 . S
C741 C740 1.397 . S
C741 C742 1.334 . S
C742 H713 0.950 . S
C742 C741 1.334 . S
C742 C743 1.287 . S
C743 C742 1.287 . S
C743 C744 1.524 . S
C743 H746 0.999 . S
C744 H714 0.950 . S
C744 C743 1.524 . S
C744 C745 1.415 . S
C745 H715 0.950 . S
C745 C740 1.363 . S
C745 C744 1.415 . S
H746 C743 0.999 . S
H747 C728 0.913 . S
H748 C766 0.951 . S
H749 C768 0.951 . S
H750 C770 0.950 . S
H751 C771 0.950 . S
H752 C773 0.950 . S
H753 C776 0.950 . S
H754 C777 0.950 . S
H755 C779 0.950 . S
H756 C780 0.950 . S
H757 C781 0.951 . S
H758 C783 0.951 . S
H759 C785 0.950 . S
H760 C786 0.950 . S
H761 C788 0.950 . S
H762 C791 0.950 1_455 S
H763 C792 0.950 . S
H764 C794 0.950 . S
H765 C795 0.950 . S
C766 H748 0.951 . S
C766 C767 1.366 . S
C766 C768 1.388 . S
C767 C766 1.366 . S
C767 C771 1.385 . S
C768 H749 0.951 . S
C768 C766 1.388 . S
C768 C769 1.366 . S
C769 C768 1.366 . S
C769 C770 1.414 . S
C769 C772 1.499 . S
C770 H750 0.950 . S
C770 C769 1.414 . S
C770 C771 1.374 . S
C771 H751 0.950 . S
C771 C767 1.385 . S
C771 C770 1.374 . S
C772 C769 1.499 . S
C772 C773 1.373 . S
C772 C774 1.389 . S
C773 H752 0.950 . S
C773 C772 1.373 . S
C773 C789 1.377 . S
C774 C772 1.389 . S
C774 C775 1.524 . S
C774 C788 1.377 . S
C775 C774 1.524 . S
C775 C776 1.397 . S
C775 C780 1.363 . S
C776 H753 0.950 . S
C776 C775 1.397 . S
C776 C777 1.334 . S
C777 H754 0.950 . S
C777 C776 1.334 . S
C777 C778 1.287 . S
C778 C777 1.287 . S
C778 C779 1.524 . S
C778 H797 0.913 . S
C779 H755 0.950 . S
C779 C778 1.524 . S
C779 C780 1.415 . S
C780 H756 0.950 . S
C780 C775 1.363 . S
C780 C779 1.415 . S
C781 H757 0.951 . S
C781 C782 1.366 . S
C781 C783 1.388 . S
C782 C781 1.366 . S
C782 C786 1.385 . S
C783 H758 0.951 . S
C783 C781 1.388 . S
C783 C784 1.366 . S
C784 C783 1.366 . S
C784 C785 1.414 . S
C784 C787 1.499 . S
C785 H759 0.950 . S
C785 C784 1.414 . S
C785 C786 1.374 . S
C786 H760 0.950 . S
C786 C782 1.385 . S
C786 C785 1.374 . S
C787 C784 1.499 . S
C787 C788 1.373 . S
C787 C789 1.389 . S
C788 H761 0.950 . S
C788 C774 1.377 . S
C788 C787 1.373 . S
C789 C773 1.377 . S
C789 C787 1.389 . S
C789 C790 1.524 . S
C790 C789 1.524 . S
C790 C791 1.397 . S
C790 C795 1.363 . S
C791 H762 0.950 1_655 S
C791 C790 1.397 . S
C791 C792 1.334 1_655 S
C792 H763 0.950 . S
C792 C791 1.334 1_455 S
C792 C793 1.287 . S
C793 C792 1.287 . S
C793 C794 1.524 1_455 S
C793 H796 0.999 . S
C794 H764 0.950 . S
C794 C793 1.524 1_655 S
C794 C795 1.415 . S
C795 H765 0.950 . S
C795 C790 1.363 . S
C795 C794 1.415 . S
H796 C793 0.999 . S
H797 C778 0.913 . S
H798 C816 0.951 . S
H799 C818 0.951 . S
H800 C820 0.950 . S
H801 C821 0.950 . S
H802 C823 0.950 . S
H803 C826 0.950 . S
H804 C827 0.950 . S
H805 C829 0.950 . S
H806 C830 0.950 . S
H807 C831 0.951 . S
H808 C833 0.951 . S
H809 C835 0.950 . S
H810 C836 0.950 . S
H811 C838 0.950 . S
H812 C841 0.950 . S
H813 C842 0.950 . S
H814 C844 0.950 . S
H815 C845 0.950 . S
C816 H798 0.951 . S
C816 C817 1.366 . S
C816 C818 1.388 . S
C817 C816 1.366 . S
C817 C821 1.385 . S
C818 H799 0.951 . S
C818 C816 1.388 . S
C818 C819 1.366 . S
C819 C818 1.366 . S
C819 C820 1.414 . S
C819 C822 1.499 . S
C820 H800 0.950 . S
C820 C819 1.414 . S
C820 C821 1.374 . S
C821 H801 0.950 . S
C821 C817 1.385 . S
C821 C820 1.374 . S
C822 C819 1.499 . S
C822 C823 1.373 . S
C822 C824 1.389 . S
C823 H802 0.950 . S
C823 C822 1.373 . S
C823 C839 1.377 . S
C824 C822 1.389 . S
C824 C825 1.524 . S
C824 C838 1.377 . S
C825 C824 1.524 . S
C825 C826 1.397 . S
C825 C830 1.363 . S
C826 H803 0.950 . S
C826 C825 1.397 . S
C826 C827 1.334 . S
C827 H804 0.950 . S
C827 C826 1.334 . S
C827 C828 1.287 . S
C828 C827 1.287 . S
C828 C829 1.524 . S
C828 H847 0.913 . S
C829 H805 0.950 . S
C829 C828 1.524 . S
C829 C830 1.415 . S
C830 H806 0.950 . S
C830 C825 1.363 . S
C830 C829 1.415 . S
C831 H807 0.951 . S
C831 C832 1.366 . S
C831 C833 1.388 . S
C832 C831 1.366 . S
C832 C836 1.385 . S
C833 H808 0.951 . S
C833 C831 1.388 . S
C833 C834 1.366 . S
C834 C833 1.366 . S
C834 C835 1.414 . S
C834 C837 1.499 . S
C835 H809 0.950 . S
C835 C834 1.414 . S
C835 C836 1.374 . S
C836 H810 0.950 . S
C836 C832 1.385 . S
C836 C835 1.374 . S
C837 C834 1.499 . S
C837 C838 1.373 . S
C837 C839 1.389 . S
C838 H811 0.950 . S
C838 C824 1.377 . S
C838 C837 1.373 . S
C839 C823 1.377 . S
C839 C837 1.389 . S
C839 C840 1.524 . S
C840 C839 1.524 . S
C840 C841 1.397 . S
C840 C845 1.363 . S
C841 H812 0.950 . S
C841 C840 1.397 . S
C841 C842 1.334 . S
C842 H813 0.950 . S
C842 C841 1.334 . S
C842 C843 1.287 . S
C843 C842 1.287 . S
C843 C844 1.524 . S
C843 H846 0.999 . S
C844 H814 0.950 . S
C844 C843 1.524 . S
C844 C845 1.415 . S
C845 H815 0.950 . S
C845 C840 1.363 . S
C845 C844 1.415 . S
H846 C843 0.999 . S
H847 C828 0.913 . S
H848 C866 0.951 . S
H849 C868 0.951 . S
H850 C870 0.950 . S
H851 C871 0.950 . S
H852 C873 0.950 . S
H853 C876 0.950 . S
H854 C877 0.950 . S
H855 C879 0.950 . S
H856 C880 0.950 . S
H857 C881 0.951 . S
H858 C883 0.951 . S
H859 C885 0.950 . S
H860 C886 0.950 . S
H861 C888 0.950 . S
H862 C891 0.950 . S
H863 C892 0.950 . S
H864 C894 0.950 . S
H865 C895 0.950 . S
C866 H848 0.951 . S
C866 C867 1.366 . S
C866 C868 1.388 . S
C867 C866 1.366 . S
C867 C871 1.385 . S
C868 H849 0.951 . S
C868 C866 1.388 . S
C868 C869 1.366 . S
C869 C868 1.366 . S
C869 C870 1.414 . S
C869 C872 1.499 . S
C870 H850 0.950 . S
C870 C869 1.414 . S
C870 C871 1.374 . S
C871 H851 0.950 . S
C871 C867 1.385 . S
C871 C870 1.374 . S
C872 C869 1.499 . S
C872 C873 1.373 . S
C872 C874 1.389 . S
C873 H852 0.950 . S
C873 C872 1.373 . S
C873 C889 1.377 . S
C874 C872 1.389 . S
C874 C875 1.524 . S
C874 C888 1.377 . S
C875 C874 1.524 . S
C875 C876 1.397 . S
C875 C880 1.363 . S
C876 H853 0.950 . S
C876 C875 1.397 . S
C876 C877 1.334 . S
C877 H854 0.950 . S
C877 C876 1.334 . S
C877 C878 1.287 . S
C878 C877 1.287 . S
C878 C879 1.524 . S
C878 H897 0.913 . S
C879 H855 0.950 . S
C879 C878 1.524 . S
C879 C880 1.415 . S
C880 H856 0.950 . S
C880 C875 1.363 . S
C880 C879 1.415 . S
C881 H857 0.951 . S
C881 C882 1.366 . S
C881 C883 1.388 . S
C882 C881 1.366 . S
C882 C886 1.385 . S
C883 H858 0.951 . S
C883 C881 1.388 . S
C883 C884 1.366 . S
C884 C883 1.366 . S
C884 C885 1.414 . S
C884 C887 1.499 . S
C885 H859 0.950 . S
C885 C884 1.414 . S
C885 C886 1.374 . S
C886 H860 0.950 . S
C886 C882 1.385 . S
C886 C885 1.374 . S
C887 C884 1.499 . S
C887 C888 1.373 . S
C887 C889 1.389 . S
C888 H861 0.950 . S
C888 C874 1.377 . S
C888 C887 1.373 . S
C889 C873 1.377 . S
C889 C887 1.389 . S
C889 C890 1.524 . S
C890 C889 1.524 . S
C890 C891 1.397 . S
C890 C895 1.363 . S
C891 H862 0.950 . S
C891 C890 1.397 . S
C891 C892 1.334 . S
C892 H863 0.950 . S
C892 C891 1.334 . S
C892 C893 1.287 . S
C893 C892 1.287 . S
C893 C894 1.524 . S
C893 H896 0.999 . S
C894 H864 0.950 . S
C894 C893 1.524 . S
C894 C895 1.415 . S
C895 H865 0.950 . S
C895 C890 1.363 . S
C895 C894 1.415 . S
H896 C893 0.999 . S
H897 C878 0.913 . S
H898 C916 0.951 . S
H899 C918 0.951 . S
H900 C920 0.950 . S
H901 C921 0.950 . S
H902 C923 0.950 . S
H903 C926 0.950 . S
H904 C927 0.950 . S
H905 C929 0.950 . S
H906 C930 0.950 . S
H907 C931 0.951 . S
H908 C933 0.951 . S
H909 C935 0.950 . S
H910 C936 0.950 . S
H911 C938 0.950 . S
H912 C941 0.950 . S
H913 C942 0.950 . S
H914 C944 0.950 . S
H915 C945 0.950 . S
C916 H898 0.951 . S
C916 C917 1.366 . S
C916 C918 1.388 . S
C917 C916 1.366 . S
C917 C921 1.385 . S
C918 H899 0.951 . S
C918 C916 1.388 . S
C918 C919 1.366 . S
C919 C918 1.366 . S
C919 C920 1.414 . S
C919 C922 1.499 . S
C920 H900 0.950 . S
C920 C919 1.414 . S
C920 C921 1.374 . S
C921 H901 0.950 . S
C921 C917 1.385 . S
C921 C920 1.374 . S
C922 C919 1.499 . S
C922 C923 1.373 . S
C922 C924 1.389 . S
C923 H902 0.950 . S
C923 C922 1.373 . S
C923 C939 1.377 . S
C924 C922 1.389 . S
C924 C925 1.524 . S
C924 C938 1.377 . S
C925 C924 1.524 . S
C925 C926 1.397 . S
C925 C930 1.363 . S
C926 H903 0.950 . S
C926 C925 1.397 . S
C926 C927 1.334 . S
C927 H904 0.950 . S
C927 C926 1.334 . S
C927 C928 1.287 . S
C928 C927 1.287 . S
C928 C929 1.524 . S
C928 H947 0.913 . S
C929 H905 0.950 . S
C929 C928 1.524 . S
C929 C930 1.415 . S
C930 H906 0.950 . S
C930 C925 1.363 . S
C930 C929 1.415 . S
C931 H907 0.951 . S
C931 C932 1.366 . S
C931 C933 1.388 . S
C932 C931 1.366 . S
C932 C936 1.385 . S
C933 H908 0.951 . S
C933 C931 1.388 . S
C933 C934 1.366 . S
C934 C933 1.366 . S
C934 C935 1.414 . S
C934 C937 1.499 . S
C935 H909 0.950 . S
C935 C934 1.414 . S
C935 C936 1.374 . S
C936 H910 0.950 . S
C936 C932 1.385 . S
C936 C935 1.374 . S
C937 C934 1.499 . S
C937 C938 1.373 . S
C937 C939 1.389 . S
C938 H911 0.950 . S
C938 C924 1.377 . S
C938 C937 1.373 . S
C939 C923 1.377 . S
C939 C937 1.389 . S
C939 C940 1.524 . S
C940 C939 1.524 . S
C940 C941 1.397 . S
C940 C945 1.363 . S
C941 H912 0.950 . S
C941 C940 1.397 . S
C941 C942 1.334 . S
C942 H913 0.950 . S
C942 C941 1.334 . S
C942 C943 1.287 . S
C943 C942 1.287 . S
C943 C944 1.524 . S
C943 H946 0.999 . S
C944 H914 0.950 . S
C944 C943 1.524 . S
C944 C945 1.415 . S
C945 H915 0.950 . S
C945 C940 1.363 . S
C945 C944 1.415 . S
H946 C943 0.999 . S
H947 C928 0.913 . S
H948 C966 0.951 . S
H949 C968 0.951 . S
H950 C970 0.950 . S
H951 C971 0.950 . S
H952 C973 0.950 . S
H953 C976 0.950 . S
H954 C977 0.950 . S
H955 C979 0.950 . S
H956 C980 0.950 . S
H957 C981 0.951 . S
H958 C983 0.951 . S
H959 C985 0.950 . S
H960 C986 0.950 . S
H961 C988 0.950 . S
H962 C991 0.950 . S
H963 C992 0.950 . S
H964 C994 0.950 . S
H965 C995 0.950 . S
C966 H948 0.951 . S
C966 C967 1.366 . S
C966 C968 1.388 . S
C967 C966 1.366 . S
C967 C971 1.385 . S
C968 H949 0.951 . S
C968 C966 1.388 . S
C968 C969 1.366 . S
C969 C968 1.366 . S
C969 C970 1.414 . S
C969 C972 1.499 . S
C970 H950 0.950 . S
C970 C969 1.414 . S
C970 C971 1.374 . S
C971 H951 0.950 . S
C971 C967 1.385 . S
C971 C970 1.374 . S
C972 C969 1.499 . S
C972 C973 1.373 . S
C972 C974 1.389 . S
C973 H952 0.950 . S
C973 C972 1.373 . S
C973 C989 1.377 . S
C974 C972 1.389 . S
C974 C975 1.524 . S
C974 C988 1.377 . S
C975 C974 1.524 . S
C975 C976 1.397 . S
C975 C980 1.363 . S
C976 H953 0.950 . S
C976 C975 1.397 . S
C976 C977 1.334 . S
C977 H954 0.950 . S
C977 C976 1.334 . S
C977 C978 1.287 . S
C978 C977 1.287 . S
C978 C979 1.524 . S
C978 H997 0.913 . S
C979 H955 0.950 . S
C979 C978 1.524 . S
C979 C980 1.415 . S
C980 H956 0.950 . S
C980 C975 1.363 . S
C980 C979 1.415 . S
C981 H957 0.951 . S
C981 C982 1.366 . S
C981 C983 1.388 . S
C982 C981 1.366 . S
C982 C986 1.385 . S
C983 H958 0.951 . S
C983 C981 1.388 . S
C983 C984 1.366 . S
C984 C983 1.366 . S
C984 C985 1.414 . S
C984 C987 1.499 . S
C985 H959 0.950 . S
C985 C984 1.414 . S
C985 C986 1.374 . S
C986 H960 0.950 . S
C986 C982 1.385 . S
C986 C985 1.374 . S
C987 C984 1.499 . S
C987 C988 1.373 . S
C987 C989 1.389 . S
C988 H961 0.950 . S
C988 C974 1.377 . S
C988 C987 1.373 . S
C989 C973 1.377 . S
C989 C987 1.389 . S
C989 C990 1.524 . S
C990 C989 1.524 . S
C990 C991 1.397 . S
C990 C995 1.363 . S
C991 H962 0.950 . S
C991 C990 1.397 . S
C991 C992 1.334 . S
C992 H963 0.950 . S
C992 C991 1.334 . S
C992 C993 1.287 . S
C993 C992 1.287 . S
C993 C994 1.524 . S
C993 H996 0.999 . S
C994 H964 0.950 . S
C994 C993 1.524 . S
C994 C995 1.415 . S
C995 H965 0.950 . S
C995 C990 1.363 . S
C995 C994 1.415 . S
H996 C993 0.999 . S
H997 C978 0.913 . S
H998 C1016 0.951 . S
H999 C1018 0.951 . S
H1000 C1020 0.950 . S
H1001 C1021 0.950 . S
H1002 C1023 0.950 . S
H1003 C1026 0.950 . S
H1004 C1027 0.950 . S
H1005 C1029 0.950 . S
H1006 C1030 0.950 . S
H1007 C1031 0.951 . S
H1008 C1033 0.951 . S
H1009 C1035 0.950 . S
H1010 C1036 0.950 . S
H1011 C1038 0.950 . S
H1012 C1041 0.950 . S
H1013 C1042 0.982 . S
H1014 C1044 0.950 . S
H1015 C1045 0.950 . S
C1016 H998 0.951 . S
C1016 C1017 1.366 . S
C1016 C1018 1.388 . S
C1017 C1016 1.366 . S
C1017 C1021 1.385 . S
C1018 H999 0.951 . S
C1018 C1016 1.388 . S
C1018 C1019 1.366 . S
C1019 C1018 1.366 . S
C1019 C1020 1.414 . S
C1019 C1022 1.499 . S
C1020 H1000 0.950 . S
C1020 C1019 1.414 . S
C1020 C1021 1.374 . S
C1021 H1001 0.950 . S
C1021 C1017 1.385 . S
C1021 C1020 1.374 . S
C1022 C1019 1.499 . S
C1022 C1023 1.373 . S
C1022 C1024 1.389 . S
C1023 H1002 0.950 . S
C1023 C1022 1.373 . S
C1023 C1039 1.377 . S
C1024 C1022 1.389 . S
C1024 C1025 1.524 . S
C1024 C1038 1.377 . S
C1025 C1024 1.524 . S
C1025 C1026 1.397 . S
C1025 C1030 1.363 . S
C1026 H1003 0.950 . S
C1026 C1025 1.397 . S
C1026 C1027 1.334 . S
C1027 H1004 0.950 . S
C1027 C1026 1.334 . S
C1027 C1028 1.287 . S
C1028 C1027 1.287 . S
C1028 C1029 1.524 . S
C1028 H1047 0.913 . S
C1029 H1005 0.950 . S
C1029 C1028 1.524 . S
C1029 C1030 1.415 . S
C1030 H1006 0.950 . S
C1030 C1025 1.363 . S
C1030 C1029 1.415 . S
C1031 H1007 0.951 . S
C1031 C1032 1.366 . S
C1031 C1033 1.388 . S
C1032 C1031 1.366 . S
C1032 C1036 1.385 . S
C1033 H1008 0.951 . S
C1033 C1031 1.388 . S
C1033 C1034 1.366 . S
C1034 C1033 1.366 . S
C1034 C1035 1.414 . S
C1034 C1037 1.499 . S
C1035 H1009 0.950 . S
C1035 C1034 1.414 . S
C1035 C1036 1.374 . S
C1036 H1010 0.950 . S
C1036 C1032 1.385 . S
C1036 C1035 1.374 . S
C1037 C1034 1.499 . S
C1037 C1038 1.373 . S
C1037 C1039 1.389 . S
C1038 H1011 0.950 . S
C1038 C1024 1.377 . S
C1038 C1037 1.373 . S
C1039 C1023 1.377 . S
C1039 C1037 1.389 . S
C1039 C1040 1.524 . S
C1040 C1039 1.524 . S
C1040 C1041 1.397 . S
C1040 C1045 1.363 . S
C1041 H1012 0.950 . S
C1041 C1040 1.397 . S
C1041 C1042 1.304 1_455 S
C1042 H1013 0.982 . S
C1042 C1041 1.304 1_655 S
C1042 C1043 1.285 . S
C1043 C1042 1.285 . S
C1043 C1044 1.524 1_655 S
C1043 H1046 0.999 . S
C1044 H1014 0.950 . S
C1044 C1043 1.524 1_455 S
C1044 C1045 1.415 . S
C1045 H1015 0.950 . S
C1045 C1040 1.363 . S
C1045 C1044 1.415 . S
H1046 C1043 0.999 . S
H1047 C1028 0.913 . S
H1048 C1066 0.951 . S
H1049 C1068 0.951 . S
H1050 C1070 0.950 . S
H1051 C1071 0.950 . S
H1052 C1073 0.950 . S
H1053 C1076 0.950 . S
H1054 C1077 0.950 . S
H1055 C1079 0.950 1_554 S
H1056 C1080 0.950 . S
H1057 C1081 0.951 . S
H1058 C1083 0.951 . S
H1059 C1085 0.950 1_554 S
H1060 C1086 0.950 . S
H1061 C1088 0.950 . S
H1062 C1091 0.950 . S
H1063 C1092 0.950 1_545 S
H1064 C1094 0.950 . S
H1065 C1095 0.950 . S
C1066 H1048 0.951 . S
C1066 C1067 1.366 . S
C1066 C1068 1.388 . S
C1067 C1066 1.366 . S
C1067 C1071 1.385 . S
C1068 H1049 0.951 . S
C1068 C1066 1.388 . S
C1068 C1069 1.366 . S
C1069 C1068 1.366 . S
C1069 C1070 1.414 . S
C1069 C1072 1.499 . S
C1070 H1050 0.950 . S
C1070 C1069 1.414 . S
C1070 C1071 1.374 . S
C1071 H1051 0.950 . S
C1071 C1067 1.385 . S
C1071 C1070 1.374 . S
C1072 C1069 1.499 . S
C1072 C1073 1.373 . S
C1072 C1074 1.389 . S
C1073 H1052 0.950 . S
C1073 C1072 1.373 . S
C1073 C1089 1.377 . S
C1074 C1072 1.389 . S
C1074 C1075 1.524 . S
C1074 C1088 1.377 . S
C1075 C1074 1.524 . S
C1075 C1076 1.397 . S
C1075 C1080 1.363 . S
C1076 H1053 0.950 . S
C1076 C1075 1.397 . S
C1076 C1077 1.334 . S
C1077 H1054 0.950 . S
C1077 C1076 1.334 . S
C1077 C1078 1.287 . S
C1078 C1077 1.287 . S
C1078 C1079 1.524 . S
C1078 H1097 0.913 . S
C1079 H1055 0.950 1_556 S
C1079 C1078 1.524 . S
C1079 C1080 1.415 . S
C1080 H1056 0.950 . S
C1080 C1075 1.363 . S
C1080 C1079 1.415 . S
C1081 H1057 0.951 . S
C1081 C1082 1.366 . S
C1081 C1083 1.388 . S
C1082 C1081 1.366 . S
C1082 C1086 1.385 1_556 S
C1083 H1058 0.951 . S
C1083 C1081 1.388 . S
C1083 C1084 1.366 . S
C1084 C1083 1.366 . S
C1084 C1085 1.414 . S
C1084 C1087 1.499 . S
C1085 H1059 0.950 1_556 S
C1085 C1084 1.414 . S
C1085 C1086 1.374 1_556 S
C1086 H1060 0.950 . S
C1086 C1082 1.385 1_554 S
C1086 C1085 1.374 1_554 S
C1087 C1084 1.499 . S
C1087 C1088 1.373 . S
C1087 C1089 1.389 . S
C1088 H1061 0.950 . S
C1088 C1074 1.377 . S
C1088 C1087 1.373 . S
C1089 C1073 1.377 . S
C1089 C1087 1.389 . S
C1089 C1090 1.524 . S
C1090 C1089 1.524 . S
C1090 C1091 1.397 . S
C1090 C1095 1.363 . S
C1091 H1062 0.950 . S
C1091 C1090 1.397 . S
C1091 C1092 1.334 . S
C1092 H1063 0.950 1_565 S
C1092 C1091 1.334 . S
C1092 C1093 1.287 . S
C1093 C1092 1.287 . S
C1093 C1094 1.524 . S
C1093 H1096 0.999 1_565 S
C1094 H1064 0.950 . S
C1094 C1093 1.524 . S
C1094 C1095 1.415 . S
C1095 H1065 0.950 . S
C1095 C1090 1.363 . S
C1095 C1094 1.415 . S
H1096 C1093 0.999 1_545 S
H1097 C1078 0.913 . S
H1098 C1116 0.951 . S
H1099 C1118 0.951 . S
H1100 C1120 0.950 . S
H1101 C1121 0.950 . S
H1102 C1123 0.950 . S
H1103 C1126 0.950 . S
H1104 C1127 0.950 . S
H1105 C1129 0.950 . S
H1106 C1130 0.950 1_655 S
H1107 C1131 0.951 . S
H1108 C1133 0.951 . S
H1109 C1135 0.950 . S
H1110 C1136 0.950 . S
H1111 C1138 0.950 . S
H1112 C1141 0.950 . S
H1113 C1142 0.950 . S
H1114 C1144 0.950 . S
H1115 C1145 0.950 . S
C1116 H1098 0.951 . S
C1116 C1117 1.366 . S
C1116 C1118 1.388 . S
C1117 C1116 1.366 . S
C1117 C1121 1.385 . S
C1118 H1099 0.951 . S
C1118 C1116 1.388 . S
C1118 C1119 1.366 . S
C1119 C1118 1.366 . S
C1119 C1120 1.414 . S
C1119 C1122 1.499 . S
C1120 H1100 0.950 . S
C1120 C1119 1.414 . S
C1120 C1121 1.374 . S
C1121 H1101 0.950 . S
C1121 C1117 1.385 . S
C1121 C1120 1.374 . S
C1122 C1119 1.499 . S
C1122 C1123 1.373 . S
C1122 C1124 1.389 . S
C1123 H1102 0.950 . S
C1123 C1122 1.373 . S
C1123 C1139 1.377 . S
C1124 C1122 1.389 . S
C1124 C1125 1.524 . S
C1124 C1138 1.377 . S
C1125 C1124 1.524 . S
C1125 C1126 1.397 . S
C1125 C1130 1.363 1_655 S
C1126 H1103 0.950 . S
C1126 C1125 1.397 . S
C1126 C1127 1.334 1_655 S
C1127 H1104 0.950 . S
C1127 C1126 1.334 1_455 S
C1127 C1128 1.287 . S
C1128 C1127 1.287 . S
C1128 C1129 1.524 . S
C1128 H1147 0.913 . S
C1129 H1105 0.950 . S
C1129 C1128 1.524 . S
C1129 C1130 1.415 . S
C1130 H1106 0.950 1_455 S
C1130 C1125 1.363 1_455 S
C1130 C1129 1.415 . S
C1131 H1107 0.951 . S
C1131 C1132 1.366 . S
C1131 C1133 1.388 . S
C1132 C1131 1.366 . S
C1132 C1136 1.385 . S
C1133 H1108 0.951 . S
C1133 C1131 1.388 . S
C1133 C1134 1.366 . S
C1134 C1133 1.366 . S
C1134 C1135 1.414 . S
C1134 C1137 1.499 . S
C1135 H1109 0.950 . S
C1135 C1134 1.414 . S
C1135 C1136 1.374 . S
C1136 H1110 0.950 . S
C1136 C1132 1.385 . S
C1136 C1135 1.374 . S
C1137 C1134 1.499 . S
C1137 C1138 1.373 . S
C1137 C1139 1.389 . S
C1138 H1111 0.950 . S
C1138 C1124 1.377 . S
C1138 C1137 1.373 . S
C1139 C1123 1.377 . S
C1139 C1137 1.389 . S
C1139 C1140 1.524 . S
C1140 C1139 1.524 . S
C1140 C1141 1.397 . S
C1140 C1145 1.363 . S
C1141 H1112 0.950 . S
C1141 C1140 1.397 . S
C1141 C1142 1.334 . S
C1142 H1113 0.950 . S
C1142 C1141 1.334 . S
C1142 C1143 1.287 . S
C1143 C1142 1.287 . S
C1143 C1144 1.524 . S
C1143 H1146 0.999 . S
C1144 H1114 0.950 . S
C1144 C1143 1.524 . S
C1144 C1145 1.415 . S
C1145 H1115 0.950 . S
C1145 C1140 1.363 . S
C1145 C1144 1.415 . S
H1146 C1143 0.999 . S
H1147 C1128 0.913 . S
H1148 C1166 0.951 . S
H1149 C1168 0.951 . S
H1150 C1170 0.950 . S
H1151 C1171 0.950 . S
H1152 C1173 0.950 . S
H1153 C1176 0.950 . S
H1154 C1177 0.950 . S
H1155 C1179 0.950 . S
H1156 C1180 0.950 . S
H1157 C1181 0.951 . S
H1158 C1183 0.951 . S
H1159 C1185 0.950 . S
H1160 C1186 0.950 . S
H1161 C1188 0.950 . S
H1162 C1191 0.950 . S
H1163 C1192 0.950 . S
H1164 C1194 0.950 . S
H1165 C1195 0.950 . S
C1166 H1148 0.951 . S
C1166 C1167 1.366 . S
C1166 C1168 1.388 . S
C1167 C1166 1.366 . S
C1167 C1171 1.385 . S
C1168 H1149 0.951 . S
C1168 C1166 1.388 . S
C1168 C1169 1.366 . S
C1169 C1168 1.366 . S
C1169 C1170 1.414 . S
C1169 C1172 1.499 . S
C1170 H1150 0.950 . S
C1170 C1169 1.414 . S
C1170 C1171 1.374 . S
C1171 H1151 0.950 . S
C1171 C1167 1.385 . S
C1171 C1170 1.374 . S
C1172 C1169 1.499 . S
C1172 C1173 1.373 . S
C1172 C1174 1.389 . S
C1173 H1152 0.950 . S
C1173 C1172 1.373 . S
C1173 C1189 1.377 . S
C1174 C1172 1.389 . S
C1174 C1175 1.524 . S
C1174 C1188 1.377 . S
C1175 C1174 1.524 . S
C1175 C1176 1.397 . S
C1175 C1180 1.363 . S
C1176 H1153 0.950 . S
C1176 C1175 1.397 . S
C1176 C1177 1.334 . S
C1177 H1154 0.950 . S
C1177 C1176 1.334 . S
C1177 C1178 1.287 . S
C1178 C1177 1.287 . S
C1178 C1179 1.524 . S
C1178 H1197 0.913 . S
C1179 H1155 0.950 . S
C1179 C1178 1.524 . S
C1179 C1180 1.415 . S
C1180 H1156 0.950 . S
C1180 C1175 1.363 . S
C1180 C1179 1.415 . S
C1181 H1157 0.951 . S
C1181 C1182 1.366 . S
C1181 C1183 1.388 . S
C1182 C1181 1.366 . S
C1182 C1186 1.385 . S
C1183 H1158 0.951 . S
C1183 C1181 1.388 . S
C1183 C1184 1.366 . S
C1184 C1183 1.366 . S
C1184 C1185 1.414 . S
C1184 C1187 1.499 . S
C1185 H1159 0.950 . S
C1185 C1184 1.414 . S
C1185 C1186 1.374 . S
C1186 H1160 0.950 . S
C1186 C1182 1.385 . S
C1186 C1185 1.374 . S
C1187 C1184 1.499 . S
C1187 C1188 1.373 . S
C1187 C1189 1.389 . S
C1188 H1161 0.950 . S
C1188 C1174 1.377 . S
C1188 C1187 1.373 . S
C1189 C1173 1.377 . S
C1189 C1187 1.389 . S
C1189 C1190 1.524 . S
C1190 C1189 1.524 . S
C1190 C1191 1.397 . S
C1190 C1195 1.363 . S
C1191 H1162 0.950 . S
C1191 C1190 1.397 . S
C1191 C1192 1.334 . S
C1192 H1163 0.950 . S
C1192 C1191 1.334 . S
C1192 C1193 1.287 . S
C1193 C1192 1.287 . S
C1193 C1194 1.524 . S
C1193 H1196 0.999 . S
C1194 H1164 0.950 . S
C1194 C1193 1.524 . S
C1194 C1195 1.415 . S
C1195 H1165 0.950 . S
C1195 C1190 1.363 . S
C1195 C1194 1.415 . S
H1196 C1193 0.999 . S
H1197 C1178 0.913 . S
H1198 C1216 0.951 . S
H1199 C1218 0.951 . S
H1200 C1220 0.950 . S
H1201 C1221 0.950 . S
H1202 C1223 0.950 . S
H1203 C1226 0.950 . S
H1204 C1227 0.950 . S
H1205 C1229 0.950 . S
H1206 C1230 0.950 . S
H1207 C1231 0.951 . S
H1208 C1233 0.951 . S
H1209 C1235 0.950 . S
H1210 C1236 0.950 . S
H1211 C1238 0.950 . S
H1212 C1241 0.950 . S
H1213 C1242 0.950 . S
H1214 C1244 0.950 . S
H1215 C1245 0.950 . S
C1216 H1198 0.951 . S
C1216 C1217 1.366 . S
C1216 C1218 1.388 . S
C1217 C1216 1.366 . S
C1217 C1221 1.385 . S
C1218 H1199 0.951 . S
C1218 C1216 1.388 . S
C1218 C1219 1.366 . S
C1219 C1218 1.366 . S
C1219 C1220 1.414 . S
C1219 C1222 1.499 . S
C1220 H1200 0.950 . S
C1220 C1219 1.414 . S
C1220 C1221 1.374 . S
C1221 H1201 0.950 . S
C1221 C1217 1.385 . S
C1221 C1220 1.374 . S
C1222 C1219 1.499 . S
C1222 C1223 1.373 . S
C1222 C1224 1.389 . S
C1223 H1202 0.950 . S
C1223 C1222 1.373 . S
C1223 C1239 1.377 . S
C1224 C1222 1.389 . S
C1224 C1225 1.524 . S
C1224 C1238 1.377 . S
C1225 C1224 1.524 . S
C1225 C1226 1.397 . S
C1225 C1230 1.363 . S
C1226 H1203 0.950 . S
C1226 C1225 1.397 . S
C1226 C1227 1.334 . S
C1227 H1204 0.950 . S
C1227 C1226 1.334 . S
C1227 C1228 1.287 . S
C1228 C1227 1.287 . S
C1228 C1229 1.524 . S
C1228 H1247 0.913 . S
C1229 H1205 0.950 . S
C1229 C1228 1.524 . S
C1229 C1230 1.415 . S
C1230 H1206 0.950 . S
C1230 C1225 1.363 . S
C1230 C1229 1.415 . S
C1231 H1207 0.951 . S
C1231 C1232 1.366 . S
C1231 C1233 1.388 . S
C1232 C1231 1.366 . S
C1232 C1236 1.385 . S
C1233 H1208 0.951 . S
C1233 C1231 1.388 . S
C1233 C1234 1.366 . S
C1234 C1233 1.366 . S
C1234 C1235 1.414 . S
C1234 C1237 1.499 . S
C1235 H1209 0.950 . S
C1235 C1234 1.414 . S
C1235 C1236 1.374 . S
C1236 H1210 0.950 . S
C1236 C1232 1.385 . S
C1236 C1235 1.374 . S
C1237 C1234 1.499 . S
C1237 C1238 1.373 . S
C1237 C1239 1.389 . S
C1238 H1211 0.950 . S
C1238 C1224 1.377 . S
C1238 C1237 1.373 . S
C1239 C1223 1.377 . S
C1239 C1237 1.389 . S
C1239 C1240 1.524 . S
C1240 C1239 1.524 . S
C1240 C1241 1.397 . S
C1240 C1245 1.363 . S
C1241 H1212 0.950 . S
C1241 C1240 1.397 . S
C1241 C1242 1.334 . S
C1242 H1213 0.950 . S
C1242 C1241 1.334 . S
C1242 C1243 1.287 . S
C1243 C1242 1.287 . S
C1243 C1244 1.524 . S
C1243 H1246 0.999 . S
C1244 H1214 0.950 . S
C1244 C1243 1.524 . S
C1244 C1245 1.415 . S
C1245 H1215 0.950 . S
C1245 C1240 1.363 . S
C1245 C1244 1.415 . S
H1246 C1243 0.999 . S
H1247 C1228 0.913 . S
H1248 C1266 0.951 . S
H1249 C1268 0.951 . S
H1250 C1270 0.950 . S
H1251 C1271 0.950 . S
H1252 C1273 0.950 . S
H1253 C1276 0.950 . S
H1254 C1277 0.950 . S
H1255 C1279 0.950 . S
H1256 C1280 0.950 . S
H1257 C1281 0.951 . S
H1258 C1283 0.951 . S
H1259 C1285 0.950 . S
H1260 C1286 0.950 . S
H1261 C1288 0.950 . S
H1262 C1291 0.950 . S
H1263 C1292 0.950 . S
H1264 C1294 0.950 . S
H1265 C1295 0.950 . S
C1266 H1248 0.951 . S
C1266 C1267 1.366 . S
C1266 C1268 1.388 . S
C1267 C1266 1.366 . S
C1267 C1271 1.385 . S
C1268 H1249 0.951 . S
C1268 C1266 1.388 . S
C1268 C1269 1.366 . S
C1269 C1268 1.366 . S
C1269 C1270 1.414 . S
C1269 C1272 1.499 . S
C1270 H1250 0.950 . S
C1270 C1269 1.414 . S
C1270 C1271 1.374 . S
C1271 H1251 0.950 . S
C1271 C1267 1.385 . S
C1271 C1270 1.374 . S
C1272 C1269 1.499 . S
C1272 C1273 1.373 . S
C1272 C1274 1.389 . S
C1273 H1252 0.950 . S
C1273 C1272 1.373 . S
C1273 C1289 1.377 . S
C1274 C1272 1.389 . S
C1274 C1275 1.524 . S
C1274 C1288 1.377 . S
C1275 C1274 1.524 . S
C1275 C1276 1.397 . S
C1275 C1280 1.363 . S
C1276 H1253 0.950 . S
C1276 C1275 1.397 . S
C1276 C1277 1.334 . S
C1277 H1254 0.950 . S
C1277 C1276 1.334 . S
C1277 C1278 1.287 . S
C1278 C1277 1.287 . S
C1278 C1279 1.524 . S
C1278 H1297 0.913 . S
C1279 H1255 0.950 . S
C1279 C1278 1.524 . S
C1279 C1280 1.415 . S
C1280 H1256 0.950 . S
C1280 C1275 1.363 . S
C1280 C1279 1.415 . S
C1281 H1257 0.951 . S
C1281 C1282 1.366 . S
C1281 C1283 1.388 . S
C1282 C1281 1.366 . S
C1282 C1286 1.385 . S
C1283 H1258 0.951 . S
C1283 C1281 1.388 . S
C1283 C1284 1.366 . S
C1284 C1283 1.366 . S
C1284 C1285 1.414 . S
C1284 C1287 1.499 . S
C1285 H1259 0.950 . S
C1285 C1284 1.414 . S
C1285 C1286 1.374 . S
C1286 H1260 0.950 . S
C1286 C1282 1.385 . S
C1286 C1285 1.374 . S
C1287 C1284 1.499 . S
C1287 C1288 1.373 . S
C1287 C1289 1.389 . S
C1288 H1261 0.950 . S
C1288 C1274 1.377 . S
C1288 C1287 1.373 . S
C1289 C1273 1.377 . S
C1289 C1287 1.389 . S
C1289 C1290 1.524 . S
C1290 C1289 1.524 . S
C1290 C1291 1.397 . S
C1290 C1295 1.363 . S
C1291 H1262 0.950 . S
C1291 C1290 1.397 . S
C1291 C1292 1.334 . S
C1292 H1263 0.950 . S
C1292 C1291 1.334 . S
C1292 C1293 1.287 . S
C1293 C1292 1.287 . S
C1293 C1294 1.524 . S
C1293 H1296 0.999 . S
C1294 H1264 0.950 . S
C1294 C1293 1.524 . S
C1294 C1295 1.415 . S
C1295 H1265 0.950 . S
C1295 C1290 1.363 . S
C1295 C1294 1.415 . S
H1296 C1293 0.999 . S
H1297 C1278 0.913 . S
H1298 C1316 0.951 . S
H1299 C1318 0.951 . S
H1300 C1320 0.950 . S
H1301 C1321 0.950 . S
H1302 C1323 0.950 . S
H1303 C1326 0.950 . S
H1304 C1327 0.950 . S
H1305 C1329 0.950 . S
H1306 C1330 0.950 . S
H1307 C1331 0.951 . S
H1308 C1333 0.951 . S
H1309 C1335 0.950 . S
H1310 C1336 0.950 . S
H1311 C1338 0.950 . S
H1312 C1341 0.950 . S
H1313 C1342 0.950 . S
H1314 C1344 0.950 . S
H1315 C1345 0.950 . S
C1316 H1298 0.951 . S
C1316 C1317 1.366 . S
C1316 C1318 1.388 . S
C1317 C1316 1.366 . S
C1317 C1321 1.385 . S
C1318 H1299 0.951 . S
C1318 C1316 1.388 . S
C1318 C1319 1.366 . S
C1319 C1318 1.366 . S
C1319 C1320 1.414 . S
C1319 C1322 1.499 . S
C1320 H1300 0.950 . S
C1320 C1319 1.414 . S
C1320 C1321 1.374 . S
C1321 H1301 0.950 . S
C1321 C1317 1.385 . S
C1321 C1320 1.374 . S
C1322 C1319 1.499 . S
C1322 C1323 1.373 . S
C1322 C1324 1.389 . S
C1323 H1302 0.950 . S
C1323 C1322 1.373 . S
C1323 C1339 1.377 . S
C1324 C1322 1.389 . S
C1324 C1325 1.524 . S
C1324 C1338 1.377 . S
C1325 C1324 1.524 . S
C1325 C1326 1.397 . S
C1325 C1330 1.363 . S
C1326 H1303 0.950 . S
C1326 C1325 1.397 . S
C1326 C1327 1.334 . S
C1327 H1304 0.950 . S
C1327 C1326 1.334 . S
C1327 C1328 1.287 . S
C1328 C1327 1.287 . S
C1328 C1329 1.524 . S
C1328 H1347 0.913 . S
C1329 H1305 0.950 . S
C1329 C1328 1.524 . S
C1329 C1330 1.415 . S
C1330 H1306 0.950 . S
C1330 C1325 1.363 . S
C1330 C1329 1.415 . S
C1331 H1307 0.951 . S
C1331 C1332 1.366 . S
C1331 C1333 1.388 . S
C1332 C1331 1.366 . S
C1332 C1336 1.385 . S
C1333 H1308 0.951 . S
C1333 C1331 1.388 . S
C1333 C1334 1.366 . S
C1334 C1333 1.366 . S
C1334 C1335 1.414 . S
C1334 C1337 1.499 . S
C1335 H1309 0.950 . S
C1335 C1334 1.414 . S
C1335 C1336 1.374 . S
C1336 H1310 0.950 . S
C1336 C1332 1.385 . S
C1336 C1335 1.374 . S
C1337 C1334 1.499 . S
C1337 C1338 1.373 . S
C1337 C1339 1.389 . S
C1338 H1311 0.950 . S
C1338 C1324 1.377 . S
C1338 C1337 1.373 . S
C1339 C1323 1.377 . S
C1339 C1337 1.389 . S
C1339 C1340 1.524 . S
C1340 C1339 1.524 . S
C1340 C1341 1.397 . S
C1340 C1345 1.363 . S
C1341 H1312 0.950 . S
C1341 C1340 1.397 . S
C1341 C1342 1.334 . S
C1342 H1313 0.950 . S
C1342 C1341 1.334 . S
C1342 C1343 1.287 . S
C1343 C1342 1.287 . S
C1343 C1344 1.524 . S
C1343 H1346 0.999 . S
C1344 H1314 0.950 . S
C1344 C1343 1.524 . S
C1344 C1345 1.415 . S
C1345 H1315 0.950 . S
C1345 C1340 1.363 . S
C1345 C1344 1.415 . S
H1346 C1343 0.999 . S
H1347 C1328 0.913 . S
H1348 C1366 0.951 . S
H1349 C1368 0.951 . S
H1350 C1370 0.950 . S
H1351 C1371 0.950 . S
H1352 C1373 0.950 . S
H1353 C1376 0.950 . S
H1354 C1377 0.950 . S
H1355 C1379 0.950 . S
H1356 C1380 0.950 . S
H1357 C1381 0.951 . S
H1358 C1383 0.951 . S
H1359 C1385 0.950 . S
H1360 C1386 0.950 . S
H1361 C1388 0.950 . S
H1362 C1391 0.950 . S
H1363 C1392 0.950 . S
H1364 C1394 0.950 . S
H1365 C1395 0.949 . S
C1366 H1348 0.951 . S
C1366 C1367 1.366 . S
C1366 C1368 1.388 . S
C1367 C1366 1.366 . S
C1367 C1371 1.385 . S
C1368 H1349 0.951 . S
C1368 C1366 1.388 . S
C1368 C1369 1.366 . S
C1369 C1368 1.366 . S
C1369 C1370 1.414 . S
C1369 C1372 1.499 . S
C1370 H1350 0.950 . S
C1370 C1369 1.414 . S
C1370 C1371 1.374 . S
C1371 H1351 0.950 . S
C1371 C1367 1.385 . S
C1371 C1370 1.374 . S
C1372 C1369 1.499 . S
C1372 C1373 1.373 . S
C1372 C1374 1.389 . S
C1373 H1352 0.950 . S
C1373 C1372 1.373 . S
C1373 C1389 1.377 . S
C1374 C1372 1.389 . S
C1374 C1375 1.524 . S
C1374 C1388 1.377 . S
C1375 C1374 1.524 . S
C1375 C1376 1.397 . S
C1375 C1380 1.363 . S
C1376 H1353 0.950 . S
C1376 C1375 1.397 . S
C1376 C1377 1.334 . S
C1377 H1354 0.950 . S
C1377 C1376 1.334 . S
C1377 C1378 1.287 . S
C1378 C1377 1.287 . S
C1378 C1379 1.524 . S
C1378 H1397 0.913 . S
C1379 H1355 0.950 . S
C1379 C1378 1.524 . S
C1379 C1380 1.415 . S
C1380 H1356 0.950 . S
C1380 C1375 1.363 . S
C1380 C1379 1.415 . S
C1381 H1357 0.951 . S
C1381 C1382 1.366 . S
C1381 C1383 1.388 . S
C1382 C1381 1.366 . S
C1382 C1386 1.385 . S
C1383 H1358 0.951 . S
C1383 C1381 1.388 . S
C1383 C1384 1.366 . S
C1384 C1383 1.366 . S
C1384 C1385 1.414 . S
C1384 C1387 1.499 . S
C1385 H1359 0.950 . S
C1385 C1384 1.414 . S
C1385 C1386 1.374 . S
C1386 H1360 0.950 . S
C1386 C1382 1.385 . S
C1386 C1385 1.374 . S
C1387 C1384 1.499 . S
C1387 C1388 1.373 . S
C1387 C1389 1.389 . S
C1388 H1361 0.950 . S
C1388 C1374 1.377 . S
C1388 C1387 1.373 . S
C1389 C1373 1.377 . S
C1389 C1387 1.389 . S
C1389 C1390 1.524 . S
C1390 C1389 1.524 . S
C1390 C1391 1.397 . S
C1390 C1395 1.363 1_455 S
C1391 H1362 0.950 . S
C1391 C1390 1.397 . S
C1391 C1392 1.334 1_455 S
C1392 H1363 0.950 . S
C1392 C1391 1.334 1_655 S
C1392 C1393 1.287 . S
C1393 C1392 1.287 . S
C1393 C1394 1.524 . S
C1393 H1396 0.999 . S
C1394 H1364 0.950 . S
C1394 C1393 1.524 . S
C1394 C1395 1.415 . S
C1395 H1365 0.949 . S
C1395 C1390 1.363 1_655 S
C1395 C1394 1.415 . S
H1396 C1393 0.999 . S
H1397 C1378 0.913 . S
H1398 C1416 0.951 . S
H1399 C1418 0.951 . S
H1400 C1420 0.950 . S
H1401 C1421 0.950 . S
H1402 C1423 0.950 . S
H1403 C1426 0.950 . S
H1404 C1427 0.950 . S
H1405 C1429 0.950 . S
H1406 C1430 0.950 . S
H1407 C1431 0.951 . S
H1408 C1433 0.951 . S
H1409 C1435 0.950 . S
H1410 C1436 0.950 . S
H1411 C1438 0.950 . S
H1412 C1441 0.950 . S
H1413 C1442 0.950 . S
H1414 C1444 0.950 . S
H1415 C1445 0.950 . S
C1416 H1398 0.951 . S
C1416 C1417 1.366 . S
C1416 C1418 1.388 . S
C1417 C1416 1.366 . S
C1417 C1421 1.385 . S
C1418 H1399 0.951 . S
C1418 C1416 1.388 . S
C1418 C1419 1.366 . S
C1419 C1418 1.366 . S
C1419 C1420 1.414 . S
C1419 C1422 1.499 . S
C1420 H1400 0.950 . S
C1420 C1419 1.414 . S
C1420 C1421 1.374 . S
C1421 H1401 0.950 . S
C1421 C1417 1.385 . S
C1421 C1420 1.374 . S
C1422 C1419 1.499 . S
C1422 C1423 1.373 . S
C1422 C1424 1.389 . S
C1423 H1402 0.950 . S
C1423 C1422 1.373 . S
C1423 C1439 1.377 . S
C1424 C1422 1.389 . S
C1424 C1425 1.524 . S
C1424 C1438 1.377 . S
C1425 C1424 1.524 . S
C1425 C1426 1.397 . S
C1425 C1430 1.363 . S
C1426 H1403 0.950 . S
C1426 C1425 1.397 . S
C1426 C1427 1.334 . S
C1427 H1404 0.950 . S
C1427 C1426 1.334 . S
C1427 C1428 1.287 . S
C1428 C1427 1.287 . S
C1428 C1429 1.524 . S
C1428 H1447 0.913 . S
C1429 H1405 0.950 . S
C1429 C1428 1.524 . S
C1429 C1430 1.415 . S
C1430 H1406 0.950 . S
C1430 C1425 1.363 . S
C1430 C1429 1.415 . S
C1431 H1407 0.951 . S
C1431 C1432 1.366 . S
C1431 C1433 1.388 . S
C1432 C1431 1.366 . S
C1432 C1436 1.385 . S
C1433 H1408 0.951 . S
C1433 C1431 1.388 . S
C1433 C1434 1.366 . S
C1434 C1433 1.366 . S
C1434 C1435 1.414 . S
C1434 C1437 1.499 . S
C1435 H1409 0.950 . S
C1435 C1434 1.414 . S
C1435 C1436 1.374 . S
C1436 H1410 0.950 . S
C1436 C1432 1.385 . S
C1436 C1435 1.374 . S
C1437 C1434 1.499 . S
C1437 C1438 1.373 . S
C1437 C1439 1.389 . S
C1438 H1411 0.950 . S
C1438 C1424 1.377 . S
C1438 C1437 1.373 . S
C1439 C1423 1.377 . S
C1439 C1437 1.389 . S
C1439 C1440 1.524 . S
C1440 C1439 1.524 . S
C1440 C1441 1.397 . S
C1440 C1445 1.363 . S
C1441 H1412 0.950 . S
C1441 C1440 1.397 . S
C1441 C1442 1.334 . S
C1442 H1413 0.950 . S
C1442 C1441 1.334 . S
C1442 C1443 1.287 . S
C1443 C1442 1.287 . S
C1443 C1444 1.524 . S
C1443 H1446 0.999 . S
C1444 H1414 0.950 . S
C1444 C1443 1.524 . S
C1444 C1445 1.415 . S
C1445 H1415 0.950 . S
C1445 C1440 1.363 . S
C1445 C1444 1.415 . S
H1446 C1443 0.999 . S
H1447 C1428 0.913 . S
C267 C5 0.982 . S
C282 C105 1.202 . S
C317 C18 1.096 . S
C332 C145 1.140 . S
C382 C170 2.172 . S
C367 C30 2.202 . S
C417 C41 2.045 . S
C432 C210 1.995 . S
C482 C141 1.881 . S
C467 C7 1.753 . S
C532 C101 1.908 . S
C517 C16 1.818 . S
C582 C232 1.645 . S
C567 C29 1.608 . S
C632 C192 1.117 . S
C617 C38 1.005 . S
C667 C8 1.201 . S
C682 C234 1.246 . S
C732 C151 2.353 . S
C717 C27 2.115 . S
C767 C40 2.229 . S
C782 C111 2.204 . S
C817 C19 1.050 . S
C832 C194 1.044 . S
C882 C114 1.165 . S
C867 C51 1.049 . S
C917 C62 1.455 . S
C932 C154 1.443 . S
C967 C74 2.305 . S
C982 C191 2.282 . S
C1017 C84 2.026 . S
C1032 C231 2.081 . S
C1067 C49 1.737 . S
C1082 C152 2.180 1_556 S
C1132 C112 1.815 . S
C1117 C63 1.804 . S
C1182 C221 1.477 . S
C1167 C71 1.300 . S
C1232 C181 1.315 . S
C1217 C85 1.322 . S
C1267 C52 1.242 . S
C1282 C225 1.284 . S
C1332 C130 2.431 . S
C1317 C73 2.420 . S
C1382 C90 1.699 . S
C1367 C82 1.503 . S
C1417 C60 1.175 . S
C1432 C185 1.249 . S
