# Generated by pormake.
# Topology rtl, (3,6)-cn, num edge types: 1
# Building blocks:
#     Node 0, Type 0, BuildingBlock: WUSLED_clean_sbu_0, # of connection points: 3
#     Node 1, Type 0, BuildingBlock: WUSLED_clean_sbu_0, # of connection points: 3
#     Node 2, Type 0, BuildingBlock: WUSLED_clean_sbu_0, # of connection points: 3
#     Node 3, Type 0, BuildingBlock: WUSLED_clean_sbu_0, # of connection points: 3
#     Node 4, Type 1, BuildingBlock: VOLQOD_clean_sbu_1, # of connection points: 6
#     Node 5, Type 1, BuildingBlock: VOLQOD_clean_sbu_1, # of connection points: 6
#     Edge 6, Type (0, 1), BuildingBlock: FUNLAD_clean_linker_1, # of connection points: 2
#     Edge 7, Type (0, 1), BuildingBlock: FUNLAD_clean_linker_1, # of connection points: 2
#     Edge 8, Type (0, 1), BuildingBlock: FUNLAD_clean_linker_1, # of connection points: 2
#     Edge 9, Type (0, 1), BuildingBlock: FUNLAD_clean_linker_1, # of connection points: 2
#     Edge 10, Type (0, 1), BuildingBlock: FUNLAD_clean_linker_1, # of connection points: 2
#     Edge 11, Type (0, 1), BuildingBlock: FUNLAD_clean_linker_1, # of connection points: 2
#     Edge 12, Type (0, 1), BuildingBlock: FUNLAD_clean_linker_1, # of connection points: 2
#     Edge 13, Type (0, 1), BuildingBlock: FUNLAD_clean_linker_1, # of connection points: 2
#     Edge 14, Type (0, 1), BuildingBlock: FUNLAD_clean_linker_1, # of connection points: 2
#     Edge 15, Type (0, 1), BuildingBlock: FUNLAD_clean_linker_1, # of connection points: 2
#     Edge 16, Type (0, 1), BuildingBlock: FUNLAD_clean_linker_1, # of connection points: 2
#     Edge 17, Type (0, 1), BuildingBlock: FUNLAD_clean_linker_1, # of connection points: 2
# Relax obj value: 0.076
# Max RMSD: 0.155
# Mean RMSD: 0.086
data_MOF--net-rtl--node1-WUSLED_clean_sbu_0--node2-VOLQOD_clean_sbu_1--edge1-FUNLAD_clean_linker_1
_symmetry_space_group_name_H-M    P1
_symmetry_Int_Tables_number       1
_symmetry_cell_setting            triclinic
loop_
_symmetry_equiv_pos_as_xyz
'x, y, z'
_cell_length_a     49.53602
_cell_length_b     43.133632
_cell_length_c     31.880234
_cell_angle_alpha  90.309159
_cell_angle_beta   90.610796
_cell_angle_gamma 90.154916
loop_
_atom_site_label
_atom_site_type_symbol
_atom_site_fract_x
_atom_site_fract_y
_atom_site_fract_z
_atom_type_partial_charge
C0 C 0.16765 0.80867 0.12948 0.0
C1 C 0.14125 0.81972 0.12376 0.0
C2 C 0.14264 0.84355 0.19313 0.0
C3 C 0.1288 0.83695 0.15531 0.0
C4 C 0.16912 0.83259 0.19856 0.0
C5 C 0.18149 0.81514 0.16708 0.0
U6 U 0.174 0.79294 0.01379 0.0
O7 O 0.20956 0.79041 0.97328 0.0
O8 O 0.18229 0.75042 0.97781 0.0
C9 C 0.20558 0.76094 0.96429 0.0
C10 C 0.18144 0.79239 0.09526 0.0
C11 C 0.22926 0.74028 0.96952 0.0
C12 C 0.27793 0.73264 0.96848 0.0
C13 C 0.25551 0.75204 0.96456 0.0
C14 C 0.24842 0.68906 0.9817 0.0
C15 C 0.27473 0.70101 0.97737 0.0
C16 C 0.22597 0.70849 0.9778 0.0
C17 C 0.12415 0.83638 0.94226 0.0
C18 C 0.12823 0.84025 0.86658 0.0
C19 C 0.09035 0.86403 0.90177 0.0
C20 C 0.10016 0.85335 0.94025 0.0
C21 C 0.1043 0.85785 0.86452 0.0
C22 C 0.13803 0.82956 0.90523 0.0
C23 C 0.13503 0.82761 0.98347 0.0
O24 O 0.16695 0.77138 0.07509 0.0
O25 O 0.1951 0.81053 0.07016 0.0
O26 O 0.15935 0.83816 0.99224 0.0
O27 O 0.13147 0.79856 0.99444 0.0
H28 H 0.13044 0.81554 0.09453 0.0
H29 H 0.10872 0.84584 0.14935 0.0
H30 H 0.1803 0.83762 0.22721 0.0
H31 H 0.20201 0.80715 0.17178 0.0
H32 H 0.2979 0.74245 0.96453 0.0
H33 H 0.25878 0.77628 0.95742 0.0
H34 H 0.24488 0.66469 0.98721 0.0
H35 H 0.20602 0.69848 0.98091 0.0
H36 H 0.13995 0.83544 0.8389 0.0
H37 H 0.07195 0.87757 0.90122 0.0
H38 H 0.08925 0.85889 0.9686 0.0
H39 H 0.15673 0.8166 0.90636 0.0
C40 C 0.65388 0.72271 0.64918 0.0
C41 C 0.63478 0.69901 0.64314 0.0
C42 C 0.62966 0.6941 0.71895 0.0
C43 C 0.62269 0.68484 0.67766 0.0
C44 C 0.64855 0.71821 0.72448 0.0
C45 C 0.66055 0.73234 0.68998 0.0
U46 U 0.6658 0.73088 0.53142 0.0
O47 O 0.67346 0.77244 0.49371 0.0
O48 O 0.70413 0.73588 0.49768 0.0
C49 C 0.69828 0.76403 0.48496 0.0
C50 C 0.66753 0.73702 0.61342 0.0
C51 C 0.71948 0.78751 0.49236 0.0
C52 C 0.73838 0.83097 0.53188 0.0
C53 C 0.71806 0.8087 0.52588 0.0
C54 C 0.76192 0.81082 0.4714 0.0
C55 C 0.76066 0.83207 0.50501 0.0
C56 C 0.74152 0.78876 0.46523 0.0
C57 C 0.62615 0.68102 0.45263 0.0
C58 C 0.63946 0.67251 0.38029 0.0
C59 C 0.59482 0.65725 0.40279 0.0
C60 C 0.60082 0.66804 0.44329 0.0
C61 C 0.61412 0.65936 0.37077 0.0
C62 C 0.64537 0.68348 0.42077 0.0
C63 C 0.63233 0.69118 0.49585 0.0
O64 O 0.68366 0.71858 0.59248 0.0
O65 O 0.65232 0.75434 0.589 0.0
O66 O 0.62556 0.71984 0.50512 0.0
O67 O 0.65629 0.68346 0.51045 0.0
H68 H 0.62937 0.69133 0.61173 0.0
H69 H 0.60808 0.66673 0.67143 0.0
H70 H 0.65429 0.72601 0.7557 0.0
H71 H 0.67526 0.75064 0.6952 0.0
H72 H 0.73681 0.84719 0.5578 0.0
H73 H 0.70125 0.8081 0.54732 0.0
H74 H 0.7783 0.81154 0.44923 0.0
H75 H 0.74288 0.77273 0.43905 0.0
H76 H 0.65475 0.67422 0.35636 0.0
H77 H 0.57536 0.64648 0.39716 0.0
H78 H 0.58579 0.66581 0.46755 0.0
H79 H 0.66505 0.69352 0.42732 0.0
C80 C 0.85065 0.21181 0.12736 0.0
C81 C 0.8721 0.19291 0.11471 0.0
C82 C 0.88149 0.1791 0.18735 0.0
C83 C 0.88731 0.17667 0.14442 0.0
C84 C 0.85996 0.19825 0.19991 0.0
C85 C 0.84472 0.2145 0.17007 0.0
U86 U 0.83446 0.22637 0.0136 0.0
O87 O 0.79589 0.2282 0.97913 0.0
O88 O 0.82277 0.26875 0.97978 0.0
C89 C 0.79895 0.25753 0.96915 0.0
C90 C 0.83391 0.22764 0.09582 0.0
C91 C 0.77579 0.27762 0.97821 0.0
C92 C 0.74092 0.29587 0.02525 0.0
C93 C 0.7637 0.2776 0.0178 0.0
C94 C 0.74247 0.31481 0.9539 0.0
C95 C 0.73009 0.31473 0.99349 0.0
C96 C 0.76515 0.29643 0.94645 0.0
C97 C 0.87839 0.18345 0.93367 0.0
C98 C 0.86797 0.17917 0.85924 0.0
C99 C 0.90942 0.15728 0.88705 0.0
C100 C 0.90258 0.16754 0.92716 0.0
C101 C 0.89215 0.16296 0.85253 0.0
C102 C 0.86118 0.18948 0.89947 0.0
C103 C 0.87099 0.19211 0.97661 0.0
O104 O 0.84659 0.24844 0.07331 0.0
O105 O 0.8184 0.20916 0.07316 0.0
O106 O 0.8477 0.18123 0.9894 0.0
O107 O 0.87514 0.22122 0.98725 0.0
H108 H 0.87685 0.19043 0.08176 0.0
H109 H 0.90359 0.16197 0.13376 0.0
H110 H 0.85427 0.20021 0.23246 0.0
H111 H 0.82804 0.22877 0.18028 0.0
H112 H 0.7317 0.29519 0.0559 0.0
H113 H 0.77166 0.26319 0.04274 0.0
H114 H 0.73433 0.32824 0.92818 0.0
H115 H 0.77414 0.29653 0.91561 0.0
H116 H 0.85419 0.1836 0.83335 0.0
H117 H 0.92776 0.14401 0.88373 0.0
H118 H 0.91594 0.16242 0.95334 0.0
H119 H 0.84233 0.20166 0.90404 0.0
C120 C 0.35304 0.29515 0.39664 0.0
C121 C 0.36663 0.32258 0.40797 0.0
C122 C 0.37984 0.33051 0.33549 0.0
C123 C 0.37969 0.3402 0.37761 0.0
C124 C 0.36629 0.30287 0.32423 0.0
C125 C 0.35301 0.28536 0.35465 0.0
U126 U 0.34418 0.27437 0.51046 0.0
O127 O 0.30793 0.26779 0.54849 0.0
O128 O 0.33683 0.22963 0.5415 0.0
C129 C 0.31324 0.23844 0.55573 0.0
C130 C 0.33908 0.27675 0.42859 0.0
C131 C 0.29069 0.2166 0.54882 0.0
C132 C 0.25044 0.19984 0.51053 0.0
C133 C 0.27256 0.21994 0.51499 0.0
C134 C 0.26487 0.1723 0.57283 0.0
C135 C 0.24612 0.17607 0.53991 0.0
C136 C 0.28685 0.19247 0.57737 0.0
C137 C 0.39067 0.31631 0.58958 0.0
C138 C 0.38546 0.31409 0.66519 0.0
C139 C 0.4234 0.3416 0.63555 0.0
C140 C 0.41432 0.33373 0.59524 0.0
C141 C 0.40875 0.33237 0.67104 0.0
C142 C 0.37639 0.3062 0.62475 0.0
C143 C 0.38106 0.30951 0.54677 0.0
O144 O 0.3541 0.25605 0.44784 0.0
O145 O 0.32386 0.29278 0.45432 0.0
O146 O 0.35656 0.31917 0.53769 0.0
O147 O 0.38599 0.28142 0.5327 0.0
H148 H 0.36704 0.33046 0.44031 0.0
H149 H 0.38985 0.36142 0.38713 0.0
H150 H 0.36534 0.29503 0.29196 0.0
H151 H 0.34257 0.26426 0.34535 0.0
H152 H 0.23697 0.20294 0.48397 0.0
H153 H 0.27538 0.23821 0.49226 0.0
H154 H 0.26223 0.15405 0.59566 0.0
H155 H 0.3007 0.18943 0.60356 0.0
H156 H 0.37396 0.30638 0.69193 0.0
H157 H 0.44198 0.35468 0.63861 0.0
H158 H 0.42574 0.3414 0.56839 0.0
H159 H 0.35815 0.29252 0.62089 0.0
O160 O 0.93954 0.9841 0.51564 0.0
Zn161 Zn 0.96669 0.01941 0.51551 0.0
O162 O 0.00375 0.00427 0.50818 0.0
Zn163 Zn 0.02629 0.01748 0.55591 0.0
Zn164 Zn 0.00308 0.95893 0.50519 0.0
Zn165 Zn 0.01906 0.02089 0.45631 0.0
O166 O 0.05825 0.0431 0.53745 0.0
O167 O 0.05181 0.04758 0.46865 0.0
O168 O 0.96307 0.04355 0.56977 0.0
O169 O 0.00478 0.04326 0.59628 0.0
O170 O 0.03996 0.98068 0.58852 0.0
O171 O 0.02319 0.93998 0.55395 0.0
O172 O 0.02024 0.94349 0.4523 0.0
O173 O 0.95619 0.04744 0.46769 0.0
O174 O 0.03154 0.98628 0.41803 0.0
O175 O 0.99158 0.04707 0.42527 0.0
C176 C 0.94207 0.95491 0.51082 0.0
C177 C 0.06531 0.05361 0.50191 0.0
C178 C 0.03686 0.9515 0.58425 0.0
C179 C 0.98013 0.0513 0.59817 0.0
C180 C 0.03066 0.95683 0.42089 0.0
C181 C 0.96774 0.05585 0.43413 0.0
O182 O 0.96507 0.94245 0.50592 0.0
O183 O 0.56606 0.49442 0.01918 0.0
Zn184 Zn 0.53677 0.52682 0.02262 0.0
O185 O 0.50092 0.50704 0.0186 0.0
Zn186 Zn 0.48117 0.52422 0.97065 0.0
Zn187 Zn 0.50468 0.46195 0.01117 0.0
Zn188 Zn 0.48058 0.51535 0.06978 0.0
O189 O 0.44775 0.54696 0.98868 0.0
O190 O 0.44671 0.53991 0.05763 0.0
O191 O 0.54295 0.55643 0.97426 0.0
O192 O 0.50426 0.55393 0.93842 0.0
O193 O 0.46991 0.49058 0.93012 0.0
O194 O 0.48737 0.44741 0.95667 0.0
O195 O 0.48669 0.43852 0.05809 0.0
O196 O 0.54159 0.54985 0.07806 0.0
O197 O 0.46959 0.4757 0.09827 0.0
O198 O 0.50314 0.53998 0.11095 0.0
C199 C 0.56598 0.46512 0.01415 0.0
C200 C 0.43656 0.55097 0.02407 0.0
C201 C 0.47405 0.46152 0.92822 0.0
C202 C 0.52812 0.56441 0.94322 0.0
C203 C 0.47353 0.44712 0.09018 0.0
C204 C 0.52648 0.55234 0.11006 0.0
O205 O 0.54403 0.44979 0.01049 0.0
H206 H 0.22371 0.13306 0.55474 0.0
C207 C 0.2225 0.1547 0.53745 0.0
H208 H 0.19629 0.18389 0.5028 0.0
H209 H 0.13758 0.04461 0.48772 0.0
H210 H 0.17592 0.03007 0.44538 0.0
H211 H 0.21398 0.06623 0.43566 0.0
H212 H 0.21412 0.11697 0.46883 0.0
C213 C 0.19915 0.16155 0.51766 0.0
C214 C 0.17528 0.14055 0.52039 0.0
C215 C 0.17508 0.1114 0.49957 0.0
C216 C 0.1526 0.09105 0.50376 0.0
C217 C 0.1536 0.06146 0.48435 0.0
C218 C 0.17559 0.05272 0.46016 0.0
C219 C 0.19706 0.07304 0.4548 0.0
C220 C 0.19693 0.10205 0.47419 0.0
H221 H 0.09455 0.08266 0.46795 0.0
C222 C 0.08969 0.07323 0.49853 0.0
H223 H 0.10104 0.07108 0.56252 0.0
H224 H 0.16918 0.1947 0.56448 0.0
H225 H 0.13028 0.20988 0.6052 0.0
H226 H 0.09067 0.1754 0.6105 0.0
H227 H 0.08978 0.12543 0.5753 0.0
C228 C 0.10597 0.07959 0.5315 0.0
C229 C 0.1299 0.10038 0.52748 0.0
C230 C 0.13002 0.12965 0.54796 0.0
C231 C 0.15272 0.14973 0.54443 0.0
C232 C 0.15238 0.17866 0.56567 0.0
C233 C 0.13019 0.18767 0.58923 0.0
C234 C 0.1079 0.16824 0.59225 0.0
C235 C 0.10769 0.13957 0.57192 0.0
H236 H 0.318 0.69078 0.96805 0.0
C237 C 0.29931 0.68134 0.98038 0.0
H238 H 0.28219 0.64265 0.01142 0.0
H239 H 0.37124 0.54955 0.94589 0.0
H240 H 0.3322 0.53274 0.90518 0.0
H241 H 0.28973 0.56243 0.90666 0.0
H242 H 0.28598 0.60903 0.94911 0.0
C243 C 0.3001 0.65317 0.99833 0.0
C244 C 0.32549 0.63475 0.99897 0.0
C245 C 0.32736 0.6076 0.97397 0.0
C246 C 0.35198 0.59073 0.97267 0.0
C247 C 0.35318 0.56353 0.94765 0.0
C248 C 0.33089 0.55355 0.92418 0.0
C249 C 0.30697 0.57025 0.92505 0.0
C250 C 0.3051 0.59696 0.94958 0.0
H251 H 0.40127 0.57029 0.05688 0.0
C252 C 0.41127 0.56887 0.02674 0.0
H253 H 0.41005 0.58189 0.96297 0.0
H254 H 0.32756 0.68331 0.05464 0.0
H255 H 0.36693 0.70124 0.09368 0.0
H256 H 0.41067 0.67455 0.08708 0.0
H257 H 0.41515 0.62944 0.04216 0.0
C258 C 0.40061 0.58371 0.9935 0.0
C259 C 0.37474 0.60112 0.99624 0.0
C260 C 0.37284 0.6283 0.02136 0.0
C261 C 0.34798 0.64466 0.02354 0.0
C262 C 0.34622 0.67074 0.05055 0.0
C263 C 0.36863 0.68119 0.07333 0.0
C264 C 0.39322 0.66608 0.06974 0.0
C265 C 0.39545 0.64001 0.04405 0.0
H266 H 0.77589 0.87775 0.52725 0.0
C267 C 0.78171 0.85626 0.51186 0.0
H268 H 0.81413 0.83087 0.48626 0.0
H269 H 0.88665 0.94339 0.43553 0.0
H270 H 0.87073 0.92548 0.36734 0.0
H271 H 0.835 0.8857 0.36142 0.0
H272 H 0.81495 0.86361 0.42359 0.0
C273 C 0.80766 0.85231 0.50098 0.0
C274 C 0.82808 0.8776 0.50526 0.0
C275 C 0.83961 0.89026 0.46856 0.0
C276 C 0.86027 0.91312 0.47192 0.0
C277 C 0.87119 0.92562 0.43476 0.0
C278 C 0.86215 0.91566 0.39541 0.0
C279 C 0.84203 0.89328 0.39208 0.0
C280 C 0.83076 0.88071 0.42807 0.0
H281 H 0.92116 0.91014 0.50248 0.0
C282 C 0.91806 0.93458 0.50945 0.0
H283 H 0.88906 0.969 0.52356 0.0
H284 H 0.81148 0.85716 0.58225 0.0
H285 H 0.82668 0.87626 0.65012 0.0
H286 H 0.8613 0.91733 0.65564 0.0
H287 H 0.88115 0.93936 0.59312 0.0
C288 C 0.89283 0.9449 0.51553 0.0
C289 C 0.86951 0.92317 0.51198 0.0
C290 C 0.8574 0.91134 0.54865 0.0
C291 C 0.83694 0.88817 0.54538 0.0
C292 C 0.82638 0.87551 0.5827 0.0
C293 C 0.83508 0.88611 0.62195 0.0
C294 C 0.85462 0.90919 0.62506 0.0
C295 C 0.86583 0.92164 0.58896 0.0
H296 H 0.69213 0.32458 0.02708 0.0
C297 C 0.7051 0.33263 0.00203 0.0
H298 H 0.7105 0.36733 0.95609 0.0
H299 H 0.58747 0.39894 0.9321 0.0
H300 H 0.59738 0.37352 0.86608 0.0
H301 H 0.64112 0.34764 0.85522 0.0
H302 H 0.67527 0.3472 0.91021 0.0
C303 C 0.69792 0.3583 0.98088 0.0
C304 C 0.67153 0.37384 0.98815 0.0
C305 C 0.65165 0.37363 0.95579 0.0
C306 C 0.62627 0.38812 0.9623 0.0
C307 C 0.60697 0.38794 0.92915 0.0
C308 C 0.6124 0.37348 0.891 0.0
C309 C 0.63703 0.35894 0.88487 0.0
C310 C 0.65649 0.35892 0.91674 0.0
H311 H 0.61048 0.46298 0.01256 0.0
C312 C 0.59218 0.449 0.01159 0.0
H313 H 0.57601 0.40385 0.00505 0.0
H314 H 0.70616 0.38171 0.05504 0.0
H315 H 0.69567 0.40538 0.12203 0.0
H316 H 0.65042 0.42685 0.13526 0.0
H317 H 0.6156 0.42535 0.08127 0.0
C318 C 0.59412 0.41806 0.00735 0.0
C319 C 0.6207 0.40267 1.00124 0.0
C320 C 0.64045 0.40255 0.03383 0.0
C321 C 0.66612 0.38878 0.02693 0.0
C322 C 0.68598 0.39062 0.05915 0.0
C323 C 0.68028 0.40434 0.09769 0.0
C324 C 0.65485 0.41654 0.10508 0.0
C325 C 0.63509 0.4157 0.07368 0.0
H326 H 0.14426 0.87589 0.2472 0.0
C327 C 0.1306 0.86309 0.22649 0.0
H328 H 0.08969 0.85208 0.21338 0.0
H329 H 0.09164 0.91603 0.40552 0.0
H330 H 0.11903 0.87221 0.42648 0.0
H331 H 0.13326 0.83311 0.37453 0.0
H332 H 0.12086 0.83816 0.30119 0.0
C333 C 0.10385 0.86495 0.23304 0.0
C334 C 0.09257 0.88609 0.26551 0.0
C335 C 0.09864 0.88168 0.30868 0.0
C336 C 0.08886 0.90303 0.33906 0.0
C337 C 0.09714 0.89954 0.38145 0.0
C338 C 0.1131 0.87463 0.39388 0.0
C339 C 0.12123 0.85271 0.36462 0.0
C340 C 0.11414 0.85605 0.3225 0.0
H341 H 0.03826 0.91241 0.38882 0.0
C342 C 0.04241 0.93717 0.38787 0.0
H343 H 0.06327 0.973 0.35687 0.0
H344 H 0.07734 0.90151 0.18541 0.0
H345 H 0.04796 0.94377 0.16496 0.0
H346 H 0.02858 0.97873 0.21813 0.0
H347 H 0.03868 0.97184 0.29204 0.0
C348 C 0.05908 0.94829 0.35855 0.0
C349 C 0.07133 0.9274 0.32661 0.0
C350 C 0.06497 0.93154 0.28355 0.0
C351 C 0.07573 0.911 0.25296 0.0
C352 C 0.06942 0.91608 0.21008 0.0
C353 C 0.05261 0.94031 0.19786 0.0
C354 C 0.04172 0.96001 0.22779 0.0
C355 C 0.04773 0.9558 0.27015 0.0
H356 H 0.62426 0.68899 0.78747 0.0
C357 C 0.61818 0.6794 0.75716 0.0
H358 H 0.59563 0.64319 0.72796 0.0
H359 H 0.59629 0.55238 0.88078 0.0
H360 H 0.62704 0.52646 0.83359 0.0
H361 H 0.64275 0.55226 0.76941 0.0
H362 H 0.62766 0.60405 0.75188 0.0
C363 C 0.60148 0.65471 0.75693 0.0
C364 C 0.59267 0.64 0.79677 0.0
C365 C 0.60197 0.60985 0.80691 0.0
C366 C 0.59323 0.59516 0.84426 0.0
C367 C 0.60249 0.56481 0.85311 0.0
C368 C 0.62014 0.54962 0.82626 0.0
C369 C 0.62896 0.56413 0.7901 0.0
C370 C 0.62008 0.59387 0.78038 0.0
H371 H 0.52516 0.59134 0.88485 0.0
C372 C 0.53878 0.58495 0.91034 0.0
H373 H 0.57896 0.58675 0.93305 0.0
H374 H 0.56934 0.69698 0.78552 0.0
H375 H 0.54 0.72368 0.83411 0.0
H376 H 0.52725 0.69954 0.90104 0.0
H377 H 0.54341 0.64828 0.91944 0.0
C378 C 0.5647 0.5941 0.90898 0.0
C379 C 0.57522 0.61064 0.87154 0.0
C380 C 0.56649 0.64113 0.86201 0.0
C381 C 0.57479 0.65559 0.8242 0.0
C382 C 0.56453 0.68534 0.81446 0.0
C383 C 0.54752 0.70088 0.84198 0.0
C384 C 0.54026 0.68724 0.8796 0.0
C385 C 0.54956 0.65773 0.88966 0.0
H386 H 0.90934 0.14112 0.20464 0.0
C387 C 0.89747 0.16008 0.21742 0.0
H388 H 0.8884 0.1847 0.27327 0.0
H389 H 0.92753 0.04563 0.34056 0.0
H390 H 0.88645 0.0264 0.3075 0.0
H391 H 0.8572 0.06118 0.2661 0.0
H392 H 0.86911 0.11523 0.2569 0.0
C393 C 0.89832 0.16491 0.25915 0.0
C394 C 0.91463 0.14446 0.28707 0.0
C395 C 0.90677 0.11319 0.29349 0.0
C396 C 0.92298 0.09349 0.31897 0.0
C397 C 0.91542 0.06195 0.32296 0.0
C398 C 0.89197 0.05054 0.30391 0.0
C399 C 0.87556 0.07009 0.28047 0.0
C400 C 0.88274 0.10105 0.27523 0.0
H401 H 0.93216 0.08254 0.41344 0.0
C402 C 0.95254 0.07585 0.40488 0.0
H403 H 0.98316 0.07988 0.35949 0.0
H404 H 0.93541 0.20312 0.28123 0.0
H405 H 0.97578 0.22277 0.31611 0.0
H406 H 0.003 0.18912 0.3623 0.0
H407 H 0.99013 0.13554 0.37373 0.0
C408 C 0.96258 0.08549 0.36818 0.0
C409 C 0.94635 0.10547 0.33954 0.0
C410 C 0.95411 0.13675 0.33331 0.0
C411 C 0.93823 0.15626 0.30705 0.0
C412 C 0.94658 0.18736 0.30115 0.0
C413 C 0.96973 0.19893 0.32094 0.0
C414 C 0.98507 0.17998 0.34692 0.0
C415 C 0.97745 0.14925 0.35318 0.0
H416 H 0.41008 0.3273 0.74027 0.0
C417 C 0.41724 0.3413 0.71437 0.0
H418 H 0.43895 0.38184 0.69817 0.0
H419 H 0.41442 0.41499 0.896 0.0
H420 H 0.36717 0.41644 0.87521 0.0
H421 H 0.35279 0.40027 0.80405 0.0
H422 H 0.38542 0.38203 0.7536 0.0
C423 C 0.43193 0.36689 0.72305 0.0
C424 C 0.44 0.37562 0.76666 0.0
C425 C 0.42064 0.38706 0.7953 0.0
C426 C 0.42905 0.39773 0.8357 0.0
C427 C 0.40923 0.4078 0.86437 0.0
C428 C 0.38203 0.40854 0.85294 0.0
C429 C 0.37392 0.39934 0.81293 0.0
C430 C 0.3929 0.38876 0.7843 0.0
H431 H 0.45314 0.45775 0.86713 0.0
C432 C 0.46341 0.44444 0.89136 0.0
H433 H 0.47718 0.40006 0.90934 0.0
H434 H 0.48186 0.35285 0.72057 0.0
H435 H 0.52913 0.35183 0.74132 0.0
H436 H 0.54391 0.37212 0.81037 0.0
H437 H 0.51154 0.39339 0.85915 0.0
C438 C 0.46629 0.41369 0.88616 0.0
C439 C 0.45689 0.39825 0.84666 0.0
C440 C 0.47609 0.38571 0.81865 0.0
C441 C 0.46762 0.37437 0.77864 0.0
C442 C 0.48723 0.3621 0.75117 0.0
C443 C 0.51443 0.36131 0.76272 0.0
C444 C 0.52274 0.3727 0.8016 0.0
C445 C 0.50392 0.38484 0.82933 0.0
H446 H 0.62646 0.63977 0.30946 0.0
C447 C 0.60908 0.64641 0.32802 0.0
H448 H 0.56648 0.65076 0.3275 0.0
H449 H 0.55512 0.64063 0.12991 0.0
H450 H 0.55249 0.69657 0.13808 0.0
H451 H 0.56262 0.72151 0.2063 0.0
H452 H 0.57541 0.69069 0.26687 0.0
C453 C 0.58424 0.64248 0.31131 0.0
C454 C 0.58011 0.6276 0.26948 0.0
C455 C 0.57286 0.64593 0.23437 0.0
C456 C 0.56713 0.63156 0.19496 0.0
C457 C 0.55972 0.65039 0.16051 0.0
C458 C 0.55815 0.6825 0.16477 0.0
C459 C 0.56384 0.69655 0.2032 0.0
C460 C 0.57111 0.6786 0.23771 0.0
H461 H 0.523 0.56866 0.17531 0.0
C462 C 0.53602 0.56894 0.14805 0.0
H463 H 0.57309 0.58512 0.12384 0.0
H464 H 0.59305 0.58549 0.33055 0.0
H465 H 0.59704 0.52985 0.32171 0.0
H466 H 0.58876 0.50521 0.25274 0.0
H467 H 0.57615 0.53609 0.19226 0.0
C468 C 0.55992 0.58363 0.15079 0.0
C469 C 0.56847 0.59888 0.19084 0.0
C470 C 0.57667 0.58063 0.22557 0.0
C471 C 0.58218 0.59495 0.26506 0.0
C472 C 0.58924 0.57598 0.29959 0.0
C473 C 0.59151 0.54396 0.295 0.0
C474 C 0.58679 0.53008 0.25619 0.0
C475 C 0.57945 0.54807 0.22178 0.0
H476 H 0.88086 0.1469 0.78852 0.0
C477 C 0.89784 0.15045 0.80996 0.0
H478 H 0.94027 0.14642 0.81717 0.0
H479 H 0.94849 0.03206 0.69392 0.0
H480 H 0.95159 0.00603 0.76097 0.0
H481 H 0.94361 0.03453 0.82696 0.0
H482 H 0.93226 0.08917 0.82622 0.0
C483 C 0.92273 0.14283 0.79705 0.0
C484 C 0.92703 0.12598 0.75687 0.0
C485 C 0.93413 0.09418 0.75792 0.0
C486 C 0.93924 0.0779 0.71995 0.0
C487 C 0.94527 0.04583 0.72186 0.0
C488 C 0.9469 0.03052 0.76015 0.0
C489 C 0.94237 0.04655 0.79728 0.0
C490 C 0.93595 0.07796 0.79639 0.0
H491 H 0.9866 0.07444 0.6592 0.0
C492 C 0.97144 0.06902 0.63532 0.0
H493 H 0.93025 0.07306 0.6179 0.0
H494 H 0.91408 0.18687 0.74387 0.0
H495 H 0.91045 0.21276 0.67666 0.0
H496 H 0.91921 0.18447 0.61076 0.0
H497 H 0.93174 0.1301 0.61165 0.0
C498 C 0.94571 0.07748 0.64164 0.0
C499 C 0.93793 0.09368 0.68105 0.0
C500 C 0.93005 0.12524 0.6799 0.0
C501 C 0.92475 0.14149 0.7179 0.0
C502 C 0.91785 0.17328 0.71594 0.0
C503 C 0.91581 0.18846 0.67758 0.0
C504 C 0.92077 0.17254 0.64047 0.0
C505 C 0.92791 0.14133 0.64142 0.0
H506 H 0.39614 0.37488 0.31213 0.0
C507 C 0.39345 0.35048 0.30424 0.0
H508 H 0.4016 0.31573 0.25894 0.0
H509 H 0.40833 0.41115 0.10892 0.0
H510 H 0.3681 0.38189 0.09016 0.0
H511 H 0.34943 0.343 0.13841 0.0
H512 H 0.37084 0.3332 0.20576 0.0
C513 C 0.40349 0.33997 0.26779 0.0
C514 C 0.41627 0.36156 0.23742 0.0
C515 C 0.40379 0.36659 0.1978 0.0
C516 C 0.41468 0.38886 0.16981 0.0
C517 C 0.40125 0.39414 0.13106 0.0
C518 C 0.37804 0.3776 0.11997 0.0
C519 C 0.36752 0.35572 0.14714 0.0
C520 C 0.38007 0.35028 0.1857 0.0
H521 H 0.46532 0.39892 0.1097 0.0
C522 C 0.46245 0.42314 0.11815 0.0
H523 H 0.44663 0.45431 0.16295 0.0
H524 H 0.44783 0.35394 0.30778 0.0
H525 H 0.48834 0.38284 0.32616 0.0
H526 H 0.50627 0.42274 0.27873 0.0
H527 H 0.48392 0.43372 0.21237 0.0
C528 C 0.44896 0.43029 0.15325 0.0
C529 C 0.4382 0.40583 0.18134 0.0
C530 C 0.45112 0.40018 0.22042 0.0
C531 C 0.44041 0.3777 0.24822 0.0
C532 C 0.45448 0.37155 0.28617 0.0
C533 C 0.47791 0.38779 0.29695 0.0
C534 C 0.48803 0.41021 0.27022 0.0
C535 C 0.47496 0.41635 0.23228 0.0
H536 H 0.07898 0.89017 0.82794 0.0
C537 C 0.09386 0.87179 0.82501 0.0
H538 H 0.11611 0.84513 0.7812 0.0
H539 H 0.01523 0.91603 0.67735 0.0
H540 H 0.98566 0.88152 0.71515 0.0
H541 H 0.004 0.84497 0.76737 0.0
H542 H 0.05207 0.84331 0.78269 0.0
C543 C 0.1014 0.86331 0.78619 0.0
C544 C 0.09102 0.88042 0.74893 0.0
C545 C 0.06309 0.87986 0.73861 0.0
C546 C 0.05273 0.89975 0.70689 0.0
C547 C 0.02446 0.90041 0.69962 0.0
C548 C 0.00718 0.88085 0.72137 0.0
C549 C 0.01748 0.86037 0.75089 0.0
C550 C 0.04509 0.8598 0.75957 0.0
H551 H 0.04654 0.90544 0.61024 0.0
C552 C 0.04848 0.93025 0.6157 0.0
H553 H 0.06256 0.96527 0.65711 0.0
H554 H 0.14584 0.88545 0.75889 0.0
H555 H 0.17593 0.91768 0.71825 0.0
H556 H 0.15828 0.95042 0.66103 0.0
H557 H 0.1104 0.95129 0.64429 0.0
C558 C 0.05999 0.94056 0.65151 0.0
C559 C 0.07058 0.91889 0.6839 0.0
C560 C 0.09868 0.91823 0.6928 0.0
C561 C 0.10891 0.89903 0.7254 0.0
C562 C 0.13699 0.89938 0.73423 0.0
C563 C 0.15451 0.91778 0.71114 0.0
C564 C 0.14457 0.93623 0.67895 0.0
C565 C 0.11702 0.93656 0.66974 0.0
loop_
_geom_bond_atom_site_label_1
_geom_bond_atom_site_label_2
_geom_bond_distance
_geom_bond_site_symmetry_2
_ccdc_geom_bond_type
C0 C1 1.264 . S
C0 C5 1.479 . S
C0 C10 1.465 . S
C1 C0 1.264 . S
C1 C3 1.339 . S
C1 H28 0.931 . S
C2 C3 1.395 . S
C2 C4 1.320 . S
C3 C1 1.339 . S
C3 C2 1.395 . S
C3 H29 0.929 . S
C4 C2 1.320 . S
C4 C5 1.405 . S
C4 H30 0.930 . S
C5 C0 1.479 . S
C5 C4 1.405 . S
C5 H31 0.931 . S
U6 O7 2.454 . S
U6 O8 2.458 1_554 S
U6 C9 2.984 . S
U6 C10 2.847 . S
U6 C23 2.882 1_554 S
U6 O24 2.441 . S
U6 O25 2.420 . S
U6 O26 2.455 1_554 S
U6 O27 2.449 1_554 S
O7 U6 2.454 . S
O7 C9 1.353 . S
O8 U6 2.458 1_556 S
O8 C9 1.286 1_556 S
C9 U6 2.984 . S
C9 O7 1.353 . S
C9 O8 1.286 1_554 S
C9 C11 1.363 . S
C10 C0 1.465 . S
C10 U6 2.847 . S
C10 O24 1.249 . S
C10 O25 1.202 . S
C11 C9 1.363 . S
C11 C13 1.408 . S
C11 C16 1.342 1_554 S
C12 C13 1.310 . S
C12 C15 1.461 . S
C12 H32 0.932 . S
C13 C11 1.408 . S
C13 C12 1.310 . S
C13 H33 0.930 . S
C14 C15 1.474 1_556 S
C14 C16 1.285 . S
C14 H34 0.929 . S
C15 C12 1.461 . S
C15 C14 1.474 1_554 S
C16 C11 1.342 1_556 S
C16 C14 1.285 . S
C16 H35 0.930 . S
C17 C20 1.424 . S
C17 C22 1.245 . S
C17 C23 1.428 . S
C18 C21 1.260 . S
C18 C22 1.477 . S
C18 H36 0.932 . S
C19 C20 1.384 . S
C19 C21 1.479 . S
C19 H37 0.929 . S
C20 C17 1.424 . S
C20 C19 1.384 . S
C20 H38 0.928 . S
C21 C18 1.260 . S
C21 C19 1.479 . S
C22 C17 1.245 . S
C22 C18 1.477 . S
C22 H39 0.932 . S
C23 U6 2.882 1_556 S
C23 C17 1.428 . S
C23 O26 1.301 . S
C23 O27 1.282 . S
O24 U6 2.441 . S
O24 C10 1.249 . S
O25 U6 2.420 . S
O25 C10 1.202 . S
O26 U6 2.455 1_556 S
O26 C23 1.301 . S
O27 U6 2.449 1_556 S
O27 C23 1.282 . S
H28 C1 0.931 . S
H29 C3 0.929 . S
H30 C4 0.930 . S
H31 C5 0.931 . S
H32 C12 0.932 . S
H33 C13 0.930 . S
H34 C14 0.929 . S
H35 C16 0.930 . S
H36 C18 0.932 . S
H37 C19 0.929 . S
H38 C20 0.928 . S
H39 C22 0.932 . S
C40 C41 1.264 . S
C40 C45 1.479 . S
C40 C50 1.465 . S
C41 C40 1.264 . S
C41 C43 1.339 . S
C41 H68 0.931 . S
C42 C43 1.395 . S
C42 C44 1.320 . S
C43 C41 1.339 . S
C43 C42 1.395 . S
C43 H69 0.929 . S
C44 C42 1.320 . S
C44 C45 1.405 . S
C44 H70 0.930 . S
C45 C40 1.479 . S
C45 C44 1.405 . S
C45 H71 0.931 . S
U46 O47 2.454 . S
U46 O48 2.458 . S
U46 C49 2.984 . S
U46 C50 2.847 . S
U46 C63 2.882 . S
U46 O64 2.441 . S
U46 O65 2.420 . S
U46 O66 2.455 . S
U46 O67 2.449 . S
O47 U46 2.454 . S
O47 C49 1.353 . S
O48 U46 2.458 . S
O48 C49 1.286 . S
C49 U46 2.984 . S
C49 O47 1.353 . S
C49 O48 1.286 . S
C49 C51 1.363 . S
C50 C40 1.465 . S
C50 U46 2.847 . S
C50 O64 1.249 . S
C50 O65 1.202 . S
C51 C49 1.363 . S
C51 C53 1.408 . S
C51 C56 1.342 . S
C52 C53 1.310 . S
C52 C55 1.461 . S
C52 H72 0.932 . S
C53 C51 1.408 . S
C53 C52 1.310 . S
C53 H73 0.930 . S
C54 C55 1.474 . S
C54 C56 1.285 . S
C54 H74 0.929 . S
C55 C52 1.461 . S
C55 C54 1.474 . S
C56 C51 1.342 . S
C56 C54 1.285 . S
C56 H75 0.930 . S
C57 C60 1.424 . S
C57 C62 1.245 . S
C57 C63 1.428 . S
C58 C61 1.260 . S
C58 C62 1.477 . S
C58 H76 0.932 . S
C59 C60 1.384 . S
C59 C61 1.479 . S
C59 H77 0.929 . S
C60 C57 1.424 . S
C60 C59 1.384 . S
C60 H78 0.928 . S
C61 C58 1.260 . S
C61 C59 1.479 . S
C62 C57 1.245 . S
C62 C58 1.477 . S
C62 H79 0.932 . S
C63 U46 2.882 . S
C63 C57 1.428 . S
C63 O66 1.301 . S
C63 O67 1.282 . S
O64 U46 2.441 . S
O64 C50 1.249 . S
O65 U46 2.420 . S
O65 C50 1.202 . S
O66 U46 2.455 . S
O66 C63 1.301 . S
O67 U46 2.449 . S
O67 C63 1.282 . S
H68 C41 0.931 . S
H69 C43 0.929 . S
H70 C44 0.930 . S
H71 C45 0.931 . S
H72 C52 0.932 . S
H73 C53 0.930 . S
H74 C54 0.929 . S
H75 C56 0.930 . S
H76 C58 0.932 . S
H77 C59 0.929 . S
H78 C60 0.928 . S
H79 C62 0.932 . S
C80 C81 1.264 . S
C80 C85 1.479 . S
C80 C90 1.465 . S
C81 C80 1.264 . S
C81 C83 1.339 . S
C81 H108 0.931 . S
C82 C83 1.395 . S
C82 C84 1.320 . S
C83 C81 1.339 . S
C83 C82 1.395 . S
C83 H109 0.929 . S
C84 C82 1.320 . S
C84 C85 1.405 . S
C84 H110 0.930 . S
C85 C80 1.479 . S
C85 C84 1.405 . S
C85 H111 0.931 . S
U86 O87 2.454 . S
U86 O88 2.458 1_554 S
U86 C89 2.984 . S
U86 C90 2.847 . S
U86 C103 2.882 1_554 S
U86 O104 2.441 . S
U86 O105 2.420 . S
U86 O106 2.455 1_554 S
U86 O107 2.449 1_554 S
O87 U86 2.454 . S
O87 C89 1.353 . S
O88 U86 2.458 1_556 S
O88 C89 1.286 1_556 S
C89 U86 2.984 . S
C89 O87 1.353 . S
C89 O88 1.286 1_554 S
C89 C91 1.363 . S
C90 C80 1.465 . S
C90 U86 2.847 . S
C90 O104 1.249 . S
C90 O105 1.202 . S
C91 C89 1.363 . S
C91 C93 1.408 . S
C91 C96 1.342 1_554 S
C92 C93 1.310 . S
C92 C95 1.461 . S
C92 H112 0.932 . S
C93 C91 1.408 . S
C93 C92 1.310 . S
C93 H113 0.930 . S
C94 C95 1.474 1_556 S
C94 C96 1.285 . S
C94 H114 0.929 . S
C95 C92 1.461 . S
C95 C94 1.474 1_554 S
C96 C91 1.342 1_556 S
C96 C94 1.285 . S
C96 H115 0.930 . S
C97 C100 1.424 . S
C97 C102 1.245 . S
C97 C103 1.428 . S
C98 C101 1.260 . S
C98 C102 1.477 . S
C98 H116 0.932 . S
C99 C100 1.384 . S
C99 C101 1.479 . S
C99 H117 0.929 . S
C100 C97 1.424 . S
C100 C99 1.384 . S
C100 H118 0.928 . S
C101 C98 1.260 . S
C101 C99 1.479 . S
C102 C97 1.245 . S
C102 C98 1.477 . S
C102 H119 0.932 . S
C103 U86 2.882 1_556 S
C103 C97 1.428 . S
C103 O106 1.301 . S
C103 O107 1.282 . S
O104 U86 2.441 . S
O104 C90 1.249 . S
O105 U86 2.420 . S
O105 C90 1.202 . S
O106 U86 2.455 1_556 S
O106 C103 1.301 . S
O107 U86 2.449 1_556 S
O107 C103 1.282 . S
H108 C81 0.931 . S
H109 C83 0.929 . S
H110 C84 0.930 . S
H111 C85 0.931 . S
H112 C92 0.932 . S
H113 C93 0.930 . S
H114 C94 0.929 . S
H115 C96 0.930 . S
H116 C98 0.932 . S
H117 C99 0.929 . S
H118 C100 0.928 . S
H119 C102 0.932 . S
C120 C121 1.264 . S
C120 C125 1.479 . S
C120 C130 1.465 . S
C121 C120 1.264 . S
C121 C123 1.339 . S
C121 H148 0.931 . S
C122 C123 1.395 . S
C122 C124 1.320 . S
C123 C121 1.339 . S
C123 C122 1.395 . S
C123 H149 0.929 . S
C124 C122 1.320 . S
C124 C125 1.405 . S
C124 H150 0.930 . S
C125 C120 1.479 . S
C125 C124 1.405 . S
C125 H151 0.931 . S
U126 O127 2.454 . S
U126 O128 2.458 . S
U126 C129 2.984 . S
U126 C130 2.847 . S
U126 C143 2.882 . S
U126 O144 2.441 . S
U126 O145 2.420 . S
U126 O146 2.455 . S
U126 O147 2.449 . S
O127 U126 2.454 . S
O127 C129 1.353 . S
O128 U126 2.458 . S
O128 C129 1.286 . S
C129 U126 2.984 . S
C129 O127 1.353 . S
C129 O128 1.286 . S
C129 C131 1.363 . S
C130 C120 1.465 . S
C130 U126 2.847 . S
C130 O144 1.249 . S
C130 O145 1.202 . S
C131 C129 1.363 . S
C131 C133 1.408 . S
C131 C136 1.342 . S
C132 C133 1.310 . S
C132 C135 1.461 . S
C132 H152 0.932 . S
C133 C131 1.408 . S
C133 C132 1.310 . S
C133 H153 0.930 . S
C134 C135 1.474 . S
C134 C136 1.285 . S
C134 H154 0.929 . S
C135 C132 1.461 . S
C135 C134 1.474 . S
C136 C131 1.342 . S
C136 C134 1.285 . S
C136 H155 0.930 . S
C137 C140 1.424 . S
C137 C142 1.245 . S
C137 C143 1.428 . S
C138 C141 1.260 . S
C138 C142 1.477 . S
C138 H156 0.932 . S
C139 C140 1.384 . S
C139 C141 1.479 . S
C139 H157 0.929 . S
C140 C137 1.424 . S
C140 C139 1.384 . S
C140 H158 0.928 . S
C141 C138 1.260 . S
C141 C139 1.479 . S
C142 C137 1.245 . S
C142 C138 1.477 . S
C142 H159 0.932 . S
C143 U126 2.882 . S
C143 C137 1.428 . S
C143 O146 1.301 . S
C143 O147 1.282 . S
O144 U126 2.441 . S
O144 C130 1.249 . S
O145 U126 2.420 . S
O145 C130 1.202 . S
O146 U126 2.455 . S
O146 C143 1.301 . S
O147 U126 2.449 . S
O147 C143 1.282 . S
H148 C121 0.931 . S
H149 C123 0.929 . S
H150 C124 0.930 . S
H151 C125 0.931 . S
H152 C132 0.932 . S
H153 C133 0.930 . S
H154 C134 0.929 . S
H155 C136 0.930 . S
H156 C138 0.932 . S
H157 C139 0.929 . S
H158 C140 0.928 . S
H159 C142 0.932 . S
O160 Zn161 1.953 1_565 S
O160 C176 1.225 . S
Zn161 O160 1.953 1_545 S
Zn161 O162 1.949 1_655 S
Zn161 O168 1.919 . S
Zn161 O173 1.924 . S
O162 Zn161 1.949 1_455 S
O162 Zn163 1.923 . S
O162 Zn164 1.950 1_445 S
O162 Zn165 1.945 . S
Zn163 O162 1.923 . S
Zn163 O166 1.933 . S
Zn163 O169 1.941 . S
Zn163 O170 1.965 1_545 S
Zn164 O162 1.950 1_665 S
Zn164 O171 1.938 1_655 S
Zn164 O172 1.906 1_655 S
Zn164 O182 1.953 . S
Zn165 O162 1.945 . S
Zn165 O167 1.932 . S
Zn165 O174 1.977 1_545 S
Zn165 O175 1.910 1_455 S
O166 Zn163 1.933 . S
O166 C177 1.226 . S
O167 Zn165 1.932 . S
O167 C177 1.307 . S
O168 Zn161 1.919 . S
O168 C179 1.253 . S
O169 Zn163 1.941 . S
O169 C179 1.283 1_455 S
O170 Zn163 1.965 1_565 S
O170 C178 1.303 . S
O171 Zn164 1.938 1_455 S
O171 C178 1.247 . S
O172 Zn164 1.906 1_455 S
O172 C180 1.304 . S
O173 Zn161 1.924 . S
O173 C181 1.311 . S
O174 Zn165 1.977 1_565 S
O174 C180 1.272 . S
O175 Zn165 1.910 1_655 S
O175 C181 1.231 . S
C176 O160 1.225 . S
C176 O182 1.298 . S
C177 O166 1.226 . S
C177 O167 1.307 . S
C178 O170 1.303 . S
C178 O171 1.247 . S
C179 O168 1.253 . S
C179 O169 1.283 1_655 S
C180 O172 1.304 . S
C180 O174 1.272 . S
C181 O173 1.311 . S
C181 O175 1.231 . S
O182 Zn164 1.953 . S
O182 C176 1.298 . S
O183 Zn184 1.953 1_556 S
O183 C199 1.225 1_556 S
Zn184 O183 1.953 1_554 S
Zn184 O185 1.949 . S
Zn184 O191 1.919 1_554 S
Zn184 O196 1.924 . S
O185 Zn184 1.949 . S
O185 Zn186 1.923 1_554 S
O185 Zn187 1.950 . S
O185 Zn188 1.945 . S
Zn186 O185 1.923 1_556 S
Zn186 O189 1.933 . S
Zn186 O192 1.941 . S
Zn186 O193 1.965 . S
Zn187 O185 1.950 . S
Zn187 O194 1.938 1_554 S
Zn187 O195 1.906 . S
Zn187 O205 1.953 . S
Zn188 O185 1.945 . S
Zn188 O190 1.932 . S
Zn188 O197 1.977 . S
Zn188 O198 1.910 . S
O189 Zn186 1.933 . S
O189 C200 1.226 1_556 S
O190 Zn188 1.932 . S
O190 C200 1.307 . S
O191 Zn184 1.919 1_556 S
O191 C202 1.253 . S
O192 Zn186 1.941 . S
O192 C202 1.283 . S
O193 Zn186 1.965 . S
O193 C201 1.303 . S
O194 Zn187 1.938 1_556 S
O194 C201 1.247 . S
O195 Zn187 1.906 . S
O195 C203 1.304 . S
O196 Zn184 1.924 . S
O196 C204 1.311 . S
O197 Zn188 1.977 . S
O197 C203 1.272 . S
O198 Zn188 1.910 . S
O198 C204 1.231 . S
C199 O183 1.225 1_554 S
C199 O205 1.298 . S
C200 O189 1.226 1_554 S
C200 O190 1.307 . S
C201 O193 1.303 . S
C201 O194 1.247 . S
C202 O191 1.253 . S
C202 O192 1.283 . S
C203 O195 1.304 . S
C203 O197 1.272 . S
C204 O196 1.311 . S
C204 O198 1.231 . S
O205 Zn187 1.953 . S
O205 C199 1.298 . S
H206 C207 0.951 . S
C207 H206 0.951 . S
C207 C213 1.265 . S
H208 C213 0.950 . S
H209 C217 0.949 . S
H210 C218 0.950 . S
H211 C219 0.951 . S
H212 C220 0.951 . S
C213 C207 1.265 . S
C213 H208 0.950 . S
C213 C214 1.478 . S
C214 C213 1.478 . S
C214 C215 1.397 . S
C214 C231 1.394 . S
C215 C214 1.397 . S
C215 C216 1.438 . S
C215 C220 1.429 . S
C216 C215 1.438 . S
C216 C217 1.428 . S
C216 C229 1.394 . S
C217 H209 0.949 . S
C217 C216 1.428 . S
C217 C218 1.345 . S
C218 H210 0.950 . S
C218 C217 1.345 . S
C218 C219 1.424 . S
C219 H211 0.951 . S
C219 C218 1.424 . S
C219 C220 1.347 . S
C220 H212 0.951 . S
C220 C215 1.429 . S
C220 C219 1.347 . S
H221 C222 0.951 . S
C222 H221 0.951 . S
C222 C228 1.265 . S
H223 C228 0.950 . S
H224 C232 0.949 . S
H225 C233 0.950 . S
H226 C234 0.951 . S
H227 C235 0.951 . S
C228 C222 1.265 . S
C228 H223 0.950 . S
C228 C229 1.478 . S
C229 C216 1.394 . S
C229 C228 1.478 . S
C229 C230 1.397 . S
C230 C229 1.397 . S
C230 C231 1.438 . S
C230 C235 1.429 . S
C231 C214 1.394 . S
C231 C230 1.438 . S
C231 C232 1.428 . S
C232 H224 0.949 . S
C232 C231 1.428 . S
C232 C233 1.345 . S
C233 H225 0.950 . S
C233 C232 1.345 . S
C233 C234 1.424 . S
C234 H226 0.951 . S
C234 C233 1.424 . S
C234 C235 1.347 . S
C235 H227 0.951 . S
C235 C230 1.429 . S
C235 C234 1.347 . S
H236 C237 0.951 . S
C237 H236 0.951 . S
C237 C243 1.265 . S
H238 C243 0.950 . S
H239 C247 0.949 . S
H240 C248 0.950 . S
H241 C249 0.951 . S
H242 C250 0.951 . S
C243 C237 1.265 . S
C243 H238 0.950 . S
C243 C244 1.478 . S
C244 C243 1.478 . S
C244 C245 1.397 1_554 S
C244 C261 1.394 . S
C245 C244 1.397 1_556 S
C245 C246 1.438 . S
C245 C250 1.429 . S
C246 C245 1.438 . S
C246 C247 1.428 . S
C246 C259 1.394 1_556 S
C247 H239 0.949 . S
C247 C246 1.428 . S
C247 C248 1.345 . S
C248 H240 0.950 . S
C248 C247 1.345 . S
C248 C249 1.424 . S
C249 H241 0.951 . S
C249 C248 1.424 . S
C249 C250 1.347 . S
C250 H242 0.951 . S
C250 C245 1.429 . S
C250 C249 1.347 . S
H251 C252 0.951 . S
C252 H251 0.951 . S
C252 C258 1.265 . S
H253 C258 0.950 . S
H254 C262 0.949 . S
H255 C263 0.950 . S
H256 C264 0.951 . S
H257 C265 0.951 . S
C258 C252 1.265 . S
C258 H253 0.950 . S
C258 C259 1.478 . S
C259 C246 1.394 1_554 S
C259 C258 1.478 . S
C259 C260 1.397 . S
C260 C259 1.397 . S
C260 C261 1.438 . S
C260 C265 1.429 . S
C261 C244 1.394 . S
C261 C260 1.438 . S
C261 C262 1.428 . S
C262 H254 0.949 . S
C262 C261 1.428 . S
C262 C263 1.345 . S
C263 H255 0.950 . S
C263 C262 1.345 . S
C263 C264 1.424 . S
C264 H256 0.951 . S
C264 C263 1.424 . S
C264 C265 1.347 . S
C265 H257 0.951 . S
C265 C260 1.429 . S
C265 C264 1.347 . S
H266 C267 0.951 . S
C267 H266 0.951 . S
C267 C273 1.265 . S
H268 C273 0.950 . S
H269 C277 0.949 . S
H270 C278 0.950 . S
H271 C279 0.951 . S
H272 C280 0.951 . S
C273 C267 1.265 . S
C273 H268 0.950 . S
C273 C274 1.478 . S
C274 C273 1.478 . S
C274 C275 1.397 . S
C274 C291 1.394 . S
C275 C274 1.397 . S
C275 C276 1.438 . S
C275 C280 1.429 . S
C276 C275 1.438 . S
C276 C277 1.428 . S
C276 C289 1.394 . S
C277 H269 0.949 . S
C277 C276 1.428 . S
C277 C278 1.345 . S
C278 H270 0.950 . S
C278 C277 1.345 . S
C278 C279 1.424 . S
C279 H271 0.951 . S
C279 C278 1.424 . S
C279 C280 1.347 . S
C280 H272 0.951 . S
C280 C275 1.429 . S
C280 C279 1.347 . S
H281 C282 0.951 . S
C282 H281 0.951 . S
C282 C288 1.265 . S
H283 C288 0.950 . S
H284 C292 0.949 . S
H285 C293 0.950 . S
H286 C294 0.951 . S
H287 C295 0.951 . S
C288 C282 1.265 . S
C288 H283 0.950 . S
C288 C289 1.478 . S
C289 C276 1.394 . S
C289 C288 1.478 . S
C289 C290 1.397 . S
C290 C289 1.397 . S
C290 C291 1.438 . S
C290 C295 1.429 . S
C291 C274 1.394 . S
C291 C290 1.438 . S
C291 C292 1.428 . S
C292 H284 0.949 . S
C292 C291 1.428 . S
C292 C293 1.345 . S
C293 H285 0.950 . S
C293 C292 1.345 . S
C293 C294 1.424 . S
C294 H286 0.951 . S
C294 C293 1.424 . S
C294 C295 1.347 . S
C295 H287 0.951 . S
C295 C290 1.429 . S
C295 C294 1.347 . S
H296 C297 0.951 . S
C297 H296 0.951 . S
C297 C303 1.268 . S
H298 C303 0.944 1_556 S
H299 C307 0.949 . S
H300 C308 0.950 . S
H301 C309 0.951 . S
H302 C310 0.951 . S
C303 C297 1.268 . S
C303 H298 0.944 1_554 S
C303 C304 1.480 . S
C304 C303 1.480 . S
C304 C305 1.397 1_554 S
C304 C321 1.394 . S
C305 C304 1.397 1_556 S
C305 C306 1.438 . S
C305 C310 1.429 . S
C306 C305 1.438 . S
C306 C307 1.428 . S
C306 C319 1.394 1_556 S
C307 H299 0.949 . S
C307 C306 1.428 . S
C307 C308 1.345 . S
C308 H300 0.950 . S
C308 C307 1.345 . S
C308 C309 1.424 . S
C309 H301 0.951 . S
C309 C308 1.424 . S
C309 C310 1.347 . S
C310 H302 0.951 . S
C310 C305 1.429 . S
C310 C309 1.347 . S
H311 C312 0.951 1_556 S
C312 H311 0.951 1_554 S
C312 C318 1.265 . S
H313 C318 0.950 . S
H314 C322 0.949 . S
H315 C323 0.950 . S
H316 C324 0.951 . S
H317 C325 0.951 . S
C318 C312 1.265 . S
C318 H313 0.950 . S
C318 C319 1.478 . S
C319 C306 1.394 1_554 S
C319 C318 1.478 . S
C319 C320 1.397 . S
C320 C319 1.397 . S
C320 C321 1.438 . S
C320 C325 1.429 . S
C321 C304 1.394 . S
C321 C320 1.438 . S
C321 C322 1.428 . S
C322 H314 0.949 . S
C322 C321 1.428 . S
C322 C323 1.345 . S
C323 H315 0.950 . S
C323 C322 1.345 . S
C323 C324 1.424 . S
C324 H316 0.951 . S
C324 C323 1.424 . S
C324 C325 1.347 . S
C325 H317 0.951 . S
C325 C320 1.429 . S
C325 C324 1.347 . S
H326 C327 0.951 . S
C327 H326 0.951 . S
C327 C333 1.265 . S
H328 C333 0.950 . S
H329 C337 0.949 . S
H330 C338 0.950 . S
H331 C339 0.951 . S
H332 C340 0.951 . S
C333 C327 1.265 . S
C333 H328 0.950 . S
C333 C334 1.478 . S
C334 C333 1.478 . S
C334 C335 1.397 . S
C334 C351 1.394 . S
C335 C334 1.397 . S
C335 C336 1.438 . S
C335 C340 1.429 . S
C336 C335 1.438 . S
C336 C337 1.428 . S
C336 C349 1.394 . S
C337 H329 0.949 . S
C337 C336 1.428 . S
C337 C338 1.345 . S
C338 H330 0.950 . S
C338 C337 1.345 . S
C338 C339 1.424 . S
C339 H331 0.951 . S
C339 C338 1.424 . S
C339 C340 1.347 . S
C340 H332 0.951 . S
C340 C335 1.429 . S
C340 C339 1.347 . S
H341 C342 0.951 . S
C342 H341 0.951 . S
C342 C348 1.265 . S
H343 C348 0.950 . S
H344 C352 0.949 . S
H345 C353 0.950 . S
H346 C354 0.951 . S
H347 C355 0.951 . S
C348 C342 1.265 . S
C348 H343 0.950 . S
C348 C349 1.478 . S
C349 C336 1.394 . S
C349 C348 1.478 . S
C349 C350 1.397 . S
C350 C349 1.397 . S
C350 C351 1.438 . S
C350 C355 1.429 . S
C351 C334 1.394 . S
C351 C350 1.438 . S
C351 C352 1.428 . S
C352 H344 0.949 . S
C352 C351 1.428 . S
C352 C353 1.345 . S
C353 H345 0.950 . S
C353 C352 1.345 . S
C353 C354 1.424 . S
C354 H346 0.951 . S
C354 C353 1.424 . S
C354 C355 1.347 . S
C355 H347 0.951 . S
C355 C350 1.429 . S
C355 C354 1.347 . S
H356 C357 0.951 . S
C357 H356 0.951 . S
C357 C363 1.265 . S
H358 C363 0.950 . S
H359 C367 0.949 . S
H360 C368 0.950 . S
H361 C369 0.951 . S
H362 C370 0.951 . S
C363 C357 1.265 . S
C363 H358 0.950 . S
C363 C364 1.478 . S
C364 C363 1.478 . S
C364 C365 1.397 . S
C364 C381 1.394 . S
C365 C364 1.397 . S
C365 C366 1.438 . S
C365 C370 1.429 . S
C366 C365 1.438 . S
C366 C367 1.428 . S
C366 C379 1.394 . S
C367 H359 0.949 . S
C367 C366 1.428 . S
C367 C368 1.345 . S
C368 H360 0.950 . S
C368 C367 1.345 . S
C368 C369 1.424 . S
C369 H361 0.951 . S
C369 C368 1.424 . S
C369 C370 1.347 . S
C370 H362 0.951 . S
C370 C365 1.429 . S
C370 C369 1.347 . S
H371 C372 0.951 . S
C372 H371 0.951 . S
C372 C378 1.265 . S
H373 C378 0.950 . S
H374 C382 0.949 . S
H375 C383 0.950 . S
H376 C384 0.951 . S
H377 C385 0.951 . S
C378 C372 1.265 . S
C378 H373 0.950 . S
C378 C379 1.478 . S
C379 C366 1.394 . S
C379 C378 1.478 . S
C379 C380 1.397 . S
C380 C379 1.397 . S
C380 C381 1.438 . S
C380 C385 1.429 . S
C381 C364 1.394 . S
C381 C380 1.438 . S
C381 C382 1.428 . S
C382 H374 0.949 . S
C382 C381 1.428 . S
C382 C383 1.345 . S
C383 H375 0.950 . S
C383 C382 1.345 . S
C383 C384 1.424 . S
C384 H376 0.951 . S
C384 C383 1.424 . S
C384 C385 1.347 . S
C385 H377 0.951 . S
C385 C380 1.429 . S
C385 C384 1.347 . S
H386 C387 0.951 . S
C387 H386 0.951 . S
C387 C393 1.265 . S
H388 C393 0.950 . S
H389 C397 0.949 . S
H390 C398 0.950 . S
H391 C399 0.951 . S
H392 C400 0.951 . S
C393 C387 1.265 . S
C393 H388 0.950 . S
C393 C394 1.478 . S
C394 C393 1.478 . S
C394 C395 1.397 . S
C394 C411 1.394 . S
C395 C394 1.397 . S
C395 C396 1.438 . S
C395 C400 1.429 . S
C396 C395 1.438 . S
C396 C397 1.428 . S
C396 C409 1.394 . S
C397 H389 0.949 . S
C397 C396 1.428 . S
C397 C398 1.345 . S
C398 H390 0.950 . S
C398 C397 1.345 . S
C398 C399 1.424 . S
C399 H391 0.951 . S
C399 C398 1.424 . S
C399 C400 1.347 . S
C400 H392 0.951 . S
C400 C395 1.429 . S
C400 C399 1.347 . S
H401 C402 0.951 . S
C402 H401 0.951 . S
C402 C408 1.265 . S
H403 C408 0.950 . S
H404 C412 0.949 . S
H405 C413 0.950 1_455 S
H406 C414 0.951 . S
H407 C415 0.958 . S
C408 C402 1.265 . S
C408 H403 0.950 . S
C408 C409 1.478 . S
C409 C396 1.394 . S
C409 C408 1.478 . S
C409 C410 1.397 . S
C410 C409 1.397 . S
C410 C411 1.438 . S
C410 C415 1.429 . S
C411 C394 1.394 . S
C411 C410 1.438 . S
C411 C412 1.428 . S
C412 H404 0.949 . S
C412 C411 1.428 . S
C412 C413 1.345 . S
C413 H405 0.950 1_655 S
C413 C412 1.345 . S
C413 C414 1.424 1_655 S
C414 H406 0.951 . S
C414 C413 1.424 1_455 S
C414 C415 1.347 1_455 S
C415 H407 0.958 . S
C415 C410 1.429 . S
C415 C414 1.347 1_655 S
H416 C417 0.951 . S
C417 H416 0.951 . S
C417 C423 1.265 . S
H418 C423 0.950 . S
H419 C427 0.949 . S
H420 C428 0.950 . S
H421 C429 0.951 . S
H422 C430 0.951 . S
C423 C417 1.265 . S
C423 H418 0.950 . S
C423 C424 1.478 . S
C424 C423 1.478 . S
C424 C425 1.397 . S
C424 C441 1.394 . S
C425 C424 1.397 . S
C425 C426 1.438 . S
C425 C430 1.429 . S
C426 C425 1.438 . S
C426 C427 1.428 . S
C426 C439 1.394 . S
C427 H419 0.949 . S
C427 C426 1.428 . S
C427 C428 1.345 . S
C428 H420 0.950 . S
C428 C427 1.345 . S
C428 C429 1.424 . S
C429 H421 0.951 . S
C429 C428 1.424 . S
C429 C430 1.347 . S
C430 H422 0.951 . S
C430 C425 1.429 . S
C430 C429 1.347 . S
H431 C432 0.951 . S
C432 H431 0.951 . S
C432 C438 1.265 . S
H433 C438 0.950 . S
H434 C442 0.949 . S
H435 C443 0.950 . S
H436 C444 0.951 . S
H437 C445 0.951 . S
C438 C432 1.265 . S
C438 H433 0.950 . S
C438 C439 1.478 . S
C439 C426 1.394 . S
C439 C438 1.478 . S
C439 C440 1.397 . S
C440 C439 1.397 . S
C440 C441 1.438 . S
C440 C445 1.429 . S
C441 C424 1.394 . S
C441 C440 1.438 . S
C441 C442 1.428 . S
C442 H434 0.949 . S
C442 C441 1.428 . S
C442 C443 1.345 . S
C443 H435 0.950 . S
C443 C442 1.345 . S
C443 C444 1.424 . S
C444 H436 0.951 . S
C444 C443 1.424 . S
C444 C445 1.347 . S
C445 H437 0.951 . S
C445 C440 1.429 . S
C445 C444 1.347 . S
H446 C447 0.951 . S
C447 H446 0.951 . S
C447 C453 1.265 . S
H448 C453 0.950 . S
H449 C457 0.949 . S
H450 C458 0.950 . S
H451 C459 0.951 . S
H452 C460 0.951 . S
C453 C447 1.265 . S
C453 H448 0.950 . S
C453 C454 1.478 . S
C454 C453 1.478 . S
C454 C455 1.397 . S
C454 C471 1.394 . S
C455 C454 1.397 . S
C455 C456 1.438 . S
C455 C460 1.429 . S
C456 C455 1.438 . S
C456 C457 1.428 . S
C456 C469 1.394 . S
C457 H449 0.949 . S
C457 C456 1.428 . S
C457 C458 1.345 . S
C458 H450 0.950 . S
C458 C457 1.345 . S
C458 C459 1.424 . S
C459 H451 0.951 . S
C459 C458 1.424 . S
C459 C460 1.347 . S
C460 H452 0.951 . S
C460 C455 1.429 . S
C460 C459 1.347 . S
H461 C462 0.951 . S
C462 H461 0.951 . S
C462 C468 1.265 . S
H463 C468 0.950 . S
H464 C472 0.949 . S
H465 C473 0.950 . S
H466 C474 0.951 . S
H467 C475 0.951 . S
C468 C462 1.265 . S
C468 H463 0.950 . S
C468 C469 1.478 . S
C469 C456 1.394 . S
C469 C468 1.478 . S
C469 C470 1.397 . S
C470 C469 1.397 . S
C470 C471 1.438 . S
C470 C475 1.429 . S
C471 C454 1.394 . S
C471 C470 1.438 . S
C471 C472 1.428 . S
C472 H464 0.949 . S
C472 C471 1.428 . S
C472 C473 1.345 . S
C473 H465 0.950 . S
C473 C472 1.345 . S
C473 C474 1.424 . S
C474 H466 0.951 . S
C474 C473 1.424 . S
C474 C475 1.347 . S
C475 H467 0.951 . S
C475 C470 1.429 . S
C475 C474 1.347 . S
H476 C477 0.951 . S
C477 H476 0.951 . S
C477 C483 1.265 . S
H478 C483 0.950 . S
H479 C487 0.949 . S
H480 C488 0.950 . S
H481 C489 0.951 . S
H482 C490 0.950 1_655 S
C483 C477 1.265 . S
C483 H478 0.950 . S
C483 C484 1.478 . S
C484 C483 1.478 . S
C484 C485 1.397 . S
C484 C501 1.394 . S
C485 C484 1.397 . S
C485 C486 1.438 . S
C485 C490 1.429 1_655 S
C486 C485 1.438 . S
C486 C487 1.428 1_655 S
C486 C499 1.394 . S
C487 H479 0.949 . S
C487 C486 1.428 1_455 S
C487 C488 1.345 . S
C488 H480 0.950 . S
C488 C487 1.345 . S
C488 C489 1.424 . S
C489 H481 0.951 . S
C489 C488 1.424 . S
C489 C490 1.347 . S
C490 H482 0.950 1_455 S
C490 C485 1.429 1_455 S
C490 C489 1.347 . S
H491 C492 0.951 1_455 S
C492 H491 0.951 1_655 S
C492 C498 1.265 . S
H493 C498 0.950 . S
H494 C502 0.949 . S
H495 C503 0.950 . S
H496 C504 0.951 . S
H497 C505 0.951 . S
C498 C492 1.265 . S
C498 H493 0.950 . S
C498 C499 1.478 . S
C499 C486 1.394 . S
C499 C498 1.478 . S
C499 C500 1.397 . S
C500 C499 1.397 . S
C500 C501 1.438 . S
C500 C505 1.429 . S
C501 C484 1.394 . S
C501 C500 1.438 . S
C501 C502 1.428 . S
C502 H494 0.949 . S
C502 C501 1.428 . S
C502 C503 1.345 . S
C503 H495 0.950 . S
C503 C502 1.345 . S
C503 C504 1.424 . S
C504 H496 0.951 . S
C504 C503 1.424 . S
C504 C505 1.347 . S
C505 H497 0.951 . S
C505 C500 1.429 . S
C505 C504 1.347 . S
H506 C507 0.951 . S
C507 H506 0.951 . S
C507 C513 1.265 . S
H508 C513 0.950 . S
H509 C517 0.949 . S
H510 C518 0.950 . S
H511 C519 0.951 . S
H512 C520 0.951 . S
C513 C507 1.265 . S
C513 H508 0.950 . S
C513 C514 1.478 . S
C514 C513 1.478 . S
C514 C515 1.397 . S
C514 C531 1.394 . S
C515 C514 1.397 . S
C515 C516 1.438 . S
C515 C520 1.429 . S
C516 C515 1.438 . S
C516 C517 1.428 . S
C516 C529 1.394 . S
C517 H509 0.949 . S
C517 C516 1.428 . S
C517 C518 1.345 . S
C518 H510 0.950 . S
C518 C517 1.345 . S
C518 C519 1.424 . S
C519 H511 0.951 . S
C519 C518 1.424 . S
C519 C520 1.347 . S
C520 H512 0.951 . S
C520 C515 1.429 . S
C520 C519 1.347 . S
H521 C522 0.951 . S
C522 H521 0.951 . S
C522 C528 1.265 . S
H523 C528 0.950 . S
H524 C532 0.949 . S
H525 C533 0.950 . S
H526 C534 0.951 . S
H527 C535 0.951 . S
C528 C522 1.265 . S
C528 H523 0.950 . S
C528 C529 1.478 . S
C529 C516 1.394 . S
C529 C528 1.478 . S
C529 C530 1.397 . S
C530 C529 1.397 . S
C530 C531 1.438 . S
C530 C535 1.429 . S
C531 C514 1.394 . S
C531 C530 1.438 . S
C531 C532 1.428 . S
C532 H524 0.949 . S
C532 C531 1.428 . S
C532 C533 1.345 . S
C533 H525 0.950 . S
C533 C532 1.345 . S
C533 C534 1.424 . S
C534 H526 0.951 . S
C534 C533 1.424 . S
C534 C535 1.347 . S
C535 H527 0.951 . S
C535 C530 1.429 . S
C535 C534 1.347 . S
H536 C537 0.951 . S
C537 H536 0.951 . S
C537 C543 1.265 . S
H538 C543 0.950 . S
H539 C547 0.949 . S
H540 C548 0.950 . S
H541 C549 0.951 . S
H542 C550 0.951 . S
C543 C537 1.265 . S
C543 H538 0.950 . S
C543 C544 1.478 . S
C544 C543 1.478 . S
C544 C545 1.397 . S
C544 C561 1.394 . S
C545 C544 1.397 . S
C545 C546 1.438 . S
C545 C550 1.429 . S
C546 C545 1.438 . S
C546 C547 1.428 1_455 S
C546 C559 1.394 . S
C547 H539 0.949 . S
C547 C546 1.428 1_655 S
C547 C548 1.345 . S
C548 H540 0.950 . S
C548 C547 1.345 . S
C548 C549 1.424 . S
C549 H541 0.951 . S
C549 C548 1.424 . S
C549 C550 1.347 1_655 S
C550 H542 0.951 . S
C550 C545 1.429 . S
C550 C549 1.347 1_455 S
H551 C552 0.951 . S
C552 H551 0.951 . S
C552 C558 1.265 . S
H553 C558 0.950 . S
H554 C562 0.949 . S
H555 C563 0.950 . S
H556 C564 0.951 . S
H557 C565 0.951 . S
C558 C552 1.265 . S
C558 H553 0.950 . S
C558 C559 1.478 . S
C559 C546 1.394 . S
C559 C558 1.478 . S
C559 C560 1.397 . S
C560 C559 1.397 . S
C560 C561 1.438 . S
C560 C565 1.429 . S
C561 C544 1.394 . S
C561 C560 1.438 . S
C561 C562 1.428 . S
C562 H554 0.949 . S
C562 C561 1.428 . S
C562 C563 1.345 . S
C563 H555 0.950 . S
C563 C562 1.345 . S
C563 C564 1.424 . S
C564 H556 0.951 . S
C564 C563 1.424 . S
C564 C565 1.347 . S
C565 H557 0.951 . S
C565 C560 1.429 . S
C565 C564 1.347 . S
C222 C177 1.693 . S
C207 C135 1.677 . S
C237 C15 1.609 . S
C252 C200 1.653 . S
C267 C55 1.702 . S
C282 C176 1.713 . S
C297 C95 1.627 . S
C312 C199 1.675 . S
C342 C180 1.585 . S
C327 C2 1.557 . S
C372 C202 1.652 . S
C357 C42 1.680 . S
C387 C82 1.652 . S
C402 C181 1.665 . S
C417 C141 1.620 . S
C432 C201 1.626 . S
C462 C204 1.615 . S
C447 C61 1.729 . S
C492 C179 1.712 . S
C477 C101 1.584 . S
C522 C203 1.621 . S
C507 C122 1.580 . S
C537 C21 1.569 . S
C552 C178 1.619 . S
