# Generated by pormake.
# Topology eea, (3,6)-cn, num edge types: 1
# Building blocks:
#     Node 0, Type 0, BuildingBlock: WUSLED_clean_sbu_0, # of connection points: 3
#     Node 1, Type 0, BuildingBlock: WUSLED_clean_sbu_0, # of connection points: 3
#     Node 2, Type 0, BuildingBlock: WUSLED_clean_sbu_0, # of connection points: 3
#     Node 3, Type 0, BuildingBlock: WUSLED_clean_sbu_0, # of connection points: 3
#     Node 4, Type 0, BuildingBlock: WUSLED_clean_sbu_0, # of connection points: 3
#     Node 5, Type 0, BuildingBlock: WUSLED_clean_sbu_0, # of connection points: 3
#     Node 6, Type 0, BuildingBlock: WUSLED_clean_sbu_0, # of connection points: 3
#     Node 7, Type 0, BuildingBlock: WUSLED_clean_sbu_0, # of connection points: 3
#     Node 8, Type 0, BuildingBlock: WUSLED_clean_sbu_0, # of connection points: 3
#     Node 9, Type 0, BuildingBlock: WUSLED_clean_sbu_0, # of connection points: 3
#     Node 10, Type 0, BuildingBlock: WUSLED_clean_sbu_0, # of connection points: 3
#     Node 11, Type 0, BuildingBlock: WUSLED_clean_sbu_0, # of connection points: 3
#     Node 12, Type 0, BuildingBlock: WUSLED_clean_sbu_0, # of connection points: 3
#     Node 13, Type 0, BuildingBlock: WUSLED_clean_sbu_0, # of connection points: 3
#     Node 14, Type 0, BuildingBlock: WUSLED_clean_sbu_0, # of connection points: 3
#     Node 15, Type 0, BuildingBlock: WUSLED_clean_sbu_0, # of connection points: 3
#     Node 16, Type 0, BuildingBlock: WUSLED_clean_sbu_0, # of connection points: 3
#     Node 17, Type 0, BuildingBlock: WUSLED_clean_sbu_0, # of connection points: 3
#     Node 18, Type 1, BuildingBlock: CIFDUS_clean_sbu_1, # of connection points: 6
#     Node 19, Type 1, BuildingBlock: CIFDUS_clean_sbu_1, # of connection points: 6
#     Node 20, Type 1, BuildingBlock: CIFDUS_clean_sbu_1, # of connection points: 6
#     Node 21, Type 1, BuildingBlock: CIFDUS_clean_sbu_1, # of connection points: 6
#     Node 22, Type 1, BuildingBlock: CIFDUS_clean_sbu_1, # of connection points: 6
#     Node 23, Type 1, BuildingBlock: CIFDUS_clean_sbu_1, # of connection points: 6
#     Node 24, Type 1, BuildingBlock: CIFDUS_clean_sbu_1, # of connection points: 6
#     Node 25, Type 1, BuildingBlock: CIFDUS_clean_sbu_1, # of connection points: 6
#     Node 26, Type 1, BuildingBlock: CIFDUS_clean_sbu_1, # of connection points: 6
#     Edge 27, Type (0, 1), BuildingBlock: XIVTED_clean_linker_0, # of connection points: 2
#     Edge 28, Type (0, 1), BuildingBlock: XIVTED_clean_linker_0, # of connection points: 2
#     Edge 29, Type (0, 1), BuildingBlock: XIVTED_clean_linker_0, # of connection points: 2
#     Edge 30, Type (0, 1), BuildingBlock: XIVTED_clean_linker_0, # of connection points: 2
#     Edge 31, Type (0, 1), BuildingBlock: XIVTED_clean_linker_0, # of connection points: 2
#     Edge 32, Type (0, 1), BuildingBlock: XIVTED_clean_linker_0, # of connection points: 2
#     Edge 33, Type (0, 1), BuildingBlock: XIVTED_clean_linker_0, # of connection points: 2
#     Edge 34, Type (0, 1), BuildingBlock: XIVTED_clean_linker_0, # of connection points: 2
#     Edge 35, Type (0, 1), BuildingBlock: XIVTED_clean_linker_0, # of connection points: 2
#     Edge 36, Type (0, 1), BuildingBlock: XIVTED_clean_linker_0, # of connection points: 2
#     Edge 37, Type (0, 1), BuildingBlock: XIVTED_clean_linker_0, # of connection points: 2
#     Edge 38, Type (0, 1), BuildingBlock: XIVTED_clean_linker_0, # of connection points: 2
#     Edge 39, Type (0, 1), BuildingBlock: XIVTED_clean_linker_0, # of connection points: 2
#     Edge 40, Type (0, 1), BuildingBlock: XIVTED_clean_linker_0, # of connection points: 2
#     Edge 41, Type (0, 1), BuildingBlock: XIVTED_clean_linker_0, # of connection points: 2
#     Edge 42, Type (0, 1), BuildingBlock: XIVTED_clean_linker_0, # of connection points: 2
#     Edge 43, Type (0, 1), BuildingBlock: XIVTED_clean_linker_0, # of connection points: 2
#     Edge 44, Type (0, 1), BuildingBlock: XIVTED_clean_linker_0, # of connection points: 2
#     Edge 45, Type (0, 1), BuildingBlock: XIVTED_clean_linker_0, # of connection points: 2
#     Edge 46, Type (0, 1), BuildingBlock: XIVTED_clean_linker_0, # of connection points: 2
#     Edge 47, Type (0, 1), BuildingBlock: XIVTED_clean_linker_0, # of connection points: 2
#     Edge 48, Type (0, 1), BuildingBlock: XIVTED_clean_linker_0, # of connection points: 2
#     Edge 49, Type (0, 1), BuildingBlock: XIVTED_clean_linker_0, # of connection points: 2
#     Edge 50, Type (0, 1), BuildingBlock: XIVTED_clean_linker_0, # of connection points: 2
#     Edge 51, Type (0, 1), BuildingBlock: XIVTED_clean_linker_0, # of connection points: 2
#     Edge 52, Type (0, 1), BuildingBlock: XIVTED_clean_linker_0, # of connection points: 2
#     Edge 53, Type (0, 1), BuildingBlock: XIVTED_clean_linker_0, # of connection points: 2
#     Edge 54, Type (0, 1), BuildingBlock: XIVTED_clean_linker_0, # of connection points: 2
#     Edge 55, Type (0, 1), BuildingBlock: XIVTED_clean_linker_0, # of connection points: 2
#     Edge 56, Type (0, 1), BuildingBlock: XIVTED_clean_linker_0, # of connection points: 2
#     Edge 57, Type (0, 1), BuildingBlock: XIVTED_clean_linker_0, # of connection points: 2
#     Edge 58, Type (0, 1), BuildingBlock: XIVTED_clean_linker_0, # of connection points: 2
#     Edge 59, Type (0, 1), BuildingBlock: XIVTED_clean_linker_0, # of connection points: 2
#     Edge 60, Type (0, 1), BuildingBlock: XIVTED_clean_linker_0, # of connection points: 2
#     Edge 61, Type (0, 1), BuildingBlock: XIVTED_clean_linker_0, # of connection points: 2
#     Edge 62, Type (0, 1), BuildingBlock: XIVTED_clean_linker_0, # of connection points: 2
#     Edge 63, Type (0, 1), BuildingBlock: XIVTED_clean_linker_0, # of connection points: 2
#     Edge 64, Type (0, 1), BuildingBlock: XIVTED_clean_linker_0, # of connection points: 2
#     Edge 65, Type (0, 1), BuildingBlock: XIVTED_clean_linker_0, # of connection points: 2
#     Edge 66, Type (0, 1), BuildingBlock: XIVTED_clean_linker_0, # of connection points: 2
#     Edge 67, Type (0, 1), BuildingBlock: XIVTED_clean_linker_0, # of connection points: 2
#     Edge 68, Type (0, 1), BuildingBlock: XIVTED_clean_linker_0, # of connection points: 2
#     Edge 69, Type (0, 1), BuildingBlock: XIVTED_clean_linker_0, # of connection points: 2
#     Edge 70, Type (0, 1), BuildingBlock: XIVTED_clean_linker_0, # of connection points: 2
#     Edge 71, Type (0, 1), BuildingBlock: XIVTED_clean_linker_0, # of connection points: 2
#     Edge 72, Type (0, 1), BuildingBlock: XIVTED_clean_linker_0, # of connection points: 2
#     Edge 73, Type (0, 1), BuildingBlock: XIVTED_clean_linker_0, # of connection points: 2
#     Edge 74, Type (0, 1), BuildingBlock: XIVTED_clean_linker_0, # of connection points: 2
#     Edge 75, Type (0, 1), BuildingBlock: XIVTED_clean_linker_0, # of connection points: 2
#     Edge 76, Type (0, 1), BuildingBlock: XIVTED_clean_linker_0, # of connection points: 2
#     Edge 77, Type (0, 1), BuildingBlock: XIVTED_clean_linker_0, # of connection points: 2
#     Edge 78, Type (0, 1), BuildingBlock: XIVTED_clean_linker_0, # of connection points: 2
#     Edge 79, Type (0, 1), BuildingBlock: XIVTED_clean_linker_0, # of connection points: 2
#     Edge 80, Type (0, 1), BuildingBlock: XIVTED_clean_linker_0, # of connection points: 2
# Relax obj value: 0.097
# Max RMSD: 0.179
# Mean RMSD: 0.091
data_MOF--net-eea--node1-WUSLED_clean_sbu_0--node2-CIFDUS_clean_sbu_1--edge1-XIVTED_clean_linker_0
_symmetry_space_group_name_H-M    P1
_symmetry_Int_Tables_number       1
_symmetry_cell_setting            triclinic
loop_
_symmetry_equiv_pos_as_xyz
'x, y, z'
_cell_length_a     71.100142
_cell_length_b     70.635208
_cell_length_c     70.115576
_cell_angle_alpha  89.093752
_cell_angle_beta   89.620228
_cell_angle_gamma 119.67463
loop_
_atom_site_label
_atom_site_type_symbol
_atom_site_fract_x
_atom_site_fract_y
_atom_site_fract_z
_atom_type_partial_charge
C0 C 0.24763 0.16777 0.38201 0.0
C1 C 0.25044 0.18179 0.39706 0.0
C2 C 0.23739 0.20121 0.37719 0.0
C3 C 0.24534 0.19842 0.39464 0.0
C4 C 0.23532 0.18771 0.36195 0.0
C5 C 0.24047 0.1711 0.36434 0.0
U6 U 0.26513 0.13437 0.41275 0.0
O7 O 0.24932 0.09908 0.4181 0.0
O8 O 0.28169 0.11619 0.40461 0.0
C9 C 0.2652 0.09737 0.4102 0.0
C10 C 0.25079 0.14888 0.3849 0.0
C11 C 0.25871 0.07878 0.39755 0.0
C12 C 0.23533 0.0542 0.37333 0.0
C13 C 0.24381 0.0741 0.3828 0.0
C14 C 0.25734 0.04422 0.39265 0.0
C15 C 0.24157 0.03887 0.3787 0.0
C16 C 0.26589 0.06403 0.40194 0.0
C17 C 0.28786 0.15628 0.46275 0.0
C18 C 0.29001 0.13662 0.49078 0.0
C19 C 0.30821 0.17605 0.49029 0.0
C20 C 0.30092 0.17596 0.47184 0.0
C21 C 0.30239 0.1564 0.50027 0.0
C22 C 0.28279 0.13656 0.47216 0.0
C23 C 0.27899 0.15708 0.44397 0.0
O24 O 0.27099 0.15322 0.38588 0.0
O25 O 0.23811 0.13466 0.39799 0.0
O26 O 0.25857 0.14266 0.4412 0.0
O27 O 0.29154 0.16023 0.42903 0.0
H28 H 0.25596 0.17944 0.4108 0.0
H29 H 0.24689 0.20865 0.40657 0.0
H30 H 0.22913 0.18962 0.3484 0.0
H31 H 0.23825 0.16046 0.35259 0.0
H32 H 0.22314 0.05032 0.36259 0.0
H33 H 0.23808 0.08533 0.37923 0.0
H34 H 0.26239 0.03262 0.39694 0.0
H35 H 0.27735 0.06735 0.41326 0.0
H36 H 0.28516 0.12118 0.49799 0.0
H37 H 0.31817 0.19163 0.49685 0.0
H38 H 0.30513 0.19135 0.46479 0.0
H39 H 0.27281 0.12115 0.46533 0.0
C40 C 0.9307 0.17453 0.3745 0.0
C41 C 0.94214 0.18962 0.38871 0.0
C42 C 0.97429 0.2066 0.36812 0.0
C43 C 0.9639 0.20551 0.38556 0.0
C44 C 0.96251 0.19213 0.35369 0.0
C45 C 0.94092 0.17617 0.3569 0.0
U46 U 0.87992 0.14009 0.40603 0.0
O47 O 0.84577 0.1197 0.39763 0.0
O48 O 0.86303 0.10482 0.41177 0.0
C49 C 0.84486 0.10175 0.40434 0.0
C50 C 0.90896 0.1557 0.37819 0.0
C51 C 0.83174 0.08106 0.39451 0.0
C52 C 0.82347 0.05589 0.36833 0.0
C53 C 0.83578 0.07696 0.37578 0.0
C54 C 0.80331 0.04344 0.39817 0.0
C55 C 0.80713 0.03877 0.37958 0.0
C56 C 0.81528 0.06422 0.40539 0.0
C57 C 0.87801 0.1606 0.45686 0.0
C58 C 0.85197 0.14086 0.48262 0.0
C59 C 0.88146 0.17744 0.48754 0.0
C60 C 0.88887 0.17831 0.46889 0.0
C61 C 0.86292 0.15875 0.4947 0.0
C62 C 0.85943 0.1418 0.46379 0.0
C63 C 0.88724 0.16218 0.43759 0.0
O64 O 0.90801 0.14172 0.39125 0.0
O65 O 0.89279 0.1597 0.37941 0.0
O66 O 0.87675 0.16437 0.42312 0.0
O67 O 0.89476 0.1489 0.43424 0.0
H68 H 0.9345 0.18861 0.4024 0.0
H69 H 0.97276 0.21658 0.39686 0.0
H70 H 0.97031 0.19257 0.34024 0.0
H71 H 0.93242 0.16456 0.34584 0.0
H72 H 0.82683 0.05299 0.35391 0.0
H73 H 0.84855 0.08979 0.36714 0.0
H74 H 0.79151 0.03081 0.40762 0.0
H75 H 0.81208 0.06698 0.41993 0.0
H76 H 0.83757 0.12629 0.48767 0.0
H77 H 0.89051 0.19135 0.4965 0.0
H78 H 0.90335 0.19286 0.46389 0.0
H79 H 0.85084 0.12788 0.45472 0.0
C80 C 0.84373 0.75682 0.37595 0.0
C81 C 0.82579 0.7492 0.3885 0.0
C82 C 0.81233 0.76954 0.37026 0.0
C83 C 0.81004 0.75542 0.38557 0.0
C84 C 0.82991 0.77651 0.3575 0.0
C85 C 0.84539 0.77012 0.36028 0.0
U86 U 0.87583 0.73864 0.40792 0.0
O87 O 0.89546 0.72337 0.40044 0.0
O88 O 0.91064 0.75561 0.41348 0.0
C89 C 0.91351 0.74024 0.40609 0.0
C90 C 0.86192 0.75291 0.37959 0.0
C91 C 0.93298 0.74783 0.39391 0.0
C92 C 0.95763 0.77136 0.36869 0.0
C93 C 0.93721 0.76163 0.37785 0.0
C94 C 0.9692 0.75288 0.39112 0.0
C95 C 0.97402 0.7676 0.37573 0.0
C96 C 0.94889 0.74307 0.40007 0.0
C97 C 0.85246 0.71729 0.45901 0.0
C98 C 0.86823 0.70689 0.48507 0.0
C99 C 0.83543 0.7087 0.49034 0.0
C100 C 0.83593 0.71496 0.47137 0.0
C101 C 0.85145 0.70449 0.49746 0.0
C102 C 0.8687 0.71323 0.46587 0.0
C103 C 0.85238 0.72491 0.43942 0.0
O104 O 0.87575 0.76571 0.3922 0.0
O105 O 0.85735 0.7325 0.38141 0.0
O106 O 0.85059 0.71186 0.42553 0.0
O107 O 0.86623 0.74551 0.43564 0.0
H108 H 0.82433 0.73903 0.40079 0.0
H109 H 0.79663 0.74996 0.39562 0.0
H110 H 0.83191 0.78735 0.34559 0.0
H111 H 0.85911 0.7762 0.3505 0.0
H112 H 0.961 0.78268 0.35684 0.0
H113 H 0.9251 0.76556 0.37294 0.0
H114 H 0.98148 0.74956 0.3967 0.0
H115 H 0.94595 0.73251 0.41243 0.0
H116 H 0.88081 0.70378 0.49018 0.0
H117 H 0.82261 0.70757 0.49956 0.0
H118 H 0.82344 0.71829 0.46638 0.0
H119 H 0.88171 0.71511 0.45648 0.0
C120 C 0.09303 0.25893 0.65133 0.0
C121 C 0.08235 0.26528 0.63809 0.0
C122 C 0.04941 0.2476 0.65787 0.0
C123 C 0.06071 0.25971 0.64137 0.0
C124 C 0.06061 0.2422 0.67138 0.0
C125 C 0.08216 0.24781 0.66812 0.0
U126 U 0.14366 0.27628 0.61948 0.0
O127 O 0.17764 0.28894 0.62775 0.0
O128 O 0.16009 0.25757 0.61336 0.0
C129 C 0.17818 0.27182 0.62131 0.0
C130 C 0.1146 0.26168 0.64728 0.0
C131 C 0.18953 0.26294 0.63271 0.0
C132 C 0.19559 0.24689 0.66151 0.0
C133 C 0.18391 0.25527 0.65171 0.0
C134 C 0.21817 0.25377 0.63337 0.0
C135 C 0.21306 0.24633 0.65243 0.0
C136 C 0.20661 0.26195 0.6237 0.0
C137 C 0.14635 0.30211 0.5694 0.0
C138 C 0.17058 0.30644 0.54286 0.0
C139 C 0.14234 0.31575 0.53856 0.0
C140 C 0.13594 0.31014 0.55764 0.0
C141 C 0.15933 0.3134 0.53077 0.0
C142 C 0.16405 0.30071 0.56205 0.0
C143 C 0.13699 0.29359 0.58855 0.0
O144 O 0.11524 0.24934 0.63377 0.0
O145 O 0.13098 0.28174 0.64641 0.0
O146 O 0.1477 0.30515 0.60324 0.0
O147 O 0.12894 0.27253 0.59136 0.0
H148 H 0.09051 0.27389 0.62501 0.0
H149 H 0.05267 0.26441 0.63078 0.0
H150 H 0.05243 0.23263 0.68408 0.0
H151 H 0.09011 0.24266 0.67843 0.0
H152 H 0.19121 0.24118 0.67616 0.0
H153 H 0.17064 0.25578 0.65889 0.0
H154 H 0.23113 0.2531 0.62576 0.0
H155 H 0.21104 0.26754 0.60902 0.0
H156 H 0.18371 0.30444 0.53728 0.0
H157 H 0.13358 0.32142 0.52976 0.0
H158 H 0.12229 0.3114 0.56305 0.0
H159 H 0.1723 0.29451 0.57093 0.0
C160 C 0.75841 0.83699 0.65051 0.0
C161 C 0.74977 0.81892 0.63855 0.0
C162 C 0.77119 0.80513 0.65435 0.0
C163 C 0.756 0.803 0.64055 0.0
C164 C 0.77896 0.82274 0.66682 0.0
C165 C 0.7726 0.83848 0.66492 0.0
U166 U 0.74007 0.8695 0.61903 0.0
O167 O 0.72617 0.89027 0.62689 0.0
O168 O 0.75754 0.90442 0.61166 0.0
C169 C 0.7428 0.90795 0.61955 0.0
C170 C 0.7548 0.85555 0.64701 0.0
C171 C 0.75094 0.92855 0.62975 0.0
C172 C 0.76763 0.9524 0.65665 0.0
C173 C 0.75864 0.93162 0.64852 0.0
C174 C 0.76106 0.96668 0.62737 0.0
C175 C 0.76895 0.97021 0.64606 0.0
C176 C 0.75213 0.94618 0.61941 0.0
C177 C 0.71739 0.84771 0.56925 0.0
C178 C 0.71242 0.86874 0.54389 0.0
C179 C 0.70523 0.83206 0.53803 0.0
C180 C 0.71087 0.8303 0.55679 0.0
C181 C 0.70623 0.85137 0.53136 0.0
C182 C 0.7179 0.8669 0.56277 0.0
C183 C 0.725 0.8459 0.58836 0.0
O184 O 0.76721 0.86924 0.63352 0.0
O185 O 0.73458 0.85126 0.64626 0.0
O186 O 0.71265 0.84439 0.60301 0.0
O187 O 0.74568 0.85903 0.59127 0.0
H188 H 0.73888 0.81756 0.62724 0.0
H189 H 0.74978 0.78964 0.63072 0.0
H190 H 0.7904 0.82464 0.67777 0.0
H191 H 0.77942 0.8523 0.67428 0.0
H192 H 0.77354 0.95454 0.67109 0.0
H193 H 0.75798 0.91816 0.65671 0.0
H194 H 0.76232 0.97998 0.61852 0.0
H195 H 0.74656 0.94422 0.60484 0.0
H196 H 0.71318 0.88374 0.53901 0.0
H197 H 0.70058 0.81851 0.52857 0.0
H198 H 0.71054 0.81544 0.56146 0.0
H199 H 0.72293 0.88055 0.57218 0.0
C200 C 0.09154 0.84575 0.64585 0.0
C201 C 0.07868 0.83117 0.6319 0.0
C202 C 0.04883 0.81287 0.65496 0.0
C203 C 0.0575 0.81487 0.63641 0.0
C204 C 0.06195 0.82741 0.6689 0.0
C205 C 0.08311 0.84369 0.66437 0.0
U206 U 0.14094 0.87578 0.61227 0.0
O207 O 0.16137 0.91076 0.60628 0.0
O208 O 0.17563 0.89237 0.61936 0.0
C209 C 0.17862 0.91153 0.61378 0.0
C210 C 0.11355 0.8635 0.64129 0.0
C211 C 0.19111 0.92998 0.6263 0.0
C212 C 0.19276 0.95585 0.64965 0.0
C213 C 0.18118 0.93566 0.6408 0.0
C214 C 0.22446 0.96398 0.63045 0.0
C215 C 0.2142 0.97053 0.64384 0.0
C216 C 0.21301 0.94384 0.62179 0.0
C217 C 0.14049 0.85464 0.56207 0.0
C218 C 0.16648 0.8754 0.53665 0.0
C219 C 0.13993 0.83744 0.53223 0.0
C220 C 0.13155 0.83631 0.55054 0.0
C221 C 0.1574 0.857 0.52502 0.0
C222 C 0.15814 0.8742 0.5551 0.0
C223 C 0.13061 0.85305 0.58098 0.0
O224 O 0.12847 0.85778 0.63956 0.0
O225 O 0.11498 0.87748 0.62798 0.0
O226 O 0.12512 0.86792 0.58444 0.0
O227 O 0.13986 0.84913 0.59551 0.0
H228 H 0.08493 0.83255 0.6175 0.0
H229 H 0.04778 0.80414 0.62524 0.0
H230 H 0.05591 0.82615 0.68336 0.0
H231 H 0.09288 0.85479 0.67532 0.0
H232 H 0.18458 0.96056 0.66006 0.0
H233 H 0.16425 0.92506 0.64451 0.0
H234 H 0.24108 0.97491 0.626 0.0
H235 H 0.22095 0.93966 0.61072 0.0
H236 H 0.18006 0.89062 0.53151 0.0
H237 H 0.1324 0.82307 0.52354 0.0
H238 H 0.11787 0.82113 0.55564 0.0
H239 H 0.16531 0.88854 0.56384 0.0
C240 C 0.91642 0.50216 0.71555 0.0
C241 C 0.91741 0.51555 0.73054 0.0
C242 C 0.90646 0.53565 0.7091 0.0
C243 C 0.91249 0.53221 0.72733 0.0
C244 C 0.90664 0.52289 0.69395 0.0
C245 C 0.91153 0.50625 0.69718 0.0
U246 U 0.93208 0.46883 0.74808 0.0
O247 O 0.91572 0.43368 0.75412 0.0
O248 O 0.9485 0.45012 0.7414 0.0
C249 C 0.93155 0.4315 0.74668 0.0
C250 C 0.91917 0.48314 0.7191 0.0
C251 C 0.9249 0.4132 0.73372 0.0
C252 C 0.90016 0.38839 0.71039 0.0
C253 C 0.90854 0.40795 0.72027 0.0
C254 C 0.92544 0.38007 0.72633 0.0
C255 C 0.90828 0.37415 0.71375 0.0
C256 C 0.93364 0.39942 0.7363 0.0
C257 C 0.95252 0.48998 0.79813 0.0
C258 C 0.9571 0.46886 0.82358 0.0
C259 C 0.96936 0.50722 0.8277 0.0
C260 C 0.96222 0.50845 0.80946 0.0
C261 C 0.96683 0.48742 0.83499 0.0
C262 C 0.95009 0.47015 0.80521 0.0
C263 C 0.94481 0.49182 0.77917 0.0
O264 O 0.93924 0.48728 0.72086 0.0
O265 O 0.90584 0.46911 0.73199 0.0
O266 O 0.92444 0.47778 0.77576 0.0
O267 O 0.95792 0.49467 0.76474 0.0
H268 H 0.92126 0.51263 0.74483 0.0
H269 H 0.91238 0.54165 0.73931 0.0
H270 H 0.90244 0.52541 0.67967 0.0
H271 H 0.91088 0.49617 0.68543 0.0
H272 H 0.88702 0.38409 0.70056 0.0
H273 H 0.90169 0.4185 0.71799 0.0
H274 H 0.93188 0.36923 0.72905 0.0
H275 H 0.94622 0.4032 0.74663 0.0
H276 H 0.95513 0.45345 0.82879 0.0
H277 H 0.97656 0.52172 0.83623 0.0
H278 H 0.96415 0.52384 0.80424 0.0
H279 H 0.9427 0.45573 0.79658 0.0
C280 C 0.59647 0.50668 0.70703 0.0
C281 C 0.60696 0.52259 0.72082 0.0
C282 C 0.64045 0.53876 0.70181 0.0
C283 C 0.62874 0.53852 0.71821 0.0
C284 C 0.62951 0.52332 0.68768 0.0
C285 C 0.60775 0.50743 0.69031 0.0
U286 U 0.5457 0.47436 0.73852 0.0
O287 O 0.51126 0.45501 0.73066 0.0
O288 O 0.52753 0.43931 0.74505 0.0
C289 C 0.50973 0.43671 0.73715 0.0
C290 C 0.5745 0.4882 0.7105 0.0
C291 C 0.49775 0.41699 0.72575 0.0
C292 C 0.49691 0.38828 0.70634 0.0
C293 C 0.50821 0.40952 0.7134 0.0
C294 C 0.4644 0.3826 0.72279 0.0
C295 C 0.47512 0.37427 0.71176 0.0
C296 C 0.47561 0.40371 0.72971 0.0
C297 C 0.54477 0.49655 0.78849 0.0
C298 C 0.5186 0.47693 0.81412 0.0
C299 C 0.54934 0.51262 0.81965 0.0
C300 C 0.55628 0.51386 0.80077 0.0
C301 C 0.53071 0.49398 0.82669 0.0
C302 C 0.52566 0.47815 0.79514 0.0
C303 C 0.55408 0.4977 0.76938 0.0
O304 O 0.57305 0.47428 0.72387 0.0
O305 O 0.55873 0.49282 0.71143 0.0
O306 O 0.54379 0.49989 0.75475 0.0
O307 O 0.561 0.48385 0.76648 0.0
H308 H 0.5985 0.5223 0.73383 0.0
H309 H 0.63654 0.55041 0.72922 0.0
H310 H 0.63801 0.52288 0.67497 0.0
H311 H 0.59992 0.49522 0.67954 0.0
H312 H 0.50556 0.3824 0.69771 0.0
H313 H 0.52532 0.41959 0.71009 0.0
H314 H 0.4475 0.37242 0.7268 0.0
H315 H 0.46722 0.40919 0.73914 0.0
H316 H 0.5042 0.46235 0.81916 0.0
H317 H 0.55881 0.52617 0.82885 0.0
H318 H 0.57102 0.52819 0.79589 0.0
H319 H 0.51658 0.46458 0.78584 0.0
C320 C 0.51182 0.09161 0.70942 0.0
C321 C 0.49701 0.08911 0.72391 0.0
C322 C 0.47965 0.10319 0.70243 0.0
C323 C 0.4811 0.09488 0.72047 0.0
C324 C 0.4939 0.10456 0.68775 0.0
C325 C 0.50985 0.0989 0.69125 0.0
U326 U 0.54427 0.07479 0.74214 0.0
O327 O 0.5654 0.06105 0.73547 0.0
O328 O 0.57887 0.09308 0.74872 0.0
C329 C 0.58281 0.0783 0.74157 0.0
C330 C 0.53065 0.08887 0.71341 0.0
C331 C 0.6027 0.08655 0.72988 0.0
C332 C 0.626 0.107 0.70278 0.0
C333 C 0.60615 0.09859 0.71278 0.0
C334 C 0.6387 0.09112 0.72679 0.0
C335 C 0.64241 0.10322 0.70973 0.0
C336 C 0.61911 0.08294 0.73675 0.0
C337 C 0.52013 0.05055 0.79209 0.0
C338 C 0.53939 0.04655 0.81906 0.0
C339 C 0.50138 0.0357 0.8223 0.0
C340 C 0.50126 0.04188 0.80335 0.0
C341 C 0.52046 0.03824 0.8304 0.0
C342 C 0.5392 0.05255 0.79989 0.0
C343 C 0.51959 0.05874 0.77282 0.0
O344 O 0.54346 0.10157 0.72665 0.0
O345 O 0.52706 0.06875 0.71486 0.0
O346 O 0.51892 0.04665 0.75849 0.0
O347 O 0.53265 0.07967 0.76969 0.0
H348 H 0.4983 0.08352 0.73807 0.0
H349 H 0.47059 0.09372 0.73221 0.0
H350 H 0.49299 0.11035 0.67359 0.0
H351 H 0.52111 0.10087 0.67988 0.0
H352 H 0.62847 0.11622 0.68961 0.0
H353 H 0.59363 0.10159 0.70729 0.0
H354 H 0.65115 0.0882 0.73259 0.0
H355 H 0.61684 0.07391 0.75001 0.0
H356 H 0.55426 0.04855 0.82505 0.0
H357 H 0.48669 0.02959 0.83084 0.0
H358 H 0.48649 0.0404 0.79762 0.0
H359 H 0.55394 0.0592 0.79134 0.0
C360 C 0.7602 0.59233 0.98504 0.0
C361 C 0.74998 0.59969 0.97225 0.0
C362 C 0.71648 0.58086 0.9912 0.0
C363 C 0.72831 0.59408 0.97536 0.0
C364 C 0.72722 0.57443 1.00435 0.0
C365 C 0.74883 0.58012 1.00128 0.0
U366 U 0.80997 0.60946 0.95237 0.0
O367 O 0.84419 0.62186 0.95961 0.0
O368 O 0.82585 0.59045 0.94545 0.0
C369 C 0.84425 0.60454 0.95307 0.0
C370 C 0.7817 0.59502 0.98081 0.0
C371 C 0.85525 0.59532 0.96448 0.0
C372 C 0.85923 0.577 0.9927 0.0
C373 C 0.84804 0.58579 0.98277 0.0
C374 C 0.88461 0.58724 0.96613 0.0
C375 C 0.87776 0.57788 0.98445 0.0
C376 C 0.87346 0.59579 0.95628 0.0
C377 C 0.81173 0.63488 0.90257 0.0
C378 C 0.83738 0.64074 0.87685 0.0
C379 C 0.80677 0.64606 0.87094 0.0
C380 C 0.80016 0.64075 0.89 0.0
C381 C 0.82515 0.64564 0.86399 0.0
C382 C 0.83063 0.63527 0.89601 0.0
C383 C 0.80257 0.62676 0.92184 0.0
O384 O 0.78204 0.5826 0.96723 0.0
O385 O 0.7981 0.61507 0.97971 0.0
O386 O 0.81379 0.63834 0.93633 0.0
O387 O 0.79425 0.60568 0.92475 0.0
H388 H 0.75851 0.60913 0.95959 0.0
H389 H 0.72068 0.59963 0.9651 0.0
H390 H 0.71865 0.56405 0.01656 0.0
H391 H 0.75643 0.57417 0.01122 0.0
H392 H 0.85372 0.56996 1.00686 0.0
H393 H 0.83391 0.58521 0.9893 0.0
H394 H 0.89872 0.58796 0.95939 0.0
H395 H 0.87915 0.60287 0.94214 0.0
H396 H 0.85159 0.64024 0.87193 0.0
H397 H 0.79722 0.65014 0.86151 0.0
H398 H 0.78557 0.6406 0.89481 0.0
H399 H 0.83976 0.63072 0.90551 0.0
C400 C 0.42256 0.16863 0.98385 0.0
C401 C 0.42043 0.15486 0.96879 0.0
C402 C 0.43704 0.13808 0.98791 0.0
C403 C 0.42756 0.13966 0.97082 0.0
C404 C 0.43762 0.15085 1.00338 0.0
C405 C 0.43053 0.16602 1.00132 0.0
U406 U 0.40554 0.20255 0.95293 0.0
O407 O 0.39104 0.2228 0.96092 0.0
O408 O 0.42304 0.23768 0.94679 0.0
C409 C 0.40808 0.24088 0.95472 0.0
C410 C 0.41915 0.1874 0.98089 0.0
C411 C 0.416 0.26049 0.96642 0.0
C412 C 0.44409 0.28855 0.9857 0.0
C413 C 0.43381 0.26733 0.97854 0.0
C414 C 0.41787 0.29552 0.96991 0.0
C415 C 0.43682 0.30321 0.98063 0.0
C416 C 0.40762 0.27442 0.96288 0.0
C417 C 0.38431 0.18099 0.90231 0.0
C418 C 0.3727 0.1977 0.87783 0.0
C419 C 0.37812 0.16745 0.87 0.0
C420 C 0.38377 0.16629 0.88885 0.0
C421 C 0.37271 0.18325 0.86421 0.0
C422 C 0.37864 0.1967 0.89676 0.0
C423 C 0.39162 0.17976 0.92171 0.0
O424 O 0.43206 0.20171 0.96799 0.0
O425 O 0.39899 0.18317 0.97967 0.0
O426 O 0.37877 0.17791 0.93606 0.0
O427 O 0.41215 0.19316 0.92499 0.0
H428 H 0.41429 0.15664 0.95518 0.0
H429 H 0.42686 0.13013 0.95863 0.0
H430 H 0.44431 0.14969 0.01689 0.0
H431 H 0.43219 0.17642 0.01313 0.0
H432 H 0.45852 0.2939 0.99409 0.0
H433 H 0.4405 0.25678 0.98153 0.0
H434 H 0.4115 0.30618 0.9662 0.0
H435 H 0.39386 0.26945 0.95365 0.0
H436 H 0.36869 0.2101 0.87371 0.0
H437 H 0.37804 0.15597 0.85988 0.0
H438 H 0.38803 0.15403 0.89287 0.0
H439 H 0.37907 0.20828 0.90694 0.0
C440 C 0.75791 0.17824 0.97882 0.0
C441 C 0.74601 0.16226 0.96538 0.0
C442 C 0.7147 0.14642 0.98691 0.0
C443 C 0.72452 0.1463 0.96948 0.0
C444 C 0.72685 0.16209 1.00043 0.0
C445 C 0.74831 0.1778 0.99644 0.0
U446 U 0.80782 0.20834 0.94601 0.0
O447 O 0.82764 0.24327 0.93935 0.0
O448 O 0.84242 0.22586 0.9533 0.0
C449 C 0.84503 0.24471 0.94717 0.0
C450 C 0.77988 0.19616 0.97452 0.0
C451 C 0.85708 0.26352 0.95945 0.0
C452 C 0.8582 0.2885 0.98351 0.0
C453 C 0.84692 0.26854 0.97423 0.0
C454 C 0.88999 0.2979 0.96392 0.0
C455 C 0.87959 0.30353 0.97793 0.0
C456 C 0.87883 0.27801 0.95481 0.0
C457 C 0.80802 0.18532 0.89678 0.0
C458 C 0.83155 0.20556 0.86982 0.0
C459 C 0.80741 0.16661 0.86793 0.0
C460 C 0.80009 0.1661 0.88653 0.0
C461 C 0.82276 0.18641 0.85916 0.0
C462 C 0.82419 0.20503 0.88853 0.0
C463 C 0.79818 0.18445 0.91551 0.0
O464 O 0.79515 0.19085 0.97348 0.0
O465 O 0.78132 0.20983 0.9609 0.0
O466 O 0.79224 0.19914 0.91817 0.0
O467 O 0.80763 0.18143 0.93037 0.0
H468 H 0.7532 0.16241 0.95167 0.0
H469 H 0.71537 0.13435 0.95885 0.0
H470 H 0.71963 0.16229 0.01403 0.0
H471 H 0.7573 0.18995 1.00699 0.0
H472 H 0.84997 0.29262 0.99434 0.0
H473 H 0.8301 0.2575 0.97801 0.0
H474 H 0.90652 0.30928 0.95955 0.0
H475 H 0.88691 0.27437 0.94348 0.0
H476 H 0.84334 0.22106 0.86342 0.0
H477 H 0.80061 0.15153 0.8602 0.0
H478 H 0.78773 0.15074 0.89273 0.0
H479 H 0.83058 0.22005 0.89631 0.0
C480 C 0.58012 0.83298 0.04897 0.0
C481 C 0.58774 0.85028 0.06173 0.0
C482 C 0.57084 0.86715 0.0431 0.0
C483 C 0.5832 0.86728 0.05878 0.0
C484 C 0.56364 0.84985 0.03025 0.0
C485 C 0.56829 0.83303 0.03315 0.0
U486 U 0.59841 0.80056 0.08017 0.0
O487 O 0.58297 0.76531 0.08576 0.0
O488 O 0.61542 0.78278 0.07239 0.0
C489 C 0.5991 0.76388 0.07801 0.0
C490 C 0.58343 0.81426 0.05229 0.0
C491 C 0.59318 0.74534 0.06548 0.0
C492 C 0.57026 0.71982 0.04163 0.0
C493 C 0.57756 0.73949 0.05124 0.0
C494 C 0.59495 0.71253 0.05979 0.0
C495 C 0.5785 0.70582 0.04621 0.0
C496 C 0.60218 0.73205 0.06926 0.0
C497 C 0.62186 0.82315 0.12949 0.0
C498 C 0.62619 0.80334 0.15628 0.0
C499 C 0.64014 0.84227 0.15796 0.0
C500 C 0.63293 0.8425 0.13955 0.0
C501 C 0.63635 0.82263 0.16676 0.0
C502 C 0.61892 0.80359 0.13775 0.0
C503 C 0.61268 0.82391 0.11094 0.0
O504 O 0.60367 0.81869 0.05303 0.0
O505 O 0.57099 0.80038 0.06569 0.0
O506 O 0.59224 0.80933 0.10853 0.0
O507 O 0.62497 0.82693 0.09584 0.0
H508 H 0.59692 0.85047 0.07406 0.0
H509 H 0.58924 0.88041 0.06884 0.0
H510 H 0.55372 0.84883 0.01824 0.0
H511 H 0.5622 0.81975 0.02322 0.0
H512 H 0.5578 0.71529 0.03106 0.0
H513 H 0.57051 0.74968 0.04804 0.0
H514 H 0.60146 0.70214 0.064 0.0
H515 H 0.61419 0.73628 0.08025 0.0
H516 H 0.62299 0.78796 0.1627 0.0
H517 H 0.64826 0.85746 0.16551 0.0
H518 H 0.6355 0.85776 0.13335 0.0
H519 H 0.61049 0.78848 0.13012 0.0
C520 C 0.26161 0.83747 0.04053 0.0
C521 C 0.27386 0.85235 0.05454 0.0
C522 C 0.30541 0.86885 0.03303 0.0
C523 C 0.29556 0.86788 0.05084 0.0
C524 C 0.29273 0.85435 0.01886 0.0
C525 C 0.27107 0.8388 0.02261 0.0
U526 U 0.21184 0.806 0.07359 0.0
O527 O 0.17716 0.78733 0.06631 0.0
O528 O 0.19321 0.77094 0.07988 0.0
C529 C 0.17545 0.76876 0.07222 0.0
C530 C 0.23962 0.81942 0.04478 0.0
C531 C 0.16348 0.74954 0.06024 0.0
C532 C 0.16264 0.72082 0.04084 0.0
C533 C 0.17409 0.74183 0.04831 0.0
C534 C 0.12971 0.71592 0.05584 0.0
C535 C 0.14052 0.70726 0.04536 0.0
C536 C 0.14109 0.73681 0.06322 0.0
C537 C 0.21232 0.82771 0.12403 0.0
C538 C 0.18589 0.80831 0.14956 0.0
C539 C 0.21575 0.84464 0.15466 0.0
C540 C 0.22333 0.84539 0.13608 0.0
C541 C 0.19696 0.82612 0.16167 0.0
C542 C 0.19348 0.80913 0.13084 0.0
C543 C 0.22141 0.82898 0.10479 0.0
O544 O 0.23841 0.80544 0.05798 0.0
O545 O 0.22427 0.82457 0.04646 0.0
O546 O 0.21117 0.83179 0.09043 0.0
O547 O 0.22777 0.81476 0.10136 0.0
H548 H 0.26683 0.85152 0.0685 0.0
H549 H 0.30478 0.87856 0.06222 0.0
H550 H 0.29956 0.85485 1.00489 0.0
H551 H 0.26182 0.82744 0.01161 0.0
H552 H 0.1714 0.71471 0.03265 0.0
H553 H 0.19139 0.75148 0.04572 0.0
H554 H 0.11257 0.70613 0.05912 0.0
H555 H 0.13257 0.74249 0.07228 0.0
H556 H 0.17128 0.79389 0.1545 0.0
H557 H 0.22486 0.8585 0.16367 0.0
H558 H 0.23799 0.85979 0.13115 0.0
H559 H 0.18476 0.79527 0.12173 0.0
C560 C 0.1754 0.42266 0.04209 0.0
C561 C 0.16132 0.42034 0.05724 0.0
C562 C 0.14317 0.43431 0.03681 0.0
C563 C 0.14536 0.42623 0.05463 0.0
C564 C 0.15662 0.43557 0.0215 0.0
C565 C 0.17266 0.42989 0.02416 0.0
U566 U 0.20827 0.40539 0.0733 0.0
O567 O 0.22785 0.39005 0.06596 0.0
O568 O 0.24311 0.42247 0.07872 0.0
C569 C 0.24593 0.40705 0.07134 0.0
C570 C 0.19412 0.4195 0.04507 0.0
C571 C 0.26522 0.41438 0.05897 0.0
C572 C 0.2928 0.4411 0.0372 0.0
C573 C 0.27212 0.43186 0.04577 0.0
C574 C 0.29906 0.41453 0.05398 0.0
C575 C 0.30678 0.43305 0.04192 0.0
C576 C 0.27851 0.40532 0.06241 0.0
C577 C 0.18519 0.38373 0.12421 0.0
C578 C 0.20256 0.37495 0.14997 0.0
C579 C 0.1698 0.37659 0.15617 0.0
C580 C 0.16902 0.38152 0.13701 0.0
C581 C 0.1867 0.37362 0.16287 0.0
C582 C 0.20192 0.38019 0.13066 0.0
C583 C 0.18466 0.39127 0.1047 0.0
O584 O 0.20795 0.43237 0.05767 0.0
O585 O 0.19 0.39922 0.04666 0.0
O586 O 0.18305 0.37837 0.09073 0.0
O587 O 0.19833 0.41193 0.10098 0.0
H588 H 0.16318 0.41471 0.0712 0.0
H589 H 0.13508 0.42499 0.06662 0.0
H590 H 0.15544 0.44198 1.0077 0.0
H591 H 0.18346 0.43189 0.01237 0.0
H592 H 0.29839 0.45537 0.02796 0.0
H593 H 0.26203 0.43906 0.04289 0.0
H594 H 0.30942 0.40786 0.05771 0.0
H595 H 0.27349 0.39184 0.07251 0.0
H596 H 0.21568 0.37262 0.15493 0.0
H597 H 0.1573 0.37537 0.16588 0.0
H598 H 0.15602 0.38417 0.13226 0.0
H599 H 0.2146 0.38194 0.12091 0.0
C600 C 0.4256 0.92649 0.31732 0.0
C601 C 0.41378 0.92892 0.30242 0.0
C602 C 0.38173 0.91424 0.32309 0.0
C603 C 0.39192 0.92269 0.30527 0.0
C604 C 0.39395 0.91297 0.33819 0.0
C605 C 0.41567 0.91893 0.33528 0.0
U606 U 0.47621 0.94322 0.28604 0.0
O607 O 0.51062 0.95825 0.29403 0.0
O608 O 0.49409 0.92571 0.28152 0.0
C609 C 0.51196 0.9411 0.28896 0.0
C610 C 0.44746 0.92964 0.31406 0.0
C611 C 0.52387 0.93378 0.30147 0.0
C612 C 0.52489 0.9069 0.32308 0.0
C613 C 0.51336 0.91612 0.3145 0.0
C614 C 0.55757 0.93372 0.3066 0.0
C615 C 0.54692 0.91508 0.31853 0.0
C616 C 0.54617 0.94295 0.29819 0.0
C617 C 0.47757 0.96514 0.23474 0.0
C618 C 0.50232 0.96878 0.20893 0.0
C619 C 0.47566 0.98014 0.20388 0.0
C620 C 0.46817 0.97399 0.22266 0.0
C621 C 0.49267 0.97743 0.19672 0.0
C622 C 0.49488 0.96276 0.22786 0.0
C623 C 0.46809 0.95743 0.25397 0.0
O624 O 0.44865 0.91661 0.30154 0.0
O625 O 0.46337 0.94988 0.31229 0.0
O626 O 0.47831 0.97024 0.26819 0.0
O627 O 0.4611 0.93674 0.25791 0.0
H628 H 0.42122 0.93479 0.28845 0.0
H629 H 0.3828 0.92389 0.29345 0.0
H630 H 0.3864 0.90627 0.35198 0.0
H631 H 0.42449 0.91681 0.34689 0.0
H632 H 0.51628 0.89255 0.33223 0.0
H633 H 0.49612 0.9088 0.31726 0.0
H634 H 0.57458 0.94054 0.303 0.0
H635 H 0.55459 0.95655 0.28821 0.0
H636 H 0.51561 0.96673 0.20384 0.0
H637 H 0.46777 0.98656 0.19478 0.0
H638 H 0.45471 0.97581 0.22767 0.0
H639 H 0.50238 0.95597 0.23701 0.0
C640 C 0.09195 0.50526 0.3161 0.0
C641 C 0.08831 0.49023 0.30175 0.0
C642 C 0.10466 0.47343 0.32125 0.0
C643 C 0.09458 0.47441 0.30432 0.0
C644 C 0.10745 0.48809 0.33581 0.0
C645 C 0.10114 0.50379 0.33324 0.0
U646 U 0.07388 0.53835 0.28508 0.0
O647 O 0.05979 0.55889 0.29317 0.0
O648 O 0.09147 0.57345 0.27849 0.0
C649 C 0.07676 0.57684 0.28666 0.0
C650 C 0.08849 0.52394 0.31278 0.0
C651 C 0.08498 0.59647 0.29837 0.0
C652 C 0.11021 0.6219 0.32124 0.0
C653 C 0.10045 0.60138 0.31266 0.0
C654 C 0.08833 0.63211 0.302 0.0
C655 C 0.1045 0.63764 0.31569 0.0
C656 C 0.07875 0.61181 0.29347 0.0
C657 C 0.05079 0.51529 0.23517 0.0
C658 C 0.03902 0.53158 0.21044 0.0
C659 C 0.04434 0.50116 0.20305 0.0
C660 C 0.05006 0.5003 0.22193 0.0
C661 C 0.03902 0.51695 0.19702 0.0
C662 C 0.04505 0.53088 0.2294 0.0
C663 C 0.05867 0.51467 0.25446 0.0
O664 O 0.10092 0.53773 0.29936 0.0
O665 O 0.06831 0.51975 0.31214 0.0
O666 O 0.04636 0.51339 0.26907 0.0
O667 O 0.07935 0.52808 0.25713 0.0
H668 H 0.08123 0.49115 0.28837 0.0
H669 H 0.09182 0.46317 0.29294 0.0
H670 H 0.11539 0.48812 0.34894 0.0
H671 H 0.10421 0.51535 0.34442 0.0
H672 H 0.12249 0.62563 0.33186 0.0
H673 H 0.10548 0.5897 0.31666 0.0
H674 H 0.08379 0.64389 0.29713 0.0
H675 H 0.06704 0.60845 0.28236 0.0
H676 H 0.03505 0.54396 0.20612 0.0
H677 H 0.04425 0.48956 0.19308 0.0
H678 H 0.05436 0.48811 0.22612 0.0
H679 H 0.04561 0.54267 0.2394 0.0
C680 C 0.42469 0.51121 0.31108 0.0
C681 C 0.41139 0.49878 0.29619 0.0
C682 C 0.38205 0.47781 0.31898 0.0
C683 C 0.3901 0.48228 0.30011 0.0
C684 C 0.39567 0.48975 0.33386 0.0
C685 C 0.41678 0.5064 0.32991 0.0
U686 U 0.47496 0.54295 0.27914 0.0
O687 O 0.49459 0.57807 0.27317 0.0
O688 O 0.50943 0.56053 0.28684 0.0
C689 C 0.51197 0.57944 0.28097 0.0
C690 C 0.44651 0.52971 0.3073 0.0
C691 C 0.52404 0.59811 0.29338 0.0
C692 C 0.5254 0.62259 0.31806 0.0
C693 C 0.51409 0.60271 0.30863 0.0
C694 C 0.55674 0.6327 0.29763 0.0
C695 C 0.54656 0.63796 0.31212 0.0
C696 C 0.5456 0.6129 0.2884 0.0
C697 C 0.47619 0.52065 0.22962 0.0
C698 C 0.49854 0.54089 0.20204 0.0
C699 C 0.477 0.50152 0.2015 0.0
C700 C 0.46961 0.50119 0.22004 0.0
C701 C 0.49102 0.52139 0.19202 0.0
C702 C 0.49115 0.54053 0.22073 0.0
C703 C 0.46612 0.51966 0.2483 0.0
O704 O 0.46218 0.52496 0.3064 0.0
O705 O 0.44793 0.54359 0.29388 0.0
O706 O 0.46002 0.53421 0.25099 0.0
O707 O 0.47534 0.51647 0.26325 0.0
H708 H 0.41731 0.50214 0.28156 0.0
H709 H 0.37988 0.47314 0.28845 0.0
H710 H 0.38971 0.4867 0.34848 0.0
H711 H 0.42682 0.51584 0.34156 0.0
H712 H 0.51731 0.62641 0.32925 0.0
H713 H 0.49742 0.59143 0.31267 0.0
H714 H 0.5731 0.64431 0.29296 0.0
H715 H 0.55352 0.60958 0.27671 0.0
H716 H 0.50929 0.55646 0.19516 0.0
H717 H 0.47126 0.48617 0.19437 0.0
H718 H 0.45822 0.4857 0.22673 0.0
H719 H 0.49654 0.55576 0.22797 0.0
O720 O 0.47793 0.98311 0.01554 0.0
Mn721 Mn 0.51044 0.00832 0.01378 0.0
O722 O 0.46299 0.99557 0.03678 0.0
Mn723 Mn 0.48666 0.02292 0.0397 0.0
O724 O 0.54303 0.03364 0.01264 0.0
O725 O 0.51963 0.98503 0.00942 0.0
Mn726 Mn 0.53521 0.99559 0.98806 0.0
O727 O 0.5064 0.01306 0.98442 0.0
O728 O 0.55955 0.02157 0.99286 0.0
O729 O 0.51431 1.00387 0.04347 0.0
O730 O 0.5051 0.02561 0.05862 0.0
O731 O 0.53697 0.97168 0.99217 0.0
O732 O 0.51878 0.99473 0.96801 0.0
C733 C 0.49567 0.04644 0.01823 0.0
C734 C 0.46183 0.98076 0.02588 0.0
C735 C 0.56004 0.03573 1.00405 0.0
C736 C 0.52524 0.97004 1.00703 0.0
C737 C 0.50877 0.00523 0.96875 0.0
C738 C 0.51353 0.01354 0.05866 0.0
O739 O 0.50091 0.03111 0.01775 0.0
O740 O 0.48484 0.04665 0.03309 0.0
O741 O 0.03517 0.49925 0.01095 0.0
Mn742 Mn 0.00954 0.50532 0.01385 0.0
O743 O 0.03142 0.48404 0.03921 0.0
Mn744 Mn 1.00209 0.475 0.0397 0.0
O745 O 0.98406 0.5125 0.01565 0.0
O746 O 0.03235 0.53834 1.009 0.0
Mn747 Mn 0.02053 0.54034 0.98734 0.0
O748 O 1.00241 0.49615 0.98476 0.0
O749 O 0.99323 0.53651 0.99134 0.0
O750 O 0.01647 0.51463 0.04334 0.0
O751 O 0.99277 0.48547 0.05876 0.0
O752 O 0.04196 0.56734 0.98911 0.0
O753 O 0.02458 0.52563 0.96824 0.0
C754 C 0.9796 0.45107 0.0244 0.0
C755 C 0.04246 0.49234 0.02419 0.0
C756 C 0.9805 0.52537 1.00498 0.0
C757 C 0.04557 0.55906 1.00434 0.0
C758 C 0.01219 0.50541 0.96901 0.0
C759 C 1.00547 0.50553 0.05874 0.0
O760 O 0.98695 0.47147 0.01813 0.0
O761 O 0.98794 0.44679 0.03908 0.0
O762 O 0.5423 0.51415 1.00853 0.0
Mn763 Mn 0.50985 0.50646 1.00898 0.0
O764 O 0.55614 0.53906 0.98436 0.0
Mn765 Mn 0.53274 0.54358 0.98093 0.0
O766 O 0.47768 0.4997 1.00878 0.0
O767 O 0.50015 0.47354 0.01404 0.0
Mn768 Mn 0.48673 0.4714 0.03615 0.0
O769 O 0.51228 0.51564 0.03809 0.0
O770 O 0.46351 0.4762 0.03347 0.0
O771 O 0.50754 0.49783 0.9799 0.0
O772 O 0.51304 0.52696 0.96309 0.0
O773 O 0.48154 0.44438 0.03383 0.0
O774 O 0.50617 0.48644 0.05455 0.0
C775 C 0.52498 0.5591 1.00213 0.0
C776 C 0.55787 0.52685 0.99706 0.0
C777 C 0.46204 0.48812 0.02045 0.0
C778 C 0.49324 0.45284 0.01848 0.0
C779 C 0.51284 0.50654 0.0539 0.0
C780 C 0.50656 0.50682 0.96415 0.0
O781 O 0.51956 0.53856 1.00337 0.0
O782 O 0.53515 0.56953 0.98667 0.0
O783 O 0.14655 0.31539 0.3438 0.0
Mn784 Mn 0.17815 0.34096 0.34598 0.0
O785 O 0.13344 0.31833 0.3714 0.0
Mn786 Mn 0.15233 0.3481 0.37254 0.0
O787 O 0.21041 0.36618 0.3468 0.0
O788 O 0.18844 0.31923 0.34043 0.0
Mn789 Mn 0.20515 0.32926 0.31997 0.0
O790 O 0.17627 0.34795 0.31667 0.0
O791 O 0.22842 0.35548 0.32696 0.0
O792 O 0.18023 0.33411 0.37571 0.0
O793 O 0.17148 0.35553 0.39171 0.0
O794 O 0.20529 0.30433 0.32585 0.0
O795 O 0.18884 0.32954 0.30023 0.0
C796 C 0.15285 0.36844 0.35039 0.0
C797 C 0.13181 0.3077 0.35665 0.0
C798 C 0.22787 0.36888 0.33861 0.0
C799 C 0.19371 0.30401 0.34033 0.0
C800 C 0.17901 0.34031 0.30097 0.0
C801 C 0.18018 0.34369 0.3913 0.0
O802 O 0.16838 0.36356 0.35205 0.0
O803 O 0.13867 0.3619 0.36419 0.0
O804 O 0.70193 0.83251 0.3453 0.0
Mn805 Mn 0.67615 0.83848 0.34866 0.0
O806 O 0.69937 0.81662 0.37298 0.0
Mn807 Mn 0.66981 0.80593 0.37428 0.0
O808 O 0.65021 0.84496 0.35031 0.0
O809 O 0.6982 0.87095 0.34303 0.0
Mn810 Mn 0.6867 0.87635 0.3228 0.0
O811 O 0.669 0.83028 0.31952 0.0
O812 O 0.65989 0.87275 0.32925 0.0
O813 O 0.68217 0.84675 0.37852 0.0
O814 O 0.66128 0.81573 0.39418 0.0
O815 O 0.71034 0.90215 0.32639 0.0
O816 O 0.68741 0.86094 0.30245 0.0
C817 C 0.6491 0.78504 0.35448 0.0
C818 C 0.70983 0.82542 0.35785 0.0
C819 C 0.64648 0.85872 0.34119 0.0
C820 C 0.7129 0.89154 0.34045 0.0
C821 C 0.67607 0.84045 0.30342 0.0
C822 C 0.67209 0.83623 0.39401 0.0
O823 O 0.6537 0.8056 0.35431 0.0
O824 O 0.65706 0.77838 0.36786 0.0
O825 O 0.20837 0.84354 0.34604 0.0
Mn826 Mn 0.17716 0.83921 0.34403 0.0
O827 O 0.22292 0.86103 0.31907 0.0
Mn828 Mn 0.20522 0.87324 0.31829 0.0
O829 O 0.14523 0.83409 0.34365 0.0
O830 O 0.16638 0.80685 0.35014 0.0
Mn831 Mn 0.14777 0.80037 0.36932 0.0
O832 O 0.18006 0.8475 0.37326 0.0
O833 O 0.12478 0.80293 0.36042 0.0
O834 O 0.17393 0.83144 0.31395 0.0
O835 O 0.18673 0.86357 0.29878 0.0
O836 O 0.14792 0.77527 0.36588 0.0
O837 O 0.16145 0.81628 0.39008 0.0
C838 C 0.20346 0.89204 0.34033 0.0
C839 C 0.22351 0.8507 0.33357 0.0
C840 C 0.1268 0.81882 0.35012 0.0
C841 C 0.16086 0.78625 0.35179 0.0
C842 C 0.17405 0.83668 0.38918 0.0
C843 C 0.17577 0.84298 0.29867 0.0
O844 O 0.18802 0.87188 0.33787 0.0
O845 O 0.21913 0.89989 0.32785 0.0
O846 O 0.812 0.65297 0.68124 0.0
Mn847 Mn 0.84469 0.67587 0.68088 0.0
O848 O 0.80307 0.65965 0.70966 0.0
Mn849 Mn 0.8246 0.689 0.70986 0.0
O850 O 0.87799 0.69823 0.67911 0.0
O851 O 0.85126 0.65102 0.67538 0.0
Mn852 Mn 0.86115 0.65884 0.65182 0.0
O853 O 0.84218 0.68394 0.65207 0.0
O854 O 0.8864 0.68551 0.65309 0.0
O855 O 0.84799 0.66917 0.71028 0.0
O856 O 0.84612 0.69483 0.72658 0.0
O857 O 0.86299 0.63474 0.65514 0.0
O858 O 0.83979 0.65649 0.63615 0.0
C859 C 0.82294 0.70581 0.68644 0.0
C860 C 0.79863 0.64774 0.69516 0.0
C861 C 0.89168 0.69945 0.66628 0.0
C862 C 0.85543 0.63526 0.67187 0.0
C863 C 0.83741 0.6729 0.63681 0.0
C864 C 0.85143 0.68023 0.72567 0.0
O865 O 0.8381 0.70038 0.68748 0.0
O866 O 0.81305 0.70523 0.70225 0.0
O867 O 0.36806 0.1644 0.68093 0.0
Mn868 Mn 0.34307 0.17188 0.68167 0.0
O869 O 0.35976 0.14649 0.70852 0.0
Mn870 Mn 0.33113 0.1398 0.70783 0.0
O871 O 0.31823 0.17995 0.68199 0.0
O872 O 0.36714 0.20482 0.67755 0.0
Mn873 Mn 0.35639 0.20577 0.65485 0.0
O874 O 0.33642 0.16309 0.65247 0.0
O875 O 0.32878 0.20213 0.65641 0.0
O876 O 0.34886 0.18051 0.71124 0.0
O877 O 0.32245 0.15237 0.72567 0.0
O878 O 0.37734 0.23288 0.65618 0.0
O879 O 0.36171 0.19075 0.63667 0.0
C880 C 0.30893 0.11781 0.69099 0.0
C881 C 0.37282 0.15548 0.69463 0.0
C882 C 0.315 0.19162 0.66963 0.0
C883 C 0.38042 0.22532 0.67212 0.0
C884 C 0.34699 0.17126 0.63684 0.0
C885 C 0.33675 0.17197 0.72617 0.0
O886 O 0.31944 0.13847 0.68495 0.0
O887 O 0.31399 0.11176 0.70679 0.0
O888 O 0.87654 0.17937 0.67968 0.0
Mn889 Mn 0.84497 0.1739 0.67717 0.0
O890 O 0.88643 0.19262 0.65091 0.0
Mn891 Mn 0.86777 0.20376 0.65218 0.0
O892 O 0.81268 0.16731 0.67615 0.0
O893 O 0.83484 0.1409 0.68208 0.0
Mn894 Mn 0.82069 0.13827 0.7039 0.0
O895 O 0.84684 0.18273 0.70613 0.0
O896 O 0.79694 0.14163 0.69925 0.0
O897 O 0.84191 0.16512 0.6472 0.0
O898 O 0.84862 0.19564 0.63325 0.0
O899 O 0.81657 0.11158 0.7017 0.0
O900 O 0.83853 0.1533 0.72331 0.0
C901 C 0.87046 0.22803 0.66823 0.0
C902 C 0.88994 0.18499 0.66586 0.0
C903 C 0.79604 0.15396 0.68629 0.0
C904 C 0.82791 0.12015 0.68621 0.0
C905 C 0.84657 0.17359 0.72211 0.0
C906 C 0.84056 0.17545 0.63235 0.0
O907 O 0.85579 0.20778 0.67345 0.0
O908 O 0.88392 0.23173 0.65427 0.0
H909 H 0.33513 0.86273 0.01224 0.0
H910 H 0.4349 0.96316 0.05609 0.0
H911 H 0.32971 0.91055 0.04594 0.0
H912 H 0.44043 0.95206 0.99647 0.0
H913 H 0.39718 0.93472 0.05618 0.0
H914 H 0.37429 0.8879 1.00878 0.0
C915 C 0.34201 0.87855 0.01871 0.0
C916 C 0.32896 0.88437 0.02959 0.0
C917 C 0.40668 0.93834 0.04311 0.0
C918 C 0.3737 0.91275 0.02604 0.0
C919 C 0.42823 0.9545 0.04302 0.0
C920 C 0.44071 0.96032 0.02613 0.0
C921 C 0.39735 0.92758 0.02627 0.0
C922 C 0.43129 0.94815 0.00976 0.0
C923 C 0.36435 0.8928 0.01675 0.0
C924 C 0.33901 0.90499 0.03786 0.0
N925 N 0.40993 0.93235 0.01014 0.0
N926 N 0.36074 0.91825 0.03611 0.0
H927 H 0.13977 0.46346 0.05943 0.0
H928 H 0.04965 0.4701 0.99649 0.0
H929 H 0.11381 0.42637 1.00855 0.0
H930 H 0.07744 0.50765 0.04674 0.0
H931 H 0.07537 0.45649 0.99851 0.0
H932 H 0.11824 0.48122 0.05383 0.0
C933 C 0.12927 0.45885 0.04721 0.0
C934 C 0.12848 0.4434 0.03447 0.0
C935 C 0.07623 0.46814 1.00881 0.0
C936 C 0.104 0.46387 0.02776 0.0
C937 C 0.06181 0.47616 1.00747 0.0
C938 C 0.06169 0.4901 0.0214 0.0
C939 C 0.09054 0.47421 0.02419 0.0
C940 C 0.0772 0.49698 0.0357 0.0
C941 C 0.11716 0.46916 0.04388 0.0
C942 C 0.11492 0.4383 0.01866 0.0
N943 N 0.0909 0.48883 0.03682 0.0
N944 N 0.10314 0.44847 0.01576 0.0
H945 H 0.59912 0.68325 0.03601 0.0
H946 H 0.49673 0.57387 1.00724 0.0
H947 H 0.53555 0.67684 0.03941 0.0
H948 H 0.55402 0.5766 0.03007 0.0
H949 H 0.50887 0.61068 0.01874 0.0
H950 H 0.58238 0.64425 0.03062 0.0
C951 C 0.58163 0.67368 0.03557 0.0
C952 C 0.56874 0.68333 0.03872 0.0
C953 C 0.51843 0.60294 0.02183 0.0
C954 C 0.54944 0.63854 0.03242 0.0
C955 C 0.51124 0.58173 0.01569 0.0
C956 C 0.52434 0.57217 0.01784 0.0
C957 C 0.53905 0.61468 0.02977 0.0
C958 C 0.54333 0.58331 0.02834 0.0
C959 C 0.57208 0.65137 0.03261 0.0
C960 C 0.54617 0.67016 0.0372 0.0
N961 N 0.55048 0.60426 0.0334 0.0
N962 N 0.53721 0.64839 0.03422 0.0
H963 H 0.88629 0.34026 0.95929 0.0
H964 H 0.94938 0.41743 0.04498 0.0
H965 H 0.89852 0.31738 0.01253 0.0
H966 H 0.96634 0.44081 0.98671 0.0
H967 H 0.9228 0.38193 0.03379 0.0
H968 H 0.9081 0.37808 0.96988 0.0
C969 C 0.89346 0.3433 0.97328 0.0
C970 C 0.89066 0.32589 0.98515 0.0
C971 C 0.93206 0.39484 0.0234 0.0
C972 C 0.91551 0.3687 0.99717 0.0
C973 C 0.94718 0.41521 0.02974 0.0
C974 C 0.96027 0.43208 0.01675 0.0
C975 C 0.92961 0.39114 1.00384 0.0
C976 C 0.95652 0.42827 0.99719 0.0
C977 C 0.90593 0.36476 0.97922 0.0
C978 C 0.90017 0.33042 1.00311 0.0
N979 N 0.94155 0.408 0.99126 0.0
N980 N 0.91223 0.35145 1.00858 0.0
H981 H 0.6921 0.57423 0.02406 0.0
H982 H 0.58057 0.52353 0.96777 0.0
H983 H 0.68634 0.56714 0.96298 0.0
H984 H 0.58393 0.53473 0.02819 0.0
H985 H 0.61901 0.53504 0.96705 0.0
H986 H 0.6526 0.55698 0.02689 0.0
C987 C 0.68259 0.56909 0.01124 0.0
C988 C 0.69269 0.57221 0.99323 0.0
C989 C 0.61141 0.53476 0.98057 0.0
C990 C 0.64744 0.5524 0.99643 0.0
C991 C 0.58941 0.52797 0.981 0.0
C992 C 0.57918 0.52821 0.99805 0.0
C993 C 0.62346 0.54222 0.99728 0.0
C994 C 0.59128 0.53417 0.01479 0.0
C995 C 0.66003 0.55925 0.0129 0.0
C996 C 0.67946 0.56544 0.97714 0.0
N997 N 0.61296 0.54128 0.01396 0.0
N998 N 0.65762 0.55586 0.97915 0.0
H999 H 0.47565 0.14922 1.00465 0.0
H1000 H 0.47069 0.03609 0.98693 0.0
H1001 H 0.42452 0.09744 0.97326 0.0
H1002 H 0.52246 0.08984 0.01555 0.0
H1003 H 0.45723 0.06023 0.97601 0.0
H1004 H 0.49496 0.12888 1.00538 0.0
C1005 C 0.46835 0.13346 0.99802 0.0
C1006 C 0.44828 0.12502 0.989 0.0
C1007 C 0.47199 0.06698 0.9841 0.0
C1008 C 0.4708 0.1017 0.98933 0.0
C1009 C 0.48005 0.05332 0.98988 0.0
C1010 C 0.49762 0.06097 1.00228 0.0
C1011 C 0.48176 0.08841 0.99074 0.0
C1012 C 0.50887 0.08331 1.00598 0.0
C1013 C 0.47959 0.12195 0.9982 0.0
C1014 C 0.43999 0.10468 0.98028 0.0
N1015 N 0.50039 0.0961 1.00077 0.0
N1016 N 0.45121 0.09365 0.98077 0.0
H1017 H 0.68287 0.15602 0.99457 0.0
H1018 H 0.59375 0.0321 0.01609 0.0
H1019 H 0.69425 0.10188 0.98846 0.0
H1020 H 0.5759 0.08002 0.9995 0.0
H1021 H 0.63187 0.05991 0.0136 0.0
H1022 H 0.64466 0.13033 1.00235 0.0
C1023 C 0.67725 0.13869 0.99491 0.0
C1024 C 0.69157 0.13095 0.99088 0.0
C1025 C 0.61967 0.06449 0.01079 0.0
C1026 C 0.64827 0.10169 1.00011 0.0
C1027 C 0.59794 0.04872 0.01243 0.0
C1028 C 0.58177 0.05386 1.00797 0.0
C1029 C 0.62535 0.08563 1.00461 0.0
C1030 C 0.58795 0.07552 1.0032 0.0
C1031 C 0.65553 0.12411 0.99934 0.0
C1032 C 0.68362 0.10842 0.9914 0.0
N1033 N 0.60938 0.09068 1.00143 0.0
N1034 N 0.6625 0.09456 0.99607 0.0
H1035 H 0.92017 0.60146 0.99262 0.0
H1036 H 0.93615 0.49865 0.01284 0.0
H1037 H 0.86554 0.53661 0.99882 0.0
H1038 H 0.98677 0.56569 1.00702 0.0
H1039 H 0.90914 0.51119 0.01325 0.0
H1040 H 0.94388 0.58803 1.00337 0.0
C1041 C 0.91315 0.58437 0.99662 0.0
C1042 C 0.89095 0.5701 0.99469 0.0
C1043 C 0.92621 0.52308 0.0122 0.0
C1044 C 0.91816 0.55421 1.00667 0.0
C1045 C 0.94157 0.51593 0.01211 0.0
C1046 C 0.96366 0.53116 0.00966 0.0
C1047 C 0.93323 0.5455 0.00985 0.0
C1048 C 0.96988 0.55335 1.00871 0.0
C1049 C 0.92669 0.57661 1.00271 0.0
C1050 C 0.88264 0.5481 1.0001 0.0
N1051 N 0.95483 0.55974 1.00858 0.0
N1052 N 0.89632 0.54069 1.00554 0.0
H1053 H 0.45747 0.32302 0.01384 0.0
H1054 H 0.48022 0.44023 0.98191 0.0
H1055 H 0.44633 0.33746 0.95637 0.0
H1056 H 0.51147 0.42933 0.02984 0.0
H1057 H 0.47 0.40366 0.97067 0.0
H1058 H 0.47811 0.3623 0.01968 0.0
C1059 C 0.4595 0.33442 1.00243 0.0
C1060 C 0.44987 0.3269 0.98468 0.0
C1061 C 0.47971 0.40954 0.98333 0.0
C1062 C 0.47353 0.37184 0.99118 0.0
C1063 C 0.48593 0.4306 0.98949 0.0
C1064 C 0.4968 0.43779 1.00675 0.0
C1065 C 0.48407 0.39561 0.99476 0.0
C1066 C 0.50321 0.42437 0.01637 0.0
C1067 C 0.47133 0.35684 1.00572 0.0
C1068 C 0.45298 0.34247 0.97043 0.0
N1069 N 0.49626 0.40373 0.01057 0.0
N1070 N 0.46434 0.36412 0.97402 0.0
H1071 H 0.11379 0.67339 0.06906 0.0
H1072 H 0.08652 0.58226 0.99148 0.0
H1073 H 0.14175 0.68701 0.01226 0.0
H1074 H 0.04634 0.57214 0.04108 0.0
H1075 H 0.11282 0.61816 1.0029 0.0
H1076 H 0.09429 0.6346 0.06222 0.0
C1077 C 0.11571 0.66824 0.05506 0.0
C1078 C 0.12913 0.68359 0.04108 0.0
C1079 C 0.09861 0.60788 0.01162 0.0
C1080 C 0.10711 0.63894 0.03334 0.0
C1081 C 0.0838 0.58719 1.00532 0.0
C1082 C 0.06435 0.57415 0.01547 0.0
C1083 C 0.09399 0.61561 0.02828 0.0
C1084 C 0.0613 0.58153 0.03301 0.0
C1085 C 0.1047 0.64604 0.05125 0.0
C1086 C 0.13155 0.67581 0.02345 0.0
N1087 N 0.07582 0.60197 0.03874 0.0
N1088 N 0.12051 0.65403 0.02003 0.0
H1089 H 0.3399 0.44606 0.06622 0.0
H1090 H 0.43384 0.47891 0.99058 0.0
H1091 H 0.3269 0.44847 1.00651 0.0
H1092 H 0.44341 0.49717 0.04955 0.0
H1093 H 0.3955 0.4694 0.99405 0.0
H1094 H 0.37836 0.46491 0.05897 0.0
C1095 C 0.34522 0.45061 0.0515 0.0
C1096 C 0.3302 0.44545 0.03692 0.0
C1097 C 0.4062 0.47606 1.00604 0.0
C1098 C 0.37461 0.4674 0.02839 0.0
C1099 C 0.42804 0.48162 1.00402 0.0
C1100 C 0.44158 0.48859 0.0199 0.0
C1101 C 0.39815 0.4774 0.02406 0.0
C1102 C 0.43337 0.49164 0.03705 0.0
C1103 C 0.36726 0.46159 0.04736 0.0
C1104 C 0.33804 0.45209 0.01813 0.0
N1105 N 0.41219 0.48575 0.03874 0.0
N1106 N 0.35981 0.4625 0.01432 0.0
H1107 H 0.56646 0.88504 0.00953 0.0
H1108 H 0.5408 0.97323 0.04304 0.0
H1109 H 0.56055 0.88835 0.07061 0.0
H1110 H 0.5032 0.92752 1.00003 0.0
H1111 H 0.55235 0.94751 0.05466 0.0
H1112 H 0.55023 0.90815 1.00525 0.0
C1113 C 0.56175 0.89055 0.02207 0.0
C1114 C 0.56431 0.88409 0.04048 0.0
C1115 C 0.54091 0.94286 0.04315 0.0
C1116 C 0.5462 0.91108 0.03557 0.0
C1117 C 0.53391 0.95726 0.03682 0.0
C1118 C 0.52095 0.95237 0.02062 0.0
C1119 C 0.53516 0.92392 0.03285 0.0
C1120 C 0.51302 0.93175 0.01269 0.0
C1121 C 0.55252 0.90376 0.01958 0.0
C1122 C 0.5588 0.89275 0.05615 0.0
N1123 N 0.52088 0.91863 0.01839 0.0
N1124 N 0.54994 0.90581 0.05335 0.0
H1125 H 0.9951 0.24189 0.34385 0.0
H1126 H 0.11303 0.27009 0.37755 0.0
H1127 H 1.00663 0.20368 0.38571 0.0
H1128 H 0.10233 0.30269 0.32998 0.0
H1129 H 0.07427 0.2436 0.37889 0.0
H1130 H 0.03434 0.26393 0.33788 0.0
C1131 C 1.00598 0.23826 0.35179 0.0
C1132 C 0.99783 0.22121 0.36541 0.0
C1133 C 0.08038 0.25625 0.36788 0.0
C1134 C 0.04246 0.24573 0.35836 0.0
C1135 C 0.10252 0.27116 0.36699 0.0
C1136 C 0.11075 0.2883 0.3535 0.0
C1137 C 0.06632 0.25897 0.35557 0.0
C1138 C 0.09654 0.2894 0.34036 0.0
C1139 C 0.0283 0.25065 0.34829 0.0
C1140 C 0.01243 0.21695 0.37531 0.0
N1141 N 0.0749 0.27515 0.34193 0.0
N1142 N 0.03404 0.22911 0.37157 0.0
H1143 H 0.82255 0.81168 0.37341 0.0
H1144 H 0.7078 0.79223 0.33804 0.0
H1145 H 0.76912 0.74806 0.36168 0.0
H1146 H 0.75146 0.84837 0.3699 0.0
H1147 H 0.73337 0.77849 0.34028 0.0
H1148 H 0.79929 0.82754 0.36719 0.0
C1149 C 0.80584 0.80108 0.3696 0.0
C1150 C 0.79763 0.77859 0.36809 0.0
C1151 C 0.73761 0.79407 0.34638 0.0
C1152 C 0.77115 0.7966 0.36051 0.0
C1153 C 0.72325 0.8021 0.34478 0.0
C1154 C 0.72787 0.82165 0.35344 0.0
C1155 C 0.75674 0.80579 0.35664 0.0
C1156 C 0.74762 0.83346 0.3627 0.0
C1157 C 0.79263 0.81012 0.366 0.0
C1158 C 0.77593 0.76548 0.36309 0.0
N1159 N 0.76136 0.82531 0.36411 0.0
N1160 N 0.76343 0.77471 0.35933 0.0
H1161 H 0.24496 0.02419 0.34354 0.0
H1162 H 0.20246 0.90397 0.37748 0.0
H1163 H 0.21323 1.00263 0.3985 0.0
H1164 H 0.19583 0.91918 0.31901 0.0
H1165 H 0.20732 0.93973 0.38657 0.0
H1166 H 0.2295 0.98581 0.33449 0.0
C1167 C 0.23434 0.01134 0.35348 0.0
C1168 C 0.23018 0.01636 0.37171 0.0
C1169 C 0.20426 0.93492 0.37183 0.0
C1170 C 0.21287 0.97281 0.36173 0.0
C1171 C 0.2012 0.91446 0.36673 0.0
C1172 C 0.19859 0.90865 0.34753 0.0
C1173 C 0.20544 0.94971 0.35751 0.0
C1174 C 0.19765 0.92307 0.33401 0.0
C1175 C 0.22557 0.98953 0.34838 0.0
C1176 C 0.21673 0.99924 0.38431 0.0
N1177 N 0.20166 0.94314 0.33914 0.0
N1178 N 0.20874 0.97818 0.37919 0.0
H1179 H 0.56331 0.65179 0.34754 0.0
H1180 H 0.63752 0.77452 0.31693 0.0
H1181 H 0.55519 0.67474 0.2926 0.0
H1182 H 0.6153 0.75504 0.37506 0.0
H1183 H 0.60871 0.73856 0.30654 0.0
H1184 H 0.58505 0.68985 0.35744 0.0
C1185 C 0.56577 0.66488 0.33776 0.0
C1186 C 0.55748 0.66035 0.31933 0.0
C1187 C 0.60993 0.74246 0.32152 0.0
C1188 C 0.58229 0.70358 0.33029 0.0
C1189 C 0.62615 0.763 0.32737 0.0
C1190 C 0.6287 0.76764 0.34683 0.0
C1191 C 0.5968 0.72656 0.33534 0.0
C1192 C 0.61383 0.75201 0.3599 0.0
C1193 C 0.57814 0.68652 0.34334 0.0
C1194 C 0.56144 0.67778 0.30694 0.0
N1195 N 0.59887 0.73202 0.35399 0.0
N1196 N 0.57374 0.69869 0.31257 0.0
H1197 H 0.35948 0.92354 0.34998 0.0
H1198 H 0.24354 0.83353 0.31289 0.0
H1199 H 0.35026 0.88235 0.3022 0.0
H1200 H 0.2516 0.87345 0.3613 0.0
H1201 H 0.28271 0.84808 0.31141 0.0
H1202 H 0.32012 0.90429 0.35564 0.0
C1203 C 0.3491 0.91047 0.34067 0.0
C1204 C 0.35801 0.90453 0.32557 0.0
C1205 C 0.27595 0.85336 0.32264 0.0
C1206 C 0.3132 0.88203 0.33224 0.0
C1207 C 0.25356 0.84473 0.32368 0.0
C1208 C 0.24443 0.85212 0.33738 0.0
C1209 C 0.2893 0.86989 0.33512 0.0
C1210 C 0.25807 0.86706 0.35076 0.0
C1211 C 0.32671 0.8994 0.34396 0.0
C1212 C 0.34396 0.88757 0.31385 0.0
N1213 N 0.27991 0.8758 0.34909 0.0
N1214 N 0.32229 0.87686 0.31749 0.0
H1215 H 0.10493 0.45124 0.35367 0.0
H1216 H 0.14478 0.37534 0.3133 0.0
H1217 H 0.1241 0.46044 0.29414 0.0
H1218 H 0.16617 0.40653 0.36735 0.0
H1219 H 0.13486 0.40311 0.30406 0.0
H1220 H 0.12242 0.42928 0.35804 0.0
C1221 C 0.11287 0.44876 0.34151 0.0
C1222 C 0.11328 0.45808 0.32356 0.0
C1223 C 0.14232 0.40415 0.3177 0.0
C1224 C 0.13305 0.43252 0.32848 0.0
C1225 C 0.14831 0.38858 0.32283 0.0
C1226 C 0.15645 0.3888 0.34103 0.0
C1227 C 0.14377 0.41929 0.33123 0.0
C1228 C 0.16019 0.40598 0.35308 0.0
C1229 C 0.12286 0.43622 0.34404 0.0
C1230 C 0.12323 0.45352 0.30822 0.0
N1231 N 0.15319 0.42008 0.34823 0.0
N1232 N 0.13269 0.44099 0.311 0.0
H1233 H 0.36592 0.44278 0.34367 0.0
H1234 H 0.24238 0.41038 0.32585 0.0
H1235 H 0.34632 0.47694 0.30424 0.0
H1236 H 0.26116 0.36995 0.35771 0.0
H1237 H 0.28065 0.43839 0.32243 0.0
H1238 H 0.32776 0.41814 0.35225 0.0
C1239 C 0.35351 0.44501 0.33683 0.0
C1240 C 0.35912 0.46178 0.32321 0.0
C1241 C 0.27639 0.42362 0.33056 0.0
C1242 C 0.31566 0.43417 0.33323 0.0
C1243 C 0.25456 0.40786 0.33279 0.0
C1244 C 0.24879 0.38813 0.34228 0.0
C1245 C 0.2924 0.41942 0.33781 0.0
C1246 C 0.2651 0.38519 0.35051 0.0
C1247 C 0.3318 0.43106 0.34177 0.0
C1248 C 0.34256 0.46404 0.31467 0.0
N1249 N 0.28622 0.40058 0.34794 0.0
N1250 N 0.32156 0.45045 0.31989 0.0
H1251 H 0.56907 0.90307 0.2948 0.0
H1252 H 0.62808 0.86941 0.37099 0.0
H1253 H 0.55038 0.89902 0.35401 0.0
H1254 H 0.61806 0.84771 0.313 0.0
H1255 H 0.59975 0.87974 0.3672 0.0
H1256 H 0.58869 0.88404 0.3026 0.0
C1257 C 0.56914 0.89817 0.30952 0.0
C1258 C 0.55825 0.90284 0.3238 0.0
C1259 C 0.60334 0.87209 0.35554 0.0
C1260 C 0.58072 0.8807 0.33291 0.0
C1261 C 0.61929 0.86599 0.35778 0.0
C1262 C 0.62524 0.8576 0.3423 0.0
C1263 C 0.59385 0.87017 0.3376 0.0
C1264 C 0.61381 0.854 0.32531 0.0
C1265 C 0.58018 0.88708 0.31395 0.0
C1266 C 0.55863 0.89576 0.34259 0.0
N1267 N 0.59901 0.86065 0.32331 0.0
N1268 N 0.56997 0.88526 0.3467 0.0
H1269 H 0.14846 0.66465 0.31963 0.0
H1270 H 0.13413 0.76904 0.32304 0.0
H1271 H 0.08729 0.66279 0.3271 0.0
H1272 H 0.18989 0.7714 0.34898 0.0
H1273 H 0.1208 0.73103 0.31543 0.0
H1274 H 0.16723 0.7043 0.32449 0.0
C1275 C 0.13899 0.67246 0.32265 0.0
C1276 C 0.11623 0.66043 0.32261 0.0
C1277 C 0.13641 0.74008 0.32209 0.0
C1278 C 0.13753 0.70562 0.32741 0.0
C1279 C 0.1444 0.76202 0.32588 0.0
C1280 C 0.16303 0.77331 0.33678 0.0
C1281 C 0.1478 0.72967 0.32829 0.0
C1282 C 0.17538 0.76317 0.3406 0.0
C1283 C 0.14971 0.69507 0.32521 0.0
C1284 C 0.10481 0.67146 0.32651 0.0
N1285 N 0.16738 0.7417 0.33664 0.0
N1286 N 0.11555 0.69341 0.32846 0.0
H1287 H 0.82055 0.01604 0.35629 0.0
H1288 H 0.71083 0.90346 0.37664 0.0
H1289 H 0.76468 0.00864 0.38758 0.0
H1290 H 0.75547 0.91099 0.33151 0.0
H1291 H 0.73646 0.94015 0.38722 0.0
H1292 H 0.80084 0.97668 0.35042 0.0
C1293 C 0.8042 0.00629 0.36188 0.0
C1294 C 0.7946 0.01577 0.37299 0.0
C1295 C 0.74096 0.93355 0.37531 0.0
C1296 C 0.77241 0.97062 0.36701 0.0
C1297 C 0.72658 0.91234 0.36965 0.0
C1298 C 0.73101 0.9043 0.35311 0.0
C1299 C 0.75985 0.94666 0.36436 0.0
C1300 C 0.75151 0.91669 0.34435 0.0
C1301 C 0.7931 0.98376 0.35876 0.0
C1302 C 0.77324 1.00214 0.37966 0.0
N1303 N 0.76497 0.93753 0.34971 0.0
N1304 N 0.76306 0.98036 0.37679 0.0
H1305 H 0.99028 0.77163 0.33905 0.0
H1306 H 0.11231 0.8364 0.37578 0.0
H1307 H 0.00935 0.79254 0.39658 0.0
H1308 H 0.09582 0.80286 0.32251 0.0
H1309 H 0.07495 0.82838 0.37975 0.0
H1310 H 0.0289 0.78998 0.32932 0.0
C1311 C 1.00259 0.78035 0.34952 0.0
C1312 C 0.99674 0.78039 0.36867 0.0
C1313 C 0.07952 0.82329 0.36687 0.0
C1314 C 0.04057 0.80144 0.35773 0.0
C1315 C 0.10095 0.82819 0.36448 0.0
C1316 C 0.10717 0.82069 0.34862 0.0
C1317 C 0.06405 0.81054 0.35339 0.0
C1318 C 0.09166 0.80929 0.33475 0.0
C1319 C 0.02454 0.79073 0.34401 0.0
C1320 C 0.01321 0.79188 0.38172 0.0
N1321 N 0.07068 0.80433 0.33753 0.0
N1322 N 0.03429 0.80182 0.37604 0.0
H1323 H 0.19618 0.19252 0.38265 0.0
H1324 H 0.2248 0.31589 0.36599 0.0
H1325 H 0.26016 0.24473 0.36803 0.0
H1326 H 0.16365 0.26209 0.34956 0.0
H1327 H 0.23574 0.29014 0.37792 0.0
H1328 H 0.18238 0.21824 0.38004 0.0
C1329 C 0.20726 0.20945 0.37891 0.0
C1330 C 0.22923 0.21668 0.37551 0.0
C1331 C 0.21957 0.28396 0.37244 0.0
C1332 C 0.21378 0.246 0.37288 0.0
C1333 C 0.21306 0.29861 0.36614 0.0
C1334 C 0.19322 0.29104 0.35693 0.0
C1335 C 0.20578 0.26158 0.37009 0.0
C1336 C 0.17895 0.26853 0.3568 0.0
C1337 C 0.19943 0.22404 0.37749 0.0
C1338 C 0.2431 0.23869 0.37081 0.0
N1339 N 0.18563 0.2545 0.36299 0.0
N1340 N 0.23513 0.25266 0.36962 0.0
H1341 H 0.67048 0.55054 0.72985 0.0
H1342 H 0.77262 0.63106 0.66395 0.0
H1343 H 0.66488 0.5611 0.66984 0.0
H1344 H 0.77487 0.62098 0.72451 0.0
H1345 H 0.73407 0.60294 0.66453 0.0
H1346 H 0.7094 0.57445 0.7271 0.0
C1347 C 0.67739 0.55807 0.7161 0.0
C1348 C 0.66425 0.55392 0.70011 0.0
C1349 C 0.74311 0.60671 0.67762 0.0
C1350 C 0.70923 0.58124 0.69675 0.0
C1351 C 0.76511 0.62259 0.67727 0.0
C1352 C 0.77681 0.62842 0.69427 0.0
C1353 C 0.73294 0.59657 0.69508 0.0
C1354 C 0.76633 0.61715 0.71115 0.0
C1355 C 0.69973 0.5716 0.71448 0.0
C1356 C 0.67436 0.56375 0.68255 0.0
N1357 N 0.74504 0.60189 0.71113 0.0
N1358 N 0.69624 0.57703 0.68134 0.0
H1359 H 0.43851 0.08692 0.7174 0.0
H1360 H 0.39967 0.15924 0.66402 0.0
H1361 H 0.48532 0.13833 0.6802 0.0
H1362 H 0.39049 0.1461 0.72475 0.0
H1363 H 0.42721 0.1475 0.66431 0.0
H1364 H 0.41483 0.10262 0.71432 0.0
C1365 C 0.44388 0.10148 0.7086 0.0
C1366 C 0.46417 0.11141 0.69927 0.0
C1367 C 0.41923 0.14753 0.67752 0.0
C1368 C 0.43675 0.12908 0.69532 0.0
C1369 C 0.40368 0.15431 0.67739 0.0
C1370 C 0.39245 0.15322 0.69432 0.0
C1371 C 0.42305 0.13934 0.69458 0.0
C1372 C 0.39831 0.14673 0.71127 0.0
C1373 C 0.43029 0.11035 0.70678 0.0
C1374 C 0.46979 0.12994 0.68754 0.0
N1375 N 0.41284 0.13965 0.71089 0.0
N1376 N 0.45615 0.13821 0.68589 0.0
H1377 H 0.87071 0.33823 0.72497 0.0
H1378 H 0.88057 0.26382 0.6471 0.0
H1379 H 0.92367 0.36074 0.68448 0.0
H1380 H 0.85909 0.237 0.70403 0.0
H1381 H 0.88641 0.29867 0.65753 0.0
H1382 H 0.85716 0.30057 0.71424 0.0
C1383 C 0.87918 0.3352 0.71358 0.0
C1384 C 0.89815 0.35239 0.7054 0.0
C1385 C 0.88022 0.28516 0.66774 0.0
C1386 C 0.88301 0.30993 0.69334 0.0
C1387 C 0.87686 0.26517 0.66186 0.0
C1388 C 0.8698 0.2475 0.67484 0.0
C1389 C 0.87627 0.28777 0.68675 0.0
C1390 C 0.86471 0.25024 0.69361 0.0
C1391 C 0.87162 0.31383 0.70768 0.0
C1392 C 0.90886 0.34786 0.69094 0.0
N1393 N 0.86827 0.27024 0.69913 0.0
N1394 N 0.90108 0.32704 0.6853 0.0
H1395 H 0.23095 0.00666 0.62097 0.0
H1396 H 0.2714 0.08877 0.70722 0.0
H1397 H 0.22227 0.98641 0.6802 0.0
H1398 H 0.30521 0.10636 0.65293 0.0
H1399 H 0.24569 0.05328 0.695 0.0
H1400 H 0.25108 0.04487 0.6305 0.0
C1401 C 0.23337 0.01033 0.636 0.0
C1402 C 0.22523 0.99347 0.64985 0.0
C1403 C 0.2584 0.06502 0.68558 0.0
C1404 C 0.24797 0.03692 0.66076 0.0
C1405 C 0.27292 0.08538 0.69244 0.0
C1406 C 0.29038 0.10049 0.68105 0.0
C1407 C 0.26116 0.05965 0.66707 0.0
C1408 C 0.29179 0.09523 0.66208 0.0
C1409 C 0.24478 0.03206 0.64137 0.0
C1410 C 0.22829 0.99897 0.66912 0.0
N1411 N 0.27742 0.07502 0.65568 0.0
N1412 N 0.23955 0.02028 0.67401 0.0
H1413 H 0.02594 0.24315 0.69082 0.0
H1414 H 0.91236 0.17769 0.63861 0.0
H1415 H 0.0184 0.23124 0.63039 0.0
H1416 H 0.91703 0.19894 0.69654 0.0
H1417 H 0.95139 0.19237 0.63746 0.0
H1418 H 0.98644 0.22411 0.6947 0.0
C1419 C 0.01603 0.23663 0.67835 0.0
C1420 C 0.02562 0.23872 0.66024 0.0
C1421 C 0.94394 0.19359 0.65056 0.0
C1422 C 0.98041 0.2168 0.66466 0.0
C1423 C 0.92162 0.18492 0.6513 0.0
C1424 C 0.91154 0.18718 0.66766 0.0
C1425 C 0.95641 0.20477 0.66626 0.0
C1426 C 0.92423 0.19675 0.6837 0.0
C1427 C 0.99349 0.22576 0.68061 0.0
C1428 C 0.01189 0.23025 0.6446 0.0
N1429 N 0.94615 0.20554 0.68252 0.0
N1430 N 0.99007 0.21959 0.6472 0.0
H1431 H 0.8136 0.81594 0.6565 0.0
H1432 H 0.78823 0.69263 0.66424 0.0
H1433 H 0.74948 0.76027 0.65311 0.0
H1434 H 0.85048 0.74792 0.67564 0.0
H1435 H 0.77573 0.71725 0.65259 0.0
H1436 H 0.82866 0.79148 0.65765 0.0
C1437 C 0.80267 0.79852 0.65608 0.0
C1438 C 0.78023 0.79012 0.65489 0.0
C1439 C 0.79237 0.72404 0.65701 0.0
C1440 C 0.79743 0.76195 0.65595 0.0
C1441 C 0.79968 0.70996 0.66322 0.0
C1442 C 0.82052 0.71827 0.67065 0.0
C1443 C 0.80601 0.74664 0.65832 0.0
C1444 C 0.83445 0.74085 0.66967 0.0
C1445 C 0.8113 0.78457 0.65658 0.0
C1446 C 0.76688 0.76743 0.65397 0.0
N1447 N 0.82682 0.7543 0.66402 0.0
N1448 N 0.77567 0.75412 0.65467 0.0
H1449 H 0.01844 0.81613 0.67724 0.0
H1450 H 0.9242 0.70076 0.64496 0.0
H1451 H 0.02738 0.77062 0.64334 0.0
H1452 H 0.91268 0.73671 0.68845 0.0
H1453 H 0.96201 0.72729 0.64465 0.0
H1454 H 0.98031 0.78833 0.68248 0.0
C1455 C 0.01248 0.80025 0.67106 0.0
C1456 C 0.02611 0.79584 0.65956 0.0
C1457 C 0.9514 0.72953 0.65436 0.0
C1458 C 0.98252 0.76416 0.66536 0.0
C1459 C 0.92954 0.71433 0.6545 0.0
C1460 C 0.91493 0.71647 0.66666 0.0
C1461 C 0.95917 0.74743 0.66634 0.0
C1462 C 0.92328 0.73445 0.67875 0.0
C1463 C 0.9907 0.78445 0.67403 0.0
C1464 C 0.01744 0.77502 0.65188 0.0
N1465 N 0.94491 0.7494 0.6782 0.0
N1466 N 0.99626 0.7601 0.65482 0.0
H1467 H 0.19956 0.20836 0.67405 0.0
H1468 H 0.29752 0.20171 0.63988 0.0
H1469 H 0.25692 0.2654 0.6525 0.0
H1470 H 0.28844 0.18846 0.70058 0.0
H1471 H 0.27113 0.21401 0.64074 0.0
H1472 H 0.22213 0.19183 0.68246 0.0
C1473 C 0.2169 0.21764 0.67158 0.0
C1474 C 0.22632 0.23808 0.6621 0.0
C1475 C 0.27466 0.20808 0.65382 0.0
C1476 C 0.25182 0.21929 0.67145 0.0
C1477 C 0.28972 0.20103 0.6534 0.0
C1478 C 0.29556 0.19436 0.67026 0.0
C1479 C 0.26498 0.20836 0.67114 0.0
C1480 C 0.28448 0.19355 0.68727 0.0
C1481 C 0.22969 0.20818 0.67636 0.0
C1482 C 0.24887 0.24938 0.65928 0.0
N1483 N 0.26979 0.20077 0.68737 0.0
N1484 N 0.2607 0.23964 0.66347 0.0
H1485 H 0.80572 0.99187 0.66791 0.0
H1486 H 0.80915 0.10619 0.65193 0.0
H1487 H 0.75569 1.00027 0.64127 0.0
H1488 H 0.84839 0.09745 0.69376 0.0
H1489 H 0.79558 0.06862 0.64196 0.0
H1490 H 0.82534 0.03108 0.67458 0.0
C1491 C 0.79874 1.00184 0.66361 0.0
C1492 C 0.77927 0.99279 0.65352 0.0
C1493 C 0.80764 0.0751 0.65297 0.0
C1494 C 0.80201 0.03766 0.66043 0.0
C1495 C 0.81585 0.09676 0.65825 0.0
C1496 C 0.83 0.10493 0.67357 0.0
C1497 C 0.81369 0.06162 0.66309 0.0
C1498 C 0.83765 0.09175 0.68171 0.0
C1499 C 0.8101 0.02425 0.66719 0.0
C1500 C 0.771 0.00657 0.64845 0.0
N1501 N 0.82908 0.07058 0.67668 0.0
N1502 N 0.78251 0.02825 0.65172 0.0
H1503 H 0.45062 0.34047 0.73637 0.0
H1504 H 0.42134 0.24858 0.65918 0.0
H1505 H 0.47474 0.35389 0.67826 0.0
H1506 H 0.38119 0.23924 0.70865 0.0
H1507 H 0.44769 0.28464 0.67026 0.0
H1508 H 0.43116 0.30156 0.72984 0.0
C1509 C 0.45173 0.33524 0.72217 0.0
C1510 C 0.46403 0.35055 0.70773 0.0
C1511 C 0.43346 0.2745 0.67901 0.0
C1512 C 0.44209 0.30583 0.70034 0.0
C1513 C 0.4186 0.25376 0.6729 0.0
C1514 C 0.39912 0.24091 0.68309 0.0
C1515 C 0.42889 0.28246 0.69554 0.0
C1516 C 0.39612 0.24852 0.70052 0.0
C1517 C 0.44074 0.313 0.71854 0.0
C1518 C 0.46543 0.34271 0.6898 0.0
N1519 N 0.41072 0.26901 0.70609 0.0
N1520 N 0.45446 0.32089 0.68657 0.0
H1521 H 0.66125 0.07986 0.69869 0.0
H1522 H 0.77933 0.18209 0.68705 0.0
H1523 H 0.67173 0.14539 0.69838 0.0
H1524 H 0.76264 0.11568 0.67659 0.0
H1525 H 0.74035 0.17065 0.68768 0.0
H1526 H 0.69827 0.09373 0.68737 0.0
C1527 C 0.67134 0.09721 0.69591 0.0
C1528 C 0.66351 0.11151 0.69959 0.0
C1529 C 0.7453 0.15873 0.68478 0.0
C1530 C 0.70632 0.12778 0.68688 0.0
C1531 C 0.76751 0.16531 0.68427 0.0
C1532 C 0.77408 0.14976 0.68177 0.0
C1533 C 0.72985 0.13652 0.68293 0.0
C1534 C 0.75819 0.12815 0.67858 0.0
C1535 C 0.69253 0.10519 0.68944 0.0
C1536 C 0.67723 0.13385 0.69569 0.0
N1537 N 0.73692 0.12216 0.67948 0.0
N1538 N 0.69815 0.1414 0.68985 0.0
H1539 H 0.92195 0.57689 0.72334 0.0
H1540 H 0.8298 0.59192 0.67251 0.0
H1541 H 0.87132 0.52899 0.68868 0.0
H1542 H 0.88304 0.64416 0.70128 0.0
H1543 H 0.84136 0.56673 0.68419 0.0
H1544 H 0.90593 0.60056 0.71955 0.0
C1545 C 0.90747 0.57135 0.71498 0.0
C1546 C 0.89801 0.55095 0.70625 0.0
C1547 C 0.85021 0.58354 0.68852 0.0
C1548 C 0.87948 0.57772 0.70211 0.0
C1549 C 0.84325 0.5978 0.68223 0.0
C1550 C 0.85524 0.61998 0.68627 0.0
C1551 C 0.8695 0.5916 0.69875 0.0
C1552 C 0.8731 0.62702 0.69825 0.0
C1553 C 0.89833 0.58483 0.71285 0.0
C1554 C 0.87938 0.54467 0.69544 0.0
N1555 N 0.88001 0.61293 0.70379 0.0
N1556 N 0.87077 0.55796 0.69371 0.0
H1557 H 0.5017 0.01492 0.1775 0.0
H1558 H 0.50591 0.97391 0.07379 0.0
H1559 H 0.4998 0.95354 0.16989 0.0
H1560 H 0.53099 0.04141 0.08752 0.0
H1561 H 0.50366 0.96499 0.10821 0.0
H1562 H 0.51118 0.02382 0.14379 0.0
C1563 C 0.5034 1.00336 0.16871 0.0
C1564 C 0.49997 0.98348 0.17651 0.0
C1565 C 0.51016 0.98181 0.10359 0.0
C1566 C 0.5108 0.99351 0.13773 0.0
C1567 C 0.51173 0.98693 0.08396 0.0
C1568 C 0.51874 0.00845 0.0778 0.0
C1569 C 0.5154 0.99832 0.11694 0.0
C1570 C 0.52553 0.02462 0.09163 0.0
C1571 C 0.50893 0.00847 0.14947 0.0
C1572 C 0.50249 0.96913 0.16445 0.0
N1573 N 0.52335 0.01919 0.11046 0.0
N1574 N 0.50753 0.97431 0.14558 0.0
H1575 H 1.00366 0.51696 0.18136 0.0
H1576 H 0.0462 0.52563 0.07329 0.0
H1577 H 0.06404 0.52023 0.16618 0.0
H1578 H 0.97956 0.50383 0.08801 0.0
H1579 H 0.055 0.53034 0.10731 0.0
H1580 H 0.99616 0.51786 0.14723 0.0
C1581 C 0.01542 0.51811 0.17083 0.0
C1582 C 0.03449 0.51853 0.17655 0.0
C1583 C 0.03854 0.52507 0.10307 0.0
C1584 C 0.02622 0.51983 0.1376 0.0
C1585 C 0.03363 0.52281 0.08362 0.0
C1586 C 0.01225 0.515 0.0778 0.0
C1587 C 0.02199 0.51961 0.11678 0.0
C1588 C 0.99634 0.51046 0.0919 0.0
C1589 C 0.01113 0.51854 0.15139 0.0
C1590 C 0.0491 0.51977 0.16235 0.0
N1591 N 1.0015 0.51278 0.1107 0.0
N1592 N 0.04471 0.52044 0.14357 0.0
H1593 H 0.52982 0.54649 0.1723 0.0
H1594 H 0.47609 0.49612 0.07229 0.0
H1595 H 0.46325 0.49707 0.16439 0.0
H1596 H 0.54527 0.53462 0.07776 0.0
H1597 H 0.47153 0.50108 0.10583 0.0
H1598 H 0.53638 0.54643 0.13774 0.0
C1599 C 0.51661 0.53566 0.16335 0.0
C1600 C 0.49597 0.52163 0.17132 0.0
C1601 C 0.48776 0.50894 0.09976 0.0
C1602 C 0.50332 0.52166 0.13195 0.0
C1603 C 0.49033 0.50638 0.0805 0.0
C1604 C 0.51106 0.5154 0.07222 0.0
C1605 C 0.50606 0.52074 0.111 0.0
C1606 C 0.52903 0.52783 0.08361 0.0
C1607 C 0.52039 0.53561 0.14368 0.0
C1608 C 0.47951 0.50789 0.15905 0.0
N1609 N 0.52613 0.53013 0.10255 0.0
N1610 N 0.48354 0.5083 0.14009 0.0
H1611 H 1.00541 0.5158 0.85076 0.0
H1612 H 0.97199 0.47348 0.95732 0.0
H1613 H 0.94531 0.45692 0.8636 0.0
H1614 H 0.03807 0.51432 0.93802 0.0
H1615 H 0.961 0.46577 0.9238 0.0
H1616 H 0.01681 0.51557 0.88345 0.0
C1617 C 0.99465 0.50275 0.86048 0.0
C1618 C 0.97437 0.48639 0.85448 0.0
C1619 C 0.97797 0.47597 0.92699 0.0
C1620 C 0.98731 0.48596 0.89203 0.0
C1621 C 0.98426 0.48014 0.9461 0.0
C1622 C 1.00595 0.49463 0.95041 0.0
C1623 C 0.99349 0.48656 0.9123 0.0
C1624 C 0.02115 0.50315 0.93531 0.0
C1625 C 1.00121 0.50252 0.87911 0.0
C1626 C 0.96114 0.46976 0.86764 0.0
N1627 N 0.01459 0.49933 0.91698 0.0
N1628 N 0.96772 0.47009 0.88591 0.0
H1629 H 0.49061 0.47984 0.84363 0.0
H1630 H 0.53877 0.50223 0.94919 0.0
H1631 H 0.55774 0.50378 0.85681 0.0
H1632 H 0.4752 0.49208 0.937 0.0
H1633 H 0.54369 0.4967 0.91564 0.0
H1634 H 0.48248 0.4786 0.87796 0.0
C1635 C 0.50358 0.48467 0.85373 0.0
C1636 C 0.52493 0.49212 0.84734 0.0
C1637 C 0.52838 0.49503 0.92031 0.0
C1638 C 0.51574 0.49059 0.88649 0.0
C1639 C 0.52545 0.4978 0.93953 0.0
C1640 C 0.50628 0.49685 0.94588 0.0
C1641 C 0.51197 0.49119 0.9073 0.0
C1642 C 0.48996 0.49231 0.93265 0.0
C1643 C 0.49895 0.48404 0.87328 0.0
C1644 C 0.54112 0.49827 0.86105 0.0
N1645 N 0.49316 0.48964 0.91392 0.0
N1646 N 0.5362 0.49738 0.87989 0.0
H1647 H 0.54497 0.06572 0.85839 0.0
H1648 H 0.48288 0.97779 0.94216 0.0
H1649 H 0.49485 0.99967 0.849 0.0
H1650 H 0.52576 0.04577 0.95264 0.0
H1651 H 0.48624 0.98588 0.90795 0.0
H1652 H 0.53936 0.05872 0.893 0.0
C1653 C 0.5331 0.04963 0.86367 0.0
C1654 C 0.5203 0.03322 0.85096 0.0
C1655 C 0.49452 0.99918 0.91768 0.0
C1656 C 0.51345 0.02524 0.89027 0.0
C1657 C 0.49223 0.9946 0.93722 0.0
C1658 C 0.50366 0.01122 0.95017 0.0
C1659 C 0.50868 0.02051 0.911 0.0
C1660 C 0.51625 0.03263 0.94307 0.0
C1661 C 0.52968 0.04573 0.88336 0.0
C1662 C 0.50495 0.01274 0.85841 0.0
N1663 N 0.51872 0.03665 0.92389 0.0
N1664 N 0.50192 0.00934 0.87756 0.0
H1665 H 0.13 0.29903 0.5022 0.0
H1666 H 0.21382 0.35925 0.41639 0.0
H1667 H 0.19884 0.33459 0.51153 0.0
H1668 H 0.14745 0.3095 0.40932 0.0
H1669 H 0.21 0.35062 0.45092 0.0
H1670 H 0.13684 0.30403 0.46797 0.0
C1671 C 0.14661 0.30801 0.49704 0.0
C1672 C 0.16386 0.31651 0.50982 0.0
C1673 C 0.19645 0.34124 0.44172 0.0
C1674 C 0.17191 0.32207 0.47031 0.0
C1675 C 0.19875 0.34595 0.42204 0.0
C1676 C 0.18112 0.33457 0.41002 0.0
C1677 C 0.17618 0.32559 0.44936 0.0
C1678 C 0.16162 0.31813 0.41806 0.0
C1679 C 0.15053 0.31068 0.47742 0.0
C1680 C 0.18506 0.32767 0.50219 0.0
N1681 N 0.15959 0.31436 0.43721 0.0
N1682 N 0.1885 0.33028 0.48291 0.0
H1683 H 0.73472 0.87461 0.50251 0.0
H1684 H 0.6434 0.82641 0.4229 0.0
H1685 H 0.66684 0.83198 0.51443 0.0
H1686 H 0.71124 0.86635 0.40889 0.0
H1687 H 0.65161 0.83268 0.45663 0.0
H1688 H 0.72661 0.87528 0.46851 0.0
C1689 C 0.71807 0.86569 0.49794 0.0
C1690 C 0.70137 0.85336 0.51117 0.0
C1691 C 0.66474 0.84054 0.44626 0.0
C1692 C 0.69193 0.85405 0.4725 0.0
C1693 C 0.66001 0.83719 0.42694 0.0
C1694 C 0.67663 0.84611 0.41305 0.0
C1695 C 0.68635 0.85281 0.4519 0.0
C1696 C 0.69791 0.85953 0.41911 0.0
C1697 C 0.71345 0.86603 0.47858 0.0
C1698 C 0.68012 0.84176 0.50462 0.0
N1699 N 0.70221 0.86225 0.43814 0.0
N1700 N 0.67601 0.84239 0.48576 0.0
H1701 H 0.16601 0.82757 0.50807 0.0
H1702 H 0.1728 0.87258 0.40258 0.0
H1703 H 0.16732 0.88846 0.49704 0.0
H1704 H 0.18917 0.82333 0.41828 0.0
H1705 H 0.17331 0.88121 0.43659 0.0
H1706 H 0.17592 0.82717 0.47485 0.0
C1707 C 0.16855 0.84096 0.49864 0.0
C1708 C 0.16567 0.85798 0.5053 0.0
C1709 C 0.17736 0.86893 0.43249 0.0
C1710 C 0.17707 0.8577 0.46704 0.0
C1711 C 0.17734 0.86423 0.4131 0.0
C1712 C 0.18101 0.84727 0.40772 0.0
C1713 C 0.18086 0.8564 0.44636 0.0
C1714 C 0.18627 0.83653 0.42189 0.0
C1715 C 0.17434 0.84082 0.47966 0.0
C1716 C 0.16943 0.87505 0.49248 0.0
N1717 N 0.1857 0.84102 0.44052 0.0
N1718 N 0.17466 0.87435 0.47386 0.0
H1719 H 0.65553 0.80148 0.18484 0.0
H1720 H 0.6442 0.84396 0.28723 0.0
H1721 H 0.62798 0.84276 0.19558 0.0
H1722 H 0.68589 0.81672 0.27825 0.0
H1723 H 0.63348 0.8376 0.25406 0.0
H1724 H 0.66309 0.8018 0.21916 0.0
C1725 C 0.65103 0.81053 0.19439 0.0
C1726 C 0.64127 0.82227 0.18731 0.0
C1727 C 0.64459 0.83248 0.25931 0.0
C1728 C 0.64958 0.82246 0.22638 0.0
C1729 C 0.65043 0.8358 0.27835 0.0
C1730 C 0.66551 0.83034 0.28552 0.0
C1731 C 0.65389 0.82363 0.24718 0.0
C1732 C 0.67382 0.82065 0.27328 0.0
C1733 C 0.6554 0.81075 0.21392 0.0
C1734 C 0.63584 0.83378 0.20029 0.0
N1735 N 0.66796 0.81765 0.25458 0.0
N1736 N 0.64003 0.83354 0.21909 0.0
H1737 H 0.19412 0.85852 0.17992 0.0
H1738 H 0.17474 0.80612 0.28418 0.0
H1739 H 0.18234 0.79294 0.18882 0.0
H1740 H 0.16504 0.86001 0.2688 0.0
H1741 H 0.17644 0.79941 0.24994 0.0
H1742 H 0.18406 0.85899 0.21311 0.0
C1743 C 0.18933 0.84415 0.18886 0.0
C1744 C 0.18919 0.82571 0.18156 0.0
C1745 C 0.17348 0.8124 0.25415 0.0
C1746 C 0.17747 0.82605 0.21981 0.0
C1747 C 0.17222 0.81603 0.27368 0.0
C1748 C 0.16984 0.8337 0.27937 0.0
C1749 C 0.17262 0.82672 0.24041 0.0
C1750 C 0.16702 0.84626 0.26509 0.0
C1751 C 0.18342 0.84436 0.20783 0.0
C1752 C 0.18256 0.80747 0.19383 0.0
N1753 N 0.16892 0.84281 0.2464 0.0
N1754 N 0.1772 0.80817 0.21243 0.0
H1755 H 0.18247 0.33715 0.18093 0.0
H1756 H 0.18847 0.38045 0.28647 0.0
H1757 H 0.19193 0.40121 0.19136 0.0
H1758 H 0.15905 0.3125 0.27269 0.0
H1759 H 0.19117 0.3896 0.25215 0.0
H1760 H 0.17758 0.32915 0.21539 0.0
C1761 C 0.18391 0.34962 0.19057 0.0
C1762 C 0.18756 0.3698 0.18349 0.0
C1763 C 0.18368 0.37266 0.25672 0.0
C1764 C 0.18161 0.3608 0.22264 0.0
C1765 C 0.18177 0.36745 0.27627 0.0
C1766 C 0.17341 0.34571 0.28231 0.0
C1767 C 0.17742 0.35599 0.24336 0.0
C1768 C 0.16552 0.32947 0.26853 0.0
C1769 C 0.18084 0.34501 0.21015 0.0
C1770 C 0.18907 0.38543 0.19643 0.0
N1771 N 0.16804 0.33494 0.24972 0.0
N1772 N 0.18607 0.38061 0.21542 0.0
H1773 H 0.79745 0.62855 0.83431 0.0
H1774 H 0.88249 0.69875 0.75262 0.0
H1775 H 0.8651 0.67018 0.84627 0.0
H1776 H 0.82094 0.64222 0.74162 0.0
H1777 H 0.87746 0.68871 0.78675 0.0
H1778 H 0.80598 0.63438 0.80024 0.0
C1779 C 0.81413 0.63898 0.82976 0.0
C1780 C 0.83057 0.64898 0.8432 0.0
C1781 C 0.86532 0.67818 0.77682 0.0
C1782 C 0.84052 0.65556 0.80402 0.0
C1783 C 0.86835 0.68375 0.75734 0.0
C1784 C 0.85243 0.67091 0.74429 0.0
C1785 C 0.84587 0.66009 0.78329 0.0
C1786 C 0.83393 0.65212 0.75117 0.0
C1787 C 0.81902 0.64213 0.81027 0.0
C1788 C 0.85194 0.66206 0.83641 0.0
N1789 N 0.83098 0.64749 0.77022 0.0
N1790 N 0.85629 0.66514 0.81729 0.0
H1791 H 0.33727 0.18366 0.84919 0.0
H1792 H 0.37757 0.19128 0.74052 0.0
H1793 H 0.39705 0.18618 0.83294 0.0
H1794 H 0.31118 0.16972 0.75613 0.0
H1795 H 0.3869 0.19598 0.77439 0.0
H1796 H 0.32906 0.1843 0.81521 0.0
C1797 C 0.34875 0.18461 0.83846 0.0
C1798 C 0.36785 0.18486 0.84384 0.0
C1799 C 0.37038 0.19071 0.77039 0.0
C1800 C 0.35874 0.18583 0.80505 0.0
C1801 C 0.36515 0.18843 0.75102 0.0
C1802 C 0.34369 0.18069 0.74548 0.0
C1803 C 0.35408 0.18541 0.78432 0.0
C1804 C 0.32801 0.17621 0.7598 0.0
C1805 C 0.34404 0.18488 0.8191 0.0
C1806 C 0.38209 0.18584 0.82938 0.0
N1807 N 0.33348 0.1786 0.77853 0.0
N1808 N 0.37729 0.18635 0.8107 0.0
H1809 H 0.79441 0.16633 0.83068 0.0
H1810 H 0.87998 0.19311 0.74729 0.0
H1811 H 0.86254 0.20835 0.84055 0.0
H1812 H 0.81329 0.17487 0.73842 0.0
H1813 H 0.87556 0.19904 0.78125 0.0
H1814 H 0.80215 0.16747 0.79676 0.0
C1815 C 0.81107 0.17573 0.8257 0.0
C1816 C 0.82787 0.18716 0.8385 0.0
C1817 C 0.8621 0.19429 0.77173 0.0
C1818 C 0.83686 0.18889 0.79941 0.0
C1819 C 0.8647 0.1912 0.75239 0.0
C1820 C 0.8471 0.18407 0.74011 0.0
C1821 C 0.84156 0.18942 0.77872 0.0
C1822 C 0.82738 0.18097 0.7474 0.0
C1823 C 0.81546 0.17658 0.80627 0.0
C1824 C 0.84911 0.19938 0.83113 0.0
N1825 N 0.82505 0.18331 0.76626 0.0
N1826 N 0.85306 0.19981 0.81202 0.0
H1827 H 0.30296 0.18383 0.52757 0.0
H1828 H 0.34509 0.13897 0.61343 0.0
H1829 H 0.31433 0.12972 0.52018 0.0
H1830 H 0.32589 0.18782 0.61791 0.0
H1831 H 0.33324 0.13357 0.57984 0.0
H1832 H 0.31209 0.18497 0.56084 0.0
C1833 C 0.30757 0.17224 0.53287 0.0
C1834 C 0.30804 0.15679 0.52083 0.0
C1835 C 0.33139 0.14524 0.58832 0.0
C1836 C 0.31802 0.15759 0.55963 0.0
C1837 C 0.33793 0.14813 0.60747 0.0
C1838 C 0.33621 0.16367 0.6184 0.0
C1839 C 0.32346 0.15826 0.58021 0.0
C1840 C 0.32725 0.17548 0.61 0.0
C1841 C 0.31256 0.17274 0.55206 0.0
C1842 C 0.31359 0.14184 0.5289 0.0
N1843 N 0.32144 0.17268 0.59147 0.0
N1844 N 0.31843 0.14264 0.5478 0.0
H1845 H 0.85989 0.19101 0.51295 0.0
H1846 H 0.84194 0.13967 0.6178 0.0
H1847 H 0.84905 0.1258 0.52212 0.0
H1848 H 0.83099 0.19263 0.60177 0.0
H1849 H 0.8444 0.13312 0.58359 0.0
H1850 H 0.85063 0.19182 0.54629 0.0
C1851 C 0.85547 0.17678 0.52198 0.0
C1852 C 0.85538 0.15835 0.51469 0.0
C1853 C 0.8411 0.14592 0.58768 0.0
C1854 C 0.84457 0.15909 0.55317 0.0
C1855 C 0.83946 0.14948 0.60718 0.0
C1856 C 0.83635 0.16676 0.61272 0.0
C1857 C 0.83993 0.15994 0.57381 0.0
C1858 C 0.83354 0.17918 0.59827 0.0
C1859 C 0.85004 0.17719 0.54105 0.0
C1860 C 0.84923 0.14031 0.52711 0.0
N1861 N 0.83577 0.17578 0.57963 0.0
N1862 N 0.84428 0.1412 0.54581 0.0
H1863 H 0.81588 0.67551 0.5181 0.0
H1864 H 0.87424 0.70218 0.61891 0.0
H1865 H 0.88447 0.71924 0.52353 0.0
H1866 H 0.80525 0.66459 0.61187 0.0
H1867 H 0.87896 0.70912 0.58438 0.0
H1868 H 0.81252 0.67029 0.55255 0.0
C1869 C 0.8303 0.68394 0.52657 0.0
C1870 C 0.8504 0.69824 0.51794 0.0
C1871 C 0.86275 0.69991 0.59041 0.0
C1872 C 0.84666 0.69231 0.55761 0.0
C1873 C 0.86002 0.69632 0.61013 0.0
C1874 C 0.83924 0.6834 0.6182 0.0
C1875 C 0.84453 0.69044 0.57873 0.0
C1876 C 0.82143 0.67513 0.6062 0.0
C1877 C 0.82835 0.68099 0.54629 0.0
C1878 C 0.86863 0.7082 0.52961 0.0
N1879 N 0.82448 0.67873 0.58704 0.0
N1880 N 0.8663 0.7052 0.54891 0.0
loop_
_geom_bond_atom_site_label_1
_geom_bond_atom_site_label_2
_geom_bond_distance
_geom_bond_site_symmetry_2
_ccdc_geom_bond_type
C0 C1 1.264 . S
C0 C5 1.479 . S
C0 C10 1.465 . S
C1 C0 1.264 . S
C1 C3 1.339 . S
C1 H28 0.931 . S
C2 C3 1.395 . S
C2 C4 1.320 . S
C3 C1 1.339 . S
C3 C2 1.395 . S
C3 H29 0.929 . S
C4 C2 1.320 . S
C4 C5 1.405 . S
C4 H30 0.930 . S
C5 C0 1.479 . S
C5 C4 1.405 . S
C5 H31 0.931 . S
U6 O7 2.454 . S
U6 O8 2.458 . S
U6 C9 2.984 . S
U6 C10 2.847 . S
U6 C23 2.882 . S
U6 O24 2.441 . S
U6 O25 2.420 . S
U6 O26 2.455 . S
U6 O27 2.449 . S
O7 U6 2.454 . S
O7 C9 1.353 . S
O8 U6 2.458 . S
O8 C9 1.286 . S
C9 U6 2.984 . S
C9 O7 1.353 . S
C9 O8 1.286 . S
C9 C11 1.363 . S
C10 C0 1.465 . S
C10 U6 2.847 . S
C10 O24 1.249 . S
C10 O25 1.202 . S
C11 C9 1.363 . S
C11 C13 1.408 . S
C11 C16 1.342 . S
C12 C13 1.310 . S
C12 C15 1.461 . S
C12 H32 0.932 . S
C13 C11 1.408 . S
C13 C12 1.310 . S
C13 H33 0.930 . S
C14 C15 1.474 . S
C14 C16 1.285 . S
C14 H34 0.929 . S
C15 C12 1.461 . S
C15 C14 1.474 . S
C16 C11 1.342 . S
C16 C14 1.285 . S
C16 H35 0.930 . S
C17 C20 1.424 . S
C17 C22 1.245 . S
C17 C23 1.428 . S
C18 C21 1.260 . S
C18 C22 1.477 . S
C18 H36 0.932 . S
C19 C20 1.384 . S
C19 C21 1.479 . S
C19 H37 0.929 . S
C20 C17 1.424 . S
C20 C19 1.384 . S
C20 H38 0.928 . S
C21 C18 1.260 . S
C21 C19 1.479 . S
C22 C17 1.245 . S
C22 C18 1.477 . S
C22 H39 0.932 . S
C23 U6 2.882 . S
C23 C17 1.428 . S
C23 O26 1.301 . S
C23 O27 1.282 . S
O24 U6 2.441 . S
O24 C10 1.249 . S
O25 U6 2.420 . S
O25 C10 1.202 . S
O26 U6 2.455 . S
O26 C23 1.301 . S
O27 U6 2.449 . S
O27 C23 1.282 . S
H28 C1 0.931 . S
H29 C3 0.929 . S
H30 C4 0.930 . S
H31 C5 0.931 . S
H32 C12 0.932 . S
H33 C13 0.930 . S
H34 C14 0.929 . S
H35 C16 0.930 . S
H36 C18 0.932 . S
H37 C19 0.929 . S
H38 C20 0.928 . S
H39 C22 0.932 . S
C40 C41 1.264 . S
C40 C45 1.479 . S
C40 C50 1.465 . S
C41 C40 1.264 . S
C41 C43 1.339 . S
C41 H68 0.931 . S
C42 C43 1.395 . S
C42 C44 1.320 . S
C43 C41 1.339 . S
C43 C42 1.395 . S
C43 H69 0.929 . S
C44 C42 1.320 . S
C44 C45 1.405 . S
C44 H70 0.930 . S
C45 C40 1.479 . S
C45 C44 1.405 . S
C45 H71 0.931 . S
U46 O47 2.454 . S
U46 O48 2.458 . S
U46 C49 2.984 . S
U46 C50 2.847 . S
U46 C63 2.882 . S
U46 O64 2.441 . S
U46 O65 2.420 . S
U46 O66 2.455 . S
U46 O67 2.449 . S
O47 U46 2.454 . S
O47 C49 1.353 . S
O48 U46 2.458 . S
O48 C49 1.286 . S
C49 U46 2.984 . S
C49 O47 1.353 . S
C49 O48 1.286 . S
C49 C51 1.363 . S
C50 C40 1.465 . S
C50 U46 2.847 . S
C50 O64 1.249 . S
C50 O65 1.202 . S
C51 C49 1.363 . S
C51 C53 1.408 . S
C51 C56 1.342 . S
C52 C53 1.310 . S
C52 C55 1.461 . S
C52 H72 0.932 . S
C53 C51 1.408 . S
C53 C52 1.310 . S
C53 H73 0.930 . S
C54 C55 1.474 . S
C54 C56 1.285 . S
C54 H74 0.929 . S
C55 C52 1.461 . S
C55 C54 1.474 . S
C56 C51 1.342 . S
C56 C54 1.285 . S
C56 H75 0.930 . S
C57 C60 1.424 . S
C57 C62 1.245 . S
C57 C63 1.428 . S
C58 C61 1.260 . S
C58 C62 1.477 . S
C58 H76 0.932 . S
C59 C60 1.384 . S
C59 C61 1.479 . S
C59 H77 0.929 . S
C60 C57 1.424 . S
C60 C59 1.384 . S
C60 H78 0.928 . S
C61 C58 1.260 . S
C61 C59 1.479 . S
C62 C57 1.245 . S
C62 C58 1.477 . S
C62 H79 0.932 . S
C63 U46 2.882 . S
C63 C57 1.428 . S
C63 O66 1.301 . S
C63 O67 1.282 . S
O64 U46 2.441 . S
O64 C50 1.249 . S
O65 U46 2.420 . S
O65 C50 1.202 . S
O66 U46 2.455 . S
O66 C63 1.301 . S
O67 U46 2.449 . S
O67 C63 1.282 . S
H68 C41 0.931 . S
H69 C43 0.929 . S
H70 C44 0.930 . S
H71 C45 0.931 . S
H72 C52 0.932 . S
H73 C53 0.930 . S
H74 C54 0.929 . S
H75 C56 0.930 . S
H76 C58 0.932 . S
H77 C59 0.929 . S
H78 C60 0.928 . S
H79 C62 0.932 . S
C80 C81 1.264 . S
C80 C85 1.479 . S
C80 C90 1.465 . S
C81 C80 1.264 . S
C81 C83 1.339 . S
C81 H108 0.931 . S
C82 C83 1.395 . S
C82 C84 1.320 . S
C83 C81 1.339 . S
C83 C82 1.395 . S
C83 H109 0.929 . S
C84 C82 1.320 . S
C84 C85 1.405 . S
C84 H110 0.930 . S
C85 C80 1.479 . S
C85 C84 1.405 . S
C85 H111 0.931 . S
U86 O87 2.454 . S
U86 O88 2.458 . S
U86 C89 2.984 . S
U86 C90 2.847 . S
U86 C103 2.882 . S
U86 O104 2.441 . S
U86 O105 2.420 . S
U86 O106 2.455 . S
U86 O107 2.449 . S
O87 U86 2.454 . S
O87 C89 1.353 . S
O88 U86 2.458 . S
O88 C89 1.286 . S
C89 U86 2.984 . S
C89 O87 1.353 . S
C89 O88 1.286 . S
C89 C91 1.363 . S
C90 C80 1.465 . S
C90 U86 2.847 . S
C90 O104 1.249 . S
C90 O105 1.202 . S
C91 C89 1.363 . S
C91 C93 1.408 . S
C91 C96 1.342 . S
C92 C93 1.310 . S
C92 C95 1.461 . S
C92 H112 0.932 . S
C93 C91 1.408 . S
C93 C92 1.310 . S
C93 H113 0.930 . S
C94 C95 1.474 . S
C94 C96 1.285 . S
C94 H114 0.929 . S
C95 C92 1.461 . S
C95 C94 1.474 . S
C96 C91 1.342 . S
C96 C94 1.285 . S
C96 H115 0.930 . S
C97 C100 1.424 . S
C97 C102 1.245 . S
C97 C103 1.428 . S
C98 C101 1.260 . S
C98 C102 1.477 . S
C98 H116 0.932 . S
C99 C100 1.384 . S
C99 C101 1.479 . S
C99 H117 0.929 . S
C100 C97 1.424 . S
C100 C99 1.384 . S
C100 H118 0.928 . S
C101 C98 1.260 . S
C101 C99 1.479 . S
C102 C97 1.245 . S
C102 C98 1.477 . S
C102 H119 0.932 . S
C103 U86 2.882 . S
C103 C97 1.428 . S
C103 O106 1.301 . S
C103 O107 1.282 . S
O104 U86 2.441 . S
O104 C90 1.249 . S
O105 U86 2.420 . S
O105 C90 1.202 . S
O106 U86 2.455 . S
O106 C103 1.301 . S
O107 U86 2.449 . S
O107 C103 1.282 . S
H108 C81 0.931 . S
H109 C83 0.929 . S
H110 C84 0.930 . S
H111 C85 0.931 . S
H112 C92 0.932 . S
H113 C93 0.930 . S
H114 C94 0.929 . S
H115 C96 0.930 . S
H116 C98 0.932 . S
H117 C99 0.929 . S
H118 C100 0.928 . S
H119 C102 0.932 . S
C120 C121 1.264 . S
C120 C125 1.479 . S
C120 C130 1.465 . S
C121 C120 1.264 . S
C121 C123 1.339 . S
C121 H148 0.931 . S
C122 C123 1.395 . S
C122 C124 1.320 . S
C123 C121 1.339 . S
C123 C122 1.395 . S
C123 H149 0.929 . S
C124 C122 1.320 . S
C124 C125 1.405 . S
C124 H150 0.930 . S
C125 C120 1.479 . S
C125 C124 1.405 . S
C125 H151 0.931 . S
U126 O127 2.454 . S
U126 O128 2.458 . S
U126 C129 2.984 . S
U126 C130 2.847 . S
U126 C143 2.882 . S
U126 O144 2.441 . S
U126 O145 2.420 . S
U126 O146 2.455 . S
U126 O147 2.449 . S
O127 U126 2.454 . S
O127 C129 1.353 . S
O128 U126 2.458 . S
O128 C129 1.286 . S
C129 U126 2.984 . S
C129 O127 1.353 . S
C129 O128 1.286 . S
C129 C131 1.363 . S
C130 C120 1.465 . S
C130 U126 2.847 . S
C130 O144 1.249 . S
C130 O145 1.202 . S
C131 C129 1.363 . S
C131 C133 1.408 . S
C131 C136 1.342 . S
C132 C133 1.310 . S
C132 C135 1.461 . S
C132 H152 0.932 . S
C133 C131 1.408 . S
C133 C132 1.310 . S
C133 H153 0.930 . S
C134 C135 1.474 . S
C134 C136 1.285 . S
C134 H154 0.929 . S
C135 C132 1.461 . S
C135 C134 1.474 . S
C136 C131 1.342 . S
C136 C134 1.285 . S
C136 H155 0.930 . S
C137 C140 1.424 . S
C137 C142 1.245 . S
C137 C143 1.428 . S
C138 C141 1.260 . S
C138 C142 1.477 . S
C138 H156 0.932 . S
C139 C140 1.384 . S
C139 C141 1.479 . S
C139 H157 0.929 . S
C140 C137 1.424 . S
C140 C139 1.384 . S
C140 H158 0.928 . S
C141 C138 1.260 . S
C141 C139 1.479 . S
C142 C137 1.245 . S
C142 C138 1.477 . S
C142 H159 0.932 . S
C143 U126 2.882 . S
C143 C137 1.428 . S
C143 O146 1.301 . S
C143 O147 1.282 . S
O144 U126 2.441 . S
O144 C130 1.249 . S
O145 U126 2.420 . S
O145 C130 1.202 . S
O146 U126 2.455 . S
O146 C143 1.301 . S
O147 U126 2.449 . S
O147 C143 1.282 . S
H148 C121 0.931 . S
H149 C123 0.929 . S
H150 C124 0.930 . S
H151 C125 0.931 . S
H152 C132 0.932 . S
H153 C133 0.930 . S
H154 C134 0.929 . S
H155 C136 0.930 . S
H156 C138 0.932 . S
H157 C139 0.929 . S
H158 C140 0.928 . S
H159 C142 0.932 . S
C160 C161 1.264 . S
C160 C165 1.479 . S
C160 C170 1.465 . S
C161 C160 1.264 . S
C161 C163 1.339 . S
C161 H188 0.931 . S
C162 C163 1.395 . S
C162 C164 1.320 . S
C163 C161 1.339 . S
C163 C162 1.395 . S
C163 H189 0.929 . S
C164 C162 1.320 . S
C164 C165 1.405 . S
C164 H190 0.930 . S
C165 C160 1.479 . S
C165 C164 1.405 . S
C165 H191 0.931 . S
U166 O167 2.454 . S
U166 O168 2.458 . S
U166 C169 2.984 . S
U166 C170 2.847 . S
U166 C183 2.882 . S
U166 O184 2.441 . S
U166 O185 2.420 . S
U166 O186 2.455 . S
U166 O187 2.449 . S
O167 U166 2.454 . S
O167 C169 1.353 . S
O168 U166 2.458 . S
O168 C169 1.286 . S
C169 U166 2.984 . S
C169 O167 1.353 . S
C169 O168 1.286 . S
C169 C171 1.363 . S
C170 C160 1.465 . S
C170 U166 2.847 . S
C170 O184 1.249 . S
C170 O185 1.202 . S
C171 C169 1.363 . S
C171 C173 1.408 . S
C171 C176 1.342 . S
C172 C173 1.310 . S
C172 C175 1.461 . S
C172 H192 0.932 . S
C173 C171 1.408 . S
C173 C172 1.310 . S
C173 H193 0.930 . S
C174 C175 1.474 . S
C174 C176 1.285 . S
C174 H194 0.929 . S
C175 C172 1.461 . S
C175 C174 1.474 . S
C176 C171 1.342 . S
C176 C174 1.285 . S
C176 H195 0.930 . S
C177 C180 1.424 . S
C177 C182 1.245 . S
C177 C183 1.428 . S
C178 C181 1.260 . S
C178 C182 1.477 . S
C178 H196 0.932 . S
C179 C180 1.384 . S
C179 C181 1.479 . S
C179 H197 0.929 . S
C180 C177 1.424 . S
C180 C179 1.384 . S
C180 H198 0.928 . S
C181 C178 1.260 . S
C181 C179 1.479 . S
C182 C177 1.245 . S
C182 C178 1.477 . S
C182 H199 0.932 . S
C183 U166 2.882 . S
C183 C177 1.428 . S
C183 O186 1.301 . S
C183 O187 1.282 . S
O184 U166 2.441 . S
O184 C170 1.249 . S
O185 U166 2.420 . S
O185 C170 1.202 . S
O186 U166 2.455 . S
O186 C183 1.301 . S
O187 U166 2.449 . S
O187 C183 1.282 . S
H188 C161 0.931 . S
H189 C163 0.929 . S
H190 C164 0.930 . S
H191 C165 0.931 . S
H192 C172 0.932 . S
H193 C173 0.930 . S
H194 C174 0.929 . S
H195 C176 0.930 . S
H196 C178 0.932 . S
H197 C179 0.929 . S
H198 C180 0.928 . S
H199 C182 0.932 . S
C200 C201 1.264 . S
C200 C205 1.479 . S
C200 C210 1.465 . S
C201 C200 1.264 . S
C201 C203 1.339 . S
C201 H228 0.931 . S
C202 C203 1.395 . S
C202 C204 1.320 . S
C203 C201 1.339 . S
C203 C202 1.395 . S
C203 H229 0.929 . S
C204 C202 1.320 . S
C204 C205 1.405 . S
C204 H230 0.930 . S
C205 C200 1.479 . S
C205 C204 1.405 . S
C205 H231 0.931 . S
U206 O207 2.454 . S
U206 O208 2.458 . S
U206 C209 2.984 . S
U206 C210 2.847 . S
U206 C223 2.882 . S
U206 O224 2.441 . S
U206 O225 2.420 . S
U206 O226 2.455 . S
U206 O227 2.449 . S
O207 U206 2.454 . S
O207 C209 1.353 . S
O208 U206 2.458 . S
O208 C209 1.286 . S
C209 U206 2.984 . S
C209 O207 1.353 . S
C209 O208 1.286 . S
C209 C211 1.363 . S
C210 C200 1.465 . S
C210 U206 2.847 . S
C210 O224 1.249 . S
C210 O225 1.202 . S
C211 C209 1.363 . S
C211 C213 1.408 . S
C211 C216 1.342 . S
C212 C213 1.310 . S
C212 C215 1.461 . S
C212 H232 0.932 . S
C213 C211 1.408 . S
C213 C212 1.310 . S
C213 H233 0.930 . S
C214 C215 1.474 . S
C214 C216 1.285 . S
C214 H234 0.929 . S
C215 C212 1.461 . S
C215 C214 1.474 . S
C216 C211 1.342 . S
C216 C214 1.285 . S
C216 H235 0.930 . S
C217 C220 1.424 . S
C217 C222 1.245 . S
C217 C223 1.428 . S
C218 C221 1.260 . S
C218 C222 1.477 . S
C218 H236 0.932 . S
C219 C220 1.384 . S
C219 C221 1.479 . S
C219 H237 0.929 . S
C220 C217 1.424 . S
C220 C219 1.384 . S
C220 H238 0.928 . S
C221 C218 1.260 . S
C221 C219 1.479 . S
C222 C217 1.245 . S
C222 C218 1.477 . S
C222 H239 0.932 . S
C223 U206 2.882 . S
C223 C217 1.428 . S
C223 O226 1.301 . S
C223 O227 1.282 . S
O224 U206 2.441 . S
O224 C210 1.249 . S
O225 U206 2.420 . S
O225 C210 1.202 . S
O226 U206 2.455 . S
O226 C223 1.301 . S
O227 U206 2.449 . S
O227 C223 1.282 . S
H228 C201 0.931 . S
H229 C203 0.929 . S
H230 C204 0.930 . S
H231 C205 0.931 . S
H232 C212 0.932 . S
H233 C213 0.930 . S
H234 C214 0.929 . S
H235 C216 0.930 . S
H236 C218 0.932 . S
H237 C219 0.929 . S
H238 C220 0.928 . S
H239 C222 0.932 . S
C240 C241 1.264 . S
C240 C245 1.479 . S
C240 C250 1.465 . S
C241 C240 1.264 . S
C241 C243 1.339 . S
C241 H268 0.931 . S
C242 C243 1.395 . S
C242 C244 1.320 . S
C243 C241 1.339 . S
C243 C242 1.395 . S
C243 H269 0.929 . S
C244 C242 1.320 . S
C244 C245 1.405 . S
C244 H270 0.930 . S
C245 C240 1.479 . S
C245 C244 1.405 . S
C245 H271 0.931 . S
U246 O247 2.454 . S
U246 O248 2.458 . S
U246 C249 2.984 . S
U246 C250 2.847 . S
U246 C263 2.882 . S
U246 O264 2.441 . S
U246 O265 2.420 . S
U246 O266 2.455 . S
U246 O267 2.449 . S
O247 U246 2.454 . S
O247 C249 1.353 . S
O248 U246 2.458 . S
O248 C249 1.286 . S
C249 U246 2.984 . S
C249 O247 1.353 . S
C249 O248 1.286 . S
C249 C251 1.363 . S
C250 C240 1.465 . S
C250 U246 2.847 . S
C250 O264 1.249 . S
C250 O265 1.202 . S
C251 C249 1.363 . S
C251 C253 1.408 . S
C251 C256 1.342 . S
C252 C253 1.310 . S
C252 C255 1.461 . S
C252 H272 0.932 . S
C253 C251 1.408 . S
C253 C252 1.310 . S
C253 H273 0.930 . S
C254 C255 1.474 . S
C254 C256 1.285 . S
C254 H274 0.929 . S
C255 C252 1.461 . S
C255 C254 1.474 . S
C256 C251 1.342 . S
C256 C254 1.285 . S
C256 H275 0.930 . S
C257 C260 1.424 . S
C257 C262 1.245 . S
C257 C263 1.428 . S
C258 C261 1.260 . S
C258 C262 1.477 . S
C258 H276 0.932 . S
C259 C260 1.384 . S
C259 C261 1.479 . S
C259 H277 0.929 . S
C260 C257 1.424 . S
C260 C259 1.384 . S
C260 H278 0.928 . S
C261 C258 1.260 . S
C261 C259 1.479 . S
C262 C257 1.245 . S
C262 C258 1.477 . S
C262 H279 0.932 . S
C263 U246 2.882 . S
C263 C257 1.428 . S
C263 O266 1.301 . S
C263 O267 1.282 . S
O264 U246 2.441 . S
O264 C250 1.249 . S
O265 U246 2.420 . S
O265 C250 1.202 . S
O266 U246 2.455 . S
O266 C263 1.301 . S
O267 U246 2.449 . S
O267 C263 1.282 . S
H268 C241 0.931 . S
H269 C243 0.929 . S
H270 C244 0.930 . S
H271 C245 0.931 . S
H272 C252 0.932 . S
H273 C253 0.930 . S
H274 C254 0.929 . S
H275 C256 0.930 . S
H276 C258 0.932 . S
H277 C259 0.929 . S
H278 C260 0.928 . S
H279 C262 0.932 . S
C280 C281 1.264 . S
C280 C285 1.479 . S
C280 C290 1.465 . S
C281 C280 1.264 . S
C281 C283 1.339 . S
C281 H308 0.931 . S
C282 C283 1.395 . S
C282 C284 1.320 . S
C283 C281 1.339 . S
C283 C282 1.395 . S
C283 H309 0.929 . S
C284 C282 1.320 . S
C284 C285 1.405 . S
C284 H310 0.930 . S
C285 C280 1.479 . S
C285 C284 1.405 . S
C285 H311 0.931 . S
U286 O287 2.454 . S
U286 O288 2.458 . S
U286 C289 2.984 . S
U286 C290 2.847 . S
U286 C303 2.882 . S
U286 O304 2.441 . S
U286 O305 2.420 . S
U286 O306 2.455 . S
U286 O307 2.449 . S
O287 U286 2.454 . S
O287 C289 1.353 . S
O288 U286 2.458 . S
O288 C289 1.286 . S
C289 U286 2.984 . S
C289 O287 1.353 . S
C289 O288 1.286 . S
C289 C291 1.363 . S
C290 C280 1.465 . S
C290 U286 2.847 . S
C290 O304 1.249 . S
C290 O305 1.202 . S
C291 C289 1.363 . S
C291 C293 1.408 . S
C291 C296 1.342 . S
C292 C293 1.310 . S
C292 C295 1.461 . S
C292 H312 0.932 . S
C293 C291 1.408 . S
C293 C292 1.310 . S
C293 H313 0.930 . S
C294 C295 1.474 . S
C294 C296 1.285 . S
C294 H314 0.929 . S
C295 C292 1.461 . S
C295 C294 1.474 . S
C296 C291 1.342 . S
C296 C294 1.285 . S
C296 H315 0.930 . S
C297 C300 1.424 . S
C297 C302 1.245 . S
C297 C303 1.428 . S
C298 C301 1.260 . S
C298 C302 1.477 . S
C298 H316 0.932 . S
C299 C300 1.384 . S
C299 C301 1.479 . S
C299 H317 0.929 . S
C300 C297 1.424 . S
C300 C299 1.384 . S
C300 H318 0.928 . S
C301 C298 1.260 . S
C301 C299 1.479 . S
C302 C297 1.245 . S
C302 C298 1.477 . S
C302 H319 0.932 . S
C303 U286 2.882 . S
C303 C297 1.428 . S
C303 O306 1.301 . S
C303 O307 1.282 . S
O304 U286 2.441 . S
O304 C290 1.249 . S
O305 U286 2.420 . S
O305 C290 1.202 . S
O306 U286 2.455 . S
O306 C303 1.301 . S
O307 U286 2.449 . S
O307 C303 1.282 . S
H308 C281 0.931 . S
H309 C283 0.929 . S
H310 C284 0.930 . S
H311 C285 0.931 . S
H312 C292 0.932 . S
H313 C293 0.930 . S
H314 C294 0.929 . S
H315 C296 0.930 . S
H316 C298 0.932 . S
H317 C299 0.929 . S
H318 C300 0.928 . S
H319 C302 0.932 . S
C320 C321 1.264 . S
C320 C325 1.479 . S
C320 C330 1.465 . S
C321 C320 1.264 . S
C321 C323 1.339 . S
C321 H348 0.931 . S
C322 C323 1.395 . S
C322 C324 1.320 . S
C323 C321 1.339 . S
C323 C322 1.395 . S
C323 H349 0.929 . S
C324 C322 1.320 . S
C324 C325 1.405 . S
C324 H350 0.930 . S
C325 C320 1.479 . S
C325 C324 1.405 . S
C325 H351 0.931 . S
U326 O327 2.454 . S
U326 O328 2.458 . S
U326 C329 2.984 . S
U326 C330 2.847 . S
U326 C343 2.882 . S
U326 O344 2.441 . S
U326 O345 2.420 . S
U326 O346 2.455 . S
U326 O347 2.449 . S
O327 U326 2.454 . S
O327 C329 1.353 . S
O328 U326 2.458 . S
O328 C329 1.286 . S
C329 U326 2.984 . S
C329 O327 1.353 . S
C329 O328 1.286 . S
C329 C331 1.363 . S
C330 C320 1.465 . S
C330 U326 2.847 . S
C330 O344 1.249 . S
C330 O345 1.202 . S
C331 C329 1.363 . S
C331 C333 1.408 . S
C331 C336 1.342 . S
C332 C333 1.310 . S
C332 C335 1.461 . S
C332 H352 0.932 . S
C333 C331 1.408 . S
C333 C332 1.310 . S
C333 H353 0.930 . S
C334 C335 1.474 . S
C334 C336 1.285 . S
C334 H354 0.929 . S
C335 C332 1.461 . S
C335 C334 1.474 . S
C336 C331 1.342 . S
C336 C334 1.285 . S
C336 H355 0.930 . S
C337 C340 1.424 . S
C337 C342 1.245 . S
C337 C343 1.428 . S
C338 C341 1.260 . S
C338 C342 1.477 . S
C338 H356 0.932 . S
C339 C340 1.384 . S
C339 C341 1.479 . S
C339 H357 0.929 . S
C340 C337 1.424 . S
C340 C339 1.384 . S
C340 H358 0.928 . S
C341 C338 1.260 . S
C341 C339 1.479 . S
C342 C337 1.245 . S
C342 C338 1.477 . S
C342 H359 0.932 . S
C343 U326 2.882 . S
C343 C337 1.428 . S
C343 O346 1.301 . S
C343 O347 1.282 . S
O344 U326 2.441 . S
O344 C330 1.249 . S
O345 U326 2.420 . S
O345 C330 1.202 . S
O346 U326 2.455 . S
O346 C343 1.301 . S
O347 U326 2.449 . S
O347 C343 1.282 . S
H348 C321 0.931 . S
H349 C323 0.929 . S
H350 C324 0.930 . S
H351 C325 0.931 . S
H352 C332 0.932 . S
H353 C333 0.930 . S
H354 C334 0.929 . S
H355 C336 0.930 . S
H356 C338 0.932 . S
H357 C339 0.929 . S
H358 C340 0.928 . S
H359 C342 0.932 . S
C360 C361 1.264 . S
C360 C365 1.479 . S
C360 C370 1.465 . S
C361 C360 1.264 . S
C361 C363 1.339 . S
C361 H388 0.931 . S
C362 C363 1.395 . S
C362 C364 1.320 . S
C363 C361 1.339 . S
C363 C362 1.395 . S
C363 H389 0.929 . S
C364 C362 1.320 . S
C364 C365 1.405 . S
C364 H390 0.930 1_556 S
C365 C360 1.479 . S
C365 C364 1.405 . S
C365 H391 0.931 . S
U366 O367 2.454 . S
U366 O368 2.458 . S
U366 C369 2.984 . S
U366 C370 2.847 . S
U366 C383 2.882 . S
U366 O384 2.441 . S
U366 O385 2.420 . S
U366 O386 2.455 . S
U366 O387 2.449 . S
O367 U366 2.454 . S
O367 C369 1.353 . S
O368 U366 2.458 . S
O368 C369 1.286 . S
C369 U366 2.984 . S
C369 O367 1.353 . S
C369 O368 1.286 . S
C369 C371 1.363 . S
C370 C360 1.465 . S
C370 U366 2.847 . S
C370 O384 1.249 . S
C370 O385 1.202 . S
C371 C369 1.363 . S
C371 C373 1.408 . S
C371 C376 1.342 . S
C372 C373 1.310 . S
C372 C375 1.461 . S
C372 H392 0.932 1_556 S
C373 C371 1.408 . S
C373 C372 1.310 . S
C373 H393 0.930 . S
C374 C375 1.474 . S
C374 C376 1.285 . S
C374 H394 0.929 . S
C375 C372 1.461 . S
C375 C374 1.474 . S
C376 C371 1.342 . S
C376 C374 1.285 . S
C376 H395 0.930 . S
C377 C380 1.424 . S
C377 C382 1.245 . S
C377 C383 1.428 . S
C378 C381 1.260 . S
C378 C382 1.477 . S
C378 H396 0.932 . S
C379 C380 1.384 . S
C379 C381 1.479 . S
C379 H397 0.929 . S
C380 C377 1.424 . S
C380 C379 1.384 . S
C380 H398 0.928 . S
C381 C378 1.260 . S
C381 C379 1.479 . S
C382 C377 1.245 . S
C382 C378 1.477 . S
C382 H399 0.932 . S
C383 U366 2.882 . S
C383 C377 1.428 . S
C383 O386 1.301 . S
C383 O387 1.282 . S
O384 U366 2.441 . S
O384 C370 1.249 . S
O385 U366 2.420 . S
O385 C370 1.202 . S
O386 U366 2.455 . S
O386 C383 1.301 . S
O387 U366 2.449 . S
O387 C383 1.282 . S
H388 C361 0.931 . S
H389 C363 0.929 . S
H390 C364 0.930 1_554 S
H391 C365 0.931 . S
H392 C372 0.932 1_554 S
H393 C373 0.930 . S
H394 C374 0.929 . S
H395 C376 0.930 . S
H396 C378 0.932 . S
H397 C379 0.929 . S
H398 C380 0.928 . S
H399 C382 0.932 . S
C400 C401 1.264 . S
C400 C405 1.479 . S
C400 C410 1.465 . S
C401 C400 1.264 . S
C401 C403 1.339 . S
C401 H428 0.931 . S
C402 C403 1.395 . S
C402 C404 1.320 . S
C403 C401 1.339 . S
C403 C402 1.395 . S
C403 H429 0.929 . S
C404 C402 1.320 . S
C404 C405 1.405 . S
C404 H430 0.930 1_556 S
C405 C400 1.479 . S
C405 C404 1.405 . S
C405 H431 0.931 . S
U406 O407 2.454 . S
U406 O408 2.458 . S
U406 C409 2.984 . S
U406 C410 2.847 . S
U406 C423 2.882 . S
U406 O424 2.441 . S
U406 O425 2.420 . S
U406 O426 2.455 . S
U406 O427 2.449 . S
O407 U406 2.454 . S
O407 C409 1.353 . S
O408 U406 2.458 . S
O408 C409 1.286 . S
C409 U406 2.984 . S
C409 O407 1.353 . S
C409 O408 1.286 . S
C409 C411 1.363 . S
C410 C400 1.465 . S
C410 U406 2.847 . S
C410 O424 1.249 . S
C410 O425 1.202 . S
C411 C409 1.363 . S
C411 C413 1.408 . S
C411 C416 1.342 . S
C412 C413 1.310 . S
C412 C415 1.461 . S
C412 H432 0.932 1_556 S
C413 C411 1.408 . S
C413 C412 1.310 . S
C413 H433 0.930 . S
C414 C415 1.474 . S
C414 C416 1.285 . S
C414 H434 0.929 . S
C415 C412 1.461 . S
C415 C414 1.474 . S
C416 C411 1.342 . S
C416 C414 1.285 . S
C416 H435 0.930 . S
C417 C420 1.424 . S
C417 C422 1.245 . S
C417 C423 1.428 . S
C418 C421 1.260 . S
C418 C422 1.477 . S
C418 H436 0.932 . S
C419 C420 1.384 . S
C419 C421 1.479 . S
C419 H437 0.929 . S
C420 C417 1.424 . S
C420 C419 1.384 . S
C420 H438 0.928 . S
C421 C418 1.260 . S
C421 C419 1.479 . S
C422 C417 1.245 . S
C422 C418 1.477 . S
C422 H439 0.932 . S
C423 U406 2.882 . S
C423 C417 1.428 . S
C423 O426 1.301 . S
C423 O427 1.282 . S
O424 U406 2.441 . S
O424 C410 1.249 . S
O425 U406 2.420 . S
O425 C410 1.202 . S
O426 U406 2.455 . S
O426 C423 1.301 . S
O427 U406 2.449 . S
O427 C423 1.282 . S
H428 C401 0.931 . S
H429 C403 0.929 . S
H430 C404 0.930 1_554 S
H431 C405 0.931 . S
H432 C412 0.932 1_554 S
H433 C413 0.930 . S
H434 C414 0.929 . S
H435 C416 0.930 . S
H436 C418 0.932 . S
H437 C419 0.929 . S
H438 C420 0.928 . S
H439 C422 0.932 . S
C440 C441 1.264 . S
C440 C445 1.479 . S
C440 C450 1.465 . S
C441 C440 1.264 . S
C441 C443 1.339 . S
C441 H468 0.931 . S
C442 C443 1.395 . S
C442 C444 1.320 . S
C443 C441 1.339 . S
C443 C442 1.395 . S
C443 H469 0.929 . S
C444 C442 1.320 . S
C444 C445 1.405 . S
C444 H470 0.930 1_556 S
C445 C440 1.479 . S
C445 C444 1.405 . S
C445 H471 0.931 . S
U446 O447 2.454 . S
U446 O448 2.458 . S
U446 C449 2.984 . S
U446 C450 2.847 . S
U446 C463 2.882 . S
U446 O464 2.441 . S
U446 O465 2.420 . S
U446 O466 2.455 . S
U446 O467 2.449 . S
O447 U446 2.454 . S
O447 C449 1.353 . S
O448 U446 2.458 . S
O448 C449 1.286 . S
C449 U446 2.984 . S
C449 O447 1.353 . S
C449 O448 1.286 . S
C449 C451 1.363 . S
C450 C440 1.465 . S
C450 U446 2.847 . S
C450 O464 1.249 . S
C450 O465 1.202 . S
C451 C449 1.363 . S
C451 C453 1.408 . S
C451 C456 1.342 . S
C452 C453 1.310 . S
C452 C455 1.461 . S
C452 H472 0.932 1_556 S
C453 C451 1.408 . S
C453 C452 1.310 . S
C453 H473 0.930 . S
C454 C455 1.474 . S
C454 C456 1.285 . S
C454 H474 0.929 . S
C455 C452 1.461 . S
C455 C454 1.474 . S
C456 C451 1.342 . S
C456 C454 1.285 . S
C456 H475 0.930 . S
C457 C460 1.424 . S
C457 C462 1.245 . S
C457 C463 1.428 . S
C458 C461 1.260 . S
C458 C462 1.477 . S
C458 H476 0.932 . S
C459 C460 1.384 . S
C459 C461 1.479 . S
C459 H477 0.929 . S
C460 C457 1.424 . S
C460 C459 1.384 . S
C460 H478 0.928 . S
C461 C458 1.260 . S
C461 C459 1.479 . S
C462 C457 1.245 . S
C462 C458 1.477 . S
C462 H479 0.932 . S
C463 U446 2.882 . S
C463 C457 1.428 . S
C463 O466 1.301 . S
C463 O467 1.282 . S
O464 U446 2.441 . S
O464 C450 1.249 . S
O465 U446 2.420 . S
O465 C450 1.202 . S
O466 U446 2.455 . S
O466 C463 1.301 . S
O467 U446 2.449 . S
O467 C463 1.282 . S
H468 C441 0.931 . S
H469 C443 0.929 . S
H470 C444 0.930 1_554 S
H471 C445 0.931 . S
H472 C452 0.932 1_554 S
H473 C453 0.930 . S
H474 C454 0.929 . S
H475 C456 0.930 . S
H476 C458 0.932 . S
H477 C459 0.929 . S
H478 C460 0.928 . S
H479 C462 0.932 . S
C480 C481 1.264 . S
C480 C485 1.479 . S
C480 C490 1.465 . S
C481 C480 1.264 . S
C481 C483 1.339 . S
C481 H508 0.931 . S
C482 C483 1.395 . S
C482 C484 1.320 . S
C483 C481 1.339 . S
C483 C482 1.395 . S
C483 H509 0.929 . S
C484 C482 1.320 . S
C484 C485 1.405 . S
C484 H510 0.930 . S
C485 C480 1.479 . S
C485 C484 1.405 . S
C485 H511 0.931 . S
U486 O487 2.454 . S
U486 O488 2.458 . S
U486 C489 2.984 . S
U486 C490 2.847 . S
U486 C503 2.882 . S
U486 O504 2.441 . S
U486 O505 2.420 . S
U486 O506 2.455 . S
U486 O507 2.449 . S
O487 U486 2.454 . S
O487 C489 1.353 . S
O488 U486 2.458 . S
O488 C489 1.286 . S
C489 U486 2.984 . S
C489 O487 1.353 . S
C489 O488 1.286 . S
C489 C491 1.363 . S
C490 C480 1.465 . S
C490 U486 2.847 . S
C490 O504 1.249 . S
C490 O505 1.202 . S
C491 C489 1.363 . S
C491 C493 1.408 . S
C491 C496 1.342 . S
C492 C493 1.310 . S
C492 C495 1.461 . S
C492 H512 0.932 . S
C493 C491 1.408 . S
C493 C492 1.310 . S
C493 H513 0.930 . S
C494 C495 1.474 . S
C494 C496 1.285 . S
C494 H514 0.929 . S
C495 C492 1.461 . S
C495 C494 1.474 . S
C496 C491 1.342 . S
C496 C494 1.285 . S
C496 H515 0.930 . S
C497 C500 1.424 . S
C497 C502 1.245 . S
C497 C503 1.428 . S
C498 C501 1.260 . S
C498 C502 1.477 . S
C498 H516 0.932 . S
C499 C500 1.384 . S
C499 C501 1.479 . S
C499 H517 0.929 . S
C500 C497 1.424 . S
C500 C499 1.384 . S
C500 H518 0.928 . S
C501 C498 1.260 . S
C501 C499 1.479 . S
C502 C497 1.245 . S
C502 C498 1.477 . S
C502 H519 0.932 . S
C503 U486 2.882 . S
C503 C497 1.428 . S
C503 O506 1.301 . S
C503 O507 1.282 . S
O504 U486 2.441 . S
O504 C490 1.249 . S
O505 U486 2.420 . S
O505 C490 1.202 . S
O506 U486 2.455 . S
O506 C503 1.301 . S
O507 U486 2.449 . S
O507 C503 1.282 . S
H508 C481 0.931 . S
H509 C483 0.929 . S
H510 C484 0.930 . S
H511 C485 0.931 . S
H512 C492 0.932 . S
H513 C493 0.930 . S
H514 C494 0.929 . S
H515 C496 0.930 . S
H516 C498 0.932 . S
H517 C499 0.929 . S
H518 C500 0.928 . S
H519 C502 0.932 . S
C520 C521 1.264 . S
C520 C525 1.479 . S
C520 C530 1.465 . S
C521 C520 1.264 . S
C521 C523 1.339 . S
C521 H548 0.931 . S
C522 C523 1.395 . S
C522 C524 1.320 . S
C523 C521 1.339 . S
C523 C522 1.395 . S
C523 H549 0.929 . S
C524 C522 1.320 . S
C524 C525 1.405 . S
C524 H550 0.930 . S
C525 C520 1.479 . S
C525 C524 1.405 . S
C525 H551 0.931 . S
U526 O527 2.454 . S
U526 O528 2.458 . S
U526 C529 2.984 . S
U526 C530 2.847 . S
U526 C543 2.882 . S
U526 O544 2.441 . S
U526 O545 2.420 . S
U526 O546 2.455 . S
U526 O547 2.449 . S
O527 U526 2.454 . S
O527 C529 1.353 . S
O528 U526 2.458 . S
O528 C529 1.286 . S
C529 U526 2.984 . S
C529 O527 1.353 . S
C529 O528 1.286 . S
C529 C531 1.363 . S
C530 C520 1.465 . S
C530 U526 2.847 . S
C530 O544 1.249 . S
C530 O545 1.202 . S
C531 C529 1.363 . S
C531 C533 1.408 . S
C531 C536 1.342 . S
C532 C533 1.310 . S
C532 C535 1.461 . S
C532 H552 0.973 . S
C533 C531 1.408 . S
C533 C532 1.310 . S
C533 H553 0.930 . S
C534 C535 1.474 . S
C534 C536 1.285 . S
C534 H554 0.929 . S
C535 C532 1.461 . S
C535 C534 1.474 . S
C536 C531 1.342 . S
C536 C534 1.285 . S
C536 H555 0.930 . S
C537 C540 1.424 . S
C537 C542 1.245 . S
C537 C543 1.428 . S
C538 C541 1.260 . S
C538 C542 1.477 . S
C538 H556 0.932 . S
C539 C540 1.384 . S
C539 C541 1.479 . S
C539 H557 0.929 . S
C540 C537 1.424 . S
C540 C539 1.384 . S
C540 H558 0.928 . S
C541 C538 1.260 . S
C541 C539 1.479 . S
C542 C537 1.245 . S
C542 C538 1.477 . S
C542 H559 0.932 . S
C543 U526 2.882 . S
C543 C537 1.428 . S
C543 O546 1.301 . S
C543 O547 1.282 . S
O544 U526 2.441 . S
O544 C530 1.249 . S
O545 U526 2.420 . S
O545 C530 1.202 . S
O546 U526 2.455 . S
O546 C543 1.301 . S
O547 U526 2.449 . S
O547 C543 1.282 . S
H548 C521 0.931 . S
H549 C523 0.929 . S
H550 C524 0.930 . S
H551 C525 0.931 . S
H552 C532 0.973 . S
H553 C533 0.930 . S
H554 C534 0.929 . S
H555 C536 0.930 . S
H556 C538 0.932 . S
H557 C539 0.929 . S
H558 C540 0.928 . S
H559 C542 0.932 . S
C560 C561 1.264 . S
C560 C565 1.479 . S
C560 C570 1.465 . S
C561 C560 1.264 . S
C561 C563 1.339 . S
C561 H588 0.931 . S
C562 C563 1.395 . S
C562 C564 1.320 . S
C563 C561 1.339 . S
C563 C562 1.395 . S
C563 H589 0.929 . S
C564 C562 1.320 . S
C564 C565 1.405 . S
C564 H590 0.930 . S
C565 C560 1.479 . S
C565 C564 1.405 . S
C565 H591 0.931 . S
U566 O567 2.454 . S
U566 O568 2.458 . S
U566 C569 2.984 . S
U566 C570 2.847 . S
U566 C583 2.882 . S
U566 O584 2.441 . S
U566 O585 2.420 . S
U566 O586 2.455 . S
U566 O587 2.449 . S
O567 U566 2.454 . S
O567 C569 1.353 . S
O568 U566 2.458 . S
O568 C569 1.286 . S
C569 U566 2.984 . S
C569 O567 1.353 . S
C569 O568 1.286 . S
C569 C571 1.363 . S
C570 C560 1.465 . S
C570 U566 2.847 . S
C570 O584 1.249 . S
C570 O585 1.202 . S
C571 C569 1.363 . S
C571 C573 1.408 . S
C571 C576 1.342 . S
C572 C573 1.310 . S
C572 C575 1.461 . S
C572 H592 0.932 . S
C573 C571 1.408 . S
C573 C572 1.310 . S
C573 H593 0.930 . S
C574 C575 1.474 . S
C574 C576 1.285 . S
C574 H594 0.929 . S
C575 C572 1.461 . S
C575 C574 1.474 . S
C576 C571 1.342 . S
C576 C574 1.285 . S
C576 H595 0.930 . S
C577 C580 1.424 . S
C577 C582 1.245 . S
C577 C583 1.428 . S
C578 C581 1.260 . S
C578 C582 1.477 . S
C578 H596 0.932 . S
C579 C580 1.384 . S
C579 C581 1.479 . S
C579 H597 0.929 . S
C580 C577 1.424 . S
C580 C579 1.384 . S
C580 H598 0.928 . S
C581 C578 1.260 . S
C581 C579 1.479 . S
C582 C577 1.245 . S
C582 C578 1.477 . S
C582 H599 0.932 . S
C583 U566 2.882 . S
C583 C577 1.428 . S
C583 O586 1.301 . S
C583 O587 1.282 . S
O584 U566 2.441 . S
O584 C570 1.249 . S
O585 U566 2.420 . S
O585 C570 1.202 . S
O586 U566 2.455 . S
O586 C583 1.301 . S
O587 U566 2.449 . S
O587 C583 1.282 . S
H588 C561 0.931 . S
H589 C563 0.929 . S
H590 C564 0.930 . S
H591 C565 0.931 . S
H592 C572 0.932 . S
H593 C573 0.930 . S
H594 C574 0.929 . S
H595 C576 0.930 . S
H596 C578 0.932 . S
H597 C579 0.929 . S
H598 C580 0.928 . S
H599 C582 0.932 . S
C600 C601 1.264 . S
C600 C605 1.479 . S
C600 C610 1.465 . S
C601 C600 1.264 . S
C601 C603 1.339 . S
C601 H628 0.931 . S
C602 C603 1.395 . S
C602 C604 1.320 . S
C603 C601 1.339 . S
C603 C602 1.395 . S
C603 H629 0.929 . S
C604 C602 1.320 . S
C604 C605 1.405 . S
C604 H630 0.930 . S
C605 C600 1.479 . S
C605 C604 1.405 . S
C605 H631 0.931 . S
U606 O607 2.454 . S
U606 O608 2.458 . S
U606 C609 2.984 . S
U606 C610 2.847 . S
U606 C623 2.882 . S
U606 O624 2.441 . S
U606 O625 2.420 . S
U606 O626 2.455 . S
U606 O627 2.449 . S
O607 U606 2.454 . S
O607 C609 1.353 . S
O608 U606 2.458 . S
O608 C609 1.286 . S
C609 U606 2.984 . S
C609 O607 1.353 . S
C609 O608 1.286 . S
C609 C611 1.363 . S
C610 C600 1.465 . S
C610 U606 2.847 . S
C610 O624 1.249 . S
C610 O625 1.202 . S
C611 C609 1.363 . S
C611 C613 1.408 . S
C611 C616 1.342 . S
C612 C613 1.310 . S
C612 C615 1.461 . S
C612 H632 0.932 . S
C613 C611 1.408 . S
C613 C612 1.310 . S
C613 H633 0.930 . S
C614 C615 1.474 . S
C614 C616 1.285 . S
C614 H634 0.929 . S
C615 C612 1.461 . S
C615 C614 1.474 . S
C616 C611 1.342 . S
C616 C614 1.285 . S
C616 H635 0.930 . S
C617 C620 1.424 . S
C617 C622 1.245 . S
C617 C623 1.428 . S
C618 C621 1.260 . S
C618 C622 1.477 . S
C618 H636 0.932 . S
C619 C620 1.384 . S
C619 C621 1.479 . S
C619 H637 0.929 . S
C620 C617 1.424 . S
C620 C619 1.384 . S
C620 H638 0.928 . S
C621 C618 1.260 . S
C621 C619 1.479 . S
C622 C617 1.245 . S
C622 C618 1.477 . S
C622 H639 0.932 . S
C623 U606 2.882 . S
C623 C617 1.428 . S
C623 O626 1.301 . S
C623 O627 1.282 . S
O624 U606 2.441 . S
O624 C610 1.249 . S
O625 U606 2.420 . S
O625 C610 1.202 . S
O626 U606 2.455 . S
O626 C623 1.301 . S
O627 U606 2.449 . S
O627 C623 1.282 . S
H628 C601 0.931 . S
H629 C603 0.929 . S
H630 C604 0.930 . S
H631 C605 0.931 . S
H632 C612 0.932 . S
H633 C613 0.930 . S
H634 C614 0.929 . S
H635 C616 0.930 . S
H636 C618 0.932 . S
H637 C619 0.929 . S
H638 C620 0.928 . S
H639 C622 0.932 . S
C640 C641 1.264 . S
C640 C645 1.479 . S
C640 C650 1.465 . S
C641 C640 1.264 . S
C641 C643 1.339 . S
C641 H668 0.931 . S
C642 C643 1.395 . S
C642 C644 1.320 . S
C643 C641 1.339 . S
C643 C642 1.395 . S
C643 H669 0.929 . S
C644 C642 1.320 . S
C644 C645 1.405 . S
C644 H670 0.930 . S
C645 C640 1.479 . S
C645 C644 1.405 . S
C645 H671 0.931 . S
U646 O647 2.454 . S
U646 O648 2.458 . S
U646 C649 2.984 . S
U646 C650 2.847 . S
U646 C663 2.882 . S
U646 O664 2.441 . S
U646 O665 2.420 . S
U646 O666 2.455 . S
U646 O667 2.449 . S
O647 U646 2.454 . S
O647 C649 1.353 . S
O648 U646 2.458 . S
O648 C649 1.286 . S
C649 U646 2.984 . S
C649 O647 1.353 . S
C649 O648 1.286 . S
C649 C651 1.363 . S
C650 C640 1.465 . S
C650 U646 2.847 . S
C650 O664 1.249 . S
C650 O665 1.202 . S
C651 C649 1.363 . S
C651 C653 1.408 . S
C651 C656 1.342 . S
C652 C653 1.310 . S
C652 C655 1.461 . S
C652 H672 0.932 . S
C653 C651 1.408 . S
C653 C652 1.310 . S
C653 H673 0.930 . S
C654 C655 1.474 . S
C654 C656 1.285 . S
C654 H674 0.929 . S
C655 C652 1.461 . S
C655 C654 1.474 . S
C656 C651 1.342 . S
C656 C654 1.285 . S
C656 H675 0.930 . S
C657 C660 1.424 . S
C657 C662 1.245 . S
C657 C663 1.428 . S
C658 C661 1.260 . S
C658 C662 1.477 . S
C658 H676 0.932 . S
C659 C660 1.384 . S
C659 C661 1.479 . S
C659 H677 0.929 . S
C660 C657 1.424 . S
C660 C659 1.384 . S
C660 H678 0.928 . S
C661 C658 1.260 . S
C661 C659 1.479 . S
C662 C657 1.245 . S
C662 C658 1.477 . S
C662 H679 0.932 . S
C663 U646 2.882 . S
C663 C657 1.428 . S
C663 O666 1.301 . S
C663 O667 1.282 . S
O664 U646 2.441 . S
O664 C650 1.249 . S
O665 U646 2.420 . S
O665 C650 1.202 . S
O666 U646 2.455 . S
O666 C663 1.301 . S
O667 U646 2.449 . S
O667 C663 1.282 . S
H668 C641 0.931 . S
H669 C643 0.929 . S
H670 C644 0.930 . S
H671 C645 0.931 . S
H672 C652 0.932 . S
H673 C653 0.930 . S
H674 C654 0.929 . S
H675 C656 0.930 . S
H676 C658 0.932 . S
H677 C659 0.929 . S
H678 C660 0.928 . S
H679 C662 0.932 . S
C680 C681 1.264 . S
C680 C685 1.479 . S
C680 C690 1.465 . S
C681 C680 1.264 . S
C681 C683 1.339 . S
C681 H708 0.931 . S
C682 C683 1.395 . S
C682 C684 1.320 . S
C683 C681 1.339 . S
C683 C682 1.395 . S
C683 H709 0.929 . S
C684 C682 1.320 . S
C684 C685 1.405 . S
C684 H710 0.930 . S
C685 C680 1.479 . S
C685 C684 1.405 . S
C685 H711 0.931 . S
U686 O687 2.454 . S
U686 O688 2.458 . S
U686 C689 2.984 . S
U686 C690 2.847 . S
U686 C703 2.882 . S
U686 O704 2.441 . S
U686 O705 2.420 . S
U686 O706 2.455 . S
U686 O707 2.449 . S
O687 U686 2.454 . S
O687 C689 1.353 . S
O688 U686 2.458 . S
O688 C689 1.286 . S
C689 U686 2.984 . S
C689 O687 1.353 . S
C689 O688 1.286 . S
C689 C691 1.363 . S
C690 C680 1.465 . S
C690 U686 2.847 . S
C690 O704 1.249 . S
C690 O705 1.202 . S
C691 C689 1.363 . S
C691 C693 1.408 . S
C691 C696 1.342 . S
C692 C693 1.310 . S
C692 C695 1.461 . S
C692 H712 0.932 . S
C693 C691 1.408 . S
C693 C692 1.310 . S
C693 H713 0.930 . S
C694 C695 1.474 . S
C694 C696 1.285 . S
C694 H714 0.929 . S
C695 C692 1.461 . S
C695 C694 1.474 . S
C696 C691 1.342 . S
C696 C694 1.285 . S
C696 H715 0.930 . S
C697 C700 1.424 . S
C697 C702 1.245 . S
C697 C703 1.428 . S
C698 C701 1.260 . S
C698 C702 1.477 . S
C698 H716 0.932 . S
C699 C700 1.384 . S
C699 C701 1.479 . S
C699 H717 0.929 . S
C700 C697 1.424 . S
C700 C699 1.384 . S
C700 H718 0.928 . S
C701 C698 1.260 . S
C701 C699 1.479 . S
C702 C697 1.245 . S
C702 C698 1.477 . S
C702 H719 0.932 . S
C703 U686 2.882 . S
C703 C697 1.428 . S
C703 O706 1.301 . S
C703 O707 1.282 . S
O704 U686 2.441 . S
O704 C690 1.249 . S
O705 U686 2.420 . S
O705 C690 1.202 . S
O706 U686 2.455 . S
O706 C703 1.301 . S
O707 U686 2.449 . S
O707 C703 1.282 . S
H708 C681 0.931 . S
H709 C683 0.929 . S
H710 C684 0.930 . S
H711 C685 0.931 . S
H712 C692 0.932 . S
H713 C693 0.930 . S
H714 C694 0.929 . S
H715 C696 0.930 . S
H716 C698 0.932 . S
H717 C699 0.929 . S
H718 C700 0.928 . S
H719 C702 0.932 . S
O720 Mn721 2.163 1_565 S
O720 C734 1.244 . S
Mn721 O720 2.163 1_545 S
Mn721 O724 2.160 . S
Mn721 O725 2.221 1_545 S
Mn721 O727 2.163 1_554 S
Mn721 O729 2.160 . S
Mn721 O739 2.221 . S
O722 Mn723 2.087 1_565 S
O722 C734 1.256 . S
Mn723 O722 2.087 1_545 S
Mn723 O730 2.089 . S
Mn723 O739 2.290 . S
Mn723 O740 2.251 . S
O724 Mn721 2.160 . S
O724 C735 1.239 1_554 S
O725 Mn721 2.221 1_565 S
O725 Mn726 2.290 1_554 S
O725 C736 1.289 . S
Mn726 O725 2.290 1_556 S
Mn726 O728 2.089 1_565 S
Mn726 O731 2.251 . S
Mn726 O732 2.087 . S
O727 Mn721 2.163 1_556 S
O727 C737 1.244 . S
O728 Mn726 2.089 1_545 S
O728 C735 1.256 . S
O729 Mn721 2.160 . S
O729 C738 1.239 . S
O730 Mn723 2.089 . S
O730 C738 1.256 . S
O731 Mn726 2.251 . S
O731 C736 1.196 1_556 S
O732 Mn726 2.087 . S
O732 C737 1.256 1_565 S
C733 O739 1.278 . S
C733 O740 1.241 . S
C734 O720 1.244 . S
C734 O722 1.256 . S
C735 O724 1.239 1_556 S
C735 O728 1.256 . S
C736 O725 1.289 . S
C736 O731 1.196 1_554 S
C737 O727 1.244 . S
C737 O732 1.256 1_545 S
C738 O729 1.239 . S
C738 O730 1.256 . S
O739 Mn721 2.221 . S
O739 Mn723 2.290 . S
O739 C733 1.278 . S
O740 Mn723 2.251 . S
O740 C733 1.241 . S
O741 Mn742 2.117 1_455 S
O741 C755 1.244 . S
Mn742 O741 2.117 1_655 S
Mn742 O745 2.206 . S
Mn742 O746 2.217 1_655 S
Mn742 O748 2.163 1_554 S
Mn742 O750 2.163 . S
Mn742 O760 2.229 . S
O743 Mn744 2.087 1_455 S
O743 C755 1.256 . S
Mn744 O743 2.087 1_655 S
Mn744 O751 2.089 1_655 S
Mn744 O760 2.290 . S
Mn744 O761 2.251 . S
O745 Mn742 2.206 . S
O745 C756 1.239 1_554 S
O746 Mn742 2.217 1_455 S
O746 Mn747 2.290 1_554 S
O746 C757 1.278 . S
Mn747 O746 2.290 1_556 S
Mn747 O749 2.089 1_455 S
Mn747 O752 2.251 . S
Mn747 O753 2.087 . S
O748 Mn742 2.163 1_556 S
O748 C758 1.244 1_655 S
O749 Mn747 2.089 1_655 S
O749 C756 1.256 . S
O750 Mn742 2.163 . S
O750 C759 1.239 1_655 S
O751 Mn744 2.089 1_455 S
O751 C759 1.256 . S
O752 Mn747 2.251 . S
O752 C757 1.241 1_556 S
O753 Mn747 2.087 . S
O753 C758 1.256 . S
C754 O760 1.278 . S
C754 O761 1.241 . S
C755 O741 1.244 . S
C755 O743 1.256 . S
C756 O745 1.239 1_556 S
C756 O749 1.256 . S
C757 O746 1.278 . S
C757 O752 1.241 1_554 S
C758 O748 1.244 1_455 S
C758 O753 1.256 . S
C759 O750 1.239 1_455 S
C759 O751 1.256 . S
O760 Mn742 2.229 . S
O760 Mn744 2.290 . S
O760 C754 1.278 . S
O761 Mn744 2.251 . S
O761 C754 1.241 . S
O762 Mn763 2.164 . S
O762 C776 1.244 . S
Mn763 O762 2.164 . S
Mn763 O766 2.159 1_556 S
Mn763 O767 2.220 1_556 S
Mn763 O769 2.153 1_556 S
Mn763 O771 2.169 . S
Mn763 O781 2.222 . S
O764 Mn765 2.087 . S
O764 C776 1.256 . S
Mn765 O764 2.087 . S
Mn765 O772 2.089 . S
Mn765 O781 2.290 . S
Mn765 O782 2.251 1_556 S
O766 Mn763 2.159 1_554 S
O766 C777 1.246 . S
O767 Mn763 2.220 1_554 S
O767 Mn768 2.290 . S
O767 C778 1.278 . S
Mn768 O767 2.290 . S
Mn768 O770 2.089 . S
Mn768 O773 2.251 . S
Mn768 O774 2.087 . S
O769 Mn763 2.153 1_554 S
O769 C779 1.244 . S
O770 Mn768 2.089 . S
O770 C777 1.256 . S
O771 Mn763 2.169 . S
O771 C780 1.239 . S
O772 Mn765 2.089 . S
O772 C780 1.256 . S
O773 Mn768 2.251 . S
O773 C778 1.241 . S
O774 Mn768 2.087 . S
O774 C779 1.256 . S
C775 O781 1.278 1_554 S
C775 O782 1.241 . S
C776 O762 1.244 . S
C776 O764 1.256 . S
C777 O766 1.246 . S
C777 O770 1.256 . S
C778 O767 1.278 . S
C778 O773 1.241 . S
C779 O769 1.244 . S
C779 O774 1.256 . S
C780 O771 1.239 . S
C780 O772 1.256 . S
O781 Mn763 2.222 . S
O781 Mn765 2.290 . S
O781 C775 1.278 1_556 S
O782 Mn765 2.251 1_554 S
O782 C775 1.241 . S
O783 Mn784 2.163 . S
O783 C797 1.244 . S
Mn784 O783 2.163 . S
Mn784 O787 2.160 . S
Mn784 O788 2.221 . S
Mn784 O790 2.163 . S
Mn784 O792 2.160 . S
Mn784 O802 2.221 . S
O785 Mn786 2.087 . S
O785 C797 1.256 . S
Mn786 O785 2.087 . S
Mn786 O793 2.089 . S
Mn786 O802 2.290 . S
Mn786 O803 2.251 . S
O787 Mn784 2.160 . S
O787 C798 1.239 . S
O788 Mn784 2.221 . S
O788 Mn789 2.290 . S
O788 C799 1.278 . S
Mn789 O788 2.290 . S
Mn789 O791 2.089 . S
Mn789 O794 2.251 . S
Mn789 O795 2.087 . S
O790 Mn784 2.163 . S
O790 C800 1.244 . S
O791 Mn789 2.089 . S
O791 C798 1.256 . S
O792 Mn784 2.160 . S
O792 C801 1.239 . S
O793 Mn786 2.089 . S
O793 C801 1.256 . S
O794 Mn789 2.251 . S
O794 C799 1.241 . S
O795 Mn789 2.087 . S
O795 C800 1.256 . S
C796 O802 1.278 . S
C796 O803 1.241 . S
C797 O783 1.244 . S
C797 O785 1.256 . S
C798 O787 1.239 . S
C798 O791 1.256 . S
C799 O788 1.278 . S
C799 O794 1.241 . S
C800 O790 1.244 . S
C800 O795 1.256 . S
C801 O792 1.239 . S
C801 O793 1.256 . S
O802 Mn784 2.221 . S
O802 Mn786 2.290 . S
O802 C796 1.278 . S
O803 Mn786 2.251 . S
O803 C796 1.241 . S
O804 Mn805 2.163 . S
O804 C818 1.244 . S
Mn805 O804 2.163 . S
Mn805 O808 2.160 . S
Mn805 O809 2.221 . S
Mn805 O811 2.163 . S
Mn805 O813 2.160 . S
Mn805 O823 2.221 . S
O806 Mn807 2.087 . S
O806 C818 1.256 . S
Mn807 O806 2.087 . S
Mn807 O814 2.089 . S
Mn807 O823 2.290 . S
Mn807 O824 2.251 . S
O808 Mn805 2.160 . S
O808 C819 1.239 . S
O809 Mn805 2.221 . S
O809 Mn810 2.290 . S
O809 C820 1.278 . S
Mn810 O809 2.290 . S
Mn810 O812 2.089 . S
Mn810 O815 2.251 . S
Mn810 O816 2.087 . S
O811 Mn805 2.163 . S
O811 C821 1.244 . S
O812 Mn810 2.089 . S
O812 C819 1.256 . S
O813 Mn805 2.160 . S
O813 C822 1.239 . S
O814 Mn807 2.089 . S
O814 C822 1.256 . S
O815 Mn810 2.251 . S
O815 C820 1.241 . S
O816 Mn810 2.087 . S
O816 C821 1.256 . S
C817 O823 1.278 . S
C817 O824 1.241 . S
C818 O804 1.244 . S
C818 O806 1.256 . S
C819 O808 1.239 . S
C819 O812 1.256 . S
C820 O809 1.278 . S
C820 O815 1.241 . S
C821 O811 1.244 . S
C821 O816 1.256 . S
C822 O813 1.239 . S
C822 O814 1.256 . S
O823 Mn805 2.221 . S
O823 Mn807 2.290 . S
O823 C817 1.278 . S
O824 Mn807 2.251 . S
O824 C817 1.241 . S
O825 Mn826 2.163 . S
O825 C839 1.244 . S
Mn826 O825 2.163 . S
Mn826 O829 2.160 . S
Mn826 O830 2.221 . S
Mn826 O832 2.163 . S
Mn826 O834 2.160 . S
Mn826 O844 2.221 . S
O827 Mn828 2.087 . S
O827 C839 1.256 . S
Mn828 O827 2.087 . S
Mn828 O835 2.089 . S
Mn828 O844 2.290 . S
Mn828 O845 2.251 . S
O829 Mn826 2.160 . S
O829 C840 1.239 . S
O830 Mn826 2.221 . S
O830 Mn831 2.290 . S
O830 C841 1.278 . S
Mn831 O830 2.290 . S
Mn831 O833 2.089 . S
Mn831 O836 2.251 . S
Mn831 O837 2.087 . S
O832 Mn826 2.163 . S
O832 C842 1.244 . S
O833 Mn831 2.089 . S
O833 C840 1.256 . S
O834 Mn826 2.160 . S
O834 C843 1.239 . S
O835 Mn828 2.089 . S
O835 C843 1.256 . S
O836 Mn831 2.251 . S
O836 C841 1.241 . S
O837 Mn831 2.087 . S
O837 C842 1.256 . S
C838 O844 1.278 . S
C838 O845 1.241 . S
C839 O825 1.244 . S
C839 O827 1.256 . S
C840 O829 1.239 . S
C840 O833 1.256 . S
C841 O830 1.278 . S
C841 O836 1.241 . S
C842 O832 1.244 . S
C842 O837 1.256 . S
C843 O834 1.239 . S
C843 O835 1.256 . S
O844 Mn826 2.221 . S
O844 Mn828 2.290 . S
O844 C838 1.278 . S
O845 Mn828 2.251 . S
O845 C838 1.241 . S
O846 Mn847 2.163 . S
O846 C860 1.244 . S
Mn847 O846 2.163 . S
Mn847 O850 2.160 . S
Mn847 O851 2.221 . S
Mn847 O853 2.163 . S
Mn847 O855 2.160 . S
Mn847 O865 2.221 . S
O848 Mn849 2.087 . S
O848 C860 1.256 . S
Mn849 O848 2.087 . S
Mn849 O856 2.089 . S
Mn849 O865 2.290 . S
Mn849 O866 2.251 . S
O850 Mn847 2.160 . S
O850 C861 1.239 . S
O851 Mn847 2.221 . S
O851 Mn852 2.290 . S
O851 C862 1.278 . S
Mn852 O851 2.290 . S
Mn852 O854 2.089 . S
Mn852 O857 2.251 . S
Mn852 O858 2.087 . S
O853 Mn847 2.163 . S
O853 C863 1.244 . S
O854 Mn852 2.089 . S
O854 C861 1.256 . S
O855 Mn847 2.160 . S
O855 C864 1.239 . S
O856 Mn849 2.089 . S
O856 C864 1.256 . S
O857 Mn852 2.251 . S
O857 C862 1.241 . S
O858 Mn852 2.087 . S
O858 C863 1.256 . S
C859 O865 1.278 . S
C859 O866 1.241 . S
C860 O846 1.244 . S
C860 O848 1.256 . S
C861 O850 1.239 . S
C861 O854 1.256 . S
C862 O851 1.278 . S
C862 O857 1.241 . S
C863 O853 1.244 . S
C863 O858 1.256 . S
C864 O855 1.239 . S
C864 O856 1.256 . S
O865 Mn847 2.221 . S
O865 Mn849 2.290 . S
O865 C859 1.278 . S
O866 Mn849 2.251 . S
O866 C859 1.241 . S
O867 Mn868 2.163 . S
O867 C881 1.244 . S
Mn868 O867 2.163 . S
Mn868 O871 2.160 . S
Mn868 O872 2.221 . S
Mn868 O874 2.163 . S
Mn868 O876 2.160 . S
Mn868 O886 2.221 . S
O869 Mn870 2.087 . S
O869 C881 1.256 . S
Mn870 O869 2.087 . S
Mn870 O877 2.089 . S
Mn870 O886 2.290 . S
Mn870 O887 2.251 . S
O871 Mn868 2.160 . S
O871 C882 1.239 . S
O872 Mn868 2.221 . S
O872 Mn873 2.290 . S
O872 C883 1.278 . S
Mn873 O872 2.290 . S
Mn873 O875 2.089 . S
Mn873 O878 2.251 . S
Mn873 O879 2.087 . S
O874 Mn868 2.163 . S
O874 C884 1.244 . S
O875 Mn873 2.089 . S
O875 C882 1.256 . S
O876 Mn868 2.160 . S
O876 C885 1.239 . S
O877 Mn870 2.089 . S
O877 C885 1.256 . S
O878 Mn873 2.251 . S
O878 C883 1.241 . S
O879 Mn873 2.087 . S
O879 C884 1.256 . S
C880 O886 1.278 . S
C880 O887 1.241 . S
C881 O867 1.244 . S
C881 O869 1.256 . S
C882 O871 1.239 . S
C882 O875 1.256 . S
C883 O872 1.278 . S
C883 O878 1.241 . S
C884 O874 1.244 . S
C884 O879 1.256 . S
C885 O876 1.239 . S
C885 O877 1.256 . S
O886 Mn868 2.221 . S
O886 Mn870 2.290 . S
O886 C880 1.278 . S
O887 Mn870 2.251 . S
O887 C880 1.241 . S
O888 Mn889 2.163 . S
O888 C902 1.244 . S
Mn889 O888 2.163 . S
Mn889 O892 2.160 . S
Mn889 O893 2.221 . S
Mn889 O895 2.163 . S
Mn889 O897 2.160 . S
Mn889 O907 2.221 . S
O890 Mn891 2.087 . S
O890 C902 1.256 . S
Mn891 O890 2.087 . S
Mn891 O898 2.089 . S
Mn891 O907 2.290 . S
Mn891 O908 2.251 . S
O892 Mn889 2.160 . S
O892 C903 1.239 . S
O893 Mn889 2.221 . S
O893 Mn894 2.290 . S
O893 C904 1.278 . S
Mn894 O893 2.290 . S
Mn894 O896 2.089 . S
Mn894 O899 2.251 . S
Mn894 O900 2.087 . S
O895 Mn889 2.163 . S
O895 C905 1.244 . S
O896 Mn894 2.089 . S
O896 C903 1.256 . S
O897 Mn889 2.160 . S
O897 C906 1.239 . S
O898 Mn891 2.089 . S
O898 C906 1.256 . S
O899 Mn894 2.251 . S
O899 C904 1.241 . S
O900 Mn894 2.087 . S
O900 C905 1.256 . S
C901 O907 1.278 . S
C901 O908 1.241 . S
C902 O888 1.244 . S
C902 O890 1.256 . S
C903 O892 1.239 . S
C903 O896 1.256 . S
C904 O893 1.278 . S
C904 O899 1.241 . S
C905 O895 1.244 . S
C905 O900 1.256 . S
C906 O897 1.239 . S
C906 O898 1.256 . S
O907 Mn889 2.221 . S
O907 Mn891 2.290 . S
O907 C901 1.278 . S
O908 Mn891 2.251 . S
O908 C901 1.241 . S
H909 C915 0.930 . S
H910 C919 0.930 . S
H911 C924 0.929 . S
H912 C922 0.929 1_556 S
H913 C917 0.929 . S
H914 C923 0.958 . S
C915 H909 0.930 . S
C915 C916 1.367 . S
C915 C923 1.378 . S
C916 C915 1.367 . S
C916 C924 1.433 . S
C917 H913 0.929 . S
C917 C919 1.378 . S
C917 C921 1.350 . S
C918 C921 1.463 . S
C918 C923 1.350 . S
C918 N926 1.427 . S
C919 H910 0.930 . S
C919 C917 1.378 . S
C919 C920 1.367 . S
C920 C919 1.367 . S
C920 C922 1.433 . S
C921 C917 1.350 . S
C921 C918 1.463 . S
C921 N925 1.427 . S
C922 H912 0.929 1_554 S
C922 C920 1.433 . S
C922 N925 1.384 . S
C923 H914 0.958 . S
C923 C915 1.378 . S
C923 C918 1.350 . S
C924 H911 0.929 . S
C924 C916 1.433 . S
C924 N926 1.384 . S
N925 C921 1.427 . S
N925 C922 1.384 . S
N926 C918 1.427 . S
N926 C924 1.384 . S
H927 C933 0.930 . S
H928 C937 0.930 1_556 S
H929 C942 0.929 . S
H930 C940 0.929 . S
H931 C935 0.929 1_556 S
H932 C941 0.929 . S
C933 H927 0.930 . S
C933 C934 1.367 . S
C933 C941 1.378 . S
C934 C933 1.367 . S
C934 C942 1.433 . S
C935 H931 0.929 1_554 S
C935 C937 1.378 . S
C935 C939 1.350 . S
C936 C939 1.463 . S
C936 C941 1.350 . S
C936 N944 1.427 . S
C937 H928 0.930 1_554 S
C937 C935 1.378 . S
C937 C938 1.367 . S
C938 C937 1.367 . S
C938 C940 1.433 . S
C939 C935 1.350 . S
C939 C936 1.463 . S
C939 N943 1.427 . S
C940 H930 0.929 . S
C940 C938 1.433 . S
C940 N943 1.384 . S
C941 H932 0.929 . S
C941 C933 1.378 . S
C941 C936 1.350 . S
C942 H929 0.929 . S
C942 C934 1.433 . S
C942 N944 1.384 . S
N943 C939 1.427 . S
N943 C940 1.384 . S
N944 C936 1.427 . S
N944 C942 1.384 . S
H945 C951 0.930 . S
H946 C955 0.930 . S
H947 C960 0.929 . S
H948 C958 0.929 . S
H949 C953 0.929 . S
H950 C959 0.929 . S
C951 H945 0.930 . S
C951 C952 1.367 . S
C951 C959 1.378 . S
C952 C951 1.367 . S
C952 C960 1.433 . S
C953 H949 0.929 . S
C953 C955 1.378 . S
C953 C957 1.350 . S
C954 C957 1.463 . S
C954 C959 1.350 . S
C954 N962 1.427 . S
C955 H946 0.930 . S
C955 C953 1.378 . S
C955 C956 1.367 . S
C956 C955 1.367 . S
C956 C958 1.433 . S
C957 C953 1.350 . S
C957 C954 1.463 . S
C957 N961 1.427 . S
C958 H948 0.929 . S
C958 C956 1.433 . S
C958 N961 1.384 . S
C959 H950 0.929 . S
C959 C951 1.378 . S
C959 C954 1.350 . S
C960 H947 0.929 . S
C960 C952 1.433 . S
C960 N962 1.384 . S
N961 C957 1.427 . S
N961 C958 1.384 . S
N962 C954 1.427 . S
N962 C960 1.384 . S
H963 C969 0.930 . S
H964 C973 0.930 . S
H965 C978 0.929 . S
H966 C976 0.929 . S
H967 C971 0.929 . S
H968 C977 0.929 . S
C969 H963 0.930 . S
C969 C970 1.367 . S
C969 C977 1.378 . S
C970 C969 1.367 . S
C970 C978 1.433 1_556 S
C971 H967 0.929 . S
C971 C973 1.378 . S
C971 C975 1.350 1_554 S
C972 C975 1.463 . S
C972 C977 1.350 . S
C972 N980 1.427 1_556 S
C973 H964 0.930 . S
C973 C971 1.378 . S
C973 C974 1.367 1_554 S
C974 C973 1.367 1_556 S
C974 C976 1.433 . S
C975 C971 1.350 1_556 S
C975 C972 1.463 . S
C975 N979 1.427 . S
C976 H966 0.929 . S
C976 C974 1.433 . S
C976 N979 1.384 . S
C977 H968 0.929 . S
C977 C969 1.378 . S
C977 C972 1.350 . S
C978 H965 0.929 . S
C978 C970 1.433 1_554 S
C978 N980 1.384 . S
N979 C975 1.427 . S
N979 C976 1.384 . S
N980 C972 1.427 1_554 S
N980 C978 1.384 . S
H981 C987 0.930 . S
H982 C991 0.930 . S
H983 C996 0.929 . S
H984 C994 0.929 . S
H985 C989 0.929 . S
H986 C995 0.929 . S
C987 H981 0.930 . S
C987 C988 1.367 1_554 S
C987 C995 1.378 . S
C988 C987 1.367 1_556 S
C988 C996 1.433 . S
C989 H985 0.929 . S
C989 C991 1.378 . S
C989 C993 1.350 . S
C990 C993 1.463 . S
C990 C995 1.350 1_556 S
C990 N998 1.427 . S
C991 H982 0.930 . S
C991 C989 1.378 . S
C991 C992 1.367 . S
C992 C991 1.367 . S
C992 C994 1.433 1_556 S
C993 C989 1.350 . S
C993 C990 1.463 . S
C993 N997 1.427 1_556 S
C994 H984 0.929 . S
C994 C992 1.433 1_554 S
C994 N997 1.384 . S
C995 H986 0.929 . S
C995 C987 1.378 . S
C995 C990 1.350 1_554 S
C996 H983 0.929 . S
C996 C988 1.433 . S
C996 N998 1.384 . S
N997 C993 1.427 1_554 S
N997 C994 1.384 . S
N998 C990 1.427 . S
N998 C996 1.384 . S
H999 C1005 0.934 1_554 S
H1000 C1009 0.930 . S
H1001 C1014 0.929 . S
H1002 C1012 0.929 . S
H1003 C1007 0.929 . S
H1004 C1013 0.929 . S
C1005 H999 0.934 1_556 S
C1005 C1006 1.363 . S
C1005 C1013 1.378 1_556 S
C1006 C1005 1.363 . S
C1006 C1014 1.433 . S
C1007 H1003 0.929 . S
C1007 C1009 1.378 . S
C1007 C1011 1.350 . S
C1008 C1011 1.463 . S
C1008 C1013 1.350 1_556 S
C1008 N1016 1.427 . S
C1009 H1000 0.930 . S
C1009 C1007 1.378 . S
C1009 C1010 1.367 . S
C1010 C1009 1.367 . S
C1010 C1012 1.433 1_556 S
C1011 C1007 1.350 . S
C1011 C1008 1.463 . S
C1011 N1015 1.427 1_556 S
C1012 H1002 0.929 . S
C1012 C1010 1.433 1_554 S
C1012 N1015 1.384 . S
C1013 H1004 0.929 . S
C1013 C1005 1.378 1_554 S
C1013 C1008 1.350 1_554 S
C1014 H1001 0.929 . S
C1014 C1006 1.433 . S
C1014 N1016 1.384 . S
N1015 C1011 1.427 1_554 S
N1015 C1012 1.384 . S
N1016 C1008 1.427 . S
N1016 C1014 1.384 . S
H1017 C1023 0.930 . S
H1018 C1027 0.930 . S
H1019 C1032 0.929 . S
H1020 C1030 0.929 . S
H1021 C1025 0.929 . S
H1022 C1031 0.929 . S
C1023 H1017 0.930 . S
C1023 C1024 1.367 . S
C1023 C1031 1.378 . S
C1024 C1023 1.367 . S
C1024 C1032 1.433 . S
C1025 H1021 0.929 . S
C1025 C1027 1.378 . S
C1025 C1029 1.350 . S
C1026 C1029 1.463 . S
C1026 C1031 1.350 . S
C1026 N1034 1.427 . S
C1027 H1018 0.930 . S
C1027 C1025 1.378 . S
C1027 C1028 1.367 . S
C1028 C1027 1.367 . S
C1028 C1030 1.433 . S
C1029 C1025 1.350 . S
C1029 C1026 1.463 . S
C1029 N1033 1.427 . S
C1030 H1020 0.929 . S
C1030 C1028 1.433 . S
C1030 N1033 1.384 . S
C1031 H1022 0.929 . S
C1031 C1023 1.378 . S
C1031 C1026 1.350 . S
C1032 H1019 0.929 . S
C1032 C1024 1.433 . S
C1032 N1034 1.384 . S
N1033 C1029 1.427 . S
N1033 C1030 1.384 . S
N1034 C1026 1.427 . S
N1034 C1032 1.384 . S
H1035 C1041 0.930 . S
H1036 C1045 0.930 . S
H1037 C1050 0.929 1_554 S
H1038 C1048 0.929 . S
H1039 C1043 0.929 . S
H1040 C1049 0.929 . S
C1041 H1035 0.930 . S
C1041 C1042 1.367 . S
C1041 C1049 1.378 . S
C1042 C1041 1.367 . S
C1042 C1050 1.433 . S
C1043 H1039 0.929 . S
C1043 C1045 1.378 . S
C1043 C1047 1.350 1_554 S
C1044 C1047 1.463 . S
C1044 C1049 1.350 . S
C1044 N1052 1.427 . S
C1045 H1036 0.930 . S
C1045 C1043 1.378 . S
C1045 C1046 1.367 1_554 S
C1046 C1045 1.367 1_556 S
C1046 C1048 1.433 . S
C1047 C1043 1.350 1_556 S
C1047 C1044 1.463 . S
C1047 N1051 1.427 . S
C1048 H1038 0.929 . S
C1048 C1046 1.433 . S
C1048 N1051 1.384 . S
C1049 H1040 0.929 . S
C1049 C1041 1.378 . S
C1049 C1044 1.350 . S
C1050 H1037 0.929 1_556 S
C1050 C1042 1.433 . S
C1050 N1052 1.383 . S
N1051 C1047 1.427 . S
N1051 C1048 1.384 . S
N1052 C1044 1.427 . S
N1052 C1050 1.383 . S
H1053 C1059 0.930 . S
H1054 C1063 0.930 . S
H1055 C1068 0.929 . S
H1056 C1066 0.929 . S
H1057 C1061 0.929 . S
H1058 C1067 0.929 . S
C1059 H1053 0.930 . S
C1059 C1060 1.367 1_554 S
C1059 C1067 1.378 . S
C1060 C1059 1.367 1_556 S
C1060 C1068 1.433 . S
C1061 H1057 0.929 . S
C1061 C1063 1.378 . S
C1061 C1065 1.350 . S
C1062 C1065 1.463 . S
C1062 C1067 1.350 1_556 S
C1062 N1070 1.427 . S
C1063 H1054 0.930 . S
C1063 C1061 1.378 . S
C1063 C1064 1.367 . S
C1064 C1063 1.367 . S
C1064 C1066 1.433 1_556 S
C1065 C1061 1.350 . S
C1065 C1062 1.463 . S
C1065 N1069 1.427 1_556 S
C1066 H1056 0.929 . S
C1066 C1064 1.433 1_554 S
C1066 N1069 1.384 . S
C1067 H1058 0.929 . S
C1067 C1059 1.378 . S
C1067 C1062 1.350 1_554 S
C1068 H1055 0.929 . S
C1068 C1060 1.433 . S
C1068 N1070 1.384 . S
N1069 C1065 1.427 1_554 S
N1069 C1066 1.384 . S
N1070 C1062 1.427 . S
N1070 C1068 1.384 . S
H1071 C1077 0.930 . S
H1072 C1081 0.930 . S
H1073 C1086 0.917 1_556 S
H1074 C1084 0.929 . S
H1075 C1079 0.929 . S
H1076 C1085 0.929 . S
C1077 H1071 0.930 . S
C1077 C1078 1.367 . S
C1077 C1085 1.378 . S
C1078 C1077 1.367 . S
C1078 C1086 1.447 . S
C1079 H1075 0.929 . S
C1079 C1081 1.378 . S
C1079 C1083 1.350 1_556 S
C1080 C1083 1.463 . S
C1080 C1085 1.350 . S
C1080 N1088 1.427 1_554 S
C1081 H1072 0.930 . S
C1081 C1079 1.378 . S
C1081 C1082 1.367 1_556 S
C1082 C1081 1.367 1_554 S
C1082 C1084 1.433 . S
C1083 C1079 1.350 1_554 S
C1083 C1080 1.463 . S
C1083 N1087 1.427 . S
C1084 H1074 0.929 . S
C1084 C1082 1.433 . S
C1084 N1087 1.384 . S
C1085 H1076 0.929 . S
C1085 C1077 1.378 . S
C1085 C1080 1.350 . S
C1086 H1073 0.917 1_554 S
C1086 C1078 1.447 . S
C1086 N1088 1.383 1_554 S
N1087 C1083 1.427 . S
N1087 C1084 1.384 . S
N1088 C1080 1.427 1_556 S
N1088 C1086 1.383 1_556 S
H1089 C1095 0.930 . S
H1090 C1099 0.930 . S
H1091 C1104 0.929 1_556 S
H1092 C1102 0.929 . S
H1093 C1097 0.929 . S
H1094 C1103 0.929 . S
C1095 H1089 0.930 . S
C1095 C1096 1.367 . S
C1095 C1103 1.378 . S
C1096 C1095 1.367 . S
C1096 C1104 1.433 . S
C1097 H1093 0.929 . S
C1097 C1099 1.378 . S
C1097 C1101 1.350 1_556 S
C1098 C1101 1.463 . S
C1098 C1103 1.350 . S
C1098 N1106 1.427 . S
C1099 H1090 0.930 . S
C1099 C1097 1.378 . S
C1099 C1100 1.367 1_556 S
C1100 C1099 1.367 1_554 S
C1100 C1102 1.433 . S
C1101 C1097 1.350 1_554 S
C1101 C1098 1.463 . S
C1101 N1105 1.427 . S
C1102 H1092 0.929 . S
C1102 C1100 1.433 . S
C1102 N1105 1.384 . S
C1103 H1094 0.929 . S
C1103 C1095 1.378 . S
C1103 C1098 1.350 . S
C1104 H1091 0.929 1_554 S
C1104 C1096 1.433 . S
C1104 N1106 1.384 . S
N1105 C1101 1.427 . S
N1105 C1102 1.384 . S
N1106 C1098 1.427 . S
N1106 C1104 1.384 . S
H1107 C1113 0.930 1_556 S
H1108 C1117 0.930 . S
H1109 C1122 0.929 . S
H1110 C1120 0.929 . S
H1111 C1115 0.929 . S
H1112 C1121 0.893 1_556 S
C1113 H1107 0.930 1_554 S
C1113 C1114 1.367 . S
C1113 C1121 1.383 . S
C1114 C1113 1.367 . S
C1114 C1122 1.433 . S
C1115 H1111 0.929 . S
C1115 C1117 1.378 . S
C1115 C1119 1.350 . S
C1116 C1119 1.463 . S
C1116 C1121 1.382 . S
C1116 N1124 1.427 . S
C1117 H1108 0.930 . S
C1117 C1115 1.378 . S
C1117 C1118 1.367 . S
C1118 C1117 1.367 . S
C1118 C1120 1.433 1_554 S
C1119 C1115 1.350 . S
C1119 C1116 1.463 . S
C1119 N1123 1.427 1_554 S
C1120 H1110 0.929 . S
C1120 C1118 1.433 1_556 S
C1120 N1123 1.384 . S
C1121 H1112 0.893 1_554 S
C1121 C1113 1.383 . S
C1121 C1116 1.382 . S
C1122 H1109 0.929 . S
C1122 C1114 1.433 . S
C1122 N1124 1.384 . S
N1123 C1119 1.427 1_556 S
N1123 C1120 1.384 . S
N1124 C1116 1.427 . S
N1124 C1122 1.384 . S
H1125 C1131 0.930 1_655 S
H1126 C1135 0.930 . S
H1127 C1140 0.929 1_655 S
H1128 C1138 0.929 . S
H1129 C1133 0.929 . S
H1130 C1139 0.929 . S
C1131 H1125 0.930 1_455 S
C1131 C1132 1.367 1_455 S
C1131 C1139 1.378 . S
C1132 C1131 1.367 1_655 S
C1132 C1140 1.433 1_655 S
C1133 H1129 0.929 . S
C1133 C1135 1.378 . S
C1133 C1137 1.350 . S
C1134 C1137 1.463 . S
C1134 C1139 1.350 . S
C1134 N1142 1.427 . S
C1135 H1126 0.930 . S
C1135 C1133 1.378 . S
C1135 C1136 1.367 . S
C1136 C1135 1.367 . S
C1136 C1138 1.433 . S
C1137 C1133 1.350 . S
C1137 C1134 1.463 . S
C1137 N1141 1.427 . S
C1138 H1128 0.929 . S
C1138 C1136 1.433 . S
C1138 N1141 1.384 . S
C1139 H1130 0.929 . S
C1139 C1131 1.378 . S
C1139 C1134 1.350 . S
C1140 H1127 0.929 1_455 S
C1140 C1132 1.433 1_455 S
C1140 N1142 1.384 . S
N1141 C1137 1.427 . S
N1141 C1138 1.384 . S
N1142 C1134 1.427 . S
N1142 C1140 1.384 . S
H1143 C1149 0.930 . S
H1144 C1153 0.930 . S
H1145 C1158 0.929 . S
H1146 C1156 0.929 . S
H1147 C1151 0.929 . S
H1148 C1157 0.929 . S
C1149 H1143 0.930 . S
C1149 C1150 1.367 . S
C1149 C1157 1.378 . S
C1150 C1149 1.367 . S
C1150 C1158 1.433 . S
C1151 H1147 0.929 . S
C1151 C1153 1.378 . S
C1151 C1155 1.350 . S
C1152 C1155 1.463 . S
C1152 C1157 1.350 . S
C1152 N1160 1.427 . S
C1153 H1144 0.930 . S
C1153 C1151 1.378 . S
C1153 C1154 1.367 . S
C1154 C1153 1.367 . S
C1154 C1156 1.433 . S
C1155 C1151 1.350 . S
C1155 C1152 1.463 . S
C1155 N1159 1.427 . S
C1156 H1146 0.929 . S
C1156 C1154 1.433 . S
C1156 N1159 1.384 . S
C1157 H1148 0.929 . S
C1157 C1149 1.378 . S
C1157 C1152 1.350 . S
C1158 H1145 0.929 . S
C1158 C1150 1.433 . S
C1158 N1160 1.384 . S
N1159 C1155 1.427 . S
N1159 C1156 1.384 . S
N1160 C1152 1.427 . S
N1160 C1158 1.384 . S
H1161 C1167 0.930 . S
H1162 C1171 0.930 . S
H1163 C1176 0.925 1_545 S
H1164 C1174 0.929 . S
H1165 C1169 0.929 . S
H1166 C1175 0.929 . S
C1167 H1161 0.930 . S
C1167 C1168 1.367 . S
C1167 C1175 1.378 1_545 S
C1168 C1167 1.367 . S
C1168 C1176 1.432 1_545 S
C1169 H1165 0.929 . S
C1169 C1171 1.378 . S
C1169 C1173 1.350 . S
C1170 C1173 1.463 . S
C1170 C1175 1.350 . S
C1170 N1178 1.427 . S
C1171 H1162 0.930 . S
C1171 C1169 1.378 . S
C1171 C1172 1.367 . S
C1172 C1171 1.367 . S
C1172 C1174 1.433 . S
C1173 C1169 1.350 . S
C1173 C1170 1.463 . S
C1173 N1177 1.427 . S
C1174 H1164 0.929 . S
C1174 C1172 1.433 . S
C1174 N1177 1.384 . S
C1175 H1166 0.929 . S
C1175 C1167 1.378 1_565 S
C1175 C1170 1.350 . S
C1176 H1163 0.925 1_565 S
C1176 C1168 1.432 1_565 S
C1176 N1178 1.390 . S
N1177 C1173 1.427 . S
N1177 C1174 1.384 . S
N1178 C1170 1.427 . S
N1178 C1176 1.390 . S
H1179 C1185 0.930 . S
H1180 C1189 0.930 . S
H1181 C1194 0.929 . S
H1182 C1192 0.929 . S
H1183 C1187 0.929 . S
H1184 C1193 0.929 . S
C1185 H1179 0.930 . S
C1185 C1186 1.367 . S
C1185 C1193 1.378 . S
C1186 C1185 1.367 . S
C1186 C1194 1.433 . S
C1187 H1183 0.929 . S
C1187 C1189 1.378 . S
C1187 C1191 1.350 . S
C1188 C1191 1.463 . S
C1188 C1193 1.350 . S
C1188 N1196 1.427 . S
C1189 H1180 0.930 . S
C1189 C1187 1.378 . S
C1189 C1190 1.367 . S
C1190 C1189 1.367 . S
C1190 C1192 1.433 . S
C1191 C1187 1.350 . S
C1191 C1188 1.463 . S
C1191 N1195 1.427 . S
C1192 H1182 0.929 . S
C1192 C1190 1.433 . S
C1192 N1195 1.384 . S
C1193 H1184 0.929 . S
C1193 C1185 1.378 . S
C1193 C1188 1.350 . S
C1194 H1181 0.929 . S
C1194 C1186 1.433 . S
C1194 N1196 1.384 . S
N1195 C1191 1.427 . S
N1195 C1192 1.384 . S
N1196 C1188 1.427 . S
N1196 C1194 1.384 . S
H1197 C1203 0.930 . S
H1198 C1207 0.930 . S
H1199 C1212 0.929 . S
H1200 C1210 0.929 . S
H1201 C1205 0.929 . S
H1202 C1211 0.929 . S
C1203 H1197 0.930 . S
C1203 C1204 1.367 . S
C1203 C1211 1.378 . S
C1204 C1203 1.367 . S
C1204 C1212 1.433 . S
C1205 H1201 0.929 . S
C1205 C1207 1.378 . S
C1205 C1209 1.350 . S
C1206 C1209 1.463 . S
C1206 C1211 1.350 . S
C1206 N1214 1.427 . S
C1207 H1198 0.930 . S
C1207 C1205 1.378 . S
C1207 C1208 1.367 . S
C1208 C1207 1.367 . S
C1208 C1210 1.433 . S
C1209 C1205 1.350 . S
C1209 C1206 1.463 . S
C1209 N1213 1.427 . S
C1210 H1200 0.929 . S
C1210 C1208 1.433 . S
C1210 N1213 1.384 . S
C1211 H1202 0.929 . S
C1211 C1203 1.378 . S
C1211 C1206 1.350 . S
C1212 H1199 0.929 . S
C1212 C1204 1.433 . S
C1212 N1214 1.384 . S
N1213 C1209 1.427 . S
N1213 C1210 1.384 . S
N1214 C1206 1.427 . S
N1214 C1212 1.384 . S
H1215 C1221 0.930 . S
H1216 C1225 0.930 . S
H1217 C1230 0.929 . S
H1218 C1228 0.929 . S
H1219 C1223 0.929 . S
H1220 C1229 0.929 . S
C1221 H1215 0.930 . S
C1221 C1222 1.367 . S
C1221 C1229 1.378 . S
C1222 C1221 1.367 . S
C1222 C1230 1.433 . S
C1223 H1219 0.929 . S
C1223 C1225 1.378 . S
C1223 C1227 1.350 . S
C1224 C1227 1.463 . S
C1224 C1229 1.350 . S
C1224 N1232 1.427 . S
C1225 H1216 0.930 . S
C1225 C1223 1.378 . S
C1225 C1226 1.367 . S
C1226 C1225 1.367 . S
C1226 C1228 1.433 . S
C1227 C1223 1.350 . S
C1227 C1224 1.463 . S
C1227 N1231 1.427 . S
C1228 H1218 0.929 . S
C1228 C1226 1.433 . S
C1228 N1231 1.384 . S
C1229 H1220 0.929 . S
C1229 C1221 1.378 . S
C1229 C1224 1.350 . S
C1230 H1217 0.929 . S
C1230 C1222 1.433 . S
C1230 N1232 1.384 . S
N1231 C1227 1.427 . S
N1231 C1228 1.384 . S
N1232 C1224 1.427 . S
N1232 C1230 1.384 . S
H1233 C1239 0.930 . S
H1234 C1243 0.930 . S
H1235 C1248 0.929 . S
H1236 C1246 0.929 . S
H1237 C1241 0.929 . S
H1238 C1247 0.929 . S
C1239 H1233 0.930 . S
C1239 C1240 1.367 . S
C1239 C1247 1.378 . S
C1240 C1239 1.367 . S
C1240 C1248 1.433 . S
C1241 H1237 0.929 . S
C1241 C1243 1.378 . S
C1241 C1245 1.350 . S
C1242 C1245 1.463 . S
C1242 C1247 1.350 . S
C1242 N1250 1.427 . S
C1243 H1234 0.930 . S
C1243 C1241 1.378 . S
C1243 C1244 1.367 . S
C1244 C1243 1.367 . S
C1244 C1246 1.433 . S
C1245 C1241 1.350 . S
C1245 C1242 1.463 . S
C1245 N1249 1.427 . S
C1246 H1236 0.929 . S
C1246 C1244 1.433 . S
C1246 N1249 1.384 . S
C1247 H1238 0.929 . S
C1247 C1239 1.378 . S
C1247 C1242 1.350 . S
C1248 H1235 0.929 . S
C1248 C1240 1.433 . S
C1248 N1250 1.384 . S
N1249 C1245 1.427 . S
N1249 C1246 1.384 . S
N1250 C1242 1.427 . S
N1250 C1248 1.384 . S
H1251 C1257 0.930 . S
H1252 C1261 0.930 . S
H1253 C1266 0.929 . S
H1254 C1264 0.929 . S
H1255 C1259 0.929 . S
H1256 C1265 0.929 . S
C1257 H1251 0.930 . S
C1257 C1258 1.367 . S
C1257 C1265 1.378 . S
C1258 C1257 1.367 . S
C1258 C1266 1.433 . S
C1259 H1255 0.929 . S
C1259 C1261 1.378 . S
C1259 C1263 1.350 . S
C1260 C1263 1.463 . S
C1260 C1265 1.350 . S
C1260 N1268 1.427 . S
C1261 H1252 0.930 . S
C1261 C1259 1.378 . S
C1261 C1262 1.367 . S
C1262 C1261 1.367 . S
C1262 C1264 1.433 . S
C1263 C1259 1.350 . S
C1263 C1260 1.463 . S
C1263 N1267 1.427 . S
C1264 H1254 0.929 . S
C1264 C1262 1.433 . S
C1264 N1267 1.384 . S
C1265 H1256 0.929 . S
C1265 C1257 1.378 . S
C1265 C1260 1.350 . S
C1266 H1253 0.929 . S
C1266 C1258 1.433 . S
C1266 N1268 1.384 . S
N1267 C1263 1.427 . S
N1267 C1264 1.384 . S
N1268 C1260 1.427 . S
N1268 C1266 1.384 . S
H1269 C1275 0.930 . S
H1270 C1279 0.930 . S
H1271 C1284 0.929 . S
H1272 C1282 0.929 . S
H1273 C1277 0.929 . S
H1274 C1283 0.929 . S
C1275 H1269 0.930 . S
C1275 C1276 1.367 . S
C1275 C1283 1.378 . S
C1276 C1275 1.367 . S
C1276 C1284 1.433 . S
C1277 H1273 0.929 . S
C1277 C1279 1.378 . S
C1277 C1281 1.350 . S
C1278 C1281 1.463 . S
C1278 C1283 1.350 . S
C1278 N1286 1.427 . S
C1279 H1270 0.930 . S
C1279 C1277 1.378 . S
C1279 C1280 1.367 . S
C1280 C1279 1.367 . S
C1280 C1282 1.433 . S
C1281 C1277 1.350 . S
C1281 C1278 1.463 . S
C1281 N1285 1.427 . S
C1282 H1272 0.929 . S
C1282 C1280 1.433 . S
C1282 N1285 1.384 . S
C1283 H1274 0.929 . S
C1283 C1275 1.378 . S
C1283 C1278 1.350 . S
C1284 H1271 0.929 . S
C1284 C1276 1.433 . S
C1284 N1286 1.384 . S
N1285 C1281 1.427 . S
N1285 C1282 1.384 . S
N1286 C1278 1.427 . S
N1286 C1284 1.384 . S
H1287 C1293 0.927 1_545 S
H1288 C1297 0.930 . S
H1289 C1302 0.929 1_545 S
H1290 C1300 0.929 . S
H1291 C1295 0.929 . S
H1292 C1301 0.929 . S
C1293 H1287 0.927 1_565 S
C1293 C1294 1.358 1_565 S
C1293 C1301 1.391 . S
C1294 C1293 1.358 1_545 S
C1294 C1302 1.433 1_545 S
C1295 H1291 0.929 . S
C1295 C1297 1.378 . S
C1295 C1299 1.350 . S
C1296 C1299 1.463 . S
C1296 C1301 1.350 . S
C1296 N1304 1.427 . S
C1297 H1288 0.930 . S
C1297 C1295 1.378 . S
C1297 C1298 1.367 . S
C1298 C1297 1.367 . S
C1298 C1300 1.433 . S
C1299 C1295 1.350 . S
C1299 C1296 1.463 . S
C1299 N1303 1.427 . S
C1300 H1290 0.929 . S
C1300 C1298 1.433 . S
C1300 N1303 1.384 . S
C1301 H1292 0.929 . S
C1301 C1293 1.391 . S
C1301 C1296 1.350 . S
C1302 H1289 0.929 1_565 S
C1302 C1294 1.433 1_565 S
C1302 N1304 1.384 . S
N1303 C1299 1.427 . S
N1303 C1300 1.384 . S
N1304 C1296 1.427 . S
N1304 C1302 1.384 . S
H1305 C1311 0.930 . S
H1306 C1315 0.930 . S
H1307 C1320 0.929 1_655 S
H1308 C1318 0.929 . S
H1309 C1313 0.929 . S
H1310 C1319 0.929 . S
C1311 H1305 0.930 . S
C1311 C1312 1.367 . S
C1311 C1319 1.378 1_655 S
C1312 C1311 1.367 . S
C1312 C1320 1.433 1_655 S
C1313 H1309 0.929 . S
C1313 C1315 1.378 . S
C1313 C1317 1.350 . S
C1314 C1317 1.463 . S
C1314 C1319 1.350 . S
C1314 N1322 1.427 . S
C1315 H1306 0.930 . S
C1315 C1313 1.378 . S
C1315 C1316 1.367 . S
C1316 C1315 1.367 . S
C1316 C1318 1.433 . S
C1317 C1313 1.350 . S
C1317 C1314 1.463 . S
C1317 N1321 1.427 . S
C1318 H1308 0.929 . S
C1318 C1316 1.433 . S
C1318 N1321 1.384 . S
C1319 H1310 0.929 . S
C1319 C1311 1.378 1_455 S
C1319 C1314 1.350 . S
C1320 H1307 0.929 1_455 S
C1320 C1312 1.433 1_455 S
C1320 N1322 1.384 . S
N1321 C1317 1.427 . S
N1321 C1318 1.384 . S
N1322 C1314 1.427 . S
N1322 C1320 1.384 . S
H1323 C1329 0.930 . S
H1324 C1333 0.930 . S
H1325 C1338 0.929 . S
H1326 C1336 0.929 . S
H1327 C1331 0.929 . S
H1328 C1337 0.929 . S
C1329 H1323 0.930 . S
C1329 C1330 1.367 . S
C1329 C1337 1.378 . S
C1330 C1329 1.367 . S
C1330 C1338 1.433 . S
C1331 H1327 0.929 . S
C1331 C1333 1.378 . S
C1331 C1335 1.350 . S
C1332 C1335 1.463 . S
C1332 C1337 1.350 . S
C1332 N1340 1.427 . S
C1333 H1324 0.930 . S
C1333 C1331 1.378 . S
C1333 C1334 1.367 . S
C1334 C1333 1.367 . S
C1334 C1336 1.433 . S
C1335 C1331 1.350 . S
C1335 C1332 1.463 . S
C1335 N1339 1.427 . S
C1336 H1326 0.929 . S
C1336 C1334 1.433 . S
C1336 N1339 1.384 . S
C1337 H1328 0.929 . S
C1337 C1329 1.378 . S
C1337 C1332 1.350 . S
C1338 H1325 0.929 . S
C1338 C1330 1.433 . S
C1338 N1340 1.384 . S
N1339 C1335 1.427 . S
N1339 C1336 1.384 . S
N1340 C1332 1.427 . S
N1340 C1338 1.384 . S
H1341 C1347 0.930 . S
H1342 C1351 0.930 . S
H1343 C1356 0.929 . S
H1344 C1354 0.929 . S
H1345 C1349 0.929 . S
H1346 C1355 0.929 . S
C1347 H1341 0.930 . S
C1347 C1348 1.367 . S
C1347 C1355 1.378 . S
C1348 C1347 1.367 . S
C1348 C1356 1.433 . S
C1349 H1345 0.929 . S
C1349 C1351 1.378 . S
C1349 C1353 1.350 . S
C1350 C1353 1.463 . S
C1350 C1355 1.350 . S
C1350 N1358 1.427 . S
C1351 H1342 0.930 . S
C1351 C1349 1.378 . S
C1351 C1352 1.367 . S
C1352 C1351 1.367 . S
C1352 C1354 1.433 . S
C1353 C1349 1.350 . S
C1353 C1350 1.463 . S
C1353 N1357 1.427 . S
C1354 H1344 0.929 . S
C1354 C1352 1.433 . S
C1354 N1357 1.384 . S
C1355 H1346 0.929 . S
C1355 C1347 1.378 . S
C1355 C1350 1.350 . S
C1356 H1343 0.929 . S
C1356 C1348 1.433 . S
C1356 N1358 1.384 . S
N1357 C1353 1.427 . S
N1357 C1354 1.384 . S
N1358 C1350 1.427 . S
N1358 C1356 1.384 . S
H1359 C1365 0.930 . S
H1360 C1369 0.930 . S
H1361 C1374 0.929 . S
H1362 C1372 0.929 . S
H1363 C1367 0.929 . S
H1364 C1373 0.929 . S
C1365 H1359 0.930 . S
C1365 C1366 1.367 . S
C1365 C1373 1.378 . S
C1366 C1365 1.367 . S
C1366 C1374 1.433 . S
C1367 H1363 0.929 . S
C1367 C1369 1.378 . S
C1367 C1371 1.350 . S
C1368 C1371 1.463 . S
C1368 C1373 1.350 . S
C1368 N1376 1.427 . S
C1369 H1360 0.930 . S
C1369 C1367 1.378 . S
C1369 C1370 1.367 . S
C1370 C1369 1.367 . S
C1370 C1372 1.433 . S
C1371 C1367 1.350 . S
C1371 C1368 1.463 . S
C1371 N1375 1.427 . S
C1372 H1362 0.929 . S
C1372 C1370 1.433 . S
C1372 N1375 1.384 . S
C1373 H1364 0.929 . S
C1373 C1365 1.378 . S
C1373 C1368 1.350 . S
C1374 H1361 0.929 . S
C1374 C1366 1.433 . S
C1374 N1376 1.384 . S
N1375 C1371 1.427 . S
N1375 C1372 1.384 . S
N1376 C1368 1.427 . S
N1376 C1374 1.384 . S
H1377 C1383 0.930 . S
H1378 C1387 0.930 . S
H1379 C1392 0.929 . S
H1380 C1390 0.929 . S
H1381 C1385 0.929 . S
H1382 C1391 0.929 . S
C1383 H1377 0.930 . S
C1383 C1384 1.367 . S
C1383 C1391 1.378 . S
C1384 C1383 1.367 . S
C1384 C1392 1.433 . S
C1385 H1381 0.929 . S
C1385 C1387 1.378 . S
C1385 C1389 1.350 . S
C1386 C1389 1.463 . S
C1386 C1391 1.350 . S
C1386 N1394 1.427 . S
C1387 H1378 0.930 . S
C1387 C1385 1.378 . S
C1387 C1388 1.367 . S
C1388 C1387 1.367 . S
C1388 C1390 1.433 . S
C1389 C1385 1.350 . S
C1389 C1386 1.463 . S
C1389 N1393 1.427 . S
C1390 H1380 0.929 . S
C1390 C1388 1.433 . S
C1390 N1393 1.384 . S
C1391 H1382 0.929 . S
C1391 C1383 1.378 . S
C1391 C1386 1.350 . S
C1392 H1379 0.929 . S
C1392 C1384 1.433 . S
C1392 N1394 1.384 . S
N1393 C1389 1.427 . S
N1393 C1390 1.384 . S
N1394 C1386 1.427 . S
N1394 C1392 1.384 . S
H1395 C1401 0.930 1_565 S
H1396 C1405 0.930 . S
H1397 C1410 0.929 . S
H1398 C1408 0.929 . S
H1399 C1403 0.929 . S
H1400 C1409 0.929 . S
C1401 H1395 0.930 1_545 S
C1401 C1402 1.367 1_545 S
C1401 C1409 1.378 . S
C1402 C1401 1.367 1_565 S
C1402 C1410 1.433 . S
C1403 H1399 0.929 . S
C1403 C1405 1.378 . S
C1403 C1407 1.350 . S
C1404 C1407 1.463 . S
C1404 C1409 1.350 . S
C1404 N1412 1.427 . S
C1405 H1396 0.930 . S
C1405 C1403 1.378 . S
C1405 C1406 1.367 . S
C1406 C1405 1.367 . S
C1406 C1408 1.433 . S
C1407 C1403 1.350 . S
C1407 C1404 1.463 . S
C1407 N1411 1.427 . S
C1408 H1398 0.929 . S
C1408 C1406 1.433 . S
C1408 N1411 1.384 . S
C1409 H1400 0.929 . S
C1409 C1401 1.378 . S
C1409 C1404 1.350 . S
C1410 H1397 0.929 . S
C1410 C1402 1.433 . S
C1410 N1412 1.384 1_565 S
N1411 C1407 1.427 . S
N1411 C1408 1.384 . S
N1412 C1404 1.427 . S
N1412 C1410 1.384 1_545 S
H1413 C1419 0.930 . S
H1414 C1423 0.930 . S
H1415 C1428 0.935 . S
H1416 C1426 0.929 . S
H1417 C1421 0.929 . S
H1418 C1427 0.929 . S
C1419 H1413 0.930 . S
C1419 C1420 1.367 . S
C1419 C1427 1.378 1_455 S
C1420 C1419 1.367 . S
C1420 C1428 1.441 . S
C1421 H1417 0.929 . S
C1421 C1423 1.378 . S
C1421 C1425 1.350 . S
C1422 C1425 1.463 . S
C1422 C1427 1.350 . S
C1422 N1430 1.427 . S
C1423 H1414 0.930 . S
C1423 C1421 1.378 . S
C1423 C1424 1.367 . S
C1424 C1423 1.367 . S
C1424 C1426 1.433 . S
C1425 C1421 1.350 . S
C1425 C1422 1.463 . S
C1425 N1429 1.427 . S
C1426 H1416 0.929 . S
C1426 C1424 1.433 . S
C1426 N1429 1.384 . S
C1427 H1418 0.929 . S
C1427 C1419 1.378 1_655 S
C1427 C1422 1.350 . S
C1428 H1415 0.935 . S
C1428 C1420 1.441 . S
C1428 N1430 1.370 1_455 S
N1429 C1425 1.427 . S
N1429 C1426 1.384 . S
N1430 C1422 1.427 . S
N1430 C1428 1.370 1_655 S
H1431 C1437 0.930 . S
H1432 C1441 0.930 . S
H1433 C1446 0.929 . S
H1434 C1444 0.929 . S
H1435 C1439 0.929 . S
H1436 C1445 0.929 . S
C1437 H1431 0.930 . S
C1437 C1438 1.367 . S
C1437 C1445 1.378 . S
C1438 C1437 1.367 . S
C1438 C1446 1.433 . S
C1439 H1435 0.929 . S
C1439 C1441 1.378 . S
C1439 C1443 1.350 . S
C1440 C1443 1.463 . S
C1440 C1445 1.350 . S
C1440 N1448 1.427 . S
C1441 H1432 0.930 . S
C1441 C1439 1.378 . S
C1441 C1442 1.367 . S
C1442 C1441 1.367 . S
C1442 C1444 1.433 . S
C1443 C1439 1.350 . S
C1443 C1440 1.463 . S
C1443 N1447 1.427 . S
C1444 H1434 0.929 . S
C1444 C1442 1.433 . S
C1444 N1447 1.384 . S
C1445 H1436 0.929 . S
C1445 C1437 1.378 . S
C1445 C1440 1.350 . S
C1446 H1433 0.929 . S
C1446 C1438 1.433 . S
C1446 N1448 1.384 . S
N1447 C1443 1.427 . S
N1447 C1444 1.384 . S
N1448 C1440 1.427 . S
N1448 C1446 1.384 . S
H1449 C1455 0.930 . S
H1450 C1459 0.930 . S
H1451 C1464 0.929 . S
H1452 C1462 0.929 . S
H1453 C1457 0.929 . S
H1454 C1463 0.929 . S
C1455 H1449 0.930 . S
C1455 C1456 1.367 . S
C1455 C1463 1.378 1_455 S
C1456 C1455 1.367 . S
C1456 C1464 1.433 . S
C1457 H1453 0.929 . S
C1457 C1459 1.378 . S
C1457 C1461 1.350 . S
C1458 C1461 1.463 . S
C1458 C1463 1.350 . S
C1458 N1466 1.427 . S
C1459 H1450 0.930 . S
C1459 C1457 1.378 . S
C1459 C1460 1.367 . S
C1460 C1459 1.367 . S
C1460 C1462 1.433 . S
C1461 C1457 1.350 . S
C1461 C1458 1.463 . S
C1461 N1465 1.427 . S
C1462 H1452 0.929 . S
C1462 C1460 1.433 . S
C1462 N1465 1.384 . S
C1463 H1454 0.929 . S
C1463 C1455 1.378 1_655 S
C1463 C1458 1.350 . S
C1464 H1451 0.929 . S
C1464 C1456 1.433 . S
C1464 N1466 1.384 1_455 S
N1465 C1461 1.427 . S
N1465 C1462 1.384 . S
N1466 C1458 1.427 . S
N1466 C1464 1.384 1_655 S
H1467 C1473 0.930 . S
H1468 C1477 0.930 . S
H1469 C1482 0.929 . S
H1470 C1480 0.929 . S
H1471 C1475 0.929 . S
H1472 C1481 0.929 . S
C1473 H1467 0.930 . S
C1473 C1474 1.367 . S
C1473 C1481 1.378 . S
C1474 C1473 1.367 . S
C1474 C1482 1.433 . S
C1475 H1471 0.929 . S
C1475 C1477 1.378 . S
C1475 C1479 1.350 . S
C1476 C1479 1.463 . S
C1476 C1481 1.350 . S
C1476 N1484 1.427 . S
C1477 H1468 0.930 . S
C1477 C1475 1.378 . S
C1477 C1478 1.367 . S
C1478 C1477 1.367 . S
C1478 C1480 1.433 . S
C1479 C1475 1.350 . S
C1479 C1476 1.463 . S
C1479 N1483 1.427 . S
C1480 H1470 0.929 . S
C1480 C1478 1.433 . S
C1480 N1483 1.384 . S
C1481 H1472 0.929 . S
C1481 C1473 1.378 . S
C1481 C1476 1.350 . S
C1482 H1469 0.929 . S
C1482 C1474 1.433 . S
C1482 N1484 1.384 . S
N1483 C1479 1.427 . S
N1483 C1480 1.384 . S
N1484 C1476 1.427 . S
N1484 C1482 1.384 . S
H1485 C1491 0.930 1_565 S
H1486 C1495 0.930 . S
H1487 C1500 0.929 1_565 S
H1488 C1498 0.929 . S
H1489 C1493 0.929 . S
H1490 C1499 0.929 . S
C1491 H1485 0.930 1_545 S
C1491 C1492 1.367 1_545 S
C1491 C1499 1.378 . S
C1492 C1491 1.367 1_565 S
C1492 C1500 1.433 1_565 S
C1493 H1489 0.929 . S
C1493 C1495 1.378 . S
C1493 C1497 1.350 . S
C1494 C1497 1.463 . S
C1494 C1499 1.350 . S
C1494 N1502 1.427 . S
C1495 H1486 0.930 . S
C1495 C1493 1.378 . S
C1495 C1496 1.367 . S
C1496 C1495 1.367 . S
C1496 C1498 1.433 . S
C1497 C1493 1.350 . S
C1497 C1494 1.463 . S
C1497 N1501 1.427 . S
C1498 H1488 0.929 . S
C1498 C1496 1.433 . S
C1498 N1501 1.384 . S
C1499 H1490 0.929 . S
C1499 C1491 1.378 . S
C1499 C1494 1.350 . S
C1500 H1487 0.929 1_545 S
C1500 C1492 1.433 1_545 S
C1500 N1502 1.384 . S
N1501 C1497 1.427 . S
N1501 C1498 1.384 . S
N1502 C1494 1.427 . S
N1502 C1500 1.384 . S
H1503 C1509 0.930 . S
H1504 C1513 0.930 . S
H1505 C1518 0.929 . S
H1506 C1516 0.929 . S
H1507 C1511 0.929 . S
H1508 C1517 0.929 . S
C1509 H1503 0.930 . S
C1509 C1510 1.367 . S
C1509 C1517 1.378 . S
C1510 C1509 1.367 . S
C1510 C1518 1.433 . S
C1511 H1507 0.929 . S
C1511 C1513 1.378 . S
C1511 C1515 1.350 . S
C1512 C1515 1.463 . S
C1512 C1517 1.350 . S
C1512 N1520 1.427 . S
C1513 H1504 0.930 . S
C1513 C1511 1.378 . S
C1513 C1514 1.367 . S
C1514 C1513 1.367 . S
C1514 C1516 1.433 . S
C1515 C1511 1.350 . S
C1515 C1512 1.463 . S
C1515 N1519 1.427 . S
C1516 H1506 0.929 . S
C1516 C1514 1.433 . S
C1516 N1519 1.384 . S
C1517 H1508 0.929 . S
C1517 C1509 1.378 . S
C1517 C1512 1.350 . S
C1518 H1505 0.929 . S
C1518 C1510 1.433 . S
C1518 N1520 1.384 . S
N1519 C1515 1.427 . S
N1519 C1516 1.384 . S
N1520 C1512 1.427 . S
N1520 C1518 1.384 . S
H1521 C1527 0.930 . S
H1522 C1531 0.930 . S
H1523 C1536 0.929 . S
H1524 C1534 0.929 . S
H1525 C1529 0.929 . S
H1526 C1535 0.929 . S
C1527 H1521 0.930 . S
C1527 C1528 1.367 . S
C1527 C1535 1.378 . S
C1528 C1527 1.367 . S
C1528 C1536 1.433 . S
C1529 H1525 0.929 . S
C1529 C1531 1.378 . S
C1529 C1533 1.350 . S
C1530 C1533 1.463 . S
C1530 C1535 1.350 . S
C1530 N1538 1.427 . S
C1531 H1522 0.930 . S
C1531 C1529 1.378 . S
C1531 C1532 1.367 . S
C1532 C1531 1.367 . S
C1532 C1534 1.433 . S
C1533 C1529 1.350 . S
C1533 C1530 1.463 . S
C1533 N1537 1.427 . S
C1534 H1524 0.929 . S
C1534 C1532 1.433 . S
C1534 N1537 1.384 . S
C1535 H1526 0.929 . S
C1535 C1527 1.378 . S
C1535 C1530 1.350 . S
C1536 H1523 0.929 . S
C1536 C1528 1.433 . S
C1536 N1538 1.384 . S
N1537 C1533 1.427 . S
N1537 C1534 1.384 . S
N1538 C1530 1.427 . S
N1538 C1536 1.384 . S
H1539 C1545 0.930 . S
H1540 C1549 0.930 . S
H1541 C1554 0.929 . S
H1542 C1552 0.929 . S
H1543 C1547 0.929 . S
H1544 C1553 0.929 . S
C1545 H1539 0.930 . S
C1545 C1546 1.367 . S
C1545 C1553 1.378 . S
C1546 C1545 1.367 . S
C1546 C1554 1.433 . S
C1547 H1543 0.929 . S
C1547 C1549 1.378 . S
C1547 C1551 1.350 . S
C1548 C1551 1.463 . S
C1548 C1553 1.350 . S
C1548 N1556 1.427 . S
C1549 H1540 0.930 . S
C1549 C1547 1.378 . S
C1549 C1550 1.367 . S
C1550 C1549 1.367 . S
C1550 C1552 1.433 . S
C1551 C1547 1.350 . S
C1551 C1548 1.463 . S
C1551 N1555 1.427 . S
C1552 H1542 0.929 . S
C1552 C1550 1.433 . S
C1552 N1555 1.384 . S
C1553 H1544 0.929 . S
C1553 C1545 1.378 . S
C1553 C1548 1.350 . S
C1554 H1541 0.929 . S
C1554 C1546 1.433 . S
C1554 N1556 1.384 . S
N1555 C1551 1.427 . S
N1555 C1552 1.384 . S
N1556 C1548 1.427 . S
N1556 C1554 1.384 . S
H1557 C1563 0.930 . S
H1558 C1567 0.930 . S
H1559 C1572 0.929 . S
H1560 C1570 0.929 . S
H1561 C1565 0.929 . S
H1562 C1571 0.929 . S
C1563 H1557 0.930 . S
C1563 C1564 1.367 1_545 S
C1563 C1571 1.378 . S
C1564 C1563 1.367 1_565 S
C1564 C1572 1.433 . S
C1565 H1561 0.929 . S
C1565 C1567 1.378 . S
C1565 C1569 1.350 . S
C1566 C1569 1.463 . S
C1566 C1571 1.350 1_565 S
C1566 N1574 1.427 . S
C1567 H1558 0.930 . S
C1567 C1565 1.378 . S
C1567 C1568 1.398 . S
C1568 C1567 1.398 . S
C1568 C1570 1.406 1_565 S
C1569 C1565 1.350 . S
C1569 C1566 1.463 . S
C1569 N1573 1.427 1_565 S
C1570 H1560 0.929 . S
C1570 C1568 1.406 1_545 S
C1570 N1573 1.384 . S
C1571 H1562 0.929 . S
C1571 C1563 1.378 . S
C1571 C1566 1.350 1_545 S
C1572 H1559 0.929 . S
C1572 C1564 1.433 . S
C1572 N1574 1.384 . S
N1573 C1569 1.427 1_545 S
N1573 C1570 1.384 . S
N1574 C1566 1.427 . S
N1574 C1572 1.384 . S
H1575 C1581 0.930 1_655 S
H1576 C1585 0.930 . S
H1577 C1590 0.929 . S
H1578 C1588 0.929 . S
H1579 C1583 0.929 . S
H1580 C1589 0.970 . S
C1581 H1575 0.930 1_455 S
C1581 C1582 1.367 . S
C1581 C1589 1.372 1_455 S
C1582 C1581 1.367 . S
C1582 C1590 1.433 . S
C1583 H1579 0.929 . S
C1583 C1585 1.378 . S
C1583 C1587 1.350 . S
C1584 C1587 1.463 . S
C1584 C1589 1.315 1_455 S
C1584 N1592 1.427 . S
C1585 H1576 0.930 . S
C1585 C1583 1.378 . S
C1585 C1586 1.367 . S
C1586 C1585 1.367 . S
C1586 C1588 1.433 1_455 S
C1587 C1583 1.350 . S
C1587 C1584 1.463 . S
C1587 N1591 1.427 1_455 S
C1588 H1578 0.929 . S
C1588 C1586 1.433 1_655 S
C1588 N1591 1.384 . S
C1589 H1580 0.970 . S
C1589 C1581 1.372 1_655 S
C1589 C1584 1.315 1_655 S
C1590 H1577 0.929 . S
C1590 C1582 1.433 . S
C1590 N1592 1.384 . S
N1591 C1587 1.427 1_655 S
N1591 C1588 1.384 . S
N1592 C1584 1.427 . S
N1592 C1590 1.384 . S
H1593 C1599 0.930 . S
H1594 C1603 0.930 . S
H1595 C1608 0.929 . S
H1596 C1606 0.929 . S
H1597 C1601 0.929 . S
H1598 C1607 0.929 . S
C1599 H1593 0.930 . S
C1599 C1600 1.367 . S
C1599 C1607 1.378 . S
C1600 C1599 1.367 . S
C1600 C1608 1.433 . S
C1601 H1597 0.929 . S
C1601 C1603 1.378 . S
C1601 C1605 1.350 . S
C1602 C1605 1.463 . S
C1602 C1607 1.350 . S
C1602 N1610 1.427 . S
C1603 H1594 0.930 . S
C1603 C1601 1.378 . S
C1603 C1604 1.367 . S
C1604 C1603 1.367 . S
C1604 C1606 1.433 . S
C1605 C1601 1.350 . S
C1605 C1602 1.463 . S
C1605 N1609 1.427 . S
C1606 H1596 0.929 . S
C1606 C1604 1.433 . S
C1606 N1609 1.384 . S
C1607 H1598 0.929 . S
C1607 C1599 1.378 . S
C1607 C1602 1.350 . S
C1608 H1595 0.929 . S
C1608 C1600 1.433 . S
C1608 N1610 1.384 . S
N1609 C1605 1.427 . S
N1609 C1606 1.384 . S
N1610 C1602 1.427 . S
N1610 C1608 1.384 . S
H1611 C1617 0.930 1_455 S
H1612 C1621 0.930 . S
H1613 C1626 0.929 . S
H1614 C1624 0.929 . S
H1615 C1619 0.929 . S
H1616 C1625 0.950 . S
C1617 H1611 0.930 1_655 S
C1617 C1618 1.367 . S
C1617 C1625 1.374 1_655 S
C1618 C1617 1.367 . S
C1618 C1626 1.433 . S
C1619 H1615 0.929 . S
C1619 C1621 1.378 . S
C1619 C1623 1.350 . S
C1620 C1623 1.463 . S
C1620 C1625 1.334 1_655 S
C1620 N1628 1.427 . S
C1621 H1612 0.930 . S
C1621 C1619 1.378 . S
C1621 C1622 1.367 . S
C1622 C1621 1.367 . S
C1622 C1624 1.433 1_655 S
C1623 C1619 1.350 . S
C1623 C1620 1.463 . S
C1623 N1627 1.427 1_655 S
C1624 H1614 0.929 . S
C1624 C1622 1.433 1_455 S
C1624 N1627 1.384 . S
C1625 H1616 0.950 . S
C1625 C1617 1.374 1_455 S
C1625 C1620 1.334 1_455 S
C1626 H1613 0.929 . S
C1626 C1618 1.433 . S
C1626 N1628 1.384 . S
N1627 C1623 1.427 1_455 S
N1627 C1624 1.384 . S
N1628 C1620 1.427 . S
N1628 C1626 1.384 . S
H1629 C1635 0.930 . S
H1630 C1639 0.930 . S
H1631 C1644 0.929 . S
H1632 C1642 0.929 . S
H1633 C1637 0.929 . S
H1634 C1643 0.929 . S
C1635 H1629 0.930 . S
C1635 C1636 1.367 . S
C1635 C1643 1.378 . S
C1636 C1635 1.367 . S
C1636 C1644 1.433 . S
C1637 H1633 0.929 . S
C1637 C1639 1.378 . S
C1637 C1641 1.350 . S
C1638 C1641 1.463 . S
C1638 C1643 1.350 . S
C1638 N1646 1.427 . S
C1639 H1630 0.930 . S
C1639 C1637 1.378 . S
C1639 C1640 1.367 . S
C1640 C1639 1.367 . S
C1640 C1642 1.433 . S
C1641 C1637 1.350 . S
C1641 C1638 1.463 . S
C1641 N1645 1.427 . S
C1642 H1632 0.929 . S
C1642 C1640 1.433 . S
C1642 N1645 1.384 . S
C1643 H1634 0.929 . S
C1643 C1635 1.378 . S
C1643 C1638 1.350 . S
C1644 H1631 0.929 . S
C1644 C1636 1.433 . S
C1644 N1646 1.384 . S
N1645 C1641 1.427 . S
N1645 C1642 1.384 . S
N1646 C1638 1.427 . S
N1646 C1644 1.384 . S
H1647 C1653 0.930 . S
H1648 C1657 0.930 . S
H1649 C1662 0.929 1_565 S
H1650 C1660 0.929 . S
H1651 C1655 0.929 . S
H1652 C1661 0.929 . S
C1653 H1647 0.930 . S
C1653 C1654 1.367 . S
C1653 C1661 1.378 . S
C1654 C1653 1.367 . S
C1654 C1662 1.433 . S
C1655 H1651 0.929 . S
C1655 C1657 1.378 . S
C1655 C1659 1.350 1_565 S
C1656 C1659 1.463 . S
C1656 C1661 1.350 . S
C1656 N1664 1.427 . S
C1657 H1648 0.930 . S
C1657 C1655 1.378 . S
C1657 C1658 1.367 1_565 S
C1658 C1657 1.367 1_545 S
C1658 C1660 1.433 . S
C1659 C1655 1.350 1_545 S
C1659 C1656 1.463 . S
C1659 N1663 1.427 . S
C1660 H1650 0.929 . S
C1660 C1658 1.433 . S
C1660 N1663 1.384 . S
C1661 H1652 0.929 . S
C1661 C1653 1.378 . S
C1661 C1656 1.350 . S
C1662 H1649 0.929 1_545 S
C1662 C1654 1.433 . S
C1662 N1664 1.384 . S
N1663 C1659 1.427 . S
N1663 C1660 1.384 . S
N1664 C1656 1.427 . S
N1664 C1662 1.384 . S
H1665 C1671 0.930 . S
H1666 C1675 0.930 . S
H1667 C1680 0.929 . S
H1668 C1678 0.929 . S
H1669 C1673 0.929 . S
H1670 C1679 0.929 . S
C1671 H1665 0.930 . S
C1671 C1672 1.367 . S
C1671 C1679 1.378 . S
C1672 C1671 1.367 . S
C1672 C1680 1.433 . S
C1673 H1669 0.929 . S
C1673 C1675 1.378 . S
C1673 C1677 1.350 . S
C1674 C1677 1.463 . S
C1674 C1679 1.350 . S
C1674 N1682 1.427 . S
C1675 H1666 0.930 . S
C1675 C1673 1.378 . S
C1675 C1676 1.367 . S
C1676 C1675 1.367 . S
C1676 C1678 1.433 . S
C1677 C1673 1.350 . S
C1677 C1674 1.463 . S
C1677 N1681 1.427 . S
C1678 H1668 0.929 . S
C1678 C1676 1.433 . S
C1678 N1681 1.384 . S
C1679 H1670 0.929 . S
C1679 C1671 1.378 . S
C1679 C1674 1.350 . S
C1680 H1667 0.929 . S
C1680 C1672 1.433 . S
C1680 N1682 1.384 . S
N1681 C1677 1.427 . S
N1681 C1678 1.384 . S
N1682 C1674 1.427 . S
N1682 C1680 1.384 . S
H1683 C1689 0.930 . S
H1684 C1693 0.930 . S
H1685 C1698 0.929 . S
H1686 C1696 0.929 . S
H1687 C1691 0.929 . S
H1688 C1697 0.929 . S
C1689 H1683 0.930 . S
C1689 C1690 1.367 . S
C1689 C1697 1.378 . S
C1690 C1689 1.367 . S
C1690 C1698 1.433 . S
C1691 H1687 0.929 . S
C1691 C1693 1.378 . S
C1691 C1695 1.350 . S
C1692 C1695 1.463 . S
C1692 C1697 1.350 . S
C1692 N1700 1.427 . S
C1693 H1684 0.930 . S
C1693 C1691 1.378 . S
C1693 C1694 1.367 . S
C1694 C1693 1.367 . S
C1694 C1696 1.433 . S
C1695 C1691 1.350 . S
C1695 C1692 1.463 . S
C1695 N1699 1.427 . S
C1696 H1686 0.929 . S
C1696 C1694 1.433 . S
C1696 N1699 1.384 . S
C1697 H1688 0.929 . S
C1697 C1689 1.378 . S
C1697 C1692 1.350 . S
C1698 H1685 0.929 . S
C1698 C1690 1.433 . S
C1698 N1700 1.384 . S
N1699 C1695 1.427 . S
N1699 C1696 1.384 . S
N1700 C1692 1.427 . S
N1700 C1698 1.384 . S
H1701 C1707 0.930 . S
H1702 C1711 0.930 . S
H1703 C1716 0.929 . S
H1704 C1714 0.929 . S
H1705 C1709 0.929 . S
H1706 C1715 0.929 . S
C1707 H1701 0.930 . S
C1707 C1708 1.367 . S
C1707 C1715 1.378 . S
C1708 C1707 1.367 . S
C1708 C1716 1.433 . S
C1709 H1705 0.929 . S
C1709 C1711 1.378 . S
C1709 C1713 1.350 . S
C1710 C1713 1.463 . S
C1710 C1715 1.350 . S
C1710 N1718 1.427 . S
C1711 H1702 0.930 . S
C1711 C1709 1.378 . S
C1711 C1712 1.367 . S
C1712 C1711 1.367 . S
C1712 C1714 1.433 . S
C1713 C1709 1.350 . S
C1713 C1710 1.463 . S
C1713 N1717 1.427 . S
C1714 H1704 0.929 . S
C1714 C1712 1.433 . S
C1714 N1717 1.384 . S
C1715 H1706 0.929 . S
C1715 C1707 1.378 . S
C1715 C1710 1.350 . S
C1716 H1703 0.929 . S
C1716 C1708 1.433 . S
C1716 N1718 1.384 . S
N1717 C1713 1.427 . S
N1717 C1714 1.384 . S
N1718 C1710 1.427 . S
N1718 C1716 1.384 . S
H1719 C1725 0.930 . S
H1720 C1729 0.930 . S
H1721 C1734 0.929 . S
H1722 C1732 0.929 . S
H1723 C1727 0.929 . S
H1724 C1733 0.929 . S
C1725 H1719 0.930 . S
C1725 C1726 1.367 . S
C1725 C1733 1.378 . S
C1726 C1725 1.367 . S
C1726 C1734 1.433 . S
C1727 H1723 0.929 . S
C1727 C1729 1.378 . S
C1727 C1731 1.350 . S
C1728 C1731 1.463 . S
C1728 C1733 1.350 . S
C1728 N1736 1.427 . S
C1729 H1720 0.930 . S
C1729 C1727 1.378 . S
C1729 C1730 1.367 . S
C1730 C1729 1.367 . S
C1730 C1732 1.433 . S
C1731 C1727 1.350 . S
C1731 C1728 1.463 . S
C1731 N1735 1.427 . S
C1732 H1722 0.929 . S
C1732 C1730 1.433 . S
C1732 N1735 1.384 . S
C1733 H1724 0.929 . S
C1733 C1725 1.378 . S
C1733 C1728 1.350 . S
C1734 H1721 0.929 . S
C1734 C1726 1.433 . S
C1734 N1736 1.384 . S
N1735 C1731 1.427 . S
N1735 C1732 1.384 . S
N1736 C1728 1.427 . S
N1736 C1734 1.384 . S
H1737 C1743 0.930 . S
H1738 C1747 0.930 . S
H1739 C1752 0.929 . S
H1740 C1750 0.929 . S
H1741 C1745 0.929 . S
H1742 C1751 0.929 . S
C1743 H1737 0.930 . S
C1743 C1744 1.367 . S
C1743 C1751 1.378 . S
C1744 C1743 1.367 . S
C1744 C1752 1.433 . S
C1745 H1741 0.929 . S
C1745 C1747 1.378 . S
C1745 C1749 1.350 . S
C1746 C1749 1.463 . S
C1746 C1751 1.350 . S
C1746 N1754 1.427 . S
C1747 H1738 0.930 . S
C1747 C1745 1.378 . S
C1747 C1748 1.367 . S
C1748 C1747 1.367 . S
C1748 C1750 1.433 . S
C1749 C1745 1.350 . S
C1749 C1746 1.463 . S
C1749 N1753 1.427 . S
C1750 H1740 0.929 . S
C1750 C1748 1.433 . S
C1750 N1753 1.384 . S
C1751 H1742 0.929 . S
C1751 C1743 1.378 . S
C1751 C1746 1.350 . S
C1752 H1739 0.929 . S
C1752 C1744 1.433 . S
C1752 N1754 1.384 . S
N1753 C1749 1.427 . S
N1753 C1750 1.384 . S
N1754 C1746 1.427 . S
N1754 C1752 1.384 . S
H1755 C1761 0.930 . S
H1756 C1765 0.930 . S
H1757 C1770 0.929 . S
H1758 C1768 0.929 . S
H1759 C1763 0.929 . S
H1760 C1769 0.929 . S
C1761 H1755 0.930 . S
C1761 C1762 1.367 . S
C1761 C1769 1.378 . S
C1762 C1761 1.367 . S
C1762 C1770 1.433 . S
C1763 H1759 0.929 . S
C1763 C1765 1.378 . S
C1763 C1767 1.350 . S
C1764 C1767 1.463 . S
C1764 C1769 1.350 . S
C1764 N1772 1.427 . S
C1765 H1756 0.930 . S
C1765 C1763 1.378 . S
C1765 C1766 1.367 . S
C1766 C1765 1.367 . S
C1766 C1768 1.433 . S
C1767 C1763 1.350 . S
C1767 C1764 1.463 . S
C1767 N1771 1.427 . S
C1768 H1758 0.929 . S
C1768 C1766 1.433 . S
C1768 N1771 1.384 . S
C1769 H1760 0.929 . S
C1769 C1761 1.378 . S
C1769 C1764 1.350 . S
C1770 H1757 0.929 . S
C1770 C1762 1.433 . S
C1770 N1772 1.384 . S
N1771 C1767 1.427 . S
N1771 C1768 1.384 . S
N1772 C1764 1.427 . S
N1772 C1770 1.384 . S
H1773 C1779 0.930 . S
H1774 C1783 0.930 . S
H1775 C1788 0.929 . S
H1776 C1786 0.929 . S
H1777 C1781 0.929 . S
H1778 C1787 0.929 . S
C1779 H1773 0.930 . S
C1779 C1780 1.367 . S
C1779 C1787 1.378 . S
C1780 C1779 1.367 . S
C1780 C1788 1.433 . S
C1781 H1777 0.929 . S
C1781 C1783 1.378 . S
C1781 C1785 1.350 . S
C1782 C1785 1.463 . S
C1782 C1787 1.350 . S
C1782 N1790 1.427 . S
C1783 H1774 0.930 . S
C1783 C1781 1.378 . S
C1783 C1784 1.367 . S
C1784 C1783 1.367 . S
C1784 C1786 1.433 . S
C1785 C1781 1.350 . S
C1785 C1782 1.463 . S
C1785 N1789 1.427 . S
C1786 H1776 0.929 . S
C1786 C1784 1.433 . S
C1786 N1789 1.384 . S
C1787 H1778 0.929 . S
C1787 C1779 1.378 . S
C1787 C1782 1.350 . S
C1788 H1775 0.929 . S
C1788 C1780 1.433 . S
C1788 N1790 1.384 . S
N1789 C1785 1.427 . S
N1789 C1786 1.384 . S
N1790 C1782 1.427 . S
N1790 C1788 1.384 . S
H1791 C1797 0.930 . S
H1792 C1801 0.930 . S
H1793 C1806 0.929 . S
H1794 C1804 0.929 . S
H1795 C1799 0.929 . S
H1796 C1805 0.929 . S
C1797 H1791 0.930 . S
C1797 C1798 1.367 . S
C1797 C1805 1.378 . S
C1798 C1797 1.367 . S
C1798 C1806 1.433 . S
C1799 H1795 0.929 . S
C1799 C1801 1.378 . S
C1799 C1803 1.350 . S
C1800 C1803 1.463 . S
C1800 C1805 1.350 . S
C1800 N1808 1.427 . S
C1801 H1792 0.930 . S
C1801 C1799 1.378 . S
C1801 C1802 1.367 . S
C1802 C1801 1.367 . S
C1802 C1804 1.433 . S
C1803 C1799 1.350 . S
C1803 C1800 1.463 . S
C1803 N1807 1.427 . S
C1804 H1794 0.929 . S
C1804 C1802 1.433 . S
C1804 N1807 1.384 . S
C1805 H1796 0.929 . S
C1805 C1797 1.378 . S
C1805 C1800 1.350 . S
C1806 H1793 0.929 . S
C1806 C1798 1.433 . S
C1806 N1808 1.384 . S
N1807 C1803 1.427 . S
N1807 C1804 1.384 . S
N1808 C1800 1.427 . S
N1808 C1806 1.384 . S
H1809 C1815 0.930 . S
H1810 C1819 0.930 . S
H1811 C1824 0.929 . S
H1812 C1822 0.929 . S
H1813 C1817 0.929 . S
H1814 C1823 0.929 . S
C1815 H1809 0.930 . S
C1815 C1816 1.367 . S
C1815 C1823 1.378 . S
C1816 C1815 1.367 . S
C1816 C1824 1.433 . S
C1817 H1813 0.929 . S
C1817 C1819 1.378 . S
C1817 C1821 1.350 . S
C1818 C1821 1.463 . S
C1818 C1823 1.350 . S
C1818 N1826 1.427 . S
C1819 H1810 0.930 . S
C1819 C1817 1.378 . S
C1819 C1820 1.367 . S
C1820 C1819 1.367 . S
C1820 C1822 1.433 . S
C1821 C1817 1.350 . S
C1821 C1818 1.463 . S
C1821 N1825 1.427 . S
C1822 H1812 0.929 . S
C1822 C1820 1.433 . S
C1822 N1825 1.384 . S
C1823 H1814 0.929 . S
C1823 C1815 1.378 . S
C1823 C1818 1.350 . S
C1824 H1811 0.929 . S
C1824 C1816 1.433 . S
C1824 N1826 1.384 . S
N1825 C1821 1.427 . S
N1825 C1822 1.384 . S
N1826 C1818 1.427 . S
N1826 C1824 1.384 . S
H1827 C1833 0.930 . S
H1828 C1837 0.930 . S
H1829 C1842 0.929 . S
H1830 C1840 0.929 . S
H1831 C1835 0.929 . S
H1832 C1841 0.929 . S
C1833 H1827 0.930 . S
C1833 C1834 1.367 . S
C1833 C1841 1.378 . S
C1834 C1833 1.367 . S
C1834 C1842 1.433 . S
C1835 H1831 0.929 . S
C1835 C1837 1.378 . S
C1835 C1839 1.350 . S
C1836 C1839 1.463 . S
C1836 C1841 1.350 . S
C1836 N1844 1.427 . S
C1837 H1828 0.930 . S
C1837 C1835 1.378 . S
C1837 C1838 1.367 . S
C1838 C1837 1.367 . S
C1838 C1840 1.433 . S
C1839 C1835 1.350 . S
C1839 C1836 1.463 . S
C1839 N1843 1.427 . S
C1840 H1830 0.929 . S
C1840 C1838 1.433 . S
C1840 N1843 1.384 . S
C1841 H1832 0.929 . S
C1841 C1833 1.378 . S
C1841 C1836 1.350 . S
C1842 H1829 0.929 . S
C1842 C1834 1.433 . S
C1842 N1844 1.384 . S
N1843 C1839 1.427 . S
N1843 C1840 1.384 . S
N1844 C1836 1.427 . S
N1844 C1842 1.384 . S
H1845 C1851 0.930 . S
H1846 C1855 0.930 . S
H1847 C1860 0.929 . S
H1848 C1858 0.929 . S
H1849 C1853 0.929 . S
H1850 C1859 0.929 . S
C1851 H1845 0.930 . S
C1851 C1852 1.367 . S
C1851 C1859 1.378 . S
C1852 C1851 1.367 . S
C1852 C1860 1.433 . S
C1853 H1849 0.929 . S
C1853 C1855 1.378 . S
C1853 C1857 1.350 . S
C1854 C1857 1.463 . S
C1854 C1859 1.350 . S
C1854 N1862 1.427 . S
C1855 H1846 0.930 . S
C1855 C1853 1.378 . S
C1855 C1856 1.367 . S
C1856 C1855 1.367 . S
C1856 C1858 1.433 . S
C1857 C1853 1.350 . S
C1857 C1854 1.463 . S
C1857 N1861 1.427 . S
C1858 H1848 0.929 . S
C1858 C1856 1.433 . S
C1858 N1861 1.384 . S
C1859 H1850 0.929 . S
C1859 C1851 1.378 . S
C1859 C1854 1.350 . S
C1860 H1847 0.929 . S
C1860 C1852 1.433 . S
C1860 N1862 1.384 . S
N1861 C1857 1.427 . S
N1861 C1858 1.384 . S
N1862 C1854 1.427 . S
N1862 C1860 1.384 . S
H1863 C1869 0.930 . S
H1864 C1873 0.930 . S
H1865 C1878 0.929 . S
H1866 C1876 0.929 . S
H1867 C1871 0.929 . S
H1868 C1877 0.929 . S
C1869 H1863 0.930 . S
C1869 C1870 1.367 . S
C1869 C1877 1.378 . S
C1870 C1869 1.367 . S
C1870 C1878 1.433 . S
C1871 H1867 0.929 . S
C1871 C1873 1.378 . S
C1871 C1875 1.350 . S
C1872 C1875 1.463 . S
C1872 C1877 1.350 . S
C1872 N1880 1.427 . S
C1873 H1864 0.930 . S
C1873 C1871 1.378 . S
C1873 C1874 1.367 . S
C1874 C1873 1.367 . S
C1874 C1876 1.433 . S
C1875 C1871 1.350 . S
C1875 C1872 1.463 . S
C1875 N1879 1.427 . S
C1876 H1866 0.929 . S
C1876 C1874 1.433 . S
C1876 N1879 1.384 . S
C1877 H1868 0.929 . S
C1877 C1869 1.378 . S
C1877 C1872 1.350 . S
C1878 H1865 0.929 . S
C1878 C1870 1.433 . S
C1878 N1880 1.384 . S
N1879 C1875 1.427 . S
N1879 C1876 1.384 . S
N1880 C1872 1.427 . S
N1880 C1878 1.384 . S
C916 C522 1.502 . S
C920 C734 1.399 . S
C934 C562 1.487 . S
C938 C755 1.384 . S
C952 C495 1.412 . S
C956 C775 1.196 . S
C970 C455 1.431 . S
C974 C754 1.182 1_556 S
C992 C776 1.418 . S
C988 C362 1.528 . S
C1006 C402 1.472 . S
C1010 C733 1.195 1_556 S
C1028 C735 1.363 . S
C1024 C442 1.402 . S
C1046 C756 1.338 . S
C1042 C375 1.387 . S
C1060 C415 1.488 . S
C1064 C778 1.231 1_556 S
C1078 C535 1.423 . S
C1082 C757 1.182 . S
C1096 C575 1.343 . S
C1100 C777 1.293 . S
C1118 C736 1.253 . S
C1114 C482 1.427 . S
C1136 C797 1.416 . S
C1132 C42 1.504 . S
C1150 C82 1.488 . S
C1154 C818 1.382 . S
C1168 C15 1.417 . S
C1172 C838 1.202 . S
C1186 C695 1.445 . S
C1190 C817 1.215 . S
C1204 C602 1.528 . S
C1208 C839 1.427 . S
C1222 C642 1.474 . S
C1226 C796 1.213 . S
C1240 C682 1.418 . S
C1244 C798 1.380 . S
C1258 C615 1.383 . S
C1262 C819 1.334 . S
C1280 C841 1.207 . S
C1276 C655 1.479 . S
C1294 C55 1.431 . S
C1298 C820 1.194 . S
C1316 C840 1.283 . S
C1312 C95 1.352 . S
C1330 C2 1.416 . S
C1334 C799 1.200 . S
C1352 C860 1.405 . S
C1348 C282 1.499 . S
C1366 C322 1.489 . S
C1370 C881 1.400 . S
C1388 C901 1.169 . S
C1384 C255 1.404 . S
C1406 C880 1.183 . S
C1402 C215 1.431 . S
C1424 C902 1.419 . S
C1420 C122 1.528 . S
C1438 C162 1.469 . S
C1442 C859 1.181 . S
C1456 C202 1.407 . S
C1460 C861 1.363 . S
C1474 C135 1.389 . S
C1478 C882 1.319 . S
C1496 C904 1.227 . S
C1492 C175 1.487 . S
C1510 C295 1.422 . S
C1514 C883 1.179 . S
C1528 C335 1.348 . S
C1532 C903 1.297 . S
C1546 C242 1.426 . S
C1550 C862 1.217 . S
C1564 C621 1.426 . S
C1568 C738 1.374 1_565 S
C1586 C759 1.423 . S
C1582 C661 1.471 . S
C1600 C701 1.503 . S
C1604 C779 1.511 . S
C1618 C261 1.552 . S
C1622 C758 1.558 1_655 S
C1636 C301 1.479 . S
C1640 C780 1.426 . S
C1658 C737 1.490 . S
C1654 C341 1.529 . S
C1672 C141 1.426 . S
C1676 C801 1.387 . S
C1690 C181 1.470 . S
C1694 C822 1.425 . S
C1708 C221 1.509 . S
C1712 C842 1.521 . S
C1726 C501 1.548 . S
C1730 C821 1.548 . S
C1748 C843 1.436 . S
C1744 C541 1.479 . S
C1762 C581 1.529 . S
C1766 C800 1.496 . S
C1780 C381 1.426 . S
C1784 C864 1.386 . S
C1798 C421 1.471 . S
C1802 C885 1.423 . S
C1820 C905 1.521 . S
C1816 C461 1.500 . S
C1834 C21 1.546 . S
C1838 C884 1.559 . S
C1852 C61 1.479 . S
C1856 C906 1.436 . S
C1870 C101 1.529 . S
C1874 C863 1.487 . S
