# Generated by pormake.
# Topology nia, (6,6)-cn, num edge types: 1
# Building blocks:
#     Node 0, Type 0, BuildingBlock: KUMBUR_clean_sbu_0, # of connection points: 6
#     Node 1, Type 0, BuildingBlock: KUMBUR_clean_sbu_0, # of connection points: 6
#     Node 2, Type 1, BuildingBlock: MIDCAF_clean_sbu_0, # of connection points: 6
#     Node 3, Type 1, BuildingBlock: MIDCAF_clean_sbu_0, # of connection points: 6
#     Edge 4, Type (0, 1), BuildingBlock: MIFKUJ_clean_linker_0, # of connection points: 2
#     Edge 5, Type (0, 1), BuildingBlock: MIFKUJ_clean_linker_0, # of connection points: 2
#     Edge 6, Type (0, 1), BuildingBlock: MIFKUJ_clean_linker_0, # of connection points: 2
#     Edge 7, Type (0, 1), BuildingBlock: MIFKUJ_clean_linker_0, # of connection points: 2
#     Edge 8, Type (0, 1), BuildingBlock: MIFKUJ_clean_linker_0, # of connection points: 2
#     Edge 9, Type (0, 1), BuildingBlock: MIFKUJ_clean_linker_0, # of connection points: 2
#     Edge 10, Type (0, 1), BuildingBlock: MIFKUJ_clean_linker_0, # of connection points: 2
#     Edge 11, Type (0, 1), BuildingBlock: MIFKUJ_clean_linker_0, # of connection points: 2
#     Edge 12, Type (0, 1), BuildingBlock: MIFKUJ_clean_linker_0, # of connection points: 2
#     Edge 13, Type (0, 1), BuildingBlock: MIFKUJ_clean_linker_0, # of connection points: 2
#     Edge 14, Type (0, 1), BuildingBlock: MIFKUJ_clean_linker_0, # of connection points: 2
#     Edge 15, Type (0, 1), BuildingBlock: MIFKUJ_clean_linker_0, # of connection points: 2
# Relax obj value: 0.166
# Max RMSD: 0.278
# Mean RMSD: 0.202
data_MOF--net-nia--node1-KUMBUR_clean_sbu_0--node2-MIDCAF_clean_sbu_0--edge1-MIFKUJ_clean_linker_0
_symmetry_space_group_name_H-M    P1
_symmetry_Int_Tables_number       1
_symmetry_cell_setting            triclinic
loop_
_symmetry_equiv_pos_as_xyz
'x, y, z'
_cell_length_a     35.44496
_cell_length_b     35.526652
_cell_length_c     41.919683
_cell_angle_alpha  90.338773
_cell_angle_beta   89.798788
_cell_angle_gamma 138.00455
loop_
_atom_site_label
_atom_site_type_symbol
_atom_site_fract_x
_atom_site_fract_y
_atom_site_fract_z
_atom_type_partial_charge
Tb0 Tb 0.01919 0.98107 0.0359 0.0
C1 C 0.02298 0.04434 0.89845 0.0
C2 C 0.1108 0.14401 0.89475 0.0
C3 C 0.06527 0.08745 0.84661 0.0
C4 C 0.06678 0.09581 0.91321 0.0
C5 C 0.02175 0.03964 0.86492 0.0
C6 C 0.1102 0.13931 0.86149 0.0
C7 C 0.9305 0.94253 0.86945 0.0
N8 N 0.97965 -0.00022 0.91667 0.0
C9 C 0.93236 0.9499 0.90241 0.0
C10 C 0.97557 0.98756 0.8506 0.0
Tb11 Tb 0.98483 0.01732 0.97024 0.0
N12 N 0.06468 0.09936 0.94531 0.0
C13 C 0.10555 0.15096 0.96008 0.0
C14 C 0.15266 0.19615 0.90998 0.0
C15 C 0.14958 0.19968 0.94273 0.0
H16 H 0.89637 0.91547 0.91679 0.0
H17 H 0.18157 0.23994 0.95482 0.0
H18 H 0.14333 0.1759 0.84697 0.0
H19 H 0.89378 0.90249 0.85854 0.0
H20 H 0.10659 0.15611 0.98537 0.0
H21 H 0.80443 0.7675 0.04637 0.0
H22 H 0.18686 0.23405 0.89661 0.0
H23 H 0.11041 0.07531 0.09104 0.0
H24 H 0.88861 0.84815 0.01789 0.0
H25 H 0.11392 0.08448 0.14978 0.0
H26 H 0.06383 0.08507 0.82082 0.0
H27 H 0.79923 0.77048 0.10489 0.0
H28 H 0.84623 0.82378 0.15604 0.0
H29 H 0.97357 0.98219 0.82497 0.0
H30 H 0.92989 0.90995 0.18418 0.0
N31 N 0.93489 0.90029 0.05951 0.0
C32 C 0.88938 0.85168 0.04341 0.0
C33 C 0.8374 0.80684 0.09249 0.0
C34 C 0.88392 0.8555 0.10909 0.0
C35 C 0.84025 0.80497 0.05952 0.0
C36 C 0.93257 0.90195 0.09177 0.0
H37 H 0.02966 0.00719 0.18208 0.0
N38 N 0.02451 0.99453 0.09001 0.0
C39 C 0.07549 0.04673 0.13821 0.0
C40 C 0.979 0.95066 0.10752 0.0
C41 C 0.07328 0.04143 0.10499 0.0
C42 C 0.02791 0.00305 0.15635 0.0
C43 C 0.97902 0.95399 0.1411 0.0
O44 O 0.09616 0.01054 0.04249 0.0
O45 O 0.04203 0.01921 0.98952 0.0
O46 O 0.98052 0.95654 0.9515 0.0
O47 O 0.97742 0.91792 0.99777 0.0
O48 O 0.1049 0.06154 0.02167 0.0
O49 O 0.01913 0.92157 0.04054 0.0
O50 O 0.90654 0.9839 0.96072 0.0
O51 O 0.96328 0.98212 0.01723 0.0
O52 O 0.03134 0.04662 0.05543 0.0
O53 O 0.02543 0.07927 0.00944 0.0
O54 O 0.90023 0.93735 0.98449 0.0
O55 O 0.98039 0.07342 0.96634 0.0
C56 C 0.09466 0.06185 0.99223 0.0
C57 C 0.09655 0.95315 0.06987 0.0
C58 C 0.12451 0.91145 0.08747 0.0
C59 C 0.0961 0.91347 0.06562 0.0
C60 C 0.15184 0.94778 0.1139 0.0
C61 C 0.12542 0.99001 0.09623 0.0
C62 C 0.15199 0.98665 0.11833 0.0
C63 C 0.96949 0.9168 0.96684 0.0
C64 C 0.0736 0.96064 0.04466 0.0
C65 C 0.93074 0.90807 0.15841 0.0
C66 C 0.88319 0.85899 0.14241 0.0
C67 C 0.91043 0.94118 0.01453 0.0
C68 C 0.90441 0.04085 0.9348 0.0
C69 C 0.89803 0.07499 0.94053 0.0
C70 C 0.87131 0.07786 0.9177 0.0
C71 C 0.85086 0.04648 0.88937 0.0
C72 C 0.88367 0.00988 0.90618 0.0
C73 C 0.85714 0.01278 0.88366 0.0
C74 C 0.03791 0.08375 0.04009 0.0
C75 C 0.92644 0.03273 0.96023 0.0
H76 H 0.07552 0.88578 0.04499 0.0
H77 H 0.17375 0.94648 0.1309 0.0
H78 H 0.12984 0.02314 0.09922 0.0
H79 H 0.17407 0.01529 0.13848 0.0
H80 H 0.91292 0.0984 0.9627 0.0
H81 H 0.82971 0.04793 0.8717 0.0
H82 H 0.88626 0.98206 0.9015 0.0
H83 H 0.84077 0.98827 0.86188 0.0
Tb84 Tb -0.00262 0.03092 0.53802 0.0
C85 C 0.99217 0.96302 0.3991 0.0
C86 C 0.89918 0.86606 0.39581 0.0
C87 C 0.94657 0.92111 0.34746 0.0
C88 C 0.94637 0.91268 0.41398 0.0
C89 C 0.99292 0.9677 0.36564 0.0
C90 C 0.89974 0.87046 0.36252 0.0
C91 C 0.08522 0.0643 0.37048 0.0
N92 N 0.03515 0.00791 0.4175 0.0
C93 C 0.08241 0.05772 0.40356 0.0
C94 C 0.04009 0.01921 0.35145 0.0
Tb95 Tb 0.02821 0.99179 0.4712 0.0
N96 N 0.94628 0.91084 0.44637 0.0
C97 C 0.89966 0.86245 0.46181 0.0
C98 C 0.85205 0.81689 0.41164 0.0
C99 C 0.8523 0.81522 0.44478 0.0
H100 H 0.11786 0.0925 0.4182 0.0
H101 H 0.81568 0.77763 0.45733 0.0
H102 H 0.86386 0.83513 0.34825 0.0
H103 H 0.12229 0.10407 0.3597 0.0
H104 H 0.89679 0.85939 0.48737 0.0
H105 H 0.20309 0.24819 0.5575 0.0
H106 H 0.81494 0.78037 0.39856 0.0
H107 H 0.9024 0.93778 0.59195 0.0
H108 H 0.12259 0.16826 0.5264 0.0
H109 H 0.89896 0.91918 0.6493 0.0
H110 H 0.94628 0.92398 0.32176 0.0
H111 H 0.21194 0.23594 0.61386 0.0
H112 H 0.16975 0.17279 0.6612 0.0
H113 H 0.04224 0.02445 0.32583 0.0
H114 H 0.08726 0.08199 0.68614 0.0
N115 N 0.08009 0.10903 0.56438 0.0
C116 C 0.12257 0.1613 0.551 0.0
C117 C 0.17492 0.2003 0.60033 0.0
C118 C 0.13153 0.14746 0.61429 0.0
C119 C 0.16979 0.20747 0.5687 0.0
C120 C 0.08381 0.10248 0.59564 0.0
H121 H 0.98573 0.98729 0.682 0.0
N122 N 0.99085 0.01228 0.59151 0.0
C123 C 0.93854 0.95641 0.63839 0.0
C124 C 0.03766 0.05194 0.60962 0.0
C125 C 0.94068 0.96676 0.60593 0.0
C126 C 0.98756 0.99484 0.65674 0.0
C127 C 0.03758 0.04426 0.64265 0.0
O128 O 0.92172 0.00383 0.54406 0.0
O129 O 0.97365 0.9942 0.49079 0.0
O130 O 0.03266 0.05239 0.45252 0.0
O131 O 0.04246 0.0945 0.49966 0.0
O132 O 0.91149 0.95264 0.52372 0.0
O133 O -2e-05 0.09218 0.54501 0.0
O134 O 0.10596 0.02332 0.46338 0.0
O135 O 0.05109 0.0284 0.5181 0.0
O136 O 0.98039 0.96166 0.55534 0.0
O137 O 0.98515 0.92806 0.50887 0.0
O138 O 0.11387 0.07175 0.48568 0.0
O139 O 0.0303 0.93383 0.466 0.0
C140 C 0.92068 0.95412 0.49368 0.0
C141 C 0.92059 0.05982 0.57243 0.0
C142 C 0.89086 0.10015 0.58921 0.0
C143 C 0.92211 0.10017 0.56864 0.0
C144 C 0.85877 0.06051 0.61378 0.0
C145 C 0.88798 0.02022 0.59719 0.0
C146 C 0.85763 0.02088 0.61782 0.0
C147 C 0.04698 0.09405 0.46822 0.0
C148 C 0.94535 0.05392 0.54759 0.0
C149 C 0.08632 0.08733 0.66084 0.0
C150 C 0.13324 0.139 0.64667 0.0
C151 C 0.10367 0.07008 0.51549 0.0
C152 C 0.10847 0.96719 0.43607 0.0
C153 C 0.11337 0.9317 0.44085 0.0
C154 C 0.14234 0.93081 0.41842 0.0
C155 C 0.16621 0.96526 0.39139 0.0
C156 C 0.133 0.00139 0.40878 0.0
C157 C 0.16138 0.00019 0.38659 0.0
C158 C 0.97179 0.92355 0.53928 0.0
C159 C 0.08477 0.97394 0.46145 0.0
H160 H 0.94605 0.13028 0.54931 0.0
H161 H 0.83459 0.06032 0.62983 0.0
H162 H 0.88378 0.98719 0.59996 0.0
H163 H 0.83232 0.98993 0.63659 0.0
H164 H 0.09573 0.90582 0.46203 0.0
H165 H 0.18888 0.96518 0.374 0.0
H166 H 0.13226 0.03071 0.405 0.0
H167 H 0.18046 0.0271 0.36586 0.0
Zn168 Zn 0.35829 0.68137 0.17048 0.0
Zn169 Zn 0.36312 0.68653 0.30467 0.0
Zn170 Zn 0.35877 0.67771 0.25214 0.0
C171 C 0.46125 0.72794 0.29362 0.0
C172 C 0.27701 0.57945 0.30302 0.0
O173 O 0.3206 0.70171 0.23193 0.0
O174 O 0.3217 0.70173 0.17825 0.0
C175 C 0.46772 0.75633 0.20366 0.0
O176 O 0.44837 0.73407 0.26688 0.0
O177 O 0.42366 0.69596 0.31446 0.0
O178 O 0.28851 0.61612 0.32026 0.0
O179 O 0.3028 0.59409 0.27617 0.0
O180 O 0.43871 0.74127 0.17889 0.0
O181 O 0.44522 0.73467 0.23149 0.0
O182 O 0.30734 0.58863 0.24441 0.0
O183 O 0.32506 0.62042 0.19703 0.0
C184 C 0.30311 0.58016 0.21449 0.0
O185 O 0.32922 0.71345 0.2667 0.0
O186 O 0.38243 0.75411 0.30947 0.0
C187 C 0.30943 0.70827 0.20451 0.0
C188 C 0.35008 0.74722 0.29062 0.0
Zn189 Zn 0.65553 0.33063 0.80645 0.0
Zn190 Zn 0.64618 0.32458 0.69638 0.0
Zn191 Zn 0.65081 0.32528 0.75262 0.0
C192 C 0.70773 0.43074 0.70776 0.0
C193 C 0.5373 0.24281 0.71017 0.0
O194 O 0.67933 0.28964 0.77067 0.0
O195 O 0.63901 0.2661 0.81757 0.0
C196 C 0.73971 0.43594 0.79427 0.0
O197 O 0.7048 0.41287 0.73535 0.0
O198 O 0.67919 0.39697 0.68475 0.0
O199 O 0.56734 0.25794 0.6862 0.0
O200 O 0.56063 0.26598 0.73755 0.0
O201 O 0.73382 0.4056 0.81428 0.0
O202 O 0.70789 0.41299 0.76934 0.0
O203 O 0.56504 0.27376 0.77138 0.0
O204 O 0.59458 0.32167 0.81624 0.0
C205 C 0.55489 0.28495 0.79719 0.0
O206 O 0.68662 0.29724 0.73656 0.0
O207 O 0.69363 0.31805 0.68583 0.0
C208 C 0.66405 0.26402 0.79761 0.0
C209 C 0.70237 0.30139 0.70782 0.0
H210 H 0.04703 0.80362 0.10695 0.0
H211 H 0.06784 0.75373 0.12112 0.0
H212 H 0.23115 0.88405 0.07671 0.0
H213 H 0.21044 0.93422 0.06276 0.0
H214 H 0.18158 0.7712 0.07553 0.0
H215 H 0.23448 0.91058 0.14626 0.0
H216 H 0.22554 0.96092 0.17973 0.0
H217 H 0.09336 0.8105 0.23347 0.0
H218 H 0.10148 0.75921 0.2002 0.0
H219 H 0.36279 0.80645 0.17984 0.0
H220 H 0.31708 0.82512 0.15294 0.0
H221 H 0.15673 0.67254 0.19189 0.0
H222 H 0.20243 0.65228 0.21788 0.0
H223 H 0.19699 0.78622 0.19373 0.0
H224 H 0.15984 0.65286 0.12413 0.0
H225 H 0.18354 0.61394 0.09243 0.0
H226 H 0.30194 0.76584 0.03761 0.0
H227 H 0.27932 0.80592 0.0692 0.0
C228 C 0.08601 0.81987 0.09874 0.0
C229 C 0.12714 0.87233 0.08378 0.0
C230 C 0.09803 0.79166 0.10698 0.0
C231 C 0.15129 0.81581 0.10035 0.0
C232 C 0.18979 0.86481 0.08193 0.0
C233 C 0.17791 0.89328 0.07389 0.0
C234 C 0.17049 0.79658 0.11798 0.0
C235 C 0.18494 0.77436 0.10134 0.0
C236 C 0.17517 0.80116 0.15164 0.0
C237 C 0.1677 0.83077 0.17032 0.0
C238 C 0.20278 0.88797 0.16482 0.0
C239 C 0.19814 0.91677 0.18389 0.0
C240 C 0.15854 0.88879 0.20852 0.0
C241 C 0.1237 0.83201 0.21423 0.0
C242 C 0.12834 0.80307 0.1953 0.0
C243 C 0.31816 0.77813 0.18374 0.0
C244 C 0.28613 0.7287 0.20143 0.0
C245 C 0.29202 0.78815 0.16782 0.0
C246 C 0.23361 0.74936 0.16986 0.0
C247 C 0.20191 0.70232 0.18979 0.0
C248 C 0.22804 0.69151 0.20521 0.0
C249 C 0.20667 0.75954 0.1515 0.0
C250 C 0.19194 0.78136 0.16799 0.0
C251 C 0.20329 0.75584 0.11777 0.0
C252 C 0.21826 0.7326 0.09928 0.0
C253 C 0.19145 0.67826 0.10559 0.0
C254 C 0.20452 0.65589 0.08755 0.0
C255 C 0.24432 0.68745 0.06307 0.0
C256 C 0.27115 0.74146 0.05659 0.0
C257 C 0.25814 0.76398 0.07453 0.0
H258 H 0.25427 0.66999 0.04908 0.0
H259 H 0.15511 0.91121 0.2233 0.0
H260 H 0.20365 0.17155 0.5373 0.0
H261 H 0.26286 0.18965 0.57885 0.0
H262 H 0.1628 0.01363 0.57749 0.0
H263 H 0.09388 0.99412 0.54348 0.0
H264 H 0.2021 0.04004 0.62837 0.0
H265 H 0.30803 0.14408 0.53301 0.0
H266 H 0.34252 0.20915 0.48886 0.0
H267 H 0.42431 0.34348 0.55602 0.0
H268 H 0.38997 0.27923 0.6005 0.0
H269 H 0.46088 0.13955 0.68315 0.0
H270 H 0.379 0.09963 0.65216 0.0
H271 H 0.40312 0.23075 0.68722 0.0
H272 H 0.48436 0.27001 0.71876 0.0
H273 H 0.4055 0.2203 0.6169 0.0
H274 H 0.29239 0.10556 0.71143 0.0
H275 H 0.27364 0.04297 0.75172 0.0
H276 H 0.21912 0.92622 0.6781 0.0
H277 H 0.23856 0.98875 0.63727 0.0
C278 C 0.19205 0.13641 0.54784 0.0
C279 C 0.14194 0.08132 0.53916 0.0
C280 C 0.22798 0.14698 0.57031 0.0
C281 C 0.22017 0.10379 0.58048 0.0
C282 C 0.17073 0.04833 0.57057 0.0
C283 C 0.13131 0.0371 0.55085 0.0
C284 C 0.26376 0.11687 0.60081 0.0
C285 C 0.24642 0.07924 0.62522 0.0
C286 C 0.32263 0.16739 0.59706 0.0
C287 C 0.34626 0.20675 0.57008 0.0
C288 C 0.33362 0.18756 0.53832 0.0
C289 C 0.353 0.22428 0.51325 0.0
C290 C 0.38552 0.28038 0.51964 0.0
C291 C 0.39919 0.30005 0.55109 0.0
C292 C 0.37995 0.26357 0.57622 0.0
C293 C 0.44669 0.15791 0.68552 0.0
C294 C 0.47791 0.20703 0.70377 0.0
C295 C 0.40061 0.13569 0.66745 0.0
C296 C 0.38566 0.16278 0.66716 0.0
C297 C 0.4143 0.20947 0.68715 0.0
C298 C 0.45984 0.23115 0.70564 0.0
C299 C 0.34286 0.14503 0.64439 0.0
C300 C 0.36083 0.18125 0.6194 0.0
C301 C 0.2855 0.09258 0.6467 0.0
C302 C 0.26653 0.0516 0.67135 0.0
C303 C 0.27572 0.06619 0.70389 0.0
C304 C 0.26536 0.03093 0.72679 0.0
C305 C 0.24511 0.98059 0.71748 0.0
C306 C 0.23462 0.96514 0.68527 0.0
C307 C 0.24515 0.00041 0.66223 0.0
H308 H 0.23764 0.95361 0.73521 0.0
H309 H 0.40014 0.30862 0.50022 0.0
H310 H 0.06311 0.17288 0.0172 0.0
H311 H 0.10956 0.25881 0.04575 0.0
H312 H 0.11309 0.19448 0.13126 0.0
H313 H 0.06416 0.1079 0.10359 0.0
H314 H 0.08 0.23793 0.14423 0.0
H315 H 0.23154 0.29567 0.08107 0.0
H316 H 0.27984 0.31238 0.03147 0.0
H317 H 0.27526 0.42307 0.99834 0.0
H318 H 0.22619 0.40638 0.04754 0.0
H319 H 0.27137 0.48753 0.23923 0.0
H320 H 0.22842 0.4034 0.20875 0.0
H321 H 0.22782 0.47127 0.12397 0.0
H322 H 0.27027 0.55384 0.15337 0.0
H323 H 0.26047 0.42816 0.10891 0.0
H324 H 0.11385 0.37525 0.17186 0.0
H325 H 0.06824 0.36215 0.22175 0.0
H326 H 0.05983 0.24142 0.25354 0.0
H327 H 0.10733 0.25535 0.20437 0.0
C328 C 0.07385 0.17695 0.04207 0.0
C329 C 0.06163 0.13391 0.05779 0.0
C330 C 0.10074 0.22635 0.05828 0.0
C331 C 0.11611 0.23363 0.09039 0.0
C332 C 0.1023 0.19009 0.10633 0.0
C333 C 0.07483 0.14062 0.09031 0.0
C334 C 0.14465 0.2854 0.10816 0.0
C335 C 0.1199 0.2795 0.13673 0.0
C336 C 0.19563 0.33974 0.09768 0.0
C337 C 0.2245 0.34916 0.06786 0.0
C338 C 0.24027 0.32309 0.06307 0.0
C339 C 0.26792 0.33267 0.03505 0.0
C340 C 0.28043 0.3686 0.01172 0.0
C341 C 0.26541 0.39512 0.01639 0.0
C342 C 0.23768 0.38562 0.04434 0.0
C343 C 0.26147 0.48391 0.21422 0.0
C344 C 0.27366 0.52688 0.19882 0.0
C345 C 0.2375 0.43633 0.1968 0.0
C346 C 0.22499 0.43126 0.16413 0.0
C347 C 0.23744 0.47437 0.14901 0.0
C348 C 0.26134 0.52143 0.16609 0.0
C349 C 0.19658 0.38029 0.1455 0.0
C350 C 0.22084 0.3865 0.11653 0.0
C351 C 0.14481 0.3262 0.15539 0.0
C352 C 0.11517 0.31713 0.18466 0.0
C353 C 0.10297 0.34644 0.18966 0.0
C354 C 0.07684 0.33893 0.21785 0.0
C355 C 0.06161 0.30135 0.24094 0.0
C356 C 0.07215 0.27093 0.23578 0.0
C357 C 0.09883 0.27875 0.20781 0.0
H358 H 0.04135 0.29555 0.26274 0.0
H359 H 0.3019 0.37601 0.99007 0.0
H360 H 0.81748 0.08986 0.55669 0.0
H361 H 0.79808 0.14182 0.5696 0.0
H362 H 0.9434 0.25187 0.63153 0.0
H363 H 0.96318 0.2007 0.61831 0.0
H364 H 0.8235 0.16744 0.65881 0.0
H365 H 0.95183 0.31368 0.57961 0.0
H366 H 0.98738 0.35178 0.52536 0.0
H367 H 0.82941 0.28519 0.49963 0.0
H368 H 0.79241 0.24554 0.55352 0.0
H369 H 0.79373 0.33036 0.73121 0.0
H370 H 0.83755 0.30718 0.70597 0.0
H371 H 0.71008 0.2142 0.63244 0.0
H372 H 0.66392 0.23264 0.65892 0.0
H373 H 0.82496 0.29526 0.60983 0.0
H374 H 0.69159 0.14331 0.68169 0.0
H375 H 0.64833 0.105 0.73473 0.0
H376 H 0.80128 0.17008 0.77096 0.0
H377 H 0.84644 0.21106 0.71833 0.0
C378 C 0.84686 0.12713 0.57162 0.0
C379 C 0.89186 0.1419 0.58654 0.0
C380 C 0.83573 0.15653 0.57903 0.0
C381 C 0.86932 0.20027 0.60159 0.0
C382 C 0.91748 0.21843 0.6139 0.0
C383 C 0.92887 0.18948 0.60627 0.0
C384 C 0.84775 0.21806 0.61777 0.0
C385 C 0.82469 0.19619 0.64835 0.0
C386 C 0.84723 0.25343 0.6033 0.0
C387 C 0.86906 0.27591 0.57057 0.0
C388 C 0.92429 0.30629 0.56227 0.0
C389 C 0.94481 0.32839 0.53159 0.0
C390 C 0.91062 0.32077 0.50903 0.0
C391 C 0.85581 0.29095 0.51709 0.0
C392 C 0.83505 0.26863 0.5477 0.0
C393 C 0.77359 0.30236 0.71082 0.0
C394 C 0.72433 0.28114 0.69775 0.0
C395 C 0.79945 0.29075 0.69585 0.0
C396 C 0.77709 0.25969 0.66722 0.0
C397 C 0.72803 0.23868 0.65433 0.0
C398 C 0.70141 0.24855 0.66973 0.0
C399 C 0.80254 0.24604 0.65109 0.0
C400 C 0.82496 0.26746 0.62042 0.0
C401 C 0.80094 0.20885 0.66499 0.0
C402 C 0.77292 0.18144 0.69618 0.0
C403 C 0.71637 0.15021 0.70103 0.0
C404 C 0.69146 0.128 0.73105 0.0
C405 C 0.72217 0.13544 0.75628 0.0
C406 C 0.77769 0.1647 0.75143 0.0
C407 C 0.80304 0.18761 0.72152 0.0
H408 H 0.70289 0.11833 0.77954 0.0
H409 H 0.92667 0.33812 0.48534 0.0
H410 H 0.80493 0.89023 1.00277 0.0
H411 H 0.742 0.87727 0.03913 0.0
H412 H 0.86273 0.95395 0.11514 0.0
H413 H 0.92888 0.97374 0.07782 0.0
H414 H 0.71034 0.81377 0.10345 0.0
H415 H 0.87003 0.0249 0.1244 0.0
H416 H 0.93666 0.12392 0.10838 0.0
H417 H 0.80227 0.08451 0.06268 0.0
H418 H 0.73519 0.9848 0.07762 0.0
H419 H 0.54008 0.75615 0.22635 0.0
H420 H 0.62827 0.80261 0.20012 0.0
H421 H 0.61402 0.88703 0.13677 0.0
H422 H 0.52987 0.84504 0.16465 0.0
H423 H 0.71612 0.95007 0.14238 0.0
H424 H 0.55835 0.7548 0.11719 0.0
H425 H 0.47765 0.65335 0.1287 0.0
H426 H 0.58907 0.65619 0.17257 0.0
H427 H 0.67037 0.75776 0.16146 0.0
C428 C 0.81845 0.90467 0.0272 0.0
C429 C 0.87131 0.93062 0.03773 0.0
C430 C 0.7825 0.89765 0.04786 0.0
C431 C 0.79791 0.91531 0.07974 0.0
C432 C 0.85049 0.94131 0.09042 0.0
C433 C 0.88758 0.95071 0.06931 0.0
C434 C 0.7561 0.90002 0.10251 0.0
C435 C 0.71212 0.84379 0.11242 0.0
C436 C 0.75663 0.93842 0.11284 0.0
C437 C 0.79806 -0.00299 0.10117 0.0
C438 C 0.85507 0.03689 0.10998 0.0
C439 C 0.89282 0.0933 0.10136 0.0
C440 C 0.87382 0.11043 0.08428 0.0
C441 C 0.81706 0.07112 0.07564 0.0
C442 C 0.77926 0.01463 0.08404 0.0
C443 C 0.55792 0.78729 0.20821 0.0
C444 C 0.52845 0.79718 0.19763 0.0
C445 C 0.60741 0.81269 0.19257 0.0
C446 C 0.6268 0.84682 0.16564 0.0
C447 C 0.60014 0.8608 0.15727 0.0
C448 C 0.55198 0.83683 0.17336 0.0
C449 C 0.67134 0.86416 0.14438 0.0
C450 C 0.71489 0.92019 0.13404 0.0
C451 C 0.66899 0.82505 0.13247 0.0
C452 C 0.62032 0.76389 0.13878 0.0
C453 C 0.56557 0.73379 0.1294 0.0
C454 C 0.51974 0.67628 0.13582 0.0
C455 C 0.52821 0.64838 0.15143 0.0
C456 C 0.58256 0.67787 0.16051 0.0
C457 C 0.62854 0.73536 0.1541 0.0
H458 H 0.49269 0.60389 0.15645 0.0
H459 H 0.90299 0.15423 0.07798 0.0
H460 H 0.9894 0.861 0.53132 0.0
H461 H 0.94348 0.77559 0.5606 0.0
H462 H 0.84449 0.78345 0.61301 0.0
H463 H 0.88801 0.86622 0.58308 0.0
H464 H 0.89811 0.77351 0.65216 0.0
H465 H 0.7849 0.68891 0.55851 0.0
H466 H 0.76415 0.67061 0.50095 0.0
H467 H 0.83121 0.60821 0.4962 0.0
H468 H 0.85376 0.62748 0.55362 0.0
H469 H 0.69656 0.49657 0.72276 0.0
H470 H 0.74423 0.58367 0.69487 0.0
H471 H 0.85034 0.58201 0.64604 0.0
H472 H 0.80287 0.49536 0.67384 0.0
H473 H 0.79124 0.58766 0.60488 0.0
H474 H 0.90583 0.67619 0.70015 0.0
H475 H 0.92219 0.69328 0.75814 0.0
H476 H 0.84547 0.74584 0.7594 0.0
H477 H 0.8273 0.7277 0.70156 0.0
C478 C 0.95779 0.8443 0.5491 0.0
C479 C 0.94418 0.87184 0.55611 0.0
C480 C 0.93153 0.79558 0.56567 0.0
C481 C 0.89119 0.77382 0.58924 0.0
C482 C 0.87633 0.80026 0.59537 0.0
C483 C 0.90214 0.84837 0.57871 0.0
C484 C 0.86606 0.72504 0.60871 0.0
C485 C 0.87425 0.73268 0.64185 0.0
C486 C 0.83534 0.67208 0.59506 0.0
C487 C 0.82186 0.66048 0.5604 0.0
C488 C 0.79597 0.672 0.54516 0.0
C489 C 0.78374 0.66133 0.51254 0.0
C490 C 0.79654 0.63845 0.4949 0.0
C491 C 0.82148 0.6261 0.50987 0.0
C492 C 0.83405 0.63695 0.54247 0.0
C493 C 0.73176 0.51642 0.70716 0.0
C494 C 0.74708 0.49041 0.70079 0.0
C495 C 0.75836 0.56551 0.69093 0.0
C496 C 0.80027 0.58867 0.66816 0.0
C497 C 0.81777 0.56441 0.66331 0.0
C498 C 0.79139 0.51564 0.67955 0.0
C499 C 0.8241 0.63659 0.64823 0.0
C500 C 0.81534 0.62862 0.61506 0.0
C501 C 0.85372 0.68915 0.66179 0.0
C502 C 0.86472 0.70007 0.69656 0.0
C503 C 0.89188 0.6908 0.71284 0.0
C504 C 0.90152 0.70072 0.74568 0.0
C505 C 0.88483 0.72061 0.76238 0.0
C506 C 0.8583 0.7304 0.74637 0.0
C507 C 0.84828 0.72026 0.71359 0.0
H508 H 0.89264 0.7288 0.78767 0.0
H509 H 0.78696 0.63013 0.46966 0.0
H510 H 0.21976 0.94939 0.45349 0.0
H511 H 0.25153 0.90866 0.44129 0.0
H512 H 0.11411 0.79449 0.37428 0.0
H513 H 0.08092 0.83269 0.38804 0.0
H514 H 0.13911 0.74814 0.39261 0.0
H515 H 0.25612 0.94292 0.35906 0.0
H516 H 0.32041 0.04418 0.36848 0.0
H517 H 0.43502 0.05682 0.41854 0.0
H518 H 0.37095 0.95548 0.40987 0.0
H519 H 0.25399 0.71462 0.27264 0.0
H520 H 0.21483 0.74144 0.2994 0.0
H521 H 0.36112 0.85469 0.36076 0.0
H522 H 0.40187 0.83202 0.33259 0.0
H523 H 0.33413 0.90002 0.35073 0.0
H524 H 0.22335 0.70943 0.38242 0.0
H525 H 0.16179 0.60875 0.37311 0.0
H526 H 0.03924 0.58862 0.32761 0.0
H527 H 0.10021 0.68919 0.33652 0.0
C528 C 0.19483 0.9135 0.43752 0.0
C529 C 0.14809 0.89402 0.42154 0.0
C530 C 0.2135 0.89091 0.43007 0.0
C531 C 0.18681 0.85026 0.40569 0.0
C532 C 0.13613 0.82636 0.39279 0.0
C533 C 0.11688 0.84799 0.40073 0.0
C534 C 0.21444 0.83776 0.39011 0.0
C535 C 0.1818 0.78144 0.38344 0.0
C536 C 0.27064 0.88091 0.3786 0.0
C537 C 0.30844 0.94156 0.38417 0.0
C538 C 0.29484 0.96726 0.37227 0.0
C539 C 0.33124 0.02465 0.37748 0.0
C540 C 0.38169 0.05688 0.39417 0.0
C541 C 0.39585 0.03179 0.40571 0.0
C542 C 0.35948 0.97439 0.40071 0.0
C543 C 0.27856 0.74681 0.29095 0.0
C544 C 0.33093 0.77101 0.30048 0.0
C545 C 0.25561 0.76118 0.30682 0.0
C546 C 0.28407 0.79876 0.33297 0.0
C547 C 0.33786 0.82533 0.34095 0.0
C548 C 0.36121 0.81219 0.32471 0.0
C549 C 0.2585 0.81041 0.3527 0.0
C550 C 0.29166 0.86659 0.36017 0.0
C551 C 0.20308 0.76719 0.36513 0.0
C552 C 0.16648 0.7068 0.35991 0.0
C553 C 0.18338 0.68352 0.37031 0.0
C554 C 0.14857 0.62649 0.36514 0.0
C555 C 0.0967 0.59234 0.34972 0.0
C556 C 0.07943 0.6151 0.33953 0.0
C557 C 0.11402 0.67206 0.34469 0.0
H558 H 0.06985 0.54823 0.3457 0.0
H559 H 0.40989 0.10133 0.39808 0.0
H560 H 0.19131 0.16696 0.9705 0.0
H561 H 0.25833 0.19216 0.93109 0.0
H562 H 0.16531 0.01918 0.92668 0.0
H563 H 0.09422 0.99316 0.96305 0.0
H564 H 0.30814 0.1386 0.94416 0.0
H565 H 0.15128 0.02545 0.87003 0.0
H566 H 0.07644 0.99124 0.8338 0.0
H567 H 0.18979 0.15467 0.79153 0.0
H568 H 0.26406 0.19142 0.82951 0.0
H569 H 0.4828 0.18188 0.82307 0.0
H570 H 0.39973 0.13564 0.85566 0.0
H571 H 0.41839 0.26665 0.83135 0.0
H572 H 0.50224 0.31349 0.79948 0.0
H573 H 0.30791 0.15752 0.8271 0.0
H574 H 0.46205 0.27414 0.90087 0.0
H575 H 0.54512 0.31048 0.92897 0.0
H576 H 0.44467 0.14592 0.96632 0.0
H577 H 0.36099 0.10843 0.93815 0.0
C578 C 0.18286 0.13381 0.95936 0.0
C579 C 0.13457 0.07739 0.96754 0.0
C580 C 0.222 0.14838 0.93743 0.0
C581 C 0.21588 0.10731 0.92499 0.0
C582 C 0.16963 0.05126 0.93476 0.0
C583 C 0.12887 0.03635 0.95537 0.0
C584 C 0.26075 0.12456 0.90413 0.0
C585 C 0.3076 0.14184 0.91849 0.0
C586 C 0.26104 0.13038 0.87073 0.0
C587 C 0.21311 0.11136 0.85302 0.0
C588 C 0.15969 0.05476 0.85402 0.0
C589 C 0.11759 0.03464 0.83274 0.0
C590 C 0.129 0.07014 0.8096 0.0
C591 C 0.18133 0.1269 0.80907 0.0
C592 C 0.22311 0.14763 0.83084 0.0
C593 C 0.46781 0.19957 0.82392 0.0
C594 C 0.4975 0.25016 0.8082 0.0
C595 C 0.42118 0.17381 0.84296 0.0
C596 C 0.40346 0.19818 0.84626 0.0
C597 C 0.43159 0.24733 0.82921 0.0
C598 C 0.47881 0.2736 0.81068 0.0
C599 C 0.35509 0.1723 0.86706 0.0
C600 C 0.30802 0.15384 0.85278 0.0
C601 C 0.3551 0.16623 0.9004 0.0
C602 C 0.40536 0.18833 0.91711 0.0
C603 C 0.45777 0.24554 0.91481 0.0
C604 C 0.50494 0.2664 0.93082 0.0
C605 C 0.50021 0.23049 0.94935 0.0
C606 C 0.44826 0.17366 0.95192 0.0
C607 C 0.40092 0.1526 0.93597 0.0
H608 H 0.53675 0.24672 0.96176 0.0
H609 H 0.09687 0.05384 0.79243 0.0
H610 H 0.11823 0.20308 0.48761 0.0
H611 H 0.1509 0.28053 0.45758 0.0
H612 H 0.04755 0.16923 0.37779 0.0
H613 H 0.01827 0.09149 0.40727 0.0
H614 H 0.14388 0.26156 0.3575 0.0
H615 H 0.01562 0.22369 0.43652 0.0
H616 H 0.98313 0.21527 0.49097 0.0
H617 H 0.14459 0.38342 0.51282 0.0
H618 H 0.17821 0.39263 0.45875 0.0
H619 H 0.19758 0.47432 0.27512 0.0
H620 H 0.14869 0.38512 0.30094 0.0
H621 H 0.24092 0.47594 0.38801 0.0
H622 H 0.28635 0.56302 0.36318 0.0
H623 H 0.14063 0.38833 0.40263 0.0
H624 H 0.27429 0.43292 0.33125 0.0
H625 H 0.32019 0.45078 0.28032 0.0
H626 H 0.17077 0.28227 0.24928 0.0
H627 H 0.12275 0.2642 0.2993 0.0
C628 C 0.10246 0.19462 0.46375 0.0
C629 C 0.06575 0.14093 0.44989 0.0
C630 C 0.12065 0.23918 0.44663 0.0
C631 C 0.10027 0.2305 0.41578 0.0
C632 C 0.06348 0.17684 0.40174 0.0
C633 C 0.04681 0.13251 0.41855 0.0
C634 C 0.11958 0.27801 0.39762 0.0
C635 C 0.14204 0.28863 0.36703 0.0
C636 C 0.11983 0.31501 0.41084 0.0
C637 C 0.09943 0.30869 0.44356 0.0
C638 C 0.04426 0.2587 0.453 0.0
C639 C 0.02565 0.25384 0.4838 0.0
C640 C 0.06175 0.29876 0.50533 0.0
C641 C 0.11662 0.34864 0.49614 0.0
C642 C 0.13543 0.35371 0.46542 0.0
C643 C 0.20656 0.47457 0.29984 0.0
C644 C 0.24501 0.52495 0.31736 0.0
C645 C 0.17904 0.42397 0.3145 0.0
C646 C 0.19139 0.42397 0.34639 0.0
C647 C 0.23007 0.47466 0.36358 0.0
C648 C 0.25604 0.52443 0.34935 0.0
C649 C 0.16499 0.37195 0.36247 0.0
C650 C 0.14145 0.36064 0.39275 0.0
C651 C 0.16594 0.33581 0.3495 0.0
C652 C 0.19436 0.34756 0.31885 0.0
C653 C 0.25065 0.40001 0.31331 0.0
C654 C 0.2771 0.41018 0.28457 0.0
C655 C 0.24825 0.3678 0.26148 0.0
C656 C 0.19282 0.31526 0.26702 0.0
C657 C 0.16585 0.30515 0.29549 0.0
H658 H 0.26894 0.37558 0.23936 0.0
H659 H 0.04719 0.29493 0.5291 0.0
H660 H 0.79069 0.05428 0.95257 0.0
H661 H 0.75733 0.09377 0.94221 0.0
H662 H 0.89841 0.21576 0.87893 0.0
H663 H 0.93265 0.17805 0.89054 0.0
H664 H 0.86902 0.25795 0.90001 0.0
H665 H 0.76661 0.07461 0.85703 0.0
H666 H 0.70812 0.97392 0.85937 0.0
H667 H 0.57797 0.93897 0.90808 0.0
H668 H 0.63627 0.0397 0.90667 0.0
H669 H 0.75556 0.28975 0.77918 0.0
H670 H 0.79262 0.26104 0.80573 0.0
H671 H 0.65095 0.15762 0.87017 0.0
H672 H 0.61277 0.18388 0.84273 0.0
H673 H 0.67671 0.10649 0.85385 0.0
H674 H 0.77969 0.292 0.89198 0.0
H675 H 0.83817 0.39221 0.88519 0.0
H676 H 0.96746 0.42176 0.84037 0.0
H677 H 0.9095 0.32163 0.84665 0.0
C678 C 0.81591 0.09141 0.93782 0.0
C679 C 0.86389 0.11316 0.92209 0.0
C680 C 0.79649 0.11344 0.93151 0.0
C681 C 0.82401 0.15617 0.90867 0.0
C682 C 0.87584 0.18228 0.89624 0.0
C683 C 0.89562 0.1609 0.90293 0.0
C684 C 0.79587 0.16839 0.89391 0.0
C685 C 0.82698 0.22473 0.88991 0.0
C686 C 0.74069 0.12518 0.88085 0.0
C687 C 0.70613 0.06479 0.88214 0.0
C688 C 0.72575 0.04553 0.86851 0.0
C689 C 0.69262 0.98845 0.86967 0.0
C690 C 0.63942 0.95009 0.88394 0.0
C691 C 0.61927 0.96875 0.89714 0.0
C692 C 0.65239 0.02584 0.89624 0.0
C693 C 0.73129 0.25911 0.79799 0.0
C694 C 0.68101 0.23863 0.80842 0.0
C695 C 0.75303 0.24366 0.8137 0.0
C696 C 0.72516 0.20813 0.84043 0.0
C697 C 0.67338 0.18526 0.84974 0.0
C698 C 0.65156 0.20029 0.83392 0.0
C699 C 0.75029 0.19588 0.85949 0.0
C700 C 0.71848 0.13957 0.86432 0.0
C701 C 0.80499 0.23903 0.87288 0.0
C702 C 0.8401 0.29932 0.86956 0.0
C703 C 0.82048 0.31985 0.88055 0.0
C704 C 0.85355 0.37663 0.87682 0.0
C705 C 0.90643 0.41329 0.86229 0.0
C706 C 0.92648 0.39332 0.8516 0.0
C707 C 0.89359 0.3366 0.85529 0.0
H708 H 0.93192 0.45721 0.85937 0.0
H709 H 0.61373 0.90589 0.88469 0.0
H710 H 0.82706 0.92668 0.50697 0.0
H711 H 0.76317 0.90947 0.47051 0.0
H712 H 0.85407 0.92888 0.39092 0.0
H713 H 0.92937 0.96859 0.42782 0.0
H714 H 0.80377 0.93502 0.36481 0.0
H715 H 0.70813 0.78409 0.44406 0.0
H716 H 0.68275 0.74786 0.49918 0.0
H717 H 0.60948 0.80274 0.51422 0.0
H718 H 0.63493 0.83978 0.45941 0.0
H719 H 0.53462 0.7251 0.27861 0.0
H720 H 0.61906 0.77056 0.30969 0.0
H721 H 0.59626 0.85222 0.36879 0.0
H722 H 0.51402 0.80906 0.33712 0.0
H723 H 0.60552 0.7871 0.40214 0.0
H724 H 0.69962 0.93291 0.32152 0.0
H725 H 0.70982 0.95281 0.26397 0.0
H726 H 0.77308 0.88769 0.24937 0.0
H727 H 0.76234 0.86657 0.30684 0.0
C728 C 0.83379 0.9275 0.48166 0.0
C729 C 0.8807 0.94198 0.47034 0.0
C730 C 0.79549 0.91552 0.46053 0.0
C731 C 0.7979 0.90955 0.42755 0.0
C732 C 0.84751 0.92888 0.41613 0.0
C733 C 0.88984 0.94849 0.43733 0.0
C734 C 0.74953 0.8836 0.40543 0.0
C735 C 0.76077 0.90187 0.37336 0.0
C736 C 0.69188 0.84033 0.41546 0.0
C737 C 0.67367 0.81489 0.44771 0.0
C738 C 0.68627 0.78804 0.45908 0.0
C739 C 0.6721 0.76762 0.49031 0.0
C740 C 0.6446 0.77307 0.51019 0.0
C741 C 0.63078 0.79854 0.49882 0.0
C742 C 0.64497 0.81917 0.46767 0.0
C743 C 0.54963 0.75515 0.2971 0.0
C744 C 0.51949 0.76564 0.30463 0.0
C745 C 0.59698 0.78008 0.31528 0.0
C746 C 0.61364 0.81452 0.34165 0.0
C747 C 0.58418 0.82587 0.34859 0.0
C748 C 0.53786 0.80199 0.33015 0.0
C749 C 0.66095 0.83807 0.3627 0.0
C750 C 0.64908 0.81943 0.39422 0.0
C751 C 0.71721 0.87923 0.35202 0.0
C752 C 0.73051 0.89848 0.31845 0.0
C753 C 0.71631 0.92344 0.30607 0.0
C754 C 0.72184 0.9346 0.27345 0.0
C755 C 0.74213 0.92156 0.25302 0.0
C756 C 0.75752 0.89791 0.26525 0.0
C757 C 0.75187 0.88647 0.29786 0.0
H758 H 0.74583 0.92968 0.22771 0.0
H759 H 0.63395 0.75752 0.5344 0.0
H760 H 0.02854 0.90039 0.94491 0.0
H761 H 0.99149 0.81812 0.91603 0.0
H762 H 0.82393 0.74102 0.92066 0.0
H763 H 0.86143 0.82401 0.9494 0.0
H764 H 0.82445 0.66552 0.93425 0.0
H765 H 0.89487 0.79876 0.85295 0.0
H766 H 0.95921 0.88477 0.82034 0.0
H767 H 0.06996 0.87213 0.80904 0.0
H768 H 0.00679 0.7866 0.84208 0.0
H769 H 0.69559 0.4716 0.8048 0.0
H770 H 0.73743 0.55247 0.83791 0.0
H771 H 0.89303 0.60522 0.84263 0.0
H772 H 0.85023 0.52271 0.81064 0.0
H773 H 0.90193 0.69043 0.82775 0.0
H774 H 0.82488 0.55151 0.90443 0.0
H775 H 0.75386 0.45902 0.93065 0.0
H776 H 0.64876 0.47776 0.94653 0.0
H777 H 0.71886 0.57016 0.91996 0.0
C778 C 0.984 0.86612 0.93946 0.0
C779 C 0.94782 0.86856 0.94863 0.0
C780 C 0.96281 0.81911 0.9231 0.0
C781 C 0.90505 0.77371 0.91596 0.0
C782 C 0.86864 0.77568 0.92585 0.0
C783 C 0.89001 0.82305 0.94195 0.0
C784 C 0.88314 0.72496 0.89745 0.0
C785 C 0.84061 0.6708 0.91069 0.0
C786 C 0.90553 0.73209 0.8672 0.0
C787 C 0.94646 0.78669 0.85031 0.0
C788 C 0.93353 0.81499 0.84409 0.0
C789 C 0.96959 0.86342 0.82533 0.0
C790 C 0.01843 0.88363 0.81247 0.0
C791 C 0.03202 0.85628 0.81894 0.0
C792 C 0.9962 0.80794 0.83774 0.0
C793 C 0.73929 0.50155 0.8121 0.0
C794 C 0.77039 0.49211 0.80479 0.0
C795 C 0.76264 0.54683 0.8315 0.0
C796 C 0.8177 0.58374 0.84319 0.0
C797 C 0.85012 0.57647 0.83413 0.0
C798 C 0.82617 0.53019 0.81551 0.0
C799 C 0.84208 0.63135 0.8638 0.0
C800 C 0.88549 0.6853 0.85115 0.0
C801 C 0.81985 0.62368 0.89424 0.0
C802 C 0.77691 0.56759 0.90977 0.0
C803 C 0.78631 0.53566 0.9131 0.0
C804 C 0.74629 0.4833 0.92815 0.0
C805 C 0.69672 0.46242 0.94014 0.0
C806 C 0.68714 0.49394 0.93716 0.0
C807 C 0.72704 0.54636 0.92213 0.0
H808 H 0.66582 0.42191 0.95182 0.0
H809 H 0.04568 0.92037 0.79734 0.0
loop_
_geom_bond_atom_site_label_1
_geom_bond_atom_site_label_2
_geom_bond_distance
_geom_bond_site_symmetry_2
_ccdc_geom_bond_type
Tb0 N31 2.660 1_455 S
Tb0 N38 2.600 . S
Tb0 O44 2.546 1_565 S
Tb0 O45 2.610 1_564 S
Tb0 O47 2.320 1_454 S
Tb0 O48 2.552 1_565 S
Tb0 O49 2.413 . S
Tb0 O51 2.362 1_455 S
Tb0 O52 2.421 1_565 S
Tb0 C64 2.833 . S
C1 C4 1.432 . S
C1 C5 1.414 . S
C1 N8 1.359 1_455 S
C2 C4 1.417 . S
C2 C6 1.432 . S
C2 C14 1.410 . S
C3 C5 1.444 . S
C3 C6 1.317 . S
C3 H26 0.929 . S
C4 C1 1.432 . S
C4 C2 1.417 . S
C4 N12 1.360 . S
C5 C1 1.414 . S
C5 C3 1.444 . S
C5 C10 1.385 1_455 S
C6 C2 1.432 . S
C6 C3 1.317 . S
C6 H18 0.930 . S
C7 C9 1.392 . S
C7 C10 1.370 1_565 S
C7 H19 0.931 . S
N8 C1 1.359 1_655 S
N8 C9 1.327 1_545 S
N8 Tb11 2.600 . S
C9 C7 1.392 . S
C9 N8 1.327 1_565 S
C9 H16 0.930 . S
C10 C5 1.385 1_655 S
C10 C7 1.370 1_545 S
C10 H29 0.931 . S
Tb11 N8 2.600 . S
Tb11 N12 2.660 1_655 S
Tb11 O45 2.362 1_655 S
Tb11 O46 2.421 1_545 S
Tb11 O50 2.546 1_545 S
Tb11 O51 2.610 1_546 S
Tb11 O53 2.320 1_656 S
Tb11 O54 2.552 1_545 S
Tb11 O55 2.413 . S
Tb11 C75 2.833 . S
N12 C4 1.360 . S
N12 Tb11 2.660 1_455 S
N12 C13 1.305 . S
C13 N12 1.305 . S
C13 C15 1.407 . S
C13 H20 0.930 . S
C14 C2 1.410 . S
C14 C15 1.345 . S
C14 H22 0.930 . S
C15 C13 1.407 . S
C15 C14 1.345 . S
C15 H17 0.930 . S
H16 C9 0.930 . S
H17 C15 0.930 . S
H18 C6 0.930 . S
H19 C7 0.931 . S
H20 C13 0.930 . S
H21 C35 0.930 . S
H22 C14 0.930 . S
H23 C41 0.930 . S
H24 C32 0.930 . S
H25 C39 0.931 . S
H26 C3 0.929 . S
H27 C33 0.930 . S
H28 C66 0.930 . S
H29 C10 0.931 . S
H30 C65 0.929 . S
N31 Tb0 2.660 1_655 S
N31 C32 1.305 . S
N31 C36 1.360 . S
C32 H24 0.930 . S
C32 N31 1.305 . S
C32 C35 1.407 . S
C33 H27 0.930 . S
C33 C34 1.410 . S
C33 C35 1.345 . S
C34 C33 1.410 . S
C34 C36 1.417 . S
C34 C66 1.432 . S
C35 H21 0.930 . S
C35 C32 1.407 . S
C35 C33 1.345 . S
C36 N31 1.360 . S
C36 C34 1.417 . S
C36 C40 1.432 . S
H37 C42 0.926 1_545 S
N38 Tb0 2.600 . S
N38 C40 1.359 1_455 S
N38 C41 1.327 1_565 S
C39 H25 0.931 . S
C39 C41 1.392 . S
C39 C42 1.362 1_545 S
C40 C36 1.432 . S
C40 N38 1.359 1_655 S
C40 C43 1.414 . S
C41 H23 0.930 . S
C41 N38 1.327 1_545 S
C41 C39 1.392 . S
C42 H37 0.926 1_565 S
C42 C39 1.362 1_565 S
C42 C43 1.397 1_455 S
C43 C40 1.414 . S
C43 C42 1.397 1_655 S
C43 C65 1.444 . S
O44 Tb0 2.546 1_545 S
O44 C64 1.251 1_545 S
O45 Tb0 2.610 1_546 S
O45 Tb11 2.362 1_455 S
O45 C56 1.283 . S
O46 Tb11 2.421 1_565 S
O46 C63 1.262 . S
O47 Tb0 2.320 1_656 S
O47 C63 1.260 . S
O48 Tb0 2.552 1_545 S
O48 C56 1.243 1_554 S
O49 Tb0 2.413 . S
O49 C64 1.256 . S
O50 Tb11 2.546 1_565 S
O50 C75 1.251 1_565 S
O51 Tb0 2.362 1_655 S
O51 Tb11 2.610 1_564 S
O51 C67 1.283 . S
O52 Tb0 2.421 1_545 S
O52 C74 1.262 . S
O53 Tb11 2.320 1_454 S
O53 C74 1.260 . S
O54 Tb11 2.552 1_565 S
O54 C67 1.243 1_556 S
O55 Tb11 2.413 . S
O55 C75 1.256 . S
C56 O45 1.283 . S
C56 O48 1.243 1_556 S
C57 C59 1.382 . S
C57 C61 1.393 . S
C57 C64 1.500 . S
C58 C59 1.400 . S
C58 C60 1.384 . S
C59 C57 1.382 . S
C59 C58 1.400 . S
C59 H76 0.930 . S
C60 C58 1.384 . S
C60 C62 1.392 . S
C60 H77 0.931 . S
C61 C57 1.393 . S
C61 C62 1.401 . S
C61 H78 0.930 . S
C62 C60 1.392 . S
C62 C61 1.401 . S
C62 H79 0.930 . S
C63 O46 1.262 . S
C63 O47 1.260 . S
C64 Tb0 2.833 . S
C64 O44 1.251 1_565 S
C64 O49 1.256 . S
C64 C57 1.500 . S
C65 H30 0.929 . S
C65 C43 1.444 . S
C65 C66 1.317 . S
C66 H28 0.930 . S
C66 C34 1.432 . S
C66 C65 1.317 . S
C67 O51 1.283 . S
C67 O54 1.243 1_554 S
C68 C69 1.382 . S
C68 C72 1.393 . S
C68 C75 1.500 . S
C69 C68 1.382 . S
C69 C70 1.400 . S
C69 H80 0.930 . S
C70 C69 1.400 . S
C70 C71 1.384 . S
C71 C70 1.384 . S
C71 C73 1.392 . S
C71 H81 0.931 . S
C72 C68 1.393 . S
C72 C73 1.401 . S
C72 H82 0.930 . S
C73 C71 1.392 . S
C73 C72 1.401 . S
C73 H83 0.930 . S
C74 O52 1.262 . S
C74 O53 1.260 . S
C75 Tb11 2.833 . S
C75 O50 1.251 1_545 S
C75 O55 1.256 . S
C75 C68 1.500 . S
H76 C59 0.930 . S
H77 C60 0.931 . S
H78 C61 0.930 . S
H79 C62 0.930 . S
H80 C69 0.930 . S
H81 C71 0.931 . S
H82 C72 0.930 . S
H83 C73 0.930 . S
Tb84 N115 2.660 1_655 S
Tb84 N122 2.600 1_655 S
Tb84 O128 2.546 . S
Tb84 O129 2.610 1_545 S
Tb84 O131 2.320 1_655 S
Tb84 O132 2.552 1_545 S
Tb84 O133 2.413 . S
Tb84 O135 2.362 1_655 S
Tb84 O136 2.421 1_545 S
Tb84 C148 2.833 . S
C85 C88 1.432 . S
C85 C89 1.414 . S
C85 N92 1.359 1_665 S
C86 C88 1.417 . S
C86 C90 1.432 . S
C86 C98 1.410 . S
C87 C89 1.444 . S
C87 C90 1.317 . S
C87 H110 0.929 . S
C88 C85 1.432 . S
C88 C86 1.417 . S
C88 N96 1.360 . S
C89 C85 1.414 . S
C89 C87 1.444 . S
C89 C94 1.385 1_665 S
C90 C86 1.432 . S
C90 C87 1.317 . S
C90 H102 0.930 . S
C91 C93 1.392 . S
C91 C94 1.370 . S
C91 H103 0.931 . S
N92 C85 1.359 1_445 S
N92 C93 1.327 . S
N92 Tb95 2.600 1_545 S
C93 C91 1.392 . S
C93 N92 1.327 . S
C93 H100 0.930 . S
C94 C89 1.385 1_445 S
C94 C91 1.370 . S
C94 H113 0.930 . S
Tb95 N92 2.600 1_565 S
Tb95 N96 2.660 1_455 S
Tb95 O129 2.362 1_455 S
Tb95 O130 2.421 1_565 S
Tb95 O134 2.546 1_565 S
Tb95 O135 2.610 1_565 S
Tb95 O137 2.320 1_455 S
Tb95 O138 2.552 1_565 S
Tb95 O139 2.413 . S
Tb95 C159 2.833 . S
N96 C88 1.360 . S
N96 Tb95 2.660 1_655 S
N96 C97 1.305 . S
C97 N96 1.305 . S
C97 C99 1.407 . S
C97 H104 0.930 . S
C98 C86 1.410 . S
C98 C99 1.345 . S
C98 H106 0.930 . S
C99 C97 1.407 . S
C99 C98 1.345 . S
C99 H101 0.930 . S
H100 C93 0.930 . S
H101 C99 0.930 . S
H102 C90 0.930 . S
H103 C91 0.931 . S
H104 C97 0.930 . S
H105 C119 0.930 . S
H106 C98 0.930 . S
H107 C125 0.930 . S
H108 C116 0.930 . S
H109 C123 0.931 . S
H110 C87 0.929 . S
H111 C117 0.930 . S
H112 C150 0.930 . S
H113 C94 0.930 . S
H114 C149 0.929 . S
N115 Tb84 2.660 1_455 S
N115 C116 1.305 . S
N115 C120 1.360 . S
C116 H108 0.930 . S
C116 N115 1.305 . S
C116 C119 1.407 . S
C117 H111 0.930 . S
C117 C118 1.410 . S
C117 C119 1.345 . S
C118 C117 1.410 . S
C118 C120 1.417 . S
C118 C150 1.432 . S
C119 H105 0.930 . S
C119 C116 1.407 . S
C119 C117 1.345 . S
C120 N115 1.360 . S
C120 C118 1.417 . S
C120 C124 1.432 . S
H121 C126 0.930 . S
N122 Tb84 2.600 1_455 S
N122 C124 1.359 . S
N122 C125 1.327 1_445 S
C123 H109 0.931 . S
C123 C125 1.392 . S
C123 C126 1.370 1_665 S
C124 C120 1.432 . S
C124 N122 1.359 . S
C124 C127 1.414 . S
C125 H107 0.930 . S
C125 N122 1.327 1_665 S
C125 C123 1.392 . S
C126 H121 0.930 . S
C126 C123 1.370 1_445 S
C126 C127 1.385 . S
C127 C124 1.414 . S
C127 C126 1.385 . S
C127 C149 1.444 . S
O128 Tb84 2.546 . S
O128 C148 1.251 . S
O129 Tb84 2.610 1_565 S
O129 Tb95 2.362 1_655 S
O129 C140 1.283 . S
O130 Tb95 2.421 1_545 S
O130 C147 1.262 . S
O131 Tb84 2.320 1_455 S
O131 C147 1.260 . S
O132 Tb84 2.552 1_565 S
O132 C140 1.243 . S
O133 Tb84 2.413 . S
O133 C148 1.256 . S
O134 Tb95 2.546 1_545 S
O134 C159 1.251 1_545 S
O135 Tb84 2.362 1_455 S
O135 Tb95 2.610 1_545 S
O135 C151 1.283 . S
O136 Tb84 2.421 1_565 S
O136 C158 1.262 . S
O137 Tb95 2.320 1_655 S
O137 C158 1.260 . S
O138 Tb95 2.552 1_545 S
O138 C151 1.243 . S
O139 Tb95 2.413 . S
O139 C159 1.256 . S
C140 O129 1.283 . S
C140 O132 1.243 . S
C141 C143 1.382 . S
C141 C145 1.393 . S
C141 C148 1.500 . S
C142 C143 1.400 . S
C142 C144 1.384 . S
C143 C141 1.382 . S
C143 C142 1.400 . S
C143 H160 0.930 . S
C144 C142 1.384 . S
C144 C146 1.392 . S
C144 H161 0.931 . S
C145 C141 1.393 . S
C145 C146 1.401 . S
C145 H162 0.930 . S
C146 C144 1.392 . S
C146 C145 1.401 . S
C146 H163 0.930 . S
C147 O130 1.262 . S
C147 O131 1.260 . S
C148 Tb84 2.833 . S
C148 O128 1.251 . S
C148 O133 1.256 . S
C148 C141 1.500 . S
C149 H114 0.929 . S
C149 C127 1.444 . S
C149 C150 1.317 . S
C150 H112 0.930 . S
C150 C118 1.432 . S
C150 C149 1.317 . S
C151 O135 1.283 . S
C151 O138 1.243 . S
C152 C153 1.382 . S
C152 C156 1.393 . S
C152 C159 1.500 . S
C153 C152 1.382 . S
C153 C154 1.400 . S
C153 H164 0.930 . S
C154 C153 1.400 . S
C154 C155 1.384 . S
C155 C154 1.384 . S
C155 C157 1.392 . S
C155 H165 0.931 . S
C156 C152 1.393 . S
C156 C157 1.401 . S
C156 H166 0.930 1_565 S
C157 C155 1.392 . S
C157 C156 1.401 . S
C157 H167 0.930 . S
C158 O136 1.262 . S
C158 O137 1.260 . S
C159 Tb95 2.833 . S
C159 O134 1.251 1_565 S
C159 O139 1.256 . S
C159 C152 1.500 . S
H160 C143 0.930 . S
H161 C144 0.931 . S
H162 C145 0.930 . S
H163 C146 0.930 . S
H164 C153 0.930 . S
H165 C155 0.931 . S
H166 C156 0.930 1_545 S
H167 C157 0.930 . S
Zn168 O174 1.920 . S
Zn168 O180 1.898 . S
Zn168 O183 1.905 . S
Zn169 O177 1.905 . S
Zn169 O178 1.898 . S
Zn169 O186 1.920 . S
Zn170 O173 2.080 . S
Zn170 O176 2.114 . S
Zn170 O179 2.120 . S
Zn170 O181 2.120 . S
Zn170 O182 2.114 . S
Zn170 O185 2.080 . S
C171 O176 1.166 . S
C171 O177 1.182 . S
C172 O178 1.167 . S
C172 O179 1.299 . S
O173 Zn170 2.080 . S
O173 C187 1.305 . S
O174 Zn168 1.920 . S
O174 C187 1.234 . S
C175 O180 1.167 . S
C175 O181 1.299 . S
O176 Zn170 2.114 . S
O176 C171 1.166 . S
O177 Zn169 1.905 . S
O177 C171 1.182 . S
O178 Zn169 1.898 . S
O178 C172 1.167 . S
O179 Zn170 2.120 . S
O179 C172 1.299 . S
O180 Zn168 1.898 . S
O180 C175 1.167 . S
O181 Zn170 2.120 . S
O181 C175 1.299 . S
O182 Zn170 2.114 . S
O182 C184 1.166 . S
O183 Zn168 1.905 . S
O183 C184 1.182 . S
C184 O182 1.166 . S
C184 O183 1.182 . S
O185 Zn170 2.080 . S
O185 C188 1.305 . S
O186 Zn169 1.920 . S
O186 C188 1.234 . S
C187 O173 1.305 . S
C187 O174 1.234 . S
C188 O185 1.305 . S
C188 O186 1.234 . S
Zn189 O195 1.920 . S
Zn189 O201 1.898 . S
Zn189 O204 1.905 . S
Zn190 O198 1.905 . S
Zn190 O199 1.898 . S
Zn190 O207 1.920 . S
Zn191 O194 2.080 . S
Zn191 O197 2.114 . S
Zn191 O200 2.120 . S
Zn191 O202 2.120 . S
Zn191 O203 2.114 . S
Zn191 O206 2.080 . S
C192 O197 1.166 . S
C192 O198 1.182 . S
C193 O199 1.167 . S
C193 O200 1.299 . S
O194 Zn191 2.080 . S
O194 C208 1.305 . S
O195 Zn189 1.920 . S
O195 C208 1.234 . S
C196 O201 1.167 . S
C196 O202 1.299 . S
O197 Zn191 2.114 . S
O197 C192 1.166 . S
O198 Zn190 1.905 . S
O198 C192 1.182 . S
O199 Zn190 1.898 . S
O199 C193 1.167 . S
O200 Zn191 2.120 . S
O200 C193 1.299 . S
O201 Zn189 1.898 . S
O201 C196 1.167 . S
O202 Zn191 2.120 . S
O202 C196 1.299 . S
O203 Zn191 2.114 . S
O203 C205 1.166 . S
O204 Zn189 1.905 . S
O204 C205 1.182 . S
C205 O203 1.166 . S
C205 O204 1.182 . S
O206 Zn191 2.080 . S
O206 C209 1.305 . S
O207 Zn190 1.920 . S
O207 C209 1.234 . S
C208 O194 1.305 . S
C208 O195 1.234 . S
C209 O206 1.305 . S
C209 O207 1.234 . S
H210 C228 0.951 . S
H211 C230 0.951 . S
H212 C232 0.950 . S
H213 C233 0.950 . S
H214 C235 0.950 . S
H215 C238 0.950 . S
H216 C239 0.950 . S
H217 C241 0.950 . S
H218 C242 0.950 . S
H219 C243 0.951 . S
H220 C245 0.951 . S
H221 C247 0.950 . S
H222 C248 0.950 . S
H223 C250 0.950 . S
H224 C253 0.950 . S
H225 C254 0.950 . S
H226 C256 0.950 . S
H227 C257 0.950 . S
C228 H210 0.951 . S
C228 C229 1.366 . S
C228 C230 1.388 . S
C229 C228 1.366 . S
C229 C233 1.385 . S
C230 H211 0.951 . S
C230 C228 1.388 . S
C230 C231 1.366 . S
C231 C230 1.366 . S
C231 C232 1.414 . S
C231 C234 1.499 . S
C232 H212 0.950 . S
C232 C231 1.414 . S
C232 C233 1.374 . S
C233 H213 0.950 . S
C233 C229 1.385 . S
C233 C232 1.374 . S
C234 C231 1.499 . S
C234 C235 1.373 . S
C234 C236 1.389 . S
C235 H214 0.950 . S
C235 C234 1.373 . S
C235 C251 1.377 . S
C236 C234 1.389 . S
C236 C237 1.524 . S
C236 C250 1.377 . S
C237 C236 1.524 . S
C237 C238 1.397 . S
C237 C242 1.363 . S
C238 H215 0.950 . S
C238 C237 1.397 . S
C238 C239 1.334 . S
C239 H216 0.950 . S
C239 C238 1.334 . S
C239 C240 1.287 . S
C240 C239 1.287 . S
C240 C241 1.524 . S
C240 H259 0.913 . S
C241 H217 0.950 . S
C241 C240 1.524 . S
C241 C242 1.415 . S
C242 H218 0.950 . S
C242 C237 1.363 . S
C242 C241 1.415 . S
C243 H219 0.951 . S
C243 C244 1.366 . S
C243 C245 1.388 . S
C244 C243 1.366 . S
C244 C248 1.385 . S
C245 H220 0.951 . S
C245 C243 1.388 . S
C245 C246 1.366 . S
C246 C245 1.366 . S
C246 C247 1.414 . S
C246 C249 1.499 . S
C247 H221 0.950 . S
C247 C246 1.414 . S
C247 C248 1.374 . S
C248 H222 0.950 . S
C248 C244 1.385 . S
C248 C247 1.374 . S
C249 C246 1.499 . S
C249 C250 1.373 . S
C249 C251 1.389 . S
C250 H223 0.950 . S
C250 C236 1.377 . S
C250 C249 1.373 . S
C251 C235 1.377 . S
C251 C249 1.389 . S
C251 C252 1.524 . S
C252 C251 1.524 . S
C252 C253 1.397 . S
C252 C257 1.363 . S
C253 H224 0.950 . S
C253 C252 1.397 . S
C253 C254 1.334 . S
C254 H225 0.950 . S
C254 C253 1.334 . S
C254 C255 1.287 . S
C255 C254 1.287 . S
C255 C256 1.524 . S
C255 H258 0.999 . S
C256 H226 0.950 . S
C256 C255 1.524 . S
C256 C257 1.415 . S
C257 H227 0.950 . S
C257 C252 1.363 . S
C257 C256 1.415 . S
H258 C255 0.999 . S
H259 C240 0.913 . S
H260 C278 0.951 . S
H261 C280 0.951 . S
H262 C282 0.950 . S
H263 C283 0.950 1_565 S
H264 C285 0.950 . S
H265 C288 0.950 . S
H266 C289 0.950 . S
H267 C291 0.950 . S
H268 C292 0.950 . S
H269 C293 0.951 . S
H270 C295 0.951 . S
H271 C297 0.950 . S
H272 C298 0.950 . S
H273 C300 0.950 . S
H274 C303 0.950 . S
H275 C304 0.950 . S
H276 C306 0.950 . S
H277 C307 0.954 . S
C278 H260 0.951 . S
C278 C279 1.366 . S
C278 C280 1.388 . S
C279 C278 1.366 . S
C279 C283 1.385 . S
C280 H261 0.951 . S
C280 C278 1.388 . S
C280 C281 1.366 . S
C281 C280 1.366 . S
C281 C282 1.414 . S
C281 C284 1.499 . S
C282 H262 0.950 . S
C282 C281 1.414 . S
C282 C283 1.374 . S
C283 H263 0.950 1_545 S
C283 C279 1.385 . S
C283 C282 1.374 . S
C284 C281 1.499 . S
C284 C285 1.373 . S
C284 C286 1.389 . S
C285 H264 0.950 . S
C285 C284 1.373 . S
C285 C301 1.377 . S
C286 C284 1.389 . S
C286 C287 1.524 . S
C286 C300 1.377 . S
C287 C286 1.524 . S
C287 C288 1.397 . S
C287 C292 1.363 . S
C288 H265 0.950 . S
C288 C287 1.397 . S
C288 C289 1.334 . S
C289 H266 0.950 . S
C289 C288 1.334 . S
C289 C290 1.287 . S
C290 C289 1.287 . S
C290 C291 1.524 . S
C290 H309 0.913 . S
C291 H267 0.950 . S
C291 C290 1.524 . S
C291 C292 1.415 . S
C292 H268 0.950 . S
C292 C287 1.363 . S
C292 C291 1.415 . S
C293 H269 0.951 . S
C293 C294 1.366 . S
C293 C295 1.388 . S
C294 C293 1.366 . S
C294 C298 1.385 . S
C295 H270 0.951 . S
C295 C293 1.388 . S
C295 C296 1.366 . S
C296 C295 1.366 . S
C296 C297 1.414 . S
C296 C299 1.499 . S
C297 H271 0.950 . S
C297 C296 1.414 . S
C297 C298 1.374 . S
C298 H272 0.950 . S
C298 C294 1.385 . S
C298 C297 1.374 . S
C299 C296 1.499 . S
C299 C300 1.373 . S
C299 C301 1.389 . S
C300 H273 0.950 . S
C300 C286 1.377 . S
C300 C299 1.373 . S
C301 C285 1.377 . S
C301 C299 1.389 . S
C301 C302 1.524 . S
C302 C301 1.524 . S
C302 C303 1.397 . S
C302 C307 1.363 . S
C303 H274 0.950 . S
C303 C302 1.397 . S
C303 C304 1.334 . S
C304 H275 0.950 . S
C304 C303 1.334 . S
C304 C305 1.287 . S
C305 C304 1.287 . S
C305 C306 1.524 1_545 S
C305 H308 0.999 1_545 S
C306 H276 0.950 . S
C306 C305 1.524 1_565 S
C306 C307 1.415 1_565 S
C307 H277 0.954 . S
C307 C302 1.363 . S
C307 C306 1.415 1_545 S
H308 C305 0.999 1_565 S
H309 C290 0.913 . S
H310 C328 0.951 . S
H311 C330 0.951 . S
H312 C332 0.950 . S
H313 C333 0.950 . S
H314 C335 0.950 . S
H315 C338 0.950 . S
H316 C339 0.950 . S
H317 C341 0.950 1_556 S
H318 C342 0.950 . S
H319 C343 0.951 . S
H320 C345 0.951 . S
H321 C347 0.950 . S
H322 C348 0.950 . S
H323 C350 0.950 . S
H324 C353 0.950 . S
H325 C354 0.950 . S
H326 C356 0.950 . S
H327 C357 0.950 . S
C328 H310 0.951 . S
C328 C329 1.366 . S
C328 C330 1.388 . S
C329 C328 1.366 . S
C329 C333 1.385 . S
C330 H311 0.951 . S
C330 C328 1.388 . S
C330 C331 1.366 . S
C331 C330 1.366 . S
C331 C332 1.414 . S
C331 C334 1.499 . S
C332 H312 0.950 . S
C332 C331 1.414 . S
C332 C333 1.374 . S
C333 H313 0.950 . S
C333 C329 1.385 . S
C333 C332 1.374 . S
C334 C331 1.499 . S
C334 C335 1.373 . S
C334 C336 1.389 . S
C335 H314 0.950 . S
C335 C334 1.373 . S
C335 C351 1.377 . S
C336 C334 1.389 . S
C336 C337 1.524 . S
C336 C350 1.377 . S
C337 C336 1.524 . S
C337 C338 1.397 . S
C337 C342 1.363 . S
C338 H315 0.950 . S
C338 C337 1.397 . S
C338 C339 1.334 . S
C339 H316 0.950 . S
C339 C338 1.334 . S
C339 C340 1.287 . S
C340 C339 1.287 . S
C340 C341 1.524 . S
C340 H359 0.913 1_554 S
C341 H317 0.950 1_554 S
C341 C340 1.524 . S
C341 C342 1.415 . S
C342 H318 0.950 . S
C342 C337 1.363 . S
C342 C341 1.415 . S
C343 H319 0.951 . S
C343 C344 1.366 . S
C343 C345 1.388 . S
C344 C343 1.366 . S
C344 C348 1.385 . S
C345 H320 0.951 . S
C345 C343 1.388 . S
C345 C346 1.366 . S
C346 C345 1.366 . S
C346 C347 1.414 . S
C346 C349 1.499 . S
C347 H321 0.950 . S
C347 C346 1.414 . S
C347 C348 1.374 . S
C348 H322 0.950 . S
C348 C344 1.385 . S
C348 C347 1.374 . S
C349 C346 1.499 . S
C349 C350 1.373 . S
C349 C351 1.389 . S
C350 H323 0.950 . S
C350 C336 1.377 . S
C350 C349 1.373 . S
C351 C335 1.377 . S
C351 C349 1.389 . S
C351 C352 1.524 . S
C352 C351 1.524 . S
C352 C353 1.397 . S
C352 C357 1.363 . S
C353 H324 0.950 . S
C353 C352 1.397 . S
C353 C354 1.334 . S
C354 H325 0.950 . S
C354 C353 1.334 . S
C354 C355 1.287 . S
C355 C354 1.287 . S
C355 C356 1.524 . S
C355 H358 0.999 . S
C356 H326 0.950 . S
C356 C355 1.524 . S
C356 C357 1.415 . S
C357 H327 0.950 . S
C357 C352 1.363 . S
C357 C356 1.415 . S
H358 C355 0.999 . S
H359 C340 0.913 1_556 S
H360 C378 0.951 . S
H361 C380 0.951 . S
H362 C382 0.950 . S
H363 C383 0.950 . S
H364 C385 0.950 . S
H365 C388 0.950 . S
H366 C389 0.950 . S
H367 C391 0.950 . S
H368 C392 0.950 . S
H369 C393 0.951 . S
H370 C395 0.951 . S
H371 C397 0.950 . S
H372 C398 0.950 . S
H373 C400 0.950 . S
H374 C403 0.950 . S
H375 C404 0.950 . S
H376 C406 0.950 . S
H377 C407 0.950 . S
C378 H360 0.951 . S
C378 C379 1.366 . S
C378 C380 1.388 . S
C379 C378 1.366 . S
C379 C383 1.385 . S
C380 H361 0.951 . S
C380 C378 1.388 . S
C380 C381 1.366 . S
C381 C380 1.366 . S
C381 C382 1.414 . S
C381 C384 1.499 . S
C382 H362 0.950 . S
C382 C381 1.414 . S
C382 C383 1.374 . S
C383 H363 0.950 . S
C383 C379 1.385 . S
C383 C382 1.374 . S
C384 C381 1.499 . S
C384 C385 1.373 . S
C384 C386 1.389 . S
C385 H364 0.950 . S
C385 C384 1.373 . S
C385 C401 1.377 . S
C386 C384 1.389 . S
C386 C387 1.524 . S
C386 C400 1.377 . S
C387 C386 1.524 . S
C387 C388 1.397 . S
C387 C392 1.363 . S
C388 H365 0.950 . S
C388 C387 1.397 . S
C388 C389 1.334 . S
C389 H366 0.950 . S
C389 C388 1.334 . S
C389 C390 1.287 . S
C390 C389 1.287 . S
C390 C391 1.524 . S
C390 H409 0.913 . S
C391 H367 0.950 . S
C391 C390 1.524 . S
C391 C392 1.415 . S
C392 H368 0.950 . S
C392 C387 1.363 . S
C392 C391 1.415 . S
C393 H369 0.951 . S
C393 C394 1.366 . S
C393 C395 1.388 . S
C394 C393 1.366 . S
C394 C398 1.385 . S
C395 H370 0.951 . S
C395 C393 1.388 . S
C395 C396 1.366 . S
C396 C395 1.366 . S
C396 C397 1.414 . S
C396 C399 1.499 . S
C397 H371 0.950 . S
C397 C396 1.414 . S
C397 C398 1.374 . S
C398 H372 0.950 . S
C398 C394 1.385 . S
C398 C397 1.374 . S
C399 C396 1.499 . S
C399 C400 1.373 . S
C399 C401 1.389 . S
C400 H373 0.950 . S
C400 C386 1.377 . S
C400 C399 1.373 . S
C401 C385 1.377 . S
C401 C399 1.389 . S
C401 C402 1.524 . S
C402 C401 1.524 . S
C402 C403 1.397 . S
C402 C407 1.363 . S
C403 H374 0.950 . S
C403 C402 1.397 . S
C403 C404 1.334 . S
C404 H375 0.950 . S
C404 C403 1.334 . S
C404 C405 1.287 . S
C405 C404 1.287 . S
C405 C406 1.524 . S
C405 H408 0.999 . S
C406 H376 0.950 . S
C406 C405 1.524 . S
C406 C407 1.415 . S
C407 H377 0.950 . S
C407 C402 1.363 . S
C407 C406 1.415 . S
H408 C405 0.999 . S
H409 C390 0.913 . S
H410 C428 0.951 . S
H411 C430 0.951 . S
H412 C432 0.950 . S
H413 C433 0.950 . S
H414 C435 0.950 . S
H415 C438 0.950 . S
H416 C439 0.950 . S
H417 C441 0.950 . S
H418 C442 0.950 1_565 S
H419 C443 0.951 . S
H420 C445 0.951 . S
H421 C447 0.950 . S
H422 C448 0.950 . S
H423 C450 0.950 . S
H424 C453 0.950 . S
H425 C454 0.950 . S
H426 C456 0.950 . S
H427 C457 0.950 . S
C428 H410 0.951 . S
C428 C429 1.366 . S
C428 C430 1.388 . S
C429 C428 1.366 . S
C429 C433 1.385 . S
C430 H411 0.951 . S
C430 C428 1.388 . S
C430 C431 1.366 . S
C431 C430 1.366 . S
C431 C432 1.414 . S
C431 C434 1.499 . S
C432 H412 0.950 . S
C432 C431 1.414 . S
C432 C433 1.374 . S
C433 H413 0.950 . S
C433 C429 1.385 . S
C433 C432 1.374 . S
C434 C431 1.499 . S
C434 C435 1.373 . S
C434 C436 1.389 . S
C435 H414 0.950 . S
C435 C434 1.373 . S
C435 C451 1.377 . S
C436 C434 1.389 . S
C436 C437 1.524 . S
C436 C450 1.377 . S
C437 C436 1.524 . S
C437 C438 1.397 1_565 S
C437 C442 1.363 1_565 S
C438 H415 0.950 . S
C438 C437 1.397 1_545 S
C438 C439 1.334 . S
C439 H416 0.950 . S
C439 C438 1.334 . S
C439 C440 1.287 . S
C440 C439 1.287 . S
C440 C441 1.524 . S
C440 H459 0.913 . S
C441 H417 0.950 . S
C441 C440 1.524 . S
C441 C442 1.415 . S
C442 H418 0.950 1_545 S
C442 C437 1.363 1_545 S
C442 C441 1.415 . S
C443 H419 0.951 . S
C443 C444 1.366 . S
C443 C445 1.388 . S
C444 C443 1.366 . S
C444 C448 1.385 . S
C445 H420 0.951 . S
C445 C443 1.388 . S
C445 C446 1.366 . S
C446 C445 1.366 . S
C446 C447 1.414 . S
C446 C449 1.499 . S
C447 H421 0.950 . S
C447 C446 1.414 . S
C447 C448 1.374 . S
C448 H422 0.950 . S
C448 C444 1.385 . S
C448 C447 1.374 . S
C449 C446 1.499 . S
C449 C450 1.373 . S
C449 C451 1.389 . S
C450 H423 0.950 . S
C450 C436 1.377 . S
C450 C449 1.373 . S
C451 C435 1.377 . S
C451 C449 1.389 . S
C451 C452 1.524 . S
C452 C451 1.524 . S
C452 C453 1.397 . S
C452 C457 1.363 . S
C453 H424 0.950 . S
C453 C452 1.397 . S
C453 C454 1.334 . S
C454 H425 0.950 . S
C454 C453 1.334 . S
C454 C455 1.287 . S
C455 C454 1.287 . S
C455 C456 1.524 . S
C455 H458 0.999 . S
C456 H426 0.950 . S
C456 C455 1.524 . S
C456 C457 1.415 . S
C457 H427 0.950 . S
C457 C452 1.363 . S
C457 C456 1.415 . S
H458 C455 0.999 . S
H459 C440 0.913 . S
H460 C478 0.951 . S
H461 C480 0.951 . S
H462 C482 0.950 . S
H463 C483 0.950 . S
H464 C485 0.950 . S
H465 C488 0.950 . S
H466 C489 0.950 . S
H467 C491 0.950 . S
H468 C492 0.950 . S
H469 C493 0.951 . S
H470 C495 0.951 . S
H471 C497 0.950 . S
H472 C498 0.950 . S
H473 C500 0.950 . S
H474 C503 0.950 . S
H475 C504 0.950 . S
H476 C506 0.950 . S
H477 C507 0.950 . S
C478 H460 0.951 . S
C478 C479 1.366 . S
C478 C480 1.388 . S
C479 C478 1.366 . S
C479 C483 1.385 . S
C480 H461 0.951 . S
C480 C478 1.388 . S
C480 C481 1.366 . S
C481 C480 1.366 . S
C481 C482 1.414 . S
C481 C484 1.499 . S
C482 H462 0.950 . S
C482 C481 1.414 . S
C482 C483 1.374 . S
C483 H463 0.950 . S
C483 C479 1.385 . S
C483 C482 1.374 . S
C484 C481 1.499 . S
C484 C485 1.373 . S
C484 C486 1.389 . S
C485 H464 0.950 . S
C485 C484 1.373 . S
C485 C501 1.377 . S
C486 C484 1.389 . S
C486 C487 1.524 . S
C486 C500 1.377 . S
C487 C486 1.524 . S
C487 C488 1.397 . S
C487 C492 1.363 . S
C488 H465 0.950 . S
C488 C487 1.397 . S
C488 C489 1.334 . S
C489 H466 0.950 . S
C489 C488 1.334 . S
C489 C490 1.287 . S
C490 C489 1.287 . S
C490 C491 1.524 . S
C490 H509 0.913 . S
C491 H467 0.950 . S
C491 C490 1.524 . S
C491 C492 1.415 . S
C492 H468 0.950 . S
C492 C487 1.363 . S
C492 C491 1.415 . S
C493 H469 0.951 . S
C493 C494 1.366 . S
C493 C495 1.388 . S
C494 C493 1.366 . S
C494 C498 1.385 . S
C495 H470 0.951 . S
C495 C493 1.388 . S
C495 C496 1.366 . S
C496 C495 1.366 . S
C496 C497 1.414 . S
C496 C499 1.499 . S
C497 H471 0.950 . S
C497 C496 1.414 . S
C497 C498 1.374 . S
C498 H472 0.950 . S
C498 C494 1.385 . S
C498 C497 1.374 . S
C499 C496 1.499 . S
C499 C500 1.373 . S
C499 C501 1.389 . S
C500 H473 0.950 . S
C500 C486 1.377 . S
C500 C499 1.373 . S
C501 C485 1.377 . S
C501 C499 1.389 . S
C501 C502 1.524 . S
C502 C501 1.524 . S
C502 C503 1.397 . S
C502 C507 1.363 . S
C503 H474 0.950 . S
C503 C502 1.397 . S
C503 C504 1.334 . S
C504 H475 0.950 . S
C504 C503 1.334 . S
C504 C505 1.287 . S
C505 C504 1.287 . S
C505 C506 1.524 . S
C505 H508 0.999 . S
C506 H476 0.950 . S
C506 C505 1.524 . S
C506 C507 1.415 . S
C507 H477 0.950 . S
C507 C502 1.363 . S
C507 C506 1.415 . S
H508 C505 0.999 . S
H509 C490 0.913 . S
H510 C528 0.951 . S
H511 C530 0.951 . S
H512 C532 0.950 . S
H513 C533 0.950 . S
H514 C535 0.950 . S
H515 C538 0.950 . S
H516 C539 0.950 . S
H517 C541 0.950 . S
H518 C542 0.950 . S
H519 C543 0.951 . S
H520 C545 0.951 . S
H521 C547 0.950 . S
H522 C548 0.950 . S
H523 C550 0.950 . S
H524 C553 0.950 . S
H525 C554 0.950 . S
H526 C556 0.950 . S
H527 C557 0.950 . S
C528 H510 0.951 . S
C528 C529 1.366 . S
C528 C530 1.388 . S
C529 C528 1.366 . S
C529 C533 1.385 . S
C530 H511 0.951 . S
C530 C528 1.388 . S
C530 C531 1.366 . S
C531 C530 1.366 . S
C531 C532 1.414 . S
C531 C534 1.499 . S
C532 H512 0.950 . S
C532 C531 1.414 . S
C532 C533 1.374 . S
C533 H513 0.950 . S
C533 C529 1.385 . S
C533 C532 1.374 . S
C534 C531 1.499 . S
C534 C535 1.373 . S
C534 C536 1.389 . S
C535 H514 0.950 . S
C535 C534 1.373 . S
C535 C551 1.377 . S
C536 C534 1.389 . S
C536 C537 1.524 . S
C536 C550 1.377 . S
C537 C536 1.524 . S
C537 C538 1.397 . S
C537 C542 1.363 . S
C538 H515 0.950 . S
C538 C537 1.397 . S
C538 C539 1.334 1_565 S
C539 H516 0.950 . S
C539 C538 1.334 1_545 S
C539 C540 1.287 . S
C540 C539 1.287 . S
C540 C541 1.524 . S
C540 H559 0.913 . S
C541 H517 0.950 . S
C541 C540 1.524 . S
C541 C542 1.415 1_545 S
C542 H518 0.950 . S
C542 C537 1.363 . S
C542 C541 1.415 1_565 S
C543 H519 0.951 . S
C543 C544 1.366 . S
C543 C545 1.388 . S
C544 C543 1.366 . S
C544 C548 1.385 . S
C545 H520 0.951 . S
C545 C543 1.388 . S
C545 C546 1.366 . S
C546 C545 1.366 . S
C546 C547 1.414 . S
C546 C549 1.499 . S
C547 H521 0.950 . S
C547 C546 1.414 . S
C547 C548 1.374 . S
C548 H522 0.950 . S
C548 C544 1.385 . S
C548 C547 1.374 . S
C549 C546 1.499 . S
C549 C550 1.373 . S
C549 C551 1.389 . S
C550 H523 0.950 . S
C550 C536 1.377 . S
C550 C549 1.373 . S
C551 C535 1.377 . S
C551 C549 1.389 . S
C551 C552 1.524 . S
C552 C551 1.524 . S
C552 C553 1.397 . S
C552 C557 1.363 . S
C553 H524 0.950 . S
C553 C552 1.397 . S
C553 C554 1.334 . S
C554 H525 0.950 . S
C554 C553 1.334 . S
C554 C555 1.287 . S
C555 C554 1.287 . S
C555 C556 1.524 . S
C555 H558 0.999 . S
C556 H526 0.950 . S
C556 C555 1.524 . S
C556 C557 1.415 . S
C557 H527 0.950 . S
C557 C552 1.363 . S
C557 C556 1.415 . S
H558 C555 0.999 . S
H559 C540 0.913 . S
H560 C578 0.951 . S
H561 C580 0.951 . S
H562 C582 0.950 . S
H563 C583 0.950 . S
H564 C585 0.950 . S
H565 C588 0.950 . S
H566 C589 0.950 . S
H567 C591 0.950 . S
H568 C592 0.950 . S
H569 C593 0.951 . S
H570 C595 0.951 . S
H571 C597 0.950 . S
H572 C598 0.950 . S
H573 C600 0.950 . S
H574 C603 0.950 . S
H575 C604 0.950 . S
H576 C606 0.950 . S
H577 C607 0.950 . S
C578 H560 0.951 . S
C578 C579 1.366 . S
C578 C580 1.388 . S
C579 C578 1.366 . S
C579 C583 1.385 . S
C580 H561 0.951 . S
C580 C578 1.388 . S
C580 C581 1.366 . S
C581 C580 1.366 . S
C581 C582 1.414 . S
C581 C584 1.499 . S
C582 H562 0.950 . S
C582 C581 1.414 . S
C582 C583 1.374 . S
C583 H563 0.950 . S
C583 C579 1.385 . S
C583 C582 1.374 . S
C584 C581 1.499 . S
C584 C585 1.373 . S
C584 C586 1.389 . S
C585 H564 0.950 . S
C585 C584 1.373 . S
C585 C601 1.377 . S
C586 C584 1.389 . S
C586 C587 1.524 . S
C586 C600 1.377 . S
C587 C586 1.524 . S
C587 C588 1.397 . S
C587 C592 1.363 . S
C588 H565 0.950 . S
C588 C587 1.397 . S
C588 C589 1.334 . S
C589 H566 0.950 . S
C589 C588 1.334 . S
C589 C590 1.287 . S
C590 C589 1.287 . S
C590 C591 1.524 . S
C590 H609 0.913 . S
C591 H567 0.950 . S
C591 C590 1.524 . S
C591 C592 1.415 . S
C592 H568 0.950 . S
C592 C587 1.363 . S
C592 C591 1.415 . S
C593 H569 0.951 . S
C593 C594 1.366 . S
C593 C595 1.388 . S
C594 C593 1.366 . S
C594 C598 1.385 . S
C595 H570 0.951 . S
C595 C593 1.388 . S
C595 C596 1.366 . S
C596 C595 1.366 . S
C596 C597 1.414 . S
C596 C599 1.499 . S
C597 H571 0.950 . S
C597 C596 1.414 . S
C597 C598 1.374 . S
C598 H572 0.950 . S
C598 C594 1.385 . S
C598 C597 1.374 . S
C599 C596 1.499 . S
C599 C600 1.373 . S
C599 C601 1.389 . S
C600 H573 0.950 . S
C600 C586 1.377 . S
C600 C599 1.373 . S
C601 C585 1.377 . S
C601 C599 1.389 . S
C601 C602 1.524 . S
C602 C601 1.524 . S
C602 C603 1.397 . S
C602 C607 1.363 . S
C603 H574 0.950 . S
C603 C602 1.397 . S
C603 C604 1.334 . S
C604 H575 0.950 . S
C604 C603 1.334 . S
C604 C605 1.287 . S
C605 C604 1.287 . S
C605 C606 1.524 . S
C605 H608 0.999 . S
C606 H576 0.950 . S
C606 C605 1.524 . S
C606 C607 1.415 . S
C607 H577 0.950 . S
C607 C602 1.363 . S
C607 C606 1.415 . S
H608 C605 0.999 . S
H609 C590 0.913 . S
H610 C628 0.951 . S
H611 C630 0.951 . S
H612 C632 0.950 . S
H613 C633 0.950 . S
H614 C635 0.950 . S
H615 C638 0.950 . S
H616 C639 0.950 . S
H617 C641 0.950 . S
H618 C642 0.950 . S
H619 C643 0.951 . S
H620 C645 0.951 . S
H621 C647 0.950 . S
H622 C648 0.950 . S
H623 C650 0.950 . S
H624 C653 0.950 . S
H625 C654 0.950 . S
H626 C656 0.950 . S
H627 C657 0.950 . S
C628 H610 0.951 . S
C628 C629 1.366 . S
C628 C630 1.388 . S
C629 C628 1.366 . S
C629 C633 1.385 . S
C630 H611 0.951 . S
C630 C628 1.388 . S
C630 C631 1.366 . S
C631 C630 1.366 . S
C631 C632 1.414 . S
C631 C634 1.499 . S
C632 H612 0.950 . S
C632 C631 1.414 . S
C632 C633 1.374 . S
C633 H613 0.950 . S
C633 C629 1.385 . S
C633 C632 1.374 . S
C634 C631 1.499 . S
C634 C635 1.373 . S
C634 C636 1.389 . S
C635 H614 0.950 . S
C635 C634 1.373 . S
C635 C651 1.377 . S
C636 C634 1.389 . S
C636 C637 1.524 . S
C636 C650 1.377 . S
C637 C636 1.524 . S
C637 C638 1.397 . S
C637 C642 1.363 . S
C638 H615 0.950 . S
C638 C637 1.397 . S
C638 C639 1.334 . S
C639 H616 0.950 . S
C639 C638 1.334 . S
C639 C640 1.287 . S
C640 C639 1.287 . S
C640 C641 1.524 . S
C640 H659 0.913 . S
C641 H617 0.950 . S
C641 C640 1.524 . S
C641 C642 1.415 . S
C642 H618 0.950 . S
C642 C637 1.363 . S
C642 C641 1.415 . S
C643 H619 0.951 . S
C643 C644 1.366 . S
C643 C645 1.388 . S
C644 C643 1.366 . S
C644 C648 1.385 . S
C645 H620 0.951 . S
C645 C643 1.388 . S
C645 C646 1.366 . S
C646 C645 1.366 . S
C646 C647 1.414 . S
C646 C649 1.499 . S
C647 H621 0.950 . S
C647 C646 1.414 . S
C647 C648 1.374 . S
C648 H622 0.950 . S
C648 C644 1.385 . S
C648 C647 1.374 . S
C649 C646 1.499 . S
C649 C650 1.373 . S
C649 C651 1.389 . S
C650 H623 0.950 . S
C650 C636 1.377 . S
C650 C649 1.373 . S
C651 C635 1.377 . S
C651 C649 1.389 . S
C651 C652 1.524 . S
C652 C651 1.524 . S
C652 C653 1.397 . S
C652 C657 1.363 . S
C653 H624 0.950 . S
C653 C652 1.397 . S
C653 C654 1.334 . S
C654 H625 0.950 . S
C654 C653 1.334 . S
C654 C655 1.287 . S
C655 C654 1.287 . S
C655 C656 1.524 . S
C655 H658 0.999 . S
C656 H626 0.950 . S
C656 C655 1.524 . S
C656 C657 1.415 . S
C657 H627 0.950 . S
C657 C652 1.363 . S
C657 C656 1.415 . S
H658 C655 0.999 . S
H659 C640 0.913 . S
H660 C678 0.951 . S
H661 C680 0.951 . S
H662 C682 0.950 . S
H663 C683 0.950 . S
H664 C685 0.950 . S
H665 C688 0.950 . S
H666 C689 0.950 . S
H667 C691 0.950 . S
H668 C692 0.950 . S
H669 C693 0.951 . S
H670 C695 0.951 . S
H671 C697 0.950 . S
H672 C698 0.950 . S
H673 C700 0.950 . S
H674 C703 0.950 . S
H675 C704 0.950 . S
H676 C706 0.950 . S
H677 C707 0.950 . S
C678 H660 0.951 . S
C678 C679 1.366 . S
C678 C680 1.388 . S
C679 C678 1.366 . S
C679 C683 1.385 . S
C680 H661 0.951 . S
C680 C678 1.388 . S
C680 C681 1.366 . S
C681 C680 1.366 . S
C681 C682 1.414 . S
C681 C684 1.499 . S
C682 H662 0.950 . S
C682 C681 1.414 . S
C682 C683 1.374 . S
C683 H663 0.950 . S
C683 C679 1.385 . S
C683 C682 1.374 . S
C684 C681 1.499 . S
C684 C685 1.373 . S
C684 C686 1.389 . S
C685 H664 0.950 . S
C685 C684 1.373 . S
C685 C701 1.377 . S
C686 C684 1.389 . S
C686 C687 1.524 . S
C686 C700 1.377 . S
C687 C686 1.524 . S
C687 C688 1.397 . S
C687 C692 1.363 . S
C688 H665 0.950 . S
C688 C687 1.397 . S
C688 C689 1.334 1_545 S
C689 H666 0.950 . S
C689 C688 1.334 1_565 S
C689 C690 1.287 . S
C690 C689 1.287 . S
C690 C691 1.524 . S
C690 H709 0.913 . S
C691 H667 0.950 . S
C691 C690 1.524 . S
C691 C692 1.415 1_565 S
C692 H668 0.950 . S
C692 C687 1.363 . S
C692 C691 1.415 1_545 S
C693 H669 0.951 . S
C693 C694 1.366 . S
C693 C695 1.388 . S
C694 C693 1.366 . S
C694 C698 1.385 . S
C695 H670 0.951 . S
C695 C693 1.388 . S
C695 C696 1.366 . S
C696 C695 1.366 . S
C696 C697 1.414 . S
C696 C699 1.499 . S
C697 H671 0.950 . S
C697 C696 1.414 . S
C697 C698 1.374 . S
C698 H672 0.950 . S
C698 C694 1.385 . S
C698 C697 1.374 . S
C699 C696 1.499 . S
C699 C700 1.373 . S
C699 C701 1.389 . S
C700 H673 0.950 . S
C700 C686 1.377 . S
C700 C699 1.373 . S
C701 C685 1.377 . S
C701 C699 1.389 . S
C701 C702 1.524 . S
C702 C701 1.524 . S
C702 C703 1.397 . S
C702 C707 1.363 . S
C703 H674 0.950 . S
C703 C702 1.397 . S
C703 C704 1.334 . S
C704 H675 0.950 . S
C704 C703 1.334 . S
C704 C705 1.287 . S
C705 C704 1.287 . S
C705 C706 1.524 . S
C705 H708 0.999 . S
C706 H676 0.950 . S
C706 C705 1.524 . S
C706 C707 1.415 . S
C707 H677 0.950 . S
C707 C702 1.363 . S
C707 C706 1.415 . S
H708 C705 0.999 . S
H709 C690 0.913 . S
H710 C728 0.951 . S
H711 C730 0.951 . S
H712 C732 0.950 . S
H713 C733 0.950 . S
H714 C735 0.950 . S
H715 C738 0.950 . S
H716 C739 0.950 . S
H717 C741 0.950 . S
H718 C742 0.950 . S
H719 C743 0.951 . S
H720 C745 0.951 . S
H721 C747 0.950 . S
H722 C748 0.950 . S
H723 C750 0.950 . S
H724 C753 0.950 . S
H725 C754 0.950 . S
H726 C756 0.950 . S
H727 C757 0.950 . S
C728 H710 0.951 . S
C728 C729 1.366 . S
C728 C730 1.388 . S
C729 C728 1.366 . S
C729 C733 1.385 . S
C730 H711 0.951 . S
C730 C728 1.388 . S
C730 C731 1.366 . S
C731 C730 1.366 . S
C731 C732 1.414 . S
C731 C734 1.499 . S
C732 H712 0.950 . S
C732 C731 1.414 . S
C732 C733 1.374 . S
C733 H713 0.950 . S
C733 C729 1.385 . S
C733 C732 1.374 . S
C734 C731 1.499 . S
C734 C735 1.373 . S
C734 C736 1.389 . S
C735 H714 0.950 . S
C735 C734 1.373 . S
C735 C751 1.377 . S
C736 C734 1.389 . S
C736 C737 1.524 . S
C736 C750 1.377 . S
C737 C736 1.524 . S
C737 C738 1.397 . S
C737 C742 1.363 . S
C738 H715 0.950 . S
C738 C737 1.397 . S
C738 C739 1.334 . S
C739 H716 0.950 . S
C739 C738 1.334 . S
C739 C740 1.287 . S
C740 C739 1.287 . S
C740 C741 1.524 . S
C740 H759 0.913 . S
C741 H717 0.950 . S
C741 C740 1.524 . S
C741 C742 1.415 . S
C742 H718 0.950 . S
C742 C737 1.363 . S
C742 C741 1.415 . S
C743 H719 0.951 . S
C743 C744 1.366 . S
C743 C745 1.388 . S
C744 C743 1.366 . S
C744 C748 1.385 . S
C745 H720 0.951 . S
C745 C743 1.388 . S
C745 C746 1.366 . S
C746 C745 1.366 . S
C746 C747 1.414 . S
C746 C749 1.499 . S
C747 H721 0.950 . S
C747 C746 1.414 . S
C747 C748 1.374 . S
C748 H722 0.950 . S
C748 C744 1.385 . S
C748 C747 1.374 . S
C749 C746 1.499 . S
C749 C750 1.373 . S
C749 C751 1.389 . S
C750 H723 0.950 . S
C750 C736 1.377 . S
C750 C749 1.373 . S
C751 C735 1.377 . S
C751 C749 1.389 . S
C751 C752 1.524 . S
C752 C751 1.524 . S
C752 C753 1.397 . S
C752 C757 1.363 . S
C753 H724 0.950 . S
C753 C752 1.397 . S
C753 C754 1.334 . S
C754 H725 0.950 . S
C754 C753 1.334 . S
C754 C755 1.287 . S
C755 C754 1.287 . S
C755 C756 1.524 . S
C755 H758 0.999 . S
C756 H726 0.950 . S
C756 C755 1.524 . S
C756 C757 1.415 . S
C757 H727 0.950 . S
C757 C752 1.363 . S
C757 C756 1.415 . S
H758 C755 0.999 . S
H759 C740 0.913 . S
H760 C778 0.951 1_455 S
H761 C780 0.951 . S
H762 C782 0.950 . S
H763 C783 0.950 . S
H764 C785 0.950 . S
H765 C788 0.950 . S
H766 C789 0.950 . S
H767 C791 0.950 . S
H768 C792 0.946 1_455 S
H769 C793 0.951 . S
H770 C795 0.951 . S
H771 C797 0.950 . S
H772 C798 0.950 . S
H773 C800 0.950 . S
H774 C803 0.950 . S
H775 C804 0.950 . S
H776 C806 0.950 . S
H777 C807 0.950 . S
C778 H760 0.951 1_655 S
C778 C779 1.366 . S
C778 C780 1.388 . S
C779 C778 1.366 . S
C779 C783 1.385 . S
C780 H761 0.951 . S
C780 C778 1.388 . S
C780 C781 1.366 . S
C781 C780 1.366 . S
C781 C782 1.414 . S
C781 C784 1.499 . S
C782 H762 0.950 . S
C782 C781 1.414 . S
C782 C783 1.374 . S
C783 H763 0.950 . S
C783 C779 1.385 . S
C783 C782 1.374 . S
C784 C781 1.499 . S
C784 C785 1.373 . S
C784 C786 1.389 . S
C785 H764 0.950 . S
C785 C784 1.373 . S
C785 C801 1.377 . S
C786 C784 1.389 . S
C786 C787 1.524 . S
C786 C800 1.377 . S
C787 C786 1.524 . S
C787 C788 1.397 . S
C787 C792 1.363 . S
C788 H765 0.950 . S
C788 C787 1.397 . S
C788 C789 1.334 . S
C789 H766 0.950 . S
C789 C788 1.334 . S
C789 C790 1.287 1_655 S
C790 C789 1.287 1_455 S
C790 C791 1.524 . S
C790 H809 0.913 . S
C791 H767 0.950 . S
C791 C790 1.524 . S
C791 C792 1.415 1_455 S
C792 H768 0.946 1_655 S
C792 C787 1.363 . S
C792 C791 1.415 1_655 S
C793 H769 0.951 . S
C793 C794 1.366 . S
C793 C795 1.388 . S
C794 C793 1.366 . S
C794 C798 1.385 . S
C795 H770 0.951 . S
C795 C793 1.388 . S
C795 C796 1.366 . S
C796 C795 1.366 . S
C796 C797 1.414 . S
C796 C799 1.499 . S
C797 H771 0.950 . S
C797 C796 1.414 . S
C797 C798 1.374 . S
C798 H772 0.950 . S
C798 C794 1.385 . S
C798 C797 1.374 . S
C799 C796 1.499 . S
C799 C800 1.373 . S
C799 C801 1.389 . S
C800 H773 0.950 . S
C800 C786 1.377 . S
C800 C799 1.373 . S
C801 C785 1.377 . S
C801 C799 1.389 . S
C801 C802 1.524 . S
C802 C801 1.524 . S
C802 C803 1.397 . S
C802 C807 1.363 . S
C803 H774 0.950 . S
C803 C802 1.397 . S
C803 C804 1.334 . S
C804 H775 0.950 . S
C804 C803 1.334 . S
C804 C805 1.287 . S
C805 C804 1.287 . S
C805 C806 1.524 . S
C805 H808 0.999 . S
C806 H776 0.950 . S
C806 C805 1.524 . S
C806 C807 1.415 . S
C807 H777 0.950 . S
C807 C802 1.363 . S
C807 C806 1.415 . S
H808 C805 0.999 . S
H809 C790 0.913 . S
C229 C58 1.135 . S
C244 C187 1.244 . S
C279 C151 1.549 . S
C294 C193 1.429 . S
C329 C74 1.531 . S
C344 C184 1.452 . S
C379 C142 1.132 . S
C394 C209 1.243 . S
C429 C67 1.549 . S
C444 C175 1.431 . S
C494 C192 1.452 . S
C479 C158 1.531 . S
C529 C154 1.133 . S
C544 C188 1.255 . S
C594 C205 1.472 . S
C579 C56 1.558 . S
C644 C172 1.396 . S
C629 C147 1.529 . S
C694 C208 1.255 . S
C679 C70 1.133 . S
C744 C171 1.470 . S
C729 C140 1.559 . S
C794 C196 1.398 . S
C779 C63 1.530 . S
