# Generated by pormake.
# Topology ctn, (3,4)-cn, num edge types: 1
# Building blocks:
#     Node 0, Type 0, BuildingBlock: WUSLED_clean_sbu_0, # of connection points: 3
#     Node 1, Type 0, BuildingBlock: WUSLED_clean_sbu_0, # of connection points: 3
#     Node 2, Type 0, BuildingBlock: WUSLED_clean_sbu_0, # of connection points: 3
#     Node 3, Type 0, BuildingBlock: WUSLED_clean_sbu_0, # of connection points: 3
#     Node 4, Type 0, BuildingBlock: WUSLED_clean_sbu_0, # of connection points: 3
#     Node 5, Type 0, BuildingBlock: WUSLED_clean_sbu_0, # of connection points: 3
#     Node 6, Type 0, BuildingBlock: WUSLED_clean_sbu_0, # of connection points: 3
#     Node 7, Type 0, BuildingBlock: WUSLED_clean_sbu_0, # of connection points: 3
#     Node 8, Type 0, BuildingBlock: WUSLED_clean_sbu_0, # of connection points: 3
#     Node 9, Type 0, BuildingBlock: WUSLED_clean_sbu_0, # of connection points: 3
#     Node 10, Type 0, BuildingBlock: WUSLED_clean_sbu_0, # of connection points: 3
#     Node 11, Type 0, BuildingBlock: WUSLED_clean_sbu_0, # of connection points: 3
#     Node 12, Type 0, BuildingBlock: WUSLED_clean_sbu_0, # of connection points: 3
#     Node 13, Type 0, BuildingBlock: WUSLED_clean_sbu_0, # of connection points: 3
#     Node 14, Type 0, BuildingBlock: WUSLED_clean_sbu_0, # of connection points: 3
#     Node 15, Type 0, BuildingBlock: WUSLED_clean_sbu_0, # of connection points: 3
#     Node 16, Type 1, BuildingBlock: QUQFOY_clean_sbu_1, # of connection points: 4
#     Node 17, Type 1, BuildingBlock: QUQFOY_clean_sbu_1, # of connection points: 4
#     Node 18, Type 1, BuildingBlock: QUQFOY_clean_sbu_1, # of connection points: 4
#     Node 19, Type 1, BuildingBlock: QUQFOY_clean_sbu_1, # of connection points: 4
#     Node 20, Type 1, BuildingBlock: QUQFOY_clean_sbu_1, # of connection points: 4
#     Node 21, Type 1, BuildingBlock: QUQFOY_clean_sbu_1, # of connection points: 4
#     Node 22, Type 1, BuildingBlock: QUQFOY_clean_sbu_1, # of connection points: 4
#     Node 23, Type 1, BuildingBlock: QUQFOY_clean_sbu_1, # of connection points: 4
#     Node 24, Type 1, BuildingBlock: QUQFOY_clean_sbu_1, # of connection points: 4
#     Node 25, Type 1, BuildingBlock: QUQFOY_clean_sbu_1, # of connection points: 4
#     Node 26, Type 1, BuildingBlock: QUQFOY_clean_sbu_1, # of connection points: 4
#     Node 27, Type 1, BuildingBlock: QUQFOY_clean_sbu_1, # of connection points: 4
#     Edge 28, Type (0, 1), BuildingBlock: UVAHIK_clean_linker_0, # of connection points: 2
#     Edge 29, Type (0, 1), BuildingBlock: UVAHIK_clean_linker_0, # of connection points: 2
#     Edge 30, Type (0, 1), BuildingBlock: UVAHIK_clean_linker_0, # of connection points: 2
#     Edge 31, Type (0, 1), BuildingBlock: UVAHIK_clean_linker_0, # of connection points: 2
#     Edge 32, Type (0, 1), BuildingBlock: UVAHIK_clean_linker_0, # of connection points: 2
#     Edge 33, Type (0, 1), BuildingBlock: UVAHIK_clean_linker_0, # of connection points: 2
#     Edge 34, Type (0, 1), BuildingBlock: UVAHIK_clean_linker_0, # of connection points: 2
#     Edge 35, Type (0, 1), BuildingBlock: UVAHIK_clean_linker_0, # of connection points: 2
#     Edge 36, Type (0, 1), BuildingBlock: UVAHIK_clean_linker_0, # of connection points: 2
#     Edge 37, Type (0, 1), BuildingBlock: UVAHIK_clean_linker_0, # of connection points: 2
#     Edge 38, Type (0, 1), BuildingBlock: UVAHIK_clean_linker_0, # of connection points: 2
#     Edge 39, Type (0, 1), BuildingBlock: UVAHIK_clean_linker_0, # of connection points: 2
#     Edge 40, Type (0, 1), BuildingBlock: UVAHIK_clean_linker_0, # of connection points: 2
#     Edge 41, Type (0, 1), BuildingBlock: UVAHIK_clean_linker_0, # of connection points: 2
#     Edge 42, Type (0, 1), BuildingBlock: UVAHIK_clean_linker_0, # of connection points: 2
#     Edge 43, Type (0, 1), BuildingBlock: UVAHIK_clean_linker_0, # of connection points: 2
#     Edge 44, Type (0, 1), BuildingBlock: UVAHIK_clean_linker_0, # of connection points: 2
#     Edge 45, Type (0, 1), BuildingBlock: UVAHIK_clean_linker_0, # of connection points: 2
#     Edge 46, Type (0, 1), BuildingBlock: UVAHIK_clean_linker_0, # of connection points: 2
#     Edge 47, Type (0, 1), BuildingBlock: UVAHIK_clean_linker_0, # of connection points: 2
#     Edge 48, Type (0, 1), BuildingBlock: UVAHIK_clean_linker_0, # of connection points: 2
#     Edge 49, Type (0, 1), BuildingBlock: UVAHIK_clean_linker_0, # of connection points: 2
#     Edge 50, Type (0, 1), BuildingBlock: UVAHIK_clean_linker_0, # of connection points: 2
#     Edge 51, Type (0, 1), BuildingBlock: UVAHIK_clean_linker_0, # of connection points: 2
#     Edge 52, Type (0, 1), BuildingBlock: UVAHIK_clean_linker_0, # of connection points: 2
#     Edge 53, Type (0, 1), BuildingBlock: UVAHIK_clean_linker_0, # of connection points: 2
#     Edge 54, Type (0, 1), BuildingBlock: UVAHIK_clean_linker_0, # of connection points: 2
#     Edge 55, Type (0, 1), BuildingBlock: UVAHIK_clean_linker_0, # of connection points: 2
#     Edge 56, Type (0, 1), BuildingBlock: UVAHIK_clean_linker_0, # of connection points: 2
#     Edge 57, Type (0, 1), BuildingBlock: UVAHIK_clean_linker_0, # of connection points: 2
#     Edge 58, Type (0, 1), BuildingBlock: UVAHIK_clean_linker_0, # of connection points: 2
#     Edge 59, Type (0, 1), BuildingBlock: UVAHIK_clean_linker_0, # of connection points: 2
#     Edge 60, Type (0, 1), BuildingBlock: UVAHIK_clean_linker_0, # of connection points: 2
#     Edge 61, Type (0, 1), BuildingBlock: UVAHIK_clean_linker_0, # of connection points: 2
#     Edge 62, Type (0, 1), BuildingBlock: UVAHIK_clean_linker_0, # of connection points: 2
#     Edge 63, Type (0, 1), BuildingBlock: UVAHIK_clean_linker_0, # of connection points: 2
#     Edge 64, Type (0, 1), BuildingBlock: UVAHIK_clean_linker_0, # of connection points: 2
#     Edge 65, Type (0, 1), BuildingBlock: UVAHIK_clean_linker_0, # of connection points: 2
#     Edge 66, Type (0, 1), BuildingBlock: UVAHIK_clean_linker_0, # of connection points: 2
#     Edge 67, Type (0, 1), BuildingBlock: UVAHIK_clean_linker_0, # of connection points: 2
#     Edge 68, Type (0, 1), BuildingBlock: UVAHIK_clean_linker_0, # of connection points: 2
#     Edge 69, Type (0, 1), BuildingBlock: UVAHIK_clean_linker_0, # of connection points: 2
#     Edge 70, Type (0, 1), BuildingBlock: UVAHIK_clean_linker_0, # of connection points: 2
#     Edge 71, Type (0, 1), BuildingBlock: UVAHIK_clean_linker_0, # of connection points: 2
#     Edge 72, Type (0, 1), BuildingBlock: UVAHIK_clean_linker_0, # of connection points: 2
#     Edge 73, Type (0, 1), BuildingBlock: UVAHIK_clean_linker_0, # of connection points: 2
#     Edge 74, Type (0, 1), BuildingBlock: UVAHIK_clean_linker_0, # of connection points: 2
#     Edge 75, Type (0, 1), BuildingBlock: UVAHIK_clean_linker_0, # of connection points: 2
# Relax obj value: 0.035
# Max RMSD: 0.139
# Mean RMSD: 0.064
data_MOF--net-ctn--node1-WUSLED_clean_sbu_0--node2-QUQFOY_clean_sbu_1--edge1-UVAHIK_clean_linker_0
_symmetry_space_group_name_H-M    P1
_symmetry_Int_Tables_number       1
_symmetry_cell_setting            triclinic
loop_
_symmetry_equiv_pos_as_xyz
'x, y, z'
_cell_length_a     87.257306
_cell_length_b     87.763231
_cell_length_c     87.830685
_cell_angle_alpha  93.178186
_cell_angle_beta   90.040697
_cell_angle_gamma 94.120957
loop_
_atom_site_label
_atom_site_type_symbol
_atom_site_fract_x
_atom_site_fract_y
_atom_site_fract_z
_atom_type_partial_charge
C0 C 0.02581 0.1057 0.10159 0.0
C1 C 0.0233 0.09084 0.10667 0.0
C2 C 0.00695 0.10018 0.12715 0.0
C3 C 0.0139 0.0881 0.11925 0.0
C4 C 0.00971 0.11509 0.12212 0.0
C5 C 0.01902 0.1178 0.10944 0.0
U6 U 0.05894 0.09595 0.07555 0.0
O7 O 0.06032 0.09425 0.05052 0.0
O8 O 0.07587 0.1108 0.06368 0.0
C9 C 0.07077 0.10576 0.05009 0.0
C10 C 0.03537 0.10865 0.08811 0.0
C11 C 0.06738 0.11756 0.03959 0.0
C12 C 0.05339 0.13931 0.03316 0.0
C13 C 0.05689 0.1285 0.04353 0.0
C14 C 0.07085 0.12836 0.01486 0.0
C15 C 0.06024 0.13928 0.01865 0.0
C16 C 0.07438 0.11761 0.02525 0.0
C17 C 0.08273 0.06268 0.08514 0.0
C18 C 0.09843 0.04863 0.06722 0.0
C19 C 0.10166 0.04637 0.09438 0.0
C20 C 0.09018 0.05647 0.09723 0.0
C21 C 0.10587 0.04221 0.07932 0.0
C22 C 0.08703 0.05881 0.0701 0.0
C23 C 0.07036 0.07294 0.08843 0.0
O24 O 0.04968 0.11373 0.09095 0.0
O25 O 0.03405 0.09801 0.07695 0.0
O26 O 0.05855 0.07134 0.07904 0.0
O27 O 0.07484 0.08731 0.09201 0.0
H28 H 0.02849 0.08132 0.10082 0.0
H29 H 0.01189 0.07644 0.1226 0.0
H30 H 0.00478 0.12471 0.12805 0.0
H31 H 0.02091 0.12936 0.10575 0.0
H32 H 0.04504 0.14745 0.03637 0.0
H33 H 0.0513 0.12856 0.05454 0.0
H34 H 0.07646 0.12814 0.00386 0.0
H35 H 0.08251 0.10923 0.02203 0.0
H36 H 0.10122 0.04557 0.05548 0.0
H37 H 0.1073 0.0419 0.10398 0.0
H38 H 0.08708 0.0594 0.10892 0.0
H39 H 0.08145 0.06352 0.06058 0.0
C40 C 0.27132 0.75493 0.20123 0.0
C41 C 0.27447 0.7706 0.2051 0.0
C42 C 0.26807 0.77678 0.17925 0.0
C43 C 0.27277 0.78144 0.19421 0.0
C44 C 0.26498 0.76108 0.17545 0.0
C45 C 0.26654 0.75028 0.18635 0.0
U46 U 0.29297 0.73799 0.2335 0.0
O47 O 0.28436 0.72713 0.25408 0.0
O48 O 0.29716 0.714 0.237 0.0
C49 C 0.28902 0.7137 0.24957 0.0
C50 C 0.27299 0.74321 0.21242 0.0
C51 C 0.27765 0.70059 0.25044 0.0
C52 C 0.25167 0.6889 0.24719 0.0
C53 C 0.2623 0.70151 0.24604 0.0
C54 C 0.27173 0.67427 0.25684 0.0
C55 C 0.25625 0.67513 0.25267 0.0
C56 C 0.2823 0.68689 0.25576 0.0
C57 C 0.33061 0.757 0.24911 0.0
C58 C 0.34146 0.75182 0.27365 0.0
C59 C 0.35784 0.76276 0.25421 0.0
C60 C 0.34519 0.76256 0.24439 0.0
C61 C 0.35613 0.75746 0.26901 0.0
C62 C 0.32885 0.75151 0.26377 0.0
C63 C 0.31748 0.75667 0.23853 0.0
O64 O 0.28438 0.73439 0.2099 0.0
O65 O 0.27153 0.74762 0.22687 0.0
O66 O 0.30408 0.75889 0.2448 0.0
O67 O 0.31684 0.74548 0.22792 0.0
H68 H 0.2783 0.77448 0.21648 0.0
H69 H 0.27538 0.79344 0.19743 0.0
H70 H 0.26118 0.75715 0.16406 0.0
H71 H 0.26403 0.73826 0.18314 0.0
H72 H 0.23983 0.69003 0.24401 0.0
H73 H 0.25851 0.71199 0.24182 0.0
H74 H 0.27573 0.66379 0.26083 0.0
H75 H 0.29414 0.68595 0.2591 0.0
H76 H 0.33964 0.74784 0.285 0.0
H77 H 0.36898 0.76692 0.25012 0.0
H78 H 0.34681 0.76669 0.23306 0.0
H79 H 0.31771 0.74702 0.26762 0.0
C80 C 0.93969 0.45204 0.03065 0.0
C81 C 0.95487 0.44778 0.03133 0.0
C82 C 0.94883 0.42674 0.0126 0.0
C83 C 0.95942 0.4353 0.02232 0.0
C84 C 0.93357 0.43089 0.01212 0.0
C85 C 0.92905 0.44349 0.02105 0.0
U86 U 0.94488 0.47797 0.06627 0.0
O87 O 0.94556 0.50296 0.06989 0.0
O88 O 0.92804 0.4886 0.08144 0.0
C89 C 0.93295 0.50253 0.0781 0.0
C90 C 0.93488 0.46521 0.04011 0.0
C91 C 0.92106 0.51238 0.0733 0.0
C92 C 0.90758 0.52438 0.05345 0.0
C93 C 0.91858 0.51463 0.05782 0.0
C94 C 0.90109 0.52947 0.07996 0.0
C95 C 0.8987 0.53197 0.06446 0.0
C96 C 0.91219 0.5198 0.08432 0.0
C97 C 0.97695 0.46893 0.09362 0.0
C98 C 0.98363 0.484 0.11701 0.0
C99 C 0.99915 0.46338 0.10844 0.0
C100 C 0.98949 0.4602 0.0958 0.0
C101 C 0.99641 0.47539 0.11915 0.0
C102 C 0.97398 0.4808 0.10432 0.0
C103 C 0.96748 0.46579 0.07985 0.0
O104 O 0.9286 0.46187 0.05322 0.0
O105 O 0.94494 0.47711 0.04123 0.0
O106 O 0.9696 0.4758 0.06933 0.0
O107 O 0.95291 0.4616 0.08205 0.0
H108 H 0.96322 0.4541 0.03884 0.0
H109 H 0.97119 0.43224 0.02308 0.0
H110 H 0.92519 0.42453 0.00467 0.0
H111 H 0.91727 0.44656 0.02045 0.0
H112 H 0.90625 0.52616 0.04144 0.0
H113 H 0.92525 0.50896 0.04909 0.0
H114 H 0.8943 0.53489 0.08875 0.0
H115 H 0.91387 0.51814 0.09632 0.0
H116 H 0.98109 0.49321 0.12513 0.0
H117 H 0.009 0.45669 0.10958 0.0
H118 H 0.99197 0.45104 0.08759 0.0
H119 H 0.96432 0.48766 0.10278 0.0
C120 C 0.71607 0.78513 0.20367 0.0
C121 C 0.72245 0.79245 0.1911 0.0
C122 C 0.72477 0.76779 0.1775 0.0
C123 C 0.72669 0.78386 0.1781 0.0
C124 C 0.71859 0.76049 0.19023 0.0
C125 C 0.71424 0.76911 0.20318 0.0
U126 U 0.7201 0.82111 0.22991 0.0
O127 O 0.70277 0.83462 0.2413 0.0
O128 O 0.71964 0.82389 0.255 0.0
C129 C 0.70707 0.8313 0.25501 0.0
C130 C 0.71143 0.79404 0.21737 0.0
C131 C 0.69477 0.82591 0.26538 0.0
C132 C 0.66854 0.81595 0.27002 0.0
C133 C 0.68027 0.8201 0.25987 0.0
C134 C 0.68578 0.82284 0.2913 0.0
C135 C 0.6711 0.8174 0.28588 0.0
C136 C 0.69745 0.8271 0.28116 0.0
C137 C 0.75 0.85319 0.22053 0.0
C138 C 0.75012 0.87959 0.23052 0.0
C139 C 0.77332 0.86998 0.21973 0.0
C140 C 0.76551 0.85566 0.21667 0.0
C141 C 0.76572 0.88216 0.22665 0.0
C142 C 0.74235 0.86523 0.22755 0.0
C143 C 0.74208 0.83797 0.21725 0.0
O144 O 0.72184 0.79616 0.22824 0.0
O145 O 0.70443 0.80645 0.21487 0.0
O146 O 0.72756 0.83778 0.21317 0.0
O147 O 0.74473 0.82763 0.227 0.0
H148 H 0.72413 0.80482 0.19133 0.0
H149 H 0.73159 0.78979 0.16856 0.0
H150 H 0.71687 0.74814 0.19005 0.0
H151 H 0.70939 0.76327 0.21281 0.0
H152 H 0.65736 0.81199 0.26541 0.0
H153 H 0.67788 0.81901 0.24774 0.0
H154 H 0.68827 0.82386 0.30341 0.0
H155 H 0.70857 0.8315 0.28566 0.0
H156 H 0.74384 0.88873 0.2357 0.0
H157 H 0.78538 0.87141 0.21686 0.0
H158 H 0.77163 0.84648 0.21135 0.0
H159 H 0.73037 0.86354 0.23069 0.0
C160 C 0.01223 0.97845 0.44177 0.0
C161 C 0.01147 0.99412 0.43959 0.0
C162 C 0.99364 0.98822 0.41842 0.0
C163 C 1.00218 0.99896 0.4281 0.0
C164 C 0.99459 0.97254 0.42048 0.0
C165 C 0.00376 0.9677 0.43211 0.0
U166 U 0.04856 0.98368 0.4656 0.0
O167 O 0.05235 0.98246 0.49024 0.0
O168 O 0.06387 0.96715 0.47406 0.0
C169 C 0.06102 0.97086 0.48844 0.0
C170 C 0.02197 0.97325 0.4539 0.0
C171 C 0.05715 0.95807 0.49816 0.0
C172 C 0.04101 0.93559 0.5044 0.0
C173 C 0.04467 0.94746 0.49472 0.0
C174 C 0.06226 0.94488 0.52098 0.0
C175 C 0.04973 0.9342 0.5177 0.0
C176 C 0.06593 0.95669 0.51129 0.0
C177 C 0.07735 0.01707 0.45826 0.0
C178 C 0.09671 0.02743 0.47665 0.0
C179 C 0.09887 0.03375 0.45019 0.0
C180 C 0.0853 0.02475 0.44677 0.0
C181 C 0.10464 0.03529 0.46519 0.0
C182 C 0.08323 0.01832 0.4732 0.0
C183 C 0.06295 0.00788 0.45454 0.0
O184 O 0.03505 0.96803 0.44934 0.0
O185 O 0.02335 0.98235 0.46631 0.0
O186 O 0.05208 0.00865 0.46485 0.0
O187 O 0.06453 0.99389 0.44893 0.0
H188 H 0.01808 1.00265 0.44676 0.0
H189 H 1.00185 0.0111 0.42664 0.0
H190 H 0.98807 0.96402 0.41323 0.0
H191 H 0.00425 0.95557 0.43356 0.0
H192 H 0.03139 0.92747 0.50144 0.0
H193 H 0.03776 0.94839 0.48461 0.0
H194 H 0.06907 0.94433 0.53122 0.0
H195 H 0.07554 0.96486 0.51415 0.0
H196 H 0.101 0.02825 0.48827 0.0
H197 H 0.10468 0.03977 0.44115 0.0
H198 H 0.08095 0.02387 0.43518 0.0
H199 H 0.07735 0.01233 0.48221 0.0
C200 C 0.20401 0.78175 0.83968 0.0
C201 C 0.20868 0.77466 0.85269 0.0
C202 C 0.20766 0.79863 0.8679 0.0
C203 C 0.21041 0.78301 0.8667 0.0
C204 C 0.20315 0.8057 0.8548 0.0
C205 C 0.2013 0.79732 0.84083 0.0
U206 U 0.21448 0.7502 0.81059 0.0
O207 O 0.1995 0.73401 0.79629 0.0
O208 O 0.21587 0.75025 0.78559 0.0
C209 C 0.20425 0.73994 0.78357 0.0
C210 C 0.20184 0.77314 0.82487 0.0
C211 C 0.19198 0.74395 0.77336 0.0
C212 C 0.1729 0.76116 0.76623 0.0
C213 C 0.18489 0.75773 0.77578 0.0
C214 C 0.17498 0.73705 0.75181 0.0
C215 C 0.16774 0.75079 0.7542 0.0
C216 C 0.187 0.73367 0.76131 0.0
C217 C 0.24676 0.72478 0.81968 0.0
C218 C 0.25642 0.70604 0.80137 0.0
C219 C 0.26457 0.70679 0.82779 0.0
C220 C 0.25548 0.71901 0.83114 0.0
C221 C 0.26512 0.70013 0.81288 0.0
C222 C 0.24726 0.71825 0.80475 0.0
C223 C 0.2371 0.73747 0.82357 0.0
O224 O 0.21314 0.77502 0.81511 0.0
O225 O 0.19638 0.75882 0.82539 0.0
O226 O 0.22254 0.73349 0.826 0.0
O227 O 0.23917 0.74945 0.81525 0.0
H228 H 0.21098 0.76267 0.85203 0.0
H229 H 0.21407 0.7773 0.87655 0.0
H230 H 0.20083 0.81768 0.8554 0.0
H231 H 0.1977 0.80298 0.83092 0.0
H232 H 0.16745 0.77175 0.76847 0.0
H233 H 0.18852 0.76575 0.78513 0.0
H234 H 0.1714 0.72891 0.74254 0.0
H235 H 0.19235 0.72298 0.7593 0.0
H236 H 0.25646 0.70106 0.78981 0.0
H237 H 0.27127 0.70264 0.83688 0.0
H238 H 0.25524 0.72394 0.84272 0.0
H239 H 0.24052 0.72252 0.79577 0.0
C240 C 0.94955 0.60224 0.50543 0.0
C241 C 0.96495 0.60808 0.50524 0.0
C242 C 0.95873 0.6299 0.52181 0.0
C243 C 0.96952 0.62176 0.51343 0.0
C244 C 0.94325 0.6242 0.52164 0.0
C245 C 0.93871 0.61044 0.51355 0.0
U246 U 0.95508 0.57148 0.47408 0.0
O247 O 0.95315 0.54641 0.47492 0.0
O248 O 0.93818 0.55765 0.45961 0.0
C249 C 0.94119 0.54485 0.46572 0.0
C250 C 0.9447 0.58754 0.49742 0.0
C251 C 0.9278 0.53591 0.47153 0.0
C252 C 0.90526 0.53403 0.48769 0.0
C253 C 0.9179 0.54264 0.48208 0.0
C254 C 0.9124 0.51183 0.47238 0.0
C255 C 0.90237 0.51852 0.48291 0.0
C256 C 0.92501 0.52048 0.46673 0.0
C257 C 0.98827 0.57664 0.4462 0.0
C258 C 0.99796 0.55604 0.43017 0.0
C259 C 0.00427 0.58244 0.42438 0.0
C260 C 0.99575 0.58733 0.43696 0.0
C261 C 0.00551 0.56674 0.42088 0.0
C262 C 0.98933 0.56095 0.44268 0.0
C263 C 0.97932 0.58208 0.45933 0.0
O264 O 0.93958 0.58837 0.48344 0.0
O265 O 0.95406 0.57659 0.49879 0.0
O266 O 0.98016 0.57437 0.47169 0.0
O267 O 0.96529 0.58549 0.45615 0.0
H268 H 0.97347 0.60198 0.49889 0.0
H269 H 0.98149 0.62598 0.51321 0.0
H270 H 0.93471 0.63016 0.52809 0.0
H271 H 0.92677 0.60611 0.51378 0.0
H272 H 0.89786 0.53945 0.49592 0.0
H273 H 0.91999 0.55453 0.48601 0.0
H274 H 0.91039 0.49996 0.46837 0.0
H275 H 0.93257 0.51512 0.4586 0.0
H276 H 0.99857 0.54388 0.42764 0.0
H277 H 0.01009 0.59094 0.41752 0.0
H278 H 0.99503 0.59948 0.43949 0.0
H279 H 0.98348 0.55251 0.4496 0.0
C280 C 0.77541 0.79978 0.83985 0.0
C281 C 0.7883 0.79133 0.84152 0.0
C282 C 0.77695 0.78004 0.864 0.0
C283 C 0.78907 0.78154 0.8535 0.0
C284 C 0.76403 0.78853 0.86218 0.0
C285 C 0.76329 0.79831 0.85021 0.0
U286 U 0.79206 0.81629 0.80391 0.0
O287 O 0.78063 0.82191 0.78277 0.0
O288 O 0.79393 0.83986 0.79654 0.0
C289 C 0.78446 0.83663 0.78498 0.0
C290 C 0.7745 0.81009 0.82733 0.0
C291 C 0.77178 0.8467 0.78415 0.0
C292 C 0.75006 0.85858 0.79583 0.0
C293 C 0.76153 0.84827 0.79634 0.0
C294 C 0.75869 0.8655 0.77075 0.0
C295 C 0.74861 0.86744 0.7831 0.0
C296 C 0.77019 0.85523 0.7713 0.0
C297 C 0.83025 0.80238 0.7891 0.0
C298 C 0.84065 0.80565 0.76372 0.0
C299 C 0.85711 0.79867 0.78405 0.0
C300 C 0.84475 0.79885 0.79413 0.0
C301 C 0.8552 0.80193 0.76868 0.0
C302 C 0.82828 0.80591 0.77386 0.0
C303 C 0.81743 0.80226 0.79995 0.0
O304 O 0.78507 0.82156 0.82756 0.0
O305 O 0.77233 0.80327 0.81371 0.0
O306 O 0.80399 0.79664 0.79461 0.0
O307 O 0.81665 0.8148 0.80873 0.0
H308 H 0.79778 0.79234 0.83359 0.0
H309 H 0.79924 0.77531 0.85465 0.0
H310 H 0.75439 0.78747 0.86991 0.0
H311 H 0.75323 0.80471 0.84903 0.0
H312 H 0.74237 0.85966 0.80544 0.0
H313 H 0.76256 0.8417 0.80633 0.0
H314 H 0.75798 0.87226 0.76086 0.0
H315 H 0.77803 0.85416 0.7618 0.0
H316 H 0.83872 0.80808 0.75195 0.0
H317 H 0.8682 0.79606 0.78835 0.0
H318 H 0.8465 0.79622 0.80588 0.0
H319 H 0.81718 0.80875 0.76978 0.0
C320 C 0.27471 0.30326 0.33986 0.0
C321 C 0.28825 0.29597 0.34213 0.0
C322 C 0.27678 0.28349 0.36392 0.0
C323 C 0.28929 0.28619 0.35407 0.0
C324 C 0.26322 0.29083 0.36151 0.0
C325 C 0.26222 0.30063 0.34959 0.0
U326 U 0.29073 0.31962 0.30363 0.0
O327 O 0.27904 0.32486 0.28252 0.0
O328 O 0.29224 0.3431 0.29601 0.0
C329 C 0.2827 0.33963 0.28454 0.0
C330 C 0.27349 0.31346 0.32728 0.0
C331 C 0.26988 0.34952 0.28372 0.0
C332 C 0.24751 0.36046 0.29513 0.0
C333 C 0.25916 0.35035 0.29558 0.0
C334 C 0.25694 0.36872 0.27076 0.0
C335 C 0.24637 0.36989 0.28279 0.0
C336 C 0.26861 0.35863 0.27125 0.0
C337 C 0.32893 0.30583 0.2886 0.0
C338 C 0.33904 0.30867 0.26305 0.0
C339 C 0.35574 0.30205 0.28334 0.0
C340 C 0.34349 0.30241 0.29355 0.0
C341 C 0.35365 0.30503 0.26793 0.0
C342 C 0.32679 0.30911 0.27332 0.0
C343 C 0.31621 0.30579 0.29958 0.0
O344 O 0.28391 0.32505 0.32729 0.0
O345 O 0.27123 0.30652 0.31374 0.0
O346 O 0.30276 0.29999 0.29442 0.0
O347 O 0.31541 0.31842 0.3082 0.0
H348 H 0.29802 0.29787 0.33468 0.0
H349 H 0.29996 0.28089 0.35569 0.0
H350 H 0.25329 0.28883 0.36871 0.0
H351 H 0.25165 0.30611 0.34792 0.0
H352 H 0.23944 0.36094 0.30448 0.0
H353 H 0.25996 0.34333 0.30529 0.0
H354 H 0.25649 0.37594 0.26118 0.0
H355 H 0.27682 0.35815 0.26201 0.0
H356 H 0.33697 0.31089 0.25125 0.0
H357 H 0.36688 0.29951 0.28757 0.0
H358 H 0.34538 0.29997 0.30534 0.0
H359 H 0.31563 0.31186 0.26929 0.0
C360 C 0.43911 0.95298 0.53144 0.0
C361 C 0.44648 0.94141 0.5383 0.0
C362 C 0.44813 0.92742 0.51371 0.0
C363 C 0.45088 0.92869 0.52952 0.0
C364 C 0.44067 0.93903 0.50691 0.0
C365 C 0.43617 0.95169 0.51573 0.0
U366 U 0.445 0.97945 0.56671 0.0
O367 O 0.44702 0.00454 0.56961 0.0
O368 O 0.42851 0.99144 0.58114 0.0
C369 C 0.43426 0.00502 0.57753 0.0
C370 C 0.43513 0.96674 0.54046 0.0
C371 C 0.42303 0.01539 0.5723 0.0
C372 C 0.41113 0.0284 0.55212 0.0
C373 C 0.42176 0.01842 0.55683 0.0
C374 C 0.40264 0.03223 0.57822 0.0
C375 C 0.4014 0.03543 0.56275 0.0
C376 C 0.41338 0.02234 0.58293 0.0
C377 C 0.47507 0.96945 0.59577 0.0
C378 C 0.48867 0.98716 0.61422 0.0
C379 C 0.48952 0.95983 0.61638 0.0
C380 C 0.48015 0.95717 0.60345 0.0
C381 C 0.49407 0.97486 0.62182 0.0
C382 C 0.47921 0.98447 0.60135 0.0
C383 C 0.46606 0.96634 0.58163 0.0
O384 O 0.42816 0.96426 0.55346 0.0
O385 O 0.44614 0.97776 0.54165 0.0
O386 O 0.46923 0.97574 0.57074 0.0
O387 O 0.45126 0.96297 0.58331 0.0
H388 H 0.44901 0.94231 0.55041 0.0
H389 H 0.45678 0.92005 0.53505 0.0
H390 H 0.43827 0.93829 0.49478 0.0
H391 H 0.43056 0.96056 0.51024 0.0
H392 H 0.41068 0.03074 0.54016 0.0
H393 H 0.42904 0.01314 0.54838 0.0
H394 H 0.39519 0.03719 0.58669 0.0
H395 H 0.4141 0.02007 0.5949 0.0
H396 H 0.49206 0.99888 0.61795 0.0
H397 H 0.49321 0.95009 0.62209 0.0
H398 H 0.47701 0.94549 0.59934 0.0
H399 H 0.47538 0.99413 0.59559 0.0
C400 C 0.21319 0.28525 0.70189 0.0
C401 C 0.22767 0.28774 0.69515 0.0
C402 C 0.221 0.26749 0.67567 0.0
C403 C 0.23157 0.27888 0.68218 0.0
C404 C 0.20651 0.26508 0.6825 0.0
C405 C 0.20266 0.27388 0.6955 0.0
U406 U 0.21864 0.32091 0.72875 0.0
O407 O 0.20165 0.33523 0.73959 0.0
O408 O 0.21707 0.32324 0.75381 0.0
C409 C 0.20497 0.3313 0.75339 0.0
C410 C 0.20881 0.2945 0.71545 0.0
C411 C 0.19185 0.32608 0.76286 0.0
C412 C 0.16528 0.31618 0.76553 0.0
C413 C 0.17772 0.32047 0.75629 0.0
C414 C 0.181 0.32256 0.78804 0.0
C415 C 0.16676 0.31727 0.78151 0.0
C416 C 0.1934 0.32699 0.77879 0.0
C417 C 0.25031 0.35183 0.72115 0.0
C418 C 0.25096 0.37805 0.73174 0.0
C419 C 0.27394 0.3682 0.72068 0.0
C420 C 0.26586 0.35407 0.71733 0.0
C421 C 0.26657 0.38042 0.72786 0.0
C422 C 0.24293 0.36387 0.72848 0.0
C423 C 0.24199 0.33693 0.7173 0.0
O424 O 0.21883 0.29585 0.72671 0.0
O425 O 0.20294 0.30745 0.71268 0.0
O426 O 0.22774 0.33745 0.71257 0.0
O427 O 0.24363 0.3263 0.72703 0.0
H428 H 0.23591 0.29657 0.69988 0.0
H429 H 0.24275 0.28111 0.67709 0.0
H430 H 0.19818 0.25629 0.67787 0.0
H431 H 0.19143 0.27182 0.70056 0.0
H432 H 0.1545 0.31197 0.76017 0.0
H433 H 0.17623 0.31949 0.74402 0.0
H434 H 0.18244 0.32364 0.80031 0.0
H435 H 0.20419 0.33129 0.7841 0.0
H436 H 0.24486 0.38721 0.73711 0.0
H437 H 0.286 0.36949 0.71778 0.0
H438 H 0.27178 0.34488 0.71175 0.0
H439 H 0.23092 0.36236 0.73158 0.0
C440 C 0.7696 0.25418 0.70041 0.0
C441 C 0.77256 0.26984 0.70447 0.0
C442 C 0.76665 0.27622 0.67857 0.0
C443 C 0.77101 0.28077 0.69365 0.0
C444 C 0.76374 0.26055 0.67457 0.0
C445 C 0.76515 0.24965 0.68541 0.0
U446 U 0.79103 0.23672 0.7325 0.0
O447 O 0.78232 0.22581 0.75301 0.0
O448 O 0.7949 0.21261 0.7358 0.0
C449 C 0.78675 0.21232 0.74836 0.0
C450 C 0.77112 0.24235 0.71151 0.0
C451 C 0.77518 0.19934 0.74913 0.0
C452 C 0.74887 0.18831 0.74676 0.0
C453 C 0.75967 0.20078 0.74565 0.0
C454 C 0.76906 0.17276 0.75446 0.0
C455 C 0.75343 0.17415 0.75127 0.0
C456 C 0.7798 0.18524 0.75344 0.0
C457 C 0.82894 0.25529 0.74806 0.0
C458 C 0.83991 0.24982 0.77245 0.0
C459 C 0.85613 0.26124 0.75316 0.0
C460 C 0.84346 0.26107 0.74339 0.0
C461 C 0.85451 0.25571 0.76787 0.0
C462 C 0.82726 0.24954 0.76262 0.0
C463 C 0.81576 0.2551 0.73756 0.0
O464 O 0.78237 0.23338 0.70891 0.0
O465 O 0.76973 0.24668 0.726 0.0
O466 O 0.80241 0.25742 0.74391 0.0
O467 O 0.81497 0.24395 0.72691 0.0
H468 H 0.77613 0.27364 0.71596 0.0
H469 H 0.77347 0.29276 0.69702 0.0
H470 H 0.76021 0.2567 0.66309 0.0
H471 H 0.76278 0.23764 0.68205 0.0
H472 H 0.73693 0.18985 0.74436 0.0
H473 H 0.75588 0.21157 0.74221 0.0
H474 H 0.77305 0.16197 0.75767 0.0
H475 H 0.79176 0.18389 0.75604 0.0
H476 H 0.83816 0.24564 0.78373 0.0
H477 H 0.86723 0.26559 0.74912 0.0
H478 H 0.845 0.26541 0.73214 0.0
H479 H 0.81617 0.2449 0.76642 0.0
C480 C 0.525 0.60548 0.60151 0.0
C481 C 0.5225 0.59064 0.60662 0.0
C482 C 0.50609 0.59998 0.62704 0.0
C483 C 0.51308 0.5879 0.61918 0.0
C484 C 0.50883 0.61488 0.62198 0.0
C485 C 0.51816 0.61758 0.60931 0.0
U486 U 0.55808 0.59559 0.57547 0.0
O487 O 0.55949 0.59397 0.55044 0.0
O488 O 0.57512 0.61037 0.56367 0.0
C489 C 0.57002 0.60541 0.55006 0.0
C490 C 0.53459 0.60842 0.58805 0.0
C491 C 0.56676 0.61728 0.53959 0.0
C492 C 0.5531 0.63927 0.53325 0.0
C493 C 0.55646 0.62838 0.54359 0.0
C494 C 0.57031 0.62807 0.51486 0.0
C495 C 0.55991 0.63917 0.51872 0.0
C496 C 0.57371 0.61724 0.52522 0.0
C497 C 0.58163 0.56213 0.58497 0.0
C498 C 0.59722 0.54798 0.56702 0.0
C499 C 0.60053 0.54576 0.59417 0.0
C500 C 0.5891 0.55592 0.59705 0.0
C501 C 0.60468 0.54157 0.57911 0.0
C502 C 0.58586 0.55821 0.56992 0.0
C503 C 0.56933 0.57245 0.58829 0.0
O504 O 0.54892 0.6134 0.59091 0.0
O505 O 0.53321 0.59782 0.57686 0.0
O506 O 0.55752 0.57096 0.57888 0.0
O507 O 0.57388 0.5868 0.59192 0.0
H508 H 0.52772 0.58112 0.6008 0.0
H509 H 0.51108 0.57625 0.62255 0.0
H510 H 0.50387 0.6245 0.62787 0.0
H511 H 0.52004 0.62913 0.6056 0.0
H512 H 0.5449 0.64755 0.53651 0.0
H513 H 0.55091 0.62851 0.55462 0.0
H514 H 0.57589 0.62779 0.50384 0.0
H515 H 0.58169 0.60874 0.52195 0.0
H516 H 0.59995 0.54489 0.55528 0.0
H517 H 0.60619 0.5413 0.60377 0.0
H518 H 0.58605 0.55888 0.60875 0.0
H519 H 0.58027 0.56292 0.56041 0.0
C520 C 0.51054 0.4783 0.94252 0.0
C521 C 0.50942 0.49397 0.94059 0.0
C522 C 0.49186 0.488 0.91921 0.0
C523 C 0.50008 0.49877 0.92912 0.0
C524 C 0.49311 0.47232 0.92108 0.0
C525 C 0.50234 0.46752 0.93268 0.0
U526 U 0.5471 0.48402 0.96591 0.0
O527 O 0.55144 0.48229 0.99038 0.0
O528 O 0.56308 0.46771 0.97361 0.0
C529 C 0.56037 0.47096 0.98811 0.0
C530 C 0.52056 0.47313 0.95443 0.0
C531 C 0.55688 0.45783 0.99751 0.0
C532 C 0.54096 0.43514 0.00353 0.0
C533 C 0.54447 0.44716 0.994 0.0
C534 C 0.56228 0.44434 0.02007 0.0
C535 C 0.54976 0.43365 0.01676 0.0
C536 C 0.5658 0.4563 0.01052 0.0
C537 C 0.57468 0.51842 0.95882 0.0
C538 C 0.60009 0.52185 0.97036 0.0
C539 C 0.58943 0.54289 0.9582 0.0
C540 C 0.57612 0.53359 0.95454 0.0
C541 C 0.60155 0.53712 0.96616 0.0
C542 C 0.58672 0.51259 0.96678 0.0
C543 C 0.56044 0.50895 0.95526 0.0
O544 O 0.53373 0.46834 0.94959 0.0
O545 O 0.5219 0.48202 0.967 0.0
O546 O 0.54998 0.50914 0.966 0.0
O547 O 0.56221 0.49516 0.94918 0.0
H548 H 0.51582 0.50253 0.9479 0.0
H549 H 0.49951 0.51092 0.92781 0.0
H550 H 0.48683 0.46377 0.91366 0.0
H551 H 0.50312 0.45539 0.93394 0.0
H552 H 0.53136 0.42701 1.00054 0.0
H553 H 0.53745 0.44821 0.98399 0.0
H554 H 0.56916 0.44371 0.03025 0.0
H555 H 0.57536 0.46452 0.01343 0.0
H556 H 0.60915 0.51716 0.97666 0.0
H557 H 0.5903 0.55455 0.95468 0.0
H558 H 0.56691 0.53826 0.94842 0.0
H559 H 0.58573 0.50093 0.97031 0.0
C560 C 0.70498 0.2818 0.33909 0.0
C561 C 0.70992 0.27471 0.352 0.0
C562 C 0.70881 0.29859 0.36734 0.0
C563 C 0.71174 0.28302 0.36602 0.0
C564 C 0.70408 0.30568 0.35434 0.0
C565 C 0.70214 0.29733 0.34036 0.0
U566 U 0.71528 0.25085 0.30915 0.0
O567 O 0.70008 0.23441 0.29531 0.0
O568 O 0.7155 0.25119 0.28414 0.0
C569 C 0.70403 0.24066 0.2825 0.0
C570 C 0.70252 0.27321 0.3243 0.0
C571 C 0.69115 0.24457 0.27299 0.0
C572 C 0.67235 0.26222 0.2662 0.0
C573 C 0.68482 0.25879 0.27511 0.0
C574 C 0.67235 0.2372 0.25306 0.0
C575 C 0.66592 0.25142 0.25513 0.0
C576 C 0.68487 0.23383 0.2619 0.0
C577 C 0.74921 0.22655 0.31632 0.0
C578 C 0.75317 0.20064 0.30656 0.0
C579 C 0.77489 0.21748 0.31554 0.0
C580 C 0.76505 0.22907 0.31897 0.0
C581 C 0.76906 0.20304 0.30946 0.0
C582 C 0.74335 0.2123 0.3099 0.0
C583 C 0.73907 0.2388 0.32071 0.0
O584 O 0.71332 0.27553 0.31409 0.0
O585 O 0.6976 0.25874 0.32489 0.0
O586 O 0.72476 0.23443 0.32394 0.0
O587 O 0.74032 0.25091 0.31251 0.0
H588 H 0.71232 0.26275 0.35126 0.0
H589 H 0.71558 0.2773 0.3758 0.0
H590 H 0.70161 0.31762 0.35503 0.0
H591 H 0.69831 0.303 0.33053 0.0
H592 H 0.66754 0.27318 0.2682 0.0
H593 H 0.68944 0.26718 0.28374 0.0
H594 H 0.66775 0.2287 0.24452 0.0
H595 H 0.6896 0.22279 0.26013 0.0
H596 H 0.74823 0.18964 0.30205 0.0
H597 H 0.78707 0.21986 0.31767 0.0
H598 H 0.76982 0.24001 0.32384 0.0
H599 H 0.73116 0.21007 0.30767 0.0
C600 C 0.44989 0.10171 0.00572 0.0
C601 C 0.46538 0.10729 0.00606 0.0
C602 C 0.45897 0.12931 0.02225 0.0
C603 C 0.46989 0.12094 0.01432 0.0
C604 C 0.44342 0.12384 0.02159 0.0
C605 C 0.43894 0.11011 0.01342 0.0
U606 U 0.45619 0.07076 0.9748 0.0
O607 O 0.45366 0.04571 0.97555 0.0
O608 O 0.43969 0.05728 0.95958 0.0
C609 C 0.44216 0.04438 0.96579 0.0
C610 C 0.44506 0.08709 0.99754 0.0
C611 C 0.42842 0.03551 0.97095 0.0
C612 C 0.40527 0.03359 0.98627 0.0
C613 C 0.41797 0.04229 0.98089 0.0
C614 C 0.41339 0.01123 0.97186 0.0
C615 C 0.4029 0.01793 0.98189 0.0
C616 C 0.42604 0.01997 0.96643 0.0
C617 C 0.49102 0.07471 0.94891 0.0
C618 C 0.49377 0.05868 0.92576 0.0
C619 C 0.51582 0.07395 0.9365 0.0
C620 C 0.50665 0.07952 0.9483 0.0
C621 C 0.50946 0.06351 0.92508 0.0
C622 C 0.48463 0.06418 0.93762 0.0
C623 C 0.4816 0.08061 0.96145 0.0
O624 O 0.44073 0.08806 0.98331 0.0
O625 O 0.45399 0.0759 0.99941 0.0
O626 O 0.48146 0.07282 0.97381 0.0
O627 O 0.46792 0.08453 0.95757 0.0
H628 H 0.47399 0.10102 1.00004 0.0
H629 H 0.48192 0.12498 0.01448 0.0
H630 H 0.43478 0.12998 0.02768 0.0
H631 H 0.42693 0.10598 0.01324 0.0
H632 H 0.3975 0.03902 0.99411 0.0
H633 H 0.41975 0.05427 0.98462 0.0
H634 H 0.41177 0.99925 0.96815 0.0
H635 H 0.43404 0.01457 0.9588 0.0
H636 H 0.4886 0.05052 0.91721 0.0
H637 H 0.52784 0.07798 0.9362 0.0
H638 H 0.51176 0.08762 0.95694 0.0
H639 H 0.4726 0.0602 0.938 0.0
O640 O 0.24497 0.88396 0.01824 0.0
Cd641 Cd 0.25457 0.89522 0.03758 0.0
Cd642 Cd 0.23618 0.9184 0.02749 0.0
O643 O 0.22982 0.90135 0.01101 0.0
O644 O 0.2647 0.87875 0.04758 0.0
O645 O 0.24606 0.89108 0.05849 0.0
C646 C 0.25573 0.88064 0.05905 0.0
C647 C 0.21717 0.93409 0.03665 0.0
C648 C 0.23509 0.88825 0.00905 0.0
C649 C 0.27091 0.92503 0.0296 0.0
O650 O 0.25784 0.92942 0.02618 0.0
O651 O 0.27208 0.91186 0.03465 0.0
O652 O 0.22279 0.93512 0.02317 0.0
O653 O 0.22212 0.92381 0.04501 0.0
O654 O 0.14923 0.53626 0.27949 0.0
Cd655 Cd 0.13521 0.51719 0.28444 0.0
Cd656 Cd 0.11597 0.52935 0.26394 0.0
O657 O 0.13499 0.54431 0.26124 0.0
O658 O 0.14885 0.50412 0.2953 0.0
O659 O 0.13816 0.49705 0.27296 0.0
C660 C 0.14701 0.49409 0.28406 0.0
C661 C 0.10223 0.52014 0.24207 0.0
C662 C 0.14721 0.54559 0.26923 0.0
C663 C 0.10508 0.52709 0.29641 0.0
O664 O 0.10293 0.53211 0.28334 0.0
O665 O 0.11698 0.5201 0.29905 0.0
O666 O 0.10188 0.53411 0.24733 0.0
O667 O 0.11068 0.51129 0.24915 0.0
O668 O 0.76085 0.6798 0.99663 0.0
Cd669 Cd 0.75242 0.6669 0.01412 0.0
Cd670 Cd 0.77058 0.64595 0.99921 0.0
O671 O 0.77539 0.66344 0.98469 0.0
O672 O 0.74181 0.6822 0.02704 0.0
O673 O 0.76125 0.67021 0.03545 0.0
C674 C 0.75112 0.68006 0.03796 0.0
C675 C 0.79042 0.63295 0.00915 0.0
C676 C 0.7699 0.67649 0.9858 0.0
C677 C 0.73669 0.63706 1.00173 0.0
O678 O 0.7497 0.63348 0.99677 0.0
O679 O 0.73538 0.64979 0.00907 0.0
O680 O 0.78602 0.63062 0.99514 0.0
O681 O 0.78383 0.64314 0.01751 0.0
O682 O 0.90238 0.03379 0.28454 0.0
Cd683 Cd 0.89074 0.03772 0.26481 0.0
Cd684 Cd 0.86989 0.04799 0.28595 0.0
O685 O 0.88674 0.04378 0.30142 0.0
O686 O 0.90662 0.03517 0.24879 0.0
O687 O 0.89581 0.05692 0.25357 0.0
C688 C 0.9056 0.04929 0.24588 0.0
C689 C 0.85808 0.07109 0.28876 0.0
C690 C 0.89903 0.03734 0.2983 0.0
C691 C 0.85972 0.02063 0.26494 0.0
O692 O 0.85665 0.02941 0.27637 0.0
O693 O 0.87256 0.02241 0.2582 0.0
O694 O 0.85499 0.06013 0.29769 0.0
O695 O 0.86816 0.06904 0.2782 0.0
O696 O 0.26075 0.18122 0.49482 0.0
Cd697 Cd 0.25307 0.16778 0.51228 0.0
Cd698 Cd 0.27195 0.14772 0.49694 0.0
O699 O 0.27656 0.16585 0.48325 0.0
O700 O 0.2411 0.18193 0.52526 0.0
O701 O 0.26177 0.17186 0.53362 0.0
C702 C 0.25062 0.18055 0.53622 0.0
C703 C 0.29197 0.13501 0.50693 0.0
C704 C 0.27032 0.17852 0.48426 0.0
C705 C 0.2385 0.13752 0.49916 0.0
O706 O 0.25147 0.13478 0.49348 0.0
O707 O 0.23698 0.14971 0.50735 0.0
O708 O 0.28801 0.13307 0.49276 0.0
O709 O 0.2848 0.14464 0.51544 0.0
O710 O 0.4018 0.53392 0.78457 0.0
Cd711 Cd 0.39002 0.53766 0.76488 0.0
Cd712 Cd 0.36906 0.54768 0.78612 0.0
O713 O 0.38619 0.54393 0.80147 0.0
O714 O 0.40587 0.53509 0.74883 0.0
O715 O 0.39492 0.55679 0.75347 0.0
C716 C 0.40476 0.54917 0.74582 0.0
C717 C 0.35654 0.57037 0.7891 0.0
C718 C 0.39852 0.53756 0.79833 0.0
C719 C 0.35926 0.52006 0.76533 0.0
O720 O 0.35615 0.52876 0.7768 0.0
O721 O 0.37199 0.5221 0.75843 0.0
O722 O 0.35407 0.55942 0.79817 0.0
O723 O 0.36641 0.56856 0.7783 0.0
O724 O 0.74485 0.38393 0.51796 0.0
Cd725 Cd 0.75422 0.39529 0.53734 0.0
Cd726 Cd 0.73536 0.4181 0.52738 0.0
O727 O 0.72928 0.401 0.51085 0.0
O728 O 0.76451 0.37899 0.54744 0.0
O729 O 0.7456 0.39107 0.55818 0.0
C730 C 0.7554 0.38076 0.55883 0.0
C731 C 0.71609 0.43355 0.53643 0.0
C732 C 0.73484 0.38804 0.50881 0.0
C733 C 0.77003 0.42533 0.52951 0.0
O734 O 0.75685 0.42948 0.52613 0.0
O735 O 0.77149 0.41218 0.53447 0.0
O736 O 0.72173 0.4346 0.52296 0.0
O737 O 0.72114 0.42336 0.54483 0.0
O738 O 0.64953 0.03396 0.77925 0.0
Cd739 Cd 0.63676 0.01454 0.78532 0.0
Cd740 Cd 0.61519 0.02617 0.76626 0.0
O741 O 0.63319 0.0423 0.76299 0.0
O742 O 0.65183 1.00235 0.79537 0.0
O743 O 0.63967 0.99427 0.77403 0.0
C744 C 0.64949 0.99194 0.78452 0.0
C745 C 0.60016 0.01725 0.74512 0.0
C746 C 0.64613 0.04364 0.76978 0.0
C747 C 0.607 0.02285 0.79952 0.0
O748 O 0.60333 0.02728 0.78657 0.0
O749 O 0.61976 0.01707 0.80139 0.0
O750 O 0.5993 0.03081 0.75129 0.0
O751 O 0.60995 0.0087 0.75074 0.0
O752 O 0.99046 0.28644 0.9187 0.0
Cd753 Cd 0.9945 0.26694 0.90548 0.0
Cd754 Cd 0.0094 0.28788 0.88753 0.0
O755 O 0.00504 0.30274 0.90582 0.0
O756 O 0.99095 0.2496 0.91905 0.0
O757 O 0.01367 0.2562 0.90927 0.0
C758 C 0.00536 0.24741 0.91785 0.0
C759 C 0.03313 0.29106 0.8752 0.0
C760 C 0.99634 0.29992 0.91708 0.0
C761 C 0.98099 0.26952 0.87468 0.0
O762 O 0.99119 0.28044 0.87331 0.0
O763 O 0.98066 0.26182 0.88653 0.0
O764 O 0.02264 0.30049 0.87387 0.0
O765 O 0.03035 0.27985 0.88396 0.0
O766 O 0.49294 0.78826 0.42011 0.0
Cd767 Cd 0.49648 0.76884 0.40654 0.0
Cd768 Cd 0.51099 0.78987 0.38833 0.0
O769 O 0.50602 0.80487 0.40628 0.0
O770 O 0.49266 0.75142 0.41996 0.0
O771 O 0.51541 0.75761 0.41006 0.0
C772 C 0.50699 0.74891 0.41862 0.0
C773 C 0.53516 0.79305 0.37687 0.0
C774 C 0.49808 0.8019 0.41801 0.0
C775 C 0.48278 0.77138 0.37559 0.0
O776 O 0.49313 0.78209 0.37391 0.0
O777 O 0.48233 0.76404 0.38768 0.0
O778 O 0.52469 0.8024 0.37501 0.0
O779 O 0.53202 0.78184 0.38555 0.0
O780 O 0.99183 0.78156 0.6663 0.0
Cd781 Cd 0.01011 0.77578 0.6527 0.0
Cd782 Cd 0.9959 0.7951 0.63319 0.0
O783 O 0.98191 0.7982 0.65187 0.0
O784 O 0.0225 0.76394 0.66628 0.0
O785 O 0.03146 0.78569 0.65705 0.0
C786 C 0.03363 0.77428 0.66527 0.0
C787 C 0.00476 0.8165 0.62019 0.0
C788 C 0.98186 0.79109 0.66409 0.0
C789 C 0.99805 0.76224 0.6222 0.0
O790 O 0.99258 0.77496 0.61998 0.0
O791 O 0.00585 0.76055 0.63414 0.0
O792 O 0.99064 0.81113 0.61931 0.0
O793 O 0.01396 0.80985 0.62878 0.0
O794 O 0.48989 0.28212 0.16582 0.0
Cd795 Cd 0.50847 0.27612 0.15276 0.0
Cd796 Cd 0.49472 0.29531 0.13268 0.0
O797 O 0.48036 0.29867 0.15103 0.0
O798 O 0.52025 0.26432 0.16691 0.0
O799 O 0.52977 0.28588 0.15769 0.0
C800 C 0.5315 0.27457 0.16618 0.0
C801 C 0.50385 0.31655 0.11955 0.0
C802 C 0.48002 0.29168 0.16333 0.0
C803 C 0.49705 0.26232 0.12214 0.0
O804 O 0.49164 0.27502 0.11967 0.0
O805 O 0.5046 0.26074 0.13426 0.0
O806 O 0.48974 0.31116 0.11847 0.0
O807 O 0.51287 0.31001 0.12842 0.0
C808 C 0.20354 0.80145 0.89618 0.0
C809 C 0.20947 0.80752 0.88275 0.0
C810 C 0.20514 0.8099 0.91014 0.0
C811 C 0.21385 0.84951 0.92675 0.0
H812 H 0.22225 0.82872 0.96332 0.0
C813 C 0.21857 0.88199 0.98577 0.0
C814 C 0.23032 0.87817 0.99551 0.0
C815 C 0.21479 0.87293 0.9725 0.0
C816 C 0.22001 0.83474 0.95321 0.0
H817 H 0.22198 0.8271 0.87347 0.0
H818 H 0.22507 0.84172 0.89781 0.0
H819 H 0.21865 0.81401 0.93913 0.0
H820 H 0.24716 0.86165 0.99901 0.0
H821 H 0.24086 0.84613 0.97579 0.0
H822 H 0.21588 0.87031 0.9407 0.0
C823 C 0.21881 0.8306 0.89755 0.0
C824 C 0.21774 0.82626 0.93934 0.0
C825 C 0.2171 0.8222 0.88359 0.0
C826 C 0.238 0.86491 0.99182 0.0
C827 C 0.23431 0.85593 0.97851 0.0
C828 C 0.21623 0.858 0.9406 0.0
C829 C 0.21282 0.82459 0.91102 0.0
C830 C 0.21474 0.83355 0.9259 0.0
C831 C 0.22276 0.85989 0.96859 0.0
C832 C 0.21945 0.85074 0.954 0.0
H833 H 0.19743 0.79025 0.89586 0.0
H834 H 0.20016 0.80499 0.92021 0.0
H835 H 0.21133 0.8555 0.9167 0.0
H836 H 0.21235 0.89207 0.98831 0.0
H837 H 0.20565 0.87619 0.96528 0.0
C838 C 0.01362 0.56836 0.39361 0.0
C839 C 0.01477 0.56161 0.40765 0.0
C840 C 0.02267 0.56388 0.38127 0.0
C841 C 0.04684 0.53306 0.36682 0.0
H842 H 0.06413 0.56461 0.34135 0.0
C843 C 0.09536 0.52351 0.32298 0.0
C844 C 0.09387 0.52987 0.30875 0.0
C845 C 0.08511 0.52669 0.33478 0.0
C846 C 0.05926 0.55565 0.34826 0.0
H847 H 0.0263 0.54486 0.4198 0.0
H848 H 0.04231 0.53719 0.39836 0.0
H849 H 0.04744 0.57148 0.36245 0.0
H850 H 0.08026 0.54434 0.2957 0.0
H851 H 0.06246 0.54989 0.3163 0.0
H852 H 0.05899 0.51729 0.35271 0.0
C853 C 0.03419 0.54573 0.39675 0.0
C854 C 0.04965 0.55957 0.36034 0.0
C855 C 0.02504 0.55014 0.40906 0.0
C856 C 0.08178 0.53928 0.30652 0.0
C857 C 0.07162 0.54254 0.31835 0.0
C858 C 0.05655 0.52915 0.35478 0.0
C859 C 0.03319 0.55261 0.38273 0.0
C860 C 0.0433 0.54833 0.36977 0.0
C861 C 0.07324 0.53638 0.33264 0.0
C862 C 0.06284 0.54041 0.34536 0.0
H863 H 0.00563 0.57706 0.39212 0.0
H864 H 0.02136 0.5692 0.37056 0.0
H865 H 0.04198 0.52407 0.3737 0.0
H866 H 0.10453 0.51619 0.32508 0.0
H867 H 0.08672 0.52187 0.34571 0.0
C868 C 0.77237 0.77413 0.89135 0.0
C869 C 0.77771 0.76969 0.87679 0.0
C870 C 0.77266 0.76427 0.90328 0.0
C871 C 0.79046 0.73019 0.91614 0.0
H872 H 0.75444 0.72669 0.94188 0.0
C873 C 0.78037 0.68345 0.96021 0.0
C874 C 0.77319 0.68769 0.97398 0.0
C875 C 0.78204 0.69368 0.94854 0.0
C876 C 0.76469 0.72767 0.93496 0.0
H877 H 0.78765 0.75137 0.86342 0.0
H878 H 0.78818 0.73417 0.8843 0.0
H879 H 0.75518 0.74403 0.92121 0.0
H880 H 0.76284 0.7063 0.98654 0.0
H881 H 0.766 0.72413 0.96639 0.0
H882 H 0.79994 0.71375 0.92994 0.0
C883 C 0.78391 0.74536 0.88649 0.0
C884 C 0.7651 0.73762 0.92308 0.0
C885 C 0.7836 0.75523 0.87453 0.0
C886 C 0.76828 0.70258 0.97603 0.0
C887 C 0.77 0.71279 0.96442 0.0
C888 C 0.79006 0.72023 0.92808 0.0
C889 C 0.77831 0.74972 0.90097 0.0
C890 C 0.778 0.73904 0.91356 0.0
C891 C 0.7766 0.70838 0.95041 0.0
C892 C 0.77719 0.7189 0.93767 0.0
H893 H 0.76804 0.78529 0.89358 0.0
H894 H 0.76851 0.76809 0.91437 0.0
H895 H 0.80062 0.73113 0.90909 0.0
H896 H 0.78427 0.67207 0.95825 0.0
H897 H 0.78709 0.68988 0.93786 0.0
C898 C 0.97412 0.00533 0.40932 0.0
C899 C 0.98382 0.99343 0.40621 0.0
C900 C 0.96501 0.0104 0.3978 0.0
C901 C 0.96245 0.01224 0.3563 0.0
H902 H 0.9194 0.0181 0.36363 0.0
C903 C 0.92111 0.02362 0.30763 0.0
C904 C 0.90928 0.03338 0.31073 0.0
C905 C 0.93037 0.01925 0.31937 0.0
C906 C 0.93145 0.01678 0.36144 0.0
H907 H 0.99165 0.97759 0.38858 0.0
H908 H 0.97577 0.98652 0.36839 0.0
H909 H 0.93516 0.00946 0.38394 0.0
H910 H 0.89814 0.0465 0.32863 0.0
H911 H 0.91459 0.03925 0.34908 0.0
H912 H 0.95892 0.01979 0.33392 0.0
C913 C 0.97523 0.9919 0.37976 0.0
C914 C 0.94046 0.01176 0.37308 0.0
C915 C 0.98421 0.98671 0.39133 0.0
C916 C 0.9071 0.03889 0.32585 0.0
C917 C 0.91648 0.03464 0.3376 0.0
C918 C 0.9535 0.01742 0.34471 0.0
C919 C 0.96553 0.0038 0.38288 0.0
C920 C 0.95602 0.00934 0.3706 0.0
C921 C 0.92817 0.02466 0.33454 0.0
C922 C 0.93784 0.01966 0.34708 0.0
H923 H 0.97351 0.01065 0.42071 0.0
H924 H 0.95771 0.01964 0.40051 0.0
H925 H 0.97448 0.01069 0.35414 0.0
H926 H 0.92305 0.01906 0.29613 0.0
H927 H 0.93906 0.01135 0.31657 0.0
C928 C 0.21414 0.25513 0.64991 0.0
C929 C 0.22495 0.2582 0.66174 0.0
C930 C 0.21764 0.24617 0.63691 0.0
C931 C 0.25012 0.2314 0.61481 0.0
H932 H 0.21794 0.20334 0.59674 0.0
C933 C 0.25974 0.189 0.56277 0.0
C934 C 0.24853 0.18867 0.55123 0.0
C935 C 0.25755 0.19687 0.57685 0.0
C936 C 0.22703 0.21117 0.60161 0.0
H937 H 0.24794 0.25427 0.6692 0.0
H938 H 0.25405 0.23846 0.64654 0.0
H939 H 0.21288 0.21824 0.62016 0.0
H940 H 0.22624 0.19628 0.54543 0.0
H941 H 0.22244 0.20983 0.56986 0.0
H942 H 0.26425 0.22421 0.59615 0.0
C943 C 0.24292 0.24318 0.64722 0.0
C944 C 0.22412 0.21976 0.61502 0.0
C945 C 0.23942 0.25222 0.66021 0.0
C946 C 0.23511 0.19628 0.55407 0.0
C947 C 0.23287 0.20398 0.56812 0.0
C948 C 0.25306 0.2227 0.60141 0.0
C949 C 0.23203 0.23997 0.63544 0.0
C950 C 0.23553 0.23018 0.62166 0.0
C951 C 0.24404 0.20436 0.57968 0.0
C952 C 0.24145 0.21269 0.59454 0.0
H953 H 0.20299 0.25981 0.65061 0.0
H954 H 0.2091 0.24425 0.62793 0.0
H955 H 0.25914 0.2394 0.61954 0.0
H956 H 0.27022 0.18326 0.56092 0.0
H957 H 0.26633 0.19692 0.58559 0.0
C958 C 0.48255 0.60482 0.64273 0.0
C959 C 0.49591 0.59696 0.64034 0.0
C960 C 0.47276 0.60157 0.65493 0.0
C961 C 0.47104 0.58205 0.69167 0.0
H962 H 0.42699 0.5804 0.68498 0.0
C963 C 0.42778 0.54891 0.729 0.0
C964 C 0.41484 0.55627 0.73423 0.0
C965 C 0.43759 0.5555 0.71828 0.0
C966 C 0.43926 0.58101 0.68706 0.0
H967 H 0.50961 0.57977 0.64928 0.0
H968 H 0.49231 0.57365 0.67002 0.0
H969 H 0.44441 0.58885 0.66488 0.0
H970 H 0.40196 0.57628 0.73217 0.0
H971 H 0.41905 0.5877 0.71301 0.0
H972 H 0.46583 0.57358 0.71361 0.0
C973 C 0.48948 0.58256 0.66268 0.0
C974 C 0.44927 0.58589 0.67557 0.0
C975 C 0.49932 0.5859 0.65058 0.0
C976 C 0.41185 0.57035 0.72837 0.0
C977 C 0.42158 0.57685 0.7174 0.0
C978 C 0.46105 0.577 0.70305 0.0
C979 C 0.47602 0.59029 0.665 0.0
C980 C 0.46531 0.58625 0.67763 0.0
C981 C 0.43461 0.56952 0.71235 0.0
C982 C 0.44507 0.57621 0.70078 0.0
H983 H 0.47945 0.61331 0.63501 0.0
H984 H 0.46262 0.6079 0.65645 0.0
H985 H 0.48329 0.58254 0.69385 0.0
H986 H 0.43044 0.53807 0.73331 0.0
H987 H 0.44744 0.54951 0.71446 0.0
C988 C 0.77143 0.28527 0.65232 0.0
C989 C 0.76527 0.28772 0.66694 0.0
C990 C 0.76985 0.29583 0.6412 0.0
C991 C 0.76083 0.33591 0.63567 0.0
H992 H 0.75417 0.32016 0.59388 0.0
C993 C 0.7475 0.37366 0.58525 0.0
C994 C 0.75607 0.37092 0.57195 0.0
C995 C 0.74806 0.36399 0.59739 0.0
C996 C 0.7561 0.32474 0.60549 0.0
H997 H 0.75264 0.30319 0.6814 0.0
H998 H 0.74961 0.32155 0.66188 0.0
H999 H 0.75608 0.30241 0.614 0.0
H1000 H 0.77202 0.35593 0.56103 0.0
H1001 H 0.77286 0.33909 0.58204 0.0
H1002 H 0.76066 0.35829 0.62699 0.0
C1003 C 0.75592 0.31159 0.65907 0.0
C1004 C 0.75726 0.31457 0.61703 0.0
C1005 C 0.75762 0.30106 0.67026 0.0
C1006 C 0.76525 0.35838 0.57109 0.0
C1007 C 0.76568 0.34866 0.5831 0.0
C1008 C 0.75952 0.34611 0.62409 0.0
C1009 C 0.76192 0.30905 0.64435 0.0
C1010 C 0.7599 0.32 0.63225 0.0
C1011 C 0.75703 0.35129 0.59634 0.0
C1012 C 0.75738 0.34061 0.60885 0.0
H1013 H 0.77762 0.27523 0.64951 0.0
H1014 H 0.77496 0.29365 0.63013 0.0
H1015 H 0.76299 0.34052 0.64722 0.0
H1016 H 0.74034 0.38325 0.58626 0.0
H1017 H 0.74124 0.36625 0.60745 0.0
C1018 C 0.51698 0.96846 0.63703 0.0
C1019 C 0.50468 0.97772 0.63513 0.0
C1020 C 0.5272 0.97141 0.64929 0.0
C1021 C 0.53149 0.99249 0.68713 0.0
H1022 H 0.57504 0.98897 0.68025 0.0
C1023 C 0.57769 0.02046 0.72829 0.0
C1024 C 0.58975 0.01167 0.73237 0.0
C1025 C 0.56739 0.01517 0.71671 0.0
C1026 C 0.56289 0.98982 0.68238 0.0
H1027 H 0.49337 0.99719 0.64488 0.0
H1028 H 0.51145 1.00264 0.66588 0.0
H1029 H 0.55675 0.98193 0.65955 0.0
H1030 H 0.60059 0.99052 0.7273 0.0
H1031 H 0.58259 0.98133 0.70678 0.0
H1032 H 0.53772 1.0008 0.70983 0.0
C1033 C 0.51307 0.99292 0.65806 0.0
C1034 C 0.55239 0.98576 0.67054 0.0
C1035 C 0.5028 0.98993 0.64586 0.0
C1036 C 0.59141 0.99754 0.72442 0.0
C1037 C 0.58115 0.99231 0.71266 0.0
C1038 C 0.54199 0.99666 0.6989 0.0
C1039 C 0.52543 0.98373 0.65991 0.0
C1040 C 0.53656 0.98722 0.67272 0.0
C1041 C 0.56895 1.00102 0.70881 0.0
C1042 C 0.55781 0.99555 0.69659 0.0
H1043 H 0.51891 0.95908 0.6289 0.0
H1044 H 0.53647 0.96398 0.65044 0.0
H1045 H 0.51938 0.99343 0.68935 0.0
H1046 H 0.57607 0.0314 0.73417 0.0
H1047 H 0.55824 0.02224 0.71385 0.0
C1048 C 0.86979 0.24441 0.78828 0.0
C1049 C 0.86794 0.25627 0.77844 0.0
C1050 C 0.88222 0.24515 0.79843 0.0
C1051 C 0.91135 0.27296 0.81717 0.0
H1052 H 0.93179 0.2366 0.82593 0.0
C1053 C 0.96807 0.27639 0.8508 0.0
C1054 C 0.96891 0.26649 0.86278 0.0
C1055 C 0.95603 0.27442 0.84025 0.0
C1056 C 0.92611 0.24682 0.82367 0.0
H1057 H 0.87784 0.27824 0.77164 0.0
H1058 H 0.89973 0.27926 0.78884 0.0
H1059 H 0.91027 0.23463 0.80793 0.0
H1060 H 0.95799 0.24639 0.87271 0.0
H1061 H 0.93696 0.2429 0.85412 0.0
H1062 H 0.92732 0.28516 0.83273 0.0
C1063 C 0.89142 0.26949 0.78895 0.0
C1064 C 0.91375 0.2457 0.81339 0.0
C1065 C 0.87895 0.2688 0.77889 0.0
C1066 C 0.95767 0.25424 0.86364 0.0
C1067 C 0.94566 0.2522 0.85298 0.0
C1068 C 0.92375 0.27408 0.82732 0.0
C1069 C 0.89317 0.25775 0.79895 0.0
C1070 C 0.90624 0.25879 0.80997 0.0
C1071 C 0.94458 0.26244 0.84133 0.0
C1072 C 0.93131 0.26105 0.83064 0.0
H1073 H 0.86167 0.23447 0.78811 0.0
H1074 H 0.88309 0.23596 0.80604 0.0
H1075 H 0.90565 0.28322 0.81512 0.0
H1076 H 0.97654 0.28591 0.84973 0.0
H1077 H 0.95561 0.28235 0.83126 0.0
C1078 C 0.46081 0.91651 0.49033 0.0
C1079 C 0.45338 0.91422 0.5043 0.0
C1080 C 0.46609 0.90416 0.48163 0.0
C1081 C 0.46034 0.86243 0.47499 0.0
H1082 H 0.50079 0.86636 0.45675 0.0
C1083 C 0.48626 0.81143 0.44248 0.0
C1084 C 0.49421 0.81452 0.42894 0.0
C1085 C 0.4819 0.82338 0.45236 0.0
C1086 C 0.4894 0.86511 0.46162 0.0
H1087 H 0.44545 0.89714 0.51997 0.0
H1088 H 0.4547 0.87554 0.50475 0.0
H1089 H 0.49171 0.88763 0.47245 0.0
H1090 H 0.50396 0.83266 0.4153 0.0
H1091 H 0.49612 0.85344 0.43235 0.0
H1092 H 0.45787 0.84003 0.46396 0.0
C1093 C 0.45642 0.8869 0.50054 0.0
C1094 C 0.48421 0.87731 0.47063 0.0
C1095 C 0.45124 0.89928 0.50931 0.0
C1096 C 0.49791 0.82984 0.42566 0.0
C1097 C 0.49348 0.84179 0.43549 0.0
C1098 C 0.46549 0.85026 0.4659 0.0
C1099 C 0.46396 0.88922 0.48664 0.0
C1100 C 0.4696 0.87613 0.47735 0.0
C1101 C 0.48531 0.83872 0.44891 0.0
C1102 C 0.48006 0.85147 0.45904 0.0
H1103 H 0.46276 0.9279 0.48624 0.0
H1104 H 0.47172 0.90629 0.47089 0.0
H1105 H 0.44895 0.86124 0.47987 0.0
H1106 H 0.4833 0.79976 0.44541 0.0
H1107 H 0.47585 0.82059 0.46271 0.0
C1108 C 0.13894 0.31856 0.78813 0.0
C1109 C 0.15336 0.31329 0.79131 0.0
C1110 C 0.12634 0.3151 0.79743 0.0
C1111 C 0.11588 0.30213 0.8359 0.0
H1112 H 0.07536 0.29559 0.81751 0.0
C1113 C 0.06003 0.28408 0.86908 0.0
C1114 C 0.04756 0.29288 0.8664 0.0
C1115 C 0.07339 0.28568 0.86027 0.0
C1116 C 0.0866 0.29743 0.82281 0.0
H1117 H 0.16583 0.30007 0.80663 0.0
H1118 H 0.14373 0.29369 0.82273 0.0
H1119 H 0.09774 0.29965 0.80132 0.0
H1120 H 0.03936 0.31029 0.85244 0.0
H1121 H 0.06248 0.31289 0.83707 0.0
H1122 H 0.10455 0.29969 0.85741 0.0
C1123 C 0.14222 0.3008 0.81323 0.0
C1124 C 0.09945 0.29984 0.81355 0.0
C1125 C 0.15488 0.30441 0.80398 0.0
C1126 C 0.04875 0.30333 0.85482 0.0
C1127 C 0.06196 0.30477 0.84593 0.0
C1128 C 0.103 0.29953 0.84517 0.0
C1129 C 0.12777 0.30612 0.81008 0.0
C1130 C 0.11424 0.30251 0.81997 0.0
C1131 C 0.07439 0.29592 0.84849 0.0
C1132 C 0.08822 0.29743 0.83872 0.0
H1133 H 0.13747 0.32565 0.77859 0.0
H1134 H 0.11552 0.31971 0.79483 0.0
H1135 H 0.12705 0.30429 0.84128 0.0
H1136 H 0.05946 0.27594 0.87793 0.0
H1137 H 0.08282 0.27869 0.86245 0.0
C1138 C 0.55321 0.64559 0.49211 0.0
C1139 C 0.5559 0.65035 0.50749 0.0
C1140 C 0.54903 0.65596 0.4816 0.0
C1141 C 0.54939 0.69724 0.47499 0.0
H1142 H 0.51576 0.6845 0.44718 0.0
C1143 C 0.52947 0.73567 0.42811 0.0
C1144 C 0.51351 0.73676 0.42713 0.0
C1145 C 0.5355 0.72473 0.43701 0.0
C1146 C 0.52517 0.68823 0.45487 0.0
H1147 H 0.55665 0.66987 0.52379 0.0
H1148 H 0.54921 0.68797 0.50546 0.0
H1149 H 0.52473 0.66645 0.46474 0.0
H1150 H 0.49136 0.72698 0.43443 0.0
H1151 H 0.50183 0.70794 0.44981 0.0
H1152 H 0.54957 0.71914 0.46531 0.0
C1153 C 0.55042 0.6762 0.50152 0.0
C1154 C 0.5304 0.67785 0.46484 0.0
C1155 C 0.55451 0.6658 0.51206 0.0
C1156 C 0.50371 0.72646 0.43493 0.0
C1157 C 0.50971 0.71548 0.4437 0.0
C1158 C 0.54421 0.7076 0.46493 0.0
C1159 C 0.54751 0.67138 0.48619 0.0
C1160 C 0.54247 0.68227 0.47513 0.0
C1161 C 0.52567 0.71456 0.44496 0.0
C1162 C 0.53192 0.70327 0.45489 0.0
H1163 H 0.55404 0.63374 0.48823 0.0
H1164 H 0.547 0.6519 0.46985 0.0
H1165 H 0.55881 0.70094 0.48267 0.0
H1166 H 0.53733 0.74346 0.42225 0.0
H1167 H 0.54785 0.72422 0.43766 0.0
C1168 C 0.8706 0.81202 0.74667 0.0
C1169 C 0.86832 0.80126 0.75789 0.0
C1170 C 0.88298 0.81133 0.73659 0.0
C1171 C 0.91108 0.78483 0.721 0.0
H1172 H 0.93354 0.82213 0.70941 0.0
C1173 C 0.96808 0.78406 0.68804 0.0
C1174 C 0.96963 0.79339 0.67554 0.0
C1175 C 0.95596 0.7855 0.69828 0.0
C1176 C 0.9273 0.81163 0.71246 0.0
H1177 H 0.87722 0.78121 0.76712 0.0
H1178 H 0.89899 0.78032 0.74994 0.0
H1179 H 0.9118 0.82363 0.72679 0.0
H1180 H 0.95984 0.81185 0.66427 0.0
H1181 H 0.93871 0.81439 0.68222 0.0
H1182 H 0.92669 0.77284 0.7068 0.0
C1183 C 0.89111 0.78917 0.74875 0.0
C1184 C 0.91481 0.81248 0.72238 0.0
C1185 C 0.87872 0.78981 0.75876 0.0
C1186 C 0.95898 0.80447 0.67376 0.0
C1187 C 0.94691 0.80598 0.68408 0.0
C1188 C 0.92361 0.78399 0.71117 0.0
C1189 C 0.89339 0.7999 0.73751 0.0
C1190 C 0.90656 0.79908 0.7268 0.0
C1191 C 0.94515 0.79637 0.69633 0.0
C1192 C 0.93188 0.79737 0.70682 0.0
H1193 H 0.86292 0.82109 0.74576 0.0
H1194 H 0.88428 0.81968 0.72797 0.0
H1195 H 0.90483 0.77429 0.72389 0.0
H1196 H 0.97608 0.77543 0.68979 0.0
H1197 H 0.95502 0.77808 0.70773 0.0
C1198 C 0.05715 0.91442 0.53548 0.0
C1199 C 0.04563 0.92191 0.52831 0.0
C1200 C 0.05332 0.90333 0.54594 0.0
C1201 C 0.0217 0.89002 0.57116 0.0
H1202 H 0.04368 0.85319 0.57172 0.0
C1203 C 0.99951 0.83744 0.60319 0.0
C1204 C 0.01017 0.82957 0.61114 0.0
C1205 C 0.00445 0.84924 0.59395 0.0
C1206 C 0.03758 0.86351 0.57185 0.0
H1207 H 0.02101 0.92348 0.52649 0.0
H1208 H 0.01432 0.90386 0.54436 0.0
H1209 H 0.05097 0.8724 0.55349 0.0
H1210 H 0.03441 0.82806 0.61578 0.0
H1211 H 0.04307 0.84876 0.59954 0.0
H1212 H 0.00815 0.88102 0.58935 0.0
C1213 C 0.02635 0.90675 0.5421 0.0
C1214 C 0.04174 0.87453 0.56139 0.0
C1215 C 0.03018 0.91786 0.53168 0.0
C1216 C 0.02591 0.83392 0.60981 0.0
C1217 C 0.03088 0.84569 0.60044 0.0
C1218 C 0.01751 0.879 0.58156 0.0
C1219 C 0.03787 0.89942 0.54946 0.0
C1220 C 0.03376 0.88786 0.56083 0.0
C1221 C 0.02018 0.85343 0.59235 0.0
C1222 C 0.0253 0.86556 0.58194 0.0
H1223 H 0.06917 0.91711 0.53302 0.0
H1224 H 0.0625 0.89801 0.55146 0.0
H1225 H 0.01552 0.9003 0.57128 0.0
H1226 H 0.98729 0.83438 0.60395 0.0
H1227 H 0.99593 0.85484 0.58773 0.0
C1228 C 0.14316 0.74254 0.74029 0.0
C1229 C 0.15464 0.7541 0.74435 0.0
C1230 C 0.13086 0.74551 0.73099 0.0
C1231 C 0.10942 0.77697 0.71706 0.0
H1232 H 0.09379 0.74531 0.68735 0.0
C1233 C 0.05982 0.78496 0.67436 0.0
C1234 C 0.04833 0.77285 0.67333 0.0
C1235 C 0.07354 0.78343 0.68227 0.0
C1236 C 0.09799 0.75424 0.69563 0.0
H1237 H 0.16222 0.77788 0.74176 0.0
H1238 H 0.14079 0.78306 0.72535 0.0
H1239 H 0.11635 0.74128 0.70254 0.0
H1240 H 0.0423 0.74965 0.67971 0.0
H1241 H 0.06612 0.747 0.69333 0.0
H1242 H 0.09095 0.7899 0.71007 0.0
C1243 C 0.14119 0.77173 0.72956 0.0
C1244 C 0.11089 0.75192 0.70439 0.0
C1245 C 0.15348 0.76876 0.73895 0.0
C1246 C 0.0509 0.7592 0.68026 0.0
C1247 C 0.06461 0.75763 0.688 0.0
C1248 C 0.09653 0.77933 0.70821 0.0
C1249 C 0.12975 0.76012 0.72542 0.0
C1250 C 0.11662 0.76312 0.71542 0.0
C1251 C 0.07609 0.76971 0.68912 0.0
C1252 C 0.09053 0.76787 0.69759 0.0
H1253 H 0.14355 0.7312 0.7445 0.0
H1254 H 0.1221 0.73638 0.72834 0.0
H1255 H 0.11342 0.78579 0.72553 0.0
H1256 H 0.05817 0.79563 0.66916 0.0
H1257 H 0.08223 0.79291 0.68289 0.0
C1258 C 0.95516 0.65703 0.53094 0.0
C1259 C 0.96368 0.64404 0.53108 0.0
C1260 C 0.95959 0.67015 0.54009 0.0
C1261 C 0.98054 0.68242 0.57527 0.0
H1262 H 0.98138 0.72295 0.55968 0.0
C1263 C 1.00293 0.73582 0.61193 0.0
C1264 C 0.99505 0.74915 0.61096 0.0
C1265 C 0.99975 0.72328 0.60163 0.0
C1266 C 0.98102 0.71173 0.56427 0.0
H1267 H 0.98349 0.63461 0.54089 0.0
H1268 H 0.99121 0.65752 0.55689 0.0
H1269 H 0.97444 0.70054 0.5427 0.0
H1270 H 0.97769 0.75977 0.59834 0.0
H1271 H 0.97186 0.73776 0.58065 0.0
H1272 H 0.98674 0.69348 0.5969 0.0
C1273 C 0.98111 0.65754 0.54971 0.0
C1274 C 0.97709 0.69891 0.55452 0.0
C1275 C 0.97678 0.64449 0.54045 0.0
C1276 C 0.98403 0.7497 0.59936 0.0
C1277 C 0.98074 0.7371 0.58915 0.0
C1278 C 0.98433 0.69522 0.58505 0.0
C1279 C 0.97252 0.67048 0.54968 0.0
C1280 C 0.97683 0.68412 0.55992 0.0
C1281 C 0.9885 0.72368 0.59021 0.0
C1282 C 0.98464 0.71006 0.57968 0.0
H1283 H 0.94507 0.65704 0.52375 0.0
H1284 H 0.95269 0.67993 0.53992 0.0
H1285 H 0.98021 0.67117 0.5798 0.0
H1286 H 0.01159 0.73506 0.62064 0.0
H1287 H 0.00617 0.71326 0.60262 0.0
C1288 C 0.78515 0.90324 0.21976 0.0
C1289 C 0.77411 0.89738 0.22997 0.0
C1290 C 0.79342 0.91726 0.22311 0.0
C1291 C 0.80486 0.94441 0.25565 0.0
H1292 H 0.81654 0.97171 0.22373 0.0
C1293 C 0.83552 0.00411 0.26879 0.0
C1294 C 0.84856 0.00779 0.25994 0.0
C1295 C 0.82558 0.99133 0.26471 0.0
C1296 C 0.81342 0.96416 0.23274 0.0
H1297 H 0.76304 0.90188 0.25172 0.0
H1298 H 0.77703 0.92655 0.2573 0.0
H1299 H 0.80058 0.9482 0.21747 0.0
H1300 H 0.86105 1.00116 0.23956 0.0
H1301 H 0.84361 0.97891 0.23241 0.0
H1302 H 0.81763 0.96043 0.27092 0.0
C1303 C 0.77953 0.92015 0.24681 0.0
C1304 C 0.80432 0.95065 0.22917 0.0
C1305 C 0.77134 0.90607 0.2435 0.0
C1306 C 0.85114 0.99864 0.24665 0.0
C1307 C 0.84111 0.98593 0.24251 0.0
C1308 C 0.81384 0.95795 0.25924 0.0
C1309 C 0.79078 0.92587 0.23672 0.0
C1310 C 0.8 0.94054 0.24056 0.0
C1311 C 0.82835 0.98201 0.25162 0.0
C1312 C 0.81831 0.96793 0.24781 0.0
H1313 H 0.78744 0.89699 0.20912 0.0
H1314 H 0.80209 0.9212 0.21514 0.0
H1315 H 0.80203 0.93679 0.26469 0.0
H1316 H 0.83315 0.0109 0.27908 0.0
H1317 H 0.81573 0.9887 0.27186 0.0
C1318 C 0.79156 0.18851 0.31674 0.0
C1319 C 0.77945 0.19042 0.30659 0.0
C1320 C 0.80103 0.17643 0.31436 0.0
C1321 C 0.81274 0.14718 0.28517 0.0
H1322 H 0.82468 0.12644 0.32068 0.0
C1323 C 0.85374 0.09778 0.2814 0.0
C1324 C 0.85005 0.0854 0.29055 0.0
C1325 C 0.84589 0.11115 0.28315 0.0
C1326 C 0.82138 0.13202 0.31061 0.0
H1327 H 0.76813 0.1812 0.28572 0.0
H1328 H 0.78431 0.15984 0.28186 0.0
H1329 H 0.80935 0.14841 0.32389 0.0
H1330 H 0.83513 0.07733 0.30862 0.0
H1331 H 0.82136 0.10038 0.31146 0.0
H1332 H 0.82432 0.13036 0.27186 0.0
C1333 C 0.78663 0.16784 0.29156 0.0
C1334 C 0.81274 0.14479 0.31247 0.0
C1335 C 0.7772 0.17999 0.29389 0.0
C1336 C 0.83836 0.08668 0.30144 0.0
C1337 C 0.8305 0.09997 0.30315 0.0
C1338 C 0.82134 0.13434 0.2833 0.0
C1339 C 0.79861 0.16583 0.30183 0.0
C1340 C 0.80823 0.1525 0.29978 0.0
C1341 C 0.83417 0.1124 0.29407 0.0
C1342 C 0.82566 0.12651 0.296 0.0
H1343 H 0.79356 0.19617 0.32674 0.0
H1344 H 0.81026 0.17539 0.3224 0.0
H1345 H 0.80964 0.15294 0.27514 0.0
H1346 H 0.86271 0.09716 0.27292 0.0
H1347 H 0.84912 0.12056 0.27607 0.0
C1348 C 0.39157 0.99387 0.99289 0.0
C1349 C 0.38965 0.00856 0.98791 0.0
C1350 C 0.37912 0.98503 0.99855 0.0
C1351 C 0.33987 0.98771 0.0142 0.0
H1352 H 0.33554 0.94431 1.00268 0.0
C1353 C 0.28372 0.95 0.02219 0.0
C1354 C 0.28492 0.9351 0.02698 0.0
C1355 C 0.29686 0.95917 0.0187 0.0
C1356 C 0.33669 0.95637 0.00617 0.0
H1357 H 0.37312 0.02545 0.98485 0.0
H1358 H 0.35133 0.00996 0.99456 0.0
H1359 H 0.35768 0.95986 0.99388 0.0
H1360 H 0.30096 0.91832 0.03222 0.0
H1361 H 0.3239 0.93436 0.02614 0.0
H1362 H 0.31869 0.9842 0.02626 0.0
C1363 C 0.36253 0.00537 0.99437 0.0
C1364 C 0.34939 0.9653 1.00113 0.0
C1365 C 0.375 0.01424 0.98877 0.0
C1366 C 0.2996 0.92972 0.02854 0.0
C1367 C 0.31275 0.93887 0.02497 0.0
C1368 C 0.32713 0.97878 0.01918 0.0
C1369 C 0.36443 0.99064 0.99931 0.0
C1370 C 0.3511 0.98109 0.00502 0.0
C1371 C 0.31151 0.95363 0.01985 0.0
C1372 C 0.32536 0.96303 0.01516 0.0
H1373 H 0.40277 0.98928 0.9926 0.0
H1374 H 0.38106 0.97385 1.00249 0.0
H1375 H 0.34095 0.99978 0.01762 0.0
H1376 H 0.2726 0.95453 0.02088 0.0
H1377 H 0.29551 0.97044 0.01466 0.0
C1378 C 0.23178 0.39026 0.29617 0.0
C1379 C 0.23466 0.38141 0.28279 0.0
C1380 C 0.22143 0.40167 0.29608 0.0
C1381 C 0.18904 0.41537 0.27484 0.0
H1382 H 0.20195 0.45427 0.29569 0.0
C1383 C 0.15592 0.47028 0.27056 0.0
C1384 C 0.15533 0.47995 0.28383 0.0
C1385 C 0.16485 0.45761 0.27021 0.0
C1386 C 0.19805 0.44343 0.28998 0.0
H1387 H 0.22854 0.37732 0.2589 0.0
H1388 H 0.21051 0.3974 0.25871 0.0
H1389 H 0.21878 0.43337 0.29557 0.0
H1390 H 0.16309 0.4835 0.30732 0.0
H1391 H 0.1783 0.46137 0.3068 0.0
H1392 H 0.16824 0.42549 0.26931 0.0
C1393 C 0.21626 0.39543 0.26929 0.0
C1394 C 0.20772 0.43144 0.2899 0.0
C1395 C 0.22669 0.38404 0.26937 0.0
C1396 C 0.16342 0.47639 0.29685 0.0
C1397 C 0.17223 0.46374 0.29653 0.0
C1398 C 0.17929 0.42738 0.27497 0.0
C1399 C 0.21367 0.40451 0.28261 0.0
C1400 C 0.20331 0.41724 0.28243 0.0
C1401 C 0.17331 0.45434 0.28314 0.0
C1402 C 0.18365 0.44154 0.28264 0.0
H1403 H 0.23783 0.38864 0.30667 0.0
H1404 H 0.21955 0.40834 0.30657 0.0
H1405 H 0.18528 0.40452 0.26906 0.0
H1406 H 0.14983 0.47274 0.26034 0.0
H1407 H 0.16548 0.45067 0.25968 0.0
C1408 C 0.11904 0.05563 0.48178 0.0
C1409 C 0.1187 0.04532 0.46894 0.0
C1410 C 0.13213 0.06535 0.48515 0.0
C1411 C 0.17373 0.06987 0.47897 0.0
H1412 H 0.16887 0.11286 0.4889 0.0
C1413 C 0.22567 0.11456 0.48483 0.0
C1414 C 0.22502 0.12655 0.49605 0.0
C1415 C 0.21281 0.10445 0.48163 0.0
C1416 C 0.17045 0.10085 0.48638 0.0
H1417 H 0.13185 0.03688 0.44974 0.0
H1418 H 0.1548 0.05386 0.45569 0.0
H1419 H 0.14628 0.0955 0.48327 0.0
H1420 H 0.21041 0.13712 0.51295 0.0
H1421 H 0.18815 0.11928 0.50768 0.0
H1422 H 0.19786 0.07511 0.48231 0.0
C1423 C 0.14493 0.05442 0.46311 0.0
C1424 C 0.15749 0.09093 0.48311 0.0
C1425 C 0.13177 0.0448 0.45964 0.0
C1426 C 0.21127 0.12808 0.50415 0.0
C1427 C 0.19846 0.11789 0.50105 0.0
C1428 C 0.1867 0.07977 0.48239 0.0
C1429 C 0.1452 0.06486 0.47585 0.0
C1430 C 0.15899 0.07534 0.47935 0.0
C1431 C 0.19902 0.10601 0.48967 0.0
C1432 C 0.18523 0.0954 0.48612 0.0
H1433 H 0.10909 0.05637 0.48908 0.0
H1434 H 0.13206 0.07321 0.49511 0.0
H1435 H 0.17521 0.05788 0.47628 0.0
H1436 H 0.23605 0.11311 0.47832 0.0
H1437 H 0.21361 0.09559 0.47264 0.0
C1438 C 0.74318 0.15113 0.76485 0.0
C1439 C 0.74197 0.16093 0.75284 0.0
C1440 C 0.73256 0.13863 0.76632 0.0
C1441 C 0.7033 0.11343 0.74466 0.0
H1442 H 0.69029 0.10251 0.78508 0.0
C1443 C 0.65435 0.06699 0.75568 0.0
C1444 C 0.65718 0.05683 0.76704 0.0
C1445 C 0.66455 0.07972 0.75352 0.0
C1446 C 0.69391 0.10534 0.77373 0.0
H1447 H 0.72854 0.16515 0.7329 0.0
H1448 H 0.70971 0.1436 0.73573 0.0
H1449 H 0.70802 0.12488 0.78223 0.0
H1450 H 0.67307 0.05204 0.78489 0.0
H1451 H 0.69078 0.07423 0.78112 0.0
H1452 H 0.68898 0.09391 0.73621 0.0
C1453 C 0.71906 0.14546 0.74389 0.0
C1454 C 0.7041 0.11815 0.77208 0.0
C1455 C 0.72976 0.15795 0.74238 0.0
C1456 C 0.67051 0.05962 0.77605 0.0
C1457 C 0.68062 0.0724 0.77397 0.0
C1458 C 0.693 0.10066 0.74631 0.0
C1459 C 0.72034 0.13564 0.75588 0.0
C1460 C 0.70905 0.12229 0.75754 0.0
C1461 C 0.67772 0.08263 0.76275 0.0
C1462 C 0.68831 0.09641 0.76088 0.0
H1463 H 0.7523 0.15318 0.77325 0.0
H1464 H 0.73404 0.13121 0.77557 0.0
H1465 H 0.707 0.11615 0.7333 0.0
H1466 H 0.6442 0.06517 0.74852 0.0
H1467 H 0.66197 0.08746 0.74484 0.0
C1468 C 0.38219 0.04306 0.54371 0.0
C1469 C 0.38999 0.046 0.55769 0.0
C1470 C 0.3716 0.05301 0.53887 0.0
C1471 C 0.35951 0.09261 0.54545 0.0
H1472 H 0.32327 0.07582 0.52308 0.0
C1473 C 0.30916 0.12855 0.52831 0.0
C1474 C 0.30386 0.12585 0.51321 0.0
C1475 C 0.31982 0.11925 0.53431 0.0
C1476 C 0.33338 0.08068 0.52924 0.0
H1477 H 0.39275 0.06188 0.57751 0.0
H1478 H 0.37387 0.07889 0.56935 0.0
H1479 H 0.34123 0.05863 0.5327 0.0
H1480 H 0.30578 0.11142 0.49252 0.0
H1481 H 0.3242 0.09523 0.50299 0.0
H1482 H 0.3514 0.11471 0.54211 0.0
C1483 C 0.37614 0.06902 0.56197 0.0
C1484 C 0.34373 0.07084 0.53471 0.0
C1485 C 0.38683 0.05912 0.56676 0.0
C1486 C 0.30959 0.11382 0.5042 0.0
C1487 C 0.32008 0.10446 0.51022 0.0
C1488 C 0.34905 0.10247 0.54009 0.0
C1489 C 0.36839 0.06611 0.54794 0.0
C1490 C 0.35704 0.07666 0.54272 0.0
C1491 C 0.32522 0.10698 0.52537 0.0
C1492 C 0.33598 0.09661 0.53176 0.0
H1493 H 0.38414 0.03298 0.5365 0.0
H1494 H 0.36605 0.05048 0.5279 0.0
H1495 H 0.36971 0.09754 0.5514 0.0
H1496 H 0.30496 0.13773 0.53555 0.0
H1497 H 0.32355 0.12142 0.54604 0.0
C1498 C 0.62705 0.5324 0.56396 0.0
C1499 C 0.61662 0.53048 0.57602 0.0
C1500 C 0.63806 0.52186 0.56087 0.0
C1501 C 0.64707 0.48206 0.56759 0.0
H1502 H 0.68732 0.49624 0.55321 0.0
C1503 C 0.69698 0.44222 0.55598 0.0
C1504 C 0.70458 0.44412 0.54203 0.0
C1505 C 0.68638 0.45257 0.56119 0.0
C1506 C 0.6761 0.4921 0.55716 0.0
H1507 H 0.60967 0.51581 0.59427 0.0
H1508 H 0.62921 0.49774 0.5892 0.0
H1509 H 0.66881 0.51477 0.56052 0.0
H1510 H 0.70696 0.45836 0.52261 0.0
H1511 H 0.68865 0.47634 0.53172 0.0
H1512 H 0.65454 0.45935 0.56427 0.0
C1513 C 0.6287 0.50728 0.58196 0.0
C1514 C 0.66545 0.50272 0.5613 0.0
C1515 C 0.61761 0.51778 0.585 0.0
C1516 C 0.70133 0.45654 0.53341 0.0
C1517 C 0.6909 0.46693 0.53867 0.0
C1518 C 0.6578 0.47144 0.56357 0.0
C1519 C 0.63905 0.50915 0.56982 0.0
C1520 C 0.6507 0.49784 0.56633 0.0
C1521 C 0.68335 0.46511 0.55263 0.0
C1522 C 0.67234 0.47634 0.55807 0.0
H1523 H 0.62678 0.54212 0.55691 0.0
H1524 H 0.64567 0.52359 0.55129 0.0
H1525 H 0.63577 0.47786 0.57125 0.0
H1526 H 0.69925 0.43277 0.56288 0.0
H1527 H 0.68074 0.45093 0.57202 0.0
C1528 C 0.71801 0.32219 0.38313 0.0
C1529 C 0.7106 0.30741 0.38224 0.0
C1530 C 0.71963 0.33055 0.39712 0.0
C1531 C 0.71865 0.32605 0.43889 0.0
H1532 H 0.71596 0.37001 0.4404 0.0
C1533 C 0.7382 0.36485 0.4915 0.0
C1534 C 0.73026 0.37793 0.49523 0.0
C1535 C 0.73468 0.35586 0.47816 0.0
C1536 C 0.71655 0.35772 0.44025 0.0
H1537 H 0.69886 0.2899 0.39529 0.0
H1538 H 0.70143 0.30456 0.41969 0.0
H1539 H 0.7117 0.35522 0.41634 0.0
H1540 H 0.712 0.39149 0.48808 0.0
H1541 H 0.70559 0.37559 0.46498 0.0
H1542 H 0.72312 0.32851 0.46288 0.0
C1543 C 0.70631 0.30959 0.40964 0.0
C1544 C 0.71433 0.34925 0.42638 0.0
C1545 C 0.70481 0.30119 0.39565 0.0
C1546 C 0.71841 0.38156 0.4855 0.0
C1547 C 0.71481 0.37249 0.4722 0.0
C1548 C 0.72076 0.33451 0.45279 0.0
C1549 C 0.71375 0.32439 0.41056 0.0
C1550 C 0.71552 0.33332 0.42547 0.0
C1551 C 0.72303 0.35963 0.46825 0.0
C1552 C 0.7199 0.35048 0.45363 0.0
H1553 H 0.72278 0.32721 0.37301 0.0
H1554 H 0.7257 0.34176 0.39741 0.0
H1555 H 0.7198 0.31384 0.43864 0.0
H1556 H 0.74744 0.36174 0.49868 0.0
H1557 H 0.74142 0.34621 0.47542 0.0
C1558 C 0.53393 0.05318 0.91542 0.0
C1559 C 0.51917 0.05777 0.91245 0.0
C1560 C 0.54321 0.0481 0.9035 0.0
C1561 C 0.54196 0.03391 0.86281 0.0
H1562 H 0.58541 0.04679 0.86419 0.0
C1563 C 0.58172 0.02983 0.81038 0.0
C1564 C 0.59652 0.02495 0.81262 0.0
C1565 C 0.57209 0.03256 0.82278 0.0
C1566 C 0.57334 0.04294 0.86373 0.0
H1567 H 0.50259 0.06071 0.89466 0.0
H1568 H 0.51885 0.05209 0.87381 0.0
H1569 H 0.56899 0.05412 0.88538 0.0
H1570 H 0.61268 0.01886 0.82966 0.0
H1571 H 0.59585 0.02371 0.85132 0.0
H1572 H 0.54632 0.02304 0.84095 0.0
C1573 C 0.52316 0.05208 0.88537 0.0
C1574 C 0.56391 0.04712 0.87589 0.0
C1575 C 0.51384 0.05706 0.89731 0.0
C1576 C 0.60137 0.02263 0.82753 0.0
C1577 C 0.59177 0.02548 0.83995 0.0
C1578 C 0.55138 0.02983 0.85061 0.0
C1579 C 0.53799 0.04759 0.88831 0.0
C1580 C 0.54808 0.04272 0.87555 0.0
C1581 C 0.57707 0.03059 0.83771 0.0
C1582 C 0.56715 0.03436 0.85091 0.0
H1583 H 0.53825 0.05339 0.927 0.0
H1584 H 0.55444 0.04447 0.90622 0.0
H1585 H 0.52988 0.0301 0.86228 0.0
H1586 H 0.57761 0.03171 0.79905 0.0
H1587 H 0.56088 0.03662 0.82071 0.0
C1588 C 0.2852 0.25933 0.37446 0.0
C1589 C 0.27782 0.27302 0.37659 0.0
C1590 C 0.28595 0.24938 0.38629 0.0
C1591 C 0.28203 0.24759 0.42826 0.0
H1592 H 0.27477 0.20398 0.41882 0.0
C1593 C 0.26723 0.20426 0.47407 0.0
C1594 C 0.27354 0.18995 0.47264 0.0
C1595 C 0.26933 0.21465 0.46263 0.0
C1596 C 0.27704 0.21611 0.42163 0.0
H1597 H 0.26573 0.28709 0.39299 0.0
H1598 H 0.26668 0.26958 0.41346 0.0
H1599 H 0.27529 0.22157 0.39828 0.0
H1600 H 0.28736 0.17553 0.45818 0.0
H1601 H 0.29104 0.19373 0.43823 0.0
H1602 H 0.28347 0.24211 0.45165 0.0
C1603 C 0.27206 0.26661 0.4027 0.0
C1604 C 0.27735 0.2262 0.40985 0.0
C1605 C 0.27133 0.27656 0.39088 0.0
C1606 C 0.28231 0.18643 0.45965 0.0
C1607 C 0.28434 0.19681 0.44817 0.0
C1608 C 0.28167 0.2375 0.44004 0.0
C1609 C 0.27933 0.25286 0.40055 0.0
C1610 C 0.2797 0.24208 0.41303 0.0
C1611 C 0.27773 0.21097 0.44946 0.0
C1612 C 0.27904 0.22165 0.43688 0.0
H1613 H 0.29019 0.25616 0.36356 0.0
H1614 H 0.29178 0.23897 0.38428 0.0
H1615 H 0.28415 0.25973 0.4311 0.0
H1616 H 0.26042 0.20736 0.48392 0.0
H1617 H 0.26395 0.22539 0.46391 0.0
C1618 C 0.47222 0.50488 0.9099 0.0
C1619 C 0.48214 0.49316 0.90689 0.0
C1620 C 0.46321 0.50989 0.89827 0.0
C1621 C 0.44814 0.49851 0.85934 0.0
H1622 H 0.44112 0.5416 0.85843 0.0
C1623 C 0.42072 0.52398 0.80762 0.0
C1624 C 0.40878 0.53362 0.81076 0.0
C1625 C 0.42982 0.51942 0.8194 0.0
C1626 C 0.4429 0.52952 0.85861 0.0
H1627 H 0.49056 0.47765 0.8893 0.0
H1628 H 0.47513 0.48659 0.8689 0.0
H1629 H 0.45674 0.53279 0.87879 0.0
H1630 H 0.39734 0.54635 0.82875 0.0
H1631 H 0.41341 0.5385 0.84931 0.0
H1632 H 0.43451 0.49535 0.83897 0.0
C1633 C 0.47398 0.49168 0.88032 0.0
C1634 C 0.4518 0.52444 0.87031 0.0
C1635 C 0.48287 0.48656 0.892 0.0
C1636 C 0.40642 0.53891 0.82593 0.0
C1637 C 0.41565 0.53446 0.8377 0.0
C1638 C 0.43937 0.50362 0.84758 0.0
C1639 C 0.46402 0.50341 0.88329 0.0
C1640 C 0.45453 0.50886 0.87084 0.0
C1641 C 0.42732 0.52451 0.83457 0.0
C1642 C 0.43666 0.51917 0.84709 0.0
H1643 H 0.47129 0.51004 0.92132 0.0
H1644 H 0.45548 0.51873 0.90107 0.0
H1645 H 0.44971 0.4864 0.85951 0.0
H1646 H 0.42288 0.51969 0.79608 0.0
H1647 H 0.43885 0.51189 0.81662 0.0
C1648 C 0.72477 0.7631 0.14909 0.0
C1649 C 0.72897 0.75869 0.16356 0.0
C1650 C 0.72854 0.75452 0.13594 0.0
C1651 C 0.73986 0.7161 0.12248 0.0
H1652 H 0.75019 0.73694 0.08566 0.0
C1653 C 0.758 0.68485 0.06574 0.0
C1654 C 0.75013 0.68887 0.05275 0.0
C1655 C 0.75671 0.69323 0.07968 0.0
C1656 C 0.7473 0.73096 0.09585 0.0
H1657 H 0.74061 0.74192 0.17557 0.0
H1658 H 0.74746 0.72703 0.15257 0.0
H1659 H 0.74571 0.75187 0.10924 0.0
H1660 H 0.73487 0.70492 0.04417 0.0
H1661 H 0.73279 0.71955 0.06832 0.0
H1662 H 0.74155 0.69518 0.10895 0.0
C1663 C 0.74097 0.73697 0.15139 0.0
C1664 C 0.74465 0.73951 0.10936 0.0
C1665 C 0.73708 0.74551 0.16458 0.0
C1666 C 0.74108 0.7015 0.05395 0.0
C1667 C 0.73995 0.70996 0.06777 0.0
C1668 C 0.74266 0.70755 0.10897 0.0
C1669 C 0.73673 0.74136 0.13689 0.0
C1670 C 0.74061 0.7322 0.12279 0.0
C1671 C 0.74771 0.70592 0.08079 0.0
C1672 C 0.74613 0.7149 0.09546 0.0
H1673 H 0.7183 0.77307 0.14795 0.0
H1674 H 0.72478 0.75808 0.12502 0.0
H1675 H 0.73662 0.71007 0.13254 0.0
H1676 H 0.76504 0.67516 0.06517 0.0
H1677 H 0.76286 0.68991 0.08954 0.0
C1678 C 1.00019 0.08605 0.15067 0.0
C1679 C 0.9968 0.09715 0.14046 0.0
C1680 C 0.99037 0.0827 0.16277 0.0
C1681 C 0.9502 0.08611 0.17575 0.0
H1682 H 0.96677 0.07362 0.21372 0.0
C1683 C 0.9128 0.07053 0.22854 0.0
C1684 C 0.91573 0.05641 0.23434 0.0
C1685 C 0.92255 0.07704 0.21759 0.0
C1686 C 0.96198 0.07709 0.20317 0.0
H1687 H 0.98037 0.11356 0.13522 0.0
H1688 H 0.96356 0.10814 0.15667 0.0
H1689 H 0.98422 0.08258 0.19395 0.0
H1690 H 0.93126 0.03814 0.23334 0.0
H1691 H 0.9483 0.0496 0.21453 0.0
H1692 H 0.92792 0.08066 0.18519 0.0
C1693 C 0.97368 0.10178 0.15512 0.0
C1694 C 0.97197 0.08215 0.19179 0.0
C1695 C 0.98346 0.10504 0.14291 0.0
C1696 C 0.92864 0.04902 0.22909 0.0
C1697 C 0.93847 0.05562 0.21838 0.0
C1698 C 0.94019 0.08122 0.18725 0.0
C1699 C 0.97694 0.09046 0.16515 0.0
C1700 C 0.96624 0.08641 0.17778 0.0
C1701 C 0.93554 0.06967 0.2125 0.0
C1702 C 0.94601 0.07636 0.20094 0.0
H1703 H 0.01047 0.0799 0.14933 0.0
H1704 H 0.99319 0.07375 0.17008 0.0
H1705 H 0.94533 0.08912 0.16508 0.0
H1706 H 0.90293 0.07649 0.23236 0.0
H1707 H 0.92005 0.08792 0.21325 0.0
C1708 C 0.25907 0.80162 0.17092 0.0
C1709 C 0.26652 0.78817 0.16755 0.0
C1710 C 0.25722 0.81206 0.15968 0.0
C1711 C 0.25772 0.81469 0.11758 0.0
H1712 H 0.26177 0.85846 0.12718 0.0
C1713 C 0.26537 0.85809 0.0712 0.0
C1714 C 0.25641 0.8708 0.07217 0.0
C1715 C 0.26586 0.84843 0.08325 0.0
C1716 C 0.26045 0.84626 0.12438 0.0
H1717 H 0.27836 0.77539 0.14994 0.0
H1718 H 0.27544 0.79366 0.13047 0.0
H1719 H 0.26431 0.84082 0.14749 0.0
H1720 H 0.24112 0.88345 0.0867 0.0
H1721 H 0.24213 0.86654 0.10795 0.0
H1722 H 0.25424 0.82014 0.09444 0.0
C1723 C 0.27059 0.79599 0.14163 0.0
C1724 C 0.26188 0.83614 0.136 0.0
C1725 C 0.27232 0.78552 0.15281 0.0
C1726 C 0.24811 0.87374 0.0856 0.0
C1727 C 0.24873 0.86411 0.09778 0.0
C1728 C 0.25643 0.82478 0.10598 0.0
C1729 C 0.26287 0.80933 0.14485 0.0
C1730 C 0.26071 0.82021 0.13271 0.0
C1731 C 0.2575 0.85126 0.09664 0.0
C1732 C 0.25795 0.84067 0.10922 0.0
H1733 H 0.25435 0.8039 0.18216 0.0
H1734 H 0.25107 0.82211 0.16255 0.0
H1735 H 0.25635 0.80252 0.11464 0.0
H1736 H 0.27193 0.85549 0.06104 0.0
H1737 H 0.27288 0.83874 0.08211 0.0
C1738 C 0.0137 0.46762 0.13988 0.0
C1739 C 0.00721 0.47924 0.13215 0.0
C1740 C 0.02449 0.47127 0.15154 0.0
C1741 C 0.05205 0.50273 0.1661 0.0
H1742 H 0.05138 0.48038 0.203 0.0
C1743 C 0.0853 0.52502 0.22022 0.0
C1744 C 0.09282 0.51457 0.2286 0.0
C1745 C 0.07576 0.51993 0.20796 0.0
C1746 C 0.05184 0.48658 0.19266 0.0
H1747 H 0.00692 0.50381 0.13075 0.0
H1748 H 0.02538 0.51017 0.15131 0.0
H1749 H 0.03249 0.4731 0.18287 0.0
H1750 H 0.09635 0.49055 0.23058 0.0
H1751 H 0.07954 0.48161 0.20905 0.0
H1752 H 0.07121 0.51636 0.17599 0.0
C1753 C 0.02232 0.49822 0.1482 0.0
C1754 C 0.04102 0.48243 0.18114 0.0
C1755 C 0.01156 0.49458 0.13655 0.0
C1756 C 0.09073 0.49888 0.22432 0.0
C1757 C 0.08104 0.49376 0.21207 0.0
C1758 C 0.06281 0.5069 0.17763 0.0
C1759 C 0.02904 0.48662 0.15574 0.0
C1760 C 0.04088 0.49058 0.16779 0.0
C1761 C 0.07342 0.50425 0.2038 0.0
C1762 C 0.06272 0.499 0.19111 0.0
H1763 H 0.01046 0.45568 0.13691 0.0
H1764 H 0.02949 0.46205 0.15704 0.0
H1765 H 0.0525 0.50903 0.15583 0.0
H1766 H 0.08665 0.53718 0.22322 0.0
H1767 H 0.06991 0.52829 0.20195 0.0
C1768 C 0.38072 0.77038 0.27988 0.0
C1769 C 0.36953 0.75801 0.2796 0.0
C1770 C 0.39317 0.77105 0.28995 0.0
C1771 C 0.41509 0.74732 0.31484 0.0
H1772 H 0.42931 0.78691 0.33347 0.0
C1773 C 0.45922 0.75621 0.36495 0.0
C1774 C 0.47065 0.76822 0.36376 0.0
C1775 C 0.44715 0.75411 0.35434 0.0
C1776 C 0.42555 0.77578 0.32826 0.0
H1777 H 0.36294 0.73645 0.28962 0.0
H1778 H 0.38434 0.73791 0.30757 0.0
H1779 H 0.4076 0.78499 0.31591 0.0
H1780 H 0.47857 0.78716 0.35018 0.0
H1781 H 0.45756 0.78353 0.33184 0.0
H1782 H 0.43297 0.73815 0.32755 0.0
C1783 C 0.38361 0.747 0.29981 0.0
C1784 C 0.41313 0.77468 0.31814 0.0
C1785 C 0.3712 0.74627 0.28964 0.0
C1786 C 0.46996 0.77782 0.35151 0.0
C1787 C 0.45786 0.77581 0.34102 0.0
C1788 C 0.42745 0.74842 0.3251 0.0
C1789 C 0.39473 0.75944 0.30015 0.0
C1790 C 0.4078 0.76046 0.31118 0.0
C1791 C 0.44621 0.76408 0.34244 0.0
C1792 C 0.43289 0.76269 0.33181 0.0
H1793 H 0.37975 0.77973 0.27247 0.0
H1794 H 0.40162 0.78069 0.28969 0.0
H1795 H 0.41143 0.73621 0.30957 0.0
H1796 H 0.45942 0.74859 0.37423 0.0
H1797 H 0.4383 0.745 0.35573 0.0
C1798 C 0.96756 0.41495 0.9947 0.0
C1799 C 0.95378 0.41359 1.00295 0.0
C1800 C 0.97234 0.40257 0.98569 0.0
C1801 C 0.96833 0.36071 0.981 0.0
H1802 H 0.98264 0.36706 0.9399 0.0
C1803 C 0.98034 0.31045 0.93834 0.0
C1804 C 0.99246 0.31257 0.92796 0.0
C1805 C 0.97598 0.32265 0.9479 0.0
C1806 C 0.97893 0.3651 0.95143 0.0
H1807 H 0.93427 0.39816 0.00833 0.0
H1808 H 0.94267 0.37645 0.99258 0.0
H1809 H 0.97426 0.38858 0.95568 0.0
H1810 H 0.00985 0.32906 0.91985 0.0
H1811 H 1.00257 0.3502 0.93681 0.0
H1812 H 0.9732 0.3373 0.9769 0.0
C1813 C 0.94975 0.38712 0.99312 0.0
C1814 C 0.97406 0.37744 0.96045 0.0
C1815 C 0.94488 0.39957 1.00201 0.0
C1816 C 1.00038 0.32706 0.92764 0.0
C1817 C 0.99613 0.33922 0.93729 0.0
C1818 C 0.97334 0.34838 0.97204 0.0
C1819 C 0.96352 0.38851 0.98484 0.0
C1820 C 0.96868 0.37537 0.97531 0.0
C1821 C 0.98373 0.33724 0.94741 0.0
C1822 C 0.97868 0.3504 0.95712 0.0
H1823 H 0.9746 0.42565 0.99512 0.0
H1824 H 0.98305 0.40394 0.97952 0.0
H1825 H 0.96442 0.35882 0.99249 0.0
H1826 H 0.97393 0.29946 0.93884 0.0
H1827 H 0.96626 0.32072 0.95537 0.0
C1828 C 0.64741 0.80148 0.29349 0.0
C1829 C 0.65837 0.81379 0.29672 0.0
C1830 C 0.63504 0.79863 0.30331 0.0
C1831 C 0.6125 0.81816 0.33321 0.0
H1832 H 0.59547 0.77703 0.33977 0.0
C1833 C 0.55255 0.8069 0.35885 0.0
C1834 C 0.55009 0.7951 0.36895 0.0
C1835 C 0.56638 0.80883 0.35101 0.0
C1836 C 0.60019 0.78859 0.33821 0.0
H1837 H 0.6649 0.83265 0.31301 0.0
H1838 H 0.64373 0.82736 0.33034 0.0
H1839 H 0.61878 0.78076 0.32469 0.0
H1840 H 0.56032 0.77609 0.37878 0.0
H1841 H 0.5847 0.77962 0.3652 0.0
H1842 H 0.59412 0.82602 0.34691 0.0
C1843 C 0.64452 0.82005 0.32006 0.0
C1844 C 0.61345 0.79073 0.32939 0.0
C1845 C 0.65682 0.82296 0.31021 0.0
C1846 C 0.56186 0.78529 0.37107 0.0
C1847 C 0.57579 0.78726 0.36322 0.0
C1848 C 0.59932 0.81602 0.34206 0.0
C1849 C 0.63335 0.80798 0.31666 0.0
C1850 C 0.61969 0.80556 0.32665 0.0
C1851 C 0.57821 0.79907 0.35309 0.0
C1852 C 0.59286 0.80122 0.34451 0.0
H1853 H 0.64834 0.79405 0.28332 0.0
H1854 H 0.6266 0.78932 0.30023 0.0
H1855 H 0.61684 0.82975 0.33122 0.0
H1856 H 0.5437 0.81462 0.35685 0.0
H1857 H 0.56769 0.81786 0.34308 0.0
C1858 C 0.05439 0.16576 0.0119 0.0
C1859 C 0.05606 0.15035 0.00737 0.0
C1860 C 0.05011 0.17604 1.00132 0.0
C1861 C 0.03006 0.1772 0.96459 0.0
H1862 H 0.04847 0.21878 0.96495 0.0
C1863 C 1.00247 0.22507 0.93435 0.0
C1864 C 0.0121 0.23548 0.9265 0.0
C1865 C 0.00867 0.21428 0.94321 0.0
C1866 C 0.04332 0.20716 0.96461 0.0
H1867 H 0.05453 0.13368 0.98816 0.0
H1868 H 0.04718 0.15163 0.9697 0.0
H1869 H 0.05804 0.20085 0.9824 0.0
H1870 H 0.03583 0.2426 0.92168 0.0
H1871 H 0.04669 0.2237 0.93727 0.0
H1872 H 0.0153 0.1835 0.94686 0.0
C1873 C 0.04912 0.15575 0.98145 0.0
C1874 C 0.04869 0.19695 0.97471 0.0
C1875 C 0.05348 0.1455 0.992 0.0
C1876 C 0.0281 0.23472 0.92757 0.0
C1877 C 0.03432 0.22397 0.93657 0.0
C1878 C 0.02463 0.18743 0.95457 0.0
C1879 C 0.0473 0.17113 0.98599 0.0
C1880 C 0.04205 0.18187 0.97489 0.0
C1881 C 0.02466 0.21368 0.94454 0.0
C1882 C 0.0311 0.20257 0.95455 0.0
H1883 H 0.05643 0.16989 0.02362 0.0
H1884 H 0.04867 0.18778 0.00522 0.0
H1885 H 0.0246 0.16571 0.96451 0.0
H1886 H 0.99009 0.22534 0.93379 0.0
H1887 H 1.00091 0.20664 0.94934 0.0
C1888 C 0.37697 0.29261 0.25796 0.0
C1889 C 0.36663 0.30409 0.25699 0.0
C1890 C 0.38923 0.29171 0.24781 0.0
C1891 C 0.41278 0.31437 0.22082 0.0
H1892 H 0.42432 0.2744 0.20588 0.0
C1893 C 0.45707 0.30525 0.17247 0.0
C1894 C 0.46764 0.29416 0.17455 0.0
C1895 C 0.44491 0.30698 0.18265 0.0
C1896 C 0.42134 0.28564 0.21007 0.0
H1897 H 0.36117 0.3237 0.24455 0.0
H1898 H 0.38231 0.32185 0.22654 0.0
H1899 H 0.40255 0.2763 0.22303 0.0
H1900 H 0.47384 0.2764 0.18918 0.0
H1901 H 0.45266 0.27945 0.20688 0.0
H1902 H 0.43152 0.32366 0.20764 0.0
C1903 C 0.38107 0.31367 0.23533 0.0
C1904 C 0.40886 0.28674 0.21992 0.0
C1905 C 0.36882 0.31461 0.24554 0.0
C1906 C 0.46591 0.28503 0.18719 0.0
C1907 C 0.45371 0.2867 0.19729 0.0
C1908 C 0.42522 0.31326 0.21087 0.0
C1909 C 0.39143 0.3022 0.23634 0.0
C1910 C 0.40448 0.30111 0.22552 0.0
C1911 C 0.443 0.29759 0.19506 0.0
C1912 C 0.42969 0.29888 0.20548 0.0
H1913 H 0.37553 0.28418 0.26649 0.0
H1914 H 0.39707 0.28284 0.24907 0.0
H1915 H 0.40986 0.32561 0.22506 0.0
H1916 H 0.45806 0.31248 0.16287 0.0
H1917 H 0.43678 0.31541 0.18058 0.0
C1918 C 0.55715 0.41384 0.03454 0.0
C1919 C 0.54566 0.42134 0.02735 0.0
C1920 C 0.55329 0.40279 0.04504 0.0
C1921 C 0.5216 0.38976 0.07033 0.0
H1922 H 0.54338 0.35282 0.07116 0.0
C1923 C 0.49888 0.33739 0.10234 0.0
C1924 C 0.50942 0.32952 0.11047 0.0
C1925 C 0.50398 0.34912 0.09308 0.0
C1926 C 0.53733 0.36317 0.07121 0.0
H1927 H 0.52104 0.42297 0.02553 0.0
H1928 H 0.5143 0.40343 0.04346 0.0
H1929 H 0.55084 0.37191 0.05285 0.0
H1930 H 0.53359 0.32794 0.11537 0.0
H1931 H 0.54253 0.34851 0.09908 0.0
H1932 H 0.50793 0.38089 0.08849 0.0
C1933 C 0.52633 0.40627 0.04119 0.0
C1934 C 0.54159 0.37412 0.06071 0.0
C1935 C 0.53019 0.41733 0.03073 0.0
C1936 C 0.52519 0.3338 0.10927 0.0
C1937 C 0.53031 0.3455 0.09988 0.0
C1938 C 0.5173 0.3788 0.08076 0.0
C1939 C 0.53783 0.39895 0.04859 0.0
C1940 C 0.53367 0.38748 0.06004 0.0
C1941 C 0.51974 0.35324 0.09163 0.0
C1942 C 0.52502 0.36531 0.08122 0.0
H1943 H 0.56918 0.4165 0.03208 0.0
H1944 H 0.56245 0.39747 0.05059 0.0
H1945 H 0.51547 0.40006 0.07038 0.0
H1946 H 0.48665 0.33438 0.10299 0.0
H1947 H 0.49555 0.35472 0.08674 0.0
C1948 C 0.65156 0.26913 0.2397 0.0
C1949 C 0.65235 0.25481 0.24599 0.0
C1950 C 0.63873 0.27226 0.23114 0.0
C1951 C 0.59781 0.26 0.22511 0.0
H1952 H 0.60267 0.27905 0.18643 0.0
C1953 C 0.54753 0.26011 0.1831 0.0
C1954 C 0.54578 0.27326 0.17501 0.0
C1955 C 0.5607 0.25879 0.19179 0.0
C1956 C 0.6011 0.27393 0.19731 0.0
H1957 H 0.64023 0.23264 0.24839 0.0
H1958 H 0.61791 0.23806 0.23342 0.0
H1959 H 0.62535 0.27511 0.20168 0.0
H1960 H 0.55661 0.2953 0.16961 0.0
H1961 H 0.57965 0.29307 0.18503 0.0
H1962 H 0.57363 0.25882 0.22086 0.0
C1963 C 0.62718 0.24689 0.23513 0.0
C1964 C 0.6141 0.27165 0.20603 0.0
C1965 C 0.64003 0.24373 0.24357 0.0
C1966 C 0.55763 0.28502 0.1757 0.0
C1967 C 0.57085 0.2837 0.18448 0.0
C1968 C 0.58484 0.26234 0.21646 0.0
C1969 C 0.62636 0.26119 0.22883 0.0
C1970 C 0.6126 0.26445 0.21992 0.0
C1971 C 0.57248 0.2706 0.19273 0.0
C1972 C 0.58632 0.26911 0.20233 0.0
H1973 H 0.66093 0.27787 0.24127 0.0
H1974 H 0.63839 0.28341 0.2265 0.0
H1975 H 0.59625 0.25471 0.2359 0.0
H1976 H 0.5387 0.25077 0.18273 0.0
H1977 H 0.56169 0.24839 0.1977 0.0
C1978 C 0.47662 0.14384 0.04131 0.0
C1979 C 0.46383 0.14347 0.03153 0.0
C1980 C 0.48086 0.15694 0.05053 0.0
C1981 C 0.4773 0.19843 0.05468 0.0
H1982 H 0.48571 0.1934 0.09739 0.0
C1983 C 0.48352 0.24964 0.09908 0.0
C1984 C 0.49423 0.24913 0.11097 0.0
C1985 C 0.4804 0.23696 0.08893 0.0
C1986 C 0.48365 0.19502 0.08545 0.0
H1987 H 0.44568 0.15664 0.02346 0.0
H1988 H 0.45314 0.1796 0.03959 0.0
H1989 H 0.47937 0.17095 0.08041 0.0
H1990 H 0.51038 0.23503 0.12126 0.0
H1991 H 0.50523 0.21308 0.10336 0.0
H1992 H 0.48172 0.22249 0.05964 0.0
C1993 C 0.45986 0.16974 0.0401 0.0
C1994 C 0.47997 0.18214 0.07573 0.0
C1995 C 0.45552 0.15657 0.03098 0.0
C1996 C 0.50196 0.23576 0.11231 0.0
C1997 C 0.49894 0.22313 0.10208 0.0
C1998 C 0.48111 0.21133 0.06437 0.0
C1999 C 0.47249 0.17 0.05008 0.0
C2000 C 0.4767 0.18371 0.06026 0.0
C2001 C 0.488 0.2235 0.09036 0.0
C2002 C 0.48428 0.20979 0.0799 0.0
H2003 H 0.48316 0.13387 0.04207 0.0
H2004 H 0.49072 0.15687 0.05802 0.0
H2005 H 0.47499 0.19996 0.04276 0.0
H2006 H 0.47731 0.25974 0.09776 0.0
H2007 H 0.47175 0.2376 0.08019 0.0
C2008 C 0.28613 0.4014 0.72101 0.0
C2009 C 0.27516 0.39552 0.73128 0.0
C2010 C 0.2944 0.41543 0.72434 0.0
C2011 C 0.3059 0.44275 0.75674 0.0
H2012 H 0.31671 0.47017 0.72466 0.0
C2013 C 0.33548 0.50302 0.76948 0.0
C2014 C 0.34832 0.50697 0.76047 0.0
C2015 C 0.32578 0.49002 0.76554 0.0
C2016 C 0.31384 0.46258 0.73372 0.0
H2017 H 0.2643 0.39993 0.75315 0.0
H2018 H 0.2783 0.4246 0.75869 0.0
H2019 H 0.30111 0.44639 0.7186 0.0
H2020 H 0.36073 0.50059 0.73996 0.0
H2021 H 0.34372 0.47796 0.73305 0.0
H2022 H 0.31856 0.45902 0.77186 0.0
C2023 C 0.28073 0.41823 0.74817 0.0
C2024 C 0.30494 0.44893 0.73025 0.0
C2025 C 0.27254 0.40415 0.74488 0.0
C2026 C 0.35097 0.49787 0.74718 0.0
C2027 C 0.34118 0.48494 0.74317 0.0
C2028 C 0.31469 0.45645 0.76022 0.0
C2029 C 0.29185 0.42401 0.73798 0.0
C2030 C 0.30093 0.43879 0.7417 0.0
C2031 C 0.32861 0.48076 0.75243 0.0
C2032 C 0.31883 0.46647 0.74874 0.0
H2033 H 0.28831 0.3952 0.71032 0.0
H2034 H 0.30298 0.41942 0.71629 0.0
H2035 H 0.3033 0.43512 0.76581 0.0
H2036 H 0.33307 0.50977 0.77979 0.0
H2037 H 0.31608 0.48719 0.7728 0.0
C2038 C 0.27469 0.67503 0.81955 0.0
C2039 C 0.27457 0.68691 0.80946 0.0
C2040 C 0.2836 0.66263 0.81649 0.0
C2041 C 0.3173 0.65066 0.79487 0.0
H2042 H 0.30009 0.60988 0.80264 0.0
C2043 C 0.34926 0.59571 0.78029 0.0
C2044 C 0.34795 0.58432 0.79095 0.0
C2045 C 0.34049 0.60848 0.78186 0.0
C2046 C 0.30515 0.6212 0.80056 0.0
H2047 H 0.28381 0.69509 0.78827 0.0
H2048 H 0.29933 0.67331 0.78284 0.0
H2049 H 0.28437 0.63156 0.80655 0.0
H2050 H 0.33669 0.57762 0.81182 0.0
H2051 H 0.32169 0.59984 0.81465 0.0
H2052 H 0.33817 0.64027 0.78903 0.0
C2053 C 0.29257 0.67367 0.79317 0.0
C2054 C 0.29611 0.63363 0.80279 0.0
C2055 C 0.28357 0.68607 0.7962 0.0
C2056 C 0.33791 0.58611 0.80333 0.0
C2057 C 0.32921 0.59882 0.8049 0.0
C2058 C 0.32638 0.6382 0.79268 0.0
C2059 C 0.29265 0.66179 0.80327 0.0
C2060 C 0.30212 0.64853 0.80014 0.0
C2061 C 0.33023 0.61009 0.79411 0.0
C2062 C 0.32046 0.62333 0.79567 0.0
H2063 H 0.26778 0.67524 0.82979 0.0
H2064 H 0.28353 0.65376 0.82459 0.0
H2065 H 0.32231 0.66202 0.79285 0.0
H2066 H 0.35687 0.59466 0.77061 0.0
H2067 H 0.34149 0.6169 0.77328 0.0
C2068 C 0.87452 0.5156 0.49004 0.0
C2069 C 0.8889 0.50939 0.48882 0.0
C2070 C 0.86178 0.50694 0.49538 0.0
C2071 C 0.85057 0.47352 0.51761 0.0
H2072 H 0.81196 0.47367 0.49576 0.0
C2073 C 0.79865 0.43047 0.52783 0.0
C2074 C 0.78384 0.43569 0.52688 0.0
C2075 C 0.81157 0.43991 0.52418 0.0
C2076 C 0.82258 0.47366 0.50216 0.0
H2077 H 0.90127 0.48935 0.49253 0.0
H2078 H 0.87896 0.47417 0.50175 0.0
H2079 H 0.83426 0.48928 0.48748 0.0
H2080 H 0.77106 0.45518 0.52196 0.0
H2081 H 0.79356 0.47171 0.51592 0.0
H2082 H 0.83887 0.4579 0.53231 0.0
C2083 C 0.87757 0.48576 0.49863 0.0
C2084 C 0.83537 0.4826 0.49738 0.0
C2085 C 0.8903 0.49439 0.4932 0.0
C2086 C 0.78228 0.45073 0.52268 0.0
C2087 C 0.79519 0.46019 0.51912 0.0
C2088 C 0.83773 0.46461 0.52245 0.0
C2089 C 0.86315 0.49191 0.4997 0.0
C2090 C 0.84952 0.4826 0.50501 0.0
C2091 C 0.80998 0.45482 0.51957 0.0
C2092 C 0.82358 0.46455 0.51475 0.0
H2093 H 0.87305 0.52708 0.48664 0.0
H2094 H 0.85085 0.51205 0.49621 0.0
H2095 H 0.86127 0.47342 0.52384 0.0
H2096 H 0.80026 0.41893 0.53099 0.0
H2097 H 0.82276 0.43535 0.52451 0.0
C2098 C 0.72859 0.88124 0.76978 0.0
C2099 C 0.73714 0.87917 0.783 0.0
C2100 C 0.71833 0.89278 0.76958 0.0
C2101 C 0.71121 0.92989 0.78873 0.0
H2102 H 0.67048 0.92326 0.77081 0.0
C2103 C 0.66734 0.97516 0.79665 0.0
C2104 C 0.65818 0.97804 0.78411 0.0
C2105 C 0.67629 0.96261 0.79617 0.0
C2106 C 0.68189 0.92534 0.77569 0.0
H2107 H 0.74153 0.88758 0.8064 0.0
H2108 H 0.72358 0.90757 0.8061 0.0
H2109 H 0.6874 0.90219 0.77056 0.0
H2110 H 0.65098 0.96977 0.76132 0.0
H2111 H 0.66689 0.94788 0.76037 0.0
H2112 H 0.70591 0.95301 0.79375 0.0
C2113 C 0.72487 0.90033 0.79585 0.0
C2114 C 0.69157 0.91327 0.77557 0.0
C2115 C 0.73503 0.88876 0.79607 0.0
C2116 C 0.65791 0.96785 0.77118 0.0
C2117 C 0.66698 0.95527 0.77066 0.0
C2118 C 0.70161 0.94194 0.78879 0.0
C2119 C 0.7165 0.90257 0.78257 0.0
C2120 C 0.70628 0.91539 0.78224 0.0
C2121 C 0.67645 0.95263 0.78309 0.0
C2122 C 0.68676 0.9398 0.78244 0.0
H2123 H 0.72986 0.87394 0.75957 0.0
H2124 H 0.71211 0.89427 0.75916 0.0
H2125 H 0.7226 0.93199 0.79367 0.0
H2126 H 0.66769 0.98269 0.80687 0.0
H2127 H 0.68314 0.96074 0.8061 0.0
C2128 C 0.63024 0.54157 0.96819 0.0
C2129 C 0.61561 0.54707 0.97019 0.0
C2130 C 0.64346 0.551 0.97189 0.0
C2131 C 0.65715 0.5854 0.99526 0.0
H2132 H 0.69134 0.58686 0.96708 0.0
C2133 C 0.70818 0.6309 1.00234 0.0
C2134 C 0.72294 0.62639 0.99874 0.0
C2135 C 0.69519 0.62095 0.99916 0.0
C2136 C 0.68199 0.58644 0.97519 0.0
H2137 H 0.60334 0.56668 0.97788 0.0
H2138 H 0.62643 0.58318 0.98427 0.0
H2139 H 0.66854 0.56989 0.96103 0.0
H2140 H 0.73563 0.60776 0.98921 0.0
H2141 H 0.71303 0.59034 0.98396 0.0
H2142 H 0.6706 0.60184 0.00949 0.0
C2143 C 0.62767 0.57156 0.97988 0.0
C2144 C 0.66892 0.57673 0.97169 0.0
C2145 C 0.61446 0.56217 0.97607 0.0
C2146 C 0.72443 0.61164 0.99204 0.0
C2147 C 0.71145 0.60167 0.98895 0.0
C2148 C 0.67026 0.59504 0.9988 0.0
C2149 C 0.64231 0.56609 0.97779 0.0
C2150 C 0.65633 0.57616 0.98166 0.0
C2151 C 0.69666 0.60623 0.99239 0.0
C2152 C 0.68282 0.59574 0.98878 0.0
H2153 H 0.63148 0.53002 0.96358 0.0
H2154 H 0.65459 0.54643 0.97027 0.0
H2155 H 0.64771 0.58504 0.00327 0.0
H2156 H 0.70661 0.6422 0.00744 0.0
H2157 H 0.68398 0.62493 1.00177 0.0
C2158 C 0.23348 0.65802 0.24305 0.0
C2159 C 0.24496 0.66175 0.25415 0.0
C2160 C 0.22297 0.64538 0.24446 0.0
C2161 C 0.20667 0.61904 0.27288 0.0
H2162 H 0.1941 0.59334 0.23706 0.0
C2163 C 0.17146 0.5612 0.27695 0.0
C2164 C 0.15892 0.55832 0.26688 0.0
C2165 C 0.18212 0.57363 0.27514 0.0
C2166 C 0.19741 0.60048 0.24715 0.0
H2167 H 0.2542 0.65517 0.27558 0.0
H2168 H 0.23624 0.63292 0.27777 0.0
H2169 H 0.21229 0.61548 0.23445 0.0
H2170 H 0.14795 0.5661 0.24682 0.0
H2171 H 0.1666 0.58774 0.24366 0.0
H2172 H 0.1919 0.60393 0.28557 0.0
C2173 C 0.23519 0.63988 0.26807 0.0
C2174 C 0.2078 0.6132 0.24565 0.0
C2175 C 0.24565 0.65254 0.2667 0.0
C2176 C 0.15746 0.56799 0.25479 0.0
C2177 C 0.16819 0.58035 0.25292 0.0
C2178 C 0.19636 0.60628 0.27437 0.0
C2179 C 0.22371 0.63613 0.25698 0.0
C2180 C 0.21257 0.62264 0.25851 0.0
C2181 C 0.18055 0.58339 0.26316 0.0
C2182 C 0.19162 0.59686 0.26153 0.0
H2183 H 0.2327 0.66477 0.23316 0.0
H2184 H 0.21417 0.64295 0.23579 0.0
H2185 H 0.20985 0.6262 0.28298 0.0
H2186 H 0.17296 0.55399 0.28637 0.0
H2187 H 0.19164 0.57558 0.2831 0.0
C2188 C 0.88483 0.55611 0.06849 0.0
C2189 C 0.88711 0.54252 0.05977 0.0
C2190 C 0.87415 0.56612 0.0639 0.0
C2191 C 0.84047 0.56797 0.03814 0.0
H2192 H 0.85013 0.6118 0.04317 0.0
C2193 C 0.80703 0.61091 0.0068 0.0
C2194 C 0.80212 0.62359 0.01547 0.0
C2195 C 0.81731 0.6014 0.01292 0.0
C2196 C 0.84722 0.59959 0.04183 0.0
H2197 H 0.87961 0.52875 0.03948 0.0
H2198 H 0.86154 0.5464 0.03119 0.0
H2199 H 0.86813 0.59434 0.05248 0.0
H2200 H 0.80447 0.63643 0.03726 0.0
H2201 H 0.82272 0.61984 0.0479 0.0
H2202 H 0.81977 0.57326 0.02712 0.0
C2203 C 0.86778 0.54924 0.04174 0.0
C2204 C 0.8575 0.58956 0.0472 0.0
C2205 C 0.87836 0.53918 0.04639 0.0
C2206 C 0.80803 0.62675 0.0303 0.0
C2207 C 0.81849 0.61729 0.03638 0.0
C2208 C 0.8303 0.57798 0.03264 0.0
C2209 C 0.86552 0.56285 0.05043 0.0
C2210 C 0.85432 0.5736 0.04531 0.0
C2211 C 0.82307 0.60439 0.0278 0.0
C2212 C 0.83362 0.59389 0.03431 0.0
H2213 H 0.89147 0.55917 0.07876 0.0
H2214 H 0.8726 0.57638 0.07098 0.0
H2215 H 0.83742 0.55579 0.03679 0.0
H2216 H 0.80272 0.60814 0.99534 0.0
H2217 H 0.82079 0.59166 0.00597 0.0
C2218 C 0.12831 0.03312 0.06423 0.0
C2219 C 0.11784 0.03115 0.07625 0.0
C2220 C 0.13934 0.02259 0.06116 0.0
C2221 C 0.1483 0.98277 0.06779 0.0
H2222 H 0.18862 0.99696 0.0536 0.0
C2223 C 0.19811 0.94283 0.05622 0.0
C2224 C 0.20576 0.94475 0.04229 0.0
C2225 C 0.18755 0.95322 0.06144 0.0
C2226 C 0.17739 0.99282 0.0575 0.0
H2227 H 0.11084 0.01643 0.09444 0.0
H2228 H 0.1304 0.99839 0.0894 0.0
H2229 H 0.17009 0.01549 0.06089 0.0
H2230 H 0.20832 0.95909 0.02296 0.0
H2231 H 0.19007 0.97714 0.0321 0.0
H2232 H 0.15576 0.96006 0.06443 0.0
C2233 C 0.12991 0.00795 0.08218 0.0
C2234 C 0.16673 0.00343 0.06162 0.0
C2235 C 0.11881 0.01844 0.0852 0.0
C2236 C 0.20263 0.95725 0.03373 0.0
C2237 C 0.19225 0.96768 0.03901 0.0
C2238 C 0.15904 0.97214 0.06378 0.0
C2239 C 0.1403 0.00986 0.07008 0.0
C2240 C 0.15195 0.99855 0.06659 0.0
C2241 C 0.18462 0.96582 0.05293 0.0
C2242 C 0.1736 0.97705 0.05835 0.0
H2243 H 0.12806 0.04285 0.05721 0.0
H2244 H 0.14699 0.02435 0.05161 0.0
H2245 H 0.13699 0.97856 0.0714 0.0
H2246 H 0.20028 0.93332 0.06307 0.0
H2247 H 0.18186 0.95155 0.07224 0.0
loop_
_geom_bond_atom_site_label_1
_geom_bond_atom_site_label_2
_geom_bond_distance
_geom_bond_site_symmetry_2
_ccdc_geom_bond_type
C0 C1 1.264 . S
C0 C5 1.479 . S
C0 C10 1.465 . S
C1 C0 1.264 . S
C1 C3 1.339 . S
C1 H28 0.931 . S
C2 C3 1.395 . S
C2 C4 1.320 . S
C3 C1 1.339 . S
C3 C2 1.395 . S
C3 H29 0.929 . S
C4 C2 1.320 . S
C4 C5 1.405 . S
C4 H30 0.930 . S
C5 C0 1.479 . S
C5 C4 1.405 . S
C5 H31 0.931 . S
U6 O7 2.454 . S
U6 O8 2.458 . S
U6 C9 2.984 . S
U6 C10 2.847 . S
U6 C23 2.882 . S
U6 O24 2.441 . S
U6 O25 2.420 . S
U6 O26 2.455 . S
U6 O27 2.449 . S
O7 U6 2.454 . S
O7 C9 1.353 . S
O8 U6 2.458 . S
O8 C9 1.286 . S
C9 U6 2.984 . S
C9 O7 1.353 . S
C9 O8 1.286 . S
C9 C11 1.363 . S
C10 C0 1.465 . S
C10 U6 2.847 . S
C10 O24 1.249 . S
C10 O25 1.202 . S
C11 C9 1.363 . S
C11 C13 1.408 . S
C11 C16 1.342 . S
C12 C13 1.310 . S
C12 C15 1.461 . S
C12 H32 0.932 . S
C13 C11 1.408 . S
C13 C12 1.310 . S
C13 H33 0.930 . S
C14 C15 1.474 . S
C14 C16 1.285 . S
C14 H34 0.929 . S
C15 C12 1.461 . S
C15 C14 1.474 . S
C16 C11 1.342 . S
C16 C14 1.285 . S
C16 H35 0.930 . S
C17 C20 1.424 . S
C17 C22 1.245 . S
C17 C23 1.428 . S
C18 C21 1.260 . S
C18 C22 1.477 . S
C18 H36 0.932 . S
C19 C20 1.384 . S
C19 C21 1.479 . S
C19 H37 0.929 . S
C20 C17 1.424 . S
C20 C19 1.384 . S
C20 H38 0.928 . S
C21 C18 1.260 . S
C21 C19 1.479 . S
C22 C17 1.245 . S
C22 C18 1.477 . S
C22 H39 0.932 . S
C23 U6 2.882 . S
C23 C17 1.428 . S
C23 O26 1.301 . S
C23 O27 1.282 . S
O24 U6 2.441 . S
O24 C10 1.249 . S
O25 U6 2.420 . S
O25 C10 1.202 . S
O26 U6 2.455 . S
O26 C23 1.301 . S
O27 U6 2.449 . S
O27 C23 1.282 . S
H28 C1 0.931 . S
H29 C3 0.929 . S
H30 C4 0.930 . S
H31 C5 0.931 . S
H32 C12 0.932 . S
H33 C13 0.930 . S
H34 C14 0.929 . S
H35 C16 0.930 . S
H36 C18 0.932 . S
H37 C19 0.929 . S
H38 C20 0.928 . S
H39 C22 0.932 . S
C40 C41 1.264 . S
C40 C45 1.479 . S
C40 C50 1.465 . S
C41 C40 1.264 . S
C41 C43 1.339 . S
C41 H68 0.931 . S
C42 C43 1.395 . S
C42 C44 1.320 . S
C43 C41 1.339 . S
C43 C42 1.395 . S
C43 H69 0.929 . S
C44 C42 1.320 . S
C44 C45 1.405 . S
C44 H70 0.930 . S
C45 C40 1.479 . S
C45 C44 1.405 . S
C45 H71 0.931 . S
U46 O47 2.454 . S
U46 O48 2.458 . S
U46 C49 2.984 . S
U46 C50 2.847 . S
U46 C63 2.882 . S
U46 O64 2.441 . S
U46 O65 2.420 . S
U46 O66 2.455 . S
U46 O67 2.449 . S
O47 U46 2.454 . S
O47 C49 1.353 . S
O48 U46 2.458 . S
O48 C49 1.286 . S
C49 U46 2.984 . S
C49 O47 1.353 . S
C49 O48 1.286 . S
C49 C51 1.363 . S
C50 C40 1.465 . S
C50 U46 2.847 . S
C50 O64 1.249 . S
C50 O65 1.202 . S
C51 C49 1.363 . S
C51 C53 1.408 . S
C51 C56 1.342 . S
C52 C53 1.310 . S
C52 C55 1.461 . S
C52 H72 0.932 . S
C53 C51 1.408 . S
C53 C52 1.310 . S
C53 H73 0.930 . S
C54 C55 1.474 . S
C54 C56 1.285 . S
C54 H74 0.929 . S
C55 C52 1.461 . S
C55 C54 1.474 . S
C56 C51 1.342 . S
C56 C54 1.285 . S
C56 H75 0.930 . S
C57 C60 1.424 . S
C57 C62 1.245 . S
C57 C63 1.428 . S
C58 C61 1.260 . S
C58 C62 1.477 . S
C58 H76 0.932 . S
C59 C60 1.384 . S
C59 C61 1.479 . S
C59 H77 0.929 . S
C60 C57 1.424 . S
C60 C59 1.384 . S
C60 H78 0.928 . S
C61 C58 1.260 . S
C61 C59 1.479 . S
C62 C57 1.245 . S
C62 C58 1.477 . S
C62 H79 0.932 . S
C63 U46 2.882 . S
C63 C57 1.428 . S
C63 O66 1.301 . S
C63 O67 1.282 . S
O64 U46 2.441 . S
O64 C50 1.249 . S
O65 U46 2.420 . S
O65 C50 1.202 . S
O66 U46 2.455 . S
O66 C63 1.301 . S
O67 U46 2.449 . S
O67 C63 1.282 . S
H68 C41 0.931 . S
H69 C43 0.929 . S
H70 C44 0.930 . S
H71 C45 0.931 . S
H72 C52 0.932 . S
H73 C53 0.930 . S
H74 C54 0.929 . S
H75 C56 0.930 . S
H76 C58 0.932 . S
H77 C59 0.929 . S
H78 C60 0.928 . S
H79 C62 0.932 . S
C80 C81 1.264 . S
C80 C85 1.479 . S
C80 C90 1.465 . S
C81 C80 1.264 . S
C81 C83 1.339 . S
C81 H108 0.931 . S
C82 C83 1.395 . S
C82 C84 1.320 . S
C83 C81 1.339 . S
C83 C82 1.395 . S
C83 H109 0.929 . S
C84 C82 1.320 . S
C84 C85 1.405 . S
C84 H110 0.930 . S
C85 C80 1.479 . S
C85 C84 1.405 . S
C85 H111 0.931 . S
U86 O87 2.454 . S
U86 O88 2.458 . S
U86 C89 2.984 . S
U86 C90 2.847 . S
U86 C103 2.882 . S
U86 O104 2.441 . S
U86 O105 2.420 . S
U86 O106 2.455 . S
U86 O107 2.449 . S
O87 U86 2.454 . S
O87 C89 1.353 . S
O88 U86 2.458 . S
O88 C89 1.286 . S
C89 U86 2.984 . S
C89 O87 1.353 . S
C89 O88 1.286 . S
C89 C91 1.363 . S
C90 C80 1.465 . S
C90 U86 2.847 . S
C90 O104 1.249 . S
C90 O105 1.202 . S
C91 C89 1.363 . S
C91 C93 1.408 . S
C91 C96 1.342 . S
C92 C93 1.310 . S
C92 C95 1.461 . S
C92 H112 0.932 . S
C93 C91 1.408 . S
C93 C92 1.310 . S
C93 H113 0.930 . S
C94 C95 1.474 . S
C94 C96 1.285 . S
C94 H114 0.929 . S
C95 C92 1.461 . S
C95 C94 1.474 . S
C96 C91 1.342 . S
C96 C94 1.285 . S
C96 H115 0.930 . S
C97 C100 1.424 . S
C97 C102 1.245 . S
C97 C103 1.428 . S
C98 C101 1.260 . S
C98 C102 1.477 . S
C98 H116 0.932 . S
C99 C100 1.384 . S
C99 C101 1.479 . S
C99 H117 0.929 . S
C100 C97 1.424 . S
C100 C99 1.384 . S
C100 H118 0.928 . S
C101 C98 1.260 . S
C101 C99 1.479 . S
C102 C97 1.245 . S
C102 C98 1.477 . S
C102 H119 0.932 . S
C103 U86 2.882 . S
C103 C97 1.428 . S
C103 O106 1.301 . S
C103 O107 1.282 . S
O104 U86 2.441 . S
O104 C90 1.249 . S
O105 U86 2.420 . S
O105 C90 1.202 . S
O106 U86 2.455 . S
O106 C103 1.301 . S
O107 U86 2.449 . S
O107 C103 1.282 . S
H108 C81 0.931 . S
H109 C83 0.929 . S
H110 C84 0.930 . S
H111 C85 0.931 . S
H112 C92 0.932 . S
H113 C93 0.930 . S
H114 C94 0.929 . S
H115 C96 0.930 . S
H116 C98 0.932 . S
H117 C99 0.929 . S
H118 C100 0.928 . S
H119 C102 0.932 . S
C120 C121 1.264 . S
C120 C125 1.479 . S
C120 C130 1.465 . S
C121 C120 1.264 . S
C121 C123 1.339 . S
C121 H148 0.931 . S
C122 C123 1.395 . S
C122 C124 1.320 . S
C123 C121 1.339 . S
C123 C122 1.395 . S
C123 H149 0.929 . S
C124 C122 1.320 . S
C124 C125 1.405 . S
C124 H150 0.930 . S
C125 C120 1.479 . S
C125 C124 1.405 . S
C125 H151 0.931 . S
U126 O127 2.454 . S
U126 O128 2.458 . S
U126 C129 2.984 . S
U126 C130 2.847 . S
U126 C143 2.882 . S
U126 O144 2.441 . S
U126 O145 2.420 . S
U126 O146 2.455 . S
U126 O147 2.449 . S
O127 U126 2.454 . S
O127 C129 1.353 . S
O128 U126 2.458 . S
O128 C129 1.286 . S
C129 U126 2.984 . S
C129 O127 1.353 . S
C129 O128 1.286 . S
C129 C131 1.363 . S
C130 C120 1.465 . S
C130 U126 2.847 . S
C130 O144 1.249 . S
C130 O145 1.202 . S
C131 C129 1.363 . S
C131 C133 1.408 . S
C131 C136 1.342 . S
C132 C133 1.310 . S
C132 C135 1.461 . S
C132 H152 0.932 . S
C133 C131 1.408 . S
C133 C132 1.310 . S
C133 H153 0.930 . S
C134 C135 1.474 . S
C134 C136 1.285 . S
C134 H154 0.929 . S
C135 C132 1.461 . S
C135 C134 1.474 . S
C136 C131 1.342 . S
C136 C134 1.285 . S
C136 H155 0.930 . S
C137 C140 1.424 . S
C137 C142 1.245 . S
C137 C143 1.428 . S
C138 C141 1.260 . S
C138 C142 1.477 . S
C138 H156 0.932 . S
C139 C140 1.384 . S
C139 C141 1.479 . S
C139 H157 0.929 . S
C140 C137 1.424 . S
C140 C139 1.384 . S
C140 H158 0.928 . S
C141 C138 1.260 . S
C141 C139 1.479 . S
C142 C137 1.245 . S
C142 C138 1.477 . S
C142 H159 0.932 . S
C143 U126 2.882 . S
C143 C137 1.428 . S
C143 O146 1.301 . S
C143 O147 1.282 . S
O144 U126 2.441 . S
O144 C130 1.249 . S
O145 U126 2.420 . S
O145 C130 1.202 . S
O146 U126 2.455 . S
O146 C143 1.301 . S
O147 U126 2.449 . S
O147 C143 1.282 . S
H148 C121 0.931 . S
H149 C123 0.929 . S
H150 C124 0.930 . S
H151 C125 0.931 . S
H152 C132 0.932 . S
H153 C133 0.930 . S
H154 C134 0.929 . S
H155 C136 0.930 . S
H156 C138 0.932 . S
H157 C139 0.929 . S
H158 C140 0.928 . S
H159 C142 0.932 . S
C160 C161 1.264 . S
C160 C165 1.479 . S
C160 C170 1.465 . S
C161 C160 1.264 . S
C161 C163 1.339 . S
C161 H188 0.931 . S
C162 C163 1.395 . S
C162 C164 1.320 . S
C163 C161 1.339 . S
C163 C162 1.395 . S
C163 H189 0.929 . S
C164 C162 1.320 . S
C164 C165 1.405 . S
C164 H190 0.930 . S
C165 C160 1.479 . S
C165 C164 1.405 . S
C165 H191 0.931 . S
U166 O167 2.454 . S
U166 O168 2.458 . S
U166 C169 2.984 . S
U166 C170 2.847 . S
U166 C183 2.882 . S
U166 O184 2.441 . S
U166 O185 2.420 . S
U166 O186 2.455 . S
U166 O187 2.449 . S
O167 U166 2.454 . S
O167 C169 1.353 . S
O168 U166 2.458 . S
O168 C169 1.286 . S
C169 U166 2.984 . S
C169 O167 1.353 . S
C169 O168 1.286 . S
C169 C171 1.363 . S
C170 C160 1.465 . S
C170 U166 2.847 . S
C170 O184 1.249 . S
C170 O185 1.202 . S
C171 C169 1.363 . S
C171 C173 1.408 . S
C171 C176 1.342 . S
C172 C173 1.310 . S
C172 C175 1.461 . S
C172 H192 0.932 . S
C173 C171 1.408 . S
C173 C172 1.310 . S
C173 H193 0.930 . S
C174 C175 1.474 . S
C174 C176 1.285 . S
C174 H194 0.929 . S
C175 C172 1.461 . S
C175 C174 1.474 . S
C176 C171 1.342 . S
C176 C174 1.285 . S
C176 H195 0.930 . S
C177 C180 1.424 . S
C177 C182 1.245 . S
C177 C183 1.428 . S
C178 C181 1.260 1_565 S
C178 C182 1.477 . S
C178 H196 0.932 . S
C179 C180 1.384 1_545 S
C179 C181 1.479 . S
C179 H197 0.929 . S
C180 C177 1.424 . S
C180 C179 1.384 1_565 S
C180 H198 0.928 . S
C181 C178 1.260 1_545 S
C181 C179 1.479 . S
C182 C177 1.245 . S
C182 C178 1.477 . S
C182 H199 0.932 . S
C183 U166 2.882 . S
C183 C177 1.428 . S
C183 O186 1.301 . S
C183 O187 1.282 . S
O184 U166 2.441 . S
O184 C170 1.249 . S
O185 U166 2.420 . S
O185 C170 1.202 . S
O186 U166 2.455 . S
O186 C183 1.301 . S
O187 U166 2.449 . S
O187 C183 1.282 . S
H188 C161 0.931 . S
H189 C163 0.929 . S
H190 C164 0.930 . S
H191 C165 0.931 . S
H192 C172 0.932 . S
H193 C173 0.930 . S
H194 C174 0.929 . S
H195 C176 0.930 . S
H196 C178 0.932 . S
H197 C179 0.929 . S
H198 C180 0.928 . S
H199 C182 0.932 . S
C200 C201 1.264 . S
C200 C205 1.479 . S
C200 C210 1.465 . S
C201 C200 1.264 . S
C201 C203 1.339 . S
C201 H228 0.931 . S
C202 C203 1.395 . S
C202 C204 1.320 . S
C203 C201 1.339 . S
C203 C202 1.395 . S
C203 H229 0.929 . S
C204 C202 1.320 . S
C204 C205 1.405 . S
C204 H230 0.930 . S
C205 C200 1.479 . S
C205 C204 1.405 . S
C205 H231 0.931 . S
U206 O207 2.454 . S
U206 O208 2.458 . S
U206 C209 2.984 . S
U206 C210 2.847 . S
U206 C223 2.882 . S
U206 O224 2.441 . S
U206 O225 2.420 . S
U206 O226 2.455 . S
U206 O227 2.449 . S
O207 U206 2.454 . S
O207 C209 1.353 . S
O208 U206 2.458 . S
O208 C209 1.286 . S
C209 U206 2.984 . S
C209 O207 1.353 . S
C209 O208 1.286 . S
C209 C211 1.363 . S
C210 C200 1.465 . S
C210 U206 2.847 . S
C210 O224 1.249 . S
C210 O225 1.202 . S
C211 C209 1.363 . S
C211 C213 1.408 . S
C211 C216 1.342 . S
C212 C213 1.310 . S
C212 C215 1.461 . S
C212 H232 0.932 . S
C213 C211 1.408 . S
C213 C212 1.310 . S
C213 H233 0.930 . S
C214 C215 1.474 . S
C214 C216 1.285 . S
C214 H234 0.929 . S
C215 C212 1.461 . S
C215 C214 1.474 . S
C216 C211 1.342 . S
C216 C214 1.285 . S
C216 H235 0.930 . S
C217 C220 1.424 . S
C217 C222 1.245 . S
C217 C223 1.428 . S
C218 C221 1.260 . S
C218 C222 1.477 . S
C218 H236 0.932 . S
C219 C220 1.384 . S
C219 C221 1.479 . S
C219 H237 0.929 . S
C220 C217 1.424 . S
C220 C219 1.384 . S
C220 H238 0.928 . S
C221 C218 1.260 . S
C221 C219 1.479 . S
C222 C217 1.245 . S
C222 C218 1.477 . S
C222 H239 0.932 . S
C223 U206 2.882 . S
C223 C217 1.428 . S
C223 O226 1.301 . S
C223 O227 1.282 . S
O224 U206 2.441 . S
O224 C210 1.249 . S
O225 U206 2.420 . S
O225 C210 1.202 . S
O226 U206 2.455 . S
O226 C223 1.301 . S
O227 U206 2.449 . S
O227 C223 1.282 . S
H228 C201 0.931 . S
H229 C203 0.929 . S
H230 C204 0.930 . S
H231 C205 0.931 . S
H232 C212 0.932 . S
H233 C213 0.930 . S
H234 C214 0.929 . S
H235 C216 0.930 . S
H236 C218 0.932 . S
H237 C219 0.929 . S
H238 C220 0.928 . S
H239 C222 0.932 . S
C240 C241 1.264 . S
C240 C245 1.479 . S
C240 C250 1.465 . S
C241 C240 1.264 . S
C241 C243 1.339 . S
C241 H268 0.931 . S
C242 C243 1.395 . S
C242 C244 1.320 . S
C243 C241 1.339 . S
C243 C242 1.395 . S
C243 H269 0.929 . S
C244 C242 1.320 . S
C244 C245 1.405 . S
C244 H270 0.930 . S
C245 C240 1.479 . S
C245 C244 1.405 . S
C245 H271 0.931 . S
U246 O247 2.454 . S
U246 O248 2.458 . S
U246 C249 2.984 . S
U246 C250 2.847 . S
U246 C263 2.882 . S
U246 O264 2.441 . S
U246 O265 2.420 . S
U246 O266 2.455 . S
U246 O267 2.449 . S
O247 U246 2.454 . S
O247 C249 1.353 . S
O248 U246 2.458 . S
O248 C249 1.286 . S
C249 U246 2.984 . S
C249 O247 1.353 . S
C249 O248 1.286 . S
C249 C251 1.363 . S
C250 C240 1.465 . S
C250 U246 2.847 . S
C250 O264 1.249 . S
C250 O265 1.202 . S
C251 C249 1.363 . S
C251 C253 1.408 . S
C251 C256 1.342 . S
C252 C253 1.310 . S
C252 C255 1.461 . S
C252 H272 0.932 . S
C253 C251 1.408 . S
C253 C252 1.310 . S
C253 H273 0.930 . S
C254 C255 1.474 . S
C254 C256 1.285 . S
C254 H274 0.929 . S
C255 C252 1.461 . S
C255 C254 1.474 . S
C256 C251 1.342 . S
C256 C254 1.285 . S
C256 H275 0.930 . S
C257 C260 1.424 . S
C257 C262 1.245 . S
C257 C263 1.428 . S
C258 C261 1.260 . S
C258 C262 1.477 . S
C258 H276 0.932 . S
C259 C260 1.384 . S
C259 C261 1.479 . S
C259 H277 0.929 . S
C260 C257 1.424 . S
C260 C259 1.384 . S
C260 H278 0.928 . S
C261 C258 1.260 . S
C261 C259 1.479 . S
C262 C257 1.245 . S
C262 C258 1.477 . S
C262 H279 0.932 . S
C263 U246 2.882 . S
C263 C257 1.428 . S
C263 O266 1.301 . S
C263 O267 1.282 . S
O264 U246 2.441 . S
O264 C250 1.249 . S
O265 U246 2.420 . S
O265 C250 1.202 . S
O266 U246 2.455 . S
O266 C263 1.301 . S
O267 U246 2.449 . S
O267 C263 1.282 . S
H268 C241 0.931 . S
H269 C243 0.929 . S
H270 C244 0.930 . S
H271 C245 0.931 . S
H272 C252 0.932 . S
H273 C253 0.930 . S
H274 C254 0.929 . S
H275 C256 0.930 . S
H276 C258 0.932 . S
H277 C259 0.929 . S
H278 C260 0.928 . S
H279 C262 0.932 . S
C280 C281 1.264 . S
C280 C285 1.479 . S
C280 C290 1.465 . S
C281 C280 1.264 . S
C281 C283 1.339 . S
C281 H308 0.931 . S
C282 C283 1.395 . S
C282 C284 1.320 . S
C283 C281 1.339 . S
C283 C282 1.395 . S
C283 H309 0.929 . S
C284 C282 1.320 . S
C284 C285 1.405 . S
C284 H310 0.930 . S
C285 C280 1.479 . S
C285 C284 1.405 . S
C285 H311 0.931 . S
U286 O287 2.454 . S
U286 O288 2.458 . S
U286 C289 2.984 . S
U286 C290 2.847 . S
U286 C303 2.882 . S
U286 O304 2.441 . S
U286 O305 2.420 . S
U286 O306 2.455 . S
U286 O307 2.449 . S
O287 U286 2.454 . S
O287 C289 1.353 . S
O288 U286 2.458 . S
O288 C289 1.286 . S
C289 U286 2.984 . S
C289 O287 1.353 . S
C289 O288 1.286 . S
C289 C291 1.363 . S
C290 C280 1.465 . S
C290 U286 2.847 . S
C290 O304 1.249 . S
C290 O305 1.202 . S
C291 C289 1.363 . S
C291 C293 1.408 . S
C291 C296 1.342 . S
C292 C293 1.310 . S
C292 C295 1.461 . S
C292 H312 0.932 . S
C293 C291 1.408 . S
C293 C292 1.310 . S
C293 H313 0.930 . S
C294 C295 1.474 . S
C294 C296 1.285 . S
C294 H314 0.929 . S
C295 C292 1.461 . S
C295 C294 1.474 . S
C296 C291 1.342 . S
C296 C294 1.285 . S
C296 H315 0.930 . S
C297 C300 1.424 . S
C297 C302 1.245 . S
C297 C303 1.428 . S
C298 C301 1.260 . S
C298 C302 1.477 . S
C298 H316 0.932 . S
C299 C300 1.384 . S
C299 C301 1.479 . S
C299 H317 0.929 . S
C300 C297 1.424 . S
C300 C299 1.384 . S
C300 H318 0.928 . S
C301 C298 1.260 . S
C301 C299 1.479 . S
C302 C297 1.245 . S
C302 C298 1.477 . S
C302 H319 0.932 . S
C303 U286 2.882 . S
C303 C297 1.428 . S
C303 O306 1.301 . S
C303 O307 1.282 . S
O304 U286 2.441 . S
O304 C290 1.249 . S
O305 U286 2.420 . S
O305 C290 1.202 . S
O306 U286 2.455 . S
O306 C303 1.301 . S
O307 U286 2.449 . S
O307 C303 1.282 . S
H308 C281 0.931 . S
H309 C283 0.929 . S
H310 C284 0.930 . S
H311 C285 0.931 . S
H312 C292 0.932 . S
H313 C293 0.930 . S
H314 C294 0.929 . S
H315 C296 0.930 . S
H316 C298 0.932 . S
H317 C299 0.929 . S
H318 C300 0.928 . S
H319 C302 0.932 . S
C320 C321 1.264 . S
C320 C325 1.479 . S
C320 C330 1.465 . S
C321 C320 1.264 . S
C321 C323 1.339 . S
C321 H348 0.931 . S
C322 C323 1.395 . S
C322 C324 1.320 . S
C323 C321 1.339 . S
C323 C322 1.395 . S
C323 H349 0.929 . S
C324 C322 1.320 . S
C324 C325 1.405 . S
C324 H350 0.930 . S
C325 C320 1.479 . S
C325 C324 1.405 . S
C325 H351 0.931 . S
U326 O327 2.454 . S
U326 O328 2.458 . S
U326 C329 2.984 . S
U326 C330 2.847 . S
U326 C343 2.882 . S
U326 O344 2.441 . S
U326 O345 2.420 . S
U326 O346 2.455 . S
U326 O347 2.449 . S
O327 U326 2.454 . S
O327 C329 1.353 . S
O328 U326 2.458 . S
O328 C329 1.286 . S
C329 U326 2.984 . S
C329 O327 1.353 . S
C329 O328 1.286 . S
C329 C331 1.363 . S
C330 C320 1.465 . S
C330 U326 2.847 . S
C330 O344 1.249 . S
C330 O345 1.202 . S
C331 C329 1.363 . S
C331 C333 1.408 . S
C331 C336 1.342 . S
C332 C333 1.310 . S
C332 C335 1.461 . S
C332 H352 0.932 . S
C333 C331 1.408 . S
C333 C332 1.310 . S
C333 H353 0.930 . S
C334 C335 1.474 . S
C334 C336 1.285 . S
C334 H354 0.929 . S
C335 C332 1.461 . S
C335 C334 1.474 . S
C336 C331 1.342 . S
C336 C334 1.285 . S
C336 H355 0.930 . S
C337 C340 1.424 . S
C337 C342 1.245 . S
C337 C343 1.428 . S
C338 C341 1.260 . S
C338 C342 1.477 . S
C338 H356 0.932 . S
C339 C340 1.384 . S
C339 C341 1.479 . S
C339 H357 0.929 . S
C340 C337 1.424 . S
C340 C339 1.384 . S
C340 H358 0.928 . S
C341 C338 1.260 . S
C341 C339 1.479 . S
C342 C337 1.245 . S
C342 C338 1.477 . S
C342 H359 0.932 . S
C343 U326 2.882 . S
C343 C337 1.428 . S
C343 O346 1.301 . S
C343 O347 1.282 . S
O344 U326 2.441 . S
O344 C330 1.249 . S
O345 U326 2.420 . S
O345 C330 1.202 . S
O346 U326 2.455 . S
O346 C343 1.301 . S
O347 U326 2.449 . S
O347 C343 1.282 . S
H348 C321 0.931 . S
H349 C323 0.929 . S
H350 C324 0.930 . S
H351 C325 0.931 . S
H352 C332 0.932 . S
H353 C333 0.930 . S
H354 C334 0.929 . S
H355 C336 0.930 . S
H356 C338 0.932 . S
H357 C339 0.929 . S
H358 C340 0.928 . S
H359 C342 0.932 . S
C360 C361 1.264 . S
C360 C365 1.479 . S
C360 C370 1.465 . S
C361 C360 1.264 . S
C361 C363 1.339 . S
C361 H388 0.931 . S
C362 C363 1.395 . S
C362 C364 1.320 . S
C363 C361 1.339 . S
C363 C362 1.395 . S
C363 H389 0.929 . S
C364 C362 1.320 . S
C364 C365 1.405 . S
C364 H390 0.930 . S
C365 C360 1.479 . S
C365 C364 1.405 . S
C365 H391 0.931 . S
U366 O367 2.454 . S
U366 O368 2.458 . S
U366 C369 2.984 . S
U366 C370 2.847 . S
U366 C383 2.882 . S
U366 O384 2.441 . S
U366 O385 2.420 . S
U366 O386 2.455 . S
U366 O387 2.449 . S
O367 U366 2.454 . S
O367 C369 1.353 . S
O368 U366 2.458 . S
O368 C369 1.286 . S
C369 U366 2.984 . S
C369 O367 1.353 . S
C369 O368 1.286 . S
C369 C371 1.363 . S
C370 C360 1.465 . S
C370 U366 2.847 . S
C370 O384 1.249 . S
C370 O385 1.202 . S
C371 C369 1.363 . S
C371 C373 1.408 . S
C371 C376 1.342 . S
C372 C373 1.310 . S
C372 C375 1.461 . S
C372 H392 0.932 . S
C373 C371 1.408 . S
C373 C372 1.310 . S
C373 H393 0.930 . S
C374 C375 1.474 . S
C374 C376 1.285 . S
C374 H394 0.929 . S
C375 C372 1.461 . S
C375 C374 1.474 . S
C376 C371 1.342 . S
C376 C374 1.285 . S
C376 H395 0.930 . S
C377 C380 1.424 . S
C377 C382 1.245 . S
C377 C383 1.428 . S
C378 C381 1.260 . S
C378 C382 1.477 . S
C378 H396 0.932 . S
C379 C380 1.384 . S
C379 C381 1.479 . S
C379 H397 0.929 . S
C380 C377 1.424 . S
C380 C379 1.384 . S
C380 H398 0.928 . S
C381 C378 1.260 . S
C381 C379 1.479 . S
C382 C377 1.245 . S
C382 C378 1.477 . S
C382 H399 0.932 . S
C383 U366 2.882 . S
C383 C377 1.428 . S
C383 O386 1.301 . S
C383 O387 1.282 . S
O384 U366 2.441 . S
O384 C370 1.249 . S
O385 U366 2.420 . S
O385 C370 1.202 . S
O386 U366 2.455 . S
O386 C383 1.301 . S
O387 U366 2.449 . S
O387 C383 1.282 . S
H388 C361 0.931 . S
H389 C363 0.929 . S
H390 C364 0.930 . S
H391 C365 0.931 . S
H392 C372 0.932 . S
H393 C373 0.930 . S
H394 C374 0.929 . S
H395 C376 0.930 . S
H396 C378 0.932 . S
H397 C379 0.929 . S
H398 C380 0.928 . S
H399 C382 0.932 . S
C400 C401 1.264 . S
C400 C405 1.479 . S
C400 C410 1.465 . S
C401 C400 1.264 . S
C401 C403 1.339 . S
C401 H428 0.931 . S
C402 C403 1.395 . S
C402 C404 1.320 . S
C403 C401 1.339 . S
C403 C402 1.395 . S
C403 H429 0.929 . S
C404 C402 1.320 . S
C404 C405 1.405 . S
C404 H430 0.930 . S
C405 C400 1.479 . S
C405 C404 1.405 . S
C405 H431 0.931 . S
U406 O407 2.454 . S
U406 O408 2.458 . S
U406 C409 2.984 . S
U406 C410 2.847 . S
U406 C423 2.882 . S
U406 O424 2.441 . S
U406 O425 2.420 . S
U406 O426 2.455 . S
U406 O427 2.449 . S
O407 U406 2.454 . S
O407 C409 1.353 . S
O408 U406 2.458 . S
O408 C409 1.286 . S
C409 U406 2.984 . S
C409 O407 1.353 . S
C409 O408 1.286 . S
C409 C411 1.363 . S
C410 C400 1.465 . S
C410 U406 2.847 . S
C410 O424 1.249 . S
C410 O425 1.202 . S
C411 C409 1.363 . S
C411 C413 1.408 . S
C411 C416 1.342 . S
C412 C413 1.310 . S
C412 C415 1.461 . S
C412 H432 0.932 . S
C413 C411 1.408 . S
C413 C412 1.310 . S
C413 H433 0.930 . S
C414 C415 1.474 . S
C414 C416 1.285 . S
C414 H434 0.929 . S
C415 C412 1.461 . S
C415 C414 1.474 . S
C416 C411 1.342 . S
C416 C414 1.285 . S
C416 H435 0.930 . S
C417 C420 1.424 . S
C417 C422 1.245 . S
C417 C423 1.428 . S
C418 C421 1.260 . S
C418 C422 1.477 . S
C418 H436 0.932 . S
C419 C420 1.384 . S
C419 C421 1.479 . S
C419 H437 0.929 . S
C420 C417 1.424 . S
C420 C419 1.384 . S
C420 H438 0.928 . S
C421 C418 1.260 . S
C421 C419 1.479 . S
C422 C417 1.245 . S
C422 C418 1.477 . S
C422 H439 0.932 . S
C423 U406 2.882 . S
C423 C417 1.428 . S
C423 O426 1.301 . S
C423 O427 1.282 . S
O424 U406 2.441 . S
O424 C410 1.249 . S
O425 U406 2.420 . S
O425 C410 1.202 . S
O426 U406 2.455 . S
O426 C423 1.301 . S
O427 U406 2.449 . S
O427 C423 1.282 . S
H428 C401 0.931 . S
H429 C403 0.929 . S
H430 C404 0.930 . S
H431 C405 0.931 . S
H432 C412 0.932 . S
H433 C413 0.930 . S
H434 C414 0.929 . S
H435 C416 0.930 . S
H436 C418 0.932 . S
H437 C419 0.929 . S
H438 C420 0.928 . S
H439 C422 0.932 . S
C440 C441 1.264 . S
C440 C445 1.479 . S
C440 C450 1.465 . S
C441 C440 1.264 . S
C441 C443 1.339 . S
C441 H468 0.931 . S
C442 C443 1.395 . S
C442 C444 1.320 . S
C443 C441 1.339 . S
C443 C442 1.395 . S
C443 H469 0.929 . S
C444 C442 1.320 . S
C444 C445 1.405 . S
C444 H470 0.930 . S
C445 C440 1.479 . S
C445 C444 1.405 . S
C445 H471 0.931 . S
U446 O447 2.454 . S
U446 O448 2.458 . S
U446 C449 2.984 . S
U446 C450 2.847 . S
U446 C463 2.882 . S
U446 O464 2.441 . S
U446 O465 2.420 . S
U446 O466 2.455 . S
U446 O467 2.449 . S
O447 U446 2.454 . S
O447 C449 1.353 . S
O448 U446 2.458 . S
O448 C449 1.286 . S
C449 U446 2.984 . S
C449 O447 1.353 . S
C449 O448 1.286 . S
C449 C451 1.363 . S
C450 C440 1.465 . S
C450 U446 2.847 . S
C450 O464 1.249 . S
C450 O465 1.202 . S
C451 C449 1.363 . S
C451 C453 1.408 . S
C451 C456 1.342 . S
C452 C453 1.310 . S
C452 C455 1.461 . S
C452 H472 0.932 . S
C453 C451 1.408 . S
C453 C452 1.310 . S
C453 H473 0.930 . S
C454 C455 1.474 . S
C454 C456 1.285 . S
C454 H474 0.929 . S
C455 C452 1.461 . S
C455 C454 1.474 . S
C456 C451 1.342 . S
C456 C454 1.285 . S
C456 H475 0.930 . S
C457 C460 1.424 . S
C457 C462 1.245 . S
C457 C463 1.428 . S
C458 C461 1.260 . S
C458 C462 1.477 . S
C458 H476 0.932 . S
C459 C460 1.384 . S
C459 C461 1.479 . S
C459 H477 0.929 . S
C460 C457 1.424 . S
C460 C459 1.384 . S
C460 H478 0.928 . S
C461 C458 1.260 . S
C461 C459 1.479 . S
C462 C457 1.245 . S
C462 C458 1.477 . S
C462 H479 0.932 . S
C463 U446 2.882 . S
C463 C457 1.428 . S
C463 O466 1.301 . S
C463 O467 1.282 . S
O464 U446 2.441 . S
O464 C450 1.249 . S
O465 U446 2.420 . S
O465 C450 1.202 . S
O466 U446 2.455 . S
O466 C463 1.301 . S
O467 U446 2.449 . S
O467 C463 1.282 . S
H468 C441 0.931 . S
H469 C443 0.929 . S
H470 C444 0.930 . S
H471 C445 0.931 . S
H472 C452 0.932 . S
H473 C453 0.930 . S
H474 C454 0.929 . S
H475 C456 0.930 . S
H476 C458 0.932 . S
H477 C459 0.929 . S
H478 C460 0.928 . S
H479 C462 0.932 . S
C480 C481 1.264 . S
C480 C485 1.479 . S
C480 C490 1.465 . S
C481 C480 1.264 . S
C481 C483 1.339 . S
C481 H508 0.931 . S
C482 C483 1.395 . S
C482 C484 1.320 . S
C483 C481 1.339 . S
C483 C482 1.395 . S
C483 H509 0.929 . S
C484 C482 1.320 . S
C484 C485 1.405 . S
C484 H510 0.930 . S
C485 C480 1.479 . S
C485 C484 1.405 . S
C485 H511 0.931 . S
U486 O487 2.454 . S
U486 O488 2.458 . S
U486 C489 2.984 . S
U486 C490 2.847 . S
U486 C503 2.882 . S
U486 O504 2.441 . S
U486 O505 2.420 . S
U486 O506 2.455 . S
U486 O507 2.449 . S
O487 U486 2.454 . S
O487 C489 1.353 . S
O488 U486 2.458 . S
O488 C489 1.286 . S
C489 U486 2.984 . S
C489 O487 1.353 . S
C489 O488 1.286 . S
C489 C491 1.363 . S
C490 C480 1.465 . S
C490 U486 2.847 . S
C490 O504 1.249 . S
C490 O505 1.202 . S
C491 C489 1.363 . S
C491 C493 1.408 . S
C491 C496 1.342 . S
C492 C493 1.310 . S
C492 C495 1.461 . S
C492 H512 0.932 . S
C493 C491 1.408 . S
C493 C492 1.310 . S
C493 H513 0.930 . S
C494 C495 1.474 . S
C494 C496 1.285 . S
C494 H514 0.929 . S
C495 C492 1.461 . S
C495 C494 1.474 . S
C496 C491 1.342 . S
C496 C494 1.285 . S
C496 H515 0.930 . S
C497 C500 1.424 . S
C497 C502 1.245 . S
C497 C503 1.428 . S
C498 C501 1.260 . S
C498 C502 1.477 . S
C498 H516 0.932 . S
C499 C500 1.384 . S
C499 C501 1.479 . S
C499 H517 0.929 . S
C500 C497 1.424 . S
C500 C499 1.384 . S
C500 H518 0.928 . S
C501 C498 1.260 . S
C501 C499 1.479 . S
C502 C497 1.245 . S
C502 C498 1.477 . S
C502 H519 0.932 . S
C503 U486 2.882 . S
C503 C497 1.428 . S
C503 O506 1.301 . S
C503 O507 1.282 . S
O504 U486 2.441 . S
O504 C490 1.249 . S
O505 U486 2.420 . S
O505 C490 1.202 . S
O506 U486 2.455 . S
O506 C503 1.301 . S
O507 U486 2.449 . S
O507 C503 1.282 . S
H508 C481 0.931 . S
H509 C483 0.929 . S
H510 C484 0.930 . S
H511 C485 0.931 . S
H512 C492 0.932 . S
H513 C493 0.930 . S
H514 C494 0.929 . S
H515 C496 0.930 . S
H516 C498 0.932 . S
H517 C499 0.929 . S
H518 C500 0.928 . S
H519 C502 0.932 . S
C520 C521 1.264 . S
C520 C525 1.479 . S
C520 C530 1.465 . S
C521 C520 1.264 . S
C521 C523 1.339 . S
C521 H548 0.931 . S
C522 C523 1.395 . S
C522 C524 1.320 . S
C523 C521 1.339 . S
C523 C522 1.395 . S
C523 H549 0.929 . S
C524 C522 1.320 . S
C524 C525 1.405 . S
C524 H550 0.930 . S
C525 C520 1.479 . S
C525 C524 1.405 . S
C525 H551 0.931 . S
U526 O527 2.454 . S
U526 O528 2.458 . S
U526 C529 2.984 . S
U526 C530 2.847 . S
U526 C543 2.882 . S
U526 O544 2.441 . S
U526 O545 2.420 . S
U526 O546 2.455 . S
U526 O547 2.449 . S
O527 U526 2.454 . S
O527 C529 1.353 . S
O528 U526 2.458 . S
O528 C529 1.286 . S
C529 U526 2.984 . S
C529 O527 1.353 . S
C529 O528 1.286 . S
C529 C531 1.363 . S
C530 C520 1.465 . S
C530 U526 2.847 . S
C530 O544 1.249 . S
C530 O545 1.202 . S
C531 C529 1.363 . S
C531 C533 1.408 . S
C531 C536 1.342 . S
C532 C533 1.310 . S
C532 C535 1.461 . S
C532 H552 0.932 . S
C533 C531 1.408 . S
C533 C532 1.310 . S
C533 H553 0.930 . S
C534 C535 1.474 . S
C534 C536 1.285 . S
C534 H554 0.929 . S
C535 C532 1.461 . S
C535 C534 1.474 . S
C536 C531 1.342 . S
C536 C534 1.285 . S
C536 H555 0.930 . S
C537 C540 1.424 . S
C537 C542 1.245 . S
C537 C543 1.428 . S
C538 C541 1.260 . S
C538 C542 1.477 . S
C538 H556 0.932 . S
C539 C540 1.384 . S
C539 C541 1.479 . S
C539 H557 0.929 . S
C540 C537 1.424 . S
C540 C539 1.384 . S
C540 H558 0.928 . S
C541 C538 1.260 . S
C541 C539 1.479 . S
C542 C537 1.245 . S
C542 C538 1.477 . S
C542 H559 0.932 . S
C543 U526 2.882 . S
C543 C537 1.428 . S
C543 O546 1.301 . S
C543 O547 1.282 . S
O544 U526 2.441 . S
O544 C530 1.249 . S
O545 U526 2.420 . S
O545 C530 1.202 . S
O546 U526 2.455 . S
O546 C543 1.301 . S
O547 U526 2.449 . S
O547 C543 1.282 . S
H548 C521 0.931 . S
H549 C523 0.929 . S
H550 C524 0.930 . S
H551 C525 0.931 . S
H552 C532 0.932 . S
H553 C533 0.930 . S
H554 C534 0.929 . S
H555 C536 0.930 . S
H556 C538 0.932 . S
H557 C539 0.929 . S
H558 C540 0.928 . S
H559 C542 0.932 . S
C560 C561 1.264 . S
C560 C565 1.479 . S
C560 C570 1.465 . S
C561 C560 1.264 . S
C561 C563 1.339 . S
C561 H588 0.931 . S
C562 C563 1.395 . S
C562 C564 1.320 . S
C563 C561 1.339 . S
C563 C562 1.395 . S
C563 H589 0.929 . S
C564 C562 1.320 . S
C564 C565 1.405 . S
C564 H590 0.930 . S
C565 C560 1.479 . S
C565 C564 1.405 . S
C565 H591 0.931 . S
U566 O567 2.454 . S
U566 O568 2.458 . S
U566 C569 2.984 . S
U566 C570 2.847 . S
U566 C583 2.882 . S
U566 O584 2.441 . S
U566 O585 2.420 . S
U566 O586 2.455 . S
U566 O587 2.449 . S
O567 U566 2.454 . S
O567 C569 1.353 . S
O568 U566 2.458 . S
O568 C569 1.286 . S
C569 U566 2.984 . S
C569 O567 1.353 . S
C569 O568 1.286 . S
C569 C571 1.363 . S
C570 C560 1.465 . S
C570 U566 2.847 . S
C570 O584 1.249 . S
C570 O585 1.202 . S
C571 C569 1.363 . S
C571 C573 1.408 . S
C571 C576 1.342 . S
C572 C573 1.310 . S
C572 C575 1.461 . S
C572 H592 0.932 . S
C573 C571 1.408 . S
C573 C572 1.310 . S
C573 H593 0.930 . S
C574 C575 1.474 . S
C574 C576 1.285 . S
C574 H594 0.929 . S
C575 C572 1.461 . S
C575 C574 1.474 . S
C576 C571 1.342 . S
C576 C574 1.285 . S
C576 H595 0.930 . S
C577 C580 1.424 . S
C577 C582 1.245 . S
C577 C583 1.428 . S
C578 C581 1.260 . S
C578 C582 1.477 . S
C578 H596 0.932 . S
C579 C580 1.384 . S
C579 C581 1.479 . S
C579 H597 0.929 . S
C580 C577 1.424 . S
C580 C579 1.384 . S
C580 H598 0.928 . S
C581 C578 1.260 . S
C581 C579 1.479 . S
C582 C577 1.245 . S
C582 C578 1.477 . S
C582 H599 0.932 . S
C583 U566 2.882 . S
C583 C577 1.428 . S
C583 O586 1.301 . S
C583 O587 1.282 . S
O584 U566 2.441 . S
O584 C570 1.249 . S
O585 U566 2.420 . S
O585 C570 1.202 . S
O586 U566 2.455 . S
O586 C583 1.301 . S
O587 U566 2.449 . S
O587 C583 1.282 . S
H588 C561 0.931 . S
H589 C563 0.929 . S
H590 C564 0.930 . S
H591 C565 0.931 . S
H592 C572 0.932 . S
H593 C573 0.930 . S
H594 C574 0.929 . S
H595 C576 0.930 . S
H596 C578 0.932 . S
H597 C579 0.929 . S
H598 C580 0.928 . S
H599 C582 0.932 . S
C600 C601 1.264 . S
C600 C605 1.479 . S
C600 C610 1.465 . S
C601 C600 1.264 . S
C601 C603 1.339 . S
C601 H628 0.931 . S
C602 C603 1.395 . S
C602 C604 1.320 . S
C603 C601 1.339 . S
C603 C602 1.395 . S
C603 H629 0.929 . S
C604 C602 1.320 . S
C604 C605 1.405 . S
C604 H630 0.930 . S
C605 C600 1.479 . S
C605 C604 1.405 . S
C605 H631 0.931 . S
U606 O607 2.454 . S
U606 O608 2.458 . S
U606 C609 2.984 . S
U606 C610 2.847 . S
U606 C623 2.882 . S
U606 O624 2.441 . S
U606 O625 2.420 . S
U606 O626 2.455 . S
U606 O627 2.449 . S
O607 U606 2.454 . S
O607 C609 1.353 . S
O608 U606 2.458 . S
O608 C609 1.286 . S
C609 U606 2.984 . S
C609 O607 1.353 . S
C609 O608 1.286 . S
C609 C611 1.363 . S
C610 C600 1.465 . S
C610 U606 2.847 . S
C610 O624 1.249 . S
C610 O625 1.202 . S
C611 C609 1.363 . S
C611 C613 1.408 . S
C611 C616 1.342 . S
C612 C613 1.310 . S
C612 C615 1.461 . S
C612 H632 0.932 . S
C613 C611 1.408 . S
C613 C612 1.310 . S
C613 H633 0.930 . S
C614 C615 1.474 . S
C614 C616 1.285 . S
C614 H634 0.929 . S
C615 C612 1.461 . S
C615 C614 1.474 . S
C616 C611 1.342 . S
C616 C614 1.285 . S
C616 H635 0.930 . S
C617 C620 1.424 . S
C617 C622 1.245 . S
C617 C623 1.428 . S
C618 C621 1.260 . S
C618 C622 1.477 . S
C618 H636 0.932 . S
C619 C620 1.384 . S
C619 C621 1.479 . S
C619 H637 0.929 . S
C620 C617 1.424 . S
C620 C619 1.384 . S
C620 H638 0.928 . S
C621 C618 1.260 . S
C621 C619 1.479 . S
C622 C617 1.245 . S
C622 C618 1.477 . S
C622 H639 0.932 . S
C623 U606 2.882 . S
C623 C617 1.428 . S
C623 O626 1.301 . S
C623 O627 1.282 . S
O624 U606 2.441 . S
O624 C610 1.249 . S
O625 U606 2.420 . S
O625 C610 1.202 . S
O626 U606 2.455 . S
O626 C623 1.301 . S
O627 U606 2.449 . S
O627 C623 1.282 . S
H628 C601 0.931 . S
H629 C603 0.929 . S
H630 C604 0.930 . S
H631 C605 0.931 . S
H632 C612 0.932 . S
H633 C613 0.930 . S
H634 C614 0.929 . S
H635 C616 0.930 . S
H636 C618 0.932 . S
H637 C619 0.929 . S
H638 C620 0.928 . S
H639 C622 0.932 . S
O640 Cd641 2.223 . S
O640 C648 1.315 . S
Cd641 O640 2.223 . S
Cd641 O644 2.297 . S
Cd641 O645 2.439 . S
Cd641 O651 2.240 . S
Cd642 O643 2.240 . S
Cd642 O650 2.223 . S
Cd642 O652 2.297 . S
Cd642 O653 2.439 . S
O643 Cd642 2.240 . S
O643 C648 1.279 . S
O644 Cd641 2.297 . S
O644 C646 1.247 . S
O645 Cd641 2.439 . S
O645 C646 1.208 . S
C646 O644 1.247 . S
C646 O645 1.208 . S
C647 O652 1.247 . S
C647 O653 1.208 . S
C648 O640 1.315 . S
C648 O643 1.279 . S
C649 O650 1.315 . S
C649 O651 1.279 . S
O650 Cd642 2.223 . S
O650 C649 1.315 . S
O651 Cd641 2.240 . S
O651 C649 1.279 . S
O652 Cd642 2.297 . S
O652 C647 1.247 . S
O653 Cd642 2.439 . S
O653 C647 1.208 . S
O654 Cd655 2.223 . S
O654 C662 1.315 . S
Cd655 O654 2.223 . S
Cd655 O658 2.297 . S
Cd655 O659 2.439 . S
Cd655 O665 2.240 . S
Cd656 O657 2.240 . S
Cd656 O664 2.223 . S
Cd656 O666 2.297 . S
Cd656 O667 2.439 . S
O657 Cd656 2.240 . S
O657 C662 1.279 . S
O658 Cd655 2.297 . S
O658 C660 1.247 . S
O659 Cd655 2.439 . S
O659 C660 1.208 . S
C660 O658 1.247 . S
C660 O659 1.208 . S
C661 O666 1.247 . S
C661 O667 1.208 . S
C662 O654 1.315 . S
C662 O657 1.279 . S
C663 O664 1.315 . S
C663 O665 1.279 . S
O664 Cd656 2.223 . S
O664 C663 1.315 . S
O665 Cd655 2.240 . S
O665 C663 1.279 . S
O666 Cd656 2.297 . S
O666 C661 1.247 . S
O667 Cd656 2.439 . S
O667 C661 1.208 . S
O668 Cd669 2.223 1_556 S
O668 C676 1.315 . S
Cd669 O668 2.223 1_554 S
Cd669 O672 2.297 . S
Cd669 O673 2.439 . S
Cd669 O679 2.240 . S
Cd670 O671 2.240 . S
Cd670 O678 2.223 . S
Cd670 O680 2.297 1_556 S
Cd670 O681 2.439 1_556 S
O671 Cd670 2.240 . S
O671 C676 1.279 . S
O672 Cd669 2.297 . S
O672 C674 1.247 . S
O673 Cd669 2.439 . S
O673 C674 1.208 . S
C674 O672 1.247 . S
C674 O673 1.208 . S
C675 O680 1.247 . S
C675 O681 1.208 . S
C676 O668 1.315 . S
C676 O671 1.279 . S
C677 O678 1.315 . S
C677 O679 1.279 1_556 S
O678 Cd670 2.223 . S
O678 C677 1.315 . S
O679 Cd669 2.240 . S
O679 C677 1.279 1_554 S
O680 Cd670 2.297 1_554 S
O680 C675 1.247 . S
O681 Cd670 2.439 1_554 S
O681 C675 1.208 . S
O682 Cd683 2.223 . S
O682 C690 1.315 . S
Cd683 O682 2.223 . S
Cd683 O686 2.297 . S
Cd683 O687 2.439 . S
Cd683 O693 2.240 . S
Cd684 O685 2.240 . S
Cd684 O692 2.223 . S
Cd684 O694 2.297 . S
Cd684 O695 2.439 . S
O685 Cd684 2.240 . S
O685 C690 1.279 . S
O686 Cd683 2.297 . S
O686 C688 1.247 . S
O687 Cd683 2.439 . S
O687 C688 1.208 . S
C688 O686 1.247 . S
C688 O687 1.208 . S
C689 O694 1.247 . S
C689 O695 1.208 . S
C690 O682 1.315 . S
C690 O685 1.279 . S
C691 O692 1.315 . S
C691 O693 1.279 . S
O692 Cd684 2.223 . S
O692 C691 1.315 . S
O693 Cd683 2.240 . S
O693 C691 1.279 . S
O694 Cd684 2.297 . S
O694 C689 1.247 . S
O695 Cd684 2.439 . S
O695 C689 1.208 . S
O696 Cd697 2.223 . S
O696 C704 1.315 . S
Cd697 O696 2.223 . S
Cd697 O700 2.297 . S
Cd697 O701 2.439 . S
Cd697 O707 2.240 . S
Cd698 O699 2.240 . S
Cd698 O706 2.223 . S
Cd698 O708 2.297 . S
Cd698 O709 2.439 . S
O699 Cd698 2.240 . S
O699 C704 1.279 . S
O700 Cd697 2.297 . S
O700 C702 1.247 . S
O701 Cd697 2.439 . S
O701 C702 1.208 . S
C702 O700 1.247 . S
C702 O701 1.208 . S
C703 O708 1.247 . S
C703 O709 1.208 . S
C704 O696 1.315 . S
C704 O699 1.279 . S
C705 O706 1.315 . S
C705 O707 1.279 . S
O706 Cd698 2.223 . S
O706 C705 1.315 . S
O707 Cd697 2.240 . S
O707 C705 1.279 . S
O708 Cd698 2.297 . S
O708 C703 1.247 . S
O709 Cd698 2.439 . S
O709 C703 1.208 . S
O710 Cd711 2.223 . S
O710 C718 1.315 . S
Cd711 O710 2.223 . S
Cd711 O714 2.297 . S
Cd711 O715 2.439 . S
Cd711 O721 2.240 . S
Cd712 O713 2.240 . S
Cd712 O720 2.223 . S
Cd712 O722 2.297 . S
Cd712 O723 2.439 . S
O713 Cd712 2.240 . S
O713 C718 1.279 . S
O714 Cd711 2.297 . S
O714 C716 1.247 . S
O715 Cd711 2.439 . S
O715 C716 1.208 . S
C716 O714 1.247 . S
C716 O715 1.208 . S
C717 O722 1.247 . S
C717 O723 1.208 . S
C718 O710 1.315 . S
C718 O713 1.279 . S
C719 O720 1.315 . S
C719 O721 1.279 . S
O720 Cd712 2.223 . S
O720 C719 1.315 . S
O721 Cd711 2.240 . S
O721 C719 1.279 . S
O722 Cd712 2.297 . S
O722 C717 1.247 . S
O723 Cd712 2.439 . S
O723 C717 1.208 . S
O724 Cd725 2.223 . S
O724 C732 1.315 . S
Cd725 O724 2.223 . S
Cd725 O728 2.297 . S
Cd725 O729 2.439 . S
Cd725 O735 2.240 . S
Cd726 O727 2.240 . S
Cd726 O734 2.223 . S
Cd726 O736 2.297 . S
Cd726 O737 2.439 . S
O727 Cd726 2.240 . S
O727 C732 1.279 . S
O728 Cd725 2.297 . S
O728 C730 1.247 . S
O729 Cd725 2.439 . S
O729 C730 1.208 . S
C730 O728 1.247 . S
C730 O729 1.208 . S
C731 O736 1.247 . S
C731 O737 1.208 . S
C732 O724 1.315 . S
C732 O727 1.279 . S
C733 O734 1.315 . S
C733 O735 1.279 . S
O734 Cd726 2.223 . S
O734 C733 1.315 . S
O735 Cd725 2.240 . S
O735 C733 1.279 . S
O736 Cd726 2.297 . S
O736 C731 1.247 . S
O737 Cd726 2.439 . S
O737 C731 1.208 . S
O738 Cd739 2.223 1_545 S
O738 C746 1.315 . S
Cd739 O738 2.223 1_565 S
Cd739 O742 2.297 . S
Cd739 O743 2.439 . S
Cd739 O749 2.240 1_565 S
Cd740 O741 2.240 . S
Cd740 O748 2.223 . S
Cd740 O750 2.297 . S
Cd740 O751 2.439 1_545 S
O741 Cd740 2.240 . S
O741 C746 1.279 . S
O742 Cd739 2.297 . S
O742 C744 1.247 . S
O743 Cd739 2.439 . S
O743 C744 1.208 . S
C744 O742 1.247 . S
C744 O743 1.208 . S
C745 O750 1.247 1_565 S
C745 O751 1.208 . S
C746 O738 1.315 . S
C746 O741 1.279 . S
C747 O748 1.315 . S
C747 O749 1.279 . S
O748 Cd740 2.223 . S
O748 C747 1.315 . S
O749 Cd739 2.240 1_545 S
O749 C747 1.279 . S
O750 Cd740 2.297 . S
O750 C745 1.247 1_545 S
O751 Cd740 2.439 1_565 S
O751 C745 1.208 . S
O752 Cd753 2.223 . S
O752 C760 1.315 . S
Cd753 O752 2.223 . S
Cd753 O756 2.297 1_655 S
Cd753 O757 2.439 1_655 S
Cd753 O763 2.240 . S
Cd754 O755 2.240 . S
Cd754 O762 2.223 1_455 S
Cd754 O764 2.297 . S
Cd754 O765 2.439 . S
O755 Cd754 2.240 . S
O755 C760 1.279 1_455 S
O756 Cd753 2.297 1_455 S
O756 C758 1.247 . S
O757 Cd753 2.439 1_455 S
O757 C758 1.208 . S
C758 O756 1.247 . S
C758 O757 1.208 . S
C759 O764 1.247 . S
C759 O765 1.208 . S
C760 O752 1.315 . S
C760 O755 1.279 1_655 S
C761 O762 1.315 . S
C761 O763 1.279 . S
O762 Cd754 2.223 1_655 S
O762 C761 1.315 . S
O763 Cd753 2.240 . S
O763 C761 1.279 . S
O764 Cd754 2.297 . S
O764 C759 1.247 . S
O765 Cd754 2.439 . S
O765 C759 1.208 . S
O766 Cd767 2.223 . S
O766 C774 1.315 . S
Cd767 O766 2.223 . S
Cd767 O770 2.297 . S
Cd767 O771 2.439 . S
Cd767 O777 2.240 . S
Cd768 O769 2.240 . S
Cd768 O776 2.223 . S
Cd768 O778 2.297 . S
Cd768 O779 2.439 . S
O769 Cd768 2.240 . S
O769 C774 1.279 . S
O770 Cd767 2.297 . S
O770 C772 1.247 . S
O771 Cd767 2.439 . S
O771 C772 1.208 . S
C772 O770 1.247 . S
C772 O771 1.208 . S
C773 O778 1.247 . S
C773 O779 1.208 . S
C774 O766 1.315 . S
C774 O769 1.279 . S
C775 O776 1.315 . S
C775 O777 1.279 . S
O776 Cd768 2.223 . S
O776 C775 1.315 . S
O777 Cd767 2.240 . S
O777 C775 1.279 . S
O778 Cd768 2.297 . S
O778 C773 1.247 . S
O779 Cd768 2.439 . S
O779 C773 1.208 . S
O780 Cd781 2.223 1_655 S
O780 C788 1.315 . S
Cd781 O780 2.223 1_455 S
Cd781 O784 2.297 . S
Cd781 O785 2.439 . S
Cd781 O791 2.240 . S
Cd782 O783 2.240 . S
Cd782 O790 2.223 . S
Cd782 O792 2.297 1_655 S
Cd782 O793 2.439 1_655 S
O783 Cd782 2.240 . S
O783 C788 1.279 . S
O784 Cd781 2.297 . S
O784 C786 1.247 . S
O785 Cd781 2.439 . S
O785 C786 1.208 . S
C786 O784 1.247 . S
C786 O785 1.208 . S
C787 O792 1.247 . S
C787 O793 1.208 . S
C788 O780 1.315 . S
C788 O783 1.279 . S
C789 O790 1.315 . S
C789 O791 1.279 1_655 S
O790 Cd782 2.223 . S
O790 C789 1.315 . S
O791 Cd781 2.240 . S
O791 C789 1.279 1_455 S
O792 Cd782 2.297 1_455 S
O792 C787 1.247 . S
O793 Cd782 2.439 1_455 S
O793 C787 1.208 . S
O794 Cd795 2.223 . S
O794 C802 1.315 . S
Cd795 O794 2.223 . S
Cd795 O798 2.297 . S
Cd795 O799 2.439 . S
Cd795 O805 2.240 . S
Cd796 O797 2.240 . S
Cd796 O804 2.223 . S
Cd796 O806 2.297 . S
Cd796 O807 2.439 . S
O797 Cd796 2.240 . S
O797 C802 1.279 . S
O798 Cd795 2.297 . S
O798 C800 1.247 . S
O799 Cd795 2.439 . S
O799 C800 1.208 . S
C800 O798 1.247 . S
C800 O799 1.208 . S
C801 O806 1.247 . S
C801 O807 1.208 . S
C802 O794 1.315 . S
C802 O797 1.279 . S
C803 O804 1.315 . S
C803 O805 1.279 . S
O804 Cd796 2.223 . S
O804 C803 1.315 . S
O805 Cd795 2.240 . S
O805 C803 1.279 . S
O806 Cd796 2.297 . S
O806 C801 1.247 . S
O807 Cd796 2.439 . S
O807 C801 1.208 . S
C808 C809 1.349 . S
C808 C810 1.327 . S
C808 H833 0.950 . S
C809 C808 1.349 . S
C809 C825 1.349 . S
C810 C808 1.327 . S
C810 C829 1.429 . S
C810 H834 0.950 . S
C811 C828 1.574 . S
C811 C830 1.368 . S
C811 H835 0.949 . S
H812 C816 0.949 . S
C813 C814 1.349 1_556 S
C813 C815 1.327 . S
C813 H836 0.950 . S
C814 C813 1.349 1_554 S
C814 C826 1.349 . S
C815 C813 1.327 . S
C815 C831 1.429 . S
C815 H837 0.950 . S
C816 H812 0.949 . S
C816 C824 1.574 . S
C816 C832 1.368 . S
H817 C825 0.950 . S
H818 C823 0.950 . S
H819 C824 0.949 . S
H820 C826 0.950 . S
H821 C827 0.950 . S
H822 C828 0.949 . S
C823 H818 0.950 . S
C823 C825 1.327 . S
C823 C829 1.429 . S
C824 C816 1.574 . S
C824 H819 0.949 . S
C824 C830 1.368 . S
C825 C809 1.349 . S
C825 H817 0.950 . S
C825 C823 1.327 . S
C826 C814 1.349 . S
C826 H820 0.950 . S
C826 C827 1.327 1_554 S
C827 H821 0.950 . S
C827 C826 1.327 1_556 S
C827 C831 1.429 . S
C828 C811 1.574 . S
C828 H822 0.949 . S
C828 C832 1.368 . S
C829 C810 1.429 . S
C829 C823 1.429 . S
C829 C830 1.523 . S
C830 C811 1.368 . S
C830 C824 1.368 . S
C830 C829 1.523 . S
C831 C815 1.429 . S
C831 C827 1.429 . S
C831 C832 1.523 . S
C832 C816 1.368 . S
C832 C828 1.368 . S
C832 C831 1.523 . S
H833 C808 0.950 . S
H834 C810 0.950 . S
H835 C811 0.949 . S
H836 C813 0.950 . S
H837 C815 0.950 . S
C838 C839 1.349 . S
C838 C840 1.327 1_655 S
C838 H863 0.950 . S
C839 C838 1.349 . S
C839 C855 1.349 . S
C840 C838 1.327 1_455 S
C840 C859 1.429 . S
C840 H864 0.950 . S
C841 C858 1.574 . S
C841 C860 1.368 . S
C841 H865 0.949 . S
H842 C846 0.949 . S
C843 C844 1.349 . S
C843 C845 1.327 . S
C843 H866 0.950 . S
C844 C843 1.349 . S
C844 C856 1.349 . S
C845 C843 1.327 . S
C845 C861 1.429 . S
C845 H867 0.950 . S
C846 H842 0.949 . S
C846 C854 1.574 . S
C846 C862 1.368 . S
H847 C855 0.950 . S
H848 C853 0.950 . S
H849 C854 0.949 . S
H850 C856 0.950 . S
H851 C857 0.950 . S
H852 C858 0.949 . S
C853 H848 0.950 . S
C853 C855 1.327 . S
C853 C859 1.429 1_655 S
C854 C846 1.574 . S
C854 H849 0.949 . S
C854 C860 1.368 . S
C855 C839 1.349 . S
C855 H847 0.950 . S
C855 C853 1.327 . S
C856 C844 1.349 . S
C856 H850 0.950 . S
C856 C857 1.327 . S
C857 H851 0.950 . S
C857 C856 1.327 . S
C857 C861 1.429 . S
C858 C841 1.574 . S
C858 H852 0.949 . S
C858 C862 1.368 . S
C859 C840 1.429 . S
C859 C853 1.429 1_455 S
C859 C860 1.523 . S
C860 C841 1.368 . S
C860 C854 1.368 . S
C860 C859 1.523 . S
C861 C845 1.429 . S
C861 C857 1.429 . S
C861 C862 1.523 . S
C862 C846 1.368 . S
C862 C858 1.368 . S
C862 C861 1.523 . S
H863 C838 0.950 . S
H864 C840 0.950 . S
H865 C841 0.949 . S
H866 C843 0.950 . S
H867 C845 0.950 . S
C868 C869 1.349 . S
C868 C870 1.327 . S
C868 H893 0.950 . S
C869 C868 1.349 . S
C869 C885 1.349 . S
C870 C868 1.327 . S
C870 C889 1.429 . S
C870 H894 0.950 . S
C871 C888 1.574 . S
C871 C890 1.368 . S
C871 H895 0.949 . S
H872 C876 0.949 . S
C873 C874 1.349 . S
C873 C875 1.327 . S
C873 H896 0.950 . S
C874 C873 1.349 . S
C874 C886 1.349 . S
C875 C873 1.327 . S
C875 C891 1.429 . S
C875 H897 0.950 . S
C876 H872 0.949 . S
C876 C884 1.574 . S
C876 C892 1.368 . S
H877 C885 0.950 . S
H878 C883 0.950 . S
H879 C884 0.949 . S
H880 C886 0.950 . S
H881 C887 0.950 . S
H882 C888 0.949 . S
C883 H878 0.950 . S
C883 C885 1.327 . S
C883 C889 1.429 . S
C884 C876 1.574 . S
C884 H879 0.949 . S
C884 C890 1.368 . S
C885 C869 1.349 . S
C885 H877 0.950 . S
C885 C883 1.327 . S
C886 C874 1.349 . S
C886 H880 0.950 . S
C886 C887 1.327 . S
C887 H881 0.950 . S
C887 C886 1.327 . S
C887 C891 1.429 . S
C888 C871 1.574 . S
C888 H882 0.949 . S
C888 C892 1.368 . S
C889 C870 1.429 . S
C889 C883 1.429 . S
C889 C890 1.523 . S
C890 C871 1.368 . S
C890 C884 1.368 . S
C890 C889 1.523 . S
C891 C875 1.429 . S
C891 C887 1.429 . S
C891 C892 1.523 . S
C892 C876 1.368 . S
C892 C888 1.368 . S
C892 C891 1.523 . S
H893 C868 0.950 . S
H894 C870 0.950 . S
H895 C871 0.949 . S
H896 C873 0.950 . S
H897 C875 0.950 . S
C898 C899 1.349 . S
C898 C900 1.342 . S
C898 H923 0.950 . S
C899 C898 1.349 . S
C899 C915 1.349 . S
C900 C898 1.342 . S
C900 C919 1.420 1_455 S
C900 H924 0.944 1_465 S
C901 C918 1.574 . S
C901 C920 1.368 . S
C901 H925 0.949 . S
H902 C906 0.949 . S
C903 C904 1.349 . S
C903 C905 1.327 . S
C903 H926 0.950 . S
C904 C903 1.349 . S
C904 C916 1.349 . S
C905 C903 1.327 . S
C905 C921 1.429 . S
C905 H927 0.950 . S
C906 H902 0.949 . S
C906 C914 1.574 . S
C906 C922 1.368 . S
H907 C915 0.950 . S
H908 C913 0.950 . S
H909 C914 0.949 . S
H910 C916 0.950 . S
H911 C917 0.950 . S
H912 C918 0.949 . S
C913 H908 0.950 . S
C913 C915 1.327 1_655 S
C913 C919 1.429 . S
C914 C906 1.574 . S
C914 H909 0.949 . S
C914 C920 1.368 1_545 S
C915 C899 1.349 . S
C915 H907 0.950 . S
C915 C913 1.327 1_455 S
C916 C904 1.349 . S
C916 H910 0.950 . S
C916 C917 1.327 . S
C917 H911 0.950 . S
C917 C916 1.327 . S
C917 C921 1.429 . S
C918 C901 1.574 . S
C918 H912 0.949 . S
C918 C922 1.368 1_565 S
C919 C900 1.420 1_655 S
C919 C913 1.429 . S
C919 C920 1.523 . S
C920 C901 1.368 . S
C920 C914 1.368 1_565 S
C920 C919 1.523 . S
C921 C905 1.429 . S
C921 C917 1.429 . S
C921 C922 1.523 . S
C922 C906 1.368 . S
C922 C918 1.368 1_545 S
C922 C921 1.523 . S
H923 C898 0.950 . S
H924 C900 0.944 1_645 S
H925 C901 0.949 . S
H926 C903 0.950 . S
H927 C905 0.950 . S
C928 C929 1.349 . S
C928 C930 1.327 . S
C928 H953 0.950 . S
C929 C928 1.349 . S
C929 C945 1.349 . S
C930 C928 1.327 . S
C930 C949 1.429 . S
C930 H954 0.950 . S
C931 C948 1.574 . S
C931 C950 1.368 . S
C931 H955 0.949 . S
H932 C936 0.949 . S
C933 C934 1.349 . S
C933 C935 1.327 . S
C933 H956 0.950 . S
C934 C933 1.349 . S
C934 C946 1.349 . S
C935 C933 1.327 . S
C935 C951 1.429 . S
C935 H957 0.950 . S
C936 H932 0.949 . S
C936 C944 1.574 . S
C936 C952 1.368 . S
H937 C945 0.950 . S
H938 C943 0.950 . S
H939 C944 0.949 . S
H940 C946 0.950 . S
H941 C947 0.950 . S
H942 C948 0.949 . S
C943 H938 0.950 . S
C943 C945 1.327 . S
C943 C949 1.429 . S
C944 C936 1.574 . S
C944 H939 0.949 . S
C944 C950 1.368 . S
C945 C929 1.349 . S
C945 H937 0.950 . S
C945 C943 1.327 . S
C946 C934 1.349 . S
C946 H940 0.950 . S
C946 C947 1.327 . S
C947 H941 0.950 . S
C947 C946 1.327 . S
C947 C951 1.429 . S
C948 C931 1.574 . S
C948 H942 0.949 . S
C948 C952 1.368 . S
C949 C930 1.429 . S
C949 C943 1.429 . S
C949 C950 1.523 . S
C950 C931 1.368 . S
C950 C944 1.368 . S
C950 C949 1.523 . S
C951 C935 1.429 . S
C951 C947 1.429 . S
C951 C952 1.523 . S
C952 C936 1.368 . S
C952 C948 1.368 . S
C952 C951 1.523 . S
H953 C928 0.950 . S
H954 C930 0.950 . S
H955 C931 0.949 . S
H956 C933 0.950 . S
H957 C935 0.950 . S
C958 C959 1.349 . S
C958 C960 1.327 . S
C958 H983 0.950 . S
C959 C958 1.349 . S
C959 C975 1.349 . S
C960 C958 1.327 . S
C960 C979 1.429 . S
C960 H984 0.950 . S
C961 C978 1.574 . S
C961 C980 1.368 . S
C961 H985 0.949 . S
H962 C966 0.949 . S
C963 C964 1.349 . S
C963 C965 1.327 . S
C963 H986 0.950 . S
C964 C963 1.349 . S
C964 C976 1.349 . S
C965 C963 1.327 . S
C965 C981 1.429 . S
C965 H987 0.950 . S
C966 H962 0.949 . S
C966 C974 1.574 . S
C966 C982 1.368 . S
H967 C975 0.950 . S
H968 C973 0.950 . S
H969 C974 0.949 . S
H970 C976 0.950 . S
H971 C977 0.950 . S
H972 C978 0.949 . S
C973 H968 0.950 . S
C973 C975 1.327 . S
C973 C979 1.429 . S
C974 C966 1.574 . S
C974 H969 0.949 . S
C974 C980 1.368 . S
C975 C959 1.349 . S
C975 H967 0.950 . S
C975 C973 1.327 . S
C976 C964 1.349 . S
C976 H970 0.950 . S
C976 C977 1.327 . S
C977 H971 0.950 . S
C977 C976 1.327 . S
C977 C981 1.429 . S
C978 C961 1.574 . S
C978 H972 0.949 . S
C978 C982 1.368 . S
C979 C960 1.429 . S
C979 C973 1.429 . S
C979 C980 1.523 . S
C980 C961 1.368 . S
C980 C974 1.368 . S
C980 C979 1.523 . S
C981 C965 1.429 . S
C981 C977 1.429 . S
C981 C982 1.523 . S
C982 C966 1.368 . S
C982 C978 1.368 . S
C982 C981 1.523 . S
H983 C958 0.950 . S
H984 C960 0.950 . S
H985 C961 0.949 . S
H986 C963 0.950 . S
H987 C965 0.950 . S
C988 C989 1.349 . S
C988 C990 1.327 . S
C988 H1013 0.950 . S
C989 C988 1.349 . S
C989 C1005 1.349 . S
C990 C988 1.327 . S
C990 C1009 1.429 . S
C990 H1014 0.950 . S
C991 C1008 1.574 . S
C991 C1010 1.368 . S
C991 H1015 0.949 . S
H992 C996 0.949 . S
C993 C994 1.349 . S
C993 C995 1.327 . S
C993 H1016 0.950 . S
C994 C993 1.349 . S
C994 C1006 1.349 . S
C995 C993 1.327 . S
C995 C1011 1.429 . S
C995 H1017 0.950 . S
C996 H992 0.949 . S
C996 C1004 1.574 . S
C996 C1012 1.368 . S
H997 C1005 0.950 . S
H998 C1003 0.950 . S
H999 C1004 0.949 . S
H1000 C1006 0.950 . S
H1001 C1007 0.950 . S
H1002 C1008 0.949 . S
C1003 H998 0.950 . S
C1003 C1005 1.327 . S
C1003 C1009 1.429 . S
C1004 C996 1.574 . S
C1004 H999 0.949 . S
C1004 C1010 1.368 . S
C1005 C989 1.349 . S
C1005 H997 0.950 . S
C1005 C1003 1.327 . S
C1006 C994 1.349 . S
C1006 H1000 0.950 . S
C1006 C1007 1.327 . S
C1007 H1001 0.950 . S
C1007 C1006 1.327 . S
C1007 C1011 1.429 . S
C1008 C991 1.574 . S
C1008 H1002 0.949 . S
C1008 C1012 1.368 . S
C1009 C990 1.429 . S
C1009 C1003 1.429 . S
C1009 C1010 1.523 . S
C1010 C991 1.368 . S
C1010 C1004 1.368 . S
C1010 C1009 1.523 . S
C1011 C995 1.429 . S
C1011 C1007 1.429 . S
C1011 C1012 1.523 . S
C1012 C996 1.368 . S
C1012 C1008 1.368 . S
C1012 C1011 1.523 . S
H1013 C988 0.950 . S
H1014 C990 0.950 . S
H1015 C991 0.949 . S
H1016 C993 0.950 . S
H1017 C995 0.950 . S
C1018 C1019 1.349 . S
C1018 C1020 1.327 . S
C1018 H1043 0.950 . S
C1019 C1018 1.349 . S
C1019 C1035 1.349 . S
C1020 C1018 1.327 . S
C1020 C1039 1.429 . S
C1020 H1044 0.950 . S
C1021 C1038 1.574 . S
C1021 C1040 1.368 . S
C1021 H1045 0.949 . S
H1022 C1026 0.949 . S
C1023 C1024 1.349 . S
C1023 C1025 1.327 . S
C1023 H1046 0.950 1_565 S
C1024 C1023 1.349 . S
C1024 C1036 1.349 . S
C1025 C1023 1.327 . S
C1025 C1041 1.429 . S
C1025 H1047 0.950 . S
C1026 H1022 0.949 . S
C1026 C1034 1.574 . S
C1026 C1042 1.368 . S
H1027 C1035 0.950 . S
H1028 C1033 0.950 . S
H1029 C1034 0.949 . S
H1030 C1036 0.950 . S
H1031 C1037 0.950 . S
H1032 C1038 0.949 . S
C1033 H1028 0.950 . S
C1033 C1035 1.327 . S
C1033 C1039 1.429 . S
C1034 C1026 1.574 . S
C1034 H1029 0.949 . S
C1034 C1040 1.368 . S
C1035 C1019 1.349 . S
C1035 H1027 0.950 . S
C1035 C1033 1.327 . S
C1036 C1024 1.349 . S
C1036 H1030 0.950 . S
C1036 C1037 1.327 . S
C1037 H1031 0.950 . S
C1037 C1036 1.327 . S
C1037 C1041 1.429 . S
C1038 C1021 1.574 . S
C1038 H1032 0.949 . S
C1038 C1042 1.368 . S
C1039 C1020 1.429 . S
C1039 C1033 1.429 . S
C1039 C1040 1.523 . S
C1040 C1021 1.368 . S
C1040 C1034 1.368 . S
C1040 C1039 1.523 . S
C1041 C1025 1.429 . S
C1041 C1037 1.429 . S
C1041 C1042 1.523 . S
C1042 C1026 1.368 . S
C1042 C1038 1.368 . S
C1042 C1041 1.523 . S
H1043 C1018 0.950 . S
H1044 C1020 0.950 . S
H1045 C1021 0.949 . S
H1046 C1023 0.950 1_545 S
H1047 C1025 0.950 . S
C1048 C1049 1.349 . S
C1048 C1050 1.327 . S
C1048 H1073 0.950 . S
C1049 C1048 1.349 . S
C1049 C1065 1.349 . S
C1050 C1048 1.327 . S
C1050 C1069 1.429 . S
C1050 H1074 0.950 . S
C1051 C1068 1.574 . S
C1051 C1070 1.368 . S
C1051 H1075 0.949 . S
H1052 C1056 0.949 . S
C1053 C1054 1.349 . S
C1053 C1055 1.327 . S
C1053 H1076 0.950 . S
C1054 C1053 1.349 . S
C1054 C1066 1.349 . S
C1055 C1053 1.327 . S
C1055 C1071 1.429 . S
C1055 H1077 0.950 . S
C1056 H1052 0.949 . S
C1056 C1064 1.574 . S
C1056 C1072 1.368 . S
H1057 C1065 0.950 . S
H1058 C1063 0.950 . S
H1059 C1064 0.949 . S
H1060 C1066 0.950 . S
H1061 C1067 0.950 . S
H1062 C1068 0.949 . S
C1063 H1058 0.950 . S
C1063 C1065 1.327 . S
C1063 C1069 1.429 . S
C1064 C1056 1.574 . S
C1064 H1059 0.949 . S
C1064 C1070 1.368 . S
C1065 C1049 1.349 . S
C1065 H1057 0.950 . S
C1065 C1063 1.327 . S
C1066 C1054 1.349 . S
C1066 H1060 0.950 . S
C1066 C1067 1.327 . S
C1067 H1061 0.950 . S
C1067 C1066 1.327 . S
C1067 C1071 1.429 . S
C1068 C1051 1.574 . S
C1068 H1062 0.949 . S
C1068 C1072 1.368 . S
C1069 C1050 1.429 . S
C1069 C1063 1.429 . S
C1069 C1070 1.523 . S
C1070 C1051 1.368 . S
C1070 C1064 1.368 . S
C1070 C1069 1.523 . S
C1071 C1055 1.429 . S
C1071 C1067 1.429 . S
C1071 C1072 1.523 . S
C1072 C1056 1.368 . S
C1072 C1068 1.368 . S
C1072 C1071 1.523 . S
H1073 C1048 0.950 . S
H1074 C1050 0.950 . S
H1075 C1051 0.949 . S
H1076 C1053 0.950 . S
H1077 C1055 0.950 . S
C1078 C1079 1.349 . S
C1078 C1080 1.327 . S
C1078 H1103 0.950 . S
C1079 C1078 1.349 . S
C1079 C1095 1.349 . S
C1080 C1078 1.327 . S
C1080 C1099 1.429 . S
C1080 H1104 0.950 . S
C1081 C1098 1.574 . S
C1081 C1100 1.368 . S
C1081 H1105 0.949 . S
H1082 C1086 0.949 . S
C1083 C1084 1.349 . S
C1083 C1085 1.327 . S
C1083 H1106 0.950 . S
C1084 C1083 1.349 . S
C1084 C1096 1.349 . S
C1085 C1083 1.327 . S
C1085 C1101 1.429 . S
C1085 H1107 0.950 . S
C1086 H1082 0.949 . S
C1086 C1094 1.574 . S
C1086 C1102 1.368 . S
H1087 C1095 0.950 . S
H1088 C1093 0.950 . S
H1089 C1094 0.949 . S
H1090 C1096 0.950 . S
H1091 C1097 0.950 . S
H1092 C1098 0.949 . S
C1093 H1088 0.950 . S
C1093 C1095 1.327 . S
C1093 C1099 1.429 . S
C1094 C1086 1.574 . S
C1094 H1089 0.949 . S
C1094 C1100 1.368 . S
C1095 C1079 1.349 . S
C1095 H1087 0.950 . S
C1095 C1093 1.327 . S
C1096 C1084 1.349 . S
C1096 H1090 0.950 . S
C1096 C1097 1.327 . S
C1097 H1091 0.950 . S
C1097 C1096 1.327 . S
C1097 C1101 1.429 . S
C1098 C1081 1.574 . S
C1098 H1092 0.949 . S
C1098 C1102 1.368 . S
C1099 C1080 1.429 . S
C1099 C1093 1.429 . S
C1099 C1100 1.523 . S
C1100 C1081 1.368 . S
C1100 C1094 1.368 . S
C1100 C1099 1.523 . S
C1101 C1085 1.429 . S
C1101 C1097 1.429 . S
C1101 C1102 1.523 . S
C1102 C1086 1.368 . S
C1102 C1098 1.368 . S
C1102 C1101 1.523 . S
H1103 C1078 0.950 . S
H1104 C1080 0.950 . S
H1105 C1081 0.949 . S
H1106 C1083 0.950 . S
H1107 C1085 0.950 . S
C1108 C1109 1.349 . S
C1108 C1110 1.327 . S
C1108 H1133 0.950 . S
C1109 C1108 1.349 . S
C1109 C1125 1.349 . S
C1110 C1108 1.327 . S
C1110 C1129 1.429 . S
C1110 H1134 0.950 . S
C1111 C1128 1.574 . S
C1111 C1130 1.368 . S
C1111 H1135 0.949 . S
H1112 C1116 0.949 . S
C1113 C1114 1.349 . S
C1113 C1115 1.327 . S
C1113 H1136 0.950 . S
C1114 C1113 1.349 . S
C1114 C1126 1.349 . S
C1115 C1113 1.327 . S
C1115 C1131 1.429 . S
C1115 H1137 0.950 . S
C1116 H1112 0.949 . S
C1116 C1124 1.574 . S
C1116 C1132 1.368 . S
H1117 C1125 0.950 . S
H1118 C1123 0.950 . S
H1119 C1124 0.949 . S
H1120 C1126 0.950 . S
H1121 C1127 0.950 . S
H1122 C1128 0.949 . S
C1123 H1118 0.950 . S
C1123 C1125 1.327 . S
C1123 C1129 1.429 . S
C1124 C1116 1.574 . S
C1124 H1119 0.949 . S
C1124 C1130 1.368 . S
C1125 C1109 1.349 . S
C1125 H1117 0.950 . S
C1125 C1123 1.327 . S
C1126 C1114 1.349 . S
C1126 H1120 0.950 . S
C1126 C1127 1.327 . S
C1127 H1121 0.950 . S
C1127 C1126 1.327 . S
C1127 C1131 1.429 . S
C1128 C1111 1.574 . S
C1128 H1122 0.949 . S
C1128 C1132 1.368 . S
C1129 C1110 1.429 . S
C1129 C1123 1.429 . S
C1129 C1130 1.523 . S
C1130 C1111 1.368 . S
C1130 C1124 1.368 . S
C1130 C1129 1.523 . S
C1131 C1115 1.429 . S
C1131 C1127 1.429 . S
C1131 C1132 1.523 . S
C1132 C1116 1.368 . S
C1132 C1128 1.368 . S
C1132 C1131 1.523 . S
H1133 C1108 0.950 . S
H1134 C1110 0.950 . S
H1135 C1111 0.949 . S
H1136 C1113 0.950 . S
H1137 C1115 0.950 . S
C1138 C1139 1.349 . S
C1138 C1140 1.327 . S
C1138 H1163 0.950 . S
C1139 C1138 1.349 . S
C1139 C1155 1.349 . S
C1140 C1138 1.327 . S
C1140 C1159 1.429 . S
C1140 H1164 0.950 . S
C1141 C1158 1.574 . S
C1141 C1160 1.368 . S
C1141 H1165 0.949 . S
H1142 C1146 0.949 . S
C1143 C1144 1.349 . S
C1143 C1145 1.327 . S
C1143 H1166 0.950 . S
C1144 C1143 1.349 . S
C1144 C1156 1.349 . S
C1145 C1143 1.327 . S
C1145 C1161 1.429 . S
C1145 H1167 0.950 . S
C1146 H1142 0.949 . S
C1146 C1154 1.574 . S
C1146 C1162 1.368 . S
H1147 C1155 0.950 . S
H1148 C1153 0.950 . S
H1149 C1154 0.949 . S
H1150 C1156 0.950 . S
H1151 C1157 0.950 . S
H1152 C1158 0.949 . S
C1153 H1148 0.950 . S
C1153 C1155 1.327 . S
C1153 C1159 1.429 . S
C1154 C1146 1.574 . S
C1154 H1149 0.949 . S
C1154 C1160 1.368 . S
C1155 C1139 1.349 . S
C1155 H1147 0.950 . S
C1155 C1153 1.327 . S
C1156 C1144 1.349 . S
C1156 H1150 0.950 . S
C1156 C1157 1.327 . S
C1157 H1151 0.950 . S
C1157 C1156 1.327 . S
C1157 C1161 1.429 . S
C1158 C1141 1.574 . S
C1158 H1152 0.949 . S
C1158 C1162 1.368 . S
C1159 C1140 1.429 . S
C1159 C1153 1.429 . S
C1159 C1160 1.523 . S
C1160 C1141 1.368 . S
C1160 C1154 1.368 . S
C1160 C1159 1.523 . S
C1161 C1145 1.429 . S
C1161 C1157 1.429 . S
C1161 C1162 1.523 . S
C1162 C1146 1.368 . S
C1162 C1158 1.368 . S
C1162 C1161 1.523 . S
H1163 C1138 0.950 . S
H1164 C1140 0.950 . S
H1165 C1141 0.949 . S
H1166 C1143 0.950 . S
H1167 C1145 0.950 . S
C1168 C1169 1.349 . S
C1168 C1170 1.327 . S
C1168 H1193 0.950 . S
C1169 C1168 1.349 . S
C1169 C1185 1.349 . S
C1170 C1168 1.327 . S
C1170 C1189 1.429 . S
C1170 H1194 0.950 . S
C1171 C1188 1.574 . S
C1171 C1190 1.368 . S
C1171 H1195 0.949 . S
H1172 C1176 0.949 . S
C1173 C1174 1.349 . S
C1173 C1175 1.327 . S
C1173 H1196 0.950 . S
C1174 C1173 1.349 . S
C1174 C1186 1.349 . S
C1175 C1173 1.327 . S
C1175 C1191 1.429 . S
C1175 H1197 0.950 . S
C1176 H1172 0.949 . S
C1176 C1184 1.574 . S
C1176 C1192 1.368 . S
H1177 C1185 0.950 . S
H1178 C1183 0.950 . S
H1179 C1184 0.949 . S
H1180 C1186 0.950 . S
H1181 C1187 0.950 . S
H1182 C1188 0.949 . S
C1183 H1178 0.950 . S
C1183 C1185 1.327 . S
C1183 C1189 1.429 . S
C1184 C1176 1.574 . S
C1184 H1179 0.949 . S
C1184 C1190 1.368 . S
C1185 C1169 1.349 . S
C1185 H1177 0.950 . S
C1185 C1183 1.327 . S
C1186 C1174 1.349 . S
C1186 H1180 0.950 . S
C1186 C1187 1.327 . S
C1187 H1181 0.950 . S
C1187 C1186 1.327 . S
C1187 C1191 1.429 . S
C1188 C1171 1.574 . S
C1188 H1182 0.949 . S
C1188 C1192 1.368 . S
C1189 C1170 1.429 . S
C1189 C1183 1.429 . S
C1189 C1190 1.523 . S
C1190 C1171 1.368 . S
C1190 C1184 1.368 . S
C1190 C1189 1.523 . S
C1191 C1175 1.429 . S
C1191 C1187 1.429 . S
C1191 C1192 1.523 . S
C1192 C1176 1.368 . S
C1192 C1188 1.368 . S
C1192 C1191 1.523 . S
H1193 C1168 0.950 . S
H1194 C1170 0.950 . S
H1195 C1171 0.949 . S
H1196 C1173 0.950 . S
H1197 C1175 0.950 . S
C1198 C1199 1.349 . S
C1198 C1200 1.327 . S
C1198 H1223 0.950 . S
C1199 C1198 1.349 . S
C1199 C1215 1.349 . S
C1200 C1198 1.327 . S
C1200 C1219 1.429 . S
C1200 H1224 0.950 . S
C1201 C1218 1.574 . S
C1201 C1220 1.368 . S
C1201 H1225 0.949 . S
H1202 C1206 0.949 . S
C1203 C1204 1.349 . S
C1203 C1205 1.327 . S
C1203 H1226 0.950 . S
C1204 C1203 1.349 . S
C1204 C1216 1.349 . S
C1205 C1203 1.327 . S
C1205 C1221 1.429 . S
C1205 H1227 0.950 . S
C1206 H1202 0.949 . S
C1206 C1214 1.574 . S
C1206 C1222 1.368 . S
H1207 C1215 0.950 . S
H1208 C1213 0.950 . S
H1209 C1214 0.949 . S
H1210 C1216 0.950 . S
H1211 C1217 0.950 . S
H1212 C1218 0.949 . S
C1213 H1208 0.950 . S
C1213 C1215 1.327 . S
C1213 C1219 1.429 . S
C1214 C1206 1.574 . S
C1214 H1209 0.949 . S
C1214 C1220 1.368 . S
C1215 C1199 1.349 . S
C1215 H1207 0.950 . S
C1215 C1213 1.327 . S
C1216 C1204 1.349 . S
C1216 H1210 0.950 . S
C1216 C1217 1.327 . S
C1217 H1211 0.950 . S
C1217 C1216 1.327 . S
C1217 C1221 1.429 . S
C1218 C1201 1.574 . S
C1218 H1212 0.949 . S
C1218 C1222 1.368 . S
C1219 C1200 1.429 . S
C1219 C1213 1.429 . S
C1219 C1220 1.523 . S
C1220 C1201 1.368 . S
C1220 C1214 1.368 . S
C1220 C1219 1.523 . S
C1221 C1205 1.429 . S
C1221 C1217 1.429 . S
C1221 C1222 1.523 . S
C1222 C1206 1.368 . S
C1222 C1218 1.368 . S
C1222 C1221 1.523 . S
H1223 C1198 0.950 . S
H1224 C1200 0.950 . S
H1225 C1201 0.949 . S
H1226 C1203 0.950 . S
H1227 C1205 0.950 . S
C1228 C1229 1.349 . S
C1228 C1230 1.327 . S
C1228 H1253 0.950 . S
C1229 C1228 1.349 . S
C1229 C1245 1.349 . S
C1230 C1228 1.327 . S
C1230 C1249 1.429 . S
C1230 H1254 0.950 . S
C1231 C1248 1.574 . S
C1231 C1250 1.368 . S
C1231 H1255 0.949 . S
H1232 C1236 0.949 . S
C1233 C1234 1.349 . S
C1233 C1235 1.327 . S
C1233 H1256 0.950 . S
C1234 C1233 1.349 . S
C1234 C1246 1.349 . S
C1235 C1233 1.327 . S
C1235 C1251 1.429 . S
C1235 H1257 0.950 . S
C1236 H1232 0.949 . S
C1236 C1244 1.574 . S
C1236 C1252 1.368 . S
H1237 C1245 0.950 . S
H1238 C1243 0.950 . S
H1239 C1244 0.949 . S
H1240 C1246 0.950 . S
H1241 C1247 0.950 . S
H1242 C1248 0.949 . S
C1243 H1238 0.950 . S
C1243 C1245 1.327 . S
C1243 C1249 1.429 . S
C1244 C1236 1.574 . S
C1244 H1239 0.949 . S
C1244 C1250 1.368 . S
C1245 C1229 1.349 . S
C1245 H1237 0.950 . S
C1245 C1243 1.327 . S
C1246 C1234 1.349 . S
C1246 H1240 0.950 . S
C1246 C1247 1.327 . S
C1247 H1241 0.950 . S
C1247 C1246 1.327 . S
C1247 C1251 1.429 . S
C1248 C1231 1.574 . S
C1248 H1242 0.949 . S
C1248 C1252 1.368 . S
C1249 C1230 1.429 . S
C1249 C1243 1.429 . S
C1249 C1250 1.523 . S
C1250 C1231 1.368 . S
C1250 C1244 1.368 . S
C1250 C1249 1.523 . S
C1251 C1235 1.429 . S
C1251 C1247 1.429 . S
C1251 C1252 1.523 . S
C1252 C1236 1.368 . S
C1252 C1248 1.368 . S
C1252 C1251 1.523 . S
H1253 C1228 0.950 . S
H1254 C1230 0.950 . S
H1255 C1231 0.949 . S
H1256 C1233 0.950 . S
H1257 C1235 0.950 . S
C1258 C1259 1.349 . S
C1258 C1260 1.327 . S
C1258 H1283 0.950 . S
C1259 C1258 1.349 . S
C1259 C1275 1.349 . S
C1260 C1258 1.327 . S
C1260 C1279 1.429 . S
C1260 H1284 0.950 . S
C1261 C1278 1.574 . S
C1261 C1280 1.368 . S
C1261 H1285 0.949 . S
H1262 C1266 0.949 . S
C1263 C1264 1.349 . S
C1263 C1265 1.327 . S
C1263 H1286 0.950 . S
C1264 C1263 1.349 . S
C1264 C1276 1.349 . S
C1265 C1263 1.327 . S
C1265 C1281 1.429 . S
C1265 H1287 0.950 . S
C1266 H1262 0.949 . S
C1266 C1274 1.574 . S
C1266 C1282 1.368 . S
H1267 C1275 0.950 . S
H1268 C1273 0.950 . S
H1269 C1274 0.949 . S
H1270 C1276 0.950 . S
H1271 C1277 0.950 . S
H1272 C1278 0.949 . S
C1273 H1268 0.950 . S
C1273 C1275 1.327 . S
C1273 C1279 1.429 . S
C1274 C1266 1.574 . S
C1274 H1269 0.949 . S
C1274 C1280 1.368 . S
C1275 C1259 1.349 . S
C1275 H1267 0.950 . S
C1275 C1273 1.327 . S
C1276 C1264 1.349 . S
C1276 H1270 0.950 . S
C1276 C1277 1.327 . S
C1277 H1271 0.950 . S
C1277 C1276 1.327 . S
C1277 C1281 1.429 . S
C1278 C1261 1.574 . S
C1278 H1272 0.949 . S
C1278 C1282 1.368 . S
C1279 C1260 1.429 . S
C1279 C1273 1.429 . S
C1279 C1280 1.523 . S
C1280 C1261 1.368 . S
C1280 C1274 1.368 . S
C1280 C1279 1.523 . S
C1281 C1265 1.429 . S
C1281 C1277 1.429 . S
C1281 C1282 1.523 . S
C1282 C1266 1.368 . S
C1282 C1278 1.368 . S
C1282 C1281 1.523 . S
H1283 C1258 0.950 . S
H1284 C1260 0.950 . S
H1285 C1261 0.949 . S
H1286 C1263 0.950 . S
H1287 C1265 0.950 . S
C1288 C1289 1.349 . S
C1288 C1290 1.327 . S
C1288 H1313 0.950 . S
C1289 C1288 1.349 . S
C1289 C1305 1.349 . S
C1290 C1288 1.327 . S
C1290 C1309 1.429 . S
C1290 H1314 0.950 . S
C1291 C1308 1.574 . S
C1291 C1310 1.368 . S
C1291 H1315 0.949 . S
H1292 C1296 0.949 . S
C1293 C1294 1.349 . S
C1293 C1295 1.327 1_545 S
C1293 H1316 0.950 . S
C1294 C1293 1.349 . S
C1294 C1306 1.349 . S
C1295 C1293 1.327 1_565 S
C1295 C1311 1.429 . S
C1295 H1317 0.950 . S
C1296 H1292 0.949 . S
C1296 C1304 1.574 . S
C1296 C1312 1.368 . S
H1297 C1305 0.950 . S
H1298 C1303 0.950 . S
H1299 C1304 0.949 . S
H1300 C1306 0.950 . S
H1301 C1307 0.955 . S
H1302 C1308 0.949 . S
C1303 H1298 0.950 . S
C1303 C1305 1.327 . S
C1303 C1309 1.429 . S
C1304 C1296 1.574 . S
C1304 H1299 0.949 . S
C1304 C1310 1.368 . S
C1305 C1289 1.349 . S
C1305 H1297 0.950 . S
C1305 C1303 1.327 . S
C1306 C1294 1.349 . S
C1306 H1300 0.950 . S
C1306 C1307 1.310 1_545 S
C1307 H1301 0.955 . S
C1307 C1306 1.310 1_565 S
C1307 C1311 1.441 . S
C1308 C1291 1.574 . S
C1308 H1302 0.949 . S
C1308 C1312 1.368 . S
C1309 C1290 1.429 . S
C1309 C1303 1.429 . S
C1309 C1310 1.523 . S
C1310 C1291 1.368 . S
C1310 C1304 1.368 . S
C1310 C1309 1.523 . S
C1311 C1295 1.429 . S
C1311 C1307 1.441 . S
C1311 C1312 1.523 . S
C1312 C1296 1.368 . S
C1312 C1308 1.368 . S
C1312 C1311 1.523 . S
H1313 C1288 0.950 . S
H1314 C1290 0.950 . S
H1315 C1291 0.949 . S
H1316 C1293 0.950 . S
H1317 C1295 0.950 . S
C1318 C1319 1.349 . S
C1318 C1320 1.327 . S
C1318 H1343 0.950 . S
C1319 C1318 1.349 . S
C1319 C1335 1.349 . S
C1320 C1318 1.327 . S
C1320 C1339 1.429 . S
C1320 H1344 0.950 . S
C1321 C1338 1.574 . S
C1321 C1340 1.368 . S
C1321 H1345 0.949 . S
H1322 C1326 0.949 . S
C1323 C1324 1.349 . S
C1323 C1325 1.327 . S
C1323 H1346 0.950 . S
C1324 C1323 1.349 . S
C1324 C1336 1.349 . S
C1325 C1323 1.327 . S
C1325 C1341 1.429 . S
C1325 H1347 0.950 . S
C1326 H1322 0.949 . S
C1326 C1334 1.574 . S
C1326 C1342 1.368 . S
H1327 C1335 0.950 . S
H1328 C1333 0.950 . S
H1329 C1334 0.949 . S
H1330 C1336 0.950 . S
H1331 C1337 0.950 . S
H1332 C1338 0.949 . S
C1333 H1328 0.950 . S
C1333 C1335 1.327 . S
C1333 C1339 1.429 . S
C1334 C1326 1.574 . S
C1334 H1329 0.949 . S
C1334 C1340 1.368 . S
C1335 C1319 1.349 . S
C1335 H1327 0.950 . S
C1335 C1333 1.327 . S
C1336 C1324 1.349 . S
C1336 H1330 0.950 . S
C1336 C1337 1.327 . S
C1337 H1331 0.950 . S
C1337 C1336 1.327 . S
C1337 C1341 1.429 . S
C1338 C1321 1.574 . S
C1338 H1332 0.949 . S
C1338 C1342 1.368 . S
C1339 C1320 1.429 . S
C1339 C1333 1.429 . S
C1339 C1340 1.523 . S
C1340 C1321 1.368 . S
C1340 C1334 1.368 . S
C1340 C1339 1.523 . S
C1341 C1325 1.429 . S
C1341 C1337 1.429 . S
C1341 C1342 1.523 . S
C1342 C1326 1.368 . S
C1342 C1338 1.368 . S
C1342 C1341 1.523 . S
H1343 C1318 0.950 . S
H1344 C1320 0.950 . S
H1345 C1321 0.949 . S
H1346 C1323 0.950 . S
H1347 C1325 0.950 . S
C1348 C1349 1.349 . S
C1348 C1350 1.327 . S
C1348 H1373 0.950 . S
C1349 C1348 1.349 . S
C1349 C1365 1.349 . S
C1350 C1348 1.327 . S
C1350 C1369 1.429 . S
C1350 H1374 0.972 . S
C1351 C1368 1.557 1_546 S
C1351 C1370 1.394 . S
C1351 H1375 0.942 1_556 S
H1352 C1356 0.949 . S
C1353 C1354 1.349 . S
C1353 C1355 1.327 . S
C1353 H1376 0.950 . S
C1354 C1353 1.349 . S
C1354 C1366 1.349 . S
C1355 C1353 1.327 . S
C1355 C1371 1.429 . S
C1355 H1377 0.950 . S
C1356 H1352 0.949 . S
C1356 C1364 1.574 . S
C1356 C1372 1.368 1_556 S
H1357 C1365 0.950 . S
H1358 C1363 0.950 . S
H1359 C1364 0.949 . S
H1360 C1366 0.950 . S
H1361 C1367 0.950 1_556 S
H1362 C1368 0.949 . S
C1363 H1358 0.950 . S
C1363 C1365 1.327 . S
C1363 C1369 1.429 . S
C1364 C1356 1.574 . S
C1364 H1359 0.949 . S
C1364 C1370 1.368 1_565 S
C1365 C1349 1.349 . S
C1365 H1357 0.950 . S
C1365 C1363 1.327 . S
C1366 C1354 1.349 . S
C1366 H1360 0.950 . S
C1366 C1367 1.327 . S
C1367 H1361 0.950 1_554 S
C1367 C1366 1.327 . S
C1367 C1371 1.429 . S
C1368 C1351 1.557 1_564 S
C1368 H1362 0.949 . S
C1368 C1372 1.368 . S
C1369 C1350 1.429 . S
C1369 C1363 1.429 . S
C1369 C1370 1.523 . S
C1370 C1351 1.394 . S
C1370 C1364 1.368 1_545 S
C1370 C1369 1.523 . S
C1371 C1355 1.429 . S
C1371 C1367 1.429 . S
C1371 C1372 1.523 . S
C1372 C1356 1.368 1_554 S
C1372 C1368 1.368 . S
C1372 C1371 1.523 . S
H1373 C1348 0.950 . S
H1374 C1350 0.972 . S
H1375 C1351 0.942 1_554 S
H1376 C1353 0.950 . S
H1377 C1355 0.950 . S
C1378 C1379 1.349 . S
C1378 C1380 1.327 . S
C1378 H1403 0.950 . S
C1379 C1378 1.349 . S
C1379 C1395 1.349 . S
C1380 C1378 1.327 . S
C1380 C1399 1.429 . S
C1380 H1404 0.950 . S
C1381 C1398 1.574 . S
C1381 C1400 1.368 . S
C1381 H1405 0.949 . S
H1382 C1386 0.949 . S
C1383 C1384 1.349 . S
C1383 C1385 1.327 . S
C1383 H1406 0.950 . S
C1384 C1383 1.349 . S
C1384 C1396 1.349 . S
C1385 C1383 1.327 . S
C1385 C1401 1.429 . S
C1385 H1407 0.950 . S
C1386 H1382 0.949 . S
C1386 C1394 1.574 . S
C1386 C1402 1.368 . S
H1387 C1395 0.950 . S
H1388 C1393 0.950 . S
H1389 C1394 0.949 . S
H1390 C1396 0.950 . S
H1391 C1397 0.950 . S
H1392 C1398 0.949 . S
C1393 H1388 0.950 . S
C1393 C1395 1.327 . S
C1393 C1399 1.429 . S
C1394 C1386 1.574 . S
C1394 H1389 0.949 . S
C1394 C1400 1.368 . S
C1395 C1379 1.349 . S
C1395 H1387 0.950 . S
C1395 C1393 1.327 . S
C1396 C1384 1.349 . S
C1396 H1390 0.950 . S
C1396 C1397 1.327 . S
C1397 H1391 0.950 . S
C1397 C1396 1.327 . S
C1397 C1401 1.429 . S
C1398 C1381 1.574 . S
C1398 H1392 0.949 . S
C1398 C1402 1.368 . S
C1399 C1380 1.429 . S
C1399 C1393 1.429 . S
C1399 C1400 1.523 . S
C1400 C1381 1.368 . S
C1400 C1394 1.368 . S
C1400 C1399 1.523 . S
C1401 C1385 1.429 . S
C1401 C1397 1.429 . S
C1401 C1402 1.523 . S
C1402 C1386 1.368 . S
C1402 C1398 1.368 . S
C1402 C1401 1.523 . S
H1403 C1378 0.950 . S
H1404 C1380 0.950 . S
H1405 C1381 0.949 . S
H1406 C1383 0.950 . S
H1407 C1385 0.950 . S
C1408 C1409 1.349 . S
C1408 C1410 1.327 . S
C1408 H1433 0.950 . S
C1409 C1408 1.349 . S
C1409 C1425 1.349 . S
C1410 C1408 1.327 . S
C1410 C1429 1.429 . S
C1410 H1434 0.950 . S
C1411 C1428 1.574 . S
C1411 C1430 1.368 . S
C1411 H1435 0.949 . S
H1412 C1416 0.949 . S
C1413 C1414 1.349 . S
C1413 C1415 1.327 . S
C1413 H1436 0.950 . S
C1414 C1413 1.349 . S
C1414 C1426 1.349 . S
C1415 C1413 1.327 . S
C1415 C1431 1.429 . S
C1415 H1437 0.950 . S
C1416 H1412 0.949 . S
C1416 C1424 1.574 . S
C1416 C1432 1.368 . S
H1417 C1425 0.950 . S
H1418 C1423 0.950 . S
H1419 C1424 0.949 . S
H1420 C1426 0.950 . S
H1421 C1427 0.950 . S
H1422 C1428 0.949 . S
C1423 H1418 0.950 . S
C1423 C1425 1.327 . S
C1423 C1429 1.429 . S
C1424 C1416 1.574 . S
C1424 H1419 0.949 . S
C1424 C1430 1.368 . S
C1425 C1409 1.349 . S
C1425 H1417 0.950 . S
C1425 C1423 1.327 . S
C1426 C1414 1.349 . S
C1426 H1420 0.950 . S
C1426 C1427 1.327 . S
C1427 H1421 0.950 . S
C1427 C1426 1.327 . S
C1427 C1431 1.429 . S
C1428 C1411 1.574 . S
C1428 H1422 0.949 . S
C1428 C1432 1.368 . S
C1429 C1410 1.429 . S
C1429 C1423 1.429 . S
C1429 C1430 1.523 . S
C1430 C1411 1.368 . S
C1430 C1424 1.368 . S
C1430 C1429 1.523 . S
C1431 C1415 1.429 . S
C1431 C1427 1.429 . S
C1431 C1432 1.523 . S
C1432 C1416 1.368 . S
C1432 C1428 1.368 . S
C1432 C1431 1.523 . S
H1433 C1408 0.950 . S
H1434 C1410 0.950 . S
H1435 C1411 0.949 . S
H1436 C1413 0.950 . S
H1437 C1415 0.950 . S
C1438 C1439 1.349 . S
C1438 C1440 1.327 . S
C1438 H1463 0.950 . S
C1439 C1438 1.349 . S
C1439 C1455 1.349 . S
C1440 C1438 1.327 . S
C1440 C1459 1.429 . S
C1440 H1464 0.950 . S
C1441 C1458 1.574 . S
C1441 C1460 1.368 . S
C1441 H1465 0.949 . S
H1442 C1446 0.949 . S
C1443 C1444 1.349 . S
C1443 C1445 1.327 . S
C1443 H1466 0.950 . S
C1444 C1443 1.349 . S
C1444 C1456 1.349 . S
C1445 C1443 1.327 . S
C1445 C1461 1.429 . S
C1445 H1467 0.950 . S
C1446 H1442 0.949 . S
C1446 C1454 1.574 . S
C1446 C1462 1.368 . S
H1447 C1455 0.950 . S
H1448 C1453 0.950 . S
H1449 C1454 0.949 . S
H1450 C1456 0.950 . S
H1451 C1457 0.950 . S
H1452 C1458 0.949 . S
C1453 H1448 0.950 . S
C1453 C1455 1.327 . S
C1453 C1459 1.429 . S
C1454 C1446 1.574 . S
C1454 H1449 0.949 . S
C1454 C1460 1.368 . S
C1455 C1439 1.349 . S
C1455 H1447 0.950 . S
C1455 C1453 1.327 . S
C1456 C1444 1.349 . S
C1456 H1450 0.950 . S
C1456 C1457 1.327 . S
C1457 H1451 0.950 . S
C1457 C1456 1.327 . S
C1457 C1461 1.429 . S
C1458 C1441 1.574 . S
C1458 H1452 0.949 . S
C1458 C1462 1.368 . S
C1459 C1440 1.429 . S
C1459 C1453 1.429 . S
C1459 C1460 1.523 . S
C1460 C1441 1.368 . S
C1460 C1454 1.368 . S
C1460 C1459 1.523 . S
C1461 C1445 1.429 . S
C1461 C1457 1.429 . S
C1461 C1462 1.523 . S
C1462 C1446 1.368 . S
C1462 C1458 1.368 . S
C1462 C1461 1.523 . S
H1463 C1438 0.950 . S
H1464 C1440 0.950 . S
H1465 C1441 0.949 . S
H1466 C1443 0.950 . S
H1467 C1445 0.950 . S
C1468 C1469 1.349 . S
C1468 C1470 1.327 1_565 S
C1468 H1493 0.950 . S
C1469 C1468 1.349 . S
C1469 C1485 1.349 1_565 S
C1470 C1468 1.327 1_545 S
C1470 C1489 1.429 . S
C1470 H1494 0.950 . S
C1471 C1488 1.574 . S
C1471 C1490 1.368 . S
C1471 H1495 0.949 . S
H1472 C1476 0.949 . S
C1473 C1474 1.349 . S
C1473 C1475 1.327 . S
C1473 H1496 0.950 . S
C1474 C1473 1.349 . S
C1474 C1486 1.349 . S
C1475 C1473 1.327 . S
C1475 C1491 1.429 . S
C1475 H1497 0.950 . S
C1476 H1472 0.949 . S
C1476 C1484 1.574 . S
C1476 C1492 1.368 . S
H1477 C1485 0.950 . S
H1478 C1483 0.950 . S
H1479 C1484 0.949 . S
H1480 C1486 0.950 . S
H1481 C1487 0.950 . S
H1482 C1488 0.949 . S
C1483 H1478 0.950 . S
C1483 C1485 1.327 . S
C1483 C1489 1.429 . S
C1484 C1476 1.574 . S
C1484 H1479 0.949 . S
C1484 C1490 1.368 . S
C1485 C1469 1.349 1_545 S
C1485 H1477 0.950 . S
C1485 C1483 1.327 . S
C1486 C1474 1.349 . S
C1486 H1480 0.950 . S
C1486 C1487 1.327 . S
C1487 H1481 0.950 . S
C1487 C1486 1.327 . S
C1487 C1491 1.429 . S
C1488 C1471 1.574 . S
C1488 H1482 0.949 . S
C1488 C1492 1.368 . S
C1489 C1470 1.429 . S
C1489 C1483 1.429 . S
C1489 C1490 1.523 . S
C1490 C1471 1.368 . S
C1490 C1484 1.368 . S
C1490 C1489 1.523 . S
C1491 C1475 1.429 . S
C1491 C1487 1.429 . S
C1491 C1492 1.523 . S
C1492 C1476 1.368 . S
C1492 C1488 1.368 . S
C1492 C1491 1.523 . S
H1493 C1468 0.950 . S
H1494 C1470 0.950 . S
H1495 C1471 0.949 . S
H1496 C1473 0.950 . S
H1497 C1475 0.950 . S
C1498 C1499 1.349 . S
C1498 C1500 1.327 . S
C1498 H1523 0.950 . S
C1499 C1498 1.349 . S
C1499 C1515 1.349 . S
C1500 C1498 1.327 . S
C1500 C1519 1.429 . S
C1500 H1524 0.950 . S
C1501 C1518 1.574 . S
C1501 C1520 1.368 . S
C1501 H1525 0.949 . S
H1502 C1506 0.949 . S
C1503 C1504 1.349 . S
C1503 C1505 1.327 . S
C1503 H1526 0.950 . S
C1504 C1503 1.349 . S
C1504 C1516 1.349 . S
C1505 C1503 1.327 . S
C1505 C1521 1.429 . S
C1505 H1527 0.950 . S
C1506 H1502 0.949 . S
C1506 C1514 1.574 . S
C1506 C1522 1.368 . S
H1507 C1515 0.950 . S
H1508 C1513 0.950 . S
H1509 C1514 0.949 . S
H1510 C1516 0.950 . S
H1511 C1517 0.950 . S
H1512 C1518 0.949 . S
C1513 H1508 0.950 . S
C1513 C1515 1.327 . S
C1513 C1519 1.429 . S
C1514 C1506 1.574 . S
C1514 H1509 0.949 . S
C1514 C1520 1.368 . S
C1515 C1499 1.349 . S
C1515 H1507 0.950 . S
C1515 C1513 1.327 . S
C1516 C1504 1.349 . S
C1516 H1510 0.950 . S
C1516 C1517 1.327 . S
C1517 H1511 0.950 . S
C1517 C1516 1.327 . S
C1517 C1521 1.429 . S
C1518 C1501 1.574 . S
C1518 H1512 0.949 . S
C1518 C1522 1.368 . S
C1519 C1500 1.429 . S
C1519 C1513 1.429 . S
C1519 C1520 1.523 . S
C1520 C1501 1.368 . S
C1520 C1514 1.368 . S
C1520 C1519 1.523 . S
C1521 C1505 1.429 . S
C1521 C1517 1.429 . S
C1521 C1522 1.523 . S
C1522 C1506 1.368 . S
C1522 C1518 1.368 . S
C1522 C1521 1.523 . S
H1523 C1498 0.950 . S
H1524 C1500 0.950 . S
H1525 C1501 0.949 . S
H1526 C1503 0.950 . S
H1527 C1505 0.950 . S
C1528 C1529 1.349 . S
C1528 C1530 1.327 . S
C1528 H1553 0.950 . S
C1529 C1528 1.349 . S
C1529 C1545 1.349 . S
C1530 C1528 1.327 . S
C1530 C1549 1.429 . S
C1530 H1554 0.950 . S
C1531 C1548 1.574 . S
C1531 C1550 1.368 . S
C1531 H1555 0.949 . S
H1532 C1536 0.949 . S
C1533 C1534 1.349 . S
C1533 C1535 1.327 . S
C1533 H1556 0.950 . S
C1534 C1533 1.349 . S
C1534 C1546 1.349 . S
C1535 C1533 1.327 . S
C1535 C1551 1.429 . S
C1535 H1557 0.950 . S
C1536 H1532 0.949 . S
C1536 C1544 1.574 . S
C1536 C1552 1.368 . S
H1537 C1545 0.950 . S
H1538 C1543 0.950 . S
H1539 C1544 0.949 . S
H1540 C1546 0.950 . S
H1541 C1547 0.950 . S
H1542 C1548 0.949 . S
C1543 H1538 0.950 . S
C1543 C1545 1.327 . S
C1543 C1549 1.429 . S
C1544 C1536 1.574 . S
C1544 H1539 0.949 . S
C1544 C1550 1.368 . S
C1545 C1529 1.349 . S
C1545 H1537 0.950 . S
C1545 C1543 1.327 . S
C1546 C1534 1.349 . S
C1546 H1540 0.950 . S
C1546 C1547 1.327 . S
C1547 H1541 0.950 . S
C1547 C1546 1.327 . S
C1547 C1551 1.429 . S
C1548 C1531 1.574 . S
C1548 H1542 0.949 . S
C1548 C1552 1.368 . S
C1549 C1530 1.429 . S
C1549 C1543 1.429 . S
C1549 C1550 1.523 . S
C1550 C1531 1.368 . S
C1550 C1544 1.368 . S
C1550 C1549 1.523 . S
C1551 C1535 1.429 . S
C1551 C1547 1.429 . S
C1551 C1552 1.523 . S
C1552 C1536 1.368 . S
C1552 C1548 1.368 . S
C1552 C1551 1.523 . S
H1553 C1528 0.950 . S
H1554 C1530 0.950 . S
H1555 C1531 0.949 . S
H1556 C1533 0.950 . S
H1557 C1535 0.950 . S
C1558 C1559 1.349 . S
C1558 C1560 1.327 . S
C1558 H1583 0.950 . S
C1559 C1558 1.349 . S
C1559 C1575 1.349 . S
C1560 C1558 1.327 . S
C1560 C1579 1.429 . S
C1560 H1584 0.950 . S
C1561 C1578 1.574 . S
C1561 C1580 1.368 . S
C1561 H1585 0.949 . S
H1562 C1566 0.949 . S
C1563 C1564 1.349 . S
C1563 C1565 1.327 . S
C1563 H1586 0.950 . S
C1564 C1563 1.349 . S
C1564 C1576 1.349 . S
C1565 C1563 1.327 . S
C1565 C1581 1.429 . S
C1565 H1587 0.950 . S
C1566 H1562 0.949 . S
C1566 C1574 1.574 . S
C1566 C1582 1.368 . S
H1567 C1575 0.950 . S
H1568 C1573 0.950 . S
H1569 C1574 0.949 . S
H1570 C1576 0.950 . S
H1571 C1577 0.950 . S
H1572 C1578 0.949 . S
C1573 H1568 0.950 . S
C1573 C1575 1.327 . S
C1573 C1579 1.429 . S
C1574 C1566 1.574 . S
C1574 H1569 0.949 . S
C1574 C1580 1.368 . S
C1575 C1559 1.349 . S
C1575 H1567 0.950 . S
C1575 C1573 1.327 . S
C1576 C1564 1.349 . S
C1576 H1570 0.950 . S
C1576 C1577 1.327 . S
C1577 H1571 0.950 . S
C1577 C1576 1.327 . S
C1577 C1581 1.429 . S
C1578 C1561 1.574 . S
C1578 H1572 0.949 . S
C1578 C1582 1.368 . S
C1579 C1560 1.429 . S
C1579 C1573 1.429 . S
C1579 C1580 1.523 . S
C1580 C1561 1.368 . S
C1580 C1574 1.368 . S
C1580 C1579 1.523 . S
C1581 C1565 1.429 . S
C1581 C1577 1.429 . S
C1581 C1582 1.523 . S
C1582 C1566 1.368 . S
C1582 C1578 1.368 . S
C1582 C1581 1.523 . S
H1583 C1558 0.950 . S
H1584 C1560 0.950 . S
H1585 C1561 0.949 . S
H1586 C1563 0.950 . S
H1587 C1565 0.950 . S
C1588 C1589 1.349 . S
C1588 C1590 1.327 . S
C1588 H1613 0.950 . S
C1589 C1588 1.349 . S
C1589 C1605 1.349 . S
C1590 C1588 1.327 . S
C1590 C1609 1.429 . S
C1590 H1614 0.950 . S
C1591 C1608 1.574 . S
C1591 C1610 1.368 . S
C1591 H1615 0.949 . S
H1592 C1596 0.949 . S
C1593 C1594 1.349 . S
C1593 C1595 1.327 . S
C1593 H1616 0.950 . S
C1594 C1593 1.349 . S
C1594 C1606 1.349 . S
C1595 C1593 1.327 . S
C1595 C1611 1.429 . S
C1595 H1617 0.950 . S
C1596 H1592 0.949 . S
C1596 C1604 1.574 . S
C1596 C1612 1.368 . S
H1597 C1605 0.950 . S
H1598 C1603 0.950 . S
H1599 C1604 0.949 . S
H1600 C1606 0.950 . S
H1601 C1607 0.950 . S
H1602 C1608 0.949 . S
C1603 H1598 0.950 . S
C1603 C1605 1.327 . S
C1603 C1609 1.429 . S
C1604 C1596 1.574 . S
C1604 H1599 0.949 . S
C1604 C1610 1.368 . S
C1605 C1589 1.349 . S
C1605 H1597 0.950 . S
C1605 C1603 1.327 . S
C1606 C1594 1.349 . S
C1606 H1600 0.950 . S
C1606 C1607 1.327 . S
C1607 H1601 0.950 . S
C1607 C1606 1.327 . S
C1607 C1611 1.429 . S
C1608 C1591 1.574 . S
C1608 H1602 0.949 . S
C1608 C1612 1.368 . S
C1609 C1590 1.429 . S
C1609 C1603 1.429 . S
C1609 C1610 1.523 . S
C1610 C1591 1.368 . S
C1610 C1604 1.368 . S
C1610 C1609 1.523 . S
C1611 C1595 1.429 . S
C1611 C1607 1.429 . S
C1611 C1612 1.523 . S
C1612 C1596 1.368 . S
C1612 C1608 1.368 . S
C1612 C1611 1.523 . S
H1613 C1588 0.950 . S
H1614 C1590 0.950 . S
H1615 C1591 0.949 . S
H1616 C1593 0.950 . S
H1617 C1595 0.950 . S
C1618 C1619 1.349 . S
C1618 C1620 1.327 . S
C1618 H1643 0.950 . S
C1619 C1618 1.349 . S
C1619 C1635 1.349 . S
C1620 C1618 1.327 . S
C1620 C1639 1.429 . S
C1620 H1644 0.950 . S
C1621 C1638 1.574 . S
C1621 C1640 1.368 . S
C1621 H1645 0.949 . S
H1622 C1626 0.949 . S
C1623 C1624 1.349 . S
C1623 C1625 1.327 . S
C1623 H1646 0.950 . S
C1624 C1623 1.349 . S
C1624 C1636 1.349 . S
C1625 C1623 1.327 . S
C1625 C1641 1.429 . S
C1625 H1647 0.950 . S
C1626 H1622 0.949 . S
C1626 C1634 1.574 . S
C1626 C1642 1.368 . S
H1627 C1635 0.950 . S
H1628 C1633 0.950 . S
H1629 C1634 0.949 . S
H1630 C1636 0.950 . S
H1631 C1637 0.950 . S
H1632 C1638 0.949 . S
C1633 H1628 0.950 . S
C1633 C1635 1.327 . S
C1633 C1639 1.429 . S
C1634 C1626 1.574 . S
C1634 H1629 0.949 . S
C1634 C1640 1.368 . S
C1635 C1619 1.349 . S
C1635 H1627 0.950 . S
C1635 C1633 1.327 . S
C1636 C1624 1.349 . S
C1636 H1630 0.950 . S
C1636 C1637 1.327 . S
C1637 H1631 0.950 . S
C1637 C1636 1.327 . S
C1637 C1641 1.429 . S
C1638 C1621 1.574 . S
C1638 H1632 0.949 . S
C1638 C1642 1.368 . S
C1639 C1620 1.429 . S
C1639 C1633 1.429 . S
C1639 C1640 1.523 . S
C1640 C1621 1.368 . S
C1640 C1634 1.368 . S
C1640 C1639 1.523 . S
C1641 C1625 1.429 . S
C1641 C1637 1.429 . S
C1641 C1642 1.523 . S
C1642 C1626 1.368 . S
C1642 C1638 1.368 . S
C1642 C1641 1.523 . S
H1643 C1618 0.950 . S
H1644 C1620 0.950 . S
H1645 C1621 0.949 . S
H1646 C1623 0.950 . S
H1647 C1625 0.950 . S
C1648 C1649 1.349 . S
C1648 C1650 1.327 . S
C1648 H1673 0.950 . S
C1649 C1648 1.349 . S
C1649 C1665 1.349 . S
C1650 C1648 1.327 . S
C1650 C1669 1.429 . S
C1650 H1674 0.950 . S
C1651 C1668 1.574 . S
C1651 C1670 1.368 . S
C1651 H1675 0.949 . S
H1652 C1656 0.949 . S
C1653 C1654 1.349 . S
C1653 C1655 1.327 . S
C1653 H1676 0.950 . S
C1654 C1653 1.349 . S
C1654 C1666 1.349 . S
C1655 C1653 1.327 . S
C1655 C1671 1.429 . S
C1655 H1677 0.950 . S
C1656 H1652 0.949 . S
C1656 C1664 1.574 . S
C1656 C1672 1.368 . S
H1657 C1665 0.950 . S
H1658 C1663 0.950 . S
H1659 C1664 0.949 . S
H1660 C1666 0.950 . S
H1661 C1667 0.950 . S
H1662 C1668 0.949 . S
C1663 H1658 0.950 . S
C1663 C1665 1.327 . S
C1663 C1669 1.429 . S
C1664 C1656 1.574 . S
C1664 H1659 0.949 . S
C1664 C1670 1.368 . S
C1665 C1649 1.349 . S
C1665 H1657 0.950 . S
C1665 C1663 1.327 . S
C1666 C1654 1.349 . S
C1666 H1660 0.950 . S
C1666 C1667 1.327 . S
C1667 H1661 0.950 . S
C1667 C1666 1.327 . S
C1667 C1671 1.429 . S
C1668 C1651 1.574 . S
C1668 H1662 0.949 . S
C1668 C1672 1.368 . S
C1669 C1650 1.429 . S
C1669 C1663 1.429 . S
C1669 C1670 1.523 . S
C1670 C1651 1.368 . S
C1670 C1664 1.368 . S
C1670 C1669 1.523 . S
C1671 C1655 1.429 . S
C1671 C1667 1.429 . S
C1671 C1672 1.523 . S
C1672 C1656 1.368 . S
C1672 C1668 1.368 . S
C1672 C1671 1.523 . S
H1673 C1648 0.950 . S
H1674 C1650 0.950 . S
H1675 C1651 0.949 . S
H1676 C1653 0.950 . S
H1677 C1655 0.950 . S
C1678 C1679 1.349 . S
C1678 C1680 1.327 . S
C1678 H1703 0.950 . S
C1679 C1678 1.349 . S
C1679 C1695 1.349 . S
C1680 C1678 1.327 . S
C1680 C1699 1.429 . S
C1680 H1704 0.950 . S
C1681 C1698 1.574 . S
C1681 C1700 1.368 . S
C1681 H1705 0.949 . S
H1682 C1686 0.949 . S
C1683 C1684 1.349 . S
C1683 C1685 1.327 . S
C1683 H1706 0.950 . S
C1684 C1683 1.349 . S
C1684 C1696 1.349 . S
C1685 C1683 1.327 . S
C1685 C1701 1.429 . S
C1685 H1707 0.950 . S
C1686 H1682 0.949 . S
C1686 C1694 1.637 . S
C1686 C1702 1.368 . S
H1687 C1695 0.950 . S
H1688 C1693 0.950 . S
H1689 C1694 0.880 1_455 S
H1690 C1696 0.950 . S
H1691 C1697 0.950 . S
H1692 C1698 0.949 . S
C1693 H1688 0.950 . S
C1693 C1695 1.327 . S
C1693 C1699 1.429 . S
C1694 C1686 1.637 . S
C1694 H1689 0.880 1_655 S
C1694 C1700 1.386 . S
C1695 C1679 1.349 . S
C1695 H1687 0.950 . S
C1695 C1693 1.327 . S
C1696 C1684 1.349 . S
C1696 H1690 0.950 . S
C1696 C1697 1.327 . S
C1697 H1691 0.950 . S
C1697 C1696 1.327 . S
C1697 C1701 1.429 . S
C1698 C1681 1.574 . S
C1698 H1692 0.949 . S
C1698 C1702 1.368 . S
C1699 C1680 1.429 . S
C1699 C1693 1.429 . S
C1699 C1700 1.523 1_455 S
C1700 C1681 1.368 . S
C1700 C1694 1.386 . S
C1700 C1699 1.523 1_655 S
C1701 C1685 1.429 . S
C1701 C1697 1.429 . S
C1701 C1702 1.523 . S
C1702 C1686 1.368 . S
C1702 C1698 1.368 . S
C1702 C1701 1.523 . S
H1703 C1678 0.950 . S
H1704 C1680 0.950 . S
H1705 C1681 0.949 . S
H1706 C1683 0.950 . S
H1707 C1685 0.950 . S
C1708 C1709 1.349 . S
C1708 C1710 1.327 . S
C1708 H1733 0.950 . S
C1709 C1708 1.349 . S
C1709 C1725 1.349 . S
C1710 C1708 1.327 . S
C1710 C1729 1.429 . S
C1710 H1734 0.950 . S
C1711 C1728 1.574 . S
C1711 C1730 1.368 . S
C1711 H1735 0.949 . S
H1712 C1716 0.949 . S
C1713 C1714 1.349 . S
C1713 C1715 1.327 . S
C1713 H1736 0.950 . S
C1714 C1713 1.349 . S
C1714 C1726 1.349 . S
C1715 C1713 1.327 . S
C1715 C1731 1.429 . S
C1715 H1737 0.950 . S
C1716 H1712 0.949 . S
C1716 C1724 1.574 . S
C1716 C1732 1.368 . S
H1717 C1725 0.950 . S
H1718 C1723 0.950 . S
H1719 C1724 0.949 . S
H1720 C1726 0.950 . S
H1721 C1727 0.950 . S
H1722 C1728 0.949 . S
C1723 H1718 0.950 . S
C1723 C1725 1.327 . S
C1723 C1729 1.429 . S
C1724 C1716 1.574 . S
C1724 H1719 0.949 . S
C1724 C1730 1.368 . S
C1725 C1709 1.349 . S
C1725 H1717 0.950 . S
C1725 C1723 1.327 . S
C1726 C1714 1.349 . S
C1726 H1720 0.950 . S
C1726 C1727 1.327 . S
C1727 H1721 0.950 . S
C1727 C1726 1.327 . S
C1727 C1731 1.429 . S
C1728 C1711 1.574 . S
C1728 H1722 0.949 . S
C1728 C1732 1.368 . S
C1729 C1710 1.429 . S
C1729 C1723 1.429 . S
C1729 C1730 1.523 . S
C1730 C1711 1.368 . S
C1730 C1724 1.368 . S
C1730 C1729 1.523 . S
C1731 C1715 1.429 . S
C1731 C1727 1.429 . S
C1731 C1732 1.523 . S
C1732 C1716 1.368 . S
C1732 C1728 1.368 . S
C1732 C1731 1.523 . S
H1733 C1708 0.950 . S
H1734 C1710 0.950 . S
H1735 C1711 0.949 . S
H1736 C1713 0.950 . S
H1737 C1715 0.950 . S
C1738 C1739 1.349 . S
C1738 C1740 1.327 . S
C1738 H1763 0.950 . S
C1739 C1738 1.349 . S
C1739 C1755 1.349 . S
C1740 C1738 1.327 . S
C1740 C1759 1.429 . S
C1740 H1764 0.950 . S
C1741 C1758 1.574 . S
C1741 C1760 1.368 1_455 S
C1741 H1765 0.949 1_455 S
H1742 C1746 0.949 . S
C1743 C1744 1.349 . S
C1743 C1745 1.327 . S
C1743 H1766 0.950 . S
C1744 C1743 1.349 . S
C1744 C1756 1.349 . S
C1745 C1743 1.327 . S
C1745 C1761 1.429 . S
C1745 H1767 0.950 . S
C1746 H1742 0.949 . S
C1746 C1754 1.574 . S
C1746 C1762 1.368 . S
H1747 C1755 0.950 . S
H1748 C1753 0.950 . S
H1749 C1754 0.949 1_655 S
H1750 C1756 0.950 . S
H1751 C1757 0.950 . S
H1752 C1758 0.949 . S
C1753 H1748 0.950 . S
C1753 C1755 1.327 . S
C1753 C1759 1.429 . S
C1754 C1746 1.574 . S
C1754 H1749 0.949 1_455 S
C1754 C1760 1.368 1_455 S
C1755 C1739 1.349 . S
C1755 H1747 0.950 . S
C1755 C1753 1.327 . S
C1756 C1744 1.349 . S
C1756 H1750 0.950 . S
C1756 C1757 1.327 . S
C1757 H1751 0.950 . S
C1757 C1756 1.327 . S
C1757 C1761 1.429 . S
C1758 C1741 1.574 . S
C1758 H1752 0.949 . S
C1758 C1762 1.368 . S
C1759 C1740 1.429 . S
C1759 C1753 1.429 . S
C1759 C1760 1.523 . S
C1760 C1741 1.368 1_655 S
C1760 C1754 1.368 1_655 S
C1760 C1759 1.523 . S
C1761 C1745 1.429 . S
C1761 C1757 1.429 . S
C1761 C1762 1.523 . S
C1762 C1746 1.368 . S
C1762 C1758 1.368 . S
C1762 C1761 1.523 . S
H1763 C1738 0.950 . S
H1764 C1740 0.950 . S
H1765 C1741 0.949 1_655 S
H1766 C1743 0.950 . S
H1767 C1745 0.950 . S
C1768 C1769 1.349 . S
C1768 C1770 1.327 . S
C1768 H1793 0.950 . S
C1769 C1768 1.349 . S
C1769 C1785 1.349 . S
C1770 C1768 1.327 . S
C1770 C1789 1.429 . S
C1770 H1794 0.950 . S
C1771 C1788 1.574 . S
C1771 C1790 1.368 . S
C1771 H1795 0.949 . S
H1772 C1776 0.949 . S
C1773 C1774 1.349 . S
C1773 C1775 1.327 . S
C1773 H1796 0.950 . S
C1774 C1773 1.349 . S
C1774 C1786 1.349 . S
C1775 C1773 1.327 . S
C1775 C1791 1.429 . S
C1775 H1797 0.950 . S
C1776 H1772 0.949 . S
C1776 C1784 1.574 . S
C1776 C1792 1.368 . S
H1777 C1785 0.950 . S
H1778 C1783 0.950 . S
H1779 C1784 0.949 . S
H1780 C1786 0.950 . S
H1781 C1787 0.950 . S
H1782 C1788 0.949 . S
C1783 H1778 0.950 . S
C1783 C1785 1.327 . S
C1783 C1789 1.429 . S
C1784 C1776 1.574 . S
C1784 H1779 0.949 . S
C1784 C1790 1.368 . S
C1785 C1769 1.349 . S
C1785 H1777 0.950 . S
C1785 C1783 1.327 . S
C1786 C1774 1.349 . S
C1786 H1780 0.950 . S
C1786 C1787 1.327 . S
C1787 H1781 0.950 . S
C1787 C1786 1.327 . S
C1787 C1791 1.429 . S
C1788 C1771 1.574 . S
C1788 H1782 0.949 . S
C1788 C1792 1.368 . S
C1789 C1770 1.429 . S
C1789 C1783 1.429 . S
C1789 C1790 1.523 . S
C1790 C1771 1.368 . S
C1790 C1784 1.368 . S
C1790 C1789 1.523 . S
C1791 C1775 1.429 . S
C1791 C1787 1.429 . S
C1791 C1792 1.523 . S
C1792 C1776 1.368 . S
C1792 C1788 1.368 . S
C1792 C1791 1.523 . S
H1793 C1768 0.950 . S
H1794 C1770 0.950 . S
H1795 C1771 0.949 . S
H1796 C1773 0.950 . S
H1797 C1775 0.950 . S
C1798 C1799 1.349 . S
C1798 C1800 1.327 . S
C1798 H1823 0.950 . S
C1799 C1798 1.349 . S
C1799 C1815 1.349 . S
C1800 C1798 1.327 . S
C1800 C1819 1.430 1_554 S
C1800 H1824 0.950 . S
C1801 C1818 1.574 . S
C1801 C1820 1.368 . S
C1801 H1825 0.949 . S
H1802 C1806 0.949 . S
C1803 C1804 1.349 . S
C1803 C1805 1.327 . S
C1803 H1826 0.950 . S
C1804 C1803 1.349 . S
C1804 C1816 1.349 . S
C1805 C1803 1.327 . S
C1805 C1821 1.429 . S
C1805 H1827 0.950 . S
C1806 H1802 0.949 . S
C1806 C1814 1.574 . S
C1806 C1822 1.368 . S
H1807 C1815 0.950 . S
H1808 C1813 0.977 . S
H1809 C1814 0.949 . S
H1810 C1816 0.950 1_455 S
H1811 C1817 0.950 . S
H1812 C1818 0.949 . S
C1813 H1808 0.977 . S
C1813 C1815 1.327 . S
C1813 C1819 1.430 1_554 S
C1814 C1806 1.574 . S
C1814 H1809 0.949 . S
C1814 C1820 1.368 . S
C1815 C1799 1.349 . S
C1815 H1807 0.950 . S
C1815 C1813 1.327 . S
C1816 C1804 1.349 . S
C1816 H1810 0.950 1_655 S
C1816 C1817 1.327 . S
C1817 H1811 0.950 . S
C1817 C1816 1.327 . S
C1817 C1821 1.429 . S
C1818 C1801 1.574 . S
C1818 H1812 0.949 . S
C1818 C1822 1.368 . S
C1819 C1800 1.430 1_556 S
C1819 C1813 1.430 1_556 S
C1819 C1820 1.520 . S
C1820 C1801 1.368 . S
C1820 C1814 1.368 . S
C1820 C1819 1.520 . S
C1821 C1805 1.429 . S
C1821 C1817 1.429 . S
C1821 C1822 1.523 . S
C1822 C1806 1.368 . S
C1822 C1818 1.368 . S
C1822 C1821 1.523 . S
H1823 C1798 0.950 . S
H1824 C1800 0.950 . S
H1825 C1801 0.949 . S
H1826 C1803 0.950 . S
H1827 C1805 0.950 . S
C1828 C1829 1.349 . S
C1828 C1830 1.327 . S
C1828 H1853 0.950 . S
C1829 C1828 1.349 . S
C1829 C1845 1.349 . S
C1830 C1828 1.327 . S
C1830 C1849 1.429 . S
C1830 H1854 0.950 . S
C1831 C1848 1.574 . S
C1831 C1850 1.368 . S
C1831 H1855 0.949 . S
H1832 C1836 0.949 . S
C1833 C1834 1.349 . S
C1833 C1835 1.327 . S
C1833 H1856 0.950 . S
C1834 C1833 1.349 . S
C1834 C1846 1.349 . S
C1835 C1833 1.327 . S
C1835 C1851 1.429 . S
C1835 H1857 0.950 . S
C1836 H1832 0.949 . S
C1836 C1844 1.574 . S
C1836 C1852 1.368 . S
H1837 C1845 0.950 . S
H1838 C1843 0.950 . S
H1839 C1844 0.949 . S
H1840 C1846 0.950 . S
H1841 C1847 0.950 . S
H1842 C1848 0.949 . S
C1843 H1838 0.950 . S
C1843 C1845 1.327 . S
C1843 C1849 1.429 . S
C1844 C1836 1.574 . S
C1844 H1839 0.949 . S
C1844 C1850 1.368 . S
C1845 C1829 1.349 . S
C1845 H1837 0.950 . S
C1845 C1843 1.327 . S
C1846 C1834 1.349 . S
C1846 H1840 0.950 . S
C1846 C1847 1.327 . S
C1847 H1841 0.950 . S
C1847 C1846 1.327 . S
C1847 C1851 1.429 . S
C1848 C1831 1.574 . S
C1848 H1842 0.949 . S
C1848 C1852 1.368 . S
C1849 C1830 1.429 . S
C1849 C1843 1.429 . S
C1849 C1850 1.523 . S
C1850 C1831 1.368 . S
C1850 C1844 1.368 . S
C1850 C1849 1.523 . S
C1851 C1835 1.429 . S
C1851 C1847 1.429 . S
C1851 C1852 1.523 . S
C1852 C1836 1.368 . S
C1852 C1848 1.368 . S
C1852 C1851 1.523 . S
H1853 C1828 0.950 . S
H1854 C1830 0.950 . S
H1855 C1831 0.949 . S
H1856 C1833 0.950 . S
H1857 C1835 0.950 . S
C1858 C1859 1.349 . S
C1858 C1860 1.327 . S
C1858 H1883 0.950 . S
C1859 C1858 1.349 . S
C1859 C1875 1.349 . S
C1860 C1858 1.327 . S
C1860 C1879 1.429 . S
C1860 H1884 0.950 . S
C1861 C1878 1.574 . S
C1861 C1880 1.368 1_556 S
C1861 H1885 0.949 . S
H1862 C1866 0.949 . S
C1863 C1864 1.349 . S
C1863 C1865 1.327 . S
C1863 H1886 0.950 . S
C1864 C1863 1.349 . S
C1864 C1876 1.349 . S
C1865 C1863 1.327 . S
C1865 C1881 1.429 . S
C1865 H1887 0.950 . S
C1866 H1862 0.949 . S
C1866 C1874 1.574 1_556 S
C1866 C1882 1.368 . S
H1867 C1875 0.950 . S
H1868 C1873 0.950 . S
H1869 C1874 0.949 . S
H1870 C1876 0.950 . S
H1871 C1877 0.950 . S
H1872 C1878 0.949 . S
C1873 H1868 0.950 . S
C1873 C1875 1.327 . S
C1873 C1879 1.429 . S
C1874 C1866 1.574 1_554 S
C1874 H1869 0.949 . S
C1874 C1880 1.368 . S
C1875 C1859 1.349 . S
C1875 H1867 0.950 . S
C1875 C1873 1.327 . S
C1876 C1864 1.349 . S
C1876 H1870 0.950 . S
C1876 C1877 1.327 . S
C1877 H1871 0.950 . S
C1877 C1876 1.327 . S
C1877 C1881 1.429 . S
C1878 C1861 1.574 . S
C1878 H1872 0.949 . S
C1878 C1882 1.368 . S
C1879 C1860 1.429 . S
C1879 C1873 1.429 . S
C1879 C1880 1.523 . S
C1880 C1861 1.368 1_554 S
C1880 C1874 1.368 . S
C1880 C1879 1.523 . S
C1881 C1865 1.429 . S
C1881 C1877 1.429 . S
C1881 C1882 1.523 . S
C1882 C1866 1.368 . S
C1882 C1878 1.368 . S
C1882 C1881 1.523 . S
H1883 C1858 0.950 . S
H1884 C1860 0.950 . S
H1885 C1861 0.949 . S
H1886 C1863 0.950 . S
H1887 C1865 0.950 . S
C1888 C1889 1.349 . S
C1888 C1890 1.327 . S
C1888 H1913 0.950 . S
C1889 C1888 1.349 . S
C1889 C1905 1.349 . S
C1890 C1888 1.327 . S
C1890 C1909 1.429 . S
C1890 H1914 0.950 . S
C1891 C1908 1.574 . S
C1891 C1910 1.368 . S
C1891 H1915 0.949 . S
H1892 C1896 0.949 . S
C1893 C1894 1.349 . S
C1893 C1895 1.327 . S
C1893 H1916 0.950 . S
C1894 C1893 1.349 . S
C1894 C1906 1.349 . S
C1895 C1893 1.327 . S
C1895 C1911 1.429 . S
C1895 H1917 0.950 . S
C1896 H1892 0.949 . S
C1896 C1904 1.574 . S
C1896 C1912 1.368 . S
H1897 C1905 0.950 . S
H1898 C1903 0.950 . S
H1899 C1904 0.949 . S
H1900 C1906 0.950 . S
H1901 C1907 0.950 . S
H1902 C1908 0.949 . S
C1903 H1898 0.950 . S
C1903 C1905 1.327 . S
C1903 C1909 1.429 . S
C1904 C1896 1.574 . S
C1904 H1899 0.949 . S
C1904 C1910 1.368 . S
C1905 C1889 1.349 . S
C1905 H1897 0.950 . S
C1905 C1903 1.327 . S
C1906 C1894 1.349 . S
C1906 H1900 0.950 . S
C1906 C1907 1.327 . S
C1907 H1901 0.950 . S
C1907 C1906 1.327 . S
C1907 C1911 1.429 . S
C1908 C1891 1.574 . S
C1908 H1902 0.949 . S
C1908 C1912 1.368 . S
C1909 C1890 1.429 . S
C1909 C1903 1.429 . S
C1909 C1910 1.523 . S
C1910 C1891 1.368 . S
C1910 C1904 1.368 . S
C1910 C1909 1.523 . S
C1911 C1895 1.429 . S
C1911 C1907 1.429 . S
C1911 C1912 1.523 . S
C1912 C1896 1.368 . S
C1912 C1908 1.368 . S
C1912 C1911 1.523 . S
H1913 C1888 0.950 . S
H1914 C1890 0.950 . S
H1915 C1891 0.949 . S
H1916 C1893 0.950 . S
H1917 C1895 0.950 . S
C1918 C1919 1.349 . S
C1918 C1920 1.327 . S
C1918 H1943 0.950 . S
C1919 C1918 1.349 . S
C1919 C1935 1.349 . S
C1920 C1918 1.327 . S
C1920 C1939 1.429 1_556 S
C1920 H1944 0.950 . S
C1921 C1938 1.574 . S
C1921 C1940 1.368 . S
C1921 H1945 0.949 . S
H1922 C1926 0.949 . S
C1923 C1924 1.349 . S
C1923 C1925 1.327 . S
C1923 H1946 0.950 . S
C1924 C1923 1.349 . S
C1924 C1936 1.349 . S
C1925 C1923 1.327 . S
C1925 C1941 1.429 . S
C1925 H1947 0.950 . S
C1926 H1922 0.949 . S
C1926 C1934 1.574 . S
C1926 C1942 1.368 . S
H1927 C1935 0.950 . S
H1928 C1933 0.950 . S
H1929 C1934 0.949 . S
H1930 C1936 0.950 . S
H1931 C1937 0.950 . S
H1932 C1938 0.949 . S
C1933 H1928 0.950 . S
C1933 C1935 1.327 1_554 S
C1933 C1939 1.429 . S
C1934 C1926 1.574 . S
C1934 H1929 0.949 . S
C1934 C1940 1.368 . S
C1935 C1919 1.349 . S
C1935 H1927 0.950 . S
C1935 C1933 1.327 1_556 S
C1936 C1924 1.349 . S
C1936 H1930 0.950 . S
C1936 C1937 1.327 . S
C1937 H1931 0.950 . S
C1937 C1936 1.327 . S
C1937 C1941 1.429 . S
C1938 C1921 1.574 . S
C1938 H1932 0.949 . S
C1938 C1942 1.368 . S
C1939 C1920 1.429 1_554 S
C1939 C1933 1.429 . S
C1939 C1940 1.523 . S
C1940 C1921 1.368 . S
C1940 C1934 1.368 . S
C1940 C1939 1.523 . S
C1941 C1925 1.429 . S
C1941 C1937 1.429 . S
C1941 C1942 1.523 . S
C1942 C1926 1.368 . S
C1942 C1938 1.368 . S
C1942 C1941 1.523 . S
H1943 C1918 0.950 . S
H1944 C1920 0.950 . S
H1945 C1921 0.949 . S
H1946 C1923 0.950 . S
H1947 C1925 0.950 . S
C1948 C1949 1.349 . S
C1948 C1950 1.327 . S
C1948 H1973 0.950 . S
C1949 C1948 1.349 . S
C1949 C1965 1.349 . S
C1950 C1948 1.327 . S
C1950 C1969 1.429 . S
C1950 H1974 0.950 . S
C1951 C1968 1.574 . S
C1951 C1970 1.368 . S
C1951 H1975 0.949 . S
H1952 C1956 0.949 . S
C1953 C1954 1.349 . S
C1953 C1955 1.327 . S
C1953 H1976 0.950 . S
C1954 C1953 1.349 . S
C1954 C1966 1.349 . S
C1955 C1953 1.327 . S
C1955 C1971 1.429 . S
C1955 H1977 0.950 . S
C1956 H1952 0.949 . S
C1956 C1964 1.574 . S
C1956 C1972 1.368 . S
H1957 C1965 0.950 . S
H1958 C1963 0.950 . S
H1959 C1964 0.949 . S
H1960 C1966 0.950 . S
H1961 C1967 0.950 . S
H1962 C1968 0.949 . S
C1963 H1958 0.950 . S
C1963 C1965 1.327 . S
C1963 C1969 1.429 . S
C1964 C1956 1.574 . S
C1964 H1959 0.949 . S
C1964 C1970 1.368 . S
C1965 C1949 1.349 . S
C1965 H1957 0.950 . S
C1965 C1963 1.327 . S
C1966 C1954 1.349 . S
C1966 H1960 0.950 . S
C1966 C1967 1.327 . S
C1967 H1961 0.950 . S
C1967 C1966 1.327 . S
C1967 C1971 1.429 . S
C1968 C1951 1.574 . S
C1968 H1962 0.949 . S
C1968 C1972 1.368 . S
C1969 C1950 1.429 . S
C1969 C1963 1.429 . S
C1969 C1970 1.523 . S
C1970 C1951 1.368 . S
C1970 C1964 1.368 . S
C1970 C1969 1.523 . S
C1971 C1955 1.429 . S
C1971 C1967 1.429 . S
C1971 C1972 1.523 . S
C1972 C1956 1.368 . S
C1972 C1968 1.368 . S
C1972 C1971 1.523 . S
H1973 C1948 0.950 . S
H1974 C1950 0.950 . S
H1975 C1951 0.949 . S
H1976 C1953 0.950 . S
H1977 C1955 0.950 . S
C1978 C1979 1.349 1_554 S
C1978 C1980 1.327 . S
C1978 H2003 0.950 . S
C1979 C1978 1.349 1_556 S
C1979 C1995 1.349 . S
C1980 C1978 1.327 . S
C1980 C1999 1.429 . S
C1980 H2004 0.950 . S
C1981 C1998 1.574 . S
C1981 C2000 1.368 . S
C1981 H2005 0.949 . S
H1982 C1986 0.949 . S
C1983 C1984 1.349 . S
C1983 C1985 1.327 . S
C1983 H2006 0.950 . S
C1984 C1983 1.349 . S
C1984 C1996 1.349 . S
C1985 C1983 1.327 . S
C1985 C2001 1.429 . S
C1985 H2007 0.950 . S
C1986 H1982 0.949 . S
C1986 C1994 1.574 . S
C1986 C2002 1.368 . S
H1987 C1995 0.950 . S
H1988 C1993 0.950 . S
H1989 C1994 0.949 . S
H1990 C1996 0.950 . S
H1991 C1997 0.950 . S
H1992 C1998 0.949 . S
C1993 H1988 0.950 . S
C1993 C1995 1.327 1_554 S
C1993 C1999 1.429 . S
C1994 C1986 1.574 . S
C1994 H1989 0.949 . S
C1994 C2000 1.368 . S
C1995 C1979 1.349 . S
C1995 H1987 0.950 . S
C1995 C1993 1.327 1_556 S
C1996 C1984 1.349 . S
C1996 H1990 0.950 . S
C1996 C1997 1.327 . S
C1997 H1991 0.950 . S
C1997 C1996 1.327 . S
C1997 C2001 1.429 . S
C1998 C1981 1.574 . S
C1998 H1992 0.949 . S
C1998 C2002 1.368 . S
C1999 C1980 1.429 . S
C1999 C1993 1.429 . S
C1999 C2000 1.523 . S
C2000 C1981 1.368 . S
C2000 C1994 1.368 . S
C2000 C1999 1.523 . S
C2001 C1985 1.429 . S
C2001 C1997 1.429 . S
C2001 C2002 1.523 . S
C2002 C1986 1.368 . S
C2002 C1998 1.368 . S
C2002 C2001 1.523 . S
H2003 C1978 0.950 . S
H2004 C1980 0.950 . S
H2005 C1981 0.949 . S
H2006 C1983 0.950 . S
H2007 C1985 0.950 . S
C2008 C2009 1.349 . S
C2008 C2010 1.327 . S
C2008 H2033 0.950 . S
C2009 C2008 1.349 . S
C2009 C2025 1.349 . S
C2010 C2008 1.327 . S
C2010 C2029 1.429 . S
C2010 H2034 0.950 . S
C2011 C2028 1.574 . S
C2011 C2030 1.368 . S
C2011 H2035 0.949 . S
H2012 C2016 0.949 . S
C2013 C2014 1.349 . S
C2013 C2015 1.327 . S
C2013 H2036 0.950 . S
C2014 C2013 1.349 . S
C2014 C2026 1.349 . S
C2015 C2013 1.327 . S
C2015 C2031 1.429 . S
C2015 H2037 0.950 . S
C2016 H2012 0.949 . S
C2016 C2024 1.574 . S
C2016 C2032 1.368 . S
H2017 C2025 0.950 . S
H2018 C2023 0.950 . S
H2019 C2024 0.949 . S
H2020 C2026 0.950 . S
H2021 C2027 0.950 . S
H2022 C2028 0.949 . S
C2023 H2018 0.950 . S
C2023 C2025 1.327 . S
C2023 C2029 1.429 . S
C2024 C2016 1.574 . S
C2024 H2019 0.949 . S
C2024 C2030 1.368 . S
C2025 C2009 1.349 . S
C2025 H2017 0.950 . S
C2025 C2023 1.327 . S
C2026 C2014 1.349 . S
C2026 H2020 0.950 . S
C2026 C2027 1.327 . S
C2027 H2021 0.950 . S
C2027 C2026 1.327 . S
C2027 C2031 1.429 . S
C2028 C2011 1.574 . S
C2028 H2022 0.949 . S
C2028 C2032 1.368 . S
C2029 C2010 1.429 . S
C2029 C2023 1.429 . S
C2029 C2030 1.523 . S
C2030 C2011 1.368 . S
C2030 C2024 1.368 . S
C2030 C2029 1.523 . S
C2031 C2015 1.429 . S
C2031 C2027 1.429 . S
C2031 C2032 1.523 . S
C2032 C2016 1.368 . S
C2032 C2028 1.368 . S
C2032 C2031 1.523 . S
H2033 C2008 0.950 . S
H2034 C2010 0.950 . S
H2035 C2011 0.949 . S
H2036 C2013 0.950 . S
H2037 C2015 0.950 . S
C2038 C2039 1.349 . S
C2038 C2040 1.327 . S
C2038 H2063 0.950 . S
C2039 C2038 1.349 . S
C2039 C2055 1.349 . S
C2040 C2038 1.327 . S
C2040 C2059 1.429 . S
C2040 H2064 0.950 . S
C2041 C2058 1.574 . S
C2041 C2060 1.368 . S
C2041 H2065 0.949 . S
H2042 C2046 0.949 . S
C2043 C2044 1.349 . S
C2043 C2045 1.327 . S
C2043 H2066 0.950 . S
C2044 C2043 1.349 . S
C2044 C2056 1.349 . S
C2045 C2043 1.327 . S
C2045 C2061 1.429 . S
C2045 H2067 0.950 . S
C2046 H2042 0.949 . S
C2046 C2054 1.574 . S
C2046 C2062 1.368 . S
H2047 C2055 0.950 . S
H2048 C2053 0.950 . S
H2049 C2054 0.949 . S
H2050 C2056 0.950 . S
H2051 C2057 0.950 . S
H2052 C2058 0.949 . S
C2053 H2048 0.950 . S
C2053 C2055 1.327 . S
C2053 C2059 1.429 . S
C2054 C2046 1.574 . S
C2054 H2049 0.949 . S
C2054 C2060 1.368 . S
C2055 C2039 1.349 . S
C2055 H2047 0.950 . S
C2055 C2053 1.327 . S
C2056 C2044 1.349 . S
C2056 H2050 0.950 . S
C2056 C2057 1.327 . S
C2057 H2051 0.950 . S
C2057 C2056 1.327 . S
C2057 C2061 1.429 . S
C2058 C2041 1.574 . S
C2058 H2052 0.949 . S
C2058 C2062 1.368 . S
C2059 C2040 1.429 . S
C2059 C2053 1.429 . S
C2059 C2060 1.523 . S
C2060 C2041 1.368 . S
C2060 C2054 1.368 . S
C2060 C2059 1.523 . S
C2061 C2045 1.429 . S
C2061 C2057 1.429 . S
C2061 C2062 1.523 . S
C2062 C2046 1.368 . S
C2062 C2058 1.368 . S
C2062 C2061 1.523 . S
H2063 C2038 0.950 . S
H2064 C2040 0.950 . S
H2065 C2041 0.949 . S
H2066 C2043 0.950 . S
H2067 C2045 0.950 . S
C2068 C2069 1.349 . S
C2068 C2070 1.327 . S
C2068 H2093 0.950 . S
C2069 C2068 1.349 . S
C2069 C2085 1.349 . S
C2070 C2068 1.327 . S
C2070 C2089 1.429 . S
C2070 H2094 0.950 . S
C2071 C2088 1.574 . S
C2071 C2090 1.368 . S
C2071 H2095 0.949 . S
H2072 C2076 0.949 . S
C2073 C2074 1.349 . S
C2073 C2075 1.327 . S
C2073 H2096 0.950 . S
C2074 C2073 1.349 . S
C2074 C2086 1.349 . S
C2075 C2073 1.327 . S
C2075 C2091 1.429 . S
C2075 H2097 0.950 . S
C2076 H2072 0.949 . S
C2076 C2084 1.574 . S
C2076 C2092 1.368 . S
H2077 C2085 0.950 . S
H2078 C2083 0.950 . S
H2079 C2084 0.949 . S
H2080 C2086 0.950 . S
H2081 C2087 0.950 . S
H2082 C2088 0.949 . S
C2083 H2078 0.950 . S
C2083 C2085 1.327 . S
C2083 C2089 1.429 . S
C2084 C2076 1.574 . S
C2084 H2079 0.949 . S
C2084 C2090 1.368 . S
C2085 C2069 1.349 . S
C2085 H2077 0.950 . S
C2085 C2083 1.327 . S
C2086 C2074 1.349 . S
C2086 H2080 0.950 . S
C2086 C2087 1.327 . S
C2087 H2081 0.950 . S
C2087 C2086 1.327 . S
C2087 C2091 1.429 . S
C2088 C2071 1.574 . S
C2088 H2082 0.949 . S
C2088 C2092 1.368 . S
C2089 C2070 1.429 . S
C2089 C2083 1.429 . S
C2089 C2090 1.523 . S
C2090 C2071 1.368 . S
C2090 C2084 1.368 . S
C2090 C2089 1.523 . S
C2091 C2075 1.429 . S
C2091 C2087 1.429 . S
C2091 C2092 1.523 . S
C2092 C2076 1.368 . S
C2092 C2088 1.368 . S
C2092 C2091 1.523 . S
H2093 C2068 0.950 . S
H2094 C2070 0.950 . S
H2095 C2071 0.949 . S
H2096 C2073 0.950 . S
H2097 C2075 0.950 . S
C2098 C2099 1.349 . S
C2098 C2100 1.327 . S
C2098 H2123 0.950 . S
C2099 C2098 1.349 . S
C2099 C2115 1.349 . S
C2100 C2098 1.327 . S
C2100 C2119 1.429 . S
C2100 H2124 0.950 . S
C2101 C2118 1.574 . S
C2101 C2120 1.368 . S
C2101 H2125 0.949 . S
H2102 C2106 0.949 . S
C2103 C2104 1.349 . S
C2103 C2105 1.327 . S
C2103 H2126 0.950 . S
C2104 C2103 1.349 . S
C2104 C2116 1.349 . S
C2105 C2103 1.327 . S
C2105 C2121 1.429 . S
C2105 H2127 0.950 . S
C2106 H2102 0.949 . S
C2106 C2114 1.574 . S
C2106 C2122 1.368 . S
H2107 C2115 0.950 . S
H2108 C2113 0.950 . S
H2109 C2114 0.949 . S
H2110 C2116 0.950 . S
H2111 C2117 0.950 . S
H2112 C2118 0.949 . S
C2113 H2108 0.950 . S
C2113 C2115 1.327 . S
C2113 C2119 1.429 . S
C2114 C2106 1.574 . S
C2114 H2109 0.949 . S
C2114 C2120 1.368 . S
C2115 C2099 1.349 . S
C2115 H2107 0.950 . S
C2115 C2113 1.327 . S
C2116 C2104 1.349 . S
C2116 H2110 0.950 . S
C2116 C2117 1.327 . S
C2117 H2111 0.950 . S
C2117 C2116 1.327 . S
C2117 C2121 1.429 . S
C2118 C2101 1.574 . S
C2118 H2112 0.949 . S
C2118 C2122 1.368 . S
C2119 C2100 1.429 . S
C2119 C2113 1.429 . S
C2119 C2120 1.523 . S
C2120 C2101 1.368 . S
C2120 C2114 1.368 . S
C2120 C2119 1.523 . S
C2121 C2105 1.429 . S
C2121 C2117 1.429 . S
C2121 C2122 1.523 . S
C2122 C2106 1.368 . S
C2122 C2118 1.368 . S
C2122 C2121 1.523 . S
H2123 C2098 0.950 . S
H2124 C2100 0.950 . S
H2125 C2101 0.949 . S
H2126 C2103 0.950 . S
H2127 C2105 0.950 . S
C2128 C2129 1.349 . S
C2128 C2130 1.327 . S
C2128 H2153 0.950 . S
C2129 C2128 1.349 . S
C2129 C2145 1.349 . S
C2130 C2128 1.327 . S
C2130 C2149 1.429 . S
C2130 H2154 0.950 . S
C2131 C2148 1.574 . S
C2131 C2150 1.368 . S
C2131 H2155 0.949 . S
H2132 C2136 0.949 . S
C2133 C2134 1.349 . S
C2133 C2135 1.327 . S
C2133 H2156 0.950 . S
C2134 C2133 1.349 . S
C2134 C2146 1.349 . S
C2135 C2133 1.327 . S
C2135 C2151 1.429 . S
C2135 H2157 0.950 . S
C2136 H2132 0.949 . S
C2136 C2144 1.574 . S
C2136 C2152 1.368 . S
H2137 C2145 0.950 . S
H2138 C2143 0.950 . S
H2139 C2144 0.949 . S
H2140 C2146 0.950 . S
H2141 C2147 0.950 . S
H2142 C2148 0.949 . S
C2143 H2138 0.950 . S
C2143 C2145 1.327 . S
C2143 C2149 1.429 . S
C2144 C2136 1.574 . S
C2144 H2139 0.949 . S
C2144 C2150 1.368 . S
C2145 C2129 1.349 . S
C2145 H2137 0.950 . S
C2145 C2143 1.327 . S
C2146 C2134 1.349 . S
C2146 H2140 0.950 . S
C2146 C2147 1.327 . S
C2147 H2141 0.950 . S
C2147 C2146 1.327 . S
C2147 C2151 1.429 . S
C2148 C2131 1.574 . S
C2148 H2142 0.949 . S
C2148 C2152 1.368 . S
C2149 C2130 1.429 . S
C2149 C2143 1.429 . S
C2149 C2150 1.523 . S
C2150 C2131 1.368 . S
C2150 C2144 1.368 . S
C2150 C2149 1.523 . S
C2151 C2135 1.429 . S
C2151 C2147 1.429 . S
C2151 C2152 1.523 . S
C2152 C2136 1.368 . S
C2152 C2148 1.368 . S
C2152 C2151 1.523 . S
H2153 C2128 0.950 . S
H2154 C2130 0.950 . S
H2155 C2131 0.949 . S
H2156 C2133 0.950 . S
H2157 C2135 0.950 . S
C2158 C2159 1.349 . S
C2158 C2160 1.327 . S
C2158 H2183 0.950 . S
C2159 C2158 1.349 . S
C2159 C2175 1.349 . S
C2160 C2158 1.327 . S
C2160 C2179 1.429 . S
C2160 H2184 0.950 . S
C2161 C2178 1.574 . S
C2161 C2180 1.368 . S
C2161 H2185 0.949 . S
H2162 C2166 0.949 . S
C2163 C2164 1.349 . S
C2163 C2165 1.327 . S
C2163 H2186 0.950 . S
C2164 C2163 1.349 . S
C2164 C2176 1.349 . S
C2165 C2163 1.327 . S
C2165 C2181 1.429 . S
C2165 H2187 0.950 . S
C2166 H2162 0.949 . S
C2166 C2174 1.574 . S
C2166 C2182 1.368 . S
H2167 C2175 0.950 . S
H2168 C2173 0.950 . S
H2169 C2174 0.949 . S
H2170 C2176 0.950 . S
H2171 C2177 0.950 . S
H2172 C2178 0.949 . S
C2173 H2168 0.950 . S
C2173 C2175 1.327 . S
C2173 C2179 1.429 . S
C2174 C2166 1.574 . S
C2174 H2169 0.949 . S
C2174 C2180 1.368 . S
C2175 C2159 1.349 . S
C2175 H2167 0.950 . S
C2175 C2173 1.327 . S
C2176 C2164 1.349 . S
C2176 H2170 0.950 . S
C2176 C2177 1.327 . S
C2177 H2171 0.950 . S
C2177 C2176 1.327 . S
C2177 C2181 1.429 . S
C2178 C2161 1.574 . S
C2178 H2172 0.949 . S
C2178 C2182 1.368 . S
C2179 C2160 1.429 . S
C2179 C2173 1.429 . S
C2179 C2180 1.523 . S
C2180 C2161 1.368 . S
C2180 C2174 1.368 . S
C2180 C2179 1.523 . S
C2181 C2165 1.429 . S
C2181 C2177 1.429 . S
C2181 C2182 1.523 . S
C2182 C2166 1.368 . S
C2182 C2178 1.368 . S
C2182 C2181 1.523 . S
H2183 C2158 0.950 . S
H2184 C2160 0.950 . S
H2185 C2161 0.949 . S
H2186 C2163 0.950 . S
H2187 C2165 0.950 . S
C2188 C2189 1.349 . S
C2188 C2190 1.327 . S
C2188 H2213 0.950 . S
C2189 C2188 1.349 . S
C2189 C2205 1.349 . S
C2190 C2188 1.327 . S
C2190 C2209 1.429 . S
C2190 H2214 0.950 . S
C2191 C2208 1.574 . S
C2191 C2210 1.368 . S
C2191 H2215 0.949 . S
H2192 C2196 0.949 . S
C2193 C2194 1.349 . S
C2193 C2195 1.327 . S
C2193 H2216 0.950 . S
C2194 C2193 1.349 . S
C2194 C2206 1.349 . S
C2195 C2193 1.327 . S
C2195 C2211 1.429 . S
C2195 H2217 0.950 . S
C2196 H2192 0.949 . S
C2196 C2204 1.574 . S
C2196 C2212 1.368 . S
H2197 C2205 0.950 . S
H2198 C2203 0.950 . S
H2199 C2204 0.949 . S
H2200 C2206 0.950 . S
H2201 C2207 0.950 . S
H2202 C2208 0.949 . S
C2203 H2198 0.950 . S
C2203 C2205 1.327 . S
C2203 C2209 1.429 . S
C2204 C2196 1.574 . S
C2204 H2199 0.949 . S
C2204 C2210 1.368 . S
C2205 C2189 1.349 . S
C2205 H2197 0.950 . S
C2205 C2203 1.327 . S
C2206 C2194 1.349 . S
C2206 H2200 0.950 . S
C2206 C2207 1.327 . S
C2207 H2201 0.950 . S
C2207 C2206 1.327 . S
C2207 C2211 1.429 . S
C2208 C2191 1.574 . S
C2208 H2202 0.949 . S
C2208 C2212 1.368 . S
C2209 C2190 1.429 . S
C2209 C2203 1.429 . S
C2209 C2210 1.523 . S
C2210 C2191 1.368 . S
C2210 C2204 1.368 . S
C2210 C2209 1.523 . S
C2211 C2195 1.429 . S
C2211 C2207 1.429 . S
C2211 C2212 1.523 . S
C2212 C2196 1.368 . S
C2212 C2208 1.368 . S
C2212 C2211 1.523 . S
H2213 C2188 0.950 . S
H2214 C2190 0.950 . S
H2215 C2191 0.949 . S
H2216 C2193 0.950 . S
H2217 C2195 0.950 . S
C2218 C2219 1.349 . S
C2218 C2220 1.327 . S
C2218 H2243 0.950 . S
C2219 C2218 1.349 . S
C2219 C2235 1.349 . S
C2220 C2218 1.327 . S
C2220 C2239 1.429 . S
C2220 H2244 0.950 . S
C2221 C2238 1.574 . S
C2221 C2240 1.368 . S
C2221 H2245 0.949 . S
H2222 C2226 0.949 . S
C2223 C2224 1.349 . S
C2223 C2225 1.327 . S
C2223 H2246 0.950 . S
C2224 C2223 1.349 . S
C2224 C2236 1.349 . S
C2225 C2223 1.327 . S
C2225 C2241 1.429 . S
C2225 H2247 0.950 . S
C2226 H2222 0.949 . S
C2226 C2234 1.574 . S
C2226 C2242 1.368 . S
H2227 C2235 0.950 . S
H2228 C2233 0.950 . S
H2229 C2234 0.949 . S
H2230 C2236 0.950 . S
H2231 C2237 0.950 . S
H2232 C2238 0.949 1_565 S
C2233 H2228 0.950 . S
C2233 C2235 1.327 . S
C2233 C2239 1.429 . S
C2234 C2226 1.574 . S
C2234 H2229 0.949 . S
C2234 C2240 1.368 . S
C2235 C2219 1.349 . S
C2235 H2227 0.950 . S
C2235 C2233 1.327 . S
C2236 C2224 1.349 . S
C2236 H2230 0.950 . S
C2236 C2237 1.327 . S
C2237 H2231 0.950 . S
C2237 C2236 1.327 . S
C2237 C2241 1.429 . S
C2238 C2221 1.574 . S
C2238 H2232 0.949 1_545 S
C2238 C2242 1.368 . S
C2239 C2220 1.429 . S
C2239 C2233 1.429 . S
C2239 C2240 1.523 . S
C2240 C2221 1.368 . S
C2240 C2234 1.368 . S
C2240 C2239 1.523 . S
C2241 C2225 1.429 . S
C2241 C2237 1.429 . S
C2241 C2242 1.523 1_565 S
C2242 C2226 1.368 . S
C2242 C2238 1.368 . S
C2242 C2241 1.523 1_545 S
H2243 C2218 0.950 . S
H2244 C2220 0.950 . S
H2245 C2221 0.949 . S
H2246 C2223 0.950 . S
H2247 C2225 0.950 . S
C814 C648 1.650 . S
C809 C202 1.650 . S
C844 C663 1.796 . S
C839 C261 1.774 . S
C869 C282 1.766 . S
C874 C676 1.761 . S
C904 C690 1.578 . S
C899 C162 1.560 . S
C934 C702 1.695 . S
C929 C402 1.747 . S
C964 C716 1.334 . S
C959 C482 1.276 . S
C989 C442 1.842 . S
C994 C730 1.811 . S
C1024 C745 1.532 . S
C1019 C381 1.477 . S
C1049 C461 1.777 . S
C1054 C761 1.769 . S
C1084 C774 1.527 . S
C1079 C362 1.488 . S
C1109 C415 1.600 . S
C1114 C759 1.552 . S
C1144 C772 1.583 . S
C1139 C495 1.557 . S
C1169 C301 1.984 . S
C1174 C788 1.973 . S
C1199 C175 1.641 . S
C1204 C787 1.635 . S
C1229 C215 1.772 . S
C1234 C786 1.713 . S
C1259 C242 1.595 . S
C1264 C789 1.631 . S
C1289 C141 1.782 . S
C1294 C691 1.775 . S
C1319 C581 1.549 . S
C1324 C689 1.529 . S
C1354 C649 1.532 . S
C1349 C615 1.553 . S
C1384 C660 1.801 . S
C1379 C335 1.826 . S
C1409 C181 1.658 . S
C1414 C705 1.699 . S
C1444 C746 1.963 . S
C1439 C455 1.972 . S
C1474 C703 1.519 . S
C1469 C375 1.506 . S
C1504 C731 1.585 . S
C1499 C501 1.525 . S
C1534 C732 1.650 . S
C1529 C562 1.650 . S
C1559 C621 1.774 . S
C1564 C747 1.796 . S
C1589 C322 1.766 . S
C1594 C704 1.761 . S
C1624 C718 1.578 . S
C1619 C522 1.560 . S
C1649 C122 1.747 . S
C1654 C674 1.695 . S
C1684 C688 1.334 . S
C1679 C2 1.276 . S
C1714 C646 1.811 . S
C1709 C42 1.842 . S
C1744 C661 1.532 . S
C1739 C101 1.478 . S
C1769 C61 1.777 . S
C1774 C775 1.769 . S
C1799 C82 1.488 . S
C1804 C760 1.527 . S
C1829 C135 1.600 . S
C1834 C773 1.552 . S
C1859 C15 1.557 . S
C1864 C758 1.583 . S
C1894 C802 1.973 . S
C1889 C341 1.984 . S
C1924 C801 1.635 . S
C1919 C535 1.641 . S
C1954 C800 1.713 . S
C1949 C575 1.772 . S
C1979 C602 1.595 . S
C1984 C803 1.631 . S
C2009 C421 1.782 . S
C2014 C719 1.775 . S
C2044 C717 1.529 . S
C2039 C221 1.549 . S
C2074 C733 1.532 . S
C2069 C255 1.553 . S
C2104 C744 1.801 . S
C2099 C295 1.826 . S
C2129 C541 1.658 . S
C2134 C677 1.699 . S
C2164 C662 1.963 . S
C2159 C55 1.972 . S
C2189 C95 1.506 . S
C2194 C675 1.519 . S
C2224 C647 1.585 . S
C2219 C21 1.525 . S
