# Generated by pormake.
# Topology zzz, (3,6)-cn, num edge types: 1
# Building blocks:
#     Node 0, Type 0, BuildingBlock: OLANEW_clean_sbu_2, # of connection points: 3
#     Node 1, Type 0, BuildingBlock: OLANEW_clean_sbu_2, # of connection points: 3
#     Node 2, Type 0, BuildingBlock: OLANEW_clean_sbu_2, # of connection points: 3
#     Node 3, Type 0, BuildingBlock: OLANEW_clean_sbu_2, # of connection points: 3
#     Node 4, Type 0, BuildingBlock: OLANEW_clean_sbu_2, # of connection points: 3
#     Node 5, Type 0, BuildingBlock: OLANEW_clean_sbu_2, # of connection points: 3
#     Node 6, Type 0, BuildingBlock: OLANEW_clean_sbu_2, # of connection points: 3
#     Node 7, Type 0, BuildingBlock: OLANEW_clean_sbu_2, # of connection points: 3
#     Node 8, Type 1, BuildingBlock: NUHQIS_clean_sbu_0, # of connection points: 6
#     Node 9, Type 1, BuildingBlock: NUHQIS_clean_sbu_0, # of connection points: 6
#     Node 10, Type 1, BuildingBlock: NUHQIS_clean_sbu_0, # of connection points: 6
#     Node 11, Type 1, BuildingBlock: NUHQIS_clean_sbu_0, # of connection points: 6
#     Edge 12, Type (0, 1), BuildingBlock: UVAHIK_clean_linker_0, # of connection points: 2
#     Edge 13, Type (0, 1), BuildingBlock: UVAHIK_clean_linker_0, # of connection points: 2
#     Edge 14, Type (0, 1), BuildingBlock: UVAHIK_clean_linker_0, # of connection points: 2
#     Edge 15, Type (0, 1), BuildingBlock: UVAHIK_clean_linker_0, # of connection points: 2
#     Edge 16, Type (0, 1), BuildingBlock: UVAHIK_clean_linker_0, # of connection points: 2
#     Edge 17, Type (0, 1), BuildingBlock: UVAHIK_clean_linker_0, # of connection points: 2
#     Edge 18, Type (0, 1), BuildingBlock: UVAHIK_clean_linker_0, # of connection points: 2
#     Edge 19, Type (0, 1), BuildingBlock: UVAHIK_clean_linker_0, # of connection points: 2
#     Edge 20, Type (0, 1), BuildingBlock: UVAHIK_clean_linker_0, # of connection points: 2
#     Edge 21, Type (0, 1), BuildingBlock: UVAHIK_clean_linker_0, # of connection points: 2
#     Edge 22, Type (0, 1), BuildingBlock: UVAHIK_clean_linker_0, # of connection points: 2
#     Edge 23, Type (0, 1), BuildingBlock: UVAHIK_clean_linker_0, # of connection points: 2
#     Edge 24, Type (0, 1), BuildingBlock: UVAHIK_clean_linker_0, # of connection points: 2
#     Edge 25, Type (0, 1), BuildingBlock: UVAHIK_clean_linker_0, # of connection points: 2
#     Edge 26, Type (0, 1), BuildingBlock: UVAHIK_clean_linker_0, # of connection points: 2
#     Edge 27, Type (0, 1), BuildingBlock: UVAHIK_clean_linker_0, # of connection points: 2
#     Edge 28, Type (0, 1), BuildingBlock: UVAHIK_clean_linker_0, # of connection points: 2
#     Edge 29, Type (0, 1), BuildingBlock: UVAHIK_clean_linker_0, # of connection points: 2
#     Edge 30, Type (0, 1), BuildingBlock: UVAHIK_clean_linker_0, # of connection points: 2
#     Edge 31, Type (0, 1), BuildingBlock: UVAHIK_clean_linker_0, # of connection points: 2
#     Edge 32, Type (0, 1), BuildingBlock: UVAHIK_clean_linker_0, # of connection points: 2
#     Edge 33, Type (0, 1), BuildingBlock: UVAHIK_clean_linker_0, # of connection points: 2
#     Edge 34, Type (0, 1), BuildingBlock: UVAHIK_clean_linker_0, # of connection points: 2
#     Edge 35, Type (0, 1), BuildingBlock: UVAHIK_clean_linker_0, # of connection points: 2
# Relax obj value: 0.198
# Max RMSD: 0.146
# Mean RMSD: 0.145
data_MOF--net-zzz--node1-OLANEW_clean_sbu_2--node2-NUHQIS_clean_sbu_0--edge1-UVAHIK_clean_linker_0
_symmetry_space_group_name_H-M    P1
_symmetry_Int_Tables_number       1
_symmetry_cell_setting            triclinic
loop_
_symmetry_equiv_pos_as_xyz
'x, y, z'
_cell_length_a     71.276961
_cell_length_b     71.419031
_cell_length_c     20.158042
_cell_angle_alpha  90.001981
_cell_angle_beta   89.803056
_cell_angle_gamma 89.998924
loop_
_atom_site_label
_atom_site_type_symbol
_atom_site_fract_x
_atom_site_fract_y
_atom_site_fract_z
_atom_type_partial_charge
O0 O 0.74364 0.53678 0.22254 0.0
Cd1 Cd 0.71412 0.548 0.26872 0.0
O2 O 0.73809 0.50851 0.26049 0.0
Cd3 Cd 0.74935 0.48154 0.29163 0.0
O4 O 0.77773 0.47873 0.32904 0.0
C5 C 0.78351 0.49386 0.35508 0.0
O6 O 0.77176 0.50794 0.36096 0.0
C7 C 0.74875 0.51987 0.22959 0.0
C8 C 0.68484 0.53916 0.18405 0.0
O9 O 0.69459 0.55406 0.17568 0.0
O10 O 0.6888 0.5285 0.2332 0.0
O11 O 0.98053 0.72859 0.22126 0.0
Cd12 Cd 0.97497 0.70193 0.29427 0.0
O13 O 0.00448 0.73337 0.28617 0.0
Cd14 Cd 0.02453 0.7515 0.33565 0.0
O15 O 0.02336 0.7785 0.38424 0.0
C16 C 0.00836 0.78732 0.37098 0.0
O17 O 0.996 0.77954 0.3315 0.0
C18 C 0.99454 0.73857 0.23719 0.0
C19 C 0.97803 0.66883 0.22376 0.0
O20 O 0.96201 0.67662 0.23269 0.0
O21 O 0.99253 0.67661 0.24918 0.0
O22 O 0.74856 0.96651 0.25451 0.0
Cd23 Cd 0.77913 0.95691 0.29793 0.0
O24 O 0.74714 0.9905 0.32222 0.0
Cd25 Cd 0.73391 0.01501 0.36752 0.0
O26 O 0.72762 0.04454 0.40446 0.0
C27 C 0.71434 0.04941 0.44382 0.0
O28 O 0.72804 0.04509 0.40371 0.0
C29 C 0.73986 0.98082 0.27604 0.0
C30 C 0.80897 0.96566 0.21313 0.0
O31 O 0.79917 0.95082 0.20467 0.0
O32 O 0.80461 0.97651 0.26146 0.0
O33 O 0.53288 0.76023 0.24545 0.0
Cd34 Cd 0.53597 0.7897 0.30545 0.0
O35 O 0.50576 0.75813 0.2962 0.0
Cd36 Cd 0.47966 0.74392 0.32196 0.0
O37 O 0.46743 0.71927 0.36763 0.0
C38 C 0.46241 0.70547 0.33216 0.0
O39 O 0.46224 0.70733 0.26731 0.0
C40 C 0.51796 0.7511 0.25726 0.0
C41 C 0.52986 0.81991 0.22165 0.0
O42 O 0.54653 0.81408 0.23351 0.0
O43 O 0.5161 0.81153 0.24994 0.0
O44 O 0.26791 0.53153 0.08528 0.0
Cd45 Cd 0.29925 0.53196 0.03673 0.0
O46 O 0.26783 0.50086 0.07946 0.0
Cd47 Cd 0.25221 0.47458 0.07756 0.0
O48 O 0.22544 0.46506 0.0387 0.0
C49 C 0.21758 0.47781 0.00477 0.0
O50 O 0.22634 0.49384 -0.00296 0.0
C51 C 0.2596 0.51605 0.09512 0.0
C52 C 0.32526 0.5203 0.13031 0.0
O53 O 0.32015 0.53747 0.12646 0.0
O54 O 0.31824 0.5086 0.08904 0.0
O55 O 0.96444 0.26302 0.06645 0.0
Cd56 Cd 0.97072 0.29207 0.0074 0.0
O57 O 0.99488 0.25972 0.05917 0.0
Cd58 Cd 0.02162 0.24523 0.07117 0.0
O59 O 0.03753 0.22134 0.03496 0.0
C60 C 0.03553 0.21849 0.9732 0.0
O61 O 0.02587 0.23069 0.9384 0.0
C62 C 0.97902 0.25333 0.07769 0.0
C63 C 0.98153 0.3192 0.09803 0.0
O64 O 0.96465 0.31851 0.07646 0.0
O65 O 0.9934 0.30725 0.07587 0.0
O66 O 0.23815 0.97924 0.09544 0.0
Cd67 Cd 0.20628 0.97686 0.05108 0.0
O68 O 0.24592 -0.00079 0.0177 0.0
Cd69 Cd 0.26253 0.02065 0.96662 0.0
O70 O 0.26358 0.04831 0.9098 0.0
C71 C 0.27507 0.05323 0.86399 0.0
O72 O 0.2631 0.04879 0.91035 0.0
C73 C 0.25043 0.98974 0.06862 0.0
C74 C 0.17842 0.98281 0.14688 0.0
O75 O 0.18556 0.96653 0.13776 0.0
O76 O 0.18454 0.99633 0.11104 0.0
O77 O 0.51547 0.23135 0.0602 0.0
Cd78 Cd 0.5084 0.20162 0.00703 0.0
O79 O 0.4857 0.23155 0.08809 0.0
Cd80 Cd 0.46102 0.24771 0.1174 0.0
O81 O 0.45556 0.27636 0.08655 0.0
C82 C 0.46396 0.27988 0.03228 0.0
O83 O 0.47305 0.26625 0.0024 0.0
C84 C 0.50174 0.23942 0.08853 0.0
C85 C 0.50444 0.17398 0.10286 0.0
O86 O 0.52002 0.17624 0.07192 0.0
O87 O 0.49065 0.18466 0.08784 0.0
Tb88 Tb 0.01027 0.99132 0.75897 0.0
Eu89 Eu 0.98434 0.01208 0.64381 0.0
C90 C 0.02714 0.00262 0.61872 0.0
C91 C 0.0109 0.03497 0.74383 0.0
C92 C 0.02636 0.95645 0.88385 0.0
C93 C 0.03856 0.92661 0.92236 0.0
C94 C 0.04116 0.94364 0.88948 0.0
C95 C 0.0089 0.95209 0.91243 0.0
C96 C 0.00633 0.93511 0.94595 0.0
C97 C 0.02109 0.92204 0.95084 0.0
C98 C 0.02919 0.97359 0.8443 0.0
O99 O 0.98434 0.00036 0.80742 0.0
O100 O 0.96454 -0.0005 0.71827 0.0
O101 O 0.98632 0.98156 0.61774 0.0
O102 O 0.99142 0.96995 0.72226 0.0
C103 C 0.96737 -0.00084 0.78248 0.0
O104 O 0.96166 0.03131 0.61824 0.0
O105 O 0.97633 0.01613 0.54061 0.0
O106 O 0.01424 0.0155 0.61078 0.0
O107 O 0.02572 0.98983 0.6654 0.0
O108 O 0.02075 0.01981 0.75592 0.0
O109 O 0.99469 0.03443 0.71308 0.0
C110 C 0.98684 0.96756 0.65988 0.0
O111 O 0.03058 0.97097 0.78063 0.0
O112 O 0.01873 0.98806 0.85825 0.0
C113 C 0.96554 0.04653 0.51551 0.0
C114 C 0.96774 0.07993 0.44146 0.0
C115 C 0.95035 0.07113 0.4524 0.0
C116 C 0.94928 0.05455 0.48904 0.0
C117 C 0.98294 0.05527 0.50512 0.0
C118 C 0.98404 0.0718 0.46812 0.0
C119 C 0.96413 0.02921 0.5545 0.0
H120 H 0.05016 0.91683 0.92382 0.0
H121 H 0.05467 0.94665 0.86709 0.0
H122 H 0.99719 0.96168 0.90821 0.0
H123 H 0.99276 0.93223 0.96795 0.0
H124 H 0.93758 0.07696 0.43197 0.0
H125 H 0.93574 0.04798 0.49671 0.0
H126 H 0.99564 0.04935 0.52575 0.0
H127 H 0.9976 0.07838 0.46121 0.0
Tb128 Tb 0.50569 0.01089 0.7272 0.0
Eu129 Eu 0.4923 0.9832 0.60499 0.0
C130 C 0.49747 0.02731 0.58817 0.0
C131 C 0.46313 0.00321 0.70031 0.0
C132 C 0.53475 0.02813 0.86212 0.0
C133 C 0.55437 0.03696 0.95529 0.0
C134 C 0.5383 0.03974 0.91668 0.0
C135 C 0.54748 0.01385 0.84607 0.0
C136 C 0.56347 0.01105 0.88443 0.0
C137 C 0.56704 0.02245 0.93989 0.0
C138 C 0.51761 0.03032 0.82271 0.0
O139 O 0.51471 0.98289 0.7535 0.0
O140 O 0.49191 0.96645 0.69958 0.0
O141 O 0.52349 0.97852 0.61125 0.0
O142 O 0.53055 0.0059 0.66667 0.0
C143 C 0.50445 0.96781 0.74676 0.0
O144 O 0.47597 0.95927 0.57076 0.0
O145 O 0.49094 0.97624 0.49945 0.0
O146 O 0.50114 0.01083 0.56276 0.0
O147 O 0.49409 0.02941 0.65182 0.0
O148 O 0.47632 0.00409 0.74548 0.0
O149 O 0.46722 -0.00011 0.638 0.0
C150 C 0.53562 0.99113 0.63175 0.0
O151 O 0.52023 0.03468 0.76056 0.0
O152 O 0.50547 0.0168 0.82923 0.0
C153 C 0.46102 0.96549 0.46939 0.0
C154 C 0.42802 0.97064 0.39471 0.0
C155 C 0.44283 0.95961 0.36978 0.0
C156 C 0.45921 0.95704 0.40697 0.0
C157 C 0.44634 0.9766 0.49406 0.0
C158 C 0.43001 0.97913 0.45722 0.0
C159 C 0.47832 0.96327 0.50817 0.0
H160 H 0.55667 0.04588 -0.00206 0.0
H161 H 0.52856 0.05079 0.92983 0.0
H162 H 0.54495 0.00475 0.80406 0.0
H163 H 0.57309 -2e-05 0.87046 0.0
H164 H 0.44166 0.9528 0.32198 0.0
H165 H 0.47045 0.9485 0.38701 0.0
H166 H 0.44752 0.9834 0.54185 0.0
H167 H 0.41903 0.98796 0.47739 0.0
Tb168 Tb 0.48594 0.50499 0.74487 0.0
Eu169 Eu 0.51037 0.48449 0.62472 0.0
C170 C 0.46622 0.48876 0.61603 0.0
C171 C 0.48921 0.46146 0.7408 0.0
C172 C 0.47381 0.53987 0.8733 0.0
C173 C 0.46495 0.56388 0.95271 0.0
C174 C 0.46092 0.54725 0.91891 0.0
C175 C 0.49088 0.54916 0.86225 0.0
C176 C 0.49491 0.56579 0.8959 0.0
C177 C 0.48194 0.57343 0.94124 0.0
C178 C 0.46911 0.52293 0.83543 0.0
O179 O 0.5134 0.49783 0.78409 0.0
O180 O 0.53085 0.49996 0.689 0.0
O181 O 0.50288 0.51355 0.59159 0.0
O182 O 0.50175 0.52675 0.69456 0.0
C183 C 0.52956 0.50019 0.75387 0.0
O184 O 0.53288 0.46558 0.59385 0.0
O185 O 0.51684 0.48059 0.51993 0.0
O186 O 0.48029 0.47731 0.60511 0.0
O187 O 0.46718 0.50226 0.66034 0.0
O188 O 0.47802 0.47574 0.75214 0.0
O189 O 0.50425 0.46291 0.70318 0.0
C190 C 0.50248 0.52838 0.62983 0.0
O191 O 0.46636 0.52554 0.7723 0.0
O192 O 0.47962 0.50832 0.8462 0.0
C193 C 0.52703 0.4502 0.49267 0.0
C194 C 0.52295 0.4168 0.41932 0.0
C195 C 0.54052 0.42571 0.42388 0.0
C196 C 0.54252 0.44227 0.46023 0.0
C197 C 0.50949 0.44137 0.48862 0.0
C198 C 0.50745 0.42486 0.4521 0.0
C199 C 0.52928 0.46758 0.53084 0.0
H200 H 0.45456 0.56949 0.98664 0.0
H201 H 0.44763 0.5403 0.9277 0.0
H202 H 0.501 0.54363 0.82713 0.0
H203 H 0.50822 0.57263 0.88654 0.0
H204 H 0.5528 0.41976 0.40016 0.0
H205 H 0.55618 0.44887 0.4632 0.0
H206 H 0.49736 0.44728 0.51351 0.0
H207 H 0.49367 0.41854 0.44897 0.0
Tb208 Tb 0.9915 0.47604 0.72575 0.0
Eu209 Eu 0.01207 0.5046 0.61848 0.0
C210 C 0.0052 0.46077 0.5889 0.0
C211 C 0.0355 0.47879 0.71511 0.0
C212 C 0.95684 0.46088 0.84992 0.0
C213 C 0.93326 0.45135 0.93046 0.0
C214 C 0.94945 0.44743 0.89336 0.0
C215 C 0.9478 0.47823 0.84354 0.0
C216 C 0.93173 0.4822 0.88077 0.0
C217 C 0.9243 0.46885 0.92492 0.0
C218 C 0.97413 0.45706 0.81226 0.0
O219 O 0.98441 0.50451 0.75424 0.0
O220 O 0.01126 0.5185 0.71811 0.0
O221 O 0.98127 0.51144 0.61597 0.0
O222 O 0.9713 0.48232 0.64865 0.0
C223 C 0.99675 0.51805 0.75799 0.0
O224 O 0.03336 0.5258 0.59822 0.0
O225 O 0.01469 0.51692 0.5198 0.0
O226 O 0.00524 0.47791 0.56521 0.0
O227 O 0.0041 0.45726 0.65294 0.0
O228 O 0.02083 0.47826 0.75473 0.0
O229 O 0.03421 0.48472 0.65376 0.0
C230 C 0.96834 0.49838 0.61876 0.0
O231 O 0.9721 0.45476 0.74858 0.0
O232 O 0.98816 0.46814 0.82539 0.0
C233 C 0.04579 0.52479 0.49033 0.0
C234 C 0.07824 0.52165 0.41051 0.0
C235 C 0.07128 0.53935 0.42914 0.0
C236 C 0.0552 0.54088 0.46866 0.0
C237 C 0.05251 0.50709 0.47159 0.0
C238 C 0.06855 0.50553 0.43182 0.0
C239 C 0.02958 0.52661 0.53507 0.0
H240 H 0.92795 0.44082 0.96434 0.0
H241 H 0.95627 0.43397 0.89895 0.0
H242 H 0.95324 0.48876 0.8099 0.0
H243 H 0.92501 0.49569 0.8745 0.0
H244 H 0.07853 0.55204 0.41465 0.0
H245 H 0.05029 0.55464 0.48324 0.0
H246 H 0.04545 0.49449 0.48826 0.0
H247 H 0.07336 0.4917 0.41779 0.0
C248 C 0.15369 0.00293 0.19991 0.0
C249 C 0.16341 0.98582 0.19684 0.0
C250 C 0.13927 0.0056 0.24625 0.0
C251 C 0.12129 0.98823 0.40616 0.0
H252 H 0.07406 0.00986 0.34986 0.0
C253 C 0.05552 0.98639 0.57287 0.0
C254 C 0.04324 0.00179 0.57203 0.0
C255 C 0.07043 0.98524 0.5279 0.0
C256 C 0.08725 0.00407 0.36676 0.0
H257 H 0.16572 0.95815 0.24045 0.0
H258 H 0.14067 0.96287 0.32156 0.0
H259 H 0.0997 0.00653 0.27021 0.0
H260 H 0.03721 0.02823 0.52356 0.0
H261 H 0.0635 0.02643 0.44602 0.0
H262 H 0.10903 0.9859 0.50273 0.0
C263 C 0.14423 0.97423 0.28823 0.0
C264 C 0.10192 0.00212 0.321 0.0
C265 C 0.15852 0.9715 0.24151 0.0
C266 C 0.04635 0.01612 0.52543 0.0
C267 C 0.06137 0.01503 0.48065 0.0
C268 C 0.10669 0.99031 0.45203 0.0
C269 C 0.1344 0.99128 0.29097 0.0
C270 C 0.11904 0.99401 0.34006 0.0
C271 C 0.07358 -0.00046 0.48117 0.0
C272 C 0.0894 -0.00191 0.43283 0.0
H273 H 0.15711 0.01424 0.16617 0.0
H274 H 0.13205 0.01894 0.24755 0.0
H275 H 0.13443 0.9822 0.42259 0.0
H276 H 0.05349 0.97502 0.60771 0.0
H277 H 0.07929 0.97293 0.52908 0.0
C278 C 0.5153 0.14461 0.15778 0.0
C279 C 0.50248 0.15951 0.15463 0.0
C280 C 0.51341 0.13083 0.20642 0.0
C281 C 0.49611 0.12172 0.37207 0.0
H282 H 0.49538 0.06978 0.31638 0.0
C283 C 0.48731 0.05988 0.55763 0.0
C284 C 0.49756 0.04359 0.54319 0.0
C285 C 0.48674 0.07464 0.51185 0.0
C286 C 0.49582 0.08419 0.33301 0.0
H287 H 0.47787 0.17192 0.20051 0.0
H288 H 0.47488 0.14793 0.28682 0.0
H289 H 0.49692 0.09444 0.23329 0.0
H290 H 0.51602 0.0303 0.47152 0.0
H291 H 0.51566 0.05607 0.39359 0.0
H292 H 0.49577 0.1115 0.47195 0.0
C293 C 0.48622 0.1469 0.2511 0.0
C294 C 0.49659 0.09828 0.28529 0.0
C295 C 0.48789 0.16052 0.20161 0.0
C296 C 0.50771 0.04255 0.48353 0.0
C297 C 0.50738 0.05731 0.43853 0.0
C298 C 0.49565 0.10758 0.42008 0.0
C299 C 0.49889 0.13189 0.2535 0.0
C300 C 0.49696 0.11714 0.3044 0.0
C301 C 0.49662 0.0734 0.45135 0.0
C302 C 0.49579 0.08862 0.40106 0.0
H303 H 0.52667 0.14347 0.12222 0.0
H304 H 0.52342 0.11942 0.20766 0.0
H305 H 0.49645 0.13622 0.38783 0.0
H306 H 0.47932 0.06099 0.60329 0.0
H307 H 0.47823 0.08679 0.5232 0.0
C308 C 0.347 0.49637 0.17874 0.0
C309 C 0.33864 0.51419 0.18169 0.0
C310 C 0.35963 0.4907 0.22776 0.0
C311 C 0.373 0.49966 0.40014 0.0
H312 H 0.42225 0.48159 0.34885 0.0
C313 C 0.43551 0.5015 0.57751 0.0
C314 C 0.44948 0.48768 0.57303 0.0
C315 C 0.42067 0.5018 0.53268 0.0
C316 C 0.40844 0.48622 0.36421 0.0
H317 H 0.3368 0.53993 0.23848 0.0
H318 H 0.35865 0.52993 0.32421 0.0
H319 H 0.39872 0.48758 0.2638 0.0
H320 H 0.45837 0.46281 0.51956 0.0
H321 H 0.43216 0.46312 0.44197 0.0
H322 H 0.38259 0.49841 0.50035 0.0
C323 C 0.35543 0.52037 0.28408 0.0
C324 C 0.395 0.48971 0.31541 0.0
C325 C 0.34304 0.52614 0.23474 0.0
C326 C 0.44788 0.47372 0.5242 0.0
C327 C 0.43293 0.47396 0.47945 0.0
C328 C 0.38633 0.49598 0.44894 0.0
C329 C 0.36386 0.50262 0.28103 0.0
C330 C 0.37733 0.4969 0.33287 0.0
C331 C 0.41932 0.4882 0.48249 0.0
C332 C 0.40438 0.48969 0.43147 0.0
H333 H 0.34389 0.48686 0.13839 0.0
H334 H 0.36594 0.47692 0.22443 0.0
H335 H 0.35935 0.50491 0.41492 0.0
H336 H 0.43631 0.51252 0.61431 0.0
H337 H 0.41065 0.51316 0.53592 0.0
C338 C 0.9769 0.34994 0.15444 0.0
C339 C 0.98703 0.33317 0.14807 0.0
C340 C 0.98184 0.36303 0.20267 0.0
C341 C 0.99856 0.36865 0.36524 0.0
H342 H 0.01448 0.41848 0.31366 0.0
C343 C 0.01166 0.4272 0.55917 0.0
C344 C 0.00572 0.44521 0.54085 0.0
C345 C 0.01209 0.41274 0.51221 0.0
C346 C 0.00987 0.4047 0.32905 0.0
H347 H 0.01012 0.31681 0.18726 0.0
H348 H 0.01833 0.33962 0.27358 0.0
H349 H 0.00964 0.39464 0.22885 0.0
H350 H 0.99511 0.46212 0.45976 0.0
H351 H 0.99511 0.43702 0.37943 0.0
H352 H 0.99754 0.37887 0.46491 0.0
C353 C 0.00681 0.34262 0.2403 0.0
C354 C 0.00728 0.39107 0.28045 0.0
C355 C 0.00216 0.32969 0.19095 0.0
C356 C 5e-05 0.44846 0.47524 0.0
C357 C 0.0002 0.43404 0.42886 0.0
C358 C 0.00077 0.38241 0.41392 0.0
C359 C 0.9967 0.35938 0.2462 0.0
C360 C 0.00133 0.37307 0.29816 0.0
C361 C 0.00634 0.41601 0.44641 0.0
C362 C 0.00606 0.40074 0.39622 0.0
H363 H 0.96522 0.35297 0.12192 0.0
H364 H 0.97386 0.3759 0.20678 0.0
H365 H 0.99387 0.35479 0.37962 0.0
H366 H 0.01617 0.42435 0.60942 0.0
H367 H 0.01706 0.39908 0.52737 0.0
C368 C 0.83899 0.98264 0.18866 0.0
C369 C 0.82502 0.96997 0.16891 0.0
C370 C 0.8545 0.98616 0.14776 0.0
C371 C 0.88024 0.96645 0.00184 0.0
H372 H 0.90346 0.01555 -0.00165 0.0
C373 C 0.93424 0.98917 0.80334 0.0
C374 C 0.95112 0.99668 0.82751 0.0
C375 C 0.91904 0.98616 0.84595 0.0
C376 C 0.89716 0.00175 -0.00077 0.0
H377 H 0.81603 0.95145 0.09003 0.0
H378 H 0.84252 0.95815 0.01749 0.0
H379 H 0.87622 0.01007 0.06947 0.0
H380 H 0.96517 0.00725 0.91511 0.0
H381 H 0.9383 0.00242 0.98938 0.0
H382 H 0.90088 0.95843 0.92963 0.0
C383 C 0.84199 0.96491 0.06552 0.0
C384 C 0.8816 -0.00146 0.0402 0.0
C385 C 0.82667 0.96116 0.10691 0.0
C386 C 0.95236 0.00141 0.89506 0.0
C387 C 0.937 -0.00127 0.93748 0.0
C388 C 0.89557 0.96977 0.96008 0.0
C389 C 0.85625 0.97731 0.08559 0.0
C390 C 0.8729 0.98083 0.0421 0.0
C391 C 0.92027 0.99091 0.91338 0.0
C392 C 0.90417 0.98744 0.95839 0.0
H393 H 0.83816 0.98956 0.23641 0.0
H394 H 0.86528 0.99555 0.16564 0.0
H395 H 0.87431 0.9525 0.00291 0.0
H396 H 0.93286 0.98529 0.75163 0.0
H397 H 0.90625 0.98021 0.82611 0.0
C398 C 0.5415 0.8474 0.15669 0.0
C399 C 0.5266 0.83567 0.17572 0.0
C400 C 0.53851 0.86204 0.11205 0.0
C401 C 0.50872 0.87624 0.97537 0.0
H402 H 0.52669 0.92636 0.01285 0.0
C403 C 0.49299 0.93852 0.80162 0.0
C404 C 0.50694 0.95225 0.79408 0.0
C405 C 0.49497 0.92436 0.84891 0.0
C406 C 0.52183 0.91239 0.00105 0.0
H407 H 0.49691 0.83005 0.16314 0.0
H408 H 0.49181 0.85548 0.08397 0.0
H409 H 0.53101 0.90162 0.0947 0.0
H410 H 0.53411 0.96168 0.82885 0.0
H411 H 0.53792 0.93663 0.90934 0.0
H412 H 0.50008 0.8867 0.88099 0.0
C413 C 0.50574 0.85335 0.10399 0.0
C414 C 0.52422 0.89828 0.04817 0.0
C415 C 0.50865 0.83889 0.14945 0.0
C416 C 0.52305 0.95136 0.83384 0.0
C417 C 0.52515 0.93707 0.88042 0.0
C418 C 0.50657 0.89029 0.92779 0.0
C419 C 0.52065 0.86503 0.08487 0.0
C420 C 0.51771 0.88008 0.03568 0.0
C421 C 0.51106 0.92349 0.88907 0.0
C422 C 0.51314 0.90854 0.93995 0.0
H423 H 0.55547 0.84528 0.17626 0.0
H424 H 0.55026 0.8708 0.0977 0.0
H425 H 0.50376 0.86224 0.96435 0.0
H426 H 0.48033 0.93895 0.77207 0.0
H427 H 0.48369 0.91434 0.8548 0.0
C428 C 0.65597 0.52102 0.15522 0.0
C429 C 0.66956 0.53438 0.13784 0.0
C430 C 0.64142 0.5167 0.11152 0.0
C431 C 0.6169 0.53517 0.96275 0.0
H432 H 0.59698 0.4847 0.95419 0.0
C433 C 0.56264 0.51133 0.76729 0.0
C434 C 0.54654 0.50289 0.79436 0.0
C435 C 0.57837 0.51455 0.80692 0.0
C436 C 0.60243 0.49885 0.95624 0.0
H437 H 0.67892 0.55336 0.06059 0.0
H438 H 0.65404 0.54536 0.98345 0.0
H439 H 0.6233 0.49148 0.02749 0.0
H440 H 0.53444 0.49072 0.8834 0.0
H441 H 0.56207 0.49602 0.95205 0.0
H442 H 0.59618 0.54235 0.89031 0.0
C443 C 0.65416 0.53862 0.03155 0.0
C444 C 0.61741 0.50279 -0.00151 0.0
C445 C 0.66851 0.54314 0.07564 0.0
C446 C 0.54662 0.49734 0.86124 0.0
C447 C 0.56244 0.50025 0.90044 0.0
C448 C 0.60213 0.53115 0.91978 0.0
C449 C 0.64033 0.52544 0.04907 0.0
C450 C 0.62474 0.52105 0.00273 0.0
C451 C 0.57837 0.50905 0.87382 0.0
C452 C 0.59467 0.513 0.9166 0.0
H453 H 0.65638 0.51411 0.20303 0.0
H454 H 0.63087 0.50672 0.12728 0.0
H455 H 0.62188 0.54947 0.96554 0.0
H456 H 0.56295 0.51579 0.71594 0.0
H457 H 0.59055 0.5213 0.78532 0.0
C458 C 0.99756 0.64599 0.16015 0.0
C459 C 0.97984 0.65181 0.18281 0.0
C460 C -0.00082 0.63079 0.11707 0.0
C461 C 0.97592 0.58846 0.05802 0.0
H462 H 0.0044 0.59718 0.89669 0.0
C463 C 0.9773 0.53523 0.84191 0.0
C464 C 0.99436 0.53303 0.80768 0.0
C465 C 0.97519 0.54947 0.8889 0.0
C466 C 0.99664 0.59437 0.94187 0.0
H467 H 0.94999 0.64586 0.1804 0.0
H468 H 0.95291 0.61905 0.10565 0.0
H469 H 0.00182 0.62193 0.97916 0.0
H470 H 0.0227 0.5437 0.79682 0.0
H471 H 0.01924 0.56807 0.87984 0.0
H472 H 0.97105 0.56076 0.02156 0.0
C473 C 0.96549 0.62636 0.12105 0.0
C474 C 0.99513 0.60858 0.98895 0.0
C475 C 0.96383 0.64173 0.16349 0.0
C476 C 0.0093 0.54517 0.8218 0.0
C477 C 0.00728 0.55923 0.86922 0.0
C478 C 0.97763 0.57411 0.01124 0.0
C479 C 0.98314 0.62099 0.09658 0.0
C480 C 0.98479 0.60575 0.04742 0.0
C481 C 0.99017 0.56165 0.90306 0.0
C482 C 0.98804 0.5769 0.95263 0.0
H483 H 0.01015 0.65348 0.17423 0.0
H484 H 0.01297 0.62678 0.09929 0.0
H485 H 0.96795 0.58594 0.10299 0.0
H486 H 0.96551 0.5261 0.83195 0.0
H487 H 0.96174 0.55109 0.91339 0.0
C488 C 0.98919 0.2201 0.09472 0.0
C489 C 0.97744 0.23512 0.11196 0.0
C490 C 0.988 0.20309 0.1287 0.0
C491 C 0.95634 0.17458 0.23236 0.0
H492 H 0.00224 0.15059 0.29047 0.0
C493 C 0.95574 0.11197 0.41315 0.0
C494 C 0.96884 0.09756 0.4026 0.0
C495 C 0.95674 0.12857 0.37662 0.0
C496 C 0.98929 0.15695 0.27385 0.0
H497 H 0.95463 0.24391 0.17607 0.0
H498 H 0.95244 0.21412 0.23542 0.0
H499 H 0.00389 0.1797 0.22761 0.0
H500 H 0.9931 0.08916 0.34475 0.0
H501 H 0.99473 0.11802 0.28029 0.0
H502 H 0.94172 0.1518 0.27799 0.0
C503 C 0.96268 0.21553 0.19592 0.0
C504 C 0.99025 0.17366 0.23791 0.0
C505 C 0.96396 0.23258 0.16211 0.0
C506 C 0.98296 0.10011 0.35461 0.0
C507 C 0.9839 0.11667 0.31776 0.0
C508 C 0.95538 0.15782 0.26796 0.0
C509 C 0.97481 0.20065 0.18001 0.0
C510 C 0.97378 0.1827 0.21703 0.0
C511 C 0.97081 0.13113 0.32834 0.0
C512 C 0.97184 0.14882 0.28944 0.0
H513 H -0.001 0.22134 0.05398 0.0
H514 H 0.99722 0.19174 0.11417 0.0
H515 H 0.94342 0.18108 0.21612 0.0
H516 H 0.94486 0.11053 0.45046 0.0
H517 H 0.94663 0.13952 0.387 0.0
C518 C 0.28528 0.99447 0.0585 0.0
C519 C 0.26937 0.99098 0.09799 0.0
C520 C 0.30324 0.99428 0.08657 0.0
C521 C 0.32792 0.99759 0.24716 0.0
H522 H 0.36679 0.96827 0.16102 0.0
C523 C 0.39299 0.97286 0.38851 0.0
C524 C 0.41048 0.97337 0.35622 0.0
C525 C 0.37648 0.97624 0.35349 0.0
C526 C 0.35619 0.97675 0.18525 0.0
H527 H 0.25973 0.98471 0.19764 0.0
H528 H 0.29091 0.98442 0.24648 0.0
H529 H 0.3367 0.97291 0.10563 0.0
H530 H 0.42433 0.97763 0.26149 0.0
H531 H 0.3954 0.98356 0.20006 0.0
H532 H 0.34722 0.0013 0.327 0.0
C533 C 0.28958 0.98749 0.19409 0.0
C534 C 0.33896 0.97942 0.15348 0.0
C535 C 0.27172 0.98753 0.16602 0.0
C536 C 0.41105 0.97698 0.28766 0.0
C537 C 0.39448 0.98039 0.25251 0.0
C538 C 0.34512 0.99498 0.27875 0.0
C539 C 0.30556 0.99071 0.15467 0.0
C540 C 0.32452 0.98955 0.18475 0.0
C541 C 0.37702 0.98024 0.28522 0.0
C542 C 0.35933 0.9842 0.24885 0.0
H543 H 0.28397 0.99668 0.00563 0.0
H544 H 0.31529 0.99683 0.05497 0.0
H545 H 0.31718 0.00575 0.27198 0.0
H546 H 0.39203 0.96975 0.44101 0.0
H547 H 0.36325 0.97555 0.37994 0.0
C548 C 0.49432 0.26297 0.1762 0.0
C549 C 0.5041 0.25817 0.11816 0.0
C550 C 0.49617 0.2808 0.20382 0.0
C551 C 0.52777 0.32159 0.20959 0.0
H552 H 0.48405 0.34628 0.28403 0.0
C553 C 0.5303 0.3965 0.32036 0.0
C554 C 0.52078 0.39912 0.38093 0.0
C555 C 0.5282 0.37988 0.28442 0.0
C556 C 0.49641 0.33951 0.26387 0.0
H557 H 0.52385 0.26802 0.04413 0.0
H558 H 0.52711 0.29933 0.09231 0.0
H559 H 0.48045 0.31637 0.2272 0.0
H560 H 0.50186 0.38605 0.45167 0.0
H561 H 0.49807 0.3572 0.38875 0.0
H562 H 0.54373 0.34474 0.24663 0.0
C563 C 0.518 0.28929 0.11656 0.0
C564 C 0.49436 0.32237 0.23134 0.0
C565 C 0.51614 0.2714 0.08894 0.0
C566 C 0.50912 0.38469 0.40464 0.0
C567 C 0.50696 0.36813 0.36859 0.0
C568 C 0.52982 0.33879 0.24199 0.0
C569 C 0.50798 0.2942 0.17425 0.0
C570 C 0.51005 0.31306 0.20467 0.0
C571 C 0.51645 0.36553 0.30806 0.0
C572 C 0.51419 0.34781 0.2703 0.0
H573 H 0.48541 0.25284 0.20092 0.0
H574 H 0.48861 0.28395 0.24915 0.0
H575 H 0.54017 0.3147 0.19022 0.0
H576 H 0.53917 0.40742 0.30012 0.0
H577 H 0.53554 0.37838 0.2376 0.0
C578 C 0.23423 0.5017 0.16464 0.0
C579 C 0.24022 0.51592 0.12141 0.0
C580 C 0.21599 0.50179 0.19035 0.0
C581 C 0.17622 0.53373 0.22365 0.0
H582 H 0.14869 0.48749 0.25031 0.0
C583 C 0.0998 0.53288 0.31967 0.0
C584 C 0.09582 0.52004 0.37077 0.0
C585 C 0.11674 0.53192 0.28462 0.0
C586 C 0.15626 0.5005 0.24348 0.0
H587 H 0.23193 0.54142 0.0713 0.0
H588 H 0.19998 0.54149 0.11536 0.0
H589 H 0.17946 0.48669 0.19675 0.0
H590 H 0.10661 0.49605 0.42463 0.0
H591 H 0.136 0.49426 0.36288 0.0
H592 H 0.15302 0.54752 0.27039 0.0
C593 C 0.20939 0.53035 0.13005 0.0
C594 C 0.1739 0.50005 0.21292 0.0
C595 C 0.22767 0.53029 0.10464 0.0
C596 C 0.10904 0.50599 0.38494 0.0
C597 C 0.12593 0.50497 0.34961 0.0
C598 C 0.15854 0.53418 0.25382 0.0
C599 C 0.20335 0.51615 0.17357 0.0
C600 C 0.18418 0.51665 0.20317 0.0
C601 C 0.13005 0.51804 0.29953 0.0
C602 C 0.14843 0.51756 0.26459 0.0
H603 H 0.24379 0.49077 0.18007 0.0
H604 H 0.21197 0.49086 0.22481 0.0
H605 H 0.18384 0.54675 0.21802 0.0
H606 H 0.08981 0.54368 0.30659 0.0
H607 H 0.11939 0.54203 0.24565 0.0
C608 C 0.01581 0.76475 0.20126 0.0
C609 C 0.9978 0.75681 0.2041 0.0
C610 C 0.0185 0.78264 0.17456 0.0
C611 C 0.99224 0.82603 0.13182 0.0
H612 H 0.03736 0.83803 0.03262 0.0
C613 C 0.00107 0.89389 0.97737 0.0
C614 C 0.0182 0.90353 0.9837 0.0
C615 C -0.00138 0.87623 0.00615 0.0
C616 C 0.02476 0.83492 0.06072 0.0
H617 H 0.96866 0.76091 0.17742 0.0
H618 H 0.97341 0.79176 0.12867 0.0
H619 H 0.03309 0.8065 0.07666 0.0
H620 H 0.046 0.90217 0.02728 0.0
H621 H 0.04181 0.87117 0.07584 0.0
H622 H 0.98378 0.8544 0.11427 0.0
C623 C 0.98539 0.78454 0.1494 0.0
C624 C 0.02231 0.81686 0.08617 0.0
C625 C 0.98269 0.76673 0.1766 0.0
C626 C 0.03274 0.89506 0.02013 0.0
C627 C 0.03035 0.87731 0.04821 0.0
C628 C 0.9946 0.84402 0.1057 0.0
C629 C 0.00328 0.79287 0.14891 0.0
C630 C 0.006 0.81215 0.12199 0.0
C631 C 0.01329 0.86768 0.04133 0.0
C632 C 0.01088 0.84865 0.06986 0.0
H633 H 0.02785 0.75719 0.21979 0.0
H634 H 0.03249 0.78856 0.17522 0.0
H635 H 0.97968 0.82309 0.16035 0.0
H636 H 0.98966 0.89975 0.94877 0.0
H637 H 0.98538 0.86904 -0.00057 0.0
C638 C 0.716 0.00454 0.23985 0.0
C639 C 0.72142 0.98577 0.24775 0.0
C640 C 0.69878 0.00901 0.21077 0.0
C641 C 0.66339 0.98918 0.09786 0.0
H642 H 0.63164 0.02924 0.1635 0.0
C643 C 0.5892 0.00046 -0.00344 0.0
C644 C 0.58385 0.01891 0.9815 0.0
C645 C 0.60553 0.99691 0.03235 0.0
C646 C 0.64045 0.01813 0.14429 0.0
H647 H 0.71316 0.95695 0.23145 0.0
H648 H 0.68308 0.96468 0.1811 0.0
H649 H 0.66104 0.02202 0.22039 0.0
H650 H 0.59126 0.04815 0.9937 0.0
H651 H 0.61989 0.04192 0.05657 0.0
H652 H 0.64294 0.98524 0.0219 0.0
C653 C 0.69214 0.97599 0.1969 0.0
C654 C 0.65728 0.014 0.17683 0.0
C655 C 0.70933 0.97155 0.22593 0.0
C656 C 0.59494 0.03378 0.00489 0.0
C657 C 0.61133 0.03022 0.04087 0.0
C658 C 0.64662 0.99327 0.06554 0.0
C659 C 0.68673 0.99477 0.18841 0.0
C660 C 0.66889 -0.00061 0.15412 0.0
C661 C 0.61694 0.01172 0.0541 0.0
C662 C 0.63489 0.00771 0.08853 0.0
H663 H 0.72533 0.01581 0.25381 0.0
H664 H 0.69518 0.02361 0.2039 0.0
H665 H 0.6722 0.97812 0.07815 0.0
H666 H 0.58074 0.9887 0.9806 0.0
H667 H 0.60925 0.98251 0.04295 0.0
C668 C 0.51976 0.7296 0.15976 0.0
C669 C 0.515 0.73259 0.22651 0.0
C670 C 0.51653 0.71221 0.13003 0.0
C671 C 0.50783 0.66206 0.16815 0.0
H672 H 0.48788 0.66128 0.98947 0.0
C673 C 0.48132 0.59406 0.04258 0.0
C674 C 0.48595 0.59149 0.9753 0.0
C675 C 0.48495 0.61112 0.07419 0.0
C676 C 0.49364 0.66123 0.03911 0.0
H677 H 0.50449 0.71945 0.31595 0.0
H678 H 0.49872 0.68908 0.26424 0.0
H679 H 0.4944 0.69114 0.04285 0.0
H680 H 0.49786 0.60498 0.88842 0.0
H681 H 0.50449 0.63455 0.94376 0.0
H682 H 0.50697 0.6321 0.16436 0.0
C683 C 0.50464 0.70021 0.23433 0.0
C684 C 0.49741 0.67837 0.06973 0.0
C685 C 0.50767 0.71768 0.26378 0.0
C686 C 0.49431 0.60639 0.94046 0.0
C687 C 0.4979 0.62344 0.97201 0.0
C688 C 0.50403 0.64489 0.13752 0.0
C689 C 0.50872 0.69734 0.16677 0.0
C690 C 0.50465 0.67902 0.13451 0.0
C691 C 0.49324 0.62604 0.03922 0.0
C692 C 0.49698 0.64427 0.07247 0.0
H693 H 0.52567 0.74083 0.13024 0.0
H694 H 0.52025 0.71038 0.07831 0.0
H695 H 0.51358 0.662 0.2178 0.0
H696 H 0.47502 0.58282 0.07103 0.0
H697 H 0.48103 0.6127 0.12585 0.0
C698 C 0.78265 0.52654 0.20818 0.0
C699 C 0.76751 0.51398 0.20597 0.0
C700 C 0.80034 0.52121 0.18476 0.0
C701 C 0.82941 0.48013 0.13904 0.0
H702 H 0.85551 0.51595 0.02752 0.0
C703 C 0.89276 0.4601 0.97216 0.0
C704 C 0.90726 0.47328 0.9648 0.0
C705 C 0.87635 0.46469 0.00694 0.0
C706 C 0.84859 0.50586 0.05936 0.0
H707 H 0.75885 0.48619 0.17581 0.0
H708 H 0.78977 0.47681 0.13499 0.0
H709 H 0.8259 0.52465 0.07927 0.0
H710 H 0.91627 0.50132 0.99086 0.0
H711 H 0.8878 0.50928 0.05181 0.0
H712 H 0.8521 0.46128 0.11854 0.0
C713 C 0.78809 0.49063 0.15632 0.0
C714 C 0.83158 0.51086 0.08904 0.0
C715 C 0.77039 0.49598 0.17976 0.0
C716 C 0.90521 0.49097 0.99451 0.0
C717 C 0.88887 0.49554 0.02943 0.0
C718 C 0.84649 0.47512 0.10939 0.0
C719 C 0.80324 0.50325 0.15799 0.0
C720 C 0.82172 0.49803 0.12894 0.0
C721 C 0.87412 0.48256 0.03536 0.0
C722 C 0.85624 0.48791 0.06889 0.0
H723 H 0.78083 0.54047 0.22843 0.0
H724 H 0.81176 0.53117 0.18753 0.0
H725 H 0.82227 0.47001 0.17019 0.0
H726 H 0.89384 0.44641 0.94935 0.0
H727 H 0.8652 0.45442 0.00983 0.0
C728 C 0.05057 0.18682 0.98055 0.0
C729 C 0.04097 0.20039 0.94333 0.0
C730 C 0.05306 0.16873 0.95547 0.0
C731 C 0.04158 0.12956 0.91632 0.0
H732 H 0.04409 0.11825 0.72833 0.0
C733 C 0.03258 0.0546 0.8123 0.0
C734 C 0.0185 0.05334 0.76383 0.0
C735 C 0.0394 0.07207 0.83211 0.0
C736 C 0.04348 0.12123 0.78099 0.0
H737 H 0.02747 0.20597 0.84904 0.0
H738 H 0.03125 0.17451 0.8064 0.0
H739 H 0.05035 0.15008 0.76649 0.0
H740 H 0.00099 0.06929 0.69649 0.0
H741 H 0.01303 0.09974 0.73073 0.0
H742 H 0.03451 0.1007 0.93045 0.0
C743 C 0.03721 0.17776 0.85436 0.0
C744 C 0.04699 0.13944 0.8029 0.0
C745 C 0.0349 0.19584 0.87911 0.0
C746 C 0.01172 0.06982 0.73437 0.0
C747 C 0.01874 0.08723 0.75344 0.0
C748 C 0.03833 0.11131 0.89445 0.0
C749 C 0.04584 0.16382 0.89295 0.0
C750 C 0.04547 0.14397 0.87065 0.0
C751 C 0.0325 0.08853 0.80291 0.0
C752 C 0.03869 0.10712 0.82646 0.0
H753 H 0.05558 0.18997 0.02998 0.0
H754 H 0.06013 0.15845 0.98596 0.0
H755 H 0.04 0.13253 0.96872 0.0
H756 H 0.03808 0.04213 0.83583 0.0
H757 H 0.05003 0.07274 0.87032 0.0
C758 C 0.3006 0.04439 0.78782 0.0
C759 C 0.29238 0.04258 0.85069 0.0
C760 C 0.31809 0.03645 0.77438 0.0
C761 C 0.36195 0.0258 0.85417 0.0
H762 H 0.37338 -0.00093 0.69154 0.0
C763 C 0.43792 0.00433 0.78726 0.0
C764 C 0.44326 0.0056 0.72024 0.0
C765 C 0.41912 0.00631 0.80599 0.0
C766 C 0.3705 0.0067 0.73686 0.0
H767 H 0.29601 0.03116 0.9496 0.0
H768 H 0.3269 0.01745 0.92631 0.0
H769 H 0.34085 0.00639 0.71924 0.0
H770 H 0.43304 0.01009 0.6203 0.0
H771 H 0.40044 0.01426 0.65296 0.0
H772 H 0.39153 0.02708 0.87045 0.0
C773 C 0.31957 0.02474 0.88704 0.0
C774 C 0.35184 0.01073 0.75292 0.0
C775 C 0.30184 0.03242 0.90015 0.0
C776 C 0.42938 0.00893 0.67235 0.0
C777 C 0.41062 0.01116 0.69113 0.0
C778 C 0.38065 0.02202 0.83769 0.0
C779 C 0.32792 0.02688 0.82417 0.0
C780 C 0.34741 0.02055 0.81124 0.0
C781 C 0.4052 0.00985 0.75823 0.0
C782 C 0.38521 0.01268 0.77823 0.0
H783 H 0.29365 0.05235 0.74927 0.0
H784 H 0.3243 0.03853 0.72579 0.0
H785 H 0.35894 0.03361 0.89903 0.0
H786 H 0.44825 0.00158 0.82533 0.0
H787 H 0.4155 0.0049 0.85796 0.0
C788 C 0.45482 0.31387 0.03443 0.0
C789 C 0.46483 0.29906 0.00505 0.0
C790 C 0.45644 0.33207 0.00923 0.0
C791 C 0.4888 0.36163 0.91433 0.0
H792 H 0.44534 0.39225 0.87453 0.0
C793 C 0.4952 0.4272 0.75326 0.0
C794 C 0.48502 0.4432 0.77198 0.0
C795 C 0.49192 0.41007 0.78434 0.0
C796 C 0.45761 0.38397 0.88625 0.0
H797 H 0.48426 0.29167 0.92606 0.0
H798 H 0.48709 0.32326 0.88264 0.0
H799 H 0.44106 0.36151 0.92615 0.0
H800 H 0.46316 0.4537 0.8373 0.0
H801 H 0.45762 0.42375 0.89236 0.0
H802 H 0.5054 0.3839 0.8749 0.0
C803 C 0.47808 0.32087 0.92521 0.0
C804 C 0.45515 0.3664 0.91572 0.0
C805 C 0.47634 0.30275 0.9499 0.0
C806 C 0.47122 0.44161 0.82167 0.0
C807 C 0.46799 0.42445 0.85307 0.0
C808 C 0.49126 0.37917 0.88535 0.0
C809 C 0.46827 0.33573 0.95484 0.0
C810 C 0.47072 0.35495 0.92888 0.0
C811 C 0.47847 0.40854 0.83521 0.0
C812 C 0.4757 0.3904 0.86982 0.0
H813 H 0.44586 0.31145 0.0771 0.0
H814 H 0.44879 0.34333 0.03307 0.0
H815 H 0.50106 0.35322 0.92512 0.0
H816 H 0.50578 0.42786 0.71463 0.0
H817 H 0.49993 0.39799 0.76833 0.0
C818 C 0.18987 0.49014 0.94405 0.0
C819 C 0.19903 0.47495 0.97404 0.0
C820 C 0.17256 0.48772 0.91351 0.0
C821 C 0.14204 0.47716 0.81851 0.0
H822 H 0.10266 0.44795 0.9019 0.0
C823 C 0.0695 0.47145 0.69844 0.0
C824 C 0.05413 0.47376 0.74146 0.0
C825 C 0.08742 0.4682 0.72372 0.0
C826 C 0.11351 0.45619 0.87805 0.0
H827 H 0.1971 0.44531 -0.00364 0.0
H828 H 0.16676 0.44099 0.9419 0.0
H829 H 0.13361 0.44946 0.95313 0.0
H830 H 0.04537 0.47385 0.84466 0.0
H831 H 0.07666 0.46877 0.8888 0.0
H832 H 0.12186 0.48474 0.74543 0.0
C833 C 0.17299 0.45482 0.94263 0.0
C834 C 0.1313 0.45687 0.90701 0.0
C835 C 0.19037 0.45728 0.97358 0.0
C836 C 0.05693 0.47211 0.81016 0.0
C837 C 0.07487 0.46905 0.83548 0.0
C838 C 0.12429 0.47658 0.78984 0.0
C839 C 0.16398 0.47002 0.91179 0.0
C840 C 0.14564 0.4677 0.87823 0.0
C841 C 0.09039 0.46741 0.79261 0.0
C842 C 0.10971 0.46635 0.81982 0.0
H843 H 0.19605 0.504 0.94423 0.0
H844 H 0.1658 0.49982 0.8917 0.0
H845 H 0.15289 0.48536 0.79441 0.0
H846 H 0.06776 0.47241 0.64518 0.0
H847 H 0.099 0.46662 0.68925 0.0
C848 C 0.99087 0.81745 0.3718 0.0
C849 C 0.00437 0.8057 0.40065 0.0
C850 C 0.98652 0.83465 0.40071 0.0
C851 C 0.98635 0.85957 0.55761 0.0
H852 H 0.98937 0.90457 0.45056 0.0
C853 C 0.99061 0.93306 0.67142 0.0
C854 C 0.98366 0.94839 0.63552 0.0
C855 C 0.99004 0.91511 0.6444 0.0
C856 C 0.98799 0.89215 0.48095 0.0
H857 H 0.02393 0.80259 0.48207 0.0
H858 H 0.01607 0.83268 0.5333 0.0
H859 H 0.99483 0.8742 0.3993 0.0
H860 H 0.96942 0.95687 0.54554 0.0
H861 H 0.96774 0.92538 0.49932 0.0
H862 H 0.97932 0.87736 0.6392 0.0
C863 C 0.00892 0.82852 0.48832 0.0
C864 C 0.99128 0.87478 0.45157 0.0
C865 C 0.0135 0.81143 0.4588 0.0
C866 C 0.9751 0.94531 0.5739 0.0
C867 C 0.97426 0.92729 0.5473 0.0
C868 C 0.98277 0.87691 0.58688 0.0
C869 C 0.9954 0.84023 0.45945 0.0
C870 C 0.9908 0.85842 0.48991 0.0
C871 C 0.98225 0.91207 0.58131 0.0
C872 C 0.9839 0.89345 0.54914 0.0
H873 H 0.98369 0.8134 0.32673 0.0
H874 H 0.97604 0.84348 0.37768 0.0
H875 H 0.98566 0.84704 0.58785 0.0
H876 H 0.99737 0.93501 0.71899 0.0
H877 H 0.99656 0.90381 0.67173 0.0
C878 C 0.68955 0.03947 0.52123 0.0
C879 C 0.69909 0.03637 0.46144 0.0
C880 C 0.67395 0.02868 0.53823 0.0
C881 C 0.63506 0.00348 0.46454 0.0
H882 H 0.62599 0.98856 0.64684 0.0
C883 C 0.56158 0.97961 0.55698 0.0
C884 C 0.5557 0.98948 0.61371 0.0
C885 C 0.58045 0.98011 0.53689 0.0
C886 C 0.62832 0.99255 0.59563 0.0
H887 H 0.69952 0.01989 0.37102 0.0
H888 H 0.672 0.00098 0.4006 0.0
H889 H 0.65717 -0.00088 0.61345 0.0
H890 H 0.56512 0.00673 0.69571 0.0
H891 H 0.5977 0.00751 0.6612 0.0
H892 H 0.60593 -0.00217 0.44759 0.0
C893 C 0.6769 0.01153 0.43503 0.0
C894 C 0.64617 -0.00142 0.57653 0.0
C895 C 0.69276 0.0222 0.41844 0.0
C896 C 0.56915 -0.00093 0.65153 0.0
C897 C 0.58791 -0.00063 0.63203 0.0
C898 C 0.61714 0.99748 0.48374 0.0
C899 C 0.66729 0.01474 0.49507 0.0
C900 C 0.64956 0.0048 0.51145 0.0
C901 C 0.59377 0.99021 0.57386 0.0
C902 C 0.61341 0.99267 0.55016 0.0
H903 H 0.69402 0.05049 0.55461 0.0
H904 H 0.66665 0.03177 0.58417 0.0
H905 H 0.63722 0.00826 0.41409 0.0
H906 H 0.55152 0.97213 0.5268 0.0
H907 H 0.58457 0.97285 0.49197 0.0
C908 C 0.46126 0.68489 0.43211 0.0
C909 C 0.46145 0.68671 0.36271 0.0
C910 C 0.46419 0.66748 0.46166 0.0
C911 C 0.46632 0.61647 0.43034 0.0
H912 H 0.50252 0.61737 0.57369 0.0
C913 C 0.49994 0.549 0.53007 0.0
C914 C 0.50057 0.5471 0.59943 0.0
C915 C 0.4955 0.5662 0.50125 0.0
C916 C 0.49227 0.6169 0.53418 0.0
H917 H 0.46367 0.6715 0.26979 0.0
H918 H 0.46893 0.64112 0.32145 0.0
H919 H 0.49212 0.64668 0.52418 0.0
H920 H 0.49784 0.56199 0.69289 0.0
H921 H 0.49007 0.59198 0.64248 0.0
H922 H 0.46658 0.58664 0.44019 0.0
C923 C 0.46639 0.65313 0.35304 0.0
C924 C 0.48624 0.63369 0.50596 0.0
C925 C 0.46336 0.67056 0.32342 0.0
C926 C 0.49751 0.56297 0.63928 0.0
C927 C 0.49308 0.58018 0.6104 0.0
C928 C 0.47236 0.59967 0.45858 0.0
C929 C 0.46744 0.65154 0.42246 0.0
C930 C 0.4732 0.63366 0.45373 0.0
C931 C 0.49162 0.58186 0.54113 0.0
C932 C 0.48543 0.59971 0.5107 0.0
H933 H 0.45964 0.69706 0.46371 0.0
H934 H 0.46448 0.66661 0.5153 0.0
H935 H 0.45614 0.61601 0.39062 0.0
H936 H 0.50232 0.53708 0.49791 0.0
H937 H 0.49485 0.56717 0.44768 0.0
C938 C 0.81576 0.48101 0.37358 0.0
C939 C 0.8033 0.49622 0.37456 0.0
C940 C 0.83447 0.48347 0.39202 0.0
C941 C 0.86498 0.51513 0.48827 0.0
H942 H 0.9046 0.4866 0.40324 0.0
C943 C 0.94327 0.51857 0.5683 0.0
C944 C 0.95052 0.50075 0.5829 0.0
C945 C 0.92606 0.52029 0.53544 0.0
C946 C 0.89366 0.49473 0.42711 0.0
H947 H 0.80076 0.52604 0.39353 0.0
H948 H 0.8334 0.53034 0.42463 0.0
H949 H 0.8728 0.48521 0.35905 0.0
H950 H 0.94585 0.47084 0.57281 0.0
H951 H 0.91617 0.47389 0.51513 0.0
H952 H 0.88594 0.52445 0.55675 0.0
C953 C 0.82868 0.51645 0.41114 0.0
C954 C 0.87545 0.49384 0.4022 0.0
C955 C 0.80997 0.51397 0.39315 0.0
C956 C 0.94055 0.48477 0.56282 0.0
C957 C 0.92364 0.48649 0.52918 0.0
C958 C 0.88325 0.51615 0.5128 0.0
C959 C 0.84112 0.50121 0.41127 0.0
C960 C 0.8608 0.50364 0.43354 0.0
C961 C 0.91617 0.50423 0.51554 0.0
C962 C 0.89762 0.50558 0.48344 0.0
H963 H 0.81104 0.46718 0.35927 0.0
H964 H 0.84362 0.47136 0.3925 0.0
H965 H 0.854 0.52272 0.51403 0.0
H966 H 0.95069 0.5311 0.58329 0.0
H967 H 0.92051 0.53412 0.52543 0.0
loop_
_geom_bond_atom_site_label_1
_geom_bond_atom_site_label_2
_geom_bond_distance
_geom_bond_site_symmetry_2
_ccdc_geom_bond_type
O0 Cd1 2.300 . S
O0 C7 1.275 . S
Cd1 O0 2.300 . S
Cd1 O9 2.381 . S
Cd1 O10 2.378 . S
O2 Cd3 2.385 . S
O2 C7 1.255 . S
Cd3 O2 2.385 . S
Cd3 O4 2.317 . S
O4 Cd3 2.317 . S
O4 C5 1.232 . S
C5 O4 1.232 . S
C5 O6 1.218 . S
O6 C5 1.218 . S
C7 O0 1.275 . S
C7 O2 1.255 . S
C8 O9 1.258 . S
C8 O10 1.256 . S
O9 Cd1 2.381 . S
O9 C8 1.258 . S
O10 Cd1 2.378 . S
O10 C8 1.256 . S
O11 Cd12 2.300 1_655 S
O11 C18 1.275 1_655 S
Cd12 O11 2.300 1_455 S
Cd12 O20 2.381 1_455 S
Cd12 O21 2.378 . S
O13 Cd14 2.385 . S
O13 C18 1.255 . S
Cd14 O13 2.385 . S
Cd14 O15 2.317 . S
O15 Cd14 2.317 . S
O15 C16 1.232 . S
C16 O15 1.232 . S
C16 O17 1.218 . S
O17 C16 1.218 . S
C18 O11 1.275 1_455 S
C18 O13 1.255 . S
C19 O20 1.258 1_455 S
C19 O21 1.256 . S
O20 Cd12 2.381 1_655 S
O20 C19 1.258 1_655 S
O21 Cd12 2.378 . S
O21 C19 1.256 . S
O22 Cd23 2.300 1_565 S
O22 C29 1.275 1_565 S
Cd23 O22 2.300 1_545 S
Cd23 O31 2.381 1_545 S
Cd23 O32 2.378 . S
O24 Cd25 2.385 . S
O24 C29 1.255 . S
Cd25 O24 2.385 . S
Cd25 O26 2.317 . S
O26 Cd25 2.317 . S
O26 C27 1.232 . S
C27 O26 1.232 . S
C27 O28 1.218 . S
O28 C27 1.218 . S
C29 O22 1.275 1_545 S
C29 O24 1.255 . S
C30 O31 1.258 1_545 S
C30 O32 1.256 . S
O31 Cd23 2.381 1_565 S
O31 C30 1.258 1_565 S
O32 Cd23 2.378 . S
O32 C30 1.256 . S
O33 Cd34 2.300 . S
O33 C40 1.275 . S
Cd34 O33 2.300 . S
Cd34 O42 2.381 . S
Cd34 O43 2.378 . S
O35 Cd36 2.385 . S
O35 C40 1.255 . S
Cd36 O35 2.385 . S
Cd36 O37 2.317 . S
O37 Cd36 2.317 . S
O37 C38 1.232 . S
C38 O37 1.232 . S
C38 O39 1.218 . S
O39 C38 1.218 . S
C40 O33 1.275 . S
C40 O35 1.255 . S
C41 O42 1.258 . S
C41 O43 1.256 . S
O42 Cd34 2.381 . S
O42 C41 1.258 . S
O43 Cd34 2.378 . S
O43 C41 1.256 . S
O44 Cd45 2.300 . S
O44 C51 1.275 . S
Cd45 O44 2.300 . S
Cd45 O53 2.381 . S
Cd45 O54 2.378 . S
O46 Cd47 2.385 . S
O46 C51 1.255 . S
Cd47 O46 2.385 . S
Cd47 O48 2.317 1_554 S
O48 Cd47 2.317 1_556 S
O48 C49 1.232 . S
C49 O48 1.232 . S
C49 O50 1.218 . S
O50 C49 1.218 . S
C51 O44 1.275 . S
C51 O46 1.255 . S
C52 O53 1.258 . S
C52 O54 1.256 . S
O53 Cd45 2.381 . S
O53 C52 1.258 . S
O54 Cd45 2.378 . S
O54 C52 1.256 . S
O55 Cd56 2.300 1_655 S
O55 C62 1.275 1_655 S
Cd56 O55 2.300 1_455 S
Cd56 O64 2.381 1_455 S
Cd56 O65 2.378 . S
O57 Cd58 2.385 . S
O57 C62 1.255 . S
Cd58 O57 2.385 . S
Cd58 O59 2.317 1_554 S
O59 Cd58 2.317 1_556 S
O59 C60 1.232 . S
C60 O59 1.232 . S
C60 O61 1.218 . S
O61 C60 1.218 . S
C62 O55 1.275 1_455 S
C62 O57 1.255 . S
C63 O64 1.258 1_455 S
C63 O65 1.256 . S
O64 Cd56 2.381 1_655 S
O64 C63 1.258 1_655 S
O65 Cd56 2.378 . S
O65 C63 1.256 . S
O66 Cd67 2.300 1_565 S
O66 C73 1.275 1_565 S
Cd67 O66 2.300 1_545 S
Cd67 O75 2.381 1_545 S
Cd67 O76 2.378 . S
O68 Cd69 2.385 . S
O68 C73 1.255 . S
Cd69 O68 2.385 . S
Cd69 O70 2.317 1_554 S
O70 Cd69 2.317 1_556 S
O70 C71 1.232 . S
C71 O70 1.232 . S
C71 O72 1.218 . S
O72 C71 1.218 . S
C73 O66 1.275 1_545 S
C73 O68 1.255 . S
C74 O75 1.258 1_545 S
C74 O76 1.256 . S
O75 Cd67 2.381 1_565 S
O75 C74 1.258 1_565 S
O76 Cd67 2.378 . S
O76 C74 1.256 . S
O77 Cd78 2.300 . S
O77 C84 1.275 . S
Cd78 O77 2.300 . S
Cd78 O86 2.381 . S
Cd78 O87 2.378 . S
O79 Cd80 2.385 . S
O79 C84 1.255 . S
Cd80 O79 2.385 . S
Cd80 O81 2.317 1_554 S
O81 Cd80 2.317 1_556 S
O81 C82 1.232 . S
C82 O81 1.232 . S
C82 O83 1.218 . S
O83 C82 1.218 . S
C84 O77 1.275 . S
C84 O79 1.255 . S
C85 O86 1.258 . S
C85 O87 1.256 . S
O86 Cd78 2.381 . S
O86 C85 1.258 . S
O87 Cd78 2.378 . S
O87 C85 1.256 . S
Tb88 C98 2.825 . S
Tb88 O99 2.347 1_455 S
Tb88 O102 2.366 . S
Tb88 O107 2.418 . S
Tb88 O108 2.384 1_565 S
Tb88 O111 2.479 . S
Tb88 O112 2.471 . S
Eu89 O100 2.418 . S
Eu89 O101 2.384 1_545 S
Eu89 O104 2.479 . S
Eu89 O105 2.471 . S
Eu89 O106 2.347 1_655 S
Eu89 O109 2.366 . S
Eu89 C119 2.825 . S
C90 O106 1.259 1_565 S
C90 O107 1.265 . S
C91 O108 1.255 . S
C91 O109 1.265 1_455 S
C92 C94 1.380 . S
C92 C95 1.374 . S
C92 C98 1.507 . S
C93 C94 1.384 . S
C93 C97 1.387 . S
C93 H120 0.930 . S
C94 C92 1.380 . S
C94 C93 1.384 . S
C94 H121 0.931 . S
C95 C92 1.374 . S
C95 C96 1.390 . S
C95 H122 0.930 1_455 S
C96 C95 1.390 . S
C96 C97 1.391 . S
C96 H123 0.930 1_455 S
C97 C93 1.387 . S
C97 C96 1.391 . S
C98 Tb88 2.825 . S
C98 C92 1.507 . S
C98 O111 1.238 . S
C98 O112 1.247 . S
O99 Tb88 2.347 1_655 S
O99 C103 1.259 1_565 S
O100 Eu89 2.418 . S
O100 C103 1.265 . S
O101 Eu89 2.384 1_565 S
O101 C110 1.255 . S
O102 Tb88 2.366 . S
O102 C110 1.265 1_455 S
C103 O99 1.259 1_545 S
C103 O100 1.265 . S
O104 Eu89 2.479 . S
O104 C119 1.238 . S
O105 Eu89 2.471 . S
O105 C119 1.247 . S
O106 Eu89 2.347 1_455 S
O106 C90 1.259 1_545 S
O107 Tb88 2.418 . S
O107 C90 1.265 . S
O108 Tb88 2.384 1_545 S
O108 C91 1.255 . S
O109 Eu89 2.366 . S
O109 C91 1.265 1_655 S
C110 O101 1.255 . S
C110 O102 1.265 1_655 S
O111 Tb88 2.479 . S
O111 C98 1.238 . S
O112 Tb88 2.471 . S
O112 C98 1.247 . S
C113 C116 1.380 . S
C113 C117 1.374 . S
C113 C119 1.507 . S
C114 C115 1.387 . S
C114 C118 1.391 . S
C115 C114 1.387 . S
C115 C116 1.384 . S
C115 H124 0.930 . S
C116 C113 1.380 . S
C116 C115 1.384 . S
C116 H125 0.931 . S
C117 C113 1.374 . S
C117 C118 1.390 . S
C117 H126 0.930 1_655 S
C118 C114 1.391 . S
C118 C117 1.390 . S
C118 H127 0.930 1_655 S
C119 Eu89 2.825 . S
C119 O104 1.238 . S
C119 O105 1.247 . S
C119 C113 1.507 . S
H120 C93 0.930 . S
H121 C94 0.931 . S
H122 C95 0.930 1_655 S
H123 C96 0.930 1_655 S
H124 C115 0.930 . S
H125 C116 0.931 . S
H126 C117 0.930 1_455 S
H127 C118 0.930 1_455 S
Tb128 C138 2.825 . S
Tb128 O139 2.347 1_545 S
Tb128 O142 2.366 . S
Tb128 O147 2.418 . S
Tb128 O148 2.384 . S
Tb128 O151 2.479 . S
Tb128 O152 2.471 . S
Eu129 O140 2.418 . S
Eu129 O141 2.384 . S
Eu129 O144 2.479 . S
Eu129 O145 2.471 . S
Eu129 O146 2.347 1_565 S
Eu129 O149 2.366 . S
Eu129 C159 2.825 . S
C130 O146 1.259 . S
C130 O147 1.265 . S
C131 O148 1.255 . S
C131 O149 1.265 1_545 S
C132 C134 1.380 . S
C132 C135 1.374 . S
C132 C138 1.507 . S
C133 C134 1.384 . S
C133 C137 1.387 . S
C133 H160 0.930 . S
C134 C132 1.380 . S
C134 C133 1.384 . S
C134 H161 0.931 . S
C135 C132 1.374 . S
C135 C136 1.390 . S
C135 H162 0.930 1_545 S
C136 C135 1.390 . S
C136 C137 1.391 . S
C136 H163 0.930 1_545 S
C137 C133 1.387 . S
C137 C136 1.391 . S
C138 Tb128 2.825 . S
C138 C132 1.507 . S
C138 O151 1.238 . S
C138 O152 1.247 . S
O139 Tb128 2.347 1_565 S
O139 C143 1.259 . S
O140 Eu129 2.418 . S
O140 C143 1.265 . S
O141 Eu129 2.384 . S
O141 C150 1.255 . S
O142 Tb128 2.366 . S
O142 C150 1.265 1_545 S
C143 O139 1.259 . S
C143 O140 1.265 . S
O144 Eu129 2.479 . S
O144 C159 1.238 . S
O145 Eu129 2.471 . S
O145 C159 1.247 . S
O146 Eu129 2.347 1_545 S
O146 C130 1.259 . S
O147 Tb128 2.418 . S
O147 C130 1.265 . S
O148 Tb128 2.384 . S
O148 C131 1.255 . S
O149 Eu129 2.366 . S
O149 C131 1.265 1_565 S
C150 O141 1.255 . S
C150 O142 1.265 1_565 S
O151 Tb128 2.479 . S
O151 C138 1.238 . S
O152 Tb128 2.471 . S
O152 C138 1.247 . S
C153 C156 1.380 . S
C153 C157 1.374 . S
C153 C159 1.507 . S
C154 C155 1.387 . S
C154 C158 1.391 . S
C155 C154 1.387 . S
C155 C156 1.384 . S
C155 H164 0.930 . S
C156 C153 1.380 . S
C156 C155 1.384 . S
C156 H165 0.931 . S
C157 C153 1.374 . S
C157 C158 1.390 . S
C157 H166 0.930 1_565 S
C158 C154 1.391 . S
C158 C157 1.390 . S
C158 H167 0.930 1_565 S
C159 Eu129 2.825 . S
C159 O144 1.238 . S
C159 O145 1.247 . S
C159 C153 1.507 . S
H160 C133 0.930 . S
H161 C134 0.931 . S
H162 C135 0.930 1_565 S
H163 C136 0.930 1_565 S
H164 C155 0.930 . S
H165 C156 0.931 . S
H166 C157 0.930 1_545 S
H167 C158 0.930 1_545 S
Tb168 C178 2.825 . S
Tb168 O179 2.347 . S
Tb168 O182 2.366 . S
Tb168 O187 2.418 . S
Tb168 O188 2.384 . S
Tb168 O191 2.479 . S
Tb168 O192 2.471 . S
Eu169 O180 2.418 . S
Eu169 O181 2.384 . S
Eu169 O184 2.479 . S
Eu169 O185 2.471 . S
Eu169 O186 2.347 . S
Eu169 O189 2.366 . S
Eu169 C199 2.825 . S
C170 O186 1.259 . S
C170 O187 1.265 . S
C171 O188 1.255 . S
C171 O189 1.265 . S
C172 C174 1.380 . S
C172 C175 1.374 . S
C172 C178 1.507 . S
C173 C174 1.384 . S
C173 C177 1.387 . S
C173 H200 0.930 . S
C174 C172 1.380 . S
C174 C173 1.384 . S
C174 H201 0.931 . S
C175 C172 1.374 . S
C175 C176 1.390 . S
C175 H202 0.930 . S
C176 C175 1.390 . S
C176 C177 1.391 . S
C176 H203 0.930 . S
C177 C173 1.387 . S
C177 C176 1.391 . S
C178 Tb168 2.825 . S
C178 C172 1.507 . S
C178 O191 1.238 . S
C178 O192 1.247 . S
O179 Tb168 2.347 . S
O179 C183 1.259 . S
O180 Eu169 2.418 . S
O180 C183 1.265 . S
O181 Eu169 2.384 . S
O181 C190 1.255 . S
O182 Tb168 2.366 . S
O182 C190 1.265 . S
C183 O179 1.259 . S
C183 O180 1.265 . S
O184 Eu169 2.479 . S
O184 C199 1.238 . S
O185 Eu169 2.471 . S
O185 C199 1.247 . S
O186 Eu169 2.347 . S
O186 C170 1.259 . S
O187 Tb168 2.418 . S
O187 C170 1.265 . S
O188 Tb168 2.384 . S
O188 C171 1.255 . S
O189 Eu169 2.366 . S
O189 C171 1.265 . S
C190 O181 1.255 . S
C190 O182 1.265 . S
O191 Tb168 2.479 . S
O191 C178 1.238 . S
O192 Tb168 2.471 . S
O192 C178 1.247 . S
C193 C196 1.380 . S
C193 C197 1.374 . S
C193 C199 1.507 . S
C194 C195 1.387 . S
C194 C198 1.391 . S
C195 C194 1.387 . S
C195 C196 1.384 . S
C195 H204 0.930 . S
C196 C193 1.380 . S
C196 C195 1.384 . S
C196 H205 0.931 . S
C197 C193 1.374 . S
C197 C198 1.390 . S
C197 H206 0.930 . S
C198 C194 1.391 . S
C198 C197 1.390 . S
C198 H207 0.930 . S
C199 Eu169 2.825 . S
C199 O184 1.238 . S
C199 O185 1.247 . S
C199 C193 1.507 . S
H200 C173 0.930 . S
H201 C174 0.931 . S
H202 C175 0.930 . S
H203 C176 0.930 . S
H204 C195 0.930 . S
H205 C196 0.931 . S
H206 C197 0.930 . S
H207 C198 0.930 . S
Tb208 C218 2.825 . S
Tb208 O219 2.347 . S
Tb208 O222 2.366 . S
Tb208 O227 2.418 . S
Tb208 O228 2.384 1_655 S
Tb208 O231 2.479 . S
Tb208 O232 2.471 . S
Eu209 O220 2.418 . S
Eu209 O221 2.384 1_455 S
Eu209 O224 2.479 . S
Eu209 O225 2.471 . S
Eu209 O226 2.347 . S
Eu209 O229 2.366 . S
Eu209 C239 2.825 . S
C210 O226 1.259 1_655 S
C210 O227 1.265 . S
C211 O228 1.255 . S
C211 O229 1.265 . S
C212 C214 1.380 . S
C212 C215 1.374 . S
C212 C218 1.507 . S
C213 C214 1.384 . S
C213 C217 1.387 . S
C213 H240 0.930 . S
C214 C212 1.380 . S
C214 C213 1.384 . S
C214 H241 0.931 . S
C215 C212 1.374 . S
C215 C216 1.390 . S
C215 H242 0.930 . S
C216 C215 1.390 . S
C216 C217 1.391 . S
C216 H243 0.930 . S
C217 C213 1.387 . S
C217 C216 1.391 . S
C218 Tb208 2.825 . S
C218 C212 1.507 . S
C218 O231 1.238 . S
C218 O232 1.247 . S
O219 Tb208 2.347 . S
O219 C223 1.259 1_655 S
O220 Eu209 2.418 . S
O220 C223 1.265 . S
O221 Eu209 2.384 1_655 S
O221 C230 1.255 . S
O222 Tb208 2.366 . S
O222 C230 1.265 . S
C223 O219 1.259 1_455 S
C223 O220 1.265 . S
O224 Eu209 2.479 . S
O224 C239 1.238 . S
O225 Eu209 2.471 . S
O225 C239 1.247 . S
O226 Eu209 2.347 . S
O226 C210 1.259 1_455 S
O227 Tb208 2.418 . S
O227 C210 1.265 . S
O228 Tb208 2.384 1_455 S
O228 C211 1.255 . S
O229 Eu209 2.366 . S
O229 C211 1.265 . S
C230 O221 1.255 . S
C230 O222 1.265 . S
O231 Tb208 2.479 . S
O231 C218 1.238 . S
O232 Tb208 2.471 . S
O232 C218 1.247 . S
C233 C236 1.380 . S
C233 C237 1.374 . S
C233 C239 1.507 . S
C234 C235 1.387 . S
C234 C238 1.391 . S
C235 C234 1.387 . S
C235 C236 1.384 . S
C235 H244 0.930 . S
C236 C233 1.380 . S
C236 C235 1.384 . S
C236 H245 0.931 . S
C237 C233 1.374 . S
C237 C238 1.390 . S
C237 H246 0.930 . S
C238 C234 1.391 . S
C238 C237 1.390 . S
C238 H247 0.930 . S
C239 Eu209 2.825 . S
C239 O224 1.238 . S
C239 O225 1.247 . S
C239 C233 1.507 . S
H240 C213 0.930 . S
H241 C214 0.931 . S
H242 C215 0.930 . S
H243 C216 0.930 . S
H244 C235 0.930 . S
H245 C236 0.931 . S
H246 C237 0.930 . S
H247 C238 0.930 . S
C248 C249 1.393 . S
C248 C250 1.327 . S
C248 H273 0.950 . S
C249 C248 1.393 . S
C249 C265 1.306 1_545 S
C250 C248 1.327 . S
C250 C269 1.471 . S
C250 H274 0.950 . S
C251 C268 1.574 . S
C251 C270 1.323 1_565 S
C251 H275 0.949 . S
H252 C256 0.949 . S
C253 C254 1.306 1_565 S
C253 C255 1.327 . S
C253 H276 0.950 . S
C254 C253 1.306 1_545 S
C254 C266 1.393 . S
C255 C253 1.327 . S
C255 C271 1.387 1_565 S
C255 H277 0.950 . S
C256 H252 0.949 . S
C256 C264 1.574 . S
C256 C272 1.415 . S
H257 C265 0.950 . S
H258 C263 0.950 . S
H259 C264 0.949 . S
H260 C266 0.950 . S
H261 C267 0.950 . S
H262 C268 0.949 . S
C263 H258 0.950 . S
C263 C265 1.327 . S
C263 C269 1.387 1_565 S
C264 C256 1.574 . S
C264 H259 0.949 . S
C264 C270 1.415 . S
C265 C249 1.306 1_565 S
C265 H257 0.950 . S
C265 C263 1.327 . S
C266 C254 1.393 . S
C266 H260 0.950 . S
C266 C267 1.327 . S
C267 H261 0.950 . S
C267 C266 1.327 . S
C267 C271 1.471 . S
C268 C251 1.574 . S
C268 H262 0.949 . S
C268 C272 1.323 1_565 S
C269 C250 1.471 . S
C269 C263 1.387 1_545 S
C269 C270 1.523 . S
C270 C251 1.323 1_545 S
C270 C264 1.415 . S
C270 C269 1.523 . S
C271 C255 1.387 1_545 S
C271 C267 1.471 . S
C271 C272 1.523 . S
C272 C256 1.415 . S
C272 C268 1.323 1_545 S
C272 C271 1.523 . S
H273 C248 0.950 . S
H274 C250 0.950 . S
H275 C251 0.949 . S
H276 C253 0.950 . S
H277 C255 0.950 . S
C278 C279 1.349 . S
C278 C280 1.327 . S
C278 H303 0.950 . S
C279 C278 1.349 . S
C279 C295 1.349 . S
C280 C278 1.327 . S
C280 C299 1.429 . S
C280 H304 0.950 . S
C281 C298 1.574 . S
C281 C300 1.368 . S
C281 H305 0.949 . S
H282 C286 0.949 . S
C283 C284 1.349 . S
C283 C285 1.327 . S
C283 H306 0.950 . S
C284 C283 1.349 . S
C284 C296 1.349 . S
C285 C283 1.327 . S
C285 C301 1.429 . S
C285 H307 0.950 . S
C286 H282 0.949 . S
C286 C294 1.574 . S
C286 C302 1.368 . S
H287 C295 0.950 . S
H288 C293 0.950 . S
H289 C294 0.949 . S
H290 C296 0.950 . S
H291 C297 0.950 . S
H292 C298 0.949 . S
C293 H288 0.950 . S
C293 C295 1.327 . S
C293 C299 1.429 . S
C294 C286 1.574 . S
C294 H289 0.949 . S
C294 C300 1.368 . S
C295 C279 1.349 . S
C295 H287 0.950 . S
C295 C293 1.327 . S
C296 C284 1.349 . S
C296 H290 0.950 . S
C296 C297 1.327 . S
C297 H291 0.950 . S
C297 C296 1.327 . S
C297 C301 1.429 . S
C298 C281 1.574 . S
C298 H292 0.949 . S
C298 C302 1.368 . S
C299 C280 1.429 . S
C299 C293 1.429 . S
C299 C300 1.523 . S
C300 C281 1.368 . S
C300 C294 1.368 . S
C300 C299 1.523 . S
C301 C285 1.429 . S
C301 C297 1.429 . S
C301 C302 1.523 . S
C302 C286 1.368 . S
C302 C298 1.368 . S
C302 C301 1.523 . S
H303 C278 0.950 . S
H304 C280 0.950 . S
H305 C281 0.949 . S
H306 C283 0.950 . S
H307 C285 0.950 . S
C308 C309 1.349 . S
C308 C310 1.327 . S
C308 H333 0.950 . S
C309 C308 1.349 . S
C309 C325 1.349 . S
C310 C308 1.327 . S
C310 C329 1.429 . S
C310 H334 0.950 . S
C311 C328 1.574 . S
C311 C330 1.368 . S
C311 H335 0.949 . S
H312 C316 0.949 . S
C313 C314 1.349 . S
C313 C315 1.327 . S
C313 H336 0.950 . S
C314 C313 1.349 . S
C314 C326 1.349 . S
C315 C313 1.327 . S
C315 C331 1.429 . S
C315 H337 0.950 . S
C316 H312 0.949 . S
C316 C324 1.574 . S
C316 C332 1.368 . S
H317 C325 0.950 . S
H318 C323 0.950 . S
H319 C324 0.949 . S
H320 C326 0.950 . S
H321 C327 0.950 . S
H322 C328 0.949 . S
C323 H318 0.950 . S
C323 C325 1.327 . S
C323 C329 1.429 . S
C324 C316 1.574 . S
C324 H319 0.949 . S
C324 C330 1.368 . S
C325 C309 1.349 . S
C325 H317 0.950 . S
C325 C323 1.327 . S
C326 C314 1.349 . S
C326 H320 0.950 . S
C326 C327 1.327 . S
C327 H321 0.950 . S
C327 C326 1.327 . S
C327 C331 1.429 . S
C328 C311 1.574 . S
C328 H322 0.949 . S
C328 C332 1.368 . S
C329 C310 1.429 . S
C329 C323 1.429 . S
C329 C330 1.523 . S
C330 C311 1.368 . S
C330 C324 1.368 . S
C330 C329 1.523 . S
C331 C315 1.429 . S
C331 C327 1.429 . S
C331 C332 1.523 . S
C332 C316 1.368 . S
C332 C328 1.368 . S
C332 C331 1.523 . S
H333 C308 0.950 . S
H334 C310 0.950 . S
H335 C311 0.949 . S
H336 C313 0.950 . S
H337 C315 0.950 . S
C338 C339 1.331 1_655 S
C338 C340 1.327 . S
C338 H363 0.950 . S
C339 C338 1.331 1_455 S
C339 C355 1.368 . S
C340 C338 1.327 . S
C340 C359 1.411 1_655 S
C340 H364 0.950 . S
C341 C358 1.574 . S
C341 C360 1.389 . S
C341 H365 0.949 . S
H342 C346 0.949 . S
C343 C344 1.370 . S
C343 C345 1.327 . S
C343 H366 0.950 . S
C344 C343 1.370 . S
C344 C356 1.330 1_455 S
C345 C343 1.327 . S
C345 C361 1.448 . S
C345 H367 0.950 . S
C346 H342 0.949 . S
C346 C354 1.574 . S
C346 C362 1.349 1_655 S
H347 C355 0.950 . S
H348 C353 0.950 . S
H349 C354 0.949 . S
H350 C356 0.950 . S
H351 C357 0.950 . S
H352 C358 0.949 . S
C353 H348 0.950 . S
C353 C355 1.327 . S
C353 C359 1.448 . S
C354 C346 1.574 . S
C354 H349 0.949 . S
C354 C360 1.349 1_655 S
C355 C339 1.368 . S
C355 H347 0.950 . S
C355 C353 1.327 . S
C356 C344 1.330 1_655 S
C356 H350 0.950 . S
C356 C357 1.327 . S
C357 H351 0.950 . S
C357 C356 1.327 . S
C357 C361 1.411 1_655 S
C358 C341 1.574 . S
C358 H352 0.949 . S
C358 C362 1.390 . S
C359 C340 1.411 1_455 S
C359 C353 1.448 . S
C359 C360 1.523 . S
C360 C341 1.389 . S
C360 C354 1.349 1_455 S
C360 C359 1.523 . S
C361 C345 1.448 . S
C361 C357 1.411 1_455 S
C361 C362 1.523 . S
C362 C346 1.349 1_455 S
C362 C358 1.390 . S
C362 C361 1.523 . S
H363 C338 0.950 . S
H364 C340 0.950 . S
H365 C341 0.949 . S
H366 C343 0.950 . S
H367 C345 0.950 . S
C368 C369 1.324 1_545 S
C368 C370 1.327 . S
C368 H393 0.950 . S
C369 C368 1.324 1_565 S
C369 C385 1.374 . S
C370 C368 1.327 . S
C370 C389 1.405 1_545 S
C370 H394 0.950 . S
C371 C388 1.574 . S
C371 C390 1.395 1_556 S
C371 H395 0.949 . S
H372 C376 0.949 . S
C373 C374 1.374 . S
C373 C375 1.327 . S
C373 H396 0.950 . S
C374 C373 1.374 . S
C374 C386 1.324 1_565 S
C375 C373 1.327 . S
C375 C391 1.453 . S
C375 H397 0.950 . S
C376 H372 0.949 . S
C376 C384 1.574 1_556 S
C376 C392 1.342 1_545 S
H377 C385 0.950 . S
H378 C383 0.950 . S
H379 C384 0.949 . S
H380 C386 0.950 . S
H381 C387 0.950 . S
H382 C388 0.949 . S
C383 H378 0.950 . S
C383 C385 1.327 . S
C383 C389 1.453 . S
C384 C376 1.574 1_554 S
C384 H379 0.949 . S
C384 C390 1.342 1_545 S
C385 C369 1.374 . S
C385 H377 0.950 . S
C385 C383 1.327 . S
C386 C374 1.324 1_545 S
C386 H380 0.950 . S
C386 C387 1.327 . S
C387 H381 0.950 . S
C387 C386 1.327 . S
C387 C391 1.405 1_545 S
C388 C371 1.574 . S
C388 H382 0.949 . S
C388 C392 1.395 . S
C389 C370 1.405 1_565 S
C389 C383 1.453 . S
C389 C390 1.523 . S
C390 C371 1.395 1_554 S
C390 C384 1.342 1_565 S
C390 C389 1.523 . S
C391 C375 1.453 . S
C391 C387 1.405 1_565 S
C391 C392 1.523 . S
C392 C376 1.342 1_565 S
C392 C388 1.395 . S
C392 C391 1.523 . S
H393 C368 0.950 . S
H394 C370 0.950 . S
H395 C371 0.949 . S
H396 C373 0.950 . S
H397 C375 0.950 . S
C398 C399 1.349 . S
C398 C400 1.327 . S
C398 H423 0.950 . S
C399 C398 1.349 . S
C399 C415 1.349 . S
C400 C398 1.327 . S
C400 C419 1.429 . S
C400 H424 0.950 . S
C401 C418 1.574 . S
C401 C420 1.368 1_556 S
C401 H425 0.949 . S
H402 C406 0.949 . S
C403 C404 1.349 . S
C403 C405 1.327 . S
C403 H426 0.950 . S
C404 C403 1.349 . S
C404 C416 1.349 . S
C405 C403 1.327 . S
C405 C421 1.429 . S
C405 H427 0.950 . S
C406 H402 0.949 . S
C406 C414 1.574 . S
C406 C422 1.368 1_554 S
H407 C415 0.950 . S
H408 C413 0.950 . S
H409 C414 0.949 . S
H410 C416 0.950 . S
H411 C417 0.950 . S
H412 C418 0.949 . S
C413 H408 0.950 . S
C413 C415 1.327 . S
C413 C419 1.429 . S
C414 C406 1.574 . S
C414 H409 0.949 . S
C414 C420 1.368 . S
C415 C399 1.349 . S
C415 H407 0.950 . S
C415 C413 1.327 . S
C416 C404 1.349 . S
C416 H410 0.950 . S
C416 C417 1.327 . S
C417 H411 0.950 . S
C417 C416 1.327 . S
C417 C421 1.429 . S
C418 C401 1.574 . S
C418 H412 0.949 . S
C418 C422 1.368 . S
C419 C400 1.429 . S
C419 C413 1.429 . S
C419 C420 1.523 . S
C420 C401 1.368 1_554 S
C420 C414 1.368 . S
C420 C419 1.523 . S
C421 C405 1.429 . S
C421 C417 1.429 . S
C421 C422 1.523 . S
C422 C406 1.368 1_556 S
C422 C418 1.368 . S
C422 C421 1.523 . S
H423 C398 0.950 . S
H424 C400 0.950 . S
H425 C401 0.949 . S
H426 C403 0.950 . S
H427 C405 0.950 . S
C428 C429 1.349 . S
C428 C430 1.327 . S
C428 H453 0.950 . S
C429 C428 1.349 . S
C429 C445 1.349 . S
C430 C428 1.327 . S
C430 C449 1.429 . S
C430 H454 0.950 . S
C431 C448 1.574 . S
C431 C450 1.368 1_556 S
C431 H455 0.949 . S
H432 C436 0.949 . S
C433 C434 1.349 . S
C433 C435 1.327 . S
C433 H456 0.950 . S
C434 C433 1.349 . S
C434 C446 1.349 . S
C435 C433 1.327 . S
C435 C451 1.429 . S
C435 H457 0.950 . S
C436 H432 0.949 . S
C436 C444 1.574 1_556 S
C436 C452 1.368 . S
H437 C445 0.950 . S
H438 C443 0.950 . S
H439 C444 0.949 . S
H440 C446 0.950 . S
H441 C447 0.950 . S
H442 C448 0.949 . S
C443 H438 0.950 . S
C443 C445 1.327 . S
C443 C449 1.429 . S
C444 C436 1.574 1_554 S
C444 H439 0.949 . S
C444 C450 1.368 . S
C445 C429 1.349 . S
C445 H437 0.950 . S
C445 C443 1.327 . S
C446 C434 1.349 . S
C446 H440 0.950 . S
C446 C447 1.327 . S
C447 H441 0.950 . S
C447 C446 1.327 . S
C447 C451 1.429 . S
C448 C431 1.574 . S
C448 H442 0.949 . S
C448 C452 1.368 . S
C449 C430 1.429 . S
C449 C443 1.429 . S
C449 C450 1.523 . S
C450 C431 1.368 1_554 S
C450 C444 1.368 . S
C450 C449 1.523 . S
C451 C435 1.429 . S
C451 C447 1.429 . S
C451 C452 1.523 . S
C452 C436 1.368 . S
C452 C448 1.368 . S
C452 C451 1.523 . S
H453 C428 0.950 . S
H454 C430 0.950 . S
H455 C431 0.949 . S
H456 C433 0.950 . S
H457 C435 0.950 . S
C458 C459 1.330 1_455 S
C458 C460 1.327 . S
C458 H483 0.950 . S
C459 C458 1.330 1_655 S
C459 C475 1.368 . S
C460 C458 1.327 . S
C460 C479 1.410 1_455 S
C460 H484 0.950 . S
C461 C478 1.574 . S
C461 C480 1.390 . S
C461 H485 0.949 . S
H462 C466 0.949 . S
C463 C464 1.370 . S
C463 C465 1.327 . S
C463 H486 0.950 . S
C464 C463 1.370 . S
C464 C476 1.328 1_655 S
C465 C463 1.327 . S
C465 C481 1.449 . S
C465 H487 0.950 . S
C466 H462 0.949 . S
C466 C474 1.574 . S
C466 C482 1.347 1_455 S
H467 C475 0.950 . S
H468 C473 0.950 . S
H469 C474 0.949 . S
H470 C476 0.950 . S
H471 C477 0.950 . S
H472 C478 0.949 . S
C473 H468 0.950 . S
C473 C475 1.327 . S
C473 C479 1.448 . S
C474 C466 1.574 . S
C474 H469 0.949 . S
C474 C480 1.348 1_456 S
C475 C459 1.368 . S
C475 H467 0.950 . S
C475 C473 1.327 . S
C476 C464 1.328 1_455 S
C476 H470 0.950 . S
C476 C477 1.327 . S
C477 H471 0.950 . S
C477 C476 1.327 . S
C477 C481 1.409 1_455 S
C478 C461 1.574 . S
C478 H472 0.949 . S
C478 C482 1.390 1_554 S
C479 C460 1.410 1_655 S
C479 C473 1.448 . S
C479 C480 1.523 . S
C480 C461 1.390 . S
C480 C474 1.348 1_654 S
C480 C479 1.523 . S
C481 C465 1.449 . S
C481 C477 1.409 1_655 S
C481 C482 1.523 . S
C482 C466 1.347 1_655 S
C482 C478 1.390 1_556 S
C482 C481 1.523 . S
H483 C458 0.950 . S
H484 C460 0.950 . S
H485 C461 0.949 . S
H486 C463 0.950 . S
H487 C465 0.950 . S
C488 C489 1.349 . S
C488 C490 1.327 . S
C488 H513 0.950 . S
C489 C488 1.349 . S
C489 C505 1.349 1_455 S
C490 C488 1.327 . S
C490 C509 1.429 1_455 S
C490 H514 0.950 . S
C491 C508 1.574 . S
C491 C510 1.368 . S
C491 H515 0.949 . S
H492 C496 0.949 . S
C493 C494 1.349 . S
C493 C495 1.327 . S
C493 H516 0.950 . S
C494 C493 1.349 . S
C494 C506 1.349 . S
C495 C493 1.327 . S
C495 C511 1.429 . S
C495 H517 0.950 . S
C496 H492 0.949 . S
C496 C504 1.574 . S
C496 C512 1.368 1_455 S
H497 C505 0.950 . S
H498 C503 0.950 . S
H499 C504 0.949 . S
H500 C506 0.950 1_455 S
H501 C507 0.950 1_455 S
H502 C508 0.949 . S
C503 H498 0.950 . S
C503 C505 1.327 . S
C503 C509 1.429 . S
C504 C496 1.574 . S
C504 H499 0.949 . S
C504 C510 1.368 1_455 S
C505 C489 1.349 1_655 S
C505 H497 0.950 . S
C505 C503 1.327 . S
C506 C494 1.349 . S
C506 H500 0.950 1_655 S
C506 C507 1.327 . S
C507 H501 0.950 1_655 S
C507 C506 1.327 . S
C507 C511 1.429 . S
C508 C491 1.574 . S
C508 H502 0.949 . S
C508 C512 1.368 . S
C509 C490 1.429 1_655 S
C509 C503 1.429 . S
C509 C510 1.523 . S
C510 C491 1.368 . S
C510 C504 1.368 1_655 S
C510 C509 1.523 . S
C511 C495 1.429 . S
C511 C507 1.429 . S
C511 C512 1.523 . S
C512 C496 1.368 1_655 S
C512 C508 1.368 . S
C512 C511 1.523 . S
H513 C488 0.950 . S
H514 C490 0.950 . S
H515 C491 0.949 . S
H516 C493 0.950 . S
H517 C495 0.950 . S
C518 C519 1.349 1_565 S
C518 C520 1.327 . S
C518 H543 0.950 . S
C519 C518 1.349 1_545 S
C519 C535 1.349 . S
C520 C518 1.327 . S
C520 C539 1.429 . S
C520 H544 0.950 . S
C521 C538 1.574 . S
C521 C540 1.368 1_545 S
C521 H545 0.949 . S
H522 C526 0.949 . S
C523 C524 1.349 . S
C523 C525 1.327 . S
C523 H546 0.950 1_565 S
C524 C523 1.349 . S
C524 C536 1.349 . S
C525 C523 1.327 . S
C525 C541 1.429 . S
C525 H547 0.950 1_565 S
C526 H522 0.949 . S
C526 C534 1.574 . S
C526 C542 1.368 . S
H527 C535 0.950 . S
H528 C533 0.950 . S
H529 C534 0.949 . S
H530 C536 0.950 . S
H531 C537 0.950 . S
H532 C538 0.949 . S
C533 H528 0.950 . S
C533 C535 1.327 . S
C533 C539 1.429 1_545 S
C534 C526 1.574 . S
C534 H529 0.949 . S
C534 C540 1.368 . S
C535 C519 1.349 . S
C535 H527 0.950 . S
C535 C533 1.327 . S
C536 C524 1.349 . S
C536 H530 0.950 . S
C536 C537 1.327 . S
C537 H531 0.950 . S
C537 C536 1.327 . S
C537 C541 1.429 . S
C538 C521 1.574 . S
C538 H532 0.949 . S
C538 C542 1.368 1_545 S
C539 C520 1.429 . S
C539 C533 1.429 1_565 S
C539 C540 1.523 . S
C540 C521 1.368 1_565 S
C540 C534 1.368 . S
C540 C539 1.523 . S
C541 C525 1.429 . S
C541 C537 1.429 . S
C541 C542 1.523 . S
C542 C526 1.368 . S
C542 C538 1.368 1_565 S
C542 C541 1.523 . S
H543 C518 0.950 . S
H544 C520 0.950 . S
H545 C521 0.949 . S
H546 C523 0.950 1_545 S
H547 C525 0.950 1_545 S
C548 C549 1.349 . S
C548 C550 1.327 . S
C548 H573 0.950 . S
C549 C548 1.349 . S
C549 C565 1.349 . S
C550 C548 1.327 . S
C550 C569 1.429 . S
C550 H574 0.950 . S
C551 C568 1.574 . S
C551 C570 1.368 . S
C551 H575 0.949 . S
H552 C556 0.949 . S
C553 C554 1.349 . S
C553 C555 1.327 . S
C553 H576 0.950 . S
C554 C553 1.349 . S
C554 C566 1.349 . S
C555 C553 1.327 . S
C555 C571 1.429 . S
C555 H577 0.950 . S
C556 H552 0.949 . S
C556 C564 1.574 . S
C556 C572 1.368 . S
H557 C565 0.950 . S
H558 C563 0.950 . S
H559 C564 0.949 . S
H560 C566 0.950 . S
H561 C567 0.950 . S
H562 C568 0.949 . S
C563 H558 0.950 . S
C563 C565 1.327 . S
C563 C569 1.429 . S
C564 C556 1.574 . S
C564 H559 0.949 . S
C564 C570 1.368 . S
C565 C549 1.349 . S
C565 H557 0.950 . S
C565 C563 1.327 . S
C566 C554 1.349 . S
C566 H560 0.950 . S
C566 C567 1.327 . S
C567 H561 0.950 . S
C567 C566 1.327 . S
C567 C571 1.429 . S
C568 C551 1.574 . S
C568 H562 0.949 . S
C568 C572 1.368 . S
C569 C550 1.429 . S
C569 C563 1.429 . S
C569 C570 1.523 . S
C570 C551 1.368 . S
C570 C564 1.368 . S
C570 C569 1.523 . S
C571 C555 1.429 . S
C571 C567 1.429 . S
C571 C572 1.523 . S
C572 C556 1.368 . S
C572 C568 1.368 . S
C572 C571 1.523 . S
H573 C548 0.950 . S
H574 C550 0.950 . S
H575 C551 0.949 . S
H576 C553 0.950 . S
H577 C555 0.950 . S
C578 C579 1.349 . S
C578 C580 1.327 . S
C578 H603 0.950 . S
C579 C578 1.349 . S
C579 C595 1.349 . S
C580 C578 1.327 . S
C580 C599 1.429 . S
C580 H604 0.950 . S
C581 C598 1.574 . S
C581 C600 1.368 . S
C581 H605 0.949 . S
H582 C586 0.949 . S
C583 C584 1.349 . S
C583 C585 1.327 . S
C583 H606 0.950 . S
C584 C583 1.349 . S
C584 C596 1.349 . S
C585 C583 1.327 . S
C585 C601 1.429 . S
C585 H607 0.950 . S
C586 H582 0.949 . S
C586 C594 1.574 . S
C586 C602 1.368 . S
H587 C595 0.950 . S
H588 C593 0.950 . S
H589 C594 0.949 . S
H590 C596 0.950 . S
H591 C597 0.950 . S
H592 C598 0.949 . S
C593 H588 0.950 . S
C593 C595 1.327 . S
C593 C599 1.429 . S
C594 C586 1.574 . S
C594 H589 0.949 . S
C594 C600 1.368 . S
C595 C579 1.349 . S
C595 H587 0.950 . S
C595 C593 1.327 . S
C596 C584 1.349 . S
C596 H590 0.950 . S
C596 C597 1.327 . S
C597 H591 0.950 . S
C597 C596 1.327 . S
C597 C601 1.429 . S
C598 C581 1.574 . S
C598 H592 0.949 . S
C598 C602 1.368 . S
C599 C580 1.429 . S
C599 C593 1.429 . S
C599 C600 1.523 . S
C600 C581 1.368 . S
C600 C594 1.368 . S
C600 C599 1.523 . S
C601 C585 1.429 . S
C601 C597 1.429 . S
C601 C602 1.523 . S
C602 C586 1.368 . S
C602 C598 1.368 . S
C602 C601 1.523 . S
H603 C578 0.950 . S
H604 C580 0.950 . S
H605 C581 0.949 . S
H606 C583 0.950 . S
H607 C585 0.950 . S
C608 C609 1.349 1_455 S
C608 C610 1.327 . S
C608 H633 0.950 . S
C609 C608 1.349 1_655 S
C609 C625 1.349 . S
C610 C608 1.327 . S
C610 C629 1.429 . S
C610 H634 0.950 . S
C611 C628 1.574 . S
C611 C630 1.368 1_655 S
C611 H635 0.949 . S
H612 C616 0.949 . S
C613 C614 1.349 . S
C613 C615 1.327 . S
C613 H636 0.950 1_455 S
C614 C613 1.349 . S
C614 C626 1.349 . S
C615 C613 1.327 . S
C615 C631 1.429 . S
C615 H637 0.950 1_455 S
C616 H612 0.949 . S
C616 C624 1.574 . S
C616 C632 1.368 . S
H617 C625 0.950 . S
H618 C623 0.950 . S
H619 C624 0.949 . S
H620 C626 0.950 . S
H621 C627 0.950 1_554 S
H622 C628 0.949 1_556 S
C623 H618 0.950 . S
C623 C625 1.327 . S
C623 C629 1.429 1_655 S
C624 C616 1.574 . S
C624 H619 0.949 . S
C624 C630 1.368 . S
C625 C609 1.349 . S
C625 H617 0.950 . S
C625 C623 1.327 . S
C626 C614 1.349 . S
C626 H620 0.950 . S
C626 C627 1.327 . S
C627 H621 0.950 1_556 S
C627 C626 1.327 . S
C627 C631 1.429 . S
C628 C611 1.574 . S
C628 H622 0.949 1_554 S
C628 C632 1.368 1_655 S
C629 C610 1.429 . S
C629 C623 1.429 1_455 S
C629 C630 1.523 . S
C630 C611 1.368 1_455 S
C630 C624 1.368 . S
C630 C629 1.523 . S
C631 C615 1.429 . S
C631 C627 1.429 . S
C631 C632 1.523 1_556 S
C632 C616 1.368 . S
C632 C628 1.368 1_455 S
C632 C631 1.523 1_554 S
H633 C608 0.950 . S
H634 C610 0.950 . S
H635 C611 0.949 . S
H636 C613 0.950 1_655 S
H637 C615 0.950 1_655 S
C638 C639 1.349 1_545 S
C638 C640 1.327 . S
C638 H663 0.950 . S
C639 C638 1.349 1_565 S
C639 C655 1.349 . S
C640 C638 1.327 . S
C640 C659 1.429 . S
C640 H664 0.950 . S
C641 C658 1.574 . S
C641 C660 1.368 1_565 S
C641 H665 0.949 . S
H642 C646 0.949 . S
C643 C644 1.349 . S
C643 C645 1.331 . S
C643 H666 0.950 1_545 S
C644 C643 1.349 . S
C644 C656 1.349 . S
C645 C643 1.331 . S
C645 C661 1.445 . S
C645 H667 0.923 1_546 S
C646 H642 0.949 . S
C646 C654 1.574 . S
C646 C662 1.368 . S
H647 C655 0.950 . S
H648 C653 0.950 . S
H649 C654 0.949 . S
H650 C656 0.950 . S
H651 C657 0.950 . S
H652 C658 0.949 . S
C653 H648 0.950 . S
C653 C655 1.327 . S
C653 C659 1.429 1_565 S
C654 C646 1.574 . S
C654 H649 0.949 . S
C654 C660 1.368 . S
C655 C639 1.349 . S
C655 H647 0.950 . S
C655 C653 1.327 . S
C656 C644 1.349 . S
C656 H650 0.950 . S
C656 C657 1.327 . S
C657 H651 0.950 . S
C657 C656 1.327 . S
C657 C661 1.429 . S
C658 C641 1.574 . S
C658 H652 0.949 . S
C658 C662 1.368 1_565 S
C659 C640 1.429 . S
C659 C653 1.429 1_545 S
C659 C660 1.523 . S
C660 C641 1.368 1_545 S
C660 C654 1.368 . S
C660 C659 1.523 . S
C661 C645 1.445 . S
C661 C657 1.429 . S
C661 C662 1.523 1_556 S
C662 C646 1.368 . S
C662 C658 1.368 1_545 S
C662 C661 1.523 1_554 S
H663 C638 0.950 . S
H664 C640 0.950 . S
H665 C641 0.949 . S
H666 C643 0.950 1_565 S
H667 C645 0.923 1_564 S
C668 C669 1.349 . S
C668 C670 1.327 . S
C668 H693 0.950 . S
C669 C668 1.349 . S
C669 C685 1.349 . S
C670 C668 1.327 . S
C670 C689 1.429 . S
C670 H694 0.950 . S
C671 C688 1.574 . S
C671 C690 1.368 . S
C671 H695 0.949 . S
H672 C676 0.949 . S
C673 C674 1.349 . S
C673 C675 1.327 1_556 S
C673 H696 0.950 1_556 S
C674 C673 1.349 . S
C674 C686 1.349 . S
C675 C673 1.327 1_554 S
C675 C691 1.429 1_554 S
C675 H697 0.950 . S
C676 H672 0.949 . S
C676 C684 1.574 1_556 S
C676 C692 1.368 1_556 S
H677 C685 0.950 . S
H678 C683 0.950 . S
H679 C684 0.949 . S
H680 C686 0.950 . S
H681 C687 0.950 . S
H682 C688 0.949 . S
C683 H678 0.950 . S
C683 C685 1.327 . S
C683 C689 1.429 . S
C684 C676 1.574 1_554 S
C684 H679 0.949 . S
C684 C690 1.368 . S
C685 C669 1.349 . S
C685 H677 0.950 . S
C685 C683 1.327 . S
C686 C674 1.349 . S
C686 H680 0.950 . S
C686 C687 1.327 . S
C687 H681 0.950 . S
C687 C686 1.327 . S
C687 C691 1.429 . S
C688 C671 1.574 . S
C688 H682 0.949 . S
C688 C692 1.368 . S
C689 C670 1.429 . S
C689 C683 1.429 . S
C689 C690 1.523 . S
C690 C671 1.368 . S
C690 C684 1.368 . S
C690 C689 1.523 . S
C691 C675 1.429 1_556 S
C691 C687 1.429 . S
C691 C692 1.523 1_556 S
C692 C676 1.368 1_554 S
C692 C688 1.368 . S
C692 C691 1.523 1_554 S
H693 C668 0.950 . S
H694 C670 0.950 . S
H695 C671 0.949 . S
H696 C673 0.950 1_554 S
H697 C675 0.950 . S
C698 C699 1.349 . S
C698 C700 1.327 . S
C698 H723 0.950 . S
C699 C698 1.349 . S
C699 C715 1.349 . S
C700 C698 1.327 . S
C700 C719 1.429 . S
C700 H724 0.950 . S
C701 C718 1.574 . S
C701 C720 1.368 . S
C701 H725 0.949 . S
H702 C706 0.949 . S
C703 C704 1.349 . S
C703 C705 1.327 . S
C703 H726 0.950 . S
C704 C703 1.349 . S
C704 C716 1.349 . S
C705 C703 1.327 . S
C705 C721 1.429 . S
C705 H727 0.950 . S
C706 H702 0.949 . S
C706 C714 1.574 . S
C706 C722 1.368 . S
H707 C715 0.950 . S
H708 C713 0.950 . S
H709 C714 0.949 . S
H710 C716 0.950 . S
H711 C717 0.950 . S
H712 C718 0.949 1_556 S
C713 H708 0.950 . S
C713 C715 1.327 . S
C713 C719 1.429 . S
C714 C706 1.574 . S
C714 H709 0.949 . S
C714 C720 1.368 . S
C715 C699 1.349 . S
C715 H707 0.950 . S
C715 C713 1.327 . S
C716 C704 1.349 . S
C716 H710 0.950 . S
C716 C717 1.327 1_556 S
C717 H711 0.950 . S
C717 C716 1.327 1_554 S
C717 C721 1.429 1_554 S
C718 C701 1.574 . S
C718 H712 0.949 1_554 S
C718 C722 1.368 . S
C719 C700 1.429 . S
C719 C713 1.429 . S
C719 C720 1.523 . S
C720 C701 1.368 . S
C720 C714 1.368 . S
C720 C719 1.523 . S
C721 C705 1.429 . S
C721 C717 1.429 1_556 S
C721 C722 1.523 1_556 S
C722 C706 1.368 . S
C722 C718 1.368 . S
C722 C721 1.523 1_554 S
H723 C698 0.950 . S
H724 C700 0.950 . S
H725 C701 0.949 . S
H726 C703 0.950 . S
H727 C705 0.950 . S
C728 C729 1.349 . S
C728 C730 1.327 . S
C728 H753 0.950 . S
C729 C728 1.349 . S
C729 C745 1.349 1_455 S
C730 C728 1.327 . S
C730 C749 1.429 . S
C730 H754 0.950 . S
C731 C748 1.574 . S
C731 C750 1.368 1_655 S
C731 H755 0.949 . S
H732 C736 0.949 . S
C733 C734 1.349 1_655 S
C733 C735 1.327 . S
C733 H756 0.950 . S
C734 C733 1.349 1_455 S
C734 C746 1.349 . S
C735 C733 1.327 . S
C735 C751 1.429 1_655 S
C735 H757 0.950 . S
C736 H732 0.949 . S
C736 C744 1.574 . S
C736 C752 1.368 . S
H737 C745 0.950 . S
H738 C743 0.950 . S
H739 C744 0.949 . S
H740 C746 0.950 . S
H741 C747 0.950 . S
H742 C748 0.949 . S
C743 H738 0.950 . S
C743 C745 1.327 . S
C743 C749 1.429 1_655 S
C744 C736 1.574 . S
C744 H739 0.949 . S
C744 C750 1.368 . S
C745 C729 1.349 1_655 S
C745 H737 0.950 . S
C745 C743 1.327 . S
C746 C734 1.349 . S
C746 H740 0.950 . S
C746 C747 1.327 . S
C747 H741 0.950 . S
C747 C746 1.327 . S
C747 C751 1.429 . S
C748 C731 1.574 . S
C748 H742 0.949 . S
C748 C752 1.368 1_655 S
C749 C730 1.429 . S
C749 C743 1.429 1_455 S
C749 C750 1.523 . S
C750 C731 1.368 1_455 S
C750 C744 1.368 . S
C750 C749 1.523 . S
C751 C735 1.429 1_455 S
C751 C747 1.429 . S
C751 C752 1.523 . S
C752 C736 1.368 . S
C752 C748 1.368 1_455 S
C752 C751 1.523 . S
H753 C728 0.950 . S
H754 C730 0.950 . S
H755 C731 0.949 . S
H756 C733 0.950 . S
H757 C735 0.950 . S
C758 C759 1.349 1_565 S
C758 C760 1.327 . S
C758 H783 0.950 . S
C759 C758 1.349 1_545 S
C759 C775 1.349 . S
C760 C758 1.327 . S
C760 C779 1.429 1_565 S
C760 H784 0.950 . S
C761 C778 1.574 . S
C761 C780 1.368 . S
C761 H785 0.949 . S
H762 C766 0.949 . S
C763 C764 1.349 . S
C763 C765 1.327 . S
C763 H786 0.950 . S
C764 C763 1.349 . S
C764 C776 1.349 1_545 S
C765 C763 1.327 . S
C765 C781 1.429 . S
C765 H787 0.950 . S
C766 H762 0.949 . S
C766 C774 1.574 . S
C766 C782 1.368 1_565 S
H767 C775 0.950 . S
H768 C773 0.950 . S
H769 C774 0.949 . S
H770 C776 0.950 . S
H771 C777 0.950 . S
H772 C778 0.949 . S
C773 H768 0.950 . S
C773 C775 1.327 . S
C773 C779 1.429 . S
C774 C766 1.574 . S
C774 H769 0.949 . S
C774 C780 1.368 1_565 S
C775 C759 1.349 . S
C775 H767 0.950 . S
C775 C773 1.327 . S
C776 C764 1.349 1_565 S
C776 H770 0.950 . S
C776 C777 1.327 . S
C777 H771 0.950 . S
C777 C776 1.327 . S
C777 C781 1.429 1_565 S
C778 C761 1.574 . S
C778 H772 0.949 . S
C778 C782 1.368 . S
C779 C760 1.429 1_545 S
C779 C773 1.429 . S
C779 C780 1.523 . S
C780 C761 1.368 . S
C780 C774 1.368 1_545 S
C780 C779 1.523 . S
C781 C765 1.429 . S
C781 C777 1.429 1_545 S
C781 C782 1.523 . S
C782 C766 1.368 1_545 S
C782 C778 1.368 . S
C782 C781 1.523 . S
H783 C758 0.950 . S
H784 C760 0.950 . S
H785 C761 0.949 . S
H786 C763 0.950 . S
H787 C765 0.950 . S
C788 C789 1.349 . S
C788 C790 1.327 . S
C788 H813 0.950 . S
C789 C788 1.349 . S
C789 C805 1.349 . S
C790 C788 1.327 . S
C790 C809 1.429 . S
C790 H814 0.950 . S
C791 C808 1.574 . S
C791 C810 1.368 . S
C791 H815 0.949 . S
H792 C796 0.949 . S
C793 C794 1.349 . S
C793 C795 1.327 . S
C793 H816 0.950 . S
C794 C793 1.349 . S
C794 C806 1.349 . S
C795 C793 1.327 . S
C795 C811 1.429 . S
C795 H817 0.950 . S
C796 H792 0.949 . S
C796 C804 1.574 . S
C796 C812 1.368 . S
H797 C805 0.950 . S
H798 C803 0.950 . S
H799 C804 0.949 . S
H800 C806 0.950 . S
H801 C807 0.950 . S
H802 C808 0.949 . S
C803 H798 0.950 . S
C803 C805 1.327 . S
C803 C809 1.429 . S
C804 C796 1.574 . S
C804 H799 0.949 . S
C804 C810 1.368 . S
C805 C789 1.349 . S
C805 H797 0.950 . S
C805 C803 1.327 . S
C806 C794 1.349 . S
C806 H800 0.950 . S
C806 C807 1.327 . S
C807 H801 0.950 . S
C807 C806 1.327 . S
C807 C811 1.429 . S
C808 C791 1.574 . S
C808 H802 0.949 . S
C808 C812 1.368 . S
C809 C790 1.429 . S
C809 C803 1.429 . S
C809 C810 1.523 . S
C810 C791 1.368 . S
C810 C804 1.368 . S
C810 C809 1.523 . S
C811 C795 1.429 . S
C811 C807 1.429 . S
C811 C812 1.523 . S
C812 C796 1.368 . S
C812 C808 1.368 . S
C812 C811 1.523 . S
H813 C788 0.950 . S
H814 C790 0.950 . S
H815 C791 0.949 . S
H816 C793 0.950 . S
H817 C795 0.950 . S
C818 C819 1.349 . S
C818 C820 1.327 . S
C818 H843 0.950 . S
C819 C818 1.349 . S
C819 C835 1.349 . S
C820 C818 1.327 . S
C820 C839 1.429 . S
C820 H844 0.950 . S
C821 C838 1.574 . S
C821 C840 1.368 . S
C821 H845 0.949 . S
H822 C826 0.949 . S
C823 C824 1.349 . S
C823 C825 1.327 . S
C823 H846 0.950 . S
C824 C823 1.349 . S
C824 C836 1.349 . S
C825 C823 1.327 . S
C825 C841 1.429 . S
C825 H847 0.950 . S
C826 H822 0.949 . S
C826 C834 1.574 . S
C826 C842 1.368 . S
H827 C835 0.950 . S
H828 C833 0.950 . S
H829 C834 0.949 . S
H830 C836 0.950 . S
H831 C837 0.950 . S
H832 C838 0.949 . S
C833 H828 0.950 . S
C833 C835 1.327 . S
C833 C839 1.429 . S
C834 C826 1.574 . S
C834 H829 0.949 . S
C834 C840 1.368 . S
C835 C819 1.349 . S
C835 H827 0.950 . S
C835 C833 1.327 . S
C836 C824 1.349 . S
C836 H830 0.950 . S
C836 C837 1.327 . S
C837 H831 0.950 . S
C837 C836 1.327 . S
C837 C841 1.429 . S
C838 C821 1.574 . S
C838 H832 0.949 . S
C838 C842 1.368 . S
C839 C820 1.429 . S
C839 C833 1.429 . S
C839 C840 1.523 . S
C840 C821 1.368 . S
C840 C834 1.368 . S
C840 C839 1.523 . S
C841 C825 1.429 . S
C841 C837 1.429 . S
C841 C842 1.523 . S
C842 C826 1.368 . S
C842 C838 1.368 . S
C842 C841 1.523 . S
H843 C818 0.950 . S
H844 C820 0.950 . S
H845 C821 0.949 . S
H846 C823 0.950 . S
H847 C825 0.950 . S
C848 C849 1.349 . S
C848 C850 1.327 . S
C848 H873 0.950 . S
C849 C848 1.349 . S
C849 C865 1.349 1_655 S
C850 C848 1.327 . S
C850 C869 1.429 . S
C850 H874 0.950 . S
C851 C868 1.574 . S
C851 C870 1.368 1_455 S
C851 H875 0.949 . S
H852 C856 0.949 . S
C853 C854 1.349 1_455 S
C853 C855 1.327 . S
C853 H876 0.950 . S
C854 C853 1.349 1_655 S
C854 C866 1.349 . S
C855 C853 1.327 . S
C855 C871 1.429 1_455 S
C855 H877 0.950 . S
C856 H852 0.949 . S
C856 C864 1.574 . S
C856 C872 1.368 . S
H857 C865 0.950 . S
H858 C863 0.950 . S
H859 C864 0.949 . S
H860 C866 0.950 . S
H861 C867 0.950 . S
H862 C868 0.949 . S
C863 H858 0.950 . S
C863 C865 1.327 . S
C863 C869 1.429 1_455 S
C864 C856 1.574 . S
C864 H859 0.949 . S
C864 C870 1.368 . S
C865 C849 1.349 1_455 S
C865 H857 0.950 . S
C865 C863 1.327 . S
C866 C854 1.349 . S
C866 H860 0.950 . S
C866 C867 1.327 . S
C867 H861 0.950 . S
C867 C866 1.327 . S
C867 C871 1.429 . S
C868 C851 1.574 . S
C868 H862 0.949 . S
C868 C872 1.368 1_455 S
C869 C850 1.429 . S
C869 C863 1.429 1_655 S
C869 C870 1.523 . S
C870 C851 1.368 1_655 S
C870 C864 1.368 . S
C870 C869 1.523 . S
C871 C855 1.429 1_655 S
C871 C867 1.429 . S
C871 C872 1.523 . S
C872 C856 1.368 . S
C872 C868 1.368 1_655 S
C872 C871 1.523 . S
H873 C848 0.950 . S
H874 C850 0.950 . S
H875 C851 0.949 . S
H876 C853 0.950 . S
H877 C855 0.950 . S
C878 C879 1.349 . S
C878 C880 1.327 . S
C878 H903 0.950 . S
C879 C878 1.349 . S
C879 C895 1.349 1_565 S
C880 C878 1.327 . S
C880 C899 1.429 . S
C880 H904 0.950 . S
C881 C898 1.574 . S
C881 C900 1.368 1_545 S
C881 H905 0.949 . S
H882 C886 0.949 . S
C883 C884 1.349 1_545 S
C883 C885 1.327 . S
C883 H906 0.950 . S
C884 C883 1.349 1_565 S
C884 C896 1.349 . S
C885 C883 1.327 . S
C885 C901 1.429 1_545 S
C885 H907 0.950 . S
C886 H882 0.949 . S
C886 C894 1.574 . S
C886 C902 1.368 . S
H887 C895 0.950 . S
H888 C893 0.950 . S
H889 C894 0.949 . S
H890 C896 0.950 . S
H891 C897 0.950 . S
H892 C898 0.949 . S
C893 H888 0.950 . S
C893 C895 1.327 . S
C893 C899 1.429 1_545 S
C894 C886 1.574 . S
C894 H889 0.949 . S
C894 C900 1.368 . S
C895 C879 1.349 1_545 S
C895 H887 0.950 . S
C895 C893 1.327 . S
C896 C884 1.349 . S
C896 H890 0.950 . S
C896 C897 1.327 . S
C897 H891 0.950 . S
C897 C896 1.327 . S
C897 C901 1.429 . S
C898 C881 1.574 . S
C898 H892 0.949 . S
C898 C902 1.368 1_545 S
C899 C880 1.429 . S
C899 C893 1.429 1_565 S
C899 C900 1.523 . S
C900 C881 1.368 1_565 S
C900 C894 1.368 . S
C900 C899 1.523 . S
C901 C885 1.429 1_565 S
C901 C897 1.429 . S
C901 C902 1.523 . S
C902 C886 1.368 . S
C902 C898 1.368 1_565 S
C902 C901 1.523 . S
H903 C878 0.950 . S
H904 C880 0.950 . S
H905 C881 0.949 . S
H906 C883 0.950 . S
H907 C885 0.950 . S
C908 C909 1.349 . S
C908 C910 1.327 . S
C908 H933 0.950 . S
C909 C908 1.349 . S
C909 C925 1.349 . S
C910 C908 1.327 . S
C910 C929 1.429 . S
C910 H934 0.950 . S
C911 C928 1.574 . S
C911 C930 1.368 . S
C911 H935 0.949 . S
H912 C916 0.949 . S
C913 C914 1.349 . S
C913 C915 1.327 . S
C913 H936 0.950 . S
C914 C913 1.349 . S
C914 C926 1.349 . S
C915 C913 1.327 . S
C915 C931 1.429 . S
C915 H937 0.950 . S
C916 H912 0.949 . S
C916 C924 1.574 . S
C916 C932 1.368 . S
H917 C925 0.950 . S
H918 C923 0.950 . S
H919 C924 0.949 . S
H920 C926 0.950 . S
H921 C927 0.950 . S
H922 C928 0.949 . S
C923 H918 0.950 . S
C923 C925 1.327 . S
C923 C929 1.429 . S
C924 C916 1.574 . S
C924 H919 0.949 . S
C924 C930 1.368 . S
C925 C909 1.349 . S
C925 H917 0.950 . S
C925 C923 1.327 . S
C926 C914 1.349 . S
C926 H920 0.950 . S
C926 C927 1.327 . S
C927 H921 0.950 . S
C927 C926 1.327 . S
C927 C931 1.429 . S
C928 C911 1.574 . S
C928 H922 0.949 . S
C928 C932 1.368 . S
C929 C910 1.429 . S
C929 C923 1.429 . S
C929 C930 1.523 . S
C930 C911 1.368 . S
C930 C924 1.368 . S
C930 C929 1.523 . S
C931 C915 1.429 . S
C931 C927 1.429 . S
C931 C932 1.523 . S
C932 C916 1.368 . S
C932 C928 1.368 . S
C932 C931 1.523 . S
H933 C908 0.950 . S
H934 C910 0.950 . S
H935 C911 0.949 . S
H936 C913 0.950 . S
H937 C915 0.950 . S
C938 C939 1.349 . S
C938 C940 1.327 . S
C938 H963 0.950 . S
C939 C938 1.349 . S
C939 C955 1.349 . S
C940 C938 1.327 . S
C940 C959 1.429 . S
C940 H964 0.950 . S
C941 C958 1.574 . S
C941 C960 1.368 . S
C941 H965 0.949 . S
H942 C946 0.949 . S
C943 C944 1.349 . S
C943 C945 1.327 . S
C943 H966 0.950 . S
C944 C943 1.349 . S
C944 C956 1.349 . S
C945 C943 1.327 . S
C945 C961 1.429 . S
C945 H967 0.950 . S
C946 H942 0.949 . S
C946 C954 1.574 . S
C946 C962 1.368 . S
H947 C955 0.950 . S
H948 C953 0.950 . S
H949 C954 0.949 . S
H950 C956 0.950 . S
H951 C957 0.950 . S
H952 C958 0.949 . S
C953 H948 0.950 . S
C953 C955 1.327 . S
C953 C959 1.429 . S
C954 C946 1.574 . S
C954 H949 0.949 . S
C954 C960 1.368 . S
C955 C939 1.349 . S
C955 H947 0.950 . S
C955 C953 1.327 . S
C956 C944 1.349 . S
C956 H950 0.950 . S
C956 C957 1.327 . S
C957 H951 0.950 . S
C957 C956 1.327 . S
C957 C961 1.429 . S
C958 C941 1.574 . S
C958 H952 0.949 . S
C958 C962 1.368 . S
C959 C940 1.429 . S
C959 C953 1.429 . S
C959 C960 1.523 . S
C960 C941 1.368 . S
C960 C954 1.368 . S
C960 C959 1.523 . S
C961 C945 1.429 . S
C961 C957 1.429 . S
C961 C962 1.523 . S
C962 C946 1.368 . S
C962 C958 1.368 . S
C962 C961 1.523 . S
H963 C938 0.950 . S
H964 C940 0.950 . S
H965 C941 0.949 . S
H966 C943 0.950 . S
H967 C945 0.950 . S
C249 C74 1.703 . S
C254 C90 1.756 1_545 S
C284 C130 1.761 . S
C279 C85 1.696 . S
C314 C170 1.761 . S
C309 C52 1.697 . S
C344 C210 1.757 1_455 S
C339 C63 1.701 . S
C374 C103 1.759 1_565 S
C369 C30 1.694 1_565 S
C399 C41 1.696 . S
C404 C143 1.761 . S
C429 C8 1.696 . S
C434 C183 1.761 . S
C459 C19 1.694 1_655 S
C464 C223 1.759 1_655 S
C494 C114 0.440 . S
C489 C62 0.447 . S
C524 C154 0.440 . S
C519 C73 0.447 . S
C554 C194 0.440 . S
C549 C84 0.447 . S
C579 C51 0.448 . S
C584 C234 0.439 . S
C609 C18 0.493 1_655 S
C614 C97 0.440 . S
C644 C137 0.440 . S
C639 C29 0.493 1_565 S
C674 C177 0.440 . S
C669 C40 0.493 . S
C699 C7 0.493 . S
C704 C217 0.441 . S
C729 C60 1.586 . S
C734 C91 2.056 . S
C759 C71 1.587 . S
C764 C131 2.056 . S
C794 C171 2.056 . S
C789 C82 1.587 . S
C824 C211 2.056 . S
C819 C49 1.586 . S
C849 C16 1.621 1_655 S
C854 C110 2.056 . S
C884 C150 2.056 . S
C879 C27 1.621 1_565 S
C914 C190 2.055 . S
C909 C38 1.620 . S
C939 C5 1.620 . S
C944 C230 2.057 . S
