# Generated by pormake.
# Topology gar, (4,6)-cn, num edge types: 1
# Building blocks:
#     Node 0, Type 0, BuildingBlock: GALJAG_clean_sbu_0, # of connection points: 4
#     Node 1, Type 0, BuildingBlock: GALJAG_clean_sbu_0, # of connection points: 4
#     Node 2, Type 0, BuildingBlock: GALJAG_clean_sbu_0, # of connection points: 4
#     Node 3, Type 0, BuildingBlock: GALJAG_clean_sbu_0, # of connection points: 4
#     Node 4, Type 0, BuildingBlock: GALJAG_clean_sbu_0, # of connection points: 4
#     Node 5, Type 0, BuildingBlock: GALJAG_clean_sbu_0, # of connection points: 4
#     Node 6, Type 0, BuildingBlock: GALJAG_clean_sbu_0, # of connection points: 4
#     Node 7, Type 0, BuildingBlock: GALJAG_clean_sbu_0, # of connection points: 4
#     Node 8, Type 0, BuildingBlock: GALJAG_clean_sbu_0, # of connection points: 4
#     Node 9, Type 0, BuildingBlock: GALJAG_clean_sbu_0, # of connection points: 4
#     Node 10, Type 0, BuildingBlock: GALJAG_clean_sbu_0, # of connection points: 4
#     Node 11, Type 0, BuildingBlock: GALJAG_clean_sbu_0, # of connection points: 4
#     Node 12, Type 0, BuildingBlock: GALJAG_clean_sbu_0, # of connection points: 4
#     Node 13, Type 0, BuildingBlock: GALJAG_clean_sbu_0, # of connection points: 4
#     Node 14, Type 0, BuildingBlock: GALJAG_clean_sbu_0, # of connection points: 4
#     Node 15, Type 0, BuildingBlock: GALJAG_clean_sbu_0, # of connection points: 4
#     Node 16, Type 0, BuildingBlock: GALJAG_clean_sbu_0, # of connection points: 4
#     Node 17, Type 0, BuildingBlock: GALJAG_clean_sbu_0, # of connection points: 4
#     Node 18, Type 0, BuildingBlock: GALJAG_clean_sbu_0, # of connection points: 4
#     Node 19, Type 0, BuildingBlock: GALJAG_clean_sbu_0, # of connection points: 4
#     Node 20, Type 0, BuildingBlock: GALJAG_clean_sbu_0, # of connection points: 4
#     Node 21, Type 0, BuildingBlock: GALJAG_clean_sbu_0, # of connection points: 4
#     Node 22, Type 0, BuildingBlock: GALJAG_clean_sbu_0, # of connection points: 4
#     Node 23, Type 0, BuildingBlock: GALJAG_clean_sbu_0, # of connection points: 4
#     Node 24, Type 1, BuildingBlock: KUMBUR_clean_sbu_0, # of connection points: 6
#     Node 25, Type 1, BuildingBlock: KUMBUR_clean_sbu_0, # of connection points: 6
#     Node 26, Type 1, BuildingBlock: KUMBUR_clean_sbu_0, # of connection points: 6
#     Node 27, Type 1, BuildingBlock: KUMBUR_clean_sbu_0, # of connection points: 6
#     Node 28, Type 1, BuildingBlock: KUMBUR_clean_sbu_0, # of connection points: 6
#     Node 29, Type 1, BuildingBlock: KUMBUR_clean_sbu_0, # of connection points: 6
#     Node 30, Type 1, BuildingBlock: KUMBUR_clean_sbu_0, # of connection points: 6
#     Node 31, Type 1, BuildingBlock: KUMBUR_clean_sbu_0, # of connection points: 6
#     Node 32, Type 1, BuildingBlock: KUMBUR_clean_sbu_0, # of connection points: 6
#     Node 33, Type 1, BuildingBlock: KUMBUR_clean_sbu_0, # of connection points: 6
#     Node 34, Type 1, BuildingBlock: KUMBUR_clean_sbu_0, # of connection points: 6
#     Node 35, Type 1, BuildingBlock: KUMBUR_clean_sbu_0, # of connection points: 6
#     Node 36, Type 1, BuildingBlock: KUMBUR_clean_sbu_0, # of connection points: 6
#     Node 37, Type 1, BuildingBlock: KUMBUR_clean_sbu_0, # of connection points: 6
#     Node 38, Type 1, BuildingBlock: KUMBUR_clean_sbu_0, # of connection points: 6
#     Node 39, Type 1, BuildingBlock: KUMBUR_clean_sbu_0, # of connection points: 6
#     Edge 40, Type (0, 1), BuildingBlock: CIFDUS_clean_linker_0, # of connection points: 2
#     Edge 41, Type (0, 1), BuildingBlock: CIFDUS_clean_linker_0, # of connection points: 2
#     Edge 42, Type (0, 1), BuildingBlock: CIFDUS_clean_linker_0, # of connection points: 2
#     Edge 43, Type (0, 1), BuildingBlock: CIFDUS_clean_linker_0, # of connection points: 2
#     Edge 44, Type (0, 1), BuildingBlock: CIFDUS_clean_linker_0, # of connection points: 2
#     Edge 45, Type (0, 1), BuildingBlock: CIFDUS_clean_linker_0, # of connection points: 2
#     Edge 46, Type (0, 1), BuildingBlock: CIFDUS_clean_linker_0, # of connection points: 2
#     Edge 47, Type (0, 1), BuildingBlock: CIFDUS_clean_linker_0, # of connection points: 2
#     Edge 48, Type (0, 1), BuildingBlock: CIFDUS_clean_linker_0, # of connection points: 2
#     Edge 49, Type (0, 1), BuildingBlock: CIFDUS_clean_linker_0, # of connection points: 2
#     Edge 50, Type (0, 1), BuildingBlock: CIFDUS_clean_linker_0, # of connection points: 2
#     Edge 51, Type (0, 1), BuildingBlock: CIFDUS_clean_linker_0, # of connection points: 2
#     Edge 52, Type (0, 1), BuildingBlock: CIFDUS_clean_linker_0, # of connection points: 2
#     Edge 53, Type (0, 1), BuildingBlock: CIFDUS_clean_linker_0, # of connection points: 2
#     Edge 54, Type (0, 1), BuildingBlock: CIFDUS_clean_linker_0, # of connection points: 2
#     Edge 55, Type (0, 1), BuildingBlock: CIFDUS_clean_linker_0, # of connection points: 2
#     Edge 56, Type (0, 1), BuildingBlock: CIFDUS_clean_linker_0, # of connection points: 2
#     Edge 57, Type (0, 1), BuildingBlock: CIFDUS_clean_linker_0, # of connection points: 2
#     Edge 58, Type (0, 1), BuildingBlock: CIFDUS_clean_linker_0, # of connection points: 2
#     Edge 59, Type (0, 1), BuildingBlock: CIFDUS_clean_linker_0, # of connection points: 2
#     Edge 60, Type (0, 1), BuildingBlock: CIFDUS_clean_linker_0, # of connection points: 2
#     Edge 61, Type (0, 1), BuildingBlock: CIFDUS_clean_linker_0, # of connection points: 2
#     Edge 62, Type (0, 1), BuildingBlock: CIFDUS_clean_linker_0, # of connection points: 2
#     Edge 63, Type (0, 1), BuildingBlock: CIFDUS_clean_linker_0, # of connection points: 2
#     Edge 64, Type (0, 1), BuildingBlock: CIFDUS_clean_linker_0, # of connection points: 2
#     Edge 65, Type (0, 1), BuildingBlock: CIFDUS_clean_linker_0, # of connection points: 2
#     Edge 66, Type (0, 1), BuildingBlock: CIFDUS_clean_linker_0, # of connection points: 2
#     Edge 67, Type (0, 1), BuildingBlock: CIFDUS_clean_linker_0, # of connection points: 2
#     Edge 68, Type (0, 1), BuildingBlock: CIFDUS_clean_linker_0, # of connection points: 2
#     Edge 69, Type (0, 1), BuildingBlock: CIFDUS_clean_linker_0, # of connection points: 2
#     Edge 70, Type (0, 1), BuildingBlock: CIFDUS_clean_linker_0, # of connection points: 2
#     Edge 71, Type (0, 1), BuildingBlock: CIFDUS_clean_linker_0, # of connection points: 2
#     Edge 72, Type (0, 1), BuildingBlock: CIFDUS_clean_linker_0, # of connection points: 2
#     Edge 73, Type (0, 1), BuildingBlock: CIFDUS_clean_linker_0, # of connection points: 2
#     Edge 74, Type (0, 1), BuildingBlock: CIFDUS_clean_linker_0, # of connection points: 2
#     Edge 75, Type (0, 1), BuildingBlock: CIFDUS_clean_linker_0, # of connection points: 2
#     Edge 76, Type (0, 1), BuildingBlock: CIFDUS_clean_linker_0, # of connection points: 2
#     Edge 77, Type (0, 1), BuildingBlock: CIFDUS_clean_linker_0, # of connection points: 2
#     Edge 78, Type (0, 1), BuildingBlock: CIFDUS_clean_linker_0, # of connection points: 2
#     Edge 79, Type (0, 1), BuildingBlock: CIFDUS_clean_linker_0, # of connection points: 2
#     Edge 80, Type (0, 1), BuildingBlock: CIFDUS_clean_linker_0, # of connection points: 2
#     Edge 81, Type (0, 1), BuildingBlock: CIFDUS_clean_linker_0, # of connection points: 2
#     Edge 82, Type (0, 1), BuildingBlock: CIFDUS_clean_linker_0, # of connection points: 2
#     Edge 83, Type (0, 1), BuildingBlock: CIFDUS_clean_linker_0, # of connection points: 2
#     Edge 84, Type (0, 1), BuildingBlock: CIFDUS_clean_linker_0, # of connection points: 2
#     Edge 85, Type (0, 1), BuildingBlock: CIFDUS_clean_linker_0, # of connection points: 2
#     Edge 86, Type (0, 1), BuildingBlock: CIFDUS_clean_linker_0, # of connection points: 2
#     Edge 87, Type (0, 1), BuildingBlock: CIFDUS_clean_linker_0, # of connection points: 2
#     Edge 88, Type (0, 1), BuildingBlock: CIFDUS_clean_linker_0, # of connection points: 2
#     Edge 89, Type (0, 1), BuildingBlock: CIFDUS_clean_linker_0, # of connection points: 2
#     Edge 90, Type (0, 1), BuildingBlock: CIFDUS_clean_linker_0, # of connection points: 2
#     Edge 91, Type (0, 1), BuildingBlock: CIFDUS_clean_linker_0, # of connection points: 2
#     Edge 92, Type (0, 1), BuildingBlock: CIFDUS_clean_linker_0, # of connection points: 2
#     Edge 93, Type (0, 1), BuildingBlock: CIFDUS_clean_linker_0, # of connection points: 2
#     Edge 94, Type (0, 1), BuildingBlock: CIFDUS_clean_linker_0, # of connection points: 2
#     Edge 95, Type (0, 1), BuildingBlock: CIFDUS_clean_linker_0, # of connection points: 2
#     Edge 96, Type (0, 1), BuildingBlock: CIFDUS_clean_linker_0, # of connection points: 2
#     Edge 97, Type (0, 1), BuildingBlock: CIFDUS_clean_linker_0, # of connection points: 2
#     Edge 98, Type (0, 1), BuildingBlock: CIFDUS_clean_linker_0, # of connection points: 2
#     Edge 99, Type (0, 1), BuildingBlock: CIFDUS_clean_linker_0, # of connection points: 2
#     Edge 100, Type (0, 1), BuildingBlock: CIFDUS_clean_linker_0, # of connection points: 2
#     Edge 101, Type (0, 1), BuildingBlock: CIFDUS_clean_linker_0, # of connection points: 2
#     Edge 102, Type (0, 1), BuildingBlock: CIFDUS_clean_linker_0, # of connection points: 2
#     Edge 103, Type (0, 1), BuildingBlock: CIFDUS_clean_linker_0, # of connection points: 2
#     Edge 104, Type (0, 1), BuildingBlock: CIFDUS_clean_linker_0, # of connection points: 2
#     Edge 105, Type (0, 1), BuildingBlock: CIFDUS_clean_linker_0, # of connection points: 2
#     Edge 106, Type (0, 1), BuildingBlock: CIFDUS_clean_linker_0, # of connection points: 2
#     Edge 107, Type (0, 1), BuildingBlock: CIFDUS_clean_linker_0, # of connection points: 2
#     Edge 108, Type (0, 1), BuildingBlock: CIFDUS_clean_linker_0, # of connection points: 2
#     Edge 109, Type (0, 1), BuildingBlock: CIFDUS_clean_linker_0, # of connection points: 2
#     Edge 110, Type (0, 1), BuildingBlock: CIFDUS_clean_linker_0, # of connection points: 2
#     Edge 111, Type (0, 1), BuildingBlock: CIFDUS_clean_linker_0, # of connection points: 2
#     Edge 112, Type (0, 1), BuildingBlock: CIFDUS_clean_linker_0, # of connection points: 2
#     Edge 113, Type (0, 1), BuildingBlock: CIFDUS_clean_linker_0, # of connection points: 2
#     Edge 114, Type (0, 1), BuildingBlock: CIFDUS_clean_linker_0, # of connection points: 2
#     Edge 115, Type (0, 1), BuildingBlock: CIFDUS_clean_linker_0, # of connection points: 2
#     Edge 116, Type (0, 1), BuildingBlock: CIFDUS_clean_linker_0, # of connection points: 2
#     Edge 117, Type (0, 1), BuildingBlock: CIFDUS_clean_linker_0, # of connection points: 2
#     Edge 118, Type (0, 1), BuildingBlock: CIFDUS_clean_linker_0, # of connection points: 2
#     Edge 119, Type (0, 1), BuildingBlock: CIFDUS_clean_linker_0, # of connection points: 2
#     Edge 120, Type (0, 1), BuildingBlock: CIFDUS_clean_linker_0, # of connection points: 2
#     Edge 121, Type (0, 1), BuildingBlock: CIFDUS_clean_linker_0, # of connection points: 2
#     Edge 122, Type (0, 1), BuildingBlock: CIFDUS_clean_linker_0, # of connection points: 2
#     Edge 123, Type (0, 1), BuildingBlock: CIFDUS_clean_linker_0, # of connection points: 2
#     Edge 124, Type (0, 1), BuildingBlock: CIFDUS_clean_linker_0, # of connection points: 2
#     Edge 125, Type (0, 1), BuildingBlock: CIFDUS_clean_linker_0, # of connection points: 2
#     Edge 126, Type (0, 1), BuildingBlock: CIFDUS_clean_linker_0, # of connection points: 2
#     Edge 127, Type (0, 1), BuildingBlock: CIFDUS_clean_linker_0, # of connection points: 2
#     Edge 128, Type (0, 1), BuildingBlock: CIFDUS_clean_linker_0, # of connection points: 2
#     Edge 129, Type (0, 1), BuildingBlock: CIFDUS_clean_linker_0, # of connection points: 2
#     Edge 130, Type (0, 1), BuildingBlock: CIFDUS_clean_linker_0, # of connection points: 2
#     Edge 131, Type (0, 1), BuildingBlock: CIFDUS_clean_linker_0, # of connection points: 2
#     Edge 132, Type (0, 1), BuildingBlock: CIFDUS_clean_linker_0, # of connection points: 2
#     Edge 133, Type (0, 1), BuildingBlock: CIFDUS_clean_linker_0, # of connection points: 2
#     Edge 134, Type (0, 1), BuildingBlock: CIFDUS_clean_linker_0, # of connection points: 2
#     Edge 135, Type (0, 1), BuildingBlock: CIFDUS_clean_linker_0, # of connection points: 2
# Relax obj value: 0.143
# Max RMSD: 0.333
# Mean RMSD: 0.170
data_MOF--net-gar--node1-GALJAG_clean_sbu_0--node2-KUMBUR_clean_sbu_0--edge1-CIFDUS_clean_linker_0
_symmetry_space_group_name_H-M    P1
_symmetry_Int_Tables_number       1
_symmetry_cell_setting            triclinic
loop_
_symmetry_equiv_pos_as_xyz
'x, y, z'
_cell_length_a     54.840979
_cell_length_b     49.479798
_cell_length_c     49.542786
_cell_angle_alpha  100.27813
_cell_angle_beta   93.74196
_cell_angle_gamma 101.89098
loop_
_atom_site_label
_atom_site_type_symbol
_atom_site_fract_x
_atom_site_fract_y
_atom_site_fract_z
_atom_type_partial_charge
In0 In 0.13013 0.32644 0.39641 0.0
O1 O 0.1511 0.31535 0.35872 0.0
O2 O 0.17261 0.33236 0.3973 0.0
C3 C 0.08809 0.32693 0.36467 0.0
C4 C 0.12179 0.284 0.4248 0.0
C5 C 0.13098 0.37673 0.4287 0.0
O6 O 0.10804 0.34548 0.36725 0.0
O7 O 0.08941 0.30722 0.37737 0.0
O8 O 0.12561 0.35396 0.43732 0.0
O9 O 0.13673 0.3742 0.40436 0.0
C10 C 0.17258 0.3237 0.37183 0.0
O11 O 0.13438 0.30845 0.43536 0.0
O12 O 0.11391 0.2807 0.39958 0.0
In13 In 0.01016 0.76552 0.67484 0.0
O14 O 0.01822 0.779 0.63461 0.0
O15 O 0.02306 0.81166 0.67006 0.0
C16 C 1.00307 0.71098 0.6503 0.0
C17 C 0.0538 0.77103 0.70573 0.0
C18 C 0.96461 0.76813 0.69174 0.0
O19 O 0.99927 0.72986 0.63761 0.0
O20 O 1.00913 0.71933 0.67587 0.0
O21 O 0.98289 0.76768 0.70835 0.0
O22 O 0.96972 0.76841 0.6674 0.0
C23 C 0.02445 0.80501 0.64441 0.0
O24 O 0.03484 0.77725 0.71645 0.0
O25 O 0.05072 0.76327 0.67987 0.0
In26 In 0.6276 0.83483 0.89021 0.0
O27 O 0.64992 0.82086 0.85507 0.0
O28 O 0.67003 0.8396 0.89429 0.0
C29 C 0.58346 0.8268 0.85966 0.0
C30 C 0.61817 0.79644 0.92281 0.0
C31 C 0.63016 0.89026 0.90756 0.0
O32 O 0.60422 0.83344 0.85027 0.0
O33 O 0.58481 0.82283 0.88412 0.0
O34 O 0.6332 0.87441 0.92424 0.0
O35 O 0.62697 0.87841 0.8826 0.0
C36 C 0.67088 0.82931 0.86931 0.0
O37 O 0.62623 0.82246 0.93236 0.0
O38 O 0.61534 0.78969 0.89676 0.0
In39 In 0.51132 0.26264 0.1726 0.0
O40 O 0.50065 0.22789 0.134 0.0
O41 O 0.50968 0.21624 0.17186 0.0
C42 C 0.52815 0.2999 0.14104 0.0
C43 C 0.46733 0.27172 0.18977 0.0
C44 C 0.55197 0.26445 0.20746 0.0
O45 O 0.52381 0.27357 0.13259 0.0
O46 O 0.52441 0.30772 0.16592 0.0
O47 O 0.53034 0.25064 0.20945 0.0
O48 O 0.553 0.27883 0.18877 0.0
C49 C 0.50356 0.20844 0.14634 0.0
O50 O 0.4865 0.27471 0.2064 0.0
O51 O 0.47052 0.26499 0.16481 0.0
In52 In 0.11606 0.82552 0.12521 0.0
O53 O 0.12936 0.78648 0.10079 0.0
O54 O 0.09159 0.78013 0.10816 0.0
C55 C 0.11177 0.87091 0.09741 0.0
C56 C 0.07854 0.82603 0.15932 0.0
C57 C 0.16072 0.82751 0.15758 0.0
O58 O 0.1058 0.84513 0.0859 0.0
O59 O 0.12115 0.87388 0.12199 0.0
O60 O 0.13925 0.82302 0.16594 0.0
O61 O 0.16003 0.83217 0.13319 0.0
C62 C 0.10863 0.76894 0.09843 0.0
O63 O 0.1009 0.83948 0.1666 0.0
O64 O 0.07493 0.81254 0.13474 0.0
In65 In 0.52823 0.77776 0.44106 0.0
O66 O 0.55181 0.77078 0.40389 0.0
O67 O 0.5709 0.79514 0.44153 0.0
C68 C 0.48297 0.77606 0.40948 0.0
C69 C 0.53174 0.72676 0.4595 0.0
C70 C 0.5337 0.83251 0.4715 0.0
O71 O 0.50402 0.77696 0.40034 0.0
O72 O 0.48391 0.77422 0.43471 0.0
O73 O 0.52879 0.81077 0.48226 0.0
O74 O 0.53587 0.82656 0.44607 0.0
C75 C 0.57247 0.78489 0.41665 0.0
O76 O 0.5348 0.75029 0.4759 0.0
O77 O 0.52553 0.72889 0.43508 0.0
In78 In 0.61569 0.32372 0.62568 0.0
O79 O 0.63169 0.28558 0.60486 0.0
O80 O 0.59257 0.27868 0.60162 0.0
C81 C 0.61183 0.37393 0.60567 0.0
C82 C 0.57737 0.31824 0.6588 0.0
C83 C 0.66146 0.3283 0.65661 0.0
O84 O 0.60976 0.35036 0.58957 0.0
O85 O 0.61694 0.37201 0.63034 0.0
O86 O 0.64039 0.32314 0.66588 0.0
O87 O 0.65973 0.33243 0.63205 0.0
C88 C 0.61124 0.26781 0.59737 0.0
O89 O 0.60017 0.32764 0.66791 0.0
O90 O 0.57368 0.31137 0.63282 0.0
In91 In 0.02765 0.27735 0.93844 0.0
O92 O 0.03754 0.25243 0.97461 0.0
O93 O 0.02464 0.22882 0.93516 0.0
C94 C 0.0366 0.3354 0.96044 0.0
C95 C 0.06712 0.28056 0.90669 0.0
C96 C 0.9806 0.2726 0.90941 0.0
O97 O 0.02739 0.31732 0.97446 0.0
O98 O 0.04175 0.32403 0.93735 0.0
O99 O 1.00032 0.26939 0.89873 0.0
O100 O 0.98367 0.27652 0.93553 0.0
C101 C 0.03295 0.22807 0.95932 0.0
O102 O 0.0444 0.27153 0.89708 0.0
O103 O 0.07033 0.28733 0.93275 0.0
In104 In 0.42983 0.056 0.3155 0.0
O105 O 0.46241 0.07035 0.29125 0.0
O106 O 0.43394 0.03465 0.27229 0.0
C107 C 0.4617 0.06607 0.36127 0.0
C108 C 0.40087 0.09245 0.31157 0.0
C109 C 0.39797 1.00624 0.31176 0.0
O110 O 0.46246 0.04798 0.34015 0.0
O111 O 0.44463 0.07957 0.35947 0.0
O112 O 0.39417 0.02424 0.29794 0.0
O113 O 0.41792 1.01339 0.32796 0.0
C114 C 0.45432 0.05103 0.27039 0.0
O115 O 0.39616 0.07382 0.32602 0.0
O116 O 0.42183 0.09485 0.302 0.0
In117 In 0.29647 0.19545 0.51817 0.0
O118 O 0.30316 0.23248 0.55713 0.0
O119 O 0.28633 0.19118 0.56125 0.0
C120 C 0.30027 0.22242 0.47367 0.0
C121 C 0.33806 0.1731 0.52043 0.0
C122 C 0.2507 0.15895 0.50811 0.0
O123 O 0.29901 0.23531 0.49785 0.0
O124 O 0.29973 0.19666 0.47226 0.0
O125 O 0.27114 0.15136 0.51095 0.0
O126 O 0.25316 0.18522 0.50981 0.0
C127 C 0.29414 0.21654 0.57315 0.0
O128 O 0.31838 0.16154 0.50459 0.0
O129 O 0.33732 0.19661 0.53487 0.0
In130 In 0.19343 0.0214 0.78051 0.0
O131 O 0.15505 1.01091 0.74681 0.0
O132 O 0.1869 0.03176 0.7334 0.0
C133 C 0.16484 0.02359 0.83078 0.0
C134 C 0.22191 0.97376 0.78122 0.0
C135 C 0.2257 0.07725 0.78524 0.0
O136 O 0.15746 1.00766 0.80717 0.0
O137 O 0.18633 0.03859 0.82931 0.0
O138 O 0.23297 0.05425 0.78067 0.0
O139 O 0.20265 0.07246 0.78857 0.0
C140 C 0.16353 0.02226 0.7271 0.0
O141 O 0.21942 0.9927 0.8012 0.0
O142 O 0.20986 0.97802 0.76004 0.0
In143 In 0.34143 0.95252 0.02306 0.0
O144 O 0.33504 0.9202 0.05075 0.0
O145 O 0.35865 0.96032 0.06752 0.0
C146 C 0.32582 0.91807 0.97393 0.0
C147 C 0.30661 0.98235 0.03547 0.0
C148 C 0.3877 0.97438 0.0113 0.0
O149 O 0.33338 0.90952 0.99478 0.0
O150 O 0.32485 0.94371 0.9783 0.0
O151 O 0.37202 0.98935 0.01726 0.0
O152 O 0.38019 0.94867 0.0119 0.0
C153 C 0.34858 0.93619 0.07136 0.0
O154 O 0.32787 0.99333 0.02934 0.0
O155 O 0.30265 0.95612 0.03447 0.0
In156 In 0.34156 0.39502 0.04452 0.0
O157 O 0.33233 0.35922 0.07011 0.0
O158 O 0.34409 0.40105 0.09217 0.0
C159 C 0.33783 0.36562 0.99104 0.0
C160 C 0.29911 0.41584 0.04116 0.0
C161 C 0.39082 0.42311 0.04835 0.0
O162 O 0.33828 0.35396 0.01181 0.0
O163 O 0.33901 0.39177 0.99723 0.0
O164 O 0.37338 0.4358 0.05368 0.0
O165 O 0.38352 0.39664 0.04211 0.0
C166 C 0.33658 0.37548 0.09351 0.0
O167 O 0.32077 0.43156 0.04336 0.0
O168 O 0.29916 0.39029 0.04065 0.0
In169 In 0.78858 0.13714 0.04184 0.0
O170 O 0.80118 0.09635 0.04578 0.0
O171 O 0.82563 0.12748 0.03008 0.0
C172 C 0.74185 0.11538 0.05205 0.0
C173 C 0.80085 0.18291 0.08252 0.0
C174 C 0.78037 0.15551 0.99506 0.0
O175 O 0.75073 0.10703 0.02997 0.0
O176 O 0.75741 0.13271 0.07013 0.0
O177 O 0.8002 0.16566 0.01116 0.0
O178 O 0.76584 0.13509 1.00167 0.0
C179 C 0.82183 0.10352 0.03635 0.0
O180 O 0.78832 0.18238 0.06016 0.0
O181 O 0.80783 0.16039 0.08425 0.0
In182 In 0.22601 0.54606 0.23967 0.0
O183 O 0.25853 0.52579 0.22737 0.0
O184 O 0.22589 0.50027 0.23801 0.0
C185 C 0.25432 0.59802 0.25724 0.0
C186 C 0.19825 0.54299 0.1929 0.0
C187 C 0.19561 0.55084 0.27976 0.0
O188 O 0.25796 0.57755 0.26776 0.0
O189 O 0.23766 0.59177 0.23699 0.0
O190 O 0.18868 0.54879 0.25469 0.0
O191 O 0.21803 0.54924 0.28494 0.0
C192 C 0.24752 0.50172 0.23055 0.0
O193 O 0.19206 0.52656 0.20925 0.0
O194 O 0.21962 0.55943 0.19905 0.0
In195 In 0.8385 0.89442 0.54394 0.0
O196 O 0.83182 0.85392 0.56278 0.0
O197 O 0.83455 0.89283 0.58998 0.0
C198 C 0.8385 0.87702 0.48813 0.0
C199 C 0.79484 0.91264 0.54073 0.0
C200 C 0.88717 0.92479 0.55242 0.0
O201 O 0.83701 0.8596 0.50422 0.0
O202 O 0.83987 0.90201 0.5003 0.0
O203 O 0.8686 0.9363 0.55334 0.0
O204 O 0.88123 0.89823 0.54884 0.0
C205 C 0.83093 0.86638 0.58726 0.0
O206 O 0.81545 0.92912 0.55117 0.0
O207 O 0.79638 0.88739 0.53285 0.0
In208 In 0.95272 0.07873 0.28416 0.0
O209 O 0.98744 0.08858 0.25423 0.0
O210 O 0.9553 0.06057 0.23494 0.0
C211 C 0.98259 0.081 0.33837 0.0
C212 C 0.92741 0.129 0.28456 0.0
C213 C 0.92447 0.02045 0.27933 0.0
O214 O 0.99145 0.08717 0.3165 0.0
O215 O 0.95889 0.07583 0.33392 0.0
O216 O 0.94792 0.02955 0.28448 0.0
O217 O 0.91427 0.04055 0.27543 0.0
C218 C 0.9772 0.07308 0.23126 0.0
O219 O 0.91969 0.10772 0.29544 0.0
O220 O 0.94734 0.12513 0.27421 0.0
In221 In 0.29995 0.64535 0.53341 0.0
O222 O 0.31159 0.60273 0.52704 0.0
O223 O 0.3397 0.6406 0.53894 0.0
C224 C 0.24986 0.63571 0.53074 0.0
C225 C 0.30503 0.67454 0.58492 0.0
C226 C 0.30579 0.66555 0.48711 0.0
O227 O 0.26133 0.61583 0.53025 0.0
O228 O 0.26367 0.65971 0.5319 0.0
O229 O 0.31664 0.67903 0.51032 0.0
O230 O 0.29293 0.64125 0.48714 0.0
C231 C 0.33469 0.6141 0.53263 0.0
O232 O 0.31142 0.68604 0.56489 0.0
O233 O 0.29745 0.64807 0.57908 0.0
In234 In 0.45051 0.57637 0.78202 0.0
O235 O 0.41619 0.60397 0.78895 0.0
O236 O 0.44749 0.62484 0.77518 0.0
C237 C 0.41705 0.52119 0.77855 0.0
C238 C 0.47417 0.57134 0.72862 0.0
C239 C 0.48143 0.57477 0.83461 0.0
O240 O 0.41123 0.54472 0.78596 0.0
O241 O 0.43901 0.52512 0.77138 0.0
O242 O 0.48773 0.57057 0.81026 0.0
O243 O 0.46064 0.58219 0.83321 0.0
C244 C 0.42577 0.627 0.78179 0.0
O245 O 0.48437 0.58732 0.75139 0.0
O246 O 0.45246 0.55845 0.7326 0.0
In247 In 0.72562 0.0465 0.74322 0.0
O248 O 0.7627 0.03217 0.74286 0.0
O249 O 0.72912 1.00112 0.73962 0.0
C250 C 0.74666 0.10141 0.74657 0.0
C251 C 0.69269 0.03485 0.69842 0.0
C252 C 0.70093 0.04792 0.78845 0.0
O253 O 0.7561 0.08616 0.76021 0.0
O254 O 0.72775 0.08852 0.72999 0.0
O255 O 0.69288 0.031 0.76608 0.0
O256 O 0.72256 0.06284 0.78889 0.0
C257 C 0.75264 1.00655 0.74112 0.0
O258 O 0.68707 0.04167 0.72256 0.0
O259 O 0.71557 0.03438 0.69652 0.0
In260 In 0.79861 0.69745 0.016 0.0
O261 O 0.81619 0.65888 0.01247 0.0
O262 O 0.84035 0.69928 0.02679 0.0
C263 C 0.74953 0.66915 1.0072 0.0
C264 C 0.80122 0.71861 0.07181 0.0
C265 C 0.80622 0.71971 0.96884 0.0
O266 O 0.76731 0.65675 1.00303 0.0
O267 O 0.7565 0.69557 0.0144 0.0
O268 O 0.79679 0.7319 0.98895 0.0
O269 O 0.81204 0.69732 0.97285 0.0
C270 C 0.83822 0.67285 0.02121 0.0
O271 O 0.80685 0.73498 0.05501 0.0
O272 O 0.79449 0.69304 0.06026 0.0
In273 In 0.92815 0.55259 0.82117 0.0
O274 O 0.89213 0.55333 0.79714 0.0
O275 O 0.91304 0.59213 0.82148 0.0
C276 C 0.90721 0.50099 0.82853 0.0
C277 C 0.95251 0.54822 0.776 0.0
C278 C 0.95735 0.57479 0.86871 0.0
O279 O 0.89463 0.51942 0.82686 0.0
O280 O 0.93047 0.50906 0.82776 0.0
O281 O 0.96591 0.56996 0.8458 0.0
O282 O 0.93374 0.56965 0.86756 0.0
C283 C 0.89415 0.57946 0.8046 0.0
O284 O 0.95108 0.57171 0.78984 0.0
O285 O 0.94193 0.52714 0.78515 0.0
In286 In 0.84037 0.44681 0.53181 0.0
O287 O 0.82216 0.41307 0.55474 0.0
O288 O 0.85317 0.44505 0.57553 0.0
C289 C 0.82626 0.41146 0.48323 0.0
C290 C 0.81506 0.48818 0.54285 0.0
C291 C 0.88886 0.45974 0.52262 0.0
O292 O 0.82029 0.40422 0.50553 0.0
O293 O 0.83737 0.4369 0.48551 0.0
O294 O 0.87475 0.47686 0.52216 0.0
O295 O 0.87877 0.43665 0.52871 0.0
C296 C 0.83697 0.42318 0.57646 0.0
O297 O 0.83476 0.48775 0.55707 0.0
O298 O 0.80795 0.46772 0.52282 0.0
In299 In 0.69341 0.52169 0.27907 0.0
O300 O 0.72731 0.49733 0.29377 0.0
O301 O 0.70312 0.47451 0.26076 0.0
C302 C 0.72068 0.58005 0.28313 0.0
C303 C 0.66444 0.52127 0.22475 0.0
C304 C 0.665 0.5224 0.3297 0.0
O305 O 0.73139 0.55954 0.28284 0.0
O306 O 0.69725 0.57132 0.28226 0.0
O307 O 0.65761 0.50708 0.30584 0.0
O308 O 0.68665 0.53714 0.32852 0.0
C309 C 0.7222 0.47391 0.27668 0.0
O310 O 0.65519 0.51388 0.246 0.0
O311 O 0.68816 0.52722 0.22994 0.0
Tb312 Tb 0.04847 0.03262 0.01755 0.0
C313 C 0.11584 0.13469 0.0911 0.0
C314 C 0.11987 0.16996 0.06269 0.0
C315 C 0.12551 0.18441 0.11259 0.0
C316 C 0.11473 0.14147 0.06541 0.0
C317 C 0.12204 0.15606 0.11504 0.0
C318 C 0.12442 0.19135 0.08641 0.0
C319 C 0.12458 0.12015 0.14157 0.0
N320 N 0.1133 0.10718 0.09245 0.0
C321 C 0.11867 0.09979 0.11722 0.0
C322 C 0.12585 0.14839 0.14055 0.0
Tb323 Tb 0.10343 0.07493 0.05148 0.0
N324 N 0.11092 0.12018 0.04311 0.0
C325 C 0.11458 0.12631 0.01755 0.0
C326 C 0.12157 0.17611 0.03633 0.0
C327 C 0.11938 0.15417 0.01372 0.0
H328 H 0.11787 0.07809 0.11848 0.0
H329 H 0.12139 0.15868 0.99329 0.0
H330 H 0.12813 0.21333 0.08472 0.0
H331 H 0.12819 0.11403 0.1611 0.0
H332 H 0.11301 0.10988 0.99965 0.0
H333 H 0.02847 0.95347 0.08097 0.0
H334 H 0.12547 0.19768 0.03334 0.0
H335 H 0.03722 0.02663 0.94986 0.0
H336 H 0.04084 1.00096 0.07229 0.0
H337 H 0.02488 0.98893 0.90858 0.0
H338 H 0.13004 0.20112 0.13073 0.0
H339 H 0.01901 0.91253 0.04228 0.0
H340 H 0.01365 0.89415 0.99127 0.0
H341 H 0.13069 0.16416 0.15941 0.0
H342 H 0.01292 0.90377 0.94423 0.0
N343 N 0.03953 0.98829 0.02842 0.0
C344 C 0.03696 0.98384 0.05477 0.0
C345 C 0.02462 0.93359 0.03816 0.0
C346 C 0.02595 0.93809 0.01121 0.0
C347 C 0.02987 0.95662 0.06001 0.0
C348 C 0.03335 0.966 1.00698 0.0
H349 H 0.01696 0.93902 0.91321 0.0
N350 N 0.03797 0.99857 0.97783 0.0
C351 C 0.02716 0.98363 0.92873 0.0
C352 C 0.03281 0.97134 0.98071 0.0
C353 C 0.03419 1.00495 0.95226 0.0
C354 C 0.0228 0.95552 0.93141 0.0
C355 C 0.02507 0.94905 0.95767 0.0
O356 O 0.01763 0.04225 0.99671 0.0
O357 O 0.06771 0.07672 0.03176 0.0
O358 O 0.07572 0.08209 0.08267 0.0
O359 O 0.04225 0.04542 0.06337 0.0
O360 O 0.0516 0.06511 0.99215 0.0
O361 O 0.01425 0.02786 0.03505 0.0
O362 O 0.13434 0.0633 0.07016 0.0
O363 O 0.08463 0.02993 0.03725 0.0
O364 O 0.07622 0.02664 0.98537 0.0
O365 O 0.10914 0.06321 1.00594 0.0
O366 O 0.09827 0.04382 0.07742 0.0
O367 O 0.13812 0.08379 0.03549 0.0
C368 C 0.063 0.08667 0.01025 0.0
C369 C 0.97694 0.0221 1.00582 0.0
C370 C 0.9333 0.02588 1.00192 0.0
C371 C 0.95862 0.03765 0.01125 0.0
C372 C 0.92644 0.99782 0.98746 0.0
C373 C 0.97002 0.99423 0.99121 0.0
C374 C 0.94477 0.98213 0.98215 0.0
C375 C 0.0534 0.0658 0.08504 0.0
C376 C 1.00298 0.03634 0.01534 0.0
C377 C 0.01883 0.92116 0.96165 0.0
C378 C 0.01923 0.91569 0.98841 0.0
C379 C 0.08867 0.02116 0.05984 0.0
C380 C 0.17446 0.08944 0.06594 0.0
C381 C 0.19433 0.07597 0.06244 0.0
C382 C 0.21889 0.09001 0.07312 0.0
C383 C 0.22338 0.11807 0.08741 0.0
C384 C 0.17902 0.11741 0.08027 0.0
C385 C 0.20345 0.13162 0.09103 0.0
C386 C 0.09855 0.04338 0.98373 0.0
C387 C 0.1495 0.0735 0.05367 0.0
H388 H 0.9642 0.05913 0.02281 0.0
H389 H 0.90707 0.98823 0.9798 0.0
H390 H 0.98399 0.98198 0.98677 0.0
H391 H 0.9394 0.96063 0.97077 0.0
H392 H 0.19066 0.05452 0.05079 0.0
H393 H 0.24217 0.12937 0.09589 0.0
H394 H 0.16391 0.12827 0.08293 0.0
H395 H 0.20697 0.15322 0.1021 0.0
Tb396 Tb 0.32778 0.79119 0.26682 0.0
C397 C 0.30746 0.88408 0.33594 0.0
C398 C 0.3434 0.90601 0.36928 0.0
C399 C 0.32032 0.93533 0.34866 0.0
C400 C 0.32701 0.88156 0.35347 0.0
C401 C 0.30347 0.91109 0.33398 0.0
C402 C 0.34032 0.93279 0.36622 0.0
C403 C 0.2648 0.88855 0.30602 0.0
N404 N 0.29165 0.86015 0.32184 0.0
C405 C 0.26935 0.86244 0.30903 0.0
C406 C 0.28227 0.91303 0.31797 0.0
Tb407 Tb 0.30106 0.81752 0.32772 0.0
N408 N 0.3293 0.85527 0.35604 0.0
C409 C 0.34574 0.85271 0.37716 0.0
C410 C 0.36204 0.90292 0.38826 0.0
C411 C 0.36283 0.87614 0.39264 0.0
H412 H 0.25404 0.84461 0.30203 0.0
H413 H 0.37614 0.87355 0.40857 0.0
H414 H 0.35295 0.95167 0.37788 0.0
H415 H 0.24738 0.88976 0.29519 0.0
H416 H 0.34554 0.83294 0.3834 0.0
H417 H 0.25161 0.73471 0.18702 0.0
H418 H 0.37506 0.9211 0.40059 0.0
H419 H 0.37859 0.76664 0.28531 0.0
H420 H 0.28133 0.77564 0.21249 0.0
H421 H 0.38935 0.72205 0.28759 0.0
H422 H 0.31774 0.95614 0.34702 0.0
H423 H 0.25641 0.68709 0.19099 0.0
H424 H 0.28261 0.65718 0.20862 0.0
H425 H 0.27856 0.9333 0.31594 0.0
H426 H 0.32023 0.65365 0.23621 0.0
N427 N 0.30037 0.75321 0.23744 0.0
C428 C 0.28262 0.75575 0.21762 0.0
C429 C 0.2689 0.70537 0.20385 0.0
C430 C 0.28896 0.70258 0.22108 0.0
C431 C 0.26603 0.73215 0.20173 0.0
C432 C 0.30442 0.72709 0.23794 0.0
H433 H 0.35975 0.67753 0.26616 0.0
N434 N 0.34039 0.74914 0.26823 0.0
C435 C 0.37087 0.72238 0.27871 0.0
C436 C 0.32521 0.72501 0.25375 0.0
C437 C 0.36407 0.74799 0.27834 0.0
C438 C 0.35425 0.69739 0.26644 0.0
C439 C 0.33157 0.6985 0.25272 0.0
O440 O 0.36579 0.80284 0.2616 0.0
O441 O 0.32931 0.82642 0.30039 0.0
O442 O 0.27286 0.80795 0.29061 0.0
O443 O 0.29481 0.80632 0.25202 0.0
O444 O 0.3288 0.83376 0.26067 0.0
O445 O 0.33788 0.79186 0.22656 0.0
O446 O 0.26312 0.81165 0.33477 0.0
O447 O 0.30027 0.78217 0.29469 0.0
O448 O 0.35439 0.79566 0.30479 0.0
O449 O 0.33286 0.80157 0.34362 0.0
O450 O 0.29779 0.77424 0.33383 0.0
O451 O 0.292 0.81998 0.36855 0.0
C452 C 0.33075 0.8454 0.28632 0.0
C453 C 0.37484 0.82684 0.22539 0.0
C454 C 0.37708 0.86066 0.19471 0.0
C455 C 0.36357 0.83766 0.20461 0.0
C456 C 0.4019 0.87294 0.20625 0.0
C457 C 0.39966 0.83947 0.23647 0.0
C458 C 0.41299 0.86248 0.22707 0.0
C459 C 0.27417 0.8087 0.26394 0.0
C460 C 0.36149 0.80203 0.23536 0.0
C461 C 0.31577 0.6741 0.23693 0.0
C462 C 0.29442 0.67612 0.22119 0.0
C463 C 0.29816 0.76291 0.30842 0.0
C464 C 0.25224 0.7928 0.37359 0.0
C465 C 0.2615 0.77079 0.38169 0.0
C466 C 0.24622 0.75067 0.39357 0.0
C467 C 0.2214 0.75281 0.39719 0.0
C468 C 0.22749 0.79468 0.37737 0.0
C469 C 0.21215 0.77473 0.38911 0.0
C470 C 0.3529 0.79652 0.33171 0.0
C471 C 0.26798 0.81403 0.36118 0.0
H472 H 0.34437 0.82818 0.19611 0.0
H473 H 0.41308 0.8902 0.19871 0.0
H474 H 0.40885 0.83141 0.25234 0.0
H475 H 0.43215 0.87196 0.23563 0.0
H476 H 0.28063 0.76937 0.37892 0.0
H477 H 0.20934 0.738 0.40688 0.0
H478 H 0.22008 0.81164 0.37129 0.0
H479 H 0.19311 0.77639 0.39217 0.0
Tb480 Tb 0.59958 0.04906 0.52334 0.0
C481 C 0.51344 1.00307 0.57873 0.0
C482 C 0.49305 0.96366 0.54256 0.0
C483 C 0.48943 0.96053 0.59059 0.0
C484 C 0.50824 0.99101 0.55108 0.0
C485 C 0.50335 0.98839 0.5988 0.0
C486 C 0.48434 0.94815 0.56249 0.0
C487 C 0.51853 0.03112 0.63296 0.0
N488 N 0.52657 0.03015 0.58574 0.0
C489 C 0.52797 0.04484 0.61222 0.0
C490 C 0.50657 1.00262 0.62631 0.0
Tb491 Tb 0.54148 0.05052 0.55025 0.0
N492 N 0.5165 1.00694 0.53252 0.0
C493 C 0.50861 0.99753 0.50506 0.0
C494 C 0.48622 0.95325 0.51432 0.0
C495 C 0.49362 0.97049 0.49554 0.0
H496 H 0.53723 0.06689 0.61741 0.0
H497 H 0.48789 0.96296 0.47371 0.0
H498 H 0.47287 0.92699 0.55636 0.0
H499 H 0.52041 0.04256 0.65403 0.0
H500 H 0.51402 1.01061 0.49035 0.0
H501 H 0.67314 0.11671 0.60014 0.0
H502 H 0.47459 0.93234 0.5069 0.0
H503 H 0.59491 0.05307 0.45545 0.0
H504 H 0.64536 0.07223 0.57766 0.0
H505 H 0.60007 0.09015 0.42838 0.0
H506 H 0.48177 0.94875 0.60572 0.0
H507 H 0.67593 0.15893 0.57939 0.0
H508 H 0.66378 0.18006 0.53963 0.0
H509 H 0.49906 0.99212 0.64237 0.0
H510 H 0.64291 0.17299 0.49266 0.0
N511 N 0.62928 0.08897 0.54533 0.0
C512 C 0.64492 0.09046 0.56867 0.0
C513 C 0.66303 0.13943 0.56957 0.0
C514 C 0.64894 0.13726 0.54446 0.0
C515 C 0.66142 0.11571 0.58139 0.0
C516 C 0.63238 0.11133 0.53253 0.0
H517 H 0.61945 0.13937 0.45073 0.0
N518 N 0.60773 0.08109 0.49435 0.0
C519 C 0.60551 0.0955 0.45041 0.0
C520 C 0.62076 0.10737 0.50623 0.0
C521 C 0.60215 0.07452 0.46619 0.0
C522 C 0.61642 0.12321 0.46308 0.0
C523 C 0.62519 0.12924 0.49108 0.0
O524 O 0.61191 0.02606 0.48871 0.0
O525 O 0.56218 0.0235 0.52527 0.0
O526 O 0.5641 0.03711 0.58132 0.0
O527 O 0.60376 0.05018 0.56729 0.0
O528 O 0.59207 1.00723 0.53416 0.0
O529 O 0.6338 0.03609 0.52883 0.0
O530 O 0.52396 0.08193 0.56961 0.0
O531 O 0.57541 0.07671 0.53993 0.0
O532 O 0.56954 0.0396 0.48931 0.0
O533 O 0.54151 0.06301 0.51029 0.0
O534 O 0.5643 0.08815 0.57784 0.0
O535 O 0.50693 0.05449 0.53178 0.0
C536 C 0.56802 1.00112 0.53067 0.0
C537 C 0.65046 1.00836 0.49125 0.0
C538 C 0.68529 0.98458 0.49603 0.0
C539 C 0.66931 1.00139 0.50805 0.0
C540 C 0.68255 0.97555 0.46724 0.0
C541 C 0.64842 0.99904 0.46255 0.0
C542 C 0.66441 0.98288 0.4507 0.0
C543 C 0.58871 0.04129 0.58503 0.0
C544 C 0.63166 0.02343 0.5032 0.0
C545 C 0.63969 0.15584 0.50381 0.0
C546 C 0.65163 0.15983 0.53049 0.0
C547 C 0.5803 0.09638 0.56138 0.0
C548 C 0.47981 0.07425 0.56078 0.0
C549 C 0.46598 0.09403 0.55497 0.0
C550 C 0.44239 0.09387 0.56473 0.0
C551 C 0.43276 0.07376 0.58024 0.0
C552 C 0.46961 0.05406 0.57593 0.0
C553 C 0.44625 0.05391 0.58566 0.0
C554 C 0.55089 0.05264 0.48803 0.0
C555 C 0.50479 0.07518 0.55099 0.0
H556 H 0.67101 1.00815 0.53027 0.0
H557 H 0.69465 0.96287 0.45744 0.0
H558 H 0.63421 1.00395 0.44917 0.0
H559 H 0.66257 0.97575 0.42854 0.0
H560 H 0.47361 0.10961 0.5431 0.0
H561 H 0.41467 0.07328 0.58795 0.0
H562 H 0.4796 0.03844 0.58027 0.0
H563 H 0.43857 0.03833 0.59744 0.0
Tb564 Tb 0.29082 0.30963 0.78171 0.0
C565 C 0.36922 0.25977 0.82659 0.0
C566 C 0.38657 0.29617 0.86647 0.0
C567 C 0.38643 0.24731 0.86794 0.0
C568 C 0.37452 0.28759 0.83935 0.0
C569 C 0.37606 0.23934 0.84024 0.0
C570 C 0.39164 0.27574 0.88109 0.0
C571 C 0.36594 0.20612 0.79689 0.0
N572 N 0.3599 0.25329 0.79968 0.0
C573 C 0.35973 0.2273 0.78426 0.0
C574 C 0.37363 0.212 0.82516 0.0
Tb575 Tb 0.34932 0.28904 0.78073 0.0
N576 N 0.36993 0.30653 0.82417 0.0
C577 C 0.37881 0.33471 0.83419 0.0
C578 C 0.39419 0.32501 0.87751 0.0
C579 C 0.39078 0.34437 0.86105 0.0
H580 H 0.35373 0.22263 0.76238 0.0
H581 H 0.39718 0.36674 0.86909 0.0
H582 H 0.40056 0.28183 0.90209 0.0
H583 H 0.36484 0.18532 0.78479 0.0
H584 H 0.37617 0.34992 0.82183 0.0
H585 H 0.23219 0.2317 0.69811 0.0
H586 H 0.40348 0.33252 0.89828 0.0
H587 H 0.29041 0.37949 0.7943 0.0
H588 H 0.25187 0.24899 0.74499 0.0
H589 H 0.28646 0.41537 0.76696 0.0
H590 H 0.39149 0.23189 0.87897 0.0
H591 H 0.2343 0.26352 0.6648 0.0
H592 H 0.24611 0.31256 0.65605 0.0
H593 H 0.37869 0.19567 0.83485 0.0
H594 H 0.26139 0.36315 0.6749 0.0
N595 N 0.26783 0.29077 0.73908 0.0
C596 C 0.25417 0.26352 0.73113 0.0
C597 C 0.24351 0.27142 0.68558 0.0
C598 C 0.25527 0.29979 0.69441 0.0
C599 C 0.2423 0.25343 0.7043 0.0
C600 C 0.26703 0.30902 0.72173 0.0
H601 H 0.27581 0.40175 0.71644 0.0
N602 N 0.28413 0.34539 0.75942 0.0
C603 C 0.28372 0.39354 0.7568 0.0
C604 C 0.27573 0.33736 0.73223 0.0
C605 C 0.28595 0.37294 0.7722 0.0
C606 C 0.27783 0.3858 0.72832 0.0
C607 C 0.27278 0.35732 0.71582 0.0
O608 O 0.27427 0.3353 0.81075 0.0
O609 O 0.32614 0.31168 0.80589 0.0
O610 O 0.32155 0.25138 0.78944 0.0
O611 O 0.28337 0.26299 0.77961 0.0
O612 O 0.29407 0.29775 0.82192 0.0
O613 O 0.25384 0.29431 0.7896 0.0
O614 O 0.36992 0.27322 0.74908 0.0
O615 O 0.31818 0.29624 0.75541 0.0
O616 O 0.32115 0.34997 0.78689 0.0
O617 O 0.35572 0.33311 0.77309 0.0
O618 O 0.33055 0.25982 0.74368 0.0
O619 O 0.38558 0.31173 0.77687 0.0
C620 C 0.31782 0.30454 0.82754 0.0
C621 C 0.22925 0.32569 0.80827 0.0
C622 C 0.18811 0.32383 0.82618 0.0
C623 C 0.212 0.31707 0.82686 0.0
C624 C 0.18219 0.33993 0.80697 0.0
C625 C 0.22257 0.34138 0.78923 0.0
C626 C 0.19927 0.34863 0.7888 0.0
C627 C 0.29645 0.2443 0.78516 0.0
C628 C 0.25329 0.31645 0.80798 0.0
C629 C 0.2633 0.34814 0.68793 0.0
C630 C 0.25455 0.31935 0.67723 0.0
C631 C 0.31506 0.2742 0.73663 0.0
C632 C 0.41438 0.28608 0.75787 0.0
C633 C 0.43167 0.29283 0.73871 0.0
C634 C 0.45584 0.28682 0.7411 0.0
C635 C 0.46196 0.27338 0.76256 0.0
C636 C 0.4214 0.27316 0.77919 0.0
C637 C 0.44491 0.26667 0.78135 0.0
C638 C 0.34437 0.35452 0.77903 0.0
C639 C 0.38957 0.29362 0.75627 0.0
H640 H 0.21691 0.30446 0.84126 0.0
H641 H 0.16431 0.34597 0.80608 0.0
H642 H 0.23518 0.34774 0.77449 0.0
H643 H 0.1943 0.36088 0.77409 0.0
H644 H 0.42652 0.30328 0.72246 0.0
H645 H 0.47997 0.2678 0.76477 0.0
H646 H 0.40883 0.26827 0.79437 0.0
H647 H 0.45003 0.2565 0.79782 0.0
Tb648 Tb 0.06261 0.08182 0.54953 0.0
C649 C 0.09393 1.00339 0.46289 0.0
C650 C 0.0592 0.99561 0.42764 0.0
C651 C 0.10045 0.99175 0.4145 0.0
C652 C 0.06914 1.00288 0.45561 0.0
C653 C 0.10975 0.99703 0.44248 0.0
C654 C 0.07518 0.99102 0.40708 0.0
C655 C 0.14151 0.99769 0.47888 0.0
N656 N 0.10197 1.00794 0.49014 0.0
C657 C 0.12498 1.00357 0.49832 0.0
C658 C 0.13403 0.9949 0.45085 0.0
Tb659 Tb 0.07369 0.01851 0.52037 0.0
N660 N 0.05427 1.00682 0.47611 0.0
C661 C 0.0288 1.00092 0.47008 0.0
C662 C 0.03332 0.99163 0.4213 0.0
C663 C 0.01799 0.99353 0.44265 0.0
H664 H 0.13089 1.00535 0.51989 0.0
H665 H 0.99786 0.98952 0.43803 0.0
H666 H 0.06797 0.98576 0.38546 0.0
H667 H 0.15996 0.99514 0.48552 0.0
H668 H 0.01676 1.00227 0.48638 0.0
H669 H 0.15396 0.14443 0.59914 0.0
H670 H 0.02491 0.98594 0.40009 0.0
H671 H 0.01026 0.06349 0.58127 0.0
H672 H 0.1204 0.12803 0.5618 0.0
H673 H 1.00023 0.05277 0.62574 0.0
H674 H 0.11237 0.98711 0.39848 0.0
H675 H 0.14808 0.13246 0.64487 0.0
H676 H 0.11977 0.10987 0.67582 0.0
H677 H 0.14678 0.99004 0.43582 0.0
H678 H 0.07812 0.08414 0.68291 0.0
N679 N 0.09561 0.10243 0.58394 0.0
C680 C 0.11747 0.12047 0.58068 0.0
C681 C 0.13319 0.12428 0.62812 0.0
C682 C 0.11019 0.10823 0.63232 0.0
C683 C 0.13664 0.13086 0.60231 0.0
C684 C 0.09141 0.09784 0.60972 0.0
H685 H 0.03356 0.06261 0.66442 0.0
N686 N 0.05008 0.07452 0.59186 0.0
C687 C 0.01955 0.06053 0.62252 0.0
C688 C 0.06806 0.08307 0.61369 0.0
C689 C 0.02563 0.06572 0.5967 0.0
C690 C 0.03835 0.06631 0.64431 0.0
C691 C 0.06279 0.0787 0.64036 0.0
O692 O 0.03134 0.10054 0.55209 0.0
O693 O 0.05275 0.05049 0.5105 0.0
O694 O 0.10508 0.04879 0.50949 0.0
O695 O 0.09703 0.09143 0.53035 0.0
O696 O 0.06357 0.09105 0.50709 0.0
O697 O 0.06861 0.12597 0.55872 0.0
O698 O 0.08387 0.98771 0.54044 0.0
O699 O 0.07581 0.0455 0.56199 0.0
O700 O 0.02569 0.05235 0.5393 0.0
O701 O 0.03791 1.0106 0.53833 0.0
O702 O 0.10649 0.03018 0.55164 0.0
O703 O 0.05313 0.97645 0.50883 0.0
C704 C 0.05494 0.06638 0.49185 0.0
C705 C 0.03745 0.14388 0.53685 0.0
C706 C 0.04557 0.17268 0.50168 0.0
C707 C 0.05382 0.15617 0.51923 0.0
C708 C 0.0211 0.17709 0.50211 0.0
C709 C 0.01319 0.14888 0.53705 0.0
C710 C 1.00511 0.1654 0.5198 0.0
C711 C 0.11094 0.07654 0.51623 0.0
C712 C 0.04498 0.12589 0.55526 0.0
C713 C 0.08176 0.08776 0.66247 0.0
C714 C 0.10542 0.1025 0.65845 0.0
C715 C 0.09796 0.04362 0.57232 0.0
C716 C 0.07198 0.93993 0.5188 0.0
C717 C 0.06448 0.92023 0.53534 0.0
C718 C 0.06994 0.89342 0.52974 0.0
C719 C 0.08286 0.88648 0.50674 0.0
C720 C 0.08473 0.93281 0.49592 0.0
C721 C 0.09013 0.90608 0.48995 0.0
C722 C 0.02041 0.02524 0.54025 0.0
C723 C 0.06616 0.96762 0.52672 0.0
H724 H 0.07268 0.15267 0.51885 0.0
H725 H 0.01445 0.18992 0.48893 0.0
H726 H 1.00043 0.13992 0.55058 0.0
H727 H 0.98636 0.16914 0.52012 0.0
H728 H 0.05404 0.92585 0.55255 0.0
H729 H 0.08758 0.86608 0.50189 0.0
H730 H 0.09044 0.94774 0.48278 0.0
H731 H 0.10006 0.90057 0.47233 0.0
Tb732 Tb 0.35149 0.82128 0.77175 0.0
C733 C 0.28682 0.74631 0.83518 0.0
C734 C 0.29233 0.69919 0.8183 0.0
C735 C 0.28058 0.7115 0.86457 0.0
C736 C 0.29284 0.72693 0.81457 0.0
C737 C 0.28034 0.73878 0.86036 0.0
C738 C 0.28651 0.69171 0.84354 0.0
C739 C 0.27215 0.785 0.87457 0.0
N740 N 0.28645 0.77231 0.83014 0.0
C741 C 0.27835 0.79133 0.84913 0.0
C742 C 0.27332 0.75869 0.88031 0.0
Tb743 Tb 0.29743 0.78074 0.78782 0.0
N744 N 0.29838 0.73499 0.79051 0.0
C745 C 0.30281 0.71571 0.76892 0.0
C746 C 0.29728 0.67968 0.79642 0.0
C747 C 0.30234 0.68794 0.77154 0.0
H748 H 0.27726 0.8118 0.84526 0.0
H749 H 0.30615 0.67302 0.75442 0.0
H750 H 0.28619 0.67059 0.84686 0.0
H751 H 0.2664 0.80044 0.88972 0.0
H752 H 0.30719 0.72151 0.74963 0.0
H753 H 0.33691 0.92742 0.79839 0.0
H754 H 0.29705 0.65818 0.79845 0.0
H755 H 0.37803 0.79181 0.71824 0.0
H756 H 0.34147 0.88138 0.80719 0.0
H757 H 0.38923 0.80158 0.67336 0.0
H758 H 0.27577 0.70536 0.88381 0.0
H759 H 0.34194 0.93868 0.75213 0.0
H760 H 0.35319 0.92446 0.70409 0.0
H761 H 0.26833 0.75377 0.89996 0.0
H762 H 0.3678 0.89028 0.67008 0.0
N763 N 0.34786 0.86552 0.76594 0.0
C764 C 0.34348 0.88561 0.78677 0.0
C765 C 0.34375 0.9182 0.75579 0.0
C766 C 0.34983 0.89834 0.73503 0.0
C767 C 0.34099 0.91196 0.78193 0.0
C768 C 0.3519 0.87197 0.7409 0.0
H769 H 0.38177 0.84464 0.65866 0.0
N770 N 0.36335 0.82862 0.7293 0.0
C771 C 0.38095 0.81616 0.68678 0.0
C772 C 0.36021 0.85294 0.72193 0.0
C773 C 0.37448 0.8107 0.71245 0.0
C774 C 0.37666 0.84044 0.67851 0.0
C775 C 0.36653 0.85943 0.69633 0.0
O776 O 0.38871 0.81677 0.77671 0.0
O777 O 0.33795 0.78109 0.78618 0.0
O778 O 0.32275 0.79334 0.82539 0.0
O779 O 0.34315 0.8345 0.81423 0.0
O780 O 0.3633 0.78049 0.75919 0.0
O781 O 0.37836 0.85363 0.79803 0.0
O782 O 0.26097 0.78766 0.78612 0.0
O783 O 0.3108 0.8207 0.77304 0.0
O784 O 0.32802 0.8065 0.73288 0.0
O785 O 0.30427 0.76736 0.74502 0.0
O786 O 0.28718 0.82214 0.80202 0.0
O787 O 0.26889 0.75098 0.76097 0.0
C788 C 0.3512 0.7642 0.7737 0.0
C789 C 0.4198 0.85832 0.78542 0.0
C790 C 0.46558 0.86826 0.78829 0.0
C791 C 0.44285 0.85524 0.79693 0.0
C792 C 0.46461 0.88502 0.76819 0.0
C793 C 0.41936 0.87568 0.76603 0.0
C794 C 0.44168 0.88894 0.75747 0.0
C795 C 0.33586 0.81927 0.83272 0.0
C796 C 0.39669 0.84135 0.7925 0.0
C797 C 0.36326 0.885 0.68974 0.0
C798 C 0.35491 0.90444 0.70908 0.0
C799 C 0.29832 0.83788 0.78644 0.0
C800 C 0.22738 0.74877 0.77323 0.0
C801 C 0.20589 0.75363 0.75985 0.0
C802 C 0.18193 0.74114 0.76564 0.0
C803 C 0.17968 0.72361 0.78515 0.0
C804 C 0.22496 0.73094 0.79239 0.0
C805 C 0.20114 0.71841 0.7983 0.0
C806 C 0.31282 0.78157 0.72623 0.0
C807 C 0.25175 0.76468 0.76822 0.0
H808 H 0.44284 0.84248 0.81256 0.0
H809 H 0.48147 0.89485 0.76036 0.0
H810 H 0.40189 0.87879 0.7573 0.0
H811 H 0.44119 0.90197 0.74215 0.0
H812 H 0.20785 0.76777 0.74533 0.0
H813 H 0.16139 0.71364 0.7899 0.0
H814 H 0.2413 0.72696 0.80295 0.0
H815 H 0.19931 0.70474 0.81319 0.0
Tb816 Tb 0.56937 0.03937 0.04548 0.0
C817 C 0.50592 0.07804 0.95865 0.0
C818 C 0.48201 0.034 0.93131 0.0
C819 C 0.465 0.07601 0.93535 0.0
C820 C 0.50358 0.04978 0.94857 0.0
C821 C 0.48707 0.09179 0.95149 0.0
C822 C 0.46244 0.0471 0.92535 0.0
C823 C 0.51437 0.13589 0.97443 0.0
N824 N 0.52747 0.0924 0.97417 0.0
C825 C 0.53241 0.12119 0.98119 0.0
C826 C 0.4914 0.12106 0.95994 0.0
Tb827 Tb 0.55611 0.06684 0.984 0.0
N828 N 0.52309 0.03815 0.95449 0.0
C829 C 0.52298 1.01114 0.94186 0.0
C830 C 0.48116 1.00582 0.91987 0.0
C831 C 0.50191 0.99448 0.92483 0.0
H832 H 0.55004 0.13269 0.99266 0.0
H833 H 0.50172 0.9729 0.91556 0.0
H834 H 0.44561 0.03528 0.91236 0.0
H835 H 0.51812 0.15859 0.98056 0.0
H836 H 0.5387 1.00182 0.94539 0.0
H837 H 0.61718 0.12894 0.12363 0.0
H838 H 0.46491 0.99292 0.90657 0.0
H839 H 0.5793 0.97502 0.03012 0.0
H840 H 0.58349 0.10228 0.08815 0.0
H841 H 0.61252 0.9502 0.04028 0.0
H842 H 0.45014 0.08609 0.92987 0.0
H843 H 0.65447 0.10989 0.13294 0.0
H844 H 0.67669 0.07014 0.12312 0.0
H845 H 0.47744 0.13246 0.95476 0.0
H846 H 0.67554 0.02138 0.10021 0.0
N847 N 0.60101 0.06769 0.07694 0.0
C848 C 0.59937 0.09326 0.09181 0.0
C849 C 0.63958 0.09785 0.11732 0.0
C850 C 0.64086 0.07135 0.1027 0.0
C851 C 0.61853 0.10862 0.11217 0.0
C852 C 0.62083 0.05645 0.08277 0.0
H853 H 0.65137 0.97621 0.06978 0.0
N854 N 0.59951 1.01489 0.05291 0.0
C855 C 0.61496 0.97244 0.04871 0.0
C856 C 0.62012 0.02909 0.07019 0.0
C857 C 0.59619 0.98656 0.04301 0.0
C858 C 0.6369 0.98722 0.06528 0.0
C859 C 0.63951 1.01579 0.07669 0.0
O860 O 0.55069 1.00592 0.06259 0.0
O861 O 0.54333 0.0383 0.01081 0.0
O862 O 0.53211 0.08243 0.0135 0.0
O863 O 0.5513 0.07536 0.05458 0.0
O864 O 0.54509 1.0008 0.02078 0.0
O865 O 0.55294 0.04927 0.08191 0.0
O866 O 0.57769 0.09861 0.96717 0.0
O867 O 0.58052 0.06848 0.0196 0.0
O868 O 0.59644 0.03028 0.01708 0.0
O869 O 0.57358 0.03001 0.97566 0.0
O870 O 0.58388 0.10442 1.00676 0.0
O871 O 0.5706 0.05483 0.94663 0.0
C872 C 0.53328 1.0125 1.0046 0.0
C873 C 0.55443 0.01755 0.11138 0.0
C874 C 0.54947 0.02365 0.16033 0.0
C875 C 0.54191 0.02678 0.1337 0.0
C876 C 0.56997 1.01139 0.16456 0.0
C877 C 0.57463 1.00485 0.11572 0.0
C878 C 0.5824 1.00192 0.14225 0.0
C879 C 0.53532 0.08616 0.04074 0.0
C880 C 0.54679 0.02302 0.08431 0.0
C881 C 0.6603 0.0311 0.09516 0.0
C882 C 0.66096 0.05886 0.1082 0.0
C883 C 0.59413 0.09284 0.02443 0.0
C884 C 0.57757 0.08897 0.91881 0.0
C885 C 0.59419 0.08243 0.89987 0.0
C886 C 0.59269 0.08986 0.87396 0.0
C887 C 0.57414 0.10398 0.86704 0.0
C888 C 0.5591 0.10316 0.91192 0.0
C889 C 0.55747 0.11068 0.88606 0.0
C890 C 0.59173 0.02276 0.98998 0.0
C891 C 0.58064 0.08084 0.94554 0.0
H892 H 0.52643 0.0368 0.13037 0.0
H893 H 0.57601 1.00864 0.18495 0.0
H894 H 0.58447 0.99729 0.0988 0.0
H895 H 0.59805 0.99223 0.14551 0.0
H896 H 0.60817 0.07108 0.90524 0.0
H897 H 0.57265 0.10995 0.84709 0.0
H898 H 0.54606 0.10843 0.92636 0.0
H899 H 0.54327 0.12168 0.88073 0.0
Tb900 Tb 0.33315 0.31456 0.29196 0.0
C901 C 0.23728 0.24522 0.22254 0.0
C902 C 0.20593 0.25128 0.25396 0.0
C903 C 0.19375 0.2394 0.20453 0.0
C904 C 0.23113 0.25206 0.24912 0.0
C905 C 0.21852 0.23801 0.19997 0.0
C906 C 0.18745 0.24593 0.23151 0.0
C907 C 0.24901 0.22354 0.17086 0.0
N908 N 0.2611 0.24263 0.21909 0.0
C909 C 0.26674 0.23025 0.19401 0.0
C910 C 0.22489 0.22789 0.17376 0.0
Tb911 Tb 0.28825 0.25225 0.25834 0.0
N912 N 0.24937 0.25638 0.27032 0.0
C913 C 0.24322 0.25779 0.29678 0.0
C914 C 0.19982 0.25416 0.28114 0.0
C915 C 0.21849 0.25689 0.30258 0.0
H916 H 0.2851 0.22595 0.19175 0.0
H917 H 0.21388 0.25844 0.32364 0.0
H918 H 0.16806 0.24558 0.23482 0.0
H919 H 0.25384 0.21457 0.1509 0.0
H920 H 0.25725 0.25971 0.31363 0.0
H921 H 0.39256 0.36919 0.22556 0.0
H922 H 0.18067 0.25346 0.28572 0.0
H923 H 0.35245 0.28962 0.34844 0.0
H924 H 0.35524 0.35813 0.24952 0.0
H925 H 0.38871 0.27609 0.36621 0.0
H926 H 0.17912 0.23412 0.18745 0.0
H927 H 0.43005 0.35156 0.23741 0.0
H928 H 0.45182 0.32768 0.26867 0.0
H929 H 0.21102 0.22209 0.15591 0.0
H930 H 0.45088 0.30287 0.30741 0.0
N931 N 0.36866 0.32898 0.27043 0.0
C932 C 0.37034 0.34786 0.253 0.0
C933 C 0.4131 0.34542 0.247 0.0
C934 C 0.4126 0.32939 0.26752 0.0
C935 C 0.39197 0.3552 0.24011 0.0
C936 C 0.38985 0.32141 0.27901 0.0
H937 H 0.42755 0.28343 0.34359 0.0
N938 N 0.36712 0.30036 0.31144 0.0
C939 C 0.38897 0.28393 0.34714 0.0
C940 C 0.38916 0.30701 0.30043 0.0
C941 C 0.36758 0.29077 0.33587 0.0
C942 C 0.41088 0.28836 0.33452 0.0
C943 C 0.41143 0.30074 0.31136 0.0
O944 O 0.32928 0.33566 0.33186 0.0
O945 O 0.29413 0.29327 0.2847 0.0
O946 O 0.29133 0.27936 0.22706 0.0
O947 O 0.3245 0.31731 0.24769 0.0
O948 O 0.30303 0.33429 0.27994 0.0
O949 O 0.35187 0.3568 0.305 0.0
O950 O 0.30072 0.21445 0.25099 0.0
O951 O 0.32755 0.27138 0.27173 0.0
O952 O 0.31768 0.29282 0.32459 0.0
O953 O 0.297 0.24835 0.30097 0.0
O954 O 0.31751 0.24797 0.23153 0.0
O955 O 0.26437 0.21505 0.26459 0.0
C956 C 0.28455 0.31334 0.27985 0.0
C957 C 0.32926 0.38346 0.33359 0.0
C958 C 0.31312 0.42096 0.31843 0.0
C959 C 0.32466 0.39828 0.31284 0.0
C960 C 0.30579 0.42886 0.34475 0.0
C961 C 0.32184 0.39138 0.35989 0.0
C962 C 0.31009 0.41399 0.36539 0.0
C963 C 0.30805 0.30292 0.22622 0.0
C964 C 0.34161 0.3597 0.32787 0.0
C965 C 0.43379 0.30781 0.29944 0.0
C966 C 0.43434 0.32196 0.27744 0.0
C967 C 0.33585 0.26264 0.24924 0.0
C968 C 0.2721 0.17082 0.24402 0.0
C969 C 0.28343 0.15186 0.25471 0.0
C970 C 0.28114 0.12455 0.23999 0.0
C971 C 0.26505 0.1151 0.21543 0.0
C972 C 0.256 0.1618 0.21943 0.0
C973 C 0.25209 0.13366 0.20548 0.0
C974 C 0.3068 0.26615 0.32404 0.0
C975 C 0.28062 0.20003 0.25825 0.0
H976 H 0.32999 0.39233 0.29228 0.0
H977 H 0.2966 0.44631 0.34918 0.0
H978 H 0.3251 0.38005 0.37609 0.0
H979 H 0.3043 0.41999 0.38566 0.0
H980 H 0.29617 0.15919 0.27359 0.0
H981 H 0.26334 0.09406 0.20356 0.0
H982 H 0.24704 0.17639 0.21086 0.0
H983 H 0.2399 0.1266 0.18633 0.0
Tb984 Tb 0.56752 0.57687 0.04517 0.0
C985 C 0.5965 0.49151 0.95725 0.0
C986 C 0.5625 0.48192 0.92084 0.0
C987 C 0.60333 0.47416 0.90984 0.0
C988 C 0.57206 0.49145 0.94887 0.0
C989 C 0.61228 0.48218 0.93795 0.0
C990 C 0.57845 0.47403 0.90129 0.0
C991 C 0.64344 0.486 0.97593 0.0
N992 N 0.6042 0.49869 0.98467 0.0
C993 C 0.62705 0.49497 0.99427 0.0
C994 C 0.63619 0.48001 0.94761 0.0
Tb995 Tb 0.57583 0.51274 0.0133 0.0
N996 N 0.55713 0.49848 0.96851 0.0
C997 C 0.53184 0.49426 0.96149 0.0
C998 C 0.53697 0.47936 0.91348 0.0
C999 C 0.52151 0.48509 0.934 0.0
H1000 H 0.63306 0.49926 0.01604 0.0
H1001 H 0.50158 0.48242 0.92868 0.0
H1002 H 0.5715 0.46688 0.87966 0.0
H1003 H 0.66165 0.48369 0.98369 0.0
H1004 H 0.51932 0.49814 0.97688 0.0
H1005 H 0.64439 0.61045 0.12695 0.0
H1006 H 0.52889 0.47209 0.89222 0.0
H1007 H 0.50963 0.58823 0.04524 0.0
H1008 H 0.62534 0.59548 0.07916 0.0
H1009 H 0.48139 0.60138 0.07925 0.0
H1010 H 0.61522 0.46713 0.89468 0.0
H1011 H 0.61786 0.61706 0.16498 0.0
H1012 H 0.57515 0.61903 0.17966 0.0
H1013 H 0.64885 0.47287 0.93347 0.0
H1014 H 0.53062 0.61699 0.1666 0.0
N1015 N 0.58766 0.5922 0.08928 0.0
C1016 C 0.61319 0.5981 0.09519 0.0
C1017 C 0.60923 0.61029 0.14388 0.0
C1018 C 0.58338 0.60645 0.13764 0.0
C1019 C 0.62426 0.6067 0.12247 0.0
C1020 C 0.57313 0.59758 0.1098 0.0
H1021 H 0.49564 0.61117 0.12912 0.0
N1022 N 0.53991 0.58993 0.07533 0.0
C1023 C 0.50014 0.59996 0.08612 0.0
C1024 C 0.54831 0.59655 0.10254 0.0
C1025 C 0.51634 0.5925 0.06684 0.0
C1026 C 0.50821 0.60535 0.11424 0.0
C1027 C 0.53271 0.60416 0.12277 0.0
O1028 O 0.55503 0.60967 0.03052 0.0
O1029 O 0.56414 0.55063 1.00275 0.0
O1030 O 0.60553 0.54188 0.99902 0.0
O1031 O 0.60602 0.58009 0.03362 0.0
O1032 O 0.53538 0.56801 0.01357 0.0
O1033 O 0.59346 0.61491 0.04621 0.0
O1034 O 0.58569 0.4811 0.03218 0.0
O1035 O 0.57916 0.53942 0.05532 0.0
O1036 O 0.53847 0.5465 0.05949 0.0
O1037 O 0.53703 0.50954 0.02348 0.0
O1038 O 0.60767 0.52095 0.04597 0.0
O1039 O 0.55069 0.47311 1.00702 0.0
C1040 C 0.5428 0.55439 0.99226 0.0
C1041 C 0.57828 0.65623 0.04653 0.0
C1042 C 0.58734 0.70465 0.03912 0.0
C1043 C 0.58604 0.67578 0.0298 0.0
C1044 C 0.58089 0.71363 0.06578 0.0
C1045 C 0.57192 0.66546 0.07298 0.0
C1046 C 0.57326 0.69412 0.08254 0.0
C1047 C 0.61614 0.56741 0.01286 0.0
C1048 C 0.57704 0.62646 0.03541 0.0
C1049 C 0.54236 0.61136 0.15071 0.0
C1050 C 0.56769 0.61249 0.15814 0.0
C1051 C 0.60025 0.53584 0.06648 0.0
C1052 C 0.56769 0.43383 0.01246 0.0
C1053 C 0.56054 0.41428 0.02929 0.0
C1054 C 0.56431 0.38672 0.02249 0.0
C1055 C 0.57492 0.37889 0.99795 0.0
C1056 C 0.57811 0.42572 0.98806 0.0
C1057 C 0.58161 0.39827 0.98082 0.0
C1058 C 0.52724 0.52146 0.04485 0.0
C1059 C 0.5652 0.46279 0.02215 0.0
H1060 H 0.59134 0.6684 1.00954 0.0
H1061 H 0.5814 0.73565 0.07355 0.0
H1062 H 0.56594 0.65061 0.08613 0.0
H1063 H 0.56828 0.70125 0.10296 0.0
H1064 H 0.55204 0.42075 0.04782 0.0
H1065 H 0.57843 0.358 0.99216 0.0
H1066 H 0.58368 0.4405 0.97479 0.0
H1067 H 0.58983 0.39207 0.96205 0.0
Tb1068 Tb 0.85564 0.32477 0.27429 0.0
C1069 C 0.78736 0.25044 0.33598 0.0
C1070 C 0.79806 0.20509 0.32369 0.0
C1071 C 0.78105 0.21728 0.36709 0.0
C1072 C 0.79714 0.23187 0.31802 0.0
C1073 C 0.77842 0.24298 0.36033 0.0
C1074 C 0.79082 0.19832 0.34876 0.0
C1075 C 0.76132 0.28454 0.36719 0.0
N1076 N 0.78437 0.27465 0.32822 0.0
C1077 C 0.77031 0.29092 0.34277 0.0
C1078 C 0.76587 0.2608 0.37634 0.0
Tb1079 Tb 0.80003 0.28326 0.28777 0.0
N1080 N 0.8034 0.23894 0.29375 0.0
C1081 C 0.8088 0.21903 0.27334 0.0
C1082 C 0.80494 0.18536 0.30343 0.0
C1083 C 0.8098 0.19218 0.27793 0.0
H1084 H 0.76613 0.30914 0.33611 0.0
H1085 H 0.81453 0.17685 0.26181 0.0
H1086 H 0.79173 0.17803 0.35363 0.0
H1087 H 0.75083 0.29794 0.3789 0.0
H1088 H 0.81253 0.22354 0.25334 0.0
H1089 H 0.84583 0.43213 0.30663 0.0
H1090 H 0.80576 0.16455 0.30694 0.0
H1091 H 0.88139 0.29692 0.21996 0.0
H1092 H 0.84842 0.38467 0.31282 0.0
H1093 H 0.89184 0.30794 0.175 0.0
H1094 H 0.77456 0.21134 0.38585 0.0
H1095 H 0.84959 0.44498 0.26087 0.0
H1096 H 0.85871 0.4318 0.21181 0.0
H1097 H 0.75869 0.25581 0.39514 0.0
H1098 H 0.87155 0.39794 0.17585 0.0
N1099 N 0.8529 0.36982 0.27071 0.0
C1100 C 0.84993 0.38962 0.2926 0.0
C1101 C 0.85061 0.42392 0.2634 0.0
C1102 C 0.85523 0.40423 0.24147 0.0
C1103 C 0.84855 0.41677 0.28924 0.0
C1104 C 0.85651 0.37716 0.24594 0.0
H1105 H 0.88443 0.35186 0.16212 0.0
N1106 N 0.86684 0.33352 0.23215 0.0
C1107 C 0.8838 0.32222 0.18905 0.0
C1108 C 0.8639 0.35835 0.22592 0.0
C1109 C 0.87781 0.31604 0.21462 0.0
C1110 C 0.87953 0.34699 0.18182 0.0
C1111 C 0.86996 0.36573 0.20058 0.0
O1112 O 0.89263 0.31917 0.2771 0.0
O1113 O 0.84117 0.28459 0.28846 0.0
O1114 O 0.81941 0.30075 0.32876 0.0
O1115 O 0.84811 0.33709 0.31689 0.0
O1116 O 0.86806 0.28433 0.26292 0.0
O1117 O 0.8835 0.35549 0.30112 0.0
O1118 O 0.76542 0.29021 0.27248 0.0
O1119 O 0.81495 0.32441 0.27562 0.0
O1120 O 0.83265 0.30944 0.23506 0.0
O1121 O 0.81142 0.2693 0.24718 0.0
O1122 O 0.78727 0.32322 0.30023 0.0
O1123 O 0.77263 0.24912 0.26476 0.0
C1124 C 0.85538 0.26811 0.27711 0.0
C1125 C 0.92486 0.35973 0.28803 0.0
C1126 C 0.97071 0.3698 0.29246 0.0
C1127 C 0.94765 0.35599 0.29973 0.0
C1128 C 0.97041 0.38766 0.2733 0.0
C1129 C 0.92505 0.37795 0.26938 0.0
C1130 C 0.94775 0.39181 0.26206 0.0
C1131 C 0.83647 0.32455 0.33534 0.0
C1132 C 0.90132 0.34278 0.29426 0.0
C1133 C 0.86721 0.39196 0.19529 0.0
C1134 C 0.85986 0.41122 0.21574 0.0
C1135 C 0.80084 0.34065 0.28785 0.0
C1136 C 0.73119 0.25293 0.27201 0.0
C1137 C 0.70981 0.26037 0.26098 0.0
C1138 C 0.68636 0.25234 0.27089 0.0
C1139 C 0.68497 0.23691 0.29231 0.0
C1140 C 0.72894 0.23648 0.29241 0.0
C1141 C 0.70602 0.22877 0.30264 0.0
C1142 C 0.81954 0.2835 0.22837 0.0
C1143 C 0.75582 0.26381 0.26311 0.0
H1144 H 0.94726 0.34225 0.31454 0.0
H1145 H 0.98764 0.3982 0.26666 0.0
H1146 H 0.90777 0.38128 0.2603 0.0
H1147 H 0.94777 0.40561 0.24738 0.0
H1148 H 0.7116 0.27225 0.24458 0.0
H1149 H 0.66768 0.23117 0.30134 0.0
H1150 H 0.74489 0.22976 0.30066 0.0
H1151 H 0.70459 0.2166 0.31881 0.0
Tb1152 Tb 0.07216 0.54395 0.54897 0.0
C1153 C 0.01185 0.58666 0.46286 0.0
C1154 C 0.98311 0.54457 0.43749 0.0
C1155 C 0.97223 0.59012 0.44026 0.0
C1156 C 1.00599 0.55786 0.45367 0.0
C1157 C 0.99537 0.60326 0.45568 0.0
C1158 C 0.96607 0.5608 0.43126 0.0
C1159 C 0.02693 0.64467 0.47712 0.0
N1160 N 0.03442 0.59856 0.47756 0.0
C1161 C 0.04262 0.62727 0.48376 0.0
C1162 C 1.00305 0.6326 0.46336 0.0
Tb1163 Tb 0.05937 0.56854 0.48587 0.0
N1164 N 0.02312 0.54301 0.45976 0.0
C1165 C 0.01899 0.51479 0.44892 0.0
C1166 C 0.97832 0.51551 0.42752 0.0
C1167 C 0.99645 0.50061 0.43307 0.0
H1168 H 0.06109 0.63668 0.49439 0.0
H1169 H 0.99313 0.47819 0.42507 0.0
H1170 H 0.94835 0.55096 0.41896 0.0
H1171 H 0.03326 0.66734 0.4826 0.0
H1172 H 0.03267 0.50277 0.45283 0.0
H1173 H 0.14065 0.63542 0.60465 0.0
H1174 H 0.96095 0.50449 0.41508 0.0
H1175 H 0.06862 0.47658 0.54817 0.0
H1176 H 0.09978 0.61012 0.5803 0.0
H1177 H 0.09647 0.44624 0.56056 0.0
H1178 H 0.95921 0.60247 0.43468 0.0
H1179 H 0.17371 0.60958 0.61254 0.0
H1180 H 0.18632 0.56309 0.60912 0.0
H1181 H 0.99097 0.64611 0.45814 0.0
H1182 H 0.17433 0.51128 0.59691 0.0
N1183 N 0.10937 0.56989 0.57312 0.0
C1184 C 0.11379 0.59827 0.58339 0.0
C1185 C 0.15573 0.59825 0.60163 0.0
C1186 C 0.15059 0.56901 0.59271 0.0
C1187 C 0.1371 0.61287 0.5973 0.0
C1188 C 0.12693 0.55533 0.57845 0.0
H1189 H 0.14058 0.46741 0.57934 0.0
N1190 N 0.09697 0.51435 0.55892 0.0
C1191 C 0.10356 0.46875 0.56334 0.0
C1192 C 0.12051 0.52643 0.57099 0.0
C1193 C 0.08785 0.48599 0.55634 0.0
C1194 C 0.12847 0.48077 0.57383 0.0
C1195 C 0.13709 0.51004 0.57837 0.0
O1196 O 0.0459 0.51906 0.56861 0.0
O1197 O 0.04503 0.54513 0.51611 0.0
O1198 O 0.03903 0.58925 0.51652 0.0
O1199 O 0.06059 0.58453 0.55699 0.0
O1200 O 0.04247 0.5079 0.52882 0.0
O1201 O 0.06613 0.56027 0.58957 0.0
O1202 O 0.08278 0.5963 0.46623 0.0
O1203 O 0.08632 0.56638 0.51811 0.0
O1204 O 0.08922 0.51918 0.51804 0.0
O1205 O 0.07167 0.52822 0.4769 0.0
O1206 O 0.09071 0.60356 0.50543 0.0
O1207 O 0.06761 0.55287 0.44604 0.0
C1208 C 0.03184 0.52048 0.51239 0.0
C1209 C 0.05397 0.52608 0.61658 0.0
C1210 C 0.03712 0.51234 0.65741 0.0
C1211 C 0.03476 0.52383 0.63374 0.0
C1212 C 0.05861 0.50231 0.66341 0.0
C1213 C 0.07578 0.51697 0.62328 0.0
C1214 C 0.07792 0.50477 0.6464 0.0
C1215 C 0.04439 0.59538 0.54364 0.0
C1216 C 0.05035 0.53737 0.59162 0.0
C1217 C 0.16117 0.52348 0.59136 0.0
C1218 C 0.16796 0.55296 0.5984 0.0
C1219 C 0.10097 0.59004 0.52114 0.0
C1220 C 0.07673 0.58649 0.4177 0.0
C1221 C 0.09236 0.58039 0.39746 0.0
C1222 C 0.09041 0.58978 0.3725 0.0
C1223 C 0.07213 0.60507 0.36779 0.0
C1224 C 0.05855 0.60177 0.41286 0.0
C1225 C 0.05624 0.61094 0.38792 0.0
C1226 C 0.08479 0.51426 0.49076 0.0
C1227 C 0.08082 0.57736 0.44381 0.0
H1228 H 0.01803 0.53126 0.62883 0.0
H1229 H 0.06084 0.49358 0.68174 0.0
H1230 H 0.09116 0.51934 0.61093 0.0
H1231 H 0.09473 0.49763 0.65137 0.0
H1232 H 0.10607 0.56813 0.40122 0.0
H1233 H 0.0703 0.61271 0.34875 0.0
H1234 H 0.04631 0.60682 0.4282 0.0
H1235 H 0.04225 0.62281 0.38429 0.0
Tb1236 Tb 0.79107 0.80748 0.27701 0.0
C1237 C 0.87475 0.76189 0.32633 0.0
C1238 C 0.88989 0.79608 0.36836 0.0
C1239 C 0.89303 0.74747 0.36598 0.0
C1240 C 0.8781 0.78886 0.34108 0.0
C1241 C 0.88307 0.74106 0.33816 0.0
C1242 C 0.8964 0.77499 0.38111 0.0
C1243 C 0.8747 0.71075 0.29313 0.0
N1244 N 0.86577 0.75695 0.2994 0.0
C1245 C 0.86669 0.73215 0.28241 0.0
C1246 C 0.88241 0.71499 0.32127 0.0
Tb1247 Tb 0.85239 0.79285 0.28339 0.0
N1248 N 0.87228 0.80861 0.3276 0.0
C1249 C 0.88032 0.83656 0.33948 0.0
C1250 C 0.89605 0.82443 0.3814 0.0
C1251 C 0.89179 0.84481 0.36664 0.0
H1252 H 0.86045 0.72846 0.26067 0.0
H1253 H 0.89723 0.86692 0.37618 0.0
H1254 H 0.90513 0.78003 0.40218 0.0
H1255 H 0.87475 0.69094 0.27971 0.0
H1256 H 0.87717 0.8528 0.32872 0.0
H1257 H 0.74552 0.73206 0.18542 0.0
H1258 H 0.90506 0.83089 0.40235 0.0
H1259 H 0.78495 0.8729 0.29851 0.0
H1260 H 0.76613 0.74686 0.23264 0.0
H1261 H 0.7717 0.91046 0.27842 0.0
H1262 H 0.89919 0.73166 0.3756 0.0
H1263 H 0.7374 0.7676 0.15875 0.0
H1264 H 0.7378 0.81837 0.15798 0.0
H1265 H 0.88871 0.69844 0.32952 0.0
H1266 H 0.74494 0.86731 0.18346 0.0
N1267 N 0.77086 0.79093 0.23313 0.0
C1268 C 0.76283 0.76288 0.22164 0.0
C1269 C 0.7466 0.77435 0.17961 0.0
C1270 C 0.75302 0.80285 0.19218 0.0
C1271 C 0.75105 0.75424 0.19464 0.0
C1272 C 0.76504 0.81048 0.21936 0.0
H1273 H 0.75696 0.90174 0.2287 0.0
N1274 N 0.77873 0.84349 0.26031 0.0
C1275 C 0.77108 0.8902 0.26548 0.0
C1276 C 0.76914 0.83784 0.23351 0.0
C1277 C 0.77856 0.86885 0.27679 0.0
C1278 C 0.76288 0.88524 0.23739 0.0
C1279 C 0.76124 0.85858 0.22115 0.0
O1280 O 0.77 0.81974 0.30953 0.0
O1281 O 0.82135 0.80261 0.30506 0.0
O1282 O 0.82646 0.75448 0.29231 0.0
O1283 O 0.78709 0.76088 0.27748 0.0
O1284 O 0.80572 0.83687 0.31543 0.0
O1285 O 0.75487 0.7829 0.279 0.0
O1286 O 0.87561 0.78015 0.25323 0.0
O1287 O 0.82191 0.79709 0.25522 0.0
O1288 O 0.81734 0.84544 0.26734 0.0
O1289 O 0.85637 0.83956 0.28378 0.0
O1290 O 0.83847 0.76382 0.24446 0.0
O1291 O 0.88621 0.82065 0.27968 0.0
C1292 C 0.82186 0.82392 0.32384 0.0
C1293 C 0.72563 0.8065 0.30159 0.0
C1294 C 0.68515 0.80498 0.321 0.0
C1295 C 0.70845 0.79678 0.31993 0.0
C1296 C 0.67948 0.82301 0.30381 0.0
C1297 C 0.71897 0.824 0.28436 0.0
C1298 C 0.69621 0.83234 0.28564 0.0
C1299 C 0.80167 0.74453 0.28573 0.0
C1300 C 0.75066 0.79916 0.30108 0.0
C1301 C 0.75082 0.8516 0.19347 0.0
C1302 C 0.74674 0.82374 0.17898 0.0
C1303 C 0.82173 0.77604 0.23622 0.0
C1304 C 0.91919 0.79952 0.26434 0.0
C1305 C 0.93551 0.80308 0.24359 0.0
C1306 C 0.96083 0.80104 0.24797 0.0
C1307 C 0.96918 0.79473 0.2731 0.0
C1308 C 0.92829 0.79342 0.28916 0.0
C1309 C 0.95303 0.7909 0.2934 0.0
C1310 C 0.84201 0.85569 0.2747 0.0
C1311 C 0.89303 0.80299 0.26049 0.0
H1312 H 0.71313 0.78294 0.33314 0.0
H1313 H 0.66179 0.82954 0.30415 0.0
H1314 H 0.73133 0.83129 0.26985 0.0
H1315 H 0.69143 0.84602 0.27232 0.0
H1316 H 0.9287 0.80804 0.22445 0.0
H1317 H 0.98826 0.79249 0.27702 0.0
H1318 H 0.91635 0.79086 0.3054 0.0
H1319 H 0.95978 0.78609 0.31263 0.0
Tb1320 Tb 0.82775 0.28864 0.76531 0.0
C1321 C 0.80607 0.38607 0.84135 0.0
C1322 C 0.84495 0.40843 0.86988 0.0
C1323 C 0.81547 0.43663 0.86038 0.0
C1324 C 0.82849 0.38393 0.85404 0.0
C1325 C 0.79932 0.41257 0.8445 0.0
C1326 C 0.83822 0.43456 0.8731 0.0
C1327 C 0.76031 0.38985 0.81741 0.0
N1328 N 0.79094 0.36242 0.82579 0.0
C1329 C 0.76748 0.36417 0.81535 0.0
C1330 C 0.77641 0.41426 0.83181 0.0
Tb1331 Tb 0.80329 0.31995 0.82632 0.0
N1332 N 0.8348 0.35838 0.84977 0.0
C1333 C 0.85845 0.3572 0.86009 0.0
C1334 C 0.86814 0.40634 0.88139 0.0
C1335 C 0.87502 0.38069 0.87611 0.0
H1336 H 0.75325 0.34584 0.80618 0.0
H1337 H 0.89343 0.37902 0.88398 0.0
H1338 H 0.85069 0.45339 0.88507 0.0
H1339 H 0.74195 0.3906 0.80854 0.0
H1340 H 0.86604 0.33901 0.85589 0.0
H1341 H 0.73679 0.22709 0.71155 0.0
H1342 H 0.88123 0.4246 0.89349 0.0
H1343 H 0.8797 0.26505 0.77936 0.0
H1344 H 0.76316 0.26431 0.74501 0.0
H1345 H 0.89474 0.22202 0.77022 0.0
H1346 H 0.81054 0.45699 0.8629 0.0
H1347 H 0.75258 0.18556 0.69173 0.0
H1348 H 0.78624 0.15888 0.69291 0.0
H1349 H 0.77067 0.43414 0.8337 0.0
H1350 H 0.82815 0.1563 0.71135 0.0
N1351 N 0.79723 0.24987 0.74032 0.0
C1352 C 0.77221 0.2492 0.73438 0.0
C1353 C 0.76516 0.20331 0.70521 0.0
C1354 C 0.78949 0.20205 0.71385 0.0
C1355 C 0.75629 0.22677 0.71613 0.0
C1356 C 0.8052 0.22585 0.73154 0.0
H1357 H 0.86809 0.17917 0.74097 0.0
N1358 N 0.84256 0.24722 0.75949 0.0
C1359 C 0.87582 0.22206 0.76251 0.0
C1360 C 0.82845 0.22426 0.74203 0.0
C1361 C 0.86668 0.24654 0.76841 0.0
C1362 C 0.86087 0.19807 0.74585 0.0
C1363 C 0.83707 0.19907 0.73493 0.0
O1364 O 0.86606 0.30307 0.76424 0.0
O1365 O 0.83078 0.32524 0.798 0.0
O1366 O 0.77884 0.31807 0.78753 0.0
O1367 O 0.79632 0.30381 0.74689 0.0
O1368 O 0.83013 0.33109 0.75756 0.0
O1369 O 0.84108 0.29 0.72639 0.0
O1370 O 0.7656 0.31294 0.83281 0.0
O1371 O 0.80082 0.28371 0.79403 0.0
O1372 O 0.84983 0.28459 0.80392 0.0
O1373 O 0.83289 0.30208 0.84401 0.0
O1374 O 0.79565 0.27619 0.8329 0.0
O1375 O 0.7942 0.32276 0.86737 0.0
C1376 C 0.83218 0.34342 0.78298 0.0
C1377 C 0.87798 0.32666 0.72897 0.0
C1378 C 0.8802 0.36667 0.70603 0.0
C1379 C 0.86638 0.34184 0.7126 0.0
C1380 C 0.90571 0.37614 0.71615 0.0
C1381 C 0.9035 0.33642 0.73864 0.0
C1382 C 0.91721 0.36108 0.73236 0.0
C1383 C 0.77868 0.31408 0.76008 0.0
C1384 C 0.86399 0.30147 0.73767 0.0
C1385 C 0.82181 0.1757 0.71699 0.0
C1386 C 0.79807 0.17723 0.70635 0.0
C1387 C 0.79597 0.26451 0.80765 0.0
C1388 C 0.75409 0.2939 0.8708 0.0
C1389 C 0.76394 0.27574 0.88499 0.0
C1390 C 0.74778 0.25356 0.8935 0.0
C1391 C 0.72169 0.24978 0.88733 0.0
C1392 C 0.72803 0.29027 0.86574 0.0
C1393 C 0.71195 0.26825 0.87387 0.0
C1394 C 0.84986 0.29004 0.83139 0.0
C1395 C 0.77015 0.3157 0.85933 0.0
H1396 H 0.84664 0.33461 0.7053 0.0
H1397 H 0.91698 0.39483 0.71099 0.0
H1398 H 0.91278 0.32507 0.75137 0.0
H1399 H 0.93686 0.36846 0.73995 0.0
H1400 H 0.78405 0.27896 0.88947 0.0
H1401 H 0.70869 0.23246 0.89281 0.0
H1402 H 0.72011 0.30417 0.85489 0.0
H1403 H 0.69187 0.2653 0.86947 0.0
Tb1404 Tb 0.83377 0.813 0.79125 0.0
C1405 C 0.74105 0.75842 0.71247 0.0
C1406 C 0.70595 0.76824 0.73671 0.0
C1407 C 0.70296 0.76238 0.68682 0.0
C1408 C 0.73087 0.76469 0.73705 0.0
C1409 C 0.72686 0.75633 0.68705 0.0
C1410 C 0.69248 0.76825 0.71162 0.0
C1411 C 0.7588 0.73742 0.6639 0.0
N1412 N 0.76379 0.75148 0.71341 0.0
C1413 C 0.77193 0.73925 0.68953 0.0
C1414 C 0.73642 0.74653 0.6626 0.0
Tb1415 Tb 0.78371 0.75592 0.75694 0.0
N1416 N 0.74414 0.76368 0.76088 0.0
C1417 C 0.73234 0.76257 0.78431 0.0
C1418 C 0.69464 0.76957 0.76125 0.0
C1419 C 0.70766 0.76589 0.78494 0.0
H1420 H 0.78885 0.73143 0.68984 0.0
H1421 H 0.6987 0.76558 0.80375 0.0
H1422 H 0.67347 0.77133 0.71105 0.0
H1423 H 0.76583 0.72864 0.64514 0.0
H1424 H 0.74156 0.75898 0.80274 0.0
H1425 H 0.89128 0.83035 0.70532 0.0
H1426 H 0.67549 0.77203 0.7618 0.0
H1427 H 0.85184 0.80245 0.85348 0.0
H1428 H 0.85335 0.81368 0.72383 0.0
H1429 H 0.8906 0.80524 0.88171 0.0
H1430 H 0.6919 0.76114 0.66751 0.0
H1431 H 0.93164 0.84224 0.73421 0.0
H1432 H 0.95518 0.84289 0.77885 0.0
H1433 H 0.72608 0.7446 0.6427 0.0
H1434 H 0.95516 0.8338 0.82592 0.0
N1435 N 0.86912 0.8205 0.76625 0.0
C1436 C 0.86948 0.8213 0.73855 0.0
C1437 C 0.91441 0.83624 0.74334 0.0
C1438 C 0.91469 0.833 0.77068 0.0
C1439 C 0.8917 0.82978 0.72709 0.0
C1440 C 0.89162 0.82489 0.78163 0.0
H1441 H 0.93138 0.81876 0.86382 0.0
N1442 N 0.86941 0.81052 0.81741 0.0
C1443 C 0.89126 0.8088 0.86081 0.0
C1444 C 0.89173 0.81924 0.80786 0.0
C1445 C 0.86911 0.80651 0.84416 0.0
C1446 C 0.91419 0.81662 0.85074 0.0
C1447 C 0.91468 0.8223 0.82416 0.0
O1448 O 0.8249 0.82848 0.83089 0.0
O1449 O 0.79364 0.79557 0.7852 0.0
O1450 O 0.79249 0.7851 0.72754 0.0
O1451 O 0.82393 0.82378 0.75125 0.0
O1452 O 0.80527 0.83693 0.78342 0.0
O1453 O 0.85101 0.85457 0.81033 0.0
O1454 O 0.79227 0.71925 0.76724 0.0
O1455 O 0.82334 0.77037 0.76971 0.0
O1456 O 0.82683 0.77654 0.81279 0.0
O1457 O 0.78436 0.76248 0.80243 0.0
O1458 O 0.81286 0.74319 0.73252 0.0
O1459 O 0.75537 0.7187 0.75027 0.0
C1460 C 0.78564 0.81716 0.78259 0.0
C1461 C 0.82564 0.87685 0.83992 0.0
C1462 C 0.81074 0.91765 0.83088 0.0
C1463 C 0.82257 0.89557 0.82241 0.0
C1464 C 0.80172 0.92094 0.85685 0.0
C1465 C 0.81636 0.88017 0.86577 0.0
C1466 C 0.8044 0.90212 0.87414 0.0
C1467 C 0.80814 0.80999 0.72906 0.0
C1468 C 0.8382 0.85362 0.83156 0.0
C1469 C 0.93745 0.8312 0.81364 0.0
C1470 C 0.93745 0.83655 0.78695 0.0
C1471 C 0.83174 0.75768 0.74933 0.0
C1472 C 0.77079 0.67735 0.73811 0.0
C1473 C 0.78566 0.66012 0.74668 0.0
C1474 C 0.7891 0.63628 0.72867 0.0
C1475 C 0.77591 0.62855 0.7022 0.0
C1476 C 0.75781 0.6697 0.7115 0.0
C1477 C 0.76019 0.64517 0.69377 0.0
C1478 C 0.80461 0.7651 0.81969 0.0
C1479 C 0.7705 0.70364 0.75722 0.0
H1480 H 0.82941 0.89316 0.80226 0.0
H1481 H 0.79233 0.93783 0.86353 0.0
H1482 H 0.81834 0.86575 0.87944 0.0
H1483 H 0.7972 0.90454 0.89406 0.0
H1484 H 0.79516 0.66582 0.76747 0.0
H1485 H 0.77818 0.61016 0.68791 0.0
H1486 H 0.74609 0.68267 0.70433 0.0
H1487 H 0.75023 0.63934 0.67327 0.0
Tb1488 Tb 0.54586 0.52975 0.51468 0.0
C1489 C 0.61396 0.63125 0.58995 0.0
C1490 C 0.61814 0.66705 0.56214 0.0
C1491 C 0.62374 0.68078 0.6121 0.0
C1492 C 0.61297 0.63844 0.56445 0.0
C1493 C 0.62011 0.6523 0.61413 0.0
C1494 C 0.62274 0.68815 0.5861 0.0
C1495 C 0.62189 0.61579 0.64012 0.0
N1496 N 0.61104 0.6036 0.59092 0.0
C1497 C 0.61596 0.59574 0.61555 0.0
C1498 C 0.62357 0.64418 0.63948 0.0
Tb1499 Tb 0.60144 0.57193 0.54961 0.0
N1500 N 0.60901 0.61741 0.5419 0.0
C1501 C 0.61242 0.62393 0.51645 0.0
C1502 C 0.61968 0.6736 0.53592 0.0
C1503 C 0.61726 0.65193 0.51303 0.0
H1504 H 0.61467 0.57386 0.61644 0.0
H1505 H 0.61908 0.65675 0.49268 0.0
H1506 H 0.62648 0.71021 0.58474 0.0
H1507 H 0.62516 0.60931 0.65954 0.0
H1508 H 0.61062 0.60773 0.49831 0.0
H1509 H 0.52718 0.44752 0.5747 0.0
H1510 H 0.62357 0.69528 0.53324 0.0
H1511 H 0.53386 0.52526 0.44724 0.0
H1512 H 0.53577 0.49592 0.5674 0.0
H1513 H 0.52516 0.48852 0.40496 0.0
H1514 H 0.62825 0.69726 0.63043 0.0
H1515 H 0.52365 0.40787 0.53542 0.0
H1516 H 0.52219 0.39125 0.4843 0.0
H1517 H 0.62836 0.6597 0.65851 0.0
H1518 H 0.52177 0.40245 0.43784 0.0
N1519 N 0.53823 0.48486 0.52404 0.0
C1520 C 0.5343 0.47926 0.54975 0.0
C1521 C 0.52753 0.42929 0.53197 0.0
C1522 C 0.52972 0.43488 0.50546 0.0
C1523 C 0.52942 0.45159 0.55415 0.0
C1524 C 0.53486 0.4632 0.50215 0.0
H1525 H 0.52243 0.43865 0.40803 0.0
N1526 N 0.53739 0.49679 0.47416 0.0
C1527 C 0.52795 0.48284 0.42486 0.0
C1528 C 0.5346 0.46942 0.47621 0.0
C1529 C 0.53284 0.5036 0.44892 0.0
C1530 C 0.52653 0.45475 0.42666 0.0
C1531 C 0.52925 0.44764 0.4526 0.0
O1532 O 0.51461 0.53932 0.49464 0.0
O1533 O 0.5654 0.57371 0.52987 0.0
O1534 O 0.57353 0.57817 0.5807 0.0
O1535 O 0.53974 0.54205 0.5607 0.0
O1536 O 0.54844 0.56302 0.49046 0.0
O1537 O 0.51129 0.5219 0.53132 0.0
O1538 O 0.6328 0.56136 0.56842 0.0
O1539 O 0.5818 0.52801 0.53441 0.0
O1540 O 0.57413 0.52473 0.48277 0.0
O1541 O 0.60714 0.56103 0.50399 0.0
O1542 O 0.5986 0.53853 0.57379 0.0
O1543 O 0.63553 0.57982 0.53226 0.0
C1544 C 0.5604 0.58416 0.50872 0.0
C1545 C 0.47443 0.51451 0.50091 0.0
C1546 C 0.4295 0.51302 0.49794 0.0
C1547 C 0.45411 0.52511 0.5103 0.0
C1548 C 0.42556 0.48876 0.47698 0.0
C1549 C 0.47021 0.49035 0.48011 0.0
C1550 C 0.44578 0.47737 0.46843 0.0
C1551 C 0.55104 0.56205 0.58269 0.0
C1552 C 0.49967 0.53069 0.5121 0.0
C1553 C 0.52566 0.41947 0.45571 0.0
C1554 C 0.52588 0.41309 0.48215 0.0
C1555 C 0.58662 0.51745 0.55551 0.0
C1556 C 0.67287 0.5856 0.56115 0.0
C1557 C 0.69236 0.57315 0.55238 0.0
C1558 C 0.71741 0.58621 0.56183 0.0
C1559 C 0.72274 0.61214 0.58055 0.0
C1560 C 0.67828 0.6116 0.57957 0.0
C1561 C 0.70321 0.62479 0.58924 0.0
C1562 C 0.59659 0.54148 0.48153 0.0
C1563 C 0.64733 0.57019 0.55069 0.0
H1564 H 0.45775 0.54337 0.52695 0.0
H1565 H 0.40704 0.479 0.46658 0.0
H1566 H 0.48566 0.48178 0.47265 0.0
H1567 H 0.44256 0.45885 0.45216 0.0
H1568 H 0.68788 0.55275 0.53855 0.0
H1569 H 0.74191 0.62263 0.5883 0.0
H1570 H 0.66339 0.62154 0.58652 0.0
H1571 H 0.70742 0.64481 0.60357 0.0
Tb1572 Tb 0.0991 0.55438 0.02498 0.0
C1573 C 0.01485 0.50566 0.08676 0.0
C1574 C 0.99179 0.46368 0.05528 0.0
C1575 C 0.99224 0.46622 0.10477 0.0
C1576 C 1.00736 0.49094 0.06018 0.0
C1577 C 1.00698 0.49377 0.10942 0.0
C1578 C 0.98468 0.45118 0.07773 0.0
C1579 C 0.02687 0.53812 0.13929 0.0
N1580 N 0.02869 0.53235 0.09033 0.0
C1581 C 0.03402 0.54905 0.11612 0.0
C1582 C 0.01351 0.51026 0.13597 0.0
Tb1583 Tb 0.03938 0.54837 0.05112 0.0
N1584 N 0.01432 0.50394 0.03911 0.0
C1585 C 1.00494 0.49139 0.01253 0.0
C1586 C 0.98329 0.45016 0.02801 0.0
C1587 C 0.98967 0.46422 1.00657 0.0
H1588 H 0.04434 0.57061 0.11886 0.0
H1589 H 0.98283 0.45417 0.98543 0.0
H1590 H 0.97286 0.43019 0.07439 0.0
H1591 H 0.03159 0.55122 0.15969 0.0
H1592 H 1.0096 0.50191 0.99566 0.0
H1593 H 0.15456 0.65228 0.08722 0.0
H1594 H 0.97136 0.42917 0.02335 0.0
H1595 H 0.1036 0.5266 0.95903 0.0
H1596 H 0.13118 0.60359 0.07937 0.0
H1597 H 0.11733 0.54404 0.9179 0.0
H1598 H 0.98612 0.45662 0.1219 0.0
H1599 H 0.16201 0.67632 0.04794 0.0
H1600 H 0.15982 0.67279 0.99673 0.0
H1601 H 1.00781 0.50192 0.15393 0.0
H1602 H 0.1501 0.64301 0.95035 0.0
N1603 N 0.1231 0.5996 0.03589 0.0
C1604 C 0.13352 0.61338 0.06184 0.0
C1605 C 0.15129 0.65477 0.04428 0.0
C1606 C 0.14297 0.63969 0.0175 0.0
C1607 C 0.14719 0.64125 0.06648 0.0
C1608 C 0.12907 0.61166 0.01389 0.0
H1609 H 0.13502 0.59478 0.92086 0.0
N1610 N 0.11236 0.56729 0.98531 0.0
C1611 C 0.11897 0.55862 0.93735 0.0
C1612 C 0.1237 0.59489 0.98773 0.0
C1613 C 0.11111 0.54882 0.96084 0.0
C1614 C 0.12886 0.58729 0.93909 0.0
C1615 C 0.1319 0.60573 0.96461 0.0
O1616 O 0.1136 0.52224 0.03881 0.0
O1617 O 0.06584 0.52503 0.03232 0.0
O1618 O 0.06455 0.53384 0.07847 0.0
O1619 O 0.1012 0.56218 0.06984 0.0
O1620 O 0.08037 0.51562 0.99598 0.0
O1621 O 0.13731 0.55336 0.02215 0.0
O1622 O 0.01934 0.57767 0.06937 0.0
O1623 O 0.07186 0.5775 0.04168 0.0
O1624 O 0.07507 0.56431 0.99304 0.0
O1625 O 0.03545 0.54922 1.00706 0.0
O1626 O 0.05679 0.59014 0.07675 0.0
O1627 O 1.00523 0.55044 0.03026 0.0
C1628 C 0.0632 0.50604 0.01056 0.0
C1629 C 0.14698 0.5082 0.01624 0.0
C1630 C 0.18046 0.48192 0.012 0.0
C1631 C 0.17066 0.50427 0.02583 0.0
C1632 C 0.16651 0.46411 0.9883 0.0
C1633 C 0.13363 0.49005 0.99247 0.0
C1634 C 0.1434 0.46827 0.97859 0.0
C1635 C 0.08826 0.54673 0.08543 0.0
C1636 C 0.13582 0.53039 0.03166 0.0
C1637 C 0.14397 0.63422 0.96792 0.0
C1638 C 0.14947 0.65119 0.99434 0.0
C1639 C 0.0738 0.59835 0.0615 0.0
C1640 C 0.97528 0.56649 0.05771 0.0
C1641 C 0.95825 0.58089 0.04702 0.0
C1642 C 0.93349 0.57713 0.05445 0.0
C1643 C 0.92627 0.55919 0.07295 0.0
C1644 C 0.96748 0.54886 0.07619 0.0
C1645 C 0.94316 0.5453 0.08377 0.0
C1646 C 0.05034 0.55936 0.98952 0.0
C1647 C 1.00104 0.57005 0.04953 0.0
H1648 H 0.18106 0.518 0.0443 0.0
H1649 H 0.17361 0.44694 0.97716 0.0
H1650 H 0.11552 0.49243 0.98469 0.0
H1651 H 0.13288 0.45437 0.96031 0.0
H1652 H 0.9641 0.59452 0.03267 0.0
H1653 H 0.9075 0.55605 0.07923 0.0
H1654 H 0.98016 0.53788 0.08485 0.0
H1655 H 0.93735 0.53167 0.0981 0.0
H1656 H 0.04457 0.21319 0.01169 0.0
H1657 H 0.03423 0.18004 0.92398 0.0
H1658 H 0.0433 0.13598 0.93195 0.0
H1659 H 0.05395 0.1054 0.96281 0.0
H1660 H 0.06155 0.13455 0.05074 0.0
H1661 H 0.05423 0.18053 0.04376 0.0
C1662 C 0.04425 0.19637 0.99428 0.0
C1663 C 0.0385 0.20081 0.96695 0.0
C1664 C 0.04923 0.16987 0.99904 0.0
C1665 C 0.0383 0.17805 0.94514 0.0
C1666 C 0.04361 0.15248 0.94967 0.0
C1667 C 0.0541 0.12173 0.98065 0.0
C1668 C 0.05905 0.11606 1.0074 0.0
C1669 C 0.04907 0.14797 0.97641 0.0
C1670 C 0.05857 0.13791 0.02989 0.0
C1671 C 0.05411 0.16439 0.0258 0.0
H1672 H 0.16606 0.81366 0.20913 0.0
H1673 H 0.2094 0.83775 0.14435 0.0
H1674 H 0.24768 0.83413 0.17058 0.0
H1675 H 0.26948 0.82378 0.21229 0.0
H1676 H 0.22549 0.79885 0.27642 0.0
H1677 H 0.18764 0.80324 0.25047 0.0
C1678 C 0.18386 0.81825 0.2007 0.0
C1679 C 0.18446 0.8261 0.17451 0.0
C1680 C 0.20606 0.81591 0.21597 0.0
C1681 C 0.20799 0.83175 0.16427 0.0
C1682 C 0.23005 0.82961 0.17935 0.0
C1683 C 0.25162 0.81913 0.2206 0.0
C1684 C 0.25085 0.81099 0.24671 0.0
C1685 C 0.22943 0.82159 0.20526 0.0
C1686 C 0.2272 0.80533 0.25674 0.0
C1687 C 0.2053 0.8078 0.24177 0.0
H1688 H 0.53596 0.88094 0.45059 0.0
H1689 H 0.53984 0.85259 0.52778 0.0
H1690 H 0.54851 0.90157 0.55294 0.0
H1691 H 0.55792 0.95336 0.55312 0.0
H1692 H 0.55341 0.98112 0.47575 0.0
H1693 H 0.54188 0.93213 0.45093 0.0
C1694 C 0.53854 0.88537 0.47295 0.0
C1695 C 0.5374 0.86265 0.48709 0.0
C1696 C 0.54334 0.91383 0.48742 0.0
C1697 C 0.54063 0.86926 0.51614 0.0
C1698 C 0.54564 0.89745 0.53061 0.0
C1699 C 0.55378 0.94866 0.53087 0.0
C1700 C 0.55587 0.97127 0.5165 0.0
C1701 C 0.54736 0.92004 0.51653 0.0
C1702 C 0.55124 0.96449 0.48754 0.0
C1703 C 0.54489 0.9363 0.47325 0.0
H1704 H 0.52622 0.30123 0.64474 0.0
H1705 H 0.58248 0.32875 0.71487 0.0
H1706 H 0.55005 0.3231 0.74607 0.0
H1707 H 0.50598 0.3091 0.75384 0.0
H1708 H 0.44905 0.28107 0.6845 0.0
H1709 H 0.48124 0.28878 0.65284 0.0
C1710 C 0.53136 0.30604 0.66685 0.0
C1711 C 0.55692 0.31526 0.67734 0.0
C1712 C 0.51243 0.30279 0.68492 0.0
C1713 C 0.56311 0.32155 0.7061 0.0
C1714 C 0.54452 0.31833 0.72404 0.0
C1715 C 0.50052 0.30458 0.73179 0.0
C1716 C 0.475 0.29419 0.72168 0.0
C1717 C 0.51916 0.30875 0.71372 0.0
C1718 C 0.46843 0.28918 0.693 0.0
C1719 C 0.48691 0.29338 0.67483 0.0
H1720 H 0.02627 0.79398 0.58927 0.0
H1721 H 0.04342 0.86183 0.66042 0.0
H1722 H 0.06008 0.89491 0.63125 0.0
H1723 H 0.07007 0.90421 0.58574 0.0
H1724 H 0.0511 0.83651 0.51439 0.0
H1725 H 0.03555 0.80343 0.54373 0.0
C1726 C 0.03359 0.81603 0.59843 0.0
C1727 C 0.03359 0.82548 0.62697 0.0
C1728 C 0.04309 0.83481 0.58159 0.0
C1729 C 0.04313 0.85408 0.6385 0.0
C1730 C 0.05273 0.87294 0.62185 0.0
C1731 C 0.0623 0.88228 0.57649 0.0
C1732 C 0.06171 0.87295 0.54779 0.0
C1733 C 0.05282 0.8635 0.59338 0.0
C1734 C 0.05213 0.84427 0.53639 0.0
C1735 C 0.04299 0.82537 0.55313 0.0
H1736 H 0.57589 0.86925 0.83588 0.0
H1737 H 0.53844 0.78942 0.85259 0.0
H1738 H 0.49874 0.79444 0.83025 0.0
H1739 H 0.47514 0.82177 0.80646 0.0
H1740 H 0.51161 0.90528 0.79679 0.0
H1741 H 0.55149 0.89819 0.81518 0.0
C1742 C 0.55903 0.85284 0.83424 0.0
C1743 C 0.55992 0.82871 0.84513 0.0
C1744 C 0.53625 0.85653 0.82262 0.0
C1745 C 0.53802 0.80794 0.8439 0.0
C1746 C 0.51543 0.81088 0.83124 0.0
C1747 C 0.49157 0.83879 0.8088 0.0
C1748 C 0.49004 0.86403 0.79995 0.0
C1749 C 0.51431 0.83521 0.82072 0.0
C1750 C 0.51202 0.88531 0.80264 0.0
C1751 C 0.53491 0.88143 0.81347 0.0
H1752 H 0.48768 0.18537 0.09258 0.0
H1753 H 0.52105 0.16812 0.16722 0.0
H1754 H 0.5313 0.12609 0.14102 0.0
H1755 H 0.53662 0.09906 0.09652 0.0
H1756 H 0.50152 0.11429 0.02186 0.0
H1757 H 0.48606 0.15239 0.04854 0.0
C1758 C 0.49672 0.17205 0.10314 0.0
C1759 C 0.50413 0.18008 0.1316 0.0
C1760 C 0.50277 0.14804 0.08794 0.0
C1761 C 0.5154 0.16247 0.14522 0.0
C1762 C 0.52141 0.13854 0.13026 0.0
C1763 C 0.52542 0.11047 0.08597 0.0
C1764 C 0.52167 0.10507 0.05701 0.0
C1765 C 0.51616 0.13189 0.1015 0.0
C1766 C 0.50608 0.11922 0.04395 0.0
C1767 C 0.49693 0.14079 0.05925 0.0
H1768 H 0.17881 0.32286 0.3176 0.0
H1769 H 0.21878 0.32628 0.39656 0.0
H1770 H 0.25759 0.32619 0.37509 0.0
H1771 H 0.27942 0.32197 0.33367 0.0
H1772 H 0.24045 0.31865 0.25444 0.0
H1773 H 0.20202 0.32301 0.27627 0.0
C1774 C 0.19606 0.32367 0.33005 0.0
C1775 C 0.19592 0.32413 0.35853 0.0
C1776 C 0.21844 0.32414 0.31761 0.0
C1777 C 0.21842 0.32567 0.37456 0.0
C1778 C 0.24061 0.32574 0.36234 0.0
C1779 C 0.26255 0.32254 0.32128 0.0
C1780 C 0.2623 0.31929 0.29255 0.0
C1781 C 0.24074 0.32458 0.33389 0.0
C1782 C 0.24071 0.32071 0.2766 0.0
C1783 C 0.21884 0.32313 0.28908 0.0
H1784 H 0.0231 0.10227 0.21208 0.0
H1785 H 0.95887 0.03431 0.18265 0.0
H1786 H 0.97485 0.02572 0.13763 0.0
H1787 H 1.0076 0.03658 0.10427 0.0
H1788 H 0.07064 0.10614 0.13313 0.0
H1789 H 0.05511 0.1141 0.17828 0.0
C1790 C 0.01236 0.08544 0.19605 0.0
C1791 C 0.98911 0.06902 0.20246 0.0
C1792 C 0.02181 0.08052 0.16887 0.0
C1793 C 0.97646 0.04766 0.17989 0.0
C1794 C 0.9858 0.04261 0.15348 0.0
C1795 C 0.01817 0.05364 0.1202 0.0
C1796 C 0.04125 0.07033 0.11368 0.0
C1797 C 1.00855 0.05876 0.14728 0.0
C1798 C 0.05349 0.0922 0.13603 0.0
C1799 C 0.04432 0.097 0.16253 0.0
H1800 H 0.26888 0.65054 0.44511 0.0
H1801 H 0.33636 0.71306 0.47793 0.0
H1802 H 0.32505 0.744 0.44822 0.0
H1803 H 0.29231 0.75653 0.42034 0.0
H1804 H 0.22353 0.69518 0.38957 0.0
H1805 H 0.23879 0.6606 0.41168 0.0
C1806 C 0.28149 0.67056 0.44509 0.0
C1807 C 0.30323 0.67977 0.46384 0.0
C1808 C 0.27422 0.68874 0.42908 0.0
C1809 C 0.31942 0.70572 0.46375 0.0
C1810 C 0.31283 0.72348 0.44699 0.0
C1811 C 0.2809 0.73536 0.41777 0.0
C1812 C 0.25666 0.72855 0.40369 0.0
C1813 C 0.28967 0.71577 0.43072 0.0
C1814 C 0.24203 0.70112 0.40087 0.0
C1815 C 0.25081 0.68129 0.41332 0.0
H1816 H 0.64511 0.0418 0.69877 0.0
H1817 H 0.69808 1.01557 0.64457 0.0
H1818 H 0.66781 1.0106 0.60457 0.0
H1819 H 0.6287 0.01868 0.58527 0.0
H1820 H 0.57705 0.04905 0.63868 0.0
H1821 H 0.60411 0.04642 0.67916 0.0
C1822 C 0.64993 0.03472 0.67821 0.0
C1823 C 0.67388 0.02942 0.67447 0.0
C1824 C 0.63269 0.03255 0.6554 0.0
C1825 C 0.67987 0.02008 0.64783 0.0
C1826 C 0.66258 0.01719 0.62504 0.0
C1827 C 0.62323 0.02449 0.60581 0.0
C1828 C 0.60123 0.03451 0.60921 0.0
C1829 C 0.6393 0.02413 0.62863 0.0
C1830 C 0.59391 0.04126 0.63569 0.0
C1831 C 0.60952 0.04006 0.65874 0.0
H1832 H 0.34115 0.38739 0.94387 0.0
H1833 H 0.33023 0.30862 0.97208 0.0
H1834 H 0.32532 0.28289 0.92429 0.0
H1835 H 0.32155 0.28248 0.87391 0.0
H1836 H 0.33218 0.36125 0.846 0.0
H1837 H 0.33995 0.3871 0.89383 0.0
C1838 C 0.3378 0.36459 0.93962 0.0
C1839 C 0.33586 0.35004 0.96177 0.0
C1840 C 0.33505 0.34985 0.91194 0.0
C1841 C 0.33169 0.32046 0.95563 0.0
C1842 C 0.32888 0.30569 0.92821 0.0
C1843 C 0.32615 0.30532 0.87838 0.0
C1844 C 0.32707 0.31991 0.85633 0.0
C1845 C 0.33025 0.3201 0.90613 0.0
C1846 C 0.33216 0.34951 0.86248 0.0
C1847 C 0.33636 0.36431 0.8899 0.0
H1848 H 0.96882 0.06233 0.38944 0.0
H1849 H 0.03433 0.09509 0.35182 0.0
H1850 H 0.06103 0.09264 0.3925 0.0
H1851 H 0.06743 0.08194 0.44053 0.0
H1852 H 1.00243 0.04956 0.47885 0.0
H1853 H 0.97539 0.05103 0.43777 0.0
C1854 C 0.98894 0.06907 0.38981 0.0
C1855 C 0.99871 0.07922 0.36599 0.0
C1856 C 1.00499 0.06738 0.41423 0.0
C1857 C 0.02528 0.08734 0.36859 0.0
C1858 C 0.04094 0.08586 0.39239 0.0
C1859 C 0.04735 0.0746 0.44001 0.0
C1860 C 0.03787 0.06433 0.46379 0.0
C1861 C 0.03129 0.0759 0.41559 0.0
C1862 C 0.01129 0.05644 0.4616 0.0
C1863 C 0.99548 0.0576 0.43767 0.0
H1864 H 0.31893 0.73128 0.60177 0.0
H1865 H 0.28824 0.65455 0.62946 0.0
H1866 H 0.28494 0.68164 0.67473 0.0
H1867 H 0.29223 0.72643 0.70661 0.0
H1868 H 0.3242 0.80345 0.68026 0.0
H1869 H 0.32483 0.7769 0.6338 0.0
C1870 C 0.31166 0.72052 0.61779 0.0
C1871 C 0.30418 0.69098 0.61249 0.0
C1872 C 0.30984 0.73621 0.64378 0.0
C1873 C 0.29445 0.67726 0.63322 0.0
C1874 C 0.29239 0.69272 0.65902 0.0
C1875 C 0.29939 0.73754 0.69083 0.0
C1876 C 0.30908 0.76675 0.69719 0.0
C1877 C 0.30023 0.72213 0.66455 0.0
C1878 C 0.31737 0.78083 0.6761 0.0
C1879 C 0.31773 0.76566 0.64955 0.0
H1880 H 0.65095 0.03843 0.78013 0.0
H1881 H 0.71351 0.07389 0.84254 0.0
H1882 H 0.68525 0.09092 0.87462 0.0
H1883 H 0.64298 0.09708 0.88386 0.0
H1884 H 0.58114 0.0637 0.82018 0.0
H1885 H 0.60922 0.04525 0.78898 0.0
C1886 C 0.65834 0.04943 0.80094 0.0
C1887 C 0.68411 0.05455 0.80926 0.0
C1888 C 0.64227 0.06011 0.81861 0.0
C1889 C 0.69362 0.06946 0.83594 0.0
C1890 C 0.67754 0.07938 0.8541 0.0
C1891 C 0.63572 0.08578 0.86312 0.0
C1892 C 0.6101 0.08163 0.85422 0.0
C1893 C 0.6519 0.07515 0.84547 0.0
C1894 C 0.60087 0.06735 0.82727 0.0
C1895 C 0.61682 0.05655 0.80961 0.0
H1896 H 0.31592 0.32226 0.10251 0.0
H1897 H 0.3473 0.40741 0.14558 0.0
H1898 H 0.34013 0.39332 0.18972 0.0
H1899 H 0.3248 0.35683 0.21661 0.0
H1900 H 0.29516 0.27136 0.17384 0.0
H1901 H 0.30064 0.28566 0.12967 0.0
C1902 C 0.32129 0.33773 0.12154 0.0
C1903 C 0.33236 0.36594 0.12042 0.0
C1904 C 0.31703 0.32946 0.14718 0.0
C1905 C 0.33889 0.38558 0.14552 0.0
C1906 C 0.33472 0.37753 0.17092 0.0
C1907 C 0.31998 0.34115 0.19776 0.0
C1908 C 0.30977 0.31277 0.19908 0.0
C1909 C 0.32387 0.3495 0.17211 0.0
C1910 C 0.30268 0.2933 0.17394 0.0
C1911 C 0.30613 0.30147 0.14845 0.0
H1912 H 0.30946 0.03768 0.03513 0.0
H1913 H 0.26285 0.96453 0.05636 0.0
H1914 H 0.23276 0.99231 0.07232 0.0
H1915 H 0.21918 0.03683 0.07904 0.0
H1916 H 0.26449 0.10965 0.05602 0.0
H1917 H 0.29606 0.08273 0.04264 0.0
C1918 C 0.2927 0.02786 0.04323 0.0
C1919 C 0.28826 0.9991 0.04441 0.0
C1920 C 0.27544 0.04392 0.05228 0.0
C1921 C 0.26654 0.98659 0.05502 0.0
C1922 C 0.2494 1.00247 0.06427 0.0
C1923 C 0.236 0.04681 0.07111 0.0
C1924 C 0.23947 0.07509 0.06834 0.0
C1925 C 0.25361 0.03107 0.06282 0.0
C1926 C 0.26153 0.08797 0.05856 0.0
C1927 C 0.27943 0.07251 0.05066 0.0
H1928 H 0.72753 0.61325 0.98659 0.0
H1929 H 0.71167 0.69132 0.02766 0.0
H1930 H 0.66924 0.667 0.03234 0.0
H1931 H 0.63735 0.62345 0.02727 0.0
H1932 H 0.65111 0.54559 0.98334 0.0
H1933 H 0.69339 0.56981 0.97725 0.0
C1934 C 0.71469 0.62495 0.99632 0.0
C1935 C 0.72296 0.65411 1.00696 0.0
C1936 C 0.68995 0.6108 0.9987 0.0
C1937 C 0.70595 0.66893 0.0193 0.0
C1938 C 0.68163 0.655 0.0221 0.0
C1939 C 0.64947 0.61163 0.0163 0.0
C1940 C 0.64107 0.58237 1.00652 0.0
C1941 C 0.67355 0.62589 0.01229 0.0
C1942 C 0.65706 0.56785 0.9917 0.0
C1943 C 0.68132 0.5818 0.98812 0.0
H1944 H 0.76015 0.45976 0.31421 0.0
H1945 H 0.71876 0.42699 0.23417 0.0
H1946 H 0.73946 0.38718 0.22838 0.0
H1947 H 0.76907 0.35817 0.24602 0.0
H1948 H 0.80712 0.38893 0.32778 0.0
H1949 H 0.78903 0.43048 0.33204 0.0
C1950 C 0.75546 0.44423 0.29521 0.0
C1951 C 0.73696 0.44828 0.2746 0.0
C1952 C 0.76769 0.41988 0.29189 0.0
C1953 C 0.73224 0.42618 0.25081 0.0
C1954 C 0.74445 0.40273 0.24736 0.0
C1955 C 0.77448 0.37431 0.26452 0.0
C1956 C 0.79231 0.3698 0.28564 0.0
C1957 C 0.76243 0.39886 0.26762 0.0
C1958 C 0.79576 0.39117 0.30994 0.0
C1959 C 0.78471 0.41541 0.3127 0.0
H1960 H 0.91625 0.50977 0.51562 0.0
H1961 H 0.91991 0.42333 0.51469 0.0
H1962 H 0.96399 0.43393 0.50653 0.0
H1963 H 1.00239 0.46874 0.50444 0.0
H1964 H 0.99924 0.55589 0.51031 0.0
H1965 H 0.95416 0.54398 0.51062 0.0
C1966 C 0.92667 0.49323 0.51342 0.0
C1967 C 0.91503 0.46595 0.51617 0.0
C1968 C 0.9521 0.49958 0.50931 0.0
C1969 C 0.92863 0.44463 0.51308 0.0
C1970 C 0.95378 0.45064 0.50831 0.0
C1971 C 0.99171 0.48501 0.50526 0.0
C1972 C 1.00424 0.51311 0.50698 0.0
C1973 C 0.96585 0.47818 0.50706 0.0
C1974 C 0.99026 0.53405 0.50838 0.0
C1975 C 0.96436 0.52727 0.50894 0.0
H1976 H 0.35088 0.07279 0.31031 0.0
H1977 H 0.40621 0.13601 0.28448 0.0
H1978 H 0.37359 0.14745 0.25546 0.0
H1979 H 0.32986 0.13913 0.23718 0.0
H1980 H 0.27366 0.07875 0.26491 0.0
H1981 H 0.30645 0.06496 0.29228 0.0
C1982 C 0.35571 0.08949 0.29879 0.0
C1983 C 0.38086 0.10378 0.29965 0.0
C1984 C 0.33696 0.09541 0.28163 0.0
C1985 C 0.38694 0.125 0.2843 0.0
C1986 C 0.3684 0.13121 0.26742 0.0
C1987 C 0.32496 0.12234 0.24863 0.0
C1988 C 0.29967 0.10944 0.24874 0.0
C1989 C 0.34352 0.11618 0.26558 0.0
C1990 C 0.29316 0.08829 0.26405 0.0
C1991 C 0.31181 0.08097 0.28012 0.0
H1992 H 0.37387 0.18204 0.56408 0.0
H1993 H 0.34934 0.13166 0.48273 0.0
H1994 H 0.38122 0.10449 0.48812 0.0
H1995 H 0.41398 0.0924 0.5174 0.0
H1996 H 0.43646 0.14028 0.59989 0.0
H1997 H 0.40779 0.17106 0.59276 0.0
C1998 C 0.3758 0.1654 0.5474 0.0
C1999 C 0.35927 0.15893 0.52301 0.0
C2000 C 0.39378 0.14926 0.55096 0.0
C2001 C 0.36178 0.13704 0.50173 0.0
C2002 C 0.38 0.12144 0.50481 0.0
C2003 C 0.41285 0.10993 0.53354 0.0
C2004 C 0.42744 0.1144 0.55899 0.0
C2005 C 0.3958 0.12698 0.52951 0.0
C2006 C 0.42555 0.13674 0.58005 0.0
C2007 C 0.40909 0.15422 0.57599 0.0
H2008 H 0.77193 0.61154 0.29559 0.0
H2009 H 0.69813 0.62129 0.27005 0.0
H2010 H 0.71517 0.67047 0.26815 0.0
H2011 H 0.75124 0.71245 0.27327 0.0
H2012 H 0.82446 0.70411 0.30245 0.0
H2013 H 0.80786 0.65455 0.30308 0.0
C2014 C 0.75943 0.62425 0.28956 0.0
C2015 C 0.73325 0.61141 0.28282 0.0
C2016 C 0.7695 0.65369 0.28896 0.0
C2017 C 0.71808 0.62947 0.2754 0.0
C2018 C 0.72796 0.6581 0.27426 0.0
C2019 C 0.76377 0.70001 0.27983 0.0
C2020 C 0.78981 0.7132 0.28716 0.0
C2021 C 0.75369 0.67075 0.28094 0.0
C2022 C 0.80482 0.69556 0.29584 0.0
C2023 C 0.79511 0.66671 0.29644 0.0
H2024 H 0.85967 0.47529 0.80842 0.0
H2025 H 0.92883 0.45996 0.84248 0.0
H2026 H 0.91121 0.40919 0.8316 0.0
H2027 H 0.87707 0.36925 0.80969 0.0
H2028 H 0.80907 0.38439 0.77303 0.0
H2029 H 0.82551 0.43543 0.78681 0.0
C2030 C 0.87068 0.46084 0.81393 0.0
C2031 C 0.89538 0.47116 0.82638 0.0
C2032 C 0.86081 0.4318 0.80664 0.0
C2033 C 0.9097 0.45233 0.83299 0.0
C2034 C 0.89975 0.42338 0.82655 0.0
C2035 C 0.86579 0.3839 0.80534 0.0
C2036 C 0.84157 0.37365 0.7918 0.0
C2037 C 0.8755 0.41292 0.81298 0.0
C2038 C 0.82751 0.39229 0.78434 0.0
C2039 C 0.83688 0.42129 0.79219 0.0
H2040 H 0.12523 0.9282 0.11856 0.0
H2041 H 0.0866 0.8699 0.0461 0.0
H2042 H 0.07713 0.90931 0.02626 0.0
H2043 H 0.07965 0.96211 0.02965 0.0
H2044 H 0.11623 0.01744 0.1055 0.0
H2045 H 0.12745 0.97865 0.122 0.0
C2046 C 0.11485 0.92387 0.09831 0.0
C2047 C 0.10691 0.89549 0.08414 0.0
C2048 C 0.10916 0.9468 0.087 0.0
C2049 C 0.09333 0.89114 0.05782 0.0
C2050 C 0.08783 0.91394 0.04634 0.0
C2051 C 0.08957 0.96582 0.04997 0.0
C2052 C 0.09597 0.99389 0.06612 0.0
C2053 C 0.0955 0.94221 0.06075 0.0
C2054 C 0.11009 0.997 0.09202 0.0
C2055 C 0.11671 0.97441 0.10196 0.0
H2056 H 0.93173 0.27421 0.92374 0.0
H2057 H 0.97632 0.2751 0.85514 0.0
H2058 H 0.94105 0.28037 0.82575 0.0
H2059 H 0.89816 0.28739 0.8194 0.0
H2060 H 0.85134 0.28297 0.88557 0.0
H2061 H 0.88655 0.27746 0.91573 0.0
C2062 C 0.9337 0.27532 0.90232 0.0
C2063 C 0.95717 0.2742 0.89202 0.0
C2064 C 0.91275 0.27799 0.88487 0.0
C2065 C 0.95887 0.27576 0.86402 0.0
C2066 C 0.93855 0.27888 0.847 0.0
C2067 C 0.89502 0.28383 0.83986 0.0
C2068 C 0.8713 0.28454 0.84937 0.0
C2069 C 0.91539 0.28012 0.85709 0.0
C2070 C 0.86895 0.28215 0.87713 0.0
C2071 C 0.88926 0.27899 0.89455 0.0
H2072 H 0.57697 0.22486 0.56039 0.0
H2073 H 0.64237 0.23915 0.61868 0.0
H2074 H 0.63927 0.18844 0.61276 0.0
H2075 H 0.61598 0.13919 0.59386 0.0
H2076 H 0.5551 0.1242 0.52994 0.0
H2077 H 0.55803 0.17513 0.53542 0.0
C2078 C 0.59071 0.21691 0.57156 0.0
C2079 C 0.60979 0.2363 0.59031 0.0
C2080 C 0.58949 0.18724 0.56716 0.0
C2081 C 0.62748 0.22516 0.60421 0.0
C2082 C 0.62566 0.19595 0.60091 0.0
C2083 C 0.60398 0.14706 0.58036 0.0
C2084 C 0.58585 0.12753 0.56086 0.0
C2085 C 0.60656 0.17667 0.58277 0.0
C2086 C 0.5698 0.13846 0.54447 0.0
C2087 C 0.57134 0.16775 0.54781 0.0
H2088 H 0.58427 0.75618 0.36812 0.0
H2089 H 0.61477 0.82569 0.43554 0.0
H2090 H 0.65321 0.83672 0.41346 0.0
H2091 H 0.67742 0.82858 0.37322 0.0
H2092 H 0.64758 0.75833 0.30657 0.0
H2093 H 0.61014 0.74542 0.33003 0.0
C2094 C 0.59939 0.77363 0.37806 0.0
C2095 C 0.59639 0.7902 0.40344 0.0
C2096 C 0.62179 0.77965 0.36536 0.0
C2097 C 0.6164 0.81257 0.41605 0.0
C2098 C 0.63847 0.81893 0.40339 0.0
C2099 C 0.66301 0.81 0.36427 0.0
C2100 C 0.66553 0.79409 0.33839 0.0
C2101 C 0.64134 0.80283 0.37788 0.0
C2102 C 0.64636 0.77052 0.3267 0.0
C2103 C 0.6248 0.76333 0.34001 0.0
H2104 H 0.08925 0.23313 0.40874 0.0
H2105 H 0.13777 0.28592 0.47865 0.0
H2106 H 0.12104 0.25344 0.5082 0.0
H2107 H 0.08853 0.21327 0.5154 0.0
H2108 H 0.03857 0.16231 0.44587 0.0
H2109 H 0.06009 0.19036 0.41493 0.0
C2110 C 0.09647 0.23728 0.43034 0.0
C2111 C 0.11451 0.2621 0.44151 0.0
C2112 C 0.08634 0.21883 0.44736 0.0
C2113 C 0.12372 0.26711 0.46954 0.0
C2114 C 0.11411 0.24855 0.4865 0.0
C2115 C 0.08286 0.20797 0.49337 0.0
C2116 C 0.06202 0.18588 0.48283 0.0
C2117 C 0.09484 0.22481 0.47584 0.0
C2118 C 0.05457 0.1793 0.45434 0.0
C2119 C 0.06678 0.19541 0.4367 0.0
H2120 H 0.59943 0.29708 0.21404 0.0
H2121 H 0.5551 0.22233 0.23479 0.0
H2122 H 0.59267 0.21175 0.25551 0.0
H2123 H 0.638 0.22207 0.26529 0.0
H2124 H 0.68254 0.2993 0.24924 0.0
H2125 H 0.64509 0.30996 0.2283 0.0
C2126 C 0.59803 0.27869 0.22343 0.0
C2127 C 0.57453 0.26052 0.22288 0.0
C2128 C 0.61976 0.27286 0.23567 0.0
C2129 C 0.57293 0.23678 0.23512 0.0
C2130 C 0.59444 0.23059 0.24681 0.0
C2131 C 0.63968 0.24165 0.25793 0.0
C2132 C 0.66338 0.25967 0.25892 0.0
C2133 C 0.61795 0.24831 0.24693 0.0
C2134 C 0.66482 0.28452 0.24832 0.0
C2135 C 0.6433 0.29087 0.23656 0.0
H2136 H 0.64912 0.92756 0.95512 0.0
H2137 H 0.60133 0.91626 0.87943 0.0
H2138 H 0.58702 0.9589 0.89704 0.0
H2139 H 0.58357 0.99511 0.93645 0.0
H2140 H 0.63426 1.00949 0.01051 0.0
H2141 H 0.65215 0.97012 0.99096 0.0
C2142 C 0.63597 0.93483 0.94237 0.0
C2143 C 0.62591 0.91869 0.91635 0.0
C2144 C 0.62804 0.95957 0.95246 0.0
C2145 C 0.60922 0.9284 0.89966 0.0
C2146 C 0.60092 0.95268 0.90974 0.0
C2147 C 0.59881 0.98997 0.94816 0.0
C2148 C 0.60644 1.00394 0.97556 0.0
C2149 C 0.60951 0.96781 0.9365 0.0
C2150 C 0.62696 0.99784 0.98996 0.0
C2151 C 0.6374 0.97551 0.97872 0.0
H2152 H 0.94754 0.76605 0.74234 0.0
H2153 H 0.92346 0.76546 0.6574 0.0
H2154 H 0.8802 0.75981 0.66768 0.0
H2155 H 0.8492 0.75608 0.7005 0.0
H2156 H 0.87185 0.75813 0.78577 0.0
H2157 H 0.91563 0.76143 0.77568 0.0
C2158 C 0.9328 0.76475 0.72617 0.0
C2159 C 0.93874 0.76626 0.69916 0.0
C2160 C 0.90774 0.76151 0.73221 0.0
C2161 C 0.91945 0.7645 0.67838 0.0
C2162 C 0.89465 0.76108 0.68416 0.0
C2163 C 0.86377 0.75714 0.71683 0.0
C2164 C 0.85781 0.75817 0.74399 0.0
C2165 C 0.88862 0.75961 0.71092 0.0
C2166 C 0.87646 0.75865 0.76493 0.0
C2167 C 0.90135 0.76034 0.75909 0.0
H2168 H 0.17668 0.05549 0.88738 0.0
H2169 H 0.117 0.99328 0.83661 0.0
H2170 H 0.09214 0.9928 0.87601 0.0
H2171 H 0.08584 1.00988 0.92673 0.0
H2172 H 0.146 0.07231 0.97685 0.0
H2173 H 0.17053 0.07233 0.9376 0.0
C2174 C 0.15824 0.04166 0.88453 0.0
C2175 C 0.14955 0.02433 0.85741 0.0
C2176 C 0.14336 0.04138 0.90819 0.0
C2177 C 0.12515 1.007 0.85603 0.0
C2178 C 0.11056 1.0067 0.87913 0.0
C2179 C 0.10431 0.02361 0.92948 0.0
C2180 C 0.11316 0.04119 0.95654 0.0
C2181 C 0.11918 0.02375 0.90568 0.0
C2182 C 0.13761 0.05838 0.95763 0.0
C2183 C 0.15209 0.05847 0.93458 0.0
H2184 H 0.85684 0.44717 0.62844 0.0
H2185 H 0.81782 0.36802 0.57753 0.0
H2186 H 0.8253 0.34353 0.615 0.0
H2187 H 0.84812 0.34413 0.65951 0.0
H2188 H 0.88649 0.42361 0.71063 0.0
H2189 H 0.874 0.44858 0.67568 0.0
C2190 C 0.84964 0.42462 0.62576 0.0
C2191 C 0.83721 0.40927 0.60027 0.0
C2192 C 0.85415 0.41077 0.64722 0.0
C2193 C 0.82756 0.38019 0.59703 0.0
C2194 C 0.83195 0.36619 0.61836 0.0
C2195 C 0.85319 0.36695 0.66336 0.0
C2196 C 0.86871 0.38194 0.68734 0.0
C2197 C 0.84597 0.38117 0.64319 0.0
C2198 C 0.87514 0.41153 0.69197 0.0
C2199 C 0.86794 0.42583 0.67207 0.0
H2200 H 0.49755 0.03738 0.36865 0.0
H2201 H 0.46393 0.10264 0.41021 0.0
H2202 H 0.49031 0.10554 0.45288 0.0
H2203 H 0.52083 0.08748 0.47867 0.0
H2204 H 0.55294 0.02065 0.43755 0.0
H2205 H 0.52934 0.02069 0.39397 0.0
C2206 C 0.49611 0.05241 0.38698 0.0
C2207 C 0.47875 0.06966 0.38643 0.0
C2208 C 0.511 0.05364 0.41136 0.0
C2209 C 0.47712 0.08908 0.41025 0.0
C2210 C 0.49215 0.09071 0.43459 0.0
C2211 C 0.52275 0.07298 0.46015 0.0
C2212 C 0.53853 0.05403 0.46125 0.0
C2213 C 0.50881 0.07275 0.43544 0.0
C2214 C 0.54105 0.03557 0.43711 0.0
C2215 C 0.52746 0.03547 0.41228 0.0
H2216 H 0.80824 0.7722 0.10623 0.0
H2217 H 0.79836 0.68352 0.10765 0.0
H2218 H 0.80193 0.69365 0.15747 0.0
H2219 H 0.80967 0.72686 0.20114 0.0
H2220 H 0.81929 0.81567 0.20292 0.0
H2221 H 0.81363 0.80644 0.15198 0.0
C2222 C 0.80683 0.75516 0.11748 0.0
C2223 C 0.80318 0.72702 0.10274 0.0
C2224 C 0.80871 0.76111 0.14692 0.0
C2225 C 0.80119 0.70533 0.11797 0.0
C2226 C 0.80324 0.71105 0.1467 0.0
C2227 C 0.81021 0.74424 0.1904 0.0
C2228 C 0.81456 0.77184 0.20586 0.0
C2229 C 0.80719 0.73874 0.16138 0.0
C2230 C 0.81548 0.79414 0.19159 0.0
C2231 C 0.81247 0.78882 0.1624 0.0
H2232 H 0.17731 0.04743 0.67987 0.0
H2233 H 0.11189 1.00347 0.71017 0.0
H2234 H 0.08596 1.00692 0.6691 0.0
H2235 H 0.08059 0.02129 0.62176 0.0
H2236 H 0.14679 0.06466 0.59219 0.0
H2237 H 0.17198 0.06247 0.63386 0.0
C2238 C 0.15738 0.03843 0.67786 0.0
C2239 C 0.14747 0.02485 0.69968 0.0
C2240 C 0.14188 0.04054 0.65327 0.0
C2241 C 0.1211 1.01391 0.69494 0.0
C2242 C 0.10587 0.01596 0.67088 0.0
C2243 C 0.10041 0.03095 0.62441 0.0
C2244 C 0.11085 0.04427 0.60255 0.0
C2245 C 0.11576 0.0292 0.64946 0.0
C2246 C 0.13719 0.055 0.60767 0.0
C2247 C 0.15203 0.05356 0.632 0.0
H2248 H 0.85426 0.4182 0.44182 0.0
H2249 H 0.79582 0.35851 0.46753 0.0
H2250 H 0.7957 0.32434 0.42486 0.0
H2251 H 0.81195 0.31248 0.37984 0.0
H2252 H 0.87067 0.37337 0.35575 0.0
H2253 H 0.87191 0.40546 0.39908 0.0
C2254 C 0.84126 0.39783 0.43799 0.0
C2255 C 0.82463 0.39105 0.45732 0.0
C2256 C 0.84175 0.37834 0.41404 0.0
C2257 C 0.80849 0.36427 0.45258 0.0
C2258 C 0.80857 0.34474 0.42836 0.0
C2259 C 0.82478 0.33282 0.38394 0.0
C2260 C 0.84029 0.34088 0.36391 0.0
C2261 C 0.82506 0.35166 0.40885 0.0
C2262 C 0.85792 0.36677 0.37032 0.0
C2263 C 0.85863 0.38531 0.39511 0.0
H2264 H 0.50399 0.06927 0.26831 0.0
H2265 H 0.43574 0.02176 0.21909 0.0
H2266 H 0.45931 1.00996 0.18017 0.0
H2267 H 0.49944 1.01096 0.16118 0.0
H2268 H 0.56809 0.05626 0.2108 0.0
H2269 H 0.54429 0.07093 0.24885 0.0
C2270 C 0.49432 0.05666 0.24891 0.0
C2271 C 0.46828 0.04641 0.24639 0.0
C2272 C 0.50806 0.04929 0.22696 0.0
C2273 C 0.45586 0.0298 0.22139 0.0
C2274 C 0.46929 0.023 0.19921 0.0
C2275 C 0.50913 0.02424 0.18027 0.0
C2276 C 0.53537 0.03258 0.18335 0.0
C2277 C 0.49541 0.03226 0.20194 0.0
C2278 C 0.54785 0.04944 0.20821 0.0
C2279 C 0.53427 0.05792 0.22982 0.0
H2280 H 0.7751 0.7425 0.93768 0.0
H2281 H 0.84646 0.71896 0.93988 0.0
H2282 H 0.85308 0.73193 0.89507 0.0
H2283 H 0.83791 0.74821 0.85382 0.0
H2284 H 0.76479 0.76749 0.84966 0.0
H2285 H 0.75953 0.75793 0.89587 0.0
C2286 C 0.79222 0.74058 0.92849 0.0
C2287 C 0.81042 0.73009 0.94246 0.0
C2288 C 0.79549 0.74705 0.90194 0.0
C2289 C 0.83221 0.72711 0.92979 0.0
C2290 C 0.83598 0.73446 0.90403 0.0
C2291 C 0.82087 0.75043 0.86307 0.0
C2292 C 0.80184 0.75873 0.84805 0.0
C2293 C 0.81765 0.74416 0.88967 0.0
C2294 C 0.77976 0.76107 0.86044 0.0
C2295 C 0.77675 0.75567 0.88706 0.0
H2296 H 0.86801 0.11724 0.02021 0.0
H2297 H 0.81616 0.04876 0.04274 0.0
H2298 H 0.8459 0.01827 0.03359 0.0
H2299 H 0.88678 1.01123 0.0189 0.0
H2300 H 0.93783 0.08024 0.996 0.0
H2301 H 0.90831 0.11041 1.0058 0.0
C2302 C 0.8632 0.09565 0.02317 0.0
C2303 C 0.83994 0.08523 0.03206 0.0
C2304 C 0.88026 0.07834 0.01781 0.0
C2305 C 0.83402 0.05726 0.03593 0.0
C2306 C 0.85097 0.03982 0.03063 0.0
C2307 C 0.89128 0.03278 0.0158 0.0
C2308 C 0.91451 0.04347 1.00682 0.0
C2309 C 0.87412 0.05011 0.02141 0.0
C2310 C 0.92023 0.07157 1.00323 0.0
C2311 C 0.90332 0.08883 1.00872 0.0
H2312 H 0.41615 0.47687 0.07393 0.0
H2313 H 0.4253 0.40212 0.01939 0.0
H2314 H 0.46782 0.42556 0.0138 0.0
H2315 H 0.50205 0.46757 0.02288 0.0
H2316 H 0.49535 0.54119 0.08072 0.0
H2317 H 0.45259 0.51809 0.08652 0.0
C2318 C 0.42752 0.46572 0.06093 0.0
C2319 C 0.41732 0.43774 0.04693 0.0
C2320 C 0.45245 0.47923 0.05822 0.0
C2321 C 0.43252 0.42356 0.03044 0.0
C2322 C 0.4569 0.43701 0.02714 0.0
C2323 C 0.49137 0.47871 0.03684 0.0
C2324 C 0.50191 0.50667 0.05064 0.0
C2325 C 0.46701 0.46491 0.04071 0.0
C2326 C 0.4877 0.52015 0.06912 0.0
C2327 C 0.46317 0.50679 0.07259 0.0
H2328 H 0.38849 0.65372 0.81214 0.0
H2329 H 0.43233 0.66217 0.74379 0.0
H2330 H 0.41381 0.70115 0.7352 0.0
H2331 H 0.38486 0.73474 0.74583 0.0
H2332 H 0.34508 0.73208 0.81759 0.0
H2333 H 0.3614 0.69089 0.82522 0.0
C2334 C 0.39422 0.6638 0.79519 0.0
C2335 C 0.41256 0.65301 0.77852 0.0
C2336 C 0.3836 0.68816 0.79057 0.0
C2337 C 0.41885 0.66833 0.75731 0.0
C2338 C 0.40795 0.69125 0.75223 0.0
C2339 C 0.37933 0.72537 0.76327 0.0
C2340 C 0.36188 0.73742 0.7801 0.0
C2341 C 0.39021 0.70168 0.76852 0.0
C2342 C 0.35686 0.724 0.80294 0.0
C2343 C 0.36678 0.70001 0.8076 0.0
H2344 H 0.21544 0.58656 0.52547 0.0
H2345 H 0.22289 0.67643 0.53585 0.0
H2346 H 0.17755 0.67049 0.53543 0.0
H2347 H 0.13542 0.63944 0.53082 0.0
H2348 H 0.1288 0.54967 0.51746 0.0
H2349 H 0.17372 0.55584 0.52081 0.0
C2350 C 0.20714 0.60483 0.52768 0.0
C2351 C 0.22245 0.6318 0.53058 0.0
C2352 C 0.18107 0.6013 0.52714 0.0
C2353 C 0.21144 0.65533 0.53345 0.0
C2354 C 0.18552 0.652 0.53326 0.0
C2355 C 0.14391 0.62131 0.52887 0.0
C2356 C 0.12859 0.59414 0.52474 0.0
C2357 C 0.1701 0.62504 0.52995 0.0
C2358 C 0.13983 0.57083 0.52153 0.0
C2359 C 0.16574 0.57433 0.52319 0.0
H2360 H 0.79525 0.01712 0.7747 0.0
H2361 H 0.74045 0.9498 0.72268 0.0
H2362 H 0.75687 0.91504 0.74363 0.0
H2363 H 0.78166 0.90493 0.78244 0.0
H2364 H 0.832 0.97322 0.83848 0.0
H2365 H 0.82263 1.00666 0.8105 0.0
C2366 C 0.78751 0.99477 0.76735 0.0
C2367 C 0.76676 0.98586 0.74731 0.0
C2368 C 0.79587 0.97524 0.78079 0.0
C2369 C 0.7565 0.95696 0.73815 0.0
C2370 C 0.76571 0.93718 0.7503 0.0
C2371 C 0.79081 0.9271 0.78809 0.0
C2372 C 0.80726 0.93694 0.81237 0.0
C2373 C 0.78453 0.94622 0.77256 0.0
C2374 C 0.81908 0.96553 0.81989 0.0
C2375 C 0.81377 0.98453 0.80391 0.0
H2376 H 0.78585 0.96625 0.55259 0.0
H2377 H 0.74998 0.8798 0.51729 0.0
H2378 H 0.712 0.89416 0.50335 0.0
H2379 H 0.69027 0.93145 0.49668 0.0
H2380 H 0.72491 0.01803 0.53161 0.0
H2381 H 0.76165 1.00355 0.55059 0.0
C2382 C 0.7696 0.95055 0.54217 0.0
C2383 C 0.77102 0.92196 0.5357 0.0
C2384 C 0.74753 0.95901 0.53404 0.0
C2385 C 0.74965 0.90193 0.52236 0.0
C2386 C 0.72783 0.91012 0.51431 0.0
C2387 C 0.70568 0.9471 0.50892 0.0
C2388 C 0.70494 0.97578 0.5126 0.0
C2389 C 0.72676 0.93862 0.5194 0.0
C2390 C 0.72497 0.99582 0.52861 0.0
C2391 C 0.74608 0.98753 0.53922 0.0
H2392 H 0.42455 0.46581 0.76174 0.0
H2393 H 0.37057 0.50901 0.79825 0.0
H2394 H 0.34379 0.46377 0.80185 0.0
H2395 H 0.33505 0.41041 0.79536 0.0
H2396 H 0.38948 0.36809 0.75812 0.0
H2397 H 0.41552 0.41309 0.75441 0.0
C2398 C 0.4069 0.46558 0.77042 0.0
C2399 C 0.40012 0.4919 0.77958 0.0
C2400 C 0.39112 0.43884 0.77247 0.0
C2401 C 0.37684 0.48993 0.79077 0.0
C2402 C 0.36129 0.46366 0.79293 0.0
C2403 C 0.35246 0.41075 0.78621 0.0
C2404 C 0.35956 0.38449 0.77706 0.0
C2405 C 0.36807 0.43767 0.78392 0.0
C2406 C 0.38277 0.38687 0.76561 0.0
C2407 C 0.39803 0.41308 0.76338 0.0
H2408 H 0.23706 0.64342 0.25012 0.0
H2409 H 0.29714 0.61829 0.29288 0.0
H2410 H 0.31523 0.66764 0.31446 0.0
H2411 H 0.31447 0.71811 0.31963 0.0
H2412 H 0.25506 0.74247 0.2751 0.0
H2413 H 0.23534 0.69295 0.25659 0.0
C2414 C 0.25416 0.64874 0.26411 0.0
C2415 C 0.26602 0.62747 0.26966 0.0
C2416 C 0.26415 0.67685 0.27651 0.0
C2417 C 0.28787 0.63449 0.28818 0.0
C2418 C 0.29808 0.66258 0.30063 0.0
C2419 C 0.2972 0.71233 0.30587 0.0
C2420 C 0.28651 0.7334 0.29777 0.0
C2421 C 0.28647 0.68394 0.29474 0.0
C2422 C 0.26385 0.72624 0.28068 0.0
C2423 C 0.25258 0.69807 0.27028 0.0
H2424 H 0.5427 0.71107 0.51144 0.0
H2425 H 0.53238 0.67872 0.42359 0.0
H2426 H 0.54115 0.63438 0.43116 0.0
H2427 H 0.5517 0.60349 0.46171 0.0
H2428 H 0.55955 0.63197 0.54975 0.0
H2429 H 0.5523 0.67812 0.54317 0.0
C2430 C 0.54227 0.69434 0.49391 0.0
C2431 C 0.53666 0.69909 0.46667 0.0
C2432 C 0.54719 0.66777 0.49844 0.0
C2433 C 0.53637 0.67649 0.44468 0.0
C2434 C 0.54152 0.65078 0.449 0.0
C2435 C 0.55194 0.61972 0.47967 0.0
C2436 C 0.55692 0.61381 0.50631 0.0
C2437 C 0.54697 0.64603 0.47565 0.0
C2438 C 0.55655 0.63552 0.52897 0.0
C2439 C 0.55213 0.66208 0.52512 0.0
H2440 H 0.66923 0.31768 0.70901 0.0
H2441 H 0.70922 0.3373 0.64046 0.0
H2442 H 0.74855 0.33477 0.66544 0.0
H2443 H 0.7722 0.32638 0.70723 0.0
H2444 H 0.73108 0.3059 0.77487 0.0
H2445 H 0.69245 0.30951 0.75019 0.0
C2446 C 0.68653 0.32158 0.69949 0.0
C2447 C 0.68589 0.32783 0.67266 0.0
C2448 C 0.7093 0.32002 0.71407 0.0
C2449 C 0.7088 0.33258 0.66097 0.0
C2450 C 0.73145 0.33106 0.67532 0.0
C2451 C 0.75482 0.32284 0.71664 0.0
C2452 C 0.75515 0.31668 0.74358 0.0
C2453 C 0.73206 0.32471 0.70195 0.0
C2454 C 0.73205 0.31179 0.75488 0.0
C2455 C 0.70965 0.31352 0.74053 0.0
H2456 H 0.03803 0.37282 0.01206 0.0
H2457 H 0.04244 0.37089 0.92499 0.0
H2458 H 0.0489 0.42159 0.93269 0.0
H2459 H 0.055 0.4674 0.96328 0.0
H2460 H 0.0539 0.47273 0.05077 0.0
H2461 H 0.04413 0.42087 0.04383 0.0
C2462 C 0.04028 0.38347 0.99478 0.0
C2463 C 0.03976 0.36727 0.96779 0.0
C2464 C 0.04449 0.41369 0.99938 0.0
C2465 C 0.04287 0.38209 0.94596 0.0
C2466 C 0.04654 0.41142 0.9503 0.0
C2467 C 0.05235 0.45731 0.98093 0.0
C2468 C 0.05459 0.47435 1.00746 0.0
C2469 C 0.0476 0.42752 0.97681 0.0
C2470 C 0.05158 0.4605 0.02998 0.0
C2471 C 0.04626 0.43065 0.02597 0.0
H2472 H 0.02882 0.7987 0.14856 0.0
H2473 H 0.08317 0.85211 0.21324 0.0
H2474 H 0.05146 0.85024 0.2456 0.0
H2475 H 1.00874 0.83231 0.25627 0.0
H2476 H 0.95385 0.77901 0.19225 0.0
H2477 H 0.98505 0.78228 0.15895 0.0
C2478 C 0.03368 0.81004 0.1697 0.0
C2479 C 0.05851 0.82546 0.1784 0.0
C2480 C 0.01519 0.80893 0.18837 0.0
C2481 C 0.06435 0.84004 0.2059 0.0
C2482 C 0.04618 0.83898 0.22448 0.0
C2483 C 1.00354 0.82144 0.235 0.0
C2484 C 0.97893 0.8053 0.22687 0.0
C2485 C 0.02162 0.82332 0.21605 0.0
C2486 C 0.97252 0.79175 0.19909 0.0
C2487 C 0.99046 0.79346 0.18007 0.0
H2488 H 0.5269 0.28788 0.08548 0.0
H2489 H 0.54825 0.35641 0.15577 0.0
H2490 H 0.56233 0.38905 0.12529 0.0
H2491 H 0.56859 0.39789 0.07885 0.0
H2492 H 0.54417 0.32989 1.00829 0.0
H2493 H 0.53191 0.29706 0.03887 0.0
C2494 C 0.53471 0.30996 0.09414 0.0
C2495 C 0.53665 0.31975 0.12282 0.0
C2496 C 0.54237 0.3286 0.07649 0.0
C2497 C 0.54656 0.34842 0.13375 0.0
C2498 C 0.55464 0.36704 0.11634 0.0
C2499 C 0.56026 0.37599 0.07003 0.0
C2500 C 0.5573 0.36651 0.04117 0.0
C2501 C 0.55256 0.35736 0.08768 0.0
C2502 C 0.54707 0.33782 0.03035 0.0
C2503 C 0.53982 0.31903 0.04783 0.0
H2504 H 0.07929 0.37273 0.34647 0.0
H2505 H 0.04436 0.28707 0.34981 0.0
H2506 H 1.00521 0.29243 0.3268 0.0
H2507 H 0.98094 0.3217 0.30634 0.0
H2508 H 0.01534 0.40864 0.3067 0.0
H2509 H 0.05483 0.40221 0.32702 0.0
C2510 C 0.06317 0.35513 0.34196 0.0
C2511 C 0.06474 0.32946 0.34964 0.0
C2512 C 0.04066 0.35857 0.3293 0.0
C2513 C 0.04362 0.307 0.344 0.0
C2514 C 0.02125 0.31008 0.33089 0.0
C2515 C 0.99691 0.33942 0.31116 0.0
C2516 C 0.99494 0.36564 0.30484 0.0
C2517 C 0.0195 0.33586 0.32364 0.0
C2518 C 0.01621 0.38805 0.31077 0.0
C2519 C 0.03884 0.3845 0.32265 0.0
H2520 H 0.98946 0.68839 0.59627 0.0
H2521 H 0.02362 0.67232 0.67104 0.0
H2522 H 0.03847 0.63361 0.64433 0.0
H2523 H 0.04664 0.6091 0.59953 0.0
H2524 H 0.01097 0.62381 0.52487 0.0
H2525 H 0.99224 0.65876 0.55179 0.0
C2526 C 0.99968 0.67599 0.60676 0.0
C2527 C 1.00583 0.68343 0.63547 0.0
C2528 C 1.00857 0.6542 0.59127 0.0
C2529 C 0.01876 0.66704 0.6489 0.0
C2530 C 0.02749 0.64511 0.63362 0.0
C2531 C 0.03474 0.61985 0.58906 0.0
C2532 C 0.03133 0.61485 0.56007 0.0
C2533 C 0.0234 0.63934 0.60473 0.0
C2534 C 0.01503 0.62825 0.54703 0.0
C2535 C 1.00397 0.64798 0.56245 0.0
H2536 H 0.68185 0.83671 0.81835 0.0
H2537 H 0.71302 0.8202 0.89435 0.0
H2538 H 0.7522 0.8167 0.87442 0.0
H2539 H 0.77635 0.81563 0.83461 0.0
H2540 H 0.74667 0.83437 0.75918 0.0
H2541 H 0.7082 0.84088 0.77993 0.0
C2542 C 0.69731 0.83243 0.83047 0.0
C2543 C 0.6946 0.82815 0.85751 0.0
C2544 C 0.71996 0.83131 0.81915 0.0
C2545 C 0.71477 0.82326 0.87338 0.0
C2546 C 0.73711 0.82134 0.86205 0.0
C2547 C 0.76148 0.8213 0.82284 0.0
C2548 C 0.76369 0.82374 0.7953 0.0
C2549 C 0.73973 0.82492 0.83486 0.0
C2550 C 0.74489 0.83198 0.78033 0.0
C2551 C 0.72302 0.83564 0.79217 0.0
H2552 H 0.52014 0.60015 0.70924 0.0
H2553 H 0.45581 0.53222 0.68018 0.0
H2554 H 0.47194 0.52301 0.6353 0.0
H2555 H 0.50489 0.53324 0.60195 0.0
H2556 H 0.56806 0.60273 0.63052 0.0
H2557 H 0.55234 0.61135 0.67547 0.0
C2558 C 0.50938 0.58321 0.69331 0.0
C2559 C 0.48606 0.56702 0.6998 0.0
C2560 C 0.51895 0.57788 0.66622 0.0
C2561 C 0.47343 0.54546 0.67737 0.0
C2562 C 0.48287 0.54003 0.65104 0.0
C2563 C 0.51547 0.55041 0.61777 0.0
C2564 C 0.53868 0.56684 0.61122 0.0
C2565 C 0.50572 0.55594 0.64477 0.0
C2566 C 0.55086 0.5889 0.63345 0.0
C2567 C 0.54156 0.59411 0.65984 0.0
H2568 H 0.80331 0.17653 0.95345 0.0
H2569 H 0.7369 0.17128 0.99608 0.0
H2570 H 0.72161 0.20232 0.96938 0.0
H2571 H 0.72752 0.23177 0.93533 0.0
H2572 H 0.79088 0.23336 0.88777 0.0
H2573 H 0.80726 0.20333 0.9153 0.0
C2574 C 0.78537 0.18198 0.95643 0.0
C2575 C 0.77103 0.17162 0.97631 0.0
C2576 C 0.77631 0.19931 0.94042 0.0
C2577 C 0.74791 0.17874 0.9804 0.0
C2578 C 0.73927 0.19662 0.96535 0.0
C2579 C 0.74462 0.2251 0.9304 0.0
C2580 C 0.75785 0.23482 0.90945 0.0
C2581 C 0.75332 0.20703 0.94539 0.0
C2582 C 0.78045 0.22659 0.90411 0.0
C2583 C 0.78974 0.20921 0.91967 0.0
H2584 H 0.15471 0.50658 0.17046 0.0
H2585 H 0.19972 0.5894 0.171 0.0
H2586 H 0.1663 0.59967 0.14244 0.0
H2587 H 0.12533 0.58494 0.11674 0.0
H2588 H 0.08203 0.50038 0.10968 0.0
H2589 H 0.11295 0.49142 0.14332 0.0
C2590 C 0.15725 0.52668 0.16393 0.0
C2591 C 0.1797 0.54705 0.17232 0.0
C2592 C 0.13806 0.53234 0.14723 0.0
C2593 C 0.1828 0.57318 0.16418 0.0
C2594 C 0.1636 0.57923 0.14825 0.0
C2595 C 0.12276 0.56446 0.12233 0.0
C2596 C 0.10206 0.54309 0.1103 0.0
C2597 C 0.14131 0.55894 0.13963 0.0
C2598 C 0.09803 0.51711 0.11878 0.0
C2599 C 0.11587 0.51188 0.13755 0.0
H2600 H 0.83365 0.82472 0.45295 0.0
H2601 H 0.84286 0.91375 0.45372 0.0
H2602 H 0.84038 0.90493 0.40389 0.0
H2603 H 0.83327 0.87259 0.35969 0.0
H2604 H 0.82373 0.78346 0.35607 0.0
H2605 H 0.829 0.79156 0.40693 0.0
C2606 C 0.83526 0.84213 0.44217 0.0
C2607 C 0.8382 0.86992 0.45741 0.0
C2608 C 0.8338 0.83693 0.41285 0.0
C2609 C 0.84039 0.89216 0.44289 0.0
C2610 C 0.839 0.88719 0.41421 0.0
C2611 C 0.83262 0.85491 0.37004 0.0
C2612 C 0.8284 0.82754 0.35415 0.0
C2613 C 0.83537 0.85975 0.39899 0.0
C2614 C 0.82739 0.80481 0.36782 0.0
C2615 C 0.83021 0.80948 0.39692 0.0
H2616 H 0.47224 0.58234 0.89217 0.0
H2617 H 0.5257 0.55484 0.8401 0.0
H2618 H 0.54928 0.5458 0.88025 0.0
H2619 H 0.55633 0.54598 0.93277 0.0
H2620 H 0.50017 0.57184 0.98241 0.0
H2621 H 0.47824 0.5812 0.94261 0.0
C2622 C 0.4891 0.5745 0.88917 0.0
C2623 C 0.49651 0.56989 0.86159 0.0
C2624 C 0.50308 0.56895 0.91312 0.0
C2625 C 0.51877 0.5593 0.86001 0.0
C2626 C 0.5326 0.55393 0.88355 0.0
C2627 C 0.53925 0.55346 0.93526 0.0
C2628 C 0.5309 0.55786 0.96271 0.0
C2629 C 0.52525 0.55867 0.91072 0.0
C2630 C 0.50826 0.56784 0.96313 0.0
C2631 C 0.49512 0.57336 0.9397 0.0
H2632 H 0.83289 0.19295 0.12861 0.0
H2633 H 0.77648 0.22601 0.0887 0.0
H2634 H 0.77881 0.26241 0.12986 0.0
H2635 H 0.79455 0.28232 0.17891 0.0
H2636 H 0.84923 0.2469 0.21859 0.0
H2637 H 0.85049 0.21455 0.17584 0.0
C2638 C 0.82136 0.20837 0.12884 0.0
C2639 C 0.80452 0.20681 0.10586 0.0
C2640 C 0.82259 0.22893 0.15256 0.0
C2641 C 0.78971 0.22692 0.10624 0.0
C2642 C 0.79094 0.24766 0.12977 0.0
C2643 C 0.80696 0.26777 0.17784 0.0
C2644 C 0.82188 0.26692 0.20155 0.0
C2645 C 0.80698 0.24854 0.15328 0.0
C2646 C 0.83772 0.24791 0.2004 0.0
C2647 C 0.83836 0.22932 0.17602 0.0
H2648 H 0.14653 0.54963 0.27145 0.0
H2649 H 0.20817 0.56763 0.33546 0.0
H2650 H 0.18112 0.58294 0.3698 0.0
H2651 H 0.14021 0.59186 0.38108 0.0
H2652 H 0.07846 0.5723 0.31693 0.0
H2653 H 0.10573 0.5578 0.28276 0.0
C2654 C 0.15401 0.5567 0.29297 0.0
C2655 C 0.17918 0.55739 0.30105 0.0
C2656 C 0.13851 0.5656 0.31234 0.0
C2657 C 0.18872 0.56664 0.3289 0.0
C2658 C 0.17334 0.57559 0.34843 0.0
C2659 C 0.13267 0.58421 0.35965 0.0
C2660 C 0.10733 0.58302 0.35152 0.0
C2661 C 0.14825 0.57526 0.34031 0.0
C2662 C 0.09796 0.57371 0.32362 0.0
C2663 C 0.11345 0.56515 0.30415 0.0
H2664 H 0.82664 0.88902 0.64104 0.0
H2665 H 0.82241 0.80949 0.58653 0.0
H2666 H 0.81299 0.78473 0.62455 0.0
H2667 H 0.80733 0.78567 0.67421 0.0
H2668 H 0.8129 0.86558 0.72854 0.0
H2669 H 0.82007 0.88989 0.68998 0.0
C2670 C 0.82366 0.86625 0.6374 0.0
C2671 C 0.82538 0.85128 0.61074 0.0
C2672 C 0.81827 0.85207 0.65949 0.0
C2673 C 0.82134 0.82172 0.60668 0.0
C2674 C 0.81587 0.80748 0.62849 0.0
C2675 C 0.80953 0.80832 0.67745 0.0
C2676 C 0.80916 0.82368 0.70433 0.0
C2677 C 0.81433 0.82239 0.65509 0.0
C2678 C 0.81291 0.85316 0.70817 0.0
C2679 C 0.81714 0.86713 0.68608 0.0
H2680 H 0.78157 0.50313 0.50907 0.0
H2681 H 0.81741 0.52301 0.59246 0.0
H2682 H 0.79196 0.55749 0.60534 0.0
H2683 H 0.75698 0.57897 0.59369 0.0
H2684 H 0.72225 0.56014 0.50981 0.0
H2685 H 0.75 0.52856 0.49623 0.0
C2686 C 0.78387 0.51517 0.52999 0.0
C2687 C 0.80101 0.51036 0.54988 0.0
C2688 C 0.7694 0.53513 0.53716 0.0
C2689 C 0.80419 0.52633 0.57683 0.0
C2690 C 0.78965 0.54602 0.58422 0.0
C2691 C 0.75592 0.56849 0.57233 0.0
C2692 C 0.73735 0.57153 0.55289 0.0
C2693 C 0.77189 0.55026 0.56465 0.0
C2694 C 0.73611 0.5577 0.52527 0.0
C2695 C 0.75194 0.53963 0.51748 0.0
H2696 H 0.2039 0.16957 0.50165 0.0
H2697 H 0.24205 0.1027 0.50845 0.0
H2698 H 0.202 0.0701 0.50847 0.0
H2699 H 0.15616 0.0616 0.51085 0.0
H2700 H 0.1184 0.12888 0.50453 0.0
H2701 H 0.15791 0.1599 0.4997 0.0
C2702 C 0.20343 0.14779 0.50283 0.0
C2703 C 0.22603 0.13875 0.50529 0.0
C2704 C 0.18027 0.1291 0.50299 0.0
C2705 C 0.225 0.11036 0.50667 0.0
C2706 C 0.20205 0.09164 0.50672 0.0
C2707 C 0.15652 0.08279 0.50773 0.0
C2708 C 0.13432 0.09287 0.5082 0.0
C2709 C 0.17955 0.10087 0.50543 0.0
C2710 C 0.13522 0.1206 0.50447 0.0
C2711 C 0.15786 0.13845 0.50179 0.0
H2712 H 0.24455 0.93466 0.74172 0.0
H2713 H 0.23421 0.95409 0.82799 0.0
H2714 H 0.25544 0.91723 0.83667 0.0
H2715 H 0.27724 0.87752 0.82126 0.0
H2716 H 0.29079 0.85854 0.73617 0.0
H2717 H 0.26929 0.89557 0.7265 0.0
C2718 C 0.24672 0.93112 0.76259 0.0
C2719 C 0.23649 0.94871 0.78405 0.0
C2720 C 0.2602 0.9091 0.76801 0.0
C2721 C 0.2409 0.94226 0.81055 0.0
C2722 C 0.2534 0.92059 0.8157 0.0
C2723 C 0.27588 0.88129 0.8004 0.0
C2724 C 0.28667 0.86381 0.77975 0.0
C2725 C 0.26325 0.90357 0.79483 0.0
C2726 C 0.28364 0.87052 0.75312 0.0
C2727 C 0.27088 0.89218 0.74748 0.0
H2728 H 0.42229 0.94532 0.99363 0.0
H2729 H 0.41025 0.02966 0.01527 0.0
H2730 H 0.45416 0.04914 0.01069 0.0
H2731 H 0.4965 0.04192 1.00689 0.0
H2732 H 0.5093 0.95798 0.9867 0.0
H2733 H 0.46419 0.93836 0.98401 0.0
C2734 C 0.42923 0.96796 0.99707 0.0
C2735 C 0.41327 0.98607 1.00533 0.0
C2736 C 0.4545 0.97897 0.99474 0.0
C2737 C 0.42231 1.01533 1.00924 0.0
C2738 C 0.44738 0.02647 1.00665 0.0
C2739 C 0.48949 0.01944 1.00115 0.0
C2740 C 0.50618 1.00141 0.997 0.0
C2741 C 0.46376 1.00846 1.00029 0.0
C2742 C 0.49669 0.9722 0.98995 0.0
C2743 C 0.47099 0.96103 0.98856 0.0
H2744 H 0.85057 0.55576 0.77247 0.0
H2745 H 0.89953 0.63597 0.80901 0.0
H2746 H 0.87235 0.66024 0.78605 0.0
H2747 H 0.83491 0.65861 0.75609 0.0
H2748 H 0.78402 0.57904 0.722 0.0
H2749 H 0.81248 0.55424 0.7426 0.0
C2750 C 0.85519 0.57857 0.77549 0.0
C2751 C 0.87688 0.59415 0.79247 0.0
C2752 C 0.83946 0.59232 0.76234 0.0
C2753 C 0.88277 0.62362 0.79623 0.0
C2754 C 0.86737 0.63745 0.78297 0.0
C2755 C 0.82991 0.63582 0.75332 0.0
C2756 C 0.80725 0.62065 0.73795 0.0
C2757 C 0.84572 0.62199 0.76605 0.0
C2758 C 0.80141 0.59112 0.73371 0.0
C2759 C 0.81751 0.57702 0.74572 0.0
H2760 H 0.83755 0.61672 0.01319 0.0
H2761 H 0.88709 0.69848 0.03991 0.0
H2762 H 0.92164 0.67632 0.05034 0.0
H2763 H 0.93728 0.6334 0.05462 0.0
H2764 H 0.88694 0.55203 0.0291 0.0
H2765 H 0.85351 0.57418 0.01527 0.0
C2766 C 0.85595 0.62972 0.02109 0.0
C2767 C 0.85961 0.65926 0.02582 0.0
C2768 C 0.87571 0.61682 0.02732 0.0
C2769 C 0.88365 0.67571 0.03609 0.0
C2770 C 0.90346 0.66302 0.0421 0.0
C2771 C 0.91911 0.62057 0.04559 0.0
C2772 C 0.91461 0.59107 0.04294 0.0
C2773 C 0.89967 0.63357 0.03814 0.0
C2774 C 0.89085 0.57475 0.0315 0.0
C2775 C 0.87169 0.58741 0.02362 0.0
H2776 H 0.21337 0.13064 0.78987 0.0
H2777 H 0.27685 0.09225 0.78141 0.0
H2778 H 0.30405 0.1383 0.78131 0.0
H2779 H 0.3106 0.1909 0.78296 0.0
H2780 H 0.2463 0.22825 0.79048 0.0
H2781 H 0.21983 0.18258 0.79152 0.0
C2782 C 0.23317 0.13212 0.7881 0.0
C2783 C 0.24252 0.10693 0.78578 0.0
C2784 C 0.24911 0.15927 0.7878 0.0
C2785 C 0.26852 0.11044 0.78333 0.0
C2786 C 0.28433 0.13717 0.78324 0.0
C2787 C 0.29088 0.18933 0.78502 0.0
C2788 C 0.28114 0.21432 0.78666 0.0
C2789 C 0.27501 0.16202 0.78542 0.0
C2790 C 0.25507 0.21041 0.78901 0.0
C2791 C 0.23959 0.18384 0.78967 0.0
H2792 H 0.40678 0.96067 0.33059 0.0
H2793 H 0.35227 0.98908 0.28226 0.0
H2794 H 0.32667 0.94126 0.26992 0.0
H2795 H 0.32077 0.89114 0.27111 0.0
H2796 H 0.37434 0.86249 0.32012 0.0
H2797 H 0.39992 0.91062 0.33339 0.0
C2798 C 0.38919 0.95638 0.31758 0.0
C2799 C 0.38144 0.97815 0.30715 0.0
C2800 C 0.37475 0.92884 0.31029 0.0
C2801 C 0.35864 0.97248 0.29034 0.0
C2802 C 0.34408 0.9452 0.28315 0.0
C2803 C 0.33801 0.89567 0.28481 0.0
C2804 C 0.34554 0.87398 0.29534 0.0
C2805 C 0.35217 0.92321 0.29264 0.0
C2806 C 0.36806 0.87939 0.31252 0.0
C2807 C 0.38263 0.90675 0.31999 0.0
H2808 H 0.60262 0.3899 0.55326 0.0
H2809 H 0.61049 0.42182 0.64114 0.0
H2810 H 0.60271 0.46639 0.63329 0.0
H2811 H 0.59373 0.49771 0.60256 0.0
H2812 H 0.58816 0.4698 0.5146 0.0
H2813 H 0.59449 0.42334 0.52132 0.0
C2814 C 0.6027 0.40657 0.57073 0.0
C2815 C 0.60733 0.4016 0.59808 0.0
C2816 C 0.59834 0.43334 0.56606 0.0
C2817 C 0.60721 0.42417 0.61997 0.0
C2818 C 0.60265 0.45005 0.6155 0.0
C2819 C 0.59379 0.48153 0.58465 0.0
C2820 C 0.58969 0.48768 0.55797 0.0
C2821 C 0.59818 0.45503 0.58877 0.0
C2822 C 0.59045 0.46605 0.53538 0.0
C2823 C 0.59435 0.43931 0.53933 0.0
H2824 H 0.4331 0.77377 0.42169 0.0
H2825 H 0.48093 0.78595 0.35713 0.0
H2826 H 0.44636 0.79376 0.32828 0.0
H2827 H 0.40258 0.79879 0.32105 0.0
H2828 H 0.35339 0.7839 0.38379 0.0
H2829 H 0.38799 0.77637 0.4132 0.0
C2830 C 0.43598 0.77796 0.40126 0.0
C2831 C 0.46012 0.77917 0.39196 0.0
C2832 C 0.41555 0.78233 0.3842 0.0
C2833 C 0.46295 0.78472 0.36522 0.0
C2834 C 0.44303 0.78932 0.34854 0.0
C2835 C 0.3991 0.79331 0.34086 0.0
C2836 C 0.3748 0.79176 0.34963 0.0
C2837 C 0.4192 0.78832 0.35771 0.0
C2838 C 0.37156 0.7855 0.37608 0.0
C2839 C 0.39149 0.78101 0.39305 0.0
H2840 H 0.0928 0.72786 0.05016 0.0
H2841 H 0.11895 0.73895 0.13618 0.0
H2842 H 0.11172 0.68789 0.13227 0.0
H2843 H 0.09503 0.63961 0.1055 0.0
H2844 H 0.07197 0.62715 0.01867 0.0
H2845 H 0.08072 0.6785 0.02165 0.0
C2846 C 0.0972 0.71907 0.06792 0.0
C2847 C 0.10634 0.73749 0.0936 0.0
C2848 C 0.0933 0.6892 0.0654 0.0
C2849 C 0.11188 0.72549 0.11629 0.0
C2850 C 0.10767 0.69617 0.11407 0.0
C2851 C 0.09232 0.64813 0.0871 0.0
C2852 C 0.08303 0.62932 0.06182 0.0
C2853 C 0.09796 0.67775 0.08891 0.0
C2854 C 0.0795 0.6409 0.03828 0.0
C2855 C 0.08437 0.6704 0.04007 0.0
H2856 H 0.11843 0.29783 0.92099 0.0
H2857 H 0.06214 0.27365 0.85085 0.0
H2858 H 0.09426 0.28382 0.82015 0.0
H2859 H 0.13806 0.30125 0.81287 0.0
H2860 H 0.19517 0.32482 0.88201 0.0
H2861 H 0.16332 0.31285 0.91309 0.0
C2862 C 0.11324 0.29459 0.89897 0.0
C2863 C 0.0877 0.28504 0.8884 0.0
C2864 C 0.13203 0.3004 0.88111 0.0
C2865 C 0.08148 0.28093 0.85973 0.0
C2866 C 0.0999 0.28681 0.84205 0.0
C2867 C 0.14361 0.3038 0.83475 0.0
C2868 C 0.16908 0.31425 0.845 0.0
C2869 C 0.12518 0.29685 0.85249 0.0
C2870 C 0.17581 0.31678 0.87341 0.0
C2871 C 0.15752 0.31008 0.89126 0.0
H2872 H 0.63074 0.80349 0.97804 0.0
H2873 H 0.58958 0.74312 0.90782 0.0
H2874 H 0.57602 0.7097 0.93761 0.0
H2875 H 0.57518 0.69799 0.98366 0.0
H2876 H 0.61785 0.75745 0.05371 0.0
H2877 H 0.6312 0.79097 0.024 0.0
C2878 C 0.61888 0.78297 0.96927 0.0
C2879 C 0.61118 0.77578 0.94076 0.0
C2880 C 0.61129 0.76377 0.98651 0.0
C2881 C 0.5959 0.74908 0.92966 0.0
C2882 C 0.58806 0.73001 0.9467 0.0
C2883 C 0.58764 0.71814 0.99244 0.0
C2884 C 0.59541 0.72514 0.02098 0.0
C2885 C 0.59559 0.73715 0.97516 0.0
C2886 C 0.6112 0.75162 0.03195 0.0
C2887 C 0.61902 0.77075 0.01492 0.0
H2888 H 0.09564 0.75939 0.68548 0.0
H2889 H 0.06388 0.77922 0.762 0.0
H2890 H 0.10086 0.77154 0.78758 0.0
H2891 H 0.14159 0.75718 0.7877 0.0
H2892 H 0.1724 0.73726 0.71057 0.0
H2893 H 0.13626 0.74679 0.68563 0.0
C2894 C 0.09685 0.76228 0.7078 0.0
C2895 C 0.07704 0.76978 0.72184 0.0
C2896 C 0.11787 0.7575 0.72218 0.0
C2897 C 0.07894 0.77352 0.75074 0.0
C2898 C 0.09999 0.76895 0.76533 0.0
C2899 C 0.14023 0.75479 0.76543 0.0
C2900 C 0.15952 0.74643 0.75093 0.0
C2901 C 0.11941 0.76051 0.7512 0.0
C2902 C 0.15781 0.7438 0.72213 0.0
C2903 C 0.13717 0.74922 0.70788 0.0
H2904 H 0.11598 0.41793 0.40782 0.0
H2905 H 0.13712 0.39472 0.48442 0.0
H2906 H 0.12719 0.4374 0.51035 0.0
H2907 H 0.11055 0.47944 0.5108 0.0
H2908 H 0.08338 0.49898 0.43451 0.0
H2909 H 0.09849 0.46002 0.4086 0.0
C2910 C 0.11874 0.42251 0.43019 0.0
C2911 C 0.12744 0.40353 0.44433 0.0
C2912 C 0.11185 0.44624 0.44484 0.0
C2913 C 0.13051 0.40921 0.47325 0.0
C2914 C 0.1248 0.4335 0.48799 0.0
C2915 C 0.10735 0.47496 0.48862 0.0
C2916 C 0.09505 0.49167 0.47482 0.0
C2917 C 0.11498 0.4518 0.47396 0.0
C2918 C 0.09235 0.48621 0.44581 0.0
C2919 C 0.10099 0.46392 0.43095 0.0
H2920 H 0.44772 0.25621 0.23481 0.0
H2921 H 0.43137 0.29059 0.16338 0.0
H2922 H 0.38917 0.29167 0.17618 0.0
H2923 H 0.35681 0.28217 0.20739 0.0
H2924 H 0.37146 0.24364 0.27628 0.0
H2925 H 0.4143 0.2439 0.26443 0.0
C2926 C 0.43493 0.26416 0.22227 0.0
C2927 C 0.4426 0.27381 0.19853 0.0
C2928 C 0.41042 0.26358 0.22911 0.0
C2929 C 0.4258 0.28338 0.18193 0.0
C2930 C 0.40171 0.28387 0.18915 0.0
C2931 C 0.36962 0.27425 0.21996 0.0
C2932 C 0.36186 0.26443 0.24353 0.0
C2933 C 0.39383 0.27401 0.21267 0.0
C2934 C 0.37776 0.25255 0.25881 0.0
C2935 C 0.40205 0.25249 0.2519 0.0
H2936 H 0.67592 0.55459 0.38634 0.0
H2937 H 0.61736 0.49127 0.33511 0.0
H2938 H 0.592 0.49049 0.37408 0.0
H2939 H 0.58488 0.50762 0.42454 0.0
H2940 H 0.64385 0.57131 0.47508 0.0
H2941 H 0.66891 0.57157 0.43628 0.0
C2942 C 0.65763 0.54044 0.38329 0.0
C2943 C 0.64944 0.52288 0.35617 0.0
C2944 C 0.64241 0.54002 0.40669 0.0
C2945 C 0.62517 0.50518 0.35454 0.0
C2946 C 0.61027 0.50471 0.37739 0.0
C2947 C 0.60319 0.5217 0.42748 0.0
C2948 C 0.61152 0.53954 0.45453 0.0
C2949 C 0.6184 0.522 0.40393 0.0
C2950 C 0.63583 0.55715 0.45586 0.0
C2951 C 0.65063 0.55738 0.43307 0.0
H2952 H 0.33389 0.88376 0.08208 0.0
H2953 H 0.37313 0.96845 0.1196 0.0
H2954 H 0.38297 0.95296 0.16235 0.0
H2955 H 0.38277 0.91493 0.18785 0.0
H2956 H 0.34649 0.82953 0.14893 0.0
H2957 H 0.33232 0.84593 0.10838 0.0
C2958 C 0.34443 0.89885 0.0997 0.0
C2959 C 0.35298 0.92712 0.09767 0.0
C2960 C 0.35041 0.88971 0.12401 0.0
C2961 C 0.36653 0.94649 0.12063 0.0
C2962 C 0.37213 0.93767 0.14507 0.0
C2963 C 0.37187 0.89984 0.17047 0.0
C2964 C 0.36602 0.87099 0.1714 0.0
C2965 C 0.3646 0.90923 0.14678 0.0
C2966 C 0.35117 0.8519 0.14898 0.0
C2967 C 0.34325 0.86121 0.1256 0.0
H2968 H 1.00686 0.57605 0.87488 0.0
H2969 H 0.94392 0.58541 0.92095 0.0
H2970 H 0.96852 0.58377 0.96333 0.0
H2971 H 1.00569 0.57371 0.98563 0.0
H2972 H 0.06782 0.56182 0.93927 0.0
H2973 H 0.04571 0.57052 0.89839 0.0
C2974 C 0.99868 0.57832 0.89429 0.0
C2975 C 0.97355 0.58048 0.89483 0.0
C2976 C 0.01259 0.57634 0.91827 0.0
C2977 C 0.96321 0.58355 0.92007 0.0
C2978 C 0.97718 0.5824 0.94422 0.0
C2979 C 0.01439 0.57289 0.96657 0.0
C2980 C 0.03808 0.56633 0.9652 0.0
C2981 C 1.00149 0.57766 0.94327 0.0
C2982 C 0.04951 0.56645 0.9407 0.0
C2983 C 0.03685 0.57143 0.91736 0.0
H2984 H 0.30897 0.27006 0.60726 0.0
H2985 H 0.27815 0.1826 0.60837 0.0
H2986 H 0.27966 0.19347 0.65818 0.0
H2987 H 0.29273 0.22639 0.70207 0.0
H2988 H 0.32282 0.3141 0.70341 0.0
H2989 H 0.31833 0.30479 0.65256 0.0
C2990 C 0.30239 0.25348 0.61841 0.0
C2991 C 0.29373 0.22538 0.60372 0.0
C2992 C 0.30313 0.25991 0.6477 0.0
C2993 C 0.28511 0.20432 0.61876 0.0
C2994 C 0.28594 0.21049 0.64745 0.0
C2995 C 0.29775 0.24361 0.69121 0.0
C2996 C 0.30756 0.27096 0.70653 0.0
C2997 C 0.2953 0.238 0.66216 0.0
C2998 C 0.31458 0.29296 0.69215 0.0
C2999 C 0.31225 0.28752 0.66303 0.0
H3000 H 0.67945 0.53671 0.17315 0.0
H3001 H 0.61239 0.5117 0.21133 0.0
H3002 H 0.58688 0.51543 0.1701 0.0
H3003 H 0.58208 0.52478 0.12043 0.0
H3004 H 0.64995 0.54834 0.0829 0.0
H3005 H 0.67488 0.54635 0.12472 0.0
C3006 C 0.65925 0.53196 0.17285 0.0
C3007 C 0.64873 0.52363 0.19698 0.0
C3008 C 0.64398 0.53412 0.1481 0.0
C3009 C 0.62205 0.51797 0.19431 0.0
C3010 C 0.60706 0.52022 0.17015 0.0
C3011 C 0.60231 0.53012 0.12126 0.0
C3012 C 0.61334 0.53763 0.09695 0.0
C3013 C 0.61751 0.52829 0.14645 0.0
C3014 C 0.63999 0.54309 0.1001 0.0
C3015 C 0.65468 0.54176 0.12456 0.0
H3016 H 0.3338 0.86538 0.95903 0.0
H3017 H 0.31123 0.93262 0.92603 0.0
H3018 H 0.31309 0.90792 0.87921 0.0
H3019 H 0.32364 0.86892 0.84807 0.0
H3020 H 0.34486 0.80071 0.88014 0.0
H3021 H 0.34137 0.82432 0.92729 0.0
C3022 C 0.32893 0.87441 0.94157 0.0
C3023 C 0.32258 0.90087 0.94592 0.0
C3024 C 0.33039 0.8603 0.91476 0.0
C3025 C 0.31624 0.91231 0.92316 0.0
C3026 C 0.31749 0.89833 0.89643 0.0
C3027 C 0.32795 0.85953 0.86546 0.0
C3028 C 0.33539 0.83378 0.86105 0.0
C3029 C 0.32518 0.87274 0.89209 0.0
C3030 C 0.33972 0.82096 0.88341 0.0
C3031 C 0.33753 0.83431 0.9102 0.0
H3032 H 0.96332 0.50073 0.7484 0.0
H3033 H 0.97243 0.58965 0.74916 0.0
H3034 H 0.99774 0.58556 0.71045 0.0
H3035 H 0.01976 0.55747 0.679 0.0
H3036 H 0.01272 0.46922 0.67985 0.0
H3037 H 0.98385 0.47216 0.71547 0.0
C3038 C 0.9707 0.51916 0.73994 0.0
C3039 C 0.96628 0.54549 0.75163 0.0
C3040 C 0.98561 0.51675 0.71817 0.0
C3041 C 0.97583 0.56921 0.74054 0.0
C3042 C 0.99026 0.56689 0.71846 0.0
C3043 C 0.01157 0.53883 0.68674 0.0
C3044 C 0.0182 0.51319 0.67706 0.0
C3045 C 0.99561 0.54088 0.7075 0.0
C3046 C 1.00788 0.48918 0.68733 0.0
C3047 C 0.99144 0.49087 0.70758 0.0
H3048 H 0.29933 0.1964 0.42021 0.0
H3049 H 0.30514 0.27848 0.47058 0.0
H3050 H 0.30814 0.29964 0.42932 0.0
H3051 H 0.30898 0.29466 0.37821 0.0
H3052 H 0.30181 0.21159 0.32892 0.0
H3053 H 0.29958 0.19132 0.37014 0.0
C3054 C 0.30127 0.21896 0.42229 0.0
C3055 C 0.30205 0.23575 0.44868 0.0
C3056 C 0.30276 0.23093 0.39843 0.0
C3057 C 0.30449 0.26495 0.45067 0.0
C3058 C 0.30622 0.27708 0.427 0.0
C3059 C 0.30696 0.27215 0.37654 0.0
C3060 C 0.30549 0.2548 0.35021 0.0
C3061 C 0.30538 0.26029 0.40066 0.0
C3062 C 0.30276 0.2256 0.34863 0.0
C3063 C 0.30155 0.21388 0.37232 0.0
H3064 H 0.3303 0.55688 0.52068 0.0
H3065 H 0.3845 0.63629 0.53865 0.0
H3066 H 0.41824 0.61199 0.52989 0.0
H3067 H 0.43202 0.56922 0.51369 0.0
H3068 H 0.37949 0.48868 0.49913 0.0
H3069 H 0.34534 0.51259 0.50909 0.0
C3070 C 0.34953 0.56876 0.5229 0.0
C3071 C 0.35483 0.59836 0.52997 0.0
C3072 C 0.36908 0.55459 0.51797 0.0
C3073 C 0.37984 0.61351 0.53304 0.0
C3074 C 0.3992 0.59965 0.52796 0.0
C3075 C 0.41333 0.55657 0.51344 0.0
C3076 C 0.40858 0.52703 0.50564 0.0
C3077 C 0.39398 0.5703 0.51997 0.0
C3078 C 0.38382 0.51145 0.50457 0.0
C3079 C 0.36425 0.5251 0.5105 0.0
H3080 H 0.90401 0.97976 0.54745 0.0
H3081 H 0.92999 0.90533 0.55782 0.0
H3082 H 0.97312 0.92961 0.55528 0.0
H3083 H 1.00359 0.97157 0.54884 0.0
H3084 H 0.97764 0.04571 0.53717 0.0
H3085 H 0.9347 0.02205 0.54137 0.0
C3086 C 0.91913 0.96894 0.54945 0.0
C3087 C 0.91362 0.9407 0.55298 0.0
C3088 C 0.94403 0.98297 0.54751 0.0
C3089 C 0.93355 0.92701 0.55517 0.0
C3090 C 0.95829 0.9409 0.55363 0.0
C3091 C 0.98858 0.98263 0.54721 0.0
C3092 C 0.99409 1.01058 0.54278 0.0
C3093 C 0.96377 0.9688 0.54955 0.0
C3094 C 0.97419 0.02435 0.54073 0.0
C3095 C 0.94952 1.01078 0.54313 0.0
H3096 H 0.89316 0.15881 0.31753 0.0
H3097 H 0.93105 0.16118 0.24416 0.0
H3098 H 0.9128 0.20025 0.2355 0.0
H3099 H 0.88589 0.23567 0.24741 0.0
H3100 H 0.85145 0.23865 0.32306 0.0
H3101 H 0.86775 0.19758 0.33133 0.0
C3102 C 0.89759 0.16753 0.29944 0.0
C3103 C 0.91418 0.155 0.28142 0.0
C3104 C 0.88708 0.19191 0.29461 0.0
C3105 C 0.91891 0.16868 0.25875 0.0
C3106 C 0.90818 0.19166 0.25363 0.0
C3107 C 0.88147 0.22752 0.26581 0.0
C3108 C 0.86558 0.24112 0.28366 0.0
C3109 C 0.89214 0.20376 0.27119 0.0
C3110 C 0.86207 0.22936 0.30774 0.0
C3111 C 0.87191 0.2054 0.31271 0.0
H3112 H 0.7054 0.08346 0.01356 0.0
H3113 H 0.71733 0.13869 0.09338 0.0
H3114 H 0.67271 0.13904 0.09114 0.0
H3115 H 0.63045 0.12556 0.06478 0.0
H3116 H 0.61989 0.07139 0.98495 0.0
H3117 H 0.66393 0.06977 0.98811 0.0
C3118 C 0.69817 0.09504 0.03079 0.0
C3119 C 0.71459 0.11081 0.05367 0.0
C3120 C 0.67273 0.0956 0.02914 0.0
C3121 C 0.70498 0.12606 0.07565 0.0
C3122 C 0.67952 0.12654 0.07425 0.0
C3123 C 0.63769 0.11245 0.04882 0.0
C3124 C 0.62154 0.09614 0.02602 0.0
C3125 C 0.66323 0.11163 0.05092 0.0
C3126 C 0.63163 0.08209 1.00375 0.0
C3127 C 0.65687 0.08139 1.00541 0.0
H3128 H 0.29624 0.50808 0.24712 0.0
H3129 H 0.22758 0.44552 0.22091 0.0
H3130 H 0.24462 0.41186 0.24278 0.0
H3131 H 0.27476 0.40486 0.27849 0.0
H3132 H 0.34066 0.47001 0.30967 0.0
H3133 H 0.32923 0.49826 0.27695 0.0
C3134 C 0.28547 0.48669 0.24525 0.0
C3135 C 0.26067 0.47923 0.23296 0.0
C3136 C 0.29465 0.46836 0.25964 0.0
C3137 C 0.24672 0.45159 0.23059 0.0
C3138 C 0.25632 0.43253 0.24338 0.0
C3139 C 0.28671 0.42504 0.2776 0.0
C3140 C 0.30811 0.43592 0.29648 0.0
C3141 C 0.27952 0.44141 0.25953 0.0
C3142 C 0.32384 0.46178 0.2954 0.0
C3143 C 0.31736 0.47777 0.27672 0.0
H3144 H 0.29217 0.46887 0.03688 0.0
H3145 H 0.25208 0.38494 0.04027 0.0
H3146 H 0.21232 0.39864 0.03386 0.0
H3147 H 0.18847 0.43321 0.02433 0.0
H3148 H 0.22718 0.51736 0.02089 0.0
H3149 H 0.26767 0.50504 0.03045 0.0
C3150 C 0.27473 0.45368 0.03639 0.0
C3151 C 0.27526 0.42576 0.03879 0.0
C3152 C 0.25157 0.46173 0.03262 0.0
C3153 C 0.25239 0.40644 0.03822 0.0
C3154 C 0.22953 0.41425 0.03458 0.0
C3155 C 0.20579 0.44896 0.02602 0.0
C3156 C 0.20483 0.47614 0.02188 0.0
C3157 C 0.22886 0.44165 0.03133 0.0
C3158 C 0.2274 0.49637 0.02425 0.0
C3159 C 0.25056 0.48923 0.02949 0.0
H3160 H 0.87419 0.98738 0.25997 0.0
H3161 H 0.94445 0.9809 0.29977 0.0
H3162 H 0.92665 0.9321 0.30222 0.0
H3163 H 0.89104 0.88942 0.29344 0.0
H3164 H 0.82127 0.89436 0.25157 0.0
H3165 H 0.83855 0.94364 0.24981 0.0
C3166 C 0.88576 0.97548 0.26924 0.0
C3167 C 0.91124 0.98919 0.27973 0.0
C3168 C 0.87524 0.94618 0.27035 0.0
C3169 C 0.92514 0.9721 0.29135 0.0
C3170 C 0.91481 0.94366 0.29283 0.0
C3171 C 0.87939 0.90104 0.28384 0.0
C3172 C 0.85412 0.88697 0.27312 0.0
C3173 C 0.88985 0.93014 0.28242 0.0
C3174 C 0.84025 0.90362 0.26074 0.0
C3175 C 0.85038 0.93229 0.25952 0.0
H3176 H 0.79072 0.1344 0.77314 0.0
H3177 H 0.71816 0.13765 0.73617 0.0
H3178 H 0.72654 0.18823 0.75374 0.0
H3179 H 0.75379 0.23131 0.78087 0.0
H3180 H 0.82759 0.22979 0.8148 0.0
H3181 H 0.81937 0.17865 0.79792 0.0
C3182 C 0.77698 0.14633 0.7686 0.0
C3183 C 0.75389 0.13238 0.75339 0.0
C3184 C 0.78204 0.17557 0.77848 0.0
C3185 C 0.73616 0.14797 0.74762 0.0
C3186 C 0.7408 0.17683 0.75792 0.0
C3187 C 0.76821 0.21974 0.7839 0.0
C3188 C 0.79161 0.2341 0.79763 0.0
C3189 C 0.76356 0.19077 0.77349 0.0
C3190 C 0.80973 0.21903 0.80329 0.0
C3191 C 0.80501 0.18989 0.79369 0.0
loop_
_geom_bond_atom_site_label_1
_geom_bond_atom_site_label_2
_geom_bond_distance
_geom_bond_site_symmetry_2
_ccdc_geom_bond_type
In0 O1 2.294 . S
In0 O2 2.326 . S
In0 O6 2.266 . S
In0 O7 2.326 . S
In0 O8 2.266 . S
In0 O9 2.326 . S
In0 O11 2.294 . S
In0 O12 2.326 . S
O1 In0 2.294 . S
O1 C10 1.240 . S
O2 In0 2.326 . S
O2 C10 1.252 . S
C3 O6 1.252 . S
C3 O7 1.260 . S
C4 O11 1.240 . S
C4 O12 1.252 . S
C5 O8 1.252 . S
C5 O9 1.260 . S
O6 In0 2.266 . S
O6 C3 1.252 . S
O7 In0 2.326 . S
O7 C3 1.260 . S
O8 In0 2.266 . S
O8 C5 1.252 . S
O9 In0 2.326 . S
O9 C5 1.260 . S
C10 O1 1.240 . S
C10 O2 1.252 . S
O11 In0 2.294 . S
O11 C4 1.240 . S
O12 In0 2.326 . S
O12 C4 1.252 . S
In13 O14 2.294 . S
In13 O15 2.326 . S
In13 O19 2.266 1_455 S
In13 O20 2.326 1_455 S
In13 O21 2.264 1_455 S
In13 O22 2.322 1_455 S
In13 O24 2.296 . S
In13 O25 2.330 . S
O14 In13 2.294 . S
O14 C23 1.240 . S
O15 In13 2.326 . S
O15 C23 1.252 . S
C16 O19 1.252 . S
C16 O20 1.260 . S
C17 O24 1.240 . S
C17 O25 1.252 . S
C18 O21 1.252 . S
C18 O22 1.260 . S
O19 In13 2.266 1_655 S
O19 C16 1.252 . S
O20 In13 2.326 1_655 S
O20 C16 1.260 . S
O21 In13 2.264 1_655 S
O21 C18 1.252 . S
O22 In13 2.322 1_655 S
O22 C18 1.260 . S
C23 O14 1.240 . S
C23 O15 1.252 . S
O24 In13 2.296 . S
O24 C17 1.240 . S
O25 In13 2.330 . S
O25 C17 1.252 . S
In26 O27 2.294 . S
In26 O28 2.326 . S
In26 O32 2.266 . S
In26 O33 2.326 . S
In26 O34 2.266 . S
In26 O35 2.326 . S
In26 O37 2.294 . S
In26 O38 2.326 . S
O27 In26 2.294 . S
O27 C36 1.240 . S
O28 In26 2.326 . S
O28 C36 1.252 . S
C29 O32 1.252 . S
C29 O33 1.260 . S
C30 O37 1.240 . S
C30 O38 1.252 . S
C31 O34 1.252 . S
C31 O35 1.260 . S
O32 In26 2.266 . S
O32 C29 1.252 . S
O33 In26 2.326 . S
O33 C29 1.260 . S
O34 In26 2.266 . S
O34 C31 1.252 . S
O35 In26 2.326 . S
O35 C31 1.260 . S
C36 O27 1.240 . S
C36 O28 1.252 . S
O37 In26 2.294 . S
O37 C30 1.240 . S
O38 In26 2.326 . S
O38 C30 1.252 . S
In39 O40 2.294 . S
In39 O41 2.326 . S
In39 O45 2.266 . S
In39 O46 2.326 . S
In39 O47 2.266 . S
In39 O48 2.326 . S
In39 O50 2.294 . S
In39 O51 2.326 . S
O40 In39 2.294 . S
O40 C49 1.240 . S
O41 In39 2.326 . S
O41 C49 1.252 . S
C42 O45 1.252 . S
C42 O46 1.260 . S
C43 O50 1.240 . S
C43 O51 1.252 . S
C44 O47 1.252 . S
C44 O48 1.260 . S
O45 In39 2.266 . S
O45 C42 1.252 . S
O46 In39 2.326 . S
O46 C42 1.260 . S
O47 In39 2.266 . S
O47 C44 1.252 . S
O48 In39 2.326 . S
O48 C44 1.260 . S
C49 O40 1.240 . S
C49 O41 1.252 . S
O50 In39 2.294 . S
O50 C43 1.240 . S
O51 In39 2.326 . S
O51 C43 1.252 . S
In52 O53 2.294 . S
In52 O54 2.326 . S
In52 O58 2.266 . S
In52 O59 2.326 . S
In52 O60 2.266 . S
In52 O61 2.326 . S
In52 O63 2.294 . S
In52 O64 2.326 . S
O53 In52 2.294 . S
O53 C62 1.240 . S
O54 In52 2.326 . S
O54 C62 1.252 . S
C55 O58 1.252 . S
C55 O59 1.260 . S
C56 O63 1.240 . S
C56 O64 1.252 . S
C57 O60 1.252 . S
C57 O61 1.260 . S
O58 In52 2.266 . S
O58 C55 1.252 . S
O59 In52 2.326 . S
O59 C55 1.260 . S
O60 In52 2.266 . S
O60 C57 1.252 . S
O61 In52 2.326 . S
O61 C57 1.260 . S
C62 O53 1.240 . S
C62 O54 1.252 . S
O63 In52 2.294 . S
O63 C56 1.240 . S
O64 In52 2.326 . S
O64 C56 1.252 . S
In65 O66 2.294 . S
In65 O67 2.326 . S
In65 O71 2.266 . S
In65 O72 2.326 . S
In65 O73 2.266 . S
In65 O74 2.326 . S
In65 O76 2.294 . S
In65 O77 2.326 . S
O66 In65 2.294 . S
O66 C75 1.240 . S
O67 In65 2.326 . S
O67 C75 1.252 . S
C68 O71 1.252 . S
C68 O72 1.260 . S
C69 O76 1.240 . S
C69 O77 1.252 . S
C70 O73 1.252 . S
C70 O74 1.260 . S
O71 In65 2.266 . S
O71 C68 1.252 . S
O72 In65 2.326 . S
O72 C68 1.260 . S
O73 In65 2.266 . S
O73 C70 1.252 . S
O74 In65 2.326 . S
O74 C70 1.260 . S
C75 O66 1.240 . S
C75 O67 1.252 . S
O76 In65 2.294 . S
O76 C69 1.240 . S
O77 In65 2.326 . S
O77 C69 1.252 . S
In78 O79 2.294 . S
In78 O80 2.326 . S
In78 O84 2.266 . S
In78 O85 2.326 . S
In78 O86 2.266 . S
In78 O87 2.326 . S
In78 O89 2.294 . S
In78 O90 2.326 . S
O79 In78 2.294 . S
O79 C88 1.240 . S
O80 In78 2.326 . S
O80 C88 1.252 . S
C81 O84 1.252 . S
C81 O85 1.260 . S
C82 O89 1.240 . S
C82 O90 1.252 . S
C83 O86 1.252 . S
C83 O87 1.260 . S
O84 In78 2.266 . S
O84 C81 1.252 . S
O85 In78 2.326 . S
O85 C81 1.260 . S
O86 In78 2.266 . S
O86 C83 1.252 . S
O87 In78 2.326 . S
O87 C83 1.260 . S
C88 O79 1.240 . S
C88 O80 1.252 . S
O89 In78 2.294 . S
O89 C82 1.240 . S
O90 In78 2.326 . S
O90 C82 1.252 . S
In91 O92 2.294 . S
In91 O93 2.326 . S
In91 O97 2.266 . S
In91 O98 2.326 . S
In91 O99 2.266 1_455 S
In91 O100 2.326 1_455 S
In91 O102 2.294 . S
In91 O103 2.326 . S
O92 In91 2.294 . S
O92 C101 1.240 . S
O93 In91 2.326 . S
O93 C101 1.252 . S
C94 O97 1.252 . S
C94 O98 1.260 . S
C95 O102 1.240 . S
C95 O103 1.252 . S
C96 O99 1.252 . S
C96 O100 1.260 . S
O97 In91 2.266 . S
O97 C94 1.252 . S
O98 In91 2.326 . S
O98 C94 1.260 . S
O99 In91 2.266 1_655 S
O99 C96 1.252 . S
O100 In91 2.326 1_655 S
O100 C96 1.260 . S
C101 O92 1.240 . S
C101 O93 1.252 . S
O102 In91 2.294 . S
O102 C95 1.240 . S
O103 In91 2.326 . S
O103 C95 1.252 . S
In104 O105 2.294 . S
In104 O106 2.326 . S
In104 O110 2.266 . S
In104 O111 2.326 . S
In104 O112 2.266 1_545 S
In104 O113 2.326 1_545 S
In104 O115 2.294 . S
In104 O116 2.326 . S
O105 In104 2.294 . S
O105 C114 1.240 . S
O106 In104 2.326 . S
O106 C114 1.252 . S
C107 O110 1.252 . S
C107 O111 1.260 . S
C108 O115 1.240 . S
C108 O116 1.252 . S
C109 O112 1.252 . S
C109 O113 1.260 . S
O110 In104 2.266 . S
O110 C107 1.252 . S
O111 In104 2.326 . S
O111 C107 1.260 . S
O112 In104 2.266 1_565 S
O112 C109 1.252 . S
O113 In104 2.326 1_565 S
O113 C109 1.260 . S
C114 O105 1.240 . S
C114 O106 1.252 . S
O115 In104 2.294 . S
O115 C108 1.240 . S
O116 In104 2.326 . S
O116 C108 1.252 . S
In117 O118 2.294 . S
In117 O119 2.326 . S
In117 O123 2.266 . S
In117 O124 2.326 . S
In117 O125 2.266 . S
In117 O126 2.326 . S
In117 O128 2.294 . S
In117 O129 2.326 . S
O118 In117 2.294 . S
O118 C127 1.240 . S
O119 In117 2.326 . S
O119 C127 1.252 . S
C120 O123 1.252 . S
C120 O124 1.260 . S
C121 O128 1.240 . S
C121 O129 1.252 . S
C122 O125 1.252 . S
C122 O126 1.260 . S
O123 In117 2.266 . S
O123 C120 1.252 . S
O124 In117 2.326 . S
O124 C120 1.260 . S
O125 In117 2.266 . S
O125 C122 1.252 . S
O126 In117 2.326 . S
O126 C122 1.260 . S
C127 O118 1.240 . S
C127 O119 1.252 . S
O128 In117 2.294 . S
O128 C121 1.240 . S
O129 In117 2.326 . S
O129 C121 1.252 . S
In130 O131 2.294 1_545 S
In130 O132 2.326 1_545 S
In130 O136 2.266 . S
In130 O137 2.326 . S
In130 O138 2.264 . S
In130 O139 2.322 . S
In130 O141 2.296 1_545 S
In130 O142 2.330 1_545 S
O131 In130 2.294 1_565 S
O131 C140 1.240 . S
O132 In130 2.326 1_565 S
O132 C140 1.252 . S
C133 O136 1.252 . S
C133 O137 1.260 . S
C134 O141 1.240 . S
C134 O142 1.252 . S
C135 O138 1.252 . S
C135 O139 1.260 . S
O136 In130 2.266 . S
O136 C133 1.252 . S
O137 In130 2.326 . S
O137 C133 1.260 . S
O138 In130 2.264 . S
O138 C135 1.252 . S
O139 In130 2.322 . S
O139 C135 1.260 . S
C140 O131 1.240 . S
C140 O132 1.252 . S
O141 In130 2.296 1_565 S
O141 C134 1.240 . S
O142 In130 2.330 1_565 S
O142 C134 1.252 . S
In143 O144 2.294 . S
In143 O145 2.326 . S
In143 O149 2.266 1_554 S
In143 O150 2.326 1_554 S
In143 O151 2.266 . S
In143 O152 2.326 . S
In143 O154 2.294 . S
In143 O155 2.326 . S
O144 In143 2.294 . S
O144 C153 1.240 . S
O145 In143 2.326 . S
O145 C153 1.252 . S
C146 O149 1.252 . S
C146 O150 1.260 . S
C147 O154 1.240 . S
C147 O155 1.252 . S
C148 O151 1.252 . S
C148 O152 1.260 . S
O149 In143 2.266 1_556 S
O149 C146 1.252 . S
O150 In143 2.326 1_556 S
O150 C146 1.260 . S
O151 In143 2.266 . S
O151 C148 1.252 . S
O152 In143 2.326 . S
O152 C148 1.260 . S
C153 O144 1.240 . S
C153 O145 1.252 . S
O154 In143 2.294 . S
O154 C147 1.240 . S
O155 In143 2.326 . S
O155 C147 1.252 . S
In156 O157 2.294 . S
In156 O158 2.326 . S
In156 O162 2.266 . S
In156 O163 2.326 1_554 S
In156 O164 2.266 . S
In156 O165 2.326 . S
In156 O167 2.294 . S
In156 O168 2.326 . S
O157 In156 2.294 . S
O157 C166 1.240 . S
O158 In156 2.326 . S
O158 C166 1.252 . S
C159 O162 1.252 1_556 S
C159 O163 1.260 . S
C160 O167 1.240 . S
C160 O168 1.252 . S
C161 O164 1.252 . S
C161 O165 1.260 . S
O162 In156 2.266 . S
O162 C159 1.252 1_554 S
O163 In156 2.326 1_556 S
O163 C159 1.260 . S
O164 In156 2.266 . S
O164 C161 1.252 . S
O165 In156 2.326 . S
O165 C161 1.260 . S
C166 O157 1.240 . S
C166 O158 1.252 . S
O167 In156 2.294 . S
O167 C160 1.240 . S
O168 In156 2.326 . S
O168 C160 1.252 . S
In169 O170 2.294 . S
In169 O171 2.326 . S
In169 O175 2.266 . S
In169 O176 2.326 . S
In169 O177 2.266 . S
In169 O178 2.326 1_554 S
In169 O180 2.294 . S
In169 O181 2.326 . S
O170 In169 2.294 . S
O170 C179 1.240 . S
O171 In169 2.326 . S
O171 C179 1.252 . S
C172 O175 1.252 . S
C172 O176 1.260 . S
C173 O180 1.240 . S
C173 O181 1.252 . S
C174 O177 1.252 1_556 S
C174 O178 1.260 . S
O175 In169 2.266 . S
O175 C172 1.252 . S
O176 In169 2.326 . S
O176 C172 1.260 . S
O177 In169 2.266 . S
O177 C174 1.252 1_554 S
O178 In169 2.326 1_556 S
O178 C174 1.260 . S
C179 O170 1.240 . S
C179 O171 1.252 . S
O180 In169 2.294 . S
O180 C173 1.240 . S
O181 In169 2.326 . S
O181 C173 1.252 . S
In182 O183 2.294 . S
In182 O184 2.326 . S
In182 O188 2.266 . S
In182 O189 2.326 . S
In182 O190 2.266 . S
In182 O191 2.326 . S
In182 O193 2.294 . S
In182 O194 2.326 . S
O183 In182 2.294 . S
O183 C192 1.240 . S
O184 In182 2.326 . S
O184 C192 1.252 . S
C185 O188 1.252 . S
C185 O189 1.260 . S
C186 O193 1.240 . S
C186 O194 1.252 . S
C187 O190 1.252 . S
C187 O191 1.260 . S
O188 In182 2.266 . S
O188 C185 1.252 . S
O189 In182 2.326 . S
O189 C185 1.260 . S
O190 In182 2.266 . S
O190 C187 1.252 . S
O191 In182 2.326 . S
O191 C187 1.260 . S
C192 O183 1.240 . S
C192 O184 1.252 . S
O193 In182 2.294 . S
O193 C186 1.240 . S
O194 In182 2.326 . S
O194 C186 1.252 . S
In195 O196 2.294 . S
In195 O197 2.326 . S
In195 O201 2.266 . S
In195 O202 2.326 . S
In195 O203 2.266 . S
In195 O204 2.326 . S
In195 O206 2.294 . S
In195 O207 2.326 . S
O196 In195 2.294 . S
O196 C205 1.240 . S
O197 In195 2.326 . S
O197 C205 1.252 . S
C198 O201 1.252 . S
C198 O202 1.260 . S
C199 O206 1.240 . S
C199 O207 1.252 . S
C200 O203 1.252 . S
C200 O204 1.260 . S
O201 In195 2.266 . S
O201 C198 1.252 . S
O202 In195 2.326 . S
O202 C198 1.260 . S
O203 In195 2.266 . S
O203 C200 1.252 . S
O204 In195 2.326 . S
O204 C200 1.260 . S
C205 O196 1.240 . S
C205 O197 1.252 . S
O206 In195 2.294 . S
O206 C199 1.240 . S
O207 In195 2.326 . S
O207 C199 1.252 . S
In208 O209 2.294 . S
In208 O210 2.326 . S
In208 O214 2.266 . S
In208 O215 2.326 . S
In208 O216 2.266 . S
In208 O217 2.326 . S
In208 O219 2.294 . S
In208 O220 2.326 . S
O209 In208 2.294 . S
O209 C218 1.240 . S
O210 In208 2.326 . S
O210 C218 1.252 . S
C211 O214 1.252 . S
C211 O215 1.260 . S
C212 O219 1.240 . S
C212 O220 1.252 . S
C213 O216 1.252 . S
C213 O217 1.260 . S
O214 In208 2.266 . S
O214 C211 1.252 . S
O215 In208 2.326 . S
O215 C211 1.260 . S
O216 In208 2.266 . S
O216 C213 1.252 . S
O217 In208 2.326 . S
O217 C213 1.260 . S
C218 O209 1.240 . S
C218 O210 1.252 . S
O219 In208 2.294 . S
O219 C212 1.240 . S
O220 In208 2.326 . S
O220 C212 1.252 . S
In221 O222 2.294 . S
In221 O223 2.326 . S
In221 O227 2.266 . S
In221 O228 2.326 . S
In221 O229 2.266 . S
In221 O230 2.326 . S
In221 O232 2.294 . S
In221 O233 2.326 . S
O222 In221 2.294 . S
O222 C231 1.240 . S
O223 In221 2.326 . S
O223 C231 1.252 . S
C224 O227 1.252 . S
C224 O228 1.260 . S
C225 O232 1.240 . S
C225 O233 1.252 . S
C226 O229 1.252 . S
C226 O230 1.260 . S
O227 In221 2.266 . S
O227 C224 1.252 . S
O228 In221 2.326 . S
O228 C224 1.260 . S
O229 In221 2.266 . S
O229 C226 1.252 . S
O230 In221 2.326 . S
O230 C226 1.260 . S
C231 O222 1.240 . S
C231 O223 1.252 . S
O232 In221 2.294 . S
O232 C225 1.240 . S
O233 In221 2.326 . S
O233 C225 1.252 . S
In234 O235 2.294 . S
In234 O236 2.326 . S
In234 O240 2.266 . S
In234 O241 2.326 . S
In234 O242 2.266 . S
In234 O243 2.326 . S
In234 O245 2.294 . S
In234 O246 2.326 . S
O235 In234 2.294 . S
O235 C244 1.240 . S
O236 In234 2.326 . S
O236 C244 1.252 . S
C237 O240 1.252 . S
C237 O241 1.260 . S
C238 O245 1.240 . S
C238 O246 1.252 . S
C239 O242 1.252 . S
C239 O243 1.260 . S
O240 In234 2.266 . S
O240 C237 1.252 . S
O241 In234 2.326 . S
O241 C237 1.260 . S
O242 In234 2.266 . S
O242 C239 1.252 . S
O243 In234 2.326 . S
O243 C239 1.260 . S
C244 O235 1.240 . S
C244 O236 1.252 . S
O245 In234 2.294 . S
O245 C238 1.240 . S
O246 In234 2.326 . S
O246 C238 1.252 . S
In247 O248 2.294 . S
In247 O249 2.326 . S
In247 O253 2.266 . S
In247 O254 2.326 . S
In247 O255 2.266 . S
In247 O256 2.326 . S
In247 O258 2.294 . S
In247 O259 2.326 . S
O248 In247 2.294 . S
O248 C257 1.240 . S
O249 In247 2.326 . S
O249 C257 1.252 . S
C250 O253 1.252 . S
C250 O254 1.260 . S
C251 O258 1.240 . S
C251 O259 1.252 . S
C252 O255 1.252 . S
C252 O256 1.260 . S
O253 In247 2.266 . S
O253 C250 1.252 . S
O254 In247 2.326 . S
O254 C250 1.260 . S
O255 In247 2.266 . S
O255 C252 1.252 . S
O256 In247 2.326 . S
O256 C252 1.260 . S
C257 O248 1.240 . S
C257 O249 1.252 . S
O258 In247 2.294 . S
O258 C251 1.240 . S
O259 In247 2.326 . S
O259 C251 1.252 . S
In260 O261 2.300 . S
In260 O262 2.328 . S
In260 O266 2.265 1_554 S
In260 O267 2.324 1_554 S
In260 O268 2.240 1_554 S
In260 O269 2.289 1_554 S
In260 O271 2.316 . S
In260 O272 2.364 . S
O261 In260 2.300 . S
O261 C270 1.240 . S
O262 In260 2.328 . S
O262 C270 1.252 . S
C263 O266 1.252 . S
C263 O267 1.260 . S
C264 O271 1.240 . S
C264 O272 1.252 . S
C265 O268 1.252 . S
C265 O269 1.260 . S
O266 In260 2.265 1_556 S
O266 C263 1.252 . S
O267 In260 2.324 1_556 S
O267 C263 1.260 . S
O268 In260 2.240 1_556 S
O268 C265 1.252 . S
O269 In260 2.289 1_556 S
O269 C265 1.260 . S
C270 O261 1.240 . S
C270 O262 1.252 . S
O271 In260 2.316 . S
O271 C264 1.240 . S
O272 In260 2.364 . S
O272 C264 1.252 . S
In273 O274 2.294 . S
In273 O275 2.326 . S
In273 O279 2.266 . S
In273 O280 2.326 . S
In273 O281 2.266 . S
In273 O282 2.326 . S
In273 O284 2.294 . S
In273 O285 2.326 . S
O274 In273 2.294 . S
O274 C283 1.240 . S
O275 In273 2.326 . S
O275 C283 1.252 . S
C276 O279 1.252 . S
C276 O280 1.260 . S
C277 O284 1.240 . S
C277 O285 1.252 . S
C278 O281 1.252 . S
C278 O282 1.260 . S
O279 In273 2.266 . S
O279 C276 1.252 . S
O280 In273 2.326 . S
O280 C276 1.260 . S
O281 In273 2.266 . S
O281 C278 1.252 . S
O282 In273 2.326 . S
O282 C278 1.260 . S
C283 O274 1.240 . S
C283 O275 1.252 . S
O284 In273 2.294 . S
O284 C277 1.240 . S
O285 In273 2.326 . S
O285 C277 1.252 . S
In286 O287 2.294 . S
In286 O288 2.326 . S
In286 O292 2.266 . S
In286 O293 2.326 . S
In286 O294 2.266 . S
In286 O295 2.326 . S
In286 O297 2.294 . S
In286 O298 2.326 . S
O287 In286 2.294 . S
O287 C296 1.240 . S
O288 In286 2.326 . S
O288 C296 1.252 . S
C289 O292 1.252 . S
C289 O293 1.260 . S
C290 O297 1.240 . S
C290 O298 1.252 . S
C291 O294 1.252 . S
C291 O295 1.260 . S
O292 In286 2.266 . S
O292 C289 1.252 . S
O293 In286 2.326 . S
O293 C289 1.260 . S
O294 In286 2.266 . S
O294 C291 1.252 . S
O295 In286 2.326 . S
O295 C291 1.260 . S
C296 O287 1.240 . S
C296 O288 1.252 . S
O297 In286 2.294 . S
O297 C290 1.240 . S
O298 In286 2.326 . S
O298 C290 1.252 . S
In299 O300 2.294 . S
In299 O301 2.326 . S
In299 O305 2.266 . S
In299 O306 2.326 . S
In299 O307 2.266 . S
In299 O308 2.326 . S
In299 O310 2.294 . S
In299 O311 2.326 . S
O300 In299 2.294 . S
O300 C309 1.240 . S
O301 In299 2.326 . S
O301 C309 1.252 . S
C302 O305 1.252 . S
C302 O306 1.260 . S
C303 O310 1.240 . S
C303 O311 1.252 . S
C304 O307 1.252 . S
C304 O308 1.260 . S
O305 In299 2.266 . S
O305 C302 1.252 . S
O306 In299 2.326 . S
O306 C302 1.260 . S
O307 In299 2.266 . S
O307 C304 1.252 . S
O308 In299 2.326 . S
O308 C304 1.260 . S
C309 O300 1.240 . S
C309 O301 1.252 . S
O310 In299 2.294 . S
O310 C303 1.240 . S
O311 In299 2.326 . S
O311 C303 1.252 . S
Tb312 N343 2.660 1_545 S
Tb312 N350 2.600 1_544 S
Tb312 O356 2.511 1_454 S
Tb312 O357 2.610 . S
Tb312 O359 2.320 . S
Tb312 O360 2.552 . S
Tb312 O361 2.413 1_455 S
Tb312 O363 2.362 . S
Tb312 O364 2.421 1_554 S
Tb312 C376 2.833 1_455 S
C313 C316 1.432 . S
C313 C317 1.414 . S
C313 N320 1.359 . S
C314 C316 1.417 . S
C314 C318 1.432 . S
C314 C326 1.410 . S
C315 C317 1.444 . S
C315 C318 1.317 . S
C315 H338 0.929 . S
C316 C313 1.432 . S
C316 C314 1.417 . S
C316 N324 1.360 . S
C317 C313 1.414 . S
C317 C315 1.444 . S
C317 C322 1.385 . S
C318 C314 1.432 . S
C318 C315 1.317 . S
C318 H330 0.930 . S
C319 C321 1.392 . S
C319 C322 1.370 . S
C319 H331 0.931 . S
N320 C313 1.359 . S
N320 C321 1.327 . S
N320 Tb323 2.600 . S
C321 C319 1.392 . S
C321 N320 1.327 . S
C321 H328 0.930 . S
C322 C317 1.385 . S
C322 C319 1.370 . S
C322 H341 0.930 . S
Tb323 N320 2.600 . S
Tb323 N324 2.660 . S
Tb323 O357 2.362 . S
Tb323 O358 2.421 . S
Tb323 O362 2.546 . S
Tb323 O363 2.610 . S
Tb323 O365 2.320 . S
Tb323 O366 2.552 . S
Tb323 O367 2.413 . S
Tb323 C387 2.833 . S
N324 C316 1.360 . S
N324 Tb323 2.660 . S
N324 C325 1.305 . S
C325 N324 1.305 . S
C325 C327 1.407 1_554 S
C325 H332 0.930 1_554 S
C326 C314 1.410 . S
C326 C327 1.345 1_554 S
C326 H334 0.930 . S
C327 C325 1.407 1_556 S
C327 C326 1.345 1_556 S
C327 H329 0.930 . S
H328 C321 0.930 . S
H329 C327 0.930 . S
H330 C318 0.930 . S
H331 C319 0.931 . S
H332 C325 0.930 1_556 S
H333 C347 0.930 . S
H334 C326 0.930 . S
H335 C353 0.930 . S
H336 C344 0.930 1_545 S
H337 C351 0.931 . S
H338 C315 0.929 . S
H339 C345 0.930 . S
H340 C378 0.930 . S
H341 C322 0.930 . S
H342 C377 0.929 . S
N343 Tb312 2.660 1_565 S
N343 C344 1.305 . S
N343 C348 1.360 . S
C344 H336 0.930 1_565 S
C344 N343 1.305 . S
C344 C347 1.407 . S
C345 H339 0.930 . S
C345 C346 1.410 . S
C345 C347 1.345 1_655 S
C346 C345 1.410 . S
C346 C348 1.417 1_655 S
C346 C378 1.432 . S
C347 H333 0.930 . S
C347 C344 1.407 . S
C347 C345 1.345 1_455 S
C348 N343 1.360 . S
C348 C346 1.417 1_455 S
C348 C352 1.432 1_554 S
H349 C354 0.930 . S
N350 Tb312 2.600 1_566 S
N350 C352 1.359 . S
N350 C353 1.327 . S
C351 H337 0.931 . S
C351 C353 1.392 . S
C351 C354 1.370 1_455 S
C352 C348 1.432 1_556 S
C352 N350 1.359 . S
C352 C355 1.414 1_455 S
C353 H335 0.930 . S
C353 N350 1.327 . S
C353 C351 1.392 . S
C354 H349 0.930 . S
C354 C351 1.370 1_655 S
C354 C355 1.385 . S
C355 C352 1.414 1_655 S
C355 C354 1.385 . S
C355 C377 1.444 . S
O356 Tb312 2.511 1_656 S
O356 C376 1.282 1_556 S
O357 Tb312 2.610 . S
O357 Tb323 2.362 . S
O357 C368 1.283 . S
O358 Tb323 2.421 . S
O358 C375 1.262 . S
O359 Tb312 2.320 . S
O359 C375 1.260 . S
O360 Tb312 2.552 . S
O360 C368 1.243 . S
O361 Tb312 2.413 1_655 S
O361 C376 1.256 . S
O362 Tb323 2.546 . S
O362 C387 1.251 . S
O363 Tb312 2.362 . S
O363 Tb323 2.610 . S
O363 C379 1.278 1_545 S
O364 Tb312 2.421 1_556 S
O364 C386 1.262 . S
O365 Tb323 2.320 . S
O365 C386 1.260 1_554 S
O366 Tb323 2.552 . S
O366 C379 1.242 1_545 S
O367 Tb323 2.413 . S
O367 C387 1.256 . S
C368 O357 1.283 . S
C368 O360 1.243 . S
C369 C371 1.382 1_556 S
C369 C373 1.393 . S
C369 C376 1.500 1_556 S
C370 C371 1.400 . S
C370 C372 1.384 1_554 S
C371 C369 1.382 1_554 S
C371 C370 1.400 . S
C371 H388 0.930 . S
C372 C370 1.384 1_556 S
C372 C374 1.392 . S
C372 H389 0.931 . S
C373 C369 1.393 . S
C373 C374 1.401 . S
C373 H390 0.930 . S
C374 C372 1.392 . S
C374 C373 1.401 . S
C374 H391 0.930 . S
C375 O358 1.262 . S
C375 O359 1.260 . S
C376 Tb312 2.833 1_655 S
C376 O356 1.282 1_554 S
C376 O361 1.256 . S
C376 C369 1.500 1_554 S
C377 H342 0.929 . S
C377 C355 1.444 . S
C377 C378 1.317 1_556 S
C378 H340 0.930 . S
C378 C346 1.432 . S
C378 C377 1.317 1_554 S
C379 O363 1.278 1_565 S
C379 O366 1.242 1_565 S
C380 C381 1.382 . S
C380 C384 1.393 . S
C380 C387 1.500 . S
C381 C380 1.382 . S
C381 C382 1.400 . S
C381 H392 0.930 . S
C382 C381 1.400 . S
C382 C383 1.384 . S
C383 C382 1.384 . S
C383 C385 1.392 . S
C383 H393 0.931 . S
C384 C380 1.393 . S
C384 C385 1.401 . S
C384 H394 0.930 . S
C385 C383 1.392 . S
C385 C384 1.401 . S
C385 H395 0.930 . S
C386 O364 1.262 . S
C386 O365 1.260 1_556 S
C387 Tb323 2.833 . S
C387 O362 1.251 . S
C387 O367 1.256 . S
C387 C380 1.500 . S
H388 C371 0.930 . S
H389 C372 0.931 . S
H390 C373 0.930 . S
H391 C374 0.930 . S
H392 C381 0.930 . S
H393 C383 0.931 . S
H394 C384 0.930 . S
H395 C385 0.930 . S
Tb396 N427 2.660 . S
Tb396 N434 2.600 . S
Tb396 O440 2.546 . S
Tb396 O441 2.610 . S
Tb396 O443 2.320 . S
Tb396 O444 2.552 . S
Tb396 O445 2.413 . S
Tb396 O447 2.362 . S
Tb396 O448 2.421 . S
Tb396 C460 2.833 . S
C397 C400 1.432 . S
C397 C401 1.414 . S
C397 N404 1.359 . S
C398 C400 1.417 . S
C398 C402 1.432 . S
C398 C410 1.410 . S
C399 C401 1.444 . S
C399 C402 1.317 . S
C399 H422 0.929 . S
C400 C397 1.432 . S
C400 C398 1.417 . S
C400 N408 1.360 . S
C401 C397 1.414 . S
C401 C399 1.444 . S
C401 C406 1.385 . S
C402 C398 1.432 . S
C402 C399 1.317 . S
C402 H414 0.930 . S
C403 C405 1.392 . S
C403 C406 1.370 . S
C403 H415 0.931 . S
N404 C397 1.359 . S
N404 C405 1.327 . S
N404 Tb407 2.600 . S
C405 C403 1.392 . S
C405 N404 1.327 . S
C405 H412 0.930 . S
C406 C401 1.385 . S
C406 C403 1.370 . S
C406 H425 0.930 . S
Tb407 N404 2.600 . S
Tb407 N408 2.660 . S
Tb407 O441 2.362 . S
Tb407 O442 2.421 . S
Tb407 O446 2.546 . S
Tb407 O447 2.610 . S
Tb407 O449 2.320 . S
Tb407 O450 2.552 . S
Tb407 O451 2.413 . S
Tb407 C471 2.833 . S
N408 C400 1.360 . S
N408 Tb407 2.660 . S
N408 C409 1.305 . S
C409 N408 1.305 . S
C409 C411 1.407 . S
C409 H416 0.930 . S
C410 C398 1.410 . S
C410 C411 1.345 . S
C410 H418 0.930 . S
C411 C409 1.407 . S
C411 C410 1.345 . S
C411 H413 0.930 . S
H412 C405 0.930 . S
H413 C411 0.930 . S
H414 C402 0.930 . S
H415 C403 0.931 . S
H416 C409 0.930 . S
H417 C431 0.930 . S
H418 C410 0.930 . S
H419 C437 0.930 . S
H420 C428 0.930 . S
H421 C435 0.931 . S
H422 C399 0.929 . S
H423 C429 0.930 . S
H424 C462 0.930 . S
H425 C406 0.930 . S
H426 C461 0.929 . S
N427 Tb396 2.660 . S
N427 C428 1.305 . S
N427 C432 1.360 . S
C428 H420 0.930 . S
C428 N427 1.305 . S
C428 C431 1.407 . S
C429 H423 0.930 . S
C429 C430 1.410 . S
C429 C431 1.345 . S
C430 C429 1.410 . S
C430 C432 1.417 . S
C430 C462 1.432 . S
C431 H417 0.930 . S
C431 C428 1.407 . S
C431 C429 1.345 . S
C432 N427 1.360 . S
C432 C430 1.417 . S
C432 C436 1.432 . S
H433 C438 0.930 . S
N434 Tb396 2.600 . S
N434 C436 1.359 . S
N434 C437 1.327 . S
C435 H421 0.931 . S
C435 C437 1.392 . S
C435 C438 1.370 . S
C436 C432 1.432 . S
C436 N434 1.359 . S
C436 C439 1.414 . S
C437 H419 0.930 . S
C437 N434 1.327 . S
C437 C435 1.392 . S
C438 H433 0.930 . S
C438 C435 1.370 . S
C438 C439 1.385 . S
C439 C436 1.414 . S
C439 C438 1.385 . S
C439 C461 1.444 . S
O440 Tb396 2.546 . S
O440 C460 1.251 . S
O441 Tb396 2.610 . S
O441 Tb407 2.362 . S
O441 C452 1.283 . S
O442 Tb407 2.421 . S
O442 C459 1.262 . S
O443 Tb396 2.320 . S
O443 C459 1.260 . S
O444 Tb396 2.552 . S
O444 C452 1.243 . S
O445 Tb396 2.413 . S
O445 C460 1.256 . S
O446 Tb407 2.546 . S
O446 C471 1.251 . S
O447 Tb396 2.362 . S
O447 Tb407 2.610 . S
O447 C463 1.283 . S
O448 Tb396 2.421 . S
O448 C470 1.262 . S
O449 Tb407 2.320 . S
O449 C470 1.260 . S
O450 Tb407 2.552 . S
O450 C463 1.243 . S
O451 Tb407 2.413 . S
O451 C471 1.256 . S
C452 O441 1.283 . S
C452 O444 1.243 . S
C453 C455 1.382 . S
C453 C457 1.393 . S
C453 C460 1.500 . S
C454 C455 1.400 . S
C454 C456 1.384 . S
C455 C453 1.382 . S
C455 C454 1.400 . S
C455 H472 0.930 . S
C456 C454 1.384 . S
C456 C458 1.392 . S
C456 H473 0.931 . S
C457 C453 1.393 . S
C457 C458 1.401 . S
C457 H474 0.930 . S
C458 C456 1.392 . S
C458 C457 1.401 . S
C458 H475 0.930 . S
C459 O442 1.262 . S
C459 O443 1.260 . S
C460 Tb396 2.833 . S
C460 O440 1.251 . S
C460 O445 1.256 . S
C460 C453 1.500 . S
C461 H426 0.929 . S
C461 C439 1.444 . S
C461 C462 1.317 . S
C462 H424 0.930 . S
C462 C430 1.432 . S
C462 C461 1.317 . S
C463 O447 1.283 . S
C463 O450 1.243 . S
C464 C465 1.382 . S
C464 C468 1.393 . S
C464 C471 1.500 . S
C465 C464 1.382 . S
C465 C466 1.400 . S
C465 H476 0.930 . S
C466 C465 1.400 . S
C466 C467 1.384 . S
C467 C466 1.384 . S
C467 C469 1.392 . S
C467 H477 0.931 . S
C468 C464 1.393 . S
C468 C469 1.401 . S
C468 H478 0.930 . S
C469 C467 1.392 . S
C469 C468 1.401 . S
C469 H479 0.930 . S
C470 O448 1.262 . S
C470 O449 1.260 . S
C471 Tb407 2.833 . S
C471 O446 1.251 . S
C471 O451 1.256 . S
C471 C464 1.500 . S
H472 C455 0.930 . S
H473 C456 0.931 . S
H474 C457 0.930 . S
H475 C458 0.930 . S
H476 C465 0.930 . S
H477 C467 0.931 . S
H478 C468 0.930 . S
H479 C469 0.930 . S
Tb480 N511 2.660 . S
Tb480 N518 2.600 . S
Tb480 O524 2.546 . S
Tb480 O525 2.610 1_545 S
Tb480 O527 2.320 . S
Tb480 O528 2.552 1_545 S
Tb480 O529 2.413 . S
Tb480 O531 2.362 . S
Tb480 O532 2.421 . S
Tb480 C544 2.833 . S
C481 C484 1.432 . S
C481 C485 1.414 . S
C481 N488 1.359 . S
C482 C484 1.417 . S
C482 C486 1.432 . S
C482 C494 1.410 . S
C483 C485 1.444 . S
C483 C486 1.317 . S
C483 H506 0.929 . S
C484 C481 1.432 . S
C484 C482 1.417 . S
C484 N492 1.360 . S
C485 C481 1.414 . S
C485 C483 1.444 . S
C485 C490 1.385 . S
C486 C482 1.432 . S
C486 C483 1.317 . S
C486 H498 0.930 . S
C487 C489 1.392 1_565 S
C487 C490 1.370 . S
C487 H499 0.931 . S
N488 C481 1.359 . S
N488 C489 1.327 1_565 S
N488 Tb491 2.600 1_565 S
C489 C487 1.392 1_545 S
C489 N488 1.327 1_545 S
C489 H496 0.930 . S
C490 C485 1.385 . S
C490 C487 1.370 . S
C490 H509 0.930 . S
Tb491 N488 2.600 1_545 S
Tb491 N492 2.660 1_545 S
Tb491 O525 2.362 1_545 S
Tb491 O526 2.421 . S
Tb491 O530 2.546 . S
Tb491 O531 2.610 . S
Tb491 O533 2.320 . S
Tb491 O534 2.552 . S
Tb491 O535 2.413 . S
Tb491 C555 2.833 . S
N492 C484 1.360 . S
N492 Tb491 2.660 1_565 S
N492 C493 1.305 . S
C493 N492 1.305 . S
C493 C495 1.407 . S
C493 H500 0.930 . S
C494 C482 1.410 . S
C494 C495 1.345 . S
C494 H502 0.930 . S
C495 C493 1.407 . S
C495 C494 1.345 . S
C495 H497 0.930 . S
H496 C489 0.930 . S
H497 C495 0.930 . S
H498 C486 0.930 . S
H499 C487 0.931 . S
H500 C493 0.930 . S
H501 C515 0.930 . S
H502 C494 0.930 . S
H503 C521 0.930 . S
H504 C512 0.930 . S
H505 C519 0.931 . S
H506 C483 0.929 . S
H507 C513 0.930 . S
H508 C546 0.930 . S
H509 C490 0.930 . S
H510 C545 0.929 . S
N511 Tb480 2.660 . S
N511 C512 1.305 . S
N511 C516 1.360 . S
C512 H504 0.930 . S
C512 N511 1.305 . S
C512 C515 1.407 . S
C513 H507 0.930 . S
C513 C514 1.410 . S
C513 C515 1.345 . S
C514 C513 1.410 . S
C514 C516 1.417 . S
C514 C546 1.432 . S
C515 H501 0.930 . S
C515 C512 1.407 . S
C515 C513 1.345 . S
C516 N511 1.360 . S
C516 C514 1.417 . S
C516 C520 1.432 . S
H517 C522 0.930 . S
N518 Tb480 2.600 . S
N518 C520 1.359 . S
N518 C521 1.327 . S
C519 H505 0.931 . S
C519 C521 1.392 . S
C519 C522 1.370 . S
C520 C516 1.432 . S
C520 N518 1.359 . S
C520 C523 1.414 . S
C521 H503 0.930 . S
C521 N518 1.327 . S
C521 C519 1.392 . S
C522 H517 0.930 . S
C522 C519 1.370 . S
C522 C523 1.385 . S
C523 C520 1.414 . S
C523 C522 1.385 . S
C523 C545 1.444 . S
O524 Tb480 2.546 . S
O524 C544 1.251 . S
O525 Tb480 2.610 1_565 S
O525 Tb491 2.362 1_565 S
O525 C536 1.283 . S
O526 Tb491 2.421 . S
O526 C543 1.262 . S
O527 Tb480 2.320 . S
O527 C543 1.260 . S
O528 Tb480 2.552 1_565 S
O528 C536 1.243 . S
O529 Tb480 2.413 . S
O529 C544 1.256 . S
O530 Tb491 2.546 . S
O530 C555 1.251 . S
O531 Tb480 2.362 . S
O531 Tb491 2.610 . S
O531 C547 1.283 . S
O532 Tb480 2.421 . S
O532 C554 1.262 . S
O533 Tb491 2.320 . S
O533 C554 1.260 . S
O534 Tb491 2.552 . S
O534 C547 1.243 . S
O535 Tb491 2.413 . S
O535 C555 1.256 . S
C536 O525 1.283 . S
C536 O528 1.243 . S
C537 C539 1.382 . S
C537 C541 1.393 . S
C537 C544 1.500 1_565 S
C538 C539 1.400 . S
C538 C540 1.384 . S
C539 C537 1.382 . S
C539 C538 1.400 . S
C539 H556 0.930 . S
C540 C538 1.384 . S
C540 C542 1.392 . S
C540 H557 0.931 . S
C541 C537 1.393 . S
C541 C542 1.401 . S
C541 H558 0.930 . S
C542 C540 1.392 . S
C542 C541 1.401 . S
C542 H559 0.930 . S
C543 O526 1.262 . S
C543 O527 1.260 . S
C544 Tb480 2.833 . S
C544 O524 1.251 . S
C544 O529 1.256 . S
C544 C537 1.500 1_545 S
C545 H510 0.929 . S
C545 C523 1.444 . S
C545 C546 1.317 . S
C546 H508 0.930 . S
C546 C514 1.432 . S
C546 C545 1.317 . S
C547 O531 1.283 . S
C547 O534 1.243 . S
C548 C549 1.382 . S
C548 C552 1.393 . S
C548 C555 1.500 . S
C549 C548 1.382 . S
C549 C550 1.400 . S
C549 H560 0.930 . S
C550 C549 1.400 . S
C550 C551 1.384 . S
C551 C550 1.384 . S
C551 C553 1.392 . S
C551 H561 0.931 . S
C552 C548 1.393 . S
C552 C553 1.401 . S
C552 H562 0.930 . S
C553 C551 1.392 . S
C553 C552 1.401 . S
C553 H563 0.930 . S
C554 O532 1.262 . S
C554 O533 1.260 . S
C555 Tb491 2.833 . S
C555 O530 1.251 . S
C555 O535 1.256 . S
C555 C548 1.500 . S
H556 C539 0.930 . S
H557 C540 0.931 . S
H558 C541 0.930 . S
H559 C542 0.930 . S
H560 C549 0.930 . S
H561 C551 0.931 . S
H562 C552 0.930 . S
H563 C553 0.930 . S
Tb564 N595 2.660 . S
Tb564 N602 2.600 . S
Tb564 O608 2.546 . S
Tb564 O609 2.610 . S
Tb564 O611 2.320 . S
Tb564 O612 2.552 . S
Tb564 O613 2.413 . S
Tb564 O615 2.362 . S
Tb564 O616 2.421 . S
Tb564 C628 2.833 . S
C565 C568 1.432 . S
C565 C569 1.414 . S
C565 N572 1.359 . S
C566 C568 1.417 . S
C566 C570 1.432 . S
C566 C578 1.410 . S
C567 C569 1.444 . S
C567 C570 1.317 . S
C567 H590 0.929 . S
C568 C565 1.432 . S
C568 C566 1.417 . S
C568 N576 1.360 . S
C569 C565 1.414 . S
C569 C567 1.444 . S
C569 C574 1.385 . S
C570 C566 1.432 . S
C570 C567 1.317 . S
C570 H582 0.930 . S
C571 C573 1.392 . S
C571 C574 1.370 . S
C571 H583 0.931 . S
N572 C565 1.359 . S
N572 C573 1.327 . S
N572 Tb575 2.600 . S
C573 C571 1.392 . S
C573 N572 1.327 . S
C573 H580 0.930 . S
C574 C569 1.385 . S
C574 C571 1.370 . S
C574 H593 0.930 . S
Tb575 N572 2.600 . S
Tb575 N576 2.660 . S
Tb575 O609 2.362 . S
Tb575 O610 2.421 . S
Tb575 O614 2.546 . S
Tb575 O615 2.610 . S
Tb575 O617 2.320 . S
Tb575 O618 2.552 . S
Tb575 O619 2.413 . S
Tb575 C639 2.833 . S
N576 C568 1.360 . S
N576 Tb575 2.660 . S
N576 C577 1.305 . S
C577 N576 1.305 . S
C577 C579 1.407 . S
C577 H584 0.930 . S
C578 C566 1.410 . S
C578 C579 1.345 . S
C578 H586 0.930 . S
C579 C577 1.407 . S
C579 C578 1.345 . S
C579 H581 0.930 . S
H580 C573 0.930 . S
H581 C579 0.930 . S
H582 C570 0.930 . S
H583 C571 0.931 . S
H584 C577 0.930 . S
H585 C599 0.930 . S
H586 C578 0.930 . S
H587 C605 0.930 . S
H588 C596 0.930 . S
H589 C603 0.931 . S
H590 C567 0.929 . S
H591 C597 0.930 . S
H592 C630 0.930 . S
H593 C574 0.930 . S
H594 C629 0.929 . S
N595 Tb564 2.660 . S
N595 C596 1.305 . S
N595 C600 1.360 . S
C596 H588 0.930 . S
C596 N595 1.305 . S
C596 C599 1.407 . S
C597 H591 0.930 . S
C597 C598 1.410 . S
C597 C599 1.345 . S
C598 C597 1.410 . S
C598 C600 1.417 . S
C598 C630 1.432 . S
C599 H585 0.930 . S
C599 C596 1.407 . S
C599 C597 1.345 . S
C600 N595 1.360 . S
C600 C598 1.417 . S
C600 C604 1.432 . S
H601 C606 0.930 . S
N602 Tb564 2.600 . S
N602 C604 1.359 . S
N602 C605 1.327 . S
C603 H589 0.931 . S
C603 C605 1.392 . S
C603 C606 1.370 . S
C604 C600 1.432 . S
C604 N602 1.359 . S
C604 C607 1.414 . S
C605 H587 0.930 . S
C605 N602 1.327 . S
C605 C603 1.392 . S
C606 H601 0.930 . S
C606 C603 1.370 . S
C606 C607 1.385 . S
C607 C604 1.414 . S
C607 C606 1.385 . S
C607 C629 1.444 . S
O608 Tb564 2.546 . S
O608 C628 1.251 . S
O609 Tb564 2.610 . S
O609 Tb575 2.362 . S
O609 C620 1.283 . S
O610 Tb575 2.421 . S
O610 C627 1.262 . S
O611 Tb564 2.320 . S
O611 C627 1.260 . S
O612 Tb564 2.552 . S
O612 C620 1.243 . S
O613 Tb564 2.413 . S
O613 C628 1.256 . S
O614 Tb575 2.546 . S
O614 C639 1.251 . S
O615 Tb564 2.362 . S
O615 Tb575 2.610 . S
O615 C631 1.283 . S
O616 Tb564 2.421 . S
O616 C638 1.262 . S
O617 Tb575 2.320 . S
O617 C638 1.260 . S
O618 Tb575 2.552 . S
O618 C631 1.243 . S
O619 Tb575 2.413 . S
O619 C639 1.256 . S
C620 O609 1.283 . S
C620 O612 1.243 . S
C621 C623 1.382 . S
C621 C625 1.393 . S
C621 C628 1.500 . S
C622 C623 1.400 . S
C622 C624 1.384 . S
C623 C621 1.382 . S
C623 C622 1.400 . S
C623 H640 0.930 . S
C624 C622 1.384 . S
C624 C626 1.392 . S
C624 H641 0.931 . S
C625 C621 1.393 . S
C625 C626 1.401 . S
C625 H642 0.930 . S
C626 C624 1.392 . S
C626 C625 1.401 . S
C626 H643 0.930 . S
C627 O610 1.262 . S
C627 O611 1.260 . S
C628 Tb564 2.833 . S
C628 O608 1.251 . S
C628 O613 1.256 . S
C628 C621 1.500 . S
C629 H594 0.929 . S
C629 C607 1.444 . S
C629 C630 1.317 . S
C630 H592 0.930 . S
C630 C598 1.432 . S
C630 C629 1.317 . S
C631 O615 1.283 . S
C631 O618 1.243 . S
C632 C633 1.382 . S
C632 C636 1.393 . S
C632 C639 1.500 . S
C633 C632 1.382 . S
C633 C634 1.400 . S
C633 H644 0.930 . S
C634 C633 1.400 . S
C634 C635 1.384 . S
C635 C634 1.384 . S
C635 C637 1.392 . S
C635 H645 0.931 . S
C636 C632 1.393 . S
C636 C637 1.401 . S
C636 H646 0.930 . S
C637 C635 1.392 . S
C637 C636 1.401 . S
C637 H647 0.930 . S
C638 O616 1.262 . S
C638 O617 1.260 . S
C639 Tb575 2.833 . S
C639 O614 1.251 . S
C639 O619 1.256 . S
C639 C632 1.500 . S
H640 C623 0.930 . S
H641 C624 0.931 . S
H642 C625 0.930 . S
H643 C626 0.930 . S
H644 C633 0.930 . S
H645 C635 0.931 . S
H646 C636 0.930 . S
H647 C637 0.930 . S
Tb648 N679 2.660 . S
Tb648 N686 2.600 . S
Tb648 O692 2.546 . S
Tb648 O693 2.610 . S
Tb648 O695 2.320 . S
Tb648 O696 2.552 . S
Tb648 O697 2.413 . S
Tb648 O699 2.362 . S
Tb648 O700 2.421 . S
Tb648 C712 2.833 . S
C649 C652 1.432 . S
C649 C653 1.414 . S
C649 N656 1.359 . S
C650 C652 1.417 . S
C650 C654 1.432 . S
C650 C662 1.410 . S
C651 C653 1.444 . S
C651 C654 1.317 . S
C651 H674 0.929 . S
C652 C649 1.432 . S
C652 C650 1.417 . S
C652 N660 1.360 . S
C653 C649 1.414 . S
C653 C651 1.444 . S
C653 C658 1.385 . S
C654 C650 1.432 . S
C654 C651 1.317 . S
C654 H666 0.930 . S
C655 C657 1.392 . S
C655 C658 1.370 . S
C655 H667 0.931 . S
N656 C649 1.359 . S
N656 C657 1.327 . S
N656 Tb659 2.600 . S
C657 C655 1.392 . S
C657 N656 1.327 . S
C657 H664 0.930 . S
C658 C653 1.385 . S
C658 C655 1.370 . S
C658 H677 0.930 . S
Tb659 N656 2.600 . S
Tb659 N660 2.660 . S
Tb659 O693 2.362 1_565 S
Tb659 O694 2.421 1_565 S
Tb659 O698 2.546 . S
Tb659 O699 2.610 1_565 S
Tb659 O701 2.320 . S
Tb659 O702 2.552 . S
Tb659 O703 2.413 . S
Tb659 C723 2.833 . S
N660 C652 1.360 . S
N660 Tb659 2.660 . S
N660 C661 1.305 . S
C661 N660 1.305 . S
C661 C663 1.407 . S
C661 H668 0.930 . S
C662 C650 1.410 . S
C662 C663 1.345 . S
C662 H670 0.930 . S
C663 C661 1.407 . S
C663 C662 1.345 . S
C663 H665 0.930 1_455 S
H664 C657 0.930 . S
H665 C663 0.930 1_655 S
H666 C654 0.930 . S
H667 C655 0.931 . S
H668 C661 0.930 . S
H669 C683 0.930 . S
H670 C662 0.930 . S
H671 C689 0.930 . S
H672 C680 0.930 . S
H673 C687 0.931 1_655 S
H674 C651 0.929 . S
H675 C681 0.930 . S
H676 C714 0.930 . S
H677 C658 0.930 . S
H678 C713 0.929 . S
N679 Tb648 2.660 . S
N679 C680 1.305 . S
N679 C684 1.360 . S
C680 H672 0.930 . S
C680 N679 1.305 . S
C680 C683 1.407 . S
C681 H675 0.930 . S
C681 C682 1.410 . S
C681 C683 1.345 . S
C682 C681 1.410 . S
C682 C684 1.417 . S
C682 C714 1.432 . S
C683 H669 0.930 . S
C683 C680 1.407 . S
C683 C681 1.345 . S
C684 N679 1.360 . S
C684 C682 1.417 . S
C684 C688 1.432 . S
H685 C690 0.930 . S
N686 Tb648 2.600 . S
N686 C688 1.359 . S
N686 C689 1.327 . S
C687 H673 0.931 1_455 S
C687 C689 1.392 . S
C687 C690 1.370 . S
C688 C684 1.432 . S
C688 N686 1.359 . S
C688 C691 1.414 . S
C689 H671 0.930 . S
C689 N686 1.327 . S
C689 C687 1.392 . S
C690 H685 0.930 . S
C690 C687 1.370 . S
C690 C691 1.385 . S
C691 C688 1.414 . S
C691 C690 1.385 . S
C691 C713 1.444 . S
O692 Tb648 2.546 . S
O692 C712 1.251 . S
O693 Tb648 2.610 . S
O693 Tb659 2.362 1_545 S
O693 C704 1.283 . S
O694 Tb659 2.421 1_545 S
O694 C711 1.262 . S
O695 Tb648 2.320 . S
O695 C711 1.260 . S
O696 Tb648 2.552 . S
O696 C704 1.243 . S
O697 Tb648 2.413 . S
O697 C712 1.256 . S
O698 Tb659 2.546 . S
O698 C723 1.251 . S
O699 Tb648 2.362 . S
O699 Tb659 2.610 1_545 S
O699 C715 1.283 . S
O700 Tb648 2.421 . S
O700 C722 1.262 . S
O701 Tb659 2.320 . S
O701 C722 1.260 1_565 S
O702 Tb659 2.552 . S
O702 C715 1.243 1_565 S
O703 Tb659 2.413 . S
O703 C723 1.256 . S
C704 O693 1.283 . S
C704 O696 1.243 . S
C705 C707 1.382 . S
C705 C709 1.393 . S
C705 C712 1.500 . S
C706 C707 1.400 . S
C706 C708 1.384 . S
C707 C705 1.382 . S
C707 C706 1.400 . S
C707 H724 0.930 . S
C708 C706 1.384 . S
C708 C710 1.392 . S
C708 H725 0.931 . S
C709 C705 1.393 . S
C709 C710 1.401 . S
C709 H726 0.930 . S
C710 C708 1.392 . S
C710 C709 1.401 . S
C710 H727 0.930 . S
C711 O694 1.262 . S
C711 O695 1.260 . S
C712 Tb648 2.833 . S
C712 O692 1.251 . S
C712 O697 1.256 . S
C712 C705 1.500 . S
C713 H678 0.929 . S
C713 C691 1.444 . S
C713 C714 1.317 . S
C714 H676 0.930 . S
C714 C682 1.432 . S
C714 C713 1.317 . S
C715 O699 1.283 . S
C715 O702 1.243 1_545 S
C716 C717 1.382 . S
C716 C720 1.393 . S
C716 C723 1.500 . S
C717 C716 1.382 . S
C717 C718 1.400 . S
C717 H728 0.930 . S
C718 C717 1.400 . S
C718 C719 1.384 . S
C719 C718 1.384 . S
C719 C721 1.392 . S
C719 H729 0.931 . S
C720 C716 1.393 . S
C720 C721 1.401 . S
C720 H730 0.930 . S
C721 C719 1.392 . S
C721 C720 1.401 . S
C721 H731 0.930 . S
C722 O700 1.262 . S
C722 O701 1.260 1_545 S
C723 Tb659 2.833 . S
C723 O698 1.251 . S
C723 O703 1.256 . S
C723 C716 1.500 . S
H724 C707 0.930 . S
H725 C708 0.931 . S
H726 C709 0.930 . S
H727 C710 0.930 . S
H728 C717 0.930 . S
H729 C719 0.931 . S
H730 C720 0.930 . S
H731 C721 0.930 . S
Tb732 N763 2.660 . S
Tb732 N770 2.600 . S
Tb732 O776 2.546 . S
Tb732 O777 2.610 . S
Tb732 O779 2.320 . S
Tb732 O780 2.552 . S
Tb732 O781 2.413 . S
Tb732 O783 2.362 . S
Tb732 O784 2.421 . S
Tb732 C796 2.833 . S
C733 C736 1.432 . S
C733 C737 1.414 . S
C733 N740 1.359 . S
C734 C736 1.417 . S
C734 C738 1.432 . S
C734 C746 1.410 . S
C735 C737 1.444 . S
C735 C738 1.317 . S
C735 H758 0.929 . S
C736 C733 1.432 . S
C736 C734 1.417 . S
C736 N744 1.360 . S
C737 C733 1.414 . S
C737 C735 1.444 . S
C737 C742 1.385 . S
C738 C734 1.432 . S
C738 C735 1.317 . S
C738 H750 0.930 . S
C739 C741 1.392 . S
C739 C742 1.370 . S
C739 H751 0.931 . S
N740 C733 1.359 . S
N740 C741 1.327 . S
N740 Tb743 2.600 . S
C741 C739 1.392 . S
C741 N740 1.327 . S
C741 H748 0.930 . S
C742 C737 1.385 . S
C742 C739 1.370 . S
C742 H761 0.930 . S
Tb743 N740 2.600 . S
Tb743 N744 2.660 . S
Tb743 O777 2.362 . S
Tb743 O778 2.421 . S
Tb743 O782 2.546 . S
Tb743 O783 2.610 . S
Tb743 O785 2.320 . S
Tb743 O786 2.552 . S
Tb743 O787 2.413 . S
Tb743 C807 2.833 . S
N744 C736 1.360 . S
N744 Tb743 2.660 . S
N744 C745 1.305 . S
C745 N744 1.305 . S
C745 C747 1.407 . S
C745 H752 0.930 . S
C746 C734 1.410 . S
C746 C747 1.345 . S
C746 H754 0.930 . S
C747 C745 1.407 . S
C747 C746 1.345 . S
C747 H749 0.930 . S
H748 C741 0.930 . S
H749 C747 0.930 . S
H750 C738 0.930 . S
H751 C739 0.931 . S
H752 C745 0.930 . S
H753 C767 0.930 . S
H754 C746 0.930 . S
H755 C773 0.930 . S
H756 C764 0.930 . S
H757 C771 0.931 . S
H758 C735 0.929 . S
H759 C765 0.930 . S
H760 C798 0.930 . S
H761 C742 0.930 . S
H762 C797 0.929 . S
N763 Tb732 2.660 . S
N763 C764 1.305 . S
N763 C768 1.360 . S
C764 H756 0.930 . S
C764 N763 1.305 . S
C764 C767 1.407 . S
C765 H759 0.930 . S
C765 C766 1.410 . S
C765 C767 1.345 . S
C766 C765 1.410 . S
C766 C768 1.417 . S
C766 C798 1.432 . S
C767 H753 0.930 . S
C767 C764 1.407 . S
C767 C765 1.345 . S
C768 N763 1.360 . S
C768 C766 1.417 . S
C768 C772 1.432 . S
H769 C774 0.930 . S
N770 Tb732 2.600 . S
N770 C772 1.359 . S
N770 C773 1.327 . S
C771 H757 0.931 . S
C771 C773 1.392 . S
C771 C774 1.370 . S
C772 C768 1.432 . S
C772 N770 1.359 . S
C772 C775 1.414 . S
C773 H755 0.930 . S
C773 N770 1.327 . S
C773 C771 1.392 . S
C774 H769 0.930 . S
C774 C771 1.370 . S
C774 C775 1.385 . S
C775 C772 1.414 . S
C775 C774 1.385 . S
C775 C797 1.444 . S
O776 Tb732 2.546 . S
O776 C796 1.251 . S
O777 Tb732 2.610 . S
O777 Tb743 2.362 . S
O777 C788 1.283 . S
O778 Tb743 2.421 . S
O778 C795 1.262 . S
O779 Tb732 2.320 . S
O779 C795 1.260 . S
O780 Tb732 2.552 . S
O780 C788 1.243 . S
O781 Tb732 2.413 . S
O781 C796 1.256 . S
O782 Tb743 2.546 . S
O782 C807 1.251 . S
O783 Tb732 2.362 . S
O783 Tb743 2.610 . S
O783 C799 1.283 . S
O784 Tb732 2.421 . S
O784 C806 1.262 . S
O785 Tb743 2.320 . S
O785 C806 1.260 . S
O786 Tb743 2.552 . S
O786 C799 1.243 . S
O787 Tb743 2.413 . S
O787 C807 1.256 . S
C788 O777 1.283 . S
C788 O780 1.243 . S
C789 C791 1.382 . S
C789 C793 1.393 . S
C789 C796 1.500 . S
C790 C791 1.400 . S
C790 C792 1.384 . S
C791 C789 1.382 . S
C791 C790 1.400 . S
C791 H808 0.930 . S
C792 C790 1.384 . S
C792 C794 1.392 . S
C792 H809 0.931 . S
C793 C789 1.393 . S
C793 C794 1.401 . S
C793 H810 0.930 . S
C794 C792 1.392 . S
C794 C793 1.401 . S
C794 H811 0.930 . S
C795 O778 1.262 . S
C795 O779 1.260 . S
C796 Tb732 2.833 . S
C796 O776 1.251 . S
C796 O781 1.256 . S
C796 C789 1.500 . S
C797 H762 0.929 . S
C797 C775 1.444 . S
C797 C798 1.317 . S
C798 H760 0.930 . S
C798 C766 1.432 . S
C798 C797 1.317 . S
C799 O783 1.283 . S
C799 O786 1.243 . S
C800 C801 1.382 . S
C800 C804 1.393 . S
C800 C807 1.500 . S
C801 C800 1.382 . S
C801 C802 1.400 . S
C801 H812 0.930 . S
C802 C801 1.400 . S
C802 C803 1.384 . S
C803 C802 1.384 . S
C803 C805 1.392 . S
C803 H813 0.931 . S
C804 C800 1.393 . S
C804 C805 1.401 . S
C804 H814 0.930 . S
C805 C803 1.392 . S
C805 C804 1.401 . S
C805 H815 0.930 . S
C806 O784 1.262 . S
C806 O785 1.260 . S
C807 Tb743 2.833 . S
C807 O782 1.251 . S
C807 O787 1.256 . S
C807 C800 1.500 . S
H808 C791 0.930 . S
H809 C792 0.931 . S
H810 C793 0.930 . S
H811 C794 0.930 . S
H812 C801 0.930 . S
H813 C803 0.931 . S
H814 C804 0.930 . S
H815 C805 0.930 . S
Tb816 N847 2.660 . S
Tb816 N854 2.600 . S
Tb816 O860 2.546 1_545 S
Tb816 O861 2.610 . S
Tb816 O863 2.320 . S
Tb816 O864 2.552 . S
Tb816 O865 2.413 . S
Tb816 O867 2.362 . S
Tb816 O868 2.421 1_545 S
Tb816 C880 2.833 . S
C817 C820 1.432 . S
C817 C821 1.414 . S
C817 N824 1.359 . S
C818 C820 1.417 . S
C818 C822 1.432 . S
C818 C830 1.410 1_545 S
C819 C821 1.444 . S
C819 C822 1.317 . S
C819 H842 0.929 . S
C820 C817 1.432 . S
C820 C818 1.417 . S
C820 N828 1.360 . S
C821 C817 1.414 . S
C821 C819 1.444 . S
C821 C826 1.385 . S
C822 C818 1.432 . S
C822 C819 1.317 . S
C822 H834 0.930 . S
C823 C825 1.392 . S
C823 C826 1.370 . S
C823 H835 0.931 . S
N824 C817 1.359 . S
N824 C825 1.327 . S
N824 Tb827 2.600 . S
C825 C823 1.392 . S
C825 N824 1.327 . S
C825 H832 0.930 . S
C826 C821 1.385 . S
C826 C823 1.370 . S
C826 H845 0.930 . S
Tb827 N824 2.600 . S
Tb827 N828 2.660 . S
Tb827 O861 2.362 1_556 S
Tb827 O862 2.421 1_556 S
Tb827 O866 2.546 . S
Tb827 O867 2.610 1_556 S
Tb827 O869 2.320 . S
Tb827 O870 2.552 . S
Tb827 O871 2.413 . S
Tb827 C891 2.833 . S
N828 C820 1.360 . S
N828 Tb827 2.660 . S
N828 C829 1.305 1_545 S
C829 N828 1.305 1_565 S
C829 C831 1.407 . S
C829 H836 0.930 . S
C830 C818 1.410 1_565 S
C830 C831 1.345 . S
C830 H838 0.930 . S
C831 C829 1.407 . S
C831 C830 1.345 . S
C831 H833 0.930 . S
H832 C825 0.930 . S
H833 C831 0.930 . S
H834 C822 0.930 . S
H835 C823 0.931 . S
H836 C829 0.930 . S
H837 C851 0.930 . S
H838 C830 0.930 . S
H839 C857 0.930 . S
H840 C848 0.930 . S
H841 C855 0.931 . S
H842 C819 0.929 . S
H843 C849 0.930 . S
H844 C882 0.930 . S
H845 C826 0.930 . S
H846 C881 0.929 . S
N847 Tb816 2.660 . S
N847 C848 1.305 . S
N847 C852 1.360 . S
C848 H840 0.930 . S
C848 N847 1.305 . S
C848 C851 1.407 . S
C849 H843 0.930 . S
C849 C850 1.410 . S
C849 C851 1.345 . S
C850 C849 1.410 . S
C850 C852 1.417 . S
C850 C882 1.432 . S
C851 H837 0.930 . S
C851 C848 1.407 . S
C851 C849 1.345 . S
C852 N847 1.360 . S
C852 C850 1.417 . S
C852 C856 1.432 . S
H853 C858 0.930 . S
N854 Tb816 2.600 . S
N854 C856 1.359 . S
N854 C857 1.327 1_545 S
C855 H841 0.931 . S
C855 C857 1.392 . S
C855 C858 1.370 . S
C856 C852 1.432 . S
C856 N854 1.359 . S
C856 C859 1.414 . S
C857 H839 0.930 . S
C857 N854 1.327 1_565 S
C857 C855 1.392 . S
C858 H853 0.930 . S
C858 C855 1.370 . S
C858 C859 1.385 1_565 S
C859 C856 1.414 . S
C859 C858 1.385 1_545 S
C859 C881 1.444 . S
O860 Tb816 2.546 1_565 S
O860 C880 1.251 1_565 S
O861 Tb816 2.610 . S
O861 Tb827 2.362 1_554 S
O861 C872 1.283 . S
O862 Tb827 2.421 1_554 S
O862 C879 1.262 . S
O863 Tb816 2.320 . S
O863 C879 1.260 . S
O864 Tb816 2.552 . S
O864 C872 1.243 . S
O865 Tb816 2.413 . S
O865 C880 1.256 . S
O866 Tb827 2.546 . S
O866 C891 1.251 . S
O867 Tb816 2.362 . S
O867 Tb827 2.610 1_554 S
O867 C883 1.283 . S
O868 Tb816 2.421 1_565 S
O868 C890 1.262 1_554 S
O869 Tb827 2.320 . S
O869 C890 1.260 1_545 S
O870 Tb827 2.552 . S
O870 C883 1.243 1_556 S
O871 Tb827 2.413 . S
O871 C891 1.256 . S
C872 O861 1.283 . S
C872 O864 1.243 . S
C873 C875 1.382 . S
C873 C877 1.393 1_545 S
C873 C880 1.500 . S
C874 C875 1.400 . S
C874 C876 1.384 1_545 S
C875 C873 1.382 . S
C875 C874 1.400 . S
C875 H892 0.930 . S
C876 C874 1.384 1_565 S
C876 C878 1.392 . S
C876 H893 0.931 . S
C877 C873 1.393 1_565 S
C877 C878 1.401 . S
C877 H894 0.930 . S
C878 C876 1.392 . S
C878 C877 1.401 . S
C878 H895 0.930 . S
C879 O862 1.262 . S
C879 O863 1.260 . S
C880 Tb816 2.833 . S
C880 O860 1.251 1_545 S
C880 O865 1.256 . S
C880 C873 1.500 . S
C881 H846 0.929 . S
C881 C859 1.444 . S
C881 C882 1.317 . S
C882 H844 0.930 . S
C882 C850 1.432 . S
C882 C881 1.317 . S
C883 O867 1.283 . S
C883 O870 1.243 1_554 S
C884 C885 1.382 . S
C884 C888 1.393 . S
C884 C891 1.500 . S
C885 C884 1.382 . S
C885 C886 1.400 . S
C885 H896 0.930 . S
C886 C885 1.400 . S
C886 C887 1.384 . S
C887 C886 1.384 . S
C887 C889 1.392 . S
C887 H897 0.931 . S
C888 C884 1.393 . S
C888 C889 1.401 . S
C888 H898 0.930 . S
C889 C887 1.392 . S
C889 C888 1.401 . S
C889 H899 0.930 . S
C890 O868 1.262 1_556 S
C890 O869 1.260 1_565 S
C891 Tb827 2.833 . S
C891 O866 1.251 . S
C891 O871 1.256 . S
C891 C884 1.500 . S
H892 C875 0.930 . S
H893 C876 0.931 . S
H894 C877 0.930 . S
H895 C878 0.930 . S
H896 C885 0.930 . S
H897 C887 0.931 . S
H898 C888 0.930 . S
H899 C889 0.930 . S
Tb900 N931 2.660 . S
Tb900 N938 2.600 . S
Tb900 O944 2.546 . S
Tb900 O945 2.610 . S
Tb900 O947 2.320 . S
Tb900 O948 2.552 . S
Tb900 O949 2.413 . S
Tb900 O951 2.362 . S
Tb900 O952 2.421 . S
Tb900 C964 2.833 . S
C901 C904 1.432 . S
C901 C905 1.414 . S
C901 N908 1.359 . S
C902 C904 1.417 . S
C902 C906 1.432 . S
C902 C914 1.410 . S
C903 C905 1.444 . S
C903 C906 1.317 . S
C903 H926 0.929 . S
C904 C901 1.432 . S
C904 C902 1.417 . S
C904 N912 1.360 . S
C905 C901 1.414 . S
C905 C903 1.444 . S
C905 C910 1.385 . S
C906 C902 1.432 . S
C906 C903 1.317 . S
C906 H918 0.930 . S
C907 C909 1.392 . S
C907 C910 1.370 . S
C907 H919 0.931 . S
N908 C901 1.359 . S
N908 C909 1.327 . S
N908 Tb911 2.600 . S
C909 C907 1.392 . S
C909 N908 1.327 . S
C909 H916 0.930 . S
C910 C905 1.385 . S
C910 C907 1.370 . S
C910 H929 0.930 . S
Tb911 N908 2.600 . S
Tb911 N912 2.660 . S
Tb911 O945 2.362 . S
Tb911 O946 2.421 . S
Tb911 O950 2.546 . S
Tb911 O951 2.610 . S
Tb911 O953 2.320 . S
Tb911 O954 2.552 . S
Tb911 O955 2.413 . S
Tb911 C975 2.833 . S
N912 C904 1.360 . S
N912 Tb911 2.660 . S
N912 C913 1.305 . S
C913 N912 1.305 . S
C913 C915 1.407 . S
C913 H920 0.930 . S
C914 C902 1.410 . S
C914 C915 1.345 . S
C914 H922 0.930 . S
C915 C913 1.407 . S
C915 C914 1.345 . S
C915 H917 0.930 . S
H916 C909 0.930 . S
H917 C915 0.930 . S
H918 C906 0.930 . S
H919 C907 0.931 . S
H920 C913 0.930 . S
H921 C935 0.930 . S
H922 C914 0.930 . S
H923 C941 0.930 . S
H924 C932 0.930 . S
H925 C939 0.931 . S
H926 C903 0.929 . S
H927 C933 0.930 . S
H928 C966 0.930 . S
H929 C910 0.930 . S
H930 C965 0.929 . S
N931 Tb900 2.660 . S
N931 C932 1.305 . S
N931 C936 1.360 . S
C932 H924 0.930 . S
C932 N931 1.305 . S
C932 C935 1.407 . S
C933 H927 0.930 . S
C933 C934 1.410 . S
C933 C935 1.345 . S
C934 C933 1.410 . S
C934 C936 1.417 . S
C934 C966 1.432 . S
C935 H921 0.930 . S
C935 C932 1.407 . S
C935 C933 1.345 . S
C936 N931 1.360 . S
C936 C934 1.417 . S
C936 C940 1.432 . S
H937 C942 0.930 . S
N938 Tb900 2.600 . S
N938 C940 1.359 . S
N938 C941 1.327 . S
C939 H925 0.931 . S
C939 C941 1.392 . S
C939 C942 1.370 . S
C940 C936 1.432 . S
C940 N938 1.359 . S
C940 C943 1.414 . S
C941 H923 0.930 . S
C941 N938 1.327 . S
C941 C939 1.392 . S
C942 H937 0.930 . S
C942 C939 1.370 . S
C942 C943 1.385 . S
C943 C940 1.414 . S
C943 C942 1.385 . S
C943 C965 1.444 . S
O944 Tb900 2.546 . S
O944 C964 1.251 . S
O945 Tb900 2.610 . S
O945 Tb911 2.362 . S
O945 C956 1.283 . S
O946 Tb911 2.421 . S
O946 C963 1.262 . S
O947 Tb900 2.320 . S
O947 C963 1.260 . S
O948 Tb900 2.552 . S
O948 C956 1.243 . S
O949 Tb900 2.413 . S
O949 C964 1.256 . S
O950 Tb911 2.546 . S
O950 C975 1.251 . S
O951 Tb900 2.362 . S
O951 Tb911 2.610 . S
O951 C967 1.283 . S
O952 Tb900 2.421 . S
O952 C974 1.262 . S
O953 Tb911 2.320 . S
O953 C974 1.260 . S
O954 Tb911 2.552 . S
O954 C967 1.243 . S
O955 Tb911 2.413 . S
O955 C975 1.256 . S
C956 O945 1.283 . S
C956 O948 1.243 . S
C957 C959 1.382 . S
C957 C961 1.393 . S
C957 C964 1.500 . S
C958 C959 1.400 . S
C958 C960 1.384 . S
C959 C957 1.382 . S
C959 C958 1.400 . S
C959 H976 0.930 . S
C960 C958 1.384 . S
C960 C962 1.392 . S
C960 H977 0.931 . S
C961 C957 1.393 . S
C961 C962 1.401 . S
C961 H978 0.930 . S
C962 C960 1.392 . S
C962 C961 1.401 . S
C962 H979 0.930 . S
C963 O946 1.262 . S
C963 O947 1.260 . S
C964 Tb900 2.833 . S
C964 O944 1.251 . S
C964 O949 1.256 . S
C964 C957 1.500 . S
C965 H930 0.929 . S
C965 C943 1.444 . S
C965 C966 1.317 . S
C966 H928 0.930 . S
C966 C934 1.432 . S
C966 C965 1.317 . S
C967 O951 1.283 . S
C967 O954 1.243 . S
C968 C969 1.382 . S
C968 C972 1.393 . S
C968 C975 1.500 . S
C969 C968 1.382 . S
C969 C970 1.400 . S
C969 H980 0.930 . S
C970 C969 1.400 . S
C970 C971 1.384 . S
C971 C970 1.384 . S
C971 C973 1.392 . S
C971 H981 0.931 . S
C972 C968 1.393 . S
C972 C973 1.401 . S
C972 H982 0.930 . S
C973 C971 1.392 . S
C973 C972 1.401 . S
C973 H983 0.930 . S
C974 O952 1.262 . S
C974 O953 1.260 . S
C975 Tb911 2.833 . S
C975 O950 1.251 . S
C975 O955 1.256 . S
C975 C968 1.500 . S
H976 C959 0.930 . S
H977 C960 0.931 . S
H978 C961 0.930 . S
H979 C962 0.930 . S
H980 C969 0.930 . S
H981 C971 0.931 . S
H982 C972 0.930 . S
H983 C973 0.930 . S
Tb984 N1015 2.660 . S
Tb984 N1022 2.600 . S
Tb984 O1028 2.546 . S
Tb984 O1029 2.610 1_554 S
Tb984 O1031 2.320 . S
Tb984 O1032 2.552 1_554 S
Tb984 O1033 2.413 . S
Tb984 O1035 2.362 . S
Tb984 O1036 2.421 . S
Tb984 C1048 2.833 . S
C985 C988 1.432 . S
C985 C989 1.414 . S
C985 N992 1.359 . S
C986 C988 1.417 . S
C986 C990 1.432 . S
C986 C998 1.410 . S
C987 C989 1.444 . S
C987 C990 1.317 . S
C987 H1010 0.929 . S
C988 C985 1.432 . S
C988 C986 1.417 . S
C988 N996 1.360 . S
C989 C985 1.414 . S
C989 C987 1.444 . S
C989 C994 1.385 . S
C990 C986 1.432 . S
C990 C987 1.317 . S
C990 H1002 0.930 . S
C991 C993 1.392 . S
C991 C994 1.370 . S
C991 H1003 0.931 . S
N992 C985 1.359 . S
N992 C993 1.327 . S
N992 Tb995 2.586 1_556 S
C993 C991 1.392 . S
C993 N992 1.327 . S
C993 H1000 0.930 . S
C994 C989 1.385 . S
C994 C991 1.370 . S
C994 H1013 0.930 . S
Tb995 N992 2.586 1_554 S
Tb995 N996 2.647 1_554 S
Tb995 O1029 2.353 1_554 S
Tb995 O1030 2.418 . S
Tb995 O1034 2.549 . S
Tb995 O1035 2.621 . S
Tb995 O1037 2.325 . S
Tb995 O1038 2.569 . S
Tb995 O1039 2.420 . S
Tb995 C1059 2.839 . S
N996 C988 1.360 . S
N996 Tb995 2.647 1_556 S
N996 C997 1.305 . S
C997 N996 1.305 . S
C997 C999 1.407 . S
C997 H1004 0.930 . S
C998 C986 1.410 . S
C998 C999 1.345 . S
C998 H1006 0.930 . S
C999 C997 1.407 . S
C999 C998 1.345 . S
C999 H1001 0.930 . S
H1000 C993 0.930 . S
H1001 C999 0.930 . S
H1002 C990 0.930 . S
H1003 C991 0.931 . S
H1004 C997 0.930 . S
H1005 C1019 0.930 . S
H1006 C998 0.930 . S
H1007 C1025 0.930 . S
H1008 C1016 0.930 . S
H1009 C1023 0.931 . S
H1010 C987 0.929 . S
H1011 C1017 0.930 . S
H1012 C1050 0.930 . S
H1013 C994 0.930 . S
H1014 C1049 0.929 . S
N1015 Tb984 2.660 . S
N1015 C1016 1.305 . S
N1015 C1020 1.360 . S
C1016 H1008 0.930 . S
C1016 N1015 1.305 . S
C1016 C1019 1.407 . S
C1017 H1011 0.930 . S
C1017 C1018 1.410 . S
C1017 C1019 1.345 . S
C1018 C1017 1.410 . S
C1018 C1020 1.417 . S
C1018 C1050 1.432 . S
C1019 H1005 0.930 . S
C1019 C1016 1.407 . S
C1019 C1017 1.345 . S
C1020 N1015 1.360 . S
C1020 C1018 1.417 . S
C1020 C1024 1.432 . S
H1021 C1026 0.930 . S
N1022 Tb984 2.600 . S
N1022 C1024 1.359 . S
N1022 C1025 1.327 . S
C1023 H1009 0.931 . S
C1023 C1025 1.392 . S
C1023 C1026 1.370 . S
C1024 C1020 1.432 . S
C1024 N1022 1.359 . S
C1024 C1027 1.414 . S
C1025 H1007 0.930 . S
C1025 N1022 1.327 . S
C1025 C1023 1.392 . S
C1026 H1021 0.930 . S
C1026 C1023 1.370 . S
C1026 C1027 1.385 . S
C1027 C1024 1.414 . S
C1027 C1026 1.385 . S
C1027 C1049 1.444 . S
O1028 Tb984 2.546 . S
O1028 C1048 1.251 . S
O1029 Tb984 2.610 1_556 S
O1029 Tb995 2.353 1_556 S
O1029 C1040 1.283 . S
O1030 Tb995 2.418 . S
O1030 C1047 1.272 . S
O1031 Tb984 2.320 . S
O1031 C1047 1.277 . S
O1032 Tb984 2.552 1_556 S
O1032 C1040 1.243 . S
O1033 Tb984 2.413 . S
O1033 C1048 1.256 . S
O1034 Tb995 2.549 . S
O1034 C1059 1.251 . S
O1035 Tb984 2.362 . S
O1035 Tb995 2.621 . S
O1035 C1051 1.283 . S
O1036 Tb984 2.421 . S
O1036 C1058 1.262 . S
O1037 Tb995 2.325 . S
O1037 C1058 1.260 . S
O1038 Tb995 2.569 . S
O1038 C1051 1.243 . S
O1039 Tb995 2.420 . S
O1039 C1059 1.256 . S
C1040 O1029 1.283 . S
C1040 O1032 1.243 . S
C1041 C1043 1.382 1_554 S
C1041 C1045 1.393 . S
C1041 C1048 1.500 . S
C1042 C1043 1.400 . S
C1042 C1044 1.384 . S
C1043 C1041 1.382 1_556 S
C1043 C1042 1.400 . S
C1043 H1060 0.930 . S
C1044 C1042 1.384 . S
C1044 C1046 1.392 1_556 S
C1044 H1061 0.931 . S
C1045 C1041 1.393 . S
C1045 C1046 1.401 . S
C1045 H1062 0.930 . S
C1046 C1044 1.392 1_554 S
C1046 C1045 1.401 . S
C1046 H1063 0.930 . S
C1047 O1030 1.272 . S
C1047 O1031 1.277 . S
C1048 Tb984 2.833 . S
C1048 O1028 1.251 . S
C1048 O1033 1.256 . S
C1048 C1041 1.500 . S
C1049 H1014 0.929 . S
C1049 C1027 1.444 . S
C1049 C1050 1.317 . S
C1050 H1012 0.930 . S
C1050 C1018 1.432 . S
C1050 C1049 1.317 . S
C1051 O1035 1.283 . S
C1051 O1038 1.243 . S
C1052 C1053 1.382 . S
C1052 C1056 1.393 . S
C1052 C1059 1.500 . S
C1053 C1052 1.382 . S
C1053 C1054 1.400 . S
C1053 H1064 0.930 . S
C1054 C1053 1.400 . S
C1054 C1055 1.384 . S
C1055 C1054 1.384 . S
C1055 C1057 1.392 . S
C1055 H1065 0.931 . S
C1056 C1052 1.393 . S
C1056 C1057 1.401 . S
C1056 H1066 0.930 1_554 S
C1057 C1055 1.392 . S
C1057 C1056 1.401 . S
C1057 H1067 0.930 . S
C1058 O1036 1.262 . S
C1058 O1037 1.260 . S
C1059 Tb995 2.839 . S
C1059 O1034 1.251 . S
C1059 O1039 1.256 . S
C1059 C1052 1.500 . S
H1060 C1043 0.930 . S
H1061 C1044 0.931 . S
H1062 C1045 0.930 . S
H1063 C1046 0.930 . S
H1064 C1053 0.930 . S
H1065 C1055 0.931 . S
H1066 C1056 0.930 1_556 S
H1067 C1057 0.930 . S
Tb1068 N1099 2.660 . S
Tb1068 N1106 2.600 . S
Tb1068 O1112 2.546 . S
Tb1068 O1113 2.610 . S
Tb1068 O1115 2.320 . S
Tb1068 O1116 2.552 . S
Tb1068 O1117 2.413 . S
Tb1068 O1119 2.362 . S
Tb1068 O1120 2.421 . S
Tb1068 C1132 2.833 . S
C1069 C1072 1.432 . S
C1069 C1073 1.414 . S
C1069 N1076 1.359 . S
C1070 C1072 1.417 . S
C1070 C1074 1.432 . S
C1070 C1082 1.410 . S
C1071 C1073 1.444 . S
C1071 C1074 1.317 . S
C1071 H1094 0.929 . S
C1072 C1069 1.432 . S
C1072 C1070 1.417 . S
C1072 N1080 1.360 . S
C1073 C1069 1.414 . S
C1073 C1071 1.444 . S
C1073 C1078 1.385 . S
C1074 C1070 1.432 . S
C1074 C1071 1.317 . S
C1074 H1086 0.930 . S
C1075 C1077 1.392 . S
C1075 C1078 1.370 . S
C1075 H1087 0.931 . S
N1076 C1069 1.359 . S
N1076 C1077 1.327 . S
N1076 Tb1079 2.600 . S
C1077 C1075 1.392 . S
C1077 N1076 1.327 . S
C1077 H1084 0.930 . S
C1078 C1073 1.385 . S
C1078 C1075 1.370 . S
C1078 H1097 0.930 . S
Tb1079 N1076 2.600 . S
Tb1079 N1080 2.660 . S
Tb1079 O1113 2.362 . S
Tb1079 O1114 2.421 . S
Tb1079 O1118 2.546 . S
Tb1079 O1119 2.610 . S
Tb1079 O1121 2.320 . S
Tb1079 O1122 2.552 . S
Tb1079 O1123 2.413 . S
Tb1079 C1143 2.833 . S
N1080 C1072 1.360 . S
N1080 Tb1079 2.660 . S
N1080 C1081 1.305 . S
C1081 N1080 1.305 . S
C1081 C1083 1.407 . S
C1081 H1088 0.930 . S
C1082 C1070 1.410 . S
C1082 C1083 1.345 . S
C1082 H1090 0.930 . S
C1083 C1081 1.407 . S
C1083 C1082 1.345 . S
C1083 H1085 0.930 . S
H1084 C1077 0.930 . S
H1085 C1083 0.930 . S
H1086 C1074 0.930 . S
H1087 C1075 0.931 . S
H1088 C1081 0.930 . S
H1089 C1103 0.930 . S
H1090 C1082 0.930 . S
H1091 C1109 0.930 . S
H1092 C1100 0.930 . S
H1093 C1107 0.931 . S
H1094 C1071 0.929 . S
H1095 C1101 0.930 . S
H1096 C1134 0.930 . S
H1097 C1078 0.930 . S
H1098 C1133 0.929 . S
N1099 Tb1068 2.660 . S
N1099 C1100 1.305 . S
N1099 C1104 1.360 . S
C1100 H1092 0.930 . S
C1100 N1099 1.305 . S
C1100 C1103 1.407 . S
C1101 H1095 0.930 . S
C1101 C1102 1.410 . S
C1101 C1103 1.345 . S
C1102 C1101 1.410 . S
C1102 C1104 1.417 . S
C1102 C1134 1.432 . S
C1103 H1089 0.930 . S
C1103 C1100 1.407 . S
C1103 C1101 1.345 . S
C1104 N1099 1.360 . S
C1104 C1102 1.417 . S
C1104 C1108 1.432 . S
H1105 C1110 0.930 . S
N1106 Tb1068 2.600 . S
N1106 C1108 1.359 . S
N1106 C1109 1.327 . S
C1107 H1093 0.931 . S
C1107 C1109 1.392 . S
C1107 C1110 1.370 . S
C1108 C1104 1.432 . S
C1108 N1106 1.359 . S
C1108 C1111 1.414 . S
C1109 H1091 0.930 . S
C1109 N1106 1.327 . S
C1109 C1107 1.392 . S
C1110 H1105 0.930 . S
C1110 C1107 1.370 . S
C1110 C1111 1.385 . S
C1111 C1108 1.414 . S
C1111 C1110 1.385 . S
C1111 C1133 1.444 . S
O1112 Tb1068 2.546 . S
O1112 C1132 1.251 . S
O1113 Tb1068 2.610 . S
O1113 Tb1079 2.362 . S
O1113 C1124 1.283 . S
O1114 Tb1079 2.421 . S
O1114 C1131 1.262 . S
O1115 Tb1068 2.320 . S
O1115 C1131 1.260 . S
O1116 Tb1068 2.552 . S
O1116 C1124 1.243 . S
O1117 Tb1068 2.413 . S
O1117 C1132 1.256 . S
O1118 Tb1079 2.546 . S
O1118 C1143 1.251 . S
O1119 Tb1068 2.362 . S
O1119 Tb1079 2.610 . S
O1119 C1135 1.283 . S
O1120 Tb1068 2.421 . S
O1120 C1142 1.262 . S
O1121 Tb1079 2.320 . S
O1121 C1142 1.260 . S
O1122 Tb1079 2.552 . S
O1122 C1135 1.243 . S
O1123 Tb1079 2.413 . S
O1123 C1143 1.256 . S
C1124 O1113 1.283 . S
C1124 O1116 1.243 . S
C1125 C1127 1.382 . S
C1125 C1129 1.393 . S
C1125 C1132 1.500 . S
C1126 C1127 1.400 . S
C1126 C1128 1.384 . S
C1127 C1125 1.382 . S
C1127 C1126 1.400 . S
C1127 H1144 0.930 . S
C1128 C1126 1.384 . S
C1128 C1130 1.392 . S
C1128 H1145 0.931 1_655 S
C1129 C1125 1.393 . S
C1129 C1130 1.401 . S
C1129 H1146 0.930 . S
C1130 C1128 1.392 . S
C1130 C1129 1.401 . S
C1130 H1147 0.930 . S
C1131 O1114 1.262 . S
C1131 O1115 1.260 . S
C1132 Tb1068 2.833 . S
C1132 O1112 1.251 . S
C1132 O1117 1.256 . S
C1132 C1125 1.500 . S
C1133 H1098 0.929 . S
C1133 C1111 1.444 . S
C1133 C1134 1.317 . S
C1134 H1096 0.930 . S
C1134 C1102 1.432 . S
C1134 C1133 1.317 . S
C1135 O1119 1.283 . S
C1135 O1122 1.243 . S
C1136 C1137 1.382 . S
C1136 C1140 1.393 . S
C1136 C1143 1.500 . S
C1137 C1136 1.382 . S
C1137 C1138 1.400 . S
C1137 H1148 0.930 . S
C1138 C1137 1.400 . S
C1138 C1139 1.384 . S
C1139 C1138 1.384 . S
C1139 C1141 1.392 . S
C1139 H1149 0.931 . S
C1140 C1136 1.393 . S
C1140 C1141 1.401 . S
C1140 H1150 0.930 . S
C1141 C1139 1.392 . S
C1141 C1140 1.401 . S
C1141 H1151 0.930 . S
C1142 O1120 1.262 . S
C1142 O1121 1.260 . S
C1143 Tb1079 2.833 . S
C1143 O1118 1.251 . S
C1143 O1123 1.256 . S
C1143 C1136 1.500 . S
H1144 C1127 0.930 . S
H1145 C1128 0.931 1_455 S
H1146 C1129 0.930 . S
H1147 C1130 0.930 . S
H1148 C1137 0.930 . S
H1149 C1139 0.931 . S
H1150 C1140 0.930 . S
H1151 C1141 0.930 . S
Tb1152 N1183 2.660 . S
Tb1152 N1190 2.600 . S
Tb1152 O1196 2.546 . S
Tb1152 O1197 2.610 . S
Tb1152 O1199 2.320 . S
Tb1152 O1200 2.552 . S
Tb1152 O1201 2.413 . S
Tb1152 O1203 2.362 . S
Tb1152 O1204 2.421 . S
Tb1152 C1216 2.833 . S
C1153 C1156 1.432 . S
C1153 C1157 1.414 . S
C1153 N1160 1.359 1_655 S
C1154 C1156 1.417 . S
C1154 C1158 1.432 . S
C1154 C1166 1.410 . S
C1155 C1157 1.444 . S
C1155 C1158 1.317 . S
C1155 H1178 0.929 . S
C1156 C1153 1.432 . S
C1156 C1154 1.417 . S
C1156 N1164 1.360 1_655 S
C1157 C1153 1.414 . S
C1157 C1155 1.444 . S
C1157 C1162 1.385 . S
C1158 C1154 1.432 . S
C1158 C1155 1.317 . S
C1158 H1170 0.930 . S
C1159 C1161 1.392 1_655 S
C1159 C1162 1.370 . S
C1159 H1171 0.931 . S
N1160 C1153 1.359 1_455 S
N1160 C1161 1.327 . S
N1160 Tb1163 2.600 . S
C1161 C1159 1.392 1_455 S
C1161 N1160 1.327 . S
C1161 H1168 0.930 . S
C1162 C1157 1.385 . S
C1162 C1159 1.370 . S
C1162 H1181 0.930 . S
Tb1163 N1160 2.600 . S
Tb1163 N1164 2.660 . S
Tb1163 O1197 2.362 . S
Tb1163 O1198 2.421 . S
Tb1163 O1202 2.546 . S
Tb1163 O1203 2.610 . S
Tb1163 O1205 2.320 . S
Tb1163 O1206 2.552 . S
Tb1163 O1207 2.413 . S
Tb1163 C1227 2.833 . S
N1164 C1156 1.360 1_455 S
N1164 Tb1163 2.660 . S
N1164 C1165 1.305 . S
C1165 N1164 1.305 . S
C1165 C1167 1.407 1_455 S
C1165 H1172 0.930 . S
C1166 C1154 1.410 . S
C1166 C1167 1.345 . S
C1166 H1174 0.930 . S
C1167 C1165 1.407 1_655 S
C1167 C1166 1.345 . S
C1167 H1169 0.930 . S
H1168 C1161 0.930 . S
H1169 C1167 0.930 . S
H1170 C1158 0.930 . S
H1171 C1159 0.931 . S
H1172 C1165 0.930 . S
H1173 C1187 0.930 . S
H1174 C1166 0.930 . S
H1175 C1193 0.930 . S
H1176 C1184 0.930 . S
H1177 C1191 0.931 . S
H1178 C1155 0.929 . S
H1179 C1185 0.930 . S
H1180 C1218 0.930 . S
H1181 C1162 0.930 . S
H1182 C1217 0.929 . S
N1183 Tb1152 2.660 . S
N1183 C1184 1.305 . S
N1183 C1188 1.360 . S
C1184 H1176 0.930 . S
C1184 N1183 1.305 . S
C1184 C1187 1.407 . S
C1185 H1179 0.930 . S
C1185 C1186 1.410 . S
C1185 C1187 1.345 . S
C1186 C1185 1.410 . S
C1186 C1188 1.417 . S
C1186 C1218 1.432 . S
C1187 H1173 0.930 . S
C1187 C1184 1.407 . S
C1187 C1185 1.345 . S
C1188 N1183 1.360 . S
C1188 C1186 1.417 . S
C1188 C1192 1.432 . S
H1189 C1194 0.930 . S
N1190 Tb1152 2.600 . S
N1190 C1192 1.359 . S
N1190 C1193 1.327 . S
C1191 H1177 0.931 . S
C1191 C1193 1.392 . S
C1191 C1194 1.370 . S
C1192 C1188 1.432 . S
C1192 N1190 1.359 . S
C1192 C1195 1.414 . S
C1193 H1175 0.930 . S
C1193 N1190 1.327 . S
C1193 C1191 1.392 . S
C1194 H1189 0.930 . S
C1194 C1191 1.370 . S
C1194 C1195 1.385 . S
C1195 C1192 1.414 . S
C1195 C1194 1.385 . S
C1195 C1217 1.444 . S
O1196 Tb1152 2.546 . S
O1196 C1216 1.251 . S
O1197 Tb1152 2.610 . S
O1197 Tb1163 2.362 . S
O1197 C1208 1.283 . S
O1198 Tb1163 2.421 . S
O1198 C1215 1.262 . S
O1199 Tb1152 2.320 . S
O1199 C1215 1.260 . S
O1200 Tb1152 2.552 . S
O1200 C1208 1.243 . S
O1201 Tb1152 2.413 . S
O1201 C1216 1.256 . S
O1202 Tb1163 2.546 . S
O1202 C1227 1.251 . S
O1203 Tb1152 2.362 . S
O1203 Tb1163 2.610 . S
O1203 C1219 1.283 . S
O1204 Tb1152 2.421 . S
O1204 C1226 1.262 . S
O1205 Tb1163 2.320 . S
O1205 C1226 1.260 . S
O1206 Tb1163 2.552 . S
O1206 C1219 1.243 . S
O1207 Tb1163 2.413 . S
O1207 C1227 1.256 . S
C1208 O1197 1.283 . S
C1208 O1200 1.243 . S
C1209 C1211 1.382 . S
C1209 C1213 1.393 . S
C1209 C1216 1.500 . S
C1210 C1211 1.400 1_655 S
C1210 C1212 1.384 . S
C1211 C1209 1.382 . S
C1211 C1210 1.400 1_455 S
C1211 H1228 0.930 . S
C1212 C1210 1.384 . S
C1212 C1214 1.392 1_655 S
C1212 H1229 0.931 . S
C1213 C1209 1.393 . S
C1213 C1214 1.401 . S
C1213 H1230 0.930 . S
C1214 C1212 1.392 1_455 S
C1214 C1213 1.401 . S
C1214 H1231 0.930 . S
C1215 O1198 1.262 . S
C1215 O1199 1.260 . S
C1216 Tb1152 2.833 . S
C1216 O1196 1.251 . S
C1216 O1201 1.256 . S
C1216 C1209 1.500 . S
C1217 H1182 0.929 . S
C1217 C1195 1.444 . S
C1217 C1218 1.317 . S
C1218 H1180 0.930 . S
C1218 C1186 1.432 . S
C1218 C1217 1.317 . S
C1219 O1203 1.283 . S
C1219 O1206 1.243 . S
C1220 C1221 1.382 . S
C1220 C1224 1.393 . S
C1220 C1227 1.500 . S
C1221 C1220 1.382 . S
C1221 C1222 1.400 . S
C1221 H1232 0.930 . S
C1222 C1221 1.400 . S
C1222 C1223 1.384 . S
C1223 C1222 1.384 . S
C1223 C1225 1.392 . S
C1223 H1233 0.931 . S
C1224 C1220 1.393 . S
C1224 C1225 1.401 . S
C1224 H1234 0.930 . S
C1225 C1223 1.392 . S
C1225 C1224 1.401 . S
C1225 H1235 0.930 . S
C1226 O1204 1.262 . S
C1226 O1205 1.260 . S
C1227 Tb1163 2.833 . S
C1227 O1202 1.251 . S
C1227 O1207 1.256 . S
C1227 C1220 1.500 . S
H1228 C1211 0.930 . S
H1229 C1212 0.931 . S
H1230 C1213 0.930 . S
H1231 C1214 0.930 . S
H1232 C1221 0.930 . S
H1233 C1223 0.931 . S
H1234 C1224 0.930 . S
H1235 C1225 0.930 . S
Tb1236 N1267 2.660 . S
Tb1236 N1274 2.600 . S
Tb1236 O1280 2.546 . S
Tb1236 O1281 2.610 . S
Tb1236 O1283 2.320 . S
Tb1236 O1284 2.552 . S
Tb1236 O1285 2.413 . S
Tb1236 O1287 2.362 . S
Tb1236 O1288 2.421 . S
Tb1236 C1300 2.833 . S
C1237 C1240 1.432 . S
C1237 C1241 1.414 . S
C1237 N1244 1.359 . S
C1238 C1240 1.417 . S
C1238 C1242 1.432 . S
C1238 C1250 1.410 . S
C1239 C1241 1.444 . S
C1239 C1242 1.317 . S
C1239 H1262 0.929 . S
C1240 C1237 1.432 . S
C1240 C1238 1.417 . S
C1240 N1248 1.360 . S
C1241 C1237 1.414 . S
C1241 C1239 1.444 . S
C1241 C1246 1.385 . S
C1242 C1238 1.432 . S
C1242 C1239 1.317 . S
C1242 H1254 0.930 . S
C1243 C1245 1.392 . S
C1243 C1246 1.370 . S
C1243 H1255 0.931 . S
N1244 C1237 1.359 . S
N1244 C1245 1.327 . S
N1244 Tb1247 2.600 . S
C1245 C1243 1.392 . S
C1245 N1244 1.327 . S
C1245 H1252 0.930 . S
C1246 C1241 1.385 . S
C1246 C1243 1.370 . S
C1246 H1265 0.930 . S
Tb1247 N1244 2.600 . S
Tb1247 N1248 2.660 . S
Tb1247 O1281 2.362 . S
Tb1247 O1282 2.421 . S
Tb1247 O1286 2.546 . S
Tb1247 O1287 2.610 . S
Tb1247 O1289 2.320 . S
Tb1247 O1290 2.552 . S
Tb1247 O1291 2.413 . S
Tb1247 C1311 2.833 . S
N1248 C1240 1.360 . S
N1248 Tb1247 2.660 . S
N1248 C1249 1.305 . S
C1249 N1248 1.305 . S
C1249 C1251 1.407 . S
C1249 H1256 0.930 . S
C1250 C1238 1.410 . S
C1250 C1251 1.345 . S
C1250 H1258 0.930 . S
C1251 C1249 1.407 . S
C1251 C1250 1.345 . S
C1251 H1253 0.930 . S
H1252 C1245 0.930 . S
H1253 C1251 0.930 . S
H1254 C1242 0.930 . S
H1255 C1243 0.931 . S
H1256 C1249 0.930 . S
H1257 C1271 0.930 . S
H1258 C1250 0.930 . S
H1259 C1277 0.930 . S
H1260 C1268 0.930 . S
H1261 C1275 0.931 . S
H1262 C1239 0.929 . S
H1263 C1269 0.930 . S
H1264 C1302 0.930 . S
H1265 C1246 0.930 . S
H1266 C1301 0.929 . S
N1267 Tb1236 2.660 . S
N1267 C1268 1.305 . S
N1267 C1272 1.360 . S
C1268 H1260 0.930 . S
C1268 N1267 1.305 . S
C1268 C1271 1.407 . S
C1269 H1263 0.930 . S
C1269 C1270 1.410 . S
C1269 C1271 1.345 . S
C1270 C1269 1.410 . S
C1270 C1272 1.417 . S
C1270 C1302 1.432 . S
C1271 H1257 0.930 . S
C1271 C1268 1.407 . S
C1271 C1269 1.345 . S
C1272 N1267 1.360 . S
C1272 C1270 1.417 . S
C1272 C1276 1.432 . S
H1273 C1278 0.930 . S
N1274 Tb1236 2.600 . S
N1274 C1276 1.359 . S
N1274 C1277 1.327 . S
C1275 H1261 0.931 . S
C1275 C1277 1.392 . S
C1275 C1278 1.370 . S
C1276 C1272 1.432 . S
C1276 N1274 1.359 . S
C1276 C1279 1.414 . S
C1277 H1259 0.930 . S
C1277 N1274 1.327 . S
C1277 C1275 1.392 . S
C1278 H1273 0.930 . S
C1278 C1275 1.370 . S
C1278 C1279 1.385 . S
C1279 C1276 1.414 . S
C1279 C1278 1.385 . S
C1279 C1301 1.444 . S
O1280 Tb1236 2.546 . S
O1280 C1300 1.251 . S
O1281 Tb1236 2.610 . S
O1281 Tb1247 2.362 . S
O1281 C1292 1.283 . S
O1282 Tb1247 2.421 . S
O1282 C1299 1.262 . S
O1283 Tb1236 2.320 . S
O1283 C1299 1.260 . S
O1284 Tb1236 2.552 . S
O1284 C1292 1.243 . S
O1285 Tb1236 2.413 . S
O1285 C1300 1.256 . S
O1286 Tb1247 2.546 . S
O1286 C1311 1.251 . S
O1287 Tb1236 2.362 . S
O1287 Tb1247 2.610 . S
O1287 C1303 1.283 . S
O1288 Tb1236 2.421 . S
O1288 C1310 1.262 . S
O1289 Tb1247 2.320 . S
O1289 C1310 1.260 . S
O1290 Tb1247 2.552 . S
O1290 C1303 1.243 . S
O1291 Tb1247 2.413 . S
O1291 C1311 1.256 . S
C1292 O1281 1.283 . S
C1292 O1284 1.243 . S
C1293 C1295 1.382 . S
C1293 C1297 1.393 . S
C1293 C1300 1.500 . S
C1294 C1295 1.400 . S
C1294 C1296 1.384 . S
C1295 C1293 1.382 . S
C1295 C1294 1.400 . S
C1295 H1312 0.930 . S
C1296 C1294 1.384 . S
C1296 C1298 1.392 . S
C1296 H1313 0.931 . S
C1297 C1293 1.393 . S
C1297 C1298 1.401 . S
C1297 H1314 0.930 . S
C1298 C1296 1.392 . S
C1298 C1297 1.401 . S
C1298 H1315 0.930 . S
C1299 O1282 1.262 . S
C1299 O1283 1.260 . S
C1300 Tb1236 2.833 . S
C1300 O1280 1.251 . S
C1300 O1285 1.256 . S
C1300 C1293 1.500 . S
C1301 H1266 0.929 . S
C1301 C1279 1.444 . S
C1301 C1302 1.317 . S
C1302 H1264 0.930 . S
C1302 C1270 1.432 . S
C1302 C1301 1.317 . S
C1303 O1287 1.283 . S
C1303 O1290 1.243 . S
C1304 C1305 1.382 . S
C1304 C1308 1.393 . S
C1304 C1311 1.500 . S
C1305 C1304 1.382 . S
C1305 C1306 1.400 . S
C1305 H1316 0.930 . S
C1306 C1305 1.400 . S
C1306 C1307 1.384 . S
C1307 C1306 1.384 . S
C1307 C1309 1.392 . S
C1307 H1317 0.931 . S
C1308 C1304 1.393 . S
C1308 C1309 1.401 . S
C1308 H1318 0.930 . S
C1309 C1307 1.392 . S
C1309 C1308 1.401 . S
C1309 H1319 0.930 . S
C1310 O1288 1.262 . S
C1310 O1289 1.260 . S
C1311 Tb1247 2.833 . S
C1311 O1286 1.251 . S
C1311 O1291 1.256 . S
C1311 C1304 1.500 . S
H1312 C1295 0.930 . S
H1313 C1296 0.931 . S
H1314 C1297 0.930 . S
H1315 C1298 0.930 . S
H1316 C1305 0.930 . S
H1317 C1307 0.931 . S
H1318 C1308 0.930 . S
H1319 C1309 0.930 . S
Tb1320 N1351 2.660 . S
Tb1320 N1358 2.600 . S
Tb1320 O1364 2.546 . S
Tb1320 O1365 2.610 . S
Tb1320 O1367 2.320 . S
Tb1320 O1368 2.552 . S
Tb1320 O1369 2.413 . S
Tb1320 O1371 2.362 . S
Tb1320 O1372 2.421 . S
Tb1320 C1384 2.833 . S
C1321 C1324 1.432 . S
C1321 C1325 1.414 . S
C1321 N1328 1.359 . S
C1322 C1324 1.417 . S
C1322 C1326 1.432 . S
C1322 C1334 1.410 . S
C1323 C1325 1.444 . S
C1323 C1326 1.317 . S
C1323 H1346 0.929 . S
C1324 C1321 1.432 . S
C1324 C1322 1.417 . S
C1324 N1332 1.360 . S
C1325 C1321 1.414 . S
C1325 C1323 1.444 . S
C1325 C1330 1.385 . S
C1326 C1322 1.432 . S
C1326 C1323 1.317 . S
C1326 H1338 0.930 . S
C1327 C1329 1.392 . S
C1327 C1330 1.370 . S
C1327 H1339 0.931 . S
N1328 C1321 1.359 . S
N1328 C1329 1.327 . S
N1328 Tb1331 2.600 . S
C1329 C1327 1.392 . S
C1329 N1328 1.327 . S
C1329 H1336 0.930 . S
C1330 C1325 1.385 . S
C1330 C1327 1.370 . S
C1330 H1349 0.930 . S
Tb1331 N1328 2.600 . S
Tb1331 N1332 2.660 . S
Tb1331 O1365 2.362 . S
Tb1331 O1366 2.421 . S
Tb1331 O1370 2.546 . S
Tb1331 O1371 2.610 . S
Tb1331 O1373 2.320 . S
Tb1331 O1374 2.552 . S
Tb1331 O1375 2.413 . S
Tb1331 C1395 2.833 . S
N1332 C1324 1.360 . S
N1332 Tb1331 2.660 . S
N1332 C1333 1.305 . S
C1333 N1332 1.305 . S
C1333 C1335 1.407 . S
C1333 H1340 0.930 . S
C1334 C1322 1.410 . S
C1334 C1335 1.345 . S
C1334 H1342 0.930 . S
C1335 C1333 1.407 . S
C1335 C1334 1.345 . S
C1335 H1337 0.930 . S
H1336 C1329 0.930 . S
H1337 C1335 0.930 . S
H1338 C1326 0.930 . S
H1339 C1327 0.931 . S
H1340 C1333 0.930 . S
H1341 C1355 0.930 . S
H1342 C1334 0.930 . S
H1343 C1361 0.930 . S
H1344 C1352 0.930 . S
H1345 C1359 0.931 . S
H1346 C1323 0.929 . S
H1347 C1353 0.930 . S
H1348 C1386 0.930 . S
H1349 C1330 0.930 . S
H1350 C1385 0.929 . S
N1351 Tb1320 2.660 . S
N1351 C1352 1.305 . S
N1351 C1356 1.360 . S
C1352 H1344 0.930 . S
C1352 N1351 1.305 . S
C1352 C1355 1.407 . S
C1353 H1347 0.930 . S
C1353 C1354 1.410 . S
C1353 C1355 1.345 . S
C1354 C1353 1.410 . S
C1354 C1356 1.417 . S
C1354 C1386 1.432 . S
C1355 H1341 0.930 . S
C1355 C1352 1.407 . S
C1355 C1353 1.345 . S
C1356 N1351 1.360 . S
C1356 C1354 1.417 . S
C1356 C1360 1.432 . S
H1357 C1362 0.930 . S
N1358 Tb1320 2.600 . S
N1358 C1360 1.359 . S
N1358 C1361 1.327 . S
C1359 H1345 0.931 . S
C1359 C1361 1.392 . S
C1359 C1362 1.370 . S
C1360 C1356 1.432 . S
C1360 N1358 1.359 . S
C1360 C1363 1.414 . S
C1361 H1343 0.930 . S
C1361 N1358 1.327 . S
C1361 C1359 1.392 . S
C1362 H1357 0.930 . S
C1362 C1359 1.370 . S
C1362 C1363 1.385 . S
C1363 C1360 1.414 . S
C1363 C1362 1.385 . S
C1363 C1385 1.444 . S
O1364 Tb1320 2.546 . S
O1364 C1384 1.251 . S
O1365 Tb1320 2.610 . S
O1365 Tb1331 2.362 . S
O1365 C1376 1.283 . S
O1366 Tb1331 2.421 . S
O1366 C1383 1.262 . S
O1367 Tb1320 2.320 . S
O1367 C1383 1.260 . S
O1368 Tb1320 2.552 . S
O1368 C1376 1.243 . S
O1369 Tb1320 2.413 . S
O1369 C1384 1.256 . S
O1370 Tb1331 2.546 . S
O1370 C1395 1.251 . S
O1371 Tb1320 2.362 . S
O1371 Tb1331 2.610 . S
O1371 C1387 1.283 . S
O1372 Tb1320 2.421 . S
O1372 C1394 1.262 . S
O1373 Tb1331 2.320 . S
O1373 C1394 1.260 . S
O1374 Tb1331 2.552 . S
O1374 C1387 1.243 . S
O1375 Tb1331 2.413 . S
O1375 C1395 1.256 . S
C1376 O1365 1.283 . S
C1376 O1368 1.243 . S
C1377 C1379 1.382 . S
C1377 C1381 1.393 . S
C1377 C1384 1.500 . S
C1378 C1379 1.400 . S
C1378 C1380 1.384 . S
C1379 C1377 1.382 . S
C1379 C1378 1.400 . S
C1379 H1396 0.930 . S
C1380 C1378 1.384 . S
C1380 C1382 1.392 . S
C1380 H1397 0.931 . S
C1381 C1377 1.393 . S
C1381 C1382 1.401 . S
C1381 H1398 0.930 . S
C1382 C1380 1.392 . S
C1382 C1381 1.401 . S
C1382 H1399 0.930 . S
C1383 O1366 1.262 . S
C1383 O1367 1.260 . S
C1384 Tb1320 2.833 . S
C1384 O1364 1.251 . S
C1384 O1369 1.256 . S
C1384 C1377 1.500 . S
C1385 H1350 0.929 . S
C1385 C1363 1.444 . S
C1385 C1386 1.317 . S
C1386 H1348 0.930 . S
C1386 C1354 1.432 . S
C1386 C1385 1.317 . S
C1387 O1371 1.283 . S
C1387 O1374 1.243 . S
C1388 C1389 1.382 . S
C1388 C1392 1.393 . S
C1388 C1395 1.500 . S
C1389 C1388 1.382 . S
C1389 C1390 1.400 . S
C1389 H1400 0.930 . S
C1390 C1389 1.400 . S
C1390 C1391 1.384 . S
C1391 C1390 1.384 . S
C1391 C1393 1.392 . S
C1391 H1401 0.931 . S
C1392 C1388 1.393 . S
C1392 C1393 1.401 . S
C1392 H1402 0.930 . S
C1393 C1391 1.392 . S
C1393 C1392 1.401 . S
C1393 H1403 0.930 . S
C1394 O1372 1.262 . S
C1394 O1373 1.260 . S
C1395 Tb1331 2.833 . S
C1395 O1370 1.251 . S
C1395 O1375 1.256 . S
C1395 C1388 1.500 . S
H1396 C1379 0.930 . S
H1397 C1380 0.931 . S
H1398 C1381 0.930 . S
H1399 C1382 0.930 . S
H1400 C1389 0.930 . S
H1401 C1391 0.931 . S
H1402 C1392 0.930 . S
H1403 C1393 0.930 . S
Tb1404 N1435 2.660 . S
Tb1404 N1442 2.600 . S
Tb1404 O1448 2.546 . S
Tb1404 O1449 2.610 . S
Tb1404 O1451 2.320 . S
Tb1404 O1452 2.552 . S
Tb1404 O1453 2.413 . S
Tb1404 O1455 2.362 . S
Tb1404 O1456 2.421 . S
Tb1404 C1468 2.833 . S
C1405 C1408 1.432 . S
C1405 C1409 1.414 . S
C1405 N1412 1.359 . S
C1406 C1408 1.417 . S
C1406 C1410 1.432 . S
C1406 C1418 1.410 . S
C1407 C1409 1.444 . S
C1407 C1410 1.317 . S
C1407 H1430 0.929 . S
C1408 C1405 1.432 . S
C1408 C1406 1.417 . S
C1408 N1416 1.360 . S
C1409 C1405 1.414 . S
C1409 C1407 1.444 . S
C1409 C1414 1.385 . S
C1410 C1406 1.432 . S
C1410 C1407 1.317 . S
C1410 H1422 0.930 . S
C1411 C1413 1.392 . S
C1411 C1414 1.370 . S
C1411 H1423 0.931 . S
N1412 C1405 1.359 . S
N1412 C1413 1.327 . S
N1412 Tb1415 2.600 . S
C1413 C1411 1.392 . S
C1413 N1412 1.327 . S
C1413 H1420 0.930 . S
C1414 C1409 1.385 . S
C1414 C1411 1.370 . S
C1414 H1433 0.930 . S
Tb1415 N1412 2.600 . S
Tb1415 N1416 2.660 . S
Tb1415 O1449 2.362 . S
Tb1415 O1450 2.421 . S
Tb1415 O1454 2.546 . S
Tb1415 O1455 2.610 . S
Tb1415 O1457 2.320 . S
Tb1415 O1458 2.552 . S
Tb1415 O1459 2.413 . S
Tb1415 C1479 2.833 . S
N1416 C1408 1.360 . S
N1416 Tb1415 2.660 . S
N1416 C1417 1.305 . S
C1417 N1416 1.305 . S
C1417 C1419 1.407 . S
C1417 H1424 0.930 . S
C1418 C1406 1.410 . S
C1418 C1419 1.345 . S
C1418 H1426 0.930 . S
C1419 C1417 1.407 . S
C1419 C1418 1.345 . S
C1419 H1421 0.930 . S
H1420 C1413 0.930 . S
H1421 C1419 0.930 . S
H1422 C1410 0.930 . S
H1423 C1411 0.931 . S
H1424 C1417 0.930 . S
H1425 C1439 0.930 . S
H1426 C1418 0.930 . S
H1427 C1445 0.930 . S
H1428 C1436 0.930 . S
H1429 C1443 0.931 . S
H1430 C1407 0.929 . S
H1431 C1437 0.930 . S
H1432 C1470 0.930 . S
H1433 C1414 0.930 . S
H1434 C1469 0.929 . S
N1435 Tb1404 2.660 . S
N1435 C1436 1.305 . S
N1435 C1440 1.360 . S
C1436 H1428 0.930 . S
C1436 N1435 1.305 . S
C1436 C1439 1.407 . S
C1437 H1431 0.930 . S
C1437 C1438 1.410 . S
C1437 C1439 1.345 . S
C1438 C1437 1.410 . S
C1438 C1440 1.417 . S
C1438 C1470 1.432 . S
C1439 H1425 0.930 . S
C1439 C1436 1.407 . S
C1439 C1437 1.345 . S
C1440 N1435 1.360 . S
C1440 C1438 1.417 . S
C1440 C1444 1.432 . S
H1441 C1446 0.930 . S
N1442 Tb1404 2.600 . S
N1442 C1444 1.359 . S
N1442 C1445 1.327 . S
C1443 H1429 0.931 . S
C1443 C1445 1.392 . S
C1443 C1446 1.370 . S
C1444 C1440 1.432 . S
C1444 N1442 1.359 . S
C1444 C1447 1.414 . S
C1445 H1427 0.930 . S
C1445 N1442 1.327 . S
C1445 C1443 1.392 . S
C1446 H1441 0.930 . S
C1446 C1443 1.370 . S
C1446 C1447 1.385 . S
C1447 C1444 1.414 . S
C1447 C1446 1.385 . S
C1447 C1469 1.444 . S
O1448 Tb1404 2.546 . S
O1448 C1468 1.251 . S
O1449 Tb1404 2.610 . S
O1449 Tb1415 2.362 . S
O1449 C1460 1.283 . S
O1450 Tb1415 2.421 . S
O1450 C1467 1.262 . S
O1451 Tb1404 2.320 . S
O1451 C1467 1.260 . S
O1452 Tb1404 2.552 . S
O1452 C1460 1.243 . S
O1453 Tb1404 2.413 . S
O1453 C1468 1.256 . S
O1454 Tb1415 2.546 . S
O1454 C1479 1.251 . S
O1455 Tb1404 2.362 . S
O1455 Tb1415 2.610 . S
O1455 C1471 1.283 . S
O1456 Tb1404 2.421 . S
O1456 C1478 1.262 . S
O1457 Tb1415 2.320 . S
O1457 C1478 1.260 . S
O1458 Tb1415 2.552 . S
O1458 C1471 1.243 . S
O1459 Tb1415 2.413 . S
O1459 C1479 1.256 . S
C1460 O1449 1.283 . S
C1460 O1452 1.243 . S
C1461 C1463 1.382 . S
C1461 C1465 1.393 . S
C1461 C1468 1.500 . S
C1462 C1463 1.400 . S
C1462 C1464 1.384 . S
C1463 C1461 1.382 . S
C1463 C1462 1.400 . S
C1463 H1480 0.930 . S
C1464 C1462 1.384 . S
C1464 C1466 1.392 . S
C1464 H1481 0.931 . S
C1465 C1461 1.393 . S
C1465 C1466 1.401 . S
C1465 H1482 0.930 . S
C1466 C1464 1.392 . S
C1466 C1465 1.401 . S
C1466 H1483 0.930 . S
C1467 O1450 1.262 . S
C1467 O1451 1.260 . S
C1468 Tb1404 2.833 . S
C1468 O1448 1.251 . S
C1468 O1453 1.256 . S
C1468 C1461 1.500 . S
C1469 H1434 0.929 . S
C1469 C1447 1.444 . S
C1469 C1470 1.317 . S
C1470 H1432 0.930 . S
C1470 C1438 1.432 . S
C1470 C1469 1.317 . S
C1471 O1455 1.283 . S
C1471 O1458 1.243 . S
C1472 C1473 1.382 . S
C1472 C1476 1.393 . S
C1472 C1479 1.500 . S
C1473 C1472 1.382 . S
C1473 C1474 1.400 . S
C1473 H1484 0.930 . S
C1474 C1473 1.400 . S
C1474 C1475 1.384 . S
C1475 C1474 1.384 . S
C1475 C1477 1.392 . S
C1475 H1485 0.931 . S
C1476 C1472 1.393 . S
C1476 C1477 1.401 . S
C1476 H1486 0.930 . S
C1477 C1475 1.392 . S
C1477 C1476 1.401 . S
C1477 H1487 0.930 . S
C1478 O1456 1.262 . S
C1478 O1457 1.260 . S
C1479 Tb1415 2.833 . S
C1479 O1454 1.251 . S
C1479 O1459 1.256 . S
C1479 C1472 1.500 . S
H1480 C1463 0.930 . S
H1481 C1464 0.931 . S
H1482 C1465 0.930 . S
H1483 C1466 0.930 . S
H1484 C1473 0.930 . S
H1485 C1475 0.931 . S
H1486 C1476 0.930 . S
H1487 C1477 0.930 . S
Tb1488 N1519 2.660 . S
Tb1488 N1526 2.600 . S
Tb1488 O1532 2.546 . S
Tb1488 O1533 2.610 . S
Tb1488 O1535 2.320 . S
Tb1488 O1536 2.552 . S
Tb1488 O1537 2.413 . S
Tb1488 O1539 2.362 . S
Tb1488 O1540 2.421 . S
Tb1488 C1552 2.833 . S
C1489 C1492 1.432 . S
C1489 C1493 1.414 . S
C1489 N1496 1.359 . S
C1490 C1492 1.417 . S
C1490 C1494 1.432 . S
C1490 C1502 1.410 . S
C1491 C1493 1.444 . S
C1491 C1494 1.317 . S
C1491 H1514 0.929 . S
C1492 C1489 1.432 . S
C1492 C1490 1.417 . S
C1492 N1500 1.360 . S
C1493 C1489 1.414 . S
C1493 C1491 1.444 . S
C1493 C1498 1.385 . S
C1494 C1490 1.432 . S
C1494 C1491 1.317 . S
C1494 H1506 0.930 . S
C1495 C1497 1.392 . S
C1495 C1498 1.370 . S
C1495 H1507 0.931 . S
N1496 C1489 1.359 . S
N1496 C1497 1.327 . S
N1496 Tb1499 2.600 . S
C1497 C1495 1.392 . S
C1497 N1496 1.327 . S
C1497 H1504 0.930 . S
C1498 C1493 1.385 . S
C1498 C1495 1.370 . S
C1498 H1517 0.930 . S
Tb1499 N1496 2.600 . S
Tb1499 N1500 2.660 . S
Tb1499 O1533 2.362 . S
Tb1499 O1534 2.421 . S
Tb1499 O1538 2.546 . S
Tb1499 O1539 2.610 . S
Tb1499 O1541 2.320 . S
Tb1499 O1542 2.552 . S
Tb1499 O1543 2.413 . S
Tb1499 C1563 2.833 . S
N1500 C1492 1.360 . S
N1500 Tb1499 2.660 . S
N1500 C1501 1.305 . S
C1501 N1500 1.305 . S
C1501 C1503 1.407 . S
C1501 H1508 0.930 . S
C1502 C1490 1.410 . S
C1502 C1503 1.345 . S
C1502 H1510 0.930 . S
C1503 C1501 1.407 . S
C1503 C1502 1.345 . S
C1503 H1505 0.930 . S
H1504 C1497 0.930 . S
H1505 C1503 0.930 . S
H1506 C1494 0.930 . S
H1507 C1495 0.931 . S
H1508 C1501 0.930 . S
H1509 C1523 0.930 . S
H1510 C1502 0.930 . S
H1511 C1529 0.930 . S
H1512 C1520 0.930 . S
H1513 C1527 0.931 . S
H1514 C1491 0.929 . S
H1515 C1521 0.930 . S
H1516 C1554 0.930 . S
H1517 C1498 0.930 . S
H1518 C1553 0.929 . S
N1519 Tb1488 2.660 . S
N1519 C1520 1.305 . S
N1519 C1524 1.360 . S
C1520 H1512 0.930 . S
C1520 N1519 1.305 . S
C1520 C1523 1.407 . S
C1521 H1515 0.930 . S
C1521 C1522 1.410 . S
C1521 C1523 1.345 . S
C1522 C1521 1.410 . S
C1522 C1524 1.417 . S
C1522 C1554 1.432 . S
C1523 H1509 0.930 . S
C1523 C1520 1.407 . S
C1523 C1521 1.345 . S
C1524 N1519 1.360 . S
C1524 C1522 1.417 . S
C1524 C1528 1.432 . S
H1525 C1530 0.930 . S
N1526 Tb1488 2.600 . S
N1526 C1528 1.359 . S
N1526 C1529 1.327 . S
C1527 H1513 0.931 . S
C1527 C1529 1.392 . S
C1527 C1530 1.370 . S
C1528 C1524 1.432 . S
C1528 N1526 1.359 . S
C1528 C1531 1.414 . S
C1529 H1511 0.930 . S
C1529 N1526 1.327 . S
C1529 C1527 1.392 . S
C1530 H1525 0.930 . S
C1530 C1527 1.370 . S
C1530 C1531 1.385 . S
C1531 C1528 1.414 . S
C1531 C1530 1.385 . S
C1531 C1553 1.444 . S
O1532 Tb1488 2.546 . S
O1532 C1552 1.251 . S
O1533 Tb1488 2.610 . S
O1533 Tb1499 2.362 . S
O1533 C1544 1.283 . S
O1534 Tb1499 2.421 . S
O1534 C1551 1.262 . S
O1535 Tb1488 2.320 . S
O1535 C1551 1.260 . S
O1536 Tb1488 2.552 . S
O1536 C1544 1.243 . S
O1537 Tb1488 2.413 . S
O1537 C1552 1.256 . S
O1538 Tb1499 2.546 . S
O1538 C1563 1.251 . S
O1539 Tb1488 2.362 . S
O1539 Tb1499 2.610 . S
O1539 C1555 1.283 . S
O1540 Tb1488 2.421 . S
O1540 C1562 1.262 . S
O1541 Tb1499 2.320 . S
O1541 C1562 1.260 . S
O1542 Tb1499 2.552 . S
O1542 C1555 1.243 . S
O1543 Tb1499 2.413 . S
O1543 C1563 1.256 . S
C1544 O1533 1.283 . S
C1544 O1536 1.243 . S
C1545 C1547 1.382 . S
C1545 C1549 1.393 . S
C1545 C1552 1.500 . S
C1546 C1547 1.400 . S
C1546 C1548 1.384 . S
C1547 C1545 1.382 . S
C1547 C1546 1.400 . S
C1547 H1564 0.930 . S
C1548 C1546 1.384 . S
C1548 C1550 1.392 . S
C1548 H1565 0.931 . S
C1549 C1545 1.393 . S
C1549 C1550 1.401 . S
C1549 H1566 0.930 . S
C1550 C1548 1.392 . S
C1550 C1549 1.401 . S
C1550 H1567 0.930 . S
C1551 O1534 1.262 . S
C1551 O1535 1.260 . S
C1552 Tb1488 2.833 . S
C1552 O1532 1.251 . S
C1552 O1537 1.256 . S
C1552 C1545 1.500 . S
C1553 H1518 0.929 . S
C1553 C1531 1.444 . S
C1553 C1554 1.317 . S
C1554 H1516 0.930 . S
C1554 C1522 1.432 . S
C1554 C1553 1.317 . S
C1555 O1539 1.283 . S
C1555 O1542 1.243 . S
C1556 C1557 1.382 . S
C1556 C1560 1.393 . S
C1556 C1563 1.500 . S
C1557 C1556 1.382 . S
C1557 C1558 1.400 . S
C1557 H1568 0.930 . S
C1558 C1557 1.400 . S
C1558 C1559 1.384 . S
C1559 C1558 1.384 . S
C1559 C1561 1.392 . S
C1559 H1569 0.931 . S
C1560 C1556 1.393 . S
C1560 C1561 1.401 . S
C1560 H1570 0.930 . S
C1561 C1559 1.392 . S
C1561 C1560 1.401 . S
C1561 H1571 0.930 . S
C1562 O1540 1.262 . S
C1562 O1541 1.260 . S
C1563 Tb1499 2.833 . S
C1563 O1538 1.251 . S
C1563 O1543 1.256 . S
C1563 C1556 1.500 . S
H1564 C1547 0.930 . S
H1565 C1548 0.931 . S
H1566 C1549 0.930 . S
H1567 C1550 0.930 . S
H1568 C1557 0.930 . S
H1569 C1559 0.931 . S
H1570 C1560 0.930 . S
H1571 C1561 0.930 . S
Tb1572 N1603 2.660 . S
Tb1572 N1610 2.600 1_554 S
Tb1572 O1616 2.546 1_554 S
Tb1572 O1617 2.610 . S
Tb1572 O1619 2.320 . S
Tb1572 O1620 2.552 . S
Tb1572 O1621 2.413 . S
Tb1572 O1623 2.362 . S
Tb1572 O1624 2.421 1_554 S
Tb1572 C1636 2.830 1_554 S
C1573 C1576 1.432 . S
C1573 C1577 1.414 . S
C1573 N1580 1.359 1_655 S
C1574 C1576 1.417 . S
C1574 C1578 1.432 . S
C1574 C1586 1.410 . S
C1575 C1577 1.444 . S
C1575 C1578 1.317 . S
C1575 H1598 0.929 . S
C1576 C1573 1.432 . S
C1576 C1574 1.417 . S
C1576 N1584 1.360 . S
C1577 C1573 1.414 . S
C1577 C1575 1.444 . S
C1577 C1582 1.385 . S
C1578 C1574 1.432 . S
C1578 C1575 1.317 . S
C1578 H1590 0.930 . S
C1579 C1581 1.392 1_655 S
C1579 C1582 1.370 . S
C1579 H1591 0.932 . S
N1580 C1573 1.359 1_455 S
N1580 C1581 1.327 . S
N1580 Tb1583 2.600 . S
C1581 C1579 1.392 1_455 S
C1581 N1580 1.327 . S
C1581 H1588 0.930 . S
C1582 C1577 1.385 . S
C1582 C1579 1.370 . S
C1582 H1601 0.930 . S
Tb1583 N1580 2.600 . S
Tb1583 N1584 2.660 1_455 S
Tb1583 O1617 2.362 . S
Tb1583 O1618 2.421 . S
Tb1583 O1622 2.546 1_455 S
Tb1583 O1623 2.610 . S
Tb1583 O1625 2.320 . S
Tb1583 O1626 2.552 . S
Tb1583 O1627 2.413 1_455 S
Tb1583 C1647 2.833 1_455 S
N1584 C1576 1.360 . S
N1584 Tb1583 2.660 1_655 S
N1584 C1585 1.305 . S
C1585 N1584 1.305 . S
C1585 C1587 1.407 1_554 S
C1585 H1592 0.930 1_554 S
C1586 C1574 1.410 . S
C1586 C1587 1.345 1_554 S
C1586 H1594 0.927 1_554 S
C1587 C1585 1.407 1_556 S
C1587 C1586 1.345 1_556 S
C1587 H1589 0.930 . S
H1588 C1581 0.930 . S
H1589 C1587 0.930 . S
H1590 C1578 0.930 . S
H1591 C1579 0.932 . S
H1592 C1585 0.930 1_556 S
H1593 C1607 0.930 . S
H1594 C1586 0.927 1_556 S
H1595 C1613 0.930 . S
H1596 C1604 0.930 . S
H1597 C1611 0.931 . S
H1598 C1575 0.929 . S
H1599 C1605 0.930 . S
H1600 C1638 0.930 . S
H1601 C1582 0.930 . S
H1602 C1637 0.929 . S
N1603 Tb1572 2.660 . S
N1603 C1604 1.305 . S
N1603 C1608 1.360 . S
C1604 H1596 0.930 . S
C1604 N1603 1.305 . S
C1604 C1607 1.407 . S
C1605 H1599 0.930 . S
C1605 C1606 1.410 . S
C1605 C1607 1.345 . S
C1606 C1605 1.410 . S
C1606 C1608 1.417 . S
C1606 C1638 1.432 . S
C1607 H1593 0.930 . S
C1607 C1604 1.407 . S
C1607 C1605 1.345 . S
C1608 N1603 1.360 . S
C1608 C1606 1.417 . S
C1608 C1612 1.432 1_554 S
H1609 C1614 0.930 . S
N1610 Tb1572 2.600 1_556 S
N1610 C1612 1.359 . S
N1610 C1613 1.327 . S
C1611 H1597 0.931 . S
C1611 C1613 1.392 . S
C1611 C1614 1.370 . S
C1612 C1608 1.432 1_556 S
C1612 N1610 1.359 . S
C1612 C1615 1.414 . S
C1613 H1595 0.930 . S
C1613 N1610 1.327 . S
C1613 C1611 1.392 . S
C1614 H1609 0.930 . S
C1614 C1611 1.370 . S
C1614 C1615 1.385 . S
C1615 C1612 1.414 . S
C1615 C1614 1.385 . S
C1615 C1637 1.444 . S
O1616 Tb1572 2.546 1_556 S
O1616 C1636 1.259 . S
O1617 Tb1572 2.610 . S
O1617 Tb1583 2.362 . S
O1617 C1628 1.283 . S
O1618 Tb1583 2.421 . S
O1618 C1635 1.262 . S
O1619 Tb1572 2.320 . S
O1619 C1635 1.260 . S
O1620 Tb1572 2.552 . S
O1620 C1628 1.243 . S
O1621 Tb1572 2.413 . S
O1621 C1636 1.245 1_554 S
O1622 Tb1583 2.546 1_655 S
O1622 C1647 1.251 . S
O1623 Tb1572 2.362 . S
O1623 Tb1583 2.610 . S
O1623 C1639 1.283 . S
O1624 Tb1572 2.421 1_556 S
O1624 C1646 1.262 . S
O1625 Tb1583 2.320 . S
O1625 C1646 1.260 1_554 S
O1626 Tb1583 2.552 . S
O1626 C1639 1.243 . S
O1627 Tb1583 2.413 1_655 S
O1627 C1647 1.256 . S
C1628 O1617 1.283 . S
C1628 O1620 1.243 . S
C1629 C1631 1.382 1_556 S
C1629 C1633 1.393 . S
C1629 C1636 1.502 . S
C1630 C1631 1.400 . S
C1630 C1632 1.384 1_554 S
C1631 C1629 1.382 1_554 S
C1631 C1630 1.400 . S
C1631 H1648 0.930 . S
C1632 C1630 1.384 1_556 S
C1632 C1634 1.392 . S
C1632 H1649 0.931 . S
C1633 C1629 1.393 . S
C1633 C1634 1.401 . S
C1633 H1650 0.930 . S
C1634 C1632 1.392 . S
C1634 C1633 1.401 . S
C1634 H1651 0.930 . S
C1635 O1618 1.262 . S
C1635 O1619 1.260 . S
C1636 Tb1572 2.830 1_556 S
C1636 O1616 1.259 . S
C1636 O1621 1.245 1_556 S
C1636 C1629 1.502 . S
C1637 H1602 0.929 . S
C1637 C1615 1.444 . S
C1637 C1638 1.317 1_556 S
C1638 H1600 0.930 . S
C1638 C1606 1.432 . S
C1638 C1637 1.317 1_554 S
C1639 O1623 1.283 . S
C1639 O1626 1.243 . S
C1640 C1641 1.382 . S
C1640 C1644 1.393 . S
C1640 C1647 1.500 . S
C1641 C1640 1.382 . S
C1641 C1642 1.400 . S
C1641 H1652 0.930 . S
C1642 C1641 1.400 . S
C1642 C1643 1.384 . S
C1643 C1642 1.384 . S
C1643 C1645 1.392 . S
C1643 H1653 0.931 . S
C1644 C1640 1.393 . S
C1644 C1645 1.401 . S
C1644 H1654 0.930 . S
C1645 C1643 1.392 . S
C1645 C1644 1.401 . S
C1645 H1655 0.930 . S
C1646 O1624 1.262 . S
C1646 O1625 1.260 1_556 S
C1647 Tb1583 2.833 1_655 S
C1647 O1622 1.251 . S
C1647 O1627 1.256 . S
C1647 C1640 1.500 . S
H1648 C1631 0.930 . S
H1649 C1632 0.931 . S
H1650 C1633 0.930 . S
H1651 C1634 0.930 . S
H1652 C1641 0.930 . S
H1653 C1643 0.931 . S
H1654 C1644 0.930 . S
H1655 C1645 0.930 . S
H1656 C1662 0.972 . S
H1657 C1665 0.930 . S
H1658 C1666 0.930 . S
H1659 C1667 0.930 . S
H1660 C1670 0.930 . S
H1661 C1671 0.930 1_655 S
C1662 H1656 0.972 . S
C1662 C1663 1.355 . S
C1662 C1664 1.415 . S
C1663 C1662 1.355 . S
C1663 C1665 1.419 . S
C1664 C1662 1.415 . S
C1664 C1669 1.425 . S
C1664 C1671 1.409 1_556 S
C1665 H1657 0.930 . S
C1665 C1663 1.419 . S
C1665 C1666 1.362 . S
C1666 H1658 0.930 . S
C1666 C1665 1.362 . S
C1666 C1669 1.409 . S
C1667 H1659 0.930 . S
C1667 C1668 1.355 . S
C1667 C1669 1.415 1_554 S
C1668 C1667 1.355 . S
C1668 C1670 1.419 . S
C1669 C1664 1.425 . S
C1669 C1666 1.409 . S
C1669 C1667 1.415 1_556 S
C1670 H1660 0.930 . S
C1670 C1668 1.419 . S
C1670 C1671 1.362 . S
C1671 H1661 0.930 1_455 S
C1671 C1664 1.409 1_554 S
C1671 C1670 1.362 . S
H1672 C1678 0.930 . S
H1673 C1681 0.930 . S
H1674 C1682 0.930 . S
H1675 C1683 0.930 . S
H1676 C1686 0.930 . S
H1677 C1687 0.930 . S
C1678 H1672 0.930 . S
C1678 C1679 1.355 . S
C1678 C1680 1.415 . S
C1679 C1678 1.355 . S
C1679 C1681 1.419 . S
C1680 C1678 1.415 . S
C1680 C1685 1.425 . S
C1680 C1687 1.409 . S
C1681 H1673 0.930 . S
C1681 C1679 1.419 . S
C1681 C1682 1.362 . S
C1682 H1674 0.930 . S
C1682 C1681 1.362 . S
C1682 C1685 1.409 . S
C1683 H1675 0.930 . S
C1683 C1684 1.355 . S
C1683 C1685 1.415 . S
C1684 C1683 1.355 . S
C1684 C1686 1.419 . S
C1685 C1680 1.425 . S
C1685 C1682 1.409 . S
C1685 C1683 1.415 . S
C1686 H1676 0.930 . S
C1686 C1684 1.419 . S
C1686 C1687 1.362 . S
C1687 H1677 0.930 . S
C1687 C1680 1.409 . S
C1687 C1686 1.362 . S
H1688 C1694 0.930 . S
H1689 C1697 0.930 . S
H1690 C1698 0.930 . S
H1691 C1699 0.930 . S
H1692 C1702 0.930 . S
H1693 C1703 0.930 . S
C1694 H1688 0.930 . S
C1694 C1695 1.355 . S
C1694 C1696 1.415 . S
C1695 C1694 1.355 . S
C1695 C1697 1.419 . S
C1696 C1694 1.415 . S
C1696 C1701 1.425 . S
C1696 C1703 1.409 . S
C1697 H1689 0.930 . S
C1697 C1695 1.419 . S
C1697 C1698 1.362 . S
C1698 H1690 0.930 . S
C1698 C1697 1.362 . S
C1698 C1701 1.409 . S
C1699 H1691 0.930 . S
C1699 C1700 1.355 . S
C1699 C1701 1.415 . S
C1700 C1699 1.355 . S
C1700 C1702 1.419 . S
C1701 C1696 1.425 . S
C1701 C1698 1.409 . S
C1701 C1699 1.415 . S
C1702 H1692 0.930 . S
C1702 C1700 1.419 . S
C1702 C1703 1.362 . S
C1703 H1693 0.930 . S
C1703 C1696 1.409 . S
C1703 C1702 1.362 . S
H1704 C1710 0.930 . S
H1705 C1713 0.930 . S
H1706 C1714 0.930 . S
H1707 C1715 0.930 . S
H1708 C1718 0.930 . S
H1709 C1719 0.930 . S
C1710 H1704 0.930 . S
C1710 C1711 1.355 . S
C1710 C1712 1.415 . S
C1711 C1710 1.355 . S
C1711 C1713 1.419 . S
C1712 C1710 1.415 . S
C1712 C1717 1.425 . S
C1712 C1719 1.409 . S
C1713 H1705 0.930 . S
C1713 C1711 1.419 . S
C1713 C1714 1.362 . S
C1714 H1706 0.930 . S
C1714 C1713 1.362 . S
C1714 C1717 1.409 . S
C1715 H1707 0.930 . S
C1715 C1716 1.355 . S
C1715 C1717 1.415 . S
C1716 C1715 1.355 . S
C1716 C1718 1.419 . S
C1717 C1712 1.425 . S
C1717 C1714 1.409 . S
C1717 C1715 1.415 . S
C1718 H1708 0.930 . S
C1718 C1716 1.419 . S
C1718 C1719 1.362 . S
C1719 H1709 0.930 . S
C1719 C1712 1.409 . S
C1719 C1718 1.362 . S
H1720 C1726 0.930 . S
H1721 C1729 0.930 . S
H1722 C1730 0.930 . S
H1723 C1731 0.930 . S
H1724 C1734 0.930 . S
H1725 C1735 0.930 . S
C1726 H1720 0.930 . S
C1726 C1727 1.355 . S
C1726 C1728 1.415 . S
C1727 C1726 1.355 . S
C1727 C1729 1.419 . S
C1728 C1726 1.415 . S
C1728 C1733 1.425 . S
C1728 C1735 1.409 . S
C1729 H1721 0.930 . S
C1729 C1727 1.419 . S
C1729 C1730 1.362 . S
C1730 H1722 0.930 . S
C1730 C1729 1.362 . S
C1730 C1733 1.409 . S
C1731 H1723 0.930 . S
C1731 C1732 1.355 . S
C1731 C1733 1.415 . S
C1732 C1731 1.355 . S
C1732 C1734 1.419 . S
C1733 C1728 1.425 . S
C1733 C1730 1.409 . S
C1733 C1731 1.415 . S
C1734 H1724 0.930 . S
C1734 C1732 1.419 . S
C1734 C1735 1.362 . S
C1735 H1725 0.930 . S
C1735 C1728 1.409 . S
C1735 C1734 1.362 . S
H1736 C1742 0.930 . S
H1737 C1745 0.930 . S
H1738 C1746 0.930 . S
H1739 C1747 0.930 . S
H1740 C1750 0.930 . S
H1741 C1751 0.930 . S
C1742 H1736 0.930 . S
C1742 C1743 1.355 . S
C1742 C1744 1.415 . S
C1743 C1742 1.355 . S
C1743 C1745 1.419 . S
C1744 C1742 1.415 . S
C1744 C1749 1.425 . S
C1744 C1751 1.409 . S
C1745 H1737 0.930 . S
C1745 C1743 1.419 . S
C1745 C1746 1.362 . S
C1746 H1738 0.930 . S
C1746 C1745 1.362 . S
C1746 C1749 1.409 . S
C1747 H1739 0.930 . S
C1747 C1748 1.355 . S
C1747 C1749 1.415 . S
C1748 C1747 1.355 . S
C1748 C1750 1.419 . S
C1749 C1744 1.425 . S
C1749 C1746 1.409 . S
C1749 C1747 1.415 . S
C1750 H1740 0.930 . S
C1750 C1748 1.419 . S
C1750 C1751 1.362 . S
C1751 H1741 0.930 . S
C1751 C1744 1.409 . S
C1751 C1750 1.362 . S
H1752 C1758 0.930 . S
H1753 C1761 0.930 . S
H1754 C1762 0.930 . S
H1755 C1763 0.930 . S
H1756 C1766 0.930 . S
H1757 C1767 0.930 . S
C1758 H1752 0.930 . S
C1758 C1759 1.355 . S
C1758 C1760 1.415 . S
C1759 C1758 1.355 . S
C1759 C1761 1.419 . S
C1760 C1758 1.415 . S
C1760 C1765 1.425 . S
C1760 C1767 1.409 . S
C1761 H1753 0.930 . S
C1761 C1759 1.419 . S
C1761 C1762 1.362 . S
C1762 H1754 0.930 . S
C1762 C1761 1.362 . S
C1762 C1765 1.409 . S
C1763 H1755 0.930 . S
C1763 C1764 1.355 . S
C1763 C1765 1.415 . S
C1764 C1763 1.355 . S
C1764 C1766 1.419 . S
C1765 C1760 1.425 . S
C1765 C1762 1.409 . S
C1765 C1763 1.415 . S
C1766 H1756 0.930 . S
C1766 C1764 1.419 . S
C1766 C1767 1.362 . S
C1767 H1757 0.930 . S
C1767 C1760 1.409 . S
C1767 C1766 1.362 . S
H1768 C1774 0.930 . S
H1769 C1777 0.930 . S
H1770 C1778 0.930 . S
H1771 C1779 0.930 . S
H1772 C1782 0.930 . S
H1773 C1783 0.930 . S
C1774 H1768 0.930 . S
C1774 C1775 1.355 . S
C1774 C1776 1.415 . S
C1775 C1774 1.355 . S
C1775 C1777 1.419 . S
C1776 C1774 1.415 . S
C1776 C1781 1.425 . S
C1776 C1783 1.409 . S
C1777 H1769 0.930 . S
C1777 C1775 1.419 . S
C1777 C1778 1.362 . S
C1778 H1770 0.930 . S
C1778 C1777 1.362 . S
C1778 C1781 1.409 . S
C1779 H1771 0.930 . S
C1779 C1780 1.355 . S
C1779 C1781 1.415 . S
C1780 C1779 1.355 . S
C1780 C1782 1.419 . S
C1781 C1776 1.425 . S
C1781 C1778 1.409 . S
C1781 C1779 1.415 . S
C1782 H1772 0.930 . S
C1782 C1780 1.419 . S
C1782 C1783 1.362 . S
C1783 H1773 0.930 . S
C1783 C1776 1.409 . S
C1783 C1782 1.362 . S
H1784 C1790 0.930 . S
H1785 C1793 0.930 . S
H1786 C1794 0.930 . S
H1787 C1795 0.930 . S
H1788 C1798 0.930 . S
H1789 C1799 0.930 . S
C1790 H1784 0.930 . S
C1790 C1791 1.355 1_455 S
C1790 C1792 1.415 . S
C1791 C1790 1.355 1_655 S
C1791 C1793 1.419 . S
C1792 C1790 1.415 . S
C1792 C1797 1.425 . S
C1792 C1799 1.409 . S
C1793 H1785 0.930 . S
C1793 C1791 1.419 . S
C1793 C1794 1.362 . S
C1794 H1786 0.930 . S
C1794 C1793 1.362 . S
C1794 C1797 1.409 1_655 S
C1795 H1787 0.930 . S
C1795 C1796 1.355 . S
C1795 C1797 1.415 . S
C1796 C1795 1.355 . S
C1796 C1798 1.419 . S
C1797 C1792 1.425 . S
C1797 C1794 1.409 1_455 S
C1797 C1795 1.415 . S
C1798 H1788 0.930 . S
C1798 C1796 1.419 . S
C1798 C1799 1.362 . S
C1799 H1789 0.930 . S
C1799 C1792 1.409 . S
C1799 C1798 1.362 . S
H1800 C1806 0.930 . S
H1801 C1809 0.930 . S
H1802 C1810 0.930 . S
H1803 C1811 0.930 . S
H1804 C1814 0.930 . S
H1805 C1815 0.930 . S
C1806 H1800 0.930 . S
C1806 C1807 1.355 . S
C1806 C1808 1.415 . S
C1807 C1806 1.355 . S
C1807 C1809 1.419 . S
C1808 C1806 1.415 . S
C1808 C1813 1.425 . S
C1808 C1815 1.409 . S
C1809 H1801 0.930 . S
C1809 C1807 1.419 . S
C1809 C1810 1.362 . S
C1810 H1802 0.930 . S
C1810 C1809 1.362 . S
C1810 C1813 1.409 . S
C1811 H1803 0.930 . S
C1811 C1812 1.355 . S
C1811 C1813 1.415 . S
C1812 C1811 1.355 . S
C1812 C1814 1.419 . S
C1813 C1808 1.425 . S
C1813 C1810 1.409 . S
C1813 C1811 1.415 . S
C1814 H1804 0.930 . S
C1814 C1812 1.419 . S
C1814 C1815 1.362 . S
C1815 H1805 0.930 . S
C1815 C1808 1.409 . S
C1815 C1814 1.362 . S
H1816 C1822 0.930 . S
H1817 C1825 0.930 . S
H1818 C1826 0.930 1_565 S
H1819 C1827 0.930 1_565 S
H1820 C1830 0.930 . S
H1821 C1831 0.930 . S
C1822 H1816 0.930 . S
C1822 C1823 1.355 . S
C1822 C1824 1.415 . S
C1823 C1822 1.355 . S
C1823 C1825 1.419 . S
C1824 C1822 1.415 . S
C1824 C1829 1.425 . S
C1824 C1831 1.409 . S
C1825 H1817 0.930 . S
C1825 C1823 1.419 . S
C1825 C1826 1.362 . S
C1826 H1818 0.930 1_545 S
C1826 C1825 1.362 . S
C1826 C1829 1.409 . S
C1827 H1819 0.930 1_545 S
C1827 C1828 1.355 . S
C1827 C1829 1.415 . S
C1828 C1827 1.355 . S
C1828 C1830 1.419 . S
C1829 C1824 1.425 . S
C1829 C1826 1.409 . S
C1829 C1827 1.415 . S
C1830 H1820 0.930 . S
C1830 C1828 1.419 . S
C1830 C1831 1.362 . S
C1831 H1821 0.930 . S
C1831 C1824 1.409 . S
C1831 C1830 1.362 . S
H1832 C1838 0.930 . S
H1833 C1841 0.930 . S
H1834 C1842 0.930 . S
H1835 C1843 0.930 . S
H1836 C1846 0.930 . S
H1837 C1847 0.930 . S
C1838 H1832 0.930 . S
C1838 C1839 1.355 . S
C1838 C1840 1.415 . S
C1839 C1838 1.355 . S
C1839 C1841 1.419 . S
C1840 C1838 1.415 . S
C1840 C1845 1.425 . S
C1840 C1847 1.409 . S
C1841 H1833 0.930 . S
C1841 C1839 1.419 . S
C1841 C1842 1.362 . S
C1842 H1834 0.930 . S
C1842 C1841 1.362 . S
C1842 C1845 1.409 . S
C1843 H1835 0.930 . S
C1843 C1844 1.355 . S
C1843 C1845 1.415 . S
C1844 C1843 1.355 . S
C1844 C1846 1.419 . S
C1845 C1840 1.425 . S
C1845 C1842 1.409 . S
C1845 C1843 1.415 . S
C1846 H1836 0.930 . S
C1846 C1844 1.419 . S
C1846 C1847 1.362 . S
C1847 H1837 0.930 . S
C1847 C1840 1.409 . S
C1847 C1846 1.362 . S
H1848 C1854 0.930 . S
H1849 C1857 0.930 . S
H1850 C1858 0.930 . S
H1851 C1859 0.930 . S
H1852 C1862 0.930 . S
H1853 C1863 0.916 1_655 S
C1854 H1848 0.930 . S
C1854 C1855 1.355 . S
C1854 C1856 1.415 1_655 S
C1855 C1854 1.355 . S
C1855 C1857 1.419 1_655 S
C1856 C1854 1.415 1_455 S
C1856 C1861 1.425 . S
C1856 C1863 1.412 . S
C1857 H1849 0.930 . S
C1857 C1855 1.419 1_455 S
C1857 C1858 1.362 . S
C1858 H1850 0.930 . S
C1858 C1857 1.362 . S
C1858 C1861 1.409 . S
C1859 H1851 0.930 . S
C1859 C1860 1.355 . S
C1859 C1861 1.415 . S
C1860 C1859 1.355 . S
C1860 C1862 1.419 . S
C1861 C1856 1.425 . S
C1861 C1858 1.409 . S
C1861 C1859 1.415 . S
C1862 H1852 0.930 . S
C1862 C1860 1.419 . S
C1862 C1863 1.374 . S
C1863 H1853 0.916 1_455 S
C1863 C1856 1.412 . S
C1863 C1862 1.374 . S
H1864 C1870 0.930 . S
H1865 C1873 0.930 . S
H1866 C1874 0.930 . S
H1867 C1875 0.930 . S
H1868 C1878 0.930 . S
H1869 C1879 0.930 . S
C1870 H1864 0.930 . S
C1870 C1871 1.355 . S
C1870 C1872 1.415 . S
C1871 C1870 1.355 . S
C1871 C1873 1.419 . S
C1872 C1870 1.415 . S
C1872 C1877 1.425 . S
C1872 C1879 1.409 . S
C1873 H1865 0.930 . S
C1873 C1871 1.419 . S
C1873 C1874 1.362 . S
C1874 H1866 0.930 . S
C1874 C1873 1.362 . S
C1874 C1877 1.409 . S
C1875 H1867 0.930 . S
C1875 C1876 1.355 . S
C1875 C1877 1.415 . S
C1876 C1875 1.355 . S
C1876 C1878 1.419 . S
C1877 C1872 1.425 . S
C1877 C1874 1.409 . S
C1877 C1875 1.415 . S
C1878 H1868 0.930 . S
C1878 C1876 1.419 . S
C1878 C1879 1.362 . S
C1879 H1869 0.930 . S
C1879 C1872 1.409 . S
C1879 C1878 1.362 . S
H1880 C1886 0.930 . S
H1881 C1889 0.930 . S
H1882 C1890 0.930 . S
H1883 C1891 0.930 . S
H1884 C1894 0.930 . S
H1885 C1895 0.930 . S
C1886 H1880 0.930 . S
C1886 C1887 1.355 . S
C1886 C1888 1.415 . S
C1887 C1886 1.355 . S
C1887 C1889 1.419 . S
C1888 C1886 1.415 . S
C1888 C1893 1.425 . S
C1888 C1895 1.409 . S
C1889 H1881 0.930 . S
C1889 C1887 1.419 . S
C1889 C1890 1.362 . S
C1890 H1882 0.930 . S
C1890 C1889 1.362 . S
C1890 C1893 1.409 . S
C1891 H1883 0.930 . S
C1891 C1892 1.355 . S
C1891 C1893 1.415 . S
C1892 C1891 1.355 . S
C1892 C1894 1.419 . S
C1893 C1888 1.425 . S
C1893 C1890 1.409 . S
C1893 C1891 1.415 . S
C1894 H1884 0.930 . S
C1894 C1892 1.419 . S
C1894 C1895 1.362 . S
C1895 H1885 0.930 . S
C1895 C1888 1.409 . S
C1895 C1894 1.362 . S
H1896 C1902 0.930 . S
H1897 C1905 0.930 . S
H1898 C1906 0.930 . S
H1899 C1907 0.930 . S
H1900 C1910 0.930 . S
H1901 C1911 0.930 . S
C1902 H1896 0.930 . S
C1902 C1903 1.355 . S
C1902 C1904 1.415 . S
C1903 C1902 1.355 . S
C1903 C1905 1.419 . S
C1904 C1902 1.415 . S
C1904 C1909 1.425 . S
C1904 C1911 1.409 . S
C1905 H1897 0.930 . S
C1905 C1903 1.419 . S
C1905 C1906 1.362 . S
C1906 H1898 0.930 . S
C1906 C1905 1.362 . S
C1906 C1909 1.409 . S
C1907 H1899 0.930 . S
C1907 C1908 1.355 . S
C1907 C1909 1.415 . S
C1908 C1907 1.355 . S
C1908 C1910 1.419 . S
C1909 C1904 1.425 . S
C1909 C1906 1.409 . S
C1909 C1907 1.415 . S
C1910 H1900 0.930 . S
C1910 C1908 1.419 . S
C1910 C1911 1.362 . S
C1911 H1901 0.930 . S
C1911 C1904 1.409 . S
C1911 C1910 1.362 . S
H1912 C1918 0.930 1_556 S
H1913 C1921 0.930 . S
H1914 C1922 0.930 . S
H1915 C1923 0.930 . S
H1916 C1926 0.930 . S
H1917 C1927 0.909 1_556 S
C1918 H1912 0.930 1_554 S
C1918 C1919 1.355 . S
C1918 C1920 1.415 . S
C1919 C1918 1.355 . S
C1919 C1921 1.419 . S
C1920 C1918 1.415 . S
C1920 C1925 1.425 . S
C1920 C1927 1.422 . S
C1921 H1913 0.930 . S
C1921 C1919 1.419 . S
C1921 C1922 1.362 . S
C1922 H1914 0.930 . S
C1922 C1921 1.362 . S
C1922 C1925 1.409 . S
C1923 H1915 0.930 . S
C1923 C1924 1.355 . S
C1923 C1925 1.415 1_545 S
C1924 C1923 1.355 . S
C1924 C1926 1.419 . S
C1925 C1920 1.425 . S
C1925 C1922 1.409 . S
C1925 C1923 1.415 1_565 S
C1926 H1916 0.930 . S
C1926 C1924 1.419 . S
C1926 C1927 1.371 1_545 S
C1927 H1917 0.909 1_554 S
C1927 C1920 1.422 . S
C1927 C1926 1.371 1_565 S
H1928 C1934 0.930 . S
H1929 C1937 0.930 . S
H1930 C1938 0.930 . S
H1931 C1939 0.930 . S
H1932 C1942 0.930 . S
H1933 C1943 0.930 . S
C1934 H1928 0.930 . S
C1934 C1935 1.355 . S
C1934 C1936 1.415 . S
C1935 C1934 1.355 . S
C1935 C1937 1.419 . S
C1936 C1934 1.415 . S
C1936 C1941 1.425 . S
C1936 C1943 1.409 . S
C1937 H1929 0.930 . S
C1937 C1935 1.419 . S
C1937 C1938 1.362 . S
C1938 H1930 0.930 . S
C1938 C1937 1.362 . S
C1938 C1941 1.409 . S
C1939 H1931 0.930 . S
C1939 C1940 1.355 . S
C1939 C1941 1.415 . S
C1940 C1939 1.355 . S
C1940 C1942 1.419 . S
C1941 C1936 1.425 . S
C1941 C1938 1.409 . S
C1941 C1939 1.415 . S
C1942 H1932 0.930 . S
C1942 C1940 1.419 . S
C1942 C1943 1.362 . S
C1943 H1933 0.930 . S
C1943 C1936 1.409 . S
C1943 C1942 1.362 . S
H1944 C1950 0.930 . S
H1945 C1953 0.930 . S
H1946 C1954 0.930 . S
H1947 C1955 0.930 . S
H1948 C1958 0.930 . S
H1949 C1959 0.930 . S
C1950 H1944 0.930 . S
C1950 C1951 1.355 . S
C1950 C1952 1.415 . S
C1951 C1950 1.355 . S
C1951 C1953 1.419 . S
C1952 C1950 1.415 . S
C1952 C1957 1.425 . S
C1952 C1959 1.409 . S
C1953 H1945 0.930 . S
C1953 C1951 1.419 . S
C1953 C1954 1.362 . S
C1954 H1946 0.930 . S
C1954 C1953 1.362 . S
C1954 C1957 1.409 . S
C1955 H1947 0.930 . S
C1955 C1956 1.355 . S
C1955 C1957 1.415 . S
C1956 C1955 1.355 . S
C1956 C1958 1.419 . S
C1957 C1952 1.425 . S
C1957 C1954 1.409 . S
C1957 C1955 1.415 . S
C1958 H1948 0.930 . S
C1958 C1956 1.419 . S
C1958 C1959 1.362 . S
C1959 H1949 0.930 . S
C1959 C1952 1.409 . S
C1959 C1958 1.362 . S
H1960 C1966 0.930 . S
H1961 C1969 0.930 . S
H1962 C1970 0.930 . S
H1963 C1971 0.906 1_455 S
H1964 C1974 0.930 . S
H1965 C1975 0.930 . S
C1966 H1960 0.930 . S
C1966 C1967 1.355 . S
C1966 C1968 1.415 . S
C1967 C1966 1.355 . S
C1967 C1969 1.419 . S
C1968 C1966 1.415 . S
C1968 C1973 1.425 . S
C1968 C1975 1.409 . S
C1969 H1961 0.930 . S
C1969 C1967 1.419 . S
C1969 C1970 1.362 . S
C1970 H1962 0.930 . S
C1970 C1969 1.362 . S
C1970 C1973 1.409 . S
C1971 H1963 0.906 1_655 S
C1971 C1972 1.355 . S
C1971 C1973 1.415 . S
C1972 C1971 1.355 . S
C1972 C1974 1.419 . S
C1973 C1968 1.425 . S
C1973 C1970 1.409 . S
C1973 C1971 1.415 . S
C1974 H1964 0.930 . S
C1974 C1972 1.419 . S
C1974 C1975 1.362 . S
C1975 H1965 0.930 . S
C1975 C1968 1.409 . S
C1975 C1974 1.362 . S
H1976 C1982 0.930 . S
H1977 C1985 0.930 . S
H1978 C1986 0.930 . S
H1979 C1987 0.930 . S
H1980 C1990 0.930 . S
H1981 C1991 0.930 . S
C1982 H1976 0.930 . S
C1982 C1983 1.355 . S
C1982 C1984 1.415 . S
C1983 C1982 1.355 . S
C1983 C1985 1.419 . S
C1984 C1982 1.415 . S
C1984 C1989 1.425 . S
C1984 C1991 1.409 . S
C1985 H1977 0.930 . S
C1985 C1983 1.419 . S
C1985 C1986 1.362 . S
C1986 H1978 0.930 . S
C1986 C1985 1.362 . S
C1986 C1989 1.409 . S
C1987 H1979 0.930 . S
C1987 C1988 1.355 . S
C1987 C1989 1.415 . S
C1988 C1987 1.355 . S
C1988 C1990 1.419 . S
C1989 C1984 1.425 . S
C1989 C1986 1.409 . S
C1989 C1987 1.415 . S
C1990 H1980 0.930 . S
C1990 C1988 1.419 . S
C1990 C1991 1.362 . S
C1991 H1981 0.930 . S
C1991 C1984 1.409 . S
C1991 C1990 1.362 . S
H1992 C1998 0.930 . S
H1993 C2001 0.930 . S
H1994 C2002 0.930 . S
H1995 C2003 0.930 . S
H1996 C2006 0.930 . S
H1997 C2007 0.930 . S
C1998 H1992 0.930 . S
C1998 C1999 1.355 . S
C1998 C2000 1.415 . S
C1999 C1998 1.355 . S
C1999 C2001 1.419 . S
C2000 C1998 1.415 . S
C2000 C2005 1.425 . S
C2000 C2007 1.409 . S
C2001 H1993 0.930 . S
C2001 C1999 1.419 . S
C2001 C2002 1.362 . S
C2002 H1994 0.930 . S
C2002 C2001 1.362 . S
C2002 C2005 1.409 . S
C2003 H1995 0.930 . S
C2003 C2004 1.355 . S
C2003 C2005 1.415 . S
C2004 C2003 1.355 . S
C2004 C2006 1.419 . S
C2005 C2000 1.425 . S
C2005 C2002 1.409 . S
C2005 C2003 1.415 . S
C2006 H1996 0.930 . S
C2006 C2004 1.419 . S
C2006 C2007 1.362 . S
C2007 H1997 0.930 . S
C2007 C2000 1.409 . S
C2007 C2006 1.362 . S
H2008 C2014 0.930 . S
H2009 C2017 0.930 . S
H2010 C2018 0.930 . S
H2011 C2019 0.930 . S
H2012 C2022 0.930 . S
H2013 C2023 0.930 . S
C2014 H2008 0.930 . S
C2014 C2015 1.355 . S
C2014 C2016 1.415 . S
C2015 C2014 1.355 . S
C2015 C2017 1.419 . S
C2016 C2014 1.415 . S
C2016 C2021 1.425 . S
C2016 C2023 1.409 . S
C2017 H2009 0.930 . S
C2017 C2015 1.419 . S
C2017 C2018 1.362 . S
C2018 H2010 0.930 . S
C2018 C2017 1.362 . S
C2018 C2021 1.409 . S
C2019 H2011 0.930 . S
C2019 C2020 1.355 . S
C2019 C2021 1.415 . S
C2020 C2019 1.355 . S
C2020 C2022 1.419 . S
C2021 C2016 1.425 . S
C2021 C2018 1.409 . S
C2021 C2019 1.415 . S
C2022 H2012 0.930 . S
C2022 C2020 1.419 . S
C2022 C2023 1.362 . S
C2023 H2013 0.930 . S
C2023 C2016 1.409 . S
C2023 C2022 1.362 . S
H2024 C2030 0.930 . S
H2025 C2033 0.930 . S
H2026 C2034 0.930 . S
H2027 C2035 0.930 . S
H2028 C2038 0.930 . S
H2029 C2039 0.930 . S
C2030 H2024 0.930 . S
C2030 C2031 1.355 . S
C2030 C2032 1.415 . S
C2031 C2030 1.355 . S
C2031 C2033 1.419 . S
C2032 C2030 1.415 . S
C2032 C2037 1.425 . S
C2032 C2039 1.409 . S
C2033 H2025 0.930 . S
C2033 C2031 1.419 . S
C2033 C2034 1.362 . S
C2034 H2026 0.930 . S
C2034 C2033 1.362 . S
C2034 C2037 1.409 . S
C2035 H2027 0.930 . S
C2035 C2036 1.355 . S
C2035 C2037 1.415 . S
C2036 C2035 1.355 . S
C2036 C2038 1.419 . S
C2037 C2032 1.425 . S
C2037 C2034 1.409 . S
C2037 C2035 1.415 . S
C2038 H2028 0.930 . S
C2038 C2036 1.419 . S
C2038 C2039 1.362 . S
C2039 H2029 0.930 . S
C2039 C2032 1.409 . S
C2039 C2038 1.362 . S
H2040 C2046 0.930 . S
H2041 C2049 0.930 . S
H2042 C2050 0.930 . S
H2043 C2051 0.930 . S
H2044 C2054 0.930 . S
H2045 C2055 0.930 . S
C2046 H2040 0.930 . S
C2046 C2047 1.355 . S
C2046 C2048 1.415 . S
C2047 C2046 1.355 . S
C2047 C2049 1.419 . S
C2048 C2046 1.415 . S
C2048 C2053 1.425 . S
C2048 C2055 1.409 . S
C2049 H2041 0.930 . S
C2049 C2047 1.419 . S
C2049 C2050 1.362 . S
C2050 H2042 0.930 . S
C2050 C2049 1.362 . S
C2050 C2053 1.409 . S
C2051 H2043 0.930 . S
C2051 C2052 1.355 . S
C2051 C2053 1.415 . S
C2052 C2051 1.355 . S
C2052 C2054 1.419 . S
C2053 C2048 1.425 . S
C2053 C2050 1.409 . S
C2053 C2051 1.415 . S
C2054 H2044 0.930 . S
C2054 C2052 1.419 . S
C2054 C2055 1.362 . S
C2055 H2045 0.930 . S
C2055 C2048 1.409 . S
C2055 C2054 1.362 . S
H2056 C2062 0.930 . S
H2057 C2065 0.930 . S
H2058 C2066 0.930 . S
H2059 C2067 0.930 . S
H2060 C2070 0.930 . S
H2061 C2071 0.930 . S
C2062 H2056 0.930 . S
C2062 C2063 1.355 . S
C2062 C2064 1.415 . S
C2063 C2062 1.355 . S
C2063 C2065 1.419 . S
C2064 C2062 1.415 . S
C2064 C2069 1.425 . S
C2064 C2071 1.409 . S
C2065 H2057 0.930 . S
C2065 C2063 1.419 . S
C2065 C2066 1.362 . S
C2066 H2058 0.930 . S
C2066 C2065 1.362 . S
C2066 C2069 1.409 . S
C2067 H2059 0.930 . S
C2067 C2068 1.355 . S
C2067 C2069 1.415 . S
C2068 C2067 1.355 . S
C2068 C2070 1.419 . S
C2069 C2064 1.425 . S
C2069 C2066 1.409 . S
C2069 C2067 1.415 . S
C2070 H2060 0.930 . S
C2070 C2068 1.419 . S
C2070 C2071 1.362 . S
C2071 H2061 0.930 . S
C2071 C2064 1.409 . S
C2071 C2070 1.362 . S
H2072 C2078 0.930 . S
H2073 C2081 0.930 . S
H2074 C2082 0.930 . S
H2075 C2083 0.930 . S
H2076 C2086 0.930 . S
H2077 C2087 0.930 . S
C2078 H2072 0.930 . S
C2078 C2079 1.355 . S
C2078 C2080 1.415 . S
C2079 C2078 1.355 . S
C2079 C2081 1.419 . S
C2080 C2078 1.415 . S
C2080 C2085 1.425 . S
C2080 C2087 1.409 . S
C2081 H2073 0.930 . S
C2081 C2079 1.419 . S
C2081 C2082 1.362 . S
C2082 H2074 0.930 . S
C2082 C2081 1.362 . S
C2082 C2085 1.409 . S
C2083 H2075 0.930 . S
C2083 C2084 1.355 . S
C2083 C2085 1.415 . S
C2084 C2083 1.355 . S
C2084 C2086 1.419 . S
C2085 C2080 1.425 . S
C2085 C2082 1.409 . S
C2085 C2083 1.415 . S
C2086 H2076 0.930 . S
C2086 C2084 1.419 . S
C2086 C2087 1.362 . S
C2087 H2077 0.930 . S
C2087 C2080 1.409 . S
C2087 C2086 1.362 . S
H2088 C2094 0.930 . S
H2089 C2097 0.930 . S
H2090 C2098 0.930 . S
H2091 C2099 0.930 . S
H2092 C2102 0.930 . S
H2093 C2103 0.930 . S
C2094 H2088 0.930 . S
C2094 C2095 1.355 . S
C2094 C2096 1.415 . S
C2095 C2094 1.355 . S
C2095 C2097 1.419 . S
C2096 C2094 1.415 . S
C2096 C2101 1.425 . S
C2096 C2103 1.409 . S
C2097 H2089 0.930 . S
C2097 C2095 1.419 . S
C2097 C2098 1.362 . S
C2098 H2090 0.930 . S
C2098 C2097 1.362 . S
C2098 C2101 1.409 . S
C2099 H2091 0.930 . S
C2099 C2100 1.355 . S
C2099 C2101 1.415 . S
C2100 C2099 1.355 . S
C2100 C2102 1.419 . S
C2101 C2096 1.425 . S
C2101 C2098 1.409 . S
C2101 C2099 1.415 . S
C2102 H2092 0.930 . S
C2102 C2100 1.419 . S
C2102 C2103 1.362 . S
C2103 H2093 0.930 . S
C2103 C2096 1.409 . S
C2103 C2102 1.362 . S
H2104 C2110 0.930 . S
H2105 C2113 0.930 . S
H2106 C2114 0.930 . S
H2107 C2115 0.930 . S
H2108 C2118 0.930 . S
H2109 C2119 0.930 . S
C2110 H2104 0.930 . S
C2110 C2111 1.355 . S
C2110 C2112 1.415 . S
C2111 C2110 1.355 . S
C2111 C2113 1.419 . S
C2112 C2110 1.415 . S
C2112 C2117 1.425 . S
C2112 C2119 1.409 . S
C2113 H2105 0.930 . S
C2113 C2111 1.419 . S
C2113 C2114 1.362 . S
C2114 H2106 0.930 . S
C2114 C2113 1.362 . S
C2114 C2117 1.409 . S
C2115 H2107 0.930 . S
C2115 C2116 1.355 . S
C2115 C2117 1.415 . S
C2116 C2115 1.355 . S
C2116 C2118 1.419 . S
C2117 C2112 1.425 . S
C2117 C2114 1.409 . S
C2117 C2115 1.415 . S
C2118 H2108 0.930 . S
C2118 C2116 1.419 . S
C2118 C2119 1.362 . S
C2119 H2109 0.930 . S
C2119 C2112 1.409 . S
C2119 C2118 1.362 . S
H2120 C2126 0.930 . S
H2121 C2129 0.930 . S
H2122 C2130 0.930 . S
H2123 C2131 0.930 . S
H2124 C2134 0.930 . S
H2125 C2135 0.930 . S
C2126 H2120 0.930 . S
C2126 C2127 1.355 . S
C2126 C2128 1.415 . S
C2127 C2126 1.355 . S
C2127 C2129 1.419 . S
C2128 C2126 1.415 . S
C2128 C2133 1.425 . S
C2128 C2135 1.409 . S
C2129 H2121 0.930 . S
C2129 C2127 1.419 . S
C2129 C2130 1.362 . S
C2130 H2122 0.930 . S
C2130 C2129 1.362 . S
C2130 C2133 1.409 . S
C2131 H2123 0.930 . S
C2131 C2132 1.355 . S
C2131 C2133 1.415 . S
C2132 C2131 1.355 . S
C2132 C2134 1.419 . S
C2133 C2128 1.425 . S
C2133 C2130 1.409 . S
C2133 C2131 1.415 . S
C2134 H2124 0.930 . S
C2134 C2132 1.419 . S
C2134 C2135 1.362 . S
C2135 H2125 0.930 . S
C2135 C2128 1.409 . S
C2135 C2134 1.362 . S
H2136 C2142 0.930 . S
H2137 C2145 0.930 . S
H2138 C2146 0.930 . S
H2139 C2147 0.930 . S
H2140 C2150 0.930 1_554 S
H2141 C2151 0.930 . S
C2142 H2136 0.930 . S
C2142 C2143 1.355 . S
C2142 C2144 1.415 . S
C2143 C2142 1.355 . S
C2143 C2145 1.419 . S
C2144 C2142 1.415 . S
C2144 C2149 1.425 . S
C2144 C2151 1.409 . S
C2145 H2137 0.930 . S
C2145 C2143 1.419 . S
C2145 C2146 1.362 . S
C2146 H2138 0.930 . S
C2146 C2145 1.362 . S
C2146 C2149 1.409 . S
C2147 H2139 0.930 . S
C2147 C2148 1.355 . S
C2147 C2149 1.415 . S
C2148 C2147 1.355 . S
C2148 C2150 1.419 . S
C2149 C2144 1.425 . S
C2149 C2146 1.409 . S
C2149 C2147 1.415 . S
C2150 H2140 0.930 1_556 S
C2150 C2148 1.419 . S
C2150 C2151 1.362 . S
C2151 H2141 0.930 . S
C2151 C2144 1.409 . S
C2151 C2150 1.362 . S
H2152 C2158 0.930 . S
H2153 C2161 0.930 . S
H2154 C2162 0.930 . S
H2155 C2163 0.930 . S
H2156 C2166 0.930 . S
H2157 C2167 0.930 . S
C2158 H2152 0.930 . S
C2158 C2159 1.355 . S
C2158 C2160 1.415 . S
C2159 C2158 1.355 . S
C2159 C2161 1.419 . S
C2160 C2158 1.415 . S
C2160 C2165 1.425 . S
C2160 C2167 1.409 . S
C2161 H2153 0.930 . S
C2161 C2159 1.419 . S
C2161 C2162 1.362 . S
C2162 H2154 0.930 . S
C2162 C2161 1.362 . S
C2162 C2165 1.409 . S
C2163 H2155 0.930 . S
C2163 C2164 1.355 . S
C2163 C2165 1.415 . S
C2164 C2163 1.355 . S
C2164 C2166 1.419 . S
C2165 C2160 1.425 . S
C2165 C2162 1.409 . S
C2165 C2163 1.415 . S
C2166 H2156 0.930 . S
C2166 C2164 1.419 . S
C2166 C2167 1.362 . S
C2167 H2157 0.930 . S
C2167 C2160 1.409 . S
C2167 C2166 1.362 . S
H2168 C2174 0.930 1_565 S
H2169 C2177 0.930 . S
H2170 C2178 0.930 . S
H2171 C2179 0.930 . S
H2172 C2182 0.930 1_565 S
H2173 C2183 0.930 . S
C2174 H2168 0.930 1_545 S
C2174 C2175 1.355 . S
C2174 C2176 1.415 . S
C2175 C2174 1.355 . S
C2175 C2177 1.419 . S
C2176 C2174 1.415 . S
C2176 C2181 1.425 . S
C2176 C2183 1.409 1_545 S
C2177 H2169 0.930 . S
C2177 C2175 1.419 . S
C2177 C2178 1.362 . S
C2178 H2170 0.930 . S
C2178 C2177 1.362 . S
C2178 C2181 1.409 . S
C2179 H2171 0.930 . S
C2179 C2180 1.355 . S
C2179 C2181 1.415 . S
C2180 C2179 1.355 . S
C2180 C2182 1.419 . S
C2181 C2176 1.425 . S
C2181 C2178 1.409 . S
C2181 C2179 1.415 . S
C2182 H2172 0.930 1_545 S
C2182 C2180 1.419 . S
C2182 C2183 1.362 1_545 S
C2183 H2173 0.930 . S
C2183 C2176 1.409 1_565 S
C2183 C2182 1.362 1_565 S
H2184 C2190 0.930 . S
H2185 C2193 0.930 . S
H2186 C2194 0.930 . S
H2187 C2195 0.930 . S
H2188 C2198 0.930 . S
H2189 C2199 0.930 . S
C2190 H2184 0.930 . S
C2190 C2191 1.355 . S
C2190 C2192 1.415 . S
C2191 C2190 1.355 . S
C2191 C2193 1.419 . S
C2192 C2190 1.415 . S
C2192 C2197 1.425 . S
C2192 C2199 1.409 . S
C2193 H2185 0.930 . S
C2193 C2191 1.419 . S
C2193 C2194 1.362 . S
C2194 H2186 0.930 . S
C2194 C2193 1.362 . S
C2194 C2197 1.409 . S
C2195 H2187 0.930 . S
C2195 C2196 1.355 . S
C2195 C2197 1.415 . S
C2196 C2195 1.355 . S
C2196 C2198 1.419 . S
C2197 C2192 1.425 . S
C2197 C2194 1.409 . S
C2197 C2195 1.415 . S
C2198 H2188 0.930 . S
C2198 C2196 1.419 . S
C2198 C2199 1.362 . S
C2199 H2189 0.930 . S
C2199 C2192 1.409 . S
C2199 C2198 1.362 . S
H2200 C2206 0.930 1_565 S
H2201 C2209 0.930 . S
H2202 C2210 0.930 . S
H2203 C2211 0.930 . S
H2204 C2214 0.923 1_565 S
H2205 C2215 0.930 . S
C2206 H2200 0.930 1_545 S
C2206 C2207 1.355 . S
C2206 C2208 1.415 . S
C2207 C2206 1.355 . S
C2207 C2209 1.419 . S
C2208 C2206 1.415 . S
C2208 C2213 1.425 . S
C2208 C2215 1.409 1_545 S
C2209 H2201 0.930 . S
C2209 C2207 1.419 . S
C2209 C2210 1.362 . S
C2210 H2202 0.930 . S
C2210 C2209 1.362 . S
C2210 C2213 1.409 . S
C2211 H2203 0.930 . S
C2211 C2212 1.355 . S
C2211 C2213 1.415 . S
C2212 C2211 1.355 . S
C2212 C2214 1.426 . S
C2213 C2208 1.425 . S
C2213 C2210 1.409 . S
C2213 C2211 1.415 . S
C2214 H2204 0.923 1_545 S
C2214 C2212 1.426 . S
C2214 C2215 1.362 1_545 S
C2215 H2205 0.930 . S
C2215 C2208 1.409 1_565 S
C2215 C2214 1.362 1_565 S
H2216 C2222 0.930 . S
H2217 C2225 0.930 . S
H2218 C2226 0.930 . S
H2219 C2227 0.930 . S
H2220 C2230 0.930 . S
H2221 C2231 0.930 . S
C2222 H2216 0.930 . S
C2222 C2223 1.355 . S
C2222 C2224 1.415 . S
C2223 C2222 1.355 . S
C2223 C2225 1.419 . S
C2224 C2222 1.415 . S
C2224 C2229 1.425 . S
C2224 C2231 1.409 . S
C2225 H2217 0.930 . S
C2225 C2223 1.419 . S
C2225 C2226 1.362 . S
C2226 H2218 0.930 . S
C2226 C2225 1.362 . S
C2226 C2229 1.409 . S
C2227 H2219 0.930 . S
C2227 C2228 1.355 . S
C2227 C2229 1.415 . S
C2228 C2227 1.355 . S
C2228 C2230 1.419 . S
C2229 C2224 1.425 . S
C2229 C2226 1.409 . S
C2229 C2227 1.415 . S
C2230 H2220 0.930 . S
C2230 C2228 1.419 . S
C2230 C2231 1.362 . S
C2231 H2221 0.930 . S
C2231 C2224 1.409 . S
C2231 C2230 1.362 . S
H2232 C2238 0.930 . S
H2233 C2241 0.930 . S
H2234 C2242 0.930 . S
H2235 C2243 0.930 . S
H2236 C2246 0.930 . S
H2237 C2247 0.930 . S
C2238 H2232 0.930 . S
C2238 C2239 1.355 . S
C2238 C2240 1.415 . S
C2239 C2238 1.355 . S
C2239 C2241 1.419 1_565 S
C2240 C2238 1.415 . S
C2240 C2245 1.425 1_565 S
C2240 C2247 1.409 . S
C2241 H2233 0.930 . S
C2241 C2239 1.419 1_545 S
C2241 C2242 1.362 . S
C2242 H2234 0.930 . S
C2242 C2241 1.362 . S
C2242 C2245 1.409 . S
C2243 H2235 0.930 . S
C2243 C2244 1.355 . S
C2243 C2245 1.415 . S
C2244 C2243 1.355 . S
C2244 C2246 1.419 1_545 S
C2245 C2240 1.425 1_545 S
C2245 C2242 1.409 . S
C2245 C2243 1.415 . S
C2246 H2236 0.930 . S
C2246 C2244 1.419 1_565 S
C2246 C2247 1.362 . S
C2247 H2237 0.930 . S
C2247 C2240 1.409 . S
C2247 C2246 1.362 . S
H2248 C2254 0.930 . S
H2249 C2257 0.930 . S
H2250 C2258 0.930 . S
H2251 C2259 0.930 . S
H2252 C2262 0.930 . S
H2253 C2263 0.930 . S
C2254 H2248 0.930 . S
C2254 C2255 1.355 . S
C2254 C2256 1.415 . S
C2255 C2254 1.355 . S
C2255 C2257 1.419 . S
C2256 C2254 1.415 . S
C2256 C2261 1.425 . S
C2256 C2263 1.409 . S
C2257 H2249 0.930 . S
C2257 C2255 1.419 . S
C2257 C2258 1.362 . S
C2258 H2250 0.930 . S
C2258 C2257 1.362 . S
C2258 C2261 1.409 . S
C2259 H2251 0.930 . S
C2259 C2260 1.355 . S
C2259 C2261 1.415 . S
C2260 C2259 1.355 . S
C2260 C2262 1.419 . S
C2261 C2256 1.425 . S
C2261 C2258 1.409 . S
C2261 C2259 1.415 . S
C2262 H2252 0.930 . S
C2262 C2260 1.419 . S
C2262 C2263 1.362 . S
C2263 H2253 0.930 . S
C2263 C2256 1.409 . S
C2263 C2262 1.362 . S
H2264 C2270 0.930 . S
H2265 C2273 0.930 . S
H2266 C2274 0.930 . S
H2267 C2275 0.930 . S
H2268 C2278 0.930 . S
H2269 C2279 0.930 . S
C2270 H2264 0.930 . S
C2270 C2271 1.355 . S
C2270 C2272 1.415 . S
C2271 C2270 1.355 . S
C2271 C2273 1.419 . S
C2272 C2270 1.415 . S
C2272 C2277 1.425 . S
C2272 C2279 1.409 . S
C2273 H2265 0.930 . S
C2273 C2271 1.419 . S
C2273 C2274 1.362 . S
C2274 H2266 0.930 . S
C2274 C2273 1.362 . S
C2274 C2277 1.409 . S
C2275 H2267 0.930 . S
C2275 C2276 1.355 . S
C2275 C2277 1.415 . S
C2276 C2275 1.355 . S
C2276 C2278 1.419 . S
C2277 C2272 1.425 . S
C2277 C2274 1.409 . S
C2277 C2275 1.415 . S
C2278 H2268 0.930 . S
C2278 C2276 1.419 . S
C2278 C2279 1.362 . S
C2279 H2269 0.930 . S
C2279 C2272 1.409 . S
C2279 C2278 1.362 . S
H2280 C2286 0.930 . S
H2281 C2289 0.930 . S
H2282 C2290 0.930 . S
H2283 C2291 0.930 . S
H2284 C2294 0.930 . S
H2285 C2295 0.930 . S
C2286 H2280 0.930 . S
C2286 C2287 1.355 . S
C2286 C2288 1.415 . S
C2287 C2286 1.355 . S
C2287 C2289 1.419 . S
C2288 C2286 1.415 . S
C2288 C2293 1.425 . S
C2288 C2295 1.409 . S
C2289 H2281 0.930 . S
C2289 C2287 1.419 . S
C2289 C2290 1.362 . S
C2290 H2282 0.930 . S
C2290 C2289 1.362 . S
C2290 C2293 1.409 . S
C2291 H2283 0.930 . S
C2291 C2292 1.355 . S
C2291 C2293 1.415 . S
C2292 C2291 1.355 . S
C2292 C2294 1.419 . S
C2293 C2288 1.425 . S
C2293 C2290 1.409 . S
C2293 C2291 1.415 . S
C2294 H2284 0.930 . S
C2294 C2292 1.419 . S
C2294 C2295 1.362 . S
C2295 H2285 0.930 . S
C2295 C2288 1.409 . S
C2295 C2294 1.362 . S
H2296 C2302 0.930 . S
H2297 C2305 0.930 . S
H2298 C2306 0.930 . S
H2299 C2307 0.930 . S
H2300 C2310 0.930 . S
H2301 C2311 0.930 . S
C2302 H2296 0.930 . S
C2302 C2303 1.355 . S
C2302 C2304 1.415 . S
C2303 C2302 1.355 . S
C2303 C2305 1.419 . S
C2304 C2302 1.415 . S
C2304 C2309 1.425 . S
C2304 C2311 1.409 . S
C2305 H2297 0.930 . S
C2305 C2303 1.419 . S
C2305 C2306 1.362 . S
C2306 H2298 0.930 . S
C2306 C2305 1.362 . S
C2306 C2309 1.409 . S
C2307 H2299 0.930 . S
C2307 C2308 1.355 . S
C2307 C2309 1.415 . S
C2308 C2307 1.355 . S
C2308 C2310 1.419 . S
C2309 C2304 1.425 . S
C2309 C2306 1.409 . S
C2309 C2307 1.415 . S
C2310 H2300 0.930 . S
C2310 C2308 1.419 . S
C2310 C2311 1.362 . S
C2311 H2301 0.930 . S
C2311 C2304 1.409 . S
C2311 C2310 1.362 . S
H2312 C2318 0.930 . S
H2313 C2321 0.930 1_556 S
H2314 C2322 0.930 1_556 S
H2315 C2323 0.891 1_556 S
H2316 C2326 0.930 . S
H2317 C2327 0.930 . S
C2318 H2312 0.930 . S
C2318 C2319 1.355 . S
C2318 C2320 1.415 . S
C2319 C2318 1.355 . S
C2319 C2321 1.419 . S
C2320 C2318 1.415 . S
C2320 C2325 1.425 . S
C2320 C2327 1.409 . S
C2321 H2313 0.930 1_554 S
C2321 C2319 1.419 . S
C2321 C2322 1.362 . S
C2322 H2314 0.930 1_554 S
C2322 C2321 1.362 . S
C2322 C2325 1.409 . S
C2323 H2315 0.891 1_554 S
C2323 C2324 1.355 . S
C2323 C2325 1.415 . S
C2324 C2323 1.355 . S
C2324 C2326 1.419 . S
C2325 C2320 1.425 . S
C2325 C2322 1.409 . S
C2325 C2323 1.415 . S
C2326 H2316 0.930 . S
C2326 C2324 1.419 . S
C2326 C2327 1.362 . S
C2327 H2317 0.930 . S
C2327 C2320 1.409 . S
C2327 C2326 1.362 . S
H2328 C2334 0.930 . S
H2329 C2337 0.930 . S
H2330 C2338 0.930 . S
H2331 C2339 0.930 . S
H2332 C2342 0.930 . S
H2333 C2343 0.930 . S
C2334 H2328 0.930 . S
C2334 C2335 1.355 . S
C2334 C2336 1.415 . S
C2335 C2334 1.355 . S
C2335 C2337 1.419 . S
C2336 C2334 1.415 . S
C2336 C2341 1.425 . S
C2336 C2343 1.409 . S
C2337 H2329 0.930 . S
C2337 C2335 1.419 . S
C2337 C2338 1.362 . S
C2338 H2330 0.930 . S
C2338 C2337 1.362 . S
C2338 C2341 1.409 . S
C2339 H2331 0.930 . S
C2339 C2340 1.355 . S
C2339 C2341 1.415 . S
C2340 C2339 1.355 . S
C2340 C2342 1.419 . S
C2341 C2336 1.425 . S
C2341 C2338 1.409 . S
C2341 C2339 1.415 . S
C2342 H2332 0.930 . S
C2342 C2340 1.419 . S
C2342 C2343 1.362 . S
C2343 H2333 0.930 . S
C2343 C2336 1.409 . S
C2343 C2342 1.362 . S
H2344 C2350 0.930 . S
H2345 C2353 0.930 . S
H2346 C2354 0.930 . S
H2347 C2355 0.930 . S
H2348 C2358 0.930 . S
H2349 C2359 0.930 . S
C2350 H2344 0.930 . S
C2350 C2351 1.355 . S
C2350 C2352 1.415 . S
C2351 C2350 1.355 . S
C2351 C2353 1.419 . S
C2352 C2350 1.415 . S
C2352 C2357 1.425 . S
C2352 C2359 1.409 . S
C2353 H2345 0.930 . S
C2353 C2351 1.419 . S
C2353 C2354 1.362 . S
C2354 H2346 0.930 . S
C2354 C2353 1.362 . S
C2354 C2357 1.409 . S
C2355 H2347 0.930 . S
C2355 C2356 1.355 . S
C2355 C2357 1.415 . S
C2356 C2355 1.355 . S
C2356 C2358 1.419 . S
C2357 C2352 1.425 . S
C2357 C2354 1.409 . S
C2357 C2355 1.415 . S
C2358 H2348 0.930 . S
C2358 C2356 1.419 . S
C2358 C2359 1.362 . S
C2359 H2349 0.930 . S
C2359 C2352 1.409 . S
C2359 C2358 1.362 . S
H2360 C2366 0.930 1_545 S
H2361 C2369 0.930 . S
H2362 C2370 0.930 . S
H2363 C2371 0.930 . S
H2364 C2374 0.930 . S
H2365 C2375 0.930 . S
C2366 H2360 0.930 1_565 S
C2366 C2367 1.355 . S
C2366 C2368 1.415 . S
C2367 C2366 1.355 . S
C2367 C2369 1.419 . S
C2368 C2366 1.415 . S
C2368 C2373 1.425 . S
C2368 C2375 1.409 . S
C2369 H2361 0.930 . S
C2369 C2367 1.419 . S
C2369 C2370 1.362 . S
C2370 H2362 0.930 . S
C2370 C2369 1.362 . S
C2370 C2373 1.409 . S
C2371 H2363 0.930 . S
C2371 C2372 1.355 . S
C2371 C2373 1.415 . S
C2372 C2371 1.355 . S
C2372 C2374 1.419 . S
C2373 C2368 1.425 . S
C2373 C2370 1.409 . S
C2373 C2371 1.415 . S
C2374 H2364 0.930 . S
C2374 C2372 1.419 . S
C2374 C2375 1.362 . S
C2375 H2365 0.930 . S
C2375 C2368 1.409 . S
C2375 C2374 1.362 . S
H2376 C2382 0.930 . S
H2377 C2385 0.930 . S
H2378 C2386 0.930 . S
H2379 C2387 0.930 . S
H2380 C2390 0.930 . S
H2381 C2391 0.930 . S
C2382 H2376 0.930 . S
C2382 C2383 1.355 . S
C2382 C2384 1.415 . S
C2383 C2382 1.355 . S
C2383 C2385 1.419 . S
C2384 C2382 1.415 . S
C2384 C2389 1.425 . S
C2384 C2391 1.409 . S
C2385 H2377 0.930 . S
C2385 C2383 1.419 . S
C2385 C2386 1.362 . S
C2386 H2378 0.930 . S
C2386 C2385 1.362 . S
C2386 C2389 1.409 . S
C2387 H2379 0.930 . S
C2387 C2388 1.355 . S
C2387 C2389 1.415 . S
C2388 C2387 1.355 . S
C2388 C2390 1.419 . S
C2389 C2384 1.425 . S
C2389 C2386 1.409 . S
C2389 C2387 1.415 . S
C2390 H2380 0.930 . S
C2390 C2388 1.419 . S
C2390 C2391 1.362 . S
C2391 H2381 0.930 . S
C2391 C2384 1.409 . S
C2391 C2390 1.362 . S
H2392 C2398 0.930 . S
H2393 C2401 0.930 . S
H2394 C2402 0.930 . S
H2395 C2403 0.930 . S
H2396 C2406 0.930 . S
H2397 C2407 0.930 . S
C2398 H2392 0.930 . S
C2398 C2399 1.355 . S
C2398 C2400 1.415 . S
C2399 C2398 1.355 . S
C2399 C2401 1.419 . S
C2400 C2398 1.415 . S
C2400 C2405 1.425 . S
C2400 C2407 1.409 . S
C2401 H2393 0.930 . S
C2401 C2399 1.419 . S
C2401 C2402 1.362 . S
C2402 H2394 0.930 . S
C2402 C2401 1.362 . S
C2402 C2405 1.409 . S
C2403 H2395 0.930 . S
C2403 C2404 1.355 . S
C2403 C2405 1.415 . S
C2404 C2403 1.355 . S
C2404 C2406 1.419 . S
C2405 C2400 1.425 . S
C2405 C2402 1.409 . S
C2405 C2403 1.415 . S
C2406 H2396 0.930 . S
C2406 C2404 1.419 . S
C2406 C2407 1.362 . S
C2407 H2397 0.930 . S
C2407 C2400 1.409 . S
C2407 C2406 1.362 . S
H2408 C2414 0.930 . S
H2409 C2417 0.930 . S
H2410 C2418 0.930 . S
H2411 C2419 0.930 . S
H2412 C2422 0.930 . S
H2413 C2423 0.930 . S
C2414 H2408 0.930 . S
C2414 C2415 1.355 . S
C2414 C2416 1.415 . S
C2415 C2414 1.355 . S
C2415 C2417 1.419 . S
C2416 C2414 1.415 . S
C2416 C2421 1.425 . S
C2416 C2423 1.409 . S
C2417 H2409 0.930 . S
C2417 C2415 1.419 . S
C2417 C2418 1.362 . S
C2418 H2410 0.930 . S
C2418 C2417 1.362 . S
C2418 C2421 1.409 . S
C2419 H2411 0.930 . S
C2419 C2420 1.355 . S
C2419 C2421 1.415 . S
C2420 C2419 1.355 . S
C2420 C2422 1.419 . S
C2421 C2416 1.425 . S
C2421 C2418 1.409 . S
C2421 C2419 1.415 . S
C2422 H2412 0.930 . S
C2422 C2420 1.419 . S
C2422 C2423 1.362 . S
C2423 H2413 0.930 . S
C2423 C2416 1.409 . S
C2423 C2422 1.362 . S
H2424 C2430 0.930 . S
H2425 C2433 0.930 . S
H2426 C2434 0.930 . S
H2427 C2435 0.930 . S
H2428 C2438 0.930 . S
H2429 C2439 0.930 . S
C2430 H2424 0.930 . S
C2430 C2431 1.355 . S
C2430 C2432 1.415 . S
C2431 C2430 1.355 . S
C2431 C2433 1.419 . S
C2432 C2430 1.415 . S
C2432 C2437 1.425 . S
C2432 C2439 1.409 . S
C2433 H2425 0.930 . S
C2433 C2431 1.419 . S
C2433 C2434 1.362 . S
C2434 H2426 0.930 . S
C2434 C2433 1.362 . S
C2434 C2437 1.409 . S
C2435 H2427 0.930 . S
C2435 C2436 1.355 . S
C2435 C2437 1.415 . S
C2436 C2435 1.355 . S
C2436 C2438 1.419 . S
C2437 C2432 1.425 . S
C2437 C2434 1.409 . S
C2437 C2435 1.415 . S
C2438 H2428 0.930 . S
C2438 C2436 1.419 . S
C2438 C2439 1.362 . S
C2439 H2429 0.930 . S
C2439 C2432 1.409 . S
C2439 C2438 1.362 . S
H2440 C2446 0.930 . S
H2441 C2449 0.930 . S
H2442 C2450 0.930 . S
H2443 C2451 0.930 . S
H2444 C2454 0.930 . S
H2445 C2455 0.930 . S
C2446 H2440 0.930 . S
C2446 C2447 1.355 . S
C2446 C2448 1.415 . S
C2447 C2446 1.355 . S
C2447 C2449 1.419 . S
C2448 C2446 1.415 . S
C2448 C2453 1.425 . S
C2448 C2455 1.409 . S
C2449 H2441 0.930 . S
C2449 C2447 1.419 . S
C2449 C2450 1.362 . S
C2450 H2442 0.930 . S
C2450 C2449 1.362 . S
C2450 C2453 1.409 . S
C2451 H2443 0.930 . S
C2451 C2452 1.355 . S
C2451 C2453 1.415 . S
C2452 C2451 1.355 . S
C2452 C2454 1.419 . S
C2453 C2448 1.425 . S
C2453 C2450 1.409 . S
C2453 C2451 1.415 . S
C2454 H2444 0.930 . S
C2454 C2452 1.419 . S
C2454 C2455 1.362 . S
C2455 H2445 0.930 . S
C2455 C2448 1.409 . S
C2455 C2454 1.362 . S
H2456 C2462 0.930 . S
H2457 C2465 0.930 . S
H2458 C2466 0.930 . S
H2459 C2467 0.930 . S
H2460 C2470 0.930 . S
H2461 C2471 0.930 . S
C2462 H2456 0.930 . S
C2462 C2463 1.355 1_554 S
C2462 C2464 1.415 . S
C2463 C2462 1.355 1_556 S
C2463 C2465 1.419 . S
C2464 C2462 1.415 . S
C2464 C2469 1.425 1_554 S
C2464 C2471 1.409 . S
C2465 H2457 0.930 . S
C2465 C2463 1.419 . S
C2465 C2466 1.362 . S
C2466 H2458 0.930 . S
C2466 C2465 1.362 . S
C2466 C2469 1.409 . S
C2467 H2459 0.930 . S
C2467 C2468 1.355 1_556 S
C2467 C2469 1.415 . S
C2468 C2467 1.355 1_554 S
C2468 C2470 1.419 . S
C2469 C2464 1.425 1_556 S
C2469 C2466 1.409 . S
C2469 C2467 1.415 . S
C2470 H2460 0.930 . S
C2470 C2468 1.419 . S
C2470 C2471 1.362 . S
C2471 H2461 0.930 . S
C2471 C2464 1.409 . S
C2471 C2470 1.362 . S
H2472 C2478 0.930 . S
H2473 C2481 0.930 . S
H2474 C2482 0.930 . S
H2475 C2483 0.930 . S
H2476 C2486 0.930 . S
H2477 C2487 0.930 . S
C2478 H2472 0.930 . S
C2478 C2479 1.355 . S
C2478 C2480 1.415 1_455 S
C2479 C2478 1.355 . S
C2479 C2481 1.419 . S
C2480 C2478 1.415 1_655 S
C2480 C2485 1.425 . S
C2480 C2487 1.409 . S
C2481 H2473 0.930 . S
C2481 C2479 1.419 . S
C2481 C2482 1.362 . S
C2482 H2474 0.930 . S
C2482 C2481 1.362 . S
C2482 C2485 1.409 1_455 S
C2483 H2475 0.930 . S
C2483 C2484 1.355 . S
C2483 C2485 1.415 . S
C2484 C2483 1.355 . S
C2484 C2486 1.419 . S
C2485 C2480 1.425 . S
C2485 C2482 1.409 1_655 S
C2485 C2483 1.415 . S
C2486 H2476 0.930 . S
C2486 C2484 1.419 . S
C2486 C2487 1.362 . S
C2487 H2477 0.930 . S
C2487 C2480 1.409 . S
C2487 C2486 1.362 . S
H2488 C2494 0.930 . S
H2489 C2497 0.930 . S
H2490 C2498 0.930 . S
H2491 C2499 0.930 . S
H2492 C2502 0.930 . S
H2493 C2503 0.930 . S
C2494 H2488 0.930 . S
C2494 C2495 1.355 . S
C2494 C2496 1.415 . S
C2495 C2494 1.355 . S
C2495 C2497 1.419 . S
C2496 C2494 1.415 . S
C2496 C2501 1.425 . S
C2496 C2503 1.409 . S
C2497 H2489 0.930 . S
C2497 C2495 1.419 . S
C2497 C2498 1.362 . S
C2498 H2490 0.930 . S
C2498 C2497 1.362 . S
C2498 C2501 1.409 . S
C2499 H2491 0.930 . S
C2499 C2500 1.355 . S
C2499 C2501 1.415 . S
C2500 C2499 1.355 . S
C2500 C2502 1.419 . S
C2501 C2496 1.425 . S
C2501 C2498 1.409 . S
C2501 C2499 1.415 . S
C2502 H2492 0.930 . S
C2502 C2500 1.419 . S
C2502 C2503 1.362 . S
C2503 H2493 0.930 . S
C2503 C2496 1.409 . S
C2503 C2502 1.362 . S
H2504 C2510 0.930 . S
H2505 C2513 0.930 . S
H2506 C2514 0.930 . S
H2507 C2515 0.930 . S
H2508 C2518 0.925 1_655 S
H2509 C2519 0.930 . S
C2510 H2504 0.930 . S
C2510 C2511 1.355 . S
C2510 C2512 1.415 . S
C2511 C2510 1.355 . S
C2511 C2513 1.419 . S
C2512 C2510 1.415 . S
C2512 C2517 1.425 . S
C2512 C2519 1.409 . S
C2513 H2505 0.930 . S
C2513 C2511 1.419 . S
C2513 C2514 1.362 . S
C2514 H2506 0.930 . S
C2514 C2513 1.362 . S
C2514 C2517 1.409 . S
C2515 H2507 0.930 . S
C2515 C2516 1.355 . S
C2515 C2517 1.415 1_655 S
C2516 C2515 1.355 . S
C2516 C2518 1.400 1_655 S
C2517 C2512 1.425 . S
C2517 C2514 1.409 . S
C2517 C2515 1.415 1_455 S
C2518 H2508 0.925 1_455 S
C2518 C2516 1.400 1_455 S
C2518 C2519 1.387 . S
C2519 H2509 0.930 . S
C2519 C2512 1.409 . S
C2519 C2518 1.387 . S
H2520 C2526 0.930 . S
H2521 C2529 0.930 . S
H2522 C2530 0.930 . S
H2523 C2531 0.930 . S
H2524 C2534 0.930 . S
H2525 C2535 0.930 . S
C2526 H2520 0.930 . S
C2526 C2527 1.355 . S
C2526 C2528 1.415 1_655 S
C2527 C2526 1.355 . S
C2527 C2529 1.419 . S
C2528 C2526 1.415 1_455 S
C2528 C2533 1.425 . S
C2528 C2535 1.409 . S
C2529 H2521 0.930 . S
C2529 C2527 1.419 . S
C2529 C2530 1.362 1_655 S
C2530 H2522 0.930 . S
C2530 C2529 1.362 1_455 S
C2530 C2533 1.409 . S
C2531 H2523 0.930 . S
C2531 C2532 1.355 . S
C2531 C2533 1.415 . S
C2532 C2531 1.355 . S
C2532 C2534 1.419 . S
C2533 C2528 1.425 . S
C2533 C2530 1.409 . S
C2533 C2531 1.415 . S
C2534 H2524 0.930 . S
C2534 C2532 1.419 . S
C2534 C2535 1.362 . S
C2535 H2525 0.930 . S
C2535 C2528 1.409 . S
C2535 C2534 1.362 . S
H2536 C2542 0.930 . S
H2537 C2545 0.930 . S
H2538 C2546 0.930 . S
H2539 C2547 0.930 . S
H2540 C2550 0.930 . S
H2541 C2551 0.930 . S
C2542 H2536 0.930 . S
C2542 C2543 1.355 . S
C2542 C2544 1.415 . S
C2543 C2542 1.355 . S
C2543 C2545 1.419 . S
C2544 C2542 1.415 . S
C2544 C2549 1.425 . S
C2544 C2551 1.409 . S
C2545 H2537 0.930 . S
C2545 C2543 1.419 . S
C2545 C2546 1.362 . S
C2546 H2538 0.930 . S
C2546 C2545 1.362 . S
C2546 C2549 1.409 . S
C2547 H2539 0.930 . S
C2547 C2548 1.355 . S
C2547 C2549 1.415 . S
C2548 C2547 1.355 . S
C2548 C2550 1.419 . S
C2549 C2544 1.425 . S
C2549 C2546 1.409 . S
C2549 C2547 1.415 . S
C2550 H2540 0.930 . S
C2550 C2548 1.419 . S
C2550 C2551 1.362 . S
C2551 H2541 0.930 . S
C2551 C2544 1.409 . S
C2551 C2550 1.362 . S
H2552 C2558 0.930 . S
H2553 C2561 0.930 . S
H2554 C2562 0.930 . S
H2555 C2563 0.930 . S
H2556 C2566 0.930 . S
H2557 C2567 0.930 . S
C2558 H2552 0.930 . S
C2558 C2559 1.355 . S
C2558 C2560 1.415 . S
C2559 C2558 1.355 . S
C2559 C2561 1.419 . S
C2560 C2558 1.415 . S
C2560 C2565 1.425 . S
C2560 C2567 1.409 . S
C2561 H2553 0.930 . S
C2561 C2559 1.419 . S
C2561 C2562 1.362 . S
C2562 H2554 0.930 . S
C2562 C2561 1.362 . S
C2562 C2565 1.409 . S
C2563 H2555 0.930 . S
C2563 C2564 1.355 . S
C2563 C2565 1.415 . S
C2564 C2563 1.355 . S
C2564 C2566 1.419 . S
C2565 C2560 1.425 . S
C2565 C2562 1.409 . S
C2565 C2563 1.415 . S
C2566 H2556 0.930 . S
C2566 C2564 1.419 . S
C2566 C2567 1.362 . S
C2567 H2557 0.930 . S
C2567 C2560 1.409 . S
C2567 C2566 1.362 . S
H2568 C2574 0.930 . S
H2569 C2577 0.930 1_554 S
H2570 C2578 0.930 . S
H2571 C2579 0.930 . S
H2572 C2582 0.930 . S
H2573 C2583 0.930 . S
C2574 H2568 0.930 . S
C2574 C2575 1.355 . S
C2574 C2576 1.415 . S
C2575 C2574 1.355 . S
C2575 C2577 1.419 . S
C2576 C2574 1.415 . S
C2576 C2581 1.425 . S
C2576 C2583 1.409 . S
C2577 H2569 0.930 1_556 S
C2577 C2575 1.419 . S
C2577 C2578 1.362 . S
C2578 H2570 0.930 . S
C2578 C2577 1.362 . S
C2578 C2581 1.409 . S
C2579 H2571 0.930 . S
C2579 C2580 1.355 . S
C2579 C2581 1.415 . S
C2580 C2579 1.355 . S
C2580 C2582 1.419 . S
C2581 C2576 1.425 . S
C2581 C2578 1.409 . S
C2581 C2579 1.415 . S
C2582 H2572 0.930 . S
C2582 C2580 1.419 . S
C2582 C2583 1.362 . S
C2583 H2573 0.930 . S
C2583 C2576 1.409 . S
C2583 C2582 1.362 . S
H2584 C2590 0.930 . S
H2585 C2593 0.930 . S
H2586 C2594 0.930 . S
H2587 C2595 0.930 . S
H2588 C2598 0.930 . S
H2589 C2599 0.930 . S
C2590 H2584 0.930 . S
C2590 C2591 1.355 . S
C2590 C2592 1.415 . S
C2591 C2590 1.355 . S
C2591 C2593 1.419 . S
C2592 C2590 1.415 . S
C2592 C2597 1.425 . S
C2592 C2599 1.409 . S
C2593 H2585 0.930 . S
C2593 C2591 1.419 . S
C2593 C2594 1.362 . S
C2594 H2586 0.930 . S
C2594 C2593 1.362 . S
C2594 C2597 1.409 . S
C2595 H2587 0.930 . S
C2595 C2596 1.355 . S
C2595 C2597 1.415 . S
C2596 C2595 1.355 . S
C2596 C2598 1.419 . S
C2597 C2592 1.425 . S
C2597 C2594 1.409 . S
C2597 C2595 1.415 . S
C2598 H2588 0.930 . S
C2598 C2596 1.419 . S
C2598 C2599 1.362 . S
C2599 H2589 0.930 . S
C2599 C2592 1.409 . S
C2599 C2598 1.362 . S
H2600 C2606 0.930 . S
H2601 C2609 0.930 . S
H2602 C2610 0.930 . S
H2603 C2611 0.930 . S
H2604 C2614 0.930 . S
H2605 C2615 0.930 . S
C2606 H2600 0.930 . S
C2606 C2607 1.355 . S
C2606 C2608 1.415 . S
C2607 C2606 1.355 . S
C2607 C2609 1.419 . S
C2608 C2606 1.415 . S
C2608 C2613 1.425 . S
C2608 C2615 1.409 . S
C2609 H2601 0.930 . S
C2609 C2607 1.419 . S
C2609 C2610 1.362 . S
C2610 H2602 0.930 . S
C2610 C2609 1.362 . S
C2610 C2613 1.409 . S
C2611 H2603 0.930 . S
C2611 C2612 1.355 . S
C2611 C2613 1.415 . S
C2612 C2611 1.355 . S
C2612 C2614 1.419 . S
C2613 C2608 1.425 . S
C2613 C2610 1.409 . S
C2613 C2611 1.415 . S
C2614 H2604 0.930 . S
C2614 C2612 1.419 . S
C2614 C2615 1.362 . S
C2615 H2605 0.930 . S
C2615 C2608 1.409 . S
C2615 C2614 1.362 . S
H2616 C2622 0.930 . S
H2617 C2625 0.930 . S
H2618 C2626 0.930 . S
H2619 C2627 0.930 . S
H2620 C2630 0.930 . S
H2621 C2631 0.930 . S
C2622 H2616 0.930 . S
C2622 C2623 1.355 . S
C2622 C2624 1.415 . S
C2623 C2622 1.355 . S
C2623 C2625 1.419 . S
C2624 C2622 1.415 . S
C2624 C2629 1.425 . S
C2624 C2631 1.409 . S
C2625 H2617 0.930 . S
C2625 C2623 1.419 . S
C2625 C2626 1.362 . S
C2626 H2618 0.930 . S
C2626 C2625 1.362 . S
C2626 C2629 1.409 . S
C2627 H2619 0.930 . S
C2627 C2628 1.355 . S
C2627 C2629 1.415 . S
C2628 C2627 1.355 . S
C2628 C2630 1.419 . S
C2629 C2624 1.425 . S
C2629 C2626 1.409 . S
C2629 C2627 1.415 . S
C2630 H2620 0.930 . S
C2630 C2628 1.419 . S
C2630 C2631 1.362 . S
C2631 H2621 0.930 . S
C2631 C2624 1.409 . S
C2631 C2630 1.362 . S
H2632 C2638 0.930 . S
H2633 C2641 0.930 . S
H2634 C2642 0.930 . S
H2635 C2643 0.930 . S
H2636 C2646 0.930 . S
H2637 C2647 0.930 . S
C2638 H2632 0.930 . S
C2638 C2639 1.355 . S
C2638 C2640 1.415 . S
C2639 C2638 1.355 . S
C2639 C2641 1.419 . S
C2640 C2638 1.415 . S
C2640 C2645 1.425 . S
C2640 C2647 1.409 . S
C2641 H2633 0.930 . S
C2641 C2639 1.419 . S
C2641 C2642 1.362 . S
C2642 H2634 0.930 . S
C2642 C2641 1.362 . S
C2642 C2645 1.409 . S
C2643 H2635 0.930 . S
C2643 C2644 1.355 . S
C2643 C2645 1.415 . S
C2644 C2643 1.355 . S
C2644 C2646 1.419 . S
C2645 C2640 1.425 . S
C2645 C2642 1.409 . S
C2645 C2643 1.415 . S
C2646 H2636 0.930 . S
C2646 C2644 1.419 . S
C2646 C2647 1.362 . S
C2647 H2637 0.930 . S
C2647 C2640 1.409 . S
C2647 C2646 1.362 . S
H2648 C2654 0.930 . S
H2649 C2657 0.930 . S
H2650 C2658 0.930 . S
H2651 C2659 0.930 . S
H2652 C2662 0.930 . S
H2653 C2663 0.930 . S
C2654 H2648 0.930 . S
C2654 C2655 1.355 . S
C2654 C2656 1.415 . S
C2655 C2654 1.355 . S
C2655 C2657 1.419 . S
C2656 C2654 1.415 . S
C2656 C2661 1.425 . S
C2656 C2663 1.409 . S
C2657 H2649 0.930 . S
C2657 C2655 1.419 . S
C2657 C2658 1.362 . S
C2658 H2650 0.930 . S
C2658 C2657 1.362 . S
C2658 C2661 1.409 . S
C2659 H2651 0.930 . S
C2659 C2660 1.355 . S
C2659 C2661 1.415 . S
C2660 C2659 1.355 . S
C2660 C2662 1.419 . S
C2661 C2656 1.425 . S
C2661 C2658 1.409 . S
C2661 C2659 1.415 . S
C2662 H2652 0.930 . S
C2662 C2660 1.419 . S
C2662 C2663 1.362 . S
C2663 H2653 0.930 . S
C2663 C2656 1.409 . S
C2663 C2662 1.362 . S
H2664 C2670 0.930 . S
H2665 C2673 0.930 . S
H2666 C2674 0.930 . S
H2667 C2675 0.930 . S
H2668 C2678 0.930 . S
H2669 C2679 0.930 . S
C2670 H2664 0.930 . S
C2670 C2671 1.355 . S
C2670 C2672 1.415 . S
C2671 C2670 1.355 . S
C2671 C2673 1.419 . S
C2672 C2670 1.415 . S
C2672 C2677 1.425 . S
C2672 C2679 1.409 . S
C2673 H2665 0.930 . S
C2673 C2671 1.419 . S
C2673 C2674 1.362 . S
C2674 H2666 0.930 . S
C2674 C2673 1.362 . S
C2674 C2677 1.409 . S
C2675 H2667 0.930 . S
C2675 C2676 1.355 . S
C2675 C2677 1.415 . S
C2676 C2675 1.355 . S
C2676 C2678 1.419 . S
C2677 C2672 1.425 . S
C2677 C2674 1.409 . S
C2677 C2675 1.415 . S
C2678 H2668 0.930 . S
C2678 C2676 1.419 . S
C2678 C2679 1.362 . S
C2679 H2669 0.930 . S
C2679 C2672 1.409 . S
C2679 C2678 1.362 . S
H2680 C2686 0.930 . S
H2681 C2689 0.930 . S
H2682 C2690 0.930 . S
H2683 C2691 0.930 . S
H2684 C2694 0.930 . S
H2685 C2695 0.930 . S
C2686 H2680 0.930 . S
C2686 C2687 1.355 . S
C2686 C2688 1.415 . S
C2687 C2686 1.355 . S
C2687 C2689 1.419 . S
C2688 C2686 1.415 . S
C2688 C2693 1.425 . S
C2688 C2695 1.409 . S
C2689 H2681 0.930 . S
C2689 C2687 1.419 . S
C2689 C2690 1.362 . S
C2690 H2682 0.930 . S
C2690 C2689 1.362 . S
C2690 C2693 1.409 . S
C2691 H2683 0.930 . S
C2691 C2692 1.355 . S
C2691 C2693 1.415 . S
C2692 C2691 1.355 . S
C2692 C2694 1.419 . S
C2693 C2688 1.425 . S
C2693 C2690 1.409 . S
C2693 C2691 1.415 . S
C2694 H2684 0.930 . S
C2694 C2692 1.419 . S
C2694 C2695 1.362 . S
C2695 H2685 0.930 . S
C2695 C2688 1.409 . S
C2695 C2694 1.362 . S
H2696 C2702 0.930 . S
H2697 C2705 0.930 . S
H2698 C2706 0.930 . S
H2699 C2707 0.930 . S
H2700 C2710 0.930 . S
H2701 C2711 0.930 . S
C2702 H2696 0.930 . S
C2702 C2703 1.355 . S
C2702 C2704 1.415 . S
C2703 C2702 1.355 . S
C2703 C2705 1.419 . S
C2704 C2702 1.415 . S
C2704 C2709 1.425 . S
C2704 C2711 1.409 . S
C2705 H2697 0.930 . S
C2705 C2703 1.419 . S
C2705 C2706 1.362 . S
C2706 H2698 0.930 . S
C2706 C2705 1.362 . S
C2706 C2709 1.409 . S
C2707 H2699 0.930 . S
C2707 C2708 1.355 . S
C2707 C2709 1.415 . S
C2708 C2707 1.355 . S
C2708 C2710 1.419 . S
C2709 C2704 1.425 . S
C2709 C2706 1.409 . S
C2709 C2707 1.415 . S
C2710 H2700 0.930 . S
C2710 C2708 1.419 . S
C2710 C2711 1.362 . S
C2711 H2701 0.930 . S
C2711 C2704 1.409 . S
C2711 C2710 1.362 . S
H2712 C2718 0.930 . S
H2713 C2721 0.930 . S
H2714 C2722 0.930 . S
H2715 C2723 0.930 . S
H2716 C2726 0.930 . S
H2717 C2727 0.930 . S
C2718 H2712 0.930 . S
C2718 C2719 1.355 . S
C2718 C2720 1.415 . S
C2719 C2718 1.355 . S
C2719 C2721 1.419 . S
C2720 C2718 1.415 . S
C2720 C2725 1.425 . S
C2720 C2727 1.409 . S
C2721 H2713 0.930 . S
C2721 C2719 1.419 . S
C2721 C2722 1.362 . S
C2722 H2714 0.930 . S
C2722 C2721 1.362 . S
C2722 C2725 1.409 . S
C2723 H2715 0.930 . S
C2723 C2724 1.355 . S
C2723 C2725 1.415 . S
C2724 C2723 1.355 . S
C2724 C2726 1.419 . S
C2725 C2720 1.425 . S
C2725 C2722 1.409 . S
C2725 C2723 1.415 . S
C2726 H2716 0.930 . S
C2726 C2724 1.419 . S
C2726 C2727 1.362 . S
C2727 H2717 0.930 . S
C2727 C2720 1.409 . S
C2727 C2726 1.362 . S
H2728 C2734 0.930 . S
H2729 C2737 0.930 . S
H2730 C2738 0.930 . S
H2731 C2739 0.945 . S
H2732 C2742 0.915 1_565 S
H2733 C2743 0.930 . S
C2734 H2728 0.930 . S
C2734 C2735 1.355 . S
C2734 C2736 1.415 . S
C2735 C2734 1.355 . S
C2735 C2737 1.419 1_554 S
C2736 C2734 1.415 . S
C2736 C2741 1.425 1_565 S
C2736 C2743 1.409 . S
C2737 H2729 0.930 . S
C2737 C2735 1.419 1_556 S
C2737 C2738 1.362 1_565 S
C2738 H2730 0.930 . S
C2738 C2737 1.362 1_545 S
C2738 C2741 1.409 1_556 S
C2739 H2731 0.945 . S
C2739 C2740 1.348 1_556 S
C2739 C2741 1.407 1_556 S
C2740 C2739 1.348 1_554 S
C2740 C2742 1.456 . S
C2741 C2736 1.425 1_545 S
C2741 C2738 1.409 1_554 S
C2741 C2739 1.407 1_554 S
C2742 H2732 0.915 1_545 S
C2742 C2740 1.456 . S
C2742 C2743 1.339 1_545 S
C2743 H2733 0.930 . S
C2743 C2736 1.409 . S
C2743 C2742 1.339 1_565 S
H2744 C2750 0.930 . S
H2745 C2753 0.930 . S
H2746 C2754 0.930 . S
H2747 C2755 0.930 . S
H2748 C2758 0.930 . S
H2749 C2759 0.930 . S
C2750 H2744 0.930 . S
C2750 C2751 1.355 . S
C2750 C2752 1.415 . S
C2751 C2750 1.355 . S
C2751 C2753 1.419 . S
C2752 C2750 1.415 . S
C2752 C2757 1.425 . S
C2752 C2759 1.409 . S
C2753 H2745 0.930 . S
C2753 C2751 1.419 . S
C2753 C2754 1.362 . S
C2754 H2746 0.930 . S
C2754 C2753 1.362 . S
C2754 C2757 1.409 . S
C2755 H2747 0.930 . S
C2755 C2756 1.355 . S
C2755 C2757 1.415 . S
C2756 C2755 1.355 . S
C2756 C2758 1.419 . S
C2757 C2752 1.425 . S
C2757 C2754 1.409 . S
C2757 C2755 1.415 . S
C2758 H2748 0.930 . S
C2758 C2756 1.419 . S
C2758 C2759 1.362 . S
C2759 H2749 0.930 . S
C2759 C2752 1.409 . S
C2759 C2758 1.362 . S
H2760 C2766 0.930 . S
H2761 C2769 0.930 . S
H2762 C2770 0.930 . S
H2763 C2771 0.930 . S
H2764 C2774 0.930 . S
H2765 C2775 0.930 . S
C2766 H2760 0.930 . S
C2766 C2767 1.355 . S
C2766 C2768 1.415 . S
C2767 C2766 1.355 . S
C2767 C2769 1.419 . S
C2768 C2766 1.415 . S
C2768 C2773 1.425 . S
C2768 C2775 1.409 . S
C2769 H2761 0.930 . S
C2769 C2767 1.419 . S
C2769 C2770 1.362 . S
C2770 H2762 0.930 . S
C2770 C2769 1.362 . S
C2770 C2773 1.409 . S
C2771 H2763 0.930 . S
C2771 C2772 1.355 . S
C2771 C2773 1.415 . S
C2772 C2771 1.355 . S
C2772 C2774 1.419 . S
C2773 C2768 1.425 . S
C2773 C2770 1.409 . S
C2773 C2771 1.415 . S
C2774 H2764 0.930 . S
C2774 C2772 1.419 . S
C2774 C2775 1.362 . S
C2775 H2765 0.930 . S
C2775 C2768 1.409 . S
C2775 C2774 1.362 . S
H2776 C2782 0.930 . S
H2777 C2785 0.930 . S
H2778 C2786 0.930 . S
H2779 C2787 0.930 . S
H2780 C2790 0.930 . S
H2781 C2791 0.930 . S
C2782 H2776 0.930 . S
C2782 C2783 1.355 . S
C2782 C2784 1.415 . S
C2783 C2782 1.355 . S
C2783 C2785 1.419 . S
C2784 C2782 1.415 . S
C2784 C2789 1.425 . S
C2784 C2791 1.409 . S
C2785 H2777 0.930 . S
C2785 C2783 1.419 . S
C2785 C2786 1.362 . S
C2786 H2778 0.930 . S
C2786 C2785 1.362 . S
C2786 C2789 1.409 . S
C2787 H2779 0.930 . S
C2787 C2788 1.355 . S
C2787 C2789 1.415 . S
C2788 C2787 1.355 . S
C2788 C2790 1.419 . S
C2789 C2784 1.425 . S
C2789 C2786 1.409 . S
C2789 C2787 1.415 . S
C2790 H2780 0.930 . S
C2790 C2788 1.419 . S
C2790 C2791 1.362 . S
C2791 H2781 0.930 . S
C2791 C2784 1.409 . S
C2791 C2790 1.362 . S
H2792 C2798 0.930 . S
H2793 C2801 0.930 . S
H2794 C2802 0.930 . S
H2795 C2803 0.930 . S
H2796 C2806 0.930 . S
H2797 C2807 0.930 . S
C2798 H2792 0.930 . S
C2798 C2799 1.355 . S
C2798 C2800 1.415 . S
C2799 C2798 1.355 . S
C2799 C2801 1.419 . S
C2800 C2798 1.415 . S
C2800 C2805 1.425 . S
C2800 C2807 1.409 . S
C2801 H2793 0.930 . S
C2801 C2799 1.419 . S
C2801 C2802 1.362 . S
C2802 H2794 0.930 . S
C2802 C2801 1.362 . S
C2802 C2805 1.409 . S
C2803 H2795 0.930 . S
C2803 C2804 1.355 . S
C2803 C2805 1.415 . S
C2804 C2803 1.355 . S
C2804 C2806 1.419 . S
C2805 C2800 1.425 . S
C2805 C2802 1.409 . S
C2805 C2803 1.415 . S
C2806 H2796 0.930 . S
C2806 C2804 1.419 . S
C2806 C2807 1.362 . S
C2807 H2797 0.930 . S
C2807 C2800 1.409 . S
C2807 C2806 1.362 . S
H2808 C2814 0.930 . S
H2809 C2817 0.930 . S
H2810 C2818 0.930 . S
H2811 C2819 0.930 . S
H2812 C2822 0.930 . S
H2813 C2823 0.930 . S
C2814 H2808 0.930 . S
C2814 C2815 1.355 . S
C2814 C2816 1.415 . S
C2815 C2814 1.355 . S
C2815 C2817 1.419 . S
C2816 C2814 1.415 . S
C2816 C2821 1.425 . S
C2816 C2823 1.409 . S
C2817 H2809 0.930 . S
C2817 C2815 1.419 . S
C2817 C2818 1.362 . S
C2818 H2810 0.930 . S
C2818 C2817 1.362 . S
C2818 C2821 1.409 . S
C2819 H2811 0.930 . S
C2819 C2820 1.355 . S
C2819 C2821 1.415 . S
C2820 C2819 1.355 . S
C2820 C2822 1.419 . S
C2821 C2816 1.425 . S
C2821 C2818 1.409 . S
C2821 C2819 1.415 . S
C2822 H2812 0.930 . S
C2822 C2820 1.419 . S
C2822 C2823 1.362 . S
C2823 H2813 0.930 . S
C2823 C2816 1.409 . S
C2823 C2822 1.362 . S
H2824 C2830 0.930 . S
H2825 C2833 0.930 . S
H2826 C2834 0.930 . S
H2827 C2835 0.930 . S
H2828 C2838 0.930 . S
H2829 C2839 0.930 . S
C2830 H2824 0.930 . S
C2830 C2831 1.355 . S
C2830 C2832 1.415 . S
C2831 C2830 1.355 . S
C2831 C2833 1.419 . S
C2832 C2830 1.415 . S
C2832 C2837 1.425 . S
C2832 C2839 1.409 . S
C2833 H2825 0.930 . S
C2833 C2831 1.419 . S
C2833 C2834 1.362 . S
C2834 H2826 0.930 . S
C2834 C2833 1.362 . S
C2834 C2837 1.409 . S
C2835 H2827 0.930 . S
C2835 C2836 1.355 . S
C2835 C2837 1.415 . S
C2836 C2835 1.355 . S
C2836 C2838 1.419 . S
C2837 C2832 1.425 . S
C2837 C2834 1.409 . S
C2837 C2835 1.415 . S
C2838 H2828 0.930 . S
C2838 C2836 1.419 . S
C2838 C2839 1.362 . S
C2839 H2829 0.930 . S
C2839 C2832 1.409 . S
C2839 C2838 1.362 . S
H2840 C2846 0.930 . S
H2841 C2849 0.930 . S
H2842 C2850 0.930 . S
H2843 C2851 0.930 . S
H2844 C2854 0.930 . S
H2845 C2855 0.930 . S
C2846 H2840 0.930 . S
C2846 C2847 1.355 . S
C2846 C2848 1.415 . S
C2847 C2846 1.355 . S
C2847 C2849 1.419 . S
C2848 C2846 1.415 . S
C2848 C2853 1.425 . S
C2848 C2855 1.409 . S
C2849 H2841 0.930 . S
C2849 C2847 1.419 . S
C2849 C2850 1.362 . S
C2850 H2842 0.930 . S
C2850 C2849 1.362 . S
C2850 C2853 1.409 . S
C2851 H2843 0.930 . S
C2851 C2852 1.355 . S
C2851 C2853 1.415 . S
C2852 C2851 1.355 . S
C2852 C2854 1.419 . S
C2853 C2848 1.425 . S
C2853 C2850 1.409 . S
C2853 C2851 1.415 . S
C2854 H2844 0.930 . S
C2854 C2852 1.419 . S
C2854 C2855 1.362 . S
C2855 H2845 0.930 . S
C2855 C2848 1.409 . S
C2855 C2854 1.362 . S
H2856 C2862 0.930 . S
H2857 C2865 0.930 . S
H2858 C2866 0.930 . S
H2859 C2867 0.930 . S
H2860 C2870 0.930 . S
H2861 C2871 0.930 . S
C2862 H2856 0.930 . S
C2862 C2863 1.355 . S
C2862 C2864 1.415 . S
C2863 C2862 1.355 . S
C2863 C2865 1.419 . S
C2864 C2862 1.415 . S
C2864 C2869 1.425 . S
C2864 C2871 1.409 . S
C2865 H2857 0.930 . S
C2865 C2863 1.419 . S
C2865 C2866 1.362 . S
C2866 H2858 0.930 . S
C2866 C2865 1.362 . S
C2866 C2869 1.409 . S
C2867 H2859 0.930 . S
C2867 C2868 1.355 . S
C2867 C2869 1.415 . S
C2868 C2867 1.355 . S
C2868 C2870 1.419 . S
C2869 C2864 1.425 . S
C2869 C2866 1.409 . S
C2869 C2867 1.415 . S
C2870 H2860 0.930 . S
C2870 C2868 1.419 . S
C2870 C2871 1.362 . S
C2871 H2861 0.930 . S
C2871 C2864 1.409 . S
C2871 C2870 1.362 . S
H2872 C2878 0.930 . S
H2873 C2881 0.930 . S
H2874 C2882 0.930 . S
H2875 C2883 0.930 . S
H2876 C2886 0.930 . S
H2877 C2887 0.930 . S
C2878 H2872 0.930 . S
C2878 C2879 1.355 . S
C2878 C2880 1.415 . S
C2879 C2878 1.355 . S
C2879 C2881 1.419 . S
C2880 C2878 1.415 . S
C2880 C2885 1.425 . S
C2880 C2887 1.409 . S
C2881 H2873 0.930 . S
C2881 C2879 1.419 . S
C2881 C2882 1.362 . S
C2882 H2874 0.930 . S
C2882 C2881 1.362 . S
C2882 C2885 1.409 . S
C2883 H2875 0.930 . S
C2883 C2884 1.355 . S
C2883 C2885 1.415 . S
C2884 C2883 1.355 . S
C2884 C2886 1.419 . S
C2885 C2880 1.425 . S
C2885 C2882 1.409 . S
C2885 C2883 1.415 . S
C2886 H2876 0.930 . S
C2886 C2884 1.419 . S
C2886 C2887 1.362 . S
C2887 H2877 0.930 . S
C2887 C2880 1.409 . S
C2887 C2886 1.362 . S
H2888 C2894 0.930 . S
H2889 C2897 0.930 . S
H2890 C2898 0.930 . S
H2891 C2899 0.930 . S
H2892 C2902 0.930 . S
H2893 C2903 0.930 . S
C2894 H2888 0.930 . S
C2894 C2895 1.355 . S
C2894 C2896 1.415 . S
C2895 C2894 1.355 . S
C2895 C2897 1.419 . S
C2896 C2894 1.415 . S
C2896 C2901 1.425 . S
C2896 C2903 1.409 . S
C2897 H2889 0.930 . S
C2897 C2895 1.419 . S
C2897 C2898 1.362 . S
C2898 H2890 0.930 . S
C2898 C2897 1.362 . S
C2898 C2901 1.409 . S
C2899 H2891 0.930 . S
C2899 C2900 1.355 . S
C2899 C2901 1.415 . S
C2900 C2899 1.355 . S
C2900 C2902 1.419 . S
C2901 C2896 1.425 . S
C2901 C2898 1.409 . S
C2901 C2899 1.415 . S
C2902 H2892 0.930 . S
C2902 C2900 1.419 . S
C2902 C2903 1.362 . S
C2903 H2893 0.930 . S
C2903 C2896 1.409 . S
C2903 C2902 1.362 . S
H2904 C2910 0.930 . S
H2905 C2913 0.930 . S
H2906 C2914 0.930 . S
H2907 C2915 0.930 . S
H2908 C2918 0.930 . S
H2909 C2919 0.930 . S
C2910 H2904 0.930 . S
C2910 C2911 1.355 . S
C2910 C2912 1.415 . S
C2911 C2910 1.355 . S
C2911 C2913 1.419 . S
C2912 C2910 1.415 . S
C2912 C2917 1.425 . S
C2912 C2919 1.409 . S
C2913 H2905 0.930 . S
C2913 C2911 1.419 . S
C2913 C2914 1.362 . S
C2914 H2906 0.930 . S
C2914 C2913 1.362 . S
C2914 C2917 1.409 . S
C2915 H2907 0.930 . S
C2915 C2916 1.355 . S
C2915 C2917 1.415 . S
C2916 C2915 1.355 . S
C2916 C2918 1.419 . S
C2917 C2912 1.425 . S
C2917 C2914 1.409 . S
C2917 C2915 1.415 . S
C2918 H2908 0.930 . S
C2918 C2916 1.419 . S
C2918 C2919 1.362 . S
C2919 H2909 0.930 . S
C2919 C2912 1.409 . S
C2919 C2918 1.362 . S
H2920 C2926 0.930 . S
H2921 C2929 0.930 . S
H2922 C2930 0.930 . S
H2923 C2931 0.930 . S
H2924 C2934 0.930 . S
H2925 C2935 0.930 . S
C2926 H2920 0.930 . S
C2926 C2927 1.355 . S
C2926 C2928 1.415 . S
C2927 C2926 1.355 . S
C2927 C2929 1.419 . S
C2928 C2926 1.415 . S
C2928 C2933 1.425 . S
C2928 C2935 1.409 . S
C2929 H2921 0.930 . S
C2929 C2927 1.419 . S
C2929 C2930 1.362 . S
C2930 H2922 0.930 . S
C2930 C2929 1.362 . S
C2930 C2933 1.409 . S
C2931 H2923 0.930 . S
C2931 C2932 1.355 . S
C2931 C2933 1.415 . S
C2932 C2931 1.355 . S
C2932 C2934 1.419 . S
C2933 C2928 1.425 . S
C2933 C2930 1.409 . S
C2933 C2931 1.415 . S
C2934 H2924 0.930 . S
C2934 C2932 1.419 . S
C2934 C2935 1.362 . S
C2935 H2925 0.930 . S
C2935 C2928 1.409 . S
C2935 C2934 1.362 . S
H2936 C2942 0.930 . S
H2937 C2945 0.930 . S
H2938 C2946 0.930 . S
H2939 C2947 0.930 . S
H2940 C2950 0.930 . S
H2941 C2951 0.930 . S
C2942 H2936 0.930 . S
C2942 C2943 1.355 . S
C2942 C2944 1.415 . S
C2943 C2942 1.355 . S
C2943 C2945 1.419 . S
C2944 C2942 1.415 . S
C2944 C2949 1.425 . S
C2944 C2951 1.409 . S
C2945 H2937 0.930 . S
C2945 C2943 1.419 . S
C2945 C2946 1.362 . S
C2946 H2938 0.930 . S
C2946 C2945 1.362 . S
C2946 C2949 1.409 . S
C2947 H2939 0.930 . S
C2947 C2948 1.355 . S
C2947 C2949 1.415 . S
C2948 C2947 1.355 . S
C2948 C2950 1.419 . S
C2949 C2944 1.425 . S
C2949 C2946 1.409 . S
C2949 C2947 1.415 . S
C2950 H2940 0.930 . S
C2950 C2948 1.419 . S
C2950 C2951 1.362 . S
C2951 H2941 0.930 . S
C2951 C2944 1.409 . S
C2951 C2950 1.362 . S
H2952 C2958 0.930 . S
H2953 C2961 0.930 . S
H2954 C2962 0.930 . S
H2955 C2963 0.930 . S
H2956 C2966 0.930 . S
H2957 C2967 0.930 . S
C2958 H2952 0.930 . S
C2958 C2959 1.355 . S
C2958 C2960 1.415 . S
C2959 C2958 1.355 . S
C2959 C2961 1.419 . S
C2960 C2958 1.415 . S
C2960 C2965 1.425 . S
C2960 C2967 1.409 . S
C2961 H2953 0.930 . S
C2961 C2959 1.419 . S
C2961 C2962 1.362 . S
C2962 H2954 0.930 . S
C2962 C2961 1.362 . S
C2962 C2965 1.409 . S
C2963 H2955 0.930 . S
C2963 C2964 1.355 . S
C2963 C2965 1.415 . S
C2964 C2963 1.355 . S
C2964 C2966 1.419 . S
C2965 C2960 1.425 . S
C2965 C2962 1.409 . S
C2965 C2963 1.415 . S
C2966 H2956 0.930 . S
C2966 C2964 1.419 . S
C2966 C2967 1.362 . S
C2967 H2957 0.930 . S
C2967 C2960 1.409 . S
C2967 C2966 1.362 . S
H2968 C2974 0.930 . S
H2969 C2977 0.930 . S
H2970 C2978 0.930 . S
H2971 C2979 0.930 . S
H2972 C2982 0.930 . S
H2973 C2983 0.930 . S
C2974 H2968 0.930 . S
C2974 C2975 1.355 . S
C2974 C2976 1.415 . S
C2975 C2974 1.355 . S
C2975 C2977 1.419 . S
C2976 C2974 1.415 . S
C2976 C2981 1.425 . S
C2976 C2983 1.409 1_655 S
C2977 H2969 0.930 . S
C2977 C2975 1.419 . S
C2977 C2978 1.362 . S
C2978 H2970 0.930 . S
C2978 C2977 1.362 . S
C2978 C2981 1.409 . S
C2979 H2971 0.930 . S
C2979 C2980 1.355 1_655 S
C2979 C2981 1.415 . S
C2980 C2979 1.355 1_455 S
C2980 C2982 1.419 . S
C2981 C2976 1.425 . S
C2981 C2978 1.409 . S
C2981 C2979 1.415 . S
C2982 H2972 0.930 . S
C2982 C2980 1.419 . S
C2982 C2983 1.362 . S
C2983 H2973 0.930 . S
C2983 C2976 1.409 1_455 S
C2983 C2982 1.362 . S
H2984 C2990 0.930 . S
H2985 C2993 0.930 . S
H2986 C2994 0.930 . S
H2987 C2995 0.930 . S
H2988 C2998 0.930 . S
H2989 C2999 0.930 . S
C2990 H2984 0.930 . S
C2990 C2991 1.355 . S
C2990 C2992 1.415 . S
C2991 C2990 1.355 . S
C2991 C2993 1.419 . S
C2992 C2990 1.415 . S
C2992 C2997 1.425 . S
C2992 C2999 1.409 . S
C2993 H2985 0.930 . S
C2993 C2991 1.419 . S
C2993 C2994 1.362 . S
C2994 H2986 0.930 . S
C2994 C2993 1.362 . S
C2994 C2997 1.409 . S
C2995 H2987 0.930 . S
C2995 C2996 1.355 . S
C2995 C2997 1.415 . S
C2996 C2995 1.355 . S
C2996 C2998 1.419 . S
C2997 C2992 1.425 . S
C2997 C2994 1.409 . S
C2997 C2995 1.415 . S
C2998 H2988 0.930 . S
C2998 C2996 1.419 . S
C2998 C2999 1.362 . S
C2999 H2989 0.930 . S
C2999 C2992 1.409 . S
C2999 C2998 1.362 . S
H3000 C3006 0.930 . S
H3001 C3009 0.930 . S
H3002 C3010 0.930 . S
H3003 C3011 0.930 . S
H3004 C3014 0.930 . S
H3005 C3015 0.930 . S
C3006 H3000 0.930 . S
C3006 C3007 1.355 . S
C3006 C3008 1.415 . S
C3007 C3006 1.355 . S
C3007 C3009 1.419 . S
C3008 C3006 1.415 . S
C3008 C3013 1.425 . S
C3008 C3015 1.409 . S
C3009 H3001 0.930 . S
C3009 C3007 1.419 . S
C3009 C3010 1.362 . S
C3010 H3002 0.930 . S
C3010 C3009 1.362 . S
C3010 C3013 1.409 . S
C3011 H3003 0.930 . S
C3011 C3012 1.355 . S
C3011 C3013 1.415 . S
C3012 C3011 1.355 . S
C3012 C3014 1.419 . S
C3013 C3008 1.425 . S
C3013 C3010 1.409 . S
C3013 C3011 1.415 . S
C3014 H3004 0.930 . S
C3014 C3012 1.419 . S
C3014 C3015 1.362 . S
C3015 H3005 0.930 . S
C3015 C3008 1.409 . S
C3015 C3014 1.362 . S
H3016 C3022 0.930 . S
H3017 C3025 0.930 . S
H3018 C3026 0.930 . S
H3019 C3027 0.930 . S
H3020 C3030 0.930 . S
H3021 C3031 0.930 . S
C3022 H3016 0.930 . S
C3022 C3023 1.355 . S
C3022 C3024 1.415 . S
C3023 C3022 1.355 . S
C3023 C3025 1.419 . S
C3024 C3022 1.415 . S
C3024 C3029 1.425 . S
C3024 C3031 1.409 . S
C3025 H3017 0.930 . S
C3025 C3023 1.419 . S
C3025 C3026 1.362 . S
C3026 H3018 0.930 . S
C3026 C3025 1.362 . S
C3026 C3029 1.409 . S
C3027 H3019 0.930 . S
C3027 C3028 1.355 . S
C3027 C3029 1.415 . S
C3028 C3027 1.355 . S
C3028 C3030 1.419 . S
C3029 C3024 1.425 . S
C3029 C3026 1.409 . S
C3029 C3027 1.415 . S
C3030 H3020 0.930 . S
C3030 C3028 1.419 . S
C3030 C3031 1.362 . S
C3031 H3021 0.930 . S
C3031 C3024 1.409 . S
C3031 C3030 1.362 . S
H3032 C3038 0.930 . S
H3033 C3041 0.930 . S
H3034 C3042 0.930 . S
H3035 C3043 0.930 . S
H3036 C3046 0.930 . S
H3037 C3047 0.930 . S
C3038 H3032 0.930 . S
C3038 C3039 1.355 . S
C3038 C3040 1.415 . S
C3039 C3038 1.355 . S
C3039 C3041 1.419 . S
C3040 C3038 1.415 . S
C3040 C3045 1.425 . S
C3040 C3047 1.409 . S
C3041 H3033 0.930 . S
C3041 C3039 1.419 . S
C3041 C3042 1.362 . S
C3042 H3034 0.930 . S
C3042 C3041 1.362 . S
C3042 C3045 1.409 . S
C3043 H3035 0.930 . S
C3043 C3044 1.355 . S
C3043 C3045 1.415 . S
C3044 C3043 1.355 . S
C3044 C3046 1.419 . S
C3045 C3040 1.425 . S
C3045 C3042 1.409 . S
C3045 C3043 1.415 . S
C3046 H3036 0.930 . S
C3046 C3044 1.419 . S
C3046 C3047 1.362 . S
C3047 H3037 0.930 . S
C3047 C3040 1.409 . S
C3047 C3046 1.362 . S
H3048 C3054 0.930 . S
H3049 C3057 0.930 . S
H3050 C3058 0.930 . S
H3051 C3059 0.930 . S
H3052 C3062 0.930 . S
H3053 C3063 0.930 . S
C3054 H3048 0.930 . S
C3054 C3055 1.355 . S
C3054 C3056 1.415 . S
C3055 C3054 1.355 . S
C3055 C3057 1.419 . S
C3056 C3054 1.415 . S
C3056 C3061 1.425 . S
C3056 C3063 1.409 . S
C3057 H3049 0.930 . S
C3057 C3055 1.419 . S
C3057 C3058 1.362 . S
C3058 H3050 0.930 . S
C3058 C3057 1.362 . S
C3058 C3061 1.409 . S
C3059 H3051 0.930 . S
C3059 C3060 1.355 . S
C3059 C3061 1.415 . S
C3060 C3059 1.355 . S
C3060 C3062 1.419 . S
C3061 C3056 1.425 . S
C3061 C3058 1.409 . S
C3061 C3059 1.415 . S
C3062 H3052 0.930 . S
C3062 C3060 1.419 . S
C3062 C3063 1.362 . S
C3063 H3053 0.930 . S
C3063 C3056 1.409 . S
C3063 C3062 1.362 . S
H3064 C3070 0.930 . S
H3065 C3073 0.930 . S
H3066 C3074 0.930 . S
H3067 C3075 0.930 . S
H3068 C3078 0.930 . S
H3069 C3079 0.930 . S
C3070 H3064 0.930 . S
C3070 C3071 1.355 . S
C3070 C3072 1.415 . S
C3071 C3070 1.355 . S
C3071 C3073 1.419 . S
C3072 C3070 1.415 . S
C3072 C3077 1.425 . S
C3072 C3079 1.409 . S
C3073 H3065 0.930 . S
C3073 C3071 1.419 . S
C3073 C3074 1.362 . S
C3074 H3066 0.930 . S
C3074 C3073 1.362 . S
C3074 C3077 1.409 . S
C3075 H3067 0.930 . S
C3075 C3076 1.355 . S
C3075 C3077 1.415 . S
C3076 C3075 1.355 . S
C3076 C3078 1.419 . S
C3077 C3072 1.425 . S
C3077 C3074 1.409 . S
C3077 C3075 1.415 . S
C3078 H3068 0.930 . S
C3078 C3076 1.419 . S
C3078 C3079 1.362 . S
C3079 H3069 0.930 . S
C3079 C3072 1.409 . S
C3079 C3078 1.362 . S
H3080 C3086 0.930 . S
H3081 C3089 0.930 . S
H3082 C3090 0.930 . S
H3083 C3091 0.930 . S
H3084 C3094 0.930 1_545 S
H3085 C3095 0.930 . S
C3086 H3080 0.930 . S
C3086 C3087 1.355 . S
C3086 C3088 1.415 . S
C3087 C3086 1.355 . S
C3087 C3089 1.419 . S
C3088 C3086 1.415 . S
C3088 C3093 1.425 . S
C3088 C3095 1.409 . S
C3089 H3081 0.930 . S
C3089 C3087 1.419 . S
C3089 C3090 1.362 . S
C3090 H3082 0.930 . S
C3090 C3089 1.362 . S
C3090 C3093 1.409 . S
C3091 H3083 0.930 . S
C3091 C3092 1.355 . S
C3091 C3093 1.415 . S
C3092 C3091 1.355 . S
C3092 C3094 1.419 . S
C3093 C3088 1.425 . S
C3093 C3090 1.409 . S
C3093 C3091 1.415 . S
C3094 H3084 0.930 1_565 S
C3094 C3092 1.419 . S
C3094 C3095 1.362 . S
C3095 H3085 0.930 . S
C3095 C3088 1.409 . S
C3095 C3094 1.362 . S
H3096 C3102 0.930 . S
H3097 C3105 0.930 . S
H3098 C3106 0.930 . S
H3099 C3107 0.930 . S
H3100 C3110 0.930 . S
H3101 C3111 0.930 . S
C3102 H3096 0.930 . S
C3102 C3103 1.355 . S
C3102 C3104 1.415 . S
C3103 C3102 1.355 . S
C3103 C3105 1.419 . S
C3104 C3102 1.415 . S
C3104 C3109 1.425 . S
C3104 C3111 1.409 . S
C3105 H3097 0.930 . S
C3105 C3103 1.419 . S
C3105 C3106 1.362 . S
C3106 H3098 0.930 . S
C3106 C3105 1.362 . S
C3106 C3109 1.409 . S
C3107 H3099 0.930 . S
C3107 C3108 1.355 . S
C3107 C3109 1.415 . S
C3108 C3107 1.355 . S
C3108 C3110 1.419 . S
C3109 C3104 1.425 . S
C3109 C3106 1.409 . S
C3109 C3107 1.415 . S
C3110 H3100 0.930 . S
C3110 C3108 1.419 . S
C3110 C3111 1.362 . S
C3111 H3101 0.930 . S
C3111 C3104 1.409 . S
C3111 C3110 1.362 . S
H3112 C3118 0.930 . S
H3113 C3121 0.930 . S
H3114 C3122 0.930 . S
H3115 C3123 0.930 . S
H3116 C3126 0.930 . S
H3117 C3127 0.930 . S
C3118 H3112 0.930 . S
C3118 C3119 1.355 . S
C3118 C3120 1.415 . S
C3119 C3118 1.355 . S
C3119 C3121 1.419 . S
C3120 C3118 1.415 . S
C3120 C3125 1.425 . S
C3120 C3127 1.409 1_554 S
C3121 H3113 0.930 . S
C3121 C3119 1.419 . S
C3121 C3122 1.362 . S
C3122 H3114 0.930 . S
C3122 C3121 1.362 . S
C3122 C3125 1.409 . S
C3123 H3115 0.930 . S
C3123 C3124 1.355 . S
C3123 C3125 1.415 . S
C3124 C3123 1.355 . S
C3124 C3126 1.419 1_554 S
C3125 C3120 1.425 . S
C3125 C3122 1.409 . S
C3125 C3123 1.415 . S
C3126 H3116 0.930 . S
C3126 C3124 1.419 1_556 S
C3126 C3127 1.362 . S
C3127 H3117 0.930 . S
C3127 C3120 1.409 1_556 S
C3127 C3126 1.362 . S
H3128 C3134 0.930 . S
H3129 C3137 0.930 . S
H3130 C3138 0.930 . S
H3131 C3139 0.930 . S
H3132 C3142 0.930 . S
H3133 C3143 0.930 . S
C3134 H3128 0.930 . S
C3134 C3135 1.355 . S
C3134 C3136 1.415 . S
C3135 C3134 1.355 . S
C3135 C3137 1.419 . S
C3136 C3134 1.415 . S
C3136 C3141 1.425 . S
C3136 C3143 1.409 . S
C3137 H3129 0.930 . S
C3137 C3135 1.419 . S
C3137 C3138 1.362 . S
C3138 H3130 0.930 . S
C3138 C3137 1.362 . S
C3138 C3141 1.409 . S
C3139 H3131 0.930 . S
C3139 C3140 1.355 . S
C3139 C3141 1.415 . S
C3140 C3139 1.355 . S
C3140 C3142 1.419 . S
C3141 C3136 1.425 . S
C3141 C3138 1.409 . S
C3141 C3139 1.415 . S
C3142 H3132 0.930 . S
C3142 C3140 1.419 . S
C3142 C3143 1.362 . S
C3143 H3133 0.930 . S
C3143 C3136 1.409 . S
C3143 C3142 1.362 . S
H3144 C3150 0.930 . S
H3145 C3153 0.930 . S
H3146 C3154 0.930 . S
H3147 C3155 0.930 . S
H3148 C3158 0.930 . S
H3149 C3159 0.930 . S
C3150 H3144 0.930 . S
C3150 C3151 1.355 . S
C3150 C3152 1.415 . S
C3151 C3150 1.355 . S
C3151 C3153 1.419 . S
C3152 C3150 1.415 . S
C3152 C3157 1.425 . S
C3152 C3159 1.409 1_554 S
C3153 H3145 0.930 . S
C3153 C3151 1.419 . S
C3153 C3154 1.362 . S
C3154 H3146 0.930 . S
C3154 C3153 1.362 . S
C3154 C3157 1.409 . S
C3155 H3147 0.930 . S
C3155 C3156 1.355 . S
C3155 C3157 1.415 . S
C3156 C3155 1.355 . S
C3156 C3158 1.419 1_554 S
C3157 C3152 1.425 . S
C3157 C3154 1.409 . S
C3157 C3155 1.415 . S
C3158 H3148 0.930 . S
C3158 C3156 1.419 1_556 S
C3158 C3159 1.362 . S
C3159 H3149 0.930 . S
C3159 C3152 1.409 1_556 S
C3159 C3158 1.362 . S
H3160 C3166 0.930 . S
H3161 C3169 0.930 . S
H3162 C3170 0.930 . S
H3163 C3171 0.930 . S
H3164 C3174 0.930 . S
H3165 C3175 0.930 . S
C3166 H3160 0.930 . S
C3166 C3167 1.355 . S
C3166 C3168 1.415 . S
C3167 C3166 1.355 . S
C3167 C3169 1.419 . S
C3168 C3166 1.415 . S
C3168 C3173 1.425 . S
C3168 C3175 1.409 . S
C3169 H3161 0.930 . S
C3169 C3167 1.419 . S
C3169 C3170 1.362 . S
C3170 H3162 0.930 . S
C3170 C3169 1.362 . S
C3170 C3173 1.409 . S
C3171 H3163 0.930 . S
C3171 C3172 1.355 . S
C3171 C3173 1.415 . S
C3172 C3171 1.355 . S
C3172 C3174 1.419 . S
C3173 C3168 1.425 . S
C3173 C3170 1.409 . S
C3173 C3171 1.415 . S
C3174 H3164 0.930 . S
C3174 C3172 1.419 . S
C3174 C3175 1.362 . S
C3175 H3165 0.930 . S
C3175 C3168 1.409 . S
C3175 C3174 1.362 . S
H3176 C3182 0.930 . S
H3177 C3185 0.930 . S
H3178 C3186 0.930 . S
H3179 C3187 0.930 . S
H3180 C3190 0.930 . S
H3181 C3191 0.930 . S
C3182 H3176 0.930 . S
C3182 C3183 1.355 . S
C3182 C3184 1.415 . S
C3183 C3182 1.355 . S
C3183 C3185 1.419 . S
C3184 C3182 1.415 . S
C3184 C3189 1.425 . S
C3184 C3191 1.409 . S
C3185 H3177 0.930 . S
C3185 C3183 1.419 . S
C3185 C3186 1.362 . S
C3186 H3178 0.930 . S
C3186 C3185 1.362 . S
C3186 C3189 1.409 . S
C3187 H3179 0.930 . S
C3187 C3188 1.355 . S
C3187 C3189 1.415 . S
C3188 C3187 1.355 . S
C3188 C3190 1.419 . S
C3189 C3184 1.425 . S
C3189 C3186 1.409 . S
C3189 C3187 1.415 . S
C3190 H3180 0.930 . S
C3190 C3188 1.419 . S
C3190 C3191 1.362 . S
C3191 H3181 0.930 . S
C3191 C3184 1.409 . S
C3191 C3190 1.362 . S
C1663 C101 1.822 . S
C1668 C368 1.621 . S
C1679 C57 2.206 . S
C1684 C459 2.161 . S
C1695 C70 1.464 . S
C1700 C536 1.394 . S
C1716 C634 1.399 . S
C1711 C82 1.482 . S
C1727 C23 1.630 . S
C1732 C718 1.633 . S
C1748 C790 0.859 . S
C1743 C29 0.975 . S
C1764 C879 1.018 . S
C1759 C49 0.980 . S
C1775 C10 1.694 . S
C1780 C956 1.439 . S
C1796 C375 1.972 . S
C1791 C218 2.093 . S
C1807 C226 0.814 . S
C1812 C466 0.771 . S
C1828 C543 1.225 . S
C1823 C251 1.314 . S
C1844 C620 1.454 . S
C1839 C159 1.580 . S
C1855 C211 2.136 . S
C1860 C704 1.904 . S
C1876 C806 1.196 . S
C1871 C225 1.318 . S
C1892 C886 0.817 . S
C1887 C252 0.886 . S
C1908 C963 1.573 . S
C1903 C166 1.742 . S
C1924 C382 1.471 . S
C1919 C147 1.466 . S
C1935 C263 1.889 . S
C1940 C1047 1.798 1_556 S
C1956 C1135 2.193 . S
C1951 C309 2.424 . S
C1972 C1208 0.673 1_655 S
C1967 C291 0.486 . S
C1983 C108 1.294 . S
C1988 C970 1.408 . S
C1999 C121 1.551 . S
C2004 C550 1.508 . S
C2015 C302 2.155 . S
C2020 C1299 2.067 . S
C2036 C1376 0.830 . S
C2031 C276 0.811 . S
C2052 C379 1.871 . S
C2047 C55 1.981 . S
C2068 C1394 2.343 . S
C2063 C96 2.370 . S
C2079 C88 1.783 . S
C2084 C547 1.683 . S
C2095 C75 1.706 . S
C2100 C1294 1.531 . S
C2116 C706 1.605 . S
C2111 C4 1.637 . S
C2127 C44 1.158 . S
C2132 C1138 1.119 . S
C2148 C890 1.373 . S
C2143 C31 1.270 . S
C2164 C1471 1.596 . S
C2159 C18 1.736 . S
C2180 C386 2.224 . S
C2175 C133 2.313 . S
C2196 C1378 0.924 . S
C2191 C296 0.895 . S
C2207 C107 1.421 . S
C2212 C554 1.331 . S
C2223 C264 1.858 . S
C2228 C1303 1.798 . S
C2239 C140 2.280 . S
C2244 C715 2.108 . S
C2260 C1131 1.293 . S
C2255 C289 1.365 . S
C2271 C114 1.000 . S
C2276 C874 0.846 . S
C2287 C265 1.901 . S
C2292 C1478 1.735 . S
C2303 C179 1.550 . S
C2308 C370 1.478 . S
C2319 C161 2.082 . S
C2324 C1058 2.037 . S
C2335 C244 2.621 . S
C2340 C788 2.472 . S
C2351 C224 0.890 . S
C2356 C1219 0.939 . S
C2372 C1462 1.019 . S
C2367 C257 1.101 1_565 S
C2383 C199 1.584 . S
C2388 C538 1.498 . S
C2404 C638 2.298 . S
C2399 C237 2.377 . S
C2420 C463 0.911 . S
C2415 C185 0.986 . S
C2431 C69 1.828 . S
C2436 C1544 1.647 . S
C2452 C1383 2.144 . S
C2447 C83 2.208 . S
C2463 C94 1.474 . S
C2468 C1628 1.382 . S
C2479 C56 1.507 . S
C2484 C1306 1.355 . S
C2495 C42 1.634 . S
C2500 C1054 1.652 . S
C2516 C1126 0.859 . S
C2511 C3 0.974 . S
C2532 C1215 1.009 . S
C2527 C16 1.009 . S
C2548 C1460 1.449 . S
C2543 C36 1.700 . S
C2564 C1551 2.015 . S
C2559 C238 2.087 . S
C2575 C174 0.780 . S
C2580 C1390 0.865 . S
C2596 C1635 1.305 . S
C2591 C186 1.316 . S
C2612 C1292 1.504 . S
C2607 C198 1.580 . S
C2628 C1040 1.889 . S
C2623 C239 2.127 . S
C2639 C173 1.290 . S
C2644 C1142 1.138 . S
C2660 C1222 0.870 . S
C2655 C187 0.870 . S
C2671 C205 1.712 . S
C2676 C1467 1.520 . S
C2692 C1558 1.467 . S
C2687 C290 1.464 . S
C2703 C122 1.857 . S
C2708 C711 1.825 . S
C2724 C799 2.236 . S
C2719 C134 2.430 . S
C2740 C872 0.493 . S
C2735 C148 0.400 . S
C2756 C1474 1.391 . S
C2751 C283 1.348 . S
C2767 C270 1.534 . S
C2772 C1642 1.539 . S
C2788 C627 2.071 . S
C2783 C135 2.136 . S
C2804 C452 0.805 . S
C2799 C109 0.737 . S
C2815 C81 2.007 . S
C2820 C1555 1.920 . S
C2836 C470 2.326 . S
C2831 C68 2.377 . S
C2847 C62 1.778 . S
C2852 C1639 1.697 . S
C2863 C95 1.682 . S
C2868 C622 1.602 . S
C2879 C30 1.614 . S
C2884 C1042 1.629 . S
C2900 C802 1.127 . S
C2895 C17 1.158 . S
C2911 C5 1.298 . S
C2916 C1226 1.362 . S
C2927 C43 1.716 . S
C2932 C967 1.603 . S
C2948 C1562 2.200 . S
C2943 C304 2.311 . S
C2959 C153 0.928 . S
C2964 C454 0.823 . S
C2980 C1646 1.382 . S
C2975 C278 1.427 . S
C2991 C127 1.850 . S
C2996 C631 1.765 . S
C3007 C303 2.273 . S
C3012 C1051 2.104 . S
C3028 C795 1.335 . S
C3023 C146 1.390 . S
C3039 C277 0.986 . S
C3044 C1210 0.851 . S
C3060 C974 1.781 . S
C3055 C120 1.913 . S
C3076 C1546 1.431 . S
C3071 C231 1.545 . S
C3092 C722 1.994 1_665 S
C3087 C200 2.095 . S
C3103 C212 2.631 . S
C3108 C1124 2.480 . S
C3124 C883 0.916 . S
C3119 C172 0.883 . S
C3135 C192 1.085 . S
C3140 C958 1.027 . S
C3151 C160 1.593 . S
C3156 C1630 1.482 . S
C3172 C1310 2.306 . S
C3167 C213 2.379 1_565 S
C3188 C1387 1.012 . S
C3183 C250 0.987 . S
