# Generated by pormake.
# Topology scu, (8,4)-cn, num edge types: 1
# Building blocks:
#     Node 0, Type 0, BuildingBlock: GIZVER_clean_sbu_0, # of connection points: 8
#     Node 1, Type 1, BuildingBlock: ESEHIV_clean_sbu_0, # of connection points: 4
#     Node 2, Type 1, BuildingBlock: ESEHIV_clean_sbu_0, # of connection points: 4
#     Edge 3, Type (0, 1), BuildingBlock: UVAHIK_clean_linker_0, # of connection points: 2
#     Edge 4, Type (0, 1), BuildingBlock: UVAHIK_clean_linker_0, # of connection points: 2
#     Edge 5, Type (0, 1), BuildingBlock: UVAHIK_clean_linker_0, # of connection points: 2
#     Edge 6, Type (0, 1), BuildingBlock: UVAHIK_clean_linker_0, # of connection points: 2
#     Edge 7, Type (0, 1), BuildingBlock: UVAHIK_clean_linker_0, # of connection points: 2
#     Edge 8, Type (0, 1), BuildingBlock: UVAHIK_clean_linker_0, # of connection points: 2
#     Edge 9, Type (0, 1), BuildingBlock: UVAHIK_clean_linker_0, # of connection points: 2
#     Edge 10, Type (0, 1), BuildingBlock: UVAHIK_clean_linker_0, # of connection points: 2
# Relax obj value: 0.032
# Max RMSD: 0.137
# Mean RMSD: 0.117
data_MOF--net-scu--node1-GIZVER_clean_sbu_0--node2-ESEHIV_clean_sbu_0--edge1-UVAHIK_clean_linker_0
_symmetry_space_group_name_H-M    P1
_symmetry_Int_Tables_number       1
_symmetry_cell_setting            triclinic
loop_
_symmetry_equiv_pos_as_xyz
'x, y, z'
_cell_length_a     31.43306
_cell_length_b     32.070759
_cell_length_c     27.978219
_cell_angle_alpha  100.61904
_cell_angle_beta   86.360556
_cell_angle_gamma 112.82976
loop_
_atom_site_label
_atom_site_type_symbol
_atom_site_fract_x
_atom_site_fract_y
_atom_site_fract_z
_atom_type_partial_charge
Co0 Co 0.02642 0.99277 0.13643 0.0
Co1 Co 0.08937 0.06578 0.11349 0.0
Co2 Co 1.00126 0.03868 0.04391 0.0
O3 O 0.04199 1.01758 0.07735 0.0
H4 H 0.05513 0.99974 0.05407 0.0
O5 O 0.96231 0.06129 1.00999 0.0
Co6 Co 0.98294 0.08274 0.94924 0.0
Co7 Co 0.91314 1.0159 0.975 0.0
H8 H 0.95139 0.08188 0.03206 0.0
O9 O 0.14459 0.06113 0.12216 0.0
O10 O 0.08207 0.04285 0.17063 0.0
O11 O 0.08478 0.12467 0.12807 0.0
O12 O 0.0188 0.10086 0.0872 0.0
O13 O 0.05364 0.06201 0.99875 0.0
O14 O 1.00034 0.10599 0.89543 0.0
O15 O 0.96097 0.12867 0.95784 0.0
O16 O 0.01082 0.03933 0.93221 0.0
O17 O 0.98211 0.97597 1.00039 0.0
O18 O 0.91446 0.95579 0.96295 0.0
O19 O 0.92427 0.03827 0.91682 0.0
O20 O 0.8614 0.02696 0.96413 0.0
C21 C 0.04047 0.94571 0.16728 0.0
C22 C 0.95193 1.02011 0.1351 0.0
C23 C 0.04998 0.13121 0.11608 0.0
C24 C 0.12528 0.04865 0.16244 0.0
C25 C 0.98057 0.13367 0.91543 0.0
C26 C 0.04812 0.04591 0.95336 0.0
C27 C 0.94857 0.94692 0.97292 0.0
C28 C 0.88325 0.0392 0.92483 0.0
O29 O 0.0142 0.96627 0.18883 0.0
O30 O 0.05789 0.95475 0.1249 0.0
O31 O 0.94879 1.01448 0.08885 0.0
O32 O 0.98991 0.02818 0.15593 0.0
Cu33 Cu 0.04316 0.55124 0.53223 0.0
N34 N 0.06979 0.52561 0.57066 0.0
N35 N 0.07289 0.48199 0.62341 0.0
C36 C 0.04544 0.49419 0.59834 0.0
C37 C 0.11639 0.50704 0.61085 0.0
C38 C 0.11436 0.53389 0.57836 0.0
O39 O 1.00216 0.49947 0.4871 0.0
C40 C 0.04325 0.61802 0.60698 0.0
O41 O 0.08697 0.62369 0.60318 0.0
H42 H 1.00819 0.48123 0.60051 0.0
H43 H 0.14331 0.55792 0.56185 0.0
N44 N 0.08637 0.59149 0.49543 0.0
N45 N 0.11247 0.64432 0.4467 0.0
C46 C 0.08128 0.62708 0.48076 0.0
C47 C 0.12238 0.58624 0.47027 0.0
C48 C 0.13865 0.61883 0.44035 0.0
C49 C 0.99437 0.50246 0.44401 0.0
O50 O 1.00544 0.54325 0.43252 0.0
H51 H 0.05277 0.63749 0.49199 0.0
H52 H 0.1342 0.55894 0.4714 0.0
O53 O 0.01442 0.58633 0.57703 0.0
H54 H 0.14755 0.50581 0.62371 0.0
H55 H 0.16647 0.62221 0.4146 0.0
Cu56 Cu 0.49124 0.98865 0.54644 0.0
N57 N 0.44979 0.95898 0.59212 0.0
N58 N 0.395 0.9485 0.64903 0.0
C59 C 0.41474 0.97051 0.61168 0.0
C60 C 0.41872 0.92215 0.65322 0.0
C61 C 0.4528 0.9291 0.6185 0.0
O62 O 0.45881 1.01328 0.50923 0.0
C63 C 0.58546 0.04989 0.57156 0.0
O64 O 0.59455 0.04326 0.52501 0.0
H65 H 0.40505 0.99585 0.59972 0.0
H66 H 0.47965 0.91562 0.61509 0.0
N67 N 0.51168 0.94869 0.50263 0.0
N68 N 0.55442 0.92829 0.44304 0.0
C69 C 0.5361 0.95938 0.46215 0.0
C70 C 0.51321 0.90851 0.50826 0.0
C71 C 0.53974 0.89599 0.47174 0.0
C72 C 0.41996 0.98431 0.4915 0.0
O73 O 0.40607 0.94166 0.49858 0.0
H74 H 0.5436 0.99138 0.44943 0.0
H75 H 0.49846 0.89071 0.53817 0.0
O76 O 0.54379 0.03367 0.58565 0.0
H77 H 0.41371 0.90153 0.68125 0.0
H78 H 0.54943 0.86664 0.46808 0.0
C79 C 0.99841 0.17485 0.1387 0.0
C80 C 0.04222 0.17283 0.14059 0.0
C81 C 0.989 0.2111 0.16668 0.0
C82 C 0.0427 0.32941 0.23326 0.0
H83 H 0.93259 0.29662 0.31252 0.0
C84 C 0.97544 0.41812 0.41629 0.0
C85 C 0.98502 0.46179 0.4049 0.0
C86 C 0.97593 0.38184 0.38004 0.0
C87 C 0.96333 0.30627 0.29045 0.0
H88 H 0.111 0.20854 0.172 0.0
H89 H 0.09467 0.27222 0.22025 0.0
H90 H 0.94848 0.23668 0.25566 0.0
H91 H 0.99962 0.50062 0.34579 0.0
H92 H 1.00066 0.43739 0.28283 0.0
H93 H 0.05798 0.39885 0.26854 0.0
C94 C 0.06762 0.24555 0.19718 0.0
C95 C 0.97229 0.27206 0.2577 0.0
C96 C 0.07692 0.20899 0.16962 0.0
C97 C 0.9922 0.46752 0.35597 0.0
C98 C 0.99318 0.43141 0.31987 0.0
C99 C 0.03345 0.36366 0.26552 0.0
C100 C 0.02329 0.24649 0.19676 0.0
C101 C 0.01237 0.28321 0.2292 0.0
C102 C 0.9864 0.3886 0.33175 0.0
C103 C 0.99395 0.35242 0.29488 0.0
H104 H 0.97075 0.14757 0.11691 0.0
H105 H 0.95468 0.21119 0.16523 0.0
H106 H 0.07372 0.33904 0.21159 0.0
H107 H 0.96972 0.41249 0.45357 0.0
H108 H 0.97065 0.34924 0.39032 0.0
C109 C 0.87044 1.01612 0.14687 0.0
C110 C 0.91019 1.01441 0.16532 0.0
C111 C 0.8307 1.009 0.17533 0.0
C112 C 0.79052 1.00376 0.30385 0.0
H113 H 0.66962 0.93724 0.24348 0.0
C114 C 0.62765 0.9219 0.4133 0.0
C115 C 0.59039 0.93439 0.40722 0.0
C116 C 0.66512 0.93228 0.38171 0.0
C117 C 0.7032 0.95611 0.26068 0.0
H118 H 0.93915 1.00337 0.22795 0.0
H119 H 0.87 0.98937 0.27652 0.0
H120 H 0.73854 0.95529 0.19276 0.0
H121 H 0.56238 0.96598 0.36226 0.0
H122 H 0.62775 0.98317 0.30592 0.0
H123 H 0.75506 1.0028 0.37185 0.0
C124 C 0.86957 0.99773 0.24084 0.0
C125 C 0.74275 0.96675 0.23168 0.0
C126 C 0.90935 1.00551 0.21276 0.0
C127 C 0.5907 0.95607 0.36777 0.0
C128 C 0.62792 0.96574 0.33555 0.0
C129 C 0.75114 0.99242 0.33274 0.0
C130 C 0.82962 0.9994 0.22267 0.0
C131 C 0.78707 0.99031 0.25294 0.0
C132 C 0.66587 0.95474 0.34287 0.0
C133 C 0.70716 0.96814 0.31153 0.0
H134 H 0.87006 0.02311 0.1105 0.0
H135 H 0.80096 1.01128 0.16025 0.0
H136 H 0.82374 0.02305 0.32164 0.0
H137 H 0.62873 0.90574 0.44367 0.0
H138 H 0.69383 0.92318 0.38795 0.0
C139 C 0.07984 0.89095 0.17134 0.0
C140 C 0.05258 0.9151 0.19307 0.0
C141 C 0.09186 0.86341 0.19721 0.0
C142 C 0.10284 0.84665 0.32285 0.0
H143 H 0.08715 0.72238 0.26355 0.0
C144 C 0.09367 0.71065 0.43706 0.0
C145 C 0.11301 0.67814 0.41848 0.0
C146 C 0.0915 0.74154 0.40877 0.0
C147 C 0.09247 0.75723 0.28053 0.0
H148 H 0.01698 0.92934 0.25932 0.0
H149 H 0.03788 0.88187 0.30388 0.0
H150 H 0.07466 0.77261 0.2149 0.0
H151 H 0.14575 0.65336 0.3552 0.0
H152 H 0.1428 0.70772 0.30636 0.0
H153 H 0.12026 0.8314 0.38852 0.0
C154 C 0.05022 0.88422 0.26704 0.0
C155 C 0.08527 0.78603 0.25257 0.0
C156 C 0.03786 0.91118 0.24119 0.0
C157 C 0.13098 0.67805 0.37106 0.0
C158 C 0.12876 0.70895 0.34272 0.0
C159 C 0.11017 0.81798 0.35073 0.0
C160 C 0.07738 0.85999 0.24553 0.0
C161 C 0.08949 0.83079 0.27365 0.0
C162 C 0.10865 0.7409 0.36103 0.0
C163 C 0.10428 0.77257 0.33024 0.0
H164 H 0.09198 0.8934 0.13446 0.0
H165 H 0.11301 0.84532 0.17966 0.0
H166 H 0.10728 0.88126 0.33999 0.0
H167 H 0.0799 0.71213 0.47349 0.0
H168 H 0.07528 0.76523 0.42403 0.0
C169 C 0.2018 0.05794 0.19404 0.0
C170 C 0.15371 0.04375 0.19987 0.0
C171 C 0.2292 0.05399 0.22898 0.0
C172 C 0.22809 0.98775 0.32117 0.0
H173 H 0.33763 0.09244 0.37218 0.0
C174 C 0.3415 0.97355 0.46591 0.0
C175 C 0.38951 0.99726 0.46424 0.0
C176 C 0.31192 0.98209 0.4374 0.0
C177 C 0.30763 0.0626 0.35788 0.0
H178 H 0.09694 1.01464 0.24759 0.0
H179 H 0.14481 1.0057 0.30767 0.0
H180 H 0.28736 0.10079 0.31484 0.0
H181 H 0.44433 0.04915 0.4321 0.0
H182 H 0.39296 0.06284 0.38031 0.0
H183 H 0.24898 0.94873 0.36185 0.0
C184 C 0.16109 1.02035 0.27607 0.0
C185 C 0.27864 0.06756 0.32527 0.0
C186 C 0.13371 0.02534 0.24159 0.0
C187 C 0.4074 0.03061 0.43427 0.0
C188 C 0.37778 0.03849 0.40474 0.0
C189 C 0.25749 0.98251 0.35305 0.0
C190 C 0.20917 0.03499 0.27022 0.0
C191 C 0.23866 0.03018 0.30653 0.0
C192 C 0.32955 1.01382 0.40538 0.0
C193 C 0.29779 1.01986 0.37194 0.0
H194 H 0.21853 0.07247 0.16253 0.0
H195 H 0.2661 0.06517 0.22336 0.0
H196 H 0.19777 0.95822 0.30679 0.0
H197 H 0.32668 0.94807 0.48926 0.0
H198 H 0.27513 0.96342 0.44037 0.0
C199 C 0.99634 0.90068 0.94233 0.0
C200 C 0.95327 0.90481 0.94519 0.0
C201 C 1.00332 0.86582 0.90885 0.0
C202 C 0.94472 0.75548 0.82568 0.0
H203 H 0.05698 0.79824 0.7513 0.0
C204 C 0.98356 0.64547 0.65077 0.0
C205 C 0.02924 0.64796 0.64618 0.0
C206 C 0.97182 0.67484 0.68812 0.0
C207 C 0.02569 0.78551 0.77201 0.0
H208 H 0.88294 0.87349 0.91729 0.0
H209 H 0.89518 0.81266 0.8591 0.0
H210 H 0.04155 0.85102 0.81753 0.0
H211 H 0.09809 0.68252 0.67793 0.0
H212 H 0.07765 0.73261 0.74257 0.0
H213 H 0.92903 0.68981 0.7798 0.0
C214 C 0.92354 0.83643 0.88268 0.0
C215 C 0.01691 0.81579 0.81013 0.0
C216 C 0.91659 0.87143 0.916 0.0
C217 C 0.06262 0.67986 0.67994 0.0
C218 C 0.05097 0.7089 0.71702 0.0
C219 C 0.95361 0.72502 0.78747 0.0
C220 C 0.96737 0.83413 0.87763 0.0
C221 C 0.97652 0.80112 0.83769 0.0
C222 C 1.0056 0.70718 0.7214 0.0
C223 C 0.99443 0.73962 0.76047 0.0
H224 H 0.02543 0.92576 0.96411 0.0
H225 H 0.03731 0.86449 0.90643 0.0
H226 H 0.91332 0.74313 0.84632 0.0
H227 H 0.95705 0.62121 0.62538 0.0
H228 H 0.93657 0.67281 0.69039 0.0
C229 C 0.12699 0.04281 0.94636 0.0
C230 C 0.08347 0.03161 0.92575 0.0
C231 C 0.16071 0.0306 0.91933 0.0
C232 C 0.17769 0.95347 0.81019 0.0
H233 H 0.30138 0.04714 0.81285 0.0
C234 C 0.33069 0.92075 0.706 0.0
C235 C 0.35963 0.95554 0.68106 0.0
C236 C 0.29704 0.92799 0.73783 0.0
C237 C 0.26698 1.02065 0.81159 0.0
H238 H 0.04069 0.99725 0.86116 0.0
H239 H 0.09941 0.97622 0.81417 0.0
H240 H 0.24228 0.06255 0.86525 0.0
H241 H 0.37606 0.02549 0.67064 0.0
H242 H 0.3172 0.03786 0.72545 0.0
H243 H 0.20221 0.91202 0.75559 0.0
C244 C 0.10753 0.99434 0.8512 0.0
C245 C 0.23324 0.02928 0.84205 0.0
C246 C 0.07399 1.0068 0.87805 0.0
C247 C 0.35406 0.99771 0.68869 0.0
C248 C 0.32067 1.00503 0.72066 0.0
C249 C 0.21153 0.94476 0.77986 0.0
C250 C 0.15149 1.00659 0.87127 0.0
C251 C 0.18805 0.99602 0.84131 0.0
C252 C 0.29183 0.97034 0.74572 0.0
C253 C 0.25642 0.97849 0.77975 0.0
H254 H 0.13529 0.06159 0.98314 0.0
H255 H 0.19405 0.04002 0.93605 0.0
H256 H 0.14332 0.92694 0.8091 0.0
H257 H 0.33387 0.88779 0.70068 0.0
H258 H 0.27555 0.90065 0.7568 0.0
C259 C 0.97259 0.2086 0.91186 0.0
C260 C 0.98026 0.16941 0.88857 0.0
C261 C 0.97659 0.24357 0.88592 0.0
C262 C 0.97881 0.26679 0.75989 0.0
H263 H 0.05146 0.39303 0.81622 0.0
C264 C 0.01356 0.41496 0.6536 0.0
C265 C 0.05853 0.44905 0.65628 0.0
C266 C 0.9998 0.38265 0.68479 0.0
C267 C 0.03122 0.35794 0.79987 0.0
H268 H 0.99609 0.13536 0.81932 0.0
H269 H 1.0029 0.19552 0.77471 0.0
H270 H 0.03331 0.3326 0.86517 0.0
H271 H 0.12384 0.47602 0.6952 0.0
H272 H 0.10026 0.41906 0.7486 0.0
H273 H 0.9781 0.29147 0.69412 0.0
C274 C 0.99381 0.19964 0.81279 0.0
C275 C 0.02028 0.32337 0.82819 0.0
C276 C 0.99028 0.1652 0.83862 0.0
C277 C 0.08916 0.4501 0.69151 0.0
C278 C 0.07538 0.41771 0.7227 0.0
C279 C 0.98967 0.30124 0.73166 0.0
C280 C 0.98762 0.23958 0.83608 0.0
C281 C 0.99467 0.27721 0.80823 0.0
C282 C 0.03059 0.38332 0.71955 0.0
C283 C 0.01663 0.34723 0.75097 0.0
H284 H 0.9648 0.21284 0.95029 0.0
H285 H 0.97125 0.27377 0.90486 0.0
H286 H 0.95854 0.2317 0.74348 0.0
H287 H 0.989 0.41256 0.62683 0.0
H288 H 0.96487 0.35708 0.68159 0.0
C289 C 0.8806 0.06071 0.84314 0.0
C290 C 0.86024 0.05192 0.88837 0.0
C291 C 0.85763 0.07104 0.80845 0.0
C292 C 0.76053 0.107 0.79325 0.0
H293 H 0.75555 0.04155 0.66131 0.0
C294 C 0.61394 0.06947 0.65786 0.0
C295 C 0.6236 0.06715 0.60788 0.0
C296 C 0.64857 0.07764 0.69151 0.0
C297 C 0.75721 0.06087 0.69771 0.0
H298 H 0.80024 0.04832 0.93292 0.0
H299 H 0.76016 0.06549 0.87253 0.0
H300 H 0.80602 0.03701 0.72098 0.0
H301 H 0.67816 0.07466 0.55459 0.0
H302 H 0.73859 0.08938 0.61337 0.0
H303 H 0.71069 0.12978 0.77027 0.0
C304 C 0.79408 0.06503 0.8639 0.0
C305 C 0.78621 0.05823 0.732 0.0
C306 C 0.81695 0.05472 0.89845 0.0
C307 C 0.66937 0.07598 0.59275 0.0
C308 C 0.704 0.08406 0.62642 0.0
C309 C 0.73152 0.10963 0.75897 0.0
C310 C 0.81385 0.07289 0.81826 0.0
C311 C 0.78743 0.08038 0.78049 0.0
C312 C 0.69375 0.0837 0.67606 0.0
C313 C 0.72872 0.08577 0.71102 0.0
H314 H 0.91399 0.05903 0.83422 0.0
H315 H 0.87409 0.0774 0.77386 0.0
H316 H 0.7613 0.12524 0.83005 0.0
H317 H 0.57913 0.06286 0.67088 0.0
H318 H 0.63927 0.07678 0.72935 0.0
loop_
_geom_bond_atom_site_label_1
_geom_bond_atom_site_label_2
_geom_bond_distance
_geom_bond_site_symmetry_2
_ccdc_geom_bond_type
Co0 O3 2.042 . S
Co0 O10 2.264 1_565 S
Co0 O29 2.286 1_455 S
Co0 O30 2.069 . S
Co0 O32 2.015 1_455 S
Co1 O3 2.122 1_545 S
Co1 O9 2.073 . S
Co1 O10 2.327 . S
Co1 O11 1.976 . S
Co2 O3 2.087 1_545 S
Co2 O5 2.087 1_454 S
Co2 O12 2.111 . S
Co2 O13 2.143 1_554 S
Co2 O17 2.111 1_444 S
Co2 O31 2.143 1_445 S
O3 Co0 2.042 . S
O3 Co1 2.122 1_565 S
O3 Co2 2.087 1_565 S
O3 H4 0.980 . S
H4 O3 0.980 . S
O5 Co2 2.087 1_656 S
O5 Co6 2.039 1_655 S
O5 Co7 2.122 1_545 S
O5 H8 0.980 . S
Co6 O5 2.039 1_455 S
Co6 O14 2.287 . S
Co6 O15 2.059 1_455 S
Co6 O16 2.028 . S
Co6 O19 2.255 1_455 S
Co7 O5 2.122 1_565 S
Co7 O18 1.976 . S
Co7 O19 2.327 1_565 S
Co7 O20 2.073 . S
H8 O5 0.980 . S
O9 Co1 2.073 . S
O9 C24 1.245 . S
O10 Co0 2.264 1_545 S
O10 Co1 2.327 . S
O10 C24 1.257 . S
O11 Co1 1.976 . S
O11 C23 1.251 . S
O12 Co2 2.111 . S
O12 C23 1.274 . S
O13 Co2 2.143 1_556 S
O13 C26 1.246 . S
O14 Co6 2.287 . S
O14 C25 1.259 1_455 S
O15 Co6 2.059 1_655 S
O15 C25 1.289 . S
O16 Co6 2.028 . S
O16 C26 1.257 . S
O17 Co2 2.111 1_666 S
O17 C27 1.274 . S
O18 Co7 1.976 . S
O18 C27 1.251 . S
O19 Co6 2.255 1_655 S
O19 Co7 2.327 1_545 S
O19 C28 1.257 . S
O20 Co7 2.073 . S
O20 C28 1.245 1_565 S
C21 O29 1.259 1_455 S
C21 O30 1.289 . S
C22 O31 1.246 . S
C22 O32 1.257 . S
C23 O11 1.251 . S
C23 O12 1.274 . S
C24 O9 1.245 . S
C24 O10 1.257 . S
C25 O14 1.259 1_655 S
C25 O15 1.289 . S
C26 O13 1.246 . S
C26 O16 1.257 . S
C27 O17 1.274 . S
C27 O18 1.251 . S
C28 O19 1.257 . S
C28 O20 1.245 1_545 S
O29 Co0 2.286 1_655 S
O29 C21 1.259 1_655 S
O30 Co0 2.069 . S
O30 C21 1.289 . S
O31 Co2 2.143 1_665 S
O31 C22 1.246 . S
O32 Co0 2.015 1_655 S
O32 C22 1.257 . S
Cu33 N34 1.999 . S
Cu33 O39 1.974 . S
Cu33 N44 1.985 . S
Cu33 O53 1.959 . S
N34 Cu33 1.999 . S
N34 C36 1.263 . S
N34 C38 1.389 . S
N35 C36 1.358 . S
N35 C37 1.400 . S
C36 N34 1.263 . S
C36 N35 1.358 . S
C36 H42 0.930 1_655 S
C37 N35 1.400 . S
C37 C38 1.351 . S
C37 H54 0.930 . S
C38 N34 1.389 . S
C38 C37 1.351 . S
C38 H43 0.930 . S
O39 Cu33 1.974 . S
O39 C49 1.282 1_655 S
C40 O41 1.261 . S
C40 O53 1.251 1_455 S
O41 C40 1.261 . S
H42 C36 0.930 1_455 S
H43 C38 0.930 . S
N44 Cu33 1.985 . S
N44 C46 1.335 . S
N44 C47 1.390 1_655 S
N45 C46 1.345 . S
N45 C48 1.336 1_655 S
C46 N44 1.335 . S
C46 N45 1.345 . S
C46 H51 0.930 . S
C47 N44 1.390 1_455 S
C47 C48 1.346 . S
C47 H52 0.930 . S
C48 N45 1.336 1_455 S
C48 C47 1.346 . S
C48 H55 0.929 . S
C49 O39 1.282 1_455 S
C49 O50 1.216 . S
O50 C49 1.216 . S
H51 C46 0.930 . S
H52 C47 0.930 . S
O53 Cu33 1.959 . S
O53 C40 1.251 1_655 S
H54 C37 0.930 . S
H55 C48 0.929 . S
Cu56 N57 1.999 . S
Cu56 O62 1.974 . S
Cu56 N67 1.985 . S
Cu56 O76 1.959 . S
N57 Cu56 1.999 . S
N57 C59 1.263 . S
N57 C61 1.389 . S
N58 C59 1.358 . S
N58 C60 1.400 . S
C59 N57 1.263 . S
C59 N58 1.358 . S
C59 H65 0.930 1_545 S
C60 N58 1.400 . S
C60 C61 1.351 . S
C60 H77 0.930 . S
C61 N57 1.389 . S
C61 C60 1.351 . S
C61 H66 0.930 . S
O62 Cu56 1.974 . S
O62 C72 1.282 1_545 S
C63 O64 1.261 . S
C63 O76 1.251 1_565 S
O64 C63 1.261 . S
H65 C59 0.930 1_565 S
H66 C61 0.930 . S
N67 Cu56 1.985 . S
N67 C69 1.335 . S
N67 C70 1.391 . S
N68 C69 1.345 . S
N68 C71 1.337 1_545 S
C69 N67 1.335 . S
C69 N68 1.345 . S
C69 H74 0.930 . S
C70 N67 1.391 . S
C70 C71 1.339 1_545 S
C70 H75 0.934 1_545 S
C71 N68 1.337 1_565 S
C71 C70 1.339 1_565 S
C71 H78 0.931 . S
C72 O62 1.282 1_565 S
C72 O73 1.216 . S
O73 C72 1.216 . S
H74 C69 0.930 . S
H75 C70 0.934 1_565 S
O76 Cu56 1.959 . S
O76 C63 1.251 1_545 S
H77 C60 0.930 . S
H78 C71 0.931 . S
C79 C80 1.349 . S
C79 C81 1.327 . S
C79 H104 0.950 . S
C80 C79 1.349 . S
C80 C96 1.347 1_455 S
C81 C79 1.327 . S
C81 C100 1.429 . S
C81 H105 0.950 . S
C82 C99 1.574 . S
C82 C101 1.368 . S
C82 H106 0.949 1_455 S
H83 C87 0.949 . S
C84 C85 1.349 . S
C84 C86 1.327 . S
C84 H107 0.948 1_455 S
C85 C84 1.349 . S
C85 C97 1.349 . S
C86 C84 1.327 . S
C86 C102 1.429 . S
C86 H108 0.950 1_455 S
C87 H83 0.949 . S
C87 C95 1.574 . S
C87 C103 1.368 . S
H88 C96 0.947 . S
H89 C94 0.950 1_655 S
H90 C95 0.949 . S
H91 C97 0.950 . S
H92 C98 0.950 . S
H93 C99 0.949 1_655 S
C94 H89 0.950 1_455 S
C94 C96 1.331 1_455 S
C94 C100 1.429 . S
C95 C87 1.574 . S
C95 H90 0.949 . S
C95 C101 1.368 . S
C96 C80 1.347 1_655 S
C96 H88 0.947 . S
C96 C94 1.331 1_655 S
C97 C85 1.349 . S
C97 H91 0.950 . S
C97 C98 1.327 . S
C98 H92 0.950 . S
C98 C97 1.327 . S
C98 C102 1.429 . S
C99 C82 1.574 . S
C99 H93 0.949 1_455 S
C99 C103 1.368 . S
C100 C81 1.429 . S
C100 C94 1.429 . S
C100 C101 1.523 . S
C101 C82 1.368 . S
C101 C95 1.368 . S
C101 C100 1.523 . S
C102 C86 1.429 . S
C102 C98 1.429 . S
C102 C103 1.523 . S
C103 C87 1.368 . S
C103 C99 1.368 . S
C103 C102 1.523 . S
H104 C79 0.950 . S
H105 C81 0.950 . S
H106 C82 0.949 1_655 S
H107 C84 0.948 1_655 S
H108 C86 0.950 1_655 S
C109 C110 1.349 . S
C109 C111 1.327 . S
C109 H134 0.950 . S
C110 C109 1.349 . S
C110 C126 1.349 1_545 S
C111 C109 1.327 . S
C111 C130 1.429 . S
C111 H135 0.950 . S
C112 C129 1.574 . S
C112 C131 1.368 1_565 S
C112 H136 0.949 . S
H113 C117 0.949 . S
C114 C115 1.349 1_565 S
C114 C116 1.327 . S
C114 H137 0.950 . S
C115 C114 1.349 1_545 S
C115 C127 1.349 . S
C116 C114 1.327 . S
C116 C132 1.429 1_565 S
C116 H138 0.950 . S
C117 H113 0.949 . S
C117 C125 1.574 . S
C117 C133 1.368 . S
H118 C126 0.950 . S
H119 C124 0.950 . S
H120 C125 0.949 . S
H121 C127 0.950 . S
H122 C128 0.950 . S
H123 C129 0.949 . S
C124 H119 0.950 . S
C124 C126 1.327 . S
C124 C130 1.429 1_565 S
C125 C117 1.574 . S
C125 H120 0.949 . S
C125 C131 1.368 . S
C126 C110 1.349 1_565 S
C126 H118 0.950 . S
C126 C124 1.327 . S
C127 C115 1.349 . S
C127 H121 0.950 . S
C127 C128 1.327 . S
C128 H122 0.950 . S
C128 C127 1.327 . S
C128 C132 1.429 . S
C129 C112 1.574 . S
C129 H123 0.949 . S
C129 C133 1.368 1_565 S
C130 C111 1.429 . S
C130 C124 1.429 1_545 S
C130 C131 1.523 . S
C131 C112 1.368 1_545 S
C131 C125 1.368 . S
C131 C130 1.523 . S
C132 C116 1.429 1_545 S
C132 C128 1.429 . S
C132 C133 1.523 . S
C133 C117 1.368 . S
C133 C129 1.368 1_545 S
C133 C132 1.523 . S
H134 C109 0.950 . S
H135 C111 0.950 . S
H136 C112 0.949 . S
H137 C114 0.950 . S
H138 C116 0.950 . S
C139 C140 1.349 . S
C139 C141 1.327 . S
C139 H164 0.950 . S
C140 C139 1.349 . S
C140 C156 1.349 . S
C141 C139 1.327 . S
C141 C160 1.429 . S
C141 H165 0.950 . S
C142 C159 1.574 . S
C142 C161 1.368 . S
C142 H166 0.949 . S
H143 C147 0.949 . S
C144 C145 1.349 . S
C144 C146 1.324 . S
C144 H167 0.950 . S
C145 C144 1.349 . S
C145 C157 1.349 . S
C146 C144 1.324 . S
C146 C162 1.427 1_655 S
C146 H168 0.963 1_655 S
C147 H143 0.949 . S
C147 C155 1.574 . S
C147 C163 1.368 . S
H148 C156 0.950 . S
H149 C154 0.950 . S
H150 C155 0.949 . S
H151 C157 0.950 . S
H152 C158 0.950 . S
H153 C159 0.949 . S
C154 H149 0.950 . S
C154 C156 1.327 . S
C154 C160 1.429 . S
C155 C147 1.574 . S
C155 H150 0.949 . S
C155 C161 1.368 . S
C156 C140 1.349 . S
C156 H148 0.950 . S
C156 C154 1.327 . S
C157 C145 1.349 . S
C157 H151 0.950 . S
C157 C158 1.327 . S
C158 H152 0.950 . S
C158 C157 1.327 . S
C158 C162 1.433 1_655 S
C159 C142 1.574 . S
C159 H153 0.949 . S
C159 C163 1.368 . S
C160 C141 1.429 . S
C160 C154 1.429 . S
C160 C161 1.523 . S
C161 C142 1.368 . S
C161 C155 1.368 . S
C161 C160 1.523 . S
C162 C146 1.427 1_455 S
C162 C158 1.433 1_455 S
C162 C163 1.520 . S
C163 C147 1.368 . S
C163 C159 1.368 . S
C163 C162 1.520 . S
H164 C139 0.950 . S
H165 C141 0.950 . S
H166 C142 0.949 . S
H167 C144 0.950 . S
H168 C146 0.963 1_455 S
C169 C170 1.349 1_545 S
C169 C171 1.327 . S
C169 H194 0.950 . S
C170 C169 1.349 1_565 S
C170 C186 1.349 . S
C171 C169 1.327 . S
C171 C190 1.429 1_545 S
C171 H195 0.950 . S
C172 C189 1.574 . S
C172 C191 1.368 . S
C172 H196 0.949 . S
H173 C177 0.949 . S
C174 C175 1.349 . S
C174 C176 1.327 . S
C174 H197 0.950 . S
C175 C174 1.349 . S
C175 C187 1.349 1_565 S
C176 C174 1.327 . S
C176 C192 1.429 . S
C176 H198 0.950 . S
C177 H173 0.949 . S
C177 C185 1.574 . S
C177 C193 1.368 1_545 S
H178 C186 0.950 . S
H179 C184 0.950 . S
H180 C185 0.949 . S
H181 C187 0.950 . S
H182 C188 0.950 . S
H183 C189 0.949 . S
C184 H179 0.950 . S
C184 C186 1.327 . S
C184 C190 1.429 . S
C185 C177 1.574 . S
C185 H180 0.949 . S
C185 C191 1.368 1_545 S
C186 C170 1.349 . S
C186 H178 0.950 . S
C186 C184 1.327 . S
C187 C175 1.349 1_545 S
C187 H181 0.950 . S
C187 C188 1.327 . S
C188 H182 0.950 . S
C188 C187 1.327 . S
C188 C192 1.429 1_545 S
C189 C172 1.574 . S
C189 H183 0.949 . S
C189 C193 1.368 . S
C190 C171 1.429 1_565 S
C190 C184 1.429 . S
C190 C191 1.523 . S
C191 C172 1.368 . S
C191 C185 1.368 1_565 S
C191 C190 1.523 . S
C192 C176 1.429 . S
C192 C188 1.429 1_565 S
C192 C193 1.523 . S
C193 C177 1.368 1_565 S
C193 C189 1.368 . S
C193 C192 1.523 . S
H194 C169 0.950 . S
H195 C171 0.950 . S
H196 C172 0.949 . S
H197 C174 0.950 . S
H198 C176 0.950 . S
C199 C200 1.349 . S
C199 C201 1.327 . S
C199 H224 0.950 . S
C200 C199 1.349 . S
C200 C216 1.349 1_455 S
C201 C199 1.327 . S
C201 C220 1.429 . S
C201 H225 0.950 . S
C202 C219 1.574 . S
C202 C221 1.368 1_655 S
C202 H226 0.949 . S
H203 C207 0.949 . S
C204 C205 1.349 1_655 S
C204 C206 1.327 . S
C204 H227 0.950 . S
C205 C204 1.349 1_455 S
C205 C217 1.349 . S
C206 C204 1.327 . S
C206 C222 1.429 1_655 S
C206 H228 0.950 . S
C207 H203 0.949 . S
C207 C215 1.574 . S
C207 C223 1.368 . S
H208 C216 0.950 . S
H209 C214 0.950 . S
H210 C215 0.949 . S
H211 C217 0.950 . S
H212 C218 0.950 . S
H213 C219 0.949 . S
C214 H209 0.950 . S
C214 C216 1.327 . S
C214 C220 1.429 1_655 S
C215 C207 1.574 . S
C215 H210 0.949 . S
C215 C221 1.368 . S
C216 C200 1.349 1_655 S
C216 H208 0.950 . S
C216 C214 1.327 . S
C217 C205 1.349 . S
C217 H211 0.950 . S
C217 C218 1.327 . S
C218 H212 0.950 . S
C218 C217 1.327 . S
C218 C222 1.429 . S
C219 C202 1.574 . S
C219 H213 0.949 . S
C219 C223 1.368 1_655 S
C220 C201 1.429 . S
C220 C214 1.429 1_455 S
C220 C221 1.523 . S
C221 C202 1.368 1_455 S
C221 C215 1.368 . S
C221 C220 1.523 . S
C222 C206 1.429 1_455 S
C222 C218 1.429 . S
C222 C223 1.523 . S
C223 C207 1.368 . S
C223 C219 1.368 1_455 S
C223 C222 1.523 . S
H224 C199 0.950 . S
H225 C201 0.950 . S
H226 C202 0.949 . S
H227 C204 0.950 . S
H228 C206 0.950 . S
C229 C230 1.349 . S
C229 C231 1.327 . S
C229 H254 0.950 . S
C230 C229 1.349 . S
C230 C246 1.349 1_545 S
C231 C229 1.327 . S
C231 C250 1.429 . S
C231 H255 0.950 . S
C232 C249 1.574 . S
C232 C251 1.368 1_565 S
C232 H256 0.949 . S
H233 C237 0.949 . S
C234 C235 1.349 1_565 S
C234 C236 1.327 . S
C234 H257 0.950 . S
C235 C234 1.349 1_545 S
C235 C247 1.349 . S
C236 C234 1.327 . S
C236 C252 1.429 1_565 S
C236 H258 0.950 . S
C237 H233 0.949 . S
C237 C245 1.574 . S
C237 C253 1.368 . S
H238 C246 0.950 . S
H239 C244 0.950 . S
H240 C245 0.949 . S
H241 C247 0.950 . S
H242 C248 0.950 . S
H243 C249 0.949 . S
C244 H239 0.950 . S
C244 C246 1.327 . S
C244 C250 1.429 1_565 S
C245 C237 1.574 . S
C245 H240 0.949 . S
C245 C251 1.368 . S
C246 C230 1.349 1_565 S
C246 H238 0.950 . S
C246 C244 1.327 . S
C247 C235 1.349 . S
C247 H241 0.950 . S
C247 C248 1.327 . S
C248 H242 0.950 . S
C248 C247 1.327 . S
C248 C252 1.429 . S
C249 C232 1.574 . S
C249 H243 0.949 . S
C249 C253 1.368 1_565 S
C250 C231 1.429 . S
C250 C244 1.429 1_545 S
C250 C251 1.523 . S
C251 C232 1.368 1_545 S
C251 C245 1.368 . S
C251 C250 1.523 . S
C252 C236 1.429 1_545 S
C252 C248 1.429 . S
C252 C253 1.523 . S
C253 C237 1.368 . S
C253 C249 1.368 1_545 S
C253 C252 1.523 . S
H254 C229 0.950 . S
H255 C231 0.950 . S
H256 C232 0.949 . S
H257 C234 0.950 . S
H258 C236 0.950 . S
C259 C260 1.349 1_455 S
C259 C261 1.327 . S
C259 H284 0.950 . S
C260 C259 1.349 1_655 S
C260 C276 1.349 . S
C261 C259 1.327 . S
C261 C280 1.429 1_455 S
C261 H285 0.950 . S
C262 C279 1.574 . S
C262 C281 1.368 . S
C262 H286 0.949 . S
H263 C267 0.949 . S
C264 C265 1.349 . S
C264 C266 1.327 . S
C264 H287 0.950 . S
C265 C264 1.349 . S
C265 C277 1.349 1_655 S
C266 C264 1.327 . S
C266 C282 1.429 . S
C266 H288 0.950 . S
C267 H263 0.949 . S
C267 C275 1.574 . S
C267 C283 1.368 1_455 S
H268 C276 0.950 . S
H269 C274 0.950 . S
H270 C275 0.949 . S
H271 C277 0.950 . S
H272 C278 0.950 . S
H273 C279 0.949 . S
C274 H269 0.950 . S
C274 C276 1.327 . S
C274 C280 1.429 . S
C275 C267 1.574 . S
C275 H270 0.949 . S
C275 C281 1.368 1_455 S
C276 C260 1.349 . S
C276 H268 0.950 . S
C276 C274 1.327 . S
C277 C265 1.349 1_455 S
C277 H271 0.950 . S
C277 C278 1.327 . S
C278 H272 0.950 . S
C278 C277 1.327 . S
C278 C282 1.429 1_455 S
C279 C262 1.574 . S
C279 H273 0.949 . S
C279 C283 1.368 . S
C280 C261 1.429 1_655 S
C280 C274 1.429 . S
C280 C281 1.523 . S
C281 C262 1.368 . S
C281 C275 1.368 1_655 S
C281 C280 1.523 . S
C282 C266 1.429 . S
C282 C278 1.429 1_655 S
C282 C283 1.523 . S
C283 C267 1.368 1_655 S
C283 C279 1.368 . S
C283 C282 1.523 . S
H284 C259 0.950 . S
H285 C261 0.950 . S
H286 C262 0.949 . S
H287 C264 0.950 . S
H288 C266 0.950 . S
C289 C290 1.349 . S
C289 C291 1.327 . S
C289 H314 0.950 . S
C290 C289 1.349 . S
C290 C306 1.349 1_545 S
C291 C289 1.327 . S
C291 C310 1.429 . S
C291 H315 0.950 . S
C292 C309 1.574 . S
C292 C311 1.368 1_565 S
C292 H316 0.949 . S
H293 C297 0.949 . S
C294 C295 1.349 . S
C294 C296 1.327 . S
C294 H317 0.950 . S
C295 C294 1.349 . S
C295 C307 1.349 1_565 S
C296 C294 1.327 . S
C296 C312 1.429 1_565 S
C296 H318 0.950 . S
C297 H293 0.949 . S
C297 C305 1.574 . S
C297 C313 1.368 . S
H298 C306 0.950 . S
H299 C304 0.950 . S
H300 C305 0.949 . S
H301 C307 0.950 . S
H302 C308 0.950 . S
H303 C309 0.949 . S
C304 H299 0.950 . S
C304 C306 1.327 . S
C304 C310 1.429 1_565 S
C305 C297 1.574 . S
C305 H300 0.949 . S
C305 C311 1.368 . S
C306 C290 1.349 1_565 S
C306 H298 0.950 . S
C306 C304 1.327 . S
C307 C295 1.349 1_545 S
C307 H301 0.950 . S
C307 C308 1.327 . S
C308 H302 0.950 . S
C308 C307 1.327 . S
C308 C312 1.429 . S
C309 C292 1.574 . S
C309 H303 0.949 . S
C309 C313 1.368 1_565 S
C310 C291 1.429 . S
C310 C304 1.429 1_545 S
C310 C311 1.523 . S
C311 C292 1.368 1_545 S
C311 C305 1.368 . S
C311 C310 1.523 . S
C312 C296 1.429 1_545 S
C312 C308 1.429 . S
C312 C313 1.523 . S
C313 C297 1.368 . S
C313 C309 1.368 1_545 S
C313 C312 1.523 . S
H314 C289 0.950 . S
H315 C291 0.950 . S
H316 C292 0.949 . S
H317 C294 0.950 . S
H318 C296 0.950 . S
C80 C23 1.337 . S
C85 C49 1.411 . S
C110 C22 1.379 1_545 S
C115 N68 1.375 . S
C140 C21 1.770 . S
C145 N45 1.735 . S
C170 C24 1.573 1_565 S
C175 C72 1.619 . S
C200 C27 1.397 1_455 S
C205 C40 1.467 . S
C230 C26 1.400 . S
C235 N58 1.408 . S
C265 N35 1.760 . S
C260 C25 1.796 . S
C290 C28 1.613 . S
C295 C63 1.682 . S
