# Generated by pormake.
# Topology pth, (4,4)-cn, num edge types: 1
# Building blocks:
#     Node 0, Type 0, BuildingBlock: UXUYUI_clean_sbu_0, # of connection points: 4
#     Node 1, Type 0, BuildingBlock: UXUYUI_clean_sbu_0, # of connection points: 4
#     Node 2, Type 0, BuildingBlock: UXUYUI_clean_sbu_0, # of connection points: 4
#     Node 3, Type 1, BuildingBlock: NAWXER_clean_sbu_0, # of connection points: 4
#     Node 4, Type 1, BuildingBlock: NAWXER_clean_sbu_0, # of connection points: 4
#     Node 5, Type 1, BuildingBlock: NAWXER_clean_sbu_0, # of connection points: 4
#     Edge 6, Type (0, 1), BuildingBlock: OJICUG_clean_linker_0, # of connection points: 2
#     Edge 7, Type (0, 1), BuildingBlock: OJICUG_clean_linker_0, # of connection points: 2
#     Edge 8, Type (0, 1), BuildingBlock: OJICUG_clean_linker_0, # of connection points: 2
#     Edge 9, Type (0, 1), BuildingBlock: OJICUG_clean_linker_0, # of connection points: 2
#     Edge 10, Type (0, 1), BuildingBlock: OJICUG_clean_linker_0, # of connection points: 2
#     Edge 11, Type (0, 1), BuildingBlock: OJICUG_clean_linker_0, # of connection points: 2
#     Edge 12, Type (0, 1), BuildingBlock: OJICUG_clean_linker_0, # of connection points: 2
#     Edge 13, Type (0, 1), BuildingBlock: OJICUG_clean_linker_0, # of connection points: 2
#     Edge 14, Type (0, 1), BuildingBlock: OJICUG_clean_linker_0, # of connection points: 2
#     Edge 15, Type (0, 1), BuildingBlock: OJICUG_clean_linker_0, # of connection points: 2
#     Edge 16, Type (0, 1), BuildingBlock: OJICUG_clean_linker_0, # of connection points: 2
#     Edge 17, Type (0, 1), BuildingBlock: OJICUG_clean_linker_0, # of connection points: 2
# Relax obj value: 0.086
# Max RMSD: 0.218
# Mean RMSD: 0.120
data_MOF--net-pth--node1-UXUYUI_clean_sbu_0--node2-NAWXER_clean_sbu_0--edge1-OJICUG_clean_linker_0
_symmetry_space_group_name_H-M    P1
_symmetry_Int_Tables_number       1
_symmetry_cell_setting            triclinic
loop_
_symmetry_equiv_pos_as_xyz
'x, y, z'
_cell_length_a     22.006092
_cell_length_b     22.016852
_cell_length_c     54.842616
_cell_angle_alpha  90.031035
_cell_angle_beta   89.96843
_cell_angle_gamma 120.04176
loop_
_atom_site_label
_atom_site_type_symbol
_atom_site_fract_x
_atom_site_fract_y
_atom_site_fract_z
_atom_type_partial_charge
Li0 Li 0.08073 0.05725 0.07045 0.0
Li1 Li 0.99518 0.05607 0.1036 0.0
Li2 Li 0.03185 0.96703 0.10166 0.0
Li3 Li 0.95518 0.96709 0.07193 0.0
C4 C 0.14075 0.07235 0.12284 0.0
N5 N 0.23465 0.07153 0.15607 0.0
C6 C 0.1258 0.06679 0.14777 0.0
C7 C 0.20354 0.07771 0.1148 0.0
C8 C 0.17389 0.06633 0.16429 0.0
C9 C 0.25036 0.07725 0.13189 0.0
C10 C 0.95058 0.07241 0.05137 0.0
C11 C 0.84462 0.07514 0.04255 0.0
N12 N 0.8554 0.0714 0.01831 0.0
C13 C 0.96077 0.06885 0.02638 0.0
C14 C 0.89212 0.07566 0.05956 0.0
C15 C 0.91197 0.06826 0.00995 0.0
C16 C 0.15205 0.09482 0.02592 0.0
N17 N 0.1576 0.1145 0.04968 0.0
C18 C 0.26915 0.21647 0.04207 0.0
C19 C 0.21479 0.17369 0.05805 0.0
C20 C 0.26348 0.19859 0.01728 0.0
C21 C 0.20439 0.13665 0.00926 0.0
H22 H 0.10622 0.04714 0.01985 0.0
H23 H 0.21755 0.18836 0.07701 0.0
C24 C 0.95989 0.09219 0.14823 0.0
N25 N 0.9744 0.11223 0.12452 0.0
C26 C 0.94843 0.13339 0.16488 0.0
C27 C 0.96347 0.21332 0.13216 0.0
C28 C 0.97596 0.17119 0.11619 0.0
C29 C 0.95079 0.19509 0.15691 0.0
H30 H 0.95837 0.0447 0.15427 0.0
H31 H 0.98819 0.18616 0.09727 0.0
C32 C 0.0615 0.91 0.06379 0.0
N33 N 0.11053 0.81696 0.05951 0.0
C34 C 0.01613 0.83829 0.06752 0.0
C35 C 0.1316 0.93436 0.05762 0.0
C36 C 0.04201 0.79212 0.06537 0.0
C37 C 0.15541 0.88647 0.05558 0.0
C38 C 0.86771 0.90808 0.10954 0.0
C39 C 0.8417 0.83663 0.10535 0.0
C40 C 0.8216 0.93172 0.11598 0.0
C41 C 0.76961 0.79001 0.10731 0.0
C42 C 0.74987 0.8834 0.11781 0.0
N43 N 0.72557 0.81416 0.11344 0.0
C44 C 1.0017 0.87209 0.13981 0.0
C45 C 0.10977 0.90207 0.12079 0.0
C46 C 0.0079 0.82521 0.15521 0.0
N47 N 0.05139 0.90837 0.12264 0.0
C48 C 0.11827 0.8557 0.13596 0.0
C49 C 0.06609 0.81549 0.15312 0.0
H50 H 0.95669 0.87909 0.14146 0.0
H51 H 0.14946 0.93226 0.10739 0.0
C52 C 0.89302 0.87532 0.03278 0.0
N53 N 0.87794 0.90892 0.05049 0.0
C54 C 0.84094 0.82931 0.01685 0.0
C55 C 0.75859 0.85511 0.03678 0.0
C56 C 0.81252 0.90078 0.05243 0.0
C57 C 0.77228 0.81762 0.019 0.0
H58 H 0.94561 0.88384 0.03108 0.0
H59 H 0.80172 0.92902 0.06623 0.0
O60 O 0.09381 0.07168 0.10636 0.0
O61 O 0.99706 0.07174 0.06776 0.0
O62 O 0.0371 0.95599 0.06576 0.0
O63 O 0.93814 0.95448 0.1078 0.0
H64 H 0.07734 0.06227 0.15429 0.0
H65 H 0.21548 0.08095 0.09554 0.0
H66 H 0.16284 0.06172 0.18363 0.0
H67 H 0.29896 0.08095 0.12592 0.0
H68 H 0.79893 0.07722 0.04864 0.0
H69 H 1.00552 0.06598 0.01974 0.0
H70 H 0.88281 0.07732 0.07885 0.0
H71 H 0.91901 0.06518 0.99056 0.0
H72 H 0.31362 0.26443 0.04878 0.0
H73 H 0.19834 0.12141 0.99024 0.0
H74 H 0.93886 0.11783 0.18387 0.0
H75 H 0.96663 0.26112 0.12548 0.0
H76 H 0.96159 0.81859 0.07209 0.0
H77 H 0.16743 0.98969 0.05467 0.0
H78 H 0.0076 0.73652 0.06835 0.0
H79 H 0.20963 0.90458 0.05096 0.0
H80 H 0.8768 0.81746 0.10057 0.0
H81 H 0.84083 0.98683 0.11928 0.0
H82 H 0.74867 0.73462 0.10398 0.0
H83 H 0.71349 0.90097 0.12264 0.0
H84 H 0.96721 0.79649 0.1686 0.0
H85 H 0.16403 0.84992 0.1338 0.0
H86 H 0.85431 0.80284 1.00302 0.0
H87 H 0.70643 0.84777 0.03903 0.0
Li88 Li 0.99868 0.95256 0.40402 0.0
Li89 Li 0.07848 0.02939 0.43492 0.0
Li90 Li 0.9561 0.99852 0.43535 0.0
Li91 Li 0.03477 0.0764 0.40442 0.0
C92 C 0.01578 0.88745 0.44517 0.0
N93 N 0.05943 0.79288 0.45635 0.0
C94 C 0.06516 0.88278 0.43045 0.0
C95 C 0.98853 0.84393 0.46555 0.0
C96 C 0.08657 0.83468 0.4364 0.0
C97 C 0.01127 0.79648 0.47091 0.0
C98 C 0.16106 0.08535 0.39334 0.0
C99 C 0.26226 0.19926 0.40067 0.0
N100 N 0.29566 0.18915 0.38157 0.0
C101 C 0.1964 0.07606 0.37381 0.0
C102 C 0.19423 0.1474 0.40692 0.0
C103 C 0.26442 0.12916 0.36813 0.0
C104 C 1.00624 0.89566 0.3599 0.0
N105 N 0.97688 0.87646 0.38238 0.0
C106 C 0.92786 0.75495 0.37237 0.0
C107 C 0.93716 0.80771 0.38877 0.0
C108 C 0.96022 0.77354 0.34937 0.0
C109 C 0.99864 0.84491 0.34305 0.0
H110 H 0.03689 0.9507 0.35526 0.0
H111 H 0.91427 0.79384 0.40679 0.0
C112 C 0.16235 0.0736 0.47767 0.0
N113 N 0.15745 0.04799 0.45474 0.0
C114 C 0.21782 0.08428 0.49292 0.0
C115 C 0.26259 0.04316 0.4605 0.0
C116 C 0.20669 0.03374 0.44587 0.0
C117 C 0.26815 0.06778 0.48448 0.0
H118 H 0.12235 0.08433 0.48427 0.0
H119 H 0.20202 0.01387 0.42753 0.0
C120 C 0.87194 0.9438 0.39412 0.0
N121 N 0.73689 0.84009 0.38282 0.0
C122 C 0.83547 0.95367 0.37512 0.0
C123 C 0.83966 0.88121 0.40741 0.0
C124 C 0.76724 0.90061 0.36969 0.0
C125 C 0.77139 0.82941 0.4014 0.0
C126 C 0.01921 0.14012 0.44626 0.0
C127 C 0.96956 0.14552 0.43196 0.0
C128 C 0.04701 0.18276 0.46683 0.0
C129 C 0.9484 0.19344 0.43852 0.0
C130 C 0.02451 0.23006 0.47279 0.0
N131 N 0.97607 0.23436 0.45864 0.0
C132 C 0.87332 0.95291 0.47845 0.0
C133 C 0.82878 0.99459 0.44734 0.0
C134 C 0.81848 0.94228 0.49405 0.0
N135 N 0.87785 0.97944 0.4557 0.0
C136 C 0.7736 0.98534 0.46234 0.0
C137 C 0.7685 0.95986 0.48616 0.0
H138 H 0.91316 0.94145 0.48464 0.0
H139 H 0.8331 0.01513 0.42914 0.0
C140 C 0.02421 0.13506 0.36118 0.0
N141 N 0.05576 0.15335 0.38335 0.0
C142 C 0.03077 0.18652 0.34488 0.0
C143 C 0.1052 0.27531 0.37399 0.0
C144 C 0.09673 0.22185 0.38989 0.0
C145 C 0.07056 0.25763 0.35139 0.0
H146 H 0.99256 0.08021 0.35642 0.0
H147 H 0.12123 0.23499 0.40767 0.0
O148 O 0.99399 0.93427 0.43985 0.0
O149 O 0.09445 0.0336 0.39905 0.0
O150 O 0.93877 0.99551 0.39959 0.0
O151 O 0.0408 0.09349 0.44034 0.0
H152 H 0.08678 0.91583 0.41457 0.0
H153 H 0.95019 0.84683 0.47713 0.0
H154 H 0.12479 0.83058 0.42517 0.0
H155 H 0.99064 0.76251 0.48664 0.0
H156 H 0.28852 0.24752 0.41102 0.0
H157 H 0.17154 0.02822 0.36316 0.0
H158 H 0.16796 0.15549 0.42217 0.0
H159 H 0.2924 0.12266 0.35306 0.0
H160 H 0.89823 0.70054 0.37797 0.0
H161 H 0.02365 0.86139 0.32538 0.0
H162 H 0.21978 0.10262 0.51138 0.0
H163 H 0.30061 0.0304 0.45322 0.0
H164 H 0.85961 1.00192 0.36472 0.0
H165 H 0.86678 0.87265 0.42225 0.0
H166 H 0.73841 0.90755 0.35502 0.0
H167 H 0.74581 0.78074 0.41153 0.0
H168 H 0.9475 0.11315 0.41595 0.0
H169 H 0.08558 0.17931 0.47807 0.0
H170 H 0.90997 0.19808 0.42762 0.0
H171 H 0.04556 0.26335 0.48867 0.0
H172 H 0.81676 0.92316 0.51238 0.0
H173 H 0.73577 0.99893 0.45548 0.0
H174 H 1.00389 0.17082 0.3275 0.0
H175 H 0.13594 0.32956 0.37969 0.0
Li176 Li 0.05877 0.99274 0.73594 0.0
Li177 Li 0.05979 0.07808 0.76912 0.0
Li178 Li 0.96978 0.95255 0.76763 0.0
Li179 Li 0.96951 0.02912 0.73791 0.0
C180 C 0.07519 0.9481 0.78816 0.0
N181 N 0.07411 0.85288 0.82119 0.0
C182 C 0.07168 0.95827 0.81316 0.0
C183 C 0.07836 0.88964 0.77995 0.0
C184 C 0.07105 0.90945 0.82957 0.0
C185 C 0.07781 0.84211 0.79695 0.0
C186 C 0.07469 0.13837 0.71686 0.0
C187 C 0.07879 0.24771 0.70811 0.0
N188 N 0.07352 0.2326 0.68388 0.0
C189 C 0.06957 0.12404 0.69189 0.0
C190 C 0.07942 0.20071 0.72507 0.0
C191 C 0.06893 0.17228 0.6755 0.0
C192 C 0.09492 0.95821 0.69121 0.0
N193 N 0.11492 0.97219 0.71494 0.0
C194 C 0.2159 0.96112 0.70714 0.0
C195 C 0.1738 0.9734 0.7232 0.0
C196 C 0.19771 0.94903 0.68237 0.0
C197 C 0.1361 0.94702 0.67447 0.0
H198 H 0.04748 0.95696 0.68523 0.0
H199 H 0.18875 0.9852 0.74215 0.0
C200 C 0.09729 0.14935 0.81366 0.0
N201 N 0.11696 0.15495 0.7899 0.0
C202 C 0.13909 0.2017 0.83031 0.0
C203 C 0.21885 0.26654 0.7975 0.0
C204 C 0.17611 0.21218 0.78152 0.0
C205 C 0.20099 0.26084 0.8223 0.0
H206 H 0.04964 0.10349 0.81973 0.0
H207 H 0.19077 0.21498 0.76256 0.0
C208 C 0.91089 0.86517 0.72995 0.0
N209 N 0.8172 0.72308 0.72587 0.0
C210 C 0.83934 0.83898 0.73406 0.0
C211 C 0.93475 0.81925 0.7235 0.0
C212 C 0.79283 0.76692 0.73201 0.0
C213 C 0.88653 0.74754 0.72157 0.0
C214 C 0.91221 0.05836 0.77582 0.0
C215 C 0.84052 0.01279 0.77208 0.0
C216 C 0.93627 0.12832 0.78208 0.0
C217 C 0.79406 0.03832 0.77428 0.0
C218 C 0.88809 0.15179 0.78417 0.0
N219 N 0.81861 0.10671 0.78022 0.0
C220 C 0.8782 0.89038 0.80682 0.0
C221 C 0.90339 0.80986 0.78707 0.0
C222 C 0.83219 0.83831 0.82275 0.0
N223 N 0.91165 0.87529 0.78906 0.0
C224 C 0.85771 0.75594 0.80271 0.0
C225 C 0.82035 0.76965 0.82054 0.0
H226 H 0.88684 0.94298 0.80857 0.0
H227 H 0.93153 0.79905 0.77323 0.0
C228 C 0.87522 0.99903 0.69957 0.0
N229 N 0.91077 0.04842 0.71689 0.0
C230 C 0.82845 0.00511 0.68406 0.0
C231 C 0.85757 0.11476 0.70355 0.0
C232 C 0.90386 0.1064 0.71881 0.0
C233 C 0.81811 0.06287 0.6862 0.0
H234 H 0.88272 0.95436 0.69787 0.0
H235 H 0.93352 0.1459 0.73233 0.0
O236 O 0.07453 0.99458 0.77178 0.0
O237 O 0.07417 0.09125 0.73321 0.0
O238 O 0.95717 0.93557 0.73178 0.0
O239 O 0.95847 0.0343 0.77381 0.0
H240 H 0.06887 1.00302 0.81981 0.0
H241 H 0.07998 0.88034 0.76065 0.0
H242 H 0.06802 0.91648 0.84897 0.0
H243 H 0.07983 0.79642 0.79085 0.0
H244 H 0.08201 0.29596 0.71421 0.0
H245 H 0.06555 0.07594 0.68523 0.0
H246 H 0.0823 0.21216 0.74436 0.0
H247 H 0.06467 0.16172 0.65613 0.0
H248 H 0.26364 0.96399 0.71376 0.0
H249 H 0.1206 0.93792 0.65547 0.0
H250 H 0.12384 0.19562 0.84934 0.0
H251 H 0.26679 0.31105 0.79079 0.0
H252 H 0.82 0.87393 0.73884 0.0
H253 H 0.98993 0.83862 0.72025 0.0
H254 H 0.73737 0.74586 0.73528 0.0
H255 H 0.90427 0.71132 0.71674 0.0
H256 H 0.82105 0.95836 0.76746 0.0
H257 H 0.99157 0.1643 0.78504 0.0
H258 H 0.73848 1.00375 0.77129 0.0
H259 H 0.90597 0.20589 0.78885 0.0
H260 H 0.80582 0.85169 0.83663 0.0
H261 H 0.85025 0.70378 0.80042 0.0
H262 H 0.80036 0.96468 0.67053 0.0
H263 H 0.85129 0.16019 0.70576 0.0
C264 C 0.96349 0.57017 0.28309 0.0
C265 C 0.95666 0.40043 0.22355 0.0
O266 O 0.02383 0.58108 0.27628 0.0
Zn267 Zn 0.06934 0.53814 0.2527 0.0
O268 O 0.90831 0.51812 0.27441 0.0
Zn269 Zn 0.95554 0.48366 0.25294 0.0
O270 O 1.00267 0.44592 0.27812 0.0
O271 O 0.11819 0.50932 0.27564 0.0
O272 O 0.90352 0.40227 0.23182 0.0
O273 O 0.01863 0.44735 0.23 0.0
O274 O 0.1194 0.61493 0.22934 0.0
O275 O 1.0042 0.5656 0.22703 0.0
C276 C 0.06344 0.45858 0.28515 0.0
C277 C 0.06533 0.61163 0.21958 0.0
C278 C 0.61476 0.06262 0.61951 0.0
C279 C 0.4637 0.06385 0.55389 0.0
O280 O 0.56829 1.00175 0.61205 0.0
Zn281 Zn 0.48641 0.95424 0.58616 0.0
O282 O 0.61843 0.11687 0.60982 0.0
Zn283 Zn 0.541 0.06759 0.5866 0.0
O284 O 0.45012 0.01729 0.60916 0.0
O285 O 0.40435 0.90228 0.60704 0.0
O286 O 0.51252 0.11784 0.56444 0.0
O287 O 0.45057 1.00247 0.56037 0.0
O288 O 0.52073 0.90644 0.56511 0.0
O289 O 0.58196 0.02191 0.56195 0.0
C290 C 0.4028 0.95538 0.61545 0.0
C291 C 0.57077 0.96125 0.55542 0.0
C292 C 0.46104 0.40344 0.95002 0.0
C293 C 0.61757 0.56549 0.88744 0.0
O294 O 0.44638 0.45063 0.94361 0.0
Zn295 Zn 0.4859 0.54009 0.92012 0.0
O296 O 0.51472 0.40373 0.94117 0.0
Zn297 Zn 0.54266 0.48337 0.91941 0.0
O298 O 0.58084 0.56738 0.94467 0.0
O299 O 0.51716 0.61899 0.94282 0.0
O300 O 0.62159 0.51462 0.8967 0.0
O301 O 0.56994 0.57825 0.89486 0.0
O302 O 0.40619 0.51211 0.89837 0.0
O303 O 0.45314 0.44382 0.89594 0.0
C304 C 0.56805 0.61498 0.95209 0.0
C305 C 0.40591 0.45846 0.88953 0.0
C306 C 0.99418 0.26779 0.19444 0.0
C307 C 0.94719 0.2436 0.17477 0.0
H308 H 0.03385 0.33674 0.22511 0.0
C309 C 0.89988 0.26846 0.17188 0.0
H310 H 0.03146 0.24981 0.19696 0.0
C311 C 0.90016 0.31736 0.18839 0.0
C312 C 0.94919 0.34335 0.2075 0.0
H313 H 0.86315 0.25039 0.1568 0.0
H314 H 0.86414 0.3368 0.18569 0.0
C315 C 0.99568 0.31767 0.21046 0.0
C316 C 0.67515 0.89873 0.51833 0.0
C317 C 0.71463 0.9571 0.50316 0.0
H318 H 0.59715 0.85335 0.54658 0.0
C319 C 0.70409 0.01479 0.50474 0.0
H320 H 0.68208 0.85343 0.5174 0.0
C321 C 0.65637 0.01497 0.5214 0.0
C322 C 0.61732 0.95719 0.5368 0.0
H323 H 0.73423 0.06083 0.4935 0.0
H324 H 0.65055 0.06096 0.52235 0.0
C325 C 0.62632 0.89849 0.53488 0.0
C326 C 0.70296 0.71005 0.8407 0.0
C327 C 0.76717 0.71295 0.83628 0.0
H328 H 0.60582 0.66119 0.85989 0.0
C329 C 0.78012 0.66297 0.84747 0.0
H330 H 0.69054 0.74656 0.83191 0.0
C331 C 0.73083 0.61308 0.86362 0.0
C332 C 0.66788 0.61245 0.86875 0.0
H333 H 0.8292 0.66393 0.84438 0.0
H334 H 0.74289 0.57658 0.8726 0.0
C335 C 0.65415 0.66067 0.8567 0.0
C336 C 0.00943 0.69592 0.17147 0.0
C337 C 0.06994 0.76164 0.1683 0.0
H338 H 0.96118 0.59727 0.18967 0.0
C339 C 0.13202 0.77559 0.18043 0.0
H340 H 0.96129 0.68284 0.16192 0.0
C341 C 0.13218 0.72587 0.19646 0.0
C342 C 0.07028 0.66157 0.2005 0.0
H343 H 0.17952 0.82585 0.17828 0.0
H344 H 0.17976 0.73883 0.20634 0.0
C345 C 0.00956 0.64668 0.18733 0.0
C346 C 0.36101 0.128 0.51685 0.0
C347 C 0.32279 0.07069 0.50111 0.0
H348 H 0.43717 0.17176 0.54569 0.0
C349 C 0.33482 0.01384 0.50198 0.0
H350 H 0.35302 0.1727 0.51647 0.0
C351 C 0.38224 0.01315 0.51864 0.0
C352 C 0.41945 0.06956 0.53475 0.0
H353 H 0.30572 0.96858 0.49031 0.0
H354 H 0.38886 0.9676 0.51918 0.0
C355 C 0.40947 0.12773 0.53341 0.0
C356 C 0.27482 0.28918 0.85947 0.0
C357 C 0.25002 0.31249 0.84015 0.0
H358 H 0.34398 0.31763 0.89004 0.0
C359 C 0.27439 0.38468 0.83767 0.0
H360 H 0.25715 0.23387 0.86166 0.0
C361 C 0.32323 0.43282 0.85432 0.0
C362 C 0.34966 0.40931 0.87312 0.0
H363 H 0.2558 0.40368 0.82287 0.0
H364 H 0.34209 0.48831 0.852 0.0
C365 C 0.32464 0.33711 0.87561 0.0
C366 C 0.77816 0.1289 0.65899 0.0
C367 C 0.76442 0.0666 0.67088 0.0
H368 H 0.74139 0.17701 0.63324 0.0
C369 C 0.69907 0.00586 0.66736 0.0
H370 H 0.82812 0.17659 0.6614 0.0
C371 C 0.64999 0.00609 0.65143 0.0
C372 C 0.66466 0.06713 0.63854 0.0
H373 H 0.68612 0.95751 0.67672 0.0
H374 H 0.60086 0.95757 0.64885 0.0
C375 C 0.72861 0.12916 0.6429 0.0
C376 C 0.71257 0.70025 0.99887 0.0
C377 C 0.71557 0.76449 1.00326 0.0
H378 H 0.66361 0.60311 0.97971 0.0
C379 C 0.66566 0.7775 0.99203 0.0
H380 H 0.74901 0.68778 1.00769 0.0
C381 C 0.61575 0.72824 0.97587 0.0
C382 C 0.61503 0.66527 0.97078 0.0
H383 H 0.66669 0.82661 0.99509 0.0
H384 H 0.57931 0.74035 0.96687 0.0
C385 C 0.66317 0.65147 0.98287 0.0
C386 C 0.02186 0.73211 0.32175 0.0
C387 C 0.95907 0.71992 0.33265 0.0
H388 H 0.07229 0.69486 0.29788 0.0
C389 C 0.89671 0.65691 0.32749 0.0
H390 H 0.07094 0.77954 0.32567 0.0
C391 C 0.89727 0.60771 0.3113 0.0
C392 C 0.9604 0.62042 0.30035 0.0
H393 H 0.84752 0.64627 0.33566 0.0
H394 H 0.84855 0.55988 0.30743 0.0
C395 C 0.02258 0.68309 0.30591 0.0
C396 C 0.27105 0.9935 0.64502 0.0
C397 C 0.24621 0.9457 0.66444 0.0
H398 H 0.34046 0.0339 0.61448 0.0
C399 C 0.27036 0.89774 0.66701 0.0
H400 H 0.25359 0.03127 0.64275 0.0
C401 C 0.31918 0.89816 0.65042 0.0
C402 C 0.34581 0.94794 0.63156 0.0
H403 H 0.25177 0.86039 0.6819 0.0
H404 H 0.33804 0.86159 0.65288 0.0
C405 C 0.32087 0.99513 0.62893 0.0
C406 C 0.29175 0.27242 0.98012 0.0
C407 C 0.31512 0.24763 0.99942 0.0
H408 H 0.32015 0.34155 0.94955 0.0
C409 C 0.38735 0.27199 1.00188 0.0
H410 H 0.23641 0.25475 0.97795 0.0
C411 C 0.43548 0.32082 0.98523 0.0
C412 C 0.41191 0.34724 0.96644 0.0
H413 H 0.40639 0.25341 0.01667 0.0
H414 H 0.491 0.33967 0.98753 0.0
C415 C 0.33967 0.32223 0.96398 0.0
C416 C 1.00676 0.30141 0.32611 0.0
C417 C 0.07068 0.31187 0.33535 0.0
H418 H 0.95453 0.33928 0.30347 0.0
C419 C 0.13319 0.37317 0.32889 0.0
H420 H 0.95767 0.25529 0.33109 0.0
C421 C 0.13165 0.42196 0.31276 0.0
C422 C 0.06743 0.4105 0.30319 0.0
H423 H 0.1832 0.38244 0.33583 0.0
H424 H 0.18053 0.46804 0.30763 0.0
C425 C 1.0051 0.35003 0.31035 0.0
loop_
_geom_bond_atom_site_label_1
_geom_bond_atom_site_label_2
_geom_bond_distance
_geom_bond_site_symmetry_2
_ccdc_geom_bond_type
Li0 N17 1.990 . S
Li0 O60 1.956 . S
Li0 O61 1.970 1_455 S
Li0 O62 1.961 1_545 S
Li1 N25 1.990 . S
Li1 O60 1.970 1_655 S
Li1 O61 1.956 . S
Li1 O63 1.961 1_545 S
Li2 N47 1.990 . S
Li2 O60 1.961 1_565 S
Li2 O62 1.956 . S
Li2 O63 1.970 1_455 S
Li3 N53 1.990 . S
Li3 O61 1.961 1_565 S
Li3 O62 1.970 1_655 S
Li3 O63 1.956 . S
C4 C6 1.348 . S
C4 C7 1.356 . S
C4 O60 1.325 . S
N5 C8 1.314 . S
N5 C9 1.279 . S
C6 C4 1.348 . S
C6 C8 1.353 . S
C6 H64 0.929 . S
C7 C4 1.356 . S
C7 C9 1.358 . S
C7 H65 0.930 . S
C8 N5 1.314 . S
C8 C6 1.353 . S
C8 H66 0.930 . S
C9 N5 1.279 . S
C9 C7 1.358 . S
C9 H67 0.930 . S
C10 C13 1.348 1_655 S
C10 C14 1.356 . S
C10 O61 1.325 . S
C11 N12 1.279 . S
C11 C14 1.358 . S
C11 H68 0.930 . S
N12 C11 1.279 . S
N12 C15 1.314 . S
C13 C10 1.348 1_455 S
C13 C15 1.353 1_455 S
C13 H69 0.929 . S
C14 C10 1.356 . S
C14 C11 1.358 . S
C14 H70 0.930 . S
C15 N12 1.314 . S
C15 C13 1.353 1_655 S
C15 H71 0.930 1_655 S
C16 N17 1.314 . S
C16 C21 1.353 . S
C16 H22 0.930 . S
N17 Li0 1.990 . S
N17 C16 1.314 . S
N17 C19 1.279 . S
C18 C19 1.358 . S
C18 C20 1.356 . S
C18 H72 0.930 . S
C19 N17 1.279 . S
C19 C18 1.358 . S
C19 H23 0.930 . S
C20 C18 1.356 . S
C20 C21 1.348 . S
C21 C16 1.353 . S
C21 C20 1.348 . S
C21 H73 0.929 1_554 S
H22 C16 0.930 . S
H23 C19 0.930 . S
C24 N25 1.314 . S
C24 C26 1.353 . S
C24 H30 0.930 . S
N25 Li1 1.990 . S
N25 C24 1.314 . S
N25 C28 1.279 . S
C26 C24 1.353 . S
C26 C29 1.348 . S
C26 H74 0.929 . S
C27 C28 1.358 . S
C27 C29 1.356 . S
C27 H75 0.930 . S
C28 N25 1.279 . S
C28 C27 1.358 . S
C28 H31 0.930 . S
C29 C26 1.348 . S
C29 C27 1.356 . S
H30 C24 0.930 . S
H31 C28 0.930 . S
C32 C34 1.348 1_455 S
C32 C35 1.356 . S
C32 O62 1.325 . S
N33 C36 1.314 . S
N33 C37 1.279 . S
C34 C32 1.348 1_655 S
C34 C36 1.353 1_655 S
C34 H76 0.929 . S
C35 C32 1.356 . S
C35 C37 1.358 . S
C35 H77 0.930 . S
C36 N33 1.314 . S
C36 C34 1.353 1_455 S
C36 H78 0.930 1_455 S
C37 N33 1.279 . S
C37 C35 1.358 . S
C37 H79 0.930 . S
C38 C39 1.348 . S
C38 C40 1.356 . S
C38 O63 1.325 . S
C39 C38 1.348 . S
C39 C41 1.353 . S
C39 H80 0.929 . S
C40 C38 1.356 . S
C40 C42 1.358 . S
C40 H81 0.930 . S
C41 C39 1.353 . S
C41 N43 1.314 . S
C41 H82 0.930 . S
C42 C40 1.358 . S
C42 N43 1.279 . S
C42 H83 0.930 . S
N43 C41 1.314 . S
N43 C42 1.279 . S
C44 C46 1.353 . S
C44 N47 1.314 . S
C44 H50 0.930 . S
C45 N47 1.279 . S
C45 C48 1.358 . S
C45 H51 0.930 . S
C46 C44 1.353 . S
C46 C49 1.348 . S
C46 H84 0.929 . S
N47 Li2 1.990 . S
N47 C44 1.314 . S
N47 C45 1.279 . S
C48 C45 1.358 . S
C48 C49 1.356 . S
C48 H85 0.930 . S
C49 C46 1.348 . S
C49 C48 1.356 . S
H50 C44 0.930 . S
H51 C45 0.930 . S
C52 N53 1.314 . S
C52 C54 1.353 . S
C52 H58 0.930 . S
N53 Li3 1.990 . S
N53 C52 1.314 . S
N53 C56 1.279 . S
C54 C52 1.353 . S
C54 C57 1.348 . S
C54 H86 0.929 1_554 S
C55 C56 1.358 . S
C55 C57 1.356 . S
C55 H87 0.930 . S
C56 N53 1.279 . S
C56 C55 1.358 . S
C56 H59 0.930 . S
C57 C54 1.348 . S
C57 C55 1.356 . S
H58 C52 0.930 . S
H59 C56 0.930 . S
O60 Li0 1.956 . S
O60 Li1 1.970 1_455 S
O60 Li2 1.961 1_545 S
O60 C4 1.325 . S
O61 Li0 1.970 1_655 S
O61 Li1 1.956 . S
O61 Li3 1.961 1_545 S
O61 C10 1.325 . S
O62 Li0 1.961 1_565 S
O62 Li2 1.956 . S
O62 Li3 1.970 1_455 S
O62 C32 1.325 . S
O63 Li1 1.961 1_565 S
O63 Li2 1.970 1_655 S
O63 Li3 1.956 . S
O63 C38 1.325 . S
H64 C6 0.929 . S
H65 C7 0.930 . S
H66 C8 0.930 . S
H67 C9 0.930 . S
H68 C11 0.930 . S
H69 C13 0.929 . S
H70 C14 0.930 . S
H71 C15 0.930 1_455 S
H72 C18 0.930 . S
H73 C21 0.929 1_556 S
H74 C26 0.929 . S
H75 C27 0.930 . S
H76 C34 0.929 . S
H77 C35 0.930 . S
H78 C36 0.930 1_655 S
H79 C37 0.930 . S
H80 C39 0.929 . S
H81 C40 0.930 . S
H82 C41 0.930 . S
H83 C42 0.930 . S
H84 C46 0.929 . S
H85 C48 0.930 . S
H86 C54 0.929 1_556 S
H87 C55 0.930 . S
Li88 N105 1.990 . S
Li88 O148 1.956 . S
Li88 O149 1.970 1_665 S
Li88 O150 1.961 . S
Li89 N113 1.990 . S
Li89 O148 1.970 1_445 S
Li89 O149 1.956 . S
Li89 O151 1.961 . S
Li90 N135 1.990 . S
Li90 O148 1.961 . S
Li90 O150 1.956 . S
Li90 O151 1.970 1_665 S
Li91 N141 1.990 . S
Li91 O149 1.961 . S
Li91 O150 1.970 1_445 S
Li91 O151 1.956 . S
C92 C94 1.348 1_655 S
C92 C95 1.356 . S
C92 O148 1.325 . S
N93 C96 1.314 . S
N93 C97 1.279 . S
C94 C92 1.348 1_455 S
C94 C96 1.353 1_455 S
C94 H152 0.929 . S
C95 C92 1.356 . S
C95 C97 1.358 . S
C95 H153 0.930 . S
C96 N93 1.314 . S
C96 C94 1.353 1_655 S
C96 H154 0.930 1_655 S
C97 N93 1.279 . S
C97 C95 1.358 . S
C97 H155 0.930 . S
C98 C101 1.348 1_545 S
C98 C102 1.356 . S
C98 O149 1.325 . S
C99 N100 1.279 . S
C99 C102 1.358 . S
C99 H156 0.930 . S
N100 C99 1.279 . S
N100 C103 1.314 . S
C101 C98 1.348 1_565 S
C101 C103 1.353 1_565 S
C101 H157 0.929 . S
C102 C98 1.356 . S
C102 C99 1.358 . S
C102 H158 0.930 . S
C103 N100 1.314 . S
C103 C101 1.353 1_545 S
C103 H159 0.930 1_545 S
C104 N105 1.314 . S
C104 C109 1.353 . S
C104 H110 0.930 . S
N105 Li88 1.990 . S
N105 C104 1.314 . S
N105 C107 1.279 . S
C106 C107 1.358 . S
C106 C108 1.356 . S
C106 H160 0.930 . S
C107 N105 1.279 . S
C107 C106 1.358 . S
C107 H111 0.930 . S
C108 C106 1.356 . S
C108 C109 1.348 . S
C109 C104 1.353 . S
C109 C108 1.348 . S
C109 H161 0.929 . S
H110 C104 0.930 . S
H111 C107 0.930 . S
C112 N113 1.314 . S
C112 C114 1.353 . S
C112 H118 0.930 . S
N113 Li89 1.990 . S
N113 C112 1.314 . S
N113 C116 1.279 . S
C114 C112 1.353 . S
C114 C117 1.348 . S
C114 H162 0.929 . S
C115 C116 1.358 . S
C115 C117 1.356 . S
C115 H163 0.930 . S
C116 N113 1.279 . S
C116 C115 1.358 . S
C116 H119 0.930 . S
C117 C114 1.348 . S
C117 C115 1.356 . S
H118 C112 0.930 . S
H119 C116 0.930 . S
C120 C122 1.348 1_565 S
C120 C123 1.356 . S
C120 O150 1.325 . S
N121 C124 1.314 . S
N121 C125 1.279 . S
C122 C120 1.348 1_545 S
C122 C124 1.353 1_545 S
C122 H164 0.929 . S
C123 C120 1.356 . S
C123 C125 1.358 . S
C123 H165 0.930 . S
C124 N121 1.314 . S
C124 C122 1.353 1_565 S
C124 H166 0.930 1_565 S
C125 N121 1.279 . S
C125 C123 1.358 . S
C125 H167 0.930 . S
C126 C127 1.348 1_455 S
C126 C128 1.356 . S
C126 O151 1.325 . S
C127 C126 1.348 1_655 S
C127 C129 1.353 1_655 S
C127 H168 0.929 . S
C128 C126 1.356 . S
C128 C130 1.358 . S
C128 H169 0.930 . S
C129 C127 1.353 1_455 S
C129 N131 1.314 . S
C129 H170 0.930 1_455 S
C130 C128 1.358 . S
C130 N131 1.279 . S
C130 H171 0.930 . S
N131 C129 1.314 . S
N131 C130 1.279 . S
C132 C134 1.353 . S
C132 N135 1.314 . S
C132 H138 0.930 . S
C133 N135 1.279 . S
C133 C136 1.358 . S
C133 H139 0.930 . S
C134 C132 1.353 . S
C134 C137 1.348 . S
C134 H172 0.929 . S
N135 Li90 1.990 . S
N135 C132 1.314 . S
N135 C133 1.279 . S
C136 C133 1.358 . S
C136 C137 1.356 . S
C136 H173 0.930 . S
C137 C134 1.348 . S
C137 C136 1.356 . S
H138 C132 0.930 . S
H139 C133 0.930 . S
C140 N141 1.314 . S
C140 C142 1.353 . S
C140 H146 0.930 . S
N141 Li91 1.990 . S
N141 C140 1.314 . S
N141 C144 1.279 . S
C142 C140 1.353 . S
C142 C145 1.348 . S
C142 H174 0.929 . S
C143 C144 1.358 . S
C143 C145 1.356 . S
C143 H175 0.930 . S
C144 N141 1.279 . S
C144 C143 1.358 . S
C144 H147 0.930 . S
C145 C142 1.348 . S
C145 C143 1.356 . S
H146 C140 0.930 . S
H147 C144 0.930 . S
O148 Li88 1.956 . S
O148 Li89 1.970 1_665 S
O148 Li90 1.961 . S
O148 C92 1.325 . S
O149 Li88 1.970 1_445 S
O149 Li89 1.956 . S
O149 Li91 1.961 . S
O149 C98 1.325 . S
O150 Li88 1.961 . S
O150 Li90 1.956 . S
O150 Li91 1.970 1_665 S
O150 C120 1.325 . S
O151 Li89 1.961 . S
O151 Li90 1.970 1_445 S
O151 Li91 1.956 . S
O151 C126 1.325 . S
H152 C94 0.929 . S
H153 C95 0.930 . S
H154 C96 0.930 1_455 S
H155 C97 0.930 . S
H156 C99 0.930 . S
H157 C101 0.929 . S
H158 C102 0.930 . S
H159 C103 0.930 1_565 S
H160 C106 0.930 . S
H161 C109 0.929 . S
H162 C114 0.929 . S
H163 C115 0.930 . S
H164 C122 0.929 . S
H165 C123 0.930 . S
H166 C124 0.930 1_545 S
H167 C125 0.930 . S
H168 C127 0.929 . S
H169 C128 0.930 . S
H170 C129 0.930 1_655 S
H171 C130 0.930 . S
H172 C134 0.929 . S
H173 C136 0.930 . S
H174 C142 0.929 . S
H175 C143 0.930 . S
Li176 N193 1.990 . S
Li176 O236 1.956 . S
Li176 O237 1.970 1_565 S
Li176 O238 1.961 1_455 S
Li177 N201 1.990 . S
Li177 O236 1.970 1_545 S
Li177 O237 1.956 . S
Li177 O239 1.961 1_455 S
Li178 N223 1.990 . S
Li178 O236 1.961 1_655 S
Li178 O238 1.956 . S
Li178 O239 1.970 1_565 S
Li179 N229 1.990 . S
Li179 O237 1.961 1_655 S
Li179 O238 1.970 1_545 S
Li179 O239 1.956 . S
C180 C182 1.348 1_565 S
C180 C183 1.356 . S
C180 O236 1.325 . S
N181 C184 1.314 . S
N181 C185 1.279 . S
C182 C180 1.348 1_545 S
C182 C184 1.353 1_545 S
C182 H240 0.929 . S
C183 C180 1.356 . S
C183 C185 1.358 . S
C183 H241 0.930 . S
C184 N181 1.314 . S
C184 C182 1.353 1_565 S
C184 H242 0.930 1_565 S
C185 N181 1.279 . S
C185 C183 1.358 . S
C185 H243 0.930 . S
C186 C189 1.348 . S
C186 C190 1.356 . S
C186 O237 1.325 . S
C187 N188 1.279 . S
C187 C190 1.358 . S
C187 H244 0.930 . S
N188 C187 1.279 . S
N188 C191 1.314 . S
C189 C186 1.348 . S
C189 C191 1.353 . S
C189 H245 0.929 . S
C190 C186 1.356 . S
C190 C187 1.358 . S
C190 H246 0.930 . S
C191 N188 1.314 . S
C191 C189 1.353 . S
C191 H247 0.930 . S
C192 N193 1.314 . S
C192 C197 1.353 . S
C192 H198 0.930 . S
N193 Li176 1.990 . S
N193 C192 1.314 . S
N193 C195 1.279 . S
C194 C195 1.358 . S
C194 C196 1.356 . S
C194 H248 0.930 . S
C195 N193 1.279 . S
C195 C194 1.358 . S
C195 H199 0.930 . S
C196 C194 1.356 . S
C196 C197 1.348 . S
C197 C192 1.353 . S
C197 C196 1.348 . S
C197 H249 0.929 . S
H198 C192 0.930 . S
H199 C195 0.930 . S
C200 N201 1.314 . S
C200 C202 1.353 . S
C200 H206 0.930 . S
N201 Li177 1.990 . S
N201 C200 1.314 . S
N201 C204 1.279 . S
C202 C200 1.353 . S
C202 C205 1.348 . S
C202 H250 0.929 . S
C203 C204 1.358 . S
C203 C205 1.356 . S
C203 H251 0.930 . S
C204 N201 1.279 . S
C204 C203 1.358 . S
C204 H207 0.930 . S
C205 C202 1.348 . S
C205 C203 1.356 . S
H206 C200 0.930 . S
H207 C204 0.930 . S
C208 C210 1.348 . S
C208 C211 1.356 . S
C208 O238 1.325 . S
N209 C212 1.314 . S
N209 C213 1.279 . S
C210 C208 1.348 . S
C210 C212 1.353 . S
C210 H252 0.929 . S
C211 C208 1.356 . S
C211 C213 1.358 . S
C211 H253 0.930 . S
C212 N209 1.314 . S
C212 C210 1.353 . S
C212 H254 0.930 . S
C213 N209 1.279 . S
C213 C211 1.358 . S
C213 H255 0.930 . S
C214 C215 1.348 1_545 S
C214 C216 1.356 . S
C214 O239 1.325 . S
C215 C214 1.348 1_565 S
C215 C217 1.353 1_565 S
C215 H256 0.929 . S
C216 C214 1.356 . S
C216 C218 1.358 . S
C216 H257 0.930 . S
C217 C215 1.353 1_545 S
C217 N219 1.314 . S
C217 H258 0.930 1_545 S
C218 C216 1.358 . S
C218 N219 1.279 . S
C218 H259 0.930 . S
N219 C217 1.314 . S
N219 C218 1.279 . S
C220 C222 1.353 . S
C220 N223 1.314 . S
C220 H226 0.930 . S
C221 N223 1.279 . S
C221 C224 1.358 . S
C221 H227 0.930 . S
C222 C220 1.353 . S
C222 C225 1.348 . S
C222 H260 0.929 . S
N223 Li178 1.990 . S
N223 C220 1.314 . S
N223 C221 1.279 . S
C224 C221 1.358 . S
C224 C225 1.356 . S
C224 H261 0.930 . S
C225 C222 1.348 . S
C225 C224 1.356 . S
H226 C220 0.930 . S
H227 C221 0.930 . S
C228 N229 1.314 . S
C228 C230 1.353 . S
C228 H234 0.930 . S
N229 Li179 1.990 . S
N229 C228 1.314 . S
N229 C232 1.279 . S
C230 C228 1.353 . S
C230 C233 1.348 . S
C230 H262 0.929 . S
C231 C232 1.358 . S
C231 C233 1.356 . S
C231 H263 0.930 . S
C232 N229 1.279 . S
C232 C231 1.358 . S
C232 H235 0.930 . S
C233 C230 1.348 . S
C233 C231 1.356 . S
H234 C228 0.930 . S
H235 C232 0.930 . S
O236 Li176 1.956 . S
O236 Li177 1.970 1_565 S
O236 Li178 1.961 1_455 S
O236 C180 1.325 . S
O237 Li176 1.970 1_545 S
O237 Li177 1.956 . S
O237 Li179 1.961 1_455 S
O237 C186 1.325 . S
O238 Li176 1.961 1_655 S
O238 Li178 1.956 . S
O238 Li179 1.970 1_565 S
O238 C208 1.325 . S
O239 Li177 1.961 1_655 S
O239 Li178 1.970 1_545 S
O239 Li179 1.956 . S
O239 C214 1.325 . S
H240 C182 0.929 . S
H241 C183 0.930 . S
H242 C184 0.930 1_545 S
H243 C185 0.930 . S
H244 C187 0.930 . S
H245 C189 0.929 . S
H246 C190 0.930 . S
H247 C191 0.930 . S
H248 C194 0.930 . S
H249 C197 0.929 . S
H250 C202 0.929 . S
H251 C203 0.930 . S
H252 C210 0.929 . S
H253 C211 0.930 . S
H254 C212 0.930 . S
H255 C213 0.930 . S
H256 C215 0.929 . S
H257 C216 0.930 . S
H258 C217 0.930 1_565 S
H259 C218 0.930 . S
H260 C222 0.929 . S
H261 C224 0.930 . S
H262 C230 0.929 . S
H263 C231 0.930 . S
C264 O266 1.252 . S
C264 O268 1.255 1_455 S
C265 O272 1.248 . S
C265 O273 1.257 1_655 S
O266 C264 1.252 . S
O266 Zn267 2.028 . S
Zn267 O266 2.028 . S
Zn267 O271 2.035 . S
Zn267 O273 2.035 . S
Zn267 O274 2.028 . S
O268 C264 1.255 1_655 S
O268 Zn269 2.035 . S
Zn269 O268 2.035 . S
Zn269 O270 2.028 . S
Zn269 O272 2.028 . S
Zn269 O275 2.035 . S
O270 Zn269 2.028 . S
O270 C276 1.248 . S
O271 Zn267 2.035 . S
O271 C276 1.257 1_455 S
O272 C265 1.248 . S
O272 Zn269 2.028 . S
O273 C265 1.257 1_455 S
O273 Zn267 2.035 . S
O274 Zn267 2.028 . S
O274 C277 1.252 . S
O275 Zn269 2.035 . S
O275 C277 1.255 1_655 S
C276 O270 1.248 . S
C276 O271 1.257 1_655 S
C277 O274 1.252 . S
C277 O275 1.255 1_455 S
C278 O280 1.247 . S
C278 O282 1.257 1_565 S
C279 O286 1.250 . S
C279 O287 1.253 1_545 S
O280 C278 1.247 . S
O280 Zn281 2.028 . S
Zn281 O280 2.028 . S
Zn281 O285 2.035 . S
Zn281 O287 2.035 . S
Zn281 O288 2.028 . S
O282 C278 1.257 1_545 S
O282 Zn283 2.035 . S
Zn283 O282 2.035 . S
Zn283 O284 2.028 . S
Zn283 O286 2.028 . S
Zn283 O289 2.035 . S
O284 Zn283 2.028 . S
O284 C290 1.250 . S
O285 Zn281 2.035 . S
O285 C290 1.253 1_565 S
O286 C279 1.250 . S
O286 Zn283 2.028 . S
O287 C279 1.253 1_565 S
O287 Zn281 2.035 . S
O288 Zn281 2.028 . S
O288 C291 1.247 . S
O289 Zn283 2.035 . S
O289 C291 1.257 1_545 S
C290 O284 1.250 . S
C290 O285 1.253 1_545 S
C291 O288 1.247 . S
C291 O289 1.257 1_565 S
C292 O294 1.247 . S
C292 O296 1.258 . S
C293 O300 1.247 . S
C293 O301 1.258 . S
O294 C292 1.247 . S
O294 Zn295 2.028 . S
Zn295 O294 2.028 . S
Zn295 O299 2.035 . S
Zn295 O301 2.035 . S
Zn295 O302 2.028 . S
O296 C292 1.258 . S
O296 Zn297 2.035 . S
Zn297 O296 2.035 . S
Zn297 O298 2.028 . S
Zn297 O300 2.028 . S
Zn297 O303 2.035 . S
O298 Zn297 2.028 . S
O298 C304 1.247 . S
O299 Zn295 2.035 . S
O299 C304 1.258 . S
O300 C293 1.247 . S
O300 Zn297 2.028 . S
O301 C293 1.258 . S
O301 Zn295 2.035 . S
O302 Zn295 2.028 . S
O302 C305 1.247 . S
O303 Zn297 2.035 . S
O303 C305 1.258 . S
C304 O298 1.247 . S
C304 O299 1.258 . S
C305 O302 1.247 . S
C305 O303 1.258 . S
C306 C307 1.387 . S
C306 H310 0.950 . S
C306 C315 1.390 . S
C307 C306 1.387 . S
C307 C309 1.387 . S
H308 C315 0.950 . S
C309 C307 1.387 . S
C309 C311 1.390 . S
C309 H313 0.950 . S
H310 C306 0.950 . S
C311 C309 1.390 . S
C311 C312 1.387 . S
C311 H314 0.950 . S
C312 C311 1.387 . S
C312 C315 1.387 . S
H313 C309 0.950 . S
H314 C311 0.950 . S
C315 C306 1.390 . S
C315 H308 0.950 . S
C315 C312 1.387 . S
C316 C317 1.387 . S
C316 H320 0.950 . S
C316 C325 1.390 . S
C317 C316 1.387 . S
C317 C319 1.387 1_565 S
H318 C325 0.950 . S
C319 C317 1.387 1_545 S
C319 C321 1.390 . S
C319 H323 0.950 . S
H320 C316 0.950 . S
C321 C319 1.390 . S
C321 C322 1.387 1_545 S
C321 H324 0.950 . S
C322 C321 1.387 1_565 S
C322 C325 1.387 . S
H323 C319 0.950 . S
H324 C321 0.950 . S
C325 C316 1.390 . S
C325 H318 0.950 . S
C325 C322 1.387 . S
C326 C327 1.387 . S
C326 H330 0.950 . S
C326 C335 1.390 . S
C327 C326 1.387 . S
C327 C329 1.387 . S
H328 C335 0.950 . S
C329 C327 1.387 . S
C329 C331 1.390 . S
C329 H333 0.950 . S
H330 C326 0.950 . S
C331 C329 1.390 . S
C331 C332 1.387 . S
C331 H334 0.950 . S
C332 C331 1.387 . S
C332 C335 1.387 . S
H333 C329 0.950 . S
H334 C331 0.950 . S
C335 C326 1.390 . S
C335 H328 0.950 . S
C335 C332 1.387 . S
C336 C337 1.387 1_655 S
C336 H340 0.950 . S
C336 C345 1.390 . S
C337 C336 1.387 1_455 S
C337 C339 1.387 . S
H338 C345 0.950 . S
C339 C337 1.387 . S
C339 C341 1.390 . S
C339 H343 0.950 . S
H340 C336 0.950 . S
C341 C339 1.390 . S
C341 C342 1.387 . S
C341 H344 0.950 . S
C342 C341 1.387 . S
C342 C345 1.387 1_455 S
H343 C339 0.950 . S
H344 C341 0.950 . S
C345 C336 1.390 . S
C345 H338 0.950 . S
C345 C342 1.387 1_655 S
C346 C347 1.387 . S
C346 H350 0.950 . S
C346 C355 1.390 . S
C347 C346 1.387 . S
C347 C349 1.387 1_545 S
H348 C355 0.950 . S
C349 C347 1.387 1_565 S
C349 C351 1.390 . S
C349 H353 0.950 . S
H350 C346 0.950 . S
C351 C349 1.390 . S
C351 C352 1.387 1_565 S
C351 H354 0.950 . S
C352 C351 1.387 1_545 S
C352 C355 1.387 . S
H353 C349 0.950 . S
H354 C351 0.950 . S
C355 C346 1.390 . S
C355 H348 0.950 . S
C355 C352 1.387 . S
C356 C357 1.387 . S
C356 H360 0.950 . S
C356 C365 1.390 . S
C357 C356 1.387 . S
C357 C359 1.387 . S
H358 C365 0.950 . S
C359 C357 1.387 . S
C359 C361 1.390 . S
C359 H363 0.950 . S
H360 C356 0.950 . S
C361 C359 1.390 . S
C361 C362 1.387 . S
C361 H364 0.950 . S
C362 C361 1.387 . S
C362 C365 1.387 . S
H363 C359 0.950 . S
H364 C361 0.950 . S
C365 C356 1.390 . S
C365 H358 0.950 . S
C365 C362 1.387 . S
C366 C367 1.387 . S
C366 H370 0.950 . S
C366 C375 1.390 . S
C367 C366 1.387 . S
C367 C369 1.387 1_545 S
H368 C375 0.950 . S
C369 C367 1.387 1_565 S
C369 C371 1.390 . S
C369 H373 0.950 . S
H370 C366 0.950 . S
C371 C369 1.390 . S
C371 C372 1.387 1_565 S
C371 H374 0.950 . S
C372 C371 1.387 1_545 S
C372 C375 1.387 . S
H373 C369 0.950 . S
H374 C371 0.950 . S
C375 C366 1.390 . S
C375 H368 0.950 . S
C375 C372 1.387 . S
C376 C377 1.387 . S
C376 H380 0.950 . S
C376 C385 1.390 . S
C377 C376 1.387 . S
C377 C379 1.387 . S
H378 C385 0.950 . S
C379 C377 1.387 . S
C379 C381 1.390 . S
C379 H383 0.972 . S
H380 C376 0.950 . S
C381 C379 1.390 . S
C381 C382 1.387 . S
C381 H384 0.950 . S
C382 C381 1.387 . S
C382 C385 1.387 . S
H383 C379 0.972 . S
H384 C381 0.950 . S
C385 C376 1.390 . S
C385 H378 0.950 . S
C385 C382 1.387 . S
C386 C387 1.387 . S
C386 H390 0.950 1_655 S
C386 C395 1.390 1_655 S
C387 C386 1.387 . S
C387 C389 1.387 . S
H388 C395 0.950 . S
C389 C387 1.387 . S
C389 C391 1.390 . S
C389 H393 0.950 . S
H390 C386 0.950 1_455 S
C391 C389 1.390 . S
C391 C392 1.387 . S
C391 H394 0.950 . S
C392 C391 1.387 . S
C392 C395 1.387 1_655 S
H393 C389 0.950 . S
H394 C391 0.950 . S
C395 C386 1.390 1_455 S
C395 H388 0.950 . S
C395 C392 1.387 1_455 S
C396 C397 1.387 . S
C396 H400 0.950 . S
C396 C405 1.390 . S
C397 C396 1.387 . S
C397 C399 1.387 . S
H398 C405 0.950 . S
C399 C397 1.387 . S
C399 C401 1.390 . S
C399 H403 0.950 . S
H400 C396 0.950 . S
C401 C399 1.390 . S
C401 C402 1.387 . S
C401 H404 0.950 . S
C402 C401 1.387 . S
C402 C405 1.387 . S
H403 C399 0.950 . S
H404 C401 0.950 . S
C405 C396 1.390 . S
C405 H398 0.950 . S
C405 C402 1.387 . S
C406 C407 1.387 . S
C406 H410 0.950 . S
C406 C415 1.390 . S
C407 C406 1.387 . S
C407 C409 1.387 . S
H408 C415 0.950 . S
C409 C407 1.387 . S
C409 C411 1.390 . S
C409 H413 0.950 . S
H410 C406 0.950 . S
C411 C409 1.390 . S
C411 C412 1.387 . S
C411 H414 0.950 . S
C412 C411 1.387 . S
C412 C415 1.387 . S
H413 C409 0.950 . S
H414 C411 0.950 . S
C415 C406 1.390 . S
C415 H408 0.950 . S
C415 C412 1.387 . S
C416 C417 1.387 . S
C416 H420 0.950 1_455 S
C416 C425 1.390 1_455 S
C417 C416 1.387 . S
C417 C419 1.387 . S
H418 C425 0.950 . S
C419 C417 1.387 . S
C419 C421 1.390 . S
C419 H423 0.950 . S
H420 C416 0.950 1_655 S
C421 C419 1.390 . S
C421 C422 1.387 . S
C421 H424 0.950 . S
C422 C421 1.387 . S
C422 C425 1.387 1_455 S
H423 C419 0.950 . S
H424 C421 0.950 . S
C425 C416 1.390 1_655 S
C425 H418 0.950 . S
C425 C422 1.387 1_655 S
C312 C265 1.548 . S
C307 C29 1.518 . S
C317 C137 1.519 . S
C322 C291 1.550 . S
C327 C225 1.520 . S
C332 C293 1.550 . S
C337 C49 1.519 . S
C342 C277 1.547 . S
C352 C279 1.551 . S
C347 C117 1.518 . S
C357 C205 1.520 . S
C362 C305 1.546 . S
C372 C278 1.549 1_545 S
C367 C233 1.520 . S
C377 C57 1.519 1_556 S
C382 C304 1.551 . S
C392 C264 1.546 1_655 S
C387 C108 1.521 . S
C402 C290 1.551 1_565 S
C397 C196 1.518 . S
C412 C292 1.549 . S
C407 C20 1.517 1_556 S
C417 C145 1.519 . S
C422 C276 1.547 1_455 S
