# Generated by pormake.
# Topology pts, (4,4)-cn, num edge types: 1
# Building blocks:
#     Node 0, Type 0, BuildingBlock: MUDLON_clean_sbu_0, # of connection points: 4
#     Node 1, Type 0, BuildingBlock: MUDLON_clean_sbu_0, # of connection points: 4
#     Node 2, Type 1, BuildingBlock: UXUYUI_clean_sbu_0, # of connection points: 4
#     Node 3, Type 1, BuildingBlock: UXUYUI_clean_sbu_0, # of connection points: 4
#     Edge 4, Type (0, 1), BuildingBlock: ZUJKAS_clean_linker_0, # of connection points: 2
#     Edge 5, Type (0, 1), BuildingBlock: ZUJKAS_clean_linker_0, # of connection points: 2
#     Edge 6, Type (0, 1), BuildingBlock: ZUJKAS_clean_linker_0, # of connection points: 2
#     Edge 7, Type (0, 1), BuildingBlock: ZUJKAS_clean_linker_0, # of connection points: 2
#     Edge 8, Type (0, 1), BuildingBlock: ZUJKAS_clean_linker_0, # of connection points: 2
#     Edge 9, Type (0, 1), BuildingBlock: ZUJKAS_clean_linker_0, # of connection points: 2
#     Edge 10, Type (0, 1), BuildingBlock: ZUJKAS_clean_linker_0, # of connection points: 2
#     Edge 11, Type (0, 1), BuildingBlock: ZUJKAS_clean_linker_0, # of connection points: 2
# Relax obj value: 0.040
# Max RMSD: 0.092
# Mean RMSD: 0.080
data_MOF--net-pts--node1-MUDLON_clean_sbu_0--node2-UXUYUI_clean_sbu_0--edge1-ZUJKAS_clean_linker_0
_symmetry_space_group_name_H-M    P1
_symmetry_Int_Tables_number       1
_symmetry_cell_setting            triclinic
loop_
_symmetry_equiv_pos_as_xyz
'x, y, z'
_cell_length_a     35.095154
_cell_length_b     35.134707
_cell_length_c     59.398665
_cell_angle_alpha  89.891169
_cell_angle_beta   89.936429
_cell_angle_gamma 90.100312
loop_
_atom_site_label
_atom_site_type_symbol
_atom_site_fract_x
_atom_site_fract_y
_atom_site_fract_z
_atom_type_partial_charge
Mg0 Mg 0.50816 1.00514 0.0772 0.0
C1 C 0.4342 0.97078 0.06082 0.0
O2 O 0.42326 0.98242 0.08081 0.0
C3 C 0.58034 0.96542 0.09232 0.0
O4 O 0.5912 0.97573 0.07203 0.0
C5 C 0.47214 0.03037 0.12063 0.0
O6 O 0.49723 1.00574 0.12812 0.0
O7 O 0.47196 0.03846 0.09973 0.0
O8 O 0.46924 0.97346 0.05554 0.0
O9 O 0.54578 0.03847 0.0554 0.0
C10 C 0.54416 0.03335 0.03421 0.0
O11 O 0.51695 0.01174 0.02604 0.0
O12 O 0.54594 0.971 0.09818 0.0
Mg13 Mg 1.00472 0.50705 0.57632 0.0
C14 C 0.99401 0.57335 0.60428 0.0
O15 O 0.02876 0.57518 0.59608 0.0
C16 C 0.98995 0.4593 0.53712 0.0
O17 O 0.02194 0.47724 0.53267 0.0
C18 C 0.06183 0.55489 0.54466 0.0
O19 O 0.09097 0.53397 0.5509 0.0
O20 O 0.02884 0.54801 0.55255 0.0
O21 O 0.97339 0.54481 0.59904 0.0
O22 O 0.04191 0.47073 0.59668 0.0
C23 C 0.04057 0.47338 0.61805 0.0
O24 O 0.02159 0.50171 0.62704 0.0
O25 O 0.97281 0.46677 0.55551 0.0
Li26 Li 0.99967 0.03732 0.34046 0.0
Li27 Li 0.01446 0.96903 0.34088 0.0
Li28 Li 0.04194 0.01358 0.31145 0.0
Li29 Li 0.97466 0.99433 0.30961 0.0
C30 C 0.06623 0.03253 0.36194 0.0
N31 N 0.09646 0.07354 0.39736 0.0
C32 C 0.06848 0.01625 0.38339 0.0
C33 C 0.07987 0.06947 0.35845 0.0
C34 C 0.08375 0.03748 0.40109 0.0
C35 C 0.09488 0.08981 0.37659 0.0
C36 C 0.93587 0.97321 0.35352 0.0
C37 C 0.89107 0.92105 0.35459 0.0
N38 N 0.87988 0.93195 0.37553 0.0
C39 C 0.92346 0.98423 0.37491 0.0
C40 C 0.91917 0.94164 0.34316 0.0
C41 C 0.89533 0.96287 0.38582 0.0
C42 C 0.98212 0.11447 0.35107 0.0
N43 N 0.9883 0.07928 0.35987 0.0
C44 C 0.98116 0.1034 0.39728 0.0
C45 C 0.98757 0.07323 0.38249 0.0
C46 C 0.97536 0.14025 0.38874 0.0
C47 C 0.97564 0.14552 0.36526 0.0
H48 H 0.98248 0.11851 0.33303 0.0
H49 H 0.99269 0.04501 0.38908 0.0
C50 C 0.04777 0.89798 0.35305 0.0
N51 N 0.02425 0.9263 0.36011 0.0
C52 C 0.05542 0.86687 0.36707 0.0
C53 C 0.01538 0.89515 0.39557 0.0
C54 C 1.00843 0.92557 0.381 0.0
C55 C 0.03903 0.86509 0.38866 0.0
H56 H 0.06061 0.89954 0.33652 0.0
H57 H 0.99104 0.94904 0.38658 0.0
C58 C 1.00707 0.07085 0.29048 0.0
N59 N 0.03027 0.11829 0.2559 0.0
C60 C 0.99255 0.06593 0.26878 0.0
C61 C 0.03297 0.10027 0.29465 0.0
C62 C 1.00472 0.09013 0.25151 0.0
C63 C 0.04449 0.12383 0.27693 0.0
C64 C 0.01601 0.92811 0.29611 0.0
C65 C 0.03318 0.92344 0.27505 0.0
C66 C 0.99471 0.89827 0.30536 0.0
C67 C 0.02789 0.88939 0.26333 0.0
C68 C 0.99012 0.86464 0.29314 0.0
N69 N 1.0066 0.86096 0.27253 0.0
C70 C 0.11926 0.03385 0.30258 0.0
C71 C 0.08166 0.02212 0.27024 0.0
C72 C 0.15108 0.04163 0.28914 0.0
N73 N 0.08542 0.02438 0.29298 0.0
C74 C 0.11267 0.02967 0.25617 0.0
C75 C 0.14808 0.03952 0.26556 0.0
H76 H 0.12163 0.03521 0.3207 0.0
H77 H 0.05453 0.01425 0.26301 0.0
C78 C 0.89694 0.99263 0.2962 0.0
N79 N 0.93306 0.98415 0.28959 0.0
C80 C 0.86624 0.98639 0.28166 0.0
C81 C 0.91047 0.96331 0.25367 0.0
C82 C 0.94025 0.96998 0.26874 0.0
C83 C 0.8728 0.97158 0.26002 0.0
H84 H 0.89199 1.00444 0.31274 0.0
H85 H 0.96923 0.9648 0.26352 0.0
O86 O 0.05074 0.0124 0.34448 0.0
O87 O 0.9634 0.99392 0.3426 0.0
O88 O 0.99596 0.04702 0.30753 0.0
O89 O 0.02085 0.96137 0.30777 0.0
H90 H 0.0584 0.98761 0.38638 0.0
H91 H 0.07868 0.0824 0.34196 0.0
H92 H 0.08545 0.02531 0.4178 0.0
H93 H 0.10526 0.11853 0.37415 0.0
H94 H 0.87801 0.89651 0.34675 0.0
H95 H 0.93551 0.00891 0.38308 0.0
H96 H 0.9273 0.93343 0.32633 0.0
H97 H 0.88572 0.97094 0.40244 0.0
H98 H 0.98174 0.09804 0.41524 0.0
H99 H 0.97084 0.17333 0.35792 0.0
H100 H 0.07367 0.84432 0.36095 0.0
H101 H 1.00289 0.89559 0.41224 0.0
H102 H 0.97227 0.04356 0.26526 0.0
H103 H 0.04423 0.10473 0.31135 0.0
H104 H 0.99388 0.08648 0.23461 0.0
H105 H 0.06474 0.14651 0.2799 0.0
H106 H 0.05024 0.94591 0.26774 0.0
H107 H 0.98236 0.90073 0.32193 0.0
H108 H 0.04076 0.88556 0.24694 0.0
H109 H 0.97363 0.84139 0.30011 0.0
H110 H 0.17768 0.04943 0.29714 0.0
H111 H 0.10909 0.02705 0.23813 0.0
H112 H 0.83769 0.99303 0.28733 0.0
H113 H 0.91705 0.95277 0.237 0.0
Li114 Li 0.9721 0.02008 0.84098 0.0
Li115 Li 0.03974 1.00212 0.84267 0.0
Li116 Li 0.0137 0.04496 0.81172 0.0
Li117 Li 0.99992 0.97635 0.81152 0.0
C118 C 1.00628 0.07809 0.86168 0.0
N119 N 0.98266 0.12529 0.89613 0.0
C120 C 0.01911 0.07197 0.88366 0.0
C121 C 0.9819 0.10857 0.85718 0.0
C122 C 1.00674 0.09607 0.90086 0.0
C123 C 0.97014 0.132 0.87483 0.0
C124 C 1.00027 0.93457 0.85565 0.0
C125 C 0.03103 0.87336 0.8581 0.0
N126 N 0.01288 0.86664 0.87795 0.0
C127 C 0.98155 0.92685 0.87594 0.0
C128 C 0.02492 0.90746 0.84654 0.0
C129 C 0.98845 0.89243 0.88702 0.0
C130 C 0.89506 0.04053 0.85087 0.0
N131 N 0.92901 0.02986 0.85987 0.0
C132 C 0.90281 0.03212 0.89704 0.0
C133 C 0.93332 0.02547 0.88246 0.0
C134 C 0.86732 0.04319 0.88828 0.0
C135 C 0.86371 0.04742 0.86483 0.0
H136 H 0.89221 0.04349 0.83284 0.0
H137 H 0.96049 0.01655 0.88918 0.0
C138 C 0.1173 1.00312 0.85667 0.0
N139 N 0.0814 0.99268 0.86274 0.0
C140 C 0.14777 0.99783 0.87152 0.0
C141 C 0.10374 0.97123 0.89861 0.0
C142 C 0.0742 0.97714 0.88329 0.0
C143 C 0.14116 0.98188 0.89292 0.0
H144 H 0.12219 0.01604 0.84037 0.0
H145 H 0.04536 0.9701 0.88806 0.0
C146 C 0.94551 0.03899 0.79113 0.0
N147 N 0.9109 0.07954 0.7569 0.0
C148 C 0.94031 0.02238 0.76999 0.0
C149 C 0.93259 0.07603 0.79494 0.0
C150 C 0.92287 0.04338 0.75288 0.0
C151 C 0.91533 0.09613 0.7774 0.0
C152 C 0.07764 0.98327 0.79741 0.0
C153 C 0.08565 0.99455 0.77532 0.0
C154 C 0.09836 0.95348 0.80706 0.0
C155 C 0.11341 0.97509 0.76303 0.0
C156 C 0.12595 0.93476 0.79425 0.0
N157 N 0.13279 0.94581 0.77267 0.0
C158 C 0.03497 0.12136 0.80156 0.0
C159 C 0.02139 0.08318 0.76975 0.0
C160 C 0.04209 0.15286 0.78773 0.0
N161 N 0.02456 0.08747 0.79242 0.0
C162 C 0.02808 0.1139 0.75531 0.0
C163 C 0.03848 0.14947 0.76423 0.0
H164 H 0.03775 0.12397 0.81962 0.0
H165 H 0.01326 0.05592 0.76285 0.0
C166 C 0.97079 0.90286 0.79993 0.0
N167 N 0.99076 0.9335 0.79228 0.0
C168 C 0.96418 0.87163 0.78588 0.0
C169 C 0.9975 0.90463 0.75606 0.0
C170 C 1.00364 0.93504 0.77071 0.0
C171 C 0.97779 0.87213 0.7636 0.0
H172 H 0.95994 0.90262 0.81697 0.0
H173 H 0.01801 0.96027 0.7647 0.0
O174 O 0.01755 0.05437 0.84469 0.0
O175 O 0.99411 0.96835 0.84471 0.0
O176 O 0.96299 0.01901 0.808 0.0
O177 O 0.05066 1.00223 0.80972 0.0
H178 H 0.03815 0.04871 0.88745 0.0
H179 H 0.97212 0.11407 0.84025 0.0
H180 H 0.01624 0.09148 0.91797 0.0
H181 H 0.95108 0.15554 0.8716 0.0
H182 H 0.05007 0.85216 0.85122 0.0
H183 H 0.96202 0.94726 0.88313 0.0
H184 H 0.03866 0.91239 0.83054 0.0
H185 H 0.97434 0.88621 0.90281 0.0
H186 H 0.90681 0.02786 0.91494 0.0
H187 H 0.83701 0.05618 0.85733 0.0
H188 H 0.17598 1.00706 0.86651 0.0
H189 H 0.09721 0.95856 0.91479 0.0
H190 H 0.94969 0.99362 0.76679 0.0
H191 H 0.93602 0.08918 0.81123 0.0
H192 H 0.91885 0.03094 0.73641 0.0
H193 H 0.90546 0.12491 0.78009 0.0
H194 H 0.07042 0.01789 0.76765 0.0
H195 H 0.09363 0.94515 0.82435 0.0
H196 H 0.1196 0.98332 0.74586 0.0
H197 H 0.14206 0.91158 0.80152 0.0
H198 H 0.0506 0.17949 0.79538 0.0
H199 H 0.0244 0.10994 0.73737 0.0
H200 H 0.94897 0.84722 0.79251 0.0
H201 H 1.0076 0.9069 0.73888 0.0
H202 H 0.46413 0.01602 0.16551 0.0
H203 H 0.40847 0.02785 0.18904 0.0
H204 H 0.35341 0.08523 0.13373 0.0
H205 H 0.4089 0.07272 0.10976 0.0
H206 H 0.3699 0.09244 0.20256 0.0
H207 H 0.278 1.00065 0.14899 0.0
H208 H 0.32913 1.00205 0.14597 0.0
H209 H 0.30041 0.03986 0.13472 0.0
C210 C 0.44041 0.03154 0.15834 0.0
C211 C 0.44084 0.04302 0.13564 0.0
C212 C 0.40858 0.03832 0.17187 0.0
C213 C 0.37645 0.0567 0.16303 0.0
C214 C 0.37757 0.07021 0.14075 0.0
H215 H 0.15056 0.07723 0.22504 0.0
H216 H 0.20549 0.08581 0.20009 0.0
C217 C 0.40944 0.06332 0.12713 0.0
C218 C 0.3414 0.05978 0.17695 0.0
H219 H 0.24946 0.02823 0.18083 0.0
C220 C 0.34347 0.07865 0.19774 0.0
C221 C 0.30693 0.04169 0.17066 0.0
C222 C 0.30336 0.01963 0.14897 0.0
C223 C 0.31218 0.07954 0.21251 0.0
C224 C 0.2781 0.06061 0.20647 0.0
C225 C 0.27563 0.04273 0.18541 0.0
C226 C 0.24529 0.05728 0.22215 0.0
C227 C 0.3159 0.10068 0.23448 0.0
C228 C 0.24937 0.03815 0.24278 0.0
C229 C 0.21801 0.03294 0.257 0.0
C230 C 0.1818 0.04657 0.25084 0.0
C231 C 0.1779 0.06597 0.23021 0.0
C232 C 0.2093 0.07112 0.21598 0.0
H233 H 0.33896 0.12237 0.23374 0.0
H234 H 0.28879 0.115 0.23904 0.0
H235 H 0.32306 0.08017 0.24805 0.0
H236 H 0.27666 0.02639 0.24764 0.0
H237 H 0.22195 0.01725 0.27253 0.0
H238 H 0.06537 0.40231 0.60532 0.0
H239 H 0.07272 0.34634 0.62973 0.0
H240 H 0.04933 0.41544 0.68796 0.0
H241 H 0.04208 0.47136 0.66391 0.0
H242 H 0.11999 0.3342 0.67445 0.0
H243 H 0.9619 0.32955 0.68154 0.0
H244 H 0.98605 0.35324 0.65857 0.0
H245 H 0.98436 0.37505 0.68584 0.0
C246 C 0.06272 0.4058 0.62336 0.0
C247 C 0.05272 0.44127 0.63262 0.0
C248 C 0.06687 0.37377 0.63727 0.0
C249 C 0.06108 0.37679 0.66058 0.0
C250 C 0.05361 0.41255 0.66998 0.0
H251 H 0.01794 0.22373 0.77141 0.0
H252 H 0.02669 0.27811 0.74625 0.0
C253 C 0.04952 0.44448 0.65617 0.0
C254 C 0.05928 0.34233 0.67495 0.0
H255 H 0.99653 0.28699 0.70438 0.0
C256 C 0.09307 0.32362 0.68092 0.0
C257 C 0.02407 0.32879 0.68334 0.0
C258 C 0.98689 0.34741 0.67694 0.0
C259 C 0.0926 0.29218 0.69565 0.0
C260 C 0.05732 0.27879 0.7042 0.0
C261 C 0.02356 0.29732 0.69791 0.0
C262 C 0.0545 0.24592 0.71993 0.0
C263 C 0.12994 0.27435 0.70245 0.0
C264 C 0.06719 0.20965 0.71353 0.0
C265 C 0.06257 0.17849 0.72801 0.0
C266 C 0.04482 0.18287 0.74913 0.0
C267 C 0.03228 0.21933 0.75548 0.0
C268 C 0.03702 0.25045 0.74103 0.0
H269 H 0.15436 0.29385 0.69939 0.0
H270 H 0.12968 0.26623 0.72053 0.0
H271 H 0.13462 0.24822 0.69237 0.0
H272 H 0.08005 0.20525 0.69717 0.0
H273 H 0.0729 0.15095 0.72262 0.0
H274 H 0.65644 0.95324 0.08572 0.0
H275 H 0.70562 0.94606 0.11448 0.0
H276 H 0.6195 0.94782 0.16631 0.0
H277 H 0.57003 0.95443 0.13765 0.0
H278 H 0.71948 0.99978 0.14661 0.0
H279 H 0.68784 0.86107 0.18724 0.0
H280 H 0.66842 0.87441 0.16021 0.0
H281 H 0.64746 0.89227 0.18572 0.0
C282 C 0.64782 0.95123 0.1032 0.0
C283 C 0.60926 0.95457 0.10936 0.0
C284 C 0.67602 0.9472 0.11963 0.0
C285 C 0.66628 0.94621 0.14255 0.0
C286 C 0.62769 0.94782 0.14872 0.0
H287 H 0.81139 0.01811 0.2527 0.0
H288 H 0.76075 0.01042 0.22484 0.0
C289 C 0.59941 0.95176 0.13228 0.0
C290 C 0.69664 0.94745 0.15995 0.0
H291 H 0.7312 0.90205 0.20657 0.0
C292 C 0.72217 0.97825 0.15963 0.0
C293 C 0.70029 0.91926 0.17686 0.0
C294 C 0.67478 0.88468 0.17748 0.0
C295 C 0.75083 0.98201 0.17593 0.0
C296 C 0.75367 0.95456 0.19329 0.0
C297 C 0.72866 0.9233 0.1934 0.0
C298 C 0.78281 0.95775 0.21128 0.0
C299 C 0.77813 0.01515 0.17425 0.0
C300 C 0.81128 0.93001 0.21343 0.0
C301 C 0.8401 0.93413 0.2295 0.0
C302 C 0.84089 0.96599 0.24384 0.0
C303 C 0.81157 0.99311 0.24207 0.0
C304 C 0.7828 0.98896 0.22599 0.0
H305 H 0.77826 0.02788 0.15712 0.0
H306 H 0.76933 0.03755 0.18633 0.0
H307 H 0.80759 1.00626 0.17853 0.0
H308 H 0.81166 0.90557 0.20234 0.0
H309 H 0.86186 0.9124 0.23065 0.0
H310 H 0.93096 0.57385 0.63228 0.0
H311 H 0.91369 0.62354 0.6597 0.0
H312 H 0.01146 0.68956 0.63917 0.0
H313 H 0.0285 0.64101 0.61199 0.0
H314 H 0.9594 0.65059 0.69589 0.0
H315 H 0.92563 0.76762 0.63699 0.0
H316 H 0.92708 0.7184 0.62827 0.0
H317 H 0.97037 0.74578 0.63032 0.0
C318 C 0.94837 0.59924 0.63345 0.0
C319 C 0.98105 0.60349 0.61993 0.0
C320 C 0.93856 0.6275 0.64913 0.0
C321 C 0.96097 0.66053 0.6512 0.0
C322 C 0.99327 0.66477 0.63754 0.0
H323 H 0.02707 0.84312 0.73226 0.0
H324 H 0.0161 0.79083 0.70604 0.0
C325 C 1.00312 0.63672 0.62209 0.0
C326 C 0.95271 0.69001 0.66838 0.0
H327 H 0.94603 0.78643 0.67433 0.0
C328 C 0.95542 0.68019 0.69126 0.0
C329 C 0.94747 0.72861 0.6623 0.0
C330 C 0.94207 0.74068 0.63812 0.0
C331 C 0.95579 0.70833 0.70807 0.0
C332 C 0.95331 0.74705 0.70177 0.0
C333 C 0.94829 0.75668 0.67906 0.0
C334 C 0.9594 0.77812 0.71818 0.0
C335 C 0.96112 0.69686 0.73233 0.0
C336 C 0.93104 0.78828 0.73368 0.0
C337 C 0.937 0.81858 0.74858 0.0
C338 C 0.97149 0.8392 0.74823 0.0
C339 C 0.99992 0.82845 0.73278 0.0
C340 C 0.99384 0.79838 0.71786 0.0
H341 H 0.96445 0.6656 0.73436 0.0
H342 H 0.98667 0.71124 0.73937 0.0
H343 H 0.93612 0.70619 0.74235 0.0
H344 H 0.90414 0.77311 0.73402 0.0
H345 H 0.91429 0.82632 0.76002 0.0
H346 H 0.35682 0.96993 0.06567 0.0
H347 H 0.30903 0.96588 0.03592 0.0
H348 H 0.39761 0.94857 0.98669 0.0
H349 H 0.44587 0.95265 0.01637 0.0
H350 H 0.31125 0.01901 0.99793 0.0
H351 H 0.31346 0.86714 0.97142 0.0
H352 H 0.32979 0.88236 0.99882 0.0
H353 H 0.35869 0.89085 0.97439 0.0
C354 C 0.36623 0.96448 0.0486 0.0
C355 C 0.40526 0.96181 0.04342 0.0
C356 C 0.33882 0.96224 0.03161 0.0
C357 C 0.34978 0.95684 1.00914 0.0
C358 C 0.38854 0.95231 1.00398 0.0
H359 H 0.21521 0.95988 0.88511 0.0
H360 H 0.26705 0.95441 0.91253 0.0
C361 C 0.41607 0.95473 0.02098 0.0
C362 C 0.32092 0.95971 0.99102 0.0
H363 H 0.27403 0.90882 0.95066 0.0
C364 C 0.30306 0.99493 0.9876 0.0
C365 C 0.31075 0.92837 0.9774 0.0
C366 C 0.3289 0.88989 0.98066 0.0
C367 C 0.27513 0.99968 0.97096 0.0
C368 C 0.26402 0.96807 0.95775 0.0
C369 C 0.28244 0.93297 0.96086 0.0
C370 C 0.23256 0.97078 0.94111 0.0
C371 C 0.25819 0.03872 0.96748 0.0
C372 C 0.19587 0.98128 0.94811 0.0
C373 C 0.16635 0.98485 0.9325 0.0
C374 C 0.17271 0.97752 0.90951 0.0
C375 C 0.20941 0.9663 0.9026 0.0
C376 C 0.23901 0.96285 0.91827 0.0
H377 H 0.27739 0.06145 0.97385 0.0
H378 H 0.25228 0.0442 0.9494 0.0
H379 H 0.23094 0.04067 0.9769 0.0
H380 H 0.19004 0.98686 0.96571 0.0
H381 H 0.13866 0.99395 0.93844 0.0
H382 H 0.01192 0.44868 0.49389 0.0
H383 H 1.00051 0.39342 0.47017 0.0
H384 H 0.92957 0.34383 0.52181 0.0
H385 H 0.94071 0.39973 0.54585 0.0
H386 H 0.02257 0.31937 0.48471 0.0
H387 H 0.86876 0.32658 0.46213 0.0
H388 H 0.89511 0.36784 0.4715 0.0
H389 H 0.88113 0.33193 0.49137 0.0
C390 C 0.99332 0.42639 0.50013 0.0
C391 C 0.97742 0.42847 0.52184 0.0
C392 C 0.98683 0.3948 0.48651 0.0
C393 C 0.96424 0.36453 0.4942 0.0
C394 C 0.94676 0.36712 0.51545 0.0
H395 H 0.93347 0.14335 0.42779 0.0
H396 H 0.92897 0.1964 0.45443 0.0
C397 C 0.95316 0.39902 0.52916 0.0
C398 C 0.96243 0.32917 0.48063 0.0
H399 H 0.90392 0.27469 0.44785 0.0
C400 C 0.99657 0.30949 0.47675 0.0
C401 C 0.92844 0.31619 0.47044 0.0
C402 C 0.8912 0.33671 0.47387 0.0
C403 C 0.99786 0.27767 0.46257 0.0
C404 C 0.96421 0.26552 0.45166 0.0
C405 C 0.92972 0.2843 0.45613 0.0
C406 C 0.96491 0.23418 0.43496 0.0
C407 C 0.03532 0.25734 0.45934 0.0
C408 C 0.98599 0.23815 0.41501 0.0
C409 C 0.98878 0.20793 0.39983 0.0
C410 C 0.97042 0.1731 0.40427 0.0
C411 C 0.94841 0.1696 0.42402 0.0
C412 C 0.94556 0.19994 0.43918 0.0
H413 H 0.05565 0.26372 0.47317 0.0
H414 H 0.03106 0.22605 0.45847 0.0
H415 H 0.04847 0.26684 0.44329 0.0
H416 H 1.00079 0.26453 0.41132 0.0
H417 H 1.00621 0.21155 0.38492 0.0
H418 H 0.61099 0.0689 0.04605 0.0
H419 H 0.66622 0.08131 0.02182 0.0
H420 H 0.60463 0.03685 0.96483 0.0
H421 H 0.54933 0.02514 0.98867 0.0
H422 H 0.70613 0.02689 0.99949 0.0
H423 H 0.65139 0.13154 0.93791 0.0
H424 H 0.62707 0.12124 0.96403 0.0
H425 H 0.6212 0.09047 0.94006 0.0
C426 C 0.6089 0.06262 0.02825 0.0
C427 C 0.57569 0.04604 0.01931 0.0
C428 C 0.64054 0.06961 1.01444 0.0
C429 C 0.63946 0.06045 0.99143 0.0
C430 C 0.60592 0.04503 0.98238 0.0
H431 H 0.79296 0.02215 0.88152 0.0
H432 H 0.73907 0.0299 0.90723 0.0
C433 C 0.57433 0.03809 0.99612 0.0
C434 C 0.67431 0.06342 0.97729 0.0
H435 H 0.70764 0.09713 0.92697 0.0
C436 C 0.7067 0.04277 0.98382 0.0
C437 C 0.67498 0.08403 0.95679 0.0
C438 C 0.64191 0.10838 0.94939 0.0
C439 C 0.7391 0.0408 0.96997 0.0
C440 C 0.73931 0.06046 0.94916 0.0
C441 C 0.70734 0.08194 0.94289 0.0
C442 C 0.77185 0.05773 0.93327 0.0
C443 C 0.77224 0.01641 0.97728 0.0
C444 C 0.80803 0.07147 0.93921 0.0
C445 C 0.8389 0.06722 0.92451 0.0
C446 C 0.83415 0.0493 0.90352 0.0
C447 C 0.7976 0.03643 0.89743 0.0
C448 C 0.76677 0.04069 0.91214 0.0
H449 H 0.76441 0.99694 0.99131 0.0
H450 H 0.78305 0.99915 0.963 0.0
H451 H 0.79577 0.03504 0.98314 0.0
H452 H 0.81241 0.08537 0.95527 0.0
H453 H 0.86648 0.0781 0.92957 0.0
H454 H 1.00729 0.6048 0.53104 0.0
H455 H 0.01316 0.65685 0.50424 0.0
H456 H 0.1319 0.63025 0.49444 0.0
H457 H 0.12627 0.57728 0.52139 0.0
H458 H 0.06292 0.72045 0.50701 0.0
H459 H 0.08716 0.63445 0.4296 0.0
H460 H 0.06816 0.61387 0.45514 0.0
H461 H 0.11784 0.62556 0.45329 0.0
C462 C 0.03475 0.60974 0.5232 0.0
C463 C 0.06633 0.58666 0.52835 0.0
C464 C 0.03802 0.63965 0.50788 0.0
C465 C 0.07282 0.64723 0.4972 0.0
C466 C 0.10461 0.62452 0.50229 0.0
H467 H 0.10638 0.82662 0.39513 0.0
H468 H 0.11874 0.77413 0.42137 0.0
C469 C 0.1014 0.59441 0.51776 0.0
C470 C 0.07519 0.67948 0.4811 0.0
H471 H 0.0817 0.70077 0.42506 0.0
C472 C 0.06745 0.71622 0.48912 0.0
C473 C 0.08122 0.67388 0.45779 0.0
C474 C 0.08886 0.63485 0.44828 0.0
C475 C 0.06451 0.74734 0.47439 0.0
C476 C 0.06882 0.74148 0.45099 0.0
C477 C 0.07823 0.70509 0.44301 0.0
C478 C 0.0613 0.77236 0.43453 0.0
C479 C 0.05632 0.78621 0.484 0.0
C480 C 0.02471 0.78812 0.43289 0.0
C481 C 0.01745 0.81781 0.41784 0.0
C482 C 0.04665 0.83241 0.40404 0.0
C483 C 0.08314 0.81592 0.40536 0.0
C484 C 0.09034 0.78606 0.42042 0.0
H485 H 0.06427 0.78794 0.50207 0.0
H486 H 0.07193 0.8087 0.47459 0.0
H487 H 0.02535 0.79209 0.48262 0.0
H488 H 1.00167 0.77738 0.44328 0.0
H489 H 0.98883 0.82918 0.41694 0.0
loop_
_geom_bond_atom_site_label_1
_geom_bond_atom_site_label_2
_geom_bond_distance
_geom_bond_site_symmetry_2
_ccdc_geom_bond_type
Mg0 O7 2.141 . S
Mg0 O8 2.048 . S
Mg0 O9 2.048 . S
Mg0 O12 2.141 . S
C1 O2 1.313 . S
C1 O8 1.195 1_565 S
O2 C1 1.313 . S
C3 O4 1.245 . S
C3 O12 1.289 1_565 S
O4 C3 1.245 . S
C5 O6 1.245 . S
C5 O7 1.289 1_565 S
O6 C5 1.245 . S
O7 Mg0 2.141 . S
O7 C5 1.289 1_545 S
O8 Mg0 2.048 . S
O8 C1 1.195 1_545 S
O9 Mg0 2.048 . S
O9 C10 1.195 1_545 S
C10 O9 1.195 1_565 S
C10 O11 1.313 . S
O11 C10 1.313 . S
O12 Mg0 2.141 . S
O12 C3 1.289 1_545 S
Mg13 O20 2.141 . S
Mg13 O21 2.048 . S
Mg13 O22 2.048 . S
Mg13 O25 2.141 . S
C14 O15 1.313 . S
C14 O21 1.195 1_455 S
O15 C14 1.313 . S
C16 O17 1.245 . S
C16 O25 1.289 1_455 S
O17 C16 1.245 . S
C18 O19 1.245 . S
C18 O20 1.289 1_455 S
O19 C18 1.245 . S
O20 Mg13 2.141 . S
O20 C18 1.289 1_655 S
O21 Mg13 2.048 . S
O21 C14 1.195 1_655 S
O22 Mg13 2.048 . S
O22 C23 1.195 1_655 S
C23 O22 1.195 1_455 S
C23 O24 1.313 . S
O24 C23 1.313 . S
O25 Mg13 2.141 . S
O25 C16 1.289 1_655 S
Li26 N43 1.990 . S
Li26 O86 1.956 1_545 S
Li26 O87 1.970 1_455 S
Li26 O88 1.961 1_455 S
Li27 N51 1.990 . S
Li27 O86 1.970 1_655 S
Li27 O87 1.956 1_565 S
Li27 O89 1.961 1_655 S
Li28 N73 1.990 . S
Li28 O86 1.961 1_545 S
Li28 O88 1.956 1_455 S
Li28 O89 1.970 1_545 S
Li29 N79 1.990 . S
Li29 O87 1.961 1_565 S
Li29 O88 1.970 1_565 S
Li29 O89 1.956 1_655 S
C30 C32 1.348 1_545 S
C30 C33 1.356 . S
C30 O86 1.325 1_545 S
N31 C34 1.314 1_545 S
N31 C35 1.279 . S
C32 C30 1.348 1_565 S
C32 C34 1.353 . S
C32 H90 0.929 . S
C33 C30 1.356 . S
C33 C35 1.358 . S
C33 H91 0.930 . S
C34 N31 1.314 1_565 S
C34 C32 1.353 . S
C34 H92 0.930 . S
C35 N31 1.279 . S
C35 C33 1.358 . S
C35 H93 0.930 . S
C36 C39 1.348 . S
C36 C40 1.356 1_545 S
C36 O87 1.325 . S
C37 N38 1.279 . S
C37 C40 1.358 . S
C37 H94 0.930 . S
N38 C37 1.279 . S
N38 C41 1.314 1_565 S
C39 C36 1.348 . S
C39 C41 1.353 . S
C39 H95 0.929 . S
C40 C36 1.356 1_565 S
C40 C37 1.358 . S
C40 H96 0.930 . S
C41 N38 1.314 1_545 S
C41 C39 1.353 . S
C41 H97 0.930 . S
C42 N43 1.314 1_655 S
C42 C47 1.353 . S
C42 H48 0.930 . S
N43 Li26 1.990 . S
N43 C42 1.314 1_455 S
N43 C45 1.279 . S
C44 C45 1.358 . S
C44 C46 1.356 . S
C44 H98 0.930 . S
C45 N43 1.279 . S
C45 C44 1.358 . S
C45 H49 0.930 . S
C46 C44 1.356 . S
C46 C47 1.348 1_455 S
C47 C42 1.353 . S
C47 C46 1.348 1_655 S
C47 H99 0.929 . S
H48 C42 0.930 . S
H49 C45 0.930 . S
C50 N51 1.314 1_455 S
C50 C52 1.353 . S
C50 H56 0.930 . S
N51 Li27 1.990 . S
N51 C50 1.314 1_655 S
N51 C54 1.279 . S
C52 C50 1.353 . S
C52 C55 1.348 . S
C52 H100 0.929 . S
C53 C54 1.358 . S
C53 C55 1.356 1_655 S
C53 H101 0.930 . S
C54 N51 1.279 . S
C54 C53 1.358 . S
C54 H57 0.930 . S
C55 C52 1.348 . S
C55 C53 1.356 1_455 S
H56 C50 0.930 . S
H57 C54 0.930 . S
C58 C60 1.348 1_455 S
C58 C61 1.356 . S
C58 O88 1.325 1_455 S
N59 C62 1.314 1_455 S
N59 C63 1.279 . S
C60 C58 1.348 1_655 S
C60 C62 1.353 . S
C60 H102 0.929 . S
C61 C58 1.356 . S
C61 C63 1.358 . S
C61 H103 0.930 . S
C62 N59 1.314 1_655 S
C62 C60 1.353 . S
C62 H104 0.930 . S
C63 N59 1.279 . S
C63 C61 1.358 . S
C63 H105 0.930 . S
C64 C65 1.348 . S
C64 C66 1.356 1_455 S
C64 O89 1.325 . S
C65 C64 1.348 . S
C65 C67 1.353 . S
C65 H106 0.929 . S
C66 C64 1.356 1_655 S
C66 C68 1.358 . S
C66 H107 0.930 . S
C67 C65 1.353 . S
C67 N69 1.314 1_455 S
C67 H108 0.930 . S
C68 C66 1.358 . S
C68 N69 1.279 . S
C68 H109 0.930 . S
N69 C67 1.314 1_655 S
N69 C68 1.279 . S
C70 C72 1.353 . S
C70 N73 1.314 1_565 S
C70 H76 0.930 . S
C71 N73 1.279 . S
C71 C74 1.358 . S
C71 H77 0.930 . S
C72 C70 1.353 . S
C72 C75 1.348 1_565 S
C72 H110 0.929 . S
N73 Li28 1.990 . S
N73 C70 1.314 1_545 S
N73 C71 1.279 . S
C74 C71 1.358 . S
C74 C75 1.356 . S
C74 H111 0.930 . S
C75 C72 1.348 1_545 S
C75 C74 1.356 . S
H76 C70 0.930 . S
H77 C71 0.930 . S
C78 N79 1.314 1_545 S
C78 C80 1.353 . S
C78 H84 0.930 . S
N79 Li29 1.990 . S
N79 C78 1.314 1_565 S
N79 C82 1.279 . S
C80 C78 1.353 . S
C80 C83 1.348 . S
C80 H112 0.929 . S
C81 C82 1.358 . S
C81 C83 1.356 1_565 S
C81 H113 0.930 . S
C82 N79 1.279 . S
C82 C81 1.358 . S
C82 H85 0.930 . S
C83 C80 1.348 . S
C83 C81 1.356 1_545 S
H84 C78 0.930 . S
H85 C82 0.930 . S
O86 Li26 1.956 1_565 S
O86 Li27 1.970 1_455 S
O86 Li28 1.961 1_565 S
O86 C30 1.325 1_565 S
O87 Li26 1.970 1_655 S
O87 Li27 1.956 1_545 S
O87 Li29 1.961 1_545 S
O87 C36 1.325 . S
O88 Li26 1.961 1_655 S
O88 Li28 1.956 1_655 S
O88 Li29 1.970 1_545 S
O88 C58 1.325 1_655 S
O89 Li27 1.961 1_455 S
O89 Li28 1.970 1_565 S
O89 Li29 1.956 1_455 S
O89 C64 1.325 . S
H90 C32 0.929 . S
H91 C33 0.930 . S
H92 C34 0.930 . S
H93 C35 0.930 . S
H94 C37 0.930 . S
H95 C39 0.929 . S
H96 C40 0.930 . S
H97 C41 0.930 . S
H98 C44 0.930 . S
H99 C47 0.929 . S
H100 C52 0.929 . S
H101 C53 0.930 . S
H102 C60 0.929 . S
H103 C61 0.930 . S
H104 C62 0.930 . S
H105 C63 0.930 . S
H106 C65 0.929 . S
H107 C66 0.930 . S
H108 C67 0.930 . S
H109 C68 0.930 . S
H110 C72 0.929 . S
H111 C74 0.930 . S
H112 C80 0.929 . S
H113 C81 0.930 . S
Li114 N131 1.990 . S
Li114 O174 1.956 1_655 S
Li114 O175 1.970 1_545 S
Li114 O176 1.961 1_545 S
Li115 N139 1.990 . S
Li115 O174 1.970 1_565 S
Li115 O175 1.956 1_455 S
Li115 O177 1.961 1_565 S
Li116 N161 1.990 . S
Li116 O174 1.961 1_655 S
Li116 O176 1.956 1_545 S
Li116 O177 1.970 1_655 S
Li117 N167 1.990 . S
Li117 O175 1.961 1_455 S
Li117 O176 1.970 1_455 S
Li117 O177 1.956 1_565 S
C118 C120 1.348 . S
C118 C121 1.356 1_455 S
C118 O174 1.325 . S
N119 C122 1.314 1_655 S
N119 C123 1.279 . S
C120 C118 1.348 . S
C120 C122 1.353 . S
C120 H178 0.929 . S
C121 C118 1.356 1_655 S
C121 C123 1.358 . S
C121 H179 0.930 . S
C122 N119 1.314 1_455 S
C122 C120 1.353 . S
C122 H180 0.930 . S
C123 N119 1.279 . S
C123 C121 1.358 . S
C123 H181 0.930 . S
C124 C127 1.348 1_455 S
C124 C128 1.356 . S
C124 O175 1.325 1_455 S
C125 N126 1.279 . S
C125 C128 1.358 . S
C125 H182 0.930 . S
N126 C125 1.279 . S
N126 C129 1.314 1_455 S
C127 C124 1.348 1_655 S
C127 C129 1.353 . S
C127 H183 0.929 . S
C128 C124 1.356 . S
C128 C125 1.358 . S
C128 H184 0.930 . S
C129 N126 1.314 1_655 S
C129 C127 1.353 . S
C129 H185 0.930 . S
C130 N131 1.314 1_565 S
C130 C135 1.353 . S
C130 H136 0.930 . S
N131 Li114 1.990 . S
N131 C130 1.314 1_545 S
N131 C133 1.279 . S
C132 C133 1.358 . S
C132 C134 1.355 . S
C132 H186 0.930 . S
C133 N131 1.279 . S
C133 C132 1.358 . S
C133 H137 0.930 . S
C134 C132 1.355 . S
C134 C135 1.348 1_545 S
C135 C130 1.353 . S
C135 C134 1.348 1_565 S
C135 H187 0.929 . S
H136 C130 0.930 . S
H137 C133 0.930 . S
C138 N139 1.314 1_545 S
C138 C140 1.353 . S
C138 H144 0.930 . S
N139 Li115 1.990 . S
N139 C138 1.314 1_565 S
N139 C142 1.279 . S
C140 C138 1.353 . S
C140 C143 1.348 . S
C140 H188 0.929 . S
C141 C142 1.358 . S
C141 C143 1.355 1_565 S
C141 H189 0.930 . S
C142 N139 1.279 . S
C142 C141 1.358 . S
C142 H145 0.930 . S
C143 C140 1.348 . S
C143 C141 1.355 1_545 S
H144 C138 0.930 . S
H145 C142 0.930 . S
C146 C148 1.348 1_545 S
C146 C149 1.356 . S
C146 O176 1.325 1_545 S
N147 C150 1.314 1_545 S
N147 C151 1.279 . S
C148 C146 1.348 1_565 S
C148 C150 1.353 . S
C148 H190 0.929 . S
C149 C146 1.356 . S
C149 C151 1.358 . S
C149 H191 0.930 . S
C150 N147 1.314 1_565 S
C150 C148 1.353 . S
C150 H192 0.930 . S
C151 N147 1.279 . S
C151 C149 1.358 . S
C151 H193 0.930 . S
C152 C153 1.348 . S
C152 C154 1.356 1_545 S
C152 O177 1.325 . S
C153 C152 1.348 . S
C153 C155 1.353 . S
C153 H194 0.929 . S
C154 C152 1.356 1_565 S
C154 C156 1.358 . S
C154 H195 0.930 . S
C155 C153 1.353 . S
C155 N157 1.314 1_545 S
C155 H196 0.930 . S
C156 C154 1.358 . S
C156 N157 1.279 . S
C156 H197 0.930 . S
N157 C155 1.314 1_565 S
N157 C156 1.279 . S
C158 C160 1.353 . S
C158 N161 1.314 1_455 S
C158 H164 0.930 . S
C159 N161 1.279 . S
C159 C162 1.358 . S
C159 H165 0.930 . S
C160 C158 1.353 . S
C160 C163 1.348 . S
C160 H198 0.929 . S
N161 Li116 1.990 . S
N161 C158 1.314 1_655 S
N161 C159 1.279 . S
C162 C159 1.358 . S
C162 C163 1.355 1_655 S
C162 H199 0.930 . S
C163 C160 1.348 . S
C163 C162 1.355 1_455 S
H164 C158 0.930 . S
H165 C159 0.930 . S
C166 N167 1.314 1_655 S
C166 C168 1.353 . S
C166 H172 0.930 . S
N167 Li117 1.990 . S
N167 C166 1.314 1_455 S
N167 C170 1.279 . S
C168 C166 1.353 . S
C168 C171 1.348 1_655 S
C168 H200 0.929 . S
C169 C170 1.358 . S
C169 C171 1.355 . S
C169 H201 0.930 . S
C170 N167 1.279 . S
C170 C169 1.358 . S
C170 H173 0.930 . S
C171 C168 1.348 1_455 S
C171 C169 1.355 . S
H172 C166 0.930 . S
H173 C170 0.930 . S
O174 Li114 1.956 1_455 S
O174 Li115 1.970 1_545 S
O174 Li116 1.961 1_455 S
O174 C118 1.325 . S
O175 Li114 1.970 1_565 S
O175 Li115 1.956 1_655 S
O175 Li117 1.961 1_655 S
O175 C124 1.325 1_655 S
O176 Li114 1.961 1_565 S
O176 Li116 1.956 1_565 S
O176 Li117 1.970 1_655 S
O176 C146 1.325 1_565 S
O177 Li115 1.961 1_545 S
O177 Li116 1.970 1_455 S
O177 Li117 1.956 1_545 S
O177 C152 1.325 . S
H178 C120 0.929 . S
H179 C121 0.930 . S
H180 C122 0.930 . S
H181 C123 0.930 . S
H182 C125 0.930 . S
H183 C127 0.929 . S
H184 C128 0.930 . S
H185 C129 0.930 . S
H186 C132 0.930 . S
H187 C135 0.929 . S
H188 C140 0.929 . S
H189 C141 0.930 . S
H190 C148 0.929 . S
H191 C149 0.930 . S
H192 C150 0.930 . S
H193 C151 0.930 . S
H194 C153 0.929 . S
H195 C154 0.930 . S
H196 C155 0.930 . S
H197 C156 0.930 . S
H198 C160 0.929 . S
H199 C162 0.930 . S
H200 C168 0.929 . S
H201 C169 0.930 . S
H202 C210 0.929 . S
H203 C212 0.930 . S
H204 C214 0.930 . S
H205 C217 0.929 . S
H206 C220 0.930 . S
H207 C222 0.960 . S
H208 C222 0.960 . S
H209 C222 0.960 . S
C210 H202 0.929 . S
C210 C211 1.383 . S
C210 C212 1.384 . S
C211 C210 1.383 . S
C211 C217 1.384 1_565 S
C212 H203 0.930 . S
C212 C210 1.384 . S
C212 C213 1.372 . S
C213 C212 1.372 . S
C213 C214 1.400 1_565 S
C213 C218 1.490 . S
C214 H204 0.930 . S
C214 C213 1.400 1_545 S
C214 C217 1.386 . S
H215 C231 0.930 . S
H216 C232 0.931 . S
C217 H205 0.929 . S
C217 C211 1.384 1_545 S
C217 C214 1.386 . S
C218 C213 1.490 . S
C218 C220 1.395 . S
C218 C221 1.403 1_565 S
H219 C225 0.930 . S
C220 H206 0.930 . S
C220 C218 1.395 . S
C220 C223 1.403 . S
C221 C218 1.403 1_545 S
C221 C222 1.524 . S
C221 C225 1.400 . S
C222 H207 0.960 . S
C222 H208 0.960 . S
C222 H209 0.960 . S
C222 C221 1.524 . S
C223 C220 1.403 . S
C223 C224 1.392 . S
C223 C227 1.495 . S
C224 C223 1.392 . S
C224 C225 1.385 1_565 S
C224 C226 1.478 . S
C225 H219 0.930 . S
C225 C221 1.400 . S
C225 C224 1.385 1_545 S
C226 C224 1.478 . S
C226 C228 1.381 . S
C226 C232 1.383 1_565 S
C227 C223 1.495 . S
C227 H233 0.959 . S
C227 H234 0.961 . S
C227 H235 0.960 . S
C228 C226 1.381 . S
C228 C229 1.394 . S
C228 H236 0.930 . S
C229 C228 1.394 . S
C229 C230 1.383 . S
C229 H237 0.929 . S
C230 C229 1.383 . S
C230 C231 1.377 1_565 S
C231 H215 0.930 . S
C231 C230 1.377 1_545 S
C231 C232 1.379 . S
C232 H216 0.931 . S
C232 C226 1.383 1_545 S
C232 C231 1.379 . S
H233 C227 0.959 . S
H234 C227 0.961 . S
H235 C227 0.960 . S
H236 C228 0.930 . S
H237 C229 0.929 . S
H238 C246 0.929 . S
H239 C248 0.930 . S
H240 C250 0.930 . S
H241 C253 0.929 . S
H242 C256 0.930 . S
H243 C258 0.960 . S
H244 C258 0.960 . S
H245 C258 0.960 . S
C246 H238 0.929 . S
C246 C247 1.377 1_455 S
C246 C248 1.384 . S
C247 C246 1.377 1_655 S
C247 C253 1.390 . S
C248 H239 0.930 . S
C248 C246 1.384 . S
C248 C249 1.372 . S
C249 C248 1.372 . S
C249 C250 1.399 1_455 S
C249 C254 1.490 . S
C250 H240 0.930 . S
C250 C249 1.399 1_655 S
C250 C253 1.386 . S
H251 C267 0.930 . S
H252 C268 0.931 . S
C253 H241 0.929 . S
C253 C247 1.390 . S
C253 C250 1.386 . S
C254 C249 1.490 . S
C254 C256 1.395 . S
C254 C257 1.403 1_455 S
H255 C261 0.930 . S
C256 H242 0.930 . S
C256 C254 1.395 . S
C256 C259 1.403 . S
C257 C254 1.403 1_655 S
C257 C258 1.524 . S
C257 C261 1.400 . S
C258 H243 0.960 . S
C258 H244 0.960 . S
C258 H245 0.960 . S
C258 C257 1.524 . S
C259 C256 1.403 . S
C259 C260 1.392 . S
C259 C263 1.495 . S
C260 C259 1.392 . S
C260 C261 1.385 1_455 S
C260 C262 1.478 . S
C261 H255 0.930 . S
C261 C257 1.400 . S
C261 C260 1.385 1_655 S
C262 C260 1.478 . S
C262 C264 1.381 . S
C262 C268 1.383 . S
C263 C259 1.495 . S
C263 H269 0.959 . S
C263 H270 0.961 . S
C263 H271 0.960 . S
C264 C262 1.381 . S
C264 C265 1.394 . S
C264 H272 0.930 . S
C265 C264 1.394 . S
C265 C266 1.383 . S
C265 H273 0.929 . S
C266 C265 1.383 . S
C266 C267 1.377 . S
C267 H251 0.930 . S
C267 C266 1.377 . S
C267 C268 1.379 . S
C268 H252 0.931 . S
C268 C262 1.383 . S
C268 C267 1.379 . S
H269 C263 0.959 . S
H270 C263 0.961 . S
H271 C263 0.960 . S
H272 C264 0.930 . S
H273 C265 0.929 . S
H274 C282 0.929 . S
H275 C284 0.930 . S
H276 C286 0.930 . S
H277 C289 0.929 . S
H278 C292 0.930 . S
H279 C294 0.960 . S
H280 C294 0.960 . S
H281 C294 0.960 . S
C282 H274 0.929 . S
C282 C283 1.381 . S
C282 C284 1.384 . S
C283 C282 1.381 . S
C283 C289 1.386 1_565 S
C284 H275 0.930 . S
C284 C282 1.384 . S
C284 C285 1.372 . S
C285 C284 1.372 . S
C285 C286 1.400 1_565 S
C285 C290 1.490 . S
C286 H276 0.930 . S
C286 C285 1.400 1_545 S
C286 C289 1.386 . S
H287 C303 0.930 . S
H288 C304 0.931 . S
C289 H277 0.929 . S
C289 C283 1.386 1_545 S
C289 C286 1.386 . S
C290 C285 1.490 . S
C290 C292 1.395 . S
C290 C293 1.403 1_565 S
H291 C297 0.930 . S
C292 H278 0.930 . S
C292 C290 1.395 . S
C292 C295 1.403 . S
C293 C290 1.403 1_545 S
C293 C294 1.524 . S
C293 C297 1.400 . S
C294 H279 0.960 . S
C294 H280 0.960 . S
C294 H281 0.960 . S
C294 C293 1.524 . S
C295 C292 1.403 . S
C295 C296 1.392 . S
C295 C299 1.495 . S
C296 C295 1.392 . S
C296 C297 1.385 1_565 S
C296 C298 1.478 . S
C297 H291 0.930 . S
C297 C293 1.400 . S
C297 C296 1.385 1_545 S
C298 C296 1.478 . S
C298 C300 1.381 . S
C298 C304 1.383 1_565 S
C299 C295 1.495 . S
C299 H305 0.959 . S
C299 H306 0.961 . S
C299 H307 0.960 . S
C300 C298 1.381 . S
C300 C301 1.394 . S
C300 H308 0.930 . S
C301 C300 1.394 . S
C301 C302 1.387 . S
C301 H309 0.929 . S
C302 C301 1.387 . S
C302 C303 1.373 1_565 S
C303 H287 0.930 . S
C303 C302 1.373 1_545 S
C303 C304 1.379 . S
C304 H288 0.931 . S
C304 C298 1.383 1_545 S
C304 C303 1.379 . S
H305 C299 0.959 . S
H306 C299 0.961 . S
H307 C299 0.960 . S
H308 C300 0.930 . S
H309 C301 0.929 . S
H310 C318 0.929 . S
H311 C320 0.930 . S
H312 C322 0.930 . S
H313 C325 0.929 . S
H314 C328 0.930 . S
H315 C330 0.960 . S
H316 C330 0.960 . S
H317 C330 0.960 . S
C318 H310 0.929 . S
C318 C319 1.386 . S
C318 C320 1.384 . S
C319 C318 1.386 . S
C319 C325 1.381 1_655 S
C320 H311 0.930 . S
C320 C318 1.384 . S
C320 C321 1.372 . S
C321 C320 1.372 . S
C321 C322 1.400 1_655 S
C321 C326 1.490 . S
C322 H312 0.930 . S
C322 C321 1.400 1_455 S
C322 C325 1.386 . S
H323 C339 0.930 . S
H324 C340 0.931 . S
C325 H313 0.929 . S
C325 C319 1.381 1_455 S
C325 C322 1.386 . S
C326 C321 1.490 . S
C326 C328 1.395 1_655 S
C326 C329 1.403 . S
H327 C333 0.930 . S
C328 H314 0.930 . S
C328 C326 1.395 1_455 S
C328 C331 1.403 . S
C329 C326 1.403 . S
C329 C330 1.524 . S
C329 C333 1.400 . S
C330 H315 0.960 . S
C330 H316 0.960 . S
C330 H317 0.960 . S
C330 C329 1.524 . S
C331 C328 1.403 . S
C331 C332 1.392 . S
C331 C335 1.495 . S
C332 C331 1.392 . S
C332 C333 1.385 1_455 S
C332 C334 1.478 . S
C333 H327 0.930 . S
C333 C329 1.400 . S
C333 C332 1.385 1_655 S
C334 C332 1.478 . S
C334 C336 1.381 1_455 S
C334 C340 1.383 . S
C335 C331 1.495 . S
C335 H341 0.959 . S
C335 H342 0.961 . S
C335 H343 0.960 . S
C336 C334 1.381 1_655 S
C336 C337 1.394 . S
C336 H344 0.930 . S
C337 C336 1.394 . S
C337 C338 1.373 1_655 S
C337 H345 0.929 . S
C338 C337 1.373 1_455 S
C338 C339 1.387 . S
C339 H323 0.930 . S
C339 C338 1.387 . S
C339 C340 1.379 . S
C340 H324 0.931 . S
C340 C334 1.383 . S
C340 C339 1.379 . S
H341 C335 0.959 . S
H342 C335 0.961 . S
H343 C335 0.960 . S
H344 C336 0.930 . S
H345 C337 0.929 . S
H346 C354 0.929 . S
H347 C356 0.930 . S
H348 C358 0.930 . S
H349 C361 0.929 . S
H350 C364 0.930 . S
H351 C366 0.960 . S
H352 C366 0.960 . S
H353 C366 0.960 . S
C354 H346 0.929 . S
C354 C355 1.382 . S
C354 C356 1.384 . S
C355 C354 1.382 . S
C355 C361 1.385 1_564 S
C356 H347 0.930 . S
C356 C354 1.384 . S
C356 C357 1.384 1_554 S
C357 C356 1.384 1_556 S
C357 C358 1.388 1_565 S
C357 C362 1.490 . S
C358 H348 0.930 . S
C358 C357 1.388 1_545 S
C358 C361 1.386 . S
H359 C375 0.930 . S
H360 C376 0.931 . S
C361 H349 0.929 . S
C361 C355 1.385 1_546 S
C361 C358 1.386 . S
C362 C357 1.490 . S
C362 C364 1.395 1_565 S
C362 C365 1.402 . S
H363 C369 0.930 . S
C364 H350 0.930 . S
C364 C362 1.395 1_545 S
C364 C367 1.403 . S
C365 C362 1.402 . S
C365 C366 1.524 . S
C365 C369 1.400 . S
C366 H351 0.960 . S
C366 H352 0.960 . S
C366 H353 0.960 . S
C366 C365 1.524 . S
C367 C364 1.403 . S
C367 C368 1.392 . S
C367 C371 1.495 . S
C368 C367 1.392 . S
C368 C369 1.385 1_545 S
C368 C370 1.478 . S
C369 H363 0.930 . S
C369 C365 1.400 . S
C369 C368 1.385 1_565 S
C370 C368 1.478 . S
C370 C372 1.381 1_545 S
C370 C376 1.383 . S
C371 C367 1.495 . S
C371 H377 0.959 . S
C371 H378 0.961 . S
C371 H379 0.960 . S
C372 C370 1.381 1_565 S
C372 C373 1.394 . S
C372 H380 0.930 . S
C373 C372 1.394 . S
C373 C374 1.383 1_565 S
C373 H381 0.929 . S
C374 C373 1.383 1_545 S
C374 C375 1.377 . S
C375 H359 0.930 . S
C375 C374 1.377 . S
C375 C376 1.379 . S
C376 H360 0.931 . S
C376 C370 1.383 . S
C376 C375 1.379 . S
H377 C371 0.959 . S
H378 C371 0.961 . S
H379 C371 0.960 . S
H380 C372 0.930 . S
H381 C373 0.929 . S
H382 C390 0.929 . S
H383 C392 0.930 . S
H384 C394 0.930 . S
H385 C397 0.929 . S
H386 C400 0.930 . S
H387 C402 0.960 . S
H388 C402 0.960 . S
H389 C402 0.960 . S
C390 H382 0.929 . S
C390 C391 1.377 1_455 S
C390 C392 1.384 . S
C391 C390 1.377 1_655 S
C391 C397 1.390 . S
C392 H383 0.930 . S
C392 C390 1.384 . S
C392 C393 1.381 . S
C393 C392 1.381 . S
C393 C394 1.390 1_455 S
C393 C398 1.491 . S
C394 H384 0.930 . S
C394 C393 1.390 1_655 S
C394 C397 1.386 . S
H395 C411 0.930 . S
H396 C412 0.931 . S
C397 H385 0.929 . S
C397 C391 1.390 . S
C397 C394 1.386 . S
C398 C393 1.491 . S
C398 C400 1.395 . S
C398 C401 1.403 1_455 S
H399 C405 0.930 . S
C400 H386 0.930 . S
C400 C398 1.395 . S
C400 C403 1.403 . S
C401 C398 1.403 1_655 S
C401 C402 1.524 . S
C401 C405 1.400 . S
C402 H387 0.960 . S
C402 H388 0.960 . S
C402 H389 0.960 . S
C402 C401 1.524 . S
C403 C400 1.403 . S
C403 C404 1.392 . S
C403 C407 1.495 . S
C404 C403 1.392 . S
C404 C405 1.385 1_455 S
C404 C406 1.478 . S
C405 H399 0.930 . S
C405 C401 1.400 . S
C405 C404 1.385 1_655 S
C406 C404 1.478 . S
C406 C408 1.381 . S
C406 C412 1.383 1_455 S
C407 C403 1.495 . S
C407 H413 0.959 . S
C407 H414 0.961 . S
C407 H415 0.960 . S
C408 C406 1.381 . S
C408 C409 1.394 . S
C408 H416 0.930 . S
C409 C408 1.394 . S
C409 C410 1.383 . S
C409 H417 0.929 . S
C410 C409 1.383 . S
C410 C411 1.377 1_455 S
C411 H395 0.930 . S
C411 C410 1.377 1_655 S
C411 C412 1.379 . S
C412 H396 0.931 . S
C412 C406 1.383 1_655 S
C412 C411 1.379 . S
H413 C407 0.959 . S
H414 C407 0.961 . S
H415 C407 0.960 . S
H416 C408 0.930 . S
H417 C409 0.929 . S
H418 C426 0.929 . S
H419 C428 0.930 . S
H420 C430 0.930 . S
H421 C433 0.929 . S
H422 C436 0.932 . S
H423 C438 0.960 . S
H424 C438 0.960 . S
H425 C438 0.960 1_565 S
C426 H418 0.929 . S
C426 C427 1.391 . S
C426 C428 1.384 1_554 S
C427 C426 1.391 . S
C427 C433 1.377 1_544 S
C428 H419 0.930 . S
C428 C426 1.384 1_556 S
C428 C429 1.372 . S
C429 C428 1.372 . S
C429 C430 1.400 1_545 S
C429 C434 1.490 . S
C430 H420 0.930 . S
C430 C429 1.400 1_565 S
C430 C433 1.386 . S
H431 C447 0.930 . S
H432 C448 0.931 . S
C433 H421 0.929 . S
C433 C427 1.377 1_566 S
C433 C430 1.386 . S
C434 C429 1.490 . S
C434 C436 1.393 1_545 S
C434 C437 1.403 . S
H435 C441 0.930 . S
C436 H422 0.932 . S
C436 C434 1.393 1_565 S
C436 C439 1.404 . S
C437 C434 1.403 . S
C437 C438 1.524 . S
C437 C441 1.400 . S
C438 H423 0.960 . S
C438 H424 0.960 . S
C438 H425 0.960 1_545 S
C438 C437 1.524 . S
C439 C436 1.404 . S
C439 C440 1.392 1_565 S
C439 C443 1.495 . S
C440 C439 1.392 1_545 S
C440 C441 1.385 . S
C440 C442 1.477 1_545 S
C441 H435 0.930 . S
C441 C437 1.400 . S
C441 C440 1.385 . S
C442 C440 1.477 1_565 S
C442 C444 1.357 1_565 S
C442 C448 1.407 . S
C443 C439 1.495 . S
C443 H449 0.959 . S
C443 H450 0.961 . S
C443 H451 0.960 1_565 S
C444 C442 1.357 1_545 S
C444 C445 1.394 . S
C444 H452 0.930 . S
C445 C444 1.394 . S
C445 C446 1.383 1_545 S
C445 H453 0.929 . S
C446 C445 1.383 1_565 S
C446 C447 1.377 . S
C447 H431 0.930 . S
C447 C446 1.377 . S
C447 C448 1.379 . S
C448 H432 0.931 . S
C448 C442 1.407 . S
C448 C447 1.379 . S
H449 C443 0.959 . S
H450 C443 0.961 . S
H451 C443 0.960 1_545 S
H452 C444 0.930 . S
H453 C445 0.929 . S
H454 C462 0.929 . S
H455 C464 0.930 . S
H456 C466 0.930 . S
H457 C469 0.929 . S
H458 C472 0.930 . S
H459 C474 0.960 . S
H460 C474 0.960 . S
H461 C474 0.960 1_455 S
C462 H454 0.929 . S
C462 C463 1.386 . S
C462 C464 1.384 . S
C463 C462 1.386 . S
C463 C469 1.382 1_655 S
C464 H455 0.930 . S
C464 C462 1.384 . S
C464 C465 1.372 . S
C465 C464 1.372 . S
C465 C466 1.400 1_655 S
C465 C470 1.490 . S
C466 H456 0.930 . S
C466 C465 1.400 1_455 S
C466 C469 1.386 . S
H467 C483 0.930 . S
H468 C484 0.931 . S
C469 H457 0.929 . S
C469 C463 1.382 1_455 S
C469 C466 1.386 . S
C470 C465 1.490 . S
C470 C472 1.395 . S
C470 C473 1.403 . S
H471 C477 0.930 1_455 S
C472 H458 0.930 . S
C472 C470 1.395 . S
C472 C475 1.403 . S
C473 C470 1.403 . S
C473 C474 1.524 . S
C473 C477 1.400 . S
C474 H459 0.960 . S
C474 H460 0.960 . S
C474 H461 0.960 1_655 S
C474 C473 1.524 . S
C475 C472 1.403 . S
C475 C476 1.393 . S
C475 C479 1.496 . S
C476 C475 1.393 . S
C476 C477 1.385 . S
C476 C478 1.477 1_655 S
C477 H471 0.930 1_655 S
C477 C473 1.400 . S
C477 C476 1.385 . S
C478 C476 1.477 1_455 S
C478 C480 1.368 1_455 S
C478 C484 1.396 . S
C479 C475 1.496 . S
C479 H485 0.960 . S
C479 H486 0.937 1_655 S
C479 H487 0.983 . S
C480 C478 1.368 1_655 S
C480 C481 1.394 . S
C480 H488 0.930 . S
C481 C480 1.394 . S
C481 C482 1.383 1_655 S
C481 H489 0.929 . S
C482 C481 1.383 1_455 S
C482 C483 1.377 . S
C483 H467 0.930 . S
C483 C482 1.377 . S
C483 C484 1.379 . S
C484 H468 0.931 . S
C484 C478 1.396 . S
C484 C483 1.379 . S
H485 C479 0.960 . S
H486 C479 0.937 1_455 S
H487 C479 0.983 . S
H488 C480 0.930 . S
H489 C481 0.929 . S
C230 C75 1.384 1_565 S
C211 C5 1.370 . S
C266 C163 1.461 . S
C247 C23 1.459 1_655 S
C302 C83 1.370 1_565 S
C283 C3 1.375 . S
C338 C171 1.465 . S
C319 C14 1.464 1_655 S
C374 C143 1.457 . S
C355 C1 1.457 . S
C410 C46 1.374 . S
C391 C16 1.372 1_655 S
C446 C134 1.455 1_565 S
C427 C10 1.463 1_545 S
C463 C18 1.374 1_655 S
C482 C55 1.374 . S
