# Generated by pormake.
# Topology pth, (4,4)-cn, num edge types: 1
# Building blocks:
#     Node 0, Type 0, BuildingBlock: UXUYUI_clean_sbu_0, # of connection points: 4
#     Node 1, Type 0, BuildingBlock: UXUYUI_clean_sbu_0, # of connection points: 4
#     Node 2, Type 0, BuildingBlock: UXUYUI_clean_sbu_0, # of connection points: 4
#     Node 3, Type 1, BuildingBlock: NAWXER_clean_sbu_0, # of connection points: 4
#     Node 4, Type 1, BuildingBlock: NAWXER_clean_sbu_0, # of connection points: 4
#     Node 5, Type 1, BuildingBlock: NAWXER_clean_sbu_0, # of connection points: 4
#     Edge 6, Type (0, 1), BuildingBlock: FUNLAD_clean_linker_1, # of connection points: 2
#     Edge 7, Type (0, 1), BuildingBlock: FUNLAD_clean_linker_1, # of connection points: 2
#     Edge 8, Type (0, 1), BuildingBlock: FUNLAD_clean_linker_1, # of connection points: 2
#     Edge 9, Type (0, 1), BuildingBlock: FUNLAD_clean_linker_1, # of connection points: 2
#     Edge 10, Type (0, 1), BuildingBlock: FUNLAD_clean_linker_1, # of connection points: 2
#     Edge 11, Type (0, 1), BuildingBlock: FUNLAD_clean_linker_1, # of connection points: 2
#     Edge 12, Type (0, 1), BuildingBlock: FUNLAD_clean_linker_1, # of connection points: 2
#     Edge 13, Type (0, 1), BuildingBlock: FUNLAD_clean_linker_1, # of connection points: 2
#     Edge 14, Type (0, 1), BuildingBlock: FUNLAD_clean_linker_1, # of connection points: 2
#     Edge 15, Type (0, 1), BuildingBlock: FUNLAD_clean_linker_1, # of connection points: 2
#     Edge 16, Type (0, 1), BuildingBlock: FUNLAD_clean_linker_1, # of connection points: 2
#     Edge 17, Type (0, 1), BuildingBlock: FUNLAD_clean_linker_1, # of connection points: 2
# Relax obj value: 0.086
# Max RMSD: 0.218
# Mean RMSD: 0.120
data_MOF--net-pth--node1-UXUYUI_clean_sbu_0--node2-NAWXER_clean_sbu_0--edge1-FUNLAD_clean_linker_1
_symmetry_space_group_name_H-M    P1
_symmetry_Int_Tables_number       1
_symmetry_cell_setting            triclinic
loop_
_symmetry_equiv_pos_as_xyz
'x, y, z'
_cell_length_a     29.080651
_cell_length_b     29.098021
_cell_length_c     72.690521
_cell_angle_alpha  90.007317
_cell_angle_beta   89.896825
_cell_angle_gamma 119.83983
loop_
_atom_site_label
_atom_site_type_symbol
_atom_site_fract_x
_atom_site_fract_y
_atom_site_fract_z
_atom_type_partial_charge
Li0 Li 0.04815 0.04034 0.0727 0.0
Li1 Li 0.98345 0.03692 0.09633 0.0
Li2 Li 0.01891 0.97449 0.0976 0.0
Li3 Li 0.95912 0.96707 0.0737 0.0
C4 C 0.10958 0.06983 0.10515 0.0
N5 N 0.21239 0.10308 0.11601 0.0
C6 C 0.13164 0.10471 0.11994 0.0
C7 C 0.13973 0.05178 0.09589 0.0
C8 C 0.18372 0.1211 0.12522 0.0
C9 C 0.19165 0.06907 0.10159 0.0
C10 C 0.9507 0.03752 0.05445 0.0
C11 C 0.86643 0.01842 0.04178 0.0
N12 N 0.88587 0.02115 0.02453 0.0
C13 C 0.96995 0.04043 0.03661 0.0
C14 C 0.89863 0.0267 0.05708 0.0
C15 C 0.93652 0.03196 0.02166 0.0
C16 C 0.1181 0.07141 0.04205 0.0
N17 N 0.10497 0.08867 0.05749 0.0
C18 C 0.16826 0.17863 0.05026 0.0
C19 C 0.12944 0.14096 0.06186 0.0
C20 C 0.18158 0.16222 0.03384 0.0
C21 C 0.15664 0.10771 0.03003 0.0
H22 H 0.09765 0.02956 0.03886 0.0
H23 H 0.11813 0.15344 0.07427 0.0
C24 C 0.97652 0.08105 0.12961 0.0
N25 N 0.96646 0.07988 0.11132 0.0
C26 C 0.96882 0.11476 0.1413 0.0
C27 C 0.93918 0.1444 0.11515 0.0
C28 C 0.94785 0.11037 0.10394 0.0
C29 C 0.95077 0.14775 0.13401 0.0
H30 H 0.99129 0.05625 0.13506 0.0
H31 H 0.94058 0.1089 0.08931 0.0
C32 C 0.01748 0.91427 0.06797 0.0
N33 N 1.00067 0.81316 0.06233 0.0
C34 C 0.97405 0.87079 0.07609 0.0
C35 C 0.0524 0.90635 0.05698 0.0
C36 C 0.9662 0.81998 0.07308 0.0
C37 C 0.04322 0.85492 0.05429 0.0
C38 C 0.89439 0.93077 0.10653 0.0
C39 C 0.87531 0.87907 0.11292 0.0
C40 C 0.86121 0.95275 0.10676 0.0
C41 C 0.82294 0.84983 0.11908 0.0
C42 C 0.80911 0.92224 0.11304 0.0
N43 N 0.79119 0.87182 0.11899 0.0
C44 C 0.0106 0.92598 0.13122 0.0
C45 C 0.06856 0.91608 0.11076 0.0
C46 C 0.01558 0.89332 0.14415 0.0
N47 N 0.03617 0.93596 0.11481 0.0
C48 C 0.07471 0.88306 0.12333 0.0
C49 C 0.04734 0.87071 0.14025 0.0
H50 H 0.98513 0.94237 0.13408 0.0
H51 H 0.08852 0.92464 0.0976 0.0
C52 C 0.92158 0.90822 0.04112 0.0
N53 N 0.90434 0.91686 0.05748 0.0
C54 C 0.88597 0.87082 0.02872 0.0
C55 C 0.81486 0.85289 0.04985 0.0
C56 C 0.85189 0.89062 0.06186 0.0
C57 C 0.83174 0.84177 0.03319 0.0
H58 H 0.96329 0.93038 0.03771 0.0
H59 H 0.83842 0.89859 0.07462 0.0
O60 O 0.05855 0.05326 0.09992 0.0
O61 O 0.98233 0.04409 0.06926 0.0
O62 O 0.02631 0.96451 0.07081 0.0
O63 O 0.94581 0.96024 0.10071 0.0
H64 H 0.1087 0.11892 0.12727 0.0
H65 H 0.12328 0.02468 0.08444 0.0
H66 H 0.20135 0.1481 0.13664 0.0
H67 H 0.21544 0.05543 0.09455 0.0
H68 H 0.82594 0.00967 0.04361 0.0
H69 H 0.01006 0.04853 0.03433 0.0
H70 H 0.88304 0.02415 0.07079 0.0
H71 H 0.95078 0.03376 0.00777 0.0
H72 H 0.18721 0.21983 0.05424 0.0
H73 H 0.16597 0.09337 0.01762 0.0
H74 H 0.97679 0.11466 0.15583 0.0
H75 H 0.92491 0.16894 0.10906 0.0
H76 H 0.94666 0.87621 0.08459 0.0
H77 H 0.08634 0.93965 0.05064 0.0
H78 H 0.93271 0.78599 0.07928 0.0
H79 H 0.06996 0.8482 0.04583 0.0
H80 H 0.90066 0.8617 0.1132 0.0
H81 H 0.87529 0.99272 0.102 0.0
H82 H 0.80759 0.80971 0.12398 0.0
H83 H 0.78291 0.93865 0.11317 0.0
H84 H 0.99385 0.88498 0.15698 0.0
H85 H 0.09938 0.86657 0.11943 0.0
H86 H 0.90114 0.86548 0.0158 0.0
H87 H 0.77334 0.83204 0.05369 0.0
Li88 Li 0.99363 0.95776 0.40548 0.0
Li89 Li 0.05076 0.01618 0.42976 0.0
Li90 Li 0.95367 0.98969 0.42784 0.0
Li91 Li 0.01705 0.05342 0.40582 0.0
C92 C 0.97713 0.89443 0.43435 0.0
N93 N 0.95893 0.79203 0.43728 0.0
C94 C 0.01933 0.88529 0.43745 0.0
C95 C 0.92559 0.85154 0.43302 0.0
C96 C 0.00934 0.83322 0.43881 0.0
C97 C 0.91723 0.80005 0.43446 0.0
C98 C 0.11669 0.05448 0.39781 0.0
C99 C 0.19525 0.14071 0.39639 0.0
N100 N 0.22153 0.119 0.38782 0.0
C101 C 0.1443 0.03314 0.38877 0.0
C102 C 0.14221 0.10878 0.40147 0.0
C103 C 0.19734 0.06636 0.38393 0.0
C104 C 0.94495 0.87486 0.37835 0.0
N105 N 0.98595 0.9008 0.39026 0.0
C106 C 0.02528 0.85005 0.38013 0.0
C107 C 0.02563 0.88912 0.39133 0.0
C108 C 0.98381 0.82259 0.36759 0.0
C109 C 0.94298 0.83533 0.36682 0.0
H110 H 0.91434 0.88553 0.3775 0.0
H111 H 0.05809 0.91077 0.40076 0.0
C112 C 0.0961 0.03024 0.46471 0.0
N113 N 0.10563 0.02686 0.44659 0.0
C114 C 0.13132 0.03185 0.47808 0.0
C115 C 0.1861 0.02742 0.45391 0.0
C116 C 0.14963 0.02555 0.44101 0.0
C117 C 0.17693 0.03027 0.47278 0.0
H118 H 0.06026 0.03018 0.46878 0.0
H119 H 0.15546 0.02085 0.42662 0.0
C120 C 0.89577 0.97284 0.39725 0.0
N121 N 0.79012 0.94071 0.39148 0.0
C122 C 0.88116 0.00837 0.39015 0.0
C123 C 0.85672 0.92081 0.40118 0.0
C124 C 0.82752 0.99141 0.38739 0.0
C125 C 0.8035 0.90537 0.39825 0.0
C126 C 0.03816 0.1097 0.44052 0.0
C127 C 1.00566 0.12998 0.44603 0.0
C128 C 0.09284 0.13968 0.44345 0.0
C129 C 0.02853 0.18047 0.45383 0.0
C130 C 0.11421 0.18998 0.45131 0.0
N131 N 0.08189 0.20922 0.45627 0.0
C132 C 0.87494 0.94084 0.45601 0.0
C133 C 0.87147 0.00793 0.43866 0.0
C134 C 0.83383 0.93585 0.46741 0.0
N135 N 0.89313 0.97683 0.44208 0.0
C136 C 0.83044 0.00427 0.44965 0.0
C137 C 0.81168 0.96872 0.4645 0.0
H138 H 0.89315 0.91685 0.45852 0.0
H139 H 0.88716 0.0368 0.42768 0.0
C140 C 0.0549 0.12257 0.3747 0.0
N141 N 0.02907 0.11289 0.39109 0.0
C142 C 0.05913 0.16308 0.36319 0.0
C143 C 0.0097 0.18248 0.38559 0.0
C144 C 1.00657 0.1418 0.39664 0.0
C145 C 0.03607 0.19361 0.36859 0.0
H146 H 0.07098 0.09789 0.37031 0.0
H147 H 0.98431 0.13192 0.40932 0.0
O148 O 0.98623 0.94513 0.43272 0.0
O149 O 0.06471 0.02239 0.40267 0.0
O150 O 0.94804 0.98894 0.40029 0.0
O151 O 0.01626 0.05989 0.43311 0.0
H152 H 0.05944 0.91798 0.43856 0.0
H153 H 0.89237 0.85788 0.43094 0.0
H154 H 0.04169 0.82556 0.44106 0.0
H155 H 0.87756 0.76647 0.43338 0.0
H156 H 0.21543 0.1828 0.39917 0.0
H157 H 0.12509 0.99135 0.38559 0.0
H158 H 0.12109 0.1263 0.40787 0.0
H159 H 0.21925 0.05029 0.37704 0.0
H160 H 0.05764 0.84179 0.38114 0.0
H161 H 0.91053 0.81634 0.35721 0.0
H162 H 0.12254 0.03346 0.49248 0.0
H163 H 0.21962 0.02424 0.44909 0.0
H164 H 0.91086 0.04865 0.38686 0.0
H165 H 0.86739 0.89273 0.40651 0.0
H166 H 0.81562 0.01856 0.38199 0.0
H167 H 0.77285 0.86528 0.40134 0.0
H168 H 0.96322 0.10718 0.44421 0.0
H169 H 0.11863 0.12424 0.43986 0.0
H170 H 1.00381 0.19675 0.45799 0.0
H171 H 0.15649 0.21361 0.45356 0.0
H172 H 0.8203 0.90691 0.47837 0.0
H173 H 0.81448 0.0302 0.44686 0.0
H174 H 0.07857 0.1687 0.35003 0.0
H175 H 0.99069 0.20442 0.39015 0.0
Li176 Li 0.03771 0.98786 0.74033 0.0
Li177 Li 0.04265 0.05151 0.76372 0.0
Li178 Li 0.96694 0.95902 0.76322 0.0
Li179 Li 0.97189 0.02119 0.73976 0.0
C180 C 0.07432 0.96264 0.77134 0.0
N181 N 0.13844 0.91958 0.7783 0.0
C182 C 0.12233 0.99227 0.78062 0.0
C183 C 0.05876 0.91104 0.76569 0.0
C184 C 0.15423 0.96981 0.78399 0.0
C185 C 0.09177 0.89 0.76931 0.0
C186 C 0.08604 0.10739 0.72871 0.0
C187 C 0.10841 0.19151 0.715 0.0
N188 N 0.15866 0.20124 0.71202 0.0
C189 C 0.1377 0.11794 0.72528 0.0
C190 C 0.07106 0.1442 0.72333 0.0
C191 C 0.17392 0.16572 0.71693 0.0
C192 C 0.06052 0.95339 0.70731 0.0
N193 N 0.08026 0.97206 0.72434 0.0
C194 C 0.16351 0.97978 0.71607 0.0
C195 C 0.13067 0.98512 0.72891 0.0
C196 C 0.1445 0.9616 0.69824 0.0
C197 C 0.09226 0.94815 0.69396 0.0
H198 H 0.02073 0.94448 0.7039 0.0
H199 H 0.1464 1.00214 0.74221 0.0
C200 C 0.07527 0.11816 0.79532 0.0
N201 N 0.09204 0.10744 0.77925 0.0
C202 C 0.1118 0.15554 0.80754 0.0
C203 C 0.18224 0.16996 0.78655 0.0
C204 C 0.14434 0.13246 0.77472 0.0
C205 C 0.16616 0.18132 0.8034 0.0
H206 H 0.03366 0.09679 0.79888 0.0
H207 H 0.1569 0.12212 0.76218 0.0
C208 C 0.91707 0.89903 0.73411 0.0
N209 N 0.8297 0.79901 0.73079 0.0
C210 C 0.86618 0.89261 0.73341 0.0
C211 C 0.92363 0.85473 0.73285 0.0
C212 C 0.82248 0.84167 0.73181 0.0
C213 C 0.87893 0.80445 0.73125 0.0
C214 C 0.95227 0.06416 0.77136 0.0
C215 C 0.90668 0.05106 0.78163 0.0
C216 C 0.98508 0.11647 0.76569 0.0
C217 C 0.89442 0.09057 0.7859 0.0
C218 C 0.97152 0.15486 0.77025 0.0
N219 N 0.9268 0.14121 0.78016 0.0
C220 C 0.92887 0.8714 0.78844 0.0
C221 C 0.86714 0.89762 0.77934 0.0
C222 C 0.89133 0.83291 0.80018 0.0
N223 N 0.91623 0.90289 0.77836 0.0
C224 C 0.82841 0.85969 0.79088 0.0
C225 C 0.84059 0.82718 0.80177 0.0
H226 H 0.96829 0.87672 0.78765 0.0
H227 H 0.8582 0.92332 0.77122 0.0
C228 C 0.94386 0.04028 0.70514 0.0
N229 N 0.93094 0.03717 0.72325 0.0
C230 C 0.91151 0.04415 0.69178 0.0
C231 C 0.85375 0.04289 0.71595 0.0
C232 C 0.88706 0.03865 0.72886 0.0
C233 C 0.86558 0.0451 0.69708 0.0
H234 H 0.97837 0.03781 0.70106 0.0
H235 H 0.87646 0.03409 0.74325 0.0
O236 O 0.04292 0.98426 0.76773 0.0
O237 O 0.04974 0.06039 0.7366 0.0
O238 O 0.96026 0.94849 0.73592 0.0
O239 O 0.96448 0.02577 0.76693 0.0
H240 H 0.13485 0.03218 0.78517 0.0
H241 H 0.02173 0.88762 0.75852 0.0
H242 H 0.19155 0.99231 0.79113 0.0
H243 H 0.08031 0.85017 0.76496 0.0
H244 H 0.09738 0.22041 0.71084 0.0
H245 H 0.1499 0.08977 0.72917 0.0
H246 H 0.03093 0.13627 0.72545 0.0
H247 H 0.21414 0.17454 0.71434 0.0
H248 H 0.20409 0.99247 0.71983 0.0
H249 H 0.07648 0.93469 0.68029 0.0
H250 H 0.09777 0.16318 0.82036 0.0
H251 H 0.22343 0.18942 0.78244 0.0
H252 H 0.86047 0.92655 0.7343 0.0
H253 H 0.96282 0.85914 0.73304 0.0
H254 H 0.78282 0.83606 0.73141 0.0
H255 H 0.88338 0.76975 0.73033 0.0
H256 H 0.88094 0.01077 0.7862 0.0
H257 H 0.02096 0.12743 0.75807 0.0
H258 H 0.85916 0.08096 0.79378 0.0
H259 H 0.99662 0.19552 0.76595 0.0
H260 H 0.90225 0.80853 0.80826 0.0
H261 H 0.78961 0.85613 0.7911 0.0
H262 H 0.92164 0.04515 0.67737 0.0
H263 H 0.81792 0.04166 0.72075 0.0
C264 C 0.97579 0.55019 0.27257 0.0
C265 C 0.99897 0.44267 0.22615 0.0
O266 O 0.02497 0.5658 0.26968 0.0
Zn267 Zn 0.07035 0.54251 0.25234 0.0
O268 O 0.94052 0.51072 0.26378 0.0
Zn269 Zn 0.98765 0.49658 0.24932 0.0
O270 O 0.02177 0.4673 0.26939 0.0
O271 O 0.10789 0.52352 0.26972 0.0
O272 O 0.95604 0.43867 0.23211 0.0
O273 O 0.04351 0.47923 0.23237 0.0
O274 O 0.11172 0.60484 0.2377 0.0
O275 O 0.02608 0.56557 0.23164 0.0
C276 C 0.06819 0.48149 0.27567 0.0
C277 C 0.07362 0.6033 0.22872 0.0
C278 C 0.58426 0.04423 0.60816 0.0
C279 C 0.46287 0.03767 0.56101 0.0
O280 O 0.55012 0.99621 0.60401 0.0
Zn281 Zn 0.48302 0.95701 0.58556 0.0
O282 O 0.58233 0.08213 0.60031 0.0
Zn283 Zn 0.52297 0.03981 0.58459 0.0
O284 O 0.45691 0.00409 0.60375 0.0
O285 O 0.42502 0.91771 0.60217 0.0
O286 O 0.50256 0.0776 0.56799 0.0
O287 O 0.45097 0.99082 0.56622 0.0
O288 O 0.50309 0.91627 0.57015 0.0
O289 O 0.5537 1.00254 0.56625 0.0
C290 C 0.42333 0.95691 0.60902 0.0
C291 C 0.54201 0.95494 0.56225 0.0
C292 C 0.42789 0.46349 0.94277 0.0
C293 C 0.54316 0.5827 0.89473 0.0
O294 O 0.42615 0.50225 0.93548 0.0
Zn295 Zn 0.48505 0.52364 0.91869 0.0
O296 O 0.46344 0.45239 0.9376 0.0
Zn297 Zn 0.5278 0.48206 0.91822 0.0
O298 O 0.58899 0.50391 0.93384 0.0
O299 O 0.5525 0.55437 0.9367 0.0
O300 O 0.55544 0.54758 0.89932 0.0
O301 O 0.50414 0.5831 0.90246 0.0
O302 O 0.4555 0.45829 0.89981 0.0
O303 O 0.50647 0.4222 0.90197 0.0
C304 C 0.58871 0.54346 0.94111 0.0
C305 C 0.46711 0.42301 0.89478 0.0
H306 H 0.91574 0.19798 0.14106 0.0
C307 C 0.94375 0.18589 0.14562 0.0
H308 H 1.00208 0.19835 0.16544 0.0
H309 H 0.97915 0.41298 0.17596 0.0
H310 H 0.01257 0.43561 0.14474 0.0
H311 H 0.02718 0.37346 0.12591 0.0
H312 H 0.00755 0.28806 0.13803 0.0
C313 C 0.97299 0.20871 0.16074 0.0
C314 C 0.96582 0.24745 0.17205 0.0
C315 C 0.97934 0.29807 0.1649 0.0
C316 C 0.9733 0.33498 0.17604 0.0
C317 C 0.98479 0.38426 0.16832 0.0
C318 C 1.00375 0.39764 0.15038 0.0
C319 C 0.01179 0.36258 0.13976 0.0
C320 C 0.99994 0.31342 0.14687 0.0
H321 H 0.03673 0.41123 0.2076 0.0
C322 C 0.99869 0.40487 0.21256 0.0
H323 H 0.91569 0.35377 0.21224 0.0
H324 H 0.93562 0.1538 0.18992 0.0
H325 H 0.90592 0.13294 0.22159 0.0
H326 H 0.89914 0.19838 0.24127 0.0
H327 H 0.92164 0.28495 0.22939 0.0
C328 C 0.95394 0.36215 0.20681 0.0
C329 C 0.95611 0.3222 0.19456 0.0
C330 C 0.94271 0.27171 0.20171 0.0
C331 C 0.94743 0.23428 0.19043 0.0
C332 C 0.93349 0.18404 0.19793 0.0
C333 C 0.91625 0.17147 0.21608 0.0
C334 C 0.91237 0.20828 0.22716 0.0
C335 C 0.92537 0.25785 0.22014 0.0
H336 H 0.75178 0.99124 0.47203 0.0
C337 C 0.77024 0.96862 0.47662 0.0
H338 H 0.77599 0.92524 0.49906 0.0
H339 H 0.70008 0.02795 0.55936 0.0
H340 H 0.79179 0.06129 0.5679 0.0
H341 H 0.85179 0.04644 0.5479 0.0
H342 H 0.8203 0.9977 0.51935 0.0
C343 C 0.75657 0.94552 0.49331 0.0
C344 C 0.71953 0.95322 0.50548 0.0
C345 C 0.73874 0.98231 0.52206 0.0
C346 C 0.70442 0.99182 0.53342 0.0
C347 C 0.72454 0.02026 0.55005 0.0
C348 C 0.77713 0.03957 0.55515 0.0
C349 C 0.81088 0.03113 0.54391 0.0
C350 C 0.79219 1.00294 0.52755 0.0
H351 H 0.56445 0.90371 0.54681 0.0
C352 C 0.57431 0.94457 0.54901 0.0
H353 H 0.62718 0.02478 0.5426 0.0
H354 H 0.6678 0.88992 0.47597 0.0
H355 H 0.57702 0.85951 0.46679 0.0
H356 H 0.51977 0.88255 0.48505 0.0
H357 H 0.55259 0.93511 0.5128 0.0
C358 C 0.61586 0.98367 0.54006 0.0
C359 C 0.65104 0.97275 0.5281 0.0
C360 C 0.63184 0.94387 0.51146 0.0
C361 C 0.66572 0.93293 0.5004 0.0
C362 C 0.64458 0.90137 0.48445 0.0
C363 C 0.59239 0.88333 0.47909 0.0
C364 C 0.5601 0.89611 0.48941 0.0
C365 C 0.57937 0.92604 0.5054 0.0
H366 H 0.8101 0.75671 0.81987 0.0
C367 C 0.80192 0.78715 0.81485 0.0
H368 H 0.74957 0.81798 0.81726 0.0
H369 H 0.55757 0.59858 0.84443 0.0
H370 H 0.5297 0.60157 0.81326 0.0
H371 H 0.58944 0.67149 0.7917 0.0
H372 H 0.67763 0.73865 0.80116 0.0
C373 C 0.75919 0.7881 0.82157 0.0
C374 C 0.72261 0.74745 0.83495 0.0
C375 C 0.67071 0.70928 0.82936 0.0
C376 C 0.63597 0.66938 0.84188 0.0
C377 C 0.58516 0.63049 0.83566 0.0
C378 C 0.56873 0.63157 0.81775 0.0
C379 C 0.60238 0.67091 0.80561 0.0
C380 C 0.65287 0.70929 0.81124 0.0
H381 H 0.56382 0.65252 0.87714 0.0
C382 C 0.57506 0.62325 0.88083 0.0
H383 H 0.6308 0.5975 0.87715 0.0
H384 H 0.8174 0.81809 0.85076 0.0
H385 H 0.84528 0.81514 0.88194 0.0
H386 H 0.78577 0.74498 0.90344 0.0
H387 H 0.6976 0.67788 0.89401 0.0
C388 C 0.61812 0.62539 0.87305 0.0
C389 C 0.65296 0.66831 0.86007 0.0
C390 C 0.70458 0.70698 0.86575 0.0
C391 C 0.73928 0.74689 0.85324 0.0
C392 C 0.78994 0.78602 0.8595 0.0
C393 C 0.80634 0.78502 0.87742 0.0
C394 C 0.77279 0.74559 0.88954 0.0
C395 C 0.72236 0.70714 0.8839 0.0
H396 H 0.01986 0.82049 0.16516 0.0
C397 C 0.04817 0.83282 0.15386 0.0
H398 H 0.10929 0.8224 0.14213 0.0
H399 H 0.07405 0.72691 0.22809 0.0
H400 H 0.10882 0.81783 0.23789 0.0
H401 H 0.13103 0.88894 0.2152 0.0
H402 H 0.11741 0.86923 0.18258 0.0
C403 C 0.08065 0.81229 0.15313 0.0
C404 C 0.07501 0.77119 0.16665 0.0
C405 C 0.08574 0.7838 0.18559 0.0
C406 C 0.07541 0.7432 0.1986 0.0
C407 C 0.08321 0.75641 0.21753 0.0
C408 C 0.10287 0.80846 0.22337 0.0
C409 C 0.11517 0.84845 0.2106 0.0
C410 C 0.10682 0.83652 0.19193 0.0
H411 H 0.12526 0.67652 0.21318 0.0
C412 C 0.08438 0.64555 0.21529 0.0
H413 H 1.00452 0.61608 0.20759 0.0
H414 H 0.05184 0.73375 0.13134 0.0
H415 H 0.02053 0.64343 0.1214 0.0
H416 H 1.00616 0.5738 0.14379 0.0
H417 H 0.02268 0.594 0.1763 0.0
C418 C 0.04542 0.64749 0.20601 0.0
C419 C 0.05683 0.69048 0.19254 0.0
C420 C 0.04771 0.67823 0.17355 0.0
C421 C 0.05671 0.71856 0.1606 0.0
C422 C 0.04625 0.70486 0.14176 0.0
C423 C 0.0282 0.65312 0.13586 0.0
C424 C 0.02005 0.61391 0.14847 0.0
C425 C 0.02962 0.62605 0.1671 0.0
H426 H 0.19419 0.01302 0.50076 0.0
C427 C 0.2116 0.02762 0.48726 0.0
H428 H 0.28187 0.05779 0.47141 0.0
H429 H 0.35607 0.06596 0.5593 0.0
H430 H 0.32551 0.12871 0.56428 0.0
H431 H 0.28322 0.15149 0.53923 0.0
H432 H 0.26995 0.11049 0.50923 0.0
C433 C 0.26298 0.04247 0.48463 0.0
C434 C 0.29457 0.03443 0.49914 0.0
C435 C 0.30479 0.06114 0.51628 0.0
C436 C 0.33225 0.05056 0.53036 0.0
C437 C 0.3381 0.07462 0.54779 0.0
C438 C 0.32031 0.11042 0.5509 0.0
C439 C 0.29628 0.12305 0.53683 0.0
C440 C 0.28853 0.09886 0.5197 0.0
H441 H 0.44566 0.08589 0.54184 0.0
C442 C 0.43084 0.04596 0.54708 0.0
H443 H 0.36904 0.9664 0.54604 0.0
H444 H 0.28174 0.97638 0.46793 0.0
H445 H 0.31647 0.91725 0.46241 0.0
H446 H 0.36889 0.90327 0.48611 0.0
H447 H 0.38642 0.9479 0.51555 0.0
C448 C 0.38389 0.00665 0.54114 0.0
C449 C 0.35263 0.01602 0.52686 0.0
C450 C 0.34336 0.99021 0.5096 0.0
C451 C 0.31404 0.99913 0.49578 0.0
C452 C 0.30446 0.97184 0.47882 0.0
C453 C 0.32409 0.93764 0.47547 0.0
C454 C 0.35353 0.92971 0.48882 0.0
C455 C 0.36319 0.95555 0.50569 0.0
H456 H 0.18929 0.23503 0.82745 0.0
C457 C 0.20448 0.21927 0.81699 0.0
H458 H 0.27291 0.21754 0.80777 0.0
H459 H 0.43286 0.43923 0.84347 0.0
H460 H 0.44179 0.46336 0.81116 0.0
H461 H 0.38249 0.39965 0.78794 0.0
H462 H 0.31391 0.31141 0.79686 0.0
C463 C 0.25599 0.23283 0.81768 0.0
C464 C 0.29228 0.2706 0.83176 0.0
C465 C 0.3323 0.32189 0.8263 0.0
C466 C 0.36625 0.35875 0.8397 0.0
C467 C 0.40576 0.40981 0.83387 0.0
C468 C 0.41138 0.42415 0.81537 0.0
C469 C 0.37802 0.38827 0.80229 0.0
C470 C 0.33885 0.33771 0.8076 0.0
H471 H 0.44341 0.35207 0.87746 0.0
C472 C 0.43434 0.38308 0.88088 0.0
H473 H 0.3851 0.41581 0.87541 0.0
H474 H 0.22375 0.17356 0.84668 0.0
H475 H 0.21393 0.15004 0.87902 0.0
H476 H 0.27002 0.21536 0.90241 0.0
H477 H 0.33686 0.3043 0.89356 0.0
C478 C 0.39362 0.38414 0.87254 0.0
C479 C 0.36029 0.3442 0.85852 0.0
C480 C 0.32072 0.29269 0.86399 0.0
C481 C 0.28716 0.25558 0.85056 0.0
C482 C 0.2492 0.20384 0.85633 0.0
C483 C 0.24332 0.18971 0.87486 0.0
C484 C 0.275 0.22644 0.88802 0.0
C485 C 0.31333 0.27735 0.88274 0.0
H486 H 0.83046 0.02746 0.66923 0.0
C487 C 0.8288 0.04349 0.68258 0.0
H488 H 0.79122 0.07692 0.69816 0.0
H489 H 0.72067 0.07501 0.60995 0.0
H490 H 0.81372 0.13562 0.60399 0.0
H491 H 0.87992 0.16112 0.62875 0.0
H492 H 0.85354 0.12483 0.65947 0.0
C493 C 0.7936 0.0602 0.68509 0.0
C494 C 0.75337 0.05156 0.67075 0.0
C495 C 0.76908 0.07569 0.65316 0.0
C496 C 0.73046 0.0636 0.63919 0.0
C497 C 0.74782 0.08491 0.62134 0.0
C498 C 0.80125 0.11948 0.61769 0.0
C499 C 0.83855 0.13362 0.6316 0.0
C500 C 0.82289 0.11215 0.64915 0.0
H501 H 0.65075 0.09681 0.62626 0.0
C502 C 0.62593 0.05593 0.62192 0.0
H503 H 0.60944 0.977 0.62487 0.0
H504 H 0.70947 0.99868 0.70298 0.0
H505 H 0.61599 0.94167 0.70938 0.0
H506 H 0.54869 0.92525 0.68578 0.0
H507 H 0.57452 0.96531 0.65557 0.0
C508 C 0.63464 0.01812 0.62887 0.0
C509 C 0.6758 0.03015 0.64319 0.0
C510 C 0.66002 0.00724 0.66093 0.0
C511 C 0.6988 0.01764 0.67467 0.0
C512 C 0.68181 0.99299 0.6921 0.0
C513 C 0.6282 0.96003 0.69597 0.0
C514 C 0.59032 0.95072 0.68268 0.0
C515 C 0.60576 0.97392 0.66536 0.0
H516 H 0.7501 0.78802 0.02334 0.0
C517 C 0.7916 0.8005 0.02085 0.0
H518 H 0.84393 0.78667 1.0044 0.0
H519 H 0.61338 0.56765 0.99105 0.0
H520 H 0.62363 0.54611 0.02244 0.0
H521 H 0.69774 0.61031 0.04164 0.0
H522 H 0.76162 0.69677 0.02964 0.0
C523 C 0.80335 0.77633 0.00734 0.0
C524 C 0.7611 0.73573 0.9954 0.0
C525 C 0.72512 0.68471 1.00243 0.0
C526 C 0.6834 0.647 0.99115 0.0
C527 C 0.64667 0.59725 0.9988 0.0
C528 C 0.65196 0.58443 0.01685 0.0
C529 C 0.6936 0.62063 0.02767 0.0
C530 C 0.72987 0.67022 0.02063 0.0
H531 H 0.66118 0.56784 0.95763 0.0
C532 C 0.63096 0.5779 0.95409 0.0
H533 H 0.6049 0.63359 0.95695 0.0
H534 H 0.82455 0.82914 0.97748 0.0
H535 H 0.81576 0.84996 0.94581 0.0
H536 H 0.7445 0.78413 0.92606 0.0
H537 H 0.68187 0.69687 0.93778 0.0
C538 C 0.63375 0.62212 0.961 0.0
C539 C 0.6787 0.65994 0.97269 0.0
C540 C 0.7155 0.7105 0.96554 0.0
C541 C 0.75677 0.74838 0.97689 0.0
C542 C 0.79262 0.79876 0.96943 0.0
C543 C 0.78803 0.81126 0.95127 0.0
C544 C 0.74792 0.77418 0.94015 0.0
C545 C 0.71208 0.7243 0.94709 0.0
H546 H 0.02358 0.78237 0.35502 0.0
C547 C 0.98654 0.78313 0.35524 0.0
H548 H 0.90906 0.74735 0.34392 0.0
H549 H 0.98064 0.67763 0.27147 0.0
H550 H 0.96284 0.74505 0.25953 0.0
H551 H 0.94092 0.79817 0.28046 0.0
H552 H 0.93688 0.78436 0.31347 0.0
C553 C 0.94681 0.74842 0.34444 0.0
C554 C 0.95499 0.71268 0.33181 0.0
C555 C 0.95609 0.72052 0.31252 0.0
C556 C 0.9685 0.68972 0.30043 0.0
C557 C 0.97089 0.69948 0.28126 0.0
C558 C 0.96087 0.73816 0.27422 0.0
C559 C 0.94856 0.76809 0.28601 0.0
C560 C 0.9463 0.75968 0.30494 0.0
H561 H 0.91796 0.56562 0.2871 0.0
C562 C 0.95991 0.57876 0.28559 0.0
H563 H 0.03771 0.6343 0.29406 0.0
H564 H 0.94847 0.682 0.3678 0.0
H565 H 0.96598 0.61429 0.37967 0.0
H566 H 0.9901 0.56281 0.35876 0.0
H567 H 0.99636 0.57841 0.3258 0.0
C568 C 0.99566 0.621 0.29516 0.0
C569 C 0.97928 0.65081 0.30765 0.0
C570 C 0.97661 0.64183 0.32687 0.0
C571 C 0.96381 0.67231 0.33896 0.0
C572 C 0.95965 0.66119 0.35805 0.0
C573 C 0.96922 0.62215 0.36503 0.0
C574 C 0.98271 0.5931 0.35326 0.0
C575 C 0.98628 0.60253 0.33438 0.0
H576 H 0.17153 0.96798 0.66943 0.0
C577 C 0.17956 0.9611 0.68346 0.0
H578 H 0.22881 0.94528 0.7005 0.0
H579 H 0.28425 0.91572 0.61267 0.0
H580 H 0.19279 0.84558 0.61039 0.0
H581 H 0.13138 0.82427 0.63658 0.0
H582 H 0.16074 0.87419 0.66499 0.0
C583 C 0.22057 0.953 0.68663 0.0
C584 C 0.259 0.95961 0.67179 0.0
C585 C 0.24208 0.92759 0.65574 0.0
C586 C 0.2785 0.93734 0.64112 0.0
C587 C 0.25926 0.908 0.62462 0.0
C588 C 0.20665 0.86788 0.62305 0.0
C589 C 0.17201 0.85607 0.63776 0.0
C590 C 0.18929 0.8854 0.65394 0.0
H591 H 0.36086 0.90828 0.62912 0.0
C592 C 0.38294 0.94761 0.62309 0.0
H593 H 0.39447 0.02511 0.62253 0.0
H594 H 0.30489 0.02851 0.70059 0.0
H595 H 0.39758 0.0946 0.70368 0.0
H596 H 0.46203 0.10664 0.67942 0.0
H597 H 0.43401 0.05312 0.6518 0.0
C598 C 0.3721 0.98552 0.62833 0.0
C599 C 0.33279 0.97631 0.64315 0.0
C600 C 0.35 0.00715 0.65944 0.0
C601 C 0.31304 0.99922 0.67366 0.0
C602 C 0.33125 0.03189 0.6895 0.0
C603 C 0.38442 0.07018 0.69146 0.0
C604 C 0.42068 0.07703 0.67778 0.0
C605 C 0.40395 0.04605 0.66195 0.0
H606 H 0.2359 0.18439 0.00992 0.0
C607 C 0.22075 0.20021 0.02037 0.0
H608 H 0.22202 0.27009 0.02964 0.0
H609 H 0.44679 0.42162 0.99349 0.0
H610 H 0.47266 0.4254 0.02542 0.0
H611 H 0.40839 0.36634 0.04864 0.0
H612 H 0.31781 0.30315 0.04008 0.0
C613 C 0.23634 0.25222 0.01976 0.0
C614 C 0.27482 0.28775 1.00564 0.0
C615 C 0.32751 0.32456 0.01088 0.0
C616 C 0.36466 0.35834 0.99746 0.0
C617 C 0.41706 0.39472 1.00308 0.0
C618 C 0.43242 0.39738 0.02137 0.0
C619 C 0.39622 0.36416 0.03445 0.0
C620 C 0.34434 0.32811 0.02935 0.0
H621 H 0.35775 0.43997 0.96057 0.0
C622 C 0.38837 0.4306 0.95684 0.0
H623 H 0.42019 0.38024 0.96156 0.0
H624 H 0.17576 0.22493 0.99127 0.0
H625 H 0.15042 0.2196 0.95923 0.0
H626 H 0.21589 0.27518 0.93571 0.0
H627 H 0.30683 0.33702 0.94413 0.0
C628 C 0.38892 0.38911 0.96478 0.0
C629 C 0.34902 0.35543 0.97884 0.0
C630 C 0.29625 0.31867 0.97359 0.0
C631 C 0.25892 0.28532 0.98706 0.0
C632 C 0.20608 0.25017 0.98154 0.0
C633 C 0.19094 0.24685 0.9632 0.0
C634 C 0.22776 0.27824 0.94997 0.0
C635 C 0.27984 0.31376 0.95501 0.0
H636 H 0.00738 0.24795 0.3601 0.0
C637 C 0.03547 0.23486 0.35663 0.0
H638 H 0.09604 0.24566 0.33787 0.0
H639 H 0.01049 0.32618 0.27281 0.0
H640 H 0.99188 0.2404 0.26138 0.0
H641 H 1.00421 0.17855 0.28118 0.0
H642 H 0.03569 0.20233 0.31251 0.0
C643 C 0.06728 0.2571 0.34196 0.0
C644 C 0.06133 0.29545 0.32998 0.0
C645 C 0.04265 0.28084 0.31172 0.0
C646 C 0.03471 0.31617 0.30039 0.0
C647 C 0.01654 0.30068 0.28213 0.0
C648 C 1.00578 0.25155 0.27536 0.0
C649 C 0.0128 0.21677 0.2865 0.0
C650 C 0.03098 0.23099 0.30446 0.0
H651 H 0.11637 0.46089 0.29369 0.0
C652 C 0.07618 0.44822 0.28918 0.0
H653 H 0.99585 0.38815 0.29044 0.0
H654 H 0.10412 0.33882 0.36346 0.0
H655 H 0.11988 0.42334 0.37531 0.0
H656 H 0.09963 0.48165 0.35653 0.0
H657 H 0.06454 0.45628 0.32568 0.0
C658 C 0.0359 0.40216 0.29539 0.0
C659 C 0.04521 0.36601 0.30736 0.0
C660 C 0.06383 0.38063 0.32565 0.0
C661 C 0.07308 0.34585 0.33681 0.0
C662 C 0.09433 0.36268 0.35466 0.0
C663 C 0.1039 0.41128 0.36159 0.0
C664 C 0.0927 0.44419 0.351 0.0
C665 C 0.07286 0.42926 0.33324 0.0
loop_
_geom_bond_atom_site_label_1
_geom_bond_atom_site_label_2
_geom_bond_distance
_geom_bond_site_symmetry_2
_ccdc_geom_bond_type
Li0 N17 1.990 . S
Li0 O60 1.956 . S
Li0 O61 1.970 1_455 S
Li0 O62 1.961 1_545 S
Li1 N25 1.990 . S
Li1 O60 1.970 1_655 S
Li1 O61 1.956 . S
Li1 O63 1.961 1_545 S
Li2 N47 1.990 . S
Li2 O60 1.961 1_565 S
Li2 O62 1.956 . S
Li2 O63 1.970 1_455 S
Li3 N53 1.990 . S
Li3 O61 1.961 1_565 S
Li3 O62 1.970 1_655 S
Li3 O63 1.956 . S
C4 C6 1.348 . S
C4 C7 1.356 . S
C4 O60 1.325 . S
N5 C8 1.314 . S
N5 C9 1.279 . S
C6 C4 1.348 . S
C6 C8 1.353 . S
C6 H64 0.929 . S
C7 C4 1.356 . S
C7 C9 1.358 . S
C7 H65 0.930 . S
C8 N5 1.314 . S
C8 C6 1.353 . S
C8 H66 0.930 . S
C9 N5 1.279 . S
C9 C7 1.358 . S
C9 H67 0.930 . S
C10 C13 1.348 1_655 S
C10 C14 1.356 . S
C10 O61 1.325 . S
C11 N12 1.279 . S
C11 C14 1.358 . S
C11 H68 0.930 . S
N12 C11 1.279 . S
N12 C15 1.314 . S
C13 C10 1.348 1_455 S
C13 C15 1.353 1_455 S
C13 H69 0.929 . S
C14 C10 1.356 . S
C14 C11 1.358 . S
C14 H70 0.930 . S
C15 N12 1.314 . S
C15 C13 1.353 1_655 S
C15 H71 0.930 1_655 S
C16 N17 1.314 . S
C16 C21 1.353 . S
C16 H22 0.930 . S
N17 Li0 1.990 . S
N17 C16 1.314 . S
N17 C19 1.279 . S
C18 C19 1.358 . S
C18 C20 1.356 . S
C18 H72 0.930 . S
C19 N17 1.279 . S
C19 C18 1.358 . S
C19 H23 0.930 . S
C20 C18 1.356 . S
C20 C21 1.348 . S
C21 C16 1.353 . S
C21 C20 1.348 . S
C21 H73 0.929 . S
H22 C16 0.930 . S
H23 C19 0.930 . S
C24 N25 1.314 . S
C24 C26 1.353 . S
C24 H30 0.930 . S
N25 Li1 1.990 . S
N25 C24 1.314 . S
N25 C28 1.279 . S
C26 C24 1.353 . S
C26 C29 1.348 . S
C26 H74 0.929 . S
C27 C28 1.358 . S
C27 C29 1.356 . S
C27 H75 0.930 . S
C28 N25 1.279 . S
C28 C27 1.358 . S
C28 H31 0.930 . S
C29 C26 1.348 . S
C29 C27 1.356 . S
H30 C24 0.930 . S
H31 C28 0.930 . S
C32 C34 1.348 1_455 S
C32 C35 1.356 . S
C32 O62 1.325 . S
N33 C36 1.314 . S
N33 C37 1.279 . S
C34 C32 1.348 1_655 S
C34 C36 1.353 1_655 S
C34 H76 0.929 . S
C35 C32 1.356 . S
C35 C37 1.358 . S
C35 H77 0.930 . S
C36 N33 1.314 . S
C36 C34 1.353 1_455 S
C36 H78 0.930 1_455 S
C37 N33 1.279 . S
C37 C35 1.358 . S
C37 H79 0.930 . S
C38 C39 1.348 . S
C38 C40 1.356 . S
C38 O63 1.325 . S
C39 C38 1.348 . S
C39 C41 1.353 . S
C39 H80 0.929 . S
C40 C38 1.356 . S
C40 C42 1.358 . S
C40 H81 0.930 . S
C41 C39 1.353 . S
C41 N43 1.314 . S
C41 H82 0.930 . S
C42 C40 1.358 . S
C42 N43 1.279 . S
C42 H83 0.930 . S
N43 C41 1.314 . S
N43 C42 1.279 . S
C44 C46 1.353 . S
C44 N47 1.314 . S
C44 H50 0.930 . S
C45 N47 1.279 . S
C45 C48 1.358 . S
C45 H51 0.930 . S
C46 C44 1.353 . S
C46 C49 1.348 . S
C46 H84 0.929 . S
N47 Li2 1.990 . S
N47 C44 1.314 . S
N47 C45 1.279 . S
C48 C45 1.358 . S
C48 C49 1.356 . S
C48 H85 0.930 . S
C49 C46 1.348 . S
C49 C48 1.356 . S
H50 C44 0.930 . S
H51 C45 0.930 . S
C52 N53 1.314 . S
C52 C54 1.353 . S
C52 H58 0.930 . S
N53 Li3 1.990 . S
N53 C52 1.314 . S
N53 C56 1.279 . S
C54 C52 1.353 . S
C54 C57 1.348 . S
C54 H86 0.929 . S
C55 C56 1.358 . S
C55 C57 1.356 . S
C55 H87 0.930 . S
C56 N53 1.279 . S
C56 C55 1.358 . S
C56 H59 0.930 . S
C57 C54 1.348 . S
C57 C55 1.356 . S
H58 C52 0.930 . S
H59 C56 0.930 . S
O60 Li0 1.956 . S
O60 Li1 1.970 1_455 S
O60 Li2 1.961 1_545 S
O60 C4 1.325 . S
O61 Li0 1.970 1_655 S
O61 Li1 1.956 . S
O61 Li3 1.961 1_545 S
O61 C10 1.325 . S
O62 Li0 1.961 1_565 S
O62 Li2 1.956 . S
O62 Li3 1.970 1_455 S
O62 C32 1.325 . S
O63 Li1 1.961 1_565 S
O63 Li2 1.970 1_655 S
O63 Li3 1.956 . S
O63 C38 1.325 . S
H64 C6 0.929 . S
H65 C7 0.930 . S
H66 C8 0.930 . S
H67 C9 0.930 . S
H68 C11 0.930 . S
H69 C13 0.929 . S
H70 C14 0.930 . S
H71 C15 0.930 1_455 S
H72 C18 0.930 . S
H73 C21 0.929 . S
H74 C26 0.929 . S
H75 C27 0.930 . S
H76 C34 0.929 . S
H77 C35 0.930 . S
H78 C36 0.930 1_655 S
H79 C37 0.930 . S
H80 C39 0.929 . S
H81 C40 0.930 . S
H82 C41 0.930 . S
H83 C42 0.930 . S
H84 C46 0.929 . S
H85 C48 0.930 . S
H86 C54 0.929 . S
H87 C55 0.930 . S
Li88 N105 1.990 . S
Li88 O148 1.956 . S
Li88 O149 1.970 1_665 S
Li88 O150 1.961 . S
Li89 N113 1.990 . S
Li89 O148 1.970 1_445 S
Li89 O149 1.956 . S
Li89 O151 1.961 . S
Li90 N135 1.990 . S
Li90 O148 1.961 . S
Li90 O150 1.956 . S
Li90 O151 1.970 1_665 S
Li91 N141 1.990 . S
Li91 O149 1.961 . S
Li91 O150 1.970 1_445 S
Li91 O151 1.956 . S
C92 C94 1.348 1_655 S
C92 C95 1.356 . S
C92 O148 1.325 . S
N93 C96 1.314 . S
N93 C97 1.279 . S
C94 C92 1.348 1_455 S
C94 C96 1.353 1_455 S
C94 H152 0.929 . S
C95 C92 1.356 . S
C95 C97 1.358 . S
C95 H153 0.930 . S
C96 N93 1.314 . S
C96 C94 1.353 1_655 S
C96 H154 0.930 1_655 S
C97 N93 1.279 . S
C97 C95 1.358 . S
C97 H155 0.930 . S
C98 C101 1.348 1_545 S
C98 C102 1.356 . S
C98 O149 1.325 . S
C99 N100 1.279 . S
C99 C102 1.358 . S
C99 H156 0.930 . S
N100 C99 1.279 . S
N100 C103 1.314 . S
C101 C98 1.348 1_565 S
C101 C103 1.353 1_565 S
C101 H157 0.929 . S
C102 C98 1.356 . S
C102 C99 1.358 . S
C102 H158 0.930 . S
C103 N100 1.314 . S
C103 C101 1.353 1_545 S
C103 H159 0.930 1_545 S
C104 N105 1.314 . S
C104 C109 1.353 . S
C104 H110 0.930 . S
N105 Li88 1.990 . S
N105 C104 1.314 . S
N105 C107 1.279 . S
C106 C107 1.358 . S
C106 C108 1.356 . S
C106 H160 0.930 . S
C107 N105 1.279 . S
C107 C106 1.358 . S
C107 H111 0.930 . S
C108 C106 1.356 . S
C108 C109 1.348 . S
C109 C104 1.353 . S
C109 C108 1.348 . S
C109 H161 0.929 . S
H110 C104 0.930 . S
H111 C107 0.930 . S
C112 N113 1.314 . S
C112 C114 1.353 . S
C112 H118 0.930 . S
N113 Li89 1.990 . S
N113 C112 1.314 . S
N113 C116 1.279 . S
C114 C112 1.353 . S
C114 C117 1.348 . S
C114 H162 0.929 . S
C115 C116 1.358 . S
C115 C117 1.356 . S
C115 H163 0.930 . S
C116 N113 1.279 . S
C116 C115 1.358 . S
C116 H119 0.930 . S
C117 C114 1.348 . S
C117 C115 1.356 . S
H118 C112 0.930 . S
H119 C116 0.930 . S
C120 C122 1.348 1_565 S
C120 C123 1.356 . S
C120 O150 1.325 . S
N121 C124 1.314 . S
N121 C125 1.279 . S
C122 C120 1.348 1_545 S
C122 C124 1.353 1_545 S
C122 H164 0.929 . S
C123 C120 1.356 . S
C123 C125 1.358 . S
C123 H165 0.930 . S
C124 N121 1.314 . S
C124 C122 1.353 1_565 S
C124 H166 0.930 1_565 S
C125 N121 1.279 . S
C125 C123 1.358 . S
C125 H167 0.930 . S
C126 C127 1.348 1_455 S
C126 C128 1.356 . S
C126 O151 1.325 . S
C127 C126 1.348 1_655 S
C127 C129 1.353 1_655 S
C127 H168 0.929 . S
C128 C126 1.356 . S
C128 C130 1.358 . S
C128 H169 0.930 . S
C129 C127 1.353 1_455 S
C129 N131 1.314 . S
C129 H170 0.930 1_455 S
C130 C128 1.358 . S
C130 N131 1.279 . S
C130 H171 0.930 . S
N131 C129 1.314 . S
N131 C130 1.279 . S
C132 C134 1.353 . S
C132 N135 1.314 . S
C132 H138 0.930 . S
C133 N135 1.279 . S
C133 C136 1.358 . S
C133 H139 0.930 . S
C134 C132 1.353 . S
C134 C137 1.348 . S
C134 H172 0.929 . S
N135 Li90 1.990 . S
N135 C132 1.314 . S
N135 C133 1.279 . S
C136 C133 1.358 . S
C136 C137 1.356 . S
C136 H173 0.930 . S
C137 C134 1.348 . S
C137 C136 1.356 . S
H138 C132 0.930 . S
H139 C133 0.930 . S
C140 N141 1.314 . S
C140 C142 1.353 . S
C140 H146 0.930 . S
N141 Li91 1.990 . S
N141 C140 1.314 . S
N141 C144 1.279 . S
C142 C140 1.353 . S
C142 C145 1.348 . S
C142 H174 0.929 . S
C143 C144 1.358 . S
C143 C145 1.356 . S
C143 H175 0.930 . S
C144 N141 1.279 . S
C144 C143 1.358 . S
C144 H147 0.930 . S
C145 C142 1.348 . S
C145 C143 1.356 . S
H146 C140 0.930 . S
H147 C144 0.930 . S
O148 Li88 1.956 . S
O148 Li89 1.970 1_665 S
O148 Li90 1.961 . S
O148 C92 1.325 . S
O149 Li88 1.970 1_445 S
O149 Li89 1.956 . S
O149 Li91 1.961 . S
O149 C98 1.325 . S
O150 Li88 1.961 . S
O150 Li90 1.956 . S
O150 Li91 1.970 1_665 S
O150 C120 1.325 . S
O151 Li89 1.961 . S
O151 Li90 1.970 1_445 S
O151 Li91 1.956 . S
O151 C126 1.325 . S
H152 C94 0.929 . S
H153 C95 0.930 . S
H154 C96 0.930 1_455 S
H155 C97 0.930 . S
H156 C99 0.930 . S
H157 C101 0.929 . S
H158 C102 0.930 . S
H159 C103 0.930 1_565 S
H160 C106 0.930 . S
H161 C109 0.929 . S
H162 C114 0.929 . S
H163 C115 0.930 . S
H164 C122 0.929 . S
H165 C123 0.930 . S
H166 C124 0.930 1_545 S
H167 C125 0.930 . S
H168 C127 0.929 . S
H169 C128 0.930 . S
H170 C129 0.930 1_655 S
H171 C130 0.930 . S
H172 C134 0.929 . S
H173 C136 0.930 . S
H174 C142 0.929 . S
H175 C143 0.930 . S
Li176 N193 1.990 . S
Li176 O236 1.956 . S
Li176 O237 1.970 1_565 S
Li176 O238 1.961 1_455 S
Li177 N201 1.990 . S
Li177 O236 1.970 1_545 S
Li177 O237 1.956 . S
Li177 O239 1.961 1_455 S
Li178 N223 1.990 . S
Li178 O236 1.961 1_655 S
Li178 O238 1.956 . S
Li178 O239 1.970 1_565 S
Li179 N229 1.990 . S
Li179 O237 1.961 1_655 S
Li179 O238 1.970 1_545 S
Li179 O239 1.956 . S
C180 C182 1.348 1_565 S
C180 C183 1.356 . S
C180 O236 1.325 . S
N181 C184 1.314 . S
N181 C185 1.279 . S
C182 C180 1.348 1_545 S
C182 C184 1.353 1_545 S
C182 H240 0.929 . S
C183 C180 1.356 . S
C183 C185 1.358 . S
C183 H241 0.930 . S
C184 N181 1.314 . S
C184 C182 1.353 1_565 S
C184 H242 0.930 1_565 S
C185 N181 1.279 . S
C185 C183 1.358 . S
C185 H243 0.930 . S
C186 C189 1.348 . S
C186 C190 1.356 . S
C186 O237 1.325 . S
C187 N188 1.279 . S
C187 C190 1.358 . S
C187 H244 0.930 . S
N188 C187 1.279 . S
N188 C191 1.314 . S
C189 C186 1.348 . S
C189 C191 1.353 . S
C189 H245 0.929 . S
C190 C186 1.356 . S
C190 C187 1.358 . S
C190 H246 0.930 . S
C191 N188 1.314 . S
C191 C189 1.353 . S
C191 H247 0.930 . S
C192 N193 1.314 . S
C192 C197 1.353 . S
C192 H198 0.930 . S
N193 Li176 1.990 . S
N193 C192 1.314 . S
N193 C195 1.279 . S
C194 C195 1.358 . S
C194 C196 1.356 . S
C194 H248 0.930 . S
C195 N193 1.279 . S
C195 C194 1.358 . S
C195 H199 0.930 . S
C196 C194 1.356 . S
C196 C197 1.348 . S
C197 C192 1.353 . S
C197 C196 1.348 . S
C197 H249 0.929 . S
H198 C192 0.930 . S
H199 C195 0.930 . S
C200 N201 1.314 . S
C200 C202 1.353 . S
C200 H206 0.930 . S
N201 Li177 1.990 . S
N201 C200 1.314 . S
N201 C204 1.279 . S
C202 C200 1.353 . S
C202 C205 1.348 . S
C202 H250 0.929 . S
C203 C204 1.358 . S
C203 C205 1.356 . S
C203 H251 0.930 . S
C204 N201 1.279 . S
C204 C203 1.358 . S
C204 H207 0.930 . S
C205 C202 1.348 . S
C205 C203 1.356 . S
H206 C200 0.930 . S
H207 C204 0.930 . S
C208 C210 1.348 . S
C208 C211 1.356 . S
C208 O238 1.325 . S
N209 C212 1.314 . S
N209 C213 1.279 . S
C210 C208 1.348 . S
C210 C212 1.353 . S
C210 H252 0.929 . S
C211 C208 1.356 . S
C211 C213 1.358 . S
C211 H253 0.930 . S
C212 N209 1.314 . S
C212 C210 1.353 . S
C212 H254 0.930 . S
C213 N209 1.279 . S
C213 C211 1.358 . S
C213 H255 0.930 . S
C214 C215 1.348 1_545 S
C214 C216 1.356 . S
C214 O239 1.325 . S
C215 C214 1.348 1_565 S
C215 C217 1.353 1_565 S
C215 H256 0.929 . S
C216 C214 1.356 . S
C216 C218 1.358 . S
C216 H257 0.930 . S
C217 C215 1.353 1_545 S
C217 N219 1.314 . S
C217 H258 0.930 1_545 S
C218 C216 1.358 . S
C218 N219 1.279 . S
C218 H259 0.930 . S
N219 C217 1.314 . S
N219 C218 1.279 . S
C220 C222 1.353 . S
C220 N223 1.314 . S
C220 H226 0.930 . S
C221 N223 1.279 . S
C221 C224 1.358 . S
C221 H227 0.930 . S
C222 C220 1.353 . S
C222 C225 1.348 . S
C222 H260 0.929 . S
N223 Li178 1.990 . S
N223 C220 1.314 . S
N223 C221 1.279 . S
C224 C221 1.358 . S
C224 C225 1.356 . S
C224 H261 0.930 . S
C225 C222 1.348 . S
C225 C224 1.356 . S
H226 C220 0.930 . S
H227 C221 0.930 . S
C228 N229 1.314 . S
C228 C230 1.353 . S
C228 H234 0.930 . S
N229 Li179 1.990 . S
N229 C228 1.314 . S
N229 C232 1.279 . S
C230 C228 1.353 . S
C230 C233 1.348 . S
C230 H262 0.929 . S
C231 C232 1.358 . S
C231 C233 1.356 . S
C231 H263 0.930 . S
C232 N229 1.279 . S
C232 C231 1.358 . S
C232 H235 0.930 . S
C233 C230 1.348 . S
C233 C231 1.356 . S
H234 C228 0.930 . S
H235 C232 0.930 . S
O236 Li176 1.956 . S
O236 Li177 1.970 1_565 S
O236 Li178 1.961 1_455 S
O236 C180 1.325 . S
O237 Li176 1.970 1_545 S
O237 Li177 1.956 . S
O237 Li179 1.961 1_455 S
O237 C186 1.325 . S
O238 Li176 1.961 1_655 S
O238 Li178 1.956 . S
O238 Li179 1.970 1_565 S
O238 C208 1.325 . S
O239 Li177 1.961 1_655 S
O239 Li178 1.970 1_545 S
O239 Li179 1.956 . S
O239 C214 1.325 . S
H240 C182 0.929 . S
H241 C183 0.930 . S
H242 C184 0.930 1_545 S
H243 C185 0.930 . S
H244 C187 0.930 . S
H245 C189 0.929 . S
H246 C190 0.930 . S
H247 C191 0.930 . S
H248 C194 0.930 . S
H249 C197 0.929 . S
H250 C202 0.929 . S
H251 C203 0.930 . S
H252 C210 0.929 . S
H253 C211 0.930 . S
H254 C212 0.930 . S
H255 C213 0.930 . S
H256 C215 0.929 . S
H257 C216 0.930 . S
H258 C217 0.930 1_565 S
H259 C218 0.930 . S
H260 C222 0.929 . S
H261 C224 0.930 . S
H262 C230 0.929 . S
H263 C231 0.930 . S
C264 O266 1.252 . S
C264 O268 1.255 1_455 S
C265 O272 1.246 . S
C265 O273 1.258 1_655 S
O266 C264 1.252 . S
O266 Zn267 2.028 . S
Zn267 O266 2.028 . S
Zn267 O271 2.035 . S
Zn267 O273 2.035 . S
Zn267 O274 2.028 . S
O268 C264 1.255 1_655 S
O268 Zn269 2.035 . S
Zn269 O268 2.035 . S
Zn269 O270 2.028 . S
Zn269 O272 2.028 . S
Zn269 O275 2.035 . S
O270 Zn269 2.028 . S
O270 C276 1.246 . S
O271 Zn267 2.035 . S
O271 C276 1.258 1_455 S
O272 C265 1.246 . S
O272 Zn269 2.028 . S
O273 C265 1.258 1_455 S
O273 Zn267 2.035 . S
O274 Zn267 2.028 . S
O274 C277 1.252 . S
O275 Zn269 2.035 . S
O275 C277 1.255 1_655 S
C276 O270 1.246 . S
C276 O271 1.258 1_655 S
C277 O274 1.252 . S
C277 O275 1.255 1_455 S
C278 O280 1.247 . S
C278 O282 1.258 1_565 S
C279 O286 1.250 . S
C279 O287 1.253 1_545 S
O280 C278 1.247 . S
O280 Zn281 2.028 . S
Zn281 O280 2.028 . S
Zn281 O285 2.035 . S
Zn281 O287 2.035 . S
Zn281 O288 2.028 . S
O282 C278 1.258 1_545 S
O282 Zn283 2.035 . S
Zn283 O282 2.035 . S
Zn283 O284 2.028 . S
Zn283 O286 2.028 . S
Zn283 O289 2.035 . S
O284 Zn283 2.028 . S
O284 C290 1.250 . S
O285 Zn281 2.035 . S
O285 C290 1.253 1_565 S
O286 C279 1.250 . S
O286 Zn283 2.028 . S
O287 C279 1.253 1_565 S
O287 Zn281 2.035 . S
O288 Zn281 2.028 . S
O288 C291 1.247 . S
O289 Zn283 2.035 . S
O289 C291 1.258 1_545 S
C290 O284 1.250 . S
C290 O285 1.253 1_545 S
C291 O288 1.247 . S
C291 O289 1.258 1_565 S
C292 O294 1.247 . S
C292 O296 1.258 . S
C293 O300 1.247 . S
C293 O301 1.258 . S
O294 C292 1.247 . S
O294 Zn295 2.028 . S
Zn295 O294 2.028 . S
Zn295 O299 2.035 . S
Zn295 O301 2.035 . S
Zn295 O302 2.028 . S
O296 C292 1.258 . S
O296 Zn297 2.035 . S
Zn297 O296 2.035 . S
Zn297 O298 2.028 . S
Zn297 O300 2.028 . S
Zn297 O303 2.035 . S
O298 Zn297 2.028 . S
O298 C304 1.247 . S
O299 Zn295 2.035 . S
O299 C304 1.258 . S
O300 C293 1.247 . S
O300 Zn297 2.028 . S
O301 C293 1.258 . S
O301 Zn295 2.035 . S
O302 Zn295 2.028 . S
O302 C305 1.247 . S
O303 Zn297 2.035 . S
O303 C305 1.258 . S
C304 O298 1.247 . S
C304 O299 1.258 . S
C305 O302 1.247 . S
C305 O303 1.258 . S
H306 C307 0.951 . S
C307 H306 0.951 . S
C307 C313 1.265 . S
H308 C313 0.950 1_455 S
H309 C317 0.949 . S
H310 C318 0.950 . S
H311 C319 0.951 . S
H312 C320 0.951 . S
C313 C307 1.265 . S
C313 H308 0.950 1_655 S
C313 C314 1.478 . S
C314 C313 1.478 . S
C314 C315 1.397 1_655 S
C314 C331 1.394 . S
C315 C314 1.397 1_455 S
C315 C316 1.438 . S
C315 C320 1.429 . S
C316 C315 1.438 . S
C316 C317 1.428 . S
C316 C329 1.394 1_455 S
C317 H309 0.949 . S
C317 C316 1.428 . S
C317 C318 1.345 . S
C318 H310 0.950 . S
C318 C317 1.345 . S
C318 C319 1.424 . S
C319 H311 0.951 . S
C319 C318 1.424 . S
C319 C320 1.347 . S
C320 H312 0.951 . S
C320 C315 1.429 . S
C320 C319 1.347 . S
H321 C322 0.951 . S
C322 H321 0.951 . S
C322 C328 1.265 1_455 S
H323 C328 0.950 . S
H324 C332 0.949 . S
H325 C333 0.950 . S
H326 C334 0.951 . S
H327 C335 0.951 . S
C328 C322 1.265 1_655 S
C328 H323 0.950 . S
C328 C329 1.478 . S
C329 C316 1.394 1_655 S
C329 C328 1.478 . S
C329 C330 1.397 . S
C330 C329 1.397 . S
C330 C331 1.438 . S
C330 C335 1.429 . S
C331 C314 1.394 . S
C331 C330 1.438 . S
C331 C332 1.428 . S
C332 H324 0.949 . S
C332 C331 1.428 . S
C332 C333 1.345 . S
C333 H325 0.950 . S
C333 C332 1.345 . S
C333 C334 1.424 . S
C334 H326 0.951 . S
C334 C333 1.424 . S
C334 C335 1.347 . S
C335 H327 0.951 . S
C335 C330 1.429 . S
C335 C334 1.347 . S
H336 C337 0.951 . S
C337 H336 0.951 . S
C337 C343 1.265 . S
H338 C343 0.950 . S
H339 C347 0.949 . S
H340 C348 0.950 . S
H341 C349 0.951 . S
H342 C350 0.951 . S
C343 C337 1.265 . S
C343 H338 0.950 . S
C343 C344 1.478 . S
C344 C343 1.478 . S
C344 C345 1.397 1_565 S
C344 C361 1.394 . S
C345 C344 1.397 1_545 S
C345 C346 1.438 . S
C345 C350 1.429 . S
C346 C345 1.438 . S
C346 C347 1.428 . S
C346 C359 1.394 1_545 S
C347 H339 0.949 . S
C347 C346 1.428 . S
C347 C348 1.345 . S
C348 H340 0.950 . S
C348 C347 1.345 . S
C348 C349 1.424 . S
C349 H341 0.951 . S
C349 C348 1.424 . S
C349 C350 1.347 . S
C350 H342 0.951 . S
C350 C345 1.429 . S
C350 C349 1.347 . S
H351 C352 0.951 1_545 S
C352 H351 0.951 1_565 S
C352 C358 1.265 . S
H353 C358 0.950 . S
H354 C362 0.949 . S
H355 C363 0.950 . S
H356 C364 0.951 . S
H357 C365 0.951 . S
C358 C352 1.265 . S
C358 H353 0.950 . S
C358 C359 1.478 . S
C359 C346 1.394 1_565 S
C359 C358 1.478 . S
C359 C360 1.397 . S
C360 C359 1.397 . S
C360 C361 1.438 . S
C360 C365 1.429 . S
C361 C344 1.394 . S
C361 C360 1.438 . S
C361 C362 1.428 . S
C362 H354 0.949 . S
C362 C361 1.428 . S
C362 C363 1.345 . S
C363 H355 0.950 . S
C363 C362 1.345 . S
C363 C364 1.424 . S
C364 H356 0.951 . S
C364 C363 1.424 . S
C364 C365 1.347 . S
C365 H357 0.951 . S
C365 C360 1.429 . S
C365 C364 1.347 . S
H366 C367 0.951 . S
C367 H366 0.951 . S
C367 C373 1.265 . S
H368 C373 0.950 . S
H369 C377 0.949 . S
H370 C378 0.950 . S
H371 C379 0.951 . S
H372 C380 0.951 . S
C373 C367 1.265 . S
C373 H368 0.950 . S
C373 C374 1.478 . S
C374 C373 1.478 . S
C374 C375 1.397 . S
C374 C391 1.394 . S
C375 C374 1.397 . S
C375 C376 1.438 . S
C375 C380 1.429 . S
C376 C375 1.438 . S
C376 C377 1.428 . S
C376 C389 1.394 . S
C377 H369 0.949 . S
C377 C376 1.428 . S
C377 C378 1.345 . S
C378 H370 0.950 . S
C378 C377 1.345 . S
C378 C379 1.424 . S
C379 H371 0.951 . S
C379 C378 1.424 . S
C379 C380 1.347 . S
C380 H372 0.951 . S
C380 C375 1.429 . S
C380 C379 1.347 . S
H381 C382 0.951 . S
C382 H381 0.951 . S
C382 C388 1.265 . S
H383 C388 0.950 . S
H384 C392 0.949 . S
H385 C393 0.950 . S
H386 C394 0.951 . S
H387 C395 0.951 . S
C388 C382 1.265 . S
C388 H383 0.950 . S
C388 C389 1.478 . S
C389 C376 1.394 . S
C389 C388 1.478 . S
C389 C390 1.397 . S
C390 C389 1.397 . S
C390 C391 1.438 . S
C390 C395 1.429 . S
C391 C374 1.394 . S
C391 C390 1.438 . S
C391 C392 1.428 . S
C392 H384 0.949 . S
C392 C391 1.428 . S
C392 C393 1.345 . S
C393 H385 0.950 . S
C393 C392 1.345 . S
C393 C394 1.424 . S
C394 H386 0.951 . S
C394 C393 1.424 . S
C394 C395 1.347 . S
C395 H387 0.951 . S
C395 C390 1.429 . S
C395 C394 1.347 . S
H396 C397 0.951 . S
C397 H396 0.951 . S
C397 C403 1.265 . S
H398 C403 0.950 . S
H399 C407 0.949 . S
H400 C408 0.950 . S
H401 C409 0.951 . S
H402 C410 0.951 . S
C403 C397 1.265 . S
C403 H398 0.950 . S
C403 C404 1.478 . S
C404 C403 1.478 . S
C404 C405 1.397 . S
C404 C421 1.394 . S
C405 C404 1.397 . S
C405 C406 1.438 . S
C405 C410 1.429 . S
C406 C405 1.438 . S
C406 C407 1.428 . S
C406 C419 1.394 . S
C407 H399 0.949 . S
C407 C406 1.428 . S
C407 C408 1.345 . S
C408 H400 0.950 . S
C408 C407 1.345 . S
C408 C409 1.424 . S
C409 H401 0.951 . S
C409 C408 1.424 . S
C409 C410 1.347 . S
C410 H402 0.951 . S
C410 C405 1.429 . S
C410 C409 1.347 . S
H411 C412 0.951 . S
C412 H411 0.951 . S
C412 C418 1.265 1_455 S
H413 C418 0.950 . S
H414 C422 0.949 . S
H415 C423 0.950 . S
H416 C424 0.951 . S
H417 C425 0.951 . S
C418 C412 1.265 1_655 S
C418 H413 0.950 . S
C418 C419 1.478 1_655 S
C419 C406 1.394 . S
C419 C418 1.478 1_455 S
C419 C420 1.397 1_455 S
C420 C419 1.397 1_655 S
C420 C421 1.438 1_655 S
C420 C425 1.429 . S
C421 C404 1.394 . S
C421 C420 1.438 1_455 S
C421 C422 1.428 1_455 S
C422 H414 0.949 . S
C422 C421 1.428 1_655 S
C422 C423 1.345 . S
C423 H415 0.950 . S
C423 C422 1.345 . S
C423 C424 1.424 . S
C424 H416 0.951 . S
C424 C423 1.424 . S
C424 C425 1.347 . S
C425 H417 0.951 . S
C425 C420 1.429 . S
C425 C424 1.347 . S
H426 C427 0.951 . S
C427 H426 0.951 . S
C427 C433 1.265 . S
H428 C433 0.950 . S
H429 C437 0.949 . S
H430 C438 0.950 . S
H431 C439 0.951 . S
H432 C440 0.951 . S
C433 C427 1.265 . S
C433 H428 0.950 . S
C433 C434 1.478 . S
C434 C433 1.478 . S
C434 C435 1.397 . S
C434 C451 1.394 1_545 S
C435 C434 1.397 . S
C435 C436 1.438 . S
C435 C440 1.429 . S
C436 C435 1.438 . S
C436 C437 1.428 . S
C436 C449 1.394 . S
C437 H429 0.949 . S
C437 C436 1.428 . S
C437 C438 1.345 . S
C438 H430 0.950 . S
C438 C437 1.345 . S
C438 C439 1.424 . S
C439 H431 0.951 . S
C439 C438 1.424 . S
C439 C440 1.347 . S
C440 H432 0.951 . S
C440 C435 1.429 . S
C440 C439 1.347 . S
H441 C442 0.951 . S
C442 H441 0.951 . S
C442 C448 1.265 1_545 S
H443 C448 0.950 . S
H444 C452 0.949 . S
H445 C453 0.950 . S
H446 C454 0.951 . S
H447 C455 0.951 . S
C448 C442 1.265 1_565 S
C448 H443 0.950 . S
C448 C449 1.478 1_565 S
C449 C436 1.394 . S
C449 C448 1.478 1_545 S
C449 C450 1.397 1_545 S
C450 C449 1.397 1_565 S
C450 C451 1.438 . S
C450 C455 1.429 . S
C451 C434 1.394 1_565 S
C451 C450 1.438 . S
C451 C452 1.428 . S
C452 H444 0.949 . S
C452 C451 1.428 . S
C452 C453 1.345 . S
C453 H445 0.950 . S
C453 C452 1.345 . S
C453 C454 1.424 . S
C454 H446 0.951 . S
C454 C453 1.424 . S
C454 C455 1.347 . S
C455 H447 0.951 . S
C455 C450 1.429 . S
C455 C454 1.347 . S
H456 C457 0.951 . S
C457 H456 0.951 . S
C457 C463 1.265 . S
H458 C463 0.950 . S
H459 C467 0.949 . S
H460 C468 0.950 . S
H461 C469 0.951 . S
H462 C470 0.951 . S
C463 C457 1.265 . S
C463 H458 0.950 . S
C463 C464 1.478 . S
C464 C463 1.478 . S
C464 C465 1.397 . S
C464 C481 1.394 . S
C465 C464 1.397 . S
C465 C466 1.438 . S
C465 C470 1.429 . S
C466 C465 1.438 . S
C466 C467 1.428 . S
C466 C479 1.394 . S
C467 H459 0.949 . S
C467 C466 1.428 . S
C467 C468 1.345 . S
C468 H460 0.950 . S
C468 C467 1.345 . S
C468 C469 1.424 . S
C469 H461 0.951 . S
C469 C468 1.424 . S
C469 C470 1.347 . S
C470 H462 0.951 . S
C470 C465 1.429 . S
C470 C469 1.347 . S
H471 C472 0.951 . S
C472 H471 0.951 . S
C472 C478 1.265 . S
H473 C478 0.950 . S
H474 C482 0.949 . S
H475 C483 0.950 . S
H476 C484 0.951 . S
H477 C485 0.951 . S
C478 C472 1.265 . S
C478 H473 0.950 . S
C478 C479 1.478 . S
C479 C466 1.394 . S
C479 C478 1.478 . S
C479 C480 1.397 . S
C480 C479 1.397 . S
C480 C481 1.438 . S
C480 C485 1.429 . S
C481 C464 1.394 . S
C481 C480 1.438 . S
C481 C482 1.428 . S
C482 H474 0.949 . S
C482 C481 1.428 . S
C482 C483 1.345 . S
C483 H475 0.950 . S
C483 C482 1.345 . S
C483 C484 1.424 . S
C484 H476 0.951 . S
C484 C483 1.424 . S
C484 C485 1.347 . S
C485 H477 0.951 . S
C485 C480 1.429 . S
C485 C484 1.347 . S
H486 C487 0.951 . S
C487 H486 0.951 . S
C487 C493 1.265 . S
H488 C493 0.950 . S
H489 C497 0.949 . S
H490 C498 0.950 . S
H491 C499 0.951 . S
H492 C500 0.951 . S
C493 C487 1.265 . S
C493 H488 0.950 . S
C493 C494 1.478 . S
C494 C493 1.478 . S
C494 C495 1.397 . S
C494 C511 1.394 1_545 S
C495 C494 1.397 . S
C495 C496 1.438 . S
C495 C500 1.429 . S
C496 C495 1.438 . S
C496 C497 1.428 . S
C496 C509 1.394 . S
C497 H489 0.949 . S
C497 C496 1.428 . S
C497 C498 1.345 . S
C498 H490 0.950 . S
C498 C497 1.345 . S
C498 C499 1.424 . S
C499 H491 0.951 . S
C499 C498 1.424 . S
C499 C500 1.347 . S
C500 H492 0.951 . S
C500 C495 1.429 . S
C500 C499 1.347 . S
H501 C502 0.951 . S
C502 H501 0.951 . S
C502 C508 1.265 . S
H503 C508 0.953 . S
H504 C512 0.949 . S
H505 C513 0.950 . S
H506 C514 0.951 . S
H507 C515 0.951 . S
C508 C502 1.265 . S
C508 H503 0.953 . S
C508 C509 1.478 . S
C509 C496 1.394 . S
C509 C508 1.478 . S
C509 C510 1.397 1_545 S
C510 C509 1.397 1_565 S
C510 C511 1.438 . S
C510 C515 1.429 . S
C511 C494 1.394 1_565 S
C511 C510 1.438 . S
C511 C512 1.428 . S
C512 H504 0.949 . S
C512 C511 1.428 . S
C512 C513 1.345 . S
C513 H505 0.950 . S
C513 C512 1.345 . S
C513 C514 1.424 . S
C514 H506 0.951 . S
C514 C513 1.424 . S
C514 C515 1.347 . S
C515 H507 0.951 . S
C515 C510 1.429 . S
C515 C514 1.347 . S
H516 C517 0.951 . S
C517 H516 0.951 . S
C517 C523 1.265 . S
H518 C523 0.950 . S
H519 C527 0.949 . S
H520 C528 0.950 . S
H521 C529 0.951 . S
H522 C530 0.951 . S
C523 C517 1.265 . S
C523 H518 0.950 . S
C523 C524 1.478 1_554 S
C524 C523 1.478 1_556 S
C524 C525 1.397 . S
C524 C541 1.394 . S
C525 C524 1.397 . S
C525 C526 1.438 . S
C525 C530 1.429 1_556 S
C526 C525 1.438 . S
C526 C527 1.428 . S
C526 C539 1.394 . S
C527 H519 0.949 . S
C527 C526 1.428 . S
C527 C528 1.345 1_556 S
C528 H520 0.950 . S
C528 C527 1.345 1_554 S
C528 C529 1.424 . S
C529 H521 0.951 . S
C529 C528 1.424 . S
C529 C530 1.347 . S
C530 H522 0.951 . S
C530 C525 1.429 1_554 S
C530 C529 1.347 . S
H531 C532 0.951 . S
C532 H531 0.951 . S
C532 C538 1.265 . S
H533 C538 0.950 . S
H534 C542 0.949 . S
H535 C543 0.950 . S
H536 C544 0.951 . S
H537 C545 0.951 . S
C538 C532 1.265 . S
C538 H533 0.950 . S
C538 C539 1.478 . S
C539 C526 1.394 . S
C539 C538 1.478 . S
C539 C540 1.397 . S
C540 C539 1.397 . S
C540 C541 1.438 . S
C540 C545 1.429 . S
C541 C524 1.394 . S
C541 C540 1.438 . S
C541 C542 1.428 . S
C542 H534 0.949 . S
C542 C541 1.428 . S
C542 C543 1.345 . S
C543 H535 0.950 . S
C543 C542 1.345 . S
C543 C544 1.424 . S
C544 H536 0.951 . S
C544 C543 1.424 . S
C544 C545 1.347 . S
C545 H537 0.951 . S
C545 C540 1.429 . S
C545 C544 1.347 . S
H546 C547 0.951 . S
C547 H546 0.951 . S
C547 C553 1.265 . S
H548 C553 0.950 . S
H549 C557 0.949 . S
H550 C558 0.950 . S
H551 C559 0.951 . S
H552 C560 0.951 . S
C553 C547 1.265 . S
C553 H548 0.950 . S
C553 C554 1.478 . S
C554 C553 1.478 . S
C554 C555 1.397 . S
C554 C571 1.394 . S
C555 C554 1.397 . S
C555 C556 1.438 . S
C555 C560 1.429 . S
C556 C555 1.438 . S
C556 C557 1.428 . S
C556 C569 1.394 . S
C557 H549 0.949 . S
C557 C556 1.428 . S
C557 C558 1.345 . S
C558 H550 0.950 . S
C558 C557 1.345 . S
C558 C559 1.424 . S
C559 H551 0.951 . S
C559 C558 1.424 . S
C559 C560 1.347 . S
C560 H552 0.951 . S
C560 C555 1.429 . S
C560 C559 1.347 . S
H561 C562 0.951 . S
C562 H561 0.951 . S
C562 C568 1.265 1_655 S
H563 C568 0.950 . S
H564 C572 0.949 . S
H565 C573 0.950 . S
H566 C574 0.951 . S
H567 C575 0.951 . S
C568 C562 1.265 1_455 S
C568 H563 0.950 . S
C568 C569 1.478 1_455 S
C569 C556 1.394 . S
C569 C568 1.478 1_655 S
C569 C570 1.397 1_655 S
C570 C569 1.397 1_455 S
C570 C571 1.438 1_455 S
C570 C575 1.429 . S
C571 C554 1.394 . S
C571 C570 1.438 1_655 S
C571 C572 1.428 . S
C572 H564 0.949 . S
C572 C571 1.428 . S
C572 C573 1.345 1_655 S
C573 H565 0.950 . S
C573 C572 1.345 1_455 S
C573 C574 1.424 . S
C574 H566 0.951 . S
C574 C573 1.424 . S
C574 C575 1.347 . S
C575 H567 0.951 . S
C575 C570 1.429 . S
C575 C574 1.347 . S
H576 C577 0.951 . S
C577 H576 0.951 . S
C577 C583 1.265 . S
H578 C583 0.950 . S
H579 C587 0.949 . S
H580 C588 0.950 . S
H581 C589 0.951 . S
H582 C590 0.951 . S
C583 C577 1.265 . S
C583 H578 0.950 . S
C583 C584 1.478 . S
C584 C583 1.478 . S
C584 C585 1.397 . S
C584 C601 1.394 1_565 S
C585 C584 1.397 . S
C585 C586 1.438 . S
C585 C590 1.429 . S
C586 C585 1.438 . S
C586 C587 1.428 . S
C586 C599 1.394 . S
C587 H579 0.949 . S
C587 C586 1.428 . S
C587 C588 1.345 . S
C588 H580 0.950 . S
C588 C587 1.345 . S
C588 C589 1.424 . S
C589 H581 0.951 . S
C589 C588 1.424 . S
C589 C590 1.347 . S
C590 H582 0.951 . S
C590 C585 1.429 . S
C590 C589 1.347 . S
H591 C592 0.951 . S
C592 H591 0.951 . S
C592 C598 1.265 1_565 S
H593 C598 0.950 . S
H594 C602 0.949 . S
H595 C603 0.950 . S
H596 C604 0.951 . S
H597 C605 0.951 . S
C598 C592 1.265 1_545 S
C598 H593 0.950 . S
C598 C599 1.478 1_545 S
C599 C586 1.394 . S
C599 C598 1.478 1_565 S
C599 C600 1.397 1_565 S
C600 C599 1.397 1_545 S
C600 C601 1.438 . S
C600 C605 1.429 . S
C601 C584 1.394 1_545 S
C601 C600 1.438 . S
C601 C602 1.428 . S
C602 H594 0.949 . S
C602 C601 1.428 . S
C602 C603 1.345 . S
C603 H595 0.950 . S
C603 C602 1.345 . S
C603 C604 1.424 . S
C604 H596 0.951 . S
C604 C603 1.424 . S
C604 C605 1.347 . S
C605 H597 0.951 . S
C605 C600 1.429 . S
C605 C604 1.347 . S
H606 C607 0.951 . S
C607 H606 0.951 . S
C607 C613 1.265 . S
H608 C613 0.950 . S
H609 C617 0.949 . S
H610 C618 0.950 . S
H611 C619 0.951 . S
H612 C620 0.951 1_554 S
C613 C607 1.265 . S
C613 H608 0.950 . S
C613 C614 1.478 1_554 S
C614 C613 1.478 1_556 S
C614 C615 1.397 . S
C614 C631 1.394 . S
C615 C614 1.397 . S
C615 C616 1.438 . S
C615 C620 1.429 . S
C616 C615 1.438 . S
C616 C617 1.428 . S
C616 C629 1.394 . S
C617 H609 0.949 . S
C617 C616 1.428 . S
C617 C618 1.345 . S
C618 H610 0.950 . S
C618 C617 1.345 . S
C618 C619 1.424 . S
C619 H611 0.951 . S
C619 C618 1.424 . S
C619 C620 1.347 . S
C620 H612 0.951 1_556 S
C620 C615 1.429 . S
C620 C619 1.347 . S
H621 C622 0.951 . S
C622 H621 0.951 . S
C622 C628 1.265 . S
H623 C628 0.950 . S
H624 C632 0.965 . S
H625 C633 0.950 1_554 S
H626 C634 0.951 . S
H627 C635 0.951 . S
C628 C622 1.265 . S
C628 H623 0.950 . S
C628 C629 1.478 . S
C629 C616 1.394 . S
C629 C628 1.478 . S
C629 C630 1.397 . S
C630 C629 1.397 . S
C630 C631 1.438 . S
C630 C635 1.429 . S
C631 C614 1.394 . S
C631 C630 1.438 . S
C631 C632 1.418 1_556 S
C632 H624 0.965 . S
C632 C631 1.418 1_554 S
C632 C633 1.339 1_554 S
C633 H625 0.950 1_556 S
C633 C632 1.339 1_556 S
C633 C634 1.424 . S
C634 H626 0.951 . S
C634 C633 1.424 . S
C634 C635 1.347 . S
C635 H627 0.951 . S
C635 C630 1.429 . S
C635 C634 1.347 . S
H636 C637 0.951 . S
C637 H636 0.951 . S
C637 C643 1.265 . S
H638 C643 0.950 . S
H639 C647 0.949 1_655 S
H640 C648 0.950 . S
H641 C649 0.951 . S
H642 C650 0.951 . S
C643 C637 1.265 . S
C643 H638 0.950 . S
C643 C644 1.478 . S
C644 C643 1.478 . S
C644 C645 1.397 . S
C644 C661 1.394 . S
C645 C644 1.397 . S
C645 C646 1.438 . S
C645 C650 1.429 . S
C646 C645 1.438 . S
C646 C647 1.428 . S
C646 C659 1.394 . S
C647 H639 0.949 1_455 S
C647 C646 1.428 . S
C647 C648 1.345 . S
C648 H640 0.950 . S
C648 C647 1.345 . S
C648 C649 1.424 . S
C649 H641 0.951 . S
C649 C648 1.424 . S
C649 C650 1.347 . S
C650 H642 0.951 . S
C650 C645 1.429 . S
C650 C649 1.347 . S
H651 C652 0.951 . S
C652 H651 0.951 . S
C652 C658 1.265 1_455 S
H653 C658 0.950 . S
H654 C662 0.949 . S
H655 C663 0.950 . S
H656 C664 0.951 . S
H657 C665 0.951 . S
C658 C652 1.265 1_655 S
C658 H653 0.950 . S
C658 C659 1.478 1_655 S
C659 C646 1.394 . S
C659 C658 1.478 1_455 S
C659 C660 1.397 . S
C660 C659 1.397 . S
C660 C661 1.438 . S
C660 C665 1.429 . S
C661 C644 1.394 . S
C661 C660 1.438 . S
C661 C662 1.428 . S
C662 H654 0.949 . S
C662 C661 1.428 . S
C662 C663 1.345 . S
C663 H655 0.950 . S
C663 C662 1.345 . S
C663 C664 1.424 . S
C664 H656 0.951 . S
C664 C663 1.424 . S
C664 C665 1.347 . S
C665 H657 0.951 . S
C665 C660 1.429 . S
C665 C664 1.347 . S
C322 C265 1.458 1_455 S
C307 C29 1.454 . S
C337 C137 1.442 . S
C352 C291 1.457 . S
C367 C225 1.456 . S
C382 C293 1.458 . S
C397 C49 1.392 . S
C412 C277 1.422 . S
C442 C279 1.426 . S
C427 C117 1.402 . S
C457 C205 1.446 . S
C472 C305 1.445 . S
C502 C278 1.430 1_545 S
C487 C233 1.417 . S
C517 C57 1.457 . S
C532 C304 1.460 . S
C562 C264 1.422 1_655 S
C547 C108 1.394 . S
C592 C290 1.424 1_565 S
C577 C196 1.395 . S
C622 C292 1.426 . S
C607 C20 1.405 . S
C637 C145 1.398 . S
C652 C276 1.429 1_455 S
