# Generated by pormake.
# Topology rtl, (3,6)-cn, num edge types: 1
# Building blocks:
#     Node 0, Type 0, BuildingBlock: WUSLED_clean_sbu_0, # of connection points: 3
#     Node 1, Type 0, BuildingBlock: WUSLED_clean_sbu_0, # of connection points: 3
#     Node 2, Type 0, BuildingBlock: WUSLED_clean_sbu_0, # of connection points: 3
#     Node 3, Type 0, BuildingBlock: WUSLED_clean_sbu_0, # of connection points: 3
#     Node 4, Type 1, BuildingBlock: KUMBUR_clean_sbu_1, # of connection points: 6
#     Node 5, Type 1, BuildingBlock: KUMBUR_clean_sbu_1, # of connection points: 6
#     Edge 6, Type (0, 1), BuildingBlock: CIFDUS_clean_linker_0, # of connection points: 2
#     Edge 7, Type (0, 1), BuildingBlock: CIFDUS_clean_linker_0, # of connection points: 2
#     Edge 8, Type (0, 1), BuildingBlock: CIFDUS_clean_linker_0, # of connection points: 2
#     Edge 9, Type (0, 1), BuildingBlock: CIFDUS_clean_linker_0, # of connection points: 2
#     Edge 10, Type (0, 1), BuildingBlock: CIFDUS_clean_linker_0, # of connection points: 2
#     Edge 11, Type (0, 1), BuildingBlock: CIFDUS_clean_linker_0, # of connection points: 2
#     Edge 12, Type (0, 1), BuildingBlock: CIFDUS_clean_linker_0, # of connection points: 2
#     Edge 13, Type (0, 1), BuildingBlock: CIFDUS_clean_linker_0, # of connection points: 2
#     Edge 14, Type (0, 1), BuildingBlock: CIFDUS_clean_linker_0, # of connection points: 2
#     Edge 15, Type (0, 1), BuildingBlock: CIFDUS_clean_linker_0, # of connection points: 2
#     Edge 16, Type (0, 1), BuildingBlock: CIFDUS_clean_linker_0, # of connection points: 2
#     Edge 17, Type (0, 1), BuildingBlock: CIFDUS_clean_linker_0, # of connection points: 2
# Relax obj value: 0.016
# Max RMSD: 0.107
# Mean RMSD: 0.061
data_MOF--net-rtl--node1-WUSLED_clean_sbu_0--node2-KUMBUR_clean_sbu_1--edge1-CIFDUS_clean_linker_0
_symmetry_space_group_name_H-M    P1
_symmetry_Int_Tables_number       1
_symmetry_cell_setting            triclinic
loop_
_symmetry_equiv_pos_as_xyz
'x, y, z'
_cell_length_a     38.029664
_cell_length_b     38.43352
_cell_length_c     33.018617
_cell_angle_alpha  80.497037
_cell_angle_beta   99.538161
_cell_angle_gamma 90.5146
loop_
_atom_site_label
_atom_site_type_symbol
_atom_site_fract_x
_atom_site_fract_y
_atom_site_fract_z
_atom_type_partial_charge
C0 C 0.20852 0.83206 0.14695 0.0
C1 C 0.20329 0.86672 0.15363 0.0
C2 C 0.18148 0.84427 0.21835 0.0
C3 C 0.18986 0.87275 0.18901 0.0
C4 C 0.18585 0.80974 0.21075 0.0
C5 C 0.19931 0.80375 0.17559 0.0
U6 U 0.2208 0.84248 0.03111 0.0
O7 O 0.27088 0.84152 1.00586 0.0
O8 O 0.23089 0.80097 0.99576 0.0
C9 C 0.2633 0.8117 0.99207 0.0
C10 C 0.2254 0.82425 0.11212 0.0
C11 C 0.29162 0.78423 1.00347 0.0
C12 C 0.31913 0.73149 0.04817 0.0
C13 C 0.2928 0.75819 0.03894 0.0
C14 C 0.34392 0.75713 0.98722 0.0
C15 C 0.34486 0.73043 0.02219 0.0
C16 C 0.31752 0.78367 0.97796 0.0
C17 C 0.1634 0.90598 0.94443 0.0
C18 C 0.1574 0.90251 0.87068 0.0
C19 C 0.1363 0.95468 0.89231 0.0
C20 C 0.14735 0.93967 0.93404 0.0
C21 C 0.14096 0.93619 0.86011 0.0
C22 C 0.16866 0.8876 0.91245 0.0
C23 C 0.17392 0.89028 0.98865 0.0
O24 O 0.20578 0.80744 0.08516 0.0
O25 O 0.24473 0.84911 0.09468 0.0
O26 O 0.20587 0.89819 1.00638 0.0
O27 O 0.16643 0.85679 0.99842 0.0
H28 H 0.21017 0.88909 0.132 0.0
H29 H 0.187 0.89967 0.19396 0.0
H30 H 0.17899 0.78718 0.23214 0.0
H31 H 0.20306 0.77681 0.17109 0.0
H32 H 0.31879 0.71123 0.07511 0.0
H33 H 0.2731 0.75823 0.05917 0.0
H34 H 0.36364 0.75758 0.96696 0.0
H35 H 0.31718 0.80368 0.9506 0.0
H36 H 0.16178 0.88777 0.84663 0.0
H37 H 0.12342 0.9805 0.88527 0.0
H38 H 0.14305 0.95425 0.95827 0.0
H39 H 0.18127 0.86165 0.91979 0.0
C40 C 0.67527 0.69464 0.74321 0.0
C41 C 0.64258 0.67953 0.72963 0.0
C42 C 0.63508 0.65885 0.80157 0.0
C43 C 0.62261 0.66194 0.75852 0.0
C44 C 0.66799 0.67389 0.81496 0.0
C45 C 0.68784 0.69166 0.78603 0.0
U46 U 0.69522 0.71359 0.63309 0.0
O47 O 0.70638 0.76297 0.59359 0.0
O48 O 0.746 0.71958 0.60879 0.0
C49 C 0.73876 0.75259 0.59129 0.0
C50 C 0.69648 0.71314 0.71294 0.0
C51 C 0.76788 0.77818 0.59733 0.0
C52 C 0.789 0.83618 0.60994 0.0
C53 C 0.76209 0.81101 0.60894 0.0
C54 C 0.82828 0.79593 0.58885 0.0
C55 C 0.82232 0.82918 0.59934 0.0
C56 C 0.80136 0.77086 0.58772 0.0
C57 C 0.63518 0.66415 0.55478 0.0
C58 C 0.64083 0.66198 0.48289 0.0
C59 C 0.58927 0.63707 0.51059 0.0
C60 C 0.60272 0.64673 0.54901 0.0
C61 C 0.608 0.64468 0.47694 0.0
C62 C 0.65429 0.67177 0.52156 0.0
C63 C 0.64812 0.67369 0.59594 0.0
O64 O 0.7174 0.69281 0.69855 0.0
O65 O 0.67894 0.73707 0.68367 0.0
O66 O 0.64113 0.70618 0.60019 0.0
O67 O 0.68038 0.66252 0.61396 0.0
H68 H 0.63254 0.68127 0.69666 0.0
H69 H 0.59764 0.65028 0.74712 0.0
H70 H 0.67821 0.67231 0.84785 0.0
H71 H 0.71303 0.7031 0.79712 0.0
H72 H 0.78324 0.86157 0.61775 0.0
H73 H 0.73653 0.81766 0.61629 0.0
H74 H 0.85374 0.78929 0.58121 0.0
H75 H 0.80652 0.74588 0.57844 0.0
H76 H 0.65579 0.6684 0.45753 0.0
H77 H 0.56428 0.62322 0.50741 0.0
H78 H 0.58771 0.64048 0.57438 0.0
H79 H 0.67944 0.68527 0.52551 0.0
C80 C 0.8354 0.16868 0.19639 0.0
C81 C 0.86803 0.15102 0.19891 0.0
C82 C 0.86942 0.13046 0.27311 0.0
C83 C 0.88495 0.13215 0.23699 0.0
C84 C 0.83645 0.1478 0.27016 0.0
C85 C 0.81966 0.16678 0.23215 0.0
U86 U 0.82046 0.19503 0.07741 0.0
O87 O 0.77043 0.20995 0.03385 0.0
O88 O 0.8137 0.24794 0.03951 0.0
C89 C 0.78034 0.24266 0.0239 0.0
C90 C 0.81782 0.18993 0.15717 0.0
C91 C 0.75429 0.2702 0.02607 0.0
C92 C 0.73286 0.31488 0.06096 0.0
C93 C 0.75733 0.28799 0.06038 0.0
C94 C 0.70152 0.30575 0.99357 0.0
C95 C 0.70481 0.32433 0.02734 0.0
C96 C 0.72606 0.27908 0.99294 0.0
C97 C 0.87325 0.14817 1.01155 0.0
C98 C 0.88899 0.17174 0.94399 0.0
C99 C 0.89427 0.1089 0.96953 0.0
C100 C 0.88179 0.11412 1.00569 0.0
C101 C 0.89868 0.13773 0.93861 0.0
C102 C 0.87626 0.1769 0.98002 0.0
C103 C 0.86311 0.15325 0.0515 0.0
O104 O 0.83832 0.21216 0.13762 0.0
O105 O 0.79633 0.17287 0.13212 0.0
O106 O 0.83038 0.14482 0.05664 0.0
O107 O 0.87346 0.18272 0.06479 0.0
H108 H 0.8805 0.15206 0.17152 0.0
H109 H 0.91009 0.1187 0.23812 0.0
H110 H 0.82396 0.14733 0.29744 0.0
H111 H 0.79451 0.18032 0.23078 0.0
H112 H 0.7364 0.32874 0.08731 0.0
H113 H 0.77884 0.28139 0.08647 0.0
H114 H 0.67986 0.31174 0.96756 0.0
H115 H 0.72307 0.26545 0.96637 0.0
H116 H 0.89167 0.19443 0.92051 0.0
H117 H 0.90178 0.08244 0.96653 0.0
H118 H 0.87965 0.0916 0.02962 0.0
H119 H 0.86951 0.20342 0.98363 0.0
C120 C 0.34198 0.35912 0.33681 0.0
C121 C 0.37482 0.37571 0.34524 0.0
C122 C 0.37334 0.39674 0.27093 0.0
C123 C 0.3904 0.39423 0.31262 0.0
C124 C 0.34024 0.38035 0.26281 0.0
C125 C 0.32481 0.36171 0.2954 0.0
U126 U 0.32898 0.33704 0.45113 0.0
O127 O 0.28028 0.32479 0.47813 0.0
O128 O 0.32401 0.28554 0.49053 0.0
C129 C 0.29142 0.29265 0.49555 0.0
C130 C 0.32538 0.33876 0.37055 0.0
C131 C 0.26534 0.26399 0.49277 0.0
C132 C 0.20919 0.24036 0.46254 0.0
C133 C 0.23508 0.26661 0.46147 0.0
C134 C 0.24385 0.20822 0.5255 0.0
C135 C 0.213 0.21107 0.49495 0.0
C136 C 0.26962 0.23438 0.52441 0.0
C137 C 0.38035 0.38771 0.53201 0.0
C138 C 0.37078 0.37964 0.60403 0.0
C139 C 0.41623 0.41931 0.58156 0.0
C140 C 0.40752 0.41139 0.5413 0.0
C141 C 0.39794 0.40363 0.61348 0.0
C142 C 0.3621 0.3717 0.56364 0.0
C143 C 0.37117 0.38045 0.48913 0.0
O144 O 0.34675 0.31717 0.39892 0.0
O145 O 0.30325 0.35653 0.38649 0.0
O146 O 0.33835 0.38887 0.47053 0.0
O147 O 0.38196 0.34964 0.48302 0.0
H148 H 0.38846 0.37427 0.37702 0.0
H149 H 0.41565 0.4069 0.32009 0.0
H150 H 0.32652 0.3814 0.23114 0.0
H151 H 0.29947 0.34908 0.2882 0.0
H152 H 0.1857 0.24355 0.43864 0.0
H153 H 0.23104 0.28924 0.43675 0.0
H154 H 0.24806 0.18578 0.55046 0.0
H155 H 0.29269 0.23182 0.54893 0.0
H156 H 0.35636 0.36685 0.62787 0.0
H157 H 0.43683 0.43835 0.58741 0.0
H158 H 0.42181 0.42408 0.51724 0.0
H159 H 0.34108 0.35323 0.55703 0.0
Tb160 Tb 0.05255 0.98584 0.5261 0.0
C161 C 0.96485 0.11667 0.51677 0.0
N162 N 0.99445 0.10542 0.54497 0.0
C163 C 0.01948 0.16299 0.53174 0.0
C164 C 0.96234 0.15089 0.49312 0.0
C165 C 0.02033 0.12897 0.5549 0.0
C166 C 0.99073 0.17374 0.50001 0.0
C167 C 0.90378 0.10585 0.48716 0.0
C168 C 0.93592 0.09463 0.51385 0.0
C169 C 0.90178 0.13918 0.46182 0.0
C170 C 0.93104 0.16164 0.46473 0.0
Tb171 Tb 0.99355 0.04797 0.57795 0.0
N172 N 0.93923 0.06219 0.53786 0.0
C173 C 0.87464 0.08331 0.48711 0.0
C174 C 0.91044 0.04083 0.53969 0.0
C175 C 0.87785 0.05087 0.51393 0.0
H176 H 0.04145 0.12199 0.58113 0.0
H177 H 0.85527 0.03357 0.51472 0.0
H178 H 0.02425 0.90663 0.56078 0.0
H179 H 0.18609 0.03812 0.53818 0.0
H180 H 0.91282 0.01586 0.56056 0.0
H181 H 0.84945 0.09092 0.46701 0.0
H182 H 0.12333 0.03442 0.50595 0.0
H183 H 0.04067 0.18111 0.53895 0.0
H184 H 0.87752 0.14809 0.44054 0.0
H185 H 0.9288 0.18766 0.44587 0.0
H186 H 0.04802 0.85356 0.6106 0.0
H187 H 0.9899 0.20025 0.48249 0.0
H188 H 0.21241 0.99258 0.59723 0.0
N189 N 0.07207 0.93532 0.57097 0.0
C190 C 0.1065 0.93467 0.59028 0.0
C191 C 0.06471 0.87627 0.60532 0.0
C192 C 0.12107 0.90526 0.61938 0.0
C193 C 0.05135 0.90628 0.57704 0.0
C194 C 0.09957 0.87593 0.62703 0.0
N195 N 0.11242 0.99018 0.54992 0.0
C196 C 0.13372 0.01562 0.53327 0.0
C197 C 0.16345 0.96349 0.59819 0.0
C198 C 0.1272 0.96343 0.57996 0.0
C199 C 0.18445 0.9915 0.58404 0.0
C200 C 0.16967 0.0173 0.55081 0.0
H201 H 0.10978 0.85275 0.64911 0.0
H202 H 0.1683 0.88372 0.66203 0.0
H203 H 0.20551 0.93473 0.64337 0.0
O204 O 0.08393 0.97067 0.48465 0.0
O205 O 0.04588 0.97317 0.59191 0.0
O206 O 0.04505 0.02687 0.61257 0.0
O207 O 0.02791 0.9609 0.47689 0.0
O208 O 0.06414 0.04278 0.51902 0.0
O209 O 0.05024 0.06127 0.57787 0.0
O210 O 0.97434 0.02843 0.63362 0.0
O211 O 0.97623 0.03529 0.51508 0.0
O212 O 0.02798 0.03441 0.48891 0.0
O213 O 0.97681 0.08391 0.61277 0.0
O214 O 0.97754 0.99228 0.58306 0.0
O215 O 0.99745 0.96885 0.52945 0.0
C216 C 0.05375 0.99324 0.62051 0.0
C217 C 0.06426 0.92241 0.4514 0.0
C218 C 0.0876 0.88891 0.40435 0.0
C219 C 0.07699 0.85757 0.42733 0.0
C220 C 0.05331 0.89085 0.47325 0.0
C221 C 0.05995 0.85863 0.46145 0.0
C222 C 0.08124 0.92131 0.41685 0.0
C223 C 0.06903 0.06376 0.54727 0.0
C224 C 0.05745 0.95685 0.46311 0.0
C225 C 0.15666 0.90589 0.63921 0.0
C226 C 0.17782 0.93499 0.62867 0.0
C227 C 0.99402 0.04264 0.48405 0.0
C228 C 0.98779 0.06492 0.6848 0.0
C229 C 0.98325 0.07804 0.75375 0.0
C230 C 0.0207 0.07867 0.76291 0.0
C231 C 0.02505 0.06631 0.69443 0.0
C232 C 0.96691 0.07062 0.7146 0.0
C233 C 0.04138 0.07275 0.73344 0.0
C234 C 0.9763 0.96874 0.55766 0.0
C235 C 0.97077 0.05963 0.64291 0.0
H236 H 0.08106 0.83226 0.41829 0.0
H237 H 0.03922 0.89104 0.49899 0.0
H238 H 0.05141 0.83439 0.4785 0.0
H239 H 0.0895 0.9457 0.39972 0.0
H240 H 0.03402 0.08377 0.79293 0.0
H241 H 0.04145 0.06303 0.6715 0.0
H242 H 0.93808 0.07037 0.70687 0.0
H243 H 0.07016 0.07364 0.74067 0.0
Tb244 Tb 0.48565 0.49526 1.00425 0.0
C245 C 0.63306 0.55804 0.07809 0.0
N246 N 0.61518 0.53066 0.09633 0.0
C247 C 0.67014 0.49794 0.12087 0.0
C248 C 0.67029 0.55621 0.07993 0.0
C249 C 0.63316 0.50099 0.11811 0.0
C250 C 0.68879 0.5256 0.10155 0.0
C251 C 0.63101 0.6165 0.03659 0.0
C252 C 0.61371 0.58775 0.05671 0.0
C253 C 0.66813 0.61486 0.0383 0.0
C254 C 0.68772 0.58479 0.05992 0.0
Tb255 Tb 0.55478 0.53802 0.08825 0.0
N256 N 0.57761 0.58765 0.05417 0.0
C257 C 0.6104 0.64585 1.01509 0.0
C258 C 0.55765 0.61691 0.03496 0.0
C259 C 0.57362 0.64618 1.01466 0.0
H260 H 0.61908 0.47992 0.13408 0.0
H261 H 0.55756 0.66907 0.99888 0.0
H262 H 0.41304 0.54578 0.98863 0.0
H263 H 0.51137 0.35723 0.07141 0.0
H264 H 0.52952 0.61808 0.03538 0.0
H265 H 0.62265 0.66849 0.99914 0.0
H266 H 0.52489 0.41429 0.03269 0.0
H267 H 0.68424 0.47431 0.13803 0.0
H268 H 0.68191 0.63665 0.02291 0.0
H269 H 0.71632 0.58386 0.06088 0.0
H270 H 0.35175 0.54018 1.00428 0.0
H271 H 0.71742 0.52313 0.10367 0.0
H272 H 0.45265 0.34787 0.09385 0.0
N273 N 0.42837 0.49311 1.01642 0.0
C274 C 0.41795 0.46139 0.03517 0.0
C275 C 0.37017 0.51788 1.01334 0.0
C276 C 0.38324 0.45696 0.0447 0.0
C277 C 0.40501 0.52111 1.00489 0.0
C278 C 0.35926 0.48571 0.03347 0.0
N279 N 0.47659 0.43958 0.03813 0.0
C280 C 0.50026 0.41187 0.04472 0.0
C281 C 0.4335 0.40104 0.06777 0.0
C282 C 0.44299 0.43393 0.04693 0.0
C283 C 0.45888 0.37355 0.07785 0.0
C284 C 0.49216 0.37883 0.06558 0.0
H285 H 0.33236 0.48339 0.04031 0.0
H286 H 0.34743 0.42052 0.07382 0.0
H287 H 0.39131 0.37148 0.09374 0.0
O288 O 0.49124 0.4639 0.95883 0.0
O289 O 0.47262 0.49899 0.06651 0.0
O290 O 0.52612 0.49129 0.11081 0.0
O291 O 0.44852 0.5017 0.94854 0.0
O292 O 0.54106 0.47533 1.01956 0.0
O293 O 0.55931 0.48117 0.08844 0.0
O294 O 0.53902 0.57386 0.12368 0.0
O295 O 0.56933 0.53976 0.02643 0.0
O296 O 0.51736 0.53936 0.97861 0.0
O297 O 0.58218 0.53699 0.1495 0.0
O298 O 0.50084 0.56197 0.06685 0.0
O299 O 0.48125 0.5523 0.99925 0.0
C300 C 0.49153 0.48698 0.10318 0.0
C301 C 0.47228 0.49205 0.88975 0.0
C302 C 0.47352 0.48263 0.81856 0.0
C303 C 0.48965 0.51553 0.81053 0.0
C304 C 0.48749 0.52519 0.88051 0.0
C305 C 0.49635 0.53673 0.84127 0.0
C306 C 0.46479 0.47092 0.8584 0.0
C307 C 0.56287 0.4673 0.05537 0.0
C308 C 0.46479 0.47944 0.93212 0.0
C309 C 0.3739 0.42437 0.06594 0.0
C310 C 0.39896 0.3965 0.07747 0.0
C311 C 0.55147 0.54625 0.98832 0.0
C312 C 0.54774 0.55444 0.19609 0.0
C313 C 0.55063 0.56339 0.26812 0.0
C314 C 0.51951 0.54355 0.27031 0.0
C315 C 0.51657 0.53508 0.19884 0.0
C316 C 0.56484 0.56839 0.23083 0.0
C317 C 0.50272 0.52943 0.23589 0.0
C318 C 0.48084 0.57038 0.02976 0.0
C319 C 0.56188 0.56145 0.15674 0.0
H320 H 0.49648 0.52513 0.78012 0.0
H321 H 0.4923 0.54223 0.90359 0.0
H322 H 0.50829 0.56227 0.83459 0.0
H323 H 0.4527 0.44542 0.86508 0.0
H324 H 0.50822 0.53884 0.29873 0.0
H325 H 0.50273 0.52481 0.17218 0.0
H326 H 0.58859 0.5839 0.22845 0.0
H327 H 0.47871 0.51432 0.23782 0.0
H328 H 0.18791 0.17887 0.5643 0.0
H329 H 0.17427 0.18217 0.43133 0.0
H330 H 0.1283 0.13748 0.43567 0.0
H331 H 0.09231 0.09686 0.47737 0.0
H332 H 0.10697 0.09286 0.61042 0.0
H333 H 0.1523 0.13822 0.60593 0.0
C334 C 0.17518 0.1696 0.53627 0.0
C335 C 0.18476 0.18389 0.49754 0.0
C336 C 0.14889 0.14372 0.53901 0.0
C337 C 0.16729 0.17198 0.4615 0.0
C338 C 0.1411 0.14624 0.46398 0.0
C339 C 0.10559 0.10582 0.50539 0.0
C340 C 0.09635 0.09144 0.5442 0.0
C341 C 0.13174 0.13186 0.50257 0.0
C342 C 0.11348 0.1036 0.58016 0.0
C343 C 0.13947 0.12947 0.57762 0.0
H344 H 0.36903 0.69594 0.96615 0.0
H345 H 0.38174 0.69887 0.09787 0.0
H346 H 0.42518 0.65009 0.11192 0.0
H347 H 0.45921 0.60606 0.08677 0.0
H348 H 0.44691 0.60456 0.95467 0.0
H349 H 0.40425 0.65367 0.94094 0.0
C350 C 0.38163 0.68632 0.99793 0.0
C351 C 0.37202 0.7012 0.03085 0.0
C352 C 0.40676 0.65844 1.00579 0.0
C353 C 0.3882 0.68772 0.0719 0.0
C354 C 0.41325 0.65992 0.07997 0.0
C355 C 0.44737 0.61661 0.05496 0.0
C356 C 0.45614 0.60136 0.02187 0.0
C357 C 0.42266 0.64498 0.04716 0.0
C358 C 0.44047 0.61546 0.98084 0.0
C359 C 0.41604 0.64362 0.97289 0.0
H360 H 0.86719 0.8444 0.54242 0.0
H361 H 0.84045 0.87642 0.65305 0.0
H362 H 0.88509 0.92245 0.64971 0.0
H363 H 0.93195 0.95363 0.61551 0.0
H364 H 0.95932 0.9203 0.50573 0.0
H365 H 0.91474 0.87453 0.50925 0.0
C366 C 0.87138 0.86107 0.5662 0.0
C367 C 0.85032 0.85675 0.59796 0.0
C368 C 0.89734 0.88736 0.56432 0.0
C369 C 0.85583 0.87928 0.62792 0.0
C370 C 0.88155 0.90555 0.62617 0.0
C371 C 0.9282 0.93642 0.59228 0.0
C372 C 0.9491 0.94069 0.56034 0.0
C373 C 0.90242 0.90991 0.59445 0.0
C374 C 0.94379 0.91785 0.53072 0.0
C375 C 0.9182 0.89157 0.53265 0.0
H376 H 0.67534 0.34114 0.09223 0.0
H377 H 0.67739 0.37441 0.96116 0.0
H378 H 0.63424 0.42145 0.95871 0.0
H379 H 0.59518 0.45274 0.99312 0.0
H380 H 0.59319 0.42081 0.12416 0.0
H381 H 0.63772 0.37427 0.12752 0.0
C382 C 0.66669 0.35891 0.06323 0.0
C383 C 0.67942 0.35384 0.02683 0.0
C384 C 0.642 0.3863 0.06206 0.0
C385 C 0.66755 0.37706 0.98948 0.0
C386 C 0.64303 0.4042 0.98806 0.0
C387 C 0.60453 0.4356 0.02244 0.0
C388 C 0.59104 0.44024 0.05836 0.0
C389 C 0.62988 0.40889 0.02403 0.0
C390 C 0.60354 0.41803 0.09619 0.0
C391 C 0.62881 0.39129 0.09804 0.0
H392 H 0.13458 0.89489 0.22809 0.0
H393 H 0.20087 0.80696 0.2967 0.0
H394 H 0.17864 0.81371 0.36009 0.0
H395 H 0.13918 0.84328 0.39593 0.0
H396 H 0.07305 0.93146 0.3282 0.0
H397 H 0.09714 0.92653 0.26508 0.0
C398 C 0.14449 0.87747 0.25699 0.0
C399 C 0.16904 0.85013 0.25731 0.0
C400 C 0.13172 0.8816 0.29365 0.0
C401 C 0.18138 0.82771 0.29516 0.0
C402 C 0.16886 0.83168 0.33159 0.0
C403 C 0.12999 0.8614 0.36734 0.0
C404 C 0.10419 0.88756 0.36679 0.0
C405 C 0.14372 0.85823 0.33111 0.0
C406 C 0.09309 0.91125 0.32963 0.0
C407 C 0.10667 0.90829 0.29342 0.0
H408 H 0.65948 0.61221 0.87202 0.0
H409 H 0.56296 0.66286 0.80022 0.0
H410 H 0.52825 0.63204 0.85079 0.0
H411 H 0.52561 0.59199 0.91691 0.0
H412 H 0.62232 0.54066 0.9874 0.0
H413 H 0.65666 0.57124 0.93671 0.0
C414 C 0.63088 0.61672 0.86756 0.0
C415 C 0.61393 0.63992 0.83236 0.0
C416 C 0.61108 0.5989 0.89673 0.0
C417 C 0.57671 0.64493 0.82679 0.0
C418 C 0.55684 0.62744 0.85583 0.0
C419 C 0.55403 0.58684 0.92058 0.0
C420 C 0.57122 0.56366 0.95562 0.0
C421 C 0.57372 0.60435 0.89096 0.0
C422 C 0.60835 0.55834 0.96071 0.0
C423 C 0.62807 0.57578 0.93168 0.0
H424 H 0.93983 0.13131 0.30633 0.0
H425 H 0.83981 0.0863 0.33162 0.0
H426 H 0.86948 0.05507 0.39899 0.0
H427 H 0.92412 0.03977 0.45031 0.0
H428 H 0.02379 0.08571 0.42559 0.0
H429 H 0.99423 0.11655 0.35794 0.0
C430 C 0.92459 0.11439 0.3264 0.0
C431 C 0.88767 0.11108 0.31384 0.0
C432 C 0.9418 0.09651 0.3651 0.0
C433 C 0.8682 0.08955 0.34063 0.0
C434 C 0.88517 0.07154 0.37907 0.0
C435 C 0.93921 0.05685 0.43025 0.0
C436 C 0.97594 0.06075 0.44302 0.0
C437 C 0.92195 0.07481 0.39162 0.0
C438 C 0.99545 0.08224 0.41636 0.0
C439 C 0.97855 0.1 0.37778 0.0
H440 H 0.46364 0.41354 0.65717 0.0
H441 H 0.35165 0.41558 0.66546 0.0
H442 H 0.36549 0.43617 0.73238 0.0
H443 H 0.40915 0.45891 0.78567 0.0
H444 H 0.52048 0.46009 0.77459 0.0
H445 H 0.50727 0.43303 0.71186 0.0
C446 C 0.44221 0.41852 0.67354 0.0
C447 C 0.40662 0.41327 0.65596 0.0
C448 C 0.45029 0.43106 0.71161 0.0
C449 C 0.37931 0.41911 0.67824 0.0
C450 C 0.38719 0.43114 0.71646 0.0
C451 C 0.43048 0.45253 0.76987 0.0
C452 C 0.46572 0.46139 0.78461 0.0
C453 C 0.42253 0.43783 0.73311 0.0
C454 C 0.49317 0.45351 0.76367 0.0
C455 C 0.4856 0.43817 0.72777 0.0
H456 H 0.64287 0.61507 0.42438 0.0
H457 H 0.53892 0.65136 0.43755 0.0
H458 H 0.51237 0.6301 0.37402 0.0
H459 H 0.51803 0.59927 0.31611 0.0
H460 H 0.62156 0.56324 0.30165 0.0
H461 H 0.64899 0.58692 0.36368 0.0
C462 C 0.61451 0.61877 0.41301 0.0
C463 C 0.59289 0.63441 0.43609 0.0
C464 C 0.59929 0.60645 0.37624 0.0
C465 C 0.55611 0.63878 0.42095 0.0
C466 C 0.54088 0.62676 0.38449 0.0
C467 C 0.54659 0.5965 0.32662 0.0
C468 C 0.56767 0.57921 0.30455 0.0
C469 C 0.5621 0.61008 0.36225 0.0
C470 C 0.60475 0.57652 0.31803 0.0
C471 C 0.62042 0.58992 0.3536 0.0
H472 H 0.88502 0.08688 0.88924 0.0
H473 H 0.95077 0.17702 0.90691 0.0
H474 H 0.98157 0.16729 0.85045 0.0
H475 H 0.99166 0.13192 0.79795 0.0
H476 H 0.92631 0.04182 0.77941 0.0
H477 H 0.89341 0.05285 0.83403 0.0
C478 C 0.90607 0.10438 0.88066 0.0
C479 C 0.91557 0.13263 0.90236 0.0
C480 C 0.92379 0.0986 0.84805 0.0
C481 C 0.94262 0.15534 0.89049 0.0
C482 C 0.96043 0.14966 0.85836 0.0
C483 C 0.97024 0.11466 0.80593 0.0
C484 C 0.96167 0.08588 0.78496 0.0
C485 C 0.95151 0.12119 0.83724 0.0
C486 C 0.93336 0.06419 0.79502 0.0
C487 C 0.91468 0.0704 0.82639 0.0
H488 H 0.44319 0.39539 0.26127 0.0
H489 H 0.34085 0.44165 0.20172 0.0
H490 H 0.36794 0.47321 0.1444 0.0
H491 H 0.42128 0.48924 0.11216 0.0
H492 H 0.52307 0.44143 0.17119 0.0
H493 H 0.49589 0.41 0.22818 0.0
C494 C 0.42683 0.41262 0.23597 0.0
C495 C 0.39001 0.41616 0.23605 0.0
C496 C 0.44256 0.4307 0.20304 0.0
C497 C 0.36919 0.43814 0.20244 0.0
C498 C 0.3847 0.45638 0.1697 0.0
C499 C 0.43734 0.4714 0.13705 0.0
C500 C 0.47408 0.46741 0.13697 0.0
C501 C 0.4214 0.45293 0.16967 0.0
C502 C 0.49472 0.44504 0.17029 0.0
C503 C 0.47918 0.42695 0.20295 0.0
H504 H 0.10481 0.90371 0.79882 0.0
H505 H 0.14828 1.00403 0.82182 0.0
H506 H 0.12586 0.03033 0.74965 0.0
H507 H 0.0935 0.02494 0.67996 0.0
H508 H 0.04794 0.92527 0.65805 0.0
H509 H 0.07254 0.89834 0.72922 0.0
C510 C 0.10971 0.93123 0.78793 0.0
C511 C 0.12821 0.95184 0.81576 0.0
C512 C 0.09655 0.94626 0.74644 0.0
C513 C 0.13381 0.98764 0.80123 0.0
C514 C 0.12111 1.00268 0.7599 0.0
C515 C 0.08869 0.99742 0.69092 0.0
C516 C 0.06905 0.97709 0.66365 0.0
C517 C 0.10223 0.98232 0.73229 0.0
C518 C 0.06356 0.94132 0.6781 0.0
C519 C 0.07734 0.92598 0.71897 0.0
loop_
_geom_bond_atom_site_label_1
_geom_bond_atom_site_label_2
_geom_bond_distance
_geom_bond_site_symmetry_2
_ccdc_geom_bond_type
C0 C1 1.264 . S
C0 C5 1.479 . S
C0 C10 1.465 . S
C1 C0 1.264 . S
C1 C3 1.339 . S
C1 H28 0.931 . S
C2 C3 1.395 . S
C2 C4 1.320 . S
C3 C1 1.339 . S
C3 C2 1.395 . S
C3 H29 0.929 . S
C4 C2 1.320 . S
C4 C5 1.405 . S
C4 H30 0.930 . S
C5 C0 1.479 . S
C5 C4 1.405 . S
C5 H31 0.931 . S
U6 O7 2.454 . S
U6 O8 2.458 1_554 S
U6 C9 2.984 . S
U6 C10 2.847 . S
U6 C23 2.882 1_554 S
U6 O24 2.441 . S
U6 O25 2.420 . S
U6 O26 2.455 1_554 S
U6 O27 2.449 1_554 S
O7 U6 2.454 . S
O7 C9 1.353 . S
O8 U6 2.458 1_556 S
O8 C9 1.286 1_556 S
C9 U6 2.984 . S
C9 O7 1.353 . S
C9 O8 1.286 1_554 S
C9 C11 1.363 . S
C10 C0 1.465 . S
C10 U6 2.847 . S
C10 O24 1.249 . S
C10 O25 1.202 . S
C11 C9 1.363 . S
C11 C13 1.408 . S
C11 C16 1.363 . S
C12 C13 1.310 . S
C12 C15 1.461 . S
C12 H32 0.932 . S
C13 C11 1.408 . S
C13 C12 1.310 . S
C13 H33 0.930 . S
C14 C15 1.474 . S
C14 C16 1.282 . S
C14 H34 0.929 1_554 S
C15 C12 1.461 . S
C15 C14 1.474 . S
C16 C11 1.363 . S
C16 C14 1.282 . S
C16 H35 0.914 1_554 S
C17 C20 1.424 . S
C17 C22 1.245 . S
C17 C23 1.428 . S
C18 C21 1.260 . S
C18 C22 1.477 . S
C18 H36 0.932 . S
C19 C20 1.384 . S
C19 C21 1.479 . S
C19 H37 0.929 . S
C20 C17 1.424 . S
C20 C19 1.384 . S
C20 H38 0.928 . S
C21 C18 1.260 . S
C21 C19 1.479 . S
C22 C17 1.245 . S
C22 C18 1.477 . S
C22 H39 0.932 . S
C23 U6 2.882 1_556 S
C23 C17 1.428 . S
C23 O26 1.301 . S
C23 O27 1.282 . S
O24 U6 2.441 . S
O24 C10 1.249 . S
O25 U6 2.420 . S
O25 C10 1.202 . S
O26 U6 2.455 1_556 S
O26 C23 1.301 . S
O27 U6 2.449 1_556 S
O27 C23 1.282 . S
H28 C1 0.931 . S
H29 C3 0.929 . S
H30 C4 0.930 . S
H31 C5 0.931 . S
H32 C12 0.932 . S
H33 C13 0.930 . S
H34 C14 0.929 1_556 S
H35 C16 0.914 1_556 S
H36 C18 0.932 . S
H37 C19 0.929 . S
H38 C20 0.928 . S
H39 C22 0.932 . S
C40 C41 1.264 . S
C40 C45 1.479 . S
C40 C50 1.465 . S
C41 C40 1.264 . S
C41 C43 1.339 . S
C41 H68 0.931 . S
C42 C43 1.395 . S
C42 C44 1.320 . S
C43 C41 1.339 . S
C43 C42 1.395 . S
C43 H69 0.929 . S
C44 C42 1.320 . S
C44 C45 1.405 . S
C44 H70 0.930 . S
C45 C40 1.479 . S
C45 C44 1.405 . S
C45 H71 0.931 . S
U46 O47 2.454 . S
U46 O48 2.458 . S
U46 C49 2.984 . S
U46 C50 2.847 . S
U46 C63 2.882 . S
U46 O64 2.441 . S
U46 O65 2.420 . S
U46 O66 2.455 . S
U46 O67 2.449 . S
O47 U46 2.454 . S
O47 C49 1.353 . S
O48 U46 2.458 . S
O48 C49 1.286 . S
C49 U46 2.984 . S
C49 O47 1.353 . S
C49 O48 1.286 . S
C49 C51 1.363 . S
C50 C40 1.465 . S
C50 U46 2.847 . S
C50 O64 1.249 . S
C50 O65 1.202 . S
C51 C49 1.363 . S
C51 C53 1.408 . S
C51 C56 1.342 . S
C52 C53 1.310 . S
C52 C55 1.461 . S
C52 H72 0.932 . S
C53 C51 1.408 . S
C53 C52 1.310 . S
C53 H73 0.930 . S
C54 C55 1.474 . S
C54 C56 1.285 . S
C54 H74 0.929 . S
C55 C52 1.461 . S
C55 C54 1.474 . S
C56 C51 1.342 . S
C56 C54 1.285 . S
C56 H75 0.930 . S
C57 C60 1.424 . S
C57 C62 1.245 . S
C57 C63 1.428 . S
C58 C61 1.260 . S
C58 C62 1.477 . S
C58 H76 0.932 . S
C59 C60 1.384 . S
C59 C61 1.479 . S
C59 H77 0.929 . S
C60 C57 1.424 . S
C60 C59 1.384 . S
C60 H78 0.928 . S
C61 C58 1.260 . S
C61 C59 1.479 . S
C62 C57 1.245 . S
C62 C58 1.477 . S
C62 H79 0.932 . S
C63 U46 2.882 . S
C63 C57 1.428 . S
C63 O66 1.301 . S
C63 O67 1.282 . S
O64 U46 2.441 . S
O64 C50 1.249 . S
O65 U46 2.420 . S
O65 C50 1.202 . S
O66 U46 2.455 . S
O66 C63 1.301 . S
O67 U46 2.449 . S
O67 C63 1.282 . S
H68 C41 0.931 . S
H69 C43 0.929 . S
H70 C44 0.930 . S
H71 C45 0.931 . S
H72 C52 0.932 . S
H73 C53 0.930 . S
H74 C54 0.929 . S
H75 C56 0.930 . S
H76 C58 0.932 . S
H77 C59 0.929 . S
H78 C60 0.928 . S
H79 C62 0.932 . S
C80 C81 1.264 . S
C80 C85 1.479 . S
C80 C90 1.465 . S
C81 C80 1.264 . S
C81 C83 1.339 . S
C81 H108 0.931 . S
C82 C83 1.395 . S
C82 C84 1.320 . S
C83 C81 1.339 . S
C83 C82 1.395 . S
C83 H109 0.929 . S
C84 C82 1.320 . S
C84 C85 1.405 . S
C84 H110 0.930 . S
C85 C80 1.479 . S
C85 C84 1.405 . S
C85 H111 0.931 . S
U86 O87 2.454 . S
U86 O88 2.458 . S
U86 C89 2.984 . S
U86 C90 2.847 . S
U86 C103 2.882 1_554 S
U86 O104 2.441 . S
U86 O105 2.420 . S
U86 O106 2.455 1_554 S
U86 O107 2.449 . S
O87 U86 2.454 . S
O87 C89 1.353 . S
O88 U86 2.458 . S
O88 C89 1.286 . S
C89 U86 2.984 . S
C89 O87 1.353 . S
C89 O88 1.286 . S
C89 C91 1.363 . S
C90 C80 1.465 . S
C90 U86 2.847 . S
C90 O104 1.249 . S
C90 O105 1.202 . S
C91 C89 1.363 . S
C91 C93 1.408 . S
C91 C96 1.342 1_554 S
C92 C93 1.310 . S
C92 C95 1.461 . S
C92 H112 0.932 . S
C93 C91 1.408 . S
C93 C92 1.310 . S
C93 H113 0.930 . S
C94 C95 1.474 1_556 S
C94 C96 1.285 . S
C94 H114 0.929 . S
C95 C92 1.461 . S
C95 C94 1.474 1_554 S
C96 C91 1.342 1_556 S
C96 C94 1.285 . S
C96 H115 0.930 . S
C97 C100 1.424 . S
C97 C102 1.245 . S
C97 C103 1.428 . S
C98 C101 1.260 . S
C98 C102 1.477 . S
C98 H116 0.932 . S
C99 C100 1.384 . S
C99 C101 1.479 . S
C99 H117 0.929 . S
C100 C97 1.424 . S
C100 C99 1.384 . S
C100 H118 0.928 . S
C101 C98 1.260 . S
C101 C99 1.479 . S
C102 C97 1.245 . S
C102 C98 1.477 . S
C102 H119 0.932 . S
C103 U86 2.882 1_556 S
C103 C97 1.428 . S
C103 O106 1.301 . S
C103 O107 1.282 1_556 S
O104 U86 2.441 . S
O104 C90 1.249 . S
O105 U86 2.420 . S
O105 C90 1.202 . S
O106 U86 2.455 1_556 S
O106 C103 1.301 . S
O107 U86 2.449 . S
O107 C103 1.282 1_554 S
H108 C81 0.931 . S
H109 C83 0.929 . S
H110 C84 0.930 . S
H111 C85 0.931 . S
H112 C92 0.932 . S
H113 C93 0.930 . S
H114 C94 0.929 . S
H115 C96 0.930 . S
H116 C98 0.932 . S
H117 C99 0.929 . S
H118 C100 0.928 . S
H119 C102 0.932 . S
C120 C121 1.264 . S
C120 C125 1.479 . S
C120 C130 1.465 . S
C121 C120 1.264 . S
C121 C123 1.339 . S
C121 H148 0.931 . S
C122 C123 1.395 . S
C122 C124 1.320 . S
C123 C121 1.339 . S
C123 C122 1.395 . S
C123 H149 0.929 . S
C124 C122 1.320 . S
C124 C125 1.405 . S
C124 H150 0.930 . S
C125 C120 1.479 . S
C125 C124 1.405 . S
C125 H151 0.931 . S
U126 O127 2.454 . S
U126 O128 2.458 . S
U126 C129 2.984 . S
U126 C130 2.847 . S
U126 C143 2.882 . S
U126 O144 2.441 . S
U126 O145 2.420 . S
U126 O146 2.455 . S
U126 O147 2.449 . S
O127 U126 2.454 . S
O127 C129 1.353 . S
O128 U126 2.458 . S
O128 C129 1.286 . S
C129 U126 2.984 . S
C129 O127 1.353 . S
C129 O128 1.286 . S
C129 C131 1.363 . S
C130 C120 1.465 . S
C130 U126 2.847 . S
C130 O144 1.249 . S
C130 O145 1.202 . S
C131 C129 1.363 . S
C131 C133 1.408 . S
C131 C136 1.342 . S
C132 C133 1.310 . S
C132 C135 1.461 . S
C132 H152 0.932 . S
C133 C131 1.408 . S
C133 C132 1.310 . S
C133 H153 0.930 . S
C134 C135 1.474 . S
C134 C136 1.285 . S
C134 H154 0.929 . S
C135 C132 1.461 . S
C135 C134 1.474 . S
C136 C131 1.342 . S
C136 C134 1.285 . S
C136 H155 0.930 . S
C137 C140 1.424 . S
C137 C142 1.245 . S
C137 C143 1.428 . S
C138 C141 1.260 . S
C138 C142 1.477 . S
C138 H156 0.932 . S
C139 C140 1.384 . S
C139 C141 1.479 . S
C139 H157 0.929 . S
C140 C137 1.424 . S
C140 C139 1.384 . S
C140 H158 0.928 . S
C141 C138 1.260 . S
C141 C139 1.479 . S
C142 C137 1.245 . S
C142 C138 1.477 . S
C142 H159 0.932 . S
C143 U126 2.882 . S
C143 C137 1.428 . S
C143 O146 1.301 . S
C143 O147 1.282 . S
O144 U126 2.441 . S
O144 C130 1.249 . S
O145 U126 2.420 . S
O145 C130 1.202 . S
O146 U126 2.455 . S
O146 C143 1.301 . S
O147 U126 2.449 . S
O147 C143 1.282 . S
H148 C121 0.931 . S
H149 C123 0.929 . S
H150 C124 0.930 . S
H151 C125 0.931 . S
H152 C132 0.932 . S
H153 C133 0.930 . S
H154 C134 0.929 . S
H155 C136 0.930 . S
H156 C138 0.932 . S
H157 C139 0.929 . S
H158 C140 0.928 . S
H159 C142 0.932 . S
Tb160 N189 2.617 . S
Tb160 N195 2.572 . S
Tb160 O204 2.465 . S
Tb160 O205 2.387 . S
Tb160 O207 2.428 . S
Tb160 O208 2.308 1_565 S
Tb160 O212 2.349 1_455 S
Tb160 O215 2.393 1_455 S
Tb160 C224 2.802 . S
C161 N162 1.379 . S
C161 C164 1.416 . S
C161 C168 1.424 . S
N162 C161 1.379 . S
N162 C165 1.334 1_655 S
N162 Tb171 2.617 . S
C163 C165 1.390 1_655 S
C163 C166 1.339 . S
C163 H183 0.930 1_655 S
C164 C161 1.416 . S
C164 C166 1.416 . S
C164 C170 1.448 . S
C165 N162 1.334 1_455 S
C165 C163 1.390 1_455 S
C165 H176 0.930 . S
C166 C163 1.339 . S
C166 C164 1.416 . S
C166 H187 0.930 . S
C167 C168 1.413 . S
C167 C169 1.427 . S
C167 C173 1.416 . S
C168 C161 1.424 . S
C168 C167 1.413 . S
C168 N172 1.361 . S
C169 C167 1.427 . S
C169 C170 1.328 . S
C169 H184 0.929 . S
C170 C164 1.448 . S
C170 C169 1.328 . S
C170 H185 0.930 . S
Tb171 N162 2.617 . S
Tb171 N172 2.572 . S
Tb171 O206 2.349 1_655 S
Tb171 O209 2.393 1_655 S
Tb171 O210 2.465 . S
Tb171 O211 2.387 . S
Tb171 O213 2.428 . S
Tb171 O214 2.308 1_545 S
Tb171 C235 2.802 . S
N172 C168 1.361 . S
N172 Tb171 2.572 . S
N172 C174 1.340 . S
C173 C167 1.416 . S
C173 C175 1.332 . S
C173 H181 0.931 . S
C174 N172 1.340 . S
C174 C175 1.407 . S
C174 H180 0.930 . S
C175 C173 1.332 . S
C175 C174 1.407 . S
C175 H177 0.929 . S
H176 C165 0.930 . S
H177 C175 0.929 . S
H178 C193 0.930 1_655 S
H179 C200 0.929 . S
H180 C174 0.930 . S
H181 C173 0.931 . S
H182 C196 0.930 . S
H183 C163 0.930 1_455 S
H184 C169 0.929 . S
H185 C170 0.930 . S
H186 C191 0.930 1_655 S
H187 C166 0.930 . S
H188 C199 0.931 . S
N189 Tb160 2.617 . S
N189 C190 1.379 . S
N189 C193 1.334 . S
C190 N189 1.379 . S
C190 C192 1.416 . S
C190 C198 1.424 . S
C191 H186 0.930 1_455 S
C191 C193 1.390 . S
C191 C194 1.339 . S
C192 C190 1.416 . S
C192 C194 1.416 . S
C192 C225 1.448 . S
C193 H178 0.930 1_455 S
C193 N189 1.334 . S
C193 C191 1.390 . S
C194 C191 1.339 . S
C194 C192 1.416 . S
C194 H201 0.930 . S
N195 Tb160 2.572 . S
N195 C196 1.340 . S
N195 C198 1.361 . S
C196 H182 0.930 . S
C196 N195 1.340 . S
C196 C200 1.407 . S
C197 C198 1.413 . S
C197 C199 1.416 . S
C197 C226 1.427 . S
C198 C190 1.424 . S
C198 N195 1.361 . S
C198 C197 1.413 . S
C199 H188 0.931 . S
C199 C197 1.416 . S
C199 C200 1.332 . S
C200 H179 0.929 . S
C200 C196 1.407 . S
C200 C199 1.332 . S
H201 C194 0.930 . S
H202 C225 0.930 . S
H203 C226 0.929 . S
O204 Tb160 2.465 . S
O204 C224 1.264 . S
O205 Tb160 2.387 . S
O205 C216 1.264 . S
O206 Tb171 2.349 1_455 S
O206 C216 1.243 1_545 S
O207 Tb160 2.428 . S
O207 C224 1.256 . S
O208 Tb160 2.308 1_545 S
O208 C223 1.266 . S
O209 Tb171 2.393 1_455 S
O209 C223 1.248 . S
O210 Tb171 2.465 . S
O210 C235 1.264 . S
O211 Tb171 2.387 . S
O211 C227 1.264 . S
O212 Tb160 2.349 1_655 S
O212 C227 1.243 1_565 S
O213 Tb171 2.428 . S
O213 C235 1.256 . S
O214 Tb171 2.308 1_565 S
O214 C234 1.266 . S
O215 Tb160 2.393 1_655 S
O215 C234 1.248 . S
C216 O205 1.264 . S
C216 O206 1.243 1_565 S
C217 C220 1.399 . S
C217 C222 1.383 . S
C217 C224 1.496 . S
C218 C219 1.399 . S
C218 C222 1.389 . S
C219 C218 1.399 . S
C219 C221 1.380 . S
C219 H236 0.929 . S
C220 C217 1.399 . S
C220 C221 1.392 . S
C220 H237 0.929 . S
C221 C219 1.380 . S
C221 C220 1.392 . S
C221 H238 0.929 . S
C222 C217 1.383 . S
C222 C218 1.389 . S
C222 H239 0.931 . S
C223 O208 1.266 . S
C223 O209 1.248 . S
C224 Tb160 2.802 . S
C224 O204 1.264 . S
C224 O207 1.256 . S
C224 C217 1.496 . S
C225 C192 1.448 . S
C225 H202 0.930 . S
C225 C226 1.328 . S
C226 C197 1.427 . S
C226 H203 0.929 . S
C226 C225 1.328 . S
C227 O211 1.264 . S
C227 O212 1.243 1_545 S
C228 C231 1.399 . S
C228 C232 1.383 . S
C228 C235 1.496 . S
C229 C230 1.399 . S
C229 C232 1.389 . S
C230 C229 1.399 . S
C230 C233 1.380 . S
C230 H240 0.929 . S
C231 C228 1.399 . S
C231 C233 1.392 . S
C231 H241 0.929 . S
C232 C228 1.383 . S
C232 C229 1.389 . S
C232 H242 0.931 . S
C233 C230 1.380 . S
C233 C231 1.392 . S
C233 H243 0.929 . S
C234 O214 1.266 . S
C234 O215 1.248 . S
C235 Tb171 2.802 . S
C235 O210 1.264 . S
C235 O213 1.256 . S
C235 C228 1.496 . S
H236 C219 0.929 . S
H237 C220 0.929 . S
H238 C221 0.929 . S
H239 C222 0.931 . S
H240 C230 0.929 . S
H241 C231 0.929 . S
H242 C232 0.931 . S
H243 C233 0.929 . S
Tb244 N273 2.617 . S
Tb244 N279 2.572 1_556 S
Tb244 O288 2.465 . S
Tb244 O289 2.387 1_556 S
Tb244 O291 2.428 . S
Tb244 O292 2.308 1_556 S
Tb244 O296 2.349 . S
Tb244 O299 2.393 . S
Tb244 C308 2.802 . S
C245 N246 1.379 . S
C245 C248 1.416 . S
C245 C252 1.424 . S
N246 C245 1.379 . S
N246 C249 1.334 . S
N246 Tb255 2.617 . S
C247 C249 1.390 . S
C247 C250 1.339 . S
C247 H267 0.930 . S
C248 C245 1.416 . S
C248 C250 1.416 . S
C248 C254 1.448 . S
C249 N246 1.334 . S
C249 C247 1.390 . S
C249 H260 0.930 . S
C250 C247 1.339 . S
C250 C248 1.416 . S
C250 H271 0.930 . S
C251 C252 1.413 . S
C251 C253 1.427 . S
C251 C257 1.416 . S
C252 C245 1.424 . S
C252 C251 1.413 . S
C252 N256 1.361 . S
C253 C251 1.427 . S
C253 C254 1.328 . S
C253 H268 0.929 . S
C254 C248 1.448 . S
C254 C253 1.328 . S
C254 H269 0.930 . S
Tb255 N246 2.617 . S
Tb255 N256 2.572 . S
Tb255 O290 2.349 . S
Tb255 O293 2.393 . S
Tb255 O294 2.465 . S
Tb255 O295 2.387 1_554 S
Tb255 O297 2.428 . S
Tb255 O298 2.308 . S
Tb255 C319 2.802 . S
N256 C252 1.361 . S
N256 Tb255 2.572 . S
N256 C258 1.340 . S
C257 C251 1.416 . S
C257 C259 1.332 . S
C257 H265 0.931 . S
C258 N256 1.340 . S
C258 C259 1.407 . S
C258 H264 0.930 . S
C259 C257 1.332 . S
C259 C258 1.407 . S
C259 H261 0.929 . S
H260 C249 0.930 . S
H261 C259 0.929 . S
H262 C277 0.930 . S
H263 C284 0.929 . S
H264 C258 0.930 . S
H265 C257 0.931 . S
H266 C280 0.930 . S
H267 C247 0.930 . S
H268 C253 0.929 . S
H269 C254 0.930 . S
H270 C275 0.930 . S
H271 C250 0.930 . S
H272 C283 0.931 . S
N273 Tb244 2.617 . S
N273 C274 1.379 1_556 S
N273 C277 1.334 . S
C274 N273 1.379 1_554 S
C274 C276 1.416 . S
C274 C282 1.424 . S
C275 H270 0.930 . S
C275 C277 1.390 . S
C275 C278 1.339 1_556 S
C276 C274 1.416 . S
C276 C278 1.416 . S
C276 C309 1.448 . S
C277 H262 0.930 . S
C277 N273 1.334 . S
C277 C275 1.390 . S
C278 C275 1.339 1_554 S
C278 C276 1.416 . S
C278 H285 0.930 . S
N279 Tb244 2.572 1_554 S
N279 C280 1.340 . S
N279 C282 1.361 . S
C280 H266 0.930 . S
C280 N279 1.340 . S
C280 C284 1.407 . S
C281 C282 1.413 . S
C281 C283 1.416 . S
C281 C310 1.427 . S
C282 C274 1.424 . S
C282 N279 1.361 . S
C282 C281 1.413 . S
C283 H272 0.931 . S
C283 C281 1.416 . S
C283 C284 1.332 . S
C284 H263 0.929 . S
C284 C280 1.407 . S
C284 C283 1.332 . S
H285 C278 0.930 . S
H286 C309 0.930 . S
H287 C310 0.929 . S
O288 Tb244 2.465 . S
O288 C308 1.264 . S
O289 Tb244 2.387 1_554 S
O289 C300 1.264 . S
O290 Tb255 2.349 . S
O290 C300 1.243 . S
O291 Tb244 2.428 . S
O291 C308 1.256 . S
O292 Tb244 2.308 1_554 S
O292 C307 1.266 . S
O293 Tb255 2.393 . S
O293 C307 1.248 . S
O294 Tb255 2.465 . S
O294 C319 1.264 . S
O295 Tb255 2.387 1_556 S
O295 C311 1.264 . S
O296 Tb244 2.349 . S
O296 C311 1.243 . S
O297 Tb255 2.428 . S
O297 C319 1.256 . S
O298 Tb255 2.308 . S
O298 C318 1.266 . S
O299 Tb244 2.393 . S
O299 C318 1.248 1_556 S
C300 O289 1.264 . S
C300 O290 1.243 . S
C301 C304 1.399 . S
C301 C306 1.383 . S
C301 C308 1.496 . S
C302 C303 1.399 . S
C302 C306 1.389 . S
C303 C302 1.399 . S
C303 C305 1.380 . S
C303 H320 0.929 . S
C304 C301 1.399 . S
C304 C305 1.392 . S
C304 H321 0.929 . S
C305 C303 1.380 . S
C305 C304 1.392 . S
C305 H322 0.929 . S
C306 C301 1.383 . S
C306 C302 1.389 . S
C306 H323 0.931 . S
C307 O292 1.266 . S
C307 O293 1.248 . S
C308 Tb244 2.802 . S
C308 O288 1.264 . S
C308 O291 1.256 . S
C308 C301 1.496 . S
C309 C276 1.448 . S
C309 H286 0.930 . S
C309 C310 1.328 . S
C310 C281 1.427 . S
C310 H287 0.929 . S
C310 C309 1.328 . S
C311 O295 1.264 . S
C311 O296 1.243 . S
C312 C315 1.399 . S
C312 C316 1.383 . S
C312 C319 1.496 . S
C313 C314 1.399 . S
C313 C316 1.389 . S
C314 C313 1.399 . S
C314 C317 1.380 . S
C314 H324 0.929 . S
C315 C312 1.399 . S
C315 C317 1.392 . S
C315 H325 0.929 . S
C316 C312 1.383 . S
C316 C313 1.389 . S
C316 H326 0.931 . S
C317 C314 1.380 . S
C317 C315 1.392 . S
C317 H327 0.929 . S
C318 O298 1.266 . S
C318 O299 1.248 1_554 S
C319 Tb255 2.802 . S
C319 O294 1.264 . S
C319 O297 1.256 . S
C319 C312 1.496 . S
H320 C303 0.929 . S
H321 C304 0.929 . S
H322 C305 0.929 . S
H323 C306 0.931 . S
H324 C314 0.929 . S
H325 C315 0.929 . S
H326 C316 0.931 . S
H327 C317 0.929 . S
H328 C334 0.930 . S
H329 C337 0.930 . S
H330 C338 0.930 . S
H331 C339 0.930 . S
H332 C342 0.930 . S
H333 C343 0.930 . S
C334 H328 0.930 . S
C334 C335 1.355 . S
C334 C336 1.415 . S
C335 C334 1.355 . S
C335 C337 1.419 . S
C336 C334 1.415 . S
C336 C341 1.425 . S
C336 C343 1.409 . S
C337 H329 0.930 . S
C337 C335 1.419 . S
C337 C338 1.362 . S
C338 H330 0.930 . S
C338 C337 1.362 . S
C338 C341 1.409 . S
C339 H331 0.930 . S
C339 C340 1.355 . S
C339 C341 1.415 . S
C340 C339 1.355 . S
C340 C342 1.419 . S
C341 C336 1.425 . S
C341 C338 1.409 . S
C341 C339 1.415 . S
C342 H332 0.930 . S
C342 C340 1.419 . S
C342 C343 1.362 . S
C343 H333 0.930 . S
C343 C336 1.409 . S
C343 C342 1.362 . S
H344 C350 0.930 . S
H345 C353 0.930 . S
H346 C354 0.930 . S
H347 C355 0.930 . S
H348 C358 0.930 1_556 S
H349 C359 0.930 1_556 S
C350 H344 0.930 . S
C350 C351 1.355 . S
C350 C352 1.415 . S
C351 C350 1.355 . S
C351 C353 1.419 . S
C352 C350 1.415 . S
C352 C357 1.425 . S
C352 C359 1.409 . S
C353 H345 0.930 . S
C353 C351 1.419 . S
C353 C354 1.362 . S
C354 H346 0.930 . S
C354 C353 1.362 . S
C354 C357 1.409 . S
C355 H347 0.930 . S
C355 C356 1.355 . S
C355 C357 1.415 . S
C356 C355 1.355 . S
C356 C358 1.419 . S
C357 C352 1.425 . S
C357 C354 1.409 . S
C357 C355 1.415 . S
C358 H348 0.930 1_554 S
C358 C356 1.419 . S
C358 C359 1.362 . S
C359 H349 0.930 1_554 S
C359 C352 1.409 . S
C359 C358 1.362 . S
H360 C366 0.930 . S
H361 C369 0.930 . S
H362 C370 0.930 . S
H363 C371 0.930 . S
H364 C374 0.930 . S
H365 C375 0.930 . S
C366 H360 0.930 . S
C366 C367 1.355 . S
C366 C368 1.415 . S
C367 C366 1.355 . S
C367 C369 1.419 . S
C368 C366 1.415 . S
C368 C373 1.425 . S
C368 C375 1.409 . S
C369 H361 0.930 . S
C369 C367 1.419 . S
C369 C370 1.362 . S
C370 H362 0.930 . S
C370 C369 1.362 . S
C370 C373 1.409 . S
C371 H363 0.930 . S
C371 C372 1.355 . S
C371 C373 1.415 . S
C372 C371 1.355 . S
C372 C374 1.419 . S
C373 C368 1.425 . S
C373 C370 1.409 . S
C373 C371 1.415 . S
C374 H364 0.930 . S
C374 C372 1.419 . S
C374 C375 1.362 . S
C375 H365 0.930 . S
C375 C368 1.409 . S
C375 C374 1.362 . S
H376 C382 0.930 . S
H377 C385 0.930 . S
H378 C386 0.930 . S
H379 C387 0.930 . S
H380 C390 0.930 . S
H381 C391 0.930 . S
C382 H376 0.930 . S
C382 C383 1.355 . S
C382 C384 1.415 . S
C383 C382 1.355 . S
C383 C385 1.419 . S
C384 C382 1.415 . S
C384 C389 1.425 . S
C384 C391 1.409 . S
C385 H377 0.930 . S
C385 C383 1.419 . S
C385 C386 1.362 . S
C386 H378 0.930 . S
C386 C385 1.362 . S
C386 C389 1.409 . S
C387 H379 0.930 . S
C387 C388 1.355 . S
C387 C389 1.415 . S
C388 C387 1.355 . S
C388 C390 1.419 . S
C389 C384 1.425 . S
C389 C386 1.409 . S
C389 C387 1.415 . S
C390 H380 0.930 . S
C390 C388 1.419 . S
C390 C391 1.362 . S
C391 H381 0.930 . S
C391 C384 1.409 . S
C391 C390 1.362 . S
H392 C398 0.930 . S
H393 C401 0.930 . S
H394 C402 0.930 . S
H395 C403 0.930 . S
H396 C406 0.930 . S
H397 C407 0.930 . S
C398 H392 0.930 . S
C398 C399 1.355 . S
C398 C400 1.415 . S
C399 C398 1.355 . S
C399 C401 1.419 . S
C400 C398 1.415 . S
C400 C405 1.425 . S
C400 C407 1.409 . S
C401 H393 0.930 . S
C401 C399 1.419 . S
C401 C402 1.362 . S
C402 H394 0.930 . S
C402 C401 1.362 . S
C402 C405 1.409 . S
C403 H395 0.930 . S
C403 C404 1.355 . S
C403 C405 1.415 . S
C404 C403 1.355 . S
C404 C406 1.419 . S
C405 C400 1.425 . S
C405 C402 1.409 . S
C405 C403 1.415 . S
C406 H396 0.930 . S
C406 C404 1.419 . S
C406 C407 1.362 . S
C407 H397 0.930 . S
C407 C400 1.409 . S
C407 C406 1.362 . S
H408 C414 0.930 . S
H409 C417 0.930 . S
H410 C418 0.930 . S
H411 C419 0.930 . S
H412 C422 0.930 . S
H413 C423 0.930 . S
C414 H408 0.930 . S
C414 C415 1.355 . S
C414 C416 1.415 . S
C415 C414 1.355 . S
C415 C417 1.419 . S
C416 C414 1.415 . S
C416 C421 1.425 . S
C416 C423 1.409 . S
C417 H409 0.930 . S
C417 C415 1.419 . S
C417 C418 1.362 . S
C418 H410 0.930 . S
C418 C417 1.362 . S
C418 C421 1.409 . S
C419 H411 0.930 . S
C419 C420 1.355 . S
C419 C421 1.415 . S
C420 C419 1.355 . S
C420 C422 1.419 . S
C421 C416 1.425 . S
C421 C418 1.409 . S
C421 C419 1.415 . S
C422 H412 0.930 . S
C422 C420 1.419 . S
C422 C423 1.362 . S
C423 H413 0.930 . S
C423 C416 1.409 . S
C423 C422 1.362 . S
H424 C430 0.930 . S
H425 C433 0.930 . S
H426 C434 0.930 . S
H427 C435 0.930 . S
H428 C438 0.930 . S
H429 C439 0.930 . S
C430 H424 0.930 . S
C430 C431 1.355 . S
C430 C432 1.415 . S
C431 C430 1.355 . S
C431 C433 1.419 . S
C432 C430 1.415 . S
C432 C437 1.425 . S
C432 C439 1.409 . S
C433 H425 0.930 . S
C433 C431 1.419 . S
C433 C434 1.362 . S
C434 H426 0.930 . S
C434 C433 1.362 . S
C434 C437 1.409 . S
C435 H427 0.930 . S
C435 C436 1.355 . S
C435 C437 1.415 . S
C436 C435 1.355 . S
C436 C438 1.419 . S
C437 C432 1.425 . S
C437 C434 1.409 . S
C437 C435 1.415 . S
C438 H428 0.930 . S
C438 C436 1.419 . S
C438 C439 1.362 . S
C439 H429 0.930 . S
C439 C432 1.409 . S
C439 C438 1.362 . S
H440 C446 0.930 . S
H441 C449 0.930 . S
H442 C450 0.930 . S
H443 C451 0.930 . S
H444 C454 0.930 . S
H445 C455 0.930 . S
C446 H440 0.930 . S
C446 C447 1.355 . S
C446 C448 1.415 . S
C447 C446 1.355 . S
C447 C449 1.419 . S
C448 C446 1.415 . S
C448 C453 1.425 . S
C448 C455 1.409 . S
C449 H441 0.930 . S
C449 C447 1.419 . S
C449 C450 1.362 . S
C450 H442 0.930 . S
C450 C449 1.362 . S
C450 C453 1.409 . S
C451 H443 0.930 . S
C451 C452 1.355 . S
C451 C453 1.415 . S
C452 C451 1.355 . S
C452 C454 1.419 . S
C453 C448 1.425 . S
C453 C450 1.409 . S
C453 C451 1.415 . S
C454 H444 0.930 . S
C454 C452 1.419 . S
C454 C455 1.362 . S
C455 H445 0.930 . S
C455 C448 1.409 . S
C455 C454 1.362 . S
H456 C462 0.930 . S
H457 C465 0.930 . S
H458 C466 0.930 . S
H459 C467 0.930 . S
H460 C470 0.930 . S
H461 C471 0.930 . S
C462 H456 0.930 . S
C462 C463 1.355 . S
C462 C464 1.415 . S
C463 C462 1.355 . S
C463 C465 1.419 . S
C464 C462 1.415 . S
C464 C469 1.425 . S
C464 C471 1.409 . S
C465 H457 0.930 . S
C465 C463 1.419 . S
C465 C466 1.362 . S
C466 H458 0.930 . S
C466 C465 1.362 . S
C466 C469 1.409 . S
C467 H459 0.930 . S
C467 C468 1.355 . S
C467 C469 1.415 . S
C468 C467 1.355 . S
C468 C470 1.419 . S
C469 C464 1.425 . S
C469 C466 1.409 . S
C469 C467 1.415 . S
C470 H460 0.930 . S
C470 C468 1.419 . S
C470 C471 1.362 . S
C471 H461 0.930 . S
C471 C464 1.409 . S
C471 C470 1.362 . S
H472 C478 0.930 . S
H473 C481 0.930 . S
H474 C482 0.930 . S
H475 C483 0.930 . S
H476 C486 0.923 1_565 S
H477 C487 0.940 . S
C478 H472 0.930 . S
C478 C479 1.355 . S
C478 C480 1.415 . S
C479 C478 1.355 . S
C479 C481 1.419 . S
C480 C478 1.415 . S
C480 C485 1.425 . S
C480 C487 1.409 . S
C481 H473 0.930 . S
C481 C479 1.419 . S
C481 C482 1.362 . S
C482 H474 0.930 . S
C482 C481 1.362 . S
C482 C485 1.409 . S
C483 H475 0.930 . S
C483 C484 1.355 . S
C483 C485 1.415 . S
C484 C483 1.355 . S
C484 C486 1.419 . S
C485 C480 1.425 . S
C485 C482 1.409 . S
C485 C483 1.415 . S
C486 H476 0.923 1_545 S
C486 C484 1.419 . S
C486 C487 1.362 . S
C487 H477 0.940 . S
C487 C480 1.409 . S
C487 C486 1.362 . S
H488 C494 0.930 . S
H489 C497 0.930 . S
H490 C498 0.930 . S
H491 C499 0.930 . S
H492 C502 0.930 . S
H493 C503 0.930 . S
C494 H488 0.930 . S
C494 C495 1.355 . S
C494 C496 1.415 . S
C495 C494 1.355 . S
C495 C497 1.419 . S
C496 C494 1.415 . S
C496 C501 1.425 . S
C496 C503 1.409 . S
C497 H489 0.930 . S
C497 C495 1.419 . S
C497 C498 1.362 . S
C498 H490 0.930 . S
C498 C497 1.362 . S
C498 C501 1.409 . S
C499 H491 0.930 . S
C499 C500 1.355 . S
C499 C501 1.415 . S
C500 C499 1.355 . S
C500 C502 1.419 . S
C501 C496 1.425 . S
C501 C498 1.409 . S
C501 C499 1.415 . S
C502 H492 0.930 . S
C502 C500 1.419 . S
C502 C503 1.362 . S
C503 H493 0.930 . S
C503 C496 1.409 . S
C503 C502 1.362 . S
H504 C510 0.930 . S
H505 C513 0.930 1_545 S
H506 C514 0.930 . S
H507 C515 0.930 1_545 S
H508 C518 0.930 . S
H509 C519 0.930 . S
C510 H504 0.930 . S
C510 C511 1.355 . S
C510 C512 1.415 . S
C511 C510 1.355 . S
C511 C513 1.419 . S
C512 C510 1.415 . S
C512 C517 1.425 . S
C512 C519 1.409 . S
C513 H505 0.930 1_565 S
C513 C511 1.419 . S
C513 C514 1.362 1_565 S
C514 H506 0.930 . S
C514 C513 1.362 1_545 S
C514 C517 1.409 1_545 S
C515 H507 0.930 1_565 S
C515 C516 1.355 . S
C515 C517 1.415 . S
C516 C515 1.355 . S
C516 C518 1.419 . S
C517 C512 1.425 . S
C517 C514 1.409 1_565 S
C517 C515 1.415 . S
C518 H508 0.930 . S
C518 C516 1.419 . S
C518 C519 1.362 . S
C519 H509 0.930 . S
C519 C512 1.409 . S
C519 C518 1.362 . S
C340 C223 1.671 . S
C335 C135 1.683 . S
C351 C15 1.670 . S
C356 C318 1.651 . S
C367 C55 1.666 . S
C372 C234 1.652 . S
C383 C95 1.648 . S
C388 C307 1.669 . S
C404 C218 1.419 . S
C399 C2 1.552 . S
C420 C311 1.620 . S
C415 C42 1.620 . S
C431 C82 1.633 . S
C436 C227 1.648 . S
C447 C141 1.487 . S
C452 C302 1.450 . S
C468 C313 1.374 . S
C463 C61 1.551 . S
C484 C229 1.494 . S
C479 C101 1.590 . S
C500 C300 1.650 . S
C495 C122 1.581 . S
C511 C21 1.680 . S
C516 C216 1.679 . S
