# Generated by pormake.
# Topology bwt, (3,3)-cn, num edge types: 1
# Building blocks:
#     Node 0, Type 0, BuildingBlock: OLANEW_clean_sbu_2, # of connection points: 3
#     Node 1, Type 0, BuildingBlock: OLANEW_clean_sbu_2, # of connection points: 3
#     Node 2, Type 0, BuildingBlock: OLANEW_clean_sbu_2, # of connection points: 3
#     Node 3, Type 0, BuildingBlock: OLANEW_clean_sbu_2, # of connection points: 3
#     Node 4, Type 0, BuildingBlock: OLANEW_clean_sbu_2, # of connection points: 3
#     Node 5, Type 0, BuildingBlock: OLANEW_clean_sbu_2, # of connection points: 3
#     Node 6, Type 0, BuildingBlock: OLANEW_clean_sbu_2, # of connection points: 3
#     Node 7, Type 0, BuildingBlock: OLANEW_clean_sbu_2, # of connection points: 3
#     Node 8, Type 0, BuildingBlock: OLANEW_clean_sbu_2, # of connection points: 3
#     Node 9, Type 0, BuildingBlock: OLANEW_clean_sbu_2, # of connection points: 3
#     Node 10, Type 0, BuildingBlock: OLANEW_clean_sbu_2, # of connection points: 3
#     Node 11, Type 0, BuildingBlock: OLANEW_clean_sbu_2, # of connection points: 3
#     Node 12, Type 0, BuildingBlock: OLANEW_clean_sbu_2, # of connection points: 3
#     Node 13, Type 0, BuildingBlock: OLANEW_clean_sbu_2, # of connection points: 3
#     Node 14, Type 0, BuildingBlock: OLANEW_clean_sbu_2, # of connection points: 3
#     Node 15, Type 0, BuildingBlock: OLANEW_clean_sbu_2, # of connection points: 3
#     Node 16, Type 0, BuildingBlock: OLANEW_clean_sbu_2, # of connection points: 3
#     Node 17, Type 0, BuildingBlock: OLANEW_clean_sbu_2, # of connection points: 3
#     Node 18, Type 0, BuildingBlock: OLANEW_clean_sbu_2, # of connection points: 3
#     Node 19, Type 0, BuildingBlock: OLANEW_clean_sbu_2, # of connection points: 3
#     Node 20, Type 0, BuildingBlock: OLANEW_clean_sbu_2, # of connection points: 3
#     Node 21, Type 0, BuildingBlock: OLANEW_clean_sbu_2, # of connection points: 3
#     Node 22, Type 0, BuildingBlock: OLANEW_clean_sbu_2, # of connection points: 3
#     Node 23, Type 0, BuildingBlock: OLANEW_clean_sbu_2, # of connection points: 3
#     Node 24, Type 1, BuildingBlock: WUSLED_clean_sbu_0, # of connection points: 3
#     Node 25, Type 1, BuildingBlock: WUSLED_clean_sbu_0, # of connection points: 3
#     Node 26, Type 1, BuildingBlock: WUSLED_clean_sbu_0, # of connection points: 3
#     Node 27, Type 1, BuildingBlock: WUSLED_clean_sbu_0, # of connection points: 3
#     Node 28, Type 1, BuildingBlock: WUSLED_clean_sbu_0, # of connection points: 3
#     Node 29, Type 1, BuildingBlock: WUSLED_clean_sbu_0, # of connection points: 3
#     Node 30, Type 1, BuildingBlock: WUSLED_clean_sbu_0, # of connection points: 3
#     Node 31, Type 1, BuildingBlock: WUSLED_clean_sbu_0, # of connection points: 3
#     Node 32, Type 1, BuildingBlock: WUSLED_clean_sbu_0, # of connection points: 3
#     Node 33, Type 1, BuildingBlock: WUSLED_clean_sbu_0, # of connection points: 3
#     Node 34, Type 1, BuildingBlock: WUSLED_clean_sbu_0, # of connection points: 3
#     Node 35, Type 1, BuildingBlock: WUSLED_clean_sbu_0, # of connection points: 3
#     Node 36, Type 1, BuildingBlock: WUSLED_clean_sbu_0, # of connection points: 3
#     Node 37, Type 1, BuildingBlock: WUSLED_clean_sbu_0, # of connection points: 3
#     Node 38, Type 1, BuildingBlock: WUSLED_clean_sbu_0, # of connection points: 3
#     Node 39, Type 1, BuildingBlock: WUSLED_clean_sbu_0, # of connection points: 3
#     Node 40, Type 1, BuildingBlock: WUSLED_clean_sbu_0, # of connection points: 3
#     Node 41, Type 1, BuildingBlock: WUSLED_clean_sbu_0, # of connection points: 3
#     Node 42, Type 1, BuildingBlock: WUSLED_clean_sbu_0, # of connection points: 3
#     Node 43, Type 1, BuildingBlock: WUSLED_clean_sbu_0, # of connection points: 3
#     Node 44, Type 1, BuildingBlock: WUSLED_clean_sbu_0, # of connection points: 3
#     Node 45, Type 1, BuildingBlock: WUSLED_clean_sbu_0, # of connection points: 3
#     Node 46, Type 1, BuildingBlock: WUSLED_clean_sbu_0, # of connection points: 3
#     Node 47, Type 1, BuildingBlock: WUSLED_clean_sbu_0, # of connection points: 3
#     Edge 48, Type (0, 1), BuildingBlock: UVAHIK_clean_linker_0, # of connection points: 2
#     Edge 49, Type (0, 1), BuildingBlock: UVAHIK_clean_linker_0, # of connection points: 2
#     Edge 50, Type (0, 1), BuildingBlock: UVAHIK_clean_linker_0, # of connection points: 2
#     Edge 51, Type (0, 1), BuildingBlock: UVAHIK_clean_linker_0, # of connection points: 2
#     Edge 52, Type (0, 1), BuildingBlock: UVAHIK_clean_linker_0, # of connection points: 2
#     Edge 53, Type (0, 1), BuildingBlock: UVAHIK_clean_linker_0, # of connection points: 2
#     Edge 54, Type (0, 1), BuildingBlock: UVAHIK_clean_linker_0, # of connection points: 2
#     Edge 55, Type (0, 1), BuildingBlock: UVAHIK_clean_linker_0, # of connection points: 2
#     Edge 56, Type (0, 1), BuildingBlock: UVAHIK_clean_linker_0, # of connection points: 2
#     Edge 57, Type (0, 1), BuildingBlock: UVAHIK_clean_linker_0, # of connection points: 2
#     Edge 58, Type (0, 1), BuildingBlock: UVAHIK_clean_linker_0, # of connection points: 2
#     Edge 59, Type (0, 1), BuildingBlock: UVAHIK_clean_linker_0, # of connection points: 2
#     Edge 60, Type (0, 1), BuildingBlock: UVAHIK_clean_linker_0, # of connection points: 2
#     Edge 61, Type (0, 1), BuildingBlock: UVAHIK_clean_linker_0, # of connection points: 2
#     Edge 62, Type (0, 1), BuildingBlock: UVAHIK_clean_linker_0, # of connection points: 2
#     Edge 63, Type (0, 1), BuildingBlock: UVAHIK_clean_linker_0, # of connection points: 2
#     Edge 64, Type (0, 1), BuildingBlock: UVAHIK_clean_linker_0, # of connection points: 2
#     Edge 65, Type (0, 1), BuildingBlock: UVAHIK_clean_linker_0, # of connection points: 2
#     Edge 66, Type (0, 1), BuildingBlock: UVAHIK_clean_linker_0, # of connection points: 2
#     Edge 67, Type (0, 1), BuildingBlock: UVAHIK_clean_linker_0, # of connection points: 2
#     Edge 68, Type (0, 1), BuildingBlock: UVAHIK_clean_linker_0, # of connection points: 2
#     Edge 69, Type (0, 1), BuildingBlock: UVAHIK_clean_linker_0, # of connection points: 2
#     Edge 70, Type (0, 1), BuildingBlock: UVAHIK_clean_linker_0, # of connection points: 2
#     Edge 71, Type (0, 1), BuildingBlock: UVAHIK_clean_linker_0, # of connection points: 2
#     Edge 72, Type (0, 1), BuildingBlock: UVAHIK_clean_linker_0, # of connection points: 2
#     Edge 73, Type (0, 1), BuildingBlock: UVAHIK_clean_linker_0, # of connection points: 2
#     Edge 74, Type (0, 1), BuildingBlock: UVAHIK_clean_linker_0, # of connection points: 2
#     Edge 75, Type (0, 1), BuildingBlock: UVAHIK_clean_linker_0, # of connection points: 2
#     Edge 76, Type (0, 1), BuildingBlock: UVAHIK_clean_linker_0, # of connection points: 2
#     Edge 77, Type (0, 1), BuildingBlock: UVAHIK_clean_linker_0, # of connection points: 2
#     Edge 78, Type (0, 1), BuildingBlock: UVAHIK_clean_linker_0, # of connection points: 2
#     Edge 79, Type (0, 1), BuildingBlock: UVAHIK_clean_linker_0, # of connection points: 2
#     Edge 80, Type (0, 1), BuildingBlock: UVAHIK_clean_linker_0, # of connection points: 2
#     Edge 81, Type (0, 1), BuildingBlock: UVAHIK_clean_linker_0, # of connection points: 2
#     Edge 82, Type (0, 1), BuildingBlock: UVAHIK_clean_linker_0, # of connection points: 2
#     Edge 83, Type (0, 1), BuildingBlock: UVAHIK_clean_linker_0, # of connection points: 2
#     Edge 84, Type (0, 1), BuildingBlock: UVAHIK_clean_linker_0, # of connection points: 2
#     Edge 85, Type (0, 1), BuildingBlock: UVAHIK_clean_linker_0, # of connection points: 2
#     Edge 86, Type (0, 1), BuildingBlock: UVAHIK_clean_linker_0, # of connection points: 2
#     Edge 87, Type (0, 1), BuildingBlock: UVAHIK_clean_linker_0, # of connection points: 2
#     Edge 88, Type (0, 1), BuildingBlock: UVAHIK_clean_linker_0, # of connection points: 2
#     Edge 89, Type (0, 1), BuildingBlock: UVAHIK_clean_linker_0, # of connection points: 2
#     Edge 90, Type (0, 1), BuildingBlock: UVAHIK_clean_linker_0, # of connection points: 2
#     Edge 91, Type (0, 1), BuildingBlock: UVAHIK_clean_linker_0, # of connection points: 2
#     Edge 92, Type (0, 1), BuildingBlock: UVAHIK_clean_linker_0, # of connection points: 2
#     Edge 93, Type (0, 1), BuildingBlock: UVAHIK_clean_linker_0, # of connection points: 2
#     Edge 94, Type (0, 1), BuildingBlock: UVAHIK_clean_linker_0, # of connection points: 2
#     Edge 95, Type (0, 1), BuildingBlock: UVAHIK_clean_linker_0, # of connection points: 2
#     Edge 96, Type (0, 1), BuildingBlock: UVAHIK_clean_linker_0, # of connection points: 2
#     Edge 97, Type (0, 1), BuildingBlock: UVAHIK_clean_linker_0, # of connection points: 2
#     Edge 98, Type (0, 1), BuildingBlock: UVAHIK_clean_linker_0, # of connection points: 2
#     Edge 99, Type (0, 1), BuildingBlock: UVAHIK_clean_linker_0, # of connection points: 2
#     Edge 100, Type (0, 1), BuildingBlock: UVAHIK_clean_linker_0, # of connection points: 2
#     Edge 101, Type (0, 1), BuildingBlock: UVAHIK_clean_linker_0, # of connection points: 2
#     Edge 102, Type (0, 1), BuildingBlock: UVAHIK_clean_linker_0, # of connection points: 2
#     Edge 103, Type (0, 1), BuildingBlock: UVAHIK_clean_linker_0, # of connection points: 2
#     Edge 104, Type (0, 1), BuildingBlock: UVAHIK_clean_linker_0, # of connection points: 2
#     Edge 105, Type (0, 1), BuildingBlock: UVAHIK_clean_linker_0, # of connection points: 2
#     Edge 106, Type (0, 1), BuildingBlock: UVAHIK_clean_linker_0, # of connection points: 2
#     Edge 107, Type (0, 1), BuildingBlock: UVAHIK_clean_linker_0, # of connection points: 2
#     Edge 108, Type (0, 1), BuildingBlock: UVAHIK_clean_linker_0, # of connection points: 2
#     Edge 109, Type (0, 1), BuildingBlock: UVAHIK_clean_linker_0, # of connection points: 2
#     Edge 110, Type (0, 1), BuildingBlock: UVAHIK_clean_linker_0, # of connection points: 2
#     Edge 111, Type (0, 1), BuildingBlock: UVAHIK_clean_linker_0, # of connection points: 2
#     Edge 112, Type (0, 1), BuildingBlock: UVAHIK_clean_linker_0, # of connection points: 2
#     Edge 113, Type (0, 1), BuildingBlock: UVAHIK_clean_linker_0, # of connection points: 2
#     Edge 114, Type (0, 1), BuildingBlock: UVAHIK_clean_linker_0, # of connection points: 2
#     Edge 115, Type (0, 1), BuildingBlock: UVAHIK_clean_linker_0, # of connection points: 2
#     Edge 116, Type (0, 1), BuildingBlock: UVAHIK_clean_linker_0, # of connection points: 2
#     Edge 117, Type (0, 1), BuildingBlock: UVAHIK_clean_linker_0, # of connection points: 2
#     Edge 118, Type (0, 1), BuildingBlock: UVAHIK_clean_linker_0, # of connection points: 2
#     Edge 119, Type (0, 1), BuildingBlock: UVAHIK_clean_linker_0, # of connection points: 2
# Relax obj value: 0.145
# Max RMSD: 0.142
# Mean RMSD: 0.087
data_MOF--net-bwt--node1-OLANEW_clean_sbu_2--node2-WUSLED_clean_sbu_0--edge1-UVAHIK_clean_linker_0
_symmetry_space_group_name_H-M    P1
_symmetry_Int_Tables_number       1
_symmetry_cell_setting            triclinic
loop_
_symmetry_equiv_pos_as_xyz
'x, y, z'
_cell_length_a     93.142452
_cell_length_b     93.309096
_cell_length_c     93.287618
_cell_angle_alpha  93.270102
_cell_angle_beta   93.276266
_cell_angle_gamma 93.247348
loop_
_atom_site_label
_atom_site_type_symbol
_atom_site_fract_x
_atom_site_fract_y
_atom_site_fract_z
_atom_type_partial_charge
O0 O 0.26707 0.582 0.3243 0.0
Cd1 Cd 0.26576 0.58582 0.29854 0.0
O2 O 0.27431 0.6045 0.3302 0.0
Cd3 Cd 0.28214 0.60698 0.30883 0.0
O4 O 0.30178 0.60176 0.29845 0.0
C5 C 0.30573 0.58912 0.30021 0.0
O6 O 0.29732 0.58027 0.30691 0.0
C7 C 0.26985 0.59219 0.33388 0.0
C8 C 0.23683 0.58425 0.28859 0.0
O9 O 0.24432 0.57315 0.28787 0.0
O10 O 0.2431 0.59617 0.29374 0.0
O11 O 0.23727 0.3942 0.71464 0.0
Cd12 Cd 0.23516 0.38471 0.6896 0.0
O13 O 0.23245 0.37293 0.7228 0.0
Cd14 Cd 0.22155 0.36508 0.70229 0.0
O15 O 0.19936 0.36501 0.69334 0.0
C16 C 0.19553 0.37407 0.68442 0.0
O17 O 0.20542 0.38267 0.67935 0.0
C18 C 0.23661 0.38612 0.72513 0.0
C19 C 0.26271 0.38548 0.67928 0.0
O20 O 0.2545 0.3959 0.6776 0.0
O21 O 0.25774 0.37451 0.68549 0.0
O22 O 0.73401 0.96971 0.6959 0.0
Cd23 Cd 0.72877 0.96154 0.71958 0.0
O24 O 0.75729 0.96821 0.70011 0.0
Cd25 Cd 0.77972 0.97186 0.69477 0.0
O26 O 0.80186 0.97891 0.69097 0.0
C27 C 0.80447 0.98641 0.68036 0.0
O28 O 0.7937 0.9895 0.67157 0.0
C29 C 0.74673 0.97105 0.69171 0.0
C30 C 0.70196 0.97016 0.72741 0.0
O31 O 0.71352 0.9779 0.73114 0.0
O32 O 0.70309 0.95828 0.72008 0.0
O33 O 0.76073 0.02326 0.30028 0.0
Cd34 Cd 0.77041 0.02255 0.32512 0.0
O35 O 0.74012 0.01295 0.30561 0.0
Cd36 Cd 0.7175 0.00558 0.30093 0.0
O37 O 0.69486 0.99869 0.29596 0.0
C38 C 0.69118 0.98994 0.28526 0.0
O39 O 0.70119 0.98509 0.27722 0.0
C40 C 0.74804 0.01832 0.29636 0.0
C41 C 0.7985 0.01356 0.32642 0.0
O42 O 0.78766 0.00452 0.32678 0.0
O43 O 0.79605 0.02687 0.32548 0.0
O44 O 0.3381 0.24838 0.61108 0.0
Cd45 Cd 0.31959 0.24057 0.62696 0.0
O46 O 0.33 0.26999 0.61158 0.0
Cd47 Cd 0.32891 0.29204 0.60493 0.0
O48 O 0.32814 0.31401 0.59816 0.0
C49 C 0.31784 0.31729 0.58968 0.0
O50 O 0.30782 0.30731 0.58515 0.0
C51 C 0.33899 0.26121 0.60718 0.0
C52 C 0.30911 0.21245 0.61919 0.0
O53 O 0.30313 0.22319 0.61394 0.0
O54 O 0.31998 0.21502 0.62821 0.0
O55 O 0.30022 0.76311 0.02832 0.0
Cd56 Cd 0.32476 0.77305 0.02605 0.0
O57 O 0.30548 0.74356 0.01605 0.0
Cd58 Cd 0.30096 0.72155 0.00685 0.0
O59 O 0.29505 0.69985 0.99762 0.0
C60 C 0.28457 0.69251 0.00226 0.0
O61 O 0.27739 0.69817 0.01268 0.0
C62 C 0.29634 0.75072 0.02257 0.0
C63 C 0.32488 0.80069 0.01611 0.0
O64 O 0.32397 0.78955 0.00733 0.0
O65 O 0.32579 0.79875 0.02962 0.0
O66 O 0.72021 0.23686 0.39168 0.0
Cd67 Cd 0.69436 0.23529 0.38518 0.0
O68 O 0.72568 0.22149 0.37438 0.0
Cd69 Cd 0.7035 0.21291 0.37005 0.0
O70 O 0.69252 0.19237 0.37403 0.0
C71 C 0.68921 0.19033 0.38682 0.0
O72 O 0.69102 0.20113 0.39654 0.0
C73 C 0.72963 0.23057 0.38473 0.0
C74 C 0.6842 0.26264 0.38985 0.0
O75 O 0.68415 0.25363 0.39972 0.0
O76 O 0.68869 0.25859 0.37763 0.0
O77 O 0.68596 0.74753 0.98954 0.0
Cd78 Cd 0.71204 0.75176 0.99357 0.0
O79 O 0.68257 0.76724 0.97822 0.0
Cd80 Cd 0.70421 0.77719 0.983 0.0
O81 O 0.71542 0.79775 0.99027 0.0
C82 C 0.71055 0.80867 0.98455 0.0
O83 O 0.70016 0.80664 0.97437 0.0
C84 C 0.67762 0.75545 0.98272 0.0
C85 C 0.72379 0.72574 0.9996 0.0
O86 O 0.72002 0.73437 0.0097 0.0
O87 O 0.7223 0.72957 0.98665 0.0
O88 O 0.57607 0.33047 0.26213 0.0
Cd89 Cd 0.58037 0.30488 0.26242 0.0
O90 O 0.59375 0.3368 0.27829 0.0
Cd91 Cd 0.59568 0.3152 0.28572 0.0
O92 O 0.59234 0.30383 0.30521 0.0
C93 C 0.57963 0.3035 0.30953 0.0
O94 O 0.5694 0.30874 0.30147 0.0
C95 C 0.58402 0.34024 0.26921 0.0
C96 C 0.58103 0.29356 0.23411 0.0
O97 O 0.56937 0.29292 0.24076 0.0
O98 O 0.59245 0.2993 0.24094 0.0
O99 O 0.02743 0.2981 0.7609 0.0
Cd100 Cd 0.02813 0.32312 0.77036 0.0
O101 O 0.02249 0.30463 0.73903 0.0
Cd102 Cd 0.01625 0.30007 0.71619 0.0
O103 O 0.00925 0.29378 0.69388 0.0
C104 C 0.00247 0.28169 0.6908 0.0
O105 O 0.99989 0.27313 0.70119 0.0
C106 C 0.02487 0.29477 0.74757 0.0
C107 C 0.01866 0.32508 0.7982 0.0
O108 O 0.00986 0.32585 0.78723 0.0
O109 O 0.03195 0.32346 0.79599 0.0
O110 O 0.38468 0.71906 0.23913 0.0
Cd111 Cd 0.37743 0.69341 0.23699 0.0
O112 O 0.36727 0.72523 0.22423 0.0
Cd113 Cd 0.36329 0.70333 0.21486 0.0
O114 O 0.37037 0.69328 0.195 0.0
C115 C 0.38394 0.69367 0.19399 0.0
O116 O 0.39231 0.69857 0.20523 0.0
C117 C 0.37777 0.72878 0.23328 0.0
C118 C 0.38244 0.68242 0.26391 0.0
O119 O 0.39185 0.68178 0.25443 0.0
O120 O 0.37049 0.6879 0.26052 0.0
O121 O 0.98899 0.67972 0.74844 0.0
Cd122 Cd 0.98704 0.70573 0.75123 0.0
O123 O 0.98218 0.67535 0.77006 0.0
Cd124 Cd 0.98252 0.69754 0.77889 0.0
O125 O 0.98809 0.70927 0.79958 0.0
C126 C 1.00079 0.71482 0.80235 0.0
O127 O 0.0099 0.71467 0.79211 0.0
C128 C 0.98581 0.67083 0.75775 0.0
C129 C 0.99246 0.71769 0.72517 0.0
O130 O 0.00249 0.71731 0.73512 0.0
O131 O 0.97981 0.71267 0.72765 0.0
O132 O 0.74557 0.39481 0.68205 0.0
Cd133 Cd 0.75248 0.38546 0.70524 0.0
O134 O 0.7244 0.40017 0.68922 0.0
Cd135 Cd 0.70236 0.40705 0.68646 0.0
O136 O 0.68066 0.41475 0.68419 0.0
C137 C 0.6701 0.40771 0.68905 0.0
O138 O 0.67244 0.39574 0.69534 0.0
C139 C 0.73339 0.39992 0.67944 0.0
C140 C 0.78234 0.38793 0.71043 0.0
O141 O 0.7761 0.37685 0.70344 0.0
O142 O 0.77443 0.39778 0.71509 0.0
O143 O 0.75323 0.6273 0.29161 0.0
Cd144 Cd 0.74776 0.63922 0.31451 0.0
O145 O 0.77587 0.62539 0.29876 0.0
Cd146 Cd 0.79738 0.61747 0.29653 0.0
O147 O 0.81804 0.60829 0.29296 0.0
C148 C 0.82672 0.6139 0.28454 0.0
O149 O 0.82317 0.62542 0.27802 0.0
C150 C 0.76568 0.62323 0.28906 0.0
C151 C 0.71824 0.63624 0.31827 0.0
O152 O 0.72368 0.64702 0.31209 0.0
O153 O 0.72679 0.62697 0.32282 0.0
O154 O 0.2616 0.05124 0.29725 0.0
Cd155 Cd 0.26638 0.05249 0.27186 0.0
O156 O 0.2444 0.03449 0.29166 0.0
Cd157 Cd 0.22608 0.02025 0.29657 0.0
O158 O 0.20629 0.00769 0.30026 0.0
C159 C 0.19829 0.01176 0.31012 0.0
O160 O 0.20227 0.02345 0.31823 0.0
C161 C 0.25185 0.04247 0.30115 0.0
C162 C 0.29362 0.04319 0.26652 0.0
O163 O 0.29182 0.05648 0.26971 0.0
O164 O 0.28253 0.03433 0.26579 0.0
O165 O 0.24723 0.97836 0.6991 0.0
Cd166 Cd 0.23684 0.98009 0.67464 0.0
O167 O 0.26424 0.99481 0.69558 0.0
Cd168 Cd 0.28446 0.00725 0.70193 0.0
O169 O 0.30546 0.01789 0.70863 0.0
C170 C 0.31323 0.01303 0.71868 0.0
O171 O 0.30835 0.00167 0.72502 0.0
C172 C 0.25836 0.98609 0.70379 0.0
C173 C 0.20873 0.989 0.67433 0.0
O174 O 0.21124 0.97565 0.67464 0.0
O175 O 0.21952 0.99814 0.67418 0.0
O176 O 0.68522 0.75115 0.40252 0.0
Cd177 Cd 0.70798 0.75929 0.39295 0.0
O178 O 0.69252 0.72928 0.40356 0.0
Cd179 Cd 0.69065 0.70687 0.40943 0.0
O180 O 0.68813 0.68493 0.41635 0.0
C181 C 0.69192 0.67435 0.40854 0.0
O182 O 0.69736 0.67676 0.39616 0.0
C183 C 0.68279 0.73813 0.40542 0.0
C184 C 0.7137 0.78887 0.3982 0.0
O185 O 0.70615 0.78378 0.38695 0.0
O186 O 0.71858 0.77995 0.40695 0.0
O187 O 0.7026 0.24655 0.98872 0.0
Cd188 Cd 0.67791 0.23766 0.99215 0.0
O189 O 0.69815 0.26856 0.99599 0.0
Cd190 Cd 0.70459 0.29097 0.00291 0.0
O191 O 0.71189 0.31289 0.01067 0.0
C192 C 0.70639 0.32365 0.00522 0.0
O193 O 0.69627 0.32143 0.99481 0.0
C194 C 0.70693 0.25964 0.99143 0.0
C195 C 0.67719 0.20892 0.99907 0.0
O196 O 0.67558 0.21228 0.98597 0.0
O197 O 0.67902 0.21915 0.00889 0.0
O198 O 0.29259 0.75067 0.63259 0.0
Cd199 Cd 0.3172 0.74909 0.64272 0.0
O200 O 0.29731 0.77304 0.62748 0.0
Cd201 Cd 0.29222 0.79279 0.61721 0.0
O202 O 0.28542 0.81174 0.60657 0.0
C203 C 0.29055 0.8242 0.61106 0.0
O204 O 0.29999 0.82548 0.62215 0.0
C205 C 0.28848 0.76211 0.6273 0.0
C206 C 0.32552 0.72099 0.63851 0.0
O207 O 0.32008 0.72521 0.65023 0.0
O208 O 0.32723 0.73014 0.62892 0.0
O209 O 0.30426 0.26916 0.04327 0.0
Cd210 Cd 0.27968 0.27296 0.04988 0.0
O211 O 0.29844 0.24681 0.03561 0.0
Cd212 Cd 0.30255 0.22603 0.025 0.0
O213 O 0.30528 0.20542 0.01347 0.0
C214 C 0.31501 0.19726 0.01753 0.0
O215 O 0.3236 0.20139 0.02886 0.0
C216 C 0.3079 0.25719 0.03785 0.0
C217 C 0.27092 0.29934 0.04106 0.0
O218 O 0.27776 0.29842 0.05326 0.0
O219 O 0.26813 0.28775 0.03309 0.0
O220 O 0.39508 0.68207 0.74599 0.0
Cd221 Cd 0.38669 0.70548 0.7537 0.0
O222 O 0.39738 0.68908 0.72415 0.0
Cd223 Cd 0.40422 0.68682 0.70208 0.0
O224 O 0.41208 0.68444 0.68049 0.0
C225 C 0.40451 0.68789 0.6696 0.0
O226 O 0.39178 0.69286 0.67146 0.0
C227 C 0.39842 0.67937 0.73313 0.0
C228 C 0.3901 0.71023 0.78354 0.0
O229 O 0.37834 0.70439 0.77749 0.0
O230 O 0.4002 0.7139 0.77546 0.0
O231 O 0.98705 0.69941 0.24784 0.0
Cd232 Cd 0.99148 0.67522 0.23831 0.0
O233 O 0.99475 0.69488 0.2697 0.0
Cd234 Cd 0.0017 0.70085 0.29221 0.0
O235 O 0.00989 0.70597 0.31447 0.0
C236 C 0.00449 0.71555 0.3224 0.0
O237 O 0.99375 0.72253 0.31707 0.0
C238 C 0.98971 0.7036 0.26098 0.0
C239 C 0.99859 0.67583 0.20966 0.0
O240 O 0.9855 0.67346 0.21286 0.0
O241 O 0.00831 0.67775 0.22 0.0
O242 O 0.63515 0.28813 0.75252 0.0
Cd243 Cd 0.64892 0.30994 0.74682 0.0
O244 O 0.63593 0.29324 0.77585 0.0
Cd245 Cd 0.6295 0.28937 0.79761 0.0
O246 O 0.6212 0.28349 0.81806 0.0
C247 C 0.62336 0.29183 0.82933 0.0
O248 O 0.63081 0.30412 0.82862 0.0
C249 C 0.63188 0.28481 0.765 0.0
C250 C 0.63944 0.31717 0.71939 0.0
O251 O 0.64954 0.30855 0.72112 0.0
O252 O 0.63409 0.32267 0.73066 0.0
O253 O 0.04851 0.30204 0.26624 0.0
Cd254 Cd 0.05321 0.27702 0.27008 0.0
O255 O 0.04429 0.29699 0.24309 0.0
Cd256 Cd 0.03705 0.3017 0.22122 0.0
O257 O 0.02867 0.30502 0.19941 0.0
C258 C 0.01945 0.31431 0.19721 0.0
O259 O 0.01523 0.32206 0.20822 0.0
C260 C 0.04512 0.30613 0.2538 0.0
C261 C 0.04404 0.26959 0.29676 0.0
O262 O 0.05702 0.27442 0.29542 0.0
O263 O 0.03548 0.26812 0.28544 0.0
C264 C 0.32712 0.54709 0.57566 0.0
C265 C 0.33606 0.5583 0.57095 0.0
C266 C 0.33195 0.57327 0.59235 0.0
C267 C 0.33852 0.57123 0.57926 0.0
C268 C 0.32329 0.56193 0.59722 0.0
C269 C 0.32096 0.54893 0.58897 0.0
U270 U 0.31389 0.52981 0.53936 0.0
O271 O 0.29827 0.51162 0.53329 0.0
O272 O 0.32052 0.51089 0.52684 0.0
C273 C 0.30801 0.50379 0.52757 0.0
C274 C 0.32324 0.53394 0.56637 0.0
C275 C 0.30874 0.48928 0.53273 0.0
C276 C 0.31382 0.47342 0.55189 0.0
C277 C 0.31308 0.4873 0.54708 0.0
C278 C 0.30588 0.46341 0.52802 0.0
C279 C 0.31022 0.46131 0.54241 0.0
C280 C 0.30515 0.47729 0.52323 0.0
C281 C 0.30538 0.55508 0.50949 0.0
C282 C 0.2908 0.54843 0.48744 0.0
C283 C 0.30572 0.57067 0.48956 0.0
C284 C 0.31045 0.56767 0.50349 0.0
C285 C 0.29576 0.56114 0.48139 0.0
C286 C 0.29561 0.5454 0.50136 0.0
C287 C 0.31032 0.55236 0.52428 0.0
O288 O 0.30949 0.53201 0.56229 0.0
O289 O 0.33176 0.5312 0.55591 0.0
O290 O 0.32265 0.54624 0.52566 0.0
O291 O 0.30046 0.547 0.53233 0.0
H292 H 0.34084 0.55727 0.56065 0.0
H293 H 0.34508 0.57984 0.57515 0.0
H294 H 0.31817 0.56319 0.60731 0.0
H295 H 0.31401 0.54044 0.59279 0.0
H296 H 0.31703 0.47219 0.56307 0.0
H297 H 0.31587 0.49648 0.55456 0.0
H298 H 0.30322 0.45432 0.52039 0.0
H299 H 0.30183 0.47866 0.51209 0.0
H300 H 0.28303 0.54092 0.48151 0.0
H301 H 0.31001 0.5804 0.48516 0.0
H302 H 0.31807 0.57521 0.50959 0.0
H303 H 0.29161 0.53557 0.50581 0.0
C304 C 0.24476 0.46172 0.96978 0.0
C305 C 0.24437 0.44841 0.96195 0.0
C306 C 0.24465 0.43595 0.98416 0.0
C307 C 0.24435 0.43567 0.96905 0.0
C308 C 0.24491 0.44934 0.99198 0.0
C309 C 0.24496 0.46214 0.98483 0.0
U310 U 0.24454 0.47861 0.93443 0.0
O311 O 0.23407 0.49733 0.9263 0.0
O312 O 0.2576 0.49654 0.92657 0.0
C313 C 0.24642 0.50429 0.92438 0.0
C314 C 0.24525 0.47502 0.9621 0.0
C315 C 0.24812 0.5191 0.93068 0.0
C316 C 0.25043 0.53613 0.95147 0.0
C317 C 0.24837 0.52197 0.94561 0.0
C318 C 0.25191 0.54462 0.92749 0.0
C319 C 0.25232 0.54761 0.94247 0.0
C320 C 0.24983 0.53048 0.92166 0.0
C321 C 0.24163 0.45215 0.90116 0.0
C322 C 0.24923 0.45665 0.87725 0.0
C323 C 0.23324 0.43591 0.88079 0.0
C324 C 0.23348 0.43985 0.89547 0.0
C325 C 0.24121 0.44419 0.87154 0.0
C326 C 0.24939 0.46064 0.89195 0.0
C327 C 0.24219 0.45559 0.91677 0.0
O328 O 0.25691 0.47717 0.95503 0.0
O329 O 0.23335 0.47727 0.95451 0.0
O330 O 0.231 0.46182 0.92166 0.0
O331 O 0.25457 0.46117 0.92263 0.0
H332 H 0.24427 0.44791 0.95031 0.0
H333 H 0.24443 0.4256 0.96269 0.0
H334 H 0.24501 0.44993 0.00362 0.0
H335 H 0.24524 0.47235 0.99102 0.0
H336 H 0.25084 0.53806 0.96305 0.0
H337 H 0.24712 0.51326 0.95273 0.0
H338 H 0.25314 0.55323 0.92026 0.0
H339 H 0.24963 0.52842 0.9101 0.0
H340 H 0.25536 0.46331 0.87035 0.0
H341 H 0.22709 0.42618 0.87674 0.0
H342 H 0.22745 0.43316 0.90242 0.0
H343 H 0.25567 0.47025 0.89613 0.0
C344 C 0.72868 0.97048 0.44249 0.0
C345 C 0.73097 0.96001 0.45243 0.0
C346 C 0.7302 0.9414 0.43296 0.0
C347 C 0.73168 0.94561 0.44773 0.0
C348 C 0.72818 0.95202 0.42301 0.0
C349 C 0.72741 0.96645 0.42776 0.0
U350 U 0.73073 0.99857 0.47324 0.0
O351 O 0.73822 0.02145 0.47488 0.0
O352 O 0.7159 0.01507 0.47921 0.0
C353 C 0.72537 0.02573 0.47751 0.0
C354 C 0.72717 0.98547 0.44756 0.0
C355 C 0.72021 0.03714 0.46868 0.0
C356 C 0.70784 0.04494 0.44711 0.0
C357 C 0.71298 0.0339 0.45517 0.0
C358 C 0.71733 0.06252 0.46589 0.0
C359 C 0.7099 0.05939 0.45241 0.0
C360 C 0.72241 0.05149 0.47394 0.0
C361 C 0.74208 0.98684 0.51079 0.0
C362 C 0.73372 0.9926 0.53455 0.0
C363 C 0.7584 0.98646 0.53206 0.0
C364 C 0.75576 0.98471 0.51714 0.0
C365 C 0.74736 0.99025 0.54098 0.0
C366 C 0.73112 0.99097 0.51963 0.0
C367 C 0.73929 0.98405 0.49509 0.0
O368 O 0.71657 0.98731 0.45606 0.0
O369 O 0.73923 0.99265 0.45229 0.0
O370 O 0.7483 0.99064 0.48693 0.0
O371 O 0.72578 0.98395 0.49013 0.0
H372 H 0.73194 0.96295 0.46387 0.0
H373 H 0.73301 0.93773 0.45571 0.0
H374 H 0.72719 0.9492 0.41157 0.0
H375 H 0.72568 0.97443 0.41994 0.0
H376 H 0.70207 0.04213 0.43683 0.0
H377 H 0.71122 0.02285 0.45093 0.0
H378 H 0.71937 0.07353 0.47017 0.0
H379 H 0.72805 0.05418 0.48432 0.0
H380 H 0.72488 0.9953 0.54105 0.0
H381 H 0.76909 0.98476 0.5366 0.0
H382 H 0.76438 0.98152 0.51055 0.0
H383 H 0.72044 0.99268 0.5151 0.0
C384 C 0.6952 0.0352 0.04735 0.0
C385 C 0.68874 0.04508 0.05648 0.0
C386 C 0.68955 0.06277 0.03828 0.0
C387 C 0.68587 0.0587 0.05196 0.0
C388 C 0.69587 0.05273 0.02911 0.0
C389 C 0.69867 0.03906 0.03362 0.0
U390 U 0.70329 0.01219 0.07835 0.0
O391 O 0.69718 0.98963 0.082 0.0
O392 O 0.72002 0.99688 0.082 0.0
C393 C 0.71059 0.98592 0.08253 0.0
C394 C 0.69905 0.02122 0.05245 0.0
C395 C 0.71333 0.973 0.07363 0.0
C396 C 0.71639 0.96081 0.0504 0.0
C397 C 0.71387 0.97332 0.05865 0.0
C398 C 0.71783 0.94763 0.07204 0.0
C399 C 0.71839 0.9478 0.057 0.0
C400 C 0.71533 0.96012 0.08025 0.0
C401 C 0.70222 0.02883 0.1163 0.0
C402 C 0.70761 0.01485 0.13689 0.0
C403 C 0.70329 0.04015 0.14043 0.0
C404 C 0.70108 0.041 0.12556 0.0
C405 C 0.70667 0.02708 0.14626 0.0
C406 C 0.70543 0.01573 0.12203 0.0
C407 C 0.70046 0.02996 0.10069 0.0
O408 O 0.71187 0.02127 0.05911 0.0
O409 O 0.68899 0.01421 0.05908 0.0
O410 O 0.68962 0.02207 0.09416 0.0
O411 O 0.71241 0.02934 0.09391 0.0
H412 H 0.68607 0.04232 0.06717 0.0
H413 H 0.6808 0.06605 0.05922 0.0
H414 H 0.69901 0.05556 0.01859 0.0
H415 H 0.70378 0.03161 0.0265 0.0
H416 H 0.71688 0.96134 0.03887 0.0
H417 H 0.71234 0.98321 0.05338 0.0
H418 H 0.71906 0.93777 0.07745 0.0
H419 H 0.71488 0.95971 0.09181 0.0
H420 H 0.71037 0.00468 0.14102 0.0
H421 H 0.70232 0.04972 0.14736 0.0
H422 H 0.6986 0.05119 0.12128 0.0
H423 H 0.70641 0.00623 0.11498 0.0
C424 C 0.53887 0.31164 0.55988 0.0
C425 C 0.53375 0.31521 0.57336 0.0
C426 C 0.55808 0.31577 0.58439 0.0
C427 C 0.54324 0.31727 0.5855 0.0
C428 C 0.56327 0.3126 0.57075 0.0
C429 C 0.5537 0.3105 0.55856 0.0
U430 U 0.52727 0.30344 0.51962 0.0
O431 O 0.54548 0.29212 0.51146 0.0
O432 O 0.54398 0.31515 0.50835 0.0
C433 C 0.55053 0.30339 0.50507 0.0
C434 C 0.52836 0.30854 0.54763 0.0
C435 C 0.55293 0.30088 0.48972 0.0
C436 C 0.56801 0.30408 0.46962 0.0
C437 C 0.5659 0.30588 0.48433 0.0
C438 C 0.54425 0.29208 0.4656 0.0
C439 C 0.55717 0.29723 0.46006 0.0
C440 C 0.54213 0.29394 0.48028 0.0
C441 C 0.48736 0.29733 0.51217 0.0
C442 C 0.46207 0.28919 0.50974 0.0
C443 C 0.47211 0.30116 0.53213 0.0
C444 C 0.48555 0.30259 0.5263 0.0
C445 C 0.46023 0.29435 0.52396 0.0
C446 C 0.47555 0.29069 0.50389 0.0
C447 C 0.50174 0.29811 0.50648 0.0
O448 O 0.52825 0.29556 0.54136 0.0
O449 O 0.52711 0.31869 0.53851 0.0
O450 O 0.51002 0.28794 0.51047 0.0
O451 O 0.50842 0.31096 0.50758 0.0
H452 H 0.52233 0.31618 0.57454 0.0
H453 H 0.53895 0.31994 0.59579 0.0
H454 H 0.57464 0.31132 0.56959 0.0
H455 H 0.55781 0.30774 0.54819 0.0
H456 H 0.578 0.30838 0.46571 0.0
H457 H 0.57431 0.31136 0.49146 0.0
H458 H 0.53575 0.28658 0.4586 0.0
H459 H 0.532 0.29006 0.48426 0.0
H460 H 0.45309 0.28398 0.50316 0.0
H461 H 0.47114 0.30502 0.54318 0.0
H462 H 0.49461 0.30759 0.53292 0.0
H463 H 0.47679 0.28651 0.49299 0.0
C464 C 0.0476 0.69302 0.03573 0.0
C465 C 0.05683 0.68757 0.04624 0.0
C466 C 0.03827 0.68892 0.06353 0.0
C467 C 0.05219 0.68546 0.05997 0.0
C468 C 0.02898 0.6942 0.05288 0.0
C469 C 0.03363 0.69623 0.03909 0.0
U470 U 0.07904 0.70052 0.01325 0.0
O471 O 0.08379 0.69299 0.99133 0.0
O472 O 0.08281 0.71611 0.99688 0.0
C473 C 0.08413 0.70603 0.98668 0.0
C474 C 0.05286 0.69611 0.0216 0.0
C475 C 0.07607 0.7076 0.9729 0.0
C476 C 0.05478 0.71392 0.9589 0.0
C477 C 0.06197 0.71221 0.97225 0.0
C478 C 0.07563 0.70621 0.94684 0.0
C479 C 0.06155 0.71092 0.94605 0.0
C480 C 0.08281 0.70458 0.96013 0.0
C481 C 0.11658 0.70161 0.03137 0.0
C482 C 0.13745 0.70758 0.01796 0.0
C483 C 0.14055 0.70268 0.04315 0.0
C484 C 0.12563 0.70029 0.04366 0.0
C485 C 0.14662 0.70643 0.03031 0.0
C486 C 0.12255 0.70519 0.01849 0.0
C487 C 0.10092 0.69953 0.0321 0.0
O488 O 0.05913 0.70902 0.02098 0.0
O489 O 0.06004 0.68592 0.01547 0.0
O490 O 0.09492 0.68808 0.02475 0.0
O491 O 0.0938 0.71112 0.03036 0.0
H492 H 0.06771 0.68511 0.04387 0.0
H493 H 0.05955 0.68116 0.06781 0.0
H494 H 0.01826 0.69713 0.0553 0.0
H495 H 0.02642 0.70058 0.03114 0.0
H496 H 0.04389 0.71744 0.95863 0.0
H497 H 0.05656 0.71453 0.98202 0.0
H498 H 0.08122 0.704 0.93716 0.0
H499 H 0.0937 0.70105 0.96045 0.0
H500 H 0.14175 0.71064 0.00795 0.0
H501 H 0.14732 0.70153 0.05279 0.0
H502 H 0.12117 0.69749 0.05368 0.0
H503 H 0.11566 0.70629 0.0089 0.0
C504 C 0.97523 0.2413 0.46081 0.0
C505 C 0.9704 0.2325 0.44857 0.0
C506 C 0.98908 0.24345 0.43482 0.0
C507 C 0.97731 0.23349 0.43576 0.0
C508 C 0.99418 0.25193 0.44723 0.0
C509 C 0.9873 0.25085 0.46012 0.0
U510 U 0.93899 0.23962 0.47629 0.0
O511 O 0.93058 0.22906 0.49485 0.0
O512 O 0.9299 0.25244 0.49366 0.0
C513 C 0.92809 0.24135 0.50159 0.0
C514 C 0.96686 0.24161 0.47374 0.0
C515 C 0.93438 0.24345 0.5164 0.0
C516 C 0.95499 0.24952 0.5332 0.0
C517 C 0.94912 0.24724 0.51908 0.0
C518 C 0.93149 0.244 0.54211 0.0
C519 C 0.94623 0.24798 0.54488 0.0
C520 C 0.92561 0.24178 0.52797 0.0
C521 C 0.90702 0.23534 0.44808 0.0
C522 C 0.88189 0.23571 0.45363 0.0
C523 C 0.8883 0.23345 0.42881 0.0
C524 C 0.90284 0.23392 0.43339 0.0
C525 C 0.87763 0.23439 0.43886 0.0
C526 C 0.8965 0.23618 0.45821 0.0
C527 C 0.92242 0.23642 0.45246 0.0
O528 O 0.95917 0.25291 0.47534 0.0
O529 O 0.95974 0.22949 0.47618 0.0
O530 O 0.92734 0.22554 0.4592 0.0
O531 O 0.92742 0.24901 0.45827 0.0
H532 H 0.96101 0.22512 0.44878 0.0
H533 H 0.97325 0.22661 0.4265 0.0
H534 H 0.00311 0.25983 0.44685 0.0
H535 H 0.9911 0.25784 0.46939 0.0
H536 H 0.96641 0.25239 0.53499 0.0
H537 H 0.95606 0.24849 0.51024 0.0
H538 H 0.92444 0.24287 0.55087 0.0
H539 H 0.91421 0.23886 0.52606 0.0
H540 H 0.87394 0.23632 0.46164 0.0
H541 H 0.88543 0.23268 0.41736 0.0
H542 H 0.91087 0.23335 0.42544 0.0
H543 H 0.8996 0.2373 0.46961 0.0
C544 C 0.42419 0.72097 0.967 0.0
C545 C 0.42952 0.73232 0.95915 0.0
C546 C 0.41517 0.72271 0.93776 0.0
C547 C 0.42498 0.73323 0.94473 0.0
C548 C 0.40941 0.71168 0.94581 0.0
C549 C 0.41388 0.71084 0.96031 0.0
U550 U 0.45737 0.72008 0.99156 0.0
O551 O 0.46283 0.72768 0.01402 0.0
O552 O 0.46396 0.70479 0.00746 0.0
C553 C 0.46475 0.71465 0.01817 0.0
C554 C 0.43049 0.71871 0.98151 0.0
C555 C 0.45749 0.71066 0.03108 0.0
C556 C 0.4372 0.71148 0.04631 0.0
C557 C 0.44355 0.71481 0.03357 0.0
C558 C 0.45847 0.69946 0.05393 0.0
C559 C 0.44466 0.7039 0.05672 0.0
C560 C 0.46482 0.70284 0.04125 0.0
C561 C 0.49308 0.72847 0.97474 0.0
C562 C 0.51616 0.72778 0.98807 0.0
C563 C 0.51521 0.73384 0.96312 0.0
C564 C 0.50019 0.73228 0.96258 0.0
C565 C 0.52338 0.73161 0.97587 0.0
C566 C 0.50111 0.72623 0.98751 0.0
C567 C 0.47731 0.72673 0.97389 0.0
O568 O 0.43814 0.70733 0.98223 0.0
O569 O 0.43669 0.73016 0.98873 0.0
O570 O 0.47076 0.7364 0.98149 0.0
O571 O 0.47192 0.71355 0.97497 0.0
H572 H 0.43756 0.74025 0.964 0.0
H573 H 0.42942 0.74202 0.93894 0.0
H574 H 0.40196 0.70331 0.94077 0.0
H575 H 0.40973 0.70193 0.96612 0.0
H576 H 0.42661 0.71519 0.04816 0.0
H577 H 0.43768 0.72081 0.0258 0.0
H578 H 0.46442 0.69338 0.06156 0.0
H579 H 0.47555 0.69947 0.03944 0.0
H580 H 0.52213 0.72615 0.99809 0.0
H581 H 0.52043 0.7366 0.95348 0.0
H582 H 0.49411 0.73398 0.95262 0.0
H583 H 0.49574 0.7233 0.99702 0.0
C584 C 0.53936 0.58426 0.30664 0.0
C585 C 0.54641 0.58347 0.3203 0.0
C586 C 0.56671 0.59859 0.31333 0.0
C587 C 0.55993 0.59054 0.32359 0.0
C588 C 0.55932 0.60002 0.29996 0.0
C589 C 0.54578 0.59297 0.29668 0.0
U590 U 0.52128 0.54824 0.29356 0.0
O591 O 0.50193 0.5362 0.2999 0.0
O592 O 0.5034 0.54214 0.27756 0.0
C593 C 0.49525 0.53658 0.28713 0.0
C594 C 0.52591 0.57536 0.30241 0.0
C595 C 0.48052 0.54141 0.2871 0.0
C596 C 0.46365 0.55961 0.29247 0.0
C597 C 0.47781 0.55533 0.29232 0.0
C598 C 0.45487 0.53614 0.28205 0.0
C599 C 0.45201 0.55002 0.28742 0.0
C600 C 0.469 0.53188 0.28191 0.0
C601 C 0.54644 0.51775 0.28717 0.0
C602 C 0.5381 0.49272 0.28227 0.0
C603 C 0.56347 0.49983 0.28157 0.0
C604 C 0.56055 0.51409 0.28499 0.0
C605 C 0.55231 0.48894 0.28031 0.0
C606 C 0.53519 0.50703 0.28567 0.0
C607 C 0.54376 0.53272 0.29129 0.0
O608 O 0.52415 0.571 0.28872 0.0
O609 O 0.52242 0.5652 0.31103 0.0
O610 O 0.53727 0.53473 0.30332 0.0
O611 O 0.53871 0.54028 0.28088 0.0
H612 H 0.5417 0.57707 0.32834 0.0
H613 H 0.56519 0.58948 0.3341 0.0
H614 H 0.56424 0.60607 0.29177 0.0
H615 H 0.54056 0.59395 0.28613 0.0
H616 H 0.46181 0.57032 0.29681 0.0
H617 H 0.48662 0.56281 0.29638 0.0
H618 H 0.44619 0.52857 0.27787 0.0
H619 H 0.47094 0.52111 0.27779 0.0
H620 H 0.52928 0.48459 0.2815 0.0
H621 H 0.57449 0.49734 0.2799 0.0
H622 H 0.56935 0.52227 0.28604 0.0
H623 H 0.52421 0.5097 0.28732 0.0
C624 C 0.03658 0.04775 0.67648 0.0
C625 C 0.0487 0.05633 0.68205 0.0
C626 C 0.0644 0.03748 0.67498 0.0
C627 C 0.06247 0.05123 0.68136 0.0
C628 C 0.05218 0.02896 0.66936 0.0
C629 C 0.03839 0.03407 0.67012 0.0
U630 U 0.01299 0.07879 0.68292 0.0
O631 O 0.99274 0.08437 0.67184 0.0
O632 O 0.9935 0.08065 0.6949 0.0
C633 C 0.98541 0.08305 0.68338 0.0
C634 C 0.02211 0.05313 0.6772 0.0
C635 C 0.97171 0.07439 0.6813 0.0
C636 C 0.95779 0.05154 0.68099 0.0
C637 C 0.97109 0.05943 0.68236 0.0
C638 C 0.94572 0.07346 0.67714 0.0
C639 C 0.94493 0.0585 0.67851 0.0
C640 C 0.95899 0.08132 0.67855 0.0
C641 C 0.03047 0.11606 0.69229 0.0
C642 C 0.01638 0.13563 0.70069 0.0
C643 C 0.04129 0.14041 0.69529 0.0
C644 C 0.04235 0.12581 0.69148 0.0
C645 C 0.02831 0.14546 0.70002 0.0
C646 C 0.01744 0.12106 0.6968 0.0
C647 C 0.03174 0.10072 0.68848 0.0
O648 O 0.01874 0.05772 0.69009 0.0
O649 O 0.01853 0.06183 0.66716 0.0
O650 O 0.02688 0.09634 0.67537 0.0
O651 O 0.02772 0.09197 0.69826 0.0
H652 H 0.04749 0.06696 0.68698 0.0
H653 H 0.07159 0.058 0.68599 0.0
H654 H 0.05328 0.01842 0.6642 0.0
H655 H 0.02914 0.02735 0.66569 0.0
H656 H 0.95756 0.04006 0.68222 0.0
H657 H 0.98085 0.05391 0.68445 0.0
H658 H 0.93607 0.07912 0.67497 0.0
H659 H 0.9593 0.09285 0.67761 0.0
H660 H 0.0062 0.13923 0.70412 0.0
H661 H 0.0507 0.14769 0.69479 0.0
H662 H 0.05248 0.12211 0.688 0.0
H663 H 0.00811 0.11368 0.69738 0.0
C664 C 0.4585 0.97265 0.24713 0.0
C665 C 0.4463 0.96743 0.23844 0.0
C666 C 0.43262 0.98696 0.24785 0.0
C667 C 0.43355 0.97456 0.23871 0.0
C668 C 0.44499 0.9924 0.25624 0.0
C669 C 0.45782 0.98529 0.25588 0.0
U670 U 0.47324 0.93624 0.247 0.0
O671 O 0.49174 0.92695 0.23707 0.0
O672 O 0.49012 0.92709 0.26047 0.0
C673 C 0.49815 0.92457 0.24956 0.0
C674 C 0.47132 0.96414 0.24814 0.0
C675 C 0.51321 0.93017 0.25173 0.0
C676 C 0.53101 0.95015 0.25655 0.0
C677 C 0.51663 0.94496 0.25431 0.0
C678 C 0.53867 0.92582 0.2535 0.0
C679 C 0.5422 0.94063 0.2562 0.0
C680 C 0.52429 0.92064 0.2513 0.0
C681 C 0.44422 0.90503 0.24265 0.0
C682 C 0.44914 0.87975 0.24255 0.0
C683 C 0.42448 0.88682 0.24105 0.0
C684 C 0.42943 0.90125 0.2416 0.0
C685 C 0.43426 0.87589 0.24152 0.0
C686 C 0.45409 0.89423 0.2431 0.0
C687 C 0.44901 0.9203 0.24358 0.0
O688 O 0.47243 0.95677 0.2597 0.0
O689 O 0.47402 0.95665 0.23632 0.0
O690 O 0.45614 0.92481 0.23277 0.0
O691 O 0.45467 0.92537 0.2562 0.0
H692 H 0.44648 0.9576 0.2317 0.0
H693 H 0.42433 0.97021 0.23192 0.0
H694 H 0.44461 0.00184 0.26349 0.0
H695 H 0.46707 0.98938 0.26278 0.0
H696 H 0.53337 0.96162 0.25842 0.0
H697 H 0.50817 0.95246 0.25461 0.0
H698 H 0.54702 0.9182 0.25333 0.0
H699 H 0.52181 0.90919 0.24934 0.0
H700 H 0.45694 0.87158 0.2428 0.0
H701 H 0.41296 0.88426 0.24051 0.0
H702 H 0.42168 0.90948 0.24133 0.0
H703 H 0.46557 0.89702 0.24394 0.0
C704 C 0.96578 0.4201 0.71554 0.0
C705 C 0.95589 0.43067 0.71775 0.0
C706 C 0.93646 0.41219 0.71838 0.0
C707 C 0.94138 0.42677 0.71911 0.0
C708 C 0.94647 0.40161 0.71628 0.0
C709 C 0.96103 0.40556 0.71487 0.0
U710 U 0.99465 0.44982 0.71709 0.0
O711 O 0.01733 0.45131 0.72533 0.0
O712 O 0.01181 0.4551 0.70272 0.0
C713 C 0.02214 0.45326 0.71255 0.0
C714 C 0.98097 0.42442 0.7139 0.0
C715 C 0.03384 0.44415 0.7081 0.0
C716 C 0.04707 0.43254 0.68934 0.0
C717 C 0.03545 0.44033 0.69349 0.0
C718 C 0.05565 0.43207 0.71429 0.0
C719 C 0.05735 0.42841 0.69969 0.0
C720 C 0.04406 0.43992 0.71844 0.0
C721 C 0.98269 0.48743 0.72765 0.0
C722 C 0.99729 0.50957 0.72572 0.0
C723 C 0.97467 0.51008 0.73732 0.0
C724 C 0.97253 0.49521 0.73475 0.0
C725 C 0.98705 0.51745 0.73279 0.0
C726 C 0.99515 0.49465 0.72321 0.0
C727 C 0.97996 0.47186 0.72481 0.0
O728 O 0.98322 0.43257 0.70312 0.0
O729 O 0.98825 0.42917 0.72588 0.0
O730 O 0.98626 0.46379 0.73408 0.0
O731 O 0.98069 0.46707 0.71136 0.0
H732 H 0.95939 0.44198 0.71829 0.0
H733 H 0.93397 0.43521 0.72045 0.0
H734 H 0.94307 0.3903 0.71583 0.0
H735 H 0.96856 0.39727 0.71323 0.0
H736 H 0.04803 0.42979 0.67802 0.0
H737 H 0.02786 0.44352 0.68521 0.0
H738 H 0.06351 0.42925 0.72251 0.0
H739 H 0.04326 0.44288 0.72975 0.0
H740 H 0.007 0.51492 0.72224 0.0
H741 H 0.96649 0.51585 0.7426 0.0
H742 H 0.96284 0.48979 0.73821 0.0
H743 H 0.00315 0.48875 0.71776 0.0
C744 C 0.67137 0.44112 0.43825 0.0
C745 C 0.66043 0.43168 0.44274 0.0
C746 C 0.66813 0.41228 0.42692 0.0
C747 C 0.6588 0.41746 0.43709 0.0
C748 C 0.67865 0.42191 0.42197 0.0
C749 C 0.68022 0.43618 0.42755 0.0
U750 U 0.68234 0.46411 0.47209 0.0
O751 O 0.69729 0.48318 0.47624 0.0
O752 O 0.67462 0.48428 0.48129 0.0
C753 C 0.68712 0.49138 0.48047 0.0
C754 C 0.67444 0.45563 0.44542 0.0
C755 C 0.68658 0.50527 0.4739 0.0
C756 C 0.68244 0.51945 0.45318 0.0
C757 C 0.68291 0.50606 0.45918 0.0
C758 C 0.68929 0.5313 0.47657 0.0
C759 C 0.68559 0.53224 0.46183 0.0
C760 C 0.68977 0.51793 0.48253 0.0
C761 C 0.69012 0.44373 0.50627 0.0
C762 C 0.68369 0.4417 0.53106 0.0
C763 C 0.70858 0.44044 0.52516 0.0
C764 C 0.70461 0.44223 0.51073 0.0
C765 C 0.69815 0.44 0.53546 0.0
C766 C 0.67971 0.44348 0.51661 0.0
C767 C 0.68579 0.44443 0.4908 0.0
O768 O 0.66529 0.45981 0.45483 0.0
O769 O 0.68797 0.45866 0.44991 0.0
O770 O 0.6959 0.44868 0.48245 0.0
O771 O 0.6733 0.44977 0.48765 0.0
H772 H 0.65336 0.43512 0.45092 0.0
H773 H 0.65038 0.41043 0.44092 0.0
H774 H 0.6861 0.41828 0.41424 0.0
H775 H 0.68872 0.44324 0.4239 0.0
H776 H 0.67943 0.51981 0.44182 0.0
H777 H 0.68039 0.49634 0.45237 0.0
H778 H 0.69201 0.5409 0.48348 0.0
H779 H 0.69267 0.51749 0.49391 0.0
H780 H 0.67537 0.4412 0.53869 0.0
H781 H 0.71983 0.43932 0.52823 0.0
H782 H 0.71289 0.4422 0.50304 0.0
H783 H 0.66842 0.44436 0.51352 0.0
C784 C 0.75742 0.55529 0.04695 0.0
C785 C 0.76459 0.56722 0.05463 0.0
C786 C 0.75562 0.58306 0.03676 0.0
C787 C 0.76376 0.58094 0.04956 0.0
C788 C 0.74875 0.57101 0.02889 0.0
C789 C 0.74963 0.55722 0.03397 0.0
U790 U 0.76144 0.53458 0.07992 0.0
O791 O 0.74842 0.51657 0.08773 0.0
O792 O 0.77135 0.51434 0.08441 0.0
C793 C 0.75906 0.50791 0.08744 0.0
C794 C 0.75708 0.54115 0.05317 0.0
C795 C 0.75554 0.49375 0.07999 0.0
C796 C 0.74968 0.47871 0.05809 0.0
C797 C 0.75313 0.49229 0.06499 0.0
C798 C 0.75105 0.46799 0.08115 0.0
C799 C 0.74861 0.46639 0.0661 0.0
C800 C 0.75449 0.48155 0.08802 0.0
C801 C 0.7706 0.55795 0.11494 0.0
C802 C 0.76749 0.55056 0.13918 0.0
C803 C 0.77944 0.57371 0.13552 0.0
C804 C 0.77762 0.57086 0.12065 0.0
C805 C 0.77421 0.56369 0.14496 0.0
C806 C 0.76572 0.5477 0.12427 0.0
C807 C 0.76781 0.55583 0.0993 0.0
O808 O 0.76955 0.53725 0.05848 0.0
O809 O 0.74656 0.53896 0.06174 0.0
O810 O 0.75455 0.55148 0.09488 0.0
O811 O 0.77761 0.54925 0.09226 0.0
H812 H 0.77057 0.56596 0.06475 0.0
H813 H 0.76936 0.58994 0.05577 0.0
H814 H 0.74228 0.57228 0.01908 0.0
H815 H 0.74391 0.54815 0.02799 0.0
H816 H 0.74802 0.47785 0.04648 0.0
H817 H 0.75391 0.50164 0.05863 0.0
H818 H 0.75009 0.45878 0.08767 0.0
H819 H 0.75626 0.48253 0.09962 0.0
H820 H 0.76349 0.54257 0.14617 0.0
H821 H 0.78448 0.58399 0.1396 0.0
H822 H 0.7814 0.5789 0.11359 0.0
H823 H 0.76032 0.53763 0.12002 0.0
C824 C 0.26093 0.03924 0.55351 0.0
C825 C 0.26022 0.05105 0.54491 0.0
C826 C 0.26729 0.06735 0.56572 0.0
C827 C 0.26335 0.06498 0.55096 0.0
C828 C 0.26775 0.05547 0.57435 0.0
C829 C 0.26461 0.0415 0.56827 0.0
U830 U 0.25328 0.01514 0.51999 0.0
O831 O 0.26274 0.99517 0.51266 0.0
O832 O 0.2395 0.99529 0.51542 0.0
C833 C 0.25052 0.98747 0.51299 0.0
C834 C 0.25838 0.0246 0.5469 0.0
C835 C 0.25141 0.97458 0.52123 0.0
C836 C 0.2543 0.96354 0.54408 0.0
C837 C 0.25262 0.97577 0.53631 0.0
C838 C 0.25342 0.94881 0.52175 0.0
C839 C 0.25486 0.94992 0.53688 0.0
C840 C 0.25172 0.96105 0.514 0.0
C841 C 0.24997 0.03399 0.48446 0.0
C842 C 0.23923 0.02408 0.46139 0.0
C843 C 0.2559 0.04507 0.46248 0.0
C844 C 0.25747 0.04466 0.47741 0.0
C845 C 0.24669 0.03485 0.45427 0.0
C846 C 0.24088 0.02363 0.47636 0.0
C847 C 0.2519 0.03399 0.50022 0.0
O848 O 0.24532 0.02151 0.54104 0.0
O849 O 0.26852 0.02045 0.53865 0.0
O850 O 0.26407 0.02916 0.50519 0.0
O851 O 0.24067 0.02949 0.50704 0.0
H852 H 0.25738 0.04947 0.53348 0.0
H853 H 0.26269 0.0739 0.54406 0.0
H854 H 0.27086 0.05694 0.58573 0.0
H855 H 0.26527 0.03247 0.57503 0.0
H856 H 0.25519 0.96476 0.55571 0.0
H857 H 0.25243 0.98618 0.54205 0.0
H858 H 0.254 0.93853 0.51587 0.0
H859 H 0.2509 0.95998 0.50235 0.0
H860 H 0.23197 0.01611 0.45542 0.0
H861 H 0.26207 0.05332 0.45737 0.0
H862 H 0.26461 0.05268 0.48348 0.0
H863 H 0.23504 0.01524 0.4816 0.0
C864 C 0.32303 0.97012 0.95136 0.0
C865 C 0.32711 0.95831 0.94287 0.0
C866 C 0.32342 0.94266 0.96254 0.0
C867 C 0.32739 0.94473 0.94843 0.0
C868 C 0.31931 0.95457 0.97098 0.0
C869 C 0.31914 0.96818 0.96543 0.0
U870 U 0.3188 0.99278 0.91922 0.0
O871 O 0.30664 0.01195 0.91593 0.0
O872 O 0.33005 0.01302 0.91403 0.0
C873 C 0.3183 0.02017 0.91435 0.0
C874 C 0.32237 0.98436 0.94545 0.0
C875 C 0.31958 0.03377 0.92315 0.0
C876 C 0.32228 0.047 0.94643 0.0
C877 C 0.32134 0.03393 0.9382 0.0
C878 C 0.3198 0.05982 0.92462 0.0
C879 C 0.32149 0.0601 0.93972 0.0
C880 C 0.31885 0.04676 0.91642 0.0
C881 C 0.31271 0.97406 0.88183 0.0
C882 C 0.31656 0.98535 0.8594 0.0
C883 C 0.29992 0.96446 0.85963 0.0
C884 C 0.30296 0.96387 0.87442 0.0
C885 C 0.30666 0.97522 0.85192 0.0
C886 C 0.3195 0.98482 0.87422 0.0
C887 C 0.31526 0.97355 0.89751 0.0
O888 O 0.33315 0.98819 0.9377 0.0
O889 O 0.30974 0.98712 0.93958 0.0
O890 O 0.30461 0.97767 0.90511 0.0
O891 O 0.328 0.97857 0.90299 0.0
H892 H 0.33006 0.95957 0.93192 0.0
H893 H 0.33081 0.93589 0.94168 0.0
H894 H 0.31598 0.95334 0.9818 0.0
H895 H 0.31584 0.97716 0.97208 0.0
H896 H 0.32372 0.04686 0.95802 0.0
H897 H 0.32195 0.02396 0.94355 0.0
H898 H 0.31893 0.06968 0.91913 0.0
H899 H 0.31744 0.04679 0.90481 0.0
H900 H 0.3221 0.99367 0.85381 0.0
H901 H 0.29204 0.95665 0.85431 0.0
H902 H 0.29752 0.95556 0.88012 0.0
H903 H 0.32701 0.99288 0.87973 0.0
C904 C 0.44157 0.6725 0.43916 0.0
C905 C 0.45012 0.67346 0.42733 0.0
C906 C 0.42896 0.6683 0.41092 0.0
C907 C 0.44389 0.6714 0.41336 0.0
C908 C 0.42041 0.6673 0.42285 0.0
C909 C 0.42669 0.66938 0.43688 0.0
U910 U 0.47523 0.68183 0.46237 0.0
O911 O 0.47986 0.69626 0.48175 0.0
O912 O 0.48395 0.67335 0.48236 0.0
C913 C 0.48352 0.68574 0.48974 0.0
C914 C 0.4483 0.67502 0.45378 0.0
C915 C 0.4766 0.68514 0.50345 0.0
C916 C 0.45549 0.68069 0.51705 0.0
C917 C 0.46187 0.68123 0.50385 0.0
C918 C 0.47852 0.68802 0.5295 0.0
C919 C 0.46376 0.68405 0.53004 0.0
C920 C 0.48486 0.68855 0.51632 0.0
C921 C 0.50949 0.68829 0.44213 0.0
C922 C 0.53244 0.698 0.45335 0.0
C923 C 0.53079 0.68911 0.42834 0.0
C924 C 0.51611 0.68561 0.42923 0.0
C925 C 0.53912 0.69538 0.44037 0.0
C926 C 0.51772 0.69443 0.45423 0.0
C927 C 0.49399 0.68472 0.44263 0.0
O928 O 0.45742 0.66545 0.45754 0.0
O929 O 0.45332 0.68833 0.45704 0.0
O930 O 0.4863 0.69522 0.44728 0.0
O931 O 0.49048 0.67234 0.44792 0.0
H932 H 0.46163 0.67595 0.42891 0.0
H933 H 0.45076 0.67252 0.40445 0.0
H934 H 0.40891 0.66484 0.42133 0.0
H935 H 0.41995 0.66861 0.44592 0.0
H936 H 0.44414 0.67746 0.51708 0.0
H937 H 0.45535 0.67855 0.49396 0.0
H938 H 0.48514 0.69089 0.53928 0.0
H939 H 0.49624 0.69165 0.51618 0.0
H940 H 0.5386 0.70269 0.46283 0.0
H941 H 0.53555 0.68715 0.41814 0.0
H942 H 0.50988 0.6809 0.41978 0.0
H943 H 0.51276 0.69651 0.46431 0.0
C944 C 0.95488 0.32326 0.96791 0.0
C945 C 0.94637 0.31842 0.9555 0.0
C946 C 0.96588 0.32534 0.94052 0.0
C947 C 0.95183 0.31941 0.94193 0.0
C948 C 0.9743 0.33029 0.95303 0.0
C949 C 0.96884 0.32924 0.96661 0.0
U950 U 0.92347 0.31606 0.99101 0.0
O951 O 0.92163 0.30344 0.01006 0.0
O952 O 0.91794 0.32649 0.01155 0.0
C953 C 0.91937 0.31474 0.01851 0.0
C954 C 0.94924 0.32206 0.98219 0.0
C955 C 0.92845 0.31647 0.03194 0.0
C956 C 0.95201 0.31883 0.0447 0.0
C957 C 0.94352 0.31761 0.03178 0.0
C958 C 0.93041 0.31801 0.05803 0.0
C959 C 0.94554 0.31898 0.05798 0.0
C960 C 0.92195 0.31675 0.04511 0.0
C961 C 0.88609 0.30729 0.97357 0.0
C962 C 0.86668 0.29816 0.98746 0.0
C963 C 0.86145 0.30563 0.96335 0.0
C964 C 0.8761 0.30922 0.96214 0.0
C965 C 0.8566 0.3 0.97601 0.0
C966 C 0.88129 0.30183 0.98628 0.0
C967 C 0.90145 0.3111 0.97225 0.0
O968 O 0.9405 0.33199 0.98598 0.0
O969 O 0.94456 0.30903 0.98505 0.0
O970 O 0.91022 0.30118 0.97588 0.0
O971 O 0.9059 0.32408 0.97746 0.0
H972 H 0.93554 0.31377 0.95633 0.0
H973 H 0.94512 0.31531 0.93256 0.0
H974 H 0.98508 0.3351 0.95233 0.0
H975 H 0.97551 0.3331 0.9761 0.0
H976 H 0.96362 0.31972 0.04431 0.0
H977 H 0.9487 0.31747 0.02166 0.0
H978 H 0.9251 0.3179 0.06805 0.0
H979 H 0.91032 0.31584 0.0454 0.0
H980 H 0.86324 0.29403 0.99742 0.0
H981 H 0.85395 0.30707 0.95431 0.0
H982 H 0.87964 0.31346 0.95227 0.0
H983 H 0.88886 0.30041 0.99528 0.0
C984 C 0.04463 0.75079 0.55659 0.0
C985 C 0.05378 0.7501 0.56896 0.0
C986 C 0.03322 0.74997 0.58393 0.0
C987 C 0.04815 0.74962 0.58247 0.0
C988 C 0.02406 0.75076 0.57148 0.0
C989 C 0.02974 0.75116 0.5579 0.0
U990 U 0.07784 0.75459 0.53632 0.0
O991 O 0.08536 0.74243 0.5176 0.0
O992 O 0.08303 0.76567 0.5169 0.0
C993 C 0.08569 0.75367 0.50972 0.0
C994 C 0.05083 0.75112 0.54247 0.0
C995 C 0.07846 0.7513 0.49531 0.0
C996 C 0.05674 0.74746 0.47955 0.0
C997 C 0.06339 0.75012 0.49336 0.0
C998 C 0.08019 0.74719 0.46956 0.0
C999 C 0.06508 0.74586 0.4675 0.0
C1000 C 0.0868 0.74988 0.48335 0.0
C1001 C 0.11286 0.76071 0.56057 0.0
C1002 C 0.13719 0.75637 0.55404 0.0
C1003 C 0.13331 0.769 0.57679 0.0
C1004 C 0.11847 0.76776 0.5735 0.0
C1005 C 0.14284 0.76316 0.56718 0.0
C1006 C 0.1223 0.75519 0.55073 0.0
C1007 C 0.09715 0.75866 0.558 0.0
O1008 O 0.05686 0.76364 0.53963 0.0
O1009 O 0.05882 0.74032 0.53939 0.0
O1010 O 0.09222 0.74586 0.55268 0.0
O1011 O 0.0907 0.76923 0.55212 0.0
H1012 H 0.06532 0.74981 0.56816 0.0
H1013 H 0.05552 0.74873 0.59173 0.0
H1014 H 0.01253 0.75117 0.57223 0.0
H1015 H 0.02253 0.75176 0.54845 0.0
H1016 H 0.04509 0.74636 0.47833 0.0
H1017 H 0.05679 0.75112 0.50252 0.0
H1018 H 0.08691 0.74622 0.4605 0.0
H1019 H 0.09846 0.75079 0.48468 0.0
H1020 H 0.14427 0.7519 0.54635 0.0
H1021 H 0.13728 0.77411 0.58708 0.0
H1022 H 0.11132 0.77204 0.58123 0.0
H1023 H 0.11815 0.74976 0.54064 0.0
C1024 C 0.55826 0.26022 0.05168 0.0
C1025 C 0.54757 0.26239 0.06144 0.0
C1026 C 0.56535 0.26207 0.08157 0.0
C1027 C 0.55108 0.26337 0.07621 0.0
C1028 C 0.57604 0.25981 0.07172 0.0
C1029 C 0.5725 0.2589 0.05688 0.0
U1030 U 0.52915 0.25584 0.02207 0.0
O1031 O 0.5255 0.26707 0.00225 0.0
O1032 O 0.52744 0.24369 0.00105 0.0
C1033 C 0.52632 0.25535 0.99389 0.0
C1034 C 0.55439 0.25922 0.03614 0.0
C1035 C 0.53574 0.25671 0.98189 0.0
C1036 C 0.55876 0.2636 0.97249 0.0
C1037 C 0.55017 0.26188 0.98419 0.0
C1038 C 0.5386 0.25474 0.95619 0.0
C1039 C 0.55304 0.2601 0.95835 0.0
C1040 C 0.53005 0.25308 0.96786 0.0
C1041 C 0.49052 0.25151 0.03379 0.0
C1042 C 0.46918 0.2548 0.01839 0.0
C1043 C 0.4668 0.24496 0.04169 0.0
C1044 C 0.48177 0.24598 0.04412 0.0
C1045 C 0.46033 0.24951 0.02887 0.0
C1046 C 0.48418 0.25574 0.02081 0.0
C1047 C 0.50618 0.25318 0.03694 0.0
O1048 O 0.54874 0.24661 0.03101 0.0
O1049 O 0.54732 0.27001 0.03149 0.0
O1050 O 0.51232 0.26567 0.03417 0.0
O1051 O 0.51348 0.2422 0.03278 0.0
H1052 H 0.53649 0.2634 0.0576 0.0
H1053 H 0.54261 0.26537 0.08343 0.0
H1054 H 0.58709 0.2586 0.07547 0.0
H1055 H 0.58087 0.25713 0.04948 0.0
H1056 H 0.56987 0.26762 0.97452 0.0
H1057 H 0.55475 0.26469 0.99499 0.0
H1058 H 0.5338 0.25215 0.94544 0.0
H1059 H 0.51891 0.24911 0.96591 0.0
H1060 H 0.46452 0.25824 0.00835 0.0
H1061 H 0.46027 0.241 0.05003 0.0
H1062 H 0.4865 0.24268 0.0542 0.0
H1063 H 0.49081 0.25995 0.01265 0.0
C1064 C 0.43878 0.43832 0.67236 0.0
C1065 C 0.42653 0.44627 0.67353 0.0
C1066 C 0.41101 0.4246 0.66781 0.0
C1067 C 0.41279 0.43949 0.6713 0.0
C1068 C 0.42335 0.41666 0.66661 0.0
C1069 C 0.43715 0.42349 0.66886 0.0
U1070 U 0.46064 0.47282 0.68149 0.0
O1071 O 0.4798 0.47834 0.69605 0.0
O1072 O 0.48043 0.48216 0.67308 0.0
C1073 C 0.48776 0.48213 0.68555 0.0
C1074 C 0.45315 0.44564 0.67494 0.0
C1075 C 0.50175 0.47567 0.68516 0.0
C1076 C 0.51602 0.45487 0.68189 0.0
C1077 C 0.50259 0.46084 0.68222 0.0
C1078 C 0.52784 0.47852 0.68743 0.0
C1079 C 0.52881 0.46365 0.68448 0.0
C1080 C 0.51442 0.48445 0.68777 0.0
C1081 C 0.43897 0.5062 0.68725 0.0
C1082 C 0.44916 0.52947 0.6971 0.0
C1083 C 0.42445 0.52696 0.68718 0.0
C1084 C 0.42592 0.51235 0.68393 0.0
C1085 C 0.43603 0.53569 0.69384 0.0
C1086 C 0.45063 0.51483 0.69377 0.0
C1087 C 0.44009 0.49076 0.68391 0.0
O1088 O 0.45662 0.45475 0.66529 0.0
O1089 O 0.45611 0.45089 0.68823 0.0
O1090 O 0.44496 0.4834 0.69457 0.0
O1091 O 0.44562 0.48732 0.67163 0.0
H1092 H 0.42761 0.45774 0.67628 0.0
H1093 H 0.40356 0.44589 0.67258 0.0
H1094 H 0.42234 0.4052 0.66384 0.0
H1095 H 0.44652 0.41721 0.66791 0.0
H1096 H 0.5164 0.44342 0.67944 0.0
H1097 H 0.49287 0.45391 0.68015 0.0
H1098 H 0.53745 0.48555 0.68968 0.0
H1099 H 0.51393 0.49592 0.6901 0.0
H1100 H 0.4583 0.53595 0.7021 0.0
H1101 H 0.41415 0.53137 0.68472 0.0
H1102 H 0.41681 0.50582 0.67891 0.0
H1103 H 0.46082 0.51023 0.69634 0.0
C1104 C 0.96895 0.95111 0.32352 0.0
C1105 C 0.95642 0.9427 0.31885 0.0
C1106 C 0.94164 0.96235 0.32584 0.0
C1107 C 0.9429 0.94828 0.31994 0.0
C1108 C 0.95427 0.97069 0.33059 0.0
C1109 C 0.96781 0.9651 0.32943 0.0
U1110 U 0.99111 0.91909 0.31676 0.0
O1111 O 0.00973 0.91614 0.30369 0.0
O1112 O 0.01165 0.91307 0.32687 0.0
C1113 C 0.01831 0.9137 0.31485 0.0
C1114 C 0.98315 0.94524 0.32227 0.0
C1115 C 0.03231 0.92184 0.31592 0.0
C1116 C 0.04679 0.94442 0.31805 0.0
C1117 C 0.03331 0.93691 0.31753 0.0
C1118 C 0.05832 0.92183 0.31554 0.0
C1119 C 0.05945 0.93695 0.31694 0.0
C1120 C 0.04486 0.91436 0.31502 0.0
C1121 C 0.97239 0.8822 0.30923 0.0
C1122 C 0.98548 0.86225 0.29997 0.0
C1123 C 0.96153 0.85787 0.30828 0.0
C1124 C 0.9608 0.8726 0.31169 0.0
C1125 C 0.97384 0.85256 0.30229 0.0
C1126 C 0.98479 0.87693 0.30347 0.0
C1127 C 0.97158 0.89766 0.31276 0.0
O1128 O 0.98696 0.93673 0.3324 0.0
O1129 O 0.98572 0.94015 0.30929 0.0
O1130 O 0.97521 0.90604 0.30253 0.0
O1131 O 0.97721 0.90226 0.32554 0.0
H1132 H 0.9571 0.93184 0.31427 0.0
H1133 H 0.93344 0.94163 0.31597 0.0
H1134 H 0.95369 0.98148 0.33536 0.0
H1135 H 0.97739 0.9717 0.33316 0.0
H1136 H 0.04729 0.95606 0.31901 0.0
H1137 H 0.02367 0.94283 0.31822 0.0
H1138 H 0.06785 0.91575 0.31489 0.0
H1139 H 0.04426 0.90272 0.31383 0.0
H1140 H 0.99518 0.85845 0.29556 0.0
H1141 H 0.95236 0.85067 0.3101 0.0
H1142 H 0.95118 0.8765 0.31617 0.0
H1143 H 0.99391 0.88419 0.30165 0.0
C1144 C 0.54201 0.04647 0.75627 0.0
C1145 C 0.55558 0.05374 0.75605 0.0
C1146 C 0.56699 0.03092 0.75427 0.0
C1147 C 0.56794 0.04606 0.75501 0.0
C1148 C 0.55333 0.02368 0.75461 0.0
C1149 C 0.54094 0.03141 0.75559 0.0
U1150 U 0.5262 0.08237 0.76134 0.0
O1151 O 0.50833 0.09203 0.74974 0.0
O1152 O 0.5077 0.08944 0.77294 0.0
C1153 C 0.50065 0.09284 0.76111 0.0
C1154 C 0.52907 0.05469 0.75709 0.0
C1155 C 0.48581 0.08662 0.75885 0.0
C1156 C 0.46882 0.06586 0.75475 0.0
C1157 C 0.48297 0.07167 0.75731 0.0
C1158 C 0.46022 0.08992 0.7553 0.0
C1159 C 0.45729 0.07493 0.75364 0.0
C1160 C 0.47437 0.0957 0.75789 0.0
C1161 C 0.55354 0.11482 0.76772 0.0
C1162 C 0.5477 0.13976 0.7663 0.0
C1163 C 0.5719 0.13398 0.77392 0.0
C1164 C 0.56769 0.11935 0.77241 0.0
C1165 C 0.562 0.14436 0.77074 0.0
C1166 C 0.54349 0.12508 0.76483 0.0
C1167 C 0.54969 0.09936 0.76541 0.0
O1168 O 0.52723 0.06088 0.76982 0.0
O1169 O 0.52705 0.06328 0.74656 0.0
O1170 O 0.54381 0.09516 0.75261 0.0
O1171 O 0.54334 0.09329 0.77594 0.0
H1172 H 0.55659 0.06539 0.75655 0.0
H1173 H 0.57821 0.052 0.75453 0.0
H1174 H 0.55224 0.01205 0.75422 0.0
H1175 H 0.53053 0.02565 0.75581 0.0
H1176 H 0.46694 0.05429 0.75335 0.0
H1177 H 0.49172 0.06451 0.75795 0.0
H1178 H 0.45157 0.09718 0.75468 0.0
H1179 H 0.4764 0.10727 0.75907 0.0
H1180 H 0.53979 0.1475 0.76392 0.0
H1181 H 0.58304 0.13714 0.77716 0.0
H1182 H 0.57559 0.11155 0.77464 0.0
H1183 H 0.53247 0.12174 0.76125 0.0
C1184 C 0.05302 0.55597 0.26177 0.0
C1185 C 0.06284 0.54557 0.26494 0.0
C1186 C 0.08278 0.56361 0.26552 0.0
C1187 C 0.07755 0.54936 0.26686 0.0
C1188 C 0.07295 0.57399 0.26207 0.0
C1189 C 0.05815 0.5702 0.26026 0.0
U1190 U 0.02449 0.52623 0.25482 0.0
O1191 O 0.00451 0.52091 0.2653 0.0
O1192 O 0.00372 0.52426 0.24216 0.0
C1193 C 0.99634 0.52192 0.25349 0.0
C1194 C 0.03754 0.55177 0.25989 0.0
C1195 C 0.98364 0.53033 0.25515 0.0
C1196 C 0.97258 0.55294 0.25995 0.0
C1197 C 0.98488 0.54531 0.25776 0.0
C1198 C 0.95777 0.53064 0.2568 0.0
C1199 C 0.9589 0.54564 0.25965 0.0
C1200 C 0.97003 0.52307 0.25458 0.0
C1201 C 0.03803 0.48852 0.24935 0.0
C1202 C 0.02288 0.46663 0.2506 0.0
C1203 C 0.04743 0.46533 0.24348 0.0
C1204 C 0.04929 0.48031 0.24494 0.0
C1205 C 0.03426 0.4583 0.24647 0.0
C1206 C 0.02474 0.48163 0.25198 0.0
C1207 C 0.04052 0.50417 0.25165 0.0
O1208 O 0.03306 0.54662 0.24689 0.0
O1209 O 0.03257 0.54405 0.27008 0.0
O1210 O 0.03716 0.50961 0.26424 0.0
O1211 O 0.03628 0.51173 0.2409 0.0
H1212 H 0.05911 0.53448 0.26595 0.0
H1213 H 0.08487 0.54108 0.26926 0.0
H1214 H 0.0767 0.58506 0.26099 0.0
H1215 H 0.05072 0.57834 0.25772 0.0
H1216 H 0.97381 0.56447 0.26222 0.0
H1217 H 0.99536 0.55106 0.25829 0.0
H1218 H 0.94738 0.52474 0.25625 0.0
H1219 H 0.96889 0.5115 0.25254 0.0
H1220 H 0.01258 0.46153 0.25282 0.0
H1221 H 0.05645 0.45922 0.24046 0.0
H1222 H 0.05962 0.48547 0.24288 0.0
H1223 H 0.0159 0.48785 0.25533 0.0
C1224 C 0.21475 0.57035 0.27756 0.0
C1225 C 0.22125 0.58317 0.28422 0.0
C1226 C 0.19987 0.56894 0.27437 0.0
C1227 C 0.1669 0.5896 0.27105 0.0
H1228 H 0.14788 0.55307 0.27883 0.0
C1229 C 0.10572 0.57575 0.258 0.0
C1230 C 0.09846 0.56745 0.26775 0.0
C1231 C 0.1207 0.57834 0.2596 0.0
C1232 C 0.15299 0.56339 0.27672 0.0
H1233 H 0.21726 0.6047 0.29243 0.0
H1234 H 0.19128 0.60215 0.28716 0.0
H1235 H 0.17392 0.55633 0.28206 0.0
H1236 H 0.10107 0.55603 0.28723 0.0
H1237 H 0.12707 0.56074 0.29018 0.0
H1238 H 0.14582 0.59677 0.26618 0.0
C1239 C 0.19769 0.59325 0.28417 0.0
C1240 C 0.16798 0.56519 0.27836 0.0
C1241 C 0.21259 0.59469 0.28727 0.0
C1242 C 0.1064 0.56224 0.27939 0.0
C1243 C 0.12131 0.56489 0.28105 0.0
C1244 C 0.15185 0.58781 0.26946 0.0
C1245 C 0.19111 0.58028 0.27787 0.0
C1246 C 0.17514 0.57833 0.27559 0.0
C1247 C 0.1287 0.57275 0.27103 0.0
C1248 C 0.14471 0.57471 0.27238 0.0
H1249 H 0.22112 0.56131 0.27495 0.0
H1250 H 0.19522 0.5589 0.26925 0.0
H1251 H 0.17207 0.59981 0.26869 0.0
H1252 H 0.09988 0.57982 0.24887 0.0
H1253 H 0.12605 0.58434 0.25163 0.0
C1254 C 0.28288 0.39826 0.66756 0.0
C1255 C 0.27775 0.38645 0.67489 0.0
C1256 C 0.2974 0.39986 0.66458 0.0
C1257 C 0.33284 0.3904 0.67856 0.0
H1258 H 0.34579 0.40538 0.64327 0.0
C1259 C 0.39307 0.40419 0.67166 0.0
C1260 C 0.39627 0.41748 0.66582 0.0
C1261 C 0.37891 0.39821 0.67093 0.0
C1262 C 0.34235 0.40126 0.65322 0.0
H1263 H 0.28373 0.36678 0.68439 0.0
H1264 H 0.3091 0.36963 0.67921 0.0
H1265 H 0.32024 0.39893 0.64528 0.0
H1266 H 0.38723 0.43447 0.6539 0.0
H1267 H 0.36256 0.4243 0.65299 0.0
H1268 H 0.35479 0.3932 0.68674 0.0
C1269 C 0.30189 0.37768 0.67586 0.0
C1270 C 0.32772 0.39754 0.65435 0.0
C1271 C 0.28735 0.37603 0.67876 0.0
C1272 C 0.38509 0.42434 0.65872 0.0
C1273 C 0.37096 0.4184 0.65803 0.0
C1274 C 0.34745 0.39418 0.67746 0.0
C1275 C 0.30712 0.38974 0.66894 0.0
C1276 C 0.32278 0.39231 0.66712 0.0
C1277 C 0.36763 0.40539 0.66435 0.0
C1278 C 0.35236 0.39991 0.66487 0.0
H1279 H 0.27576 0.40647 0.66442 0.0
H1280 H 0.30111 0.40934 0.65935 0.0
H1281 H 0.32935 0.38657 0.68861 0.0
H1282 H 0.40141 0.39865 0.67726 0.0
H1283 H 0.37676 0.38808 0.67573 0.0
C1284 C 0.68666 0.98726 0.74041 0.0
C1285 C 0.6877 0.97494 0.73122 0.0
C1286 C 0.6732 0.99199 0.7437 0.0
C1287 C 0.63558 0.99075 0.72961 0.0
H1288 H 0.62812 0.00411 0.76845 0.0
C1289 C 0.58011 0.01039 0.74364 0.0
C1290 C 0.58021 0.02284 0.75289 0.0
C1291 C 0.59277 0.00333 0.74171 0.0
C1292 C 0.63006 1.00055 0.75752 0.0
H1293 H 0.6754 0.95785 0.71838 0.0
H1294 H 0.65189 0.96619 0.72407 0.0
H1295 H 0.65118 0.9942 0.76368 0.0
H1296 H 0.59364 0.03727 0.7678 0.0
H1297 H 0.61574 0.02527 0.7641 0.0
H1298 H 0.61467 0.99742 0.72333 0.0
C1299 C 0.66151 0.97219 0.72868 0.0
C1300 C 0.64327 0.99485 0.75481 0.0
C1301 C 0.67497 0.96739 0.72548 0.0
C1302 C 0.59321 0.02784 0.76042 0.0
C1303 C 0.60586 0.02083 0.75845 0.0
C1304 C 0.62241 0.99654 0.7323 0.0
C1305 C 0.66048 0.98458 0.73778 0.0
C1306 C 0.64621 0.99 0.7408 0.0
C1307 C 0.60585 0.00856 0.74896 0.0
C1308 C 0.61953 0.00163 0.74627 0.0
H1309 H 0.69625 0.99331 0.74501 0.0
H1310 H 0.67275 0.00166 0.75062 0.0
H1311 H 0.6376 0.98727 0.71867 0.0
H1312 H 0.57033 0.0063 0.73758 0.0
H1313 H 0.59232 0.9938 0.73447 0.0
C1314 C 0.82512 0.01852 0.32512 0.0
C1315 C 0.8134 0.00878 0.32701 0.0
C1316 C 0.83917 0.01396 0.32551 0.0
C1317 C 0.8615 0.98557 0.3387 0.0
H1318 H 0.88697 0.99715 0.30944 0.0
C1319 C 0.91537 0.9595 0.33063 0.0
C1320 C 0.9272 0.96826 0.3269 0.0
C1321 C 0.90171 0.96488 0.33117 0.0
C1322 C 0.88009 0.99399 0.31783 0.0
H1323 H 0.80726 0.98662 0.33087 0.0
H1324 H 0.83178 0.97868 0.33157 0.0
H1325 H 0.86275 0.00577 0.30943 0.0
H1326 H 0.93388 0.98964 0.3209 0.0
H1327 H 0.91013 0.99915 0.32226 0.0
H1328 H 0.87882 0.97385 0.34717 0.0
C1329 C 0.8301 0.98986 0.32987 0.0
C1330 C 0.86619 0.99891 0.31779 0.0
C1331 C 0.81605 0.9944 0.32939 0.0
C1332 C 0.92505 0.98262 0.32394 0.0
C1333 C 0.91138 0.98803 0.32454 0.0
C1334 C 0.87543 0.98071 0.33879 0.0
C1335 C 0.84181 0.99958 0.32789 0.0
C1336 C 0.85671 0.99468 0.32817 0.0
C1337 C 0.89952 0.97919 0.32807 0.0
C1338 C 0.88487 0.98478 0.32829 0.0
H1339 H 0.82345 0.02968 0.32328 0.0
H1340 H 0.84799 0.02172 0.32408 0.0
H1341 H 0.85452 0.98229 0.34697 0.0
H1342 H 0.91666 0.94845 0.33317 0.0
H1343 H 0.89281 0.95771 0.33378 0.0
C1344 C 0.29172 0.19483 0.60503 0.0
C1345 C 0.3038 0.19751 0.61474 0.0
C1346 C 0.28703 0.18074 0.60041 0.0
C1347 C 0.28981 0.14269 0.60914 0.0
H1348 H 0.27863 0.13506 0.56863 0.0
C1349 C 0.26642 0.0869 0.58533 0.0
C1350 C 0.27121 0.08216 0.57194 0.0
C1351 C 0.26995 0.10096 0.59097 0.0
C1352 C 0.2818 0.13699 0.57996 0.0
H1353 H 0.32031 0.1875 0.62737 0.0
H1354 H 0.31224 0.16295 0.61916 0.0
H1355 H 0.28564 0.15954 0.5778 0.0
H1356 H 0.28388 0.08831 0.55424 0.0
H1357 H 0.29007 0.11274 0.56407 0.0
H1358 H 0.28634 0.12003 0.61119 0.0
C1359 C 0.30627 0.17171 0.61526 0.0
C1360 C 0.28564 0.15106 0.58526 0.0
C1361 C 0.31095 0.1858 0.6199 0.0
C1362 C 0.27977 0.09172 0.56443 0.0
C1363 C 0.28331 0.10573 0.57007 0.0
C1364 C 0.28596 0.1286 0.60384 0.0
C1365 C 0.29432 0.16902 0.60537 0.0
C1366 C 0.28977 0.15408 0.59989 0.0
C1367 C 0.27838 0.11055 0.58335 0.0
C1368 C 0.28202 0.12557 0.58916 0.0
H1369 H 0.28592 0.20361 0.60091 0.0
H1370 H 0.27766 0.17904 0.59295 0.0
H1371 H 0.29279 0.14468 0.62051 0.0
H1372 H 0.25969 0.07984 0.59131 0.0
H1373 H 0.26586 0.10439 0.60116 0.0
C1374 C 0.32764 0.8275 0.02035 0.0
C1375 C 0.32484 0.81533 0.0108 0.0
C1376 C 0.32762 0.84133 0.0153 0.0
C1377 C 0.33013 0.86085 0.98185 0.0
H1378 H 0.31431 0.8916 0.00458 0.0
C1379 C 0.31906 0.91578 0.95945 0.0
C1380 C 0.32348 0.92812 0.96834 0.0
C1381 C 0.31932 0.90211 0.96479 0.0
C1382 C 0.31888 0.88314 0.99818 0.0
H1383 H 0.31966 0.80814 0.98849 0.0
H1384 H 0.31929 0.83221 0.97975 0.0
H1385 H 0.31449 0.86755 0.01354 0.0
H1386 H 0.33168 0.93564 0.98986 0.0
H1387 H 0.33187 0.91176 0.99923 0.0
H1388 H 0.33428 0.87643 0.96639 0.0
C1389 C 0.32183 0.83111 0.99109 0.0
C1390 C 0.31902 0.86936 0.00332 0.0
C1391 C 0.32195 0.81729 0.99612 0.0
C1392 C 0.328 0.92642 0.98276 0.0
C1393 C 0.32815 0.91274 0.98813 0.0
C1394 C 0.32988 0.87459 0.97667 0.0
C1395 C 0.3247 0.84331 1.00061 0.0
C1396 C 0.32463 0.85803 0.99521 0.0
C1397 C 0.32388 0.90044 0.97917 0.0
C1398 C 0.32424 0.88588 0.98477 0.0
H1399 H 0.32997 0.82636 0.03172 0.0
H1400 H 0.33009 0.85046 0.02292 0.0
H1401 H 0.33479 0.85247 0.97544 0.0
H1402 H 0.31523 0.91668 0.94837 0.0
H1403 H 0.31576 0.89284 0.95769 0.0
C1404 C 0.68093 0.28767 0.38222 0.0
C1405 C 0.67992 0.27753 0.39276 0.0
C1406 C 0.67808 0.30202 0.3854 0.0
C1407 C 0.67807 0.32831 0.4163 0.0
H1408 H 0.65807 0.35158 0.38937 0.0
C1409 C 0.66517 0.38627 0.43232 0.0
C1410 C 0.66752 0.39671 0.42227 0.0
C1411 C 0.66548 0.37166 0.42831 0.0
C1412 C 0.66379 0.34525 0.39695 0.0
H1413 H 0.67456 0.27441 0.41474 0.0
H1414 H 0.66946 0.29939 0.42023 0.0
H1415 H 0.66055 0.32607 0.38307 0.0
H1416 H 0.67162 0.39986 0.39997 0.0
H1417 H 0.6725 0.3743 0.39306 0.0
H1418 H 0.68151 0.34741 0.4301 0.0
C1419 C 0.67269 0.2963 0.40958 0.0
C1420 C 0.66519 0.33064 0.39335 0.0
C1421 C 0.67553 0.28196 0.4064 0.0
C1422 C 0.66992 0.39212 0.40802 0.0
C1423 C 0.67026 0.37746 0.40402 0.0
C1424 C 0.67669 0.34287 0.41988 0.0
C1425 C 0.67418 0.30655 0.3992 0.0
C1426 C 0.67234 0.322 0.403 0.0
C1427 C 0.66824 0.36707 0.41418 0.0
C1428 C 0.66952 0.35153 0.41027 0.0
H1429 H 0.68429 0.28461 0.37161 0.0
H1430 H 0.67943 0.30967 0.3772 0.0
H1431 H 0.6839 0.32205 0.42386 0.0
H1432 H 0.66348 0.38939 0.44343 0.0
H1433 H 0.66367 0.36394 0.43636 0.0
C1434 C 0.73063 0.70746 0.01702 0.0
C1435 C 0.72919 0.71156 0.00277 0.0
C1436 C 0.73495 0.69379 0.01998 0.0
C1437 C 0.73575 0.6571 0.00341 0.0
H1438 H 0.76119 0.6515 0.03673 0.0
C1439 C 0.75395 0.60089 0.01751 0.0
C1440 C 0.75378 0.59786 0.0321 0.0
C1441 C 0.75205 0.61485 0.01327 0.0
C1442 C 0.75399 0.65288 0.02744 0.0
H1443 H 0.73145 0.70459 0.98046 0.0
H1444 H 0.73908 0.68073 0.98567 0.0
H1445 H 0.75611 0.67582 0.03055 0.0
H1446 H 0.75113 0.60709 0.0536 0.0
H1447 H 0.74788 0.63132 0.04623 0.0
H1448 H 0.73347 0.63414 1.00042 0.0
C1449 C 0.73671 0.68806 0.99453 0.0
C1450 C 0.75108 0.66681 0.0239 0.0
C1451 C 0.73242 0.70176 0.99156 0.0
C1452 C 0.75164 0.60909 0.04232 0.0
C1453 C 0.74977 0.623 0.03808 0.0
C1454 C 0.73866 0.64315 0.00695 0.0
C1455 C 0.73791 0.68387 0.00877 0.0
C1456 C 0.74178 0.66909 0.01195 0.0
C1457 C 0.74995 0.62606 0.02352 0.0
C1458 C 0.74765 0.64087 0.01913 0.0
H1459 H 0.7282 0.71474 0.0259 0.0
H1460 H 0.73558 0.69085 0.03106 0.0
H1461 H 0.72839 0.65847 0.99423 0.0
H1462 H 0.75571 0.59251 0.00939 0.0
H1463 H 0.75238 0.61688 0.00197 0.0
C1464 C 0.56904 0.28072 0.21188 0.0
C1465 C 0.58118 0.28833 0.21883 0.0
C1466 C 0.56887 0.27648 0.19725 0.0
C1467 C 0.58469 0.28652 0.16401 0.0
H1468 H 0.56886 0.249 0.14889 0.0
C1469 C 0.58174 0.27074 0.10311 0.0
C1470 C 0.56897 0.26328 0.09737 0.0
C1471 C 0.58464 0.27263 0.118 0.0
C1472 C 0.5732 0.25958 0.15292 0.0
H1473 H 0.60277 0.29724 0.21591 0.0
H1474 H 0.6024 0.28993 0.19032 0.0
H1475 H 0.57116 0.25447 0.17485 0.0
H1476 H 0.54955 0.25139 0.10287 0.0
H1477 H 0.55432 0.25512 0.12872 0.0
H1478 H 0.5863 0.29186 0.14216 0.0
C1479 C 0.59302 0.28728 0.19622 0.0
C1480 C 0.57455 0.26268 0.16779 0.0
C1481 C 0.59324 0.29139 0.21088 0.0
C1482 C 0.55938 0.25742 0.1069 0.0
C1483 C 0.56222 0.25938 0.12176 0.0
C1484 C 0.58323 0.28347 0.14914 0.0
C1485 C 0.58078 0.27988 0.18922 0.0
C1486 C 0.58018 0.27623 0.17349 0.0
C1487 C 0.57482 0.26715 0.12753 0.0
C1488 C 0.57732 0.27001 0.14338 0.0
H1489 H 0.55957 0.27818 0.2177 0.0
H1490 H 0.55924 0.27091 0.19213 0.0
H1491 H 0.5889 0.29713 0.16808 0.0
H1492 H 0.58934 0.27549 0.09611 0.0
H1493 H 0.59455 0.27849 0.12205 0.0
C1494 C 0.9992 0.32855 0.81533 0.0
C1495 C 0.01361 0.32588 0.81297 0.0
C1496 C 0.99438 0.32909 0.82926 0.0
C1497 C 0.00264 0.31667 0.86536 0.0
H1498 H 0.97755 0.34617 0.87768 0.0
C1499 C 0.98613 0.32319 0.92396 0.0
C1500 C 0.97175 0.32619 0.92607 0.0
C1501 C 0.99154 0.32367 0.91031 0.0
C1502 C 0.98442 0.33777 0.87436 0.0
H1503 H 0.03426 0.32176 0.82339 0.0
H1504 H 0.02583 0.32269 0.84769 0.0
H1505 H 0.98636 0.346 0.85355 0.0
H1506 H 0.95188 0.33235 0.91547 0.0
H1507 H 0.96118 0.33277 0.89163 0.0
H1508 H 1.00056 0.30829 0.88605 0.0
C1509 C 0.01825 0.32427 0.83875 0.0
C1510 C 0.98948 0.33768 0.86054 0.0
C1511 C 0.02309 0.32381 0.82484 0.0
C1512 C 0.96295 0.3298 0.91421 0.0
C1513 C 0.96835 0.33023 0.90056 0.0
C1514 C 0.99753 0.31671 0.87915 0.0
C1515 C 0.00383 0.32688 0.84112 0.0
C1516 C 0.99862 0.32712 0.85587 0.0
C1517 C 0.9827 0.32711 0.89842 0.0
C1518 C 0.98833 0.32724 0.88382 0.0
H1519 H 0.99162 0.33018 0.80642 0.0
H1520 H 0.98318 0.33097 0.83072 0.0
H1521 H 0.0095 0.30826 0.862 0.0
H1522 H 0.99317 0.32024 0.93281 0.0
H1523 H 0.00269 0.32138 0.9091 0.0
C1524 C 0.39808 0.67044 0.28179 0.0
C1525 C 0.38561 0.67772 0.27859 0.0
C1526 C 0.40176 0.66714 0.2959 0.0
C1527 C 0.38776 0.66529 0.33248 0.0
H1528 H 0.4282 0.67178 0.34474 0.0
C1529 C 0.40945 0.67276 0.39219 0.0
C1530 C 0.42244 0.66654 0.39595 0.0
C1531 C 0.40409 0.67225 0.37783 0.0
C1532 C 0.41689 0.66972 0.34145 0.0
H1533 H 0.36697 0.68686 0.28763 0.0
H1534 H 0.37356 0.68143 0.31229 0.0
H1535 H 0.42048 0.67425 0.31973 0.0
H1536 H 0.43947 0.65409 0.38767 0.0
H1537 H 0.4302 0.65333 0.36266 0.0
H1538 H 0.38422 0.6612 0.35444 0.0
C1539 C 0.38039 0.67802 0.30388 0.0
C1540 C 0.41245 0.6711 0.32708 0.0
C1541 C 0.37665 0.68121 0.28973 0.0
C1542 C 0.42961 0.65928 0.38511 0.0
C1543 C 0.4243 0.65881 0.37078 0.0
C1544 C 0.39221 0.66401 0.34692 0.0
C1545 C 0.39313 0.67116 0.30719 0.0
C1546 C 0.39782 0.66896 0.3224 0.0
C1547 C 0.41163 0.66553 0.36694 0.0
C1548 C 0.40682 0.66626 0.35156 0.0
H1549 H 0.40515 0.66748 0.27342 0.0
H1550 H 0.41148 0.66157 0.29799 0.0
H1551 H 0.37643 0.66337 0.32923 0.0
H1552 H 0.40373 0.67855 0.40024 0.0
H1553 H 0.39436 0.67762 0.37519 0.0
C1554 C 0.00857 0.73104 0.70923 0.0
C1555 C 0.99553 0.72324 0.71105 0.0
C1556 C 0.01184 0.73556 0.6957 0.0
C1557 C 0.99577 0.74005 0.65871 0.0
H1558 H 0.03543 0.73787 0.64861 0.0
C1559 C 0.01467 0.7408 0.60036 0.0
C1560 C 0.02739 0.74916 0.59842 0.0
C1561 C 0.00997 0.73903 0.61418 0.0
C1562 C 0.02433 0.73868 0.65133 0.0
H1563 H 0.97559 0.71422 0.70015 0.0
H1564 H 0.98148 0.72165 0.67647 0.0
H1565 H 0.02888 0.73207 0.67255 0.0
H1566 H 0.0446 0.76295 0.60947 0.0
H1567 H 0.03657 0.75957 0.63351 0.0
H1568 H 0.99126 0.74619 0.63716 0.0
C1569 C 0.98906 0.72462 0.68553 0.0
C1570 C 0.02056 0.73542 0.66509 0.0
C1571 C 0.98571 0.72028 0.6991 0.0
C1572 C 0.03497 0.75614 0.61057 0.0
C1573 C 0.03035 0.75426 0.62435 0.0
C1574 C 0.99953 0.74315 0.64485 0.0
C1575 C 0.00225 0.73219 0.6836 0.0
C1576 C 0.00623 0.73606 0.66899 0.0
C1577 C 0.01795 0.7455 0.62632 0.0
C1578 C 0.01386 0.74251 0.64104 0.0
H1579 H 0.0163 0.73361 0.71825 0.0
H1580 H 0.02195 0.74164 0.69473 0.0
H1581 H 0.98467 0.74088 0.66136 0.0
H1582 H 0.00863 0.73516 0.59128 0.0
H1583 H 1.00042 0.73214 0.6154 0.0
C1584 C 0.80485 0.40076 0.72184 0.0
C1585 C 0.79821 0.38944 0.7128 0.0
C1586 C 0.81985 0.40248 0.72368 0.0
C1587 C 0.8534 0.38352 0.7182 0.0
H1588 H 0.87085 0.42234 0.71951 0.0
C1589 C 0.91392 0.39696 0.71051 0.0
C1590 C 0.92089 0.40819 0.71947 0.0
C1591 C 0.89906 0.39394 0.71081 0.0
C1592 C 0.86614 0.41144 0.71934 0.0
H1593 H 0.80213 0.37096 0.6987 0.0
H1594 H 0.82828 0.37416 0.70161 0.0
H1595 H 0.84474 0.41855 0.71784 0.0
H1596 H 0.91776 0.42454 0.73632 0.0
H1597 H 0.89184 0.41939 0.73667 0.0
H1598 H 0.87493 0.37647 0.71932 0.0
C1599 C 0.82192 0.38156 0.70753 0.0
C1600 C 0.85116 0.40926 0.71841 0.0
C1601 C 0.80691 0.37977 0.70578 0.0
C1602 C 0.9127 0.41603 0.72904 0.0
C1603 C 0.89786 0.41307 0.72928 0.0
C1604 C 0.86842 0.38572 0.71901 0.0
C1605 C 0.82859 0.393 0.71643 0.0
C1606 C 0.84458 0.39527 0.7178 0.0
C1607 C 0.89085 0.40213 0.72003 0.0
C1608 C 0.87494 0.39971 0.71957 0.0
H1609 H 0.79845 0.40834 0.72748 0.0
H1610 H 0.8246 0.41126 0.73082 0.0
H1611 H 0.84872 0.37262 0.71798 0.0
H1612 H 0.91985 0.39082 0.70289 0.0
H1613 H 0.89393 0.38553 0.70347 0.0
C1614 C 0.69664 0.62223 0.32616 0.0
C1615 C 0.70251 0.63433 0.31975 0.0
C1616 C 0.68174 0.62004 0.32692 0.0
C1617 C 0.64755 0.62954 0.30916 0.0
H1618 H 0.63089 0.61326 0.34222 0.0
C1619 C 0.58615 0.61817 0.3114 0.0
C1620 C 0.58179 0.60466 0.31617 0.0
C1621 C 0.60059 0.62328 0.31312 0.0
C1622 C 0.63539 0.61775 0.33288 0.0
H1623 H 0.69734 0.65381 0.30944 0.0
H1624 H 0.67134 0.65003 0.31087 0.0
H1625 H 0.65674 0.61948 0.34288 0.0
H1626 H 0.58923 0.58602 0.32662 0.0
H1627 H 0.61432 0.59494 0.32966 0.0
H1628 H 0.62627 0.62758 0.29906 0.0
C1629 C 0.67826 0.64214 0.31514 0.0
C1630 C 0.6502 0.6213 0.33326 0.0
C1631 C 0.69316 0.64434 0.31438 0.0
C1632 C 0.59215 0.59657 0.32304 0.0
C1633 C 0.60656 0.60169 0.32478 0.0
C1634 C 0.63275 0.62599 0.30879 0.0
C1635 C 0.67236 0.62989 0.32129 0.0
C1636 C 0.65648 0.62706 0.32133 0.0
C1637 C 0.61099 0.61502 0.31968 0.0
C1638 C 0.62652 0.61987 0.32057 0.0
H1639 H 0.70353 0.6143 0.33039 0.0
H1640 H 0.67755 0.61039 0.33156 0.0
H1641 H 0.65206 0.63377 0.29971 0.0
H1642 H 0.57841 0.62476 0.30625 0.0
H1643 H 0.60363 0.63369 0.30926 0.0
C1644 C 0.30999 0.02347 0.26104 0.0
C1645 C 0.30808 0.03817 0.26385 0.0
C1646 C 0.32364 0.01868 0.25867 0.0
C1647 C 0.36245 0.02915 0.265 0.0
H1648 H 0.36643 0.99818 0.23624 0.0
C1649 C 0.41785 0.00869 0.25044 0.0
C1650 C 0.41859 0.99366 0.24909 0.0
C1651 C 0.40457 0.01482 0.2517 0.0
C1652 C 0.36548 0.00678 0.24437 0.0
H1653 H 0.31903 0.0594 0.26628 0.0
H1654 H 0.34285 0.05104 0.26196 0.0
H1655 H 0.34287 0.0076 0.23934 0.0
H1656 H 0.40596 0.97332 0.24844 0.0
H1657 H 0.38291 0.984 0.25046 0.0
H1658 H 0.38511 0.02824 0.27004 0.0
C1659 C 0.3338 0.0432 0.26179 0.0
C1660 C 0.35198 0.01216 0.24617 0.0
C1661 C 0.32014 0.04799 0.26418 0.0
C1662 C 0.40577 0.98494 0.24911 0.0
C1663 C 0.39254 0.99105 0.25029 0.0
C1664 C 0.37599 0.02378 0.26317 0.0
C1665 C 0.33572 0.02848 0.25901 0.0
C1666 C 0.35025 0.02328 0.25663 0.0
C1667 C 0.39177 0.00606 0.25158 0.0
C1668 C 0.37761 0.01241 0.25296 0.0
H1669 H 0.30095 0.01561 0.26077 0.0
H1670 H 0.32476 0.00725 0.2568 0.0
H1671 H 0.36148 0.03761 0.27327 0.0
H1672 H 0.4275 0.01571 0.25034 0.0
H1673 H 0.40429 0.02643 0.25257 0.0
C1674 C 0.19108 0.00821 0.67248 0.0
C1675 C 0.1938 0.99371 0.67412 0.0
C1676 C 0.17698 0.01265 0.67222 0.0
C1677 C 0.14075 0.00255 0.68345 0.0
H1678 H 0.12823 0.02889 0.65524 0.0
C1679 C 0.08154 0.01766 0.67665 0.0
C1680 C 0.07909 0.03209 0.67427 0.0
C1681 C 0.09541 0.01269 0.67626 0.0
C1682 C 0.13159 0.02166 0.6633 0.0
H1683 H 0.18386 0.97252 0.67681 0.0
H1684 H 0.15927 0.9803 0.67637 0.0
H1685 H 0.1527 0.02087 0.65542 0.0
H1686 H 0.08934 0.05253 0.6693 0.0
H1687 H 0.11353 0.044 0.66903 0.0
H1688 H 0.11974 0.00348 0.69148 0.0
C1689 C 0.16805 0.98823 0.67536 0.0
C1690 C 0.14562 0.01706 0.66338 0.0
C1691 C 0.18213 0.98377 0.67554 0.0
C1692 C 0.09085 0.0414 0.67137 0.0
C1693 C 0.10471 0.03645 0.67103 0.0
C1694 C 0.12675 0.00722 0.68342 0.0
C1695 C 0.16532 0.00272 0.67367 0.0
C1696 C 0.15036 0.00747 0.67348 0.0
C1697 C 0.10718 0.02204 0.6735 0.0
C1698 C 0.122 0.01686 0.67336 0.0
H1699 H 0.19982 0.01615 0.67138 0.0
H1700 H 0.17524 0.02392 0.67106 0.0
H1701 H 0.14415 0.99531 0.69148 0.0
H1702 H 0.07278 0.01022 0.67906 0.0
H1703 H 0.09688 0.00149 0.67804 0.0
C1704 C 0.70963 0.8143 0.39248 0.0
C1705 C 0.71658 0.80457 0.40106 0.0
C1706 C 0.71209 0.82912 0.3954 0.0
C1707 C 0.72538 0.85598 0.42462 0.0
H1708 H 0.72657 0.88193 0.39361 0.0
C1709 C 0.7395 0.91677 0.43506 0.0
C1710 C 0.73025 0.92593 0.42809 0.0
C1711 C 0.7388 0.90205 0.4312 0.0
C1712 C 0.72619 0.87481 0.40238 0.0
H1713 H 0.73181 0.80277 0.41926 0.0
H1714 H 0.73634 0.8286 0.42415 0.0
H1715 H 0.72364 0.85602 0.388 0.0
H1716 H 0.71317 0.92674 0.41137 0.0
H1717 H 0.71213 0.90108 0.40451 0.0
H1718 H 0.728 0.87479 0.43898 0.0
C1719 C 0.72874 0.82481 0.41536 0.0
C1720 C 0.72447 0.85996 0.39917 0.0
C1721 C 0.7262 0.80998 0.4125 0.0
C1722 C 0.72059 0.92006 0.41685 0.0
C1723 C 0.71996 0.90534 0.41293 0.0
C1724 C 0.72721 0.87081 0.42781 0.0
C1725 C 0.72164 0.83457 0.4069 0.0
C1726 C 0.72395 0.85036 0.41026 0.0
C1727 C 0.72891 0.89615 0.42021 0.0
C1728 C 0.72754 0.88039 0.41673 0.0
H1729 H 0.70211 0.81047 0.38362 0.0
H1730 H 0.70626 0.8363 0.3888 0.0
H1731 H 0.72477 0.84896 0.43344 0.0
H1732 H 0.74727 0.92096 0.44356 0.0
H1733 H 0.74599 0.89526 0.43685 0.0
C1734 C 0.67453 0.18251 0.99202 0.0
C1735 C 0.67719 0.19369 0.00276 0.0
C1736 C 0.67486 0.16814 0.99549 0.0
C1737 C 0.67325 0.14472 0.0263 0.0
H1738 H 0.69159 0.11785 0.00102 0.0
C1739 C 0.68976 0.08945 0.04378 0.0
C1740 C 0.68719 0.07756 0.03382 0.0
C1741 C 0.68769 0.10337 0.03965 0.0
C1742 C 0.68627 0.12518 0.00809 0.0
H1743 H 0.68223 0.19854 0.02557 0.0
H1744 H 0.68304 0.17354 0.03157 0.0
H1745 H 0.68952 0.14261 0.99447 0.0
H1746 H 0.68026 0.07105 0.01168 0.0
H1747 H 0.6768 0.09543 0.00444 0.0
H1748 H 0.67024 0.12733 0.04004 0.0
C1749 C 0.68046 0.17583 0.0205 0.0
C1750 C 0.68507 0.13937 0.00434 0.0
C1751 C 0.68008 0.19018 0.01705 0.0
C1752 C 0.68253 0.07997 0.01959 0.0
C1753 C 0.68052 0.09393 0.01544 0.0
C1754 C 0.67451 0.13055 0.03007 0.0
C1755 C 0.67789 0.16462 0.00977 0.0
C1756 C 0.67864 0.14936 0.01345 0.0
C1757 C 0.68307 0.10578 0.02544 0.0
C1758 C 0.68114 0.12065 0.02108 0.0
H1759 H 0.67221 0.18484 0.98092 0.0
H1760 H 0.67264 0.15978 0.98699 0.0
H1761 H 0.66799 0.15204 0.03343 0.0
H1762 H 0.69365 0.08805 0.05474 0.0
H1763 H 0.68999 0.1123 0.04754 0.0
C1764 C 0.32877 0.69627 0.64693 0.0
C1765 C 0.32913 0.70587 0.63587 0.0
C1766 C 0.33125 0.68176 0.64415 0.0
C1767 C 0.34494 0.6561 0.61669 0.0
H1768 H 0.31997 0.62834 0.63421 0.0
C1769 C 0.34671 0.59531 0.60236 0.0
C1770 C 0.33331 0.58755 0.6003 0.0
C1771 C 0.3477 0.6093 0.60872 0.0
C1772 C 0.32699 0.63594 0.62916 0.0
H1773 H 0.33267 0.70783 0.61327 0.0
H1774 H 0.33657 0.68255 0.60831 0.0
H1775 H 0.31907 0.65378 0.64103 0.0
H1776 H 0.31048 0.58827 0.60342 0.0
H1777 H 0.31211 0.6127 0.61418 0.0
H1778 H 0.35222 0.63834 0.60418 0.0
C1779 C 0.33471 0.68622 0.61923 0.0
C1780 C 0.32663 0.65055 0.63324 0.0
C1781 C 0.33237 0.70073 0.62205 0.0
C1782 C 0.32098 0.59391 0.60505 0.0
C1783 C 0.32195 0.60793 0.61127 0.0
C1784 C 0.34519 0.6415 0.6125 0.0
C1785 C 0.33402 0.6765 0.6302 0.0
C1786 C 0.33542 0.66085 0.62687 0.0
C1787 C 0.33529 0.61589 0.61302 0.0
C1788 C 0.33604 0.63124 0.6185 0.0
H1789 H 0.32641 0.69993 0.65773 0.0
H1790 H 0.33089 0.67466 0.65292 0.0
H1791 H 0.35206 0.66368 0.61174 0.0
H1792 H 0.3564 0.5906 0.59892 0.0
H1793 H 0.35819 0.61499 0.61013 0.0
C1794 C 0.25757 0.31408 0.02373 0.0
C1795 C 0.26663 0.31338 0.0362 0.0
C1796 C 0.2539 0.32736 0.01886 0.0
C1797 C 0.25374 0.3663 0.03009 0.0
H1798 H 0.25249 0.37062 0.98895 0.0
C1799 C 0.25421 0.42134 0.00406 0.0
C1800 C 0.24516 0.42228 0.9916 0.0
C1801 C 0.25562 0.40815 0.01027 0.0
C1802 C 0.25262 0.36954 1.00046 0.0
H1803 H 0.27885 0.32608 0.05343 0.0
H1804 H 0.27277 0.34924 0.04476 0.0
H1805 H 0.25738 0.34743 0.99821 0.0
H1806 H 0.22984 0.41024 0.97641 0.0
H1807 H 0.23247 0.38724 0.98713 0.0
H1808 H 0.24935 0.38861 0.03225 0.0
C1809 C 0.26823 0.33954 0.03888 0.0
C1810 C 0.2554 0.35623 0.00578 0.0
C1811 C 0.2718 0.32625 0.04381 0.0
C1812 C 0.23716 0.40984 0.98581 0.0
C1813 C 0.23863 0.39667 0.99196 0.0
C1814 C 0.25108 0.37967 0.02475 0.0
C1815 C 0.25931 0.34027 0.02628 0.0
C1816 C 0.25601 0.35442 0.02067 0.0
C1817 C 0.24806 0.39563 0.00411 0.0
C1818 C 0.2505 0.38142 0.00988 0.0
H1819 H 0.25332 0.30436 0.01768 0.0
H1820 H 0.24679 0.32749 0.00928 0.0
H1821 H 0.25392 0.36526 0.0416 0.0
H1822 H 0.26065 0.43067 0.00871 0.0
H1823 H 0.26305 0.40766 0.01957 0.0
C1824 C 0.40539 0.71794 0.80591 0.0
C1825 C 0.39209 0.71245 0.79939 0.0
C1826 C 0.40744 0.71961 0.82088 0.0
C1827 C 0.38817 0.72276 0.85428 0.0
H1828 H 0.42368 0.71025 0.87186 0.0
C1829 C 0.3979 0.71862 0.91589 0.0
C1830 C 0.41181 0.72267 0.92196 0.0
C1831 C 0.39509 0.71786 0.90095 0.0
C1832 C 0.41379 0.71398 0.86713 0.0
H1833 H 0.37041 0.70462 0.80349 0.0
H1834 H 0.37403 0.70751 0.82965 0.0
H1835 H 0.41957 0.70817 0.84581 0.0
H1836 H 0.43365 0.72913 0.91701 0.0
H1837 H 0.42865 0.72826 0.89114 0.0
H1838 H 0.38241 0.72864 0.87565 0.0
C1839 C 0.38284 0.7106 0.82316 0.0
C1840 C 0.41143 0.71277 0.85219 0.0
C1841 C 0.3808 0.70887 0.80817 0.0
C1842 C 0.42276 0.72617 0.91276 0.0
C1843 C 0.41994 0.72545 0.89787 0.0
C1844 C 0.39055 0.72404 0.86926 0.0
C1845 C 0.39622 0.71587 0.82967 0.0
C1846 C 0.39862 0.71718 0.84559 0.0
C1847 C 0.40613 0.72112 0.89176 0.0
C1848 C 0.40342 0.7197 0.87586 0.0
H1849 H 0.41429 0.72085 0.79946 0.0
H1850 H 0.41782 0.72388 0.82557 0.0
H1851 H 0.37824 0.72638 0.84949 0.0
H1852 H 0.38919 0.71598 0.92267 0.0
H1853 H 0.38435 0.71439 0.8966 0.0
C1854 C 0.99181 0.67365 0.18317 0.0
C1855 C 0.00236 0.67661 0.1945 0.0
C1856 C 0.99533 0.67476 0.16888 0.0
C1857 C 0.0219 0.6924 0.14691 0.0
H1858 H 0.00809 0.66323 0.11729 0.0
C1859 C 0.04343 0.69112 0.0903 0.0
C1860 C 0.03368 0.68741 0.07843 0.0
C1861 C 0.03923 0.68976 0.10431 0.0
C1862 C 0.01187 0.67157 0.12539 0.0
H1863 H 0.02492 0.68291 0.1997 0.0
H1864 H 0.03104 0.68483 0.17479 0.0
H1865 H 1.00146 0.66083 0.14203 0.0
H1866 H 0.01184 0.67927 0.07204 0.0
H1867 H 0.00439 0.67724 0.09654 0.0
H1868 H 0.03222 0.70322 0.13035 0.0
C1869 C 0.02002 0.68177 0.17696 0.0
C1870 C 0.00809 0.67017 0.13957 0.0
C1871 C 0.01653 0.68058 0.19123 0.0
C1872 C 0.01959 0.68235 0.08093 0.0
C1873 C 0.01537 0.68102 0.09498 0.0
C1874 C 0.02561 0.69383 0.13275 0.0
C1875 C 0.00945 0.67894 0.16563 0.0
C1876 C 0.01316 0.68052 0.1505 0.0
C1877 C 0.02515 0.68473 0.10685 0.0
C1878 C 0.02075 0.68338 0.12183 0.0
H1879 H 0.98079 0.67056 0.18533 0.0
H1880 H 0.98693 0.67262 0.16039 0.0
H1881 H 0.02576 0.70069 0.15505 0.0
H1882 H 0.05431 0.69526 0.08881 0.0
H1883 H 0.04711 0.69253 0.11317 0.0
C1884 C 0.6374 0.31182 0.6927 0.0
C1885 C 0.6335 0.32001 0.70483 0.0
C1886 C 0.63061 0.31337 0.67917 0.0
C1887 C 0.59643 0.32493 0.66315 0.0
H1888 H 0.61511 0.31942 0.62731 0.0
C1889 C 0.5637 0.3105 0.61002 0.0
C1890 C 0.56789 0.31702 0.59758 0.0
C1891 C 0.5725 0.31202 0.62267 0.0
C1892 C 0.60977 0.32114 0.63722 0.0
H1893 H 0.62005 0.33685 0.71213 0.0
H1894 H 0.60844 0.33979 0.68849 0.0
H1895 H 0.62954 0.32105 0.65012 0.0
H1896 H 0.58475 0.33005 0.5886 0.0
H1897 H 0.60019 0.3328 0.61086 0.0
H1898 H 0.5767 0.32516 0.65033 0.0
C1899 C 0.61647 0.33189 0.68947 0.0
C1900 C 0.61801 0.32193 0.6503 0.0
C1901 C 0.62318 0.33027 0.70302 0.0
C1902 C 0.58127 0.32485 0.598 0.0
C1903 C 0.5901 0.32642 0.61074 0.0
C1904 C 0.58822 0.32419 0.65011 0.0
C1905 C 0.61983 0.32321 0.67744 0.0
C1906 C 0.6114 0.32362 0.66344 0.0
C1907 C 0.58571 0.32014 0.62327 0.0
C1908 C 0.59474 0.32202 0.637 0.0
H1909 H 0.64531 0.30381 0.69373 0.0
H1910 H 0.63338 0.30639 0.67019 0.0
H1911 H 0.59092 0.32607 0.67302 0.0
H1912 H 0.5536 0.30412 0.60995 0.0
H1913 H 0.56895 0.30672 0.632 0.0
C1914 C 0.04856 0.26713 0.32324 0.0
C1915 C 0.03897 0.26614 0.31098 0.0
C1916 C 0.04363 0.26434 0.33675 0.0
C1917 C 0.01071 0.26398 0.35667 0.0
H1918 H 0.0318 0.24102 0.38307 0.0
C1919 C 0.98636 0.2453 0.4081 0.0
C1920 C 0.99538 0.24555 0.42074 0.0
C1921 C 0.99208 0.24764 0.39488 0.0
C1922 C 0.02588 0.2476 0.37589 0.0
H1923 H 0.01671 0.26125 0.30325 0.0
H1924 H 0.00814 0.25639 0.3268 0.0
H1925 H 0.04108 0.24535 0.35962 0.0
H1926 H 0.01758 0.24832 0.42929 0.0
H1927 H 0.02755 0.25278 0.4062 0.0
H1928 H 0.99559 0.26639 0.37288 0.0
C1929 C 0.01944 0.25944 0.32599 0.0
C1930 C 0.03119 0.25006 0.36246 0.0
C1931 C 0.02438 0.26215 0.31249 0.0
C1932 C 0.01031 0.24817 0.41979 0.0
C1933 C 0.01604 0.25056 0.40653 0.0
C1934 C 0.00545 0.26159 0.37009 0.0
C1935 C 0.02899 0.2606 0.33828 0.0
C1936 C 0.02359 0.25818 0.35266 0.0
C1937 C 0.00697 0.25041 0.39393 0.0
C1938 C 0.0129 0.25328 0.37983 0.0
H1939 H 0.05986 0.27018 0.32245 0.0
H1940 H 0.05121 0.26543 0.34604 0.0
H1941 H 0.00475 0.27051 0.34946 0.0
H1942 H 0.97479 0.24355 0.40843 0.0
H1943 H 0.98479 0.24724 0.38538 0.0
C1944 C 0.2677 0.57531 0.35368 0.0
C1945 C 0.26903 0.58946 0.34929 0.0
C1946 C 0.26854 0.57263 0.36828 0.0
C1947 C 0.28317 0.58962 0.40324 0.0
H1948 H 0.26234 0.55736 0.41865 0.0
C1949 C 0.28806 0.5787 0.46342 0.0
C1950 C 0.29066 0.56448 0.46661 0.0
C1951 C 0.28393 0.58199 0.44942 0.0
C1952 C 0.26826 0.56637 0.41446 0.0
H1953 H 0.27148 0.61194 0.35681 0.0
H1954 H 0.27254 0.6073 0.38227 0.0
H1955 H 0.25725 0.56295 0.39367 0.0
H1956 H 0.29073 0.54255 0.45752 0.0
H1957 H 0.2833 0.5483 0.43311 0.0
H1958 H 0.29416 0.59304 0.42403 0.0
C1959 C 0.27127 0.59823 0.37444 0.0
C1960 C 0.26538 0.56957 0.40015 0.0
C1961 C 0.27056 0.6009 0.35983 0.0
C1962 C 0.28865 0.55358 0.4555 0.0
C1963 C 0.28441 0.55686 0.44151 0.0
C1964 C 0.28595 0.5865 0.41755 0.0
C1965 C 0.27061 0.58405 0.37885 0.0
C1966 C 0.2729 0.58115 0.39432 0.0
C1967 C 0.28218 0.57113 0.43829 0.0
C1968 C 0.27863 0.57477 0.42328 0.0
H1969 H 0.26655 0.56624 0.34583 0.0
H1970 H 0.26815 0.56157 0.37124 0.0
H1971 H 0.2894 0.59843 0.39907 0.0
H1972 H 0.28919 0.58732 0.47176 0.0
H1973 H 0.28208 0.59305 0.44729 0.0
C1974 C 0.23982 0.3832 0.75164 0.0
C1975 C 0.23965 0.39222 0.74007 0.0
C1976 C 0.24132 0.38903 0.76581 0.0
C1977 C 0.25163 0.4226 0.78833 0.0
H1978 H 0.22683 0.40481 0.81512 0.0
C1979 C 0.22865 0.43447 0.84824 0.0
C1980 C 0.24142 0.43954 0.85608 0.0
C1981 C 0.22894 0.42922 0.83395 0.0
C1982 C 0.23373 0.41 0.80776 0.0
H1983 H 0.24141 0.41444 0.73434 0.0
H1984 H 0.24375 0.4246 0.75905 0.0
H1985 H 0.22684 0.3946 0.79058 0.0
H1986 H 0.26452 0.44325 0.85505 0.0
H1987 H 0.26508 0.43394 0.83012 0.0
H1988 H 0.25816 0.43829 0.80546 0.0
C1989 C 0.24293 0.41301 0.75718 0.0
C1990 C 0.23391 0.404 0.79372 0.0
C1991 C 0.24152 0.40718 0.743 0.0
C1992 C 0.25447 0.43956 0.84923 0.0
C1993 C 0.25479 0.43422 0.83494 0.0
C1994 C 0.25141 0.42864 0.80239 0.0
C1995 C 0.24259 0.40401 0.76876 0.0
C1996 C 0.24284 0.41022 0.78382 0.0
C1997 C 0.24204 0.42883 0.82719 0.0
C1998 C 0.24241 0.42244 0.81225 0.0
H1999 H 0.23854 0.37162 0.74976 0.0
H2000 H 0.24132 0.38177 0.77446 0.0
H2001 H 0.25873 0.42759 0.78102 0.0
H2002 H 0.2184 0.43455 0.85318 0.0
H2003 H 0.21888 0.42545 0.82821 0.0
C2004 C 0.74023 0.98597 0.67125 0.0
C2005 C 0.74903 0.97583 0.67717 0.0
C2006 C 0.7416 0.98976 0.65709 0.0
C2007 C 0.76509 0.98645 0.62602 0.0
H2008 H 0.7293 0.99125 0.60395 0.0
C2009 C 0.7582 0.98113 0.5638 0.0
C2010 C 0.74978 0.99109 0.55694 0.0
C2011 C 0.7595 0.98116 0.5788 0.0
C2012 C 0.73941 0.99014 0.61001 0.0
H2013 H 0.76598 0.96149 0.67292 0.0
H2014 H 0.7682 0.96782 0.64814 0.0
H2015 H 0.7289 0.98771 0.62953 0.0
H2016 H 0.73676 0.00938 0.56059 0.0
H2017 H 0.73875 0.00913 0.58677 0.0
H2018 H 0.77544 0.98826 0.60618 0.0
C2019 C 0.76058 0.97327 0.65451 0.0
C2020 C 0.73921 0.98816 0.62472 0.0
C2021 C 0.75933 0.96964 0.66874 0.0
C2022 C 0.74307 0.00135 0.56548 0.0
C2023 C 0.74425 0.00127 0.58048 0.0
C2024 C 0.76525 0.98826 0.61124 0.0
C2025 C 0.75159 0.98324 0.64843 0.0
C2026 C 0.75203 0.98619 0.63292 0.0
C2027 C 0.7523 0.99103 0.58728 0.0
C2028 C 0.7524 0.99003 0.60309 0.0
H2029 H 0.73223 0.99093 0.67755 0.0
H2030 H 0.73469 0.99769 0.65291 0.0
H2031 H 0.7752 0.98522 0.63202 0.0
H2032 H 0.76336 0.97294 0.55761 0.0
H2033 H 0.76565 0.97304 0.58376 0.0
C2034 C 0.73322 0.00828 0.27443 0.0
C2035 C 0.74257 0.01922 0.28128 0.0
C2036 C 0.72831 0.0091 0.26007 0.0
C2037 C 0.72381 0.03475 0.23161 0.0
H2038 H 0.72347 0.00073 0.20568 0.0
C2039 C 0.71791 0.03736 0.16999 0.0
C2040 C 0.70958 0.0263 0.16201 0.0
C2041 C 0.72102 0.03647 0.18473 0.0
C2042 C 0.7233 0.01028 0.21281 0.0
H2043 H 0.75439 0.03943 0.27846 0.0
H2044 H 0.74594 0.04084 0.25335 0.0
H2045 H 0.73053 0.99918 0.23109 0.0
H2046 H 0.69769 0.00581 0.16334 0.0
H2047 H 0.70308 0.00428 0.18911 0.0
H2048 H 0.71667 0.04588 0.21333 0.0
C2049 C 0.74215 0.03176 0.25913 0.0
C2050 C 0.72735 0.00939 0.22738 0.0
C2051 C 0.74708 0.03091 0.27347 0.0
C2052 C 0.70431 0.0144 0.16915 0.0
C2053 C 0.7074 0.01353 0.1839 0.0
C2054 C 0.71973 0.03563 0.21706 0.0
C2055 C 0.73271 0.02086 0.25226 0.0
C2056 C 0.72778 0.02165 0.23692 0.0
C2057 C 0.71586 0.02452 0.19185 0.0
C2058 C 0.71955 0.02344 0.20746 0.0
H2059 H 0.73 0.99889 0.28003 0.0
H2060 H 0.72105 1.00053 0.25509 0.0
H2061 H 0.7238 0.04434 0.23873 0.0
H2062 H 0.72233 0.04655 0.16478 0.0
H2063 H 0.72777 0.04501 0.19047 0.0
C2064 C 0.35497 0.2556 0.58727 0.0
C2065 C 0.35024 0.26561 0.5975 0.0
C2066 C 0.36592 0.25952 0.57836 0.0
C2067 C 0.39672 0.28577 0.57661 0.0
H2068 H 0.39523 0.27229 0.53642 0.0
C2069 C 0.44103 0.30308 0.53954 0.0
C2070 C 0.44619 0.29216 0.53056 0.0
C2071 C 0.42847 0.30062 0.54676 0.0
C2072 C 0.39585 0.27606 0.54765 0.0
H2073 H 0.35374 0.2874 0.6069 0.0
H2074 H 0.37252 0.29441 0.59108 0.0
H2075 H 0.37491 0.26654 0.55092 0.0
H2076 H 0.44201 0.27017 0.52188 0.0
H2077 H 0.4201 0.26585 0.53449 0.0
H2078 H 0.4177 0.29512 0.57343 0.0
C2079 C 0.36773 0.28353 0.58986 0.0
C2080 C 0.38421 0.27276 0.55596 0.0
C2081 C 0.35676 0.2796 0.59876 0.0
C2082 C 0.43824 0.27886 0.52859 0.0
C2083 C 0.42567 0.27639 0.53582 0.0
C2084 C 0.40834 0.28906 0.56831 0.0
C2085 C 0.37247 0.27352 0.5796 0.0
C2086 C 0.38455 0.2775 0.57056 0.0
C2087 C 0.42078 0.28717 0.54518 0.0
C2088 C 0.40809 0.28417 0.55375 0.0
H2089 H 0.35021 0.24469 0.58615 0.0
H2090 H 0.36948 0.25148 0.57074 0.0
H2091 H 0.39745 0.28938 0.58788 0.0
H2092 H 0.44678 0.31353 0.54109 0.0
H2093 H 0.42484 0.30924 0.55367 0.0
C2094 C 0.27384 0.7483 0.0358 0.0
C2095 C 0.2814 0.74482 0.0236 0.0
C2096 C 0.25958 0.74307 0.03667 0.0
C2097 C 0.22754 0.72936 0.0139 0.0
H2098 H 0.21387 0.7164 0.04975 0.0
C2099 C 0.16976 0.70476 0.01787 0.0
C2100 C 0.16242 0.70948 0.02985 0.0
C2101 C 0.18451 0.70812 0.01721 0.0
C2102 C 0.21751 0.72009 0.03969 0.0
H2103 H 0.2797 0.73379 0.00243 0.0
H2104 H 0.25501 0.72423 0.00415 0.0
H2105 H 0.23924 0.72401 0.04839 0.0
H2106 H 0.16487 0.72146 0.05056 0.0
H2107 H 0.19059 0.7273 0.04943 0.0
H2108 H 0.2058 0.72556 0.00523 0.0
C2109 C 0.26011 0.73094 0.01308 0.0
C2110 C 0.23203 0.72446 0.03891 0.0
C2111 C 0.27436 0.73618 0.01221 0.0
C2112 C 0.17023 0.71747 0.04126 0.0
C2113 C 0.18498 0.72082 0.04062 0.0
C2114 C 0.21302 0.72499 0.01467 0.0
C2115 C 0.25253 0.73436 0.02531 0.0
C2116 C 0.2372 0.72923 0.02603 0.0
C2117 C 0.19227 0.71628 0.02854 0.0
C2118 C 0.20782 0.72039 0.0276 0.0
H2119 H 0.27897 0.75507 0.04467 0.0
H2120 H 0.25397 0.74611 0.04614 0.0
H2121 H 0.23111 0.73319 0.00388 0.0
H2122 H 0.16411 0.69839 0.009 0.0
H2123 H 0.18986 0.70427 0.00786 0.0
C2124 C 0.74962 0.24265 0.40104 0.0
C2125 C 0.74511 0.23299 0.38932 0.0
C2126 C 0.76406 0.24396 0.40618 0.0
C2127 C 0.80093 0.23567 0.39656 0.0
H2128 H 0.80883 0.23685 0.43791 0.0
C2129 C 0.85675 0.22511 0.42204 0.0
C2130 C 0.8622 0.23429 0.43382 0.0
C2131 C 0.84248 0.22556 0.41674 0.0
C2132 C 0.80681 0.2367 0.42635 0.0
H2133 H 0.75236 0.21743 0.37354 0.0
H2134 H 0.77745 0.21959 0.38258 0.0
H2135 H 0.78403 0.23709 0.42805 0.0
H2136 H 0.85681 0.25104 0.44934 0.0
H2137 H 0.8318 0.25171 0.44014 0.0
H2138 H 0.82371 0.23506 0.39487 0.0
C2139 C 0.76987 0.22629 0.38772 0.0
C2140 C 0.7926 0.23687 0.42069 0.0
C2141 C 0.75545 0.225 0.38258 0.0
C2142 C 0.85292 0.2437 0.44037 0.0
C2143 C 0.8386 0.24412 0.43508 0.0
C2144 C 0.81513 0.23546 0.40222 0.0
C2145 C 0.77432 0.23563 0.39971 0.0
C2146 C 0.78948 0.23624 0.40573 0.0
C2147 C 0.83327 0.23515 0.42311 0.0
C2148 C 0.81821 0.23584 0.41716 0.0
H2149 H 0.74196 0.24903 0.40645 0.0
H2150 H 0.76718 0.25143 0.41528 0.0
H2151 H 0.79894 0.23543 0.385 0.0
H2152 H 0.86353 0.21754 0.41692 0.0
H2153 H 0.83861 0.21831 0.40768 0.0
C2154 C 0.65277 0.76012 0.97312 0.0
C2155 C 0.66201 0.75136 0.98063 0.0
C2156 C 0.63792 0.75684 0.97194 0.0
C2157 C 0.60919 0.73759 0.98992 0.0
H2158 H 0.58645 0.74309 0.95475 0.0
C2159 C 0.54778 0.72341 0.98339 0.0
C2160 C 0.53936 0.73325 0.97637 0.0
C2161 C 0.56281 0.72484 0.98362 0.0
C2162 C 0.59264 0.74163 0.96469 0.0
H2163 H 0.66289 0.73205 0.99249 0.0
H2164 H 0.63694 0.72629 0.99033 0.0
H2165 H 0.61262 0.74665 0.95532 0.0
H2166 H 0.54016 0.75249 0.96438 0.0
H2167 H 0.56636 0.755 0.9648 0.0
H2168 H 0.5892 0.73273 0.99934 0.0
C2169 C 0.6412 0.73579 0.98551 0.0
C2170 C 0.60763 0.74364 0.96501 0.0
C2171 C 0.65608 0.73905 0.98666 0.0
C2172 C 0.54632 0.74459 0.96967 0.0
C2173 C 0.56134 0.74602 0.9699 0.0
C2174 C 0.59419 0.73558 0.9896 0.0
C2175 C 0.63194 0.74474 0.97825 0.0
C2176 C 0.61607 0.74178 0.97767 0.0
C2177 C 0.56976 0.73614 0.97683 0.0
C2178 C 0.58574 0.73771 0.97702 0.0
H2179 H 0.65696 0.76969 0.96835 0.0
H2180 H 0.63108 0.76404 0.96642 0.0
H2181 H 0.61537 0.73627 0.9999 0.0
H2182 H 0.54274 0.71444 0.98849 0.0
H2183 H 0.56899 0.71696 0.98891 0.0
C2184 C 0.56979 0.35968 0.25885 0.0
C2185 C 0.5815 0.35562 0.26757 0.0
C2186 C 0.56681 0.37417 0.25824 0.0
C2187 C 0.5828 0.41123 0.26641 0.0
H2188 H 0.54319 0.42089 0.27024 0.0
C2189 C 0.56784 0.46822 0.28404 0.0
C2190 C 0.55559 0.47369 0.27732 0.0
C2191 C 0.57098 0.45391 0.28135 0.0
C2192 C 0.55427 0.41838 0.26894 0.0
H2193 H 0.59952 0.36365 0.28216 0.0
H2194 H 0.59428 0.38882 0.28116 0.0
H2195 H 0.54891 0.39571 0.26783 0.0
H2196 H 0.53711 0.4684 0.26237 0.0
H2197 H 0.54259 0.44332 0.2577 0.0
H2198 H 0.5882 0.43388 0.26777 0.0
C2199 C 0.58746 0.38085 0.27469 0.0
C2200 C 0.55755 0.40395 0.26755 0.0
C2201 C 0.59041 0.36639 0.27533 0.0
C2202 C 0.54653 0.46448 0.26785 0.0
C2203 C 0.54968 0.45012 0.26516 0.0
C2204 C 0.57953 0.42565 0.2678 0.0
C2205 C 0.57552 0.3849 0.26629 0.0
C2206 C 0.57188 0.40021 0.26649 0.0
C2207 C 0.56196 0.44468 0.27187 0.0
C2208 C 0.56526 0.42939 0.26931 0.0
H2209 H 0.56273 0.35166 0.2527 0.0
H2210 H 0.55763 0.37697 0.25154 0.0
H2211 H 0.59391 0.40871 0.26536 0.0
H2212 H 0.57488 0.47494 0.29162 0.0
H2213 H 0.58036 0.44999 0.28692 0.0
C2214 C 0.01918 0.26873 0.75077 0.0
C2215 C 0.02443 0.27954 0.74224 0.0
C2216 C 0.01901 0.25427 0.74594 0.0
C2217 C 0.02126 0.23035 0.71305 0.0
H2218 H 0.03145 0.20239 0.74052 0.0
C2219 C 0.0332 0.1717 0.69633 0.0
C2220 C 0.02729 0.16087 0.7045 0.0
C2221 C 0.0324 0.1862 0.70069 0.0
C2222 C 0.02844 0.21005 0.73275 0.0
H2223 H 0.0343 0.28366 0.72229 0.0
H2224 H 0.03398 0.25845 0.71379 0.0
H2225 H 0.03091 0.22763 0.74858 0.0
H2226 H 0.01599 0.15677 0.72367 0.0
H2227 H 0.01453 0.18209 0.73124 0.0
H2228 H 0.01902 0.2127 0.69719 0.0
C2229 C 0.02957 0.26114 0.72403 0.0
C2230 C 0.0281 0.22452 0.73737 0.0
C2231 C 0.02968 0.27561 0.72885 0.0
C2232 C 0.02053 0.16487 0.71708 0.0
C2233 C 0.01982 0.17936 0.72149 0.0
C2234 C 0.02169 0.21587 0.70842 0.0
C2235 C 0.02425 0.25028 0.73253 0.0
C2236 C 0.02449 0.23486 0.72758 0.0
C2237 C 0.02578 0.19018 0.71336 0.0
C2238 C 0.02527 0.20556 0.71823 0.0
H2239 H 0.01509 0.27148 0.76116 0.0
H2240 H 0.01467 0.24622 0.75269 0.0
H2241 H 0.01824 0.23799 0.70526 0.0
H2242 H 0.03837 0.16895 0.68652 0.0
H2243 H 0.03719 0.1943 0.69426 0.0
C2244 C 0.37588 0.75483 0.22871 0.0
C2245 C 0.38256 0.74413 0.23622 0.0
C2246 C 0.38122 0.76915 0.23048 0.0
C2247 C 0.4146 0.79109 0.24147 0.0
H2248 H 0.38921 0.82262 0.24125 0.0
C2249 C 0.43535 0.85088 0.25011 0.0
C2250 C 0.42884 0.86057 0.24112 0.0
C2251 C 0.42979 0.83665 0.25016 0.0
C2252 C 0.39644 0.81392 0.24121 0.0
H2253 H 0.39979 0.74019 0.25191 0.0
H2254 H 0.40896 0.76523 0.25515 0.0
H2255 H 0.37898 0.79795 0.24079 0.0
H2256 H 0.41171 0.86273 0.22478 0.0
H2257 H 0.402 0.83795 0.22492 0.0
H2258 H 0.43204 0.8071 0.24183 0.0
C2259 C 0.39975 0.76249 0.24768 0.0
C2260 C 0.39058 0.79979 0.24095 0.0
C2261 C 0.39442 0.74815 0.2459 0.0
C2262 C 0.41681 0.85563 0.23203 0.0
C2263 C 0.41124 0.84143 0.23212 0.0
C2264 C 0.42046 0.80524 0.24177 0.0
C2265 C 0.39335 0.77312 0.23983 0.0
C2266 C 0.39958 0.78819 0.24094 0.0
C2267 C 0.41759 0.83181 0.24126 0.0
C2268 C 0.41143 0.8168 0.2415 0.0
H2269 H 0.36674 0.75211 0.22114 0.0
H2270 H 0.37612 0.77703 0.22415 0.0
H2271 H 0.42183 0.78241 0.24125 0.0
H2272 H 0.44453 0.85439 0.25737 0.0
H2273 H 0.43485 0.82952 0.25742 0.0
C2274 C 0.99118 0.64984 0.7412 0.0
C2275 C 0.98669 0.65518 0.75452 0.0
C2276 C 0.99238 0.63507 0.73843 0.0
C2277 C 0.99623 0.60139 0.75699 0.0
H2278 H 0.98196 0.58277 0.72031 0.0
C2279 C 0.9857 0.54005 0.74841 0.0
C2280 C 0.98905 0.53331 0.73526 0.0
C2281 C 0.98677 0.55501 0.7505 0.0
C2282 C 0.9862 0.58784 0.73054 0.0
H2283 H 0.97978 0.64912 0.77529 0.0
H2284 H 0.98172 0.62346 0.77039 0.0
H2285 H 0.98105 0.60877 0.7243 0.0
H2286 H 0.99635 0.53702 0.71405 0.0
H2287 H 0.9984 0.56321 0.71777 0.0
H2288 H 1.00121 0.58046 0.7633 0.0
C2289 C 0.98454 0.63068 0.76217 0.0
C2290 C 0.98566 0.60273 0.73282 0.0
C2291 C 0.98333 0.64541 0.76494 0.0
C2292 C 0.99379 0.54188 0.72434 0.0
C2293 C 0.99482 0.55688 0.72641 0.0
C2294 C 0.99676 0.58651 0.75471 0.0
C2295 C 0.98916 0.62534 0.74893 0.0
C2296 C 0.99049 0.60965 0.74615 0.0
C2297 C 0.9912 0.56361 0.73948 0.0
C2298 C 0.99158 0.57954 0.74153 0.0
H2299 H 0.99389 0.65707 0.73295 0.0
H2300 H 0.99607 0.6313 0.72816 0.0
H2301 H 1.00031 0.60643 0.76728 0.0
H2302 H 0.98216 0.53374 0.75709 0.0
H2303 H 0.98377 0.55985 0.76064 0.0
C2304 C 0.73574 0.39859 0.65291 0.0
C2305 C 0.72978 0.40499 0.66502 0.0
C2306 C 0.73255 0.40333 0.63922 0.0
C2307 C 0.70581 0.4226 0.6184 0.0
H2308 H 0.73603 0.42583 0.59163 0.0
C2309 C 0.69617 0.44462 0.5621 0.0
C2310 C 0.70227 0.43719 0.55063 0.0
C2311 C 0.6998 0.44163 0.57633 0.0
C2312 C 0.72744 0.42487 0.59893 0.0
H2313 H 0.71656 0.42198 0.67238 0.0
H2314 H 0.7107 0.43006 0.64842 0.0
H2315 H 0.74181 0.41883 0.61597 0.0
H2316 H 0.71681 0.42065 0.54514 0.0
H2317 H 0.72311 0.41543 0.56989 0.0
H2318 H 0.6914 0.42847 0.6013 0.0
C2319 C 0.71755 0.42113 0.64949 0.0
C2320 C 0.73075 0.42086 0.61288 0.0
C2321 C 0.72079 0.41641 0.6632 0.0
C2322 C 0.71212 0.42676 0.55372 0.0
C2323 C 0.71573 0.42377 0.56793 0.0
C2324 C 0.70248 0.42659 0.60443 0.0
C2325 C 0.72339 0.41463 0.63734 0.0
C2326 C 0.71995 0.41954 0.62273 0.0
C2327 C 0.7096 0.43113 0.57941 0.0
C2328 C 0.71324 0.42763 0.59448 0.0
H2329 H 0.74276 0.3898 0.65399 0.0
H2330 H 0.7371 0.39798 0.63007 0.0
H2331 H 0.69722 0.42153 0.62568 0.0
H2332 H 0.68868 0.45284 0.56008 0.0
H2333 H 0.69502 0.44763 0.58493 0.0
C2334 C 0.78108 0.61775 0.26848 0.0
C2335 C 0.76799 0.61576 0.27506 0.0
C2336 C 0.78301 0.61092 0.25505 0.0
C2337 C 0.76808 0.58107 0.22963 0.0
H2338 H 0.78615 0.60342 0.20106 0.0
C2339 C 0.76317 0.56443 0.16889 0.0
C2340 C 0.77509 0.56736 0.16071 0.0
C2341 C 0.76346 0.56912 0.18341 0.0
C2342 C 0.78129 0.59693 0.20897 0.0
H2343 H 0.74655 0.60531 0.27267 0.0
H2344 H 0.7498 0.59352 0.24915 0.0
H2345 H 0.78451 0.61401 0.22533 0.0
H2346 H 0.79694 0.57685 0.16156 0.0
H2347 H 0.79747 0.585 0.18692 0.0
H2348 H 0.76465 0.56406 0.21317 0.0
C2349 C 0.75872 0.60008 0.25449 0.0
C2350 C 0.78035 0.60302 0.22289 0.0
C2351 C 0.7568 0.60693 0.2679 0.0
C2352 C 0.7875 0.57464 0.16751 0.0
C2353 C 0.78779 0.57932 0.18203 0.0
C2354 C 0.76902 0.57497 0.2157 0.0
C2355 C 0.77183 0.60203 0.24789 0.0
C2356 C 0.77359 0.59522 0.23334 0.0
C2357 C 0.77569 0.57683 0.19009 0.0
C2358 C 0.77551 0.58289 0.20516 0.0
H2359 H 0.7897 0.62492 0.27348 0.0
H2360 H 0.79324 0.61263 0.25027 0.0
H2361 H 0.76301 0.5747 0.2375 0.0
H2362 H 0.75338 0.55902 0.16394 0.0
H2363 H 0.75389 0.56718 0.18924 0.0
C2364 C 0.25101 0.05425 0.32574 0.0
C2365 C 0.24927 0.04175 0.31656 0.0
C2366 C 0.24933 0.05356 0.34047 0.0
C2367 C 0.23529 0.02982 0.36797 0.0
H2368 H 0.2617 0.05417 0.39368 0.0
C2369 C 0.24418 0.0228 0.42931 0.0
C2370 C 0.24507 0.03546 0.43835 0.0
C2371 C 0.2435 0.0235 0.41434 0.0
C2372 C 0.25416 0.0474 0.38663 0.0
H2373 H 0.24487 0.01866 0.31562 0.0
H2374 H 0.2421 0.01737 0.34135 0.0
H2375 H 0.26285 0.05551 0.36781 0.0
H2376 H 0.24519 0.05875 0.43866 0.0
H2377 H 0.24433 0.05994 0.41262 0.0
H2378 H 0.22692 0.02146 0.38697 0.0
C2379 C 0.24428 0.0278 0.33715 0.0
C2380 C 0.25476 0.0482 0.37179 0.0
C2381 C 0.24582 0.02853 0.32238 0.0
C2382 C 0.24487 0.04879 0.43205 0.0
C2383 C 0.24432 0.04949 0.41713 0.0
C2384 C 0.23479 0.02892 0.38286 0.0
C2385 C 0.24614 0.0403 0.34641 0.0
C2386 C 0.2453 0.03946 0.36224 0.0
C2387 C 0.24381 0.03687 0.40812 0.0
C2388 C 0.24419 0.03775 0.39233 0.0
H2389 H 0.25365 0.06458 0.32151 0.0
H2390 H 0.25057 0.06344 0.3472 0.0
H2391 H 0.22771 0.02306 0.36096 0.0
H2392 H 0.24446 0.01235 0.43377 0.0
H2393 H 0.24323 0.01361 0.40764 0.0
C2394 C 0.26426 0.97115 0.72444 0.0
C2395 C 0.26448 0.98466 0.71855 0.0
C2396 C 0.2698 0.96977 0.7385 0.0
C2397 C 0.2929 0.98905 0.76825 0.0
H2398 H 0.27281 0.96242 0.79174 0.0
C2399 C 0.302 0.98945 0.83018 0.0
C2400 C 0.30311 0.97605 0.83623 0.0
C2401 C 0.29819 0.99022 0.81554 0.0
C2402 C 0.27862 0.96979 0.78526 0.0
H2403 H 0.27002 0.00741 0.7229 0.0
H2404 H 0.27954 0.00509 0.74747 0.0
H2405 H 0.26432 0.96435 0.76679 0.0
H2406 H 0.30148 0.95295 0.83142 0.0
H2407 H 0.2945 0.95434 0.80596 0.0
H2408 H 0.30694 0.99475 0.78696 0.0
C2409 C 0.27559 0.99545 0.74112 0.0
C2410 C 0.27379 0.97088 0.77093 0.0
C2411 C 0.27016 0.9968 0.72701 0.0
C2412 C 0.30046 0.96345 0.82721 0.0
C2413 C 0.29651 0.96423 0.81261 0.0
C2414 C 0.29763 0.98807 0.78263 0.0
C2415 C 0.27546 0.98192 0.74707 0.0
C2416 C 0.28085 0.98054 0.76224 0.0
C2417 C 0.29527 0.97762 0.80665 0.0
C2418 C 0.29052 0.97844 0.79128 0.0
H2419 H 0.25993 0.96162 0.71812 0.0
H2420 H 0.2697 0.95915 0.74262 0.0
H2421 H 0.29875 0.99643 0.76182 0.0
H2422 H 0.30372 0.99938 0.8368 0.0
H2423 H 0.29715 0.00069 0.81126 0.0
C2424 C 0.66237 0.71977 0.40704 0.0
C2425 C 0.66881 0.73351 0.41092 0.0
C2426 C 0.6489 0.71563 0.41185 0.0
C2427 C 0.61601 0.73074 0.42494 0.0
H2428 H 0.60764 0.6919 0.43615 0.0
C2429 C 0.56076 0.7127 0.44514 0.0
C2430 C 0.55466 0.6994 0.4392 0.0
C2431 C 0.57515 0.71684 0.4432 0.0
C2432 C 0.60979 0.70276 0.43297 0.0
H2433 H 0.66618 0.75378 0.42271 0.0
H2434 H 0.64268 0.74653 0.43123 0.0
H2435 H 0.63195 0.69923 0.42991 0.0
H2436 H 0.55904 0.67979 0.42704 0.0
H2437 H 0.58405 0.68709 0.42347 0.0
H2438 H 0.59382 0.73421 0.42782 0.0
C2439 C 0.64801 0.73895 0.42444 0.0
C2440 C 0.62371 0.70696 0.42939 0.0
C2441 C 0.66147 0.74309 0.41961 0.0
C2442 C 0.56337 0.69018 0.43161 0.0
C2443 C 0.57775 0.69429 0.4297 0.0
C2444 C 0.6021 0.72654 0.42854 0.0
C2445 C 0.64154 0.72519 0.42057 0.0
C2446 C 0.62695 0.72095 0.42517 0.0
C2447 C 0.58376 0.70775 0.43532 0.0
C2448 C 0.59878 0.71246 0.43244 0.0
H2449 H 0.66746 0.71238 0.39985 0.0
H2450 H 0.64408 0.70508 0.40838 0.0
H2451 H 0.61808 0.74153 0.42155 0.0
H2452 H 0.5543 0.72008 0.45096 0.0
H2453 H 0.5795 0.72721 0.44779 0.0
C2454 C 0.73298 0.25469 0.99278 0.0
C2455 C 0.72216 0.26416 0.98977 0.0
C2456 C 0.74744 0.25885 0.99129 0.0
C2457 C 0.771 0.2837 0.97279 0.0
H2458 H 0.79957 0.27581 0.00274 0.0
C2459 C 0.83049 0.30514 0.9727 0.0
C2460 C 0.8411 0.29601 0.97728 0.0
C2461 C 0.81591 0.30147 0.97417 0.0
C2462 C 0.79177 0.27793 0.99418 0.0
H2463 H 0.71786 0.28506 0.98208 0.0
H2464 H 0.74318 0.29244 0.97968 0.0
H2465 H 0.77426 0.26897 0.00535 0.0
H2466 H 0.84473 0.27569 0.98663 0.0
H2467 H 0.81932 0.26916 0.989 0.0
H2468 H 0.7885 0.29248 0.96151 0.0
C2469 C 0.74048 0.28186 0.98333 0.0
C2470 C 0.77726 0.27404 0.99571 0.0
C2471 C 0.72602 0.27773 0.98492 0.0
C2472 C 0.83681 0.28305 0.98322 0.0
C2473 C 0.82224 0.27934 0.9846 0.0
C2474 C 0.78553 0.28752 0.97122 0.0
C2475 C 0.75135 0.27249 0.98658 0.0
C2476 C 0.76672 0.27685 0.98502 0.0
C2477 C 0.8116 0.28853 0.98017 0.0
C2478 C 0.7961 0.28464 0.98188 0.0
H2479 H 0.73027 0.24411 0.99642 0.0
H2480 H 0.75555 0.25131 0.99367 0.0
H2481 H 0.76313 0.28585 0.9643 0.0
H2482 H 0.83348 0.31528 0.96824 0.0
H2483 H 0.80803 0.30891 0.97083 0.0
C2484 C 0.26726 0.74993 0.61309 0.0
C2485 C 0.27379 0.76235 0.62049 0.0
C2486 C 0.25343 0.75009 0.60647 0.0
C2487 C 0.22662 0.7748 0.59315 0.0
H2488 H 0.1997 0.7419 0.59558 0.0
C2489 C 0.16557 0.77595 0.57833 0.0
C2490 C 0.15852 0.76357 0.57128 0.0
C2491 C 0.18002 0.77592 0.58329 0.0
C2492 C 0.20715 0.75109 0.59462 0.0
H2493 H 0.27061 0.78439 0.62759 0.0
H2494 H 0.2465 0.78475 0.61598 0.0
H2495 H 0.22402 0.74156 0.60657 0.0
H2496 H 0.1612 0.74155 0.56364 0.0
H2497 H 0.18648 0.74158 0.5721 0.0
H2498 H 0.20964 0.78437 0.58133 0.0
C2499 C 0.25224 0.77501 0.61487 0.0
C2500 C 0.2211 0.7509 0.60094 0.0
C2501 C 0.26609 0.77484 0.62146 0.0
C2502 C 0.16635 0.7513 0.56893 0.0
C2503 C 0.18078 0.75126 0.57393 0.0
C2504 C 0.21265 0.77499 0.58685 0.0
C2505 C 0.24576 0.76264 0.60725 0.0
C2506 C 0.23099 0.76277 0.60032 0.0
C2507 C 0.18772 0.7635 0.58135 0.0
C2508 C 0.20274 0.76315 0.58755 0.0
H2509 H 0.27295 0.74014 0.61221 0.0
H2510 H 0.24882 0.74041 0.60059 0.0
H2511 H 0.23405 0.78402 0.59228 0.0
H2512 H 0.15987 0.78562 0.58017 0.0
H2513 H 0.18501 0.7855 0.58905 0.0
C2514 C 0.32965 0.2427 0.03624 0.0
C2515 C 0.32297 0.25561 0.03423 0.0
C2516 C 0.34422 0.24164 0.03375 0.0
C2517 C 0.37771 0.26457 0.03206 0.0
H2518 H 0.39281 0.22946 0.01646 0.0
C2519 C 0.43774 0.26131 0.02154 0.0
C2520 C 0.44439 0.24936 0.02681 0.0
C2521 C 0.42275 0.26172 0.02076 0.0
C2522 C 0.38874 0.23931 0.02088 0.0
H2523 H 0.32618 0.27747 0.02787 0.0
H2524 H 0.35152 0.27558 0.02322 0.0
H2525 H 0.36682 0.23088 0.01807 0.0
H2526 H 0.44051 0.2282 0.03479 0.0
H2527 H 0.4143 0.22896 0.03352 0.0
H2528 H 0.39959 0.27298 0.03493 0.0
C2529 C 0.34561 0.26631 0.02693 0.0
C2530 C 0.37386 0.24012 0.02184 0.0
C2531 C 0.33108 0.26739 0.02952 0.0
C2532 C 0.4357 0.23762 0.03082 0.0
C2533 C 0.42069 0.238 0.02997 0.0
C2534 C 0.39254 0.26378 0.03102 0.0
C2535 C 0.35243 0.25349 0.02921 0.0
C2536 C 0.36818 0.25273 0.02754 0.0
C2537 C 0.41407 0.25016 0.02517 0.0
C2538 C 0.39823 0.25112 0.02552 0.0
H2539 H 0.32379 0.2336 0.04033 0.0
H2540 H 0.34917 0.23169 0.03589 0.0
H2541 H 0.37377 0.27435 0.03678 0.0
H2542 H 0.44414 0.27057 0.01846 0.0
H2543 H 0.41795 0.27118 0.01688 0.0
C2544 C 0.41177 0.65778 0.73898 0.0
C2545 C 0.4037 0.66519 0.72894 0.0
C2546 C 0.41657 0.64423 0.7352 0.0
C2547 C 0.42287 0.61982 0.7037 0.0
H2548 H 0.42023 0.59023 0.73114 0.0
C2549 C 0.42679 0.55953 0.68792 0.0
C2550 C 0.43423 0.55115 0.69759 0.0
C2551 C 0.42435 0.57384 0.69172 0.0
C2552 C 0.42124 0.59842 0.72343 0.0
H2553 H 0.39365 0.6639 0.70735 0.0
H2554 H 0.40209 0.64033 0.70068 0.0
H2555 H 0.41341 0.61441 0.73785 0.0
H2556 H 0.44514 0.55129 0.71877 0.0
H2557 H 0.44101 0.57637 0.72537 0.0
H2558 H 0.43048 0.60373 0.68921 0.0
C2559 C 0.40512 0.64516 0.71133 0.0
C2560 C 0.41732 0.61229 0.72727 0.0
C2561 C 0.40035 0.65872 0.71511 0.0
C2562 C 0.43945 0.5575 0.71104 0.0
C2563 C 0.43696 0.57181 0.71488 0.0
C2564 C 0.42675 0.60593 0.69985 0.0
C2565 C 0.41328 0.63774 0.72133 0.0
C2566 C 0.41798 0.62314 0.71742 0.0
C2567 C 0.42926 0.5801 0.70531 0.0
C2568 C 0.42588 0.59505 0.70963 0.0
H2569 H 0.41448 0.66252 0.74973 0.0
H2570 H 0.42294 0.63889 0.74312 0.0
H2571 H 0.42374 0.62798 0.69594 0.0
H2572 H 0.42278 0.55499 0.6774 0.0
H2573 H 0.41827 0.57988 0.68415 0.0
C2574 C 0.98285 0.72215 0.27947 0.0
C2575 C 0.9875 0.71863 0.26572 0.0
C2576 C 0.98063 0.73643 0.28374 0.0
C2577 C 0.97464 0.77182 0.26894 0.0
H2578 H 0.98675 0.78685 0.30762 0.0
C2579 C 0.9798 0.83246 0.28511 0.0
C2580 C 0.97454 0.837 0.29833 0.0
C2581 C 0.98062 0.81784 0.28137 0.0
C2582 C 0.98316 0.78276 0.29683 0.0
H2583 H 0.99332 0.72719 0.2456 0.0
H2584 H 0.98975 0.75211 0.2531 0.0
H2585 H 0.98971 0.76162 0.30067 0.0
H2586 H 0.96608 0.8298 0.31803 0.0
H2587 H 0.9675 0.80418 0.31147 0.0
H2588 H 0.96835 0.79304 0.26504 0.0
C2589 C 0.9876 0.74387 0.26055 0.0
C2590 C 0.98484 0.7683 0.29285 0.0
C2591 C 0.98973 0.72961 0.25627 0.0
C2592 C 0.97008 0.82661 0.30773 0.0
C2593 C 0.97102 0.81196 0.30403 0.0
C2594 C 0.97305 0.78628 0.27289 0.0
C2595 C 0.983 0.74747 0.27433 0.0
C2596 C 0.98071 0.76269 0.2788 0.0
C2597 C 0.97628 0.80744 0.2908 0.0
C2598 C 0.9774 0.79193 0.28684 0.0
H2599 H 0.98054 0.71384 0.28678 0.0
H2600 H 0.97681 0.73877 0.29432 0.0
H2601 H 0.97105 0.7678 0.25813 0.0
H2602 H 0.98319 0.84022 0.27759 0.0
H2603 H 0.98485 0.81468 0.27115 0.0
C2604 C 0.62561 0.26301 0.77844 0.0
C2605 C 0.62314 0.27135 0.76659 0.0
C2606 C 0.61769 0.24996 0.77948 0.0
C2607 C 0.5967 0.22152 0.75687 0.0
H2608 H 0.58385 0.20932 0.79331 0.0
C2609 C 0.56255 0.16863 0.7604 0.0
C2610 C 0.56685 0.15985 0.77143 0.0
C2611 C 0.56813 0.18284 0.76034 0.0
C2612 C 0.58744 0.21255 0.78307 0.0
H2613 H 0.6105 0.27263 0.74652 0.0
H2614 H 0.59655 0.24995 0.74837 0.0
H2615 H 0.59613 0.23303 0.79218 0.0
H2616 H 0.57987 0.15934 0.7914 0.0
H2617 H 0.58978 0.18408 0.79119 0.0
H2618 H 0.58818 0.20104 0.74777 0.0
C2619 C 0.60468 0.25339 0.75683 0.0
C2620 C 0.5945 0.22612 0.78243 0.0
C2621 C 0.61262 0.2664 0.75579 0.0
C2622 C 0.57648 0.16577 0.78266 0.0
C2623 C 0.58204 0.18 0.78261 0.0
C2624 C 0.58965 0.20799 0.75751 0.0
C2625 C 0.60719 0.24495 0.76863 0.0
C2626 C 0.59928 0.23073 0.76932 0.0
C2627 C 0.57813 0.18862 0.77132 0.0
C2628 C 0.585 0.20331 0.77062 0.0
H2629 H 0.63403 0.26627 0.78664 0.0
H2630 H 0.62011 0.24358 0.78855 0.0
H2631 H 0.60047 0.22461 0.74665 0.0
H2632 H 0.55524 0.16437 0.75153 0.0
H2633 H 0.56476 0.18926 0.75158 0.0
C2634 C 0.04572 0.32827 0.23978 0.0
C2635 C 0.04193 0.32127 0.25206 0.0
C2636 C 0.04327 0.34281 0.23858 0.0
C2637 C 0.03799 0.37575 0.26111 0.0
H2638 H 0.02638 0.39101 0.2247 0.0
C2639 C 0.02625 0.4353 0.25707 0.0
C2640 C 0.03273 0.44235 0.24596 0.0
C2641 C 0.02589 0.42032 0.25728 0.0
C2642 C 0.02969 0.3869 0.23492 0.0
H2643 H 0.03251 0.32391 0.27268 0.0
H2644 H 0.02799 0.34921 0.27053 0.0
H2645 H 0.02845 0.36513 0.2261 0.0
H2646 H 0.04334 0.43919 0.22603 0.0
H2647 H 0.04281 0.41302 0.22646 0.0
H2648 H 0.03928 0.39748 0.26992 0.0
C2649 C 0.03304 0.34356 0.26188 0.0
C2650 C 0.03091 0.37209 0.23573 0.0
C2651 C 0.03556 0.32906 0.26309 0.0
C2652 C 0.03841 0.43407 0.23481 0.0
C2653 C 0.03798 0.41908 0.23498 0.0
C2654 C 0.0367 0.39051 0.26032 0.0
C2655 C 0.037 0.35067 0.24967 0.0
C2656 C 0.03516 0.36634 0.24882 0.0
C2657 C 0.03194 0.41206 0.24635 0.0
C2658 C 0.03262 0.39627 0.24721 0.0
H2659 H 0.05109 0.32268 0.23133 0.0
H2660 H 0.04672 0.34801 0.22916 0.0
H2661 H 0.04156 0.37176 0.27131 0.0
H2662 H 0.02188 0.44138 0.26587 0.0
H2663 H 0.02101 0.41521 0.2661 0.0
C2664 C 0.33033 0.59498 0.29154 0.0
C2665 C 0.32021 0.58492 0.29647 0.0
C2666 C 0.34448 0.59131 0.28957 0.0
C2667 C 0.37064 0.56601 0.30232 0.0
H2668 H 0.39245 0.57788 0.2704 0.0
C2669 C 0.42607 0.5446 0.29215 0.0
C2670 C 0.43691 0.55433 0.28798 0.0
C2671 C 0.41187 0.54857 0.29274 0.0
C2672 C 0.38655 0.57463 0.27947 0.0
H2673 H 0.31686 0.56292 0.3025 0.0
H2674 H 0.3414 0.55651 0.2989 0.0
H2675 H 0.36743 0.58424 0.27176 0.0
H2676 H 0.44126 0.57585 0.28103 0.0
H2677 H 0.41647 0.58288 0.28232 0.0
H2678 H 0.38968 0.55648 0.31011 0.0
C2679 C 0.33851 0.56732 0.29684 0.0
C2680 C 0.37222 0.57825 0.28023 0.0
C2681 C 0.3244 0.57097 0.29881 0.0
C2682 C 0.43319 0.56814 0.2844 0.0
C2683 C 0.41896 0.57212 0.28499 0.0
C2684 C 0.38493 0.56242 0.30158 0.0
C2685 C 0.3488 0.57752 0.29249 0.0
C2686 C 0.36407 0.57389 0.29162 0.0
C2687 C 0.40815 0.56238 0.28921 0.0
C2688 C 0.39304 0.56659 0.2901 0.0
H2689 H 0.32745 0.60583 0.28964 0.0
H2690 H 0.35217 0.59944 0.28626 0.0
H2691 H 0.36478 0.56276 0.31142 0.0
H2692 H 0.42857 0.53393 0.29513 0.0
H2693 H 0.40379 0.54074 0.29588 0.0
C2694 C 0.16967 0.36985 0.68993 0.0
C2695 C 0.18006 0.37658 0.68179 0.0
C2696 C 0.15544 0.37387 0.68915 0.0
C2697 C 0.13489 0.40515 0.68041 0.0
H2698 H 0.10195 0.37936 0.68642 0.0
C2699 C 0.07779 0.42539 0.68359 0.0
C2700 C 0.07015 0.42085 0.69525 0.0
C2701 C 0.09035 0.41891 0.67996 0.0
C2702 C 0.11106 0.38668 0.68477 0.0
H2703 H 0.18339 0.39207 0.66565 0.0
H2704 H 0.15847 0.39883 0.66401 0.0
H2705 H 0.12536 0.36958 0.6829 0.0
H2706 H 0.06941 0.40559 0.71191 0.0
H2707 H 0.09144 0.39434 0.70564 0.0
H2708 H 0.12065 0.42225 0.68244 0.0
C2709 C 0.16142 0.39073 0.67132 0.0
C2710 C 0.12448 0.3811 0.68277 0.0
C2711 C 0.17569 0.38678 0.67218 0.0
C2712 C 0.07514 0.40942 0.70296 0.0
C2713 C 0.08767 0.40288 0.69927 0.0
C2714 C 0.12148 0.41071 0.68232 0.0
C2715 C 0.15122 0.38464 0.68012 0.0
C2716 C 0.13662 0.39029 0.68079 0.0
C2717 C 0.09552 0.40769 0.68786 0.0
C2718 C 0.10946 0.40157 0.68473 0.0
H2719 H 0.17266 0.36194 0.69745 0.0
H2720 H 0.14795 0.36903 0.69619 0.0
H2721 H 0.14402 0.4126 0.6792 0.0
H2722 H 0.07429 0.43425 0.67752 0.0
H2723 H 0.09611 0.42278 0.67104 0.0
C2724 C 0.82204 0.00144 0.66731 0.0
C2725 C 0.81929 0.99232 0.67845 0.0
C2726 C 0.83586 0.00772 0.66606 0.0
C2727 C 0.87432 0.00508 0.67755 0.0
H2728 H 0.87715 0.04573 0.67073 0.0
C2729 C 0.92874 0.03661 0.67052 0.0
C2730 C 0.9307 0.05031 0.6777 0.0
C2731 C 0.91529 0.02904 0.66975 0.0
C2732 C 0.87654 0.03438 0.67269 0.0
H2733 H 0.82903 0.98233 0.69677 0.0
H2734 H 0.85309 0.99337 0.69462 0.0
H2735 H 0.85351 0.03316 0.67087 0.0
H2736 H 0.9201 0.0666 0.69004 0.0
H2737 H 0.8967 0.05347 0.68862 0.0
H2738 H 0.89739 0.00643 0.67974 0.0
C2739 C 0.84459 0.99557 0.68679 0.0
C2740 C 0.863 0.02714 0.6726 0.0
C2741 C 0.83076 0.98931 0.68807 0.0
C2742 C 0.91891 0.05621 0.68416 0.0
C2743 C 0.90549 0.04867 0.68336 0.0
C2744 C 0.88789 0.01233 0.67759 0.0
C2745 C 0.84726 0.005 0.67588 0.0
C2746 C 0.86172 0.01244 0.67516 0.0
C2747 C 0.90349 0.03502 0.67611 0.0
C2748 C 0.88915 0.0271 0.67532 0.0
H2749 H 0.81347 0.00392 0.65968 0.0
H2750 H 0.83761 0.01478 0.65741 0.0
H2751 H 0.8737 0.99372 0.67943 0.0
H2752 H 0.93755 0.03183 0.66529 0.0
H2753 H 0.91406 0.0186 0.66397 0.0
C2754 C 0.66508 0.99063 0.29037 0.0
C2755 C 0.67584 0.98518 0.28199 0.0
C2756 C 0.65062 0.98604 0.28738 0.0
C2757 C 0.62533 0.96866 0.25866 0.0
H2758 H 0.60132 0.96124 0.29035 0.0
C2759 C 0.56824 0.94057 0.25048 0.0
C2760 C 0.55748 0.9461 0.25882 0.0
C2761 C 0.58264 0.94555 0.25311 0.0
C2762 C 0.60783 0.96342 0.28139 0.0
H2763 H 0.67982 0.97065 0.26385 0.0
H2764 H 0.65462 0.9625 0.25875 0.0
H2765 H 0.6265 0.96948 0.29531 0.0
H2766 H 0.55345 0.96115 0.2765 0.0
H2767 H 0.57855 0.96998 0.28097 0.0
H2768 H 0.60665 0.96251 0.24474 0.0
C2769 C 0.65733 0.97048 0.26752 0.0
C2770 C 0.62227 0.96815 0.28422 0.0
C2771 C 0.6718 0.97509 0.27051 0.0
C2772 C 0.56145 0.95677 0.2698 0.0
C2773 C 0.57586 0.96171 0.27246 0.0
C2774 C 0.61089 0.9639 0.25582 0.0
C2775 C 0.64657 0.97587 0.27595 0.0
C2776 C 0.6312 0.97085 0.2729 0.0
C2777 C 0.58663 0.95613 0.26417 0.0
C2778 C 0.60197 0.96123 0.26716 0.0
H2779 H 0.6678 0.99847 0.29926 0.0
H2780 H 0.64259 0.99057 0.29395 0.0
H2781 H 0.63184 0.97084 0.24969 0.0
H2782 H 0.56552 0.93244 0.24184 0.0
H2783 H 0.59069 0.94094 0.24661 0.0
C2784 C 0.32784 0.34283 0.58973 0.0
C2785 C 0.3171 0.33215 0.58499 0.0
C2786 C 0.32713 0.35684 0.58529 0.0
C2787 C 0.30167 0.38197 0.57053 0.0
H2788 H 0.33632 0.40261 0.55969 0.0
C2789 C 0.30024 0.43579 0.54304 0.0
C2790 C 0.311 0.44655 0.54749 0.0
C2791 C 0.301 0.42189 0.54777 0.0
C2792 C 0.32658 0.39706 0.56284 0.0
H2793 H 0.2972 0.32782 0.57181 0.0
H2794 H 0.29602 0.35222 0.56399 0.0
H2795 H 0.33763 0.37826 0.56767 0.0
H2796 H 0.33107 0.45109 0.56033 0.0
H2797 H 0.33225 0.42692 0.5688 0.0
H2798 H 0.29062 0.40076 0.5657 0.0
C2799 C 0.30491 0.34981 0.57128 0.0
C2800 C 0.32733 0.3831 0.56741 0.0
C2801 C 0.30563 0.33579 0.57571 0.0
C2802 C 0.32253 0.44309 0.55681 0.0
C2803 C 0.3233 0.42919 0.56153 0.0
C2804 C 0.30093 0.39593 0.56597 0.0
C2805 C 0.31565 0.36049 0.57602 0.0
C2806 C 0.31488 0.37538 0.57128 0.0
C2807 C 0.31254 0.41843 0.55707 0.0
C2808 C 0.31336 0.40363 0.56204 0.0
H2809 H 0.33681 0.34039 0.59692 0.0
H2810 H 0.33548 0.36487 0.58928 0.0
H2811 H 0.29193 0.37641 0.57366 0.0
H2812 H 0.29114 0.43813 0.53598 0.0
H2813 H 0.29262 0.41382 0.544 0.0
C2814 C 0.28796 0.67191 0.98458 0.0
C2815 C 0.28058 0.67777 0.99605 0.0
C2816 C 0.28426 0.65798 0.97875 0.0
C2817 C 0.26656 0.62343 0.9872 0.0
H2818 H 0.26508 0.61555 0.94586 0.0
C2819 C 0.24721 0.56778 0.96015 0.0
C2820 C 0.25499 0.56262 0.94865 0.0
C2821 C 0.24977 0.58192 0.96592 0.0
C2822 C 0.26559 0.61753 0.95743 0.0
H2823 H 0.26347 0.67356 0.01036 0.0
H2824 H 0.25699 0.64924 1.00014 0.0
H2825 H 0.27056 0.64005 0.95593 0.0
H2826 H 0.27177 0.56819 0.93441 0.0
H2827 H 0.27628 0.59279 0.94449 0.0
H2828 H 0.26172 0.60088 0.98872 0.0
C2829 C 0.26573 0.6554 0.99575 0.0
C2830 C 0.26872 0.63158 0.9632 0.0
C2831 C 0.26939 0.66937 0.00155 0.0
C2832 C 0.26541 0.57191 0.94309 0.0
C2833 C 0.26799 0.58602 0.94887 0.0
C2834 C 0.26345 0.60936 0.98143 0.0
C2835 C 0.27312 0.64955 0.98428 0.0
C2836 C 0.26934 0.63468 0.97815 0.0
C2837 C 0.26019 0.59121 0.96034 0.0
C2838 C 0.26303 0.60623 0.96648 0.0
H2839 H 0.29665 0.67807 0.9801 0.0
H2840 H 0.29029 0.65372 0.97005 0.0
H2841 H 0.26713 0.62543 0.99877 0.0
H2842 H 0.23898 0.56094 0.96455 0.0
H2843 H 0.24344 0.58563 0.97463 0.0
C2844 C 0.68305 0.17325 0.40559 0.0
C2845 C 0.68601 0.17555 0.39127 0.0
C2846 C 0.68242 0.15936 0.41047 0.0
C2847 C 0.69788 0.12487 0.40297 0.0
H2848 H 0.67255 0.11156 0.43163 0.0
C2849 C 0.70542 0.07096 0.42896 0.0
C2850 C 0.70441 0.0712 0.44396 0.0
C2851 C 0.70091 0.08244 0.42118 0.0
C2852 C 0.67976 0.11515 0.42368 0.0
H2853 H 0.68965 0.16496 0.37059 0.0
H2854 H 0.68852 0.14071 0.37912 0.0
H2855 H 0.66813 0.13396 0.42025 0.0
H2856 H 0.69728 0.08348 0.46241 0.0
H2857 H 0.68989 0.10365 0.44896 0.0
H2858 H 0.70986 0.10644 0.40674 0.0
C2859 C 0.68688 0.14969 0.38661 0.0
C2860 C 0.67719 0.12796 0.41714 0.0
C2861 C 0.68744 0.16358 0.38171 0.0
C2862 C 0.69844 0.08303 0.45091 0.0
C2863 C 0.69399 0.09452 0.44314 0.0
C2864 C 0.7005 0.11212 0.40956 0.0
C2865 C 0.68477 0.14747 0.40114 0.0
C2866 C 0.68637 0.13308 0.40689 0.0
C2867 C 0.69532 0.09446 0.4282 0.0
C2868 C 0.69163 0.10723 0.42019 0.0
H2869 H 0.68184 0.18223 0.41323 0.0
H2870 H 0.68086 0.15803 0.42175 0.0
H2871 H 0.7053 0.12863 0.39527 0.0
H2872 H 0.71004 0.06207 0.42327 0.0
H2873 H 0.70193 0.08196 0.40966 0.0
C2874 C 0.70876 0.8353 0.98456 0.0
C2875 C 0.71517 0.82344 0.99031 0.0
C2876 C 0.71183 0.84914 0.99089 0.0
C2877 C 0.7239 0.86747 0.02579 0.0
H2878 H 0.72455 0.9015 0.00378 0.0
C2879 C 0.73044 0.92455 0.05336 0.0
C2880 C 0.72069 0.93436 0.04831 0.0
C2881 C 0.7319 0.91146 0.04569 0.0
C2882 C 0.72434 0.89209 0.01006 0.0
H2883 H 0.73038 0.8169 0.0068 0.0
H2884 H 0.7359 0.84113 0.01775 0.0
H2885 H 0.72379 0.87773 0.99128 0.0
H2886 H 0.70503 0.93816 0.03104 0.0
H2887 H 0.70763 0.91536 0.01761 0.0
H2888 H 0.72422 0.8818 0.04455 0.0
C2889 C 0.72829 0.83967 0.00849 0.0
C2890 C 0.7239 0.87847 0.00292 0.0
C2891 C 0.7252 0.8258 0.00216 0.0
C2892 C 0.71276 0.93094 0.03516 0.0
C2893 C 0.71425 0.91787 0.02746 0.0
C2894 C 0.7244 0.88107 0.03293 0.0
C2895 C 0.72142 0.85147 0.0031 0.0
C2896 C 0.72342 0.86598 0.01068 0.0
C2897 C 0.72369 0.90789 0.03274 0.0
C2898 C 0.72438 0.89353 0.02515 0.0
H2899 H 0.701 0.83388 0.97542 0.0
H2900 H 0.70621 0.85792 0.98654 0.0
H2901 H 0.72331 0.8581 0.03212 0.0
H2902 H 0.73692 0.92696 0.06331 0.0
H2903 H 0.73942 0.9041 0.04993 0.0
C2904 C 0.5628 0.2998 0.32912 0.0
C2905 C 0.57677 0.29929 0.32422 0.0
C2906 C 0.56031 0.29772 0.34349 0.0
C2907 C 0.57579 0.28435 0.3773 0.0
H2908 H 0.55229 0.31256 0.39507 0.0
C2909 C 0.57256 0.29279 0.43908 0.0
C2910 C 0.55914 0.29588 0.44432 0.0
C2911 C 0.57447 0.29204 0.42429 0.0
C2912 C 0.5587 0.30445 0.39026 0.0
H2913 H 0.59895 0.29544 0.33044 0.0
H2914 H 0.5946 0.29187 0.3556 0.0
H2915 H 0.55586 0.31276 0.36948 0.0
H2916 H 0.53718 0.30055 0.43802 0.0
H2917 H 0.54039 0.29884 0.41231 0.0
H2918 H 0.57867 0.2761 0.39818 0.0
C2919 C 0.58557 0.29383 0.34828 0.0
C2920 C 0.56074 0.30457 0.37557 0.0
C2921 C 0.58807 0.29592 0.33387 0.0
C2922 C 0.54762 0.29799 0.43439 0.0
C2923 C 0.54952 0.29719 0.41963 0.0
C2924 C 0.5737 0.2842 0.39204 0.0
C2925 C 0.57172 0.29508 0.35332 0.0
C2926 C 0.56931 0.29453 0.3689 0.0
C2927 C 0.56299 0.29436 0.41439 0.0
C2928 C 0.56513 0.29427 0.3987 0.0
H2929 H 0.55382 0.30224 0.32195 0.0
H2930 H 0.54947 0.29847 0.34698 0.0
H2931 H 0.58236 0.27641 0.37245 0.0
H2932 H 0.58161 0.29094 0.44641 0.0
H2933 H 0.58502 0.28995 0.42065 0.0
C2934 C 0.9888 0.2646 0.6725 0.0
C2935 C 0.99727 0.27745 0.67577 0.0
C2936 C 0.9836 0.26079 0.65836 0.0
C2937 C 0.98991 0.2676 0.62058 0.0
H2938 H 0.94999 0.25366 0.61336 0.0
C2939 C 0.96214 0.26262 0.56354 0.0
C2940 C 0.95241 0.25073 0.55989 0.0
C2941 C 0.96784 0.26534 0.57767 0.0
C2942 C 0.96122 0.25734 0.61519 0.0
H2943 H 0.00707 0.29628 0.66672 0.0
H2944 H 0.998 0.28962 0.64208 0.0
H2945 H 0.95964 0.25924 0.63803 0.0
H2946 H 0.94122 0.23225 0.56818 0.0
H2947 H 0.95127 0.23693 0.59285 0.0
H2948 H 0.99153 0.26569 0.59778 0.0
C2949 C 0.99545 0.28245 0.65043 0.0
C2950 C 0.96674 0.26055 0.62933 0.0
C2951 C 1.00058 0.28631 0.66457 0.0
C2952 C 0.94855 0.2416 0.57069 0.0
C2953 C 0.9543 0.24429 0.58483 0.0
C2954 C 0.98441 0.26433 0.60645 0.0
C2955 C 0.98685 0.26969 0.64717 0.0
C2956 C 0.98112 0.26581 0.63218 0.0
C2957 C 0.96399 0.25622 0.5885 0.0
C2958 C 0.96997 0.25926 0.60357 0.0
H2959 H 0.98608 0.25752 0.68087 0.0
H2960 H 0.97713 0.25081 0.65616 0.0
H2961 H 1.0011 0.27142 0.62244 0.0
H2962 H 0.96515 0.26999 0.55551 0.0
H2963 H 0.97507 0.27477 0.58016 0.0
C2964 C 0.38124 0.68841 0.16723 0.0
C2965 C 0.39017 0.69097 0.1799 0.0
C2966 C 0.38718 0.68799 0.15377 0.0
C2967 C 0.41902 0.70242 0.13676 0.0
H2968 H 0.40565 0.67635 0.10429 0.0
C2969 C 0.44706 0.70241 0.08352 0.0
C2970 C 0.43833 0.70107 0.07065 0.0
C2971 C 0.44117 0.70012 0.09668 0.0
C2972 C 0.40939 0.6838 0.11322 0.0
H2973 H 0.41237 0.69415 0.1884 0.0
H2974 H 0.42267 0.69327 0.165 0.0
H2975 H 0.39544 0.67363 0.12764 0.0
H2976 H 0.41655 0.69601 0.06157 0.0
H2977 H 0.40619 0.69238 0.08463 0.0
H2978 H 0.43276 0.71277 0.12243 0.0
C2979 C 0.41108 0.69189 0.16544 0.0
C2980 C 0.40357 0.68221 0.1266 0.0
C2981 C 0.40517 0.6923 0.17886 0.0
C2982 C 0.42356 0.69728 0.07128 0.0
C2983 C 0.41765 0.69502 0.08449 0.0
C2984 C 0.42478 0.70404 0.12343 0.0
C2985 C 0.40214 0.69013 0.15273 0.0
C2986 C 0.40837 0.69148 0.13853 0.0
C2987 C 0.42638 0.69652 0.09736 0.0
C2988 C 0.42009 0.69472 0.1115 0.0
H2989 H 0.36964 0.68732 0.16765 0.0
H2990 H 0.38 0.68666 0.14417 0.0
H2991 H 0.42272 0.70996 0.14565 0.0
H2992 H 0.45844 0.70549 0.08348 0.0
H2993 H 0.44825 0.70118 0.10635 0.0
C2994 C 0.02016 0.72457 0.82062 0.0
C2995 C 0.00594 0.719 0.81742 0.0
C2996 C 0.02577 0.72637 0.83488 0.0
C2997 C 0.01614 0.72624 0.87315 0.0
H2998 H 0.05414 0.71177 0.87877 0.0
C2999 C 0.0464 0.725 0.92936 0.0
C3000 C 0.05412 0.71276 0.93181 0.0
C3001 C 0.04022 0.72708 0.91566 0.0
C3002 C 0.04349 0.71578 0.87741 0.0
H3003 H 0.98616 0.71181 0.82673 0.0
H3004 H 0.996 0.71469 0.85152 0.0
H3005 H 0.04387 0.7139 0.85452 0.0
H3006 H 0.0608 0.69279 0.92199 0.0
H3007 H 0.04995 0.69634 0.8982 0.0
H3008 H 0.01561 0.72756 0.89613 0.0
C3009 C 0.00281 0.71781 0.84307 0.0
C3010 C 0.03768 0.71722 0.86348 0.0
C3011 C 0.99718 0.71609 0.82882 0.0
C3012 C 0.05517 0.70247 0.92039 0.0
C3013 C 0.04898 0.70453 0.90674 0.0
C3014 C 0.02197 0.72478 0.88713 0.0
C3015 C 0.0173 0.72256 0.84624 0.0
C3016 C 0.02387 0.72231 0.86115 0.0
C3017 C 0.04161 0.71695 0.90414 0.0
C3018 C 0.03563 0.71932 0.8894 0.0
H3019 H 0.02716 0.72707 0.81211 0.0
H3020 H 0.03688 0.73036 0.83696 0.0
H3021 H 0.00553 0.73032 0.87175 0.0
H3022 H 0.04551 0.73318 0.93793 0.0
H3023 H 0.03469 0.73681 0.914 0.0
C3024 C 0.64382 0.40549 0.69361 0.0
C3025 C 0.65543 0.41306 0.68788 0.0
C3026 C 0.63003 0.41069 0.69276 0.0
C3027 C 0.61126 0.44408 0.6881 0.0
H3028 H 0.57755 0.418 0.67956 0.0
C3029 C 0.55458 0.46461 0.67782 0.0
C3030 C 0.54313 0.4574 0.68416 0.0
C3031 C 0.56816 0.45896 0.67787 0.0
C3032 C 0.58685 0.4254 0.6821 0.0
H3033 H 0.66161 0.43195 0.67661 0.0
H3034 H 0.63754 0.44093 0.67501 0.0
H3035 H 0.60149 0.40859 0.68034 0.0
H3036 H 0.53699 0.43857 0.69552 0.0
H3037 H 0.56071 0.42871 0.6956 0.0
H3038 H 0.59665 0.46088 0.68989 0.0
C3039 C 0.63913 0.43108 0.68034 0.0
C3040 C 0.60056 0.42001 0.68255 0.0
C3041 C 0.65292 0.42588 0.68118 0.0
C3042 C 0.54553 0.4443 0.69039 0.0
C3043 C 0.55913 0.43865 0.69043 0.0
C3044 C 0.59756 0.44946 0.68764 0.0
C3045 C 0.62753 0.42358 0.68618 0.0
C3046 C 0.61293 0.42929 0.68556 0.0
C3047 C 0.57062 0.44597 0.68425 0.0
C3048 C 0.58519 0.44019 0.68464 0.0
H3049 H 0.64538 0.3956 0.69886 0.0
H3050 H 0.62137 0.40474 0.69751 0.0
H3051 H 0.62054 0.45149 0.6907 0.0
H3052 H 0.55303 0.47458 0.6727 0.0
H3053 H 0.57671 0.46474 0.67279 0.0
C3054 C 0.84406 0.59471 0.28846 0.0
C3055 C 0.84059 0.60742 0.28201 0.0
C3056 C 0.85703 0.58846 0.28592 0.0
C3057 C 0.89359 0.5963 0.27397 0.0
H3058 H 0.89314 0.55489 0.26721 0.0
C3059 C 0.94345 0.56664 0.25639 0.0
C3060 C 0.94582 0.55349 0.26251 0.0
C3061 C 0.9308 0.57364 0.2587 0.0
C3062 C 0.89349 0.56645 0.26924 0.0
H3063 H 0.8481 0.62359 0.26791 0.0
H3064 H 0.87074 0.61263 0.26346 0.0
H3065 H 0.87074 0.56627 0.27135 0.0
H3066 H 0.93706 0.53771 0.27636 0.0
H3067 H 0.91513 0.54991 0.28045 0.0
H3068 H 0.91639 0.59645 0.27194 0.0
C3069 C 0.86346 0.60757 0.27056 0.0
C3070 C 0.88064 0.57297 0.27161 0.0
C3071 C 0.85044 0.6138 0.27306 0.0
C3072 C 0.93543 0.54767 0.27124 0.0
C3073 C 0.92284 0.55466 0.27357 0.0
C3074 C 0.90647 0.58976 0.27164 0.0
C3075 C 0.86686 0.59479 0.27691 0.0
C3076 C 0.88054 0.58796 0.27409 0.0
C3077 C 0.92028 0.56765 0.26721 0.0
C3078 C 0.90659 0.57474 0.26934 0.0
H3079 H 0.83674 0.58953 0.29545 0.0
H3080 H 0.85942 0.57872 0.29114 0.0
H3081 H 0.89388 0.60786 0.276 0.0
H3082 H 0.9512 0.57134 0.24952 0.0
H3083 H 0.92912 0.58357 0.25354 0.0
C3084 C 0.18013 0.9913 0.30331 0.0
C3085 C 0.18442 0.00374 0.31206 0.0
C3086 C 0.16683 0.984 0.30479 0.0
C3087 C 0.13084 0.98926 0.31795 0.0
H3088 H 0.12729 0.94758 0.31517 0.0
C3089 C 0.07737 0.95689 0.32652 0.0
C3090 C 0.07378 0.94483 0.317 0.0
C3091 C 0.09096 0.96412 0.32663 0.0
C3092 C 0.12808 0.95923 0.31584 0.0
H3093 H 0.17815 0.01816 0.32937 0.0
H3094 H 0.15496 0.00535 0.332 0.0
H3095 H 0.15093 0.95998 0.31424 0.0
H3096 H 0.08152 0.93117 0.29985 0.0
H3097 H 0.10514 0.94375 0.30003 0.0
H3098 H 0.10796 0.98849 0.31941 0.0
C3099 C 0.16184 0.00134 0.32389 0.0
C3100 C 0.14163 0.96633 0.31532 0.0
C3101 C 0.17516 0.00863 0.32243 0.0
C3102 C 0.08403 0.94025 0.30752 0.0
C3103 C 0.09759 0.94746 0.30763 0.0
C3104 C 0.11728 0.98215 0.31847 0.0
C3105 C 0.15749 0.98898 0.31503 0.0
C3106 C 0.14316 0.98143 0.31624 0.0
C3107 C 0.10124 0.95945 0.31722 0.0
C3108 C 0.11572 0.96704 0.31728 0.0
H3109 H 0.18699 0.98725 0.2952 0.0
H3110 H 0.16374 0.97462 0.29767 0.0
H3111 H 0.13163 0.00091 0.31851 0.0
H3112 H 0.06977 0.9606 0.33407 0.0
H3113 H 0.09349 0.97323 0.33425 0.0
C3114 C 0.33292 0.03203 0.71619 0.0
C3115 C 0.32774 0.01981 0.72288 0.0
C3116 C 0.34675 0.03819 0.71987 0.0
C3117 C 0.37641 0.03984 0.74824 0.0
H3118 H 0.39958 0.05285 0.71772 0.0
C3119 C 0.4372 0.05657 0.75726 0.0
C3120 C 0.44228 0.0688 0.75051 0.0
C3121 C 0.42313 0.05074 0.75416 0.0
C3122 C 0.39319 0.04942 0.72639 0.0
H3123 H 0.33301 0.00457 0.73881 0.0
H3124 H 0.35722 0.01522 0.74509 0.0
H3125 H 0.37521 0.04247 0.71188 0.0
H3126 H 0.43656 0.08442 0.73514 0.0
H3127 H 0.41197 0.07437 0.72988 0.0
H3128 H 0.39447 0.04672 0.76273 0.0
C3129 C 0.35051 0.02015 0.73712 0.0
C3130 C 0.37921 0.04347 0.72304 0.0
C3131 C 0.33666 0.01399 0.73346 0.0
C3132 C 0.43295 0.07508 0.74063 0.0
C3133 C 0.4189 0.06922 0.7375 0.0
C3134 C 0.39041 0.04576 0.75158 0.0
C3135 C 0.35576 0.03228 0.73031 0.0
C3136 C 0.37063 0.03863 0.73393 0.0
C3137 C 0.41384 0.05696 0.7442 0.0
C3138 C 0.39896 0.05064 0.74069 0.0
H3139 H 0.3263 0.03683 0.70805 0.0
H3140 H 0.35036 0.04767 0.71458 0.0
H3141 H 0.37003 0.0364 0.75691 0.0
H3142 H 0.44408 0.05156 0.76502 0.0
H3143 H 0.41959 0.04121 0.75941 0.0
C3144 C 0.69529 0.64791 0.40522 0.0
C3145 C 0.69046 0.65956 0.41348 0.0
C3146 C 0.69421 0.634 0.41005 0.0
C3147 C 0.69065 0.61462 0.44323 0.0
H3148 H 0.67975 0.58171 0.4168 0.0
C3149 C 0.67936 0.55808 0.46319 0.0
C3150 C 0.68513 0.54653 0.45558 0.0
C3151 C 0.6795 0.57169 0.45769 0.0
C3152 C 0.68293 0.59078 0.42429 0.0
H3153 H 0.68047 0.66565 0.43319 0.0
H3154 H 0.67843 0.6414 0.44152 0.0
H3155 H 0.68092 0.60583 0.40789 0.0
H3156 H 0.69544 0.54021 0.43613 0.0
H3157 H 0.69565 0.56401 0.4265 0.0
H3158 H 0.69269 0.59962 0.45962 0.0
C3159 C 0.68328 0.64304 0.43141 0.0
C3160 C 0.68361 0.6046 0.41919 0.0
C3161 C 0.68437 0.65695 0.4266 0.0
C3162 C 0.69077 0.54884 0.44219 0.0
C3163 C 0.6909 0.56248 0.43667 0.0
C3164 C 0.68995 0.60083 0.44833 0.0
C3165 C 0.68826 0.63141 0.42325 0.0
C3166 C 0.68747 0.61669 0.42861 0.0
C3167 C 0.68539 0.5741 0.44444 0.0
C3168 C 0.68607 0.58875 0.43893 0.0
H3169 H 0.70005 0.64954 0.39507 0.0
H3170 H 0.6983 0.62531 0.40357 0.0
H3171 H 0.69392 0.62366 0.45074 0.0
H3172 H 0.67468 0.5566 0.4734 0.0
H3173 H 0.67492 0.58034 0.46381 0.0
C3174 C 0.72215 0.34089 0.0217 0.0
C3175 C 0.71117 0.33848 0.01069 0.0
C3176 C 0.7265 0.35487 0.027 0.0
C3177 C 0.71403 0.39169 0.02985 0.0
H3178 H 0.7545 0.40254 0.0387 0.0
C3179 C 0.73417 0.4501 0.04752 0.0
C3180 C 0.74484 0.45194 0.05886 0.0
C3181 C 0.73034 0.43643 0.04102 0.0
C3182 C 0.74315 0.39964 0.03641 0.0
H3183 H 0.69626 0.34891 0.99655 0.0
H3184 H 0.70392 0.37329 0.00575 0.0
H3185 H 0.7473 0.37836 0.02856 0.0
H3186 H 0.7601 0.44087 0.07202 0.0
H3187 H 0.75322 0.41703 0.06091 0.0
H3188 H 0.70985 0.41291 0.03782 0.0
C3189 C 0.70905 0.36436 0.01038 0.0
C3190 C 0.73902 0.38578 0.0306 0.0
C3191 C 0.70472 0.35038 0.00506 0.0
C3192 C 0.75171 0.43981 0.06343 0.0
C3193 C 0.74789 0.42616 0.05693 0.0
C3194 C 0.71815 0.40554 0.03568 0.0
C3195 C 0.71997 0.36677 0.02144 0.0
C3196 C 0.7244 0.38162 0.0273 0.0
C3197 C 0.7371 0.42428 0.0457 0.0
C3198 C 0.73276 0.40967 0.0391 0.0
H3199 H 0.72734 0.33198 0.0263 0.0
H3200 H 0.73482 0.35635 0.03564 0.0
H3201 H 0.70266 0.38877 0.02763 0.0
H3202 H 0.72857 0.45918 0.04382 0.0
H3203 H 0.7221 0.43539 0.03229 0.0
C3204 C 0.27561 0.83577 0.59226 0.0
C3205 C 0.28604 0.83707 0.60383 0.0
C3206 C 0.27148 0.84791 0.58533 0.0
C3207 C 0.2718 0.88761 0.59002 0.0
H3208 H 0.26668 0.88531 0.54839 0.0
C3209 C 0.2674 0.93783 0.55702 0.0
C3210 C 0.25738 0.93701 0.5451 0.0
C3211 C 0.27016 0.92561 0.56447 0.0
C3212 C 0.26788 0.88608 0.56003 0.0
H3213 H 0.30028 0.85219 0.61722 0.0
H3214 H 0.29322 0.87332 0.60502 0.0
H3215 H 0.27293 0.86405 0.56083 0.0
H3216 H 0.24213 0.92274 0.5319 0.0
H3217 H 0.24699 0.90139 0.54488 0.0
H3218 H 0.2669 0.9097 0.58919 0.0
C3219 C 0.28807 0.86294 0.60143 0.0
C3220 C 0.27147 0.87389 0.56717 0.0
C3221 C 0.29219 0.8508 0.60837 0.0
C3222 C 0.25008 0.9237 0.5409 0.0
C3223 C 0.25286 0.91147 0.54834 0.0
C3224 C 0.26824 0.8998 0.58288 0.0
C3225 C 0.2777 0.86164 0.5898 0.0
C3226 C 0.27353 0.87452 0.58225 0.0
C3227 C 0.26299 0.91227 0.56016 0.0
C3228 C 0.26631 0.8992 0.5678 0.0
H3229 H 0.2706 0.82536 0.58853 0.0
H3230 H 0.26331 0.84655 0.57654 0.0
H3231 H 0.27308 0.8884 0.60166 0.0
H3232 H 0.2734 0.94785 0.5604 0.0
H3233 H 0.27819 0.92655 0.57339 0.0
C3234 C 0.30747 0.17897 0.9974 0.0
C3235 C 0.31649 0.18322 0.00968 0.0
C3236 C 0.30876 0.16569 0.99004 0.0
C3237 C 0.32223 0.12973 0.99455 0.0
H3238 H 0.31922 0.12696 0.95284 0.0
C3239 C 0.31476 0.07541 0.96108 0.0
C3240 C 0.32216 0.07402 0.9484 0.0
C3241 C 0.31487 0.08867 0.96887 0.0
C3242 C 0.32021 0.12756 0.96449 0.0
H3243 H 0.334 0.17684 0.02381 0.0
H3244 H 0.3363 0.15367 0.01089 0.0
H3245 H 0.3181 0.1503 0.9657 0.0
H3246 H 0.33593 0.08539 0.93427 0.0
H3247 H 0.3361 0.10852 0.94785 0.0
H3248 H 0.32447 0.10698 0.99331 0.0
C3249 C 0.32813 0.16057 0.00706 0.0
C3250 C 0.31941 0.14092 0.97186 0.0
C3251 C 0.32686 0.17389 0.01441 0.0
C3252 C 0.3299 0.08615 0.94385 0.0
C3253 C 0.33 0.0994 0.95163 0.0
C3254 C 0.32299 0.11635 0.98717 0.0
C3255 C 0.31909 0.15633 0.99478 0.0
C3256 C 0.32033 0.14216 0.98697 0.0
C3257 C 0.32238 0.10085 0.96416 0.0
C3258 C 0.32195 0.1151 0.97205 0.0
H3259 H 0.29934 0.18588 0.99348 0.0
H3260 H 0.3015 0.16267 0.98073 0.0
H3261 H 0.32286 0.1303 0.0062 0.0
H3262 H 0.30854 0.06633 0.96478 0.0
H3263 H 0.30873 0.08946 0.97837 0.0
C3264 C 0.42362 0.68111 0.65304 0.0
C3265 C 0.4101 0.68664 0.65506 0.0
C3266 C 0.42907 0.68026 0.63939 0.0
C3267 C 0.41836 0.68036 0.60053 0.0
H3268 H 0.45886 0.69092 0.59732 0.0
C3269 C 0.44339 0.68872 0.54594 0.0
C3270 C 0.45708 0.6835 0.54412 0.0
C3271 C 0.43736 0.68863 0.55933 0.0
C3272 C 0.44757 0.68778 0.59804 0.0
H3273 H 0.39165 0.69548 0.64426 0.0
H3274 H 0.40125 0.69418 0.62048 0.0
H3275 H 0.44891 0.69164 0.6209 0.0
H3276 H 0.47494 0.67363 0.55486 0.0
H3277 H 0.46445 0.67351 0.57819 0.0
H3278 H 0.41704 0.67661 0.5776 0.0
C3279 C 0.40756 0.69032 0.62942 0.0
C3280 C 0.44186 0.68817 0.61157 0.0
C3281 C 0.40209 0.69115 0.64308 0.0
C3282 C 0.46449 0.67799 0.55595 0.0
C3283 C 0.45848 0.67791 0.56932 0.0
C3284 C 0.42407 0.67999 0.58697 0.0
C3285 C 0.42116 0.68495 0.62743 0.0
C3286 C 0.42719 0.68445 0.61299 0.0
C3287 C 0.44489 0.68333 0.57121 0.0
C3288 C 0.43875 0.68367 0.58558 0.0
H3289 H 0.43004 0.67745 0.66201 0.0
H3290 H 0.43947 0.67585 0.6382 0.0
H3291 H 0.40706 0.67724 0.60125 0.0
H3292 H 0.43746 0.69321 0.5371 0.0
H3293 H 0.42694 0.69303 0.56047 0.0
C3294 C 0.0219 0.71146 0.34306 0.0
C3295 C 0.01022 0.71873 0.33747 0.0
C3296 C 0.02728 0.7144 0.35728 0.0
C3297 C 0.02833 0.74192 0.38753 0.0
H3298 H 0.04004 0.71048 0.41011 0.0
C3299 C 0.04591 0.74973 0.44821 0.0
C3300 C 0.05811 0.74264 0.45284 0.0
C3301 C 0.03954 0.7468 0.43432 0.0
C3302 C 0.03694 0.71939 0.40391 0.0
H3303 H 0.99504 0.73483 0.34246 0.0
H3304 H 0.00435 0.73985 0.36732 0.0
H3305 H 0.02993 0.70544 0.38555 0.0
H3306 H 0.07301 0.7267 0.44658 0.0
H3307 H 0.06205 0.72174 0.42234 0.0
H3308 H 0.03538 0.75587 0.40593 0.0
C3309 C 0.00946 0.73198 0.36065 0.0
C3310 C 0.03115 0.71651 0.38982 0.0
C3311 C 0.00407 0.72905 0.34642 0.0
C3312 C 0.06372 0.73247 0.4433 0.0
C3313 C 0.05733 0.72951 0.42946 0.0
C3314 C 0.0341 0.7448 0.40165 0.0
C3315 C 0.02111 0.72467 0.36627 0.0
C3316 C 0.02687 0.72774 0.38141 0.0
C3317 C 0.04519 0.73665 0.42478 0.0
C3318 C 0.03857 0.73358 0.40996 0.0
H3319 H 0.02694 0.70349 0.33646 0.0
H3320 H 0.03641 0.70873 0.36118 0.0
H3321 H 0.02532 0.75085 0.3813 0.0
H3322 H 0.04139 0.7577 0.45525 0.0
H3323 H 0.03013 0.7524 0.43108 0.0
C3324 C 0.61913 0.2973 0.85534 0.0
C3325 C 0.61726 0.28787 0.84299 0.0
C3326 C 0.61303 0.29372 0.86812 0.0
C3327 C 0.58392 0.27061 0.8816 0.0
H3328 H 0.60448 0.27943 0.91867 0.0
C3329 C 0.56097 0.25223 0.934 0.0
C3330 C 0.56188 0.26237 0.9458 0.0
C3331 C 0.56852 0.25478 0.92179 0.0
C3332 C 0.59855 0.27701 0.9084 0.0
H3333 H 0.60773 0.26714 0.83447 0.0
H3334 H 0.59722 0.26086 0.85677 0.0
H3335 H 0.61615 0.28495 0.89669 0.0
H3336 H 0.57164 0.28306 0.9541 0.0
H3337 H 0.58482 0.28752 0.93278 0.0
H3338 H 0.5663 0.26278 0.89327 0.0
C3339 C 0.60322 0.27112 0.85653 0.0
C3340 C 0.60524 0.28017 0.89581 0.0
C3341 C 0.60931 0.27469 0.84376 0.0
C3342 C 0.57083 0.27495 0.94526 0.0
C3343 C 0.57838 0.27751 0.93303 0.0
C3344 C 0.57725 0.26745 0.89417 0.0
C3345 C 0.60492 0.28063 0.86884 0.0
C3346 C 0.59798 0.27704 0.88226 0.0
C3347 C 0.57716 0.26754 0.92108 0.0
C3348 C 0.58447 0.27063 0.90773 0.0
H3349 H 0.62517 0.30754 0.85512 0.0
H3350 H 0.6144 0.30136 0.87734 0.0
H3351 H 0.57792 0.26829 0.87136 0.0
H3352 H 0.55437 0.24231 0.93418 0.0
H3353 H 0.56756 0.24675 0.91288 0.0
C3354 C 0.00211 0.32537 0.18014 0.0
C3355 C 0.01314 0.31594 0.1825 0.0
C3356 C 0.99573 0.32644 0.16634 0.0
C3357 C 0.98996 0.30613 0.13115 0.0
H3358 H 0.97885 0.34273 0.11773 0.0
C3359 C 0.96661 0.31157 0.07325 0.0
C3360 C 0.95447 0.31978 0.07175 0.0
C3361 C 0.97457 0.31173 0.08642 0.0
C3362 C 0.9818 0.33242 0.12137 0.0
H3363 H 0.02637 0.30051 0.17211 0.0
H3364 H 0.01539 0.30252 0.14803 0.0
H3365 H 0.99134 0.34189 0.14136 0.0
H3366 H 0.94147 0.33496 0.08278 0.0
H3367 H 0.95525 0.33509 0.10583 0.0
H3368 H 0.98035 0.29665 0.11121 0.0
C3369 C 0.01148 0.30891 0.15689 0.0
C3370 C 0.98894 0.33193 0.13491 0.0
C3371 C 0.01784 0.30782 0.17069 0.0
C3372 C 0.95067 0.32839 0.08364 0.0
C3373 C 0.95866 0.32859 0.0968 0.0
C3374 C 0.98285 0.30663 0.1176 0.0
C3375 C 1.00026 0.31813 0.15457 0.0
C3376 C 0.99305 0.31877 0.13999 0.0
C3377 C 0.97061 0.32014 0.09838 0.0
C3378 C 0.97862 0.31976 0.11258 0.0
H3379 H 0.99822 0.33177 0.189 0.0
H3380 H 0.98701 0.33352 0.16496 0.0
H3381 H 0.99274 0.29578 0.13481 0.0
H3382 H 0.96975 0.30473 0.06433 0.0
H3383 H 0.98382 0.30523 0.08726 0.0
loop_
_geom_bond_atom_site_label_1
_geom_bond_atom_site_label_2
_geom_bond_distance
_geom_bond_site_symmetry_2
_ccdc_geom_bond_type
O0 Cd1 2.300 . S
O0 C7 1.275 . S
Cd1 O0 2.300 . S
Cd1 O9 2.381 . S
Cd1 O10 2.378 . S
O2 Cd3 2.385 . S
O2 C7 1.255 . S
Cd3 O2 2.385 . S
Cd3 O4 2.317 . S
O4 Cd3 2.317 . S
O4 C5 1.232 . S
C5 O4 1.232 . S
C5 O6 1.218 . S
O6 C5 1.218 . S
C7 O0 1.275 . S
C7 O2 1.255 . S
C8 O9 1.258 . S
C8 O10 1.256 . S
O9 Cd1 2.381 . S
O9 C8 1.258 . S
O10 Cd1 2.378 . S
O10 C8 1.256 . S
O11 Cd12 2.300 . S
O11 C18 1.275 . S
Cd12 O11 2.300 . S
Cd12 O20 2.381 . S
Cd12 O21 2.378 . S
O13 Cd14 2.385 . S
O13 C18 1.255 . S
Cd14 O13 2.385 . S
Cd14 O15 2.317 . S
O15 Cd14 2.317 . S
O15 C16 1.232 . S
C16 O15 1.232 . S
C16 O17 1.218 . S
O17 C16 1.218 . S
C18 O11 1.275 . S
C18 O13 1.255 . S
C19 O20 1.258 . S
C19 O21 1.256 . S
O20 Cd12 2.381 . S
O20 C19 1.258 . S
O21 Cd12 2.378 . S
O21 C19 1.256 . S
O22 Cd23 2.300 . S
O22 C29 1.275 . S
Cd23 O22 2.300 . S
Cd23 O31 2.381 1_565 S
Cd23 O32 2.378 . S
O24 Cd25 2.385 . S
O24 C29 1.255 . S
Cd25 O24 2.385 . S
Cd25 O26 2.317 . S
O26 Cd25 2.317 . S
O26 C27 1.232 . S
C27 O26 1.232 . S
C27 O28 1.218 . S
O28 C27 1.218 . S
C29 O22 1.275 . S
C29 O24 1.255 . S
C30 O31 1.258 . S
C30 O32 1.256 1_545 S
O31 Cd23 2.381 1_545 S
O31 C30 1.258 . S
O32 Cd23 2.378 . S
O32 C30 1.256 1_565 S
O33 Cd34 2.300 . S
O33 C40 1.275 . S
Cd34 O33 2.300 . S
Cd34 O42 2.381 1_545 S
Cd34 O43 2.378 . S
O35 Cd36 2.385 . S
O35 C40 1.255 . S
Cd36 O35 2.385 . S
Cd36 O37 2.317 . S
O37 Cd36 2.317 . S
O37 C38 1.232 . S
C38 O37 1.232 . S
C38 O39 1.218 . S
O39 C38 1.218 . S
C40 O33 1.275 . S
C40 O35 1.255 . S
C41 O42 1.258 . S
C41 O43 1.256 1_565 S
O42 Cd34 2.381 1_565 S
O42 C41 1.258 . S
O43 Cd34 2.378 . S
O43 C41 1.256 1_545 S
O44 Cd45 2.300 . S
O44 C51 1.275 . S
Cd45 O44 2.300 . S
Cd45 O53 2.381 . S
Cd45 O54 2.378 . S
O46 Cd47 2.385 . S
O46 C51 1.255 . S
Cd47 O46 2.385 . S
Cd47 O48 2.317 . S
O48 Cd47 2.317 . S
O48 C49 1.232 . S
C49 O48 1.232 . S
C49 O50 1.218 . S
O50 C49 1.218 . S
C51 O44 1.275 . S
C51 O46 1.255 . S
C52 O53 1.258 . S
C52 O54 1.256 . S
O53 Cd45 2.381 . S
O53 C52 1.258 . S
O54 Cd45 2.378 . S
O54 C52 1.256 . S
O55 Cd56 2.300 . S
O55 C62 1.275 . S
Cd56 O55 2.300 . S
Cd56 O64 2.381 1_554 S
Cd56 O65 2.378 . S
O57 Cd58 2.385 . S
O57 C62 1.255 . S
Cd58 O57 2.385 . S
Cd58 O59 2.317 . S
O59 Cd58 2.317 . S
O59 C60 1.232 . S
C60 O59 1.232 . S
C60 O61 1.218 . S
O61 C60 1.218 . S
C62 O55 1.275 . S
C62 O57 1.255 . S
C63 O64 1.258 . S
C63 O65 1.256 1_556 S
O64 Cd56 2.381 1_556 S
O64 C63 1.258 . S
O65 Cd56 2.378 . S
O65 C63 1.256 1_554 S
O66 Cd67 2.300 . S
O66 C73 1.275 . S
Cd67 O66 2.300 . S
Cd67 O75 2.381 . S
Cd67 O76 2.378 . S
O68 Cd69 2.385 . S
O68 C73 1.255 . S
Cd69 O68 2.385 . S
Cd69 O70 2.317 . S
O70 Cd69 2.317 . S
O70 C71 1.232 . S
C71 O70 1.232 . S
C71 O72 1.218 . S
O72 C71 1.218 . S
C73 O66 1.275 . S
C73 O68 1.255 . S
C74 O75 1.258 . S
C74 O76 1.256 . S
O75 Cd67 2.381 . S
O75 C74 1.258 . S
O76 Cd67 2.378 . S
O76 C74 1.256 . S
O77 Cd78 2.300 . S
O77 C84 1.275 . S
Cd78 O77 2.300 . S
Cd78 O86 2.381 1_556 S
Cd78 O87 2.378 . S
O79 Cd80 2.385 . S
O79 C84 1.255 . S
Cd80 O79 2.385 . S
Cd80 O81 2.317 . S
O81 Cd80 2.317 . S
O81 C82 1.232 . S
C82 O81 1.232 . S
C82 O83 1.218 . S
O83 C82 1.218 . S
C84 O77 1.275 . S
C84 O79 1.255 . S
C85 O86 1.258 . S
C85 O87 1.256 1_554 S
O86 Cd78 2.381 1_554 S
O86 C85 1.258 . S
O87 Cd78 2.378 . S
O87 C85 1.256 1_556 S
O88 Cd89 2.300 . S
O88 C95 1.275 . S
Cd89 O88 2.300 . S
Cd89 O97 2.381 . S
Cd89 O98 2.378 . S
O90 Cd91 2.385 . S
O90 C95 1.255 . S
Cd91 O90 2.385 . S
Cd91 O92 2.317 . S
O92 Cd91 2.317 . S
O92 C93 1.232 . S
C93 O92 1.232 . S
C93 O94 1.218 . S
O94 C93 1.218 . S
C95 O88 1.275 . S
C95 O90 1.255 . S
C96 O97 1.258 . S
C96 O98 1.256 . S
O97 Cd89 2.381 . S
O97 C96 1.258 . S
O98 Cd89 2.378 . S
O98 C96 1.256 . S
O99 Cd100 2.300 . S
O99 C106 1.275 . S
Cd100 O99 2.300 . S
Cd100 O108 2.381 1_455 S
Cd100 O109 2.378 . S
O101 Cd102 2.385 . S
O101 C106 1.255 . S
Cd102 O101 2.385 . S
Cd102 O103 2.317 . S
O103 Cd102 2.317 . S
O103 C104 1.232 . S
C104 O103 1.232 . S
C104 O105 1.218 . S
O105 C104 1.218 . S
C106 O99 1.275 . S
C106 O101 1.255 . S
C107 O108 1.258 . S
C107 O109 1.256 1_655 S
O108 Cd100 2.381 1_655 S
O108 C107 1.258 . S
O109 Cd100 2.378 . S
O109 C107 1.256 1_455 S
O110 Cd111 2.300 . S
O110 C117 1.275 . S
Cd111 O110 2.300 . S
Cd111 O119 2.381 . S
Cd111 O120 2.378 . S
O112 Cd113 2.385 . S
O112 C117 1.255 . S
Cd113 O112 2.385 . S
Cd113 O114 2.317 . S
O114 Cd113 2.317 . S
O114 C115 1.232 . S
C115 O114 1.232 . S
C115 O116 1.218 . S
O116 C115 1.218 . S
C117 O110 1.275 . S
C117 O112 1.255 . S
C118 O119 1.258 . S
C118 O120 1.256 . S
O119 Cd111 2.381 . S
O119 C118 1.258 . S
O120 Cd111 2.378 . S
O120 C118 1.256 . S
O121 Cd122 2.300 . S
O121 C128 1.275 . S
Cd122 O121 2.300 . S
Cd122 O130 2.381 1_655 S
Cd122 O131 2.378 . S
O123 Cd124 2.385 . S
O123 C128 1.255 . S
Cd124 O123 2.385 . S
Cd124 O125 2.317 . S
O125 Cd124 2.317 . S
O125 C126 1.232 . S
C126 O125 1.232 . S
C126 O127 1.218 . S
O127 C126 1.218 . S
C128 O121 1.275 . S
C128 O123 1.255 . S
C129 O130 1.258 . S
C129 O131 1.256 1_455 S
O130 Cd122 2.381 1_455 S
O130 C129 1.258 . S
O131 Cd122 2.378 . S
O131 C129 1.256 1_655 S
O132 Cd133 2.300 . S
O132 C139 1.275 . S
Cd133 O132 2.300 . S
Cd133 O141 2.381 . S
Cd133 O142 2.378 . S
O134 Cd135 2.385 . S
O134 C139 1.255 . S
Cd135 O134 2.385 . S
Cd135 O136 2.317 . S
O136 Cd135 2.317 . S
O136 C137 1.232 . S
C137 O136 1.232 . S
C137 O138 1.218 . S
O138 C137 1.218 . S
C139 O132 1.275 . S
C139 O134 1.255 . S
C140 O141 1.258 . S
C140 O142 1.256 . S
O141 Cd133 2.381 . S
O141 C140 1.258 . S
O142 Cd133 2.378 . S
O142 C140 1.256 . S
O143 Cd144 2.300 . S
O143 C150 1.275 . S
Cd144 O143 2.300 . S
Cd144 O152 2.381 . S
Cd144 O153 2.378 . S
O145 Cd146 2.385 . S
O145 C150 1.255 . S
Cd146 O145 2.385 . S
Cd146 O147 2.317 . S
O147 Cd146 2.317 . S
O147 C148 1.232 . S
C148 O147 1.232 . S
C148 O149 1.218 . S
O149 C148 1.218 . S
C150 O143 1.275 . S
C150 O145 1.255 . S
C151 O152 1.258 . S
C151 O153 1.256 . S
O152 Cd144 2.381 . S
O152 C151 1.258 . S
O153 Cd144 2.378 . S
O153 C151 1.256 . S
O154 Cd155 2.300 1_545 S
O154 C161 1.275 . S
Cd155 O154 2.300 1_565 S
Cd155 O163 2.381 1_565 S
Cd155 O164 2.378 . S
O156 Cd157 2.385 . S
O156 C161 1.255 1_565 S
Cd157 O156 2.385 . S
Cd157 O158 2.317 . S
O158 Cd157 2.317 . S
O158 C159 1.232 . S
C159 O158 1.232 . S
C159 O160 1.218 . S
O160 C159 1.218 . S
C161 O154 1.275 . S
C161 O156 1.255 1_545 S
C162 O163 1.258 1_565 S
C162 O164 1.256 . S
O163 Cd155 2.381 1_545 S
O163 C162 1.258 1_545 S
O164 Cd155 2.378 . S
O164 C162 1.256 . S
O165 Cd166 2.300 1_565 S
O165 C172 1.275 . S
Cd166 O165 2.300 1_545 S
Cd166 O174 2.381 1_545 S
Cd166 O175 2.378 . S
O167 Cd168 2.385 . S
O167 C172 1.255 1_545 S
Cd168 O167 2.385 . S
Cd168 O169 2.317 . S
O169 Cd168 2.317 . S
O169 C170 1.232 . S
C170 O169 1.232 . S
C170 O171 1.218 . S
O171 C170 1.218 . S
C172 O165 1.275 . S
C172 O167 1.255 1_565 S
C173 O174 1.258 1_545 S
C173 O175 1.256 . S
O174 Cd166 2.381 1_565 S
O174 C173 1.258 1_565 S
O175 Cd166 2.378 . S
O175 C173 1.256 . S
O176 Cd177 2.300 . S
O176 C183 1.275 . S
Cd177 O176 2.300 . S
Cd177 O185 2.381 . S
Cd177 O186 2.378 . S
O178 Cd179 2.385 . S
O178 C183 1.255 . S
Cd179 O178 2.385 . S
Cd179 O180 2.317 . S
O180 Cd179 2.317 . S
O180 C181 1.232 . S
C181 O180 1.232 . S
C181 O182 1.218 . S
O182 C181 1.218 . S
C183 O176 1.275 . S
C183 O178 1.255 . S
C184 O185 1.258 . S
C184 O186 1.256 . S
O185 Cd177 2.381 . S
O185 C184 1.258 . S
O186 Cd177 2.378 . S
O186 C184 1.256 . S
O187 Cd188 2.300 1_556 S
O187 C194 1.275 . S
Cd188 O187 2.300 1_554 S
Cd188 O196 2.381 1_554 S
Cd188 O197 2.378 . S
O189 Cd190 2.385 . S
O189 C194 1.255 1_554 S
Cd190 O189 2.385 . S
Cd190 O191 2.317 . S
O191 Cd190 2.317 . S
O191 C192 1.232 . S
C192 O191 1.232 . S
C192 O193 1.218 . S
O193 C192 1.218 . S
C194 O187 1.275 . S
C194 O189 1.255 1_556 S
C195 O196 1.258 1_554 S
C195 O197 1.256 . S
O196 Cd188 2.381 1_556 S
O196 C195 1.258 1_556 S
O197 Cd188 2.378 . S
O197 C195 1.256 . S
O198 Cd199 2.300 . S
O198 C205 1.275 . S
Cd199 O198 2.300 . S
Cd199 O207 2.381 . S
Cd199 O208 2.378 . S
O200 Cd201 2.385 . S
O200 C205 1.255 . S
Cd201 O200 2.385 . S
Cd201 O202 2.317 . S
O202 Cd201 2.317 . S
O202 C203 1.232 . S
C203 O202 1.232 . S
C203 O204 1.218 . S
O204 C203 1.218 . S
C205 O198 1.275 . S
C205 O200 1.255 . S
C206 O207 1.258 . S
C206 O208 1.256 . S
O207 Cd199 2.381 . S
O207 C206 1.258 . S
O208 Cd199 2.378 . S
O208 C206 1.256 . S
O209 Cd210 2.300 1_554 S
O209 C216 1.275 . S
Cd210 O209 2.300 1_556 S
Cd210 O218 2.381 1_556 S
Cd210 O219 2.378 . S
O211 Cd212 2.385 . S
O211 C216 1.255 1_556 S
Cd212 O211 2.385 . S
Cd212 O213 2.317 . S
O213 Cd212 2.317 . S
O213 C214 1.232 . S
C214 O213 1.232 . S
C214 O215 1.218 . S
O215 C214 1.218 . S
C216 O209 1.275 . S
C216 O211 1.255 1_554 S
C217 O218 1.258 1_556 S
C217 O219 1.256 . S
O218 Cd210 2.381 1_554 S
O218 C217 1.258 1_554 S
O219 Cd210 2.378 . S
O219 C217 1.256 . S
O220 Cd221 2.300 . S
O220 C227 1.275 . S
Cd221 O220 2.300 . S
Cd221 O229 2.381 . S
Cd221 O230 2.378 . S
O222 Cd223 2.385 . S
O222 C227 1.255 . S
Cd223 O222 2.385 . S
Cd223 O224 2.317 . S
O224 Cd223 2.317 . S
O224 C225 1.232 . S
C225 O224 1.232 . S
C225 O226 1.218 . S
O226 C225 1.218 . S
C227 O220 1.275 . S
C227 O222 1.255 . S
C228 O229 1.258 . S
C228 O230 1.256 . S
O229 Cd221 2.381 . S
O229 C228 1.258 . S
O230 Cd221 2.378 . S
O230 C228 1.256 . S
O231 Cd232 2.300 1_655 S
O231 C238 1.275 . S
Cd232 O231 2.300 1_455 S
Cd232 O240 2.381 1_455 S
Cd232 O241 2.378 . S
O233 Cd234 2.385 . S
O233 C238 1.255 1_455 S
Cd234 O233 2.385 . S
Cd234 O235 2.317 . S
O235 Cd234 2.317 . S
O235 C236 1.232 . S
C236 O235 1.232 . S
C236 O237 1.218 . S
O237 C236 1.218 . S
C238 O231 1.275 . S
C238 O233 1.255 1_655 S
C239 O240 1.258 1_455 S
C239 O241 1.256 . S
O240 Cd232 2.381 1_655 S
O240 C239 1.258 1_655 S
O241 Cd232 2.378 . S
O241 C239 1.256 . S
O242 Cd243 2.300 . S
O242 C249 1.275 . S
Cd243 O242 2.300 . S
Cd243 O251 2.381 . S
Cd243 O252 2.378 . S
O244 Cd245 2.385 . S
O244 C249 1.255 . S
Cd245 O244 2.385 . S
Cd245 O246 2.317 . S
O246 Cd245 2.317 . S
O246 C247 1.232 . S
C247 O246 1.232 . S
C247 O248 1.218 . S
O248 C247 1.218 . S
C249 O242 1.275 . S
C249 O244 1.255 . S
C250 O251 1.258 . S
C250 O252 1.256 . S
O251 Cd243 2.381 . S
O251 C250 1.258 . S
O252 Cd243 2.378 . S
O252 C250 1.256 . S
O253 Cd254 2.300 1_455 S
O253 C260 1.275 . S
Cd254 O253 2.300 1_655 S
Cd254 O262 2.381 1_655 S
Cd254 O263 2.378 . S
O255 Cd256 2.385 . S
O255 C260 1.255 1_655 S
Cd256 O255 2.385 . S
Cd256 O257 2.317 . S
O257 Cd256 2.317 . S
O257 C258 1.232 . S
C258 O257 1.232 . S
C258 O259 1.218 . S
O259 C258 1.218 . S
C260 O253 1.275 . S
C260 O255 1.255 1_455 S
C261 O262 1.258 1_655 S
C261 O263 1.256 . S
O262 Cd254 2.381 1_455 S
O262 C261 1.258 1_455 S
O263 Cd254 2.378 . S
O263 C261 1.256 . S
C264 C265 1.264 . S
C264 C269 1.479 . S
C264 C274 1.465 . S
C265 C264 1.264 . S
C265 C267 1.339 . S
C265 H292 0.931 . S
C266 C267 1.395 . S
C266 C268 1.320 . S
C267 C265 1.339 . S
C267 C266 1.395 . S
C267 H293 0.929 . S
C268 C266 1.320 . S
C268 C269 1.405 . S
C268 H294 0.930 . S
C269 C264 1.479 . S
C269 C268 1.405 . S
C269 H295 0.931 . S
U270 O271 2.454 . S
U270 O272 2.458 . S
U270 C273 2.984 . S
U270 C274 2.847 . S
U270 C287 2.882 . S
U270 O288 2.441 . S
U270 O289 2.420 . S
U270 O290 2.455 . S
U270 O291 2.449 . S
O271 U270 2.454 . S
O271 C273 1.353 . S
O272 U270 2.458 . S
O272 C273 1.286 . S
C273 U270 2.984 . S
C273 O271 1.353 . S
C273 O272 1.286 . S
C273 C275 1.363 . S
C274 C264 1.465 . S
C274 U270 2.847 . S
C274 O288 1.249 . S
C274 O289 1.202 . S
C275 C273 1.363 . S
C275 C277 1.408 . S
C275 C280 1.342 . S
C276 C277 1.310 . S
C276 C279 1.461 . S
C276 H296 0.932 . S
C277 C275 1.408 . S
C277 C276 1.310 . S
C277 H297 0.930 . S
C278 C279 1.474 . S
C278 C280 1.285 . S
C278 H298 0.929 . S
C279 C276 1.461 . S
C279 C278 1.474 . S
C280 C275 1.342 . S
C280 C278 1.285 . S
C280 H299 0.930 . S
C281 C284 1.424 . S
C281 C286 1.245 . S
C281 C287 1.428 . S
C282 C285 1.260 . S
C282 C286 1.477 . S
C282 H300 0.932 . S
C283 C284 1.384 . S
C283 C285 1.479 . S
C283 H301 0.929 . S
C284 C281 1.424 . S
C284 C283 1.384 . S
C284 H302 0.928 . S
C285 C282 1.260 . S
C285 C283 1.479 . S
C286 C281 1.245 . S
C286 C282 1.477 . S
C286 H303 0.932 . S
C287 U270 2.882 . S
C287 C281 1.428 . S
C287 O290 1.301 . S
C287 O291 1.282 . S
O288 U270 2.441 . S
O288 C274 1.249 . S
O289 U270 2.420 . S
O289 C274 1.202 . S
O290 U270 2.455 . S
O290 C287 1.301 . S
O291 U270 2.449 . S
O291 C287 1.282 . S
H292 C265 0.931 . S
H293 C267 0.929 . S
H294 C268 0.930 . S
H295 C269 0.931 . S
H296 C276 0.932 . S
H297 C277 0.930 . S
H298 C278 0.929 . S
H299 C280 0.930 . S
H300 C282 0.932 . S
H301 C283 0.929 . S
H302 C284 0.928 . S
H303 C286 0.932 . S
C304 C305 1.264 . S
C304 C309 1.479 . S
C304 C314 1.465 . S
C305 C304 1.264 . S
C305 C307 1.339 . S
C305 H332 0.931 . S
C306 C307 1.395 . S
C306 C308 1.320 . S
C307 C305 1.339 . S
C307 C306 1.395 . S
C307 H333 0.929 . S
C308 C306 1.320 . S
C308 C309 1.405 . S
C308 H334 0.930 . S
C309 C304 1.479 . S
C309 C308 1.405 . S
C309 H335 0.931 . S
U310 O311 2.454 . S
U310 O312 2.458 . S
U310 C313 2.984 . S
U310 C314 2.847 . S
U310 C327 2.882 . S
U310 O328 2.441 . S
U310 O329 2.420 . S
U310 O330 2.455 . S
U310 O331 2.449 . S
O311 U310 2.454 . S
O311 C313 1.353 . S
O312 U310 2.458 . S
O312 C313 1.286 . S
C313 U310 2.984 . S
C313 O311 1.353 . S
C313 O312 1.286 . S
C313 C315 1.363 . S
C314 C304 1.465 . S
C314 U310 2.847 . S
C314 O328 1.249 . S
C314 O329 1.202 . S
C315 C313 1.363 . S
C315 C317 1.408 . S
C315 C320 1.342 . S
C316 C317 1.310 . S
C316 C319 1.461 . S
C316 H336 0.932 . S
C317 C315 1.408 . S
C317 C316 1.310 . S
C317 H337 0.930 . S
C318 C319 1.474 . S
C318 C320 1.285 . S
C318 H338 0.929 . S
C319 C316 1.461 . S
C319 C318 1.474 . S
C320 C315 1.342 . S
C320 C318 1.285 . S
C320 H339 0.930 . S
C321 C324 1.424 . S
C321 C326 1.245 . S
C321 C327 1.428 . S
C322 C325 1.260 . S
C322 C326 1.477 . S
C322 H340 0.932 . S
C323 C324 1.384 . S
C323 C325 1.479 . S
C323 H341 0.929 . S
C324 C321 1.424 . S
C324 C323 1.384 . S
C324 H342 0.928 . S
C325 C322 1.260 . S
C325 C323 1.479 . S
C326 C321 1.245 . S
C326 C322 1.477 . S
C326 H343 0.932 . S
C327 U310 2.882 . S
C327 C321 1.428 . S
C327 O330 1.301 . S
C327 O331 1.282 . S
O328 U310 2.441 . S
O328 C314 1.249 . S
O329 U310 2.420 . S
O329 C314 1.202 . S
O330 U310 2.455 . S
O330 C327 1.301 . S
O331 U310 2.449 . S
O331 C327 1.282 . S
H332 C305 0.931 . S
H333 C307 0.929 . S
H334 C308 0.930 . S
H335 C309 0.931 . S
H336 C316 0.932 . S
H337 C317 0.930 . S
H338 C318 0.929 . S
H339 C320 0.930 . S
H340 C322 0.932 . S
H341 C323 0.929 . S
H342 C324 0.928 . S
H343 C326 0.932 . S
C344 C345 1.264 . S
C344 C349 1.479 . S
C344 C354 1.465 . S
C345 C344 1.264 . S
C345 C347 1.339 . S
C345 H372 0.931 . S
C346 C347 1.395 . S
C346 C348 1.320 . S
C347 C345 1.339 . S
C347 C346 1.395 . S
C347 H373 0.929 . S
C348 C346 1.320 . S
C348 C349 1.405 . S
C348 H374 0.930 . S
C349 C344 1.479 . S
C349 C348 1.405 . S
C349 H375 0.931 . S
U350 O351 2.461 . S
U350 O352 2.470 . S
U350 C353 2.995 . S
U350 C354 2.836 1_545 S
U350 C367 2.883 . S
U350 O368 2.434 1_545 S
U350 O369 2.408 1_545 S
U350 O370 2.461 . S
U350 O371 2.444 1_545 S
O351 U350 2.461 . S
O351 C353 1.353 . S
O352 U350 2.470 . S
O352 C353 1.286 . S
C353 U350 2.995 . S
C353 O351 1.353 . S
C353 O352 1.286 . S
C353 C355 1.363 . S
C354 C344 1.465 . S
C354 U350 2.836 1_565 S
C354 O368 1.249 . S
C354 O369 1.202 . S
C355 C353 1.363 . S
C355 C357 1.408 . S
C355 C360 1.342 . S
C356 C357 1.310 . S
C356 C359 1.461 . S
C356 H376 0.932 . S
C357 C355 1.408 . S
C357 C356 1.310 . S
C357 H377 0.930 . S
C358 C359 1.474 . S
C358 C360 1.285 . S
C358 H378 0.929 . S
C359 C356 1.461 . S
C359 C358 1.474 . S
C360 C355 1.342 . S
C360 C358 1.285 . S
C360 H379 0.930 . S
C361 C364 1.424 1_545 S
C361 C366 1.245 . S
C361 C367 1.428 . S
C362 C365 1.260 . S
C362 C366 1.477 . S
C362 H380 0.932 . S
C363 C364 1.384 . S
C363 C365 1.479 1_565 S
C363 H381 0.929 . S
C364 C361 1.424 1_565 S
C364 C363 1.384 . S
C364 H382 0.928 . S
C365 C362 1.260 . S
C365 C363 1.479 1_545 S
C366 C361 1.245 . S
C366 C362 1.477 . S
C366 H383 0.932 . S
C367 U350 2.883 . S
C367 C361 1.428 . S
C367 O370 1.301 . S
C367 O371 1.282 1_545 S
O368 U350 2.434 1_565 S
O368 C354 1.249 . S
O369 U350 2.408 1_565 S
O369 C354 1.202 . S
O370 U350 2.461 . S
O370 C367 1.301 . S
O371 U350 2.444 1_565 S
O371 C367 1.282 1_565 S
H372 C345 0.931 . S
H373 C347 0.929 . S
H374 C348 0.930 . S
H375 C349 0.931 . S
H376 C356 0.932 . S
H377 C357 0.930 . S
H378 C358 0.929 . S
H379 C360 0.930 . S
H380 C362 0.932 . S
H381 C363 0.929 . S
H382 C364 0.928 . S
H383 C366 0.932 . S
C384 C385 1.264 . S
C384 C389 1.479 . S
C384 C394 1.465 . S
C385 C384 1.264 . S
C385 C387 1.339 . S
C385 H412 0.931 . S
C386 C387 1.395 . S
C386 C388 1.320 . S
C387 C385 1.339 . S
C387 C386 1.395 . S
C387 H413 0.929 . S
C388 C386 1.320 . S
C388 C389 1.405 . S
C388 H414 0.930 . S
C389 C384 1.479 . S
C389 C388 1.405 . S
C389 H415 0.931 . S
U390 O391 2.492 . S
U390 O392 2.528 . S
U390 C393 3.045 . S
U390 C394 2.784 1_565 S
U390 C407 2.885 . S
U390 O408 2.399 1_565 S
U390 O409 2.350 1_565 S
U390 O410 2.490 . S
U390 O411 2.422 1_565 S
O391 U390 2.492 . S
O391 C393 1.353 . S
O392 U390 2.528 . S
O392 C393 1.286 . S
C393 U390 3.045 . S
C393 O391 1.353 . S
C393 O392 1.286 . S
C393 C395 1.363 . S
C394 C384 1.465 . S
C394 U390 2.784 1_545 S
C394 O408 1.249 . S
C394 O409 1.202 . S
C395 C393 1.363 . S
C395 C397 1.408 . S
C395 C400 1.342 . S
C396 C397 1.310 . S
C396 C399 1.461 . S
C396 H416 0.932 . S
C397 C395 1.408 . S
C397 C396 1.310 . S
C397 H417 0.930 . S
C398 C399 1.474 . S
C398 C400 1.285 . S
C398 H418 0.929 . S
C399 C396 1.461 . S
C399 C398 1.474 . S
C400 C395 1.342 . S
C400 C398 1.285 . S
C400 H419 0.930 . S
C401 C404 1.422 1_565 S
C401 C406 1.247 . S
C401 C407 1.429 . S
C402 C405 1.260 1_565 S
C402 C406 1.477 . S
C402 H420 0.932 . S
C403 C404 1.384 . S
C403 C405 1.479 . S
C403 H421 0.929 . S
C404 C401 1.422 1_545 S
C404 C403 1.384 . S
C404 H422 0.928 . S
C405 C402 1.260 1_545 S
C405 C403 1.479 . S
C406 C401 1.247 . S
C406 C402 1.477 . S
C406 H423 0.932 . S
C407 U390 2.885 . S
C407 C401 1.429 . S
C407 O410 1.315 . S
C407 O411 1.268 1_565 S
O408 U390 2.399 1_545 S
O408 C394 1.249 . S
O409 U390 2.350 1_545 S
O409 C394 1.202 . S
O410 U390 2.490 . S
O410 C407 1.315 . S
O411 U390 2.422 1_545 S
O411 C407 1.268 1_545 S
H412 C385 0.931 . S
H413 C387 0.929 . S
H414 C388 0.930 . S
H415 C389 0.931 . S
H416 C396 0.932 . S
H417 C397 0.930 . S
H418 C398 0.929 . S
H419 C400 0.930 . S
H420 C402 0.932 . S
H421 C403 0.929 . S
H422 C404 0.928 . S
H423 C406 0.932 . S
C424 C425 1.264 . S
C424 C429 1.479 . S
C424 C434 1.465 . S
C425 C424 1.264 . S
C425 C427 1.339 . S
C425 H452 0.931 . S
C426 C427 1.395 . S
C426 C428 1.320 . S
C427 C425 1.339 . S
C427 C426 1.395 . S
C427 H453 0.929 . S
C428 C426 1.320 . S
C428 C429 1.405 . S
C428 H454 0.930 . S
C429 C424 1.479 . S
C429 C428 1.405 . S
C429 H455 0.931 . S
U430 O431 2.454 . S
U430 O432 2.458 . S
U430 C433 2.984 . S
U430 C434 2.847 . S
U430 C447 2.882 . S
U430 O448 2.441 . S
U430 O449 2.420 . S
U430 O450 2.455 . S
U430 O451 2.449 . S
O431 U430 2.454 . S
O431 C433 1.353 . S
O432 U430 2.458 . S
O432 C433 1.286 . S
C433 U430 2.984 . S
C433 O431 1.353 . S
C433 O432 1.286 . S
C433 C435 1.363 . S
C434 C424 1.465 . S
C434 U430 2.847 . S
C434 O448 1.249 . S
C434 O449 1.202 . S
C435 C433 1.363 . S
C435 C437 1.408 . S
C435 C440 1.342 . S
C436 C437 1.310 . S
C436 C439 1.461 . S
C436 H456 0.932 . S
C437 C435 1.408 . S
C437 C436 1.310 . S
C437 H457 0.930 . S
C438 C439 1.474 . S
C438 C440 1.285 . S
C438 H458 0.929 . S
C439 C436 1.461 . S
C439 C438 1.474 . S
C440 C435 1.342 . S
C440 C438 1.285 . S
C440 H459 0.930 . S
C441 C444 1.424 . S
C441 C446 1.245 . S
C441 C447 1.428 . S
C442 C445 1.260 . S
C442 C446 1.477 . S
C442 H460 0.932 . S
C443 C444 1.384 . S
C443 C445 1.479 . S
C443 H461 0.929 . S
C444 C441 1.424 . S
C444 C443 1.384 . S
C444 H462 0.928 . S
C445 C442 1.260 . S
C445 C443 1.479 . S
C446 C441 1.245 . S
C446 C442 1.477 . S
C446 H463 0.932 . S
C447 U430 2.882 . S
C447 C441 1.428 . S
C447 O450 1.301 . S
C447 O451 1.282 . S
O448 U430 2.441 . S
O448 C434 1.249 . S
O449 U430 2.420 . S
O449 C434 1.202 . S
O450 U430 2.455 . S
O450 C447 1.301 . S
O451 U430 2.449 . S
O451 C447 1.282 . S
H452 C425 0.931 . S
H453 C427 0.929 . S
H454 C428 0.930 . S
H455 C429 0.931 . S
H456 C436 0.932 . S
H457 C437 0.930 . S
H458 C438 0.929 . S
H459 C440 0.930 . S
H460 C442 0.932 . S
H461 C443 0.929 . S
H462 C444 0.928 . S
H463 C446 0.932 . S
C464 C465 1.264 . S
C464 C469 1.479 . S
C464 C474 1.465 . S
C465 C464 1.264 . S
C465 C467 1.339 . S
C465 H492 0.931 . S
C466 C467 1.395 . S
C466 C468 1.320 . S
C467 C465 1.339 . S
C467 C466 1.395 . S
C467 H493 0.929 . S
C468 C466 1.320 . S
C468 C469 1.405 . S
C468 H494 0.930 . S
C469 C464 1.479 . S
C469 C468 1.405 . S
C469 H495 0.931 . S
U470 O471 2.492 . S
U470 O472 2.528 . S
U470 C473 3.045 . S
U470 C474 2.784 1_556 S
U470 C487 2.885 . S
U470 O488 2.399 1_556 S
U470 O489 2.350 1_556 S
U470 O490 2.490 . S
U470 O491 2.422 1_556 S
O471 U470 2.492 . S
O471 C473 1.353 . S
O472 U470 2.528 . S
O472 C473 1.286 . S
C473 U470 3.045 . S
C473 O471 1.353 . S
C473 O472 1.286 . S
C473 C475 1.363 . S
C474 C464 1.465 . S
C474 U470 2.784 1_554 S
C474 O488 1.249 . S
C474 O489 1.202 . S
C475 C473 1.363 . S
C475 C477 1.408 . S
C475 C480 1.342 . S
C476 C477 1.310 . S
C476 C479 1.461 . S
C476 H496 0.932 . S
C477 C475 1.408 . S
C477 C476 1.310 . S
C477 H497 0.930 . S
C478 C479 1.474 . S
C478 C480 1.285 . S
C478 H498 0.929 . S
C479 C476 1.461 . S
C479 C478 1.474 . S
C480 C475 1.342 . S
C480 C478 1.285 . S
C480 H499 0.930 . S
C481 C484 1.422 1_556 S
C481 C486 1.247 . S
C481 C487 1.429 . S
C482 C485 1.260 1_556 S
C482 C486 1.477 . S
C482 H500 0.932 . S
C483 C484 1.384 . S
C483 C485 1.479 . S
C483 H501 0.929 . S
C484 C481 1.422 1_554 S
C484 C483 1.384 . S
C484 H502 0.928 . S
C485 C482 1.260 1_554 S
C485 C483 1.479 . S
C486 C481 1.247 . S
C486 C482 1.477 . S
C486 H503 0.932 . S
C487 U470 2.885 . S
C487 C481 1.429 . S
C487 O490 1.315 . S
C487 O491 1.268 1_556 S
O488 U470 2.399 1_554 S
O488 C474 1.249 . S
O489 U470 2.350 1_554 S
O489 C474 1.202 . S
O490 U470 2.490 . S
O490 C487 1.315 . S
O491 U470 2.422 1_554 S
O491 C487 1.268 1_554 S
H492 C465 0.931 . S
H493 C467 0.929 . S
H494 C468 0.930 . S
H495 C469 0.931 . S
H496 C476 0.932 . S
H497 C477 0.930 . S
H498 C478 0.929 . S
H499 C480 0.930 . S
H500 C482 0.932 . S
H501 C483 0.929 . S
H502 C484 0.928 . S
H503 C486 0.932 . S
C504 C505 1.264 . S
C504 C509 1.479 . S
C504 C514 1.465 . S
C505 C504 1.264 . S
C505 C507 1.339 . S
C505 H532 0.931 . S
C506 C507 1.395 . S
C506 C508 1.320 . S
C507 C505 1.339 . S
C507 C506 1.395 . S
C507 H533 0.929 . S
C508 C506 1.320 . S
C508 C509 1.405 . S
C508 H534 0.930 . S
C509 C504 1.479 . S
C509 C508 1.405 . S
C509 H535 0.931 . S
U510 O511 2.454 . S
U510 O512 2.458 . S
U510 C513 2.984 . S
U510 C514 2.847 . S
U510 C527 2.882 . S
U510 O528 2.441 . S
U510 O529 2.420 . S
U510 O530 2.455 . S
U510 O531 2.449 . S
O511 U510 2.454 . S
O511 C513 1.353 . S
O512 U510 2.458 . S
O512 C513 1.286 . S
C513 U510 2.984 . S
C513 O511 1.353 . S
C513 O512 1.286 . S
C513 C515 1.363 . S
C514 C504 1.465 . S
C514 U510 2.847 . S
C514 O528 1.249 . S
C514 O529 1.202 . S
C515 C513 1.363 . S
C515 C517 1.408 . S
C515 C520 1.342 . S
C516 C517 1.310 . S
C516 C519 1.461 . S
C516 H536 0.932 . S
C517 C515 1.408 . S
C517 C516 1.310 . S
C517 H537 0.930 . S
C518 C519 1.474 . S
C518 C520 1.285 . S
C518 H538 0.929 . S
C519 C516 1.461 . S
C519 C518 1.474 . S
C520 C515 1.342 . S
C520 C518 1.285 . S
C520 H539 0.930 . S
C521 C524 1.424 . S
C521 C526 1.245 . S
C521 C527 1.428 . S
C522 C525 1.260 . S
C522 C526 1.477 . S
C522 H540 0.932 . S
C523 C524 1.384 . S
C523 C525 1.479 . S
C523 H541 0.929 . S
C524 C521 1.424 . S
C524 C523 1.384 . S
C524 H542 0.928 . S
C525 C522 1.260 . S
C525 C523 1.479 . S
C526 C521 1.245 . S
C526 C522 1.477 . S
C526 H543 0.932 . S
C527 U510 2.882 . S
C527 C521 1.428 . S
C527 O530 1.301 . S
C527 O531 1.282 . S
O528 U510 2.441 . S
O528 C514 1.249 . S
O529 U510 2.420 . S
O529 C514 1.202 . S
O530 U510 2.455 . S
O530 C527 1.301 . S
O531 U510 2.449 . S
O531 C527 1.282 . S
H532 C505 0.931 . S
H533 C507 0.929 . S
H534 C508 0.930 . S
H535 C509 0.931 . S
H536 C516 0.932 . S
H537 C517 0.930 . S
H538 C518 0.929 . S
H539 C520 0.930 . S
H540 C522 0.932 . S
H541 C523 0.929 . S
H542 C524 0.928 . S
H543 C526 0.932 . S
C544 C545 1.264 . S
C544 C549 1.479 . S
C544 C554 1.465 . S
C545 C544 1.264 . S
C545 C547 1.339 . S
C545 H572 0.931 . S
C546 C547 1.395 . S
C546 C548 1.320 . S
C547 C545 1.339 . S
C547 C546 1.395 . S
C547 H573 0.929 . S
C548 C546 1.320 . S
C548 C549 1.405 . S
C548 H574 0.930 . S
C549 C544 1.479 . S
C549 C548 1.405 . S
C549 H575 0.931 . S
U550 O551 2.461 . S
U550 O552 2.470 . S
U550 C553 2.995 . S
U550 C554 2.836 1_554 S
U550 C567 2.883 . S
U550 O568 2.434 1_554 S
U550 O569 2.408 1_554 S
U550 O570 2.461 . S
U550 O571 2.444 1_554 S
O551 U550 2.461 . S
O551 C553 1.353 . S
O552 U550 2.470 . S
O552 C553 1.286 . S
C553 U550 2.995 . S
C553 O551 1.353 . S
C553 O552 1.286 . S
C553 C555 1.363 . S
C554 C544 1.465 . S
C554 U550 2.836 1_556 S
C554 O568 1.249 . S
C554 O569 1.202 . S
C555 C553 1.363 . S
C555 C557 1.408 . S
C555 C560 1.342 . S
C556 C557 1.310 . S
C556 C559 1.461 . S
C556 H576 0.932 . S
C557 C555 1.408 . S
C557 C556 1.310 . S
C557 H577 0.930 . S
C558 C559 1.474 . S
C558 C560 1.285 . S
C558 H578 0.929 . S
C559 C556 1.461 . S
C559 C558 1.474 . S
C560 C555 1.342 . S
C560 C558 1.285 . S
C560 H579 0.930 . S
C561 C564 1.424 1_554 S
C561 C566 1.245 . S
C561 C567 1.428 . S
C562 C565 1.260 . S
C562 C566 1.477 . S
C562 H580 0.932 . S
C563 C564 1.384 . S
C563 C565 1.479 1_556 S
C563 H581 0.929 . S
C564 C561 1.424 1_556 S
C564 C563 1.384 . S
C564 H582 0.928 . S
C565 C562 1.260 . S
C565 C563 1.479 1_554 S
C566 C561 1.245 . S
C566 C562 1.477 . S
C566 H583 0.932 . S
C567 U550 2.883 . S
C567 C561 1.428 . S
C567 O570 1.301 . S
C567 O571 1.282 1_554 S
O568 U550 2.434 1_556 S
O568 C554 1.249 . S
O569 U550 2.408 1_556 S
O569 C554 1.202 . S
O570 U550 2.461 . S
O570 C567 1.301 . S
O571 U550 2.444 1_556 S
O571 C567 1.282 1_556 S
H572 C545 0.931 . S
H573 C547 0.929 . S
H574 C548 0.930 . S
H575 C549 0.931 . S
H576 C556 0.932 . S
H577 C557 0.930 . S
H578 C558 0.929 . S
H579 C560 0.930 . S
H580 C562 0.932 . S
H581 C563 0.929 . S
H582 C564 0.928 . S
H583 C566 0.932 . S
C584 C585 1.264 . S
C584 C589 1.479 . S
C584 C594 1.465 . S
C585 C584 1.264 . S
C585 C587 1.339 . S
C585 H612 0.931 . S
C586 C587 1.395 . S
C586 C588 1.320 . S
C587 C585 1.339 . S
C587 C586 1.395 . S
C587 H613 0.929 . S
C588 C586 1.320 . S
C588 C589 1.405 . S
C588 H614 0.930 . S
C589 C584 1.479 . S
C589 C588 1.405 . S
C589 H615 0.931 . S
U590 O591 2.454 . S
U590 O592 2.458 . S
U590 C593 2.984 . S
U590 C594 2.847 . S
U590 C607 2.882 . S
U590 O608 2.441 . S
U590 O609 2.420 . S
U590 O610 2.455 . S
U590 O611 2.449 . S
O591 U590 2.454 . S
O591 C593 1.353 . S
O592 U590 2.458 . S
O592 C593 1.286 . S
C593 U590 2.984 . S
C593 O591 1.353 . S
C593 O592 1.286 . S
C593 C595 1.363 . S
C594 C584 1.465 . S
C594 U590 2.847 . S
C594 O608 1.249 . S
C594 O609 1.202 . S
C595 C593 1.363 . S
C595 C597 1.408 . S
C595 C600 1.342 . S
C596 C597 1.310 . S
C596 C599 1.461 . S
C596 H616 0.932 . S
C597 C595 1.408 . S
C597 C596 1.310 . S
C597 H617 0.930 . S
C598 C599 1.474 . S
C598 C600 1.285 . S
C598 H618 0.929 . S
C599 C596 1.461 . S
C599 C598 1.474 . S
C600 C595 1.342 . S
C600 C598 1.285 . S
C600 H619 0.930 . S
C601 C604 1.424 . S
C601 C606 1.245 . S
C601 C607 1.428 . S
C602 C605 1.260 . S
C602 C606 1.477 . S
C602 H620 0.932 . S
C603 C604 1.384 . S
C603 C605 1.479 . S
C603 H621 0.929 . S
C604 C601 1.424 . S
C604 C603 1.384 . S
C604 H622 0.928 . S
C605 C602 1.260 . S
C605 C603 1.479 . S
C606 C601 1.245 . S
C606 C602 1.477 . S
C606 H623 0.932 . S
C607 U590 2.882 . S
C607 C601 1.428 . S
C607 O610 1.301 . S
C607 O611 1.282 . S
O608 U590 2.441 . S
O608 C594 1.249 . S
O609 U590 2.420 . S
O609 C594 1.202 . S
O610 U590 2.455 . S
O610 C607 1.301 . S
O611 U590 2.449 . S
O611 C607 1.282 . S
H612 C585 0.931 . S
H613 C587 0.929 . S
H614 C588 0.930 . S
H615 C589 0.931 . S
H616 C596 0.932 . S
H617 C597 0.930 . S
H618 C598 0.929 . S
H619 C600 0.930 . S
H620 C602 0.932 . S
H621 C603 0.929 . S
H622 C604 0.928 . S
H623 C606 0.932 . S
C624 C625 1.264 . S
C624 C629 1.479 . S
C624 C634 1.465 . S
C625 C624 1.264 . S
C625 C627 1.339 . S
C625 H652 0.931 . S
C626 C627 1.395 . S
C626 C628 1.320 . S
C627 C625 1.339 . S
C627 C626 1.395 . S
C627 H653 0.929 . S
C628 C626 1.320 . S
C628 C629 1.405 . S
C628 H654 0.930 . S
C629 C624 1.479 . S
C629 C628 1.405 . S
C629 H655 0.931 . S
U630 O631 2.492 . S
U630 O632 2.528 . S
U630 C633 3.045 . S
U630 C634 2.784 1_655 S
U630 C647 2.885 . S
U630 O648 2.399 1_655 S
U630 O649 2.350 1_655 S
U630 O650 2.490 . S
U630 O651 2.422 1_655 S
O631 U630 2.492 . S
O631 C633 1.353 . S
O632 U630 2.528 . S
O632 C633 1.286 . S
C633 U630 3.045 . S
C633 O631 1.353 . S
C633 O632 1.286 . S
C633 C635 1.363 . S
C634 C624 1.465 . S
C634 U630 2.784 1_455 S
C634 O648 1.249 . S
C634 O649 1.202 . S
C635 C633 1.363 . S
C635 C637 1.408 . S
C635 C640 1.342 . S
C636 C637 1.310 . S
C636 C639 1.461 . S
C636 H656 0.932 . S
C637 C635 1.408 . S
C637 C636 1.310 . S
C637 H657 0.930 . S
C638 C639 1.474 . S
C638 C640 1.285 . S
C638 H658 0.929 . S
C639 C636 1.461 . S
C639 C638 1.474 . S
C640 C635 1.342 . S
C640 C638 1.285 . S
C640 H659 0.930 . S
C641 C644 1.422 1_655 S
C641 C646 1.247 . S
C641 C647 1.429 . S
C642 C645 1.260 1_655 S
C642 C646 1.477 . S
C642 H660 0.932 . S
C643 C644 1.384 . S
C643 C645 1.479 . S
C643 H661 0.929 . S
C644 C641 1.422 1_455 S
C644 C643 1.384 . S
C644 H662 0.928 . S
C645 C642 1.260 1_455 S
C645 C643 1.479 . S
C646 C641 1.247 . S
C646 C642 1.477 . S
C646 H663 0.932 . S
C647 U630 2.885 . S
C647 C641 1.429 . S
C647 O650 1.315 . S
C647 O651 1.268 1_655 S
O648 U630 2.399 1_455 S
O648 C634 1.249 . S
O649 U630 2.350 1_455 S
O649 C634 1.202 . S
O650 U630 2.490 . S
O650 C647 1.315 . S
O651 U630 2.422 1_455 S
O651 C647 1.268 1_455 S
H652 C625 0.931 . S
H653 C627 0.929 . S
H654 C628 0.930 . S
H655 C629 0.931 . S
H656 C636 0.932 . S
H657 C637 0.930 . S
H658 C638 0.929 . S
H659 C640 0.930 . S
H660 C642 0.932 . S
H661 C643 0.929 . S
H662 C644 0.928 . S
H663 C646 0.932 . S
C664 C665 1.264 . S
C664 C669 1.479 . S
C664 C674 1.465 . S
C665 C664 1.264 . S
C665 C667 1.339 . S
C665 H692 0.931 . S
C666 C667 1.395 . S
C666 C668 1.320 . S
C667 C665 1.339 . S
C667 C666 1.395 . S
C667 H693 0.929 . S
C668 C666 1.320 . S
C668 C669 1.405 . S
C668 H694 0.930 . S
C669 C664 1.479 . S
C669 C668 1.405 . S
C669 H695 0.931 . S
U670 O671 2.454 . S
U670 O672 2.458 . S
U670 C673 2.984 . S
U670 C674 2.847 . S
U670 C687 2.882 . S
U670 O688 2.441 . S
U670 O689 2.420 . S
U670 O690 2.455 . S
U670 O691 2.449 . S
O671 U670 2.454 . S
O671 C673 1.353 . S
O672 U670 2.458 . S
O672 C673 1.286 . S
C673 U670 2.984 . S
C673 O671 1.353 . S
C673 O672 1.286 . S
C673 C675 1.363 . S
C674 C664 1.465 . S
C674 U670 2.847 . S
C674 O688 1.249 . S
C674 O689 1.202 . S
C675 C673 1.363 . S
C675 C677 1.408 . S
C675 C680 1.342 . S
C676 C677 1.310 . S
C676 C679 1.461 . S
C676 H696 0.932 . S
C677 C675 1.408 . S
C677 C676 1.310 . S
C677 H697 0.930 . S
C678 C679 1.474 . S
C678 C680 1.285 . S
C678 H698 0.929 . S
C679 C676 1.461 . S
C679 C678 1.474 . S
C680 C675 1.342 . S
C680 C678 1.285 . S
C680 H699 0.930 . S
C681 C684 1.424 . S
C681 C686 1.245 . S
C681 C687 1.428 . S
C682 C685 1.260 . S
C682 C686 1.477 . S
C682 H700 0.932 . S
C683 C684 1.384 . S
C683 C685 1.479 . S
C683 H701 0.929 . S
C684 C681 1.424 . S
C684 C683 1.384 . S
C684 H702 0.928 . S
C685 C682 1.260 . S
C685 C683 1.479 . S
C686 C681 1.245 . S
C686 C682 1.477 . S
C686 H703 0.932 . S
C687 U670 2.882 . S
C687 C681 1.428 . S
C687 O690 1.301 . S
C687 O691 1.282 . S
O688 U670 2.441 . S
O688 C674 1.249 . S
O689 U670 2.420 . S
O689 C674 1.202 . S
O690 U670 2.455 . S
O690 C687 1.301 . S
O691 U670 2.449 . S
O691 C687 1.282 . S
H692 C665 0.931 . S
H693 C667 0.929 . S
H694 C668 0.930 . S
H695 C669 0.931 . S
H696 C676 0.932 . S
H697 C677 0.930 . S
H698 C678 0.929 . S
H699 C680 0.930 . S
H700 C682 0.932 . S
H701 C683 0.929 . S
H702 C684 0.928 . S
H703 C686 0.932 . S
C704 C705 1.264 . S
C704 C709 1.479 . S
C704 C714 1.465 . S
C705 C704 1.264 . S
C705 C707 1.339 . S
C705 H732 0.931 . S
C706 C707 1.395 . S
C706 C708 1.320 . S
C707 C705 1.339 . S
C707 C706 1.395 . S
C707 H733 0.929 . S
C708 C706 1.320 . S
C708 C709 1.405 . S
C708 H734 0.930 . S
C709 C704 1.479 . S
C709 C708 1.405 . S
C709 H735 0.931 . S
U710 O711 2.461 . S
U710 O712 2.470 . S
U710 C713 2.995 . S
U710 C714 2.836 1_455 S
U710 C727 2.883 . S
U710 O728 2.434 1_455 S
U710 O729 2.408 1_455 S
U710 O730 2.461 . S
U710 O731 2.444 1_455 S
O711 U710 2.461 . S
O711 C713 1.353 . S
O712 U710 2.470 . S
O712 C713 1.286 . S
C713 U710 2.995 . S
C713 O711 1.353 . S
C713 O712 1.286 . S
C713 C715 1.363 . S
C714 C704 1.465 . S
C714 U710 2.836 1_655 S
C714 O728 1.249 . S
C714 O729 1.202 . S
C715 C713 1.363 . S
C715 C717 1.408 . S
C715 C720 1.342 . S
C716 C717 1.310 . S
C716 C719 1.461 . S
C716 H736 0.932 . S
C717 C715 1.408 . S
C717 C716 1.310 . S
C717 H737 0.930 . S
C718 C719 1.474 . S
C718 C720 1.285 . S
C718 H738 0.929 . S
C719 C716 1.461 . S
C719 C718 1.474 . S
C720 C715 1.342 . S
C720 C718 1.285 . S
C720 H739 0.930 . S
C721 C724 1.424 1_455 S
C721 C726 1.245 . S
C721 C727 1.428 . S
C722 C725 1.260 . S
C722 C726 1.477 . S
C722 H740 0.932 . S
C723 C724 1.384 . S
C723 C725 1.479 1_655 S
C723 H741 0.929 . S
C724 C721 1.424 1_655 S
C724 C723 1.384 . S
C724 H742 0.928 . S
C725 C722 1.260 . S
C725 C723 1.479 1_455 S
C726 C721 1.245 . S
C726 C722 1.477 . S
C726 H743 0.932 . S
C727 U710 2.883 . S
C727 C721 1.428 . S
C727 O730 1.301 . S
C727 O731 1.282 1_455 S
O728 U710 2.434 1_655 S
O728 C714 1.249 . S
O729 U710 2.408 1_655 S
O729 C714 1.202 . S
O730 U710 2.461 . S
O730 C727 1.301 . S
O731 U710 2.444 1_655 S
O731 C727 1.282 1_655 S
H732 C705 0.931 . S
H733 C707 0.929 . S
H734 C708 0.930 . S
H735 C709 0.931 . S
H736 C716 0.932 . S
H737 C717 0.930 . S
H738 C718 0.929 . S
H739 C720 0.930 . S
H740 C722 0.932 . S
H741 C723 0.929 . S
H742 C724 0.928 . S
H743 C726 0.932 . S
C744 C745 1.264 . S
C744 C749 1.479 . S
C744 C754 1.465 . S
C745 C744 1.264 . S
C745 C747 1.339 . S
C745 H772 0.931 . S
C746 C747 1.395 . S
C746 C748 1.320 . S
C747 C745 1.339 . S
C747 C746 1.395 . S
C747 H773 0.929 . S
C748 C746 1.320 . S
C748 C749 1.405 . S
C748 H774 0.930 . S
C749 C744 1.479 . S
C749 C748 1.405 . S
C749 H775 0.931 . S
U750 O751 2.454 . S
U750 O752 2.458 . S
U750 C753 2.984 . S
U750 C754 2.847 . S
U750 C767 2.882 . S
U750 O768 2.441 . S
U750 O769 2.420 . S
U750 O770 2.455 . S
U750 O771 2.449 . S
O751 U750 2.454 . S
O751 C753 1.353 . S
O752 U750 2.458 . S
O752 C753 1.286 . S
C753 U750 2.984 . S
C753 O751 1.353 . S
C753 O752 1.286 . S
C753 C755 1.363 . S
C754 C744 1.465 . S
C754 U750 2.847 . S
C754 O768 1.249 . S
C754 O769 1.202 . S
C755 C753 1.363 . S
C755 C757 1.408 . S
C755 C760 1.342 . S
C756 C757 1.310 . S
C756 C759 1.461 . S
C756 H776 0.932 . S
C757 C755 1.408 . S
C757 C756 1.310 . S
C757 H777 0.930 . S
C758 C759 1.474 . S
C758 C760 1.285 . S
C758 H778 0.929 . S
C759 C756 1.461 . S
C759 C758 1.474 . S
C760 C755 1.342 . S
C760 C758 1.285 . S
C760 H779 0.930 . S
C761 C764 1.424 . S
C761 C766 1.245 . S
C761 C767 1.428 . S
C762 C765 1.260 . S
C762 C766 1.477 . S
C762 H780 0.932 . S
C763 C764 1.384 . S
C763 C765 1.479 . S
C763 H781 0.929 . S
C764 C761 1.424 . S
C764 C763 1.384 . S
C764 H782 0.928 . S
C765 C762 1.260 . S
C765 C763 1.479 . S
C766 C761 1.245 . S
C766 C762 1.477 . S
C766 H783 0.932 . S
C767 U750 2.882 . S
C767 C761 1.428 . S
C767 O770 1.301 . S
C767 O771 1.282 . S
O768 U750 2.441 . S
O768 C754 1.249 . S
O769 U750 2.420 . S
O769 C754 1.202 . S
O770 U750 2.455 . S
O770 C767 1.301 . S
O771 U750 2.449 . S
O771 C767 1.282 . S
H772 C745 0.931 . S
H773 C747 0.929 . S
H774 C748 0.930 . S
H775 C749 0.931 . S
H776 C756 0.932 . S
H777 C757 0.930 . S
H778 C758 0.929 . S
H779 C760 0.930 . S
H780 C762 0.932 . S
H781 C763 0.929 . S
H782 C764 0.928 . S
H783 C766 0.932 . S
C784 C785 1.264 . S
C784 C789 1.479 . S
C784 C794 1.465 . S
C785 C784 1.264 . S
C785 C787 1.339 . S
C785 H812 0.931 . S
C786 C787 1.395 . S
C786 C788 1.320 . S
C787 C785 1.339 . S
C787 C786 1.395 . S
C787 H813 0.929 . S
C788 C786 1.320 . S
C788 C789 1.405 . S
C788 H814 0.930 . S
C789 C784 1.479 . S
C789 C788 1.405 . S
C789 H815 0.931 . S
U790 O791 2.454 . S
U790 O792 2.458 . S
U790 C793 2.984 . S
U790 C794 2.847 . S
U790 C807 2.882 . S
U790 O808 2.441 . S
U790 O809 2.420 . S
U790 O810 2.455 . S
U790 O811 2.449 . S
O791 U790 2.454 . S
O791 C793 1.353 . S
O792 U790 2.458 . S
O792 C793 1.286 . S
C793 U790 2.984 . S
C793 O791 1.353 . S
C793 O792 1.286 . S
C793 C795 1.363 . S
C794 C784 1.465 . S
C794 U790 2.847 . S
C794 O808 1.249 . S
C794 O809 1.202 . S
C795 C793 1.363 . S
C795 C797 1.408 . S
C795 C800 1.342 . S
C796 C797 1.310 . S
C796 C799 1.461 . S
C796 H816 0.932 . S
C797 C795 1.408 . S
C797 C796 1.310 . S
C797 H817 0.930 . S
C798 C799 1.474 . S
C798 C800 1.285 . S
C798 H818 0.929 . S
C799 C796 1.461 . S
C799 C798 1.474 . S
C800 C795 1.342 . S
C800 C798 1.285 . S
C800 H819 0.930 . S
C801 C804 1.424 . S
C801 C806 1.245 . S
C801 C807 1.428 . S
C802 C805 1.260 . S
C802 C806 1.477 . S
C802 H820 0.932 . S
C803 C804 1.384 . S
C803 C805 1.479 . S
C803 H821 0.929 . S
C804 C801 1.424 . S
C804 C803 1.384 . S
C804 H822 0.928 . S
C805 C802 1.260 . S
C805 C803 1.479 . S
C806 C801 1.245 . S
C806 C802 1.477 . S
C806 H823 0.932 . S
C807 U790 2.882 . S
C807 C801 1.428 . S
C807 O810 1.301 . S
C807 O811 1.282 . S
O808 U790 2.441 . S
O808 C794 1.249 . S
O809 U790 2.420 . S
O809 C794 1.202 . S
O810 U790 2.455 . S
O810 C807 1.301 . S
O811 U790 2.449 . S
O811 C807 1.282 . S
H812 C785 0.931 . S
H813 C787 0.929 . S
H814 C788 0.930 . S
H815 C789 0.931 . S
H816 C796 0.932 . S
H817 C797 0.930 . S
H818 C798 0.929 . S
H819 C800 0.930 . S
H820 C802 0.932 . S
H821 C803 0.929 . S
H822 C804 0.928 . S
H823 C806 0.932 . S
C824 C825 1.264 . S
C824 C829 1.479 . S
C824 C834 1.465 . S
C825 C824 1.264 . S
C825 C827 1.339 . S
C825 H852 0.931 . S
C826 C827 1.395 . S
C826 C828 1.320 . S
C827 C825 1.339 . S
C827 C826 1.395 . S
C827 H853 0.929 . S
C828 C826 1.320 . S
C828 C829 1.405 . S
C828 H854 0.930 . S
C829 C824 1.479 . S
C829 C828 1.405 . S
C829 H855 0.931 . S
U830 O831 2.459 . S
U830 O832 2.468 . S
U830 C833 2.993 . S
U830 C834 2.838 1_565 S
U830 C847 2.883 . S
U830 O848 2.435 1_565 S
U830 O849 2.410 1_565 S
U830 O850 2.460 . S
U830 O851 2.445 1_565 S
O831 U830 2.459 . S
O831 C833 1.353 . S
O832 U830 2.468 . S
O832 C833 1.286 . S
C833 U830 2.993 . S
C833 O831 1.353 . S
C833 O832 1.286 . S
C833 C835 1.363 . S
C834 C824 1.465 . S
C834 U830 2.838 1_545 S
C834 O848 1.249 . S
C834 O849 1.202 . S
C835 C833 1.363 . S
C835 C837 1.408 . S
C835 C840 1.342 . S
C836 C837 1.310 . S
C836 C839 1.461 . S
C836 H856 0.932 . S
C837 C835 1.408 . S
C837 C836 1.310 . S
C837 H857 0.930 . S
C838 C839 1.474 . S
C838 C840 1.285 . S
C838 H858 0.929 . S
C839 C836 1.461 . S
C839 C838 1.474 . S
C840 C835 1.342 . S
C840 C838 1.285 . S
C840 H859 0.930 . S
C841 C844 1.424 1_565 S
C841 C846 1.245 . S
C841 C847 1.428 . S
C842 C845 1.260 . S
C842 C846 1.477 . S
C842 H860 0.932 . S
C843 C844 1.384 . S
C843 C845 1.479 1_545 S
C843 H861 0.929 . S
C844 C841 1.424 1_545 S
C844 C843 1.384 . S
C844 H862 0.928 . S
C845 C842 1.260 . S
C845 C843 1.479 1_565 S
C846 C841 1.245 . S
C846 C842 1.477 . S
C846 H863 0.932 . S
C847 U830 2.883 . S
C847 C841 1.428 . S
C847 O850 1.301 . S
C847 O851 1.282 1_565 S
O848 U830 2.435 1_545 S
O848 C834 1.249 . S
O849 U830 2.410 1_545 S
O849 C834 1.202 . S
O850 U830 2.460 . S
O850 C847 1.301 . S
O851 U830 2.445 1_545 S
O851 C847 1.282 1_545 S
H852 C825 0.931 . S
H853 C827 0.929 . S
H854 C828 0.930 . S
H855 C829 0.931 . S
H856 C836 0.932 . S
H857 C837 0.930 . S
H858 C838 0.929 . S
H859 C840 0.930 . S
H860 C842 0.932 . S
H861 C843 0.929 . S
H862 C844 0.928 . S
H863 C846 0.932 . S
C864 C865 1.264 . S
C864 C869 1.479 . S
C864 C874 1.465 . S
C865 C864 1.264 . S
C865 C867 1.339 . S
C865 H892 0.931 . S
C866 C867 1.395 . S
C866 C868 1.320 . S
C867 C865 1.339 . S
C867 C866 1.395 . S
C867 H893 0.929 . S
C868 C866 1.320 . S
C868 C869 1.405 . S
C868 H894 0.930 . S
C869 C864 1.479 . S
C869 C868 1.405 . S
C869 H895 0.931 . S
U870 O871 2.453 . S
U870 O872 2.456 . S
U870 C873 2.983 . S
U870 C874 2.849 1_545 S
U870 C887 2.885 1_545 S
U870 O888 2.442 1_545 S
U870 O889 2.423 1_545 S
U870 O890 2.454 . S
U870 O891 2.450 1_545 S
O871 U870 2.453 . S
O871 C873 1.353 . S
O872 U870 2.456 . S
O872 C873 1.286 . S
C873 U870 2.983 . S
C873 O871 1.353 . S
C873 O872 1.286 . S
C873 C875 1.363 . S
C874 C864 1.465 . S
C874 U870 2.849 1_565 S
C874 O888 1.249 . S
C874 O889 1.202 . S
C875 C873 1.363 . S
C875 C877 1.408 . S
C875 C880 1.342 . S
C876 C877 1.310 . S
C876 C879 1.461 . S
C876 H896 0.932 . S
C877 C875 1.408 . S
C877 C876 1.310 . S
C877 H897 0.930 . S
C878 C879 1.474 . S
C878 C880 1.285 . S
C878 H898 0.929 . S
C879 C876 1.461 . S
C879 C878 1.474 . S
C880 C875 1.342 . S
C880 C878 1.285 . S
C880 H899 0.930 . S
C881 C884 1.466 . S
C881 C886 1.204 1_565 S
C881 C887 1.428 . S
C882 C885 1.260 1_545 S
C882 C886 1.477 . S
C882 H900 0.932 . S
C883 C884 1.384 . S
C883 C885 1.479 . S
C883 H901 0.929 . S
C884 C881 1.466 . S
C884 C883 1.384 . S
C884 H902 0.928 . S
C885 C882 1.260 1_565 S
C885 C883 1.479 . S
C886 C881 1.204 1_545 S
C886 C882 1.477 . S
C886 H903 0.932 . S
C887 U870 2.885 1_565 S
C887 C881 1.428 . S
C887 O890 1.261 1_565 S
C887 O891 1.325 . S
O888 U870 2.442 1_565 S
O888 C874 1.249 . S
O889 U870 2.423 1_565 S
O889 C874 1.202 . S
O890 U870 2.454 . S
O890 C887 1.261 1_545 S
O891 U870 2.450 1_565 S
O891 C887 1.325 . S
H892 C865 0.931 . S
H893 C867 0.929 . S
H894 C868 0.930 . S
H895 C869 0.931 . S
H896 C876 0.932 . S
H897 C877 0.930 . S
H898 C878 0.929 . S
H899 C880 0.930 . S
H900 C882 0.932 . S
H901 C883 0.929 . S
H902 C884 0.928 . S
H903 C886 0.932 . S
C904 C905 1.264 . S
C904 C909 1.479 . S
C904 C914 1.465 . S
C905 C904 1.264 . S
C905 C907 1.339 . S
C905 H932 0.931 . S
C906 C907 1.395 . S
C906 C908 1.320 . S
C907 C905 1.339 . S
C907 C906 1.395 . S
C907 H933 0.929 . S
C908 C906 1.320 . S
C908 C909 1.405 . S
C908 H934 0.930 . S
C909 C904 1.479 . S
C909 C908 1.405 . S
C909 H935 0.931 . S
U910 O911 2.454 . S
U910 O912 2.458 . S
U910 C913 2.984 . S
U910 C914 2.847 . S
U910 C927 2.882 . S
U910 O928 2.441 . S
U910 O929 2.420 . S
U910 O930 2.455 . S
U910 O931 2.449 . S
O911 U910 2.454 . S
O911 C913 1.353 . S
O912 U910 2.458 . S
O912 C913 1.286 . S
C913 U910 2.984 . S
C913 O911 1.353 . S
C913 O912 1.286 . S
C913 C915 1.363 . S
C914 C904 1.465 . S
C914 U910 2.847 . S
C914 O928 1.249 . S
C914 O929 1.202 . S
C915 C913 1.363 . S
C915 C917 1.408 . S
C915 C920 1.342 . S
C916 C917 1.310 . S
C916 C919 1.461 . S
C916 H936 0.932 . S
C917 C915 1.408 . S
C917 C916 1.310 . S
C917 H937 0.930 . S
C918 C919 1.474 . S
C918 C920 1.285 . S
C918 H938 0.929 . S
C919 C916 1.461 . S
C919 C918 1.474 . S
C920 C915 1.342 . S
C920 C918 1.285 . S
C920 H939 0.930 . S
C921 C924 1.424 . S
C921 C926 1.245 . S
C921 C927 1.428 . S
C922 C925 1.260 . S
C922 C926 1.477 . S
C922 H940 0.932 . S
C923 C924 1.384 . S
C923 C925 1.479 . S
C923 H941 0.929 . S
C924 C921 1.424 . S
C924 C923 1.384 . S
C924 H942 0.928 . S
C925 C922 1.260 . S
C925 C923 1.479 . S
C926 C921 1.245 . S
C926 C922 1.477 . S
C926 H943 0.932 . S
C927 U910 2.882 . S
C927 C921 1.428 . S
C927 O930 1.301 . S
C927 O931 1.282 . S
O928 U910 2.441 . S
O928 C914 1.249 . S
O929 U910 2.420 . S
O929 C914 1.202 . S
O930 U910 2.455 . S
O930 C927 1.301 . S
O931 U910 2.449 . S
O931 C927 1.282 . S
H932 C905 0.931 . S
H933 C907 0.929 . S
H934 C908 0.930 . S
H935 C909 0.931 . S
H936 C916 0.932 . S
H937 C917 0.930 . S
H938 C918 0.929 . S
H939 C920 0.930 . S
H940 C922 0.932 . S
H941 C923 0.929 . S
H942 C924 0.928 . S
H943 C926 0.932 . S
C944 C945 1.264 . S
C944 C949 1.479 . S
C944 C954 1.465 . S
C945 C944 1.264 . S
C945 C947 1.339 . S
C945 H972 0.931 . S
C946 C947 1.395 . S
C946 C948 1.320 . S
C947 C945 1.339 . S
C947 C946 1.395 . S
C947 H973 0.929 . S
C948 C946 1.320 . S
C948 C949 1.405 . S
C948 H974 0.930 . S
C949 C944 1.479 . S
C949 C948 1.405 . S
C949 H975 0.931 . S
U950 O951 2.453 . S
U950 O952 2.456 . S
U950 C953 2.983 . S
U950 C954 2.849 1_554 S
U950 C967 2.885 1_554 S
U950 O968 2.442 1_554 S
U950 O969 2.423 1_554 S
U950 O970 2.454 . S
U950 O971 2.450 1_554 S
O951 U950 2.453 . S
O951 C953 1.353 . S
O952 U950 2.456 . S
O952 C953 1.286 . S
C953 U950 2.983 . S
C953 O951 1.353 . S
C953 O952 1.286 . S
C953 C955 1.363 . S
C954 C944 1.465 . S
C954 U950 2.849 1_556 S
C954 O968 1.249 . S
C954 O969 1.202 . S
C955 C953 1.363 . S
C955 C957 1.408 . S
C955 C960 1.342 . S
C956 C957 1.310 . S
C956 C959 1.461 . S
C956 H976 0.932 . S
C957 C955 1.408 . S
C957 C956 1.310 . S
C957 H977 0.930 . S
C958 C959 1.474 . S
C958 C960 1.285 . S
C958 H978 0.929 . S
C959 C956 1.461 . S
C959 C958 1.474 . S
C960 C955 1.342 . S
C960 C958 1.285 . S
C960 H979 0.930 . S
C961 C964 1.466 . S
C961 C966 1.204 1_556 S
C961 C967 1.428 . S
C962 C965 1.260 1_554 S
C962 C966 1.477 . S
C962 H980 0.932 . S
C963 C964 1.384 . S
C963 C965 1.479 . S
C963 H981 0.929 . S
C964 C961 1.466 . S
C964 C963 1.384 . S
C964 H982 0.928 . S
C965 C962 1.260 1_556 S
C965 C963 1.479 . S
C966 C961 1.204 1_554 S
C966 C962 1.477 . S
C966 H983 0.932 . S
C967 U950 2.885 1_556 S
C967 C961 1.428 . S
C967 O970 1.261 1_556 S
C967 O971 1.325 . S
O968 U950 2.442 1_556 S
O968 C954 1.249 . S
O969 U950 2.423 1_556 S
O969 C954 1.202 . S
O970 U950 2.454 . S
O970 C967 1.261 1_554 S
O971 U950 2.450 1_556 S
O971 C967 1.325 . S
H972 C945 0.931 . S
H973 C947 0.929 . S
H974 C948 0.930 . S
H975 C949 0.931 . S
H976 C956 0.932 . S
H977 C957 0.930 . S
H978 C958 0.929 . S
H979 C960 0.930 . S
H980 C962 0.932 . S
H981 C963 0.929 . S
H982 C964 0.928 . S
H983 C966 0.932 . S
C984 C985 1.264 . S
C984 C989 1.479 . S
C984 C994 1.465 . S
C985 C984 1.264 . S
C985 C987 1.339 . S
C985 H1012 0.931 . S
C986 C987 1.395 . S
C986 C988 1.320 . S
C987 C985 1.339 . S
C987 C986 1.395 . S
C987 H1013 0.929 . S
C988 C986 1.320 . S
C988 C989 1.405 . S
C988 H1014 0.930 . S
C989 C984 1.479 . S
C989 C988 1.405 . S
C989 H1015 0.931 . S
U990 O991 2.454 . S
U990 O992 2.458 . S
U990 C993 2.984 . S
U990 C994 2.847 . S
U990 C1007 2.882 . S
U990 O1008 2.441 . S
U990 O1009 2.420 . S
U990 O1010 2.455 . S
U990 O1011 2.449 . S
O991 U990 2.454 . S
O991 C993 1.353 . S
O992 U990 2.458 . S
O992 C993 1.286 . S
C993 U990 2.984 . S
C993 O991 1.353 . S
C993 O992 1.286 . S
C993 C995 1.363 . S
C994 C984 1.465 . S
C994 U990 2.847 . S
C994 O1008 1.249 . S
C994 O1009 1.202 . S
C995 C993 1.363 . S
C995 C997 1.408 . S
C995 C1000 1.342 . S
C996 C997 1.310 . S
C996 C999 1.461 . S
C996 H1016 0.932 . S
C997 C995 1.408 . S
C997 C996 1.310 . S
C997 H1017 0.930 . S
C998 C999 1.474 . S
C998 C1000 1.285 . S
C998 H1018 0.929 . S
C999 C996 1.461 . S
C999 C998 1.474 . S
C1000 C995 1.342 . S
C1000 C998 1.285 . S
C1000 H1019 0.930 . S
C1001 C1004 1.424 . S
C1001 C1006 1.245 . S
C1001 C1007 1.428 . S
C1002 C1005 1.260 . S
C1002 C1006 1.477 . S
C1002 H1020 0.932 . S
C1003 C1004 1.384 . S
C1003 C1005 1.479 . S
C1003 H1021 0.929 . S
C1004 C1001 1.424 . S
C1004 C1003 1.384 . S
C1004 H1022 0.928 . S
C1005 C1002 1.260 . S
C1005 C1003 1.479 . S
C1006 C1001 1.245 . S
C1006 C1002 1.477 . S
C1006 H1023 0.932 . S
C1007 U990 2.882 . S
C1007 C1001 1.428 . S
C1007 O1010 1.301 . S
C1007 O1011 1.282 . S
O1008 U990 2.441 . S
O1008 C994 1.249 . S
O1009 U990 2.420 . S
O1009 C994 1.202 . S
O1010 U990 2.455 . S
O1010 C1007 1.301 . S
O1011 U990 2.449 . S
O1011 C1007 1.282 . S
H1012 C985 0.931 . S
H1013 C987 0.929 . S
H1014 C988 0.930 . S
H1015 C989 0.931 . S
H1016 C996 0.932 . S
H1017 C997 0.930 . S
H1018 C998 0.929 . S
H1019 C1000 0.930 . S
H1020 C1002 0.932 . S
H1021 C1003 0.929 . S
H1022 C1004 0.928 . S
H1023 C1006 0.932 . S
C1024 C1025 1.264 . S
C1024 C1029 1.479 . S
C1024 C1034 1.465 . S
C1025 C1024 1.264 . S
C1025 C1027 1.339 . S
C1025 H1052 0.931 . S
C1026 C1027 1.395 . S
C1026 C1028 1.320 . S
C1027 C1025 1.339 . S
C1027 C1026 1.395 . S
C1027 H1053 0.929 . S
C1028 C1026 1.320 . S
C1028 C1029 1.405 . S
C1028 H1054 0.930 . S
C1029 C1024 1.479 . S
C1029 C1028 1.405 . S
C1029 H1055 0.931 . S
U1030 O1031 2.459 . S
U1030 O1032 2.468 . S
U1030 C1033 2.993 . S
U1030 C1034 2.838 1_556 S
U1030 C1047 2.883 . S
U1030 O1048 2.435 1_556 S
U1030 O1049 2.410 1_556 S
U1030 O1050 2.460 . S
U1030 O1051 2.445 1_556 S
O1031 U1030 2.459 . S
O1031 C1033 1.353 . S
O1032 U1030 2.468 . S
O1032 C1033 1.286 . S
C1033 U1030 2.993 . S
C1033 O1031 1.353 . S
C1033 O1032 1.286 . S
C1033 C1035 1.363 . S
C1034 C1024 1.465 . S
C1034 U1030 2.838 1_554 S
C1034 O1048 1.249 . S
C1034 O1049 1.202 . S
C1035 C1033 1.363 . S
C1035 C1037 1.408 . S
C1035 C1040 1.342 . S
C1036 C1037 1.310 . S
C1036 C1039 1.461 . S
C1036 H1056 0.932 . S
C1037 C1035 1.408 . S
C1037 C1036 1.310 . S
C1037 H1057 0.930 . S
C1038 C1039 1.474 . S
C1038 C1040 1.285 . S
C1038 H1058 0.929 . S
C1039 C1036 1.461 . S
C1039 C1038 1.474 . S
C1040 C1035 1.342 . S
C1040 C1038 1.285 . S
C1040 H1059 0.930 . S
C1041 C1044 1.424 1_556 S
C1041 C1046 1.245 . S
C1041 C1047 1.428 . S
C1042 C1045 1.260 . S
C1042 C1046 1.477 . S
C1042 H1060 0.932 . S
C1043 C1044 1.384 . S
C1043 C1045 1.479 1_554 S
C1043 H1061 0.929 . S
C1044 C1041 1.424 1_554 S
C1044 C1043 1.384 . S
C1044 H1062 0.928 . S
C1045 C1042 1.260 . S
C1045 C1043 1.479 1_556 S
C1046 C1041 1.245 . S
C1046 C1042 1.477 . S
C1046 H1063 0.932 . S
C1047 U1030 2.883 . S
C1047 C1041 1.428 . S
C1047 O1050 1.301 . S
C1047 O1051 1.282 1_556 S
O1048 U1030 2.435 1_554 S
O1048 C1034 1.249 . S
O1049 U1030 2.410 1_554 S
O1049 C1034 1.202 . S
O1050 U1030 2.460 . S
O1050 C1047 1.301 . S
O1051 U1030 2.445 1_554 S
O1051 C1047 1.282 1_554 S
H1052 C1025 0.931 . S
H1053 C1027 0.929 . S
H1054 C1028 0.930 . S
H1055 C1029 0.931 . S
H1056 C1036 0.932 . S
H1057 C1037 0.930 . S
H1058 C1038 0.929 . S
H1059 C1040 0.930 . S
H1060 C1042 0.932 . S
H1061 C1043 0.929 . S
H1062 C1044 0.928 . S
H1063 C1046 0.932 . S
C1064 C1065 1.264 . S
C1064 C1069 1.479 . S
C1064 C1074 1.465 . S
C1065 C1064 1.264 . S
C1065 C1067 1.339 . S
C1065 H1092 0.931 . S
C1066 C1067 1.395 . S
C1066 C1068 1.320 . S
C1067 C1065 1.339 . S
C1067 C1066 1.395 . S
C1067 H1093 0.929 . S
C1068 C1066 1.320 . S
C1068 C1069 1.405 . S
C1068 H1094 0.930 . S
C1069 C1064 1.479 . S
C1069 C1068 1.405 . S
C1069 H1095 0.931 . S
U1070 O1071 2.454 . S
U1070 O1072 2.458 . S
U1070 C1073 2.984 . S
U1070 C1074 2.847 . S
U1070 C1087 2.882 . S
U1070 O1088 2.441 . S
U1070 O1089 2.420 . S
U1070 O1090 2.455 . S
U1070 O1091 2.449 . S
O1071 U1070 2.454 . S
O1071 C1073 1.353 . S
O1072 U1070 2.458 . S
O1072 C1073 1.286 . S
C1073 U1070 2.984 . S
C1073 O1071 1.353 . S
C1073 O1072 1.286 . S
C1073 C1075 1.363 . S
C1074 C1064 1.465 . S
C1074 U1070 2.847 . S
C1074 O1088 1.249 . S
C1074 O1089 1.202 . S
C1075 C1073 1.363 . S
C1075 C1077 1.408 . S
C1075 C1080 1.342 . S
C1076 C1077 1.310 . S
C1076 C1079 1.461 . S
C1076 H1096 0.932 . S
C1077 C1075 1.408 . S
C1077 C1076 1.310 . S
C1077 H1097 0.930 . S
C1078 C1079 1.474 . S
C1078 C1080 1.285 . S
C1078 H1098 0.929 . S
C1079 C1076 1.461 . S
C1079 C1078 1.474 . S
C1080 C1075 1.342 . S
C1080 C1078 1.285 . S
C1080 H1099 0.930 . S
C1081 C1084 1.424 . S
C1081 C1086 1.245 . S
C1081 C1087 1.428 . S
C1082 C1085 1.260 . S
C1082 C1086 1.477 . S
C1082 H1100 0.932 . S
C1083 C1084 1.384 . S
C1083 C1085 1.479 . S
C1083 H1101 0.929 . S
C1084 C1081 1.424 . S
C1084 C1083 1.384 . S
C1084 H1102 0.928 . S
C1085 C1082 1.260 . S
C1085 C1083 1.479 . S
C1086 C1081 1.245 . S
C1086 C1082 1.477 . S
C1086 H1103 0.932 . S
C1087 U1070 2.882 . S
C1087 C1081 1.428 . S
C1087 O1090 1.301 . S
C1087 O1091 1.282 . S
O1088 U1070 2.441 . S
O1088 C1074 1.249 . S
O1089 U1070 2.420 . S
O1089 C1074 1.202 . S
O1090 U1070 2.455 . S
O1090 C1087 1.301 . S
O1091 U1070 2.449 . S
O1091 C1087 1.282 . S
H1092 C1065 0.931 . S
H1093 C1067 0.929 . S
H1094 C1068 0.930 . S
H1095 C1069 0.931 . S
H1096 C1076 0.932 . S
H1097 C1077 0.930 . S
H1098 C1078 0.929 . S
H1099 C1080 0.930 . S
H1100 C1082 0.932 . S
H1101 C1083 0.929 . S
H1102 C1084 0.928 . S
H1103 C1086 0.932 . S
C1104 C1105 1.264 . S
C1104 C1109 1.479 . S
C1104 C1114 1.465 . S
C1105 C1104 1.264 . S
C1105 C1107 1.339 . S
C1105 H1132 0.931 . S
C1106 C1107 1.395 . S
C1106 C1108 1.320 . S
C1107 C1105 1.339 . S
C1107 C1106 1.395 . S
C1107 H1133 0.929 . S
C1108 C1106 1.320 . S
C1108 C1109 1.405 . S
C1108 H1134 0.930 . S
C1109 C1104 1.479 . S
C1109 C1108 1.405 . S
C1109 H1135 0.931 . S
U1110 O1111 2.453 . S
U1110 O1112 2.456 . S
U1110 C1113 2.983 . S
U1110 C1114 2.849 1_455 S
U1110 C1127 2.885 1_455 S
U1110 O1128 2.442 1_455 S
U1110 O1129 2.423 1_455 S
U1110 O1130 2.454 . S
U1110 O1131 2.450 1_455 S
O1111 U1110 2.453 . S
O1111 C1113 1.353 . S
O1112 U1110 2.456 . S
O1112 C1113 1.286 . S
C1113 U1110 2.983 . S
C1113 O1111 1.353 . S
C1113 O1112 1.286 . S
C1113 C1115 1.363 . S
C1114 C1104 1.465 . S
C1114 U1110 2.849 1_655 S
C1114 O1128 1.249 . S
C1114 O1129 1.202 . S
C1115 C1113 1.363 . S
C1115 C1117 1.408 . S
C1115 C1120 1.342 . S
C1116 C1117 1.310 . S
C1116 C1119 1.461 . S
C1116 H1136 0.932 . S
C1117 C1115 1.408 . S
C1117 C1116 1.310 . S
C1117 H1137 0.930 . S
C1118 C1119 1.474 . S
C1118 C1120 1.285 . S
C1118 H1138 0.929 . S
C1119 C1116 1.461 . S
C1119 C1118 1.474 . S
C1120 C1115 1.342 . S
C1120 C1118 1.285 . S
C1120 H1139 0.930 . S
C1121 C1124 1.466 . S
C1121 C1126 1.204 1_655 S
C1121 C1127 1.428 . S
C1122 C1125 1.260 1_455 S
C1122 C1126 1.477 . S
C1122 H1140 0.932 . S
C1123 C1124 1.384 . S
C1123 C1125 1.479 . S
C1123 H1141 0.929 . S
C1124 C1121 1.466 . S
C1124 C1123 1.384 . S
C1124 H1142 0.928 . S
C1125 C1122 1.260 1_655 S
C1125 C1123 1.479 . S
C1126 C1121 1.204 1_455 S
C1126 C1122 1.477 . S
C1126 H1143 0.932 . S
C1127 U1110 2.885 1_655 S
C1127 C1121 1.428 . S
C1127 O1130 1.261 1_655 S
C1127 O1131 1.325 . S
O1128 U1110 2.442 1_655 S
O1128 C1114 1.249 . S
O1129 U1110 2.423 1_655 S
O1129 C1114 1.202 . S
O1130 U1110 2.454 . S
O1130 C1127 1.261 1_455 S
O1131 U1110 2.450 1_655 S
O1131 C1127 1.325 . S
H1132 C1105 0.931 . S
H1133 C1107 0.929 . S
H1134 C1108 0.930 . S
H1135 C1109 0.931 . S
H1136 C1116 0.932 . S
H1137 C1117 0.930 . S
H1138 C1118 0.929 . S
H1139 C1120 0.930 . S
H1140 C1122 0.932 . S
H1141 C1123 0.929 . S
H1142 C1124 0.928 . S
H1143 C1126 0.932 . S
C1144 C1145 1.264 . S
C1144 C1149 1.479 . S
C1144 C1154 1.465 . S
C1145 C1144 1.264 . S
C1145 C1147 1.339 . S
C1145 H1172 0.931 . S
C1146 C1147 1.395 . S
C1146 C1148 1.320 . S
C1147 C1145 1.339 . S
C1147 C1146 1.395 . S
C1147 H1173 0.929 . S
C1148 C1146 1.320 . S
C1148 C1149 1.405 . S
C1148 H1174 0.930 . S
C1149 C1144 1.479 . S
C1149 C1148 1.405 . S
C1149 H1175 0.931 . S
U1150 O1151 2.454 . S
U1150 O1152 2.458 . S
U1150 C1153 2.984 . S
U1150 C1154 2.847 . S
U1150 C1167 2.882 . S
U1150 O1168 2.441 . S
U1150 O1169 2.420 . S
U1150 O1170 2.455 . S
U1150 O1171 2.449 . S
O1151 U1150 2.454 . S
O1151 C1153 1.353 . S
O1152 U1150 2.458 . S
O1152 C1153 1.286 . S
C1153 U1150 2.984 . S
C1153 O1151 1.353 . S
C1153 O1152 1.286 . S
C1153 C1155 1.363 . S
C1154 C1144 1.465 . S
C1154 U1150 2.847 . S
C1154 O1168 1.249 . S
C1154 O1169 1.202 . S
C1155 C1153 1.363 . S
C1155 C1157 1.408 . S
C1155 C1160 1.342 . S
C1156 C1157 1.310 . S
C1156 C1159 1.461 . S
C1156 H1176 0.932 . S
C1157 C1155 1.408 . S
C1157 C1156 1.310 . S
C1157 H1177 0.930 . S
C1158 C1159 1.474 . S
C1158 C1160 1.285 . S
C1158 H1178 0.929 . S
C1159 C1156 1.461 . S
C1159 C1158 1.474 . S
C1160 C1155 1.342 . S
C1160 C1158 1.285 . S
C1160 H1179 0.930 . S
C1161 C1164 1.424 . S
C1161 C1166 1.245 . S
C1161 C1167 1.428 . S
C1162 C1165 1.260 . S
C1162 C1166 1.477 . S
C1162 H1180 0.932 . S
C1163 C1164 1.384 . S
C1163 C1165 1.479 . S
C1163 H1181 0.929 . S
C1164 C1161 1.424 . S
C1164 C1163 1.384 . S
C1164 H1182 0.928 . S
C1165 C1162 1.260 . S
C1165 C1163 1.479 . S
C1166 C1161 1.245 . S
C1166 C1162 1.477 . S
C1166 H1183 0.932 . S
C1167 U1150 2.882 . S
C1167 C1161 1.428 . S
C1167 O1170 1.301 . S
C1167 O1171 1.282 . S
O1168 U1150 2.441 . S
O1168 C1154 1.249 . S
O1169 U1150 2.420 . S
O1169 C1154 1.202 . S
O1170 U1150 2.455 . S
O1170 C1167 1.301 . S
O1171 U1150 2.449 . S
O1171 C1167 1.282 . S
H1172 C1145 0.931 . S
H1173 C1147 0.929 . S
H1174 C1148 0.930 . S
H1175 C1149 0.931 . S
H1176 C1156 0.932 . S
H1177 C1157 0.930 . S
H1178 C1158 0.929 . S
H1179 C1160 0.930 . S
H1180 C1162 0.932 . S
H1181 C1163 0.929 . S
H1182 C1164 0.928 . S
H1183 C1166 0.932 . S
C1184 C1185 1.264 . S
C1184 C1189 1.479 . S
C1184 C1194 1.465 . S
C1185 C1184 1.264 . S
C1185 C1187 1.339 . S
C1185 H1212 0.931 . S
C1186 C1187 1.395 . S
C1186 C1188 1.320 . S
C1187 C1185 1.339 . S
C1187 C1186 1.395 . S
C1187 H1213 0.929 . S
C1188 C1186 1.320 . S
C1188 C1189 1.405 . S
C1188 H1214 0.930 . S
C1189 C1184 1.479 . S
C1189 C1188 1.405 . S
C1189 H1215 0.931 . S
U1190 O1191 2.459 . S
U1190 O1192 2.468 . S
U1190 C1193 2.993 . S
U1190 C1194 2.838 1_655 S
U1190 C1207 2.883 . S
U1190 O1208 2.435 1_655 S
U1190 O1209 2.410 1_655 S
U1190 O1210 2.460 . S
U1190 O1211 2.445 1_655 S
O1191 U1190 2.459 . S
O1191 C1193 1.353 . S
O1192 U1190 2.468 . S
O1192 C1193 1.286 . S
C1193 U1190 2.993 . S
C1193 O1191 1.353 . S
C1193 O1192 1.286 . S
C1193 C1195 1.363 . S
C1194 C1184 1.465 . S
C1194 U1190 2.838 1_455 S
C1194 O1208 1.249 . S
C1194 O1209 1.202 . S
C1195 C1193 1.363 . S
C1195 C1197 1.408 . S
C1195 C1200 1.342 . S
C1196 C1197 1.310 . S
C1196 C1199 1.461 . S
C1196 H1216 0.932 . S
C1197 C1195 1.408 . S
C1197 C1196 1.310 . S
C1197 H1217 0.930 . S
C1198 C1199 1.474 . S
C1198 C1200 1.285 . S
C1198 H1218 0.929 . S
C1199 C1196 1.461 . S
C1199 C1198 1.474 . S
C1200 C1195 1.342 . S
C1200 C1198 1.285 . S
C1200 H1219 0.930 . S
C1201 C1204 1.424 1_655 S
C1201 C1206 1.245 . S
C1201 C1207 1.428 . S
C1202 C1205 1.260 . S
C1202 C1206 1.477 . S
C1202 H1220 0.932 . S
C1203 C1204 1.384 . S
C1203 C1205 1.479 1_455 S
C1203 H1221 0.929 . S
C1204 C1201 1.424 1_455 S
C1204 C1203 1.384 . S
C1204 H1222 0.928 . S
C1205 C1202 1.260 . S
C1205 C1203 1.479 1_655 S
C1206 C1201 1.245 . S
C1206 C1202 1.477 . S
C1206 H1223 0.932 . S
C1207 U1190 2.883 . S
C1207 C1201 1.428 . S
C1207 O1210 1.301 . S
C1207 O1211 1.282 1_655 S
O1208 U1190 2.435 1_455 S
O1208 C1194 1.249 . S
O1209 U1190 2.410 1_455 S
O1209 C1194 1.202 . S
O1210 U1190 2.460 . S
O1210 C1207 1.301 . S
O1211 U1190 2.445 1_455 S
O1211 C1207 1.282 1_455 S
H1212 C1185 0.931 . S
H1213 C1187 0.929 . S
H1214 C1188 0.930 . S
H1215 C1189 0.931 . S
H1216 C1196 0.932 . S
H1217 C1197 0.930 . S
H1218 C1198 0.929 . S
H1219 C1200 0.930 . S
H1220 C1202 0.932 . S
H1221 C1203 0.929 . S
H1222 C1204 0.928 . S
H1223 C1206 0.932 . S
C1224 C1225 1.349 . S
C1224 C1226 1.327 . S
C1224 H1249 0.950 . S
C1225 C1224 1.349 . S
C1225 C1241 1.349 . S
C1226 C1224 1.327 . S
C1226 C1245 1.429 . S
C1226 H1250 0.950 . S
C1227 C1244 1.574 . S
C1227 C1246 1.368 . S
C1227 H1251 0.949 . S
H1228 C1232 0.949 . S
C1229 C1230 1.349 . S
C1229 C1231 1.327 . S
C1229 H1252 0.950 . S
C1230 C1229 1.349 . S
C1230 C1242 1.349 . S
C1231 C1229 1.327 . S
C1231 C1247 1.429 . S
C1231 H1253 0.950 . S
C1232 H1228 0.949 . S
C1232 C1240 1.574 . S
C1232 C1248 1.368 . S
H1233 C1241 0.950 . S
H1234 C1239 0.950 . S
H1235 C1240 0.949 . S
H1236 C1242 0.950 . S
H1237 C1243 0.950 . S
H1238 C1244 0.949 . S
C1239 H1234 0.950 . S
C1239 C1241 1.327 . S
C1239 C1245 1.429 . S
C1240 C1232 1.574 . S
C1240 H1235 0.949 . S
C1240 C1246 1.368 . S
C1241 C1225 1.349 . S
C1241 H1233 0.950 . S
C1241 C1239 1.327 . S
C1242 C1230 1.349 . S
C1242 H1236 0.950 . S
C1242 C1243 1.327 . S
C1243 H1237 0.950 . S
C1243 C1242 1.327 . S
C1243 C1247 1.429 . S
C1244 C1227 1.574 . S
C1244 H1238 0.949 . S
C1244 C1248 1.368 . S
C1245 C1226 1.429 . S
C1245 C1239 1.429 . S
C1245 C1246 1.523 . S
C1246 C1227 1.368 . S
C1246 C1240 1.368 . S
C1246 C1245 1.523 . S
C1247 C1231 1.429 . S
C1247 C1243 1.429 . S
C1247 C1248 1.523 . S
C1248 C1232 1.368 . S
C1248 C1244 1.368 . S
C1248 C1247 1.523 . S
H1249 C1224 0.950 . S
H1250 C1226 0.950 . S
H1251 C1227 0.949 . S
H1252 C1229 0.950 . S
H1253 C1231 0.950 . S
C1254 C1255 1.349 . S
C1254 C1256 1.327 . S
C1254 H1279 0.950 . S
C1255 C1254 1.349 . S
C1255 C1271 1.349 . S
C1256 C1254 1.327 . S
C1256 C1275 1.429 . S
C1256 H1280 0.950 . S
C1257 C1274 1.574 . S
C1257 C1276 1.368 . S
C1257 H1281 0.949 . S
H1258 C1262 0.949 . S
C1259 C1260 1.349 . S
C1259 C1261 1.327 . S
C1259 H1282 0.950 . S
C1260 C1259 1.349 . S
C1260 C1272 1.349 . S
C1261 C1259 1.327 . S
C1261 C1277 1.429 . S
C1261 H1283 0.950 . S
C1262 H1258 0.949 . S
C1262 C1270 1.574 . S
C1262 C1278 1.368 . S
H1263 C1271 0.950 . S
H1264 C1269 0.950 . S
H1265 C1270 0.949 . S
H1266 C1272 0.950 . S
H1267 C1273 0.950 . S
H1268 C1274 0.949 . S
C1269 H1264 0.950 . S
C1269 C1271 1.327 . S
C1269 C1275 1.429 . S
C1270 C1262 1.574 . S
C1270 H1265 0.949 . S
C1270 C1276 1.368 . S
C1271 C1255 1.349 . S
C1271 H1263 0.950 . S
C1271 C1269 1.327 . S
C1272 C1260 1.349 . S
C1272 H1266 0.950 . S
C1272 C1273 1.327 . S
C1273 H1267 0.950 . S
C1273 C1272 1.327 . S
C1273 C1277 1.429 . S
C1274 C1257 1.574 . S
C1274 H1268 0.949 . S
C1274 C1278 1.368 . S
C1275 C1256 1.429 . S
C1275 C1269 1.429 . S
C1275 C1276 1.523 . S
C1276 C1257 1.368 . S
C1276 C1270 1.368 . S
C1276 C1275 1.523 . S
C1277 C1261 1.429 . S
C1277 C1273 1.429 . S
C1277 C1278 1.523 . S
C1278 C1262 1.368 . S
C1278 C1274 1.368 . S
C1278 C1277 1.523 . S
H1279 C1254 0.950 . S
H1280 C1256 0.950 . S
H1281 C1257 0.949 . S
H1282 C1259 0.950 . S
H1283 C1261 0.950 . S
C1284 C1285 1.349 . S
C1284 C1286 1.327 . S
C1284 H1309 0.950 . S
C1285 C1284 1.349 . S
C1285 C1301 1.349 . S
C1286 C1284 1.327 . S
C1286 C1305 1.429 . S
C1286 H1310 0.950 . S
C1287 C1304 1.574 . S
C1287 C1306 1.368 . S
C1287 H1311 0.949 . S
H1288 C1292 0.949 . S
C1289 C1290 1.349 . S
C1289 C1291 1.327 . S
C1289 H1312 0.950 . S
C1290 C1289 1.349 . S
C1290 C1302 1.349 . S
C1291 C1289 1.327 . S
C1291 C1307 1.429 . S
C1291 H1313 0.950 . S
C1292 H1288 0.949 . S
C1292 C1300 1.574 . S
C1292 C1308 1.368 . S
H1293 C1301 0.950 1_565 S
H1294 C1299 0.968 . S
H1295 C1300 0.949 . S
H1296 C1302 0.950 . S
H1297 C1303 0.950 . S
H1298 C1304 0.949 . S
C1299 H1294 0.968 . S
C1299 C1301 1.327 . S
C1299 C1305 1.429 . S
C1300 C1292 1.574 . S
C1300 H1295 0.949 . S
C1300 C1306 1.368 . S
C1301 C1285 1.349 . S
C1301 H1293 0.950 1_545 S
C1301 C1299 1.327 . S
C1302 C1290 1.349 . S
C1302 H1296 0.950 . S
C1302 C1303 1.327 . S
C1303 H1297 0.950 . S
C1303 C1302 1.327 . S
C1303 C1307 1.429 . S
C1304 C1287 1.574 . S
C1304 H1298 0.949 . S
C1304 C1308 1.368 . S
C1305 C1286 1.429 . S
C1305 C1299 1.429 . S
C1305 C1306 1.523 . S
C1306 C1287 1.368 . S
C1306 C1300 1.368 . S
C1306 C1305 1.523 . S
C1307 C1291 1.429 . S
C1307 C1303 1.429 . S
C1307 C1308 1.523 . S
C1308 C1292 1.368 . S
C1308 C1304 1.368 . S
C1308 C1307 1.523 . S
H1309 C1284 0.950 . S
H1310 C1286 0.950 . S
H1311 C1287 0.949 . S
H1312 C1289 0.950 . S
H1313 C1291 0.950 . S
C1314 C1315 1.371 . S
C1314 C1316 1.339 . S
C1314 H1339 0.917 1_565 S
C1315 C1314 1.371 . S
C1315 C1331 1.349 . S
C1316 C1314 1.339 . S
C1316 C1335 1.429 . S
C1316 H1340 0.950 1_565 S
C1317 C1334 1.574 . S
C1317 C1336 1.368 . S
C1317 H1341 0.949 . S
H1318 C1322 0.949 . S
C1319 C1320 1.349 . S
C1319 C1321 1.327 . S
C1319 H1342 0.950 . S
C1320 C1319 1.349 . S
C1320 C1332 1.349 . S
C1321 C1319 1.327 . S
C1321 C1337 1.429 . S
C1321 H1343 0.950 . S
C1322 H1318 0.949 . S
C1322 C1330 1.574 . S
C1322 C1338 1.368 . S
H1323 C1331 0.950 . S
H1324 C1329 0.950 . S
H1325 C1330 0.949 . S
H1326 C1332 0.950 . S
H1327 C1333 0.950 . S
H1328 C1334 0.949 . S
C1329 H1324 0.950 . S
C1329 C1331 1.327 . S
C1329 C1335 1.429 . S
C1330 C1322 1.574 . S
C1330 H1325 0.949 . S
C1330 C1336 1.368 . S
C1331 C1315 1.349 . S
C1331 H1323 0.950 . S
C1331 C1329 1.327 . S
C1332 C1320 1.349 . S
C1332 H1326 0.950 . S
C1332 C1333 1.327 . S
C1333 H1327 0.950 . S
C1333 C1332 1.327 . S
C1333 C1337 1.429 . S
C1334 C1317 1.574 . S
C1334 H1328 0.949 . S
C1334 C1338 1.368 . S
C1335 C1316 1.429 . S
C1335 C1329 1.429 . S
C1335 C1336 1.523 . S
C1336 C1317 1.368 . S
C1336 C1330 1.368 . S
C1336 C1335 1.523 . S
C1337 C1321 1.429 . S
C1337 C1333 1.429 . S
C1337 C1338 1.523 . S
C1338 C1322 1.368 . S
C1338 C1334 1.368 . S
C1338 C1337 1.523 . S
H1339 C1314 0.917 1_545 S
H1340 C1316 0.950 1_545 S
H1341 C1317 0.949 . S
H1342 C1319 0.950 . S
H1343 C1321 0.950 . S
C1344 C1345 1.349 . S
C1344 C1346 1.327 . S
C1344 H1369 0.950 . S
C1345 C1344 1.349 . S
C1345 C1361 1.349 . S
C1346 C1344 1.327 . S
C1346 C1365 1.429 . S
C1346 H1370 0.950 . S
C1347 C1364 1.574 . S
C1347 C1366 1.368 . S
C1347 H1371 0.949 . S
H1348 C1352 0.949 . S
C1349 C1350 1.349 . S
C1349 C1351 1.327 . S
C1349 H1372 0.950 . S
C1350 C1349 1.349 . S
C1350 C1362 1.349 . S
C1351 C1349 1.327 . S
C1351 C1367 1.429 . S
C1351 H1373 0.950 . S
C1352 H1348 0.949 . S
C1352 C1360 1.574 . S
C1352 C1368 1.368 . S
H1353 C1361 0.950 . S
H1354 C1359 0.950 . S
H1355 C1360 0.949 . S
H1356 C1362 0.950 . S
H1357 C1363 0.950 . S
H1358 C1364 0.949 . S
C1359 H1354 0.950 . S
C1359 C1361 1.327 . S
C1359 C1365 1.429 . S
C1360 C1352 1.574 . S
C1360 H1355 0.949 . S
C1360 C1366 1.368 . S
C1361 C1345 1.349 . S
C1361 H1353 0.950 . S
C1361 C1359 1.327 . S
C1362 C1350 1.349 . S
C1362 H1356 0.950 . S
C1362 C1363 1.327 . S
C1363 H1357 0.950 . S
C1363 C1362 1.327 . S
C1363 C1367 1.429 . S
C1364 C1347 1.574 . S
C1364 H1358 0.949 . S
C1364 C1368 1.368 . S
C1365 C1346 1.429 . S
C1365 C1359 1.429 . S
C1365 C1366 1.523 . S
C1366 C1347 1.368 . S
C1366 C1360 1.368 . S
C1366 C1365 1.523 . S
C1367 C1351 1.429 . S
C1367 C1363 1.429 . S
C1367 C1368 1.523 . S
C1368 C1352 1.368 . S
C1368 C1364 1.368 . S
C1368 C1367 1.523 . S
H1369 C1344 0.950 . S
H1370 C1346 0.950 . S
H1371 C1347 0.949 . S
H1372 C1349 0.950 . S
H1373 C1351 0.950 . S
C1374 C1375 1.349 1_554 S
C1374 C1376 1.330 . S
C1374 H1399 0.950 . S
C1375 C1374 1.349 1_556 S
C1375 C1391 1.349 . S
C1376 C1374 1.330 . S
C1376 C1395 1.417 1_554 S
C1376 H1400 0.958 . S
C1377 C1394 1.574 . S
C1377 C1396 1.368 . S
C1377 H1401 0.949 . S
H1378 C1382 0.949 . S
C1379 C1380 1.349 . S
C1379 C1381 1.327 . S
C1379 H1402 0.950 . S
C1380 C1379 1.349 . S
C1380 C1392 1.349 . S
C1381 C1379 1.327 . S
C1381 C1397 1.429 . S
C1381 H1403 0.950 . S
C1382 H1378 0.949 . S
C1382 C1390 1.574 . S
C1382 C1398 1.368 . S
H1383 C1391 0.950 . S
H1384 C1389 0.950 . S
H1385 C1390 0.949 1_554 S
H1386 C1392 0.950 . S
H1387 C1393 0.950 . S
H1388 C1394 0.949 . S
C1389 H1384 0.950 . S
C1389 C1391 1.327 . S
C1389 C1395 1.429 . S
C1390 C1382 1.574 . S
C1390 H1385 0.949 1_556 S
C1390 C1396 1.368 . S
C1391 C1375 1.349 . S
C1391 H1383 0.950 . S
C1391 C1389 1.327 . S
C1392 C1380 1.349 . S
C1392 H1386 0.950 . S
C1392 C1393 1.327 . S
C1393 H1387 0.950 . S
C1393 C1392 1.327 . S
C1393 C1397 1.429 . S
C1394 C1377 1.574 . S
C1394 H1388 0.949 . S
C1394 C1398 1.368 . S
C1395 C1376 1.417 1_556 S
C1395 C1389 1.429 . S
C1395 C1396 1.523 . S
C1396 C1377 1.368 . S
C1396 C1390 1.368 . S
C1396 C1395 1.523 . S
C1397 C1381 1.429 . S
C1397 C1393 1.429 . S
C1397 C1398 1.523 . S
C1398 C1382 1.368 . S
C1398 C1394 1.368 . S
C1398 C1397 1.523 . S
H1399 C1374 0.950 . S
H1400 C1376 0.958 . S
H1401 C1377 0.949 . S
H1402 C1379 0.950 . S
H1403 C1381 0.950 . S
C1404 C1405 1.349 . S
C1404 C1406 1.327 . S
C1404 H1429 0.950 . S
C1405 C1404 1.349 . S
C1405 C1421 1.349 . S
C1406 C1404 1.327 . S
C1406 C1425 1.429 . S
C1406 H1430 0.950 . S
C1407 C1424 1.574 . S
C1407 C1426 1.368 . S
C1407 H1431 0.949 . S
H1408 C1412 0.949 . S
C1409 C1410 1.349 . S
C1409 C1411 1.327 . S
C1409 H1432 0.950 . S
C1410 C1409 1.349 . S
C1410 C1422 1.349 . S
C1411 C1409 1.327 . S
C1411 C1427 1.429 . S
C1411 H1433 0.950 . S
C1412 H1408 0.949 . S
C1412 C1420 1.574 . S
C1412 C1428 1.368 . S
H1413 C1421 0.950 . S
H1414 C1419 0.950 . S
H1415 C1420 0.949 . S
H1416 C1422 0.950 . S
H1417 C1423 0.950 . S
H1418 C1424 0.949 . S
C1419 H1414 0.950 . S
C1419 C1421 1.327 . S
C1419 C1425 1.429 . S
C1420 C1412 1.574 . S
C1420 H1415 0.949 . S
C1420 C1426 1.368 . S
C1421 C1405 1.349 . S
C1421 H1413 0.950 . S
C1421 C1419 1.327 . S
C1422 C1410 1.349 . S
C1422 H1416 0.950 . S
C1422 C1423 1.327 . S
C1423 H1417 0.950 . S
C1423 C1422 1.327 . S
C1423 C1427 1.429 . S
C1424 C1407 1.574 . S
C1424 H1418 0.949 . S
C1424 C1428 1.368 . S
C1425 C1406 1.429 . S
C1425 C1419 1.429 . S
C1425 C1426 1.523 . S
C1426 C1407 1.368 . S
C1426 C1420 1.368 . S
C1426 C1425 1.523 . S
C1427 C1411 1.429 . S
C1427 C1423 1.429 . S
C1427 C1428 1.523 . S
C1428 C1412 1.368 . S
C1428 C1424 1.368 . S
C1428 C1427 1.523 . S
H1429 C1404 0.950 . S
H1430 C1406 0.950 . S
H1431 C1407 0.949 . S
H1432 C1409 0.950 . S
H1433 C1411 0.950 . S
C1434 C1435 1.349 . S
C1434 C1436 1.327 . S
C1434 H1459 0.950 . S
C1435 C1434 1.349 . S
C1435 C1451 1.349 1_554 S
C1436 C1434 1.327 . S
C1436 C1455 1.429 . S
C1436 H1460 0.950 . S
C1437 C1454 1.574 . S
C1437 C1456 1.368 . S
C1437 H1461 0.949 1_554 S
H1438 C1442 0.949 . S
C1439 C1440 1.349 . S
C1439 C1441 1.327 . S
C1439 H1462 0.950 . S
C1440 C1439 1.349 . S
C1440 C1452 1.349 . S
C1441 C1439 1.327 . S
C1441 C1457 1.429 . S
C1441 H1463 0.950 . S
C1442 H1438 0.949 . S
C1442 C1450 1.574 . S
C1442 C1458 1.368 . S
H1443 C1451 0.950 . S
H1444 C1449 0.943 1_556 S
H1445 C1450 0.949 . S
H1446 C1452 0.950 . S
H1447 C1453 0.950 . S
H1448 C1454 0.949 . S
C1449 H1444 0.943 1_554 S
C1449 C1451 1.325 1_554 S
C1449 C1455 1.437 . S
C1450 C1442 1.574 . S
C1450 H1445 0.949 . S
C1450 C1456 1.368 . S
C1451 C1435 1.349 1_556 S
C1451 H1443 0.950 . S
C1451 C1449 1.325 1_556 S
C1452 C1440 1.349 . S
C1452 H1446 0.950 . S
C1452 C1453 1.327 . S
C1453 H1447 0.950 . S
C1453 C1452 1.327 . S
C1453 C1457 1.429 . S
C1454 C1437 1.574 . S
C1454 H1448 0.949 . S
C1454 C1458 1.368 . S
C1455 C1436 1.429 . S
C1455 C1449 1.437 . S
C1455 C1456 1.523 . S
C1456 C1437 1.368 . S
C1456 C1450 1.368 . S
C1456 C1455 1.523 . S
C1457 C1441 1.429 . S
C1457 C1453 1.429 . S
C1457 C1458 1.523 . S
C1458 C1442 1.368 . S
C1458 C1454 1.368 . S
C1458 C1457 1.523 . S
H1459 C1434 0.950 . S
H1460 C1436 0.950 . S
H1461 C1437 0.949 1_556 S
H1462 C1439 0.950 . S
H1463 C1441 0.950 . S
C1464 C1465 1.349 . S
C1464 C1466 1.327 . S
C1464 H1489 0.950 . S
C1465 C1464 1.349 . S
C1465 C1481 1.349 . S
C1466 C1464 1.327 . S
C1466 C1485 1.429 . S
C1466 H1490 0.950 . S
C1467 C1484 1.574 . S
C1467 C1486 1.368 . S
C1467 H1491 0.949 . S
H1468 C1472 0.949 . S
C1469 C1470 1.349 . S
C1469 C1471 1.327 . S
C1469 H1492 0.950 . S
C1470 C1469 1.349 . S
C1470 C1482 1.349 . S
C1471 C1469 1.327 . S
C1471 C1487 1.429 . S
C1471 H1493 0.950 . S
C1472 H1468 0.949 . S
C1472 C1480 1.574 . S
C1472 C1488 1.368 . S
H1473 C1481 0.950 . S
H1474 C1479 0.950 . S
H1475 C1480 0.949 . S
H1476 C1482 0.950 . S
H1477 C1483 0.950 . S
H1478 C1484 0.949 . S
C1479 H1474 0.950 . S
C1479 C1481 1.327 . S
C1479 C1485 1.429 . S
C1480 C1472 1.574 . S
C1480 H1475 0.949 . S
C1480 C1486 1.368 . S
C1481 C1465 1.349 . S
C1481 H1473 0.950 . S
C1481 C1479 1.327 . S
C1482 C1470 1.349 . S
C1482 H1476 0.950 . S
C1482 C1483 1.327 . S
C1483 H1477 0.950 . S
C1483 C1482 1.327 . S
C1483 C1487 1.429 . S
C1484 C1467 1.574 . S
C1484 H1478 0.949 . S
C1484 C1488 1.368 . S
C1485 C1466 1.429 . S
C1485 C1479 1.429 . S
C1485 C1486 1.523 . S
C1486 C1467 1.368 . S
C1486 C1480 1.368 . S
C1486 C1485 1.523 . S
C1487 C1471 1.429 . S
C1487 C1483 1.429 . S
C1487 C1488 1.523 . S
C1488 C1472 1.368 . S
C1488 C1484 1.368 . S
C1488 C1487 1.523 . S
H1489 C1464 0.950 . S
H1490 C1466 0.950 . S
H1491 C1467 0.949 . S
H1492 C1469 0.950 . S
H1493 C1471 0.950 . S
C1494 C1495 1.349 . S
C1494 C1496 1.327 . S
C1494 H1519 0.950 . S
C1495 C1494 1.349 . S
C1495 C1511 1.349 . S
C1496 C1494 1.327 . S
C1496 C1515 1.429 . S
C1496 H1520 0.950 . S
C1497 C1514 1.574 . S
C1497 C1516 1.368 . S
C1497 H1521 0.949 . S
H1498 C1502 0.949 . S
C1499 C1500 1.349 . S
C1499 C1501 1.327 . S
C1499 H1522 0.950 . S
C1500 C1499 1.349 . S
C1500 C1512 1.349 . S
C1501 C1499 1.327 . S
C1501 C1517 1.429 . S
C1501 H1523 0.950 . S
C1502 H1498 0.949 . S
C1502 C1510 1.574 . S
C1502 C1518 1.368 . S
H1503 C1511 0.950 1_455 S
H1504 C1509 0.950 . S
H1505 C1510 0.949 . S
H1506 C1512 0.950 . S
H1507 C1513 0.950 . S
H1508 C1514 0.949 . S
C1509 H1504 0.950 . S
C1509 C1511 1.327 . S
C1509 C1515 1.429 . S
C1510 C1502 1.574 . S
C1510 H1505 0.949 . S
C1510 C1516 1.368 . S
C1511 C1495 1.349 . S
C1511 H1503 0.950 1_655 S
C1511 C1509 1.327 . S
C1512 C1500 1.349 . S
C1512 H1506 0.950 . S
C1512 C1513 1.327 . S
C1513 H1507 0.950 . S
C1513 C1512 1.327 . S
C1513 C1517 1.429 . S
C1514 C1497 1.574 . S
C1514 H1508 0.949 . S
C1514 C1518 1.368 . S
C1515 C1496 1.429 . S
C1515 C1509 1.429 . S
C1515 C1516 1.523 . S
C1516 C1497 1.368 . S
C1516 C1510 1.368 . S
C1516 C1515 1.523 . S
C1517 C1501 1.429 . S
C1517 C1513 1.429 . S
C1517 C1518 1.523 . S
C1518 C1502 1.368 . S
C1518 C1514 1.368 . S
C1518 C1517 1.523 . S
H1519 C1494 0.950 . S
H1520 C1496 0.950 . S
H1521 C1497 0.949 . S
H1522 C1499 0.950 . S
H1523 C1501 0.950 . S
C1524 C1525 1.349 . S
C1524 C1526 1.327 . S
C1524 H1549 0.950 . S
C1525 C1524 1.349 . S
C1525 C1541 1.349 . S
C1526 C1524 1.327 . S
C1526 C1545 1.429 . S
C1526 H1550 0.950 . S
C1527 C1544 1.574 . S
C1527 C1546 1.368 . S
C1527 H1551 0.949 . S
H1528 C1532 0.949 . S
C1529 C1530 1.349 . S
C1529 C1531 1.327 . S
C1529 H1552 0.950 . S
C1530 C1529 1.349 . S
C1530 C1542 1.349 . S
C1531 C1529 1.327 . S
C1531 C1547 1.429 . S
C1531 H1553 0.950 . S
C1532 H1528 0.949 . S
C1532 C1540 1.574 . S
C1532 C1548 1.368 . S
H1533 C1541 0.950 . S
H1534 C1539 0.950 . S
H1535 C1540 0.949 . S
H1536 C1542 0.950 . S
H1537 C1543 0.950 . S
H1538 C1544 0.949 . S
C1539 H1534 0.950 . S
C1539 C1541 1.327 . S
C1539 C1545 1.429 . S
C1540 C1532 1.574 . S
C1540 H1535 0.949 . S
C1540 C1546 1.368 . S
C1541 C1525 1.349 . S
C1541 H1533 0.950 . S
C1541 C1539 1.327 . S
C1542 C1530 1.349 . S
C1542 H1536 0.950 . S
C1542 C1543 1.327 . S
C1543 H1537 0.950 . S
C1543 C1542 1.327 . S
C1543 C1547 1.429 . S
C1544 C1527 1.574 . S
C1544 H1538 0.949 . S
C1544 C1548 1.368 . S
C1545 C1526 1.429 . S
C1545 C1539 1.429 . S
C1545 C1546 1.523 . S
C1546 C1527 1.368 . S
C1546 C1540 1.368 . S
C1546 C1545 1.523 . S
C1547 C1531 1.429 . S
C1547 C1543 1.429 . S
C1547 C1548 1.523 . S
C1548 C1532 1.368 . S
C1548 C1544 1.368 . S
C1548 C1547 1.523 . S
H1549 C1524 0.950 . S
H1550 C1526 0.950 . S
H1551 C1527 0.949 . S
H1552 C1529 0.950 . S
H1553 C1531 0.950 . S
C1554 C1555 1.349 . S
C1554 C1556 1.327 . S
C1554 H1579 0.950 . S
C1555 C1554 1.349 . S
C1555 C1571 1.349 1_455 S
C1556 C1554 1.327 . S
C1556 C1575 1.429 . S
C1556 H1580 0.950 . S
C1557 C1574 1.574 . S
C1557 C1576 1.368 . S
C1557 H1581 0.949 1_455 S
H1558 C1562 0.949 . S
C1559 C1560 1.349 . S
C1559 C1561 1.327 . S
C1559 H1582 0.950 . S
C1560 C1559 1.349 . S
C1560 C1572 1.349 . S
C1561 C1559 1.327 . S
C1561 C1577 1.429 . S
C1561 H1583 0.950 . S
C1562 H1558 0.949 . S
C1562 C1570 1.574 . S
C1562 C1578 1.368 . S
H1563 C1571 0.950 . S
H1564 C1569 0.933 1_655 S
H1565 C1570 0.949 . S
H1566 C1572 0.950 . S
H1567 C1573 0.950 . S
H1568 C1574 0.949 . S
C1569 H1564 0.933 1_455 S
C1569 C1571 1.321 1_455 S
C1569 C1575 1.452 . S
C1570 C1562 1.574 . S
C1570 H1565 0.949 . S
C1570 C1576 1.368 . S
C1571 C1555 1.349 1_655 S
C1571 H1563 0.950 . S
C1571 C1569 1.321 1_655 S
C1572 C1560 1.349 . S
C1572 H1566 0.950 . S
C1572 C1573 1.327 . S
C1573 H1567 0.950 . S
C1573 C1572 1.327 . S
C1573 C1577 1.429 . S
C1574 C1557 1.574 . S
C1574 H1568 0.949 . S
C1574 C1578 1.368 . S
C1575 C1556 1.429 . S
C1575 C1569 1.452 . S
C1575 C1576 1.523 . S
C1576 C1557 1.368 . S
C1576 C1570 1.368 . S
C1576 C1575 1.523 . S
C1577 C1561 1.429 . S
C1577 C1573 1.429 . S
C1577 C1578 1.523 . S
C1578 C1562 1.368 . S
C1578 C1574 1.368 . S
C1578 C1577 1.523 . S
H1579 C1554 0.950 . S
H1580 C1556 0.950 . S
H1581 C1557 0.949 1_655 S
H1582 C1559 0.950 . S
H1583 C1561 0.950 . S
C1584 C1585 1.349 . S
C1584 C1586 1.327 . S
C1584 H1609 0.950 . S
C1585 C1584 1.349 . S
C1585 C1601 1.349 . S
C1586 C1584 1.327 . S
C1586 C1605 1.429 . S
C1586 H1610 0.950 . S
C1587 C1604 1.574 . S
C1587 C1606 1.368 . S
C1587 H1611 0.949 . S
H1588 C1592 0.949 . S
C1589 C1590 1.349 . S
C1589 C1591 1.327 . S
C1589 H1612 0.950 . S
C1590 C1589 1.349 . S
C1590 C1602 1.349 . S
C1591 C1589 1.327 . S
C1591 C1607 1.429 . S
C1591 H1613 0.950 . S
C1592 H1588 0.949 . S
C1592 C1600 1.574 . S
C1592 C1608 1.368 . S
H1593 C1601 0.950 . S
H1594 C1599 0.950 . S
H1595 C1600 0.949 . S
H1596 C1602 0.950 . S
H1597 C1603 0.950 . S
H1598 C1604 0.949 . S
C1599 H1594 0.950 . S
C1599 C1601 1.327 . S
C1599 C1605 1.429 . S
C1600 C1592 1.574 . S
C1600 H1595 0.949 . S
C1600 C1606 1.368 . S
C1601 C1585 1.349 . S
C1601 H1593 0.950 . S
C1601 C1599 1.327 . S
C1602 C1590 1.349 . S
C1602 H1596 0.950 . S
C1602 C1603 1.327 . S
C1603 H1597 0.950 . S
C1603 C1602 1.327 . S
C1603 C1607 1.429 . S
C1604 C1587 1.574 . S
C1604 H1598 0.949 . S
C1604 C1608 1.368 . S
C1605 C1586 1.429 . S
C1605 C1599 1.429 . S
C1605 C1606 1.523 . S
C1606 C1587 1.368 . S
C1606 C1600 1.368 . S
C1606 C1605 1.523 . S
C1607 C1591 1.429 . S
C1607 C1603 1.429 . S
C1607 C1608 1.523 . S
C1608 C1592 1.368 . S
C1608 C1604 1.368 . S
C1608 C1607 1.523 . S
H1609 C1584 0.950 . S
H1610 C1586 0.950 . S
H1611 C1587 0.949 . S
H1612 C1589 0.950 . S
H1613 C1591 0.950 . S
C1614 C1615 1.349 . S
C1614 C1616 1.327 . S
C1614 H1639 0.950 . S
C1615 C1614 1.349 . S
C1615 C1631 1.349 . S
C1616 C1614 1.327 . S
C1616 C1635 1.429 . S
C1616 H1640 0.950 . S
C1617 C1634 1.574 . S
C1617 C1636 1.368 . S
C1617 H1641 0.949 . S
H1618 C1622 0.949 . S
C1619 C1620 1.349 . S
C1619 C1621 1.327 . S
C1619 H1642 0.950 . S
C1620 C1619 1.349 . S
C1620 C1632 1.349 . S
C1621 C1619 1.327 . S
C1621 C1637 1.429 . S
C1621 H1643 0.950 . S
C1622 H1618 0.949 . S
C1622 C1630 1.574 . S
C1622 C1638 1.368 . S
H1623 C1631 0.950 . S
H1624 C1629 0.950 . S
H1625 C1630 0.949 . S
H1626 C1632 0.950 . S
H1627 C1633 0.950 . S
H1628 C1634 0.949 . S
C1629 H1624 0.950 . S
C1629 C1631 1.327 . S
C1629 C1635 1.429 . S
C1630 C1622 1.574 . S
C1630 H1625 0.949 . S
C1630 C1636 1.368 . S
C1631 C1615 1.349 . S
C1631 H1623 0.950 . S
C1631 C1629 1.327 . S
C1632 C1620 1.349 . S
C1632 H1626 0.950 . S
C1632 C1633 1.327 . S
C1633 H1627 0.950 . S
C1633 C1632 1.327 . S
C1633 C1637 1.429 . S
C1634 C1617 1.574 . S
C1634 H1628 0.949 . S
C1634 C1638 1.368 . S
C1635 C1616 1.429 . S
C1635 C1629 1.429 . S
C1635 C1636 1.523 . S
C1636 C1617 1.368 . S
C1636 C1630 1.368 . S
C1636 C1635 1.523 . S
C1637 C1621 1.429 . S
C1637 C1633 1.429 . S
C1637 C1638 1.523 . S
C1638 C1622 1.368 . S
C1638 C1634 1.368 . S
C1638 C1637 1.523 . S
H1639 C1614 0.950 . S
H1640 C1616 0.950 . S
H1641 C1617 0.949 . S
H1642 C1619 0.950 . S
H1643 C1621 0.950 . S
C1644 C1645 1.349 . S
C1644 C1646 1.327 . S
C1644 H1669 0.950 . S
C1645 C1644 1.349 . S
C1645 C1661 1.349 1_565 S
C1646 C1644 1.327 . S
C1646 C1665 1.429 . S
C1646 H1670 0.950 . S
C1647 C1664 1.574 . S
C1647 C1666 1.368 . S
C1647 H1671 0.949 1_565 S
H1648 C1652 0.949 . S
C1649 C1650 1.349 . S
C1649 C1651 1.327 . S
C1649 H1672 0.950 . S
C1650 C1649 1.349 . S
C1650 C1662 1.349 . S
C1651 C1649 1.327 . S
C1651 C1667 1.429 . S
C1651 H1673 0.950 . S
C1652 H1648 0.949 . S
C1652 C1660 1.574 . S
C1652 C1668 1.368 . S
H1653 C1661 0.950 . S
H1654 C1659 0.989 . S
H1655 C1660 0.949 . S
H1656 C1662 0.950 . S
H1657 C1663 0.950 . S
H1658 C1664 0.949 . S
C1659 H1654 0.989 . S
C1659 C1661 1.340 . S
C1659 C1665 1.379 1_545 S
C1660 C1652 1.574 . S
C1660 H1655 0.949 . S
C1660 C1666 1.368 . S
C1661 C1645 1.349 1_545 S
C1661 H1653 0.950 . S
C1661 C1659 1.340 . S
C1662 C1650 1.349 . S
C1662 H1656 0.950 . S
C1662 C1663 1.327 . S
C1663 H1657 0.950 . S
C1663 C1662 1.327 . S
C1663 C1667 1.429 . S
C1664 C1647 1.574 . S
C1664 H1658 0.949 . S
C1664 C1668 1.368 . S
C1665 C1646 1.429 . S
C1665 C1659 1.379 1_565 S
C1665 C1666 1.523 . S
C1666 C1647 1.368 . S
C1666 C1660 1.368 . S
C1666 C1665 1.523 . S
C1667 C1651 1.429 . S
C1667 C1663 1.429 . S
C1667 C1668 1.523 . S
C1668 C1652 1.368 . S
C1668 C1664 1.368 . S
C1668 C1667 1.523 . S
H1669 C1644 0.950 . S
H1670 C1646 0.950 . S
H1671 C1647 0.949 1_545 S
H1672 C1649 0.950 . S
H1673 C1651 0.950 . S
C1674 C1675 1.349 . S
C1674 C1676 1.327 . S
C1674 H1699 0.950 . S
C1675 C1674 1.349 . S
C1675 C1691 1.349 . S
C1676 C1674 1.327 . S
C1676 C1695 1.429 . S
C1676 H1700 0.950 . S
C1677 C1694 1.574 . S
C1677 C1696 1.368 . S
C1677 H1701 0.949 . S
H1678 C1682 0.949 . S
C1679 C1680 1.349 . S
C1679 C1681 1.327 . S
C1679 H1702 0.950 . S
C1680 C1679 1.349 . S
C1680 C1692 1.349 . S
C1681 C1679 1.327 . S
C1681 C1697 1.429 . S
C1681 H1703 0.950 . S
C1682 H1678 0.949 . S
C1682 C1690 1.574 . S
C1682 C1698 1.368 . S
H1683 C1691 0.950 . S
H1684 C1689 0.950 . S
H1685 C1690 0.949 . S
H1686 C1692 0.950 . S
H1687 C1693 0.950 . S
H1688 C1694 0.949 . S
C1689 H1684 0.950 . S
C1689 C1691 1.327 . S
C1689 C1695 1.429 . S
C1690 C1682 1.574 . S
C1690 H1685 0.949 . S
C1690 C1696 1.368 . S
C1691 C1675 1.349 . S
C1691 H1683 0.950 . S
C1691 C1689 1.327 . S
C1692 C1680 1.349 . S
C1692 H1686 0.950 . S
C1692 C1693 1.327 . S
C1693 H1687 0.950 . S
C1693 C1692 1.327 . S
C1693 C1697 1.429 . S
C1694 C1677 1.574 . S
C1694 H1688 0.949 . S
C1694 C1698 1.368 . S
C1695 C1676 1.429 . S
C1695 C1689 1.429 . S
C1695 C1696 1.523 . S
C1696 C1677 1.368 . S
C1696 C1690 1.368 . S
C1696 C1695 1.523 . S
C1697 C1681 1.429 . S
C1697 C1693 1.429 . S
C1697 C1698 1.523 . S
C1698 C1682 1.368 . S
C1698 C1694 1.368 . S
C1698 C1697 1.523 . S
H1699 C1674 0.950 . S
H1700 C1676 0.950 . S
H1701 C1677 0.949 . S
H1702 C1679 0.950 . S
H1703 C1681 0.950 . S
C1704 C1705 1.349 . S
C1704 C1706 1.327 . S
C1704 H1729 0.950 . S
C1705 C1704 1.349 . S
C1705 C1721 1.349 . S
C1706 C1704 1.327 . S
C1706 C1725 1.429 . S
C1706 H1730 0.950 . S
C1707 C1724 1.574 . S
C1707 C1726 1.368 . S
C1707 H1731 0.949 . S
H1708 C1712 0.949 . S
C1709 C1710 1.349 . S
C1709 C1711 1.327 . S
C1709 H1732 0.950 . S
C1710 C1709 1.349 . S
C1710 C1722 1.349 . S
C1711 C1709 1.327 . S
C1711 C1727 1.429 . S
C1711 H1733 0.950 . S
C1712 H1708 0.949 . S
C1712 C1720 1.574 . S
C1712 C1728 1.368 . S
H1713 C1721 0.950 . S
H1714 C1719 0.950 . S
H1715 C1720 0.949 . S
H1716 C1722 0.950 . S
H1717 C1723 0.950 . S
H1718 C1724 0.949 . S
C1719 H1714 0.950 . S
C1719 C1721 1.327 . S
C1719 C1725 1.429 . S
C1720 C1712 1.574 . S
C1720 H1715 0.949 . S
C1720 C1726 1.368 . S
C1721 C1705 1.349 . S
C1721 H1713 0.950 . S
C1721 C1719 1.327 . S
C1722 C1710 1.349 . S
C1722 H1716 0.950 . S
C1722 C1723 1.327 . S
C1723 H1717 0.950 . S
C1723 C1722 1.327 . S
C1723 C1727 1.429 . S
C1724 C1707 1.574 . S
C1724 H1718 0.949 . S
C1724 C1728 1.368 . S
C1725 C1706 1.429 . S
C1725 C1719 1.429 . S
C1725 C1726 1.523 . S
C1726 C1707 1.368 . S
C1726 C1720 1.368 . S
C1726 C1725 1.523 . S
C1727 C1711 1.429 . S
C1727 C1723 1.429 . S
C1727 C1728 1.523 . S
C1728 C1712 1.368 . S
C1728 C1724 1.368 . S
C1728 C1727 1.523 . S
H1729 C1704 0.950 . S
H1730 C1706 0.950 . S
H1731 C1707 0.949 . S
H1732 C1709 0.950 . S
H1733 C1711 0.950 . S
C1734 C1735 1.349 1_556 S
C1734 C1736 1.331 . S
C1734 H1759 0.950 . S
C1735 C1734 1.349 1_554 S
C1735 C1751 1.349 . S
C1736 C1734 1.331 . S
C1736 C1755 1.414 1_556 S
C1736 H1760 0.961 . S
C1737 C1754 1.574 . S
C1737 C1756 1.368 . S
C1737 H1761 0.949 . S
H1738 C1742 0.949 . S
C1739 C1740 1.349 . S
C1739 C1741 1.327 . S
C1739 H1762 0.950 . S
C1740 C1739 1.349 . S
C1740 C1752 1.349 . S
C1741 C1739 1.327 . S
C1741 C1757 1.429 . S
C1741 H1763 0.950 . S
C1742 H1738 0.949 . S
C1742 C1750 1.574 . S
C1742 C1758 1.368 . S
H1743 C1751 0.950 . S
H1744 C1749 0.950 . S
H1745 C1750 0.949 1_556 S
H1746 C1752 0.950 . S
H1747 C1753 0.950 . S
H1748 C1754 0.949 . S
C1749 H1744 0.950 . S
C1749 C1751 1.327 . S
C1749 C1755 1.429 . S
C1750 C1742 1.574 . S
C1750 H1745 0.949 1_554 S
C1750 C1756 1.368 . S
C1751 C1735 1.349 . S
C1751 H1743 0.950 . S
C1751 C1749 1.327 . S
C1752 C1740 1.349 . S
C1752 H1746 0.950 . S
C1752 C1753 1.327 . S
C1753 H1747 0.950 . S
C1753 C1752 1.327 . S
C1753 C1757 1.429 . S
C1754 C1737 1.574 . S
C1754 H1748 0.949 . S
C1754 C1758 1.368 . S
C1755 C1736 1.414 1_554 S
C1755 C1749 1.429 . S
C1755 C1756 1.523 . S
C1756 C1737 1.368 . S
C1756 C1750 1.368 . S
C1756 C1755 1.523 . S
C1757 C1741 1.429 . S
C1757 C1753 1.429 . S
C1757 C1758 1.523 . S
C1758 C1742 1.368 . S
C1758 C1754 1.368 . S
C1758 C1757 1.523 . S
H1759 C1734 0.950 . S
H1760 C1736 0.961 . S
H1761 C1737 0.949 . S
H1762 C1739 0.950 . S
H1763 C1741 0.950 . S
C1764 C1765 1.349 . S
C1764 C1766 1.327 . S
C1764 H1789 0.950 . S
C1765 C1764 1.349 . S
C1765 C1781 1.349 . S
C1766 C1764 1.327 . S
C1766 C1785 1.429 . S
C1766 H1790 0.950 . S
C1767 C1784 1.574 . S
C1767 C1786 1.368 . S
C1767 H1791 0.949 . S
H1768 C1772 0.949 . S
C1769 C1770 1.349 . S
C1769 C1771 1.327 . S
C1769 H1792 0.950 . S
C1770 C1769 1.349 . S
C1770 C1782 1.349 . S
C1771 C1769 1.327 . S
C1771 C1787 1.429 . S
C1771 H1793 0.950 . S
C1772 H1768 0.949 . S
C1772 C1780 1.574 . S
C1772 C1788 1.368 . S
H1773 C1781 0.950 . S
H1774 C1779 0.950 . S
H1775 C1780 0.949 . S
H1776 C1782 0.950 . S
H1777 C1783 0.950 . S
H1778 C1784 0.949 . S
C1779 H1774 0.950 . S
C1779 C1781 1.327 . S
C1779 C1785 1.429 . S
C1780 C1772 1.574 . S
C1780 H1775 0.949 . S
C1780 C1786 1.368 . S
C1781 C1765 1.349 . S
C1781 H1773 0.950 . S
C1781 C1779 1.327 . S
C1782 C1770 1.349 . S
C1782 H1776 0.950 . S
C1782 C1783 1.327 . S
C1783 H1777 0.950 . S
C1783 C1782 1.327 . S
C1783 C1787 1.429 . S
C1784 C1767 1.574 . S
C1784 H1778 0.949 . S
C1784 C1788 1.368 . S
C1785 C1766 1.429 . S
C1785 C1779 1.429 . S
C1785 C1786 1.523 . S
C1786 C1767 1.368 . S
C1786 C1780 1.368 . S
C1786 C1785 1.523 . S
C1787 C1771 1.429 . S
C1787 C1783 1.429 . S
C1787 C1788 1.523 . S
C1788 C1772 1.368 . S
C1788 C1784 1.368 . S
C1788 C1787 1.523 . S
H1789 C1764 0.950 . S
H1790 C1766 0.950 . S
H1791 C1767 0.949 . S
H1792 C1769 0.950 . S
H1793 C1771 0.950 . S
C1794 C1795 1.349 . S
C1794 C1796 1.327 . S
C1794 H1819 0.950 . S
C1795 C1794 1.349 . S
C1795 C1811 1.349 1_556 S
C1796 C1794 1.327 . S
C1796 C1815 1.429 . S
C1796 H1820 0.950 . S
C1797 C1814 1.574 . S
C1797 C1816 1.368 . S
C1797 H1821 0.949 1_556 S
H1798 C1802 0.949 . S
C1799 C1800 1.349 . S
C1799 C1801 1.327 . S
C1799 H1822 0.950 . S
C1800 C1799 1.349 . S
C1800 C1812 1.349 . S
C1801 C1799 1.327 . S
C1801 C1817 1.429 . S
C1801 H1823 0.950 . S
C1802 H1798 0.949 . S
C1802 C1810 1.574 . S
C1802 C1818 1.368 . S
H1803 C1811 0.950 . S
H1804 C1809 0.946 . S
H1805 C1810 0.949 . S
H1806 C1812 0.950 . S
H1807 C1813 0.950 . S
H1808 C1814 0.949 . S
C1809 H1804 0.946 . S
C1809 C1811 1.326 . S
C1809 C1815 1.434 1_554 S
C1810 C1802 1.574 . S
C1810 H1805 0.949 . S
C1810 C1816 1.368 . S
C1811 C1795 1.349 1_554 S
C1811 H1803 0.950 . S
C1811 C1809 1.326 . S
C1812 C1800 1.349 . S
C1812 H1806 0.950 . S
C1812 C1813 1.327 . S
C1813 H1807 0.950 . S
C1813 C1812 1.327 . S
C1813 C1817 1.429 . S
C1814 C1797 1.574 . S
C1814 H1808 0.949 . S
C1814 C1818 1.368 . S
C1815 C1796 1.429 . S
C1815 C1809 1.434 1_556 S
C1815 C1816 1.523 . S
C1816 C1797 1.368 . S
C1816 C1810 1.368 . S
C1816 C1815 1.523 . S
C1817 C1801 1.429 . S
C1817 C1813 1.429 . S
C1817 C1818 1.523 . S
C1818 C1802 1.368 . S
C1818 C1814 1.368 . S
C1818 C1817 1.523 . S
H1819 C1794 0.950 . S
H1820 C1796 0.950 . S
H1821 C1797 0.949 1_554 S
H1822 C1799 0.950 . S
H1823 C1801 0.950 . S
C1824 C1825 1.349 . S
C1824 C1826 1.327 . S
C1824 H1849 0.950 . S
C1825 C1824 1.349 . S
C1825 C1841 1.349 . S
C1826 C1824 1.327 . S
C1826 C1845 1.429 . S
C1826 H1850 0.950 . S
C1827 C1844 1.574 . S
C1827 C1846 1.368 . S
C1827 H1851 0.949 . S
H1828 C1832 0.949 . S
C1829 C1830 1.349 . S
C1829 C1831 1.327 . S
C1829 H1852 0.950 . S
C1830 C1829 1.349 . S
C1830 C1842 1.349 . S
C1831 C1829 1.327 . S
C1831 C1847 1.429 . S
C1831 H1853 0.950 . S
C1832 H1828 0.949 . S
C1832 C1840 1.574 . S
C1832 C1848 1.368 . S
H1833 C1841 0.950 . S
H1834 C1839 0.950 . S
H1835 C1840 0.949 . S
H1836 C1842 0.950 . S
H1837 C1843 0.950 . S
H1838 C1844 0.949 . S
C1839 H1834 0.950 . S
C1839 C1841 1.327 . S
C1839 C1845 1.429 . S
C1840 C1832 1.574 . S
C1840 H1835 0.949 . S
C1840 C1846 1.368 . S
C1841 C1825 1.349 . S
C1841 H1833 0.950 . S
C1841 C1839 1.327 . S
C1842 C1830 1.349 . S
C1842 H1836 0.950 . S
C1842 C1843 1.327 . S
C1843 H1837 0.950 . S
C1843 C1842 1.327 . S
C1843 C1847 1.429 . S
C1844 C1827 1.574 . S
C1844 H1838 0.949 . S
C1844 C1848 1.368 . S
C1845 C1826 1.429 . S
C1845 C1839 1.429 . S
C1845 C1846 1.523 . S
C1846 C1827 1.368 . S
C1846 C1840 1.368 . S
C1846 C1845 1.523 . S
C1847 C1831 1.429 . S
C1847 C1843 1.429 . S
C1847 C1848 1.523 . S
C1848 C1832 1.368 . S
C1848 C1844 1.368 . S
C1848 C1847 1.523 . S
H1849 C1824 0.950 . S
H1850 C1826 0.950 . S
H1851 C1827 0.949 . S
H1852 C1829 0.950 . S
H1853 C1831 0.950 . S
C1854 C1855 1.349 . S
C1854 C1856 1.327 . S
C1854 H1879 0.950 1_455 S
C1855 C1854 1.349 . S
C1855 C1871 1.349 . S
C1856 C1854 1.327 . S
C1856 C1875 1.429 . S
C1856 H1880 0.960 . S
C1857 C1874 1.574 . S
C1857 C1876 1.368 . S
C1857 H1881 0.949 . S
H1858 C1862 0.949 . S
C1859 C1860 1.349 . S
C1859 C1861 1.327 . S
C1859 H1882 0.950 . S
C1860 C1859 1.349 . S
C1860 C1872 1.349 . S
C1861 C1859 1.327 . S
C1861 C1877 1.429 . S
C1861 H1883 0.950 . S
C1862 H1858 0.949 . S
C1862 C1870 1.574 . S
C1862 C1878 1.368 . S
H1863 C1871 0.950 . S
H1864 C1869 0.950 . S
H1865 C1870 0.949 . S
H1866 C1872 0.950 . S
H1867 C1873 0.950 . S
H1868 C1874 0.949 . S
C1869 H1864 0.950 . S
C1869 C1871 1.327 . S
C1869 C1875 1.429 . S
C1870 C1862 1.574 . S
C1870 H1865 0.949 . S
C1870 C1876 1.368 . S
C1871 C1855 1.349 . S
C1871 H1863 0.950 . S
C1871 C1869 1.327 . S
C1872 C1860 1.349 . S
C1872 H1866 0.950 . S
C1872 C1873 1.327 . S
C1873 H1867 0.950 . S
C1873 C1872 1.327 . S
C1873 C1877 1.429 . S
C1874 C1857 1.574 . S
C1874 H1868 0.949 . S
C1874 C1878 1.368 . S
C1875 C1856 1.429 . S
C1875 C1869 1.429 . S
C1875 C1876 1.523 . S
C1876 C1857 1.368 . S
C1876 C1870 1.368 . S
C1876 C1875 1.523 . S
C1877 C1861 1.429 . S
C1877 C1873 1.429 . S
C1877 C1878 1.523 . S
C1878 C1862 1.368 . S
C1878 C1874 1.368 . S
C1878 C1877 1.523 . S
H1879 C1854 0.950 1_655 S
H1880 C1856 0.960 . S
H1881 C1857 0.949 . S
H1882 C1859 0.950 . S
H1883 C1861 0.950 . S
C1884 C1885 1.349 . S
C1884 C1886 1.327 . S
C1884 H1909 0.950 . S
C1885 C1884 1.349 . S
C1885 C1901 1.349 . S
C1886 C1884 1.327 . S
C1886 C1905 1.429 . S
C1886 H1910 0.950 . S
C1887 C1904 1.574 . S
C1887 C1906 1.368 . S
C1887 H1911 0.949 . S
H1888 C1892 0.949 . S
C1889 C1890 1.349 . S
C1889 C1891 1.327 . S
C1889 H1912 0.950 . S
C1890 C1889 1.349 . S
C1890 C1902 1.349 . S
C1891 C1889 1.327 . S
C1891 C1907 1.429 . S
C1891 H1913 0.950 . S
C1892 H1888 0.949 . S
C1892 C1900 1.574 . S
C1892 C1908 1.368 . S
H1893 C1901 0.950 . S
H1894 C1899 0.950 . S
H1895 C1900 0.949 . S
H1896 C1902 0.950 . S
H1897 C1903 0.950 . S
H1898 C1904 0.949 . S
C1899 H1894 0.950 . S
C1899 C1901 1.327 . S
C1899 C1905 1.429 . S
C1900 C1892 1.574 . S
C1900 H1895 0.949 . S
C1900 C1906 1.368 . S
C1901 C1885 1.349 . S
C1901 H1893 0.950 . S
C1901 C1899 1.327 . S
C1902 C1890 1.349 . S
C1902 H1896 0.950 . S
C1902 C1903 1.327 . S
C1903 H1897 0.950 . S
C1903 C1902 1.327 . S
C1903 C1907 1.429 . S
C1904 C1887 1.574 . S
C1904 H1898 0.949 . S
C1904 C1908 1.368 . S
C1905 C1886 1.429 . S
C1905 C1899 1.429 . S
C1905 C1906 1.523 . S
C1906 C1887 1.368 . S
C1906 C1900 1.368 . S
C1906 C1905 1.523 . S
C1907 C1891 1.429 . S
C1907 C1903 1.429 . S
C1907 C1908 1.523 . S
C1908 C1892 1.368 . S
C1908 C1904 1.368 . S
C1908 C1907 1.523 . S
H1909 C1884 0.950 . S
H1910 C1886 0.950 . S
H1911 C1887 0.949 . S
H1912 C1889 0.950 . S
H1913 C1891 0.950 . S
C1914 C1915 1.318 1_455 S
C1914 C1916 1.316 1_455 S
C1914 H1939 0.997 . S
C1915 C1914 1.318 1_655 S
C1915 C1931 1.349 . S
C1916 C1914 1.316 1_655 S
C1916 C1935 1.429 . S
C1916 H1940 0.950 1_655 S
C1917 C1934 1.574 . S
C1917 C1936 1.368 . S
C1917 H1941 0.949 . S
H1918 C1922 0.949 . S
C1919 C1920 1.349 . S
C1919 C1921 1.327 . S
C1919 H1942 0.950 . S
C1920 C1919 1.349 . S
C1920 C1932 1.349 . S
C1921 C1919 1.327 . S
C1921 C1937 1.429 . S
C1921 H1943 0.950 . S
C1922 H1918 0.949 . S
C1922 C1930 1.574 . S
C1922 C1938 1.368 . S
H1923 C1931 0.950 . S
H1924 C1929 0.950 . S
H1925 C1930 0.947 1_455 S
H1926 C1932 0.950 . S
H1927 C1933 0.950 . S
H1928 C1934 0.949 . S
C1929 H1924 0.950 . S
C1929 C1931 1.327 . S
C1929 C1935 1.429 . S
C1930 C1922 1.574 . S
C1930 H1925 0.947 1_655 S
C1930 C1936 1.368 . S
C1931 C1915 1.349 . S
C1931 H1923 0.950 . S
C1931 C1929 1.327 . S
C1932 C1920 1.349 . S
C1932 H1926 0.950 . S
C1932 C1933 1.327 . S
C1933 H1927 0.950 . S
C1933 C1932 1.327 . S
C1933 C1937 1.429 . S
C1934 C1917 1.574 . S
C1934 H1928 0.949 . S
C1934 C1938 1.368 . S
C1935 C1916 1.429 . S
C1935 C1929 1.429 . S
C1935 C1936 1.523 . S
C1936 C1917 1.368 . S
C1936 C1930 1.368 . S
C1936 C1935 1.523 . S
C1937 C1921 1.429 . S
C1937 C1933 1.429 . S
C1937 C1938 1.523 . S
C1938 C1922 1.368 . S
C1938 C1934 1.368 . S
C1938 C1937 1.523 . S
H1939 C1914 0.997 . S
H1940 C1916 0.950 1_455 S
H1941 C1917 0.949 . S
H1942 C1919 0.950 . S
H1943 C1921 0.950 . S
C1944 C1945 1.349 . S
C1944 C1946 1.327 . S
C1944 H1969 0.950 . S
C1945 C1944 1.349 . S
C1945 C1961 1.349 . S
C1946 C1944 1.327 . S
C1946 C1965 1.429 . S
C1946 H1970 0.950 . S
C1947 C1964 1.574 . S
C1947 C1966 1.368 . S
C1947 H1971 0.949 . S
H1948 C1952 0.949 . S
C1949 C1950 1.349 . S
C1949 C1951 1.327 . S
C1949 H1972 0.950 . S
C1950 C1949 1.349 . S
C1950 C1962 1.349 . S
C1951 C1949 1.327 . S
C1951 C1967 1.429 . S
C1951 H1973 0.950 . S
C1952 H1948 0.949 . S
C1952 C1960 1.574 . S
C1952 C1968 1.368 . S
H1953 C1961 0.950 . S
H1954 C1959 0.950 . S
H1955 C1960 0.949 . S
H1956 C1962 0.950 . S
H1957 C1963 0.950 . S
H1958 C1964 0.949 . S
C1959 H1954 0.950 . S
C1959 C1961 1.327 . S
C1959 C1965 1.429 . S
C1960 C1952 1.574 . S
C1960 H1955 0.949 . S
C1960 C1966 1.368 . S
C1961 C1945 1.349 . S
C1961 H1953 0.950 . S
C1961 C1959 1.327 . S
C1962 C1950 1.349 . S
C1962 H1956 0.950 . S
C1962 C1963 1.327 . S
C1963 H1957 0.950 . S
C1963 C1962 1.327 . S
C1963 C1967 1.429 . S
C1964 C1947 1.574 . S
C1964 H1958 0.949 . S
C1964 C1968 1.368 . S
C1965 C1946 1.429 . S
C1965 C1959 1.429 . S
C1965 C1966 1.523 . S
C1966 C1947 1.368 . S
C1966 C1960 1.368 . S
C1966 C1965 1.523 . S
C1967 C1951 1.429 . S
C1967 C1963 1.429 . S
C1967 C1968 1.523 . S
C1968 C1952 1.368 . S
C1968 C1964 1.368 . S
C1968 C1967 1.523 . S
H1969 C1944 0.950 . S
H1970 C1946 0.950 . S
H1971 C1947 0.949 . S
H1972 C1949 0.950 . S
H1973 C1951 0.950 . S
C1974 C1975 1.349 . S
C1974 C1976 1.327 . S
C1974 H1999 0.950 . S
C1975 C1974 1.349 . S
C1975 C1991 1.349 . S
C1976 C1974 1.327 . S
C1976 C1995 1.429 . S
C1976 H2000 0.950 . S
C1977 C1994 1.574 . S
C1977 C1996 1.368 . S
C1977 H2001 0.949 . S
H1978 C1982 0.949 . S
C1979 C1980 1.349 . S
C1979 C1981 1.327 . S
C1979 H2002 0.950 . S
C1980 C1979 1.349 . S
C1980 C1992 1.349 . S
C1981 C1979 1.327 . S
C1981 C1997 1.429 . S
C1981 H2003 0.950 . S
C1982 H1978 0.949 . S
C1982 C1990 1.574 . S
C1982 C1998 1.368 . S
H1983 C1991 0.950 . S
H1984 C1989 0.950 . S
H1985 C1990 0.949 . S
H1986 C1992 0.950 . S
H1987 C1993 0.950 . S
H1988 C1994 0.949 . S
C1989 H1984 0.950 . S
C1989 C1991 1.327 . S
C1989 C1995 1.429 . S
C1990 C1982 1.574 . S
C1990 H1985 0.949 . S
C1990 C1996 1.368 . S
C1991 C1975 1.349 . S
C1991 H1983 0.950 . S
C1991 C1989 1.327 . S
C1992 C1980 1.349 . S
C1992 H1986 0.950 . S
C1992 C1993 1.327 . S
C1993 H1987 0.950 . S
C1993 C1992 1.327 . S
C1993 C1997 1.429 . S
C1994 C1977 1.574 . S
C1994 H1988 0.949 . S
C1994 C1998 1.368 . S
C1995 C1976 1.429 . S
C1995 C1989 1.429 . S
C1995 C1996 1.523 . S
C1996 C1977 1.368 . S
C1996 C1990 1.368 . S
C1996 C1995 1.523 . S
C1997 C1981 1.429 . S
C1997 C1993 1.429 . S
C1997 C1998 1.523 . S
C1998 C1982 1.368 . S
C1998 C1994 1.368 . S
C1998 C1997 1.523 . S
H1999 C1974 0.950 . S
H2000 C1976 0.950 . S
H2001 C1977 0.949 . S
H2002 C1979 0.950 . S
H2003 C1981 0.950 . S
C2004 C2005 1.349 1_545 S
C2004 C2006 1.327 . S
C2004 H2029 0.950 . S
C2005 C2004 1.349 1_565 S
C2005 C2021 1.349 . S
C2006 C2004 1.327 . S
C2006 C2025 1.429 1_545 S
C2006 H2030 0.950 . S
C2007 C2024 1.574 . S
C2007 C2026 1.368 . S
C2007 H2031 0.949 . S
H2008 C2012 0.949 . S
C2009 C2010 1.349 1_565 S
C2009 C2011 1.327 . S
C2009 H2032 0.950 . S
C2010 C2009 1.349 1_545 S
C2010 C2022 1.349 . S
C2011 C2009 1.327 . S
C2011 C2027 1.429 1_565 S
C2011 H2033 0.950 . S
C2012 H2008 0.949 . S
C2012 C2020 1.574 . S
C2012 C2028 1.368 . S
H2013 C2021 0.950 . S
H2014 C2019 0.950 . S
H2015 C2020 0.949 . S
H2016 C2022 0.950 . S
H2017 C2023 0.950 . S
H2018 C2024 0.949 . S
C2019 H2014 0.950 . S
C2019 C2021 1.327 . S
C2019 C2025 1.429 . S
C2020 C2012 1.574 . S
C2020 H2015 0.949 . S
C2020 C2026 1.368 1_545 S
C2021 C2005 1.349 . S
C2021 H2013 0.950 . S
C2021 C2019 1.327 . S
C2022 C2010 1.349 . S
C2022 H2016 0.950 . S
C2022 C2023 1.327 . S
C2023 H2017 0.950 . S
C2023 C2022 1.327 . S
C2023 C2027 1.429 . S
C2024 C2007 1.574 . S
C2024 H2018 0.949 . S
C2024 C2028 1.368 1_565 S
C2025 C2006 1.429 1_565 S
C2025 C2019 1.429 . S
C2025 C2026 1.523 . S
C2026 C2007 1.368 . S
C2026 C2020 1.368 1_565 S
C2026 C2025 1.523 . S
C2027 C2011 1.429 1_545 S
C2027 C2023 1.429 . S
C2027 C2028 1.523 . S
C2028 C2012 1.368 . S
C2028 C2024 1.368 1_545 S
C2028 C2027 1.523 . S
H2029 C2004 0.950 . S
H2030 C2006 0.950 . S
H2031 C2007 0.949 . S
H2032 C2009 0.950 . S
H2033 C2011 0.950 . S
C2034 C2035 1.335 1_565 S
C2034 C2036 1.328 . S
C2034 H2059 0.964 . S
C2035 C2034 1.335 1_545 S
C2035 C2051 1.349 . S
C2036 C2034 1.328 . S
C2036 C2055 1.429 1_565 S
C2036 H2060 0.950 . S
C2037 C2054 1.574 . S
C2037 C2056 1.368 . S
C2037 H2061 0.949 . S
H2038 C2042 0.949 . S
C2039 C2040 1.349 . S
C2039 C2041 1.327 . S
C2039 H2062 0.950 . S
C2040 C2039 1.349 . S
C2040 C2052 1.349 1_545 S
C2041 C2039 1.327 . S
C2041 C2057 1.429 . S
C2041 H2063 0.950 . S
C2042 H2038 0.949 . S
C2042 C2050 1.574 . S
C2042 C2058 1.368 1_565 S
H2043 C2051 0.950 . S
H2044 C2049 0.950 . S
H2045 C2050 0.949 . S
H2046 C2052 0.950 . S
H2047 C2053 0.950 . S
H2048 C2054 0.949 . S
C2049 H2044 0.950 . S
C2049 C2051 1.327 . S
C2049 C2055 1.429 . S
C2050 C2042 1.574 . S
C2050 H2045 0.949 . S
C2050 C2056 1.368 1_565 S
C2051 C2035 1.349 . S
C2051 H2043 0.950 . S
C2051 C2049 1.327 . S
C2052 C2040 1.349 1_565 S
C2052 H2046 0.950 . S
C2052 C2053 1.327 . S
C2053 H2047 0.950 . S
C2053 C2052 1.327 . S
C2053 C2057 1.429 1_565 S
C2054 C2037 1.574 . S
C2054 H2048 0.949 . S
C2054 C2058 1.368 . S
C2055 C2036 1.429 1_545 S
C2055 C2049 1.429 . S
C2055 C2056 1.523 . S
C2056 C2037 1.368 . S
C2056 C2050 1.368 1_545 S
C2056 C2055 1.523 . S
C2057 C2041 1.429 . S
C2057 C2053 1.429 1_545 S
C2057 C2058 1.523 . S
C2058 C2042 1.368 1_545 S
C2058 C2054 1.368 . S
C2058 C2057 1.523 . S
H2059 C2034 0.964 . S
H2060 C2036 0.950 . S
H2061 C2037 0.949 . S
H2062 C2039 0.950 . S
H2063 C2041 0.950 . S
C2064 C2065 1.349 . S
C2064 C2066 1.327 . S
C2064 H2089 0.950 . S
C2065 C2064 1.349 . S
C2065 C2081 1.349 . S
C2066 C2064 1.327 . S
C2066 C2085 1.429 . S
C2066 H2090 0.950 . S
C2067 C2084 1.574 . S
C2067 C2086 1.368 . S
C2067 H2091 0.949 . S
H2068 C2072 0.949 . S
C2069 C2070 1.349 . S
C2069 C2071 1.327 . S
C2069 H2092 0.950 . S
C2070 C2069 1.349 . S
C2070 C2082 1.349 . S
C2071 C2069 1.327 . S
C2071 C2087 1.429 . S
C2071 H2093 0.950 . S
C2072 H2068 0.949 . S
C2072 C2080 1.574 . S
C2072 C2088 1.368 . S
H2073 C2081 0.950 . S
H2074 C2079 0.950 . S
H2075 C2080 0.949 . S
H2076 C2082 0.950 . S
H2077 C2083 0.950 . S
H2078 C2084 0.949 . S
C2079 H2074 0.950 . S
C2079 C2081 1.327 . S
C2079 C2085 1.429 . S
C2080 C2072 1.574 . S
C2080 H2075 0.949 . S
C2080 C2086 1.368 . S
C2081 C2065 1.349 . S
C2081 H2073 0.950 . S
C2081 C2079 1.327 . S
C2082 C2070 1.349 . S
C2082 H2076 0.950 . S
C2082 C2083 1.327 . S
C2083 H2077 0.950 . S
C2083 C2082 1.327 . S
C2083 C2087 1.429 . S
C2084 C2067 1.574 . S
C2084 H2078 0.949 . S
C2084 C2088 1.368 . S
C2085 C2066 1.429 . S
C2085 C2079 1.429 . S
C2085 C2086 1.523 . S
C2086 C2067 1.368 . S
C2086 C2080 1.368 . S
C2086 C2085 1.523 . S
C2087 C2071 1.429 . S
C2087 C2083 1.429 . S
C2087 C2088 1.523 . S
C2088 C2072 1.368 . S
C2088 C2084 1.368 . S
C2088 C2087 1.523 . S
H2089 C2064 0.950 . S
H2090 C2066 0.950 . S
H2091 C2067 0.949 . S
H2092 C2069 0.950 . S
H2093 C2071 0.950 . S
C2094 C2095 1.349 . S
C2094 C2096 1.327 . S
C2094 H2119 0.950 . S
C2095 C2094 1.349 . S
C2095 C2111 1.367 . S
C2096 C2094 1.327 . S
C2096 C2115 1.429 . S
C2096 H2120 0.950 . S
C2097 C2114 1.574 . S
C2097 C2116 1.368 1_556 S
C2097 H2121 0.949 . S
H2098 C2102 0.949 . S
C2099 C2100 1.349 1_556 S
C2099 C2101 1.327 . S
C2099 H2122 0.950 . S
C2100 C2099 1.349 1_554 S
C2100 C2112 1.349 . S
C2101 C2099 1.327 . S
C2101 C2117 1.429 1_556 S
C2101 H2123 0.950 . S
C2102 H2098 0.949 . S
C2102 C2110 1.574 . S
C2102 C2118 1.368 . S
H2103 C2111 0.932 1_556 S
H2104 C2109 0.994 . S
H2105 C2110 0.949 . S
H2106 C2112 0.950 . S
H2107 C2113 0.950 . S
H2108 C2114 0.949 . S
C2109 H2104 0.994 . S
C2109 C2111 1.329 1_556 S
C2109 C2115 1.388 1_556 S
C2110 C2102 1.574 . S
C2110 H2105 0.949 . S
C2110 C2116 1.368 . S
C2111 C2095 1.367 . S
C2111 H2103 0.932 1_554 S
C2111 C2109 1.329 1_554 S
C2112 C2100 1.349 . S
C2112 H2106 0.950 . S
C2112 C2113 1.327 . S
C2113 H2107 0.950 . S
C2113 C2112 1.327 . S
C2113 C2117 1.429 . S
C2114 C2097 1.574 . S
C2114 H2108 0.949 . S
C2114 C2118 1.368 1_556 S
C2115 C2096 1.429 . S
C2115 C2109 1.388 1_554 S
C2115 C2116 1.523 . S
C2116 C2097 1.368 1_554 S
C2116 C2110 1.368 . S
C2116 C2115 1.523 . S
C2117 C2101 1.429 1_554 S
C2117 C2113 1.429 . S
C2117 C2118 1.523 . S
C2118 C2102 1.368 . S
C2118 C2114 1.368 1_554 S
C2118 C2117 1.523 . S
H2119 C2094 0.950 . S
H2120 C2096 0.950 . S
H2121 C2097 0.949 . S
H2122 C2099 0.950 . S
H2123 C2101 0.950 . S
C2124 C2125 1.349 . S
C2124 C2126 1.327 . S
C2124 H2149 0.950 . S
C2125 C2124 1.349 . S
C2125 C2141 1.349 . S
C2126 C2124 1.327 . S
C2126 C2145 1.429 . S
C2126 H2150 0.950 . S
C2127 C2144 1.574 . S
C2127 C2146 1.368 . S
C2127 H2151 0.949 . S
H2128 C2132 0.949 . S
C2129 C2130 1.349 . S
C2129 C2131 1.327 . S
C2129 H2152 0.950 . S
C2130 C2129 1.349 . S
C2130 C2142 1.349 . S
C2131 C2129 1.327 . S
C2131 C2147 1.429 . S
C2131 H2153 0.950 . S
C2132 H2128 0.949 . S
C2132 C2140 1.574 . S
C2132 C2148 1.368 . S
H2133 C2141 0.950 . S
H2134 C2139 0.950 . S
H2135 C2140 0.949 . S
H2136 C2142 0.950 . S
H2137 C2143 0.950 . S
H2138 C2144 0.949 . S
C2139 H2134 0.950 . S
C2139 C2141 1.327 . S
C2139 C2145 1.429 . S
C2140 C2132 1.574 . S
C2140 H2135 0.949 . S
C2140 C2146 1.368 . S
C2141 C2125 1.349 . S
C2141 H2133 0.950 . S
C2141 C2139 1.327 . S
C2142 C2130 1.349 . S
C2142 H2136 0.950 . S
C2142 C2143 1.327 . S
C2143 H2137 0.950 . S
C2143 C2142 1.327 . S
C2143 C2147 1.429 . S
C2144 C2127 1.574 . S
C2144 H2138 0.949 . S
C2144 C2148 1.368 . S
C2145 C2126 1.429 . S
C2145 C2139 1.429 . S
C2145 C2146 1.523 . S
C2146 C2127 1.368 . S
C2146 C2140 1.368 . S
C2146 C2145 1.523 . S
C2147 C2131 1.429 . S
C2147 C2143 1.429 . S
C2147 C2148 1.523 . S
C2148 C2132 1.368 . S
C2148 C2144 1.368 . S
C2148 C2147 1.523 . S
H2149 C2124 0.950 . S
H2150 C2126 0.950 . S
H2151 C2127 0.949 . S
H2152 C2129 0.950 . S
H2153 C2131 0.950 . S
C2154 C2155 1.349 . S
C2154 C2156 1.327 . S
C2154 H2179 0.950 . S
C2155 C2154 1.349 . S
C2155 C2171 1.349 1_556 S
C2156 C2154 1.327 . S
C2156 C2175 1.429 . S
C2156 H2180 0.950 . S
C2157 C2174 1.574 . S
C2157 C2176 1.368 1_554 S
C2157 H2181 0.949 . S
H2158 C2162 0.949 . S
C2159 C2160 1.349 . S
C2159 C2161 1.327 . S
C2159 H2182 0.950 . S
C2160 C2159 1.349 . S
C2160 C2172 1.349 1_554 S
C2161 C2159 1.327 . S
C2161 C2177 1.429 . S
C2161 H2183 0.950 . S
C2162 H2158 0.949 . S
C2162 C2170 1.574 . S
C2162 C2178 1.368 1_556 S
H2163 C2171 0.950 . S
H2164 C2169 0.950 . S
H2165 C2170 0.949 . S
H2166 C2172 0.950 . S
H2167 C2173 0.950 . S
H2168 C2174 0.949 . S
C2169 H2164 0.950 . S
C2169 C2171 1.327 . S
C2169 C2175 1.429 1_554 S
C2170 C2162 1.574 . S
C2170 H2165 0.949 . S
C2170 C2176 1.368 . S
C2171 C2155 1.349 1_554 S
C2171 H2163 0.950 . S
C2171 C2169 1.327 . S
C2172 C2160 1.349 1_556 S
C2172 H2166 0.950 . S
C2172 C2173 1.327 . S
C2173 H2167 0.950 . S
C2173 C2172 1.327 . S
C2173 C2177 1.429 1_556 S
C2174 C2157 1.574 . S
C2174 H2168 0.949 . S
C2174 C2178 1.368 . S
C2175 C2156 1.429 . S
C2175 C2169 1.429 1_556 S
C2175 C2176 1.523 . S
C2176 C2157 1.368 1_556 S
C2176 C2170 1.368 . S
C2176 C2175 1.523 . S
C2177 C2161 1.429 . S
C2177 C2173 1.429 1_554 S
C2177 C2178 1.523 . S
C2178 C2162 1.368 1_554 S
C2178 C2174 1.368 . S
C2178 C2177 1.523 . S
H2179 C2154 0.950 . S
H2180 C2156 0.950 . S
H2181 C2157 0.949 . S
H2182 C2159 0.950 . S
H2183 C2161 0.950 . S
C2184 C2185 1.349 . S
C2184 C2186 1.327 . S
C2184 H2209 0.950 . S
C2185 C2184 1.349 . S
C2185 C2201 1.349 . S
C2186 C2184 1.327 . S
C2186 C2205 1.429 . S
C2186 H2210 0.950 . S
C2187 C2204 1.574 . S
C2187 C2206 1.368 . S
C2187 H2211 0.949 . S
H2188 C2192 0.949 . S
C2189 C2190 1.349 . S
C2189 C2191 1.327 . S
C2189 H2212 0.950 . S
C2190 C2189 1.349 . S
C2190 C2202 1.349 . S
C2191 C2189 1.327 . S
C2191 C2207 1.429 . S
C2191 H2213 0.950 . S
C2192 H2188 0.949 . S
C2192 C2200 1.574 . S
C2192 C2208 1.368 . S
H2193 C2201 0.950 . S
H2194 C2199 0.950 . S
H2195 C2200 0.949 . S
H2196 C2202 0.950 . S
H2197 C2203 0.950 . S
H2198 C2204 0.949 . S
C2199 H2194 0.950 . S
C2199 C2201 1.327 . S
C2199 C2205 1.429 . S
C2200 C2192 1.574 . S
C2200 H2195 0.949 . S
C2200 C2206 1.368 . S
C2201 C2185 1.349 . S
C2201 H2193 0.950 . S
C2201 C2199 1.327 . S
C2202 C2190 1.349 . S
C2202 H2196 0.950 . S
C2202 C2203 1.327 . S
C2203 H2197 0.950 . S
C2203 C2202 1.327 . S
C2203 C2207 1.429 . S
C2204 C2187 1.574 . S
C2204 H2198 0.949 . S
C2204 C2208 1.368 . S
C2205 C2186 1.429 . S
C2205 C2199 1.429 . S
C2205 C2206 1.523 . S
C2206 C2187 1.368 . S
C2206 C2200 1.368 . S
C2206 C2205 1.523 . S
C2207 C2191 1.429 . S
C2207 C2203 1.429 . S
C2207 C2208 1.523 . S
C2208 C2192 1.368 . S
C2208 C2204 1.368 . S
C2208 C2207 1.523 . S
H2209 C2184 0.950 . S
H2210 C2186 0.950 . S
H2211 C2187 0.949 . S
H2212 C2189 0.950 . S
H2213 C2191 0.950 . S
C2214 C2215 1.349 . S
C2214 C2216 1.327 . S
C2214 H2239 0.936 1_455 S
C2215 C2214 1.349 . S
C2215 C2231 1.349 . S
C2216 C2214 1.327 . S
C2216 C2235 1.429 . S
C2216 H2240 0.950 1_455 S
C2217 C2234 1.574 . S
C2217 C2236 1.368 . S
C2217 H2241 0.949 . S
H2218 C2222 0.987 . S
C2219 C2220 1.349 . S
C2219 C2221 1.327 . S
C2219 H2242 0.950 . S
C2220 C2219 1.349 . S
C2220 C2232 1.349 1_455 S
C2221 C2219 1.327 . S
C2221 C2237 1.429 . S
C2221 H2243 0.950 . S
C2222 H2218 0.987 . S
C2222 C2230 1.577 1_655 S
C2222 C2238 1.330 1_655 S
H2223 C2231 0.950 . S
H2224 C2229 0.950 . S
H2225 C2230 0.946 1_655 S
H2226 C2232 0.950 . S
H2227 C2233 0.950 . S
H2228 C2234 0.949 . S
C2229 H2224 0.950 . S
C2229 C2231 1.327 . S
C2229 C2235 1.429 . S
C2230 C2222 1.577 1_455 S
C2230 H2225 0.946 1_455 S
C2230 C2236 1.372 . S
C2231 C2215 1.349 . S
C2231 H2223 0.950 . S
C2231 C2229 1.327 . S
C2232 C2220 1.349 1_655 S
C2232 H2226 0.950 . S
C2232 C2233 1.327 . S
C2233 H2227 0.950 . S
C2233 C2232 1.327 . S
C2233 C2237 1.429 1_655 S
C2234 C2217 1.574 . S
C2234 H2228 0.949 . S
C2234 C2238 1.368 . S
C2235 C2216 1.429 . S
C2235 C2229 1.429 . S
C2235 C2236 1.523 . S
C2236 C2217 1.368 . S
C2236 C2230 1.372 . S
C2236 C2235 1.523 . S
C2237 C2221 1.429 . S
C2237 C2233 1.429 1_455 S
C2237 C2238 1.523 . S
C2238 C2222 1.330 1_455 S
C2238 C2234 1.368 . S
C2238 C2237 1.523 . S
H2239 C2214 0.936 1_655 S
H2240 C2216 0.950 1_655 S
H2241 C2217 0.949 . S
H2242 C2219 0.950 . S
H2243 C2221 0.950 . S
C2244 C2245 1.349 . S
C2244 C2246 1.327 . S
C2244 H2269 0.950 . S
C2245 C2244 1.349 . S
C2245 C2261 1.349 . S
C2246 C2244 1.327 . S
C2246 C2265 1.429 . S
C2246 H2270 0.950 . S
C2247 C2264 1.574 . S
C2247 C2266 1.368 . S
C2247 H2271 0.949 . S
H2248 C2252 0.949 . S
C2249 C2250 1.349 . S
C2249 C2251 1.327 . S
C2249 H2272 0.950 . S
C2250 C2249 1.349 . S
C2250 C2262 1.349 . S
C2251 C2249 1.327 . S
C2251 C2267 1.429 . S
C2251 H2273 0.950 . S
C2252 H2248 0.949 . S
C2252 C2260 1.574 . S
C2252 C2268 1.368 . S
H2253 C2261 0.950 . S
H2254 C2259 0.950 . S
H2255 C2260 0.949 . S
H2256 C2262 0.950 . S
H2257 C2263 0.950 . S
H2258 C2264 0.949 . S
C2259 H2254 0.950 . S
C2259 C2261 1.327 . S
C2259 C2265 1.429 . S
C2260 C2252 1.574 . S
C2260 H2255 0.949 . S
C2260 C2266 1.368 . S
C2261 C2245 1.349 . S
C2261 H2253 0.950 . S
C2261 C2259 1.327 . S
C2262 C2250 1.349 . S
C2262 H2256 0.950 . S
C2262 C2263 1.327 . S
C2263 H2257 0.950 . S
C2263 C2262 1.327 . S
C2263 C2267 1.429 . S
C2264 C2247 1.574 . S
C2264 H2258 0.949 . S
C2264 C2268 1.368 . S
C2265 C2246 1.429 . S
C2265 C2259 1.429 . S
C2265 C2266 1.523 . S
C2266 C2247 1.368 . S
C2266 C2260 1.368 . S
C2266 C2265 1.523 . S
C2267 C2251 1.429 . S
C2267 C2263 1.429 . S
C2267 C2268 1.523 . S
C2268 C2252 1.368 . S
C2268 C2264 1.368 . S
C2268 C2267 1.523 . S
H2269 C2244 0.950 . S
H2270 C2246 0.950 . S
H2271 C2247 0.949 . S
H2272 C2249 0.950 . S
H2273 C2251 0.950 . S
C2274 C2275 1.363 . S
C2274 C2276 1.323 1_655 S
C2274 H2299 0.940 1_655 S
C2275 C2274 1.363 . S
C2275 C2291 1.349 . S
C2276 C2274 1.323 1_455 S
C2276 C2295 1.429 1_455 S
C2276 H2300 0.950 . S
C2277 C2294 1.574 . S
C2277 C2296 1.368 . S
C2277 H2301 0.949 . S
H2278 C2282 0.949 . S
C2279 C2280 1.306 1_655 S
C2279 C2281 1.343 . S
C2279 H2302 0.983 . S
C2280 C2279 1.306 1_455 S
C2280 C2292 1.349 . S
C2281 C2279 1.343 . S
C2281 C2297 1.429 1_655 S
C2281 H2303 0.950 . S
C2282 H2278 0.949 . S
C2282 C2290 1.574 . S
C2282 C2298 1.368 . S
H2283 C2291 0.950 . S
H2284 C2289 0.950 . S
H2285 C2290 0.949 . S
H2286 C2292 0.950 . S
H2287 C2293 0.950 . S
H2288 C2294 0.949 . S
C2289 H2284 0.950 . S
C2289 C2291 1.327 . S
C2289 C2295 1.429 . S
C2290 C2282 1.574 . S
C2290 H2285 0.949 . S
C2290 C2296 1.368 1_455 S
C2291 C2275 1.349 . S
C2291 H2283 0.950 . S
C2291 C2289 1.327 . S
C2292 C2280 1.349 . S
C2292 H2286 0.950 . S
C2292 C2293 1.327 . S
C2293 H2287 0.950 . S
C2293 C2292 1.327 . S
C2293 C2297 1.429 . S
C2294 C2277 1.574 . S
C2294 H2288 0.949 . S
C2294 C2298 1.368 1_655 S
C2295 C2276 1.429 1_655 S
C2295 C2289 1.429 . S
C2295 C2296 1.523 . S
C2296 C2277 1.368 . S
C2296 C2290 1.368 1_655 S
C2296 C2295 1.523 . S
C2297 C2281 1.429 1_455 S
C2297 C2293 1.429 . S
C2297 C2298 1.523 . S
C2298 C2282 1.368 . S
C2298 C2294 1.368 1_455 S
C2298 C2297 1.523 . S
H2299 C2274 0.940 1_455 S
H2300 C2276 0.950 . S
H2301 C2277 0.949 . S
H2302 C2279 0.983 . S
H2303 C2281 0.950 . S
C2304 C2305 1.349 . S
C2304 C2306 1.327 . S
C2304 H2329 0.950 . S
C2305 C2304 1.349 . S
C2305 C2321 1.349 . S
C2306 C2304 1.327 . S
C2306 C2325 1.429 . S
C2306 H2330 0.950 . S
C2307 C2324 1.574 . S
C2307 C2326 1.368 . S
C2307 H2331 0.949 . S
H2308 C2312 0.949 . S
C2309 C2310 1.349 . S
C2309 C2311 1.327 . S
C2309 H2332 0.950 . S
C2310 C2309 1.349 . S
C2310 C2322 1.349 . S
C2311 C2309 1.327 . S
C2311 C2327 1.429 . S
C2311 H2333 0.950 . S
C2312 H2308 0.949 . S
C2312 C2320 1.574 . S
C2312 C2328 1.368 . S
H2313 C2321 0.950 . S
H2314 C2319 0.950 . S
H2315 C2320 0.949 . S
H2316 C2322 0.950 . S
H2317 C2323 0.950 . S
H2318 C2324 0.949 . S
C2319 H2314 0.950 . S
C2319 C2321 1.327 . S
C2319 C2325 1.429 . S
C2320 C2312 1.574 . S
C2320 H2315 0.949 . S
C2320 C2326 1.368 . S
C2321 C2305 1.349 . S
C2321 H2313 0.950 . S
C2321 C2319 1.327 . S
C2322 C2310 1.349 . S
C2322 H2316 0.950 . S
C2322 C2323 1.327 . S
C2323 H2317 0.950 . S
C2323 C2322 1.327 . S
C2323 C2327 1.429 . S
C2324 C2307 1.574 . S
C2324 H2318 0.949 . S
C2324 C2328 1.368 . S
C2325 C2306 1.429 . S
C2325 C2319 1.429 . S
C2325 C2326 1.523 . S
C2326 C2307 1.368 . S
C2326 C2320 1.368 . S
C2326 C2325 1.523 . S
C2327 C2311 1.429 . S
C2327 C2323 1.429 . S
C2327 C2328 1.523 . S
C2328 C2312 1.368 . S
C2328 C2324 1.368 . S
C2328 C2327 1.523 . S
H2329 C2304 0.950 . S
H2330 C2306 0.950 . S
H2331 C2307 0.949 . S
H2332 C2309 0.950 . S
H2333 C2311 0.950 . S
C2334 C2335 1.349 . S
C2334 C2336 1.327 . S
C2334 H2359 0.950 . S
C2335 C2334 1.349 . S
C2335 C2351 1.349 . S
C2336 C2334 1.327 . S
C2336 C2355 1.429 . S
C2336 H2360 0.950 . S
C2337 C2354 1.574 . S
C2337 C2356 1.368 . S
C2337 H2361 0.949 . S
H2338 C2342 0.949 . S
C2339 C2340 1.349 . S
C2339 C2341 1.327 . S
C2339 H2362 0.950 . S
C2340 C2339 1.349 . S
C2340 C2352 1.349 . S
C2341 C2339 1.327 . S
C2341 C2357 1.429 . S
C2341 H2363 0.950 . S
C2342 H2338 0.949 . S
C2342 C2350 1.574 . S
C2342 C2358 1.368 . S
H2343 C2351 0.950 . S
H2344 C2349 0.950 . S
H2345 C2350 0.949 . S
H2346 C2352 0.950 . S
H2347 C2353 0.950 . S
H2348 C2354 0.949 . S
C2349 H2344 0.950 . S
C2349 C2351 1.327 . S
C2349 C2355 1.429 . S
C2350 C2342 1.574 . S
C2350 H2345 0.949 . S
C2350 C2356 1.368 . S
C2351 C2335 1.349 . S
C2351 H2343 0.950 . S
C2351 C2349 1.327 . S
C2352 C2340 1.349 . S
C2352 H2346 0.950 . S
C2352 C2353 1.327 . S
C2353 H2347 0.950 . S
C2353 C2352 1.327 . S
C2353 C2357 1.429 . S
C2354 C2337 1.574 . S
C2354 H2348 0.949 . S
C2354 C2358 1.368 . S
C2355 C2336 1.429 . S
C2355 C2349 1.429 . S
C2355 C2356 1.523 . S
C2356 C2337 1.368 . S
C2356 C2350 1.368 . S
C2356 C2355 1.523 . S
C2357 C2341 1.429 . S
C2357 C2353 1.429 . S
C2357 C2358 1.523 . S
C2358 C2342 1.368 . S
C2358 C2354 1.368 . S
C2358 C2357 1.523 . S
H2359 C2334 0.950 . S
H2360 C2336 0.950 . S
H2361 C2337 0.949 . S
H2362 C2339 0.950 . S
H2363 C2341 0.950 . S
C2364 C2365 1.349 . S
C2364 C2366 1.327 . S
C2364 H2389 0.950 . S
C2365 C2364 1.349 . S
C2365 C2381 1.349 1_545 S
C2366 C2364 1.327 . S
C2366 C2385 1.429 . S
C2366 H2390 0.950 . S
C2367 C2384 1.574 . S
C2367 C2386 1.368 1_565 S
C2367 H2391 0.949 . S
H2368 C2372 0.949 . S
C2369 C2370 1.349 . S
C2369 C2371 1.327 . S
C2369 H2392 0.950 . S
C2370 C2369 1.349 . S
C2370 C2382 1.349 1_565 S
C2371 C2369 1.327 . S
C2371 C2387 1.429 . S
C2371 H2393 0.950 . S
C2372 H2368 0.949 . S
C2372 C2380 1.574 . S
C2372 C2388 1.368 1_545 S
H2373 C2381 0.950 . S
H2374 C2379 0.950 . S
H2375 C2380 0.949 . S
H2376 C2382 0.950 . S
H2377 C2383 0.950 . S
H2378 C2384 0.949 . S
C2379 H2374 0.950 . S
C2379 C2381 1.327 . S
C2379 C2385 1.429 1_565 S
C2380 C2372 1.574 . S
C2380 H2375 0.949 . S
C2380 C2386 1.368 . S
C2381 C2365 1.349 1_565 S
C2381 H2373 0.950 . S
C2381 C2379 1.327 . S
C2382 C2370 1.349 1_545 S
C2382 H2376 0.950 . S
C2382 C2383 1.327 . S
C2383 H2377 0.950 . S
C2383 C2382 1.327 . S
C2383 C2387 1.429 1_545 S
C2384 C2367 1.574 . S
C2384 H2378 0.949 . S
C2384 C2388 1.368 . S
C2385 C2366 1.429 . S
C2385 C2379 1.429 1_545 S
C2385 C2386 1.523 . S
C2386 C2367 1.368 1_545 S
C2386 C2380 1.368 . S
C2386 C2385 1.523 . S
C2387 C2371 1.429 . S
C2387 C2383 1.429 1_565 S
C2387 C2388 1.523 . S
C2388 C2372 1.368 1_565 S
C2388 C2384 1.368 . S
C2388 C2387 1.523 . S
H2389 C2364 0.950 . S
H2390 C2366 0.950 . S
H2391 C2367 0.949 . S
H2392 C2369 0.950 . S
H2393 C2371 0.950 . S
C2394 C2395 1.349 . S
C2394 C2396 1.327 . S
C2394 H2419 0.950 . S
C2395 C2394 1.349 . S
C2395 C2411 1.369 . S
C2396 C2394 1.327 . S
C2396 C2415 1.429 . S
C2396 H2420 0.950 . S
C2397 C2414 1.574 . S
C2397 C2416 1.368 1_545 S
C2397 H2421 0.949 . S
H2398 C2402 0.949 . S
C2399 C2400 1.349 1_545 S
C2399 C2401 1.327 . S
C2399 H2422 0.950 . S
C2400 C2399 1.349 1_565 S
C2400 C2412 1.349 . S
C2401 C2399 1.327 . S
C2401 C2417 1.429 1_545 S
C2401 H2423 0.950 . S
C2402 H2398 0.949 . S
C2402 C2410 1.574 . S
C2402 C2418 1.368 . S
H2403 C2411 0.930 1_545 S
H2404 C2409 0.995 . S
H2405 C2410 0.949 . S
H2406 C2412 0.950 . S
H2407 C2413 0.950 . S
H2408 C2414 0.949 . S
C2409 H2404 0.995 . S
C2409 C2411 1.329 1_545 S
C2409 C2415 1.387 1_545 S
C2410 C2402 1.574 . S
C2410 H2405 0.949 . S
C2410 C2416 1.368 . S
C2411 C2395 1.369 . S
C2411 H2403 0.930 1_565 S
C2411 C2409 1.329 1_565 S
C2412 C2400 1.349 . S
C2412 H2406 0.950 . S
C2412 C2413 1.327 . S
C2413 H2407 0.950 . S
C2413 C2412 1.327 . S
C2413 C2417 1.429 . S
C2414 C2397 1.574 . S
C2414 H2408 0.949 . S
C2414 C2418 1.368 1_545 S
C2415 C2396 1.429 . S
C2415 C2409 1.387 1_565 S
C2415 C2416 1.523 . S
C2416 C2397 1.368 1_565 S
C2416 C2410 1.368 . S
C2416 C2415 1.523 . S
C2417 C2401 1.429 1_565 S
C2417 C2413 1.429 . S
C2417 C2418 1.523 . S
C2418 C2402 1.368 . S
C2418 C2414 1.368 1_565 S
C2418 C2417 1.523 . S
H2419 C2394 0.950 . S
H2420 C2396 0.950 . S
H2421 C2397 0.949 . S
H2422 C2399 0.950 . S
H2423 C2401 0.950 . S
C2424 C2425 1.349 . S
C2424 C2426 1.327 . S
C2424 H2449 0.950 . S
C2425 C2424 1.349 . S
C2425 C2441 1.349 . S
C2426 C2424 1.327 . S
C2426 C2445 1.429 . S
C2426 H2450 0.950 . S
C2427 C2444 1.574 . S
C2427 C2446 1.368 . S
C2427 H2451 0.949 . S
H2428 C2432 0.949 . S
C2429 C2430 1.349 . S
C2429 C2431 1.327 . S
C2429 H2452 0.950 . S
C2430 C2429 1.349 . S
C2430 C2442 1.349 . S
C2431 C2429 1.327 . S
C2431 C2447 1.429 . S
C2431 H2453 0.950 . S
C2432 H2428 0.949 . S
C2432 C2440 1.574 . S
C2432 C2448 1.368 . S
H2433 C2441 0.950 . S
H2434 C2439 0.950 . S
H2435 C2440 0.949 . S
H2436 C2442 0.950 . S
H2437 C2443 0.950 . S
H2438 C2444 0.949 . S
C2439 H2434 0.950 . S
C2439 C2441 1.327 . S
C2439 C2445 1.429 . S
C2440 C2432 1.574 . S
C2440 H2435 0.949 . S
C2440 C2446 1.368 . S
C2441 C2425 1.349 . S
C2441 H2433 0.950 . S
C2441 C2439 1.327 . S
C2442 C2430 1.349 . S
C2442 H2436 0.950 . S
C2442 C2443 1.327 . S
C2443 H2437 0.950 . S
C2443 C2442 1.327 . S
C2443 C2447 1.429 . S
C2444 C2427 1.574 . S
C2444 H2438 0.949 . S
C2444 C2448 1.368 . S
C2445 C2426 1.429 . S
C2445 C2439 1.429 . S
C2445 C2446 1.523 . S
C2446 C2427 1.368 . S
C2446 C2440 1.368 . S
C2446 C2445 1.523 . S
C2447 C2431 1.429 . S
C2447 C2443 1.429 . S
C2447 C2448 1.523 . S
C2448 C2432 1.368 . S
C2448 C2444 1.368 . S
C2448 C2447 1.523 . S
H2449 C2424 0.950 . S
H2450 C2426 0.950 . S
H2451 C2427 0.949 . S
H2452 C2429 0.950 . S
H2453 C2431 0.950 . S
C2454 C2455 1.349 . S
C2454 C2456 1.327 1_556 S
C2454 H2479 0.950 1_556 S
C2455 C2454 1.349 . S
C2455 C2471 1.349 . S
C2456 C2454 1.327 1_554 S
C2456 C2475 1.429 1_554 S
C2456 H2480 0.949 . S
C2457 C2474 1.574 . S
C2457 C2476 1.368 . S
C2457 H2481 0.949 . S
H2458 C2462 0.949 . S
C2459 C2460 1.349 . S
C2459 C2461 1.327 . S
C2459 H2482 0.950 . S
C2460 C2459 1.349 . S
C2460 C2472 1.349 1_556 S
C2461 C2459 1.327 . S
C2461 C2477 1.429 . S
C2461 H2483 0.950 . S
C2462 H2458 0.949 . S
C2462 C2470 1.574 . S
C2462 C2478 1.368 1_554 S
H2463 C2471 0.950 . S
H2464 C2469 0.950 . S
H2465 C2470 0.949 . S
H2466 C2472 0.950 . S
H2467 C2473 0.950 . S
H2468 C2474 0.949 . S
C2469 H2464 0.950 . S
C2469 C2471 1.327 . S
C2469 C2475 1.429 . S
C2470 C2462 1.574 . S
C2470 H2465 0.949 . S
C2470 C2476 1.368 1_554 S
C2471 C2455 1.349 . S
C2471 H2463 0.950 . S
C2471 C2469 1.327 . S
C2472 C2460 1.349 1_554 S
C2472 H2466 0.950 . S
C2472 C2473 1.327 . S
C2473 H2467 0.950 . S
C2473 C2472 1.327 . S
C2473 C2477 1.429 1_554 S
C2474 C2457 1.574 . S
C2474 H2468 0.949 . S
C2474 C2478 1.368 . S
C2475 C2456 1.429 1_556 S
C2475 C2469 1.429 . S
C2475 C2476 1.523 . S
C2476 C2457 1.368 . S
C2476 C2470 1.368 1_556 S
C2476 C2475 1.523 . S
C2477 C2461 1.429 . S
C2477 C2473 1.429 1_556 S
C2477 C2478 1.523 . S
C2478 C2462 1.368 1_556 S
C2478 C2474 1.368 . S
C2478 C2477 1.523 . S
H2479 C2454 0.950 1_554 S
H2480 C2456 0.949 . S
H2481 C2457 0.949 . S
H2482 C2459 0.950 . S
H2483 C2461 0.950 . S
C2484 C2485 1.349 . S
C2484 C2486 1.327 . S
C2484 H2509 0.950 . S
C2485 C2484 1.349 . S
C2485 C2501 1.349 . S
C2486 C2484 1.327 . S
C2486 C2505 1.429 . S
C2486 H2510 0.950 . S
C2487 C2504 1.574 . S
C2487 C2506 1.368 . S
C2487 H2511 0.949 . S
H2488 C2492 0.949 . S
C2489 C2490 1.349 . S
C2489 C2491 1.327 . S
C2489 H2512 0.950 . S
C2490 C2489 1.349 . S
C2490 C2502 1.349 . S
C2491 C2489 1.327 . S
C2491 C2507 1.429 . S
C2491 H2513 0.950 . S
C2492 H2488 0.949 . S
C2492 C2500 1.574 . S
C2492 C2508 1.368 . S
H2493 C2501 0.950 . S
H2494 C2499 0.950 . S
H2495 C2500 0.949 . S
H2496 C2502 0.950 . S
H2497 C2503 0.950 . S
H2498 C2504 0.949 . S
C2499 H2494 0.950 . S
C2499 C2501 1.327 . S
C2499 C2505 1.429 . S
C2500 C2492 1.574 . S
C2500 H2495 0.949 . S
C2500 C2506 1.368 . S
C2501 C2485 1.349 . S
C2501 H2493 0.950 . S
C2501 C2499 1.327 . S
C2502 C2490 1.349 . S
C2502 H2496 0.950 . S
C2502 C2503 1.327 . S
C2503 H2497 0.950 . S
C2503 C2502 1.327 . S
C2503 C2507 1.429 . S
C2504 C2487 1.574 . S
C2504 H2498 0.949 . S
C2504 C2508 1.368 . S
C2505 C2486 1.429 . S
C2505 C2499 1.429 . S
C2505 C2506 1.523 . S
C2506 C2487 1.368 . S
C2506 C2500 1.368 . S
C2506 C2505 1.523 . S
C2507 C2491 1.429 . S
C2507 C2503 1.429 . S
C2507 C2508 1.523 . S
C2508 C2492 1.368 . S
C2508 C2504 1.368 . S
C2508 C2507 1.523 . S
H2509 C2484 0.950 . S
H2510 C2486 0.950 . S
H2511 C2487 0.949 . S
H2512 C2489 0.950 . S
H2513 C2491 0.950 . S
C2514 C2515 1.349 . S
C2514 C2516 1.327 . S
C2514 H2539 0.950 . S
C2515 C2514 1.349 . S
C2515 C2531 1.349 . S
C2516 C2514 1.327 . S
C2516 C2535 1.429 . S
C2516 H2540 0.950 . S
C2517 C2534 1.575 . S
C2517 C2536 1.367 1_556 S
C2517 H2541 0.947 . S
H2518 C2522 0.949 . S
C2519 C2520 1.349 . S
C2519 C2521 1.327 . S
C2519 H2542 0.950 . S
C2520 C2519 1.349 . S
C2520 C2532 1.349 . S
C2521 C2519 1.327 . S
C2521 C2537 1.429 . S
C2521 H2543 0.950 . S
C2522 H2518 0.949 . S
C2522 C2530 1.574 . S
C2522 C2538 1.368 1_554 S
H2523 C2531 0.950 . S
H2524 C2529 0.950 . S
H2525 C2530 0.949 . S
H2526 C2532 0.950 . S
H2527 C2533 0.965 . S
H2528 C2534 0.949 . S
C2529 H2524 0.950 . S
C2529 C2531 1.327 . S
C2529 C2535 1.429 . S
C2530 C2522 1.574 . S
C2530 H2525 0.949 . S
C2530 C2536 1.368 . S
C2531 C2515 1.349 . S
C2531 H2523 0.950 . S
C2531 C2529 1.327 . S
C2532 C2520 1.349 . S
C2532 H2526 0.950 . S
C2532 C2533 1.327 . S
C2533 H2527 0.965 . S
C2533 C2532 1.327 . S
C2533 C2537 1.429 . S
C2534 C2517 1.575 . S
C2534 H2528 0.949 . S
C2534 C2538 1.368 . S
C2535 C2516 1.429 . S
C2535 C2529 1.429 . S
C2535 C2536 1.523 . S
C2536 C2517 1.367 1_554 S
C2536 C2530 1.368 . S
C2536 C2535 1.523 . S
C2537 C2521 1.429 . S
C2537 C2533 1.429 . S
C2537 C2538 1.523 . S
C2538 C2522 1.368 1_556 S
C2538 C2534 1.368 . S
C2538 C2537 1.523 . S
H2539 C2514 0.950 . S
H2540 C2516 0.950 . S
H2541 C2517 0.947 . S
H2542 C2519 0.950 . S
H2543 C2521 0.950 . S
C2544 C2545 1.349 . S
C2544 C2546 1.327 . S
C2544 H2569 0.950 . S
C2545 C2544 1.349 . S
C2545 C2561 1.349 . S
C2546 C2544 1.327 . S
C2546 C2565 1.429 . S
C2546 H2570 0.950 . S
C2547 C2564 1.574 . S
C2547 C2566 1.368 . S
C2547 H2571 0.949 . S
H2548 C2552 0.949 . S
C2549 C2550 1.349 . S
C2549 C2551 1.327 . S
C2549 H2572 0.950 . S
C2550 C2549 1.349 . S
C2550 C2562 1.349 . S
C2551 C2549 1.327 . S
C2551 C2567 1.429 . S
C2551 H2573 0.950 . S
C2552 H2548 0.949 . S
C2552 C2560 1.574 . S
C2552 C2568 1.368 . S
H2553 C2561 0.950 . S
H2554 C2559 0.950 . S
H2555 C2560 0.949 . S
H2556 C2562 0.950 . S
H2557 C2563 0.950 . S
H2558 C2564 0.949 . S
C2559 H2554 0.950 . S
C2559 C2561 1.327 . S
C2559 C2565 1.429 . S
C2560 C2552 1.574 . S
C2560 H2555 0.949 . S
C2560 C2566 1.368 . S
C2561 C2545 1.349 . S
C2561 H2553 0.950 . S
C2561 C2559 1.327 . S
C2562 C2550 1.349 . S
C2562 H2556 0.950 . S
C2562 C2563 1.327 . S
C2563 H2557 0.950 . S
C2563 C2562 1.327 . S
C2563 C2567 1.429 . S
C2564 C2547 1.574 . S
C2564 H2558 0.949 . S
C2564 C2568 1.368 . S
C2565 C2546 1.429 . S
C2565 C2559 1.429 . S
C2565 C2566 1.523 . S
C2566 C2547 1.368 . S
C2566 C2560 1.368 . S
C2566 C2565 1.523 . S
C2567 C2551 1.429 . S
C2567 C2563 1.429 . S
C2567 C2568 1.523 . S
C2568 C2552 1.368 . S
C2568 C2564 1.368 . S
C2568 C2567 1.523 . S
H2569 C2544 0.950 . S
H2570 C2546 0.950 . S
H2571 C2547 0.949 . S
H2572 C2549 0.950 . S
H2573 C2551 0.950 . S
C2574 C2575 1.349 . S
C2574 C2576 1.327 . S
C2574 H2599 0.950 1_655 S
C2575 C2574 1.349 . S
C2575 C2591 1.349 . S
C2576 C2574 1.327 . S
C2576 C2595 1.429 . S
C2576 H2600 0.950 1_655 S
C2577 C2594 1.574 . S
C2577 C2596 1.368 . S
C2577 H2601 0.949 . S
H2578 C2582 0.949 . S
C2579 C2580 1.349 . S
C2579 C2581 1.327 . S
C2579 H2602 0.950 . S
C2580 C2579 1.349 . S
C2580 C2592 1.349 1_655 S
C2581 C2579 1.327 . S
C2581 C2597 1.429 . S
C2581 H2603 0.950 . S
C2582 H2578 0.949 . S
C2582 C2590 1.574 . S
C2582 C2598 1.368 1_455 S
H2583 C2591 0.950 . S
H2584 C2589 0.950 . S
H2585 C2590 0.949 . S
H2586 C2592 0.950 . S
H2587 C2593 0.950 . S
H2588 C2594 0.949 . S
C2589 H2584 0.950 . S
C2589 C2591 1.327 . S
C2589 C2595 1.429 . S
C2590 C2582 1.574 . S
C2590 H2585 0.949 . S
C2590 C2596 1.368 1_455 S
C2591 C2575 1.349 . S
C2591 H2583 0.950 . S
C2591 C2589 1.327 . S
C2592 C2580 1.349 1_455 S
C2592 H2586 0.950 . S
C2592 C2593 1.327 . S
C2593 H2587 0.950 . S
C2593 C2592 1.327 . S
C2593 C2597 1.429 1_455 S
C2594 C2577 1.574 . S
C2594 H2588 0.949 . S
C2594 C2598 1.368 . S
C2595 C2576 1.429 . S
C2595 C2589 1.429 . S
C2595 C2596 1.523 . S
C2596 C2577 1.368 . S
C2596 C2590 1.368 1_655 S
C2596 C2595 1.523 . S
C2597 C2581 1.429 . S
C2597 C2593 1.429 1_655 S
C2597 C2598 1.523 . S
C2598 C2582 1.368 1_655 S
C2598 C2594 1.368 . S
C2598 C2597 1.523 . S
H2599 C2574 0.950 1_455 S
H2600 C2576 0.950 1_455 S
H2601 C2577 0.949 . S
H2602 C2579 0.950 . S
H2603 C2581 0.950 . S
C2604 C2605 1.349 . S
C2604 C2606 1.327 . S
C2604 H2629 0.950 . S
C2605 C2604 1.349 . S
C2605 C2621 1.349 . S
C2606 C2604 1.327 . S
C2606 C2625 1.429 . S
C2606 H2630 0.950 . S
C2607 C2624 1.574 . S
C2607 C2626 1.368 . S
C2607 H2631 0.949 . S
H2608 C2612 0.949 . S
C2609 C2610 1.349 . S
C2609 C2611 1.327 . S
C2609 H2632 0.950 . S
C2610 C2609 1.349 . S
C2610 C2622 1.349 . S
C2611 C2609 1.327 . S
C2611 C2627 1.429 . S
C2611 H2633 0.950 . S
C2612 H2608 0.949 . S
C2612 C2620 1.574 . S
C2612 C2628 1.368 . S
H2613 C2621 0.950 . S
H2614 C2619 0.950 . S
H2615 C2620 0.949 . S
H2616 C2622 0.950 . S
H2617 C2623 0.950 . S
H2618 C2624 0.949 . S
C2619 H2614 0.950 . S
C2619 C2621 1.327 . S
C2619 C2625 1.429 . S
C2620 C2612 1.574 . S
C2620 H2615 0.949 . S
C2620 C2626 1.368 . S
C2621 C2605 1.349 . S
C2621 H2613 0.950 . S
C2621 C2619 1.327 . S
C2622 C2610 1.349 . S
C2622 H2616 0.950 . S
C2622 C2623 1.327 . S
C2623 H2617 0.950 . S
C2623 C2622 1.327 . S
C2623 C2627 1.429 . S
C2624 C2607 1.574 . S
C2624 H2618 0.949 . S
C2624 C2628 1.368 . S
C2625 C2606 1.429 . S
C2625 C2619 1.429 . S
C2625 C2626 1.523 . S
C2626 C2607 1.368 . S
C2626 C2620 1.368 . S
C2626 C2625 1.523 . S
C2627 C2611 1.429 . S
C2627 C2623 1.429 . S
C2627 C2628 1.523 . S
C2628 C2612 1.368 . S
C2628 C2624 1.368 . S
C2628 C2627 1.523 . S
H2629 C2604 0.950 . S
H2630 C2606 0.950 . S
H2631 C2607 0.949 . S
H2632 C2609 0.950 . S
H2633 C2611 0.950 . S
C2634 C2635 1.349 . S
C2634 C2636 1.320 1_455 S
C2634 H2659 0.950 1_455 S
C2635 C2634 1.349 . S
C2635 C2651 1.349 . S
C2636 C2634 1.320 1_655 S
C2636 C2655 1.418 1_655 S
C2636 H2660 0.970 . S
C2637 C2654 1.574 . S
C2637 C2656 1.368 . S
C2637 H2661 0.949 . S
H2638 C2642 0.949 . S
C2639 C2640 1.350 . S
C2639 C2641 1.327 1_655 S
C2639 H2662 0.949 1_655 S
C2640 C2639 1.350 . S
C2640 C2652 1.349 . S
C2641 C2639 1.327 1_455 S
C2641 C2657 1.429 1_455 S
C2641 H2663 0.950 . S
C2642 H2638 0.949 . S
C2642 C2650 1.574 . S
C2642 C2658 1.368 . S
H2643 C2651 0.950 . S
H2644 C2649 0.950 . S
H2645 C2650 0.949 . S
H2646 C2652 0.950 . S
H2647 C2653 0.950 . S
H2648 C2654 0.949 . S
C2649 H2644 0.950 . S
C2649 C2651 1.327 . S
C2649 C2655 1.429 . S
C2650 C2642 1.574 . S
C2650 H2645 0.949 . S
C2650 C2656 1.368 1_655 S
C2651 C2635 1.349 . S
C2651 H2643 0.950 . S
C2651 C2649 1.327 . S
C2652 C2640 1.349 . S
C2652 H2646 0.950 . S
C2652 C2653 1.327 . S
C2653 H2647 0.950 . S
C2653 C2652 1.327 . S
C2653 C2657 1.429 . S
C2654 C2637 1.574 . S
C2654 H2648 0.949 . S
C2654 C2658 1.368 1_455 S
C2655 C2636 1.418 1_455 S
C2655 C2649 1.429 . S
C2655 C2656 1.523 . S
C2656 C2637 1.368 . S
C2656 C2650 1.368 1_455 S
C2656 C2655 1.523 . S
C2657 C2641 1.429 1_655 S
C2657 C2653 1.429 . S
C2657 C2658 1.523 . S
C2658 C2642 1.368 . S
C2658 C2654 1.368 1_655 S
C2658 C2657 1.523 . S
H2659 C2634 0.950 1_655 S
H2660 C2636 0.970 . S
H2661 C2637 0.949 . S
H2662 C2639 0.949 1_455 S
H2663 C2641 0.950 . S
C2664 C2665 1.349 . S
C2664 C2666 1.327 . S
C2664 H2689 0.950 . S
C2665 C2664 1.349 . S
C2665 C2681 1.349 . S
C2666 C2664 1.327 . S
C2666 C2685 1.429 . S
C2666 H2690 0.950 . S
C2667 C2684 1.574 . S
C2667 C2686 1.368 . S
C2667 H2691 0.949 . S
H2668 C2672 0.949 . S
C2669 C2670 1.349 . S
C2669 C2671 1.327 . S
C2669 H2692 0.950 . S
C2670 C2669 1.349 . S
C2670 C2682 1.349 . S
C2671 C2669 1.327 . S
C2671 C2687 1.429 . S
C2671 H2693 0.950 . S
C2672 H2668 0.949 . S
C2672 C2680 1.574 . S
C2672 C2688 1.368 . S
H2673 C2681 0.950 . S
H2674 C2679 0.950 . S
H2675 C2680 0.949 . S
H2676 C2682 0.950 . S
H2677 C2683 0.950 . S
H2678 C2684 0.949 . S
C2679 H2674 0.950 . S
C2679 C2681 1.327 . S
C2679 C2685 1.429 . S
C2680 C2672 1.574 . S
C2680 H2675 0.949 . S
C2680 C2686 1.368 . S
C2681 C2665 1.349 . S
C2681 H2673 0.950 . S
C2681 C2679 1.327 . S
C2682 C2670 1.349 . S
C2682 H2676 0.950 . S
C2682 C2683 1.327 . S
C2683 H2677 0.950 . S
C2683 C2682 1.327 . S
C2683 C2687 1.429 . S
C2684 C2667 1.574 . S
C2684 H2678 0.949 . S
C2684 C2688 1.368 . S
C2685 C2666 1.429 . S
C2685 C2679 1.429 . S
C2685 C2686 1.523 . S
C2686 C2667 1.368 . S
C2686 C2680 1.368 . S
C2686 C2685 1.523 . S
C2687 C2671 1.429 . S
C2687 C2683 1.429 . S
C2687 C2688 1.523 . S
C2688 C2672 1.368 . S
C2688 C2684 1.368 . S
C2688 C2687 1.523 . S
H2689 C2664 0.950 . S
H2690 C2666 0.950 . S
H2691 C2667 0.949 . S
H2692 C2669 0.950 . S
H2693 C2671 0.950 . S
C2694 C2695 1.349 . S
C2694 C2696 1.327 . S
C2694 H2719 0.950 . S
C2695 C2694 1.349 . S
C2695 C2711 1.349 . S
C2696 C2694 1.327 . S
C2696 C2715 1.429 . S
C2696 H2720 0.950 . S
C2697 C2714 1.574 . S
C2697 C2716 1.368 . S
C2697 H2721 0.949 . S
H2698 C2702 0.949 . S
C2699 C2700 1.349 . S
C2699 C2701 1.327 . S
C2699 H2722 0.950 . S
C2700 C2699 1.349 . S
C2700 C2712 1.349 . S
C2701 C2699 1.327 . S
C2701 C2717 1.429 . S
C2701 H2723 0.950 . S
C2702 H2698 0.949 . S
C2702 C2710 1.574 . S
C2702 C2718 1.368 . S
H2703 C2711 0.950 . S
H2704 C2709 0.950 . S
H2705 C2710 0.949 . S
H2706 C2712 0.950 . S
H2707 C2713 0.950 . S
H2708 C2714 0.949 . S
C2709 H2704 0.950 . S
C2709 C2711 1.327 . S
C2709 C2715 1.429 . S
C2710 C2702 1.574 . S
C2710 H2705 0.949 . S
C2710 C2716 1.368 . S
C2711 C2695 1.349 . S
C2711 H2703 0.950 . S
C2711 C2709 1.327 . S
C2712 C2700 1.349 . S
C2712 H2706 0.950 . S
C2712 C2713 1.327 . S
C2713 H2707 0.950 . S
C2713 C2712 1.327 . S
C2713 C2717 1.429 . S
C2714 C2697 1.574 . S
C2714 H2708 0.949 . S
C2714 C2718 1.368 . S
C2715 C2696 1.429 . S
C2715 C2709 1.429 . S
C2715 C2716 1.523 . S
C2716 C2697 1.368 . S
C2716 C2710 1.368 . S
C2716 C2715 1.523 . S
C2717 C2701 1.429 . S
C2717 C2713 1.429 . S
C2717 C2718 1.523 . S
C2718 C2702 1.368 . S
C2718 C2714 1.368 . S
C2718 C2717 1.523 . S
H2719 C2694 0.950 . S
H2720 C2696 0.950 . S
H2721 C2697 0.949 . S
H2722 C2699 0.950 . S
H2723 C2701 0.950 . S
C2724 C2725 1.349 . S
C2724 C2726 1.327 . S
C2724 H2749 0.950 . S
C2725 C2724 1.349 . S
C2725 C2741 1.349 1_545 S
C2726 C2724 1.327 . S
C2726 C2745 1.429 . S
C2726 H2750 0.950 . S
C2727 C2744 1.574 . S
C2727 C2746 1.368 . S
C2727 H2751 0.949 1_545 S
H2728 C2732 0.949 . S
C2729 C2730 1.349 . S
C2729 C2731 1.327 . S
C2729 H2752 0.950 . S
C2730 C2729 1.349 . S
C2730 C2742 1.349 . S
C2731 C2729 1.327 . S
C2731 C2747 1.429 . S
C2731 H2753 0.993 . S
C2732 H2728 0.949 . S
C2732 C2740 1.574 . S
C2732 C2748 1.368 . S
H2733 C2741 0.950 . S
H2734 C2739 0.950 . S
H2735 C2740 0.949 . S
H2736 C2742 0.950 . S
H2737 C2743 0.950 . S
H2738 C2744 0.949 1_565 S
C2739 H2734 0.950 . S
C2739 C2741 1.327 . S
C2739 C2745 1.429 1_565 S
C2740 C2732 1.574 . S
C2740 H2735 0.949 . S
C2740 C2746 1.368 . S
C2741 C2725 1.349 1_565 S
C2741 H2733 0.950 . S
C2741 C2739 1.327 . S
C2742 C2730 1.349 . S
C2742 H2736 0.950 . S
C2742 C2743 1.327 . S
C2743 H2737 0.950 . S
C2743 C2742 1.327 . S
C2743 C2747 1.429 . S
C2744 C2727 1.574 . S
C2744 H2738 0.949 1_545 S
C2744 C2748 1.368 . S
C2745 C2726 1.429 . S
C2745 C2739 1.429 1_545 S
C2745 C2746 1.523 . S
C2746 C2727 1.368 . S
C2746 C2740 1.368 . S
C2746 C2745 1.523 . S
C2747 C2731 1.429 . S
C2747 C2743 1.429 . S
C2747 C2748 1.523 . S
C2748 C2732 1.368 . S
C2748 C2744 1.368 . S
C2748 C2747 1.523 . S
H2749 C2724 0.950 . S
H2750 C2726 0.950 . S
H2751 C2727 0.949 1_565 S
H2752 C2729 0.950 . S
H2753 C2731 0.993 . S
C2754 C2755 1.349 . S
C2754 C2756 1.327 . S
C2754 H2779 0.950 . S
C2755 C2754 1.349 . S
C2755 C2771 1.349 . S
C2756 C2754 1.327 . S
C2756 C2775 1.429 . S
C2756 H2780 0.950 . S
C2757 C2774 1.574 . S
C2757 C2776 1.368 . S
C2757 H2781 0.949 . S
H2758 C2762 0.949 . S
C2759 C2760 1.349 . S
C2759 C2761 1.327 . S
C2759 H2782 0.950 . S
C2760 C2759 1.349 . S
C2760 C2772 1.349 . S
C2761 C2759 1.327 . S
C2761 C2777 1.429 . S
C2761 H2783 0.950 . S
C2762 H2758 0.949 . S
C2762 C2770 1.574 . S
C2762 C2778 1.368 . S
H2763 C2771 0.950 . S
H2764 C2769 0.950 . S
H2765 C2770 0.949 . S
H2766 C2772 0.950 . S
H2767 C2773 0.950 . S
H2768 C2774 0.949 . S
C2769 H2764 0.950 . S
C2769 C2771 1.327 . S
C2769 C2775 1.429 . S
C2770 C2762 1.574 . S
C2770 H2765 0.949 . S
C2770 C2776 1.368 . S
C2771 C2755 1.349 . S
C2771 H2763 0.950 . S
C2771 C2769 1.327 . S
C2772 C2760 1.349 . S
C2772 H2766 0.950 . S
C2772 C2773 1.327 . S
C2773 H2767 0.950 . S
C2773 C2772 1.327 . S
C2773 C2777 1.429 . S
C2774 C2757 1.574 . S
C2774 H2768 0.949 . S
C2774 C2778 1.368 . S
C2775 C2756 1.429 . S
C2775 C2769 1.429 . S
C2775 C2776 1.523 . S
C2776 C2757 1.368 . S
C2776 C2770 1.368 . S
C2776 C2775 1.523 . S
C2777 C2761 1.429 . S
C2777 C2773 1.429 . S
C2777 C2778 1.523 . S
C2778 C2762 1.368 . S
C2778 C2774 1.368 . S
C2778 C2777 1.523 . S
H2779 C2754 0.950 . S
H2780 C2756 0.950 . S
H2781 C2757 0.949 . S
H2782 C2759 0.950 . S
H2783 C2761 0.950 . S
C2784 C2785 1.349 . S
C2784 C2786 1.327 . S
C2784 H2809 0.950 . S
C2785 C2784 1.349 . S
C2785 C2801 1.349 . S
C2786 C2784 1.327 . S
C2786 C2805 1.429 . S
C2786 H2810 0.950 . S
C2787 C2804 1.574 . S
C2787 C2806 1.368 . S
C2787 H2811 0.949 . S
H2788 C2792 0.949 . S
C2789 C2790 1.349 . S
C2789 C2791 1.327 . S
C2789 H2812 0.950 . S
C2790 C2789 1.349 . S
C2790 C2802 1.349 . S
C2791 C2789 1.327 . S
C2791 C2807 1.429 . S
C2791 H2813 0.950 . S
C2792 H2788 0.949 . S
C2792 C2800 1.574 . S
C2792 C2808 1.368 . S
H2793 C2801 0.950 . S
H2794 C2799 0.950 . S
H2795 C2800 0.949 . S
H2796 C2802 0.950 . S
H2797 C2803 0.950 . S
H2798 C2804 0.949 . S
C2799 H2794 0.950 . S
C2799 C2801 1.327 . S
C2799 C2805 1.429 . S
C2800 C2792 1.574 . S
C2800 H2795 0.949 . S
C2800 C2806 1.368 . S
C2801 C2785 1.349 . S
C2801 H2793 0.950 . S
C2801 C2799 1.327 . S
C2802 C2790 1.349 . S
C2802 H2796 0.950 . S
C2802 C2803 1.327 . S
C2803 H2797 0.950 . S
C2803 C2802 1.327 . S
C2803 C2807 1.429 . S
C2804 C2787 1.574 . S
C2804 H2798 0.949 . S
C2804 C2808 1.368 . S
C2805 C2786 1.429 . S
C2805 C2799 1.429 . S
C2805 C2806 1.523 . S
C2806 C2787 1.368 . S
C2806 C2800 1.368 . S
C2806 C2805 1.523 . S
C2807 C2791 1.429 . S
C2807 C2803 1.429 . S
C2807 C2808 1.523 . S
C2808 C2792 1.368 . S
C2808 C2804 1.368 . S
C2808 C2807 1.523 . S
H2809 C2784 0.950 . S
H2810 C2786 0.950 . S
H2811 C2787 0.949 . S
H2812 C2789 0.950 . S
H2813 C2791 0.950 . S
C2814 C2815 1.349 . S
C2814 C2816 1.327 . S
C2814 H2839 0.950 . S
C2815 C2814 1.349 . S
C2815 C2831 1.349 . S
C2816 C2814 1.327 . S
C2816 C2835 1.429 . S
C2816 H2840 0.950 . S
C2817 C2834 1.574 . S
C2817 C2836 1.368 . S
C2817 H2841 0.949 . S
H2818 C2822 0.949 . S
C2819 C2820 1.349 . S
C2819 C2821 1.327 . S
C2819 H2842 0.950 . S
C2820 C2819 1.349 . S
C2820 C2832 1.349 . S
C2821 C2819 1.327 . S
C2821 C2837 1.429 . S
C2821 H2843 0.950 . S
C2822 H2818 0.949 . S
C2822 C2830 1.574 . S
C2822 C2838 1.368 . S
H2823 C2831 0.950 1_554 S
H2824 C2829 0.932 1_554 S
H2825 C2830 0.949 . S
H2826 C2832 0.950 . S
H2827 C2833 0.950 . S
H2828 C2834 0.949 . S
C2829 H2824 0.932 1_556 S
C2829 C2831 1.327 . S
C2829 C2835 1.429 . S
C2830 C2822 1.574 . S
C2830 H2825 0.949 . S
C2830 C2836 1.368 . S
C2831 C2815 1.349 . S
C2831 H2823 0.950 1_556 S
C2831 C2829 1.327 . S
C2832 C2820 1.349 . S
C2832 H2826 0.950 . S
C2832 C2833 1.327 . S
C2833 H2827 0.950 . S
C2833 C2832 1.327 . S
C2833 C2837 1.429 . S
C2834 C2817 1.574 . S
C2834 H2828 0.949 . S
C2834 C2838 1.368 . S
C2835 C2816 1.429 . S
C2835 C2829 1.429 . S
C2835 C2836 1.523 . S
C2836 C2817 1.368 . S
C2836 C2830 1.368 . S
C2836 C2835 1.523 . S
C2837 C2821 1.429 . S
C2837 C2833 1.429 . S
C2837 C2838 1.523 . S
C2838 C2822 1.368 . S
C2838 C2834 1.368 . S
C2838 C2837 1.523 . S
H2839 C2814 0.950 . S
H2840 C2816 0.950 . S
H2841 C2817 0.949 . S
H2842 C2819 0.950 . S
H2843 C2821 0.950 . S
C2844 C2845 1.349 . S
C2844 C2846 1.327 . S
C2844 H2869 0.950 . S
C2845 C2844 1.349 . S
C2845 C2861 1.349 . S
C2846 C2844 1.327 . S
C2846 C2865 1.429 . S
C2846 H2870 0.950 . S
C2847 C2864 1.574 . S
C2847 C2866 1.368 . S
C2847 H2871 0.949 . S
H2848 C2852 0.949 . S
C2849 C2850 1.349 . S
C2849 C2851 1.327 . S
C2849 H2872 0.950 . S
C2850 C2849 1.349 . S
C2850 C2862 1.349 . S
C2851 C2849 1.327 . S
C2851 C2867 1.429 . S
C2851 H2873 0.950 . S
C2852 H2848 0.949 . S
C2852 C2860 1.574 . S
C2852 C2868 1.368 . S
H2853 C2861 0.950 . S
H2854 C2859 0.950 . S
H2855 C2860 0.949 . S
H2856 C2862 0.950 . S
H2857 C2863 0.950 . S
H2858 C2864 0.949 . S
C2859 H2854 0.950 . S
C2859 C2861 1.327 . S
C2859 C2865 1.429 . S
C2860 C2852 1.574 . S
C2860 H2855 0.949 . S
C2860 C2866 1.368 . S
C2861 C2845 1.349 . S
C2861 H2853 0.950 . S
C2861 C2859 1.327 . S
C2862 C2850 1.349 . S
C2862 H2856 0.950 . S
C2862 C2863 1.327 . S
C2863 H2857 0.950 . S
C2863 C2862 1.327 . S
C2863 C2867 1.429 . S
C2864 C2847 1.574 . S
C2864 H2858 0.949 . S
C2864 C2868 1.368 . S
C2865 C2846 1.429 . S
C2865 C2859 1.429 . S
C2865 C2866 1.523 . S
C2866 C2847 1.368 . S
C2866 C2860 1.368 . S
C2866 C2865 1.523 . S
C2867 C2851 1.429 . S
C2867 C2863 1.429 . S
C2867 C2868 1.523 . S
C2868 C2852 1.368 . S
C2868 C2864 1.368 . S
C2868 C2867 1.523 . S
H2869 C2844 0.950 . S
H2870 C2846 0.950 . S
H2871 C2847 0.949 . S
H2872 C2849 0.950 . S
H2873 C2851 0.950 . S
C2874 C2875 1.349 1_556 S
C2874 C2876 1.338 . S
C2874 H2899 0.950 . S
C2875 C2874 1.349 1_554 S
C2875 C2891 1.349 . S
C2876 C2874 1.338 . S
C2876 C2895 1.382 1_556 S
C2876 H2900 0.991 . S
C2877 C2894 1.574 . S
C2877 C2896 1.368 . S
C2877 H2901 0.949 . S
H2878 C2882 0.949 . S
C2879 C2880 1.349 . S
C2879 C2881 1.327 . S
C2879 H2902 0.950 . S
C2880 C2879 1.349 . S
C2880 C2892 1.349 . S
C2881 C2879 1.327 . S
C2881 C2897 1.429 . S
C2881 H2903 0.950 . S
C2882 H2878 0.949 . S
C2882 C2890 1.574 . S
C2882 C2898 1.368 . S
H2883 C2891 0.950 . S
H2884 C2889 0.950 . S
H2885 C2890 0.949 1_556 S
H2886 C2892 0.950 . S
H2887 C2893 0.950 . S
H2888 C2894 0.949 . S
C2889 H2884 0.950 . S
C2889 C2891 1.327 . S
C2889 C2895 1.429 . S
C2890 C2882 1.574 . S
C2890 H2885 0.949 1_554 S
C2890 C2896 1.368 . S
C2891 C2875 1.349 . S
C2891 H2883 0.950 . S
C2891 C2889 1.327 . S
C2892 C2880 1.349 . S
C2892 H2886 0.950 . S
C2892 C2893 1.327 . S
C2893 H2887 0.950 . S
C2893 C2892 1.327 . S
C2893 C2897 1.429 . S
C2894 C2877 1.574 . S
C2894 H2888 0.949 . S
C2894 C2898 1.368 . S
C2895 C2876 1.382 1_554 S
C2895 C2889 1.429 . S
C2895 C2896 1.523 . S
C2896 C2877 1.368 . S
C2896 C2890 1.368 . S
C2896 C2895 1.523 . S
C2897 C2881 1.429 . S
C2897 C2893 1.429 . S
C2897 C2898 1.523 . S
C2898 C2882 1.368 . S
C2898 C2894 1.368 . S
C2898 C2897 1.523 . S
H2899 C2874 0.950 . S
H2900 C2876 0.991 . S
H2901 C2877 0.949 . S
H2902 C2879 0.950 . S
H2903 C2881 0.950 . S
C2904 C2905 1.349 . S
C2904 C2906 1.327 . S
C2904 H2929 0.950 . S
C2905 C2904 1.349 . S
C2905 C2921 1.349 . S
C2906 C2904 1.327 . S
C2906 C2925 1.429 . S
C2906 H2930 0.950 . S
C2907 C2924 1.574 . S
C2907 C2926 1.368 . S
C2907 H2931 0.949 . S
H2908 C2912 0.949 . S
C2909 C2910 1.349 . S
C2909 C2911 1.327 . S
C2909 H2932 0.950 . S
C2910 C2909 1.349 . S
C2910 C2922 1.349 . S
C2911 C2909 1.327 . S
C2911 C2927 1.429 . S
C2911 H2933 0.950 . S
C2912 H2908 0.949 . S
C2912 C2920 1.574 . S
C2912 C2928 1.368 . S
H2913 C2921 0.950 . S
H2914 C2919 0.950 . S
H2915 C2920 0.949 . S
H2916 C2922 0.950 . S
H2917 C2923 0.950 . S
H2918 C2924 0.949 . S
C2919 H2914 0.950 . S
C2919 C2921 1.327 . S
C2919 C2925 1.429 . S
C2920 C2912 1.574 . S
C2920 H2915 0.949 . S
C2920 C2926 1.368 . S
C2921 C2905 1.349 . S
C2921 H2913 0.950 . S
C2921 C2919 1.327 . S
C2922 C2910 1.349 . S
C2922 H2916 0.950 . S
C2922 C2923 1.327 . S
C2923 H2917 0.950 . S
C2923 C2922 1.327 . S
C2923 C2927 1.429 . S
C2924 C2907 1.574 . S
C2924 H2918 0.949 . S
C2924 C2928 1.368 . S
C2925 C2906 1.429 . S
C2925 C2919 1.429 . S
C2925 C2926 1.523 . S
C2926 C2907 1.368 . S
C2926 C2920 1.368 . S
C2926 C2925 1.523 . S
C2927 C2911 1.429 . S
C2927 C2923 1.429 . S
C2927 C2928 1.523 . S
C2928 C2912 1.368 . S
C2928 C2924 1.368 . S
C2928 C2927 1.523 . S
H2929 C2904 0.950 . S
H2930 C2906 0.950 . S
H2931 C2907 0.949 . S
H2932 C2909 0.950 . S
H2933 C2911 0.950 . S
C2934 C2935 1.349 . S
C2934 C2936 1.327 . S
C2934 H2959 0.950 . S
C2935 C2934 1.349 . S
C2935 C2951 1.349 . S
C2936 C2934 1.327 . S
C2936 C2955 1.429 . S
C2936 H2960 0.950 . S
C2937 C2954 1.574 . S
C2937 C2956 1.368 . S
C2937 H2961 0.949 . S
H2938 C2942 0.949 . S
C2939 C2940 1.349 . S
C2939 C2941 1.327 . S
C2939 H2962 0.950 . S
C2940 C2939 1.349 . S
C2940 C2952 1.349 . S
C2941 C2939 1.327 . S
C2941 C2957 1.429 . S
C2941 H2963 0.950 . S
C2942 H2938 0.949 . S
C2942 C2950 1.574 . S
C2942 C2958 1.368 . S
H2943 C2951 0.931 1_455 S
H2944 C2949 0.950 . S
H2945 C2950 0.949 . S
H2946 C2952 0.950 . S
H2947 C2953 0.950 . S
H2948 C2954 0.949 . S
C2949 H2944 0.950 . S
C2949 C2951 1.327 . S
C2949 C2955 1.429 . S
C2950 C2942 1.574 . S
C2950 H2945 0.949 . S
C2950 C2956 1.368 . S
C2951 C2935 1.349 . S
C2951 H2943 0.931 1_655 S
C2951 C2949 1.327 . S
C2952 C2940 1.349 . S
C2952 H2946 0.950 . S
C2952 C2953 1.327 . S
C2953 H2947 0.950 . S
C2953 C2952 1.327 . S
C2953 C2957 1.429 . S
C2954 C2937 1.574 . S
C2954 H2948 0.949 . S
C2954 C2958 1.368 . S
C2955 C2936 1.429 . S
C2955 C2949 1.429 . S
C2955 C2956 1.523 . S
C2956 C2937 1.368 . S
C2956 C2950 1.368 . S
C2956 C2955 1.523 . S
C2957 C2941 1.429 . S
C2957 C2953 1.429 . S
C2957 C2958 1.523 . S
C2958 C2942 1.368 . S
C2958 C2954 1.368 . S
C2958 C2957 1.523 . S
H2959 C2934 0.950 . S
H2960 C2936 0.950 . S
H2961 C2937 0.949 . S
H2962 C2939 0.950 . S
H2963 C2941 0.950 . S
C2964 C2965 1.349 . S
C2964 C2966 1.327 . S
C2964 H2989 0.950 . S
C2965 C2964 1.349 . S
C2965 C2981 1.349 . S
C2966 C2964 1.327 . S
C2966 C2985 1.429 . S
C2966 H2990 0.950 . S
C2967 C2984 1.574 . S
C2967 C2986 1.368 . S
C2967 H2991 0.949 . S
H2968 C2972 0.949 . S
C2969 C2970 1.349 . S
C2969 C2971 1.327 . S
C2969 H2992 0.950 . S
C2970 C2969 1.349 . S
C2970 C2982 1.349 . S
C2971 C2969 1.327 . S
C2971 C2987 1.429 . S
C2971 H2993 0.950 . S
C2972 H2968 0.949 . S
C2972 C2980 1.574 . S
C2972 C2988 1.368 . S
H2973 C2981 0.950 . S
H2974 C2979 0.950 . S
H2975 C2980 0.949 . S
H2976 C2982 0.950 . S
H2977 C2983 0.950 . S
H2978 C2984 0.949 . S
C2979 H2974 0.950 . S
C2979 C2981 1.327 . S
C2979 C2985 1.429 . S
C2980 C2972 1.574 . S
C2980 H2975 0.949 . S
C2980 C2986 1.368 . S
C2981 C2965 1.349 . S
C2981 H2973 0.950 . S
C2981 C2979 1.327 . S
C2982 C2970 1.349 . S
C2982 H2976 0.950 . S
C2982 C2983 1.327 . S
C2983 H2977 0.950 . S
C2983 C2982 1.327 . S
C2983 C2987 1.429 . S
C2984 C2967 1.574 . S
C2984 H2978 0.949 . S
C2984 C2988 1.368 . S
C2985 C2966 1.429 . S
C2985 C2979 1.429 . S
C2985 C2986 1.523 . S
C2986 C2967 1.368 . S
C2986 C2980 1.368 . S
C2986 C2985 1.523 . S
C2987 C2971 1.429 . S
C2987 C2983 1.429 . S
C2987 C2988 1.523 . S
C2988 C2972 1.368 . S
C2988 C2984 1.368 . S
C2988 C2987 1.523 . S
H2989 C2964 0.950 . S
H2990 C2966 0.950 . S
H2991 C2967 0.949 . S
H2992 C2969 0.950 . S
H2993 C2971 0.950 . S
C2994 C2995 1.349 . S
C2994 C2996 1.327 . S
C2994 H3019 0.950 . S
C2995 C2994 1.349 . S
C2995 C3011 1.370 . S
C2996 C2994 1.327 . S
C2996 C3015 1.429 . S
C2996 H3020 0.950 . S
C2997 C3014 1.574 . S
C2997 C3016 1.368 . S
C2997 H3021 0.949 . S
H2998 C3002 0.949 . S
C2999 C3000 1.349 . S
C2999 C3001 1.327 . S
C2999 H3022 0.950 . S
C3000 C2999 1.349 . S
C3000 C3012 1.349 . S
C3001 C2999 1.327 . S
C3001 C3017 1.429 . S
C3001 H3023 0.950 . S
C3002 H2998 0.949 . S
C3002 C3010 1.574 . S
C3002 C3018 1.368 . S
H3003 C3011 0.924 1_655 S
H3004 C3009 0.949 . S
H3005 C3010 0.949 . S
H3006 C3012 0.950 . S
H3007 C3013 0.950 . S
H3008 C3014 0.949 . S
C3009 H3004 0.949 . S
C3009 C3011 1.335 . S
C3009 C3015 1.429 . S
C3010 C3002 1.574 . S
C3010 H3005 0.949 . S
C3010 C3016 1.368 . S
C3011 C2995 1.370 . S
C3011 H3003 0.924 1_455 S
C3011 C3009 1.335 . S
C3012 C3000 1.349 . S
C3012 H3006 0.950 . S
C3012 C3013 1.327 . S
C3013 H3007 0.950 . S
C3013 C3012 1.327 . S
C3013 C3017 1.429 . S
C3014 C2997 1.574 . S
C3014 H3008 0.949 . S
C3014 C3018 1.368 . S
C3015 C2996 1.429 . S
C3015 C3009 1.429 . S
C3015 C3016 1.523 . S
C3016 C2997 1.368 . S
C3016 C3010 1.368 . S
C3016 C3015 1.523 . S
C3017 C3001 1.429 . S
C3017 C3013 1.429 . S
C3017 C3018 1.523 . S
C3018 C3002 1.368 . S
C3018 C3014 1.368 . S
C3018 C3017 1.523 . S
H3019 C2994 0.950 . S
H3020 C2996 0.950 . S
H3021 C2997 0.949 . S
H3022 C2999 0.950 . S
H3023 C3001 0.950 . S
C3024 C3025 1.349 . S
C3024 C3026 1.327 . S
C3024 H3049 0.950 . S
C3025 C3024 1.349 . S
C3025 C3041 1.349 . S
C3026 C3024 1.327 . S
C3026 C3045 1.429 . S
C3026 H3050 0.950 . S
C3027 C3044 1.574 . S
C3027 C3046 1.368 . S
C3027 H3051 0.949 . S
H3028 C3032 0.949 . S
C3029 C3030 1.349 . S
C3029 C3031 1.327 . S
C3029 H3052 0.950 . S
C3030 C3029 1.349 . S
C3030 C3042 1.349 . S
C3031 C3029 1.327 . S
C3031 C3047 1.429 . S
C3031 H3053 0.950 . S
C3032 H3028 0.949 . S
C3032 C3040 1.574 . S
C3032 C3048 1.368 . S
H3033 C3041 0.950 . S
H3034 C3039 0.950 . S
H3035 C3040 0.949 . S
H3036 C3042 0.950 . S
H3037 C3043 0.950 . S
H3038 C3044 0.949 . S
C3039 H3034 0.950 . S
C3039 C3041 1.327 . S
C3039 C3045 1.429 . S
C3040 C3032 1.574 . S
C3040 H3035 0.949 . S
C3040 C3046 1.368 . S
C3041 C3025 1.349 . S
C3041 H3033 0.950 . S
C3041 C3039 1.327 . S
C3042 C3030 1.349 . S
C3042 H3036 0.950 . S
C3042 C3043 1.327 . S
C3043 H3037 0.950 . S
C3043 C3042 1.327 . S
C3043 C3047 1.429 . S
C3044 C3027 1.574 . S
C3044 H3038 0.949 . S
C3044 C3048 1.368 . S
C3045 C3026 1.429 . S
C3045 C3039 1.429 . S
C3045 C3046 1.523 . S
C3046 C3027 1.368 . S
C3046 C3040 1.368 . S
C3046 C3045 1.523 . S
C3047 C3031 1.429 . S
C3047 C3043 1.429 . S
C3047 C3048 1.523 . S
C3048 C3032 1.368 . S
C3048 C3044 1.368 . S
C3048 C3047 1.523 . S
H3049 C3024 0.950 . S
H3050 C3026 0.950 . S
H3051 C3027 0.949 . S
H3052 C3029 0.950 . S
H3053 C3031 0.950 . S
C3054 C3055 1.349 . S
C3054 C3056 1.327 . S
C3054 H3079 0.950 . S
C3055 C3054 1.349 . S
C3055 C3071 1.349 . S
C3056 C3054 1.327 . S
C3056 C3075 1.429 . S
C3056 H3080 0.950 . S
C3057 C3074 1.574 . S
C3057 C3076 1.368 . S
C3057 H3081 0.949 . S
H3058 C3062 0.949 . S
C3059 C3060 1.349 . S
C3059 C3061 1.327 . S
C3059 H3082 0.950 . S
C3060 C3059 1.349 . S
C3060 C3072 1.349 . S
C3061 C3059 1.327 . S
C3061 C3077 1.429 . S
C3061 H3083 0.950 . S
C3062 H3058 0.949 . S
C3062 C3070 1.574 . S
C3062 C3078 1.368 . S
H3063 C3071 0.950 . S
H3064 C3069 0.950 . S
H3065 C3070 0.949 . S
H3066 C3072 0.950 . S
H3067 C3073 0.950 . S
H3068 C3074 0.949 . S
C3069 H3064 0.950 . S
C3069 C3071 1.327 . S
C3069 C3075 1.429 . S
C3070 C3062 1.574 . S
C3070 H3065 0.949 . S
C3070 C3076 1.368 . S
C3071 C3055 1.349 . S
C3071 H3063 0.950 . S
C3071 C3069 1.327 . S
C3072 C3060 1.349 . S
C3072 H3066 0.950 . S
C3072 C3073 1.327 . S
C3073 H3067 0.950 . S
C3073 C3072 1.327 . S
C3073 C3077 1.429 . S
C3074 C3057 1.574 . S
C3074 H3068 0.949 . S
C3074 C3078 1.368 . S
C3075 C3056 1.429 . S
C3075 C3069 1.429 . S
C3075 C3076 1.523 . S
C3076 C3057 1.368 . S
C3076 C3070 1.368 . S
C3076 C3075 1.523 . S
C3077 C3061 1.429 . S
C3077 C3073 1.429 . S
C3077 C3078 1.523 . S
C3078 C3062 1.368 . S
C3078 C3074 1.368 . S
C3078 C3077 1.523 . S
H3079 C3054 0.950 . S
H3080 C3056 0.950 . S
H3081 C3057 0.949 . S
H3082 C3059 0.950 . S
H3083 C3061 0.950 . S
C3084 C3085 1.349 . S
C3084 C3086 1.327 . S
C3084 H3109 0.950 . S
C3085 C3084 1.349 . S
C3085 C3101 1.349 1_565 S
C3086 C3084 1.327 . S
C3086 C3105 1.429 . S
C3086 H3110 0.950 . S
C3087 C3104 1.585 . S
C3087 C3106 1.429 . S
C3087 H3111 0.887 1_565 S
H3088 C3092 0.949 . S
C3089 C3090 1.349 . S
C3089 C3091 1.327 . S
C3089 H3112 0.950 . S
C3090 C3089 1.349 . S
C3090 C3102 1.349 . S
C3091 C3089 1.327 . S
C3091 C3107 1.429 . S
C3091 H3113 0.970 . S
C3092 H3088 0.949 . S
C3092 C3100 1.574 . S
C3092 C3108 1.368 . S
H3093 C3101 0.950 . S
H3094 C3099 0.950 . S
H3095 C3100 0.949 . S
H3096 C3102 0.950 . S
H3097 C3103 0.950 . S
H3098 C3104 0.949 1_545 S
C3099 H3094 0.950 . S
C3099 C3101 1.327 . S
C3099 C3105 1.429 1_545 S
C3100 C3092 1.574 . S
C3100 H3095 0.949 . S
C3100 C3106 1.368 . S
C3101 C3085 1.349 1_545 S
C3101 H3093 0.950 . S
C3101 C3099 1.327 . S
C3102 C3090 1.349 . S
C3102 H3096 0.950 . S
C3102 C3103 1.327 . S
C3103 H3097 0.950 . S
C3103 C3102 1.327 . S
C3103 C3107 1.429 . S
C3104 C3087 1.585 . S
C3104 H3098 0.949 1_565 S
C3104 C3108 1.368 . S
C3105 C3086 1.429 . S
C3105 C3099 1.429 1_565 S
C3105 C3106 1.523 . S
C3106 C3087 1.429 . S
C3106 C3100 1.368 . S
C3106 C3105 1.523 . S
C3107 C3091 1.429 . S
C3107 C3103 1.429 . S
C3107 C3108 1.523 . S
C3108 C3092 1.368 . S
C3108 C3104 1.368 . S
C3108 C3107 1.523 . S
H3109 C3084 0.950 . S
H3110 C3086 0.950 . S
H3111 C3087 0.887 1_545 S
H3112 C3089 0.950 . S
H3113 C3091 0.970 . S
C3114 C3115 1.349 . S
C3114 C3116 1.327 . S
C3114 H3139 0.950 . S
C3115 C3114 1.349 . S
C3115 C3131 1.349 . S
C3116 C3114 1.327 . S
C3116 C3135 1.429 . S
C3116 H3140 0.950 . S
C3117 C3134 1.574 . S
C3117 C3136 1.368 . S
C3117 H3141 0.949 . S
H3118 C3122 0.949 . S
C3119 C3120 1.349 . S
C3119 C3121 1.327 . S
C3119 H3142 0.950 . S
C3120 C3119 1.349 . S
C3120 C3132 1.349 . S
C3121 C3119 1.327 . S
C3121 C3137 1.429 . S
C3121 H3143 0.950 . S
C3122 H3118 0.949 . S
C3122 C3130 1.574 . S
C3122 C3138 1.368 . S
H3123 C3131 0.989 . S
H3124 C3129 0.950 . S
H3125 C3130 0.949 . S
H3126 C3132 0.950 . S
H3127 C3133 0.950 . S
H3128 C3134 0.949 . S
C3129 H3124 0.950 . S
C3129 C3131 1.327 . S
C3129 C3135 1.429 . S
C3130 C3122 1.574 . S
C3130 H3125 0.949 . S
C3130 C3136 1.368 . S
C3131 C3115 1.349 . S
C3131 H3123 0.989 . S
C3131 C3129 1.327 . S
C3132 C3120 1.349 . S
C3132 H3126 0.950 . S
C3132 C3133 1.327 . S
C3133 H3127 0.950 . S
C3133 C3132 1.327 . S
C3133 C3137 1.429 . S
C3134 C3117 1.574 . S
C3134 H3128 0.949 . S
C3134 C3138 1.368 . S
C3135 C3116 1.429 . S
C3135 C3129 1.429 . S
C3135 C3136 1.523 . S
C3136 C3117 1.368 . S
C3136 C3130 1.368 . S
C3136 C3135 1.523 . S
C3137 C3121 1.429 . S
C3137 C3133 1.429 . S
C3137 C3138 1.523 . S
C3138 C3122 1.368 . S
C3138 C3134 1.368 . S
C3138 C3137 1.523 . S
H3139 C3114 0.950 . S
H3140 C3116 0.950 . S
H3141 C3117 0.949 . S
H3142 C3119 0.950 . S
H3143 C3121 0.950 . S
C3144 C3145 1.349 . S
C3144 C3146 1.327 . S
C3144 H3169 0.950 . S
C3145 C3144 1.349 . S
C3145 C3161 1.349 . S
C3146 C3144 1.327 . S
C3146 C3165 1.429 . S
C3146 H3170 0.950 . S
C3147 C3164 1.574 . S
C3147 C3166 1.368 . S
C3147 H3171 0.949 . S
H3148 C3152 0.949 . S
C3149 C3150 1.349 . S
C3149 C3151 1.327 . S
C3149 H3172 0.950 . S
C3150 C3149 1.349 . S
C3150 C3162 1.349 . S
C3151 C3149 1.327 . S
C3151 C3167 1.429 . S
C3151 H3173 0.950 . S
C3152 H3148 0.949 . S
C3152 C3160 1.574 . S
C3152 C3168 1.368 . S
H3153 C3161 0.950 . S
H3154 C3159 0.950 . S
H3155 C3160 0.949 . S
H3156 C3162 0.950 . S
H3157 C3163 0.950 . S
H3158 C3164 0.949 . S
C3159 H3154 0.950 . S
C3159 C3161 1.327 . S
C3159 C3165 1.429 . S
C3160 C3152 1.574 . S
C3160 H3155 0.949 . S
C3160 C3166 1.368 . S
C3161 C3145 1.349 . S
C3161 H3153 0.950 . S
C3161 C3159 1.327 . S
C3162 C3150 1.349 . S
C3162 H3156 0.950 . S
C3162 C3163 1.327 . S
C3163 H3157 0.950 . S
C3163 C3162 1.327 . S
C3163 C3167 1.429 . S
C3164 C3147 1.574 . S
C3164 H3158 0.949 . S
C3164 C3168 1.368 . S
C3165 C3146 1.429 . S
C3165 C3159 1.429 . S
C3165 C3166 1.523 . S
C3166 C3147 1.368 . S
C3166 C3160 1.368 . S
C3166 C3165 1.523 . S
C3167 C3151 1.429 . S
C3167 C3163 1.429 . S
C3167 C3168 1.523 . S
C3168 C3152 1.368 . S
C3168 C3164 1.368 . S
C3168 C3167 1.523 . S
H3169 C3144 0.950 . S
H3170 C3146 0.950 . S
H3171 C3147 0.949 . S
H3172 C3149 0.950 . S
H3173 C3151 0.950 . S
C3174 C3175 1.349 . S
C3174 C3176 1.327 . S
C3174 H3199 0.950 . S
C3175 C3174 1.349 . S
C3175 C3191 1.349 . S
C3176 C3174 1.327 . S
C3176 C3195 1.429 . S
C3176 H3200 0.950 . S
C3177 C3194 1.574 . S
C3177 C3196 1.368 . S
C3177 H3201 0.949 . S
H3178 C3182 0.949 . S
C3179 C3180 1.349 . S
C3179 C3181 1.327 . S
C3179 H3202 0.950 . S
C3180 C3179 1.349 . S
C3180 C3192 1.349 . S
C3181 C3179 1.327 . S
C3181 C3197 1.429 . S
C3181 H3203 0.950 . S
C3182 H3178 0.949 . S
C3182 C3190 1.574 . S
C3182 C3198 1.368 . S
H3183 C3191 0.950 1_556 S
H3184 C3189 0.950 . S
H3185 C3190 0.949 . S
H3186 C3192 0.950 . S
H3187 C3193 0.950 . S
H3188 C3194 0.949 . S
C3189 H3184 0.950 . S
C3189 C3191 1.327 . S
C3189 C3195 1.429 . S
C3190 C3182 1.574 . S
C3190 H3185 0.949 . S
C3190 C3196 1.368 . S
C3191 C3175 1.349 . S
C3191 H3183 0.950 1_554 S
C3191 C3189 1.327 . S
C3192 C3180 1.349 . S
C3192 H3186 0.950 . S
C3192 C3193 1.327 . S
C3193 H3187 0.950 . S
C3193 C3192 1.327 . S
C3193 C3197 1.429 . S
C3194 C3177 1.574 . S
C3194 H3188 0.949 . S
C3194 C3198 1.368 . S
C3195 C3176 1.429 . S
C3195 C3189 1.429 . S
C3195 C3196 1.523 . S
C3196 C3177 1.368 . S
C3196 C3190 1.368 . S
C3196 C3195 1.523 . S
C3197 C3181 1.429 . S
C3197 C3193 1.429 . S
C3197 C3198 1.523 . S
C3198 C3182 1.368 . S
C3198 C3194 1.368 . S
C3198 C3197 1.523 . S
H3199 C3174 0.950 . S
H3200 C3176 0.950 . S
H3201 C3177 0.949 . S
H3202 C3179 0.950 . S
H3203 C3181 0.950 . S
C3204 C3205 1.349 . S
C3204 C3206 1.327 . S
C3204 H3229 0.950 . S
C3205 C3204 1.349 . S
C3205 C3221 1.349 . S
C3206 C3204 1.327 . S
C3206 C3225 1.429 . S
C3206 H3230 0.950 . S
C3207 C3224 1.574 . S
C3207 C3226 1.368 . S
C3207 H3231 0.949 . S
H3208 C3212 0.949 . S
C3209 C3210 1.349 . S
C3209 C3211 1.327 . S
C3209 H3232 0.950 . S
C3210 C3209 1.349 . S
C3210 C3222 1.349 . S
C3211 C3209 1.327 . S
C3211 C3227 1.429 . S
C3211 H3233 0.950 . S
C3212 H3208 0.949 . S
C3212 C3220 1.574 . S
C3212 C3228 1.368 . S
H3213 C3221 0.950 . S
H3214 C3219 0.950 . S
H3215 C3220 0.949 . S
H3216 C3222 0.950 . S
H3217 C3223 0.950 . S
H3218 C3224 0.949 . S
C3219 H3214 0.950 . S
C3219 C3221 1.327 . S
C3219 C3225 1.429 . S
C3220 C3212 1.574 . S
C3220 H3215 0.949 . S
C3220 C3226 1.368 . S
C3221 C3205 1.349 . S
C3221 H3213 0.950 . S
C3221 C3219 1.327 . S
C3222 C3210 1.349 . S
C3222 H3216 0.950 . S
C3222 C3223 1.327 . S
C3223 H3217 0.950 . S
C3223 C3222 1.327 . S
C3223 C3227 1.429 . S
C3224 C3207 1.574 . S
C3224 H3218 0.949 . S
C3224 C3228 1.368 . S
C3225 C3206 1.429 . S
C3225 C3219 1.429 . S
C3225 C3226 1.523 . S
C3226 C3207 1.368 . S
C3226 C3220 1.368 . S
C3226 C3225 1.523 . S
C3227 C3211 1.429 . S
C3227 C3223 1.429 . S
C3227 C3228 1.523 . S
C3228 C3212 1.368 . S
C3228 C3224 1.368 . S
C3228 C3227 1.523 . S
H3229 C3204 0.950 . S
H3230 C3206 0.950 . S
H3231 C3207 0.949 . S
H3232 C3209 0.950 . S
H3233 C3211 0.950 . S
C3234 C3235 1.349 . S
C3234 C3236 1.327 . S
C3234 H3259 0.950 . S
C3235 C3234 1.349 . S
C3235 C3251 1.349 1_556 S
C3236 C3234 1.327 . S
C3236 C3255 1.429 . S
C3236 H3260 0.950 . S
C3237 C3254 1.574 . S
C3237 C3256 1.368 . S
C3237 H3261 0.949 1_556 S
H3238 C3242 0.949 . S
C3239 C3240 1.349 . S
C3239 C3241 1.327 . S
C3239 H3262 0.950 . S
C3240 C3239 1.349 . S
C3240 C3252 1.349 . S
C3241 C3239 1.327 . S
C3241 C3257 1.429 . S
C3241 H3263 0.950 . S
C3242 H3238 0.949 . S
C3242 C3250 1.574 . S
C3242 C3258 1.368 . S
H3243 C3251 0.950 . S
H3244 C3249 0.950 . S
H3245 C3250 0.949 . S
H3246 C3252 0.950 . S
H3247 C3253 0.950 . S
H3248 C3254 0.969 . S
C3249 H3244 0.950 . S
C3249 C3251 1.327 . S
C3249 C3255 1.429 1_554 S
C3250 C3242 1.574 . S
C3250 H3245 0.949 . S
C3250 C3256 1.368 . S
C3251 C3235 1.349 1_554 S
C3251 H3243 0.950 . S
C3251 C3249 1.327 . S
C3252 C3240 1.349 . S
C3252 H3246 0.950 . S
C3252 C3253 1.327 . S
C3253 H3247 0.950 . S
C3253 C3252 1.327 . S
C3253 C3257 1.429 . S
C3254 C3237 1.574 . S
C3254 H3248 0.969 . S
C3254 C3258 1.368 . S
C3255 C3236 1.429 . S
C3255 C3249 1.429 1_556 S
C3255 C3256 1.523 . S
C3256 C3237 1.368 . S
C3256 C3250 1.368 . S
C3256 C3255 1.523 . S
C3257 C3241 1.429 . S
C3257 C3253 1.429 . S
C3257 C3258 1.523 . S
C3258 C3242 1.368 . S
C3258 C3254 1.368 . S
C3258 C3257 1.523 . S
H3259 C3234 0.950 . S
H3260 C3236 0.950 . S
H3261 C3237 0.949 1_554 S
H3262 C3239 0.950 . S
H3263 C3241 0.950 . S
C3264 C3265 1.349 . S
C3264 C3266 1.327 . S
C3264 H3289 0.950 . S
C3265 C3264 1.349 . S
C3265 C3281 1.349 . S
C3266 C3264 1.327 . S
C3266 C3285 1.429 . S
C3266 H3290 0.950 . S
C3267 C3284 1.574 . S
C3267 C3286 1.368 . S
C3267 H3291 0.949 . S
H3268 C3272 0.949 . S
C3269 C3270 1.349 . S
C3269 C3271 1.327 . S
C3269 H3292 0.950 . S
C3270 C3269 1.349 . S
C3270 C3282 1.349 . S
C3271 C3269 1.327 . S
C3271 C3287 1.429 . S
C3271 H3293 0.950 . S
C3272 H3268 0.949 . S
C3272 C3280 1.574 . S
C3272 C3288 1.368 . S
H3273 C3281 0.950 . S
H3274 C3279 0.950 . S
H3275 C3280 0.949 . S
H3276 C3282 0.950 . S
H3277 C3283 0.950 . S
H3278 C3284 0.949 . S
C3279 H3274 0.950 . S
C3279 C3281 1.327 . S
C3279 C3285 1.429 . S
C3280 C3272 1.574 . S
C3280 H3275 0.949 . S
C3280 C3286 1.368 . S
C3281 C3265 1.349 . S
C3281 H3273 0.950 . S
C3281 C3279 1.327 . S
C3282 C3270 1.349 . S
C3282 H3276 0.950 . S
C3282 C3283 1.327 . S
C3283 H3277 0.950 . S
C3283 C3282 1.327 . S
C3283 C3287 1.429 . S
C3284 C3267 1.574 . S
C3284 H3278 0.949 . S
C3284 C3288 1.368 . S
C3285 C3266 1.429 . S
C3285 C3279 1.429 . S
C3285 C3286 1.523 . S
C3286 C3267 1.368 . S
C3286 C3280 1.368 . S
C3286 C3285 1.523 . S
C3287 C3271 1.429 . S
C3287 C3283 1.429 . S
C3287 C3288 1.523 . S
C3288 C3272 1.368 . S
C3288 C3284 1.368 . S
C3288 C3287 1.523 . S
H3289 C3264 0.950 . S
H3290 C3266 0.950 . S
H3291 C3267 0.949 . S
H3292 C3269 0.950 . S
H3293 C3271 0.950 . S
C3294 C3295 1.349 . S
C3294 C3296 1.327 . S
C3294 H3319 0.950 . S
C3295 C3294 1.349 . S
C3295 C3311 1.349 . S
C3296 C3294 1.327 . S
C3296 C3315 1.429 . S
C3296 H3320 0.950 . S
C3297 C3314 1.574 . S
C3297 C3316 1.368 . S
C3297 H3321 0.949 . S
H3298 C3302 0.949 . S
C3299 C3300 1.349 . S
C3299 C3301 1.327 . S
C3299 H3322 0.950 . S
C3300 C3299 1.349 . S
C3300 C3312 1.349 . S
C3301 C3299 1.327 . S
C3301 C3317 1.429 . S
C3301 H3323 0.950 . S
C3302 H3298 0.949 . S
C3302 C3310 1.574 . S
C3302 C3318 1.368 . S
H3303 C3311 0.950 1_655 S
H3304 C3309 0.916 1_655 S
H3305 C3310 0.949 . S
H3306 C3312 0.950 . S
H3307 C3313 0.950 . S
H3308 C3314 0.949 . S
C3309 H3304 0.916 1_455 S
C3309 C3311 1.327 . S
C3309 C3315 1.429 . S
C3310 C3302 1.574 . S
C3310 H3305 0.949 . S
C3310 C3316 1.368 . S
C3311 C3295 1.349 . S
C3311 H3303 0.950 1_455 S
C3311 C3309 1.327 . S
C3312 C3300 1.349 . S
C3312 H3306 0.950 . S
C3312 C3313 1.327 . S
C3313 H3307 0.950 . S
C3313 C3312 1.327 . S
C3313 C3317 1.429 . S
C3314 C3297 1.574 . S
C3314 H3308 0.949 . S
C3314 C3318 1.368 . S
C3315 C3296 1.429 . S
C3315 C3309 1.429 . S
C3315 C3316 1.523 . S
C3316 C3297 1.368 . S
C3316 C3310 1.368 . S
C3316 C3315 1.523 . S
C3317 C3301 1.429 . S
C3317 C3313 1.429 . S
C3317 C3318 1.523 . S
C3318 C3302 1.368 . S
C3318 C3314 1.368 . S
C3318 C3317 1.523 . S
H3319 C3294 0.950 . S
H3320 C3296 0.950 . S
H3321 C3297 0.949 . S
H3322 C3299 0.950 . S
H3323 C3301 0.950 . S
C3324 C3325 1.349 . S
C3324 C3326 1.327 . S
C3324 H3349 0.950 . S
C3325 C3324 1.349 . S
C3325 C3341 1.349 . S
C3326 C3324 1.327 . S
C3326 C3345 1.429 . S
C3326 H3350 0.950 . S
C3327 C3344 1.574 . S
C3327 C3346 1.368 . S
C3327 H3351 0.949 . S
H3328 C3332 0.949 . S
C3329 C3330 1.349 . S
C3329 C3331 1.327 . S
C3329 H3352 0.950 . S
C3330 C3329 1.349 . S
C3330 C3342 1.349 . S
C3331 C3329 1.327 . S
C3331 C3347 1.429 . S
C3331 H3353 0.950 . S
C3332 H3328 0.949 . S
C3332 C3340 1.574 . S
C3332 C3348 1.368 . S
H3333 C3341 0.950 . S
H3334 C3339 0.950 . S
H3335 C3340 0.949 . S
H3336 C3342 0.950 . S
H3337 C3343 0.950 . S
H3338 C3344 0.949 . S
C3339 H3334 0.950 . S
C3339 C3341 1.327 . S
C3339 C3345 1.429 . S
C3340 C3332 1.574 . S
C3340 H3335 0.949 . S
C3340 C3346 1.368 . S
C3341 C3325 1.349 . S
C3341 H3333 0.950 . S
C3341 C3339 1.327 . S
C3342 C3330 1.349 . S
C3342 H3336 0.950 . S
C3342 C3343 1.327 . S
C3343 H3337 0.950 . S
C3343 C3342 1.327 . S
C3343 C3347 1.429 . S
C3344 C3327 1.574 . S
C3344 H3338 0.949 . S
C3344 C3348 1.368 . S
C3345 C3326 1.429 . S
C3345 C3339 1.429 . S
C3345 C3346 1.523 . S
C3346 C3327 1.368 . S
C3346 C3340 1.368 . S
C3346 C3345 1.523 . S
C3347 C3331 1.429 . S
C3347 C3343 1.429 . S
C3347 C3348 1.523 . S
C3348 C3332 1.368 . S
C3348 C3344 1.368 . S
C3348 C3347 1.523 . S
H3349 C3324 0.950 . S
H3350 C3326 0.950 . S
H3351 C3327 0.949 . S
H3352 C3329 0.950 . S
H3353 C3331 0.950 . S
C3354 C3355 1.349 1_455 S
C3354 C3356 1.327 . S
C3354 H3379 0.950 . S
C3355 C3354 1.349 1_655 S
C3355 C3371 1.349 . S
C3356 C3354 1.327 . S
C3356 C3375 1.429 1_455 S
C3356 H3380 0.949 . S
C3357 C3374 1.574 . S
C3357 C3376 1.368 . S
C3357 H3381 0.949 . S
H3358 C3362 0.949 . S
C3359 C3360 1.349 . S
C3359 C3361 1.327 . S
C3359 H3382 0.950 . S
C3360 C3359 1.349 . S
C3360 C3372 1.349 . S
C3361 C3359 1.327 . S
C3361 C3377 1.429 . S
C3361 H3383 0.950 . S
C3362 H3358 0.949 . S
C3362 C3370 1.574 . S
C3362 C3378 1.368 . S
H3363 C3371 0.950 . S
H3364 C3369 0.950 . S
H3365 C3370 0.949 1_455 S
H3366 C3372 0.950 . S
H3367 C3373 0.950 . S
H3368 C3374 0.949 . S
C3369 H3364 0.950 . S
C3369 C3371 1.327 . S
C3369 C3375 1.429 . S
C3370 C3362 1.574 . S
C3370 H3365 0.949 1_655 S
C3370 C3376 1.368 . S
C3371 C3355 1.349 . S
C3371 H3363 0.950 . S
C3371 C3369 1.327 . S
C3372 C3360 1.349 . S
C3372 H3366 0.950 . S
C3372 C3373 1.327 . S
C3373 H3367 0.950 . S
C3373 C3372 1.327 . S
C3373 C3377 1.429 . S
C3374 C3357 1.574 . S
C3374 H3368 0.949 . S
C3374 C3378 1.368 . S
C3375 C3356 1.429 1_655 S
C3375 C3369 1.429 . S
C3375 C3376 1.523 . S
C3376 C3357 1.368 . S
C3376 C3370 1.368 . S
C3376 C3375 1.523 . S
C3377 C3361 1.429 . S
C3377 C3373 1.429 . S
C3377 C3378 1.523 . S
C3378 C3362 1.368 . S
C3378 C3374 1.368 . S
C3378 C3377 1.523 . S
H3379 C3354 0.950 . S
H3380 C3356 0.949 . S
H3381 C3357 0.949 . S
H3382 C3359 0.950 . S
H3383 C3361 0.950 . S
C1230 C1186 1.969 . S
C1225 C8 1.994 . S
C1260 C1066 1.414 . S
C1255 C19 1.392 . S
C1290 C1146 1.309 . S
C1285 C30 1.328 . S
C1320 C1106 2.182 . S
C1315 C41 2.167 . S
C1350 C826 1.969 . S
C1345 C52 1.994 . S
C1375 C63 2.161 . S
C1380 C866 2.188 . S
C1410 C746 1.414 . S
C1405 C74 1.392 . S
C1435 C85 1.330 . S
C1440 C786 1.305 . S
C1470 C1026 1.969 . S
C1465 C96 1.994 . S
C1495 C107 2.161 . S
C1500 C946 2.188 . S
C1525 C118 1.392 . S
C1530 C906 1.414 . S
C1560 C986 1.309 . S
C1555 C129 1.328 . S
C1590 C706 1.997 . S
C1585 C140 1.976 . S
C1615 C151 1.359 . S
C1620 C586 1.414 . S
C1650 C666 1.335 . S
C1645 C162 1.309 . S
C1675 C173 2.110 . S
C1680 C626 2.193 . S
C1710 C346 1.997 . S
C1705 C184 1.976 . S
C1740 C386 2.187 . S
C1735 C195 2.117 . S
C1765 C206 1.359 . S
C1770 C266 1.414 . S
C1795 C217 1.310 . S
C1800 C306 1.332 . S
C1825 C228 1.967 . S
C1830 C546 2.006 . S
C1855 C239 2.110 . S
C1860 C466 2.193 . S
C1890 C426 1.414 . S
C1885 C250 1.359 . S
C1915 C261 1.310 . S
C1920 C506 1.332 . S
C1950 C285 1.090 . S
C1945 C7 1.101 . S
C1980 C325 1.004 . S
C1975 C18 1.017 . S
C2005 C29 1.001 . S
C2010 C365 1.000 . S
C2035 C40 0.609 . S
C2040 C405 0.607 . S
C2070 C445 1.090 . S
C2065 C51 1.101 . S
C2095 C62 0.609 . S
C2100 C485 0.607 . S
C2130 C525 1.004 . S
C2125 C73 1.017 . S
C2160 C565 1.000 . S
C2155 C84 1.000 . S
C2190 C605 1.090 . S
C2185 C95 1.101 . S
C2215 C106 0.609 . S
C2220 C645 0.607 . S
C2245 C117 1.017 . S
C2250 C685 1.004 . S
C2275 C128 1.000 . S
C2280 C725 1.000 . S
C2305 C139 1.043 . S
C2310 C765 1.074 . S
C2335 C150 0.945 . S
C2340 C805 0.974 . S
C2365 C161 0.950 . S
C2370 C845 0.976 . S
C2395 C172 0.652 . S
C2400 C885 0.622 . S
C2425 C183 1.043 . S
C2430 C925 1.074 . S
C2460 C965 0.622 . S
C2455 C194 0.652 . S
C2490 C1005 0.974 . S
C2485 C205 0.945 . S
C2520 C1045 0.976 . S
C2515 C216 0.950 . S
C2550 C1085 1.074 . S
C2545 C227 1.043 . S
C2575 C238 0.652 . S
C2580 C1125 0.622 . S
C2605 C249 0.945 . S
C2610 C1165 0.974 . S
C2635 C260 0.950 . S
C2640 C1205 0.976 . S
C2665 C5 1.428 . S
C2670 C599 1.662 . S
C2700 C719 1.497 . S
C2695 C16 1.292 . S
C2725 C27 1.132 1_545 S
C2730 C639 1.254 . S
C2760 C679 2.186 . S
C2755 C38 1.949 1_565 S
C2785 C49 1.428 . S
C2790 C279 1.662 . S
C2815 C60 1.953 1_556 S
C2820 C319 2.184 . S
C2845 C71 1.299 . S
C2850 C359 1.488 . S
C2875 C82 1.132 1_554 S
C2880 C399 1.254 . S
C2910 C439 1.662 . S
C2905 C93 1.428 . S
C2940 C519 2.186 . S
C2935 C104 1.949 1_655 S
C2965 C115 1.299 . S
C2970 C559 1.488 . S
C2995 C126 1.132 1_455 S
C3000 C479 1.254 . S
C3030 C1079 1.658 . S
C3025 C137 1.310 . S
C3060 C1199 1.491 . S
C3055 C148 1.090 . S
C3085 C159 1.011 . S
C3090 C1119 1.250 . S
C3120 C1159 2.178 . S
C3115 C170 1.637 . S
C3145 C181 1.310 . S
C3150 C759 1.658 . S
C3175 C192 1.636 . S
C3180 C799 2.176 . S
C3205 C203 1.098 . S
C3210 C839 1.483 . S
C3240 C879 1.262 . S
C3235 C214 1.007 . S
C3270 C919 1.658 . S
C3265 C225 1.310 . S
C3300 C999 2.178 . S
C3295 C236 1.637 . S
C3325 C247 1.098 . S
C3330 C1039 1.483 . S
C3360 C959 1.262 . S
C3355 C258 1.007 . S
