# Generated by pormake.
# Topology pth, (4,4)-cn, num edge types: 1
# Building blocks:
#     Node 0, Type 0, BuildingBlock: QUQFOY_clean_sbu_3, # of connection points: 4
#     Node 1, Type 0, BuildingBlock: QUQFOY_clean_sbu_3, # of connection points: 4
#     Node 2, Type 0, BuildingBlock: QUQFOY_clean_sbu_3, # of connection points: 4
#     Node 3, Type 1, BuildingBlock: MUDLON_clean_sbu_0, # of connection points: 4
#     Node 4, Type 1, BuildingBlock: MUDLON_clean_sbu_0, # of connection points: 4
#     Node 5, Type 1, BuildingBlock: MUDLON_clean_sbu_0, # of connection points: 4
#     Edge 6, Type (0, 1), BuildingBlock: XUDNAN_clean_linker_2, # of connection points: 2
#     Edge 7, Type (0, 1), BuildingBlock: XUDNAN_clean_linker_2, # of connection points: 2
#     Edge 8, Type (0, 1), BuildingBlock: XUDNAN_clean_linker_2, # of connection points: 2
#     Edge 9, Type (0, 1), BuildingBlock: XUDNAN_clean_linker_2, # of connection points: 2
#     Edge 10, Type (0, 1), BuildingBlock: XUDNAN_clean_linker_2, # of connection points: 2
#     Edge 11, Type (0, 1), BuildingBlock: XUDNAN_clean_linker_2, # of connection points: 2
#     Edge 12, Type (0, 1), BuildingBlock: XUDNAN_clean_linker_2, # of connection points: 2
#     Edge 13, Type (0, 1), BuildingBlock: XUDNAN_clean_linker_2, # of connection points: 2
#     Edge 14, Type (0, 1), BuildingBlock: XUDNAN_clean_linker_2, # of connection points: 2
#     Edge 15, Type (0, 1), BuildingBlock: XUDNAN_clean_linker_2, # of connection points: 2
#     Edge 16, Type (0, 1), BuildingBlock: XUDNAN_clean_linker_2, # of connection points: 2
#     Edge 17, Type (0, 1), BuildingBlock: XUDNAN_clean_linker_2, # of connection points: 2
# Relax obj value: 0.015
# Max RMSD: 0.070
# Mean RMSD: 0.054
data_MOF--net-pth--node1-QUQFOY_clean_sbu_3--node2-MUDLON_clean_sbu_0--edge1-XUDNAN_clean_linker_2
_symmetry_space_group_name_H-M    P1
_symmetry_Int_Tables_number       1
_symmetry_cell_setting            triclinic
loop_
_symmetry_equiv_pos_as_xyz
'x, y, z'
_cell_length_a     22.941919
_cell_length_b     22.783168
_cell_length_c     61.401952
_cell_angle_alpha  90.192344
_cell_angle_beta   90.801931
_cell_angle_gamma 120.68517
loop_
_atom_site_label
_atom_site_type_symbol
_atom_site_fract_x
_atom_site_fract_y
_atom_site_fract_z
_atom_type_partial_charge
C0 C 0.96586 0.21448 0.10238 0.0
O1 O 0.93107 0.19563 0.08477 0.0
Cd2 Cd 0.93516 0.11652 0.05944 0.0
O3 O 0.99873 0.18606 0.10843 0.0
Cd4 Cd 0.01612 0.09237 0.09651 0.0
C5 C 0.10922 0.19996 0.05666 0.0
O6 O 0.91207 0.0122 0.07582 0.0
O7 O 1.00023 0.00135 0.0724 0.0
O8 O 0.97375 0.05145 0.13243 0.0
C9 C 0.93804 0.97878 0.06821 0.0
O10 O 0.0514 0.17962 0.04781 0.0
C11 C 0.01677 0.03433 0.13752 0.0
O12 O 0.11427 0.18034 0.07573 0.0
O13 O 0.06336 0.04791 0.12393 0.0
C14 C 0.1886 0.15078 0.45688 0.0
O15 O 0.23008 0.20378 0.44665 0.0
Cd16 Cd 0.18972 0.21576 0.41087 0.0
O17 O 0.12755 0.11611 0.45022 0.0
Cd18 Cd 0.0554 0.12809 0.42318 0.0
C19 C 0.1174 0.05323 0.39188 0.0
O20 O 0.09796 0.23727 0.40342 0.0
O21 O 0.01547 0.14207 0.38924 0.0
O22 O 0.02935 0.18128 0.45162 0.0
C23 C 0.05082 0.20685 0.38893 0.0
O24 O 0.16675 0.11441 0.3915 0.0
C25 C 0.96723 0.13603 0.45337 0.0
O26 O 0.06541 0.0379 0.4033 0.0
O27 O 0.94455 0.0826 0.44131 0.0
C28 C 0.94092 0.11481 0.73008 0.0
O29 O 0.98987 0.17621 0.73094 0.0
Cd30 Cd 0.04511 0.14737 0.76039 0.0
O31 O 0.94645 0.07138 0.74136 0.0
Cd32 Cd 0.06088 0.10855 0.75983 0.0
C33 C 0.94102 0.02868 0.78999 0.0
O34 O 0.13543 0.21713 0.78351 0.0
O35 O 0.12933 0.12113 0.79125 0.0
O36 O 0.12077 0.15914 0.72653 0.0
C37 C 0.15547 0.1845 0.79535 0.0
O38 O 0.95473 0.08906 0.78637 0.0
C39 C 0.14198 0.11793 0.72377 0.0
O40 O 0.97621 0.00802 0.78039 0.0
O41 O 0.12287 0.06954 0.73739 0.0
Mg42 Mg 0.01592 0.60566 0.25363 0.0
C43 C 0.019 0.51335 0.28404 0.0
O44 O 0.08182 0.56071 0.28001 0.0
C45 C 0.94716 0.69146 0.24624 0.0
O46 O 0.95321 0.70176 0.26739 0.0
C47 C 0.00558 0.54606 0.21145 0.0
O48 O 0.94712 0.54132 0.21516 0.0
O49 O 0.05272 0.57432 0.22584 0.0
O50 O 0.97112 0.51587 0.27415 0.0
O51 O 0.08339 0.6881 0.27594 0.0
C52 C 0.05391 0.68451 0.29376 0.0
O53 O 0.99325 0.63144 0.29684 0.0
O54 O 0.95972 0.64804 0.23786 0.0
Mg55 Mg 0.55543 0.12366 0.58986 0.0
C56 C 0.40892 0.03893 0.57393 0.0
O57 O 0.39511 0.04333 0.59434 0.0
C58 C 0.58721 0.03207 0.62121 0.0
O59 O 0.52697 0.97897 0.61687 0.0
C60 C 0.49366 0.1466 0.62762 0.0
O61 O 0.50144 0.09516 0.63284 0.0
O62 O 0.51791 0.17675 0.6097 0.0
O63 O 0.46927 0.05667 0.56896 0.0
O64 O 0.63419 0.17592 0.56606 0.0
C65 C 0.63717 0.13091 0.55452 0.0
O66 O 0.59371 0.06625 0.55828 0.0
O67 O 0.6053 0.08865 0.61213 0.0
Mg68 Mg 0.55367 0.60984 0.92903 0.0
C69 C 0.49055 0.46394 0.90907 0.0
O70 O 0.49989 0.44532 0.92842 0.0
C71 C 0.64714 0.61321 0.96509 0.0
O72 O 0.59205 0.55898 0.97191 0.0
C73 C 0.42119 0.53397 0.95253 0.0
O74 O 0.39986 0.50685 0.93302 0.0
O75 O 0.48099 0.58478 0.95483 0.0
O76 O 0.51151 0.5264 0.90556 0.0
O77 O 0.58605 0.6982 0.90858 0.0
C78 C 0.62903 0.69922 0.89543 0.0
O79 O 0.64292 0.65001 0.89654 0.0
O80 O 0.64664 0.63716 0.94649 0.0
H81 H 0.02616 0.26101 0.14284 0.0
H82 H 0.91806 0.29878 0.09132 0.0
H83 H 0.92998 0.39698 0.11221 0.0
H84 H 0.95082 0.29813 0.1868 0.0
H85 H 0.02652 0.33801 0.20368 0.0
H86 H 0.01369 0.27361 0.184 0.0
H87 H 0.12904 0.35803 0.16681 0.0
H88 H 0.14178 0.42304 0.18632 0.0
H89 H 0.14469 0.43978 0.15756 0.0
H90 H 0.94729 0.48607 0.13904 0.0
H91 H 0.96112 0.5558 0.17163 0.0
H92 H 0.05936 0.46305 0.20613 0.0
C93 C 0.00532 0.29016 0.13588 0.0
C94 C 0.97126 0.27214 0.11536 0.0
C95 C 0.94423 0.31134 0.10698 0.0
C96 C 0.9512 0.36758 0.11866 0.0
C97 C 0.98541 0.38418 0.1387 0.0
C98 C 0.01163 0.34646 0.14737 0.0
C99 C 0.04241 0.3729 0.16989 0.0
C100 C 0.00618 0.31737 0.18711 0.0
C101 C 0.11904 0.40005 0.17015 0.0
C102 C 0.02805 0.43051 0.17271 0.0
C103 C 0.99588 0.43646 0.15433 0.0
C104 C 0.97323 0.48259 0.15339 0.0
C105 C 0.98147 0.52208 0.17194 0.0
C106 C 0.01234 0.51553 0.19116 0.0
C107 C 0.03757 0.47048 0.19139 0.0
H108 H 0.83696 0.04484 0.4668 0.0
H109 H 1.00058 0.2555 0.47375 0.0
H110 H 0.93142 0.27921 0.49843 0.0
H111 H 0.69796 0.07857 0.46849 0.0
H112 H 0.64464 0.00409 0.48434 0.0
H113 H 0.70557 0.00385 0.46619 0.0
H114 H 0.75882 0.97218 0.49821 0.0
H115 H 0.69784 0.97196 0.51639 0.0
H116 H 0.7872 0.02507 0.52245 0.0
H117 H 0.84578 0.28045 0.52306 0.0
H118 H 0.75148 0.2559 0.54765 0.0
H119 H 0.64477 0.0448 0.52529 0.0
C120 C 0.85796 0.09596 0.47342 0.0
C121 C 0.92416 0.14822 0.46828 0.0
C122 C 0.95006 0.21441 0.47746 0.0
C123 C 0.91107 0.22864 0.49144 0.0
C124 C 0.84615 0.17618 0.49623 0.0
C125 C 0.81982 0.11105 0.48763 0.0
C126 C 0.74974 0.06326 0.49626 0.0
C127 C 0.69633 0.03584 0.47771 0.0
C128 C 0.74836 0.00468 0.5091 0.0
C129 C 0.74135 0.11161 0.51114 0.0
C130 C 0.79719 0.17668 0.51073 0.0
C131 C 0.80156 0.22969 0.52349 0.0
C132 C 0.74777 0.21541 0.53735 0.0
C133 C 0.69087 0.14857 0.53841 0.0
C134 C 0.68756 0.09652 0.52487 0.0
H135 H 0.90473 0.90079 0.805 0.0
H136 H 0.85345 0.05939 0.80938 0.0
H137 H 0.76479 0.99095 0.83576 0.0
H138 H 0.73234 0.75649 0.80949 0.0
H139 H 0.75809 0.70764 0.82577 0.0
H140 H 0.81551 0.76784 0.80638 0.0
H141 H 0.90616 0.82857 0.83705 0.0
H142 H 0.84902 0.76866 0.85652 0.0
H143 H 0.88497 0.85895 0.86109 0.0
H144 H 0.68424 0.90698 0.86302 0.0
H145 H 0.61857 0.8133 0.88884 0.0
H146 H 0.72275 0.71067 0.86637 0.0
C147 C 0.87442 0.92079 0.81134 0.0
C148 C 0.88607 0.98539 0.80508 0.0
C149 C 0.84558 0.00999 0.81392 0.0
C150 C 0.79492 0.97148 0.82891 0.0
C151 C 0.78514 0.90831 0.83492 0.0
C152 C 0.82362 0.88303 0.82638 0.0
C153 C 0.80425 0.81461 0.83604 0.0
C154 C 0.77585 0.75833 0.81837 0.0
C155 C 0.8647 0.81794 0.84841 0.0
C156 C 0.74951 0.80583 0.85146 0.0
C157 C 0.7389 0.86018 0.85056 0.0
C158 C 0.69179 0.86386 0.86378 0.0
C159 C 0.65476 0.81055 0.87839 0.0
C160 C 0.66536 0.75465 0.87962 0.0
C161 C 0.71312 0.75249 0.86583 0.0
H162 H 0.05091 0.9366 0.14376 0.0
H163 H 0.95777 0.03822 0.17525 0.0
H164 H 0.92716 0.9598 0.20636 0.0
H165 H 0.92466 0.76917 0.15823 0.0
H166 H 0.98242 0.73846 0.16242 0.0
H167 H 0.00286 0.80633 0.14353 0.0
H168 H 0.11664 0.88396 0.1641 0.0
H169 H 0.09711 0.81582 0.18279 0.0
H170 H 0.11637 0.89821 0.19299 0.0
H171 H 0.90543 0.86904 0.23386 0.0
H172 H 0.89585 0.77367 0.25585 0.0
H173 H 0.99514 0.72615 0.20492 0.0
C174 C 0.02561 0.94335 0.15747 0.0
C175 C 0.00764 0.99409 0.15732 0.0
C176 C 0.97258 5e-05 0.1752 0.0
C177 C 0.95478 0.95562 0.19288 0.0
C178 C 0.97151 0.90485 0.19227 0.0
C179 C 0.00621 0.89849 0.17504 0.0
C180 C 0.0152 0.83754 0.1779 0.0
C181 C 0.97912 0.78477 0.15942 0.0
C182 C 0.09082 0.86025 0.17955 0.0
C183 C 0.98028 0.81076 0.19941 0.0
C184 C 0.95581 0.8505 0.20752 0.0
C185 C 0.92398 0.83725 0.2276 0.0
C186 C 0.91845 0.78285 0.23992 0.0
C187 C 0.9437 0.74185 0.23197 0.0
C188 C 0.97389 0.75552 0.21126 0.0
H189 H 0.31657 0.17631 0.46778 0.0
H190 H 0.10806 0.06932 0.48912 0.0
H191 H 0.13997 0.0218 0.51997 0.0
H192 H 0.35013 0.0415 0.48086 0.0
H193 H 0.43623 0.09893 0.4899 0.0
H194 H 0.39766 0.12574 0.46953 0.0
H195 H 0.42394 0.23099 0.4933 0.0
H196 H 0.46351 0.20504 0.51355 0.0
H197 H 0.39562 0.2187 0.52105 0.0
H198 H 0.19514 0.98967 0.54944 0.0
H199 H 0.27087 0.97702 0.57565 0.0
H200 H 0.44151 0.09804 0.53386 0.0
C201 C 0.27785 0.1434 0.47907 0.0
C202 C 0.20992 0.12685 0.47612 0.0
C203 C 0.16046 0.08275 0.49106 0.0
C204 C 0.178 0.0553 0.50861 0.0
C205 C 0.2451 0.07163 0.51088 0.0
C206 C 0.29428 0.11457 0.49653 0.0
C207 C 0.36266 0.12373 0.50268 0.0
C208 C 0.38814 0.0958 0.48467 0.0
C209 C 0.41447 0.19908 0.50797 0.0
C210 C 0.34434 0.08016 0.52289 0.0
C211 C 0.27627 0.05054 0.52735 0.0
C212 C 0.24838 0.01177 0.54597 0.0
C213 C 0.29161 0.00459 0.56071 0.0
C214 C 0.36169 0.03534 0.55661 0.0
C215 C 0.38782 0.07222 0.53717 0.0
H216 H 0.23047 0.32098 0.80773 0.0
H217 H 0.19669 0.12023 0.82336 0.0
H218 H 0.28204 0.17038 0.85289 0.0
H219 H 0.41218 0.41352 0.81825 0.0
H220 H 0.41364 0.48663 0.83021 0.0
H221 H 0.35014 0.43552 0.80986 0.0
H222 H 0.25541 0.41673 0.83641 0.0
H223 H 0.31864 0.46809 0.85676 0.0
H224 H 0.25304 0.38236 0.86301 0.0
H225 H 0.3679 0.24055 0.88166 0.0
H226 H 0.44911 0.32776 0.90783 0.0
H227 H 0.43034 0.48336 0.87319 0.0
C228 C 0.24113 0.28771 0.81736 0.0
C229 C 0.20673 0.21666 0.81318 0.0
C230 C 0.22224 0.17484 0.82618 0.0
C231 C 0.27082 0.20278 0.84302 0.0
C232 C 0.30394 0.27282 0.84671 0.0
C233 C 0.28995 0.31487 0.83429 0.0
C234 C 0.33245 0.38843 0.84199 0.0
C235 C 0.37992 0.43368 0.824 0.0
C236 C 0.28718 0.41547 0.85002 0.0
C237 C 0.37193 0.38076 0.86068 0.0
C238 C 0.35467 0.31364 0.86313 0.0
C239 C 0.38234 0.29348 0.87983 0.0
C240 C 0.42841 0.34329 0.8946 0.0
C241 C 0.44659 0.41237 0.89247 0.0
C242 C 0.41838 0.43114 0.87509 0.0
H243 H 0.91664 0.1878 0.69893 0.0
H244 H 0.82733 0.9887 0.72903 0.0
H245 H 0.72814 0.94549 0.70438 0.0
H246 H 0.75828 0.18603 0.6906 0.0
H247 H 0.78284 0.22822 0.66473 0.0
H248 H 0.84652 0.24432 0.68518 0.0
H249 H 0.90821 0.20924 0.65761 0.0
H250 H 0.84443 0.19255 0.63714 0.0
H251 H 0.86232 0.12666 0.64439 0.0
H252 H 0.63909 0.92223 0.67591 0.0
H253 H 0.56501 0.92297 0.64636 0.0
H254 H 0.71196 0.13632 0.6347 0.0
C255 C 0.87595 0.13535 0.70045 0.0
C256 C 0.87999 0.09177 0.71593 0.0
C257 C 0.82569 0.02323 0.71729 0.0
C258 C 0.76896 0.99801 0.70334 0.0
C259 C 0.76691 0.04183 0.68807 0.0
C260 C 0.81869 0.10913 0.68658 0.0
C261 C 0.80381 0.14515 0.66857 0.0
C262 C 0.79747 0.20443 0.67783 0.0
C263 C 0.85791 0.16983 0.65089 0.0
C264 C 0.73599 0.08749 0.66017 0.0
C265 C 0.71554 0.02831 0.67162 0.0
C266 C 0.65447 0.96834 0.66682 0.0
C267 C 0.6128 0.96915 0.64998 0.0
C268 C 0.63248 0.02952 0.63817 0.0
C269 C 0.69525 0.08914 0.64335 0.0
H270 H 0.84913 0.95632 0.03475 0.0
H271 H 0.93964 0.86092 0.07199 0.0
H272 H 0.87581 0.75565 0.0495 0.0
H273 H 0.68451 0.80745 0.02507 0.0
H274 H 0.67735 0.83035 0.99751 0.0
H275 H 0.72701 0.89599 0.01744 0.0
H276 H 0.83108 0.94377 0.99234 0.0
H277 H 0.78184 0.87791 0.97241 0.0
H278 H 0.86018 0.88811 0.98303 0.0
H279 H 0.79627 0.65836 0.02396 0.0
H280 H 0.71608 0.58139 0.99515 0.0
H281 H 0.69012 0.74634 0.97213 0.0
C282 C 0.85473 0.91286 0.03826 0.0
C283 C 0.89815 0.9158 0.05522 0.0
C284 C 0.906 0.85899 0.05909 0.0
C285 C 0.87003 0.79917 0.04644 0.0
C286 C 0.82785 0.79786 0.02965 0.0
C287 C 0.82089 0.8536 0.02534 0.0
C288 C 0.77543 0.84054 1.00563 0.0
C289 C 0.71234 0.84375 0.01179 0.0
C290 C 0.81449 0.89055 0.98727 0.0
C291 C 0.75722 0.76854 0.9997 0.0
C292 C 0.78705 0.74425 0.0139 0.0
C293 C 0.77366 0.67724 0.01247 0.0
C294 C 0.72836 0.63398 0.99612 0.0
C295 C 0.69885 0.65877 0.98117 0.0
C296 C 0.71392 0.72692 0.98295 0.0
H297 H 0.01819 0.91909 0.38266 0.0
H298 H 0.22839 0.07114 0.37048 0.0
H299 H 0.23755 0.99081 0.34611 0.0
H300 H 0.04116 0.77024 0.38136 0.0
H301 H 0.96078 0.71644 0.3677 0.0
H302 H 0.97155 0.78423 0.38562 0.0
H303 H 0.93306 0.83401 0.35444 0.0
H304 H 0.92223 0.76646 0.33647 0.0
H305 H 0.97659 0.85424 0.32888 0.0
H306 H 0.22212 0.89843 0.32042 0.0
H307 H 0.18234 0.79751 0.29616 0.0
H308 H 0.98442 0.70426 0.32578 0.0
C309 C 0.06636 0.93505 0.37514 0.0
C310 C 0.12237 0.0016 0.37853 0.0
C311 C 0.18444 0.02061 0.36815 0.0
C312 C 0.19042 0.97525 0.35427 0.0
C313 C 0.13413 0.9106 0.35097 0.0
C314 C 0.0734 0.89017 0.36118 0.0
C315 C 0.01996 0.81867 0.35401 0.0
C316 C 0.99704 0.76949 0.37333 0.0
C317 C 0.95941 0.81837 0.34278 0.0
C318 C 0.05994 0.80298 0.33795 0.0
C319 C 0.12573 0.85658 0.33644 0.0
C320 C 0.17095 0.85554 0.32167 0.0
C321 C 0.14801 0.79819 0.30794 0.0
C322 C 0.08069 0.74279 0.30922 0.0
C323 C 0.03664 0.74522 0.32464 0.0
H324 H 0.21683 0.0559 0.71838 0.0
H325 H 0.17865 0.2078 0.69017 0.0
H326 H 0.26711 0.23509 0.66303 0.0
H327 H 0.39628 0.15082 0.71299 0.0
H328 H 0.40322 0.07753 0.70635 0.0
H329 H 0.33495 0.06783 0.72302 0.0
H330 H 0.24708 0.97638 0.69615 0.0
H331 H 0.31514 0.98514 0.67957 0.0
H332 H 0.24931 0.99646 0.66768 0.0
H333 H 0.36175 0.24687 0.63906 0.0
H334 H 0.45072 0.23785 0.61951 0.0
H335 H 0.42814 0.08105 0.66443 0.0
C336 C 0.22644 0.09427 0.70633 0.0
C337 C 0.19061 0.12947 0.70635 0.0
C338 C 0.20536 0.17999 0.69045 0.0
C339 C 0.25566 0.19604 0.67499 0.0
C340 C 0.29102 0.16134 0.67568 0.0
C341 C 0.27679 0.11127 0.69088 0.0
C342 C 0.32258 0.08209 0.68833 0.0
C343 C 0.36688 0.09539 0.7089 0.0
C344 C 0.28105 0.00549 0.68258 0.0
C345 C 0.36469 0.12346 0.66934 0.0
C346 C 0.3459 0.16895 0.66222 0.0
C347 C 0.37702 0.21152 0.64454 0.0
C348 C 0.42772 0.20635 0.6336 0.0
C349 C 0.44673 0.15906 0.64046 0.0
C350 C 0.41528 0.11811 0.65879 0.0
H351 H 0.11829 0.22247 0.0131 0.0
H352 H 0.23509 0.29545 0.07347 0.0
H353 H 0.32772 0.39213 0.05364 0.0
H354 H 0.26077 0.26778 0.97759 0.0
H355 H 0.22359 0.29078 0.95564 0.0
H356 H 0.16989 0.22631 0.97464 0.0
H357 H 0.11035 0.29457 0.9829 0.0
H358 H 0.16481 0.35996 0.96427 0.0
H359 H 0.16032 0.38203 0.99217 0.0
H360 H 0.40406 0.48549 0.02697 0.0
H361 H 0.46254 0.55885 0.99556 0.0
H362 H 0.29323 0.42227 0.95326 0.0
C363 C 0.16371 0.25819 0.02217 0.0
C364 C 0.16951 0.25151 0.04486 0.0
C365 C 0.22986 0.29926 0.05606 0.0
C366 C 0.28239 0.35458 0.04495 0.0
C367 C 0.27377 0.36081 0.02267 0.0
C368 C 0.21627 0.31308 0.0114 0.0
C369 C 0.21852 0.33089 0.9876 0.0
C370 C 0.21821 0.27567 0.97301 0.0
C371 C 0.16003 0.34256 0.98138 0.0
C372 C 0.28607 0.39672 0.98716 0.0
C373 C 0.31724 0.41351 1.00752 0.0
C374 C 0.38014 0.47252 0.01097 0.0
C375 C 0.41272 0.51418 0.99304 0.0
C376 C 0.38243 0.49647 0.97191 0.0
C377 C 0.31774 0.43751 0.96916 0.0
H378 H 0.1277 0.34099 0.37633 0.0
H379 H 0.9315 0.15711 0.36639 0.0
H380 H 0.89881 0.21729 0.34017 0.0
H381 H 0.06963 0.46279 0.37143 0.0
H382 H 0.14331 0.52377 0.3568 0.0
H383 H 0.14979 0.46767 0.37601 0.0
H384 H 0.19782 0.42472 0.34596 0.0
H385 H 0.19163 0.48076 0.3267 0.0
H386 H 0.15045 0.39057 0.32082 0.0
H387 H 0.88765 0.29691 0.31438 0.0
H388 H 0.90307 0.38838 0.28915 0.0
H389 H 0.1075 0.51792 0.31488 0.0
C390 C 0.07769 0.3137 0.36878 0.0
C391 C 0.03216 0.24449 0.37347 0.0
C392 C 0.96741 0.21018 0.36302 0.0
C393 C 0.94812 0.24397 0.34817 0.0
C394 C 0.99422 0.31205 0.34379 0.0
C395 C 0.05784 0.34646 0.35366 0.0
C396 C 0.09916 0.41833 0.34513 0.0
C397 C 0.11647 0.47126 0.36343 0.0
C398 C 0.16355 0.42919 0.33399 0.0
C399 C 0.04916 0.41849 0.32878 0.0
C400 C 0.98854 0.35712 0.32845 0.0
C401 C 0.93491 0.3453 0.31449 0.0
C402 C 0.94397 0.39744 0.30027 0.0
C403 C 0.00646 0.45991 0.29998 0.0
C404 C 0.0592 0.47048 0.31462 0.0
loop_
_geom_bond_atom_site_label_1
_geom_bond_atom_site_label_2
_geom_bond_distance
_geom_bond_site_symmetry_2
_ccdc_geom_bond_type
C0 O1 1.306 1_455 S
C0 O3 1.160 . S
O1 C0 1.306 1_655 S
O1 Cd2 2.228 . S
Cd2 O1 2.228 . S
Cd2 O6 2.273 . S
Cd2 O10 2.277 1_655 S
O3 C0 1.160 . S
O3 Cd4 2.203 . S
Cd4 O3 2.203 . S
Cd4 O6 2.411 1_455 S
Cd4 O7 2.333 . S
Cd4 O8 2.352 . S
Cd4 O12 2.277 . S
Cd4 O13 2.356 . S
C5 O10 1.209 . S
C5 O12 1.226 . S
O6 Cd2 2.273 . S
O6 Cd4 2.411 1_655 S
O6 C9 1.320 . S
O7 Cd4 2.333 . S
O7 C9 1.214 1_455 S
O8 Cd4 2.352 . S
O8 C11 1.258 . S
C9 O6 1.320 . S
C9 O7 1.214 1_655 S
O10 Cd2 2.277 1_455 S
O10 C5 1.209 . S
C11 O8 1.258 . S
C11 O13 1.282 . S
O12 Cd4 2.277 . S
O12 C5 1.226 . S
O13 Cd4 2.356 . S
O13 C11 1.282 . S
C14 O15 1.306 . S
C14 O17 1.160 . S
O15 C14 1.306 . S
O15 Cd16 2.228 . S
Cd16 O15 2.228 . S
Cd16 O20 2.273 . S
Cd16 O24 2.277 . S
O17 C14 1.160 . S
O17 Cd18 2.203 . S
Cd18 O17 2.203 . S
Cd18 O20 2.411 . S
Cd18 O21 2.333 1_455 S
Cd18 O22 2.352 1_455 S
Cd18 O26 2.277 1_445 S
Cd18 O27 2.356 1_455 S
C19 O24 1.201 1_565 S
C19 O26 1.224 1_455 S
O20 Cd16 2.273 . S
O20 Cd18 2.411 . S
O20 C23 1.320 . S
O21 Cd18 2.333 1_655 S
O21 C23 1.214 1_655 S
O22 Cd18 2.352 1_655 S
O22 C25 1.258 . S
C23 O20 1.320 . S
C23 O21 1.214 1_455 S
O24 Cd16 2.277 . S
O24 C19 1.201 1_545 S
C25 O22 1.258 . S
C25 O27 1.282 . S
O26 Cd18 2.277 1_665 S
O26 C19 1.224 1_655 S
O27 Cd18 2.356 1_655 S
O27 C25 1.282 . S
C28 O29 1.306 . S
C28 O31 1.160 . S
O29 C28 1.306 . S
O29 Cd30 2.228 . S
Cd30 O29 2.228 . S
Cd30 O34 2.273 1_655 S
Cd30 O38 2.277 . S
O31 C28 1.160 . S
O31 Cd32 2.203 1_655 S
Cd32 O31 2.203 1_455 S
Cd32 O34 2.411 . S
Cd32 O35 2.333 . S
Cd32 O36 2.352 . S
Cd32 O40 2.277 1_445 S
Cd32 O41 2.356 . S
C33 O38 1.209 . S
C33 O40 1.226 1_545 S
O34 Cd30 2.273 1_455 S
O34 Cd32 2.411 . S
O34 C37 1.320 . S
O35 Cd32 2.333 . S
O35 C37 1.214 . S
O36 Cd32 2.352 . S
O36 C39 1.258 . S
C37 O34 1.320 . S
C37 O35 1.214 . S
O38 Cd30 2.277 . S
O38 C33 1.209 . S
C39 O36 1.258 . S
C39 O41 1.282 . S
O40 Cd32 2.277 1_665 S
O40 C33 1.226 1_565 S
O41 Cd32 2.356 . S
O41 C39 1.282 . S
Mg42 O49 2.141 . S
Mg42 O50 2.048 . S
Mg42 O51 2.048 . S
Mg42 O54 2.141 . S
C43 O44 1.313 1_455 S
C43 O50 1.195 . S
O44 C43 1.313 1_655 S
C45 O46 1.245 1_455 S
C45 O54 1.289 . S
O46 C45 1.245 1_655 S
C47 O48 1.245 1_455 S
C47 O49 1.289 . S
O48 C47 1.245 1_655 S
O49 Mg42 2.141 . S
O49 C47 1.289 . S
O50 Mg42 2.048 . S
O50 C43 1.195 . S
O51 Mg42 2.048 . S
O51 C52 1.195 . S
C52 O51 1.195 . S
C52 O53 1.313 1_455 S
O53 C52 1.313 1_655 S
O54 Mg42 2.141 . S
O54 C45 1.289 . S
Mg55 O62 2.141 . S
Mg55 O63 2.048 . S
Mg55 O64 2.048 . S
Mg55 O67 2.141 . S
C56 O57 1.313 . S
C56 O63 1.195 . S
O57 C56 1.313 . S
C58 O59 1.245 . S
C58 O67 1.289 . S
O59 C58 1.245 . S
C60 O61 1.245 . S
C60 O62 1.289 . S
O61 C60 1.245 . S
O62 Mg55 2.141 . S
O62 C60 1.289 . S
O63 Mg55 2.048 . S
O63 C56 1.195 . S
O64 Mg55 2.048 . S
O64 C65 1.195 . S
C65 O64 1.195 . S
C65 O66 1.313 . S
O66 C65 1.313 . S
O67 Mg55 2.141 . S
O67 C58 1.289 . S
Mg68 O75 2.141 . S
Mg68 O76 2.048 . S
Mg68 O77 2.048 . S
Mg68 O80 2.141 . S
C69 O70 1.313 . S
C69 O76 1.195 . S
O70 C69 1.313 . S
C71 O72 1.245 . S
C71 O80 1.289 . S
O72 C71 1.245 . S
C73 O74 1.245 . S
C73 O75 1.289 . S
O74 C73 1.245 . S
O75 Mg68 2.141 . S
O75 C73 1.289 . S
O76 Mg68 2.048 . S
O76 C69 1.195 . S
O77 Mg68 2.048 . S
O77 C78 1.195 . S
C78 O77 1.195 . S
C78 O79 1.313 . S
O79 C78 1.313 . S
O80 Mg68 2.141 . S
O80 C71 1.289 . S
H81 C93 0.930 . S
H82 C95 0.930 . S
H83 C96 0.930 . S
H84 C100 0.959 . S
H85 C100 0.959 . S
H86 C100 0.961 . S
H87 C101 0.960 . S
H88 C101 0.961 . S
H89 C101 0.959 . S
H90 C104 0.929 . S
H91 C105 0.931 . S
H92 C107 0.930 . S
C93 H81 0.930 . S
C93 C94 1.399 . S
C93 C98 1.399 . S
C94 C93 1.399 . S
C94 C95 1.376 1_455 S
C95 H82 0.930 . S
C95 C94 1.376 1_655 S
C95 C96 1.388 . S
C96 H83 0.930 . S
C96 C95 1.388 . S
C96 C97 1.390 1_655 S
C97 C96 1.390 1_455 S
C97 C98 1.394 . S
C97 C103 1.465 . S
C98 C93 1.399 . S
C98 C97 1.394 . S
C98 C99 1.516 . S
C99 C98 1.516 . S
C99 C100 1.502 . S
C99 C101 1.561 . S
C99 C102 1.526 . S
C100 H84 0.959 . S
C100 H85 0.959 . S
C100 H86 0.961 . S
C100 C99 1.502 . S
C101 H87 0.960 . S
C101 H88 0.961 . S
C101 H89 0.959 . S
C101 C99 1.561 . S
C102 C99 1.526 . S
C102 C103 1.396 . S
C102 C107 1.390 . S
C103 C97 1.465 . S
C103 C102 1.396 . S
C103 C104 1.399 1_455 S
C104 H90 0.929 . S
C104 C103 1.399 1_655 S
C104 C105 1.385 . S
C105 H91 0.931 . S
C105 C104 1.385 . S
C105 C106 1.389 1_655 S
C106 C105 1.389 1_455 S
C106 C107 1.387 . S
C107 H92 0.930 . S
C107 C102 1.390 . S
C107 C106 1.387 . S
H108 C120 0.930 1_565 S
H109 C122 0.930 . S
H110 C123 0.930 . S
H111 C127 0.959 . S
H112 C127 0.959 . S
H113 C127 0.961 . S
H114 C128 0.960 . S
H115 C128 0.961 . S
H116 C128 0.959 1_545 S
H117 C131 0.929 . S
H118 C132 0.931 . S
H119 C134 0.930 . S
C120 H108 0.930 1_545 S
C120 C121 1.399 . S
C120 C125 1.399 . S
C121 C120 1.399 . S
C121 C122 1.376 . S
C122 H109 0.930 . S
C122 C121 1.376 . S
C122 C123 1.388 . S
C123 H110 0.930 . S
C123 C122 1.388 . S
C123 C124 1.390 . S
C124 C123 1.390 . S
C124 C125 1.394 . S
C124 C130 1.465 . S
C125 C120 1.399 . S
C125 C124 1.394 . S
C125 C126 1.516 . S
C126 C125 1.516 . S
C126 C127 1.502 1_545 S
C126 C128 1.561 1_545 S
C126 C129 1.526 . S
C127 H111 0.959 . S
C127 H112 0.959 . S
C127 H113 0.961 . S
C127 C126 1.502 1_565 S
C128 H114 0.960 . S
C128 H115 0.961 . S
C128 H116 0.959 1_565 S
C128 C126 1.561 1_565 S
C129 C126 1.526 . S
C129 C130 1.396 . S
C129 C134 1.390 . S
C130 C124 1.465 . S
C130 C129 1.396 . S
C130 C131 1.399 . S
C131 H117 0.929 . S
C131 C130 1.399 . S
C131 C132 1.385 . S
C132 H118 0.931 . S
C132 C131 1.385 . S
C132 C133 1.389 . S
C133 C132 1.389 . S
C133 C134 1.387 . S
C134 H119 0.930 . S
C134 C129 1.390 . S
C134 C133 1.387 . S
H135 C147 0.930 . S
H136 C149 0.930 . S
H137 C150 0.914 1_545 S
H138 C154 0.959 . S
H139 C154 0.959 . S
H140 C154 0.961 . S
H141 C155 0.960 . S
H142 C155 0.961 . S
H143 C155 0.959 . S
H144 C158 0.929 . S
H145 C159 0.931 . S
H146 C161 0.930 . S
C147 H135 0.930 . S
C147 C148 1.399 . S
C147 C152 1.399 . S
C148 C147 1.399 . S
C148 C149 1.376 1_565 S
C149 H136 0.930 . S
C149 C148 1.376 1_545 S
C149 C150 1.388 1_545 S
C150 H137 0.914 1_565 S
C150 C149 1.388 1_565 S
C150 C151 1.390 . S
C151 C150 1.390 . S
C151 C152 1.394 . S
C151 C157 1.465 . S
C152 C147 1.399 . S
C152 C151 1.394 . S
C152 C153 1.516 . S
C153 C152 1.516 . S
C153 C154 1.502 . S
C153 C155 1.561 . S
C153 C156 1.526 . S
C154 H138 0.959 . S
C154 H139 0.959 . S
C154 H140 0.961 . S
C154 C153 1.502 . S
C155 H141 0.960 . S
C155 H142 0.961 . S
C155 H143 0.959 . S
C155 C153 1.561 . S
C156 C153 1.526 . S
C156 C157 1.396 . S
C156 C161 1.390 . S
C157 C151 1.465 . S
C157 C156 1.396 . S
C157 C158 1.399 . S
C158 H144 0.929 . S
C158 C157 1.399 . S
C158 C159 1.385 . S
C159 H145 0.931 . S
C159 C158 1.385 . S
C159 C160 1.389 . S
C160 C159 1.389 . S
C160 C161 1.387 . S
C161 H146 0.930 . S
C161 C156 1.390 . S
C161 C160 1.387 . S
H162 C174 0.930 1_545 S
H163 C176 0.930 1_655 S
H164 C177 0.930 . S
H165 C181 0.959 . S
H166 C181 0.959 . S
H167 C181 0.974 . S
H168 C182 0.960 . S
H169 C182 0.961 . S
H170 C182 0.959 . S
H171 C185 0.929 . S
H172 C186 0.931 1_655 S
H173 C188 0.930 . S
C174 H162 0.930 1_565 S
C174 C175 1.399 . S
C174 C179 1.399 . S
C175 C174 1.399 . S
C175 C176 1.376 . S
C176 H163 0.930 1_455 S
C176 C175 1.376 . S
C176 C177 1.388 1_455 S
C177 H164 0.930 . S
C177 C176 1.388 1_655 S
C177 C178 1.390 1_655 S
C178 C177 1.390 1_455 S
C178 C179 1.394 . S
C178 C184 1.465 . S
C179 C174 1.399 . S
C179 C178 1.394 . S
C179 C180 1.516 . S
C180 C179 1.516 . S
C180 C181 1.502 . S
C180 C182 1.561 . S
C180 C183 1.526 . S
C181 H165 0.959 . S
C181 H166 0.959 . S
C181 H167 0.974 . S
C181 C180 1.502 . S
C182 H168 0.960 . S
C182 H169 0.961 . S
C182 H170 0.959 . S
C182 C180 1.561 . S
C183 C180 1.526 . S
C183 C184 1.396 . S
C183 C188 1.390 . S
C184 C178 1.465 . S
C184 C183 1.396 . S
C184 C185 1.399 1_455 S
C185 H171 0.929 . S
C185 C184 1.399 1_655 S
C185 C186 1.385 1_655 S
C186 H172 0.931 1_455 S
C186 C185 1.385 1_455 S
C186 C187 1.389 . S
C187 C186 1.389 . S
C187 C188 1.387 . S
C188 H173 0.930 . S
C188 C183 1.390 . S
C188 C187 1.387 . S
H189 C201 0.930 . S
H190 C203 0.930 1_565 S
H191 C204 0.930 1_565 S
H192 C208 0.959 . S
H193 C208 0.959 . S
H194 C208 0.961 . S
H195 C209 0.960 . S
H196 C209 0.961 . S
H197 C209 0.959 . S
H198 C212 0.929 1_565 S
H199 C213 0.931 1_565 S
H200 C215 0.930 . S
C201 H189 0.930 . S
C201 C202 1.399 . S
C201 C206 1.399 . S
C202 C201 1.399 . S
C202 C203 1.376 . S
C203 H190 0.930 1_545 S
C203 C202 1.376 . S
C203 C204 1.388 . S
C204 H191 0.930 1_545 S
C204 C203 1.388 . S
C204 C205 1.390 . S
C205 C204 1.390 . S
C205 C206 1.394 . S
C205 C211 1.465 . S
C206 C201 1.399 . S
C206 C205 1.394 . S
C206 C207 1.516 . S
C207 C206 1.516 . S
C207 C208 1.502 . S
C207 C209 1.561 . S
C207 C210 1.526 . S
C208 H192 0.959 . S
C208 H193 0.959 . S
C208 H194 0.961 . S
C208 C207 1.502 . S
C209 H195 0.960 . S
C209 H196 0.961 . S
C209 H197 0.959 . S
C209 C207 1.561 . S
C210 C207 1.526 . S
C210 C211 1.396 . S
C210 C215 1.390 . S
C211 C205 1.465 . S
C211 C210 1.396 . S
C211 C212 1.399 . S
C212 H198 0.929 1_545 S
C212 C211 1.399 . S
C212 C213 1.385 . S
C213 H199 0.931 1_545 S
C213 C212 1.385 . S
C213 C214 1.389 . S
C214 C213 1.389 . S
C214 C215 1.387 . S
C215 H200 0.930 . S
C215 C210 1.390 . S
C215 C214 1.387 . S
H216 C228 0.930 . S
H217 C230 0.930 . S
H218 C231 0.930 . S
H219 C235 0.959 . S
H220 C235 0.959 . S
H221 C235 0.961 . S
H222 C236 0.960 . S
H223 C236 0.961 . S
H224 C236 0.959 . S
H225 C239 0.929 . S
H226 C240 0.931 . S
H227 C242 0.930 . S
C228 H216 0.930 . S
C228 C229 1.399 . S
C228 C233 1.399 . S
C229 C228 1.399 . S
C229 C230 1.376 . S
C230 H217 0.930 . S
C230 C229 1.376 . S
C230 C231 1.388 . S
C231 H218 0.930 . S
C231 C230 1.388 . S
C231 C232 1.390 . S
C232 C231 1.390 . S
C232 C233 1.394 . S
C232 C238 1.465 . S
C233 C228 1.399 . S
C233 C232 1.394 . S
C233 C234 1.516 . S
C234 C233 1.516 . S
C234 C235 1.502 . S
C234 C236 1.561 . S
C234 C237 1.526 . S
C235 H219 0.959 . S
C235 H220 0.959 . S
C235 H221 0.961 . S
C235 C234 1.502 . S
C236 H222 0.960 . S
C236 H223 0.961 . S
C236 H224 0.959 . S
C236 C234 1.561 . S
C237 C234 1.526 . S
C237 C238 1.396 . S
C237 C242 1.390 . S
C238 C232 1.465 . S
C238 C237 1.396 . S
C238 C239 1.399 . S
C239 H225 0.929 . S
C239 C238 1.399 . S
C239 C240 1.385 . S
C240 H226 0.931 . S
C240 C239 1.385 . S
C240 C241 1.389 . S
C241 C240 1.389 . S
C241 C242 1.387 . S
C242 H227 0.930 . S
C242 C237 1.390 . S
C242 C241 1.387 . S
H243 C255 0.930 . S
H244 C257 0.930 . S
H245 C258 0.930 1_565 S
H246 C262 0.959 . S
H247 C262 0.959 . S
H248 C262 0.961 . S
H249 C263 0.960 . S
H250 C263 0.961 . S
H251 C263 0.959 . S
H252 C266 0.929 1_565 S
H253 C267 0.931 1_565 S
H254 C269 0.930 . S
C255 H243 0.930 . S
C255 C256 1.399 . S
C255 C260 1.399 . S
C256 C255 1.399 . S
C256 C257 1.376 . S
C257 H244 0.930 . S
C257 C256 1.376 . S
C257 C258 1.388 . S
C258 H245 0.930 1_545 S
C258 C257 1.388 . S
C258 C259 1.390 . S
C259 C258 1.390 . S
C259 C260 1.394 . S
C259 C265 1.465 . S
C260 C255 1.399 . S
C260 C259 1.394 . S
C260 C261 1.516 . S
C261 C260 1.516 . S
C261 C262 1.502 . S
C261 C263 1.561 . S
C261 C264 1.526 . S
C262 H246 0.959 . S
C262 H247 0.959 . S
C262 H248 0.961 . S
C262 C261 1.502 . S
C263 H249 0.960 . S
C263 H250 0.961 . S
C263 H251 0.959 . S
C263 C261 1.561 . S
C264 C261 1.526 . S
C264 C265 1.396 . S
C264 C269 1.390 . S
C265 C259 1.465 . S
C265 C264 1.396 . S
C265 C266 1.399 . S
C266 H252 0.929 1_545 S
C266 C265 1.399 . S
C266 C267 1.385 . S
C267 H253 0.931 1_545 S
C267 C266 1.385 . S
C267 C268 1.389 . S
C268 C267 1.389 . S
C268 C269 1.387 . S
C269 H254 0.930 . S
C269 C264 1.390 . S
C269 C268 1.387 . S
H270 C282 0.930 1_545 S
H271 C284 0.930 . S
H272 C285 0.930 . S
H273 C289 0.959 1_554 S
H274 C289 0.959 . S
H275 C289 0.961 1_545 S
H276 C290 0.960 1_545 S
H277 C290 0.961 . S
H278 C290 0.959 . S
H279 C293 0.929 1_554 S
H280 C294 0.931 . S
H281 C296 0.930 . S
C282 H270 0.930 1_565 S
C282 C283 1.399 . S
C282 C287 1.399 . S
C283 C282 1.399 . S
C283 C284 1.376 . S
C284 H271 0.930 . S
C284 C283 1.376 . S
C284 C285 1.388 . S
C285 H272 0.930 . S
C285 C284 1.388 . S
C285 C286 1.390 . S
C286 C285 1.390 . S
C286 C287 1.394 . S
C286 C292 1.461 1_554 S
C287 C282 1.399 . S
C287 C286 1.394 . S
C287 C288 1.516 1_554 S
C288 C287 1.516 1_556 S
C288 C289 1.502 . S
C288 C290 1.561 . S
C288 C291 1.526 . S
C289 H273 0.959 1_556 S
C289 H274 0.959 . S
C289 H275 0.961 1_565 S
C289 C288 1.502 . S
C290 H276 0.960 1_565 S
C290 H277 0.961 . S
C290 H278 0.959 . S
C290 C288 1.561 . S
C291 C288 1.526 . S
C291 C292 1.400 . S
C291 C296 1.390 . S
C292 C286 1.461 1_556 S
C292 C291 1.400 . S
C292 C293 1.399 . S
C293 H279 0.929 1_556 S
C293 C292 1.399 . S
C293 C294 1.385 . S
C294 H280 0.931 . S
C294 C293 1.385 . S
C294 C295 1.389 . S
C295 C294 1.389 . S
C295 C296 1.387 . S
C296 H281 0.930 . S
C296 C291 1.390 . S
C296 C295 1.387 . S
H297 C309 0.930 . S
H298 C311 0.930 . S
H299 C312 0.930 . S
H300 C316 0.959 . S
H301 C316 0.959 . S
H302 C316 0.961 . S
H303 C317 0.952 1_655 S
H304 C317 0.959 1_655 S
H305 C317 0.968 . S
H306 C320 0.929 . S
H307 C321 0.931 . S
H308 C323 0.930 1_655 S
C309 H297 0.930 . S
C309 C310 1.399 1_655 S
C309 C314 1.399 1_655 S
C310 C309 1.399 1_455 S
C310 C311 1.376 . S
C311 H298 0.930 . S
C311 C310 1.376 . S
C311 C312 1.388 . S
C312 H299 0.930 . S
C312 C311 1.388 . S
C312 C313 1.390 . S
C313 C312 1.390 . S
C313 C314 1.394 . S
C313 C319 1.465 . S
C314 C309 1.399 1_455 S
C314 C313 1.394 . S
C314 C315 1.516 1_455 S
C315 C314 1.516 1_655 S
C315 C316 1.502 . S
C315 C317 1.563 1_655 S
C315 C318 1.526 1_655 S
C316 H300 0.959 . S
C316 H301 0.959 . S
C316 H302 0.961 . S
C316 C315 1.502 . S
C317 H303 0.952 1_455 S
C317 H304 0.959 1_455 S
C317 H305 0.968 . S
C317 C315 1.563 1_455 S
C318 C315 1.526 1_455 S
C318 C319 1.396 . S
C318 C323 1.390 . S
C319 C313 1.465 . S
C319 C318 1.396 . S
C319 C320 1.399 . S
C320 H306 0.929 . S
C320 C319 1.399 . S
C320 C321 1.385 . S
C321 H307 0.931 . S
C321 C320 1.385 . S
C321 C322 1.389 . S
C322 C321 1.389 . S
C322 C323 1.387 . S
C323 H308 0.930 1_455 S
C323 C318 1.390 . S
C323 C322 1.387 . S
H324 C336 0.930 . S
H325 C338 0.930 . S
H326 C339 0.930 . S
H327 C343 0.959 . S
H328 C343 0.959 1_565 S
H329 C343 0.961 1_565 S
H330 C344 0.960 . S
H331 C344 0.961 . S
H332 C344 0.959 . S
H333 C347 0.929 . S
H334 C348 0.931 . S
H335 C350 0.930 . S
C336 H324 0.930 . S
C336 C337 1.399 . S
C336 C341 1.399 . S
C337 C336 1.399 . S
C337 C338 1.376 . S
C338 H325 0.930 . S
C338 C337 1.376 . S
C338 C339 1.388 . S
C339 H326 0.930 . S
C339 C338 1.388 . S
C339 C340 1.390 . S
C340 C339 1.390 . S
C340 C341 1.394 . S
C340 C346 1.465 . S
C341 C336 1.399 . S
C341 C340 1.394 . S
C341 C342 1.516 . S
C342 C341 1.516 . S
C342 C343 1.502 . S
C342 C344 1.561 1_545 S
C342 C345 1.526 . S
C343 H327 0.959 . S
C343 H328 0.959 1_545 S
C343 H329 0.961 1_545 S
C343 C342 1.502 . S
C344 H330 0.960 . S
C344 H331 0.961 . S
C344 H332 0.959 . S
C344 C342 1.561 1_565 S
C345 C342 1.526 . S
C345 C346 1.396 . S
C345 C350 1.390 . S
C346 C340 1.465 . S
C346 C345 1.396 . S
C346 C347 1.399 . S
C347 H333 0.929 . S
C347 C346 1.399 . S
C347 C348 1.385 . S
C348 H334 0.931 . S
C348 C347 1.385 . S
C348 C349 1.389 . S
C349 C348 1.389 . S
C349 C350 1.387 . S
C350 H335 0.930 . S
C350 C345 1.390 . S
C350 C349 1.387 . S
H351 C363 0.930 . S
H352 C365 0.930 . S
H353 C366 0.930 . S
H354 C370 0.959 . S
H355 C370 0.959 . S
H356 C370 0.961 . S
H357 C371 0.960 . S
H358 C371 0.961 . S
H359 C371 0.959 . S
H360 C374 0.929 . S
H361 C375 0.931 . S
H362 C377 0.930 . S
C363 H351 0.930 . S
C363 C364 1.399 . S
C363 C368 1.399 . S
C364 C363 1.399 . S
C364 C365 1.376 . S
C365 H352 0.930 . S
C365 C364 1.376 . S
C365 C366 1.388 . S
C366 H353 0.930 . S
C366 C365 1.388 . S
C366 C367 1.390 . S
C367 C366 1.390 . S
C367 C368 1.394 . S
C367 C373 1.465 . S
C368 C363 1.399 . S
C368 C367 1.394 . S
C368 C369 1.516 1_554 S
C369 C368 1.516 1_556 S
C369 C370 1.502 . S
C369 C371 1.561 . S
C369 C372 1.526 . S
C370 H354 0.959 . S
C370 H355 0.959 . S
C370 H356 0.961 . S
C370 C369 1.502 . S
C371 H357 0.960 . S
C371 H358 0.961 . S
C371 H359 0.959 . S
C371 C369 1.561 . S
C372 C369 1.526 . S
C372 C373 1.396 1_556 S
C372 C377 1.390 . S
C373 C367 1.465 . S
C373 C372 1.396 1_554 S
C373 C374 1.399 . S
C374 H360 0.929 . S
C374 C373 1.399 . S
C374 C375 1.385 1_554 S
C375 H361 0.931 . S
C375 C374 1.385 1_556 S
C375 C376 1.389 . S
C376 C375 1.389 . S
C376 C377 1.387 . S
C377 H362 0.930 . S
C377 C372 1.390 . S
C377 C376 1.387 . S
H378 C390 0.930 . S
H379 C392 0.930 . S
H380 C393 0.930 . S
H381 C397 0.959 . S
H382 C397 0.959 . S
H383 C397 0.961 . S
H384 C398 0.960 . S
H385 C398 0.961 . S
H386 C398 0.959 . S
H387 C401 0.929 . S
H388 C402 0.931 . S
H389 C404 0.930 . S
C390 H378 0.930 . S
C390 C391 1.399 . S
C390 C395 1.399 . S
C391 C390 1.399 . S
C391 C392 1.376 . S
C392 H379 0.930 . S
C392 C391 1.376 . S
C392 C393 1.388 . S
C393 H380 0.930 . S
C393 C392 1.388 . S
C393 C394 1.390 . S
C394 C393 1.390 . S
C394 C395 1.394 . S
C394 C400 1.465 . S
C395 C390 1.399 . S
C395 C394 1.394 . S
C395 C396 1.516 . S
C396 C395 1.516 . S
C396 C397 1.502 1_455 S
C396 C398 1.561 . S
C396 C399 1.526 . S
C397 H381 0.959 . S
C397 H382 0.959 . S
C397 H383 0.961 . S
C397 C396 1.502 1_655 S
C398 H384 0.960 . S
C398 H385 0.961 . S
C398 H386 0.959 . S
C398 C396 1.561 . S
C399 C396 1.526 . S
C399 C400 1.396 . S
C399 C404 1.390 . S
C400 C394 1.465 . S
C400 C399 1.396 . S
C400 C401 1.399 . S
C401 H387 0.929 . S
C401 C400 1.399 . S
C401 C402 1.385 . S
C402 H388 0.931 . S
C402 C401 1.385 . S
C402 C403 1.389 . S
C403 C402 1.389 . S
C403 C404 1.387 . S
C404 H389 0.930 . S
C404 C399 1.390 . S
C404 C403 1.387 . S
C106 C47 1.365 . S
C94 C0 1.397 . S
C121 C25 1.477 . S
C133 C65 1.484 . S
C148 C33 1.489 1_565 S
C160 C78 1.505 . S
C175 C11 1.367 1_565 S
C187 C45 1.339 . S
C214 C56 1.466 . S
C202 C14 1.483 . S
C229 C37 1.474 . S
C241 C69 1.470 . S
C268 C58 1.388 . S
C256 C28 1.414 . S
C283 C9 1.410 1_565 S
C295 C71 1.396 . S
C322 C52 1.518 . S
C310 C19 1.513 . S
C349 C60 1.413 . S
C337 C39 1.409 . S
C376 C73 1.427 . S
C364 C5 1.428 . S
C391 C23 1.539 . S
C403 C43 1.536 . S
