# Generated by pormake.
# Topology gar, (4,6)-cn, num edge types: 1
# Building blocks:
#     Node 0, Type 0, BuildingBlock: GALJAG_clean_sbu_0, # of connection points: 4
#     Node 1, Type 0, BuildingBlock: GALJAG_clean_sbu_0, # of connection points: 4
#     Node 2, Type 0, BuildingBlock: GALJAG_clean_sbu_0, # of connection points: 4
#     Node 3, Type 0, BuildingBlock: GALJAG_clean_sbu_0, # of connection points: 4
#     Node 4, Type 0, BuildingBlock: GALJAG_clean_sbu_0, # of connection points: 4
#     Node 5, Type 0, BuildingBlock: GALJAG_clean_sbu_0, # of connection points: 4
#     Node 6, Type 0, BuildingBlock: GALJAG_clean_sbu_0, # of connection points: 4
#     Node 7, Type 0, BuildingBlock: GALJAG_clean_sbu_0, # of connection points: 4
#     Node 8, Type 0, BuildingBlock: GALJAG_clean_sbu_0, # of connection points: 4
#     Node 9, Type 0, BuildingBlock: GALJAG_clean_sbu_0, # of connection points: 4
#     Node 10, Type 0, BuildingBlock: GALJAG_clean_sbu_0, # of connection points: 4
#     Node 11, Type 0, BuildingBlock: GALJAG_clean_sbu_0, # of connection points: 4
#     Node 12, Type 0, BuildingBlock: GALJAG_clean_sbu_0, # of connection points: 4
#     Node 13, Type 0, BuildingBlock: GALJAG_clean_sbu_0, # of connection points: 4
#     Node 14, Type 0, BuildingBlock: GALJAG_clean_sbu_0, # of connection points: 4
#     Node 15, Type 0, BuildingBlock: GALJAG_clean_sbu_0, # of connection points: 4
#     Node 16, Type 0, BuildingBlock: GALJAG_clean_sbu_0, # of connection points: 4
#     Node 17, Type 0, BuildingBlock: GALJAG_clean_sbu_0, # of connection points: 4
#     Node 18, Type 0, BuildingBlock: GALJAG_clean_sbu_0, # of connection points: 4
#     Node 19, Type 0, BuildingBlock: GALJAG_clean_sbu_0, # of connection points: 4
#     Node 20, Type 0, BuildingBlock: GALJAG_clean_sbu_0, # of connection points: 4
#     Node 21, Type 0, BuildingBlock: GALJAG_clean_sbu_0, # of connection points: 4
#     Node 22, Type 0, BuildingBlock: GALJAG_clean_sbu_0, # of connection points: 4
#     Node 23, Type 0, BuildingBlock: GALJAG_clean_sbu_0, # of connection points: 4
#     Node 24, Type 1, BuildingBlock: BETDAH_clean_sbu_0, # of connection points: 6
#     Node 25, Type 1, BuildingBlock: BETDAH_clean_sbu_0, # of connection points: 6
#     Node 26, Type 1, BuildingBlock: BETDAH_clean_sbu_0, # of connection points: 6
#     Node 27, Type 1, BuildingBlock: BETDAH_clean_sbu_0, # of connection points: 6
#     Node 28, Type 1, BuildingBlock: BETDAH_clean_sbu_0, # of connection points: 6
#     Node 29, Type 1, BuildingBlock: BETDAH_clean_sbu_0, # of connection points: 6
#     Node 30, Type 1, BuildingBlock: BETDAH_clean_sbu_0, # of connection points: 6
#     Node 31, Type 1, BuildingBlock: BETDAH_clean_sbu_0, # of connection points: 6
#     Node 32, Type 1, BuildingBlock: BETDAH_clean_sbu_0, # of connection points: 6
#     Node 33, Type 1, BuildingBlock: BETDAH_clean_sbu_0, # of connection points: 6
#     Node 34, Type 1, BuildingBlock: BETDAH_clean_sbu_0, # of connection points: 6
#     Node 35, Type 1, BuildingBlock: BETDAH_clean_sbu_0, # of connection points: 6
#     Node 36, Type 1, BuildingBlock: BETDAH_clean_sbu_0, # of connection points: 6
#     Node 37, Type 1, BuildingBlock: BETDAH_clean_sbu_0, # of connection points: 6
#     Node 38, Type 1, BuildingBlock: BETDAH_clean_sbu_0, # of connection points: 6
#     Node 39, Type 1, BuildingBlock: BETDAH_clean_sbu_0, # of connection points: 6
#     Edge 40, Type (0, 1), BuildingBlock: MIFKUJ_clean_linker_0, # of connection points: 2
#     Edge 41, Type (0, 1), BuildingBlock: MIFKUJ_clean_linker_0, # of connection points: 2
#     Edge 42, Type (0, 1), BuildingBlock: MIFKUJ_clean_linker_0, # of connection points: 2
#     Edge 43, Type (0, 1), BuildingBlock: MIFKUJ_clean_linker_0, # of connection points: 2
#     Edge 44, Type (0, 1), BuildingBlock: MIFKUJ_clean_linker_0, # of connection points: 2
#     Edge 45, Type (0, 1), BuildingBlock: MIFKUJ_clean_linker_0, # of connection points: 2
#     Edge 46, Type (0, 1), BuildingBlock: MIFKUJ_clean_linker_0, # of connection points: 2
#     Edge 47, Type (0, 1), BuildingBlock: MIFKUJ_clean_linker_0, # of connection points: 2
#     Edge 48, Type (0, 1), BuildingBlock: MIFKUJ_clean_linker_0, # of connection points: 2
#     Edge 49, Type (0, 1), BuildingBlock: MIFKUJ_clean_linker_0, # of connection points: 2
#     Edge 50, Type (0, 1), BuildingBlock: MIFKUJ_clean_linker_0, # of connection points: 2
#     Edge 51, Type (0, 1), BuildingBlock: MIFKUJ_clean_linker_0, # of connection points: 2
#     Edge 52, Type (0, 1), BuildingBlock: MIFKUJ_clean_linker_0, # of connection points: 2
#     Edge 53, Type (0, 1), BuildingBlock: MIFKUJ_clean_linker_0, # of connection points: 2
#     Edge 54, Type (0, 1), BuildingBlock: MIFKUJ_clean_linker_0, # of connection points: 2
#     Edge 55, Type (0, 1), BuildingBlock: MIFKUJ_clean_linker_0, # of connection points: 2
#     Edge 56, Type (0, 1), BuildingBlock: MIFKUJ_clean_linker_0, # of connection points: 2
#     Edge 57, Type (0, 1), BuildingBlock: MIFKUJ_clean_linker_0, # of connection points: 2
#     Edge 58, Type (0, 1), BuildingBlock: MIFKUJ_clean_linker_0, # of connection points: 2
#     Edge 59, Type (0, 1), BuildingBlock: MIFKUJ_clean_linker_0, # of connection points: 2
#     Edge 60, Type (0, 1), BuildingBlock: MIFKUJ_clean_linker_0, # of connection points: 2
#     Edge 61, Type (0, 1), BuildingBlock: MIFKUJ_clean_linker_0, # of connection points: 2
#     Edge 62, Type (0, 1), BuildingBlock: MIFKUJ_clean_linker_0, # of connection points: 2
#     Edge 63, Type (0, 1), BuildingBlock: MIFKUJ_clean_linker_0, # of connection points: 2
#     Edge 64, Type (0, 1), BuildingBlock: MIFKUJ_clean_linker_0, # of connection points: 2
#     Edge 65, Type (0, 1), BuildingBlock: MIFKUJ_clean_linker_0, # of connection points: 2
#     Edge 66, Type (0, 1), BuildingBlock: MIFKUJ_clean_linker_0, # of connection points: 2
#     Edge 67, Type (0, 1), BuildingBlock: MIFKUJ_clean_linker_0, # of connection points: 2
#     Edge 68, Type (0, 1), BuildingBlock: MIFKUJ_clean_linker_0, # of connection points: 2
#     Edge 69, Type (0, 1), BuildingBlock: MIFKUJ_clean_linker_0, # of connection points: 2
#     Edge 70, Type (0, 1), BuildingBlock: MIFKUJ_clean_linker_0, # of connection points: 2
#     Edge 71, Type (0, 1), BuildingBlock: MIFKUJ_clean_linker_0, # of connection points: 2
#     Edge 72, Type (0, 1), BuildingBlock: MIFKUJ_clean_linker_0, # of connection points: 2
#     Edge 73, Type (0, 1), BuildingBlock: MIFKUJ_clean_linker_0, # of connection points: 2
#     Edge 74, Type (0, 1), BuildingBlock: MIFKUJ_clean_linker_0, # of connection points: 2
#     Edge 75, Type (0, 1), BuildingBlock: MIFKUJ_clean_linker_0, # of connection points: 2
#     Edge 76, Type (0, 1), BuildingBlock: MIFKUJ_clean_linker_0, # of connection points: 2
#     Edge 77, Type (0, 1), BuildingBlock: MIFKUJ_clean_linker_0, # of connection points: 2
#     Edge 78, Type (0, 1), BuildingBlock: MIFKUJ_clean_linker_0, # of connection points: 2
#     Edge 79, Type (0, 1), BuildingBlock: MIFKUJ_clean_linker_0, # of connection points: 2
#     Edge 80, Type (0, 1), BuildingBlock: MIFKUJ_clean_linker_0, # of connection points: 2
#     Edge 81, Type (0, 1), BuildingBlock: MIFKUJ_clean_linker_0, # of connection points: 2
#     Edge 82, Type (0, 1), BuildingBlock: MIFKUJ_clean_linker_0, # of connection points: 2
#     Edge 83, Type (0, 1), BuildingBlock: MIFKUJ_clean_linker_0, # of connection points: 2
#     Edge 84, Type (0, 1), BuildingBlock: MIFKUJ_clean_linker_0, # of connection points: 2
#     Edge 85, Type (0, 1), BuildingBlock: MIFKUJ_clean_linker_0, # of connection points: 2
#     Edge 86, Type (0, 1), BuildingBlock: MIFKUJ_clean_linker_0, # of connection points: 2
#     Edge 87, Type (0, 1), BuildingBlock: MIFKUJ_clean_linker_0, # of connection points: 2
#     Edge 88, Type (0, 1), BuildingBlock: MIFKUJ_clean_linker_0, # of connection points: 2
#     Edge 89, Type (0, 1), BuildingBlock: MIFKUJ_clean_linker_0, # of connection points: 2
#     Edge 90, Type (0, 1), BuildingBlock: MIFKUJ_clean_linker_0, # of connection points: 2
#     Edge 91, Type (0, 1), BuildingBlock: MIFKUJ_clean_linker_0, # of connection points: 2
#     Edge 92, Type (0, 1), BuildingBlock: MIFKUJ_clean_linker_0, # of connection points: 2
#     Edge 93, Type (0, 1), BuildingBlock: MIFKUJ_clean_linker_0, # of connection points: 2
#     Edge 94, Type (0, 1), BuildingBlock: MIFKUJ_clean_linker_0, # of connection points: 2
#     Edge 95, Type (0, 1), BuildingBlock: MIFKUJ_clean_linker_0, # of connection points: 2
#     Edge 96, Type (0, 1), BuildingBlock: MIFKUJ_clean_linker_0, # of connection points: 2
#     Edge 97, Type (0, 1), BuildingBlock: MIFKUJ_clean_linker_0, # of connection points: 2
#     Edge 98, Type (0, 1), BuildingBlock: MIFKUJ_clean_linker_0, # of connection points: 2
#     Edge 99, Type (0, 1), BuildingBlock: MIFKUJ_clean_linker_0, # of connection points: 2
#     Edge 100, Type (0, 1), BuildingBlock: MIFKUJ_clean_linker_0, # of connection points: 2
#     Edge 101, Type (0, 1), BuildingBlock: MIFKUJ_clean_linker_0, # of connection points: 2
#     Edge 102, Type (0, 1), BuildingBlock: MIFKUJ_clean_linker_0, # of connection points: 2
#     Edge 103, Type (0, 1), BuildingBlock: MIFKUJ_clean_linker_0, # of connection points: 2
#     Edge 104, Type (0, 1), BuildingBlock: MIFKUJ_clean_linker_0, # of connection points: 2
#     Edge 105, Type (0, 1), BuildingBlock: MIFKUJ_clean_linker_0, # of connection points: 2
#     Edge 106, Type (0, 1), BuildingBlock: MIFKUJ_clean_linker_0, # of connection points: 2
#     Edge 107, Type (0, 1), BuildingBlock: MIFKUJ_clean_linker_0, # of connection points: 2
#     Edge 108, Type (0, 1), BuildingBlock: MIFKUJ_clean_linker_0, # of connection points: 2
#     Edge 109, Type (0, 1), BuildingBlock: MIFKUJ_clean_linker_0, # of connection points: 2
#     Edge 110, Type (0, 1), BuildingBlock: MIFKUJ_clean_linker_0, # of connection points: 2
#     Edge 111, Type (0, 1), BuildingBlock: MIFKUJ_clean_linker_0, # of connection points: 2
#     Edge 112, Type (0, 1), BuildingBlock: MIFKUJ_clean_linker_0, # of connection points: 2
#     Edge 113, Type (0, 1), BuildingBlock: MIFKUJ_clean_linker_0, # of connection points: 2
#     Edge 114, Type (0, 1), BuildingBlock: MIFKUJ_clean_linker_0, # of connection points: 2
#     Edge 115, Type (0, 1), BuildingBlock: MIFKUJ_clean_linker_0, # of connection points: 2
#     Edge 116, Type (0, 1), BuildingBlock: MIFKUJ_clean_linker_0, # of connection points: 2
#     Edge 117, Type (0, 1), BuildingBlock: MIFKUJ_clean_linker_0, # of connection points: 2
#     Edge 118, Type (0, 1), BuildingBlock: MIFKUJ_clean_linker_0, # of connection points: 2
#     Edge 119, Type (0, 1), BuildingBlock: MIFKUJ_clean_linker_0, # of connection points: 2
#     Edge 120, Type (0, 1), BuildingBlock: MIFKUJ_clean_linker_0, # of connection points: 2
#     Edge 121, Type (0, 1), BuildingBlock: MIFKUJ_clean_linker_0, # of connection points: 2
#     Edge 122, Type (0, 1), BuildingBlock: MIFKUJ_clean_linker_0, # of connection points: 2
#     Edge 123, Type (0, 1), BuildingBlock: MIFKUJ_clean_linker_0, # of connection points: 2
#     Edge 124, Type (0, 1), BuildingBlock: MIFKUJ_clean_linker_0, # of connection points: 2
#     Edge 125, Type (0, 1), BuildingBlock: MIFKUJ_clean_linker_0, # of connection points: 2
#     Edge 126, Type (0, 1), BuildingBlock: MIFKUJ_clean_linker_0, # of connection points: 2
#     Edge 127, Type (0, 1), BuildingBlock: MIFKUJ_clean_linker_0, # of connection points: 2
#     Edge 128, Type (0, 1), BuildingBlock: MIFKUJ_clean_linker_0, # of connection points: 2
#     Edge 129, Type (0, 1), BuildingBlock: MIFKUJ_clean_linker_0, # of connection points: 2
#     Edge 130, Type (0, 1), BuildingBlock: MIFKUJ_clean_linker_0, # of connection points: 2
#     Edge 131, Type (0, 1), BuildingBlock: MIFKUJ_clean_linker_0, # of connection points: 2
#     Edge 132, Type (0, 1), BuildingBlock: MIFKUJ_clean_linker_0, # of connection points: 2
#     Edge 133, Type (0, 1), BuildingBlock: MIFKUJ_clean_linker_0, # of connection points: 2
#     Edge 134, Type (0, 1), BuildingBlock: MIFKUJ_clean_linker_0, # of connection points: 2
#     Edge 135, Type (0, 1), BuildingBlock: MIFKUJ_clean_linker_0, # of connection points: 2
# Relax obj value: 0.179
# Max RMSD: 0.285
# Mean RMSD: 0.169
data_MOF--net-gar--node1-GALJAG_clean_sbu_0--node2-BETDAH_clean_sbu_0--edge1-MIFKUJ_clean_linker_0
_symmetry_space_group_name_H-M    P1
_symmetry_Int_Tables_number       1
_symmetry_cell_setting            triclinic
loop_
_symmetry_equiv_pos_as_xyz
'x, y, z'
_cell_length_a     78.530374
_cell_length_b     72.932878
_cell_length_c     73.224507
_cell_angle_alpha  98.136123
_cell_angle_beta   94.957577
_cell_angle_gamma 102.1857
loop_
_atom_site_label
_atom_site_type_symbol
_atom_site_fract_x
_atom_site_fract_y
_atom_site_fract_z
_atom_type_partial_charge
In0 In 0.0906 0.32626 0.39337 0.0
O1 O 0.10629 0.33073 0.36941 0.0
O2 O 0.11736 0.31938 0.39166 0.0
C3 C 0.06001 0.32174 0.37301 0.0
C4 C 0.08315 0.29353 0.40664 0.0
C5 C 0.09298 0.36157 0.41127 0.0
O6 O 0.07383 0.32034 0.36583 0.0
O7 O 0.06161 0.32511 0.39055 0.0
O8 O 0.09125 0.34752 0.4198 0.0
O9 O 0.09509 0.35788 0.39446 0.0
C10 C 0.11873 0.32429 0.37592 0.0
O11 O 0.09429 0.30783 0.41561 0.0
O12 O 0.07623 0.29583 0.39121 0.0
In13 In 0.99705 0.7596 0.65629 0.0
O14 O 0.99945 0.77267 0.63016 0.0
O15 O 1.00151 0.79108 0.65596 0.0
C16 C 0.99312 0.72347 0.6412 0.0
C17 C 0.02968 0.76625 0.67248 0.0
C18 C 0.9687 0.7588 0.67342 0.0
O19 O 0.98684 0.73501 0.63285 0.0
O20 O 1.00086 0.73007 0.65732 0.0
O21 O 0.98393 0.76384 0.6821 0.0
O22 O 0.96783 0.75456 0.65602 0.0
C23 C 1.00254 0.78949 0.63876 0.0
O24 O 0.0169 0.76597 0.6819 0.0
O25 O 0.02582 0.76292 0.65506 0.0
In26 In 0.58896 0.82221 0.89237 0.0
O27 O 0.59899 0.81177 0.86647 0.0
O28 O 0.61805 0.82598 0.88949 0.0
C29 C 0.5574 0.82052 0.87584 0.0
C30 C 0.58315 0.79003 0.90615 0.0
C31 C 0.59177 0.85775 0.90851 0.0
O32 O 0.5711 0.82629 0.86855 0.0
O33 O 0.55956 0.81553 0.89152 0.0
O34 O 0.59165 0.84459 0.91809 0.0
O35 O 0.5918 0.85306 0.89132 0.0
C36 C 0.6149 0.81738 0.87291 0.0
O37 O 0.59206 0.80533 0.916 0.0
O38 O 0.5778 0.79129 0.88978 0.0
In39 In 0.49728 0.26177 0.1576 0.0
O40 O 0.48791 0.24029 0.13196 0.0
O41 O 0.49735 0.23053 0.15628 0.0
C42 C 0.50319 0.29138 0.13939 0.0
C43 C 0.46946 0.25989 0.17605 0.0
C44 C 0.52986 0.26641 0.1738 0.0
O45 O 0.50069 0.27445 0.13144 0.0
O46 O 0.50149 0.29342 0.15644 0.0
O47 O 0.51813 0.27179 0.18248 0.0
O48 O 0.52498 0.25843 0.15723 0.0
C49 C 0.49166 0.22669 0.13917 0.0
O50 O 0.4849 0.26503 0.18414 0.0
O51 O 0.468 0.25602 0.15859 0.0
In52 In 0.07015 0.80821 0.12464 0.0
O53 O 0.06507 0.78531 0.09804 0.0
O54 O 0.0708 0.77729 0.12423 0.0
C55 C 0.07011 0.84021 0.10865 0.0
C56 C 0.03851 0.80192 0.138 0.0
C57 C 0.10112 0.81225 0.14707 0.0
O58 O 0.07317 0.82521 0.09993 0.0
O59 O 0.06758 0.83915 0.12528 0.0
O60 O 0.08617 0.80868 0.15257 0.0
O61 O 0.10072 0.81481 0.13033 0.0
C62 C 0.0668 0.77202 0.10698 0.0
O63 O 0.05202 0.81324 0.14701 0.0
O64 O 0.0408 0.79431 0.12214 0.0
In65 In 0.51009 0.77095 0.41369 0.0
O66 O 0.52838 0.76436 0.39124 0.0
O67 O 0.5393 0.78549 0.41459 0.0
C68 C 0.47728 0.77042 0.39497 0.0
C69 C 0.51234 0.74083 0.43202 0.0
C70 C 0.51488 0.80535 0.43467 0.0
O71 O 0.49122 0.7723 0.3873 0.0
O72 O 0.47957 0.76707 0.41131 0.0
O73 O 0.51299 0.79031 0.44171 0.0
O74 O 0.51461 0.80295 0.41724 0.0
C75 C 0.54191 0.77637 0.39953 0.0
O76 O 0.50815 0.75568 0.43942 0.0
O77 O 0.51439 0.74057 0.41506 0.0
In78 In 0.5722 0.30902 0.62735 0.0
O79 O 0.57612 0.28674 0.60304 0.0
O80 O 0.56001 0.27734 0.6232 0.0
C81 C 0.572 0.34053 0.61021 0.0
C82 C 0.54138 0.30394 0.64267 0.0
C83 C 0.60354 0.31145 0.64908 0.0
O84 O 0.56837 0.32372 0.60151 0.0
O85 O 0.57636 0.3416 0.62739 0.0
O86 O 0.59052 0.31665 0.65534 0.0
O87 O 0.6011 0.30577 0.63175 0.0
C88 C 0.56641 0.2729 0.60849 0.0
O89 O 0.55617 0.30679 0.65223 0.0
O90 O 0.54221 0.30449 0.62561 0.0
In91 In 0.01077 0.27172 0.9141 0.0
O92 O 0.00635 0.25476 0.93857 0.0
O93 O 0.01738 0.24257 0.91572 0.0
C94 C 0.01499 0.30568 0.93588 0.0
C95 C 0.04237 0.27715 0.89972 0.0
C96 C 0.97834 0.27115 0.89459 0.0
O97 O 0.01648 0.29104 0.9427 0.0
O98 O 0.0115 0.303 0.91849 0.0
O99 O 0.99298 0.27828 0.88972 0.0
O100 O 0.97984 0.26244 0.90819 0.0
C101 C 0.01299 0.24134 0.93179 0.0
O102 O 0.02888 0.26499 0.89153 0.0
O103 O 0.03975 0.28648 0.91464 0.0
In104 In 0.42596 0.03766 0.29531 0.0
O105 O 0.4482 0.03999 0.27724 0.0
O106 O 0.42135 0.03106 0.26486 0.0
C107 C 0.44069 0.03894 0.32907 0.0
C108 C 0.41022 0.0659 0.2936 0.0
C109 C 0.41057 1.00147 0.28658 0.0
O110 O 0.44978 0.04397 0.31643 0.0
O111 O 0.42428 0.03494 0.32486 0.0
O112 O 0.4021 0.01442 0.28713 0.0
O113 O 0.42679 1.00669 0.292 0.0
C114 C 0.43735 0.03356 0.26273 0.0
O115 O 0.4028 0.05057 0.29847 0.0
O116 O 0.4263 0.0677 0.29165 0.0
In117 In 0.28191 0.18862 0.50501 0.0
O118 O 0.28251 0.21564 0.52675 0.0
O119 O 0.29043 0.1923 0.53614 0.0
C120 C 0.28432 0.20356 0.4723 0.0
C121 C 0.31037 0.17333 0.51005 0.0
C122 C 0.2484 0.16659 0.50282 0.0
O123 O 0.28241 0.21311 0.48749 0.0
O124 O 0.28511 0.18667 0.47359 0.0
O125 O 0.26111 0.16008 0.49743 0.0
O126 O 0.25239 0.18423 0.50865 0.0
C127 C 0.28798 0.20875 0.54044 0.0
O128 O 0.29492 0.16466 0.51139 0.0
O129 O 0.31155 0.18952 0.50526 0.0
In130 In 0.16171 0.01718 0.77815 0.0
O131 O 0.13534 0.01064 0.75615 0.0
O132 O 0.15917 0.01554 0.74516 0.0
C133 C 0.1438 0.01887 0.8122 0.0
C134 C 0.17951 0.98536 0.77446 0.0
C135 C 0.182 0.05553 0.78029 0.0
O136 O 0.13927 0.02473 0.79745 0.0
O137 O 0.15703 0.0118 0.80992 0.0
O138 O 0.18771 0.04271 0.78727 0.0
O139 O 0.1664 0.04925 0.77283 0.0
C140 C 0.14269 0.0125 0.74152 0.0
O141 O 0.18708 1.00289 0.77731 0.0
O142 O 0.16298 0.9836 0.77352 0.0
In143 In 0.30003 0.92186 0.0096 0.0
O144 O 0.29556 0.89902 0.02766 0.0
O145 O 0.30482 0.92829 0.0402 0.0
C146 C 0.29857 0.90356 0.97558 0.0
C147 C 0.27469 0.94017 0.01355 0.0
C148 C 0.33386 0.93658 0.01259 0.0
O149 O 0.29597 0.89471 0.98911 0.0
O150 O 0.30024 0.92131 0.97913 0.0
O151 O 0.32261 0.94525 0.00696 0.0
O152 O 0.328 0.92036 0.01653 0.0
C153 C 0.30086 0.91114 0.04234 0.0
O154 O 0.29066 0.94857 0.01572 0.0
O155 O 0.27132 0.9224 0.00808 0.0
In156 In 0.30386 0.39529 0.03738 0.0
O157 O 0.2939 0.36913 0.0513 0.0
O158 O 0.30667 0.39461 0.06906 0.0
C159 C 0.30123 0.37586 1.00282 0.0
C160 C 0.2741 0.40933 0.03344 0.0
C161 C 0.33846 0.41419 0.03731 0.0
O162 O 0.30143 0.36773 0.017 0.0
O163 O 0.30246 0.39361 0.00622 0.0
O164 O 0.32637 0.42281 0.0407 0.0
O165 O 0.3333 0.39633 0.03494 0.0
C166 C 0.29867 0.37746 0.0678 0.0
O167 O 0.2877 0.41847 0.04409 0.0
O168 O 0.27568 0.39366 0.02499 0.0
In169 In 0.78027 0.14915 0.02869 0.0
O170 O 0.79296 0.12382 0.02711 0.0
O171 O 0.80897 0.15201 0.03116 0.0
C172 C 0.74608 0.13568 0.02195 0.0
C173 C 0.78312 0.16784 0.06284 0.0
C174 C 0.78102 0.16388 0.99776 0.0
O175 O 0.75645 0.12453 0.02242 0.0
O176 O 0.75308 0.15321 0.02565 0.0
O177 O 0.78467 0.17404 0.01363 0.0
O178 O 0.77784 0.14616 0.99754 0.0
C179 C 0.80819 0.13444 0.02895 0.0
O180 O 0.78977 0.17529 0.04985 0.0
O181 O 0.77514 0.15056 0.05879 0.0
In182 In 0.16791 0.54633 0.25353 0.0
O183 O 0.18969 0.53139 0.24911 0.0
O184 O 0.16496 0.51626 0.25566 0.0
C185 C 0.18259 0.58249 0.26036 0.0
C186 C 0.15019 0.5432 0.22129 0.0
C187 C 0.15469 0.54952 0.28527 0.0
O188 O 0.19178 0.5702 0.26061 0.0
O189 O 0.16638 0.57632 0.25553 0.0
O190 O 0.14514 0.54479 0.26983 0.0
O191 O 0.17095 0.55112 0.28467 0.0
C192 C 0.18047 0.5162 0.25262 0.0
O193 O 0.14308 0.53875 0.2353 0.0
O194 O 0.16673 0.54801 0.2232 0.0
In195 In 0.80362 0.89354 0.53729 0.0
O196 O 0.79393 0.8677 0.55141 0.0
O197 O 0.80883 0.89246 0.56896 0.0
C198 C 0.8001 0.87451 0.5023 0.0
C199 C 0.77368 0.90762 0.5349 0.0
C200 C 0.83816 0.91264 0.53732 0.0
O201 O 0.8016 0.86643 0.51632 0.0
O202 O 0.80043 0.89199 0.50599 0.0
O203 O 0.82601 0.92111 0.54094 0.0
O204 O 0.8331 0.89473 0.53473 0.0
C205 C 0.8003 0.87546 0.56773 0.0
O206 O 0.78893 0.91833 0.53799 0.0
O207 O 0.77362 0.89024 0.5337 0.0
In208 In 0.92522 0.06334 0.26518 0.0
O209 O 0.95097 0.06888 0.24894 0.0
O210 O 0.92741 0.0581 0.23196 0.0
C211 C 0.94554 0.06534 0.29998 0.0
C212 C 0.90924 0.09704 0.26786 0.0
C213 C 0.90594 0.0243 0.26509 0.0
O214 O 0.95102 0.06266 0.28429 0.0
O215 O 0.93016 0.06825 0.29845 0.0
O216 O 0.89922 0.03688 0.25879 0.0
O217 O 0.92192 0.03114 0.27089 0.0
C218 C 0.94391 0.06345 0.23233 0.0
O219 O 0.90085 0.07977 0.26426 0.0
O220 O 0.92554 0.09753 0.27036 0.0
In221 In 0.28173 0.64773 0.52895 0.0
O222 O 0.29497 0.62371 0.53354 0.0
O223 O 0.30892 0.64819 0.52353 0.0
C224 C 0.24756 0.63468 0.52438 0.0
C225 C 0.28539 0.67031 0.56129 0.0
C226 C 0.2799 0.65723 0.49559 0.0
O227 O 0.25782 0.6234 0.5245 0.0
O228 O 0.25471 0.65217 0.52758 0.0
O229 O 0.28748 0.66902 0.50981 0.0
O230 O 0.27399 0.64045 0.49816 0.0
C231 C 0.30875 0.63201 0.52768 0.0
O232 O 0.28881 0.67656 0.54649 0.0
O233 O 0.28107 0.65244 0.55993 0.0
In234 In 0.42516 0.56341 0.76449 0.0
O235 O 0.40089 0.57942 0.75857 0.0
O236 O 0.4233 0.59654 0.77397 0.0
C237 C 0.40579 0.5247 0.76411 0.0
C238 C 0.44379 0.56295 0.73147 0.0
C239 C 0.44511 0.56392 0.79928 0.0
O240 O 0.39864 0.53883 0.76389 0.0
O241 O 0.42217 0.52988 0.76367 0.0
O242 O 0.45173 0.57063 0.7858 0.0
O243 O 0.42872 0.55794 0.79565 0.0
C244 C 0.40797 0.59624 0.76676 0.0
O245 O 0.44789 0.57555 0.74586 0.0
O246 O 0.43026 0.55073 0.73336 0.0
In247 In 0.66741 0.04786 0.75513 0.0
O248 O 0.691 0.03587 0.75419 0.0
O249 O 0.66559 0.0168 0.75101 0.0
C250 C 0.68161 0.08427 0.76374 0.0
C251 C 0.65137 0.04698 0.72229 0.0
C252 C 0.65461 0.04472 0.78688 0.0
O253 O 0.69095 0.07222 0.76108 0.0
O254 O 0.66526 0.07786 0.76107 0.0
O255 O 0.64497 0.03932 0.7715 0.0
O256 O 0.67078 0.05027 0.78591 0.0
C257 C 0.68207 0.019 0.75241 0.0
O258 O 0.64362 0.0479 0.73663 0.0
O259 O 0.66722 0.04595 0.72432 0.0
In260 In 0.78161 0.68788 1.00434 0.0
O261 O 0.79649 0.6637 1.0022 0.0
O262 O 0.81031 0.69114 0.01568 0.0
C263 C 0.74848 0.66567 1.00145 0.0
C264 C 0.78454 0.70602 0.04017 0.0
C265 C 0.78322 0.70389 0.97209 0.0
O266 O 0.76137 0.65901 0.99676 0.0
O267 O 0.75216 0.68339 0.00703 0.0
O268 O 0.77999 0.71249 0.98719 0.0
O269 O 0.78556 0.68753 0.97333 0.0
C270 C 0.81069 0.67402 0.01078 0.0
O271 O 0.79212 0.71389 0.02775 0.0
O272 O 0.77527 0.6895 0.03436 0.0
In273 In 0.92374 0.53334 0.79346 0.0
O274 O 0.90012 0.54595 0.79372 0.0
O275 O 0.92442 0.56298 0.78841 0.0
C276 C 0.91147 0.49698 0.79307 0.0
C277 C 0.93163 0.52694 0.75955 0.0
C278 C 0.94015 0.53946 0.8271 0.0
O279 O 0.90214 0.50905 0.79595 0.0
O280 O 0.92712 0.50325 0.79035 0.0
O281 O 0.94863 0.54202 0.8134 0.0
O282 O 0.92369 0.53552 0.82378 0.0
C283 C 0.90828 0.5614 0.78967 0.0
O284 O 0.9433 0.53553 0.77285 0.0
O285 O 0.91613 0.52231 0.76348 0.0
In286 In 0.79225 0.41656 0.50672 0.0
O287 O 0.79229 0.39438 0.52525 0.0
O288 O 0.79584 0.42368 0.53746 0.0
C289 C 0.79345 0.39947 0.47279 0.0
C290 C 0.76455 0.43121 0.50836 0.0
C291 C 0.82495 0.43564 0.51222 0.0
O292 O 0.78949 0.38994 0.48558 0.0
O293 O 0.79485 0.41712 0.47684 0.0
O294 O 0.81234 0.44378 0.51079 0.0
O295 O 0.82096 0.41781 0.51085 0.0
C296 C 0.79541 0.40682 0.53982 0.0
O297 O 0.77884 0.4402 0.5042 0.0
O298 O 0.76372 0.41399 0.50992 0.0
In299 In 0.66188 0.5163 0.27767 0.0
O300 O 0.68279 0.49862 0.26508 0.0
O301 O 0.66828 0.48628 0.28411 0.0
C302 C 0.68192 0.55465 0.2808 0.0
C303 C 0.64249 0.51342 0.2416 0.0
C304 C 0.64399 0.51908 0.31135 0.0
O305 O 0.68758 0.54187 0.288 0.0
O306 O 0.66653 0.5483 0.27269 0.0
O307 O 0.63618 0.51403 0.29487 0.0
O308 O 0.66044 0.52271 0.31088 0.0
C309 C 0.67993 0.48448 0.27352 0.0
O310 O 0.63736 0.50267 0.25327 0.0
O311 O 0.65679 0.52493 0.24803 0.0
Ho312 Ho 0.03186 0.03842 0.01499 0.0
Ho313 Ho 0.0671 0.05607 0.03729 0.0
C314 C 0.04671 0.08417 0.01949 0.0
C315 C 0.99851 0.02938 0.00501 0.0
C316 C 0.98514 0.04065 0.00463 0.0
C317 C 0.98545 0.05591 0.01883 0.0
C318 C 0.97285 0.06679 0.01766 0.0
C319 C 0.95996 0.06268 1.00217 0.0
C320 C 0.96029 0.04799 0.98765 0.0
C321 C 0.9727 0.03701 0.98894 0.0
C322 C 0.05652 0.03681 0.98964 0.0
C323 C 0.0515 0.01049 0.0342 0.0
C324 C 0.10059 0.06521 0.04685 0.0
C325 C 0.11383 0.05374 0.04836 0.0
C326 C 0.11684 0.04166 0.03285 0.0
C327 C 0.12883 0.03024 0.03481 0.0
C328 C 0.13785 0.03046 0.05232 0.0
C329 C 0.13466 0.0424 0.06783 0.0
C330 C 0.12283 0.054 0.06583 0.0
C331 C 0.04265 0.05766 0.0627 0.0
O332 O 0.03294 0.06969 0.01578 0.0
O333 O 0.06205 0.0823 0.02694 0.0
O334 O 0.01004 0.03302 0.99351 0.0
O335 O 1.00554 0.0275 0.02131 0.0
O336 O 0.03976 0.0302 0.98617 0.0
O337 O 0.05942 0.04353 0.00721 0.0
O338 O 0.06519 0.025 0.03893 0.0
O339 O 0.03673 0.01206 0.02513 0.0
O340 O 0.08918 0.06323 0.05873 0.0
O341 O 0.09337 0.06562 0.03019 0.0
O342 O 0.05939 0.06461 0.06589 0.0
O343 O 0.03948 0.0509 0.04514 0.0
H344 H 0.99532 0.05933 0.03082 0.0
H345 H 0.97287 0.07798 0.0291 0.0
H346 H 0.95077 0.04478 0.97537 0.0
H347 H 0.97261 0.02566 0.97762 0.0
H348 H 0.10997 0.04099 0.01921 0.0
H349 H 0.13123 0.02149 0.02249 0.0
H350 H 0.14125 0.04273 0.08154 0.0
H351 H 0.12054 0.06304 0.07802 0.0
Ho352 Ho 0.29335 0.8047 0.27609 0.0
Ho353 Ho 0.27356 0.80802 0.30461 0.0
C354 C 0.2929 0.84536 0.29783 0.0
C355 C 0.3101 0.80801 0.24757 0.0
C356 C 0.31607 0.82325 0.23723 0.0
C357 C 0.30671 0.83745 0.23552 0.0
C358 C 0.31185 0.85072 0.22398 0.0
C359 C 0.32635 0.8498 0.21424 0.0
C360 C 0.33655 0.83669 0.21739 0.0
C361 C 0.33138 0.82342 0.22882 0.0
C362 C 0.31223 0.79885 0.30693 0.0
C363 C 0.27511 0.76762 0.28677 0.0
C364 C 0.25331 0.80557 0.33053 0.0
C365 C 0.2498 0.79391 0.34471 0.0
C366 C 0.26114 0.7823 0.34895 0.0
C367 C 0.25787 0.77136 0.36277 0.0
C368 C 0.24317 0.77182 0.37232 0.0
C369 C 0.23146 0.78291 0.36755 0.0
C370 C 0.23483 0.79402 0.35374 0.0
C371 C 0.25632 0.81279 0.27189 0.0
O372 O 0.29254 0.83545 0.28133 0.0
O373 O 0.28899 0.83702 0.31189 0.0
O374 O 0.3178 0.81064 0.26446 0.0
O375 O 0.29319 0.80138 0.2463 0.0
O376 O 0.30993 0.78865 0.29062 0.0
O377 O 0.30313 0.81152 0.3067 0.0
O378 O 0.27667 0.77842 0.30293 0.0
O379 O 0.27829 0.77509 0.27191 0.0
O380 O 0.24877 0.79642 0.31364 0.0
O381 O 0.26882 0.81696 0.33271 0.0
O382 O 0.25796 0.82385 0.28759 0.0
O383 O 0.26452 0.79996 0.27411 0.0
H384 H 0.29503 0.8377 0.24234 0.0
H385 H 0.30374 0.86066 0.22152 0.0
H386 H 0.34778 0.83587 0.20994 0.0
H387 H 0.33889 0.81275 0.23042 0.0
H388 H 0.2726 0.78193 0.34178 0.0
H389 H 0.26699 0.76277 0.36622 0.0
H390 H 0.22008 0.7834 0.37482 0.0
H391 H 0.2259 0.80282 0.35026 0.0
Ho392 Ho 0.55464 0.03446 0.52938 0.0
Ho393 Ho 0.51398 0.03297 0.53203 0.0
C394 C 0.52536 0.99404 0.5236 0.0
C395 C 0.58593 0.02781 0.53287 0.0
C396 C 0.59587 0.01276 0.52772 0.0
C397 C 0.59735 0.99897 0.53905 0.0
C398 C 0.60932 0.98724 0.53615 0.0
C399 C 0.61998 0.9887 0.52162 0.0
C400 C 0.61751 1.0016 0.50952 0.0
C401 C 0.6058 0.01354 0.51264 0.0
C402 C 0.53472 0.03512 0.49808 0.0
C403 C 0.54307 0.07378 0.5386 0.0
C404 C 0.48232 0.03831 0.52931 0.0
C405 C 0.47259 0.05359 0.53321 0.0
C406 C 0.46635 0.06163 0.51842 0.0
C407 C 0.45572 0.07465 0.52124 0.0
C408 C 0.45105 0.08021 0.53895 0.0
C409 C 0.4574 0.07229 0.55389 0.0
C410 C 0.46803 0.05909 0.55104 0.0
C411 C 0.53376 0.03097 0.56251 0.0
O412 O 0.54182 1.00348 0.52901 0.0
O413 O 0.51232 1.00256 0.52062 0.0
O414 O 0.58011 0.03601 0.51958 0.0
O415 O 0.57502 0.02533 0.54536 0.0
O416 O 0.55133 0.04316 0.50113 0.0
O417 O 0.53029 0.02594 0.51069 0.0
O418 O 0.52657 0.06414 0.53363 0.0
O419 O 0.55644 0.06532 0.54017 0.0
O420 O 0.48934 0.03217 0.54347 0.0
O421 O 0.4923 0.03947 0.51586 0.0
O422 O 0.51744 0.02193 0.55898 0.0
O423 O 0.53818 0.04125 0.55071 0.0
H424 H 0.59 0.99792 0.55086 0.0
H425 H 0.61076 0.97769 0.54593 0.0
H426 H 0.62492 1.00286 0.49779 0.0
H427 H 0.605 0.02388 0.50352 0.0
H428 H 0.46927 0.05742 0.50446 0.0
H429 H 0.45057 0.07984 0.50934 0.0
H430 H 0.45411 0.07621 0.56775 0.0
H431 H 0.4724 0.05299 0.56275 0.0
Ho432 Ho 0.27766 0.29319 0.77456 0.0
Ho433 Ho 0.31606 0.28338 0.77549 0.0
C434 C 0.30257 0.29746 0.8136 0.0
C435 C 0.24472 0.29073 0.77938 0.0
C436 C 0.23287 0.2926 0.79425 0.0
C437 C 0.22614 0.27704 0.80297 0.0
C438 C 0.21303 0.27783 0.81479 0.0
C439 C 0.20614 0.29418 0.81828 0.0
C440 C 0.21342 0.31005 0.81022 0.0
C441 C 0.2265 0.30923 0.79831 0.0
C442 C 0.30376 0.32634 0.77427 0.0
C443 C 0.29099 0.27681 0.73606 0.0
C444 C 0.34877 0.28615 0.77057 0.0
C445 C 0.35982 0.27986 0.75645 0.0
C446 C 0.36198 0.28867 0.74063 0.0
C447 C 0.37428 0.2848 0.72876 0.0
C448 C 0.38481 0.272 0.73233 0.0
C449 C 0.38215 0.2626 0.74773 0.0
C450 C 0.36984 0.26653 0.75967 0.0
C451 C 0.29002 0.25086 0.77707 0.0
O452 O 0.28657 0.29491 0.80487 0.0
O453 O 0.31658 0.29605 0.80518 0.0
O454 O 0.2551 0.30611 0.77603 0.0
O455 O 0.25221 0.27627 0.77797 0.0
O456 O 0.28693 0.325 0.77359 0.0
O457 O 0.30539 0.30923 0.77485 0.0
O458 O 0.30634 0.27714 0.74525 0.0
O459 O 0.27776 0.28208 0.74403 0.0
O460 O 0.34025 0.27352 0.77958 0.0
O461 O 0.33963 0.29836 0.76639 0.0
O462 O 0.30684 0.25188 0.77812 0.0
O463 O 0.2886 0.2678 0.77562 0.0
H464 H 0.23058 0.26395 0.80021 0.0
H465 H 0.20805 0.26542 0.82096 0.0
H466 H 0.20845 0.32285 0.81242 0.0
H467 H 0.23118 0.32144 0.79174 0.0
H468 H 0.35464 0.29915 0.73771 0.0
H469 H 0.37606 0.29256 0.71725 0.0
H470 H 0.38983 0.25246 0.7508 0.0
H471 H 0.36857 0.25956 0.77176 0.0
Ho472 Ho 0.04272 0.05233 0.5241 0.0
Ho473 Ho 0.04963 0.0116 0.50799 0.0
C474 C 0.0326 0.03471 0.47873 0.0
C475 C 0.04498 0.08846 0.52867 0.0
C476 C 0.04572 0.10185 0.51527 0.0
C477 C 0.057 0.10175 0.50137 0.0
C478 C 0.05733 0.11441 0.48871 0.0
C479 C 0.04618 0.12718 0.48948 0.0
C480 C 0.03437 0.12668 0.50285 0.0
C481 C 0.03419 0.11416 0.51566 0.0
C482 C 0.01364 0.02404 0.52503 0.0
C483 C 0.06049 0.02945 0.55349 0.0
C484 C 0.0469 0.97546 0.50161 0.0
C485 C 0.04911 0.96199 0.51422 0.0
C486 C 0.0419 0.96285 0.53115 0.0
C487 C 0.04483 0.95054 0.54339 0.0
C488 C 0.05508 0.93732 0.53894 0.0
C489 C 0.06256 0.93672 0.52221 0.0
C490 C 0.05964 0.94904 0.50995 0.0
C491 C 0.07824 0.03994 0.5061 0.0
O492 O 0.03498 0.04931 0.49265 0.0
O493 O 0.03674 0.01834 0.48126 0.0
O494 O 0.0301 0.07601 0.52722 0.0
O495 O 0.0586 0.08102 0.53142 0.0
O496 O 0.01525 0.04191 0.53142 0.0
O497 O 0.02828 0.02252 0.51959 0.0
O498 O 0.05892 0.01503 0.53941 0.0
O499 O 0.05531 0.04539 0.55104 0.0
O500 O 0.06126 0.98776 0.50025 0.0
O501 O 0.03332 0.98314 0.50291 0.0
O502 O 0.07685 0.02203 0.50012 0.0
O503 O 0.06378 0.04139 0.51201 0.0
H504 H 0.06552 0.0919 0.5002 0.0
H505 H 0.06635 0.11423 0.47832 0.0
H506 H 0.02564 0.13637 0.50379 0.0
H507 H 0.02508 0.11415 0.52597 0.0
H508 H 0.03401 0.97299 0.53494 0.0
H509 H 0.03871 0.95104 0.55611 0.0
H510 H 0.0706 0.92667 0.5186 0.0
H511 H 0.06563 0.9485 0.49716 0.0
Ho512 Ho 0.3159 0.81096 0.76563 0.0
Ho513 Ho 0.28333 0.7815 0.76706 0.0
C514 C 0.31923 0.76538 0.76903 0.0
C515 C 0.3464 0.83318 0.77345 0.0
C516 C 0.36387 0.82917 0.77543 0.0
C517 C 0.36843 0.81861 0.78894 0.0
C518 C 0.38472 0.81408 0.79013 0.0
C519 C 0.39668 0.82 0.77783 0.0
C520 C 0.3921 0.83033 0.76416 0.0
C521 C 0.37574 0.83489 0.76296 0.0
C522 C 0.29998 0.79261 0.73256 0.0
C523 C 0.27968 0.82661 0.76351 0.0
C524 C 0.2523 0.76058 0.75889 0.0
C525 C 0.23597 0.76626 0.75394 0.0
C526 C 0.23559 0.77967 0.74197 0.0
C527 C 0.22022 0.78552 0.73769 0.0
C528 C 0.20499 0.77803 0.74528 0.0
C529 C 0.2055 0.765 0.75765 0.0
C530 C 0.22094 0.75917 0.76197 0.0
C531 C 0.29964 0.80052 0.79981 0.0
O532 O 0.32732 0.78389 0.77004 0.0
O533 O 0.30171 0.76074 0.76699 0.0
O534 O 0.33813 0.8287 0.75658 0.0
O535 O 0.33635 0.82826 0.78616 0.0
O536 O 0.30774 0.81052 0.73545 0.0
O537 O 0.30201 0.78544 0.74697 0.0
O538 O 0.27184 0.80812 0.76229 0.0
O539 O 0.29719 0.83152 0.76589 0.0
O540 O 0.25947 0.76666 0.77608 0.0
O541 O 0.26362 0.76258 0.74682 0.0
O542 O 0.29235 0.78245 0.79734 0.0
O543 O 0.29706 0.80722 0.78527 0.0
H544 H 0.35949 0.81386 0.79867 0.0
H545 H 0.38818 0.8065 0.80109 0.0
H546 H 0.40126 0.83508 0.75463 0.0
H547 H 0.37235 0.84285 0.75231 0.0
H548 H 0.24714 0.78562 0.73581 0.0
H549 H 0.22018 0.79572 0.72828 0.0
H550 H 0.19383 0.75886 0.7635 0.0
H551 H 0.22112 0.74906 0.77145 0.0
Ho552 Ho 0.5329 0.04161 0.02333 0.0
Ho553 Ho 0.52515 0.05047 0.9826 0.0
C554 C 0.49382 0.0424 0.00511 0.0
C555 C 0.53016 0.02946 0.05416 0.0
C556 C 0.51565 0.02544 0.06508 0.0
C557 C 0.50457 0.03806 0.06805 0.0
C558 C 0.49069 0.0337 0.07842 0.0
C559 C 0.48779 0.01668 0.08569 0.0
C560 C 0.49804 1.00348 0.08155 0.0
C561 C 0.51199 0.00788 0.0713 0.0
C562 C 0.53951 0.01817 0.99506 0.0
C563 C 0.56374 0.06491 0.00687 0.0
C564 C 0.52534 0.0494 0.94789 0.0
C565 C 0.53756 0.06262 0.9392 0.0
C566 C 0.55526 0.06157 0.93969 0.0
C567 C 0.56719 0.07511 0.93297 0.0
C568 C 0.5616 0.08979 0.92547 0.0
C569 C 0.54414 0.09136 0.92561 0.0
C570 C 0.53217 0.07784 0.93245 0.0
C571 C 0.5267 0.08099 0.00888 0.0
O572 O 0.50523 0.04475 0.0201 0.0
O573 O 0.49804 0.03973 0.98808 0.0
O574 O 0.52759 0.0182 0.03813 0.0
O575 O 0.53693 0.0474 0.05332 0.0
O576 O 0.54982 0.02419 0.01044 0.0
O577 O 0.52595 0.02491 0.99505 0.0
O578 O 0.55446 0.05917 0.99022 0.0
O579 O 0.55765 0.06217 0.02277 0.0
O580 O 0.51416 0.05699 0.95698 0.0
O581 O 0.53234 0.0379 0.95686 0.0
O582 O 0.52382 0.08157 0.99126 0.0
O583 O 0.52891 0.06487 0.01036 0.0
H584 H 0.50691 0.05144 0.06286 0.0
H585 H 0.48294 0.04411 0.0818 0.0
H586 H 0.49611 0.99046 0.08742 0.0
H587 H 0.5202 0.99781 0.0686 0.0
H588 H 0.55994 0.0502 0.94506 0.0
H589 H 0.5805 0.07331 0.93243 0.0
H590 H 0.5396 0.1024 0.91947 0.0
H591 H 0.51868 0.07918 0.93229 0.0
Ho592 Ho 0.28881 0.29597 0.26843 0.0
Ho593 Ho 0.27348 0.25488 0.25056 0.0
C594 C 0.24735 0.27803 0.26598 0.0
C595 C 0.29657 0.33231 0.2724 0.0
C596 C 0.28484 0.34515 0.27566 0.0
C597 C 0.26805 0.34074 0.26554 0.0
C598 C 0.25681 0.35283 0.26854 0.0
C599 C 0.26218 0.36943 0.28169 0.0
C600 C 0.27851 0.37339 0.29256 0.0
C601 C 0.28985 0.36123 0.28952 0.0
C602 C 0.28591 0.27526 0.29665 0.0
C603 C 0.31551 0.27061 0.25887 0.0
C604 C 0.26721 0.21914 0.23794 0.0
C605 C 0.27843 0.20558 0.23829 0.0
C606 C 0.28985 0.20605 0.25429 0.0
C607 C 0.30118 0.19376 0.25411 0.0
C608 C 0.30144 0.1812 0.23785 0.0
C609 C 0.29049 0.18109 0.2217 0.0
C610 C 0.27894 0.19321 0.22195 0.0
C611 C 0.2735 0.28091 0.2274 0.0
O612 O 0.25963 0.29339 0.26553 0.0
O613 O 0.2502 0.26081 0.26288 0.0
O614 O 0.29948 0.32317 0.28602 0.0
O615 O 0.29338 0.3214 0.25616 0.0
O616 O 0.29194 0.29343 0.2987 0.0
O617 O 0.2817 0.26882 0.27944 0.0
O618 O 0.3021 0.25578 0.25605 0.0
O619 O 0.31374 0.28821 0.26285 0.0
O620 O 0.27206 0.2322 0.22778 0.0
O621 O 0.26279 0.22593 0.25394 0.0
O622 O 0.26047 0.26672 0.22763 0.0
O623 O 0.2857 0.28062 0.23974 0.0
H624 H 0.26368 0.32815 0.25505 0.0
H625 H 0.24415 0.34957 0.26015 0.0
H626 H 0.28279 0.38628 0.30271 0.0
H627 H 0.3026 0.36452 0.29772 0.0
H628 H 0.29007 0.21592 0.26689 0.0
H629 H 0.30972 0.194 0.26663 0.0
H630 H 0.29062 0.17138 0.20909 0.0
H631 H 0.27049 0.19303 0.20939 0.0
Ho632 Ho 0.54377 0.54931 0.02261 0.0
Ho633 Ho 0.55038 0.51372 0.00781 0.0
C634 C 0.53481 0.53489 0.97734 0.0
C635 C 0.54167 0.58441 0.02685 0.0
C636 C 0.54158 0.59746 0.01324 0.0
C637 C 0.55448 0.59963 1.00101 0.0
C638 C 0.55457 0.6125 0.98863 0.0
C639 C 0.54175 0.62322 0.98814 0.0
C640 C 0.52832 0.62036 0.99956 0.0
C641 C 0.52826 0.60755 0.01207 0.0
C642 C 0.51648 0.51999 0.02529 0.0
C643 C 0.55994 0.52869 0.05333 0.0
C644 C 0.55292 0.47874 1.00197 0.0
C645 C 0.55465 0.46547 0.01495 0.0
C646 C 0.54501 0.46507 0.03022 0.0
C647 C 0.54697 0.45277 0.04273 0.0
C648 C 0.55876 0.4408 0.04037 0.0
C649 C 0.56866 0.4415 0.02527 0.0
C650 C 0.56661 0.45378 0.01265 0.0
C651 C 0.57713 0.54334 0.00495 0.0
O652 O 0.53953 0.54954 0.99112 0.0
O653 O 0.53633 0.5179 0.98068 0.0
O654 O 0.52794 0.57035 0.02493 0.0
O655 O 0.55633 0.57909 0.03036 0.0
O656 O 0.52272 0.53471 0.03808 0.0
O657 O 0.52508 0.52157 0.01147 0.0
O658 O 0.55572 0.51391 0.03953 0.0
O659 O 0.55769 0.54544 0.04991 0.0
O660 O 0.56633 0.49303 1.00312 0.0
O661 O 0.53796 0.48388 1.00055 0.0
O662 O 0.57078 0.52893 0.99188 0.0
O663 O 0.56891 0.54133 0.01892 0.0
H664 H 0.56467 0.59168 1.00122 0.0
H665 H 0.56488 0.61446 0.97972 0.0
H666 H 0.51837 0.62863 0.99936 0.0
H667 H 0.51802 0.60579 0.02111 0.0
H668 H 0.53587 0.47418 0.03246 0.0
H669 H 0.53891 0.45234 0.05402 0.0
H670 H 0.57796 0.43257 0.02322 0.0
H671 H 0.57437 0.45417 1.00111 0.0
Ho672 Ho 0.81568 0.31065 0.264 0.0
Ho673 Ho 0.78341 0.28126 0.26597 0.0
C674 C 0.81924 0.26508 0.26673 0.0
C675 C 0.84567 0.33416 0.2713 0.0
C676 C 0.86376 0.33203 0.27388 0.0
C677 C 0.87302 0.33747 0.29172 0.0
C678 C 0.88907 0.33288 0.2954 0.0
C679 C 0.89616 0.32295 0.28124 0.0
C680 C 0.88751 0.31855 0.2631 0.0
C681 C 0.87129 0.32299 0.25943 0.0
C682 C 0.79807 0.29433 0.23097 0.0
C683 C 0.77929 0.32586 0.26278 0.0
C684 C 0.75231 0.26029 0.2603 0.0
C685 C 0.73592 0.26546 0.25443 0.0
C686 C 0.73465 0.27488 0.23906 0.0
C687 C 0.71936 0.28052 0.23399 0.0
C688 C 0.70523 0.27714 0.2444 0.0
C689 C 0.70667 0.26843 0.26019 0.0
C690 C 0.72195 0.26254 0.26514 0.0
C691 C 0.80068 0.30016 0.29854 0.0
O692 O 0.82734 0.28356 0.2676 0.0
O693 O 0.80176 0.26051 0.26517 0.0
O694 O 0.83732 0.32887 0.25449 0.0
O695 O 0.83616 0.32845 0.28412 0.0
O696 O 0.80658 0.31196 0.2346 0.0
O697 O 0.80066 0.28597 0.2445 0.0
O698 O 0.77156 0.30725 0.26004 0.0
O699 O 0.79672 0.33094 0.26645 0.0
O700 O 0.75981 0.26864 0.27688 0.0
O701 O 0.76341 0.26004 0.24797 0.0
O702 O 0.79373 0.28204 0.29595 0.0
O703 O 0.7975 0.30685 0.28419 0.0
H704 H 0.86749 0.34456 0.303 0.0
H705 H 0.89581 0.33676 0.30943 0.0
H706 H 0.89294 0.31103 0.25201 0.0
H707 H 0.86441 0.31871 0.24549 0.0
H708 H 0.74545 0.278 0.23094 0.0
H709 H 0.71848 0.28737 0.22185 0.0
H710 H 0.69579 0.2656 0.26831 0.0
H711 H 0.72288 0.25573 0.2773 0.0
Ho712 Ho 0.03512 0.55036 0.52473 0.0
Ho713 Ho 0.02633 0.54941 0.48345 0.0
C714 C 0.99567 0.53559 0.50496 0.0
C715 C 0.0371 0.55511 0.56033 0.0
C716 C 0.02705 0.54603 0.57384 0.0
C717 C 0.0175 0.55661 0.58464 0.0
C718 C 0.00791 0.54856 0.59768 0.0
C719 C 0.00795 0.52989 0.60037 0.0
C720 C 0.0171 0.51904 0.58927 0.0
C721 C 0.02665 0.52709 0.57605 0.0
C722 C 0.03814 0.51842 0.50314 0.0
C723 C 0.06587 0.56445 0.50303 0.0
C724 C 0.02534 0.54802 0.44832 0.0
C725 C 0.03758 0.56019 0.43862 0.0
C726 C 0.05347 0.55537 0.43505 0.0
C727 C 0.06651 0.56826 0.42902 0.0
C728 C 0.06379 0.58603 0.42596 0.0
C729 C 0.04777 0.59077 0.42893 0.0
C730 C 0.03476 0.57796 0.43537 0.0
C731 C 0.02372 0.58112 0.50587 0.0
O732 O 1.00577 0.54431 0.52035 0.0
O733 O 1.00176 0.53176 0.48907 0.0
O734 O 0.04631 0.54506 0.55085 0.0
O735 O 0.02886 0.56467 0.5502 0.0
O736 O 0.04811 0.52599 0.51849 0.0
O737 O 0.02621 0.52718 0.50064 0.0
O738 O 0.05581 0.5553 0.48773 0.0
O739 O 0.05969 0.56808 0.51888 0.0
O740 O 0.01538 0.55668 0.45816 0.0
O741 O 0.03203 0.53627 0.45714 0.0
O742 O 0.01275 0.57328 0.4913 0.0
O743 O 0.03556 0.57217 0.5073 0.0
H744 H 0.01747 0.57115 0.58301 0.0
H745 H 1.00049 0.557 0.60573 0.0
H746 H 0.01715 0.50456 0.59109 0.0
H747 H 0.03377 0.51854 0.56771 0.0
H748 H 0.05608 0.54181 0.43736 0.0
H749 H 0.07863 0.56413 0.42636 0.0
H750 H 0.04536 0.60429 0.42626 0.0
H751 H 0.02266 0.58212 0.43812 0.0
Ho752 Ho 0.77748 0.79289 0.27408 0.0
Ho753 Ho 0.81521 0.78123 0.27542 0.0
C754 C 0.80178 0.79556 0.31338 0.0
C755 C 0.74474 0.79227 0.27871 0.0
C756 C 0.73265 0.79315 0.2935 0.0
C757 C 0.72589 0.77714 0.3016 0.0
C758 C 0.71271 0.77744 0.31346 0.0
C759 C 0.70578 0.79371 0.31758 0.0
C760 C 0.71309 0.80995 0.31007 0.0
C761 C 0.72623 0.80964 0.29818 0.0
C762 C 0.80438 0.82493 0.2727 0.0
C763 C 0.7919 0.77846 0.23572 0.0
C764 C 0.84772 0.78041 0.27218 0.0
C765 C 0.85928 0.77828 0.25734 0.0
C766 C 0.8642 0.79264 0.24662 0.0
C767 C 0.87655 0.79121 0.2341 0.0
C768 C 0.88431 0.77542 0.23198 0.0
C769 C 0.87881 0.76068 0.24212 0.0
C770 C 0.8665 0.76215 0.2547 0.0
C771 C 0.78777 0.74993 0.27703 0.0
O772 O 0.78609 0.79435 0.30444 0.0
O773 O 0.81564 0.79292 0.30526 0.0
O774 O 0.75642 0.80771 0.27785 0.0
O775 O 0.75085 0.77697 0.27492 0.0
O776 O 0.78761 0.82408 0.27139 0.0
O777 O 0.80558 0.80779 0.27402 0.0
O778 O 0.80739 0.77981 0.24515 0.0
O779 O 0.77782 0.7813 0.2437 0.0
O780 O 0.83565 0.76544 0.27342 0.0
O781 O 0.84213 0.79615 0.27509 0.0
O782 O 0.80431 0.74981 0.278 0.0
O783 O 0.7874 0.76712 0.27573 0.0
H784 H 0.73041 0.76415 0.2984 0.0
H785 H 0.70776 0.76474 0.3192 0.0
H786 H 0.70813 0.82273 0.31269 0.0
H787 H 0.73095 0.82219 0.29211 0.0
H788 H 0.85885 0.80522 0.24819 0.0
H789 H 0.88028 0.80268 0.2263 0.0
H790 H 0.88459 0.74839 0.24096 0.0
H791 H 0.86301 0.75088 0.26281 0.0
Ho792 Ho 0.79514 0.30577 0.77282 0.0
Ho793 Ho 0.77844 0.31329 0.81128 0.0
C794 C 0.79012 0.34754 0.79057 0.0
C795 C 0.80226 0.30341 0.73924 0.0
C796 C 0.80894 0.31846 0.72873 0.0
C797 C 0.79895 0.33149 0.72447 0.0
C798 C 0.80572 0.34582 0.71467 0.0
C799 C 0.82259 0.34738 0.70917 0.0
C800 C 0.83294 0.3351 0.71449 0.0
C801 C 0.82609 0.32062 0.72402 0.0
C802 C 0.81988 0.30923 0.80313 0.0
C803 C 0.77472 0.27088 0.78953 0.0
C804 C 0.77336 0.31556 0.84535 0.0
C805 C 0.76255 0.30127 0.85409 0.0
C806 C 0.76342 0.2821 0.85 0.0
C807 C 0.75318 0.26853 0.85837 0.0
C808 C 0.74197 0.27397 0.87092 0.0
C809 C 0.74022 0.29286 0.87409 0.0
C810 C 0.75044 0.30647 0.86561 0.0
C811 C 0.7535 0.30874 0.78107 0.0
O812 O 0.79278 0.33593 0.77599 0.0
O813 O 0.78836 0.34273 0.80707 0.0
O814 O 0.81329 0.30191 0.75302 0.0
O815 O 0.78626 0.302 0.74352 0.0
O816 O 0.82267 0.30627 0.78599 0.0
O817 O 0.80406 0.31081 0.80279 0.0
O818 O 0.77325 0.28193 0.80495 0.0
O819 O 0.78184 0.27657 0.77508 0.0
O820 O 0.76455 0.32299 0.83352 0.0
O821 O 0.78749 0.31117 0.83934 0.0
O822 O 0.75069 0.31175 0.79834 0.0
O823 O 0.76949 0.30779 0.78138 0.0
H824 H 0.78581 0.33042 0.72833 0.0
H825 H 0.79736 0.35496 0.71052 0.0
H826 H 0.84605 0.33618 0.71054 0.0
H827 H 0.83415 0.31097 0.72757 0.0
H828 H 0.7724 0.27764 0.84081 0.0
H829 H 0.75499 0.25409 0.8561 0.0
H830 H 0.73172 0.29723 0.88393 0.0
H831 H 0.74926 0.32111 0.86844 0.0
Ho832 Ho 0.79008 0.7977 0.76794 0.0
Ho833 Ho 0.77366 0.75575 0.75196 0.0
C834 C 0.74855 0.78065 0.76673 0.0
C835 C 0.79704 0.83371 0.76875 0.0
C836 C 0.78584 0.84718 0.77283 0.0
C837 C 0.77281 0.84876 0.75909 0.0
C838 C 0.76144 0.86055 0.76319 0.0
C839 C 0.7629 0.87101 0.78108 0.0
C840 C 0.77577 0.86935 0.79488 0.0
C841 C 0.78721 0.85755 0.79077 0.0
C842 C 0.78684 0.7784 0.79722 0.0
C843 C 0.81601 0.77177 0.75788 0.0
C844 C 0.76699 0.71959 0.74168 0.0
C845 C 0.77869 0.70648 0.74154 0.0
C846 C 0.79265 0.70948 0.75575 0.0
C847 C 0.80415 0.69739 0.75524 0.0
C848 C 0.80192 0.68224 0.74048 0.0
C849 C 0.7884 0.67971 0.72589 0.0
C850 C 0.77681 0.6918 0.72644 0.0
C851 C 0.77402 0.78063 0.72774 0.0
O852 O 0.76115 0.79557 0.7659 0.0
O853 O 0.75068 0.76312 0.76382 0.0
O854 O 0.80231 0.82594 0.78264 0.0
O855 O 0.79183 0.82147 0.75341 0.0
O856 O 0.79333 0.79647 0.79855 0.0
O857 O 0.78246 0.77145 0.78013 0.0
O858 O 0.80254 0.75695 0.75525 0.0
O859 O 0.81462 0.78943 0.76231 0.0
O860 O 0.77002 0.73162 0.73011 0.0
O861 O 0.76438 0.72753 0.75809 0.0
O862 O 0.76073 0.76681 0.72834 0.0
O863 O 0.78619 0.78046 0.74012 0.0
H864 H 0.77134 0.84093 0.74511 0.0
H865 H 0.75189 0.86191 0.75216 0.0
H866 H 0.77709 0.87731 0.80879 0.0
H867 H 0.79704 0.85648 0.80165 0.0
H868 H 0.79465 0.72111 0.76726 0.0
H869 H 0.81469 0.69973 0.76649 0.0
H870 H 0.78649 0.66807 0.71439 0.0
H871 H 0.76636 0.68967 0.71515 0.0
Ho872 Ho 0.53175 0.5381 0.51464 0.0
Ho873 Ho 0.56507 0.55439 0.5355 0.0
C874 C 0.5454 0.58297 0.51896 0.0
C875 C 0.49846 0.52677 0.50416 0.0
C876 C 0.48511 0.53823 0.50578 0.0
C877 C 0.48771 0.55416 0.51988 0.0
C878 C 0.4758 0.56595 0.5205 0.0
C879 C 0.46112 0.56207 0.50698 0.0
C880 C 0.45861 0.54617 0.49288 0.0
C881 C 0.47052 0.53438 0.49228 0.0
C882 C 0.55718 0.54102 0.48994 0.0
C883 C 0.55097 0.50947 0.5338 0.0
C884 C 0.59836 0.56477 0.54669 0.0
C885 C 0.6126 0.55462 0.54788 0.0
C886 C 0.61497 0.54161 0.53278 0.0
C887 C 0.62818 0.53164 0.5345 0.0
C888 C 0.63894 0.53428 0.55142 0.0
C889 C 0.63627 0.54681 0.56668 0.0
C890 C 0.62323 0.55702 0.56488 0.0
C891 C 0.54111 0.55775 0.5616 0.0
O892 O 0.53141 0.5693 0.51871 0.0
O893 O 0.56104 0.57981 0.52294 0.0
O894 O 0.50984 0.53167 0.49282 0.0
O895 O 0.50589 0.52373 0.51973 0.0
O896 O 0.5416 0.54413 0.48755 0.0
O897 O 0.55886 0.5362 0.50633 0.0
O898 O 0.56415 0.52427 0.53909 0.0
O899 O 0.53679 0.51086 0.52342 0.0
O900 O 0.58647 0.56031 0.55759 0.0
O901 O 0.59158 0.56628 0.53016 0.0
O902 O 0.55787 0.56428 0.56445 0.0
O903 O 0.53769 0.55054 0.54435 0.0
H904 H 0.49905 0.55762 0.53031 0.0
H905 H 0.47816 0.57819 0.53143 0.0
H906 H 0.44727 0.54265 0.48245 0.0
H907 H 0.46842 0.52233 0.48118 0.0
H908 H 0.60665 0.53913 0.51968 0.0
H909 H 0.63005 0.52188 0.52263 0.0
H910 H 0.64454 0.54903 0.5798 0.0
H911 H 0.62139 0.56676 0.57677 0.0
Ho912 Ho 0.05384 0.53304 0.02751 0.0
Ho913 Ho 0.01366 0.53316 0.03064 0.0
C914 C 0.02434 0.49355 0.02546 0.0
C915 C 0.0853 0.52662 0.02919 0.0
C916 C 0.09548 0.51164 0.02517 0.0
C917 C 0.09998 0.50167 0.03928 0.0
C918 C 0.11204 0.49011 0.03704 0.0
C919 C 0.12008 0.48816 0.02064 0.0
C920 C 0.11488 0.49724 0.00606 0.0
C921 C 0.10281 0.50895 0.00835 0.0
C922 C 0.03319 0.53243 0.99645 0.0
C923 C 0.04323 0.57304 0.03467 0.0
C924 C 0.98222 0.53867 0.02717 0.0
C925 C 0.97301 0.55426 0.03149 0.0
C926 C 0.9709 0.56626 0.01849 0.0
C927 C 0.95988 0.57889 0.02105 0.0
C928 C 0.95086 0.57998 0.03679 0.0
C929 C 0.95391 0.569 0.05048 0.0
C930 C 0.96478 0.55612 0.04779 0.0
C931 C 0.03361 0.53388 0.06203 0.0
O932 O 0.04089 0.50295 0.03028 0.0
O933 O 0.0115 0.50216 0.02176 0.0
O934 O 0.07814 0.53301 0.01529 0.0
O935 O 0.07543 0.52528 0.04265 0.0
O936 O 0.04955 0.54134 0.99928 0.0
O937 O 0.02909 0.52369 0.00942 0.0
O938 O 0.02667 0.56378 0.02937 0.0
O939 O 0.05606 0.56412 0.03782 0.0
O940 O 0.98869 0.53199 0.04125 0.0
O941 O 0.99247 0.53986 0.01394 0.0
O942 O 0.01698 0.52608 0.05949 0.0
O943 O 0.03816 0.54205 0.04878 0.0
H944 H 0.09474 0.50341 0.05246 0.0
H945 H 0.11548 0.48309 0.04845 0.0
H946 H 0.12083 0.49611 0.99327 0.0
H947 H 0.09981 0.51651 0.99722 0.0
H948 H 0.97722 0.5654 0.00593 0.0
H949 H 0.95799 0.58742 0.01041 0.0
H950 H 0.94712 0.56954 0.06275 0.0
H951 H 0.96616 0.54711 0.05812 0.0
H952 H 0.04231 0.22708 0.93243 0.0
H953 H 0.05015 0.20383 0.95053 0.0
H954 H 1.00051 0.19785 0.97285 0.0
H955 H 0.99356 0.22278 0.95612 0.0
H956 H 0.02125 0.19316 0.99811 0.0
H957 H 0.01263 0.16411 0.93343 0.0
H958 H 0.01783 0.1623 0.90053 0.0
H959 H 0.07245 0.16501 0.91593 0.0
H960 H 0.06758 0.16702 0.94893 0.0
H961 H 0.01687 0.09783 0.01627 0.0
H962 H 0.01295 0.1267 0.00457 0.0
H963 H 0.06797 0.1411 0.99806 0.0
H964 H 0.07205 0.11238 0.01018 0.0
H965 H 0.04605 0.14199 0.96608 0.0
H966 H 0.05341 0.16778 0.03068 0.0
H967 H 0.04761 0.16893 0.06333 0.0
H968 H 0.99409 0.17068 0.04763 0.0
H969 H 0.9995 0.16929 0.01482 0.0
C970 C 0.03304 0.22076 0.94116 0.0
C971 C 0.01713 0.2265 0.94249 0.0
C972 C 0.03746 0.20723 0.95145 0.0
C973 C 0.02567 0.19815 0.96262 0.0
C974 C 0.00988 0.20427 0.96427 0.0
C975 C 1.0058 0.21846 0.95456 0.0
C976 C 0.0297 0.18227 0.97231 0.0
C977 C 0.02642 0.18187 0.9909 0.0
C978 C 0.03693 0.16752 0.96341 0.0
C979 C 0.03976 0.16586 0.94359 0.0
C980 C 0.02574 0.16435 0.92977 0.0
C981 C 0.02864 0.16331 0.91112 0.0
C982 C 0.04547 0.16359 0.90615 0.0
C983 C 0.05943 0.16481 0.9198 0.0
C984 C 0.0566 0.16587 0.93847 0.0
C985 C 0.02821 0.10728 0.01261 0.0
C986 C 0.04479 0.10276 0.01421 0.0
C987 C 0.02595 0.12385 0.00596 0.0
C988 C 0.04015 0.1362 1.00042 0.0
C989 C 0.05679 0.13188 1.00227 0.0
C990 C 0.05914 0.11548 0.0093 0.0
C991 C 0.03734 0.15286 0.99159 0.0
C992 C 0.04086 0.15333 0.9732 0.0
C993 C 0.03014 0.16745 1.00059 0.0
C994 C 0.02682 0.16826 0.02028 0.0
C995 C 0.04036 0.16824 0.03416 0.0
C996 C 0.03715 0.16898 0.05271 0.0
C997 C 0.02048 0.16984 0.05755 0.0
C998 C 0.00699 0.17 0.04385 0.0
C999 C 0.01013 0.16926 0.02529 0.0
H1000 H 0.01803 0.17041 0.07191 0.0
H1001 H 0.04769 0.16282 0.89171 0.0
H1002 H 0.13555 0.8289 0.14399 0.0
H1003 H 0.16194 0.82834 0.16424 0.0
H1004 H 0.12996 0.79267 0.19646 0.0
H1005 H 0.10368 0.79446 0.17713 0.0
H1006 H 0.15165 0.81487 0.21925 0.0
H1007 H 0.16034 0.77816 0.16224 0.0
H1008 H 0.16395 0.7713 0.129 0.0
H1009 H 0.20827 0.81877 0.13635 0.0
H1010 H 0.20478 0.82604 0.16956 0.0
H1011 H 0.22365 0.78951 0.26979 0.0
H1012 H 0.19732 0.78865 0.24854 0.0
H1013 H 0.22761 0.83122 0.22163 0.0
H1014 H 0.25384 0.83202 0.24288 0.0
H1015 H 0.20702 0.80505 0.19615 0.0
H1016 H 0.19775 0.84076 0.25372 0.0
H1017 H 0.19301 0.84751 0.28663 0.0
H1018 H 0.14861 0.80005 0.27782 0.0
H1019 H 0.15324 0.79285 0.24494 0.0
C1020 C 0.1342 0.82101 0.15545 0.0
C1021 C 0.11745 0.81188 0.15901 0.0
C1022 C 0.14938 0.82047 0.16696 0.0
C1023 C 0.14828 0.81017 0.18194 0.0
C1024 C 0.13146 0.80085 0.18522 0.0
C1025 C 0.11633 0.80185 0.17408 0.0
C1026 C 0.16433 0.80966 0.19473 0.0
C1027 C 0.16359 0.8123 0.21404 0.0
C1028 C 0.18034 0.80691 0.18835 0.0
C1029 C 0.18219 0.80275 0.16832 0.0
C1030 C 0.17075 0.78723 0.15672 0.0
C1031 C 0.1728 0.78325 0.13789 0.0
C1032 C 0.1863 0.79462 0.13056 0.0
C1033 C 0.1978 0.80999 0.14203 0.0
C1034 C 0.1958 0.81404 0.16085 0.0
C1035 C 0.22468 0.79847 0.25914 0.0
C1036 C 0.24087 0.81062 0.25778 0.0
C1037 C 0.20957 0.79815 0.24711 0.0
C1038 C 0.21024 0.81003 0.23345 0.0
C1039 C 0.22657 0.8219 0.23195 0.0
C1040 C 0.24162 0.82232 0.24406 0.0
C1041 C 0.19417 0.81003 0.22055 0.0
C1042 C 0.19495 0.80737 0.20126 0.0
C1043 C 0.1781 0.81246 0.22693 0.0
C1044 C 0.17602 0.8161 0.24694 0.0
C1045 C 0.18716 0.83158 0.25888 0.0
C1046 C 0.18444 0.83553 0.27751 0.0
C1047 C 0.17056 0.82417 0.28433 0.0
C1048 C 0.15939 0.8088 0.27255 0.0
C1049 C 0.16207 0.80476 0.25393 0.0
H1050 H 0.16842 0.82733 0.29873 0.0
H1051 H 0.18789 0.7915 0.11599 0.0
H1052 H 0.51521 0.81449 0.47226 0.0
H1053 H 0.51794 0.84623 0.49019 0.0
H1054 H 0.52186 0.87048 0.43984 0.0
H1055 H 0.51944 0.83901 0.42197 0.0
H1056 H 0.54529 0.89152 0.46685 0.0
H1057 H 0.48374 0.86276 0.45913 0.0
H1058 H 0.4566 0.83936 0.46128 0.0
H1059 H 0.4679 0.84902 0.52075 0.0
H1060 H 0.49526 0.87227 0.51892 0.0
H1061 H 0.51348 0.97587 0.48888 0.0
H1062 H 0.51355 0.94282 0.47642 0.0
H1063 H 0.53141 0.93394 0.53119 0.0
H1064 H 0.53213 0.96734 0.54355 0.0
H1065 H 0.49895 0.90521 0.50521 0.0
H1066 H 0.56052 0.93615 0.51158 0.0
H1067 H 0.58569 0.96126 0.50771 0.0
H1068 H 0.57226 0.94882 0.4485 0.0
H1069 H 0.54677 0.92375 0.45204 0.0
C1070 C 0.51674 0.82662 0.46508 0.0
C1071 C 0.51706 0.82433 0.44575 0.0
C1072 C 0.51822 0.84469 0.4753 0.0
C1073 C 0.51994 0.86062 0.46628 0.0
C1074 C 0.52057 0.85835 0.44704 0.0
C1075 C 0.51912 0.84036 0.43685 0.0
C1076 C 0.52089 0.87972 0.47674 0.0
C1077 C 0.53512 0.8945 0.47519 0.0
C1078 C 0.50774 0.88354 0.48781 0.0
C1079 C 0.49168 0.86902 0.48887 0.0
C1080 C 0.48057 0.85969 0.47264 0.0
C1081 C 0.46511 0.8465 0.47381 0.0
C1082 C 0.46056 0.84265 0.49113 0.0
C1083 C 0.47147 0.85196 0.50733 0.0
C1084 C 0.48696 0.86513 0.50624 0.0
C1085 C 0.51708 0.96668 0.49825 0.0
C1086 C 0.52255 0.97375 0.51712 0.0
C1087 C 0.51728 0.94801 0.49114 0.0
C1088 C 0.52261 0.93622 0.50295 0.0
C1089 C 0.52736 0.94302 0.52197 0.0
C1090 C 0.52765 0.9619 0.52899 0.0
C1091 C 0.52322 0.91675 0.49521 0.0
C1092 C 0.50924 0.90202 0.49716 0.0
C1093 C 0.53642 0.91304 0.48429 0.0
C1094 C 0.5516 0.92824 0.4821 0.0
C1095 C 0.56278 0.93894 0.49775 0.0
C1096 C 0.57715 0.95313 0.49561 0.0
C1097 C 0.58056 0.95671 0.47789 0.0
C1098 C 0.56959 0.94606 0.46224 0.0
C1099 C 0.55518 0.93185 0.4643 0.0
H1100 H 0.59172 0.96769 0.47629 0.0
H1101 H 0.44855 0.83249 0.49201 0.0
H1102 H 0.50813 0.2962 0.62429 0.0
H1103 H 0.48028 0.28628 0.6367 0.0
H1104 H 0.50832 0.2892 0.69072 0.0
H1105 H 0.53624 0.2989 0.67831 0.0
H1106 H 0.48125 0.2574 0.68197 0.0
H1107 H 0.48914 0.32499 0.67966 0.0
H1108 H 0.4935 0.35283 0.66357 0.0
H1109 H 0.44579 0.32791 0.62725 0.0
H1110 H 0.44133 0.29976 0.64292 0.0
H1111 H 0.41802 0.26841 0.74391 0.0
H1112 H 0.44272 0.26882 0.72584 0.0
H1113 H 0.40953 0.27123 0.67655 0.0
H1114 H 0.38468 0.27071 0.69454 0.0
H1115 H 0.4376 0.29746 0.67953 0.0
H1116 H 0.42707 0.23192 0.68167 0.0
H1117 H 0.42171 0.20213 0.69467 0.0
H1118 H 0.47209 0.21998 0.72757 0.0
H1119 H 0.47763 0.25005 0.71502 0.0
C1120 C 0.50838 0.29482 0.63884 0.0
C1121 C 0.52443 0.29862 0.65038 0.0
C1122 C 0.49242 0.2891 0.64591 0.0
C1123 C 0.49213 0.28715 0.66472 0.0
C1124 C 0.50816 0.29061 0.67617 0.0
C1125 C 0.52413 0.29633 0.6691 0.0
C1126 C 0.47518 0.28223 0.67269 0.0
C1127 C 0.47177 0.26626 0.68163 0.0
C1128 C 0.46239 0.29323 0.67154 0.0
C1129 C 0.46501 0.31023 0.66232 0.0
C1130 C 0.47966 0.32541 0.66816 0.0
C1131 C 0.48214 0.34123 0.65912 0.0
C1132 C 0.46996 0.34212 0.64437 0.0
C1133 C 0.45524 0.32719 0.63865 0.0
C1134 C 0.45273 0.3113 0.6476 0.0
C1135 C 0.4158 0.26854 0.72914 0.0
C1136 C 0.3993 0.26968 0.72078 0.0
C1137 C 0.43001 0.26878 0.71877 0.0
C1138 C 0.42809 0.27004 0.69975 0.0
C1139 C 0.41145 0.27038 0.6912 0.0
C1140 C 0.39724 0.27015 0.70156 0.0
C1141 C 0.44372 0.27281 0.68927 0.0
C1142 C 0.44693 0.28842 0.67982 0.0
C1143 C 0.4561 0.26121 0.68964 0.0
C1144 C 0.45269 0.24334 0.69754 0.0
C1145 C 0.43692 0.2296 0.69185 0.0
C1146 C 0.43387 0.21264 0.6991 0.0
C1147 C 0.44653 0.20918 0.71197 0.0
C1148 C 0.46228 0.22269 0.71762 0.0
C1149 C 0.46539 0.23969 0.71043 0.0
H1150 H 0.44416 0.19602 0.71754 0.0
H1151 H 0.4719 0.35439 0.63739 0.0
H1152 H 1.00443 0.79028 0.60195 0.0
H1153 H 0.02005 0.81657 0.58813 0.0
H1154 H 0.03433 0.85102 0.64254 0.0
H1155 H 0.01824 0.82509 0.65633 0.0
H1156 H 0.02211 0.86964 0.61896 0.0
H1157 H 0.06554 0.83294 0.61923 0.0
H1158 H 0.0764 0.80354 0.6136 0.0
H1159 H 0.06139 0.7984 0.55496 0.0
H1160 H 0.05027 0.82768 0.56027 0.0
H1161 H 0.06455 0.94372 0.57641 0.0
H1162 H 0.06239 0.91975 0.59692 0.0
H1163 H 0.0465 0.87529 0.54908 0.0
H1164 H 0.04899 0.89915 0.52867 0.0
H1165 H 0.06513 0.86345 0.57399 0.0
H1166 H 0.01551 0.89293 0.57402 0.0
H1167 H 0.99777 0.9167 0.5792 0.0
H1168 H 0.02083 0.9326 0.6361 0.0
H1169 H 0.03865 0.90856 0.63128 0.0
C1170 C 0.01075 0.80355 0.61089 0.0
C1171 C 0.01003 0.80579 0.63013 0.0
C1172 C 0.01991 0.8184 0.60305 0.0
C1173 C 0.02871 0.83549 0.61442 0.0
C1174 C 0.02776 0.83782 0.6336 0.0
C1175 C 0.01842 0.8231 0.6414 0.0
C1176 C 0.03758 0.85157 0.6061 0.0
C1177 C 0.03196 0.86851 0.60958 0.0
C1178 C 0.05001 0.8498 0.5935 0.0
C1179 C 0.05704 0.83245 0.59016 0.0
C1180 C 0.06451 0.8255 0.60514 0.0
C1181 C 0.07072 0.80886 0.602 0.0
C1182 C 0.06958 0.7991 0.58393 0.0
C1183 C 0.06229 0.80599 0.56895 0.0
C1184 C 0.05607 0.82263 0.57201 0.0
C1185 C 0.06085 0.9288 0.57036 0.0
C1186 C 0.05668 0.92318 0.55107 0.0
C1187 C 0.05964 0.91516 0.58202 0.0
C1188 C 0.05396 0.89578 0.57451 0.0
C1189 C 0.05093 0.89017 0.55516 0.0
C1190 C 0.05233 0.90378 0.54351 0.0
C1191 C 0.04935 0.88141 0.58663 0.0
C1192 C 0.05578 0.8648 0.58388 0.0
C1193 C 0.03747 0.88332 0.59984 0.0
C1194 C 0.02858 0.89926 0.6022 0.0
C1195 C 0.01706 0.90177 0.58753 0.0
C1196 C 0.00688 0.9152 0.59044 0.0
C1197 C 0.00813 0.9262 0.60795 0.0
C1198 C 0.01984 0.92404 0.62255 0.0
C1199 C 0.02998 0.91052 0.61974 0.0
H1200 H 0.99994 0.93633 0.61025 0.0
H1201 H 0.07436 0.78619 0.58154 0.0
H1202 H 0.54752 0.84734 0.85858 0.0
H1203 H 0.51892 0.84497 0.84098 0.0
H1204 H 0.50062 0.78869 0.85384 0.0
H1205 H 0.52908 0.79133 0.87214 0.0
H1206 H 0.49851 0.79581 0.81292 0.0
H1207 H 0.48268 0.81406 0.87365 0.0
H1208 H 0.48712 0.83353 0.90478 0.0
H1209 H 0.48538 0.8833 0.88024 0.0
H1210 H 0.48128 0.86417 0.84891 0.0
H1211 H 0.40683 0.78748 0.78294 0.0
H1212 H 0.4357 0.78577 0.79719 0.0
H1213 H 0.45533 0.84527 0.79515 0.0
H1214 H 0.42655 0.84711 0.78101 0.0
H1215 H 0.45608 0.83466 0.83138 0.0
H1216 H 0.47295 0.81789 0.77136 0.0
H1217 H 0.47005 0.79979 0.73975 0.0
H1218 H 0.47092 0.74871 0.76232 0.0
H1219 H 0.47351 0.76648 0.7941 0.0
C1220 C 0.53727 0.8346 0.85776 0.0
C1221 C 0.54017 0.8195 0.86651 0.0
C1222 C 0.52108 0.83327 0.84782 0.0
C1223 C 0.50795 0.81666 0.84627 0.0
C1224 C 0.51078 0.80157 0.85508 0.0
C1225 C 0.52684 0.80312 0.86549 0.0
C1226 C 0.49151 0.81498 0.83469 0.0
C1227 C 0.48897 0.80393 0.817 0.0
C1228 C 0.47965 0.82617 0.8401 0.0
C1229 C 0.48186 0.8377 0.85892 0.0
C1230 C 0.48342 0.82919 0.87488 0.0
C1231 C 0.48585 0.84016 0.89256 0.0
C1232 C 0.48658 0.85965 0.89449 0.0
C1233 C 0.48483 0.8682 0.87872 0.0
C1234 C 0.48245 0.85729 0.86099 0.0
C1235 C 0.41751 0.79999 0.78498 0.0
C1236 C 0.4146 0.81746 0.7811 0.0
C1237 C 0.4339 0.799 0.79305 0.0
C1238 C 0.44736 0.81547 0.79727 0.0
C1239 C 0.44492 0.8325 0.79195 0.0
C1240 C 0.42859 0.83348 0.78376 0.0
C1241 C 0.46308 0.81556 0.80948 0.0
C1242 C 0.46549 0.82634 0.82732 0.0
C1243 C 0.47486 0.80424 0.80416 0.0
C1244 C 0.47321 0.79347 0.7851 0.0
C1245 C 0.47231 0.80276 0.76958 0.0
C1246 C 0.47077 0.79257 0.75163 0.0
C1247 C 0.47024 0.7731 0.74902 0.0
C1248 C 0.47129 0.76379 0.76437 0.0
C1249 C 0.4728 0.77391 0.78235 0.0
H1250 H 0.46907 0.76523 0.73511 0.0
H1251 H 0.48846 0.86813 0.9082 0.0
H1252 H 0.49308 0.19258 0.15008 0.0
H1253 H 0.4975 0.16415 0.13037 0.0
H1254 H 0.49842 0.19376 0.08321 0.0
H1255 H 0.49297 0.22131 0.10233 0.0
H1256 H 0.48005 0.16045 0.07311 0.0
H1257 H 0.53655 0.18772 0.11092 0.0
H1258 H 0.55689 0.1974 0.13999 0.0
H1259 H 0.54382 0.14042 0.15179 0.0
H1260 H 0.52324 0.13047 0.12292 0.0
H1261 H 0.5247 0.11737 0.00746 0.0
H1262 H 0.51765 0.13977 0.03226 0.0
H1263 H 0.51522 0.09795 0.06882 0.0
H1264 H 0.52313 0.07596 0.04438 0.0
H1265 H 0.53098 0.13229 0.08685 0.0
H1266 H 0.47704 0.10539 0.04557 0.0
H1267 H 0.45842 0.09704 0.01534 0.0
H1268 H 0.46891 0.15586 0.00892 0.0
H1269 H 0.4877 0.16452 0.039 0.0
C1270 C 0.49389 0.19273 0.13541 0.0
C1271 C 0.49246 0.20892 0.1276 0.0
C1272 C 0.49661 0.17665 0.12425 0.0
C1273 C 0.49843 0.17694 0.10538 0.0
C1274 C 0.49688 0.19314 0.09769 0.0
C1275 C 0.4937 0.20887 0.10863 0.0
C1276 C 0.50187 0.1606 0.09319 0.0
C1277 C 0.49125 0.15436 0.07611 0.0
C1278 C 0.51613 0.15225 0.09737 0.0
C1279 C 0.52818 0.15842 0.11492 0.0
C1280 C 0.53788 0.17731 0.11983 0.0
C1281 C 0.54948 0.18283 0.13624 0.0
C1282 C 0.5516 0.16955 0.14776 0.0
C1283 C 0.54213 0.15071 0.14289 0.0
C1284 C 0.53049 0.14513 0.12652 0.0
C1285 C 0.52289 0.11314 0.02089 0.0
C1286 C 0.52432 0.09504 0.02411 0.0
C1287 C 0.51873 0.12581 0.03495 0.0
C1288 C 0.51549 0.12026 0.05215 0.0
C1289 C 0.51756 0.1024 0.05558 0.0
C1290 C 0.52207 0.08989 0.04164 0.0
C1291 C 0.50973 0.13303 0.06649 0.0
C1292 C 0.5197 0.13829 0.084 0.0
C1293 C 0.49509 0.14085 0.06261 0.0
C1294 C 0.4838 0.13557 0.0445 0.0
C1295 C 0.47543 0.11651 0.03766 0.0
C1296 C 0.46483 0.11174 0.02056 0.0
C1297 C 0.46249 0.12591 0.01022 0.0
C1298 C 0.47072 0.14489 0.01695 0.0
C1299 C 0.48131 0.14974 0.03403 0.0
H1300 H 0.45427 0.12218 0.99699 0.0
H1301 H 0.56062 0.17384 0.16044 0.0
H1302 H 0.13257 0.29345 0.37423 0.0
H1303 H 0.15183 0.28388 0.35215 0.0
H1304 H 0.15466 0.33633 0.33028 0.0
H1305 H 0.13404 0.34512 0.35141 0.0
H1306 H 0.15204 0.30927 0.30311 0.0
H1307 H 0.1904 0.32904 0.36062 0.0
H1308 H 0.19755 0.32988 0.39426 0.0
H1309 H 0.19239 0.26941 0.38515 0.0
H1310 H 0.1856 0.26827 0.35138 0.0
H1311 H 0.23364 0.30938 0.26657 0.0
H1312 H 0.20863 0.31532 0.28217 0.0
H1313 H 0.19836 0.25824 0.29475 0.0
H1314 H 0.22336 0.25215 0.27924 0.0
H1315 H 0.20421 0.28679 0.32569 0.0
H1316 H 0.169 0.26966 0.26584 0.0
H1317 H 0.1629 0.27164 0.23265 0.0
H1318 H 0.16392 0.33109 0.2467 0.0
H1319 H 0.17022 0.3295 0.27997 0.0
C1320 C 0.13757 0.30303 0.36489 0.0
C1321 C 0.13226 0.32015 0.36464 0.0
C1322 C 0.14854 0.29758 0.35229 0.0
C1323 C 0.15503 0.30962 0.33989 0.0
C1324 C 0.14983 0.32687 0.33978 0.0
C1325 C 0.13829 0.33199 0.35194 0.0
C1326 C 0.16724 0.30411 0.32707 0.0
C1327 C 0.16356 0.30457 0.30806 0.0
C1328 C 0.18215 0.2978 0.33351 0.0
C1329 C 0.18747 0.29858 0.35355 0.0
C1330 C 0.19096 0.31596 0.3658 0.0
C1331 C 0.19498 0.31649 0.38486 0.0
C1332 C 0.19551 0.29971 0.39182 0.0
C1333 C 0.19216 0.2824 0.3797 0.0
C1334 C 0.18835 0.28182 0.3606 0.0
C1335 C 0.22581 0.29797 0.2723 0.0
C1336 C 0.23051 0.2804 0.27192 0.0
C1337 C 0.2115 0.30135 0.28109 0.0
C1338 C 0.20178 0.28719 0.28955 0.0
C1339 C 0.20578 0.26926 0.2882 0.0
C1340 C 0.22 0.26582 0.2793 0.0
C1341 C 0.18896 0.2919 0.30178 0.0
C1342 C 0.19262 0.29139 0.32073 0.0
C1343 C 0.17435 0.29861 0.2953 0.0
C1344 C 0.17014 0.29947 0.27536 0.0
C1345 C 0.16799 0.28316 0.26183 0.0
C1346 C 0.16449 0.28422 0.24302 0.0
C1347 C 0.16304 0.30148 0.23757 0.0
C1348 C 0.16503 0.31772 0.25094 0.0
C1349 C 0.16852 0.31674 0.26978 0.0
H1350 H 0.16037 0.30228 0.22299 0.0
H1351 H 0.19848 0.30011 0.4066 0.0
H1352 H 0.97971 0.06549 0.22984 0.0
H1353 H 0.99568 0.06407 0.20261 0.0
H1354 H 0.94791 0.06068 0.16733 0.0
H1355 H 0.93178 0.06063 0.19456 0.0
H1356 H 0.96231 0.04249 0.14672 0.0
H1357 H 0.99256 0.10345 0.18305 0.0
H1358 H 0.00972 0.12524 0.21046 0.0
H1359 H 0.05021 0.09386 0.20824 0.0
H1360 H 0.03323 0.07177 0.18095 0.0
H1361 H 1.00567 0.05528 0.06364 0.0
H1362 H 0.9895 0.05752 0.09092 0.0
H1363 H 0.03686 0.06058 0.12672 0.0
H1364 H 0.05299 0.05974 0.09981 0.0
H1365 H 0.0229 0.07952 0.14718 0.0
H1366 H 0.99273 0.01812 0.11225 0.0
H1367 H 0.9762 0.99624 0.08457 0.0
H1368 H 0.93626 0.02842 0.08446 0.0
H1369 H 0.95263 0.05054 0.11206 0.0
C1370 C 0.97249 0.06448 0.21631 0.0
C1371 C 0.95413 0.06324 0.21497 0.0
C1372 C 0.98187 0.06393 0.20036 0.0
C1373 C 0.97366 0.06281 0.18198 0.0
C1374 C 0.95523 0.06157 0.18076 0.0
C1375 C 0.94579 0.06163 0.19667 0.0
C1376 C 0.98372 0.06233 0.16421 0.0
C1377 C 0.97548 0.05098 0.14707 0.0
C1378 C 1.00136 0.07262 0.16362 0.0
C1379 C 0.01152 0.08584 0.18007 0.0
C1380 C 1.00508 0.10114 0.18848 0.0
C1381 C 0.01478 0.11355 0.20398 0.0
C1382 C 0.03102 0.1109 0.21111 0.0
C1383 C 0.03762 0.09587 0.20273 0.0
C1384 C 0.02796 0.08341 0.18724 0.0
C1385 C 0.01268 0.05624 0.07725 0.0
C1386 C 0.03095 0.0571 0.07889 0.0
C1387 C 1.00324 0.05738 0.09326 0.0
C1388 C 0.01136 0.05881 0.11185 0.0
C1389 C 0.02962 0.05957 0.11322 0.0
C1390 C 0.03903 0.05889 0.0974 0.0
C1391 C 1.00141 0.05974 0.12971 0.0
C1392 C 0.0097 0.07111 0.14686 0.0
C1393 C 0.98387 0.04944 0.13039 0.0
C1394 C 0.97395 0.03603 0.11406 0.0
C1395 C 0.98044 0.02052 0.10627 0.0
C1396 C 0.97111 0.0081 0.09061 0.0
C1397 C 0.95522 0.01097 0.08273 0.0
C1398 C 0.94858 0.02623 0.09056 0.0
C1399 C 0.95786 0.03869 0.10622 0.0
H1400 H 0.94803 1.00136 0.07059 0.0
H1401 H 0.0385 0.12052 0.22311 0.0
H1402 H 0.29848 0.68397 0.47848 0.0
H1403 H 0.28567 0.70155 0.45694 0.0
H1404 H 0.23474 0.66445 0.45617 0.0
H1405 H 0.24777 0.64601 0.47648 0.0
H1406 H 0.23815 0.67596 0.42392 0.0
H1407 H 0.24847 0.70785 0.48896 0.0
H1408 H 0.26756 0.72087 0.51857 0.0
H1409 H 0.30295 0.75745 0.49058 0.0
H1410 H 0.28409 0.74465 0.46086 0.0
H1411 H 0.21329 0.74817 0.37922 0.0
H1412 H 0.21121 0.72748 0.40306 0.0
H1413 H 0.26614 0.75092 0.42274 0.0
H1414 H 0.2678 0.77219 0.40019 0.0
H1415 H 0.25026 0.7446 0.45022 0.0
H1416 H 0.2488 0.70746 0.38668 0.0
H1417 H 0.23485 0.69254 0.35503 0.0
H1418 H 0.18852 0.66663 0.37704 0.0
H1419 H 0.20227 0.6811 0.40888 0.0
C1420 C 0.28474 0.67916 0.47298 0.0
C1421 C 0.27403 0.66383 0.47894 0.0
C1422 C 0.27739 0.6893 0.46101 0.0
C1423 C 0.25918 0.68469 0.45579 0.0
C1424 C 0.24879 0.66828 0.46034 0.0
C1425 C 0.25625 0.65773 0.47177 0.0
C1426 C 0.25084 0.6978 0.44689 0.0
C1427 C 0.24053 0.69094 0.42976 0.0
C1428 C 0.25387 0.71722 0.45473 0.0
C1429 C 0.26484 0.72533 0.47274 0.0
C1430 C 0.2603 0.71871 0.48917 0.0
C1431 C 0.27108 0.72604 0.50595 0.0
C1432 C 0.28644 0.73999 0.50645 0.0
C1433 C 0.29102 0.7467 0.49019 0.0
C1434 C 0.28025 0.73948 0.4734 0.0
C1435 C 0.22468 0.74915 0.38908 0.0
C1436 C 0.2408 0.76133 0.3878 0.0
C1437 C 0.22353 0.7373 0.4025 0.0
C1438 C 0.23857 0.73747 0.41438 0.0
C1439 C 0.25432 0.75056 0.41374 0.0
C1440 C 0.25536 0.76254 0.40071 0.0
C1441 C 0.23902 0.72311 0.42642 0.0
C1442 C 0.24741 0.72954 0.44457 0.0
C1443 C 0.23489 0.70346 0.41917 0.0
C1444 C 0.2264 0.69561 0.40005 0.0
C1445 C 0.23557 0.69874 0.38472 0.0
C1446 C 0.22773 0.69035 0.36677 0.0
C1447 C 0.21076 0.67887 0.36399 0.0
C1448 C 0.20161 0.67564 0.37919 0.0
C1449 C 0.20942 0.68388 0.39718 0.0
H1450 H 0.20477 0.67239 0.35006 0.0
H1451 H 0.29479 0.7456 0.51945 0.0
H1452 H 0.63686 0.07439 0.71164 0.0
H1453 H 0.61743 0.07168 0.68289 0.0
H1454 H 0.62455 0.01481 0.66573 0.0
H1455 H 0.64495 0.01818 0.69385 0.0
H1456 H 0.62471 0.0328 0.63806 0.0
H1457 H 0.58814 0.02471 0.68784 0.0
H1458 H 0.57774 0.0343 0.71781 0.0
H1459 H 0.56571 0.0836 0.69859 0.0
H1460 H 0.57625 0.07445 0.66861 0.0
H1461 H 0.54234 1.00114 0.57615 0.0
H1462 H 0.56492 1.00337 0.60249 0.0
H1463 H 0.57331 0.06459 0.61118 0.0
H1464 H 0.55135 0.06244 0.58475 0.0
H1465 H 0.5648 0.04351 0.6427 0.0
H1466 H 0.6024 0.05365 0.59488 0.0
H1467 H 0.61723 0.04845 0.56692 0.0
H1468 H 0.62882 0.99764 0.58305 0.0
H1469 H 0.61375 1.00234 0.61097 0.0
C1470 C 0.63447 0.06157 0.70139 0.0
C1471 C 0.64214 0.04647 0.70444 0.0
C1472 C 0.62332 0.05993 0.68525 0.0
C1473 C 0.61928 0.04285 0.67263 0.0
C1474 C 0.62753 0.02804 0.67547 0.0
C1475 C 0.63913 0.02994 0.69133 0.0
C1476 C 0.60637 0.04024 0.65645 0.0
C1477 C 0.61146 0.03473 0.63906 0.0
C1478 C 0.58938 0.04345 0.65798 0.0
C1479 C 0.58311 0.04896 0.67605 0.0
C1480 C 0.58339 0.03766 0.69007 0.0
C1481 C 0.57746 0.04301 0.70704 0.0
C1482 C 0.57111 0.05957 0.71012 0.0
C1483 C 0.57065 0.0708 0.69621 0.0
C1484 C 0.57659 0.06553 0.67922 0.0
C1485 C 0.54895 0.01494 0.58397 0.0
C1486 C 0.5452 0.03162 0.57905 0.0
C1487 C 0.56186 0.01621 0.59862 0.0
C1488 C 0.57063 0.03413 0.60833 0.0
C1489 C 0.56662 0.05073 0.60354 0.0
C1490 C 0.55408 0.04948 0.58872 0.0
C1491 C 0.58314 0.03575 0.62448 0.0
C1492 C 0.57794 0.04117 0.64182 0.0
C1493 C 0.60003 0.03252 0.62292 0.0
C1494 C 0.60671 0.0282 0.60487 0.0
C1495 C 0.60767 0.04109 0.59222 0.0
C1496 C 0.61631 0.03835 0.5765 0.0
C1497 C 0.62416 0.02288 0.57337 0.0
C1498 C 0.62288 0.00972 0.5856 0.0
C1499 C 0.61422 0.01237 0.60132 0.0
H1500 H 0.63116 0.02101 0.56138 0.0
H1501 H 0.5665 0.06367 0.72327 0.0
H1502 H 0.30594 0.39141 0.97159 0.0
H1503 H 0.30442 0.37506 0.93994 0.0
H1504 H 0.291 0.32088 0.95869 0.0
H1505 H 0.29318 0.33734 0.99074 0.0
H1506 H 0.3141 0.31935 0.93606 0.0
H1507 H 0.26013 0.33852 0.93213 0.0
H1508 H 0.23917 0.35931 0.93516 0.0
H1509 H 0.26646 0.39449 0.89971 0.0
H1510 H 0.28773 0.37408 0.89668 0.0
H1511 H 0.29012 0.27556 0.83853 0.0
H1512 H 0.28957 0.28612 0.87186 0.0
H1513 H 0.31778 0.34237 0.86674 0.0
H1514 H 0.31879 0.33165 0.83357 0.0
H1515 H 0.28395 0.33896 0.88222 0.0
H1516 H 0.33934 0.31949 0.88917 0.0
H1517 H 0.35774 0.29609 0.88446 0.0
H1518 H 0.32405 0.25847 0.9131 0.0
H1519 H 0.30533 0.28159 0.91777 0.0
C1520 C 0.30258 0.37601 0.96899 0.0
C1521 C 0.29972 0.36565 0.98364 0.0
C1522 C 0.30156 0.36665 0.95083 0.0
C1523 C 0.29727 0.34671 0.94682 0.0
C1524 C 0.29427 0.33628 0.96143 0.0
C1525 C 0.29552 0.34568 0.97971 0.0
C1526 C 0.29698 0.33696 0.92751 0.0
C1527 C 0.30721 0.32342 0.92435 0.0
C1528 C 0.28809 0.34223 0.9121 0.0
C1529 C 0.27562 0.35486 0.91431 0.0
C1530 C 0.26178 0.35081 0.92515 0.0
C1531 C 0.24981 0.3625 0.92682 0.0
C1532 C 0.2515 0.37823 0.91767 0.0
C1533 C 0.26517 0.38232 0.90681 0.0
C1534 C 0.27718 0.37068 0.9051 0.0
C1535 C 0.29656 0.29002 0.84473 0.0
C1536 C 0.30466 0.30282 0.83379 0.0
C1537 C 0.29621 0.29603 0.86364 0.0
C1538 C 0.30361 0.315 0.87164 0.0
C1539 C 0.31206 0.32766 0.86075 0.0
C1540 C 0.31274 0.32154 0.84194 0.0
C1541 C 0.30147 0.32205 0.891 0.0
C1542 C 0.29068 0.33491 0.89407 0.0
C1543 C 0.30953 0.3159 0.90625 0.0
C1544 C 0.32087 0.30216 0.90366 0.0
C1545 C 0.3358 0.30616 0.89433 0.0
C1546 C 0.34629 0.29297 0.8917 0.0
C1547 C 0.34204 0.27578 0.89843 0.0
C1548 C 0.32732 0.27178 0.90787 0.0
C1549 C 0.31677 0.28493 0.91054 0.0
H1550 H 0.35018 0.26558 0.89637 0.0
H1551 H 0.2422 0.38724 0.91895 0.0
H1552 H 0.93931 0.07543 0.3367 0.0
H1553 H 0.95518 0.07111 0.36572 0.0
H1554 H 0.99077 0.04615 0.33421 0.0
H1555 H 0.97519 0.05083 0.30529 0.0
H1556 H 0.9821 0.02516 0.36023 0.0
H1557 H 1.0037 0.0913 0.36221 0.0
H1558 H 1.00514 0.12556 0.36348 0.0
H1559 H 0.97879 0.12642 0.4125 0.0
H1560 H 0.97692 0.0921 0.41133 0.0
H1561 H 0.03738 0.01842 0.44303 0.0
H1562 H 0.02498 0.02374 0.41282 0.0
H1563 H 0.99567 0.06066 0.44079 0.0
H1564 H 0.00925 0.0566 0.47072 0.0
H1565 H 1.00301 0.07571 0.41497 0.0
H1566 H 0.98018 0.00742 0.41127 0.0
H1567 H 0.9824 0.97408 0.41064 0.0
H1568 H 0.01324 0.97784 0.36507 0.0
H1569 H 0.01136 0.01125 0.36559 0.0
C1570 C 0.95062 0.0692 0.33587 0.0
C1571 C 0.9558 0.06362 0.31827 0.0
C1572 C 0.95983 0.06674 0.35267 0.0
C1573 C 0.9745 0.05828 0.35267 0.0
C1574 C 0.97964 0.05269 0.33507 0.0
C1575 C 0.97065 0.05547 0.31834 0.0
C1576 C 0.984 0.05466 0.37071 0.0
C1577 C 0.9867 0.03635 0.37214 0.0
C1578 C 0.99019 0.06887 0.38672 0.0
C1579 C 0.98987 0.08905 0.38646 0.0
C1580 C 0.99787 0.0987 0.37302 0.0
C1581 C 0.99887 0.11817 0.3738 0.0
C1582 C 0.99199 0.12815 0.38801 0.0
C1583 C 0.98403 0.11867 0.40144 0.0
C1584 C 0.98297 0.09921 0.4007 0.0
C1585 C 0.02827 0.02767 0.44276 0.0
C1586 C 0.02446 0.03704 0.45967 0.0
C1587 C 0.02087 0.03058 0.42522 0.0
C1588 C 0.00871 0.04239 0.42377 0.0
C1589 C 1.0049 0.05154 0.44081 0.0
C1590 C 0.01271 0.04912 0.45823 0.0
C1591 C 1.00034 0.04594 0.40501 0.0
C1592 C 0.99805 0.06435 0.40329 0.0
C1593 C 0.99455 0.03181 0.38877 0.0
C1594 C 0.9958 0.01185 0.38862 0.0
C1595 C 0.98753 1.00115 0.40121 0.0
C1596 C 0.98871 0.98225 0.40086 0.0
C1597 C 0.998 0.97387 0.38786 0.0
C1598 C 0.00609 0.98436 0.37516 0.0
C1599 C 1.00497 1.00327 0.37548 0.0
H1600 H 0.99889 0.95923 0.38761 0.0
H1601 H 0.99289 0.14324 0.38866 0.0
H1602 H 0.27296 0.66071 0.59303 0.0
H1603 H 0.27183 0.68247 0.6214 0.0
H1604 H 0.29506 0.73019 0.59603 0.0
H1605 H 0.29627 0.70865 0.56773 0.0
H1606 H 0.31269 0.72797 0.62978 0.0
H1607 H 0.25373 0.72414 0.60244 0.0
H1608 H 0.22331 0.70881 0.58902 0.0
H1609 H 0.21395 0.68574 0.63898 0.0
H1610 H 0.24441 0.7007 0.6526 0.0
H1611 H 0.30518 0.80377 0.69914 0.0
H1612 H 0.30088 0.78289 0.66894 0.0
H1613 H 0.28072 0.73447 0.6948 0.0
H1614 H 0.28568 0.75493 0.72495 0.0
H1615 H 0.26068 0.73707 0.66082 0.0
H1616 H 0.31878 0.73867 0.68772 0.0
H1617 H 0.34934 0.75222 0.70171 0.0
H1618 H 0.36055 0.77722 0.65316 0.0
H1619 H 0.32993 0.76414 0.63902 0.0
C1620 C 0.27784 0.67585 0.59357 0.0
C1621 C 0.28498 0.68307 0.57841 0.0
C1622 C 0.27697 0.6882 0.60961 0.0
C1623 C 0.28325 0.70781 0.61057 0.0
C1624 C 0.2901 0.71504 0.59536 0.0
C1625 C 0.2909 0.70275 0.57933 0.0
C1626 C 0.28448 0.7207 0.62807 0.0
C1627 C 0.30132 0.73027 0.63643 0.0
C1628 C 0.26958 0.7229 0.63688 0.0
C1629 C 0.25144 0.71336 0.62845 0.0
C1630 C 0.24528 0.71558 0.61047 0.0
C1631 C 0.228 0.70701 0.60285 0.0
C1632 C 0.21672 0.69626 0.61312 0.0
C1633 C 0.22271 0.69404 0.63102 0.0
C1634 C 0.23998 0.70256 0.6387 0.0
C1635 C 0.2996 0.78872 0.69827 0.0
C1636 C 0.29549 0.78093 0.71421 0.0
C1637 C 0.29724 0.77688 0.68114 0.0
C1638 C 0.2905 0.7573 0.67989 0.0
C1639 C 0.28581 0.74962 0.69566 0.0
C1640 C 0.28851 0.76134 0.71278 0.0
C1641 C 0.28885 0.7446 0.66224 0.0
C1642 C 0.272 0.73492 0.654 0.0
C1643 C 0.30374 0.74208 0.65359 0.0
C1644 C 0.32194 0.75073 0.66246 0.0
C1645 C 0.32765 0.74737 0.68017 0.0
C1646 C 0.34502 0.75488 0.68809 0.0
C1647 C 0.35686 0.76565 0.67837 0.0
C1648 C 0.35135 0.76895 0.66071 0.0
C1649 C 0.33398 0.76151 0.65275 0.0
H1650 H 0.37032 0.77137 0.68449 0.0
H1651 H 0.20334 0.68969 0.60722 0.0
H1652 H 0.67248 0.06469 0.81932 0.0
H1653 H 0.65981 0.08061 0.84442 0.0
H1654 H 0.60777 0.052 0.81824 0.0
H1655 H 0.62034 0.03639 0.79265 0.0
H1656 H 0.6122 0.09087 0.82698 0.0
H1657 H 0.62485 0.03867 0.85537 0.0
H1658 H 0.64517 0.01902 0.86422 0.0
H1659 H 0.67812 0.06752 0.90007 0.0
H1660 H 0.65811 0.08759 0.89117 0.0
H1661 H 0.55253 0.08734 0.88937 0.0
H1662 H 0.57281 0.08811 0.86677 0.0
H1663 H 0.61588 0.1143 0.90973 0.0
H1664 H 0.59528 0.11118 0.93305 0.0
H1665 H 0.62215 0.08467 0.89343 0.0
H1666 H 0.60298 0.13513 0.86812 0.0
H1667 H 0.58001 0.15139 0.85846 0.0
H1668 H 0.55667 0.10348 0.81608 0.0
H1669 H 0.5793 0.08683 0.82564 0.0
C1670 C 0.65835 0.06134 0.81916 0.0
C1671 C 0.64732 0.04937 0.80409 0.0
C1672 C 0.65118 0.07059 0.8334 0.0
C1673 C 0.63295 0.06757 0.8329 0.0
C1674 C 0.62191 0.0546 0.81857 0.0
C1675 C 0.62907 0.0455 0.80419 0.0
C1676 C 0.62532 0.07821 0.8472 0.0
C1677 C 0.61431 0.08965 0.84157 0.0
C1678 C 0.62873 0.07695 0.86612 0.0
C1679 C 0.64008 0.06466 0.87248 0.0
C1680 C 0.63643 0.04515 0.86513 0.0
C1681 C 0.64791 0.03395 0.87014 0.0
C1682 C 0.66294 0.04203 0.8827 0.0
C1683 C 0.66646 0.0613 0.89036 0.0
C1684 C 0.65505 0.0726 0.88535 0.0
C1685 C 0.56617 0.09426 0.89393 0.0
C1686 C 0.57244 0.09923 0.91282 0.0
C1687 C 0.57788 0.09486 0.88088 0.0
C1688 C 0.59595 0.10164 0.8864 0.0
C1689 C 0.60197 0.10907 0.90517 0.0
C1690 C 0.59026 0.10757 0.91843 0.0
C1691 C 0.60827 0.09707 0.87331 0.0
C1692 C 0.62038 0.08669 0.87905 0.0
C1693 C 0.60564 0.09911 0.85439 0.0
C1694 C 0.59296 0.10981 0.84753 0.0
C1695 C 0.59303 0.12814 0.85664 0.0
C1696 C 0.58001 0.13738 0.85124 0.0
C1697 C 0.56691 0.12849 0.83665 0.0
C1698 C 0.56687 0.11039 0.82733 0.0
C1699 C 0.57985 0.10108 0.83267 0.0
H1700 H 0.55677 0.13562 0.83258 0.0
H1701 H 0.67184 0.03335 0.88651 0.0
H1702 H 0.27569 0.34361 0.06881 0.0
H1703 H 0.26947 0.3281 0.09593 0.0
H1704 H 0.30654 0.37434 0.13109 0.0
H1705 H 0.31262 0.39 0.10412 0.0
H1706 H 0.31201 0.33883 0.13538 0.0
H1707 H 0.26277 0.36897 0.13244 0.0
H1708 H 0.2358 0.37543 0.11743 0.0
H1709 H 0.21059 0.3162 0.11056 0.0
H1710 H 0.23751 0.30933 0.12523 0.0
H1711 H 0.30078 0.30987 0.22261 0.0
H1712 H 0.30391 0.32668 0.19609 0.0
H1713 H 0.25517 0.29072 0.16801 0.0
H1714 H 0.25132 0.27511 0.1952 0.0
H1715 H 0.2547 0.32126 0.15934 0.0
H1716 H 0.30297 0.28955 0.14539 0.0
H1717 H 0.33075 0.27908 0.14941 0.0
H1718 H 0.35595 0.33357 0.18141 0.0
H1719 H 0.32853 0.3447 0.17652 0.0
C1720 C 0.28247 0.35052 0.08234 0.0
C1721 C 0.29476 0.36803 0.08426 0.0
C1722 C 0.27878 0.34169 0.09787 0.0
C1723 C 0.2874 0.3501 0.11566 0.0
C1724 C 0.29961 0.3676 0.11757 0.0
C1725 C 0.30313 0.37654 0.10212 0.0
C1726 C 0.28488 0.34007 0.13205 0.0
C1727 C 0.2995 0.33529 0.14081 0.0
C1728 C 0.26841 0.33446 0.13859 0.0
C1729 C 0.25224 0.33862 0.12976 0.0
C1730 C 0.25154 0.35729 0.12755 0.0
C1731 C 0.23624 0.36104 0.11914 0.0
C1732 C 0.22151 0.34623 0.11299 0.0
C1733 C 0.22202 0.32765 0.11529 0.0
C1734 C 0.23729 0.32383 0.12366 0.0
C1735 C 0.29063 0.30572 0.21088 0.0
C1736 C 0.27569 0.29127 0.21122 0.0
C1737 C 0.29262 0.31509 0.1954 0.0
C1738 C 0.28005 0.30984 0.1795 0.0
C1739 C 0.26515 0.29528 0.17989 0.0
C1740 C 0.26296 0.28626 0.19553 0.0
C1741 C 0.28199 0.31993 0.16288 0.0
C1742 C 0.26725 0.32479 0.15404 0.0
C1743 C 0.2982 0.32496 0.15563 0.0
C1744 C 0.31365 0.31768 0.16117 0.0
C1745 C 0.31436 0.29912 0.15363 0.0
C1746 C 0.33009 0.29319 0.15579 0.0
C1747 C 0.34504 0.30554 0.16592 0.0
C1748 C 0.34433 0.32396 0.17371 0.0
C1749 C 0.32875 0.33015 0.1711 0.0
H1750 H 0.35719 0.30086 0.16765 0.0
H1751 H 0.20968 0.34917 0.10649 0.0
H1752 H 0.23983 0.93066 1.00152 0.0
H1753 H 0.21749 0.9467 0.01318 0.0
H1754 H 0.25732 0.98688 0.05179 0.0
H1755 H 0.27977 0.97131 0.03985 0.0
H1756 H 0.22287 0.9681 0.06571 0.0
H1757 H 0.24798 1.00628 0.02266 0.0
H1758 H 0.2601 0.01016 0.99314 0.0
H1759 H 0.21009 0.98161 0.96271 0.0
H1760 H 0.19777 0.97724 0.99211 0.0
H1761 H 0.16965 0.04069 0.07396 0.0
H1762 H 0.19345 0.02388 0.07297 0.0
H1763 H 0.16061 0.97828 0.03307 0.0
H1764 H 0.13639 0.99444 0.03457 0.0
H1765 H 0.19424 1.00243 0.02264 0.0
H1766 H 0.16974 0.96478 0.06774 0.0
H1767 H 0.15994 0.95864 0.09783 0.0
H1768 H 0.21098 0.98722 0.12576 0.0
H1769 H 0.22101 0.99377 0.09584 0.0
C1770 C 0.24375 0.94297 0.0124 0.0
C1771 C 0.26138 0.95002 0.01964 0.0
C1772 C 0.23108 0.95196 0.01912 0.0
C1773 C 0.23595 0.96777 0.03334 0.0
C1774 C 0.25349 0.9746 0.04087 0.0
C1775 C 0.26622 0.96589 0.03387 0.0
C1776 C 0.22271 0.97787 0.03934 0.0
C1777 C 0.21673 0.97593 0.05654 0.0
C1778 C 0.21497 0.98795 0.02721 0.0
C1779 C 0.22199 0.99135 0.00954 0.0
C1780 C 0.23959 1.00077 0.00966 0.0
C1781 C 0.2465 1.00304 0.99296 0.0
C1782 C 0.23588 0.9961 0.97605 0.0
C1783 C 0.2183 0.98697 0.97582 0.0
C1784 C 0.21134 0.98461 0.9925 0.0
C1785 C 0.16723 0.02677 0.06549 0.0
C1786 C 0.15122 0.01903 0.05409 0.0
C1787 C 0.18086 0.01723 0.06495 0.0
C1788 C 0.17864 0.99998 0.05294 0.0
C1789 C 0.1624 0.99163 0.04243 0.0
C1790 C 0.14871 1.00099 0.04315 0.0
C1791 C 0.19391 0.99227 0.04894 0.0
C1792 C 0.20043 0.99483 0.03202 0.0
C1793 C 0.20233 0.98311 0.06156 0.0
C1794 C 0.19601 0.98008 0.0796 0.0
C1795 C 0.17877 0.97008 0.08033 0.0
C1796 C 0.1732 0.96642 0.09735 0.0
C1797 C 0.1848 0.97262 0.11371 0.0
C1798 C 0.20199 0.9825 0.11309 0.0
C1799 C 0.20761 0.98619 0.09611 0.0
H1800 H 0.18049 0.96969 0.12686 0.0
H1801 H 0.24126 0.99783 0.96312 0.0
H1802 H 0.72621 0.66901 0.02766 0.0
H1803 H 0.69754 0.64802 0.02903 0.0
H1804 H 0.70204 0.61435 0.97707 0.0
H1805 H 0.73108 0.63482 0.97613 0.0
H1806 H 0.66785 0.62686 0.98107 0.0
H1807 H 0.70802 0.5952 0.00973 0.0
H1808 H 0.73283 0.59384 0.03211 0.0
H1809 H 0.70454 0.60894 0.07745 0.0
H1810 H 0.67968 0.61083 0.05529 0.0
H1811 H 0.59691 0.54751 0.97626 0.0
H1812 H 0.62582 0.56826 0.97647 0.0
H1813 H 0.62621 0.59006 0.03442 0.0
H1814 H 0.59716 0.56911 0.03427 0.0
H1815 H 0.65837 0.58431 0.02827 0.0
H1816 H 0.61941 0.61763 1.0012 0.0
H1817 H 0.59534 0.62259 0.98 0.0
H1818 H 0.62128 0.60649 0.93303 0.0
H1819 H 0.64568 0.60163 0.95405 0.0
C1820 C 0.72101 0.65717 0.0165 0.0
C1821 C 0.7308 0.65355 1.00172 0.0
C1822 C 0.70467 0.64515 0.01733 0.0
C1823 C 0.69757 0.62961 1.00312 0.0
C1824 C 0.70721 0.62625 0.98817 0.0
C1825 C 0.72379 0.63791 0.98764 0.0
C1826 C 0.6801 0.61686 1.00389 0.0
C1827 C 0.66584 0.61734 0.9912 0.0
C1828 C 0.6773 0.60487 0.01748 0.0
C1829 C 0.69206 0.60337 0.03085 0.0
C1830 C 0.70714 0.59842 0.02447 0.0
C1831 C 0.72121 0.59753 0.03711 0.0
C1832 C 0.72028 0.60135 0.0562 0.0
C1833 C 0.70525 0.60602 0.06266 0.0
C1834 C 0.69117 0.607 0.05006 0.0
C1835 C 0.60308 0.55677 0.98906 0.0
C1836 C 0.59458 0.55666 0.00521 0.0
C1837 C 0.61968 0.56871 0.98916 0.0
C1838 C 0.62834 0.581 0.00542 0.0
C1839 C 0.61994 0.5808 0.02166 0.0
C1840 C 0.60324 0.56887 0.02154 0.0
C1841 C 0.64598 0.59409 0.00524 0.0
C1842 C 0.66032 0.59375 0.01807 0.0
C1843 C 0.64888 0.6064 0.99187 0.0
C1844 C 0.63423 0.60905 0.97916 0.0
C1845 C 0.6199 0.61499 0.98634 0.0
C1846 C 0.60621 0.61781 0.97436 0.0
C1847 C 0.60666 0.61466 0.95515 0.0
C1848 C 0.62091 0.60885 0.9479 0.0
C1849 C 0.63471 0.60613 0.95985 0.0
H1850 H 0.59601 0.61683 0.9459 0.0
H1851 H 0.73119 0.60064 0.06597 0.0
H1852 H 0.69508 0.46872 0.24312 0.0
H1853 H 0.70979 0.44185 0.23998 0.0
H1854 H 0.70206 0.43445 0.29609 0.0
H1855 H 0.68659 0.46062 0.29892 0.0
H1856 H 0.73711 0.43316 0.28913 0.0
H1857 H 0.67934 0.40125 0.25953 0.0
H1858 H 0.6529 0.39337 0.23661 0.0
H1859 H 0.68441 0.38556 0.19231 0.0
H1860 H 0.71108 0.39358 0.21494 0.0
H1861 H 0.77202 0.34979 0.29295 0.0
H1862 H 0.75508 0.37443 0.29406 0.0
H1863 H 0.7451 0.36382 0.23432 0.0
H1864 H 0.7612 0.33818 0.23345 0.0
H1865 H 0.71888 0.37481 0.24196 0.0
H1866 H 0.77619 0.40863 0.26823 0.0
H1867 H 0.80407 0.41739 0.28907 0.0
H1868 H 0.77594 0.42409 0.33643 0.0
H1869 H 0.74788 0.41525 0.31586 0.0
C1870 C 0.69635 0.4614 0.25487 0.0
C1871 C 0.68936 0.46748 0.27138 0.0
C1872 C 0.70486 0.4457 0.253 0.0
C1873 C 0.70744 0.43539 0.26772 0.0
C1874 C 0.70059 0.4416 0.28426 0.0
C1875 C 0.69157 0.45686 0.28591 0.0
C1876 C 0.71767 0.41894 0.26632 0.0
C1877 C 0.73282 0.42034 0.27888 0.0
C1878 C 0.71313 0.40202 0.25264 0.0
C1879 C 0.69726 0.39831 0.23894 0.0
C1880 C 0.68068 0.39817 0.24488 0.0
C1881 C 0.66563 0.39357 0.23194 0.0
C1882 C 0.66698 0.38904 0.21301 0.0
C1883 C 0.68339 0.38913 0.20697 0.0
C1884 C 0.69847 0.3937 0.21985 0.0
C1885 C 0.76623 0.35257 0.27995 0.0
C1886 C 0.76831 0.34145 0.26312 0.0
C1887 C 0.75653 0.36721 0.28054 0.0
C1888 C 0.74867 0.37232 0.26427 0.0
C1889 C 0.75067 0.36098 0.24739 0.0
C1890 C 0.7601 0.34602 0.24684 0.0
C1891 C 0.73844 0.38892 0.26491 0.0
C1892 C 0.72328 0.3876 0.25221 0.0
C1893 C 0.74323 0.40624 0.27811 0.0
C1894 C 0.75996 0.41106 0.29055 0.0
C1895 C 0.77596 0.41181 0.28311 0.0
C1896 C 0.79179 0.41684 0.29486 0.0
C1897 C 0.79177 0.42124 0.31406 0.0
C1898 C 0.77593 0.42065 0.32155 0.0
C1899 C 0.76006 0.41565 0.30986 0.0
H1900 H 0.80404 0.42515 0.32314 0.0
H1901 H 0.6553 0.38539 0.20303 0.0
H1902 H 0.8362 0.47297 0.51112 0.0
H1903 H 0.86628 0.48968 0.50991 0.0
H1904 H 0.88433 0.43863 0.51576 0.0
H1905 H 0.85409 0.42153 0.51676 0.0
H1906 H 0.90258 0.47714 0.54007 0.0
H1907 H 0.88508 0.44414 0.47725 0.0
H1908 H 0.8657 0.43292 0.44766 0.0
H1909 H 0.86682 0.49067 0.44085 0.0
H1910 H 0.88602 0.50222 0.47052 0.0
H1911 H 0.98339 0.49887 0.5045 0.0
H1912 H 0.953 0.48328 0.50668 0.0
H1913 H 0.93824 0.53736 0.50961 0.0
H1914 H 0.969 0.55317 0.50802 0.0
H1915 H 0.91848 0.49766 0.48067 0.0
H1916 H 0.93365 0.53086 0.54372 0.0
H1917 H 0.95395 0.54309 0.57251 0.0
H1918 H 0.95708 0.48611 0.57848 0.0
H1919 H 0.93721 0.47362 0.54936 0.0
C1920 C 0.84657 0.46535 0.51232 0.0
C1921 C 0.843 0.44603 0.51384 0.0
C1922 C 0.8636 0.47483 0.51154 0.0
C1923 C 0.87706 0.46507 0.51245 0.0
C1924 C 0.87378 0.44607 0.5149 0.0
C1925 C 0.85667 0.43646 0.51549 0.0
C1926 C 0.89458 0.47512 0.51078 0.0
C1927 C 0.90623 0.48142 0.52707 0.0
C1928 C 0.89873 0.48096 0.49384 0.0
C1929 C 0.88681 0.47404 0.47622 0.0
C1930 C 0.881 0.45444 0.46957 0.0
C1931 C 0.8701 0.44802 0.45274 0.0
C1932 C 0.86499 0.46107 0.44241 0.0
C1933 C 0.87077 0.48057 0.44888 0.0
C1934 C 0.88167 0.48706 0.46569 0.0
C1935 C 0.97357 0.50729 0.5057 0.0
C1936 C 0.97796 0.52692 0.50629 0.0
C1937 C 0.95645 0.49851 0.50687 0.0
C1938 C 0.94385 0.50941 0.50833 0.0
C1939 C 0.94814 0.52904 0.50853 0.0
C1940 C 0.96543 0.53793 0.50772 0.0
C1941 C 0.92624 0.49984 0.50996 0.0
C1942 C 0.91469 0.49346 0.49365 0.0
C1943 C 0.9221 0.49404 0.52686 0.0
C1944 C 0.93406 0.50134 0.54434 0.0
C1945 C 0.93885 0.52097 0.55106 0.0
C1946 C 0.95027 0.52796 0.56743 0.0
C1947 C 0.9568 0.51542 0.57733 0.0
C1948 C 0.95205 0.49585 0.5708 0.0
C1949 C 0.94071 0.48879 0.55435 0.0
H1950 H 0.96544 0.52097 0.59009 0.0
H1951 H 0.85658 0.45607 0.42936 0.0
H1952 H 0.37653 0.0671 0.29839 0.0
H1953 H 0.35786 0.08332 0.28117 0.0
H1954 H 0.40133 0.10574 0.2523 0.0
H1955 H 0.42019 0.09033 0.27001 0.0
H1956 H 0.38723 0.13213 0.26547 0.0
H1957 H 0.36501 0.07061 0.22973 0.0
H1958 H 0.35242 0.03607 0.223 0.0
H1959 H 0.30653 0.04425 0.24799 0.0
H1960 H 0.31892 0.07881 0.25511 0.0
H1961 H 0.32948 0.17893 0.21906 0.0
H1962 H 0.34882 0.15667 0.22185 0.0
H1963 H 0.31675 0.13054 0.26038 0.0
H1964 H 0.29764 0.15273 0.25768 0.0
H1965 H 0.32663 0.10439 0.23485 0.0
H1966 H 0.3521 0.16436 0.27604 0.0
H1967 H 0.3658 0.19853 0.28497 0.0
H1968 H 0.4066 0.19222 0.25074 0.0
H1969 H 0.39294 0.15805 0.24136 0.0
C1970 C 0.38212 0.0758 0.2886 0.0
C1971 C 0.39983 0.0779 0.28579 0.0
C1972 C 0.37138 0.08463 0.27847 0.0
C1973 C 0.37817 0.09529 0.26518 0.0
C1974 C 0.39587 0.09741 0.26242 0.0
C1975 C 0.40667 0.08891 0.27277 0.0
C1976 C 0.36749 0.10631 0.25593 0.0
C1977 C 0.37417 0.12596 0.25824 0.0
C1978 C 0.35034 0.0982 0.24694 0.0
C1979 C 0.34299 0.07733 0.24308 0.0
C1980 C 0.35232 0.06504 0.23397 0.0
C1981 C 0.34519 0.04545 0.23004 0.0
C1982 C 0.3287 0.03797 0.23509 0.0
C1983 C 0.3193 0.05006 0.24409 0.0
C1984 C 0.32637 0.06966 0.24805 0.0
C1985 C 0.32658 0.16822 0.22789 0.0
C1986 C 0.31233 0.16735 0.23826 0.0
C1987 C 0.33752 0.15562 0.22947 0.0
C1988 C 0.3341 0.14211 0.24132 0.0
C1989 C 0.31946 0.14086 0.25111 0.0
C1990 C 0.30868 0.15352 0.24968 0.0
C1991 C 0.34636 0.13009 0.24481 0.0
C1992 C 0.33994 0.11032 0.24148 0.0
C1993 C 0.36379 0.13802 0.25295 0.0
C1994 C 0.37126 0.15877 0.25764 0.0
C1995 C 0.36378 0.17034 0.27012 0.0
C1996 C 0.3716 0.18968 0.27534 0.0
C1997 C 0.387 0.19757 0.26833 0.0
C1998 C 0.39461 0.18612 0.25606 0.0
C1999 C 0.38681 0.16679 0.25075 0.0
H2000 H 0.39308 0.21252 0.27247 0.0
H2001 H 0.3232 0.02281 0.23201 0.0
H2002 H 0.34179 0.17761 0.49559 0.0
H2003 H 0.36682 0.16404 0.50457 0.0
H2004 H 0.33926 0.13977 0.54702 0.0
H2005 H 0.31398 0.15259 0.53757 0.0
H2006 H 0.3776 0.1581 0.55788 0.0
H2007 H 0.3373 0.11125 0.51372 0.0
H2008 H 0.31765 0.0986 0.48455 0.0
H2009 H 0.3613 0.11048 0.4532 0.0
H2010 H 0.38116 0.1237 0.48222 0.0
H2011 H 0.42438 0.0797 0.56135 0.0
H2012 H 0.40211 0.09881 0.56123 0.0
H2013 H 0.42739 0.12918 0.52095 0.0
H2014 H 0.4501 0.11101 0.52163 0.0
H2015 H 0.38948 0.10742 0.51126 0.0
H2016 H 0.43012 0.15311 0.55768 0.0
H2017 H 0.44851 0.16461 0.58779 0.0
H2018 H 0.40295 0.15267 0.61637 0.0
H2019 H 0.3843 0.14063 0.58641 0.0
C2020 C 0.34112 0.16941 0.50684 0.0
C2021 C 0.32586 0.16588 0.51567 0.0
C2022 C 0.35543 0.16176 0.51203 0.0
C2023 C 0.35491 0.15093 0.5265 0.0
C2024 C 0.33997 0.14812 0.53587 0.0
C2025 C 0.32548 0.15527 0.53032 0.0
C2026 C 0.36931 0.14122 0.53073 0.0
C2027 C 0.38014 0.14689 0.54779 0.0
C2028 C 0.37256 0.12656 0.51761 0.0
C2029 C 0.36067 0.11878 0.50012 0.0
C2030 C 0.34267 0.11145 0.5006 0.0
C2031 C 0.3315 0.10413 0.4841 0.0
C2032 C 0.3382 0.10381 0.46702 0.0
C2033 C 0.35611 0.1108 0.46643 0.0
C2034 C 0.36733 0.11824 0.4829 0.0
C2035 C 0.42553 0.09083 0.55288 0.0
C2036 C 0.43894 0.09351 0.54123 0.0
C2037 C 0.41273 0.10169 0.55279 0.0
C2038 C 0.41306 0.11532 0.54099 0.0
C2039 C 0.42686 0.11867 0.53009 0.0
C2040 C 0.43975 0.1081 0.53039 0.0
C2041 C 0.3981 0.12455 0.53822 0.0
C2042 C 0.38702 0.11865 0.52139 0.0
C2043 C 0.39455 0.13874 0.55172 0.0
C2044 C 0.40583 0.14563 0.56976 0.0
C2045 C 0.42403 0.1526 0.57037 0.0
C2046 C 0.43451 0.1593 0.58742 0.0
C2047 C 0.42691 0.1593 0.60399 0.0
C2048 C 0.40882 0.1526 0.60353 0.0
C2049 C 0.3983 0.14582 0.58651 0.0
H2050 H 0.43504 0.16455 0.61718 0.0
H2051 H 0.32954 0.09808 0.45426 0.0
H2052 H 0.70569 0.57998 0.30875 0.0
H2053 H 0.72122 0.61314 0.30844 0.0
H2054 H 0.69795 0.60912 0.25223 0.0
H2055 H 0.68175 0.57647 0.25287 0.0
H2056 H 0.73598 0.62619 0.25821 0.0
H2057 H 0.68371 0.63527 0.28217 0.0
H2058 H 0.66062 0.63251 0.30302 0.0
H2059 H 0.69878 0.66058 0.34952 0.0
H2060 H 0.72219 0.66323 0.32896 0.0
H2061 H 0.76727 0.72405 0.24769 0.0
H2062 H 0.74884 0.69238 0.24817 0.0
H2063 H 0.75831 0.7021 0.30791 0.0
H2064 H 0.77663 0.73382 0.30733 0.0
H2065 H 0.72644 0.68178 0.30005 0.0
H2066 H 0.77898 0.67154 0.27575 0.0
H2067 H 0.80195 0.67265 0.25472 0.0
H2068 H 0.76297 0.64571 0.20856 0.0
H2069 H 0.73975 0.64466 0.22929 0.0
C2070 C 0.70383 0.58609 0.29629 0.0
C2071 C 0.69232 0.57509 0.28081 0.0
C2072 C 0.71275 0.60529 0.29613 0.0
C2073 C 0.71106 0.61421 0.28028 0.0
C2074 C 0.69978 0.60307 0.26474 0.0
C2075 C 0.69041 0.58417 0.26513 0.0
C2076 C 0.72109 0.63481 0.27975 0.0
C2077 C 0.73364 0.6383 0.26726 0.0
C2078 C 0.71866 0.65109 0.2916 0.0
C2079 C 0.70475 0.6492 0.30408 0.0
C2080 C 0.68723 0.64062 0.29689 0.0
C2081 C 0.67407 0.63913 0.30864 0.0
C2082 C 0.67824 0.6463 0.3276 0.0
C2083 C 0.69558 0.65499 0.33483 0.0
C2084 C 0.7088 0.65649 0.32314 0.0
C2085 C 0.76505 0.71975 0.26101 0.0
C2086 C 0.77318 0.73224 0.27749 0.0
C2087 C 0.75464 0.7012 0.2613 0.0
C2088 C 0.75198 0.69395 0.2781 0.0
C2089 C 0.75976 0.70671 0.2946 0.0
C2090 C 0.77026 0.7252 0.29428 0.0
C2091 C 0.74157 0.67331 0.27851 0.0
C2092 C 0.72887 0.66975 0.29099 0.0
C2093 C 0.74384 0.6569 0.2666 0.0
C2094 C 0.75763 0.65828 0.25401 0.0
C2095 C 0.7753 0.66609 0.26107 0.0
C2096 C 0.78836 0.66664 0.24922 0.0
C2097 C 0.78392 0.65932 0.23031 0.0
C2098 C 0.76639 0.65144 0.2232 0.0
C2099 C 0.75328 0.65087 0.23499 0.0
H2100 H 0.79406 0.65969 0.22117 0.0
H2101 H 0.66802 0.64518 0.33667 0.0
H2102 H 0.91471 0.46794 0.76693 0.0
H2103 H 0.89584 0.43561 0.76162 0.0
H2104 H 0.873 0.45 0.81191 0.0
H2105 H 0.89142 0.48173 0.81691 0.0
H2106 H 0.87444 0.41292 0.80603 0.0
H2107 H 0.85959 0.46194 0.76406 0.0
H2108 H 0.86071 0.47525 0.73486 0.0
H2109 H 0.85698 0.41957 0.70401 0.0
H2110 H 0.85611 0.40609 0.73306 0.0
H2111 H 0.79401 0.37887 0.81782 0.0
H2112 H 0.81328 0.40885 0.81454 0.0
H2113 H 0.80919 0.38948 0.7554 0.0
H2114 H 0.78813 0.36148 0.75829 0.0
H2115 H 0.82732 0.41894 0.75919 0.0
H2116 H 0.83391 0.3682 0.79878 0.0
H2117 H 0.8283 0.35372 0.82689 0.0
H2118 H 0.8475 0.40833 0.86125 0.0
H2119 H 0.85277 0.42315 0.83337 0.0
C2120 C 0.90608 0.4637 0.77711 0.0
C2121 C 0.90413 0.47696 0.7922 0.0
C2122 C 0.8954 0.44539 0.77408 0.0
C2123 C 0.88309 0.44053 0.78633 0.0
C2124 C 0.88257 0.4534 0.80237 0.0
C2125 C 0.89294 0.47156 0.8052 0.0
C2126 C 0.86821 0.4242 0.78138 0.0
C2127 C 0.86411 0.41341 0.79537 0.0
C2128 C 0.85493 0.42459 0.76735 0.0
C2129 C 0.85832 0.4332 0.75066 0.0
C2130 C 0.8595 0.4527 0.75108 0.0
C2131 C 0.85998 0.46023 0.73457 0.0
C2132 C 0.85908 0.4483 0.71762 0.0
C2133 C 0.85793 0.42885 0.71715 0.0
C2134 C 0.85755 0.42129 0.73363 0.0
C2135 C 0.7963 0.38172 0.804 0.0
C2136 C 0.79144 0.3673 0.78843 0.0
C2137 C 0.80753 0.3987 0.80216 0.0
C2138 C 0.8144 0.40004 0.7852 0.0
C2139 C 0.80513 0.38824 0.76901 0.0
C2140 C 0.79314 0.37194 0.77068 0.0
C2141 C 0.83306 0.40864 0.78473 0.0
C2142 C 0.83752 0.41735 0.76945 0.0
C2143 C 0.84668 0.40587 0.79748 0.0
C2144 C 0.84356 0.39675 0.81406 0.0
C2145 C 0.83692 0.37706 0.81235 0.0
C2146 C 0.8338 0.36882 0.82823 0.0
C2147 C 0.83763 0.38007 0.84583 0.0
C2148 C 0.84454 0.39962 0.84762 0.0
C2149 C 0.84754 0.40795 0.83181 0.0
H2150 H 0.83523 0.37365 0.85809 0.0
H2151 H 0.85907 0.45417 0.70488 0.0
H2152 H 0.07439 0.84641 0.07276 0.0
H2153 H 0.07119 0.8745 0.059 0.0
H2154 H 0.05992 0.90125 0.11157 0.0
H2155 H 0.06279 0.87321 0.12519 0.0
H2156 H 0.03802 0.90682 0.08592 0.0
H2157 H 0.10043 0.91442 0.0931 0.0
H2158 H 0.12886 0.90603 0.08918 0.0
H2159 H 0.11791 0.90073 0.02995 0.0
H2160 H 0.0893 0.90883 0.0335 0.0
H2161 H 0.04942 1.0025 0.0691 0.0
H2162 H 0.05198 0.97301 0.0805 0.0
H2163 H 0.05876 0.94802 0.02536 0.0
H2164 H 0.05606 0.97762 0.01396 0.0
H2165 H 0.08231 0.94081 0.05078 0.0
H2166 H 0.01995 0.93448 0.04438 0.0
H2167 H 0.99207 0.94387 0.04913 0.0
H2168 H 1.00373 0.94784 0.10814 0.0
H2169 H 0.03179 0.9387 0.10375 0.0
C2170 C 0.07132 0.85833 0.08141 0.0
C2171 C 0.06892 0.85749 0.10014 0.0
C2172 C 0.06957 0.87448 0.07353 0.0
C2173 C 0.06546 0.89028 0.08421 0.0
C2174 C 0.06308 0.88939 0.10292 0.0
C2175 C 0.0648 0.87329 0.11075 0.0
C2176 C 0.06313 0.90753 0.07597 0.0
C2177 C 0.04787 0.91434 0.07844 0.0
C2178 C 0.07564 0.91728 0.06574 0.0
C2179 C 0.09263 0.91197 0.06355 0.0
C2180 C 0.104 0.91125 0.07923 0.0
C2181 C 0.12017 0.90659 0.07708 0.0
C2182 C 0.12516 0.90278 0.05932 0.0
C2183 C 0.11401 0.90363 0.04369 0.0
C2184 C 0.09781 0.90825 0.04576 0.0
C2185 C 0.05134 0.99064 0.05941 0.0
C2186 C 0.05246 0.99227 0.04064 0.0
C2187 C 0.05273 0.97373 0.06591 0.0
C2188 C 0.05539 0.95805 0.05381 0.0
C2189 C 0.05664 0.95979 0.03501 0.0
C2190 C 0.05503 0.97666 0.02846 0.0
C2191 C 0.05731 0.94012 0.06088 0.0
C2192 C 0.07247 0.9332 0.05819 0.0
C2193 C 0.04478 0.93035 0.07106 0.0
C2194 C 0.02805 0.9361 0.07374 0.0
C2195 C 0.01665 0.93754 0.05838 0.0
C2196 C 1.00079 0.94277 0.061 0.0
C2197 C 0.99616 0.9465 0.07893 0.0
C2198 C 0.00735 0.94498 0.09427 0.0
C2199 C 0.02322 0.93976 0.09171 0.0
H2200 H 0.98387 0.95054 0.08093 0.0
H2201 H 0.1377 0.89922 0.05769 0.0
H2202 H 0.94442 0.24932 0.89226 0.0
H2203 H 0.9168 0.25632 0.87955 0.0
H2204 H 0.94561 0.30952 0.8676 0.0
H2205 H 0.97323 0.3022 0.87949 0.0
H2206 H 0.91228 0.3114 0.8849 0.0
H2207 H 0.93361 0.27967 0.83308 0.0
H2208 H 0.94586 0.254 0.81755 0.0
H2209 H 0.89926 0.21292 0.82274 0.0
H2210 H 0.88687 0.23838 0.83866 0.0
H2211 H 0.84987 0.33471 0.81907 0.0
H2212 H 0.87529 0.32843 0.83685 0.0
H2213 H 0.84665 0.27116 0.83694 0.0
H2214 H 0.82097 0.27771 0.81943 0.0
H2215 H 0.87947 0.27103 0.82706 0.0
H2216 H 0.85735 0.30406 0.87742 0.0
H2217 H 0.84583 0.33034 0.89292 0.0
H2218 H 0.89433 0.3697 0.89036 0.0
H2219 H 0.90606 0.34366 0.87458 0.0
C2220 C 0.9449 0.26245 0.88681 0.0
C2221 C 0.96122 0.27498 0.88665 0.0
C2222 C 0.92903 0.26653 0.87961 0.0
C2223 C 0.92888 0.28356 0.87257 0.0
C2224 C 0.94514 0.29633 0.87292 0.0
C2225 C 0.96103 0.29199 0.87959 0.0
C2226 C 0.91198 0.28748 0.86388 0.0
C2227 C 0.90522 0.30264 0.87217 0.0
C2228 C 0.90239 0.2761 0.84737 0.0
C2229 C 0.9094 0.26086 0.8372 0.0
C2230 C 0.92602 0.26514 0.831 0.0
C2231 C 0.93299 0.25064 0.82213 0.0
C2232 C 0.92336 0.23183 0.8192 0.0
C2233 C 0.9067 0.2275 0.82505 0.0
C2234 C 0.8997 0.24196 0.83399 0.0
C2235 C 0.8486 0.3211 0.82373 0.0
C2236 C 0.83286 0.30712 0.81864 0.0
C2237 C 0.86337 0.31736 0.8337 0.0
C2238 C 0.86317 0.29928 0.83858 0.0
C2239 C 0.84737 0.28529 0.83362 0.0
C2240 C 0.83247 0.28916 0.82387 0.0
C2241 C 0.8796 0.29493 0.84809 0.0
C2242 C 0.88637 0.27972 0.83988 0.0
C2243 C 0.88923 0.30637 0.86464 0.0
C2244 C 0.88252 0.32195 0.87469 0.0
C2245 C 0.86553 0.31834 0.8801 0.0
C2246 C 0.85896 0.33318 0.88893 0.0
C2247 C 0.86932 0.35169 0.89258 0.0
C2248 C 0.88632 0.35536 0.88751 0.0
C2249 C 0.89294 0.34055 0.87864 0.0
H2250 H 0.86419 0.36318 0.89937 0.0
H2251 H 0.92879 0.2206 0.81236 0.0
H2252 H 0.58415 0.25709 0.58195 0.0
H2253 H 0.57959 0.22335 0.56877 0.0
H2254 H 0.53578 0.21001 0.60013 0.0
H2255 H 0.54074 0.24345 0.61378 0.0
H2256 H 0.55343 0.18591 0.60385 0.0
H2257 H 0.53069 0.2069 0.55135 0.0
H2258 H 0.52776 0.22514 0.52582 0.0
H2259 H 0.57251 0.2089 0.50419 0.0
H2260 H 0.57585 0.19077 0.52975 0.0
H2261 H 0.51938 0.09267 0.55206 0.0
H2262 H 0.52364 0.1266 0.56329 0.0
H2263 H 0.57716 0.13578 0.55083 0.0
H2264 H 0.57311 0.10147 0.53976 0.0
H2265 H 0.55425 0.16103 0.53737 0.0
H2266 H 0.57249 0.13698 0.59322 0.0
H2267 H 0.56697 0.11461 0.61549 0.0
H2268 H 0.52058 0.13394 0.62779 0.0
H2269 H 0.5257 0.15622 0.60538 0.0
C2270 C 0.57347 0.24695 0.58587 0.0
C2271 C 0.5629 0.2529 0.599 0.0
C2272 C 0.57079 0.22766 0.57826 0.0
C2273 C 0.55728 0.21401 0.58338 0.0
C2274 C 0.54639 0.22013 0.59605 0.0
C2275 C 0.54921 0.2393 0.60381 0.0
C2276 C 0.5551 0.1933 0.57641 0.0
C2277 C 0.55348 0.18059 0.58926 0.0
C2278 C 0.555 0.18603 0.55739 0.0
C2279 C 0.5537 0.19776 0.54263 0.0
C2280 C 0.54009 0.20748 0.54132 0.0
C2281 C 0.5383 0.21772 0.5268 0.0
C2282 C 0.54999 0.21825 0.51344 0.0
C2283 C 0.5635 0.20854 0.51458 0.0
C2284 C 0.56536 0.19829 0.52909 0.0
C2285 C 0.53207 0.10187 0.55157 0.0
C2286 C 0.54591 0.09445 0.54489 0.0
C2287 C 0.53447 0.12124 0.55811 0.0
C2288 C 0.5507 0.1336 0.55792 0.0
C2289 C 0.56454 0.12636 0.55108 0.0
C2290 C 0.56223 0.10683 0.54481 0.0
C2291 C 0.55304 0.15413 0.56483 0.0
C2292 C 0.55451 0.16665 0.55195 0.0
C2293 C 0.55213 0.16108 0.58364 0.0
C2294 C 0.54944 0.14818 0.59758 0.0
C2295 C 0.56109 0.1364 0.60063 0.0
C2296 C 0.55803 0.12374 0.61327 0.0
C2297 C 0.54343 0.12284 0.62304 0.0
C2298 C 0.53189 0.13466 0.62023 0.0
C2299 C 0.53488 0.14732 0.60758 0.0
H2300 H 0.54106 0.11301 0.63279 0.0
H2301 H 0.54854 0.22612 0.50215 0.0
H2302 H 0.57089 0.80518 0.41245 0.0
H2303 H 0.59993 0.81032 0.40158 0.0
H2304 H 0.58227 0.75994 0.36022 0.0
H2305 H 0.55313 0.7548 0.37099 0.0
H2306 H 0.61522 0.7619 0.37966 0.0
H2307 H 0.58657 0.80586 0.35002 0.0
H2308 H 0.57264 0.83327 0.35161 0.0
H2309 H 0.61877 0.86893 0.38457 0.0
H2310 H 0.63285 0.84165 0.38342 0.0
H2311 H 0.67708 0.7644 0.31667 0.0
H2312 H 0.65152 0.7638 0.3333 0.0
H2313 H 0.67329 0.82154 0.36034 0.0
H2314 H 0.69897 0.82231 0.34337 0.0
H2315 H 0.64066 0.81901 0.35305 0.0
H2316 H 0.67059 0.78225 0.38438 0.0
H2317 H 0.6875 0.7583 0.38996 0.0
H2318 H 0.64379 0.71363 0.36378 0.0
H2319 H 0.62669 0.73735 0.3578 0.0
C2320 C 0.57313 0.79521 0.40098 0.0
C2321 C 0.55954 0.77958 0.39255 0.0
C2322 C 0.5898 0.79822 0.39473 0.0
C2323 C 0.59341 0.78564 0.37991 0.0
C2324 C 0.57991 0.76993 0.37162 0.0
C2325 C 0.56317 0.76702 0.37774 0.0
C2326 C 0.6112 0.78857 0.37309 0.0
C2327 C 0.62063 0.77425 0.37357 0.0
C2328 C 0.61908 0.80532 0.3664 0.0
C2329 C 0.61068 0.82169 0.36676 0.0
C2330 C 0.59369 0.81952 0.3577 0.0
C2331 C 0.58578 0.83504 0.35852 0.0
C2332 C 0.5948 0.85282 0.36822 0.0
C2333 C 0.61178 0.85515 0.37708 0.0
C2334 C 0.61974 0.83967 0.37634 0.0
C2335 C 0.67667 0.77693 0.32635 0.0
C2336 C 0.69037 0.79334 0.32866 0.0
C2337 C 0.66191 0.77657 0.33595 0.0
C2338 C 0.66034 0.79249 0.34849 0.0
C2339 C 0.67397 0.80899 0.35082 0.0
C2340 C 0.68874 0.80941 0.34106 0.0
C2341 C 0.6443 0.79178 0.35866 0.0
C2342 C 0.6353 0.80658 0.35905 0.0
C2343 C 0.63723 0.77594 0.36711 0.0
C2344 C 0.64742 0.76157 0.37049 0.0
C2345 C 0.66464 0.76732 0.37967 0.0
C2346 C 0.67425 0.75379 0.38293 0.0
C2347 C 0.66674 0.73445 0.37719 0.0
C2348 C 0.64959 0.72861 0.3682 0.0
C2349 C 0.63993 0.74209 0.36489 0.0
H2350 H 0.6742 0.72398 0.37974 0.0
H2351 H 0.58865 0.86481 0.36884 0.0
H2352 H 0.0522 0.26785 0.39755 0.0
H2353 H 0.04333 0.23742 0.40843 0.0
H2354 H 0.0937 0.24767 0.44134 0.0
H2355 H 0.10254 0.27852 0.43087 0.0
H2356 H 0.07883 0.20883 0.41567 0.0
H2357 H 0.06505 0.25538 0.46423 0.0
H2358 H 0.05054 0.28154 0.47341 0.0
H2359 H 1.00055 0.24569 0.44982 0.0
H2360 H 0.01486 0.21941 0.44021 0.0
H2361 H 0.07618 0.14907 0.48138 0.0
H2362 H 0.07915 0.17476 0.46319 0.0
H2363 H 0.02279 0.16454 0.45188 0.0
H2364 H 0.01972 0.13867 0.47033 0.0
H2365 H 0.03629 0.20129 0.46196 0.0
H2366 H 0.04654 0.15416 0.41646 0.0
H2367 H 0.05831 0.12735 0.40254 0.0
H2368 H 0.11069 0.16203 0.41472 0.0
H2369 H 0.09925 0.18899 0.4289 0.0
C2370 C 0.06138 0.26361 0.40712 0.0
C2371 C 0.07803 0.27545 0.41349 0.0
C2372 C 0.0563 0.24628 0.41327 0.0
C2373 C 0.06791 0.24044 0.42559 0.0
C2374 C 0.08464 0.25207 0.43177 0.0
C2375 C 0.08961 0.26964 0.42592 0.0
C2376 C 0.06239 0.22237 0.43244 0.0
C2377 C 0.06969 0.20715 0.42594 0.0
C2378 C 0.04967 0.22002 0.44492 0.0
C2379 C 0.04102 0.23552 0.45139 0.0
C2380 C 0.05098 0.25312 0.46093 0.0
C2381 C 0.0428 0.26797 0.46621 0.0
C2382 C 0.02464 0.2653 0.46217 0.0
C2383 C 0.01462 0.24774 0.45293 0.0
C2384 C 0.02275 0.23286 0.44758 0.0
C2385 C 0.0644 0.15201 0.47473 0.0
C2386 C 0.04772 0.14181 0.47721 0.0
C2387 C 0.06611 0.16671 0.46432 0.0
C2388 C 0.05119 0.1714 0.45596 0.0
C2389 C 0.03447 0.16112 0.4582 0.0
C2390 C 0.03274 0.1464 0.46874 0.0
C2391 C 0.05337 0.18779 0.44586 0.0
C2392 C 0.04533 0.20274 0.45159 0.0
C2393 C 0.06503 0.18971 0.43219 0.0
C2394 C 0.07205 0.17354 0.42385 0.0
C2395 C 0.06059 0.15602 0.41631 0.0
C2396 C 0.06719 0.14081 0.40833 0.0
C2397 C 0.08524 0.14297 0.40778 0.0
C2398 C 0.09671 0.16037 0.41516 0.0
C2399 C 0.09017 0.17563 0.42314 0.0
H2400 H 0.09033 0.13118 0.4016 0.0
H2401 H 0.01832 0.27682 0.46623 0.0
H2402 H 0.545 0.28799 0.20697 0.0
H2403 H 0.57576 0.29349 0.2202 0.0
H2404 H 0.58612 0.25757 0.17227 0.0
H2405 H 0.55557 0.25203 0.15899 0.0
H2406 H 0.59751 0.24851 0.20586 0.0
H2407 H 0.60013 0.30254 0.17525 0.0
H2408 H 0.5919 0.3316 0.16765 0.0
H2409 H 0.60712 0.35879 0.22442 0.0
H2410 H 0.61514 0.32972 0.23242 0.0
H2411 H 0.68801 0.26551 0.20991 0.0
H2412 H 0.6582 0.2675 0.19943 0.0
H2413 H 0.6546 0.29849 0.25318 0.0
H2414 H 0.68463 0.29652 0.26384 0.0
H2415 H 0.63949 0.31142 0.21962 0.0
H2416 H 0.63817 0.25591 0.24891 0.0
H2417 H 0.64673 0.22634 0.25443 0.0
H2418 H 0.6294 0.20152 0.19732 0.0
H2419 H 0.62104 0.23109 0.1914 0.0
C2420 C 0.55388 0.28129 0.19931 0.0
C2421 C 0.54803 0.26957 0.18205 0.0
C2422 C 0.57137 0.28454 0.20679 0.0
C2423 C 0.58303 0.27601 0.19706 0.0
C2424 C 0.57719 0.26427 0.17986 0.0
C2425 C 0.5598 0.26113 0.17234 0.0
C2426 C 0.60121 0.27849 0.20514 0.0
C2427 C 0.60673 0.26224 0.20878 0.0
C2428 C 0.61296 0.29649 0.2092 0.0
C2429 C 0.60796 0.31388 0.20449 0.0
C2430 C 0.6015 0.31463 0.18616 0.0
C2431 C 0.59692 0.33112 0.18177 0.0
C2432 C 0.59891 0.34701 0.19556 0.0
C2433 C 0.60553 0.34645 0.21376 0.0
C2434 C 0.61008 0.32997 0.21824 0.0
C2435 C 0.68101 0.27314 0.21933 0.0
C2436 C 0.68839 0.2808 0.23765 0.0
C2437 C 0.66405 0.2742 0.21337 0.0
C2438 C 0.65437 0.28295 0.22567 0.0
C2439 C 0.66204 0.29165 0.24363 0.0
C2440 C 0.67901 0.29044 0.24969 0.0
C2441 C 0.63576 0.28141 0.2201 0.0
C2442 C 0.63016 0.29778 0.21694 0.0
C2443 C 0.62393 0.26346 0.21621 0.0
C2444 C 0.62917 0.24577 0.21968 0.0
C2445 C 0.63638 0.24423 0.23749 0.0
C2446 C 0.64116 0.22745 0.24069 0.0
C2447 C 0.63865 0.21208 0.22622 0.0
C2448 C 0.63136 0.21345 0.20851 0.0
C2449 C 0.62661 0.23021 0.20522 0.0
H2450 H 0.64232 0.19908 0.22875 0.0
H2451 H 0.59538 0.35978 0.19212 0.0
H2452 H 0.60944 0.8878 0.93455 0.0
H2453 H 0.59871 0.91619 0.94568 0.0
H2454 H 0.55019 0.89331 0.90933 0.0
H2455 H 0.56147 0.86583 0.89733 0.0
H2456 H 0.55805 0.92909 0.90996 0.0
H2457 H 0.55402 0.88944 0.95685 0.0
H2458 H 0.5651 0.86999 0.97801 0.0
H2459 H 0.60346 0.91912 0.0062 0.0
H2460 H 0.59272 0.93881 0.98505 0.0
H2461 H 0.51598 0.99228 0.96904 0.0
H2462 H 0.52239 0.96403 0.95066 0.0
H2463 H 0.5773 0.98403 0.97159 0.0
H2464 H 0.57106 0.01187 0.98974 0.0
H2465 H 0.56153 0.9473 0.97833 0.0
H2466 H 0.56529 0.98594 0.92868 0.0
H2467 H 0.55159 1.00481 0.90884 0.0
H2468 H 0.5102 0.95584 0.88711 0.0
H2469 H 0.52354 0.93677 0.90709 0.0
C2470 C 0.5966 0.88909 0.92895 0.0
C2471 C 0.58615 0.8749 0.91532 0.0
C2472 C 0.59043 0.90513 0.93528 0.0
C2473 C 0.57348 0.90659 0.92861 0.0
C2474 C 0.56327 0.89247 0.91465 0.0
C2475 C 0.56965 0.8768 0.90793 0.0
C2476 C 0.56606 0.92236 0.93676 0.0
C2477 C 0.55863 0.93291 0.92491 0.0
C2478 C 0.56653 0.92718 0.95621 0.0
C2479 C 0.57263 0.91554 0.96933 0.0
C2480 C 0.56483 0.89607 0.96755 0.0
C2481 C 0.57106 0.88501 0.97953 0.0
C2482 C 0.58499 0.89331 0.99343 0.0
C2483 C 0.59267 0.91271 0.99544 0.0
C2484 C 0.5865 0.92384 0.98348 0.0
C2485 C 0.52942 0.99078 0.9692 0.0
C2486 C 0.54304 1.00393 0.98081 0.0
C2487 C 0.53304 0.97471 0.95888 0.0
C2488 C 0.55026 0.97201 0.96014 0.0
C2489 C 0.56393 0.98588 0.97071 0.0
C2490 C 0.56035 1.00176 0.98095 0.0
C2491 C 0.55426 0.9543 0.95158 0.0
C2492 C 0.56085 0.94328 0.96339 0.0
C2493 C 0.55271 0.94889 0.93218 0.0
C2494 C 0.54534 0.95999 0.91939 0.0
C2495 C 0.55327 0.97922 0.91966 0.0
C2496 C 0.54556 0.98995 0.90843 0.0
C2497 C 0.53002 0.98153 0.89674 0.0
C2498 C 0.52223 0.96233 0.89617 0.0
C2499 C 0.52986 0.95156 0.90743 0.0
H2500 H 0.52403 0.98988 0.8881 0.0
H2501 H 0.58983 0.88471 1.00266 0.0
H2502 H 0.96724 0.77358 0.70916 0.0
H2503 H 0.9409 0.77397 0.72441 0.0
H2504 H 0.90885 0.74211 0.6744 0.0
H2505 H 0.93516 0.74223 0.65886 0.0
H2506 H 0.89705 0.77175 0.6866 0.0
H2507 H 0.91361 0.72137 0.71321 0.0
H2508 H 0.93235 0.70414 0.72957 0.0
H2509 H 0.94031 0.74688 0.77822 0.0
H2510 H 0.92177 0.76447 0.76207 0.0
H2511 H 0.81966 0.7453 0.72991 0.0
H2512 H 0.84623 0.74406 0.71529 0.0
H2513 H 0.8756 0.79085 0.75647 0.0
H2514 H 0.84881 0.79263 0.77097 0.0
H2515 H 0.88827 0.75415 0.7487 0.0
H2516 H 0.869 0.80319 0.72006 0.0
H2517 H 0.84813 0.81723 0.70264 0.0
H2518 H 0.84294 0.77279 0.65593 0.0
H2519 H 0.86351 0.75824 0.67321 0.0
C2520 C 0.95457 0.76654 0.7015 0.0
C2521 C 0.95308 0.75802 0.68287 0.0
C2522 C 0.9396 0.76665 0.71024 0.0
C2523 C 0.92306 0.75792 0.70051 0.0
C2524 C 0.92159 0.74892 0.68205 0.0
C2525 C 0.93655 0.74903 0.67322 0.0
C2526 C 0.90724 0.75953 0.70918 0.0
C2527 C 0.89497 0.76762 0.70004 0.0
C2528 C 0.90484 0.75448 0.72685 0.0
C2529 C 0.91649 0.74433 0.73637 0.0
C2530 C 0.91954 0.7272 0.72732 0.0
C2531 C 0.93007 0.71734 0.73657 0.0
C2532 C 0.93756 0.72443 0.7549 0.0
C2533 C 0.93453 0.74141 0.76401 0.0
C2534 C 0.92401 0.75133 0.75482 0.0
C2535 C 0.83186 0.75505 0.73609 0.0
C2536 C 0.83243 0.76885 0.75171 0.0
C2537 C 0.84685 0.75453 0.72756 0.0
C2538 C 0.86252 0.76756 0.73477 0.0
C2539 C 0.86338 0.78089 0.75076 0.0
C2540 C 0.84825 0.78173 0.75908 0.0
C2541 C 0.87828 0.76634 0.72614 0.0
C2542 C 0.89047 0.75829 0.73528 0.0
C2543 C 0.88034 0.77099 0.70829 0.0
C2544 C 0.86761 0.77947 0.69806 0.0
C2545 C 0.86321 0.79623 0.70619 0.0
C2546 C 0.85148 0.80433 0.69631 0.0
C2547 C 0.84416 0.79587 0.67822 0.0
C2548 C 0.84857 0.7793 0.66997 0.0
C2549 C 0.86026 0.77112 0.6798 0.0
H2550 H 0.8351 0.80217 0.6706 0.0
H2551 H 0.94567 0.71675 0.76206 0.0
H2552 H 0.12065 0.04176 0.82392 0.0
H2553 H 0.107 0.04505 0.8529 0.0
H2554 H 0.13164 1.00276 0.87196 0.0
H2555 H 0.1457 0.99986 0.84316 0.0
H2556 H 0.09804 0.99696 0.88269 0.0
H2557 H 0.14519 0.0525 0.89019 0.0
H2558 H 0.16227 0.08215 0.88224 0.0
H2559 H 0.11698 0.10639 0.88346 0.0
H2560 H 0.09956 0.07676 0.89114 0.0
H2561 H 0.07854 0.01251 0.97832 0.0
H2562 H 0.09261 0.00935 0.94958 0.0
H2563 H 0.07445 0.05727 0.934 0.0
H2564 H 0.06042 0.0603 0.9627 0.0
H2565 H 0.10429 0.06014 0.92112 0.0
H2566 H 0.0567 1.00717 0.91276 0.0
H2567 H 0.03733 0.9782 0.9194 0.0
H2568 H 0.07983 0.94959 0.91787 0.0
H2569 H 0.09954 0.97851 0.91147 0.0
C2570 C 0.12332 0.03309 0.83419 0.0
C2571 C 0.1347 0.02054 0.83052 0.0
C2572 C 0.11539 0.03506 0.85115 0.0
C2573 C 0.11799 0.02435 0.86558 0.0
C2574 C 0.12902 0.01146 0.8617 0.0
C2575 C 0.13727 0.00981 0.8449 0.0
C2576 C 0.10957 0.02673 0.8844 0.0
C2577 C 0.09979 0.01085 0.89109 0.0
C2578 C 0.1107 0.04468 0.89587 0.0
C2579 C 0.12104 0.06235 0.89101 0.0
C2580 C 0.13884 0.06409 0.88857 0.0
C2581 C 0.14858 0.0809 0.88415 0.0
C2582 C 0.1407 0.09612 0.88229 0.0
C2583 C 0.12306 0.09457 0.88486 0.0
C2584 C 0.11325 0.07777 0.88925 0.0
C2585 C 0.07792 0.0228 0.96913 0.0
C2586 C 0.06872 0.03726 0.97388 0.0
C2587 C 0.08582 0.02075 0.95216 0.0
C2588 C 0.08489 0.03289 0.93862 0.0
C2589 C 0.07589 0.04752 0.94358 0.0
C2590 C 0.06785 0.04942 0.96043 0.0
C2591 C 0.09297 0.03035 0.91961 0.0
C2592 C 0.1026 0.0462 0.91281 0.0
C2593 C 0.09134 0.01243 0.90785 0.0
C2594 C 0.07966 0.99508 0.91188 0.0
C2595 C 0.06197 0.99476 0.91402 0.0
C2596 C 0.05091 0.97834 0.91771 0.0
C2597 C 0.05736 0.96208 0.91912 0.0
C2598 C 0.07487 0.96221 0.91681 0.0
C2599 C 0.08599 0.97861 0.91315 0.0
H2600 H 0.04878 0.94937 0.92196 0.0
H2601 H 0.14828 0.10914 0.8789 0.0
H2602 H 0.80799 0.37655 0.54743 0.0
H2603 H 0.81913 0.37127 0.57802 0.0
H2604 H 0.80651 0.42306 0.60353 0.0
H2605 H 0.79585 0.42874 0.57294 0.0
H2606 H 0.83854 0.41676 0.61953 0.0
H2607 H 0.7774 0.38406 0.60195 0.0
H2608 H 0.75405 0.36357 0.57866 0.0
H2609 H 0.78062 0.31779 0.57845 0.0
H2610 H 0.80428 0.33812 0.60155 0.0
H2611 H 0.81942 0.38392 0.70773 0.0
H2612 H 0.82073 0.39911 0.67985 0.0
H2613 H 0.83838 0.35207 0.65105 0.0
H2614 H 0.83684 0.33675 0.67832 0.0
H2615 H 0.80448 0.35788 0.63737 0.0
H2616 H 0.86427 0.38927 0.65741 0.0
H2617 H 0.88946 0.41022 0.67785 0.0
H2618 H 0.86752 0.45851 0.67197 0.0
H2619 H 0.84172 0.43771 0.65219 0.0
C2620 C 0.80751 0.3867 0.55959 0.0
C2621 C 0.80071 0.40276 0.55806 0.0
C2622 C 0.8141 0.38386 0.57692 0.0
C2623 C 0.8135 0.39679 0.59283 0.0
C2624 C 0.80713 0.41307 0.59128 0.0
C2625 C 0.8008 0.41609 0.57393 0.0
C2626 C 0.81736 0.39202 0.6112 0.0
C2627 C 0.83105 0.40405 0.62367 0.0
C2628 C 0.80752 0.37533 0.61617 0.0
C2629 C 0.7926 0.3626 0.60347 0.0
C2630 C 0.77821 0.36959 0.597 0.0
C2631 C 0.76496 0.35803 0.58378 0.0
C2632 C 0.76585 0.33939 0.57708 0.0
C2633 C 0.77994 0.33222 0.58368 0.0
C2634 C 0.79325 0.34374 0.59687 0.0
C2635 C 0.82408 0.37718 0.69559 0.0
C2636 C 0.8279 0.35914 0.69506 0.0
C2637 C 0.82491 0.38587 0.67983 0.0
C2638 C 0.82957 0.37651 0.66361 0.0
C2639 C 0.83486 0.3594 0.6636 0.0
C2640 C 0.83407 0.35076 0.67925 0.0
C2641 C 0.82591 0.38249 0.6458 0.0
C2642 C 0.812 0.37069 0.63342 0.0
C2643 C 0.83561 0.39937 0.64104 0.0
C2644 C 0.85085 0.41183 0.65352 0.0
C2645 C 0.86457 0.40428 0.66079 0.0
C2646 C 0.87902 0.41615 0.67222 0.0
C2647 C 0.88008 0.43568 0.67625 0.0
C2648 C 0.86666 0.44336 0.66888 0.0
C2649 C 0.85207 0.43152 0.65764 0.0
H2650 H 0.89129 0.44487 0.68507 0.0
H2651 H 0.75563 0.3305 0.56677 0.0
H2652 H 0.47538 0.04482 0.3412 0.0
H2653 H 0.4881 0.03598 0.36935 0.0
H2654 H 0.43617 0.0136 0.38301 0.0
H2655 H 0.42334 0.02281 0.3552 0.0
H2656 H 0.45527 0.03888 0.41003 0.0
H2657 H 0.46249 0.98337 0.37316 0.0
H2658 H 0.47031 0.96309 0.34679 0.0
H2659 H 0.52443 0.99234 0.36017 0.0
H2660 H 0.51693 0.013 0.38645 0.0
H2661 H 0.50086 0.01604 0.49041 0.0
H2662 H 0.48165 0.0124 0.46158 0.0
H2663 H 0.52384 0.04554 0.43791 0.0
H2664 H 0.54307 0.05005 0.46722 0.0
H2665 H 0.5052 0.00757 0.41681 0.0
H2666 H 0.49637 0.0666 0.44921 0.0
H2667 H 0.48755 0.08934 0.47265 0.0
H2668 H 0.43558 0.05387 0.46596 0.0
H2669 H 0.4442 0.03063 0.44275 0.0
C2670 C 0.46672 0.03808 0.35026 0.0
C2671 C 0.44846 0.03483 0.34634 0.0
C2672 C 0.47396 0.03268 0.36606 0.0
C2673 C 0.46298 0.02383 0.37791 0.0
C2674 C 0.44475 0.02024 0.37382 0.0
C2675 C 0.4375 0.02576 0.35813 0.0
C2676 C 0.47061 0.02129 0.396 0.0
C2677 C 0.46581 0.03148 0.41162 0.0
C2678 C 0.48453 0.01196 0.39777 0.0
C2679 C 0.48912 0.99979 0.38177 0.0
C2680 C 0.47604 0.9856 0.37039 0.0
C2681 C 0.48042 0.97401 0.35547 0.0
C2682 C 0.49785 0.97643 0.3518 0.0
C2683 C 0.51094 0.99047 0.36303 0.0
C2684 C 0.50663 1.0021 0.37797 0.0
C2685 C 0.50594 0.02295 0.47924 0.0
C2686 C 0.52329 0.03362 0.48099 0.0
C2687 C 0.49501 0.0207 0.46281 0.0
C2688 C 0.50149 0.02874 0.44792 0.0
C2689 C 0.51881 0.0393 0.44949 0.0
C2690 C 0.52968 0.0419 0.46611 0.0
C2691 C 0.49023 0.02579 0.43046 0.0
C2692 C 0.49429 0.01442 0.41515 0.0
C2693 C 0.47557 0.03399 0.42892 0.0
C2694 C 0.47102 0.04673 0.44445 0.0
C2695 C 0.4832 0.06336 0.45309 0.0
C2696 C 0.4782 0.07642 0.46623 0.0
C2697 C 0.461 0.07311 0.47066 0.0
C2698 C 0.44889 0.05643 0.46244 0.0
C2699 C 0.45384 0.04328 0.44935 0.0
H2700 H 0.45702 0.08361 0.48027 0.0
H2701 H 0.50123 0.96742 0.34026 0.0
H2702 H 0.81238 0.73291 0.06073 0.0
H2703 H 0.81562 0.74527 0.09435 0.0
H2704 H 0.76441 0.71125 0.09804 0.0
H2705 H 0.76134 0.69856 0.06491 0.0
H2706 H 0.77043 0.75124 0.11365 0.0
H2707 H 0.79728 0.69755 0.11307 0.0
H2708 H 0.8188 0.67796 0.10711 0.0
H2709 H 0.8599 0.72265 0.13822 0.0
H2710 H 0.83881 0.74293 0.14363 0.0
H2711 H 0.76312 0.75989 0.21051 0.0
H2712 H 0.76311 0.74782 0.17743 0.0
H2713 H 0.81866 0.7722 0.18185 0.0
H2714 H 0.81881 0.78387 0.21469 0.0
H2715 H 0.81213 0.73807 0.16222 0.0
H2716 H 0.78864 0.79281 0.16059 0.0
H2717 H 0.76877 0.81373 0.16938 0.0
H2718 H 0.72428 0.76957 0.1441 0.0
H2719 H 0.74391 0.74828 0.1354 0.0
C2720 C 0.8018 0.72817 0.06874 0.0
C2721 C 0.78652 0.71482 0.06012 0.0
C2722 C 0.80373 0.73511 0.08796 0.0
C2723 C 0.79027 0.72913 0.09876 0.0
C2724 C 0.77499 0.71605 0.09005 0.0
C2725 C 0.77323 0.70883 0.07107 0.0
C2726 C 0.79137 0.7371 0.11888 0.0
C2727 C 0.77951 0.74823 0.12424 0.0
C2728 C 0.80357 0.73371 0.13276 0.0
C2729 C 0.81646 0.72196 0.1284 0.0
C2730 C 0.81097 0.70345 0.1182 0.0
C2731 C 0.82311 0.69219 0.11497 0.0
C2732 C 0.84075 0.69914 0.12212 0.0
C2733 C 0.84629 0.71739 0.13247 0.0
C2734 C 0.83425 0.7288 0.13556 0.0
C2735 C 0.77524 0.7629 0.20434 0.0
C2736 C 0.79091 0.77293 0.21525 0.0
C2737 C 0.77528 0.75592 0.18544 0.0
C2738 C 0.79091 0.75912 0.17704 0.0
C2739 C 0.80646 0.76937 0.18793 0.0
C2740 C 0.80647 0.77617 0.20674 0.0
C2741 C 0.79112 0.75206 0.15687 0.0
C2742 C 0.8032 0.74118 0.15155 0.0
C2743 C 0.77949 0.75603 0.14292 0.0
C2744 C 0.7677 0.76895 0.14745 0.0
C2745 C 0.77461 0.78756 0.15694 0.0
C2746 C 0.7634 0.79947 0.16192 0.0
C2747 C 0.74527 0.79297 0.15732 0.0
C2748 C 0.73832 0.77457 0.14765 0.0
C2749 C 0.74948 0.76259 0.14267 0.0
H2750 H 0.7366 0.8022 0.16123 0.0
H2751 H 0.85009 0.69032 0.11975 0.0
H2752 H 0.15631 0.01233 0.70773 0.0
H2753 H 0.14237 0.01338 0.67686 0.0
H2754 H 0.09348 0.01432 0.69902 0.0
H2755 H 0.10737 0.0123 0.72999 0.0
H2756 H 0.08432 0.99603 0.66513 0.0
H2757 H 0.12611 0.05632 0.68623 0.0
H2758 H 0.15557 0.0763 0.69806 0.0
H2759 H 0.17624 0.05251 0.65007 0.0
H2760 H 0.14699 0.03225 0.63809 0.0
H2761 H 0.04874 0.03649 0.58819 0.0
H2762 H 0.06165 0.03248 0.61891 0.0
H2763 H 0.10449 0.01494 0.59398 0.0
H2764 H 0.09112 0.01799 0.56318 0.0
H2765 H 0.1162 0.04157 0.62866 0.0
H2766 H 0.07616 0.98272 0.60651 0.0
H2767 H 0.04703 0.96421 0.5918 0.0
H2768 H 0.02371 0.98414 0.63938 0.0
H2769 H 0.05264 1.00331 0.65421 0.0
C2770 C 0.14255 0.01267 0.7062 0.0
C2771 C 0.13327 0.01232 0.72195 0.0
C2772 C 0.13445 0.01352 0.68824 0.0
C2773 C 0.11664 0.01463 0.6849 0.0
C2774 C 0.10718 0.0137 0.70056 0.0
C2775 C 0.11525 0.01257 0.71856 0.0
C2776 C 0.10826 0.01713 0.6655 0.0
C2777 C 0.09137 1.00624 0.65747 0.0
C2778 C 0.11703 0.03 0.65443 0.0
C2779 C 0.13442 0.04267 0.66136 0.0
C2780 C 0.13696 0.05535 0.67823 0.0
C2781 C 0.15362 0.0667 0.68496 0.0
C2782 C 0.16777 0.06559 0.67485 0.0
C2783 C 0.16527 0.05331 0.6579 0.0
C2784 C 0.14867 0.04191 0.65113 0.0
C2785 C 0.06091 0.03177 0.58917 0.0
C2786 C 0.06871 0.02758 0.57281 0.0
C2787 C 0.06838 0.02943 0.60693 0.0
C2788 C 0.08433 0.0234 0.60934 0.0
C2789 C 0.09231 0.01964 0.59302 0.0
C2790 C 0.08453 0.02134 0.57519 0.0
C2791 C 0.09243 0.02067 0.62856 0.0
C2792 C 0.1092 0.03145 0.63646 0.0
C2793 C 0.08365 0.0076 0.63932 0.0
C2794 C 0.06655 0.9947 0.63138 0.0
C2795 C 0.06483 0.98319 0.61386 0.0
C2796 C 0.04836 0.97262 0.60547 0.0
C2797 C 0.03355 0.97317 0.61458 0.0
C2798 C 0.03522 0.98388 0.6323 0.0
C2799 C 0.05165 0.99462 0.64071 0.0
H2800 H 0.02076 0.96541 0.60785 0.0
H2801 H 0.18069 0.0742 0.68013 0.0
H2802 H 0.80411 0.41823 0.44495 0.0
H2803 H 0.8138 0.40519 0.41618 0.0
H2804 H 0.8057 0.34996 0.43306 0.0
H2805 H 0.79613 0.36296 0.46213 0.0
H2806 H 0.8361 0.36009 0.41232 0.0
H2807 H 0.77327 0.35811 0.41084 0.0
H2808 H 0.74928 0.37429 0.41696 0.0
H2809 H 0.76651 0.41243 0.3792 0.0
H2810 H 0.7909 0.39673 0.37323 0.0
H2811 H 0.80476 0.28945 0.3326 0.0
H2812 H 0.81047 0.31062 0.36274 0.0
H2813 H 0.81456 0.35938 0.33479 0.0
H2814 H 0.80904 0.33853 0.30486 0.0
H2815 H 0.7902 0.35724 0.36018 0.0
H2816 H 0.84973 0.35573 0.35698 0.0
H2817 H 0.87419 0.34028 0.35106 0.0
H2818 H 0.86406 0.30986 0.39654 0.0
H2819 H 0.83929 0.32489 0.40252 0.0
C2820 C 0.80442 0.40331 0.44257 0.0
C2821 C 0.79882 0.39137 0.4554 0.0
C2822 C 0.81026 0.39602 0.42633 0.0
C2823 C 0.81038 0.3767 0.42267 0.0
C2824 C 0.80574 0.36497 0.43586 0.0
C2825 C 0.79993 0.37227 0.45219 0.0
C2826 C 0.81208 0.36805 0.40386 0.0
C2827 C 0.82613 0.3594 0.40087 0.0
C2828 C 0.79921 0.36769 0.38901 0.0
C2829 C 0.78398 0.37638 0.39173 0.0
C2830 C 0.77197 0.36999 0.4039 0.0
C2831 C 0.75833 0.37909 0.40737 0.0
C2832 C 0.7564 0.39442 0.39851 0.0
C2833 C 0.76805 0.40058 0.38608 0.0
C2834 C 0.78179 0.3916 0.38265 0.0
C2835 C 0.80724 0.30469 0.33297 0.0
C2836 C 0.8064 0.31239 0.31655 0.0
C2837 C 0.81052 0.31672 0.35008 0.0
C2838 C 0.81293 0.33645 0.35078 0.0
C2839 C 0.81274 0.34417 0.33439 0.0
C2840 C 0.80962 0.33222 0.31736 0.0
C2841 C 0.81405 0.34885 0.36861 0.0
C2842 C 0.80044 0.35821 0.37146 0.0
C2843 C 0.82737 0.34993 0.3832 0.0
C2844 C 0.8426 0.34135 0.38013 0.0
C2845 C 0.85267 0.34568 0.36567 0.0
C2846 C 0.86658 0.337 0.3623 0.0
C2847 C 0.87067 0.32408 0.3734 0.0
C2848 C 0.86088 0.31988 0.38795 0.0
C2849 C 0.84691 0.32849 0.39136 0.0
H2850 H 0.88143 0.31733 0.37075 0.0
H2851 H 0.74585 0.40148 0.40125 0.0
H2852 H 0.41881 1.00449 0.23745 0.0
H2853 H 0.42451 0.99579 0.20556 0.0
H2854 H 0.47249 0.03937 0.21565 0.0
H2855 H 0.4669 0.04812 0.24789 0.0
H2856 H 0.44596 0.04203 0.18683 0.0
H2857 H 0.47547 0.99624 0.20938 0.0
H2858 H 0.47681 0.96896 0.22539 0.0
H2859 H 0.4353 0.93348 0.1857 0.0
H2860 H 0.43342 0.96069 0.16969 0.0
H2861 H 0.49698 0.03898 0.1183 0.0
H2862 H 0.48354 0.03592 0.14663 0.0
H2863 H 0.44364 0.98804 0.11752 0.0
H2864 H 0.45788 0.99059 0.08884 0.0
H2865 H 0.45794 0.98308 0.15282 0.0
H2866 H 0.43172 0.02846 0.12756 0.0
H2867 H 0.43166 0.05599 0.11154 0.0
H2868 H 0.46718 0.09232 0.15646 0.0
H2869 H 0.46772 0.06498 0.17259 0.0
C2870 C 0.43071 0.01204 0.2329 0.0
C2871 C 0.44233 0.02722 0.24473 0.0
C2872 C 0.43398 1.00691 0.21484 0.0
C2873 C 0.44883 0.01699 0.20851 0.0
C2874 C 0.46098 0.03149 0.22058 0.0
C2875 C 0.45782 0.03648 0.23882 0.0
C2876 C 0.45042 0.0142 0.18872 0.0
C2877 C 0.44865 0.0292 0.17935 0.0
C2878 C 0.45281 0.99696 0.17904 0.0
C2879 C 0.45415 0.98056 0.18848 0.0
C2880 C 0.46649 0.98267 0.20418 0.0
C2881 C 0.46736 0.96722 0.21324 0.0
C2882 C 0.4561 0.94951 0.20661 0.0
C2883 C 0.44397 0.94722 0.19085 0.0
C2884 C 0.443 0.96265 0.18179 0.0
C2885 C 0.48517 0.02801 0.1179 0.0
C2886 C 0.47803 0.01534 0.10156 0.0
C2887 C 0.47758 0.02621 0.13401 0.0
C2888 C 0.4624 0.01208 0.13388 0.0
C2889 C 0.45525 0.99914 0.11762 0.0
C2890 C 0.46319 1.0007 0.10139 0.0
C2891 C 0.45449 0.01137 0.15116 0.0
C2892 C 0.45477 0.9957 0.16014 0.0
C2893 C 0.45057 0.02798 0.16057 0.0
C2894 C 0.44968 0.04466 0.15131 0.0
C2895 C 0.4395 0.04233 0.13403 0.0
C2896 C 0.43943 0.05789 0.12491 0.0
C2897 C 0.44939 0.0759 0.13299 0.0
C2898 C 0.45943 0.07838 0.15024 0.0
C2899 C 0.45958 0.06286 0.1594 0.0
H2900 H 0.44935 0.08793 0.12588 0.0
H2901 H 0.4568 0.93755 0.21364 0.0
H2902 H 0.7873 0.68584 0.938 0.0
H2903 H 0.78755 0.6975 0.90841 0.0
H2904 H 0.78138 0.75179 0.93544 0.0
H2905 H 0.78057 0.73984 0.96523 0.0
H2906 H 0.76149 0.74332 0.90413 0.0
H2907 H 0.8218 0.74349 0.91928 0.0
H2908 H 0.84728 0.73057 0.92838 0.0
H2909 H 0.83391 0.68783 0.87949 0.0
H2910 H 0.80822 0.70037 0.87021 0.0
H2911 H 0.78668 0.79541 0.83234 0.0
H2912 H 0.78543 0.78173 0.86078 0.0
H2913 H 0.7818 0.72616 0.82929 0.0
H2914 H 0.78289 0.73999 0.80031 0.0
H2915 H 0.8063 0.7345 0.86195 0.0
H2916 H 0.74615 0.73646 0.8467 0.0
H2917 H 0.72157 0.75105 0.83827 0.0
H2918 H 0.73618 0.79211 0.88834 0.0
H2919 H 0.76101 0.77794 0.89693 0.0
C2920 C 0.78606 0.70031 0.93776 0.0
C2921 C 0.78391 0.71181 0.95417 0.0
C2922 C 0.78634 0.70707 0.92071 0.0
C2923 C 0.78479 0.72574 0.91942 0.0
C2924 C 0.78265 0.73734 0.93583 0.0
C2925 C 0.78223 0.7305 0.95296 0.0
C2926 C 0.78488 0.73282 0.90093 0.0
C2927 C 0.77148 0.74158 0.89511 0.0
C2928 C 0.79759 0.73032 0.88863 0.0
C2929 C 0.81299 0.72274 0.89417 0.0
C2930 C 0.82422 0.73125 0.91055 0.0
C2931 C 0.83871 0.72401 0.91572 0.0
C2932 C 0.84218 0.70835 0.90455 0.0
C2933 C 0.83119 0.69994 0.88814 0.0
C2934 C 0.81667 0.70711 0.88291 0.0
C2935 C 0.78546 0.78021 0.83132 0.0
C2936 C 0.78478 0.76881 0.81393 0.0
C2937 C 0.78471 0.77238 0.84771 0.0
C2938 C 0.78337 0.75284 0.84737 0.0
C2939 C 0.78276 0.74128 0.83001 0.0
C2940 C 0.78326 0.74915 0.81341 0.0
C2941 C 0.78292 0.74489 0.86528 0.0
C2942 C 0.79629 0.73609 0.871 0.0
C2943 C 0.77033 0.74758 0.8776 0.0
C2944 C 0.75552 0.75623 0.87238 0.0
C2945 C 0.74422 0.74871 0.85583 0.0
C2946 C 0.73022 0.75688 0.85104 0.0
C2947 C 0.72733 0.77251 0.86275 0.0
C2948 C 0.73844 0.78001 0.87927 0.0
C2949 C 0.75246 0.77191 0.88411 0.0
H2950 H 0.71646 0.77878 0.85903 0.0
H2951 H 0.85341 0.70277 0.90858 0.0
H2952 H 0.81037 0.09815 0.01622 0.0
H2953 H 0.83716 0.08755 0.00973 0.0
H2954 H 0.86808 0.14432 0.03012 0.0
H2955 H 0.84152 0.15503 0.03637 0.0
H2956 H 0.87743 0.12869 0.99735 0.0
H2957 H 0.86755 0.1125 0.05742 0.0
H2958 H 0.84827 0.09845 0.07908 0.0
H2959 H 0.84011 0.04344 0.04535 0.0
H2960 H 0.85918 0.05725 0.02333 0.0
H2961 H 0.96078 0.10065 0.01283 0.0
H2962 H 0.93533 0.11517 0.01521 0.0
H2963 H 0.90068 0.06081 0.99313 0.0
H2964 H 0.92565 0.0462 0.99121 0.0
H2965 H 0.89388 0.077 0.02734 0.0
H2966 H 0.9053 0.09421 0.96755 0.0
H2967 H 0.92108 0.10977 0.94418 0.0
H2968 H 0.92542 0.1645 0.97718 0.0
H2969 H 0.90995 0.14924 1.00092 0.0
C2970 C 0.82292 0.10824 0.01949 0.0
C2971 C 0.824 0.1273 0.02688 0.0
C2972 C 0.83811 0.10226 0.01568 0.0
C2973 C 0.85444 0.11525 0.01948 0.0
C2974 C 0.85552 0.13422 0.027 0.0
C2975 C 0.84039 0.14021 0.03071 0.0
C2976 C 0.87058 0.10897 0.01622 0.0
C2977 C 0.88126 0.11758 1.00405 0.0
C2978 C 0.87525 0.09445 0.02495 0.0
C2979 C 0.86476 0.08588 0.03875 0.0
C2980 C 0.86167 0.09739 0.05466 0.0
C2981 C 0.85075 0.08949 0.06697 0.0
C2982 C 0.84297 0.07006 0.06359 0.0
C2983 C 0.84618 0.05848 0.04795 0.0
C2984 C 0.85707 0.06632 0.03558 0.0
C2985 C 0.94772 0.09189 0.00835 0.0
C2986 C 0.94518 0.07229 1.00185 0.0
C2987 C 0.93328 0.10021 0.00954 0.0
C2988 C 0.91626 0.08897 1.00429 0.0
C2989 C 0.91379 0.06965 0.99716 0.0
C2990 C 0.92809 0.06137 0.99597 0.0
C2991 C 0.90083 0.09653 0.00817 0.0
C2992 C 0.89025 0.08823 0.02067 0.0
C2993 C 0.89643 0.11151 0.99986 0.0
C2994 C 0.90675 0.12054 0.98618 0.0
C2995 C 0.90993 0.10953 0.97001 0.0
C2996 C 0.91874 0.11831 0.95664 0.0
C2997 C 0.92432 0.1381 0.95923 0.0
C2998 C 0.92116 0.14916 0.97523 0.0
C2999 C 0.9124 0.14046 0.98865 0.0
H3000 H 0.93104 0.14488 0.9488 0.0
H3001 H 0.83445 0.06397 0.0731 0.0
H3002 H 0.36283 0.39928 0.01906 0.0
H3003 H 0.39224 0.41528 0.01394 0.0
H3004 H 0.38581 0.46724 0.04599 0.0
H3005 H 0.35586 0.45149 0.04993 0.0
H3006 H 0.40172 0.47717 0.01999 0.0
H3007 H 0.41325 0.43164 0.05999 0.0
H3008 H 0.41137 0.39949 0.06779 0.0
H3009 H 0.43339 0.38301 0.01801 0.0
H3010 H 0.43519 0.41497 0.00983 0.0
H3011 H 0.4904 0.52705 0.0458 0.0
H3012 H 0.46056 0.50807 0.04466 0.0
H3013 H 0.47101 0.46611 1.00209 0.0
H3014 H 0.50098 0.48551 1.00282 0.0
H3015 H 0.45353 0.4493 0.02938 0.0
H3016 H 0.44443 0.49259 0.98981 0.0
H3017 H 0.44599 0.52319 0.97871 0.0
H3018 H 0.41907 0.54225 0.02379 0.0
H3019 H 0.4176 0.51185 0.03534 0.0
C3020 C 0.36771 0.41411 0.02513 0.0
C3021 C 0.3569 0.42399 0.03509 0.0
C3022 C 0.38475 0.42331 0.02232 0.0
C3023 C 0.39189 0.44259 0.02995 0.0
C3024 C 0.38098 0.45242 0.0399 0.0
C3025 C 0.36376 0.44335 0.04228 0.0
C3026 C 0.41035 0.45275 0.0273 0.0
C3027 C 0.41299 0.47108 0.02246 0.0
C3028 C 0.42535 0.44474 0.02928 0.0
C3029 C 0.42419 0.42559 0.03423 0.0
C3030 C 0.41759 0.4211 0.05068 0.0
C3031 C 0.41655 0.40292 0.05516 0.0
C3032 C 0.42222 0.3892 0.04338 0.0
C3033 C 0.42897 0.39363 0.02711 0.0
C3034 C 0.43001 0.41176 0.02254 0.0
C3035 C 0.48642 0.5138 0.03614 0.0
C3036 C 0.49825 0.50787 0.02444 0.0
C3037 C 0.46922 0.50294 0.03544 0.0
C3038 C 0.46326 0.48555 0.02325 0.0
C3039 C 0.47512 0.47942 0.01165 0.0
C3040 C 0.4923 0.49055 0.01206 0.0
C3041 C 0.4448 0.47392 0.02302 0.0
C3042 C 0.44219 0.45535 0.02712 0.0
C3043 C 0.42979 0.48154 0.02008 0.0
C3044 C 0.4311 0.50005 0.01357 0.0
C3045 C 0.43905 0.50341 0.9975 0.0
C3046 C 0.43986 0.52069 0.99109 0.0
C3047 C 0.43268 0.53468 1.00057 0.0
C3048 C 0.42467 0.53142 0.01649 0.0
C3049 C 0.42383 0.51416 0.02297 0.0
H3050 H 0.43328 0.54804 0.99555 0.0
H3051 H 0.42141 0.37514 0.04689 0.0
H3052 H 0.37275 0.59858 0.75774 0.0
H3053 H 0.35928 0.62603 0.75955 0.0
H3054 H 0.40967 0.66342 0.77909 0.0
H3055 H 0.42294 0.63563 0.77836 0.0
H3056 H 0.3906 0.68305 0.79322 0.0
H3057 H 0.38065 0.65557 0.72956 0.0
H3058 H 0.37132 0.62998 0.70246 0.0
H3059 H 0.31851 0.61989 0.71644 0.0
H3060 H 0.32759 0.64534 0.74375 0.0
H3061 H 0.35599 0.76656 0.77572 0.0
H3062 H 0.37137 0.7404 0.7759 0.0
H3063 H 0.32185 0.69976 0.76359 0.0
H3064 H 0.30661 0.72575 0.76322 0.0
H3065 H 0.34187 0.68305 0.74561 0.0
H3066 H 0.35446 0.71412 0.81002 0.0
H3067 H 0.3662 0.74149 0.83506 0.0
H3068 H 0.41719 0.74758 0.81649 0.0
H3069 H 0.40571 0.72033 0.79126 0.0
C3070 C 0.38117 0.61257 0.76241 0.0
C3071 C 0.39933 0.61408 0.7677 0.0
C3072 C 0.37331 0.6288 0.76324 0.0
C3073 C 0.38303 0.64802 0.76886 0.0
C3074 C 0.4012 0.64946 0.77447 0.0
C3075 C 0.40901 0.63316 0.77397 0.0
C3076 C 0.37443 0.66605 0.76886 0.0
C3077 C 0.38007 0.68279 0.78254 0.0
C3078 C 0.36046 0.66714 0.7553 0.0
C3079 C 0.35482 0.6522 0.73875 0.0
C3080 C 0.36705 0.64786 0.72685 0.0
C3081 C 0.36182 0.63338 0.71148 0.0
C3082 C 0.34434 0.62328 0.70776 0.0
C3083 C 0.33204 0.62771 0.71936 0.0
C3084 C 0.33722 0.64218 0.73477 0.0
C3085 C 0.34821 0.75211 0.7731 0.0
C3086 C 0.3296 0.74902 0.76954 0.0
C3087 C 0.35719 0.73674 0.77336 0.0
C3088 C 0.34827 0.71711 0.77006 0.0
C3089 C 0.32973 0.71417 0.76629 0.0
C3090 C 0.32078 0.72946 0.76615 0.0
C3091 C 0.35775 0.69982 0.77011 0.0
C3092 C 0.35231 0.68323 0.75636 0.0
C3093 C 0.3722 0.69917 0.78331 0.0
C3094 C 0.37919 0.71528 0.79868 0.0
C3095 C 0.36816 0.72133 0.81126 0.0
C3096 C 0.37477 0.73682 0.82548 0.0
C3097 C 0.39242 0.74629 0.82734 0.0
C3098 C 0.40352 0.74023 0.81503 0.0
C3099 C 0.39697 0.72475 0.80079 0.0
H3100 H 0.3975 0.75829 0.83834 0.0
H3101 H 0.34031 0.61204 0.69587 0.0
H3102 H 0.22838 0.59818 0.51548 0.0
H3103 H 0.19663 0.5881 0.50645 0.0
H3104 H 0.19307 0.64681 0.51113 0.0
H3105 H 0.22457 0.657 0.52027 0.0
H3106 H 0.17275 0.62622 0.53308 0.0
H3107 H 0.1836 0.62098 0.46928 0.0
H3108 H 0.19534 0.61078 0.44031 0.0
H3109 H 0.17426 0.55228 0.44407 0.0
H3110 H 0.16258 0.56213 0.47316 0.0
H3111 H 0.08083 0.60146 0.50829 0.0
H3112 H 0.11219 0.61552 0.50954 0.0
H3113 H 0.12237 0.55917 0.49912 0.0
H3114 H 0.09084 0.54522 0.49689 0.0
H3115 H 0.13886 0.58171 0.47817 0.0
H3116 H 0.13085 0.58597 0.54332 0.0
H3117 H 0.11725 0.59523 0.57131 0.0
H3118 H 0.13239 0.65395 0.56522 0.0
H3119 H 0.14598 0.64501 0.53712 0.0
C3120 C 0.22079 0.60887 0.51448 0.0
C3121 C 0.22873 0.6283 0.51891 0.0
C3122 C 0.20282 0.60314 0.50907 0.0
C3123 C 0.1928 0.61681 0.508 0.0
C3124 C 0.20079 0.63617 0.5118 0.0
C3125 C 0.21868 0.64191 0.51722 0.0
C3126 C 0.17375 0.61097 0.50582 0.0
C3127 C 0.16524 0.61675 0.52094 0.0
C3128 C 0.16428 0.59826 0.4902 0.0
C3129 C 0.17243 0.59231 0.47351 0.0
C3130 C 0.18174 0.60595 0.4641 0.0
C3131 C 0.18829 0.60022 0.4476 0.0
C3132 C 0.18559 0.58089 0.44038 0.0
C3133 C 0.17638 0.56724 0.44969 0.0
C3134 C 0.16981 0.57289 0.46617 0.0
C3135 C 0.08989 0.59226 0.50601 0.0
C3136 C 0.08394 0.57251 0.50219 0.0
C3137 C 0.10764 0.60019 0.50695 0.0
C3138 C 0.11939 0.58828 0.50467 0.0
C3139 C 0.11332 0.56846 0.50085 0.0
C3140 C 0.09551 0.56055 0.49946 0.0
C3141 C 0.13804 0.59646 0.5056 0.0
C3142 C 0.1464 0.59124 0.49026 0.0
C3143 C 0.14742 0.60942 0.52114 0.0
C3144 C 0.13927 0.6148 0.53803 0.0
C3145 C 0.13116 0.60084 0.54789 0.0
C3146 C 0.12349 0.60603 0.56379 0.0
C3147 C 0.12391 0.62516 0.57001 0.0
C3148 C 0.13206 0.63914 0.56038 0.0
C3149 C 0.13978 0.63402 0.54449 0.0
H3150 H 0.11794 0.62915 0.58231 0.0
H3151 H 0.19059 0.5765 0.42755 0.0
H3152 H 0.66659 0.98149 0.74614 0.0
H3153 H 0.67925 0.95617 0.75614 0.0
H3154 H 0.7279 0.99692 0.77695 0.0
H3155 H 0.71561 0.02212 0.76648 0.0
H3156 H 0.73242 0.96634 0.75573 0.0
H3157 H 0.70077 0.97991 0.8072 0.0
H3158 H 0.6745 0.98527 0.82135 0.0
H3159 H 0.64681 0.92832 0.79797 0.0
H3160 H 0.67289 0.92269 0.7835 0.0
H3161 H 0.77408 0.90722 0.79922 0.0
H3162 H 0.75826 0.93257 0.79914 0.0
H3163 H 0.71255 0.89257 0.76937 0.0
H3164 H 0.72804 0.86678 0.77001 0.0
H3165 H 0.70603 0.92309 0.7975 0.0
H3166 H 0.73618 0.91137 0.74342 0.0
H3167 H 0.76064 0.90773 0.72527 0.0
H3168 H 0.79004 0.96304 0.75179 0.0
H3169 H 0.76584 0.96686 0.77029 0.0
C3170 C 0.68007 0.98491 0.75259 0.0
C3171 C 0.69025 1.00355 0.75547 0.0
C3172 C 0.68712 0.97059 0.75855 0.0
C3173 C 0.70424 0.97499 0.76762 0.0
C3174 C 0.71456 0.9935 0.7701 0.0
C3175 C 0.70762 0.00774 0.76392 0.0
C3176 C 0.712 0.95995 0.77319 0.0
C3177 C 0.72692 0.95716 0.76522 0.0
C3178 C 0.70428 0.94779 0.78506 0.0
C3179 C 0.68876 0.9509 0.79422 0.0
C3180 C 0.68907 0.96854 0.80504 0.0
C3181 C 0.67421 0.97163 0.81311 0.0
C3182 C 0.65899 0.95715 0.81054 0.0
C3183 C 0.65862 0.93952 0.79996 0.0
C3184 C 0.67345 0.93635 0.79186 0.0
C3185 C 0.76041 0.90363 0.79342 0.0
C3186 C 0.75225 0.88512 0.78455 0.0
C3187 C 0.75147 0.9181 0.79331 0.0
C3188 C 0.73437 0.91418 0.78428 0.0
C3189 C 0.72569 0.89555 0.77664 0.0
C3190 C 0.73459 0.881 0.77682 0.0
C3191 C 0.72667 0.92983 0.78028 0.0
C3192 C 0.71169 0.93259 0.78837 0.0
C3193 C 0.73432 0.94213 0.7685 0.0
C3194 C 0.74939 0.9392 0.75851 0.0
C3195 C 0.74802 0.92256 0.74567 0.0
C3196 C 0.76178 0.92053 0.73523 0.0
C3197 C 0.77692 0.9351 0.73744 0.0
C3198 C 0.77835 0.95172 0.75015 0.0
C3199 C 0.76464 0.95381 0.76064 0.0
H3200 H 0.78751 0.93356 0.72925 0.0
H3201 H 0.64749 0.95958 0.81677 0.0
H3202 H 0.7399 0.88855 0.53649 0.0
H3203 H 0.71281 0.89968 0.53178 0.0
H3204 H 0.74276 0.95277 0.52034 0.0
H3205 H 0.7699 0.94205 0.52624 0.0
H3206 H 0.72156 0.96133 0.54039 0.0
H3207 H 0.71248 0.91273 0.48645 0.0
H3208 H 0.7088 0.88066 0.46831 0.0
H3209 H 0.66485 0.85982 0.49663 0.0
H3210 H 0.66843 0.89167 0.51514 0.0
H3211 H 0.6522 0.99977 0.50921 0.0
H3212 H 0.67616 0.98347 0.50822 0.0
H3213 H 0.64537 0.93705 0.52989 0.0
H3214 H 0.62072 0.95279 0.52992 0.0
H3215 H 0.66562 0.9239 0.5045 0.0
H3216 H 0.67576 0.97265 0.55854 0.0
H3217 H 0.6786 1.00528 0.57499 0.0
H3218 H 0.7208 0.0258 0.54423 0.0
H3219 H 0.71801 0.99333 0.52738 0.0
C3220 C 0.7407 0.90264 0.53303 0.0
C3221 C 0.75715 0.9145 0.53197 0.0
C3222 C 0.72509 0.90893 0.53005 0.0
C3223 C 0.7254 0.92707 0.52536 0.0
C3224 C 0.7419 0.93875 0.524 0.0
C3225 C 0.75752 0.93264 0.52742 0.0
C3226 C 0.70894 0.93457 0.52322 0.0
C3227 C 0.70951 0.95311 0.53217 0.0
C3228 C 0.69272 0.92386 0.51313 0.0
C3229 C 0.6909 0.90456 0.50237 0.0
C3230 C 0.70217 0.90126 0.48897 0.0
C3231 C 0.70007 0.88313 0.47859 0.0
C3232 C 0.68664 0.8682 0.48136 0.0
C3233 C 0.67528 0.87138 0.49453 0.0
C3234 C 0.67735 0.88947 0.50497 0.0
C3235 C 0.65018 0.98589 0.51336 0.0
C3236 C 0.63431 0.97783 0.5198 0.0
C3237 C 0.66411 0.97662 0.51298 0.0
C3238 C 0.66286 0.95914 0.51936 0.0
C3239 C 0.64682 0.95058 0.52503 0.0
C3240 C 0.63275 0.95979 0.52526 0.0
C3241 C 0.67865 0.95063 0.52126 0.0
C3242 C 0.67784 0.93197 0.51249 0.0
C3243 C 0.69477 0.96118 0.53135 0.0
C3244 C 0.69658 0.98062 0.54162 0.0
C3245 C 0.68557 0.98415 0.55522 0.0
C3246 C 0.68718 1.00261 0.56461 0.0
C3247 C 0.69985 0.01761 0.56064 0.0
C3248 C 0.71098 0.01418 0.54728 0.0
C3249 C 0.70939 0.99575 0.53781 0.0
H3250 H 0.70107 0.03189 0.56792 0.0
H3251 H 0.68501 0.85419 0.47328 0.0
H3252 H 0.41958 0.49254 0.7658 0.0
H3253 H 0.40519 0.45999 0.76865 0.0
H3254 H 0.35547 0.47595 0.76852 0.0
H3255 H 0.37005 0.50877 0.76612 0.0
H3256 H 0.3543 0.45198 0.79137 0.0
H3257 H 0.37281 0.44525 0.72925 0.0
H3258 H 0.39493 0.44815 0.70723 0.0
H3259 H 0.42301 0.41427 0.73621 0.0
H3260 H 0.40116 0.41138 0.75853 0.0
H3261 H 0.29615 0.36112 0.77452 0.0
H3262 H 0.31422 0.39225 0.77358 0.0
H3263 H 0.35999 0.36867 0.77253 0.0
H3264 H 0.34145 0.33672 0.7732 0.0
H3265 H 0.36566 0.39576 0.75203 0.0
H3266 H 0.35069 0.40057 0.81256 0.0
H3267 H 0.33252 0.39772 0.83827 0.0
H3268 H 0.30279 0.43514 0.8176 0.0
H3269 H 0.32065 0.43802 0.79159 0.0
C3270 C 0.40553 0.48926 0.76623 0.0
C3271 C 0.39625 0.50393 0.76544 0.0
C3272 C 0.39709 0.4702 0.76775 0.0
C3273 C 0.37872 0.4644 0.76839 0.0
C3274 C 0.3695 0.4792 0.76794 0.0
C3275 C 0.37797 0.49831 0.76646 0.0
C3276 C 0.36923 0.44344 0.76977 0.0
C3277 C 0.35669 0.43988 0.78239 0.0
C3278 C 0.37252 0.4267 0.75915 0.0
C3279 C 0.38544 0.42823 0.7456 0.0
C3280 C 0.38374 0.43849 0.73094 0.0
C3281 C 0.39623 0.44013 0.71842 0.0
C3282 C 0.41039 0.43144 0.72034 0.0
C3283 C 0.41205 0.42102 0.73475 0.0
C3284 C 0.39962 0.41936 0.74733 0.0
C3285 C 0.31008 0.36222 0.77416 0.0
C3286 C 0.31687 0.34564 0.77402 0.0
C3287 C 0.32068 0.38054 0.77377 0.0
C3288 C 0.33904 0.38387 0.77334 0.0
C3289 C 0.34604 0.36727 0.77294 0.0
C3290 C 0.33528 0.34867 0.77339 0.0
C3291 C 0.35026 0.40442 0.77315 0.0
C3292 C 0.36314 0.40789 0.76088 0.0
C3293 C 0.34777 0.42109 0.78454 0.0
C3294 C 0.33687 0.41934 0.80001 0.0
C3295 C 0.34017 0.40806 0.8134 0.0
C3296 C 0.32995 0.40646 0.82805 0.0
C3297 C 0.31648 0.4162 0.82954 0.0
C3298 C 0.31322 0.42758 0.8164 0.0
C3299 C 0.32339 0.42922 0.80171 0.0
H3300 H 0.30858 0.41495 0.8409 0.0
H3301 H 0.42005 0.43274 0.71063 0.0
H3302 H 0.16406 0.60917 0.26862 0.0
H3303 H 0.17586 0.64287 0.28033 0.0
H3304 H 0.22855 0.63414 0.27956 0.0
H3305 H 0.21688 0.60033 0.26818 0.0
H3306 H 0.22534 0.65919 0.30981 0.0
H3307 H 0.20856 0.64472 0.24295 0.0
H3308 H 0.18874 0.63371 0.21365 0.0
H3309 H 0.15786 0.67374 0.23064 0.0
H3310 H 0.1773 0.68471 0.26025 0.0
H3311 H 0.28436 0.73381 0.2837 0.0
H3312 H 0.26429 0.70326 0.28491 0.0
H3313 H 0.22112 0.73144 0.28842 0.0
H3314 H 0.24093 0.76153 0.2864 0.0
H3315 H 0.21378 0.69985 0.26337 0.0
H3316 H 0.24029 0.72017 0.32646 0.0
H3317 H 0.26524 0.73162 0.35112 0.0
H3318 H 0.28336 0.68057 0.33661 0.0
H3319 H 0.25867 0.66882 0.31168 0.0
C3320 C 0.17817 0.61447 0.27101 0.0
C3321 C 0.18969 0.60247 0.2672 0.0
C3322 C 0.18479 0.63355 0.2779 0.0
C3323 C 0.20293 0.64066 0.28072 0.0
C3324 C 0.21446 0.6286 0.27758 0.0
C3325 C 0.20785 0.60948 0.27086 0.0
C3326 C 0.21008 0.66096 0.28445 0.0
C3327 C 0.22276 0.66827 0.29986 0.0
C3328 C 0.20633 0.6725 0.27139 0.0
C3329 C 0.19412 0.6652 0.25401 0.0
C3330 C 0.19734 0.65091 0.2406 0.0
C3331 C 0.18623 0.64473 0.2239 0.0
C3332 C 0.17198 0.65293 0.22033 0.0
C3333 C 0.16882 0.66731 0.23347 0.0
C3334 C 0.17985 0.67347 0.25024 0.0
C3335 C 0.27051 0.73313 0.28435 0.0
C3336 C 0.26379 0.74936 0.28483 0.0
C3337 C 0.25923 0.71602 0.28535 0.0
C3338 C 0.24151 0.71556 0.28723 0.0
C3339 C 0.23485 0.73183 0.28719 0.0
C3340 C 0.24601 0.74876 0.28592 0.0
C3341 C 0.22961 0.69782 0.28823 0.0
C3342 C 0.2159 0.6911 0.27381 0.0
C3343 C 0.23291 0.68669 0.30179 0.0
C3344 C 0.24754 0.69356 0.31719 0.0
C3345 C 0.24964 0.71141 0.32842 0.0
C3346 C 0.26375 0.71797 0.34246 0.0
C3347 C 0.27587 0.70686 0.34543 0.0
C3348 C 0.27392 0.68914 0.33435 0.0
C3349 C 0.25982 0.68248 0.32031 0.0
H3350 H 0.28675 0.71196 0.35634 0.0
H3351 H 0.16345 0.6482 0.20734 0.0
H3352 H 0.49931 0.73128 0.46398 0.0
H3353 H 0.50552 0.70669 0.48144 0.0
H3354 H 0.5415 0.69333 0.44293 0.0
H3355 H 0.53412 0.71674 0.42473 0.0
H3356 H 0.52592 0.66296 0.4485 0.0
H3357 H 0.55186 0.71926 0.49417 0.0
H3358 H 0.55263 0.74885 0.51561 0.0
H3359 H 0.51219 0.71894 0.54342 0.0
H3360 H 0.51106 0.68926 0.52205 0.0
H3361 H 0.56859 0.60796 0.50315 0.0
H3362 H 0.56388 0.63664 0.49139 0.0
H3363 H 0.51324 0.62905 0.51134 0.0
H3364 H 0.51755 0.59992 0.52245 0.0
H3365 H 0.53613 0.66996 0.51713 0.0
H3366 H 0.51034 0.61454 0.47179 0.0
H3367 H 0.51 0.58457 0.45134 0.0
H3368 H 0.55019 0.6141 0.42289 0.0
H3369 H 0.55139 0.6439 0.44378 0.0
C3370 C 0.50846 0.72297 0.4592 0.0
C3371 C 0.51601 0.72582 0.44277 0.0
C3372 C 0.51227 0.70904 0.46942 0.0
C3373 C 0.52431 0.69807 0.46392 0.0
C3374 C 0.53208 0.70129 0.44763 0.0
C3375 C 0.52783 0.71474 0.43713 0.0
C3376 C 0.52808 0.68242 0.47412 0.0
C3377 C 0.52852 0.66489 0.46352 0.0
C3378 C 0.53082 0.68414 0.49385 0.0
C3379 C 0.53125 0.7021 0.50638 0.0
C3380 C 0.54303 0.71905 0.50475 0.0
C3381 C 0.54355 0.73582 0.51692 0.0
C3382 C 0.53243 0.73579 0.53083 0.0
C3383 C 0.52077 0.71897 0.53262 0.0
C3384 C 0.5202 0.70217 0.5205 0.0
C3385 C 0.55655 0.61252 0.50527 0.0
C3386 C 0.54342 0.60157 0.51371 0.0
C3387 C 0.55388 0.62896 0.49855 0.0
C3388 C 0.53821 0.63511 0.50051 0.0
C3389 C 0.52547 0.62471 0.50975 0.0
C3390 C 0.52792 0.60798 0.51601 0.0
C3391 C 0.53443 0.65118 0.49134 0.0
C3392 C 0.53381 0.6685 0.50212 0.0
C3393 C 0.53158 0.64943 0.47179 0.0
C3394 C 0.5312 0.63135 0.45957 0.0
C3395 C 0.51939 0.61451 0.46145 0.0
C3396 C 0.51904 0.59753 0.44977 0.0
C3397 C 0.53019 0.5973 0.43594 0.0
C3398 C 0.54172 0.61409 0.43375 0.0
C3399 C 0.5423 0.63104 0.44556 0.0
H3400 H 0.52974 0.58412 0.42687 0.0
H3401 H 0.53287 0.74878 0.54025 0.0
H3402 H 0.63268 0.29877 0.63906 0.0
H3403 H 0.65908 0.29778 0.6591 0.0
H3404 H 0.63781 0.32196 0.70676 0.0
H3405 H 0.6116 0.32323 0.68675 0.0
H3406 H 0.67057 0.33863 0.70918 0.0
H3407 H 0.63991 0.27324 0.69628 0.0
H3408 H 0.62535 0.24277 0.67647 0.0
H3409 H 0.6733 0.23996 0.65329 0.0
H3410 H 0.68809 0.2706 0.67275 0.0
H3411 H 0.72293 0.31959 0.78386 0.0
H3412 H 0.69968 0.31993 0.7599 0.0
H3413 H 0.729 0.29867 0.71787 0.0
H3414 H 0.75262 0.29808 0.74228 0.0
H3415 H 0.69412 0.28078 0.71008 0.0
H3416 H 0.72486 0.34604 0.72469 0.0
H3417 H 0.73844 0.37724 0.74376 0.0
H3418 H 0.68915 0.38037 0.76376 0.0
H3419 H 0.67534 0.34907 0.74505 0.0
C3420 C 0.63364 0.30394 0.65381 0.0
C3421 C 0.61993 0.31118 0.6612 0.0
C3422 C 0.64876 0.30322 0.66535 0.0
C3423 C 0.65062 0.3096 0.68468 0.0
C3424 C 0.63693 0.31692 0.69199 0.0
C3425 C 0.62184 0.31765 0.68048 0.0
C3426 C 0.66685 0.3092 0.6973 0.0
C3427 C 0.67552 0.32586 0.70948 0.0
C3428 C 0.67391 0.29279 0.69748 0.0
C3429 C 0.66507 0.27432 0.68584 0.0
C3430 C 0.64732 0.26621 0.68685 0.0
C3431 C 0.63902 0.24889 0.6757 0.0
C3432 C 0.64838 0.23946 0.66359 0.0
C3433 C 0.66606 0.2473 0.66265 0.0
C3434 C 0.67441 0.26464 0.67374 0.0
C3435 C 0.72463 0.31502 0.76953 0.0
C3436 C 0.73994 0.30896 0.76519 0.0
C3437 C 0.7112 0.31533 0.75571 0.0
C3438 C 0.71242 0.30963 0.73681 0.0
C3439 C 0.72761 0.3033 0.73227 0.0
C3440 C 0.74126 0.30309 0.74627 0.0
C3441 C 0.69763 0.31019 0.72223 0.0
C3442 C 0.68922 0.29357 0.7097 0.0
C3443 C 0.69066 0.32663 0.72177 0.0
C3444 C 0.69911 0.34512 0.73358 0.0
C3445 C 0.71697 0.35327 0.73333 0.0
C3446 C 0.7247 0.371 0.74404 0.0
C3447 C 0.71467 0.38076 0.75499 0.0
C3448 C 0.69691 0.37279 0.75529 0.0
C3449 C 0.68913 0.35506 0.74464 0.0
H3450 H 0.72066 0.39452 0.76321 0.0
H3451 H 0.64194 0.22605 0.65498 0.0
H3452 H 1.00301 0.33504 0.92533 0.0
H3453 H 0.00633 0.36667 0.9429 0.0
H3454 H 0.03594 0.3513 0.98857 0.0
H3455 H 0.03182 0.31898 0.97116 0.0
H3456 H 0.01433 0.36988 1.00166 0.0
H3457 H 0.05583 0.38231 0.95892 0.0
H3458 H 0.06802 0.38217 0.92899 0.0
H3459 H 0.03001 0.41161 0.9093 0.0
H3460 H 0.01745 0.41172 0.93901 0.0
H3461 H 0.0423 0.47009 0.04016 0.0
H3462 H 0.04116 0.43696 0.02717 0.0
H3463 H 0.99889 0.43779 0.98577 0.0
H3464 H 0.99976 0.47082 0.99881 0.0
H3465 H 0.03054 0.42756 0.97251 0.0
H3466 H 0.98804 0.41188 0.01561 0.0
H3467 H 0.97909 0.41524 0.04716 0.0
H3468 H 0.02314 0.39434 0.06733 0.0
H3469 H 0.03244 0.39106 0.03589 0.0
C3470 C 0.01026 0.33839 0.93911 0.0
C3471 C 0.01717 0.32463 0.94693 0.0
C3472 C 0.01232 0.35655 0.94908 0.0
C3473 C 0.02177 0.36153 0.96687 0.0
C3474 C 0.02869 0.34778 0.97479 0.0
C3475 C 0.02632 0.32937 0.9649 0.0
C3476 C 0.02343 0.38079 0.97744 0.0
C3477 C 0.01821 0.38248 0.99536 0.0
C3478 C 0.02836 0.39731 0.96924 0.0
C3479 C 0.03562 0.39688 0.95116 0.0
C3480 C 0.04997 0.38859 0.94815 0.0
C3481 C 0.05697 0.38855 0.93123 0.0
C3482 C 0.04978 0.39684 0.91724 0.0
C3483 C 0.03557 0.40519 0.92014 0.0
C3484 C 0.02852 0.40526 0.93702 0.0
C3485 C 0.03247 0.46301 0.02859 0.0
C3486 C 0.02111 0.47288 0.02045 0.0
C3487 C 0.03188 0.44419 0.0212 0.0
C3488 C 0.02004 0.43518 0.0055 0.0
C3489 C 0.00811 0.44468 0.9979 0.0
C3490 C 0.00851 0.46341 0.00546 0.0
C3491 C 0.02096 0.4163 0.9962 0.0
C3492 C 0.0268 0.41483 0.97867 0.0
C3493 C 0.01693 0.40011 0.00483 0.0
C3494 C 0.01095 0.40128 0.02348 0.0
C3495 C 0.99582 0.40803 0.0268 0.0
C3496 C 0.99069 0.40993 0.04464 0.0
C3497 C 1.00055 0.40502 0.05924 0.0
C3498 C 0.01551 0.39812 0.056 0.0
C3499 C 0.02069 0.39619 0.03817 0.0
H3500 H 0.99659 0.40656 0.07307 0.0
H3501 H 0.05524 0.39683 0.90416 0.0
H3502 H 0.02677 0.82292 0.16597 0.0
H3503 H 0.99949 0.81446 0.17966 0.0
H3504 H 0.98528 0.76097 0.14205 0.0
H3505 H 0.01214 0.77003 0.12753 0.0
H3506 H 0.95705 0.77202 0.1464 0.0
H3507 H 1.00228 0.76459 0.18936 0.0
H3508 H 0.03114 0.77321 0.20838 0.0
H3509 H 0.01657 0.82083 0.23946 0.0
H3510 H 0.98769 0.81263 0.22046 0.0
H3511 H 0.89048 0.74534 0.20795 0.0
H3512 H 0.91566 0.74516 0.19019 0.0
H3513 H 0.9365 0.8045 0.2123 0.0
H3514 H 0.91177 0.80471 0.23016 0.0
H3515 H 0.96118 0.78318 0.21521 0.0
H3516 H 0.91487 0.78848 0.168 0.0
H3517 H 0.88675 0.77683 0.14774 0.0
H3518 H 0.90387 0.72732 0.12458 0.0
H3519 H 0.93199 0.73852 0.14494 0.0
C3520 C 0.01777 0.80942 0.16056 0.0
C3521 C 0.02163 0.79711 0.14578 0.0
C3522 C 1.00221 0.80448 0.16848 0.0
C3523 C 0.99045 0.78678 0.16231 0.0
C3524 C 0.9941 0.77465 0.14719 0.0
C3525 C 0.00949 0.77982 0.13892 0.0
C3526 C 0.97459 0.78102 0.17194 0.0
C3527 C 0.95801 0.77417 0.16145 0.0
C3528 C 0.9757 0.78334 0.19158 0.0
C3529 C 0.99284 0.78803 0.20344 0.0
C3530 C 1.00525 0.77692 0.20023 0.0
C3531 C 0.02162 0.78174 0.211 0.0
C3532 C 0.0257 0.79757 0.22511 0.0
C3533 C 0.01339 0.80856 0.22853 0.0
C3534 C 0.99699 0.80381 0.2178 0.0
C3535 C 0.90044 0.75833 0.20899 0.0
C3536 C 0.89902 0.77509 0.22039 0.0
C3537 C 0.91477 0.75823 0.19875 0.0
C3538 C 0.92795 0.77486 0.19983 0.0
C3539 C 0.9265 0.79151 0.2112 0.0
C3540 C 0.91223 0.79165 0.22129 0.0
C3541 C 0.94364 0.77522 0.1897 0.0
C3542 C 0.96026 0.78083 0.20015 0.0
C3543 C 0.94252 0.77109 0.17008 0.0
C3544 C 0.92546 0.76425 0.15815 0.0
C3545 C 0.91256 0.77501 0.15875 0.0
C3546 C 0.89664 0.7685 0.14721 0.0
C3547 C 0.89354 0.75136 0.13488 0.0
C3548 C 0.90629 0.7406 0.13414 0.0
C3549 C 0.92222 0.74701 0.14568 0.0
H3550 H 0.88128 0.74647 0.12582 0.0
H3551 H 0.0384 0.8013 0.2334 0.0
H3552 H 0.51072 0.3291 0.15376 0.0
H3553 H 0.52475 0.3554 0.13887 0.0
H3554 H 0.52589 0.31584 0.08948 0.0
H3555 H 0.51193 0.28948 0.10424 0.0
H3556 H 0.5575 0.34349 0.10045 0.0
H3557 H 0.49549 0.33866 0.08875 0.0
H3558 H 0.46591 0.33608 0.09847 0.0
H3559 H 0.48307 0.39055 0.13353 0.0
H3560 H 0.51288 0.39328 0.12426 0.0
H3561 H 0.56059 0.40372 0.03111 0.0
H3562 H 0.55659 0.37933 0.05096 0.0
H3563 H 0.55435 0.42163 0.09772 0.0
H3564 H 0.55875 0.44623 0.07807 0.0
H3565 H 0.52492 0.39315 0.08989 0.0
H3566 H 0.58701 0.39888 0.09832 0.0
H3567 H 0.61673 0.39964 0.08958 0.0
H3568 H 0.59947 0.34252 0.06001 0.0
H3569 H 0.56956 0.34151 0.06831 0.0
C3570 C 0.51382 0.32606 0.13968 0.0
C3571 C 0.51005 0.30736 0.13003 0.0
C3572 C 0.52194 0.34101 0.13128 0.0
C3573 C 0.52632 0.33742 0.11316 0.0
C3574 C 0.52267 0.31877 0.10354 0.0
C3575 C 0.5145 0.30382 0.11188 0.0
C3576 C 0.53377 0.35326 0.10382 0.0
C3577 C 0.5504 0.35432 0.09794 0.0
C3578 C 0.52448 0.36736 0.10092 0.0
C3579 C 0.50642 0.36612 0.10593 0.0
C3580 C 0.49297 0.35005 0.09859 0.0
C3581 C 0.47617 0.34855 0.10402 0.0
C3582 C 0.47262 0.36312 0.11664 0.0
C3583 C 0.48585 0.37926 0.12377 0.0
C3584 C 0.50269 0.38081 0.11842 0.0
C3585 C 0.55987 0.40796 0.04576 0.0
C3586 C 0.55971 0.42683 0.05299 0.0
C3587 C 0.55757 0.394 0.05707 0.0
C3588 C 0.55512 0.39874 0.07574 0.0
C3589 C 0.55617 0.41776 0.0833 0.0
C3590 C 0.55855 0.43173 0.07204 0.0
C3591 C 0.54886 0.38362 0.08651 0.0
C3592 C 0.53224 0.38253 0.09252 0.0
C3593 C 0.55813 0.36941 0.08929 0.0
C3594 C 0.57598 0.3702 0.08379 0.0
C3595 C 0.58948 0.38657 0.08975 0.0
C3596 C 0.60639 0.38702 0.08492 0.0
C3597 C 0.60998 0.37115 0.07421 0.0
C3598 C 0.59667 0.35481 0.06828 0.0
C3599 C 0.57974 0.35429 0.07305 0.0
H3600 H 0.62309 0.37151 0.07054 0.0
H3601 H 0.45961 0.36192 0.12086 0.0
H3602 H 0.02766 0.31531 0.38455 0.0
H3603 H 0.99957 0.31171 0.3655 0.0
H3604 H 0.02671 0.31959 0.3174 0.0
H3605 H 0.05479 0.32301 0.33626 0.0
H3606 H 1.00178 0.34301 0.32551 0.0
H3607 H 0.00733 0.27721 0.3206 0.0
H3608 H 0.011 0.24891 0.334 0.0
H3609 H 0.96408 0.24879 0.36013 0.0
H3610 H 0.96036 0.27733 0.34722 0.0
H3611 H 0.92559 0.32829 0.26373 0.0
H3612 H 0.95426 0.3234 0.27535 0.0
H3613 H 0.93158 0.3001 0.32116 0.0
H3614 H 0.90297 0.30407 0.3091 0.0
H3615 H 0.9555 0.2833 0.3122 0.0
H3616 H 0.94995 0.34766 0.32368 0.0
H3617 H 0.94518 0.37839 0.31664 0.0
H3618 H 0.98981 0.38459 0.28614 0.0
H3619 H 0.99461 0.35367 0.29265 0.0
C3620 C 0.02758 0.31621 0.3699 0.0
C3621 C 0.04324 0.31937 0.36175 0.0
C3622 C 0.01162 0.31408 0.3591 0.0
C3623 C 0.01129 0.31523 0.34015 0.0
C3624 C 0.0269 0.31855 0.33203 0.0
C3625 C 0.04282 0.32045 0.34276 0.0
C3626 C 0.99465 0.31365 0.32884 0.0
C3627 C 0.99173 0.3299 0.32223 0.0
C3628 C 0.98147 0.29672 0.32549 0.0
C3629 C 0.98367 0.27948 0.33307 0.0
C3630 C 0.9979 0.27124 0.32934 0.0
C3631 C 0.99997 0.25515 0.33684 0.0
C3632 C 0.9878 0.24708 0.34794 0.0
C3633 C 0.97351 0.25507 0.35155 0.0
C3634 C 0.97142 0.2712 0.34415 0.0
C3635 C 0.92674 0.32159 0.27593 0.0
C3636 C 0.91239 0.31694 0.28586 0.0
C3637 C 0.94304 0.31894 0.28261 0.0
C3638 C 0.94502 0.3119 0.29935 0.0
C3639 C 0.93031 0.30571 0.3083 0.0
C3640 C 0.91406 0.30814 0.30153 0.0
C3641 C 0.96251 0.3127 0.30871 0.0
C3642 C 0.96562 0.29635 0.31509 0.0
C3643 C 0.97558 0.32984 0.31265 0.0
C3644 C 0.97244 0.34819 0.30835 0.0
C3645 C 0.9586 0.35545 0.31525 0.0
C3646 C 0.95591 0.37292 0.31139 0.0
C3647 C 0.96713 0.3834 0.30088 0.0
C3648 C 0.98107 0.37642 0.29421 0.0
C3649 C 0.98376 0.35891 0.29794 0.0
H3650 H 0.96507 0.39695 0.29796 0.0
H3651 H 0.98943 0.23461 0.35372 0.0
H3652 H 0.97046 0.70112 0.61263 0.0
H3653 H 0.97553 0.67307 0.59299 0.0
H3654 H 0.02383 0.6772 0.62782 0.0
H3655 H 0.01855 0.70474 0.64787 0.0
H3656 H 0.02417 0.67985 0.58652 0.0
H3657 H 0.99986 0.64187 0.63018 0.0
H3658 H 0.97753 0.63169 0.65057 0.0
H3659 H 0.9385 0.61189 0.60308 0.0
H3660 H 0.96059 0.62221 0.58241 0.0
H3661 H 0.04689 0.60048 0.53527 0.0
H3662 H 0.0412 0.6223 0.56143 0.0
H3663 H 0.9876 0.61395 0.53683 0.0
H3664 H 0.9932 0.592 0.51062 0.0
H3665 H 0.99111 0.61248 0.57527 0.0
H3666 H 0.01471 0.65157 0.53184 0.0
H3667 H 0.03607 0.6641 0.51138 0.0
H3668 H 0.07578 0.6838 0.55827 0.0
H3669 H 0.05472 0.671 0.57898 0.0
C3670 C 0.98185 0.69563 0.61635 0.0
C3671 C 0.99411 0.70488 0.63165 0.0
C3672 C 0.98472 0.67973 0.6052 0.0
C3673 C 1.00002 0.67331 0.60912 0.0
C3674 C 0.01191 0.68203 0.62481 0.0
C3675 C 0.00883 0.69762 0.63623 0.0
C3676 C 1.00449 0.65889 0.59559 0.0
C3677 C 0.01727 0.66501 0.58426 0.0
C3678 C 0.99502 0.63984 0.59254 0.0
C3679 C 0.98183 0.63297 0.60478 0.0
C3680 C 0.98649 0.63545 0.6241 0.0
C3681 C 0.97388 0.62966 0.63571 0.0
C3682 C 0.95658 0.62127 0.62814 0.0
C3683 C 0.95189 0.61849 0.60893 0.0
C3684 C 0.96446 0.62425 0.59725 0.0
C3685 C 0.03392 0.60338 0.53545 0.0
C3686 C 0.02048 0.59481 0.52098 0.0
C3687 C 0.0307 0.61573 0.55037 0.0
C3688 C 0.01402 0.61964 0.55091 0.0
C3689 C 1.00053 0.61095 0.53656 0.0
C3690 C 1.00377 0.59866 0.52158 0.0
C3691 C 0.01086 0.63342 0.56612 0.0
C3692 C 0.99825 0.62723 0.57769 0.0
C3693 C 0.02047 0.65252 0.56936 0.0
C3694 C 0.03321 0.66006 0.55692 0.0
C3695 C 0.02806 0.65834 0.53776 0.0
C3696 C 0.0401 0.66553 0.52612 0.0
C3697 C 0.0573 0.67467 0.53351 0.0
C3698 C 0.06247 0.67666 0.55256 0.0
C3699 C 0.05049 0.66942 0.56425 0.0
H3700 H 0.06659 0.68027 0.52447 0.0
H3701 H 0.94683 0.61679 0.63715 0.0
H3702 H 0.61126 0.78816 0.84507 0.0
H3703 H 0.63327 0.78135 0.82521 0.0
H3704 H 0.67076 0.8307 0.85524 0.0
H3705 H 0.64874 0.83746 0.87564 0.0
H3706 H 0.66329 0.82445 0.81218 0.0
H3707 H 0.67938 0.7954 0.86511 0.0
H3708 H 0.67144 0.77472 0.88838 0.0
H3709 H 0.65127 0.72705 0.84479 0.0
H3710 H 0.65886 0.74756 0.82125 0.0
H3711 H 0.74282 0.81427 0.78252 0.0
H3712 H 0.71775 0.81927 0.79786 0.0
H3713 H 0.69198 0.76008 0.78035 0.0
H3714 H 0.71767 0.75466 0.76561 0.0
H3715 H 0.69104 0.76964 0.81544 0.0
H3716 H 0.67853 0.79681 0.76227 0.0
H3717 H 0.68384 0.81699 0.73813 0.0
H3718 H 0.6934 0.86704 0.77964 0.0
H3719 H 0.68915 0.84727 0.80409 0.0
C3720 C 0.62422 0.79752 0.84748 0.0
C3721 C 0.62848 0.81331 0.86176 0.0
C3722 C 0.63669 0.79359 0.8362 0.0
C3723 C 0.65341 0.80556 0.83896 0.0
C3724 C 0.65778 0.8214 0.85314 0.0
C3725 C 0.64534 0.82516 0.86473 0.0
C3726 C 0.66618 0.80146 0.82667 0.0
C3727 C 0.66967 0.8127 0.81294 0.0
C3728 C 0.67348 0.78548 0.82734 0.0
C3729 C 0.66956 0.77302 0.84146 0.0
C3730 C 0.67317 0.78053 0.86051 0.0
C3731 C 0.66874 0.76884 0.87373 0.0
C3732 C 0.66081 0.74959 0.86807 0.0
C3733 C 0.6574 0.74197 0.84916 0.0
C3734 C 0.66179 0.7536 0.83587 0.0
C3735 C 0.73171 0.80235 0.78157 0.0
C3736 C 0.73217 0.78406 0.77294 0.0
C3737 C 0.71733 0.80527 0.79028 0.0
C3738 C 0.70297 0.79009 0.78999 0.0
C3739 C 0.703 0.77195 0.78063 0.0
C3740 C 0.7176 0.76891 0.7722 0.0
C3741 C 0.68874 0.79302 0.80096 0.0
C3742 C 0.68475 0.78141 0.81444 0.0
C3743 C 0.68076 0.80855 0.79982 0.0
C3744 C 0.68361 0.82051 0.78506 0.0
C3745 C 0.68204 0.81213 0.76629 0.0
C3746 C 0.68494 0.82352 0.75253 0.0
C3747 C 0.68911 0.84331 0.75733 0.0
C3748 C 0.6904 0.85174 0.77591 0.0
C3749 C 0.68779 0.84044 0.78974 0.0
H3750 H 0.69128 0.85212 0.74667 0.0
H3751 H 0.65734 0.74057 0.87833 0.0
H3752 H 0.46084 0.59285 0.71454 0.0
H3753 H 0.47648 0.59191 0.68673 0.0
H3754 H 0.467 0.53103 0.68108 0.0
H3755 H 0.45055 0.53188 0.70829 0.0
H3756 H 0.50368 0.54916 0.67499 0.0
H3757 H 0.4442 0.54952 0.65171 0.0
H3758 H 0.41776 0.5627 0.6504 0.0
H3759 H 0.4479 0.61488 0.63803 0.0
H3760 H 0.47458 0.60209 0.63956 0.0
H3761 H 0.53358 0.53038 0.58469 0.0
H3762 H 0.51816 0.53101 0.61251 0.0
H3763 H 0.50734 0.58496 0.60441 0.0
H3764 H 0.52242 0.58395 0.57632 0.0
H3765 H 0.4814 0.57111 0.61853 0.0
H3766 H 0.53988 0.5751 0.64213 0.0
H3767 H 0.56889 0.56748 0.64705 0.0
H3768 H 0.54491 0.51404 0.66216 0.0
H3769 H 0.51572 0.52128 0.65716 0.0
C3770 C 0.46196 0.57917 0.70744 0.0
C3771 C 0.45401 0.56245 0.71412 0.0
C3772 C 0.47107 0.57863 0.69127 0.0
C3773 C 0.47334 0.56136 0.68114 0.0
C3774 C 0.46578 0.5447 0.68812 0.0
C3775 C 0.45615 0.54519 0.7039 0.0
C3776 C 0.48302 0.56064 0.66328 0.0
C3777 C 0.49853 0.55368 0.66259 0.0
C3778 C 0.47737 0.56727 0.64687 0.0
C3779 C 0.46138 0.57492 0.64591 0.0
C3780 C 0.44521 0.56386 0.64887 0.0
C3781 C 0.43018 0.57125 0.64806 0.0
C3782 C 0.43116 0.58963 0.64417 0.0
C3783 C 0.44716 0.60065 0.64106 0.0
C3784 C 0.46224 0.59334 0.64189 0.0
C3785 C 0.52762 0.54225 0.58853 0.0
C3786 C 0.52908 0.55683 0.57741 0.0
C3787 C 0.5189 0.54283 0.60497 0.0
C3788 C 0.51135 0.55824 0.61163 0.0
C3789 C 0.51266 0.57268 0.60028 0.0
C3790 C 0.52136 0.57207 0.58383 0.0
C3791 C 0.5021 0.55929 0.6299 0.0
C3792 C 0.48665 0.56641 0.63077 0.0
C3793 C 0.50821 0.55342 0.64672 0.0
C3794 C 0.52559 0.54861 0.649 0.0
C3795 C 0.54077 0.56162 0.64628 0.0
C3796 C 0.55725 0.5574 0.64915 0.0
C3797 C 0.55874 0.54026 0.65486 0.0
C3798 C 0.54374 0.5273 0.6577 0.0
C3799 C 0.52722 0.53145 0.65485 0.0
H3800 H 0.57152 0.53704 0.65713 0.0
H3801 H 0.4195 0.59533 0.64353 0.0
H3802 H 0.76043 0.14554 0.96611 0.0
H3803 H 0.74707 0.16068 0.94272 0.0
H3804 H 0.77807 0.21554 0.96964 0.0
H3805 H 0.79118 0.20057 0.99331 0.0
H3806 H 0.74292 0.21429 0.9646 0.0
H3807 H 0.7878 0.19609 0.92943 0.0
H3808 H 0.80349 0.17211 0.91681 0.0
H3809 H 0.75582 0.13919 0.88466 0.0
H3810 H 0.73976 0.16304 0.8971 0.0
H3811 H 0.75101 0.28137 0.90746 0.0
H3812 H 0.75065 0.25816 0.92784 0.0
H3813 H 0.71981 0.21438 0.88442 0.0
H3814 H 0.72171 0.23775 0.86316 0.0
H3815 H 0.74647 0.20363 0.89674 0.0
H3816 H 0.70436 0.23073 0.92892 0.0
H3817 H 0.69261 0.25749 0.94305 0.0
H3818 H 0.73885 0.27671 0.98265 0.0
H3819 H 0.75098 0.25028 0.96863 0.0
C3820 C 0.76478 0.16075 0.96667 0.0
C3821 C 0.77678 0.172 0.98139 0.0
C3822 C 0.75704 0.16934 0.95344 0.0
C3823 C 0.76152 0.18913 0.95474 0.0
C3824 C 0.77438 0.20022 0.9687 0.0
C3825 C 0.78197 0.19169 0.98201 0.0
C3826 C 0.75234 0.19855 0.94203 0.0
C3827 C 0.74356 0.21202 0.94972 0.0
C3828 C 0.75284 0.19493 0.92271 0.0
C3829 C 0.76258 0.18124 0.91426 0.0
C3830 C 0.78067 0.18376 0.91961 0.0
C3831 C 0.78961 0.17021 0.91249 0.0
C3832 C 0.78063 0.15417 0.89989 0.0
C3833 C 0.76272 0.15171 0.89431 0.0
C3834 C 0.7537 0.16525 0.90136 0.0
C3835 C 0.74346 0.26699 0.90251 0.0
C3836 C 0.73613 0.26128 0.88396 0.0
C3837 C 0.74314 0.25368 0.91423 0.0
C3838 C 0.73472 0.23458 0.90787 0.0
C3839 C 0.72617 0.22911 0.88964 0.0
C3840 C 0.72708 0.24239 0.87761 0.0
C3841 C 0.73753 0.22023 0.91933 0.0
C3842 C 0.74509 0.20558 0.91146 0.0
C3843 C 0.73625 0.2231 0.93865 0.0
C3844 C 0.72851 0.23841 0.94776 0.0
C3845 C 0.71198 0.24063 0.94068 0.0
C3846 C 0.70528 0.25578 0.94864 0.0
C3847 C 0.71496 0.26877 0.96375 0.0
C3848 C 0.73133 0.2666 0.97099 0.0
C3849 C 0.73809 0.25148 0.96309 0.0
H3850 H 0.70978 0.28054 0.96984 0.0
H3851 H 0.78755 0.14363 0.89446 0.0
H3852 H 0.16024 0.54495 0.18686 0.0
H3853 H 0.14113 0.54626 0.15891 0.0
H3854 H 0.09808 0.54785 0.19161 0.0
H3855 H 0.11673 0.54618 0.21923 0.0
H3856 H 0.09278 0.51724 0.16185 0.0
H3857 H 0.11435 0.58647 0.17624 0.0
H3858 H 0.13841 0.61526 0.18262 0.0
H3859 H 0.15613 0.59947 0.13002 0.0
H3860 H 0.13223 0.57053 0.12341 0.0
H3861 H 0.0253 0.52374 0.09501 0.0
H3862 H 0.04587 0.52727 0.12296 0.0
H3863 H 0.08904 0.54707 0.09236 0.0
H3864 H 0.06831 0.54776 0.06638 0.0
H3865 H 0.09549 0.5668 0.12166 0.0
H3866 H 0.07532 0.49761 0.10613 0.0
H3867 H 0.05335 0.46707 0.09986 0.0
H3868 H 0.03567 0.47968 0.15313 0.0
H3869 H 0.05744 0.5103 0.15964 0.0
C3870 C 0.14671 0.54566 0.18795 0.0
C3871 C 0.13963 0.54485 0.20479 0.0
C3872 C 0.13599 0.5466 0.17219 0.0
C3873 C 0.11841 0.54702 0.17356 0.0
C3874 C 0.11168 0.54738 0.19058 0.0
C3875 C 0.12225 0.54622 0.20617 0.0
C3876 C 0.10629 0.54475 0.15702 0.0
C3877 C 0.0932 0.52799 0.15293 0.0
C3878 C 0.1075 0.55869 0.14556 0.0
C3879 C 0.12156 0.57634 0.14937 0.0
C3880 C 0.12341 0.58913 0.16607 0.0
C3881 C 0.13701 0.60547 0.16972 0.0
C3882 C 0.1488 0.60918 0.15674 0.0
C3883 C 0.14698 0.59659 0.14005 0.0
C3884 C 0.13339 0.58025 0.13633 0.0
C3885 C 0.03921 0.5289 0.09448 0.0
C3886 C 0.04547 0.53467 0.07844 0.0
C3887 C 0.05096 0.5306 0.11026 0.0
C3888 C 0.06907 0.53678 0.10953 0.0
C3889 C 0.07517 0.54217 0.09326 0.0
C3890 C 0.06337 0.54198 0.07817 0.0
C3891 C 0.08177 0.53888 0.12591 0.0
C3892 C 0.09502 0.55572 0.13017 0.0
C3893 C 0.08098 0.5247 0.1373 0.0
C3894 C 0.06792 0.50627 0.13331 0.0
C3895 C 0.06669 0.49388 0.11645 0.0
C3896 C 0.05429 0.47656 0.11287 0.0
C3897 C 0.04311 0.47146 0.12607 0.0
C3898 C 0.04433 0.48364 0.14291 0.0
C3899 C 0.05672 0.50095 0.14657 0.0
H3900 H 0.03351 0.45805 0.12327 0.0
H3901 H 0.15934 0.62182 0.15961 0.0
H3902 H 0.80585 0.89059 0.47157 0.0
H3903 H 0.80483 0.87461 0.43985 0.0
H3904 H 0.78933 0.8201 0.45755 0.0
H3905 H 0.79125 0.83617 0.48969 0.0
H3906 H 0.81251 0.81788 0.43567 0.0
H3907 H 0.75993 0.8401 0.43061 0.0
H3908 H 0.74038 0.86248 0.43352 0.0
H3909 H 0.77042 0.89678 0.39922 0.0
H3910 H 0.79028 0.87476 0.39632 0.0
H3911 H 0.78791 0.77444 0.33828 0.0
H3912 H 0.78755 0.78549 0.37156 0.0
H3913 H 0.81859 0.84044 0.36634 0.0
H3914 H 0.81939 0.8292 0.33323 0.0
H3915 H 0.78477 0.83927 0.38149 0.0
H3916 H 0.8384 0.81659 0.38919 0.0
H3917 H 0.85557 0.79196 0.38473 0.0
H3918 H 0.81991 0.75587 0.4129 0.0
H3919 H 0.80241 0.78024 0.41732 0.0
C3920 C 0.80212 0.8752 0.46869 0.0
C3921 C 0.79864 0.8646 0.48306 0.0
C3922 C 0.80139 0.86606 0.4505 0.0
C3923 C 0.79665 0.84613 0.44618 0.0
C3924 C 0.79297 0.83549 0.46052 0.0
C3925 C 0.79405 0.84466 0.47885 0.0
C3926 C 0.79656 0.83653 0.42688 0.0
C3927 C 0.80613 0.82236 0.42388 0.0
C3928 C 0.78839 0.84238 0.41137 0.0
C3929 C 0.77667 0.85585 0.41338 0.0
C3930 C 0.76246 0.85251 0.42384 0.0
C3931 C 0.7513 0.86512 0.42545 0.0
C3932 C 0.75418 0.88106 0.41659 0.0
C3933 C 0.76821 0.88444 0.40609 0.0
C3934 C 0.77941 0.87189 0.40444 0.0
C3935 C 0.79499 0.7887 0.34446 0.0
C3936 C 0.80381 0.80101 0.33353 0.0
C3937 C 0.79475 0.79498 0.36333 0.0
C3938 C 0.80301 0.81375 0.37126 0.0
C3939 C 0.8122 0.82589 0.36038 0.0
C3940 C 0.81275 0.81948 0.34162 0.0
C3941 C 0.80103 0.82121 0.39054 0.0
C3942 C 0.79097 0.83482 0.39342 0.0
C3943 C 0.80843 0.81462 0.40587 0.0
C3944 C 0.81904 0.80012 0.40343 0.0
C3945 C 0.83416 0.80334 0.39431 0.0
C3946 C 0.84396 0.78945 0.39182 0.0
C3947 C 0.83881 0.77234 0.39849 0.0
C3948 C 0.82387 0.76912 0.40773 0.0
C3949 C 0.81403 0.78297 0.41025 0.0
H3950 H 0.8464 0.7616 0.39654 0.0
H3951 H 0.74551 0.89079 0.41783 0.0
H3952 H 0.44315 0.53155 0.81488 0.0
H3953 H 0.45969 0.52629 0.84265 0.0
H3954 H 0.48657 0.58544 0.85331 0.0
H3955 H 0.4712 0.59007 0.82414 0.0
H3956 H 0.50842 0.57109 0.86716 0.0
H3957 H 0.4482 0.55793 0.87899 0.0
H3958 H 0.41659 0.54275 0.87356 0.0
H3959 H 0.42845 0.48775 0.87208 0.0
H3960 H 0.46013 0.50261 0.87738 0.0
H3961 H 0.534 0.56859 0.96416 0.0
H3962 H 0.5207 0.57349 0.93424 0.0
H3963 H 0.50488 0.51288 0.91658 0.0
H3964 H 0.51823 0.50791 0.94659 0.0
H3965 H 0.4782 0.52814 0.90689 0.0
H3966 H 0.53925 0.54336 0.89721 0.0
H3967 H 0.57024 0.56023 0.90597 0.0
H3968 H 0.55571 0.61389 0.90698 0.0
H3969 H 0.52462 0.59732 0.89827 0.0
C3970 C 0.45259 0.5435 0.8231 0.0
C3971 C 0.45554 0.56131 0.81703 0.0
C3972 C 0.46202 0.54056 0.83945 0.0
C3973 C 0.47425 0.55553 0.85131 0.0
C3974 C 0.47734 0.57338 0.84503 0.0
C3975 C 0.46838 0.57613 0.82818 0.0
C3976 C 0.48372 0.55255 0.86983 0.0
C3977 C 0.50151 0.56187 0.8758 0.0
C3978 C 0.47547 0.54034 0.88175 0.0
C3979 C 0.45649 0.53136 0.8784 0.0
C3980 C 0.44404 0.5426 0.8774 0.0
C3981 C 0.42613 0.53405 0.87437 0.0
C3982 C 0.42052 0.5143 0.87243 0.0
C3983 C 0.43281 0.50304 0.87356 0.0
C3984 C 0.45074 0.51152 0.87661 0.0
C3985 C 0.52784 0.5562 0.95392 0.0
C3986 C 0.52738 0.53778 0.95818 0.0
C3987 C 0.52021 0.55906 0.93655 0.0
C3988 C 0.51166 0.54364 0.92256 0.0
C3989 C 0.51126 0.52521 0.92678 0.0
C3990 C 0.51905 0.52234 0.9441 0.0
C3991 C 0.50263 0.54665 0.90403 0.0
C3992 C 0.48498 0.53733 0.89812 0.0
C3993 C 0.5109 0.55913 0.89247 0.0
C3994 C 0.52961 0.56911 0.89717 0.0
C3995 C 0.54267 0.55876 0.89932 0.0
C3996 C 0.56025 0.56826 0.90426 0.0
C3997 C 0.56494 0.58812 0.90705 0.0
C3998 C 0.55206 0.59851 0.90479 0.0
C3999 C 0.53447 0.58907 0.89979 0.0
H4000 H 0.57854 0.59545 0.91094 0.0
H4001 H 0.40664 0.50771 0.8701 0.0
H4002 H 0.75722 0.16659 0.08517 0.0
H4003 H 0.75761 0.18885 0.11389 0.0
H4004 H 0.81103 0.21659 0.10943 0.0
H4005 H 0.81049 0.19487 0.08059 0.0
H4006 H 0.80427 0.20701 0.14516 0.0
H4007 H 0.78374 0.23732 0.09672 0.0
H4008 H 0.76494 0.24209 0.06991 0.0
H4009 H 0.72096 0.23664 0.10133 0.0
H4010 H 0.73943 0.23136 0.12823 0.0
H4011 H 0.82006 0.29499 0.20474 0.0
H4012 H 0.81562 0.27293 0.17527 0.0
H4013 H 0.76327 0.24803 0.18606 0.0
H4014 H 0.76791 0.26976 0.21568 0.0
H4015 H 0.76782 0.25507 0.14782 0.0
H4016 H 0.79142 0.2272 0.19772 0.0
H4017 H 0.81305 0.22785 0.2244 0.0
H4018 H 0.85412 0.23224 0.18909 0.0
H4019 H 0.83281 0.23219 0.16227 0.0
C4020 C 0.76907 0.17728 0.09059 0.0
C4021 C 0.78389 0.17913 0.08102 0.0
C4022 C 0.76923 0.18999 0.10676 0.0
C4023 C 0.78433 0.20424 0.11351 0.0
C4024 C 0.7993 0.20561 0.10427 0.0
C4025 C 0.799 0.19326 0.08794 0.0
C4026 C 0.78472 0.21788 0.13028 0.0
C4027 C 0.79633 0.21755 0.14578 0.0
C4028 C 0.77426 0.23146 0.13086 0.0
C4029 C 0.76289 0.2335 0.11436 0.0
C4030 C 0.76998 0.23669 0.09779 0.0
C4031 C 0.7594 0.2396 0.08261 0.0
C4032 C 0.74174 0.23956 0.08388 0.0
C4033 C 0.73462 0.23656 0.10033 0.0
C4034 C 0.74512 0.23357 0.11554 0.0
C4035 C 0.80748 0.28512 0.20049 0.0
C4036 C 0.7942 0.28393 0.21216 0.0
C4037 C 0.80501 0.27255 0.18384 0.0
C4038 C 0.78918 0.25894 0.17878 0.0
C4039 C 0.77554 0.25853 0.18991 0.0
C4040 C 0.77816 0.27084 0.20672 0.0
C4041 C 0.78736 0.24419 0.16258 0.0
C4042 C 0.77551 0.2443 0.14725 0.0
C4043 C 0.79783 0.23062 0.16202 0.0
C4044 C 0.81055 0.23001 0.17804 0.0
C4045 C 0.8051 0.22854 0.19568 0.0
C4046 C 0.81731 0.22885 0.21084 0.0
C4047 C 0.83499 0.23033 0.2085 0.0
C4048 C 0.84045 0.23127 0.19092 0.0
C4049 C 0.82831 0.23112 0.17574 0.0
H4050 H 0.84441 0.23056 0.22027 0.0
H4051 H 0.7336 0.24194 0.07214 0.0
H4052 H 0.12248 0.55667 0.28756 0.0
H4053 H 0.11265 0.57357 0.31435 0.0
H4054 H 0.16183 0.57645 0.34709 0.0
H4055 H 0.17196 0.55972 0.32021 0.0
H4056 H 0.12924 0.55962 0.36049 0.0
H4057 H 0.15673 0.61685 0.3382 0.0
H4058 H 0.16238 0.63733 0.31429 0.0
H4059 H 0.10744 0.63645 0.30497 0.0
H4060 H 0.10146 0.61586 0.32873 0.0
H4061 H 0.0988 0.59801 0.43688 0.0
H4062 H 0.1203 0.60188 0.41474 0.0
H4063 H 0.07941 0.60326 0.37195 0.0
H4064 H 0.05791 0.59924 0.39395 0.0
H4065 H 0.1123 0.62183 0.36524 0.0
H4066 H 0.08216 0.56199 0.37762 0.0
H4067 H 0.07096 0.53509 0.39355 0.0
H4068 H 0.12366 0.53428 0.41405 0.0
H4069 H 0.13516 0.56127 0.3983 0.0
C4070 C 0.13114 0.56074 0.30051 0.0
C4071 C 0.14789 0.5568 0.30199 0.0
C4072 C 0.12565 0.57069 0.31561 0.0
C4073 C 0.13681 0.57662 0.3323 0.0
C4074 C 0.15333 0.57226 0.33403 0.0
C4075 C 0.15893 0.56249 0.31886 0.0
C4076 C 0.13013 0.58505 0.34861 0.0
C4077 C 0.12611 0.57353 0.362 0.0
C4078 C 0.12513 0.60259 0.34957 0.0
C4079 C 0.12867 0.61482 0.3352 0.0
C4080 C 0.14585 0.62094 0.33096 0.0
C4081 C 0.14912 0.63259 0.31746 0.0
C4082 C 0.13528 0.63819 0.30812 0.0
C4083 C 0.11815 0.63214 0.31224 0.0
C4084 C 0.11482 0.62052 0.32575 0.0
C4085 C 0.09465 0.60029 0.42304 0.0
C4086 C 0.07678 0.59783 0.41683 0.0
C4087 C 0.10688 0.60241 0.41044 0.0
C4088 C 0.10119 0.60224 0.39175 0.0
C4089 C 0.0839 0.60327 0.38637 0.0
C4090 C 0.07165 0.60108 0.39897 0.0
C4091 C 0.1118 0.59657 0.37746 0.0
C4092 C 0.11619 0.60834 0.36426 0.0
C4093 C 0.1164 0.57871 0.37605 0.0
C4094 C 0.10949 0.564 0.38724 0.0
C4095 C 0.09134 0.55638 0.3859 0.0
C4096 C 0.08494 0.54097 0.39471 0.0
C4097 C 0.09658 0.53306 0.40491 0.0
C4098 C 0.11465 0.54053 0.40629 0.0
C4099 C 0.12111 0.55588 0.39744 0.0
H4100 H 0.09161 0.52109 0.41167 0.0
H4101 H 0.13784 0.64722 0.29768 0.0
H4102 H 0.82259 0.87874 0.5997 0.0
H4103 H 0.81757 0.8613 0.62592 0.0
H4104 H 0.76599 0.83261 0.59889 0.0
H4105 H 0.77127 0.84929 0.57232 0.0
H4106 H 0.76848 0.85016 0.63893 0.0
H4107 H 0.78937 0.80616 0.5982 0.0
H4108 H 0.80868 0.79396 0.57709 0.0
H4109 H 0.8511 0.80822 0.62146 0.0
H4110 H 0.83211 0.82092 0.64276 0.0
H4111 H 0.74904 0.78182 0.69985 0.0
H4112 H 0.75294 0.7972 0.67236 0.0
H4113 H 0.80815 0.81772 0.69132 0.0
H4114 H 0.8043 0.80226 0.71883 0.0
H4115 H 0.80265 0.80324 0.65427 0.0
H4116 H 0.77897 0.84712 0.69513 0.0
H4117 H 0.75716 0.85608 0.71487 0.0
H4118 H 0.71703 0.8384 0.66819 0.0
H4119 H 0.73857 0.82909 0.64824 0.0
C4120 C 0.8102 0.8687 0.59936 0.0
C4121 C 0.79733 0.86541 0.58395 0.0
C4122 C 0.80735 0.8587 0.61431 0.0
C4123 C 0.79138 0.84563 0.61442 0.0
C4124 C 0.77841 0.84259 0.59916 0.0
C4125 C 0.78147 0.85211 0.58397 0.0
C4126 C 0.7882 0.83535 0.63053 0.0
C4127 C 0.77584 0.83978 0.64218 0.0
C4128 C 0.79774 0.82177 0.63484 0.0
C4129 C 0.80942 0.81481 0.62199 0.0
C4130 C 0.80291 0.80702 0.60338 0.0
C4131 C 0.81377 0.79994 0.59139 0.0
C4132 C 0.83114 0.8004 0.5979 0.0
C4133 C 0.83766 0.80795 0.61642 0.0
C4134 C 0.82686 0.81511 0.62845 0.0
C4135 C 0.76199 0.78974 0.69823 0.0
C4136 C 0.77632 0.79094 0.71163 0.0
C4137 C 0.76421 0.79856 0.6825 0.0
C4138 C 0.78082 0.80885 0.67975 0.0
C4139 C 0.79519 0.80996 0.69308 0.0
C4140 C 0.79295 0.80121 0.70889 0.0
C4141 C 0.78323 0.81839 0.66299 0.0
C4142 C 0.79539 0.81375 0.65114 0.0
C4143 C 0.77324 0.83151 0.6583 0.0
C4144 C 0.76035 0.83729 0.67024 0.0
C4145 C 0.76547 0.84504 0.68911 0.0
C4146 C 0.75316 0.85019 0.70033 0.0
C4147 C 0.73571 0.84778 0.6928 0.0
C4148 C 0.73055 0.84025 0.67401 0.0
C4149 C 0.7428 0.83505 0.66274 0.0
H4150 H 0.7262 0.85178 0.70151 0.0
H4151 H 0.83951 0.79484 0.58862 0.0
H4152 H 0.74529 0.42311 0.53603 0.0
H4153 H 0.72782 0.44297 0.55181 0.0
H4154 H 0.73905 0.4828 0.51368 0.0
H4155 H 0.75742 0.46343 0.49847 0.0
H4156 H 0.73883 0.50053 0.54956 0.0
H4157 H 0.70187 0.4488 0.50427 0.0
H4158 H 0.69451 0.41451 0.49161 0.0
H4159 H 0.67986 0.40171 0.54435 0.0
H4160 H 0.68736 0.43596 0.55737 0.0
H4161 H 0.66596 0.53816 0.53101 0.0
H4162 H 0.6901 0.52184 0.53172 0.0
H4163 H 0.66904 0.49273 0.57504 0.0
H4164 H 0.64481 0.5094 0.5745 0.0
H4165 H 0.67566 0.46884 0.54436 0.0
H4166 H 0.70687 0.52347 0.58688 0.0
H4167 H 0.71804 0.5575 0.59956 0.0
H4168 H 0.74512 0.5653 0.55177 0.0
H4169 H 0.73397 0.53136 0.5387 0.0
C4170 C 0.74377 0.43594 0.53085 0.0
C4171 C 0.75202 0.4415 0.51566 0.0
C4172 C 0.7341 0.44739 0.54005 0.0
C4173 C 0.73206 0.46413 0.5337 0.0
C4174 C 0.74057 0.4699 0.51873 0.0
C4175 C 0.75066 0.45869 0.50984 0.0
C4176 C 0.71936 0.47438 0.54116 0.0
C4177 C 0.72501 0.49372 0.54848 0.0
C4178 C 0.7015 0.46517 0.54009 0.0
C4179 C 0.69508 0.44487 0.53175 0.0
C4180 C 0.69688 0.43866 0.51308 0.0
C4181 C 0.69279 0.41924 0.50588 0.0
C4182 C 0.6867 0.40594 0.51717 0.0
C4183 C 0.68453 0.41204 0.53562 0.0
C4184 C 0.68864 0.43145 0.5429 0.0
C4185 C 0.66662 0.52842 0.54079 0.0
C4186 C 0.65368 0.52489 0.55266 0.0
C4187 C 0.68044 0.51927 0.54132 0.0
C4188 C 0.68141 0.50637 0.55364 0.0
C4189 C 0.66854 0.50287 0.56564 0.0
C4190 C 0.65479 0.51229 0.5653 0.0
C4191 C 0.69498 0.4953 0.55239 0.0
C4192 C 0.68951 0.47568 0.54603 0.0
C4193 C 0.71298 0.50437 0.55418 0.0
C4194 C 0.71948 0.52488 0.56177 0.0
C4195 C 0.71507 0.53248 0.579 0.0
C4196 C 0.72144 0.55175 0.58628 0.0
C4197 C 0.73226 0.56356 0.57646 0.0
C4198 C 0.73675 0.55613 0.55935 0.0
C4199 C 0.73043 0.53687 0.55202 0.0
H4200 H 0.73719 0.57847 0.58213 0.0
H4201 H 0.68368 0.39091 0.51162 0.0
H4202 H 0.21861 0.17789 0.51208 0.0
H4203 H 0.18953 0.15797 0.51318 0.0
H4204 H 0.20882 0.10778 0.49625 0.0
H4205 H 0.23773 0.12772 0.49457 0.0
H4206 H 0.1785 0.10353 0.47825 0.0
H4207 H 0.2003 0.12361 0.54276 0.0
H4208 H 0.2127 0.14695 0.57102 0.0
H4209 H 0.16742 0.17108 0.56698 0.0
H4210 H 0.15487 0.14808 0.53851 0.0
H4211 H 0.1093 0.03328 0.4973 0.0
H4212 H 0.13711 0.05543 0.4975 0.0
H4213 H 0.1137 0.1023 0.51548 0.0
H4214 H 0.0858 0.07965 0.5164 0.0
H4215 H 0.14536 0.10983 0.53257 0.0
H4216 H 0.12362 0.08859 0.46781 0.0
H4217 H 0.11256 0.0659 0.43879 0.0
H4218 H 0.15904 0.04384 0.44328 0.0
H4219 H 0.17026 0.0662 0.47244 0.0
C4220 C 0.21664 0.1626 0.50853 0.0
C4221 C 0.23055 0.15445 0.50316 0.0
C4222 C 0.19998 0.15115 0.50934 0.0
C4223 C 0.19681 0.13118 0.50508 0.0
C4224 C 0.21073 0.12307 0.49963 0.0
C4225 C 0.22734 0.13452 0.49867 0.0
C4226 C 0.17898 0.11872 0.50574 0.0
C4227 C 0.17141 0.10478 0.49028 0.0
C4228 C 0.16929 0.12055 0.52114 0.0
C4229 C 0.17671 0.13422 0.5384 0.0
C4230 C 0.19303 0.13396 0.54783 0.0
C4231 C 0.20009 0.14713 0.56389 0.0
C4232 C 0.19087 0.16051 0.57076 0.0
C4233 C 0.17456 0.16072 0.56162 0.0
C4234 C 0.16746 0.14762 0.54553 0.0
C4235 C 0.10991 0.0483 0.50129 0.0
C4236 C 0.09497 0.0546 0.50651 0.0
C4237 C 0.12596 0.06109 0.50123 0.0
C4238 C 0.12767 0.08081 0.50591 0.0
C4239 C 0.11287 0.08723 0.51155 0.0
C4240 C 0.09676 0.07427 0.51194 0.0
C4241 C 0.14495 0.09442 0.50511 0.0
C4242 C 0.15242 0.1086 0.52053 0.0
C4243 C 0.15469 0.09275 0.48969 0.0
C4244 C 0.1477 0.07897 0.4724 0.0
C4245 C 0.1314 0.07878 0.4627 0.0
C4246 C 0.12512 0.066 0.44621 0.0
C4247 C 0.13507 0.05342 0.43922 0.0
C4248 C 0.15132 0.05357 0.44872 0.0
C4249 C 0.15765 0.06629 0.46522 0.0
H4250 H 0.1302 0.04357 0.42642 0.0
H4251 H 0.19635 0.17069 0.5832 0.0
H4252 H 0.16649 0.94571 0.77221 0.0
H4253 H 0.18182 0.9195 0.76921 0.0
H4254 H 0.23056 0.95947 0.76873 0.0
H4255 H 0.21518 0.98568 0.7717 0.0
H4256 H 0.23228 0.92899 0.74542 0.0
H4257 H 0.21578 0.93283 0.80797 0.0
H4258 H 0.19494 0.93195 0.83136 0.0
H4259 H 0.16758 0.87578 0.80502 0.0
H4260 H 0.1881 0.87646 0.78132 0.0
H4261 H 0.29051 0.86544 0.7608 0.0
H4262 H 0.27387 0.89043 0.76108 0.0
H4263 H 0.22678 0.84973 0.76588 0.0
H4264 H 0.24345 0.82464 0.76543 0.0
H4265 H 0.22325 0.87979 0.78597 0.0
H4266 H 0.23672 0.87298 0.72498 0.0
H4267 H 0.2529 0.87143 0.69765 0.0
H4268 H 0.28102 0.92933 0.7157 0.0
H4269 H 0.26525 0.93113 0.74337 0.0
C4270 C 0.1805 0.94914 0.77154 0.0
C4271 C 0.18923 0.96849 0.77241 0.0
C4272 C 0.18951 0.93382 0.76991 0.0
C4273 C 0.20794 0.9367 0.76899 0.0
C4274 C 0.21656 0.95603 0.76945 0.0
C4275 C 0.20757 0.97136 0.77125 0.0
C4276 C 0.2181 0.92003 0.7676 0.0
C4277 C 0.23043 0.91856 0.75466 0.0
C4278 C 0.21566 0.90513 0.77864 0.0
C4279 C 0.20336 0.90478 0.79281 0.0
C4280 C 0.20524 0.92036 0.80711 0.0
C4281 C 0.1935 0.91988 0.82042 0.0
C4282 C 0.17992 0.90384 0.81965 0.0
C4283 C 0.17808 0.88821 0.80558 0.0
C4284 C 0.18975 0.88864 0.79222 0.0
C4285 C 0.27658 0.86155 0.7618 0.0
C4286 C 0.26875 0.84236 0.76305 0.0
C4287 C 0.26681 0.87617 0.76187 0.0
C4288 C 0.24849 0.87277 0.76339 0.0
C4289 C 0.24069 0.85357 0.76472 0.0
C4290 C 0.25041 0.83887 0.76438 0.0
C4291 C 0.2378 0.88895 0.76407 0.0
C4292 C 0.22531 0.89031 0.77682 0.0
C4293 C 0.23971 0.90337 0.75244 0.0
C4294 C 0.25 0.90208 0.73645 0.0
C4295 C 0.24657 0.88528 0.72332 0.0
C4296 C 0.25562 0.88438 0.70771 0.0
C4297 C 0.26803 0.90024 0.70498 0.0
C4298 C 0.27145 0.91703 0.71788 0.0
C4299 C 0.26248 0.91799 0.73354 0.0
H4300 H 0.27495 0.89955 0.69283 0.0
H4301 H 0.17085 0.90349 0.82999 0.0
H4302 H 0.35948 0.92921 0.03603 0.0
H4303 H 0.39075 0.94561 0.04054 0.0
H4304 H 0.38055 0.97857 0.99794 0.0
H4305 H 0.34968 0.96273 0.99365 0.0
H4306 H 0.41192 0.95987 0.99722 0.0
H4307 H 0.37696 0.99621 0.04115 0.0
H4308 H 0.36488 1.00074 0.07109 0.0
H4309 H 0.41275 0.99423 0.09987 0.0
H4310 H 0.42498 0.98952 0.07007 0.0
H4311 H 0.46493 0.03642 0.97905 0.0
H4312 H 0.43536 0.02171 0.98483 0.0
H4313 H 0.45337 0.03011 0.04358 0.0
H4314 H 0.4813 0.04758 0.03826 0.0
H4315 H 0.42375 0.01972 0.04255 0.0
H4316 H 0.4629 0.99114 1.00411 0.0
H4317 H 0.4787 0.98748 0.97653 0.0
H4318 H 0.43003 0.97578 0.94078 0.0
H4319 H 0.41401 0.9795 0.96812 0.0
C4320 C 0.36412 0.93982 0.02754 0.0
C4321 C 0.35246 0.94495 0.01456 0.0
C4322 C 0.3818 0.94904 0.03013 0.0
C4323 C 0.38764 0.963 0.01945 0.0
C4324 C 0.37606 0.96762 0.00614 0.0
C4325 C 0.35852 0.95872 1.00378 0.0
C4326 C 0.40544 0.97433 0.02243 0.0
C4327 C 0.41516 0.97279 0.00745 0.0
C4328 C 0.40968 0.99077 0.03598 0.0
C4329 C 0.40167 0.99212 0.05345 0.0
C4330 C 0.38474 0.99542 0.05385 0.0
C4331 C 0.37792 0.99811 0.07079 0.0
C4332 C 0.38799 0.99765 0.08736 0.0
C4333 C 0.4049 0.99445 0.08703 0.0
C4334 C 0.41176 0.99172 0.07013 0.0
C4335 C 0.46217 0.036 0.99324 0.0
C4336 C 0.47562 0.04132 0.00813 0.0
C4337 C 0.4454 0.02742 0.99653 0.0
C4338 C 0.44287 0.02298 0.0143 0.0
C4339 C 0.45517 0.03238 0.02951 0.0
C4340 C 0.47142 0.04208 0.0264 0.0
C4341 C 0.43008 1.0059 0.01668 0.0
C4342 C 0.42153 1.00661 0.03269 0.0
C4343 C 0.42767 0.98833 0.00446 0.0
C4344 C 0.43732 0.9857 0.98811 0.0
C4345 C 0.45561 0.98774 0.99035 0.0
C4346 C 0.46459 0.9857 0.97477 0.0
C4347 C 0.45538 0.98142 0.95692 0.0
C4348 C 0.43715 0.9791 0.9546 0.0
C4349 C 0.42812 0.98115 0.97012 0.0
H4350 H 0.46235 0.97989 0.94488 0.0
H4351 H 0.38273 0.99987 0.10047 0.0
H4352 H 0.91156 0.57417 0.75745 0.0
H4353 H 0.89248 0.59149 0.74247 0.0
H4354 H 0.86493 0.59499 0.79105 0.0
H4355 H 0.8831 0.57609 0.80531 0.0
H4356 H 0.84283 0.58569 0.76121 0.0
H4357 H 0.89835 0.63347 0.78016 0.0
H4358 H 0.93034 0.64352 0.77967 0.0
H4359 H 0.9227 0.63763 0.72016 0.0
H4360 H 0.89069 0.62737 0.72031 0.0
H4361 H 0.80884 0.6651 0.76963 0.0
H4362 H 0.82661 0.6417 0.77136 0.0
H4363 H 0.83697 0.64399 0.71467 0.0
H4364 H 0.81924 0.66793 0.71295 0.0
H4365 H 0.86678 0.64632 0.73941 0.0
H4366 H 0.81044 0.60497 0.72179 0.0
H4367 H 0.77869 0.59294 0.72214 0.0
H4368 H 0.7878 0.58581 0.77911 0.0
H4369 H 0.81958 0.59797 0.77916 0.0
C4370 C 0.90161 0.57901 0.76498 0.0
C4371 C 0.89886 0.5744 0.78258 0.0
C4372 C 0.89073 0.5888 0.75644 0.0
C4373 C 0.87756 0.5948 0.76582 0.0
C4374 C 0.87507 0.59045 0.78363 0.0
C4375 C 0.8855 0.57997 0.79185 0.0
C4376 C 0.8662 0.60552 0.75715 0.0
C4377 C 0.84803 0.599 0.75653 0.0
C4378 C 0.87307 0.62231 0.75016 0.0
C4379 C 0.89218 0.62963 0.75024 0.0
C4380 C 0.90351 0.6344 0.76699 0.0
C4381 C 0.92164 0.64008 0.76676 0.0
C4382 C 0.92855 0.6412 0.74989 0.0
C4383 C 0.91734 0.63677 0.73321 0.0
C4384 C 0.8992 0.63107 0.73336 0.0
C4385 C 0.81499 0.66071 0.75758 0.0
C4386 C 0.8128 0.66827 0.74119 0.0
C4387 C 0.82494 0.64723 0.7585 0.0
C4388 C 0.83274 0.64098 0.74301 0.0
C4389 C 0.8308 0.6486 0.72664 0.0
C4390 C 0.82072 0.66214 0.72567 0.0
C4391 C 0.8435 0.62705 0.74462 0.0
C4392 C 0.86155 0.63283 0.74375 0.0
C4393 C 0.83654 0.60959 0.75034 0.0
C4394 C 0.8174 0.60242 0.75046 0.0
C4395 C 0.80566 0.60095 0.73442 0.0
C4396 C 0.78766 0.59408 0.73455 0.0
C4397 C 0.78123 0.58861 0.75064 0.0
C4398 C 0.79279 0.59002 0.76665 0.0
C4399 C 0.81081 0.59686 0.76659 0.0
H4400 H 0.76729 0.58328 0.7507 0.0
H4401 H 0.94259 0.6455 0.74973 0.0
H4402 H 0.8209 0.64456 0.99133 0.0
H4403 H 0.84578 0.63105 0.9998 0.0
H4404 H 0.8598 0.67235 0.0502 0.0
H4405 H 0.83559 0.68684 0.04089 0.0
H4406 H 0.88825 0.66647 0.03945 0.0
H4407 H 0.83635 0.62414 0.04892 0.0
H4408 H 0.80605 0.60495 0.04107 0.0
H4409 H 0.82202 0.57062 0.99599 0.0
H4410 H 0.85238 0.58977 1.0034 0.0
H4411 H 0.94501 0.60488 0.06637 0.0
H4412 H 0.92154 0.62261 0.06724 0.0
H4413 H 0.90224 0.59739 0.01031 0.0
H4414 H 0.92521 0.57961 0.0095 0.0
H4415 H 0.876 0.59609 0.03221 0.0
H4416 H 0.9288 0.64292 0.02371 0.0
H4417 H 0.95865 0.66211 0.03481 0.0
H4418 H 0.94016 0.68759 0.0835 0.0
H4419 H 0.91021 0.66836 0.0728 0.0
C4420 C 0.8294 0.65083 1.00411 0.0
C4421 C 0.82626 0.66655 0.01553 0.0
C4422 C 0.84355 0.64303 0.00907 0.0
C4423 C 0.8544 0.65023 0.02601 0.0
C4424 C 0.85161 0.66641 0.03716 0.0
C4425 C 0.83775 0.67464 0.03186 0.0
C4426 C 0.86828 0.64045 0.03206 0.0
C4427 C 0.88548 0.6511 0.03814 0.0
C4428 C 0.86475 0.6204 0.03084 0.0
C4429 C 0.84663 0.60843 0.02669 0.0
C4430 C 0.8334 0.61251 0.03732 0.0
C4431 C 0.81621 0.60165 0.03293 0.0
C4432 C 0.81211 0.58659 0.01803 0.0
C4433 C 0.82522 0.58229 0.00754 0.0
C4434 C 0.84243 0.59311 0.01185 0.0
C4435 C 0.93568 0.60315 0.05411 0.0
C4436 C 0.93704 0.59105 0.03779 0.0
C4437 C 0.92236 0.61332 0.05459 0.0
C4438 C 0.91021 0.61141 0.03878 0.0
C4439 C 0.91148 0.59912 0.02265 0.0
C4440 C 0.92473 0.5891 0.02215 0.0
C4441 C 0.89601 0.62201 0.03852 0.0
C4442 C 0.87867 0.61149 0.03374 0.0
C4443 C 0.89939 0.64212 0.04148 0.0
C4444 C 0.9173 0.65407 0.04754 0.0
C4445 C 0.93111 0.65255 0.03683 0.0
C4446 C 0.94806 0.66341 0.04306 0.0
C4447 C 0.95133 0.67599 0.05989 0.0
C4448 C 0.93763 0.67781 0.07048 0.0
C4449 C 0.92066 0.66694 0.06434 0.0
H4450 H 0.96447 0.68436 0.06469 0.0
H4451 H 0.79879 0.57823 0.01463 0.0
H4452 H 0.1718 0.08431 0.76402 0.0
H4453 H 0.1879 0.11688 0.76364 0.0
H4454 H 0.23247 0.10674 0.79591 0.0
H4455 H 0.21615 0.07409 0.79653 0.0
H4456 H 0.23096 0.14125 0.80834 0.0
H4457 H 0.22784 0.11043 0.74502 0.0
H4458 H 0.21322 0.09271 0.71452 0.0
H4459 H 0.1848 0.13617 0.70851 0.0
H4460 H 0.19904 0.15401 0.73909 0.0
H4461 H 0.29595 0.22103 0.79342 0.0
H4462 H 0.27702 0.19009 0.79428 0.0
H4463 H 0.2343 0.20607 0.76438 0.0
H4464 H 0.2535 0.2376 0.76367 0.0
H4465 H 0.23327 0.16937 0.7506 0.0
H4466 H 0.23553 0.20043 0.81212 0.0
H4467 H 0.24757 0.21832 0.84331 0.0
H4468 H 0.27494 0.17497 0.85355 0.0
H4469 H 0.2633 0.15696 0.82228 0.0
C4470 C 0.18506 0.08887 0.77107 0.0
C4471 C 0.19243 0.07602 0.78029 0.0
C4472 C 0.19448 0.10778 0.77071 0.0
C4473 C 0.21193 0.11495 0.77944 0.0
C4474 C 0.21922 0.10215 0.78889 0.0
C4475 C 0.20978 0.08319 0.78922 0.0
C4476 C 0.22236 0.13556 0.77903 0.0
C4477 C 0.23162 0.1471 0.79554 0.0
C4478 C 0.22305 0.14428 0.76271 0.0
C4479 C 0.21442 0.13349 0.7444 0.0
C4480 C 0.21838 0.11614 0.73725 0.0
C4481 C 0.21017 0.10608 0.71995 0.0
C4482 C 0.19809 0.11332 0.70961 0.0
C4483 C 0.19416 0.13059 0.71655 0.0
C4484 C 0.2023 0.14068 0.73386 0.0
C4485 C 0.28245 0.21828 0.7872 0.0
C4486 C 0.27654 0.23249 0.77871 0.0
C4487 C 0.27143 0.20024 0.78773 0.0
C4488 C 0.25376 0.19503 0.77957 0.0
C4489 C 0.2477 0.20918 0.77095 0.0
C4490 C 0.25876 0.22755 0.77069 0.0
C4491 C 0.24215 0.17492 0.77987 0.0
C4492 C 0.23268 0.16349 0.76338 0.0
C4493 C 0.24108 0.16633 0.79625 0.0
C4494 C 0.24872 0.17746 0.81475 0.0
C4495 C 0.24432 0.19484 0.82091 0.0
C4496 C 0.25102 0.20497 0.83863 0.0
C4497 C 0.26206 0.19782 0.85038 0.0
C4498 C 0.26643 0.18052 0.84441 0.0
C4499 C 0.25979 0.17035 0.82669 0.0
H4500 H 0.26718 0.20565 0.86413 0.0
H4501 H 0.19184 0.10565 0.69616 0.0
H4502 H 0.41997 0.96948 0.2946 0.0
H4503 H 0.4011 0.93743 0.2871 0.0
H4504 H 0.36424 0.95811 0.25283 0.0
H4505 H 0.38281 0.99002 0.26035 0.0
H4506 H 0.36195 0.95265 0.29574 0.0
H4507 H 0.36482 0.92624 0.23211 0.0
H4508 H 0.37952 0.915 0.20586 0.0
H4509 H 0.39382 0.87235 0.23505 0.0
H4510 H 0.37939 0.88362 0.26171 0.0
H4511 H 0.28415 0.87247 0.28035 0.0
H4512 H 0.30654 0.89863 0.2733 0.0
H4513 H 0.34482 0.88552 0.31241 0.0
H4514 H 0.32235 0.86014 0.32017 0.0
H4515 H 0.34543 0.88537 0.26431 0.0
H4516 H 0.34981 0.91937 0.33063 0.0
H4517 H 0.33145 0.92597 0.35538 0.0
H4518 H 0.30114 0.95148 0.31887 0.0
H4519 H 0.31916 0.94462 0.2938 0.0
C4520 C 0.4082 0.96692 0.28485 0.0
C4521 C 0.40222 0.982 0.27867 0.0
C4522 C 0.39769 0.94865 0.28027 0.0
C4523 C 0.38141 0.94573 0.26953 0.0
C4524 C 0.3769 0.96028 0.26099 0.0
C4525 C 0.38724 0.97849 0.2657 0.0
C4526 C 0.36706 0.93175 0.27399 0.0
C4527 C 0.35829 0.93797 0.28877 0.0
C4528 C 0.36257 0.91277 0.26491 0.0
C4529 C 0.37133 0.90601 0.24902 0.0
C4530 C 0.37133 0.91466 0.23306 0.0
C4531 C 0.37955 0.90821 0.21805 0.0
C4532 C 0.3877 0.89301 0.21878 0.0
C4533 C 0.38756 0.88416 0.23451 0.0
C4534 C 0.37935 0.89057 0.24958 0.0
C4535 C 0.2971 0.87609 0.28818 0.0
C4536 C 0.30185 0.8648 0.30077 0.0
C4537 C 0.30983 0.89048 0.28383 0.0
C4538 C 0.32708 0.89314 0.292 0.0
C4539 C 0.33141 0.88315 0.30596 0.0
C4540 C 0.31859 0.86916 0.31069 0.0
C4541 C 0.34075 0.90644 0.28593 0.0
C4542 C 0.34928 0.90011 0.2711 0.0
C4543 C 0.34515 0.92533 0.29489 0.0
C4544 C 0.33592 0.93175 0.31051 0.0
C4545 C 0.33937 0.92662 0.32801 0.0
C4546 C 0.32895 0.93026 0.34202 0.0
C4547 C 0.31517 0.93921 0.33872 0.0
C4548 C 0.31186 0.94463 0.32143 0.0
C4549 C 0.32218 0.94089 0.30732 0.0
H4550 H 0.30703 0.9419 0.34954 0.0
H4551 H 0.39408 0.88806 0.20714 0.0
H4552 H 0.55781 0.34117 0.57461 0.0
H4553 H 0.55349 0.36872 0.56073 0.0
H4554 H 0.57844 0.4059 0.61142 0.0
H4555 H 0.58203 0.37831 0.62555 0.0
H4556 H 0.5531 0.41868 0.60102 0.0
H4557 H 0.59762 0.39973 0.56731 0.0
H4558 H 0.6121 0.37907 0.54738 0.0
H4559 H 0.57037 0.37127 0.50307 0.0
H4560 H 0.55551 0.39166 0.52285 0.0
H4561 H 0.57209 0.50529 0.5638 0.0
H4562 H 0.57446 0.47624 0.57578 0.0
H4563 H 0.53554 0.44328 0.53164 0.0
H4564 H 0.53276 0.47258 0.51969 0.0
H4565 H 0.56652 0.42813 0.53763 0.0
H4566 H 0.5236 0.44995 0.57284 0.0
H4567 H 0.51203 0.47313 0.59322 0.0
H4568 H 0.55475 0.47801 0.63571 0.0
H4569 H 0.56673 0.45506 0.61545 0.0
C4570 C 0.56249 0.35523 0.58277 0.0
C4571 C 0.57035 0.35744 0.60123 0.0
C4572 C 0.56011 0.37109 0.57474 0.0
C4573 C 0.56583 0.38971 0.58479 0.0
C4574 C 0.57382 0.39186 0.6032 0.0
C4575 C 0.57597 0.376 0.6113 0.0
C4576 C 0.56303 0.40687 0.57655 0.0
C4577 C 0.55631 0.42074 0.58724 0.0
C4578 C 0.56673 0.40974 0.55835 0.0
C4579 C 0.57533 0.39699 0.54666 0.0
C4580 C 0.59142 0.39341 0.5534 0.0
C4581 C 0.59972 0.38179 0.54211 0.0
C4582 C 0.59212 0.3738 0.524 0.0
C4583 C 0.57621 0.37742 0.51713 0.0
C4584 C 0.56784 0.38899 0.52837 0.0
C4585 C 0.564 0.49189 0.55654 0.0
C4586 C 0.55226 0.49135 0.54064 0.0
C4587 C 0.56534 0.47524 0.56351 0.0
C4588 C 0.55515 0.45748 0.55471 0.0
C4589 C 0.54354 0.45679 0.53872 0.0
C4590 C 0.54193 0.47357 0.5319 0.0
C4591 C 0.55683 0.43974 0.5622 0.0
C4592 C 0.5633 0.42587 0.55138 0.0
C4593 C 0.55329 0.43706 0.5804 0.0
C4594 C 0.54616 0.45094 0.59255 0.0
C4595 C 0.53062 0.45611 0.58646 0.0
C4596 C 0.52397 0.46918 0.598 0.0
C4597 C 0.53267 0.47708 0.61573 0.0
C4598 C 0.54803 0.4719 0.62196 0.0
C4599 C 0.55476 0.45886 0.61046 0.0
H4600 H 0.5275 0.48719 0.62465 0.0
H4601 H 0.5986 0.36486 0.51526 0.0
H4602 H 0.46951 0.7802 0.36054 0.0
H4603 H 0.4423 0.78742 0.34754 0.0
H4604 H 0.41913 0.77672 0.39736 0.0
H4605 H 0.4462 0.76914 0.41018 0.0
H4606 H 0.395 0.76246 0.3702 0.0
H4607 H 0.43325 0.82392 0.38566 0.0
H4608 H 0.45987 0.84912 0.38636 0.0
H4609 H 0.45181 0.84352 0.32689 0.0
H4610 H 0.42519 0.81818 0.32583 0.0
H4611 H 0.31938 0.79855 0.3448 0.0
H4612 H 0.34732 0.79621 0.36152 0.0
H4613 H 0.37211 0.80058 0.31156 0.0
H4614 H 0.34448 0.80301 0.29506 0.0
H4615 H 0.39521 0.81955 0.34059 0.0
H4616 H 0.3571 0.75667 0.32612 0.0
H4617 H 0.32965 0.73303 0.32669 0.0
H4618 H 0.33726 0.74315 0.38637 0.0
H4619 H 0.36468 0.76699 0.38613 0.0
C4620 C 0.45859 0.77923 0.3687 0.0
C4621 C 0.4602 0.77385 0.38642 0.0
C4622 C 0.44296 0.78361 0.3613 0.0
C4623 C 0.42836 0.78296 0.37141 0.0
C4624 C 0.42994 0.77739 0.38906 0.0
C4625 C 0.44555 0.773 0.39644 0.0
C4626 C 0.41145 0.78765 0.36354 0.0
C4627 C 0.39518 0.77514 0.36402 0.0
C4628 C 0.41118 0.80405 0.35514 0.0
C4629 C 0.42733 0.81904 0.35566 0.0
C4630 C 0.43724 0.82795 0.37272 0.0
C4631 C 0.4523 0.8423 0.37319 0.0
C4632 C 0.45755 0.84789 0.35668 0.0
C4633 C 0.44773 0.83916 0.33967 0.0
C4634 C 0.43264 0.82483 0.33913 0.0
C4635 C 0.33091 0.7995 0.33754 0.0
C4636 C 0.32959 0.80114 0.31857 0.0
C4637 C 0.34692 0.79791 0.34706 0.0
C4638 C 0.36208 0.79792 0.33788 0.0
C4639 C 0.36087 0.8005 0.31917 0.0
C4640 C 0.34493 0.80192 0.30969 0.0
C4641 C 0.37889 0.79431 0.3472 0.0
C4642 C 0.39512 0.80695 0.3469 0.0
C4643 C 0.37913 0.77817 0.35595 0.0
C4644 C 0.36285 0.76366 0.35611 0.0
C4645 C 0.35287 0.75388 0.33936 0.0
C4646 C 0.33733 0.74046 0.33962 0.0
C4647 C 0.3317 0.73661 0.35656 0.0
C4648 C 0.34163 0.74615 0.37326 0.0
C4649 C 0.35718 0.75959 0.37307 0.0
H4650 H 0.31967 0.7262 0.35673 0.0
H4651 H 0.4692 0.85901 0.35707 0.0
H4652 H 0.06978 0.74245 0.12475 0.0
H4653 H 0.06388 0.70878 0.11186 0.0
H4654 H 0.04992 0.72125 0.05746 0.0
H4655 H 0.0556 0.75532 0.07044 0.0
H4656 H 0.02715 0.68809 0.0663 0.0
H4657 H 0.09022 0.71396 0.06817 0.0
H4658 H 0.11942 0.73122 0.08399 0.0
H4659 H 0.11621 0.69263 0.12341 0.0
H4660 H 0.08694 0.67528 0.10793 0.0
H4661 H 0.03142 0.59878 0.01652 0.0
H4662 H 0.03427 0.6326 0.02809 0.0
H4663 H 0.0629 0.62664 0.07924 0.0
H4664 H 0.0613 0.59332 0.06692 0.0
H4665 H 0.07738 0.65704 0.07182 0.0
H4666 H 0.0165 0.63067 0.07324 0.0
H4667 H 0.98648 0.61247 0.06104 0.0
H4668 H 0.98351 0.64944 0.02076 0.0
H4669 H 0.01349 0.66783 0.03267 0.0
C4670 C 0.06547 0.73812 0.11002 0.0
C4671 C 0.06341 0.75164 0.09857 0.0
C4672 C 0.06205 0.7188 0.10268 0.0
C4673 C 0.05663 0.71248 0.08366 0.0
C4674 C 0.05412 0.72583 0.07218 0.0
C4675 C 0.05752 0.74529 0.07957 0.0
C4676 C 0.05461 0.69208 0.07579 0.0
C4677 C 0.03814 0.68127 0.06726 0.0
C4678 C 0.06875 0.68301 0.07775 0.0
C4679 C 0.08638 0.69341 0.08695 0.0
C4680 C 0.09572 0.70924 0.08026 0.0
C4681 C 0.11228 0.71902 0.08916 0.0
C4682 C 0.11965 0.71304 0.10471 0.0
C4683 C 0.11049 0.69725 0.11137 0.0
C4684 C 0.09394 0.68742 0.10253 0.0
C4685 C 0.0386 0.6049 0.03008 0.0
C4686 C 0.04643 0.59368 0.04072 0.0
C4687 C 0.03995 0.62413 0.03686 0.0
C4688 C 0.04846 0.63225 0.05478 0.0
C4689 C 0.05632 0.62089 0.06535 0.0
C4690 C 0.05551 0.60186 0.05829 0.0
C4691 C 0.04983 0.65269 0.0623 0.0
C4692 C 0.06624 0.66362 0.07081 0.0
C4693 C 0.03543 0.66158 0.0609 0.0
C4694 C 0.01731 0.65059 0.0538 0.0
C4695 C 0.00947 0.63489 0.06174 0.0
C4696 C 0.99244 0.62455 0.0549 0.0
C4697 C 0.98308 0.62984 0.04018 0.0
C4698 C 0.99074 0.64543 0.03223 0.0
C4699 C 0.00773 0.65584 0.03905 0.0
H4700 H 0.9699 0.6219 0.03493 0.0
H4701 H 0.13248 0.72063 0.11157 0.0
H4702 H 0.05443 0.2541 0.87305 0.0
H4703 H 0.08384 0.25899 0.8629 0.0
H4704 H 0.09984 0.31203 0.90088 0.0
H4705 H 0.0706 0.30706 0.91127 0.0
H4706 H 0.11115 0.31601 0.86713 0.0
H4707 H 0.11601 0.27665 0.91146 0.0
H4708 H 0.10829 0.24972 0.92837 0.0
H4709 H 0.11116 0.21071 0.87957 0.0
H4710 H 0.11868 0.23743 0.86229 0.0
H4711 H 0.19994 0.32289 0.84428 0.0
H4712 H 0.17442 0.32245 0.86144 0.0
H4713 H 0.15154 0.26515 0.83371 0.0
H4714 H 0.1771 0.26536 0.8171 0.0
H4715 H 0.14584 0.2666 0.86742 0.0
H4716 H 0.13985 0.31091 0.82341 0.0
H4717 H 0.14929 0.34056 0.81075 0.0
H4718 H 0.1512 0.37344 0.86471 0.0
H4719 H 0.14197 0.34398 0.8777 0.0
C4720 C 0.06419 0.26683 0.8792 0.0
C4721 C 0.06005 0.2802 0.89292 0.0
C4722 C 0.08107 0.26958 0.87346 0.0
C4723 C 0.09422 0.28589 0.88112 0.0
C4724 C 0.09003 0.29936 0.89468 0.0
C4725 C 0.07325 0.29646 0.90063 0.0
C4726 C 0.11219 0.28885 0.87481 0.0
C4727 C 0.1188 0.30526 0.86735 0.0
C4728 C 0.12251 0.27516 0.87538 0.0
C4729 C 0.11769 0.259 0.88552 0.0
C4730 C 0.1148 0.26231 0.90427 0.0
C4731 C 0.11051 0.24709 0.91394 0.0
C4732 C 0.10918 0.22851 0.90504 0.0
C4733 C 0.11216 0.22511 0.88644 0.0
C4734 C 0.11645 0.24028 0.8767 0.0
C4735 C 0.18945 0.3102 0.84182 0.0
C4736 C 0.19073 0.29414 0.82924 0.0
C4737 C 0.17473 0.30998 0.85161 0.0
C4738 C 0.16064 0.29386 0.84878 0.0
C4739 C 0.16206 0.27782 0.83634 0.0
C4740 C 0.17682 0.27793 0.8268 0.0
C4741 C 0.14441 0.29324 0.85859 0.0
C4742 C 0.13818 0.27732 0.86702 0.0
C4743 C 0.13472 0.30769 0.85937 0.0
C4744 C 0.14041 0.32528 0.85152 0.0
C4745 C 0.14241 0.32447 0.83257 0.0
C4746 C 0.1477 0.34124 0.82534 0.0
C4747 C 0.15088 0.35887 0.83692 0.0
C4748 C 0.14877 0.35978 0.85576 0.0
C4749 C 0.14351 0.34307 0.86305 0.0
H4750 H 0.15495 0.37183 0.83129 0.0
H4751 H 0.10587 0.21674 0.91255 0.0
H4752 H 0.5958 0.78082 0.93882 0.0
H4753 H 0.58707 0.75025 0.94972 0.0
H4754 H 0.5508 0.72839 0.89986 0.0
H4755 H 0.55942 0.75861 0.88889 0.0
H4756 H 0.53639 0.72116 0.93218 0.0
H4757 H 0.58581 0.71303 0.90143 0.0
H4758 H 0.61603 0.72293 0.89383 0.0
H4759 H 0.63626 0.72432 0.95053 0.0
H4760 H 0.60611 0.71464 0.95851 0.0
H4761 H 0.52126 0.62714 0.95735 0.0
H4762 H 0.52637 0.65382 0.93979 0.0
H4763 H 0.57188 0.68181 0.97904 0.0
H4764 H 0.56728 0.6549 0.99576 0.0
H4765 H 0.58004 0.68342 0.94642 0.0
H4766 H 0.5287 0.6937 0.97693 0.0
H4767 H 0.49786 0.68692 0.98336 0.0
H4768 H 0.48042 0.68234 0.92534 0.0
H4769 H 0.51114 0.68885 0.91854 0.0
C4770 C 0.586 0.76946 0.93024 0.0
C4771 C 0.57834 0.77197 0.91304 0.0
C4772 C 0.58106 0.75208 0.93642 0.0
C4773 C 0.56837 0.7372 0.92548 0.0
C4774 C 0.56059 0.73978 0.90843 0.0
C4775 C 0.56562 0.757 0.90219 0.0
C4776 C 0.5632 0.71884 0.93182 0.0
C4777 C 0.5458 0.71268 0.93512 0.0
C4778 C 0.57555 0.70793 0.93538 0.0
C4779 C 0.59372 0.71319 0.93058 0.0
C4780 C 0.59671 0.71551 0.91229 0.0
C4781 C 0.61381 0.72108 0.90791 0.0
C4782 C 0.62805 0.72428 0.9217 0.0
C4783 C 0.62521 0.72183 0.93987 0.0
C4784 C 0.60812 0.71626 0.94432 0.0
C4785 C 0.53229 0.63908 0.96208 0.0
C4786 C 0.54396 0.63915 0.97773 0.0
C4787 C 0.53515 0.65431 0.95219 0.0
C4788 C 0.54946 0.66988 0.95818 0.0
C4789 C 0.56084 0.66992 0.97406 0.0
C4790 C 0.55821 0.65463 0.98364 0.0
C4791 C 0.55326 0.68603 0.94788 0.0
C4792 C 0.57047 0.69171 0.94348 0.0
C4793 C 0.54061 0.69639 0.94316 0.0
C4794 C 0.5222 0.69144 0.94721 0.0
C4795 C 0.51828 0.69096 0.96552 0.0
C4796 C 0.50082 0.68724 0.96924 0.0
C4797 C 0.48719 0.68412 0.95476 0.0
C4798 C 0.49098 0.68468 0.93653 0.0
C4799 C 0.5084 0.68836 0.93274 0.0
H4800 H 0.47369 0.68134 0.95768 0.0
H4801 H 0.64129 0.72863 0.91829 0.0
H4802 H 0.04172 0.77328 0.70943 0.0
H4803 H 0.07227 0.77852 0.72321 0.0
H4804 H 0.0888 0.77284 0.66837 0.0
H4805 H 0.05847 0.76743 0.65455 0.0
H4806 H 0.102 0.75099 0.69044 0.0
H4807 H 0.09596 0.81566 0.69395 0.0
H4808 H 0.08187 0.84226 0.70274 0.0
H4809 H 0.09194 0.83786 0.76037 0.0
H4810 H 0.10587 0.81102 0.75187 0.0
H4811 H 0.19236 0.77896 0.70984 0.0
H4812 H 0.1628 0.78096 0.69864 0.0
H4813 H 0.14994 0.7877 0.75497 0.0
H4814 H 0.17984 0.78643 0.76641 0.0
H4815 H 0.13447 0.80901 0.73357 0.0
H4816 H 0.14114 0.74453 0.72975 0.0
H4817 H 0.15421 0.71721 0.7206 0.0
H4818 H 0.14215 0.72062 0.66302 0.0
H4819 H 0.12928 0.74819 0.67184 0.0
C4820 C 0.05192 0.77324 0.70038 0.0
C4821 C 0.04784 0.76992 0.68098 0.0
C4822 C 0.06928 0.7763 0.70823 0.0
C4823 C 0.08263 0.77616 0.69673 0.0
C4824 C 0.07857 0.77299 0.67739 0.0
C4825 C 0.06129 0.76992 0.66956 0.0
C4826 C 0.10087 0.77854 0.7047 0.0
C4827 C 0.1092 0.76375 0.69969 0.0
C4828 C 0.10991 0.79499 0.71712 0.0
C4829 C 0.10178 0.81124 0.72227 0.0
C4830 C 0.09505 0.82028 0.70848 0.0
C4831 C 0.08711 0.83541 0.71341 0.0
C4832 C 0.08597 0.84171 0.7321 0.0
C4833 C 0.09282 0.83294 0.7459 0.0
C4834 C 0.10074 0.81779 0.74104 0.0
C4835 C 0.18342 0.78146 0.71989 0.0
C4836 C 0.18822 0.78231 0.73897 0.0
C4837 C 0.16653 0.78244 0.71346 0.0
C4838 C 0.15422 0.78401 0.726 0.0
C4839 C 0.15932 0.78629 0.74514 0.0
C4840 C 0.17627 0.78542 0.75162 0.0
C4841 C 0.13571 0.78159 0.719 0.0
C4842 C 0.12728 0.79626 0.72429 0.0
C4843 C 0.12652 0.765 0.70677 0.0
C4844 C 0.13444 0.74856 0.70147 0.0
C4845 C 0.14145 0.73958 0.71514 0.0
C4846 C 0.14879 0.72403 0.71001 0.0
C4847 C 0.14906 0.71722 0.69124 0.0
C4848 C 0.14197 0.72594 0.67755 0.0
C4849 C 0.13466 0.74153 0.68261 0.0
H4850 H 0.15472 0.70515 0.6873 0.0
H4851 H 0.07981 0.85342 0.7359 0.0
H4852 H 0.08122 0.38593 0.39148 0.0
H4853 H 0.06837 0.41219 0.40309 0.0
H4854 H 0.08191 0.40419 0.4594 0.0
H4855 H 0.09373 0.37689 0.44766 0.0
H4856 H 0.04994 0.40715 0.45521 0.0
H4857 H 0.10384 0.44221 0.43619 0.0
H4858 H 0.12451 0.45104 0.4137 0.0
H4859 H 0.08413 0.46705 0.38026 0.0
H4860 H 0.06314 0.45797 0.40238 0.0
H4861 H 0.05855 0.49465 0.51146 0.0
H4862 H 0.06343 0.46713 0.49126 0.0
H4863 H 0.02771 0.4765 0.44721 0.0
H4864 H 0.02202 0.5037 0.46785 0.0
H4865 H 0.0647 0.47211 0.43934 0.0
H4866 H 0.0122 0.44121 0.45996 0.0
H4867 H 0.99158 0.43369 0.4828 0.0
H4868 H 0.02923 0.41076 0.51303 0.0
H4869 H 0.05021 0.41846 0.49054 0.0
C4870 C 0.08181 0.39003 0.40637 0.0
C4871 C 0.08861 0.37953 0.41875 0.0
C4872 C 0.07444 0.40507 0.41298 0.0
C4873 C 0.07433 0.41032 0.43212 0.0
C4874 C 0.08182 0.40033 0.44454 0.0
C4875 C 0.08872 0.38489 0.4379 0.0
C4876 C 0.06561 0.4255 0.43929 0.0
C4877 C 0.05331 0.42138 0.4518 0.0
C4878 C 0.0692 0.4438 0.43407 0.0
C4879 C 0.08187 0.44919 0.42082 0.0
C4880 C 0.09933 0.44745 0.42396 0.0
C4881 C 0.11111 0.45252 0.41128 0.0
C4882 C 0.10562 0.45954 0.39553 0.0
C4883 C 0.08835 0.46155 0.39243 0.0
C4884 C 0.07651 0.45644 0.40502 0.0
C4885 C 0.05162 0.49078 0.49753 0.0
C4886 C 0.04012 0.50139 0.49106 0.0
C4887 C 0.05441 0.4751 0.48604 0.0
C4888 C 0.04596 0.46997 0.46783 0.0
C4889 C 0.03435 0.48041 0.46126 0.0
C4890 C 0.03119 0.4959 0.47299 0.0
C4891 C 0.04993 0.45387 0.45584 0.0
C4892 C 0.06119 0.45775 0.44239 0.0
C4893 C 0.04541 0.43535 0.46013 0.0
C4894 C 0.03281 0.43052 0.47362 0.0
C4895 C 0.01614 0.4347 0.47156 0.0
C4896 C 1.00437 0.43039 0.48443 0.0
C4897 C 0.0091 0.42178 0.49938 0.0
C4898 C 0.02559 0.41743 0.50145 0.0
C4899 C 0.03741 0.42175 0.48863 0.0
H4900 H 0.99997 0.41844 0.50933 0.0
H4901 H 0.11476 0.46348 0.38574 0.0
H4902 H 0.46747 0.28058 0.20913 0.0
H4903 H 0.44154 0.2798 0.22532 0.0
H4904 H 0.41191 0.23432 0.18272 0.0
H4905 H 0.43758 0.23611 0.16585 0.0
H4906 H 0.39351 0.25736 0.18852 0.0
H4907 H 0.42354 0.22723 0.22953 0.0
H4908 H 0.44721 0.22077 0.25033 0.0
H4909 H 0.45053 0.27373 0.28612 0.0
H4910 H 0.42693 0.28054 0.26545 0.0
H4911 H 0.32246 0.23785 0.24194 0.0
H4912 H 0.34948 0.23427 0.22934 0.0
H4913 H 0.37406 0.29244 0.25298 0.0
H4914 H 0.34696 0.29639 0.26555 0.0
H4915 H 0.39392 0.26148 0.25679 0.0
H4916 H 0.35657 0.2847 0.21245 0.0
H4917 H 0.3282 0.28062 0.1934 0.0
H4918 H 0.33556 0.22896 0.16232 0.0
H4919 H 0.36345 0.23206 0.18195 0.0
C4920 C 0.45541 0.27038 0.20334 0.0
C4921 C 0.45429 0.25853 0.18628 0.0
C4922 C 0.44067 0.26978 0.21267 0.0
C4923 C 0.42485 0.25682 0.20535 0.0
C4924 C 0.42397 0.2445 0.18856 0.0
C4925 C 0.43856 0.24552 0.17895 0.0
C4926 C 0.4089 0.25724 0.21442 0.0
C4927 C 0.39357 0.25793 0.20342 0.0
C4928 C 0.40893 0.25802 0.23383 0.0
C4929 C 0.42366 0.25449 0.24584 0.0
C4930 C 0.42949 0.2376 0.24171 0.0
C4931 C 0.44282 0.23384 0.25352 0.0
C4932 C 0.45041 0.24686 0.2695 0.0
C4933 C 0.44467 0.26368 0.27372 0.0
C4934 C 0.4313 0.26748 0.26198 0.0
C4935 C 0.3337 0.24979 0.24485 0.0
C4936 C 0.33262 0.26745 0.25466 0.0
C4937 C 0.34903 0.24771 0.23754 0.0
C4938 C 0.36343 0.26318 0.24013 0.0
C4939 C 0.36287 0.28045 0.25089 0.0
C4940 C 0.34746 0.28264 0.25804 0.0
C4941 C 0.37887 0.26156 0.23089 0.0
C4942 C 0.39404 0.26082 0.2419 0.0
C4943 C 0.37834 0.25961 0.21137 0.0
C4944 C 0.36199 0.25844 0.19897 0.0
C4945 C 0.35203 0.2723 0.20177 0.0
C4946 C 0.33598 0.27011 0.19091 0.0
C4947 C 0.33002 0.25446 0.17675 0.0
C4948 C 0.34013 0.241 0.17338 0.0
C4949 C 0.35601 0.24291 0.18446 0.0
H4950 H 0.31762 0.25284 0.1683 0.0
H4951 H 0.46071 0.2439 0.27865 0.0
H4952 H 0.65884 0.52566 0.34865 0.0
H4953 H 0.64529 0.52848 0.37758 0.0
H4954 H 0.59458 0.51912 0.34596 0.0
H4955 H 0.60824 0.51632 0.31691 0.0
H4956 H 0.59271 0.54292 0.37441 0.0
H4957 H 0.61054 0.48529 0.37429 0.0
H4958 H 0.63003 0.46283 0.3727 0.0
H4959 H 0.66311 0.4966 0.42072 0.0
H4960 H 0.6439 0.51941 0.42245 0.0
H4961 H 0.54359 0.53157 0.45276 0.0
H4962 H 0.55751 0.52766 0.42442 0.0
H4963 H 0.60779 0.53793 0.45707 0.0
H4964 H 0.59357 0.54145 0.48589 0.0
H4965 H 0.61013 0.5137 0.42805 0.0
H4966 H 0.58996 0.57158 0.42663 0.0
H4967 H 0.57032 0.59361 0.42475 0.0
H4968 H 0.53934 0.55648 0.37719 0.0
H4969 H 0.5588 0.53416 0.37889 0.0
C4970 C 0.64475 0.52409 0.34763 0.0
C4971 C 0.63498 0.52064 0.32972 0.0
C4972 C 0.63679 0.5256 0.36457 0.0
C4973 C 0.61842 0.52383 0.36493 0.0
C4974 C 0.60865 0.5206 0.34698 0.0
C4975 C 0.61661 0.5189 0.32998 0.0
C4976 C 0.60965 0.52569 0.38361 0.0
C4977 C 0.5965 0.53616 0.3859 0.0
C4978 C 0.61414 0.51748 0.39954 0.0
C4979 C 0.62593 0.50414 0.39837 0.0
C4980 C 0.62208 0.48802 0.3844 0.0
C4981 C 0.63304 0.47521 0.38349 0.0
C4982 C 0.64783 0.47831 0.39657 0.0
C4983 C 0.65167 0.49424 0.41058 0.0
C4984 C 0.64075 0.50711 0.41153 0.0
C4985 C 0.55767 0.53302 0.45424 0.0
C4986 C 0.56705 0.53689 0.47245 0.0
C4987 C 0.56586 0.53094 0.43755 0.0
C4988 C 0.58424 0.53289 0.43755 0.0
C4989 C 0.5937 0.53631 0.45577 0.0
C4990 C 0.58541 0.53829 0.47265 0.0
C4991 C 0.59316 0.53104 0.41892 0.0
C4992 C 0.60635 0.52051 0.4166 0.0
C4993 C 0.58842 0.53887 0.40276 0.0
C4994 C 0.57572 0.55116 0.40301 0.0
C4995 C 0.57877 0.56797 0.41599 0.0
C4996 C 0.56771 0.58056 0.41487 0.0
C4997 C 0.5536 0.57648 0.40078 0.0
C4998 C 0.5503 0.55963 0.38804 0.0
C4999 C 0.56132 0.54701 0.38909 0.0
H5000 H 0.54524 0.58638 0.39958 0.0
H5001 H 0.65629 0.46835 0.39587 0.0
H5002 H 0.29959 0.87565 0.05046 0.0
H5003 H 0.30774 0.86771 0.08091 0.0
H5004 H 0.319 0.92712 0.10513 0.0
H5005 H 0.31111 0.93522 0.07486 0.0
H5006 H 0.34382 0.90753 0.11794 0.0
H5007 H 0.28132 0.9028 0.11013 0.0
H5008 H 0.25232 0.89222 0.0914 0.0
H5009 H 0.25537 0.83394 0.08995 0.0
H5010 H 0.28453 0.84422 0.10849 0.0
H5011 H 0.33029 0.8876 0.21205 0.0
H5012 H 0.32893 0.9012 0.18309 0.0
H5013 H 0.32392 0.8455 0.15108 0.0
H5014 H 0.32549 0.83203 0.17957 0.0
H5015 H 0.2962 0.8661 0.14354 0.0
H5016 H 0.35891 0.87094 0.15096 0.0
H5017 H 0.38878 0.88152 0.1677 0.0
H5018 H 0.38577 0.93982 0.1693 0.0
H5019 H 0.35567 0.92955 0.15288 0.0
C5020 C 0.3037 0.88695 0.06232 0.0
C5021 C 0.30446 0.90595 0.06051 0.0
C5022 C 0.30852 0.88246 0.07955 0.0
C5023 C 0.3139 0.89692 0.09504 0.0
C5024 C 0.31498 0.9159 0.09319 0.0
C5025 C 0.31023 0.92041 0.076 0.0
C5026 C 0.31678 0.89207 0.11351 0.0
C5027 C 0.33341 0.8987 0.12374 0.0
C5028 C 0.30308 0.88058 0.12077 0.0
C5029 C 0.28508 0.87427 0.11068 0.0
C5030 C 0.27578 0.88773 0.10585 0.0
C5031 C 0.25934 0.88179 0.09523 0.0
C5032 C 0.25201 0.86241 0.08948 0.0
C5033 C 0.26106 0.84894 0.09444 0.0
C5034 C 0.27752 0.85481 0.10504 0.0
C5035 C 0.32928 0.87849 0.19878 0.0
C5036 C 0.32819 0.85893 0.19782 0.0
C5037 C 0.3285 0.88618 0.18241 0.0
C5038 C 0.32631 0.87419 0.16523 0.0
C5039 C 0.32568 0.85481 0.16435 0.0
C5040 C 0.32672 0.84723 0.18056 0.0
C5041 C 0.32334 0.88132 0.14792 0.0
C5042 C 0.30658 0.87515 0.13791 0.0
C5043 C 0.33693 0.89327 0.14095 0.0
C5044 C 0.35496 0.89948 0.15091 0.0
C5045 C 0.36452 0.88601 0.15508 0.0
C5046 C 0.38152 0.89195 0.16444 0.0
C5047 C 0.38918 0.91133 0.16951 0.0
C5048 C 0.37982 0.92481 0.16531 0.0
C5049 C 0.36279 0.91894 0.156 0.0
H5050 H 0.40234 0.9159 0.17679 0.0
H5051 H 0.23931 0.85784 0.08119 0.0
H5052 H 0.97116 0.55953 0.84618 0.0
H5053 H 0.98499 0.55307 0.87514 0.0
H5054 H 0.94197 0.50479 0.87437 0.0
H5055 H 0.92764 0.51207 0.84629 0.0
H5056 H 0.94888 0.52386 0.90685 0.0
H5057 H 0.98364 0.49848 0.86436 0.0
H5058 H 1.00134 0.49764 0.83814 0.0
H5059 H 0.03917 0.54681 0.8671 0.0
H5060 H 0.02164 0.54803 0.89341 0.0
H5061 H 1.00271 0.5067 0.98503 0.0
H5062 H 0.98353 0.50382 0.95624 0.0
H5063 H 0.01655 0.55478 0.94373 0.0
H5064 H 0.03621 0.55722 0.97217 0.0
H5065 H 0.01244 0.52524 0.9166 0.0
H5066 H 0.97304 0.55292 0.95622 0.0
H5067 H 0.95351 0.55339 0.98088 0.0
H5068 H 0.92416 0.49737 0.95672 0.0
H5069 H 0.94322 0.49674 0.93165 0.0
C5070 C 0.96472 0.5477 0.8524 0.0
C5071 C 0.94838 0.53649 0.8445 0.0
C5072 C 0.97265 0.54382 0.86866 0.0
C5073 C 0.9646 0.52819 0.87653 0.0
C5074 C 0.94833 0.51687 0.86842 0.0
C5075 C 0.94016 0.52112 0.85256 0.0
C5076 C 0.97268 0.52455 0.89397 0.0
C5077 C 0.96271 0.52375 0.90893 0.0
C5078 C 0.9906 0.5242 0.89651 0.0
C5079 C 1.00132 0.52335 0.88083 0.0
C5080 C 0.99571 0.50914 0.8651 0.0
C5081 C 1.00572 0.50859 0.85023 0.0
C5082 C 0.02137 0.52216 0.85095 0.0
C5083 C 0.02707 0.53628 0.86657 0.0
C5084 C 0.01714 0.53687 0.88149 0.0
C5085 C 1.00571 0.51738 0.97619 0.0
C5086 C 0.02097 0.532 0.98038 0.0
C5087 C 0.99469 0.51581 0.95992 0.0
C5088 C 0.99871 0.5291 0.94804 0.0
C5089 C 0.01341 0.54435 0.95282 0.0
C5090 C 0.02461 0.54571 0.9689 0.0
C5091 C 0.98895 0.5261 0.92962 0.0
C5092 C 0.99855 0.52508 0.91441 0.0
C5093 C 0.97067 0.5245 0.92685 0.0
C5094 C 0.95969 0.52468 0.94227 0.0
C5095 C 0.96253 0.54063 0.95631 0.0
C5096 C 0.95153 0.54095 0.97032 0.0
C5097 C 0.93778 0.52533 0.97054 0.0
C5098 C 0.93487 0.50942 0.95661 0.0
C5099 C 0.94571 0.50911 0.94245 0.0
H5100 H 0.92931 0.52562 0.98142 0.0
H5101 H 0.02908 0.52174 0.83941 0.0
H5102 H 0.30696 0.20015 0.56959 0.0
H5103 H 0.30884 0.21291 0.60253 0.0
H5104 H 0.27587 0.25077 0.58929 0.0
H5105 H 0.27462 0.23853 0.55603 0.0
H5106 H 0.30053 0.26828 0.61727 0.0
H5107 H 0.26048 0.20456 0.60429 0.0
H5108 H 0.25359 0.1698 0.594 0.0
H5109 H 0.29542 0.16467 0.63341 0.0
H5110 H 0.30264 0.19938 0.64379 0.0
H5111 H 0.27222 0.28733 0.70707 0.0
H5112 H 0.27246 0.27683 0.67358 0.0
H5113 H 0.30611 0.23947 0.68632 0.0
H5114 H 0.30591 0.24979 0.71937 0.0
H5115 H 0.2818 0.22179 0.65901 0.0
H5116 H 0.32338 0.27975 0.67285 0.0
H5117 H 0.33553 0.31364 0.68534 0.0
H5118 H 0.29871 0.3292 0.64692 0.0
H5119 H 0.28612 0.29532 0.6344 0.0
C5120 C 0.30025 0.21135 0.57365 0.0
C5121 C 0.29047 0.2182 0.56018 0.0
C5122 C 0.30122 0.21855 0.59256 0.0
C5123 C 0.29203 0.23242 0.59858 0.0
C5124 C 0.28294 0.23993 0.58508 0.0
C5125 C 0.28222 0.23295 0.56606 0.0
C5126 C 0.29139 0.2386 0.61887 0.0
C5127 C 0.29611 0.25811 0.62629 0.0
C5128 C 0.28658 0.22538 0.63106 0.0
C5129 C 0.28215 0.20455 0.62472 0.0
C5130 C 0.26824 0.19601 0.61068 0.0
C5131 C 0.26428 0.17632 0.60485 0.0
C5132 C 0.27407 0.16504 0.61303 0.0
C5133 C 0.28784 0.17341 0.62708 0.0
C5134 C 0.29186 0.19308 0.63295 0.0
C5135 C 0.27943 0.2767 0.70265 0.0
C5136 C 0.28908 0.26946 0.71585 0.0
C5137 C 0.27971 0.27083 0.68355 0.0
C5138 C 0.28945 0.25746 0.67739 0.0
C5139 C 0.29852 0.24978 0.69064 0.0
C5140 C 0.29842 0.25577 0.70957 0.0
C5141 C 0.29042 0.25144 0.65723 0.0
C5142 C 0.28595 0.23198 0.64991 0.0
C5143 C 0.2962 0.26462 0.64538 0.0
C5144 C 0.30364 0.285 0.65285 0.0
C5145 C 0.31774 0.29039 0.66719 0.0
C5146 C 0.32474 0.30959 0.67426 0.0
C5147 C 0.31786 0.32357 0.66697 0.0
C5148 C 0.30399 0.31835 0.65258 0.0
C5149 C 0.29692 0.29915 0.64549 0.0
H5150 H 0.3233 0.33844 0.67244 0.0
H5151 H 0.27098 0.14981 0.6085 0.0
H5152 H 0.61613 0.48521 0.21815 0.0
H5153 H 0.60215 0.48618 0.18681 0.0
H5154 H 0.6328 0.54301 0.18934 0.0
H5155 H 0.64705 0.54187 0.22013 0.0
H5156 H 0.59896 0.54134 0.17562 0.0
H5157 H 0.64075 0.50325 0.16166 0.0
H5158 H 0.65484 0.47599 0.16019 0.0
H5159 H 0.6064 0.43839 0.13439 0.0
H5160 H 0.59192 0.46536 0.13608 0.0
H5161 H 0.57849 0.55651 0.08235 0.0
H5162 H 0.59181 0.55316 0.11275 0.0
H5163 H 0.57189 0.49245 0.09993 0.0
H5164 H 0.55959 0.49579 0.06893 0.0
H5165 H 0.59919 0.49499 0.11934 0.0
H5166 H 0.55609 0.52975 0.13418 0.0
H5167 H 0.54018 0.55549 0.13395 0.0
H5168 H 0.58723 0.59665 0.15794 0.0
H5169 H 0.60347 0.57116 0.15806 0.0
C5170 C 0.61997 0.49794 0.2121 0.0
C5171 C 0.63294 0.51347 0.2222 0.0
C5172 C 0.61194 0.49848 0.19389 0.0
C5173 C 0.61622 0.5147 0.18504 0.0
C5174 C 0.62897 0.53021 0.19531 0.0
C5175 C 0.63724 0.52952 0.2132 0.0
C5176 C 0.60737 0.51598 0.16559 0.0
C5177 C 0.59923 0.53119 0.16336 0.0
C5178 C 0.60678 0.50262 0.14914 0.0
C5179 C 0.61518 0.48629 0.14933 0.0
C5180 C 0.63301 0.48912 0.15603 0.0
C5181 C 0.64109 0.47373 0.15507 0.0
C5182 C 0.6315 0.45546 0.14729 0.0
C5183 C 0.61379 0.45253 0.14051 0.0
C5184 C 0.60564 0.46785 0.14151 0.0
C5185 C 0.5768 0.54239 0.08594 0.0
C5186 C 0.56762 0.5265 0.07278 0.0
C5187 C 0.58439 0.54043 0.10373 0.0
C5188 C 0.58274 0.52251 0.1097 0.0
C5189 C 0.57363 0.50659 0.0964 0.0
C5190 C 0.56638 0.50852 0.07842 0.0
C5191 C 0.59068 0.52033 0.12931 0.0
C5192 C 0.5987 0.50504 0.13159 0.0
C5193 C 0.59071 0.53327 0.14594 0.0
C5194 C 0.58102 0.54859 0.14595 0.0
C5195 C 0.56306 0.54431 0.1393 0.0
C5196 C 0.55398 0.55885 0.13919 0.0
C5197 C 0.5627 0.5777 0.14588 0.0
C5198 C 0.5805 0.58204 0.15273 0.0
C5199 C 0.58965 0.56756 0.15283 0.0
H5200 H 0.55565 0.58894 0.14578 0.0
H5201 H 0.63782 0.44359 0.14645 0.0
H5202 H 0.30459 0.9201 0.94517 0.0
H5203 H 0.3117 0.90547 0.91558 0.0
H5204 H 0.30839 0.8524 0.93617 0.0
H5205 H 0.30139 0.86697 0.966 0.0
H5206 H 0.33667 0.86237 0.91286 0.0
H5207 H 0.27383 0.85648 0.91459 0.0
H5208 H 0.24869 0.87059 0.92125 0.0
H5209 H 0.26087 0.90739 0.88099 0.0
H5210 H 0.28633 0.89371 0.87438 0.0
H5211 H 0.30466 0.78978 0.83369 0.0
H5212 H 0.31059 0.81084 0.86393 0.0
H5213 H 0.31282 0.85961 0.83627 0.0
H5214 H 0.30724 0.83889 0.80622 0.0
H5215 H 0.28805 0.85517 0.86237 0.0
H5216 H 0.34824 0.85808 0.85705 0.0
H5217 H 0.37373 0.84461 0.85044 0.0
H5218 H 0.36722 0.81435 0.89652 0.0
H5219 H 0.34146 0.82739 0.9032 0.0
C5220 C 0.30537 0.90531 0.94341 0.0
C5221 C 0.302 0.89445 0.95761 0.0
C5222 C 0.30968 0.89711 0.92665 0.0
C5223 C 0.31055 0.87796 0.9239 0.0
C5224 C 0.30788 0.86727 0.93826 0.0
C5225 C 0.30355 0.87547 0.95506 0.0
C5226 C 0.31154 0.86838 0.90521 0.0
C5227 C 0.32607 0.86067 0.90179 0.0
C5228 C 0.29782 0.86668 0.89085 0.0
C5229 C 0.28202 0.87419 0.8941 0.0
C5230 C 0.27117 0.86762 0.9072 0.0
C5231 C 0.25688 0.87555 0.91099 0.0
C5232 C 0.2532 0.88991 0.90158 0.0
C5233 C 0.26375 0.89628 0.88829 0.0
C5234 C 0.2781 0.88844 0.8845 0.0
C5235 C 0.30676 0.80501 0.83415 0.0
C5236 C 0.30537 0.81275 0.81779 0.0
C5237 C 0.31017 0.81697 0.8513 0.0
C5238 C 0.31208 0.83664 0.8521 0.0
C5239 C 0.31138 0.84443 0.83577 0.0
C5240 C 0.3082 0.83257 0.81869 0.0
C5241 C 0.31308 0.84886 0.86998 0.0
C5242 C 0.29883 0.85706 0.8733 0.0
C5243 C 0.32708 0.85104 0.88412 0.0
C5244 C 0.34284 0.84359 0.88054 0.0
C5245 C 0.35218 0.84845 0.86571 0.0
C5246 C 0.36668 0.84091 0.86195 0.0
C5247 C 0.37208 0.8286 0.87303 0.0
C5248 C 0.36302 0.82388 0.88794 0.0
C5249 C 0.34847 0.83136 0.89174 0.0
H5250 H 0.3833 0.82274 0.87009 0.0
H5251 H 0.24216 0.89607 0.90456 0.0
H5252 H 0.91257 0.49873 0.73303 0.0
H5253 H 0.9189 0.49074 0.70104 0.0
H5254 H 0.96579 0.53578 0.71218 0.0
H5255 H 0.95976 0.54366 0.74422 0.0
H5256 H 0.93852 0.53433 0.67941 0.0
H5257 H 0.97378 0.49711 0.71194 0.0
H5258 H 0.97606 0.47175 0.7304 0.0
H5259 H 0.93968 0.43112 0.68917 0.0
H5260 H 0.93705 0.45637 0.67061 0.0
H5261 H 0.00934 0.54717 0.63568 0.0
H5262 H 0.98895 0.53819 0.65771 0.0
H5263 H 0.96438 0.48643 0.62003 0.0
H5264 H 0.98539 0.49521 0.59792 0.0
H5265 H 0.96782 0.48252 0.65789 0.0
H5266 H 0.94206 0.52046 0.62093 0.0
H5267 H 0.9411 0.5469 0.60358 0.0
H5268 H 0.96006 0.58725 0.65355 0.0
H5269 H 0.96113 0.56108 0.67125 0.0
C5270 C 0.92424 0.50688 0.72858 0.0
C5271 C 0.93568 0.5219 0.7408 0.0
C5272 C 0.9278 0.50224 0.71047 0.0
C5273 C 0.94268 0.51278 0.70455 0.0
C5274 C 0.95421 0.52762 0.71677 0.0
C5275 C 0.95081 0.53206 0.73494 0.0
C5276 C 0.94623 0.50903 0.68539 0.0
C5277 C 0.94467 0.52287 0.67443 0.0
C5278 C 0.95349 0.49362 0.6789 0.0
C5279 C 0.95505 0.47858 0.69006 0.0
C5280 C 0.96615 0.48279 0.70693 0.0
C5281 C 0.96753 0.46845 0.71738 0.0
C5282 C 0.95798 0.44984 0.71099 0.0
C5283 C 0.94704 0.44554 0.69412 0.0
C5284 C 0.9456 0.45985 0.68364 0.0
C5285 C 0.99975 0.53376 0.63219 0.0
C5286 C 0.99837 0.52218 0.61491 0.0
C5287 C 0.98808 0.52871 0.64467 0.0
C5288 C 0.97475 0.51213 0.63995 0.0
C5289 C 0.97438 0.49952 0.62355 0.0
C5290 C 0.98636 0.50448 0.61107 0.0
C5291 C 0.96131 0.50867 0.65245 0.0
C5292 C 0.96083 0.49343 0.6622 0.0
C5293 C 0.95219 0.52292 0.65791 0.0
C5294 C 0.95161 0.53878 0.6474 0.0
C5295 C 0.94607 0.53497 0.62821 0.0
C5296 C 0.94551 0.54991 0.61832 0.0
C5297 C 0.95055 0.56872 0.62744 0.0
C5298 C 0.95612 0.57266 0.64651 0.0
C5299 C 0.95662 0.55778 0.6565 0.0
H5300 H 0.95013 0.58021 0.6197 0.0
H5301 H 0.95909 0.43874 0.71908 0.0
H5302 H 0.29685 0.18942 0.44068 0.0
H5303 H 0.29754 0.20131 0.41098 0.0
H5304 H 0.27405 0.24671 0.43312 0.0
H5305 H 0.27372 0.23509 0.46304 0.0
H5306 H 0.25778 0.2293 0.39822 0.0
H5307 H 0.31576 0.25696 0.42629 0.0
H5308 H 0.3452 0.25884 0.44217 0.0
H5309 H 0.35586 0.22127 0.39607 0.0
H5310 H 0.32634 0.21893 0.38002 0.0
H5311 H 0.27472 0.28804 0.32875 0.0
H5312 H 0.27444 0.27486 0.35762 0.0
H5313 H 0.29289 0.22728 0.33129 0.0
H5314 H 0.29278 0.24038 0.30191 0.0
H5315 H 0.31187 0.24546 0.36791 0.0
H5316 H 0.25234 0.21931 0.33986 0.0
H5317 H 0.22372 0.22127 0.3245 0.0
H5318 H 0.217 0.25987 0.37188 0.0
H5319 H 0.24562 0.25836 0.38741 0.0
C5320 C 0.29192 0.20201 0.43929 0.0
C5321 C 0.28521 0.21126 0.45434 0.0
C5322 C 0.29237 0.20886 0.42225 0.0
C5323 C 0.28588 0.22499 0.41963 0.0
C5324 C 0.27915 0.23425 0.43465 0.0
C5325 C 0.27901 0.22761 0.45183 0.0
C5326 C 0.28572 0.23183 0.40112 0.0
C5327 C 0.26967 0.23297 0.39174 0.0
C5328 C 0.30113 0.23651 0.39232 0.0
C5329 C 0.31874 0.23754 0.40207 0.0
C5330 C 0.32429 0.24889 0.41964 0.0
C5331 C 0.34102 0.25009 0.42864 0.0
C5332 C 0.35237 0.24012 0.42016 0.0
C5333 C 0.34703 0.22895 0.40264 0.0
C5334 C 0.3303 0.22768 0.39358 0.0
C5335 C 0.2784 0.27455 0.32895 0.0
C5336 C 0.28349 0.26511 0.31291 0.0
C5337 C 0.27832 0.26707 0.34556 0.0
C5338 C 0.28363 0.25002 0.3468 0.0
C5339 C 0.28869 0.24043 0.33075 0.0
C5340 C 0.28843 0.24778 0.31388 0.0
C5341 C 0.28391 0.24256 0.36496 0.0
C5342 C 0.29998 0.2415 0.37434 0.0
C5343 C 0.26858 0.23821 0.37389 0.0
C5344 C 0.25117 0.23882 0.36474 0.0
C5345 C 0.24478 0.2283 0.34696 0.0
C5346 C 0.22854 0.22932 0.33822 0.0
C5347 C 0.21852 0.24072 0.3472 0.0
C5348 C 0.22472 0.25105 0.36494 0.0
C5349 C 0.24094 0.2501 0.37373 0.0
H5350 H 0.20596 0.24153 0.34042 0.0
H5351 H 0.36533 0.24109 0.42714 0.0
H5352 H 0.32435 0.63151 0.49681 0.0
H5353 H 0.35115 0.62067 0.49146 0.0
H5354 H 0.35273 0.60283 0.54523 0.0
H5355 H 0.32548 0.61339 0.55049 0.0
H5356 H 0.38441 0.63008 0.53548 0.0
H5357 H 0.34267 0.56961 0.51273 0.0
H5358 H 0.31533 0.55206 0.49322 0.0
H5359 H 0.33717 0.56814 0.44449 0.0
H5360 H 0.36457 0.58604 0.46379 0.0
H5361 H 0.44773 0.57589 0.53785 0.0
H5362 H 0.42319 0.59143 0.53902 0.0
H5363 H 0.41986 0.59033 0.47973 0.0
H5364 H 0.44459 0.57479 0.47845 0.0
H5365 H 0.389 0.57531 0.48902 0.0
H5366 H 0.4308 0.63279 0.50878 0.0
H5367 H 0.45628 0.65664 0.52587 0.0
H5368 H 0.43397 0.65203 0.577 0.0
H5369 H 0.40847 0.62796 0.56028 0.0
C5370 C 0.33033 0.62499 0.50732 0.0
C5371 C 0.32318 0.62317 0.52403 0.0
C5372 C 0.34551 0.61887 0.50427 0.0
C5373 C 0.35372 0.61112 0.51802 0.0
C5374 C 0.34636 0.60884 0.53457 0.0
C5375 C 0.3309 0.61466 0.53749 0.0
C5376 C 0.37044 0.60617 0.51528 0.0
C5377 C 0.38555 0.6179 0.52565 0.0
C5378 C 0.3716 0.59111 0.50147 0.0
C5379 C 0.35569 0.57914 0.4897 0.0
C5380 C 0.34166 0.56936 0.49784 0.0
C5381 C 0.32614 0.55939 0.48684 0.0
C5382 C 0.32451 0.55898 0.46762 0.0
C5383 C 0.33846 0.56844 0.45938 0.0
C5384 C 0.35402 0.57846 0.47034 0.0
C5385 C 0.44211 0.5794 0.52512 0.0
C5386 C 0.44795 0.57392 0.50802 0.0
C5387 C 0.42808 0.58831 0.52581 0.0
C5388 C 0.41975 0.59203 0.50945 0.0
C5389 C 0.4261 0.58747 0.49248 0.0
C5390 C 0.44014 0.57853 0.49177 0.0
C5391 C 0.40331 0.5987 0.51001 0.0
C5392 C 0.3881 0.58747 0.49899 0.0
C5393 C 0.40209 0.61458 0.52297 0.0
C5394 C 0.41781 0.62837 0.53328 0.0
C5395 C 0.43144 0.63664 0.52371 0.0
C5396 C 0.44586 0.65027 0.53332 0.0
C5397 C 0.44677 0.6558 0.55251 0.0
C5398 C 0.43327 0.64771 0.56214 0.0
C5399 C 0.41883 0.63407 0.55259 0.0
H5400 H 0.45792 0.6664 0.55992 0.0
H5401 H 0.31246 0.55133 0.45913 0.0
H5402 H 0.85143 0.95092 0.53762 0.0
H5403 H 0.88106 0.96694 0.53276 0.0
H5404 H 0.8964 0.91325 0.52665 0.0
H5405 H 0.86678 0.8972 0.53153 0.0
H5406 H 0.92229 0.93926 0.54702 0.0
H5407 H 0.88971 0.93572 0.48864 0.0
H5408 H 0.86582 0.93928 0.4662 0.0
H5409 H 0.87937 0.99978 0.48385 0.0
H5410 H 0.90322 0.99657 0.50657 0.0
H5411 H 0.00591 0.98385 0.51983 0.0
H5412 H 0.97685 0.96232 0.51872 0.0
H5413 H 0.95321 0.0107 0.52581 0.0
H5414 H 0.98172 0.03184 0.52653 0.0
H5415 H 0.93188 0.98387 0.50178 0.0
H5416 H 0.96325 0.98549 0.56261 0.0
H5417 H 0.98852 0.98082 0.58245 0.0
H5418 H 0.97751 0.92199 0.55723 0.0
H5419 H 0.95236 0.9264 0.53731 0.0
C5420 C 0.86111 0.94249 0.53532 0.0
C5421 C 0.85657 0.9227 0.5351 0.0
C5422 C 0.87812 0.95169 0.53238 0.0
C5423 C 0.89123 0.94143 0.52912 0.0
C5424 C 0.88675 0.92167 0.52912 0.0
C5425 C 0.8697 0.91245 0.53192 0.0
C5426 C 0.90955 0.95134 0.526 0.0
C5427 C 0.92428 0.9488 0.53692 0.0
C5428 C 0.91261 0.9639 0.51285 0.0
C5429 C 0.89814 0.96589 0.49942 0.0
C5430 C 0.88749 0.94977 0.48786 0.0
C5431 C 0.87398 0.95173 0.47506 0.0
C5432 C 0.87105 0.96974 0.47363 0.0
C5433 C 0.88164 0.98584 0.48499 0.0
C5434 C 0.89517 0.98396 0.49781 0.0
C5435 C 0.9945 0.98984 0.52086 0.0
C5436 C 0.99636 0.00971 0.52325 0.0
C5437 C 0.97779 0.9775 0.52041 0.0
C5438 C 0.96251 0.98472 0.52235 0.0
C5439 C 0.96448 1.00451 0.52424 0.0
C5440 C 0.98101 0.01669 0.52476 0.0
C5441 C 0.94453 0.97221 0.52318 0.0
C5442 C 0.92984 0.97426 0.51182 0.0
C5443 C 0.94152 0.95907 0.53576 0.0
C5444 C 0.95607 0.95628 0.54842 0.0
C5445 C 0.96626 0.97156 0.56138 0.0
C5446 C 0.98056 0.96898 0.57264 0.0
C5447 C 0.98469 0.95116 0.57113 0.0
C5448 C 0.97438 0.93582 0.5585 0.0
C5449 C 0.96007 0.93833 0.54723 0.0
H5450 H 0.99591 0.94933 0.57971 0.0
H5451 H 0.86061 0.97123 0.4637 0.0
H5452 H 0.92503 0.13658 0.27389 0.0
H5453 H 0.91188 0.16433 0.27435 0.0
H5454 H 0.8604 0.12722 0.26495 0.0
H5455 H 0.87366 0.09954 0.26381 0.0
H5456 H 0.85459 0.15197 0.24885 0.0
H5457 H 0.88679 0.1658 0.3098 0.0
H5458 H 0.91187 0.17317 0.33444 0.0
H5459 H 0.93623 0.22112 0.31053 0.0
H5460 H 0.91143 0.21385 0.28559 0.0
H5461 H 0.8063 0.22581 0.26438 0.0
H5462 H 0.82114 0.19976 0.26539 0.0
H5463 H 0.87116 0.23921 0.271 0.0
H5464 H 0.85609 0.26566 0.27049 0.0
H5465 H 0.87842 0.21421 0.28907 0.0
H5466 H 0.84817 0.1971 0.22595 0.0
H5467 H 0.82302 0.18928 0.20123 0.0
H5468 H 0.79499 0.14813 0.23082 0.0
H5469 H 0.82012 0.15536 0.25543 0.0
C5470 C 0.91086 0.13412 0.27196 0.0
C5471 C 0.90078 0.11501 0.26879 0.0
C5472 C 0.90309 0.15045 0.27243 0.0
C5473 C 0.88458 0.14902 0.27003 0.0
C5474 C 0.87457 0.12983 0.26688 0.0
C5475 C 0.88234 0.11354 0.26629 0.0
C5476 C 0.87562 0.16677 0.27002 0.0
C5477 C 0.85996 0.16533 0.25806 0.0
C5478 C 0.88201 0.18531 0.28126 0.0
C5479 C 0.89737 0.18907 0.29564 0.0
C5480 C 0.89761 0.17774 0.30964 0.0
C5481 C 0.91176 0.18194 0.32369 0.0
C5482 C 0.92567 0.19755 0.324 0.0
C5483 C 0.92549 0.20898 0.31023 0.0
C5484 C 0.9114 0.2048 0.29612 0.0
C5485 C 0.8205 0.22926 0.26577 0.0
C5486 C 0.82952 0.24863 0.26725 0.0
C5487 C 0.82925 0.21385 0.26609 0.0
C5488 C 0.84785 0.21639 0.26776 0.0
C5489 C 0.85696 0.23585 0.26954 0.0
C5490 C 0.84815 0.25137 0.2692 0.0
C5491 C 0.85745 0.19918 0.268 0.0
C5492 C 0.87317 0.20076 0.27995 0.0
C5493 C 0.85117 0.18072 0.25684 0.0
C5494 C 0.83584 0.17697 0.24259 0.0
C5495 C 0.83655 0.18654 0.22723 0.0
C5496 C 0.82236 0.18216 0.21323 0.0
C5497 C 0.80735 0.16841 0.21458 0.0
C5498 C 0.80658 0.15885 0.22984 0.0
C5499 C 0.82082 0.16299 0.24375 0.0
H5500 H 0.79638 0.16507 0.20373 0.0
H5501 H 0.93656 0.20083 0.33494 0.0
H5502 H 0.72753 0.09962 0.00777 0.0
H5503 H 0.69549 0.08914 1.00071 0.0
H5504 H 0.69039 0.14664 0.01768 0.0
H5505 H 0.72212 0.15724 0.0246 0.0
H5506 H 0.67351 0.11765 0.03765 0.0
H5507 H 0.67942 0.13172 0.97598 0.0
H5508 H 0.68869 0.13008 0.94459 0.0
H5509 H 0.66592 0.0701 0.933 0.0
H5510 H 0.6568 0.0713 0.96442 0.0
H5511 H 0.58094 0.10006 0.02337 0.0
H5512 H 0.61228 0.11396 0.02353 0.0
H5513 H 0.61851 0.06103 0.99285 0.0
H5514 H 0.58706 0.04774 0.99167 0.0
H5515 H 0.63467 0.08957 0.97892 0.0
H5516 H 0.63103 0.07391 0.04051 0.0
H5517 H 0.61934 0.07465 0.07074 0.0
H5518 H 0.63711 0.13544 0.08214 0.0
H5519 H 0.64872 0.13507 0.05186 0.0
C5520 C 0.71953 0.10999 0.00981 0.0
C5521 C 0.72715 0.12912 0.01699 0.0
C5522 C 0.70138 0.10407 0.00555 0.0
C5523 C 0.69087 0.11725 0.00858 0.0
C5524 C 0.69849 0.13642 0.01514 0.0
C5525 C 0.71654 0.14236 0.01922 0.0
C5526 C 0.67195 0.11068 0.00784 0.0
C5527 C 0.66494 0.11169 0.02481 0.0
C5528 C 0.6611 0.10252 0.99108 0.0
C5529 C 0.66771 0.10156 0.97269 0.0
C5530 C 0.67671 0.11811 0.96689 0.0
C5531 C 0.68185 0.11728 0.94903 0.0
C5532 C 0.67796 0.09999 0.93683 0.0
C5533 C 0.66899 0.08347 0.94247 0.0
C5534 C 0.66386 0.08422 0.96031 0.0
C5535 C 0.58916 0.0916 0.01668 0.0
C5536 C 0.58209 0.07307 0.00748 0.0
C5537 C 0.6069 0.0994 0.01684 0.0
C5538 C 0.61758 0.08836 0.00839 0.0
C5539 C 0.61037 0.06972 0.99935 0.0
C5540 C 0.59259 0.06215 0.99872 0.0
C5541 C 0.63631 0.09619 0.00873 0.0
C5542 C 0.64328 0.09547 0.99176 0.0
C5543 C 0.64721 0.10427 0.0255 0.0
C5544 C 0.64061 0.10447 0.04389 0.0
C5545 C 0.63238 0.08744 0.04944 0.0
C5546 C 0.62577 0.08779 0.06658 0.0
C5547 C 0.62745 0.10509 0.07834 0.0
C5548 C 0.63581 0.12206 0.07302 0.0
C5549 C 0.64243 0.12179 0.05589 0.0
H5550 H 0.6223 0.10533 0.09159 0.0
H5551 H 0.68187 0.09942 0.92298 0.0
H5552 H 0.20004 0.49654 0.23237 0.0
H5553 H 0.21183 0.47008 0.24178 0.0
H5554 H 0.19044 0.47762 0.29404 0.0
H5555 H 0.17835 0.50348 0.28456 0.0
H5556 H 0.22715 0.47415 0.29472 0.0
H5557 H 0.16792 0.44475 0.26783 0.0
H5558 H 0.14319 0.43995 0.24321 0.0
H5559 H 0.17323 0.41668 0.20336 0.0
H5560 H 0.19828 0.42167 0.22772 0.0
H5561 H 0.25007 0.38711 0.31164 0.0
H5562 H 0.23297 0.41177 0.31129 0.0
H5563 H 0.23496 0.40861 0.25215 0.0
H5564 H 0.25149 0.38401 0.2524 0.0
H5565 H 0.20304 0.40876 0.26031 0.0
H5566 H 0.26311 0.44257 0.28445 0.0
H5567 H 0.29023 0.45368 0.30639 0.0
H5568 H 0.2607 0.47234 0.3492 0.0
H5569 H 0.23337 0.46106 0.3276 0.0
C5570 C 0.19799 0.4924 0.2458 0.0
C5571 C 0.18821 0.50135 0.25772 0.0
C5572 C 0.20463 0.47753 0.25112 0.0
C5573 C 0.20166 0.47215 0.26842 0.0
C5574 C 0.19258 0.48173 0.28062 0.0
C5575 C 0.18567 0.49623 0.27517 0.0
C5576 C 0.20767 0.45608 0.27367 0.0
C5577 C 0.22177 0.4597 0.28759 0.0
C5578 C 0.20034 0.43762 0.26409 0.0
C5579 C 0.18499 0.43362 0.2496 0.0
C5580 C 0.16927 0.43865 0.25381 0.0
C5581 C 0.1552 0.43591 0.2399 0.0
C5582 C 0.15664 0.42803 0.22173 0.0
C5583 C 0.17213 0.42277 0.21745 0.0
C5584 C 0.18626 0.42551 0.23132 0.0
C5585 C 0.24668 0.39173 0.29865 0.0
C5586 C 0.25177 0.38375 0.28202 0.0
C5587 C 0.23702 0.40568 0.29847 0.0
C5588 C 0.23277 0.41177 0.28169 0.0
C5589 C 0.23796 0.4038 0.26515 0.0
C5590 C 0.24736 0.38982 0.26531 0.0
C5591 C 0.22327 0.4268 0.28096 0.0
C5592 C 0.20823 0.42302 0.26795 0.0
C5593 C 0.22993 0.44524 0.29124 0.0
C5594 C 0.24615 0.45053 0.30455 0.0
C5595 C 0.26235 0.44865 0.29866 0.0
C5596 C 0.27778 0.45509 0.311 0.0
C5597 C 0.27718 0.46359 0.32921 0.0
C5598 C 0.26114 0.46563 0.33514 0.0
C5599 C 0.24568 0.45918 0.32287 0.0
H5600 H 0.28915 0.46869 0.3387 0.0
H5601 H 0.14575 0.42597 0.21096 0.0
H5602 H 0.26292 0.43697 0.05586 0.0
H5603 H 0.23492 0.44672 0.05158 0.0
H5604 H 0.2197 0.40643 1.00073 0.0
H5605 H 0.24742 0.39639 0.00512 0.0
H5606 H 0.21298 0.44108 0.99643 0.0
H5607 H 0.19946 0.39614 0.03589 0.0
H5608 H 0.20206 0.37936 0.06258 0.0
H5609 H 0.1996 0.42953 0.09986 0.0
H5610 H 0.19723 0.44671 0.07339 0.0
H5611 H 0.12653 0.46266 0.99161 0.0
H5612 H 0.1507 0.44605 0.99096 0.0
H5613 H 0.17149 0.47502 0.04649 0.0
H5614 H 0.1473 0.49098 0.04735 0.0
H5615 H 0.17286 0.44049 0.04511 0.0
H5616 H 0.18819 0.48535 1.0015 0.0
H5617 H 0.18391 0.49827 0.97249 0.0
H5618 H 0.18046 0.44326 0.94042 0.0
H5619 H 0.18449 0.42999 0.96925 0.0
C5620 C 0.25363 0.43023 0.04376 0.0
C5621 C 0.25746 0.41595 0.03083 0.0
C5622 C 0.23756 0.43573 0.04137 0.0
C5623 C 0.2251 0.42727 0.02585 0.0
C5624 C 0.22904 0.41318 0.0128 0.0
C5625 C 0.24492 0.40745 0.01536 0.0
C5626 C 0.20815 0.4334 0.02312 0.0
C5627 C 0.20412 0.4408 0.00701 0.0
C5628 C 0.19635 0.43276 0.03666 0.0
C5629 C 0.19842 0.42279 0.05269 0.0
C5630 C 0.19973 0.40368 0.0498 0.0
C5631 C 0.20109 0.39407 0.06488 0.0
C5632 C 0.20106 0.40339 0.08291 0.0
C5633 C 0.19967 0.42235 0.08589 0.0
C5634 C 0.19832 0.43203 0.07086 0.0
C5635 C 0.13631 0.46549 1.00364 0.0
C5636 C 0.13483 0.47805 0.01962 0.0
C5637 C 0.15023 0.45604 1.00323 0.0
C5638 C 0.1632 0.4593 0.01863 0.0
C5639 C 0.16172 0.47202 0.03443 0.0
C5640 C 0.14778 0.48117 0.03494 0.0
C5641 C 0.17818 0.44942 0.01896 0.0
C5642 C 0.18175 0.44096 0.03454 0.0
C5643 C 0.18931 0.44872 0.0047 0.0
C5644 C 0.1864 0.45666 0.9875 0.0
C5645 C 0.18632 0.47599 0.98826 0.0
C5646 C 0.18399 0.48338 0.97185 0.0
C5647 C 0.18186 0.47158 0.95462 0.0
C5648 C 0.18206 0.45237 0.95376 0.0
C5649 C 0.18436 0.44492 0.97012 0.0
H5650 H 0.1801 0.47735 0.94194 0.0
H5651 H 0.20207 0.39591 0.09457 0.0
H5652 H 0.87132 1.00407 0.25152 0.0
H5653 H 0.85662 0.97118 0.25306 0.0
H5654 H 0.90353 0.96341 0.28297 0.0
H5655 H 0.91837 0.99611 0.28083 0.0
H5656 H 0.89083 0.9307 0.26478 0.0
H5657 H 0.86094 0.96792 0.30271 0.0
H5658 H 0.84485 0.9928 0.31151 0.0
H5659 H 0.80352 0.9661 0.26753 0.0
H5660 H 0.81947 0.94116 0.25836 0.0
H5661 H 0.84141 0.83885 0.28568 0.0
H5662 H 0.85976 0.87096 0.28597 0.0
H5663 H 0.81608 0.88644 0.25716 0.0
H5664 H 0.79792 0.85522 0.25771 0.0
H5665 H 0.82906 0.9157 0.27771 0.0
H5666 H 0.86216 0.87713 0.24092 0.0
H5667 H 0.87976 0.85289 0.2362 0.0
H5668 H 0.91659 0.88268 0.28321 0.0
H5669 H 0.89907 0.90692 0.28836 0.0
C5670 C 0.87862 0.99549 0.25848 0.0
C5671 C 0.89631 1.00347 0.26605 0.0
C5672 C 0.87001 0.97633 0.25955 0.0
C5673 C 0.87841 0.96392 0.26854 0.0
C5674 C 0.89619 0.9719 0.27591 0.0
C5675 C 0.90483 0.99101 0.27473 0.0
C5676 C 0.86882 0.94306 0.27022 0.0
C5677 C 0.87732 0.92766 0.26772 0.0
C5678 C 0.85111 0.93797 0.27427 0.0
C5679 C 0.84146 0.95283 0.27973 0.0
C5680 C 0.84846 0.96743 0.29486 0.0
C5681 C 0.83937 0.98153 0.29992 0.0
C5682 C 0.8232 0.98106 0.29005 0.0
C5683 C 0.81606 0.96646 0.27514 0.0
C5684 C 0.82511 0.95233 0.27001 0.0
C5685 C 0.83575 0.84894 0.27912 0.0
C5686 C 0.81782 0.84367 0.27144 0.0
C5687 C 0.84643 0.86771 0.27921 0.0
C5688 C 0.83991 0.88214 0.27134 0.0
C5689 C 0.82209 0.87649 0.26355 0.0
C5690 C 0.8115 0.8581 0.26371 0.0
C5691 C 0.8507 0.90302 0.27137 0.0
C5692 C 0.84246 0.91857 0.27443 0.0
C5693 C 0.86875 0.90822 0.26828 0.0
C5694 C 0.87922 0.89369 0.26513 0.0
C5695 C 0.87396 0.87843 0.2503 0.0
C5696 C 0.88392 0.8647 0.24755 0.0
C5697 C 0.89925 0.86622 0.25943 0.0
C5698 C 0.90469 0.88149 0.27405 0.0
C5699 C 0.89475 0.89522 0.27689 0.0
H5700 H 0.90694 0.85558 0.25727 0.0
H5701 H 0.81618 0.992 0.29398 0.0
H5702 H 0.71601 0.10105 0.77341 0.0
H5703 H 0.72846 0.13484 0.78376 0.0
H5704 H 0.67647 0.14591 0.78043 0.0
H5705 H 0.66384 0.11208 0.76999 0.0
H5706 H 0.69816 0.16447 0.75845 0.0
H5707 H 0.69911 0.15731 0.82123 0.0
H5708 H 0.70352 0.14327 0.84946 0.0
H5709 H 0.75892 0.15343 0.84585 0.0
H5710 H 0.75482 0.16724 0.81737 0.0
H5711 H 0.7403 0.26199 0.78901 0.0
H5712 H 0.72163 0.2301 0.78575 0.0
H5713 H 0.7671 0.20596 0.78075 0.0
H5714 H 0.78591 0.23815 0.78366 0.0
H5715 H 0.74468 0.19643 0.81015 0.0
H5716 H 0.74215 0.19929 0.7444 0.0
H5717 H 0.73728 0.21412 0.71674 0.0
H5718 H 0.68403 0.21267 0.72702 0.0
H5719 H 0.68868 0.19807 0.75492 0.0
C5720 C 0.70725 0.11067 0.7751 0.0
C5721 C 0.68908 0.10422 0.77063 0.0
C5722 C 0.71432 0.12982 0.78129 0.0
C5723 C 0.70324 0.14254 0.78304 0.0
C5724 C 0.68505 0.13605 0.77932 0.0
C5725 C 0.67796 0.11688 0.77318 0.0
C5726 C 0.71101 0.16271 0.78523 0.0
C5727 C 0.708 0.17171 0.76999 0.0
C5728 C 0.72401 0.17171 0.80013 0.0
C5729 C 0.72661 0.16317 0.81707 0.0
C5730 C 0.71221 0.15637 0.82633 0.0
C5731 C 0.71466 0.1485 0.8424 0.0
C5732 C 0.73147 0.14741 0.84939 0.0
C5733 C 0.7459 0.15426 0.84038 0.0
C5734 C 0.74352 0.16213 0.82428 0.0
C5735 C 0.74618 0.24977 0.78711 0.0
C5736 C 0.76428 0.25197 0.78684 0.0
C5737 C 0.73561 0.23178 0.78512 0.0
C5738 C 0.74321 0.21609 0.78301 0.0
C5739 C 0.76128 0.21822 0.78232 0.0
C5740 C 0.77189 0.23632 0.784 0.0
C5741 C 0.73229 0.19756 0.78306 0.0
C5742 C 0.73465 0.18916 0.79879 0.0
C5743 C 0.71866 0.18914 0.76866 0.0
C5744 C 0.71583 0.19782 0.75185 0.0
C5745 C 0.72946 0.20231 0.74086 0.0
C5746 C 0.72673 0.21063 0.72512 0.0
C5747 C 0.71038 0.21439 0.72016 0.0
C5748 C 0.6967 0.20978 0.7309 0.0
C5749 C 0.69937 0.20147 0.74666 0.0
H5750 H 0.70829 0.22084 0.70796 0.0
H5751 H 0.73325 0.14122 0.86177 0.0
loop_
_geom_bond_atom_site_label_1
_geom_bond_atom_site_label_2
_geom_bond_distance
_geom_bond_site_symmetry_2
_ccdc_geom_bond_type
In0 O1 2.294 . S
In0 O2 2.326 . S
In0 O6 2.266 . S
In0 O7 2.326 . S
In0 O8 2.266 . S
In0 O9 2.326 . S
In0 O11 2.294 . S
In0 O12 2.326 . S
O1 In0 2.294 . S
O1 C10 1.240 . S
O2 In0 2.326 . S
O2 C10 1.252 . S
C3 O6 1.252 . S
C3 O7 1.260 . S
C4 O11 1.240 . S
C4 O12 1.252 . S
C5 O8 1.252 . S
C5 O9 1.260 . S
O6 In0 2.266 . S
O6 C3 1.252 . S
O7 In0 2.326 . S
O7 C3 1.260 . S
O8 In0 2.266 . S
O8 C5 1.252 . S
O9 In0 2.326 . S
O9 C5 1.260 . S
C10 O1 1.240 . S
C10 O2 1.252 . S
O11 In0 2.294 . S
O11 C4 1.240 . S
O12 In0 2.326 . S
O12 C4 1.252 . S
In13 O14 2.294 . S
In13 O15 2.326 . S
In13 O19 2.266 1_455 S
In13 O20 2.326 1_455 S
In13 O21 2.264 1_455 S
In13 O22 2.322 1_455 S
In13 O24 2.296 . S
In13 O25 2.330 . S
O14 In13 2.294 . S
O14 C23 1.240 . S
O15 In13 2.326 . S
O15 C23 1.252 . S
C16 O19 1.252 . S
C16 O20 1.260 . S
C17 O24 1.240 . S
C17 O25 1.252 . S
C18 O21 1.252 . S
C18 O22 1.260 . S
O19 In13 2.266 1_655 S
O19 C16 1.252 . S
O20 In13 2.326 1_655 S
O20 C16 1.260 . S
O21 In13 2.264 1_655 S
O21 C18 1.252 . S
O22 In13 2.322 1_655 S
O22 C18 1.260 . S
C23 O14 1.240 . S
C23 O15 1.252 . S
O24 In13 2.296 . S
O24 C17 1.240 . S
O25 In13 2.330 . S
O25 C17 1.252 . S
In26 O27 2.294 . S
In26 O28 2.326 . S
In26 O32 2.266 . S
In26 O33 2.326 . S
In26 O34 2.266 . S
In26 O35 2.326 . S
In26 O37 2.294 . S
In26 O38 2.326 . S
O27 In26 2.294 . S
O27 C36 1.240 . S
O28 In26 2.326 . S
O28 C36 1.252 . S
C29 O32 1.252 . S
C29 O33 1.260 . S
C30 O37 1.240 . S
C30 O38 1.252 . S
C31 O34 1.252 . S
C31 O35 1.260 . S
O32 In26 2.266 . S
O32 C29 1.252 . S
O33 In26 2.326 . S
O33 C29 1.260 . S
O34 In26 2.266 . S
O34 C31 1.252 . S
O35 In26 2.326 . S
O35 C31 1.260 . S
C36 O27 1.240 . S
C36 O28 1.252 . S
O37 In26 2.294 . S
O37 C30 1.240 . S
O38 In26 2.326 . S
O38 C30 1.252 . S
In39 O40 2.294 . S
In39 O41 2.326 . S
In39 O45 2.266 . S
In39 O46 2.326 . S
In39 O47 2.266 . S
In39 O48 2.326 . S
In39 O50 2.294 . S
In39 O51 2.326 . S
O40 In39 2.294 . S
O40 C49 1.240 . S
O41 In39 2.326 . S
O41 C49 1.252 . S
C42 O45 1.252 . S
C42 O46 1.260 . S
C43 O50 1.240 . S
C43 O51 1.252 . S
C44 O47 1.252 . S
C44 O48 1.260 . S
O45 In39 2.266 . S
O45 C42 1.252 . S
O46 In39 2.326 . S
O46 C42 1.260 . S
O47 In39 2.266 . S
O47 C44 1.252 . S
O48 In39 2.326 . S
O48 C44 1.260 . S
C49 O40 1.240 . S
C49 O41 1.252 . S
O50 In39 2.294 . S
O50 C43 1.240 . S
O51 In39 2.326 . S
O51 C43 1.252 . S
In52 O53 2.294 . S
In52 O54 2.326 . S
In52 O58 2.266 . S
In52 O59 2.326 . S
In52 O60 2.266 . S
In52 O61 2.326 . S
In52 O63 2.294 . S
In52 O64 2.326 . S
O53 In52 2.294 . S
O53 C62 1.240 . S
O54 In52 2.326 . S
O54 C62 1.252 . S
C55 O58 1.252 . S
C55 O59 1.260 . S
C56 O63 1.240 . S
C56 O64 1.252 . S
C57 O60 1.252 . S
C57 O61 1.260 . S
O58 In52 2.266 . S
O58 C55 1.252 . S
O59 In52 2.326 . S
O59 C55 1.260 . S
O60 In52 2.266 . S
O60 C57 1.252 . S
O61 In52 2.326 . S
O61 C57 1.260 . S
C62 O53 1.240 . S
C62 O54 1.252 . S
O63 In52 2.294 . S
O63 C56 1.240 . S
O64 In52 2.326 . S
O64 C56 1.252 . S
In65 O66 2.294 . S
In65 O67 2.326 . S
In65 O71 2.266 . S
In65 O72 2.326 . S
In65 O73 2.266 . S
In65 O74 2.326 . S
In65 O76 2.294 . S
In65 O77 2.326 . S
O66 In65 2.294 . S
O66 C75 1.240 . S
O67 In65 2.326 . S
O67 C75 1.252 . S
C68 O71 1.252 . S
C68 O72 1.260 . S
C69 O76 1.240 . S
C69 O77 1.252 . S
C70 O73 1.252 . S
C70 O74 1.260 . S
O71 In65 2.266 . S
O71 C68 1.252 . S
O72 In65 2.326 . S
O72 C68 1.260 . S
O73 In65 2.266 . S
O73 C70 1.252 . S
O74 In65 2.326 . S
O74 C70 1.260 . S
C75 O66 1.240 . S
C75 O67 1.252 . S
O76 In65 2.294 . S
O76 C69 1.240 . S
O77 In65 2.326 . S
O77 C69 1.252 . S
In78 O79 2.294 . S
In78 O80 2.326 . S
In78 O84 2.266 . S
In78 O85 2.326 . S
In78 O86 2.266 . S
In78 O87 2.326 . S
In78 O89 2.294 . S
In78 O90 2.326 . S
O79 In78 2.294 . S
O79 C88 1.240 . S
O80 In78 2.326 . S
O80 C88 1.252 . S
C81 O84 1.252 . S
C81 O85 1.260 . S
C82 O89 1.240 . S
C82 O90 1.252 . S
C83 O86 1.252 . S
C83 O87 1.260 . S
O84 In78 2.266 . S
O84 C81 1.252 . S
O85 In78 2.326 . S
O85 C81 1.260 . S
O86 In78 2.266 . S
O86 C83 1.252 . S
O87 In78 2.326 . S
O87 C83 1.260 . S
C88 O79 1.240 . S
C88 O80 1.252 . S
O89 In78 2.294 . S
O89 C82 1.240 . S
O90 In78 2.326 . S
O90 C82 1.252 . S
In91 O92 2.294 . S
In91 O93 2.326 . S
In91 O97 2.266 . S
In91 O98 2.326 . S
In91 O99 2.266 1_455 S
In91 O100 2.326 1_455 S
In91 O102 2.294 . S
In91 O103 2.326 . S
O92 In91 2.294 . S
O92 C101 1.240 . S
O93 In91 2.326 . S
O93 C101 1.252 . S
C94 O97 1.252 . S
C94 O98 1.260 . S
C95 O102 1.240 . S
C95 O103 1.252 . S
C96 O99 1.252 . S
C96 O100 1.260 . S
O97 In91 2.266 . S
O97 C94 1.252 . S
O98 In91 2.326 . S
O98 C94 1.260 . S
O99 In91 2.266 1_655 S
O99 C96 1.252 . S
O100 In91 2.326 1_655 S
O100 C96 1.260 . S
C101 O92 1.240 . S
C101 O93 1.252 . S
O102 In91 2.294 . S
O102 C95 1.240 . S
O103 In91 2.326 . S
O103 C95 1.252 . S
In104 O105 2.294 . S
In104 O106 2.326 . S
In104 O110 2.266 . S
In104 O111 2.326 . S
In104 O112 2.266 1_545 S
In104 O113 2.326 1_545 S
In104 O115 2.294 . S
In104 O116 2.326 . S
O105 In104 2.294 . S
O105 C114 1.240 . S
O106 In104 2.326 . S
O106 C114 1.252 . S
C107 O110 1.252 . S
C107 O111 1.260 . S
C108 O115 1.240 . S
C108 O116 1.252 . S
C109 O112 1.252 . S
C109 O113 1.260 . S
O110 In104 2.266 . S
O110 C107 1.252 . S
O111 In104 2.326 . S
O111 C107 1.260 . S
O112 In104 2.266 1_565 S
O112 C109 1.252 . S
O113 In104 2.326 1_565 S
O113 C109 1.260 . S
C114 O105 1.240 . S
C114 O106 1.252 . S
O115 In104 2.294 . S
O115 C108 1.240 . S
O116 In104 2.326 . S
O116 C108 1.252 . S
In117 O118 2.294 . S
In117 O119 2.326 . S
In117 O123 2.266 . S
In117 O124 2.326 . S
In117 O125 2.266 . S
In117 O126 2.326 . S
In117 O128 2.294 . S
In117 O129 2.326 . S
O118 In117 2.294 . S
O118 C127 1.240 . S
O119 In117 2.326 . S
O119 C127 1.252 . S
C120 O123 1.252 . S
C120 O124 1.260 . S
C121 O128 1.240 . S
C121 O129 1.252 . S
C122 O125 1.252 . S
C122 O126 1.260 . S
O123 In117 2.266 . S
O123 C120 1.252 . S
O124 In117 2.326 . S
O124 C120 1.260 . S
O125 In117 2.266 . S
O125 C122 1.252 . S
O126 In117 2.326 . S
O126 C122 1.260 . S
C127 O118 1.240 . S
C127 O119 1.252 . S
O128 In117 2.294 . S
O128 C121 1.240 . S
O129 In117 2.326 . S
O129 C121 1.252 . S
In130 O131 2.294 1_545 S
In130 O132 2.326 1_545 S
In130 O136 2.266 . S
In130 O137 2.326 . S
In130 O138 2.266 . S
In130 O139 2.326 . S
In130 O141 2.294 1_545 S
In130 O142 2.326 1_545 S
O131 In130 2.294 1_565 S
O131 C140 1.240 . S
O132 In130 2.326 1_565 S
O132 C140 1.253 . S
C133 O136 1.252 . S
C133 O137 1.260 . S
C134 O141 1.240 . S
C134 O142 1.252 . S
C135 O138 1.252 . S
C135 O139 1.260 . S
O136 In130 2.266 . S
O136 C133 1.252 . S
O137 In130 2.326 . S
O137 C133 1.260 . S
O138 In130 2.266 . S
O138 C135 1.252 . S
O139 In130 2.326 . S
O139 C135 1.260 . S
C140 O131 1.240 . S
C140 O132 1.253 . S
O141 In130 2.294 1_565 S
O141 C134 1.240 . S
O142 In130 2.326 1_565 S
O142 C134 1.252 . S
In143 O144 2.294 . S
In143 O145 2.326 . S
In143 O149 2.266 1_554 S
In143 O150 2.326 1_554 S
In143 O151 2.266 . S
In143 O152 2.326 . S
In143 O154 2.294 . S
In143 O155 2.326 . S
O144 In143 2.294 . S
O144 C153 1.240 . S
O145 In143 2.326 . S
O145 C153 1.252 . S
C146 O149 1.252 . S
C146 O150 1.260 . S
C147 O154 1.240 . S
C147 O155 1.252 . S
C148 O151 1.252 . S
C148 O152 1.260 . S
O149 In143 2.266 1_556 S
O149 C146 1.252 . S
O150 In143 2.326 1_556 S
O150 C146 1.260 . S
O151 In143 2.266 . S
O151 C148 1.252 . S
O152 In143 2.326 . S
O152 C148 1.260 . S
C153 O144 1.240 . S
C153 O145 1.252 . S
O154 In143 2.294 . S
O154 C147 1.240 . S
O155 In143 2.326 . S
O155 C147 1.252 . S
In156 O157 2.294 . S
In156 O158 2.326 . S
In156 O162 2.266 1_554 S
In156 O163 2.326 1_554 S
In156 O164 2.266 . S
In156 O165 2.326 . S
In156 O167 2.294 . S
In156 O168 2.326 . S
O157 In156 2.294 . S
O157 C166 1.240 . S
O158 In156 2.326 . S
O158 C166 1.252 . S
C159 O162 1.252 . S
C159 O163 1.260 . S
C160 O167 1.240 . S
C160 O168 1.252 . S
C161 O164 1.252 . S
C161 O165 1.260 . S
O162 In156 2.266 1_556 S
O162 C159 1.252 . S
O163 In156 2.326 1_556 S
O163 C159 1.260 . S
O164 In156 2.266 . S
O164 C161 1.252 . S
O165 In156 2.326 . S
O165 C161 1.260 . S
C166 O157 1.240 . S
C166 O158 1.252 . S
O167 In156 2.294 . S
O167 C160 1.240 . S
O168 In156 2.326 . S
O168 C160 1.252 . S
In169 O170 2.294 . S
In169 O171 2.326 . S
In169 O175 2.266 . S
In169 O176 2.326 . S
In169 O177 2.257 1_554 S
In169 O178 2.326 1_554 S
In169 O180 2.294 . S
In169 O181 2.326 . S
O170 In169 2.294 . S
O170 C179 1.240 . S
O171 In169 2.326 . S
O171 C179 1.252 . S
C172 O175 1.252 . S
C172 O176 1.260 . S
C173 O180 1.240 . S
C173 O181 1.252 . S
C174 O177 1.263 . S
C174 O178 1.260 . S
O175 In169 2.266 . S
O175 C172 1.252 . S
O176 In169 2.326 . S
O176 C172 1.260 . S
O177 In169 2.257 1_556 S
O177 C174 1.263 . S
O178 In169 2.326 1_556 S
O178 C174 1.260 . S
C179 O170 1.240 . S
C179 O171 1.252 . S
O180 In169 2.294 . S
O180 C173 1.240 . S
O181 In169 2.326 . S
O181 C173 1.252 . S
In182 O183 2.294 . S
In182 O184 2.326 . S
In182 O188 2.266 . S
In182 O189 2.326 . S
In182 O190 2.266 . S
In182 O191 2.326 . S
In182 O193 2.294 . S
In182 O194 2.326 . S
O183 In182 2.294 . S
O183 C192 1.240 . S
O184 In182 2.326 . S
O184 C192 1.252 . S
C185 O188 1.252 . S
C185 O189 1.260 . S
C186 O193 1.240 . S
C186 O194 1.252 . S
C187 O190 1.252 . S
C187 O191 1.260 . S
O188 In182 2.266 . S
O188 C185 1.252 . S
O189 In182 2.326 . S
O189 C185 1.260 . S
O190 In182 2.266 . S
O190 C187 1.252 . S
O191 In182 2.326 . S
O191 C187 1.260 . S
C192 O183 1.240 . S
C192 O184 1.252 . S
O193 In182 2.294 . S
O193 C186 1.240 . S
O194 In182 2.326 . S
O194 C186 1.252 . S
In195 O196 2.294 . S
In195 O197 2.326 . S
In195 O201 2.266 . S
In195 O202 2.326 . S
In195 O203 2.266 . S
In195 O204 2.326 . S
In195 O206 2.294 . S
In195 O207 2.326 . S
O196 In195 2.294 . S
O196 C205 1.240 . S
O197 In195 2.326 . S
O197 C205 1.252 . S
C198 O201 1.252 . S
C198 O202 1.260 . S
C199 O206 1.240 . S
C199 O207 1.252 . S
C200 O203 1.252 . S
C200 O204 1.260 . S
O201 In195 2.266 . S
O201 C198 1.252 . S
O202 In195 2.326 . S
O202 C198 1.260 . S
O203 In195 2.266 . S
O203 C200 1.252 . S
O204 In195 2.326 . S
O204 C200 1.260 . S
C205 O196 1.240 . S
C205 O197 1.252 . S
O206 In195 2.294 . S
O206 C199 1.240 . S
O207 In195 2.326 . S
O207 C199 1.252 . S
In208 O209 2.294 . S
In208 O210 2.326 . S
In208 O214 2.266 . S
In208 O215 2.326 . S
In208 O216 2.266 . S
In208 O217 2.326 . S
In208 O219 2.294 . S
In208 O220 2.326 . S
O209 In208 2.294 . S
O209 C218 1.240 . S
O210 In208 2.326 . S
O210 C218 1.252 . S
C211 O214 1.252 . S
C211 O215 1.260 . S
C212 O219 1.240 . S
C212 O220 1.252 . S
C213 O216 1.252 . S
C213 O217 1.260 . S
O214 In208 2.266 . S
O214 C211 1.252 . S
O215 In208 2.326 . S
O215 C211 1.260 . S
O216 In208 2.266 . S
O216 C213 1.252 . S
O217 In208 2.326 . S
O217 C213 1.260 . S
C218 O209 1.240 . S
C218 O210 1.252 . S
O219 In208 2.294 . S
O219 C212 1.240 . S
O220 In208 2.326 . S
O220 C212 1.252 . S
In221 O222 2.294 . S
In221 O223 2.326 . S
In221 O227 2.266 . S
In221 O228 2.326 . S
In221 O229 2.266 . S
In221 O230 2.326 . S
In221 O232 2.294 . S
In221 O233 2.326 . S
O222 In221 2.294 . S
O222 C231 1.240 . S
O223 In221 2.326 . S
O223 C231 1.252 . S
C224 O227 1.252 . S
C224 O228 1.260 . S
C225 O232 1.240 . S
C225 O233 1.252 . S
C226 O229 1.252 . S
C226 O230 1.260 . S
O227 In221 2.266 . S
O227 C224 1.252 . S
O228 In221 2.326 . S
O228 C224 1.260 . S
O229 In221 2.266 . S
O229 C226 1.252 . S
O230 In221 2.326 . S
O230 C226 1.260 . S
C231 O222 1.240 . S
C231 O223 1.252 . S
O232 In221 2.294 . S
O232 C225 1.240 . S
O233 In221 2.326 . S
O233 C225 1.252 . S
In234 O235 2.294 . S
In234 O236 2.326 . S
In234 O240 2.266 . S
In234 O241 2.326 . S
In234 O242 2.266 . S
In234 O243 2.326 . S
In234 O245 2.294 . S
In234 O246 2.326 . S
O235 In234 2.294 . S
O235 C244 1.240 . S
O236 In234 2.326 . S
O236 C244 1.252 . S
C237 O240 1.252 . S
C237 O241 1.260 . S
C238 O245 1.240 . S
C238 O246 1.252 . S
C239 O242 1.252 . S
C239 O243 1.260 . S
O240 In234 2.266 . S
O240 C237 1.252 . S
O241 In234 2.326 . S
O241 C237 1.260 . S
O242 In234 2.266 . S
O242 C239 1.252 . S
O243 In234 2.326 . S
O243 C239 1.260 . S
C244 O235 1.240 . S
C244 O236 1.252 . S
O245 In234 2.294 . S
O245 C238 1.240 . S
O246 In234 2.326 . S
O246 C238 1.252 . S
In247 O248 2.294 . S
In247 O249 2.326 . S
In247 O253 2.266 . S
In247 O254 2.326 . S
In247 O255 2.266 . S
In247 O256 2.326 . S
In247 O258 2.294 . S
In247 O259 2.326 . S
O248 In247 2.294 . S
O248 C257 1.240 . S
O249 In247 2.326 . S
O249 C257 1.252 . S
C250 O253 1.252 . S
C250 O254 1.260 . S
C251 O258 1.240 . S
C251 O259 1.252 . S
C252 O255 1.252 . S
C252 O256 1.260 . S
O253 In247 2.266 . S
O253 C250 1.252 . S
O254 In247 2.326 . S
O254 C250 1.260 . S
O255 In247 2.266 . S
O255 C252 1.252 . S
O256 In247 2.326 . S
O256 C252 1.260 . S
C257 O248 1.240 . S
C257 O249 1.252 . S
O258 In247 2.294 . S
O258 C251 1.240 . S
O259 In247 2.326 . S
O259 C251 1.252 . S
In260 O261 2.294 . S
In260 O262 2.326 . S
In260 O266 2.266 . S
In260 O267 2.326 . S
In260 O268 2.266 1_554 S
In260 O269 2.326 1_554 S
In260 O271 2.294 . S
In260 O272 2.326 . S
O261 In260 2.294 . S
O261 C270 1.240 . S
O262 In260 2.326 . S
O262 C270 1.252 . S
C263 O266 1.252 . S
C263 O267 1.260 . S
C264 O271 1.240 . S
C264 O272 1.252 . S
C265 O268 1.252 . S
C265 O269 1.260 . S
O266 In260 2.266 . S
O266 C263 1.252 . S
O267 In260 2.326 . S
O267 C263 1.260 . S
O268 In260 2.266 1_556 S
O268 C265 1.252 . S
O269 In260 2.326 1_556 S
O269 C265 1.260 . S
C270 O261 1.240 . S
C270 O262 1.252 . S
O271 In260 2.294 . S
O271 C264 1.240 . S
O272 In260 2.326 . S
O272 C264 1.252 . S
In273 O274 2.294 . S
In273 O275 2.326 . S
In273 O279 2.266 . S
In273 O280 2.326 . S
In273 O281 2.266 . S
In273 O282 2.326 . S
In273 O284 2.294 . S
In273 O285 2.326 . S
O274 In273 2.294 . S
O274 C283 1.240 . S
O275 In273 2.326 . S
O275 C283 1.252 . S
C276 O279 1.252 . S
C276 O280 1.260 . S
C277 O284 1.240 . S
C277 O285 1.252 . S
C278 O281 1.252 . S
C278 O282 1.260 . S
O279 In273 2.266 . S
O279 C276 1.252 . S
O280 In273 2.326 . S
O280 C276 1.260 . S
O281 In273 2.266 . S
O281 C278 1.252 . S
O282 In273 2.326 . S
O282 C278 1.260 . S
C283 O274 1.240 . S
C283 O275 1.252 . S
O284 In273 2.294 . S
O284 C277 1.240 . S
O285 In273 2.326 . S
O285 C277 1.252 . S
In286 O287 2.294 . S
In286 O288 2.326 . S
In286 O292 2.266 . S
In286 O293 2.326 . S
In286 O294 2.266 . S
In286 O295 2.326 . S
In286 O297 2.294 . S
In286 O298 2.326 . S
O287 In286 2.294 . S
O287 C296 1.240 . S
O288 In286 2.326 . S
O288 C296 1.252 . S
C289 O292 1.252 . S
C289 O293 1.260 . S
C290 O297 1.240 . S
C290 O298 1.252 . S
C291 O294 1.252 . S
C291 O295 1.260 . S
O292 In286 2.266 . S
O292 C289 1.252 . S
O293 In286 2.326 . S
O293 C289 1.260 . S
O294 In286 2.266 . S
O294 C291 1.252 . S
O295 In286 2.326 . S
O295 C291 1.260 . S
C296 O287 1.240 . S
C296 O288 1.252 . S
O297 In286 2.294 . S
O297 C290 1.240 . S
O298 In286 2.326 . S
O298 C290 1.252 . S
In299 O300 2.294 . S
In299 O301 2.326 . S
In299 O305 2.266 . S
In299 O306 2.326 . S
In299 O307 2.266 . S
In299 O308 2.326 . S
In299 O310 2.294 . S
In299 O311 2.326 . S
O300 In299 2.294 . S
O300 C309 1.240 . S
O301 In299 2.326 . S
O301 C309 1.252 . S
C302 O305 1.252 . S
C302 O306 1.260 . S
C303 O310 1.240 . S
C303 O311 1.252 . S
C304 O307 1.252 . S
C304 O308 1.260 . S
O305 In299 2.266 . S
O305 C302 1.252 . S
O306 In299 2.326 . S
O306 C302 1.260 . S
O307 In299 2.266 . S
O307 C304 1.252 . S
O308 In299 2.326 . S
O308 C304 1.260 . S
C309 O300 1.240 . S
C309 O301 1.252 . S
O310 In299 2.294 . S
O310 C303 1.240 . S
O311 In299 2.326 . S
O311 C303 1.252 . S
Ho312 C315 2.811 1_455 S
Ho312 O332 2.322 . S
Ho312 O334 2.378 1_454 S
Ho312 O335 2.519 1_455 S
Ho312 O336 2.381 1_554 S
Ho312 O337 2.669 . S
Ho312 O339 2.346 . S
Ho312 O343 2.305 . S
Ho313 C324 2.811 . S
Ho313 O333 2.346 . S
Ho313 O337 2.305 . S
Ho313 O338 2.322 . S
Ho313 O340 2.378 . S
Ho313 O341 2.524 . S
Ho313 O342 2.381 . S
Ho313 O343 2.669 . S
C314 O332 1.259 . S
C314 O333 1.268 . S
C315 Ho312 2.811 1_655 S
C315 C316 1.488 . S
C315 O334 1.215 1_554 S
C315 O335 1.291 . S
C316 C315 1.488 . S
C316 C317 1.348 . S
C316 C321 1.413 1_554 S
C317 C316 1.348 . S
C317 C318 1.442 . S
C317 H344 0.930 . S
C318 C317 1.442 . S
C318 C319 1.381 1_554 S
C318 H345 0.931 . S
C319 C318 1.381 1_556 S
C319 C320 1.321 . S
C320 C319 1.321 . S
C320 C321 1.403 . S
C320 H346 0.934 . S
C321 C316 1.413 1_556 S
C321 C320 1.403 . S
C321 H347 0.930 . S
C322 O336 1.275 . S
C322 O337 1.256 1_556 S
C323 O338 1.259 . S
C323 O339 1.268 . S
C324 Ho313 2.811 . S
C324 C325 1.488 . S
C324 O340 1.215 . S
C324 O341 1.289 . S
C325 C324 1.488 . S
C325 C326 1.348 . S
C325 C330 1.413 . S
C326 C325 1.348 . S
C326 C327 1.442 . S
C326 H348 0.930 . S
C327 C326 1.442 . S
C327 C328 1.381 . S
C327 H349 0.906 1_545 S
C328 C327 1.381 . S
C328 C329 1.321 . S
C329 C328 1.321 . S
C329 C330 1.403 . S
C329 H350 0.934 . S
C330 C325 1.413 . S
C330 C329 1.403 . S
C330 H351 0.930 . S
C331 O342 1.275 . S
C331 O343 1.256 . S
O332 Ho312 2.322 . S
O332 C314 1.259 . S
O333 Ho313 2.346 . S
O333 C314 1.268 . S
O334 Ho312 2.378 1_656 S
O334 C315 1.215 1_556 S
O335 Ho312 2.519 1_655 S
O335 C315 1.291 . S
O336 Ho312 2.381 1_556 S
O336 C322 1.275 . S
O337 Ho312 2.669 . S
O337 Ho313 2.305 . S
O337 C322 1.256 1_554 S
O338 Ho313 2.322 . S
O338 C323 1.259 . S
O339 Ho312 2.346 . S
O339 C323 1.268 . S
O340 Ho313 2.378 . S
O340 C324 1.215 . S
O341 Ho313 2.524 . S
O341 C324 1.289 . S
O342 Ho313 2.381 . S
O342 C331 1.275 . S
O343 Ho312 2.305 . S
O343 Ho313 2.669 . S
O343 C331 1.256 . S
H344 C317 0.930 . S
H345 C318 0.931 . S
H346 C320 0.934 . S
H347 C321 0.930 . S
H348 C326 0.930 . S
H349 C327 0.906 1_565 S
H350 C329 0.934 . S
H351 C330 0.930 . S
Ho352 C355 2.811 . S
Ho352 O372 2.322 . S
Ho352 O374 2.378 . S
Ho352 O375 2.524 . S
Ho352 O376 2.381 . S
Ho352 O377 2.669 . S
Ho352 O379 2.346 . S
Ho352 O383 2.305 . S
Ho353 C364 2.811 . S
Ho353 O373 2.346 . S
Ho353 O377 2.305 . S
Ho353 O378 2.322 . S
Ho353 O380 2.378 . S
Ho353 O381 2.524 . S
Ho353 O382 2.381 . S
Ho353 O383 2.669 . S
C354 O372 1.259 . S
C354 O373 1.268 . S
C355 Ho352 2.811 . S
C355 C356 1.488 . S
C355 O374 1.215 . S
C355 O375 1.289 . S
C356 C355 1.488 . S
C356 C357 1.348 . S
C356 C361 1.413 . S
C357 C356 1.348 . S
C357 C358 1.442 . S
C357 H384 0.930 . S
C358 C357 1.442 . S
C358 C359 1.381 . S
C358 H385 0.931 . S
C359 C358 1.381 . S
C359 C360 1.321 . S
C360 C359 1.321 . S
C360 C361 1.403 . S
C360 H386 0.934 . S
C361 C356 1.413 . S
C361 C360 1.403 . S
C361 H387 0.930 . S
C362 O376 1.275 . S
C362 O377 1.256 . S
C363 O378 1.259 . S
C363 O379 1.268 . S
C364 Ho353 2.811 . S
C364 C365 1.488 . S
C364 O380 1.215 . S
C364 O381 1.289 . S
C365 C364 1.488 . S
C365 C366 1.348 . S
C365 C370 1.413 . S
C366 C365 1.348 . S
C366 C367 1.442 . S
C366 H388 0.930 . S
C367 C366 1.442 . S
C367 C368 1.381 . S
C367 H389 0.931 . S
C368 C367 1.381 . S
C368 C369 1.321 . S
C369 C368 1.321 . S
C369 C370 1.403 . S
C369 H390 0.934 . S
C370 C365 1.413 . S
C370 C369 1.403 . S
C370 H391 0.930 . S
C371 O382 1.275 . S
C371 O383 1.256 . S
O372 Ho352 2.322 . S
O372 C354 1.259 . S
O373 Ho353 2.346 . S
O373 C354 1.268 . S
O374 Ho352 2.378 . S
O374 C355 1.215 . S
O375 Ho352 2.524 . S
O375 C355 1.289 . S
O376 Ho352 2.381 . S
O376 C362 1.275 . S
O377 Ho352 2.669 . S
O377 Ho353 2.305 . S
O377 C362 1.256 . S
O378 Ho353 2.322 . S
O378 C363 1.259 . S
O379 Ho352 2.346 . S
O379 C363 1.268 . S
O380 Ho353 2.378 . S
O380 C364 1.215 . S
O381 Ho353 2.524 . S
O381 C364 1.289 . S
O382 Ho353 2.381 . S
O382 C371 1.275 . S
O383 Ho352 2.305 . S
O383 Ho353 2.669 . S
O383 C371 1.256 . S
H384 C357 0.930 . S
H385 C358 0.931 . S
H386 C360 0.934 . S
H387 C361 0.930 . S
H388 C366 0.930 . S
H389 C367 0.931 . S
H390 C369 0.934 . S
H391 C370 0.930 . S
Ho392 C395 2.811 . S
Ho392 O412 2.322 1_545 S
Ho392 O414 2.378 . S
Ho392 O415 2.524 . S
Ho392 O416 2.381 . S
Ho392 O417 2.669 . S
Ho392 O419 2.346 . S
Ho392 O423 2.305 . S
Ho393 C404 2.811 . S
Ho393 O413 2.346 1_545 S
Ho393 O417 2.305 . S
Ho393 O418 2.322 . S
Ho393 O420 2.378 . S
Ho393 O421 2.524 . S
Ho393 O422 2.381 . S
Ho393 O423 2.669 . S
C394 O412 1.259 . S
C394 O413 1.268 . S
C395 Ho392 2.811 . S
C395 C396 1.488 1_545 S
C395 O414 1.215 . S
C395 O415 1.289 . S
C396 C395 1.488 1_565 S
C396 C397 1.348 . S
C396 C401 1.413 . S
C397 C396 1.348 . S
C397 C398 1.442 . S
C397 H424 0.930 . S
C398 C397 1.442 . S
C398 C399 1.381 . S
C398 H425 0.931 . S
C399 C398 1.381 . S
C399 C400 1.321 . S
C400 C399 1.321 . S
C400 C401 1.403 . S
C400 H426 0.934 . S
C401 C396 1.413 . S
C401 C400 1.403 . S
C401 H427 0.930 . S
C402 O416 1.275 . S
C402 O417 1.256 . S
C403 O418 1.259 . S
C403 O419 1.268 . S
C404 Ho393 2.811 . S
C404 C405 1.488 . S
C404 O420 1.215 . S
C404 O421 1.289 . S
C405 C404 1.488 . S
C405 C406 1.348 . S
C405 C410 1.413 . S
C406 C405 1.348 . S
C406 C407 1.442 . S
C406 H428 0.930 . S
C407 C406 1.442 . S
C407 C408 1.381 . S
C407 H429 0.931 . S
C408 C407 1.381 . S
C408 C409 1.321 . S
C409 C408 1.321 . S
C409 C410 1.403 . S
C409 H430 0.934 . S
C410 C405 1.413 . S
C410 C409 1.403 . S
C410 H431 0.930 . S
C411 O422 1.275 . S
C411 O423 1.256 . S
O412 Ho392 2.322 1_565 S
O412 C394 1.259 . S
O413 Ho393 2.346 1_565 S
O413 C394 1.268 . S
O414 Ho392 2.378 . S
O414 C395 1.215 . S
O415 Ho392 2.524 . S
O415 C395 1.289 . S
O416 Ho392 2.381 . S
O416 C402 1.275 . S
O417 Ho392 2.669 . S
O417 Ho393 2.305 . S
O417 C402 1.256 . S
O418 Ho393 2.322 . S
O418 C403 1.259 . S
O419 Ho392 2.346 . S
O419 C403 1.268 . S
O420 Ho393 2.378 . S
O420 C404 1.215 . S
O421 Ho393 2.524 . S
O421 C404 1.289 . S
O422 Ho393 2.381 . S
O422 C411 1.275 . S
O423 Ho392 2.305 . S
O423 Ho393 2.669 . S
O423 C411 1.256 . S
H424 C397 0.930 . S
H425 C398 0.931 . S
H426 C400 0.934 . S
H427 C401 0.930 . S
H428 C406 0.930 . S
H429 C407 0.931 . S
H430 C409 0.934 . S
H431 C410 0.930 . S
Ho432 C435 2.811 . S
Ho432 O452 2.322 . S
Ho432 O454 2.378 . S
Ho432 O455 2.524 . S
Ho432 O456 2.381 . S
Ho432 O457 2.669 . S
Ho432 O459 2.346 . S
Ho432 O463 2.305 . S
Ho433 C444 2.811 . S
Ho433 O453 2.346 . S
Ho433 O457 2.305 . S
Ho433 O458 2.322 . S
Ho433 O460 2.378 . S
Ho433 O461 2.524 . S
Ho433 O462 2.381 . S
Ho433 O463 2.669 . S
C434 O452 1.259 . S
C434 O453 1.268 . S
C435 Ho432 2.811 . S
C435 C436 1.488 . S
C435 O454 1.215 . S
C435 O455 1.289 . S
C436 C435 1.488 . S
C436 C437 1.348 . S
C436 C441 1.413 . S
C437 C436 1.348 . S
C437 C438 1.442 . S
C437 H464 0.930 . S
C438 C437 1.442 . S
C438 C439 1.381 . S
C438 H465 0.931 . S
C439 C438 1.381 . S
C439 C440 1.321 . S
C440 C439 1.321 . S
C440 C441 1.403 . S
C440 H466 0.934 . S
C441 C436 1.413 . S
C441 C440 1.403 . S
C441 H467 0.930 . S
C442 O456 1.275 . S
C442 O457 1.256 . S
C443 O458 1.259 . S
C443 O459 1.268 . S
C444 Ho433 2.811 . S
C444 C445 1.488 . S
C444 O460 1.215 . S
C444 O461 1.289 . S
C445 C444 1.488 . S
C445 C446 1.348 . S
C445 C450 1.413 . S
C446 C445 1.348 . S
C446 C447 1.442 . S
C446 H468 0.930 . S
C447 C446 1.442 . S
C447 C448 1.381 . S
C447 H469 0.931 . S
C448 C447 1.381 . S
C448 C449 1.321 . S
C449 C448 1.321 . S
C449 C450 1.403 . S
C449 H470 0.934 . S
C450 C445 1.413 . S
C450 C449 1.403 . S
C450 H471 0.930 . S
C451 O462 1.275 . S
C451 O463 1.256 . S
O452 Ho432 2.322 . S
O452 C434 1.259 . S
O453 Ho433 2.346 . S
O453 C434 1.268 . S
O454 Ho432 2.378 . S
O454 C435 1.215 . S
O455 Ho432 2.524 . S
O455 C435 1.289 . S
O456 Ho432 2.381 . S
O456 C442 1.275 . S
O457 Ho432 2.669 . S
O457 Ho433 2.305 . S
O457 C442 1.256 . S
O458 Ho433 2.322 . S
O458 C443 1.259 . S
O459 Ho432 2.346 . S
O459 C443 1.268 . S
O460 Ho433 2.378 . S
O460 C444 1.215 . S
O461 Ho433 2.524 . S
O461 C444 1.289 . S
O462 Ho433 2.381 . S
O462 C451 1.275 . S
O463 Ho432 2.305 . S
O463 Ho433 2.669 . S
O463 C451 1.256 . S
H464 C437 0.930 . S
H465 C438 0.931 . S
H466 C440 0.934 . S
H467 C441 0.930 . S
H468 C446 0.930 . S
H469 C447 0.931 . S
H470 C449 0.934 . S
H471 C450 0.930 . S
Ho472 C475 2.811 . S
Ho472 O492 2.322 . S
Ho472 O494 2.378 . S
Ho472 O495 2.524 . S
Ho472 O496 2.381 . S
Ho472 O497 2.669 . S
Ho472 O499 2.346 . S
Ho472 O503 2.305 . S
Ho473 C484 2.811 . S
Ho473 O493 2.346 1_565 S
Ho473 O497 2.305 1_565 S
Ho473 O498 2.322 1_565 S
Ho473 O500 2.378 . S
Ho473 O501 2.524 . S
Ho473 O502 2.381 1_565 S
Ho473 O503 2.669 1_565 S
C474 O492 1.259 . S
C474 O493 1.268 . S
C475 Ho472 2.811 . S
C475 C476 1.488 . S
C475 O494 1.215 . S
C475 O495 1.289 . S
C476 C475 1.488 . S
C476 C477 1.348 . S
C476 C481 1.413 . S
C477 C476 1.348 . S
C477 C478 1.442 . S
C477 H504 0.930 . S
C478 C477 1.442 . S
C478 C479 1.381 . S
C478 H505 0.931 . S
C479 C478 1.381 . S
C479 C480 1.321 . S
C480 C479 1.321 . S
C480 C481 1.403 . S
C480 H506 0.934 . S
C481 C476 1.413 . S
C481 C480 1.403 . S
C481 H507 0.930 . S
C482 O496 1.275 . S
C482 O497 1.256 . S
C483 O498 1.259 . S
C483 O499 1.268 . S
C484 Ho473 2.811 . S
C484 C485 1.488 . S
C484 O500 1.215 . S
C484 O501 1.289 . S
C485 C484 1.488 . S
C485 C486 1.348 . S
C485 C490 1.413 . S
C486 C485 1.348 . S
C486 C487 1.442 . S
C486 H508 0.930 . S
C487 C486 1.442 . S
C487 C488 1.381 . S
C487 H509 0.931 . S
C488 C487 1.381 . S
C488 C489 1.321 . S
C489 C488 1.321 . S
C489 C490 1.403 . S
C489 H510 0.934 . S
C490 C485 1.413 . S
C490 C489 1.403 . S
C490 H511 0.930 . S
C491 O502 1.275 . S
C491 O503 1.256 . S
O492 Ho472 2.322 . S
O492 C474 1.259 . S
O493 Ho473 2.346 1_545 S
O493 C474 1.268 . S
O494 Ho472 2.378 . S
O494 C475 1.215 . S
O495 Ho472 2.524 . S
O495 C475 1.289 . S
O496 Ho472 2.381 . S
O496 C482 1.275 . S
O497 Ho472 2.669 . S
O497 Ho473 2.305 1_545 S
O497 C482 1.256 . S
O498 Ho473 2.322 1_545 S
O498 C483 1.259 . S
O499 Ho472 2.346 . S
O499 C483 1.268 . S
O500 Ho473 2.378 . S
O500 C484 1.215 . S
O501 Ho473 2.524 . S
O501 C484 1.289 . S
O502 Ho473 2.381 1_545 S
O502 C491 1.275 . S
O503 Ho472 2.305 . S
O503 Ho473 2.669 1_545 S
O503 C491 1.256 . S
H504 C477 0.930 . S
H505 C478 0.931 . S
H506 C480 0.934 . S
H507 C481 0.930 . S
H508 C486 0.930 . S
H509 C487 0.931 . S
H510 C489 0.934 . S
H511 C490 0.930 . S
Ho512 C515 2.811 . S
Ho512 O532 2.322 . S
Ho512 O534 2.378 . S
Ho512 O535 2.524 . S
Ho512 O536 2.381 . S
Ho512 O537 2.669 . S
Ho512 O539 2.346 . S
Ho512 O543 2.305 . S
Ho513 C524 2.811 . S
Ho513 O533 2.346 . S
Ho513 O537 2.305 . S
Ho513 O538 2.322 . S
Ho513 O540 2.378 . S
Ho513 O541 2.524 . S
Ho513 O542 2.381 . S
Ho513 O543 2.669 . S
C514 O532 1.259 . S
C514 O533 1.268 . S
C515 Ho512 2.811 . S
C515 C516 1.488 . S
C515 O534 1.215 . S
C515 O535 1.289 . S
C516 C515 1.488 . S
C516 C517 1.348 . S
C516 C521 1.413 . S
C517 C516 1.348 . S
C517 C518 1.442 . S
C517 H544 0.930 . S
C518 C517 1.442 . S
C518 C519 1.381 . S
C518 H545 0.931 . S
C519 C518 1.381 . S
C519 C520 1.321 . S
C520 C519 1.321 . S
C520 C521 1.403 . S
C520 H546 0.934 . S
C521 C516 1.413 . S
C521 C520 1.403 . S
C521 H547 0.930 . S
C522 O536 1.275 . S
C522 O537 1.256 . S
C523 O538 1.259 . S
C523 O539 1.268 . S
C524 Ho513 2.811 . S
C524 C525 1.488 . S
C524 O540 1.215 . S
C524 O541 1.289 . S
C525 C524 1.488 . S
C525 C526 1.348 . S
C525 C530 1.413 . S
C526 C525 1.348 . S
C526 C527 1.442 . S
C526 H548 0.930 . S
C527 C526 1.442 . S
C527 C528 1.381 . S
C527 H549 0.931 . S
C528 C527 1.381 . S
C528 C529 1.321 . S
C529 C528 1.321 . S
C529 C530 1.403 . S
C529 H550 0.934 . S
C530 C525 1.413 . S
C530 C529 1.403 . S
C530 H551 0.930 . S
C531 O542 1.275 . S
C531 O543 1.256 . S
O532 Ho512 2.322 . S
O532 C514 1.259 . S
O533 Ho513 2.346 . S
O533 C514 1.268 . S
O534 Ho512 2.378 . S
O534 C515 1.215 . S
O535 Ho512 2.524 . S
O535 C515 1.289 . S
O536 Ho512 2.381 . S
O536 C522 1.275 . S
O537 Ho512 2.669 . S
O537 Ho513 2.305 . S
O537 C522 1.256 . S
O538 Ho513 2.322 . S
O538 C523 1.259 . S
O539 Ho512 2.346 . S
O539 C523 1.268 . S
O540 Ho513 2.378 . S
O540 C524 1.215 . S
O541 Ho513 2.524 . S
O541 C524 1.289 . S
O542 Ho513 2.381 . S
O542 C531 1.275 . S
O543 Ho512 2.305 . S
O543 Ho513 2.669 . S
O543 C531 1.256 . S
H544 C517 0.930 . S
H545 C518 0.931 . S
H546 C520 0.934 . S
H547 C521 0.930 . S
H548 C526 0.930 . S
H549 C527 0.931 . S
H550 C529 0.934 . S
H551 C530 0.930 . S
Ho552 C555 2.811 . S
Ho552 O572 2.322 . S
Ho552 O574 2.378 . S
Ho552 O575 2.524 . S
Ho552 O576 2.381 . S
Ho552 O577 2.669 1_554 S
Ho552 O579 2.346 . S
Ho552 O583 2.305 . S
Ho553 C564 2.811 . S
Ho553 O573 2.346 . S
Ho553 O577 2.305 . S
Ho553 O578 2.322 . S
Ho553 O580 2.378 . S
Ho553 O581 2.524 . S
Ho553 O582 2.381 . S
Ho553 O583 2.669 1_556 S
C554 O572 1.259 . S
C554 O573 1.268 1_554 S
C555 Ho552 2.811 . S
C555 C556 1.488 . S
C555 O574 1.215 . S
C555 O575 1.289 . S
C556 C555 1.488 . S
C556 C557 1.348 . S
C556 C561 1.413 . S
C557 C556 1.348 . S
C557 C558 1.442 . S
C557 H584 0.930 . S
C558 C557 1.442 . S
C558 C559 1.381 . S
C558 H585 0.931 . S
C559 C558 1.381 . S
C559 C560 1.321 1_545 S
C560 C559 1.321 1_565 S
C560 C561 1.403 1_565 S
C560 H586 0.934 . S
C561 C556 1.413 . S
C561 C560 1.403 1_545 S
C561 H587 0.930 1_545 S
C562 O576 1.275 1_556 S
C562 O577 1.256 . S
C563 O578 1.259 1_554 S
C563 O579 1.268 . S
C564 Ho553 2.811 . S
C564 C565 1.488 . S
C564 O580 1.215 . S
C564 O581 1.289 . S
C565 C564 1.488 . S
C565 C566 1.348 . S
C565 C570 1.413 . S
C566 C565 1.348 . S
C566 C567 1.442 . S
C566 H588 0.930 . S
C567 C566 1.442 . S
C567 C568 1.381 . S
C567 H589 0.931 . S
C568 C567 1.381 . S
C568 C569 1.321 . S
C569 C568 1.321 . S
C569 C570 1.403 . S
C569 H590 0.934 . S
C570 C565 1.413 . S
C570 C569 1.403 . S
C570 H591 0.930 . S
C571 O582 1.275 1_554 S
C571 O583 1.256 . S
O572 Ho552 2.322 . S
O572 C554 1.259 . S
O573 Ho553 2.346 . S
O573 C554 1.268 1_556 S
O574 Ho552 2.378 . S
O574 C555 1.215 . S
O575 Ho552 2.524 . S
O575 C555 1.289 . S
O576 Ho552 2.381 . S
O576 C562 1.275 1_554 S
O577 Ho552 2.669 1_556 S
O577 Ho553 2.305 . S
O577 C562 1.256 . S
O578 Ho553 2.322 . S
O578 C563 1.259 1_556 S
O579 Ho552 2.346 . S
O579 C563 1.268 . S
O580 Ho553 2.378 . S
O580 C564 1.215 . S
O581 Ho553 2.524 . S
O581 C564 1.289 . S
O582 Ho553 2.381 . S
O582 C571 1.275 1_556 S
O583 Ho552 2.305 . S
O583 Ho553 2.669 1_554 S
O583 C571 1.256 . S
H584 C557 0.930 . S
H585 C558 0.931 . S
H586 C560 0.934 . S
H587 C561 0.930 1_565 S
H588 C566 0.930 . S
H589 C567 0.931 . S
H590 C569 0.934 . S
H591 C570 0.930 . S
Ho592 C595 2.811 . S
Ho592 O612 2.322 . S
Ho592 O614 2.378 . S
Ho592 O615 2.524 . S
Ho592 O616 2.381 . S
Ho592 O617 2.669 . S
Ho592 O619 2.346 . S
Ho592 O623 2.305 . S
Ho593 C604 2.811 . S
Ho593 O613 2.346 . S
Ho593 O617 2.305 . S
Ho593 O618 2.322 . S
Ho593 O620 2.378 . S
Ho593 O621 2.524 . S
Ho593 O622 2.381 . S
Ho593 O623 2.669 . S
C594 O612 1.259 . S
C594 O613 1.268 . S
C595 Ho592 2.811 . S
C595 C596 1.488 . S
C595 O614 1.215 . S
C595 O615 1.289 . S
C596 C595 1.488 . S
C596 C597 1.348 . S
C596 C601 1.413 . S
C597 C596 1.348 . S
C597 C598 1.442 . S
C597 H624 0.930 . S
C598 C597 1.442 . S
C598 C599 1.381 . S
C598 H625 0.931 . S
C599 C598 1.381 . S
C599 C600 1.321 . S
C600 C599 1.321 . S
C600 C601 1.403 . S
C600 H626 0.934 . S
C601 C596 1.413 . S
C601 C600 1.403 . S
C601 H627 0.930 . S
C602 O616 1.275 . S
C602 O617 1.256 . S
C603 O618 1.259 . S
C603 O619 1.268 . S
C604 Ho593 2.811 . S
C604 C605 1.488 . S
C604 O620 1.215 . S
C604 O621 1.289 . S
C605 C604 1.488 . S
C605 C606 1.348 . S
C605 C610 1.413 . S
C606 C605 1.348 . S
C606 C607 1.442 . S
C606 H628 0.930 . S
C607 C606 1.442 . S
C607 C608 1.381 . S
C607 H629 0.931 . S
C608 C607 1.381 . S
C608 C609 1.321 . S
C609 C608 1.321 . S
C609 C610 1.403 . S
C609 H630 0.934 . S
C610 C605 1.413 . S
C610 C609 1.403 . S
C610 H631 0.930 . S
C611 O622 1.275 . S
C611 O623 1.256 . S
O612 Ho592 2.322 . S
O612 C594 1.259 . S
O613 Ho593 2.346 . S
O613 C594 1.268 . S
O614 Ho592 2.378 . S
O614 C595 1.215 . S
O615 Ho592 2.524 . S
O615 C595 1.289 . S
O616 Ho592 2.381 . S
O616 C602 1.275 . S
O617 Ho592 2.669 . S
O617 Ho593 2.305 . S
O617 C602 1.256 . S
O618 Ho593 2.322 . S
O618 C603 1.259 . S
O619 Ho592 2.346 . S
O619 C603 1.268 . S
O620 Ho593 2.378 . S
O620 C604 1.215 . S
O621 Ho593 2.524 . S
O621 C604 1.289 . S
O622 Ho593 2.381 . S
O622 C611 1.275 . S
O623 Ho592 2.305 . S
O623 Ho593 2.669 . S
O623 C611 1.256 . S
H624 C597 0.930 . S
H625 C598 0.931 . S
H626 C600 0.934 . S
H627 C601 0.930 . S
H628 C606 0.930 . S
H629 C607 0.931 . S
H630 C609 0.934 . S
H631 C610 0.930 . S
Ho632 C635 2.811 1_554 S
Ho632 O652 2.322 1_554 S
Ho632 O654 2.378 . S
Ho632 O655 2.524 1_554 S
Ho632 O656 2.381 . S
Ho632 O657 2.669 . S
Ho632 O659 2.346 . S
Ho632 O663 2.305 . S
Ho633 C644 2.811 1_556 S
Ho633 O653 2.346 . S
Ho633 O657 2.305 1_556 S
Ho633 O658 2.322 1_556 S
Ho633 O660 2.378 1_556 S
Ho633 O661 2.524 1_556 S
Ho633 O662 2.381 . S
Ho633 O663 2.669 1_556 S
C634 O652 1.259 . S
C634 O653 1.268 . S
C635 Ho632 2.811 1_556 S
C635 C636 1.488 . S
C635 O654 1.215 1_556 S
C635 O655 1.289 . S
C636 C635 1.488 . S
C636 C637 1.348 . S
C636 C641 1.413 . S
C637 C636 1.348 . S
C637 C638 1.442 . S
C637 H664 0.930 . S
C638 C637 1.442 . S
C638 C639 1.381 . S
C638 H665 0.931 . S
C639 C638 1.381 . S
C639 C640 1.321 . S
C640 C639 1.321 . S
C640 C641 1.403 . S
C640 H666 0.934 . S
C641 C636 1.413 . S
C641 C640 1.403 . S
C641 H667 0.930 . S
C642 O656 1.275 . S
C642 O657 1.256 . S
C643 O658 1.259 . S
C643 O659 1.268 . S
C644 Ho633 2.811 1_554 S
C644 C645 1.488 . S
C644 O660 1.215 . S
C644 O661 1.289 . S
C645 C644 1.488 . S
C645 C646 1.348 . S
C645 C650 1.413 . S
C646 C645 1.348 . S
C646 C647 1.442 . S
C646 H668 0.930 . S
C647 C646 1.442 . S
C647 C648 1.381 . S
C647 H669 0.931 . S
C648 C647 1.381 . S
C648 C649 1.321 . S
C649 C648 1.321 . S
C649 C650 1.403 . S
C649 H670 0.934 . S
C650 C645 1.413 . S
C650 C649 1.403 . S
C650 H671 0.930 . S
C651 O662 1.275 1_554 S
C651 O663 1.265 . S
O652 Ho632 2.322 1_556 S
O652 C634 1.259 . S
O653 Ho633 2.346 . S
O653 C634 1.268 . S
O654 Ho632 2.378 . S
O654 C635 1.215 1_554 S
O655 Ho632 2.524 1_556 S
O655 C635 1.289 . S
O656 Ho632 2.381 . S
O656 C642 1.275 . S
O657 Ho632 2.669 . S
O657 Ho633 2.305 1_554 S
O657 C642 1.256 . S
O658 Ho633 2.322 1_554 S
O658 C643 1.259 . S
O659 Ho632 2.346 . S
O659 C643 1.268 . S
O660 Ho633 2.378 1_554 S
O660 C644 1.215 . S
O661 Ho633 2.524 1_554 S
O661 C644 1.289 . S
O662 Ho633 2.381 . S
O662 C651 1.275 1_556 S
O663 Ho632 2.305 . S
O663 Ho633 2.669 1_554 S
O663 C651 1.265 . S
H664 C637 0.930 . S
H665 C638 0.931 . S
H666 C640 0.934 . S
H667 C641 0.930 . S
H668 C646 0.930 . S
H669 C647 0.931 . S
H670 C649 0.934 . S
H671 C650 0.930 . S
Ho672 C675 2.811 . S
Ho672 O692 2.322 . S
Ho672 O694 2.378 . S
Ho672 O695 2.524 . S
Ho672 O696 2.381 . S
Ho672 O697 2.669 . S
Ho672 O699 2.346 . S
Ho672 O703 2.305 . S
Ho673 C684 2.811 . S
Ho673 O693 2.346 . S
Ho673 O697 2.305 . S
Ho673 O698 2.322 . S
Ho673 O700 2.378 . S
Ho673 O701 2.524 . S
Ho673 O702 2.381 . S
Ho673 O703 2.669 . S
C674 O692 1.259 . S
C674 O693 1.268 . S
C675 Ho672 2.811 . S
C675 C676 1.488 . S
C675 O694 1.215 . S
C675 O695 1.289 . S
C676 C675 1.488 . S
C676 C677 1.348 . S
C676 C681 1.413 . S
C677 C676 1.348 . S
C677 C678 1.442 . S
C677 H704 0.930 . S
C678 C677 1.442 . S
C678 C679 1.381 . S
C678 H705 0.931 . S
C679 C678 1.381 . S
C679 C680 1.321 . S
C680 C679 1.321 . S
C680 C681 1.403 . S
C680 H706 0.934 . S
C681 C676 1.413 . S
C681 C680 1.403 . S
C681 H707 0.930 . S
C682 O696 1.275 . S
C682 O697 1.256 . S
C683 O698 1.259 . S
C683 O699 1.268 . S
C684 Ho673 2.811 . S
C684 C685 1.488 . S
C684 O700 1.215 . S
C684 O701 1.289 . S
C685 C684 1.488 . S
C685 C686 1.348 . S
C685 C690 1.413 . S
C686 C685 1.348 . S
C686 C687 1.442 . S
C686 H708 0.930 . S
C687 C686 1.442 . S
C687 C688 1.381 . S
C687 H709 0.931 . S
C688 C687 1.381 . S
C688 C689 1.321 . S
C689 C688 1.321 . S
C689 C690 1.403 . S
C689 H710 0.934 . S
C690 C685 1.413 . S
C690 C689 1.403 . S
C690 H711 0.930 . S
C691 O702 1.275 . S
C691 O703 1.256 . S
O692 Ho672 2.322 . S
O692 C674 1.259 . S
O693 Ho673 2.346 . S
O693 C674 1.268 . S
O694 Ho672 2.378 . S
O694 C675 1.215 . S
O695 Ho672 2.524 . S
O695 C675 1.289 . S
O696 Ho672 2.381 . S
O696 C682 1.275 . S
O697 Ho672 2.669 . S
O697 Ho673 2.305 . S
O697 C682 1.256 . S
O698 Ho673 2.322 . S
O698 C683 1.259 . S
O699 Ho672 2.346 . S
O699 C683 1.268 . S
O700 Ho673 2.378 . S
O700 C684 1.215 . S
O701 Ho673 2.524 . S
O701 C684 1.289 . S
O702 Ho673 2.381 . S
O702 C691 1.275 . S
O703 Ho672 2.305 . S
O703 Ho673 2.669 . S
O703 C691 1.256 . S
H704 C677 0.930 . S
H705 C678 0.931 . S
H706 C680 0.934 . S
H707 C681 0.930 . S
H708 C686 0.930 . S
H709 C687 0.931 . S
H710 C689 0.934 . S
H711 C690 0.930 . S
Ho712 C715 2.811 . S
Ho712 O732 2.322 1_455 S
Ho712 O734 2.378 . S
Ho712 O735 2.524 . S
Ho712 O736 2.381 . S
Ho712 O737 2.669 . S
Ho712 O739 2.346 . S
Ho712 O743 2.305 . S
Ho713 C724 2.811 . S
Ho713 O733 2.346 1_455 S
Ho713 O737 2.305 . S
Ho713 O738 2.322 . S
Ho713 O740 2.378 . S
Ho713 O741 2.524 . S
Ho713 O742 2.381 . S
Ho713 O743 2.669 . S
C714 O732 1.259 . S
C714 O733 1.268 . S
C715 Ho712 2.811 . S
C715 C716 1.488 1_455 S
C715 O734 1.215 . S
C715 O735 1.289 . S
C716 C715 1.488 1_655 S
C716 C717 1.348 . S
C716 C721 1.413 . S
C717 C716 1.348 . S
C717 C718 1.442 . S
C717 H744 0.930 . S
C718 C717 1.442 . S
C718 C719 1.381 . S
C718 H745 0.931 . S
C719 C718 1.381 . S
C719 C720 1.321 . S
C720 C719 1.321 . S
C720 C721 1.403 . S
C720 H746 0.934 . S
C721 C716 1.413 . S
C721 C720 1.403 . S
C721 H747 0.930 1_655 S
C722 O736 1.275 . S
C722 O737 1.256 . S
C723 O738 1.259 . S
C723 O739 1.268 . S
C724 Ho713 2.811 . S
C724 C725 1.488 . S
C724 O740 1.215 . S
C724 O741 1.289 . S
C725 C724 1.488 . S
C725 C726 1.348 . S
C725 C730 1.413 . S
C726 C725 1.348 . S
C726 C727 1.442 . S
C726 H748 0.930 . S
C727 C726 1.442 . S
C727 C728 1.381 . S
C727 H749 0.931 . S
C728 C727 1.381 . S
C728 C729 1.321 . S
C729 C728 1.321 . S
C729 C730 1.403 . S
C729 H750 0.934 . S
C730 C725 1.413 . S
C730 C729 1.403 . S
C730 H751 0.930 . S
C731 O742 1.275 . S
C731 O743 1.256 . S
O732 Ho712 2.322 1_655 S
O732 C714 1.259 . S
O733 Ho713 2.346 1_655 S
O733 C714 1.268 . S
O734 Ho712 2.378 . S
O734 C715 1.215 . S
O735 Ho712 2.524 . S
O735 C715 1.289 . S
O736 Ho712 2.381 . S
O736 C722 1.275 . S
O737 Ho712 2.669 . S
O737 Ho713 2.305 . S
O737 C722 1.256 . S
O738 Ho713 2.322 . S
O738 C723 1.259 . S
O739 Ho712 2.346 . S
O739 C723 1.268 . S
O740 Ho713 2.378 . S
O740 C724 1.215 . S
O741 Ho713 2.524 . S
O741 C724 1.289 . S
O742 Ho713 2.381 . S
O742 C731 1.275 . S
O743 Ho712 2.305 . S
O743 Ho713 2.669 . S
O743 C731 1.256 . S
H744 C717 0.930 . S
H745 C718 0.931 . S
H746 C720 0.934 . S
H747 C721 0.930 1_455 S
H748 C726 0.930 . S
H749 C727 0.931 . S
H750 C729 0.934 . S
H751 C730 0.930 . S
Ho752 C755 2.811 . S
Ho752 O772 2.322 . S
Ho752 O774 2.378 . S
Ho752 O775 2.524 . S
Ho752 O776 2.381 . S
Ho752 O777 2.669 . S
Ho752 O779 2.346 . S
Ho752 O783 2.305 . S
Ho753 C764 2.811 . S
Ho753 O773 2.346 . S
Ho753 O777 2.305 . S
Ho753 O778 2.322 . S
Ho753 O780 2.378 . S
Ho753 O781 2.524 . S
Ho753 O782 2.381 . S
Ho753 O783 2.669 . S
C754 O772 1.259 . S
C754 O773 1.268 . S
C755 Ho752 2.811 . S
C755 C756 1.488 . S
C755 O774 1.215 . S
C755 O775 1.289 . S
C756 C755 1.488 . S
C756 C757 1.348 . S
C756 C761 1.413 . S
C757 C756 1.348 . S
C757 C758 1.442 . S
C757 H784 0.930 . S
C758 C757 1.442 . S
C758 C759 1.381 . S
C758 H785 0.931 . S
C759 C758 1.381 . S
C759 C760 1.321 . S
C760 C759 1.321 . S
C760 C761 1.403 . S
C760 H786 0.934 . S
C761 C756 1.413 . S
C761 C760 1.403 . S
C761 H787 0.930 . S
C762 O776 1.275 . S
C762 O777 1.256 . S
C763 O778 1.259 . S
C763 O779 1.268 . S
C764 Ho753 2.811 . S
C764 C765 1.488 . S
C764 O780 1.215 . S
C764 O781 1.289 . S
C765 C764 1.488 . S
C765 C766 1.348 . S
C765 C770 1.413 . S
C766 C765 1.348 . S
C766 C767 1.442 . S
C766 H788 0.930 . S
C767 C766 1.442 . S
C767 C768 1.381 . S
C767 H789 0.931 . S
C768 C767 1.381 . S
C768 C769 1.321 . S
C769 C768 1.321 . S
C769 C770 1.403 . S
C769 H790 0.934 . S
C770 C765 1.413 . S
C770 C769 1.403 . S
C770 H791 0.930 . S
C771 O782 1.275 . S
C771 O783 1.256 . S
O772 Ho752 2.322 . S
O772 C754 1.259 . S
O773 Ho753 2.346 . S
O773 C754 1.268 . S
O774 Ho752 2.378 . S
O774 C755 1.215 . S
O775 Ho752 2.524 . S
O775 C755 1.289 . S
O776 Ho752 2.381 . S
O776 C762 1.275 . S
O777 Ho752 2.669 . S
O777 Ho753 2.305 . S
O777 C762 1.256 . S
O778 Ho753 2.322 . S
O778 C763 1.259 . S
O779 Ho752 2.346 . S
O779 C763 1.268 . S
O780 Ho753 2.378 . S
O780 C764 1.215 . S
O781 Ho753 2.524 . S
O781 C764 1.289 . S
O782 Ho753 2.381 . S
O782 C771 1.275 . S
O783 Ho752 2.305 . S
O783 Ho753 2.669 . S
O783 C771 1.256 . S
H784 C757 0.930 . S
H785 C758 0.931 . S
H786 C760 0.934 . S
H787 C761 0.930 . S
H788 C766 0.930 . S
H789 C767 0.931 . S
H790 C769 0.934 . S
H791 C770 0.930 . S
Ho792 C795 2.811 . S
Ho792 O812 2.322 . S
Ho792 O814 2.378 . S
Ho792 O815 2.524 . S
Ho792 O816 2.381 . S
Ho792 O817 2.669 . S
Ho792 O819 2.346 . S
Ho792 O823 2.305 . S
Ho793 C804 2.811 . S
Ho793 O813 2.346 . S
Ho793 O817 2.305 . S
Ho793 O818 2.322 . S
Ho793 O820 2.378 . S
Ho793 O821 2.524 . S
Ho793 O822 2.381 . S
Ho793 O823 2.669 . S
C794 O812 1.259 . S
C794 O813 1.268 . S
C795 Ho792 2.811 . S
C795 C796 1.488 . S
C795 O814 1.215 . S
C795 O815 1.289 . S
C796 C795 1.488 . S
C796 C797 1.348 . S
C796 C801 1.413 . S
C797 C796 1.348 . S
C797 C798 1.442 . S
C797 H824 0.930 . S
C798 C797 1.442 . S
C798 C799 1.381 . S
C798 H825 0.931 . S
C799 C798 1.381 . S
C799 C800 1.321 . S
C800 C799 1.321 . S
C800 C801 1.403 . S
C800 H826 0.934 . S
C801 C796 1.413 . S
C801 C800 1.403 . S
C801 H827 0.930 . S
C802 O816 1.275 . S
C802 O817 1.256 . S
C803 O818 1.259 . S
C803 O819 1.268 . S
C804 Ho793 2.811 . S
C804 C805 1.488 . S
C804 O820 1.215 . S
C804 O821 1.289 . S
C805 C804 1.488 . S
C805 C806 1.348 . S
C805 C810 1.413 . S
C806 C805 1.348 . S
C806 C807 1.442 . S
C806 H828 0.930 . S
C807 C806 1.442 . S
C807 C808 1.381 . S
C807 H829 0.931 . S
C808 C807 1.381 . S
C808 C809 1.321 . S
C809 C808 1.321 . S
C809 C810 1.403 . S
C809 H830 0.934 . S
C810 C805 1.413 . S
C810 C809 1.403 . S
C810 H831 0.930 . S
C811 O822 1.275 . S
C811 O823 1.256 . S
O812 Ho792 2.322 . S
O812 C794 1.259 . S
O813 Ho793 2.346 . S
O813 C794 1.268 . S
O814 Ho792 2.378 . S
O814 C795 1.215 . S
O815 Ho792 2.524 . S
O815 C795 1.289 . S
O816 Ho792 2.381 . S
O816 C802 1.275 . S
O817 Ho792 2.669 . S
O817 Ho793 2.305 . S
O817 C802 1.256 . S
O818 Ho793 2.322 . S
O818 C803 1.259 . S
O819 Ho792 2.346 . S
O819 C803 1.268 . S
O820 Ho793 2.378 . S
O820 C804 1.215 . S
O821 Ho793 2.524 . S
O821 C804 1.289 . S
O822 Ho793 2.381 . S
O822 C811 1.275 . S
O823 Ho792 2.305 . S
O823 Ho793 2.669 . S
O823 C811 1.256 . S
H824 C797 0.930 . S
H825 C798 0.931 . S
H826 C800 0.934 . S
H827 C801 0.930 . S
H828 C806 0.930 . S
H829 C807 0.931 . S
H830 C809 0.934 . S
H831 C810 0.930 . S
Ho832 C835 2.811 . S
Ho832 O852 2.322 . S
Ho832 O854 2.378 . S
Ho832 O855 2.524 . S
Ho832 O856 2.381 . S
Ho832 O857 2.669 . S
Ho832 O859 2.346 . S
Ho832 O863 2.305 . S
Ho833 C844 2.811 . S
Ho833 O853 2.346 . S
Ho833 O857 2.305 . S
Ho833 O858 2.322 . S
Ho833 O860 2.378 . S
Ho833 O861 2.524 . S
Ho833 O862 2.381 . S
Ho833 O863 2.669 . S
C834 O852 1.259 . S
C834 O853 1.268 . S
C835 Ho832 2.811 . S
C835 C836 1.488 . S
C835 O854 1.215 . S
C835 O855 1.289 . S
C836 C835 1.488 . S
C836 C837 1.348 . S
C836 C841 1.413 . S
C837 C836 1.348 . S
C837 C838 1.442 . S
C837 H864 0.930 . S
C838 C837 1.442 . S
C838 C839 1.381 . S
C838 H865 0.931 . S
C839 C838 1.381 . S
C839 C840 1.321 . S
C840 C839 1.321 . S
C840 C841 1.403 . S
C840 H866 0.934 . S
C841 C836 1.413 . S
C841 C840 1.403 . S
C841 H867 0.930 . S
C842 O856 1.275 . S
C842 O857 1.256 . S
C843 O858 1.259 . S
C843 O859 1.268 . S
C844 Ho833 2.811 . S
C844 C845 1.488 . S
C844 O860 1.215 . S
C844 O861 1.289 . S
C845 C844 1.488 . S
C845 C846 1.348 . S
C845 C850 1.413 . S
C846 C845 1.348 . S
C846 C847 1.442 . S
C846 H868 0.930 . S
C847 C846 1.442 . S
C847 C848 1.381 . S
C847 H869 0.931 . S
C848 C847 1.381 . S
C848 C849 1.321 . S
C849 C848 1.321 . S
C849 C850 1.403 . S
C849 H870 0.934 . S
C850 C845 1.413 . S
C850 C849 1.403 . S
C850 H871 0.930 . S
C851 O862 1.275 . S
C851 O863 1.256 . S
O852 Ho832 2.322 . S
O852 C834 1.259 . S
O853 Ho833 2.346 . S
O853 C834 1.268 . S
O854 Ho832 2.378 . S
O854 C835 1.215 . S
O855 Ho832 2.524 . S
O855 C835 1.289 . S
O856 Ho832 2.381 . S
O856 C842 1.275 . S
O857 Ho832 2.669 . S
O857 Ho833 2.305 . S
O857 C842 1.256 . S
O858 Ho833 2.322 . S
O858 C843 1.259 . S
O859 Ho832 2.346 . S
O859 C843 1.268 . S
O860 Ho833 2.378 . S
O860 C844 1.215 . S
O861 Ho833 2.524 . S
O861 C844 1.289 . S
O862 Ho833 2.381 . S
O862 C851 1.275 . S
O863 Ho832 2.305 . S
O863 Ho833 2.669 . S
O863 C851 1.256 . S
H864 C837 0.930 . S
H865 C838 0.931 . S
H866 C840 0.934 . S
H867 C841 0.930 . S
H868 C846 0.930 . S
H869 C847 0.931 . S
H870 C849 0.934 . S
H871 C850 0.930 . S
Ho872 C875 2.811 . S
Ho872 O892 2.322 . S
Ho872 O894 2.378 . S
Ho872 O895 2.524 . S
Ho872 O896 2.381 . S
Ho872 O897 2.669 . S
Ho872 O899 2.346 . S
Ho872 O903 2.305 . S
Ho873 C884 2.811 . S
Ho873 O893 2.346 . S
Ho873 O897 2.305 . S
Ho873 O898 2.322 . S
Ho873 O900 2.378 . S
Ho873 O901 2.524 . S
Ho873 O902 2.381 . S
Ho873 O903 2.669 . S
C874 O892 1.259 . S
C874 O893 1.268 . S
C875 Ho872 2.811 . S
C875 C876 1.488 . S
C875 O894 1.215 . S
C875 O895 1.289 . S
C876 C875 1.488 . S
C876 C877 1.348 . S
C876 C881 1.413 . S
C877 C876 1.348 . S
C877 C878 1.442 . S
C877 H904 0.930 . S
C878 C877 1.442 . S
C878 C879 1.381 . S
C878 H905 0.931 . S
C879 C878 1.381 . S
C879 C880 1.321 . S
C880 C879 1.321 . S
C880 C881 1.403 . S
C880 H906 0.934 . S
C881 C876 1.413 . S
C881 C880 1.403 . S
C881 H907 0.930 . S
C882 O896 1.275 . S
C882 O897 1.256 . S
C883 O898 1.259 . S
C883 O899 1.268 . S
C884 Ho873 2.811 . S
C884 C885 1.488 . S
C884 O900 1.215 . S
C884 O901 1.289 . S
C885 C884 1.488 . S
C885 C886 1.348 . S
C885 C890 1.413 . S
C886 C885 1.348 . S
C886 C887 1.442 . S
C886 H908 0.930 . S
C887 C886 1.442 . S
C887 C888 1.381 . S
C887 H909 0.931 . S
C888 C887 1.381 . S
C888 C889 1.321 . S
C889 C888 1.321 . S
C889 C890 1.403 . S
C889 H910 0.934 . S
C890 C885 1.413 . S
C890 C889 1.403 . S
C890 H911 0.930 . S
C891 O902 1.275 . S
C891 O903 1.256 . S
O892 Ho872 2.322 . S
O892 C874 1.259 . S
O893 Ho873 2.346 . S
O893 C874 1.268 . S
O894 Ho872 2.378 . S
O894 C875 1.215 . S
O895 Ho872 2.524 . S
O895 C875 1.289 . S
O896 Ho872 2.381 . S
O896 C882 1.275 . S
O897 Ho872 2.669 . S
O897 Ho873 2.305 . S
O897 C882 1.256 . S
O898 Ho873 2.322 . S
O898 C883 1.259 . S
O899 Ho872 2.346 . S
O899 C883 1.268 . S
O900 Ho873 2.378 . S
O900 C884 1.215 . S
O901 Ho873 2.524 . S
O901 C884 1.289 . S
O902 Ho873 2.381 . S
O902 C891 1.275 . S
O903 Ho872 2.305 . S
O903 Ho873 2.669 . S
O903 C891 1.256 . S
H904 C877 0.930 . S
H905 C878 0.931 . S
H906 C880 0.934 . S
H907 C881 0.930 . S
H908 C886 0.930 . S
H909 C887 0.931 . S
H910 C889 0.934 . S
H911 C890 0.930 . S
Ho912 C915 2.811 . S
Ho912 O932 2.322 . S
Ho912 O934 2.378 . S
Ho912 O935 2.524 . S
Ho912 O936 2.381 1_554 S
Ho912 O937 2.669 . S
Ho912 O939 2.346 . S
Ho912 O943 2.305 . S
Ho913 C924 2.811 1_455 S
Ho913 O933 2.346 . S
Ho913 O937 2.305 . S
Ho913 O938 2.322 . S
Ho913 O940 2.378 1_455 S
Ho913 O941 2.524 1_455 S
Ho913 O942 2.381 . S
Ho913 O943 2.669 . S
C914 O932 1.259 . S
C914 O933 1.268 . S
C915 Ho912 2.811 . S
C915 C916 1.488 . S
C915 O934 1.215 . S
C915 O935 1.289 . S
C916 C915 1.488 . S
C916 C917 1.348 . S
C916 C921 1.413 1_554 S
C917 C916 1.348 . S
C917 C918 1.442 . S
C917 H944 0.930 . S
C918 C917 1.442 . S
C918 C919 1.381 . S
C918 H945 0.931 . S
C919 C918 1.381 . S
C919 C920 1.321 1_554 S
C920 C919 1.321 1_556 S
C920 C921 1.403 . S
C920 H946 0.934 . S
C921 C916 1.413 1_556 S
C921 C920 1.403 . S
C921 H947 0.930 . S
C922 O936 1.275 . S
C922 O937 1.256 1_556 S
C923 O938 1.259 . S
C923 O939 1.268 . S
C924 Ho913 2.811 1_655 S
C924 C925 1.488 . S
C924 O940 1.215 . S
C924 O941 1.289 . S
C925 C924 1.488 . S
C925 C926 1.348 . S
C925 C930 1.413 . S
C926 C925 1.348 . S
C926 C927 1.442 . S
C926 H948 0.930 . S
C927 C926 1.442 . S
C927 C928 1.381 . S
C927 H949 0.931 . S
C928 C927 1.381 . S
C928 C929 1.321 . S
C929 C928 1.321 . S
C929 C930 1.403 . S
C929 H950 0.934 . S
C930 C925 1.413 . S
C930 C929 1.403 . S
C930 H951 0.930 . S
C931 O942 1.275 . S
C931 O943 1.256 . S
O932 Ho912 2.322 . S
O932 C914 1.259 . S
O933 Ho913 2.346 . S
O933 C914 1.268 . S
O934 Ho912 2.378 . S
O934 C915 1.215 . S
O935 Ho912 2.524 . S
O935 C915 1.289 . S
O936 Ho912 2.381 1_556 S
O936 C922 1.275 . S
O937 Ho912 2.669 . S
O937 Ho913 2.305 . S
O937 C922 1.256 1_554 S
O938 Ho913 2.322 . S
O938 C923 1.259 . S
O939 Ho912 2.346 . S
O939 C923 1.268 . S
O940 Ho913 2.378 1_655 S
O940 C924 1.215 . S
O941 Ho913 2.524 1_655 S
O941 C924 1.289 . S
O942 Ho913 2.381 . S
O942 C931 1.275 . S
O943 Ho912 2.305 . S
O943 Ho913 2.669 . S
O943 C931 1.256 . S
H944 C917 0.930 . S
H945 C918 0.931 . S
H946 C920 0.934 . S
H947 C921 0.930 . S
H948 C926 0.930 . S
H949 C927 0.931 . S
H950 C929 0.934 . S
H951 C930 0.930 . S
H952 C970 0.951 . S
H953 C972 0.951 . S
H954 C974 0.950 1_655 S
H955 C975 0.950 1_655 S
H956 C977 0.950 . S
H957 C980 0.950 . S
H958 C981 0.950 . S
H959 C983 0.950 . S
H960 C984 0.950 . S
H961 C985 0.951 . S
H962 C987 0.951 . S
H963 C989 0.950 . S
H964 C990 0.950 . S
H965 C992 0.950 . S
H966 C995 0.950 . S
H967 C996 0.950 . S
H968 C998 0.983 . S
H969 C999 0.950 1_655 S
C970 H952 0.951 . S
C970 C971 1.366 . S
C970 C972 1.388 . S
C971 C970 1.366 . S
C971 C975 1.385 . S
C972 H953 0.951 . S
C972 C970 1.388 . S
C972 C973 1.366 . S
C973 C972 1.366 . S
C973 C974 1.414 . S
C973 C976 1.499 . S
C974 H954 0.950 1_455 S
C974 C973 1.414 . S
C974 C975 1.374 . S
C975 H955 0.950 1_455 S
C975 C971 1.385 . S
C975 C974 1.374 . S
C976 C973 1.499 . S
C976 C977 1.373 . S
C976 C978 1.389 . S
C977 H956 0.950 . S
C977 C976 1.373 . S
C977 C993 1.377 . S
C978 C976 1.389 . S
C978 C979 1.524 . S
C978 C992 1.377 . S
C979 C978 1.524 . S
C979 C980 1.397 . S
C979 C984 1.363 . S
C980 H957 0.950 . S
C980 C979 1.397 . S
C980 C981 1.334 . S
C981 H958 0.950 . S
C981 C980 1.334 . S
C981 C982 1.287 . S
C982 C981 1.287 . S
C982 C983 1.524 . S
C982 H1001 0.913 . S
C983 H959 0.950 . S
C983 C982 1.524 . S
C983 C984 1.415 . S
C984 H960 0.950 . S
C984 C979 1.363 . S
C984 C983 1.415 . S
C985 H961 0.951 . S
C985 C986 1.366 . S
C985 C987 1.388 . S
C986 C985 1.366 . S
C986 C990 1.385 . S
C987 H962 0.951 . S
C987 C985 1.388 . S
C987 C988 1.366 1_554 S
C988 C987 1.366 1_556 S
C988 C989 1.414 . S
C988 C991 1.499 . S
C989 H963 0.950 . S
C989 C988 1.414 . S
C989 C990 1.374 1_556 S
C990 H964 0.950 . S
C990 C986 1.385 . S
C990 C989 1.374 1_554 S
C991 C988 1.499 . S
C991 C992 1.373 . S
C991 C993 1.389 . S
C992 H965 0.950 . S
C992 C978 1.377 . S
C992 C991 1.373 . S
C993 C977 1.377 . S
C993 C991 1.389 . S
C993 C994 1.524 1_556 S
C994 C993 1.524 1_554 S
C994 C995 1.397 . S
C994 C999 1.363 . S
C995 H966 0.950 . S
C995 C994 1.397 . S
C995 C996 1.334 . S
C996 H967 0.950 . S
C996 C995 1.334 . S
C996 C997 1.287 . S
C997 C996 1.287 . S
C997 C998 1.496 1_455 S
C997 H1000 0.999 . S
C998 H968 0.983 . S
C998 C997 1.496 1_655 S
C998 C999 1.405 1_655 S
C999 H969 0.950 1_455 S
C999 C994 1.363 . S
C999 C998 1.405 1_455 S
H1000 C997 0.999 . S
H1001 C982 0.913 . S
H1002 C1020 0.951 . S
H1003 C1022 0.951 . S
H1004 C1024 0.950 . S
H1005 C1025 0.950 . S
H1006 C1027 0.950 . S
H1007 C1030 0.950 . S
H1008 C1031 0.950 . S
H1009 C1033 0.950 . S
H1010 C1034 0.950 . S
H1011 C1035 0.951 . S
H1012 C1037 0.951 . S
H1013 C1039 0.950 . S
H1014 C1040 0.950 . S
H1015 C1042 0.950 . S
H1016 C1045 0.950 . S
H1017 C1046 0.950 . S
H1018 C1048 0.950 . S
H1019 C1049 0.950 . S
C1020 H1002 0.951 . S
C1020 C1021 1.366 . S
C1020 C1022 1.388 . S
C1021 C1020 1.366 . S
C1021 C1025 1.385 . S
C1022 H1003 0.951 . S
C1022 C1020 1.388 . S
C1022 C1023 1.366 . S
C1023 C1022 1.366 . S
C1023 C1024 1.414 . S
C1023 C1026 1.499 . S
C1024 H1004 0.950 . S
C1024 C1023 1.414 . S
C1024 C1025 1.374 . S
C1025 H1005 0.950 . S
C1025 C1021 1.385 . S
C1025 C1024 1.374 . S
C1026 C1023 1.499 . S
C1026 C1027 1.373 . S
C1026 C1028 1.389 . S
C1027 H1006 0.950 . S
C1027 C1026 1.373 . S
C1027 C1043 1.377 . S
C1028 C1026 1.389 . S
C1028 C1029 1.524 . S
C1028 C1042 1.377 . S
C1029 C1028 1.524 . S
C1029 C1030 1.397 . S
C1029 C1034 1.363 . S
C1030 H1007 0.950 . S
C1030 C1029 1.397 . S
C1030 C1031 1.334 . S
C1031 H1008 0.950 . S
C1031 C1030 1.334 . S
C1031 C1032 1.287 . S
C1032 C1031 1.287 . S
C1032 C1033 1.524 . S
C1032 H1051 0.913 . S
C1033 H1009 0.950 . S
C1033 C1032 1.524 . S
C1033 C1034 1.415 . S
C1034 H1010 0.950 . S
C1034 C1029 1.363 . S
C1034 C1033 1.415 . S
C1035 H1011 0.951 . S
C1035 C1036 1.366 . S
C1035 C1037 1.388 . S
C1036 C1035 1.366 . S
C1036 C1040 1.385 . S
C1037 H1012 0.951 . S
C1037 C1035 1.388 . S
C1037 C1038 1.366 . S
C1038 C1037 1.366 . S
C1038 C1039 1.414 . S
C1038 C1041 1.499 . S
C1039 H1013 0.950 . S
C1039 C1038 1.414 . S
C1039 C1040 1.374 . S
C1040 H1014 0.950 . S
C1040 C1036 1.385 . S
C1040 C1039 1.374 . S
C1041 C1038 1.499 . S
C1041 C1042 1.373 . S
C1041 C1043 1.389 . S
C1042 H1015 0.950 . S
C1042 C1028 1.377 . S
C1042 C1041 1.373 . S
C1043 C1027 1.377 . S
C1043 C1041 1.389 . S
C1043 C1044 1.524 . S
C1044 C1043 1.524 . S
C1044 C1045 1.397 . S
C1044 C1049 1.363 . S
C1045 H1016 0.950 . S
C1045 C1044 1.397 . S
C1045 C1046 1.334 . S
C1046 H1017 0.950 . S
C1046 C1045 1.334 . S
C1046 C1047 1.287 . S
C1047 C1046 1.287 . S
C1047 C1048 1.524 . S
C1047 H1050 0.999 . S
C1048 H1018 0.950 . S
C1048 C1047 1.524 . S
C1048 C1049 1.415 . S
C1049 H1019 0.950 . S
C1049 C1044 1.363 . S
C1049 C1048 1.415 . S
H1050 C1047 0.999 . S
H1051 C1032 0.913 . S
H1052 C1070 0.951 . S
H1053 C1072 0.951 . S
H1054 C1074 0.950 . S
H1055 C1075 0.950 . S
H1056 C1077 0.950 . S
H1057 C1080 0.950 . S
H1058 C1081 0.950 . S
H1059 C1083 0.950 . S
H1060 C1084 0.950 . S
H1061 C1085 0.951 . S
H1062 C1087 0.951 . S
H1063 C1089 0.950 . S
H1064 C1090 0.950 . S
H1065 C1092 0.950 . S
H1066 C1095 0.950 . S
H1067 C1096 0.950 . S
H1068 C1098 0.950 . S
H1069 C1099 0.950 . S
C1070 H1052 0.951 . S
C1070 C1071 1.366 . S
C1070 C1072 1.388 . S
C1071 C1070 1.366 . S
C1071 C1075 1.385 . S
C1072 H1053 0.951 . S
C1072 C1070 1.388 . S
C1072 C1073 1.366 . S
C1073 C1072 1.366 . S
C1073 C1074 1.414 . S
C1073 C1076 1.499 . S
C1074 H1054 0.950 . S
C1074 C1073 1.414 . S
C1074 C1075 1.374 . S
C1075 H1055 0.950 . S
C1075 C1071 1.385 . S
C1075 C1074 1.374 . S
C1076 C1073 1.499 . S
C1076 C1077 1.373 . S
C1076 C1078 1.389 . S
C1077 H1056 0.950 . S
C1077 C1076 1.373 . S
C1077 C1093 1.377 . S
C1078 C1076 1.389 . S
C1078 C1079 1.524 . S
C1078 C1092 1.377 . S
C1079 C1078 1.524 . S
C1079 C1080 1.397 . S
C1079 C1084 1.363 . S
C1080 H1057 0.950 . S
C1080 C1079 1.397 . S
C1080 C1081 1.334 . S
C1081 H1058 0.950 . S
C1081 C1080 1.334 . S
C1081 C1082 1.287 . S
C1082 C1081 1.287 . S
C1082 C1083 1.524 . S
C1082 H1101 0.913 . S
C1083 H1059 0.950 . S
C1083 C1082 1.524 . S
C1083 C1084 1.415 . S
C1084 H1060 0.950 . S
C1084 C1079 1.363 . S
C1084 C1083 1.415 . S
C1085 H1061 0.951 . S
C1085 C1086 1.366 . S
C1085 C1087 1.388 . S
C1086 C1085 1.366 . S
C1086 C1090 1.385 . S
C1087 H1062 0.951 . S
C1087 C1085 1.388 . S
C1087 C1088 1.366 . S
C1088 C1087 1.366 . S
C1088 C1089 1.414 . S
C1088 C1091 1.499 . S
C1089 H1063 0.950 . S
C1089 C1088 1.414 . S
C1089 C1090 1.374 . S
C1090 H1064 0.950 . S
C1090 C1086 1.385 . S
C1090 C1089 1.374 . S
C1091 C1088 1.499 . S
C1091 C1092 1.373 . S
C1091 C1093 1.389 . S
C1092 H1065 0.950 . S
C1092 C1078 1.377 . S
C1092 C1091 1.373 . S
C1093 C1077 1.377 . S
C1093 C1091 1.389 . S
C1093 C1094 1.524 . S
C1094 C1093 1.524 . S
C1094 C1095 1.397 . S
C1094 C1099 1.363 . S
C1095 H1066 0.950 . S
C1095 C1094 1.397 . S
C1095 C1096 1.334 . S
C1096 H1067 0.950 . S
C1096 C1095 1.334 . S
C1096 C1097 1.287 . S
C1097 C1096 1.287 . S
C1097 C1098 1.524 . S
C1097 H1100 0.999 . S
C1098 H1068 0.950 . S
C1098 C1097 1.524 . S
C1098 C1099 1.415 . S
C1099 H1069 0.950 . S
C1099 C1094 1.363 . S
C1099 C1098 1.415 . S
H1100 C1097 0.999 . S
H1101 C1082 0.913 . S
H1102 C1120 0.951 . S
H1103 C1122 0.951 . S
H1104 C1124 0.950 . S
H1105 C1125 0.950 . S
H1106 C1127 0.950 . S
H1107 C1130 0.950 . S
H1108 C1131 0.950 . S
H1109 C1133 0.950 . S
H1110 C1134 0.950 . S
H1111 C1135 0.951 . S
H1112 C1137 0.951 . S
H1113 C1139 0.950 . S
H1114 C1140 0.950 . S
H1115 C1142 0.950 . S
H1116 C1145 0.950 . S
H1117 C1146 0.950 . S
H1118 C1148 0.950 . S
H1119 C1149 0.950 . S
C1120 H1102 0.951 . S
C1120 C1121 1.366 . S
C1120 C1122 1.388 . S
C1121 C1120 1.366 . S
C1121 C1125 1.385 . S
C1122 H1103 0.951 . S
C1122 C1120 1.388 . S
C1122 C1123 1.366 . S
C1123 C1122 1.366 . S
C1123 C1124 1.414 . S
C1123 C1126 1.499 . S
C1124 H1104 0.950 . S
C1124 C1123 1.414 . S
C1124 C1125 1.374 . S
C1125 H1105 0.950 . S
C1125 C1121 1.385 . S
C1125 C1124 1.374 . S
C1126 C1123 1.499 . S
C1126 C1127 1.373 . S
C1126 C1128 1.389 . S
C1127 H1106 0.950 . S
C1127 C1126 1.373 . S
C1127 C1143 1.377 . S
C1128 C1126 1.389 . S
C1128 C1129 1.524 . S
C1128 C1142 1.377 . S
C1129 C1128 1.524 . S
C1129 C1130 1.397 . S
C1129 C1134 1.363 . S
C1130 H1107 0.950 . S
C1130 C1129 1.397 . S
C1130 C1131 1.334 . S
C1131 H1108 0.950 . S
C1131 C1130 1.334 . S
C1131 C1132 1.287 . S
C1132 C1131 1.287 . S
C1132 C1133 1.524 . S
C1132 H1151 0.913 . S
C1133 H1109 0.950 . S
C1133 C1132 1.524 . S
C1133 C1134 1.415 . S
C1134 H1110 0.950 . S
C1134 C1129 1.363 . S
C1134 C1133 1.415 . S
C1135 H1111 0.951 . S
C1135 C1136 1.366 . S
C1135 C1137 1.388 . S
C1136 C1135 1.366 . S
C1136 C1140 1.385 . S
C1137 H1112 0.951 . S
C1137 C1135 1.388 . S
C1137 C1138 1.366 . S
C1138 C1137 1.366 . S
C1138 C1139 1.414 . S
C1138 C1141 1.499 . S
C1139 H1113 0.950 . S
C1139 C1138 1.414 . S
C1139 C1140 1.374 . S
C1140 H1114 0.950 . S
C1140 C1136 1.385 . S
C1140 C1139 1.374 . S
C1141 C1138 1.499 . S
C1141 C1142 1.373 . S
C1141 C1143 1.389 . S
C1142 H1115 0.950 . S
C1142 C1128 1.377 . S
C1142 C1141 1.373 . S
C1143 C1127 1.377 . S
C1143 C1141 1.389 . S
C1143 C1144 1.524 . S
C1144 C1143 1.524 . S
C1144 C1145 1.397 . S
C1144 C1149 1.363 . S
C1145 H1116 0.950 . S
C1145 C1144 1.397 . S
C1145 C1146 1.334 . S
C1146 H1117 0.950 . S
C1146 C1145 1.334 . S
C1146 C1147 1.287 . S
C1147 C1146 1.287 . S
C1147 C1148 1.524 . S
C1147 H1150 0.999 . S
C1148 H1118 0.950 . S
C1148 C1147 1.524 . S
C1148 C1149 1.415 . S
C1149 H1119 0.950 . S
C1149 C1144 1.363 . S
C1149 C1148 1.415 . S
H1150 C1147 0.999 . S
H1151 C1132 0.913 . S
H1152 C1170 0.951 . S
H1153 C1172 0.951 . S
H1154 C1174 0.950 . S
H1155 C1175 0.950 . S
H1156 C1177 0.950 . S
H1157 C1180 0.950 . S
H1158 C1181 0.950 . S
H1159 C1183 0.950 . S
H1160 C1184 0.950 . S
H1161 C1185 0.951 . S
H1162 C1187 0.951 . S
H1163 C1189 0.950 . S
H1164 C1190 0.950 . S
H1165 C1192 0.950 . S
H1166 C1195 0.950 . S
H1167 C1196 0.951 1_655 S
H1168 C1198 0.950 . S
H1169 C1199 0.950 . S
C1170 H1152 0.951 . S
C1170 C1171 1.366 . S
C1170 C1172 1.388 . S
C1171 C1170 1.366 . S
C1171 C1175 1.385 . S
C1172 H1153 0.951 . S
C1172 C1170 1.388 . S
C1172 C1173 1.366 . S
C1173 C1172 1.366 . S
C1173 C1174 1.414 . S
C1173 C1176 1.499 . S
C1174 H1154 0.950 . S
C1174 C1173 1.414 . S
C1174 C1175 1.374 . S
C1175 H1155 0.950 . S
C1175 C1171 1.385 . S
C1175 C1174 1.374 . S
C1176 C1173 1.499 . S
C1176 C1177 1.373 . S
C1176 C1178 1.389 . S
C1177 H1156 0.950 . S
C1177 C1176 1.373 . S
C1177 C1193 1.377 . S
C1178 C1176 1.389 . S
C1178 C1179 1.524 . S
C1178 C1192 1.377 . S
C1179 C1178 1.524 . S
C1179 C1180 1.397 . S
C1179 C1184 1.363 . S
C1180 H1157 0.950 . S
C1180 C1179 1.397 . S
C1180 C1181 1.334 . S
C1181 H1158 0.950 . S
C1181 C1180 1.334 . S
C1181 C1182 1.287 . S
C1182 C1181 1.287 . S
C1182 C1183 1.524 . S
C1182 H1201 0.913 . S
C1183 H1159 0.950 . S
C1183 C1182 1.524 . S
C1183 C1184 1.415 . S
C1184 H1160 0.950 . S
C1184 C1179 1.363 . S
C1184 C1183 1.415 . S
C1185 H1161 0.951 . S
C1185 C1186 1.366 . S
C1185 C1187 1.388 . S
C1186 C1185 1.366 . S
C1186 C1190 1.385 . S
C1187 H1162 0.951 . S
C1187 C1185 1.388 . S
C1187 C1188 1.366 . S
C1188 C1187 1.366 . S
C1188 C1189 1.414 . S
C1188 C1191 1.499 . S
C1189 H1163 0.950 . S
C1189 C1188 1.414 . S
C1189 C1190 1.374 . S
C1190 H1164 0.950 . S
C1190 C1186 1.385 . S
C1190 C1189 1.374 . S
C1191 C1188 1.499 . S
C1191 C1192 1.373 . S
C1191 C1193 1.389 . S
C1192 H1165 0.950 . S
C1192 C1178 1.377 . S
C1192 C1191 1.373 . S
C1193 C1177 1.377 . S
C1193 C1191 1.389 . S
C1193 C1194 1.524 . S
C1194 C1193 1.524 . S
C1194 C1195 1.397 . S
C1194 C1199 1.363 . S
C1195 H1166 0.950 . S
C1195 C1194 1.397 . S
C1195 C1196 1.334 . S
C1196 H1167 0.951 1_455 S
C1196 C1195 1.334 . S
C1196 C1197 1.287 . S
C1197 C1196 1.287 . S
C1197 C1198 1.524 . S
C1197 H1200 0.999 . S
C1198 H1168 0.950 . S
C1198 C1197 1.524 . S
C1198 C1199 1.415 . S
C1199 H1169 0.950 . S
C1199 C1194 1.363 . S
C1199 C1198 1.415 . S
H1200 C1197 0.999 . S
H1201 C1182 0.913 . S
H1202 C1220 0.951 . S
H1203 C1222 0.951 . S
H1204 C1224 0.950 . S
H1205 C1225 0.950 . S
H1206 C1227 0.950 . S
H1207 C1230 0.950 . S
H1208 C1231 0.950 . S
H1209 C1233 0.950 . S
H1210 C1234 0.950 . S
H1211 C1235 0.951 . S
H1212 C1237 0.951 . S
H1213 C1239 0.950 . S
H1214 C1240 0.950 . S
H1215 C1242 0.950 . S
H1216 C1245 0.950 . S
H1217 C1246 0.950 . S
H1218 C1248 0.950 . S
H1219 C1249 0.950 . S
C1220 H1202 0.951 . S
C1220 C1221 1.366 . S
C1220 C1222 1.388 . S
C1221 C1220 1.366 . S
C1221 C1225 1.385 . S
C1222 H1203 0.951 . S
C1222 C1220 1.388 . S
C1222 C1223 1.366 . S
C1223 C1222 1.366 . S
C1223 C1224 1.414 . S
C1223 C1226 1.499 . S
C1224 H1204 0.950 . S
C1224 C1223 1.414 . S
C1224 C1225 1.374 . S
C1225 H1205 0.950 . S
C1225 C1221 1.385 . S
C1225 C1224 1.374 . S
C1226 C1223 1.499 . S
C1226 C1227 1.373 . S
C1226 C1228 1.389 . S
C1227 H1206 0.950 . S
C1227 C1226 1.373 . S
C1227 C1243 1.377 . S
C1228 C1226 1.389 . S
C1228 C1229 1.524 . S
C1228 C1242 1.377 . S
C1229 C1228 1.524 . S
C1229 C1230 1.397 . S
C1229 C1234 1.363 . S
C1230 H1207 0.950 . S
C1230 C1229 1.397 . S
C1230 C1231 1.334 . S
C1231 H1208 0.950 . S
C1231 C1230 1.334 . S
C1231 C1232 1.287 . S
C1232 C1231 1.287 . S
C1232 C1233 1.524 . S
C1232 H1251 0.913 . S
C1233 H1209 0.950 . S
C1233 C1232 1.524 . S
C1233 C1234 1.415 . S
C1234 H1210 0.950 . S
C1234 C1229 1.363 . S
C1234 C1233 1.415 . S
C1235 H1211 0.951 . S
C1235 C1236 1.366 . S
C1235 C1237 1.388 . S
C1236 C1235 1.366 . S
C1236 C1240 1.385 . S
C1237 H1212 0.951 . S
C1237 C1235 1.388 . S
C1237 C1238 1.366 . S
C1238 C1237 1.366 . S
C1238 C1239 1.414 . S
C1238 C1241 1.499 . S
C1239 H1213 0.950 . S
C1239 C1238 1.414 . S
C1239 C1240 1.374 . S
C1240 H1214 0.950 . S
C1240 C1236 1.385 . S
C1240 C1239 1.374 . S
C1241 C1238 1.499 . S
C1241 C1242 1.373 . S
C1241 C1243 1.389 . S
C1242 H1215 0.950 . S
C1242 C1228 1.377 . S
C1242 C1241 1.373 . S
C1243 C1227 1.377 . S
C1243 C1241 1.389 . S
C1243 C1244 1.524 . S
C1244 C1243 1.524 . S
C1244 C1245 1.397 . S
C1244 C1249 1.363 . S
C1245 H1216 0.950 . S
C1245 C1244 1.397 . S
C1245 C1246 1.334 . S
C1246 H1217 0.950 . S
C1246 C1245 1.334 . S
C1246 C1247 1.287 . S
C1247 C1246 1.287 . S
C1247 C1248 1.524 . S
C1247 H1250 0.999 . S
C1248 H1218 0.950 . S
C1248 C1247 1.524 . S
C1248 C1249 1.415 . S
C1249 H1219 0.950 . S
C1249 C1244 1.363 . S
C1249 C1248 1.415 . S
H1250 C1247 0.999 . S
H1251 C1232 0.913 . S
H1252 C1270 0.951 . S
H1253 C1272 0.951 . S
H1254 C1274 0.950 . S
H1255 C1275 0.950 . S
H1256 C1277 0.950 . S
H1257 C1280 0.950 . S
H1258 C1281 0.950 . S
H1259 C1283 0.950 . S
H1260 C1284 0.950 . S
H1261 C1285 0.951 . S
H1262 C1287 0.951 . S
H1263 C1289 0.950 . S
H1264 C1290 0.950 . S
H1265 C1292 0.950 . S
H1266 C1295 0.950 . S
H1267 C1296 0.950 . S
H1268 C1298 0.950 . S
H1269 C1299 0.950 . S
C1270 H1252 0.951 . S
C1270 C1271 1.366 . S
C1270 C1272 1.388 . S
C1271 C1270 1.366 . S
C1271 C1275 1.385 . S
C1272 H1253 0.951 . S
C1272 C1270 1.388 . S
C1272 C1273 1.366 . S
C1273 C1272 1.366 . S
C1273 C1274 1.414 . S
C1273 C1276 1.499 . S
C1274 H1254 0.950 . S
C1274 C1273 1.414 . S
C1274 C1275 1.374 . S
C1275 H1255 0.950 . S
C1275 C1271 1.385 . S
C1275 C1274 1.374 . S
C1276 C1273 1.499 . S
C1276 C1277 1.373 . S
C1276 C1278 1.389 . S
C1277 H1256 0.950 . S
C1277 C1276 1.373 . S
C1277 C1293 1.377 . S
C1278 C1276 1.389 . S
C1278 C1279 1.524 . S
C1278 C1292 1.377 . S
C1279 C1278 1.524 . S
C1279 C1280 1.397 . S
C1279 C1284 1.363 . S
C1280 H1257 0.950 . S
C1280 C1279 1.397 . S
C1280 C1281 1.334 . S
C1281 H1258 0.950 . S
C1281 C1280 1.334 . S
C1281 C1282 1.287 . S
C1282 C1281 1.287 . S
C1282 C1283 1.524 . S
C1282 H1301 0.913 . S
C1283 H1259 0.950 . S
C1283 C1282 1.524 . S
C1283 C1284 1.415 . S
C1284 H1260 0.950 . S
C1284 C1279 1.363 . S
C1284 C1283 1.415 . S
C1285 H1261 0.951 . S
C1285 C1286 1.366 . S
C1285 C1287 1.388 . S
C1286 C1285 1.366 . S
C1286 C1290 1.385 . S
C1287 H1262 0.951 . S
C1287 C1285 1.388 . S
C1287 C1288 1.366 . S
C1288 C1287 1.366 . S
C1288 C1289 1.414 . S
C1288 C1291 1.499 . S
C1289 H1263 0.950 . S
C1289 C1288 1.414 . S
C1289 C1290 1.374 . S
C1290 H1264 0.950 . S
C1290 C1286 1.385 . S
C1290 C1289 1.374 . S
C1291 C1288 1.499 . S
C1291 C1292 1.373 . S
C1291 C1293 1.389 . S
C1292 H1265 0.950 . S
C1292 C1278 1.377 . S
C1292 C1291 1.373 . S
C1293 C1277 1.377 . S
C1293 C1291 1.389 . S
C1293 C1294 1.524 . S
C1294 C1293 1.524 . S
C1294 C1295 1.397 . S
C1294 C1299 1.363 . S
C1295 H1266 0.950 . S
C1295 C1294 1.397 . S
C1295 C1296 1.334 . S
C1296 H1267 0.950 . S
C1296 C1295 1.334 . S
C1296 C1297 1.287 . S
C1297 C1296 1.287 . S
C1297 C1298 1.524 . S
C1297 H1300 1.047 . S
C1298 H1268 0.950 . S
C1298 C1297 1.524 . S
C1298 C1299 1.415 . S
C1299 H1269 0.950 . S
C1299 C1294 1.363 . S
C1299 C1298 1.415 . S
H1300 C1297 1.047 . S
H1301 C1282 0.913 . S
H1302 C1320 0.951 . S
H1303 C1322 0.951 . S
H1304 C1324 0.950 . S
H1305 C1325 0.950 . S
H1306 C1327 0.950 . S
H1307 C1330 0.950 . S
H1308 C1331 0.950 . S
H1309 C1333 0.950 . S
H1310 C1334 0.950 . S
H1311 C1335 0.951 . S
H1312 C1337 0.951 . S
H1313 C1339 0.950 . S
H1314 C1340 0.950 . S
H1315 C1342 0.950 . S
H1316 C1345 0.950 . S
H1317 C1346 0.950 . S
H1318 C1348 0.950 . S
H1319 C1349 0.950 . S
C1320 H1302 0.951 . S
C1320 C1321 1.366 . S
C1320 C1322 1.388 . S
C1321 C1320 1.366 . S
C1321 C1325 1.385 . S
C1322 H1303 0.951 . S
C1322 C1320 1.388 . S
C1322 C1323 1.366 . S
C1323 C1322 1.366 . S
C1323 C1324 1.414 . S
C1323 C1326 1.499 . S
C1324 H1304 0.950 . S
C1324 C1323 1.414 . S
C1324 C1325 1.374 . S
C1325 H1305 0.950 . S
C1325 C1321 1.385 . S
C1325 C1324 1.374 . S
C1326 C1323 1.499 . S
C1326 C1327 1.373 . S
C1326 C1328 1.389 . S
C1327 H1306 0.950 . S
C1327 C1326 1.373 . S
C1327 C1343 1.377 . S
C1328 C1326 1.389 . S
C1328 C1329 1.524 . S
C1328 C1342 1.377 . S
C1329 C1328 1.524 . S
C1329 C1330 1.397 . S
C1329 C1334 1.363 . S
C1330 H1307 0.950 . S
C1330 C1329 1.397 . S
C1330 C1331 1.334 . S
C1331 H1308 0.950 . S
C1331 C1330 1.334 . S
C1331 C1332 1.287 . S
C1332 C1331 1.287 . S
C1332 C1333 1.524 . S
C1332 H1351 0.913 . S
C1333 H1309 0.950 . S
C1333 C1332 1.524 . S
C1333 C1334 1.415 . S
C1334 H1310 0.950 . S
C1334 C1329 1.363 . S
C1334 C1333 1.415 . S
C1335 H1311 0.951 . S
C1335 C1336 1.366 . S
C1335 C1337 1.388 . S
C1336 C1335 1.366 . S
C1336 C1340 1.385 . S
C1337 H1312 0.951 . S
C1337 C1335 1.388 . S
C1337 C1338 1.366 . S
C1338 C1337 1.366 . S
C1338 C1339 1.414 . S
C1338 C1341 1.499 . S
C1339 H1313 0.950 . S
C1339 C1338 1.414 . S
C1339 C1340 1.374 . S
C1340 H1314 0.950 . S
C1340 C1336 1.385 . S
C1340 C1339 1.374 . S
C1341 C1338 1.499 . S
C1341 C1342 1.373 . S
C1341 C1343 1.389 . S
C1342 H1315 0.950 . S
C1342 C1328 1.377 . S
C1342 C1341 1.373 . S
C1343 C1327 1.377 . S
C1343 C1341 1.389 . S
C1343 C1344 1.524 . S
C1344 C1343 1.524 . S
C1344 C1345 1.397 . S
C1344 C1349 1.363 . S
C1345 H1316 0.950 . S
C1345 C1344 1.397 . S
C1345 C1346 1.334 . S
C1346 H1317 0.950 . S
C1346 C1345 1.334 . S
C1346 C1347 1.287 . S
C1347 C1346 1.287 . S
C1347 C1348 1.524 . S
C1347 H1350 0.999 . S
C1348 H1318 0.950 . S
C1348 C1347 1.524 . S
C1348 C1349 1.415 . S
C1349 H1319 0.950 . S
C1349 C1344 1.363 . S
C1349 C1348 1.415 . S
H1350 C1347 0.999 . S
H1351 C1332 0.913 . S
H1352 C1370 0.951 . S
H1353 C1372 0.951 . S
H1354 C1374 0.950 . S
H1355 C1375 0.950 . S
H1356 C1377 0.950 . S
H1357 C1380 0.950 1_655 S
H1358 C1381 0.950 . S
H1359 C1383 0.950 . S
H1360 C1384 0.950 . S
H1361 C1385 0.951 . S
H1362 C1387 0.951 1_655 S
H1363 C1389 0.950 . S
H1364 C1390 0.950 . S
H1365 C1392 0.950 . S
H1366 C1395 0.950 . S
H1367 C1396 0.950 1_565 S
H1368 C1398 0.950 . S
H1369 C1399 0.950 . S
C1370 H1352 0.951 . S
C1370 C1371 1.366 . S
C1370 C1372 1.388 . S
C1371 C1370 1.366 . S
C1371 C1375 1.385 . S
C1372 H1353 0.951 . S
C1372 C1370 1.388 . S
C1372 C1373 1.366 . S
C1373 C1372 1.366 . S
C1373 C1374 1.414 . S
C1373 C1376 1.499 . S
C1374 H1354 0.950 . S
C1374 C1373 1.414 . S
C1374 C1375 1.374 . S
C1375 H1355 0.950 . S
C1375 C1371 1.385 . S
C1375 C1374 1.374 . S
C1376 C1373 1.499 . S
C1376 C1377 1.373 . S
C1376 C1378 1.386 . S
C1377 H1356 0.950 . S
C1377 C1376 1.373 . S
C1377 C1393 1.377 . S
C1378 C1376 1.386 . S
C1378 C1379 1.526 1_655 S
C1378 C1392 1.379 1_655 S
C1379 C1378 1.526 1_455 S
C1379 C1380 1.397 . S
C1379 C1384 1.363 . S
C1380 H1357 0.950 1_455 S
C1380 C1379 1.397 . S
C1380 C1381 1.334 . S
C1381 H1358 0.950 . S
C1381 C1380 1.334 . S
C1381 C1382 1.287 . S
C1382 C1381 1.287 . S
C1382 C1383 1.524 . S
C1382 H1401 0.913 . S
C1383 H1359 0.950 . S
C1383 C1382 1.524 . S
C1383 C1384 1.415 . S
C1384 H1360 0.950 . S
C1384 C1379 1.363 . S
C1384 C1383 1.415 . S
C1385 H1361 0.951 . S
C1385 C1386 1.366 . S
C1385 C1387 1.388 . S
C1386 C1385 1.366 . S
C1386 C1390 1.385 . S
C1387 H1362 0.951 1_455 S
C1387 C1385 1.388 . S
C1387 C1388 1.366 . S
C1388 C1387 1.366 . S
C1388 C1389 1.414 . S
C1388 C1391 1.491 1_455 S
C1389 H1363 0.950 . S
C1389 C1388 1.414 . S
C1389 C1390 1.374 . S
C1390 H1364 0.950 . S
C1390 C1386 1.385 . S
C1390 C1389 1.374 . S
C1391 C1388 1.491 1_655 S
C1391 C1392 1.369 1_655 S
C1391 C1393 1.402 . S
C1392 H1365 0.950 . S
C1392 C1378 1.379 1_455 S
C1392 C1391 1.369 1_455 S
C1393 C1377 1.377 . S
C1393 C1391 1.402 . S
C1393 C1394 1.524 . S
C1394 C1393 1.524 . S
C1394 C1395 1.397 . S
C1394 C1399 1.363 . S
C1395 H1366 0.950 . S
C1395 C1394 1.397 . S
C1395 C1396 1.334 . S
C1396 H1367 0.950 1_545 S
C1396 C1395 1.334 . S
C1396 C1397 1.287 . S
C1397 C1396 1.287 . S
C1397 C1398 1.524 . S
C1397 H1400 1.013 . S
C1398 H1368 0.950 . S
C1398 C1397 1.524 . S
C1398 C1399 1.415 . S
C1399 H1369 0.950 . S
C1399 C1394 1.363 . S
C1399 C1398 1.415 . S
H1400 C1397 1.013 . S
H1401 C1382 0.913 . S
H1402 C1420 0.951 . S
H1403 C1422 0.951 . S
H1404 C1424 0.950 . S
H1405 C1425 0.950 . S
H1406 C1427 0.950 . S
H1407 C1430 0.950 . S
H1408 C1431 0.950 . S
H1409 C1433 0.950 . S
H1410 C1434 0.950 . S
H1411 C1435 0.951 . S
H1412 C1437 0.951 . S
H1413 C1439 0.950 . S
H1414 C1440 0.950 . S
H1415 C1442 0.950 . S
H1416 C1445 0.950 . S
H1417 C1446 0.950 . S
H1418 C1448 0.950 . S
H1419 C1449 0.950 . S
C1420 H1402 0.951 . S
C1420 C1421 1.366 . S
C1420 C1422 1.388 . S
C1421 C1420 1.366 . S
C1421 C1425 1.385 . S
C1422 H1403 0.951 . S
C1422 C1420 1.388 . S
C1422 C1423 1.366 . S
C1423 C1422 1.366 . S
C1423 C1424 1.414 . S
C1423 C1426 1.499 . S
C1424 H1404 0.950 . S
C1424 C1423 1.414 . S
C1424 C1425 1.374 . S
C1425 H1405 0.950 . S
C1425 C1421 1.385 . S
C1425 C1424 1.374 . S
C1426 C1423 1.499 . S
C1426 C1427 1.373 . S
C1426 C1428 1.389 . S
C1427 H1406 0.950 . S
C1427 C1426 1.373 . S
C1427 C1443 1.377 . S
C1428 C1426 1.389 . S
C1428 C1429 1.524 . S
C1428 C1442 1.377 . S
C1429 C1428 1.524 . S
C1429 C1430 1.397 . S
C1429 C1434 1.363 . S
C1430 H1407 0.950 . S
C1430 C1429 1.397 . S
C1430 C1431 1.334 . S
C1431 H1408 0.950 . S
C1431 C1430 1.334 . S
C1431 C1432 1.287 . S
C1432 C1431 1.287 . S
C1432 C1433 1.524 . S
C1432 H1451 0.913 . S
C1433 H1409 0.950 . S
C1433 C1432 1.524 . S
C1433 C1434 1.415 . S
C1434 H1410 0.950 . S
C1434 C1429 1.363 . S
C1434 C1433 1.415 . S
C1435 H1411 0.951 . S
C1435 C1436 1.366 . S
C1435 C1437 1.388 . S
C1436 C1435 1.366 . S
C1436 C1440 1.385 . S
C1437 H1412 0.951 . S
C1437 C1435 1.388 . S
C1437 C1438 1.366 . S
C1438 C1437 1.366 . S
C1438 C1439 1.414 . S
C1438 C1441 1.499 . S
C1439 H1413 0.950 . S
C1439 C1438 1.414 . S
C1439 C1440 1.374 . S
C1440 H1414 0.950 . S
C1440 C1436 1.385 . S
C1440 C1439 1.374 . S
C1441 C1438 1.499 . S
C1441 C1442 1.373 . S
C1441 C1443 1.389 . S
C1442 H1415 0.950 . S
C1442 C1428 1.377 . S
C1442 C1441 1.373 . S
C1443 C1427 1.377 . S
C1443 C1441 1.389 . S
C1443 C1444 1.524 . S
C1444 C1443 1.524 . S
C1444 C1445 1.397 . S
C1444 C1449 1.363 . S
C1445 H1416 0.950 . S
C1445 C1444 1.397 . S
C1445 C1446 1.334 . S
C1446 H1417 0.950 . S
C1446 C1445 1.334 . S
C1446 C1447 1.287 . S
C1447 C1446 1.287 . S
C1447 C1448 1.524 . S
C1447 H1450 0.999 . S
C1448 H1418 0.950 . S
C1448 C1447 1.524 . S
C1448 C1449 1.415 . S
C1449 H1419 0.950 . S
C1449 C1444 1.363 . S
C1449 C1448 1.415 . S
H1450 C1447 0.999 . S
H1451 C1432 0.913 . S
H1452 C1470 0.951 . S
H1453 C1472 0.951 . S
H1454 C1474 0.950 . S
H1455 C1475 0.950 . S
H1456 C1477 0.950 . S
H1457 C1480 0.950 . S
H1458 C1481 0.950 . S
H1459 C1483 0.950 . S
H1460 C1484 0.950 . S
H1461 C1485 0.951 1_565 S
H1462 C1487 0.951 . S
H1463 C1489 0.950 . S
H1464 C1490 0.950 . S
H1465 C1492 0.950 . S
H1466 C1495 0.950 . S
H1467 C1496 0.950 . S
H1468 C1498 0.950 1_565 S
H1469 C1499 0.950 1_565 S
C1470 H1452 0.951 . S
C1470 C1471 1.366 . S
C1470 C1472 1.388 . S
C1471 C1470 1.366 . S
C1471 C1475 1.385 . S
C1472 H1453 0.951 . S
C1472 C1470 1.388 . S
C1472 C1473 1.366 . S
C1473 C1472 1.366 . S
C1473 C1474 1.414 . S
C1473 C1476 1.499 . S
C1474 H1454 0.950 . S
C1474 C1473 1.414 . S
C1474 C1475 1.374 . S
C1475 H1455 0.950 . S
C1475 C1471 1.385 . S
C1475 C1474 1.374 . S
C1476 C1473 1.499 . S
C1476 C1477 1.373 . S
C1476 C1478 1.389 . S
C1477 H1456 0.950 . S
C1477 C1476 1.373 . S
C1477 C1493 1.377 . S
C1478 C1476 1.389 . S
C1478 C1479 1.524 . S
C1478 C1492 1.377 . S
C1479 C1478 1.524 . S
C1479 C1480 1.397 . S
C1479 C1484 1.363 . S
C1480 H1457 0.950 . S
C1480 C1479 1.397 . S
C1480 C1481 1.334 . S
C1481 H1458 0.950 . S
C1481 C1480 1.334 . S
C1481 C1482 1.287 . S
C1482 C1481 1.287 . S
C1482 C1483 1.524 . S
C1482 H1501 0.913 . S
C1483 H1459 0.950 . S
C1483 C1482 1.524 . S
C1483 C1484 1.415 . S
C1484 H1460 0.950 . S
C1484 C1479 1.363 . S
C1484 C1483 1.415 . S
C1485 H1461 0.951 1_545 S
C1485 C1486 1.366 . S
C1485 C1487 1.388 . S
C1486 C1485 1.366 . S
C1486 C1490 1.385 . S
C1487 H1462 0.951 . S
C1487 C1485 1.388 . S
C1487 C1488 1.366 . S
C1488 C1487 1.366 . S
C1488 C1489 1.414 . S
C1488 C1491 1.499 . S
C1489 H1463 0.950 . S
C1489 C1488 1.414 . S
C1489 C1490 1.374 . S
C1490 H1464 0.950 . S
C1490 C1486 1.385 . S
C1490 C1489 1.374 . S
C1491 C1488 1.499 . S
C1491 C1492 1.373 . S
C1491 C1493 1.389 . S
C1492 H1465 0.950 . S
C1492 C1478 1.377 . S
C1492 C1491 1.373 . S
C1493 C1477 1.377 . S
C1493 C1491 1.389 . S
C1493 C1494 1.524 . S
C1494 C1493 1.524 . S
C1494 C1495 1.397 . S
C1494 C1499 1.363 . S
C1495 H1466 0.950 . S
C1495 C1494 1.397 . S
C1495 C1496 1.334 . S
C1496 H1467 0.950 . S
C1496 C1495 1.334 . S
C1496 C1497 1.287 . S
C1497 C1496 1.287 . S
C1497 C1498 1.524 . S
C1497 H1500 0.999 . S
C1498 H1468 0.950 1_545 S
C1498 C1497 1.524 . S
C1498 C1499 1.415 . S
C1499 H1469 0.950 1_545 S
C1499 C1494 1.363 . S
C1499 C1498 1.415 . S
H1500 C1497 0.999 . S
H1501 C1482 0.913 . S
H1502 C1520 0.951 . S
H1503 C1522 0.951 . S
H1504 C1524 0.950 . S
H1505 C1525 0.950 . S
H1506 C1527 0.950 . S
H1507 C1530 0.950 . S
H1508 C1531 0.950 . S
H1509 C1533 0.950 . S
H1510 C1534 0.950 . S
H1511 C1535 0.951 . S
H1512 C1537 0.951 . S
H1513 C1539 0.950 . S
H1514 C1540 0.950 . S
H1515 C1542 0.950 . S
H1516 C1545 0.950 . S
H1517 C1546 0.950 . S
H1518 C1548 0.950 . S
H1519 C1549 0.950 . S
C1520 H1502 0.951 . S
C1520 C1521 1.366 . S
C1520 C1522 1.388 . S
C1521 C1520 1.366 . S
C1521 C1525 1.385 . S
C1522 H1503 0.951 . S
C1522 C1520 1.388 . S
C1522 C1523 1.366 . S
C1523 C1522 1.366 . S
C1523 C1524 1.414 . S
C1523 C1526 1.499 . S
C1524 H1504 0.950 . S
C1524 C1523 1.414 . S
C1524 C1525 1.374 . S
C1525 H1505 0.950 . S
C1525 C1521 1.385 . S
C1525 C1524 1.374 . S
C1526 C1523 1.499 . S
C1526 C1527 1.373 . S
C1526 C1528 1.389 . S
C1527 H1506 0.950 . S
C1527 C1526 1.373 . S
C1527 C1543 1.377 . S
C1528 C1526 1.389 . S
C1528 C1529 1.524 . S
C1528 C1542 1.377 . S
C1529 C1528 1.524 . S
C1529 C1530 1.397 . S
C1529 C1534 1.363 . S
C1530 H1507 0.950 . S
C1530 C1529 1.397 . S
C1530 C1531 1.334 . S
C1531 H1508 0.950 . S
C1531 C1530 1.334 . S
C1531 C1532 1.287 . S
C1532 C1531 1.287 . S
C1532 C1533 1.524 . S
C1532 H1551 0.913 . S
C1533 H1509 0.950 . S
C1533 C1532 1.524 . S
C1533 C1534 1.415 . S
C1534 H1510 0.950 . S
C1534 C1529 1.363 . S
C1534 C1533 1.415 . S
C1535 H1511 0.951 . S
C1535 C1536 1.366 . S
C1535 C1537 1.388 . S
C1536 C1535 1.366 . S
C1536 C1540 1.385 . S
C1537 H1512 0.951 . S
C1537 C1535 1.388 . S
C1537 C1538 1.366 . S
C1538 C1537 1.366 . S
C1538 C1539 1.414 . S
C1538 C1541 1.499 . S
C1539 H1513 0.950 . S
C1539 C1538 1.414 . S
C1539 C1540 1.374 . S
C1540 H1514 0.950 . S
C1540 C1536 1.385 . S
C1540 C1539 1.374 . S
C1541 C1538 1.499 . S
C1541 C1542 1.373 . S
C1541 C1543 1.389 . S
C1542 H1515 0.950 . S
C1542 C1528 1.377 . S
C1542 C1541 1.373 . S
C1543 C1527 1.377 . S
C1543 C1541 1.389 . S
C1543 C1544 1.524 . S
C1544 C1543 1.524 . S
C1544 C1545 1.397 . S
C1544 C1549 1.363 . S
C1545 H1516 0.950 . S
C1545 C1544 1.397 . S
C1545 C1546 1.334 . S
C1546 H1517 0.950 . S
C1546 C1545 1.334 . S
C1546 C1547 1.287 . S
C1547 C1546 1.287 . S
C1547 C1548 1.524 . S
C1547 H1550 0.999 . S
C1548 H1518 0.950 . S
C1548 C1547 1.524 . S
C1548 C1549 1.415 . S
C1549 H1519 0.950 . S
C1549 C1544 1.363 . S
C1549 C1548 1.415 . S
H1550 C1547 0.999 . S
H1551 C1532 0.913 . S
H1552 C1570 0.951 . S
H1553 C1572 0.951 . S
H1554 C1574 0.950 . S
H1555 C1575 0.950 . S
H1556 C1577 0.950 . S
H1557 C1580 0.915 1_455 S
H1558 C1581 0.937 1_455 S
H1559 C1583 0.950 . S
H1560 C1584 0.950 . S
H1561 C1585 0.951 . S
H1562 C1587 0.951 . S
H1563 C1589 0.950 1_655 S
H1564 C1590 0.950 . S
H1565 C1592 0.950 1_455 S
H1566 C1595 0.950 1_545 S
H1567 C1596 0.950 . S
H1568 C1598 0.950 . S
H1569 C1599 0.950 1_545 S
C1570 H1552 0.951 . S
C1570 C1571 1.366 . S
C1570 C1572 1.388 . S
C1571 C1570 1.366 . S
C1571 C1575 1.385 . S
C1572 H1553 0.951 . S
C1572 C1570 1.388 . S
C1572 C1573 1.366 . S
C1573 C1572 1.366 . S
C1573 C1574 1.414 . S
C1573 C1576 1.499 . S
C1574 H1554 0.950 . S
C1574 C1573 1.414 . S
C1574 C1575 1.374 . S
C1575 H1555 0.950 . S
C1575 C1571 1.385 . S
C1575 C1574 1.374 . S
C1576 C1573 1.499 . S
C1576 C1577 1.373 . S
C1576 C1578 1.389 . S
C1577 H1556 0.950 . S
C1577 C1576 1.373 . S
C1577 C1593 1.377 . S
C1578 C1576 1.389 . S
C1578 C1579 1.524 . S
C1578 C1592 1.377 . S
C1579 C1578 1.524 . S
C1579 C1580 1.397 . S
C1579 C1584 1.363 . S
C1580 H1557 0.915 1_655 S
C1580 C1579 1.397 . S
C1580 C1581 1.334 . S
C1581 H1558 0.937 1_655 S
C1581 C1580 1.334 . S
C1581 C1582 1.287 . S
C1582 C1581 1.287 . S
C1582 C1583 1.524 . S
C1582 H1601 0.913 . S
C1583 H1559 0.950 . S
C1583 C1582 1.524 . S
C1583 C1584 1.415 . S
C1584 H1560 0.950 . S
C1584 C1579 1.363 . S
C1584 C1583 1.415 . S
C1585 H1561 0.951 . S
C1585 C1586 1.366 . S
C1585 C1587 1.388 . S
C1586 C1585 1.366 . S
C1586 C1590 1.385 . S
C1587 H1562 0.951 . S
C1587 C1585 1.388 . S
C1587 C1588 1.366 . S
C1588 C1587 1.366 . S
C1588 C1589 1.414 . S
C1588 C1591 1.501 1_455 S
C1589 H1563 0.950 1_455 S
C1589 C1588 1.414 . S
C1589 C1590 1.374 . S
C1590 H1564 0.950 . S
C1590 C1586 1.385 . S
C1590 C1589 1.374 . S
C1591 C1588 1.501 1_655 S
C1591 C1592 1.372 . S
C1591 C1593 1.389 . S
C1592 H1565 0.950 1_655 S
C1592 C1578 1.377 . S
C1592 C1591 1.372 . S
C1593 C1577 1.377 . S
C1593 C1591 1.389 . S
C1593 C1594 1.524 . S
C1594 C1593 1.524 . S
C1594 C1595 1.397 1_545 S
C1594 C1599 1.363 1_645 S
C1595 H1566 0.950 1_565 S
C1595 C1594 1.397 1_565 S
C1595 C1596 1.334 . S
C1596 H1567 0.950 . S
C1596 C1595 1.334 . S
C1596 C1597 1.287 . S
C1597 C1596 1.287 . S
C1597 C1598 1.524 1_655 S
C1597 H1600 0.999 . S
C1598 H1568 0.950 . S
C1598 C1597 1.524 1_455 S
C1598 C1599 1.415 . S
C1599 H1569 0.950 1_565 S
C1599 C1594 1.363 1_465 S
C1599 C1598 1.415 . S
H1600 C1597 0.999 . S
H1601 C1582 0.913 . S
H1602 C1620 0.951 . S
H1603 C1622 0.951 . S
H1604 C1624 0.950 . S
H1605 C1625 0.950 . S
H1606 C1627 0.950 . S
H1607 C1630 0.950 . S
H1608 C1631 0.950 . S
H1609 C1633 0.950 . S
H1610 C1634 0.950 . S
H1611 C1635 0.951 . S
H1612 C1637 0.951 . S
H1613 C1639 0.950 . S
H1614 C1640 0.950 . S
H1615 C1642 0.950 . S
H1616 C1645 0.950 . S
H1617 C1646 0.950 . S
H1618 C1648 0.950 . S
H1619 C1649 0.950 . S
C1620 H1602 0.951 . S
C1620 C1621 1.366 . S
C1620 C1622 1.388 . S
C1621 C1620 1.366 . S
C1621 C1625 1.385 . S
C1622 H1603 0.951 . S
C1622 C1620 1.388 . S
C1622 C1623 1.366 . S
C1623 C1622 1.366 . S
C1623 C1624 1.414 . S
C1623 C1626 1.499 . S
C1624 H1604 0.950 . S
C1624 C1623 1.414 . S
C1624 C1625 1.374 . S
C1625 H1605 0.950 . S
C1625 C1621 1.385 . S
C1625 C1624 1.374 . S
C1626 C1623 1.499 . S
C1626 C1627 1.373 . S
C1626 C1628 1.389 . S
C1627 H1606 0.950 . S
C1627 C1626 1.373 . S
C1627 C1643 1.377 . S
C1628 C1626 1.389 . S
C1628 C1629 1.524 . S
C1628 C1642 1.377 . S
C1629 C1628 1.524 . S
C1629 C1630 1.397 . S
C1629 C1634 1.363 . S
C1630 H1607 0.950 . S
C1630 C1629 1.397 . S
C1630 C1631 1.334 . S
C1631 H1608 0.950 . S
C1631 C1630 1.334 . S
C1631 C1632 1.287 . S
C1632 C1631 1.287 . S
C1632 C1633 1.524 . S
C1632 H1651 0.913 . S
C1633 H1609 0.950 . S
C1633 C1632 1.524 . S
C1633 C1634 1.415 . S
C1634 H1610 0.950 . S
C1634 C1629 1.363 . S
C1634 C1633 1.415 . S
C1635 H1611 0.951 . S
C1635 C1636 1.366 . S
C1635 C1637 1.388 . S
C1636 C1635 1.366 . S
C1636 C1640 1.385 . S
C1637 H1612 0.951 . S
C1637 C1635 1.388 . S
C1637 C1638 1.366 . S
C1638 C1637 1.366 . S
C1638 C1639 1.414 . S
C1638 C1641 1.499 . S
C1639 H1613 0.950 . S
C1639 C1638 1.414 . S
C1639 C1640 1.374 . S
C1640 H1614 0.950 . S
C1640 C1636 1.385 . S
C1640 C1639 1.374 . S
C1641 C1638 1.499 . S
C1641 C1642 1.373 . S
C1641 C1643 1.389 . S
C1642 H1615 0.950 . S
C1642 C1628 1.377 . S
C1642 C1641 1.373 . S
C1643 C1627 1.377 . S
C1643 C1641 1.389 . S
C1643 C1644 1.524 . S
C1644 C1643 1.524 . S
C1644 C1645 1.397 . S
C1644 C1649 1.363 . S
C1645 H1616 0.950 . S
C1645 C1644 1.397 . S
C1645 C1646 1.334 . S
C1646 H1617 0.950 . S
C1646 C1645 1.334 . S
C1646 C1647 1.287 . S
C1647 C1646 1.287 . S
C1647 C1648 1.524 . S
C1647 H1650 0.999 . S
C1648 H1618 0.950 . S
C1648 C1647 1.524 . S
C1648 C1649 1.415 . S
C1649 H1619 0.950 . S
C1649 C1644 1.363 . S
C1649 C1648 1.415 . S
H1650 C1647 0.999 . S
H1651 C1632 0.913 . S
H1652 C1670 0.951 . S
H1653 C1672 0.951 . S
H1654 C1674 0.950 . S
H1655 C1675 0.950 . S
H1656 C1677 0.950 . S
H1657 C1680 0.950 . S
H1658 C1681 0.950 . S
H1659 C1683 0.950 . S
H1660 C1684 0.950 . S
H1661 C1685 0.951 . S
H1662 C1687 0.951 . S
H1663 C1689 0.950 . S
H1664 C1690 0.950 . S
H1665 C1692 0.950 . S
H1666 C1695 0.950 . S
H1667 C1696 0.950 . S
H1668 C1698 0.950 . S
H1669 C1699 0.950 . S
C1670 H1652 0.951 . S
C1670 C1671 1.366 . S
C1670 C1672 1.388 . S
C1671 C1670 1.366 . S
C1671 C1675 1.385 . S
C1672 H1653 0.951 . S
C1672 C1670 1.388 . S
C1672 C1673 1.366 . S
C1673 C1672 1.366 . S
C1673 C1674 1.414 . S
C1673 C1676 1.499 . S
C1674 H1654 0.950 . S
C1674 C1673 1.414 . S
C1674 C1675 1.374 . S
C1675 H1655 0.950 . S
C1675 C1671 1.385 . S
C1675 C1674 1.374 . S
C1676 C1673 1.499 . S
C1676 C1677 1.373 . S
C1676 C1678 1.389 . S
C1677 H1656 0.950 . S
C1677 C1676 1.373 . S
C1677 C1693 1.377 . S
C1678 C1676 1.389 . S
C1678 C1679 1.524 . S
C1678 C1692 1.377 . S
C1679 C1678 1.524 . S
C1679 C1680 1.397 . S
C1679 C1684 1.363 . S
C1680 H1657 0.950 . S
C1680 C1679 1.397 . S
C1680 C1681 1.334 . S
C1681 H1658 0.950 . S
C1681 C1680 1.334 . S
C1681 C1682 1.287 . S
C1682 C1681 1.287 . S
C1682 C1683 1.524 . S
C1682 H1701 0.913 . S
C1683 H1659 0.950 . S
C1683 C1682 1.524 . S
C1683 C1684 1.415 . S
C1684 H1660 0.950 . S
C1684 C1679 1.363 . S
C1684 C1683 1.415 . S
C1685 H1661 0.951 . S
C1685 C1686 1.366 . S
C1685 C1687 1.388 . S
C1686 C1685 1.366 . S
C1686 C1690 1.385 . S
C1687 H1662 0.951 . S
C1687 C1685 1.388 . S
C1687 C1688 1.366 . S
C1688 C1687 1.366 . S
C1688 C1689 1.414 . S
C1688 C1691 1.499 . S
C1689 H1663 0.950 . S
C1689 C1688 1.414 . S
C1689 C1690 1.374 . S
C1690 H1664 0.950 . S
C1690 C1686 1.385 . S
C1690 C1689 1.374 . S
C1691 C1688 1.499 . S
C1691 C1692 1.373 . S
C1691 C1693 1.389 . S
C1692 H1665 0.950 . S
C1692 C1678 1.377 . S
C1692 C1691 1.373 . S
C1693 C1677 1.377 . S
C1693 C1691 1.389 . S
C1693 C1694 1.524 . S
C1694 C1693 1.524 . S
C1694 C1695 1.397 . S
C1694 C1699 1.363 . S
C1695 H1666 0.950 . S
C1695 C1694 1.397 . S
C1695 C1696 1.334 . S
C1696 H1667 0.950 . S
C1696 C1695 1.334 . S
C1696 C1697 1.287 . S
C1697 C1696 1.287 . S
C1697 C1698 1.524 . S
C1697 H1700 0.999 . S
C1698 H1668 0.950 . S
C1698 C1697 1.524 . S
C1698 C1699 1.415 . S
C1699 H1669 0.950 . S
C1699 C1694 1.363 . S
C1699 C1698 1.415 . S
H1700 C1697 0.999 . S
H1701 C1682 0.913 . S
H1702 C1720 0.951 . S
H1703 C1722 0.951 . S
H1704 C1724 0.950 . S
H1705 C1725 0.950 . S
H1706 C1727 0.950 . S
H1707 C1730 0.950 . S
H1708 C1731 0.950 . S
H1709 C1733 0.950 . S
H1710 C1734 0.950 . S
H1711 C1735 0.951 . S
H1712 C1737 0.951 . S
H1713 C1739 0.950 . S
H1714 C1740 0.950 . S
H1715 C1742 0.950 . S
H1716 C1745 0.950 . S
H1717 C1746 0.950 . S
H1718 C1748 0.950 . S
H1719 C1749 0.950 . S
C1720 H1702 0.951 . S
C1720 C1721 1.366 . S
C1720 C1722 1.388 . S
C1721 C1720 1.366 . S
C1721 C1725 1.385 . S
C1722 H1703 0.951 . S
C1722 C1720 1.388 . S
C1722 C1723 1.366 . S
C1723 C1722 1.366 . S
C1723 C1724 1.414 . S
C1723 C1726 1.499 . S
C1724 H1704 0.950 . S
C1724 C1723 1.414 . S
C1724 C1725 1.374 . S
C1725 H1705 0.950 . S
C1725 C1721 1.385 . S
C1725 C1724 1.374 . S
C1726 C1723 1.499 . S
C1726 C1727 1.373 . S
C1726 C1728 1.389 . S
C1727 H1706 0.950 . S
C1727 C1726 1.373 . S
C1727 C1743 1.377 . S
C1728 C1726 1.389 . S
C1728 C1729 1.524 . S
C1728 C1742 1.377 . S
C1729 C1728 1.524 . S
C1729 C1730 1.397 . S
C1729 C1734 1.363 . S
C1730 H1707 0.950 . S
C1730 C1729 1.397 . S
C1730 C1731 1.334 . S
C1731 H1708 0.950 . S
C1731 C1730 1.334 . S
C1731 C1732 1.287 . S
C1732 C1731 1.287 . S
C1732 C1733 1.524 . S
C1732 H1751 0.913 . S
C1733 H1709 0.950 . S
C1733 C1732 1.524 . S
C1733 C1734 1.415 . S
C1734 H1710 0.950 . S
C1734 C1729 1.363 . S
C1734 C1733 1.415 . S
C1735 H1711 0.951 . S
C1735 C1736 1.366 . S
C1735 C1737 1.388 . S
C1736 C1735 1.366 . S
C1736 C1740 1.385 . S
C1737 H1712 0.951 . S
C1737 C1735 1.388 . S
C1737 C1738 1.366 . S
C1738 C1737 1.366 . S
C1738 C1739 1.414 . S
C1738 C1741 1.499 . S
C1739 H1713 0.950 . S
C1739 C1738 1.414 . S
C1739 C1740 1.374 . S
C1740 H1714 0.950 . S
C1740 C1736 1.385 . S
C1740 C1739 1.374 . S
C1741 C1738 1.499 . S
C1741 C1742 1.373 . S
C1741 C1743 1.389 . S
C1742 H1715 0.950 . S
C1742 C1728 1.377 . S
C1742 C1741 1.373 . S
C1743 C1727 1.377 . S
C1743 C1741 1.389 . S
C1743 C1744 1.524 . S
C1744 C1743 1.524 . S
C1744 C1745 1.397 . S
C1744 C1749 1.363 . S
C1745 H1716 0.950 . S
C1745 C1744 1.397 . S
C1745 C1746 1.334 . S
C1746 H1717 0.950 . S
C1746 C1745 1.334 . S
C1746 C1747 1.287 . S
C1747 C1746 1.287 . S
C1747 C1748 1.524 . S
C1747 H1750 0.999 . S
C1748 H1718 0.950 . S
C1748 C1747 1.524 . S
C1748 C1749 1.415 . S
C1749 H1719 0.950 . S
C1749 C1744 1.363 . S
C1749 C1748 1.415 . S
H1750 C1747 0.999 . S
H1751 C1732 0.913 . S
H1752 C1770 0.903 1_556 S
H1753 C1772 0.951 . S
H1754 C1774 0.950 . S
H1755 C1775 0.950 . S
H1756 C1777 0.950 . S
H1757 C1780 0.950 . S
H1758 C1781 0.950 . S
H1759 C1783 0.950 . S
H1760 C1784 0.950 . S
H1761 C1785 0.951 . S
H1762 C1787 0.951 . S
H1763 C1789 0.950 . S
H1764 C1790 0.950 . S
H1765 C1792 0.950 . S
H1766 C1795 0.950 . S
H1767 C1796 0.950 . S
H1768 C1798 0.950 . S
H1769 C1799 0.950 . S
C1770 H1752 0.903 1_554 S
C1770 C1771 1.366 . S
C1770 C1772 1.388 . S
C1771 C1770 1.366 . S
C1771 C1775 1.385 . S
C1772 H1753 0.951 . S
C1772 C1770 1.388 . S
C1772 C1773 1.366 . S
C1773 C1772 1.366 . S
C1773 C1774 1.414 . S
C1773 C1776 1.499 . S
C1774 H1754 0.950 . S
C1774 C1773 1.414 . S
C1774 C1775 1.374 . S
C1775 H1755 0.950 . S
C1775 C1771 1.385 . S
C1775 C1774 1.374 . S
C1776 C1773 1.499 . S
C1776 C1777 1.373 . S
C1776 C1778 1.389 . S
C1777 H1756 0.950 . S
C1777 C1776 1.373 . S
C1777 C1793 1.377 . S
C1778 C1776 1.389 . S
C1778 C1779 1.524 . S
C1778 C1792 1.377 . S
C1779 C1778 1.524 . S
C1779 C1780 1.397 . S
C1779 C1784 1.363 1_554 S
C1780 H1757 0.950 . S
C1780 C1779 1.397 . S
C1780 C1781 1.334 1_554 S
C1781 H1758 0.950 . S
C1781 C1780 1.334 1_556 S
C1781 C1782 1.287 . S
C1782 C1781 1.287 . S
C1782 C1783 1.524 . S
C1782 H1801 0.913 . S
C1783 H1759 0.950 . S
C1783 C1782 1.524 . S
C1783 C1784 1.415 . S
C1784 H1760 0.950 . S
C1784 C1779 1.363 1_556 S
C1784 C1783 1.415 . S
C1785 H1761 0.951 . S
C1785 C1786 1.366 . S
C1785 C1787 1.388 . S
C1786 C1785 1.366 . S
C1786 C1790 1.385 1_545 S
C1787 H1762 0.951 . S
C1787 C1785 1.388 . S
C1787 C1788 1.366 1_545 S
C1788 C1787 1.366 1_565 S
C1788 C1789 1.414 . S
C1788 C1791 1.499 . S
C1789 H1763 0.950 . S
C1789 C1788 1.414 . S
C1789 C1790 1.374 . S
C1790 H1764 0.950 . S
C1790 C1786 1.385 1_565 S
C1790 C1789 1.374 . S
C1791 C1788 1.499 . S
C1791 C1792 1.373 . S
C1791 C1793 1.389 . S
C1792 H1765 0.950 . S
C1792 C1778 1.377 . S
C1792 C1791 1.373 . S
C1793 C1777 1.377 . S
C1793 C1791 1.389 . S
C1793 C1794 1.524 . S
C1794 C1793 1.524 . S
C1794 C1795 1.397 . S
C1794 C1799 1.363 . S
C1795 H1766 0.950 . S
C1795 C1794 1.397 . S
C1795 C1796 1.334 . S
C1796 H1767 0.950 . S
C1796 C1795 1.334 . S
C1796 C1797 1.287 . S
C1797 C1796 1.287 . S
C1797 C1798 1.524 . S
C1797 H1800 0.999 . S
C1798 H1768 0.950 . S
C1798 C1797 1.524 . S
C1798 C1799 1.415 . S
C1799 H1769 0.950 . S
C1799 C1794 1.363 . S
C1799 C1798 1.415 . S
H1800 C1797 0.999 . S
H1801 C1782 0.913 . S
H1802 C1820 0.951 . S
H1803 C1822 0.951 . S
H1804 C1824 0.950 . S
H1805 C1825 0.950 . S
H1806 C1827 0.950 . S
H1807 C1830 0.950 . S
H1808 C1831 0.950 . S
H1809 C1833 0.950 . S
H1810 C1834 0.950 . S
H1811 C1835 0.951 . S
H1812 C1837 0.951 . S
H1813 C1839 0.950 . S
H1814 C1840 0.950 . S
H1815 C1842 0.950 . S
H1816 C1845 0.950 . S
H1817 C1846 0.950 . S
H1818 C1848 0.950 . S
H1819 C1849 0.950 . S
C1820 H1802 0.951 . S
C1820 C1821 1.366 . S
C1820 C1822 1.388 . S
C1821 C1820 1.366 . S
C1821 C1825 1.385 1_554 S
C1822 H1803 0.951 . S
C1822 C1820 1.388 . S
C1822 C1823 1.366 . S
C1823 C1822 1.366 . S
C1823 C1824 1.414 1_554 S
C1823 C1826 1.492 . S
C1824 H1804 0.950 . S
C1824 C1823 1.414 1_556 S
C1824 C1825 1.374 . S
C1825 H1805 0.950 . S
C1825 C1821 1.385 1_556 S
C1825 C1824 1.374 . S
C1826 C1823 1.492 . S
C1826 C1827 1.344 1_554 S
C1826 C1828 1.429 . S
C1827 H1806 0.950 . S
C1827 C1826 1.344 1_556 S
C1827 C1843 1.377 . S
C1828 C1826 1.429 . S
C1828 C1829 1.524 . S
C1828 C1842 1.377 . S
C1829 C1828 1.524 . S
C1829 C1830 1.397 . S
C1829 C1834 1.363 . S
C1830 H1807 0.950 . S
C1830 C1829 1.397 . S
C1830 C1831 1.334 . S
C1831 H1808 0.950 . S
C1831 C1830 1.334 . S
C1831 C1832 1.287 . S
C1832 C1831 1.287 . S
C1832 C1833 1.524 . S
C1832 H1851 0.913 . S
C1833 H1809 0.950 . S
C1833 C1832 1.524 . S
C1833 C1834 1.415 . S
C1834 H1810 0.950 . S
C1834 C1829 1.363 . S
C1834 C1833 1.415 . S
C1835 H1811 0.951 . S
C1835 C1836 1.321 1_556 S
C1835 C1837 1.388 . S
C1836 C1835 1.321 1_554 S
C1836 C1840 1.421 . S
C1837 H1812 0.951 . S
C1837 C1835 1.388 . S
C1837 C1838 1.329 1_556 S
C1838 C1837 1.329 1_554 S
C1838 C1839 1.461 . S
C1838 C1841 1.491 . S
C1839 H1813 0.950 . S
C1839 C1838 1.461 . S
C1839 C1840 1.374 . S
C1840 H1814 0.950 . S
C1840 C1836 1.421 . S
C1840 C1839 1.374 . S
C1841 C1838 1.491 . S
C1841 C1842 1.373 . S
C1841 C1843 1.389 1_554 S
C1842 H1815 0.950 . S
C1842 C1828 1.377 . S
C1842 C1841 1.373 . S
C1843 C1827 1.377 . S
C1843 C1841 1.389 1_556 S
C1843 C1844 1.524 . S
C1844 C1843 1.524 . S
C1844 C1845 1.397 . S
C1844 C1849 1.363 . S
C1845 H1816 0.950 . S
C1845 C1844 1.397 . S
C1845 C1846 1.334 . S
C1846 H1817 0.950 . S
C1846 C1845 1.334 . S
C1846 C1847 1.287 . S
C1847 C1846 1.287 . S
C1847 C1848 1.524 . S
C1847 H1850 0.999 . S
C1848 H1818 0.950 . S
C1848 C1847 1.524 . S
C1848 C1849 1.415 . S
C1849 H1819 0.950 . S
C1849 C1844 1.363 . S
C1849 C1848 1.415 . S
H1850 C1847 0.999 . S
H1851 C1832 0.913 . S
H1852 C1870 0.951 . S
H1853 C1872 0.951 . S
H1854 C1874 0.950 . S
H1855 C1875 0.950 . S
H1856 C1877 0.950 . S
H1857 C1880 0.950 . S
H1858 C1881 0.950 . S
H1859 C1883 0.950 . S
H1860 C1884 0.950 . S
H1861 C1885 0.951 . S
H1862 C1887 0.951 . S
H1863 C1889 0.950 . S
H1864 C1890 0.950 . S
H1865 C1892 0.950 . S
H1866 C1895 0.950 . S
H1867 C1896 0.950 . S
H1868 C1898 0.950 . S
H1869 C1899 0.950 . S
C1870 H1852 0.951 . S
C1870 C1871 1.366 . S
C1870 C1872 1.388 . S
C1871 C1870 1.366 . S
C1871 C1875 1.385 . S
C1872 H1853 0.951 . S
C1872 C1870 1.388 . S
C1872 C1873 1.366 . S
C1873 C1872 1.366 . S
C1873 C1874 1.414 . S
C1873 C1876 1.499 . S
C1874 H1854 0.950 . S
C1874 C1873 1.414 . S
C1874 C1875 1.374 . S
C1875 H1855 0.950 . S
C1875 C1871 1.385 . S
C1875 C1874 1.374 . S
C1876 C1873 1.499 . S
C1876 C1877 1.373 . S
C1876 C1878 1.389 . S
C1877 H1856 0.950 . S
C1877 C1876 1.373 . S
C1877 C1893 1.377 . S
C1878 C1876 1.389 . S
C1878 C1879 1.524 . S
C1878 C1892 1.377 . S
C1879 C1878 1.524 . S
C1879 C1880 1.397 . S
C1879 C1884 1.363 . S
C1880 H1857 0.950 . S
C1880 C1879 1.397 . S
C1880 C1881 1.334 . S
C1881 H1858 0.950 . S
C1881 C1880 1.334 . S
C1881 C1882 1.287 . S
C1882 C1881 1.287 . S
C1882 C1883 1.524 . S
C1882 H1901 0.913 . S
C1883 H1859 0.950 . S
C1883 C1882 1.524 . S
C1883 C1884 1.415 . S
C1884 H1860 0.950 . S
C1884 C1879 1.363 . S
C1884 C1883 1.415 . S
C1885 H1861 0.951 . S
C1885 C1886 1.366 . S
C1885 C1887 1.388 . S
C1886 C1885 1.366 . S
C1886 C1890 1.385 . S
C1887 H1862 0.951 . S
C1887 C1885 1.388 . S
C1887 C1888 1.366 . S
C1888 C1887 1.366 . S
C1888 C1889 1.414 . S
C1888 C1891 1.499 . S
C1889 H1863 0.950 . S
C1889 C1888 1.414 . S
C1889 C1890 1.374 . S
C1890 H1864 0.950 . S
C1890 C1886 1.385 . S
C1890 C1889 1.374 . S
C1891 C1888 1.499 . S
C1891 C1892 1.373 . S
C1891 C1893 1.389 . S
C1892 H1865 0.950 . S
C1892 C1878 1.377 . S
C1892 C1891 1.373 . S
C1893 C1877 1.377 . S
C1893 C1891 1.389 . S
C1893 C1894 1.524 . S
C1894 C1893 1.524 . S
C1894 C1895 1.397 . S
C1894 C1899 1.363 . S
C1895 H1866 0.950 . S
C1895 C1894 1.397 . S
C1895 C1896 1.334 . S
C1896 H1867 0.950 . S
C1896 C1895 1.334 . S
C1896 C1897 1.287 . S
C1897 C1896 1.287 . S
C1897 C1898 1.524 . S
C1897 H1900 0.999 . S
C1898 H1868 0.950 . S
C1898 C1897 1.524 . S
C1898 C1899 1.415 . S
C1899 H1869 0.950 . S
C1899 C1894 1.363 . S
C1899 C1898 1.415 . S
H1900 C1897 0.999 . S
H1901 C1882 0.913 . S
H1902 C1920 0.951 . S
H1903 C1922 0.951 . S
H1904 C1924 0.950 . S
H1905 C1925 0.950 . S
H1906 C1927 0.950 . S
H1907 C1930 0.950 . S
H1908 C1931 0.950 . S
H1909 C1933 0.950 . S
H1910 C1934 0.950 . S
H1911 C1935 0.951 . S
H1912 C1937 0.951 . S
H1913 C1939 0.950 . S
H1914 C1940 0.950 . S
H1915 C1942 0.950 . S
H1916 C1945 0.950 . S
H1917 C1946 0.950 . S
H1918 C1948 0.950 . S
H1919 C1949 0.950 . S
C1920 H1902 0.951 . S
C1920 C1921 1.366 . S
C1920 C1922 1.388 . S
C1921 C1920 1.366 . S
C1921 C1925 1.385 . S
C1922 H1903 0.951 . S
C1922 C1920 1.388 . S
C1922 C1923 1.366 . S
C1923 C1922 1.366 . S
C1923 C1924 1.414 . S
C1923 C1926 1.499 . S
C1924 H1904 0.950 . S
C1924 C1923 1.414 . S
C1924 C1925 1.374 . S
C1925 H1905 0.950 . S
C1925 C1921 1.385 . S
C1925 C1924 1.374 . S
C1926 C1923 1.499 . S
C1926 C1927 1.373 . S
C1926 C1928 1.389 . S
C1927 H1906 0.950 . S
C1927 C1926 1.373 . S
C1927 C1943 1.377 . S
C1928 C1926 1.389 . S
C1928 C1929 1.524 . S
C1928 C1942 1.377 . S
C1929 C1928 1.524 . S
C1929 C1930 1.397 . S
C1929 C1934 1.363 . S
C1930 H1907 0.950 . S
C1930 C1929 1.397 . S
C1930 C1931 1.334 . S
C1931 H1908 0.950 . S
C1931 C1930 1.334 . S
C1931 C1932 1.287 . S
C1932 C1931 1.287 . S
C1932 C1933 1.524 . S
C1932 H1951 0.913 . S
C1933 H1909 0.950 . S
C1933 C1932 1.524 . S
C1933 C1934 1.415 . S
C1934 H1910 0.950 . S
C1934 C1929 1.363 . S
C1934 C1933 1.415 . S
C1935 H1911 0.951 . S
C1935 C1936 1.366 . S
C1935 C1937 1.388 . S
C1936 C1935 1.366 . S
C1936 C1940 1.385 . S
C1937 H1912 0.951 . S
C1937 C1935 1.388 . S
C1937 C1938 1.366 . S
C1938 C1937 1.366 . S
C1938 C1939 1.414 . S
C1938 C1941 1.499 . S
C1939 H1913 0.950 . S
C1939 C1938 1.414 . S
C1939 C1940 1.374 . S
C1940 H1914 0.950 . S
C1940 C1936 1.385 . S
C1940 C1939 1.374 . S
C1941 C1938 1.499 . S
C1941 C1942 1.373 . S
C1941 C1943 1.389 . S
C1942 H1915 0.950 . S
C1942 C1928 1.377 . S
C1942 C1941 1.373 . S
C1943 C1927 1.377 . S
C1943 C1941 1.389 . S
C1943 C1944 1.524 . S
C1944 C1943 1.524 . S
C1944 C1945 1.397 . S
C1944 C1949 1.363 . S
C1945 H1916 0.950 . S
C1945 C1944 1.397 . S
C1945 C1946 1.334 . S
C1946 H1917 0.950 . S
C1946 C1945 1.334 . S
C1946 C1947 1.287 . S
C1947 C1946 1.287 . S
C1947 C1948 1.524 . S
C1947 H1950 0.999 . S
C1948 H1918 0.950 . S
C1948 C1947 1.524 . S
C1948 C1949 1.415 . S
C1949 H1919 0.950 . S
C1949 C1944 1.363 . S
C1949 C1948 1.415 . S
H1950 C1947 0.999 . S
H1951 C1932 0.913 . S
H1952 C1970 0.951 . S
H1953 C1972 0.951 . S
H1954 C1974 0.950 . S
H1955 C1975 0.950 . S
H1956 C1977 0.950 . S
H1957 C1980 0.950 . S
H1958 C1981 0.950 . S
H1959 C1983 0.950 . S
H1960 C1984 0.950 . S
H1961 C1985 0.951 . S
H1962 C1987 0.951 . S
H1963 C1989 0.950 . S
H1964 C1990 0.950 . S
H1965 C1992 0.950 . S
H1966 C1995 0.950 . S
H1967 C1996 0.950 . S
H1968 C1998 0.950 . S
H1969 C1999 0.950 . S
C1970 H1952 0.951 . S
C1970 C1971 1.366 . S
C1970 C1972 1.388 . S
C1971 C1970 1.366 . S
C1971 C1975 1.385 . S
C1972 H1953 0.951 . S
C1972 C1970 1.388 . S
C1972 C1973 1.366 . S
C1973 C1972 1.366 . S
C1973 C1974 1.414 . S
C1973 C1976 1.499 . S
C1974 H1954 0.950 . S
C1974 C1973 1.414 . S
C1974 C1975 1.374 . S
C1975 H1955 0.950 . S
C1975 C1971 1.385 . S
C1975 C1974 1.374 . S
C1976 C1973 1.499 . S
C1976 C1977 1.373 . S
C1976 C1978 1.389 . S
C1977 H1956 0.950 . S
C1977 C1976 1.373 . S
C1977 C1993 1.377 . S
C1978 C1976 1.389 . S
C1978 C1979 1.524 . S
C1978 C1992 1.377 . S
C1979 C1978 1.524 . S
C1979 C1980 1.397 . S
C1979 C1984 1.363 . S
C1980 H1957 0.950 . S
C1980 C1979 1.397 . S
C1980 C1981 1.334 . S
C1981 H1958 0.950 . S
C1981 C1980 1.334 . S
C1981 C1982 1.287 . S
C1982 C1981 1.287 . S
C1982 C1983 1.524 . S
C1982 H2001 0.913 . S
C1983 H1959 0.950 . S
C1983 C1982 1.524 . S
C1983 C1984 1.415 . S
C1984 H1960 0.950 . S
C1984 C1979 1.363 . S
C1984 C1983 1.415 . S
C1985 H1961 0.951 . S
C1985 C1986 1.366 . S
C1985 C1987 1.388 . S
C1986 C1985 1.366 . S
C1986 C1990 1.385 . S
C1987 H1962 0.951 . S
C1987 C1985 1.388 . S
C1987 C1988 1.366 . S
C1988 C1987 1.366 . S
C1988 C1989 1.414 . S
C1988 C1991 1.499 . S
C1989 H1963 0.950 . S
C1989 C1988 1.414 . S
C1989 C1990 1.374 . S
C1990 H1964 0.950 . S
C1990 C1986 1.385 . S
C1990 C1989 1.374 . S
C1991 C1988 1.499 . S
C1991 C1992 1.373 . S
C1991 C1993 1.389 . S
C1992 H1965 0.950 . S
C1992 C1978 1.377 . S
C1992 C1991 1.373 . S
C1993 C1977 1.377 . S
C1993 C1991 1.389 . S
C1993 C1994 1.524 . S
C1994 C1993 1.524 . S
C1994 C1995 1.397 . S
C1994 C1999 1.363 . S
C1995 H1966 0.950 . S
C1995 C1994 1.397 . S
C1995 C1996 1.334 . S
C1996 H1967 0.950 . S
C1996 C1995 1.334 . S
C1996 C1997 1.287 . S
C1997 C1996 1.287 . S
C1997 C1998 1.524 . S
C1997 H2000 0.999 . S
C1998 H1968 0.950 . S
C1998 C1997 1.524 . S
C1998 C1999 1.415 . S
C1999 H1969 0.950 . S
C1999 C1994 1.363 . S
C1999 C1998 1.415 . S
H2000 C1997 0.999 . S
H2001 C1982 0.913 . S
H2002 C2020 0.951 . S
H2003 C2022 0.951 . S
H2004 C2024 0.950 . S
H2005 C2025 0.950 . S
H2006 C2027 0.950 . S
H2007 C2030 0.950 . S
H2008 C2031 0.950 . S
H2009 C2033 0.950 . S
H2010 C2034 0.950 . S
H2011 C2035 0.951 . S
H2012 C2037 0.951 . S
H2013 C2039 0.950 . S
H2014 C2040 0.950 . S
H2015 C2042 0.950 . S
H2016 C2045 0.950 . S
H2017 C2046 0.950 . S
H2018 C2048 0.950 . S
H2019 C2049 0.950 . S
C2020 H2002 0.951 . S
C2020 C2021 1.366 . S
C2020 C2022 1.388 . S
C2021 C2020 1.366 . S
C2021 C2025 1.385 . S
C2022 H2003 0.951 . S
C2022 C2020 1.388 . S
C2022 C2023 1.366 . S
C2023 C2022 1.366 . S
C2023 C2024 1.414 . S
C2023 C2026 1.499 . S
C2024 H2004 0.950 . S
C2024 C2023 1.414 . S
C2024 C2025 1.374 . S
C2025 H2005 0.950 . S
C2025 C2021 1.385 . S
C2025 C2024 1.374 . S
C2026 C2023 1.499 . S
C2026 C2027 1.373 . S
C2026 C2028 1.389 . S
C2027 H2006 0.950 . S
C2027 C2026 1.373 . S
C2027 C2043 1.377 . S
C2028 C2026 1.389 . S
C2028 C2029 1.524 . S
C2028 C2042 1.377 . S
C2029 C2028 1.524 . S
C2029 C2030 1.397 . S
C2029 C2034 1.363 . S
C2030 H2007 0.950 . S
C2030 C2029 1.397 . S
C2030 C2031 1.334 . S
C2031 H2008 0.950 . S
C2031 C2030 1.334 . S
C2031 C2032 1.287 . S
C2032 C2031 1.287 . S
C2032 C2033 1.524 . S
C2032 H2051 0.913 . S
C2033 H2009 0.950 . S
C2033 C2032 1.524 . S
C2033 C2034 1.415 . S
C2034 H2010 0.950 . S
C2034 C2029 1.363 . S
C2034 C2033 1.415 . S
C2035 H2011 0.951 . S
C2035 C2036 1.366 . S
C2035 C2037 1.388 . S
C2036 C2035 1.366 . S
C2036 C2040 1.385 . S
C2037 H2012 0.951 . S
C2037 C2035 1.388 . S
C2037 C2038 1.366 . S
C2038 C2037 1.366 . S
C2038 C2039 1.414 . S
C2038 C2041 1.499 . S
C2039 H2013 0.950 . S
C2039 C2038 1.414 . S
C2039 C2040 1.374 . S
C2040 H2014 0.950 . S
C2040 C2036 1.385 . S
C2040 C2039 1.374 . S
C2041 C2038 1.499 . S
C2041 C2042 1.373 . S
C2041 C2043 1.389 . S
C2042 H2015 0.950 . S
C2042 C2028 1.377 . S
C2042 C2041 1.373 . S
C2043 C2027 1.377 . S
C2043 C2041 1.389 . S
C2043 C2044 1.524 . S
C2044 C2043 1.524 . S
C2044 C2045 1.397 . S
C2044 C2049 1.363 . S
C2045 H2016 0.950 . S
C2045 C2044 1.397 . S
C2045 C2046 1.334 . S
C2046 H2017 0.950 . S
C2046 C2045 1.334 . S
C2046 C2047 1.287 . S
C2047 C2046 1.287 . S
C2047 C2048 1.524 . S
C2047 H2050 0.999 . S
C2048 H2018 0.950 . S
C2048 C2047 1.524 . S
C2048 C2049 1.415 . S
C2049 H2019 0.950 . S
C2049 C2044 1.363 . S
C2049 C2048 1.415 . S
H2050 C2047 0.999 . S
H2051 C2032 0.913 . S
H2052 C2070 0.951 . S
H2053 C2072 0.951 . S
H2054 C2074 0.950 . S
H2055 C2075 0.950 . S
H2056 C2077 0.950 . S
H2057 C2080 0.950 . S
H2058 C2081 0.950 . S
H2059 C2083 0.950 . S
H2060 C2084 0.950 . S
H2061 C2085 0.951 . S
H2062 C2087 0.951 . S
H2063 C2089 0.950 . S
H2064 C2090 0.950 . S
H2065 C2092 0.950 . S
H2066 C2095 0.950 . S
H2067 C2096 0.950 . S
H2068 C2098 0.950 . S
H2069 C2099 0.950 . S
C2070 H2052 0.951 . S
C2070 C2071 1.366 . S
C2070 C2072 1.388 . S
C2071 C2070 1.366 . S
C2071 C2075 1.385 . S
C2072 H2053 0.951 . S
C2072 C2070 1.388 . S
C2072 C2073 1.366 . S
C2073 C2072 1.366 . S
C2073 C2074 1.414 . S
C2073 C2076 1.499 . S
C2074 H2054 0.950 . S
C2074 C2073 1.414 . S
C2074 C2075 1.374 . S
C2075 H2055 0.950 . S
C2075 C2071 1.385 . S
C2075 C2074 1.374 . S
C2076 C2073 1.499 . S
C2076 C2077 1.373 . S
C2076 C2078 1.389 . S
C2077 H2056 0.950 . S
C2077 C2076 1.373 . S
C2077 C2093 1.377 . S
C2078 C2076 1.389 . S
C2078 C2079 1.524 . S
C2078 C2092 1.377 . S
C2079 C2078 1.524 . S
C2079 C2080 1.397 . S
C2079 C2084 1.363 . S
C2080 H2057 0.950 . S
C2080 C2079 1.397 . S
C2080 C2081 1.334 . S
C2081 H2058 0.950 . S
C2081 C2080 1.334 . S
C2081 C2082 1.287 . S
C2082 C2081 1.287 . S
C2082 C2083 1.524 . S
C2082 H2101 0.913 . S
C2083 H2059 0.950 . S
C2083 C2082 1.524 . S
C2083 C2084 1.415 . S
C2084 H2060 0.950 . S
C2084 C2079 1.363 . S
C2084 C2083 1.415 . S
C2085 H2061 0.951 . S
C2085 C2086 1.366 . S
C2085 C2087 1.388 . S
C2086 C2085 1.366 . S
C2086 C2090 1.385 . S
C2087 H2062 0.951 . S
C2087 C2085 1.388 . S
C2087 C2088 1.366 . S
C2088 C2087 1.366 . S
C2088 C2089 1.414 . S
C2088 C2091 1.499 . S
C2089 H2063 0.950 . S
C2089 C2088 1.414 . S
C2089 C2090 1.374 . S
C2090 H2064 0.950 . S
C2090 C2086 1.385 . S
C2090 C2089 1.374 . S
C2091 C2088 1.499 . S
C2091 C2092 1.373 . S
C2091 C2093 1.389 . S
C2092 H2065 0.950 . S
C2092 C2078 1.377 . S
C2092 C2091 1.373 . S
C2093 C2077 1.377 . S
C2093 C2091 1.389 . S
C2093 C2094 1.524 . S
C2094 C2093 1.524 . S
C2094 C2095 1.397 . S
C2094 C2099 1.363 . S
C2095 H2066 0.950 . S
C2095 C2094 1.397 . S
C2095 C2096 1.334 . S
C2096 H2067 0.950 . S
C2096 C2095 1.334 . S
C2096 C2097 1.287 . S
C2097 C2096 1.287 . S
C2097 C2098 1.524 . S
C2097 H2100 0.999 . S
C2098 H2068 0.950 . S
C2098 C2097 1.524 . S
C2098 C2099 1.415 . S
C2099 H2069 0.950 . S
C2099 C2094 1.363 . S
C2099 C2098 1.415 . S
H2100 C2097 0.999 . S
H2101 C2082 0.913 . S
H2102 C2120 0.951 . S
H2103 C2122 0.951 . S
H2104 C2124 0.950 . S
H2105 C2125 0.950 . S
H2106 C2127 0.950 . S
H2107 C2130 0.950 . S
H2108 C2131 0.950 . S
H2109 C2133 0.950 . S
H2110 C2134 0.950 . S
H2111 C2135 0.951 . S
H2112 C2137 0.951 . S
H2113 C2139 0.950 . S
H2114 C2140 0.950 . S
H2115 C2142 0.950 . S
H2116 C2145 0.950 . S
H2117 C2146 0.950 . S
H2118 C2148 0.950 . S
H2119 C2149 0.950 . S
C2120 H2102 0.951 . S
C2120 C2121 1.366 . S
C2120 C2122 1.388 . S
C2121 C2120 1.366 . S
C2121 C2125 1.385 . S
C2122 H2103 0.951 . S
C2122 C2120 1.388 . S
C2122 C2123 1.366 . S
C2123 C2122 1.366 . S
C2123 C2124 1.414 . S
C2123 C2126 1.499 . S
C2124 H2104 0.950 . S
C2124 C2123 1.414 . S
C2124 C2125 1.374 . S
C2125 H2105 0.950 . S
C2125 C2121 1.385 . S
C2125 C2124 1.374 . S
C2126 C2123 1.499 . S
C2126 C2127 1.373 . S
C2126 C2128 1.389 . S
C2127 H2106 0.950 . S
C2127 C2126 1.373 . S
C2127 C2143 1.377 . S
C2128 C2126 1.389 . S
C2128 C2129 1.524 . S
C2128 C2142 1.377 . S
C2129 C2128 1.524 . S
C2129 C2130 1.397 . S
C2129 C2134 1.363 . S
C2130 H2107 0.950 . S
C2130 C2129 1.397 . S
C2130 C2131 1.334 . S
C2131 H2108 0.950 . S
C2131 C2130 1.334 . S
C2131 C2132 1.287 . S
C2132 C2131 1.287 . S
C2132 C2133 1.524 . S
C2132 H2151 0.913 . S
C2133 H2109 0.950 . S
C2133 C2132 1.524 . S
C2133 C2134 1.415 . S
C2134 H2110 0.950 . S
C2134 C2129 1.363 . S
C2134 C2133 1.415 . S
C2135 H2111 0.951 . S
C2135 C2136 1.366 . S
C2135 C2137 1.388 . S
C2136 C2135 1.366 . S
C2136 C2140 1.385 . S
C2137 H2112 0.951 . S
C2137 C2135 1.388 . S
C2137 C2138 1.366 . S
C2138 C2137 1.366 . S
C2138 C2139 1.414 . S
C2138 C2141 1.499 . S
C2139 H2113 0.950 . S
C2139 C2138 1.414 . S
C2139 C2140 1.374 . S
C2140 H2114 0.950 . S
C2140 C2136 1.385 . S
C2140 C2139 1.374 . S
C2141 C2138 1.499 . S
C2141 C2142 1.373 . S
C2141 C2143 1.389 . S
C2142 H2115 0.950 . S
C2142 C2128 1.377 . S
C2142 C2141 1.373 . S
C2143 C2127 1.377 . S
C2143 C2141 1.389 . S
C2143 C2144 1.524 . S
C2144 C2143 1.524 . S
C2144 C2145 1.397 . S
C2144 C2149 1.363 . S
C2145 H2116 0.950 . S
C2145 C2144 1.397 . S
C2145 C2146 1.334 . S
C2146 H2117 0.950 . S
C2146 C2145 1.334 . S
C2146 C2147 1.287 . S
C2147 C2146 1.287 . S
C2147 C2148 1.524 . S
C2147 H2150 0.999 . S
C2148 H2118 0.950 . S
C2148 C2147 1.524 . S
C2148 C2149 1.415 . S
C2149 H2119 0.950 . S
C2149 C2144 1.363 . S
C2149 C2148 1.415 . S
H2150 C2147 0.999 . S
H2151 C2132 0.913 . S
H2152 C2170 0.951 . S
H2153 C2172 0.951 . S
H2154 C2174 0.950 . S
H2155 C2175 0.950 . S
H2156 C2177 0.950 . S
H2157 C2180 0.950 . S
H2158 C2181 0.950 . S
H2159 C2183 0.950 . S
H2160 C2184 0.950 . S
H2161 C2185 0.951 . S
H2162 C2187 0.951 . S
H2163 C2189 0.950 . S
H2164 C2190 0.950 . S
H2165 C2192 0.950 . S
H2166 C2195 0.950 . S
H2167 C2196 0.935 1_655 S
H2168 C2198 0.950 . S
H2169 C2199 0.950 . S
C2170 H2152 0.951 . S
C2170 C2171 1.366 . S
C2170 C2172 1.388 . S
C2171 C2170 1.366 . S
C2171 C2175 1.385 . S
C2172 H2153 0.951 . S
C2172 C2170 1.388 . S
C2172 C2173 1.366 . S
C2173 C2172 1.366 . S
C2173 C2174 1.414 . S
C2173 C2176 1.499 . S
C2174 H2154 0.950 . S
C2174 C2173 1.414 . S
C2174 C2175 1.374 . S
C2175 H2155 0.950 . S
C2175 C2171 1.385 . S
C2175 C2174 1.374 . S
C2176 C2173 1.499 . S
C2176 C2177 1.373 . S
C2176 C2178 1.389 . S
C2177 H2156 0.950 . S
C2177 C2176 1.373 . S
C2177 C2193 1.377 . S
C2178 C2176 1.389 . S
C2178 C2179 1.524 . S
C2178 C2192 1.377 . S
C2179 C2178 1.524 . S
C2179 C2180 1.397 . S
C2179 C2184 1.363 . S
C2180 H2157 0.950 . S
C2180 C2179 1.397 . S
C2180 C2181 1.334 . S
C2181 H2158 0.950 . S
C2181 C2180 1.334 . S
C2181 C2182 1.287 . S
C2182 C2181 1.287 . S
C2182 C2183 1.524 . S
C2182 H2201 0.913 . S
C2183 H2159 0.950 . S
C2183 C2182 1.524 . S
C2183 C2184 1.415 . S
C2184 H2160 0.950 . S
C2184 C2179 1.363 . S
C2184 C2183 1.415 . S
C2185 H2161 0.951 . S
C2185 C2186 1.366 . S
C2185 C2187 1.388 . S
C2186 C2185 1.366 . S
C2186 C2190 1.385 . S
C2187 H2162 0.951 . S
C2187 C2185 1.388 . S
C2187 C2188 1.366 . S
C2188 C2187 1.366 . S
C2188 C2189 1.414 . S
C2188 C2191 1.499 . S
C2189 H2163 0.950 . S
C2189 C2188 1.414 . S
C2189 C2190 1.374 . S
C2190 H2164 0.950 . S
C2190 C2186 1.385 . S
C2190 C2189 1.374 . S
C2191 C2188 1.499 . S
C2191 C2192 1.373 . S
C2191 C2193 1.389 . S
C2192 H2165 0.950 . S
C2192 C2178 1.377 . S
C2192 C2191 1.373 . S
C2193 C2177 1.377 . S
C2193 C2191 1.389 . S
C2193 C2194 1.524 . S
C2194 C2193 1.524 . S
C2194 C2195 1.397 . S
C2194 C2199 1.363 . S
C2195 H2166 0.950 . S
C2195 C2194 1.397 . S
C2195 C2196 1.362 . S
C2196 H2167 0.935 1_455 S
C2196 C2195 1.362 . S
C2196 C2197 1.275 1_455 S
C2197 C2196 1.275 1_655 S
C2197 C2198 1.524 1_655 S
C2197 H2200 0.999 . S
C2198 H2168 0.950 . S
C2198 C2197 1.524 1_455 S
C2198 C2199 1.415 . S
C2199 H2169 0.950 . S
C2199 C2194 1.363 . S
C2199 C2198 1.415 . S
H2200 C2197 0.999 . S
H2201 C2182 0.913 . S
H2202 C2220 0.951 . S
H2203 C2222 0.951 . S
H2204 C2224 0.950 . S
H2205 C2225 0.950 . S
H2206 C2227 0.950 . S
H2207 C2230 0.950 . S
H2208 C2231 0.950 . S
H2209 C2233 0.950 . S
H2210 C2234 0.950 . S
H2211 C2235 0.951 . S
H2212 C2237 0.951 . S
H2213 C2239 0.950 . S
H2214 C2240 0.950 . S
H2215 C2242 0.950 . S
H2216 C2245 0.950 . S
H2217 C2246 0.950 . S
H2218 C2248 0.950 . S
H2219 C2249 0.950 . S
C2220 H2202 0.951 . S
C2220 C2221 1.366 . S
C2220 C2222 1.388 . S
C2221 C2220 1.366 . S
C2221 C2225 1.385 . S
C2222 H2203 0.951 . S
C2222 C2220 1.388 . S
C2222 C2223 1.366 . S
C2223 C2222 1.366 . S
C2223 C2224 1.414 . S
C2223 C2226 1.499 . S
C2224 H2204 0.950 . S
C2224 C2223 1.414 . S
C2224 C2225 1.374 . S
C2225 H2205 0.950 . S
C2225 C2221 1.385 . S
C2225 C2224 1.374 . S
C2226 C2223 1.499 . S
C2226 C2227 1.373 . S
C2226 C2228 1.389 . S
C2227 H2206 0.950 . S
C2227 C2226 1.373 . S
C2227 C2243 1.377 . S
C2228 C2226 1.389 . S
C2228 C2229 1.524 . S
C2228 C2242 1.377 . S
C2229 C2228 1.524 . S
C2229 C2230 1.397 . S
C2229 C2234 1.363 . S
C2230 H2207 0.950 . S
C2230 C2229 1.397 . S
C2230 C2231 1.334 . S
C2231 H2208 0.950 . S
C2231 C2230 1.334 . S
C2231 C2232 1.287 . S
C2232 C2231 1.287 . S
C2232 C2233 1.524 . S
C2232 H2251 0.913 . S
C2233 H2209 0.950 . S
C2233 C2232 1.524 . S
C2233 C2234 1.415 . S
C2234 H2210 0.950 . S
C2234 C2229 1.363 . S
C2234 C2233 1.415 . S
C2235 H2211 0.951 . S
C2235 C2236 1.366 . S
C2235 C2237 1.388 . S
C2236 C2235 1.366 . S
C2236 C2240 1.385 . S
C2237 H2212 0.951 . S
C2237 C2235 1.388 . S
C2237 C2238 1.366 . S
C2238 C2237 1.366 . S
C2238 C2239 1.414 . S
C2238 C2241 1.499 . S
C2239 H2213 0.950 . S
C2239 C2238 1.414 . S
C2239 C2240 1.374 . S
C2240 H2214 0.950 . S
C2240 C2236 1.385 . S
C2240 C2239 1.374 . S
C2241 C2238 1.499 . S
C2241 C2242 1.373 . S
C2241 C2243 1.389 . S
C2242 H2215 0.950 . S
C2242 C2228 1.377 . S
C2242 C2241 1.373 . S
C2243 C2227 1.377 . S
C2243 C2241 1.389 . S
C2243 C2244 1.524 . S
C2244 C2243 1.524 . S
C2244 C2245 1.397 . S
C2244 C2249 1.363 . S
C2245 H2216 0.950 . S
C2245 C2244 1.397 . S
C2245 C2246 1.334 . S
C2246 H2217 0.950 . S
C2246 C2245 1.334 . S
C2246 C2247 1.287 . S
C2247 C2246 1.287 . S
C2247 C2248 1.524 . S
C2247 H2250 0.999 . S
C2248 H2218 0.950 . S
C2248 C2247 1.524 . S
C2248 C2249 1.415 . S
C2249 H2219 0.950 . S
C2249 C2244 1.363 . S
C2249 C2248 1.415 . S
H2250 C2247 0.999 . S
H2251 C2232 0.913 . S
H2252 C2270 0.951 . S
H2253 C2272 0.951 . S
H2254 C2274 0.950 . S
H2255 C2275 0.950 . S
H2256 C2277 0.950 . S
H2257 C2280 0.950 . S
H2258 C2281 0.950 . S
H2259 C2283 0.950 . S
H2260 C2284 0.950 . S
H2261 C2285 0.951 . S
H2262 C2287 0.951 . S
H2263 C2289 0.950 . S
H2264 C2290 0.950 . S
H2265 C2292 0.950 . S
H2266 C2295 0.950 . S
H2267 C2296 0.950 . S
H2268 C2298 0.950 . S
H2269 C2299 0.950 . S
C2270 H2252 0.951 . S
C2270 C2271 1.366 . S
C2270 C2272 1.388 . S
C2271 C2270 1.366 . S
C2271 C2275 1.385 . S
C2272 H2253 0.951 . S
C2272 C2270 1.388 . S
C2272 C2273 1.366 . S
C2273 C2272 1.366 . S
C2273 C2274 1.414 . S
C2273 C2276 1.499 . S
C2274 H2254 0.950 . S
C2274 C2273 1.414 . S
C2274 C2275 1.374 . S
C2275 H2255 0.950 . S
C2275 C2271 1.385 . S
C2275 C2274 1.374 . S
C2276 C2273 1.499 . S
C2276 C2277 1.373 . S
C2276 C2278 1.389 . S
C2277 H2256 0.950 . S
C2277 C2276 1.373 . S
C2277 C2293 1.377 . S
C2278 C2276 1.389 . S
C2278 C2279 1.524 . S
C2278 C2292 1.377 . S
C2279 C2278 1.524 . S
C2279 C2280 1.397 . S
C2279 C2284 1.363 . S
C2280 H2257 0.950 . S
C2280 C2279 1.397 . S
C2280 C2281 1.334 . S
C2281 H2258 0.950 . S
C2281 C2280 1.334 . S
C2281 C2282 1.287 . S
C2282 C2281 1.287 . S
C2282 C2283 1.524 . S
C2282 H2301 0.913 . S
C2283 H2259 0.950 . S
C2283 C2282 1.524 . S
C2283 C2284 1.415 . S
C2284 H2260 0.950 . S
C2284 C2279 1.363 . S
C2284 C2283 1.415 . S
C2285 H2261 0.951 . S
C2285 C2286 1.366 . S
C2285 C2287 1.388 . S
C2286 C2285 1.366 . S
C2286 C2290 1.385 . S
C2287 H2262 0.951 . S
C2287 C2285 1.388 . S
C2287 C2288 1.366 . S
C2288 C2287 1.366 . S
C2288 C2289 1.414 . S
C2288 C2291 1.499 . S
C2289 H2263 0.950 . S
C2289 C2288 1.414 . S
C2289 C2290 1.374 . S
C2290 H2264 0.950 . S
C2290 C2286 1.385 . S
C2290 C2289 1.374 . S
C2291 C2288 1.499 . S
C2291 C2292 1.373 . S
C2291 C2293 1.389 . S
C2292 H2265 0.950 . S
C2292 C2278 1.377 . S
C2292 C2291 1.373 . S
C2293 C2277 1.377 . S
C2293 C2291 1.389 . S
C2293 C2294 1.524 . S
C2294 C2293 1.524 . S
C2294 C2295 1.397 . S
C2294 C2299 1.363 . S
C2295 H2266 0.950 . S
C2295 C2294 1.397 . S
C2295 C2296 1.334 . S
C2296 H2267 0.950 . S
C2296 C2295 1.334 . S
C2296 C2297 1.287 . S
C2297 C2296 1.287 . S
C2297 C2298 1.524 . S
C2297 H2300 0.999 . S
C2298 H2268 0.950 . S
C2298 C2297 1.524 . S
C2298 C2299 1.415 . S
C2299 H2269 0.950 . S
C2299 C2294 1.363 . S
C2299 C2298 1.415 . S
H2300 C2297 0.999 . S
H2301 C2282 0.913 . S
H2302 C2320 0.951 . S
H2303 C2322 0.951 . S
H2304 C2324 0.950 . S
H2305 C2325 0.950 . S
H2306 C2327 0.950 . S
H2307 C2330 0.950 . S
H2308 C2331 0.950 . S
H2309 C2333 0.950 . S
H2310 C2334 0.950 . S
H2311 C2335 0.951 . S
H2312 C2337 0.951 . S
H2313 C2339 0.950 . S
H2314 C2340 0.950 . S
H2315 C2342 0.950 . S
H2316 C2345 0.950 . S
H2317 C2346 0.950 . S
H2318 C2348 0.950 . S
H2319 C2349 0.950 . S
C2320 H2302 0.951 . S
C2320 C2321 1.366 . S
C2320 C2322 1.388 . S
C2321 C2320 1.366 . S
C2321 C2325 1.385 . S
C2322 H2303 0.951 . S
C2322 C2320 1.388 . S
C2322 C2323 1.366 . S
C2323 C2322 1.366 . S
C2323 C2324 1.414 . S
C2323 C2326 1.499 . S
C2324 H2304 0.950 . S
C2324 C2323 1.414 . S
C2324 C2325 1.374 . S
C2325 H2305 0.950 . S
C2325 C2321 1.385 . S
C2325 C2324 1.374 . S
C2326 C2323 1.499 . S
C2326 C2327 1.373 . S
C2326 C2328 1.389 . S
C2327 H2306 0.950 . S
C2327 C2326 1.373 . S
C2327 C2343 1.377 . S
C2328 C2326 1.389 . S
C2328 C2329 1.524 . S
C2328 C2342 1.377 . S
C2329 C2328 1.524 . S
C2329 C2330 1.397 . S
C2329 C2334 1.363 . S
C2330 H2307 0.950 . S
C2330 C2329 1.397 . S
C2330 C2331 1.334 . S
C2331 H2308 0.950 . S
C2331 C2330 1.334 . S
C2331 C2332 1.287 . S
C2332 C2331 1.287 . S
C2332 C2333 1.524 . S
C2332 H2351 0.913 . S
C2333 H2309 0.950 . S
C2333 C2332 1.524 . S
C2333 C2334 1.415 . S
C2334 H2310 0.950 . S
C2334 C2329 1.363 . S
C2334 C2333 1.415 . S
C2335 H2311 0.951 . S
C2335 C2336 1.366 . S
C2335 C2337 1.388 . S
C2336 C2335 1.366 . S
C2336 C2340 1.385 . S
C2337 H2312 0.951 . S
C2337 C2335 1.388 . S
C2337 C2338 1.366 . S
C2338 C2337 1.366 . S
C2338 C2339 1.414 . S
C2338 C2341 1.499 . S
C2339 H2313 0.950 . S
C2339 C2338 1.414 . S
C2339 C2340 1.374 . S
C2340 H2314 0.950 . S
C2340 C2336 1.385 . S
C2340 C2339 1.374 . S
C2341 C2338 1.499 . S
C2341 C2342 1.373 . S
C2341 C2343 1.389 . S
C2342 H2315 0.950 . S
C2342 C2328 1.377 . S
C2342 C2341 1.373 . S
C2343 C2327 1.377 . S
C2343 C2341 1.389 . S
C2343 C2344 1.524 . S
C2344 C2343 1.524 . S
C2344 C2345 1.397 . S
C2344 C2349 1.363 . S
C2345 H2316 0.950 . S
C2345 C2344 1.397 . S
C2345 C2346 1.334 . S
C2346 H2317 0.950 . S
C2346 C2345 1.334 . S
C2346 C2347 1.287 . S
C2347 C2346 1.287 . S
C2347 C2348 1.524 . S
C2347 H2350 0.999 . S
C2348 H2318 0.950 . S
C2348 C2347 1.524 . S
C2348 C2349 1.415 . S
C2349 H2319 0.950 . S
C2349 C2344 1.363 . S
C2349 C2348 1.415 . S
H2350 C2347 0.999 . S
H2351 C2332 0.913 . S
H2352 C2370 0.951 . S
H2353 C2372 0.951 . S
H2354 C2374 0.950 . S
H2355 C2375 0.950 . S
H2356 C2377 0.950 . S
H2357 C2380 0.950 . S
H2358 C2381 0.950 . S
H2359 C2383 0.950 1_655 S
H2360 C2384 0.950 . S
H2361 C2385 0.951 . S
H2362 C2387 0.951 . S
H2363 C2389 0.950 . S
H2364 C2390 0.950 . S
H2365 C2392 0.950 . S
H2366 C2395 0.950 . S
H2367 C2396 0.950 . S
H2368 C2398 0.950 . S
H2369 C2399 0.950 . S
C2370 H2352 0.951 . S
C2370 C2371 1.366 . S
C2370 C2372 1.388 . S
C2371 C2370 1.366 . S
C2371 C2375 1.385 . S
C2372 H2353 0.951 . S
C2372 C2370 1.388 . S
C2372 C2373 1.366 . S
C2373 C2372 1.366 . S
C2373 C2374 1.414 . S
C2373 C2376 1.499 . S
C2374 H2354 0.950 . S
C2374 C2373 1.414 . S
C2374 C2375 1.374 . S
C2375 H2355 0.950 . S
C2375 C2371 1.385 . S
C2375 C2374 1.374 . S
C2376 C2373 1.499 . S
C2376 C2377 1.373 . S
C2376 C2378 1.389 . S
C2377 H2356 0.950 . S
C2377 C2376 1.373 . S
C2377 C2393 1.377 . S
C2378 C2376 1.389 . S
C2378 C2379 1.524 . S
C2378 C2392 1.377 . S
C2379 C2378 1.524 . S
C2379 C2380 1.397 . S
C2379 C2384 1.363 . S
C2380 H2357 0.950 . S
C2380 C2379 1.397 . S
C2380 C2381 1.334 . S
C2381 H2358 0.950 . S
C2381 C2380 1.334 . S
C2381 C2382 1.287 . S
C2382 C2381 1.287 . S
C2382 C2383 1.524 . S
C2382 H2401 0.913 . S
C2383 H2359 0.950 1_455 S
C2383 C2382 1.524 . S
C2383 C2384 1.415 . S
C2384 H2360 0.950 . S
C2384 C2379 1.363 . S
C2384 C2383 1.415 . S
C2385 H2361 0.951 . S
C2385 C2386 1.366 . S
C2385 C2387 1.388 . S
C2386 C2385 1.366 . S
C2386 C2390 1.385 . S
C2387 H2362 0.951 . S
C2387 C2385 1.388 . S
C2387 C2388 1.366 . S
C2388 C2387 1.366 . S
C2388 C2389 1.414 . S
C2388 C2391 1.499 . S
C2389 H2363 0.950 . S
C2389 C2388 1.414 . S
C2389 C2390 1.374 . S
C2390 H2364 0.950 . S
C2390 C2386 1.385 . S
C2390 C2389 1.374 . S
C2391 C2388 1.499 . S
C2391 C2392 1.373 . S
C2391 C2393 1.389 . S
C2392 H2365 0.950 . S
C2392 C2378 1.377 . S
C2392 C2391 1.373 . S
C2393 C2377 1.377 . S
C2393 C2391 1.389 . S
C2393 C2394 1.524 . S
C2394 C2393 1.524 . S
C2394 C2395 1.397 . S
C2394 C2399 1.363 . S
C2395 H2366 0.950 . S
C2395 C2394 1.397 . S
C2395 C2396 1.334 . S
C2396 H2367 0.950 . S
C2396 C2395 1.334 . S
C2396 C2397 1.287 . S
C2397 C2396 1.287 . S
C2397 C2398 1.524 . S
C2397 H2400 0.999 . S
C2398 H2368 0.950 . S
C2398 C2397 1.524 . S
C2398 C2399 1.415 . S
C2399 H2369 0.950 . S
C2399 C2394 1.363 . S
C2399 C2398 1.415 . S
H2400 C2397 0.999 . S
H2401 C2382 0.913 . S
H2402 C2420 0.951 . S
H2403 C2422 0.951 . S
H2404 C2424 0.950 . S
H2405 C2425 0.950 . S
H2406 C2427 0.950 . S
H2407 C2430 0.950 . S
H2408 C2431 0.950 . S
H2409 C2433 0.950 . S
H2410 C2434 0.950 . S
H2411 C2435 0.951 . S
H2412 C2437 0.951 . S
H2413 C2439 0.950 . S
H2414 C2440 0.950 . S
H2415 C2442 0.950 . S
H2416 C2445 0.950 . S
H2417 C2446 0.950 . S
H2418 C2448 0.950 . S
H2419 C2449 0.950 . S
C2420 H2402 0.951 . S
C2420 C2421 1.366 . S
C2420 C2422 1.388 . S
C2421 C2420 1.366 . S
C2421 C2425 1.385 . S
C2422 H2403 0.951 . S
C2422 C2420 1.388 . S
C2422 C2423 1.366 . S
C2423 C2422 1.366 . S
C2423 C2424 1.414 . S
C2423 C2426 1.499 . S
C2424 H2404 0.950 . S
C2424 C2423 1.414 . S
C2424 C2425 1.374 . S
C2425 H2405 0.950 . S
C2425 C2421 1.385 . S
C2425 C2424 1.374 . S
C2426 C2423 1.499 . S
C2426 C2427 1.373 . S
C2426 C2428 1.389 . S
C2427 H2406 0.950 . S
C2427 C2426 1.373 . S
C2427 C2443 1.377 . S
C2428 C2426 1.389 . S
C2428 C2429 1.524 . S
C2428 C2442 1.377 . S
C2429 C2428 1.524 . S
C2429 C2430 1.397 . S
C2429 C2434 1.363 . S
C2430 H2407 0.950 . S
C2430 C2429 1.397 . S
C2430 C2431 1.334 . S
C2431 H2408 0.950 . S
C2431 C2430 1.334 . S
C2431 C2432 1.287 . S
C2432 C2431 1.287 . S
C2432 C2433 1.524 . S
C2432 H2451 0.913 . S
C2433 H2409 0.950 . S
C2433 C2432 1.524 . S
C2433 C2434 1.415 . S
C2434 H2410 0.950 . S
C2434 C2429 1.363 . S
C2434 C2433 1.415 . S
C2435 H2411 0.951 . S
C2435 C2436 1.366 . S
C2435 C2437 1.388 . S
C2436 C2435 1.366 . S
C2436 C2440 1.385 . S
C2437 H2412 0.951 . S
C2437 C2435 1.388 . S
C2437 C2438 1.366 . S
C2438 C2437 1.366 . S
C2438 C2439 1.414 . S
C2438 C2441 1.499 . S
C2439 H2413 0.950 . S
C2439 C2438 1.414 . S
C2439 C2440 1.374 . S
C2440 H2414 0.950 . S
C2440 C2436 1.385 . S
C2440 C2439 1.374 . S
C2441 C2438 1.499 . S
C2441 C2442 1.373 . S
C2441 C2443 1.389 . S
C2442 H2415 0.950 . S
C2442 C2428 1.377 . S
C2442 C2441 1.373 . S
C2443 C2427 1.377 . S
C2443 C2441 1.389 . S
C2443 C2444 1.524 . S
C2444 C2443 1.524 . S
C2444 C2445 1.397 . S
C2444 C2449 1.363 . S
C2445 H2416 0.950 . S
C2445 C2444 1.397 . S
C2445 C2446 1.334 . S
C2446 H2417 0.950 . S
C2446 C2445 1.334 . S
C2446 C2447 1.287 . S
C2447 C2446 1.287 . S
C2447 C2448 1.524 . S
C2447 H2450 0.999 . S
C2448 H2418 0.950 . S
C2448 C2447 1.524 . S
C2448 C2449 1.415 . S
C2449 H2419 0.950 . S
C2449 C2444 1.363 . S
C2449 C2448 1.415 . S
H2450 C2447 0.999 . S
H2451 C2432 0.913 . S
H2452 C2470 0.951 . S
H2453 C2472 0.951 . S
H2454 C2474 0.950 . S
H2455 C2475 0.950 . S
H2456 C2477 0.950 . S
H2457 C2480 0.950 . S
H2458 C2481 0.950 . S
H2459 C2483 0.950 . S
H2460 C2484 0.950 . S
H2461 C2485 0.951 . S
H2462 C2487 0.951 . S
H2463 C2489 0.950 . S
H2464 C2490 0.950 1_545 S
H2465 C2492 0.950 . S
H2466 C2495 0.950 . S
H2467 C2496 0.950 . S
H2468 C2498 0.950 . S
H2469 C2499 0.950 . S
C2470 H2452 0.951 . S
C2470 C2471 1.366 . S
C2470 C2472 1.388 . S
C2471 C2470 1.366 . S
C2471 C2475 1.385 . S
C2472 H2453 0.951 . S
C2472 C2470 1.388 . S
C2472 C2473 1.366 . S
C2473 C2472 1.366 . S
C2473 C2474 1.414 . S
C2473 C2476 1.499 . S
C2474 H2454 0.950 . S
C2474 C2473 1.414 . S
C2474 C2475 1.374 . S
C2475 H2455 0.950 . S
C2475 C2471 1.385 . S
C2475 C2474 1.374 . S
C2476 C2473 1.499 . S
C2476 C2477 1.373 . S
C2476 C2478 1.389 . S
C2477 H2456 0.950 . S
C2477 C2476 1.373 . S
C2477 C2493 1.377 . S
C2478 C2476 1.389 . S
C2478 C2479 1.524 . S
C2478 C2492 1.377 . S
C2479 C2478 1.524 . S
C2479 C2480 1.397 . S
C2479 C2484 1.363 . S
C2480 H2457 0.950 . S
C2480 C2479 1.397 . S
C2480 C2481 1.334 . S
C2481 H2458 0.950 . S
C2481 C2480 1.334 . S
C2481 C2482 1.287 . S
C2482 C2481 1.287 . S
C2482 C2483 1.524 . S
C2482 H2501 0.913 . S
C2483 H2459 0.950 . S
C2483 C2482 1.524 . S
C2483 C2484 1.415 . S
C2484 H2460 0.950 . S
C2484 C2479 1.363 . S
C2484 C2483 1.415 . S
C2485 H2461 0.951 . S
C2485 C2486 1.366 . S
C2485 C2487 1.388 . S
C2486 C2485 1.366 . S
C2486 C2490 1.385 . S
C2487 H2462 0.951 . S
C2487 C2485 1.388 . S
C2487 C2488 1.366 . S
C2488 C2487 1.366 . S
C2488 C2489 1.414 . S
C2488 C2491 1.499 . S
C2489 H2463 0.950 . S
C2489 C2488 1.414 . S
C2489 C2490 1.374 . S
C2490 H2464 0.950 1_565 S
C2490 C2486 1.385 . S
C2490 C2489 1.374 . S
C2491 C2488 1.499 . S
C2491 C2492 1.373 . S
C2491 C2493 1.389 . S
C2492 H2465 0.950 . S
C2492 C2478 1.377 . S
C2492 C2491 1.373 . S
C2493 C2477 1.377 . S
C2493 C2491 1.389 . S
C2493 C2494 1.524 . S
C2494 C2493 1.524 . S
C2494 C2495 1.397 . S
C2494 C2499 1.363 . S
C2495 H2466 0.950 . S
C2495 C2494 1.397 . S
C2495 C2496 1.334 . S
C2496 H2467 0.950 . S
C2496 C2495 1.334 . S
C2496 C2497 1.287 . S
C2497 C2496 1.287 . S
C2497 C2498 1.524 . S
C2497 H2500 0.999 . S
C2498 H2468 0.950 . S
C2498 C2497 1.524 . S
C2498 C2499 1.415 . S
C2499 H2469 0.950 . S
C2499 C2494 1.363 . S
C2499 C2498 1.415 . S
H2500 C2497 0.999 . S
H2501 C2482 0.913 . S
H2502 C2520 0.951 . S
H2503 C2522 0.951 . S
H2504 C2524 0.950 . S
H2505 C2525 0.950 . S
H2506 C2527 0.950 . S
H2507 C2530 0.950 . S
H2508 C2531 0.950 . S
H2509 C2533 0.950 . S
H2510 C2534 0.950 . S
H2511 C2535 0.951 . S
H2512 C2537 0.951 . S
H2513 C2539 0.950 . S
H2514 C2540 0.950 . S
H2515 C2542 0.950 . S
H2516 C2545 0.950 . S
H2517 C2546 0.950 . S
H2518 C2548 0.950 . S
H2519 C2549 0.950 . S
C2520 H2502 0.951 . S
C2520 C2521 1.366 . S
C2520 C2522 1.388 . S
C2521 C2520 1.366 . S
C2521 C2525 1.385 . S
C2522 H2503 0.951 . S
C2522 C2520 1.388 . S
C2522 C2523 1.366 . S
C2523 C2522 1.366 . S
C2523 C2524 1.414 . S
C2523 C2526 1.499 . S
C2524 H2504 0.950 . S
C2524 C2523 1.414 . S
C2524 C2525 1.374 . S
C2525 H2505 0.950 . S
C2525 C2521 1.385 . S
C2525 C2524 1.374 . S
C2526 C2523 1.499 . S
C2526 C2527 1.373 . S
C2526 C2528 1.389 . S
C2527 H2506 0.950 . S
C2527 C2526 1.373 . S
C2527 C2543 1.377 . S
C2528 C2526 1.389 . S
C2528 C2529 1.524 . S
C2528 C2542 1.377 . S
C2529 C2528 1.524 . S
C2529 C2530 1.397 . S
C2529 C2534 1.363 . S
C2530 H2507 0.950 . S
C2530 C2529 1.397 . S
C2530 C2531 1.334 . S
C2531 H2508 0.950 . S
C2531 C2530 1.334 . S
C2531 C2532 1.287 . S
C2532 C2531 1.287 . S
C2532 C2533 1.524 . S
C2532 H2551 0.913 . S
C2533 H2509 0.950 . S
C2533 C2532 1.524 . S
C2533 C2534 1.415 . S
C2534 H2510 0.950 . S
C2534 C2529 1.363 . S
C2534 C2533 1.415 . S
C2535 H2511 0.951 . S
C2535 C2536 1.366 . S
C2535 C2537 1.388 . S
C2536 C2535 1.366 . S
C2536 C2540 1.385 . S
C2537 H2512 0.951 . S
C2537 C2535 1.388 . S
C2537 C2538 1.366 . S
C2538 C2537 1.366 . S
C2538 C2539 1.414 . S
C2538 C2541 1.499 . S
C2539 H2513 0.950 . S
C2539 C2538 1.414 . S
C2539 C2540 1.374 . S
C2540 H2514 0.950 . S
C2540 C2536 1.385 . S
C2540 C2539 1.374 . S
C2541 C2538 1.499 . S
C2541 C2542 1.373 . S
C2541 C2543 1.389 . S
C2542 H2515 0.950 . S
C2542 C2528 1.377 . S
C2542 C2541 1.373 . S
C2543 C2527 1.377 . S
C2543 C2541 1.389 . S
C2543 C2544 1.524 . S
C2544 C2543 1.524 . S
C2544 C2545 1.397 . S
C2544 C2549 1.363 . S
C2545 H2516 0.950 . S
C2545 C2544 1.397 . S
C2545 C2546 1.334 . S
C2546 H2517 0.950 . S
C2546 C2545 1.334 . S
C2546 C2547 1.287 . S
C2547 C2546 1.287 . S
C2547 C2548 1.524 . S
C2547 H2550 0.999 . S
C2548 H2518 0.950 . S
C2548 C2547 1.524 . S
C2548 C2549 1.415 . S
C2549 H2519 0.950 . S
C2549 C2544 1.363 . S
C2549 C2548 1.415 . S
H2550 C2547 0.999 . S
H2551 C2532 0.913 . S
H2552 C2570 0.951 . S
H2553 C2572 0.951 . S
H2554 C2574 0.950 1_565 S
H2555 C2575 0.950 1_565 S
H2556 C2577 0.950 1_565 S
H2557 C2580 0.950 . S
H2558 C2581 0.950 . S
H2559 C2583 0.950 . S
H2560 C2584 0.950 . S
H2561 C2585 0.951 . S
H2562 C2587 0.951 . S
H2563 C2589 0.950 . S
H2564 C2590 0.950 . S
H2565 C2592 0.950 . S
H2566 C2595 0.950 . S
H2567 C2596 0.950 . S
H2568 C2598 0.950 . S
H2569 C2599 0.950 . S
C2570 H2552 0.951 . S
C2570 C2571 1.366 . S
C2570 C2572 1.388 . S
C2571 C2570 1.366 . S
C2571 C2575 1.385 . S
C2572 H2553 0.951 . S
C2572 C2570 1.388 . S
C2572 C2573 1.366 . S
C2573 C2572 1.366 . S
C2573 C2574 1.414 . S
C2573 C2576 1.499 . S
C2574 H2554 0.950 1_545 S
C2574 C2573 1.414 . S
C2574 C2575 1.374 . S
C2575 H2555 0.950 1_545 S
C2575 C2571 1.385 . S
C2575 C2574 1.374 . S
C2576 C2573 1.499 . S
C2576 C2577 1.373 . S
C2576 C2578 1.389 . S
C2577 H2556 0.950 1_545 S
C2577 C2576 1.373 . S
C2577 C2593 1.377 . S
C2578 C2576 1.389 . S
C2578 C2579 1.524 . S
C2578 C2592 1.377 . S
C2579 C2578 1.524 . S
C2579 C2580 1.397 . S
C2579 C2584 1.363 . S
C2580 H2557 0.950 . S
C2580 C2579 1.397 . S
C2580 C2581 1.334 . S
C2581 H2558 0.950 . S
C2581 C2580 1.334 . S
C2581 C2582 1.287 . S
C2582 C2581 1.287 . S
C2582 C2583 1.524 . S
C2582 H2601 0.913 . S
C2583 H2559 0.950 . S
C2583 C2582 1.524 . S
C2583 C2584 1.415 . S
C2584 H2560 0.950 . S
C2584 C2579 1.363 . S
C2584 C2583 1.415 . S
C2585 H2561 0.951 . S
C2585 C2586 1.366 . S
C2585 C2587 1.388 . S
C2586 C2585 1.366 . S
C2586 C2590 1.385 . S
C2587 H2562 0.951 . S
C2587 C2585 1.388 . S
C2587 C2588 1.366 . S
C2588 C2587 1.366 . S
C2588 C2589 1.414 . S
C2588 C2591 1.499 . S
C2589 H2563 0.950 . S
C2589 C2588 1.414 . S
C2589 C2590 1.374 . S
C2590 H2564 0.950 . S
C2590 C2586 1.385 . S
C2590 C2589 1.374 . S
C2591 C2588 1.499 . S
C2591 C2592 1.373 . S
C2591 C2593 1.389 . S
C2592 H2565 0.950 . S
C2592 C2578 1.377 . S
C2592 C2591 1.373 . S
C2593 C2577 1.377 . S
C2593 C2591 1.389 . S
C2593 C2594 1.524 1_545 S
C2594 C2593 1.524 1_565 S
C2594 C2595 1.397 . S
C2594 C2599 1.363 . S
C2595 H2566 0.950 . S
C2595 C2594 1.397 . S
C2595 C2596 1.334 . S
C2596 H2567 0.950 . S
C2596 C2595 1.334 . S
C2596 C2597 1.287 . S
C2597 C2596 1.287 . S
C2597 C2598 1.524 . S
C2597 H2600 0.999 . S
C2598 H2568 0.950 . S
C2598 C2597 1.524 . S
C2598 C2599 1.415 . S
C2599 H2569 0.950 . S
C2599 C2594 1.363 . S
C2599 C2598 1.415 . S
H2600 C2597 0.999 . S
H2601 C2582 0.913 . S
H2602 C2620 0.951 . S
H2603 C2622 0.951 . S
H2604 C2624 0.950 . S
H2605 C2625 0.950 . S
H2606 C2627 0.950 . S
H2607 C2630 0.950 . S
H2608 C2631 0.950 . S
H2609 C2633 0.950 . S
H2610 C2634 0.950 . S
H2611 C2635 0.951 . S
H2612 C2637 0.951 . S
H2613 C2639 0.950 . S
H2614 C2640 0.950 . S
H2615 C2642 0.950 . S
H2616 C2645 0.950 . S
H2617 C2646 0.950 . S
H2618 C2648 0.950 . S
H2619 C2649 0.950 . S
C2620 H2602 0.951 . S
C2620 C2621 1.366 . S
C2620 C2622 1.388 . S
C2621 C2620 1.366 . S
C2621 C2625 1.385 . S
C2622 H2603 0.951 . S
C2622 C2620 1.388 . S
C2622 C2623 1.366 . S
C2623 C2622 1.366 . S
C2623 C2624 1.414 . S
C2623 C2626 1.499 . S
C2624 H2604 0.950 . S
C2624 C2623 1.414 . S
C2624 C2625 1.374 . S
C2625 H2605 0.950 . S
C2625 C2621 1.385 . S
C2625 C2624 1.374 . S
C2626 C2623 1.499 . S
C2626 C2627 1.373 . S
C2626 C2628 1.389 . S
C2627 H2606 0.950 . S
C2627 C2626 1.373 . S
C2627 C2643 1.377 . S
C2628 C2626 1.389 . S
C2628 C2629 1.524 . S
C2628 C2642 1.377 . S
C2629 C2628 1.524 . S
C2629 C2630 1.397 . S
C2629 C2634 1.363 . S
C2630 H2607 0.950 . S
C2630 C2629 1.397 . S
C2630 C2631 1.334 . S
C2631 H2608 0.950 . S
C2631 C2630 1.334 . S
C2631 C2632 1.287 . S
C2632 C2631 1.287 . S
C2632 C2633 1.524 . S
C2632 H2651 0.913 . S
C2633 H2609 0.950 . S
C2633 C2632 1.524 . S
C2633 C2634 1.415 . S
C2634 H2610 0.950 . S
C2634 C2629 1.363 . S
C2634 C2633 1.415 . S
C2635 H2611 0.951 . S
C2635 C2636 1.366 . S
C2635 C2637 1.388 . S
C2636 C2635 1.366 . S
C2636 C2640 1.385 . S
C2637 H2612 0.951 . S
C2637 C2635 1.388 . S
C2637 C2638 1.366 . S
C2638 C2637 1.366 . S
C2638 C2639 1.414 . S
C2638 C2641 1.499 . S
C2639 H2613 0.950 . S
C2639 C2638 1.414 . S
C2639 C2640 1.374 . S
C2640 H2614 0.950 . S
C2640 C2636 1.385 . S
C2640 C2639 1.374 . S
C2641 C2638 1.499 . S
C2641 C2642 1.373 . S
C2641 C2643 1.389 . S
C2642 H2615 0.950 . S
C2642 C2628 1.377 . S
C2642 C2641 1.373 . S
C2643 C2627 1.377 . S
C2643 C2641 1.389 . S
C2643 C2644 1.524 . S
C2644 C2643 1.524 . S
C2644 C2645 1.397 . S
C2644 C2649 1.363 . S
C2645 H2616 0.950 . S
C2645 C2644 1.397 . S
C2645 C2646 1.334 . S
C2646 H2617 0.950 . S
C2646 C2645 1.334 . S
C2646 C2647 1.287 . S
C2647 C2646 1.287 . S
C2647 C2648 1.524 . S
C2647 H2650 0.999 . S
C2648 H2618 0.950 . S
C2648 C2647 1.524 . S
C2648 C2649 1.415 . S
C2649 H2619 0.950 . S
C2649 C2644 1.363 . S
C2649 C2648 1.415 . S
H2650 C2647 0.999 . S
H2651 C2632 0.913 . S
H2652 C2670 0.951 . S
H2653 C2672 0.951 . S
H2654 C2674 0.950 . S
H2655 C2675 0.950 . S
H2656 C2677 0.950 . S
H2657 C2680 0.950 . S
H2658 C2681 0.950 . S
H2659 C2683 0.950 . S
H2660 C2684 0.950 1_545 S
H2661 C2685 0.951 . S
H2662 C2687 0.951 . S
H2663 C2689 0.950 . S
H2664 C2690 0.950 . S
H2665 C2692 0.950 . S
H2666 C2695 0.950 . S
H2667 C2696 0.950 . S
H2668 C2698 0.950 . S
H2669 C2699 0.950 . S
C2670 H2652 0.951 . S
C2670 C2671 1.366 . S
C2670 C2672 1.388 . S
C2671 C2670 1.366 . S
C2671 C2675 1.385 . S
C2672 H2653 0.951 . S
C2672 C2670 1.388 . S
C2672 C2673 1.366 . S
C2673 C2672 1.366 . S
C2673 C2674 1.414 . S
C2673 C2676 1.499 . S
C2674 H2654 0.950 . S
C2674 C2673 1.414 . S
C2674 C2675 1.374 . S
C2675 H2655 0.950 . S
C2675 C2671 1.385 . S
C2675 C2674 1.374 . S
C2676 C2673 1.499 . S
C2676 C2677 1.373 . S
C2676 C2678 1.389 . S
C2677 H2656 0.950 . S
C2677 C2676 1.373 . S
C2677 C2693 1.377 . S
C2678 C2676 1.389 . S
C2678 C2679 1.524 1_545 S
C2678 C2692 1.377 . S
C2679 C2678 1.524 1_565 S
C2679 C2680 1.397 . S
C2679 C2684 1.363 . S
C2680 H2657 0.950 . S
C2680 C2679 1.397 . S
C2680 C2681 1.334 . S
C2681 H2658 0.950 . S
C2681 C2680 1.334 . S
C2681 C2682 1.287 . S
C2682 C2681 1.287 . S
C2682 C2683 1.524 . S
C2682 H2701 0.913 . S
C2683 H2659 0.950 . S
C2683 C2682 1.524 . S
C2683 C2684 1.415 . S
C2684 H2660 0.950 1_565 S
C2684 C2679 1.363 . S
C2684 C2683 1.415 . S
C2685 H2661 0.951 . S
C2685 C2686 1.366 . S
C2685 C2687 1.388 . S
C2686 C2685 1.366 . S
C2686 C2690 1.385 . S
C2687 H2662 0.951 . S
C2687 C2685 1.388 . S
C2687 C2688 1.366 . S
C2688 C2687 1.366 . S
C2688 C2689 1.414 . S
C2688 C2691 1.499 . S
C2689 H2663 0.950 . S
C2689 C2688 1.414 . S
C2689 C2690 1.374 . S
C2690 H2664 0.950 . S
C2690 C2686 1.385 . S
C2690 C2689 1.374 . S
C2691 C2688 1.499 . S
C2691 C2692 1.373 . S
C2691 C2693 1.389 . S
C2692 H2665 0.950 . S
C2692 C2678 1.377 . S
C2692 C2691 1.373 . S
C2693 C2677 1.377 . S
C2693 C2691 1.389 . S
C2693 C2694 1.524 . S
C2694 C2693 1.524 . S
C2694 C2695 1.397 . S
C2694 C2699 1.363 . S
C2695 H2666 0.950 . S
C2695 C2694 1.397 . S
C2695 C2696 1.334 . S
C2696 H2667 0.950 . S
C2696 C2695 1.334 . S
C2696 C2697 1.287 . S
C2697 C2696 1.287 . S
C2697 C2698 1.524 . S
C2697 H2700 0.999 . S
C2698 H2668 0.950 . S
C2698 C2697 1.524 . S
C2698 C2699 1.415 . S
C2699 H2669 0.950 . S
C2699 C2694 1.363 . S
C2699 C2698 1.415 . S
H2700 C2697 0.999 . S
H2701 C2682 0.913 . S
H2702 C2720 0.951 . S
H2703 C2722 0.951 . S
H2704 C2724 0.950 . S
H2705 C2725 0.950 . S
H2706 C2727 0.950 . S
H2707 C2730 0.950 . S
H2708 C2731 0.950 . S
H2709 C2733 0.950 . S
H2710 C2734 0.950 . S
H2711 C2735 0.951 . S
H2712 C2737 0.951 . S
H2713 C2739 0.950 . S
H2714 C2740 0.950 . S
H2715 C2742 0.950 . S
H2716 C2745 0.950 . S
H2717 C2746 0.950 . S
H2718 C2748 0.950 . S
H2719 C2749 0.950 . S
C2720 H2702 0.951 . S
C2720 C2721 1.366 . S
C2720 C2722 1.388 . S
C2721 C2720 1.366 . S
C2721 C2725 1.385 . S
C2722 H2703 0.951 . S
C2722 C2720 1.388 . S
C2722 C2723 1.366 . S
C2723 C2722 1.366 . S
C2723 C2724 1.414 . S
C2723 C2726 1.499 . S
C2724 H2704 0.950 . S
C2724 C2723 1.414 . S
C2724 C2725 1.374 . S
C2725 H2705 0.950 . S
C2725 C2721 1.385 . S
C2725 C2724 1.374 . S
C2726 C2723 1.499 . S
C2726 C2727 1.373 . S
C2726 C2728 1.389 . S
C2727 H2706 0.950 . S
C2727 C2726 1.373 . S
C2727 C2743 1.377 . S
C2728 C2726 1.389 . S
C2728 C2729 1.524 . S
C2728 C2742 1.377 . S
C2729 C2728 1.524 . S
C2729 C2730 1.397 . S
C2729 C2734 1.363 . S
C2730 H2707 0.950 . S
C2730 C2729 1.397 . S
C2730 C2731 1.334 . S
C2731 H2708 0.950 . S
C2731 C2730 1.334 . S
C2731 C2732 1.287 . S
C2732 C2731 1.287 . S
C2732 C2733 1.524 . S
C2732 H2751 0.913 . S
C2733 H2709 0.950 . S
C2733 C2732 1.524 . S
C2733 C2734 1.415 . S
C2734 H2710 0.950 . S
C2734 C2729 1.363 . S
C2734 C2733 1.415 . S
C2735 H2711 0.951 . S
C2735 C2736 1.366 . S
C2735 C2737 1.388 . S
C2736 C2735 1.366 . S
C2736 C2740 1.385 . S
C2737 H2712 0.951 . S
C2737 C2735 1.388 . S
C2737 C2738 1.366 . S
C2738 C2737 1.366 . S
C2738 C2739 1.414 . S
C2738 C2741 1.499 . S
C2739 H2713 0.950 . S
C2739 C2738 1.414 . S
C2739 C2740 1.374 . S
C2740 H2714 0.950 . S
C2740 C2736 1.385 . S
C2740 C2739 1.374 . S
C2741 C2738 1.499 . S
C2741 C2742 1.373 . S
C2741 C2743 1.389 . S
C2742 H2715 0.950 . S
C2742 C2728 1.377 . S
C2742 C2741 1.373 . S
C2743 C2727 1.377 . S
C2743 C2741 1.389 . S
C2743 C2744 1.524 . S
C2744 C2743 1.524 . S
C2744 C2745 1.397 . S
C2744 C2749 1.363 . S
C2745 H2716 0.950 . S
C2745 C2744 1.397 . S
C2745 C2746 1.334 . S
C2746 H2717 0.950 . S
C2746 C2745 1.334 . S
C2746 C2747 1.287 . S
C2747 C2746 1.287 . S
C2747 C2748 1.524 . S
C2747 H2750 0.999 . S
C2748 H2718 0.950 . S
C2748 C2747 1.524 . S
C2748 C2749 1.415 . S
C2749 H2719 0.950 . S
C2749 C2744 1.363 . S
C2749 C2748 1.415 . S
H2750 C2747 0.999 . S
H2751 C2732 0.913 . S
H2752 C2770 0.951 . S
H2753 C2772 0.951 . S
H2754 C2774 0.950 . S
H2755 C2775 0.950 . S
H2756 C2777 0.950 . S
H2757 C2780 0.950 . S
H2758 C2781 0.950 . S
H2759 C2783 0.950 . S
H2760 C2784 0.950 . S
H2761 C2785 0.951 . S
H2762 C2787 0.951 . S
H2763 C2789 0.950 . S
H2764 C2790 0.950 . S
H2765 C2792 0.950 . S
H2766 C2795 0.950 . S
H2767 C2796 0.950 . S
H2768 C2798 0.950 . S
H2769 C2799 0.950 . S
C2770 H2752 0.951 . S
C2770 C2771 1.366 . S
C2770 C2772 1.388 . S
C2771 C2770 1.366 . S
C2771 C2775 1.385 . S
C2772 H2753 0.951 . S
C2772 C2770 1.388 . S
C2772 C2773 1.366 1_565 S
C2773 C2772 1.366 1_545 S
C2773 C2774 1.414 . S
C2773 C2776 1.499 . S
C2774 H2754 0.950 . S
C2774 C2773 1.414 . S
C2774 C2775 1.374 1_545 S
C2775 H2755 0.950 . S
C2775 C2771 1.385 . S
C2775 C2774 1.374 1_565 S
C2776 C2773 1.499 . S
C2776 C2777 1.373 1_545 S
C2776 C2778 1.389 . S
C2777 H2756 0.950 . S
C2777 C2776 1.373 1_565 S
C2777 C2793 1.377 . S
C2778 C2776 1.389 . S
C2778 C2779 1.524 . S
C2778 C2792 1.377 . S
C2779 C2778 1.524 . S
C2779 C2780 1.397 . S
C2779 C2784 1.363 . S
C2780 H2757 0.950 . S
C2780 C2779 1.397 . S
C2780 C2781 1.334 . S
C2781 H2758 0.950 . S
C2781 C2780 1.334 . S
C2781 C2782 1.287 . S
C2782 C2781 1.287 . S
C2782 C2783 1.524 . S
C2782 H2801 0.913 . S
C2783 H2759 0.950 . S
C2783 C2782 1.524 . S
C2783 C2784 1.415 . S
C2784 H2760 0.950 . S
C2784 C2779 1.363 . S
C2784 C2783 1.415 . S
C2785 H2761 0.951 . S
C2785 C2786 1.366 . S
C2785 C2787 1.388 . S
C2786 C2785 1.366 . S
C2786 C2790 1.385 . S
C2787 H2762 0.951 . S
C2787 C2785 1.388 . S
C2787 C2788 1.366 . S
C2788 C2787 1.366 . S
C2788 C2789 1.414 . S
C2788 C2791 1.499 . S
C2789 H2763 0.950 . S
C2789 C2788 1.414 . S
C2789 C2790 1.374 . S
C2790 H2764 0.950 . S
C2790 C2786 1.385 . S
C2790 C2789 1.374 . S
C2791 C2788 1.499 . S
C2791 C2792 1.373 . S
C2791 C2793 1.389 1_545 S
C2792 H2765 0.950 . S
C2792 C2778 1.377 . S
C2792 C2791 1.373 . S
C2793 C2777 1.377 . S
C2793 C2791 1.389 1_565 S
C2793 C2794 1.524 . S
C2794 C2793 1.524 . S
C2794 C2795 1.397 . S
C2794 C2799 1.363 . S
C2795 H2766 0.950 . S
C2795 C2794 1.397 . S
C2795 C2796 1.334 . S
C2796 H2767 0.950 . S
C2796 C2795 1.334 . S
C2796 C2797 1.287 . S
C2797 C2796 1.287 . S
C2797 C2798 1.524 . S
C2797 H2800 0.999 . S
C2798 H2768 0.950 . S
C2798 C2797 1.524 . S
C2798 C2799 1.415 . S
C2799 H2769 0.950 . S
C2799 C2794 1.363 . S
C2799 C2798 1.415 . S
H2800 C2797 0.999 . S
H2801 C2782 0.913 . S
H2802 C2820 0.951 . S
H2803 C2822 0.951 . S
H2804 C2824 0.950 . S
H2805 C2825 0.950 . S
H2806 C2827 0.950 . S
H2807 C2830 0.950 . S
H2808 C2831 0.950 . S
H2809 C2833 0.950 . S
H2810 C2834 0.950 . S
H2811 C2835 0.951 . S
H2812 C2837 0.951 . S
H2813 C2839 0.950 . S
H2814 C2840 0.950 . S
H2815 C2842 0.950 . S
H2816 C2845 0.950 . S
H2817 C2846 0.950 . S
H2818 C2848 0.950 . S
H2819 C2849 0.950 . S
C2820 H2802 0.951 . S
C2820 C2821 1.366 . S
C2820 C2822 1.388 . S
C2821 C2820 1.366 . S
C2821 C2825 1.385 . S
C2822 H2803 0.951 . S
C2822 C2820 1.388 . S
C2822 C2823 1.366 . S
C2823 C2822 1.366 . S
C2823 C2824 1.414 . S
C2823 C2826 1.499 . S
C2824 H2804 0.950 . S
C2824 C2823 1.414 . S
C2824 C2825 1.374 . S
C2825 H2805 0.950 . S
C2825 C2821 1.385 . S
C2825 C2824 1.374 . S
C2826 C2823 1.499 . S
C2826 C2827 1.373 . S
C2826 C2828 1.389 . S
C2827 H2806 0.950 . S
C2827 C2826 1.373 . S
C2827 C2843 1.377 . S
C2828 C2826 1.389 . S
C2828 C2829 1.524 . S
C2828 C2842 1.377 . S
C2829 C2828 1.524 . S
C2829 C2830 1.397 . S
C2829 C2834 1.363 . S
C2830 H2807 0.950 . S
C2830 C2829 1.397 . S
C2830 C2831 1.334 . S
C2831 H2808 0.950 . S
C2831 C2830 1.334 . S
C2831 C2832 1.287 . S
C2832 C2831 1.287 . S
C2832 C2833 1.524 . S
C2832 H2851 0.913 . S
C2833 H2809 0.950 . S
C2833 C2832 1.524 . S
C2833 C2834 1.415 . S
C2834 H2810 0.950 . S
C2834 C2829 1.363 . S
C2834 C2833 1.415 . S
C2835 H2811 0.951 . S
C2835 C2836 1.366 . S
C2835 C2837 1.388 . S
C2836 C2835 1.366 . S
C2836 C2840 1.385 . S
C2837 H2812 0.951 . S
C2837 C2835 1.388 . S
C2837 C2838 1.366 . S
C2838 C2837 1.366 . S
C2838 C2839 1.414 . S
C2838 C2841 1.499 . S
C2839 H2813 0.950 . S
C2839 C2838 1.414 . S
C2839 C2840 1.374 . S
C2840 H2814 0.950 . S
C2840 C2836 1.385 . S
C2840 C2839 1.374 . S
C2841 C2838 1.499 . S
C2841 C2842 1.373 . S
C2841 C2843 1.389 . S
C2842 H2815 0.950 . S
C2842 C2828 1.377 . S
C2842 C2841 1.373 . S
C2843 C2827 1.377 . S
C2843 C2841 1.389 . S
C2843 C2844 1.524 . S
C2844 C2843 1.524 . S
C2844 C2845 1.397 . S
C2844 C2849 1.363 . S
C2845 H2816 0.950 . S
C2845 C2844 1.397 . S
C2845 C2846 1.334 . S
C2846 H2817 0.950 . S
C2846 C2845 1.334 . S
C2846 C2847 1.287 . S
C2847 C2846 1.287 . S
C2847 C2848 1.524 . S
C2847 H2850 0.999 . S
C2848 H2818 0.950 . S
C2848 C2847 1.524 . S
C2848 C2849 1.415 . S
C2849 H2819 0.950 . S
C2849 C2844 1.363 . S
C2849 C2848 1.415 . S
H2850 C2847 0.999 . S
H2851 C2832 0.913 . S
H2852 C2870 0.951 . S
H2853 C2872 0.951 . S
H2854 C2874 0.950 . S
H2855 C2875 0.950 . S
H2856 C2877 0.950 . S
H2857 C2880 0.950 . S
H2858 C2881 0.950 . S
H2859 C2883 0.950 . S
H2860 C2884 0.950 . S
H2861 C2885 0.951 . S
H2862 C2887 0.951 . S
H2863 C2889 0.950 . S
H2864 C2890 0.950 . S
H2865 C2892 0.950 . S
H2866 C2895 0.950 . S
H2867 C2896 0.950 . S
H2868 C2898 0.950 . S
H2869 C2899 0.950 . S
C2870 H2852 0.951 . S
C2870 C2871 1.366 1_565 S
C2870 C2872 1.388 . S
C2871 C2870 1.366 1_545 S
C2871 C2875 1.385 . S
C2872 H2853 0.951 . S
C2872 C2870 1.388 . S
C2872 C2873 1.366 1_565 S
C2873 C2872 1.366 1_545 S
C2873 C2874 1.414 . S
C2873 C2876 1.499 . S
C2874 H2854 0.950 . S
C2874 C2873 1.414 . S
C2874 C2875 1.374 . S
C2875 H2855 0.950 . S
C2875 C2871 1.385 . S
C2875 C2874 1.374 . S
C2876 C2873 1.499 . S
C2876 C2877 1.373 . S
C2876 C2878 1.389 1_545 S
C2877 H2856 0.950 . S
C2877 C2876 1.373 . S
C2877 C2893 1.377 . S
C2878 C2876 1.389 1_565 S
C2878 C2879 1.524 . S
C2878 C2892 1.377 . S
C2879 C2878 1.524 . S
C2879 C2880 1.397 . S
C2879 C2884 1.363 . S
C2880 H2857 0.950 . S
C2880 C2879 1.397 . S
C2880 C2881 1.334 . S
C2881 H2858 0.950 . S
C2881 C2880 1.334 . S
C2881 C2882 1.287 . S
C2882 C2881 1.287 . S
C2882 C2883 1.524 . S
C2882 H2901 0.913 . S
C2883 H2859 0.950 . S
C2883 C2882 1.524 . S
C2883 C2884 1.415 . S
C2884 H2860 0.950 . S
C2884 C2879 1.363 . S
C2884 C2883 1.415 . S
C2885 H2861 0.951 . S
C2885 C2886 1.366 . S
C2885 C2887 1.388 . S
C2886 C2885 1.366 . S
C2886 C2890 1.385 1_545 S
C2887 H2862 0.951 . S
C2887 C2885 1.388 . S
C2887 C2888 1.366 . S
C2888 C2887 1.366 . S
C2888 C2889 1.414 1_545 S
C2888 C2891 1.499 . S
C2889 H2863 0.950 . S
C2889 C2888 1.414 1_565 S
C2889 C2890 1.374 . S
C2890 H2864 0.950 . S
C2890 C2886 1.385 1_565 S
C2890 C2889 1.374 . S
C2891 C2888 1.499 . S
C2891 C2892 1.373 1_545 S
C2891 C2893 1.389 . S
C2892 H2865 0.950 . S
C2892 C2878 1.377 . S
C2892 C2891 1.373 1_565 S
C2893 C2877 1.377 . S
C2893 C2891 1.389 . S
C2893 C2894 1.524 . S
C2894 C2893 1.524 . S
C2894 C2895 1.397 . S
C2894 C2899 1.363 . S
C2895 H2866 0.950 . S
C2895 C2894 1.397 . S
C2895 C2896 1.334 . S
C2896 H2867 0.950 . S
C2896 C2895 1.334 . S
C2896 C2897 1.287 . S
C2897 C2896 1.287 . S
C2897 C2898 1.524 . S
C2897 H2900 0.999 . S
C2898 H2868 0.950 . S
C2898 C2897 1.524 . S
C2898 C2899 1.415 . S
C2899 H2869 0.950 . S
C2899 C2894 1.363 . S
C2899 C2898 1.415 . S
H2900 C2897 0.999 . S
H2901 C2882 0.913 . S
H2902 C2920 0.951 . S
H2903 C2922 0.951 . S
H2904 C2924 0.950 . S
H2905 C2925 0.950 . S
H2906 C2927 0.950 . S
H2907 C2930 0.950 . S
H2908 C2931 0.950 . S
H2909 C2933 0.950 . S
H2910 C2934 0.950 . S
H2911 C2935 0.951 . S
H2912 C2937 0.951 . S
H2913 C2939 0.950 . S
H2914 C2940 0.950 . S
H2915 C2942 0.950 . S
H2916 C2945 0.950 . S
H2917 C2946 0.950 . S
H2918 C2948 0.950 . S
H2919 C2949 0.950 . S
C2920 H2902 0.951 . S
C2920 C2921 1.366 . S
C2920 C2922 1.388 . S
C2921 C2920 1.366 . S
C2921 C2925 1.385 . S
C2922 H2903 0.951 . S
C2922 C2920 1.388 . S
C2922 C2923 1.366 . S
C2923 C2922 1.366 . S
C2923 C2924 1.414 . S
C2923 C2926 1.499 . S
C2924 H2904 0.950 . S
C2924 C2923 1.414 . S
C2924 C2925 1.374 . S
C2925 H2905 0.950 . S
C2925 C2921 1.385 . S
C2925 C2924 1.374 . S
C2926 C2923 1.499 . S
C2926 C2927 1.373 . S
C2926 C2928 1.389 . S
C2927 H2906 0.950 . S
C2927 C2926 1.373 . S
C2927 C2943 1.377 . S
C2928 C2926 1.389 . S
C2928 C2929 1.524 . S
C2928 C2942 1.377 . S
C2929 C2928 1.524 . S
C2929 C2930 1.397 . S
C2929 C2934 1.363 . S
C2930 H2907 0.950 . S
C2930 C2929 1.397 . S
C2930 C2931 1.334 . S
C2931 H2908 0.950 . S
C2931 C2930 1.334 . S
C2931 C2932 1.287 . S
C2932 C2931 1.287 . S
C2932 C2933 1.524 . S
C2932 H2951 0.913 . S
C2933 H2909 0.950 . S
C2933 C2932 1.524 . S
C2933 C2934 1.415 . S
C2934 H2910 0.950 . S
C2934 C2929 1.363 . S
C2934 C2933 1.415 . S
C2935 H2911 0.951 . S
C2935 C2936 1.366 . S
C2935 C2937 1.388 . S
C2936 C2935 1.366 . S
C2936 C2940 1.385 . S
C2937 H2912 0.951 . S
C2937 C2935 1.388 . S
C2937 C2938 1.366 . S
C2938 C2937 1.366 . S
C2938 C2939 1.414 . S
C2938 C2941 1.499 . S
C2939 H2913 0.950 . S
C2939 C2938 1.414 . S
C2939 C2940 1.374 . S
C2940 H2914 0.950 . S
C2940 C2936 1.385 . S
C2940 C2939 1.374 . S
C2941 C2938 1.499 . S
C2941 C2942 1.373 . S
C2941 C2943 1.389 . S
C2942 H2915 0.950 . S
C2942 C2928 1.377 . S
C2942 C2941 1.373 . S
C2943 C2927 1.377 . S
C2943 C2941 1.389 . S
C2943 C2944 1.524 . S
C2944 C2943 1.524 . S
C2944 C2945 1.397 . S
C2944 C2949 1.363 . S
C2945 H2916 0.950 . S
C2945 C2944 1.397 . S
C2945 C2946 1.334 . S
C2946 H2917 0.950 . S
C2946 C2945 1.334 . S
C2946 C2947 1.287 . S
C2947 C2946 1.287 . S
C2947 C2948 1.524 . S
C2947 H2950 0.999 . S
C2948 H2918 0.950 . S
C2948 C2947 1.524 . S
C2948 C2949 1.415 . S
C2949 H2919 0.950 . S
C2949 C2944 1.363 . S
C2949 C2948 1.415 . S
H2950 C2947 0.999 . S
H2951 C2932 0.913 . S
H2952 C2970 0.951 . S
H2953 C2972 0.951 . S
H2954 C2974 0.950 . S
H2955 C2975 0.950 . S
H2956 C2977 0.953 1_556 S
H2957 C2980 0.950 . S
H2958 C2981 0.950 . S
H2959 C2983 0.950 . S
H2960 C2984 0.950 . S
H2961 C2985 0.951 . S
H2962 C2987 0.951 . S
H2963 C2989 0.950 . S
H2964 C2990 0.950 . S
H2965 C2992 0.950 . S
H2966 C2995 0.950 . S
H2967 C2996 0.950 . S
H2968 C2998 0.950 . S
H2969 C2999 0.950 . S
C2970 H2952 0.951 . S
C2970 C2971 1.366 . S
C2970 C2972 1.388 . S
C2971 C2970 1.366 . S
C2971 C2975 1.385 . S
C2972 H2953 0.951 . S
C2972 C2970 1.388 . S
C2972 C2973 1.366 . S
C2973 C2972 1.366 . S
C2973 C2974 1.414 . S
C2973 C2976 1.499 . S
C2974 H2954 0.950 . S
C2974 C2973 1.414 . S
C2974 C2975 1.374 . S
C2975 H2955 0.950 . S
C2975 C2971 1.385 . S
C2975 C2974 1.374 . S
C2976 C2973 1.499 . S
C2976 C2977 1.369 . S
C2976 C2978 1.389 . S
C2977 H2956 0.953 1_554 S
C2977 C2976 1.369 . S
C2977 C2993 1.378 1_554 S
C2978 C2976 1.389 . S
C2978 C2979 1.524 . S
C2978 C2992 1.377 . S
C2979 C2978 1.524 . S
C2979 C2980 1.397 . S
C2979 C2984 1.363 . S
C2980 H2957 0.950 . S
C2980 C2979 1.397 . S
C2980 C2981 1.334 . S
C2981 H2958 0.950 . S
C2981 C2980 1.334 . S
C2981 C2982 1.287 . S
C2982 C2981 1.287 . S
C2982 C2983 1.524 . S
C2982 H3001 0.913 . S
C2983 H2959 0.950 . S
C2983 C2982 1.524 . S
C2983 C2984 1.415 . S
C2984 H2960 0.950 . S
C2984 C2979 1.363 . S
C2984 C2983 1.415 . S
C2985 H2961 0.951 . S
C2985 C2986 1.360 1_554 S
C2985 C2987 1.397 . S
C2986 C2985 1.360 1_556 S
C2986 C2990 1.385 . S
C2987 H2962 0.951 . S
C2987 C2985 1.397 . S
C2987 C2988 1.365 . S
C2988 C2987 1.365 . S
C2988 C2989 1.413 1_554 S
C2988 C2991 1.500 . S
C2989 H2963 0.950 . S
C2989 C2988 1.413 1_556 S
C2989 C2990 1.374 . S
C2990 H2964 0.950 . S
C2990 C2986 1.385 . S
C2990 C2989 1.374 . S
C2991 C2988 1.500 . S
C2991 C2992 1.373 . S
C2991 C2993 1.389 1_554 S
C2992 H2965 0.950 . S
C2992 C2978 1.377 . S
C2992 C2991 1.373 . S
C2993 C2977 1.378 1_556 S
C2993 C2991 1.389 1_556 S
C2993 C2994 1.524 . S
C2994 C2993 1.524 . S
C2994 C2995 1.397 . S
C2994 C2999 1.363 . S
C2995 H2966 0.950 . S
C2995 C2994 1.397 . S
C2995 C2996 1.334 . S
C2996 H2967 0.950 . S
C2996 C2995 1.334 . S
C2996 C2997 1.287 . S
C2997 C2996 1.287 . S
C2997 C2998 1.524 . S
C2997 H3000 0.999 . S
C2998 H2968 0.950 . S
C2998 C2997 1.524 . S
C2998 C2999 1.415 . S
C2999 H2969 0.950 . S
C2999 C2994 1.363 . S
C2999 C2998 1.415 . S
H3000 C2997 0.999 . S
H3001 C2982 0.913 . S
H3002 C3020 0.951 . S
H3003 C3022 0.978 . S
H3004 C3024 0.950 . S
H3005 C3025 0.950 . S
H3006 C3027 0.950 . S
H3007 C3030 0.950 . S
H3008 C3031 0.950 . S
H3009 C3033 0.950 . S
H3010 C3034 0.950 . S
H3011 C3035 0.951 . S
H3012 C3037 0.951 . S
H3013 C3039 0.950 1_556 S
H3014 C3040 0.950 1_556 S
H3015 C3042 0.950 . S
H3016 C3045 0.950 . S
H3017 C3046 0.950 . S
H3018 C3048 0.950 . S
H3019 C3049 0.950 . S
C3020 H3002 0.951 . S
C3020 C3021 1.366 . S
C3020 C3022 1.388 . S
C3021 C3020 1.366 . S
C3021 C3025 1.385 . S
C3022 H3003 0.978 . S
C3022 C3020 1.388 . S
C3022 C3023 1.366 . S
C3023 C3022 1.366 . S
C3023 C3024 1.414 . S
C3023 C3026 1.499 . S
C3024 H3004 0.950 . S
C3024 C3023 1.414 . S
C3024 C3025 1.374 . S
C3025 H3005 0.950 . S
C3025 C3021 1.385 . S
C3025 C3024 1.374 . S
C3026 C3023 1.499 . S
C3026 C3027 1.373 . S
C3026 C3028 1.389 . S
C3027 H3006 0.950 . S
C3027 C3026 1.373 . S
C3027 C3043 1.377 . S
C3028 C3026 1.389 . S
C3028 C3029 1.524 . S
C3028 C3042 1.377 . S
C3029 C3028 1.524 . S
C3029 C3030 1.397 . S
C3029 C3034 1.363 . S
C3030 H3007 0.950 . S
C3030 C3029 1.397 . S
C3030 C3031 1.334 . S
C3031 H3008 0.950 . S
C3031 C3030 1.334 . S
C3031 C3032 1.287 . S
C3032 C3031 1.287 . S
C3032 C3033 1.524 . S
C3032 H3051 0.913 . S
C3033 H3009 0.950 . S
C3033 C3032 1.524 . S
C3033 C3034 1.415 . S
C3034 H3010 0.950 . S
C3034 C3029 1.363 . S
C3034 C3033 1.415 . S
C3035 H3011 0.951 . S
C3035 C3036 1.366 . S
C3035 C3037 1.388 . S
C3036 C3035 1.366 . S
C3036 C3040 1.385 . S
C3037 H3012 0.951 . S
C3037 C3035 1.388 . S
C3037 C3038 1.366 . S
C3038 C3037 1.366 . S
C3038 C3039 1.414 . S
C3038 C3041 1.499 . S
C3039 H3013 0.950 1_554 S
C3039 C3038 1.414 . S
C3039 C3040 1.374 . S
C3040 H3014 0.950 1_554 S
C3040 C3036 1.385 . S
C3040 C3039 1.374 . S
C3041 C3038 1.499 . S
C3041 C3042 1.373 . S
C3041 C3043 1.389 . S
C3042 H3015 0.950 . S
C3042 C3028 1.377 . S
C3042 C3041 1.373 . S
C3043 C3027 1.377 . S
C3043 C3041 1.389 . S
C3043 C3044 1.524 . S
C3044 C3043 1.524 . S
C3044 C3045 1.397 1_554 S
C3044 C3049 1.363 . S
C3045 H3016 0.950 . S
C3045 C3044 1.397 1_556 S
C3045 C3046 1.334 . S
C3046 H3017 0.950 . S
C3046 C3045 1.334 . S
C3046 C3047 1.287 . S
C3047 C3046 1.287 . S
C3047 C3048 1.524 1_556 S
C3047 H3050 0.999 . S
C3048 H3018 0.950 . S
C3048 C3047 1.524 1_554 S
C3048 C3049 1.415 . S
C3049 H3019 0.950 . S
C3049 C3044 1.363 . S
C3049 C3048 1.415 . S
H3050 C3047 0.999 . S
H3051 C3032 0.913 . S
H3052 C3070 0.951 . S
H3053 C3072 0.951 . S
H3054 C3074 0.950 . S
H3055 C3075 0.950 . S
H3056 C3077 0.950 . S
H3057 C3080 0.950 . S
H3058 C3081 0.950 . S
H3059 C3083 0.950 . S
H3060 C3084 0.950 . S
H3061 C3085 0.951 . S
H3062 C3087 0.951 . S
H3063 C3089 0.950 . S
H3064 C3090 0.950 . S
H3065 C3092 0.950 . S
H3066 C3095 0.950 . S
H3067 C3096 0.950 . S
H3068 C3098 0.950 . S
H3069 C3099 0.950 . S
C3070 H3052 0.951 . S
C3070 C3071 1.366 . S
C3070 C3072 1.388 . S
C3071 C3070 1.366 . S
C3071 C3075 1.385 . S
C3072 H3053 0.951 . S
C3072 C3070 1.388 . S
C3072 C3073 1.366 . S
C3073 C3072 1.366 . S
C3073 C3074 1.414 . S
C3073 C3076 1.499 . S
C3074 H3054 0.950 . S
C3074 C3073 1.414 . S
C3074 C3075 1.374 . S
C3075 H3055 0.950 . S
C3075 C3071 1.385 . S
C3075 C3074 1.374 . S
C3076 C3073 1.499 . S
C3076 C3077 1.373 . S
C3076 C3078 1.389 . S
C3077 H3056 0.950 . S
C3077 C3076 1.373 . S
C3077 C3093 1.377 . S
C3078 C3076 1.389 . S
C3078 C3079 1.524 . S
C3078 C3092 1.377 . S
C3079 C3078 1.524 . S
C3079 C3080 1.397 . S
C3079 C3084 1.363 . S
C3080 H3057 0.950 . S
C3080 C3079 1.397 . S
C3080 C3081 1.334 . S
C3081 H3058 0.950 . S
C3081 C3080 1.334 . S
C3081 C3082 1.287 . S
C3082 C3081 1.287 . S
C3082 C3083 1.524 . S
C3082 H3101 0.913 . S
C3083 H3059 0.950 . S
C3083 C3082 1.524 . S
C3083 C3084 1.415 . S
C3084 H3060 0.950 . S
C3084 C3079 1.363 . S
C3084 C3083 1.415 . S
C3085 H3061 0.951 . S
C3085 C3086 1.366 . S
C3085 C3087 1.388 . S
C3086 C3085 1.366 . S
C3086 C3090 1.385 . S
C3087 H3062 0.951 . S
C3087 C3085 1.388 . S
C3087 C3088 1.366 . S
C3088 C3087 1.366 . S
C3088 C3089 1.414 . S
C3088 C3091 1.499 . S
C3089 H3063 0.950 . S
C3089 C3088 1.414 . S
C3089 C3090 1.374 . S
C3090 H3064 0.950 . S
C3090 C3086 1.385 . S
C3090 C3089 1.374 . S
C3091 C3088 1.499 . S
C3091 C3092 1.373 . S
C3091 C3093 1.389 . S
C3092 H3065 0.950 . S
C3092 C3078 1.377 . S
C3092 C3091 1.373 . S
C3093 C3077 1.377 . S
C3093 C3091 1.389 . S
C3093 C3094 1.524 . S
C3094 C3093 1.524 . S
C3094 C3095 1.397 . S
C3094 C3099 1.363 . S
C3095 H3066 0.950 . S
C3095 C3094 1.397 . S
C3095 C3096 1.334 . S
C3096 H3067 0.950 . S
C3096 C3095 1.334 . S
C3096 C3097 1.287 . S
C3097 C3096 1.287 . S
C3097 C3098 1.524 . S
C3097 H3100 0.999 . S
C3098 H3068 0.950 . S
C3098 C3097 1.524 . S
C3098 C3099 1.415 . S
C3099 H3069 0.950 . S
C3099 C3094 1.363 . S
C3099 C3098 1.415 . S
H3100 C3097 0.999 . S
H3101 C3082 0.913 . S
H3102 C3120 0.951 . S
H3103 C3122 0.951 . S
H3104 C3124 0.950 . S
H3105 C3125 0.950 . S
H3106 C3127 0.950 . S
H3107 C3130 0.950 . S
H3108 C3131 0.950 . S
H3109 C3133 0.950 . S
H3110 C3134 0.950 . S
H3111 C3135 0.951 . S
H3112 C3137 0.951 . S
H3113 C3139 0.950 . S
H3114 C3140 0.950 . S
H3115 C3142 0.950 . S
H3116 C3145 0.950 . S
H3117 C3146 0.950 . S
H3118 C3148 0.950 . S
H3119 C3149 0.950 . S
C3120 H3102 0.951 . S
C3120 C3121 1.366 . S
C3120 C3122 1.388 . S
C3121 C3120 1.366 . S
C3121 C3125 1.385 . S
C3122 H3103 0.951 . S
C3122 C3120 1.388 . S
C3122 C3123 1.366 . S
C3123 C3122 1.366 . S
C3123 C3124 1.414 . S
C3123 C3126 1.499 . S
C3124 H3104 0.950 . S
C3124 C3123 1.414 . S
C3124 C3125 1.374 . S
C3125 H3105 0.950 . S
C3125 C3121 1.385 . S
C3125 C3124 1.374 . S
C3126 C3123 1.499 . S
C3126 C3127 1.373 . S
C3126 C3128 1.389 . S
C3127 H3106 0.950 . S
C3127 C3126 1.373 . S
C3127 C3143 1.377 . S
C3128 C3126 1.389 . S
C3128 C3129 1.524 . S
C3128 C3142 1.377 . S
C3129 C3128 1.524 . S
C3129 C3130 1.397 . S
C3129 C3134 1.363 . S
C3130 H3107 0.950 . S
C3130 C3129 1.397 . S
C3130 C3131 1.334 . S
C3131 H3108 0.950 . S
C3131 C3130 1.334 . S
C3131 C3132 1.287 . S
C3132 C3131 1.287 . S
C3132 C3133 1.524 . S
C3132 H3151 0.913 . S
C3133 H3109 0.950 . S
C3133 C3132 1.524 . S
C3133 C3134 1.415 . S
C3134 H3110 0.950 . S
C3134 C3129 1.363 . S
C3134 C3133 1.415 . S
C3135 H3111 0.951 . S
C3135 C3136 1.366 . S
C3135 C3137 1.388 . S
C3136 C3135 1.366 . S
C3136 C3140 1.385 . S
C3137 H3112 0.951 . S
C3137 C3135 1.388 . S
C3137 C3138 1.366 . S
C3138 C3137 1.366 . S
C3138 C3139 1.414 . S
C3138 C3141 1.499 . S
C3139 H3113 0.950 . S
C3139 C3138 1.414 . S
C3139 C3140 1.374 . S
C3140 H3114 0.950 . S
C3140 C3136 1.385 . S
C3140 C3139 1.374 . S
C3141 C3138 1.499 . S
C3141 C3142 1.373 . S
C3141 C3143 1.389 . S
C3142 H3115 0.950 . S
C3142 C3128 1.377 . S
C3142 C3141 1.373 . S
C3143 C3127 1.377 . S
C3143 C3141 1.389 . S
C3143 C3144 1.524 . S
C3144 C3143 1.524 . S
C3144 C3145 1.397 . S
C3144 C3149 1.363 . S
C3145 H3116 0.950 . S
C3145 C3144 1.397 . S
C3145 C3146 1.334 . S
C3146 H3117 0.950 . S
C3146 C3145 1.334 . S
C3146 C3147 1.287 . S
C3147 C3146 1.287 . S
C3147 C3148 1.524 . S
C3147 H3150 0.999 . S
C3148 H3118 0.950 . S
C3148 C3147 1.524 . S
C3148 C3149 1.415 . S
C3149 H3119 0.950 . S
C3149 C3144 1.363 . S
C3149 C3148 1.415 . S
H3150 C3147 0.999 . S
H3151 C3132 0.913 . S
H3152 C3170 0.951 . S
H3153 C3172 0.951 . S
H3154 C3174 0.952 1_545 S
H3155 C3175 0.950 . S
H3156 C3177 0.950 . S
H3157 C3180 0.950 . S
H3158 C3181 0.950 . S
H3159 C3183 0.950 . S
H3160 C3184 0.950 . S
H3161 C3185 0.951 . S
H3162 C3187 0.951 . S
H3163 C3189 0.950 . S
H3164 C3190 0.950 . S
H3165 C3192 0.950 . S
H3166 C3195 0.950 . S
H3167 C3196 0.950 . S
H3168 C3198 0.950 . S
H3169 C3199 0.950 . S
C3170 H3152 0.951 . S
C3170 C3171 1.366 1_565 S
C3170 C3172 1.388 . S
C3171 C3170 1.366 1_545 S
C3171 C3175 1.385 . S
C3172 H3153 0.951 . S
C3172 C3170 1.388 . S
C3172 C3173 1.366 . S
C3173 C3172 1.366 . S
C3173 C3174 1.414 . S
C3173 C3176 1.499 . S
C3174 H3154 0.952 1_565 S
C3174 C3173 1.414 . S
C3174 C3175 1.374 1_565 S
C3175 H3155 0.950 . S
C3175 C3171 1.385 . S
C3175 C3174 1.374 1_545 S
C3176 C3173 1.499 . S
C3176 C3177 1.373 . S
C3176 C3178 1.389 . S
C3177 H3156 0.950 . S
C3177 C3176 1.373 . S
C3177 C3193 1.377 . S
C3178 C3176 1.389 . S
C3178 C3179 1.524 . S
C3178 C3192 1.377 . S
C3179 C3178 1.524 . S
C3179 C3180 1.397 . S
C3179 C3184 1.363 . S
C3180 H3157 0.950 . S
C3180 C3179 1.397 . S
C3180 C3181 1.334 . S
C3181 H3158 0.950 . S
C3181 C3180 1.334 . S
C3181 C3182 1.287 . S
C3182 C3181 1.287 . S
C3182 C3183 1.524 . S
C3182 H3201 0.913 . S
C3183 H3159 0.950 . S
C3183 C3182 1.524 . S
C3183 C3184 1.415 . S
C3184 H3160 0.950 . S
C3184 C3179 1.363 . S
C3184 C3183 1.415 . S
C3185 H3161 0.951 . S
C3185 C3186 1.366 . S
C3185 C3187 1.388 . S
C3186 C3185 1.366 . S
C3186 C3190 1.385 . S
C3187 H3162 0.951 . S
C3187 C3185 1.388 . S
C3187 C3188 1.366 . S
C3188 C3187 1.366 . S
C3188 C3189 1.414 . S
C3188 C3191 1.499 . S
C3189 H3163 0.950 . S
C3189 C3188 1.414 . S
C3189 C3190 1.374 . S
C3190 H3164 0.950 . S
C3190 C3186 1.385 . S
C3190 C3189 1.374 . S
C3191 C3188 1.499 . S
C3191 C3192 1.373 . S
C3191 C3193 1.389 . S
C3192 H3165 0.950 . S
C3192 C3178 1.377 . S
C3192 C3191 1.373 . S
C3193 C3177 1.377 . S
C3193 C3191 1.389 . S
C3193 C3194 1.524 . S
C3194 C3193 1.524 . S
C3194 C3195 1.397 . S
C3194 C3199 1.363 . S
C3195 H3166 0.950 . S
C3195 C3194 1.397 . S
C3195 C3196 1.334 . S
C3196 H3167 0.950 . S
C3196 C3195 1.334 . S
C3196 C3197 1.287 . S
C3197 C3196 1.287 . S
C3197 C3198 1.524 . S
C3197 H3200 0.999 . S
C3198 H3168 0.950 . S
C3198 C3197 1.524 . S
C3198 C3199 1.415 . S
C3199 H3169 0.950 . S
C3199 C3194 1.363 . S
C3199 C3198 1.415 . S
H3200 C3197 0.999 . S
H3201 C3182 0.913 . S
H3202 C3220 0.951 . S
H3203 C3222 0.951 . S
H3204 C3224 0.950 . S
H3205 C3225 0.950 . S
H3206 C3227 0.950 . S
H3207 C3230 0.950 . S
H3208 C3231 0.950 . S
H3209 C3233 0.950 . S
H3210 C3234 0.950 . S
H3211 C3235 0.951 . S
H3212 C3237 0.951 . S
H3213 C3239 0.950 . S
H3214 C3240 0.950 . S
H3215 C3242 0.950 . S
H3216 C3245 0.950 . S
H3217 C3246 0.950 . S
H3218 C3248 0.950 1_545 S
H3219 C3249 0.950 . S
C3220 H3202 0.951 . S
C3220 C3221 1.366 . S
C3220 C3222 1.388 . S
C3221 C3220 1.366 . S
C3221 C3225 1.385 . S
C3222 H3203 0.951 . S
C3222 C3220 1.388 . S
C3222 C3223 1.366 . S
C3223 C3222 1.366 . S
C3223 C3224 1.414 . S
C3223 C3226 1.499 . S
C3224 H3204 0.950 . S
C3224 C3223 1.414 . S
C3224 C3225 1.374 . S
C3225 H3205 0.950 . S
C3225 C3221 1.385 . S
C3225 C3224 1.374 . S
C3226 C3223 1.499 . S
C3226 C3227 1.373 . S
C3226 C3228 1.389 . S
C3227 H3206 0.950 . S
C3227 C3226 1.373 . S
C3227 C3243 1.377 . S
C3228 C3226 1.389 . S
C3228 C3229 1.524 . S
C3228 C3242 1.377 . S
C3229 C3228 1.524 . S
C3229 C3230 1.397 . S
C3229 C3234 1.363 . S
C3230 H3207 0.950 . S
C3230 C3229 1.397 . S
C3230 C3231 1.334 . S
C3231 H3208 0.950 . S
C3231 C3230 1.334 . S
C3231 C3232 1.287 . S
C3232 C3231 1.287 . S
C3232 C3233 1.524 . S
C3232 H3251 0.913 . S
C3233 H3209 0.950 . S
C3233 C3232 1.524 . S
C3233 C3234 1.415 . S
C3234 H3210 0.950 . S
C3234 C3229 1.363 . S
C3234 C3233 1.415 . S
C3235 H3211 0.951 . S
C3235 C3236 1.366 . S
C3235 C3237 1.388 . S
C3236 C3235 1.366 . S
C3236 C3240 1.385 . S
C3237 H3212 0.951 . S
C3237 C3235 1.388 . S
C3237 C3238 1.366 . S
C3238 C3237 1.366 . S
C3238 C3239 1.414 . S
C3238 C3241 1.499 . S
C3239 H3213 0.950 . S
C3239 C3238 1.414 . S
C3239 C3240 1.374 . S
C3240 H3214 0.950 . S
C3240 C3236 1.385 . S
C3240 C3239 1.374 . S
C3241 C3238 1.499 . S
C3241 C3242 1.373 . S
C3241 C3243 1.389 . S
C3242 H3215 0.950 . S
C3242 C3228 1.377 . S
C3242 C3241 1.373 . S
C3243 C3227 1.377 . S
C3243 C3241 1.389 . S
C3243 C3244 1.524 . S
C3244 C3243 1.524 . S
C3244 C3245 1.397 . S
C3244 C3249 1.363 . S
C3245 H3216 0.950 . S
C3245 C3244 1.397 . S
C3245 C3246 1.334 . S
C3246 H3217 0.950 . S
C3246 C3245 1.334 . S
C3246 C3247 1.317 . S
C3247 C3246 1.317 . S
C3247 C3248 1.530 . S
C3247 H3250 0.956 1_565 S
C3248 H3218 0.950 1_565 S
C3248 C3247 1.530 . S
C3248 C3249 1.415 . S
C3249 H3219 0.950 . S
C3249 C3244 1.363 . S
C3249 C3248 1.415 . S
H3250 C3247 0.956 1_545 S
H3251 C3232 0.913 . S
H3252 C3270 0.951 . S
H3253 C3272 0.951 . S
H3254 C3274 0.950 . S
H3255 C3275 0.950 . S
H3256 C3277 0.950 . S
H3257 C3280 0.950 . S
H3258 C3281 0.950 . S
H3259 C3283 0.950 . S
H3260 C3284 0.950 . S
H3261 C3285 0.951 . S
H3262 C3287 0.951 . S
H3263 C3289 0.950 . S
H3264 C3290 0.950 . S
H3265 C3292 0.950 . S
H3266 C3295 0.950 . S
H3267 C3296 0.950 . S
H3268 C3298 0.950 . S
H3269 C3299 0.950 . S
C3270 H3252 0.951 . S
C3270 C3271 1.366 . S
C3270 C3272 1.388 . S
C3271 C3270 1.366 . S
C3271 C3275 1.385 . S
C3272 H3253 0.951 . S
C3272 C3270 1.388 . S
C3272 C3273 1.366 . S
C3273 C3272 1.366 . S
C3273 C3274 1.414 . S
C3273 C3276 1.499 . S
C3274 H3254 0.950 . S
C3274 C3273 1.414 . S
C3274 C3275 1.374 . S
C3275 H3255 0.950 . S
C3275 C3271 1.385 . S
C3275 C3274 1.374 . S
C3276 C3273 1.499 . S
C3276 C3277 1.373 . S
C3276 C3278 1.389 . S
C3277 H3256 0.950 . S
C3277 C3276 1.373 . S
C3277 C3293 1.377 . S
C3278 C3276 1.389 . S
C3278 C3279 1.524 . S
C3278 C3292 1.377 . S
C3279 C3278 1.524 . S
C3279 C3280 1.397 . S
C3279 C3284 1.363 . S
C3280 H3257 0.950 . S
C3280 C3279 1.397 . S
C3280 C3281 1.334 . S
C3281 H3258 0.950 . S
C3281 C3280 1.334 . S
C3281 C3282 1.287 . S
C3282 C3281 1.287 . S
C3282 C3283 1.524 . S
C3282 H3301 0.913 . S
C3283 H3259 0.950 . S
C3283 C3282 1.524 . S
C3283 C3284 1.415 . S
C3284 H3260 0.950 . S
C3284 C3279 1.363 . S
C3284 C3283 1.415 . S
C3285 H3261 0.951 . S
C3285 C3286 1.366 . S
C3285 C3287 1.388 . S
C3286 C3285 1.366 . S
C3286 C3290 1.385 . S
C3287 H3262 0.951 . S
C3287 C3285 1.388 . S
C3287 C3288 1.366 . S
C3288 C3287 1.366 . S
C3288 C3289 1.414 . S
C3288 C3291 1.499 . S
C3289 H3263 0.950 . S
C3289 C3288 1.414 . S
C3289 C3290 1.374 . S
C3290 H3264 0.950 . S
C3290 C3286 1.385 . S
C3290 C3289 1.374 . S
C3291 C3288 1.499 . S
C3291 C3292 1.373 . S
C3291 C3293 1.389 . S
C3292 H3265 0.950 . S
C3292 C3278 1.377 . S
C3292 C3291 1.373 . S
C3293 C3277 1.377 . S
C3293 C3291 1.389 . S
C3293 C3294 1.524 . S
C3294 C3293 1.524 . S
C3294 C3295 1.397 . S
C3294 C3299 1.363 . S
C3295 H3266 0.950 . S
C3295 C3294 1.397 . S
C3295 C3296 1.334 . S
C3296 H3267 0.950 . S
C3296 C3295 1.334 . S
C3296 C3297 1.287 . S
C3297 C3296 1.287 . S
C3297 C3298 1.524 . S
C3297 H3300 0.999 . S
C3298 H3268 0.950 . S
C3298 C3297 1.524 . S
C3298 C3299 1.415 . S
C3299 H3269 0.950 . S
C3299 C3294 1.363 . S
C3299 C3298 1.415 . S
H3300 C3297 0.999 . S
H3301 C3282 0.913 . S
H3302 C3320 0.951 . S
H3303 C3322 0.951 . S
H3304 C3324 0.950 . S
H3305 C3325 0.950 . S
H3306 C3327 0.950 . S
H3307 C3330 0.950 . S
H3308 C3331 0.950 . S
H3309 C3333 0.950 . S
H3310 C3334 0.950 . S
H3311 C3335 0.951 . S
H3312 C3337 0.951 . S
H3313 C3339 0.950 . S
H3314 C3340 0.950 . S
H3315 C3342 0.950 . S
H3316 C3345 0.950 . S
H3317 C3346 0.950 . S
H3318 C3348 0.950 . S
H3319 C3349 0.950 . S
C3320 H3302 0.951 . S
C3320 C3321 1.366 . S
C3320 C3322 1.388 . S
C3321 C3320 1.366 . S
C3321 C3325 1.385 . S
C3322 H3303 0.951 . S
C3322 C3320 1.388 . S
C3322 C3323 1.366 . S
C3323 C3322 1.366 . S
C3323 C3324 1.414 . S
C3323 C3326 1.499 . S
C3324 H3304 0.950 . S
C3324 C3323 1.414 . S
C3324 C3325 1.374 . S
C3325 H3305 0.950 . S
C3325 C3321 1.385 . S
C3325 C3324 1.374 . S
C3326 C3323 1.499 . S
C3326 C3327 1.373 . S
C3326 C3328 1.389 . S
C3327 H3306 0.950 . S
C3327 C3326 1.373 . S
C3327 C3343 1.377 . S
C3328 C3326 1.389 . S
C3328 C3329 1.524 . S
C3328 C3342 1.377 . S
C3329 C3328 1.524 . S
C3329 C3330 1.397 . S
C3329 C3334 1.363 . S
C3330 H3307 0.950 . S
C3330 C3329 1.397 . S
C3330 C3331 1.334 . S
C3331 H3308 0.950 . S
C3331 C3330 1.334 . S
C3331 C3332 1.287 . S
C3332 C3331 1.287 . S
C3332 C3333 1.524 . S
C3332 H3351 0.913 . S
C3333 H3309 0.950 . S
C3333 C3332 1.524 . S
C3333 C3334 1.415 . S
C3334 H3310 0.950 . S
C3334 C3329 1.363 . S
C3334 C3333 1.415 . S
C3335 H3311 0.951 . S
C3335 C3336 1.366 . S
C3335 C3337 1.388 . S
C3336 C3335 1.366 . S
C3336 C3340 1.385 . S
C3337 H3312 0.951 . S
C3337 C3335 1.388 . S
C3337 C3338 1.366 . S
C3338 C3337 1.366 . S
C3338 C3339 1.414 . S
C3338 C3341 1.499 . S
C3339 H3313 0.950 . S
C3339 C3338 1.414 . S
C3339 C3340 1.374 . S
C3340 H3314 0.950 . S
C3340 C3336 1.385 . S
C3340 C3339 1.374 . S
C3341 C3338 1.499 . S
C3341 C3342 1.373 . S
C3341 C3343 1.389 . S
C3342 H3315 0.950 . S
C3342 C3328 1.377 . S
C3342 C3341 1.373 . S
C3343 C3327 1.377 . S
C3343 C3341 1.389 . S
C3343 C3344 1.524 . S
C3344 C3343 1.524 . S
C3344 C3345 1.397 . S
C3344 C3349 1.363 . S
C3345 H3316 0.950 . S
C3345 C3344 1.397 . S
C3345 C3346 1.334 . S
C3346 H3317 0.950 . S
C3346 C3345 1.334 . S
C3346 C3347 1.287 . S
C3347 C3346 1.287 . S
C3347 C3348 1.524 . S
C3347 H3350 0.999 . S
C3348 H3318 0.950 . S
C3348 C3347 1.524 . S
C3348 C3349 1.415 . S
C3349 H3319 0.950 . S
C3349 C3344 1.363 . S
C3349 C3348 1.415 . S
H3350 C3347 0.999 . S
H3351 C3332 0.913 . S
H3352 C3370 0.951 . S
H3353 C3372 0.951 . S
H3354 C3374 0.950 . S
H3355 C3375 0.950 . S
H3356 C3377 0.950 . S
H3357 C3380 0.950 . S
H3358 C3381 0.950 . S
H3359 C3383 0.950 . S
H3360 C3384 0.950 . S
H3361 C3385 0.951 . S
H3362 C3387 0.951 . S
H3363 C3389 0.950 . S
H3364 C3390 0.950 . S
H3365 C3392 0.950 . S
H3366 C3395 0.950 . S
H3367 C3396 0.950 . S
H3368 C3398 0.950 . S
H3369 C3399 0.950 . S
C3370 H3352 0.951 . S
C3370 C3371 1.366 . S
C3370 C3372 1.388 . S
C3371 C3370 1.366 . S
C3371 C3375 1.385 . S
C3372 H3353 0.951 . S
C3372 C3370 1.388 . S
C3372 C3373 1.366 . S
C3373 C3372 1.366 . S
C3373 C3374 1.414 . S
C3373 C3376 1.499 . S
C3374 H3354 0.950 . S
C3374 C3373 1.414 . S
C3374 C3375 1.374 . S
C3375 H3355 0.950 . S
C3375 C3371 1.385 . S
C3375 C3374 1.374 . S
C3376 C3373 1.499 . S
C3376 C3377 1.373 . S
C3376 C3378 1.389 . S
C3377 H3356 0.950 . S
C3377 C3376 1.373 . S
C3377 C3393 1.377 . S
C3378 C3376 1.389 . S
C3378 C3379 1.524 . S
C3378 C3392 1.377 . S
C3379 C3378 1.524 . S
C3379 C3380 1.397 . S
C3379 C3384 1.363 . S
C3380 H3357 0.950 . S
C3380 C3379 1.397 . S
C3380 C3381 1.334 . S
C3381 H3358 0.950 . S
C3381 C3380 1.334 . S
C3381 C3382 1.287 . S
C3382 C3381 1.287 . S
C3382 C3383 1.524 . S
C3382 H3401 0.913 . S
C3383 H3359 0.950 . S
C3383 C3382 1.524 . S
C3383 C3384 1.415 . S
C3384 H3360 0.950 . S
C3384 C3379 1.363 . S
C3384 C3383 1.415 . S
C3385 H3361 0.951 . S
C3385 C3386 1.366 . S
C3385 C3387 1.388 . S
C3386 C3385 1.366 . S
C3386 C3390 1.385 . S
C3387 H3362 0.951 . S
C3387 C3385 1.388 . S
C3387 C3388 1.366 . S
C3388 C3387 1.366 . S
C3388 C3389 1.414 . S
C3388 C3391 1.499 . S
C3389 H3363 0.950 . S
C3389 C3388 1.414 . S
C3389 C3390 1.374 . S
C3390 H3364 0.950 . S
C3390 C3386 1.385 . S
C3390 C3389 1.374 . S
C3391 C3388 1.499 . S
C3391 C3392 1.373 . S
C3391 C3393 1.389 . S
C3392 H3365 0.950 . S
C3392 C3378 1.377 . S
C3392 C3391 1.373 . S
C3393 C3377 1.377 . S
C3393 C3391 1.389 . S
C3393 C3394 1.524 . S
C3394 C3393 1.524 . S
C3394 C3395 1.397 . S
C3394 C3399 1.363 . S
C3395 H3366 0.950 . S
C3395 C3394 1.397 . S
C3395 C3396 1.334 . S
C3396 H3367 0.950 . S
C3396 C3395 1.334 . S
C3396 C3397 1.287 . S
C3397 C3396 1.287 . S
C3397 C3398 1.524 . S
C3397 H3400 0.999 . S
C3398 H3368 0.950 . S
C3398 C3397 1.524 . S
C3398 C3399 1.415 . S
C3399 H3369 0.950 . S
C3399 C3394 1.363 . S
C3399 C3398 1.415 . S
H3400 C3397 0.999 . S
H3401 C3382 0.913 . S
H3402 C3420 0.951 . S
H3403 C3422 0.951 . S
H3404 C3424 0.950 . S
H3405 C3425 0.950 . S
H3406 C3427 0.950 . S
H3407 C3430 0.950 . S
H3408 C3431 0.950 . S
H3409 C3433 0.950 . S
H3410 C3434 0.950 . S
H3411 C3435 0.951 . S
H3412 C3437 0.951 . S
H3413 C3439 0.950 . S
H3414 C3440 0.950 . S
H3415 C3442 0.950 . S
H3416 C3445 0.950 . S
H3417 C3446 0.950 . S
H3418 C3448 0.950 . S
H3419 C3449 0.950 . S
C3420 H3402 0.951 . S
C3420 C3421 1.366 . S
C3420 C3422 1.388 . S
C3421 C3420 1.366 . S
C3421 C3425 1.385 . S
C3422 H3403 0.951 . S
C3422 C3420 1.388 . S
C3422 C3423 1.366 . S
C3423 C3422 1.366 . S
C3423 C3424 1.414 . S
C3423 C3426 1.499 . S
C3424 H3404 0.950 . S
C3424 C3423 1.414 . S
C3424 C3425 1.374 . S
C3425 H3405 0.950 . S
C3425 C3421 1.385 . S
C3425 C3424 1.374 . S
C3426 C3423 1.499 . S
C3426 C3427 1.373 . S
C3426 C3428 1.389 . S
C3427 H3406 0.950 . S
C3427 C3426 1.373 . S
C3427 C3443 1.377 . S
C3428 C3426 1.389 . S
C3428 C3429 1.524 . S
C3428 C3442 1.377 . S
C3429 C3428 1.524 . S
C3429 C3430 1.397 . S
C3429 C3434 1.363 . S
C3430 H3407 0.950 . S
C3430 C3429 1.397 . S
C3430 C3431 1.334 . S
C3431 H3408 0.950 . S
C3431 C3430 1.334 . S
C3431 C3432 1.287 . S
C3432 C3431 1.287 . S
C3432 C3433 1.524 . S
C3432 H3451 0.913 . S
C3433 H3409 0.950 . S
C3433 C3432 1.524 . S
C3433 C3434 1.415 . S
C3434 H3410 0.950 . S
C3434 C3429 1.363 . S
C3434 C3433 1.415 . S
C3435 H3411 0.951 . S
C3435 C3436 1.366 . S
C3435 C3437 1.388 . S
C3436 C3435 1.366 . S
C3436 C3440 1.385 . S
C3437 H3412 0.951 . S
C3437 C3435 1.388 . S
C3437 C3438 1.366 . S
C3438 C3437 1.366 . S
C3438 C3439 1.414 . S
C3438 C3441 1.499 . S
C3439 H3413 0.950 . S
C3439 C3438 1.414 . S
C3439 C3440 1.374 . S
C3440 H3414 0.950 . S
C3440 C3436 1.385 . S
C3440 C3439 1.374 . S
C3441 C3438 1.499 . S
C3441 C3442 1.373 . S
C3441 C3443 1.389 . S
C3442 H3415 0.950 . S
C3442 C3428 1.377 . S
C3442 C3441 1.373 . S
C3443 C3427 1.377 . S
C3443 C3441 1.389 . S
C3443 C3444 1.524 . S
C3444 C3443 1.524 . S
C3444 C3445 1.397 . S
C3444 C3449 1.363 . S
C3445 H3416 0.950 . S
C3445 C3444 1.397 . S
C3445 C3446 1.334 . S
C3446 H3417 0.950 . S
C3446 C3445 1.334 . S
C3446 C3447 1.287 . S
C3447 C3446 1.287 . S
C3447 C3448 1.524 . S
C3447 H3450 0.999 . S
C3448 H3418 0.950 . S
C3448 C3447 1.524 . S
C3448 C3449 1.415 . S
C3449 H3419 0.950 . S
C3449 C3444 1.363 . S
C3449 C3448 1.415 . S
H3450 C3447 0.999 . S
H3451 C3432 0.913 . S
H3452 C3470 0.952 1_655 S
H3453 C3472 0.951 . S
H3454 C3474 0.950 . S
H3455 C3475 0.950 . S
H3456 C3477 0.950 . S
H3457 C3480 0.950 . S
H3458 C3481 0.950 . S
H3459 C3483 0.950 . S
H3460 C3484 0.950 . S
H3461 C3485 0.951 . S
H3462 C3487 0.951 . S
H3463 C3489 0.950 . S
H3464 C3490 0.950 1_556 S
H3465 C3492 0.950 . S
H3466 C3495 0.950 . S
H3467 C3496 0.950 . S
H3468 C3498 0.950 . S
H3469 C3499 0.950 . S
C3470 H3452 0.952 1_455 S
C3470 C3471 1.366 . S
C3470 C3472 1.388 . S
C3471 C3470 1.366 . S
C3471 C3475 1.385 . S
C3472 H3453 0.951 . S
C3472 C3470 1.388 . S
C3472 C3473 1.366 . S
C3473 C3472 1.366 . S
C3473 C3474 1.414 . S
C3473 C3476 1.499 . S
C3474 H3454 0.950 . S
C3474 C3473 1.414 . S
C3474 C3475 1.374 . S
C3475 H3455 0.950 . S
C3475 C3471 1.385 . S
C3475 C3474 1.374 . S
C3476 C3473 1.499 . S
C3476 C3477 1.373 . S
C3476 C3478 1.389 . S
C3477 H3456 0.950 . S
C3477 C3476 1.373 . S
C3477 C3493 1.378 . S
C3478 C3476 1.389 . S
C3478 C3479 1.524 . S
C3478 C3492 1.377 . S
C3479 C3478 1.524 . S
C3479 C3480 1.397 . S
C3479 C3484 1.363 . S
C3480 H3457 0.950 . S
C3480 C3479 1.397 . S
C3480 C3481 1.334 . S
C3481 H3458 0.950 . S
C3481 C3480 1.334 . S
C3481 C3482 1.287 . S
C3482 C3481 1.287 . S
C3482 C3483 1.524 . S
C3482 H3501 0.913 . S
C3483 H3459 0.950 . S
C3483 C3482 1.524 . S
C3483 C3484 1.415 . S
C3484 H3460 0.950 . S
C3484 C3479 1.363 . S
C3484 C3483 1.415 . S
C3485 H3461 0.951 . S
C3485 C3486 1.366 . S
C3485 C3487 1.388 . S
C3486 C3485 1.366 . S
C3486 C3490 1.385 . S
C3487 H3462 0.951 . S
C3487 C3485 1.388 . S
C3487 C3488 1.366 . S
C3488 C3487 1.366 . S
C3488 C3489 1.414 1_554 S
C3488 C3491 1.499 1_554 S
C3489 H3463 0.950 . S
C3489 C3488 1.414 1_556 S
C3489 C3490 1.374 1_556 S
C3490 H3464 0.950 1_554 S
C3490 C3486 1.385 . S
C3490 C3489 1.374 1_554 S
C3491 C3488 1.499 1_556 S
C3491 C3492 1.373 . S
C3491 C3493 1.391 . S
C3492 H3465 0.950 . S
C3492 C3478 1.377 . S
C3492 C3491 1.373 . S
C3493 C3477 1.378 . S
C3493 C3491 1.391 . S
C3493 C3494 1.521 1_556 S
C3494 C3493 1.521 1_554 S
C3494 C3495 1.397 1_455 S
C3494 C3499 1.363 . S
C3495 H3466 0.950 . S
C3495 C3494 1.397 1_655 S
C3495 C3496 1.334 . S
C3496 H3467 0.950 . S
C3496 C3495 1.334 . S
C3496 C3497 1.287 . S
C3497 C3496 1.287 . S
C3497 C3498 1.524 1_655 S
C3497 H3500 0.999 . S
C3498 H3468 0.950 . S
C3498 C3497 1.524 1_455 S
C3498 C3499 1.415 . S
C3499 H3469 0.950 . S
C3499 C3494 1.363 . S
C3499 C3498 1.415 . S
H3500 C3497 0.999 . S
H3501 C3482 0.913 . S
H3502 C3520 0.951 . S
H3503 C3522 0.951 . S
H3504 C3524 0.950 . S
H3505 C3525 0.959 . S
H3506 C3527 0.950 . S
H3507 C3530 0.950 . S
H3508 C3531 0.950 . S
H3509 C3533 0.950 . S
H3510 C3534 0.950 . S
H3511 C3535 0.951 . S
H3512 C3537 0.951 . S
H3513 C3539 0.950 . S
H3514 C3540 0.950 . S
H3515 C3542 0.950 . S
H3516 C3545 0.950 . S
H3517 C3546 0.950 . S
H3518 C3548 0.950 . S
H3519 C3549 0.950 . S
C3520 H3502 0.951 . S
C3520 C3521 1.366 . S
C3520 C3522 1.388 1_455 S
C3521 C3520 1.366 . S
C3521 C3525 1.395 . S
C3522 H3503 0.951 . S
C3522 C3520 1.388 1_655 S
C3522 C3523 1.366 . S
C3523 C3522 1.366 . S
C3523 C3524 1.414 . S
C3523 C3526 1.499 . S
C3524 H3504 0.950 . S
C3524 C3523 1.414 . S
C3524 C3525 1.355 1_655 S
C3525 H3505 0.959 . S
C3525 C3521 1.395 . S
C3525 C3524 1.355 1_455 S
C3526 C3523 1.499 . S
C3526 C3527 1.373 . S
C3526 C3528 1.389 . S
C3527 H3506 0.950 . S
C3527 C3526 1.373 . S
C3527 C3543 1.377 . S
C3528 C3526 1.389 . S
C3528 C3529 1.524 . S
C3528 C3542 1.377 . S
C3529 C3528 1.524 . S
C3529 C3530 1.397 . S
C3529 C3534 1.363 . S
C3530 H3507 0.950 . S
C3530 C3529 1.397 . S
C3530 C3531 1.334 1_655 S
C3531 H3508 0.950 . S
C3531 C3530 1.334 1_455 S
C3531 C3532 1.287 . S
C3532 C3531 1.287 . S
C3532 C3533 1.524 . S
C3532 H3551 0.913 . S
C3533 H3509 0.950 . S
C3533 C3532 1.524 . S
C3533 C3534 1.415 1_455 S
C3534 H3510 0.950 . S
C3534 C3529 1.363 . S
C3534 C3533 1.415 1_655 S
C3535 H3511 0.951 . S
C3535 C3536 1.366 . S
C3535 C3537 1.388 . S
C3536 C3535 1.366 . S
C3536 C3540 1.385 . S
C3537 H3512 0.951 . S
C3537 C3535 1.388 . S
C3537 C3538 1.366 . S
C3538 C3537 1.366 . S
C3538 C3539 1.414 . S
C3538 C3541 1.499 . S
C3539 H3513 0.950 . S
C3539 C3538 1.414 . S
C3539 C3540 1.374 . S
C3540 H3514 0.950 . S
C3540 C3536 1.385 . S
C3540 C3539 1.374 . S
C3541 C3538 1.499 . S
C3541 C3542 1.373 . S
C3541 C3543 1.389 . S
C3542 H3515 0.950 . S
C3542 C3528 1.377 . S
C3542 C3541 1.373 . S
C3543 C3527 1.377 . S
C3543 C3541 1.389 . S
C3543 C3544 1.524 . S
C3544 C3543 1.524 . S
C3544 C3545 1.397 . S
C3544 C3549 1.363 . S
C3545 H3516 0.950 . S
C3545 C3544 1.397 . S
C3545 C3546 1.334 . S
C3546 H3517 0.950 . S
C3546 C3545 1.334 . S
C3546 C3547 1.287 . S
C3547 C3546 1.287 . S
C3547 C3548 1.524 . S
C3547 H3550 0.999 . S
C3548 H3518 0.950 . S
C3548 C3547 1.524 . S
C3548 C3549 1.415 . S
C3549 H3519 0.950 . S
C3549 C3544 1.363 . S
C3549 C3548 1.415 . S
H3550 C3547 0.999 . S
H3551 C3532 0.913 . S
H3552 C3570 0.951 . S
H3553 C3572 0.951 . S
H3554 C3574 0.950 . S
H3555 C3575 0.950 . S
H3556 C3577 0.950 . S
H3557 C3580 0.950 . S
H3558 C3581 0.950 . S
H3559 C3583 0.950 . S
H3560 C3584 0.950 . S
H3561 C3585 0.951 . S
H3562 C3587 0.951 . S
H3563 C3589 0.950 . S
H3564 C3590 0.950 . S
H3565 C3592 0.950 . S
H3566 C3595 0.950 . S
H3567 C3596 0.950 . S
H3568 C3598 0.950 . S
H3569 C3599 0.950 . S
C3570 H3552 0.951 . S
C3570 C3571 1.366 . S
C3570 C3572 1.388 . S
C3571 C3570 1.366 . S
C3571 C3575 1.385 . S
C3572 H3553 0.951 . S
C3572 C3570 1.388 . S
C3572 C3573 1.366 . S
C3573 C3572 1.366 . S
C3573 C3574 1.414 . S
C3573 C3576 1.499 . S
C3574 H3554 0.950 . S
C3574 C3573 1.414 . S
C3574 C3575 1.374 . S
C3575 H3555 0.950 . S
C3575 C3571 1.385 . S
C3575 C3574 1.374 . S
C3576 C3573 1.499 . S
C3576 C3577 1.373 . S
C3576 C3578 1.389 . S
C3577 H3556 0.950 . S
C3577 C3576 1.373 . S
C3577 C3593 1.377 . S
C3578 C3576 1.389 . S
C3578 C3579 1.524 . S
C3578 C3592 1.377 . S
C3579 C3578 1.524 . S
C3579 C3580 1.397 . S
C3579 C3584 1.363 . S
C3580 H3557 0.950 . S
C3580 C3579 1.397 . S
C3580 C3581 1.334 . S
C3581 H3558 0.950 . S
C3581 C3580 1.334 . S
C3581 C3582 1.287 . S
C3582 C3581 1.287 . S
C3582 C3583 1.524 . S
C3582 H3601 0.913 . S
C3583 H3559 0.950 . S
C3583 C3582 1.524 . S
C3583 C3584 1.415 . S
C3584 H3560 0.950 . S
C3584 C3579 1.363 . S
C3584 C3583 1.415 . S
C3585 H3561 0.951 . S
C3585 C3586 1.366 . S
C3585 C3587 1.388 . S
C3586 C3585 1.366 . S
C3586 C3590 1.385 . S
C3587 H3562 0.951 . S
C3587 C3585 1.388 . S
C3587 C3588 1.366 . S
C3588 C3587 1.366 . S
C3588 C3589 1.414 . S
C3588 C3591 1.499 . S
C3589 H3563 0.950 . S
C3589 C3588 1.414 . S
C3589 C3590 1.374 . S
C3590 H3564 0.950 . S
C3590 C3586 1.385 . S
C3590 C3589 1.374 . S
C3591 C3588 1.499 . S
C3591 C3592 1.373 . S
C3591 C3593 1.389 . S
C3592 H3565 0.950 . S
C3592 C3578 1.377 . S
C3592 C3591 1.373 . S
C3593 C3577 1.377 . S
C3593 C3591 1.389 . S
C3593 C3594 1.524 . S
C3594 C3593 1.524 . S
C3594 C3595 1.397 . S
C3594 C3599 1.363 . S
C3595 H3566 0.950 . S
C3595 C3594 1.397 . S
C3595 C3596 1.334 . S
C3596 H3567 0.950 . S
C3596 C3595 1.334 . S
C3596 C3597 1.287 . S
C3597 C3596 1.287 . S
C3597 C3598 1.524 . S
C3597 H3600 0.999 . S
C3598 H3568 0.950 . S
C3598 C3597 1.524 . S
C3598 C3599 1.415 . S
C3599 H3569 0.950 . S
C3599 C3594 1.363 . S
C3599 C3598 1.415 . S
H3600 C3597 0.999 . S
H3601 C3582 0.913 . S
H3602 C3620 0.951 . S
H3603 C3622 0.951 1_655 S
H3604 C3624 0.950 . S
H3605 C3625 0.950 . S
H3606 C3627 0.950 . S
H3607 C3630 0.950 . S
H3608 C3631 0.891 1_455 S
H3609 C3633 0.950 . S
H3610 C3634 0.950 . S
H3611 C3635 0.951 . S
H3612 C3637 0.951 . S
H3613 C3639 0.950 . S
H3614 C3640 0.950 . S
H3615 C3642 0.950 . S
H3616 C3645 0.950 . S
H3617 C3646 0.950 . S
H3618 C3648 0.950 . S
H3619 C3649 0.950 . S
C3620 H3602 0.951 . S
C3620 C3621 1.366 . S
C3620 C3622 1.388 . S
C3621 C3620 1.366 . S
C3621 C3625 1.385 . S
C3622 H3603 0.951 1_455 S
C3622 C3620 1.388 . S
C3622 C3623 1.366 . S
C3623 C3622 1.366 . S
C3623 C3624 1.414 . S
C3623 C3626 1.499 1_455 S
C3624 H3604 0.950 . S
C3624 C3623 1.414 . S
C3624 C3625 1.374 . S
C3625 H3605 0.950 . S
C3625 C3621 1.385 . S
C3625 C3624 1.374 . S
C3626 C3623 1.499 1_655 S
C3626 C3627 1.373 . S
C3626 C3628 1.389 . S
C3627 H3606 0.950 . S
C3627 C3626 1.373 . S
C3627 C3643 1.377 . S
C3628 C3626 1.389 . S
C3628 C3629 1.524 . S
C3628 C3642 1.377 . S
C3629 C3628 1.524 . S
C3629 C3630 1.397 . S
C3629 C3634 1.363 . S
C3630 H3607 0.950 . S
C3630 C3629 1.397 . S
C3630 C3631 1.334 . S
C3631 H3608 0.891 1_655 S
C3631 C3630 1.334 . S
C3631 C3632 1.287 . S
C3632 C3631 1.287 . S
C3632 C3633 1.524 . S
C3632 H3651 0.913 . S
C3633 H3609 0.950 . S
C3633 C3632 1.524 . S
C3633 C3634 1.415 . S
C3634 H3610 0.950 . S
C3634 C3629 1.363 . S
C3634 C3633 1.415 . S
C3635 H3611 0.951 . S
C3635 C3636 1.366 . S
C3635 C3637 1.388 . S
C3636 C3635 1.366 . S
C3636 C3640 1.385 . S
C3637 H3612 0.951 . S
C3637 C3635 1.388 . S
C3637 C3638 1.366 . S
C3638 C3637 1.366 . S
C3638 C3639 1.414 . S
C3638 C3641 1.499 . S
C3639 H3613 0.950 . S
C3639 C3638 1.414 . S
C3639 C3640 1.374 . S
C3640 H3614 0.950 . S
C3640 C3636 1.385 . S
C3640 C3639 1.374 . S
C3641 C3638 1.499 . S
C3641 C3642 1.373 . S
C3641 C3643 1.389 . S
C3642 H3615 0.950 . S
C3642 C3628 1.377 . S
C3642 C3641 1.373 . S
C3643 C3627 1.377 . S
C3643 C3641 1.389 . S
C3643 C3644 1.524 . S
C3644 C3643 1.524 . S
C3644 C3645 1.397 . S
C3644 C3649 1.363 . S
C3645 H3616 0.950 . S
C3645 C3644 1.397 . S
C3645 C3646 1.334 . S
C3646 H3617 0.950 . S
C3646 C3645 1.334 . S
C3646 C3647 1.287 . S
C3647 C3646 1.287 . S
C3647 C3648 1.524 . S
C3647 H3650 0.999 . S
C3648 H3618 0.950 . S
C3648 C3647 1.524 . S
C3648 C3649 1.415 . S
C3649 H3619 0.950 . S
C3649 C3644 1.363 . S
C3649 C3648 1.415 . S
H3650 C3647 0.999 . S
H3651 C3632 0.913 . S
H3652 C3670 0.951 . S
H3653 C3672 0.951 . S
H3654 C3674 0.950 . S
H3655 C3675 0.950 . S
H3656 C3677 0.950 . S
H3657 C3680 0.950 . S
H3658 C3681 0.950 . S
H3659 C3683 0.950 . S
H3660 C3684 0.950 . S
H3661 C3685 0.951 . S
H3662 C3687 0.951 . S
H3663 C3689 0.950 . S
H3664 C3690 0.950 . S
H3665 C3692 0.950 . S
H3666 C3695 0.950 . S
H3667 C3696 0.950 . S
H3668 C3698 0.950 . S
H3669 C3699 0.950 . S
C3670 H3652 0.951 . S
C3670 C3671 1.366 . S
C3670 C3672 1.388 . S
C3671 C3670 1.366 . S
C3671 C3675 1.385 1_655 S
C3672 H3653 0.951 . S
C3672 C3670 1.388 . S
C3672 C3673 1.366 . S
C3673 C3672 1.366 . S
C3673 C3674 1.414 1_655 S
C3673 C3676 1.508 . S
C3674 H3654 0.950 . S
C3674 C3673 1.414 1_455 S
C3674 C3675 1.374 . S
C3675 H3655 0.950 . S
C3675 C3671 1.385 1_455 S
C3675 C3674 1.374 . S
C3676 C3673 1.508 . S
C3676 C3677 1.357 1_655 S
C3676 C3678 1.397 . S
C3677 H3656 0.950 . S
C3677 C3676 1.357 1_455 S
C3677 C3693 1.377 . S
C3678 C3676 1.397 . S
C3678 C3679 1.524 . S
C3678 C3692 1.377 . S
C3679 C3678 1.524 . S
C3679 C3680 1.397 . S
C3679 C3684 1.363 . S
C3680 H3657 0.950 . S
C3680 C3679 1.397 . S
C3680 C3681 1.334 . S
C3681 H3658 0.950 . S
C3681 C3680 1.334 . S
C3681 C3682 1.287 . S
C3682 C3681 1.287 . S
C3682 C3683 1.524 . S
C3682 H3701 0.913 . S
C3683 H3659 0.950 . S
C3683 C3682 1.524 . S
C3683 C3684 1.415 . S
C3684 H3660 0.950 . S
C3684 C3679 1.363 . S
C3684 C3683 1.415 . S
C3685 H3661 0.951 . S
C3685 C3686 1.366 . S
C3685 C3687 1.388 . S
C3686 C3685 1.366 . S
C3686 C3690 1.385 1_455 S
C3687 H3662 0.951 . S
C3687 C3685 1.388 . S
C3687 C3688 1.366 . S
C3688 C3687 1.366 . S
C3688 C3689 1.414 1_455 S
C3688 C3691 1.499 . S
C3689 H3663 0.950 . S
C3689 C3688 1.414 1_655 S
C3689 C3690 1.374 . S
C3690 H3664 0.950 . S
C3690 C3686 1.385 1_655 S
C3690 C3689 1.374 . S
C3691 C3688 1.499 . S
C3691 C3692 1.373 1_455 S
C3691 C3693 1.389 . S
C3692 H3665 0.950 . S
C3692 C3678 1.377 . S
C3692 C3691 1.373 1_655 S
C3693 C3677 1.377 . S
C3693 C3691 1.389 . S
C3693 C3694 1.524 . S
C3694 C3693 1.524 . S
C3694 C3695 1.397 . S
C3694 C3699 1.363 . S
C3695 H3666 0.950 . S
C3695 C3694 1.397 . S
C3695 C3696 1.334 . S
C3696 H3667 0.950 . S
C3696 C3695 1.334 . S
C3696 C3697 1.287 . S
C3697 C3696 1.287 . S
C3697 C3698 1.524 . S
C3697 H3700 0.999 . S
C3698 H3668 0.950 . S
C3698 C3697 1.524 . S
C3698 C3699 1.415 . S
C3699 H3669 0.950 . S
C3699 C3694 1.363 . S
C3699 C3698 1.415 . S
H3700 C3697 0.999 . S
H3701 C3682 0.913 . S
H3702 C3720 0.951 . S
H3703 C3722 0.951 . S
H3704 C3724 0.950 . S
H3705 C3725 0.950 . S
H3706 C3727 0.950 . S
H3707 C3730 0.950 . S
H3708 C3731 0.950 . S
H3709 C3733 0.950 . S
H3710 C3734 0.950 . S
H3711 C3735 0.951 . S
H3712 C3737 0.951 . S
H3713 C3739 0.950 . S
H3714 C3740 0.950 . S
H3715 C3742 0.950 . S
H3716 C3745 0.950 . S
H3717 C3746 0.950 . S
H3718 C3748 0.950 . S
H3719 C3749 0.950 . S
C3720 H3702 0.951 . S
C3720 C3721 1.366 . S
C3720 C3722 1.388 . S
C3721 C3720 1.366 . S
C3721 C3725 1.385 . S
C3722 H3703 0.951 . S
C3722 C3720 1.388 . S
C3722 C3723 1.366 . S
C3723 C3722 1.366 . S
C3723 C3724 1.414 . S
C3723 C3726 1.499 . S
C3724 H3704 0.950 . S
C3724 C3723 1.414 . S
C3724 C3725 1.374 . S
C3725 H3705 0.950 . S
C3725 C3721 1.385 . S
C3725 C3724 1.374 . S
C3726 C3723 1.499 . S
C3726 C3727 1.373 . S
C3726 C3728 1.389 . S
C3727 H3706 0.950 . S
C3727 C3726 1.373 . S
C3727 C3743 1.377 . S
C3728 C3726 1.389 . S
C3728 C3729 1.524 . S
C3728 C3742 1.377 . S
C3729 C3728 1.524 . S
C3729 C3730 1.397 . S
C3729 C3734 1.363 . S
C3730 H3707 0.950 . S
C3730 C3729 1.397 . S
C3730 C3731 1.334 . S
C3731 H3708 0.950 . S
C3731 C3730 1.334 . S
C3731 C3732 1.287 . S
C3732 C3731 1.287 . S
C3732 C3733 1.524 . S
C3732 H3751 0.913 . S
C3733 H3709 0.950 . S
C3733 C3732 1.524 . S
C3733 C3734 1.415 . S
C3734 H3710 0.950 . S
C3734 C3729 1.363 . S
C3734 C3733 1.415 . S
C3735 H3711 0.951 . S
C3735 C3736 1.366 . S
C3735 C3737 1.388 . S
C3736 C3735 1.366 . S
C3736 C3740 1.385 . S
C3737 H3712 0.951 . S
C3737 C3735 1.388 . S
C3737 C3738 1.366 . S
C3738 C3737 1.366 . S
C3738 C3739 1.414 . S
C3738 C3741 1.499 . S
C3739 H3713 0.950 . S
C3739 C3738 1.414 . S
C3739 C3740 1.374 . S
C3740 H3714 0.950 . S
C3740 C3736 1.385 . S
C3740 C3739 1.374 . S
C3741 C3738 1.499 . S
C3741 C3742 1.373 . S
C3741 C3743 1.389 . S
C3742 H3715 0.950 . S
C3742 C3728 1.377 . S
C3742 C3741 1.373 . S
C3743 C3727 1.377 . S
C3743 C3741 1.389 . S
C3743 C3744 1.524 . S
C3744 C3743 1.524 . S
C3744 C3745 1.397 . S
C3744 C3749 1.363 . S
C3745 H3716 0.950 . S
C3745 C3744 1.397 . S
C3745 C3746 1.334 . S
C3746 H3717 0.950 . S
C3746 C3745 1.334 . S
C3746 C3747 1.287 . S
C3747 C3746 1.287 . S
C3747 C3748 1.524 . S
C3747 H3750 0.999 . S
C3748 H3718 0.950 . S
C3748 C3747 1.524 . S
C3748 C3749 1.415 . S
C3749 H3719 0.950 . S
C3749 C3744 1.363 . S
C3749 C3748 1.415 . S
H3750 C3747 0.999 . S
H3751 C3732 0.913 . S
H3752 C3770 0.951 . S
H3753 C3772 0.951 . S
H3754 C3774 0.950 . S
H3755 C3775 0.950 . S
H3756 C3777 0.950 . S
H3757 C3780 0.950 . S
H3758 C3781 0.950 . S
H3759 C3783 0.950 . S
H3760 C3784 0.950 . S
H3761 C3785 0.951 . S
H3762 C3787 0.951 . S
H3763 C3789 0.950 . S
H3764 C3790 0.950 . S
H3765 C3792 0.950 . S
H3766 C3795 0.950 . S
H3767 C3796 0.950 . S
H3768 C3798 0.950 . S
H3769 C3799 0.950 . S
C3770 H3752 0.951 . S
C3770 C3771 1.366 . S
C3770 C3772 1.388 . S
C3771 C3770 1.366 . S
C3771 C3775 1.385 . S
C3772 H3753 0.951 . S
C3772 C3770 1.388 . S
C3772 C3773 1.366 . S
C3773 C3772 1.366 . S
C3773 C3774 1.414 . S
C3773 C3776 1.499 . S
C3774 H3754 0.950 . S
C3774 C3773 1.414 . S
C3774 C3775 1.374 . S
C3775 H3755 0.950 . S
C3775 C3771 1.385 . S
C3775 C3774 1.374 . S
C3776 C3773 1.499 . S
C3776 C3777 1.373 . S
C3776 C3778 1.389 . S
C3777 H3756 0.950 . S
C3777 C3776 1.373 . S
C3777 C3793 1.377 . S
C3778 C3776 1.389 . S
C3778 C3779 1.524 . S
C3778 C3792 1.377 . S
C3779 C3778 1.524 . S
C3779 C3780 1.397 . S
C3779 C3784 1.363 . S
C3780 H3757 0.950 . S
C3780 C3779 1.397 . S
C3780 C3781 1.334 . S
C3781 H3758 0.950 . S
C3781 C3780 1.334 . S
C3781 C3782 1.287 . S
C3782 C3781 1.287 . S
C3782 C3783 1.524 . S
C3782 H3801 0.913 . S
C3783 H3759 0.950 . S
C3783 C3782 1.524 . S
C3783 C3784 1.415 . S
C3784 H3760 0.950 . S
C3784 C3779 1.363 . S
C3784 C3783 1.415 . S
C3785 H3761 0.951 . S
C3785 C3786 1.366 . S
C3785 C3787 1.388 . S
C3786 C3785 1.366 . S
C3786 C3790 1.385 . S
C3787 H3762 0.951 . S
C3787 C3785 1.388 . S
C3787 C3788 1.366 . S
C3788 C3787 1.366 . S
C3788 C3789 1.414 . S
C3788 C3791 1.499 . S
C3789 H3763 0.950 . S
C3789 C3788 1.414 . S
C3789 C3790 1.374 . S
C3790 H3764 0.950 . S
C3790 C3786 1.385 . S
C3790 C3789 1.374 . S
C3791 C3788 1.499 . S
C3791 C3792 1.373 . S
C3791 C3793 1.389 . S
C3792 H3765 0.950 . S
C3792 C3778 1.377 . S
C3792 C3791 1.373 . S
C3793 C3777 1.377 . S
C3793 C3791 1.389 . S
C3793 C3794 1.524 . S
C3794 C3793 1.524 . S
C3794 C3795 1.397 . S
C3794 C3799 1.363 . S
C3795 H3766 0.950 . S
C3795 C3794 1.397 . S
C3795 C3796 1.334 . S
C3796 H3767 0.950 . S
C3796 C3795 1.334 . S
C3796 C3797 1.287 . S
C3797 C3796 1.287 . S
C3797 C3798 1.524 . S
C3797 H3800 0.999 . S
C3798 H3768 0.950 . S
C3798 C3797 1.524 . S
C3798 C3799 1.415 . S
C3799 H3769 0.950 . S
C3799 C3794 1.363 . S
C3799 C3798 1.415 . S
H3800 C3797 0.999 . S
H3801 C3782 0.913 . S
H3802 C3820 0.951 . S
H3803 C3822 0.951 . S
H3804 C3824 0.950 . S
H3805 C3825 0.950 . S
H3806 C3827 0.950 . S
H3807 C3830 0.950 . S
H3808 C3831 0.950 . S
H3809 C3833 0.950 . S
H3810 C3834 0.950 . S
H3811 C3835 0.951 . S
H3812 C3837 0.951 . S
H3813 C3839 0.950 . S
H3814 C3840 0.950 . S
H3815 C3842 0.950 . S
H3816 C3845 0.950 . S
H3817 C3846 0.950 . S
H3818 C3848 0.950 . S
H3819 C3849 0.950 . S
C3820 H3802 0.951 . S
C3820 C3821 1.366 . S
C3820 C3822 1.388 . S
C3821 C3820 1.366 . S
C3821 C3825 1.385 . S
C3822 H3803 0.951 . S
C3822 C3820 1.388 . S
C3822 C3823 1.366 . S
C3823 C3822 1.366 . S
C3823 C3824 1.414 . S
C3823 C3826 1.499 . S
C3824 H3804 0.950 . S
C3824 C3823 1.414 . S
C3824 C3825 1.374 . S
C3825 H3805 0.950 . S
C3825 C3821 1.385 . S
C3825 C3824 1.374 . S
C3826 C3823 1.499 . S
C3826 C3827 1.373 . S
C3826 C3828 1.389 . S
C3827 H3806 0.950 . S
C3827 C3826 1.373 . S
C3827 C3843 1.377 . S
C3828 C3826 1.389 . S
C3828 C3829 1.524 . S
C3828 C3842 1.377 . S
C3829 C3828 1.524 . S
C3829 C3830 1.397 . S
C3829 C3834 1.363 . S
C3830 H3807 0.950 . S
C3830 C3829 1.397 . S
C3830 C3831 1.334 . S
C3831 H3808 0.950 . S
C3831 C3830 1.334 . S
C3831 C3832 1.287 . S
C3832 C3831 1.287 . S
C3832 C3833 1.524 . S
C3832 H3851 0.913 . S
C3833 H3809 0.950 . S
C3833 C3832 1.524 . S
C3833 C3834 1.415 . S
C3834 H3810 0.950 . S
C3834 C3829 1.363 . S
C3834 C3833 1.415 . S
C3835 H3811 0.951 . S
C3835 C3836 1.366 . S
C3835 C3837 1.388 . S
C3836 C3835 1.366 . S
C3836 C3840 1.385 . S
C3837 H3812 0.951 . S
C3837 C3835 1.388 . S
C3837 C3838 1.366 . S
C3838 C3837 1.366 . S
C3838 C3839 1.414 . S
C3838 C3841 1.499 . S
C3839 H3813 0.950 . S
C3839 C3838 1.414 . S
C3839 C3840 1.374 . S
C3840 H3814 0.950 . S
C3840 C3836 1.385 . S
C3840 C3839 1.374 . S
C3841 C3838 1.499 . S
C3841 C3842 1.373 . S
C3841 C3843 1.389 . S
C3842 H3815 0.950 . S
C3842 C3828 1.377 . S
C3842 C3841 1.373 . S
C3843 C3827 1.377 . S
C3843 C3841 1.389 . S
C3843 C3844 1.524 . S
C3844 C3843 1.524 . S
C3844 C3845 1.397 . S
C3844 C3849 1.363 . S
C3845 H3816 0.950 . S
C3845 C3844 1.397 . S
C3845 C3846 1.334 . S
C3846 H3817 0.950 . S
C3846 C3845 1.334 . S
C3846 C3847 1.287 . S
C3847 C3846 1.287 . S
C3847 C3848 1.524 . S
C3847 H3850 0.999 . S
C3848 H3818 0.950 . S
C3848 C3847 1.524 . S
C3848 C3849 1.415 . S
C3849 H3819 0.950 . S
C3849 C3844 1.363 . S
C3849 C3848 1.415 . S
H3850 C3847 0.999 . S
H3851 C3832 0.913 . S
H3852 C3870 0.951 . S
H3853 C3872 0.951 . S
H3854 C3874 0.950 . S
H3855 C3875 0.950 . S
H3856 C3877 0.950 . S
H3857 C3880 0.950 . S
H3858 C3881 0.950 . S
H3859 C3883 0.950 . S
H3860 C3884 0.950 . S
H3861 C3885 0.951 . S
H3862 C3887 0.951 . S
H3863 C3889 0.950 . S
H3864 C3890 0.950 . S
H3865 C3892 0.950 . S
H3866 C3895 0.950 . S
H3867 C3896 0.950 . S
H3868 C3898 0.950 . S
H3869 C3899 0.950 . S
C3870 H3852 0.951 . S
C3870 C3871 1.366 . S
C3870 C3872 1.388 . S
C3871 C3870 1.366 . S
C3871 C3875 1.385 . S
C3872 H3853 0.951 . S
C3872 C3870 1.388 . S
C3872 C3873 1.366 . S
C3873 C3872 1.366 . S
C3873 C3874 1.414 . S
C3873 C3876 1.499 . S
C3874 H3854 0.950 . S
C3874 C3873 1.414 . S
C3874 C3875 1.374 . S
C3875 H3855 0.950 . S
C3875 C3871 1.385 . S
C3875 C3874 1.374 . S
C3876 C3873 1.499 . S
C3876 C3877 1.373 . S
C3876 C3878 1.389 . S
C3877 H3856 0.950 . S
C3877 C3876 1.373 . S
C3877 C3893 1.377 . S
C3878 C3876 1.389 . S
C3878 C3879 1.524 . S
C3878 C3892 1.377 . S
C3879 C3878 1.524 . S
C3879 C3880 1.397 . S
C3879 C3884 1.363 . S
C3880 H3857 0.950 . S
C3880 C3879 1.397 . S
C3880 C3881 1.334 . S
C3881 H3858 0.950 . S
C3881 C3880 1.334 . S
C3881 C3882 1.287 . S
C3882 C3881 1.287 . S
C3882 C3883 1.524 . S
C3882 H3901 0.913 . S
C3883 H3859 0.950 . S
C3883 C3882 1.524 . S
C3883 C3884 1.415 . S
C3884 H3860 0.950 . S
C3884 C3879 1.363 . S
C3884 C3883 1.415 . S
C3885 H3861 0.951 . S
C3885 C3886 1.366 . S
C3885 C3887 1.388 . S
C3886 C3885 1.366 . S
C3886 C3890 1.385 . S
C3887 H3862 0.951 . S
C3887 C3885 1.388 . S
C3887 C3888 1.366 . S
C3888 C3887 1.366 . S
C3888 C3889 1.414 . S
C3888 C3891 1.499 . S
C3889 H3863 0.950 . S
C3889 C3888 1.414 . S
C3889 C3890 1.374 . S
C3890 H3864 0.950 . S
C3890 C3886 1.385 . S
C3890 C3889 1.374 . S
C3891 C3888 1.499 . S
C3891 C3892 1.373 . S
C3891 C3893 1.389 . S
C3892 H3865 0.950 . S
C3892 C3878 1.377 . S
C3892 C3891 1.373 . S
C3893 C3877 1.377 . S
C3893 C3891 1.389 . S
C3893 C3894 1.524 . S
C3894 C3893 1.524 . S
C3894 C3895 1.397 . S
C3894 C3899 1.363 . S
C3895 H3866 0.950 . S
C3895 C3894 1.397 . S
C3895 C3896 1.334 . S
C3896 H3867 0.950 . S
C3896 C3895 1.334 . S
C3896 C3897 1.287 . S
C3897 C3896 1.287 . S
C3897 C3898 1.524 . S
C3897 H3900 0.999 . S
C3898 H3868 0.950 . S
C3898 C3897 1.524 . S
C3898 C3899 1.415 . S
C3899 H3869 0.950 . S
C3899 C3894 1.363 . S
C3899 C3898 1.415 . S
H3900 C3897 0.999 . S
H3901 C3882 0.913 . S
H3902 C3920 0.951 . S
H3903 C3922 0.951 . S
H3904 C3924 0.950 . S
H3905 C3925 0.950 . S
H3906 C3927 0.950 . S
H3907 C3930 0.950 . S
H3908 C3931 0.950 . S
H3909 C3933 0.950 . S
H3910 C3934 0.950 . S
H3911 C3935 0.951 . S
H3912 C3937 0.951 . S
H3913 C3939 0.950 . S
H3914 C3940 0.950 . S
H3915 C3942 0.950 . S
H3916 C3945 0.950 . S
H3917 C3946 0.950 . S
H3918 C3948 0.950 . S
H3919 C3949 0.950 . S
C3920 H3902 0.951 . S
C3920 C3921 1.366 . S
C3920 C3922 1.388 . S
C3921 C3920 1.366 . S
C3921 C3925 1.385 . S
C3922 H3903 0.951 . S
C3922 C3920 1.388 . S
C3922 C3923 1.366 . S
C3923 C3922 1.366 . S
C3923 C3924 1.414 . S
C3923 C3926 1.499 . S
C3924 H3904 0.950 . S
C3924 C3923 1.414 . S
C3924 C3925 1.374 . S
C3925 H3905 0.950 . S
C3925 C3921 1.385 . S
C3925 C3924 1.374 . S
C3926 C3923 1.499 . S
C3926 C3927 1.373 . S
C3926 C3928 1.389 . S
C3927 H3906 0.950 . S
C3927 C3926 1.373 . S
C3927 C3943 1.377 . S
C3928 C3926 1.389 . S
C3928 C3929 1.524 . S
C3928 C3942 1.377 . S
C3929 C3928 1.524 . S
C3929 C3930 1.397 . S
C3929 C3934 1.363 . S
C3930 H3907 0.950 . S
C3930 C3929 1.397 . S
C3930 C3931 1.334 . S
C3931 H3908 0.950 . S
C3931 C3930 1.334 . S
C3931 C3932 1.287 . S
C3932 C3931 1.287 . S
C3932 C3933 1.524 . S
C3932 H3951 0.913 . S
C3933 H3909 0.950 . S
C3933 C3932 1.524 . S
C3933 C3934 1.415 . S
C3934 H3910 0.950 . S
C3934 C3929 1.363 . S
C3934 C3933 1.415 . S
C3935 H3911 0.951 . S
C3935 C3936 1.366 . S
C3935 C3937 1.388 . S
C3936 C3935 1.366 . S
C3936 C3940 1.385 . S
C3937 H3912 0.951 . S
C3937 C3935 1.388 . S
C3937 C3938 1.366 . S
C3938 C3937 1.366 . S
C3938 C3939 1.414 . S
C3938 C3941 1.499 . S
C3939 H3913 0.950 . S
C3939 C3938 1.414 . S
C3939 C3940 1.374 . S
C3940 H3914 0.950 . S
C3940 C3936 1.385 . S
C3940 C3939 1.374 . S
C3941 C3938 1.499 . S
C3941 C3942 1.373 . S
C3941 C3943 1.389 . S
C3942 H3915 0.950 . S
C3942 C3928 1.377 . S
C3942 C3941 1.373 . S
C3943 C3927 1.377 . S
C3943 C3941 1.389 . S
C3943 C3944 1.524 . S
C3944 C3943 1.524 . S
C3944 C3945 1.397 . S
C3944 C3949 1.363 . S
C3945 H3916 0.950 . S
C3945 C3944 1.397 . S
C3945 C3946 1.334 . S
C3946 H3917 0.950 . S
C3946 C3945 1.334 . S
C3946 C3947 1.287 . S
C3947 C3946 1.287 . S
C3947 C3948 1.524 . S
C3947 H3950 0.999 . S
C3948 H3918 0.950 . S
C3948 C3947 1.524 . S
C3948 C3949 1.415 . S
C3949 H3919 0.950 . S
C3949 C3944 1.363 . S
C3949 C3948 1.415 . S
H3950 C3947 0.999 . S
H3951 C3932 0.913 . S
H3952 C3970 0.951 . S
H3953 C3972 0.951 . S
H3954 C3974 0.950 . S
H3955 C3975 0.950 . S
H3956 C3977 0.950 . S
H3957 C3980 0.950 . S
H3958 C3981 0.950 . S
H3959 C3983 0.950 . S
H3960 C3984 0.950 . S
H3961 C3985 0.951 . S
H3962 C3987 0.951 . S
H3963 C3989 0.950 . S
H3964 C3990 0.950 . S
H3965 C3992 0.950 . S
H3966 C3995 0.950 . S
H3967 C3996 0.950 . S
H3968 C3998 0.950 . S
H3969 C3999 0.950 . S
C3970 H3952 0.951 . S
C3970 C3971 1.366 . S
C3970 C3972 1.388 . S
C3971 C3970 1.366 . S
C3971 C3975 1.385 . S
C3972 H3953 0.951 . S
C3972 C3970 1.388 . S
C3972 C3973 1.366 . S
C3973 C3972 1.366 . S
C3973 C3974 1.414 . S
C3973 C3976 1.499 . S
C3974 H3954 0.950 . S
C3974 C3973 1.414 . S
C3974 C3975 1.374 . S
C3975 H3955 0.950 . S
C3975 C3971 1.385 . S
C3975 C3974 1.374 . S
C3976 C3973 1.499 . S
C3976 C3977 1.373 . S
C3976 C3978 1.389 . S
C3977 H3956 0.950 . S
C3977 C3976 1.373 . S
C3977 C3993 1.377 . S
C3978 C3976 1.389 . S
C3978 C3979 1.524 . S
C3978 C3992 1.377 . S
C3979 C3978 1.524 . S
C3979 C3980 1.397 . S
C3979 C3984 1.363 . S
C3980 H3957 0.950 . S
C3980 C3979 1.397 . S
C3980 C3981 1.334 . S
C3981 H3958 0.950 . S
C3981 C3980 1.334 . S
C3981 C3982 1.287 . S
C3982 C3981 1.287 . S
C3982 C3983 1.524 . S
C3982 H4001 0.913 . S
C3983 H3959 0.950 . S
C3983 C3982 1.524 . S
C3983 C3984 1.415 . S
C3984 H3960 0.950 . S
C3984 C3979 1.363 . S
C3984 C3983 1.415 . S
C3985 H3961 0.951 . S
C3985 C3986 1.366 . S
C3985 C3987 1.388 . S
C3986 C3985 1.366 . S
C3986 C3990 1.385 . S
C3987 H3962 0.951 . S
C3987 C3985 1.388 . S
C3987 C3988 1.366 . S
C3988 C3987 1.366 . S
C3988 C3989 1.414 . S
C3988 C3991 1.499 . S
C3989 H3963 0.950 . S
C3989 C3988 1.414 . S
C3989 C3990 1.374 . S
C3990 H3964 0.950 . S
C3990 C3986 1.385 . S
C3990 C3989 1.374 . S
C3991 C3988 1.499 . S
C3991 C3992 1.373 . S
C3991 C3993 1.389 . S
C3992 H3965 0.950 . S
C3992 C3978 1.377 . S
C3992 C3991 1.373 . S
C3993 C3977 1.377 . S
C3993 C3991 1.389 . S
C3993 C3994 1.524 . S
C3994 C3993 1.524 . S
C3994 C3995 1.397 . S
C3994 C3999 1.363 . S
C3995 H3966 0.950 . S
C3995 C3994 1.397 . S
C3995 C3996 1.334 . S
C3996 H3967 0.950 . S
C3996 C3995 1.334 . S
C3996 C3997 1.287 . S
C3997 C3996 1.287 . S
C3997 C3998 1.524 . S
C3997 H4000 0.999 . S
C3998 H3968 0.950 . S
C3998 C3997 1.524 . S
C3998 C3999 1.415 . S
C3999 H3969 0.950 . S
C3999 C3994 1.363 . S
C3999 C3998 1.415 . S
H4000 C3997 0.999 . S
H4001 C3982 0.913 . S
H4002 C4020 0.951 . S
H4003 C4022 0.951 . S
H4004 C4024 0.950 . S
H4005 C4025 0.950 . S
H4006 C4027 0.950 . S
H4007 C4030 0.950 . S
H4008 C4031 0.950 . S
H4009 C4033 0.950 . S
H4010 C4034 0.950 . S
H4011 C4035 0.951 . S
H4012 C4037 0.951 . S
H4013 C4039 0.950 . S
H4014 C4040 0.950 . S
H4015 C4042 0.950 . S
H4016 C4045 0.950 . S
H4017 C4046 0.950 . S
H4018 C4048 0.950 . S
H4019 C4049 0.950 . S
C4020 H4002 0.951 . S
C4020 C4021 1.366 . S
C4020 C4022 1.388 . S
C4021 C4020 1.366 . S
C4021 C4025 1.385 . S
C4022 H4003 0.951 . S
C4022 C4020 1.388 . S
C4022 C4023 1.366 . S
C4023 C4022 1.366 . S
C4023 C4024 1.414 . S
C4023 C4026 1.499 . S
C4024 H4004 0.950 . S
C4024 C4023 1.414 . S
C4024 C4025 1.374 . S
C4025 H4005 0.950 . S
C4025 C4021 1.385 . S
C4025 C4024 1.374 . S
C4026 C4023 1.499 . S
C4026 C4027 1.373 . S
C4026 C4028 1.389 . S
C4027 H4006 0.950 . S
C4027 C4026 1.373 . S
C4027 C4043 1.377 . S
C4028 C4026 1.389 . S
C4028 C4029 1.524 . S
C4028 C4042 1.377 . S
C4029 C4028 1.524 . S
C4029 C4030 1.397 . S
C4029 C4034 1.363 . S
C4030 H4007 0.950 . S
C4030 C4029 1.397 . S
C4030 C4031 1.334 . S
C4031 H4008 0.950 . S
C4031 C4030 1.334 . S
C4031 C4032 1.287 . S
C4032 C4031 1.287 . S
C4032 C4033 1.524 . S
C4032 H4051 0.913 . S
C4033 H4009 0.950 . S
C4033 C4032 1.524 . S
C4033 C4034 1.415 . S
C4034 H4010 0.950 . S
C4034 C4029 1.363 . S
C4034 C4033 1.415 . S
C4035 H4011 0.951 . S
C4035 C4036 1.366 . S
C4035 C4037 1.388 . S
C4036 C4035 1.366 . S
C4036 C4040 1.385 . S
C4037 H4012 0.951 . S
C4037 C4035 1.388 . S
C4037 C4038 1.366 . S
C4038 C4037 1.366 . S
C4038 C4039 1.414 . S
C4038 C4041 1.499 . S
C4039 H4013 0.950 . S
C4039 C4038 1.414 . S
C4039 C4040 1.374 . S
C4040 H4014 0.950 . S
C4040 C4036 1.385 . S
C4040 C4039 1.374 . S
C4041 C4038 1.499 . S
C4041 C4042 1.373 . S
C4041 C4043 1.389 . S
C4042 H4015 0.950 . S
C4042 C4028 1.377 . S
C4042 C4041 1.373 . S
C4043 C4027 1.377 . S
C4043 C4041 1.389 . S
C4043 C4044 1.524 . S
C4044 C4043 1.524 . S
C4044 C4045 1.397 . S
C4044 C4049 1.363 . S
C4045 H4016 0.950 . S
C4045 C4044 1.397 . S
C4045 C4046 1.334 . S
C4046 H4017 0.950 . S
C4046 C4045 1.334 . S
C4046 C4047 1.287 . S
C4047 C4046 1.287 . S
C4047 C4048 1.524 . S
C4047 H4050 0.999 . S
C4048 H4018 0.950 . S
C4048 C4047 1.524 . S
C4048 C4049 1.415 . S
C4049 H4019 0.950 . S
C4049 C4044 1.363 . S
C4049 C4048 1.415 . S
H4050 C4047 0.999 . S
H4051 C4032 0.913 . S
H4052 C4070 0.951 . S
H4053 C4072 0.951 . S
H4054 C4074 0.950 . S
H4055 C4075 0.950 . S
H4056 C4077 0.950 . S
H4057 C4080 0.950 . S
H4058 C4081 0.950 . S
H4059 C4083 0.950 . S
H4060 C4084 0.950 . S
H4061 C4085 0.951 . S
H4062 C4087 0.951 . S
H4063 C4089 0.950 . S
H4064 C4090 0.950 . S
H4065 C4092 0.950 . S
H4066 C4095 0.950 . S
H4067 C4096 0.950 . S
H4068 C4098 0.950 . S
H4069 C4099 0.950 . S
C4070 H4052 0.951 . S
C4070 C4071 1.366 . S
C4070 C4072 1.388 . S
C4071 C4070 1.366 . S
C4071 C4075 1.385 . S
C4072 H4053 0.951 . S
C4072 C4070 1.388 . S
C4072 C4073 1.366 . S
C4073 C4072 1.366 . S
C4073 C4074 1.414 . S
C4073 C4076 1.499 . S
C4074 H4054 0.950 . S
C4074 C4073 1.414 . S
C4074 C4075 1.374 . S
C4075 H4055 0.950 . S
C4075 C4071 1.385 . S
C4075 C4074 1.374 . S
C4076 C4073 1.499 . S
C4076 C4077 1.373 . S
C4076 C4078 1.389 . S
C4077 H4056 0.950 . S
C4077 C4076 1.373 . S
C4077 C4093 1.377 . S
C4078 C4076 1.389 . S
C4078 C4079 1.524 . S
C4078 C4092 1.377 . S
C4079 C4078 1.524 . S
C4079 C4080 1.397 . S
C4079 C4084 1.363 . S
C4080 H4057 0.950 . S
C4080 C4079 1.397 . S
C4080 C4081 1.334 . S
C4081 H4058 0.950 . S
C4081 C4080 1.334 . S
C4081 C4082 1.287 . S
C4082 C4081 1.287 . S
C4082 C4083 1.524 . S
C4082 H4101 0.913 . S
C4083 H4059 0.950 . S
C4083 C4082 1.524 . S
C4083 C4084 1.415 . S
C4084 H4060 0.950 . S
C4084 C4079 1.363 . S
C4084 C4083 1.415 . S
C4085 H4061 0.951 . S
C4085 C4086 1.366 . S
C4085 C4087 1.388 . S
C4086 C4085 1.366 . S
C4086 C4090 1.385 . S
C4087 H4062 0.951 . S
C4087 C4085 1.388 . S
C4087 C4088 1.366 . S
C4088 C4087 1.366 . S
C4088 C4089 1.414 . S
C4088 C4091 1.499 . S
C4089 H4063 0.950 . S
C4089 C4088 1.414 . S
C4089 C4090 1.374 . S
C4090 H4064 0.950 . S
C4090 C4086 1.385 . S
C4090 C4089 1.374 . S
C4091 C4088 1.499 . S
C4091 C4092 1.373 . S
C4091 C4093 1.389 . S
C4092 H4065 0.950 . S
C4092 C4078 1.377 . S
C4092 C4091 1.373 . S
C4093 C4077 1.377 . S
C4093 C4091 1.389 . S
C4093 C4094 1.524 . S
C4094 C4093 1.524 . S
C4094 C4095 1.397 . S
C4094 C4099 1.363 . S
C4095 H4066 0.950 . S
C4095 C4094 1.397 . S
C4095 C4096 1.334 . S
C4096 H4067 0.950 . S
C4096 C4095 1.334 . S
C4096 C4097 1.287 . S
C4097 C4096 1.287 . S
C4097 C4098 1.524 . S
C4097 H4100 0.999 . S
C4098 H4068 0.950 . S
C4098 C4097 1.524 . S
C4098 C4099 1.415 . S
C4099 H4069 0.950 . S
C4099 C4094 1.363 . S
C4099 C4098 1.415 . S
H4100 C4097 0.999 . S
H4101 C4082 0.913 . S
H4102 C4120 0.951 . S
H4103 C4122 0.951 . S
H4104 C4124 0.950 . S
H4105 C4125 0.950 . S
H4106 C4127 0.950 . S
H4107 C4130 0.950 . S
H4108 C4131 0.950 . S
H4109 C4133 0.950 . S
H4110 C4134 0.950 . S
H4111 C4135 0.951 . S
H4112 C4137 0.951 . S
H4113 C4139 0.950 . S
H4114 C4140 0.950 . S
H4115 C4142 0.950 . S
H4116 C4145 0.950 . S
H4117 C4146 0.950 . S
H4118 C4148 0.950 . S
H4119 C4149 0.950 . S
C4120 H4102 0.951 . S
C4120 C4121 1.366 . S
C4120 C4122 1.388 . S
C4121 C4120 1.366 . S
C4121 C4125 1.385 . S
C4122 H4103 0.951 . S
C4122 C4120 1.388 . S
C4122 C4123 1.366 . S
C4123 C4122 1.366 . S
C4123 C4124 1.414 . S
C4123 C4126 1.499 . S
C4124 H4104 0.950 . S
C4124 C4123 1.414 . S
C4124 C4125 1.374 . S
C4125 H4105 0.950 . S
C4125 C4121 1.385 . S
C4125 C4124 1.374 . S
C4126 C4123 1.499 . S
C4126 C4127 1.373 . S
C4126 C4128 1.389 . S
C4127 H4106 0.950 . S
C4127 C4126 1.373 . S
C4127 C4143 1.377 . S
C4128 C4126 1.389 . S
C4128 C4129 1.524 . S
C4128 C4142 1.377 . S
C4129 C4128 1.524 . S
C4129 C4130 1.397 . S
C4129 C4134 1.363 . S
C4130 H4107 0.950 . S
C4130 C4129 1.397 . S
C4130 C4131 1.334 . S
C4131 H4108 0.950 . S
C4131 C4130 1.334 . S
C4131 C4132 1.287 . S
C4132 C4131 1.287 . S
C4132 C4133 1.524 . S
C4132 H4151 0.913 . S
C4133 H4109 0.950 . S
C4133 C4132 1.524 . S
C4133 C4134 1.415 . S
C4134 H4110 0.950 . S
C4134 C4129 1.363 . S
C4134 C4133 1.415 . S
C4135 H4111 0.951 . S
C4135 C4136 1.366 . S
C4135 C4137 1.388 . S
C4136 C4135 1.366 . S
C4136 C4140 1.385 . S
C4137 H4112 0.951 . S
C4137 C4135 1.388 . S
C4137 C4138 1.366 . S
C4138 C4137 1.366 . S
C4138 C4139 1.414 . S
C4138 C4141 1.499 . S
C4139 H4113 0.950 . S
C4139 C4138 1.414 . S
C4139 C4140 1.374 . S
C4140 H4114 0.950 . S
C4140 C4136 1.385 . S
C4140 C4139 1.374 . S
C4141 C4138 1.499 . S
C4141 C4142 1.373 . S
C4141 C4143 1.389 . S
C4142 H4115 0.950 . S
C4142 C4128 1.377 . S
C4142 C4141 1.373 . S
C4143 C4127 1.377 . S
C4143 C4141 1.389 . S
C4143 C4144 1.524 . S
C4144 C4143 1.524 . S
C4144 C4145 1.397 . S
C4144 C4149 1.363 . S
C4145 H4116 0.950 . S
C4145 C4144 1.397 . S
C4145 C4146 1.334 . S
C4146 H4117 0.950 . S
C4146 C4145 1.334 . S
C4146 C4147 1.287 . S
C4147 C4146 1.287 . S
C4147 C4148 1.524 . S
C4147 H4150 0.999 . S
C4148 H4118 0.950 . S
C4148 C4147 1.524 . S
C4148 C4149 1.415 . S
C4149 H4119 0.950 . S
C4149 C4144 1.363 . S
C4149 C4148 1.415 . S
H4150 C4147 0.999 . S
H4151 C4132 0.913 . S
H4152 C4170 0.951 . S
H4153 C4172 0.951 . S
H4154 C4174 0.950 . S
H4155 C4175 0.950 . S
H4156 C4177 0.950 . S
H4157 C4180 0.950 . S
H4158 C4181 0.950 . S
H4159 C4183 0.950 . S
H4160 C4184 0.950 . S
H4161 C4185 0.951 . S
H4162 C4187 0.951 . S
H4163 C4189 0.950 . S
H4164 C4190 0.950 . S
H4165 C4192 0.950 . S
H4166 C4195 0.950 . S
H4167 C4196 0.950 . S
H4168 C4198 0.950 . S
H4169 C4199 0.950 . S
C4170 H4152 0.951 . S
C4170 C4171 1.366 . S
C4170 C4172 1.388 . S
C4171 C4170 1.366 . S
C4171 C4175 1.385 . S
C4172 H4153 0.951 . S
C4172 C4170 1.388 . S
C4172 C4173 1.366 . S
C4173 C4172 1.366 . S
C4173 C4174 1.414 . S
C4173 C4176 1.499 . S
C4174 H4154 0.950 . S
C4174 C4173 1.414 . S
C4174 C4175 1.374 . S
C4175 H4155 0.950 . S
C4175 C4171 1.385 . S
C4175 C4174 1.374 . S
C4176 C4173 1.499 . S
C4176 C4177 1.373 . S
C4176 C4178 1.389 . S
C4177 H4156 0.950 . S
C4177 C4176 1.373 . S
C4177 C4193 1.377 . S
C4178 C4176 1.389 . S
C4178 C4179 1.524 . S
C4178 C4192 1.377 . S
C4179 C4178 1.524 . S
C4179 C4180 1.397 . S
C4179 C4184 1.363 . S
C4180 H4157 0.950 . S
C4180 C4179 1.397 . S
C4180 C4181 1.334 . S
C4181 H4158 0.950 . S
C4181 C4180 1.334 . S
C4181 C4182 1.287 . S
C4182 C4181 1.287 . S
C4182 C4183 1.524 . S
C4182 H4201 0.913 . S
C4183 H4159 0.950 . S
C4183 C4182 1.524 . S
C4183 C4184 1.415 . S
C4184 H4160 0.950 . S
C4184 C4179 1.363 . S
C4184 C4183 1.415 . S
C4185 H4161 0.951 . S
C4185 C4186 1.366 . S
C4185 C4187 1.388 . S
C4186 C4185 1.366 . S
C4186 C4190 1.385 . S
C4187 H4162 0.951 . S
C4187 C4185 1.388 . S
C4187 C4188 1.366 . S
C4188 C4187 1.366 . S
C4188 C4189 1.414 . S
C4188 C4191 1.499 . S
C4189 H4163 0.950 . S
C4189 C4188 1.414 . S
C4189 C4190 1.374 . S
C4190 H4164 0.950 . S
C4190 C4186 1.385 . S
C4190 C4189 1.374 . S
C4191 C4188 1.499 . S
C4191 C4192 1.373 . S
C4191 C4193 1.389 . S
C4192 H4165 0.950 . S
C4192 C4178 1.377 . S
C4192 C4191 1.373 . S
C4193 C4177 1.377 . S
C4193 C4191 1.389 . S
C4193 C4194 1.524 . S
C4194 C4193 1.524 . S
C4194 C4195 1.397 . S
C4194 C4199 1.363 . S
C4195 H4166 0.950 . S
C4195 C4194 1.397 . S
C4195 C4196 1.334 . S
C4196 H4167 0.950 . S
C4196 C4195 1.334 . S
C4196 C4197 1.287 . S
C4197 C4196 1.287 . S
C4197 C4198 1.524 . S
C4197 H4200 0.999 . S
C4198 H4168 0.950 . S
C4198 C4197 1.524 . S
C4198 C4199 1.415 . S
C4199 H4169 0.950 . S
C4199 C4194 1.363 . S
C4199 C4198 1.415 . S
H4200 C4197 0.999 . S
H4201 C4182 0.913 . S
H4202 C4220 0.951 . S
H4203 C4222 0.951 . S
H4204 C4224 0.950 . S
H4205 C4225 0.950 . S
H4206 C4227 0.950 . S
H4207 C4230 0.950 . S
H4208 C4231 0.950 . S
H4209 C4233 0.950 . S
H4210 C4234 0.950 . S
H4211 C4235 0.951 . S
H4212 C4237 0.951 . S
H4213 C4239 0.950 . S
H4214 C4240 0.950 . S
H4215 C4242 0.950 . S
H4216 C4245 0.950 . S
H4217 C4246 0.950 . S
H4218 C4248 0.950 . S
H4219 C4249 0.950 . S
C4220 H4202 0.951 . S
C4220 C4221 1.366 . S
C4220 C4222 1.388 . S
C4221 C4220 1.366 . S
C4221 C4225 1.385 . S
C4222 H4203 0.951 . S
C4222 C4220 1.388 . S
C4222 C4223 1.366 . S
C4223 C4222 1.366 . S
C4223 C4224 1.414 . S
C4223 C4226 1.499 . S
C4224 H4204 0.950 . S
C4224 C4223 1.414 . S
C4224 C4225 1.374 . S
C4225 H4205 0.950 . S
C4225 C4221 1.385 . S
C4225 C4224 1.374 . S
C4226 C4223 1.499 . S
C4226 C4227 1.373 . S
C4226 C4228 1.389 . S
C4227 H4206 0.950 . S
C4227 C4226 1.373 . S
C4227 C4243 1.377 . S
C4228 C4226 1.389 . S
C4228 C4229 1.524 . S
C4228 C4242 1.377 . S
C4229 C4228 1.524 . S
C4229 C4230 1.397 . S
C4229 C4234 1.363 . S
C4230 H4207 0.950 . S
C4230 C4229 1.397 . S
C4230 C4231 1.334 . S
C4231 H4208 0.950 . S
C4231 C4230 1.334 . S
C4231 C4232 1.287 . S
C4232 C4231 1.287 . S
C4232 C4233 1.524 . S
C4232 H4251 0.913 . S
C4233 H4209 0.950 . S
C4233 C4232 1.524 . S
C4233 C4234 1.415 . S
C4234 H4210 0.950 . S
C4234 C4229 1.363 . S
C4234 C4233 1.415 . S
C4235 H4211 0.951 . S
C4235 C4236 1.366 . S
C4235 C4237 1.388 . S
C4236 C4235 1.366 . S
C4236 C4240 1.385 . S
C4237 H4212 0.951 . S
C4237 C4235 1.388 . S
C4237 C4238 1.366 . S
C4238 C4237 1.366 . S
C4238 C4239 1.414 . S
C4238 C4241 1.499 . S
C4239 H4213 0.950 . S
C4239 C4238 1.414 . S
C4239 C4240 1.374 . S
C4240 H4214 0.950 . S
C4240 C4236 1.385 . S
C4240 C4239 1.374 . S
C4241 C4238 1.499 . S
C4241 C4242 1.373 . S
C4241 C4243 1.389 . S
C4242 H4215 0.950 . S
C4242 C4228 1.377 . S
C4242 C4241 1.373 . S
C4243 C4227 1.377 . S
C4243 C4241 1.389 . S
C4243 C4244 1.524 . S
C4244 C4243 1.524 . S
C4244 C4245 1.397 . S
C4244 C4249 1.363 . S
C4245 H4216 0.950 . S
C4245 C4244 1.397 . S
C4245 C4246 1.334 . S
C4246 H4217 0.950 . S
C4246 C4245 1.334 . S
C4246 C4247 1.287 . S
C4247 C4246 1.287 . S
C4247 C4248 1.524 . S
C4247 H4250 0.999 . S
C4248 H4218 0.950 . S
C4248 C4247 1.524 . S
C4248 C4249 1.415 . S
C4249 H4219 0.950 . S
C4249 C4244 1.363 . S
C4249 C4248 1.415 . S
H4250 C4247 0.999 . S
H4251 C4232 0.913 . S
H4252 C4270 0.951 . S
H4253 C4272 0.951 . S
H4254 C4274 0.950 . S
H4255 C4275 0.950 . S
H4256 C4277 0.950 . S
H4257 C4280 0.950 . S
H4258 C4281 0.950 . S
H4259 C4283 0.950 . S
H4260 C4284 0.950 . S
H4261 C4285 0.951 . S
H4262 C4287 0.951 . S
H4263 C4289 0.950 . S
H4264 C4290 0.950 . S
H4265 C4292 0.950 . S
H4266 C4295 0.950 . S
H4267 C4296 0.950 . S
H4268 C4298 0.950 . S
H4269 C4299 0.950 . S
C4270 H4252 0.951 . S
C4270 C4271 1.366 . S
C4270 C4272 1.388 . S
C4271 C4270 1.366 . S
C4271 C4275 1.385 . S
C4272 H4253 0.951 . S
C4272 C4270 1.388 . S
C4272 C4273 1.366 . S
C4273 C4272 1.366 . S
C4273 C4274 1.414 . S
C4273 C4276 1.499 . S
C4274 H4254 0.950 . S
C4274 C4273 1.414 . S
C4274 C4275 1.374 . S
C4275 H4255 0.950 . S
C4275 C4271 1.385 . S
C4275 C4274 1.374 . S
C4276 C4273 1.499 . S
C4276 C4277 1.373 . S
C4276 C4278 1.389 . S
C4277 H4256 0.950 . S
C4277 C4276 1.373 . S
C4277 C4293 1.377 . S
C4278 C4276 1.389 . S
C4278 C4279 1.524 . S
C4278 C4292 1.377 . S
C4279 C4278 1.524 . S
C4279 C4280 1.397 . S
C4279 C4284 1.363 . S
C4280 H4257 0.950 . S
C4280 C4279 1.397 . S
C4280 C4281 1.334 . S
C4281 H4258 0.950 . S
C4281 C4280 1.334 . S
C4281 C4282 1.287 . S
C4282 C4281 1.287 . S
C4282 C4283 1.524 . S
C4282 H4301 0.913 . S
C4283 H4259 0.950 . S
C4283 C4282 1.524 . S
C4283 C4284 1.415 . S
C4284 H4260 0.950 . S
C4284 C4279 1.363 . S
C4284 C4283 1.415 . S
C4285 H4261 0.951 . S
C4285 C4286 1.366 . S
C4285 C4287 1.388 . S
C4286 C4285 1.366 . S
C4286 C4290 1.385 . S
C4287 H4262 0.951 . S
C4287 C4285 1.388 . S
C4287 C4288 1.366 . S
C4288 C4287 1.366 . S
C4288 C4289 1.414 . S
C4288 C4291 1.499 . S
C4289 H4263 0.950 . S
C4289 C4288 1.414 . S
C4289 C4290 1.374 . S
C4290 H4264 0.950 . S
C4290 C4286 1.385 . S
C4290 C4289 1.374 . S
C4291 C4288 1.499 . S
C4291 C4292 1.373 . S
C4291 C4293 1.389 . S
C4292 H4265 0.950 . S
C4292 C4278 1.377 . S
C4292 C4291 1.373 . S
C4293 C4277 1.377 . S
C4293 C4291 1.389 . S
C4293 C4294 1.524 . S
C4294 C4293 1.524 . S
C4294 C4295 1.397 . S
C4294 C4299 1.363 . S
C4295 H4266 0.950 . S
C4295 C4294 1.397 . S
C4295 C4296 1.334 . S
C4296 H4267 0.950 . S
C4296 C4295 1.334 . S
C4296 C4297 1.287 . S
C4297 C4296 1.287 . S
C4297 C4298 1.524 . S
C4297 H4300 0.999 . S
C4298 H4268 0.950 . S
C4298 C4297 1.524 . S
C4298 C4299 1.415 . S
C4299 H4269 0.950 . S
C4299 C4294 1.363 . S
C4299 C4298 1.415 . S
H4300 C4297 0.999 . S
H4301 C4282 0.913 . S
H4302 C4320 0.951 . S
H4303 C4322 0.951 . S
H4304 C4324 0.908 1_556 S
H4305 C4325 0.950 1_556 S
H4306 C4327 0.950 . S
H4307 C4330 0.950 . S
H4308 C4331 0.962 . S
H4309 C4333 0.950 . S
H4310 C4334 0.950 . S
H4311 C4335 0.951 . S
H4312 C4337 0.951 . S
H4313 C4339 0.991 . S
H4314 C4340 0.950 . S
H4315 C4342 0.950 1_545 S
H4316 C4345 0.950 . S
H4317 C4346 0.950 . S
H4318 C4348 0.950 . S
H4319 C4349 0.950 . S
C4320 H4302 0.951 . S
C4320 C4321 1.366 . S
C4320 C4322 1.388 . S
C4321 C4320 1.366 . S
C4321 C4325 1.385 . S
C4322 H4303 0.951 . S
C4322 C4320 1.388 . S
C4322 C4323 1.366 . S
C4323 C4322 1.366 . S
C4323 C4324 1.444 . S
C4323 C4326 1.499 . S
C4324 H4304 0.908 1_554 S
C4324 C4323 1.444 . S
C4324 C4325 1.387 . S
C4325 H4305 0.950 1_554 S
C4325 C4321 1.385 . S
C4325 C4324 1.387 . S
C4326 C4323 1.499 . S
C4326 C4327 1.373 1_554 S
C4326 C4328 1.389 . S
C4327 H4306 0.950 . S
C4327 C4326 1.373 1_556 S
C4327 C4343 1.377 . S
C4328 C4326 1.389 . S
C4328 C4329 1.524 . S
C4328 C4342 1.377 . S
C4329 C4328 1.524 . S
C4329 C4330 1.397 . S
C4329 C4334 1.363 . S
C4330 H4307 0.950 . S
C4330 C4329 1.397 . S
C4330 C4331 1.329 1_565 S
C4331 H4308 0.962 . S
C4331 C4330 1.329 1_545 S
C4331 C4332 1.287 . S
C4332 C4331 1.287 . S
C4332 C4333 1.512 1_545 S
C4332 H4351 0.917 . S
C4333 H4309 0.950 . S
C4333 C4332 1.512 1_565 S
C4333 C4334 1.415 . S
C4334 H4310 0.950 . S
C4334 C4329 1.363 . S
C4334 C4333 1.415 . S
C4335 H4311 0.951 . S
C4335 C4336 1.366 1_556 S
C4335 C4337 1.388 . S
C4336 C4335 1.366 1_554 S
C4336 C4340 1.385 . S
C4337 H4312 0.951 . S
C4337 C4335 1.388 . S
C4337 C4338 1.366 1_556 S
C4338 C4337 1.366 1_554 S
C4338 C4339 1.414 . S
C4338 C4341 1.499 1_545 S
C4339 H4313 0.991 . S
C4339 C4338 1.414 . S
C4339 C4340 1.374 . S
C4340 H4314 0.950 . S
C4340 C4336 1.385 . S
C4340 C4339 1.374 . S
C4341 C4338 1.499 1_565 S
C4341 C4342 1.373 . S
C4341 C4343 1.389 1_554 S
C4342 H4315 0.950 1_565 S
C4342 C4328 1.377 . S
C4342 C4341 1.373 . S
C4343 C4327 1.377 . S
C4343 C4341 1.389 1_556 S
C4343 C4344 1.524 . S
C4344 C4343 1.524 . S
C4344 C4345 1.397 . S
C4344 C4349 1.363 . S
C4345 H4316 0.950 . S
C4345 C4344 1.397 . S
C4345 C4346 1.334 . S
C4346 H4317 0.950 . S
C4346 C4345 1.334 . S
C4346 C4347 1.287 . S
C4347 C4346 1.287 . S
C4347 C4348 1.524 . S
C4347 H4350 0.999 . S
C4348 H4318 0.950 . S
C4348 C4347 1.524 . S
C4348 C4349 1.415 . S
C4349 H4319 0.950 . S
C4349 C4344 1.363 . S
C4349 C4348 1.415 . S
H4350 C4347 0.999 . S
H4351 C4332 0.917 . S
H4352 C4370 0.951 . S
H4353 C4372 0.951 . S
H4354 C4374 0.950 . S
H4355 C4375 0.950 . S
H4356 C4377 0.950 . S
H4357 C4380 0.950 . S
H4358 C4381 0.950 . S
H4359 C4383 0.950 . S
H4360 C4384 0.950 . S
H4361 C4385 0.951 . S
H4362 C4387 0.951 . S
H4363 C4389 0.950 . S
H4364 C4390 0.950 . S
H4365 C4392 0.950 . S
H4366 C4395 0.950 . S
H4367 C4396 0.950 . S
H4368 C4398 0.950 . S
H4369 C4399 0.950 . S
C4370 H4352 0.951 . S
C4370 C4371 1.366 . S
C4370 C4372 1.388 . S
C4371 C4370 1.366 . S
C4371 C4375 1.385 . S
C4372 H4353 0.951 . S
C4372 C4370 1.388 . S
C4372 C4373 1.366 . S
C4373 C4372 1.366 . S
C4373 C4374 1.414 . S
C4373 C4376 1.499 . S
C4374 H4354 0.950 . S
C4374 C4373 1.414 . S
C4374 C4375 1.374 . S
C4375 H4355 0.950 . S
C4375 C4371 1.385 . S
C4375 C4374 1.374 . S
C4376 C4373 1.499 . S
C4376 C4377 1.373 . S
C4376 C4378 1.389 . S
C4377 H4356 0.950 . S
C4377 C4376 1.373 . S
C4377 C4393 1.377 . S
C4378 C4376 1.389 . S
C4378 C4379 1.524 . S
C4378 C4392 1.377 . S
C4379 C4378 1.524 . S
C4379 C4380 1.397 . S
C4379 C4384 1.363 . S
C4380 H4357 0.950 . S
C4380 C4379 1.397 . S
C4380 C4381 1.334 . S
C4381 H4358 0.950 . S
C4381 C4380 1.334 . S
C4381 C4382 1.287 . S
C4382 C4381 1.287 . S
C4382 C4383 1.524 . S
C4382 H4401 0.913 . S
C4383 H4359 0.950 . S
C4383 C4382 1.524 . S
C4383 C4384 1.415 . S
C4384 H4360 0.950 . S
C4384 C4379 1.363 . S
C4384 C4383 1.415 . S
C4385 H4361 0.951 . S
C4385 C4386 1.366 . S
C4385 C4387 1.388 . S
C4386 C4385 1.366 . S
C4386 C4390 1.385 . S
C4387 H4362 0.951 . S
C4387 C4385 1.388 . S
C4387 C4388 1.366 . S
C4388 C4387 1.366 . S
C4388 C4389 1.414 . S
C4388 C4391 1.499 . S
C4389 H4363 0.950 . S
C4389 C4388 1.414 . S
C4389 C4390 1.374 . S
C4390 H4364 0.950 . S
C4390 C4386 1.385 . S
C4390 C4389 1.374 . S
C4391 C4388 1.499 . S
C4391 C4392 1.373 . S
C4391 C4393 1.389 . S
C4392 H4365 0.950 . S
C4392 C4378 1.377 . S
C4392 C4391 1.373 . S
C4393 C4377 1.377 . S
C4393 C4391 1.389 . S
C4393 C4394 1.524 . S
C4394 C4393 1.524 . S
C4394 C4395 1.397 . S
C4394 C4399 1.363 . S
C4395 H4366 0.950 . S
C4395 C4394 1.397 . S
C4395 C4396 1.334 . S
C4396 H4367 0.950 . S
C4396 C4395 1.334 . S
C4396 C4397 1.287 . S
C4397 C4396 1.287 . S
C4397 C4398 1.524 . S
C4397 H4400 0.999 . S
C4398 H4368 0.950 . S
C4398 C4397 1.524 . S
C4398 C4399 1.415 . S
C4399 H4369 0.950 . S
C4399 C4394 1.363 . S
C4399 C4398 1.415 . S
H4400 C4397 0.999 . S
H4401 C4382 0.913 . S
H4402 C4420 0.951 1_556 S
H4403 C4422 0.968 . S
H4404 C4424 0.950 . S
H4405 C4425 0.950 . S
H4406 C4427 0.950 . S
H4407 C4430 0.950 . S
H4408 C4431 0.950 . S
H4409 C4433 0.950 1_556 S
H4410 C4434 0.959 . S
H4411 C4435 0.951 . S
H4412 C4437 0.951 . S
H4413 C4439 0.950 . S
H4414 C4440 0.950 . S
H4415 C4442 0.950 . S
H4416 C4445 0.950 . S
H4417 C4446 0.950 . S
H4418 C4448 0.950 . S
H4419 C4449 0.950 . S
C4420 H4402 0.951 1_554 S
C4420 C4421 1.366 . S
C4420 C4422 1.388 . S
C4421 C4420 1.366 . S
C4421 C4425 1.385 . S
C4422 H4403 0.968 . S
C4422 C4420 1.388 . S
C4422 C4423 1.366 . S
C4423 C4422 1.366 . S
C4423 C4424 1.414 . S
C4423 C4426 1.499 . S
C4424 H4404 0.950 . S
C4424 C4423 1.414 . S
C4424 C4425 1.374 . S
C4425 H4405 0.950 . S
C4425 C4421 1.385 . S
C4425 C4424 1.374 . S
C4426 C4423 1.499 . S
C4426 C4427 1.373 . S
C4426 C4428 1.389 . S
C4427 H4406 0.950 . S
C4427 C4426 1.373 . S
C4427 C4443 1.377 . S
C4428 C4426 1.389 . S
C4428 C4429 1.524 . S
C4428 C4442 1.377 . S
C4429 C4428 1.524 . S
C4429 C4430 1.397 . S
C4429 C4434 1.363 . S
C4430 H4407 0.950 . S
C4430 C4429 1.397 . S
C4430 C4431 1.334 . S
C4431 H4408 0.950 . S
C4431 C4430 1.334 . S
C4431 C4432 1.287 . S
C4432 C4431 1.287 . S
C4432 C4433 1.524 . S
C4432 H4451 0.913 . S
C4433 H4409 0.950 1_554 S
C4433 C4432 1.524 . S
C4433 C4434 1.415 . S
C4434 H4410 0.959 . S
C4434 C4429 1.363 . S
C4434 C4433 1.415 . S
C4435 H4411 0.951 . S
C4435 C4436 1.366 . S
C4435 C4437 1.388 . S
C4436 C4435 1.366 . S
C4436 C4440 1.385 . S
C4437 H4412 0.951 . S
C4437 C4435 1.388 . S
C4437 C4438 1.366 . S
C4438 C4437 1.366 . S
C4438 C4439 1.414 . S
C4438 C4441 1.499 . S
C4439 H4413 0.950 . S
C4439 C4438 1.414 . S
C4439 C4440 1.374 . S
C4440 H4414 0.950 . S
C4440 C4436 1.385 . S
C4440 C4439 1.374 . S
C4441 C4438 1.499 . S
C4441 C4442 1.373 . S
C4441 C4443 1.389 . S
C4442 H4415 0.950 . S
C4442 C4428 1.377 . S
C4442 C4441 1.373 . S
C4443 C4427 1.377 . S
C4443 C4441 1.389 . S
C4443 C4444 1.524 . S
C4444 C4443 1.524 . S
C4444 C4445 1.397 . S
C4444 C4449 1.363 . S
C4445 H4416 0.950 . S
C4445 C4444 1.397 . S
C4445 C4446 1.334 . S
C4446 H4417 0.950 . S
C4446 C4445 1.334 . S
C4446 C4447 1.287 . S
C4447 C4446 1.287 . S
C4447 C4448 1.524 . S
C4447 H4450 0.999 . S
C4448 H4418 0.950 . S
C4448 C4447 1.524 . S
C4448 C4449 1.415 . S
C4449 H4419 0.950 . S
C4449 C4444 1.363 . S
C4449 C4448 1.415 . S
H4450 C4447 0.999 . S
H4451 C4432 0.913 . S
H4452 C4470 0.951 . S
H4453 C4472 0.951 . S
H4454 C4474 0.950 . S
H4455 C4475 0.950 . S
H4456 C4477 0.950 . S
H4457 C4480 0.950 . S
H4458 C4481 0.950 . S
H4459 C4483 0.950 . S
H4460 C4484 0.950 . S
H4461 C4485 0.951 . S
H4462 C4487 0.951 . S
H4463 C4489 0.950 . S
H4464 C4490 0.950 . S
H4465 C4492 0.950 . S
H4466 C4495 0.950 . S
H4467 C4496 0.950 . S
H4468 C4498 0.950 . S
H4469 C4499 0.950 . S
C4470 H4452 0.951 . S
C4470 C4471 1.366 . S
C4470 C4472 1.388 . S
C4471 C4470 1.366 . S
C4471 C4475 1.385 . S
C4472 H4453 0.951 . S
C4472 C4470 1.388 . S
C4472 C4473 1.366 . S
C4473 C4472 1.366 . S
C4473 C4474 1.414 . S
C4473 C4476 1.499 . S
C4474 H4454 0.950 . S
C4474 C4473 1.414 . S
C4474 C4475 1.374 . S
C4475 H4455 0.950 . S
C4475 C4471 1.385 . S
C4475 C4474 1.374 . S
C4476 C4473 1.499 . S
C4476 C4477 1.373 . S
C4476 C4478 1.389 . S
C4477 H4456 0.950 . S
C4477 C4476 1.373 . S
C4477 C4493 1.377 . S
C4478 C4476 1.389 . S
C4478 C4479 1.524 . S
C4478 C4492 1.377 . S
C4479 C4478 1.524 . S
C4479 C4480 1.397 . S
C4479 C4484 1.363 . S
C4480 H4457 0.950 . S
C4480 C4479 1.397 . S
C4480 C4481 1.334 . S
C4481 H4458 0.950 . S
C4481 C4480 1.334 . S
C4481 C4482 1.287 . S
C4482 C4481 1.287 . S
C4482 C4483 1.524 . S
C4482 H4501 0.913 . S
C4483 H4459 0.950 . S
C4483 C4482 1.524 . S
C4483 C4484 1.415 . S
C4484 H4460 0.950 . S
C4484 C4479 1.363 . S
C4484 C4483 1.415 . S
C4485 H4461 0.951 . S
C4485 C4486 1.366 . S
C4485 C4487 1.388 . S
C4486 C4485 1.366 . S
C4486 C4490 1.385 . S
C4487 H4462 0.951 . S
C4487 C4485 1.388 . S
C4487 C4488 1.366 . S
C4488 C4487 1.366 . S
C4488 C4489 1.414 . S
C4488 C4491 1.499 . S
C4489 H4463 0.950 . S
C4489 C4488 1.414 . S
C4489 C4490 1.374 . S
C4490 H4464 0.950 . S
C4490 C4486 1.385 . S
C4490 C4489 1.374 . S
C4491 C4488 1.499 . S
C4491 C4492 1.373 . S
C4491 C4493 1.389 . S
C4492 H4465 0.950 . S
C4492 C4478 1.377 . S
C4492 C4491 1.373 . S
C4493 C4477 1.377 . S
C4493 C4491 1.389 . S
C4493 C4494 1.524 . S
C4494 C4493 1.524 . S
C4494 C4495 1.397 . S
C4494 C4499 1.363 . S
C4495 H4466 0.950 . S
C4495 C4494 1.397 . S
C4495 C4496 1.334 . S
C4496 H4467 0.950 . S
C4496 C4495 1.334 . S
C4496 C4497 1.287 . S
C4497 C4496 1.287 . S
C4497 C4498 1.524 . S
C4497 H4500 0.999 . S
C4498 H4468 0.950 . S
C4498 C4497 1.524 . S
C4498 C4499 1.415 . S
C4499 H4469 0.950 . S
C4499 C4494 1.363 . S
C4499 C4498 1.415 . S
H4500 C4497 0.999 . S
H4501 C4482 0.913 . S
H4502 C4520 0.951 . S
H4503 C4522 0.951 . S
H4504 C4524 0.950 . S
H4505 C4525 0.950 . S
H4506 C4527 0.950 . S
H4507 C4530 0.950 . S
H4508 C4531 0.950 . S
H4509 C4533 0.950 . S
H4510 C4534 0.950 . S
H4511 C4535 0.951 . S
H4512 C4537 0.951 . S
H4513 C4539 0.950 . S
H4514 C4540 0.950 . S
H4515 C4542 0.950 . S
H4516 C4545 0.950 . S
H4517 C4546 0.950 . S
H4518 C4548 0.950 . S
H4519 C4549 0.950 . S
C4520 H4502 0.951 . S
C4520 C4521 1.366 . S
C4520 C4522 1.388 . S
C4521 C4520 1.366 . S
C4521 C4525 1.385 . S
C4522 H4503 0.951 . S
C4522 C4520 1.388 . S
C4522 C4523 1.366 . S
C4523 C4522 1.366 . S
C4523 C4524 1.414 . S
C4523 C4526 1.499 . S
C4524 H4504 0.950 . S
C4524 C4523 1.414 . S
C4524 C4525 1.374 . S
C4525 H4505 0.950 . S
C4525 C4521 1.385 . S
C4525 C4524 1.374 . S
C4526 C4523 1.499 . S
C4526 C4527 1.373 . S
C4526 C4528 1.389 . S
C4527 H4506 0.950 . S
C4527 C4526 1.373 . S
C4527 C4543 1.377 . S
C4528 C4526 1.389 . S
C4528 C4529 1.524 . S
C4528 C4542 1.377 . S
C4529 C4528 1.524 . S
C4529 C4530 1.397 . S
C4529 C4534 1.363 . S
C4530 H4507 0.950 . S
C4530 C4529 1.397 . S
C4530 C4531 1.334 . S
C4531 H4508 0.950 . S
C4531 C4530 1.334 . S
C4531 C4532 1.287 . S
C4532 C4531 1.287 . S
C4532 C4533 1.524 . S
C4532 H4551 0.913 . S
C4533 H4509 0.950 . S
C4533 C4532 1.524 . S
C4533 C4534 1.415 . S
C4534 H4510 0.950 . S
C4534 C4529 1.363 . S
C4534 C4533 1.415 . S
C4535 H4511 0.951 . S
C4535 C4536 1.366 . S
C4535 C4537 1.388 . S
C4536 C4535 1.366 . S
C4536 C4540 1.385 . S
C4537 H4512 0.951 . S
C4537 C4535 1.388 . S
C4537 C4538 1.366 . S
C4538 C4537 1.366 . S
C4538 C4539 1.414 . S
C4538 C4541 1.499 . S
C4539 H4513 0.950 . S
C4539 C4538 1.414 . S
C4539 C4540 1.374 . S
C4540 H4514 0.950 . S
C4540 C4536 1.385 . S
C4540 C4539 1.374 . S
C4541 C4538 1.499 . S
C4541 C4542 1.373 . S
C4541 C4543 1.389 . S
C4542 H4515 0.950 . S
C4542 C4528 1.377 . S
C4542 C4541 1.373 . S
C4543 C4527 1.377 . S
C4543 C4541 1.389 . S
C4543 C4544 1.524 . S
C4544 C4543 1.524 . S
C4544 C4545 1.397 . S
C4544 C4549 1.363 . S
C4545 H4516 0.950 . S
C4545 C4544 1.397 . S
C4545 C4546 1.334 . S
C4546 H4517 0.950 . S
C4546 C4545 1.334 . S
C4546 C4547 1.287 . S
C4547 C4546 1.287 . S
C4547 C4548 1.524 . S
C4547 H4550 0.999 . S
C4548 H4518 0.950 . S
C4548 C4547 1.524 . S
C4548 C4549 1.415 . S
C4549 H4519 0.950 . S
C4549 C4544 1.363 . S
C4549 C4548 1.415 . S
H4550 C4547 0.999 . S
H4551 C4532 0.913 . S
H4552 C4570 0.951 . S
H4553 C4572 0.951 . S
H4554 C4574 0.950 . S
H4555 C4575 0.950 . S
H4556 C4577 0.950 . S
H4557 C4580 0.950 . S
H4558 C4581 0.950 . S
H4559 C4583 0.950 . S
H4560 C4584 0.950 . S
H4561 C4585 0.951 . S
H4562 C4587 0.951 . S
H4563 C4589 0.950 . S
H4564 C4590 0.950 . S
H4565 C4592 0.950 . S
H4566 C4595 0.950 . S
H4567 C4596 0.950 . S
H4568 C4598 0.950 . S
H4569 C4599 0.950 . S
C4570 H4552 0.951 . S
C4570 C4571 1.366 . S
C4570 C4572 1.388 . S
C4571 C4570 1.366 . S
C4571 C4575 1.385 . S
C4572 H4553 0.951 . S
C4572 C4570 1.388 . S
C4572 C4573 1.366 . S
C4573 C4572 1.366 . S
C4573 C4574 1.414 . S
C4573 C4576 1.499 . S
C4574 H4554 0.950 . S
C4574 C4573 1.414 . S
C4574 C4575 1.374 . S
C4575 H4555 0.950 . S
C4575 C4571 1.385 . S
C4575 C4574 1.374 . S
C4576 C4573 1.499 . S
C4576 C4577 1.373 . S
C4576 C4578 1.389 . S
C4577 H4556 0.950 . S
C4577 C4576 1.373 . S
C4577 C4593 1.377 . S
C4578 C4576 1.389 . S
C4578 C4579 1.524 . S
C4578 C4592 1.377 . S
C4579 C4578 1.524 . S
C4579 C4580 1.397 . S
C4579 C4584 1.363 . S
C4580 H4557 0.950 . S
C4580 C4579 1.397 . S
C4580 C4581 1.334 . S
C4581 H4558 0.950 . S
C4581 C4580 1.334 . S
C4581 C4582 1.287 . S
C4582 C4581 1.287 . S
C4582 C4583 1.524 . S
C4582 H4601 0.913 . S
C4583 H4559 0.950 . S
C4583 C4582 1.524 . S
C4583 C4584 1.415 . S
C4584 H4560 0.950 . S
C4584 C4579 1.363 . S
C4584 C4583 1.415 . S
C4585 H4561 0.951 . S
C4585 C4586 1.366 . S
C4585 C4587 1.388 . S
C4586 C4585 1.366 . S
C4586 C4590 1.385 . S
C4587 H4562 0.951 . S
C4587 C4585 1.388 . S
C4587 C4588 1.366 . S
C4588 C4587 1.366 . S
C4588 C4589 1.414 . S
C4588 C4591 1.499 . S
C4589 H4563 0.950 . S
C4589 C4588 1.414 . S
C4589 C4590 1.374 . S
C4590 H4564 0.950 . S
C4590 C4586 1.385 . S
C4590 C4589 1.374 . S
C4591 C4588 1.499 . S
C4591 C4592 1.373 . S
C4591 C4593 1.389 . S
C4592 H4565 0.950 . S
C4592 C4578 1.377 . S
C4592 C4591 1.373 . S
C4593 C4577 1.377 . S
C4593 C4591 1.389 . S
C4593 C4594 1.524 . S
C4594 C4593 1.524 . S
C4594 C4595 1.397 . S
C4594 C4599 1.363 . S
C4595 H4566 0.950 . S
C4595 C4594 1.397 . S
C4595 C4596 1.334 . S
C4596 H4567 0.950 . S
C4596 C4595 1.334 . S
C4596 C4597 1.287 . S
C4597 C4596 1.287 . S
C4597 C4598 1.524 . S
C4597 H4600 0.999 . S
C4598 H4568 0.950 . S
C4598 C4597 1.524 . S
C4598 C4599 1.415 . S
C4599 H4569 0.950 . S
C4599 C4594 1.363 . S
C4599 C4598 1.415 . S
H4600 C4597 0.999 . S
H4601 C4582 0.913 . S
H4602 C4620 0.951 . S
H4603 C4622 0.951 . S
H4604 C4624 0.950 . S
H4605 C4625 0.950 . S
H4606 C4627 0.950 . S
H4607 C4630 0.950 . S
H4608 C4631 0.950 . S
H4609 C4633 0.950 . S
H4610 C4634 0.950 . S
H4611 C4635 0.951 . S
H4612 C4637 0.951 . S
H4613 C4639 0.950 . S
H4614 C4640 0.950 . S
H4615 C4642 0.950 . S
H4616 C4645 0.950 . S
H4617 C4646 0.950 . S
H4618 C4648 0.950 . S
H4619 C4649 0.950 . S
C4620 H4602 0.951 . S
C4620 C4621 1.366 . S
C4620 C4622 1.388 . S
C4621 C4620 1.366 . S
C4621 C4625 1.385 . S
C4622 H4603 0.951 . S
C4622 C4620 1.388 . S
C4622 C4623 1.366 . S
C4623 C4622 1.366 . S
C4623 C4624 1.414 . S
C4623 C4626 1.499 . S
C4624 H4604 0.950 . S
C4624 C4623 1.414 . S
C4624 C4625 1.374 . S
C4625 H4605 0.950 . S
C4625 C4621 1.385 . S
C4625 C4624 1.374 . S
C4626 C4623 1.499 . S
C4626 C4627 1.373 . S
C4626 C4628 1.389 . S
C4627 H4606 0.950 . S
C4627 C4626 1.373 . S
C4627 C4643 1.377 . S
C4628 C4626 1.389 . S
C4628 C4629 1.524 . S
C4628 C4642 1.377 . S
C4629 C4628 1.524 . S
C4629 C4630 1.397 . S
C4629 C4634 1.363 . S
C4630 H4607 0.950 . S
C4630 C4629 1.397 . S
C4630 C4631 1.334 . S
C4631 H4608 0.950 . S
C4631 C4630 1.334 . S
C4631 C4632 1.287 . S
C4632 C4631 1.287 . S
C4632 C4633 1.524 . S
C4632 H4651 0.913 . S
C4633 H4609 0.950 . S
C4633 C4632 1.524 . S
C4633 C4634 1.415 . S
C4634 H4610 0.950 . S
C4634 C4629 1.363 . S
C4634 C4633 1.415 . S
C4635 H4611 0.951 . S
C4635 C4636 1.366 . S
C4635 C4637 1.388 . S
C4636 C4635 1.366 . S
C4636 C4640 1.385 . S
C4637 H4612 0.951 . S
C4637 C4635 1.388 . S
C4637 C4638 1.366 . S
C4638 C4637 1.366 . S
C4638 C4639 1.414 . S
C4638 C4641 1.499 . S
C4639 H4613 0.950 . S
C4639 C4638 1.414 . S
C4639 C4640 1.374 . S
C4640 H4614 0.950 . S
C4640 C4636 1.385 . S
C4640 C4639 1.374 . S
C4641 C4638 1.499 . S
C4641 C4642 1.373 . S
C4641 C4643 1.389 . S
C4642 H4615 0.950 . S
C4642 C4628 1.377 . S
C4642 C4641 1.373 . S
C4643 C4627 1.377 . S
C4643 C4641 1.389 . S
C4643 C4644 1.524 . S
C4644 C4643 1.524 . S
C4644 C4645 1.397 . S
C4644 C4649 1.363 . S
C4645 H4616 0.950 . S
C4645 C4644 1.397 . S
C4645 C4646 1.334 . S
C4646 H4617 0.950 . S
C4646 C4645 1.334 . S
C4646 C4647 1.287 . S
C4647 C4646 1.287 . S
C4647 C4648 1.524 . S
C4647 H4650 0.999 . S
C4648 H4618 0.950 . S
C4648 C4647 1.524 . S
C4648 C4649 1.415 . S
C4649 H4619 0.950 . S
C4649 C4644 1.363 . S
C4649 C4648 1.415 . S
H4650 C4647 0.999 . S
H4651 C4632 0.913 . S
H4652 C4670 0.951 . S
H4653 C4672 0.951 . S
H4654 C4674 0.950 . S
H4655 C4675 0.950 . S
H4656 C4677 0.950 . S
H4657 C4680 0.950 . S
H4658 C4681 0.950 . S
H4659 C4683 0.950 . S
H4660 C4684 0.950 . S
H4661 C4685 0.951 . S
H4662 C4687 0.951 . S
H4663 C4689 0.950 . S
H4664 C4690 0.950 . S
H4665 C4692 0.950 . S
H4666 C4695 0.950 1_455 S
H4667 C4696 0.950 . S
H4668 C4698 0.950 . S
H4669 C4699 0.950 1_455 S
C4670 H4652 0.951 . S
C4670 C4671 1.366 . S
C4670 C4672 1.388 . S
C4671 C4670 1.366 . S
C4671 C4675 1.385 . S
C4672 H4653 0.951 . S
C4672 C4670 1.388 . S
C4672 C4673 1.366 . S
C4673 C4672 1.366 . S
C4673 C4674 1.414 . S
C4673 C4676 1.499 . S
C4674 H4654 0.950 . S
C4674 C4673 1.414 . S
C4674 C4675 1.374 . S
C4675 H4655 0.950 . S
C4675 C4671 1.385 . S
C4675 C4674 1.374 . S
C4676 C4673 1.499 . S
C4676 C4677 1.373 . S
C4676 C4678 1.389 . S
C4677 H4656 0.950 . S
C4677 C4676 1.373 . S
C4677 C4693 1.377 . S
C4678 C4676 1.389 . S
C4678 C4679 1.524 . S
C4678 C4692 1.377 . S
C4679 C4678 1.524 . S
C4679 C4680 1.397 . S
C4679 C4684 1.363 . S
C4680 H4657 0.950 . S
C4680 C4679 1.397 . S
C4680 C4681 1.334 . S
C4681 H4658 0.950 . S
C4681 C4680 1.334 . S
C4681 C4682 1.287 . S
C4682 C4681 1.287 . S
C4682 C4683 1.524 . S
C4682 H4701 0.913 . S
C4683 H4659 0.950 . S
C4683 C4682 1.524 . S
C4683 C4684 1.415 . S
C4684 H4660 0.950 . S
C4684 C4679 1.363 . S
C4684 C4683 1.415 . S
C4685 H4661 0.951 . S
C4685 C4686 1.366 . S
C4685 C4687 1.388 . S
C4686 C4685 1.366 . S
C4686 C4690 1.385 . S
C4687 H4662 0.951 . S
C4687 C4685 1.388 . S
C4687 C4688 1.366 . S
C4688 C4687 1.366 . S
C4688 C4689 1.414 . S
C4688 C4691 1.499 . S
C4689 H4663 0.950 . S
C4689 C4688 1.414 . S
C4689 C4690 1.374 . S
C4690 H4664 0.950 . S
C4690 C4686 1.385 . S
C4690 C4689 1.374 . S
C4691 C4688 1.499 . S
C4691 C4692 1.373 . S
C4691 C4693 1.389 . S
C4692 H4665 0.950 . S
C4692 C4678 1.377 . S
C4692 C4691 1.373 . S
C4693 C4677 1.377 . S
C4693 C4691 1.389 . S
C4693 C4694 1.524 . S
C4694 C4693 1.524 . S
C4694 C4695 1.397 1_455 S
C4694 C4699 1.363 1_455 S
C4695 H4666 0.950 1_655 S
C4695 C4694 1.397 1_655 S
C4695 C4696 1.334 . S
C4696 H4667 0.950 . S
C4696 C4695 1.334 . S
C4696 C4697 1.287 . S
C4697 C4696 1.287 . S
C4697 C4698 1.524 . S
C4697 H4700 0.999 . S
C4698 H4668 0.950 . S
C4698 C4697 1.524 . S
C4698 C4699 1.415 . S
C4699 H4669 0.950 1_655 S
C4699 C4694 1.363 1_655 S
C4699 C4698 1.415 . S
H4700 C4697 0.999 . S
H4701 C4682 0.913 . S
H4702 C4720 0.951 . S
H4703 C4722 0.951 . S
H4704 C4724 0.950 . S
H4705 C4725 0.950 . S
H4706 C4727 0.950 . S
H4707 C4730 0.950 . S
H4708 C4731 0.950 . S
H4709 C4733 0.950 . S
H4710 C4734 0.950 . S
H4711 C4735 0.951 . S
H4712 C4737 0.951 . S
H4713 C4739 0.950 . S
H4714 C4740 0.950 . S
H4715 C4742 0.950 . S
H4716 C4745 0.950 . S
H4717 C4746 0.950 . S
H4718 C4748 0.950 . S
H4719 C4749 0.950 . S
C4720 H4702 0.951 . S
C4720 C4721 1.366 . S
C4720 C4722 1.388 . S
C4721 C4720 1.366 . S
C4721 C4725 1.385 . S
C4722 H4703 0.951 . S
C4722 C4720 1.388 . S
C4722 C4723 1.366 . S
C4723 C4722 1.366 . S
C4723 C4724 1.414 . S
C4723 C4726 1.499 . S
C4724 H4704 0.950 . S
C4724 C4723 1.414 . S
C4724 C4725 1.374 . S
C4725 H4705 0.950 . S
C4725 C4721 1.385 . S
C4725 C4724 1.374 . S
C4726 C4723 1.499 . S
C4726 C4727 1.373 . S
C4726 C4728 1.389 . S
C4727 H4706 0.950 . S
C4727 C4726 1.373 . S
C4727 C4743 1.377 . S
C4728 C4726 1.389 . S
C4728 C4729 1.524 . S
C4728 C4742 1.377 . S
C4729 C4728 1.524 . S
C4729 C4730 1.397 . S
C4729 C4734 1.363 . S
C4730 H4707 0.950 . S
C4730 C4729 1.397 . S
C4730 C4731 1.334 . S
C4731 H4708 0.950 . S
C4731 C4730 1.334 . S
C4731 C4732 1.287 . S
C4732 C4731 1.287 . S
C4732 C4733 1.524 . S
C4732 H4751 0.913 . S
C4733 H4709 0.950 . S
C4733 C4732 1.524 . S
C4733 C4734 1.415 . S
C4734 H4710 0.950 . S
C4734 C4729 1.363 . S
C4734 C4733 1.415 . S
C4735 H4711 0.951 . S
C4735 C4736 1.366 . S
C4735 C4737 1.388 . S
C4736 C4735 1.366 . S
C4736 C4740 1.385 . S
C4737 H4712 0.951 . S
C4737 C4735 1.388 . S
C4737 C4738 1.366 . S
C4738 C4737 1.366 . S
C4738 C4739 1.414 . S
C4738 C4741 1.499 . S
C4739 H4713 0.950 . S
C4739 C4738 1.414 . S
C4739 C4740 1.374 . S
C4740 H4714 0.950 . S
C4740 C4736 1.385 . S
C4740 C4739 1.374 . S
C4741 C4738 1.499 . S
C4741 C4742 1.373 . S
C4741 C4743 1.389 . S
C4742 H4715 0.950 . S
C4742 C4728 1.377 . S
C4742 C4741 1.373 . S
C4743 C4727 1.377 . S
C4743 C4741 1.389 . S
C4743 C4744 1.524 . S
C4744 C4743 1.524 . S
C4744 C4745 1.397 . S
C4744 C4749 1.363 . S
C4745 H4716 0.950 . S
C4745 C4744 1.397 . S
C4745 C4746 1.334 . S
C4746 H4717 0.950 . S
C4746 C4745 1.334 . S
C4746 C4747 1.287 . S
C4747 C4746 1.287 . S
C4747 C4748 1.524 . S
C4747 H4750 0.999 . S
C4748 H4718 0.950 . S
C4748 C4747 1.524 . S
C4748 C4749 1.415 . S
C4749 H4719 0.950 . S
C4749 C4744 1.363 . S
C4749 C4748 1.415 . S
H4750 C4747 0.999 . S
H4751 C4732 0.913 . S
H4752 C4770 0.951 . S
H4753 C4772 0.951 . S
H4754 C4774 0.950 . S
H4755 C4775 0.950 . S
H4756 C4777 0.950 . S
H4757 C4780 0.950 . S
H4758 C4781 0.950 . S
H4759 C4783 0.950 . S
H4760 C4784 0.950 . S
H4761 C4785 0.951 . S
H4762 C4787 0.951 . S
H4763 C4789 0.950 . S
H4764 C4790 0.950 . S
H4765 C4792 0.950 . S
H4766 C4795 0.950 . S
H4767 C4796 0.950 . S
H4768 C4798 0.950 . S
H4769 C4799 0.950 . S
C4770 H4752 0.951 . S
C4770 C4771 1.366 . S
C4770 C4772 1.388 . S
C4771 C4770 1.366 . S
C4771 C4775 1.385 . S
C4772 H4753 0.951 . S
C4772 C4770 1.388 . S
C4772 C4773 1.366 . S
C4773 C4772 1.366 . S
C4773 C4774 1.414 . S
C4773 C4776 1.499 . S
C4774 H4754 0.950 . S
C4774 C4773 1.414 . S
C4774 C4775 1.374 . S
C4775 H4755 0.950 . S
C4775 C4771 1.385 . S
C4775 C4774 1.374 . S
C4776 C4773 1.499 . S
C4776 C4777 1.373 . S
C4776 C4778 1.389 . S
C4777 H4756 0.950 . S
C4777 C4776 1.373 . S
C4777 C4793 1.377 . S
C4778 C4776 1.389 . S
C4778 C4779 1.524 . S
C4778 C4792 1.377 . S
C4779 C4778 1.524 . S
C4779 C4780 1.397 . S
C4779 C4784 1.363 . S
C4780 H4757 0.950 . S
C4780 C4779 1.397 . S
C4780 C4781 1.334 . S
C4781 H4758 0.950 . S
C4781 C4780 1.334 . S
C4781 C4782 1.287 . S
C4782 C4781 1.287 . S
C4782 C4783 1.524 . S
C4782 H4801 0.913 . S
C4783 H4759 0.950 . S
C4783 C4782 1.524 . S
C4783 C4784 1.415 . S
C4784 H4760 0.950 . S
C4784 C4779 1.363 . S
C4784 C4783 1.415 . S
C4785 H4761 0.951 . S
C4785 C4786 1.366 . S
C4785 C4787 1.388 . S
C4786 C4785 1.366 . S
C4786 C4790 1.385 . S
C4787 H4762 0.951 . S
C4787 C4785 1.388 . S
C4787 C4788 1.366 . S
C4788 C4787 1.366 . S
C4788 C4789 1.414 . S
C4788 C4791 1.499 . S
C4789 H4763 0.950 . S
C4789 C4788 1.414 . S
C4789 C4790 1.374 . S
C4790 H4764 0.950 . S
C4790 C4786 1.385 . S
C4790 C4789 1.374 . S
C4791 C4788 1.499 . S
C4791 C4792 1.373 . S
C4791 C4793 1.389 . S
C4792 H4765 0.950 . S
C4792 C4778 1.377 . S
C4792 C4791 1.373 . S
C4793 C4777 1.377 . S
C4793 C4791 1.389 . S
C4793 C4794 1.524 . S
C4794 C4793 1.524 . S
C4794 C4795 1.397 . S
C4794 C4799 1.363 . S
C4795 H4766 0.950 . S
C4795 C4794 1.397 . S
C4795 C4796 1.334 . S
C4796 H4767 0.950 . S
C4796 C4795 1.334 . S
C4796 C4797 1.287 . S
C4797 C4796 1.287 . S
C4797 C4798 1.524 . S
C4797 H4800 0.999 . S
C4798 H4768 0.950 . S
C4798 C4797 1.524 . S
C4798 C4799 1.415 . S
C4799 H4769 0.950 . S
C4799 C4794 1.363 . S
C4799 C4798 1.415 . S
H4800 C4797 0.999 . S
H4801 C4782 0.913 . S
H4802 C4820 0.951 . S
H4803 C4822 0.951 . S
H4804 C4824 0.950 . S
H4805 C4825 0.950 . S
H4806 C4827 0.950 . S
H4807 C4830 0.950 . S
H4808 C4831 0.950 . S
H4809 C4833 0.950 . S
H4810 C4834 0.950 . S
H4811 C4835 0.951 . S
H4812 C4837 0.951 . S
H4813 C4839 0.950 . S
H4814 C4840 0.950 . S
H4815 C4842 0.950 . S
H4816 C4845 0.950 . S
H4817 C4846 0.950 . S
H4818 C4848 0.950 . S
H4819 C4849 0.950 . S
C4820 H4802 0.951 . S
C4820 C4821 1.366 . S
C4820 C4822 1.388 . S
C4821 C4820 1.366 . S
C4821 C4825 1.385 . S
C4822 H4803 0.951 . S
C4822 C4820 1.388 . S
C4822 C4823 1.366 . S
C4823 C4822 1.366 . S
C4823 C4824 1.414 . S
C4823 C4826 1.499 . S
C4824 H4804 0.950 . S
C4824 C4823 1.414 . S
C4824 C4825 1.374 . S
C4825 H4805 0.950 . S
C4825 C4821 1.385 . S
C4825 C4824 1.374 . S
C4826 C4823 1.499 . S
C4826 C4827 1.373 . S
C4826 C4828 1.389 . S
C4827 H4806 0.950 . S
C4827 C4826 1.373 . S
C4827 C4843 1.377 . S
C4828 C4826 1.389 . S
C4828 C4829 1.524 . S
C4828 C4842 1.377 . S
C4829 C4828 1.524 . S
C4829 C4830 1.397 . S
C4829 C4834 1.363 . S
C4830 H4807 0.950 . S
C4830 C4829 1.397 . S
C4830 C4831 1.334 . S
C4831 H4808 0.950 . S
C4831 C4830 1.334 . S
C4831 C4832 1.287 . S
C4832 C4831 1.287 . S
C4832 C4833 1.524 . S
C4832 H4851 0.913 . S
C4833 H4809 0.950 . S
C4833 C4832 1.524 . S
C4833 C4834 1.415 . S
C4834 H4810 0.950 . S
C4834 C4829 1.363 . S
C4834 C4833 1.415 . S
C4835 H4811 0.951 . S
C4835 C4836 1.366 . S
C4835 C4837 1.388 . S
C4836 C4835 1.366 . S
C4836 C4840 1.385 . S
C4837 H4812 0.951 . S
C4837 C4835 1.388 . S
C4837 C4838 1.366 . S
C4838 C4837 1.366 . S
C4838 C4839 1.414 . S
C4838 C4841 1.499 . S
C4839 H4813 0.950 . S
C4839 C4838 1.414 . S
C4839 C4840 1.374 . S
C4840 H4814 0.950 . S
C4840 C4836 1.385 . S
C4840 C4839 1.374 . S
C4841 C4838 1.499 . S
C4841 C4842 1.373 . S
C4841 C4843 1.389 . S
C4842 H4815 0.950 . S
C4842 C4828 1.377 . S
C4842 C4841 1.373 . S
C4843 C4827 1.377 . S
C4843 C4841 1.389 . S
C4843 C4844 1.524 . S
C4844 C4843 1.524 . S
C4844 C4845 1.397 . S
C4844 C4849 1.363 . S
C4845 H4816 0.950 . S
C4845 C4844 1.397 . S
C4845 C4846 1.334 . S
C4846 H4817 0.950 . S
C4846 C4845 1.334 . S
C4846 C4847 1.287 . S
C4847 C4846 1.287 . S
C4847 C4848 1.524 . S
C4847 H4850 0.999 . S
C4848 H4818 0.950 . S
C4848 C4847 1.524 . S
C4848 C4849 1.415 . S
C4849 H4819 0.950 . S
C4849 C4844 1.363 . S
C4849 C4848 1.415 . S
H4850 C4847 0.999 . S
H4851 C4832 0.913 . S
H4852 C4870 0.951 . S
H4853 C4872 0.951 . S
H4854 C4874 0.950 . S
H4855 C4875 0.950 . S
H4856 C4877 0.950 . S
H4857 C4880 0.950 . S
H4858 C4881 0.950 . S
H4859 C4883 0.950 . S
H4860 C4884 0.950 . S
H4861 C4885 0.951 . S
H4862 C4887 0.951 . S
H4863 C4889 0.950 . S
H4864 C4890 0.950 . S
H4865 C4892 0.950 . S
H4866 C4895 0.950 . S
H4867 C4896 0.885 1_655 S
H4868 C4898 0.950 . S
H4869 C4899 0.950 . S
C4870 H4852 0.951 . S
C4870 C4871 1.366 . S
C4870 C4872 1.388 . S
C4871 C4870 1.366 . S
C4871 C4875 1.385 . S
C4872 H4853 0.951 . S
C4872 C4870 1.388 . S
C4872 C4873 1.366 . S
C4873 C4872 1.366 . S
C4873 C4874 1.414 . S
C4873 C4876 1.499 . S
C4874 H4854 0.950 . S
C4874 C4873 1.414 . S
C4874 C4875 1.374 . S
C4875 H4855 0.950 . S
C4875 C4871 1.385 . S
C4875 C4874 1.374 . S
C4876 C4873 1.499 . S
C4876 C4877 1.373 . S
C4876 C4878 1.389 . S
C4877 H4856 0.950 . S
C4877 C4876 1.373 . S
C4877 C4893 1.377 . S
C4878 C4876 1.389 . S
C4878 C4879 1.524 . S
C4878 C4892 1.377 . S
C4879 C4878 1.524 . S
C4879 C4880 1.397 . S
C4879 C4884 1.363 . S
C4880 H4857 0.950 . S
C4880 C4879 1.397 . S
C4880 C4881 1.334 . S
C4881 H4858 0.950 . S
C4881 C4880 1.334 . S
C4881 C4882 1.287 . S
C4882 C4881 1.287 . S
C4882 C4883 1.524 . S
C4882 H4901 0.913 . S
C4883 H4859 0.950 . S
C4883 C4882 1.524 . S
C4883 C4884 1.415 . S
C4884 H4860 0.950 . S
C4884 C4879 1.363 . S
C4884 C4883 1.415 . S
C4885 H4861 0.951 . S
C4885 C4886 1.366 . S
C4885 C4887 1.388 . S
C4886 C4885 1.366 . S
C4886 C4890 1.385 . S
C4887 H4862 0.951 . S
C4887 C4885 1.388 . S
C4887 C4888 1.366 . S
C4888 C4887 1.366 . S
C4888 C4889 1.414 . S
C4888 C4891 1.499 . S
C4889 H4863 0.950 . S
C4889 C4888 1.414 . S
C4889 C4890 1.374 . S
C4890 H4864 0.950 . S
C4890 C4886 1.385 . S
C4890 C4889 1.374 . S
C4891 C4888 1.499 . S
C4891 C4892 1.373 . S
C4891 C4893 1.389 . S
C4892 H4865 0.950 . S
C4892 C4878 1.377 . S
C4892 C4891 1.373 . S
C4893 C4877 1.377 . S
C4893 C4891 1.389 . S
C4893 C4894 1.524 . S
C4894 C4893 1.524 . S
C4894 C4895 1.397 . S
C4894 C4899 1.363 . S
C4895 H4866 0.950 . S
C4895 C4894 1.397 . S
C4895 C4896 1.383 . S
C4896 H4867 0.885 1_455 S
C4896 C4895 1.383 . S
C4896 C4897 1.308 . S
C4897 C4896 1.308 . S
C4897 C4898 1.524 . S
C4897 H4900 0.999 1_455 S
C4898 H4868 0.950 . S
C4898 C4897 1.524 . S
C4898 C4899 1.415 . S
C4899 H4869 0.950 . S
C4899 C4894 1.363 . S
C4899 C4898 1.415 . S
H4900 C4897 0.999 1_655 S
H4901 C4882 0.913 . S
H4902 C4920 0.951 . S
H4903 C4922 0.951 . S
H4904 C4924 0.950 . S
H4905 C4925 0.950 . S
H4906 C4927 0.950 . S
H4907 C4930 0.950 . S
H4908 C4931 0.950 . S
H4909 C4933 0.950 . S
H4910 C4934 0.950 . S
H4911 C4935 0.951 . S
H4912 C4937 0.951 . S
H4913 C4939 0.950 . S
H4914 C4940 0.950 . S
H4915 C4942 0.950 . S
H4916 C4945 0.950 . S
H4917 C4946 0.950 . S
H4918 C4948 0.950 . S
H4919 C4949 0.950 . S
C4920 H4902 0.951 . S
C4920 C4921 1.366 . S
C4920 C4922 1.388 . S
C4921 C4920 1.366 . S
C4921 C4925 1.385 . S
C4922 H4903 0.951 . S
C4922 C4920 1.388 . S
C4922 C4923 1.366 . S
C4923 C4922 1.366 . S
C4923 C4924 1.414 . S
C4923 C4926 1.499 . S
C4924 H4904 0.950 . S
C4924 C4923 1.414 . S
C4924 C4925 1.374 . S
C4925 H4905 0.950 . S
C4925 C4921 1.385 . S
C4925 C4924 1.374 . S
C4926 C4923 1.499 . S
C4926 C4927 1.373 . S
C4926 C4928 1.389 . S
C4927 H4906 0.950 . S
C4927 C4926 1.373 . S
C4927 C4943 1.377 . S
C4928 C4926 1.389 . S
C4928 C4929 1.524 . S
C4928 C4942 1.377 . S
C4929 C4928 1.524 . S
C4929 C4930 1.397 . S
C4929 C4934 1.363 . S
C4930 H4907 0.950 . S
C4930 C4929 1.397 . S
C4930 C4931 1.334 . S
C4931 H4908 0.950 . S
C4931 C4930 1.334 . S
C4931 C4932 1.287 . S
C4932 C4931 1.287 . S
C4932 C4933 1.524 . S
C4932 H4951 0.913 . S
C4933 H4909 0.950 . S
C4933 C4932 1.524 . S
C4933 C4934 1.415 . S
C4934 H4910 0.950 . S
C4934 C4929 1.363 . S
C4934 C4933 1.415 . S
C4935 H4911 0.951 . S
C4935 C4936 1.366 . S
C4935 C4937 1.388 . S
C4936 C4935 1.366 . S
C4936 C4940 1.385 . S
C4937 H4912 0.951 . S
C4937 C4935 1.388 . S
C4937 C4938 1.366 . S
C4938 C4937 1.366 . S
C4938 C4939 1.414 . S
C4938 C4941 1.499 . S
C4939 H4913 0.950 . S
C4939 C4938 1.414 . S
C4939 C4940 1.374 . S
C4940 H4914 0.950 . S
C4940 C4936 1.385 . S
C4940 C4939 1.374 . S
C4941 C4938 1.499 . S
C4941 C4942 1.373 . S
C4941 C4943 1.389 . S
C4942 H4915 0.950 . S
C4942 C4928 1.377 . S
C4942 C4941 1.373 . S
C4943 C4927 1.377 . S
C4943 C4941 1.389 . S
C4943 C4944 1.524 . S
C4944 C4943 1.524 . S
C4944 C4945 1.397 . S
C4944 C4949 1.363 . S
C4945 H4916 0.950 . S
C4945 C4944 1.397 . S
C4945 C4946 1.334 . S
C4946 H4917 0.950 . S
C4946 C4945 1.334 . S
C4946 C4947 1.287 . S
C4947 C4946 1.287 . S
C4947 C4948 1.524 . S
C4947 H4950 0.999 . S
C4948 H4918 0.950 . S
C4948 C4947 1.524 . S
C4948 C4949 1.415 . S
C4949 H4919 0.950 . S
C4949 C4944 1.363 . S
C4949 C4948 1.415 . S
H4950 C4947 0.999 . S
H4951 C4932 0.913 . S
H4952 C4970 0.951 . S
H4953 C4972 0.951 . S
H4954 C4974 0.950 . S
H4955 C4975 0.950 . S
H4956 C4977 0.950 . S
H4957 C4980 0.950 . S
H4958 C4981 0.950 . S
H4959 C4983 0.950 . S
H4960 C4984 0.950 . S
H4961 C4985 0.951 . S
H4962 C4987 0.951 . S
H4963 C4989 0.950 . S
H4964 C4990 0.950 . S
H4965 C4992 0.950 . S
H4966 C4995 0.950 . S
H4967 C4996 0.950 . S
H4968 C4998 0.950 . S
H4969 C4999 0.950 . S
C4970 H4952 0.951 . S
C4970 C4971 1.366 . S
C4970 C4972 1.388 . S
C4971 C4970 1.366 . S
C4971 C4975 1.385 . S
C4972 H4953 0.951 . S
C4972 C4970 1.388 . S
C4972 C4973 1.366 . S
C4973 C4972 1.366 . S
C4973 C4974 1.414 . S
C4973 C4976 1.499 . S
C4974 H4954 0.950 . S
C4974 C4973 1.414 . S
C4974 C4975 1.374 . S
C4975 H4955 0.950 . S
C4975 C4971 1.385 . S
C4975 C4974 1.374 . S
C4976 C4973 1.499 . S
C4976 C4977 1.373 . S
C4976 C4978 1.389 . S
C4977 H4956 0.950 . S
C4977 C4976 1.373 . S
C4977 C4993 1.377 . S
C4978 C4976 1.389 . S
C4978 C4979 1.524 . S
C4978 C4992 1.377 . S
C4979 C4978 1.524 . S
C4979 C4980 1.397 . S
C4979 C4984 1.363 . S
C4980 H4957 0.950 . S
C4980 C4979 1.397 . S
C4980 C4981 1.334 . S
C4981 H4958 0.950 . S
C4981 C4980 1.334 . S
C4981 C4982 1.287 . S
C4982 C4981 1.287 . S
C4982 C4983 1.524 . S
C4982 H5001 0.913 . S
C4983 H4959 0.950 . S
C4983 C4982 1.524 . S
C4983 C4984 1.415 . S
C4984 H4960 0.950 . S
C4984 C4979 1.363 . S
C4984 C4983 1.415 . S
C4985 H4961 0.951 . S
C4985 C4986 1.366 . S
C4985 C4987 1.388 . S
C4986 C4985 1.366 . S
C4986 C4990 1.385 . S
C4987 H4962 0.951 . S
C4987 C4985 1.388 . S
C4987 C4988 1.366 . S
C4988 C4987 1.366 . S
C4988 C4989 1.414 . S
C4988 C4991 1.499 . S
C4989 H4963 0.950 . S
C4989 C4988 1.414 . S
C4989 C4990 1.374 . S
C4990 H4964 0.950 . S
C4990 C4986 1.385 . S
C4990 C4989 1.374 . S
C4991 C4988 1.499 . S
C4991 C4992 1.373 . S
C4991 C4993 1.389 . S
C4992 H4965 0.950 . S
C4992 C4978 1.377 . S
C4992 C4991 1.373 . S
C4993 C4977 1.377 . S
C4993 C4991 1.389 . S
C4993 C4994 1.524 . S
C4994 C4993 1.524 . S
C4994 C4995 1.397 . S
C4994 C4999 1.363 . S
C4995 H4966 0.950 . S
C4995 C4994 1.397 . S
C4995 C4996 1.334 . S
C4996 H4967 0.950 . S
C4996 C4995 1.334 . S
C4996 C4997 1.287 . S
C4997 C4996 1.287 . S
C4997 C4998 1.524 . S
C4997 H5000 0.999 . S
C4998 H4968 0.950 . S
C4998 C4997 1.524 . S
C4998 C4999 1.415 . S
C4999 H4969 0.950 . S
C4999 C4994 1.363 . S
C4999 C4998 1.415 . S
H5000 C4997 0.999 . S
H5001 C4982 0.913 . S
H5002 C5020 0.951 . S
H5003 C5022 0.951 . S
H5004 C5024 0.950 . S
H5005 C5025 0.950 . S
H5006 C5027 0.950 . S
H5007 C5030 0.950 . S
H5008 C5031 0.950 . S
H5009 C5033 0.950 . S
H5010 C5034 0.950 . S
H5011 C5035 0.951 . S
H5012 C5037 0.951 . S
H5013 C5039 0.950 . S
H5014 C5040 0.950 . S
H5015 C5042 0.950 . S
H5016 C5045 0.950 . S
H5017 C5046 0.950 . S
H5018 C5048 0.950 . S
H5019 C5049 0.950 . S
C5020 H5002 0.951 . S
C5020 C5021 1.366 . S
C5020 C5022 1.388 . S
C5021 C5020 1.366 . S
C5021 C5025 1.385 . S
C5022 H5003 0.951 . S
C5022 C5020 1.388 . S
C5022 C5023 1.366 . S
C5023 C5022 1.366 . S
C5023 C5024 1.414 . S
C5023 C5026 1.499 . S
C5024 H5004 0.950 . S
C5024 C5023 1.414 . S
C5024 C5025 1.374 . S
C5025 H5005 0.950 . S
C5025 C5021 1.385 . S
C5025 C5024 1.374 . S
C5026 C5023 1.499 . S
C5026 C5027 1.373 . S
C5026 C5028 1.389 . S
C5027 H5006 0.950 . S
C5027 C5026 1.373 . S
C5027 C5043 1.377 . S
C5028 C5026 1.389 . S
C5028 C5029 1.524 . S
C5028 C5042 1.377 . S
C5029 C5028 1.524 . S
C5029 C5030 1.397 . S
C5029 C5034 1.363 . S
C5030 H5007 0.950 . S
C5030 C5029 1.397 . S
C5030 C5031 1.334 . S
C5031 H5008 0.950 . S
C5031 C5030 1.334 . S
C5031 C5032 1.287 . S
C5032 C5031 1.287 . S
C5032 C5033 1.524 . S
C5032 H5051 0.913 . S
C5033 H5009 0.950 . S
C5033 C5032 1.524 . S
C5033 C5034 1.415 . S
C5034 H5010 0.950 . S
C5034 C5029 1.363 . S
C5034 C5033 1.415 . S
C5035 H5011 0.951 . S
C5035 C5036 1.366 . S
C5035 C5037 1.388 . S
C5036 C5035 1.366 . S
C5036 C5040 1.385 . S
C5037 H5012 0.951 . S
C5037 C5035 1.388 . S
C5037 C5038 1.366 . S
C5038 C5037 1.366 . S
C5038 C5039 1.414 . S
C5038 C5041 1.499 . S
C5039 H5013 0.950 . S
C5039 C5038 1.414 . S
C5039 C5040 1.374 . S
C5040 H5014 0.950 . S
C5040 C5036 1.385 . S
C5040 C5039 1.374 . S
C5041 C5038 1.499 . S
C5041 C5042 1.373 . S
C5041 C5043 1.389 . S
C5042 H5015 0.950 . S
C5042 C5028 1.377 . S
C5042 C5041 1.373 . S
C5043 C5027 1.377 . S
C5043 C5041 1.389 . S
C5043 C5044 1.524 . S
C5044 C5043 1.524 . S
C5044 C5045 1.397 . S
C5044 C5049 1.363 . S
C5045 H5016 0.950 . S
C5045 C5044 1.397 . S
C5045 C5046 1.334 . S
C5046 H5017 0.950 . S
C5046 C5045 1.334 . S
C5046 C5047 1.287 . S
C5047 C5046 1.287 . S
C5047 C5048 1.524 . S
C5047 H5050 0.999 . S
C5048 H5018 0.950 . S
C5048 C5047 1.524 . S
C5048 C5049 1.415 . S
C5049 H5019 0.950 . S
C5049 C5044 1.363 . S
C5049 C5048 1.415 . S
H5050 C5047 0.999 . S
H5051 C5032 0.913 . S
H5052 C5070 0.951 . S
H5053 C5072 0.951 . S
H5054 C5074 0.950 . S
H5055 C5075 0.950 . S
H5056 C5077 0.950 . S
H5057 C5080 0.950 . S
H5058 C5081 0.950 . S
H5059 C5083 0.950 . S
H5060 C5084 0.950 . S
H5061 C5085 0.951 . S
H5062 C5087 0.951 . S
H5063 C5089 0.950 . S
H5064 C5090 0.950 . S
H5065 C5092 0.950 1_455 S
H5066 C5095 0.950 . S
H5067 C5096 0.950 . S
H5068 C5098 0.950 . S
H5069 C5099 0.950 . S
C5070 H5052 0.951 . S
C5070 C5071 1.366 . S
C5070 C5072 1.388 . S
C5071 C5070 1.366 . S
C5071 C5075 1.385 . S
C5072 H5053 0.951 . S
C5072 C5070 1.388 . S
C5072 C5073 1.366 . S
C5073 C5072 1.366 . S
C5073 C5074 1.414 . S
C5073 C5076 1.499 . S
C5074 H5054 0.950 . S
C5074 C5073 1.414 . S
C5074 C5075 1.374 . S
C5075 H5055 0.950 . S
C5075 C5071 1.385 . S
C5075 C5074 1.374 . S
C5076 C5073 1.499 . S
C5076 C5077 1.373 . S
C5076 C5078 1.389 . S
C5077 H5056 0.950 . S
C5077 C5076 1.373 . S
C5077 C5093 1.377 . S
C5078 C5076 1.389 . S
C5078 C5079 1.524 . S
C5078 C5092 1.377 . S
C5079 C5078 1.524 . S
C5079 C5080 1.397 . S
C5079 C5084 1.363 1_655 S
C5080 H5057 0.950 . S
C5080 C5079 1.397 . S
C5080 C5081 1.341 . S
C5081 H5058 0.950 . S
C5081 C5080 1.341 . S
C5081 C5082 1.280 1_655 S
C5082 C5081 1.280 1_455 S
C5082 C5083 1.524 . S
C5082 H5101 0.913 . S
C5083 H5059 0.950 . S
C5083 C5082 1.524 . S
C5083 C5084 1.415 . S
C5084 H5060 0.950 . S
C5084 C5079 1.363 1_455 S
C5084 C5083 1.415 . S
C5085 H5061 0.951 . S
C5085 C5086 1.366 1_655 S
C5085 C5087 1.388 . S
C5086 C5085 1.366 1_455 S
C5086 C5090 1.385 . S
C5087 H5062 0.951 . S
C5087 C5085 1.388 . S
C5087 C5088 1.366 . S
C5088 C5087 1.366 . S
C5088 C5089 1.414 1_655 S
C5088 C5091 1.499 . S
C5089 H5063 0.950 . S
C5089 C5088 1.414 1_455 S
C5089 C5090 1.374 . S
C5090 H5064 0.950 . S
C5090 C5086 1.385 . S
C5090 C5089 1.374 . S
C5091 C5088 1.499 . S
C5091 C5092 1.373 . S
C5091 C5093 1.389 . S
C5092 H5065 0.950 1_655 S
C5092 C5078 1.377 . S
C5092 C5091 1.373 . S
C5093 C5077 1.377 . S
C5093 C5091 1.389 . S
C5093 C5094 1.524 . S
C5094 C5093 1.524 . S
C5094 C5095 1.397 . S
C5094 C5099 1.363 . S
C5095 H5066 0.950 . S
C5095 C5094 1.397 . S
C5095 C5096 1.334 . S
C5096 H5067 0.950 . S
C5096 C5095 1.334 . S
C5096 C5097 1.287 . S
C5097 C5096 1.287 . S
C5097 C5098 1.524 . S
C5097 H5100 0.999 . S
C5098 H5068 0.950 . S
C5098 C5097 1.524 . S
C5098 C5099 1.415 . S
C5099 H5069 0.950 . S
C5099 C5094 1.363 . S
C5099 C5098 1.415 . S
H5100 C5097 0.999 . S
H5101 C5082 0.913 . S
H5102 C5120 0.951 . S
H5103 C5122 0.951 . S
H5104 C5124 0.950 . S
H5105 C5125 0.950 . S
H5106 C5127 0.950 . S
H5107 C5130 0.950 . S
H5108 C5131 0.950 . S
H5109 C5133 0.950 . S
H5110 C5134 0.950 . S
H5111 C5135 0.951 . S
H5112 C5137 0.951 . S
H5113 C5139 0.950 . S
H5114 C5140 0.950 . S
H5115 C5142 0.950 . S
H5116 C5145 0.950 . S
H5117 C5146 0.950 . S
H5118 C5148 0.950 . S
H5119 C5149 0.950 . S
C5120 H5102 0.951 . S
C5120 C5121 1.366 . S
C5120 C5122 1.388 . S
C5121 C5120 1.366 . S
C5121 C5125 1.385 . S
C5122 H5103 0.951 . S
C5122 C5120 1.388 . S
C5122 C5123 1.366 . S
C5123 C5122 1.366 . S
C5123 C5124 1.414 . S
C5123 C5126 1.499 . S
C5124 H5104 0.950 . S
C5124 C5123 1.414 . S
C5124 C5125 1.374 . S
C5125 H5105 0.950 . S
C5125 C5121 1.385 . S
C5125 C5124 1.374 . S
C5126 C5123 1.499 . S
C5126 C5127 1.373 . S
C5126 C5128 1.389 . S
C5127 H5106 0.950 . S
C5127 C5126 1.373 . S
C5127 C5143 1.377 . S
C5128 C5126 1.389 . S
C5128 C5129 1.524 . S
C5128 C5142 1.377 . S
C5129 C5128 1.524 . S
C5129 C5130 1.397 . S
C5129 C5134 1.363 . S
C5130 H5107 0.950 . S
C5130 C5129 1.397 . S
C5130 C5131 1.334 . S
C5131 H5108 0.950 . S
C5131 C5130 1.334 . S
C5131 C5132 1.287 . S
C5132 C5131 1.287 . S
C5132 C5133 1.524 . S
C5132 H5151 0.913 . S
C5133 H5109 0.950 . S
C5133 C5132 1.524 . S
C5133 C5134 1.415 . S
C5134 H5110 0.950 . S
C5134 C5129 1.363 . S
C5134 C5133 1.415 . S
C5135 H5111 0.951 . S
C5135 C5136 1.366 . S
C5135 C5137 1.388 . S
C5136 C5135 1.366 . S
C5136 C5140 1.385 . S
C5137 H5112 0.951 . S
C5137 C5135 1.388 . S
C5137 C5138 1.366 . S
C5138 C5137 1.366 . S
C5138 C5139 1.414 . S
C5138 C5141 1.499 . S
C5139 H5113 0.950 . S
C5139 C5138 1.414 . S
C5139 C5140 1.374 . S
C5140 H5114 0.950 . S
C5140 C5136 1.385 . S
C5140 C5139 1.374 . S
C5141 C5138 1.499 . S
C5141 C5142 1.373 . S
C5141 C5143 1.389 . S
C5142 H5115 0.950 . S
C5142 C5128 1.377 . S
C5142 C5141 1.373 . S
C5143 C5127 1.377 . S
C5143 C5141 1.389 . S
C5143 C5144 1.524 . S
C5144 C5143 1.524 . S
C5144 C5145 1.397 . S
C5144 C5149 1.363 . S
C5145 H5116 0.950 . S
C5145 C5144 1.397 . S
C5145 C5146 1.334 . S
C5146 H5117 0.950 . S
C5146 C5145 1.334 . S
C5146 C5147 1.287 . S
C5147 C5146 1.287 . S
C5147 C5148 1.524 . S
C5147 H5150 0.999 . S
C5148 H5118 0.950 . S
C5148 C5147 1.524 . S
C5148 C5149 1.415 . S
C5149 H5119 0.950 . S
C5149 C5144 1.363 . S
C5149 C5148 1.415 . S
H5150 C5147 0.999 . S
H5151 C5132 0.913 . S
H5152 C5170 0.951 . S
H5153 C5172 0.951 . S
H5154 C5174 0.950 . S
H5155 C5175 0.950 . S
H5156 C5177 0.950 . S
H5157 C5180 0.950 . S
H5158 C5181 0.950 . S
H5159 C5183 0.950 . S
H5160 C5184 0.950 . S
H5161 C5185 0.951 . S
H5162 C5187 0.951 . S
H5163 C5189 0.950 . S
H5164 C5190 0.950 . S
H5165 C5192 0.950 . S
H5166 C5195 0.950 . S
H5167 C5196 0.950 . S
H5168 C5198 0.950 . S
H5169 C5199 0.950 . S
C5170 H5152 0.951 . S
C5170 C5171 1.366 . S
C5170 C5172 1.388 . S
C5171 C5170 1.366 . S
C5171 C5175 1.385 . S
C5172 H5153 0.951 . S
C5172 C5170 1.388 . S
C5172 C5173 1.366 . S
C5173 C5172 1.366 . S
C5173 C5174 1.414 . S
C5173 C5176 1.499 . S
C5174 H5154 0.950 . S
C5174 C5173 1.414 . S
C5174 C5175 1.374 . S
C5175 H5155 0.950 . S
C5175 C5171 1.385 . S
C5175 C5174 1.374 . S
C5176 C5173 1.499 . S
C5176 C5177 1.373 . S
C5176 C5178 1.389 . S
C5177 H5156 0.950 . S
C5177 C5176 1.373 . S
C5177 C5193 1.377 . S
C5178 C5176 1.389 . S
C5178 C5179 1.524 . S
C5178 C5192 1.377 . S
C5179 C5178 1.524 . S
C5179 C5180 1.397 . S
C5179 C5184 1.363 . S
C5180 H5157 0.950 . S
C5180 C5179 1.397 . S
C5180 C5181 1.334 . S
C5181 H5158 0.950 . S
C5181 C5180 1.334 . S
C5181 C5182 1.287 . S
C5182 C5181 1.287 . S
C5182 C5183 1.524 . S
C5182 H5201 0.913 . S
C5183 H5159 0.950 . S
C5183 C5182 1.524 . S
C5183 C5184 1.415 . S
C5184 H5160 0.950 . S
C5184 C5179 1.363 . S
C5184 C5183 1.415 . S
C5185 H5161 0.951 . S
C5185 C5186 1.366 . S
C5185 C5187 1.388 . S
C5186 C5185 1.366 . S
C5186 C5190 1.385 . S
C5187 H5162 0.951 . S
C5187 C5185 1.388 . S
C5187 C5188 1.366 . S
C5188 C5187 1.366 . S
C5188 C5189 1.414 . S
C5188 C5191 1.499 . S
C5189 H5163 0.950 . S
C5189 C5188 1.414 . S
C5189 C5190 1.374 . S
C5190 H5164 0.950 . S
C5190 C5186 1.385 . S
C5190 C5189 1.374 . S
C5191 C5188 1.499 . S
C5191 C5192 1.373 . S
C5191 C5193 1.389 . S
C5192 H5165 0.950 . S
C5192 C5178 1.377 . S
C5192 C5191 1.373 . S
C5193 C5177 1.377 . S
C5193 C5191 1.389 . S
C5193 C5194 1.524 . S
C5194 C5193 1.524 . S
C5194 C5195 1.397 . S
C5194 C5199 1.363 . S
C5195 H5166 0.950 . S
C5195 C5194 1.397 . S
C5195 C5196 1.334 . S
C5196 H5167 0.950 . S
C5196 C5195 1.334 . S
C5196 C5197 1.287 . S
C5197 C5196 1.287 . S
C5197 C5198 1.524 . S
C5197 H5200 0.999 . S
C5198 H5168 0.950 . S
C5198 C5197 1.524 . S
C5198 C5199 1.415 . S
C5199 H5169 0.950 . S
C5199 C5194 1.363 . S
C5199 C5198 1.415 . S
H5200 C5197 0.999 . S
H5201 C5182 0.913 . S
H5202 C5220 0.951 . S
H5203 C5222 0.951 . S
H5204 C5224 0.950 . S
H5205 C5225 0.950 . S
H5206 C5227 0.950 . S
H5207 C5230 0.950 . S
H5208 C5231 0.950 . S
H5209 C5233 0.950 . S
H5210 C5234 0.950 . S
H5211 C5235 0.951 . S
H5212 C5237 0.951 . S
H5213 C5239 0.950 . S
H5214 C5240 0.950 . S
H5215 C5242 0.950 . S
H5216 C5245 0.950 . S
H5217 C5246 0.950 . S
H5218 C5248 0.950 . S
H5219 C5249 0.950 . S
C5220 H5202 0.951 . S
C5220 C5221 1.366 . S
C5220 C5222 1.388 . S
C5221 C5220 1.366 . S
C5221 C5225 1.385 . S
C5222 H5203 0.951 . S
C5222 C5220 1.388 . S
C5222 C5223 1.366 . S
C5223 C5222 1.366 . S
C5223 C5224 1.414 . S
C5223 C5226 1.499 . S
C5224 H5204 0.950 . S
C5224 C5223 1.414 . S
C5224 C5225 1.374 . S
C5225 H5205 0.950 . S
C5225 C5221 1.385 . S
C5225 C5224 1.374 . S
C5226 C5223 1.499 . S
C5226 C5227 1.373 . S
C5226 C5228 1.389 . S
C5227 H5206 0.950 . S
C5227 C5226 1.373 . S
C5227 C5243 1.377 . S
C5228 C5226 1.389 . S
C5228 C5229 1.524 . S
C5228 C5242 1.377 . S
C5229 C5228 1.524 . S
C5229 C5230 1.397 . S
C5229 C5234 1.363 . S
C5230 H5207 0.950 . S
C5230 C5229 1.397 . S
C5230 C5231 1.334 . S
C5231 H5208 0.950 . S
C5231 C5230 1.334 . S
C5231 C5232 1.287 . S
C5232 C5231 1.287 . S
C5232 C5233 1.524 . S
C5232 H5251 0.913 . S
C5233 H5209 0.950 . S
C5233 C5232 1.524 . S
C5233 C5234 1.415 . S
C5234 H5210 0.950 . S
C5234 C5229 1.363 . S
C5234 C5233 1.415 . S
C5235 H5211 0.951 . S
C5235 C5236 1.366 . S
C5235 C5237 1.388 . S
C5236 C5235 1.366 . S
C5236 C5240 1.385 . S
C5237 H5212 0.951 . S
C5237 C5235 1.388 . S
C5237 C5238 1.366 . S
C5238 C5237 1.366 . S
C5238 C5239 1.414 . S
C5238 C5241 1.499 . S
C5239 H5213 0.950 . S
C5239 C5238 1.414 . S
C5239 C5240 1.374 . S
C5240 H5214 0.950 . S
C5240 C5236 1.385 . S
C5240 C5239 1.374 . S
C5241 C5238 1.499 . S
C5241 C5242 1.373 . S
C5241 C5243 1.389 . S
C5242 H5215 0.950 . S
C5242 C5228 1.377 . S
C5242 C5241 1.373 . S
C5243 C5227 1.377 . S
C5243 C5241 1.389 . S
C5243 C5244 1.524 . S
C5244 C5243 1.524 . S
C5244 C5245 1.397 . S
C5244 C5249 1.363 . S
C5245 H5216 0.950 . S
C5245 C5244 1.397 . S
C5245 C5246 1.334 . S
C5246 H5217 0.950 . S
C5246 C5245 1.334 . S
C5246 C5247 1.287 . S
C5247 C5246 1.287 . S
C5247 C5248 1.524 . S
C5247 H5250 0.999 . S
C5248 H5218 0.950 . S
C5248 C5247 1.524 . S
C5248 C5249 1.415 . S
C5249 H5219 0.950 . S
C5249 C5244 1.363 . S
C5249 C5248 1.415 . S
H5250 C5247 0.999 . S
H5251 C5232 0.913 . S
H5252 C5270 0.951 . S
H5253 C5272 0.951 . S
H5254 C5274 0.950 . S
H5255 C5275 0.950 . S
H5256 C5277 0.950 . S
H5257 C5280 0.950 . S
H5258 C5281 0.950 . S
H5259 C5283 0.950 . S
H5260 C5284 0.950 . S
H5261 C5285 0.951 . S
H5262 C5287 0.951 . S
H5263 C5289 0.950 . S
H5264 C5290 0.950 . S
H5265 C5292 0.950 . S
H5266 C5295 0.950 . S
H5267 C5296 0.950 . S
H5268 C5298 0.950 . S
H5269 C5299 0.950 . S
C5270 H5252 0.951 . S
C5270 C5271 1.366 . S
C5270 C5272 1.388 . S
C5271 C5270 1.366 . S
C5271 C5275 1.385 . S
C5272 H5253 0.951 . S
C5272 C5270 1.388 . S
C5272 C5273 1.366 . S
C5273 C5272 1.366 . S
C5273 C5274 1.414 . S
C5273 C5276 1.499 . S
C5274 H5254 0.950 . S
C5274 C5273 1.414 . S
C5274 C5275 1.374 . S
C5275 H5255 0.950 . S
C5275 C5271 1.385 . S
C5275 C5274 1.374 . S
C5276 C5273 1.499 . S
C5276 C5277 1.373 . S
C5276 C5278 1.389 . S
C5277 H5256 0.950 . S
C5277 C5276 1.373 . S
C5277 C5293 1.377 . S
C5278 C5276 1.389 . S
C5278 C5279 1.524 . S
C5278 C5292 1.377 . S
C5279 C5278 1.524 . S
C5279 C5280 1.397 . S
C5279 C5284 1.363 . S
C5280 H5257 0.950 . S
C5280 C5279 1.397 . S
C5280 C5281 1.334 . S
C5281 H5258 0.950 . S
C5281 C5280 1.334 . S
C5281 C5282 1.287 . S
C5282 C5281 1.287 . S
C5282 C5283 1.524 . S
C5282 H5301 0.913 . S
C5283 H5259 0.950 . S
C5283 C5282 1.524 . S
C5283 C5284 1.415 . S
C5284 H5260 0.950 . S
C5284 C5279 1.363 . S
C5284 C5283 1.415 . S
C5285 H5261 0.951 . S
C5285 C5286 1.366 . S
C5285 C5287 1.388 . S
C5286 C5285 1.366 . S
C5286 C5290 1.385 . S
C5287 H5262 0.951 . S
C5287 C5285 1.388 . S
C5287 C5288 1.366 . S
C5288 C5287 1.366 . S
C5288 C5289 1.414 . S
C5288 C5291 1.499 . S
C5289 H5263 0.950 . S
C5289 C5288 1.414 . S
C5289 C5290 1.374 . S
C5290 H5264 0.950 . S
C5290 C5286 1.385 . S
C5290 C5289 1.374 . S
C5291 C5288 1.499 . S
C5291 C5292 1.373 . S
C5291 C5293 1.389 . S
C5292 H5265 0.950 . S
C5292 C5278 1.377 . S
C5292 C5291 1.373 . S
C5293 C5277 1.377 . S
C5293 C5291 1.389 . S
C5293 C5294 1.524 . S
C5294 C5293 1.524 . S
C5294 C5295 1.397 . S
C5294 C5299 1.363 . S
C5295 H5266 0.950 . S
C5295 C5294 1.397 . S
C5295 C5296 1.334 . S
C5296 H5267 0.950 . S
C5296 C5295 1.334 . S
C5296 C5297 1.287 . S
C5297 C5296 1.287 . S
C5297 C5298 1.524 . S
C5297 H5300 0.999 . S
C5298 H5268 0.950 . S
C5298 C5297 1.524 . S
C5298 C5299 1.415 . S
C5299 H5269 0.950 . S
C5299 C5294 1.363 . S
C5299 C5298 1.415 . S
H5300 C5297 0.999 . S
H5301 C5282 0.913 . S
H5302 C5320 0.951 . S
H5303 C5322 0.951 . S
H5304 C5324 0.950 . S
H5305 C5325 0.950 . S
H5306 C5327 0.950 . S
H5307 C5330 0.950 . S
H5308 C5331 0.950 . S
H5309 C5333 0.950 . S
H5310 C5334 0.950 . S
H5311 C5335 0.951 . S
H5312 C5337 0.951 . S
H5313 C5339 0.950 . S
H5314 C5340 0.950 . S
H5315 C5342 0.950 . S
H5316 C5345 0.950 . S
H5317 C5346 0.950 . S
H5318 C5348 0.950 . S
H5319 C5349 0.950 . S
C5320 H5302 0.951 . S
C5320 C5321 1.366 . S
C5320 C5322 1.388 . S
C5321 C5320 1.366 . S
C5321 C5325 1.385 . S
C5322 H5303 0.951 . S
C5322 C5320 1.388 . S
C5322 C5323 1.366 . S
C5323 C5322 1.366 . S
C5323 C5324 1.414 . S
C5323 C5326 1.499 . S
C5324 H5304 0.950 . S
C5324 C5323 1.414 . S
C5324 C5325 1.374 . S
C5325 H5305 0.950 . S
C5325 C5321 1.385 . S
C5325 C5324 1.374 . S
C5326 C5323 1.499 . S
C5326 C5327 1.373 . S
C5326 C5328 1.389 . S
C5327 H5306 0.950 . S
C5327 C5326 1.373 . S
C5327 C5343 1.377 . S
C5328 C5326 1.389 . S
C5328 C5329 1.524 . S
C5328 C5342 1.377 . S
C5329 C5328 1.524 . S
C5329 C5330 1.397 . S
C5329 C5334 1.363 . S
C5330 H5307 0.950 . S
C5330 C5329 1.397 . S
C5330 C5331 1.334 . S
C5331 H5308 0.950 . S
C5331 C5330 1.334 . S
C5331 C5332 1.287 . S
C5332 C5331 1.287 . S
C5332 C5333 1.524 . S
C5332 H5351 0.913 . S
C5333 H5309 0.950 . S
C5333 C5332 1.524 . S
C5333 C5334 1.415 . S
C5334 H5310 0.950 . S
C5334 C5329 1.363 . S
C5334 C5333 1.415 . S
C5335 H5311 0.951 . S
C5335 C5336 1.366 . S
C5335 C5337 1.388 . S
C5336 C5335 1.366 . S
C5336 C5340 1.385 . S
C5337 H5312 0.951 . S
C5337 C5335 1.388 . S
C5337 C5338 1.366 . S
C5338 C5337 1.366 . S
C5338 C5339 1.414 . S
C5338 C5341 1.499 . S
C5339 H5313 0.950 . S
C5339 C5338 1.414 . S
C5339 C5340 1.374 . S
C5340 H5314 0.950 . S
C5340 C5336 1.385 . S
C5340 C5339 1.374 . S
C5341 C5338 1.499 . S
C5341 C5342 1.373 . S
C5341 C5343 1.389 . S
C5342 H5315 0.950 . S
C5342 C5328 1.377 . S
C5342 C5341 1.373 . S
C5343 C5327 1.377 . S
C5343 C5341 1.389 . S
C5343 C5344 1.524 . S
C5344 C5343 1.524 . S
C5344 C5345 1.397 . S
C5344 C5349 1.363 . S
C5345 H5316 0.950 . S
C5345 C5344 1.397 . S
C5345 C5346 1.334 . S
C5346 H5317 0.950 . S
C5346 C5345 1.334 . S
C5346 C5347 1.287 . S
C5347 C5346 1.287 . S
C5347 C5348 1.524 . S
C5347 H5350 0.999 . S
C5348 H5318 0.950 . S
C5348 C5347 1.524 . S
C5348 C5349 1.415 . S
C5349 H5319 0.950 . S
C5349 C5344 1.363 . S
C5349 C5348 1.415 . S
H5350 C5347 0.999 . S
H5351 C5332 0.913 . S
H5352 C5370 0.951 . S
H5353 C5372 0.951 . S
H5354 C5374 0.950 . S
H5355 C5375 0.950 . S
H5356 C5377 0.950 . S
H5357 C5380 0.950 . S
H5358 C5381 0.950 . S
H5359 C5383 0.950 . S
H5360 C5384 0.950 . S
H5361 C5385 0.951 . S
H5362 C5387 0.951 . S
H5363 C5389 0.950 . S
H5364 C5390 0.950 . S
H5365 C5392 0.950 . S
H5366 C5395 0.950 . S
H5367 C5396 0.950 . S
H5368 C5398 0.950 . S
H5369 C5399 0.950 . S
C5370 H5352 0.951 . S
C5370 C5371 1.366 . S
C5370 C5372 1.388 . S
C5371 C5370 1.366 . S
C5371 C5375 1.385 . S
C5372 H5353 0.951 . S
C5372 C5370 1.388 . S
C5372 C5373 1.366 . S
C5373 C5372 1.366 . S
C5373 C5374 1.414 . S
C5373 C5376 1.499 . S
C5374 H5354 0.950 . S
C5374 C5373 1.414 . S
C5374 C5375 1.374 . S
C5375 H5355 0.950 . S
C5375 C5371 1.385 . S
C5375 C5374 1.374 . S
C5376 C5373 1.499 . S
C5376 C5377 1.373 . S
C5376 C5378 1.389 . S
C5377 H5356 0.950 . S
C5377 C5376 1.373 . S
C5377 C5393 1.377 . S
C5378 C5376 1.389 . S
C5378 C5379 1.524 . S
C5378 C5392 1.377 . S
C5379 C5378 1.524 . S
C5379 C5380 1.397 . S
C5379 C5384 1.363 . S
C5380 H5357 0.950 . S
C5380 C5379 1.397 . S
C5380 C5381 1.334 . S
C5381 H5358 0.950 . S
C5381 C5380 1.334 . S
C5381 C5382 1.287 . S
C5382 C5381 1.287 . S
C5382 C5383 1.524 . S
C5382 H5401 0.913 . S
C5383 H5359 0.950 . S
C5383 C5382 1.524 . S
C5383 C5384 1.415 . S
C5384 H5360 0.950 . S
C5384 C5379 1.363 . S
C5384 C5383 1.415 . S
C5385 H5361 0.951 . S
C5385 C5386 1.366 . S
C5385 C5387 1.388 . S
C5386 C5385 1.366 . S
C5386 C5390 1.385 . S
C5387 H5362 0.951 . S
C5387 C5385 1.388 . S
C5387 C5388 1.366 . S
C5388 C5387 1.366 . S
C5388 C5389 1.414 . S
C5388 C5391 1.499 . S
C5389 H5363 0.950 . S
C5389 C5388 1.414 . S
C5389 C5390 1.374 . S
C5390 H5364 0.950 . S
C5390 C5386 1.385 . S
C5390 C5389 1.374 . S
C5391 C5388 1.499 . S
C5391 C5392 1.373 . S
C5391 C5393 1.389 . S
C5392 H5365 0.950 . S
C5392 C5378 1.377 . S
C5392 C5391 1.373 . S
C5393 C5377 1.377 . S
C5393 C5391 1.389 . S
C5393 C5394 1.524 . S
C5394 C5393 1.524 . S
C5394 C5395 1.397 . S
C5394 C5399 1.363 . S
C5395 H5366 0.950 . S
C5395 C5394 1.397 . S
C5395 C5396 1.334 . S
C5396 H5367 0.950 . S
C5396 C5395 1.334 . S
C5396 C5397 1.287 . S
C5397 C5396 1.287 . S
C5397 C5398 1.524 . S
C5397 H5400 0.999 . S
C5398 H5368 0.950 . S
C5398 C5397 1.524 . S
C5398 C5399 1.415 . S
C5399 H5369 0.950 . S
C5399 C5394 1.363 . S
C5399 C5398 1.415 . S
H5400 C5397 0.999 . S
H5401 C5382 0.913 . S
H5402 C5420 0.951 . S
H5403 C5422 0.951 . S
H5404 C5424 0.950 . S
H5405 C5425 0.950 . S
H5406 C5427 0.950 . S
H5407 C5430 0.950 . S
H5408 C5431 0.950 . S
H5409 C5433 0.950 . S
H5410 C5434 0.950 . S
H5411 C5435 0.951 . S
H5412 C5437 0.951 . S
H5413 C5439 0.950 . S
H5414 C5440 0.950 . S
H5415 C5442 0.950 . S
H5416 C5445 0.950 . S
H5417 C5446 0.950 . S
H5418 C5448 0.950 . S
H5419 C5449 0.950 . S
C5420 H5402 0.951 . S
C5420 C5421 1.366 . S
C5420 C5422 1.388 . S
C5421 C5420 1.366 . S
C5421 C5425 1.385 . S
C5422 H5403 0.951 . S
C5422 C5420 1.388 . S
C5422 C5423 1.366 . S
C5423 C5422 1.366 . S
C5423 C5424 1.414 . S
C5423 C5426 1.499 . S
C5424 H5404 0.950 . S
C5424 C5423 1.414 . S
C5424 C5425 1.374 . S
C5425 H5405 0.950 . S
C5425 C5421 1.385 . S
C5425 C5424 1.374 . S
C5426 C5423 1.499 . S
C5426 C5427 1.373 . S
C5426 C5428 1.389 . S
C5427 H5406 0.950 . S
C5427 C5426 1.373 . S
C5427 C5443 1.377 . S
C5428 C5426 1.389 . S
C5428 C5429 1.524 . S
C5428 C5442 1.377 . S
C5429 C5428 1.524 . S
C5429 C5430 1.397 . S
C5429 C5434 1.363 . S
C5430 H5407 0.950 . S
C5430 C5429 1.397 . S
C5430 C5431 1.334 . S
C5431 H5408 0.950 . S
C5431 C5430 1.334 . S
C5431 C5432 1.287 . S
C5432 C5431 1.287 . S
C5432 C5433 1.524 . S
C5432 H5451 0.913 . S
C5433 H5409 0.950 . S
C5433 C5432 1.524 . S
C5433 C5434 1.415 . S
C5434 H5410 0.950 . S
C5434 C5429 1.363 . S
C5434 C5433 1.415 . S
C5435 H5411 0.951 . S
C5435 C5436 1.366 . S
C5435 C5437 1.388 . S
C5436 C5435 1.366 . S
C5436 C5440 1.385 1_565 S
C5437 H5412 0.951 . S
C5437 C5435 1.388 . S
C5437 C5438 1.366 . S
C5438 C5437 1.366 . S
C5438 C5439 1.414 . S
C5438 C5441 1.499 . S
C5439 H5413 0.950 . S
C5439 C5438 1.414 . S
C5439 C5440 1.374 1_565 S
C5440 H5414 0.950 . S
C5440 C5436 1.385 1_545 S
C5440 C5439 1.374 1_545 S
C5441 C5438 1.499 . S
C5441 C5442 1.373 . S
C5441 C5443 1.389 . S
C5442 H5415 0.950 . S
C5442 C5428 1.377 . S
C5442 C5441 1.373 . S
C5443 C5427 1.377 . S
C5443 C5441 1.389 . S
C5443 C5444 1.524 . S
C5444 C5443 1.524 . S
C5444 C5445 1.397 . S
C5444 C5449 1.363 . S
C5445 H5416 0.950 . S
C5445 C5444 1.397 . S
C5445 C5446 1.334 . S
C5446 H5417 0.950 . S
C5446 C5445 1.334 . S
C5446 C5447 1.287 . S
C5447 C5446 1.287 . S
C5447 C5448 1.524 . S
C5447 H5450 0.999 . S
C5448 H5418 0.950 . S
C5448 C5447 1.524 . S
C5448 C5449 1.415 . S
C5449 H5419 0.950 . S
C5449 C5444 1.363 . S
C5449 C5448 1.415 . S
H5450 C5447 0.999 . S
H5451 C5432 0.913 . S
H5452 C5470 0.951 . S
H5453 C5472 0.951 . S
H5454 C5474 0.950 . S
H5455 C5475 0.950 . S
H5456 C5477 0.950 . S
H5457 C5480 0.950 . S
H5458 C5481 0.950 . S
H5459 C5483 0.950 . S
H5460 C5484 0.950 . S
H5461 C5485 0.951 . S
H5462 C5487 0.951 . S
H5463 C5489 0.950 . S
H5464 C5490 0.950 . S
H5465 C5492 0.950 . S
H5466 C5495 0.950 . S
H5467 C5496 0.950 . S
H5468 C5498 0.950 . S
H5469 C5499 0.950 . S
C5470 H5452 0.951 . S
C5470 C5471 1.366 . S
C5470 C5472 1.388 . S
C5471 C5470 1.366 . S
C5471 C5475 1.385 . S
C5472 H5453 0.951 . S
C5472 C5470 1.388 . S
C5472 C5473 1.366 . S
C5473 C5472 1.366 . S
C5473 C5474 1.414 . S
C5473 C5476 1.499 . S
C5474 H5454 0.950 . S
C5474 C5473 1.414 . S
C5474 C5475 1.374 . S
C5475 H5455 0.950 . S
C5475 C5471 1.385 . S
C5475 C5474 1.374 . S
C5476 C5473 1.499 . S
C5476 C5477 1.373 . S
C5476 C5478 1.389 . S
C5477 H5456 0.950 . S
C5477 C5476 1.373 . S
C5477 C5493 1.377 . S
C5478 C5476 1.389 . S
C5478 C5479 1.524 . S
C5478 C5492 1.377 . S
C5479 C5478 1.524 . S
C5479 C5480 1.397 . S
C5479 C5484 1.363 . S
C5480 H5457 0.950 . S
C5480 C5479 1.397 . S
C5480 C5481 1.334 . S
C5481 H5458 0.950 . S
C5481 C5480 1.334 . S
C5481 C5482 1.287 . S
C5482 C5481 1.287 . S
C5482 C5483 1.524 . S
C5482 H5501 0.913 . S
C5483 H5459 0.950 . S
C5483 C5482 1.524 . S
C5483 C5484 1.415 . S
C5484 H5460 0.950 . S
C5484 C5479 1.363 . S
C5484 C5483 1.415 . S
C5485 H5461 0.951 . S
C5485 C5486 1.366 . S
C5485 C5487 1.388 . S
C5486 C5485 1.366 . S
C5486 C5490 1.385 . S
C5487 H5462 0.951 . S
C5487 C5485 1.388 . S
C5487 C5488 1.366 . S
C5488 C5487 1.366 . S
C5488 C5489 1.414 . S
C5488 C5491 1.499 . S
C5489 H5463 0.950 . S
C5489 C5488 1.414 . S
C5489 C5490 1.374 . S
C5490 H5464 0.950 . S
C5490 C5486 1.385 . S
C5490 C5489 1.374 . S
C5491 C5488 1.499 . S
C5491 C5492 1.373 . S
C5491 C5493 1.389 . S
C5492 H5465 0.950 . S
C5492 C5478 1.377 . S
C5492 C5491 1.373 . S
C5493 C5477 1.377 . S
C5493 C5491 1.389 . S
C5493 C5494 1.524 . S
C5494 C5493 1.524 . S
C5494 C5495 1.397 . S
C5494 C5499 1.363 . S
C5495 H5466 0.950 . S
C5495 C5494 1.397 . S
C5495 C5496 1.334 . S
C5496 H5467 0.950 . S
C5496 C5495 1.334 . S
C5496 C5497 1.287 . S
C5497 C5496 1.287 . S
C5497 C5498 1.524 . S
C5497 H5500 0.999 . S
C5498 H5468 0.950 . S
C5498 C5497 1.524 . S
C5498 C5499 1.415 . S
C5499 H5469 0.950 . S
C5499 C5494 1.363 . S
C5499 C5498 1.415 . S
H5500 C5497 0.999 . S
H5501 C5482 0.913 . S
H5502 C5520 0.951 . S
H5503 C5522 0.951 . S
H5504 C5524 0.950 . S
H5505 C5525 0.950 . S
H5506 C5527 0.950 . S
H5507 C5530 0.950 . S
H5508 C5531 0.950 . S
H5509 C5533 0.950 . S
H5510 C5534 0.950 . S
H5511 C5535 0.951 . S
H5512 C5537 0.951 . S
H5513 C5539 0.950 . S
H5514 C5540 0.950 . S
H5515 C5542 0.950 . S
H5516 C5545 0.950 . S
H5517 C5546 0.950 . S
H5518 C5548 0.950 . S
H5519 C5549 0.950 . S
C5520 H5502 0.951 . S
C5520 C5521 1.366 1_556 S
C5520 C5522 1.388 . S
C5521 C5520 1.366 1_554 S
C5521 C5525 1.385 . S
C5522 H5503 0.951 . S
C5522 C5520 1.388 . S
C5522 C5523 1.366 1_556 S
C5523 C5522 1.366 1_554 S
C5523 C5524 1.414 . S
C5523 C5526 1.499 . S
C5524 H5504 0.950 . S
C5524 C5523 1.414 . S
C5524 C5525 1.374 . S
C5525 H5505 0.950 . S
C5525 C5521 1.385 . S
C5525 C5524 1.374 . S
C5526 C5523 1.499 . S
C5526 C5527 1.373 . S
C5526 C5528 1.389 1_554 S
C5527 H5506 0.950 . S
C5527 C5526 1.373 . S
C5527 C5543 1.377 . S
C5528 C5526 1.389 1_556 S
C5528 C5529 1.524 . S
C5528 C5542 1.377 . S
C5529 C5528 1.524 . S
C5529 C5530 1.397 . S
C5529 C5534 1.363 . S
C5530 H5507 0.950 . S
C5530 C5529 1.397 . S
C5530 C5531 1.334 . S
C5531 H5508 0.950 . S
C5531 C5530 1.334 . S
C5531 C5532 1.287 . S
C5532 C5531 1.287 . S
C5532 C5533 1.524 . S
C5532 H5551 0.913 . S
C5533 H5509 0.950 . S
C5533 C5532 1.524 . S
C5533 C5534 1.415 . S
C5534 H5510 0.950 . S
C5534 C5529 1.363 . S
C5534 C5533 1.415 . S
C5535 H5511 0.951 . S
C5535 C5536 1.366 . S
C5535 C5537 1.388 . S
C5536 C5535 1.366 . S
C5536 C5540 1.385 1_554 S
C5537 H5512 0.951 . S
C5537 C5535 1.388 . S
C5537 C5538 1.366 . S
C5538 C5537 1.366 . S
C5538 C5539 1.414 1_554 S
C5538 C5541 1.499 . S
C5539 H5513 0.950 . S
C5539 C5538 1.414 1_556 S
C5539 C5540 1.374 . S
C5540 H5514 0.950 . S
C5540 C5536 1.385 1_556 S
C5540 C5539 1.374 . S
C5541 C5538 1.499 . S
C5541 C5542 1.373 1_554 S
C5541 C5543 1.389 . S
C5542 H5515 0.950 . S
C5542 C5528 1.377 . S
C5542 C5541 1.373 1_556 S
C5543 C5527 1.377 . S
C5543 C5541 1.389 . S
C5543 C5544 1.524 . S
C5544 C5543 1.524 . S
C5544 C5545 1.397 . S
C5544 C5549 1.363 . S
C5545 H5516 0.950 . S
C5545 C5544 1.397 . S
C5545 C5546 1.334 . S
C5546 H5517 0.950 . S
C5546 C5545 1.334 . S
C5546 C5547 1.287 . S
C5547 C5546 1.287 . S
C5547 C5548 1.524 . S
C5547 H5550 0.999 . S
C5548 H5518 0.950 . S
C5548 C5547 1.524 . S
C5548 C5549 1.415 . S
C5549 H5519 0.950 . S
C5549 C5544 1.363 . S
C5549 C5548 1.415 . S
H5550 C5547 0.999 . S
H5551 C5532 0.913 . S
H5552 C5570 0.951 . S
H5553 C5572 0.951 . S
H5554 C5574 0.950 . S
H5555 C5575 0.950 . S
H5556 C5577 0.950 . S
H5557 C5580 0.950 . S
H5558 C5581 0.950 . S
H5559 C5583 0.950 . S
H5560 C5584 0.950 . S
H5561 C5585 0.951 . S
H5562 C5587 0.951 . S
H5563 C5589 0.950 . S
H5564 C5590 0.950 . S
H5565 C5592 0.950 . S
H5566 C5595 0.950 . S
H5567 C5596 0.950 . S
H5568 C5598 0.950 . S
H5569 C5599 0.950 . S
C5570 H5552 0.951 . S
C5570 C5571 1.366 . S
C5570 C5572 1.388 . S
C5571 C5570 1.366 . S
C5571 C5575 1.385 . S
C5572 H5553 0.951 . S
C5572 C5570 1.388 . S
C5572 C5573 1.366 . S
C5573 C5572 1.366 . S
C5573 C5574 1.414 . S
C5573 C5576 1.499 . S
C5574 H5554 0.950 . S
C5574 C5573 1.414 . S
C5574 C5575 1.374 . S
C5575 H5555 0.950 . S
C5575 C5571 1.385 . S
C5575 C5574 1.374 . S
C5576 C5573 1.499 . S
C5576 C5577 1.373 . S
C5576 C5578 1.389 . S
C5577 H5556 0.950 . S
C5577 C5576 1.373 . S
C5577 C5593 1.377 . S
C5578 C5576 1.389 . S
C5578 C5579 1.524 . S
C5578 C5592 1.377 . S
C5579 C5578 1.524 . S
C5579 C5580 1.397 . S
C5579 C5584 1.363 . S
C5580 H5557 0.950 . S
C5580 C5579 1.397 . S
C5580 C5581 1.334 . S
C5581 H5558 0.950 . S
C5581 C5580 1.334 . S
C5581 C5582 1.287 . S
C5582 C5581 1.287 . S
C5582 C5583 1.524 . S
C5582 H5601 0.913 . S
C5583 H5559 0.950 . S
C5583 C5582 1.524 . S
C5583 C5584 1.415 . S
C5584 H5560 0.950 . S
C5584 C5579 1.363 . S
C5584 C5583 1.415 . S
C5585 H5561 0.951 . S
C5585 C5586 1.366 . S
C5585 C5587 1.388 . S
C5586 C5585 1.366 . S
C5586 C5590 1.385 . S
C5587 H5562 0.951 . S
C5587 C5585 1.388 . S
C5587 C5588 1.366 . S
C5588 C5587 1.366 . S
C5588 C5589 1.414 . S
C5588 C5591 1.499 . S
C5589 H5563 0.950 . S
C5589 C5588 1.414 . S
C5589 C5590 1.374 . S
C5590 H5564 0.950 . S
C5590 C5586 1.385 . S
C5590 C5589 1.374 . S
C5591 C5588 1.499 . S
C5591 C5592 1.373 . S
C5591 C5593 1.389 . S
C5592 H5565 0.950 . S
C5592 C5578 1.377 . S
C5592 C5591 1.373 . S
C5593 C5577 1.377 . S
C5593 C5591 1.389 . S
C5593 C5594 1.524 . S
C5594 C5593 1.524 . S
C5594 C5595 1.397 . S
C5594 C5599 1.363 . S
C5595 H5566 0.950 . S
C5595 C5594 1.397 . S
C5595 C5596 1.334 . S
C5596 H5567 0.950 . S
C5596 C5595 1.334 . S
C5596 C5597 1.287 . S
C5597 C5596 1.287 . S
C5597 C5598 1.524 . S
C5597 H5600 0.999 . S
C5598 H5568 0.950 . S
C5598 C5597 1.524 . S
C5598 C5599 1.415 . S
C5599 H5569 0.950 . S
C5599 C5594 1.363 . S
C5599 C5598 1.415 . S
H5600 C5597 0.999 . S
H5601 C5582 0.913 . S
H5602 C5620 0.951 . S
H5603 C5622 0.951 . S
H5604 C5624 0.950 1_556 S
H5605 C5625 0.950 1_556 S
H5606 C5627 0.950 . S
H5607 C5630 0.950 . S
H5608 C5631 0.950 . S
H5609 C5633 0.950 . S
H5610 C5634 0.950 . S
H5611 C5635 0.951 . S
H5612 C5637 0.951 . S
H5613 C5639 0.950 . S
H5614 C5640 0.950 . S
H5615 C5642 0.950 . S
H5616 C5645 0.950 . S
H5617 C5646 0.950 . S
H5618 C5648 0.950 . S
H5619 C5649 0.950 . S
C5620 H5602 0.951 . S
C5620 C5621 1.366 . S
C5620 C5622 1.388 . S
C5621 C5620 1.366 . S
C5621 C5625 1.385 . S
C5622 H5603 0.951 . S
C5622 C5620 1.388 . S
C5622 C5623 1.366 . S
C5623 C5622 1.366 . S
C5623 C5624 1.414 . S
C5623 C5626 1.499 . S
C5624 H5604 0.950 1_554 S
C5624 C5623 1.414 . S
C5624 C5625 1.374 . S
C5625 H5605 0.950 1_554 S
C5625 C5621 1.385 . S
C5625 C5624 1.374 . S
C5626 C5623 1.499 . S
C5626 C5627 1.373 1_554 S
C5626 C5628 1.389 . S
C5627 H5606 0.950 . S
C5627 C5626 1.373 1_556 S
C5627 C5643 1.377 . S
C5628 C5626 1.389 . S
C5628 C5629 1.524 . S
C5628 C5642 1.377 . S
C5629 C5628 1.524 . S
C5629 C5630 1.397 . S
C5629 C5634 1.363 . S
C5630 H5607 0.950 . S
C5630 C5629 1.397 . S
C5630 C5631 1.334 . S
C5631 H5608 0.950 . S
C5631 C5630 1.334 . S
C5631 C5632 1.287 . S
C5632 C5631 1.287 . S
C5632 C5633 1.524 . S
C5632 H5651 0.913 . S
C5633 H5609 0.950 . S
C5633 C5632 1.524 . S
C5633 C5634 1.415 . S
C5634 H5610 0.950 . S
C5634 C5629 1.363 . S
C5634 C5633 1.415 . S
C5635 H5611 0.951 . S
C5635 C5636 1.366 1_556 S
C5635 C5637 1.388 . S
C5636 C5635 1.366 1_554 S
C5636 C5640 1.385 . S
C5637 H5612 0.951 . S
C5637 C5635 1.388 . S
C5637 C5638 1.366 1_556 S
C5638 C5637 1.366 1_554 S
C5638 C5639 1.414 . S
C5638 C5641 1.499 . S
C5639 H5613 0.950 . S
C5639 C5638 1.414 . S
C5639 C5640 1.374 . S
C5640 H5614 0.950 . S
C5640 C5636 1.385 . S
C5640 C5639 1.374 . S
C5641 C5638 1.499 . S
C5641 C5642 1.373 . S
C5641 C5643 1.389 1_554 S
C5642 H5615 0.950 . S
C5642 C5628 1.377 . S
C5642 C5641 1.373 . S
C5643 C5627 1.377 . S
C5643 C5641 1.389 1_556 S
C5643 C5644 1.524 . S
C5644 C5643 1.524 . S
C5644 C5645 1.397 . S
C5644 C5649 1.363 . S
C5645 H5616 0.950 . S
C5645 C5644 1.397 . S
C5645 C5646 1.334 . S
C5646 H5617 0.950 . S
C5646 C5645 1.334 . S
C5646 C5647 1.287 . S
C5647 C5646 1.287 . S
C5647 C5648 1.524 . S
C5647 H5650 0.999 . S
C5648 H5618 0.950 . S
C5648 C5647 1.524 . S
C5648 C5649 1.415 . S
C5649 H5619 0.950 . S
C5649 C5644 1.363 . S
C5649 C5648 1.415 . S
H5650 C5647 0.999 . S
H5651 C5632 0.913 . S
H5652 C5670 0.951 . S
H5653 C5672 0.951 . S
H5654 C5674 0.950 . S
H5655 C5675 0.950 . S
H5656 C5677 0.950 . S
H5657 C5680 0.950 . S
H5658 C5681 0.950 . S
H5659 C5683 0.950 . S
H5660 C5684 0.950 . S
H5661 C5685 0.951 . S
H5662 C5687 0.951 . S
H5663 C5689 0.950 . S
H5664 C5690 0.950 . S
H5665 C5692 0.950 . S
H5666 C5695 0.950 . S
H5667 C5696 0.950 . S
H5668 C5698 0.950 . S
H5669 C5699 0.950 . S
C5670 H5652 0.951 . S
C5670 C5671 1.366 . S
C5670 C5672 1.388 . S
C5671 C5670 1.366 . S
C5671 C5675 1.385 . S
C5672 H5653 0.951 . S
C5672 C5670 1.388 . S
C5672 C5673 1.366 . S
C5673 C5672 1.366 . S
C5673 C5674 1.414 . S
C5673 C5676 1.499 . S
C5674 H5654 0.950 . S
C5674 C5673 1.414 . S
C5674 C5675 1.374 . S
C5675 H5655 0.950 . S
C5675 C5671 1.385 . S
C5675 C5674 1.374 . S
C5676 C5673 1.499 . S
C5676 C5677 1.373 . S
C5676 C5678 1.389 . S
C5677 H5656 0.950 . S
C5677 C5676 1.373 . S
C5677 C5693 1.377 . S
C5678 C5676 1.389 . S
C5678 C5679 1.524 . S
C5678 C5692 1.377 . S
C5679 C5678 1.524 . S
C5679 C5680 1.397 . S
C5679 C5684 1.363 . S
C5680 H5657 0.950 . S
C5680 C5679 1.397 . S
C5680 C5681 1.334 . S
C5681 H5658 0.950 . S
C5681 C5680 1.334 . S
C5681 C5682 1.287 . S
C5682 C5681 1.287 . S
C5682 C5683 1.524 . S
C5682 H5701 0.913 . S
C5683 H5659 0.950 . S
C5683 C5682 1.524 . S
C5683 C5684 1.415 . S
C5684 H5660 0.950 . S
C5684 C5679 1.363 . S
C5684 C5683 1.415 . S
C5685 H5661 0.951 . S
C5685 C5686 1.366 . S
C5685 C5687 1.388 . S
C5686 C5685 1.366 . S
C5686 C5690 1.385 . S
C5687 H5662 0.951 . S
C5687 C5685 1.388 . S
C5687 C5688 1.366 . S
C5688 C5687 1.366 . S
C5688 C5689 1.414 . S
C5688 C5691 1.499 . S
C5689 H5663 0.950 . S
C5689 C5688 1.414 . S
C5689 C5690 1.374 . S
C5690 H5664 0.950 . S
C5690 C5686 1.385 . S
C5690 C5689 1.374 . S
C5691 C5688 1.499 . S
C5691 C5692 1.373 . S
C5691 C5693 1.389 . S
C5692 H5665 0.950 . S
C5692 C5678 1.377 . S
C5692 C5691 1.373 . S
C5693 C5677 1.377 . S
C5693 C5691 1.389 . S
C5693 C5694 1.524 . S
C5694 C5693 1.524 . S
C5694 C5695 1.397 . S
C5694 C5699 1.363 . S
C5695 H5666 0.950 . S
C5695 C5694 1.397 . S
C5695 C5696 1.334 . S
C5696 H5667 0.950 . S
C5696 C5695 1.334 . S
C5696 C5697 1.287 . S
C5697 C5696 1.287 . S
C5697 C5698 1.524 . S
C5697 H5700 0.999 . S
C5698 H5668 0.950 . S
C5698 C5697 1.524 . S
C5698 C5699 1.415 . S
C5699 H5669 0.950 . S
C5699 C5694 1.363 . S
C5699 C5698 1.415 . S
H5700 C5697 0.999 . S
H5701 C5682 0.913 . S
H5702 C5720 0.951 . S
H5703 C5722 0.951 . S
H5704 C5724 0.950 . S
H5705 C5725 0.950 . S
H5706 C5727 0.950 . S
H5707 C5730 0.950 . S
H5708 C5731 0.950 . S
H5709 C5733 0.950 . S
H5710 C5734 0.950 . S
H5711 C5735 0.951 . S
H5712 C5737 0.951 . S
H5713 C5739 0.950 . S
H5714 C5740 0.950 . S
H5715 C5742 0.950 . S
H5716 C5745 0.950 . S
H5717 C5746 0.950 . S
H5718 C5748 0.950 . S
H5719 C5749 0.950 . S
C5720 H5702 0.951 . S
C5720 C5721 1.366 . S
C5720 C5722 1.388 . S
C5721 C5720 1.366 . S
C5721 C5725 1.385 . S
C5722 H5703 0.951 . S
C5722 C5720 1.388 . S
C5722 C5723 1.366 . S
C5723 C5722 1.366 . S
C5723 C5724 1.414 . S
C5723 C5726 1.499 . S
C5724 H5704 0.950 . S
C5724 C5723 1.414 . S
C5724 C5725 1.374 . S
C5725 H5705 0.950 . S
C5725 C5721 1.385 . S
C5725 C5724 1.374 . S
C5726 C5723 1.499 . S
C5726 C5727 1.373 . S
C5726 C5728 1.389 . S
C5727 H5706 0.950 . S
C5727 C5726 1.373 . S
C5727 C5743 1.377 . S
C5728 C5726 1.389 . S
C5728 C5729 1.524 . S
C5728 C5742 1.377 . S
C5729 C5728 1.524 . S
C5729 C5730 1.397 . S
C5729 C5734 1.363 . S
C5730 H5707 0.950 . S
C5730 C5729 1.397 . S
C5730 C5731 1.334 . S
C5731 H5708 0.950 . S
C5731 C5730 1.334 . S
C5731 C5732 1.287 . S
C5732 C5731 1.287 . S
C5732 C5733 1.524 . S
C5732 H5751 0.913 . S
C5733 H5709 0.950 . S
C5733 C5732 1.524 . S
C5733 C5734 1.415 . S
C5734 H5710 0.950 . S
C5734 C5729 1.363 . S
C5734 C5733 1.415 . S
C5735 H5711 0.951 . S
C5735 C5736 1.366 . S
C5735 C5737 1.388 . S
C5736 C5735 1.366 . S
C5736 C5740 1.385 . S
C5737 H5712 0.951 . S
C5737 C5735 1.388 . S
C5737 C5738 1.366 . S
C5738 C5737 1.366 . S
C5738 C5739 1.414 . S
C5738 C5741 1.499 . S
C5739 H5713 0.950 . S
C5739 C5738 1.414 . S
C5739 C5740 1.374 . S
C5740 H5714 0.950 . S
C5740 C5736 1.385 . S
C5740 C5739 1.374 . S
C5741 C5738 1.499 . S
C5741 C5742 1.373 . S
C5741 C5743 1.389 . S
C5742 H5715 0.950 . S
C5742 C5728 1.377 . S
C5742 C5741 1.373 . S
C5743 C5727 1.377 . S
C5743 C5741 1.389 . S
C5743 C5744 1.524 . S
C5744 C5743 1.524 . S
C5744 C5745 1.397 . S
C5744 C5749 1.363 . S
C5745 H5716 0.950 . S
C5745 C5744 1.397 . S
C5745 C5746 1.334 . S
C5746 H5717 0.950 . S
C5746 C5745 1.334 . S
C5746 C5747 1.287 . S
C5747 C5746 1.287 . S
C5747 C5748 1.524 . S
C5747 H5750 0.999 . S
C5748 H5718 0.950 . S
C5748 C5747 1.524 . S
C5748 C5749 1.415 . S
C5749 H5719 0.950 . S
C5749 C5744 1.363 . S
C5749 C5748 1.415 . S
H5750 C5747 0.999 . S
H5751 C5732 0.913 . S
C971 C101 2.114 . S
C986 C314 2.062 . S
C1021 C57 1.979 . S
C1036 C371 2.011 . S
C1071 C70 0.777 . S
C1086 C394 0.774 . S
C1136 C448 1.377 . S
C1121 C82 1.386 . S
C1171 C23 1.279 . S
C1186 C488 1.254 . S
C1236 C519 0.277 . S
C1221 C29 0.165 . S
C1286 C571 1.029 . S
C1271 C49 1.005 . S
C1321 C10 1.715 . S
C1336 C594 1.644 . S
C1386 C331 2.329 . S
C1371 C218 2.328 . S
C1421 C226 0.332 . S
C1436 C368 0.430 . S
C1486 C411 1.297 . S
C1471 C251 1.292 . S
C1536 C434 0.986 . S
C1521 C159 1.003 . S
C1571 C211 1.669 . S
C1586 C474 1.632 . S
C1636 C522 1.438 . S
C1621 C225 1.449 . S
C1686 C568 0.349 . S
C1671 C252 0.184 . S
C1736 C611 1.901 . S
C1721 C166 1.914 . S
C1786 C328 1.443 . S
C1771 C147 1.473 . S
C1821 C263 1.898 . S
C1836 C651 1.917 . S
C1886 C683 2.532 . S
C1871 C309 2.578 . S
C1936 C714 0.378 . S
C1921 C291 0.300 . S
C1971 C108 1.400 . S
C1986 C608 1.374 . S
C2021 C121 1.544 . S
C2036 C408 1.528 . S
C2071 C302 2.205 . S
C2086 C771 2.206 . S
C2136 C794 0.475 . S
C2121 C276 0.349 . S
C2186 C323 2.304 1_565 S
C2171 C55 2.336 . S
C2236 C802 2.353 . S
C2221 C96 2.362 . S
C2271 C88 1.287 . S
C2286 C403 1.264 . S
C2321 C75 1.658 . S
C2336 C759 1.647 . S
C2386 C479 1.336 . S
C2371 C4 1.353 . S
C2421 C44 0.476 . S
C2436 C688 0.482 . S
C2486 C562 1.515 1_565 S
C2471 C31 1.513 . S
C2536 C843 1.840 . S
C2521 C18 1.893 . S
C2586 C322 2.626 . S
C2571 C133 2.643 . S
C2636 C799 0.487 . S
C2621 C296 0.459 . S
C2671 C107 1.636 . S
C2686 C402 1.618 . S
C2721 C264 1.458 . S
C2736 C763 1.442 . S
C2771 C140 1.970 . S
C2786 C483 1.958 . S
C2836 C691 1.625 . S
C2821 C289 1.657 . S
C2871 C114 0.355 . S
C2886 C559 0.398 . S
C2921 C265 2.219 . S
C2936 C842 2.196 . S
C2971 C179 1.598 . S
C2986 C319 1.575 . S
C3021 C161 2.247 . S
C3036 C642 2.238 . S
C3071 C244 2.871 . S
C3086 C514 2.823 . S
C3121 C224 0.947 . S
C3136 C723 0.943 . S
C3186 C839 1.385 . S
C3171 C257 1.400 . S
C3221 C199 1.677 . S
C3236 C399 1.664 . S
C3286 C442 2.532 . S
C3271 C237 2.556 . S
C3336 C363 0.733 . S
C3321 C185 0.732 . S
C3371 C69 2.115 . S
C3386 C874 2.064 . S
C3436 C811 2.010 . S
C3421 C83 1.979 . S
C3471 C94 0.780 . S
C3486 C914 0.776 . S
C3521 C56 1.387 . S
C3536 C768 1.378 . S
C3571 C42 1.295 . S
C3586 C648 1.264 . S
C3636 C679 0.281 . S
C3621 C3 0.168 . S
C3686 C731 1.039 . S
C3671 C16 1.010 . S
C3736 C834 1.644 . S
C3721 C36 1.716 . S
C3786 C891 2.329 . S
C3771 C238 2.328 . S
C3821 C174 0.327 . S
C3836 C808 0.426 . S
C3886 C931 1.298 . S
C3871 C186 1.293 . S
C3936 C754 0.985 . S
C3921 C198 1.002 . S
C3986 C634 1.633 . S
C3971 C239 1.672 . S
C4021 C173 1.449 . S
C4036 C682 1.437 . S
C4086 C728 0.354 . S
C4071 C187 0.188 . S
C4121 C205 1.914 . S
C4136 C851 1.901 . S
C4186 C888 1.441 . S
C4171 C290 1.471 . S
C4221 C122 1.899 . S
C4236 C491 1.918 . S
C4286 C523 2.540 . S
C4271 C134 2.586 . S
C4336 C554 0.379 . S
C4321 C148 0.299 . S
C4386 C848 1.370 . S
C4371 C283 1.396 . S
C4421 C270 1.542 . S
C4436 C928 1.526 . S
C4486 C451 2.204 . S
C4471 C135 2.204 . S
C4536 C354 0.472 . S
C4521 C109 0.346 . S
C4571 C81 2.336 . S
C4586 C883 2.305 . S
C4636 C362 2.352 . S
C4621 C68 2.361 . S
C4671 C62 1.287 . S
C4686 C923 1.263 . S
C4721 C95 1.657 . S
C4736 C439 1.646 . S
C4771 C30 1.352 . S
C4786 C639 1.335 . S
C4836 C528 0.469 . S
C4821 C17 0.454 . S
C4871 C5 1.514 . S
C4886 C722 1.518 . S
C4921 C43 1.877 . S
C4936 C603 1.828 . S
C4986 C882 2.626 . S
C4971 C304 2.643 . S
C5021 C153 0.457 . S
C5036 C359 0.485 . S
C5086 C922 1.619 . S
C5071 C278 1.637 . S
C5121 C127 1.457 . S
C5136 C443 1.441 . S
C5171 C303 1.963 . S
C5186 C643 1.951 . S
C5236 C531 1.622 . S
C5221 C146 1.654 . S
C5271 C277 0.351 . S
C5286 C719 0.395 . S
C5336 C602 2.193 . S
C5321 C120 2.216 . S
C5386 C879 1.575 . S
C5371 C231 1.598 . S
C5436 C482 2.237 1_665 S
C5421 C200 2.247 . S
C5471 C212 2.876 . S
C5486 C674 2.829 . S
C5536 C563 0.943 . S
C5521 C172 0.946 . S
C5571 C192 1.398 . S
C5586 C599 1.383 . S
C5621 C160 1.677 . S
C5636 C919 1.665 . S
C5686 C762 2.533 . S
C5671 C213 2.558 1_565 S
C5736 C803 0.736 . S
C5721 C250 0.734 . S
