# Generated by pormake.
# Topology bcu-b, (8,8)-cn, num edge types: 1
# Building blocks:
#     Node 0, Type 0, BuildingBlock: TAGTUT_clean_sbu_3, # of connection points: 8
#     Node 1, Type 1, BuildingBlock: VETTIZ_charged_sbu_0, # of connection points: 8
#     Edge 2, Type (0, 1), BuildingBlock: MIFKUJ_clean_linker_0, # of connection points: 2
#     Edge 3, Type (0, 1), BuildingBlock: MIFKUJ_clean_linker_0, # of connection points: 2
#     Edge 4, Type (0, 1), BuildingBlock: MIFKUJ_clean_linker_0, # of connection points: 2
#     Edge 5, Type (0, 1), BuildingBlock: MIFKUJ_clean_linker_0, # of connection points: 2
#     Edge 6, Type (0, 1), BuildingBlock: MIFKUJ_clean_linker_0, # of connection points: 2
#     Edge 7, Type (0, 1), BuildingBlock: MIFKUJ_clean_linker_0, # of connection points: 2
#     Edge 8, Type (0, 1), BuildingBlock: MIFKUJ_clean_linker_0, # of connection points: 2
#     Edge 9, Type (0, 1), BuildingBlock: MIFKUJ_clean_linker_0, # of connection points: 2
# Relax obj value: 0.022
# Max RMSD: 0.106
# Mean RMSD: 0.075
data_MOF--net-bcu-b--node1-TAGTUT_clean_sbu_3--node2-VETTIZ_charged_sbu_0--edge1-MIFKUJ_clean_linker_0
_symmetry_space_group_name_H-M    P1
_symmetry_Int_Tables_number       1
_symmetry_cell_setting            triclinic
loop_
_symmetry_equiv_pos_as_xyz
'x, y, z'
_cell_length_a     24.890868
_cell_length_b     24.637771
_cell_length_c     25.428017
_cell_angle_alpha  90.469543
_cell_angle_beta   89.773348
_cell_angle_gamma 97.815426
loop_
_atom_site_label
_atom_site_type_symbol
_atom_site_fract_x
_atom_site_fract_y
_atom_site_fract_z
_atom_type_partial_charge
C0 C 0.08803 0.09005 0.07624 0.0
C1 C 0.15024 0.8917 0.07723 0.0
C2 C 0.0946 0.88543 0.91608 0.0
Mg3 Mg 0.98898 0.13114 0.00918 0.0
Mg4 Mg 0.88331 0.04056 0.98051 0.0
O5 O 0.95858 0.06213 0.97094 0.0
Mg6 Mg 0.00633 0.01117 1.00077 0.0
O7 O 0.05657 0.96339 0.03095 0.0
Mg8 Mg 0.12682 0.9959 0.99781 0.0
Mg9 Mg 0.03821 0.88748 0.02204 0.0
C10 C 0.91929 0.93279 0.92821 0.0
O11 O 0.93974 0.96834 0.0566 0.0
O12 O 0.93109 0.17386 0.954 0.0
O13 O 0.95549 0.88026 0.05097 0.0
O14 O 0.92393 0.12298 0.07312 0.0
O15 O 0.85969 0.10866 0.93838 0.0
O16 O 0.85909 0.05247 0.06146 0.0
O17 O 0.07599 0.04928 0.94726 0.0
O18 O 0.05781 0.13594 0.94941 0.0
C19 C 0.08768 0.10001 0.93482 0.0
C20 C 0.88449 0.15745 0.93295 0.0
O21 O 0.96919 0.94747 0.94062 0.0
O22 O 0.16736 0.9372 0.05395 0.0
O23 O 0.88072 0.95923 0.9436 0.0
O24 O 0.12371 0.92949 0.93162 0.0
O25 O 0.10213 0.86654 0.07073 0.0
O26 O 0.05408 0.86366 0.94287 0.0
O27 O 0.03969 0.07789 0.05858 0.0
O28 O 0.1261 0.06273 0.06186 0.0
C29 C 0.88148 0.09276 0.08903 0.0
C30 C 0.92623 0.91687 0.06539 0.0
Fe31 Fe 0.52451 0.62788 0.54543 0.0
O32 O 0.51074 0.54791 0.53791 0.0
Fe33 Fe 0.56949 0.50962 0.49798 0.0
Fe34 Fe 0.44489 0.50762 0.50376 0.0
O35 O 0.51601 0.54828 0.53705 0.0
O36 O 0.50378 0.46943 0.46348 0.0
O37 O 0.49839 0.46879 0.46472 0.0
Fe38 Fe 0.49162 0.38897 0.45745 0.0
C39 C 0.41018 0.59085 0.58654 0.0
O40 O 0.46893 0.64242 0.48863 0.0
O41 O 0.44841 0.56382 0.44418 0.0
O42 O 0.55315 0.40508 0.40364 0.0
O43 O 0.61696 0.46245 0.45088 0.0
O44 O 0.5768 0.56733 0.43901 0.0
O45 O 0.58507 0.64189 0.48988 0.0
O46 O 0.38269 0.46002 0.46155 0.0
O47 O 0.42739 0.40242 0.41016 0.0
C48 C 0.59212 0.61828 0.44622 0.0
O49 O 0.55216 0.37619 0.51062 0.0
O50 O 0.56496 0.45344 0.55712 0.0
O51 O 0.45932 0.61379 0.59627 0.0
O52 O 0.39707 0.55472 0.54934 0.0
C53 C 0.45042 0.6156 0.44795 0.0
C54 C 0.38551 0.42652 0.42197 0.0
C55 C 0.42759 0.39935 0.55937 0.0
O56 O 0.43862 0.4512 0.56365 0.0
O57 O 0.43517 0.37402 0.51674 0.0
C58 C 0.60236 0.42846 0.41206 0.0
O59 O 0.63126 0.55608 0.54229 0.0
O60 O 0.58506 0.61118 0.59526 0.0
C61 C 0.56969 0.40314 0.55153 0.0
C62 C 0.62703 0.58705 0.58367 0.0
H63 H 0.17815 0.11087 0.13683 0.0
H64 H 0.20026 0.18396 0.20116 0.0
H65 H 0.05028 0.24595 0.16779 0.0
H66 H 0.02711 0.17179 0.10301 0.0
H67 H 0.15199 0.32753 0.17151 0.0
H68 H 0.0469 0.19462 0.27603 0.0
H69 H 0.01463 0.10159 0.30781 0.0
H70 H 0.1737 0.08735 0.36618 0.0
H71 H 0.2072 0.17995 0.334 0.0
H72 H 0.27851 0.41749 0.4512 0.0
H73 H 0.19975 0.3802 0.39766 0.0
H74 H 0.30539 0.36634 0.26471 0.0
H75 H 0.38357 0.40269 0.31773 0.0
H76 H 0.18845 0.27669 0.35516 0.0
H77 H 0.24104 0.38356 0.15231 0.0
H78 H 0.27402 0.4764 0.12054 0.0
H79 H 0.21527 0.54619 0.2612 0.0
H80 H 0.18093 0.45387 0.29345 0.0
C81 C 0.1497 0.13993 0.14287 0.0
C82 C 0.10081 0.13541 0.11469 0.0
C83 C 0.16238 0.18161 0.17985 0.0
C84 C 0.12676 0.22003 0.18935 0.0
C85 C 0.07817 0.21649 0.16096 0.0
C86 C 0.065 0.17407 0.12415 0.0
C87 C 0.14194 0.26349 0.22913 0.0
C88 C 0.15911 0.31702 0.21198 0.0
C89 C 0.14956 0.24981 0.28221 0.0
C90 C 0.12957 0.19433 0.30252 0.0
C91 C 0.07509 0.17157 0.29542 0.0
C92 C 0.05657 0.1189 0.31352 0.0
C93 C 0.09209 0.08858 0.33901 0.0
C94 C 0.14621 0.11092 0.34651 0.0
C95 C 0.16496 0.16357 0.32844 0.0
C96 C 0.28456 0.40763 0.41019 0.0
C97 C 0.3371 0.41246 0.38865 0.0
C98 C 0.23966 0.38631 0.37975 0.0
C99 C 0.24668 0.37092 0.32712 0.0
C100 C 0.29885 0.3787 0.30497 0.0
C101 C 0.34359 0.39903 0.33545 0.0
C102 C 0.20175 0.33991 0.2967 0.0
C103 C 0.17939 0.28834 0.31545 0.0
C104 C 0.18895 0.35572 0.24533 0.0
C105 C 0.20844 0.41155 0.22539 0.0
C106 C 0.23462 0.41865 0.17629 0.0
C107 C 0.25368 0.47125 0.15823 0.0
C108 C 0.24679 0.51716 0.18885 0.0
C109 C 0.22066 0.51059 0.23755 0.0
C110 C 0.20143 0.45811 0.25575 0.0
H111 H 0.26169 0.55783 0.17484 0.0
H112 H 0.07769 0.04778 0.35295 0.0
H113 H 0.77315 0.09048 0.10739 0.0
H114 H 0.73274 0.14767 0.17178 0.0
H115 H 0.88984 0.19605 0.24123 0.0
H116 H 0.9306 0.13988 0.17644 0.0
H117 H 0.7924 0.18405 0.31509 0.0
H118 H 0.86629 0.27332 0.15531 0.0
H119 H 0.87627 0.27735 0.05882 0.0
H120 H 0.70471 0.27796 0.04262 0.0
H121 H 0.6936 0.27278 0.13906 0.0
H122 H 0.70944 0.42056 0.43429 0.0
H123 H 0.76889 0.36717 0.38401 0.0
H124 H 0.64622 0.33537 0.26398 0.0
H125 H 0.5886 0.39025 0.3122 0.0
H126 H 0.73772 0.34217 0.21875 0.0
H127 H 0.65936 0.24682 0.37294 0.0
H128 H 0.643 0.23654 0.46835 0.0
H129 H 0.81394 0.24181 0.49466 0.0
H130 H 0.83135 0.25291 0.39942 0.0
C131 C 0.79863 0.11141 0.13777 0.0
C132 C 0.85498 0.11109 0.13677 0.0
C133 C 0.77559 0.1443 0.17433 0.0
C134 C 0.80851 0.17651 0.21077 0.0
C135 C 0.86382 0.17149 0.21346 0.0
C136 C 0.887 0.13942 0.17641 0.0
C137 C 0.78723 0.22163 0.23954 0.0
C138 C 0.78097 0.219 0.29431 0.0
C139 C 0.77216 0.26695 0.21219 0.0
C140 C 0.77907 0.27218 0.15436 0.0
C141 C 0.83066 0.27398 0.13116 0.0
C142 C 0.83652 0.27647 0.07648 0.0
C143 C 0.79113 0.27779 0.0446 0.0
C144 C 0.73982 0.27687 0.06737 0.0
C145 C 0.73372 0.27419 0.12203 0.0
C146 C 0.69612 0.40372 0.39631 0.0
C147 C 0.644 0.40891 0.37762 0.0
C148 C 0.72977 0.37256 0.36792 0.0
C149 C 0.7114 0.3457 0.32088 0.0
C150 C 0.66134 0.35506 0.30027 0.0
C151 C 0.62821 0.3864 0.32813 0.0
C152 C 0.74125 0.30439 0.29468 0.0
C153 C 0.74951 0.30769 0.24002 0.0
C154 C 0.75722 0.25928 0.32216 0.0
C155 C 0.7467 0.25127 0.37919 0.0
C156 C 0.69346 0.246 0.39913 0.0
C157 C 0.684 0.24007 0.45315 0.0
C158 C 0.72742 0.2387 0.48756 0.0
C159 C 0.78037 0.243 0.46797 0.0
C160 C 0.79005 0.2491 0.41398 0.0
H161 H 0.72005 0.23416 0.52936 0.0
H162 H 0.79574 0.27964 0.00227 0.0
H163 H 0.88902 0.964 0.15337 0.0
H164 H 0.8209 0.91984 0.21529 0.0
H165 H 0.78503 0.78313 0.10833 0.0
H166 H 0.85415 0.82606 0.0473 0.0
H167 H 0.68994 0.82356 0.17261 0.0
H168 H 0.86796 0.75899 0.18303 0.0
H169 H 0.96765 0.77618 0.19007 0.0
H170 H 0.95408 0.86451 0.33475 0.0
H171 H 0.85421 0.8486 0.32798 0.0
H172 H 0.59143 0.59822 0.33967 0.0
H173 H 0.63959 0.65605 0.27136 0.0
H174 H 0.70794 0.77044 0.39045 0.0
H175 H 0.66007 0.71361 0.4584 0.0
H176 H 0.78419 0.74602 0.3203 0.0
H177 H 0.61105 0.80443 0.3197 0.0
H178 H 0.51147 0.79717 0.31571 0.0
H179 H 0.51345 0.73134 0.15898 0.0
H180 H 0.61322 0.73721 0.16235 0.0
C181 C 0.86537 0.92535 0.14249 0.0
C182 C 0.87701 0.89802 0.09603 0.0
C183 C 0.82661 0.90022 0.17778 0.0
C184 C 0.79829 0.84821 0.16629 0.0
C185 C 0.80637 0.82334 0.11769 0.0
C186 C 0.84596 0.84775 0.08307 0.0
C187 C 0.76705 0.81601 0.20774 0.0
C188 C 0.71033 0.80606 0.20468 0.0
C189 C 0.79386 0.79449 0.25008 0.0
C190 C 0.85376 0.8032 0.25467 0.0
C191 C 0.88628 0.7825 0.21607 0.0
C192 C 0.94278 0.79193 0.22005 0.0
C193 C 0.9672 0.82157 0.26274 0.0
C194 C 0.93512 0.84166 0.30164 0.0
C195 C 0.87858 0.83245 0.29776 0.0
C196 C 0.61686 0.63562 0.35116 0.0
C197 C 0.62184 0.65139 0.40436 0.0
C198 C 0.64404 0.66874 0.31218 0.0
C199 C 0.67704 0.71768 0.32591 0.0
C200 C 0.68263 0.73293 0.37901 0.0
C201 C 0.65504 0.7004 0.41776 0.0
C202 C 0.70669 0.75279 0.28523 0.0
C203 C 0.76341 0.7633 0.28836 0.0
C204 C 0.67964 0.77546 0.24356 0.0
C205 C 0.61961 0.77062 0.24153 0.0
C206 C 0.59026 0.78767 0.28463 0.0
C207 C 0.53381 0.78394 0.28245 0.0
C208 C 0.50624 0.76372 0.23718 0.0
C209 C 0.53497 0.74692 0.19404 0.0
C210 C 0.59148 0.75043 0.19607 0.0
H211 H 0.46268 0.76152 0.23545 0.0
H212 H 0.01095 0.82883 0.26576 0.0
H213 H 0.26183 0.91006 0.08482 0.0
H214 H 0.319 0.86556 0.14527 0.0
H215 H 0.17594 0.77409 0.21343 0.0
H216 H 0.11908 0.81755 0.15368 0.0
H217 H 0.24833 0.8193 0.2885 0.0
H218 H 0.24645 0.71148 0.12859 0.0
H219 H 0.26103 0.69692 0.03379 0.0
H220 H 0.4301 0.75789 0.05106 0.0
H221 H 0.41629 0.77359 0.14582 0.0
H222 H 0.39242 0.5724 0.36226 0.0
H223 H 0.34742 0.62179 0.29619 0.0
H224 H 0.4116 0.77545 0.36926 0.0
H225 H 0.45617 0.72657 0.43585 0.0
H226 H 0.37855 0.69866 0.22285 0.0
H227 H 0.31289 0.85887 0.36963 0.0
H228 H 0.2932 0.86673 0.46439 0.0
H229 H 0.25128 0.69216 0.47358 0.0
H230 H 0.26982 0.68335 0.37878 0.0
C231 C 0.24269 0.88063 0.11285 0.0
C232 C 0.18594 0.86716 0.11418 0.0
C233 C 0.27533 0.85514 0.14718 0.0
C234 C 0.25162 0.8164 0.18367 0.0
C235 C 0.19506 0.80387 0.18565 0.0
C236 C 0.16264 0.82863 0.15116 0.0
C237 C 0.28508 0.78805 0.21979 0.0
C238 C 0.27746 0.79363 0.27418 0.0
C239 C 0.32198 0.75343 0.20107 0.0
C240 C 0.33023 0.74422 0.14413 0.0
C241 C 0.28662 0.72224 0.11205 0.0
C242 C 0.29476 0.7137 0.05835 0.0
C243 C 0.34642 0.72662 0.03638 0.0
C244 C 0.39008 0.74799 0.0681 0.0
C245 C 0.38214 0.75668 0.12181 0.0
C246 C 0.39743 0.61675 0.36407 0.0
C247 C 0.42728 0.64545 0.40493 0.0
C248 C 0.3718 0.6449 0.32611 0.0
C249 C 0.37546 0.70223 0.3283 0.0
C250 C 0.40743 0.73112 0.36741 0.0
C251 C 0.4329 0.70307 0.40547 0.0
C252 C 0.34341 0.73161 0.29164 0.0
C253 C 0.3506 0.72557 0.23723 0.0
C254 C 0.30574 0.76552 0.31033 0.0
C255 C 0.29337 0.77046 0.36721 0.0
C256 C 0.29924 0.8222 0.39184 0.0
C257 C 0.28829 0.82682 0.44556 0.0
C258 C 0.27119 0.77996 0.47503 0.0
C259 C 0.26472 0.72841 0.45077 0.0
C260 C 0.27548 0.72359 0.39705 0.0
H261 H 0.26285 0.78361 0.51663 0.0
H262 H 0.35265 0.71995 0.9948 0.0
H263 H 0.18901 0.90818 0.8607 0.0
H264 H 0.22454 0.85195 0.79364 0.0
H265 H 0.07615 0.73877 0.79755 0.0
H266 H 0.04105 0.79395 0.86691 0.0
H267 H 0.15606 0.68298 0.79931 0.0
H268 H 0.1142 0.82313 0.6877 0.0
H269 H 0.1089 0.91703 0.65739 0.0
H270 H 0.28267 0.94951 0.65069 0.0
H271 H 0.28912 0.85609 0.68171 0.0
H272 H 0.29974 0.55509 0.58544 0.0
H273 H 0.22831 0.59762 0.63082 0.0
H274 H 0.34992 0.71756 0.70062 0.0
H275 H 0.42085 0.67567 0.65702 0.0
H276 H 0.26155 0.76028 0.645 0.0
H277 H 0.29698 0.62154 0.77375 0.0
H278 H 0.29837 0.52584 0.80082 0.0
H279 H 0.12829 0.48866 0.76757 0.0
H280 H 0.12612 0.58406 0.7395 0.0
C281 C 0.16336 0.87191 0.84677 0.0
C282 C 0.1121 0.85573 0.86933 0.0
C283 C 0.1837 0.83976 0.808 0.0
C284 C 0.15286 0.79126 0.78973 0.0
C285 C 0.10079 0.77596 0.81082 0.0
C286 C 0.08063 0.80779 0.85029 0.0
C287 C 0.17725 0.75503 0.7518 0.0
C288 C 0.17793 0.6997 0.76481 0.0
C289 C 0.20565 0.77629 0.7064 0.0
C290 C 0.20211 0.83253 0.68726 0.0
C291 C 0.15131 0.85036 0.68004 0.0
C292 C 0.14811 0.90352 0.66271 0.0
C293 C 0.19542 0.93922 0.65217 0.0
C294 C 0.24605 0.92179 0.65884 0.0
C295 C 0.2495 0.86868 0.6762 0.0
C296 C 0.31127 0.59011 0.61095 0.0
C297 C 0.36626 0.61186 0.6173 0.0
C298 C 0.2704 0.61438 0.6367 0.0
C299 C 0.28398 0.66099 0.66861 0.0
C300 C 0.33862 0.68187 0.67581 0.0
C301 C 0.37922 0.65748 0.6509 0.0
C302 C 0.2422 0.68974 0.69424 0.0
C303 C 0.23827 0.74353 0.6787 0.0
C304 C 0.21015 0.6668 0.73658 0.0
C305 C 0.21156 0.60969 0.75382 0.0
C306 C 0.26001 0.59283 0.77169 0.0
C307 C 0.26091 0.53868 0.78733 0.0
C308 C 0.2135 0.50114 0.78571 0.0
C309 C 0.16502 0.51774 0.76865 0.0
C310 C 0.16393 0.57184 0.75288 0.0
H311 H 0.21428 0.45924 0.79783 0.0
H312 H 0.19284 0.98038 0.6388 0.0
H313 H 0.15329 0.19425 0.95348 0.0
H314 H 0.22408 0.23945 0.89626 0.0
H315 H 0.20544 0.09875 0.79259 0.0
H316 H 0.13442 0.05243 0.85093 0.0
H317 H 0.31614 0.15454 0.80217 0.0
H318 H 0.13511 0.19611 0.76728 0.0
H319 H 0.04752 0.22585 0.79135 0.0
H320 H 0.12971 0.38173 0.84269 0.0
H321 H 0.2179 0.35244 0.82005 0.0
H322 H 0.40174 0.28821 0.56455 0.0
H323 H 0.35673 0.2344 0.63576 0.0
H324 H 0.35291 0.38167 0.72786 0.0
H325 H 0.39733 0.4364 0.656 0.0
H326 H 0.25705 0.32206 0.72708 0.0
H327 H 0.43648 0.2866 0.75991 0.0
H328 H 0.5264 0.2601 0.73982 0.0
H329 H 0.45229 0.09839 0.69657 0.0
H330 H 0.36178 0.12415 0.7155 0.0
C331 C 0.1651 0.17234 0.91912 0.0
C332 C 0.13786 0.12028 0.90601 0.0
C333 C 0.20559 0.19822 0.88652 0.0
C334 C 0.21909 0.17297 0.83965 0.0
C335 C 0.1953 0.11898 0.82855 0.0
C336 C 0.15486 0.09259 0.86176 0.0
C337 C 0.2528 0.20582 0.79997 0.0
C338 C 0.3031 0.19076 0.7851 0.0
C339 C 0.23635 0.25411 0.77915 0.0
C340 C 0.18318 0.27183 0.79248 0.0
C341 C 0.13456 0.23652 0.78417 0.0
C342 C 0.08479 0.25332 0.79753 0.0
C343 C 0.08306 0.30557 0.8187 0.0
C344 C 0.1311 0.3412 0.82644 0.0
C345 C 0.18099 0.32451 0.81336 0.0
C346 C 0.39173 0.30939 0.60001 0.0
C347 C 0.4029 0.36684 0.60431 0.0
C348 C 0.36637 0.27832 0.64097 0.0
C349 C 0.35197 0.30383 0.68744 0.0
C350 C 0.36385 0.36108 0.69237 0.0
C351 C 0.38924 0.39233 0.65127 0.0
C352 C 0.32074 0.27105 0.72893 0.0
C353 C 0.27056 0.28603 0.74412 0.0
C354 C 0.33776 0.22321 0.75032 0.0
C355 C 0.39218 0.2075 0.73871 0.0
C356 C 0.43925 0.24552 0.74565 0.0
C357 C 0.49037 0.23061 0.73455 0.0
C358 C 0.49505 0.17763 0.71686 0.0
C359 C 0.44861 0.13944 0.71025 0.0
C360 C 0.39737 0.15417 0.72119 0.0
H361 H 0.53467 0.16615 0.7084 0.0
H362 H 0.04448 0.3185 0.82896 0.0
H363 H 0.77983 0.17484 0.93884 0.0
H364 H 0.72956 0.2217 0.87509 0.0
H365 H 0.87678 0.2667 0.7862 0.0
H366 H 0.92776 0.22194 0.8519 0.0
H367 H 0.81798 0.3445 0.77825 0.0
H368 H 0.78222 0.15103 0.75592 0.0
H369 H 0.75494 0.05473 0.78097 0.0
H370 H 0.59519 0.09014 0.81968 0.0
H371 H 0.62176 0.18689 0.79572 0.0
H372 H 0.60799 0.30368 0.54636 0.0
H373 H 0.66569 0.26562 0.61028 0.0
H374 H 0.65936 0.40585 0.71171 0.0
H375 H 0.60276 0.44455 0.64789 0.0
H376 H 0.65329 0.2328 0.70635 0.0
H377 H 0.7773 0.43792 0.77818 0.0
H378 H 0.81493 0.52816 0.74276 0.0
H379 H 0.81112 0.46027 0.58658 0.0
H380 H 0.77421 0.36952 0.62105 0.0
C381 C 0.80161 0.19583 0.90627 0.0
C382 C 0.85752 0.19467 0.90002 0.0
C383 C 0.77279 0.22214 0.86955 0.0
C384 C 0.79889 0.24621 0.82473 0.0
C385 C 0.85553 0.24802 0.82014 0.0
C386 C 0.88472 0.22267 0.85772 0.0
C387 C 0.76659 0.26691 0.78177 0.0
C388 C 0.78193 0.32009 0.76266 0.0
C389 C 0.72033 0.23456 0.75997 0.0
C390 C 0.70422 0.17639 0.7746 0.0
C391 C 0.74142 0.1384 0.77022 0.0
C392 C 0.72606 0.08371 0.78418 0.0
C393 C 0.67342 0.06637 0.80208 0.0
C394 C 0.63599 0.10366 0.80595 0.0
C395 C 0.65119 0.15844 0.79219 0.0
C396 C 0.61858 0.32625 0.58242 0.0
C397 C 0.60083 0.37729 0.5918 0.0
C398 C 0.65172 0.3045 0.6189 0.0
C399 C 0.66781 0.33331 0.66545 0.0
C400 C 0.64868 0.3834 0.67559 0.0
C401 C 0.61589 0.4053 0.63912 0.0
C402 C 0.70395 0.31081 0.7038 0.0
C403 C 0.68929 0.25726 0.72203 0.0
C404 C 0.75176 0.34216 0.72346 0.0
C405 C 0.77259 0.39698 0.70223 0.0
C406 C 0.7845 0.44225 0.73629 0.0
C407 C 0.80571 0.49348 0.71638 0.0
C408 C 0.81547 0.49986 0.6625 0.0
C409 C 0.80349 0.45523 0.62831 0.0
C410 C 0.78232 0.40392 0.648 0.0
H411 H 0.83275 0.53926 0.64727 0.0
H412 H 0.6616 0.024 0.81281 0.0
H413 H 0.82315 0.86556 0.92287 0.0
H414 H 0.79905 0.78756 0.86363 0.0
H415 H 0.96004 0.81205 0.79691 0.0
H416 H 0.98471 0.8902 0.85658 0.0
H417 H 0.87458 0.80372 0.72208 0.0
H418 H 0.9311 0.70271 0.86411 0.0
H419 H 0.93852 0.67645 0.95685 0.0
H420 H 0.76683 0.62459 0.96318 0.0
H421 H 0.75815 0.65136 0.87073 0.0
H422 H 0.73552 0.59556 0.55943 0.0
H423 H 0.81104 0.63329 0.61663 0.0
H424 H 0.69851 0.64354 0.74478 0.0
H425 H 0.62382 0.60591 0.6884 0.0
H426 H 0.79125 0.62021 0.78224 0.0
H427 H 0.73421 0.75101 0.65507 0.0
H428 H 0.7216 0.78213 0.56447 0.0
H429 H 0.89103 0.78104 0.53262 0.0
H430 H 0.9044 0.7492 0.6229 0.0
C431 C 0.85355 0.85414 0.89587 0.0
C432 C 0.90574 0.88397 0.89428 0.0
C433 C 0.83989 0.80935 0.86234 0.0
C434 C 0.87798 0.79382 0.8263 0.0
C435 C 0.93029 0.82323 0.82475 0.0
C436 C 0.94428 0.86765 0.85892 0.0
C437 C 0.86096 0.74927 0.78805 0.0
C438 C 0.85789 0.76295 0.73484 0.0
C439 C 0.839 0.69633 0.80493 0.0
C440 C 0.84399 0.67918 0.86039 0.0
C441 C 0.89485 0.68595 0.88532 0.0
C442 C 0.89929 0.67096 0.93787 0.0
C443 C 0.85317 0.64889 0.9659 0.0
C444 C 0.80253 0.64163 0.9414 0.0
C445 C 0.79785 0.65661 0.88886 0.0
C446 C 0.72732 0.60455 0.60021 0.0
C447 C 0.67382 0.59892 0.6193 0.0
C448 C 0.77038 0.62627 0.63277 0.0
C449 C 0.76034 0.64204 0.6848 0.0
C450 C 0.7074 0.63179 0.70485 0.0
C451 C 0.6646 0.61069 0.67243 0.0
C452 C 0.80226 0.6757 0.71686 0.0
C453 C 0.81005 0.66008 0.76898 0.0
C454 C 0.82805 0.72717 0.69917 0.0
C455 C 0.82017 0.74715 0.64536 0.0
C456 C 0.76869 0.75722 0.62862 0.0
C457 C 0.7614 0.77495 0.57736 0.0
C458 C 0.80545 0.78339 0.54276 0.0
C459 C 0.85692 0.77433 0.55942 0.0
C460 C 0.86438 0.75643 0.61059 0.0
H461 H 0.79972 0.79706 0.50307 0.0
H462 H 0.85668 0.63737 0.0066 0.0
loop_
_geom_bond_atom_site_label_1
_geom_bond_atom_site_label_2
_geom_bond_distance
_geom_bond_site_symmetry_2
_ccdc_geom_bond_type
C0 O27 1.312 . S
C0 O28 1.208 . S
C1 O22 1.331 . S
C1 O25 1.244 . S
C2 O24 1.264 . S
C2 O26 1.273 . S
Mg3 O5 1.936 . S
Mg3 O12 2.081 . S
Mg3 O14 2.023 1_556 S
Mg3 O18 2.031 1_655 S
Mg3 O27 2.291 1_656 S
Mg4 O5 1.963 . S
Mg4 O15 1.942 . S
Mg4 O16 1.955 1_556 S
Mg4 O23 1.986 1_545 S
O5 Mg3 1.936 . S
O5 Mg4 1.963 . S
O5 Mg6 1.915 1_546 S
Mg6 O5 1.915 1_564 S
Mg6 O7 1.915 1_655 S
Mg6 O11 2.021 . S
Mg6 O17 2.105 1_664 S
Mg6 O21 2.021 1_554 S
Mg6 O27 2.105 1_665 S
O7 Mg6 1.915 1_455 S
O7 Mg8 1.936 . S
O7 Mg9 1.963 . S
Mg8 O7 1.936 . S
Mg8 O17 2.291 1_564 S
Mg8 O22 2.081 . S
Mg8 O24 2.023 1_554 S
Mg8 O28 2.031 1_565 S
Mg9 O7 1.963 . S
Mg9 O13 1.986 1_455 S
Mg9 O25 1.942 . S
Mg9 O26 1.955 1_554 S
C10 O21 1.191 . S
C10 O23 1.307 . S
O11 Mg6 2.021 . S
O11 C30 1.191 . S
O12 Mg3 2.081 . S
O12 C20 1.331 . S
O13 Mg9 1.986 1_655 S
O13 C30 1.307 . S
O14 Mg3 2.023 1_554 S
O14 C29 1.264 . S
O15 Mg4 1.942 . S
O15 C20 1.244 . S
O16 Mg4 1.955 1_554 S
O16 C29 1.273 . S
O17 Mg6 2.105 1_446 S
O17 Mg8 2.291 1_546 S
O17 C19 1.312 . S
O18 Mg3 2.031 1_455 S
O18 C19 1.208 . S
C19 O17 1.312 . S
C19 O18 1.208 . S
C20 O12 1.331 . S
C20 O15 1.244 . S
O21 Mg6 2.021 1_556 S
O21 C10 1.191 . S
O22 C1 1.331 . S
O22 Mg8 2.081 . S
O23 Mg4 1.986 1_565 S
O23 C10 1.307 . S
O24 C2 1.264 . S
O24 Mg8 2.023 1_556 S
O25 C1 1.244 . S
O25 Mg9 1.942 . S
O26 C2 1.273 . S
O26 Mg9 1.955 1_556 S
O27 C0 1.312 . S
O27 Mg3 2.291 1_454 S
O27 Mg6 2.105 1_445 S
O28 C0 1.208 . S
O28 Mg8 2.031 1_545 S
C29 O14 1.264 . S
C29 O16 1.273 . S
C30 O11 1.191 . S
C30 O13 1.307 . S
Fe31 O32 1.886 . S
Fe31 O35 1.715 . S
Fe31 O40 2.077 . S
Fe31 O45 1.935 . S
Fe31 O51 2.077 . S
Fe31 O60 1.935 . S
O32 Fe31 1.886 . S
O32 Fe34 1.715 . S
Fe33 O35 1.886 . S
Fe33 O36 1.715 . S
Fe33 O43 1.935 . S
Fe33 O44 2.077 . S
Fe33 O50 1.935 . S
Fe33 O59 2.077 . S
Fe34 O32 1.715 . S
Fe34 O37 1.886 . S
Fe34 O41 1.935 . S
Fe34 O46 2.077 . S
Fe34 O52 1.935 . S
Fe34 O56 2.077 . S
O35 Fe31 1.715 . S
O35 Fe33 1.886 . S
O36 Fe33 1.715 . S
O36 Fe38 1.886 . S
O37 Fe34 1.886 . S
O37 Fe38 1.715 . S
Fe38 O36 1.886 . S
Fe38 O37 1.715 . S
Fe38 O42 2.077 . S
Fe38 O47 1.935 . S
Fe38 O49 2.077 . S
Fe38 O57 1.935 . S
C39 O51 1.381 . S
C39 O52 1.421 . S
O40 Fe31 2.077 . S
O40 C53 1.381 . S
O41 Fe34 1.935 . S
O41 C53 1.421 . S
O42 Fe38 2.077 . S
O42 C58 1.381 . S
O43 Fe33 1.935 . S
O43 C58 1.421 . S
O44 Fe33 2.077 . S
O44 C48 1.381 . S
O45 Fe31 1.935 . S
O45 C48 1.421 . S
O46 Fe34 2.077 . S
O46 C54 1.381 . S
O47 Fe38 1.935 . S
O47 C54 1.421 . S
C48 O44 1.381 . S
C48 O45 1.421 . S
O49 Fe38 2.077 . S
O49 C61 1.381 . S
O50 Fe33 1.935 . S
O50 C61 1.421 . S
O51 Fe31 2.077 . S
O51 C39 1.381 . S
O52 Fe34 1.935 . S
O52 C39 1.421 . S
C53 O40 1.381 . S
C53 O41 1.421 . S
C54 O46 1.381 . S
C54 O47 1.421 . S
C55 O56 1.381 . S
C55 O57 1.421 . S
O56 Fe34 2.077 . S
O56 C55 1.381 . S
O57 Fe38 1.935 . S
O57 C55 1.421 . S
C58 O42 1.381 . S
C58 O43 1.421 . S
O59 Fe33 2.077 . S
O59 C62 1.381 . S
O60 Fe31 1.935 . S
O60 C62 1.421 . S
C61 O49 1.381 . S
C61 O50 1.421 . S
C62 O59 1.381 . S
C62 O60 1.421 . S
H63 C81 0.951 . S
H64 C83 0.951 . S
H65 C85 0.950 . S
H66 C86 0.950 . S
H67 C88 0.950 . S
H68 C91 0.950 . S
H69 C92 0.950 . S
H70 C94 0.950 . S
H71 C95 0.950 . S
H72 C96 0.951 . S
H73 C98 0.951 . S
H74 C100 0.950 . S
H75 C101 0.950 . S
H76 C103 0.950 . S
H77 C106 0.950 . S
H78 C107 0.950 . S
H79 C109 0.950 . S
H80 C110 0.950 . S
C81 H63 0.951 . S
C81 C82 1.366 . S
C81 C83 1.388 . S
C82 C81 1.366 . S
C82 C86 1.385 . S
C83 H64 0.951 . S
C83 C81 1.388 . S
C83 C84 1.366 . S
C84 C83 1.366 . S
C84 C85 1.414 . S
C84 C87 1.499 . S
C85 H65 0.950 . S
C85 C84 1.414 . S
C85 C86 1.374 . S
C86 H66 0.950 . S
C86 C82 1.385 . S
C86 C85 1.374 . S
C87 C84 1.499 . S
C87 C88 1.373 . S
C87 C89 1.389 . S
C88 H67 0.950 . S
C88 C87 1.373 . S
C88 C104 1.377 . S
C89 C87 1.389 . S
C89 C90 1.524 . S
C89 C103 1.377 . S
C90 C89 1.524 . S
C90 C91 1.397 . S
C90 C95 1.363 . S
C91 H68 0.950 . S
C91 C90 1.397 . S
C91 C92 1.334 . S
C92 H69 0.950 . S
C92 C91 1.334 . S
C92 C93 1.287 . S
C93 C92 1.287 . S
C93 C94 1.524 . S
C93 H112 0.913 1_545 S
C94 H70 0.950 . S
C94 C93 1.524 . S
C94 C95 1.415 . S
C95 H71 0.950 . S
C95 C90 1.363 . S
C95 C94 1.415 . S
C96 H72 0.951 . S
C96 C97 1.366 . S
C96 C98 1.388 . S
C97 C96 1.366 . S
C97 C101 1.385 . S
C98 H73 0.951 . S
C98 C96 1.388 . S
C98 C99 1.366 . S
C99 C98 1.366 . S
C99 C100 1.414 . S
C99 C102 1.499 . S
C100 H74 0.950 . S
C100 C99 1.414 . S
C100 C101 1.374 . S
C101 H75 0.950 . S
C101 C97 1.385 . S
C101 C100 1.374 . S
C102 C99 1.499 . S
C102 C103 1.373 . S
C102 C104 1.389 . S
C103 H76 0.950 . S
C103 C89 1.377 . S
C103 C102 1.373 . S
C104 C88 1.377 . S
C104 C102 1.389 . S
C104 C105 1.524 . S
C105 C104 1.524 . S
C105 C106 1.397 . S
C105 C110 1.363 . S
C106 H77 0.950 . S
C106 C105 1.397 . S
C106 C107 1.334 . S
C107 H78 0.950 . S
C107 C106 1.334 . S
C107 C108 1.287 . S
C108 C107 1.287 . S
C108 C109 1.524 . S
C108 H111 0.999 . S
C109 H79 0.950 . S
C109 C108 1.524 . S
C109 C110 1.415 . S
C110 H80 0.950 . S
C110 C105 1.363 . S
C110 C109 1.415 . S
H111 C108 0.999 . S
H112 C93 0.913 1_565 S
H113 C131 0.951 . S
H114 C133 0.951 . S
H115 C135 0.950 . S
H116 C136 0.950 . S
H117 C138 0.950 . S
H118 C141 0.950 . S
H119 C142 0.950 . S
H120 C144 0.950 . S
H121 C145 0.950 . S
H122 C146 0.951 . S
H123 C148 0.951 . S
H124 C150 0.950 . S
H125 C151 0.950 . S
H126 C153 0.950 . S
H127 C156 0.950 . S
H128 C157 0.950 . S
H129 C159 0.950 . S
H130 C160 0.950 . S
C131 H113 0.951 . S
C131 C132 1.366 . S
C131 C133 1.388 . S
C132 C131 1.366 . S
C132 C136 1.385 . S
C133 H114 0.951 . S
C133 C131 1.388 . S
C133 C134 1.366 . S
C134 C133 1.366 . S
C134 C135 1.414 . S
C134 C137 1.499 . S
C135 H115 0.950 . S
C135 C134 1.414 . S
C135 C136 1.374 . S
C136 H116 0.950 . S
C136 C132 1.385 . S
C136 C135 1.374 . S
C137 C134 1.499 . S
C137 C138 1.373 . S
C137 C139 1.389 . S
C138 H117 0.950 . S
C138 C137 1.373 . S
C138 C154 1.377 . S
C139 C137 1.389 . S
C139 C140 1.524 . S
C139 C153 1.377 . S
C140 C139 1.524 . S
C140 C141 1.397 . S
C140 C145 1.363 . S
C141 H118 0.950 . S
C141 C140 1.397 . S
C141 C142 1.334 . S
C142 H119 0.950 . S
C142 C141 1.334 . S
C142 C143 1.287 . S
C143 C142 1.287 . S
C143 C144 1.524 . S
C143 H162 0.913 . S
C144 H120 0.950 . S
C144 C143 1.524 . S
C144 C145 1.415 . S
C145 H121 0.950 . S
C145 C140 1.363 . S
C145 C144 1.415 . S
C146 H122 0.951 . S
C146 C147 1.366 . S
C146 C148 1.388 . S
C147 C146 1.366 . S
C147 C151 1.385 . S
C148 H123 0.951 . S
C148 C146 1.388 . S
C148 C149 1.366 . S
C149 C148 1.366 . S
C149 C150 1.414 . S
C149 C152 1.499 . S
C150 H124 0.950 . S
C150 C149 1.414 . S
C150 C151 1.374 . S
C151 H125 0.950 . S
C151 C147 1.385 . S
C151 C150 1.374 . S
C152 C149 1.499 . S
C152 C153 1.373 . S
C152 C154 1.389 . S
C153 H126 0.950 . S
C153 C139 1.377 . S
C153 C152 1.373 . S
C154 C138 1.377 . S
C154 C152 1.389 . S
C154 C155 1.524 . S
C155 C154 1.524 . S
C155 C156 1.397 . S
C155 C160 1.363 . S
C156 H127 0.950 . S
C156 C155 1.397 . S
C156 C157 1.334 . S
C157 H128 0.950 . S
C157 C156 1.334 . S
C157 C158 1.287 . S
C158 C157 1.287 . S
C158 C159 1.524 . S
C158 H161 0.999 . S
C159 H129 0.950 . S
C159 C158 1.524 . S
C159 C160 1.415 . S
C160 H130 0.950 . S
C160 C155 1.363 . S
C160 C159 1.415 . S
H161 C158 0.999 . S
H162 C143 0.913 . S
H163 C181 0.951 . S
H164 C183 0.951 . S
H165 C185 0.950 . S
H166 C186 0.950 . S
H167 C188 0.950 . S
H168 C191 0.950 . S
H169 C192 0.950 . S
H170 C194 0.950 . S
H171 C195 0.950 . S
H172 C196 0.951 . S
H173 C198 0.951 . S
H174 C200 0.950 . S
H175 C201 0.950 . S
H176 C203 0.950 . S
H177 C206 0.950 . S
H178 C207 0.950 . S
H179 C209 0.950 . S
H180 C210 0.950 . S
C181 H163 0.951 . S
C181 C182 1.366 . S
C181 C183 1.388 . S
C182 C181 1.366 . S
C182 C186 1.385 . S
C183 H164 0.951 . S
C183 C181 1.388 . S
C183 C184 1.366 . S
C184 C183 1.366 . S
C184 C185 1.414 . S
C184 C187 1.499 . S
C185 H165 0.950 . S
C185 C184 1.414 . S
C185 C186 1.374 . S
C186 H166 0.950 . S
C186 C182 1.385 . S
C186 C185 1.374 . S
C187 C184 1.499 . S
C187 C188 1.373 . S
C187 C189 1.389 . S
C188 H167 0.950 . S
C188 C187 1.373 . S
C188 C204 1.377 . S
C189 C187 1.389 . S
C189 C190 1.524 . S
C189 C203 1.377 . S
C190 C189 1.524 . S
C190 C191 1.397 . S
C190 C195 1.363 . S
C191 H168 0.950 . S
C191 C190 1.397 . S
C191 C192 1.334 . S
C192 H169 0.950 . S
C192 C191 1.334 . S
C192 C193 1.287 . S
C193 C192 1.287 . S
C193 C194 1.524 . S
C193 H212 0.913 1_655 S
C194 H170 0.950 . S
C194 C193 1.524 . S
C194 C195 1.415 . S
C195 H171 0.950 . S
C195 C190 1.363 . S
C195 C194 1.415 . S
C196 H172 0.951 . S
C196 C197 1.366 . S
C196 C198 1.388 . S
C197 C196 1.366 . S
C197 C201 1.385 . S
C198 H173 0.951 . S
C198 C196 1.388 . S
C198 C199 1.366 . S
C199 C198 1.366 . S
C199 C200 1.414 . S
C199 C202 1.499 . S
C200 H174 0.950 . S
C200 C199 1.414 . S
C200 C201 1.374 . S
C201 H175 0.950 . S
C201 C197 1.385 . S
C201 C200 1.374 . S
C202 C199 1.499 . S
C202 C203 1.373 . S
C202 C204 1.389 . S
C203 H176 0.950 . S
C203 C189 1.377 . S
C203 C202 1.373 . S
C204 C188 1.377 . S
C204 C202 1.389 . S
C204 C205 1.524 . S
C205 C204 1.524 . S
C205 C206 1.397 . S
C205 C210 1.363 . S
C206 H177 0.950 . S
C206 C205 1.397 . S
C206 C207 1.334 . S
C207 H178 0.950 . S
C207 C206 1.334 . S
C207 C208 1.287 . S
C208 C207 1.287 . S
C208 C209 1.524 . S
C208 H211 0.999 . S
C209 H179 0.950 . S
C209 C208 1.524 . S
C209 C210 1.415 . S
C210 H180 0.950 . S
C210 C205 1.363 . S
C210 C209 1.415 . S
H211 C208 0.999 . S
H212 C193 0.913 1_455 S
H213 C231 0.951 . S
H214 C233 0.951 . S
H215 C235 0.950 . S
H216 C236 0.950 . S
H217 C238 0.950 . S
H218 C241 0.950 . S
H219 C242 0.950 . S
H220 C244 0.950 . S
H221 C245 0.950 . S
H222 C246 0.951 . S
H223 C248 0.951 . S
H224 C250 0.950 . S
H225 C251 0.950 . S
H226 C253 0.950 . S
H227 C256 0.950 . S
H228 C257 0.950 . S
H229 C259 0.950 . S
H230 C260 0.950 . S
C231 H213 0.951 . S
C231 C232 1.366 . S
C231 C233 1.388 . S
C232 C231 1.366 . S
C232 C236 1.385 . S
C233 H214 0.951 . S
C233 C231 1.388 . S
C233 C234 1.366 . S
C234 C233 1.366 . S
C234 C235 1.414 . S
C234 C237 1.499 . S
C235 H215 0.950 . S
C235 C234 1.414 . S
C235 C236 1.374 . S
C236 H216 0.950 . S
C236 C232 1.385 . S
C236 C235 1.374 . S
C237 C234 1.499 . S
C237 C238 1.373 . S
C237 C239 1.389 . S
C238 H217 0.950 . S
C238 C237 1.373 . S
C238 C254 1.377 . S
C239 C237 1.389 . S
C239 C240 1.524 . S
C239 C253 1.377 . S
C240 C239 1.524 . S
C240 C241 1.397 . S
C240 C245 1.363 . S
C241 H218 0.950 . S
C241 C240 1.397 . S
C241 C242 1.334 . S
C242 H219 0.950 . S
C242 C241 1.334 . S
C242 C243 1.287 . S
C243 C242 1.287 . S
C243 C244 1.524 . S
C243 H262 0.913 . S
C244 H220 0.950 . S
C244 C243 1.524 . S
C244 C245 1.415 . S
C245 H221 0.950 . S
C245 C240 1.363 . S
C245 C244 1.415 . S
C246 H222 0.951 . S
C246 C247 1.366 . S
C246 C248 1.388 . S
C247 C246 1.366 . S
C247 C251 1.385 . S
C248 H223 0.951 . S
C248 C246 1.388 . S
C248 C249 1.366 . S
C249 C248 1.366 . S
C249 C250 1.414 . S
C249 C252 1.499 . S
C250 H224 0.950 . S
C250 C249 1.414 . S
C250 C251 1.374 . S
C251 H225 0.950 . S
C251 C247 1.385 . S
C251 C250 1.374 . S
C252 C249 1.499 . S
C252 C253 1.373 . S
C252 C254 1.389 . S
C253 H226 0.950 . S
C253 C239 1.377 . S
C253 C252 1.373 . S
C254 C238 1.377 . S
C254 C252 1.389 . S
C254 C255 1.524 . S
C255 C254 1.524 . S
C255 C256 1.397 . S
C255 C260 1.363 . S
C256 H227 0.950 . S
C256 C255 1.397 . S
C256 C257 1.334 . S
C257 H228 0.950 . S
C257 C256 1.334 . S
C257 C258 1.287 . S
C258 C257 1.287 . S
C258 C259 1.524 . S
C258 H261 0.999 . S
C259 H229 0.950 . S
C259 C258 1.524 . S
C259 C260 1.415 . S
C260 H230 0.950 . S
C260 C255 1.363 . S
C260 C259 1.415 . S
H261 C258 0.999 . S
H262 C243 0.913 . S
H263 C281 0.951 . S
H264 C283 0.951 . S
H265 C285 0.950 . S
H266 C286 0.950 . S
H267 C288 0.950 . S
H268 C291 0.950 . S
H269 C292 0.950 . S
H270 C294 0.950 . S
H271 C295 0.950 . S
H272 C296 0.951 . S
H273 C298 0.951 . S
H274 C300 0.950 . S
H275 C301 0.950 . S
H276 C303 0.950 . S
H277 C306 0.950 . S
H278 C307 0.950 . S
H279 C309 0.950 . S
H280 C310 0.950 . S
C281 H263 0.951 . S
C281 C282 1.366 . S
C281 C283 1.388 . S
C282 C281 1.366 . S
C282 C286 1.385 . S
C283 H264 0.951 . S
C283 C281 1.388 . S
C283 C284 1.366 . S
C284 C283 1.366 . S
C284 C285 1.414 . S
C284 C287 1.499 . S
C285 H265 0.950 . S
C285 C284 1.414 . S
C285 C286 1.374 . S
C286 H266 0.950 . S
C286 C282 1.385 . S
C286 C285 1.374 . S
C287 C284 1.499 . S
C287 C288 1.373 . S
C287 C289 1.389 . S
C288 H267 0.950 . S
C288 C287 1.373 . S
C288 C304 1.377 . S
C289 C287 1.389 . S
C289 C290 1.524 . S
C289 C303 1.377 . S
C290 C289 1.524 . S
C290 C291 1.397 . S
C290 C295 1.363 . S
C291 H268 0.950 . S
C291 C290 1.397 . S
C291 C292 1.334 . S
C292 H269 0.950 . S
C292 C291 1.334 . S
C292 C293 1.287 . S
C293 C292 1.287 . S
C293 C294 1.524 . S
C293 H312 0.913 . S
C294 H270 0.950 . S
C294 C293 1.524 . S
C294 C295 1.415 . S
C295 H271 0.950 . S
C295 C290 1.363 . S
C295 C294 1.415 . S
C296 H272 0.951 . S
C296 C297 1.366 . S
C296 C298 1.388 . S
C297 C296 1.366 . S
C297 C301 1.385 . S
C298 H273 0.951 . S
C298 C296 1.388 . S
C298 C299 1.366 . S
C299 C298 1.366 . S
C299 C300 1.414 . S
C299 C302 1.499 . S
C300 H274 0.950 . S
C300 C299 1.414 . S
C300 C301 1.374 . S
C301 H275 0.950 . S
C301 C297 1.385 . S
C301 C300 1.374 . S
C302 C299 1.499 . S
C302 C303 1.373 . S
C302 C304 1.389 . S
C303 H276 0.950 . S
C303 C289 1.377 . S
C303 C302 1.373 . S
C304 C288 1.377 . S
C304 C302 1.389 . S
C304 C305 1.524 . S
C305 C304 1.524 . S
C305 C306 1.397 . S
C305 C310 1.363 . S
C306 H277 0.950 . S
C306 C305 1.397 . S
C306 C307 1.334 . S
C307 H278 0.950 . S
C307 C306 1.334 . S
C307 C308 1.287 . S
C308 C307 1.287 . S
C308 C309 1.524 . S
C308 H311 0.999 . S
C309 H279 0.950 . S
C309 C308 1.524 . S
C309 C310 1.415 . S
C310 H280 0.950 . S
C310 C305 1.363 . S
C310 C309 1.415 . S
H311 C308 0.999 . S
H312 C293 0.913 . S
H313 C331 0.951 . S
H314 C333 0.951 . S
H315 C335 0.950 . S
H316 C336 0.950 . S
H317 C338 0.950 . S
H318 C341 0.950 . S
H319 C342 0.950 . S
H320 C344 0.950 . S
H321 C345 0.950 . S
H322 C346 0.951 . S
H323 C348 0.951 . S
H324 C350 0.950 . S
H325 C351 0.950 . S
H326 C353 0.950 . S
H327 C356 0.950 . S
H328 C357 0.950 . S
H329 C359 0.950 . S
H330 C360 0.950 . S
C331 H313 0.951 . S
C331 C332 1.366 . S
C331 C333 1.388 . S
C332 C331 1.366 . S
C332 C336 1.385 . S
C333 H314 0.951 . S
C333 C331 1.388 . S
C333 C334 1.366 . S
C334 C333 1.366 . S
C334 C335 1.414 . S
C334 C337 1.499 . S
C335 H315 0.950 . S
C335 C334 1.414 . S
C335 C336 1.374 . S
C336 H316 0.950 . S
C336 C332 1.385 . S
C336 C335 1.374 . S
C337 C334 1.499 . S
C337 C338 1.373 . S
C337 C339 1.389 . S
C338 H317 0.950 . S
C338 C337 1.373 . S
C338 C354 1.377 . S
C339 C337 1.389 . S
C339 C340 1.524 . S
C339 C353 1.377 . S
C340 C339 1.524 . S
C340 C341 1.397 . S
C340 C345 1.363 . S
C341 H318 0.950 . S
C341 C340 1.397 . S
C341 C342 1.334 . S
C342 H319 0.950 . S
C342 C341 1.334 . S
C342 C343 1.287 . S
C343 C342 1.287 . S
C343 C344 1.524 . S
C343 H362 0.913 . S
C344 H320 0.950 . S
C344 C343 1.524 . S
C344 C345 1.415 . S
C345 H321 0.950 . S
C345 C340 1.363 . S
C345 C344 1.415 . S
C346 H322 0.951 . S
C346 C347 1.366 . S
C346 C348 1.388 . S
C347 C346 1.366 . S
C347 C351 1.385 . S
C348 H323 0.951 . S
C348 C346 1.388 . S
C348 C349 1.366 . S
C349 C348 1.366 . S
C349 C350 1.414 . S
C349 C352 1.499 . S
C350 H324 0.950 . S
C350 C349 1.414 . S
C350 C351 1.374 . S
C351 H325 0.950 . S
C351 C347 1.385 . S
C351 C350 1.374 . S
C352 C349 1.499 . S
C352 C353 1.373 . S
C352 C354 1.389 . S
C353 H326 0.950 . S
C353 C339 1.377 . S
C353 C352 1.373 . S
C354 C338 1.377 . S
C354 C352 1.389 . S
C354 C355 1.524 . S
C355 C354 1.524 . S
C355 C356 1.397 . S
C355 C360 1.363 . S
C356 H327 0.950 . S
C356 C355 1.397 . S
C356 C357 1.334 . S
C357 H328 0.950 . S
C357 C356 1.334 . S
C357 C358 1.287 . S
C358 C357 1.287 . S
C358 C359 1.524 . S
C358 H361 0.999 . S
C359 H329 0.950 . S
C359 C358 1.524 . S
C359 C360 1.415 . S
C360 H330 0.950 . S
C360 C355 1.363 . S
C360 C359 1.415 . S
H361 C358 0.999 . S
H362 C343 0.913 . S
H363 C381 0.951 . S
H364 C383 0.951 . S
H365 C385 0.950 . S
H366 C386 0.950 . S
H367 C388 0.950 . S
H368 C391 0.950 . S
H369 C392 0.950 . S
H370 C394 0.950 . S
H371 C395 0.950 . S
H372 C396 0.951 . S
H373 C398 0.951 . S
H374 C400 0.950 . S
H375 C401 0.950 . S
H376 C403 0.950 . S
H377 C406 0.950 . S
H378 C407 0.950 . S
H379 C409 0.950 . S
H380 C410 0.950 . S
C381 H363 0.951 . S
C381 C382 1.366 . S
C381 C383 1.388 . S
C382 C381 1.366 . S
C382 C386 1.385 . S
C383 H364 0.951 . S
C383 C381 1.388 . S
C383 C384 1.366 . S
C384 C383 1.366 . S
C384 C385 1.414 . S
C384 C387 1.499 . S
C385 H365 0.950 . S
C385 C384 1.414 . S
C385 C386 1.374 . S
C386 H366 0.950 . S
C386 C382 1.385 . S
C386 C385 1.374 . S
C387 C384 1.499 . S
C387 C388 1.373 . S
C387 C389 1.389 . S
C388 H367 0.950 . S
C388 C387 1.373 . S
C388 C404 1.377 . S
C389 C387 1.389 . S
C389 C390 1.524 . S
C389 C403 1.377 . S
C390 C389 1.524 . S
C390 C391 1.397 . S
C390 C395 1.363 . S
C391 H368 0.950 . S
C391 C390 1.397 . S
C391 C392 1.334 . S
C392 H369 0.950 . S
C392 C391 1.334 . S
C392 C393 1.287 . S
C393 C392 1.287 . S
C393 C394 1.524 . S
C393 H412 0.913 . S
C394 H370 0.950 . S
C394 C393 1.524 . S
C394 C395 1.415 . S
C395 H371 0.950 . S
C395 C390 1.363 . S
C395 C394 1.415 . S
C396 H372 0.951 . S
C396 C397 1.366 . S
C396 C398 1.388 . S
C397 C396 1.366 . S
C397 C401 1.385 . S
C398 H373 0.951 . S
C398 C396 1.388 . S
C398 C399 1.366 . S
C399 C398 1.366 . S
C399 C400 1.414 . S
C399 C402 1.499 . S
C400 H374 0.950 . S
C400 C399 1.414 . S
C400 C401 1.374 . S
C401 H375 0.950 . S
C401 C397 1.385 . S
C401 C400 1.374 . S
C402 C399 1.499 . S
C402 C403 1.373 . S
C402 C404 1.389 . S
C403 H376 0.950 . S
C403 C389 1.377 . S
C403 C402 1.373 . S
C404 C388 1.377 . S
C404 C402 1.389 . S
C404 C405 1.524 . S
C405 C404 1.524 . S
C405 C406 1.397 . S
C405 C410 1.363 . S
C406 H377 0.950 . S
C406 C405 1.397 . S
C406 C407 1.334 . S
C407 H378 0.950 . S
C407 C406 1.334 . S
C407 C408 1.287 . S
C408 C407 1.287 . S
C408 C409 1.524 . S
C408 H411 0.999 . S
C409 H379 0.950 . S
C409 C408 1.524 . S
C409 C410 1.415 . S
C410 H380 0.950 . S
C410 C405 1.363 . S
C410 C409 1.415 . S
H411 C408 0.999 . S
H412 C393 0.913 . S
H413 C431 0.951 . S
H414 C433 0.951 . S
H415 C435 0.950 . S
H416 C436 0.950 . S
H417 C438 0.950 . S
H418 C441 0.950 . S
H419 C442 0.950 . S
H420 C444 0.950 . S
H421 C445 0.950 . S
H422 C446 0.951 . S
H423 C448 0.951 . S
H424 C450 0.950 . S
H425 C451 0.950 . S
H426 C453 0.950 . S
H427 C456 0.950 . S
H428 C457 0.950 . S
H429 C459 0.950 . S
H430 C460 0.950 . S
C431 H413 0.951 . S
C431 C432 1.366 . S
C431 C433 1.388 . S
C432 C431 1.366 . S
C432 C436 1.385 . S
C433 H414 0.951 . S
C433 C431 1.388 . S
C433 C434 1.366 . S
C434 C433 1.366 . S
C434 C435 1.414 . S
C434 C437 1.499 . S
C435 H415 0.950 . S
C435 C434 1.414 . S
C435 C436 1.374 . S
C436 H416 0.950 . S
C436 C432 1.385 . S
C436 C435 1.374 . S
C437 C434 1.499 . S
C437 C438 1.373 . S
C437 C439 1.389 . S
C438 H417 0.950 . S
C438 C437 1.373 . S
C438 C454 1.377 . S
C439 C437 1.389 . S
C439 C440 1.524 . S
C439 C453 1.377 . S
C440 C439 1.524 . S
C440 C441 1.397 . S
C440 C445 1.363 . S
C441 H418 0.950 . S
C441 C440 1.397 . S
C441 C442 1.334 . S
C442 H419 0.950 . S
C442 C441 1.334 . S
C442 C443 1.287 . S
C443 C442 1.287 . S
C443 C444 1.524 . S
C443 H462 0.913 . S
C444 H420 0.950 . S
C444 C443 1.524 . S
C444 C445 1.415 . S
C445 H421 0.950 . S
C445 C440 1.363 . S
C445 C444 1.415 . S
C446 H422 0.951 . S
C446 C447 1.366 . S
C446 C448 1.388 . S
C447 C446 1.366 . S
C447 C451 1.385 . S
C448 H423 0.951 . S
C448 C446 1.388 . S
C448 C449 1.366 . S
C449 C448 1.366 . S
C449 C450 1.414 . S
C449 C452 1.499 . S
C450 H424 0.950 . S
C450 C449 1.414 . S
C450 C451 1.374 . S
C451 H425 0.950 . S
C451 C447 1.385 . S
C451 C450 1.374 . S
C452 C449 1.499 . S
C452 C453 1.373 . S
C452 C454 1.389 . S
C453 H426 0.950 . S
C453 C439 1.377 . S
C453 C452 1.373 . S
C454 C438 1.377 . S
C454 C452 1.389 . S
C454 C455 1.524 . S
C455 C454 1.524 . S
C455 C456 1.397 . S
C455 C460 1.363 . S
C456 H427 0.950 . S
C456 C455 1.397 . S
C456 C457 1.334 . S
C457 H428 0.950 . S
C457 C456 1.334 . S
C457 C458 1.287 . S
C458 C457 1.287 . S
C458 C459 1.524 . S
C458 H461 0.999 . S
C459 H429 0.950 . S
C459 C458 1.524 . S
C459 C460 1.415 . S
C460 H430 0.950 . S
C460 C455 1.363 . S
C460 C459 1.415 . S
H461 C458 0.999 . S
H462 C443 0.913 . S
C82 C0 1.300 . S
C97 C54 1.324 . S
C132 C29 1.643 . S
C147 C58 1.626 . S
C182 C30 1.272 . S
C197 C48 1.272 . S
C232 C1 1.574 . S
C247 C53 1.560 . S
C282 C2 1.642 . S
C297 C39 1.627 . S
C347 C55 1.326 . S
C332 C19 1.302 . S
C382 C20 1.574 . S
C397 C61 1.561 . S
C447 C62 1.275 . S
C432 C10 1.274 . S
