# Generated by pormake.
# Topology nia, (6,6)-cn, num edge types: 1
# Building blocks:
#     Node 0, Type 0, BuildingBlock: NUHQIS_clean_sbu_0, # of connection points: 6
#     Node 1, Type 0, BuildingBlock: NUHQIS_clean_sbu_0, # of connection points: 6
#     Node 2, Type 1, BuildingBlock: MIDCAF_clean_sbu_0, # of connection points: 6
#     Node 3, Type 1, BuildingBlock: MIDCAF_clean_sbu_0, # of connection points: 6
#     Edge 4, Type (0, 1), BuildingBlock: KIFKEQ_clean_linker_1, # of connection points: 2
#     Edge 5, Type (0, 1), BuildingBlock: KIFKEQ_clean_linker_1, # of connection points: 2
#     Edge 6, Type (0, 1), BuildingBlock: KIFKEQ_clean_linker_1, # of connection points: 2
#     Edge 7, Type (0, 1), BuildingBlock: KIFKEQ_clean_linker_1, # of connection points: 2
#     Edge 8, Type (0, 1), BuildingBlock: KIFKEQ_clean_linker_1, # of connection points: 2
#     Edge 9, Type (0, 1), BuildingBlock: KIFKEQ_clean_linker_1, # of connection points: 2
#     Edge 10, Type (0, 1), BuildingBlock: KIFKEQ_clean_linker_1, # of connection points: 2
#     Edge 11, Type (0, 1), BuildingBlock: KIFKEQ_clean_linker_1, # of connection points: 2
#     Edge 12, Type (0, 1), BuildingBlock: KIFKEQ_clean_linker_1, # of connection points: 2
#     Edge 13, Type (0, 1), BuildingBlock: KIFKEQ_clean_linker_1, # of connection points: 2
#     Edge 14, Type (0, 1), BuildingBlock: KIFKEQ_clean_linker_1, # of connection points: 2
#     Edge 15, Type (0, 1), BuildingBlock: KIFKEQ_clean_linker_1, # of connection points: 2
# Relax obj value: 0.211
# Max RMSD: 0.278
# Mean RMSD: 0.214
data_MOF--net-nia--node1-NUHQIS_clean_sbu_0--node2-MIDCAF_clean_sbu_0--edge1-KIFKEQ_clean_linker_1
_symmetry_space_group_name_H-M    P1
_symmetry_Int_Tables_number       1
_symmetry_cell_setting            triclinic
loop_
_symmetry_equiv_pos_as_xyz
'x, y, z'
_cell_length_a     28.696728
_cell_length_b     28.787672
_cell_length_c     33.935545
_cell_angle_alpha  90.363212
_cell_angle_beta   91.050132
_cell_angle_gamma 134.33216
loop_
_atom_site_label
_atom_site_type_symbol
_atom_site_fract_x
_atom_site_fract_y
_atom_site_fract_z
_atom_type_partial_charge
Tb0 Tb -0.00269 0.03789 0.96393 0.0
Eu1 Eu 0.04161 0.98896 0.03075 0.0
C2 C 0.12735 0.06515 0.95465 0.0
C3 C 0.95915 0.90453 0.95067 0.0
C4 C 0.94235 0.11311 0.91443 0.0
C5 C 0.95263 0.19864 0.88842 0.0
C6 C 0.97823 0.17201 0.89496 0.0
C7 C 0.88071 0.08227 0.9284 0.0
C8 C 0.85497 0.10906 0.92186 0.0
C9 C 0.89007 0.16698 0.90101 0.0
C10 C 0.96854 0.08318 0.91648 0.0
O11 O 0.9122 0.96838 1.0002 0.0
O12 O 0.96417 0.97987 0.05698 0.0
O13 O 0.10243 0.09442 0.04041 0.0
O14 O 0.02772 0.09537 0.01846 0.0
C15 C 0.9124 0.96038 0.03835 0.0
O16 O 0.01085 0.91699 0.07415 0.0
O17 O 0.11306 0.00659 0.07075 0.0
O18 O 0.11027 0.02348 0.98172 0.0
O19 O 0.0943 0.08067 0.94699 0.0
O20 O 0.97064 0.95341 0.93478 0.0
O21 O 0.97549 0.90598 0.98738 0.0
C22 C 0.07728 0.11839 0.04189 0.0
O23 O 0.02591 0.11754 0.93334 0.0
O24 O 0.92908 0.0219 0.92486 0.0
C25 C 0.08803 0.91534 0.09668 0.0
C26 C 0.13109 0.85642 0.11913 0.0
C27 C 0.09071 0.85407 0.14372 0.0
C28 C 0.06954 0.88352 0.13259 0.0
C29 C 0.12606 0.91549 0.07122 0.0
C30 C 0.14762 0.88634 0.08245 0.0
C31 C 0.06999 0.9509 0.08782 0.0
H32 H 0.98172 0.24384 0.87293 0.0
H33 H 0.02577 0.19683 0.88383 0.0
H34 H 0.85169 0.0367 0.94346 0.0
H35 H 0.80654 0.08306 0.93182 0.0
H36 H 0.07764 0.83174 0.17222 0.0
H37 H 0.04015 0.88303 0.15255 0.0
H38 H 0.14031 0.93938 0.0432 0.0
H39 H 0.17799 0.88799 0.06274 0.0
Tb40 Tb 0.99064 0.02672 0.5293 0.0
Eu41 Eu 0.03243 0.97479 0.4657 0.0
C42 C 0.95072 0.89638 0.54102 0.0
C43 C 0.11876 0.05643 0.54346 0.0
C44 C 0.92462 0.08221 0.58969 0.0
C45 C 0.88052 0.10198 0.63962 0.0
C46 C 0.91034 0.08128 0.62903 0.0
C47 C 0.90711 0.10244 0.56057 0.0
C48 C 0.87684 0.12307 0.57115 0.0
C49 C 0.86396 0.12381 0.61094 0.0
C50 C 0.9608 0.0649 0.58101 0.0
O51 O 0.02067 0.08336 0.47633 0.0
O52 O 0.09565 0.08185 0.45743 0.0
O53 O 0.95307 0.96061 0.43641 0.0
O54 O 0.90433 0.95672 0.49101 0.0
C55 C 0.07165 0.10739 0.45582 0.0
O56 O 0.07345 0.98447 0.40903 0.0
O57 O 0.03043 0.90163 0.44531 0.0
O58 O 0.95071 0.89088 0.50257 0.0
O59 O 0.9805 0.95273 0.55758 0.0
O60 O 0.09029 0.07739 0.54559 0.0
O61 O 0.10056 0.01182 0.51761 0.0
C62 C 0.90367 0.94599 0.45317 0.0
O63 O 0.92687 0.00393 0.573 0.0
O64 O 0.01163 0.10389 0.5591 0.0
C65 C 0.10936 0.9319 0.40028 0.0
C66 C 0.18687 0.91153 0.37474 0.0
C67 C 0.15036 0.91275 0.34738 0.0
C68 C 0.11202 0.92288 0.36009 0.0
C69 C 0.14866 0.93477 0.42757 0.0
C70 C 0.18729 0.92483 0.41486 0.0
C71 C 0.06039 0.9314 0.4129 0.0
H72 H 0.87259 0.10295 0.67056 0.0
H73 H 0.92385 0.06602 0.65187 0.0
H74 H 0.91771 0.10325 0.52997 0.0
H75 H 0.86401 0.13885 0.54827 0.0
H76 H 0.14819 0.90202 0.31638 0.0
H77 H 0.08191 0.92051 0.33865 0.0
H78 H 0.14758 0.94218 0.45876 0.0
H79 H 0.21574 0.92534 0.43662 0.0
Zn80 Zn 0.35144 0.60992 0.1729 0.0
Zn81 Zn 0.38065 0.65107 0.34704 0.0
Zn82 Zn 0.3786 0.63485 0.24574 0.0
C83 C 0.49691 0.71347 0.29 0.0
C84 C 0.30233 0.51964 0.3152 0.0
O85 O 0.33444 0.67087 0.22665 0.0
O86 O 0.323 0.65365 0.1621 0.0
C87 C 0.48377 0.68638 0.17647 0.0
O88 O 0.48292 0.69827 0.25348 0.0
O89 O 0.45097 0.68879 0.3124 0.0
O90 O 0.31858 0.55633 0.34452 0.0
O91 O 0.32226 0.54173 0.27995 0.0
O92 O 0.43615 0.65117 0.15209 0.0
O93 O 0.47333 0.68823 0.21317 0.0
O94 O 0.31209 0.5291 0.2383 0.0
O95 O 0.28381 0.51505 0.17508 0.0
C96 C 0.27833 0.49169 0.20791 0.0
O97 O 0.34859 0.68423 0.26863 0.0
O98 O 0.34459 0.68699 0.33472 0.0
C99 C 0.31776 0.6751 0.19237 0.0
C100 C 0.33764 0.69967 0.30073 0.0
Zn101 Zn 0.66448 0.38231 0.88541 0.0
Zn102 Zn 0.63955 0.35859 0.67633 0.0
Zn103 Zn 0.64713 0.37108 0.7465 0.0
C104 C 0.70252 0.48717 0.69183 0.0
C105 C 0.51264 0.27041 0.70236 0.0
O106 O 0.68683 0.33533 0.77091 0.0
O107 O 0.67611 0.35938 0.82893 0.0
C108 C 0.71194 0.4731 0.80784 0.0
O109 O 0.70517 0.47228 0.72698 0.0
O110 O 0.6712 0.44388 0.66476 0.0
O111 O 0.54429 0.28029 0.67275 0.0
O112 O 0.54267 0.30443 0.73426 0.0
O113 O 0.68376 0.42113 0.82692 0.0
O114 O 0.70632 0.46778 0.77011 0.0
O115 O 0.5544 0.31617 0.77538 0.0
O116 O 0.61082 0.34867 0.8306 0.0
C117 C 0.55522 0.31607 0.81316 0.0
O118 O 0.68789 0.33075 0.72992 0.0
O119 O 0.6976 0.34588 0.66571 0.0
C120 C 0.69265 0.3355 0.80845 0.0
C121 C 0.70679 0.32853 0.69644 0.0
H122 H 0.25741 0.91716 0.11662 0.0
H123 H 0.06846 0.74022 0.15345 0.0
H124 H 0.30526 0.87796 0.13963 0.0
H125 H 0.11583 0.69955 0.17544 0.0
H126 H 0.22864 0.66085 0.23516 0.0
H127 H 0.18675 0.71009 0.2222 0.0
H128 H 0.30512 0.79984 0.11917 0.0
H129 H 0.35042 0.75564 0.13446 0.0
C130 C 0.22601 0.86945 0.12924 0.0
C131 C 0.15916 0.83136 0.13279 0.0
C132 C 0.25335 0.84693 0.14249 0.0
C133 C 0.21433 0.7853 0.1591 0.0
C134 C 0.14748 0.74756 0.16327 0.0
C135 C 0.12022 0.77054 0.1504 0.0
C136 C 0.24764 0.69369 0.211 0.0
C137 C 0.29452 0.70675 0.18679 0.0
C138 C 0.22256 0.7205 0.20288 0.0
C139 C 0.24292 0.75941 0.16975 0.0
C140 C 0.28955 0.7717 0.14551 0.0
C141 C 0.31515 0.74591 0.15403 0.0
H142 H 0.13741 0.10847 0.6161 0.0
H143 H 0.21494 0.05885 0.53778 0.0
H144 H 0.21992 0.14594 0.66629 0.0
H145 H 0.29935 0.09914 0.58695 0.0
H146 H 0.43044 0.14466 0.67921 0.0
H147 H 0.32296 0.08108 0.64821 0.0
H148 H 0.33266 0.23394 0.67869 0.0
H149 H 0.43818 0.29494 0.71185 0.0
C150 C 0.17266 0.10631 0.60948 0.0
C151 C 0.17034 0.08138 0.57295 0.0
C152 C 0.21977 0.12758 0.63829 0.0
C153 C 0.26607 0.1252 0.6309 0.0
C154 C 0.26344 0.10009 0.59422 0.0
C155 C 0.21566 0.07781 0.56571 0.0
C156 C 0.4078 0.16283 0.68082 0.0
C157 C 0.44193 0.22435 0.69754 0.0
C158 C 0.3469 0.12713 0.66254 0.0
C159 C 0.32033 0.15352 0.65963 0.0
C160 C 0.35161 0.21208 0.68026 0.0
C161 C 0.41198 0.24708 0.69942 0.0
H162 H 0.14783 0.1433 0.10776 0.0
H163 H 0.05463 0.19584 0.05079 0.0
H164 H 0.18323 0.2172 0.16258 0.0
H165 H 0.09277 0.27243 0.10498 0.0
H166 H 0.147 0.39571 0.20445 0.0
H167 H 0.08659 0.29016 0.17224 0.0
H168 H 0.2626 0.33003 0.17383 0.0
H169 H 0.32107 0.43339 0.20765 0.0
C170 C 0.13532 0.17113 0.10676 0.0
C171 C 0.09923 0.16453 0.07459 0.0
C172 C 0.15552 0.2134 0.13836 0.0
C173 C 0.14097 0.25088 0.13838 0.0
C174 C 0.10376 0.24335 0.10648 0.0
C175 C 0.08266 0.20021 0.07505 0.0
C176 C 0.17132 0.37971 0.20001 0.0
C177 C 0.23827 0.42198 0.20841 0.0
C178 C 0.13728 0.32003 0.18081 0.0
C179 C 0.17028 0.30268 0.16906 0.0
C180 C 0.2354 0.34159 0.18226 0.0
C181 C 0.26905 0.40078 0.20199 0.0
H182 H 0.89146 0.22922 0.5821 0.0
H183 H 0.77542 0.07917 0.66811 0.0
H184 H 0.85355 0.27765 0.60578 0.0
H185 H 0.74122 0.13019 0.69367 0.0
H186 H 0.63971 0.20168 0.7007 0.0
H187 H 0.67562 0.14979 0.67984 0.0
H188 H 0.86771 0.33895 0.65992 0.0
H189 H 0.83001 0.38991 0.67915 0.0
C190 C 0.85757 0.20629 0.6059 0.0
C191 C 0.83679 0.15042 0.62328 0.0
C192 C 0.83677 0.23482 0.62004 0.0
C193 C 0.79514 0.20855 0.65214 0.0
C194 C 0.77308 0.15173 0.66885 0.0
C195 C 0.79331 0.12282 0.65444 0.0
C196 C 0.68997 0.23185 0.69272 0.0
C197 C 0.73267 0.29951 0.69211 0.0
C198 C 0.71064 0.20232 0.6807 0.0
C199 C 0.77451 0.24009 0.66784 0.0
C200 C 0.81783 0.30824 0.66882 0.0
C201 C 0.79679 0.3376 0.6804 0.0
H202 H 0.89499 0.93442 0.11729 0.0
H203 H 0.79387 0.91051 0.01109 0.0
H204 H 0.79441 0.87144 0.15334 0.0
H205 H 0.69368 0.84831 0.04734 0.0
H206 H 0.51449 0.66937 0.10633 0.0
H207 H 0.61897 0.73999 0.0753 0.0
H208 H 0.70973 0.86741 0.17843 0.0
H209 H 0.60347 0.79595 0.20992 0.0
C210 C 0.85154 0.91636 0.10165 0.0
C211 C 0.85251 0.92695 0.06103 0.0
C212 C 0.79392 0.88052 0.12248 0.0
C213 C 0.73573 0.85409 0.1032 0.0
C214 C 0.73735 0.86688 0.06297 0.0
C215 C 0.79493 0.90283 0.04217 0.0
C216 C 0.55654 0.7122 0.12273 0.0
C217 C 0.55028 0.72683 0.16079 0.0
C218 C 0.61658 0.7531 0.10466 0.0
C219 C 0.67266 0.81007 0.12398 0.0
C220 C 0.66737 0.82384 0.1627 0.0
C221 C 0.60664 0.78272 0.18088 0.0
H222 H 0.86688 0.76818 0.51803 0.0
H223 H 0.95846 0.8951 0.62153 0.0
H224 H 0.80792 0.67417 0.56007 0.0
H225 H 0.89936 0.80075 0.66353 0.0
H226 H 0.82703 0.60291 0.713 0.0
H227 H 0.89 0.70634 0.67896 0.0
H228 H 0.71864 0.62264 0.60856 0.0
H229 H 0.65642 0.52072 0.64242 0.0
C230 C 0.87467 0.7761 0.54969 0.0
C231 C 0.91702 0.83917 0.56633 0.0
C232 C 0.84063 0.72222 0.57383 0.0
C233 C 0.84851 0.73006 0.61518 0.0
C234 C 0.89232 0.79318 0.63183 0.0
C235 C 0.92586 0.84712 0.60769 0.0
C236 C 0.80251 0.60768 0.69132 0.0
C237 C 0.73686 0.5539 0.6804 0.0
C238 C 0.83859 0.66654 0.67154 0.0
C239 C 0.80954 0.67199 0.64041 0.0
C240 C 0.7428 0.61951 0.6317 0.0
C241 C 0.70701 0.56135 0.65141 0.0
H242 H 0.18958 0.83084 0.41355 0.0
H243 H 0.25222 0.93924 0.30656 0.0
H244 H 0.22722 0.78254 0.38988 0.0
H245 H 0.28695 0.88764 0.28181 0.0
H246 H 0.39837 0.82062 0.27612 0.0
H247 H 0.36561 0.8778 0.29189 0.0
H248 H 0.18746 0.70147 0.33986 0.0
H249 H 0.22157 0.64615 0.32555 0.0
C250 C 0.21227 0.8452 0.38519 0.0
C251 C 0.21762 0.88885 0.36194 0.0
C252 C 0.23277 0.81648 0.37125 0.0
C253 C 0.25856 0.83003 0.33351 0.0
C254 C 0.2669 0.87596 0.3109 0.0
C255 C 0.2466 0.90511 0.32498 0.0
C256 C 0.3515 0.79412 0.28899 0.0
C257 C 0.31212 0.72927 0.29957 0.0
C258 C 0.33284 0.82669 0.29817 0.0
C259 C 0.27472 0.79451 0.31804 0.0
C260 C 0.23341 0.72815 0.32565 0.0
C261 C 0.25236 0.69618 0.31701 0.0
H262 H 0.15245 0.09813 0.87698 0.0
H263 H 0.242 0.11062 0.98507 0.0
H264 H 0.25319 0.15486 0.84303 0.0
H265 H 0.34498 0.17308 0.95283 0.0
H266 H 0.51926 0.25182 0.88265 0.0
H267 H 0.41606 0.18799 0.91529 0.0
H268 H 0.35227 0.24273 0.82655 0.0
H269 H 0.45278 0.30043 0.79248 0.0
C270 C 0.19424 0.11386 0.89359 0.0
C271 C 0.189 0.09947 0.93364 0.0
C272 C 0.25297 0.14751 0.87423 0.0
C273 C 0.30948 0.17029 0.89466 0.0
C274 C 0.30358 0.15589 0.93509 0.0
C275 C 0.24416 0.12019 0.954 0.0
C276 C 0.48283 0.24987 0.87029 0.0
C277 C 0.49421 0.28109 0.83498 0.0
C278 C 0.42319 0.21345 0.88921 0.0
C279 C 0.37373 0.20895 0.87416 0.0
C280 C 0.38676 0.2422 0.83913 0.0
C281 C 0.44532 0.2765 0.81956 0.0
H282 H 0.01524 0.14752 0.42764 0.0
H283 H 0.19118 0.18846 0.42192 0.0
H284 H 0.06099 0.23638 0.3838 0.0
H285 H 0.2386 0.27979 0.37944 0.0
H286 H 0.30437 0.42963 0.28995 0.0
H287 H 0.24146 0.32158 0.31747 0.0
H288 H 0.13916 0.34888 0.38973 0.0
H289 H 0.19911 0.4535 0.36124 0.0
C290 C 0.064 0.17589 0.41727 0.0
C291 C 0.09993 0.1615 0.42882 0.0
C292 C 0.09038 0.22701 0.39205 0.0
C293 C 0.15399 0.2661 0.37824 0.0
C294 C 0.18925 0.25048 0.38896 0.0
C295 C 0.16235 0.19852 0.41375 0.0
C296 C 0.26657 0.41098 0.31057 0.0
C297 C 0.2564 0.44967 0.3234 0.0
C298 C 0.23129 0.34969 0.32688 0.0
C299 C 0.18538 0.32637 0.35622 0.0
C300 C 0.17305 0.36409 0.36695 0.0
C301 C 0.20783 0.42456 0.35071 0.0
H302 H 0.81522 0.1734 0.94618 0.0
H303 H 0.89771 0.21844 0.83111 0.0
H304 H 0.76558 0.21319 0.92682 0.0
H305 H 0.85015 0.25946 0.8124 0.0
H306 H 0.69582 0.25346 0.77287 0.0
H307 H 0.74225 0.21373 0.79706 0.0
H308 H 0.79008 0.31311 0.90886 0.0
H309 H 0.74294 0.35358 0.88395 0.0
C310 C 0.82293 0.19184 0.91684 0.0
C311 C 0.86069 0.19265 0.89029 0.0
C312 C 0.79499 0.21526 0.90589 0.0
C313 C 0.80345 0.23931 0.86795 0.0
C314 C 0.84174 0.2406 0.84169 0.0
C315 C 0.86978 0.21766 0.85263 0.0
C316 C 0.71673 0.26757 0.80245 0.0
C317 C 0.71693 0.30804 0.82601 0.0
C318 C 0.74341 0.2446 0.81645 0.0
C319 C 0.77122 0.26109 0.85473 0.0
C320 C 0.76916 0.29946 0.87918 0.0
C321 C 0.74228 0.32276 0.86494 0.0
H322 H 0.77849 0.87167 0.47576 0.0
H323 H 0.89922 0.95353 0.3737 0.0
H324 H 0.68278 0.81862 0.43301 0.0
H325 H 0.80413 0.9025 0.33115 0.0
H326 H 0.60326 0.7372 0.26665 0.0
H327 H 0.7047 0.79663 0.30579 0.0
H328 H 0.63721 0.84717 0.39296 0.0
H329 H 0.53723 0.78801 0.35464 0.0
C330 C 0.78459 0.87893 0.44429 0.0
C331 C 0.84606 0.91651 0.42804 0.0
C332 C 0.72996 0.84876 0.41977 0.0
C333 C 0.73607 0.85654 0.37865 0.0
C334 C 0.79776 0.89476 0.36257 0.0
C335 C 0.85218 0.92425 0.38701 0.0
C336 C 0.6113 0.76251 0.29366 0.0
C337 C 0.56281 0.75812 0.30772 0.0
C338 C 0.66889 0.79611 0.31619 0.0
C339 C 0.67823 0.82548 0.35284 0.0
C340 C 0.63085 0.82369 0.36547 0.0
C341 C 0.57386 0.79035 0.34324 0.0
H342 H 0.8834 0.85975 0.88241 0.0
H343 H 0.95971 0.81218 0.96562 0.0
H344 H 0.82253 0.75556 0.8476 0.0
H345 H 0.90107 0.70995 0.93054 0.0
H346 H 0.73498 0.50204 0.88727 0.0
H347 H 0.79383 0.60655 0.92013 0.0
H348 H 0.831 0.69351 0.80703 0.0
H349 H 0.76997 0.58844 0.77444 0.0
C350 C 0.88787 0.82754 0.89297 0.0
C351 C 0.92602 0.8442 0.92701 0.0
C352 C 0.85306 0.76779 0.87301 0.0
C353 C 0.85607 0.72364 0.88649 0.0
C354 C 0.89595 0.74158 0.91982 0.0
C355 C 0.9301 0.80071 0.93984 0.0
C356 C 0.7556 0.54337 0.86942 0.0
C357 C 0.74816 0.53678 0.82815 0.0
C358 C 0.78983 0.60361 0.88824 0.0
C359 C 0.81784 0.65901 0.8663 0.0
C360 C 0.80976 0.6521 0.82501 0.0
C361 C 0.77527 0.5918 0.80624 0.0
loop_
_geom_bond_atom_site_label_1
_geom_bond_atom_site_label_2
_geom_bond_distance
_geom_bond_site_symmetry_2
_ccdc_geom_bond_type
Tb0 C10 2.825 . S
Tb0 O11 2.347 1_546 S
Tb0 O14 2.366 1_655 S
Tb0 O19 2.418 1_655 S
Tb0 O20 2.384 1_545 S
Tb0 O23 2.479 . S
Tb0 O24 2.471 . S
Eu1 O12 2.418 1_455 S
Eu1 O13 2.384 1_565 S
Eu1 O16 2.479 . S
Eu1 O17 2.471 . S
Eu1 O18 2.347 1_564 S
Eu1 O21 2.366 1_455 S
Eu1 C31 2.825 . S
C2 O18 1.259 . S
C2 O19 1.265 . S
C3 O20 1.255 . S
C3 O21 1.265 1_556 S
C4 C6 1.380 . S
C4 C7 1.374 . S
C4 C10 1.507 . S
C5 C6 1.384 . S
C5 C9 1.387 . S
C5 H32 0.930 . S
C6 C4 1.380 . S
C6 C5 1.384 . S
C6 H33 0.931 . S
C7 C4 1.374 . S
C7 C8 1.390 . S
C7 H34 0.930 . S
C8 C7 1.390 . S
C8 C9 1.391 . S
C8 H35 0.930 . S
C9 C5 1.387 . S
C9 C8 1.391 . S
C10 Tb0 2.825 . S
C10 C4 1.507 . S
C10 O23 1.238 . S
C10 O24 1.247 . S
O11 Tb0 2.347 1_564 S
O11 C15 1.259 . S
O12 Eu1 2.418 1_655 S
O12 C15 1.265 . S
O13 Eu1 2.384 1_545 S
O13 C22 1.255 . S
O14 Tb0 2.366 1_455 S
O14 C22 1.265 1_556 S
C15 O11 1.259 . S
C15 O12 1.265 . S
O16 Eu1 2.479 . S
O16 C31 1.238 . S
O17 Eu1 2.471 . S
O17 C31 1.247 . S
O18 Eu1 2.347 1_546 S
O18 C2 1.259 . S
O19 Tb0 2.418 1_455 S
O19 C2 1.265 . S
O20 Tb0 2.384 1_565 S
O20 C3 1.255 . S
O21 Eu1 2.366 1_655 S
O21 C3 1.265 1_554 S
C22 O13 1.255 . S
C22 O14 1.265 1_554 S
O23 Tb0 2.479 . S
O23 C10 1.238 . S
O24 Tb0 2.471 . S
O24 C10 1.247 . S
C25 C28 1.380 . S
C25 C29 1.374 . S
C25 C31 1.507 . S
C26 C27 1.387 . S
C26 C30 1.391 . S
C27 C26 1.387 . S
C27 C28 1.384 . S
C27 H36 0.930 . S
C28 C25 1.380 . S
C28 C27 1.384 . S
C28 H37 0.931 . S
C29 C25 1.374 . S
C29 C30 1.390 . S
C29 H38 0.930 . S
C30 C26 1.391 . S
C30 C29 1.390 . S
C30 H39 0.930 . S
C31 Eu1 2.825 . S
C31 O16 1.238 . S
C31 O17 1.247 . S
C31 C25 1.507 . S
H32 C5 0.930 . S
H33 C6 0.931 . S
H34 C7 0.930 . S
H35 C8 0.930 . S
H36 C27 0.930 . S
H37 C28 0.931 . S
H38 C29 0.930 . S
H39 C30 0.930 . S
Tb40 C50 2.825 1_455 S
Tb40 O51 2.347 . S
Tb40 O54 2.366 1_445 S
Tb40 O59 2.418 1_445 S
Tb40 O60 2.384 . S
Tb40 O63 2.479 1_455 S
Tb40 O64 2.471 1_455 S
Eu41 O52 2.418 1_565 S
Eu41 O53 2.384 1_455 S
Eu41 O56 2.479 . S
Eu41 O57 2.471 . S
Eu41 O58 2.347 1_455 S
Eu41 O61 2.366 1_565 S
Eu41 C71 2.825 . S
C42 O58 1.259 . S
C42 O59 1.265 . S
C43 O60 1.255 . S
C43 O61 1.265 . S
C44 C46 1.380 . S
C44 C47 1.374 . S
C44 C50 1.507 . S
C45 C46 1.384 . S
C45 C49 1.387 . S
C45 H72 0.930 . S
C46 C44 1.380 . S
C46 C45 1.384 . S
C46 H73 0.931 . S
C47 C44 1.374 . S
C47 C48 1.390 . S
C47 H74 0.930 . S
C48 C47 1.390 . S
C48 C49 1.391 . S
C48 H75 0.930 . S
C49 C45 1.387 . S
C49 C48 1.391 . S
C50 Tb40 2.825 1_655 S
C50 C44 1.507 . S
C50 O63 1.238 . S
C50 O64 1.247 . S
O51 Tb40 2.347 . S
O51 C55 1.259 . S
O52 Eu41 2.418 1_545 S
O52 C55 1.265 . S
O53 Eu41 2.384 1_655 S
O53 C62 1.255 . S
O54 Tb40 2.366 1_665 S
O54 C62 1.265 . S
C55 O51 1.259 . S
C55 O52 1.265 . S
O56 Eu41 2.479 . S
O56 C71 1.238 . S
O57 Eu41 2.471 . S
O57 C71 1.247 . S
O58 Eu41 2.347 1_655 S
O58 C42 1.259 . S
O59 Tb40 2.418 1_665 S
O59 C42 1.265 . S
O60 Tb40 2.384 . S
O60 C43 1.255 . S
O61 Eu41 2.366 1_545 S
O61 C43 1.265 . S
C62 O53 1.255 . S
C62 O54 1.265 . S
O63 Tb40 2.479 1_655 S
O63 C50 1.238 . S
O64 Tb40 2.471 1_655 S
O64 C50 1.247 . S
C65 C68 1.380 . S
C65 C69 1.374 . S
C65 C71 1.507 . S
C66 C67 1.387 . S
C66 C70 1.391 . S
C67 C66 1.387 . S
C67 C68 1.384 . S
C67 H76 0.930 . S
C68 C65 1.380 . S
C68 C67 1.384 . S
C68 H77 0.931 . S
C69 C65 1.374 . S
C69 C70 1.390 . S
C69 H78 0.930 . S
C70 C66 1.391 . S
C70 C69 1.390 . S
C70 H79 0.930 . S
C71 Eu41 2.825 . S
C71 O56 1.238 . S
C71 O57 1.247 . S
C71 C65 1.507 . S
H72 C45 0.930 . S
H73 C46 0.931 . S
H74 C47 0.930 . S
H75 C48 0.930 . S
H76 C67 0.930 . S
H77 C68 0.931 . S
H78 C69 0.930 . S
H79 C70 0.930 . S
Zn80 O86 1.920 . S
Zn80 O92 1.898 . S
Zn80 O95 1.905 . S
Zn81 O89 1.905 . S
Zn81 O90 1.898 . S
Zn81 O98 1.920 . S
Zn82 O85 2.080 . S
Zn82 O88 2.114 . S
Zn82 O91 2.120 . S
Zn82 O93 2.120 . S
Zn82 O94 2.114 . S
Zn82 O97 2.080 . S
C83 O88 1.166 . S
C83 O89 1.182 . S
C84 O90 1.167 . S
C84 O91 1.299 . S
O85 Zn82 2.080 . S
O85 C99 1.305 . S
O86 Zn80 1.920 . S
O86 C99 1.234 . S
C87 O92 1.167 . S
C87 O93 1.299 . S
O88 Zn82 2.114 . S
O88 C83 1.166 . S
O89 Zn81 1.905 . S
O89 C83 1.182 . S
O90 Zn81 1.898 . S
O90 C84 1.167 . S
O91 Zn82 2.120 . S
O91 C84 1.299 . S
O92 Zn80 1.898 . S
O92 C87 1.167 . S
O93 Zn82 2.120 . S
O93 C87 1.299 . S
O94 Zn82 2.114 . S
O94 C96 1.166 . S
O95 Zn80 1.905 . S
O95 C96 1.182 . S
C96 O94 1.166 . S
C96 O95 1.182 . S
O97 Zn82 2.080 . S
O97 C100 1.305 . S
O98 Zn81 1.920 . S
O98 C100 1.234 . S
C99 O85 1.305 . S
C99 O86 1.234 . S
C100 O97 1.305 . S
C100 O98 1.234 . S
Zn101 O107 1.920 . S
Zn101 O113 1.898 . S
Zn101 O116 1.905 . S
Zn102 O110 1.905 . S
Zn102 O111 1.898 . S
Zn102 O119 1.920 . S
Zn103 O106 2.080 . S
Zn103 O109 2.114 . S
Zn103 O112 2.120 . S
Zn103 O114 2.120 . S
Zn103 O115 2.114 . S
Zn103 O118 2.080 . S
C104 O109 1.166 . S
C104 O110 1.182 . S
C105 O111 1.167 . S
C105 O112 1.299 . S
O106 Zn103 2.080 . S
O106 C120 1.305 . S
O107 Zn101 1.920 . S
O107 C120 1.234 . S
C108 O113 1.167 . S
C108 O114 1.299 . S
O109 Zn103 2.114 . S
O109 C104 1.166 . S
O110 Zn102 1.905 . S
O110 C104 1.182 . S
O111 Zn102 1.898 . S
O111 C105 1.167 . S
O112 Zn103 2.120 . S
O112 C105 1.299 . S
O113 Zn101 1.898 . S
O113 C108 1.167 . S
O114 Zn103 2.120 . S
O114 C108 1.299 . S
O115 Zn103 2.114 . S
O115 C117 1.166 . S
O116 Zn101 1.905 . S
O116 C117 1.182 . S
C117 O115 1.166 . S
C117 O116 1.182 . S
O118 Zn103 2.080 . S
O118 C121 1.305 . S
O119 Zn102 1.920 . S
O119 C121 1.234 . S
C120 O106 1.305 . S
C120 O107 1.234 . S
C121 O118 1.305 . S
C121 O119 1.234 . S
H122 C130 0.950 . S
H123 C135 0.950 . S
H124 C132 0.950 . S
H125 C134 0.950 . S
H126 C136 0.950 . S
H127 C138 0.950 . S
H128 C140 0.950 . S
H129 C141 0.950 . S
C130 H122 0.950 . S
C130 C131 1.386 . S
C130 C132 1.391 . S
C131 C130 1.386 . S
C131 C135 1.393 . S
C132 H124 0.950 . S
C132 C130 1.391 . S
C132 C133 1.400 . S
C133 C132 1.400 . S
C133 C134 1.398 . S
C133 C139 1.491 . S
C134 H125 0.950 . S
C134 C133 1.398 . S
C134 C135 1.391 . S
C135 H123 0.950 . S
C135 C131 1.393 . S
C135 C134 1.391 . S
C136 H126 0.950 . S
C136 C137 1.386 . S
C136 C138 1.391 . S
C137 C136 1.386 . S
C137 C141 1.393 . S
C138 H127 0.950 . S
C138 C136 1.391 . S
C138 C139 1.400 . S
C139 C133 1.491 . S
C139 C138 1.400 . S
C139 C140 1.398 . S
C140 H128 0.950 . S
C140 C139 1.398 . S
C140 C141 1.391 . S
C141 H129 0.950 . S
C141 C137 1.393 . S
C141 C140 1.391 . S
H142 C150 0.950 . S
H143 C155 0.950 . S
H144 C152 0.950 . S
H145 C154 0.950 . S
H146 C156 0.950 . S
H147 C158 0.950 . S
H148 C160 0.950 . S
H149 C161 0.950 . S
C150 H142 0.950 . S
C150 C151 1.386 . S
C150 C152 1.391 . S
C151 C150 1.386 . S
C151 C155 1.393 . S
C152 H144 0.950 . S
C152 C150 1.391 . S
C152 C153 1.400 . S
C153 C152 1.400 . S
C153 C154 1.398 . S
C153 C159 1.491 . S
C154 H145 0.950 . S
C154 C153 1.398 . S
C154 C155 1.391 . S
C155 H143 0.950 . S
C155 C151 1.393 . S
C155 C154 1.391 . S
C156 H146 0.950 . S
C156 C157 1.386 . S
C156 C158 1.391 . S
C157 C156 1.386 . S
C157 C161 1.393 . S
C158 H147 0.950 . S
C158 C156 1.391 . S
C158 C159 1.400 . S
C159 C153 1.491 . S
C159 C158 1.400 . S
C159 C160 1.398 . S
C160 H148 0.950 . S
C160 C159 1.398 . S
C160 C161 1.391 . S
C161 H149 0.950 . S
C161 C157 1.393 . S
C161 C160 1.391 . S
H162 C170 0.950 . S
H163 C175 0.950 . S
H164 C172 0.950 . S
H165 C174 0.950 . S
H166 C176 0.950 . S
H167 C178 0.950 . S
H168 C180 0.950 . S
H169 C181 0.950 . S
C170 H162 0.950 . S
C170 C171 1.386 . S
C170 C172 1.391 . S
C171 C170 1.386 . S
C171 C175 1.393 . S
C172 H164 0.950 . S
C172 C170 1.391 . S
C172 C173 1.400 . S
C173 C172 1.400 . S
C173 C174 1.398 . S
C173 C179 1.491 . S
C174 H165 0.950 . S
C174 C173 1.398 . S
C174 C175 1.391 . S
C175 H163 0.950 . S
C175 C171 1.393 . S
C175 C174 1.391 . S
C176 H166 0.950 . S
C176 C177 1.386 . S
C176 C178 1.391 . S
C177 C176 1.386 . S
C177 C181 1.393 . S
C178 H167 0.950 . S
C178 C176 1.391 . S
C178 C179 1.400 . S
C179 C173 1.491 . S
C179 C178 1.400 . S
C179 C180 1.398 . S
C180 H168 0.950 . S
C180 C179 1.398 . S
C180 C181 1.391 . S
C181 H169 0.950 . S
C181 C177 1.393 . S
C181 C180 1.391 . S
H182 C190 0.950 . S
H183 C195 0.950 . S
H184 C192 0.950 . S
H185 C194 0.950 . S
H186 C196 0.950 . S
H187 C198 0.950 . S
H188 C200 0.950 . S
H189 C201 0.950 . S
C190 H182 0.950 . S
C190 C191 1.386 . S
C190 C192 1.391 . S
C191 C190 1.386 . S
C191 C195 1.393 . S
C192 H184 0.950 . S
C192 C190 1.391 . S
C192 C193 1.400 . S
C193 C192 1.400 . S
C193 C194 1.398 . S
C193 C199 1.491 . S
C194 H185 0.950 . S
C194 C193 1.398 . S
C194 C195 1.391 . S
C195 H183 0.950 . S
C195 C191 1.393 . S
C195 C194 1.391 . S
C196 H186 0.950 . S
C196 C197 1.386 . S
C196 C198 1.391 . S
C197 C196 1.386 . S
C197 C201 1.393 . S
C198 H187 0.950 . S
C198 C196 1.391 . S
C198 C199 1.400 . S
C199 C193 1.491 . S
C199 C198 1.400 . S
C199 C200 1.398 . S
C200 H188 0.950 . S
C200 C199 1.398 . S
C200 C201 1.391 . S
C201 H189 0.950 . S
C201 C197 1.393 . S
C201 C200 1.391 . S
H202 C210 0.950 . S
H203 C215 0.950 . S
H204 C212 0.950 . S
H205 C214 0.950 . S
H206 C216 0.950 . S
H207 C218 0.950 . S
H208 C220 0.950 . S
H209 C221 0.950 . S
C210 H202 0.950 . S
C210 C211 1.386 . S
C210 C212 1.391 . S
C211 C210 1.386 . S
C211 C215 1.393 . S
C212 H204 0.950 . S
C212 C210 1.391 . S
C212 C213 1.400 . S
C213 C212 1.400 . S
C213 C214 1.398 . S
C213 C219 1.491 . S
C214 H205 0.950 . S
C214 C213 1.398 . S
C214 C215 1.391 . S
C215 H203 0.950 . S
C215 C211 1.393 . S
C215 C214 1.391 . S
C216 H206 0.950 . S
C216 C217 1.386 . S
C216 C218 1.391 . S
C217 C216 1.386 . S
C217 C221 1.393 . S
C218 H207 0.950 . S
C218 C216 1.391 . S
C218 C219 1.400 . S
C219 C213 1.491 . S
C219 C218 1.400 . S
C219 C220 1.398 . S
C220 H208 0.950 . S
C220 C219 1.398 . S
C220 C221 1.391 . S
C221 H209 0.950 . S
C221 C217 1.393 . S
C221 C220 1.391 . S
H222 C230 0.950 . S
H223 C235 0.950 . S
H224 C232 0.950 . S
H225 C234 0.950 . S
H226 C236 0.950 . S
H227 C238 0.950 . S
H228 C240 0.950 . S
H229 C241 0.950 . S
C230 H222 0.950 . S
C230 C231 1.386 . S
C230 C232 1.391 . S
C231 C230 1.386 . S
C231 C235 1.393 . S
C232 H224 0.950 . S
C232 C230 1.391 . S
C232 C233 1.400 . S
C233 C232 1.400 . S
C233 C234 1.398 . S
C233 C239 1.491 . S
C234 H225 0.950 . S
C234 C233 1.398 . S
C234 C235 1.391 . S
C235 H223 0.950 . S
C235 C231 1.393 . S
C235 C234 1.391 . S
C236 H226 0.950 . S
C236 C237 1.386 . S
C236 C238 1.391 . S
C237 C236 1.386 . S
C237 C241 1.393 . S
C238 H227 0.950 . S
C238 C236 1.391 . S
C238 C239 1.400 . S
C239 C233 1.491 . S
C239 C238 1.400 . S
C239 C240 1.398 . S
C240 H228 0.950 . S
C240 C239 1.398 . S
C240 C241 1.391 . S
C241 H229 0.950 . S
C241 C237 1.393 . S
C241 C240 1.391 . S
H242 C250 0.950 . S
H243 C255 0.950 . S
H244 C252 0.950 . S
H245 C254 0.950 . S
H246 C256 0.950 . S
H247 C258 0.950 . S
H248 C260 0.950 . S
H249 C261 0.950 . S
C250 H242 0.950 . S
C250 C251 1.386 . S
C250 C252 1.391 . S
C251 C250 1.386 . S
C251 C255 1.393 . S
C252 H244 0.950 . S
C252 C250 1.391 . S
C252 C253 1.400 . S
C253 C252 1.400 . S
C253 C254 1.398 . S
C253 C259 1.491 . S
C254 H245 0.950 . S
C254 C253 1.398 . S
C254 C255 1.391 . S
C255 H243 0.950 . S
C255 C251 1.393 . S
C255 C254 1.391 . S
C256 H246 0.950 . S
C256 C257 1.386 . S
C256 C258 1.391 . S
C257 C256 1.386 . S
C257 C261 1.393 . S
C258 H247 0.950 . S
C258 C256 1.391 . S
C258 C259 1.400 . S
C259 C253 1.491 . S
C259 C258 1.400 . S
C259 C260 1.398 . S
C260 H248 0.950 . S
C260 C259 1.398 . S
C260 C261 1.391 . S
C261 H249 0.950 . S
C261 C257 1.393 . S
C261 C260 1.391 . S
H262 C270 0.950 . S
H263 C275 0.950 . S
H264 C272 0.950 . S
H265 C274 0.950 . S
H266 C276 0.950 . S
H267 C278 0.950 . S
H268 C280 0.950 . S
H269 C281 0.950 . S
C270 H262 0.950 . S
C270 C271 1.386 . S
C270 C272 1.391 . S
C271 C270 1.386 . S
C271 C275 1.393 . S
C272 H264 0.950 . S
C272 C270 1.391 . S
C272 C273 1.400 . S
C273 C272 1.400 . S
C273 C274 1.398 . S
C273 C279 1.491 . S
C274 H265 0.950 . S
C274 C273 1.398 . S
C274 C275 1.391 . S
C275 H263 0.950 . S
C275 C271 1.393 . S
C275 C274 1.391 . S
C276 H266 0.950 . S
C276 C277 1.386 . S
C276 C278 1.391 . S
C277 C276 1.386 . S
C277 C281 1.393 . S
C278 H267 0.950 . S
C278 C276 1.391 . S
C278 C279 1.400 . S
C279 C273 1.491 . S
C279 C278 1.400 . S
C279 C280 1.398 . S
C280 H268 0.950 . S
C280 C279 1.398 . S
C280 C281 1.391 . S
C281 H269 0.950 . S
C281 C277 1.393 . S
C281 C280 1.391 . S
H282 C290 0.950 . S
H283 C295 0.950 . S
H284 C292 0.950 . S
H285 C294 0.950 . S
H286 C296 0.950 . S
H287 C298 0.950 . S
H288 C300 0.950 . S
H289 C301 0.950 . S
C290 H282 0.950 . S
C290 C291 1.386 . S
C290 C292 1.391 . S
C291 C290 1.386 . S
C291 C295 1.393 . S
C292 H284 0.950 . S
C292 C290 1.391 . S
C292 C293 1.400 . S
C293 C292 1.400 . S
C293 C294 1.398 . S
C293 C299 1.491 . S
C294 H285 0.950 . S
C294 C293 1.398 . S
C294 C295 1.391 . S
C295 H283 0.950 . S
C295 C291 1.393 . S
C295 C294 1.391 . S
C296 H286 0.950 . S
C296 C297 1.386 . S
C296 C298 1.391 . S
C297 C296 1.386 . S
C297 C301 1.393 . S
C298 H287 0.950 . S
C298 C296 1.391 . S
C298 C299 1.400 . S
C299 C293 1.491 . S
C299 C298 1.400 . S
C299 C300 1.398 . S
C300 H288 0.950 . S
C300 C299 1.398 . S
C300 C301 1.391 . S
C301 H289 0.950 . S
C301 C297 1.393 . S
C301 C300 1.391 . S
H302 C310 0.950 . S
H303 C315 0.950 . S
H304 C312 0.950 . S
H305 C314 0.950 . S
H306 C316 0.950 . S
H307 C318 0.950 . S
H308 C320 0.950 . S
H309 C321 0.950 . S
C310 H302 0.950 . S
C310 C311 1.386 . S
C310 C312 1.391 . S
C311 C310 1.386 . S
C311 C315 1.393 . S
C312 H304 0.950 . S
C312 C310 1.391 . S
C312 C313 1.400 . S
C313 C312 1.400 . S
C313 C314 1.398 . S
C313 C319 1.491 . S
C314 H305 0.950 . S
C314 C313 1.398 . S
C314 C315 1.391 . S
C315 H303 0.950 . S
C315 C311 1.393 . S
C315 C314 1.391 . S
C316 H306 0.950 . S
C316 C317 1.386 . S
C316 C318 1.391 . S
C317 C316 1.386 . S
C317 C321 1.393 . S
C318 H307 0.950 . S
C318 C316 1.391 . S
C318 C319 1.400 . S
C319 C313 1.491 . S
C319 C318 1.400 . S
C319 C320 1.398 . S
C320 H308 0.950 . S
C320 C319 1.398 . S
C320 C321 1.391 . S
C321 H309 0.950 . S
C321 C317 1.393 . S
C321 C320 1.391 . S
H322 C330 0.950 . S
H323 C335 0.950 . S
H324 C332 0.950 . S
H325 C334 0.950 . S
H326 C336 0.950 . S
H327 C338 0.950 . S
H328 C340 0.950 . S
H329 C341 0.950 . S
C330 H322 0.950 . S
C330 C331 1.386 . S
C330 C332 1.391 . S
C331 C330 1.386 . S
C331 C335 1.393 . S
C332 H324 0.950 . S
C332 C330 1.391 . S
C332 C333 1.400 . S
C333 C332 1.400 . S
C333 C334 1.398 . S
C333 C339 1.491 . S
C334 H325 0.950 . S
C334 C333 1.398 . S
C334 C335 1.391 . S
C335 H323 0.950 . S
C335 C331 1.393 . S
C335 C334 1.391 . S
C336 H326 0.950 . S
C336 C337 1.386 . S
C336 C338 1.391 . S
C337 C336 1.386 . S
C337 C341 1.393 . S
C338 H327 0.950 . S
C338 C336 1.391 . S
C338 C339 1.400 . S
C339 C333 1.491 . S
C339 C338 1.400 . S
C339 C340 1.398 . S
C340 H328 0.950 . S
C340 C339 1.398 . S
C340 C341 1.391 . S
C341 H329 0.950 . S
C341 C337 1.393 . S
C341 C340 1.391 . S
H342 C350 0.950 . S
H343 C355 0.950 . S
H344 C352 0.950 . S
H345 C354 0.950 . S
H346 C356 0.950 . S
H347 C358 0.950 . S
H348 C360 0.950 . S
H349 C361 0.950 . S
C350 H342 0.950 . S
C350 C351 1.386 . S
C350 C352 1.391 . S
C351 C350 1.386 . S
C351 C355 1.393 . S
C352 H344 0.950 . S
C352 C350 1.391 . S
C352 C353 1.400 . S
C353 C352 1.400 . S
C353 C354 1.398 . S
C353 C359 1.491 . S
C354 H345 0.950 . S
C354 C353 1.398 . S
C354 C355 1.391 . S
C355 H343 0.950 . S
C355 C351 1.393 . S
C355 C354 1.391 . S
C356 H346 0.950 . S
C356 C357 1.386 . S
C356 C358 1.391 . S
C357 C356 1.386 . S
C357 C361 1.393 . S
C358 H347 0.950 . S
C358 C356 1.391 . S
C358 C359 1.400 . S
C359 C353 1.491 . S
C359 C358 1.400 . S
C359 C360 1.398 . S
C360 H348 0.950 . S
C360 C359 1.398 . S
C360 C361 1.391 . S
C361 H349 0.950 . S
C361 C357 1.393 . S
C361 C360 1.391 . S
C131 C26 1.337 . S
C137 C99 1.277 . S
C151 C43 1.282 . S
C157 C105 1.141 . S
C171 C22 1.395 . S
C177 C96 1.293 . S
C191 C49 1.428 . S
C197 C121 1.360 . S
C211 C15 1.863 . S
C217 C87 1.700 . S
C237 C104 1.805 . S
C231 C42 1.936 . S
C251 C66 1.336 . S
C257 C100 1.274 . S
C277 C117 1.809 . S
C271 C2 1.933 . S
C297 C84 1.718 . S
C291 C55 1.865 . S
C317 C120 1.342 . S
C311 C9 1.421 . S
C337 C83 1.282 . S
C331 C62 1.397 . S
C357 C108 1.130 . S
C351 C3 1.278 . S
