# Generated by pormake.
# Topology ocu, (6,8)-cn, num edge types: 1
# Building blocks:
#     Node 0, Type 0, BuildingBlock: KUMJIN_clean_sbu_1, # of connection points: 6
#     Node 1, Type 0, BuildingBlock: KUMJIN_clean_sbu_1, # of connection points: 6
#     Node 2, Type 0, BuildingBlock: KUMJIN_clean_sbu_1, # of connection points: 6
#     Node 3, Type 0, BuildingBlock: KUMJIN_clean_sbu_1, # of connection points: 6
#     Node 4, Type 0, BuildingBlock: KUMJIN_clean_sbu_1, # of connection points: 6
#     Node 5, Type 0, BuildingBlock: KUMJIN_clean_sbu_1, # of connection points: 6
#     Node 6, Type 0, BuildingBlock: KUMJIN_clean_sbu_1, # of connection points: 6
#     Node 7, Type 0, BuildingBlock: KUMJIN_clean_sbu_1, # of connection points: 6
#     Node 8, Type 1, BuildingBlock: TAGTUT_clean_sbu_1, # of connection points: 8
#     Node 9, Type 1, BuildingBlock: TAGTUT_clean_sbu_1, # of connection points: 8
#     Node 10, Type 1, BuildingBlock: TAGTUT_clean_sbu_1, # of connection points: 8
#     Node 11, Type 1, BuildingBlock: TAGTUT_clean_sbu_1, # of connection points: 8
#     Node 12, Type 1, BuildingBlock: TAGTUT_clean_sbu_1, # of connection points: 8
#     Node 13, Type 1, BuildingBlock: TAGTUT_clean_sbu_1, # of connection points: 8
#     Edge 14, Type (0, 1), BuildingBlock: XIVTED_clean_linker_0, # of connection points: 2
#     Edge 15, Type (0, 1), BuildingBlock: XIVTED_clean_linker_0, # of connection points: 2
#     Edge 16, Type (0, 1), BuildingBlock: XIVTED_clean_linker_0, # of connection points: 2
#     Edge 17, Type (0, 1), BuildingBlock: XIVTED_clean_linker_0, # of connection points: 2
#     Edge 18, Type (0, 1), BuildingBlock: XIVTED_clean_linker_0, # of connection points: 2
#     Edge 19, Type (0, 1), BuildingBlock: XIVTED_clean_linker_0, # of connection points: 2
#     Edge 20, Type (0, 1), BuildingBlock: XIVTED_clean_linker_0, # of connection points: 2
#     Edge 21, Type (0, 1), BuildingBlock: XIVTED_clean_linker_0, # of connection points: 2
#     Edge 22, Type (0, 1), BuildingBlock: XIVTED_clean_linker_0, # of connection points: 2
#     Edge 23, Type (0, 1), BuildingBlock: XIVTED_clean_linker_0, # of connection points: 2
#     Edge 24, Type (0, 1), BuildingBlock: XIVTED_clean_linker_0, # of connection points: 2
#     Edge 25, Type (0, 1), BuildingBlock: XIVTED_clean_linker_0, # of connection points: 2
#     Edge 26, Type (0, 1), BuildingBlock: XIVTED_clean_linker_0, # of connection points: 2
#     Edge 27, Type (0, 1), BuildingBlock: XIVTED_clean_linker_0, # of connection points: 2
#     Edge 28, Type (0, 1), BuildingBlock: XIVTED_clean_linker_0, # of connection points: 2
#     Edge 29, Type (0, 1), BuildingBlock: XIVTED_clean_linker_0, # of connection points: 2
#     Edge 30, Type (0, 1), BuildingBlock: XIVTED_clean_linker_0, # of connection points: 2
#     Edge 31, Type (0, 1), BuildingBlock: XIVTED_clean_linker_0, # of connection points: 2
#     Edge 32, Type (0, 1), BuildingBlock: XIVTED_clean_linker_0, # of connection points: 2
#     Edge 33, Type (0, 1), BuildingBlock: XIVTED_clean_linker_0, # of connection points: 2
#     Edge 34, Type (0, 1), BuildingBlock: XIVTED_clean_linker_0, # of connection points: 2
#     Edge 35, Type (0, 1), BuildingBlock: XIVTED_clean_linker_0, # of connection points: 2
#     Edge 36, Type (0, 1), BuildingBlock: XIVTED_clean_linker_0, # of connection points: 2
#     Edge 37, Type (0, 1), BuildingBlock: XIVTED_clean_linker_0, # of connection points: 2
#     Edge 38, Type (0, 1), BuildingBlock: XIVTED_clean_linker_0, # of connection points: 2
#     Edge 39, Type (0, 1), BuildingBlock: XIVTED_clean_linker_0, # of connection points: 2
#     Edge 40, Type (0, 1), BuildingBlock: XIVTED_clean_linker_0, # of connection points: 2
#     Edge 41, Type (0, 1), BuildingBlock: XIVTED_clean_linker_0, # of connection points: 2
#     Edge 42, Type (0, 1), BuildingBlock: XIVTED_clean_linker_0, # of connection points: 2
#     Edge 43, Type (0, 1), BuildingBlock: XIVTED_clean_linker_0, # of connection points: 2
#     Edge 44, Type (0, 1), BuildingBlock: XIVTED_clean_linker_0, # of connection points: 2
#     Edge 45, Type (0, 1), BuildingBlock: XIVTED_clean_linker_0, # of connection points: 2
#     Edge 46, Type (0, 1), BuildingBlock: XIVTED_clean_linker_0, # of connection points: 2
#     Edge 47, Type (0, 1), BuildingBlock: XIVTED_clean_linker_0, # of connection points: 2
#     Edge 48, Type (0, 1), BuildingBlock: XIVTED_clean_linker_0, # of connection points: 2
#     Edge 49, Type (0, 1), BuildingBlock: XIVTED_clean_linker_0, # of connection points: 2
#     Edge 50, Type (0, 1), BuildingBlock: XIVTED_clean_linker_0, # of connection points: 2
#     Edge 51, Type (0, 1), BuildingBlock: XIVTED_clean_linker_0, # of connection points: 2
#     Edge 52, Type (0, 1), BuildingBlock: XIVTED_clean_linker_0, # of connection points: 2
#     Edge 53, Type (0, 1), BuildingBlock: XIVTED_clean_linker_0, # of connection points: 2
#     Edge 54, Type (0, 1), BuildingBlock: XIVTED_clean_linker_0, # of connection points: 2
#     Edge 55, Type (0, 1), BuildingBlock: XIVTED_clean_linker_0, # of connection points: 2
#     Edge 56, Type (0, 1), BuildingBlock: XIVTED_clean_linker_0, # of connection points: 2
#     Edge 57, Type (0, 1), BuildingBlock: XIVTED_clean_linker_0, # of connection points: 2
#     Edge 58, Type (0, 1), BuildingBlock: XIVTED_clean_linker_0, # of connection points: 2
#     Edge 59, Type (0, 1), BuildingBlock: XIVTED_clean_linker_0, # of connection points: 2
#     Edge 60, Type (0, 1), BuildingBlock: XIVTED_clean_linker_0, # of connection points: 2
#     Edge 61, Type (0, 1), BuildingBlock: XIVTED_clean_linker_0, # of connection points: 2
# Relax obj value: 0.069
# Max RMSD: 0.174
# Mean RMSD: 0.095
data_MOF--net-ocu--node1-KUMJIN_clean_sbu_1--node2-TAGTUT_clean_sbu_1--edge1-XIVTED_clean_linker_0
_symmetry_space_group_name_H-M    P1
_symmetry_Int_Tables_number       1
_symmetry_cell_setting            triclinic
loop_
_symmetry_equiv_pos_as_xyz
'x, y, z'
_cell_length_a     40.571522
_cell_length_b     39.103686
_cell_length_c     43.191159
_cell_angle_alpha  100.36721
_cell_angle_beta   82.300306
_cell_angle_gamma 113.80201
loop_
_atom_site_label
_atom_site_type_symbol
_atom_site_fract_x
_atom_site_fract_y
_atom_site_fract_z
_atom_type_partial_charge
Eu0 Eu 0.23195 0.23752 0.22181 0.0
C1 C 0.32448 0.34461 0.33167 0.0
N2 N 0.33674 0.33313 0.30241 0.0
C3 C 0.37988 0.3961 0.29861 0.0
C4 C 0.33918 0.3828 0.34525 0.0
C5 C 0.3644 0.35801 0.28601 0.0
C6 C 0.36712 0.4086 0.32828 0.0
C7 C 0.28302 0.32947 0.37801 0.0
C8 C 0.29657 0.31818 0.34785 0.0
C9 C 0.2975 0.36753 0.39147 0.0
C10 C 0.32549 0.39409 0.37515 0.0
Eu11 Eu 0.30834 0.26841 0.28321 0.0
N12 N 0.28223 0.28164 0.33388 0.0
C13 C 0.25531 0.30214 0.39379 0.0
C14 C 0.25681 0.25462 0.34997 0.0
C15 C 0.24249 0.26448 0.37986 0.0
H16 H 0.37505 0.34849 0.26343 0.0
H17 H 0.22189 0.24293 0.39231 0.0
H18 H 0.15618 0.16719 0.24475 0.0
H19 H 0.31654 0.24334 0.11165 0.0
H20 H 0.24815 0.22539 0.3403 0.0
H21 H 0.24415 0.30968 0.41697 0.0
H22 H 0.29582 0.26849 0.16361 0.0
H23 H 0.40176 0.41577 0.28549 0.0
H24 H 0.28729 0.3767 0.41454 0.0
H25 H 0.33638 0.42333 0.38588 0.0
H26 H 0.12036 0.1003 0.22609 0.0
H27 H 0.37913 0.43817 0.33793 0.0
H28 H 0.28424 0.17656 0.08959 0.0
N29 N 0.19482 0.17397 0.20553 0.0
C30 C 0.20445 0.15816 0.17694 0.0
C31 C 0.14411 0.11616 0.21216 0.0
C32 C 0.18441 0.12021 0.1651 0.0
C33 C 0.16474 0.1539 0.2229 0.0
C34 C 0.1541 0.09915 0.18323 0.0
N35 N 0.25367 0.21634 0.17167 0.0
C36 C 0.28206 0.23931 0.15454 0.0
C37 C 0.24499 0.16449 0.12958 0.0
C38 C 0.23439 0.18005 0.15933 0.0
C39 C 0.27518 0.18748 0.1125 0.0
C40 C 0.29359 0.22515 0.12493 0.0
H41 H 0.138 0.06991 0.17495 0.0
H42 H 0.18009 0.07539 0.12618 0.0
H43 H 0.23314 0.11412 0.09513 0.0
O44 O 0.22492 0.27881 0.19797 0.0
O45 O 0.26872 0.20419 0.21454 0.0
O46 O 0.32341 0.24491 0.23393 0.0
O47 O 0.17905 0.22839 0.20724 0.0
O48 O 0.27809 0.29577 0.22348 0.0
O49 O 0.3293 0.29147 0.23673 0.0
O50 O 0.32277 0.23053 0.30547 0.0
O51 O 0.27265 0.3025 0.28741 0.0
O52 O 0.2174 0.25944 0.2719 0.0
O53 O 0.36247 0.28579 0.29873 0.0
O54 O 0.26329 0.20917 0.28147 0.0
O55 O 0.21226 0.21395 0.26813 0.0
C56 C 0.30391 0.21485 0.21537 0.0
C57 C 0.16805 0.28337 0.20762 0.0
C58 C 0.13499 0.31961 0.19626 0.0
C59 C 0.12811 0.32834 0.2289 0.0
C60 C 0.1605 0.29229 0.23997 0.0
C61 C 0.14068 0.31464 0.25052 0.0
C62 C 0.15497 0.29681 0.18573 0.0
C63 C 0.31336 0.30567 0.22095 0.0
C64 C 0.19009 0.26071 0.19684 0.0
C65 C 0.1951 0.10453 0.13559 0.0
C66 C 0.22529 0.12661 0.11789 0.0
C67 C 0.2372 0.29055 0.2892 0.0
C68 C 0.38404 0.23757 0.29656 0.0
C69 C 0.42293 0.20731 0.30735 0.0
C70 C 0.43895 0.21049 0.27648 0.0
C71 C 0.40033 0.24015 0.26582 0.0
C72 C 0.39517 0.22077 0.31718 0.0
C73 C 0.42753 0.22658 0.25587 0.0
C74 C 0.22784 0.19774 0.28216 0.0
C75 C 0.35647 0.25357 0.30755 0.0
H76 H 0.11262 0.34548 0.23773 0.0
H77 H 0.16994 0.28189 0.25703 0.0
H78 H 0.13507 0.32139 0.27558 0.0
H79 H 0.1609 0.29016 0.16069 0.0
H80 H 0.46001 0.20004 0.26814 0.0
H81 H 0.3923 0.2531 0.24966 0.0
H82 H 0.38279 0.21893 0.34101 0.0
H83 H 0.43993 0.2287 0.23211 0.0
Eu84 Eu 0.73511 0.28731 0.25703 0.0
C85 C 0.85994 0.23243 0.18959 0.0
N86 N 0.82482 0.21079 0.19702 0.0
C87 C 0.82196 0.17022 0.14793 0.0
C88 C 0.87732 0.22388 0.1605 0.0
C89 C 0.80583 0.17983 0.177 0.0
C90 C 0.85784 0.19236 0.13961 0.0
C91 C 0.91418 0.28785 0.20288 0.0
C92 C 0.87818 0.2642 0.21059 0.0
C93 C 0.93163 0.2791 0.17407 0.0
C94 C 0.91326 0.24725 0.15296 0.0
Eu95 Eu 0.80063 0.2286 0.24688 0.0
N96 N 0.86014 0.27293 0.23782 0.0
C97 C 0.93149 0.31987 0.22421 0.0
C98 C 0.87731 0.30341 0.25913 0.0
C99 C 0.91303 0.32753 0.25251 0.0
H100 H 0.77852 0.16203 0.18384 0.0
H101 H 0.92642 0.35189 0.26937 0.0
H102 H 0.73787 0.32373 0.33327 0.0
H103 H 0.6197 0.18616 0.19131 0.0
H104 H 0.86395 0.3091 0.28144 0.0
H105 H 0.95913 0.33873 0.21914 0.0
H106 H 0.68059 0.23511 0.19726 0.0
H107 H 0.8068 0.14563 0.13206 0.0
H108 H 0.95927 0.29699 0.16777 0.0
H109 H 0.92703 0.24111 0.13071 0.0
H110 H 0.69698 0.31577 0.38186 0.0
H111 H 0.87024 0.18489 0.11703 0.0
H112 H 0.5782 0.16831 0.23842 0.0
N113 N 0.69887 0.28025 0.30471 0.0
C114 C 0.66423 0.25461 0.3028 0.0
C115 C 0.68753 0.29828 0.35983 0.0
C116 C 0.64015 0.24893 0.32994 0.0
C117 C 0.71061 0.30266 0.33242 0.0
C118 C 0.65225 0.27109 0.35866 0.0
N119 N 0.67637 0.24092 0.24751 0.0
C120 C 0.66404 0.22574 0.21818 0.0
C121 C 0.61705 0.20726 0.27116 0.0
C122 C 0.65297 0.23386 0.27361 0.0
C123 C 0.60555 0.18888 0.24128 0.0
C124 C 0.62895 0.19872 0.21464 0.0
H125 H 0.63452 0.26759 0.38 0.0
H126 H 0.58607 0.21657 0.34826 0.0
H127 H 0.56578 0.18026 0.29685 0.0
O128 O 0.71 0.31492 0.23175 0.0
O129 O 0.72912 0.24726 0.2917 0.0
O130 O 0.74158 0.19846 0.26202 0.0
O131 O 0.73459 0.34199 0.27629 0.0
O132 O 0.74162 0.25392 0.20918 0.0
O133 O 0.74864 0.20248 0.22218 0.0
O134 O 0.82639 0.2175 0.28312 0.0
O135 O 0.81318 0.27111 0.21311 0.0
O136 O 0.79171 0.31739 0.23568 0.0
O137 O 0.80821 0.1756 0.24233 0.0
O138 O 0.79884 0.26573 0.29335 0.0
O139 O 0.78656 0.31517 0.28257 0.0
C140 C 0.72412 0.21144 0.28582 0.0
C141 C 0.70845 0.37735 0.25472 0.0
C142 C 0.67826 0.41171 0.23514 0.0
C143 C 0.69099 0.4409 0.26035 0.0
C144 C 0.72106 0.40746 0.27925 0.0
C145 C 0.71231 0.43882 0.28201 0.0
C146 C 0.6869 0.37956 0.23257 0.0
C147 C 0.7404 0.21911 0.20222 0.0
C148 C 0.71715 0.34377 0.25399 0.0
C149 C 0.60485 0.22155 0.32762 0.0
C150 C 0.59335 0.20075 0.29833 0.0
C151 C 0.81319 0.3051 0.21552 0.0
C152 C 0.8142 0.15427 0.28835 0.0
C153 C 0.83323 0.11491 0.31394 0.0
C154 C 0.79715 0.09666 0.32535 0.0
C155 C 0.77854 0.13588 0.30001 0.0
C156 C 0.84142 0.14383 0.29536 0.0
C157 C 0.77009 0.10715 0.31842 0.0
C158 C 0.79786 0.29949 0.30107 0.0
C159 C 0.8238 0.18433 0.26869 0.0
H160 H 0.68417 0.46545 0.26361 0.0
H161 H 0.73755 0.40675 0.29669 0.0
H162 H 0.72193 0.46157 0.30121 0.0
H163 H 0.67715 0.35667 0.21348 0.0
H164 H 0.78989 0.07473 0.34013 0.0
H165 H 0.75738 0.14375 0.29483 0.0
H166 H 0.86891 0.15801 0.28601 0.0
H167 H 0.74251 0.09306 0.32749 0.0
Eu168 Eu 0.76087 0.71531 0.27614 0.0
C169 C 0.861 0.84809 0.18782 0.0
N170 N 0.83987 0.85144 0.21444 0.0
C171 C 0.88408 0.91268 0.23149 0.0
C172 C 0.89513 0.87687 0.18236 0.0
C173 C 0.85031 0.88358 0.23575 0.0
C174 C 0.90676 0.90916 0.20485 0.0
C175 C 0.86817 0.81336 0.13652 0.0
C176 C 0.84778 0.81664 0.1652 0.0
C177 C 0.90269 0.84133 0.1315 0.0
C178 C 0.91615 0.87297 0.15437 0.0
Eu179 Eu 0.78425 0.8 0.21999 0.0
N180 N 0.81442 0.78985 0.17074 0.0
C181 C 0.85288 0.78249 0.11345 0.0
C182 C 0.7984 0.7611 0.14757 0.0
C183 C 0.81764 0.75654 0.11884 0.0
H184 H 0.83254 0.88683 0.25605 0.0
H185 H 0.80529 0.73308 0.10088 0.0
H186 H 0.7032 0.63147 0.24066 0.0
H187 H 0.75107 0.78455 0.3965 0.0
H188 H 0.77116 0.74118 0.15175 0.0
H189 H 0.86772 0.77893 0.09114 0.0
H190 H 0.78136 0.7726 0.34453 0.0
H191 H 0.89248 0.93792 0.24863 0.0
H192 H 0.91889 0.83913 0.10973 0.0
H193 H 0.94254 0.89467 0.14988 0.0
H194 H 0.64038 0.58703 0.24944 0.0
H195 H 0.93281 0.93188 0.20151 0.0
H196 H 0.68662 0.7452 0.40783 0.0
N197 N 0.70154 0.66939 0.28245 0.0
C198 C 0.68252 0.67515 0.30992 0.0
C199 C 0.65176 0.61193 0.26645 0.0
C200 C 0.64677 0.6498 0.31624 0.0
C201 C 0.68723 0.63754 0.26135 0.0
C202 C 0.63127 0.61832 0.2938 0.0
N203 N 0.73421 0.72882 0.32631 0.0
C204 C 0.75323 0.75586 0.34922 0.0
C205 C 0.68111 0.71075 0.36204 0.0
C206 C 0.69942 0.70534 0.33262 0.0
C207 C 0.69978 0.74011 0.38496 0.0
C208 C 0.73614 0.76244 0.37866 0.0
H209 H 0.60389 0.59821 0.2978 0.0
H210 H 0.60043 0.63695 0.35016 0.0
H211 H 0.6305 0.69026 0.39024 0.0
O212 O 0.80348 0.71635 0.30265 0.0
O213 O 0.7329 0.75759 0.29126 0.0
O214 O 0.76226 0.81425 0.26976 0.0
O215 O 0.76227 0.66293 0.2853 0.0
O216 O 0.81351 0.76541 0.2697 0.0
O217 O 0.8096 0.82074 0.26681 0.0
O218 O 0.74343 0.79249 0.18865 0.0
O219 O 0.81479 0.75986 0.20618 0.0
O220 O 0.78486 0.70263 0.22675 0.0
O221 O 0.77371 0.84827 0.21169 0.0
O222 O 0.733 0.74976 0.22861 0.0
O223 O 0.73733 0.69457 0.22877 0.0
C224 C 0.73887 0.79335 0.29016 0.0
C225 C 0.78813 0.66615 0.33196 0.0
C226 C 0.81579 0.64483 0.36695 0.0
C227 C 0.78407 0.63579 0.38699 0.0
C228 C 0.75663 0.65723 0.3522 0.0
C229 C 0.75476 0.64233 0.37973 0.0
C230 C 0.81782 0.66046 0.33965 0.0
C231 C 0.8194 0.80035 0.2817 0.0
C232 C 0.79024 0.67991 0.3021 0.0
C233 C 0.62798 0.65599 0.34503 0.0
C234 C 0.64511 0.68634 0.36788 0.0
C235 C 0.80892 0.72401 0.20701 0.0
C236 C 0.71194 0.83181 0.20562 0.0
C237 C 0.66358 0.85001 0.19642 0.0
C238 C 0.64471 0.83636 0.22431 0.0
C239 C 0.69237 0.81785 0.23311 0.0
C240 C 0.69752 0.84798 0.18734 0.0
C241 C 0.65916 0.82048 0.24256 0.0
C242 C 0.72731 0.71554 0.21499 0.0
C243 C 0.74615 0.82727 0.19512 0.0
H244 H 0.78201 0.62365 0.40818 0.0
H245 H 0.73337 0.66118 0.34653 0.0
H246 H 0.73038 0.63532 0.39523 0.0
H247 H 0.84202 0.66694 0.32383 0.0
H248 H 0.61878 0.83797 0.232 0.0
H249 H 0.70242 0.80425 0.24693 0.0
H250 H 0.71215 0.85784 0.16565 0.0
H251 H 0.64437 0.80974 0.26388 0.0
Eu252 Eu 0.2415 0.77848 0.24237 0.0
C253 C 0.33095 0.75083 0.32822 0.0
N254 N 0.34262 0.75713 0.29805 0.0
C255 C 0.39989 0.80244 0.31516 0.0
C256 C 0.35286 0.77143 0.3534 0.0
C257 C 0.37723 0.78104 0.29097 0.0
C258 C 0.38739 0.79816 0.34657 0.0
C259 C 0.28681 0.71152 0.36408 0.0
C260 C 0.29825 0.72155 0.33351 0.0
C261 C 0.30712 0.73376 0.38965 0.0
C262 C 0.34012 0.76373 0.38431 0.0
Eu263 Eu 0.30061 0.72363 0.25917 0.0
N264 N 0.27975 0.70025 0.30822 0.0
C265 C 0.25658 0.67815 0.3677 0.0
C266 C 0.25313 0.66557 0.31112 0.0
C267 C 0.24036 0.65448 0.34096 0.0
H268 H 0.38664 0.78468 0.26667 0.0
H269 H 0.21818 0.62766 0.34327 0.0
H270 H 0.26172 0.79075 0.16684 0.0
H271 H 0.21071 0.87217 0.34175 0.0
H272 H 0.2411 0.64684 0.29038 0.0
H273 H 0.24687 0.66939 0.39077 0.0
H274 H 0.21357 0.81255 0.31404 0.0
H275 H 0.42687 0.82234 0.30959 0.0
H276 H 0.29841 0.72694 0.4134 0.0
H277 H 0.35622 0.77976 0.40406 0.0
H278 H 0.28011 0.84195 0.13391 0.0
H279 H 0.40498 0.81474 0.36527 0.0
H280 H 0.23101 0.92789 0.31375 0.0
N281 N 0.25617 0.8254 0.2094 0.0
C282 C 0.25684 0.85962 0.22308 0.0
C283 C 0.27376 0.84737 0.15899 0.0
C284 C 0.26681 0.88962 0.20528 0.0
C285 C 0.26335 0.81847 0.17765 0.0
C286 C 0.27583 0.88325 0.17292 0.0
N287 N 0.2355 0.83403 0.27055 0.0
C288 C 0.22243 0.83652 0.30137 0.0
C289 C 0.24494 0.89881 0.26965 0.0
C290 C 0.24609 0.86409 0.25469 0.0
C291 C 0.23235 0.90173 0.3014 0.0
C292 C 0.22082 0.87034 0.31726 0.0
H293 H 0.28374 0.90558 0.15842 0.0
H294 H 0.27453 0.9481 0.20699 0.0
H295 H 0.25532 0.95616 0.26344 0.0
O296 O 0.18978 0.77455 0.22927 0.0
O297 O 0.29892 0.8013 0.22034 0.0
O298 O 0.33371 0.76738 0.22594 0.0
O299 O 0.1982 0.72358 0.22918 0.0
O300 O 0.26432 0.79356 0.29057 0.0
O301 O 0.31764 0.7867 0.27574 0.0
O302 O 0.32486 0.69699 0.21894 0.0
O303 O 0.23903 0.70017 0.26681 0.0
O304 O 0.22781 0.75241 0.28749 0.0
O305 O 0.32368 0.68389 0.26546 0.0
O306 O 0.25574 0.69461 0.22569 0.0
O307 O 0.26329 0.74503 0.20254 0.0
C308 C 0.32897 0.79485 0.21533 0.0
C309 C 0.1424 0.72377 0.2496 0.0
C310 C 0.11372 0.73109 0.3022 0.0
C311 C 0.08424 0.6972 0.29417 0.0
C312 C 0.11294 0.69009 0.2415 0.0
C313 C 0.08398 0.67678 0.26388 0.0
C314 C 0.14281 0.74326 0.27997 0.0
C315 C 0.29831 0.80249 0.29489 0.0
C316 C 0.17463 0.7379 0.22818 0.0
C317 C 0.26676 0.92462 0.2202 0.0
C318 C 0.2558 0.9292 0.25233 0.0
C319 C 0.22056 0.71654 0.28677 0.0
C320 C 0.30723 0.63273 0.22428 0.0
C321 C 0.28416 0.58235 0.18062 0.0
C322 C 0.26511 0.55707 0.20225 0.0
C323 C 0.2881 0.60691 0.24565 0.0
C324 C 0.30513 0.62009 0.19186 0.0
C325 C 0.26707 0.56942 0.23462 0.0
C326 C 0.25578 0.70883 0.2004 0.0
C327 C 0.32712 0.67326 0.23538 0.0
H328 H 0.0613 0.68698 0.31091 0.0
H329 H 0.11254 0.67404 0.21823 0.0
H330 H 0.06121 0.65073 0.25769 0.0
H331 H 0.16632 0.76824 0.28639 0.0
H332 H 0.24913 0.52777 0.19412 0.0
H333 H 0.28901 0.61565 0.27088 0.0
H334 H 0.32055 0.63963 0.17532 0.0
H335 H 0.2524 0.54982 0.25123 0.0
Eu336 Eu 0.24194 0.78855 0.75509 0.0
C337 C 0.3753 0.74964 0.70095 0.0
N338 N 0.33972 0.72704 0.69856 0.0
C339 C 0.35086 0.70742 0.64372 0.0
C340 C 0.39996 0.75276 0.67422 0.0
C341 C 0.32732 0.7055 0.67073 0.0
C342 C 0.38729 0.73131 0.64542 0.0
C343 C 0.42372 0.79379 0.73302 0.0
C344 C 0.38689 0.77016 0.73013 0.0
C345 C 0.44814 0.79762 0.70627 0.0
C346 C 0.43631 0.77714 0.67699 0.0
Eu347 Eu 0.30241 0.72387 0.74561 0.0
N348 N 0.3627 0.76583 0.75581 0.0
C349 C 0.43525 0.81199 0.76291 0.0
C350 C 0.37473 0.78069 0.78529 0.0
C351 C 0.41078 0.80483 0.78921 0.0
H352 H 0.29923 0.68682 0.66951 0.0
H353 H 0.41984 0.81713 0.81263 0.0
H354 H 0.24709 0.82709 0.83079 0.0
H355 H 0.12319 0.69191 0.69106 0.0
H356 H 0.35723 0.77313 0.80611 0.0
H357 H 0.46328 0.83032 0.7661 0.0
H358 H 0.18592 0.73613 0.69604 0.0
H359 H 0.34091 0.69053 0.62163 0.0
H360 H 0.47643 0.81582 0.7081 0.0
H361 H 0.45558 0.78011 0.65667 0.0
H362 H 0.20656 0.82457 0.87933 0.0
H363 H 0.40542 0.73291 0.62439 0.0
H364 H 0.08069 0.68078 0.73832 0.0
N365 N 0.20577 0.7865 0.80271 0.0
C366 C 0.17008 0.764 0.80107 0.0
C367 C 0.19602 0.80728 0.85754 0.0
C368 C 0.14605 0.76162 0.82819 0.0
C369 C 0.21893 0.8085 0.83016 0.0
C370 C 0.15946 0.78364 0.85659 0.0
N371 N 0.1815 0.74588 0.74633 0.0
C372 C 0.16888 0.72958 0.71724 0.0
C373 C 0.12094 0.71874 0.77029 0.0
C374 C 0.15783 0.74255 0.77235 0.0
C375 C 0.10879 0.69929 0.74086 0.0
C376 C 0.13274 0.70528 0.71416 0.0
H377 H 0.14183 0.7826 0.8779 0.0
H378 H 0.09081 0.73484 0.84685 0.0
H379 H 0.06879 0.6975 0.7962 0.0
O380 O 0.2236 0.81912 0.72675 0.0
O381 O 0.22866 0.746 0.78932 0.0
O382 O 0.24257 0.69772 0.76019 0.0
O383 O 0.24402 0.84468 0.77314 0.0
O384 O 0.24683 0.75533 0.70678 0.0
O385 O 0.25145 0.70295 0.71996 0.0
O386 O 0.31887 0.69167 0.77381 0.0
O387 O 0.31565 0.76635 0.71148 0.0
O388 O 0.30163 0.81516 0.73974 0.0
O389 O 0.30001 0.66787 0.72663 0.0
O390 O 0.29741 0.75717 0.79377 0.0
O391 O 0.29269 0.81005 0.78138 0.0
C392 C 0.22494 0.71054 0.78395 0.0
C393 C 0.22535 0.88313 0.74734 0.0
C394 C 0.1968 0.91833 0.7268 0.0
C395 C 0.21424 0.94981 0.74894 0.0
C396 C 0.2427 0.91536 0.76873 0.0
C397 C 0.23711 0.94833 0.76949 0.0
C398 C 0.2024 0.88473 0.72622 0.0
C399 C 0.24529 0.72045 0.69954 0.0
C400 C 0.23029 0.84798 0.74895 0.0
C401 C 0.10961 0.73722 0.82623 0.0
C402 C 0.09711 0.71582 0.7974 0.0
C403 C 0.31984 0.80195 0.71671 0.0
C404 C 0.31636 0.62767 0.75232 0.0
C405 C 0.34427 0.59144 0.77212 0.0
C406 C 0.32632 0.56026 0.74993 0.0
C407 C 0.29845 0.59578 0.73086 0.0
C408 C 0.33911 0.62533 0.77315 0.0
C409 C 0.30343 0.5624 0.72974 0.0
C410 C 0.29948 0.79222 0.80121 0.0
C411 C 0.31241 0.66337 0.75109 0.0
H412 H 0.20992 0.97569 0.75069 0.0
H413 H 0.26045 0.91506 0.78522 0.0
H414 H 0.25035 0.97282 0.78631 0.0
H415 H 0.18903 0.86008 0.70957 0.0
H416 H 0.33029 0.53414 0.74778 0.0
H417 H 0.28077 0.5967 0.71459 0.0
H418 H 0.35279 0.64976 0.78988 0.0
H419 H 0.28978 0.53816 0.71286 0.0
Eu420 Eu 0.26232 0.21636 0.77477 0.0
C421 C 0.3613 0.34169 0.68491 0.0
N422 N 0.34248 0.34677 0.71267 0.0
C423 C 0.39174 0.40467 0.72871 0.0
C424 C 0.39671 0.36767 0.67841 0.0
C425 C 0.35663 0.37837 0.73404 0.0
C426 C 0.41203 0.39909 0.70095 0.0
C427 C 0.36298 0.3061 0.63282 0.0
C428 C 0.34466 0.31125 0.66229 0.0
C429 C 0.3986 0.33129 0.62671 0.0
C430 C 0.41542 0.36196 0.64943 0.0
Eu431 Eu 0.28394 0.29975 0.71941 0.0
N432 N 0.31037 0.2868 0.669 0.0
C433 C 0.34476 0.276 0.61021 0.0
C434 C 0.29174 0.2589 0.64643 0.0
C435 C 0.30883 0.2526 0.61692 0.0
H436 H 0.34078 0.38371 0.7551 0.0
H437 H 0.29425 0.22982 0.59934 0.0
H438 H 0.2126 0.12924 0.73993 0.0
H439 H 0.2423 0.28838 0.89187 0.0
H440 H 0.26395 0.24125 0.65145 0.0
H441 H 0.35795 0.27106 0.58732 0.0
H442 H 0.27595 0.27823 0.84121 0.0
H443 H 0.403 0.42943 0.74588 0.0
H444 H 0.41321 0.32761 0.60429 0.0
H445 H 0.44272 0.3815 0.64415 0.0
H446 H 0.15247 0.07897 0.74855 0.0
H447 H 0.43914 0.41967 0.69682 0.0
H448 H 0.18007 0.24283 0.90292 0.0
N449 N 0.20638 0.16568 0.78121 0.0
C450 C 0.18572 0.16996 0.80795 0.0
C451 C 0.16138 0.10454 0.7653 0.0
C452 C 0.15147 0.14168 0.81405 0.0
C453 C 0.19526 0.1332 0.76035 0.0
C454 C 0.13924 0.10893 0.79211 0.0
N455 N 0.23267 0.22862 0.82367 0.0
C456 C 0.24882 0.25842 0.84597 0.0
C457 C 0.17924 0.20654 0.85851 0.0
C458 C 0.19937 0.20206 0.82994 0.0
C459 C 0.19472 0.23834 0.88072 0.0
C460 C 0.22984 0.26414 0.87458 0.0
H461 H 0.11308 0.08657 0.79595 0.0
H462 H 0.10439 0.12529 0.84703 0.0
H463 H 0.12871 0.18201 0.88592 0.0
O464 O 0.3022 0.22305 0.80685 0.0
O465 O 0.2288 0.25372 0.78612 0.0
O466 O 0.26197 0.3124 0.76958 0.0
O467 O 0.27101 0.1674 0.78403 0.0
O468 O 0.3146 0.26646 0.76792 0.0
O469 O 0.30727 0.32028 0.76713 0.0
O470 O 0.23907 0.29864 0.69569 0.0
O471 O 0.31419 0.25951 0.70432 0.0
O472 O 0.28573 0.20273 0.72553 0.0
O473 O 0.28381 0.35141 0.70697 0.0
O474 O 0.23164 0.24811 0.72272 0.0
O475 O 0.2386 0.19451 0.72723 0.0
C476 C 0.2357 0.29009 0.78717 0.0
C477 C 0.33208 0.18185 0.79165 0.0
C478 C 0.37929 0.16321 0.80326 0.0
C479 C 0.39842 0.17458 0.77475 0.0
C480 C 0.35193 0.19348 0.76357 0.0
C481 C 0.3847 0.18952 0.75504 0.0
C482 C 0.34578 0.16661 0.81145 0.0
C483 C 0.31979 0.30094 0.78055 0.0
C484 C 0.29834 0.18785 0.80105 0.0
C485 C 0.13085 0.14662 0.84205 0.0
C486 C 0.1447 0.17893 0.86421 0.0
C487 C 0.3093 0.22408 0.70554 0.0
C488 C 0.22609 0.35316 0.7101 0.0
C489 C 0.18046 0.3764 0.70284 0.0
C490 C 0.17831 0.38819 0.73553 0.0
C491 C 0.22375 0.36553 0.74259 0.0
C492 C 0.20421 0.3584 0.6903 0.0
C493 C 0.19977 0.38264 0.75523 0.0
C494 C 0.22732 0.21322 0.71173 0.0
C495 C 0.25151 0.33515 0.69686 0.0
H496 H 0.42397 0.17183 0.76766 0.0
H497 H 0.3424 0.2062 0.74849 0.0
H498 H 0.3997 0.19845 0.73324 0.0
H499 H 0.33092 0.15848 0.83354 0.0
H500 H 0.16003 0.40175 0.74585 0.0
H501 H 0.24076 0.36233 0.7581 0.0
H502 H 0.20643 0.34942 0.66512 0.0
H503 H 0.19806 0.39196 0.78034 0.0
Eu504 Eu 0.73217 0.2671 0.7371 0.0
C505 C 0.7762 0.18522 0.8187 0.0
N506 N 0.7944 0.22229 0.81559 0.0
C507 C 0.79599 0.23873 0.87168 0.0
C508 C 0.76516 0.17372 0.84882 0.0
C509 C 0.80612 0.24879 0.84131 0.0
C510 C 0.77487 0.20112 0.87547 0.0
C511 C 0.75098 0.12004 0.7943 0.0
C512 C 0.76921 0.15879 0.79164 0.0
C513 C 0.7382 0.10861 0.82418 0.0
C514 C 0.74532 0.13537 0.85137 0.0
Eu515 Eu 0.80859 0.23736 0.76377 0.0
N516 N 0.78214 0.17069 0.76301 0.0
C517 C 0.74724 0.09379 0.76697 0.0
C518 C 0.78145 0.14493 0.73681 0.0
C519 C 0.76325 0.10627 0.73824 0.0
H520 H 0.82255 0.27776 0.83818 0.0
H521 H 0.762 0.08609 0.71723 0.0
H522 H 0.67424 0.19116 0.69523 0.0
H523 H 0.79723 0.41195 0.71114 0.0
H524 H 0.79522 0.15372 0.71468 0.0
H525 H 0.73342 0.06379 0.76802 0.0
H526 H 0.77649 0.36056 0.74441 0.0
H527 H 0.80439 0.25994 0.89211 0.0
H528 H 0.7237 0.079 0.82658 0.0
H529 H 0.73608 0.12603 0.87429 0.0
H530 H 0.65167 0.17193 0.64179 0.0
H531 H 0.76689 0.1934 0.89902 0.0
H532 H 0.78294 0.39714 0.65509 0.0
N533 N 0.70925 0.24655 0.68658 0.0
C534 C 0.72041 0.27242 0.66631 0.0
C535 C 0.67131 0.20018 0.64826 0.0
C536 C 0.70846 0.26273 0.63555 0.0
C537 C 0.68428 0.21107 0.6784 0.0
C538 C 0.68397 0.2259 0.6265 0.0
N539 N 0.75202 0.31761 0.70713 0.0
C540 C 0.77022 0.35416 0.71994 0.0
C541 C 0.75331 0.33739 0.65719 0.0
C542 C 0.74233 0.30919 0.67698 0.0
C543 C 0.77389 0.37465 0.66955 0.0
C544 C 0.78199 0.38313 0.70119 0.0
H545 H 0.67398 0.21735 0.60313 0.0
H546 H 0.71181 0.28338 0.59141 0.0
H547 H 0.75126 0.3488 0.61034 0.0
O548 O 0.67343 0.25071 0.74109 0.0
O549 O 0.78941 0.29481 0.71509 0.0
O550 O 0.82178 0.25722 0.71559 0.0
O551 O 0.70771 0.30142 0.76868 0.0
O552 O 0.76001 0.30068 0.78222 0.0
O553 O 0.81596 0.29865 0.77081 0.0
O554 O 0.86162 0.27762 0.77843 0.0
O555 O 0.75992 0.23849 0.797 0.0
O556 O 0.71882 0.21572 0.76047 0.0
O557 O 0.85296 0.21924 0.76327 0.0
O558 O 0.78858 0.21044 0.71435 0.0
O559 O 0.73095 0.20774 0.72445 0.0
C560 C 0.81654 0.28423 0.70513 0.0
C561 C 0.6555 0.26163 0.79509 0.0
C562 C 0.65343 0.26606 0.85244 0.0
C563 C 0.61905 0.23639 0.85177 0.0
C564 C 0.62109 0.23242 0.79487 0.0
C565 C 0.60334 0.21935 0.82307 0.0
C566 C 0.67203 0.2767 0.82374 0.0
C567 C 0.79427 0.31293 0.78789 0.0
C568 C 0.67512 0.27585 0.76571 0.0
C569 C 0.72041 0.29035 0.61524 0.0
C570 C 0.74283 0.32761 0.62604 0.0
C571 C 0.72649 0.21951 0.78954 0.0
C572 C 0.90669 0.26529 0.74495 0.0
C573 C 0.92767 0.26041 0.68945 0.0
C574 C 0.96107 0.28951 0.6969 0.0
C575 C 0.94011 0.29411 0.75231 0.0
C576 C 0.9005 0.24938 0.71352 0.0
C577 C 0.96713 0.30634 0.72824 0.0
C578 C 0.75547 0.19921 0.70566 0.0
C579 C 0.87678 0.25362 0.76905 0.0
H580 H 0.60351 0.22738 0.87334 0.0
H581 H 0.60806 0.21969 0.77298 0.0
H582 H 0.57678 0.1968 0.82282 0.0
H583 H 0.69933 0.29778 0.82389 0.0
H584 H 0.98271 0.29849 0.67878 0.0
H585 H 0.94509 0.30737 0.77644 0.0
H586 H 0.87419 0.22808 0.70766 0.0
H587 H 0.99295 0.32861 0.73391 0.0
Eu588 Eu 0.73343 0.73762 0.72018 0.0
C589 C 0.83465 0.85288 0.82498 0.0
N590 N 0.84487 0.83759 0.79641 0.0
C591 C 0.8927 0.89715 0.78895 0.0
C592 C 0.85288 0.8914 0.83639 0.0
C593 C 0.87385 0.85884 0.77862 0.0
C594 C 0.88205 0.91357 0.81787 0.0
C595 C 0.79456 0.84502 0.87263 0.0
C596 C 0.80581 0.82994 0.84293 0.0
C597 C 0.81248 0.88343 0.88391 0.0
C598 C 0.84154 0.90654 0.86585 0.0
Eu599 Eu 0.81069 0.77294 0.78078 0.0
N600 N 0.78822 0.79307 0.83101 0.0
C601 C 0.76554 0.82104 0.89009 0.0
C602 C 0.7611 0.76925 0.84856 0.0
C603 C 0.74899 0.78291 0.87811 0.0
H604 H 0.88296 0.84612 0.75674 0.0
H605 H 0.72705 0.76395 0.89173 0.0
H606 H 0.6662 0.65943 0.74273 0.0
H607 H 0.81808 0.75684 0.60974 0.0
H608 H 0.74899 0.73971 0.84005 0.0
H609 H 0.75604 0.83156 0.91297 0.0
H610 H 0.79317 0.7771 0.66148 0.0
H611 H 0.91558 0.91392 0.7747 0.0
H612 H 0.8041 0.89553 0.90661 0.0
H613 H 0.85516 0.9361 0.87493 0.0
H614 H 0.63855 0.5915 0.72298 0.0
H615 H 0.89675 0.94326 0.82582 0.0
H616 H 0.79456 0.68933 0.58719 0.0
N617 N 0.70403 0.67243 0.70312 0.0
C618 C 0.71568 0.65941 0.67418 0.0
C619 C 0.66038 0.61024 0.70913 0.0
C620 C 0.70039 0.62081 0.66187 0.0
C621 C 0.67641 0.6487 0.72044 0.0
C622 C 0.67253 0.59618 0.67981 0.0
N623 N 0.75828 0.72168 0.66967 0.0
C624 C 0.78378 0.74759 0.65264 0.0
C625 C 0.75625 0.67186 0.62701 0.0
C626 C 0.7434 0.6847 0.65693 0.0
C627 C 0.78391 0.69809 0.61021 0.0
C628 C 0.79742 0.73618 0.62294 0.0
H629 H 0.66007 0.56635 0.67116 0.0
H630 H 0.70199 0.57839 0.62244 0.0
H631 H 0.75086 0.62303 0.59197 0.0
O632 O 0.7188 0.77477 0.69724 0.0
O633 O 0.77051 0.70504 0.71612 0.0
O634 O 0.82516 0.74995 0.73105 0.0
O635 O 0.67911 0.71977 0.70492 0.0
O636 O 0.77761 0.79714 0.71974 0.0
O637 O 0.82939 0.79461 0.73369 0.0
O638 O 0.8217 0.7337 0.80408 0.0
O639 O 0.77311 0.8052 0.78667 0.0
O640 O 0.71852 0.76183 0.76926 0.0
O641 O 0.86462 0.78653 0.79536 0.0
O642 O 0.76571 0.71404 0.78156 0.0
O643 O 0.71385 0.71624 0.76744 0.0
C644 C 0.80602 0.71804 0.7143 0.0
C645 C 0.65782 0.7682 0.70708 0.0
C646 C 0.62076 0.80088 0.69713 0.0
C647 C 0.60422 0.79702 0.72777 0.0
C648 C 0.64105 0.76492 0.73763 0.0
C649 C 0.6145 0.77936 0.74789 0.0
C650 C 0.64783 0.78652 0.68699 0.0
C651 C 0.81311 0.80938 0.71891 0.0
C652 C 0.68502 0.75181 0.6958 0.0
C653 C 0.71335 0.60796 0.6322 0.0
C654 C 0.7412 0.6334 0.61484 0.0
C655 C 0.73771 0.79317 0.78669 0.0
C656 C 0.88045 0.73427 0.79288 0.0
C657 C 0.9154 0.69902 0.80192 0.0
C658 C 0.92456 0.69429 0.76932 0.0
C659 C 0.8905 0.72973 0.76053 0.0
C660 C 0.89323 0.71917 0.8136 0.0
C661 C 0.9123 0.70973 0.74883 0.0
C662 C 0.73027 0.70272 0.78337 0.0
C663 C 0.8562 0.75413 0.80491 0.0
H664 H 0.58365 0.80812 0.73633 0.0
H665 H 0.64824 0.75085 0.75342 0.0
H666 H 0.60174 0.77672 0.7715 0.0
H667 H 0.6606 0.78892 0.66333 0.0
H668 H 0.9417 0.67912 0.75973 0.0
H669 H 0.88156 0.74177 0.74437 0.0
H670 H 0.8855 0.72259 0.83862 0.0
H671 H 0.91979 0.70626 0.7238 0.0
C672 C 0.95256 0.09142 0.51212 0.0
C673 C 0.98821 0.0489 0.42555 0.0
C674 C 0.95646 0.92126 0.47264 0.0
Mg675 Mg 0.02429 0.08141 0.48777 0.0
O676 O 0.99842 0.03692 0.50593 0.0
Mg677 Mg 0.95008 1.00351 0.4895 0.0
Mg678 Mg 0.02175 0.99988 0.49859 0.0
O679 O 0.04481 0.9627 0.49113 0.0
Mg680 Mg 1.01904 0.91732 0.50835 0.0
Mg681 Mg 0.09326 0.99578 0.50714 0.0
C682 C 0.08711 0.07836 0.524 0.0
C683 C 0.08796 0.02697 0.44351 0.0
O684 O 0.93441 0.05542 0.50807 0.0
O685 O 0.98689 0.10656 0.50667 0.0
O686 O 0.96412 0.02453 0.44128 0.0
O687 O 1.01715 0.07279 0.43777 0.0
O688 O 0.07502 0.09744 0.51051 0.0
O689 O 0.07025 0.04259 0.52413 0.0
C690 C 0.95559 0.9732 0.55357 0.0
O691 O 0.98837 0.97733 0.54449 0.0
O692 O 0.93688 0.98215 0.53726 0.0
O693 O 0.10858 0.94386 0.48703 0.0
O694 O 0.05626 0.89252 0.48802 0.0
O695 O 0.07881 0.97393 0.55504 0.0
C696 C 0.09047 0.90788 0.48205 0.0
O697 O 0.02616 0.92504 0.5584 0.0
O698 O 0.96841 0.90152 0.48544 0.0
C699 C 0.05487 0.94934 0.57071 0.0
O700 O 0.97339 0.95711 0.47334 0.0
O701 O 0.05512 0.02263 0.45256 0.0
O702 O 0.10662 0.01792 0.45977 0.0
C703 C 0.44267 0.08515 0.06052 0.0
C704 C 0.47287 0.07063 0.9601 0.0
C705 C 0.45627 0.93159 0.97012 0.0
Mg706 Mg 0.5142 0.08976 0.01968 0.0
O707 O 0.49623 0.03848 0.02456 0.0
Mg708 Mg 0.44585 0.00701 0.01152 0.0
Mg709 Mg 0.52205 0.00637 1.00037 0.0
O710 O 0.54788 0.97445 0.97583 0.0
Mg711 Mg 0.52992 0.92291 0.97973 0.0
Mg712 Mg 0.59823 0.00587 0.98891 0.0
C713 C 0.58784 0.08125 0.02984 0.0
C714 C 0.57671 0.05159 0.94467 0.0
O715 O 0.42717 0.05062 0.04756 0.0
O716 O 0.47615 0.10491 0.05393 0.0
O717 O 0.45108 0.04091 0.97148 0.0
O718 O 0.5016 0.093 0.97346 0.0
O719 O 0.57005 0.10207 0.02952 0.0
O720 O 0.5738 0.04511 0.02283 0.0
C721 C 0.46791 0.9626 0.05708 0.0
O722 O 0.49888 0.96981 0.04167 0.0
O723 O 0.4447 0.97416 0.05022 0.0
O724 O 0.6171 0.96251 0.95261 0.0
O725 O 0.56826 0.9082 0.94557 0.0
O726 O 0.59231 0.97155 0.02867 0.0
C727 C 0.60179 0.92808 0.93934 0.0
O728 O 0.54206 0.91918 0.02587 0.0
O729 O 0.47413 0.9107 0.9698 0.0
C730 C 0.57037 0.94168 0.03972 0.0
O731 O 0.47028 0.96763 0.97788 0.0
O732 O 0.54549 0.04336 0.95973 0.0
O733 O 0.60015 0.03996 0.95083 0.0
C734 C 0.94797 0.59348 0.05306 0.0
C735 C 0.98975 0.58449 0.95543 0.0
C736 C 0.95331 0.43647 0.95964 0.0
Mg737 Mg 0.02107 0.59268 0.0193 0.0
O738 O 0.9971 0.54037 0.01907 0.0
Mg739 Mg 0.94835 0.51532 1.00149 0.0
Mg740 Mg 0.01975 0.50398 0.99797 0.0
O741 O 0.04231 0.46756 0.9767 0.0
Mg742 Mg 1.0185 0.41496 0.97581 0.0
Mg743 Mg 0.09152 0.49299 0.99338 0.0
C744 C 0.08635 0.57166 0.0354 0.0
C745 C 0.08353 0.5447 0.94591 0.0
O746 O 0.93166 0.56099 0.03682 0.0
O747 O 0.98255 0.61026 0.05111 0.0
O748 O 0.96457 0.55375 0.9625 0.0
O749 O 1.01589 0.60356 0.97309 0.0
O750 O 0.07263 0.59596 0.03413 0.0
O751 O 0.06986 0.53611 0.02593 0.0
C752 C 0.95572 0.46452 0.05005 0.0
O753 O 0.98748 0.46836 0.03772 0.0
O754 O 0.93677 0.4792 0.04008 0.0
O755 O 0.10811 0.44794 0.95739 0.0
O756 O 0.05739 0.39835 0.94322 0.0
O757 O 0.07622 0.45389 0.03177 0.0
C758 C 0.09195 0.41553 0.941 0.0
O759 O 0.02493 0.40368 0.02189 0.0
O760 O 0.96662 0.41169 0.96059 0.0
C761 C 0.05161 0.4229 0.03903 0.0
O762 O 0.96997 0.47174 0.96994 0.0
O763 O 0.05173 0.54007 0.95849 0.0
O764 O 0.10284 0.52993 0.95517 0.0
C765 C 0.4513 0.57762 0.02164 0.0
C766 C 0.47936 0.55309 0.92927 0.0
C767 C 0.468 0.42506 0.96665 0.0
Mg768 Mg 0.51478 0.58883 0.99459 0.0
O769 O 0.48736 0.53663 0.00631 0.0
Mg770 Mg 0.44002 0.49266 0.98537 0.0
Mg771 Mg 0.51906 0.50669 0.00209 0.0
O772 O 0.5495 0.47623 0.99664 0.0
Mg773 Mg 0.5278 0.42822 0.0095 0.0
Mg774 Mg 0.59269 0.51356 0.01849 0.0
C775 C 0.57649 0.58866 0.03306 0.0
C776 C 0.58955 0.5444 0.9536 0.0
O777 O 0.46205 0.55016 0.015 0.0
O778 O 0.47569 0.61046 0.02016 0.0
O779 O 0.45721 0.52378 0.94134 0.0
O780 O 0.50468 0.57994 0.94456 0.0
O781 O 0.5645 0.60692 0.01871 0.0
O782 O 0.56116 0.55274 0.03231 0.0
C783 C 0.44807 0.46376 0.04957 0.0
O784 O 0.48275 0.47741 0.04488 0.0
O785 O 0.42789 0.46585 0.0302 0.0
O786 O 0.61951 0.46983 0.0029 0.0
O787 O 0.57309 0.413 0.99692 0.0
O788 O 0.57426 0.48742 0.06477 0.0
C789 C 0.60693 0.43356 0.99715 0.0
O790 O 0.52586 0.43324 0.06032 0.0
O791 O 0.482 0.40709 0.97937 0.0
C792 C 0.55054 0.459 0.07668 0.0
O793 O 0.47886 0.46126 0.97187 0.0
O794 O 0.55534 0.53524 0.95971 0.0
O795 O 0.60864 0.53831 0.97174 0.0
C796 C 0.94376 0.58522 0.56137 0.0
C797 C 0.97885 0.57586 0.46188 0.0
C798 C 0.95766 0.43407 0.46859 0.0
Mg799 Mg 1.0165 0.59071 0.52242 0.0
O800 O 0.99765 0.53869 0.52537 0.0
Mg801 Mg 0.94797 0.50869 0.5101 0.0
Mg802 Mg 0.02337 0.50656 0.50093 0.0
O803 O 0.04871 0.47405 0.47667 0.0
Mg804 Mg 0.02908 0.42228 0.48035 0.0
Mg805 Mg 0.09866 0.50394 0.49101 0.0
C806 C 0.0892 0.57994 0.53196 0.0
C807 C 0.0801 0.55136 0.44592 0.0
O808 O 0.92853 0.55126 0.54707 0.0
O809 O 0.97759 0.60493 0.55627 0.0
O810 O 0.95684 0.5454 0.47189 0.0
O811 O 1.00645 0.59818 0.47668 0.0
O812 O 0.07178 0.60126 0.53223 0.0
O813 O 0.07471 0.54382 0.52477 0.0
C814 C 0.96436 0.45776 0.55279 0.0
O815 O 0.99695 0.46729 0.5403 0.0
O816 O 0.94249 0.47098 0.54586 0.0
O817 O 0.11702 0.45983 0.45492 0.0
O818 O 0.06721 0.40669 0.44683 0.0
O819 O 0.0903 0.46874 0.53087 0.0
C820 C 0.10109 0.42567 0.44127 0.0
O821 O 0.03975 0.41664 0.5266 0.0
O822 O 0.97414 0.41204 0.46911 0.0
C823 C 0.06767 0.43866 0.54123 0.0
O824 O 0.97262 0.47 0.47636 0.0
O825 O 0.04901 0.54462 0.46101 0.0
O826 O 0.10241 0.53843 0.4525 0.0
C827 C 0.45411 0.09595 0.557 0.0
C828 C 0.49237 0.08473 0.45905 0.0
C829 C 0.45845 0.9377 0.46605 0.0
Mg830 Mg 0.52713 0.09545 0.52186 0.0
O831 O 0.50327 0.04321 0.52328 0.0
Mg832 Mg 0.45382 0.01695 0.50704 0.0
Mg833 Mg 0.5256 0.00659 0.50213 0.0
O834 O 0.54796 0.97009 0.48092 0.0
Mg835 Mg 0.5242 0.91798 0.48243 0.0
Mg836 Mg 0.59753 0.99617 0.49679 0.0
C837 C 0.59318 0.07531 0.53795 0.0
C838 C 0.58759 0.0458 0.44854 0.0
O839 O 0.4378 0.06278 0.54188 0.0
O840 O 0.48862 0.11339 0.55394 0.0
O841 O 0.46783 0.05451 0.46775 0.0
O842 O 0.51996 0.10421 0.47506 0.0
O843 O 0.57962 0.09977 0.5366 0.0
O844 O 0.5763 0.03978 0.52876 0.0
C845 C 0.46336 0.96747 0.55566 0.0
O846 O 0.4949 0.97159 0.54263 0.0
O847 O 0.44373 0.98173 0.54621 0.0
O848 O 0.6134 0.95049 0.46148 0.0
O849 O 0.56224 0.90009 0.45 0.0
O850 O 0.58366 0.95848 0.53614 0.0
C851 C 0.5967 0.9174 0.4464 0.0
O852 O 0.53107 0.90935 0.52913 0.0
O853 O 0.47203 0.91338 0.46764 0.0
C854 C 0.5588 0.92852 0.54499 0.0
O855 O 0.4751 0.97327 0.47527 0.0
O856 O 0.55613 0.04155 0.46176 0.0
O857 O 0.60741 0.03154 0.45769 0.0
H858 H 0.15581 0.17733 0.30165 0.0
H859 H 0.15886 0.04639 0.4219 0.0
H860 H 0.24759 0.15039 0.30836 0.0
H861 H 0.06005 0.05071 0.40011 0.0
H862 H 0.19115 0.08369 0.37988 0.0
H863 H 0.11994 0.13118 0.337 0.0
C864 C 0.16833 0.16129 0.31005 0.0
C865 C 0.20485 0.1677 0.3017 0.0
C866 C 0.16236 0.07645 0.38416 0.0
C867 C 0.16394 0.11528 0.34299 0.0
C868 C 0.14373 0.05499 0.40825 0.0
C869 C 0.10654 0.04597 0.41531 0.0
C870 C 0.14394 0.08947 0.36687 0.0
C871 C 0.08875 0.05789 0.39634 0.0
C872 C 0.1478 0.13503 0.33044 0.0
C873 C 0.21962 0.14652 0.31406 0.0
N874 N 0.10763 0.07937 0.37328 0.0
N875 N 0.19924 0.12158 0.3342 0.0
H876 H 0.90226 0.16157 0.32977 0.0
H877 H 0.93842 0.99752 0.38589 0.0
H878 H 0.83046 0.04406 0.31658 0.0
H879 H 1.01094 0.11466 0.39986 0.0
H880 H 0.90537 0.01254 0.35074 0.0
H881 H 0.94756 0.14388 0.34691 0.0
C882 C 0.89615 0.13199 0.33003 0.0
C883 C 0.8622 0.10433 0.32205 0.0
C884 C 0.92896 0.03489 0.36091 0.0
C885 C 0.91405 0.08387 0.34196 0.0
C886 C 0.94812 0.02624 0.38077 0.0
C887 C 0.97722 0.05497 0.39626 0.0
C888 C 0.93866 0.07264 0.35673 0.0
C889 C 0.9886 0.09162 0.38858 0.0
C890 C 0.92206 0.12191 0.33993 0.0
C891 C 0.85587 0.06647 0.32316 0.0
N892 N 0.9688 0.09958 0.36994 0.0
N893 N 0.88136 0.05744 0.33318 0.0
H894 H 0.86046 0.77587 0.31055 0.0
H895 H 0.91941 0.95135 0.44452 0.0
H896 H 0.81986 0.86395 0.32022 0.0
H897 H 0.92677 0.84575 0.45098 0.0
H898 H 0.88227 0.9205 0.39966 0.0
H899 H 0.88618 0.80217 0.36166 0.0
C900 C 0.85661 0.80048 0.32357 0.0
C901 C 0.83744 0.81733 0.31139 0.0
C902 C 0.89151 0.90396 0.41127 0.0
C903 C 0.86756 0.84817 0.36953 0.0
C904 C 0.91267 0.92155 0.43697 0.0
C905 C 0.9268 0.90133 0.45129 0.0
C906 C 0.88484 0.86604 0.39959 0.0
C907 C 0.91678 0.86261 0.44058 0.0
C908 C 0.87134 0.81554 0.35274 0.0
C909 C 0.83445 0.85006 0.32876 0.0
N910 N 0.89697 0.8464 0.41501 0.0
N911 N 0.84946 0.86451 0.35695 0.0
H912 H 0.09267 0.71031 0.36189 0.0
H913 H 0.14927 0.92563 0.43964 0.0
H914 H 0.13748 0.80753 0.31227 0.0
H915 H 0.07031 0.83298 0.48445 0.0
H916 H 0.16337 0.88018 0.39916 0.0
H917 H 0.09854 0.75318 0.41205 0.0
C918 C 0.10372 0.74051 0.36154 0.0
C919 C 0.11483 0.75537 0.33291 0.0
C920 C 0.14355 0.86987 0.41832 0.0
C921 C 0.12265 0.80411 0.3897 0.0
C922 C 0.13581 0.89581 0.44158 0.0
C923 C 0.10785 0.88289 0.46475 0.0
C924 C 0.1231 0.83103 0.41842 0.0
C925 C 0.09138 0.84394 0.46633 0.0
C926 C 0.10752 0.76487 0.39006 0.0
C927 C 0.12927 0.79475 0.33376 0.0
N928 N 0.09865 0.81921 0.44298 0.0
N929 N 0.1328 0.81765 0.36162 0.0
H930 H 0.20878 0.97847 0.69676 0.0
H931 H 0.03351 0.88514 0.5989 0.0
H932 H 0.13083 0.86585 0.70637 0.0
H933 H 0.10147 0.00386 0.61067 0.0
H934 H 0.06539 0.87643 0.63953 0.0
H935 H 0.16847 0.98666 0.66475 0.0
C936 C 0.18302 0.95542 0.6923 0.0
C937 C 0.17311 0.92157 0.70477 0.0
C938 C 0.07277 0.90448 0.63363 0.0
C939 C 0.12652 0.93066 0.6673 0.0
C940 C 0.05429 0.90956 0.61072 0.0
C941 C 0.06511 0.94525 0.60111 0.0
C942 C 0.10224 0.93528 0.64681 0.0
C943 C 0.09247 0.97577 0.61703 0.0
C944 C 0.15991 0.96014 0.67392 0.0
C945 C 0.13972 0.89238 0.69719 0.0
N946 N 0.11036 0.96999 0.63865 0.0
N947 N 0.1176 0.89757 0.6789 0.0
H948 H 0.18569 0.23541 0.68136 0.0
H949 H 0.12662 0.15463 0.53356 0.0
H950 H 0.22452 0.14666 0.67655 0.0
H951 H 0.11504 0.05054 0.56356 0.0
H952 H 0.16423 0.18977 0.57734 0.0
H953 H 0.15798 0.20547 0.63163 0.0
C954 C 0.18876 0.20987 0.66967 0.0
C955 C 0.20798 0.19389 0.68289 0.0
C956 C 0.15336 0.15923 0.57438 0.0
C957 C 0.17651 0.1595 0.62567 0.0
C958 C 0.1323 0.13908 0.54907 0.0
C959 C 0.11683 0.09945 0.54523 0.0
C960 C 0.15893 0.13966 0.59608 0.0
C961 C 0.12584 0.08101 0.56584 0.0
C962 C 0.17317 0.19291 0.64108 0.0
C963 C 0.21001 0.16 0.66714 0.0
N964 N 0.146 0.10129 0.59063 0.0
N965 N 0.19431 0.1438 0.63939 0.0
H966 H 0.94698 0.28705 0.63194 0.0
H967 H 0.9742 0.16559 0.50638 0.0
H968 H 0.89331 0.18458 0.67418 0.0
H969 H 0.89081 0.07597 0.55126 0.0
H970 H 0.95769 0.21152 0.5431 0.0
H971 H 0.93974 0.24902 0.57977 0.0
C972 C 0.93374 0.25661 0.63019 0.0
C973 C 0.9214 0.23895 0.65742 0.0
C974 C 0.94191 0.18195 0.54447 0.0
C975 C 0.91334 0.19518 0.59813 0.0
C976 C 0.95156 0.15556 0.52347 0.0
C977 C 0.93471 0.11707 0.52666 0.0
C978 C 0.9154 0.1696 0.56897 0.0
C979 C 0.90502 0.10547 0.5485 0.0
C980 C 0.92951 0.23483 0.60041 0.0
C981 C 0.90331 0.19953 0.6539 0.0
N982 N 0.89695 0.13178 0.56946 0.0
N983 N 0.90021 0.17908 0.6249 0.0
H984 H 0.79195 0.85382 0.6903 0.0
H985 H 0.98393 0.94984 0.59676 0.0
H986 H 0.88511 0.83025 0.69942 0.0
H987 H 0.88499 0.95473 0.57592 0.0
H988 H 0.95062 0.91293 0.63938 0.0
H989 H 0.82801 0.89766 0.65323 0.0
C990 C 0.82007 0.85812 0.6848 0.0
C991 C 0.83546 0.83835 0.69823 0.0
C992 C 0.93629 0.92222 0.6255 0.0
C993 C 0.87706 0.88865 0.65558 0.0
C994 C 0.95532 0.94319 0.60103 0.0
C995 C 0.93728 0.95479 0.58207 0.0
C996 C 0.89896 0.91313 0.63135 0.0
C997 C 0.9002 0.94621 0.58954 0.0
C998 C 0.84067 0.88316 0.66355 0.0
C999 C 0.87211 0.84515 0.69006 0.0
N1000 N 0.88235 0.92584 0.61337 0.0
N1001 N 0.89158 0.86959 0.66924 0.0
H1002 H 0.27586 0.14268 0.18267 0.0
H1003 H 0.46722 0.15638 0.09389 0.0
H1004 H 0.37568 0.24005 0.19539 0.0
H1005 H 0.36978 0.05611 0.08027 0.0
H1006 H 0.43321 0.18674 0.13093 0.0
H1007 H 0.30845 0.11034 0.14485 0.0
C1008 C 0.30459 0.1573 0.17758 0.0
C1009 C 0.32299 0.19419 0.19254 0.0
C1010 C 0.41912 0.15808 0.11993 0.0
C1011 C 0.36064 0.15708 0.14933 0.0
C1012 C 0.43862 0.14058 0.09863 0.0
C1013 C 0.42154 0.1034 0.08368 0.0
C1014 C 0.38194 0.13858 0.12662 0.0
C1015 C 0.38426 0.08472 0.09111 0.0
C1016 C 0.32322 0.13872 0.15603 0.0
C1017 C 0.36031 0.21148 0.18501 0.0
N1018 N 0.36576 0.10248 0.11197 0.0
N1019 N 0.37775 0.19288 0.16408 0.0
H1020 H 0.84999 0.2859 0.16199 0.0
H1021 H 0.91088 0.4794 0.09775 0.0
H1022 H 0.83241 0.38133 0.2174 0.0
H1023 H 0.96524 0.40352 0.06476 0.0
H1024 H 0.88043 0.44294 0.14078 0.0
H1025 H 0.89084 0.32711 0.12533 0.0
C1026 C 0.85521 0.31564 0.16688 0.0
C1027 C 0.83812 0.3302 0.19324 0.0
C1028 C 0.89928 0.43443 0.12437 0.0
C1029 C 0.88389 0.37735 0.15041 0.0
C1030 C 0.91652 0.45507 0.09969 0.0
C1031 C 0.94027 0.44412 0.07748 0.0
C1032 C 0.90521 0.40209 0.12659 0.0
C1033 C 0.94702 0.41276 0.08136 0.0
C1034 C 0.87844 0.33913 0.14574 0.0
C1035 C 0.84492 0.36881 0.19744 0.0
N1036 N 0.92907 0.39237 0.10522 0.0
N1037 N 0.86704 0.391 0.17607 0.0
H1038 H 0.59403 0.82057 0.17898 0.0
H1039 H 0.62863 0.98277 0.07469 0.0
H1040 H 0.69612 0.91415 0.16838 0.0
H1041 H 0.53475 0.87788 0.06855 0.0
H1042 H 0.6492 0.96257 0.11587 0.0
H1043 H 0.56807 0.84542 0.14481 0.0
C1044 C 0.61089 0.84653 0.16967 0.0
C1045 C 0.64733 0.8653 0.17641 0.0
C1046 C 0.62399 0.94405 0.10566 0.0
C1047 C 0.61783 0.89377 0.13732 0.0
C1048 C 0.61209 0.9556 0.08218 0.0
C1049 C 0.58012 0.93172 0.06771 0.0
C1050 C 0.60381 0.90839 0.11493 0.0
C1051 C 0.55973 0.89706 0.07878 0.0
C1052 C 0.59609 0.86058 0.15008 0.0
C1053 C 0.66804 0.89857 0.16346 0.0
N1054 N 0.57208 0.88628 0.10157 0.0
N1055 N 0.653 0.91174 0.14453 0.0
H1056 H 0.26089 0.72893 0.14228 0.0
H1057 H 0.10692 0.53498 0.0731 0.0
H1058 H 0.2134 0.63239 0.19242 0.0
H1059 H 0.14155 0.64061 0.03657 0.0
H1060 H 0.15513 0.56464 0.11007 0.0
H1061 H 0.22702 0.69137 0.09702 0.0
C1062 C 0.24341 0.69971 0.14374 0.0
C1063 C 0.23926 0.68413 0.17154 0.0
C1064 C 0.15256 0.58104 0.09351 0.0
C1065 C 0.20019 0.64065 0.11946 0.0
C1066 C 0.12531 0.56405 0.0722 0.0
C1067 C 0.12007 0.5855 0.05191 0.0
C1068 C 0.17485 0.61956 0.09419 0.0
C1069 C 0.1444 0.62313 0.05199 0.0
C1070 C 0.22411 0.67819 0.11778 0.0
C1071 C 0.21701 0.64573 0.17162 0.0
N1072 N 0.17044 0.63898 0.07293 0.0
N1073 N 0.19785 0.6254 0.14614 0.0
H1074 H 0.30201 0.76315 0.85342 0.0
H1075 H 0.4226 0.96429 0.94112 0.0
H1076 H 0.32571 0.86867 0.81983 0.0
H1077 H 0.41006 0.85776 0.96667 0.0
H1078 H 0.37407 0.93062 0.90537 0.0
H1079 H 0.32917 0.79817 0.90255 0.0
C1080 C 0.31276 0.79371 0.85646 0.0
C1081 C 0.31244 0.81304 0.8322 0.0
C1082 C 0.3814 0.91471 0.91934 0.0
C1083 C 0.34336 0.85333 0.88846 0.0
C1084 C 0.40888 0.93395 0.93999 0.0
C1085 C 0.42085 0.91366 0.95635 0.0
C1086 C 0.3659 0.87504 0.91521 0.0
C1087 C 0.40213 0.8744 0.95397 0.0
C1088 C 0.3281 0.81369 0.88458 0.0
C1089 C 0.32592 0.85263 0.83773 0.0
N1090 N 0.376 0.85631 0.93334 0.0
N1091 N 0.34132 0.8715 0.86512 0.0
H1092 H 0.16697 0.25589 0.81437 0.0
H1093 H 0.16459 0.44586 0.92212 0.0
H1094 H 0.25558 0.36422 0.81404 0.0
H1095 H 0.06951 0.34305 0.90897 0.0
H1096 H 0.19945 0.41524 0.88562 0.0
H1097 H 0.1323 0.28579 0.85215 0.0
C1098 C 0.17921 0.28593 0.82225 0.0
C1099 C 0.21425 0.30751 0.81067 0.0
C1100 C 0.17095 0.39935 0.89071 0.0
C1101 C 0.17454 0.34214 0.85414 0.0
C1102 C 0.15096 0.41685 0.91167 0.0
C1103 C 0.11384 0.39721 0.9188 0.0
C1104 C 0.15399 0.36165 0.8768 0.0
C1105 C 0.09793 0.35955 0.90426 0.0
C1106 C 0.15931 0.30305 0.84377 0.0
C1107 C 0.22855 0.34641 0.82188 0.0
N1108 N 0.11801 0.34309 0.88415 0.0
N1109 N 0.20876 0.36236 0.84287 0.0
H1110 H 0.66964 0.15314 0.77567 0.0
H1111 H 0.59496 0.12741 0.95444 0.0
H1112 H 0.72102 0.23434 0.85417 0.0
H1113 H 0.58687 0.03401 0.88147 0.0
H1114 H 0.62797 0.17137 0.916 0.0
H1115 H 0.62632 0.11365 0.81276 0.0
C1116 C 0.67159 0.16282 0.80075 0.0
C1117 C 0.69922 0.19677 0.81196 0.0
C1118 C 0.61826 0.14123 0.90833 0.0
C1119 C 0.64943 0.15201 0.85439 0.0
C1120 C 0.59912 0.11626 0.93005 0.0
C1121 C 0.58789 0.07723 0.92078 0.0
C1122 C 0.62573 0.12684 0.87719 0.0
C1123 C 0.59472 0.06397 0.88926 0.0
C1124 C 0.64693 0.14024 0.82184 0.0
C1125 C 0.70046 0.20799 0.84466 0.0
N1126 N 0.61324 0.08874 0.86855 0.0
N1127 N 0.67588 0.18563 0.86482 0.0
H1128 H 0.94801 0.73352 0.8572 0.0
H1129 H 0.94963 0.54725 0.90454 0.0
H1130 H 0.91399 0.62756 0.79535 0.0
H1131 H 1.01898 0.6585 0.94525 0.0
H1132 H 0.93436 0.5755 0.86532 0.0
H1133 H 0.97116 0.70608 0.89177 0.0
C1134 C 0.94529 0.70444 0.851 0.0
C1135 C 0.92898 0.68273 0.82345 0.0
C1136 C 0.95329 0.5937 0.88257 0.0
C1137 C 0.95535 0.65121 0.86277 0.0
C1138 C 0.96208 0.57759 0.90495 0.0
C1139 C 0.9855 0.60054 0.92834 0.0
C1140 C 0.96743 0.63313 0.88393 0.0
C1141 C 1.00086 0.6397 0.92764 0.0
C1142 C 0.95879 0.68892 0.87054 0.0
C1143 C 0.92653 0.64533 0.81631 0.0
N1144 N 0.99111 0.65481 0.90613 0.0
N1145 N 0.93927 0.63065 0.83596 0.0
H1146 H 0.13997 0.39187 0.1988 0.0
H1147 H 0.02395 0.34883 0.04974 0.0
H1148 H 0.09894 0.28228 0.1427 0.0
H1149 H 0.09349 0.46085 0.08868 0.0
H1150 H 0.04254 0.32289 0.08888 0.0
H1151 H 0.11558 0.41645 0.16318 0.0
C1152 C 0.12574 0.37294 0.17897 0.0
C1153 C 0.12153 0.33494 0.17371 0.0
C1154 C 0.05344 0.35315 0.08897 0.0
C1155 C 0.0932 0.36292 0.13285 0.0
C1156 C 0.04255 0.36804 0.06687 0.0
C1157 C 0.05728 0.40712 0.06579 0.0
C1158 C 0.07889 0.37755 0.11041 0.0
C1159 C 0.08156 0.43055 0.08846 0.0
C1160 C 0.11187 0.38702 0.15861 0.0
C1161 C 0.10309 0.31182 0.14746 0.0
N1162 N 0.09163 0.41543 0.10971 0.0
N1163 N 0.08944 0.32611 0.12809 0.0
H1164 H 0.20178 0.63343 0.7766 0.0
H1165 H 0.07425 0.60756 0.93575 0.0
H1166 H 0.19328 0.72781 0.84136 0.0
H1167 H 0.12798 0.53263 0.89632 0.0
H1168 H 0.10514 0.64691 0.89386 0.0
H1169 H 0.16268 0.59103 0.8138 0.0
C1170 C 0.19139 0.64526 0.79841 0.0
C1171 C 0.20039 0.6843 0.80562 0.0
C1172 C 0.10981 0.62164 0.89434 0.0
C1173 C 0.15534 0.6359 0.84792 0.0
C1174 C 0.09205 0.59912 0.91804 0.0
C1175 C 0.09882 0.56705 0.91956 0.0
C1176 C 0.13381 0.61142 0.8718 0.0
C1177 C 0.12238 0.55744 0.89617 0.0
C1178 C 0.16906 0.62104 0.81955 0.0
C1179 C 0.18619 0.69795 0.83433 0.0
N1180 N 0.13902 0.57951 0.87323 0.0
N1181 N 0.16428 0.6738 0.8544 0.0
H1182 H 0.44897 0.19146 0.82032 0.0
H1183 H 0.41217 0.03137 0.92768 0.0
H1184 H 0.34505 0.10166 0.83453 0.0
H1185 H 0.50894 0.13342 0.93003 0.0
H1186 H 0.39072 0.05241 0.88759 0.0
H1187 H 0.47424 0.16674 0.85517 0.0
C1188 C 0.43152 0.1664 0.83065 0.0
C1189 C 0.39481 0.14858 0.82454 0.0
C1190 C 0.41673 0.07013 0.89674 0.0
C1191 C 0.42358 0.1202 0.86445 0.0
C1192 C 0.42915 0.05807 0.91958 0.0
C1193 C 0.46229 0.08088 0.93264 0.0
C1194 C 0.43758 0.10522 0.88665 0.0
C1195 C 0.48311 0.11504 0.92088 0.0
C1196 C 0.44594 0.15242 0.85062 0.0
C1197 C 0.37337 0.11649 0.83885 0.0
N1198 N 0.47029 0.12629 0.89869 0.0
N1199 N 0.38808 0.1033 0.85808 0.0
H1200 H 0.85597 0.37575 0.79001 0.0
H1201 H 0.89586 0.36813 0.95548 0.0
H1202 H 0.7672 0.31039 0.84949 0.0
H1203 H 0.93735 0.47624 0.92205 0.0
H1204 H 0.84931 0.34414 0.91713 0.0
H1205 H 0.88785 0.41203 0.8371 0.0
C1206 C 0.84281 0.3698 0.8131 0.0
C1207 C 0.80887 0.34033 0.81597 0.0
C1208 C 0.86805 0.37338 0.9188 0.0
C1209 C 0.84584 0.38043 0.86978 0.0
C1210 C 0.89463 0.38707 0.94061 0.0
C1211 C 0.92054 0.42425 0.94197 0.0
C1212 C 0.86816 0.39663 0.89749 0.0
C1213 C 0.91781 0.44749 0.92196 0.0
C1214 C 0.86102 0.3904 0.83992 0.0
C1215 C 0.79316 0.33329 0.84639 0.0
N1216 N 0.89274 0.43302 0.89998 0.0
N1217 N 0.81225 0.35247 0.87217 0.0
H1218 H 0.66624 0.76682 0.80746 0.0
H1219 H 0.67468 0.95779 0.91979 0.0
H1220 H 0.76454 0.86653 0.81748 0.0
H1221 H 0.57804 0.8566 0.90633 0.0
H1222 H 0.7085 0.92604 0.88279 0.0
H1223 H 0.63414 0.80024 0.8436 0.0
C1224 C 0.68112 0.79589 0.81704 0.0
C1225 C 0.71823 0.81383 0.80903 0.0
C1226 C 0.67988 0.91087 0.88795 0.0
C1227 C 0.68137 0.85253 0.85136 0.0
C1228 C 0.66048 0.92901 0.90909 0.0
C1229 C 0.62326 0.91002 0.9164 0.0
C1230 C 0.66203 0.87338 0.8739 0.0
C1231 C 0.60658 0.87263 0.90165 0.0
C1232 C 0.66273 0.81498 0.83796 0.0
C1233 C 0.736 0.8514 0.82297 0.0
N1234 N 0.62597 0.85572 0.8813 0.0
N1235 N 0.71747 0.86946 0.84339 0.0
H1236 H 0.8744 0.75745 0.17415 0.0
H1237 H 0.87599 0.56332 0.07428 0.0
H1238 H 0.79048 0.64847 0.18567 0.0
H1239 H 0.97054 0.66726 0.08182 0.0
H1240 H 0.84198 0.59513 0.1107 0.0
H1241 H 0.90749 0.7262 0.13589 0.0
C1242 C 0.86277 0.72701 0.16853 0.0
C1243 C 0.82947 0.70571 0.18328 0.0
C1244 C 0.87018 0.61098 0.10436 0.0
C1245 C 0.86746 0.66952 0.13937 0.0
C1246 C 0.88964 0.59282 0.08344 0.0
C1247 C 0.92639 0.61243 0.07486 0.0
C1248 C 0.88728 0.64931 0.11666 0.0
C1249 C 0.94241 0.65075 0.08774 0.0
C1250 C 0.88182 0.70912 0.14678 0.0
C1251 C 0.81609 0.66619 0.17516 0.0
N1252 N 0.92282 0.66784 0.10778 0.0
N1253 N 0.83498 0.6495 0.1538 0.0
H1254 H 0.34574 0.86941 0.21935 0.0
H1255 H 0.4799 0.89945 0.06372 0.0
H1256 H 0.37919 0.7814 0.16992 0.0
H1257 H 0.4317 0.97636 0.11165 0.0
H1258 H 0.45322 0.85973 0.10629 0.0
H1259 H 0.38729 0.9127 0.18474 0.0
C1260 C 0.36226 0.85931 0.2013 0.0
C1261 C 0.35875 0.82166 0.19727 0.0
C1262 C 0.44902 0.88561 0.10762 0.0
C1263 C 0.40632 0.87124 0.15675 0.0
C1264 C 0.46447 0.90839 0.08351 0.0
C1265 C 0.45779 0.94108 0.08414 0.0
C1266 C 0.42717 0.89602 0.13247 0.0
C1267 C 0.43721 0.95118 0.11005 0.0
C1268 C 0.38602 0.88409 0.18142 0.0
C1269 C 0.38114 0.81026 0.17373 0.0
N1270 N 0.42259 0.92874 0.13295 0.0
N1271 N 0.40368 0.83486 0.15392 0.0
H1272 H 0.71116 0.14236 0.18625 0.0
H1273 H 0.6349 0.15472 0.03193 0.0
H1274 H 0.73942 0.24638 0.14859 0.0
H1275 H 0.61969 0.04934 0.06147 0.0
H1276 H 0.68194 0.18788 0.06887 0.0
H1277 H 0.68522 0.10712 0.13669 0.0
C1278 C 0.71236 0.15777 0.16737 0.0
C1279 C 0.72715 0.19735 0.17161 0.0
C1280 C 0.66892 0.15742 0.06685 0.0
C1281 C 0.69712 0.15725 0.11497 0.0
C1282 C 0.64215 0.13846 0.04564 0.0
C1283 C 0.6229 0.09936 0.04415 0.0
C1284 C 0.67597 0.13717 0.08709 0.0
C1285 C 0.63366 0.07958 0.0621 0.0
C1286 C 0.69757 0.13764 0.13905 0.0
C1287 C 0.7278 0.21587 0.14645 0.0
N1288 N 0.65891 0.09883 0.08344 0.0
N1289 N 0.71259 0.19567 0.11935 0.0
H1290 H 0.75267 0.66266 0.81589 0.0
H1291 H 0.56136 0.56876 0.91113 0.0
H1292 H 0.65778 0.68055 0.80185 0.0
H1293 H 0.66072 0.56495 0.93225 0.0
H1294 H 0.59424 0.60456 0.86775 0.0
H1295 H 0.71749 0.62162 0.85507 0.0
C1296 C 0.72435 0.65774 0.82079 0.0
C1297 C 0.70827 0.67519 0.80538 0.0
C1298 C 0.60877 0.59575 0.88185 0.0
C1299 C 0.66761 0.62803 0.85061 0.0
C1300 C 0.58998 0.57527 0.90666 0.0
C1301 C 0.60821 0.56398 0.92573 0.0
C1302 C 0.64609 0.60485 0.87583 0.0
C1303 C 0.64538 0.57311 0.91846 0.0
C1304 C 0.70424 0.6343 0.8433 0.0
C1305 C 0.67137 0.66759 0.8129 0.0
N1306 N 0.66298 0.59297 0.89426 0.0
N1307 N 0.65236 0.64473 0.83501 0.0
H1308 H 0.40947 0.64449 0.79339 0.0
H1309 H 0.43888 0.49919 0.88471 0.0
H1310 H 0.3339 0.53011 0.80023 0.0
H1311 H 0.49756 0.61958 0.90527 0.0
H1312 H 0.40983 0.50947 0.84347 0.0
H1313 H 0.4491 0.63572 0.82691 0.0
C1314 C 0.40107 0.61765 0.80197 0.0
C1315 C 0.36827 0.58792 0.79366 0.0
C1316 C 0.42941 0.53367 0.8567 0.0
C1317 C 0.41397 0.57748 0.83118 0.0
C1318 C 0.44629 0.5278 0.8801 0.0
C1319 C 0.47028 0.5586 0.89889 0.0
C1320 C 0.4364 0.57063 0.85195 0.0
C1321 C 0.47909 0.595 0.89149 0.0
C1322 C 0.42389 0.6126 0.82083 0.0
C1323 C 0.35917 0.55364 0.80524 0.0
N1324 N 0.46169 0.6001 0.86889 0.0
N1325 N 0.38187 0.54939 0.82321 0.0
H1326 H 0.32089 0.36408 0.81994 0.0
H1327 H 0.44506 0.34999 0.94208 0.0
H1328 H 0.36455 0.27799 0.80616 0.0
H1329 H 0.4289 0.45133 0.93704 0.0
H1330 H 0.40649 0.31793 0.89808 0.0
H1331 H 0.35265 0.39198 0.86821 0.0
C1332 C 0.33713 0.35101 0.82709 0.0
C1333 C 0.33974 0.3184 0.80923 0.0
C1334 C 0.41118 0.34712 0.90694 0.0
C1335 C 0.37582 0.34995 0.86456 0.0
C1336 C 0.43298 0.36541 0.93221 0.0
C1337 C 0.44042 0.40365 0.94345 0.0
C1338 C 0.39648 0.3671 0.89301 0.0
C1339 C 0.42405 0.42204 0.92949 0.0
C1340 C 0.3551 0.36685 0.85471 0.0
C1341 C 0.36108 0.3026 0.81963 0.0
N1342 N 0.403 0.40368 0.90498 0.0
N1343 N 0.37827 0.31849 0.8467 0.0
H1344 H 0.64433 0.24594 0.91248 0.0
H1345 H 0.5956 0.36613 0.01394 0.0
H1346 H 0.69584 0.34204 0.86163 0.0
H1347 H 0.67439 0.4559 0.96622 0.0
H1348 H 0.62658 0.3253 0.99088 0.0
H1349 H 0.65227 0.28937 0.96169 0.0
C1350 C 0.65755 0.27598 0.91154 0.0
C1351 C 0.66746 0.29006 0.8825 0.0
C1352 C 0.63819 0.35412 0.986 0.0
C1353 C 0.67601 0.34004 0.93862 0.0
C1354 C 0.62011 0.37744 0.99903 0.0
C1355 C 0.63156 0.41368 0.99059 0.0
C1356 C 0.6674 0.36695 0.96369 0.0
C1357 C 0.66409 0.42762 0.97241 0.0
C1358 C 0.6621 0.3009 0.93974 0.0
C1359 C 0.6867 0.32922 0.88302 0.0
N1360 N 0.68033 0.40377 0.95872 0.0
N1361 N 0.68952 0.35271 0.9105 0.0
H1362 H 0.61689 0.35821 0.20752 0.0
H1363 H 0.59007 0.51084 0.12287 0.0
H1364 H 0.6893 0.47521 0.21025 0.0
H1365 H 0.53006 0.3912 0.09907 0.0
H1366 H 0.61796 0.49795 0.16353 0.0
H1367 H 0.5789 0.36893 0.17343 0.0
C1368 C 0.62496 0.386 0.20083 0.0
C1369 C 0.65622 0.41592 0.21211 0.0
C1370 C 0.59832 0.47445 0.14975 0.0
C1371 C 0.61248 0.42854 0.17389 0.0
C1372 C 0.58201 0.48185 0.12674 0.0
C1373 C 0.55795 0.45208 0.10722 0.0
C1374 C 0.59078 0.43693 0.15332 0.0
C1375 C 0.54849 0.41506 0.11352 0.0
C1376 C 0.60308 0.39218 0.18166 0.0
C1377 C 0.66511 0.45142 0.20281 0.0
N1378 N 0.5654 0.40846 0.13568 0.0
N1379 N 0.64337 0.4567 0.18449 0.0
H1380 H 0.68147 0.73821 0.19089 0.0
H1381 H 0.61642 0.56151 0.06074 0.0
H1382 H 0.73022 0.65615 0.17278 0.0
H1383 H 0.60408 0.66452 0.05396 0.0
H1384 H 0.65776 0.59517 0.10188 0.0
H1385 H 0.65156 0.71121 0.14153 0.0
C1386 C 0.68643 0.71501 0.17621 0.0
C1387 C 0.70887 0.69983 0.18553 0.0
C1388 C 0.64651 0.61057 0.09099 0.0
C1389 C 0.67388 0.66807 0.12982 0.0
C1390 C 0.62287 0.59132 0.06733 0.0
C1391 C 0.60651 0.61004 0.05378 0.0
C1392 C 0.65329 0.64866 0.10173 0.0
C1393 C 0.61599 0.64886 0.06371 0.0
C1394 C 0.66925 0.69952 0.14816 0.0
C1395 C 0.71311 0.66868 0.16639 0.0
N1396 N 0.6383 0.66677 0.08751 0.0
N1397 N 0.69559 0.65366 0.13949 0.0
H1398 H 0.2784 0.615 0.1315 0.0
H1399 H 0.42081 0.62974 0.03135 0.0
H1400 H 0.29569 0.51975 0.15195 0.0
H1401 H 0.39477 0.51125 0.0306 0.0
H1402 H 0.36209 0.62206 0.05771 0.0
H1403 H 0.3041 0.60571 0.07765 0.0
C1404 C 0.28689 0.5916 0.12437 0.0
C1405 C 0.28651 0.56912 0.14646 0.0
C1406 C 0.36833 0.59724 0.05076 0.0
C1407 C 0.31707 0.55931 0.08571 0.0
C1408 C 0.40224 0.60181 0.03594 0.0
C1409 C 0.41308 0.57134 0.02981 0.0
C1410 C 0.34542 0.56201 0.05989 0.0
C1411 C 0.38782 0.53569 0.03573 0.0
C1412 C 0.30184 0.58652 0.09376 0.0
C1413 C 0.29637 0.53832 0.13585 0.0
N1414 N 0.35551 0.5322 0.0513 0.0
N1415 N 0.31223 0.53495 0.1064 0.0
H1416 H 0.38645 0.32941 0.20417 0.0
H1417 H 0.3757 0.43313 0.06557 0.0
H1418 H 0.29104 0.3448 0.18756 0.0
H1419 H 0.47798 0.45016 0.09807 0.0
H1420 H 0.34481 0.39844 0.10919 0.0
H1421 H 0.42097 0.37126 0.16493 0.0
C1422 C 0.3728 0.34188 0.19262 0.0
C1423 C 0.33565 0.33343 0.19928 0.0
C1424 C 0.37404 0.40971 0.10689 0.0
C1425 C 0.37498 0.38085 0.15394 0.0
C1426 C 0.39188 0.42958 0.0818 0.0
C1427 C 0.42979 0.44414 0.0775 0.0
C1428 C 0.39396 0.40378 0.12803 0.0
C1429 C 0.44885 0.43869 0.09981 0.0
C1430 C 0.39257 0.36572 0.17017 0.0
C1431 C 0.3195 0.35025 0.18326 0.0
N1432 N 0.43075 0.41862 0.12394 0.0
N1433 N 0.33914 0.37278 0.16125 0.0
H1434 H 0.8756 0.74685 0.68898 0.0
H1435 H 0.87094 0.5545 0.58115 0.0
H1436 H 0.78068 0.64337 0.68631 0.0
H1437 H 0.96637 0.65715 0.59355 0.0
H1438 H 0.83642 0.58583 0.61777 0.0
H1439 H 0.90797 0.71406 0.65238 0.0
C1440 C 0.86153 0.7171 0.68085 0.0
C1441 C 0.82536 0.69786 0.69121 0.0
C1442 C 0.86493 0.6014 0.61246 0.0
C1443 C 0.86249 0.65982 0.6484 0.0
C1444 C 0.88473 0.58351 0.59152 0.0
C1445 C 0.92184 0.60302 0.58406 0.0
C1446 C 0.88223 0.6392 0.62605 0.0
C1447 C 0.93797 0.64069 0.59839 0.0
C1448 C 0.88007 0.69834 0.65973 0.0
C1449 C 0.80852 0.65943 0.67908 0.0
N1450 N 0.91818 0.65737 0.61847 0.0
N1451 N 0.82718 0.64169 0.65841 0.0
H1452 H 0.34972 0.78313 0.65905 0.0
H1453 H 0.42285 0.98375 0.60664 0.0
H1454 H 0.34634 0.87947 0.72405 0.0
H1455 H 0.46977 0.90316 0.56599 0.0
H1456 H 0.39236 0.94538 0.64874 0.0
H1457 H 0.39142 0.82534 0.62339 0.0
C1458 C 0.35838 0.81317 0.66622 0.0
C1459 C 0.34515 0.82768 0.69502 0.0
C1460 C 0.40971 0.93633 0.63088 0.0
C1461 C 0.3916 0.87627 0.65342 0.0
C1462 C 0.42698 0.95808 0.6068 0.0
C1463 C 0.44868 0.94641 0.58279 0.0
C1464 C 0.41343 0.90216 0.63053 0.0
C1465 C 0.45338 0.91314 0.58417 0.0
C1466 C 0.38201 0.83727 0.64567 0.0
C1467 C 0.35593 0.86697 0.70218 0.0
N1468 N 0.43533 0.89173 0.60739 0.0
N1469 N 0.37827 0.88991 0.68136 0.0
H1470 H 0.17184 0.4423 0.70387 0.0
H1471 H 0.04645 0.3679 0.55798 0.0
H1472 H 0.14058 0.32903 0.65414 0.0
H1473 H 0.10933 0.48549 0.58828 0.0
H1474 H 0.06969 0.35113 0.60022 0.0
H1475 H 0.13831 0.45626 0.66832 0.0
C1476 C 0.1576 0.42023 0.68564 0.0
C1477 C 0.1591 0.38448 0.68187 0.0
C1478 C 0.07802 0.38058 0.59774 0.0
C1479 C 0.12068 0.40031 0.64105 0.0
C1480 C 0.06457 0.39019 0.57386 0.0
C1481 C 0.07628 0.42813 0.56945 0.0
C1482 C 0.10288 0.40918 0.61754 0.0
C1483 C 0.09991 0.45587 0.59061 0.0
C1484 C 0.1386 0.42827 0.66528 0.0
C1485 C 0.14044 0.35708 0.65761 0.0
N1486 N 0.11252 0.44584 0.61362 0.0
N1487 N 0.12197 0.36556 0.63807 0.0
H1488 H 0.77719 0.21662 0.64602 0.0
H1489 H 0.61473 0.03483 0.5706 0.0
H1490 H 0.70604 0.12711 0.6979 0.0
H1491 H 0.64783 0.14575 0.54401 0.0
H1492 H 0.66341 0.06018 0.6068 0.0
H1493 H 0.74525 0.18188 0.59824 0.0
C1494 C 0.75586 0.18891 0.64696 0.0
C1495 C 0.74422 0.17444 0.6757 0.0
C1496 C 0.66047 0.0787 0.59246 0.0
C1497 C 0.70764 0.13491 0.62159 0.0
C1498 C 0.63284 0.06425 0.57165 0.0
C1499 C 0.62694 0.08829 0.55443 0.0
C1500 C 0.68284 0.11728 0.59563 0.0
C1501 C 0.65116 0.12628 0.55704 0.0
C1502 C 0.73747 0.16932 0.61984 0.0
C1503 C 0.71582 0.13898 0.67604 0.0
N1504 N 0.6779 0.13964 0.57738 0.0
N1505 N 0.6983 0.1205 0.64945 0.0
H1506 H 0.80115 0.27043 0.35254 0.0
H1507 H 0.92683 0.46907 0.43906 0.0
H1508 H 0.82403 0.3762 0.3198 0.0
H1509 H 0.90895 0.36125 0.4653 0.0
H1510 H 0.87763 0.43746 0.4037 0.0
H1511 H 0.82902 0.30486 0.40129 0.0
C1512 C 0.81198 0.301 0.35569 0.0
C1513 C 0.81117 0.32056 0.3318 0.0
C1514 C 0.88396 0.42085 0.41772 0.0
C1515 C 0.8433 0.36027 0.38763 0.0
C1516 C 0.91186 0.43891 0.4381 0.0
C1517 C 0.92246 0.41756 0.45454 0.0
C1518 C 0.86666 0.38131 0.41398 0.0
C1519 C 0.90214 0.37863 0.45248 0.0
C1520 C 0.82772 0.32067 0.38364 0.0
C1521 C 0.82463 0.36011 0.3375 0.0
N1522 N 0.8756 0.36169 0.43216 0.0
N1523 N 0.84079 0.37876 0.36468 0.0
H1524 H 0.75843 0.86874 0.31231 0.0
H1525 H 0.57358 0.8437 0.41747 0.0
H1526 H 0.67247 0.76035 0.32145 0.0
H1527 H 0.668 0.94784 0.4236 0.0
H1528 H 0.60807 0.81347 0.38028 0.0
H1529 H 0.72454 0.89877 0.35059 0.0
C1530 C 0.73247 0.85117 0.32243 0.0
C1531 C 0.71858 0.81179 0.31385 0.0
C1532 C 0.6213 0.84291 0.38979 0.0
C1533 C 0.67927 0.84624 0.35772 0.0
C1534 C 0.60156 0.86032 0.41105 0.0
C1535 C 0.61775 0.89856 0.42389 0.0
C1536 C 0.65759 0.86382 0.38083 0.0
C1537 C 0.65425 0.91835 0.41453 0.0
C1538 C 0.71315 0.86838 0.3444 0.0
C1539 C 0.68467 0.79065 0.32778 0.0
N1540 N 0.67278 0.90086 0.39355 0.0
N1541 N 0.66619 0.80809 0.34885 0.0
H1542 H 0.19388 0.73972 0.34494 0.0
H1543 H 0.10956 0.53421 0.38854 0.0
H1544 H 0.17863 0.64158 0.27529 0.0
H1545 H 0.07713 0.62012 0.44392 0.0
H1546 H 0.13593 0.57451 0.34723 0.0
H1547 H 0.15136 0.69874 0.38201 0.0
C1548 C 0.18111 0.70966 0.3373 0.0
C1549 C 0.19049 0.69378 0.30737 0.0
C1550 C 0.12254 0.58443 0.36813 0.0
C1551 C 0.14224 0.64704 0.34944 0.0
C1552 C 0.10756 0.56145 0.39173 0.0
C1553 C 0.09111 0.57387 0.41954 0.0
C1554 C 0.12203 0.62068 0.37264 0.0
C1555 C 0.08934 0.60948 0.42261 0.0
C1556 C 0.1569 0.68634 0.35842 0.0
C1557 C 0.17286 0.65481 0.29845 0.0
N1558 N 0.10528 0.63206 0.39964 0.0
N1559 N 0.15014 0.63272 0.31957 0.0
H1560 H 0.49239 0.22065 0.31885 0.0
H1561 H 0.43232 0.05549 0.42525 0.0
H1562 H 0.38134 0.15329 0.34453 0.0
H1563 H 0.53618 0.14859 0.43193 0.0
H1564 H 0.41677 0.08487 0.38743 0.0
H1565 H 0.51174 0.18934 0.35306 0.0
C1566 C 0.47208 0.19926 0.33167 0.0
C1567 C 0.43514 0.18964 0.32891 0.0
C1568 C 0.44305 0.09879 0.39701 0.0
C1569 C 0.45714 0.15345 0.36771 0.0
C1570 C 0.45216 0.08189 0.41852 0.0
C1571 C 0.48558 0.09972 0.43223 0.0
C1572 C 0.46757 0.13366 0.38865 0.0
C1573 C 0.51004 0.13389 0.42222 0.0
C1574 C 0.48317 0.18153 0.35123 0.0
C1575 C 0.41004 0.16187 0.34619 0.0
N1576 N 0.50051 0.14983 0.40111 0.0
N1577 N 0.42149 0.14462 0.36465 0.0
H1578 H 0.5522 0.79048 0.68545 0.0
H1579 H 0.61923 0.95586 0.57821 0.0
H1580 H 0.66434 0.85537 0.66112 0.0
H1581 H 0.51313 0.86626 0.57302 0.0
H1582 H 0.63311 0.92583 0.61663 0.0
H1583 H 0.53494 0.82363 0.65139 0.0
C1584 C 0.57318 0.81177 0.67299 0.0
C1585 C 0.60981 0.8201 0.67603 0.0
C1586 C 0.60671 0.91285 0.60724 0.0
C1587 C 0.59022 0.85832 0.63735 0.0
C1588 C 0.59859 0.93012 0.5854 0.0
C1589 C 0.565 0.91342 0.57196 0.0
C1590 C 0.58103 0.87875 0.61614 0.0
C1591 C 0.53945 0.88007 0.5825 0.0
C1592 C 0.5633 0.83055 0.65351 0.0
C1593 C 0.63584 0.84776 0.6592 0.0
N1594 N 0.54803 0.86374 0.60388 0.0
N1595 N 0.62555 0.86599 0.64075 0.0
H1596 H 0.70219 0.23061 0.3465 0.0
H1597 H 0.62714 0.02979 0.39659 0.0
H1598 H 0.69342 0.13397 0.2767 0.0
H1599 H 0.58125 0.11051 0.43968 0.0
H1600 H 0.65631 0.06848 0.35432 0.0
H1601 H 0.66239 0.18859 0.38326 0.0
C1602 C 0.69132 0.20059 0.33866 0.0
C1603 C 0.70047 0.18587 0.30822 0.0
C1604 C 0.63942 0.07741 0.37278 0.0
C1605 C 0.65641 0.13752 0.35078 0.0
C1606 C 0.62296 0.05554 0.39694 0.0
C1607 C 0.60188 0.06716 0.4216 0.0
C1608 C 0.63555 0.11162 0.37381 0.0
C1609 C 0.59712 0.10056 0.42095 0.0
C1610 C 0.6688 0.17663 0.35976 0.0
C1611 C 0.68698 0.14654 0.29993 0.0
N1612 N 0.6144 0.12208 0.39767 0.0
N1613 N 0.66591 0.12362 0.32126 0.0
H1614 H 0.88644 0.69284 0.37327 0.0
H1615 H 0.93723 0.53008 0.41473 0.0
H1616 H 0.81352 0.57679 0.37509 0.0
H1617 H 0.99442 0.64758 0.44979 0.0
H1618 H 0.9031 0.54806 0.38297 0.0
H1619 H 0.93546 0.67724 0.38668 0.0
C1620 C 0.88096 0.66406 0.37623 0.0
C1621 C 0.846 0.63607 0.37363 0.0
C1622 C 0.92365 0.56999 0.3971 0.0
C1623 C 0.90154 0.61803 0.38799 0.0
C1624 C 0.94331 0.55979 0.41507 0.0
C1625 C 0.96799 0.58736 0.43551 0.0
C1626 C 0.92857 0.60798 0.39971 0.0
C1627 C 0.97529 0.62545 0.4346 0.0
C1628 C 0.9088 0.65522 0.38377 0.0
C1629 C 0.84004 0.59921 0.37745 0.0
N1630 N 0.95498 0.63469 0.41752 0.0
N1631 N 0.86753 0.59126 0.38449 0.0
H1632 H 0.27272 0.79922 0.3565 0.0
H1633 H 0.44334 0.9747 0.42546 0.0
H1634 H 0.36192 0.86342 0.29674 0.0
H1635 H 0.40103 0.86958 0.46393 0.0
H1636 H 0.39848 0.94597 0.38556 0.0
H1637 H 0.30579 0.83687 0.40316 0.0
C1638 C 0.29877 0.82198 0.35332 0.0
C1639 C 0.31479 0.82844 0.32294 0.0
C1640 C 0.39852 0.92963 0.40331 0.0
C1641 C 0.35201 0.87172 0.3757 0.0
C1642 C 0.42381 0.94605 0.42624 0.0
C1643 C 0.42596 0.92441 0.44797 0.0
C1644 C 0.37468 0.89171 0.40266 0.0
C1645 C 0.40033 0.88717 0.44753 0.0
C1646 C 0.3176 0.84319 0.37981 0.0
C1647 C 0.34882 0.85771 0.31987 0.0
N1648 N 0.37581 0.8719 0.42512 0.0
N1649 N 0.36632 0.87837 0.34594 0.0
H1650 H 0.26526 0.36474 0.3177 0.0
H1651 H 0.07609 0.35371 0.40946 0.0
H1652 H 0.16683 0.26483 0.3132 0.0
H1653 H 0.17405 0.45374 0.42122 0.0
H1654 H 0.10959 0.32199 0.37344 0.0
H1655 H 0.23355 0.39843 0.35509 0.0
C1656 C 0.23705 0.3498 0.32461 0.0
C1657 C 0.21875 0.31179 0.31211 0.0
C1658 C 0.12393 0.35087 0.38382 0.0
C1659 C 0.18204 0.35047 0.35468 0.0
C1660 C 0.1047 0.3692 0.40451 0.0
C1661 C 0.12207 0.40672 0.41866 0.0
C1662 C 0.16111 0.3699 0.37683 0.0
C1663 C 0.15936 0.42489 0.41101 0.0
C1664 C 0.2189 0.36915 0.34589 0.0
C1665 C 0.18208 0.29414 0.32186 0.0
N1666 N 0.17758 0.40636 0.39066 0.0
N1667 N 0.16506 0.31356 0.34235 0.0
H1668 H 0.37534 0.25854 0.6739 0.0
H1669 H 0.38257 0.06487 0.5785 0.0
H1670 H 0.2926 0.14879 0.68494 0.0
H1671 H 0.47559 0.17026 0.58481 0.0
H1672 H 0.34746 0.09621 0.61365 0.0
H1673 H 0.41037 0.22801 0.63731 0.0
C1674 C 0.3643 0.22808 0.66839 0.0
C1675 C 0.33073 0.20633 0.68244 0.0
C1676 C 0.37557 0.11251 0.60737 0.0
C1677 C 0.37102 0.171 0.64068 0.0
C1678 C 0.39569 0.09461 0.58718 0.0
C1679 C 0.4323 0.11478 0.57856 0.0
C1680 C 0.39184 0.15114 0.61895 0.0
C1681 C 0.44758 0.15336 0.5908 0.0
C1682 C 0.3845 0.21062 0.64768 0.0
C1683 C 0.3183 0.16684 0.67481 0.0
N1684 N 0.42733 0.17023 0.61018 0.0
N1685 N 0.33829 0.15056 0.65448 0.0
H1686 H 0.89029 0.31919 0.70499 0.0
H1687 H 0.90131 0.39921 0.54433 0.0
H1688 H 0.80095 0.29285 0.6488 0.0
H1689 H 0.99076 0.44445 0.60383 0.0
H1690 H 0.86877 0.35145 0.5784 0.0
H1691 H 0.93133 0.3568 0.66496 0.0
C1692 C 0.87946 0.32104 0.68404 0.0
C1693 C 0.84219 0.30362 0.68028 0.0
C1694 C 0.89555 0.37157 0.58416 0.0
C1695 C 0.8885 0.34629 0.63481 0.0
C1696 C 0.91418 0.39889 0.56466 0.0
C1697 C 0.94841 0.42626 0.5717 0.0
C1698 C 0.91087 0.37162 0.61142 0.0
C1699 C 0.96421 0.424 0.59785 0.0
C1700 C 0.90277 0.34262 0.66138 0.0
C1701 C 0.82932 0.30681 0.65297 0.0
N1702 N 0.94499 0.39742 0.61721 0.0
N1703 N 0.85235 0.32783 0.63141 0.0
H1704 H 0.22394 0.64438 0.68106 0.0
H1705 H 0.13731 0.65237 0.53056 0.0
H1706 H 0.23867 0.74744 0.6474 0.0
H1707 H 0.12199 0.54878 0.56341 0.0
H1708 H 0.18646 0.68652 0.56527 0.0
H1709 H 0.19775 0.60858 0.63183 0.0
C1710 C 0.22196 0.65955 0.6632 0.0
C1711 C 0.23267 0.69892 0.66866 0.0
C1712 C 0.17292 0.65621 0.56447 0.0
C1713 C 0.20272 0.65803 0.61221 0.0
C1714 C 0.14495 0.63667 0.54454 0.0
C1715 C 0.12508 0.59788 0.54474 0.0
C1716 C 0.1806 0.63688 0.58511 0.0
C1717 C 0.13641 0.57878 0.56285 0.0
C1718 C 0.2071 0.63906 0.63502 0.0
C1719 C 0.22999 0.71705 0.64447 0.0
N1720 N 0.16291 0.59866 0.58296 0.0
N1721 N 0.2148 0.6964 0.61748 0.0
loop_
_geom_bond_atom_site_label_1
_geom_bond_atom_site_label_2
_geom_bond_distance
_geom_bond_site_symmetry_2
_ccdc_geom_bond_type
Eu0 N29 2.600 . S
Eu0 N35 2.562 . S
Eu0 O44 2.462 . S
Eu0 O45 2.373 . S
Eu0 O47 2.432 . S
Eu0 O48 2.291 . S
Eu0 O52 2.335 . S
Eu0 O55 2.372 . S
Eu0 C64 2.787 . S
C1 N2 1.365 . S
C1 C4 1.405 . S
C1 C8 1.448 . S
N2 C1 1.365 . S
N2 C5 1.319 . S
N2 Eu11 2.600 . S
C3 C5 1.397 . S
C3 C6 1.367 . S
C3 H23 0.931 . S
C4 C1 1.405 . S
C4 C6 1.403 . S
C4 C10 1.439 . S
C5 N2 1.319 . S
C5 C3 1.397 . S
C5 H16 0.930 . S
C6 C3 1.367 . S
C6 C4 1.403 . S
C6 H27 0.929 . S
C7 C8 1.430 . S
C7 C9 1.387 . S
C7 C13 1.404 . S
C8 C1 1.448 . S
C8 C7 1.430 . S
C8 N12 1.351 . S
C9 C7 1.387 . S
C9 C10 1.374 . S
C9 H24 0.931 . S
C10 C4 1.439 . S
C10 C9 1.374 . S
C10 H25 0.931 . S
Eu11 N2 2.600 . S
Eu11 N12 2.562 . S
Eu11 O46 2.335 . S
Eu11 O49 2.372 . S
Eu11 O50 2.462 . S
Eu11 O51 2.373 . S
Eu11 O53 2.432 . S
Eu11 O54 2.291 . S
Eu11 C75 2.787 . S
N12 C8 1.351 . S
N12 Eu11 2.562 . S
N12 C14 1.325 . S
C13 C7 1.404 . S
C13 C15 1.366 . S
C13 H21 0.930 . S
C14 N12 1.325 . S
C14 C15 1.416 . S
C14 H20 0.929 . S
C15 C13 1.366 . S
C15 C14 1.416 . S
C15 H17 0.930 . S
H16 C5 0.930 . S
H17 C15 0.930 . S
H18 C33 0.930 . S
H19 C40 0.930 . S
H20 C14 0.929 . S
H21 C13 0.930 . S
H22 C36 0.929 . S
H23 C3 0.931 . S
H24 C9 0.931 . S
H25 C10 0.931 . S
H26 C31 0.931 . S
H27 C6 0.929 . S
H28 C39 0.930 . S
N29 Eu0 2.600 . S
N29 C30 1.365 . S
N29 C33 1.319 . S
C30 N29 1.365 . S
C30 C32 1.405 . S
C30 C38 1.448 . S
C31 H26 0.931 . S
C31 C33 1.397 . S
C31 C34 1.367 . S
C32 C30 1.405 . S
C32 C34 1.403 . S
C32 C65 1.439 . S
C33 H18 0.930 . S
C33 N29 1.319 . S
C33 C31 1.397 . S
C34 C31 1.367 . S
C34 C32 1.403 . S
C34 H41 0.929 . S
N35 Eu0 2.562 . S
N35 C36 1.325 . S
N35 C38 1.351 . S
C36 H22 0.929 . S
C36 N35 1.325 . S
C36 C40 1.416 . S
C37 C38 1.430 . S
C37 C39 1.404 . S
C37 C66 1.387 . S
C38 C30 1.448 . S
C38 N35 1.351 . S
C38 C37 1.430 . S
C39 H28 0.930 . S
C39 C37 1.404 . S
C39 C40 1.366 . S
C40 H19 0.930 . S
C40 C36 1.416 . S
C40 C39 1.366 . S
H41 C34 0.929 . S
H42 C65 0.931 . S
H43 C66 0.931 . S
O44 Eu0 2.462 . S
O44 C64 1.252 . S
O45 Eu0 2.373 . S
O45 C56 1.249 . S
O46 Eu11 2.335 . S
O46 C56 1.264 . S
O47 Eu0 2.432 . S
O47 C64 1.268 . S
O48 Eu0 2.291 . S
O48 C63 1.255 . S
O49 Eu11 2.372 . S
O49 C63 1.257 . S
O50 Eu11 2.462 . S
O50 C75 1.252 . S
O51 Eu11 2.373 . S
O51 C67 1.249 . S
O52 Eu0 2.335 . S
O52 C67 1.264 . S
O53 Eu11 2.432 . S
O53 C75 1.268 . S
O54 Eu11 2.291 . S
O54 C74 1.255 . S
O55 Eu0 2.372 . S
O55 C74 1.257 . S
C56 O45 1.249 . S
C56 O46 1.264 . S
C57 C60 1.382 . S
C57 C62 1.390 . S
C57 C64 1.506 . S
C58 C59 1.398 . S
C58 C62 1.392 . S
C59 C58 1.398 . S
C59 C61 1.372 . S
C59 H76 0.931 . S
C60 C57 1.382 . S
C60 C61 1.390 . S
C60 H77 0.931 . S
C61 C59 1.372 . S
C61 C60 1.390 . S
C61 H78 0.929 . S
C62 C57 1.390 . S
C62 C58 1.392 . S
C62 H79 0.930 . S
C63 O48 1.255 . S
C63 O49 1.257 . S
C64 Eu0 2.787 . S
C64 O44 1.252 . S
C64 O47 1.268 . S
C64 C57 1.506 . S
C65 C32 1.439 . S
C65 H42 0.931 . S
C65 C66 1.374 . S
C66 C37 1.387 . S
C66 H43 0.931 . S
C66 C65 1.374 . S
C67 O51 1.249 . S
C67 O52 1.264 . S
C68 C71 1.382 . S
C68 C72 1.390 . S
C68 C75 1.506 . S
C69 C70 1.398 . S
C69 C72 1.392 . S
C70 C69 1.398 . S
C70 C73 1.372 . S
C70 H80 0.931 . S
C71 C68 1.382 . S
C71 C73 1.390 . S
C71 H81 0.931 . S
C72 C68 1.390 . S
C72 C69 1.392 . S
C72 H82 0.930 . S
C73 C70 1.372 . S
C73 C71 1.390 . S
C73 H83 0.929 . S
C74 O54 1.255 . S
C74 O55 1.257 . S
C75 Eu11 2.787 . S
C75 O50 1.252 . S
C75 O53 1.268 . S
C75 C68 1.506 . S
H76 C59 0.931 . S
H77 C60 0.931 . S
H78 C61 0.929 . S
H79 C62 0.930 . S
H80 C70 0.931 . S
H81 C71 0.931 . S
H82 C72 0.930 . S
H83 C73 0.929 . S
Eu84 N113 2.600 . S
Eu84 N119 2.562 . S
Eu84 O128 2.462 . S
Eu84 O129 2.373 . S
Eu84 O131 2.432 . S
Eu84 O132 2.291 . S
Eu84 O136 2.335 . S
Eu84 O139 2.372 . S
Eu84 C148 2.787 . S
C85 N86 1.365 . S
C85 C88 1.405 . S
C85 C92 1.448 . S
N86 C85 1.365 . S
N86 C89 1.319 . S
N86 Eu95 2.600 . S
C87 C89 1.397 . S
C87 C90 1.367 . S
C87 H107 0.931 . S
C88 C85 1.405 . S
C88 C90 1.403 . S
C88 C94 1.439 . S
C89 N86 1.319 . S
C89 C87 1.397 . S
C89 H100 0.930 . S
C90 C87 1.367 . S
C90 C88 1.403 . S
C90 H111 0.929 . S
C91 C92 1.430 . S
C91 C93 1.387 . S
C91 C97 1.404 . S
C92 C85 1.448 . S
C92 C91 1.430 . S
C92 N96 1.351 . S
C93 C91 1.387 . S
C93 C94 1.374 . S
C93 H108 0.931 . S
C94 C88 1.439 . S
C94 C93 1.374 . S
C94 H109 0.931 . S
Eu95 N86 2.600 . S
Eu95 N96 2.562 . S
Eu95 O130 2.335 . S
Eu95 O133 2.372 . S
Eu95 O134 2.462 . S
Eu95 O135 2.373 . S
Eu95 O137 2.432 . S
Eu95 O138 2.291 . S
Eu95 C159 2.787 . S
N96 C92 1.351 . S
N96 Eu95 2.562 . S
N96 C98 1.325 . S
C97 C91 1.404 . S
C97 C99 1.366 . S
C97 H105 0.930 . S
C98 N96 1.325 . S
C98 C99 1.416 . S
C98 H104 0.929 . S
C99 C97 1.366 . S
C99 C98 1.416 . S
C99 H101 0.930 . S
H100 C89 0.930 . S
H101 C99 0.930 . S
H102 C117 0.930 . S
H103 C124 0.930 . S
H104 C98 0.929 . S
H105 C97 0.930 . S
H106 C120 0.929 . S
H107 C87 0.931 . S
H108 C93 0.931 . S
H109 C94 0.931 . S
H110 C115 0.931 . S
H111 C90 0.929 . S
H112 C123 0.930 . S
N113 Eu84 2.600 . S
N113 C114 1.365 . S
N113 C117 1.319 . S
C114 N113 1.365 . S
C114 C116 1.405 . S
C114 C122 1.448 . S
C115 H110 0.931 . S
C115 C117 1.397 . S
C115 C118 1.367 . S
C116 C114 1.405 . S
C116 C118 1.403 . S
C116 C149 1.439 . S
C117 H102 0.930 . S
C117 N113 1.319 . S
C117 C115 1.397 . S
C118 C115 1.367 . S
C118 C116 1.403 . S
C118 H125 0.929 . S
N119 Eu84 2.562 . S
N119 C120 1.325 . S
N119 C122 1.351 . S
C120 H106 0.929 . S
C120 N119 1.325 . S
C120 C124 1.416 . S
C121 C122 1.430 . S
C121 C123 1.404 . S
C121 C150 1.387 . S
C122 C114 1.448 . S
C122 N119 1.351 . S
C122 C121 1.430 . S
C123 H112 0.930 . S
C123 C121 1.404 . S
C123 C124 1.366 . S
C124 H103 0.930 . S
C124 C120 1.416 . S
C124 C123 1.366 . S
H125 C118 0.929 . S
H126 C149 0.931 . S
H127 C150 0.931 . S
O128 Eu84 2.462 . S
O128 C148 1.252 . S
O129 Eu84 2.373 . S
O129 C140 1.249 . S
O130 Eu95 2.335 . S
O130 C140 1.264 . S
O131 Eu84 2.432 . S
O131 C148 1.268 . S
O132 Eu84 2.291 . S
O132 C147 1.255 . S
O133 Eu95 2.372 . S
O133 C147 1.257 . S
O134 Eu95 2.462 . S
O134 C159 1.252 . S
O135 Eu95 2.373 . S
O135 C151 1.249 . S
O136 Eu84 2.335 . S
O136 C151 1.264 . S
O137 Eu95 2.432 . S
O137 C159 1.268 . S
O138 Eu95 2.291 . S
O138 C158 1.255 . S
O139 Eu84 2.372 . S
O139 C158 1.257 . S
C140 O129 1.249 . S
C140 O130 1.264 . S
C141 C144 1.382 . S
C141 C146 1.390 . S
C141 C148 1.506 . S
C142 C143 1.398 . S
C142 C146 1.392 . S
C143 C142 1.398 . S
C143 C145 1.372 . S
C143 H160 0.931 . S
C144 C141 1.382 . S
C144 C145 1.390 . S
C144 H161 0.931 . S
C145 C143 1.372 . S
C145 C144 1.390 . S
C145 H162 0.929 . S
C146 C141 1.390 . S
C146 C142 1.392 . S
C146 H163 0.930 . S
C147 O132 1.255 . S
C147 O133 1.257 . S
C148 Eu84 2.787 . S
C148 O128 1.252 . S
C148 O131 1.268 . S
C148 C141 1.506 . S
C149 C116 1.439 . S
C149 H126 0.931 . S
C149 C150 1.374 . S
C150 C121 1.387 . S
C150 H127 0.931 . S
C150 C149 1.374 . S
C151 O135 1.249 . S
C151 O136 1.264 . S
C152 C155 1.382 . S
C152 C156 1.390 . S
C152 C159 1.506 . S
C153 C154 1.398 . S
C153 C156 1.392 . S
C154 C153 1.398 . S
C154 C157 1.372 . S
C154 H164 0.931 . S
C155 C152 1.382 . S
C155 C157 1.390 . S
C155 H165 0.931 . S
C156 C152 1.390 . S
C156 C153 1.392 . S
C156 H166 0.930 . S
C157 C154 1.372 . S
C157 C155 1.390 . S
C157 H167 0.929 . S
C158 O138 1.255 . S
C158 O139 1.257 . S
C159 Eu95 2.787 . S
C159 O134 1.252 . S
C159 O137 1.268 . S
C159 C152 1.506 . S
H160 C143 0.931 . S
H161 C144 0.931 . S
H162 C145 0.929 . S
H163 C146 0.930 . S
H164 C154 0.931 . S
H165 C155 0.931 . S
H166 C156 0.930 . S
H167 C157 0.929 . S
Eu168 N197 2.600 . S
Eu168 N203 2.562 . S
Eu168 O212 2.462 . S
Eu168 O213 2.373 . S
Eu168 O215 2.432 . S
Eu168 O216 2.291 . S
Eu168 O220 2.335 . S
Eu168 O223 2.372 . S
Eu168 C232 2.787 . S
C169 N170 1.365 . S
C169 C172 1.405 . S
C169 C176 1.448 . S
N170 C169 1.365 . S
N170 C173 1.319 . S
N170 Eu179 2.600 . S
C171 C173 1.397 . S
C171 C174 1.367 . S
C171 H191 0.931 . S
C172 C169 1.405 . S
C172 C174 1.403 . S
C172 C178 1.439 . S
C173 N170 1.319 . S
C173 C171 1.397 . S
C173 H184 0.930 . S
C174 C171 1.367 . S
C174 C172 1.403 . S
C174 H195 0.929 . S
C175 C176 1.430 . S
C175 C177 1.387 . S
C175 C181 1.404 . S
C176 C169 1.448 . S
C176 C175 1.430 . S
C176 N180 1.351 . S
C177 C175 1.387 . S
C177 C178 1.374 . S
C177 H192 0.931 . S
C178 C172 1.439 . S
C178 C177 1.374 . S
C178 H193 0.931 . S
Eu179 N170 2.600 . S
Eu179 N180 2.562 . S
Eu179 O214 2.335 . S
Eu179 O217 2.372 . S
Eu179 O218 2.462 . S
Eu179 O219 2.373 . S
Eu179 O221 2.432 . S
Eu179 O222 2.291 . S
Eu179 C243 2.787 . S
N180 C176 1.351 . S
N180 Eu179 2.562 . S
N180 C182 1.325 . S
C181 C175 1.404 . S
C181 C183 1.366 . S
C181 H189 0.930 . S
C182 N180 1.325 . S
C182 C183 1.416 . S
C182 H188 0.929 . S
C183 C181 1.366 . S
C183 C182 1.416 . S
C183 H185 0.930 . S
H184 C173 0.930 . S
H185 C183 0.930 . S
H186 C201 0.930 . S
H187 C208 0.930 . S
H188 C182 0.929 . S
H189 C181 0.930 . S
H190 C204 0.929 . S
H191 C171 0.931 . S
H192 C177 0.931 . S
H193 C178 0.931 . S
H194 C199 0.931 . S
H195 C174 0.929 . S
H196 C207 0.930 . S
N197 Eu168 2.600 . S
N197 C198 1.365 . S
N197 C201 1.319 . S
C198 N197 1.365 . S
C198 C200 1.405 . S
C198 C206 1.448 . S
C199 H194 0.931 . S
C199 C201 1.397 . S
C199 C202 1.367 . S
C200 C198 1.405 . S
C200 C202 1.403 . S
C200 C233 1.439 . S
C201 H186 0.930 . S
C201 N197 1.319 . S
C201 C199 1.397 . S
C202 C199 1.367 . S
C202 C200 1.403 . S
C202 H209 0.929 . S
N203 Eu168 2.562 . S
N203 C204 1.325 . S
N203 C206 1.351 . S
C204 H190 0.929 . S
C204 N203 1.325 . S
C204 C208 1.416 . S
C205 C206 1.430 . S
C205 C207 1.404 . S
C205 C234 1.387 . S
C206 C198 1.448 . S
C206 N203 1.351 . S
C206 C205 1.430 . S
C207 H196 0.930 . S
C207 C205 1.404 . S
C207 C208 1.366 . S
C208 H187 0.930 . S
C208 C204 1.416 . S
C208 C207 1.366 . S
H209 C202 0.929 . S
H210 C233 0.931 . S
H211 C234 0.931 . S
O212 Eu168 2.462 . S
O212 C232 1.252 . S
O213 Eu168 2.373 . S
O213 C224 1.249 . S
O214 Eu179 2.335 . S
O214 C224 1.264 . S
O215 Eu168 2.432 . S
O215 C232 1.268 . S
O216 Eu168 2.291 . S
O216 C231 1.255 . S
O217 Eu179 2.372 . S
O217 C231 1.257 . S
O218 Eu179 2.462 . S
O218 C243 1.252 . S
O219 Eu179 2.373 . S
O219 C235 1.249 . S
O220 Eu168 2.335 . S
O220 C235 1.264 . S
O221 Eu179 2.432 . S
O221 C243 1.268 . S
O222 Eu179 2.291 . S
O222 C242 1.255 . S
O223 Eu168 2.372 . S
O223 C242 1.257 . S
C224 O213 1.249 . S
C224 O214 1.264 . S
C225 C228 1.382 . S
C225 C230 1.390 . S
C225 C232 1.506 . S
C226 C227 1.398 . S
C226 C230 1.392 . S
C227 C226 1.398 . S
C227 C229 1.372 . S
C227 H244 0.931 . S
C228 C225 1.382 . S
C228 C229 1.390 . S
C228 H245 0.931 . S
C229 C227 1.372 . S
C229 C228 1.390 . S
C229 H246 0.929 . S
C230 C225 1.390 . S
C230 C226 1.392 . S
C230 H247 0.930 . S
C231 O216 1.255 . S
C231 O217 1.257 . S
C232 Eu168 2.787 . S
C232 O212 1.252 . S
C232 O215 1.268 . S
C232 C225 1.506 . S
C233 C200 1.439 . S
C233 H210 0.931 . S
C233 C234 1.374 . S
C234 C205 1.387 . S
C234 H211 0.931 . S
C234 C233 1.374 . S
C235 O219 1.249 . S
C235 O220 1.264 . S
C236 C239 1.382 . S
C236 C240 1.390 . S
C236 C243 1.506 . S
C237 C238 1.398 . S
C237 C240 1.392 . S
C238 C237 1.398 . S
C238 C241 1.372 . S
C238 H248 0.931 . S
C239 C236 1.382 . S
C239 C241 1.390 . S
C239 H249 0.931 . S
C240 C236 1.390 . S
C240 C237 1.392 . S
C240 H250 0.930 . S
C241 C238 1.372 . S
C241 C239 1.390 . S
C241 H251 0.929 . S
C242 O222 1.255 . S
C242 O223 1.257 . S
C243 Eu179 2.787 . S
C243 O218 1.252 . S
C243 O221 1.268 . S
C243 C236 1.506 . S
H244 C227 0.931 . S
H245 C228 0.931 . S
H246 C229 0.929 . S
H247 C230 0.930 . S
H248 C238 0.931 . S
H249 C239 0.931 . S
H250 C240 0.930 . S
H251 C241 0.929 . S
Eu252 N281 2.600 . S
Eu252 N287 2.562 . S
Eu252 O296 2.462 . S
Eu252 O297 2.373 . S
Eu252 O299 2.432 . S
Eu252 O300 2.291 . S
Eu252 O304 2.335 . S
Eu252 O307 2.372 . S
Eu252 C316 2.787 . S
C253 N254 1.365 . S
C253 C256 1.405 . S
C253 C260 1.448 . S
N254 C253 1.365 . S
N254 C257 1.319 . S
N254 Eu263 2.600 . S
C255 C257 1.397 . S
C255 C258 1.367 . S
C255 H275 0.931 . S
C256 C253 1.405 . S
C256 C258 1.403 . S
C256 C262 1.439 . S
C257 N254 1.319 . S
C257 C255 1.397 . S
C257 H268 0.930 . S
C258 C255 1.367 . S
C258 C256 1.403 . S
C258 H279 0.929 . S
C259 C260 1.430 . S
C259 C261 1.387 . S
C259 C265 1.404 . S
C260 C253 1.448 . S
C260 C259 1.430 . S
C260 N264 1.351 . S
C261 C259 1.387 . S
C261 C262 1.374 . S
C261 H276 0.931 . S
C262 C256 1.439 . S
C262 C261 1.374 . S
C262 H277 0.931 . S
Eu263 N254 2.600 . S
Eu263 N264 2.562 . S
Eu263 O298 2.335 . S
Eu263 O301 2.372 . S
Eu263 O302 2.462 . S
Eu263 O303 2.373 . S
Eu263 O305 2.432 . S
Eu263 O306 2.291 . S
Eu263 C327 2.787 . S
N264 C260 1.351 . S
N264 Eu263 2.562 . S
N264 C266 1.325 . S
C265 C259 1.404 . S
C265 C267 1.366 . S
C265 H273 0.930 . S
C266 N264 1.325 . S
C266 C267 1.416 . S
C266 H272 0.929 . S
C267 C265 1.366 . S
C267 C266 1.416 . S
C267 H269 0.930 . S
H268 C257 0.930 . S
H269 C267 0.930 . S
H270 C285 0.930 . S
H271 C292 0.930 . S
H272 C266 0.929 . S
H273 C265 0.930 . S
H274 C288 0.929 . S
H275 C255 0.931 . S
H276 C261 0.931 . S
H277 C262 0.931 . S
H278 C283 0.931 . S
H279 C258 0.929 . S
H280 C291 0.930 . S
N281 Eu252 2.600 . S
N281 C282 1.365 . S
N281 C285 1.319 . S
C282 N281 1.365 . S
C282 C284 1.405 . S
C282 C290 1.448 . S
C283 H278 0.931 . S
C283 C285 1.397 . S
C283 C286 1.367 . S
C284 C282 1.405 . S
C284 C286 1.403 . S
C284 C317 1.439 . S
C285 H270 0.930 . S
C285 N281 1.319 . S
C285 C283 1.397 . S
C286 C283 1.367 . S
C286 C284 1.403 . S
C286 H293 0.929 . S
N287 Eu252 2.562 . S
N287 C288 1.325 . S
N287 C290 1.351 . S
C288 H274 0.929 . S
C288 N287 1.325 . S
C288 C292 1.416 . S
C289 C290 1.430 . S
C289 C291 1.404 . S
C289 C318 1.387 . S
C290 C282 1.448 . S
C290 N287 1.351 . S
C290 C289 1.430 . S
C291 H280 0.930 . S
C291 C289 1.404 . S
C291 C292 1.366 . S
C292 H271 0.930 . S
C292 C288 1.416 . S
C292 C291 1.366 . S
H293 C286 0.929 . S
H294 C317 0.931 . S
H295 C318 0.931 . S
O296 Eu252 2.462 . S
O296 C316 1.252 . S
O297 Eu252 2.373 . S
O297 C308 1.249 . S
O298 Eu263 2.335 . S
O298 C308 1.264 . S
O299 Eu252 2.432 . S
O299 C316 1.268 . S
O300 Eu252 2.291 . S
O300 C315 1.255 . S
O301 Eu263 2.372 . S
O301 C315 1.257 . S
O302 Eu263 2.462 . S
O302 C327 1.252 . S
O303 Eu263 2.373 . S
O303 C319 1.249 . S
O304 Eu252 2.335 . S
O304 C319 1.264 . S
O305 Eu263 2.432 . S
O305 C327 1.268 . S
O306 Eu263 2.291 . S
O306 C326 1.255 . S
O307 Eu252 2.372 . S
O307 C326 1.257 . S
C308 O297 1.249 . S
C308 O298 1.264 . S
C309 C312 1.382 . S
C309 C314 1.390 . S
C309 C316 1.506 . S
C310 C311 1.398 . S
C310 C314 1.392 . S
C311 C310 1.398 . S
C311 C313 1.372 . S
C311 H328 0.931 . S
C312 C309 1.382 . S
C312 C313 1.390 . S
C312 H329 0.931 . S
C313 C311 1.372 . S
C313 C312 1.390 . S
C313 H330 0.929 . S
C314 C309 1.390 . S
C314 C310 1.392 . S
C314 H331 0.930 . S
C315 O300 1.255 . S
C315 O301 1.257 . S
C316 Eu252 2.787 . S
C316 O296 1.252 . S
C316 O299 1.268 . S
C316 C309 1.506 . S
C317 C284 1.439 . S
C317 H294 0.931 . S
C317 C318 1.374 . S
C318 C289 1.387 . S
C318 H295 0.931 . S
C318 C317 1.374 . S
C319 O303 1.249 . S
C319 O304 1.264 . S
C320 C323 1.382 . S
C320 C324 1.390 . S
C320 C327 1.506 . S
C321 C322 1.398 . S
C321 C324 1.392 . S
C322 C321 1.398 . S
C322 C325 1.372 . S
C322 H332 0.931 . S
C323 C320 1.382 . S
C323 C325 1.390 . S
C323 H333 0.931 . S
C324 C320 1.390 . S
C324 C321 1.392 . S
C324 H334 0.930 . S
C325 C322 1.372 . S
C325 C323 1.390 . S
C325 H335 0.929 . S
C326 O306 1.255 . S
C326 O307 1.257 . S
C327 Eu263 2.787 . S
C327 O302 1.252 . S
C327 O305 1.268 . S
C327 C320 1.506 . S
H328 C311 0.931 . S
H329 C312 0.931 . S
H330 C313 0.929 . S
H331 C314 0.930 . S
H332 C322 0.931 . S
H333 C323 0.931 . S
H334 C324 0.930 . S
H335 C325 0.929 . S
Eu336 N365 2.600 . S
Eu336 N371 2.562 . S
Eu336 O380 2.462 . S
Eu336 O381 2.373 . S
Eu336 O383 2.432 . S
Eu336 O384 2.291 . S
Eu336 O388 2.335 . S
Eu336 O391 2.372 . S
Eu336 C400 2.787 . S
C337 N338 1.365 . S
C337 C340 1.405 . S
C337 C344 1.448 . S
N338 C337 1.365 . S
N338 C341 1.319 . S
N338 Eu347 2.600 . S
C339 C341 1.397 . S
C339 C342 1.367 . S
C339 H359 0.931 . S
C340 C337 1.405 . S
C340 C342 1.403 . S
C340 C346 1.439 . S
C341 N338 1.319 . S
C341 C339 1.397 . S
C341 H352 0.930 . S
C342 C339 1.367 . S
C342 C340 1.403 . S
C342 H363 0.929 . S
C343 C344 1.430 . S
C343 C345 1.387 . S
C343 C349 1.404 . S
C344 C337 1.448 . S
C344 C343 1.430 . S
C344 N348 1.351 . S
C345 C343 1.387 . S
C345 C346 1.374 . S
C345 H360 0.931 . S
C346 C340 1.439 . S
C346 C345 1.374 . S
C346 H361 0.931 . S
Eu347 N338 2.600 . S
Eu347 N348 2.562 . S
Eu347 O382 2.335 . S
Eu347 O385 2.372 . S
Eu347 O386 2.462 . S
Eu347 O387 2.373 . S
Eu347 O389 2.432 . S
Eu347 O390 2.291 . S
Eu347 C411 2.787 . S
N348 C344 1.351 . S
N348 Eu347 2.562 . S
N348 C350 1.325 . S
C349 C343 1.404 . S
C349 C351 1.366 . S
C349 H357 0.930 . S
C350 N348 1.325 . S
C350 C351 1.416 . S
C350 H356 0.929 . S
C351 C349 1.366 . S
C351 C350 1.416 . S
C351 H353 0.930 . S
H352 C341 0.930 . S
H353 C351 0.930 . S
H354 C369 0.930 . S
H355 C376 0.930 . S
H356 C350 0.929 . S
H357 C349 0.930 . S
H358 C372 0.929 . S
H359 C339 0.931 . S
H360 C345 0.931 . S
H361 C346 0.931 . S
H362 C367 0.931 . S
H363 C342 0.929 . S
H364 C375 0.930 . S
N365 Eu336 2.600 . S
N365 C366 1.365 . S
N365 C369 1.319 . S
C366 N365 1.365 . S
C366 C368 1.405 . S
C366 C374 1.448 . S
C367 H362 0.931 . S
C367 C369 1.397 . S
C367 C370 1.367 . S
C368 C366 1.405 . S
C368 C370 1.403 . S
C368 C401 1.439 . S
C369 H354 0.930 . S
C369 N365 1.319 . S
C369 C367 1.397 . S
C370 C367 1.367 . S
C370 C368 1.403 . S
C370 H377 0.929 . S
N371 Eu336 2.562 . S
N371 C372 1.325 . S
N371 C374 1.351 . S
C372 H358 0.929 . S
C372 N371 1.325 . S
C372 C376 1.416 . S
C373 C374 1.430 . S
C373 C375 1.404 . S
C373 C402 1.387 . S
C374 C366 1.448 . S
C374 N371 1.351 . S
C374 C373 1.430 . S
C375 H364 0.930 . S
C375 C373 1.404 . S
C375 C376 1.366 . S
C376 H355 0.930 . S
C376 C372 1.416 . S
C376 C375 1.366 . S
H377 C370 0.929 . S
H378 C401 0.931 . S
H379 C402 0.931 . S
O380 Eu336 2.462 . S
O380 C400 1.252 . S
O381 Eu336 2.373 . S
O381 C392 1.249 . S
O382 Eu347 2.335 . S
O382 C392 1.264 . S
O383 Eu336 2.432 . S
O383 C400 1.268 . S
O384 Eu336 2.291 . S
O384 C399 1.255 . S
O385 Eu347 2.372 . S
O385 C399 1.257 . S
O386 Eu347 2.462 . S
O386 C411 1.252 . S
O387 Eu347 2.373 . S
O387 C403 1.249 . S
O388 Eu336 2.335 . S
O388 C403 1.264 . S
O389 Eu347 2.432 . S
O389 C411 1.268 . S
O390 Eu347 2.291 . S
O390 C410 1.255 . S
O391 Eu336 2.372 . S
O391 C410 1.257 . S
C392 O381 1.249 . S
C392 O382 1.264 . S
C393 C396 1.382 . S
C393 C398 1.390 . S
C393 C400 1.506 . S
C394 C395 1.398 . S
C394 C398 1.392 . S
C395 C394 1.398 . S
C395 C397 1.372 . S
C395 H412 0.931 . S
C396 C393 1.382 . S
C396 C397 1.390 . S
C396 H413 0.931 . S
C397 C395 1.372 . S
C397 C396 1.390 . S
C397 H414 0.929 . S
C398 C393 1.390 . S
C398 C394 1.392 . S
C398 H415 0.930 . S
C399 O384 1.255 . S
C399 O385 1.257 . S
C400 Eu336 2.787 . S
C400 O380 1.252 . S
C400 O383 1.268 . S
C400 C393 1.506 . S
C401 C368 1.439 . S
C401 H378 0.931 . S
C401 C402 1.374 . S
C402 C373 1.387 . S
C402 H379 0.931 . S
C402 C401 1.374 . S
C403 O387 1.249 . S
C403 O388 1.264 . S
C404 C407 1.382 . S
C404 C408 1.390 . S
C404 C411 1.506 . S
C405 C406 1.398 . S
C405 C408 1.392 . S
C406 C405 1.398 . S
C406 C409 1.372 . S
C406 H416 0.931 . S
C407 C404 1.382 . S
C407 C409 1.390 . S
C407 H417 0.931 . S
C408 C404 1.390 . S
C408 C405 1.392 . S
C408 H418 0.930 . S
C409 C406 1.372 . S
C409 C407 1.390 . S
C409 H419 0.929 . S
C410 O390 1.255 . S
C410 O391 1.257 . S
C411 Eu347 2.787 . S
C411 O386 1.252 . S
C411 O389 1.268 . S
C411 C404 1.506 . S
H412 C395 0.931 . S
H413 C396 0.931 . S
H414 C397 0.929 . S
H415 C398 0.930 . S
H416 C406 0.931 . S
H417 C407 0.931 . S
H418 C408 0.930 . S
H419 C409 0.929 . S
Eu420 N449 2.600 . S
Eu420 N455 2.562 . S
Eu420 O464 2.462 . S
Eu420 O465 2.373 . S
Eu420 O467 2.432 . S
Eu420 O468 2.291 . S
Eu420 O472 2.335 . S
Eu420 O475 2.372 . S
Eu420 C484 2.787 . S
C421 N422 1.365 . S
C421 C424 1.405 . S
C421 C428 1.448 . S
N422 C421 1.365 . S
N422 C425 1.319 . S
N422 Eu431 2.600 . S
C423 C425 1.397 . S
C423 C426 1.367 . S
C423 H443 0.931 . S
C424 C421 1.405 . S
C424 C426 1.403 . S
C424 C430 1.439 . S
C425 N422 1.319 . S
C425 C423 1.397 . S
C425 H436 0.930 . S
C426 C423 1.367 . S
C426 C424 1.403 . S
C426 H447 0.929 . S
C427 C428 1.430 . S
C427 C429 1.387 . S
C427 C433 1.404 . S
C428 C421 1.448 . S
C428 C427 1.430 . S
C428 N432 1.351 . S
C429 C427 1.387 . S
C429 C430 1.374 . S
C429 H444 0.931 . S
C430 C424 1.439 . S
C430 C429 1.374 . S
C430 H445 0.931 . S
Eu431 N422 2.600 . S
Eu431 N432 2.562 . S
Eu431 O466 2.335 . S
Eu431 O469 2.372 . S
Eu431 O470 2.462 . S
Eu431 O471 2.373 . S
Eu431 O473 2.432 . S
Eu431 O474 2.291 . S
Eu431 C495 2.787 . S
N432 C428 1.351 . S
N432 Eu431 2.562 . S
N432 C434 1.325 . S
C433 C427 1.404 . S
C433 C435 1.366 . S
C433 H441 0.930 . S
C434 N432 1.325 . S
C434 C435 1.416 . S
C434 H440 0.929 . S
C435 C433 1.366 . S
C435 C434 1.416 . S
C435 H437 0.930 . S
H436 C425 0.930 . S
H437 C435 0.930 . S
H438 C453 0.930 . S
H439 C460 0.930 . S
H440 C434 0.929 . S
H441 C433 0.930 . S
H442 C456 0.929 . S
H443 C423 0.931 . S
H444 C429 0.931 . S
H445 C430 0.931 . S
H446 C451 0.931 . S
H447 C426 0.929 . S
H448 C459 0.930 . S
N449 Eu420 2.600 . S
N449 C450 1.365 . S
N449 C453 1.319 . S
C450 N449 1.365 . S
C450 C452 1.405 . S
C450 C458 1.448 . S
C451 H446 0.931 . S
C451 C453 1.397 . S
C451 C454 1.367 . S
C452 C450 1.405 . S
C452 C454 1.403 . S
C452 C485 1.439 . S
C453 H438 0.930 . S
C453 N449 1.319 . S
C453 C451 1.397 . S
C454 C451 1.367 . S
C454 C452 1.403 . S
C454 H461 0.929 . S
N455 Eu420 2.562 . S
N455 C456 1.325 . S
N455 C458 1.351 . S
C456 H442 0.929 . S
C456 N455 1.325 . S
C456 C460 1.416 . S
C457 C458 1.430 . S
C457 C459 1.404 . S
C457 C486 1.387 . S
C458 C450 1.448 . S
C458 N455 1.351 . S
C458 C457 1.430 . S
C459 H448 0.930 . S
C459 C457 1.404 . S
C459 C460 1.366 . S
C460 H439 0.930 . S
C460 C456 1.416 . S
C460 C459 1.366 . S
H461 C454 0.929 . S
H462 C485 0.931 . S
H463 C486 0.931 . S
O464 Eu420 2.462 . S
O464 C484 1.252 . S
O465 Eu420 2.373 . S
O465 C476 1.249 . S
O466 Eu431 2.335 . S
O466 C476 1.264 . S
O467 Eu420 2.432 . S
O467 C484 1.268 . S
O468 Eu420 2.291 . S
O468 C483 1.255 . S
O469 Eu431 2.372 . S
O469 C483 1.257 . S
O470 Eu431 2.462 . S
O470 C495 1.252 . S
O471 Eu431 2.373 . S
O471 C487 1.249 . S
O472 Eu420 2.335 . S
O472 C487 1.264 . S
O473 Eu431 2.432 . S
O473 C495 1.268 . S
O474 Eu431 2.291 . S
O474 C494 1.255 . S
O475 Eu420 2.372 . S
O475 C494 1.257 . S
C476 O465 1.249 . S
C476 O466 1.264 . S
C477 C480 1.382 . S
C477 C482 1.390 . S
C477 C484 1.506 . S
C478 C479 1.398 . S
C478 C482 1.392 . S
C479 C478 1.398 . S
C479 C481 1.372 . S
C479 H496 0.931 . S
C480 C477 1.382 . S
C480 C481 1.390 . S
C480 H497 0.931 . S
C481 C479 1.372 . S
C481 C480 1.390 . S
C481 H498 0.929 . S
C482 C477 1.390 . S
C482 C478 1.392 . S
C482 H499 0.930 . S
C483 O468 1.255 . S
C483 O469 1.257 . S
C484 Eu420 2.787 . S
C484 O464 1.252 . S
C484 O467 1.268 . S
C484 C477 1.506 . S
C485 C452 1.439 . S
C485 H462 0.931 . S
C485 C486 1.374 . S
C486 C457 1.387 . S
C486 H463 0.931 . S
C486 C485 1.374 . S
C487 O471 1.249 . S
C487 O472 1.264 . S
C488 C491 1.382 . S
C488 C492 1.390 . S
C488 C495 1.506 . S
C489 C490 1.398 . S
C489 C492 1.392 . S
C490 C489 1.398 . S
C490 C493 1.372 . S
C490 H500 0.931 . S
C491 C488 1.382 . S
C491 C493 1.390 . S
C491 H501 0.931 . S
C492 C488 1.390 . S
C492 C489 1.392 . S
C492 H502 0.930 . S
C493 C490 1.372 . S
C493 C491 1.390 . S
C493 H503 0.929 . S
C494 O474 1.255 . S
C494 O475 1.257 . S
C495 Eu431 2.787 . S
C495 O470 1.252 . S
C495 O473 1.268 . S
C495 C488 1.506 . S
H496 C479 0.931 . S
H497 C480 0.931 . S
H498 C481 0.929 . S
H499 C482 0.930 . S
H500 C490 0.931 . S
H501 C491 0.931 . S
H502 C492 0.930 . S
H503 C493 0.929 . S
Eu504 N533 2.600 . S
Eu504 N539 2.562 . S
Eu504 O548 2.462 . S
Eu504 O549 2.373 . S
Eu504 O551 2.432 . S
Eu504 O552 2.291 . S
Eu504 O556 2.335 . S
Eu504 O559 2.372 . S
Eu504 C568 2.787 . S
C505 N506 1.365 . S
C505 C508 1.405 . S
C505 C512 1.448 . S
N506 C505 1.365 . S
N506 C509 1.319 . S
N506 Eu515 2.600 . S
C507 C509 1.397 . S
C507 C510 1.367 . S
C507 H527 0.931 . S
C508 C505 1.405 . S
C508 C510 1.403 . S
C508 C514 1.439 . S
C509 N506 1.319 . S
C509 C507 1.397 . S
C509 H520 0.930 . S
C510 C507 1.367 . S
C510 C508 1.403 . S
C510 H531 0.929 . S
C511 C512 1.430 . S
C511 C513 1.387 . S
C511 C517 1.404 . S
C512 C505 1.448 . S
C512 C511 1.430 . S
C512 N516 1.351 . S
C513 C511 1.387 . S
C513 C514 1.374 . S
C513 H528 0.931 . S
C514 C508 1.439 . S
C514 C513 1.374 . S
C514 H529 0.931 . S
Eu515 N506 2.600 . S
Eu515 N516 2.562 . S
Eu515 O550 2.335 . S
Eu515 O553 2.372 . S
Eu515 O554 2.462 . S
Eu515 O555 2.373 . S
Eu515 O557 2.432 . S
Eu515 O558 2.291 . S
Eu515 C579 2.787 . S
N516 C512 1.351 . S
N516 Eu515 2.562 . S
N516 C518 1.325 . S
C517 C511 1.404 . S
C517 C519 1.366 . S
C517 H525 0.930 . S
C518 N516 1.325 . S
C518 C519 1.416 . S
C518 H524 0.929 . S
C519 C517 1.366 . S
C519 C518 1.416 . S
C519 H521 0.930 . S
H520 C509 0.930 . S
H521 C519 0.930 . S
H522 C537 0.930 . S
H523 C544 0.930 . S
H524 C518 0.929 . S
H525 C517 0.930 . S
H526 C540 0.929 . S
H527 C507 0.931 . S
H528 C513 0.931 . S
H529 C514 0.931 . S
H530 C535 0.931 . S
H531 C510 0.929 . S
H532 C543 0.930 . S
N533 Eu504 2.600 . S
N533 C534 1.365 . S
N533 C537 1.319 . S
C534 N533 1.365 . S
C534 C536 1.405 . S
C534 C542 1.448 . S
C535 H530 0.931 . S
C535 C537 1.397 . S
C535 C538 1.367 . S
C536 C534 1.405 . S
C536 C538 1.403 . S
C536 C569 1.439 . S
C537 H522 0.930 . S
C537 N533 1.319 . S
C537 C535 1.397 . S
C538 C535 1.367 . S
C538 C536 1.403 . S
C538 H545 0.929 . S
N539 Eu504 2.562 . S
N539 C540 1.325 . S
N539 C542 1.351 . S
C540 H526 0.929 . S
C540 N539 1.325 . S
C540 C544 1.416 . S
C541 C542 1.430 . S
C541 C543 1.404 . S
C541 C570 1.387 . S
C542 C534 1.448 . S
C542 N539 1.351 . S
C542 C541 1.430 . S
C543 H532 0.930 . S
C543 C541 1.404 . S
C543 C544 1.366 . S
C544 H523 0.930 . S
C544 C540 1.416 . S
C544 C543 1.366 . S
H545 C538 0.929 . S
H546 C569 0.931 . S
H547 C570 0.931 . S
O548 Eu504 2.462 . S
O548 C568 1.252 . S
O549 Eu504 2.373 . S
O549 C560 1.249 . S
O550 Eu515 2.335 . S
O550 C560 1.264 . S
O551 Eu504 2.432 . S
O551 C568 1.268 . S
O552 Eu504 2.291 . S
O552 C567 1.255 . S
O553 Eu515 2.372 . S
O553 C567 1.257 . S
O554 Eu515 2.462 . S
O554 C579 1.252 . S
O555 Eu515 2.373 . S
O555 C571 1.249 . S
O556 Eu504 2.335 . S
O556 C571 1.264 . S
O557 Eu515 2.432 . S
O557 C579 1.268 . S
O558 Eu515 2.291 . S
O558 C578 1.255 . S
O559 Eu504 2.372 . S
O559 C578 1.257 . S
C560 O549 1.249 . S
C560 O550 1.264 . S
C561 C564 1.382 . S
C561 C566 1.390 . S
C561 C568 1.506 . S
C562 C563 1.398 . S
C562 C566 1.392 . S
C563 C562 1.398 . S
C563 C565 1.372 . S
C563 H580 0.931 . S
C564 C561 1.382 . S
C564 C565 1.390 . S
C564 H581 0.931 . S
C565 C563 1.372 . S
C565 C564 1.390 . S
C565 H582 0.929 . S
C566 C561 1.390 . S
C566 C562 1.392 . S
C566 H583 0.930 . S
C567 O552 1.255 . S
C567 O553 1.257 . S
C568 Eu504 2.787 . S
C568 O548 1.252 . S
C568 O551 1.268 . S
C568 C561 1.506 . S
C569 C536 1.439 . S
C569 H546 0.931 . S
C569 C570 1.374 . S
C570 C541 1.387 . S
C570 H547 0.931 . S
C570 C569 1.374 . S
C571 O555 1.249 . S
C571 O556 1.264 . S
C572 C575 1.382 . S
C572 C576 1.390 . S
C572 C579 1.506 . S
C573 C574 1.398 . S
C573 C576 1.392 . S
C574 C573 1.398 . S
C574 C577 1.372 . S
C574 H584 0.931 . S
C575 C572 1.382 . S
C575 C577 1.390 . S
C575 H585 0.931 . S
C576 C572 1.390 . S
C576 C573 1.392 . S
C576 H586 0.930 . S
C577 C574 1.372 . S
C577 C575 1.390 . S
C577 H587 0.929 . S
C578 O558 1.255 . S
C578 O559 1.257 . S
C579 Eu515 2.787 . S
C579 O554 1.252 . S
C579 O557 1.268 . S
C579 C572 1.506 . S
H580 C563 0.931 . S
H581 C564 0.931 . S
H582 C565 0.929 . S
H583 C566 0.930 . S
H584 C574 0.931 . S
H585 C575 0.931 . S
H586 C576 0.930 . S
H587 C577 0.929 . S
Eu588 N617 2.600 . S
Eu588 N623 2.562 . S
Eu588 O632 2.462 . S
Eu588 O633 2.373 . S
Eu588 O635 2.432 . S
Eu588 O636 2.291 . S
Eu588 O640 2.335 . S
Eu588 O643 2.372 . S
Eu588 C652 2.787 . S
C589 N590 1.365 . S
C589 C592 1.405 . S
C589 C596 1.448 . S
N590 C589 1.365 . S
N590 C593 1.319 . S
N590 Eu599 2.600 . S
C591 C593 1.397 . S
C591 C594 1.367 . S
C591 H611 0.931 . S
C592 C589 1.405 . S
C592 C594 1.403 . S
C592 C598 1.439 . S
C593 N590 1.319 . S
C593 C591 1.397 . S
C593 H604 0.930 . S
C594 C591 1.367 . S
C594 C592 1.403 . S
C594 H615 0.929 . S
C595 C596 1.430 . S
C595 C597 1.387 . S
C595 C601 1.404 . S
C596 C589 1.448 . S
C596 C595 1.430 . S
C596 N600 1.351 . S
C597 C595 1.387 . S
C597 C598 1.374 . S
C597 H612 0.931 . S
C598 C592 1.439 . S
C598 C597 1.374 . S
C598 H613 0.931 . S
Eu599 N590 2.600 . S
Eu599 N600 2.562 . S
Eu599 O634 2.335 . S
Eu599 O637 2.372 . S
Eu599 O638 2.462 . S
Eu599 O639 2.373 . S
Eu599 O641 2.432 . S
Eu599 O642 2.291 . S
Eu599 C663 2.787 . S
N600 C596 1.351 . S
N600 Eu599 2.562 . S
N600 C602 1.325 . S
C601 C595 1.404 . S
C601 C603 1.366 . S
C601 H609 0.930 . S
C602 N600 1.325 . S
C602 C603 1.416 . S
C602 H608 0.929 . S
C603 C601 1.366 . S
C603 C602 1.416 . S
C603 H605 0.930 . S
H604 C593 0.930 . S
H605 C603 0.930 . S
H606 C621 0.930 . S
H607 C628 0.930 . S
H608 C602 0.929 . S
H609 C601 0.930 . S
H610 C624 0.929 . S
H611 C591 0.931 . S
H612 C597 0.931 . S
H613 C598 0.931 . S
H614 C619 0.931 . S
H615 C594 0.929 . S
H616 C627 0.930 . S
N617 Eu588 2.600 . S
N617 C618 1.365 . S
N617 C621 1.319 . S
C618 N617 1.365 . S
C618 C620 1.405 . S
C618 C626 1.448 . S
C619 H614 0.931 . S
C619 C621 1.397 . S
C619 C622 1.367 . S
C620 C618 1.405 . S
C620 C622 1.403 . S
C620 C653 1.439 . S
C621 H606 0.930 . S
C621 N617 1.319 . S
C621 C619 1.397 . S
C622 C619 1.367 . S
C622 C620 1.403 . S
C622 H629 0.929 . S
N623 Eu588 2.562 . S
N623 C624 1.325 . S
N623 C626 1.351 . S
C624 H610 0.929 . S
C624 N623 1.325 . S
C624 C628 1.416 . S
C625 C626 1.430 . S
C625 C627 1.404 . S
C625 C654 1.387 . S
C626 C618 1.448 . S
C626 N623 1.351 . S
C626 C625 1.430 . S
C627 H616 0.930 . S
C627 C625 1.404 . S
C627 C628 1.366 . S
C628 H607 0.930 . S
C628 C624 1.416 . S
C628 C627 1.366 . S
H629 C622 0.929 . S
H630 C653 0.931 . S
H631 C654 0.931 . S
O632 Eu588 2.462 . S
O632 C652 1.252 . S
O633 Eu588 2.373 . S
O633 C644 1.249 . S
O634 Eu599 2.335 . S
O634 C644 1.264 . S
O635 Eu588 2.432 . S
O635 C652 1.268 . S
O636 Eu588 2.291 . S
O636 C651 1.255 . S
O637 Eu599 2.372 . S
O637 C651 1.257 . S
O638 Eu599 2.462 . S
O638 C663 1.252 . S
O639 Eu599 2.373 . S
O639 C655 1.249 . S
O640 Eu588 2.335 . S
O640 C655 1.264 . S
O641 Eu599 2.432 . S
O641 C663 1.268 . S
O642 Eu599 2.291 . S
O642 C662 1.255 . S
O643 Eu588 2.372 . S
O643 C662 1.257 . S
C644 O633 1.249 . S
C644 O634 1.264 . S
C645 C648 1.382 . S
C645 C650 1.390 . S
C645 C652 1.506 . S
C646 C647 1.398 . S
C646 C650 1.392 . S
C647 C646 1.398 . S
C647 C649 1.372 . S
C647 H664 0.931 . S
C648 C645 1.382 . S
C648 C649 1.390 . S
C648 H665 0.931 . S
C649 C647 1.372 . S
C649 C648 1.390 . S
C649 H666 0.929 . S
C650 C645 1.390 . S
C650 C646 1.392 . S
C650 H667 0.930 . S
C651 O636 1.255 . S
C651 O637 1.257 . S
C652 Eu588 2.787 . S
C652 O632 1.252 . S
C652 O635 1.268 . S
C652 C645 1.506 . S
C653 C620 1.439 . S
C653 H630 0.931 . S
C653 C654 1.374 . S
C654 C625 1.387 . S
C654 H631 0.931 . S
C654 C653 1.374 . S
C655 O639 1.249 . S
C655 O640 1.264 . S
C656 C659 1.382 . S
C656 C660 1.390 . S
C656 C663 1.506 . S
C657 C658 1.398 . S
C657 C660 1.392 . S
C658 C657 1.398 . S
C658 C661 1.372 . S
C658 H668 0.931 . S
C659 C656 1.382 . S
C659 C661 1.390 . S
C659 H669 0.931 . S
C660 C656 1.390 . S
C660 C657 1.392 . S
C660 H670 0.930 . S
C661 C658 1.372 . S
C661 C659 1.390 . S
C661 H671 0.929 . S
C662 O642 1.255 . S
C662 O643 1.257 . S
C663 Eu599 2.787 . S
C663 O638 1.252 . S
C663 O641 1.268 . S
C663 C656 1.506 . S
H664 C647 0.931 . S
H665 C648 0.931 . S
H666 C649 0.929 . S
H667 C650 0.930 . S
H668 C658 0.931 . S
H669 C659 0.931 . S
H670 C660 0.930 . S
H671 C661 0.929 . S
C672 O684 1.241 . S
C672 O685 1.280 . S
C673 O686 1.277 . S
C673 O687 1.245 . S
C674 O698 1.247 . S
C674 O700 1.289 . S
Mg675 O676 1.926 . S
Mg675 O685 1.984 . S
Mg675 O687 1.988 . S
Mg675 O688 2.061 1_655 S
O676 Mg675 1.926 . S
O676 Mg677 1.986 1_545 S
O676 Mg678 1.908 1_655 S
Mg677 O676 1.986 1_565 S
Mg677 O684 2.042 1_565 S
Mg677 O686 2.041 1_565 S
Mg677 O692 2.038 . S
Mg677 O700 2.238 . S
Mg678 O676 1.908 1_455 S
Mg678 O679 1.925 1_545 S
Mg678 O689 2.115 . S
Mg678 O691 2.076 1_445 S
Mg678 O700 2.098 1_445 S
Mg678 O701 2.081 . S
O679 Mg678 1.925 1_565 S
O679 Mg680 1.926 . S
O679 Mg681 1.986 1_565 S
Mg680 O679 1.926 . S
Mg680 O694 1.984 . S
Mg680 O697 1.988 . S
Mg680 O698 2.061 1_455 S
Mg681 O679 1.986 1_545 S
Mg681 O689 2.238 . S
Mg681 O693 2.042 1_545 S
Mg681 O695 2.041 1_545 S
Mg681 O702 2.038 . S
C682 O688 1.247 . S
C682 O689 1.289 . S
C683 O701 1.245 . S
C683 O702 1.274 . S
O684 C672 1.241 . S
O684 Mg677 2.042 1_545 S
O685 C672 1.280 . S
O685 Mg675 1.984 . S
O686 C673 1.277 . S
O686 Mg677 2.041 1_545 S
O687 C673 1.245 . S
O687 Mg675 1.988 . S
O688 Mg675 2.061 1_455 S
O688 C682 1.247 . S
O689 Mg678 2.115 . S
O689 Mg681 2.238 . S
O689 C682 1.289 . S
C690 O691 1.245 . S
C690 O692 1.274 . S
O691 Mg678 2.076 1_665 S
O691 C690 1.245 . S
O692 Mg677 2.038 . S
O692 C690 1.274 . S
O693 Mg681 2.042 1_565 S
O693 C696 1.241 . S
O694 Mg680 1.984 . S
O694 C696 1.280 . S
O695 Mg681 2.041 1_565 S
O695 C699 1.277 . S
C696 O693 1.241 . S
C696 O694 1.280 . S
O697 Mg680 1.988 . S
O697 C699 1.245 . S
O698 C674 1.247 . S
O698 Mg680 2.061 1_655 S
C699 O695 1.277 . S
C699 O697 1.245 . S
O700 C674 1.289 . S
O700 Mg677 2.238 . S
O700 Mg678 2.098 1_665 S
O701 Mg678 2.081 . S
O701 C683 1.245 . S
O702 Mg681 2.038 . S
O702 C683 1.274 . S
C703 O715 1.241 . S
C703 O716 1.280 . S
C704 O717 1.277 . S
C704 O718 1.245 . S
C705 O729 1.247 . S
C705 O731 1.289 . S
Mg706 O707 1.926 . S
Mg706 O716 1.984 . S
Mg706 O718 1.988 1_554 S
Mg706 O719 2.061 . S
O707 Mg706 1.926 . S
O707 Mg708 1.986 1_545 S
O707 Mg709 1.920 . S
Mg708 O707 1.986 1_565 S
Mg708 O715 2.042 1_565 S
Mg708 O717 2.041 1_564 S
Mg708 O723 2.038 . S
Mg708 O731 2.238 1_554 S
Mg709 O707 1.920 . S
Mg709 O710 1.914 1_544 S
Mg709 O720 2.110 . S
Mg709 O722 2.083 1_545 S
Mg709 O731 2.103 1_544 S
Mg709 O732 2.074 1_554 S
O710 Mg709 1.914 1_566 S
O710 Mg711 1.926 . S
O710 Mg712 1.986 1_565 S
Mg711 O710 1.926 . S
Mg711 O725 1.984 . S
Mg711 O728 1.988 1_556 S
Mg711 O729 2.061 . S
Mg712 O710 1.986 1_545 S
Mg712 O720 2.238 1_556 S
Mg712 O724 2.042 1_545 S
Mg712 O726 2.041 1_546 S
Mg712 O733 2.038 . S
C713 O719 1.247 . S
C713 O720 1.289 . S
C714 O732 1.245 . S
C714 O733 1.274 . S
O715 C703 1.241 . S
O715 Mg708 2.042 1_545 S
O716 C703 1.280 . S
O716 Mg706 1.984 . S
O717 C704 1.277 . S
O717 Mg708 2.041 1_546 S
O718 C704 1.245 . S
O718 Mg706 1.988 1_556 S
O719 Mg706 2.061 . S
O719 C713 1.247 . S
O720 Mg709 2.110 . S
O720 Mg712 2.238 1_554 S
O720 C713 1.289 . S
C721 O722 1.245 . S
C721 O723 1.274 . S
O722 Mg709 2.083 1_565 S
O722 C721 1.245 . S
O723 Mg708 2.038 . S
O723 C721 1.274 . S
O724 Mg712 2.042 1_565 S
O724 C727 1.241 . S
O725 Mg711 1.984 . S
O725 C727 1.280 . S
O726 Mg712 2.041 1_564 S
O726 C730 1.277 . S
C727 O724 1.241 . S
C727 O725 1.280 . S
O728 Mg711 1.988 1_554 S
O728 C730 1.245 . S
O729 C705 1.247 . S
O729 Mg711 2.061 . S
C730 O726 1.277 . S
C730 O728 1.245 . S
O731 C705 1.289 . S
O731 Mg708 2.238 1_556 S
O731 Mg709 2.103 1_566 S
O732 Mg709 2.074 1_556 S
O732 C714 1.245 . S
O733 Mg712 2.038 . S
O733 C714 1.274 . S
C734 O746 1.241 . S
C734 O747 1.280 . S
C735 O748 1.277 . S
C735 O749 1.245 . S
C736 O760 1.247 . S
C736 O762 1.289 . S
Mg737 O738 1.926 . S
Mg737 O747 1.984 . S
Mg737 O749 1.988 1_554 S
Mg737 O750 2.061 1_655 S
O738 Mg737 1.926 . S
O738 Mg739 1.986 . S
O738 Mg740 1.908 1_655 S
Mg739 O738 1.986 . S
Mg739 O746 2.042 . S
Mg739 O748 2.041 1_554 S
Mg739 O754 2.038 . S
Mg739 O762 2.238 1_554 S
Mg740 O738 1.908 1_455 S
Mg740 O741 1.926 1_554 S
Mg740 O751 2.119 . S
Mg740 O753 2.082 1_455 S
Mg740 O762 2.094 1_454 S
Mg740 O763 2.075 1_554 S
O741 Mg740 1.926 1_556 S
O741 Mg742 1.926 . S
O741 Mg743 1.986 . S
Mg742 O741 1.926 . S
Mg742 O756 1.984 . S
Mg742 O759 1.988 1_556 S
Mg742 O760 2.061 1_455 S
Mg743 O741 1.986 . S
Mg743 O751 2.238 1_556 S
Mg743 O755 2.042 . S
Mg743 O757 2.041 1_556 S
Mg743 O764 2.038 . S
C744 O750 1.247 . S
C744 O751 1.289 . S
C745 O763 1.245 . S
C745 O764 1.274 . S
O746 C734 1.241 . S
O746 Mg739 2.042 . S
O747 C734 1.280 . S
O747 Mg737 1.984 . S
O748 C735 1.277 . S
O748 Mg739 2.041 1_556 S
O749 C735 1.245 . S
O749 Mg737 1.988 1_556 S
O750 Mg737 2.061 1_455 S
O750 C744 1.247 . S
O751 Mg740 2.119 . S
O751 Mg743 2.238 1_554 S
O751 C744 1.289 . S
C752 O753 1.245 . S
C752 O754 1.274 . S
O753 Mg740 2.082 1_655 S
O753 C752 1.245 . S
O754 Mg739 2.038 . S
O754 C752 1.274 . S
O755 Mg743 2.042 . S
O755 C758 1.241 . S
O756 Mg742 1.984 . S
O756 C758 1.280 . S
O757 Mg743 2.041 1_554 S
O757 C761 1.277 . S
C758 O755 1.241 . S
C758 O756 1.280 . S
O759 Mg742 1.988 1_554 S
O759 C761 1.245 . S
O760 C736 1.247 . S
O760 Mg742 2.061 1_655 S
C761 O757 1.277 . S
C761 O759 1.245 . S
O762 C736 1.289 . S
O762 Mg739 2.238 1_556 S
O762 Mg740 2.094 1_656 S
O763 Mg740 2.075 1_556 S
O763 C745 1.245 . S
O764 Mg743 2.038 . S
O764 C745 1.274 . S
C765 O777 1.241 . S
C765 O778 1.280 . S
C766 O779 1.277 . S
C766 O780 1.245 . S
C767 O791 1.247 . S
C767 O793 1.289 . S
Mg768 O769 1.926 . S
Mg768 O778 1.984 . S
Mg768 O780 1.988 1_554 S
Mg768 O781 2.061 . S
O769 Mg768 1.926 . S
O769 Mg770 1.986 . S
O769 Mg771 1.918 . S
Mg770 O769 1.986 . S
Mg770 O777 2.042 . S
Mg770 O779 2.041 1_554 S
Mg770 O785 2.038 . S
Mg770 O793 2.238 1_554 S
Mg771 O769 1.918 . S
Mg771 O772 1.916 1_554 S
Mg771 O782 2.110 . S
Mg771 O784 2.084 . S
Mg771 O793 2.103 1_554 S
Mg771 O794 2.074 1_554 S
O772 Mg771 1.916 1_556 S
O772 Mg773 1.926 . S
O772 Mg774 1.986 . S
Mg773 O772 1.926 . S
Mg773 O787 1.984 . S
Mg773 O790 1.988 1_556 S
Mg773 O791 2.061 . S
Mg774 O772 1.986 . S
Mg774 O782 2.238 1_556 S
Mg774 O786 2.042 . S
Mg774 O788 2.041 1_556 S
Mg774 O795 2.038 . S
C775 O781 1.247 . S
C775 O782 1.289 . S
C776 O794 1.245 . S
C776 O795 1.274 . S
O777 C765 1.241 . S
O777 Mg770 2.042 . S
O778 C765 1.280 . S
O778 Mg768 1.984 . S
O779 C766 1.277 . S
O779 Mg770 2.041 1_556 S
O780 C766 1.245 . S
O780 Mg768 1.988 1_556 S
O781 Mg768 2.061 . S
O781 C775 1.247 . S
O782 Mg771 2.110 . S
O782 Mg774 2.238 1_554 S
O782 C775 1.289 . S
C783 O784 1.245 . S
C783 O785 1.274 . S
O784 Mg771 2.084 . S
O784 C783 1.245 . S
O785 Mg770 2.038 . S
O785 C783 1.274 . S
O786 Mg774 2.042 . S
O786 C789 1.241 . S
O787 Mg773 1.984 . S
O787 C789 1.280 . S
O788 Mg774 2.041 1_554 S
O788 C792 1.277 . S
C789 O786 1.241 . S
C789 O787 1.280 . S
O790 Mg773 1.988 1_554 S
O790 C792 1.245 . S
O791 C767 1.247 . S
O791 Mg773 2.061 . S
C792 O788 1.277 . S
C792 O790 1.245 . S
O793 C767 1.289 . S
O793 Mg770 2.238 1_556 S
O793 Mg771 2.103 1_556 S
O794 Mg771 2.074 1_556 S
O794 C776 1.245 . S
O795 Mg774 2.038 . S
O795 C776 1.274 . S
C796 O808 1.241 . S
C796 O809 1.280 . S
C797 O810 1.277 . S
C797 O811 1.245 . S
C798 O822 1.247 . S
C798 O824 1.289 . S
Mg799 O800 1.926 . S
Mg799 O809 1.984 . S
Mg799 O811 1.988 . S
Mg799 O812 2.061 1_655 S
O800 Mg799 1.926 . S
O800 Mg801 1.986 . S
O800 Mg802 1.907 1_655 S
Mg801 O800 1.986 . S
Mg801 O808 2.042 . S
Mg801 O810 2.041 . S
Mg801 O816 2.038 . S
Mg801 O824 2.238 . S
Mg802 O800 1.907 1_455 S
Mg802 O803 1.927 . S
Mg802 O813 2.115 . S
Mg802 O815 2.077 1_455 S
Mg802 O824 2.098 1_455 S
Mg802 O825 2.080 . S
O803 Mg802 1.927 . S
O803 Mg804 1.926 . S
O803 Mg805 1.986 . S
Mg804 O803 1.926 . S
Mg804 O818 1.984 . S
Mg804 O821 1.988 . S
Mg804 O822 2.061 1_455 S
Mg805 O803 1.986 . S
Mg805 O813 2.238 . S
Mg805 O817 2.042 . S
Mg805 O819 2.041 . S
Mg805 O826 2.038 . S
C806 O812 1.247 . S
C806 O813 1.289 . S
C807 O825 1.245 . S
C807 O826 1.274 . S
O808 C796 1.241 . S
O808 Mg801 2.042 . S
O809 C796 1.280 . S
O809 Mg799 1.984 . S
O810 C797 1.277 . S
O810 Mg801 2.041 . S
O811 C797 1.245 . S
O811 Mg799 1.988 . S
O812 Mg799 2.061 1_455 S
O812 C806 1.247 . S
O813 Mg802 2.115 . S
O813 Mg805 2.238 . S
O813 C806 1.289 . S
C814 O815 1.245 . S
C814 O816 1.274 . S
O815 Mg802 2.077 1_655 S
O815 C814 1.245 . S
O816 Mg801 2.038 . S
O816 C814 1.274 . S
O817 Mg805 2.042 . S
O817 C820 1.241 . S
O818 Mg804 1.984 . S
O818 C820 1.280 . S
O819 Mg805 2.041 . S
O819 C823 1.277 . S
C820 O817 1.241 . S
C820 O818 1.280 . S
O821 Mg804 1.988 . S
O821 C823 1.245 . S
O822 C798 1.247 . S
O822 Mg804 2.061 1_655 S
C823 O819 1.277 . S
C823 O821 1.245 . S
O824 C798 1.289 . S
O824 Mg801 2.238 . S
O824 Mg802 2.098 1_655 S
O825 Mg802 2.080 . S
O825 C807 1.245 . S
O826 Mg805 2.038 . S
O826 C807 1.274 . S
C827 O839 1.241 . S
C827 O840 1.280 . S
C828 O841 1.277 . S
C828 O842 1.245 . S
C829 O853 1.247 . S
C829 O855 1.289 . S
Mg830 O831 1.926 . S
Mg830 O840 1.984 . S
Mg830 O842 1.988 . S
Mg830 O843 2.061 . S
O831 Mg830 1.926 . S
O831 Mg832 1.986 1_545 S
O831 Mg833 1.919 . S
Mg832 O831 1.986 1_565 S
Mg832 O839 2.042 1_565 S
Mg832 O841 2.041 1_565 S
Mg832 O847 2.038 . S
Mg832 O855 2.238 . S
Mg833 O831 1.919 . S
Mg833 O834 1.915 1_545 S
Mg833 O844 2.107 . S
Mg833 O846 2.078 1_545 S
Mg833 O855 2.106 1_545 S
Mg833 O856 2.080 . S
O834 Mg833 1.915 1_565 S
O834 Mg835 1.926 . S
O834 Mg836 1.986 1_565 S
Mg835 O834 1.926 . S
Mg835 O849 1.984 . S
Mg835 O852 1.988 . S
Mg835 O853 2.061 . S
Mg836 O834 1.986 1_545 S
Mg836 O844 2.238 . S
Mg836 O848 2.042 1_545 S
Mg836 O850 2.041 1_545 S
Mg836 O857 2.038 . S
C837 O843 1.247 . S
C837 O844 1.289 . S
C838 O856 1.245 . S
C838 O857 1.274 . S
O839 C827 1.241 . S
O839 Mg832 2.042 1_545 S
O840 C827 1.280 . S
O840 Mg830 1.984 . S
O841 C828 1.277 . S
O841 Mg832 2.041 1_545 S
O842 C828 1.245 . S
O842 Mg830 1.988 . S
O843 Mg830 2.061 . S
O843 C837 1.247 . S
O844 Mg833 2.107 . S
O844 Mg836 2.238 . S
O844 C837 1.289 . S
C845 O846 1.245 . S
C845 O847 1.274 . S
O846 Mg833 2.078 1_565 S
O846 C845 1.245 . S
O847 Mg832 2.038 . S
O847 C845 1.274 . S
O848 Mg836 2.042 1_565 S
O848 C851 1.241 . S
O849 Mg835 1.984 . S
O849 C851 1.280 . S
O850 Mg836 2.041 1_565 S
O850 C854 1.277 . S
C851 O848 1.241 . S
C851 O849 1.280 . S
O852 Mg835 1.988 . S
O852 C854 1.245 . S
O853 C829 1.247 . S
O853 Mg835 2.061 . S
C854 O850 1.277 . S
C854 O852 1.245 . S
O855 C829 1.289 . S
O855 Mg832 2.238 . S
O855 Mg833 2.106 1_565 S
O856 Mg833 2.080 . S
O856 C838 1.245 . S
O857 Mg836 2.038 . S
O857 C838 1.274 . S
H858 C864 0.930 . S
H859 C868 0.930 . S
H860 C873 0.929 . S
H861 C871 0.929 . S
H862 C866 0.929 . S
H863 C872 0.929 . S
C864 H858 0.930 . S
C864 C865 1.367 . S
C864 C872 1.378 . S
C865 C864 1.367 . S
C865 C873 1.433 . S
C866 H862 0.929 . S
C866 C868 1.378 . S
C866 C870 1.350 . S
C867 C870 1.463 . S
C867 C872 1.350 . S
C867 N875 1.427 . S
C868 H859 0.930 . S
C868 C866 1.378 . S
C868 C869 1.367 . S
C869 C868 1.367 . S
C869 C871 1.433 . S
C870 C866 1.350 . S
C870 C867 1.463 . S
C870 N874 1.427 . S
C871 H861 0.929 . S
C871 C869 1.433 . S
C871 N874 1.384 . S
C872 H863 0.929 . S
C872 C864 1.378 . S
C872 C867 1.350 . S
C873 H860 0.929 . S
C873 C865 1.433 . S
C873 N875 1.384 . S
N874 C870 1.427 . S
N874 C871 1.384 . S
N875 C867 1.427 . S
N875 C873 1.384 . S
H876 C882 0.930 . S
H877 C886 0.930 . S
H878 C891 0.929 . S
H879 C889 0.929 . S
H880 C884 0.929 . S
H881 C890 0.929 . S
C882 H876 0.930 . S
C882 C883 1.367 . S
C882 C890 1.378 . S
C883 C882 1.367 . S
C883 C891 1.433 . S
C884 H880 0.929 . S
C884 C886 1.378 . S
C884 C888 1.350 . S
C885 C888 1.463 . S
C885 C890 1.350 . S
C885 N893 1.427 . S
C886 H877 0.930 . S
C886 C884 1.378 . S
C886 C887 1.367 . S
C887 C886 1.367 . S
C887 C889 1.433 . S
C888 C884 1.350 . S
C888 C885 1.463 . S
C888 N892 1.427 . S
C889 H879 0.929 . S
C889 C887 1.433 . S
C889 N892 1.384 . S
C890 H881 0.929 . S
C890 C882 1.378 . S
C890 C885 1.350 . S
C891 H878 0.929 . S
C891 C883 1.433 . S
C891 N893 1.384 . S
N892 C888 1.427 . S
N892 C889 1.384 . S
N893 C885 1.427 . S
N893 C891 1.384 . S
H894 C900 0.930 . S
H895 C904 0.930 . S
H896 C909 0.929 . S
H897 C907 0.929 . S
H898 C902 0.929 . S
H899 C908 0.929 . S
C900 H894 0.930 . S
C900 C901 1.367 . S
C900 C908 1.378 . S
C901 C900 1.367 . S
C901 C909 1.433 . S
C902 H898 0.929 . S
C902 C904 1.378 . S
C902 C906 1.350 . S
C903 C906 1.463 . S
C903 C908 1.350 . S
C903 N911 1.427 . S
C904 H895 0.930 . S
C904 C902 1.378 . S
C904 C905 1.367 . S
C905 C904 1.367 . S
C905 C907 1.433 . S
C906 C902 1.350 . S
C906 C903 1.463 . S
C906 N910 1.427 . S
C907 H897 0.929 . S
C907 C905 1.433 . S
C907 N910 1.384 . S
C908 H899 0.929 . S
C908 C900 1.378 . S
C908 C903 1.350 . S
C909 H896 0.929 . S
C909 C901 1.433 . S
C909 N911 1.384 . S
N910 C906 1.427 . S
N910 C907 1.384 . S
N911 C903 1.427 . S
N911 C909 1.384 . S
H912 C918 0.930 . S
H913 C922 0.930 . S
H914 C927 0.929 . S
H915 C925 0.929 . S
H916 C920 0.929 . S
H917 C926 0.929 . S
C918 H912 0.930 . S
C918 C919 1.367 . S
C918 C926 1.378 . S
C919 C918 1.367 . S
C919 C927 1.433 . S
C920 H916 0.929 . S
C920 C922 1.378 . S
C920 C924 1.350 . S
C921 C924 1.463 . S
C921 C926 1.350 . S
C921 N929 1.427 . S
C922 H913 0.930 . S
C922 C920 1.378 . S
C922 C923 1.367 . S
C923 C922 1.367 . S
C923 C925 1.433 . S
C924 C920 1.350 . S
C924 C921 1.463 . S
C924 N928 1.427 . S
C925 H915 0.929 . S
C925 C923 1.433 . S
C925 N928 1.384 . S
C926 H917 0.929 . S
C926 C918 1.378 . S
C926 C921 1.350 . S
C927 H914 0.929 . S
C927 C919 1.433 . S
C927 N929 1.384 . S
N928 C924 1.427 . S
N928 C925 1.384 . S
N929 C921 1.427 . S
N929 C927 1.384 . S
H930 C936 0.930 . S
H931 C940 0.930 . S
H932 C945 0.929 . S
H933 C943 0.929 . S
H934 C938 0.929 . S
H935 C944 0.929 . S
C936 H930 0.930 . S
C936 C937 1.367 . S
C936 C944 1.378 . S
C937 C936 1.367 . S
C937 C945 1.433 . S
C938 H934 0.929 . S
C938 C940 1.378 . S
C938 C942 1.350 . S
C939 C942 1.463 . S
C939 C944 1.350 . S
C939 N947 1.427 . S
C940 H931 0.930 . S
C940 C938 1.378 . S
C940 C941 1.367 . S
C941 C940 1.367 . S
C941 C943 1.433 . S
C942 C938 1.350 . S
C942 C939 1.463 . S
C942 N946 1.427 . S
C943 H933 0.929 . S
C943 C941 1.433 . S
C943 N946 1.384 . S
C944 H935 0.929 . S
C944 C936 1.378 . S
C944 C939 1.350 . S
C945 H932 0.929 . S
C945 C937 1.433 . S
C945 N947 1.384 . S
N946 C942 1.427 . S
N946 C943 1.384 . S
N947 C939 1.427 . S
N947 C945 1.384 . S
H948 C954 0.930 . S
H949 C958 0.930 . S
H950 C963 0.929 . S
H951 C961 0.929 . S
H952 C956 0.929 . S
H953 C962 0.929 . S
C954 H948 0.930 . S
C954 C955 1.367 . S
C954 C962 1.378 . S
C955 C954 1.367 . S
C955 C963 1.433 . S
C956 H952 0.929 . S
C956 C958 1.378 . S
C956 C960 1.350 . S
C957 C960 1.463 . S
C957 C962 1.350 . S
C957 N965 1.427 . S
C958 H949 0.930 . S
C958 C956 1.378 . S
C958 C959 1.367 . S
C959 C958 1.367 . S
C959 C961 1.433 . S
C960 C956 1.350 . S
C960 C957 1.463 . S
C960 N964 1.427 . S
C961 H951 0.929 . S
C961 C959 1.433 . S
C961 N964 1.384 . S
C962 H953 0.929 . S
C962 C954 1.378 . S
C962 C957 1.350 . S
C963 H950 0.929 . S
C963 C955 1.433 . S
C963 N965 1.384 . S
N964 C960 1.427 . S
N964 C961 1.384 . S
N965 C957 1.427 . S
N965 C963 1.384 . S
H966 C972 0.930 . S
H967 C976 0.930 . S
H968 C981 0.929 . S
H969 C979 0.929 . S
H970 C974 0.929 . S
H971 C980 0.929 . S
C972 H966 0.930 . S
C972 C973 1.367 . S
C972 C980 1.378 . S
C973 C972 1.367 . S
C973 C981 1.433 . S
C974 H970 0.929 . S
C974 C976 1.378 . S
C974 C978 1.350 . S
C975 C978 1.463 . S
C975 C980 1.350 . S
C975 N983 1.427 . S
C976 H967 0.930 . S
C976 C974 1.378 . S
C976 C977 1.367 . S
C977 C976 1.367 . S
C977 C979 1.433 . S
C978 C974 1.350 . S
C978 C975 1.463 . S
C978 N982 1.427 . S
C979 H969 0.929 . S
C979 C977 1.433 . S
C979 N982 1.384 . S
C980 H971 0.929 . S
C980 C972 1.378 . S
C980 C975 1.350 . S
C981 H968 0.929 . S
C981 C973 1.433 . S
C981 N983 1.384 . S
N982 C978 1.427 . S
N982 C979 1.384 . S
N983 C975 1.427 . S
N983 C981 1.384 . S
H984 C990 0.930 . S
H985 C994 0.930 . S
H986 C999 0.929 . S
H987 C997 0.929 . S
H988 C992 0.929 . S
H989 C998 0.929 . S
C990 H984 0.930 . S
C990 C991 1.367 . S
C990 C998 1.378 . S
C991 C990 1.367 . S
C991 C999 1.433 . S
C992 H988 0.929 . S
C992 C994 1.378 . S
C992 C996 1.350 . S
C993 C996 1.463 . S
C993 C998 1.350 . S
C993 N1001 1.427 . S
C994 H985 0.930 . S
C994 C992 1.378 . S
C994 C995 1.367 . S
C995 C994 1.367 . S
C995 C997 1.433 . S
C996 C992 1.350 . S
C996 C993 1.463 . S
C996 N1000 1.427 . S
C997 H987 0.929 . S
C997 C995 1.433 . S
C997 N1000 1.384 . S
C998 H989 0.929 . S
C998 C990 1.378 . S
C998 C993 1.350 . S
C999 H986 0.929 . S
C999 C991 1.433 . S
C999 N1001 1.384 . S
N1000 C996 1.427 . S
N1000 C997 1.384 . S
N1001 C993 1.427 . S
N1001 C999 1.384 . S
H1002 C1008 0.930 . S
H1003 C1012 0.930 . S
H1004 C1017 0.929 . S
H1005 C1015 0.929 . S
H1006 C1010 0.929 . S
H1007 C1016 0.929 . S
C1008 H1002 0.930 . S
C1008 C1009 1.367 . S
C1008 C1016 1.378 . S
C1009 C1008 1.367 . S
C1009 C1017 1.433 . S
C1010 H1006 0.929 . S
C1010 C1012 1.378 . S
C1010 C1014 1.350 . S
C1011 C1014 1.463 . S
C1011 C1016 1.350 . S
C1011 N1019 1.427 . S
C1012 H1003 0.930 . S
C1012 C1010 1.378 . S
C1012 C1013 1.367 . S
C1013 C1012 1.367 . S
C1013 C1015 1.433 . S
C1014 C1010 1.350 . S
C1014 C1011 1.463 . S
C1014 N1018 1.427 . S
C1015 H1005 0.929 . S
C1015 C1013 1.433 . S
C1015 N1018 1.384 . S
C1016 H1007 0.929 . S
C1016 C1008 1.378 . S
C1016 C1011 1.350 . S
C1017 H1004 0.929 . S
C1017 C1009 1.433 . S
C1017 N1019 1.384 . S
N1018 C1014 1.427 . S
N1018 C1015 1.384 . S
N1019 C1011 1.427 . S
N1019 C1017 1.384 . S
H1020 C1026 0.930 . S
H1021 C1030 0.930 . S
H1022 C1035 0.929 . S
H1023 C1033 0.929 . S
H1024 C1028 0.929 . S
H1025 C1034 0.929 . S
C1026 H1020 0.930 . S
C1026 C1027 1.367 . S
C1026 C1034 1.378 . S
C1027 C1026 1.367 . S
C1027 C1035 1.433 . S
C1028 H1024 0.929 . S
C1028 C1030 1.378 . S
C1028 C1032 1.350 . S
C1029 C1032 1.463 . S
C1029 C1034 1.350 . S
C1029 N1037 1.427 . S
C1030 H1021 0.930 . S
C1030 C1028 1.378 . S
C1030 C1031 1.367 . S
C1031 C1030 1.367 . S
C1031 C1033 1.433 . S
C1032 C1028 1.350 . S
C1032 C1029 1.463 . S
C1032 N1036 1.427 . S
C1033 H1023 0.929 . S
C1033 C1031 1.433 . S
C1033 N1036 1.384 . S
C1034 H1025 0.929 . S
C1034 C1026 1.378 . S
C1034 C1029 1.350 . S
C1035 H1022 0.929 . S
C1035 C1027 1.433 . S
C1035 N1037 1.384 . S
N1036 C1032 1.427 . S
N1036 C1033 1.384 . S
N1037 C1029 1.427 . S
N1037 C1035 1.384 . S
H1038 C1044 0.930 . S
H1039 C1048 0.930 . S
H1040 C1053 0.929 . S
H1041 C1051 0.929 . S
H1042 C1046 0.929 . S
H1043 C1052 0.929 . S
C1044 H1038 0.930 . S
C1044 C1045 1.367 . S
C1044 C1052 1.378 . S
C1045 C1044 1.367 . S
C1045 C1053 1.433 . S
C1046 H1042 0.929 . S
C1046 C1048 1.378 . S
C1046 C1050 1.350 . S
C1047 C1050 1.463 . S
C1047 C1052 1.350 . S
C1047 N1055 1.427 . S
C1048 H1039 0.930 . S
C1048 C1046 1.378 . S
C1048 C1049 1.367 . S
C1049 C1048 1.367 . S
C1049 C1051 1.433 . S
C1050 C1046 1.350 . S
C1050 C1047 1.463 . S
C1050 N1054 1.427 . S
C1051 H1041 0.929 . S
C1051 C1049 1.433 . S
C1051 N1054 1.384 . S
C1052 H1043 0.929 . S
C1052 C1044 1.378 . S
C1052 C1047 1.350 . S
C1053 H1040 0.929 . S
C1053 C1045 1.433 . S
C1053 N1055 1.384 . S
N1054 C1050 1.427 . S
N1054 C1051 1.384 . S
N1055 C1047 1.427 . S
N1055 C1053 1.384 . S
H1056 C1062 0.930 . S
H1057 C1066 0.930 . S
H1058 C1071 0.929 . S
H1059 C1069 0.929 . S
H1060 C1064 0.929 . S
H1061 C1070 0.929 . S
C1062 H1056 0.930 . S
C1062 C1063 1.367 . S
C1062 C1070 1.378 . S
C1063 C1062 1.367 . S
C1063 C1071 1.433 . S
C1064 H1060 0.929 . S
C1064 C1066 1.378 . S
C1064 C1068 1.350 . S
C1065 C1068 1.463 . S
C1065 C1070 1.350 . S
C1065 N1073 1.427 . S
C1066 H1057 0.930 . S
C1066 C1064 1.378 . S
C1066 C1067 1.367 . S
C1067 C1066 1.367 . S
C1067 C1069 1.433 . S
C1068 C1064 1.350 . S
C1068 C1065 1.463 . S
C1068 N1072 1.427 . S
C1069 H1059 0.929 . S
C1069 C1067 1.433 . S
C1069 N1072 1.384 . S
C1070 H1061 0.929 . S
C1070 C1062 1.378 . S
C1070 C1065 1.350 . S
C1071 H1058 0.929 . S
C1071 C1063 1.433 . S
C1071 N1073 1.384 . S
N1072 C1068 1.427 . S
N1072 C1069 1.384 . S
N1073 C1065 1.427 . S
N1073 C1071 1.384 . S
H1074 C1080 0.930 . S
H1075 C1084 0.930 . S
H1076 C1089 0.929 . S
H1077 C1087 0.929 . S
H1078 C1082 0.929 . S
H1079 C1088 0.929 . S
C1080 H1074 0.930 . S
C1080 C1081 1.367 . S
C1080 C1088 1.378 . S
C1081 C1080 1.367 . S
C1081 C1089 1.433 . S
C1082 H1078 0.929 . S
C1082 C1084 1.378 . S
C1082 C1086 1.350 . S
C1083 C1086 1.463 . S
C1083 C1088 1.350 . S
C1083 N1091 1.427 . S
C1084 H1075 0.930 . S
C1084 C1082 1.378 . S
C1084 C1085 1.367 . S
C1085 C1084 1.367 . S
C1085 C1087 1.433 . S
C1086 C1082 1.350 . S
C1086 C1083 1.463 . S
C1086 N1090 1.427 . S
C1087 H1077 0.929 . S
C1087 C1085 1.433 . S
C1087 N1090 1.384 . S
C1088 H1079 0.929 . S
C1088 C1080 1.378 . S
C1088 C1083 1.350 . S
C1089 H1076 0.929 . S
C1089 C1081 1.433 . S
C1089 N1091 1.384 . S
N1090 C1086 1.427 . S
N1090 C1087 1.384 . S
N1091 C1083 1.427 . S
N1091 C1089 1.384 . S
H1092 C1098 0.930 . S
H1093 C1102 0.930 . S
H1094 C1107 0.929 . S
H1095 C1105 0.929 . S
H1096 C1100 0.929 . S
H1097 C1106 0.929 . S
C1098 H1092 0.930 . S
C1098 C1099 1.367 . S
C1098 C1106 1.378 . S
C1099 C1098 1.367 . S
C1099 C1107 1.433 . S
C1100 H1096 0.929 . S
C1100 C1102 1.378 . S
C1100 C1104 1.350 . S
C1101 C1104 1.463 . S
C1101 C1106 1.350 . S
C1101 N1109 1.427 . S
C1102 H1093 0.930 . S
C1102 C1100 1.378 . S
C1102 C1103 1.367 . S
C1103 C1102 1.367 . S
C1103 C1105 1.433 . S
C1104 C1100 1.350 . S
C1104 C1101 1.463 . S
C1104 N1108 1.427 . S
C1105 H1095 0.929 . S
C1105 C1103 1.433 . S
C1105 N1108 1.384 . S
C1106 H1097 0.929 . S
C1106 C1098 1.378 . S
C1106 C1101 1.350 . S
C1107 H1094 0.929 . S
C1107 C1099 1.433 . S
C1107 N1109 1.384 . S
N1108 C1104 1.427 . S
N1108 C1105 1.384 . S
N1109 C1101 1.427 . S
N1109 C1107 1.384 . S
H1110 C1116 0.930 . S
H1111 C1120 0.930 . S
H1112 C1125 0.929 . S
H1113 C1123 0.929 . S
H1114 C1118 0.929 . S
H1115 C1124 0.929 . S
C1116 H1110 0.930 . S
C1116 C1117 1.367 . S
C1116 C1124 1.378 . S
C1117 C1116 1.367 . S
C1117 C1125 1.433 . S
C1118 H1114 0.929 . S
C1118 C1120 1.378 . S
C1118 C1122 1.350 . S
C1119 C1122 1.463 . S
C1119 C1124 1.350 . S
C1119 N1127 1.427 . S
C1120 H1111 0.930 . S
C1120 C1118 1.378 . S
C1120 C1121 1.367 . S
C1121 C1120 1.367 . S
C1121 C1123 1.433 . S
C1122 C1118 1.350 . S
C1122 C1119 1.463 . S
C1122 N1126 1.427 . S
C1123 H1113 0.929 . S
C1123 C1121 1.433 . S
C1123 N1126 1.384 . S
C1124 H1115 0.929 . S
C1124 C1116 1.378 . S
C1124 C1119 1.350 . S
C1125 H1112 0.929 . S
C1125 C1117 1.433 . S
C1125 N1127 1.384 . S
N1126 C1122 1.427 . S
N1126 C1123 1.384 . S
N1127 C1119 1.427 . S
N1127 C1125 1.384 . S
H1128 C1134 0.930 . S
H1129 C1138 0.930 . S
H1130 C1143 0.929 . S
H1131 C1141 0.929 . S
H1132 C1136 0.929 . S
H1133 C1142 0.929 . S
C1134 H1128 0.930 . S
C1134 C1135 1.367 . S
C1134 C1142 1.378 . S
C1135 C1134 1.367 . S
C1135 C1143 1.433 . S
C1136 H1132 0.929 . S
C1136 C1138 1.378 . S
C1136 C1140 1.350 . S
C1137 C1140 1.463 . S
C1137 C1142 1.350 . S
C1137 N1145 1.427 . S
C1138 H1129 0.930 . S
C1138 C1136 1.378 . S
C1138 C1139 1.367 . S
C1139 C1138 1.367 . S
C1139 C1141 1.433 . S
C1140 C1136 1.350 . S
C1140 C1137 1.463 . S
C1140 N1144 1.427 . S
C1141 H1131 0.929 . S
C1141 C1139 1.433 . S
C1141 N1144 1.384 . S
C1142 H1133 0.929 . S
C1142 C1134 1.378 . S
C1142 C1137 1.350 . S
C1143 H1130 0.929 . S
C1143 C1135 1.433 . S
C1143 N1145 1.384 . S
N1144 C1140 1.427 . S
N1144 C1141 1.384 . S
N1145 C1137 1.427 . S
N1145 C1143 1.384 . S
H1146 C1152 0.930 . S
H1147 C1156 0.930 . S
H1148 C1161 0.929 . S
H1149 C1159 0.929 . S
H1150 C1154 0.929 . S
H1151 C1160 0.929 . S
C1152 H1146 0.930 . S
C1152 C1153 1.367 . S
C1152 C1160 1.378 . S
C1153 C1152 1.367 . S
C1153 C1161 1.433 . S
C1154 H1150 0.929 . S
C1154 C1156 1.378 . S
C1154 C1158 1.350 . S
C1155 C1158 1.463 . S
C1155 C1160 1.350 . S
C1155 N1163 1.427 . S
C1156 H1147 0.930 . S
C1156 C1154 1.378 . S
C1156 C1157 1.367 . S
C1157 C1156 1.367 . S
C1157 C1159 1.433 . S
C1158 C1154 1.350 . S
C1158 C1155 1.463 . S
C1158 N1162 1.427 . S
C1159 H1149 0.929 . S
C1159 C1157 1.433 . S
C1159 N1162 1.384 . S
C1160 H1151 0.929 . S
C1160 C1152 1.378 . S
C1160 C1155 1.350 . S
C1161 H1148 0.929 . S
C1161 C1153 1.433 . S
C1161 N1163 1.384 . S
N1162 C1158 1.427 . S
N1162 C1159 1.384 . S
N1163 C1155 1.427 . S
N1163 C1161 1.384 . S
H1164 C1170 0.930 . S
H1165 C1174 0.930 . S
H1166 C1179 0.929 . S
H1167 C1177 0.929 . S
H1168 C1172 0.929 . S
H1169 C1178 0.929 . S
C1170 H1164 0.930 . S
C1170 C1171 1.367 . S
C1170 C1178 1.378 . S
C1171 C1170 1.367 . S
C1171 C1179 1.433 . S
C1172 H1168 0.929 . S
C1172 C1174 1.378 . S
C1172 C1176 1.350 . S
C1173 C1176 1.463 . S
C1173 C1178 1.350 . S
C1173 N1181 1.427 . S
C1174 H1165 0.930 . S
C1174 C1172 1.378 . S
C1174 C1175 1.367 . S
C1175 C1174 1.367 . S
C1175 C1177 1.433 . S
C1176 C1172 1.350 . S
C1176 C1173 1.463 . S
C1176 N1180 1.427 . S
C1177 H1167 0.929 . S
C1177 C1175 1.433 . S
C1177 N1180 1.384 . S
C1178 H1169 0.929 . S
C1178 C1170 1.378 . S
C1178 C1173 1.350 . S
C1179 H1166 0.929 . S
C1179 C1171 1.433 . S
C1179 N1181 1.384 . S
N1180 C1176 1.427 . S
N1180 C1177 1.384 . S
N1181 C1173 1.427 . S
N1181 C1179 1.384 . S
H1182 C1188 0.930 . S
H1183 C1192 0.930 . S
H1184 C1197 0.929 . S
H1185 C1195 0.929 . S
H1186 C1190 0.929 . S
H1187 C1196 0.929 . S
C1188 H1182 0.930 . S
C1188 C1189 1.367 . S
C1188 C1196 1.378 . S
C1189 C1188 1.367 . S
C1189 C1197 1.433 . S
C1190 H1186 0.929 . S
C1190 C1192 1.378 . S
C1190 C1194 1.350 . S
C1191 C1194 1.463 . S
C1191 C1196 1.350 . S
C1191 N1199 1.427 . S
C1192 H1183 0.930 . S
C1192 C1190 1.378 . S
C1192 C1193 1.367 . S
C1193 C1192 1.367 . S
C1193 C1195 1.433 . S
C1194 C1190 1.350 . S
C1194 C1191 1.463 . S
C1194 N1198 1.427 . S
C1195 H1185 0.929 . S
C1195 C1193 1.433 . S
C1195 N1198 1.384 . S
C1196 H1187 0.929 . S
C1196 C1188 1.378 . S
C1196 C1191 1.350 . S
C1197 H1184 0.929 . S
C1197 C1189 1.433 . S
C1197 N1199 1.384 . S
N1198 C1194 1.427 . S
N1198 C1195 1.384 . S
N1199 C1191 1.427 . S
N1199 C1197 1.384 . S
H1200 C1206 0.930 . S
H1201 C1210 0.930 . S
H1202 C1215 0.929 . S
H1203 C1213 0.929 . S
H1204 C1208 0.929 . S
H1205 C1214 0.929 . S
C1206 H1200 0.930 . S
C1206 C1207 1.367 . S
C1206 C1214 1.378 . S
C1207 C1206 1.367 . S
C1207 C1215 1.433 . S
C1208 H1204 0.929 . S
C1208 C1210 1.378 . S
C1208 C1212 1.350 . S
C1209 C1212 1.463 . S
C1209 C1214 1.350 . S
C1209 N1217 1.427 . S
C1210 H1201 0.930 . S
C1210 C1208 1.378 . S
C1210 C1211 1.367 . S
C1211 C1210 1.367 . S
C1211 C1213 1.433 . S
C1212 C1208 1.350 . S
C1212 C1209 1.463 . S
C1212 N1216 1.427 . S
C1213 H1203 0.929 . S
C1213 C1211 1.433 . S
C1213 N1216 1.384 . S
C1214 H1205 0.929 . S
C1214 C1206 1.378 . S
C1214 C1209 1.350 . S
C1215 H1202 0.929 . S
C1215 C1207 1.433 . S
C1215 N1217 1.384 . S
N1216 C1212 1.427 . S
N1216 C1213 1.384 . S
N1217 C1209 1.427 . S
N1217 C1215 1.384 . S
H1218 C1224 0.930 . S
H1219 C1228 0.930 . S
H1220 C1233 0.929 . S
H1221 C1231 0.929 . S
H1222 C1226 0.929 . S
H1223 C1232 0.929 . S
C1224 H1218 0.930 . S
C1224 C1225 1.367 . S
C1224 C1232 1.378 . S
C1225 C1224 1.367 . S
C1225 C1233 1.433 . S
C1226 H1222 0.929 . S
C1226 C1228 1.378 . S
C1226 C1230 1.350 . S
C1227 C1230 1.463 . S
C1227 C1232 1.350 . S
C1227 N1235 1.427 . S
C1228 H1219 0.930 . S
C1228 C1226 1.378 . S
C1228 C1229 1.367 . S
C1229 C1228 1.367 . S
C1229 C1231 1.433 . S
C1230 C1226 1.350 . S
C1230 C1227 1.463 . S
C1230 N1234 1.427 . S
C1231 H1221 0.929 . S
C1231 C1229 1.433 . S
C1231 N1234 1.384 . S
C1232 H1223 0.929 . S
C1232 C1224 1.378 . S
C1232 C1227 1.350 . S
C1233 H1220 0.929 . S
C1233 C1225 1.433 . S
C1233 N1235 1.384 . S
N1234 C1230 1.427 . S
N1234 C1231 1.384 . S
N1235 C1227 1.427 . S
N1235 C1233 1.384 . S
H1236 C1242 0.930 . S
H1237 C1246 0.930 . S
H1238 C1251 0.929 . S
H1239 C1249 0.929 . S
H1240 C1244 0.929 . S
H1241 C1250 0.929 . S
C1242 H1236 0.930 . S
C1242 C1243 1.367 . S
C1242 C1250 1.378 . S
C1243 C1242 1.367 . S
C1243 C1251 1.433 . S
C1244 H1240 0.929 . S
C1244 C1246 1.378 . S
C1244 C1248 1.350 . S
C1245 C1248 1.463 . S
C1245 C1250 1.350 . S
C1245 N1253 1.427 . S
C1246 H1237 0.930 . S
C1246 C1244 1.378 . S
C1246 C1247 1.367 . S
C1247 C1246 1.367 . S
C1247 C1249 1.433 . S
C1248 C1244 1.350 . S
C1248 C1245 1.463 . S
C1248 N1252 1.427 . S
C1249 H1239 0.929 . S
C1249 C1247 1.433 . S
C1249 N1252 1.384 . S
C1250 H1241 0.929 . S
C1250 C1242 1.378 . S
C1250 C1245 1.350 . S
C1251 H1238 0.929 . S
C1251 C1243 1.433 . S
C1251 N1253 1.384 . S
N1252 C1248 1.427 . S
N1252 C1249 1.384 . S
N1253 C1245 1.427 . S
N1253 C1251 1.384 . S
H1254 C1260 0.930 . S
H1255 C1264 0.930 . S
H1256 C1269 0.929 . S
H1257 C1267 0.929 . S
H1258 C1262 0.929 . S
H1259 C1268 0.929 . S
C1260 H1254 0.930 . S
C1260 C1261 1.367 . S
C1260 C1268 1.378 . S
C1261 C1260 1.367 . S
C1261 C1269 1.433 . S
C1262 H1258 0.929 . S
C1262 C1264 1.378 . S
C1262 C1266 1.350 . S
C1263 C1266 1.463 . S
C1263 C1268 1.350 . S
C1263 N1271 1.427 . S
C1264 H1255 0.930 . S
C1264 C1262 1.378 . S
C1264 C1265 1.367 . S
C1265 C1264 1.367 . S
C1265 C1267 1.433 . S
C1266 C1262 1.350 . S
C1266 C1263 1.463 . S
C1266 N1270 1.427 . S
C1267 H1257 0.929 . S
C1267 C1265 1.433 . S
C1267 N1270 1.384 . S
C1268 H1259 0.929 . S
C1268 C1260 1.378 . S
C1268 C1263 1.350 . S
C1269 H1256 0.929 . S
C1269 C1261 1.433 . S
C1269 N1271 1.384 . S
N1270 C1266 1.427 . S
N1270 C1267 1.384 . S
N1271 C1263 1.427 . S
N1271 C1269 1.384 . S
H1272 C1278 0.930 . S
H1273 C1282 0.930 . S
H1274 C1287 0.929 . S
H1275 C1285 0.929 . S
H1276 C1280 0.929 . S
H1277 C1286 0.929 . S
C1278 H1272 0.930 . S
C1278 C1279 1.367 . S
C1278 C1286 1.378 . S
C1279 C1278 1.367 . S
C1279 C1287 1.433 . S
C1280 H1276 0.929 . S
C1280 C1282 1.378 . S
C1280 C1284 1.350 . S
C1281 C1284 1.463 . S
C1281 C1286 1.350 . S
C1281 N1289 1.427 . S
C1282 H1273 0.930 . S
C1282 C1280 1.378 . S
C1282 C1283 1.367 . S
C1283 C1282 1.367 . S
C1283 C1285 1.433 . S
C1284 C1280 1.350 . S
C1284 C1281 1.463 . S
C1284 N1288 1.427 . S
C1285 H1275 0.929 . S
C1285 C1283 1.433 . S
C1285 N1288 1.384 . S
C1286 H1277 0.929 . S
C1286 C1278 1.378 . S
C1286 C1281 1.350 . S
C1287 H1274 0.929 . S
C1287 C1279 1.433 . S
C1287 N1289 1.384 . S
N1288 C1284 1.427 . S
N1288 C1285 1.384 . S
N1289 C1281 1.427 . S
N1289 C1287 1.384 . S
H1290 C1296 0.930 . S
H1291 C1300 0.930 . S
H1292 C1305 0.929 . S
H1293 C1303 0.929 . S
H1294 C1298 0.929 . S
H1295 C1304 0.929 . S
C1296 H1290 0.930 . S
C1296 C1297 1.367 . S
C1296 C1304 1.378 . S
C1297 C1296 1.367 . S
C1297 C1305 1.433 . S
C1298 H1294 0.929 . S
C1298 C1300 1.378 . S
C1298 C1302 1.350 . S
C1299 C1302 1.463 . S
C1299 C1304 1.350 . S
C1299 N1307 1.427 . S
C1300 H1291 0.930 . S
C1300 C1298 1.378 . S
C1300 C1301 1.367 . S
C1301 C1300 1.367 . S
C1301 C1303 1.433 . S
C1302 C1298 1.350 . S
C1302 C1299 1.463 . S
C1302 N1306 1.427 . S
C1303 H1293 0.929 . S
C1303 C1301 1.433 . S
C1303 N1306 1.384 . S
C1304 H1295 0.929 . S
C1304 C1296 1.378 . S
C1304 C1299 1.350 . S
C1305 H1292 0.929 . S
C1305 C1297 1.433 . S
C1305 N1307 1.384 . S
N1306 C1302 1.427 . S
N1306 C1303 1.384 . S
N1307 C1299 1.427 . S
N1307 C1305 1.384 . S
H1308 C1314 0.930 . S
H1309 C1318 0.930 . S
H1310 C1323 0.929 . S
H1311 C1321 0.929 . S
H1312 C1316 0.929 . S
H1313 C1322 0.929 . S
C1314 H1308 0.930 . S
C1314 C1315 1.367 . S
C1314 C1322 1.378 . S
C1315 C1314 1.367 . S
C1315 C1323 1.433 . S
C1316 H1312 0.929 . S
C1316 C1318 1.378 . S
C1316 C1320 1.350 . S
C1317 C1320 1.463 . S
C1317 C1322 1.350 . S
C1317 N1325 1.427 . S
C1318 H1309 0.930 . S
C1318 C1316 1.378 . S
C1318 C1319 1.367 . S
C1319 C1318 1.367 . S
C1319 C1321 1.433 . S
C1320 C1316 1.350 . S
C1320 C1317 1.463 . S
C1320 N1324 1.427 . S
C1321 H1311 0.929 . S
C1321 C1319 1.433 . S
C1321 N1324 1.384 . S
C1322 H1313 0.929 . S
C1322 C1314 1.378 . S
C1322 C1317 1.350 . S
C1323 H1310 0.929 . S
C1323 C1315 1.433 . S
C1323 N1325 1.384 . S
N1324 C1320 1.427 . S
N1324 C1321 1.384 . S
N1325 C1317 1.427 . S
N1325 C1323 1.384 . S
H1326 C1332 0.930 . S
H1327 C1336 0.930 . S
H1328 C1341 0.929 . S
H1329 C1339 0.929 . S
H1330 C1334 0.929 . S
H1331 C1340 0.929 . S
C1332 H1326 0.930 . S
C1332 C1333 1.367 . S
C1332 C1340 1.378 . S
C1333 C1332 1.367 . S
C1333 C1341 1.433 . S
C1334 H1330 0.929 . S
C1334 C1336 1.378 . S
C1334 C1338 1.350 . S
C1335 C1338 1.463 . S
C1335 C1340 1.350 . S
C1335 N1343 1.427 . S
C1336 H1327 0.930 . S
C1336 C1334 1.378 . S
C1336 C1337 1.367 . S
C1337 C1336 1.367 . S
C1337 C1339 1.433 . S
C1338 C1334 1.350 . S
C1338 C1335 1.463 . S
C1338 N1342 1.427 . S
C1339 H1329 0.929 . S
C1339 C1337 1.433 . S
C1339 N1342 1.384 . S
C1340 H1331 0.929 . S
C1340 C1332 1.378 . S
C1340 C1335 1.350 . S
C1341 H1328 0.929 . S
C1341 C1333 1.433 . S
C1341 N1343 1.384 . S
N1342 C1338 1.427 . S
N1342 C1339 1.384 . S
N1343 C1335 1.427 . S
N1343 C1341 1.384 . S
H1344 C1350 0.930 . S
H1345 C1354 0.930 . S
H1346 C1359 0.929 . S
H1347 C1357 0.929 . S
H1348 C1352 0.929 . S
H1349 C1358 0.929 . S
C1350 H1344 0.930 . S
C1350 C1351 1.367 . S
C1350 C1358 1.378 . S
C1351 C1350 1.367 . S
C1351 C1359 1.433 . S
C1352 H1348 0.929 . S
C1352 C1354 1.378 . S
C1352 C1356 1.350 . S
C1353 C1356 1.463 . S
C1353 C1358 1.350 . S
C1353 N1361 1.427 . S
C1354 H1345 0.930 . S
C1354 C1352 1.378 . S
C1354 C1355 1.367 . S
C1355 C1354 1.367 . S
C1355 C1357 1.433 . S
C1356 C1352 1.350 . S
C1356 C1353 1.463 . S
C1356 N1360 1.427 . S
C1357 H1347 0.929 . S
C1357 C1355 1.433 . S
C1357 N1360 1.384 . S
C1358 H1349 0.929 . S
C1358 C1350 1.378 . S
C1358 C1353 1.350 . S
C1359 H1346 0.929 . S
C1359 C1351 1.433 . S
C1359 N1361 1.384 . S
N1360 C1356 1.427 . S
N1360 C1357 1.384 . S
N1361 C1353 1.427 . S
N1361 C1359 1.384 . S
H1362 C1368 0.930 . S
H1363 C1372 0.930 . S
H1364 C1377 0.929 . S
H1365 C1375 0.929 . S
H1366 C1370 0.929 . S
H1367 C1376 0.929 . S
C1368 H1362 0.930 . S
C1368 C1369 1.367 . S
C1368 C1376 1.378 . S
C1369 C1368 1.367 . S
C1369 C1377 1.433 . S
C1370 H1366 0.929 . S
C1370 C1372 1.378 . S
C1370 C1374 1.350 . S
C1371 C1374 1.463 . S
C1371 C1376 1.350 . S
C1371 N1379 1.427 . S
C1372 H1363 0.930 . S
C1372 C1370 1.378 . S
C1372 C1373 1.367 . S
C1373 C1372 1.367 . S
C1373 C1375 1.433 . S
C1374 C1370 1.350 . S
C1374 C1371 1.463 . S
C1374 N1378 1.427 . S
C1375 H1365 0.929 . S
C1375 C1373 1.433 . S
C1375 N1378 1.384 . S
C1376 H1367 0.929 . S
C1376 C1368 1.378 . S
C1376 C1371 1.350 . S
C1377 H1364 0.929 . S
C1377 C1369 1.433 . S
C1377 N1379 1.384 . S
N1378 C1374 1.427 . S
N1378 C1375 1.384 . S
N1379 C1371 1.427 . S
N1379 C1377 1.384 . S
H1380 C1386 0.930 . S
H1381 C1390 0.930 . S
H1382 C1395 0.929 . S
H1383 C1393 0.929 . S
H1384 C1388 0.929 . S
H1385 C1394 0.929 . S
C1386 H1380 0.930 . S
C1386 C1387 1.367 . S
C1386 C1394 1.378 . S
C1387 C1386 1.367 . S
C1387 C1395 1.433 . S
C1388 H1384 0.929 . S
C1388 C1390 1.378 . S
C1388 C1392 1.350 . S
C1389 C1392 1.463 . S
C1389 C1394 1.350 . S
C1389 N1397 1.427 . S
C1390 H1381 0.930 . S
C1390 C1388 1.378 . S
C1390 C1391 1.367 . S
C1391 C1390 1.367 . S
C1391 C1393 1.433 . S
C1392 C1388 1.350 . S
C1392 C1389 1.463 . S
C1392 N1396 1.427 . S
C1393 H1383 0.929 . S
C1393 C1391 1.433 . S
C1393 N1396 1.384 . S
C1394 H1385 0.929 . S
C1394 C1386 1.378 . S
C1394 C1389 1.350 . S
C1395 H1382 0.929 . S
C1395 C1387 1.433 . S
C1395 N1397 1.384 . S
N1396 C1392 1.427 . S
N1396 C1393 1.384 . S
N1397 C1389 1.427 . S
N1397 C1395 1.384 . S
H1398 C1404 0.930 . S
H1399 C1408 0.930 . S
H1400 C1413 0.929 . S
H1401 C1411 0.929 . S
H1402 C1406 0.929 . S
H1403 C1412 0.929 . S
C1404 H1398 0.930 . S
C1404 C1405 1.367 . S
C1404 C1412 1.378 . S
C1405 C1404 1.367 . S
C1405 C1413 1.433 . S
C1406 H1402 0.929 . S
C1406 C1408 1.378 . S
C1406 C1410 1.350 . S
C1407 C1410 1.463 . S
C1407 C1412 1.350 . S
C1407 N1415 1.427 . S
C1408 H1399 0.930 . S
C1408 C1406 1.378 . S
C1408 C1409 1.367 . S
C1409 C1408 1.367 . S
C1409 C1411 1.433 . S
C1410 C1406 1.350 . S
C1410 C1407 1.463 . S
C1410 N1414 1.427 . S
C1411 H1401 0.929 . S
C1411 C1409 1.433 . S
C1411 N1414 1.384 . S
C1412 H1403 0.929 . S
C1412 C1404 1.378 . S
C1412 C1407 1.350 . S
C1413 H1400 0.929 . S
C1413 C1405 1.433 . S
C1413 N1415 1.384 . S
N1414 C1410 1.427 . S
N1414 C1411 1.384 . S
N1415 C1407 1.427 . S
N1415 C1413 1.384 . S
H1416 C1422 0.930 . S
H1417 C1426 0.930 . S
H1418 C1431 0.929 . S
H1419 C1429 0.929 . S
H1420 C1424 0.929 . S
H1421 C1430 0.929 . S
C1422 H1416 0.930 . S
C1422 C1423 1.367 . S
C1422 C1430 1.378 . S
C1423 C1422 1.367 . S
C1423 C1431 1.433 . S
C1424 H1420 0.929 . S
C1424 C1426 1.378 . S
C1424 C1428 1.350 . S
C1425 C1428 1.463 . S
C1425 C1430 1.350 . S
C1425 N1433 1.427 . S
C1426 H1417 0.930 . S
C1426 C1424 1.378 . S
C1426 C1427 1.367 . S
C1427 C1426 1.367 . S
C1427 C1429 1.433 . S
C1428 C1424 1.350 . S
C1428 C1425 1.463 . S
C1428 N1432 1.427 . S
C1429 H1419 0.929 . S
C1429 C1427 1.433 . S
C1429 N1432 1.384 . S
C1430 H1421 0.929 . S
C1430 C1422 1.378 . S
C1430 C1425 1.350 . S
C1431 H1418 0.929 . S
C1431 C1423 1.433 . S
C1431 N1433 1.384 . S
N1432 C1428 1.427 . S
N1432 C1429 1.384 . S
N1433 C1425 1.427 . S
N1433 C1431 1.384 . S
H1434 C1440 0.930 . S
H1435 C1444 0.930 . S
H1436 C1449 0.929 . S
H1437 C1447 0.929 . S
H1438 C1442 0.929 . S
H1439 C1448 0.929 . S
C1440 H1434 0.930 . S
C1440 C1441 1.367 . S
C1440 C1448 1.378 . S
C1441 C1440 1.367 . S
C1441 C1449 1.433 . S
C1442 H1438 0.929 . S
C1442 C1444 1.378 . S
C1442 C1446 1.350 . S
C1443 C1446 1.463 . S
C1443 C1448 1.350 . S
C1443 N1451 1.427 . S
C1444 H1435 0.930 . S
C1444 C1442 1.378 . S
C1444 C1445 1.367 . S
C1445 C1444 1.367 . S
C1445 C1447 1.433 . S
C1446 C1442 1.350 . S
C1446 C1443 1.463 . S
C1446 N1450 1.427 . S
C1447 H1437 0.929 . S
C1447 C1445 1.433 . S
C1447 N1450 1.384 . S
C1448 H1439 0.929 . S
C1448 C1440 1.378 . S
C1448 C1443 1.350 . S
C1449 H1436 0.929 . S
C1449 C1441 1.433 . S
C1449 N1451 1.384 . S
N1450 C1446 1.427 . S
N1450 C1447 1.384 . S
N1451 C1443 1.427 . S
N1451 C1449 1.384 . S
H1452 C1458 0.930 . S
H1453 C1462 0.930 . S
H1454 C1467 0.929 . S
H1455 C1465 0.929 . S
H1456 C1460 0.929 . S
H1457 C1466 0.929 . S
C1458 H1452 0.930 . S
C1458 C1459 1.367 . S
C1458 C1466 1.378 . S
C1459 C1458 1.367 . S
C1459 C1467 1.433 . S
C1460 H1456 0.929 . S
C1460 C1462 1.378 . S
C1460 C1464 1.350 . S
C1461 C1464 1.463 . S
C1461 C1466 1.350 . S
C1461 N1469 1.427 . S
C1462 H1453 0.930 . S
C1462 C1460 1.378 . S
C1462 C1463 1.367 . S
C1463 C1462 1.367 . S
C1463 C1465 1.433 . S
C1464 C1460 1.350 . S
C1464 C1461 1.463 . S
C1464 N1468 1.427 . S
C1465 H1455 0.929 . S
C1465 C1463 1.433 . S
C1465 N1468 1.384 . S
C1466 H1457 0.929 . S
C1466 C1458 1.378 . S
C1466 C1461 1.350 . S
C1467 H1454 0.929 . S
C1467 C1459 1.433 . S
C1467 N1469 1.384 . S
N1468 C1464 1.427 . S
N1468 C1465 1.384 . S
N1469 C1461 1.427 . S
N1469 C1467 1.384 . S
H1470 C1476 0.930 . S
H1471 C1480 0.930 . S
H1472 C1485 0.929 . S
H1473 C1483 0.929 . S
H1474 C1478 0.929 . S
H1475 C1484 0.929 . S
C1476 H1470 0.930 . S
C1476 C1477 1.367 . S
C1476 C1484 1.378 . S
C1477 C1476 1.367 . S
C1477 C1485 1.433 . S
C1478 H1474 0.929 . S
C1478 C1480 1.378 . S
C1478 C1482 1.350 . S
C1479 C1482 1.463 . S
C1479 C1484 1.350 . S
C1479 N1487 1.427 . S
C1480 H1471 0.930 . S
C1480 C1478 1.378 . S
C1480 C1481 1.367 . S
C1481 C1480 1.367 . S
C1481 C1483 1.433 . S
C1482 C1478 1.350 . S
C1482 C1479 1.463 . S
C1482 N1486 1.427 . S
C1483 H1473 0.929 . S
C1483 C1481 1.433 . S
C1483 N1486 1.384 . S
C1484 H1475 0.929 . S
C1484 C1476 1.378 . S
C1484 C1479 1.350 . S
C1485 H1472 0.929 . S
C1485 C1477 1.433 . S
C1485 N1487 1.384 . S
N1486 C1482 1.427 . S
N1486 C1483 1.384 . S
N1487 C1479 1.427 . S
N1487 C1485 1.384 . S
H1488 C1494 0.930 . S
H1489 C1498 0.930 . S
H1490 C1503 0.929 . S
H1491 C1501 0.929 . S
H1492 C1496 0.929 . S
H1493 C1502 0.929 . S
C1494 H1488 0.930 . S
C1494 C1495 1.367 . S
C1494 C1502 1.378 . S
C1495 C1494 1.367 . S
C1495 C1503 1.433 . S
C1496 H1492 0.929 . S
C1496 C1498 1.378 . S
C1496 C1500 1.350 . S
C1497 C1500 1.463 . S
C1497 C1502 1.350 . S
C1497 N1505 1.427 . S
C1498 H1489 0.930 . S
C1498 C1496 1.378 . S
C1498 C1499 1.367 . S
C1499 C1498 1.367 . S
C1499 C1501 1.433 . S
C1500 C1496 1.350 . S
C1500 C1497 1.463 . S
C1500 N1504 1.427 . S
C1501 H1491 0.929 . S
C1501 C1499 1.433 . S
C1501 N1504 1.384 . S
C1502 H1493 0.929 . S
C1502 C1494 1.378 . S
C1502 C1497 1.350 . S
C1503 H1490 0.929 . S
C1503 C1495 1.433 . S
C1503 N1505 1.384 . S
N1504 C1500 1.427 . S
N1504 C1501 1.384 . S
N1505 C1497 1.427 . S
N1505 C1503 1.384 . S
H1506 C1512 0.930 . S
H1507 C1516 0.930 . S
H1508 C1521 0.929 . S
H1509 C1519 0.929 . S
H1510 C1514 0.929 . S
H1511 C1520 0.929 . S
C1512 H1506 0.930 . S
C1512 C1513 1.367 . S
C1512 C1520 1.378 . S
C1513 C1512 1.367 . S
C1513 C1521 1.433 . S
C1514 H1510 0.929 . S
C1514 C1516 1.378 . S
C1514 C1518 1.350 . S
C1515 C1518 1.463 . S
C1515 C1520 1.350 . S
C1515 N1523 1.427 . S
C1516 H1507 0.930 . S
C1516 C1514 1.378 . S
C1516 C1517 1.367 . S
C1517 C1516 1.367 . S
C1517 C1519 1.433 . S
C1518 C1514 1.350 . S
C1518 C1515 1.463 . S
C1518 N1522 1.427 . S
C1519 H1509 0.929 . S
C1519 C1517 1.433 . S
C1519 N1522 1.384 . S
C1520 H1511 0.929 . S
C1520 C1512 1.378 . S
C1520 C1515 1.350 . S
C1521 H1508 0.929 . S
C1521 C1513 1.433 . S
C1521 N1523 1.384 . S
N1522 C1518 1.427 . S
N1522 C1519 1.384 . S
N1523 C1515 1.427 . S
N1523 C1521 1.384 . S
H1524 C1530 0.930 . S
H1525 C1534 0.930 . S
H1526 C1539 0.929 . S
H1527 C1537 0.929 . S
H1528 C1532 0.929 . S
H1529 C1538 0.929 . S
C1530 H1524 0.930 . S
C1530 C1531 1.367 . S
C1530 C1538 1.378 . S
C1531 C1530 1.367 . S
C1531 C1539 1.433 . S
C1532 H1528 0.929 . S
C1532 C1534 1.378 . S
C1532 C1536 1.350 . S
C1533 C1536 1.463 . S
C1533 C1538 1.350 . S
C1533 N1541 1.427 . S
C1534 H1525 0.930 . S
C1534 C1532 1.378 . S
C1534 C1535 1.367 . S
C1535 C1534 1.367 . S
C1535 C1537 1.433 . S
C1536 C1532 1.350 . S
C1536 C1533 1.463 . S
C1536 N1540 1.427 . S
C1537 H1527 0.929 . S
C1537 C1535 1.433 . S
C1537 N1540 1.384 . S
C1538 H1529 0.929 . S
C1538 C1530 1.378 . S
C1538 C1533 1.350 . S
C1539 H1526 0.929 . S
C1539 C1531 1.433 . S
C1539 N1541 1.384 . S
N1540 C1536 1.427 . S
N1540 C1537 1.384 . S
N1541 C1533 1.427 . S
N1541 C1539 1.384 . S
H1542 C1548 0.930 . S
H1543 C1552 0.930 . S
H1544 C1557 0.929 . S
H1545 C1555 0.929 . S
H1546 C1550 0.929 . S
H1547 C1556 0.929 . S
C1548 H1542 0.930 . S
C1548 C1549 1.367 . S
C1548 C1556 1.378 . S
C1549 C1548 1.367 . S
C1549 C1557 1.433 . S
C1550 H1546 0.929 . S
C1550 C1552 1.378 . S
C1550 C1554 1.350 . S
C1551 C1554 1.463 . S
C1551 C1556 1.350 . S
C1551 N1559 1.427 . S
C1552 H1543 0.930 . S
C1552 C1550 1.378 . S
C1552 C1553 1.367 . S
C1553 C1552 1.367 . S
C1553 C1555 1.433 . S
C1554 C1550 1.350 . S
C1554 C1551 1.463 . S
C1554 N1558 1.427 . S
C1555 H1545 0.929 . S
C1555 C1553 1.433 . S
C1555 N1558 1.384 . S
C1556 H1547 0.929 . S
C1556 C1548 1.378 . S
C1556 C1551 1.350 . S
C1557 H1544 0.929 . S
C1557 C1549 1.433 . S
C1557 N1559 1.384 . S
N1558 C1554 1.427 . S
N1558 C1555 1.384 . S
N1559 C1551 1.427 . S
N1559 C1557 1.384 . S
H1560 C1566 0.930 . S
H1561 C1570 0.930 . S
H1562 C1575 0.929 . S
H1563 C1573 0.929 . S
H1564 C1568 0.929 . S
H1565 C1574 0.929 . S
C1566 H1560 0.930 . S
C1566 C1567 1.367 . S
C1566 C1574 1.378 . S
C1567 C1566 1.367 . S
C1567 C1575 1.433 . S
C1568 H1564 0.929 . S
C1568 C1570 1.378 . S
C1568 C1572 1.350 . S
C1569 C1572 1.463 . S
C1569 C1574 1.350 . S
C1569 N1577 1.427 . S
C1570 H1561 0.930 . S
C1570 C1568 1.378 . S
C1570 C1571 1.367 . S
C1571 C1570 1.367 . S
C1571 C1573 1.433 . S
C1572 C1568 1.350 . S
C1572 C1569 1.463 . S
C1572 N1576 1.427 . S
C1573 H1563 0.929 . S
C1573 C1571 1.433 . S
C1573 N1576 1.384 . S
C1574 H1565 0.929 . S
C1574 C1566 1.378 . S
C1574 C1569 1.350 . S
C1575 H1562 0.929 . S
C1575 C1567 1.433 . S
C1575 N1577 1.384 . S
N1576 C1572 1.427 . S
N1576 C1573 1.384 . S
N1577 C1569 1.427 . S
N1577 C1575 1.384 . S
H1578 C1584 0.930 . S
H1579 C1588 0.930 . S
H1580 C1593 0.929 . S
H1581 C1591 0.929 . S
H1582 C1586 0.929 . S
H1583 C1592 0.929 . S
C1584 H1578 0.930 . S
C1584 C1585 1.367 . S
C1584 C1592 1.378 . S
C1585 C1584 1.367 . S
C1585 C1593 1.433 . S
C1586 H1582 0.929 . S
C1586 C1588 1.378 . S
C1586 C1590 1.350 . S
C1587 C1590 1.463 . S
C1587 C1592 1.350 . S
C1587 N1595 1.427 . S
C1588 H1579 0.930 . S
C1588 C1586 1.378 . S
C1588 C1589 1.367 . S
C1589 C1588 1.367 . S
C1589 C1591 1.433 . S
C1590 C1586 1.350 . S
C1590 C1587 1.463 . S
C1590 N1594 1.427 . S
C1591 H1581 0.929 . S
C1591 C1589 1.433 . S
C1591 N1594 1.384 . S
C1592 H1583 0.929 . S
C1592 C1584 1.378 . S
C1592 C1587 1.350 . S
C1593 H1580 0.929 . S
C1593 C1585 1.433 . S
C1593 N1595 1.384 . S
N1594 C1590 1.427 . S
N1594 C1591 1.384 . S
N1595 C1587 1.427 . S
N1595 C1593 1.384 . S
H1596 C1602 0.930 . S
H1597 C1606 0.930 . S
H1598 C1611 0.929 . S
H1599 C1609 0.929 . S
H1600 C1604 0.929 . S
H1601 C1610 0.929 . S
C1602 H1596 0.930 . S
C1602 C1603 1.367 . S
C1602 C1610 1.378 . S
C1603 C1602 1.367 . S
C1603 C1611 1.433 . S
C1604 H1600 0.929 . S
C1604 C1606 1.378 . S
C1604 C1608 1.350 . S
C1605 C1608 1.463 . S
C1605 C1610 1.350 . S
C1605 N1613 1.427 . S
C1606 H1597 0.930 . S
C1606 C1604 1.378 . S
C1606 C1607 1.367 . S
C1607 C1606 1.367 . S
C1607 C1609 1.433 . S
C1608 C1604 1.350 . S
C1608 C1605 1.463 . S
C1608 N1612 1.427 . S
C1609 H1599 0.929 . S
C1609 C1607 1.433 . S
C1609 N1612 1.384 . S
C1610 H1601 0.929 . S
C1610 C1602 1.378 . S
C1610 C1605 1.350 . S
C1611 H1598 0.929 . S
C1611 C1603 1.433 . S
C1611 N1613 1.384 . S
N1612 C1608 1.427 . S
N1612 C1609 1.384 . S
N1613 C1605 1.427 . S
N1613 C1611 1.384 . S
H1614 C1620 0.930 . S
H1615 C1624 0.930 . S
H1616 C1629 0.929 . S
H1617 C1627 0.929 . S
H1618 C1622 0.929 . S
H1619 C1628 0.929 . S
C1620 H1614 0.930 . S
C1620 C1621 1.367 . S
C1620 C1628 1.378 . S
C1621 C1620 1.367 . S
C1621 C1629 1.433 . S
C1622 H1618 0.929 . S
C1622 C1624 1.378 . S
C1622 C1626 1.350 . S
C1623 C1626 1.463 . S
C1623 C1628 1.350 . S
C1623 N1631 1.427 . S
C1624 H1615 0.930 . S
C1624 C1622 1.378 . S
C1624 C1625 1.367 . S
C1625 C1624 1.367 . S
C1625 C1627 1.433 . S
C1626 C1622 1.350 . S
C1626 C1623 1.463 . S
C1626 N1630 1.427 . S
C1627 H1617 0.929 . S
C1627 C1625 1.433 . S
C1627 N1630 1.384 . S
C1628 H1619 0.929 . S
C1628 C1620 1.378 . S
C1628 C1623 1.350 . S
C1629 H1616 0.929 . S
C1629 C1621 1.433 . S
C1629 N1631 1.384 . S
N1630 C1626 1.427 . S
N1630 C1627 1.384 . S
N1631 C1623 1.427 . S
N1631 C1629 1.384 . S
H1632 C1638 0.930 . S
H1633 C1642 0.930 . S
H1634 C1647 0.929 . S
H1635 C1645 0.929 . S
H1636 C1640 0.929 . S
H1637 C1646 0.929 . S
C1638 H1632 0.930 . S
C1638 C1639 1.367 . S
C1638 C1646 1.378 . S
C1639 C1638 1.367 . S
C1639 C1647 1.433 . S
C1640 H1636 0.929 . S
C1640 C1642 1.378 . S
C1640 C1644 1.350 . S
C1641 C1644 1.463 . S
C1641 C1646 1.350 . S
C1641 N1649 1.427 . S
C1642 H1633 0.930 . S
C1642 C1640 1.378 . S
C1642 C1643 1.367 . S
C1643 C1642 1.367 . S
C1643 C1645 1.433 . S
C1644 C1640 1.350 . S
C1644 C1641 1.463 . S
C1644 N1648 1.427 . S
C1645 H1635 0.929 . S
C1645 C1643 1.433 . S
C1645 N1648 1.384 . S
C1646 H1637 0.929 . S
C1646 C1638 1.378 . S
C1646 C1641 1.350 . S
C1647 H1634 0.929 . S
C1647 C1639 1.433 . S
C1647 N1649 1.384 . S
N1648 C1644 1.427 . S
N1648 C1645 1.384 . S
N1649 C1641 1.427 . S
N1649 C1647 1.384 . S
H1650 C1656 0.930 . S
H1651 C1660 0.930 . S
H1652 C1665 0.929 . S
H1653 C1663 0.929 . S
H1654 C1658 0.929 . S
H1655 C1664 0.929 . S
C1656 H1650 0.930 . S
C1656 C1657 1.367 . S
C1656 C1664 1.378 . S
C1657 C1656 1.367 . S
C1657 C1665 1.433 . S
C1658 H1654 0.929 . S
C1658 C1660 1.378 . S
C1658 C1662 1.350 . S
C1659 C1662 1.463 . S
C1659 C1664 1.350 . S
C1659 N1667 1.427 . S
C1660 H1651 0.930 . S
C1660 C1658 1.378 . S
C1660 C1661 1.367 . S
C1661 C1660 1.367 . S
C1661 C1663 1.433 . S
C1662 C1658 1.350 . S
C1662 C1659 1.463 . S
C1662 N1666 1.427 . S
C1663 H1653 0.929 . S
C1663 C1661 1.433 . S
C1663 N1666 1.384 . S
C1664 H1655 0.929 . S
C1664 C1656 1.378 . S
C1664 C1659 1.350 . S
C1665 H1652 0.929 . S
C1665 C1657 1.433 . S
C1665 N1667 1.384 . S
N1666 C1662 1.427 . S
N1666 C1663 1.384 . S
N1667 C1659 1.427 . S
N1667 C1665 1.384 . S
H1668 C1674 0.930 . S
H1669 C1678 0.930 . S
H1670 C1683 0.929 . S
H1671 C1681 0.929 . S
H1672 C1676 0.929 . S
H1673 C1682 0.929 . S
C1674 H1668 0.930 . S
C1674 C1675 1.367 . S
C1674 C1682 1.378 . S
C1675 C1674 1.367 . S
C1675 C1683 1.433 . S
C1676 H1672 0.929 . S
C1676 C1678 1.378 . S
C1676 C1680 1.350 . S
C1677 C1680 1.463 . S
C1677 C1682 1.350 . S
C1677 N1685 1.427 . S
C1678 H1669 0.930 . S
C1678 C1676 1.378 . S
C1678 C1679 1.367 . S
C1679 C1678 1.367 . S
C1679 C1681 1.433 . S
C1680 C1676 1.350 . S
C1680 C1677 1.463 . S
C1680 N1684 1.427 . S
C1681 H1671 0.929 . S
C1681 C1679 1.433 . S
C1681 N1684 1.384 . S
C1682 H1673 0.929 . S
C1682 C1674 1.378 . S
C1682 C1677 1.350 . S
C1683 H1670 0.929 . S
C1683 C1675 1.433 . S
C1683 N1685 1.384 . S
N1684 C1680 1.427 . S
N1684 C1681 1.384 . S
N1685 C1677 1.427 . S
N1685 C1683 1.384 . S
H1686 C1692 0.930 . S
H1687 C1696 0.930 . S
H1688 C1701 0.929 . S
H1689 C1699 0.929 . S
H1690 C1694 0.929 . S
H1691 C1700 0.929 . S
C1692 H1686 0.930 . S
C1692 C1693 1.367 . S
C1692 C1700 1.378 . S
C1693 C1692 1.367 . S
C1693 C1701 1.433 . S
C1694 H1690 0.929 . S
C1694 C1696 1.378 . S
C1694 C1698 1.350 . S
C1695 C1698 1.463 . S
C1695 C1700 1.350 . S
C1695 N1703 1.427 . S
C1696 H1687 0.930 . S
C1696 C1694 1.378 . S
C1696 C1697 1.367 . S
C1697 C1696 1.367 . S
C1697 C1699 1.433 . S
C1698 C1694 1.350 . S
C1698 C1695 1.463 . S
C1698 N1702 1.427 . S
C1699 H1689 0.929 . S
C1699 C1697 1.433 . S
C1699 N1702 1.384 . S
C1700 H1691 0.929 . S
C1700 C1692 1.378 . S
C1700 C1695 1.350 . S
C1701 H1688 0.929 . S
C1701 C1693 1.433 . S
C1701 N1703 1.384 . S
N1702 C1698 1.427 . S
N1702 C1699 1.384 . S
N1703 C1695 1.427 . S
N1703 C1701 1.384 . S
H1704 C1710 0.930 . S
H1705 C1714 0.930 . S
H1706 C1719 0.929 . S
H1707 C1717 0.929 . S
H1708 C1712 0.929 . S
H1709 C1718 0.929 . S
C1710 H1704 0.930 . S
C1710 C1711 1.367 . S
C1710 C1718 1.378 . S
C1711 C1710 1.367 . S
C1711 C1719 1.433 . S
C1712 H1708 0.929 . S
C1712 C1714 1.378 . S
C1712 C1716 1.350 . S
C1713 C1716 1.463 . S
C1713 C1718 1.350 . S
C1713 N1721 1.427 . S
C1714 H1705 0.930 . S
C1714 C1712 1.378 . S
C1714 C1715 1.367 . S
C1715 C1714 1.367 . S
C1715 C1717 1.433 . S
C1716 C1712 1.350 . S
C1716 C1713 1.463 . S
C1716 N1720 1.427 . S
C1717 H1707 0.929 . S
C1717 C1715 1.433 . S
C1717 N1720 1.384 . S
C1718 H1709 0.929 . S
C1718 C1710 1.378 . S
C1718 C1713 1.350 . S
C1719 H1706 0.929 . S
C1719 C1711 1.433 . S
C1719 N1721 1.384 . S
N1720 C1716 1.427 . S
N1720 C1717 1.384 . S
N1721 C1713 1.427 . S
N1721 C1719 1.384 . S
C869 C683 1.656 . S
C865 C74 1.644 . S
C887 C673 1.396 . S
C883 C153 1.324 . S
C905 C674 1.262 . S
C901 C231 1.256 . S
C919 C310 0.797 . S
C923 C696 0.589 . S
C937 C394 1.311 . S
C941 C699 1.391 . S
C959 C682 1.251 . S
C955 C494 1.254 . S
C973 C573 0.754 . S
C977 C672 0.575 . S
C991 C651 1.651 . S
C995 C690 1.663 . S
C1013 C703 2.457 . S
C1009 C56 2.538 . S
C1027 C151 1.610 . S
C1031 C752 1.569 . S
C1049 C730 1.408 . S
C1045 C237 1.382 . S
C1067 C744 1.237 . S
C1063 C326 1.243 . S
C1081 C410 1.246 . S
C1085 C705 1.234 . S
C1103 C758 2.449 . S
C1099 C476 2.548 . S
C1117 C571 1.614 . S
C1121 C714 1.577 . S
C1135 C657 1.333 . S
C1139 C735 1.400 . S
C1153 C58 1.327 . S
C1157 C761 1.386 . S
C1171 C392 1.611 . S
C1175 C745 1.570 . S
C1193 C704 1.407 . S
C1189 C478 1.378 . S
C1211 C736 1.233 . S
C1207 C567 1.240 . S
C1225 C655 2.538 . S
C1229 C727 2.449 . S
C1243 C235 2.549 . S
C1247 C734 2.454 . S
C1265 C721 1.575 . S
C1261 C308 1.615 . S
C1279 C147 1.236 . S
C1283 C713 1.220 . S
C1297 C662 1.656 . S
C1301 C776 1.661 . S
C1315 C405 1.329 . S
C1319 C766 1.391 . S
C1337 C767 1.249 . S
C1333 C483 1.251 . S
C1355 C789 0.578 . S
C1351 C562 0.756 . S
C1369 C142 1.325 . S
C1373 C792 1.386 . S
C1391 C775 1.255 . S
C1387 C242 1.258 . S
C1405 C321 0.751 . S
C1409 C765 0.568 . S
C1423 C63 1.644 . S
C1427 C783 1.653 . S
C1441 C644 2.538 . S
C1445 C796 2.455 . S
C1463 C845 1.573 . S
C1459 C403 1.610 . S
C1477 C489 1.368 . S
C1481 C823 1.417 . S
C1495 C578 1.243 . S
C1499 C837 1.238 . S
C1517 C798 1.234 . S
C1513 C158 1.245 . S
C1531 C224 2.547 . S
C1535 C851 2.450 . S
C1553 C807 1.581 . S
C1549 C319 1.613 . S
C1571 C828 1.391 . S
C1567 C69 1.318 . S
C1589 C854 1.390 . S
C1585 C646 1.318 . S
C1603 C140 1.609 . S
C1607 C838 1.573 . S
C1621 C226 1.385 . S
C1625 C797 1.420 . S
C1643 C829 1.242 . S
C1639 C315 1.242 . S
C1657 C67 2.539 . S
C1661 C820 2.454 . S
C1675 C487 2.548 . S
C1679 C827 2.450 . S
C1697 C814 1.577 . S
C1693 C560 1.614 . S
C1715 C806 1.220 . S
C1711 C399 1.236 . S
