# Generated by pormake.
# Topology tsx, (6,3)-cn, num edge types: 1
# Building blocks:
#     Node 0, Type 0, BuildingBlock: MIDCAF_clean_sbu_0, # of connection points: 6
#     Node 1, Type 0, BuildingBlock: MIDCAF_clean_sbu_0, # of connection points: 6
#     Node 2, Type 1, BuildingBlock: OLANEW_clean_sbu_2, # of connection points: 3
#     Node 3, Type 1, BuildingBlock: OLANEW_clean_sbu_2, # of connection points: 3
#     Node 4, Type 1, BuildingBlock: OLANEW_clean_sbu_2, # of connection points: 3
#     Node 5, Type 1, BuildingBlock: OLANEW_clean_sbu_2, # of connection points: 3
#     Edge 6, Type (0, 1), BuildingBlock: MIFKUJ_clean_linker_0, # of connection points: 2
#     Edge 7, Type (0, 1), BuildingBlock: MIFKUJ_clean_linker_0, # of connection points: 2
#     Edge 8, Type (0, 1), BuildingBlock: MIFKUJ_clean_linker_0, # of connection points: 2
#     Edge 9, Type (0, 1), BuildingBlock: MIFKUJ_clean_linker_0, # of connection points: 2
#     Edge 10, Type (0, 1), BuildingBlock: MIFKUJ_clean_linker_0, # of connection points: 2
#     Edge 11, Type (0, 1), BuildingBlock: MIFKUJ_clean_linker_0, # of connection points: 2
#     Edge 12, Type (0, 1), BuildingBlock: MIFKUJ_clean_linker_0, # of connection points: 2
#     Edge 13, Type (0, 1), BuildingBlock: MIFKUJ_clean_linker_0, # of connection points: 2
#     Edge 14, Type (0, 1), BuildingBlock: MIFKUJ_clean_linker_0, # of connection points: 2
#     Edge 15, Type (0, 1), BuildingBlock: MIFKUJ_clean_linker_0, # of connection points: 2
#     Edge 16, Type (0, 1), BuildingBlock: MIFKUJ_clean_linker_0, # of connection points: 2
#     Edge 17, Type (0, 1), BuildingBlock: MIFKUJ_clean_linker_0, # of connection points: 2
# Relax obj value: 0.070
# Max RMSD: 0.154
# Mean RMSD: 0.100
data_MOF--net-tsx--node1-MIDCAF_clean_sbu_0--node2-OLANEW_clean_sbu_2--edge1-MIFKUJ_clean_linker_0
_symmetry_space_group_name_H-M    P1
_symmetry_Int_Tables_number       1
_symmetry_cell_setting            triclinic
loop_
_symmetry_equiv_pos_as_xyz
'x, y, z'
_cell_length_a     27.98301
_cell_length_b     28.786208
_cell_length_c     47.299699
_cell_angle_alpha  96.171089
_cell_angle_beta   94.080004
_cell_angle_gamma 89.886576
loop_
_atom_site_label
_atom_site_type_symbol
_atom_site_fract_x
_atom_site_fract_y
_atom_site_fract_z
_atom_type_partial_charge
Zn0 Zn 0.93543 0.02123 0.00582 0.0
Zn1 Zn 0.1251 0.03009 0.04077 0.0
Zn2 Zn 0.03076 0.02905 0.02153 0.0
C3 C 0.09145 0.12309 0.03714 0.0
C4 C 0.11635 0.97828 0.98696 0.0
O5 O 0.9948 0.9816 0.0471 0.0
O6 O 0.919 0.9729 0.03054 0.0
C7 C 0.95858 0.11625 0.02074 0.0
O8 O 0.05038 0.10292 0.03169 0.0
O9 O 0.12914 0.09925 0.04005 0.0
O10 O 0.14683 0.98877 0.00768 0.0
O11 O 0.07266 0.9921 0.98829 0.0
O12 O 0.92286 0.08888 0.01724 0.0
O13 O 0.00146 0.09995 0.02159 0.0
O14 O 0.026 0.00067 0.97695 0.0
O15 O 0.94812 0.00195 0.96484 0.0
C16 C 0.99064 0.99507 0.95794 0.0
O17 O 0.03818 0.99781 0.06188 0.0
O18 O 0.11443 0.00466 0.07782 0.0
C19 C 0.95344 0.962 0.04721 0.0
C20 C 0.07187 0.99319 0.0814 0.0
Zn21 Zn 0.63552 0.46119 0.52853 0.0
Zn22 Zn 0.46633 0.50516 0.47146 0.0
Zn23 Zn 0.55301 0.48528 0.49766 0.0
C24 C 0.52209 0.45204 0.43174 0.0
C25 C 0.51733 0.58939 0.48874 0.0
O26 O 0.53569 0.45487 0.53651 0.0
O27 O 0.60278 0.43159 0.5583 0.0
C28 C 0.63466 0.41722 0.47187 0.0
O29 O 0.5532 0.45337 0.45325 0.0
O30 O 0.48151 0.47077 0.43436 0.0
O31 O 0.47736 0.5738 0.47768 0.0
O32 O 0.5502 0.56162 0.49707 0.0
O33 O 0.66024 0.42285 0.49512 0.0
O34 O 0.59387 0.43763 0.46918 0.0
O35 O 0.59221 0.54984 0.51262 0.0
O36 O 0.65589 0.52787 0.53848 0.0
C37 C 0.63076 0.55976 0.52862 0.0
O38 O 0.49308 0.45721 0.51853 0.0
O39 O 0.42424 0.47585 0.49654 0.0
C40 C 0.55787 0.43674 0.55746 0.0
C41 C 0.44695 0.45588 0.51577 0.0
O42 O 0.08534 0.90574 0.38345 0.0
Cd43 Cd 0.10375 0.91593 0.43509 0.0
O44 O 0.05564 0.97605 0.39005 0.0
Cd45 Cd 0.01557 0.03467 0.37513 0.0
O46 O 0.96284 0.08756 0.36611 0.0
C47 C 0.92006 0.07508 0.35806 0.0
O48 O 0.90926 0.03033 0.3545 0.0
C49 C 0.06523 0.9404 0.37322 0.0
C50 C 0.19787 0.89102 0.44946 0.0
O51 O 0.16347 0.86122 0.44738 0.0
O52 O 0.18777 0.93314 0.44489 0.0
O53 O 0.99226 0.18062 0.69187 0.0
Cd54 Cd 0.98449 0.23541 0.65635 0.0
O55 O 0.93203 0.13921 0.67058 0.0
Cd56 Cd 0.88258 0.08018 0.66114 0.0
O57 O 0.83285 0.02607 0.64136 0.0
C58 C 0.81778 0.99435 0.65524 0.0
O59 O 0.83223 0.99439 0.68229 0.0
C60 C 0.96535 0.14488 0.69039 0.0
C61 C 0.07641 0.26179 0.64584 0.0
O62 O 0.05198 0.28741 0.66334 0.0
O63 O 0.05689 0.22444 0.63292 0.0
O64 O 0.53756 0.45701 0.86276 0.0
Cd65 Cd 0.55897 0.47826 0.91364 0.0
O66 O 0.49992 0.52346 0.86254 0.0
Cd67 Cd 0.46048 0.58285 0.84734 0.0
O68 O 0.41378 0.64331 0.84493 0.0
C69 C 0.37101 0.63899 0.83395 0.0
O70 O 0.35561 0.5976 0.82257 0.0
C71 C 0.51237 0.48514 0.8491 0.0
C72 C 0.6446 0.43784 0.9325 0.0
O73 O 0.60449 0.41611 0.93161 0.0
O74 O 0.6444 0.4789 0.92435 0.0
O75 O 0.67102 0.45215 0.14084 0.0
Cd76 Cd 0.70044 0.4738 0.09685 0.0
O77 O 0.59654 0.45052 0.123 0.0
Cd78 Cd 0.51862 0.43908 0.11987 0.0
O79 O 0.44248 0.42032 0.11613 0.0
C80 C 0.40905 0.44846 0.11016 0.0
O81 O 0.41995 0.49154 0.10619 0.0
C82 C 0.62681 0.44602 0.14396 0.0
C83 C 0.76037 0.55182 0.10825 0.0
O84 O 0.71498 0.55608 0.10355 0.0
O85 O 0.77763 0.51045 0.10742 0.0
H86 H 0.0375 0.18781 0.0674 0.0
H87 H 0.05897 0.27066 0.08091 0.0
H88 H 0.1781 0.25471 0.02752 0.0
H89 H 0.15719 0.17295 0.01451 0.0
H90 H 0.1422 0.2947 0.11057 0.0
H91 H 0.20655 0.35074 0.00238 0.0
H92 H 0.17235 0.35003 0.9529 0.0
H93 H 0.03035 0.34158 0.98098 0.0
H94 H 0.06355 0.34325 0.03071 0.0
H95 H 0.37528 0.36243 0.11806 0.0
H96 H 0.2938 0.33284 0.10908 0.0
H97 H 0.24627 0.46675 0.08511 0.0
H98 H 0.32868 0.49668 0.09367 0.0
H99 H 0.21031 0.40054 0.04746 0.0
H100 H 0.20674 0.42829 0.14587 0.0
H101 H 0.23475 0.43235 0.19668 0.0
H102 H 0.24288 0.2827 0.19051 0.0
H103 H 0.21568 0.27766 0.13957 0.0
C104 C 0.06724 0.20273 0.05794 0.0
C105 C 0.09609 0.17428 0.04017 0.0
C106 C 0.07951 0.24986 0.06567 0.0
C107 C 0.12005 0.26897 0.05516 0.0
C108 C 0.14624 0.24115 0.03558 0.0
C109 C 0.13455 0.19426 0.02831 0.0
C110 C 0.14121 0.3143 0.06788 0.0
C111 C 0.15629 0.31862 0.09696 0.0
C112 C 0.15757 0.34702 0.05043 0.0
C113 C 0.13764 0.34722 0.02043 0.0
C114 C 0.16801 0.34934 0.99812 0.0
C115 C 0.14878 0.34861 0.96996 0.0
C116 C 0.09923 0.34579 0.96379 0.0
C117 C 0.06874 0.34376 0.98576 0.0
C118 C 0.08776 0.34457 0.01395 0.0
C119 C 0.34756 0.3859 0.11118 0.0
C120 C 0.35862 0.43192 0.10653 0.0
C121 C 0.30072 0.36902 0.10629 0.0
C122 C 0.26357 0.39779 0.0969 0.0
C123 C 0.27424 0.44403 0.09257 0.0
C124 C 0.32135 0.46104 0.09748 0.0
C125 C 0.21498 0.37735 0.08939 0.0
C126 C 0.19481 0.37801 0.06137 0.0
C127 C 0.19284 0.35015 0.10806 0.0
C128 C 0.20903 0.35264 0.13881 0.0
C129 C 0.21469 0.39622 0.15529 0.0
C130 C 0.23043 0.3987 0.18414 0.0
C131 C 0.24055 0.35781 0.19681 0.0
C132 C 0.23491 0.31435 0.18067 0.0
C133 C 0.2192 0.31166 0.15181 0.0
H134 H 0.25276 0.35981 0.21915 0.0
H135 H 0.08446 0.34513 0.94197 0.0
H136 H 0.20457 0.9757 0.96662 0.0
H137 H 0.23285 0.92315 0.92752 0.0
H138 H 0.09126 0.86285 0.91057 0.0
H139 H 0.06311 0.91465 0.95053 0.0
H140 H 0.1561 0.7972 0.91536 0.0
H141 H 0.13939 0.92455 0.86129 0.0
H142 H 0.14485 0.00533 0.84894 0.0
H143 H 0.2984 -0.0016 0.85718 0.0
H144 H 0.29388 0.91754 0.8695 0.0
H145 H 0.27454 0.63936 0.81907 0.0
H146 H 0.21774 0.70161 0.83177 0.0
H147 H 0.33442 0.79004 0.86992 0.0
H148 H 0.39137 0.72846 0.85705 0.0
H149 H 0.26382 0.84039 0.84335 0.0
H150 H 0.27567 0.72081 0.90977 0.0
H151 H 0.26937 0.63992 0.92193 0.0
H152 H 0.12165 0.63419 0.89011 0.0
H153 H 0.12732 0.71492 0.87745 0.0
C154 C 0.17931 0.95163 0.95435 0.0
C155 C 0.13159 0.94942 0.96149 0.0
C156 C 0.19536 0.92197 0.93176 0.0
C157 C 0.16402 0.8895 0.91579 0.0
C158 C 0.11595 0.88793 0.92244 0.0
C159 C 0.09986 0.91765 0.94516 0.0
C160 C 0.18346 0.85378 0.89471 0.0
C161 C 0.17844 0.80663 0.89901 0.0
C162 C 0.21305 0.86602 0.87356 0.0
C163 C 0.21621 0.91487 0.86635 0.0
C164 C 0.1743 0.94029 0.86057 0.0
C165 C 0.17723 0.9861 0.85356 0.0
C166 C 0.22193 0.00703 0.85238 0.0
C167 C 0.26379 0.98212 0.85808 0.0
C168 C 0.26105 0.9362 0.86496 0.0
C169 C 0.28821 0.67238 0.82967 0.0
C170 C 0.33742 0.67867 0.83749 0.0
C171 C 0.25568 0.7079 0.8369 0.0
C172 C 0.27181 0.75016 0.85215 0.0
C173 C 0.32118 0.75768 0.85817 0.0
C174 C 0.35368 0.72228 0.85095 0.0
C175 C 0.23767 0.78443 0.86488 0.0
C176 C 0.24013 0.83112 0.85906 0.0
C177 C 0.2055 0.7719 0.88459 0.0
C178 C 0.20207 0.72357 0.89235 0.0
C179 C 0.24196 0.70215 0.9052 0.0
C180 C 0.23849 0.65638 0.9122 0.0
C181 C 0.19518 0.63187 0.90671 0.0
C182 C 0.1552 0.65317 0.89428 0.0
C183 C 0.15852 0.69891 0.88719 0.0
H184 H 0.19256 0.59644 0.91214 0.0
H185 H 0.22414 0.04253 0.84699 0.0
H186 H 0.02047 0.9007 0.06533 0.0
H187 H 0.0072 0.83285 0.09068 0.0
H188 H 0.85758 0.86838 0.09361 0.0
H189 H 0.87111 0.93723 0.06915 0.0
H190 H 0.89094 0.8313 0.14191 0.0
H191 H 0.89963 0.79381 0.03774 0.0
H192 H 0.94296 0.79176 0.99394 0.0
H193 H 0.05658 0.71391 0.0323 0.0
H194 H 0.01404 0.71596 0.07642 0.0
H195 H 0.73347 0.64322 0.11449 0.0
H196 H 0.7849 0.7121 0.11874 0.0
H197 H 0.91007 0.62431 0.11852 0.0
H198 H 0.85853 0.55481 0.11394 0.0
H199 H 0.91372 0.68346 0.08023 0.0
H200 H 0.89017 0.69934 0.17796 0.0
H201 H 0.84777 0.70091 0.22197 0.0
H202 H 0.76504 0.81825 0.19831 0.0
H203 H 0.80637 0.81699 0.15393 0.0
C204 C 0.98509 0.89483 0.07218 0.0
C205 C 0.94679 0.92426 0.06536 0.0
C206 C 0.97751 0.85591 0.08658 0.0
C207 C 0.9313 0.84528 0.09384 0.0
C208 C 0.89358 0.876 0.08832 0.0
C209 C 0.90121 0.91504 0.07409 0.0
C210 C 0.92024 0.79961 0.10369 0.0
C211 C 0.89591 0.79883 0.12856 0.0
C212 C 0.92882 0.75707 0.08694 0.0
C213 C 0.95394 0.75536 0.06036 0.0
C214 C 0.93393 0.7764 0.03681 0.0
C215 C 0.95833 0.77526 0.01196 0.0
C216 C 0.00255 0.75281 0.01036 0.0
C217 C 0.02237 0.73134 0.03359 0.0
C218 C 0.99814 0.73245 0.0585 0.0
C219 C 0.77194 0.63848 0.11574 0.0
C220 C 0.79189 0.59352 0.11361 0.0
C221 C 0.80139 0.67799 0.1185 0.0
C222 C 0.85144 0.67346 0.11931 0.0
C223 C 0.87157 0.62864 0.11812 0.0
C224 C 0.84206 0.58898 0.11544 0.0
C225 C 0.88163 0.71528 0.11764 0.0
C226 C 0.90983 0.7154 0.09428 0.0
C227 C 0.87671 0.75706 0.13591 0.0
C228 C 0.85133 0.75792 0.1625 0.0
C229 C 0.86267 0.72526 0.182 0.0
C230 C 0.83886 0.72614 0.20705 0.0
C231 C 0.80371 0.75963 0.21292 0.0
C232 C 0.79231 0.79234 0.19375 0.0
C233 C 0.81599 0.79161 0.16866 0.0
H234 H 0.78533 0.76026 0.23233 0.0
H235 H 0.0214 0.75197 0.99112 0.0
H236 H 0.00754 0.17709 0.99304 0.0
H237 H 0.97821 0.25309 0.98023 0.0
H238 H 0.86032 0.24392 0.0334 0.0
H239 H 0.8886 0.16769 0.0455 0.0
H240 H 0.88454 0.25122 0.95163 0.0
H241 H 0.83148 0.35921 0.05731 0.0
H242 H 0.86818 0.3804 0.1059 0.0
H243 H 0.00832 0.35731 0.07573 0.0
H244 H 0.97259 0.33699 0.02686 0.0
H245 H 0.65773 0.3474 0.94313 0.0
H246 H 0.73188 0.3104 0.95907 0.0
H247 H 0.80779 0.44101 0.96092 0.0
H248 H 0.73337 0.47857 0.94468 0.0
H249 H 0.82908 0.39179 0.01018 0.0
H250 H 0.82885 0.36593 0.90917 0.0
H251 H 0.7941 0.34449 0.86013 0.0
H252 H 0.76714 0.20518 0.87984 0.0
H253 H 0.80106 0.22596 0.92913 0.0
C254 C 0.97642 0.19223 0.0028 0.0
C255 C 0.94998 0.16659 0.02006 0.0
C256 C 0.95967 0.23548 0.9954 0.0
C257 C 0.91708 0.25395 0.00582 0.0
C258 C 0.89348 0.23043 0.02533 0.0
C259 C 0.90953 0.18686 0.03217 0.0
C260 C 0.8917 0.29215 0.99257 0.0
C261 C 0.87315 0.28248 0.96423 0.0
C262 C 0.87763 0.33322 0.00896 0.0
C263 C 0.89925 0.34632 0.03835 0.0
C264 C 0.87014 0.35902 0.06095 0.0
C265 C 0.89078 0.37084 0.08858 0.0
C266 C 0.94053 0.37014 0.09391 0.0
C267 C 0.96978 0.35775 0.0716 0.0
C268 C 0.94933 0.34604 0.04393 0.0
C269 C 0.6901 0.36838 0.94692 0.0
C270 C 0.68969 0.41588 0.94251 0.0
C271 C 0.73249 0.34715 0.95598 0.0
C272 C 0.77533 0.37292 0.96093 0.0
C273 C 0.77506 0.42057 0.95712 0.0
C274 C 0.7326 0.44184 0.94775 0.0
C275 C 0.82004 0.34915 0.96985 0.0
C276 C 0.84175 0.36138 0.99733 0.0
C277 C 0.83746 0.31049 0.95262 0.0
C278 C 0.8174 0.2976 0.9229 0.0
C279 C 0.81527 0.3308 0.9031 0.0
C280 C 0.79574 0.31875 0.87525 0.0
C281 C 0.7784 0.27351 0.86688 0.0
C282 C 0.78063 0.2402 0.88635 0.0
C283 C 0.80008 0.25208 0.91423 0.0
H284 H 0.76328 0.26426 0.84531 0.0
H285 H 0.95642 0.37922 0.11533 0.0
H286 H 0.6613 0.59589 0.58182 0.0
H287 H 0.67929 0.67763 0.59869 0.0
H288 H 0.64607 0.71582 0.51375 0.0
H289 H 0.62907 0.63326 0.49666 0.0
H290 H 0.73153 0.75417 0.53962 0.0
H291 H 0.57064 0.74303 0.56058 0.0
H292 H 0.49836 0.71195 0.57878 0.0
H293 H 0.56278 0.7338 0.66427 0.0
H294 H 0.63583 0.76474 0.64664 0.0
H295 H 0.77735 0.98695 0.60054 0.0
H296 H 0.73191 0.92096 0.57511 0.0
H297 H 0.74342 0.84941 0.65087 0.0
H298 H 0.78803 0.91561 0.67664 0.0
H299 H 0.65578 0.83583 0.62267 0.0
H300 H 0.82215 0.82809 0.59887 0.0
H301 H 0.89504 0.8582 0.58051 0.0
H302 H 0.81851 0.8698 0.49962 0.0
H303 H 0.74498 0.84027 0.51765 0.0
C304 C 0.65808 0.62173 0.56675 0.0
C305 C 0.64328 0.60875 0.53804 0.0
C306 C 0.66785 0.66837 0.57643 0.0
C307 C 0.66321 0.70275 0.55754 0.0
C308 C 0.64933 0.68977 0.52867 0.0
C309 C 0.63926 0.64294 0.51901 0.0
C310 C 0.67519 0.75179 0.56814 0.0
C311 C 0.71419 0.77261 0.55731 0.0
C312 C 0.65279 0.77531 0.59143 0.0
C313 C 0.60899 0.75621 0.60222 0.0
C314 C 0.56971 0.7409 0.58325 0.0
C315 C 0.52848 0.72342 0.59347 0.0
C316 C 0.52598 0.72094 0.62265 0.0
C317 C 0.56473 0.73592 0.64167 0.0
C318 C 0.60604 0.75358 0.63157 0.0
C319 C 0.7698 0.95738 0.6119 0.0
C320 C 0.78683 0.95626 0.64053 0.0
C321 C 0.74383 0.9197 0.59731 0.0
C322 C 0.7349 0.88001 0.61098 0.0
C323 C 0.74993 0.8797 0.63991 0.0
C324 C 0.77566 0.91748 0.65457 0.0
C325 C 0.71317 0.83737 0.59479 0.0
C326 C 0.67236 0.81779 0.6046 0.0
C327 C 0.73384 0.81485 0.57053 0.0
C328 C 0.77799 0.83256 0.55971 0.0
C329 C 0.8208 0.83742 0.57724 0.0
C330 C 0.86223 0.85431 0.56689 0.0
C331 C 0.86136 0.86606 0.53895 0.0
C332 C 0.81909 0.8608 0.52128 0.0
C333 C 0.77755 0.84398 0.53155 0.0
H334 H 0.89347 0.87912 0.53096 0.0
H335 H 0.494 0.7074 0.63051 0.0
H336 H 0.58361 0.35454 0.43377 0.0
H337 H 0.6161 0.29767 0.39763 0.0
H338 H 0.75831 0.3527 0.42163 0.0
H339 H 0.72596 0.40983 0.45707 0.0
H340 H 0.74474 0.32793 0.36383 0.0
H341 H 0.71448 0.26181 0.45295 0.0
H342 H 0.66065 0.24027 0.48862 0.0
H343 H 0.57582 0.1562 0.42316 0.0
H344 H 0.62896 0.17762 0.3871 0.0
H345 H 0.92936 0.16958 0.36955 0.0
H346 H 0.86572 0.22702 0.37226 0.0
H347 H 0.76108 0.11919 0.3433 0.0
H348 H 0.82496 0.06091 0.34131 0.0
H349 H 0.73427 0.16543 0.38879 0.0
H350 H 0.78001 0.2116 0.30293 0.0
H351 H 0.83272 0.23194 0.26649 0.0
H352 H 0.88495 0.35187 0.3218 0.0
H353 H 0.83317 0.33188 0.35879 0.0
C354 C 0.6216 0.35505 0.43074 0.0
C355 C 0.65241 0.3864 0.44808 0.0
C356 C 0.64008 0.32262 0.41018 0.0
C357 C 0.68964 0.32085 0.40709 0.0
C358 C 0.71994 0.35365 0.42354 0.0
C359 C 0.70154 0.38593 0.44396 0.0
C360 C 0.71155 0.28185 0.38963 0.0
C361 C 0.74254 0.2923 0.36912 0.0
C362 C 0.70676 0.23507 0.39561 0.0
C363 C 0.67524 0.2218 0.41732 0.0
C364 C 0.68417 0.23895 0.44617 0.0
C365 C 0.65383 0.22673 0.46645 0.0
C366 C 0.61473 0.19702 0.45814 0.0
C367 C 0.60602 0.17932 0.42955 0.0
C368 C 0.63623 0.19149 0.40919 0.0
C369 C 0.89295 0.15808 0.36327 0.0
C370 C 0.88215 0.11057 0.35562 0.0
C371 C 0.8565 0.19114 0.36453 0.0
C372 C 0.80849 0.17761 0.35772 0.0
C373 C 0.79784 0.13048 0.34863 0.0
C374 C 0.83437 0.09722 0.34754 0.0
C375 C 0.76978 0.21176 0.36394 0.0
C376 C 0.73562 0.20053 0.3825 0.0
C377 C 0.77135 0.25766 0.35586 0.0
C378 C 0.80273 0.27008 0.33372 0.0
C379 C 0.80298 0.24214 0.30743 0.0
C380 C 0.83267 0.25364 0.28664 0.0
C381 C 0.86219 0.29316 0.29183 0.0
C382 C 0.86202 0.32129 0.3178 0.0
C383 C 0.83242 0.30993 0.33867 0.0
H384 H 0.88516 0.30201 0.27571 0.0
H385 H 0.59127 0.1876 0.47387 0.0
H386 H 0.46472 0.37006 0.53314 0.0
H387 H 0.41677 0.32846 0.56419 0.0
H388 H 0.32259 0.44696 0.57427 0.0
H389 H 0.36944 0.48796 0.54267 0.0
H390 H 0.35444 0.39517 0.62747 0.0
H391 H 0.28289 0.37691 0.52751 0.0
H392 H 0.28968 0.35351 0.47623 0.0
H393 H 0.33493 0.21653 0.49442 0.0
H394 H 0.329 0.23947 0.54589 0.0
H395 H 0.11831 0.34799 0.65656 0.0
H396 H 0.19664 0.37138 0.64318 0.0
H397 H 0.22454 0.2287 0.61059 0.0
H398 H 0.14522 0.20566 0.62274 0.0
H399 H 0.24232 0.27935 0.57308 0.0
H400 H 0.29051 0.28839 0.67067 0.0
H401 H 0.28835 0.30798 0.72257 0.0
H402 H 0.29586 0.45413 0.71244 0.0
H403 H 0.29707 0.43558 0.66041 0.0
C404 C 0.43397 0.38717 0.54224 0.0
C405 C 0.42021 0.43181 0.53548 0.0
C406 C 0.40699 0.36365 0.56004 0.0
C407 C 0.36656 0.38498 0.57155 0.0
C408 C 0.35404 0.43032 0.56574 0.0
C409 C 0.38032 0.45337 0.54749 0.0
C410 C 0.33346 0.35828 0.58655 0.0
C411 C 0.32972 0.36976 0.61584 0.0
C412 C 0.30303 0.32385 0.57136 0.0
C413 C 0.30609 0.31004 0.54048 0.0
C414 C 0.29468 0.34195 0.52057 0.0
C415 C 0.2983 0.32876 0.49148 0.0
C416 C 0.31289 0.28361 0.48207 0.0
C417 C 0.32375 0.25152 0.50174 0.0
C418 C 0.32026 0.26459 0.53085 0.0
C419 C 0.14142 0.32154 0.64686 0.0
C420 C 0.12549 0.27515 0.64035 0.0
C421 C 0.18649 0.33483 0.6395 0.0
C422 C 0.21691 0.30174 0.62612 0.0
C423 C 0.20177 0.25491 0.62084 0.0
C424 C 0.15637 0.2418 0.6277 0.0
C425 C 0.26135 0.31712 0.61435 0.0
C426 C 0.26741 0.30365 0.58538 0.0
C427 C 0.29443 0.34897 0.63016 0.0
C428 C 0.29336 0.36053 0.6615 0.0
C429 C 0.29114 0.32475 0.67944 0.0
C430 C 0.29009 0.33568 0.7089 0.0
C431 C 0.29158 0.38228 0.72076 0.0
C432 C 0.29445 0.41806 0.7032 0.0
C433 C 0.29536 0.40734 0.6737 0.0
H434 H 0.29088 0.39065 0.74359 0.0
H435 H 0.31566 0.27345 0.45955 0.0
H436 H 0.55967 0.64204 0.45339 0.0
H437 H 0.54248 0.7246 0.4494 0.0
H438 H 0.4676 0.73141 0.52649 0.0
H439 H 0.48662 0.64989 0.53089 0.0
H440 H 0.45643 0.73842 0.43651 0.0
H441 H 0.43582 0.83355 0.5524 0.0
H442 H 0.48776 0.85756 0.59577 0.0
H443 H 0.61181 0.84549 0.54711 0.0
H444 H 0.56071 0.82157 0.50339 0.0
H445 H 0.22912 0.80404 0.4586 0.0
H446 H 0.31142 0.77824 0.46638 0.0
H447 H 0.36264 0.91863 0.46326 0.0
H448 H 0.27962 0.94515 0.4554 0.0
H449 H 0.41144 0.86738 0.50766 0.0
H450 H 0.37862 0.85523 0.40783 0.0
H451 H 0.33035 0.8379 0.36225 0.0
H452 H 0.32466 0.69285 0.37553 0.0
H453 H 0.37224 0.70939 0.42141 0.0
C454 C 0.54207 0.6622 0.4703 0.0
C455 C 0.52425 0.64011 0.49239 0.0
C456 C 0.53216 0.70932 0.46803 0.0
C457 C 0.50304 0.73431 0.48736 0.0
C458 C 0.49056 0.71348 0.51141 0.0
C459 C 0.50108 0.66662 0.51386 0.0
C460 C 0.47406 0.77429 0.47846 0.0
C461 C 0.44775 0.76733 0.4519 0.0
C462 C 0.46327 0.8131 0.49795 0.0
C463 C 0.49424 0.82595 0.5245 0.0
C464 C 0.47412 0.83626 0.55086 0.0
C465 C 0.50345 0.84981 0.57554 0.0
C466 C 0.55297 0.85349 0.57414 0.0
C467 C 0.57339 0.84293 0.54813 0.0
C468 C 0.54426 0.82909 0.52342 0.0
C469 C 0.25768 0.82966 0.45976 0.0
C470 C 0.24782 0.87657 0.45611 0.0
C471 C 0.30474 0.81484 0.46423 0.0
C472 C 0.343 0.84649 0.46511 0.0
C473 C 0.33349 0.89376 0.46261 0.0
C474 C 0.28613 0.90871 0.45801 0.0
C475 C 0.3925 0.8284 0.46703 0.0
C476 C 0.422 0.83954 0.49208 0.0
C477 C 0.40727 0.79407 0.44588 0.0
C478 C 0.37903 0.78362 0.4181 0.0
C479 C 0.36689 0.81967 0.4011 0.0
C480 C 0.33965 0.80998 0.3752 0.0
C481 C 0.32446 0.7643 0.366 0.0
C482 C 0.33652 0.7282 0.38267 0.0
C483 C 0.36372 0.73771 0.4086 0.0
H484 H 0.30335 0.75687 0.34595 0.0
H485 H 0.57554 0.86417 0.59326 0.0
H486 H 0.13208 0.9523 0.11937 0.0
H487 H 0.11445 0.93114 0.16618 0.0
H488 H 0.96777 0.97446 0.15152 0.0
H489 H 0.9863 -0.00104 0.10579 0.0
H490 H 0.99554 0.00908 0.19977 0.0
H491 H 0.99651 0.85421 0.15823 0.0
H492 H 0.02172 0.78284 0.12954 0.0
H493 H 0.15427 0.78293 0.18111 0.0
H494 H 0.12971 0.85394 0.21036 0.0
H495 H 0.02852 0.8681 0.3359 0.0
H496 H 0.01083 0.8676 0.28427 0.0
H497 H 0.06311 0.00959 0.28944 0.0
H498 H 0.07832 0.01065 0.34081 0.0
H499 H 0.0599 0.87059 0.24329 0.0
H500 H 0.02033 0.07076 0.24209 0.0
H501 H 0.9734 0.13227 0.26774 0.0
H502 H 0.88444 0.02779 0.29618 0.0
H503 H 0.93121 0.96565 0.27104 0.0
C504 C 0.096 0.95695 0.12607 0.0
C505 C 0.06039 0.97659 0.10867 0.0
C506 C 0.08572 0.94421 0.15269 0.0
C507 C 0.03948 0.95037 0.1623 0.0
C508 C 0.00364 0.96907 0.14461 0.0
C509 C 0.01416 0.98262 0.11828 0.0
C510 C 0.03031 0.94248 0.19201 0.0
C511 C 0.00917 0.97852 0.20918 0.0
C512 C 0.04586 0.90178 0.20418 0.0
C513 C 0.06141 0.85961 0.18638 0.0
C514 C 0.03119 0.83921 0.16333 0.0
C515 C 0.04529 0.79876 0.14702 0.0
C516 C 0.08967 0.77861 0.15337 0.0
C517 C 0.11993 0.79864 0.17619 0.0
C518 C 0.10584 0.83884 0.19275 0.0
C519 C 0.03549 0.89929 0.32589 0.0
C520 C 0.05385 0.93972 0.34228 0.0
C521 C 0.02546 0.89903 0.29644 0.0
C522 C 0.03451 0.93893 0.28284 0.0
C523 C 0.05384 0.97894 0.29935 0.0
C524 C 0.06283 0.97951 0.32876 0.0
C525 C 0.02718 0.93826 0.2513 0.0
C526 C 0.04532 0.90069 0.23379 0.0
C527 C 0.00614 0.97633 0.23845 0.0
C528 C 0.97946 0.01355 0.25479 0.0
C529 C 0.99088 0.06091 0.25392 0.0
C530 C 0.9644 0.09588 0.26844 0.0
C531 C 0.92609 0.08394 0.28367 0.0
C532 C 0.9144 0.03699 0.28459 0.0
C533 C 0.94106 0.00186 0.27035 0.0
H534 H 0.90534 0.1111 0.29465 0.0
H535 H 0.10054 0.74736 0.14066 0.0
H536 H 0.92893 0.95939 0.91366 0.0
H537 H 0.93721 0.96444 0.86302 0.0
H538 H 0.08045 0.01951 0.88259 0.0
H539 H 0.07164 0.01642 0.93312 0.0
H540 H 0.02778 0.0773 0.85584 0.0
H541 H 0.05946 0.91631 0.84011 0.0
H542 H 0.04951 0.83196 0.84286 0.0
H543 H 0.91296 0.83414 0.79544 0.0
H544 H 0.9218 0.91878 0.79285 0.0
H545 H 0.05059 0.12457 0.71668 0.0
H546 H 0.06489 0.07876 0.75694 0.0
H547 H 0.91457 0.04393 0.75279 0.0
H548 H 0.89985 0.09015 0.71245 0.0
H549 H 0.98038 0.96942 0.76942 0.0
H550 H 0.94618 0.13426 0.79385 0.0
H551 H 0.95879 0.21852 0.79156 0.0
H552 H 0.10531 0.20639 0.82352 0.0
H553 H 0.09369 0.12185 0.82559 0.0
C554 C 0.96267 0.97133 0.90706 0.0
C555 C 0.99965 0.98739 0.9274 0.0
C556 C 0.96754 0.97382 0.87807 0.0
C557 C 0.00954 0.99224 0.86896 0.0
C558 C 0.04783 0.00495 0.88909 0.0
C559 C 0.04284 0.00283 0.91804 0.0
C560 C 0.01008 0.00601 0.83968 0.0
C561 C 0.0186 0.05327 0.83696 0.0
C562 C 0.99691 0.97503 0.81504 0.0
C563 C 0.99119 0.92407 0.81649 0.0
C564 C 0.02714 0.89892 0.83049 0.0
C565 C 0.02172 0.85101 0.83198 0.0
C566 C 0.98057 0.8277 0.81937 0.0
C567 C 0.94481 0.85226 0.80521 0.0
C568 C 0.95005 0.90022 0.8037 0.0
C569 C 0.02069 0.10638 0.72395 0.0
C570 C 0.97405 0.11105 0.71149 0.0
C571 C 0.029 0.07998 0.74681 0.0
C572 C 0.99075 0.05827 0.75788 0.0
C573 C 0.9446 0.06014 0.74432 0.0
C574 C 0.93624 0.08651 0.72126 0.0
C575 C 0.9978 0.04038 0.78602 0.0
C576 C 0.9904 0.99281 0.78844 0.0
C577 C 0.01234 0.07086 0.81057 0.0
C578 C 0.01923 0.12171 0.80956 0.0
C579 C 0.98118 0.14951 0.80016 0.0
C580 C 0.98813 0.19731 0.79894 0.0
C581 C 0.03287 0.21777 0.8073 0.0
C582 C 0.07071 0.19048 0.81699 0.0
C583 C 0.06396 0.14264 0.8182 0.0
H584 H 0.03818 0.25478 0.80635 0.0
H585 H 0.97643 0.79059 0.82053 0.0
H586 H 0.48136 0.48487 0.57741 0.0
H587 H 0.44915 0.48344 0.62383 0.0
H588 H 0.54866 0.37475 0.64323 0.0
H589 H 0.57925 0.37417 0.59594 0.0
H590 H 0.46329 0.36729 0.66918 0.0
H591 H 0.58172 0.48599 0.65803 0.0
H592 H 0.61262 0.55201 0.63535 0.0
H593 H 0.48963 0.63347 0.65794 0.0
H594 H 0.45758 0.56755 0.68031 0.0
H595 H 0.55598 0.42144 0.81285 0.0
H596 H 0.54053 0.40551 0.76125 0.0
H597 H 0.42659 0.50651 0.76318 0.0
H598 H 0.4397 0.52046 0.81501 0.0
H599 H 0.50105 0.52032 0.72517 0.0
H600 H 0.39385 0.40453 0.74664 0.0
H601 H 0.36567 0.33749 0.76931 0.0
H602 H 0.47032 0.24956 0.72851 0.0
H603 H 0.49985 0.31631 0.70603 0.0
C604 C 0.49471 0.45896 0.59091 0.0
C605 C 0.53241 0.42915 0.58288 0.0
C606 C 0.47661 0.45857 0.61761 0.0
C607 C 0.49706 0.42954 0.63712 0.0
C608 C 0.53234 0.3974 0.62845 0.0
C609 C 0.55003 0.39732 0.60154 0.0
C610 C 0.48761 0.43778 0.66767 0.0
C611 C 0.47158 0.40063 0.68151 0.0
C612 C 0.49738 0.48176 0.68353 0.0
C613 C 0.51698 0.52168 0.67052 0.0
C614 C 0.56112 0.51788 0.65799 0.0
C615 C 0.57884 0.55527 0.64519 0.0
C616 C 0.55303 0.59686 0.64511 0.0
C617 C 0.50952 0.60119 0.65793 0.0
C618 C 0.49154 0.56383 0.67066 0.0
C619 C 0.52719 0.43992 0.80242 0.0
C620 C 0.50038 0.47376 0.81806 0.0
C621 C 0.51834 0.43062 0.77293 0.0
C622 C 0.48264 0.45507 0.75846 0.0
C623 C 0.45465 0.48765 0.77401 0.0
C624 C 0.46291 0.49634 0.80362 0.0
C625 C 0.47795 0.44945 0.72693 0.0
C626 C 0.49162 0.48719 0.71286 0.0
C627 C 0.46654 0.40591 0.71105 0.0
C628 C 0.44935 0.36565 0.72481 0.0
C629 C 0.41129 0.37106 0.74276 0.0
C630 C 0.395 0.33306 0.75554 0.0
C631 C 0.41623 0.28931 0.75039 0.0
C632 C 0.45388 0.28349 0.73248 0.0
C633 C 0.4704 0.32141 0.7197 0.0
H634 H 0.40347 0.2599 0.76025 0.0
H635 H 0.56682 0.62572 0.63518 0.0
H636 H 0.46059 0.41521 0.38818 0.0
H637 H 0.47737 0.39766 0.33815 0.0
H638 H 0.62704 0.42795 0.3599 0.0
H639 H 0.61009 0.44837 0.40983 0.0
H640 H 0.53377 0.48011 0.31498 0.0
H641 H 0.66836 0.32757 0.29628 0.0
H642 H 0.69043 0.25265 0.31407 0.0
H643 H 0.55293 0.24399 0.34793 0.0
H644 H 0.52847 0.31698 0.32845 0.0
H645 H 0.68258 0.40897 0.18519 0.0
H646 H 0.66267 0.3975 0.23328 0.0
H647 H 0.51815 0.4431 0.21395 0.0
H648 H 0.53921 0.45908 0.16699 0.0
H649 H 0.60601 0.34722 0.2577 0.0
H650 H 0.4733 0.50122 0.2706 0.0
H651 H 0.45747 0.57714 0.25208 0.0
H652 H 0.60525 0.58794 0.23447 0.0
H653 H 0.62203 0.51239 0.25319 0.0
C654 C 0.49727 0.41712 0.38243 0.0
C655 C 0.53419 0.43254 0.40299 0.0
C656 C 0.50679 0.4068 0.35391 0.0
C657 C 0.5535 0.41074 0.34555 0.0
C658 C 0.59095 0.42367 0.36616 0.0
C659 C 0.58126 0.43504 0.39468 0.0
C660 C 0.56124 0.41026 0.31502 0.0
C661 C 0.549 0.45081 0.3023 0.0
C662 C 0.5826 0.37247 0.29903 0.0
C663 C 0.59693 0.32872 0.31145 0.0
C664 C 0.64268 0.30976 0.30747 0.0
C665 C 0.65554 0.26739 0.31771 0.0
C666 C 0.62341 0.24395 0.33251 0.0
C667 C 0.57798 0.26245 0.3367 0.0
C668 C 0.56451 0.30434 0.32596 0.0
C669 C 0.64646 0.41646 0.19112 0.0
C670 C 0.61226 0.43426 0.17188 0.0
C671 C 0.63503 0.40949 0.2186 0.0
C672 C 0.58906 0.41989 0.22743 0.0
C673 C 0.55413 0.43546 0.20782 0.0
C674 C 0.5659 0.44352 0.18054 0.0
C675 C 0.57878 0.41726 0.25762 0.0
C676 C 0.59066 0.37642 0.27036 0.0
C677 C 0.55832 0.45524 0.27405 0.0
C678 C 0.54875 0.50092 0.26298 0.0
C679 C 0.50241 0.51989 0.26284 0.0
C680 C 0.49328 0.56283 0.2523 0.0
C681 C 0.5303 0.58726 0.24201 0.0
C682 C 0.57657 0.56889 0.24234 0.0
C683 C 0.5859 0.526 0.25289 0.0
H684 H 0.52314 0.62047 0.23384 0.0
H685 H 0.63361 0.21125 0.3405 0.0
loop_
_geom_bond_atom_site_label_1
_geom_bond_atom_site_label_2
_geom_bond_distance
_geom_bond_site_symmetry_2
_ccdc_geom_bond_type
Zn0 O6 1.920 1_545 S
Zn0 O12 1.898 . S
Zn0 O15 1.905 1_545 S
Zn1 O9 1.905 . S
Zn1 O10 1.898 1_545 S
Zn1 O18 1.920 1_545 S
Zn2 O5 2.080 1_445 S
Zn2 O8 2.114 . S
Zn2 O11 2.120 1_545 S
Zn2 O13 2.120 1_455 S
Zn2 O14 2.114 1_554 S
Zn2 O17 2.080 . S
C3 O8 1.166 . S
C3 O9 1.182 . S
C4 O10 1.167 . S
C4 O11 1.299 . S
O5 Zn2 2.080 1_665 S
O5 C19 1.305 . S
O6 Zn0 1.920 1_565 S
O6 C19 1.234 1_556 S
C7 O12 1.167 . S
C7 O13 1.299 1_556 S
O8 Zn2 2.114 . S
O8 C3 1.166 . S
O9 Zn1 1.905 . S
O9 C3 1.182 . S
O10 Zn1 1.898 1_565 S
O10 C4 1.167 . S
O11 Zn2 2.120 1_565 S
O11 C4 1.299 . S
O12 Zn0 1.898 . S
O12 C7 1.167 . S
O13 Zn2 2.120 1_655 S
O13 C7 1.299 1_554 S
O14 Zn2 2.114 1_556 S
O14 C16 1.166 1_545 S
O15 Zn0 1.905 1_565 S
O15 C16 1.182 1_655 S
C16 O14 1.166 1_565 S
C16 O15 1.182 1_455 S
O17 Zn2 2.080 . S
O17 C20 1.305 1_545 S
O18 Zn1 1.920 1_565 S
O18 C20 1.234 . S
C19 O5 1.305 . S
C19 O6 1.234 1_554 S
C20 O17 1.305 1_565 S
C20 O18 1.234 . S
Zn21 O27 1.920 . S
Zn21 O33 1.898 . S
Zn21 O36 1.905 . S
Zn22 O30 1.905 . S
Zn22 O31 1.898 . S
Zn22 O39 1.920 . S
Zn23 O26 2.080 . S
Zn23 O29 2.114 . S
Zn23 O32 2.120 . S
Zn23 O34 2.120 . S
Zn23 O35 2.114 . S
Zn23 O38 2.080 . S
C24 O29 1.166 . S
C24 O30 1.182 . S
C25 O31 1.167 . S
C25 O32 1.299 . S
O26 Zn23 2.080 . S
O26 C40 1.305 . S
O27 Zn21 1.920 . S
O27 C40 1.234 . S
C28 O33 1.167 . S
C28 O34 1.299 . S
O29 Zn23 2.114 . S
O29 C24 1.166 . S
O30 Zn22 1.905 . S
O30 C24 1.182 . S
O31 Zn22 1.898 . S
O31 C25 1.167 . S
O32 Zn23 2.120 . S
O32 C25 1.299 . S
O33 Zn21 1.898 . S
O33 C28 1.167 . S
O34 Zn23 2.120 . S
O34 C28 1.299 . S
O35 Zn23 2.114 . S
O35 C37 1.166 . S
O36 Zn21 1.905 . S
O36 C37 1.182 . S
C37 O35 1.166 . S
C37 O36 1.182 . S
O38 Zn23 2.080 . S
O38 C41 1.305 . S
O39 Zn22 1.920 . S
O39 C41 1.234 . S
C40 O26 1.305 . S
C40 O27 1.234 . S
C41 O38 1.305 . S
C41 O39 1.234 . S
O42 Cd43 2.300 . S
O42 C49 1.275 . S
Cd43 O42 2.300 . S
Cd43 O51 2.381 1_545 S
Cd43 O52 2.378 1_545 S
O44 Cd45 2.385 . S
O44 C49 1.255 . S
Cd45 O44 2.385 . S
Cd45 O46 2.317 . S
O46 Cd45 2.317 . S
O46 C47 1.247 . S
C47 O46 1.247 . S
C47 O48 1.219 . S
O48 C47 1.219 . S
C49 O42 1.275 . S
C49 O44 1.255 . S
C50 O51 1.258 . S
C50 O52 1.256 . S
O51 Cd43 2.381 1_565 S
O51 C50 1.258 . S
O52 Cd43 2.378 1_565 S
O52 C50 1.256 . S
O53 Cd54 2.300 . S
O53 C60 1.275 . S
Cd54 O53 2.300 . S
Cd54 O62 2.381 . S
Cd54 O63 2.378 . S
O55 Cd56 2.385 . S
O55 C60 1.255 1_565 S
Cd56 O55 2.385 . S
Cd56 O57 2.317 1_455 S
O57 Cd56 2.317 1_655 S
O57 C58 1.232 . S
C58 O57 1.232 . S
C58 O59 1.218 . S
O59 C58 1.218 . S
C60 O53 1.275 . S
C60 O55 1.255 1_545 S
C61 O62 1.258 . S
C61 O63 1.256 . S
O62 Cd54 2.381 . S
O62 C61 1.258 . S
O63 Cd54 2.378 . S
O63 C61 1.256 . S
O64 Cd65 2.300 . S
O64 C71 1.275 . S
Cd65 O64 2.300 . S
Cd65 O73 2.381 . S
Cd65 O74 2.378 . S
O66 Cd67 2.385 . S
O66 C71 1.255 . S
Cd67 O66 2.385 . S
Cd67 O68 2.317 . S
O68 Cd67 2.317 . S
O68 C69 1.232 . S
C69 O68 1.232 . S
C69 O70 1.218 . S
O70 C69 1.218 . S
C71 O64 1.275 . S
C71 O66 1.255 . S
C72 O73 1.258 . S
C72 O74 1.256 . S
O73 Cd65 2.381 . S
O73 C72 1.258 . S
O74 Cd65 2.378 . S
O74 C72 1.256 . S
O75 Cd76 2.300 . S
O75 C82 1.275 . S
Cd76 O75 2.300 . S
Cd76 O84 2.381 . S
Cd76 O85 2.378 . S
O77 Cd78 2.385 . S
O77 C82 1.255 . S
Cd78 O77 2.385 . S
Cd78 O79 2.317 . S
O79 Cd78 2.317 . S
O79 C80 1.232 . S
C80 O79 1.232 . S
C80 O81 1.218 . S
O81 C80 1.218 . S
C82 O75 1.275 . S
C82 O77 1.255 . S
C83 O84 1.258 . S
C83 O85 1.256 . S
O84 Cd76 2.381 . S
O84 C83 1.258 . S
O85 Cd76 2.378 . S
O85 C83 1.256 . S
H86 C104 0.951 . S
H87 C106 0.951 . S
H88 C108 0.950 . S
H89 C109 0.950 . S
H90 C111 0.950 . S
H91 C114 0.950 . S
H92 C115 0.950 . S
H93 C117 0.950 . S
H94 C118 0.950 . S
H95 C119 0.951 . S
H96 C121 0.951 . S
H97 C123 0.950 . S
H98 C124 0.950 . S
H99 C126 0.950 . S
H100 C129 0.950 . S
H101 C130 0.950 . S
H102 C132 0.950 . S
H103 C133 0.950 . S
C104 H86 0.951 . S
C104 C105 1.366 . S
C104 C106 1.388 . S
C105 C104 1.366 . S
C105 C109 1.385 . S
C106 H87 0.951 . S
C106 C104 1.388 . S
C106 C107 1.366 . S
C107 C106 1.366 . S
C107 C108 1.414 . S
C107 C110 1.499 . S
C108 H88 0.950 . S
C108 C107 1.414 . S
C108 C109 1.374 . S
C109 H89 0.950 . S
C109 C105 1.385 . S
C109 C108 1.374 . S
C110 C107 1.499 . S
C110 C111 1.373 . S
C110 C112 1.389 . S
C111 H90 0.950 . S
C111 C110 1.373 . S
C111 C127 1.377 . S
C112 C110 1.389 . S
C112 C113 1.524 . S
C112 C126 1.377 . S
C113 C112 1.524 . S
C113 C114 1.397 1_554 S
C113 C118 1.363 . S
C114 H91 0.950 . S
C114 C113 1.397 1_556 S
C114 C115 1.334 . S
C115 H92 0.950 . S
C115 C114 1.334 . S
C115 C116 1.287 . S
C116 C115 1.287 . S
C116 C117 1.524 1_556 S
C116 H135 0.913 . S
C117 H93 0.950 . S
C117 C116 1.524 1_554 S
C117 C118 1.415 . S
C118 H94 0.950 . S
C118 C113 1.363 . S
C118 C117 1.415 . S
C119 H95 0.951 . S
C119 C120 1.366 . S
C119 C121 1.388 . S
C120 C119 1.366 . S
C120 C124 1.385 . S
C121 H96 0.951 . S
C121 C119 1.388 . S
C121 C122 1.366 . S
C122 C121 1.366 . S
C122 C123 1.414 . S
C122 C125 1.499 . S
C123 H97 0.950 . S
C123 C122 1.414 . S
C123 C124 1.374 . S
C124 H98 0.950 . S
C124 C120 1.385 . S
C124 C123 1.374 . S
C125 C122 1.499 . S
C125 C126 1.373 . S
C125 C127 1.389 . S
C126 H99 0.950 . S
C126 C112 1.377 . S
C126 C125 1.373 . S
C127 C111 1.377 . S
C127 C125 1.389 . S
C127 C128 1.524 . S
C128 C127 1.524 . S
C128 C129 1.397 . S
C128 C133 1.363 . S
C129 H100 0.950 . S
C129 C128 1.397 . S
C129 C130 1.334 . S
C130 H101 0.950 . S
C130 C129 1.334 . S
C130 C131 1.287 . S
C131 C130 1.287 . S
C131 C132 1.524 . S
C131 H134 0.999 . S
C132 H102 0.950 . S
C132 C131 1.524 . S
C132 C133 1.415 . S
C133 H103 0.950 . S
C133 C128 1.363 . S
C133 C132 1.415 . S
H134 C131 0.999 . S
H135 C116 0.913 . S
H136 C154 0.951 1_554 S
H137 C156 0.951 . S
H138 C158 0.950 . S
H139 C159 0.950 . S
H140 C161 0.950 . S
H141 C164 0.950 . S
H142 C165 0.950 . S
H143 C167 0.950 . S
H144 C168 0.950 . S
H145 C169 0.951 . S
H146 C171 0.951 . S
H147 C173 0.950 . S
H148 C174 0.950 . S
H149 C176 0.950 . S
H150 C179 0.950 . S
H151 C180 0.950 . S
H152 C182 0.950 . S
H153 C183 0.950 . S
C154 H136 0.951 1_556 S
C154 C155 1.366 . S
C154 C156 1.388 . S
C155 C154 1.366 . S
C155 C159 1.385 . S
C156 H137 0.951 . S
C156 C154 1.388 . S
C156 C157 1.366 . S
C157 C156 1.366 . S
C157 C158 1.414 . S
C157 C160 1.499 . S
C158 H138 0.950 . S
C158 C157 1.414 . S
C158 C159 1.374 . S
C159 H139 0.950 . S
C159 C155 1.385 . S
C159 C158 1.374 . S
C160 C157 1.499 . S
C160 C161 1.373 . S
C160 C162 1.389 . S
C161 H140 0.950 . S
C161 C160 1.373 . S
C161 C177 1.377 . S
C162 C160 1.389 . S
C162 C163 1.524 . S
C162 C176 1.377 . S
C163 C162 1.524 . S
C163 C164 1.397 . S
C163 C168 1.363 . S
C164 H141 0.950 . S
C164 C163 1.397 . S
C164 C165 1.334 . S
C165 H142 0.950 . S
C165 C164 1.334 . S
C165 C166 1.287 . S
C166 C165 1.287 . S
C166 C167 1.524 . S
C166 H185 0.913 . S
C167 H143 0.950 . S
C167 C166 1.524 . S
C167 C168 1.415 . S
C168 H144 0.950 . S
C168 C163 1.363 . S
C168 C167 1.415 . S
C169 H145 0.951 . S
C169 C170 1.366 . S
C169 C171 1.388 . S
C170 C169 1.366 . S
C170 C174 1.385 . S
C171 H146 0.951 . S
C171 C169 1.388 . S
C171 C172 1.366 . S
C172 C171 1.366 . S
C172 C173 1.414 . S
C172 C175 1.499 . S
C173 H147 0.950 . S
C173 C172 1.414 . S
C173 C174 1.374 . S
C174 H148 0.950 . S
C174 C170 1.385 . S
C174 C173 1.374 . S
C175 C172 1.499 . S
C175 C176 1.373 . S
C175 C177 1.389 . S
C176 H149 0.950 . S
C176 C162 1.377 . S
C176 C175 1.373 . S
C177 C161 1.377 . S
C177 C175 1.389 . S
C177 C178 1.524 . S
C178 C177 1.524 . S
C178 C179 1.397 1_556 S
C178 C183 1.363 . S
C179 H150 0.950 . S
C179 C178 1.397 1_554 S
C179 C180 1.334 . S
C180 H151 0.950 . S
C180 C179 1.334 . S
C180 C181 1.287 . S
C181 C180 1.287 . S
C181 C182 1.524 1_554 S
C181 H184 0.999 . S
C182 H152 0.950 . S
C182 C181 1.524 1_556 S
C182 C183 1.415 . S
C183 H153 0.950 . S
C183 C178 1.363 . S
C183 C182 1.415 . S
H184 C181 0.999 . S
H185 C166 0.913 . S
H186 C204 0.951 . S
H187 C206 0.951 . S
H188 C208 0.950 . S
H189 C209 0.950 . S
H190 C211 0.950 . S
H191 C214 0.950 . S
H192 C215 0.950 . S
H193 C217 0.950 . S
H194 C218 0.950 . S
H195 C219 0.951 . S
H196 C221 0.951 . S
H197 C223 0.950 . S
H198 C224 0.950 . S
H199 C226 0.950 . S
H200 C229 0.950 . S
H201 C230 0.950 . S
H202 C232 0.950 . S
H203 C233 0.950 . S
C204 H186 0.951 . S
C204 C205 1.366 . S
C204 C206 1.388 . S
C205 C204 1.366 . S
C205 C209 1.385 . S
C206 H187 0.951 . S
C206 C204 1.388 . S
C206 C207 1.366 . S
C207 C206 1.366 . S
C207 C208 1.414 . S
C207 C210 1.499 . S
C208 H188 0.950 . S
C208 C207 1.414 . S
C208 C209 1.374 . S
C209 H189 0.950 . S
C209 C205 1.385 . S
C209 C208 1.374 . S
C210 C207 1.499 . S
C210 C211 1.373 . S
C210 C212 1.389 . S
C211 H190 0.950 . S
C211 C210 1.373 . S
C211 C227 1.377 . S
C212 C210 1.389 . S
C212 C213 1.524 . S
C212 C226 1.377 . S
C213 C212 1.524 . S
C213 C214 1.397 1_554 S
C213 C218 1.363 . S
C214 H191 0.950 . S
C214 C213 1.397 1_556 S
C214 C215 1.334 . S
C215 H192 0.950 . S
C215 C214 1.334 . S
C215 C216 1.287 . S
C216 C215 1.287 . S
C216 C217 1.524 1_556 S
C216 H235 0.913 . S
C217 H193 0.950 . S
C217 C216 1.524 1_554 S
C217 C218 1.415 . S
C218 H194 0.950 . S
C218 C213 1.363 . S
C218 C217 1.415 . S
C219 H195 0.951 . S
C219 C220 1.366 . S
C219 C221 1.388 . S
C220 C219 1.366 . S
C220 C224 1.385 . S
C221 H196 0.951 . S
C221 C219 1.388 . S
C221 C222 1.366 . S
C222 C221 1.366 . S
C222 C223 1.414 . S
C222 C225 1.499 . S
C223 H197 0.950 . S
C223 C222 1.414 . S
C223 C224 1.374 . S
C224 H198 0.950 . S
C224 C220 1.385 . S
C224 C223 1.374 . S
C225 C222 1.499 . S
C225 C226 1.373 . S
C225 C227 1.389 . S
C226 H199 0.950 . S
C226 C212 1.377 . S
C226 C225 1.373 . S
C227 C211 1.377 . S
C227 C225 1.389 . S
C227 C228 1.524 . S
C228 C227 1.524 . S
C228 C229 1.397 . S
C228 C233 1.363 . S
C229 H200 0.950 . S
C229 C228 1.397 . S
C229 C230 1.334 . S
C230 H201 0.950 . S
C230 C229 1.334 . S
C230 C231 1.287 . S
C231 C230 1.287 . S
C231 C232 1.524 . S
C231 H234 0.999 . S
C232 H202 0.950 . S
C232 C231 1.524 . S
C232 C233 1.415 . S
C233 H203 0.950 . S
C233 C228 1.363 . S
C233 C232 1.415 . S
H234 C231 0.999 . S
H235 C216 0.913 . S
H236 C254 0.951 . S
H237 C256 0.951 . S
H238 C258 0.950 . S
H239 C259 0.950 . S
H240 C261 0.950 . S
H241 C264 0.950 1_554 S
H242 C265 0.950 1_454 S
H243 C267 0.950 . S
H244 C268 0.950 . S
H245 C269 0.951 . S
H246 C271 0.951 1_554 S
H247 C273 0.950 . S
H248 C274 0.950 . S
H249 C276 0.950 . S
H250 C279 0.950 . S
H251 C280 0.950 . S
H252 C282 0.950 . S
H253 C283 0.950 . S
C254 H236 0.951 . S
C254 C255 1.370 . S
C254 C256 1.388 . S
C255 C254 1.370 . S
C255 C259 1.381 1_556 S
C256 H237 0.951 . S
C256 C254 1.388 . S
C256 C257 1.366 . S
C257 C256 1.366 . S
C257 C258 1.414 1_556 S
C257 C260 1.499 . S
C258 H238 0.950 . S
C258 C257 1.414 1_554 S
C258 C259 1.374 . S
C259 H239 0.950 . S
C259 C255 1.381 1_554 S
C259 C258 1.374 . S
C260 C257 1.499 . S
C260 C261 1.373 . S
C260 C262 1.389 . S
C261 H240 0.950 . S
C261 C260 1.373 . S
C261 C277 1.377 . S
C262 C260 1.389 . S
C262 C263 1.524 . S
C262 C276 1.377 . S
C263 C262 1.524 . S
C263 C264 1.397 . S
C263 C268 1.363 . S
C264 H241 0.950 1_556 S
C264 C263 1.397 . S
C264 C265 1.334 . S
C265 H242 0.950 1_656 S
C265 C264 1.334 . S
C265 C266 1.287 1_655 S
C266 C265 1.287 1_455 S
C266 C267 1.524 1_455 S
C266 H285 0.913 . S
C267 H243 0.950 . S
C267 C266 1.524 1_655 S
C267 C268 1.415 . S
C268 H244 0.950 . S
C268 C263 1.363 . S
C268 C267 1.415 . S
C269 H245 0.951 . S
C269 C270 1.366 . S
C269 C271 1.388 . S
C270 C269 1.366 . S
C270 C274 1.385 . S
C271 H246 0.951 1_556 S
C271 C269 1.388 . S
C271 C272 1.366 . S
C272 C271 1.366 . S
C272 C273 1.414 . S
C272 C275 1.499 . S
C273 H247 0.950 . S
C273 C272 1.414 . S
C273 C274 1.374 . S
C274 H248 0.950 . S
C274 C270 1.385 . S
C274 C273 1.374 . S
C275 C272 1.499 . S
C275 C276 1.373 . S
C275 C277 1.389 . S
C276 H249 0.950 . S
C276 C262 1.377 . S
C276 C275 1.373 . S
C277 C261 1.377 . S
C277 C275 1.389 . S
C277 C278 1.524 . S
C278 C277 1.524 . S
C278 C279 1.397 . S
C278 C283 1.363 1_556 S
C279 H250 0.950 . S
C279 C278 1.397 . S
C279 C280 1.334 . S
C280 H251 0.950 . S
C280 C279 1.334 . S
C280 C281 1.287 . S
C281 C280 1.287 . S
C281 C282 1.524 1_556 S
C281 H284 0.999 . S
C282 H252 0.950 . S
C282 C281 1.524 1_554 S
C282 C283 1.415 . S
C283 H253 0.950 . S
C283 C278 1.363 1_554 S
C283 C282 1.415 . S
H284 C281 0.999 . S
H285 C266 0.913 . S
H286 C304 0.951 . S
H287 C306 0.951 . S
H288 C308 0.950 . S
H289 C309 0.950 . S
H290 C311 0.950 . S
H291 C314 0.950 . S
H292 C315 0.950 . S
H293 C317 0.950 . S
H294 C318 0.950 . S
H295 C319 0.951 . S
H296 C321 0.951 . S
H297 C323 0.950 . S
H298 C324 0.950 . S
H299 C326 0.950 . S
H300 C329 0.950 . S
H301 C330 0.950 . S
H302 C332 0.950 . S
H303 C333 0.950 . S
C304 H286 0.951 . S
C304 C305 1.366 . S
C304 C306 1.388 . S
C305 C304 1.366 . S
C305 C309 1.385 . S
C306 H287 0.951 . S
C306 C304 1.388 . S
C306 C307 1.366 . S
C307 C306 1.366 . S
C307 C308 1.414 . S
C307 C310 1.499 . S
C308 H288 0.950 . S
C308 C307 1.414 . S
C308 C309 1.374 . S
C309 H289 0.950 . S
C309 C305 1.385 . S
C309 C308 1.374 . S
C310 C307 1.499 . S
C310 C311 1.373 . S
C310 C312 1.389 . S
C311 H290 0.950 . S
C311 C310 1.373 . S
C311 C327 1.377 . S
C312 C310 1.389 . S
C312 C313 1.524 . S
C312 C326 1.377 . S
C313 C312 1.524 . S
C313 C314 1.397 . S
C313 C318 1.363 . S
C314 H291 0.950 . S
C314 C313 1.397 . S
C314 C315 1.334 . S
C315 H292 0.950 . S
C315 C314 1.334 . S
C315 C316 1.287 . S
C316 C315 1.287 . S
C316 C317 1.524 . S
C316 H335 0.913 . S
C317 H293 0.950 . S
C317 C316 1.524 . S
C317 C318 1.415 . S
C318 H294 0.950 . S
C318 C313 1.363 . S
C318 C317 1.415 . S
C319 H295 0.951 . S
C319 C320 1.366 . S
C319 C321 1.388 . S
C320 C319 1.366 . S
C320 C324 1.385 . S
C321 H296 0.951 . S
C321 C319 1.388 . S
C321 C322 1.366 . S
C322 C321 1.366 . S
C322 C323 1.414 . S
C322 C325 1.499 . S
C323 H297 0.950 . S
C323 C322 1.414 . S
C323 C324 1.374 . S
C324 H298 0.950 . S
C324 C320 1.385 . S
C324 C323 1.374 . S
C325 C322 1.499 . S
C325 C326 1.373 . S
C325 C327 1.389 . S
C326 H299 0.950 . S
C326 C312 1.377 . S
C326 C325 1.373 . S
C327 C311 1.377 . S
C327 C325 1.389 . S
C327 C328 1.524 . S
C328 C327 1.524 . S
C328 C329 1.397 . S
C328 C333 1.363 . S
C329 H300 0.950 . S
C329 C328 1.397 . S
C329 C330 1.334 . S
C330 H301 0.950 . S
C330 C329 1.334 . S
C330 C331 1.287 . S
C331 C330 1.287 . S
C331 C332 1.524 . S
C331 H334 0.999 . S
C332 H302 0.950 . S
C332 C331 1.524 . S
C332 C333 1.415 . S
C333 H303 0.950 . S
C333 C328 1.363 . S
C333 C332 1.415 . S
H334 C331 0.999 . S
H335 C316 0.913 . S
H336 C354 0.951 . S
H337 C356 0.951 . S
H338 C358 0.950 . S
H339 C359 0.950 . S
H340 C361 0.950 . S
H341 C364 0.950 . S
H342 C365 0.950 . S
H343 C367 0.950 . S
H344 C368 0.950 . S
H345 C369 0.951 . S
H346 C371 0.951 . S
H347 C373 0.950 . S
H348 C374 0.950 . S
H349 C376 0.950 . S
H350 C379 0.950 . S
H351 C380 0.950 . S
H352 C382 0.950 . S
H353 C383 0.950 . S
C354 H336 0.951 . S
C354 C355 1.366 . S
C354 C356 1.388 . S
C355 C354 1.366 . S
C355 C359 1.385 . S
C356 H337 0.951 . S
C356 C354 1.388 . S
C356 C357 1.366 . S
C357 C356 1.366 . S
C357 C358 1.414 . S
C357 C360 1.499 . S
C358 H338 0.950 . S
C358 C357 1.414 . S
C358 C359 1.374 . S
C359 H339 0.950 . S
C359 C355 1.385 . S
C359 C358 1.374 . S
C360 C357 1.499 . S
C360 C361 1.373 . S
C360 C362 1.389 . S
C361 H340 0.950 . S
C361 C360 1.373 . S
C361 C377 1.377 . S
C362 C360 1.389 . S
C362 C363 1.524 . S
C362 C376 1.377 . S
C363 C362 1.524 . S
C363 C364 1.397 . S
C363 C368 1.363 . S
C364 H341 0.950 . S
C364 C363 1.397 . S
C364 C365 1.334 . S
C365 H342 0.950 . S
C365 C364 1.334 . S
C365 C366 1.287 . S
C366 C365 1.287 . S
C366 C367 1.524 . S
C366 H385 0.913 . S
C367 H343 0.950 . S
C367 C366 1.524 . S
C367 C368 1.415 . S
C368 H344 0.950 . S
C368 C363 1.363 . S
C368 C367 1.415 . S
C369 H345 0.951 . S
C369 C370 1.366 . S
C369 C371 1.388 . S
C370 C369 1.366 . S
C370 C374 1.385 . S
C371 H346 0.951 . S
C371 C369 1.388 . S
C371 C372 1.366 . S
C372 C371 1.366 . S
C372 C373 1.414 . S
C372 C375 1.499 . S
C373 H347 0.950 . S
C373 C372 1.414 . S
C373 C374 1.374 . S
C374 H348 0.950 . S
C374 C370 1.385 . S
C374 C373 1.374 . S
C375 C372 1.499 . S
C375 C376 1.373 . S
C375 C377 1.389 . S
C376 H349 0.950 . S
C376 C362 1.377 . S
C376 C375 1.373 . S
C377 C361 1.377 . S
C377 C375 1.389 . S
C377 C378 1.524 . S
C378 C377 1.524 . S
C378 C379 1.397 . S
C378 C383 1.363 . S
C379 H350 0.950 . S
C379 C378 1.397 . S
C379 C380 1.334 . S
C380 H351 0.950 . S
C380 C379 1.334 . S
C380 C381 1.287 . S
C381 C380 1.287 . S
C381 C382 1.524 . S
C381 H384 0.999 . S
C382 H352 0.950 . S
C382 C381 1.524 . S
C382 C383 1.415 . S
C383 H353 0.950 . S
C383 C378 1.363 . S
C383 C382 1.415 . S
H384 C381 0.999 . S
H385 C366 0.913 . S
H386 C404 0.951 . S
H387 C406 0.951 . S
H388 C408 0.950 . S
H389 C409 0.950 . S
H390 C411 0.950 . S
H391 C414 0.950 . S
H392 C415 0.950 . S
H393 C417 0.950 . S
H394 C418 0.950 . S
H395 C419 0.951 . S
H396 C421 0.951 . S
H397 C423 0.950 . S
H398 C424 0.950 . S
H399 C426 0.950 . S
H400 C429 0.950 . S
H401 C430 0.950 . S
H402 C432 0.950 . S
H403 C433 0.950 . S
C404 H386 0.951 . S
C404 C405 1.366 . S
C404 C406 1.388 . S
C405 C404 1.366 . S
C405 C409 1.385 . S
C406 H387 0.951 . S
C406 C404 1.388 . S
C406 C407 1.366 . S
C407 C406 1.366 . S
C407 C408 1.414 . S
C407 C410 1.499 . S
C408 H388 0.950 . S
C408 C407 1.414 . S
C408 C409 1.374 . S
C409 H389 0.950 . S
C409 C405 1.385 . S
C409 C408 1.374 . S
C410 C407 1.499 . S
C410 C411 1.373 . S
C410 C412 1.389 . S
C411 H390 0.950 . S
C411 C410 1.373 . S
C411 C427 1.377 . S
C412 C410 1.389 . S
C412 C413 1.524 . S
C412 C426 1.377 . S
C413 C412 1.524 . S
C413 C414 1.397 . S
C413 C418 1.363 . S
C414 H391 0.950 . S
C414 C413 1.397 . S
C414 C415 1.334 . S
C415 H392 0.950 . S
C415 C414 1.334 . S
C415 C416 1.287 . S
C416 C415 1.287 . S
C416 C417 1.524 . S
C416 H435 0.913 . S
C417 H393 0.950 . S
C417 C416 1.524 . S
C417 C418 1.415 . S
C418 H394 0.950 . S
C418 C413 1.363 . S
C418 C417 1.415 . S
C419 H395 0.951 . S
C419 C420 1.366 . S
C419 C421 1.388 . S
C420 C419 1.366 . S
C420 C424 1.385 . S
C421 H396 0.951 . S
C421 C419 1.388 . S
C421 C422 1.366 . S
C422 C421 1.366 . S
C422 C423 1.414 . S
C422 C425 1.499 . S
C423 H397 0.950 . S
C423 C422 1.414 . S
C423 C424 1.374 . S
C424 H398 0.950 . S
C424 C420 1.385 . S
C424 C423 1.374 . S
C425 C422 1.499 . S
C425 C426 1.373 . S
C425 C427 1.389 . S
C426 H399 0.950 . S
C426 C412 1.377 . S
C426 C425 1.373 . S
C427 C411 1.377 . S
C427 C425 1.389 . S
C427 C428 1.524 . S
C428 C427 1.524 . S
C428 C429 1.397 . S
C428 C433 1.363 . S
C429 H400 0.950 . S
C429 C428 1.397 . S
C429 C430 1.334 . S
C430 H401 0.950 . S
C430 C429 1.334 . S
C430 C431 1.287 . S
C431 C430 1.287 . S
C431 C432 1.524 . S
C431 H434 0.999 . S
C432 H402 0.950 . S
C432 C431 1.524 . S
C432 C433 1.415 . S
C433 H403 0.950 . S
C433 C428 1.363 . S
C433 C432 1.415 . S
H434 C431 0.999 . S
H435 C416 0.913 . S
H436 C454 0.951 . S
H437 C456 0.951 . S
H438 C458 0.950 . S
H439 C459 0.950 . S
H440 C461 0.950 . S
H441 C464 0.950 . S
H442 C465 0.950 . S
H443 C467 0.950 . S
H444 C468 0.950 . S
H445 C469 0.951 . S
H446 C471 0.951 . S
H447 C473 0.950 . S
H448 C474 0.950 . S
H449 C476 0.950 . S
H450 C479 0.950 . S
H451 C480 0.950 . S
H452 C482 0.950 . S
H453 C483 0.950 . S
C454 H436 0.951 . S
C454 C455 1.366 . S
C454 C456 1.388 . S
C455 C454 1.366 . S
C455 C459 1.385 . S
C456 H437 0.951 . S
C456 C454 1.388 . S
C456 C457 1.366 . S
C457 C456 1.366 . S
C457 C458 1.414 . S
C457 C460 1.499 . S
C458 H438 0.950 . S
C458 C457 1.414 . S
C458 C459 1.374 . S
C459 H439 0.950 . S
C459 C455 1.385 . S
C459 C458 1.374 . S
C460 C457 1.499 . S
C460 C461 1.373 . S
C460 C462 1.389 . S
C461 H440 0.950 . S
C461 C460 1.373 . S
C461 C477 1.377 . S
C462 C460 1.389 . S
C462 C463 1.524 . S
C462 C476 1.377 . S
C463 C462 1.524 . S
C463 C464 1.397 . S
C463 C468 1.363 . S
C464 H441 0.950 . S
C464 C463 1.397 . S
C464 C465 1.334 . S
C465 H442 0.950 . S
C465 C464 1.334 . S
C465 C466 1.287 . S
C466 C465 1.287 . S
C466 C467 1.524 . S
C466 H485 0.913 . S
C467 H443 0.950 . S
C467 C466 1.524 . S
C467 C468 1.415 . S
C468 H444 0.950 . S
C468 C463 1.363 . S
C468 C467 1.415 . S
C469 H445 0.951 . S
C469 C470 1.366 . S
C469 C471 1.388 . S
C470 C469 1.366 . S
C470 C474 1.385 . S
C471 H446 0.951 . S
C471 C469 1.388 . S
C471 C472 1.366 . S
C472 C471 1.366 . S
C472 C473 1.414 . S
C472 C475 1.499 . S
C473 H447 0.950 . S
C473 C472 1.414 . S
C473 C474 1.374 . S
C474 H448 0.950 . S
C474 C470 1.385 . S
C474 C473 1.374 . S
C475 C472 1.499 . S
C475 C476 1.373 . S
C475 C477 1.389 . S
C476 H449 0.950 . S
C476 C462 1.377 . S
C476 C475 1.373 . S
C477 C461 1.377 . S
C477 C475 1.389 . S
C477 C478 1.524 . S
C478 C477 1.524 . S
C478 C479 1.397 . S
C478 C483 1.363 . S
C479 H450 0.950 . S
C479 C478 1.397 . S
C479 C480 1.334 . S
C480 H451 0.950 . S
C480 C479 1.334 . S
C480 C481 1.287 . S
C481 C480 1.287 . S
C481 C482 1.524 . S
C481 H484 0.999 . S
C482 H452 0.950 . S
C482 C481 1.524 . S
C482 C483 1.415 . S
C483 H453 0.950 . S
C483 C478 1.363 . S
C483 C482 1.415 . S
H484 C481 0.999 . S
H485 C466 0.913 . S
H486 C504 0.951 . S
H487 C506 0.951 . S
H488 C508 0.950 . S
H489 C509 0.950 . S
H490 C511 0.950 1_655 S
H491 C514 0.950 . S
H492 C515 0.950 . S
H493 C517 0.950 . S
H494 C518 0.950 . S
H495 C519 0.951 1_655 S
H496 C521 0.951 1_655 S
H497 C523 0.950 . S
H498 C524 0.950 . S
H499 C526 0.950 1_565 S
H500 C529 0.950 1_455 S
H501 C530 0.950 . S
H502 C532 0.950 . S
H503 C533 0.950 . S
C504 H486 0.951 . S
C504 C505 1.366 1_545 S
C504 C506 1.388 . S
C505 C504 1.366 1_565 S
C505 C509 1.385 1_455 S
C506 H487 0.951 . S
C506 C504 1.388 . S
C506 C507 1.366 . S
C507 C506 1.366 . S
C507 C508 1.414 1_445 S
C507 C510 1.499 . S
C508 H488 0.950 . S
C508 C507 1.414 1_665 S
C508 C509 1.374 . S
C509 H489 0.950 . S
C509 C505 1.385 1_655 S
C509 C508 1.374 . S
C510 C507 1.499 . S
C510 C511 1.373 . S
C510 C512 1.389 1_545 S
C511 H490 0.950 1_455 S
C511 C510 1.373 . S
C511 C527 1.377 . S
C512 C510 1.389 1_565 S
C512 C513 1.524 . S
C512 C526 1.377 1_565 S
C513 C512 1.524 . S
C513 C514 1.397 . S
C513 C518 1.363 . S
C514 H491 0.950 . S
C514 C513 1.397 . S
C514 C515 1.334 . S
C515 H492 0.950 . S
C515 C514 1.334 . S
C515 C516 1.287 . S
C516 C515 1.287 . S
C516 C517 1.524 . S
C516 H535 0.913 . S
C517 H493 0.950 . S
C517 C516 1.524 . S
C517 C518 1.415 . S
C518 H494 0.950 . S
C518 C513 1.363 . S
C518 C517 1.415 . S
C519 H495 0.951 1_455 S
C519 C520 1.366 . S
C519 C521 1.388 . S
C520 C519 1.366 . S
C520 C524 1.385 . S
C521 H496 0.951 1_455 S
C521 C519 1.388 . S
C521 C522 1.366 . S
C522 C521 1.366 . S
C522 C523 1.414 . S
C522 C525 1.499 . S
C523 H497 0.950 . S
C523 C522 1.414 . S
C523 C524 1.374 . S
C524 H498 0.950 . S
C524 C520 1.385 . S
C524 C523 1.374 . S
C525 C522 1.499 . S
C525 C526 1.373 . S
C525 C527 1.389 . S
C526 H499 0.950 1_545 S
C526 C512 1.377 1_545 S
C526 C525 1.373 . S
C527 C511 1.377 . S
C527 C525 1.389 . S
C527 C528 1.524 1_455 S
C528 C527 1.524 1_655 S
C528 C529 1.397 . S
C528 C533 1.363 . S
C529 H500 0.950 1_655 S
C529 C528 1.397 . S
C529 C530 1.334 . S
C530 H501 0.950 . S
C530 C529 1.334 . S
C530 C531 1.287 . S
C531 C530 1.287 . S
C531 C532 1.524 . S
C531 H534 0.999 . S
C532 H502 0.950 . S
C532 C531 1.524 . S
C532 C533 1.415 . S
C533 H503 0.950 . S
C533 C528 1.363 . S
C533 C532 1.415 . S
H534 C531 0.999 . S
H535 C516 0.913 . S
H536 C554 0.955 . S
H537 C556 0.951 1_655 S
H538 C558 0.950 . S
H539 C559 0.950 . S
H540 C561 0.950 . S
H541 C564 0.950 . S
H542 C565 0.950 . S
H543 C567 0.950 . S
H544 C568 0.950 . S
H545 C569 0.951 . S
H546 C571 0.951 . S
H547 C573 0.950 . S
H548 C574 0.950 . S
H549 C576 0.950 . S
H550 C579 0.950 . S
H551 C580 0.950 . S
H552 C582 0.950 . S
H553 C583 0.950 . S
C554 H536 0.955 . S
C554 C555 1.366 . S
C554 C556 1.388 . S
C555 C554 1.366 . S
C555 C559 1.385 1_565 S
C556 H537 0.951 1_455 S
C556 C554 1.388 . S
C556 C557 1.366 . S
C557 C556 1.366 . S
C557 C558 1.414 1_565 S
C557 C560 1.499 . S
C558 H538 0.950 . S
C558 C557 1.414 1_545 S
C558 C559 1.374 . S
C559 H539 0.950 . S
C559 C555 1.385 1_545 S
C559 C558 1.374 . S
C560 C557 1.499 . S
C560 C561 1.373 1_465 S
C560 C562 1.389 . S
C561 H540 0.950 . S
C561 C560 1.373 1_645 S
C561 C577 1.377 . S
C562 C560 1.389 . S
C562 C563 1.524 . S
C562 C576 1.377 . S
C563 C562 1.524 . S
C563 C564 1.397 . S
C563 C568 1.363 . S
C564 H541 0.950 . S
C564 C563 1.397 . S
C564 C565 1.334 . S
C565 H542 0.950 . S
C565 C564 1.334 . S
C565 C566 1.287 . S
C566 C565 1.287 . S
C566 C567 1.524 . S
C566 H585 0.913 . S
C567 H543 0.950 . S
C567 C566 1.524 . S
C567 C568 1.415 . S
C568 H544 0.950 . S
C568 C563 1.363 . S
C568 C567 1.415 . S
C569 H545 0.951 . S
C569 C570 1.363 1_455 S
C569 C571 1.388 . S
C570 C569 1.363 1_655 S
C570 C574 1.388 1_545 S
C571 H546 0.951 . S
C571 C569 1.388 . S
C571 C572 1.366 . S
C572 C571 1.366 . S
C572 C573 1.414 1_445 S
C572 C575 1.499 . S
C573 H547 0.950 . S
C573 C572 1.414 1_665 S
C573 C574 1.374 . S
C574 H548 0.950 . S
C574 C570 1.388 1_565 S
C574 C573 1.374 . S
C575 C572 1.499 . S
C575 C576 1.373 1_545 S
C575 C577 1.389 1_455 S
C576 H549 0.950 . S
C576 C562 1.377 . S
C576 C575 1.373 1_565 S
C577 C561 1.377 . S
C577 C575 1.389 1_655 S
C577 C578 1.524 . S
C578 C577 1.524 . S
C578 C579 1.397 . S
C578 C583 1.363 . S
C579 H550 0.950 . S
C579 C578 1.397 . S
C579 C580 1.334 . S
C580 H551 0.950 . S
C580 C579 1.334 . S
C580 C581 1.287 . S
C581 C580 1.287 . S
C581 C582 1.524 . S
C581 H584 0.999 . S
C582 H552 0.950 . S
C582 C581 1.524 . S
C582 C583 1.415 . S
C583 H553 0.950 . S
C583 C578 1.363 . S
C583 C582 1.415 . S
H584 C581 0.999 . S
H585 C566 0.913 . S
H586 C604 0.951 . S
H587 C606 0.951 . S
H588 C608 0.950 . S
H589 C609 0.950 . S
H590 C611 0.950 . S
H591 C614 0.950 . S
H592 C615 0.950 . S
H593 C617 0.950 . S
H594 C618 0.950 . S
H595 C619 0.951 . S
H596 C621 0.951 . S
H597 C623 0.950 . S
H598 C624 0.950 . S
H599 C626 0.950 . S
H600 C629 0.950 . S
H601 C630 0.950 . S
H602 C632 0.950 . S
H603 C633 0.950 . S
C604 H586 0.951 . S
C604 C605 1.366 . S
C604 C606 1.388 . S
C605 C604 1.366 . S
C605 C609 1.385 . S
C606 H587 0.951 . S
C606 C604 1.388 . S
C606 C607 1.366 . S
C607 C606 1.366 . S
C607 C608 1.414 . S
C607 C610 1.499 . S
C608 H588 0.950 . S
C608 C607 1.414 . S
C608 C609 1.374 . S
C609 H589 0.950 . S
C609 C605 1.385 . S
C609 C608 1.374 . S
C610 C607 1.499 . S
C610 C611 1.373 . S
C610 C612 1.389 . S
C611 H590 0.950 . S
C611 C610 1.373 . S
C611 C627 1.377 . S
C612 C610 1.389 . S
C612 C613 1.524 . S
C612 C626 1.377 . S
C613 C612 1.524 . S
C613 C614 1.397 . S
C613 C618 1.363 . S
C614 H591 0.950 . S
C614 C613 1.397 . S
C614 C615 1.334 . S
C615 H592 0.950 . S
C615 C614 1.334 . S
C615 C616 1.287 . S
C616 C615 1.287 . S
C616 C617 1.524 . S
C616 H635 0.913 . S
C617 H593 0.950 . S
C617 C616 1.524 . S
C617 C618 1.415 . S
C618 H594 0.950 . S
C618 C613 1.363 . S
C618 C617 1.415 . S
C619 H595 0.951 . S
C619 C620 1.366 . S
C619 C621 1.388 . S
C620 C619 1.366 . S
C620 C624 1.385 . S
C621 H596 0.951 . S
C621 C619 1.388 . S
C621 C622 1.366 . S
C622 C621 1.366 . S
C622 C623 1.414 . S
C622 C625 1.499 . S
C623 H597 0.950 . S
C623 C622 1.414 . S
C623 C624 1.374 . S
C624 H598 0.950 . S
C624 C620 1.385 . S
C624 C623 1.374 . S
C625 C622 1.499 . S
C625 C626 1.373 . S
C625 C627 1.389 . S
C626 H599 0.950 . S
C626 C612 1.377 . S
C626 C625 1.373 . S
C627 C611 1.377 . S
C627 C625 1.389 . S
C627 C628 1.524 . S
C628 C627 1.524 . S
C628 C629 1.397 . S
C628 C633 1.363 . S
C629 H600 0.950 . S
C629 C628 1.397 . S
C629 C630 1.334 . S
C630 H601 0.950 . S
C630 C629 1.334 . S
C630 C631 1.287 . S
C631 C630 1.287 . S
C631 C632 1.524 . S
C631 H634 0.999 . S
C632 H602 0.950 . S
C632 C631 1.524 . S
C632 C633 1.415 . S
C633 H603 0.950 . S
C633 C628 1.363 . S
C633 C632 1.415 . S
H634 C631 0.999 . S
H635 C616 0.913 . S
H636 C654 0.951 . S
H637 C656 0.951 . S
H638 C658 0.950 . S
H639 C659 0.950 . S
H640 C661 0.950 . S
H641 C664 0.950 . S
H642 C665 0.950 . S
H643 C667 0.950 . S
H644 C668 0.950 . S
H645 C669 0.951 . S
H646 C671 0.951 . S
H647 C673 0.950 . S
H648 C674 0.950 . S
H649 C676 0.950 . S
H650 C679 0.950 . S
H651 C680 0.950 . S
H652 C682 0.950 . S
H653 C683 0.950 . S
C654 H636 0.951 . S
C654 C655 1.366 . S
C654 C656 1.388 . S
C655 C654 1.366 . S
C655 C659 1.385 . S
C656 H637 0.951 . S
C656 C654 1.388 . S
C656 C657 1.366 . S
C657 C656 1.366 . S
C657 C658 1.414 . S
C657 C660 1.499 . S
C658 H638 0.950 . S
C658 C657 1.414 . S
C658 C659 1.374 . S
C659 H639 0.950 . S
C659 C655 1.385 . S
C659 C658 1.374 . S
C660 C657 1.499 . S
C660 C661 1.373 . S
C660 C662 1.389 . S
C661 H640 0.950 . S
C661 C660 1.373 . S
C661 C677 1.377 . S
C662 C660 1.389 . S
C662 C663 1.524 . S
C662 C676 1.377 . S
C663 C662 1.524 . S
C663 C664 1.397 . S
C663 C668 1.363 . S
C664 H641 0.950 . S
C664 C663 1.397 . S
C664 C665 1.334 . S
C665 H642 0.950 . S
C665 C664 1.334 . S
C665 C666 1.287 . S
C666 C665 1.287 . S
C666 C667 1.524 . S
C666 H685 0.913 . S
C667 H643 0.950 . S
C667 C666 1.524 . S
C667 C668 1.415 . S
C668 H644 0.950 . S
C668 C663 1.363 . S
C668 C667 1.415 . S
C669 H645 0.951 . S
C669 C670 1.366 . S
C669 C671 1.388 . S
C670 C669 1.366 . S
C670 C674 1.385 . S
C671 H646 0.951 . S
C671 C669 1.388 . S
C671 C672 1.366 . S
C672 C671 1.366 . S
C672 C673 1.414 . S
C672 C675 1.499 . S
C673 H647 0.950 . S
C673 C672 1.414 . S
C673 C674 1.374 . S
C674 H648 0.950 . S
C674 C670 1.385 . S
C674 C673 1.374 . S
C675 C672 1.499 . S
C675 C676 1.373 . S
C675 C677 1.389 . S
C676 H649 0.950 . S
C676 C662 1.377 . S
C676 C675 1.373 . S
C677 C661 1.377 . S
C677 C675 1.389 . S
C677 C678 1.524 . S
C678 C677 1.524 . S
C678 C679 1.397 . S
C678 C683 1.363 . S
C679 H650 0.950 . S
C679 C678 1.397 . S
C679 C680 1.334 . S
C680 H651 0.950 . S
C680 C679 1.334 . S
C680 C681 1.287 . S
C681 C680 1.287 . S
C681 C682 1.524 . S
C681 H684 0.999 . S
C682 H652 0.950 . S
C682 C681 1.524 . S
C682 C683 1.415 . S
C683 H653 0.950 . S
C683 C678 1.363 . S
C683 C682 1.415 . S
H684 C681 0.999 . S
H685 C666 0.913 . S
C120 C80 1.084 . S
C105 C3 1.134 . S
C155 C4 1.557 1_556 S
C170 C69 1.488 . S
C205 C19 1.509 . S
C220 C83 1.587 . S
C255 C7 1.076 . S
C270 C72 1.185 . S
C305 C37 1.134 . S
C320 C58 1.084 . S
C355 C28 1.558 . S
C370 C47 1.472 1_655 S
C420 C61 1.587 . S
C405 C41 1.508 . S
C470 C50 1.186 . S
C455 C25 1.075 . S
C505 C20 1.305 . S
C520 C49 1.409 . S
C555 C16 1.364 . S
C570 C60 1.463 1_655 S
C620 C71 1.409 . S
C605 C40 1.306 . S
C655 C24 1.364 . S
C670 C82 1.467 . S
