# Generated by pormake.
# Topology pyr, (3,6)-cn, num edge types: 1
# Building blocks:
#     Node 0, Type 0, BuildingBlock: OLANEW_clean_sbu_2, # of connection points: 3
#     Node 1, Type 0, BuildingBlock: OLANEW_clean_sbu_2, # of connection points: 3
#     Node 2, Type 0, BuildingBlock: OLANEW_clean_sbu_2, # of connection points: 3
#     Node 3, Type 0, BuildingBlock: OLANEW_clean_sbu_2, # of connection points: 3
#     Node 4, Type 0, BuildingBlock: OLANEW_clean_sbu_2, # of connection points: 3
#     Node 5, Type 0, BuildingBlock: OLANEW_clean_sbu_2, # of connection points: 3
#     Node 6, Type 0, BuildingBlock: OLANEW_clean_sbu_2, # of connection points: 3
#     Node 7, Type 0, BuildingBlock: OLANEW_clean_sbu_2, # of connection points: 3
#     Node 8, Type 1, BuildingBlock: BETDIP_clean_sbu_0, # of connection points: 6
#     Node 9, Type 1, BuildingBlock: BETDIP_clean_sbu_0, # of connection points: 6
#     Node 10, Type 1, BuildingBlock: BETDIP_clean_sbu_0, # of connection points: 6
#     Node 11, Type 1, BuildingBlock: BETDIP_clean_sbu_0, # of connection points: 6
#     Edge 12, Type (0, 1), BuildingBlock: ZUJKAS_clean_linker_0, # of connection points: 2
#     Edge 13, Type (0, 1), BuildingBlock: ZUJKAS_clean_linker_0, # of connection points: 2
#     Edge 14, Type (0, 1), BuildingBlock: ZUJKAS_clean_linker_0, # of connection points: 2
#     Edge 15, Type (0, 1), BuildingBlock: ZUJKAS_clean_linker_0, # of connection points: 2
#     Edge 16, Type (0, 1), BuildingBlock: ZUJKAS_clean_linker_0, # of connection points: 2
#     Edge 17, Type (0, 1), BuildingBlock: ZUJKAS_clean_linker_0, # of connection points: 2
#     Edge 18, Type (0, 1), BuildingBlock: ZUJKAS_clean_linker_0, # of connection points: 2
#     Edge 19, Type (0, 1), BuildingBlock: ZUJKAS_clean_linker_0, # of connection points: 2
#     Edge 20, Type (0, 1), BuildingBlock: ZUJKAS_clean_linker_0, # of connection points: 2
#     Edge 21, Type (0, 1), BuildingBlock: ZUJKAS_clean_linker_0, # of connection points: 2
#     Edge 22, Type (0, 1), BuildingBlock: ZUJKAS_clean_linker_0, # of connection points: 2
#     Edge 23, Type (0, 1), BuildingBlock: ZUJKAS_clean_linker_0, # of connection points: 2
#     Edge 24, Type (0, 1), BuildingBlock: ZUJKAS_clean_linker_0, # of connection points: 2
#     Edge 25, Type (0, 1), BuildingBlock: ZUJKAS_clean_linker_0, # of connection points: 2
#     Edge 26, Type (0, 1), BuildingBlock: ZUJKAS_clean_linker_0, # of connection points: 2
#     Edge 27, Type (0, 1), BuildingBlock: ZUJKAS_clean_linker_0, # of connection points: 2
#     Edge 28, Type (0, 1), BuildingBlock: ZUJKAS_clean_linker_0, # of connection points: 2
#     Edge 29, Type (0, 1), BuildingBlock: ZUJKAS_clean_linker_0, # of connection points: 2
#     Edge 30, Type (0, 1), BuildingBlock: ZUJKAS_clean_linker_0, # of connection points: 2
#     Edge 31, Type (0, 1), BuildingBlock: ZUJKAS_clean_linker_0, # of connection points: 2
#     Edge 32, Type (0, 1), BuildingBlock: ZUJKAS_clean_linker_0, # of connection points: 2
#     Edge 33, Type (0, 1), BuildingBlock: ZUJKAS_clean_linker_0, # of connection points: 2
#     Edge 34, Type (0, 1), BuildingBlock: ZUJKAS_clean_linker_0, # of connection points: 2
#     Edge 35, Type (0, 1), BuildingBlock: ZUJKAS_clean_linker_0, # of connection points: 2
# Relax obj value: 0.131
# Max RMSD: 0.225
# Mean RMSD: 0.143
data_MOF--net-pyr--node1-OLANEW_clean_sbu_2--node2-BETDIP_clean_sbu_0--edge1-ZUJKAS_clean_linker_0
_symmetry_space_group_name_H-M    P1
_symmetry_Int_Tables_number       1
_symmetry_cell_setting            triclinic
loop_
_symmetry_equiv_pos_as_xyz
'x, y, z'
_cell_length_a     48.234896
_cell_length_b     55.052313
_cell_length_c     53.25382
_cell_angle_alpha  91.801631
_cell_angle_beta   92.685939
_cell_angle_gamma 106.49328
loop_
_atom_site_label
_atom_site_type_symbol
_atom_site_fract_x
_atom_site_fract_y
_atom_site_fract_z
_atom_type_partial_charge
O0 O 0.37988 0.27066 0.15709 0.0
Cd1 Cd 0.36784 0.30943 0.16987 0.0
O2 O 0.35706 0.25407 0.18974 0.0
Cd3 Cd 0.3385 0.22462 0.21577 0.0
O4 O 0.31194 0.20196 0.24353 0.0
C5 C 0.32206 0.20178 0.26597 0.0
O6 O 0.3491 0.21464 0.27196 0.0
C7 C 0.37217 0.25207 0.17126 0.0
C8 C 0.31976 0.31888 0.14538 0.0
O9 O 0.34525 0.32816 0.1377 0.0
O10 O 0.3169 0.30444 0.16409 0.0
O11 O 0.21091 0.76597 0.78362 0.0
Cd12 Cd 0.18299 0.74357 0.74618 0.0
O13 O 0.20931 0.80355 0.77188 0.0
Cd14 Cd 0.18022 0.7916 0.73837 0.0
O15 O 0.15361 0.8064 0.71211 0.0
C16 C 0.14989 0.82725 0.71994 0.0
O17 O 0.16132 0.83683 0.74225 0.0
C18 C 0.21808 0.7899 0.78743 0.0
C19 C 0.21687 0.71841 0.72087 0.0
O20 O 0.2167 0.74086 0.71533 0.0
O21 O 0.20051 0.70765 0.73801 0.0
O22 O 0.68505 0.38933 0.84967 0.0
Cd23 Cd 0.63956 0.37487 0.82312 0.0
O24 O 0.67048 0.35595 0.87227 0.0
Cd25 Cd 0.66994 0.32691 0.90013 0.0
O26 O 0.65739 0.29095 0.91973 0.0
C27 C 0.64485 0.2893 0.94038 0.0
O28 O 0.64027 0.30975 0.9506 0.0
C29 C 0.68966 0.37652 0.86813 0.0
C30 C 0.63128 0.4049 0.78324 0.0
O31 O 0.62463 0.40937 0.80561 0.0
O32 O 0.64272 0.38678 0.77982 0.0
O33 O 0.91191 0.74238 0.33041 0.0
Cd34 Cd 0.88755 0.70002 0.30995 0.0
O35 O 0.88098 0.73372 0.36037 0.0
Cd36 Cd 0.85421 0.69513 0.35027 0.0
O37 O 0.81679 0.6686 0.36593 0.0
C38 C 0.80283 0.67944 0.38001 0.0
O39 O 0.81145 0.7043 0.38284 0.0
C40 C 0.90231 0.74901 0.35067 0.0
C41 C 0.91003 0.68039 0.26844 0.0
O42 O 0.8933 0.69462 0.26535 0.0
O43 O 0.91731 0.67649 0.2911 0.0
O44 O 0.72362 0.78225 0.80859 0.0
Cd45 Cd 0.69665 0.75808 0.84184 0.0
O46 O 0.71579 0.81598 0.82572 0.0
Cd47 Cd 0.71481 0.85465 0.83553 0.0
O48 O 0.6997 0.88208 0.85755 0.0
C49 C 0.67248 0.8772 0.85929 0.0
O50 O 0.65541 0.85708 0.84688 0.0
C51 C 0.72691 0.80598 0.80842 0.0
C52 C 0.73039 0.73338 0.86915 0.0
O53 O 0.71472 0.72264 0.84956 0.0
O54 O 0.72997 0.75581 0.87594 0.0
O55 O 0.82614 0.26708 0.35846 0.0
Cd56 Cd 0.84659 0.27818 0.40148 0.0
O57 O 0.83637 0.3058 0.34491 0.0
Cd58 Cd 0.84603 0.32356 0.38273 0.0
O59 O 0.82676 0.34599 0.40733 0.0
C60 C 0.81432 0.36004 0.39546 0.0
O61 O 0.81587 0.36068 0.37091 0.0
C62 C 0.82664 0.28197 0.34061 0.0
C63 C 0.87122 0.24051 0.41698 0.0
O64 O 0.84455 0.23866 0.42017 0.0
O65 O 0.88642 0.26043 0.40695 0.0
O66 O 0.41105 0.7421 0.24142 0.0
Cd67 Cd 0.38586 0.69944 0.25553 0.0
O68 O 0.37249 0.7422 0.21746 0.0
Cd69 Cd 0.34539 0.70331 0.221 0.0
O70 O 0.30957 0.67238 0.20374 0.0
C71 C 0.30919 0.66908 0.17995 0.0
O72 O 0.33062 0.68322 0.16786 0.0
C73 C 0.39803 0.75341 0.2264 0.0
C74 C 0.40794 0.68058 0.2983 0.0
O75 O 0.41517 0.67603 0.27616 0.0
O76 O 0.39124 0.69489 0.30041 0.0
O77 O 0.15344 0.3796 0.77065 0.0
Cd78 Cd 0.1681 0.36058 0.73289 0.0
O79 O 0.11343 0.34822 0.77302 0.0
Cd80 Cd 0.11906 0.32364 0.74131 0.0
O81 O 0.11267 0.29058 0.71481 0.0
C82 C 0.09458 0.26987 0.72016 0.0
O83 O 0.08099 0.26927 0.74105 0.0
C84 C 0.13016 0.36954 0.78143 0.0
C85 C 0.21382 0.39222 0.70791 0.0
O86 O 0.18745 0.39159 0.70243 0.0
O87 O 0.21866 0.37837 0.72555 0.0
Tb88 Tb 0.97668 0.999 0.53484 0.0
Tb89 Tb 0.03814 0.02582 0.52651 0.0
C90 C 0.92886 0.96687 0.54075 0.0
C91 C 0.91504 0.95415 0.56271 0.0
C92 C 0.89242 0.9316 0.55932 0.0
C93 C 0.87826 0.92004 0.58005 0.0
C94 C 0.88641 0.93099 0.60449 0.0
C95 C 0.90945 0.95339 0.60782 0.0
C96 C 0.92375 0.9648 0.58712 0.0
C97 C 0.99888 0.04095 0.56339 0.0
C98 C 0.02737 0.9841 0.56533 0.0
C99 C 0.08631 0.05797 0.52187 0.0
C100 C 0.1022 0.07091 0.50097 0.0
C101 C 0.12538 0.09278 0.50602 0.0
C102 C 0.142 0.10434 0.48655 0.0
C103 C 0.1358 0.09411 0.46167 0.0
C104 C 0.11198 0.0725 0.45664 0.0
C105 C 0.09527 0.06104 0.47612 0.0
C106 C 0.0163 0.9839 0.49782 0.0
C107 C 0.98709 0.04138 0.49704 0.0
O108 O 0.95174 0.96077 0.53372 0.0
O109 O 0.93255 0.99132 0.54086 0.0
O110 O 0.01157 0.02487 0.55725 0.0
O111 O 0.97194 0.03243 0.55579 0.0
O112 O 1.00038 0.97659 0.55567 0.0
O113 O 0.04497 0.00627 0.56003 0.0
O114 O 0.06289 0.06406 0.52723 0.0
O115 O 0.08256 0.03351 0.52189 0.0
O116 O 0.0033 0.99985 0.50386 0.0
O117 O 0.04317 0.99265 0.50557 0.0
O118 O 0.01431 0.04844 0.50621 0.0
O119 O 0.96932 0.01917 0.502 0.0
H120 H 0.88545 0.92313 0.5406 0.0
H121 H 0.86047 0.90288 0.57689 0.0
H122 H 0.91646 0.96206 0.62645 0.0
H123 H 0.94137 0.98211 0.59013 0.0
H124 H 0.13089 0.10071 0.5251 0.0
H125 H 0.15982 0.12122 0.49103 0.0
H126 H 0.10673 0.06397 0.43778 0.0
H127 H 0.07736 0.04415 0.47189 0.0
Tb128 Tb 0.55207 0.03485 0.09592 0.0
Tb129 Tb 0.49046 0.00674 0.07092 0.0
C130 C 0.59771 0.06465 0.11577 0.0
C131 C 0.60959 0.09079 0.1267 0.0
C132 C 0.62165 0.1112 0.11157 0.0
C133 C 0.63688 0.13494 0.12262 0.0
C134 C 0.64039 0.13868 0.14897 0.0
C135 C 0.6272 0.11851 0.16395 0.0
C136 C 0.61207 0.09488 0.15296 0.0
C137 C 0.5267 0.9889 0.11071 0.0
C138 C 0.49627 0.05139 0.1103 0.0
C139 C 0.44387 0.97255 0.06163 0.0
C140 C 0.4281 0.95715 0.0397 0.0
C141 C 0.40699 0.93436 0.04345 0.0
C142 C 0.39153 0.91942 0.0229 0.0
C143 C 0.3969 0.92709 0.99822 0.0
C144 C 0.41834 0.9499 0.99454 0.0
C145 C 0.43392 0.96477 0.01514 0.0
C146 C 0.51641 0.04825 0.04706 0.0
C147 C 0.54752 0.99894 0.048 0.0
O148 O 0.59207 0.06155 0.09132 0.0
O149 O 0.57821 0.04895 0.12846 0.0
O150 O 0.51446 1.00566 0.1055 0.0
O151 O 0.55432 0.99816 0.10888 0.0
O152 O 0.52481 0.0581 0.10861 0.0
O153 O 0.47907 0.02973 0.10026 0.0
O154 O 0.46821 0.96804 0.06899 0.0
O155 O 0.44591 0.99686 0.06181 0.0
O156 O 0.52479 0.03879 0.06592 0.0
O157 O 0.49115 0.03305 0.03973 0.0
O158 O 0.51918 0.98985 0.05039 0.0
O159 O 0.56426 0.01835 0.0621 0.0
H160 H 0.62027 0.10863 0.09126 0.0
H161 H 0.6466 0.15016 0.11057 0.0
H162 H 0.62989 0.1205 0.18429 0.0
H163 H 0.60342 0.07948 0.16516 0.0
H164 H 0.40234 0.92819 0.06232 0.0
H165 H 0.37495 0.90211 0.02634 0.0
H166 H 0.42318 0.95614 0.97574 0.0
H167 H 0.4504 0.98223 0.01193 0.0
Tb168 Tb 0.51019 0.5653 0.55623 0.0
Tb169 Tb 0.50639 0.51451 0.53235 0.0
C170 C 0.4997 0.60599 0.56917 0.0
C171 C 0.47813 0.61298 0.58416 0.0
C172 C 0.47351 0.63677 0.58156 0.0
C173 C 0.45202 0.64328 0.59464 0.0
C174 C 0.43465 0.62598 0.61044 0.0
C175 C 0.43954 0.60217 0.61315 0.0
C176 C 0.46122 0.59577 0.60018 0.0
C177 C 0.53676 0.53804 0.58266 0.0
C178 C 0.45495 0.51736 0.56416 0.0
C179 C 0.51706 0.47434 0.51801 0.0
C180 C 0.54292 0.46777 0.50994 0.0
C181 C 0.57039 0.47898 0.52195 0.0
C182 C 0.59463 0.4724 0.51397 0.0
C183 C 0.59186 0.45473 0.49369 0.0
C184 C 0.56438 0.44378 0.48159 0.0
C185 C 0.54014 0.45021 0.48969 0.0
C186 C 0.48098 0.54286 0.5058 0.0
C187 C 0.56176 0.56148 0.52542 0.0
O188 O 0.48949 0.59307 0.54806 0.0
O189 O 0.51837 0.59687 0.58145 0.0
O190 O 0.51291 0.52996 0.57005 0.0
O191 O 0.54555 0.56256 0.58214 0.0
O192 O 0.46674 0.54232 0.56571 0.0
O193 O 0.4679 0.50199 0.55329 0.0
O194 O 0.51743 0.48166 0.54167 0.0
O195 O 0.50671 0.48832 0.50289 0.0
O196 O 0.50461 0.55009 0.51868 0.0
O197 O 0.47123 0.51837 0.50644 0.0
O198 O 0.55135 0.5366 0.52696 0.0
O199 O 0.54696 0.57696 0.53294 0.0
H200 H 0.48627 0.65021 0.56914 0.0
H201 H 0.44853 0.66163 0.59192 0.0
H202 H 0.42671 0.58855 0.62536 0.0
H203 H 0.46463 0.57734 0.60252 0.0
H204 H 0.57315 0.49281 0.53747 0.0
H205 H 0.61558 0.48133 0.52346 0.0
H206 H 0.56154 0.42992 0.46608 0.0
H207 H 0.51915 0.44141 0.48017 0.0
Tb208 Tb 1.00041 0.53054 0.00721 0.0
Tb209 Tb 0.00587 0.49137 0.0438 0.0
C210 C 0.98281 0.55882 0.97812 0.0
C211 C 0.96455 0.5761 0.97811 0.0
C212 C 0.94072 0.57238 0.99319 0.0
C213 C 0.92216 0.58776 0.99089 0.0
C214 C 0.92727 0.60714 0.97358 0.0
C215 C 0.95178 0.61125 0.95921 0.0
C216 C 0.9702 0.59586 0.96146 0.0
C217 C 0.05157 0.53925 0.03124 0.0
C218 C 0.97987 0.53392 0.06333 0.0
C219 C 0.02305 0.46233 0.07238 0.0
C220 C 0.04471 0.4482 0.07295 0.0
C221 C 0.06636 0.45226 0.05558 0.0
C222 C 0.08736 0.43919 0.05711 0.0
C223 C 0.08717 0.42198 0.07618 0.0
C224 C 0.06522 0.41797 0.09342 0.0
C225 C 0.04418 0.4309 0.09175 0.0
C226 C 0.95457 0.48274 0.01999 0.0
C227 C 0.02847 0.48977 0.98828 0.0
O228 O 0.96954 0.53473 0.9801 0.0
O229 O 0.00734 0.56622 0.9916 0.0
O230 O 0.02726 0.53029 0.04008 0.0
O231 O 0.0478 0.54524 0.00822 0.0
O232 O 0.97795 0.5402 0.03956 0.0
O233 O 0.99244 0.51641 0.06989 0.0
O234 O 0.03327 0.48706 0.07393 0.0
O235 O 1.00141 0.45446 0.05555 0.0
O236 O 0.97884 0.49148 0.01091 0.0
O237 O 0.95856 0.47704 0.04306 0.0
O238 O 0.03119 0.48428 0.01222 0.0
O239 O 0.01371 0.50552 0.98132 0.0
H240 H 0.93608 0.55725 1.00626 0.0
H241 H 0.90362 0.58429 1.00239 0.0
H242 H 0.95612 0.62573 0.94543 0.0
H243 H 0.98845 0.59894 0.94963 0.0
H244 H 0.06722 0.46571 0.04105 0.0
H245 H 0.10372 0.44258 0.04337 0.0
H246 H 0.06465 0.40529 0.10865 0.0
H247 H 0.02773 0.42769 0.10543 0.0
H248 H 0.3369 0.19742 0.31547 0.0
H249 H 0.30498 0.17761 0.34803 0.0
H250 H 0.23239 0.15739 0.29337 0.0
H251 H 0.26419 0.17672 0.26061 0.0
H252 H 0.25763 0.19097 0.36404 0.0
H253 H 0.2248 0.09084 0.32732 0.0
H254 H 0.2551 0.11455 0.31591 0.0
H255 H 0.21871 0.11277 0.30494 0.0
C256 C 0.31421 0.18851 0.3103 0.0
C257 C 0.30311 0.1886 0.28542 0.0
C258 C 0.29599 0.17724 0.32894 0.0
C259 C 0.26639 0.16575 0.32306 0.0
C260 C 0.25528 0.16565 0.29822 0.0
H261 H 0.11959 0.1006 0.41276 0.0
H262 H 0.15113 0.11822 0.37908 0.0
C263 C 0.27348 0.17685 0.27954 0.0
C264 C 0.24692 0.15505 0.34318 0.0
H265 H 0.19896 0.10078 0.36127 0.0
C266 C 0.24493 0.17122 0.36351 0.0
C267 C 0.23028 0.12929 0.34238 0.0
C268 C 0.23246 0.11077 0.3216 0.0
C269 C 0.22648 0.1624 0.38292 0.0
C270 C 0.20985 0.1367 0.38209 0.0
C271 C 0.21171 0.12052 0.36175 0.0
C272 C 0.19082 0.12613 0.40247 0.0
C273 C 0.22456 0.18073 0.40399 0.0
C274 C 0.2028 0.12454 0.42664 0.0
C275 C 0.18493 0.1143 0.44585 0.0
C276 C 0.15468 0.10544 0.44125 0.0
C277 C 0.14278 0.10701 0.41691 0.0
C278 C 0.16073 0.11717 0.39767 0.0
H279 H 0.23357 0.20078 0.39901 0.0
H280 H 0.20174 0.17767 0.40893 0.0
H281 H 0.2371 0.17752 0.42095 0.0
H282 H 0.22604 0.13094 0.43057 0.0
H283 H 0.19489 0.11289 0.46418 0.0
H284 H 0.23637 0.84037 0.80105 0.0
H285 H 0.26727 0.86089 0.83772 0.0
H286 H 0.27273 0.78817 0.86155 0.0
H287 H 0.24196 0.76733 0.82462 0.0
H288 H 0.25685 0.85265 0.88865 0.0
H289 H 0.35807 0.83128 0.86249 0.0
H290 H 0.32784 0.82828 0.84011 0.0
H291 H 0.32644 0.80446 0.86267 0.0
C292 C 0.24418 0.82865 0.814 0.0
C293 C 0.23674 0.80217 0.80983 0.0
C294 C 0.26182 0.84046 0.83496 0.0
C295 C 0.27254 0.82609 0.85215 0.0
C296 C 0.26507 0.79964 0.84824 0.0
H297 H 0.38196 0.87553 0.99025 0.0
H298 H 0.35135 0.84997 0.95537 0.0
C299 C 0.24736 0.78775 0.82721 0.0
C300 C 0.29098 0.83899 0.8744 0.0
H301 H 0.35945 0.85287 0.90179 0.0
C302 C 0.27927 0.85267 0.89157 0.0
C303 C 0.32017 0.83887 0.87814 0.0
C304 C 0.33406 0.82512 0.85982 0.0
C305 C 0.29602 0.86638 0.91235 0.0
C306 C 0.32536 0.86671 0.9158 0.0
C307 C 0.33694 0.85259 0.89898 0.0
C308 C 0.3445 0.88216 0.93645 0.0
C309 C 0.28219 0.88034 0.93052 0.0
C310 C 0.35115 0.90869 0.93703 0.0
C311 C 0.36857 0.92331 0.95688 0.0
C312 C 0.37965 0.91162 0.9765 0.0
C313 C 0.37341 0.88503 0.97557 0.0
C314 C 0.35609 0.87043 0.95563 0.0
H315 H 0.25817 0.87321 0.92875 0.0
H316 H 0.28963 0.87853 0.95025 0.0
H317 H 0.28854 0.90078 0.92652 0.0
H318 H 0.34269 0.91808 0.92219 0.0
H319 H 0.37281 0.94372 0.95716 0.0
H320 H 0.6357 0.39576 0.73291 0.0
H321 H 0.62145 0.41791 0.69766 0.0
H322 H 0.59775 0.46917 0.74974 0.0
H323 H 0.61124 0.4467 0.78507 0.0
H324 H 0.55627 0.45162 0.71305 0.0
H325 H 0.66213 0.48527 0.67016 0.0
H326 H 0.6507 0.45159 0.6734 0.0
H327 H 0.65868 0.47257 0.70106 0.0
C328 C 0.62775 0.41192 0.73689 0.0
C329 C 0.6247 0.41948 0.76185 0.0
C330 C 0.61975 0.42467 0.71667 0.0
C331 C 0.60889 0.44549 0.72097 0.0
C332 C 0.60613 0.45323 0.7459 0.0
H333 H 0.58479 0.55484 0.61446 0.0
H334 H 0.60205 0.53154 0.64721 0.0
C335 C 0.61394 0.44038 0.76611 0.0
C336 C 0.5991 0.45847 0.69959 0.0
H337 H 0.62106 0.48973 0.64629 0.0
C338 C 0.57048 0.46 0.69849 0.0
C339 C 0.61768 0.46965 0.68068 0.0
C340 C 0.64908 0.46995 0.68145 0.0
C341 C 0.55991 0.47225 0.67905 0.0
C342 C 0.57822 0.48278 0.65973 0.0
C343 C 0.6069 0.4814 0.6609 0.0
C344 C 0.56842 0.49631 0.63882 0.0
C345 C 0.52945 0.47441 0.67984 0.0
C346 C 0.54414 0.48414 0.62274 0.0
C347 C 0.53408 0.49752 0.60413 0.0
C348 C 0.54836 0.52322 0.60102 0.0
C349 C 0.57326 0.53508 0.61647 0.0
C350 C 0.58319 0.52176 0.63517 0.0
H351 H 0.52126 0.4716 0.69901 0.0
H352 H 0.52828 0.49322 0.67377 0.0
H353 H 0.51483 0.45958 0.6669 0.0
H354 H 0.53275 0.46436 0.62476 0.0
H355 H 0.51483 0.48788 0.59252 0.0
H356 H 0.89869 0.68519 0.21811 0.0
H357 H 0.90984 0.66101 0.18246 0.0
H358 H 0.95257 0.62204 0.23344 0.0
H359 H 0.94148 0.64602 0.26917 0.0
H360 H 0.96432 0.65599 0.16656 0.0
H361 H 0.89107 0.56419 0.1932 0.0
H362 H 0.88914 0.59433 0.20615 0.0
H363 H 0.91687 0.58091 0.21776 0.0
C364 C 0.91065 0.67162 0.22176 0.0
C365 C 0.91904 0.66749 0.24658 0.0
C366 C 0.91699 0.65779 0.20133 0.0
C367 C 0.9316 0.63938 0.20528 0.0
C368 C 0.94081 0.6358 0.22994 0.0
H369 H 0.98509 0.52966 0.11432 0.0
H370 H 0.97272 0.55565 0.14752 0.0
C371 C 0.9346 0.64967 0.25036 0.0
C372 C 0.93689 0.62369 0.1837 0.0
H373 H 0.92155 0.5626 0.15994 0.0
C374 C 0.95485 0.63559 0.165 0.0
C375 C 0.9245 0.59707 0.18166 0.0
C376 C 0.90411 0.58331 0.20061 0.0
C377 C 0.96146 0.62152 0.14475 0.0
C378 C 0.94922 0.59483 0.14279 0.0
C379 C 0.93096 0.58301 0.16137 0.0
C380 C 0.95584 0.57867 0.12218 0.0
C381 C 0.98231 0.6353 0.12614 0.0
C382 C 0.94989 0.58247 0.09673 0.0
C383 C 0.95705 0.56761 0.07758 0.0
C384 C 0.97006 0.54844 0.08346 0.0
C385 C 0.97512 0.5442 0.10899 0.0
C386 C 0.96808 0.55911 0.12807 0.0
H387 H 0.99546 0.65428 0.13384 0.0
H388 H 0.9972 0.62419 0.12066 0.0
H389 H 0.96991 0.6381 0.10893 0.0
H390 H 0.93978 0.59698 0.09165 0.0
H391 H 0.95267 0.57136 0.05817 0.0
H392 H 0.38638 0.22172 0.20625 0.0
H393 H 0.40686 0.18643 0.19897 0.0
H394 H 0.40097 0.19581 0.11896 0.0
H395 H 0.38099 0.23148 0.12622 0.0
H396 H 0.3884 0.14134 0.17403 0.0
H397 H 0.48514 0.20022 0.13023 0.0
H398 H 0.46028 0.2138 0.14583 0.0
H399 H 0.45212 0.20112 0.11388 0.0
C400 C 0.38885 0.21591 0.18708 0.0
C401 C 0.3818 0.22917 0.16677 0.0
C402 C 0.40082 0.19587 0.18295 0.0
C403 C 0.40601 0.18876 0.15846 0.0
C404 C 0.39793 0.20138 0.13808 0.0
H405 H 0.43911 0.04992 0.10732 0.0
H406 H 0.41773 0.08265 0.12155 0.0
C407 C 0.38629 0.22162 0.14222 0.0
C408 C 0.42025 0.16842 0.15428 0.0
H409 H 0.47699 0.15545 0.12625 0.0
C410 C 0.40789 0.14446 0.16373 0.0
C411 C 0.44609 0.17263 0.14137 0.0
C412 C 0.46186 0.19841 0.13249 0.0
C413 C 0.42014 0.12441 0.15997 0.0
C414 C 0.44499 0.12822 0.14575 0.0
C415 C 0.45779 0.15239 0.13694 0.0
C416 C 0.45764 0.10735 0.13903 0.0
C417 C 0.4065 0.09949 0.17159 0.0
C418 C 0.48738 0.11039 0.14371 0.0
C419 C 0.49986 0.09184 0.13515 0.0
C420 C 0.48279 0.06979 0.12183 0.0
C421 C 0.45288 0.06649 0.11779 0.0
C422 C 0.44052 0.08517 0.12607 0.0
H423 H 0.39481 0.10222 0.18846 0.0
H424 H 0.39048 0.08694 0.15772 0.0
H425 H 0.42295 0.08977 0.17715 0.0
H426 H 0.50108 0.12739 0.15357 0.0
H427 H 0.52296 0.09502 0.13855 0.0
H428 H 0.12378 0.81353 0.67264 0.0
H429 H 0.09991 0.83813 0.64609 0.0
H430 H 0.11739 0.89734 0.7046 0.0
H431 H 0.14074 0.87284 0.73132 0.0
H432 H 0.06152 0.88581 0.683 0.0
H433 H 0.14296 0.90141 0.61024 0.0
H434 H 0.1262 0.86877 0.61639 0.0
H435 H 0.14898 0.88947 0.64057 0.0
C436 C 0.12244 0.83175 0.67987 0.0
C437 C 0.13433 0.8413 0.70403 0.0
C438 C 0.10893 0.84582 0.66463 0.0
C439 C 0.10729 0.86972 0.67325 0.0
C440 C 0.11851 0.87898 0.69756 0.0
H441 H 0.08093 0.99353 0.58946 0.0
H442 H 0.09883 0.96522 0.6161 0.0
C443 C 0.13192 0.86494 0.71279 0.0
C444 C 0.09427 0.88542 0.657 0.0
H445 H 0.10286 0.91728 0.60262 0.0
C446 C 0.07046 0.89263 0.66537 0.0
C447 C 0.10627 0.89454 0.63419 0.0
C448 C 0.13266 0.88838 0.62484 0.0
C449 C 0.05833 0.90879 0.65157 0.0
C450 C 0.07008 0.91763 0.6286 0.0
C451 C 0.09383 0.91035 0.62019 0.0
C452 C 0.0586 0.93499 0.61326 0.0
C453 C 0.03359 0.91684 0.66203 0.0
C454 C 0.03003 0.92735 0.60285 0.0
C455 C 0.01967 0.94353 0.58769 0.0
C456 C 0.0378 0.96757 0.58252 0.0
C457 C 0.06637 0.97519 0.59311 0.0
C458 C 0.07667 0.95902 0.60829 0.0
H459 H 0.0319 0.91356 0.68246 0.0
H460 H 0.03614 0.93722 0.65912 0.0
H461 H 0.01296 0.90564 0.65212 0.0
H462 H 0.01589 0.9087 0.60607 0.0
H463 H 0.99761 0.93699 0.57971 0.0
H464 H 0.74121 0.4073 0.85481 0.0
H465 H 0.78575 0.42458 0.88124 0.0
H466 H 0.74409 0.38542 0.94434 0.0
H467 H 0.69958 0.3678 0.91785 0.0
H468 H 0.79516 0.45554 0.92244 0.0
H469 H 0.81852 0.36597 0.94725 0.0
H470 H 0.79191 0.36711 0.9227 0.0
H471 H 0.78315 0.3671 0.95518 0.0
C472 C 0.74162 0.40212 0.87425 0.0
C473 C 0.71697 0.38576 0.88409 0.0
C474 C 0.76711 0.41205 0.88936 0.0
C475 C 0.76854 0.406 0.91471 0.0
C476 C 0.74388 0.38979 0.92466 0.0
H477 H 0.90155 0.45894 0.03668 0.0
H478 H 0.85597 0.44115 0.01143 0.0
C479 C 0.71841 0.37964 0.90946 0.0
C480 C 0.79545 0.41758 0.93085 0.0
H481 H 0.84714 0.40363 0.96927 0.0
C482 C 0.80656 0.44415 0.93258 0.0
C483 C 0.81041 0.40277 0.94413 0.0
C484 C 0.80058 0.37416 0.94208 0.0
C485 C 0.83196 0.45627 0.94734 0.0
C486 C 0.84677 0.44146 0.96065 0.0
C487 C 0.83564 0.41494 0.95911 0.0
C488 C 0.87414 0.45312 0.97596 0.0
C489 C 0.8426 0.48486 0.94888 0.0
C490 C 0.89948 0.46572 0.96437 0.0
C491 C 0.92556 0.47576 0.97872 0.0
C492 C 0.92673 0.47347 1.00493 0.0
C493 C 0.90127 0.46108 0.01652 0.0
C494 C 0.87525 0.45088 1.00214 0.0
H495 H 0.82569 0.49354 0.94195 0.0
H496 H 0.8497 0.49202 0.96855 0.0
H497 H 0.86153 0.49122 0.93715 0.0
H498 H 0.8992 0.46732 0.94414 0.0
H499 H 0.9449 0.48483 0.9692 0.0
H500 H 0.76778 0.69801 0.40899 0.0
H501 H 0.72776 0.67438 0.43286 0.0
H502 H 0.74113 0.604 0.4063 0.0
H503 H 0.78161 0.62761 0.3823 0.0
H504 H 0.67653 0.63671 0.41393 0.0
H505 H 0.74132 0.59938 0.48414 0.0
H506 H 0.75757 0.62555 0.46494 0.0
H507 H 0.74654 0.59374 0.45148 0.0
C508 C 0.76232 0.6775 0.40817 0.0
C509 C 0.77799 0.6647 0.39378 0.0
C510 C 0.73938 0.66403 0.42184 0.0
C511 C 0.73171 0.63748 0.42159 0.0
C512 C 0.74703 0.62452 0.40705 0.0
H513 H 0.59516 0.53525 0.50274 0.0
H514 H 0.63657 0.55235 0.47719 0.0
C515 C 0.77001 0.63803 0.39324 0.0
C516 C 0.70728 0.62365 0.43633 0.0
H517 H 0.69083 0.58828 0.48807 0.0
C518 C 0.67961 0.62601 0.43007 0.0
C519 C 0.71137 0.60961 0.45728 0.0
C520 C 0.7408 0.60695 0.46509 0.0
C521 C 0.65595 0.61496 0.44436 0.0
C522 C 0.66021 0.60166 0.46585 0.0
C523 C 0.68769 0.59864 0.4717 0.0
C524 C 0.63649 0.59142 0.48278 0.0
C525 C 0.62656 0.61754 0.43624 0.0
C526 C 0.62336 0.6078 0.49508 0.0
C527 C 0.5997 0.59813 0.50965 0.0
C528 C 0.58882 0.57186 0.51238 0.0
C529 C 0.60289 0.55558 0.50098 0.0
C530 C 0.62656 0.5653 0.48634 0.0
H531 H 0.62524 0.62169 0.41601 0.0
H532 H 0.60913 0.6 0.43954 0.0
H533 H 0.62252 0.63347 0.44734 0.0
H534 H 0.63114 0.62809 0.49306 0.0
H535 H 0.58958 0.61125 0.51831 0.0
H536 H 0.32041 0.3565 0.11292 0.0
H537 H 0.27948 0.37128 0.0982 0.0
H538 H 0.22138 0.31175 0.13695 0.0
H539 H 0.26233 0.29739 0.15244 0.0
H540 H 0.22972 0.35026 0.07009 0.0
H541 H 0.20431 0.37364 0.16686 0.0
H542 H 0.23696 0.36545 0.1603 0.0
H543 H 0.20325 0.341 0.16192 0.0
C544 C 0.29889 0.34644 0.11818 0.0
C545 C 0.29465 0.32596 0.13411 0.0
C546 C 0.27551 0.35491 0.10974 0.0
C547 C 0.24745 0.34302 0.11697 0.0
C548 C 0.24295 0.3217 0.13174 0.0
H549 H 0.08152 0.3731 0.0895 0.0
H550 H 0.12008 0.35307 0.0976 0.0
C551 C 0.26636 0.3134 0.14044 0.0
C552 C 0.22313 0.35341 0.10966 0.0
H553 H 0.17119 0.37709 0.13381 0.0
C554 C 0.21696 0.35616 0.08403 0.0
C555 C 0.20661 0.36131 0.12788 0.0
C556 C 0.21326 0.36046 0.15578 0.0
C557 C 0.19451 0.3663 0.07615 0.0
C558 C 0.17789 0.37386 0.09436 0.0
C559 C 0.18392 0.37105 0.11993 0.0
C560 C 0.15449 0.38533 0.08744 0.0
C561 C 0.18847 0.36871 0.04844 0.0
C562 C 0.16115 0.41008 0.07899 0.0
C563 C 0.13924 0.42178 0.07471 0.0
C564 C 0.11022 0.40889 0.07879 0.0
C565 C 0.10364 0.38378 0.08658 0.0
C566 C 0.12559 0.3722 0.09104 0.0
H567 H 0.20003 0.35823 0.03659 0.0
H568 H 0.16487 0.36151 0.04343 0.0
H569 H 0.19564 0.38902 0.04398 0.0
H570 H 0.18342 0.42063 0.07646 0.0
H571 H 0.14521 0.44123 0.06909 0.0
H572 H 0.61885 0.27983 0.98504 0.0
H573 H 0.5995 0.23888 1.00369 0.0
H574 H 0.62635 0.20142 0.94091 0.0
H575 H 0.64626 0.2424 0.92232 0.0
H576 H 0.55649 0.1982 0.98477 0.0
H577 H 0.65779 0.17072 1.00022 0.0
H578 H 0.65776 0.20253 0.99298 0.0
H579 H 0.65116 0.17814 0.96832 0.0
C580 C 0.62092 0.26293 0.97527 0.0
C581 C 0.63422 0.26447 0.95218 0.0
C582 C 0.60978 0.23949 0.98597 0.0
C583 C 0.61176 0.21704 0.97391 0.0
C584 C 0.62511 0.2185 0.95089 0.0
H585 H 0.50372 0.06512 1.0017 0.0
H586 H 0.52721 0.10584 0.9838 0.0
C587 C 0.63635 0.24196 0.94019 0.0
C588 C 0.59866 0.1921 0.98491 0.0
H589 H 0.61367 0.13879 1.00568 0.0
C590 C 0.56904 0.18525 0.9894 0.0
C591 C 0.61507 0.17531 0.99127 0.0
C592 C 0.64726 0.18209 0.9882 0.0
C593 C 0.5553 0.162 0.99971 0.0
C594 C 0.57146 0.14482 1.00525 0.0
C595 C 0.6012 0.15182 1.00116 0.0
C596 C 0.55795 0.11965 0.0156 0.0
C597 C 0.52368 0.15629 1.00502 0.0
C598 C 0.56794 0.11348 0.03908 0.0
C599 C 0.55468 0.09013 0.04921 0.0
C600 C 0.53135 0.07244 0.03596 0.0
C601 C 0.52164 0.07844 0.01232 0.0
C602 C 0.53494 0.10175 1.00216 0.0
H603 H 0.51668 0.17384 1.00628 0.0
H604 H 0.51041 0.14381 0.98949 0.0
H605 H 0.51914 0.14637 0.02286 0.0
H606 H 0.58563 0.12697 0.04983 0.0
H607 H 0.56219 0.08621 0.06766 0.0
H608 H 0.88485 0.76748 0.39325 0.0
H609 H 0.9052 0.8084 0.41534 0.0
H610 H 0.96964 0.82958 0.36042 0.0
H611 H 0.94901 0.78825 0.33768 0.0
H612 H 0.96045 0.82787 0.43696 0.0
H613 H 0.93653 0.89093 0.36465 0.0
H614 H 0.91955 0.85712 0.3632 0.0
H615 H 0.95621 0.8695 0.35441 0.0
C616 C 0.9033 0.78074 0.38564 0.0
C617 C 0.91526 0.77442 0.36357 0.0
C618 C 0.91492 0.80423 0.39839 0.0
C619 C 0.93878 0.8222 0.38949 0.0
C620 C 0.9509 0.81616 0.36744 0.0
H621 H 0.04515 0.95117 0.48192 0.0
H622 H 0.02661 0.91264 0.45499 0.0
C623 C 0.93921 0.79247 0.35454 0.0
C624 C 0.95121 0.84672 0.40414 0.0
H625 H 0.96239 0.91083 0.40218 0.0
C626 C 0.96098 0.84601 0.42929 0.0
C627 C 0.95149 0.87036 0.39428 0.0
C628 C 0.94019 0.87219 0.36773 0.0
C629 C 0.97103 0.86819 0.44482 0.0
C630 C 0.97177 0.89189 0.43488 0.0
C631 C 0.96191 0.89267 0.40975 0.0
C632 C 0.98309 0.916 0.45033 0.0
C633 C 0.98019 0.866 0.47195 0.0
C634 C 0.96495 0.9311 0.45625 0.0
C635 C 0.97556 0.9533 0.47168 0.0
C636 C 0.00454 0.96079 0.48125 0.0
C637 C 0.02269 0.94584 0.47492 0.0
C638 C 0.01211 0.92375 0.45958 0.0
H639 H 0.97152 0.84637 0.47826 0.0
H640 H 0.00418 0.87118 0.47408 0.0
H641 H 0.97278 0.87909 0.48452 0.0
H642 H 0.94248 0.92549 0.44927 0.0
H643 H 0.96112 0.96449 0.47623 0.0
H644 H 0.25198 0.73536 0.68245 0.0
H645 H 0.28609 0.71555 0.66387 0.0
H646 H 0.26003 0.65318 0.71284 0.0
H647 H 0.22587 0.67288 0.73164 0.0
H648 H 0.32088 0.6754 0.71235 0.0
H649 H 0.26941 0.65185 0.61586 0.0
H650 H 0.27437 0.6841 0.62677 0.0
H651 H 0.25014 0.65872 0.64221 0.0
C652 C 0.25327 0.7173 0.68911 0.0
C653 C 0.23618 0.70568 0.70851 0.0
C654 C 0.27267 0.70595 0.67838 0.0
C655 C 0.27532 0.68278 0.6868 0.0
C656 C 0.25816 0.67101 0.706 0.0
H657 H 0.37919 0.59636 0.61506 0.0
H658 H 0.3399 0.6082 0.63516 0.0
C659 C 0.23864 0.68228 0.71668 0.0
C660 C 0.29714 0.67158 0.67647 0.0
H661 H 0.31788 0.64953 0.62193 0.0
C662 C 0.32012 0.66952 0.69263 0.0
C663 C 0.29588 0.66369 0.65082 0.0
C664 C 0.271 0.66445 0.63291 0.0
C665 C 0.34246 0.66058 0.6836 0.0
C666 C 0.34186 0.65377 0.65772 0.0
C667 C 0.31837 0.65498 0.64173 0.0
C668 C 0.36591 0.64618 0.64668 0.0
C669 C 0.36657 0.65856 0.70177 0.0
C670 C 0.39347 0.66364 0.6465 0.0
C671 C 0.4159 0.65696 0.63507 0.0
C672 C 0.41117 0.63267 0.62358 0.0
C673 C 0.38358 0.61511 0.62402 0.0
C674 C 0.3611 0.62187 0.63535 0.0
H675 H 0.36017 0.65823 0.72156 0.0
H676 H 0.37312 0.6412 0.69735 0.0
H677 H 0.38569 0.67523 0.70019 0.0
H678 H 0.3975 0.68261 0.65485 0.0
H679 H 0.43696 0.67082 0.63519 0.0
H680 H 0.72972 0.8547 0.79471 0.0
H681 H 0.75699 0.87803 0.76111 0.0
H682 H 0.78778 0.81392 0.74229 0.0
H683 H 0.76134 0.79069 0.77616 0.0
H684 H 0.8231 0.88572 0.75331 0.0
H685 H 0.74537 0.83339 0.67601 0.0
H686 H 0.73483 0.83623 0.70785 0.0
H687 H 0.75549 0.81486 0.70019 0.0
C688 C 0.74269 0.8457 0.78386 0.0
C689 C 0.74354 0.82088 0.78847 0.0
C690 C 0.75809 0.85901 0.76449 0.0
C691 C 0.77424 0.8476 0.74923 0.0
C692 C 0.77527 0.82296 0.75381 0.0
H693 H 0.86991 0.88092 0.6156 0.0
H694 H 0.84319 0.86185 0.65144 0.0
C695 C 0.7601 0.80974 0.7732 0.0
C696 C 0.78992 0.86117 0.72828 0.0
H697 H 0.7895 0.86092 0.6642 0.0
C698 C 0.81573 0.88053 0.7338 0.0
C699 C 0.78024 0.85409 0.70296 0.0
C700 C 0.75237 0.83361 0.69622 0.0
C701 C 0.83264 0.89261 0.71451 0.0
C702 C 0.823 0.8855 0.68908 0.0
C703 C 0.7969 0.86633 0.68367 0.0
C704 C 0.83979 0.89735 0.66773 0.0
C705 C 0.86113 0.91217 0.7216 0.0
C706 C 0.84656 0.92361 0.66484 0.0
C707 C 0.862 0.93455 0.64448 0.0
C708 C 0.87055 0.91938 0.62638 0.0
C709 C 0.86346 0.89306 0.62915 0.0
C710 C 0.84826 0.88217 0.64965 0.0
H711 H 0.86909 0.91018 0.74113 0.0
H712 H 0.87797 0.91071 0.70858 0.0
H713 H 0.85821 0.9314 0.72053 0.0
H714 H 0.83956 0.93562 0.67813 0.0
H715 H 0.86671 0.95483 0.64259 0.0
H716 H 0.80064 0.23243 0.32604 0.0
H717 H 0.77485 0.21572 0.28597 0.0
H718 H 0.79744 0.29097 0.25768 0.0
H719 H 0.82291 0.30807 0.29811 0.0
H720 H 0.74048 0.26731 0.2494 0.0
H721 H 0.80254 0.20294 0.21804 0.0
H722 H 0.79178 0.19668 0.2495 0.0
H723 H 0.8162 0.22698 0.24297 0.0
C724 C 0.80057 0.24544 0.31122 0.0
C725 C 0.81387 0.27161 0.31532 0.0
C726 C 0.78595 0.23581 0.28821 0.0
C727 C 0.78462 0.25203 0.26867 0.0
C728 C 0.79838 0.2781 0.27246 0.0
H729 H 0.69323 0.16621 0.13404 0.0
H730 H 0.7294 0.20002 0.15826 0.0
C731 C 0.81296 0.28781 0.29556 0.0
C732 C 0.76679 0.24181 0.24522 0.0
H733 H 0.7526 0.1926 0.20159 0.0
C734 C 0.74347 0.25131 0.23858 0.0
C735 C 0.77103 0.22134 0.23071 0.0
C736 C 0.79696 0.21161 0.23552 0.0
C737 C 0.72305 0.23965 0.219 0.0
C738 C 0.72572 0.21759 0.20619 0.0
C739 C 0.75025 0.2093 0.2116 0.0
C740 C 0.70212 0.20121 0.18914 0.0
C741 C 0.69857 0.25081 0.21265 0.0
C742 C 0.67441 0.1912 0.19802 0.0
C743 C 0.65354 0.17217 0.18404 0.0
C744 C 0.66012 0.16238 0.16108 0.0
C745 C 0.68731 0.17346 0.15151 0.0
C746 C 0.70812 0.19267 0.16544 0.0
H747 H 0.70546 0.2717 0.21641 0.0
H748 H 0.6906 0.24666 0.19263 0.0
H749 H 0.68039 0.24269 0.22473 0.0
H750 H 0.66939 0.197 0.21647 0.0
H751 H 0.63269 0.16427 0.1918 0.0
H752 H 0.43607 0.64381 0.29892 0.0
H753 H 0.44788 0.62161 0.33514 0.0
H754 H 0.41344 0.66813 0.38439 0.0
H755 H 0.40075 0.6899 0.34814 0.0
H756 H 0.48247 0.63653 0.37654 0.0
H757 H 0.36966 0.59863 0.40455 0.0
H758 H 0.37821 0.61361 0.37514 0.0
H759 H 0.38107 0.63257 0.40383 0.0
C760 C 0.43106 0.64939 0.31746 0.0
C761 C 0.41725 0.66854 0.32056 0.0
C762 C 0.43782 0.63664 0.33819 0.0
C763 C 0.431 0.64274 0.36252 0.0
C764 C 0.41817 0.6625 0.36578 0.0
H765 H 0.50436 0.59324 0.49849 0.0
H766 H 0.49174 0.618 0.46474 0.0
C767 C 0.41115 0.67512 0.34502 0.0
C768 C 0.43746 0.62846 0.38436 0.0
H769 H 0.40667 0.59302 0.43283 0.0
C770 C 0.46587 0.627 0.38882 0.0
C771 C 0.41574 0.61561 0.40021 0.0
C772 C 0.38441 0.61492 0.39559 0.0
C773 C 0.47321 0.61331 0.40869 0.0
C774 C 0.45172 0.60124 0.4251 0.0
C775 C 0.42325 0.60249 0.4205 0.0
C776 C 0.45816 0.58666 0.44669 0.0
C777 C 0.50379 0.61136 0.41142 0.0
C778 C 0.44257 0.56105 0.44864 0.0
C779 C 0.44936 0.54697 0.46829 0.0
C780 C 0.47191 0.55821 0.48636 0.0
C781 C 0.4869 0.58402 0.48484 0.0
C782 C 0.47992 0.59814 0.46535 0.0
H783 H 0.51487 0.61504 0.39351 0.0
H784 H 0.51639 0.62575 0.42583 0.0
H785 H 0.50415 0.59232 0.41745 0.0
H786 H 0.42555 0.55177 0.43462 0.0
H787 H 0.43741 0.52713 0.46897 0.0
H788 H 0.1641 0.41065 0.81002 0.0
H789 H 0.15105 0.43102 0.84746 0.0
H790 H 0.06523 0.37864 0.8405 0.0
H791 H 0.07835 0.35774 0.80372 0.0
H792 H 0.11215 0.45555 0.85395 0.0
H793 H 0.08526 0.3724 0.91316 0.0
H794 H 0.10321 0.37244 0.88418 0.0
H795 H 0.06439 0.36587 0.88372 0.0
C796 C 0.14249 0.40337 0.81655 0.0
C797 C 0.12237 0.3824 0.80392 0.0
C798 C 0.13506 0.41504 0.83799 0.0
C799 C 0.10733 0.40605 0.84726 0.0
C800 C 0.08705 0.38547 0.83433 0.0
H801 H 0.01845 0.48932 0.93738 0.0
H802 H 0.03964 0.46972 0.90463 0.0
C803 C 0.09454 0.37364 0.8131 0.0
C804 C 0.09915 0.41876 0.86976 0.0
H805 H 0.06753 0.40722 0.92601 0.0
C806 C 0.10268 0.44499 0.86981 0.0
C807 C 0.08735 0.40522 0.89083 0.0
C808 C 0.08513 0.37749 0.89313 0.0
C809 C 0.09372 0.45779 0.88975 0.0
C810 C 0.08001 0.44389 0.90994 0.0
C811 C 0.07758 0.41787 0.91041 0.0
C812 C 0.06717 0.45578 0.93023 0.0
C813 C 0.09932 0.48614 0.88899 0.0
C814 C 0.0746 0.4537 0.95578 0.0
C815 C 0.06205 0.4646 0.97474 0.0
C816 C 0.04184 0.47784 0.96852 0.0
C817 C 0.03423 0.4796 0.94294 0.0
C818 C 0.04653 0.46853 0.92409 0.0
H819 H 0.11816 0.49474 0.87772 0.0
H820 H 0.08011 0.49034 0.87994 0.0
H821 H 0.10348 0.49534 0.90819 0.0
H822 H 0.09027 0.44377 0.96106 0.0
H823 H 0.06838 0.46281 0.9942 0.0
H824 H 0.61549 0.87095 0.86744 0.0
H825 H 0.5953 0.89379 0.89841 0.0
H826 H 0.68124 0.94031 0.92192 0.0
H827 H 0.7017 0.91772 0.89076 0.0
H828 H 0.608 0.89598 0.95047 0.0
H829 H 0.63547 0.9924 0.91282 0.0
H830 H 0.63599 0.96465 0.89404 0.0
H831 H 0.66533 0.97912 0.91665 0.0
C832 C 0.63013 0.88625 0.87896 0.0
C833 C 0.66023 0.89249 0.87663 0.0
C834 C 0.61853 0.89926 0.89667 0.0
C835 C 0.63674 0.91887 0.9123 0.0
C836 C 0.66676 0.92552 0.90974 0.0
H837 H 0.60492 0.01035 0.0379 0.0
H838 H 0.62674 0.99074 1.00533 0.0
C839 C 0.67842 0.9125 0.89199 0.0
C840 C 0.62434 0.93118 0.93231 0.0
H841 H 0.61611 0.98791 0.95309 0.0
C842 C 0.60967 0.91606 0.95101 0.0
C843 C 0.62675 0.9574 0.93302 0.0
C844 C 0.64152 0.97437 0.91297 0.0
C845 C 0.59752 0.92648 0.97057 0.0
C846 C 0.59963 0.95265 0.97115 0.0
C847 C 0.61451 0.96784 0.95256 0.0
C848 C 0.58627 0.96454 0.99079 0.0
C849 C 0.58301 0.90945 0.99069 0.0
C850 C 0.55624 0.95651 0.99321 0.0
C851 C 0.54368 0.96758 0.01186 0.0
C852 C 0.56091 0.98708 0.02834 0.0
C853 C 0.59098 0.99532 0.02562 0.0
C854 C 0.60352 0.98418 0.00698 0.0
H855 H 0.59008 0.89194 0.99137 0.0
H856 H 0.5877 0.91944 0.00953 0.0
H857 H 0.55922 0.9037 0.98656 0.0
H858 H 0.54246 0.94175 0.98056 0.0
H859 H 0.52043 0.96089 0.01321 0.0
H860 H 0.84331 0.19413 0.43418 0.0
H861 H 0.86416 0.15982 0.44489 0.0
H862 H 0.94836 0.2058 0.4263 0.0
H863 H 0.92777 0.24024 0.41552 0.0
H864 H 0.89689 0.13538 0.41189 0.0
H865 H 0.95966 0.18234 0.49922 0.0
H866 H 0.92983 0.19207 0.48541 0.0
H867 H 0.96433 0.20081 0.47165 0.0
C868 C 0.86629 0.19701 0.43248 0.0
C869 C 0.88391 0.21997 0.4241 0.0
C870 C 0.87812 0.17736 0.43852 0.0
C871 C 0.90779 0.18039 0.43655 0.0
C872 C 0.92545 0.20323 0.42819 0.0
H873 H 0.01809 0.08649 0.47924 0.0
H874 H 0.9991 0.11933 0.46145 0.0
C875 C 0.91363 0.22286 0.42201 0.0
C876 C 0.92023 0.15956 0.44308 0.0
H877 H 0.96584 0.14311 0.48582 0.0
C878 C 0.91197 0.137 0.42804 0.0
C879 C 0.93996 0.16186 0.46408 0.0
C880 C 0.9489 0.18547 0.4812 0.0
C881 C 0.92321 0.11667 0.43333 0.0
C882 C 0.94268 0.11883 0.45456 0.0
C883 C 0.95102 0.1415 0.46949 0.0
C884 C 0.95408 0.09764 0.46226 0.0
C885 C 0.9145 0.09331 0.41588 0.0
C886 C 0.93511 0.07431 0.46821 0.0
C887 C 0.94591 0.05538 0.47817 0.0
C888 C 0.9759 0.05958 0.48273 0.0
C889 C 0.99488 0.08263 0.47597 0.0
C890 C 0.98406 0.10146 0.46585 0.0
H891 H 0.90719 0.09762 0.39687 0.0
H892 H 0.93268 0.08486 0.41396 0.0
H893 H 0.89619 0.07898 0.42362 0.0
H894 H 0.91189 0.07111 0.46617 0.0
H895 H 0.93067 0.03797 0.4834 0.0
H896 H 0.25903 0.63958 0.19833 0.0
H897 H 0.21617 0.61292 0.17406 0.0
H898 H 0.25922 0.63232 0.10521 0.0
H899 H 0.30214 0.65863 0.12922 0.0
H900 H 0.18348 0.62975 0.13829 0.0
H901 H 0.22629 0.55569 0.09551 0.0
H902 H 0.24485 0.57631 0.12185 0.0
H903 H 0.24776 0.58738 0.09038 0.0
C904 C 0.25954 0.63786 0.17805 0.0
C905 C 0.28404 0.65124 0.16573 0.0
C906 C 0.23502 0.62264 0.16421 0.0
C907 C 0.23463 0.62035 0.13784 0.0
C908 C 0.25923 0.63332 0.12556 0.0
H909 H 0.10552 0.56214 0.01561 0.0
H910 H 0.15011 0.58049 0.04213 0.0
C911 C 0.28371 0.64853 0.13935 0.0
C912 C 0.2078 0.60605 0.12301 0.0
H913 H 0.18084 0.5585 0.07794 0.0
C914 C 0.1828 0.61398 0.12531 0.0
C915 C 0.20703 0.5856 0.10594 0.0
C916 C 0.23284 0.57556 0.1034 0.0
C917 C 0.15728 0.60249 0.11054 0.0
C918 C 0.15657 0.5822 0.0933 0.0
C919 C 0.18147 0.57408 0.09114 0.0
C920 C 0.1302 0.56945 0.07718 0.0
C921 C 0.13155 0.6127 0.11296 0.0
C922 C 0.10449 0.55662 0.08806 0.0
C923 C 0.07909 0.54625 0.073 0.0
C924 C 0.079 0.54834 0.04676 0.0
C925 C 0.10499 0.56034 0.03579 0.0
C926 C 0.13043 0.57077 0.05089 0.0
H927 H 0.13779 0.63195 0.12235 0.0
H928 H 0.12085 0.61355 0.09422 0.0
H929 H 0.11551 0.59991 0.12446 0.0
H930 H 0.10395 0.55503 0.10826 0.0
H931 H 0.05936 0.53721 0.08201 0.0
H932 H 0.21054 0.42365 0.66964 0.0
H933 H 0.24989 0.44741 0.64484 0.0
H934 H 0.3107 0.41942 0.68871 0.0
H935 H 0.2716 0.39591 0.71386 0.0
H936 H 0.33154 0.47079 0.68035 0.0
H937 H 0.28796 0.41538 0.59107 0.0
H938 H 0.26324 0.42968 0.60565 0.0
H939 H 0.27453 0.40528 0.62122 0.0
C940 C 0.2323 0.42261 0.6741 0.0
C941 C 0.23786 0.40773 0.69367 0.0
C942 C 0.25475 0.4361 0.65979 0.0
C943 C 0.28318 0.43485 0.66461 0.0
C944 C 0.28892 0.42057 0.68456 0.0
H945 H 0.42816 0.46712 0.57019 0.0
H946 H 0.38598 0.44872 0.59417 0.0
C947 C 0.26651 0.40712 0.69891 0.0
C948 C 0.30695 0.44815 0.64877 0.0
H949 H 0.32955 0.45033 0.58878 0.0
C950 C 0.33108 0.4664 0.66031 0.0
C951 C 0.30647 0.44218 0.62267 0.0
C952 C 0.28181 0.42191 0.60939 0.0
C953 C 0.35475 0.4788 0.6465 0.0
C954 C 0.35408 0.47309 0.62032 0.0
C955 C 0.32991 0.45488 0.60878 0.0
C956 C 0.37896 0.48465 0.60486 0.0
C957 C 0.38066 0.4973 0.66022 0.0
C958 C 0.38872 0.511 0.60235 0.0
C959 C 0.41296 0.52166 0.58862 0.0
C960 C 0.42784 0.50615 0.577 0.0
C961 C 0.41735 0.4797 0.57888 0.0
C962 C 0.39319 0.4691 0.59263 0.0
H963 H 0.38062 0.49511 0.68088 0.0
H964 H 0.40116 0.4948 0.65347 0.0
H965 H 0.38026 0.51694 0.65659 0.0
H966 H 0.37769 0.52335 0.61113 0.0
H967 H 0.42017 0.54205 0.58733 0.0
H968 H 0.73705 0.68661 0.85836 0.0
H969 H 0.76912 0.66598 0.88043 0.0
H970 H 0.79799 0.73022 0.93333 0.0
H971 H 0.76579 0.75098 0.91149 0.0
H972 H 0.82974 0.68584 0.88723 0.0
H973 H 0.77791 0.66854 0.97859 0.0
H974 H 0.75934 0.67538 0.95062 0.0
H975 H 0.78554 0.7005 0.96846 0.0
C976 C 0.75001 0.69628 0.87482 0.0
C977 C 0.74887 0.72045 0.88317 0.0
C978 C 0.76832 0.68446 0.8874 0.0
C979 C 0.78567 0.69646 0.90865 0.0
C980 C 0.78439 0.72045 0.91723 0.0
H981 H 0.93881 0.65803 0.96645 0.0
H982 H 0.90441 0.68087 0.95279 0.0
C983 C 0.7661 0.73234 0.90463 0.0
C984 C 0.80631 0.68443 0.92083 0.0
H985 H 0.82291 0.65947 0.97553 0.0
C986 C 0.82828 0.68009 0.90654 0.0
C987 C 0.80417 0.67684 0.94596 0.0
C988 C 0.78035 0.68032 0.96182 0.0
C989 C 0.84828 0.6684 0.91672 0.0
C990 C 0.84644 0.66115 0.94197 0.0
C991 C 0.82438 0.66533 0.95626 0.0
C992 C 0.86672 0.6483 0.95335 0.0
C993 C 0.87086 0.6634 0.90022 0.0
C994 C 0.85671 0.62272 0.95913 0.0
C995 C 0.87629 0.6096 0.96687 0.0
C996 C 0.90622 0.62189 0.969 0.0
C997 C 0.91595 0.64792 0.96454 0.0
C998 C 0.89636 0.661 0.9568 0.0
H999 H 0.86563 0.66536 0.87998 0.0
H1000 H 0.89214 0.67725 0.90561 0.0
H1001 H 0.87301 0.64406 0.90275 0.0
H1002 H 0.83388 0.61263 0.95658 0.0
H1003 H 0.8681 0.58953 0.96995 0.0
H1004 H 0.45632 0.77871 0.22812 0.0
H1005 H 0.47935 0.81973 0.21019 0.0
H1006 H 0.39527 0.8272 0.18772 0.0
H1007 H 0.37221 0.78645 0.20524 0.0
H1008 H 0.46768 0.83073 0.15578 0.0
H1009 H 0.44123 0.89671 0.22572 0.0
H1010 H 0.44281 0.86533 0.2333 0.0
H1011 H 0.41221 0.86921 0.21513 0.0
C1012 C 0.44277 0.78928 0.21968 0.0
C1013 C 0.41243 0.77926 0.21809 0.0
C1014 C 0.45594 0.81264 0.20938 0.0
C1015 C 0.43898 0.82655 0.19777 0.0
C1016 C 0.40874 0.81691 0.1968 0.0
H1017 H 0.46988 0.96898 0.12176 0.0
H1018 H 0.44845 0.92893 0.14188 0.0
C1019 C 0.39562 0.79353 0.20677 0.0
C1020 C 0.4526 0.85043 0.1853 0.0
H1021 H 0.46053 0.91414 0.18804 0.0
C1022 C 0.46639 0.84903 0.16291 0.0
C1023 C 0.4504 0.87415 0.19444 0.0
C1024 C 0.43605 0.87665 0.21856 0.0
C1025 C 0.47762 0.87069 0.14915 0.0
C1026 C 0.47575 0.89456 0.15841 0.0
C1027 C 0.46198 0.8959 0.18089 0.0
C1028 C 0.48841 0.91842 0.14536 0.0
C1029 C 0.49053 0.86757 0.12439 0.0
C1030 C 0.51798 0.92595 0.1407 0.0
C1031 C 0.53009 0.94857 0.12894 0.0
C1032 C 0.51303 0.9644 0.12191 0.0
C1033 C 0.48348 0.95702 0.12671 0.0
C1034 C 0.47128 0.93422 0.13833 0.0
H1035 H 0.48216 0.84783 0.1163 0.0
H1036 H 0.48584 0.88066 0.11044 0.0
H1037 H 0.51437 0.87185 0.12748 0.0
H1038 H 0.53187 0.91453 0.14652 0.0
H1039 H 0.553 0.95387 0.12572 0.0
H1040 H 0.05662 0.22347 0.72661 0.0
H1041 H 0.04548 0.18557 0.6987 0.0
H1042 H 0.1072 0.22549 0.64737 0.0
H1043 H 0.11825 0.26385 0.67515 0.0
H1044 H 0.05548 0.19872 0.62313 0.0
H1045 H 0.09354 0.13678 0.68795 0.0
H1046 H 0.06811 0.15071 0.7018 0.0
H1047 H 0.10263 0.17073 0.6935 0.0
C1048 C 0.06801 0.22425 0.70947 0.0
C1049 C 0.08844 0.24675 0.7032 0.0
C1050 C 0.06173 0.20244 0.69359 0.0
C1051 C 0.07588 0.20248 0.67115 0.0
C1052 C 0.09617 0.22494 0.66469 0.0
H1053 H 0.05506 0.06036 0.58203 0.0
H1054 H 0.0762 0.10047 0.60658 0.0
C1055 C 0.10248 0.24684 0.68061 0.0
C1056 C 0.06847 0.17934 0.65406 0.0
H1057 H 0.06239 0.1159 0.65254 0.0
C1058 C 0.0573 0.18068 0.62948 0.0
C1059 C 0.07126 0.15583 0.66213 0.0
C1060 C 0.08482 0.15342 0.6877 0.0
C1061 C 0.0477 0.15898 0.61317 0.0
C1062 C 0.04882 0.13519 0.62181 0.0
C1063 C 0.06116 0.13405 0.646 0.0
C1064 C 0.03632 0.11115 0.60644 0.0
C1065 C 0.03648 0.16179 0.58682 0.0
C1066 C 0.00684 0.10364 0.59847 0.0
C1067 C 0.99481 0.08085 0.58445 0.0
C1068 C 0.01193 0.06495 0.5783 0.0
C1069 C 0.04138 0.07229 0.58646 0.0
C1070 C 0.05345 0.09517 0.60048 0.0
H1071 H 0.04533 0.18146 0.58067 0.0
H1072 H 0.04208 0.14853 0.57315 0.0
H1073 H 0.01254 0.1575 0.58636 0.0
H1074 H 0.99299 0.11528 0.60334 0.0
H1075 H 0.97201 0.07562 0.57851 0.0
H1076 H 0.78256 0.38859 0.37417 0.0
H1077 H 0.74811 0.40685 0.39417 0.0
H1078 H 0.76924 0.37985 0.46561 0.0
H1079 H 0.80388 0.36128 0.44572 0.0
H1080 H 0.69981 0.37385 0.42249 0.0
H1081 H 0.77117 0.45768 0.47801 0.0
H1082 H 0.78304 0.44441 0.45042 0.0
H1083 H 0.77986 0.42795 0.47913 0.0
C1084 C 0.78024 0.38676 0.39421 0.0
C1085 C 0.79588 0.37334 0.40833 0.0
C1086 C 0.76053 0.39724 0.40558 0.0
C1087 C 0.75628 0.39475 0.43132 0.0
C1088 C 0.77249 0.38214 0.44574 0.0
H1089 H 0.63387 0.44272 0.52286 0.0
H1090 H 0.67432 0.42815 0.50864 0.0
C1091 C 0.79218 0.37151 0.43433 0.0
C1092 C 0.73314 0.4036 0.44241 0.0
H1093 H 0.72074 0.45002 0.48045 0.0
C1094 C 0.70432 0.39046 0.43522 0.0
C1095 C 0.73924 0.42508 0.45916 0.0
C1096 C 0.76997 0.43979 0.46717 0.0
C1097 C 0.68128 0.39835 0.44423 0.0
C1098 C 0.68731 0.42041 0.46032 0.0
C1099 C 0.71619 0.43324 0.46797 0.0
C1100 C 0.66387 0.43057 0.469 0.0
C1101 C 0.6507 0.38275 0.43666 0.0
C1102 C 0.64508 0.43739 0.45147 0.0
C1103 C 0.62193 0.44555 0.45952 0.0
C1104 C 0.61739 0.44742 0.48529 0.0
C1105 C 0.63691 0.44155 0.50289 0.0
C1106 C 0.65996 0.43318 0.4948 0.0
H1107 H 0.64974 0.36295 0.43086 0.0
H1108 H 0.63613 0.38227 0.45229 0.0
H1109 H 0.6424 0.39127 0.42038 0.0
H1110 H 0.64817 0.4362 0.43151 0.0
H1111 H 0.60757 0.45042 0.44556 0.0
loop_
_geom_bond_atom_site_label_1
_geom_bond_atom_site_label_2
_geom_bond_distance
_geom_bond_site_symmetry_2
_ccdc_geom_bond_type
O0 Cd1 2.300 . S
O0 C7 1.275 . S
Cd1 O0 2.300 . S
Cd1 O9 2.381 . S
Cd1 O10 2.378 . S
O2 Cd3 2.385 . S
O2 C7 1.255 . S
Cd3 O2 2.385 . S
Cd3 O4 2.317 . S
O4 Cd3 2.317 . S
O4 C5 1.232 . S
C5 O4 1.232 . S
C5 O6 1.218 . S
O6 C5 1.218 . S
C7 O0 1.275 . S
C7 O2 1.255 . S
C8 O9 1.258 . S
C8 O10 1.256 . S
O9 Cd1 2.381 . S
O9 C8 1.258 . S
O10 Cd1 2.378 . S
O10 C8 1.256 . S
O11 Cd12 2.300 . S
O11 C18 1.275 . S
Cd12 O11 2.300 . S
Cd12 O20 2.381 . S
Cd12 O21 2.378 . S
O13 Cd14 2.385 . S
O13 C18 1.255 . S
Cd14 O13 2.385 . S
Cd14 O15 2.317 . S
O15 Cd14 2.317 . S
O15 C16 1.232 . S
C16 O15 1.232 . S
C16 O17 1.218 . S
O17 C16 1.218 . S
C18 O11 1.275 . S
C18 O13 1.255 . S
C19 O20 1.258 . S
C19 O21 1.256 . S
O20 Cd12 2.381 . S
O20 C19 1.258 . S
O21 Cd12 2.378 . S
O21 C19 1.256 . S
O22 Cd23 2.300 . S
O22 C29 1.275 . S
Cd23 O22 2.300 . S
Cd23 O31 2.381 . S
Cd23 O32 2.378 . S
O24 Cd25 2.385 . S
O24 C29 1.255 . S
Cd25 O24 2.385 . S
Cd25 O26 2.317 . S
O26 Cd25 2.317 . S
O26 C27 1.232 . S
C27 O26 1.232 . S
C27 O28 1.218 . S
O28 C27 1.218 . S
C29 O22 1.275 . S
C29 O24 1.255 . S
C30 O31 1.258 . S
C30 O32 1.256 . S
O31 Cd23 2.381 . S
O31 C30 1.258 . S
O32 Cd23 2.378 . S
O32 C30 1.256 . S
O33 Cd34 2.300 . S
O33 C40 1.275 . S
Cd34 O33 2.300 . S
Cd34 O42 2.381 . S
Cd34 O43 2.378 . S
O35 Cd36 2.385 . S
O35 C40 1.255 . S
Cd36 O35 2.385 . S
Cd36 O37 2.317 . S
O37 Cd36 2.317 . S
O37 C38 1.232 . S
C38 O37 1.232 . S
C38 O39 1.218 . S
O39 C38 1.218 . S
C40 O33 1.275 . S
C40 O35 1.255 . S
C41 O42 1.258 . S
C41 O43 1.256 . S
O42 Cd34 2.381 . S
O42 C41 1.258 . S
O43 Cd34 2.378 . S
O43 C41 1.256 . S
O44 Cd45 2.300 . S
O44 C51 1.275 . S
Cd45 O44 2.300 . S
Cd45 O53 2.381 . S
Cd45 O54 2.378 . S
O46 Cd47 2.385 . S
O46 C51 1.255 . S
Cd47 O46 2.385 . S
Cd47 O48 2.317 . S
O48 Cd47 2.317 . S
O48 C49 1.232 . S
C49 O48 1.232 . S
C49 O50 1.218 . S
O50 C49 1.218 . S
C51 O44 1.275 . S
C51 O46 1.255 . S
C52 O53 1.258 . S
C52 O54 1.256 . S
O53 Cd45 2.381 . S
O53 C52 1.258 . S
O54 Cd45 2.378 . S
O54 C52 1.256 . S
O55 Cd56 2.300 . S
O55 C62 1.275 . S
Cd56 O55 2.300 . S
Cd56 O64 2.381 . S
Cd56 O65 2.378 . S
O57 Cd58 2.385 . S
O57 C62 1.255 . S
Cd58 O57 2.385 . S
Cd58 O59 2.317 . S
O59 Cd58 2.317 . S
O59 C60 1.232 . S
C60 O59 1.232 . S
C60 O61 1.218 . S
O61 C60 1.218 . S
C62 O55 1.275 . S
C62 O57 1.255 . S
C63 O64 1.258 . S
C63 O65 1.256 . S
O64 Cd56 2.381 . S
O64 C63 1.258 . S
O65 Cd56 2.378 . S
O65 C63 1.256 . S
O66 Cd67 2.300 . S
O66 C73 1.275 . S
Cd67 O66 2.300 . S
Cd67 O75 2.381 . S
Cd67 O76 2.378 . S
O68 Cd69 2.385 . S
O68 C73 1.255 . S
Cd69 O68 2.385 . S
Cd69 O70 2.317 . S
O70 Cd69 2.317 . S
O70 C71 1.232 . S
C71 O70 1.232 . S
C71 O72 1.218 . S
O72 C71 1.218 . S
C73 O66 1.275 . S
C73 O68 1.255 . S
C74 O75 1.258 . S
C74 O76 1.256 . S
O75 Cd67 2.381 . S
O75 C74 1.258 . S
O76 Cd67 2.378 . S
O76 C74 1.256 . S
O77 Cd78 2.300 . S
O77 C84 1.275 . S
Cd78 O77 2.300 . S
Cd78 O86 2.381 . S
Cd78 O87 2.378 . S
O79 Cd80 2.385 . S
O79 C84 1.255 . S
Cd80 O79 2.385 . S
Cd80 O81 2.317 . S
O81 Cd80 2.317 . S
O81 C82 1.232 . S
C82 O81 1.232 . S
C82 O83 1.218 . S
O83 C82 1.218 . S
C84 O77 1.275 . S
C84 O79 1.255 . S
C85 O86 1.258 . S
C85 O87 1.256 . S
O86 Cd78 2.381 . S
O86 C85 1.258 . S
O87 Cd78 2.378 . S
O87 C85 1.256 . S
Tb88 C90 2.809 1_545 S
Tb88 O108 2.484 1_545 S
Tb88 O109 2.440 1_545 S
Tb88 O110 2.658 1_655 S
Tb88 O111 2.409 1_655 S
Tb88 O112 2.378 1_645 S
Tb88 O116 2.325 1_545 S
Tb88 O119 2.341 . S
Tb89 C99 2.809 . S
Tb89 O110 2.325 . S
Tb89 O113 2.341 1_545 S
Tb89 O114 2.484 . S
Tb89 O115 2.440 . S
Tb89 O116 2.658 1_445 S
Tb89 O117 2.409 1_545 S
Tb89 O118 2.368 1_455 S
C90 Tb88 2.809 1_565 S
C90 C91 1.514 . S
C90 O108 1.248 . S
C90 O109 1.266 . S
C91 C90 1.514 . S
C91 C92 1.359 . S
C91 C96 1.348 . S
C92 C91 1.359 . S
C92 C93 1.380 . S
C92 H120 0.929 . S
C93 C92 1.380 . S
C93 C94 1.347 . S
C93 H121 0.931 . S
C94 C93 1.347 . S
C94 C95 1.369 . S
C95 C94 1.369 . S
C95 C96 1.408 . S
C95 H122 0.930 . S
C96 C91 1.348 . S
C96 C95 1.408 . S
C96 H123 0.930 . S
C97 O110 1.281 . S
C97 O111 1.254 . S
C98 O112 1.236 . S
C98 O113 1.266 . S
C99 Tb89 2.809 . S
C99 C100 1.514 . S
C99 O114 1.248 . S
C99 O115 1.266 . S
C100 C99 1.514 . S
C100 C101 1.359 . S
C100 C105 1.348 . S
C101 C100 1.359 . S
C101 C102 1.380 . S
C101 H124 0.929 . S
C102 C101 1.380 . S
C102 C103 1.347 . S
C102 H125 0.931 . S
C103 C102 1.347 . S
C103 C104 1.369 . S
C104 C103 1.369 . S
C104 C105 1.408 . S
C104 H126 0.930 . S
C105 C100 1.348 . S
C105 C104 1.408 . S
C105 H127 0.930 . S
C106 O116 1.281 . S
C106 O117 1.254 1_655 S
C107 O118 1.247 . S
C107 O119 1.266 . S
O108 Tb88 2.484 1_565 S
O108 C90 1.248 . S
O109 Tb88 2.440 1_565 S
O109 C90 1.266 . S
O110 Tb88 2.658 1_455 S
O110 Tb89 2.325 . S
O110 C97 1.281 . S
O111 Tb88 2.409 1_455 S
O111 C97 1.254 . S
O112 Tb88 2.378 1_465 S
O112 C98 1.236 . S
O113 Tb89 2.341 1_565 S
O113 C98 1.266 . S
O114 Tb89 2.484 . S
O114 C99 1.248 . S
O115 Tb89 2.440 . S
O115 C99 1.266 . S
O116 Tb88 2.325 1_565 S
O116 Tb89 2.658 1_665 S
O116 C106 1.281 . S
O117 Tb89 2.409 1_565 S
O117 C106 1.254 1_455 S
O118 Tb89 2.368 1_655 S
O118 C107 1.247 . S
O119 Tb88 2.341 . S
O119 C107 1.266 . S
H120 C92 0.929 . S
H121 C93 0.931 . S
H122 C95 0.930 . S
H123 C96 0.930 . S
H124 C101 0.929 . S
H125 C102 0.931 . S
H126 C104 0.930 . S
H127 C105 0.930 . S
Tb128 C130 2.809 . S
Tb128 O148 2.484 . S
Tb128 O149 2.440 . S
Tb128 O150 2.658 . S
Tb128 O151 2.409 . S
Tb128 O152 2.378 . S
Tb128 O156 2.325 . S
Tb128 O159 2.341 . S
Tb129 C139 2.809 1_544 S
Tb129 O150 2.325 . S
Tb129 O153 2.341 . S
Tb129 O154 2.484 1_545 S
Tb129 O155 2.440 1_554 S
Tb129 O156 2.658 . S
Tb129 O157 2.409 . S
Tb129 O158 2.378 . S
C130 Tb128 2.809 . S
C130 C131 1.514 . S
C130 O148 1.248 . S
C130 O149 1.266 . S
C131 C130 1.514 . S
C131 C132 1.359 . S
C131 C136 1.348 . S
C132 C131 1.359 . S
C132 C133 1.380 . S
C132 H160 0.929 . S
C133 C132 1.380 . S
C133 C134 1.347 . S
C133 H161 0.931 . S
C134 C133 1.347 . S
C134 C135 1.369 . S
C135 C134 1.369 . S
C135 C136 1.408 . S
C135 H162 0.930 . S
C136 C131 1.348 . S
C136 C135 1.408 . S
C136 H163 0.930 . S
C137 O150 1.281 1_565 S
C137 O151 1.254 1_565 S
C138 O152 1.236 . S
C138 O153 1.266 . S
C139 Tb129 2.809 1_566 S
C139 C140 1.514 . S
C139 O154 1.248 1_556 S
C139 O155 1.266 1_565 S
C140 C139 1.514 . S
C140 C141 1.359 . S
C140 C145 1.348 . S
C141 C140 1.359 . S
C141 C142 1.380 . S
C141 H164 0.929 . S
C142 C141 1.380 . S
C142 C143 1.347 . S
C142 H165 0.931 . S
C143 C142 1.347 . S
C143 C144 1.369 . S
C144 C143 1.369 . S
C144 C145 1.408 . S
C144 H166 0.930 . S
C145 C140 1.348 . S
C145 C144 1.408 . S
C145 H167 0.930 . S
C146 O156 1.281 . S
C146 O157 1.254 . S
C147 O158 1.236 1_565 S
C147 O159 1.266 1_565 S
O148 Tb128 2.484 . S
O148 C130 1.248 . S
O149 Tb128 2.440 . S
O149 C130 1.266 . S
O150 Tb128 2.658 . S
O150 Tb129 2.325 . S
O150 C137 1.281 1_545 S
O151 Tb128 2.409 . S
O151 C137 1.254 1_545 S
O152 Tb128 2.378 . S
O152 C138 1.236 . S
O153 Tb129 2.341 . S
O153 C138 1.266 . S
O154 Tb129 2.484 1_565 S
O154 C139 1.248 1_554 S
O155 Tb129 2.440 1_556 S
O155 C139 1.266 1_545 S
O156 Tb128 2.325 . S
O156 Tb129 2.658 . S
O156 C146 1.281 . S
O157 Tb129 2.409 . S
O157 C146 1.254 . S
O158 Tb129 2.378 . S
O158 C147 1.236 1_545 S
O159 Tb128 2.341 . S
O159 C147 1.266 1_545 S
H160 C132 0.929 . S
H161 C133 0.931 . S
H162 C135 0.930 . S
H163 C136 0.930 . S
H164 C141 0.929 . S
H165 C142 0.931 . S
H166 C144 0.930 . S
H167 C145 0.930 . S
Tb168 C170 2.809 . S
Tb168 O188 2.484 . S
Tb168 O189 2.440 . S
Tb168 O190 2.658 . S
Tb168 O191 2.409 . S
Tb168 O192 2.378 . S
Tb168 O196 2.325 . S
Tb168 O199 2.341 . S
Tb169 C179 2.809 . S
Tb169 O190 2.325 . S
Tb169 O193 2.341 . S
Tb169 O194 2.484 . S
Tb169 O195 2.440 . S
Tb169 O196 2.658 . S
Tb169 O197 2.409 . S
Tb169 O198 2.378 . S
C170 Tb168 2.809 . S
C170 C171 1.514 . S
C170 O188 1.248 . S
C170 O189 1.266 . S
C171 C170 1.514 . S
C171 C172 1.359 . S
C171 C176 1.348 . S
C172 C171 1.359 . S
C172 C173 1.380 . S
C172 H200 0.929 . S
C173 C172 1.380 . S
C173 C174 1.347 . S
C173 H201 0.931 . S
C174 C173 1.347 . S
C174 C175 1.369 . S
C175 C174 1.369 . S
C175 C176 1.408 . S
C175 H202 0.930 . S
C176 C171 1.348 . S
C176 C175 1.408 . S
C176 H203 0.930 . S
C177 O190 1.281 . S
C177 O191 1.254 . S
C178 O192 1.236 . S
C178 O193 1.266 . S
C179 Tb169 2.809 . S
C179 C180 1.514 . S
C179 O194 1.248 . S
C179 O195 1.266 . S
C180 C179 1.514 . S
C180 C181 1.359 . S
C180 C185 1.348 . S
C181 C180 1.359 . S
C181 C182 1.380 . S
C181 H204 0.929 . S
C182 C181 1.380 . S
C182 C183 1.347 . S
C182 H205 0.931 . S
C183 C182 1.347 . S
C183 C184 1.369 . S
C184 C183 1.369 . S
C184 C185 1.408 . S
C184 H206 0.930 . S
C185 C180 1.348 . S
C185 C184 1.408 . S
C185 H207 0.930 . S
C186 O196 1.281 . S
C186 O197 1.254 . S
C187 O198 1.236 . S
C187 O199 1.266 . S
O188 Tb168 2.484 . S
O188 C170 1.248 . S
O189 Tb168 2.440 . S
O189 C170 1.266 . S
O190 Tb168 2.658 . S
O190 Tb169 2.325 . S
O190 C177 1.281 . S
O191 Tb168 2.409 . S
O191 C177 1.254 . S
O192 Tb168 2.378 . S
O192 C178 1.236 . S
O193 Tb169 2.341 . S
O193 C178 1.266 . S
O194 Tb169 2.484 . S
O194 C179 1.248 . S
O195 Tb169 2.440 . S
O195 C179 1.266 . S
O196 Tb168 2.325 . S
O196 Tb169 2.658 . S
O196 C186 1.281 . S
O197 Tb169 2.409 . S
O197 C186 1.254 . S
O198 Tb169 2.378 . S
O198 C187 1.236 . S
O199 Tb168 2.341 . S
O199 C187 1.266 . S
H200 C172 0.929 . S
H201 C173 0.931 . S
H202 C175 0.930 . S
H203 C176 0.930 . S
H204 C181 0.929 . S
H205 C182 0.931 . S
H206 C184 0.930 . S
H207 C185 0.930 . S
Tb208 C210 2.809 1_455 S
Tb208 O228 2.484 1_455 S
Tb208 O229 2.440 . S
Tb208 O230 2.658 1_556 S
Tb208 O231 2.409 1_556 S
Tb208 O232 2.378 1_556 S
Tb208 O236 2.325 1_455 S
Tb208 O239 2.341 . S
Tb209 C219 2.809 . S
Tb209 O230 2.325 . S
Tb209 O233 2.341 1_455 S
Tb209 O234 2.484 . S
Tb209 O235 2.440 . S
Tb209 O236 2.658 1_454 S
Tb209 O237 2.409 1_455 S
Tb209 O238 2.378 1_554 S
C210 Tb208 2.809 1_655 S
C210 C211 1.514 . S
C210 O228 1.248 . S
C210 O229 1.266 1_655 S
C211 C210 1.514 . S
C211 C212 1.359 . S
C211 C216 1.348 . S
C212 C211 1.359 . S
C212 C213 1.380 . S
C212 H240 0.929 . S
C213 C212 1.380 . S
C213 C214 1.347 . S
C213 H241 0.931 . S
C214 C213 1.347 . S
C214 C215 1.369 . S
C215 C214 1.369 . S
C215 C216 1.408 . S
C215 H242 0.930 . S
C216 C211 1.348 . S
C216 C215 1.408 . S
C216 H243 0.930 1_655 S
C217 O230 1.281 . S
C217 O231 1.254 . S
C218 O232 1.236 1_655 S
C218 O233 1.266 . S
C219 Tb209 2.809 . S
C219 C220 1.514 . S
C219 O234 1.248 . S
C219 O235 1.266 . S
C220 C219 1.514 . S
C220 C221 1.359 . S
C220 C225 1.348 . S
C221 C220 1.359 . S
C221 C222 1.380 . S
C221 H244 0.929 . S
C222 C221 1.380 . S
C222 C223 1.347 . S
C222 H245 0.931 . S
C223 C222 1.347 . S
C223 C224 1.369 . S
C224 C223 1.369 . S
C224 C225 1.408 . S
C224 H246 0.930 . S
C225 C220 1.348 . S
C225 C224 1.408 . S
C225 H247 0.930 . S
C226 O236 1.281 . S
C226 O237 1.254 1_556 S
C227 O238 1.236 . S
C227 O239 1.266 . S
O228 Tb208 2.484 1_655 S
O228 C210 1.248 . S
O229 Tb208 2.440 . S
O229 C210 1.266 1_455 S
O230 Tb208 2.658 1_554 S
O230 Tb209 2.325 . S
O230 C217 1.281 . S
O231 Tb208 2.409 1_554 S
O231 C217 1.254 . S
O232 Tb208 2.378 1_554 S
O232 C218 1.236 1_455 S
O233 Tb209 2.341 1_655 S
O233 C218 1.266 . S
O234 Tb209 2.484 . S
O234 C219 1.248 . S
O235 Tb209 2.440 . S
O235 C219 1.266 . S
O236 Tb208 2.325 1_655 S
O236 Tb209 2.658 1_656 S
O236 C226 1.281 . S
O237 Tb209 2.409 1_655 S
O237 C226 1.254 1_554 S
O238 Tb209 2.378 1_556 S
O238 C227 1.236 . S
O239 Tb208 2.341 . S
O239 C227 1.266 . S
H240 C212 0.929 . S
H241 C213 0.931 . S
H242 C215 0.930 . S
H243 C216 0.930 1_455 S
H244 C221 0.929 . S
H245 C222 0.931 . S
H246 C224 0.930 . S
H247 C225 0.930 . S
H248 C256 0.929 . S
H249 C258 0.930 . S
H250 C260 0.930 . S
H251 C263 0.929 . S
H252 C266 0.930 . S
H253 C268 0.960 . S
H254 C268 0.960 . S
H255 C268 0.960 . S
C256 H248 0.929 . S
C256 C257 1.377 . S
C256 C258 1.384 . S
C257 C256 1.377 . S
C257 C263 1.390 . S
C258 H249 0.930 . S
C258 C256 1.384 . S
C258 C259 1.372 . S
C259 C258 1.372 . S
C259 C260 1.400 . S
C259 C264 1.490 . S
C260 H250 0.930 . S
C260 C259 1.400 . S
C260 C263 1.386 . S
H261 C277 0.930 . S
H262 C278 0.931 . S
C263 H251 0.929 . S
C263 C257 1.390 . S
C263 C260 1.386 . S
C264 C259 1.490 . S
C264 C266 1.395 . S
C264 C267 1.403 . S
H265 C271 0.930 . S
C266 H252 0.930 . S
C266 C264 1.395 . S
C266 C269 1.403 . S
C267 C264 1.403 . S
C267 C268 1.524 . S
C267 C271 1.400 . S
C268 H253 0.960 . S
C268 H254 0.960 . S
C268 H255 0.960 . S
C268 C267 1.524 . S
C269 C266 1.403 . S
C269 C270 1.392 . S
C269 C273 1.495 . S
C270 C269 1.392 . S
C270 C271 1.385 . S
C270 C272 1.478 . S
C271 H265 0.930 . S
C271 C267 1.400 . S
C271 C270 1.385 . S
C272 C270 1.478 . S
C272 C274 1.381 . S
C272 C278 1.383 . S
C273 C269 1.495 . S
C273 H279 0.959 . S
C273 H280 0.961 . S
C273 H281 0.960 . S
C274 C272 1.381 . S
C274 C275 1.394 . S
C274 H282 0.930 . S
C275 C274 1.394 . S
C275 C276 1.383 . S
C275 H283 0.929 . S
C276 C275 1.383 . S
C276 C277 1.377 . S
C277 H261 0.930 . S
C277 C276 1.377 . S
C277 C278 1.379 . S
C278 H262 0.931 . S
C278 C272 1.383 . S
C278 C277 1.379 . S
H279 C273 0.959 . S
H280 C273 0.961 . S
H281 C273 0.960 . S
H282 C274 0.930 . S
H283 C275 0.929 . S
H284 C292 0.929 . S
H285 C294 0.930 . S
H286 C296 0.930 . S
H287 C299 0.929 . S
H288 C302 0.930 . S
H289 C304 0.960 . S
H290 C304 0.960 . S
H291 C304 0.960 . S
C292 H284 0.929 . S
C292 C293 1.377 . S
C292 C294 1.384 . S
C293 C292 1.377 . S
C293 C299 1.390 . S
C294 H285 0.930 . S
C294 C292 1.384 . S
C294 C295 1.372 . S
C295 C294 1.372 . S
C295 C296 1.400 . S
C295 C300 1.490 . S
C296 H286 0.930 . S
C296 C295 1.400 . S
C296 C299 1.386 . S
H297 C313 0.930 . S
H298 C314 0.931 . S
C299 H287 0.929 . S
C299 C293 1.390 . S
C299 C296 1.386 . S
C300 C295 1.490 . S
C300 C302 1.395 . S
C300 C303 1.403 . S
H301 C307 0.930 . S
C302 H288 0.930 . S
C302 C300 1.395 . S
C302 C305 1.403 . S
C303 C300 1.403 . S
C303 C304 1.524 . S
C303 C307 1.400 . S
C304 H289 0.960 . S
C304 H290 0.960 . S
C304 H291 0.960 . S
C304 C303 1.524 . S
C305 C302 1.403 . S
C305 C306 1.392 . S
C305 C309 1.495 . S
C306 C305 1.392 . S
C306 C307 1.385 . S
C306 C308 1.478 . S
C307 H301 0.930 . S
C307 C303 1.400 . S
C307 C306 1.385 . S
C308 C306 1.478 . S
C308 C310 1.381 . S
C308 C314 1.383 . S
C309 C305 1.495 . S
C309 H315 0.959 . S
C309 H316 0.961 . S
C309 H317 0.960 . S
C310 C308 1.381 . S
C310 C311 1.394 . S
C310 H318 0.930 . S
C311 C310 1.394 . S
C311 C312 1.383 . S
C311 H319 0.929 . S
C312 C311 1.383 . S
C312 C313 1.377 . S
C313 H297 0.930 . S
C313 C312 1.377 . S
C313 C314 1.379 . S
C314 H298 0.931 . S
C314 C308 1.383 . S
C314 C313 1.379 . S
H315 C309 0.959 . S
H316 C309 0.961 . S
H317 C309 0.960 . S
H318 C310 0.930 . S
H319 C311 0.929 . S
H320 C328 0.929 . S
H321 C330 0.930 . S
H322 C332 0.930 . S
H323 C335 0.929 . S
H324 C338 0.930 . S
H325 C340 0.960 . S
H326 C340 0.960 . S
H327 C340 0.960 . S
C328 H320 0.929 . S
C328 C329 1.377 . S
C328 C330 1.384 . S
C329 C328 1.377 . S
C329 C335 1.390 . S
C330 H321 0.930 . S
C330 C328 1.384 . S
C330 C331 1.372 . S
C331 C330 1.372 . S
C331 C332 1.400 . S
C331 C336 1.490 . S
C332 H322 0.930 . S
C332 C331 1.400 . S
C332 C335 1.386 . S
H333 C349 0.930 . S
H334 C350 0.931 . S
C335 H323 0.929 . S
C335 C329 1.390 . S
C335 C332 1.386 . S
C336 C331 1.490 . S
C336 C338 1.395 . S
C336 C339 1.403 . S
H337 C343 0.930 . S
C338 H324 0.930 . S
C338 C336 1.395 . S
C338 C341 1.403 . S
C339 C336 1.403 . S
C339 C340 1.524 . S
C339 C343 1.400 . S
C340 H325 0.960 . S
C340 H326 0.960 . S
C340 H327 0.960 . S
C340 C339 1.524 . S
C341 C338 1.403 . S
C341 C342 1.392 . S
C341 C345 1.495 . S
C342 C341 1.392 . S
C342 C343 1.385 . S
C342 C344 1.478 . S
C343 H337 0.930 . S
C343 C339 1.400 . S
C343 C342 1.385 . S
C344 C342 1.478 . S
C344 C346 1.381 . S
C344 C350 1.383 . S
C345 C341 1.495 . S
C345 H351 0.959 . S
C345 H352 0.961 . S
C345 H353 0.960 . S
C346 C344 1.381 . S
C346 C347 1.394 . S
C346 H354 0.930 . S
C347 C346 1.394 . S
C347 C348 1.383 . S
C347 H355 0.929 . S
C348 C347 1.383 . S
C348 C349 1.377 . S
C349 H333 0.930 . S
C349 C348 1.377 . S
C349 C350 1.379 . S
C350 H334 0.931 . S
C350 C344 1.383 . S
C350 C349 1.379 . S
H351 C345 0.959 . S
H352 C345 0.961 . S
H353 C345 0.960 . S
H354 C346 0.930 . S
H355 C347 0.929 . S
H356 C364 0.929 . S
H357 C366 0.930 . S
H358 C368 0.930 . S
H359 C371 0.929 . S
H360 C374 0.930 . S
H361 C376 0.960 . S
H362 C376 0.960 . S
H363 C376 0.960 . S
C364 H356 0.929 . S
C364 C365 1.377 . S
C364 C366 1.384 . S
C365 C364 1.377 . S
C365 C371 1.390 . S
C366 H357 0.930 . S
C366 C364 1.384 . S
C366 C367 1.372 . S
C367 C366 1.372 . S
C367 C368 1.400 . S
C367 C372 1.490 . S
C368 H358 0.930 . S
C368 C367 1.400 . S
C368 C371 1.386 . S
H369 C385 0.926 1_455 S
H370 C386 0.931 . S
C371 H359 0.929 . S
C371 C365 1.390 . S
C371 C368 1.386 . S
C372 C367 1.490 . S
C372 C374 1.395 . S
C372 C375 1.403 . S
H373 C379 0.930 . S
C374 H360 0.930 . S
C374 C372 1.395 . S
C374 C377 1.403 . S
C375 C372 1.403 . S
C375 C376 1.524 . S
C375 C379 1.400 . S
C376 H361 0.960 . S
C376 H362 0.960 . S
C376 H363 0.960 . S
C376 C375 1.524 . S
C377 C374 1.403 . S
C377 C378 1.392 . S
C377 C381 1.495 . S
C378 C377 1.392 . S
C378 C379 1.385 . S
C378 C380 1.478 . S
C379 H373 0.930 . S
C379 C375 1.400 . S
C379 C378 1.385 . S
C380 C378 1.478 . S
C380 C382 1.381 . S
C380 C386 1.383 . S
C381 C377 1.495 . S
C381 H387 0.959 . S
C381 H388 0.961 . S
C381 H389 0.960 . S
C382 C380 1.381 . S
C382 C383 1.394 . S
C382 H390 0.930 . S
C383 C382 1.394 . S
C383 C384 1.383 . S
C383 H391 0.929 . S
C384 C383 1.383 . S
C384 C385 1.377 . S
C385 H369 0.926 1_655 S
C385 C384 1.377 . S
C385 C386 1.379 . S
C386 H370 0.931 . S
C386 C380 1.383 . S
C386 C385 1.379 . S
H387 C381 0.959 . S
H388 C381 0.961 . S
H389 C381 0.960 . S
H390 C382 0.930 . S
H391 C383 0.929 . S
H392 C400 0.929 . S
H393 C402 0.930 . S
H394 C404 0.930 . S
H395 C407 0.929 . S
H396 C410 0.930 . S
H397 C412 0.960 . S
H398 C412 0.960 . S
H399 C412 0.960 . S
C400 H392 0.929 . S
C400 C401 1.377 . S
C400 C402 1.384 . S
C401 C400 1.377 . S
C401 C407 1.390 . S
C402 H393 0.930 . S
C402 C400 1.384 . S
C402 C403 1.372 . S
C403 C402 1.372 . S
C403 C404 1.400 . S
C403 C408 1.490 . S
C404 H394 0.930 . S
C404 C403 1.400 . S
C404 C407 1.386 . S
H405 C421 0.930 . S
H406 C422 0.931 . S
C407 H395 0.929 . S
C407 C401 1.390 . S
C407 C404 1.386 . S
C408 C403 1.490 . S
C408 C410 1.395 . S
C408 C411 1.403 . S
H409 C415 0.930 . S
C410 H396 0.930 . S
C410 C408 1.395 . S
C410 C413 1.403 . S
C411 C408 1.403 . S
C411 C412 1.524 . S
C411 C415 1.400 . S
C412 H397 0.960 . S
C412 H398 0.960 . S
C412 H399 0.960 . S
C412 C411 1.524 . S
C413 C410 1.403 . S
C413 C414 1.392 . S
C413 C417 1.495 . S
C414 C413 1.392 . S
C414 C415 1.385 . S
C414 C416 1.478 . S
C415 H409 0.930 . S
C415 C411 1.400 . S
C415 C414 1.385 . S
C416 C414 1.478 . S
C416 C418 1.381 . S
C416 C422 1.383 . S
C417 C413 1.495 . S
C417 H423 0.959 . S
C417 H424 0.961 . S
C417 H425 0.960 . S
C418 C416 1.381 . S
C418 C419 1.394 . S
C418 H426 0.930 . S
C419 C418 1.394 . S
C419 C420 1.383 . S
C419 H427 0.929 . S
C420 C419 1.383 . S
C420 C421 1.377 . S
C421 H405 0.930 . S
C421 C420 1.377 . S
C421 C422 1.379 . S
C422 H406 0.931 . S
C422 C416 1.383 . S
C422 C421 1.379 . S
H423 C417 0.959 . S
H424 C417 0.961 . S
H425 C417 0.960 . S
H426 C418 0.930 . S
H427 C419 0.929 . S
H428 C436 0.929 . S
H429 C438 0.930 . S
H430 C440 0.930 . S
H431 C443 0.929 . S
H432 C446 0.930 . S
H433 C448 0.960 . S
H434 C448 0.960 . S
H435 C448 0.960 . S
C436 H428 0.929 . S
C436 C437 1.377 . S
C436 C438 1.384 . S
C437 C436 1.377 . S
C437 C443 1.390 . S
C438 H429 0.930 . S
C438 C436 1.384 . S
C438 C439 1.372 . S
C439 C438 1.372 . S
C439 C440 1.400 . S
C439 C444 1.490 . S
C440 H430 0.930 . S
C440 C439 1.400 . S
C440 C443 1.386 . S
H441 C457 0.930 . S
H442 C458 0.931 . S
C443 H431 0.929 . S
C443 C437 1.390 . S
C443 C440 1.386 . S
C444 C439 1.490 . S
C444 C446 1.395 . S
C444 C447 1.403 . S
H445 C451 0.930 . S
C446 H432 0.930 . S
C446 C444 1.395 . S
C446 C449 1.403 . S
C447 C444 1.403 . S
C447 C448 1.524 . S
C447 C451 1.400 . S
C448 H433 0.960 . S
C448 H434 0.960 . S
C448 H435 0.960 . S
C448 C447 1.524 . S
C449 C446 1.403 . S
C449 C450 1.392 . S
C449 C453 1.495 . S
C450 C449 1.392 . S
C450 C451 1.385 . S
C450 C452 1.478 . S
C451 H445 0.930 . S
C451 C447 1.400 . S
C451 C450 1.385 . S
C452 C450 1.478 . S
C452 C454 1.381 . S
C452 C458 1.383 . S
C453 C449 1.495 . S
C453 H459 0.958 1_455 S
C453 H460 0.961 . S
C453 H461 0.960 . S
C454 C452 1.381 . S
C454 C455 1.394 . S
C454 H462 0.930 . S
C455 C454 1.394 . S
C455 C456 1.383 . S
C455 H463 0.929 . S
C456 C455 1.383 . S
C456 C457 1.377 . S
C457 H441 0.930 . S
C457 C456 1.377 . S
C457 C458 1.379 . S
C458 H442 0.931 . S
C458 C452 1.383 . S
C458 C457 1.379 . S
H459 C453 0.958 1_655 S
H460 C453 0.961 . S
H461 C453 0.960 . S
H462 C454 0.930 . S
H463 C455 0.929 . S
H464 C472 0.929 . S
H465 C474 0.930 . S
H466 C476 0.930 . S
H467 C479 0.929 . S
H468 C482 0.930 . S
H469 C484 0.960 . S
H470 C484 0.960 . S
H471 C484 0.960 . S
C472 H464 0.929 . S
C472 C473 1.377 . S
C472 C474 1.384 . S
C473 C472 1.377 . S
C473 C479 1.390 . S
C474 H465 0.930 . S
C474 C472 1.384 . S
C474 C475 1.372 . S
C475 C474 1.372 . S
C475 C476 1.400 . S
C475 C480 1.490 . S
C476 H466 0.930 . S
C476 C475 1.400 . S
C476 C479 1.386 . S
H477 C493 0.930 1_554 S
H478 C494 0.931 . S
C479 H467 0.929 . S
C479 C473 1.390 . S
C479 C476 1.386 . S
C480 C475 1.490 . S
C480 C482 1.395 . S
C480 C483 1.403 . S
H481 C487 0.930 . S
C482 H468 0.930 . S
C482 C480 1.395 . S
C482 C485 1.403 . S
C483 C480 1.403 . S
C483 C484 1.524 . S
C483 C487 1.400 . S
C484 H469 0.960 . S
C484 H470 0.960 . S
C484 H471 0.960 . S
C484 C483 1.524 . S
C485 C482 1.403 . S
C485 C486 1.392 . S
C485 C489 1.495 . S
C486 C485 1.392 . S
C486 C487 1.385 . S
C486 C488 1.478 . S
C487 H481 0.930 . S
C487 C483 1.400 . S
C487 C486 1.385 . S
C488 C486 1.478 . S
C488 C490 1.381 . S
C488 C494 1.383 . S
C489 C485 1.495 . S
C489 H495 0.959 . S
C489 H496 0.961 . S
C489 H497 0.960 . S
C490 C488 1.381 . S
C490 C491 1.394 . S
C490 H498 0.930 . S
C491 C490 1.394 . S
C491 C492 1.383 . S
C491 H499 0.929 . S
C492 C491 1.383 . S
C492 C493 1.377 . S
C493 H477 0.930 1_556 S
C493 C492 1.377 . S
C493 C494 1.379 . S
C494 H478 0.931 . S
C494 C488 1.383 . S
C494 C493 1.379 . S
H495 C489 0.959 . S
H496 C489 0.961 . S
H497 C489 0.960 . S
H498 C490 0.930 . S
H499 C491 0.929 . S
H500 C508 0.929 . S
H501 C510 0.930 . S
H502 C512 0.930 . S
H503 C515 0.929 . S
H504 C518 0.930 . S
H505 C520 0.960 . S
H506 C520 0.960 . S
H507 C520 0.960 . S
C508 H500 0.929 . S
C508 C509 1.377 . S
C508 C510 1.384 . S
C509 C508 1.377 . S
C509 C515 1.390 . S
C510 H501 0.930 . S
C510 C508 1.384 . S
C510 C511 1.372 . S
C511 C510 1.372 . S
C511 C512 1.400 . S
C511 C516 1.490 . S
C512 H502 0.930 . S
C512 C511 1.400 . S
C512 C515 1.386 . S
H513 C529 0.930 . S
H514 C530 0.931 . S
C515 H503 0.929 . S
C515 C509 1.390 . S
C515 C512 1.386 . S
C516 C511 1.490 . S
C516 C518 1.395 . S
C516 C519 1.403 . S
H517 C523 0.930 . S
C518 H504 0.930 . S
C518 C516 1.395 . S
C518 C521 1.403 . S
C519 C516 1.403 . S
C519 C520 1.524 . S
C519 C523 1.400 . S
C520 H505 0.960 . S
C520 H506 0.960 . S
C520 H507 0.960 . S
C520 C519 1.524 . S
C521 C518 1.403 . S
C521 C522 1.392 . S
C521 C525 1.495 . S
C522 C521 1.392 . S
C522 C523 1.385 . S
C522 C524 1.478 . S
C523 H517 0.930 . S
C523 C519 1.400 . S
C523 C522 1.385 . S
C524 C522 1.478 . S
C524 C526 1.381 . S
C524 C530 1.383 . S
C525 C521 1.495 . S
C525 H531 0.959 . S
C525 H532 0.961 . S
C525 H533 0.960 . S
C526 C524 1.381 . S
C526 C527 1.394 . S
C526 H534 0.930 . S
C527 C526 1.394 . S
C527 C528 1.383 . S
C527 H535 0.929 . S
C528 C527 1.383 . S
C528 C529 1.377 . S
C529 H513 0.930 . S
C529 C528 1.377 . S
C529 C530 1.379 . S
C530 H514 0.931 . S
C530 C524 1.383 . S
C530 C529 1.379 . S
H531 C525 0.959 . S
H532 C525 0.961 . S
H533 C525 0.960 . S
H534 C526 0.930 . S
H535 C527 0.929 . S
H536 C544 0.929 . S
H537 C546 0.930 . S
H538 C548 0.930 . S
H539 C551 0.929 . S
H540 C554 0.930 . S
H541 C556 0.960 . S
H542 C556 0.960 . S
H543 C556 0.960 . S
C544 H536 0.929 . S
C544 C545 1.377 . S
C544 C546 1.384 . S
C545 C544 1.377 . S
C545 C551 1.390 . S
C546 H537 0.930 . S
C546 C544 1.384 . S
C546 C547 1.372 . S
C547 C546 1.372 . S
C547 C548 1.400 . S
C547 C552 1.490 . S
C548 H538 0.930 . S
C548 C547 1.400 . S
C548 C551 1.386 . S
H549 C565 0.930 . S
H550 C566 0.931 . S
C551 H539 0.929 . S
C551 C545 1.390 . S
C551 C548 1.386 . S
C552 C547 1.490 . S
C552 C554 1.395 . S
C552 C555 1.403 . S
H553 C559 0.930 . S
C554 H540 0.930 . S
C554 C552 1.395 . S
C554 C557 1.403 . S
C555 C552 1.403 . S
C555 C556 1.524 . S
C555 C559 1.400 . S
C556 H541 0.960 . S
C556 H542 0.960 . S
C556 H543 0.960 . S
C556 C555 1.524 . S
C557 C554 1.403 . S
C557 C558 1.392 . S
C557 C561 1.495 . S
C558 C557 1.392 . S
C558 C559 1.385 . S
C558 C560 1.478 . S
C559 H553 0.930 . S
C559 C555 1.400 . S
C559 C558 1.385 . S
C560 C558 1.478 . S
C560 C562 1.381 . S
C560 C566 1.383 . S
C561 C557 1.495 . S
C561 H567 0.959 . S
C561 H568 0.961 . S
C561 H569 0.960 . S
C562 C560 1.381 . S
C562 C563 1.394 . S
C562 H570 0.930 . S
C563 C562 1.394 . S
C563 C564 1.383 . S
C563 H571 0.929 . S
C564 C563 1.383 . S
C564 C565 1.377 . S
C565 H549 0.930 . S
C565 C564 1.377 . S
C565 C566 1.379 . S
C566 H550 0.931 . S
C566 C560 1.383 . S
C566 C565 1.379 . S
H567 C561 0.959 . S
H568 C561 0.961 . S
H569 C561 0.960 . S
H570 C562 0.930 . S
H571 C563 0.929 . S
H572 C580 0.929 . S
H573 C582 0.930 . S
H574 C584 0.930 . S
H575 C587 0.929 . S
H576 C590 0.930 . S
H577 C592 0.960 . S
H578 C592 0.960 . S
H579 C592 0.960 . S
C580 H572 0.929 . S
C580 C581 1.377 . S
C580 C582 1.384 . S
C581 C580 1.377 . S
C581 C587 1.390 . S
C582 H573 0.930 . S
C582 C580 1.384 . S
C582 C583 1.372 . S
C583 C582 1.372 . S
C583 C584 1.400 . S
C583 C588 1.490 . S
C584 H574 0.930 . S
C584 C583 1.400 . S
C584 C587 1.386 . S
H585 C601 0.930 . S
H586 C602 0.931 . S
C587 H575 0.929 . S
C587 C581 1.390 . S
C587 C584 1.386 . S
C588 C583 1.490 . S
C588 C590 1.395 . S
C588 C591 1.403 . S
H589 C595 0.930 . S
C590 H576 0.930 . S
C590 C588 1.395 . S
C590 C593 1.403 . S
C591 C588 1.403 . S
C591 C592 1.524 . S
C591 C595 1.400 . S
C592 H577 0.960 . S
C592 H578 0.960 . S
C592 H579 0.960 . S
C592 C591 1.524 . S
C593 C590 1.403 . S
C593 C594 1.392 . S
C593 C597 1.495 . S
C594 C593 1.392 . S
C594 C595 1.385 . S
C594 C596 1.478 . S
C595 H589 0.930 . S
C595 C591 1.400 . S
C595 C594 1.385 . S
C596 C594 1.478 . S
C596 C598 1.381 . S
C596 C602 1.383 . S
C597 C593 1.495 . S
C597 H603 0.959 . S
C597 H604 0.961 . S
C597 H605 0.960 . S
C598 C596 1.381 . S
C598 C599 1.394 1_556 S
C598 H606 0.930 . S
C599 C598 1.394 1_554 S
C599 C600 1.383 1_554 S
C599 H607 0.929 . S
C600 C599 1.383 1_556 S
C600 C601 1.377 . S
C601 H585 0.930 . S
C601 C600 1.377 . S
C601 C602 1.379 . S
C602 H586 0.931 . S
C602 C596 1.383 . S
C602 C601 1.379 . S
H603 C597 0.959 . S
H604 C597 0.961 . S
H605 C597 0.960 . S
H606 C598 0.930 . S
H607 C599 0.929 . S
H608 C616 0.929 . S
H609 C618 0.930 . S
H610 C620 0.930 . S
H611 C623 0.929 . S
H612 C626 0.930 . S
H613 C628 0.960 . S
H614 C628 0.960 . S
H615 C628 0.960 . S
C616 H608 0.929 . S
C616 C617 1.377 . S
C616 C618 1.384 . S
C617 C616 1.377 . S
C617 C623 1.390 . S
C618 H609 0.930 . S
C618 C616 1.384 . S
C618 C619 1.372 . S
C619 C618 1.372 . S
C619 C620 1.400 . S
C619 C624 1.490 . S
C620 H610 0.930 . S
C620 C619 1.400 . S
C620 C623 1.386 . S
H621 C637 0.930 . S
H622 C638 0.931 . S
C623 H611 0.929 . S
C623 C617 1.390 . S
C623 C620 1.386 . S
C624 C619 1.490 . S
C624 C626 1.395 . S
C624 C627 1.403 . S
H625 C631 0.930 . S
C626 H612 0.930 . S
C626 C624 1.395 . S
C626 C629 1.403 . S
C627 C624 1.403 . S
C627 C628 1.524 . S
C627 C631 1.400 . S
C628 H613 0.960 . S
C628 H614 0.960 . S
C628 H615 0.960 . S
C628 C627 1.524 . S
C629 C626 1.403 . S
C629 C630 1.392 . S
C629 C633 1.495 . S
C630 C629 1.392 . S
C630 C631 1.385 . S
C630 C632 1.478 . S
C631 H625 0.930 . S
C631 C627 1.400 . S
C631 C630 1.385 . S
C632 C630 1.478 . S
C632 C634 1.381 . S
C632 C638 1.383 . S
C633 C629 1.495 . S
C633 H639 0.959 . S
C633 H640 0.961 . S
C633 H641 0.960 . S
C634 C632 1.381 . S
C634 C635 1.394 . S
C634 H642 0.930 . S
C635 C634 1.394 . S
C635 C636 1.383 . S
C635 H643 0.929 . S
C636 C635 1.383 . S
C636 C637 1.377 . S
C637 H621 0.930 . S
C637 C636 1.377 . S
C637 C638 1.379 . S
C638 H622 0.931 . S
C638 C632 1.383 . S
C638 C637 1.379 . S
H639 C633 0.959 . S
H640 C633 0.961 . S
H641 C633 0.960 . S
H642 C634 0.930 . S
H643 C635 0.929 . S
H644 C652 0.929 . S
H645 C654 0.930 . S
H646 C656 0.930 . S
H647 C659 0.929 . S
H648 C662 0.930 . S
H649 C664 0.960 . S
H650 C664 0.960 . S
H651 C664 0.960 . S
C652 H644 0.929 . S
C652 C653 1.377 . S
C652 C654 1.384 . S
C653 C652 1.377 . S
C653 C659 1.390 . S
C654 H645 0.930 . S
C654 C652 1.384 . S
C654 C655 1.372 . S
C655 C654 1.372 . S
C655 C656 1.400 . S
C655 C660 1.490 . S
C656 H646 0.930 . S
C656 C655 1.400 . S
C656 C659 1.386 . S
H657 C673 0.930 . S
H658 C674 0.931 . S
C659 H647 0.929 . S
C659 C653 1.390 . S
C659 C656 1.386 . S
C660 C655 1.490 . S
C660 C662 1.395 . S
C660 C663 1.403 . S
H661 C667 0.930 . S
C662 H648 0.930 . S
C662 C660 1.395 . S
C662 C665 1.403 . S
C663 C660 1.403 . S
C663 C664 1.524 . S
C663 C667 1.400 . S
C664 H649 0.960 . S
C664 H650 0.960 . S
C664 H651 0.960 . S
C664 C663 1.524 . S
C665 C662 1.403 . S
C665 C666 1.392 . S
C665 C669 1.495 . S
C666 C665 1.392 . S
C666 C667 1.385 . S
C666 C668 1.478 . S
C667 H661 0.930 . S
C667 C663 1.400 . S
C667 C666 1.385 . S
C668 C666 1.478 . S
C668 C670 1.381 . S
C668 C674 1.383 . S
C669 C665 1.495 . S
C669 H675 0.959 . S
C669 H676 0.961 . S
C669 H677 0.960 . S
C670 C668 1.381 . S
C670 C671 1.394 . S
C670 H678 0.930 . S
C671 C670 1.394 . S
C671 C672 1.383 . S
C671 H679 0.929 . S
C672 C671 1.383 . S
C672 C673 1.377 . S
C673 H657 0.930 . S
C673 C672 1.377 . S
C673 C674 1.379 . S
C674 H658 0.931 . S
C674 C668 1.383 . S
C674 C673 1.379 . S
H675 C669 0.959 . S
H676 C669 0.961 . S
H677 C669 0.960 . S
H678 C670 0.930 . S
H679 C671 0.929 . S
H680 C688 0.929 . S
H681 C690 0.930 . S
H682 C692 0.930 . S
H683 C695 0.929 . S
H684 C698 0.930 . S
H685 C700 0.960 . S
H686 C700 0.960 . S
H687 C700 0.960 . S
C688 H680 0.929 . S
C688 C689 1.377 . S
C688 C690 1.384 . S
C689 C688 1.377 . S
C689 C695 1.390 . S
C690 H681 0.930 . S
C690 C688 1.384 . S
C690 C691 1.372 . S
C691 C690 1.372 . S
C691 C692 1.400 . S
C691 C696 1.490 . S
C692 H682 0.930 . S
C692 C691 1.400 . S
C692 C695 1.386 . S
H693 C709 0.930 . S
H694 C710 0.931 . S
C695 H683 0.929 . S
C695 C689 1.390 . S
C695 C692 1.386 . S
C696 C691 1.490 . S
C696 C698 1.395 . S
C696 C699 1.403 . S
H697 C703 0.930 . S
C698 H684 0.930 . S
C698 C696 1.395 . S
C698 C701 1.403 . S
C699 C696 1.403 . S
C699 C700 1.524 . S
C699 C703 1.400 . S
C700 H685 0.960 . S
C700 H686 0.960 . S
C700 H687 0.960 . S
C700 C699 1.524 . S
C701 C698 1.403 . S
C701 C702 1.392 . S
C701 C705 1.495 . S
C702 C701 1.392 . S
C702 C703 1.385 . S
C702 C704 1.478 . S
C703 H697 0.930 . S
C703 C699 1.400 . S
C703 C702 1.385 . S
C704 C702 1.478 . S
C704 C706 1.381 . S
C704 C710 1.383 . S
C705 C701 1.495 . S
C705 H711 0.959 . S
C705 H712 0.961 . S
C705 H713 0.960 . S
C706 C704 1.381 . S
C706 C707 1.394 . S
C706 H714 0.930 . S
C707 C706 1.394 . S
C707 C708 1.383 . S
C707 H715 0.929 . S
C708 C707 1.383 . S
C708 C709 1.377 . S
C709 H693 0.930 . S
C709 C708 1.377 . S
C709 C710 1.379 . S
C710 H694 0.931 . S
C710 C704 1.383 . S
C710 C709 1.379 . S
H711 C705 0.959 . S
H712 C705 0.961 . S
H713 C705 0.960 . S
H714 C706 0.930 . S
H715 C707 0.929 . S
H716 C724 0.929 . S
H717 C726 0.930 . S
H718 C728 0.930 . S
H719 C731 0.929 . S
H720 C734 0.930 . S
H721 C736 0.960 . S
H722 C736 0.960 . S
H723 C736 0.960 . S
C724 H716 0.929 . S
C724 C725 1.377 . S
C724 C726 1.384 . S
C725 C724 1.377 . S
C725 C731 1.390 . S
C726 H717 0.930 . S
C726 C724 1.384 . S
C726 C727 1.372 . S
C727 C726 1.372 . S
C727 C728 1.400 . S
C727 C732 1.490 . S
C728 H718 0.930 . S
C728 C727 1.400 . S
C728 C731 1.386 . S
H729 C745 0.930 . S
H730 C746 0.931 . S
C731 H719 0.929 . S
C731 C725 1.390 . S
C731 C728 1.386 . S
C732 C727 1.490 . S
C732 C734 1.395 . S
C732 C735 1.403 . S
H733 C739 0.930 . S
C734 H720 0.930 . S
C734 C732 1.395 . S
C734 C737 1.403 . S
C735 C732 1.403 . S
C735 C736 1.524 . S
C735 C739 1.400 . S
C736 H721 0.960 . S
C736 H722 0.960 . S
C736 H723 0.960 . S
C736 C735 1.524 . S
C737 C734 1.403 . S
C737 C738 1.392 . S
C737 C741 1.495 . S
C738 C737 1.392 . S
C738 C739 1.385 . S
C738 C740 1.478 . S
C739 H733 0.930 . S
C739 C735 1.400 . S
C739 C738 1.385 . S
C740 C738 1.478 . S
C740 C742 1.381 . S
C740 C746 1.383 . S
C741 C737 1.495 . S
C741 H747 0.959 . S
C741 H748 0.961 . S
C741 H749 0.960 . S
C742 C740 1.381 . S
C742 C743 1.394 . S
C742 H750 0.930 . S
C743 C742 1.394 . S
C743 C744 1.383 . S
C743 H751 0.929 . S
C744 C743 1.383 . S
C744 C745 1.377 . S
C745 H729 0.930 . S
C745 C744 1.377 . S
C745 C746 1.379 . S
C746 H730 0.931 . S
C746 C740 1.383 . S
C746 C745 1.379 . S
H747 C741 0.959 . S
H748 C741 0.961 . S
H749 C741 0.960 . S
H750 C742 0.930 . S
H751 C743 0.929 . S
H752 C760 0.929 . S
H753 C762 0.930 . S
H754 C764 0.930 . S
H755 C767 0.929 . S
H756 C770 0.930 . S
H757 C772 0.960 . S
H758 C772 0.960 . S
H759 C772 0.960 . S
C760 H752 0.929 . S
C760 C761 1.377 . S
C760 C762 1.384 . S
C761 C760 1.377 . S
C761 C767 1.390 . S
C762 H753 0.930 . S
C762 C760 1.384 . S
C762 C763 1.372 . S
C763 C762 1.372 . S
C763 C764 1.400 . S
C763 C768 1.490 . S
C764 H754 0.930 . S
C764 C763 1.400 . S
C764 C767 1.386 . S
H765 C781 0.930 . S
H766 C782 0.931 . S
C767 H755 0.929 . S
C767 C761 1.390 . S
C767 C764 1.386 . S
C768 C763 1.490 . S
C768 C770 1.395 . S
C768 C771 1.403 . S
H769 C775 0.930 . S
C770 H756 0.930 . S
C770 C768 1.395 . S
C770 C773 1.403 . S
C771 C768 1.403 . S
C771 C772 1.524 . S
C771 C775 1.400 . S
C772 H757 0.960 . S
C772 H758 0.960 . S
C772 H759 0.960 . S
C772 C771 1.524 . S
C773 C770 1.403 . S
C773 C774 1.392 . S
C773 C777 1.495 . S
C774 C773 1.392 . S
C774 C775 1.385 . S
C774 C776 1.478 . S
C775 H769 0.930 . S
C775 C771 1.400 . S
C775 C774 1.385 . S
C776 C774 1.478 . S
C776 C778 1.381 . S
C776 C782 1.383 . S
C777 C773 1.495 . S
C777 H783 0.959 . S
C777 H784 0.961 . S
C777 H785 0.960 . S
C778 C776 1.381 . S
C778 C779 1.394 . S
C778 H786 0.930 . S
C779 C778 1.394 . S
C779 C780 1.383 . S
C779 H787 0.929 . S
C780 C779 1.383 . S
C780 C781 1.377 . S
C781 H765 0.930 . S
C781 C780 1.377 . S
C781 C782 1.379 . S
C782 H766 0.931 . S
C782 C776 1.383 . S
C782 C781 1.379 . S
H783 C777 0.959 . S
H784 C777 0.961 . S
H785 C777 0.960 . S
H786 C778 0.930 . S
H787 C779 0.929 . S
H788 C796 0.929 . S
H789 C798 0.930 . S
H790 C800 0.930 . S
H791 C803 0.929 . S
H792 C806 0.930 . S
H793 C808 0.960 . S
H794 C808 0.960 . S
H795 C808 0.960 . S
C796 H788 0.929 . S
C796 C797 1.377 . S
C796 C798 1.384 . S
C797 C796 1.377 . S
C797 C803 1.390 . S
C798 H789 0.930 . S
C798 C796 1.384 . S
C798 C799 1.372 . S
C799 C798 1.372 . S
C799 C800 1.400 . S
C799 C804 1.490 . S
C800 H790 0.930 . S
C800 C799 1.400 . S
C800 C803 1.386 . S
H801 C817 0.930 . S
H802 C818 0.931 . S
C803 H791 0.929 . S
C803 C797 1.390 . S
C803 C800 1.386 . S
C804 C799 1.490 . S
C804 C806 1.395 . S
C804 C807 1.403 . S
H805 C811 0.930 . S
C806 H792 0.930 . S
C806 C804 1.395 . S
C806 C809 1.403 . S
C807 C804 1.403 . S
C807 C808 1.524 . S
C807 C811 1.400 . S
C808 H793 0.960 . S
C808 H794 0.960 . S
C808 H795 0.960 . S
C808 C807 1.524 . S
C809 C806 1.403 . S
C809 C810 1.392 . S
C809 C813 1.495 . S
C810 C809 1.392 . S
C810 C811 1.385 . S
C810 C812 1.478 . S
C811 H805 0.930 . S
C811 C807 1.400 . S
C811 C810 1.385 . S
C812 C810 1.478 . S
C812 C814 1.381 . S
C812 C818 1.383 . S
C813 C809 1.495 . S
C813 H819 0.959 . S
C813 H820 0.961 . S
C813 H821 0.960 . S
C814 C812 1.381 . S
C814 C815 1.394 . S
C814 H822 0.930 . S
C815 C814 1.394 . S
C815 C816 1.383 . S
C815 H823 0.929 . S
C816 C815 1.383 . S
C816 C817 1.377 . S
C817 H801 0.930 . S
C817 C816 1.377 . S
C817 C818 1.379 . S
C818 H802 0.931 . S
C818 C812 1.383 . S
C818 C817 1.379 . S
H819 C813 0.959 . S
H820 C813 0.961 . S
H821 C813 0.960 . S
H822 C814 0.930 . S
H823 C815 0.929 . S
H824 C832 0.929 . S
H825 C834 0.930 . S
H826 C836 0.930 . S
H827 C839 0.929 . S
H828 C842 0.930 . S
H829 C844 0.960 . S
H830 C844 0.960 . S
H831 C844 0.960 . S
C832 H824 0.929 . S
C832 C833 1.377 . S
C832 C834 1.384 . S
C833 C832 1.377 . S
C833 C839 1.390 . S
C834 H825 0.930 . S
C834 C832 1.384 . S
C834 C835 1.372 . S
C835 C834 1.372 . S
C835 C836 1.400 . S
C835 C840 1.490 . S
C836 H826 0.930 . S
C836 C835 1.400 . S
C836 C839 1.386 . S
H837 C853 0.930 . S
H838 C854 0.931 1_554 S
C839 H827 0.929 . S
C839 C833 1.390 . S
C839 C836 1.386 . S
C840 C835 1.490 . S
C840 C842 1.395 . S
C840 C843 1.403 . S
H841 C847 0.930 . S
C842 H828 0.930 . S
C842 C840 1.395 . S
C842 C845 1.403 . S
C843 C840 1.403 . S
C843 C844 1.524 . S
C843 C847 1.400 . S
C844 H829 0.960 . S
C844 H830 0.960 . S
C844 H831 0.960 . S
C844 C843 1.524 . S
C845 C842 1.403 . S
C845 C846 1.392 . S
C845 C849 1.495 . S
C846 C845 1.392 . S
C846 C847 1.385 . S
C846 C848 1.478 . S
C847 H841 0.930 . S
C847 C843 1.400 . S
C847 C846 1.385 . S
C848 C846 1.478 . S
C848 C850 1.381 . S
C848 C854 1.383 . S
C849 C845 1.495 . S
C849 H855 0.959 . S
C849 H856 0.961 . S
C849 H857 0.960 . S
C850 C848 1.381 . S
C850 C851 1.394 . S
C850 H858 0.930 . S
C851 C850 1.394 . S
C851 C852 1.383 . S
C851 H859 0.929 . S
C852 C851 1.383 . S
C852 C853 1.377 1_556 S
C853 H837 0.930 . S
C853 C852 1.377 1_554 S
C853 C854 1.379 1_554 S
C854 H838 0.931 1_556 S
C854 C848 1.383 . S
C854 C853 1.379 1_556 S
H855 C849 0.959 . S
H856 C849 0.961 . S
H857 C849 0.960 . S
H858 C850 0.930 . S
H859 C851 0.929 . S
H860 C868 0.929 . S
H861 C870 0.930 . S
H862 C872 0.930 . S
H863 C875 0.929 . S
H864 C878 0.930 . S
H865 C880 0.960 . S
H866 C880 0.960 . S
H867 C880 0.960 . S
C868 H860 0.929 . S
C868 C869 1.377 . S
C868 C870 1.384 . S
C869 C868 1.377 . S
C869 C875 1.390 . S
C870 H861 0.930 . S
C870 C868 1.384 . S
C870 C871 1.372 . S
C871 C870 1.372 . S
C871 C872 1.400 . S
C871 C876 1.490 . S
C872 H862 0.930 . S
C872 C871 1.400 . S
C872 C875 1.386 . S
H873 C889 0.930 1_455 S
H874 C890 0.931 . S
C875 H863 0.929 . S
C875 C869 1.390 . S
C875 C872 1.386 . S
C876 C871 1.490 . S
C876 C878 1.395 . S
C876 C879 1.403 . S
H877 C883 0.930 . S
C878 H864 0.930 . S
C878 C876 1.395 . S
C878 C881 1.403 . S
C879 C876 1.403 . S
C879 C880 1.524 . S
C879 C883 1.400 . S
C880 H865 0.960 . S
C880 H866 0.960 . S
C880 H867 0.960 . S
C880 C879 1.524 . S
C881 C878 1.403 . S
C881 C882 1.392 . S
C881 C885 1.495 . S
C882 C881 1.392 . S
C882 C883 1.385 . S
C882 C884 1.478 . S
C883 H877 0.930 . S
C883 C879 1.400 . S
C883 C882 1.385 . S
C884 C882 1.478 . S
C884 C886 1.381 . S
C884 C890 1.383 . S
C885 C881 1.495 . S
C885 H891 0.959 . S
C885 H892 0.961 . S
C885 H893 0.960 . S
C886 C884 1.381 . S
C886 C887 1.394 . S
C886 H894 0.930 . S
C887 C886 1.394 . S
C887 C888 1.383 . S
C887 H895 0.929 . S
C888 C887 1.383 . S
C888 C889 1.377 . S
C889 H873 0.930 1_655 S
C889 C888 1.377 . S
C889 C890 1.379 . S
C890 H874 0.931 . S
C890 C884 1.383 . S
C890 C889 1.379 . S
H891 C885 0.959 . S
H892 C885 0.961 . S
H893 C885 0.960 . S
H894 C886 0.930 . S
H895 C887 0.929 . S
H896 C904 0.929 . S
H897 C906 0.930 . S
H898 C908 0.930 . S
H899 C911 0.929 . S
H900 C914 0.930 . S
H901 C916 0.960 . S
H902 C916 0.960 . S
H903 C916 0.960 . S
C904 H896 0.929 . S
C904 C905 1.377 . S
C904 C906 1.384 . S
C905 C904 1.377 . S
C905 C911 1.390 . S
C906 H897 0.930 . S
C906 C904 1.384 . S
C906 C907 1.372 . S
C907 C906 1.372 . S
C907 C908 1.400 . S
C907 C912 1.490 . S
C908 H898 0.930 . S
C908 C907 1.400 . S
C908 C911 1.386 . S
H909 C925 0.930 . S
H910 C926 0.931 . S
C911 H899 0.929 . S
C911 C905 1.390 . S
C911 C908 1.386 . S
C912 C907 1.490 . S
C912 C914 1.395 . S
C912 C915 1.403 . S
H913 C919 0.930 . S
C914 H900 0.930 . S
C914 C912 1.395 . S
C914 C917 1.403 . S
C915 C912 1.403 . S
C915 C916 1.524 . S
C915 C919 1.400 . S
C916 H901 0.960 . S
C916 H902 0.960 . S
C916 H903 0.960 . S
C916 C915 1.524 . S
C917 C914 1.403 . S
C917 C918 1.392 . S
C917 C921 1.495 . S
C918 C917 1.392 . S
C918 C919 1.385 . S
C918 C920 1.478 . S
C919 H913 0.930 . S
C919 C915 1.400 . S
C919 C918 1.385 . S
C920 C918 1.478 . S
C920 C922 1.381 . S
C920 C926 1.383 . S
C921 C917 1.495 . S
C921 H927 0.959 . S
C921 H928 0.961 . S
C921 H929 0.960 . S
C922 C920 1.381 . S
C922 C923 1.394 . S
C922 H930 0.930 . S
C923 C922 1.394 . S
C923 C924 1.383 . S
C923 H931 0.929 . S
C924 C923 1.383 . S
C924 C925 1.377 . S
C925 H909 0.930 . S
C925 C924 1.377 . S
C925 C926 1.379 . S
C926 H910 0.931 . S
C926 C920 1.383 . S
C926 C925 1.379 . S
H927 C921 0.959 . S
H928 C921 0.961 . S
H929 C921 0.960 . S
H930 C922 0.930 . S
H931 C923 0.929 . S
H932 C940 0.929 . S
H933 C942 0.930 . S
H934 C944 0.930 . S
H935 C947 0.929 . S
H936 C950 0.930 . S
H937 C952 0.960 . S
H938 C952 0.960 . S
H939 C952 0.960 . S
C940 H932 0.929 . S
C940 C941 1.377 . S
C940 C942 1.384 . S
C941 C940 1.377 . S
C941 C947 1.390 . S
C942 H933 0.930 . S
C942 C940 1.384 . S
C942 C943 1.372 . S
C943 C942 1.372 . S
C943 C944 1.400 . S
C943 C948 1.490 . S
C944 H934 0.930 . S
C944 C943 1.400 . S
C944 C947 1.386 . S
H945 C961 0.930 . S
H946 C962 0.931 . S
C947 H935 0.929 . S
C947 C941 1.390 . S
C947 C944 1.386 . S
C948 C943 1.490 . S
C948 C950 1.395 . S
C948 C951 1.403 . S
H949 C955 0.930 . S
C950 H936 0.930 . S
C950 C948 1.395 . S
C950 C953 1.403 . S
C951 C948 1.403 . S
C951 C952 1.524 . S
C951 C955 1.400 . S
C952 H937 0.960 . S
C952 H938 0.960 . S
C952 H939 0.960 . S
C952 C951 1.524 . S
C953 C950 1.403 . S
C953 C954 1.392 . S
C953 C957 1.495 . S
C954 C953 1.392 . S
C954 C955 1.385 . S
C954 C956 1.478 . S
C955 H949 0.930 . S
C955 C951 1.400 . S
C955 C954 1.385 . S
C956 C954 1.478 . S
C956 C958 1.381 . S
C956 C962 1.383 . S
C957 C953 1.495 . S
C957 H963 0.959 . S
C957 H964 0.961 . S
C957 H965 0.960 . S
C958 C956 1.381 . S
C958 C959 1.394 . S
C958 H966 0.930 . S
C959 C958 1.394 . S
C959 C960 1.383 . S
C959 H967 0.929 . S
C960 C959 1.383 . S
C960 C961 1.377 . S
C961 H945 0.930 . S
C961 C960 1.377 . S
C961 C962 1.379 . S
C962 H946 0.931 . S
C962 C956 1.383 . S
C962 C961 1.379 . S
H963 C957 0.959 . S
H964 C957 0.961 . S
H965 C957 0.960 . S
H966 C958 0.930 . S
H967 C959 0.929 . S
H968 C976 0.929 . S
H969 C978 0.930 . S
H970 C980 0.930 . S
H971 C983 0.929 . S
H972 C986 0.930 . S
H973 C988 0.960 . S
H974 C988 0.960 . S
H975 C988 0.960 . S
C976 H968 0.929 . S
C976 C977 1.377 . S
C976 C978 1.384 . S
C977 C976 1.377 . S
C977 C983 1.390 . S
C978 H969 0.930 . S
C978 C976 1.384 . S
C978 C979 1.372 . S
C979 C978 1.372 . S
C979 C980 1.400 . S
C979 C984 1.490 . S
C980 H970 0.930 . S
C980 C979 1.400 . S
C980 C983 1.386 . S
H981 C997 0.930 . S
H982 C998 0.931 . S
C983 H971 0.929 . S
C983 C977 1.390 . S
C983 C980 1.386 . S
C984 C979 1.490 . S
C984 C986 1.395 . S
C984 C987 1.403 . S
H985 C991 0.930 . S
C986 H972 0.930 . S
C986 C984 1.395 . S
C986 C989 1.403 . S
C987 C984 1.403 . S
C987 C988 1.524 . S
C987 C991 1.400 . S
C988 H973 0.960 . S
C988 H974 0.960 . S
C988 H975 0.960 . S
C988 C987 1.524 . S
C989 C986 1.403 . S
C989 C990 1.392 . S
C989 C993 1.495 . S
C990 C989 1.392 . S
C990 C991 1.385 . S
C990 C992 1.478 . S
C991 H985 0.930 . S
C991 C987 1.400 . S
C991 C990 1.385 . S
C992 C990 1.478 . S
C992 C994 1.381 . S
C992 C998 1.383 . S
C993 C989 1.495 . S
C993 H999 0.959 . S
C993 H1000 0.961 . S
C993 H1001 0.960 . S
C994 C992 1.381 . S
C994 C995 1.394 . S
C994 H1002 0.930 . S
C995 C994 1.394 . S
C995 C996 1.383 . S
C995 H1003 0.929 . S
C996 C995 1.383 . S
C996 C997 1.377 . S
C997 H981 0.930 . S
C997 C996 1.377 . S
C997 C998 1.379 . S
C998 H982 0.931 . S
C998 C992 1.383 . S
C998 C997 1.379 . S
H999 C993 0.959 . S
H1000 C993 0.961 . S
H1001 C993 0.960 . S
H1002 C994 0.930 . S
H1003 C995 0.929 . S
H1004 C1012 0.929 . S
H1005 C1014 0.930 . S
H1006 C1016 0.930 . S
H1007 C1019 0.929 . S
H1008 C1022 0.930 . S
H1009 C1024 0.960 . S
H1010 C1024 0.960 . S
H1011 C1024 0.960 . S
C1012 H1004 0.929 . S
C1012 C1013 1.377 . S
C1012 C1014 1.384 . S
C1013 C1012 1.377 . S
C1013 C1019 1.390 . S
C1014 H1005 0.930 . S
C1014 C1012 1.384 . S
C1014 C1015 1.372 . S
C1015 C1014 1.372 . S
C1015 C1016 1.400 . S
C1015 C1020 1.490 . S
C1016 H1006 0.930 . S
C1016 C1015 1.400 . S
C1016 C1019 1.386 . S
H1017 C1033 0.930 . S
H1018 C1034 0.931 . S
C1019 H1007 0.929 . S
C1019 C1013 1.390 . S
C1019 C1016 1.386 . S
C1020 C1015 1.490 . S
C1020 C1022 1.395 . S
C1020 C1023 1.403 . S
H1021 C1027 0.930 . S
C1022 H1008 0.930 . S
C1022 C1020 1.395 . S
C1022 C1025 1.403 . S
C1023 C1020 1.403 . S
C1023 C1024 1.524 . S
C1023 C1027 1.400 . S
C1024 H1009 0.960 . S
C1024 H1010 0.960 . S
C1024 H1011 0.960 . S
C1024 C1023 1.524 . S
C1025 C1022 1.403 . S
C1025 C1026 1.392 . S
C1025 C1029 1.495 . S
C1026 C1025 1.392 . S
C1026 C1027 1.385 . S
C1026 C1028 1.478 . S
C1027 H1021 0.930 . S
C1027 C1023 1.400 . S
C1027 C1026 1.385 . S
C1028 C1026 1.478 . S
C1028 C1030 1.381 . S
C1028 C1034 1.383 . S
C1029 C1025 1.495 . S
C1029 H1035 0.959 . S
C1029 H1036 0.961 . S
C1029 H1037 0.960 . S
C1030 C1028 1.381 . S
C1030 C1031 1.394 . S
C1030 H1038 0.930 . S
C1031 C1030 1.394 . S
C1031 C1032 1.383 . S
C1031 H1039 0.929 . S
C1032 C1031 1.383 . S
C1032 C1033 1.377 . S
C1033 H1017 0.930 . S
C1033 C1032 1.377 . S
C1033 C1034 1.379 . S
C1034 H1018 0.931 . S
C1034 C1028 1.383 . S
C1034 C1033 1.379 . S
H1035 C1029 0.959 . S
H1036 C1029 0.961 . S
H1037 C1029 0.960 . S
H1038 C1030 0.930 . S
H1039 C1031 0.929 . S
H1040 C1048 0.929 . S
H1041 C1050 0.930 . S
H1042 C1052 0.930 . S
H1043 C1055 0.929 . S
H1044 C1058 0.930 . S
H1045 C1060 0.960 . S
H1046 C1060 0.960 . S
H1047 C1060 0.960 . S
C1048 H1040 0.929 . S
C1048 C1049 1.377 . S
C1048 C1050 1.384 . S
C1049 C1048 1.377 . S
C1049 C1055 1.390 . S
C1050 H1041 0.930 . S
C1050 C1048 1.384 . S
C1050 C1051 1.372 . S
C1051 C1050 1.372 . S
C1051 C1052 1.400 . S
C1051 C1056 1.490 . S
C1052 H1042 0.930 . S
C1052 C1051 1.400 . S
C1052 C1055 1.386 . S
H1053 C1069 0.930 . S
H1054 C1070 0.931 . S
C1055 H1043 0.929 . S
C1055 C1049 1.390 . S
C1055 C1052 1.386 . S
C1056 C1051 1.490 . S
C1056 C1058 1.395 . S
C1056 C1059 1.403 . S
H1057 C1063 0.930 . S
C1058 H1044 0.930 . S
C1058 C1056 1.395 . S
C1058 C1061 1.403 . S
C1059 C1056 1.403 . S
C1059 C1060 1.524 . S
C1059 C1063 1.400 . S
C1060 H1045 0.960 . S
C1060 H1046 0.960 . S
C1060 H1047 0.960 . S
C1060 C1059 1.524 . S
C1061 C1058 1.403 . S
C1061 C1062 1.392 . S
C1061 C1065 1.495 . S
C1062 C1061 1.392 . S
C1062 C1063 1.385 . S
C1062 C1064 1.478 . S
C1063 H1057 0.930 . S
C1063 C1059 1.400 . S
C1063 C1062 1.385 . S
C1064 C1062 1.478 . S
C1064 C1066 1.381 . S
C1064 C1070 1.383 . S
C1065 C1061 1.495 . S
C1065 H1071 0.959 . S
C1065 H1072 0.961 . S
C1065 H1073 0.960 . S
C1066 C1064 1.381 . S
C1066 C1067 1.394 . S
C1066 H1074 0.930 . S
C1067 C1066 1.394 . S
C1067 C1068 1.383 . S
C1067 H1075 0.929 . S
C1068 C1067 1.383 . S
C1068 C1069 1.377 . S
C1069 H1053 0.930 . S
C1069 C1068 1.377 . S
C1069 C1070 1.379 . S
C1070 H1054 0.931 . S
C1070 C1064 1.383 . S
C1070 C1069 1.379 . S
H1071 C1065 0.959 . S
H1072 C1065 0.961 . S
H1073 C1065 0.960 . S
H1074 C1066 0.930 . S
H1075 C1067 0.929 . S
H1076 C1084 0.929 . S
H1077 C1086 0.930 . S
H1078 C1088 0.930 . S
H1079 C1091 0.929 . S
H1080 C1094 0.930 . S
H1081 C1096 0.960 . S
H1082 C1096 0.960 . S
H1083 C1096 0.960 . S
C1084 H1076 0.929 . S
C1084 C1085 1.377 . S
C1084 C1086 1.384 . S
C1085 C1084 1.377 . S
C1085 C1091 1.390 . S
C1086 H1077 0.930 . S
C1086 C1084 1.384 . S
C1086 C1087 1.372 . S
C1087 C1086 1.372 . S
C1087 C1088 1.400 . S
C1087 C1092 1.490 . S
C1088 H1078 0.930 . S
C1088 C1087 1.400 . S
C1088 C1091 1.386 . S
H1089 C1105 0.930 . S
H1090 C1106 0.931 . S
C1091 H1079 0.929 . S
C1091 C1085 1.390 . S
C1091 C1088 1.386 . S
C1092 C1087 1.490 . S
C1092 C1094 1.395 . S
C1092 C1095 1.403 . S
H1093 C1099 0.930 . S
C1094 H1080 0.930 . S
C1094 C1092 1.395 . S
C1094 C1097 1.403 . S
C1095 C1092 1.403 . S
C1095 C1096 1.524 . S
C1095 C1099 1.400 . S
C1096 H1081 0.960 . S
C1096 H1082 0.960 . S
C1096 H1083 0.960 . S
C1096 C1095 1.524 . S
C1097 C1094 1.403 . S
C1097 C1098 1.392 . S
C1097 C1101 1.495 . S
C1098 C1097 1.392 . S
C1098 C1099 1.385 . S
C1098 C1100 1.478 . S
C1099 H1093 0.930 . S
C1099 C1095 1.400 . S
C1099 C1098 1.385 . S
C1100 C1098 1.478 . S
C1100 C1102 1.381 . S
C1100 C1106 1.383 . S
C1101 C1097 1.495 . S
C1101 H1107 0.959 . S
C1101 H1108 0.961 . S
C1101 H1109 0.960 . S
C1102 C1100 1.381 . S
C1102 C1103 1.394 . S
C1102 H1110 0.930 . S
C1103 C1102 1.394 . S
C1103 C1104 1.383 . S
C1103 H1111 0.929 . S
C1104 C1103 1.383 . S
C1104 C1105 1.377 . S
C1105 H1089 0.930 . S
C1105 C1104 1.377 . S
C1105 C1106 1.379 . S
C1106 H1090 0.931 . S
C1106 C1100 1.383 . S
C1106 C1105 1.379 . S
H1107 C1101 0.959 . S
H1108 C1101 0.961 . S
H1109 C1101 0.960 . S
H1110 C1102 0.930 . S
H1111 C1103 0.929 . S
C257 C5 1.142 . S
C276 C103 1.359 . S
C293 C18 1.115 . S
C312 C143 1.117 . S
C348 C177 1.960 . S
C329 C30 1.989 . S
C365 C41 2.280 . S
C384 C218 2.250 . S
C420 C138 1.557 . S
C401 C7 1.499 . S
C456 C98 2.282 . S
C437 C16 2.202 . S
C492 C226 1.525 . S
C473 C29 1.501 . S
C528 C187 1.302 . S
C509 C38 1.102 . S
C545 C8 1.200 . S
C564 C223 1.225 . S
C600 C146 2.150 1_556 S
C581 C27 2.021 . S
C617 C40 2.473 . S
C636 C106 2.410 . S
C653 C19 1.324 . S
C672 C174 1.343 . S
C708 C94 1.351 . S
C689 C51 1.238 . S
C725 C62 1.462 . S
C744 C134 1.457 . S
C761 C74 2.167 . S
C780 C186 2.144 . S
C797 C84 2.259 . S
C816 C227 2.301 . S
C833 C49 1.564 . S
C852 C147 1.938 1_556 S
C888 C107 2.156 . S
C869 C63 2.135 . S
C924 C217 1.373 . S
C905 C71 1.274 . S
C960 C178 1.497 . S
C941 C85 1.558 . S
C977 C52 1.140 . S
C996 C214 1.172 . S
C1032 C137 2.208 . S
C1013 C73 2.266 . S
C1068 C97 1.971 . S
C1049 C82 1.920 . S
C1085 C60 1.469 . S
C1104 C183 1.575 . S
