# Generated by pormake.
# Topology rtl, (3,6)-cn, num edge types: 1
# Building blocks:
#     Node 0, Type 0, BuildingBlock: WUSLED_clean_sbu_0, # of connection points: 3
#     Node 1, Type 0, BuildingBlock: WUSLED_clean_sbu_0, # of connection points: 3
#     Node 2, Type 0, BuildingBlock: WUSLED_clean_sbu_0, # of connection points: 3
#     Node 3, Type 0, BuildingBlock: WUSLED_clean_sbu_0, # of connection points: 3
#     Node 4, Type 1, BuildingBlock: KUMBUR_clean_sbu_1, # of connection points: 6
#     Node 5, Type 1, BuildingBlock: KUMBUR_clean_sbu_1, # of connection points: 6
#     Edge 6, Type (0, 1), BuildingBlock: ZUJKAS_clean_linker_0, # of connection points: 2
#     Edge 7, Type (0, 1), BuildingBlock: ZUJKAS_clean_linker_0, # of connection points: 2
#     Edge 8, Type (0, 1), BuildingBlock: ZUJKAS_clean_linker_0, # of connection points: 2
#     Edge 9, Type (0, 1), BuildingBlock: ZUJKAS_clean_linker_0, # of connection points: 2
#     Edge 10, Type (0, 1), BuildingBlock: ZUJKAS_clean_linker_0, # of connection points: 2
#     Edge 11, Type (0, 1), BuildingBlock: ZUJKAS_clean_linker_0, # of connection points: 2
#     Edge 12, Type (0, 1), BuildingBlock: ZUJKAS_clean_linker_0, # of connection points: 2
#     Edge 13, Type (0, 1), BuildingBlock: ZUJKAS_clean_linker_0, # of connection points: 2
#     Edge 14, Type (0, 1), BuildingBlock: ZUJKAS_clean_linker_0, # of connection points: 2
#     Edge 15, Type (0, 1), BuildingBlock: ZUJKAS_clean_linker_0, # of connection points: 2
#     Edge 16, Type (0, 1), BuildingBlock: ZUJKAS_clean_linker_0, # of connection points: 2
#     Edge 17, Type (0, 1), BuildingBlock: ZUJKAS_clean_linker_0, # of connection points: 2
# Relax obj value: 0.016
# Max RMSD: 0.092
# Mean RMSD: 0.053
data_MOF--net-rtl--node1-WUSLED_clean_sbu_0--node2-KUMBUR_clean_sbu_1--edge1-ZUJKAS_clean_linker_0
_symmetry_space_group_name_H-M    P1
_symmetry_Int_Tables_number       1
_symmetry_cell_setting            triclinic
loop_
_symmetry_equiv_pos_as_xyz
'x, y, z'
_cell_length_a     51.659089
_cell_length_b     51.776804
_cell_length_c     43.776442
_cell_angle_alpha  82.994948
_cell_angle_beta   99.490133
_cell_angle_gamma 90.497673
loop_
_atom_site_label
_atom_site_type_symbol
_atom_site_fract_x
_atom_site_fract_y
_atom_site_fract_z
_atom_type_partial_charge
C0 C 0.21863 0.86121 0.1151 0.0
C1 C 0.21196 0.88777 0.11164 0.0
C2 C 0.1943 0.88175 0.16034 0.0
C3 C 0.20006 0.89796 0.13412 0.0
C4 C 0.20107 0.85515 0.16363 0.0
C5 C 0.21316 0.84503 0.14127 0.0
U6 U 0.22455 0.85761 0.03018 0.0
O7 O 0.25918 0.85261 1.00796 0.0
O8 O 0.22754 0.82392 1.00491 0.0
C9 C 0.25118 0.83008 0.99919 0.0
C10 C 0.23049 0.84989 0.09127 0.0
C11 C 0.27095 0.80893 1.00552 0.0
C12 C 0.28728 0.76656 0.03136 0.0
C13 C 0.2692 0.78715 0.02757 0.0
C14 C 0.30955 0.78966 0.9919 0.0
C15 C 0.30749 0.76742 1.01326 0.0
C16 C 0.29142 0.81013 0.98803 0.0
C17 C 0.1826 0.90127 0.96548 0.0
C18 C 0.17952 0.89345 0.91141 0.0
C19 C 0.15935 0.93205 0.92397 0.0
C20 C 0.16819 0.92444 0.95573 0.0
C21 C 0.16471 0.91651 0.90148 0.0
C22 C 0.18847 0.88595 0.94313 0.0
C23 C 0.19105 0.89294 0.99891 0.0
O24 O 0.21453 0.83612 0.07318 0.0
O25 O 0.24564 0.86534 0.07598 0.0
O26 O 0.21549 0.89824 1.00997 0.0
O27 O 0.18426 0.86921 1.0086 0.0
H28 H 0.21584 0.90064 0.0915 0.0
H29 H 0.19547 0.91857 0.13097 0.0
H30 H 0.19653 0.84197 0.18316 0.0
H31 H 0.21795 0.82445 0.14422 0.0
H32 H 0.28497 0.74966 0.04785 0.0
H33 H 0.2536 0.7858 0.04145 0.0
H34 H 0.32515 0.79124 0.97803 0.0
H35 H 0.29319 0.82682 0.97099 0.0
H36 H 0.18424 0.88125 0.89463 0.0
H37 H 0.14779 0.94978 0.91708 0.0
H38 H 0.16351 0.93648 0.9727 0.0
H39 H 0.19976 0.86806 0.95027 0.0
C40 C 0.67689 0.69105 0.68977 0.0
C41 C 0.65198 0.68017 0.68239 0.0
C42 C 0.6515 0.66592 0.73755 0.0
C43 C 0.63935 0.66782 0.70609 0.0
C44 C 0.6765 0.6768 0.74471 0.0
C45 C 0.68903 0.68926 0.72106 0.0
U46 U 0.68951 0.70216 0.60537 0.0
O47 O 0.69746 0.7381 0.57625 0.0
O48 O 0.72687 0.7065 0.58729 0.0
C49 C 0.72127 0.73046 0.57422 0.0
C50 C 0.6907 0.70402 0.6653 0.0
C51 C 0.74262 0.74964 0.5783 0.0
C52 C 0.75847 0.79284 0.58806 0.0
C53 C 0.73883 0.77398 0.5882 0.0
C54 C 0.78621 0.76309 0.56911 0.0
C55 C 0.78221 0.78779 0.57792 0.0
C56 C 0.76663 0.74431 0.56921 0.0
C57 C 0.65153 0.66454 0.54335 0.0
C58 C 0.66243 0.66772 0.49108 0.0
C59 C 0.6263 0.64078 0.50419 0.0
C60 C 0.63103 0.64772 0.53451 0.0
C61 C 0.64206 0.65054 0.48213 0.0
C62 C 0.66711 0.67465 0.52142 0.0
C63 C 0.65684 0.67094 0.5756 0.0
O64 O 0.70638 0.68897 0.65429 0.0
O65 O 0.67651 0.72007 0.64342 0.0
O66 O 0.65045 0.69473 0.57935 0.0
O67 O 0.67997 0.66339 0.59136 0.0
H68 H 0.64235 0.68115 0.65834 0.0
H69 H 0.62024 0.6594 0.69974 0.0
H70 H 0.68629 0.67598 0.76868 0.0
H71 H 0.70825 0.69752 0.72721 0.0
H72 H 0.75465 0.81171 0.5948 0.0
H73 H 0.72048 0.77874 0.59521 0.0
H74 H 0.80442 0.75834 0.56172 0.0
H75 H 0.77002 0.72576 0.56137 0.0
H76 H 0.67514 0.67537 0.47486 0.0
H77 H 0.61022 0.62784 0.498 0.0
H78 H 0.61875 0.6398 0.55112 0.0
H79 H 0.68308 0.68766 0.52789 0.0
C80 C 0.8208 0.16238 0.1292 0.0
C81 C 0.83523 0.13958 0.12895 0.0
C82 C 0.84879 0.13678 0.18527 0.0
C83 C 0.84903 0.1268 0.15682 0.0
C84 C 0.83416 0.15956 0.18529 0.0
C85 C 0.82028 0.17221 0.15749 0.0
U86 U 0.80801 0.17765 0.04036 0.0
O87 O 0.77091 0.18648 1.00813 0.0
O88 O 0.80195 0.21568 1.0116 0.0
C89 C 0.77734 0.21082 1.00085 0.0
C90 C 0.80684 0.17661 0.10019 0.0
C91 C 0.7584 0.23041 1.00542 0.0
C92 C 0.73372 0.25007 0.03947 0.0
C93 C 0.75095 0.23083 0.03476 0.0
C94 C 0.7312 0.26871 0.98551 0.0
C95 C 0.72372 0.26935 1.01494 0.0
C96 C 0.7484 0.2494 0.98082 0.0
C97 C 0.84805 0.14144 0.99199 0.0
C98 C 0.84092 0.14555 0.93529 0.0
C99 C 0.87932 0.12252 0.96517 0.0
C100 C 0.87123 0.12739 0.99283 0.0
C101 C 0.86436 0.13163 0.93606 0.0
C102 C 0.83287 0.15052 0.96309 0.0
C103 C 0.84047 0.14664 0.02158 0.0
O104 O 0.82125 0.19291 0.08498 0.0
O105 O 0.79112 0.16275 0.08193 0.0
O106 O 0.81657 0.13991 0.02572 0.0
O107 O 0.84725 0.16949 0.0303 0.0
H108 H 0.83599 0.13184 0.1072 0.0
H109 H 0.86032 0.10943 0.15603 0.0
H110 H 0.83331 0.16754 0.20686 0.0
H111 H 0.80926 0.18981 0.15806 0.0
H112 H 0.72812 0.24974 0.06228 0.0
H113 H 0.7586 0.21634 0.05408 0.0
H114 H 0.72417 0.28345 0.96623 0.0
H115 H 0.75414 0.24946 0.9581 0.0
H116 H 0.82907 0.15297 0.91324 0.0
H117 H 0.89722 0.11138 0.96661 0.0
H118 H 0.88315 0.1202 1.01495 0.0
H119 H 0.81495 0.16153 0.96206 0.0
C120 C 0.35478 0.33083 0.37417 0.0
C121 C 0.37058 0.3525 0.3797 0.0
C122 C 0.37911 0.35703 0.32613 0.0
C123 C 0.38259 0.36553 0.35588 0.0
C124 C 0.36336 0.33516 0.32085 0.0
C125 C 0.3513 0.32222 0.34466 0.0
U126 U 0.34506 0.31924 0.45907 0.0
O127 O 0.30926 0.31297 0.47987 0.0
O128 O 0.34018 0.28281 0.48929 0.0
C129 C 0.31643 0.28932 0.49289 0.0
C130 C 0.34189 0.31707 0.39894 0.0
C131 C 0.29633 0.26891 0.49004 0.0
C132 C 0.25477 0.2523 0.46555 0.0
C133 C 0.27475 0.27082 0.46566 0.0
C134 C 0.27814 0.22934 0.51354 0.0
C135 C 0.25601 0.23159 0.48983 0.0
C136 C 0.29801 0.24782 0.51365 0.0
C137 C 0.38485 0.35878 0.5182 0.0
C138 C 0.37643 0.35805 0.57134 0.0
C139 C 0.41409 0.38098 0.55558 0.0
C140 C 0.40717 0.37378 0.52557 0.0
C141 C 0.39875 0.37331 0.57881 0.0
C142 C 0.36959 0.35078 0.54129 0.0
C143 C 0.37767 0.35187 0.48632 0.0
O144 O 0.35723 0.3016 0.4203 0.0
O145 O 0.32605 0.33139 0.41074 0.0
O146 O 0.3537 0.35838 0.47238 0.0
O147 O 0.38464 0.32834 0.48229 0.0
H148 H 0.37361 0.35934 0.40244 0.0
H149 H 0.39484 0.38207 0.36088 0.0
H150 H 0.36 0.32828 0.29816 0.0
H151 H 0.33916 0.30553 0.33997 0.0
H152 H 0.23796 0.25471 0.44702 0.0
H153 H 0.273 0.28692 0.44713 0.0
H154 H 0.28001 0.21339 0.53225 0.0
H155 H 0.3145 0.24593 0.53264 0.0
H156 H 0.36436 0.3516 0.58875 0.0
H157 H 0.43117 0.39303 0.56038 0.0
H158 H 0.41916 0.38014 0.50801 0.0
H159 H 0.35233 0.33904 0.53602 0.0
Tb160 Tb 0.03624 0.98605 0.51651 0.0
C161 C 0.977 0.09234 0.51431 0.0
N162 N 0.99881 0.083 0.53424 0.0
C163 C 0.0184 0.12517 0.52937 0.0
C164 C 0.97523 0.11847 0.5006 0.0
C165 C 0.01922 0.09908 0.54237 0.0
C166 C 0.99636 0.13489 0.50827 0.0
C167 C 0.93375 0.08415 0.48628 0.0
C168 C 0.95658 0.07539 0.50718 0.0
C169 C 0.93187 0.11017 0.4725 0.0
C170 C 0.95257 0.12728 0.47961 0.0
Tb171 Tb 0.99842 0.03985 0.55282 0.0
N172 N 0.95961 0.05005 0.51996 0.0
C173 C 0.91358 0.06644 0.47978 0.0
C174 C 0.93945 0.03306 0.51485 0.0
C175 C 0.91635 0.04087 0.49439 0.0
H176 H 0.03592 0.09195 0.55942 0.0
H177 H 0.90059 0.02719 0.4901 0.0
H178 H 1.00564 0.93094 0.53273 0.0
H179 H 0.13667 0.01583 0.55203 0.0
H180 H 0.94073 0.01362 0.52673 0.0
H181 H 0.89568 0.0724 0.46392 0.0
H182 H 0.09328 0.01873 0.51932 0.0
H183 H 0.0347 0.1378 0.53577 0.0
H184 H 0.91452 0.11724 0.45629 0.0
H185 H 0.95086 0.14729 0.46876 0.0
H186 H 0.01515 0.88959 0.56732 0.0
H187 H 0.99579 0.15511 0.49821 0.0
H188 H 0.14839 0.97781 0.59184 0.0
N189 N 0.04311 0.9469 0.54686 0.0
C190 C 0.06733 0.94293 0.56442 0.0
C191 C 0.02996 0.90449 0.56683 0.0
C192 C 0.07363 0.91966 0.58453 0.0
C193 C 0.02453 0.928 0.54745 0.0
C194 C 0.05457 0.90033 0.58555 0.0
N195 N 0.07836 0.98517 0.54365 0.0
C196 C 0.09705 1.00321 0.53819 0.0
C197 C 0.11056 0.95968 0.58144 0.0
C198 C 0.08538 0.96287 0.56314 0.0
C199 C 0.12882 0.97949 0.57824 0.0
C200 C 0.1222 1.00109 0.55601 0.0
H201 H 0.05864 0.88217 0.60072 0.0
H202 H 0.10364 0.89902 0.6191 0.0
H203 H 0.13607 0.93395 0.61621 0.0
O204 O 0.05814 0.98879 0.47968 0.0
O205 O 0.03301 0.98138 0.56635 0.0
O206 O 0.03492 0.02271 0.58008 0.0
O207 O 0.0356 0.95487 0.48981 0.0
O208 O 0.04681 0.02745 0.50817 0.0
O209 O 0.04042 0.04506 0.55246 0.0
O210 O 0.97404 0.03043 0.5865 0.0
O211 O 0.99721 0.04436 0.50204 0.0
O212 O 1.00069 1.00334 0.48709 0.0
O213 O 0.99597 0.06576 0.58583 0.0
O214 O 0.98457 0.99933 0.55717 0.0
O215 O 0.99431 0.97905 0.5157 0.0
C216 C 0.0407 0.99777 0.58645 0.0
C217 C 0.03952 0.96718 0.43724 0.0
C218 C 0.04719 0.96332 0.38435 0.0
C219 C 0.02027 0.96811 0.37337 0.0
C220 C 1.01274 0.9716 0.42581 0.0
C221 C 1.00323 0.97226 0.394 0.0
C222 C 0.05668 0.96309 0.41648 0.0
C223 C 0.05157 0.0453 0.52745 0.0
C224 C 0.04977 0.96675 0.47071 0.0
C225 C 0.09847 0.91668 0.60332 0.0
C226 C 0.11689 0.93664 0.60179 0.0
C227 C 0.99298 0.02784 0.4813 0.0
C228 C 0.98812 0.04608 0.6347 0.0
C229 C 0.98132 0.05336 0.6869 0.0
C230 C 1.00329 0.03733 0.69963 0.0
C231 C 1.00975 0.03006 0.64797 0.0
C232 C 0.9738 0.05762 0.65422 0.0
C233 C 0.01737 0.02579 0.68023 0.0
C234 C 0.98048 0.98122 0.53811 0.0
C235 C 0.98054 0.05085 0.60057 0.0
H236 H 1.01221 0.96805 0.34892 0.0
H237 H 0.9992 0.97428 0.44153 0.0
H238 H 0.98253 0.9757 0.38536 0.0
H239 H 0.07739 0.95983 0.42541 0.0
H240 H 1.00936 0.03338 0.72466 0.0
H241 H 0.02064 0.02084 0.63335 0.0
H242 H 0.95708 0.0701 0.64398 0.0
H243 H 0.0342 0.01346 0.69021 0.0
Tb244 Tb 0.4896 0.49737 1.00305 0.0
C245 C 0.58303 0.56706 0.03517 0.0
N246 N 0.58002 0.54176 0.0462 0.0
C247 C 0.62248 0.53131 0.03534 0.0
C248 C 0.60552 0.57538 0.02259 0.0
C249 C 0.59964 0.52397 0.04729 0.0
C250 C 0.62532 0.55708 0.0226 0.0
C251 C 0.5658 0.61111 0.02597 0.0
C252 C 0.56339 0.58454 0.03672 0.0
C253 C 0.5877 0.61946 1.0123 0.0
C254 C 0.60757 0.60163 1.0107 0.0
Tb255 Tb 0.54197 0.53157 0.06494 0.0
N256 N 0.5427 0.5757 0.0504 0.0
C257 C 0.54661 0.62858 0.0303 0.0
C258 C 0.52541 0.59308 0.05732 0.0
C259 C 0.52661 0.61958 0.04662 0.0
H260 H 0.59755 0.50407 0.05716 0.0
H261 H 0.5124 0.63311 0.0515 0.0
H262 H 0.43828 0.53918 0.98544 0.0
H263 H 0.49071 0.39437 0.04052 0.0
H264 H 0.51096 0.58678 0.07173 0.0
H265 H 0.5477 0.64916 0.02237 0.0
H266 H 0.50736 0.4357 0.01644 0.0
H267 H 0.63783 0.51709 0.03587 0.0
H268 H 0.58977 0.63975 1.00362 0.0
H269 H 0.6246 0.60841 1.00068 0.0
H270 H 0.39517 0.54311 1.00148 0.0
H271 H 0.64295 0.56269 1.01317 0.0
H272 H 0.44888 0.39421 0.06127 0.0
N273 N 0.44768 0.5025 1.0128 0.0
C274 C 0.43768 0.48146 0.02842 0.0
C275 C 0.40714 0.52582 1.00977 0.0
C276 C 0.41255 0.48225 0.03689 0.0
C277 C 0.43198 0.5238 1.00141 0.0
C278 C 0.3976 0.50516 0.02821 0.0
N279 N 0.47563 0.45842 0.02438 0.0
C280 C 0.48912 0.43566 0.02547 0.0
C281 C 0.44165 0.4355 0.04777 0.0
C282 C 0.45188 0.45842 0.03374 0.0
C283 C 0.45606 0.41229 0.05066 0.0
C284 C 0.47971 0.4123 0.039 0.0
H285 H 0.37821 0.50662 0.03428 0.0
H286 H 0.38365 0.46016 0.05956 0.0
H287 H 0.40922 0.41919 0.06917 0.0
O288 O 0.50146 0.48093 0.96582 0.0
O289 O 0.49931 0.48062 0.05238 0.0
O290 O 0.50547 0.51621 0.07872 0.0
O291 O 0.46143 0.49215 0.96371 0.0
O292 O 0.5301 0.48237 1.01154 0.0
O293 O 0.54997 0.49037 0.06148 0.0
O294 O 0.554 0.55176 0.10371 0.0
O295 O 0.54864 0.52904 0.01695 0.0
O296 O 0.50791 0.53375 0.98694 0.0
O297 O 0.56276 0.51111 0.10614 0.0
O298 O 0.50051 0.5442 0.05722 0.0
O299 O 0.48419 0.53914 1.00582 0.0
C300 C 0.49715 0.49239 0.07673 0.0
C301 C 0.47768 0.4958 0.91633 0.0
C302 C 0.46919 0.49295 0.86022 0.0
C303 C 0.4764 0.5192 0.85488 0.0
C304 C 0.48427 0.52202 0.91036 0.0
C305 C 0.48385 0.53358 0.87981 0.0
C306 C 0.47013 0.4813 0.89125 0.0
C307 C 0.54772 0.47709 0.03715 0.0
C308 C 0.47842 0.4835 0.94858 0.0
C309 C 0.40277 0.45985 0.0525 0.0
C310 C 0.41728 0.43649 0.05788 0.0
C311 C 0.53323 0.53818 0.99106 0.0
C312 C 0.59161 0.53612 0.13896 0.0
C313 C 0.6173 0.55256 0.18462 0.0
C314 C 0.6404 0.54501 0.17478 0.0
C315 C 0.61489 0.52835 0.12998 0.0
C316 C 0.59292 0.54816 0.16629 0.0
C317 C 0.63913 0.53298 0.1477 0.0
C318 C 0.48448 0.55111 0.0308 0.0
C319 C 0.56565 0.53163 0.12076 0.0
H320 H 0.47644 0.52862 0.8314 0.0
H321 H 0.48962 0.53355 0.92931 0.0
H322 H 0.48924 0.55378 0.87542 0.0
H323 H 0.46455 0.46115 0.89592 0.0
H324 H 0.6595 0.54849 0.18793 0.0
H325 H 0.61441 0.51854 0.10953 0.0
H326 H 0.57486 0.55357 0.17358 0.0
H327 H 0.65704 0.5271 0.1405 0.0
H328 H 0.2351 0.21193 0.54116 0.0
H329 H 0.19948 0.18089 0.54403 0.0
H330 H 0.19043 0.17869 0.44471 0.0
H331 H 0.2267 0.20926 0.44172 0.0
H332 H 0.1472 0.18589 0.5137 0.0
H333 H 0.19717 0.10139 0.48041 0.0
H334 H 0.2147 0.12983 0.49211 0.0
H335 H 0.19593 0.13071 0.4536 0.0
C336 C 0.22582 0.2046 0.51994 0.0
C337 C 0.234 0.2129 0.49124 0.0
C338 C 0.2053 0.187 0.52161 0.0
C339 C 0.19251 0.1772 0.49468 0.0
C340 C 0.20031 0.18567 0.46588 0.0
H341 H 0.06683 0.06322 0.47189 0.0
H342 H 0.09998 0.09612 0.4625 0.0
C343 C 0.22087 0.20334 0.46417 0.0
C344 C 0.17084 0.15838 0.49696 0.0
H345 H 0.15323 0.09561 0.48815 0.0
C346 C 0.14849 0.16616 0.50806 0.0
C347 C 0.17252 0.13268 0.4895 0.0
C348 C 0.19643 0.12297 0.47847 0.0
C349 C 0.12778 0.14894 0.51192 0.0
C350 C 0.1297 0.12309 0.50506 0.0
C351 C 0.15182 0.11544 0.49342 0.0
C352 C 0.10932 0.10348 0.51067 0.0
C353 C 0.10392 0.15865 0.52305 0.0
C354 C 0.10383 0.09644 0.54092 0.0
C355 C 0.08496 0.07767 0.54633 0.0
C356 C 0.07124 0.06552 0.52161 0.0
C357 C 0.077 0.07235 0.49139 0.0
C358 C 0.0959 0.09113 0.48598 0.0
H359 H 0.10218 0.18022 0.51879 0.0
H360 H 0.08567 0.15019 0.5113 0.0
H361 H 0.1056 0.15278 0.54854 0.0
H362 H 0.11441 0.10522 0.56045 0.0
H363 H 0.0814 0.0724 0.56999 0.0
H364 H 0.33002 0.73634 0.06626 0.0
H365 H 0.36008 0.69931 0.07001 0.0
H366 H 0.35679 0.71081 0.97025 0.0
H367 H 0.32641 0.74741 0.96613 0.0
H368 H 0.35143 0.65286 0.03875 0.0
H369 H 0.43643 0.71013 1.00642 0.0
H370 H 0.40915 0.72472 0.01934 0.0
H371 H 0.406 0.71672 0.98011 0.0
C372 C 0.33554 0.7309 0.04509 0.0
C373 C 0.32592 0.74501 1.01591 0.0
C374 C 0.35281 0.70982 0.04731 0.0
C375 C 0.36092 0.70261 0.02046 0.0
C376 C 0.35117 0.71642 0.99131 0.0
H377 H 0.46371 0.58455 0.97978 0.0
H378 H 0.43287 0.6207 0.97762 0.0
C379 C 0.33387 0.7374 0.98904 0.0
C380 C 0.37922 0.68035 0.02273 0.0
H381 H 0.44004 0.66424 1.0096 0.0
C382 C 0.37087 0.65531 0.03258 0.0
C383 C 0.40449 0.68367 1.0145 0.0
C384 C 0.41473 0.71026 1.00473 0.0
C385 C 0.38696 0.63335 0.03378 0.0
C386 C 0.41224 0.63668 0.02553 0.0
C387 C 0.42062 0.66176 1.01584 0.0
C388 C 0.43038 0.61441 0.02684 0.0
C389 C 0.3765 0.60675 0.04306 0.0
C390 C 0.43933 0.59905 0.05525 0.0
C391 C 0.45679 0.57835 0.05649 0.0
C392 C 0.46577 0.5728 0.02937 0.0
C393 C 0.45691 0.58828 1.00097 0.0
C394 C 0.43942 0.60896 0.99974 0.0
H395 H 0.35475 0.60693 0.0406 0.0
H396 H 0.38248 0.59227 0.02872 0.0
H397 H 0.3846 0.60027 0.06788 0.0
H398 H 0.43302 0.60323 0.07655 0.0
H399 H 0.4633 0.5667 0.07869 0.0
H400 H 0.81082 0.79908 0.53078 0.0
H401 H 0.8439 0.83263 0.52597 0.0
H402 H 0.83145 0.85777 0.6128 0.0
H403 H 0.79875 0.82364 0.61832 0.0
H404 H 0.83785 0.88666 0.52309 0.0
H405 H 0.91146 0.84743 0.62525 0.0
H406 H 0.88451 0.8283 0.60875 0.0
H407 H 0.87901 0.85231 0.63341 0.0
C408 C 0.81536 0.81145 0.54915 0.0
C409 C 0.80229 0.80843 0.57514 0.0
C410 C 0.83414 0.83078 0.5462 0.0
C411 C 0.84041 0.84749 0.5692 0.0
C412 C 0.82724 0.8448 0.59503 0.0
H413 H 0.95328 0.97321 0.58706 0.0
H414 H 0.91856 0.94179 0.59426 0.0
C415 C 0.80837 0.82545 0.59799 0.0
C416 C 0.86042 0.86794 0.56566 0.0
H417 H 0.92077 0.88794 0.59837 0.0
C418 C 0.85599 0.88695 0.53954 0.0
C419 C 0.88403 0.86833 0.5872 0.0
C420 C 0.89026 0.84791 0.61512 0.0
C421 C 0.87446 0.90641 0.53443 0.0
C422 C 0.89825 0.90657 0.55571 0.0
C423 C 0.90254 0.88777 0.58205 0.0
C424 C 0.91908 0.92591 0.5509 0.0
C425 C 0.86814 0.92687 0.50655 0.0
C426 C 0.93111 0.92729 0.52423 0.0
C427 C 0.95093 0.94532 0.51995 0.0
C428 C 0.95932 0.96217 0.54243 0.0
C429 C 0.94729 0.96062 0.5692 0.0
C430 C 0.92746 0.94261 0.57343 0.0
H431 H 0.8467 0.92836 0.49775 0.0
H432 H 0.8753 0.94625 0.51234 0.0
H433 H 0.87794 0.92157 0.48742 0.0
H434 H 0.92533 0.91426 0.50682 0.0
H435 H 0.95969 0.94598 0.49904 0.0
H436 H 0.6801 0.29014 0.9756 0.0
H437 H 0.6513 0.32501 0.98374 0.0
H438 H 0.69712 0.32977 0.07455 0.0
H439 H 0.72665 0.29563 0.06614 0.0
H440 H 0.62085 0.32658 0.03023 0.0
H441 H 0.69488 0.40519 0.03428 0.0
H442 H 0.70036 0.37463 0.02033 0.0
H443 H 0.70386 0.37661 0.0615 0.0
C444 C 0.68428 0.29883 0.99715 0.0
C445 C 0.70581 0.29018 0.02012 0.0
C446 C 0.66768 0.31862 1.00186 0.0
C447 C 0.67229 0.33024 0.02956 0.0
C448 C 0.69348 0.32141 0.05276 0.0
H449 H 0.5864 0.45761 0.08529 0.0
H450 H 0.61658 0.42114 0.08615 0.0
C451 C 0.71015 0.30166 0.04805 0.0
C452 C 0.65463 0.35136 0.03415 0.0
H453 H 0.6528 0.41576 0.04393 0.0
C454 C 0.62785 0.34606 0.03329 0.0
C455 C 0.66384 0.37674 0.03834 0.0
C456 C 0.69225 0.3838 0.03843 0.0
C457 C 0.60996 0.3655 0.03622 0.0
C458 C 0.61907 0.39099 0.03966 0.0
C459 C 0.64593 0.39617 0.04134 0.0
C460 C 0.60075 0.41287 0.03951 0.0
C461 C 0.58145 0.35862 0.0356 0.0
C462 C 0.58218 0.42049 1.01284 0.0
C463 C 0.56505 0.4413 1.01217 0.0
C464 C 0.56614 0.45504 0.03818 0.0
C465 C 0.58495 0.44747 0.06486 0.0
C466 C 0.60221 0.42664 0.06543 0.0
H467 H 0.57892 0.33736 0.04155 0.0
H468 H 0.57266 0.36909 0.05214 0.0
H469 H 0.57045 0.36438 1.01178 0.0
H470 H 0.58109 0.41045 0.99236 0.0
H471 H 0.55101 0.44661 0.99111 0.0
H472 H 0.20284 0.86885 0.22399 0.0
H473 H 0.17891 0.88455 0.26193 0.0
H474 H 0.13238 0.93543 0.1883 0.0
H475 H 0.15514 0.91887 0.14998 0.0
H476 H 0.17343 0.93289 0.2787 0.0
H477 H 0.07625 0.89658 0.22853 0.0
H478 H 0.10632 0.88709 0.21685 0.0
H479 H 0.09095 0.91797 0.201 0.0
C480 C 0.18728 0.88313 0.21575 0.0
C481 C 0.18078 0.89235 0.18379 0.0
C482 C 0.17378 0.89226 0.23754 0.0
C483 C 0.15351 0.9108 0.2279 0.0
C484 C 0.14753 0.92068 0.19621 0.0
H485 H 0.04752 0.98674 0.32471 0.0
H486 H 0.07459 0.97523 0.28739 0.0
C487 C 0.16086 0.91142 0.17435 0.0
C488 C 0.13858 0.91969 0.25099 0.0
H489 H 0.0768 0.9238 0.26846 0.0
C490 C 0.15232 0.93083 0.27653 0.0
C491 C 0.11102 0.9169 0.24819 0.0
C492 C 0.09528 0.90376 0.22235 0.0
C493 C 0.13918 0.93959 0.29906 0.0
C494 C 0.11165 0.93697 0.29605 0.0
C495 C 0.09791 0.92592 0.27054 0.0
C496 C 0.09665 0.94506 0.31943 0.0
C497 C 0.15474 0.9519 0.3257 0.0
C498 C 0.10013 0.9319 0.34981 0.0
C499 C 0.08451 0.93822 0.37111 0.0
C500 C 0.06504 0.95781 0.3624 0.0
C501 C 0.06203 0.9713 0.33208 0.0
C502 C 0.07758 0.96487 0.31077 0.0
H503 H 0.17462 0.95765 0.32102 0.0
H504 H 0.14432 0.96934 0.33025 0.0
H505 H 0.15707 0.93773 0.34716 0.0
H506 H 0.11443 0.91621 0.35676 0.0
H507 H 0.08709 0.92714 0.39406 0.0
H508 H 0.67328 0.6323 0.78834 0.0
H509 H 0.65185 0.61124 0.83049 0.0
H510 H 0.57854 0.64864 0.78666 0.0
H511 H 0.59984 0.66966 0.74429 0.0
H512 H 0.62754 0.63324 0.87201 0.0
H513 H 0.55655 0.5735 0.80204 0.0
H514 H 0.58383 0.5894 0.78692 0.0
H515 H 0.55462 0.60763 0.78819 0.0
C516 C 0.6526 0.63609 0.78766 0.0
C517 C 0.63827 0.65264 0.76286 0.0
C518 C 0.64035 0.62395 0.81174 0.0
C519 C 0.61348 0.62803 0.81157 0.0
C520 C 0.59913 0.64465 0.78694 0.0
H521 H 0.50995 0.57519 0.94516 0.0
H522 H 0.5291 0.59773 0.90166 0.0
C523 C 0.61135 0.65671 0.76274 0.0
C524 C 0.60081 0.61548 0.83769 0.0
H525 H 0.55163 0.57435 0.85486 0.0
C526 C 0.611 0.62029 0.86824 0.0
C527 C 0.57915 0.59864 0.8328 0.0
C528 C 0.56801 0.59175 0.80077 0.0
C529 C 0.60006 0.6089 0.89394 0.0
C530 C 0.57852 0.592 0.88903 0.0
C531 C 0.56812 0.58737 0.85852 0.0
C532 C 0.56695 0.57846 0.91539 0.0
C533 C 0.61131 0.61532 0.92614 0.0
C534 C 0.58176 0.55991 0.93723 0.0
C535 C 0.57076 0.5468 0.96178 0.0
C536 C 0.5448 0.55209 0.96505 0.0
C537 C 0.52996 0.57061 0.9431 0.0
C538 C 0.5409 0.58357 0.91836 0.0
H539 H 0.62388 0.63282 0.92529 0.0
H540 H 0.59536 0.61869 0.93944 0.0
H541 H 0.62349 0.59868 0.93907 0.0
H542 H 0.60173 0.5553 0.93506 0.0
H543 H 0.58245 0.53222 0.97791 0.0
H544 H 0.87949 0.15961 0.2312 0.0
H545 H 0.90347 0.13853 0.28063 0.0
H546 H 0.87623 0.06365 0.25596 0.0
H547 H 0.85227 0.08465 0.20625 0.0
H548 H 0.88341 0.10918 0.32775 0.0
H549 H 0.95486 0.05084 0.28194 0.0
H550 H 0.9354 0.07687 0.25797 0.0
H551 H 0.92106 0.04561 0.26654 0.0
C552 C 0.87858 0.13865 0.23629 0.0
C553 C 0.86396 0.12378 0.21484 0.0
C554 C 0.89237 0.12663 0.26449 0.0
C555 C 0.89189 0.09951 0.27183 0.0
C556 C 0.87735 0.08456 0.25048 0.0
H557 H 0.96163 0.99993 0.44082 0.0
H558 H 0.93643 0.01633 0.38974 0.0
C559 C 0.86363 0.09657 0.22213 0.0
C560 C 0.90589 0.08716 0.30236 0.0
H561 H 0.955 0.0441 0.33645 0.0
C562 C 0.89907 0.09496 0.32964 0.0
C563 C 0.92622 0.06851 0.30477 0.0
C564 C 0.93504 0.06008 0.27628 0.0
C565 C 0.91209 0.08469 0.35927 0.0
C566 C 0.93267 0.06639 0.36164 0.0
C567 C 0.93918 0.05816 0.33446 0.0
C568 C 0.9483 0.0563 0.39214 0.0
C569 C 0.90361 0.09338 0.38783 0.0
C570 C 0.9636 0.0733 0.41008 0.0
C571 C 0.97829 0.06393 0.43892 0.0
C572 C 0.97801 0.03737 0.45032 0.0
C573 C 0.96277 0.02035 0.43226 0.0
C574 C 0.94817 0.02973 0.40326 0.0
H575 H 0.88357 0.10213 0.38247 0.0
H576 H 0.90396 0.0768 0.40655 0.0
H577 H 0.91739 0.10829 0.39686 0.0
H578 H 0.96426 0.09382 0.40168 0.0
H579 H 0.98996 0.0775 0.45224 0.0
H580 H 0.36573 0.39096 0.61496 0.0
H581 H 0.37768 0.408 0.66511 0.0
H582 H 0.45933 0.39221 0.6642 0.0
H583 H 0.44758 0.37501 0.61416 0.0
H584 H 0.40612 0.38578 0.72392 0.0
H585 H 0.45668 0.47084 0.67103 0.0
H586 H 0.43511 0.45041 0.64788 0.0
H587 H 0.46804 0.43971 0.66413 0.0
C588 C 0.3862 0.39076 0.62563 0.0
C589 C 0.40573 0.38187 0.61037 0.0
C590 C 0.393 0.40058 0.65425 0.0
C591 C 0.41942 0.40176 0.66811 0.0
C592 C 0.43887 0.39197 0.65358 0.0
H593 H 0.48152 0.44242 0.85436 0.0
H594 H 0.46875 0.41894 0.80895 0.0
C595 C 0.43211 0.38219 0.62496 0.0
C596 C 0.4267 0.41418 0.69709 0.0
H597 H 0.45951 0.46587 0.72585 0.0
C598 C 0.41783 0.40327 0.72442 0.0
C599 C 0.4417 0.43716 0.69753 0.0
C600 C 0.45078 0.45042 0.66855 0.0
C601 C 0.42377 0.41466 0.75229 0.0
C602 C 0.43915 0.43739 0.75282 0.0
C603 C 0.44787 0.44833 0.72543 0.0
C604 C 0.44573 0.4508 0.78115 0.0
C605 C 0.41306 0.40265 0.78074 0.0
C606 C 0.43719 0.47652 0.78053 0.0
C607 C 0.44443 0.48996 0.80637 0.0
C608 C 0.46057 0.47803 0.83338 0.0
C609 C 0.46882 0.45209 0.8341 0.0
C610 C 0.46153 0.43863 0.80817 0.0
H611 H 0.39697 0.38885 0.7747 0.0
H612 H 0.42904 0.39177 0.79722 0.0
H613 H 0.4056 0.41792 0.7929 0.0
H614 H 0.42496 0.48628 0.75993 0.0
H615 H 0.43735 0.50974 0.80516 0.0
H616 H 0.64436 0.68051 0.42635 0.0
H617 H 0.63801 0.66662 0.37415 0.0
H618 H 0.6235 0.58838 0.4133 0.0
H619 H 0.63005 0.60198 0.4655 0.0
H620 H 0.666 0.62923 0.35236 0.0
H621 H 0.56094 0.6031 0.34278 0.0
H622 H 0.57699 0.6224 0.37192 0.0
H623 H 0.5809 0.58758 0.37753 0.0
C624 C 0.63988 0.66033 0.42388 0.0
C625 C 0.63761 0.6424 0.45018 0.0
C626 C 0.63612 0.65246 0.394 0.0
C627 C 0.62985 0.62656 0.38975 0.0
C628 C 0.62767 0.60861 0.41591 0.0
H629 H 0.65014 0.53917 0.24008 0.0
H630 H 0.65286 0.55891 0.28838 0.0
C631 C 0.63143 0.61644 0.44577 0.0
C632 C 0.6267 0.61799 0.35817 0.0
H633 H 0.58423 0.58834 0.3052 0.0
C634 C 0.64805 0.62048 0.34194 0.0
C635 C 0.60315 0.60692 0.34437 0.0
C636 C 0.57909 0.60505 0.35988 0.0
C637 C 0.64679 0.61136 0.3128 0.0
C638 C 0.6237 0.59911 0.29973 0.0
C639 C 0.60203 0.59746 0.31542 0.0
C640 C 0.62196 0.5873 0.27021 0.0
C641 C 0.67019 0.61497 0.2962 0.0
C642 C 0.60325 0.59631 0.24411 0.0
C643 C 0.60169 0.5851 0.21631 0.0
C644 C 0.6187 0.56453 0.21416 0.0
C645 C 0.63713 0.55534 0.2406 0.0
C646 C 0.6387 0.56658 0.2683 0.0
H647 H 0.68316 0.63067 0.30485 0.0
H648 H 0.68187 0.59662 0.30042 0.0
H649 H 0.6639 0.61973 0.27063 0.0
H650 H 0.59006 0.61221 0.24513 0.0
H651 H 0.58742 0.59283 0.19638 0.0
H652 H 0.83517 0.11617 0.8832 0.0
H653 H 0.85128 0.10456 0.83686 0.0
H654 H 0.92996 0.12393 0.87666 0.0
H655 H 0.91411 0.13569 0.92274 0.0
H656 H 0.88145 0.13384 0.79373 0.0
H657 H 0.93489 0.04694 0.86063 0.0
H658 H 0.90973 0.06365 0.87507 0.0
H659 H 0.94237 0.0765 0.87774 0.0
C660 C 0.85584 0.11827 0.88186 0.0
C661 C 0.87343 0.1265 0.90683 0.0
C662 C 0.865 0.11157 0.85544 0.0
C663 C 0.89186 0.11296 0.85365 0.0
C664 C 0.90924 0.12222 0.87791 0.0
H665 H 1.00103 0.07697 0.73803 0.0
H666 H 0.97696 0.09237 0.776 0.0
C667 C 0.90015 0.12887 0.90425 0.0
C668 C 0.90214 0.10394 0.82707 0.0
H669 H 0.94497 0.06014 0.81001 0.0
C670 C 0.89513 0.11757 0.79711 0.0
C671 C 0.91981 0.08259 0.8316 0.0
C672 C 0.92699 0.06638 0.86293 0.0
C673 C 0.90635 0.11112 0.7718 0.0
C674 C 0.92474 0.09033 0.77666 0.0
C675 C 0.93104 0.07622 0.80642 0.0
C676 C 0.93863 0.08332 0.75172 0.0
C677 C 0.89923 0.12712 0.74038 0.0
C678 C 0.92502 0.07341 0.72524 0.0
C679 C 0.93878 0.06452 0.70346 0.0
C680 C 0.96638 0.06519 0.70802 0.0
C681 C 0.97982 0.07586 0.7341 0.0
C682 C 0.96609 0.08476 0.75574 0.0
H683 H 0.88893 0.14554 0.74198 0.0
H684 H 0.91704 0.13186 0.72975 0.0
H685 H 0.88602 0.11572 0.72455 0.0
H686 H 0.90386 0.07171 0.72198 0.0
H687 H 0.92792 0.05616 0.68376 0.0
H688 H 0.38363 0.4097 0.3111 0.0
H689 H 0.40369 0.43247 0.26868 0.0
H690 H 0.42325 0.35885 0.24117 0.0
H691 H 0.40328 0.33593 0.28352 0.0
H692 H 0.45462 0.43039 0.25705 0.0
H693 H 0.38509 0.39692 0.15947 0.0
H694 H 0.37865 0.39339 0.19906 0.0
H695 H 0.40043 0.37096 0.18735 0.0
C696 C 0.39233 0.39833 0.29614 0.0
C697 C 0.39168 0.37096 0.30063 0.0
C698 C 0.40368 0.41139 0.2718 0.0
C699 C 0.41454 0.39739 0.25137 0.0
C700 C 0.41438 0.37009 0.25612 0.0
H701 H 0.49595 0.44 0.09419 0.0
H702 H 0.47568 0.41717 0.13646 0.0
C703 C 0.40297 0.35701 0.28038 0.0
C704 C 0.42649 0.41138 0.22548 0.0
H705 H 0.42272 0.41939 0.14617 0.0
C706 C 0.44756 0.42809 0.2328 0.0
C707 C 0.41728 0.40835 0.19382 0.0
C708 C 0.39396 0.39163 0.18434 0.0
C709 C 0.45996 0.44147 0.2094 0.0
C710 C 0.45079 0.43837 0.17779 0.0
C711 C 0.42974 0.42168 0.17044 0.0
C712 C 0.46279 0.45229 0.15198 0.0
C713 C 0.48315 0.45839 0.21875 0.0
C714 C 0.46198 0.47958 0.1464 0.0
C715 C 0.4733 0.49262 0.12205 0.0
C716 C 0.48545 0.47858 0.10267 0.0
C717 C 0.48625 0.45128 0.10832 0.0
C718 C 0.47484 0.43824 0.13259 0.0
H719 H 0.49168 0.45373 0.24382 0.0
H720 H 0.49872 0.45615 0.20453 0.0
H721 H 0.47669 0.47909 0.21476 0.0
H722 H 0.45238 0.4908 0.16073 0.0
H723 H 0.47224 0.51368 0.11813 0.0
H724 H 0.14132 0.88514 0.85932 0.0
H725 H 0.12283 0.89765 0.80435 0.0
H726 H 0.14538 0.97714 0.8129 0.0
H727 H 0.16426 0.96475 0.86783 0.0
H728 H 0.08204 0.93647 0.78222 0.0
H729 H 0.1735 0.95975 0.73362 0.0
H730 H 0.17341 0.93993 0.77056 0.0
H731 H 0.17002 0.97466 0.76776 0.0
C732 C 0.1427 0.90521 0.84938 0.0
C733 C 0.15431 0.92396 0.86788 0.0
C734 C 0.13203 0.91233 0.81804 0.0
C735 C 0.13302 0.93823 0.80454 0.0
C736 C 0.14476 0.95697 0.82281 0.0
H737 H 0.0749 0.02454 0.62492 0.0
H738 H 0.09746 1.00909 0.67758 0.0
C739 C 0.15531 0.94991 0.85422 0.0
C740 C 0.12052 0.9459 0.77178 0.0
H741 H 0.13327 0.97062 0.69993 0.0
C742 C 0.0932 0.9438 0.76414 0.0
C743 C 0.1352 0.95553 0.7484 0.0
C744 C 0.16469 0.95746 0.75529 0.0
C745 C 0.08001 0.95169 0.7338 0.0
C746 C 0.09468 0.96131 0.71029 0.0
C747 C 0.12207 0.96322 0.71795 0.0
C748 C 0.08189 0.97012 0.67784 0.0
C749 C 0.05043 0.9503 0.72756 0.0
C750 C 0.06608 0.95321 0.66025 0.0
C751 C 0.05282 0.96214 0.63042 0.0
C752 C 0.05563 0.98796 0.61737 0.0
C753 C 0.07225 1.00458 0.63452 0.0
C754 C 0.08523 0.99575 0.66451 0.0
H755 H 0.04199 0.95 0.74936 0.0
H756 H 0.04169 0.967 0.71084 0.0
H757 H 0.04457 0.9321 0.71738 0.0
H758 H 0.06371 0.93318 0.66974 0.0
H759 H 0.03994 0.94898 0.61786 0.0
loop_
_geom_bond_atom_site_label_1
_geom_bond_atom_site_label_2
_geom_bond_distance
_geom_bond_site_symmetry_2
_ccdc_geom_bond_type
C0 C1 1.264 . S
C0 C5 1.479 . S
C0 C10 1.465 . S
C1 C0 1.264 . S
C1 C3 1.339 . S
C1 H28 0.931 . S
C2 C3 1.395 . S
C2 C4 1.320 . S
C3 C1 1.339 . S
C3 C2 1.395 . S
C3 H29 0.929 . S
C4 C2 1.320 . S
C4 C5 1.405 . S
C4 H30 0.930 . S
C5 C0 1.479 . S
C5 C4 1.405 . S
C5 H31 0.931 . S
U6 O7 2.454 . S
U6 O8 2.458 . S
U6 C9 2.984 . S
U6 C10 2.847 . S
U6 C23 2.882 1_554 S
U6 O24 2.441 . S
U6 O25 2.420 . S
U6 O26 2.455 1_554 S
U6 O27 2.449 1_554 S
O7 U6 2.454 . S
O7 C9 1.353 . S
O8 U6 2.458 . S
O8 C9 1.286 . S
C9 U6 2.984 . S
C9 O7 1.353 . S
C9 O8 1.286 . S
C9 C11 1.363 . S
C10 C0 1.465 . S
C10 U6 2.847 . S
C10 O24 1.249 . S
C10 O25 1.202 . S
C11 C9 1.363 . S
C11 C13 1.408 . S
C11 C16 1.342 . S
C12 C13 1.310 . S
C12 C15 1.461 . S
C12 H32 0.932 . S
C13 C11 1.408 . S
C13 C12 1.310 . S
C13 H33 0.930 . S
C14 C15 1.474 . S
C14 C16 1.285 . S
C14 H34 0.929 1_554 S
C15 C12 1.461 . S
C15 C14 1.474 . S
C16 C11 1.342 . S
C16 C14 1.285 . S
C16 H35 0.930 1_554 S
C17 C20 1.424 . S
C17 C22 1.245 . S
C17 C23 1.428 . S
C18 C21 1.260 . S
C18 C22 1.477 . S
C18 H36 0.932 . S
C19 C20 1.384 . S
C19 C21 1.479 . S
C19 H37 0.929 . S
C20 C17 1.424 . S
C20 C19 1.384 . S
C20 H38 0.928 . S
C21 C18 1.260 . S
C21 C19 1.479 . S
C22 C17 1.245 . S
C22 C18 1.477 . S
C22 H39 0.932 . S
C23 U6 2.882 1_556 S
C23 C17 1.428 . S
C23 O26 1.301 . S
C23 O27 1.282 . S
O24 U6 2.441 . S
O24 C10 1.249 . S
O25 U6 2.420 . S
O25 C10 1.202 . S
O26 U6 2.455 1_556 S
O26 C23 1.301 . S
O27 U6 2.449 1_556 S
O27 C23 1.282 . S
H28 C1 0.931 . S
H29 C3 0.929 . S
H30 C4 0.930 . S
H31 C5 0.931 . S
H32 C12 0.932 . S
H33 C13 0.930 . S
H34 C14 0.929 1_556 S
H35 C16 0.930 1_556 S
H36 C18 0.932 . S
H37 C19 0.929 . S
H38 C20 0.928 . S
H39 C22 0.932 . S
C40 C41 1.264 . S
C40 C45 1.479 . S
C40 C50 1.465 . S
C41 C40 1.264 . S
C41 C43 1.339 . S
C41 H68 0.931 . S
C42 C43 1.395 . S
C42 C44 1.320 . S
C43 C41 1.339 . S
C43 C42 1.395 . S
C43 H69 0.929 . S
C44 C42 1.320 . S
C44 C45 1.405 . S
C44 H70 0.930 . S
C45 C40 1.479 . S
C45 C44 1.405 . S
C45 H71 0.931 . S
U46 O47 2.454 . S
U46 O48 2.458 . S
U46 C49 2.984 . S
U46 C50 2.847 . S
U46 C63 2.882 . S
U46 O64 2.441 . S
U46 O65 2.420 . S
U46 O66 2.455 . S
U46 O67 2.449 . S
O47 U46 2.454 . S
O47 C49 1.353 . S
O48 U46 2.458 . S
O48 C49 1.286 . S
C49 U46 2.984 . S
C49 O47 1.353 . S
C49 O48 1.286 . S
C49 C51 1.363 . S
C50 C40 1.465 . S
C50 U46 2.847 . S
C50 O64 1.249 . S
C50 O65 1.202 . S
C51 C49 1.363 . S
C51 C53 1.408 . S
C51 C56 1.342 . S
C52 C53 1.310 . S
C52 C55 1.461 . S
C52 H72 0.932 . S
C53 C51 1.408 . S
C53 C52 1.310 . S
C53 H73 0.930 . S
C54 C55 1.474 . S
C54 C56 1.285 . S
C54 H74 0.929 . S
C55 C52 1.461 . S
C55 C54 1.474 . S
C56 C51 1.342 . S
C56 C54 1.285 . S
C56 H75 0.930 . S
C57 C60 1.424 . S
C57 C62 1.245 . S
C57 C63 1.428 . S
C58 C61 1.260 . S
C58 C62 1.477 . S
C58 H76 0.932 . S
C59 C60 1.384 . S
C59 C61 1.479 . S
C59 H77 0.929 . S
C60 C57 1.424 . S
C60 C59 1.384 . S
C60 H78 0.928 . S
C61 C58 1.260 . S
C61 C59 1.479 . S
C62 C57 1.245 . S
C62 C58 1.477 . S
C62 H79 0.932 . S
C63 U46 2.882 . S
C63 C57 1.428 . S
C63 O66 1.301 . S
C63 O67 1.282 . S
O64 U46 2.441 . S
O64 C50 1.249 . S
O65 U46 2.420 . S
O65 C50 1.202 . S
O66 U46 2.455 . S
O66 C63 1.301 . S
O67 U46 2.449 . S
O67 C63 1.282 . S
H68 C41 0.931 . S
H69 C43 0.929 . S
H70 C44 0.930 . S
H71 C45 0.931 . S
H72 C52 0.932 . S
H73 C53 0.930 . S
H74 C54 0.929 . S
H75 C56 0.930 . S
H76 C58 0.932 . S
H77 C59 0.929 . S
H78 C60 0.928 . S
H79 C62 0.932 . S
C80 C81 1.264 . S
C80 C85 1.479 . S
C80 C90 1.465 . S
C81 C80 1.264 . S
C81 C83 1.339 . S
C81 H108 0.931 . S
C82 C83 1.395 . S
C82 C84 1.320 . S
C83 C81 1.339 . S
C83 C82 1.395 . S
C83 H109 0.929 . S
C84 C82 1.320 . S
C84 C85 1.405 . S
C84 H110 0.930 . S
C85 C80 1.479 . S
C85 C84 1.405 . S
C85 H111 0.931 . S
U86 O87 2.454 . S
U86 O88 2.458 1_554 S
U86 C89 2.984 . S
U86 C90 2.847 . S
U86 C103 2.882 1_554 S
U86 O104 2.441 . S
U86 O105 2.420 . S
U86 O106 2.455 1_554 S
U86 O107 2.449 1_554 S
O87 U86 2.454 . S
O87 C89 1.353 . S
O88 U86 2.458 1_556 S
O88 C89 1.286 1_556 S
C89 U86 2.984 . S
C89 O87 1.353 . S
C89 O88 1.286 1_554 S
C89 C91 1.363 . S
C90 C80 1.465 . S
C90 U86 2.847 . S
C90 O104 1.249 . S
C90 O105 1.202 . S
C91 C89 1.363 . S
C91 C93 1.408 . S
C91 C96 1.342 1_554 S
C92 C93 1.310 . S
C92 C95 1.461 1_554 S
C92 H112 0.932 . S
C93 C91 1.408 . S
C93 C92 1.310 . S
C93 H113 0.930 . S
C94 C95 1.474 . S
C94 C96 1.285 . S
C94 H114 0.929 . S
C95 C92 1.461 1_556 S
C95 C94 1.474 . S
C96 C91 1.342 1_556 S
C96 C94 1.285 . S
C96 H115 0.930 . S
C97 C100 1.424 . S
C97 C102 1.245 . S
C97 C103 1.428 . S
C98 C101 1.260 . S
C98 C102 1.477 . S
C98 H116 0.932 . S
C99 C100 1.384 . S
C99 C101 1.479 . S
C99 H117 0.929 . S
C100 C97 1.424 . S
C100 C99 1.384 . S
C100 H118 0.928 . S
C101 C98 1.260 . S
C101 C99 1.479 . S
C102 C97 1.245 . S
C102 C98 1.477 . S
C102 H119 0.932 . S
C103 U86 2.882 1_556 S
C103 C97 1.428 . S
C103 O106 1.301 . S
C103 O107 1.282 . S
O104 U86 2.441 . S
O104 C90 1.249 . S
O105 U86 2.420 . S
O105 C90 1.202 . S
O106 U86 2.455 1_556 S
O106 C103 1.301 . S
O107 U86 2.449 1_556 S
O107 C103 1.282 . S
H108 C81 0.931 . S
H109 C83 0.929 . S
H110 C84 0.930 . S
H111 C85 0.931 . S
H112 C92 0.932 . S
H113 C93 0.930 . S
H114 C94 0.929 . S
H115 C96 0.930 . S
H116 C98 0.932 . S
H117 C99 0.929 . S
H118 C100 0.928 . S
H119 C102 0.932 . S
C120 C121 1.264 . S
C120 C125 1.479 . S
C120 C130 1.465 . S
C121 C120 1.264 . S
C121 C123 1.339 . S
C121 H148 0.931 . S
C122 C123 1.395 . S
C122 C124 1.320 . S
C123 C121 1.339 . S
C123 C122 1.395 . S
C123 H149 0.929 . S
C124 C122 1.320 . S
C124 C125 1.405 . S
C124 H150 0.930 . S
C125 C120 1.479 . S
C125 C124 1.405 . S
C125 H151 0.931 . S
U126 O127 2.454 . S
U126 O128 2.458 . S
U126 C129 2.984 . S
U126 C130 2.847 . S
U126 C143 2.882 . S
U126 O144 2.441 . S
U126 O145 2.420 . S
U126 O146 2.455 . S
U126 O147 2.449 . S
O127 U126 2.454 . S
O127 C129 1.353 . S
O128 U126 2.458 . S
O128 C129 1.286 . S
C129 U126 2.984 . S
C129 O127 1.353 . S
C129 O128 1.286 . S
C129 C131 1.363 . S
C130 C120 1.465 . S
C130 U126 2.847 . S
C130 O144 1.249 . S
C130 O145 1.202 . S
C131 C129 1.363 . S
C131 C133 1.408 . S
C131 C136 1.342 . S
C132 C133 1.310 . S
C132 C135 1.461 . S
C132 H152 0.932 . S
C133 C131 1.408 . S
C133 C132 1.310 . S
C133 H153 0.930 . S
C134 C135 1.474 . S
C134 C136 1.285 . S
C134 H154 0.929 . S
C135 C132 1.461 . S
C135 C134 1.474 . S
C136 C131 1.342 . S
C136 C134 1.285 . S
C136 H155 0.930 . S
C137 C140 1.424 . S
C137 C142 1.245 . S
C137 C143 1.428 . S
C138 C141 1.260 . S
C138 C142 1.477 . S
C138 H156 0.932 . S
C139 C140 1.384 . S
C139 C141 1.479 . S
C139 H157 0.929 . S
C140 C137 1.424 . S
C140 C139 1.384 . S
C140 H158 0.928 . S
C141 C138 1.260 . S
C141 C139 1.479 . S
C142 C137 1.245 . S
C142 C138 1.477 . S
C142 H159 0.932 . S
C143 U126 2.882 . S
C143 C137 1.428 . S
C143 O146 1.301 . S
C143 O147 1.282 . S
O144 U126 2.441 . S
O144 C130 1.249 . S
O145 U126 2.420 . S
O145 C130 1.202 . S
O146 U126 2.455 . S
O146 C143 1.301 . S
O147 U126 2.449 . S
O147 C143 1.282 . S
H148 C121 0.931 . S
H149 C123 0.929 . S
H150 C124 0.930 . S
H151 C125 0.931 . S
H152 C132 0.932 . S
H153 C133 0.930 . S
H154 C134 0.929 . S
H155 C136 0.930 . S
H156 C138 0.932 . S
H157 C139 0.929 . S
H158 C140 0.928 . S
H159 C142 0.932 . S
Tb160 N189 2.617 . S
Tb160 N195 2.572 . S
Tb160 O204 2.465 . S
Tb160 O205 2.387 . S
Tb160 O207 2.428 . S
Tb160 O208 2.308 1_565 S
Tb160 O212 2.347 1_455 S
Tb160 O215 2.393 1_455 S
Tb160 C224 2.802 . S
C161 N162 1.379 . S
C161 C164 1.416 . S
C161 C168 1.424 . S
N162 C161 1.379 . S
N162 C165 1.334 1_655 S
N162 Tb171 2.617 . S
C163 C165 1.390 . S
C163 C166 1.339 1_455 S
C163 H183 0.930 . S
C164 C161 1.416 . S
C164 C166 1.416 . S
C164 C170 1.448 . S
C165 N162 1.334 1_455 S
C165 C163 1.390 . S
C165 H176 0.930 . S
C166 C163 1.339 1_655 S
C166 C164 1.416 . S
C166 H187 0.930 . S
C167 C168 1.413 . S
C167 C169 1.427 . S
C167 C173 1.416 . S
C168 C161 1.424 . S
C168 C167 1.413 . S
C168 N172 1.361 . S
C169 C167 1.427 . S
C169 C170 1.328 . S
C169 H184 0.929 . S
C170 C164 1.448 . S
C170 C169 1.328 . S
C170 H185 0.930 . S
Tb171 N162 2.617 . S
Tb171 N172 2.572 . S
Tb171 O206 2.349 1_655 S
Tb171 O209 2.393 1_655 S
Tb171 O210 2.465 . S
Tb171 O211 2.387 . S
Tb171 O213 2.428 . S
Tb171 O214 2.308 1_545 S
Tb171 C235 2.802 . S
N172 C168 1.361 . S
N172 Tb171 2.572 . S
N172 C174 1.340 . S
C173 C167 1.416 . S
C173 C175 1.332 . S
C173 H181 0.931 . S
C174 N172 1.340 . S
C174 C175 1.407 . S
C174 H180 0.930 . S
C175 C173 1.332 . S
C175 C174 1.407 . S
C175 H177 0.929 . S
H176 C165 0.930 . S
H177 C175 0.929 . S
H178 C193 0.930 1_655 S
H179 C200 0.929 . S
H180 C174 0.930 . S
H181 C173 0.931 . S
H182 C196 0.930 . S
H183 C163 0.930 . S
H184 C169 0.929 . S
H185 C170 0.930 . S
H186 C191 0.930 1_655 S
H187 C166 0.930 . S
H188 C199 0.931 . S
N189 Tb160 2.617 . S
N189 C190 1.379 . S
N189 C193 1.334 . S
C190 N189 1.379 . S
C190 C192 1.416 . S
C190 C198 1.424 . S
C191 H186 0.930 1_455 S
C191 C193 1.390 . S
C191 C194 1.339 . S
C192 C190 1.416 . S
C192 C194 1.416 . S
C192 C225 1.448 . S
C193 H178 0.930 1_455 S
C193 N189 1.334 . S
C193 C191 1.390 . S
C194 C191 1.339 . S
C194 C192 1.416 . S
C194 H201 0.930 . S
N195 Tb160 2.572 . S
N195 C196 1.340 . S
N195 C198 1.361 . S
C196 H182 0.930 . S
C196 N195 1.340 . S
C196 C200 1.407 . S
C197 C198 1.413 . S
C197 C199 1.416 . S
C197 C226 1.427 . S
C198 C190 1.424 . S
C198 N195 1.361 . S
C198 C197 1.413 . S
C199 H188 0.931 . S
C199 C197 1.416 . S
C199 C200 1.332 . S
C200 H179 0.929 . S
C200 C196 1.407 . S
C200 C199 1.332 . S
H201 C194 0.930 . S
H202 C225 0.930 . S
H203 C226 0.929 . S
O204 Tb160 2.465 . S
O204 C224 1.264 . S
O205 Tb160 2.387 . S
O205 C216 1.264 . S
O206 Tb171 2.349 1_455 S
O206 C216 1.243 1_545 S
O207 Tb160 2.428 . S
O207 C224 1.256 . S
O208 Tb160 2.308 1_545 S
O208 C223 1.266 . S
O209 Tb171 2.393 1_455 S
O209 C223 1.248 . S
O210 Tb171 2.465 . S
O210 C235 1.264 . S
O211 Tb171 2.387 . S
O211 C227 1.264 . S
O212 Tb160 2.347 1_655 S
O212 C227 1.246 1_565 S
O213 Tb171 2.428 . S
O213 C235 1.256 . S
O214 Tb171 2.308 1_565 S
O214 C234 1.266 . S
O215 Tb160 2.393 1_655 S
O215 C234 1.248 . S
C216 O205 1.264 . S
C216 O206 1.243 1_565 S
C217 C220 1.399 . S
C217 C222 1.383 . S
C217 C224 1.496 . S
C218 C219 1.399 . S
C218 C222 1.389 . S
C219 C218 1.399 . S
C219 C221 1.380 . S
C219 H236 0.929 . S
C220 C217 1.399 . S
C220 C221 1.392 . S
C220 H237 0.929 . S
C221 C219 1.380 . S
C221 C220 1.392 . S
C221 H238 0.929 . S
C222 C217 1.383 . S
C222 C218 1.389 . S
C222 H239 0.931 . S
C223 O208 1.266 . S
C223 O209 1.248 . S
C224 Tb160 2.802 . S
C224 O204 1.264 . S
C224 O207 1.256 . S
C224 C217 1.496 . S
C225 C192 1.448 . S
C225 H202 0.930 . S
C225 C226 1.328 . S
C226 C197 1.427 . S
C226 H203 0.929 . S
C226 C225 1.328 . S
C227 O211 1.264 . S
C227 O212 1.246 1_545 S
C228 C231 1.399 . S
C228 C232 1.383 . S
C228 C235 1.496 . S
C229 C230 1.399 . S
C229 C232 1.389 . S
C230 C229 1.399 . S
C230 C233 1.380 . S
C230 H240 0.929 . S
C231 C228 1.399 . S
C231 C233 1.392 . S
C231 H241 0.929 . S
C232 C228 1.383 . S
C232 C229 1.389 . S
C232 H242 0.931 . S
C233 C230 1.380 . S
C233 C231 1.392 . S
C233 H243 0.929 . S
C234 O214 1.266 . S
C234 O215 1.248 . S
C235 Tb171 2.802 . S
C235 O210 1.264 . S
C235 O213 1.256 . S
C235 C228 1.496 . S
H236 C219 0.929 . S
H237 C220 0.929 . S
H238 C221 0.929 . S
H239 C222 0.931 . S
H240 C230 0.929 . S
H241 C231 0.929 . S
H242 C232 0.931 . S
H243 C233 0.929 . S
Tb244 N273 2.617 . S
Tb244 N279 2.572 . S
Tb244 O288 2.465 . S
Tb244 O289 2.387 1_556 S
Tb244 O291 2.428 . S
Tb244 O292 2.308 1_556 S
Tb244 O296 2.349 . S
Tb244 O299 2.393 . S
Tb244 C308 2.802 . S
C245 N246 1.379 . S
C245 C248 1.416 . S
C245 C252 1.424 . S
N246 C245 1.379 . S
N246 C249 1.334 . S
N246 Tb255 2.617 . S
C247 C249 1.390 . S
C247 C250 1.339 . S
C247 H267 0.930 . S
C248 C245 1.416 . S
C248 C250 1.416 . S
C248 C254 1.448 . S
C249 N246 1.334 . S
C249 C247 1.390 . S
C249 H260 0.930 . S
C250 C247 1.339 . S
C250 C248 1.416 . S
C250 H271 0.930 . S
C251 C252 1.413 . S
C251 C253 1.427 . S
C251 C257 1.416 . S
C252 C245 1.424 . S
C252 C251 1.413 . S
C252 N256 1.361 . S
C253 C251 1.427 . S
C253 C254 1.328 . S
C253 H268 0.931 . S
C254 C248 1.448 . S
C254 C253 1.328 . S
C254 H269 0.930 . S
Tb255 N246 2.617 . S
Tb255 N256 2.572 . S
Tb255 O290 2.349 . S
Tb255 O293 2.393 . S
Tb255 O294 2.465 . S
Tb255 O295 2.387 1_554 S
Tb255 O297 2.428 . S
Tb255 O298 2.308 . S
Tb255 C319 2.802 . S
N256 C252 1.361 . S
N256 Tb255 2.572 . S
N256 C258 1.340 . S
C257 C251 1.416 . S
C257 C259 1.332 . S
C257 H265 0.930 1_554 S
C258 N256 1.340 . S
C258 C259 1.407 . S
C258 H264 0.930 . S
C259 C257 1.332 . S
C259 C258 1.407 . S
C259 H261 0.929 . S
H260 C249 0.930 . S
H261 C259 0.929 . S
H262 C277 0.930 . S
H263 C284 0.929 . S
H264 C258 0.930 . S
H265 C257 0.930 1_556 S
H266 C280 0.930 . S
H267 C247 0.930 . S
H268 C253 0.931 . S
H269 C254 0.930 . S
H270 C275 0.930 . S
H271 C250 0.930 . S
H272 C283 0.931 . S
N273 Tb244 2.617 . S
N273 C274 1.379 1_556 S
N273 C277 1.334 . S
C274 N273 1.379 1_554 S
C274 C276 1.416 . S
C274 C282 1.424 . S
C275 H270 0.930 . S
C275 C277 1.390 . S
C275 C278 1.339 1_556 S
C276 C274 1.416 . S
C276 C278 1.416 . S
C276 C309 1.448 . S
C277 H262 0.930 . S
C277 N273 1.334 . S
C277 C275 1.390 . S
C278 C275 1.339 1_554 S
C278 C276 1.416 . S
C278 H285 0.930 . S
N279 Tb244 2.572 . S
N279 C280 1.340 1_556 S
N279 C282 1.361 1_556 S
C280 H266 0.930 . S
C280 N279 1.340 1_554 S
C280 C284 1.407 . S
C281 C282 1.413 . S
C281 C283 1.416 . S
C281 C310 1.427 . S
C282 C274 1.424 . S
C282 N279 1.361 1_554 S
C282 C281 1.413 . S
C283 H272 0.931 . S
C283 C281 1.416 . S
C283 C284 1.332 . S
C284 H263 0.929 . S
C284 C280 1.407 . S
C284 C283 1.332 . S
H285 C278 0.930 . S
H286 C309 0.930 . S
H287 C310 0.929 . S
O288 Tb244 2.465 . S
O288 C308 1.264 . S
O289 Tb244 2.387 1_554 S
O289 C300 1.264 . S
O290 Tb255 2.349 . S
O290 C300 1.243 . S
O291 Tb244 2.428 . S
O291 C308 1.256 . S
O292 Tb244 2.308 1_554 S
O292 C307 1.266 . S
O293 Tb255 2.393 . S
O293 C307 1.248 . S
O294 Tb255 2.465 . S
O294 C319 1.264 . S
O295 Tb255 2.387 1_556 S
O295 C311 1.264 . S
O296 Tb244 2.349 . S
O296 C311 1.243 . S
O297 Tb255 2.428 . S
O297 C319 1.256 . S
O298 Tb255 2.308 . S
O298 C318 1.266 . S
O299 Tb244 2.393 . S
O299 C318 1.248 1_556 S
C300 O289 1.264 . S
C300 O290 1.243 . S
C301 C304 1.399 . S
C301 C306 1.383 . S
C301 C308 1.496 . S
C302 C303 1.399 . S
C302 C306 1.389 . S
C303 C302 1.399 . S
C303 C305 1.380 . S
C303 H320 0.929 . S
C304 C301 1.399 . S
C304 C305 1.392 . S
C304 H321 0.929 . S
C305 C303 1.380 . S
C305 C304 1.392 . S
C305 H322 0.929 . S
C306 C301 1.383 . S
C306 C302 1.389 . S
C306 H323 0.931 . S
C307 O292 1.266 . S
C307 O293 1.248 . S
C308 Tb244 2.802 . S
C308 O288 1.264 . S
C308 O291 1.256 . S
C308 C301 1.496 . S
C309 C276 1.448 . S
C309 H286 0.930 . S
C309 C310 1.328 . S
C310 C281 1.427 . S
C310 H287 0.929 . S
C310 C309 1.328 . S
C311 O295 1.264 . S
C311 O296 1.243 . S
C312 C315 1.399 . S
C312 C316 1.383 . S
C312 C319 1.496 . S
C313 C314 1.399 . S
C313 C316 1.389 . S
C314 C313 1.399 . S
C314 C317 1.380 . S
C314 H324 0.929 . S
C315 C312 1.399 . S
C315 C317 1.392 . S
C315 H325 0.929 . S
C316 C312 1.383 . S
C316 C313 1.389 . S
C316 H326 0.931 . S
C317 C314 1.380 . S
C317 C315 1.392 . S
C317 H327 0.929 . S
C318 O298 1.266 . S
C318 O299 1.248 1_554 S
C319 Tb255 2.802 . S
C319 O294 1.264 . S
C319 O297 1.256 . S
C319 C312 1.496 . S
H320 C303 0.929 . S
H321 C304 0.929 . S
H322 C305 0.929 . S
H323 C306 0.931 . S
H324 C314 0.929 . S
H325 C315 0.929 . S
H326 C316 0.931 . S
H327 C317 0.929 . S
H328 C336 0.929 . S
H329 C338 0.930 . S
H330 C340 0.930 . S
H331 C343 0.929 . S
H332 C346 0.930 . S
H333 C348 0.960 . S
H334 C348 0.960 . S
H335 C348 0.960 . S
C336 H328 0.929 . S
C336 C337 1.377 . S
C336 C338 1.384 . S
C337 C336 1.377 . S
C337 C343 1.390 . S
C338 H329 0.930 . S
C338 C336 1.384 . S
C338 C339 1.372 . S
C339 C338 1.372 . S
C339 C340 1.400 . S
C339 C344 1.490 . S
C340 H330 0.930 . S
C340 C339 1.400 . S
C340 C343 1.386 . S
H341 C357 0.930 . S
H342 C358 0.931 . S
C343 H331 0.929 . S
C343 C337 1.390 . S
C343 C340 1.386 . S
C344 C339 1.490 . S
C344 C346 1.395 . S
C344 C347 1.403 . S
H345 C351 0.930 . S
C346 H332 0.930 . S
C346 C344 1.395 . S
C346 C349 1.403 . S
C347 C344 1.403 . S
C347 C348 1.524 . S
C347 C351 1.400 . S
C348 H333 0.960 . S
C348 H334 0.960 . S
C348 H335 0.960 . S
C348 C347 1.524 . S
C349 C346 1.403 . S
C349 C350 1.392 . S
C349 C353 1.495 . S
C350 C349 1.392 . S
C350 C351 1.385 . S
C350 C352 1.478 . S
C351 H345 0.930 . S
C351 C347 1.400 . S
C351 C350 1.385 . S
C352 C350 1.478 . S
C352 C354 1.381 . S
C352 C358 1.383 . S
C353 C349 1.495 . S
C353 H359 0.959 . S
C353 H360 0.961 . S
C353 H361 0.960 . S
C354 C352 1.381 . S
C354 C355 1.394 . S
C354 H362 0.930 . S
C355 C354 1.394 . S
C355 C356 1.383 . S
C355 H363 0.929 . S
C356 C355 1.383 . S
C356 C357 1.377 . S
C357 H341 0.930 . S
C357 C356 1.377 . S
C357 C358 1.379 . S
C358 H342 0.931 . S
C358 C352 1.383 . S
C358 C357 1.379 . S
H359 C353 0.959 . S
H360 C353 0.961 . S
H361 C353 0.960 . S
H362 C354 0.930 . S
H363 C355 0.929 . S
H364 C372 0.929 . S
H365 C374 0.930 . S
H366 C376 0.930 . S
H367 C379 0.929 . S
H368 C382 0.930 . S
H369 C384 0.960 . S
H370 C384 0.960 . S
H371 C384 0.960 . S
C372 H364 0.929 . S
C372 C373 1.377 . S
C372 C374 1.384 . S
C373 C372 1.377 . S
C373 C379 1.390 . S
C374 H365 0.930 . S
C374 C372 1.384 . S
C374 C375 1.372 . S
C375 C374 1.372 . S
C375 C376 1.400 . S
C375 C380 1.490 . S
C376 H366 0.930 . S
C376 C375 1.400 . S
C376 C379 1.386 . S
H377 C393 0.930 . S
H378 C394 0.931 . S
C379 H367 0.929 . S
C379 C373 1.390 . S
C379 C376 1.386 . S
C380 C375 1.490 . S
C380 C382 1.395 . S
C380 C383 1.403 . S
H381 C387 0.930 1_556 S
C382 H368 0.930 . S
C382 C380 1.395 . S
C382 C385 1.403 . S
C383 C380 1.403 . S
C383 C384 1.524 1_554 S
C383 C387 1.400 . S
C384 H369 0.960 . S
C384 H370 0.960 . S
C384 H371 0.960 . S
C384 C383 1.524 1_556 S
C385 C382 1.403 . S
C385 C386 1.392 . S
C385 C389 1.495 . S
C386 C385 1.392 . S
C386 C387 1.385 . S
C386 C388 1.478 . S
C387 H381 0.930 1_554 S
C387 C383 1.400 . S
C387 C386 1.385 . S
C388 C386 1.478 . S
C388 C390 1.381 . S
C388 C394 1.383 . S
C389 C385 1.495 . S
C389 H395 0.959 . S
C389 H396 0.961 . S
C389 H397 0.960 . S
C390 C388 1.381 . S
C390 C391 1.394 . S
C390 H398 0.930 . S
C391 C390 1.394 . S
C391 C392 1.383 . S
C391 H399 0.929 . S
C392 C391 1.383 . S
C392 C393 1.377 . S
C393 H377 0.930 . S
C393 C392 1.377 . S
C393 C394 1.379 . S
C394 H378 0.931 . S
C394 C388 1.383 . S
C394 C393 1.379 . S
H395 C389 0.959 . S
H396 C389 0.961 . S
H397 C389 0.960 . S
H398 C390 0.930 . S
H399 C391 0.929 . S
H400 C408 0.929 . S
H401 C410 0.930 . S
H402 C412 0.930 . S
H403 C415 0.929 . S
H404 C418 0.930 . S
H405 C420 0.960 . S
H406 C420 0.960 . S
H407 C420 0.960 . S
C408 H400 0.929 . S
C408 C409 1.377 . S
C408 C410 1.384 . S
C409 C408 1.377 . S
C409 C415 1.390 . S
C410 H401 0.930 . S
C410 C408 1.384 . S
C410 C411 1.372 . S
C411 C410 1.372 . S
C411 C412 1.400 . S
C411 C416 1.490 . S
C412 H402 0.930 . S
C412 C411 1.400 . S
C412 C415 1.386 . S
H413 C429 0.930 . S
H414 C430 0.931 . S
C415 H403 0.929 . S
C415 C409 1.390 . S
C415 C412 1.386 . S
C416 C411 1.490 . S
C416 C418 1.395 . S
C416 C419 1.403 . S
H417 C423 0.930 . S
C418 H404 0.930 . S
C418 C416 1.395 . S
C418 C421 1.403 . S
C419 C416 1.403 . S
C419 C420 1.524 . S
C419 C423 1.400 . S
C420 H405 0.960 . S
C420 H406 0.960 . S
C420 H407 0.960 . S
C420 C419 1.524 . S
C421 C418 1.403 . S
C421 C422 1.392 . S
C421 C425 1.495 . S
C422 C421 1.392 . S
C422 C423 1.385 . S
C422 C424 1.478 . S
C423 H417 0.930 . S
C423 C419 1.400 . S
C423 C422 1.385 . S
C424 C422 1.478 . S
C424 C426 1.381 . S
C424 C430 1.383 . S
C425 C421 1.495 . S
C425 H431 0.959 . S
C425 H432 0.961 . S
C425 H433 0.960 . S
C426 C424 1.381 . S
C426 C427 1.394 . S
C426 H434 0.930 . S
C427 C426 1.394 . S
C427 C428 1.383 . S
C427 H435 0.929 . S
C428 C427 1.383 . S
C428 C429 1.377 . S
C429 H413 0.930 . S
C429 C428 1.377 . S
C429 C430 1.379 . S
C430 H414 0.931 . S
C430 C424 1.383 . S
C430 C429 1.379 . S
H431 C425 0.959 . S
H432 C425 0.961 . S
H433 C425 0.960 . S
H434 C426 0.930 . S
H435 C427 0.929 . S
H436 C444 0.929 . S
H437 C446 0.930 . S
H438 C448 0.930 . S
H439 C451 0.929 . S
H440 C454 0.930 . S
H441 C456 0.960 . S
H442 C456 0.960 . S
H443 C456 0.960 . S
C444 H436 0.929 . S
C444 C445 1.377 . S
C444 C446 1.384 . S
C445 C444 1.377 . S
C445 C451 1.390 1_556 S
C446 H437 0.930 . S
C446 C444 1.384 . S
C446 C447 1.372 . S
C447 C446 1.372 . S
C447 C448 1.400 1_556 S
C447 C452 1.496 . S
C448 H438 0.930 . S
C448 C447 1.400 1_554 S
C448 C451 1.386 . S
H449 C465 0.930 . S
H450 C466 0.931 . S
C451 H439 0.929 . S
C451 C445 1.390 1_554 S
C451 C448 1.386 . S
C452 C447 1.496 . S
C452 C454 1.399 . S
C452 C455 1.393 1_556 S
H453 C459 0.930 . S
C454 H440 0.930 . S
C454 C452 1.399 . S
C454 C457 1.403 . S
C455 C452 1.393 1_554 S
C455 C456 1.524 . S
C455 C459 1.400 . S
C456 H441 0.960 . S
C456 H442 0.960 . S
C456 H443 0.960 . S
C456 C455 1.524 . S
C457 C454 1.403 . S
C457 C458 1.392 1_556 S
C457 C461 1.495 . S
C458 C457 1.392 1_554 S
C458 C459 1.385 . S
C458 C460 1.478 . S
C459 H453 0.930 . S
C459 C455 1.400 . S
C459 C458 1.385 . S
C460 C458 1.478 . S
C460 C462 1.381 1_554 S
C460 C466 1.383 . S
C461 C457 1.495 . S
C461 H467 0.959 . S
C461 H468 0.961 . S
C461 H469 0.960 . S
C462 C460 1.381 1_556 S
C462 C463 1.394 . S
C462 H470 0.930 . S
C463 C462 1.394 . S
C463 C464 1.383 1_556 S
C463 H471 0.929 . S
C464 C463 1.383 1_554 S
C464 C465 1.377 . S
C465 H449 0.930 . S
C465 C464 1.377 . S
C465 C466 1.379 . S
C466 H450 0.931 . S
C466 C460 1.383 . S
C466 C465 1.379 . S
H467 C461 0.959 . S
H468 C461 0.961 . S
H469 C461 0.960 . S
H470 C462 0.930 . S
H471 C463 0.929 . S
H472 C480 0.929 . S
H473 C482 0.930 . S
H474 C484 0.930 . S
H475 C487 0.929 . S
H476 C490 0.930 . S
H477 C492 0.960 . S
H478 C492 0.960 . S
H479 C492 0.960 . S
C480 H472 0.929 . S
C480 C481 1.377 . S
C480 C482 1.384 . S
C481 C480 1.377 . S
C481 C487 1.390 . S
C482 H473 0.930 . S
C482 C480 1.384 . S
C482 C483 1.372 . S
C483 C482 1.372 . S
C483 C484 1.400 . S
C483 C488 1.490 . S
C484 H474 0.930 . S
C484 C483 1.400 . S
C484 C487 1.386 . S
H485 C501 0.930 . S
H486 C502 0.931 . S
C487 H475 0.929 . S
C487 C481 1.390 . S
C487 C484 1.386 . S
C488 C483 1.490 . S
C488 C490 1.395 . S
C488 C491 1.403 . S
H489 C495 0.930 . S
C490 H476 0.930 . S
C490 C488 1.395 . S
C490 C493 1.403 . S
C491 C488 1.403 . S
C491 C492 1.524 . S
C491 C495 1.400 . S
C492 H477 0.960 . S
C492 H478 0.960 . S
C492 H479 0.960 . S
C492 C491 1.524 . S
C493 C490 1.403 . S
C493 C494 1.392 . S
C493 C497 1.495 . S
C494 C493 1.392 . S
C494 C495 1.385 . S
C494 C496 1.478 . S
C495 H489 0.930 . S
C495 C491 1.400 . S
C495 C494 1.385 . S
C496 C494 1.478 . S
C496 C498 1.381 . S
C496 C502 1.383 . S
C497 C493 1.495 . S
C497 H503 0.959 . S
C497 H504 0.961 . S
C497 H505 0.960 . S
C498 C496 1.381 . S
C498 C499 1.394 . S
C498 H506 0.930 . S
C499 C498 1.394 . S
C499 C500 1.383 . S
C499 H507 0.929 . S
C500 C499 1.383 . S
C500 C501 1.377 . S
C501 H485 0.930 . S
C501 C500 1.377 . S
C501 C502 1.379 . S
C502 H486 0.931 . S
C502 C496 1.383 . S
C502 C501 1.379 . S
H503 C497 0.959 . S
H504 C497 0.961 . S
H505 C497 0.960 . S
H506 C498 0.930 . S
H507 C499 0.929 . S
H508 C516 0.929 . S
H509 C518 0.930 . S
H510 C520 0.930 . S
H511 C523 0.929 . S
H512 C526 0.930 . S
H513 C528 0.960 . S
H514 C528 0.960 . S
H515 C528 0.960 . S
C516 H508 0.929 . S
C516 C517 1.377 . S
C516 C518 1.384 . S
C517 C516 1.377 . S
C517 C523 1.390 . S
C518 H509 0.930 . S
C518 C516 1.384 . S
C518 C519 1.372 . S
C519 C518 1.372 . S
C519 C520 1.400 . S
C519 C524 1.490 . S
C520 H510 0.930 . S
C520 C519 1.400 . S
C520 C523 1.386 . S
H521 C537 0.930 . S
H522 C538 0.931 . S
C523 H511 0.929 . S
C523 C517 1.390 . S
C523 C520 1.386 . S
C524 C519 1.490 . S
C524 C526 1.395 . S
C524 C527 1.403 . S
H525 C531 0.930 . S
C526 H512 0.930 . S
C526 C524 1.395 . S
C526 C529 1.403 . S
C527 C524 1.403 . S
C527 C528 1.524 . S
C527 C531 1.400 . S
C528 H513 0.960 . S
C528 H514 0.960 . S
C528 H515 0.960 . S
C528 C527 1.524 . S
C529 C526 1.403 . S
C529 C530 1.392 . S
C529 C533 1.495 . S
C530 C529 1.392 . S
C530 C531 1.385 . S
C530 C532 1.478 . S
C531 H525 0.930 . S
C531 C527 1.400 . S
C531 C530 1.385 . S
C532 C530 1.478 . S
C532 C534 1.381 . S
C532 C538 1.383 . S
C533 C529 1.495 . S
C533 H539 0.959 . S
C533 H540 0.961 . S
C533 H541 0.960 . S
C534 C532 1.381 . S
C534 C535 1.394 . S
C534 H542 0.930 . S
C535 C534 1.394 . S
C535 C536 1.383 . S
C535 H543 0.929 . S
C536 C535 1.383 . S
C536 C537 1.377 . S
C537 H521 0.930 . S
C537 C536 1.377 . S
C537 C538 1.379 . S
C538 H522 0.931 . S
C538 C532 1.383 . S
C538 C537 1.379 . S
H539 C533 0.959 . S
H540 C533 0.961 . S
H541 C533 0.960 . S
H542 C534 0.930 . S
H543 C535 0.929 . S
H544 C552 0.929 . S
H545 C554 0.930 . S
H546 C556 0.930 . S
H547 C559 0.929 . S
H548 C562 0.930 . S
H549 C564 0.960 . S
H550 C564 0.960 . S
H551 C564 0.960 . S
C552 H544 0.929 . S
C552 C553 1.377 . S
C552 C554 1.384 . S
C553 C552 1.377 . S
C553 C559 1.390 . S
C554 H545 0.930 . S
C554 C552 1.384 . S
C554 C555 1.372 . S
C555 C554 1.372 . S
C555 C556 1.400 . S
C555 C560 1.490 . S
C556 H546 0.930 . S
C556 C555 1.400 . S
C556 C559 1.386 . S
H557 C573 0.930 1_565 S
H558 C574 0.931 . S
C559 H547 0.929 . S
C559 C553 1.390 . S
C559 C556 1.386 . S
C560 C555 1.490 . S
C560 C562 1.395 . S
C560 C563 1.403 . S
H561 C567 0.930 . S
C562 H548 0.930 . S
C562 C560 1.395 . S
C562 C565 1.403 . S
C563 C560 1.403 . S
C563 C564 1.524 . S
C563 C567 1.400 . S
C564 H549 0.960 . S
C564 H550 0.960 . S
C564 H551 0.960 . S
C564 C563 1.524 . S
C565 C562 1.403 . S
C565 C566 1.392 . S
C565 C569 1.495 . S
C566 C565 1.392 . S
C566 C567 1.385 . S
C566 C568 1.478 . S
C567 H561 0.930 . S
C567 C563 1.400 . S
C567 C566 1.385 . S
C568 C566 1.478 . S
C568 C570 1.381 . S
C568 C574 1.383 . S
C569 C565 1.495 . S
C569 H575 0.959 . S
C569 H576 0.961 . S
C569 H577 0.960 . S
C570 C568 1.381 . S
C570 C571 1.394 . S
C570 H578 0.930 . S
C571 C570 1.394 . S
C571 C572 1.383 . S
C571 H579 0.929 . S
C572 C571 1.383 . S
C572 C573 1.377 . S
C573 H557 0.930 1_545 S
C573 C572 1.377 . S
C573 C574 1.379 . S
C574 H558 0.931 . S
C574 C568 1.383 . S
C574 C573 1.379 . S
H575 C569 0.959 . S
H576 C569 0.961 . S
H577 C569 0.960 . S
H578 C570 0.930 . S
H579 C571 0.929 . S
H580 C588 0.929 . S
H581 C590 0.930 . S
H582 C592 0.930 . S
H583 C595 0.929 . S
H584 C598 0.930 . S
H585 C600 0.960 . S
H586 C600 0.960 . S
H587 C600 0.960 . S
C588 H580 0.929 . S
C588 C589 1.377 . S
C588 C590 1.384 . S
C589 C588 1.377 . S
C589 C595 1.390 . S
C590 H581 0.930 . S
C590 C588 1.384 . S
C590 C591 1.372 . S
C591 C590 1.372 . S
C591 C592 1.400 . S
C591 C596 1.490 . S
C592 H582 0.930 . S
C592 C591 1.400 . S
C592 C595 1.386 . S
H593 C609 0.930 . S
H594 C610 0.931 . S
C595 H583 0.929 . S
C595 C589 1.390 . S
C595 C592 1.386 . S
C596 C591 1.490 . S
C596 C598 1.395 . S
C596 C599 1.403 . S
H597 C603 0.930 . S
C598 H584 0.930 . S
C598 C596 1.395 . S
C598 C601 1.403 . S
C599 C596 1.403 . S
C599 C600 1.524 . S
C599 C603 1.400 . S
C600 H585 0.960 . S
C600 H586 0.960 . S
C600 H587 0.960 . S
C600 C599 1.524 . S
C601 C598 1.403 . S
C601 C602 1.392 . S
C601 C605 1.495 . S
C602 C601 1.392 . S
C602 C603 1.385 . S
C602 C604 1.478 . S
C603 H597 0.930 . S
C603 C599 1.400 . S
C603 C602 1.385 . S
C604 C602 1.478 . S
C604 C606 1.381 . S
C604 C610 1.383 . S
C605 C601 1.495 . S
C605 H611 0.959 . S
C605 H612 0.961 . S
C605 H613 0.960 . S
C606 C604 1.381 . S
C606 C607 1.394 . S
C606 H614 0.930 . S
C607 C606 1.394 . S
C607 C608 1.383 . S
C607 H615 0.929 . S
C608 C607 1.383 . S
C608 C609 1.377 . S
C609 H593 0.930 . S
C609 C608 1.377 . S
C609 C610 1.379 . S
C610 H594 0.931 . S
C610 C604 1.383 . S
C610 C609 1.379 . S
H611 C605 0.959 . S
H612 C605 0.961 . S
H613 C605 0.960 . S
H614 C606 0.930 . S
H615 C607 0.929 . S
H616 C624 0.929 . S
H617 C626 0.930 . S
H618 C628 0.930 . S
H619 C631 0.929 . S
H620 C634 0.930 . S
H621 C636 0.960 . S
H622 C636 0.960 . S
H623 C636 0.960 . S
C624 H616 0.929 . S
C624 C625 1.377 . S
C624 C626 1.384 . S
C625 C624 1.377 . S
C625 C631 1.390 . S
C626 H617 0.930 . S
C626 C624 1.384 . S
C626 C627 1.372 . S
C627 C626 1.372 . S
C627 C628 1.400 . S
C627 C632 1.490 . S
C628 H618 0.930 . S
C628 C627 1.400 . S
C628 C631 1.386 . S
H629 C645 0.930 . S
H630 C646 0.931 . S
C631 H619 0.929 . S
C631 C625 1.390 . S
C631 C628 1.386 . S
C632 C627 1.490 . S
C632 C634 1.395 . S
C632 C635 1.403 . S
H633 C639 0.930 . S
C634 H620 0.930 . S
C634 C632 1.395 . S
C634 C637 1.403 . S
C635 C632 1.403 . S
C635 C636 1.524 . S
C635 C639 1.400 . S
C636 H621 0.960 . S
C636 H622 0.960 . S
C636 H623 0.960 . S
C636 C635 1.524 . S
C637 C634 1.403 . S
C637 C638 1.392 . S
C637 C641 1.495 . S
C638 C637 1.392 . S
C638 C639 1.385 . S
C638 C640 1.478 . S
C639 H633 0.930 . S
C639 C635 1.400 . S
C639 C638 1.385 . S
C640 C638 1.478 . S
C640 C642 1.381 . S
C640 C646 1.383 . S
C641 C637 1.495 . S
C641 H647 0.959 . S
C641 H648 0.961 . S
C641 H649 0.960 . S
C642 C640 1.381 . S
C642 C643 1.394 . S
C642 H650 0.930 . S
C643 C642 1.394 . S
C643 C644 1.383 . S
C643 H651 0.929 . S
C644 C643 1.383 . S
C644 C645 1.377 . S
C645 H629 0.930 . S
C645 C644 1.377 . S
C645 C646 1.379 . S
C646 H630 0.931 . S
C646 C640 1.383 . S
C646 C645 1.379 . S
H647 C641 0.959 . S
H648 C641 0.961 . S
H649 C641 0.960 . S
H650 C642 0.930 . S
H651 C643 0.929 . S
H652 C660 0.929 . S
H653 C662 0.930 . S
H654 C664 0.930 . S
H655 C667 0.929 . S
H656 C670 0.930 . S
H657 C672 0.960 . S
H658 C672 0.960 . S
H659 C672 0.960 . S
C660 H652 0.929 . S
C660 C661 1.377 . S
C660 C662 1.384 . S
C661 C660 1.377 . S
C661 C667 1.390 . S
C662 H653 0.930 . S
C662 C660 1.384 . S
C662 C663 1.372 . S
C663 C662 1.372 . S
C663 C664 1.400 . S
C663 C668 1.490 . S
C664 H654 0.930 . S
C664 C663 1.400 . S
C664 C667 1.386 . S
H665 C681 0.930 . S
H666 C682 0.931 . S
C667 H655 0.929 . S
C667 C661 1.390 . S
C667 C664 1.386 . S
C668 C663 1.490 . S
C668 C670 1.395 . S
C668 C671 1.403 . S
H669 C675 0.930 . S
C670 H656 0.930 . S
C670 C668 1.395 . S
C670 C673 1.403 . S
C671 C668 1.403 . S
C671 C672 1.524 . S
C671 C675 1.400 . S
C672 H657 0.960 . S
C672 H658 0.960 . S
C672 H659 0.960 . S
C672 C671 1.524 . S
C673 C670 1.403 . S
C673 C674 1.392 . S
C673 C677 1.495 . S
C674 C673 1.392 . S
C674 C675 1.385 . S
C674 C676 1.478 . S
C675 H669 0.930 . S
C675 C671 1.400 . S
C675 C674 1.385 . S
C676 C674 1.478 . S
C676 C678 1.381 . S
C676 C682 1.383 . S
C677 C673 1.495 . S
C677 H683 0.959 . S
C677 H684 0.961 . S
C677 H685 0.960 . S
C678 C676 1.381 . S
C678 C679 1.394 . S
C678 H686 0.930 . S
C679 C678 1.394 . S
C679 C680 1.383 . S
C679 H687 0.929 . S
C680 C679 1.383 . S
C680 C681 1.377 . S
C681 H665 0.930 . S
C681 C680 1.377 . S
C681 C682 1.379 . S
C682 H666 0.931 . S
C682 C676 1.383 . S
C682 C681 1.379 . S
H683 C677 0.959 . S
H684 C677 0.961 . S
H685 C677 0.960 . S
H686 C678 0.930 . S
H687 C679 0.929 . S
H688 C696 0.929 . S
H689 C698 0.930 . S
H690 C700 0.930 . S
H691 C703 0.929 . S
H692 C706 0.930 . S
H693 C708 0.960 . S
H694 C708 0.960 . S
H695 C708 0.960 . S
C696 H688 0.929 . S
C696 C697 1.377 . S
C696 C698 1.384 . S
C697 C696 1.377 . S
C697 C703 1.390 . S
C698 H689 0.930 . S
C698 C696 1.384 . S
C698 C699 1.372 . S
C699 C698 1.372 . S
C699 C700 1.400 . S
C699 C704 1.490 . S
C700 H690 0.930 . S
C700 C699 1.400 . S
C700 C703 1.386 . S
H701 C717 0.930 . S
H702 C718 0.931 . S
C703 H691 0.929 . S
C703 C697 1.390 . S
C703 C700 1.386 . S
C704 C699 1.490 . S
C704 C706 1.395 . S
C704 C707 1.403 . S
H705 C711 0.930 . S
C706 H692 0.930 . S
C706 C704 1.395 . S
C706 C709 1.403 . S
C707 C704 1.403 . S
C707 C708 1.524 . S
C707 C711 1.400 . S
C708 H693 0.960 . S
C708 H694 0.960 . S
C708 H695 0.960 . S
C708 C707 1.524 . S
C709 C706 1.403 . S
C709 C710 1.392 . S
C709 C713 1.495 . S
C710 C709 1.392 . S
C710 C711 1.385 . S
C710 C712 1.478 . S
C711 H705 0.930 . S
C711 C707 1.400 . S
C711 C710 1.385 . S
C712 C710 1.478 . S
C712 C714 1.381 . S
C712 C718 1.383 . S
C713 C709 1.495 . S
C713 H719 0.959 . S
C713 H720 0.961 . S
C713 H721 0.960 . S
C714 C712 1.381 . S
C714 C715 1.394 . S
C714 H722 0.930 . S
C715 C714 1.394 . S
C715 C716 1.383 . S
C715 H723 0.929 . S
C716 C715 1.383 . S
C716 C717 1.377 . S
C717 H701 0.930 . S
C717 C716 1.377 . S
C717 C718 1.379 . S
C718 H702 0.931 . S
C718 C712 1.383 . S
C718 C717 1.379 . S
H719 C713 0.959 . S
H720 C713 0.961 . S
H721 C713 0.960 . S
H722 C714 0.930 . S
H723 C715 0.929 . S
H724 C732 0.929 . S
H725 C734 0.930 . S
H726 C736 0.930 . S
H727 C739 0.929 . S
H728 C742 0.930 . S
H729 C744 0.960 . S
H730 C744 0.960 . S
H731 C744 0.960 . S
C732 H724 0.929 . S
C732 C733 1.377 . S
C732 C734 1.384 . S
C733 C732 1.377 . S
C733 C739 1.390 . S
C734 H725 0.930 . S
C734 C732 1.384 . S
C734 C735 1.372 . S
C735 C734 1.372 . S
C735 C736 1.400 . S
C735 C740 1.490 . S
C736 H726 0.930 . S
C736 C735 1.400 . S
C736 C739 1.386 . S
H737 C753 0.930 1_545 S
H738 C754 0.931 1_545 S
C739 H727 0.929 . S
C739 C733 1.390 . S
C739 C736 1.386 . S
C740 C735 1.490 . S
C740 C742 1.395 . S
C740 C743 1.403 . S
H741 C747 0.930 . S
C742 H728 0.930 . S
C742 C740 1.395 . S
C742 C745 1.403 . S
C743 C740 1.403 . S
C743 C744 1.524 . S
C743 C747 1.400 . S
C744 H729 0.960 . S
C744 H730 0.960 . S
C744 H731 0.960 . S
C744 C743 1.524 . S
C745 C742 1.403 . S
C745 C746 1.392 . S
C745 C749 1.495 . S
C746 C745 1.392 . S
C746 C747 1.385 . S
C746 C748 1.478 . S
C747 H741 0.930 . S
C747 C743 1.400 . S
C747 C746 1.385 . S
C748 C746 1.478 . S
C748 C750 1.381 . S
C748 C754 1.383 . S
C749 C745 1.495 . S
C749 H755 0.959 . S
C749 H756 0.961 . S
C749 H757 0.960 . S
C750 C748 1.381 . S
C750 C751 1.394 . S
C750 H758 0.930 . S
C751 C750 1.394 . S
C751 C752 1.383 . S
C751 H759 0.929 . S
C752 C751 1.383 . S
C752 C753 1.377 . S
C753 H737 0.930 1_565 S
C753 C752 1.377 . S
C753 C754 1.379 . S
C754 H738 0.931 1_565 S
C754 C748 1.383 . S
C754 C753 1.379 . S
H755 C749 0.959 . S
H756 C749 0.961 . S
H757 C749 0.960 . S
H758 C750 0.930 . S
H759 C751 0.929 . S
C356 C223 1.642 . S
C337 C135 1.649 . S
C373 C15 1.639 . S
C392 C318 1.643 . S
C409 C55 1.645 . S
C428 C234 1.630 . S
C445 C95 1.647 . S
C464 C307 1.645 . S
C500 C218 1.447 . S
C481 C2 1.562 . S
C536 C311 1.609 . S
C517 C42 1.612 . S
C553 C82 1.599 . S
C572 C227 1.607 . S
C589 C141 1.518 . S
C608 C302 1.398 . S
C644 C313 1.408 . S
C625 C61 1.566 . S
C680 C229 1.449 . S
C661 C101 1.591 . S
C716 C300 1.640 . S
C697 C122 1.604 . S
C733 C21 1.640 . S
C752 C216 1.634 . S
