# Generated by pormake.
# Topology ssa, (4,4)-cn, num edge types: 1
# Building blocks:
#     Node 0, Type 0, BuildingBlock: NAWXER_clean_sbu_0, # of connection points: 4
#     Node 1, Type 0, BuildingBlock: NAWXER_clean_sbu_0, # of connection points: 4
#     Node 2, Type 0, BuildingBlock: NAWXER_clean_sbu_0, # of connection points: 4
#     Node 3, Type 0, BuildingBlock: NAWXER_clean_sbu_0, # of connection points: 4
#     Node 4, Type 0, BuildingBlock: NAWXER_clean_sbu_0, # of connection points: 4
#     Node 5, Type 0, BuildingBlock: NAWXER_clean_sbu_0, # of connection points: 4
#     Node 6, Type 1, BuildingBlock: KOZSID_clean_sbu_0, # of connection points: 4
#     Node 7, Type 1, BuildingBlock: KOZSID_clean_sbu_0, # of connection points: 4
#     Node 8, Type 1, BuildingBlock: KOZSID_clean_sbu_0, # of connection points: 4
#     Node 9, Type 1, BuildingBlock: KOZSID_clean_sbu_0, # of connection points: 4
#     Node 10, Type 1, BuildingBlock: KOZSID_clean_sbu_0, # of connection points: 4
#     Node 11, Type 1, BuildingBlock: KOZSID_clean_sbu_0, # of connection points: 4
#     Edge 12, Type (0, 1), BuildingBlock: AJUNOK_clean_linker_0, # of connection points: 2
#     Edge 13, Type (0, 1), BuildingBlock: AJUNOK_clean_linker_0, # of connection points: 2
#     Edge 14, Type (0, 1), BuildingBlock: AJUNOK_clean_linker_0, # of connection points: 2
#     Edge 15, Type (0, 1), BuildingBlock: AJUNOK_clean_linker_0, # of connection points: 2
#     Edge 16, Type (0, 1), BuildingBlock: AJUNOK_clean_linker_0, # of connection points: 2
#     Edge 17, Type (0, 1), BuildingBlock: AJUNOK_clean_linker_0, # of connection points: 2
#     Edge 18, Type (0, 1), BuildingBlock: AJUNOK_clean_linker_0, # of connection points: 2
#     Edge 19, Type (0, 1), BuildingBlock: AJUNOK_clean_linker_0, # of connection points: 2
#     Edge 20, Type (0, 1), BuildingBlock: AJUNOK_clean_linker_0, # of connection points: 2
#     Edge 21, Type (0, 1), BuildingBlock: AJUNOK_clean_linker_0, # of connection points: 2
#     Edge 22, Type (0, 1), BuildingBlock: AJUNOK_clean_linker_0, # of connection points: 2
#     Edge 23, Type (0, 1), BuildingBlock: AJUNOK_clean_linker_0, # of connection points: 2
#     Edge 24, Type (0, 1), BuildingBlock: AJUNOK_clean_linker_0, # of connection points: 2
#     Edge 25, Type (0, 1), BuildingBlock: AJUNOK_clean_linker_0, # of connection points: 2
#     Edge 26, Type (0, 1), BuildingBlock: AJUNOK_clean_linker_0, # of connection points: 2
#     Edge 27, Type (0, 1), BuildingBlock: AJUNOK_clean_linker_0, # of connection points: 2
#     Edge 28, Type (0, 1), BuildingBlock: AJUNOK_clean_linker_0, # of connection points: 2
#     Edge 29, Type (0, 1), BuildingBlock: AJUNOK_clean_linker_0, # of connection points: 2
#     Edge 30, Type (0, 1), BuildingBlock: AJUNOK_clean_linker_0, # of connection points: 2
#     Edge 31, Type (0, 1), BuildingBlock: AJUNOK_clean_linker_0, # of connection points: 2
#     Edge 32, Type (0, 1), BuildingBlock: AJUNOK_clean_linker_0, # of connection points: 2
#     Edge 33, Type (0, 1), BuildingBlock: AJUNOK_clean_linker_0, # of connection points: 2
#     Edge 34, Type (0, 1), BuildingBlock: AJUNOK_clean_linker_0, # of connection points: 2
#     Edge 35, Type (0, 1), BuildingBlock: AJUNOK_clean_linker_0, # of connection points: 2
# Relax obj value: 0.023
# Max RMSD: 0.068
# Mean RMSD: 0.031
data_MOF--net-ssa--node1-NAWXER_clean_sbu_0--node2-KOZSID_clean_sbu_0--edge1-AJUNOK_clean_linker_0
_symmetry_space_group_name_H-M    P1
_symmetry_Int_Tables_number       1
_symmetry_cell_setting            triclinic
loop_
_symmetry_equiv_pos_as_xyz
'x, y, z'
_cell_length_a     39.840839
_cell_length_b     39.876029
_cell_length_c     27.953779
_cell_angle_alpha  94.422305
_cell_angle_beta   94.339329
_cell_angle_gamma 120.00555
loop_
_atom_site_label
_atom_site_type_symbol
_atom_site_fract_x
_atom_site_fract_y
_atom_site_fract_z
_atom_type_partial_charge
C0 C 0.02365 0.55824 0.09678 0.0
C1 C 0.93794 0.42438 0.01661 0.0
O2 O 0.99429 0.5315 0.11307 0.0
Zn3 Zn 0.97934 0.49054 0.05923 0.0
O4 O 0.03255 0.55114 0.05567 0.0
Zn5 Zn 0.01406 0.5041 0.99997 0.0
O6 O 0.99681 0.52141 0.94347 0.0
O7 O 0.95807 0.50929 0.99985 0.0
O8 O 0.96631 0.44637 0.99423 0.0
O9 O 0.9344 0.43781 0.05758 0.0
O10 O 0.02799 0.48132 0.06862 0.0
O11 O 0.05966 0.49636 0.00533 0.0
C12 C 0.96625 0.51932 0.95783 0.0
C13 C 0.05645 0.4846 0.04682 0.0
C14 C 0.50531 0.06313 0.52529 0.0
C15 C 0.53973 0.9731 0.43563 0.0
O16 O 0.50128 0.03403 0.54606 0.0
Zn17 Zn 0.5089 0.9847 0.53553 0.0
O18 O 0.51585 0.06619 0.48306 0.0
Zn19 Zn 0.52203 0.01959 0.47599 0.0
O20 O 0.4641 0.97262 0.47067 0.0
O21 O 0.45574 0.94041 0.53354 0.0
O22 O 0.54019 1.00255 0.42004 0.0
O23 O 0.52935 0.96483 0.47744 0.0
O24 O 0.54993 0.99988 0.58935 0.0
O25 O 0.5685 0.03818 0.53201 0.0
C26 C 0.44199 0.94444 0.49317 0.0
C27 C 0.57609 0.02982 0.5732 0.0
C28 C 0.49975 0.45851 0.92293 0.0
C29 C 0.5404 0.58557 0.02326 0.0
O30 O 0.49643 0.4865 0.90883 0.0
Zn31 Zn 0.51752 0.52283 0.97058 0.0
O32 O 0.5122 0.46124 0.96749 0.0
Zn33 Zn 0.5343 0.50218 0.032 0.0
O34 O 0.49632 0.47714 0.0766 0.0
O35 O 0.47417 0.49759 0.01776 0.0
O36 O 0.54471 0.56057 0.04502 0.0
O37 O 0.52634 0.57657 0.97851 0.0
O38 O 0.5758 0.53419 0.97824 0.0
O39 O 0.58718 0.51057 0.04244 0.0
C40 C 0.46956 0.48228 0.05717 0.0
C41 C 0.59889 0.52804 0.00557 0.0
C42 C 0.05039 0.56886 0.48826 0.0
C43 C 0.97681 0.45331 0.57583 0.0
O44 O 0.05901 0.56682 0.53245 0.0
Zn45 Zn 0.01593 0.51293 0.53477 0.0
O46 O 0.02021 0.53948 0.46321 0.0
Zn47 Zn 0.97532 0.48065 0.47049 0.0
O48 O 0.92744 0.48275 0.45914 0.0
O49 O 0.96602 0.51922 0.52598 0.0
O50 O 0.96357 0.44804 0.53098 0.0
O51 O 1.00674 0.48602 0.5935 0.0
O52 O 0.0341 0.48333 0.48594 0.0
O53 O 0.98829 0.45184 0.42333 0.0
C54 C 0.93447 0.5064 0.49692 0.0
C55 C 0.02214 0.46227 0.44449 0.0
C56 C 0.53528 0.99687 0.06516 0.0
C57 C 0.49 0.08391 0.01399 0.0
O58 O 0.54457 0.02969 0.08869 0.0
Zn59 Zn 0.51137 0.04013 0.04529 0.0
O60 O 0.51126 0.98401 0.02602 0.0
Zn61 Zn 0.4767 0.99939 0.98117 0.0
O62 O 0.50193 0.00608 0.92089 0.0
O63 O 0.54143 0.04871 0.98334 0.0
O64 O 0.47501 0.05155 0.98617 0.0
O65 O 0.51117 0.08917 0.05345 0.0
O66 O 0.45574 0.99378 0.05847 0.0
O67 O 0.42312 0.95684 0.98948 0.0
C68 C 0.53541 0.03516 0.93861 0.0
C69 C 0.42525 0.96361 0.03529 0.0
C70 C 0.56958 0.53314 0.56913 0.0
C71 C 0.44016 0.48677 0.47004 0.0
O72 O 0.54114 0.53543 0.58389 0.0
Zn73 Zn 0.50421 0.51215 0.5226 0.0
O74 O 0.56639 0.52006 0.52469 0.0
Zn75 Zn 0.52427 0.49529 0.46061 0.0
O76 O 0.54859 0.53279 0.41553 0.0
O77 O 0.52872 0.55523 0.47491 0.0
O78 O 0.46535 0.48318 0.44772 0.0
O79 O 0.44941 0.50074 0.51479 0.0
O80 O 0.49802 0.45604 0.51853 0.0
O81 O 0.51839 0.44334 0.45183 0.0
C82 C 0.54385 0.55971 0.43532 0.0
C83 C 0.50483 0.43336 0.49146 0.0
C84 C 0.21292 0.50526 0.17761 0.0
C85 C 0.21978 0.54153 0.16738 0.0
C86 C 0.25096 0.56886 0.19934 0.0
C87 C 0.26129 0.5479 0.22731 0.0
N88 N 0.23908 0.50876 0.21474 0.0
Co89 Co 0.24267 0.46767 0.24863 0.0
N90 N 0.28566 0.50805 0.2992 0.0
C91 C 0.30186 0.54725 0.30203 0.0
C92 C 0.3321 0.56788 0.33877 0.0
C93 C 0.33591 0.54033 0.36053 0.0
C94 C 0.30747 0.5042 0.33587 0.0
N95 N 0.24622 0.42672 0.28272 0.0
C96 C 0.27174 0.43042 0.32089 0.0
C97 C 0.26449 0.39426 0.33193 0.0
C98 C 0.2339 0.36677 0.29913 0.0
C99 C 0.22406 0.38755 0.27008 0.0
N100 N 0.1997 0.4275 0.19799 0.0
C101 C 0.1842 0.38834 0.19409 0.0
C102 C 0.15377 0.36803 0.15734 0.0
C103 C 0.1491 0.39578 0.13704 0.0
C104 C 0.17697 0.43158 0.16271 0.0
N105 N 0.28278 0.46998 0.20829 0.0
C106 C 0.34311 0.47238 0.15914 0.0
C107 C 0.31121 0.43689 0.16608 0.0
C108 C 0.28147 0.43635 0.18999 0.0
C109 C 0.34382 0.50674 0.17565 0.0
C110 C 0.31366 0.50491 0.20021 0.0
N111 N 0.20244 0.46479 0.28889 0.0
C112 C 0.14085 0.42622 0.31954 0.0
C113 C 0.14209 0.45982 0.34012 0.0
C114 C 0.17455 0.49605 0.33572 0.0
C115 C 0.20418 0.49787 0.31009 0.0
C116 C 0.17107 0.42934 0.2945 0.0
H117 H 0.228 0.52629 0.30748 0.0
H118 H 0.16813 0.40253 0.27976 0.0
H119 H 0.25794 0.40825 0.19352 0.0
H120 H 0.3162 0.53209 0.21279 0.0
C121 C 0.28961 0.56395 0.26792 0.0
C122 C 0.17963 0.46844 0.15327 0.0
C123 C 0.3039 0.46735 0.34703 0.0
C124 C 0.19618 0.37141 0.22859 0.0
H125 H 0.20326 0.54772 0.14065 0.0
H126 H 0.26361 0.60025 0.203 0.0
H127 H 0.35004 0.5993 0.34773 0.0
H128 H 0.35793 0.54639 0.39036 0.0
H129 H 0.28023 0.38844 0.36023 0.0
H130 H 0.22108 0.33539 0.29601 0.0
H131 H 0.13604 0.33666 0.1477 0.0
H132 H 0.12704 0.39031 0.10753 0.0
H133 H 0.309 0.40953 0.15268 0.0
H134 H 0.36791 0.53494 0.17043 0.0
H135 H 0.1168 0.39751 0.32312 0.0
H136 H 0.17682 0.52293 0.3514 0.0
C137 C 0.71007 0.19974 0.6916 0.0
C138 C 0.68453 0.20721 0.66438 0.0
C139 C 0.69515 0.24524 0.67977 0.0
C140 C 0.72642 0.25872 0.71542 0.0
N141 N 0.73598 0.23151 0.723 0.0
Co142 Co 0.77616 0.23602 0.77334 0.0
N143 N 0.77727 0.28047 0.81196 0.0
C144 C 0.76356 0.30278 0.79521 0.0
C145 C 0.77007 0.33284 0.82913 0.0
C146 C 0.78968 0.32971 0.86935 0.0
C147 C 0.79399 0.29761 0.85789 0.0
N148 N 0.81582 0.23944 0.82377 0.0
C149 C 0.82678 0.25759 0.86987 0.0
C150 C 0.85382 0.25027 0.89395 0.0
C151 C 0.86118 0.22827 0.86107 0.0
C152 C 0.83792 0.22283 0.81907 0.0
N153 N 0.77552 0.19218 0.73431 0.0
C154 C 0.80344 0.18259 0.73689 0.0
C155 C 0.79349 0.14968 0.70568 0.0
C156 C 0.75694 0.13785 0.68249 0.0
C157 C 0.74681 0.16434 0.7011 0.0
N158 N 0.81797 0.27357 0.73855 0.0
C159 C 0.87434 0.33027 0.68765 0.0
C160 C 0.87875 0.33447 0.73856 0.0
C161 C 0.85039 0.30615 0.76309 0.0
C162 C 0.84087 0.29651 0.66317 0.0
C163 C 0.81371 0.26847 0.68901 0.0
N164 N 0.73383 0.1987 0.80719 0.0
C165 C 0.7013 0.13758 0.84032 0.0
C166 C 0.6684 0.14129 0.84521 0.0
C167 C 0.66989 0.17527 0.83237 0.0
C168 C 0.70259 0.20338 0.81356 0.0
C169 C 0.73356 0.16646 0.82128 0.0
H170 H 0.70212 0.22861 0.8032 0.0
H171 H 0.75791 0.16222 0.8169 0.0
H172 H 0.85451 0.31103 0.80202 0.0
H173 H 0.78862 0.24297 0.66866 0.0
C174 C 0.74108 0.29207 0.74955 0.0
C175 C 0.71012 0.16289 0.68691 0.0
C176 C 0.81864 0.28786 0.88894 0.0
C177 C 0.83241 0.19826 0.77695 0.0
H178 H 0.66042 0.18716 0.63709 0.0
H179 H 0.68016 0.26026 0.66856 0.0
H180 H 0.76123 0.35422 0.8254 0.0
H181 H 0.8005 0.34958 0.90275 0.0
H182 H 0.86816 0.26133 0.93082 0.0
H183 H 0.88071 0.21711 0.86732 0.0
H184 H 0.80946 0.13439 0.70276 0.0
H185 H 0.7394 0.11225 0.65598 0.0
H186 H 0.90393 0.35962 0.7596 0.0
H187 H 0.83481 0.29198 0.6241 0.0
H188 H 0.70178 0.11204 0.85006 0.0
H189 H 0.646 0.18037 0.83702 0.0
C190 C 0.51949 0.71683 0.15601 0.0
C191 C 0.48309 0.68663 0.13421 0.0
C192 C 0.45585 0.68972 0.1578 0.0
C193 C 0.47692 0.7213 0.19275 0.0
N194 N 0.51608 0.73907 0.19257 0.0
Co195 Co 0.55724 0.78408 0.24024 0.0
N196 N 0.51686 0.78859 0.27457 0.0
C197 C 0.47759 0.76532 0.26469 0.0
C198 C 0.45729 0.7777 0.29118 0.0
C199 C 0.48522 0.81164 0.31858 0.0
C200 C 0.52106 0.81802 0.30705 0.0
N201 N 0.59812 0.82865 0.28853 0.0
C202 C 0.5946 0.8539 0.32047 0.0
C203 C 0.63068 0.88269 0.34456 0.0
C204 C 0.65801 0.87595 0.32643 0.0
C205 C 0.63721 0.84357 0.29234 0.0
N206 N 0.59761 0.7806 0.20481 0.0
C207 C 0.63687 0.80372 0.21554 0.0
C208 C 0.65727 0.79449 0.18502 0.0
C209 C 0.6294 0.76339 0.15315 0.0
C210 C 0.59343 0.75518 0.16629 0.0
N211 N 0.55771 0.82207 0.19844 0.0
C212 C 0.55766 0.88134 0.15084 0.0
C213 C 0.59261 0.88563 0.17171 0.0
C214 C 0.59204 0.8555 0.19452 0.0
C215 C 0.52284 0.84651 0.15235 0.0
C216 C 0.5235 0.81737 0.17628 0.0
N217 N 0.55713 0.74589 0.28261 0.0
C218 C 0.59136 0.7176 0.32263 0.0
C219 C 0.55649 0.68735 0.33416 0.0
C220 C 0.52209 0.6876 0.32107 0.0
C221 C 0.52305 0.71685 0.29552 0.0
C222 C 0.59106 0.74641 0.29743 0.0
H223 H 0.49573 0.71493 0.2862 0.0
H224 H 0.61873 0.76852 0.2901 0.0
H225 H 0.61966 0.8603 0.20965 0.0
H226 H 0.496 0.79169 0.17745 0.0
C227 C 0.46077 0.73467 0.2266 0.0
C228 C 0.55633 0.72172 0.14249 0.0
C229 C 0.55811 0.85352 0.32579 0.0
C230 C 0.65357 0.83164 0.25696 0.0
H231 H 0.47672 0.66406 0.10498 0.0
H232 H 0.42441 0.67071 0.15091 0.0
H233 H 0.42589 0.76474 0.28893 0.0
H234 H 0.47981 0.8304 0.34288 0.0
H235 H 0.63682 0.90721 0.37062 0.0
H236 H 0.68947 0.89431 0.33446 0.0
H237 H 0.68867 0.808 0.18662 0.0
H238 H 0.63489 0.74781 0.12424 0.0
H239 H 0.6202 0.91206 0.17039 0.0
H240 H 0.49516 0.84221 0.13611 0.0
H241 H 0.61892 0.71924 0.33329 0.0
H242 H 0.49434 0.66486 0.3297 0.0
C243 C 0.7364 0.57601 0.71024 0.0
C244 C 0.74429 0.61254 0.69978 0.0
C245 C 0.78352 0.6376 0.71319 0.0
C246 C 0.7974 0.61519 0.73128 0.0
N247 N 0.76937 0.57757 0.73061 0.0
Co248 Co 0.77773 0.53573 0.7533 0.0
N249 N 0.83065 0.57439 0.78856 0.0
C250 C 0.85171 0.61235 0.78254 0.0
C251 C 0.88749 0.63204 0.81068 0.0
C252 C 0.88943 0.60471 0.83565 0.0
C253 C 0.85462 0.5697 0.8212 0.0
N254 N 0.7861 0.49381 0.77572 0.0
C255 C 0.81395 0.49587 0.80919 0.0
C256 C 0.80953 0.45924 0.81156 0.0
C257 C 0.77825 0.43354 0.77811 0.0
C258 C 0.76526 0.45573 0.75728 0.0
N259 N 0.72486 0.4972 0.71787 0.0
C260 C 0.71091 0.4587 0.70612 0.0
C261 C 0.67386 0.43914 0.68114 0.0
C262 C 0.66389 0.46708 0.67627 0.0
C263 C 0.69553 0.50231 0.69868 0.0
N264 N 0.80147 0.53376 0.695 0.0
C265 C 0.83639 0.53025 0.61312 0.0
C266 C 0.80156 0.53097 0.6084 0.0
C267 C 0.78471 0.53309 0.64999 0.0
C268 C 0.8532 0.53113 0.6592 0.0
C269 C 0.83528 0.53263 0.69939 0.0
N270 N 0.75422 0.53756 0.81158 0.0
C271 C 0.70739 0.50442 0.86573 0.0
C272 C 0.71796 0.54017 0.89273 0.0
C273 C 0.74787 0.5745 0.87887 0.0
C274 C 0.76546 0.57258 0.83818 0.0
C275 C 0.72606 0.50375 0.82569 0.0
H276 H 0.78765 0.59954 0.82779 0.0
H277 H 0.71696 0.47584 0.80544 0.0
H278 H 0.75815 0.53411 0.64566 0.0
H279 H 0.84898 0.53272 0.73402 0.0
C280 C 0.83512 0.62931 0.75469 0.0
C281 C 0.69799 0.54024 0.69635 0.0
C282 C 0.84734 0.53215 0.83546 0.0
C283 C 0.73138 0.44141 0.72436 0.0
H284 H 0.72391 0.62016 0.68349 0.0
H285 H 0.79977 0.66866 0.7111 0.0
H286 H 0.90929 0.66275 0.8134 0.0
H287 H 0.914 0.60977 0.86085 0.0
H288 H 0.82761 0.45201 0.83427 0.0
H289 H 0.76613 0.40234 0.7703 0.0
H290 H 0.65587 0.40813 0.6688 0.0
H291 H 0.6367 0.46219 0.65757 0.0
H292 H 0.7878 0.53029 0.57312 0.0
H293 H 0.87996 0.5302 0.66412 0.0
H294 H 0.68367 0.47717 0.87404 0.0
H295 H 0.75696 0.60279 0.8986 0.0
C296 C 0.26817 0.83783 0.35586 0.0
C297 C 0.26543 0.86931 0.37569 0.0
C298 C 0.24071 0.87348 0.34312 0.0
C299 C 0.22933 0.8442 0.30555 0.0
N300 N 0.24494 0.82154 0.31289 0.0
Co301 Co 0.23472 0.77515 0.26898 0.0
N302 N 0.1876 0.77127 0.234 0.0
C303 C 0.17904 0.79984 0.23325 0.0
C304 C 0.14332 0.78745 0.20702 0.0
C305 C 0.12863 0.7487 0.19056 0.0
C306 C 0.15641 0.73973 0.20767 0.0
N307 N 0.22388 0.72857 0.22528 0.0
C308 C 0.18946 0.70042 0.2003 0.0
C309 C 0.19368 0.67167 0.17512 0.0
C310 C 0.23235 0.68246 0.18522 0.0
C311 C 0.24945 0.71711 0.21579 0.0
N312 N 0.28208 0.77898 0.3033 0.0
C313 C 0.30177 0.76234 0.28599 0.0
C314 C 0.33455 0.77134 0.31657 0.0
C315 C 0.33582 0.7955 0.35515 0.0
C316 C 0.30352 0.79994 0.34605 0.0
N317 N 0.20254 0.74087 0.31458 0.0
C318 C 0.15439 0.68978 0.37662 0.0
C319 C 0.18414 0.68553 0.35853 0.0
C320 C 0.20763 0.71111 0.3275 0.0
C321 C 0.1499 0.72076 0.36366 0.0
C322 C 0.17425 0.74596 0.33295 0.0
N323 N 0.26722 0.80955 0.22321 0.0
C324 C 0.28004 0.82374 0.14146 0.0
C325 C 0.31633 0.85743 0.15866 0.0
C326 C 0.32651 0.86706 0.2091 0.0
C327 C 0.30198 0.84287 0.2404 0.0
C328 C 0.25602 0.80033 0.17415 0.0
H329 H 0.31152 0.85116 0.27871 0.0
H330 H 0.22856 0.77443 0.15966 0.0
H331 H 0.22961 0.70642 0.3134 0.0
H332 H 0.16987 0.76935 0.32365 0.0
C333 C 0.20001 0.83373 0.26676 0.0
C334 C 0.29734 0.82827 0.37531 0.0
C335 C 0.15317 0.70153 0.19831 0.0
C336 C 0.28597 0.73468 0.24426 0.0
H337 H 0.28066 0.88805 0.40951 0.0
H338 H 0.23143 0.89473 0.34699 0.0
H339 H 0.12846 0.80377 0.20316 0.0
H340 H 0.10045 0.7292 0.1694 0.0
H341 H 0.17117 0.64556 0.15234 0.0
H342 H 0.24575 0.66584 0.1739 0.0
H343 H 0.35479 0.7611 0.31182 0.0
H344 H 0.35862 0.8091 0.38577 0.0
H345 H 0.18858 0.66192 0.36728 0.0
H346 H 0.12767 0.72555 0.37719 0.0
H347 H 0.27057 0.815 0.10294 0.0
H348 H 0.35344 0.89333 0.22464 0.0
C349 C 0.45505 0.2918 0.7821 0.0
C350 C 0.41879 0.28558 0.79154 0.0
C351 C 0.39226 0.24693 0.7761 0.0
C352 C 0.41364 0.23169 0.75809 0.0
N353 N 0.45194 0.25837 0.7608 0.0
Co354 Co 0.49279 0.24785 0.73952 0.0
N355 N 0.45331 0.19757 0.7 0.0
C356 C 0.4148 0.17773 0.70366 0.0
C357 C 0.39438 0.14423 0.67124 0.0
C358 C 0.42178 0.14267 0.64584 0.0
C359 C 0.45764 0.1753 0.66449 0.0
N360 N 0.53364 0.23731 0.71835 0.0
C361 C 0.53141 0.2116 0.68157 0.0
C362 C 0.5671 0.21341 0.68077 0.0
C363 C 0.59232 0.24101 0.71835 0.0
C364 C 0.57077 0.2545 0.74009 0.0
N365 N 0.53229 0.29815 0.77915 0.0
C366 C 0.5697 0.30894 0.7938 0.0
C367 C 0.59024 0.34502 0.82121 0.0
C368 C 0.56403 0.35758 0.82451 0.0
C369 C 0.52876 0.32831 0.79889 0.0
N370 N 0.48983 0.22035 0.79584 0.0
C371 C 0.49022 0.18317 0.87674 0.0
C372 C 0.48774 0.21697 0.88152 0.0
C373 C 0.48788 0.2353 0.84067 0.0
C374 C 0.49155 0.16777 0.83072 0.0
C375 C 0.49094 0.18652 0.79076 0.0
N376 N 0.49598 0.27521 0.68355 0.0
C377 C 0.53504 0.32269 0.63329 0.0
C378 C 0.50135 0.31798 0.60675 0.0
C379 C 0.46481 0.29023 0.61833 0.0
C380 C 0.46278 0.26898 0.65664 0.0
C381 C 0.53174 0.30126 0.67156 0.0
H382 H 0.43434 0.24831 0.66533 0.0
H383 H 0.55823 0.30648 0.69216 0.0
H384 H 0.48698 0.26189 0.84561 0.0
H385 H 0.49195 0.17386 0.75584 0.0
C386 C 0.39826 0.1945 0.73223 0.0
C387 C 0.49195 0.32876 0.79799 0.0
C388 C 0.49531 0.18247 0.65013 0.0
C389 C 0.5856 0.28695 0.77568 0.0
H390 H 0.41229 0.30667 0.80841 0.0
H391 H 0.36096 0.23203 0.77669 0.0
H392 H 0.36312 0.12407 0.66548 0.0
H393 H 0.41597 0.11996 0.61707 0.0
H394 H 0.57405 0.19619 0.65606 0.0
H395 H 0.62298 0.25082 0.72779 0.0
H396 H 0.62087 0.3608 0.83601 0.0
H397 H 0.57004 0.38489 0.84412 0.0
H398 H 0.48668 0.22964 0.91666 0.0
H399 H 0.49322 0.14144 0.82573 0.0
H400 H 0.56388 0.34378 0.62554 0.0
H401 H 0.43802 0.28622 0.59955 0.0
C402 C 0.12097 0.48562 0.05255 0.0
C403 C 0.08618 0.47682 0.07193 0.0
C404 C 0.15053 0.48161 0.07802 0.0
C405 C 0.14654 0.46866 0.12387 0.0
H406 H 0.12592 0.49665 0.018 0.0
H407 H 0.17716 0.48968 0.06232 0.0
S408 S 0.06116 0.43976 0.19012 0.0
N409 N 0.04937 0.45259 0.13965 0.0
N410 N 0.10496 0.44575 0.18683 0.0
C411 C 0.1117 0.45864 0.14299 0.0
C412 C 0.0816 0.46258 0.11728 0.0
C413 C 0.64177 0.08955 0.58101 0.0
C414 C 0.61311 0.0593 0.60331 0.0
C415 C 0.67317 0.12284 0.60833 0.0
C416 C 0.67721 0.12702 0.65891 0.0
H417 H 0.6392 0.08832 0.54196 0.0
H418 H 0.69404 0.14584 0.58985 0.0
S419 S 0.61408 0.055 0.73549 0.0
N420 N 0.59322 0.03462 0.67951 0.0
N421 N 0.65311 0.0974 0.73078 0.0
C422 C 0.65056 0.09632 0.68192 0.0
C423 C 0.6183 0.0623 0.65412 0.0
C424 C 0.53771 0.64799 0.03245 0.0
C425 C 0.54875 0.62287 0.0522 0.0
C426 C 0.54139 0.68067 0.06118 0.0
C427 C 0.55605 0.68938 0.11079 0.0
H428 H 0.52507 0.64179 0.99488 0.0
H429 H 0.5317 0.69866 0.04483 0.0
S430 S 0.59168 0.63527 0.17993 0.0
N431 N 0.57754 0.61124 0.12466 0.0
N432 N 0.58325 0.67168 0.17793 0.0
C433 C 0.56841 0.66552 0.13058 0.0
C434 C 0.56503 0.63255 0.10154 0.0
C435 C 0.91887 0.55212 0.54098 0.0
C436 C 0.90529 0.51607 0.51229 0.0
C437 C 0.89471 0.55804 0.56996 0.0
C438 C 0.85606 0.52818 0.57119 0.0
H439 H 0.94935 0.57486 0.54403 0.0
H440 H 0.90726 0.58503 0.59451 0.0
S441 S 0.80464 0.43056 0.49788 0.0
N442 N 0.84932 0.45176 0.4826 0.0
N443 N 0.80378 0.46304 0.53745 0.0
C444 C 0.84086 0.49348 0.53916 0.0
C445 C 0.86554 0.48741 0.50945 0.0
C446 C 0.356 0.91816 0.05366 0.0
C447 C 0.39672 0.93433 0.06387 0.0
C448 C 0.33005 0.89283 0.08371 0.0
C449 C 0.34375 0.88233 0.12487 0.0
H450 H 0.34422 0.92607 0.02322 0.0
H451 H 0.29912 0.88222 0.07533 0.0
S452 S 0.44739 0.91152 0.16189 0.0
N453 N 0.44902 0.93475 0.11496 0.0
N454 N 0.40086 0.88671 0.16981 0.0
C455 C 0.38433 0.8968 0.13357 0.0
C456 C 0.41055 0.92281 0.10356 0.0
C457 C 0.53134 0.41359 0.55852 0.0
C458 C 0.50699 0.40237 0.51422 0.0
C459 C 0.53033 0.38591 0.58687 0.0
C460 C 0.50471 0.34572 0.57223 0.0
H461 H 0.55043 0.44427 0.57232 0.0
H462 H 0.5485 0.39628 0.62169 0.0
S463 S 0.4372 0.30118 0.45704 0.0
N464 N 0.45823 0.34875 0.45525 0.0
N465 N 0.45628 0.29597 0.50856 0.0
C466 C 0.48129 0.33397 0.52686 0.0
C467 C 0.48253 0.36248 0.49772 0.0
C468 C 0.56095 0.92342 0.42947 0.0
C469 C 0.54892 0.94652 0.40599 0.0
C470 C 0.56544 0.89462 0.40334 0.0
C471 C 0.55794 0.88751 0.35258 0.0
H472 H 0.56619 0.92702 0.46862 0.0
H473 H 0.57369 0.87694 0.42307 0.0
S474 S 0.52556 0.93904 0.27314 0.0
N475 N 0.5299 0.96005 0.32838 0.0
N476 N 0.53806 0.90572 0.27953 0.0
C477 C 0.54657 0.91065 0.32845 0.0
C478 C 0.54228 0.94026 0.35502 0.0
C479 C 0.65271 0.5661 0.95818 0.0
C480 C 0.63644 0.53695 0.98867 0.0
C481 C 0.68109 0.56854 0.92982 0.0
C482 C 0.69443 0.54191 0.93073 0.0
H483 H 0.64159 0.58569 0.95376 0.0
H484 H 0.69052 0.58977 0.90449 0.0
S485 S 0.66621 0.46443 0.0107 0.0
N486 N 0.63915 0.48392 0.02262 0.0
N487 N 0.69331 0.48898 0.96985 0.0
C488 C 0.68099 0.51482 0.96428 0.0
C489 C 0.65194 0.51234 0.9933 0.0
C490 C 0.11723 0.6236 0.47616 0.0
C491 C 0.0763 0.60293 0.46342 0.0
C492 C 0.14228 0.65185 0.44837 0.0
C493 C 0.12743 0.66122 0.4073 0.0
H494 H 0.13013 0.61679 0.50664 0.0
H495 H 0.17358 0.66628 0.45889 0.0
S496 S 0.02253 0.61691 0.35972 0.0
N497 N 0.02222 0.59484 0.40743 0.0
N498 N 0.06899 0.64808 0.35626 0.0
C499 C 0.08656 0.64167 0.39519 0.0
C500 C 0.06115 0.61255 0.4229 0.0
C501 C 0.45925 0.11882 0.97701 0.0
C502 C 0.49302 0.11728 0.99127 0.0
C503 C 0.4592 0.1425 0.94215 0.0
C504 C 0.49253 0.16419 0.91939 0.0
H505 H 0.43219 0.1 0.99084 0.0
H506 H 0.43229 0.14188 0.9307 0.0
S507 S 0.58788 0.16943 0.94319 0.0
N508 N 0.56067 0.13997 0.98049 0.0
N509 N 0.5601 0.18316 0.91399 0.0
C510 C 0.52668 0.16371 0.93434 0.0
C511 C 0.52704 0.14055 0.97056 0.0
C512 C 0.3953 0.46454 0.39127 0.0
C513 C 0.40242 0.47776 0.44146 0.0
C514 C 0.36272 0.45987 0.36161 0.0
C515 C 0.33558 0.46801 0.38065 0.0
H516 H 0.41571 0.45877 0.37414 0.0
H517 H 0.35939 0.45096 0.32311 0.0
S518 S 0.3379 0.50019 0.50948 0.0
N519 N 0.37752 0.49675 0.50888 0.0
N520 N 0.31616 0.48742 0.453 0.0
C521 C 0.34109 0.47953 0.43084 0.0
C522 C 0.37446 0.48454 0.46121 0.0
C523 C 0.91626 0.37267 0.94697 0.0
C524 C 0.90796 0.38561 0.99042 0.0
C525 C 0.88732 0.34073 0.91539 0.0
C526 C 0.84891 0.3194 0.9263 0.0
H527 H 0.94512 0.38836 0.93589 0.0
H528 H 0.89494 0.33324 0.88142 0.0
S529 S 0.81206 0.33798 0.03702 0.0
N530 N 0.85858 0.3729 0.04397 0.0
N531 N 0.8042 0.31119 0.98472 0.0
C532 C 0.84035 0.33026 0.97067 0.0
C533 C 0.8699 0.3636 1.00283 0.0
C534 C 0.90544 0.52406 0.94474 0.0
C535 C 0.93801 0.5253 0.92599 0.0
C536 C 0.87656 0.52655 0.91554 0.0
C537 C 0.87891 0.53046 0.86627 0.0
H538 H 0.90179 0.52063 0.98239 0.0
H539 H 0.85203 0.52512 0.93156 0.0
S540 S 0.95721 0.53522 0.79829 0.0
N541 N 0.97026 0.53088 0.85397 0.0
N542 N 0.916 0.53556 0.79956 0.0
C543 C 0.91119 0.53211 0.84687 0.0
C544 C 0.9407 0.5296 0.87655 0.0
C545 C 0.38963 0.92314 0.42411 0.0
C546 C 0.40211 0.91568 0.46853 0.0
C547 C 0.35518 0.89509 0.39534 0.0
C548 C 0.33105 0.85863 0.41013 0.0
H549 H 0.40731 0.95044 0.41016 0.0
H550 H 0.34795 0.90159 0.36041 0.0
S551 S 0.34809 0.82465 0.52409 0.0
N552 N 0.38628 0.86917 0.52674 0.0
N553 N 0.3204 0.8166 0.47253 0.0
C554 C 0.34187 0.85104 0.45518 0.0
C555 C 0.37755 0.87959 0.48452 0.0
C556 C 0.49149 0.39162 0.90776 0.0
C557 C 0.49336 0.42426 0.88871 0.0
C558 C 0.49041 0.36087 0.87813 0.0
C559 C 0.49131 0.36128 0.82804 0.0
H560 H 0.49159 0.39004 0.94627 0.0
H561 H 0.48954 0.33679 0.89466 0.0
S562 S 0.49522 0.43847 0.75889 0.0
N563 N 0.49517 0.45407 0.81542 0.0
N564 N 0.49318 0.39612 0.76007 0.0
C565 C 0.49228 0.39296 0.80804 0.0
C566 C 0.49323 0.4244 0.8382 0.0
C567 C 0.09056 0.47762 0.43905 0.0
C568 C 0.05075 0.45651 0.4191 0.0
C569 C 0.11964 0.47815 0.41345 0.0
C570 C 0.11026 0.45717 0.36706 0.0
H571 H 0.09977 0.49519 0.4742 0.0
H572 H 0.14984 0.49542 0.43005 0.0
S573 S 0.01063 0.39501 0.29939 0.0
N574 N 1.0035 0.41257 0.35062 0.0
N575 N 0.0583 0.4131 0.30281 0.0
C576 C 0.07056 0.4346 0.3473 0.0
C577 C 0.04082 0.43439 0.37321 0.0
C578 C 0.60633 0.06897 0.92854 0.0
C579 C 0.56755 0.05616 0.90899 0.0
C580 C 0.63845 0.09518 0.90674 0.0
C581 C 0.63336 0.11065 0.86499 0.0
H582 H 0.61197 0.05948 0.96196 0.0
H583 H 0.66761 0.10472 0.92406 0.0
S584 S 0.53764 0.08616 0.79903 0.0
N585 N 0.52581 0.06032 0.84481 0.0
N586 N 0.58589 0.10989 0.804 0.0
C587 C 0.59458 0.09743 0.84446 0.0
C588 C 0.56182 0.07011 0.8663 0.0
C589 C 0.53465 0.61665 0.42671 0.0
C590 C 0.55087 0.59406 0.41075 0.0
C591 C 0.5369 0.6468 0.40198 0.0
C592 C 0.55591 0.6561 0.36054 0.0
H593 H 0.51902 0.61042 0.45796 0.0
H594 H 0.52351 0.66292 0.41536 0.0
S595 S 0.60456 0.60731 0.30438 0.0
N596 N 0.58752 0.58401 0.35119 0.0
N597 N 0.59209 0.64108 0.30499 0.0
C598 C 0.5732 0.63461 0.34475 0.0
C599 C 0.57056 0.6035 0.36971 0.0
C600 C 0.48634 0.0865 0.59879 0.0
C601 C 0.50042 0.09366 0.55354 0.0
C602 C 0.48452 0.1151 0.62916 0.0
C603 C 0.49626 0.15222 0.61569 0.0
H604 H 0.47718 0.05861 0.61159 0.0
H605 H 0.47422 0.10826 0.66389 0.0
S606 S 0.53536 0.1869 0.50191 0.0
N607 N 0.52646 0.14151 0.49722 0.0
N608 N 0.52252 0.19505 0.55446 0.0
C609 C 0.51008 0.16 0.57067 0.0
C610 C 0.5121 0.1308 0.53952 0.0
C611 C 0.41377 0.49329 0.06672 0.0
C612 C 0.43571 0.4763 0.08238 0.0
C613 C 0.3842 0.4921 0.09193 0.0
C614 C 0.37481 0.47336 0.13346 0.0
H615 H 0.42004 0.50863 0.03526 0.0
H616 H 0.36842 0.50586 0.07867 0.0
S617 S 0.42236 0.42376 0.18977 0.0
N618 N 0.44543 0.43987 0.14247 0.0
N619 N 0.38919 0.43709 0.1893 0.0
C620 C 0.39579 0.4556 0.14924 0.0
C621 C 0.42638 0.45722 0.1239 0.0
C622 C 0.94628 0.43114 0.65204 0.0
C623 C 0.95491 0.42204 0.60659 0.0
C624 C 0.92095 0.40154 0.6782 0.0
C625 C 0.90349 0.36138 0.66052 0.0
H626 H 0.95776 0.46139 0.66655 0.0
H627 H 0.91403 0.4104 0.71188 0.0
S628 S 0.92164 0.32237 0.54626 0.0
N629 N 0.94649 0.37021 0.54669 0.0
N630 N 0.9011 0.31488 0.59651 0.0
C631 C 0.91377 0.35215 0.61615 0.0
C632 C 0.93883 0.38229 0.58915 0.0
C633 C 0.56293 0.97706 0.13379 0.0
C634 C 0.54764 0.97066 0.08471 0.0
C635 C 0.56791 0.94867 0.15468 0.0
C636 C 0.55725 0.91293 0.1273 0.0
H637 H 0.5694 1.00327 0.15675 0.0
H638 H 0.57857 0.95396 0.19289 0.0
S639 S 0.52184 0.88401 0.99627 0.0
N640 N 0.52676 0.92756 0.0081 0.0
N641 N 0.535 0.87413 0.04828 0.0
C642 C 0.54422 0.90708 0.07788 0.0
C643 C 0.53975 0.93601 0.05634 0.0
C644 C 0.60196 0.53625 0.6526 0.0
C645 C 0.60435 0.54036 0.60302 0.0
C646 C 0.6324 0.5368 0.68293 0.0
C647 C 0.66651 0.54184 0.66498 0.0
H648 H 0.57575 0.53098 0.66768 0.0
H649 H 0.62893 0.53255 0.72043 0.0
S650 S 0.68865 0.55586 0.53925 0.0
N651 N 0.64506 0.55128 0.53849 0.0
N652 N 0.70142 0.55211 0.59526 0.0
C653 C 0.66973 0.54699 0.61609 0.0
C654 C 0.63896 0.54637 0.58528 0.0
C655 C 0.07145 0.62918 0.10181 0.0
C656 C 0.05079 0.59642 0.12596 0.0
C657 C 0.10348 0.66381 0.12607 0.0
C658 C 0.11599 0.66686 0.17528 0.0
H659 H 0.06383 0.62746 0.0633 0.0
H660 H 0.1196 0.6878 0.10576 0.0
S661 S 0.0719 0.59047 0.25554 0.0
N662 N 0.04468 0.56985 0.20242 0.0
N663 N 0.10526 0.63528 0.24793 0.0
C664 C 0.09497 0.63507 0.2004 0.0
C665 C 0.06209 0.59977 0.1758 0.0
loop_
_geom_bond_atom_site_label_1
_geom_bond_atom_site_label_2
_geom_bond_distance
_geom_bond_site_symmetry_2
_ccdc_geom_bond_type
C0 O2 1.247 . S
C0 O4 1.258 . S
C1 O8 1.247 . S
C1 O9 1.258 . S
O2 C0 1.247 . S
O2 Zn3 2.028 1_455 S
Zn3 O2 2.028 1_655 S
Zn3 O7 2.035 1_554 S
Zn3 O9 2.035 1_554 S
Zn3 O10 2.028 1_655 S
O4 C0 1.258 . S
O4 Zn5 2.035 1_554 S
Zn5 O4 2.035 1_556 S
Zn5 O6 2.028 1_455 S
Zn5 O8 2.028 1_455 S
Zn5 O11 2.035 1_556 S
O6 Zn5 2.028 1_655 S
O6 C12 1.247 . S
O7 Zn3 2.035 1_556 S
O7 C12 1.258 . S
O8 C1 1.247 . S
O8 Zn5 2.028 1_655 S
O9 C1 1.258 . S
O9 Zn3 2.035 1_556 S
O10 Zn3 2.028 1_455 S
O10 C13 1.247 . S
O11 Zn5 2.035 1_554 S
O11 C13 1.258 . S
C12 O6 1.247 . S
C12 O7 1.258 . S
C13 O10 1.247 . S
C13 O11 1.258 . S
C14 O16 1.247 . S
C14 O18 1.258 . S
C15 O22 1.247 . S
C15 O23 1.258 . S
O16 C14 1.247 . S
O16 Zn17 2.028 1_545 S
Zn17 O16 2.028 1_565 S
Zn17 O21 2.035 . S
Zn17 O23 2.035 . S
Zn17 O24 2.028 1_565 S
O18 C14 1.258 . S
O18 Zn19 2.035 . S
Zn19 O18 2.035 . S
Zn19 O20 2.028 1_545 S
Zn19 O22 2.028 1_545 S
Zn19 O25 2.035 . S
O20 Zn19 2.028 1_565 S
O20 C26 1.247 . S
O21 Zn17 2.035 . S
O21 C26 1.258 . S
O22 C15 1.247 . S
O22 Zn19 2.028 1_565 S
O23 C15 1.258 . S
O23 Zn17 2.035 . S
O24 Zn17 2.028 1_545 S
O24 C27 1.247 . S
O25 Zn19 2.035 . S
O25 C27 1.258 . S
C26 O20 1.247 . S
C26 O21 1.258 . S
C27 O24 1.247 . S
C27 O25 1.258 . S
C28 O30 1.247 . S
C28 O32 1.258 . S
C29 O36 1.247 . S
C29 O37 1.258 . S
O30 C28 1.247 . S
O30 Zn31 2.028 . S
Zn31 O30 2.028 . S
Zn31 O35 2.035 1_556 S
Zn31 O37 2.035 1_556 S
Zn31 O38 2.028 . S
O32 C28 1.258 . S
O32 Zn33 2.035 1_556 S
Zn33 O32 2.035 1_554 S
Zn33 O34 2.028 . S
Zn33 O36 2.028 . S
Zn33 O39 2.035 1_554 S
O34 Zn33 2.028 . S
O34 C40 1.247 . S
O35 Zn31 2.035 1_554 S
O35 C40 1.258 . S
O36 C29 1.247 . S
O36 Zn33 2.028 . S
O37 C29 1.258 . S
O37 Zn31 2.035 1_554 S
O38 Zn31 2.028 . S
O38 C41 1.247 . S
O39 Zn33 2.035 1_556 S
O39 C41 1.258 . S
C40 O34 1.247 . S
C40 O35 1.258 . S
C41 O38 1.247 . S
C41 O39 1.258 . S
C42 O44 1.247 . S
C42 O46 1.258 . S
C43 O50 1.247 . S
C43 O51 1.258 1_655 S
O44 C42 1.247 . S
O44 Zn45 2.028 . S
Zn45 O44 2.028 . S
Zn45 O49 2.035 . S
Zn45 O51 2.035 . S
Zn45 O52 2.028 . S
O46 C42 1.258 . S
O46 Zn47 2.035 1_455 S
Zn47 O46 2.035 1_655 S
Zn47 O48 2.028 . S
Zn47 O50 2.028 . S
Zn47 O53 2.035 1_655 S
O48 Zn47 2.028 . S
O48 C54 1.247 . S
O49 Zn45 2.035 . S
O49 C54 1.258 1_455 S
O50 C43 1.247 . S
O50 Zn47 2.028 . S
O51 C43 1.258 1_455 S
O51 Zn45 2.035 . S
O52 Zn45 2.028 . S
O52 C55 1.247 . S
O53 Zn47 2.035 1_455 S
O53 C55 1.258 . S
C54 O48 1.247 . S
C54 O49 1.258 1_655 S
C55 O52 1.247 . S
C55 O53 1.258 . S
C56 O58 1.247 . S
C56 O60 1.258 . S
C57 O64 1.247 . S
C57 O65 1.258 . S
O58 C56 1.247 . S
O58 Zn59 2.028 1_565 S
Zn59 O58 2.028 1_545 S
Zn59 O63 2.035 1_554 S
Zn59 O65 2.035 1_554 S
Zn59 O66 2.028 1_545 S
O60 C56 1.258 . S
O60 Zn61 2.035 1_554 S
Zn61 O60 2.035 1_556 S
Zn61 O62 2.028 1_565 S
Zn61 O64 2.028 1_565 S
Zn61 O67 2.035 1_556 S
O62 Zn61 2.028 1_545 S
O62 C68 1.247 . S
O63 Zn59 2.035 1_556 S
O63 C68 1.258 . S
O64 C57 1.247 . S
O64 Zn61 2.028 1_545 S
O65 C57 1.258 . S
O65 Zn59 2.035 1_556 S
O66 Zn59 2.028 1_565 S
O66 C69 1.245 . S
O67 Zn61 2.035 1_554 S
O67 C69 1.258 . S
C68 O62 1.247 . S
C68 O63 1.258 . S
C69 O66 1.245 . S
C69 O67 1.258 . S
C70 O72 1.247 . S
C70 O74 1.258 . S
C71 O78 1.247 . S
C71 O79 1.258 . S
O72 C70 1.247 . S
O72 Zn73 2.028 . S
Zn73 O72 2.028 . S
Zn73 O77 2.035 . S
Zn73 O79 2.035 . S
Zn73 O80 2.028 . S
O74 C70 1.258 . S
O74 Zn75 2.035 . S
Zn75 O74 2.035 . S
Zn75 O76 2.028 . S
Zn75 O78 2.028 . S
Zn75 O81 2.035 . S
O76 Zn75 2.028 . S
O76 C82 1.247 . S
O77 Zn73 2.035 . S
O77 C82 1.258 . S
O78 C71 1.247 . S
O78 Zn75 2.028 . S
O79 C71 1.258 . S
O79 Zn73 2.035 . S
O80 Zn73 2.028 . S
O80 C83 1.247 . S
O81 Zn75 2.035 . S
O81 C83 1.258 . S
C82 O76 1.247 . S
C82 O77 1.258 . S
C83 O80 1.247 . S
C83 O81 1.258 . S
C84 C85 1.443 . S
C84 N88 1.376 . S
C84 C122 1.389 . S
C85 C84 1.443 . S
C85 C86 1.340 . S
C85 H125 0.951 . S
C86 C85 1.340 . S
C86 C87 1.439 . S
C86 H126 0.950 . S
C87 C86 1.439 . S
C87 N88 1.374 . S
C87 C121 1.395 . S
N88 C84 1.376 . S
N88 C87 1.374 . S
N88 Co89 2.008 . S
Co89 N88 2.008 . S
Co89 N90 1.995 . S
Co89 N95 2.008 . S
Co89 N100 1.995 . S
Co89 N105 2.282 . S
Co89 N111 2.282 . S
N90 Co89 1.995 . S
N90 C91 1.376 . S
N90 C94 1.383 . S
C91 N90 1.376 . S
C91 C92 1.446 . S
C91 C121 1.391 . S
C92 C91 1.446 . S
C92 C93 1.339 . S
C92 H127 0.949 . S
C93 C92 1.339 . S
C93 C94 1.439 . S
C93 H128 0.950 . S
C94 N90 1.383 . S
C94 C93 1.439 . S
C94 C123 1.392 . S
N95 Co89 2.008 . S
N95 C96 1.376 . S
N95 C99 1.374 . S
C96 N95 1.376 . S
C96 C97 1.443 . S
C96 C123 1.389 . S
C97 C96 1.443 . S
C97 C98 1.340 . S
C97 H129 0.951 . S
C98 C97 1.340 . S
C98 C99 1.439 . S
C98 H130 0.950 . S
C99 N95 1.374 . S
C99 C98 1.439 . S
C99 C124 1.395 . S
N100 Co89 1.995 . S
N100 C101 1.376 . S
N100 C104 1.383 . S
C101 N100 1.376 . S
C101 C102 1.446 . S
C101 C124 1.391 . S
C102 C101 1.446 . S
C102 C103 1.339 . S
C102 H131 0.949 . S
C103 C102 1.339 . S
C103 C104 1.439 . S
C103 H132 0.950 . S
C104 N100 1.383 . S
C104 C103 1.439 . S
C104 C122 1.392 . S
N105 Co89 2.282 . S
N105 C108 1.332 . S
N105 C110 1.332 . S
C106 C107 1.386 . S
C106 C109 1.388 . S
C107 C106 1.386 . S
C107 C108 1.382 . S
C107 H133 0.950 . S
C108 N105 1.332 . S
C108 C107 1.382 . S
C108 H119 0.952 . S
C109 C106 1.388 . S
C109 C110 1.382 . S
C109 H134 0.950 . S
C110 N105 1.332 . S
C110 C109 1.382 . S
C110 H120 0.948 . S
N111 Co89 2.282 . S
N111 C115 1.332 . S
N111 C116 1.332 . S
C112 C113 1.388 . S
C112 C116 1.382 . S
C112 H135 0.950 . S
C113 C112 1.388 . S
C113 C114 1.386 . S
C114 C113 1.386 . S
C114 C115 1.382 . S
C114 H136 0.950 . S
C115 N111 1.332 . S
C115 C114 1.382 . S
C115 H117 0.952 . S
C116 N111 1.332 . S
C116 C112 1.382 . S
C116 H118 0.948 . S
H117 C115 0.952 . S
H118 C116 0.948 . S
H119 C108 0.952 . S
H120 C110 0.948 . S
C121 C87 1.395 . S
C121 C91 1.391 . S
C122 C84 1.389 . S
C122 C104 1.392 . S
C123 C94 1.392 . S
C123 C96 1.389 . S
C124 C99 1.395 . S
C124 C101 1.391 . S
H125 C85 0.951 . S
H126 C86 0.950 . S
H127 C92 0.949 . S
H128 C93 0.950 . S
H129 C97 0.951 . S
H130 C98 0.950 . S
H131 C102 0.949 . S
H132 C103 0.950 . S
H133 C107 0.950 . S
H134 C109 0.950 . S
H135 C112 0.950 . S
H136 C114 0.950 . S
C137 C138 1.443 . S
C137 N141 1.376 . S
C137 C175 1.389 . S
C138 C137 1.443 . S
C138 C139 1.340 . S
C138 H178 0.951 . S
C139 C138 1.340 . S
C139 C140 1.439 . S
C139 H179 0.950 . S
C140 C139 1.439 . S
C140 N141 1.374 . S
C140 C174 1.395 . S
N141 C137 1.376 . S
N141 C140 1.374 . S
N141 Co142 2.008 . S
Co142 N141 2.008 . S
Co142 N143 1.995 . S
Co142 N148 2.008 . S
Co142 N153 1.995 . S
Co142 N158 2.282 . S
Co142 N164 2.282 . S
N143 Co142 1.995 . S
N143 C144 1.376 . S
N143 C147 1.383 . S
C144 N143 1.376 . S
C144 C145 1.446 . S
C144 C174 1.391 . S
C145 C144 1.446 . S
C145 C146 1.339 . S
C145 H180 0.949 . S
C146 C145 1.339 . S
C146 C147 1.439 . S
C146 H181 0.950 . S
C147 N143 1.383 . S
C147 C146 1.439 . S
C147 C176 1.392 . S
N148 Co142 2.008 . S
N148 C149 1.376 . S
N148 C152 1.374 . S
C149 N148 1.376 . S
C149 C150 1.443 . S
C149 C176 1.389 . S
C150 C149 1.443 . S
C150 C151 1.340 . S
C150 H182 0.951 . S
C151 C150 1.340 . S
C151 C152 1.439 . S
C151 H183 0.950 . S
C152 N148 1.374 . S
C152 C151 1.439 . S
C152 C177 1.395 . S
N153 Co142 1.995 . S
N153 C154 1.376 . S
N153 C157 1.383 . S
C154 N153 1.376 . S
C154 C155 1.446 . S
C154 C177 1.391 . S
C155 C154 1.446 . S
C155 C156 1.339 . S
C155 H184 0.949 . S
C156 C155 1.339 . S
C156 C157 1.439 . S
C156 H185 0.950 . S
C157 N153 1.383 . S
C157 C156 1.439 . S
C157 C175 1.392 . S
N158 Co142 2.282 . S
N158 C161 1.332 . S
N158 C163 1.332 . S
C159 C160 1.386 . S
C159 C162 1.388 . S
C160 C159 1.386 . S
C160 C161 1.382 . S
C160 H186 0.950 . S
C161 N158 1.332 . S
C161 C160 1.382 . S
C161 H172 0.952 . S
C162 C159 1.388 . S
C162 C163 1.382 . S
C162 H187 0.950 . S
C163 N158 1.332 . S
C163 C162 1.382 . S
C163 H173 0.948 . S
N164 Co142 2.282 . S
N164 C168 1.332 . S
N164 C169 1.332 . S
C165 C166 1.388 . S
C165 C169 1.382 . S
C165 H188 0.950 . S
C166 C165 1.388 . S
C166 C167 1.386 . S
C167 C166 1.386 . S
C167 C168 1.382 . S
C167 H189 0.950 . S
C168 N164 1.332 . S
C168 C167 1.382 . S
C168 H170 0.952 . S
C169 N164 1.332 . S
C169 C165 1.382 . S
C169 H171 0.948 . S
H170 C168 0.952 . S
H171 C169 0.948 . S
H172 C161 0.952 . S
H173 C163 0.948 . S
C174 C140 1.395 . S
C174 C144 1.391 . S
C175 C137 1.389 . S
C175 C157 1.392 . S
C176 C147 1.392 . S
C176 C149 1.389 . S
C177 C152 1.395 . S
C177 C154 1.391 . S
H178 C138 0.951 . S
H179 C139 0.950 . S
H180 C145 0.949 . S
H181 C146 0.950 . S
H182 C150 0.951 . S
H183 C151 0.950 . S
H184 C155 0.949 . S
H185 C156 0.950 . S
H186 C160 0.950 . S
H187 C162 0.950 . S
H188 C165 0.950 . S
H189 C167 0.950 . S
C190 C191 1.443 . S
C190 N194 1.376 . S
C190 C228 1.389 . S
C191 C190 1.443 . S
C191 C192 1.340 . S
C191 H231 0.951 . S
C192 C191 1.340 . S
C192 C193 1.439 . S
C192 H232 0.950 . S
C193 C192 1.439 . S
C193 N194 1.374 . S
C193 C227 1.395 . S
N194 C190 1.376 . S
N194 C193 1.374 . S
N194 Co195 2.008 . S
Co195 N194 2.008 . S
Co195 N196 1.995 . S
Co195 N201 2.008 . S
Co195 N206 1.995 . S
Co195 N211 2.282 . S
Co195 N217 2.282 . S
N196 Co195 1.995 . S
N196 C197 1.376 . S
N196 C200 1.383 . S
C197 N196 1.376 . S
C197 C198 1.446 . S
C197 C227 1.391 . S
C198 C197 1.446 . S
C198 C199 1.339 . S
C198 H233 0.949 . S
C199 C198 1.339 . S
C199 C200 1.439 . S
C199 H234 0.950 . S
C200 N196 1.383 . S
C200 C199 1.439 . S
C200 C229 1.392 . S
N201 Co195 2.008 . S
N201 C202 1.376 . S
N201 C205 1.374 . S
C202 N201 1.376 . S
C202 C203 1.443 . S
C202 C229 1.389 . S
C203 C202 1.443 . S
C203 C204 1.340 . S
C203 H235 0.951 . S
C204 C203 1.340 . S
C204 C205 1.439 . S
C204 H236 0.950 . S
C205 N201 1.374 . S
C205 C204 1.439 . S
C205 C230 1.395 . S
N206 Co195 1.995 . S
N206 C207 1.376 . S
N206 C210 1.383 . S
C207 N206 1.376 . S
C207 C208 1.446 . S
C207 C230 1.391 . S
C208 C207 1.446 . S
C208 C209 1.339 . S
C208 H237 0.949 . S
C209 C208 1.339 . S
C209 C210 1.439 . S
C209 H238 0.950 . S
C210 N206 1.383 . S
C210 C209 1.439 . S
C210 C228 1.392 . S
N211 Co195 2.282 . S
N211 C214 1.332 . S
N211 C216 1.332 . S
C212 C213 1.386 . S
C212 C215 1.388 . S
C213 C212 1.386 . S
C213 C214 1.382 . S
C213 H239 0.950 . S
C214 N211 1.332 . S
C214 C213 1.382 . S
C214 H225 0.952 . S
C215 C212 1.388 . S
C215 C216 1.382 . S
C215 H240 0.950 . S
C216 N211 1.332 . S
C216 C215 1.382 . S
C216 H226 0.948 . S
N217 Co195 2.282 . S
N217 C221 1.332 . S
N217 C222 1.332 . S
C218 C219 1.388 . S
C218 C222 1.382 . S
C218 H241 0.950 . S
C219 C218 1.388 . S
C219 C220 1.386 . S
C220 C219 1.386 . S
C220 C221 1.382 . S
C220 H242 0.950 . S
C221 N217 1.332 . S
C221 C220 1.382 . S
C221 H223 0.952 . S
C222 N217 1.332 . S
C222 C218 1.382 . S
C222 H224 0.948 . S
H223 C221 0.952 . S
H224 C222 0.948 . S
H225 C214 0.952 . S
H226 C216 0.948 . S
C227 C193 1.395 . S
C227 C197 1.391 . S
C228 C190 1.389 . S
C228 C210 1.392 . S
C229 C200 1.392 . S
C229 C202 1.389 . S
C230 C205 1.395 . S
C230 C207 1.391 . S
H231 C191 0.951 . S
H232 C192 0.950 . S
H233 C198 0.949 . S
H234 C199 0.950 . S
H235 C203 0.951 . S
H236 C204 0.950 . S
H237 C208 0.949 . S
H238 C209 0.950 . S
H239 C213 0.950 . S
H240 C215 0.950 . S
H241 C218 0.950 . S
H242 C220 0.950 . S
C243 C244 1.443 . S
C243 N247 1.376 . S
C243 C281 1.389 . S
C244 C243 1.443 . S
C244 C245 1.340 . S
C244 H284 0.951 . S
C245 C244 1.340 . S
C245 C246 1.439 . S
C245 H285 0.950 . S
C246 C245 1.439 . S
C246 N247 1.374 . S
C246 C280 1.395 . S
N247 C243 1.376 . S
N247 C246 1.374 . S
N247 Co248 2.008 . S
Co248 N247 2.008 . S
Co248 N249 1.995 . S
Co248 N254 2.008 . S
Co248 N259 1.995 . S
Co248 N264 2.282 . S
Co248 N270 2.282 . S
N249 Co248 1.995 . S
N249 C250 1.376 . S
N249 C253 1.383 . S
C250 N249 1.376 . S
C250 C251 1.446 . S
C250 C280 1.391 . S
C251 C250 1.446 . S
C251 C252 1.339 . S
C251 H286 0.949 . S
C252 C251 1.339 . S
C252 C253 1.439 . S
C252 H287 0.950 . S
C253 N249 1.383 . S
C253 C252 1.439 . S
C253 C282 1.392 . S
N254 Co248 2.008 . S
N254 C255 1.376 . S
N254 C258 1.374 . S
C255 N254 1.376 . S
C255 C256 1.443 . S
C255 C282 1.389 . S
C256 C255 1.443 . S
C256 C257 1.340 . S
C256 H288 0.951 . S
C257 C256 1.340 . S
C257 C258 1.439 . S
C257 H289 0.950 . S
C258 N254 1.374 . S
C258 C257 1.439 . S
C258 C283 1.395 . S
N259 Co248 1.995 . S
N259 C260 1.376 . S
N259 C263 1.383 . S
C260 N259 1.376 . S
C260 C261 1.446 . S
C260 C283 1.391 . S
C261 C260 1.446 . S
C261 C262 1.339 . S
C261 H290 0.949 . S
C262 C261 1.339 . S
C262 C263 1.439 . S
C262 H291 0.950 . S
C263 N259 1.383 . S
C263 C262 1.439 . S
C263 C281 1.392 . S
N264 Co248 2.282 . S
N264 C267 1.332 . S
N264 C269 1.332 . S
C265 C266 1.386 . S
C265 C268 1.388 . S
C266 C265 1.386 . S
C266 C267 1.382 . S
C266 H292 0.950 . S
C267 N264 1.332 . S
C267 C266 1.382 . S
C267 H278 0.952 . S
C268 C265 1.388 . S
C268 C269 1.382 . S
C268 H293 0.950 . S
C269 N264 1.332 . S
C269 C268 1.382 . S
C269 H279 0.948 . S
N270 Co248 2.282 . S
N270 C274 1.332 . S
N270 C275 1.332 . S
C271 C272 1.388 . S
C271 C275 1.382 . S
C271 H294 0.950 . S
C272 C271 1.388 . S
C272 C273 1.386 . S
C273 C272 1.386 . S
C273 C274 1.382 . S
C273 H295 0.950 . S
C274 N270 1.332 . S
C274 C273 1.382 . S
C274 H276 0.952 . S
C275 N270 1.332 . S
C275 C271 1.382 . S
C275 H277 0.948 . S
H276 C274 0.952 . S
H277 C275 0.948 . S
H278 C267 0.952 . S
H279 C269 0.948 . S
C280 C246 1.395 . S
C280 C250 1.391 . S
C281 C243 1.389 . S
C281 C263 1.392 . S
C282 C253 1.392 . S
C282 C255 1.389 . S
C283 C258 1.395 . S
C283 C260 1.391 . S
H284 C244 0.951 . S
H285 C245 0.950 . S
H286 C251 0.949 . S
H287 C252 0.950 . S
H288 C256 0.951 . S
H289 C257 0.950 . S
H290 C261 0.949 . S
H291 C262 0.950 . S
H292 C266 0.950 . S
H293 C268 0.950 . S
H294 C271 0.950 . S
H295 C273 0.950 . S
C296 C297 1.443 . S
C296 N300 1.376 . S
C296 C334 1.389 . S
C297 C296 1.443 . S
C297 C298 1.340 . S
C297 H337 0.951 . S
C298 C297 1.340 . S
C298 C299 1.439 . S
C298 H338 0.950 . S
C299 C298 1.439 . S
C299 N300 1.374 . S
C299 C333 1.395 . S
N300 C296 1.376 . S
N300 C299 1.374 . S
N300 Co301 2.008 . S
Co301 N300 2.008 . S
Co301 N302 1.995 . S
Co301 N307 2.008 . S
Co301 N312 1.995 . S
Co301 N317 2.282 . S
Co301 N323 2.282 . S
N302 Co301 1.995 . S
N302 C303 1.376 . S
N302 C306 1.383 . S
C303 N302 1.376 . S
C303 C304 1.446 . S
C303 C333 1.391 . S
C304 C303 1.446 . S
C304 C305 1.339 . S
C304 H339 0.949 . S
C305 C304 1.339 . S
C305 C306 1.439 . S
C305 H340 0.950 . S
C306 N302 1.383 . S
C306 C305 1.439 . S
C306 C335 1.392 . S
N307 Co301 2.008 . S
N307 C308 1.376 . S
N307 C311 1.374 . S
C308 N307 1.376 . S
C308 C309 1.443 . S
C308 C335 1.389 . S
C309 C308 1.443 . S
C309 C310 1.340 . S
C309 H341 0.951 . S
C310 C309 1.340 . S
C310 C311 1.439 . S
C310 H342 0.950 . S
C311 N307 1.374 . S
C311 C310 1.439 . S
C311 C336 1.395 . S
N312 Co301 1.995 . S
N312 C313 1.376 . S
N312 C316 1.383 . S
C313 N312 1.376 . S
C313 C314 1.446 . S
C313 C336 1.391 . S
C314 C313 1.446 . S
C314 C315 1.339 . S
C314 H343 0.949 . S
C315 C314 1.339 . S
C315 C316 1.439 . S
C315 H344 0.950 . S
C316 N312 1.383 . S
C316 C315 1.439 . S
C316 C334 1.392 . S
N317 Co301 2.282 . S
N317 C320 1.332 . S
N317 C322 1.332 . S
C318 C319 1.386 . S
C318 C321 1.388 . S
C319 C318 1.386 . S
C319 C320 1.382 . S
C319 H345 0.950 . S
C320 N317 1.332 . S
C320 C319 1.382 . S
C320 H331 0.952 . S
C321 C318 1.388 . S
C321 C322 1.382 . S
C321 H346 0.950 . S
C322 N317 1.332 . S
C322 C321 1.382 . S
C322 H332 0.948 . S
N323 Co301 2.282 . S
N323 C327 1.332 . S
N323 C328 1.332 . S
C324 C325 1.388 . S
C324 C328 1.382 . S
C324 H347 0.950 . S
C325 C324 1.388 . S
C325 C326 1.386 . S
C326 C325 1.386 . S
C326 C327 1.382 . S
C326 H348 0.950 . S
C327 N323 1.332 . S
C327 C326 1.382 . S
C327 H329 0.952 . S
C328 N323 1.332 . S
C328 C324 1.382 . S
C328 H330 0.948 . S
H329 C327 0.952 . S
H330 C328 0.948 . S
H331 C320 0.952 . S
H332 C322 0.948 . S
C333 C299 1.395 . S
C333 C303 1.391 . S
C334 C296 1.389 . S
C334 C316 1.392 . S
C335 C306 1.392 . S
C335 C308 1.389 . S
C336 C311 1.395 . S
C336 C313 1.391 . S
H337 C297 0.951 . S
H338 C298 0.950 . S
H339 C304 0.949 . S
H340 C305 0.950 . S
H341 C309 0.951 . S
H342 C310 0.950 . S
H343 C314 0.949 . S
H344 C315 0.950 . S
H345 C319 0.950 . S
H346 C321 0.950 . S
H347 C324 0.950 . S
H348 C326 0.950 . S
C349 C350 1.443 . S
C349 N353 1.376 . S
C349 C387 1.389 . S
C350 C349 1.443 . S
C350 C351 1.340 . S
C350 H390 0.951 . S
C351 C350 1.340 . S
C351 C352 1.439 . S
C351 H391 0.950 . S
C352 C351 1.439 . S
C352 N353 1.374 . S
C352 C386 1.395 . S
N353 C349 1.376 . S
N353 C352 1.374 . S
N353 Co354 2.008 . S
Co354 N353 2.008 . S
Co354 N355 1.995 . S
Co354 N360 2.008 . S
Co354 N365 1.995 . S
Co354 N370 2.282 . S
Co354 N376 2.282 . S
N355 Co354 1.995 . S
N355 C356 1.376 . S
N355 C359 1.383 . S
C356 N355 1.376 . S
C356 C357 1.446 . S
C356 C386 1.391 . S
C357 C356 1.446 . S
C357 C358 1.339 . S
C357 H392 0.949 . S
C358 C357 1.339 . S
C358 C359 1.439 . S
C358 H393 0.950 . S
C359 N355 1.383 . S
C359 C358 1.439 . S
C359 C388 1.392 . S
N360 Co354 2.008 . S
N360 C361 1.376 . S
N360 C364 1.374 . S
C361 N360 1.376 . S
C361 C362 1.443 . S
C361 C388 1.389 . S
C362 C361 1.443 . S
C362 C363 1.340 . S
C362 H394 0.951 . S
C363 C362 1.340 . S
C363 C364 1.439 . S
C363 H395 0.950 . S
C364 N360 1.374 . S
C364 C363 1.439 . S
C364 C389 1.395 . S
N365 Co354 1.995 . S
N365 C366 1.376 . S
N365 C369 1.383 . S
C366 N365 1.376 . S
C366 C367 1.446 . S
C366 C389 1.391 . S
C367 C366 1.446 . S
C367 C368 1.339 . S
C367 H396 0.949 . S
C368 C367 1.339 . S
C368 C369 1.439 . S
C368 H397 0.950 . S
C369 N365 1.383 . S
C369 C368 1.439 . S
C369 C387 1.392 . S
N370 Co354 2.282 . S
N370 C373 1.332 . S
N370 C375 1.332 . S
C371 C372 1.386 . S
C371 C374 1.388 . S
C372 C371 1.386 . S
C372 C373 1.382 . S
C372 H398 0.950 . S
C373 N370 1.332 . S
C373 C372 1.382 . S
C373 H384 0.952 . S
C374 C371 1.388 . S
C374 C375 1.382 . S
C374 H399 0.950 . S
C375 N370 1.332 . S
C375 C374 1.382 . S
C375 H385 0.948 . S
N376 Co354 2.282 . S
N376 C380 1.332 . S
N376 C381 1.332 . S
C377 C378 1.388 . S
C377 C381 1.382 . S
C377 H400 0.950 . S
C378 C377 1.388 . S
C378 C379 1.386 . S
C379 C378 1.386 . S
C379 C380 1.382 . S
C379 H401 0.950 . S
C380 N376 1.332 . S
C380 C379 1.382 . S
C380 H382 0.952 . S
C381 N376 1.332 . S
C381 C377 1.382 . S
C381 H383 0.948 . S
H382 C380 0.952 . S
H383 C381 0.948 . S
H384 C373 0.952 . S
H385 C375 0.948 . S
C386 C352 1.395 . S
C386 C356 1.391 . S
C387 C349 1.389 . S
C387 C369 1.392 . S
C388 C359 1.392 . S
C388 C361 1.389 . S
C389 C364 1.395 . S
C389 C366 1.391 . S
H390 C350 0.951 . S
H391 C351 0.950 . S
H392 C357 0.949 . S
H393 C358 0.950 . S
H394 C362 0.951 . S
H395 C363 0.950 . S
H396 C367 0.949 . S
H397 C368 0.950 . S
H398 C372 0.950 . S
H399 C374 0.950 . S
H400 C377 0.950 . S
H401 C379 0.950 . S
C402 C403 1.369 . S
C402 C404 1.419 . S
C402 H406 0.930 . S
C403 C402 1.369 . S
C403 C412 1.429 . S
C404 C402 1.419 . S
C404 C405 1.363 . S
C404 H407 0.929 . S
C405 C404 1.363 . S
C405 C411 1.428 . S
H406 C402 0.930 . S
H407 C404 0.929 . S
S408 N409 1.613 1_655 S
S408 N410 1.610 1_655 S
N409 S408 1.613 1_455 S
N409 C412 1.350 . S
N410 S408 1.610 1_455 S
N410 C411 1.351 . S
C411 C405 1.428 . S
C411 N410 1.351 . S
C411 C412 1.434 . S
C412 C403 1.429 . S
C412 N409 1.350 . S
C412 C411 1.434 . S
C413 C414 1.369 . S
C413 C415 1.419 . S
C413 H417 0.930 . S
C414 C413 1.369 . S
C414 C423 1.429 . S
C415 C413 1.419 . S
C415 C416 1.363 . S
C415 H418 0.929 . S
C416 C415 1.363 . S
C416 C422 1.428 . S
H417 C413 0.930 . S
H418 C415 0.929 . S
S419 N420 1.613 1_565 S
S419 N421 1.610 1_565 S
N420 S419 1.613 1_545 S
N420 C423 1.350 . S
N421 S419 1.610 1_545 S
N421 C422 1.351 . S
C422 C416 1.428 . S
C422 N421 1.351 . S
C422 C423 1.434 . S
C423 C414 1.429 . S
C423 N420 1.350 . S
C423 C422 1.434 . S
C424 C425 1.369 . S
C424 C426 1.419 . S
C424 H428 0.930 . S
C425 C424 1.369 . S
C425 C434 1.429 . S
C426 C424 1.419 . S
C426 C427 1.363 . S
C426 H429 0.929 . S
C427 C426 1.363 . S
C427 C433 1.428 . S
H428 C424 0.930 . S
H429 C426 0.929 . S
S430 N431 1.613 . S
S430 N432 1.610 . S
N431 S430 1.613 . S
N431 C434 1.350 . S
N432 S430 1.610 . S
N432 C433 1.351 . S
C433 C427 1.428 . S
C433 N432 1.351 . S
C433 C434 1.434 . S
C434 C425 1.429 . S
C434 N431 1.350 . S
C434 C433 1.434 . S
C435 C436 1.369 . S
C435 C437 1.419 . S
C435 H439 0.930 . S
C436 C435 1.369 . S
C436 C445 1.429 . S
C437 C435 1.419 . S
C437 C438 1.363 . S
C437 H440 0.929 . S
C438 C437 1.363 . S
C438 C444 1.428 . S
H439 C435 0.930 . S
H440 C437 0.929 . S
S441 N442 1.613 . S
S441 N443 1.610 . S
N442 S441 1.613 . S
N442 C445 1.350 . S
N443 S441 1.610 . S
N443 C444 1.351 . S
C444 C438 1.428 . S
C444 N443 1.351 . S
C444 C445 1.434 . S
C445 C436 1.429 . S
C445 N442 1.350 . S
C445 C444 1.434 . S
C446 C447 1.369 . S
C446 C448 1.419 . S
C446 H450 0.930 . S
C447 C446 1.369 . S
C447 C456 1.429 . S
C448 C446 1.419 . S
C448 C449 1.363 . S
C448 H451 0.929 . S
C449 C448 1.363 . S
C449 C455 1.428 . S
H450 C446 0.930 . S
H451 C448 0.929 . S
S452 N453 1.613 . S
S452 N454 1.610 . S
N453 S452 1.613 . S
N453 C456 1.350 . S
N454 S452 1.610 . S
N454 C455 1.351 . S
C455 C449 1.428 . S
C455 N454 1.351 . S
C455 C456 1.434 . S
C456 C447 1.429 . S
C456 N453 1.350 . S
C456 C455 1.434 . S
C457 C458 1.369 . S
C457 C459 1.419 . S
C457 H461 0.930 . S
C458 C457 1.369 . S
C458 C467 1.429 . S
C459 C457 1.419 . S
C459 C460 1.363 . S
C459 H462 0.929 . S
C460 C459 1.363 . S
C460 C466 1.428 . S
H461 C457 0.930 . S
H462 C459 0.929 . S
S463 N464 1.613 . S
S463 N465 1.610 . S
N464 S463 1.613 . S
N464 C467 1.350 . S
N465 S463 1.610 . S
N465 C466 1.351 . S
C466 C460 1.428 . S
C466 N465 1.351 . S
C466 C467 1.434 . S
C467 C458 1.429 . S
C467 N464 1.350 . S
C467 C466 1.434 . S
C468 C469 1.369 . S
C468 C470 1.419 . S
C468 H472 0.930 . S
C469 C468 1.369 . S
C469 C478 1.429 . S
C470 C468 1.419 . S
C470 C471 1.363 . S
C470 H473 0.929 . S
C471 C470 1.363 . S
C471 C477 1.428 . S
H472 C468 0.930 . S
H473 C470 0.929 . S
S474 N475 1.613 . S
S474 N476 1.610 . S
N475 S474 1.613 . S
N475 C478 1.350 . S
N476 S474 1.610 . S
N476 C477 1.351 . S
C477 C471 1.428 . S
C477 N476 1.351 . S
C477 C478 1.434 . S
C478 C469 1.429 . S
C478 N475 1.350 . S
C478 C477 1.434 . S
C479 C480 1.369 . S
C479 C481 1.419 . S
C479 H483 0.930 . S
C480 C479 1.369 . S
C480 C489 1.429 . S
C481 C479 1.419 . S
C481 C482 1.363 . S
C481 H484 0.929 . S
C482 C481 1.363 . S
C482 C488 1.428 . S
H483 C479 0.930 . S
H484 C481 0.929 . S
S485 N486 1.613 . S
S485 N487 1.610 1_554 S
N486 S485 1.613 . S
N486 C489 1.350 1_554 S
N487 S485 1.610 1_556 S
N487 C488 1.351 . S
C488 C482 1.428 . S
C488 N487 1.351 . S
C488 C489 1.434 . S
C489 C480 1.429 . S
C489 N486 1.350 1_556 S
C489 C488 1.434 . S
C490 C491 1.369 . S
C490 C492 1.419 . S
C490 H494 0.930 . S
C491 C490 1.369 . S
C491 C500 1.429 . S
C492 C490 1.419 . S
C492 C493 1.363 . S
C492 H495 0.929 . S
C493 C492 1.363 . S
C493 C499 1.428 . S
H494 C490 0.930 . S
H495 C492 0.929 . S
S496 N497 1.613 . S
S496 N498 1.610 1_655 S
N497 S496 1.613 . S
N497 C500 1.350 1_655 S
N498 S496 1.610 1_455 S
N498 C499 1.351 . S
C499 C493 1.428 . S
C499 N498 1.351 . S
C499 C500 1.434 . S
C500 C491 1.429 . S
C500 N497 1.350 1_455 S
C500 C499 1.434 . S
C501 C502 1.369 . S
C501 C503 1.419 . S
C501 H505 0.930 . S
C502 C501 1.369 . S
C502 C511 1.429 . S
C503 C501 1.419 . S
C503 C504 1.363 . S
C503 H506 0.929 . S
C504 C503 1.363 . S
C504 C510 1.428 . S
H505 C501 0.930 . S
H506 C503 0.929 . S
S507 N508 1.613 . S
S507 N509 1.610 . S
N508 S507 1.613 . S
N508 C511 1.350 . S
N509 S507 1.610 . S
N509 C510 1.351 . S
C510 C504 1.428 . S
C510 N509 1.351 . S
C510 C511 1.434 . S
C511 C502 1.429 . S
C511 N508 1.350 . S
C511 C510 1.434 . S
C512 C513 1.369 . S
C512 C514 1.419 . S
C512 H516 0.930 . S
C513 C512 1.369 . S
C513 C522 1.429 . S
C514 C512 1.419 . S
C514 C515 1.363 . S
C514 H517 0.929 . S
C515 C514 1.363 . S
C515 C521 1.428 . S
H516 C512 0.930 . S
H517 C514 0.929 . S
S518 N519 1.613 . S
S518 N520 1.610 . S
N519 S518 1.613 . S
N519 C522 1.350 . S
N520 S518 1.610 . S
N520 C521 1.351 . S
C521 C515 1.428 . S
C521 N520 1.351 . S
C521 C522 1.434 . S
C522 C513 1.429 . S
C522 N519 1.350 . S
C522 C521 1.434 . S
C523 C524 1.369 . S
C523 C525 1.419 . S
C523 H527 0.930 . S
C524 C523 1.369 . S
C524 C533 1.429 . S
C525 C523 1.419 . S
C525 C526 1.363 . S
C525 H528 0.929 . S
C526 C525 1.363 . S
C526 C532 1.428 . S
H527 C523 0.930 . S
H528 C525 0.929 . S
S529 N530 1.613 . S
S529 N531 1.610 . S
N530 S529 1.613 . S
N530 C533 1.350 . S
N531 S529 1.610 . S
N531 C532 1.351 . S
C532 C526 1.428 . S
C532 N531 1.351 . S
C532 C533 1.434 . S
C533 C524 1.429 . S
C533 N530 1.350 . S
C533 C532 1.434 . S
C534 C535 1.369 . S
C534 C536 1.419 . S
C534 H538 0.930 . S
C535 C534 1.369 . S
C535 C544 1.429 . S
C536 C534 1.419 . S
C536 C537 1.363 . S
C536 H539 0.929 . S
C537 C536 1.363 . S
C537 C543 1.428 . S
H538 C534 0.930 . S
H539 C536 0.929 . S
S540 N541 1.613 . S
S540 N542 1.610 1_455 S
N541 S540 1.613 . S
N541 C544 1.350 1_455 S
N542 S540 1.610 1_655 S
N542 C543 1.351 . S
C543 C537 1.428 . S
C543 N542 1.351 . S
C543 C544 1.434 . S
C544 C535 1.429 . S
C544 N541 1.350 1_655 S
C544 C543 1.434 . S
C545 C546 1.369 . S
C545 C547 1.419 . S
C545 H549 0.930 . S
C546 C545 1.369 . S
C546 C555 1.429 . S
C547 C545 1.419 . S
C547 C548 1.363 . S
C547 H550 0.929 . S
C548 C547 1.363 . S
C548 C554 1.428 . S
H549 C545 0.930 . S
H550 C547 0.929 . S
S551 N552 1.613 . S
S551 N553 1.610 . S
N552 S551 1.613 . S
N552 C555 1.350 . S
N553 S551 1.610 . S
N553 C554 1.351 . S
C554 C548 1.428 . S
C554 N553 1.351 . S
C554 C555 1.434 . S
C555 C546 1.429 . S
C555 N552 1.350 . S
C555 C554 1.434 . S
C556 C557 1.369 . S
C556 C558 1.419 . S
C556 H560 0.930 . S
C557 C556 1.369 . S
C557 C566 1.429 . S
C558 C556 1.419 . S
C558 C559 1.363 . S
C558 H561 0.929 . S
C559 C558 1.363 . S
C559 C565 1.428 . S
H560 C556 0.930 . S
H561 C558 0.929 . S
S562 N563 1.613 . S
S562 N564 1.610 . S
N563 S562 1.613 . S
N563 C566 1.350 . S
N564 S562 1.610 . S
N564 C565 1.351 . S
C565 C559 1.428 . S
C565 N564 1.351 . S
C565 C566 1.434 . S
C566 C557 1.429 . S
C566 N563 1.350 . S
C566 C565 1.434 . S
C567 C568 1.369 . S
C567 C569 1.419 . S
C567 H571 0.930 . S
C568 C567 1.369 . S
C568 C577 1.429 . S
C569 C567 1.419 . S
C569 C570 1.363 . S
C569 H572 0.929 . S
C570 C569 1.363 . S
C570 C576 1.428 . S
H571 C567 0.930 . S
H572 C569 0.929 . S
S573 N574 1.613 . S
S573 N575 1.610 . S
N574 S573 1.613 . S
N574 C577 1.350 . S
N575 S573 1.610 . S
N575 C576 1.351 . S
C576 C570 1.428 . S
C576 N575 1.351 . S
C576 C577 1.434 . S
C577 C568 1.429 . S
C577 N574 1.350 . S
C577 C576 1.434 . S
C578 C579 1.369 . S
C578 C580 1.419 . S
C578 H582 0.930 . S
C579 C578 1.369 . S
C579 C588 1.429 . S
C580 C578 1.419 . S
C580 C581 1.363 . S
C580 H583 0.929 . S
C581 C580 1.363 . S
C581 C587 1.428 . S
H582 C578 0.930 . S
H583 C580 0.929 . S
S584 N585 1.613 . S
S584 N586 1.610 . S
N585 S584 1.613 . S
N585 C588 1.350 . S
N586 S584 1.610 . S
N586 C587 1.351 . S
C587 C581 1.428 . S
C587 N586 1.351 . S
C587 C588 1.434 . S
C588 C579 1.429 . S
C588 N585 1.350 . S
C588 C587 1.434 . S
C589 C590 1.369 . S
C589 C591 1.419 . S
C589 H593 0.930 . S
C590 C589 1.369 . S
C590 C599 1.429 . S
C591 C589 1.419 . S
C591 C592 1.363 . S
C591 H594 0.929 . S
C592 C591 1.363 . S
C592 C598 1.428 . S
H593 C589 0.930 . S
H594 C591 0.929 . S
S595 N596 1.613 . S
S595 N597 1.610 . S
N596 S595 1.613 . S
N596 C599 1.350 . S
N597 S595 1.610 . S
N597 C598 1.351 . S
C598 C592 1.428 . S
C598 N597 1.351 . S
C598 C599 1.434 . S
C599 C590 1.429 . S
C599 N596 1.350 . S
C599 C598 1.434 . S
C600 C601 1.369 . S
C600 C602 1.419 . S
C600 H604 0.930 . S
C601 C600 1.369 . S
C601 C610 1.429 . S
C602 C600 1.419 . S
C602 C603 1.363 . S
C602 H605 0.929 . S
C603 C602 1.363 . S
C603 C609 1.428 . S
H604 C600 0.930 . S
H605 C602 0.929 . S
S606 N607 1.613 . S
S606 N608 1.610 . S
N607 S606 1.613 . S
N607 C610 1.350 . S
N608 S606 1.610 . S
N608 C609 1.351 . S
C609 C603 1.428 . S
C609 N608 1.351 . S
C609 C610 1.434 . S
C610 C601 1.429 . S
C610 N607 1.350 . S
C610 C609 1.434 . S
C611 C612 1.369 . S
C611 C613 1.419 . S
C611 H615 0.930 . S
C612 C611 1.369 . S
C612 C621 1.429 . S
C613 C611 1.419 . S
C613 C614 1.363 . S
C613 H616 0.929 . S
C614 C613 1.363 . S
C614 C620 1.428 . S
H615 C611 0.930 . S
H616 C613 0.929 . S
S617 N618 1.613 . S
S617 N619 1.610 . S
N618 S617 1.613 . S
N618 C621 1.350 . S
N619 S617 1.610 . S
N619 C620 1.351 . S
C620 C614 1.428 . S
C620 N619 1.351 . S
C620 C621 1.434 . S
C621 C612 1.429 . S
C621 N618 1.350 . S
C621 C620 1.434 . S
C622 C623 1.369 . S
C622 C624 1.419 . S
C622 H626 0.930 . S
C623 C622 1.369 . S
C623 C632 1.429 . S
C624 C622 1.419 . S
C624 C625 1.363 . S
C624 H627 0.929 . S
C625 C624 1.363 . S
C625 C631 1.428 . S
H626 C622 0.930 . S
H627 C624 0.929 . S
S628 N629 1.613 . S
S628 N630 1.610 . S
N629 S628 1.613 . S
N629 C632 1.350 . S
N630 S628 1.610 . S
N630 C631 1.351 . S
C631 C625 1.428 . S
C631 N630 1.351 . S
C631 C632 1.434 . S
C632 C623 1.429 . S
C632 N629 1.350 . S
C632 C631 1.434 . S
C633 C634 1.369 . S
C633 C635 1.419 . S
C633 H637 0.930 . S
C634 C633 1.369 . S
C634 C643 1.429 . S
C635 C633 1.419 . S
C635 C636 1.363 . S
C635 H638 0.929 . S
C636 C635 1.363 . S
C636 C642 1.428 . S
H637 C633 0.930 . S
H638 C635 0.929 . S
S639 N640 1.613 1_556 S
S639 N641 1.610 1_556 S
N640 S639 1.613 1_554 S
N640 C643 1.350 . S
N641 S639 1.610 1_554 S
N641 C642 1.351 . S
C642 C636 1.428 . S
C642 N641 1.351 . S
C642 C643 1.434 . S
C643 C634 1.429 . S
C643 N640 1.350 . S
C643 C642 1.434 . S
C644 C645 1.369 . S
C644 C646 1.419 . S
C644 H648 0.930 . S
C645 C644 1.369 . S
C645 C654 1.429 . S
C646 C644 1.419 . S
C646 C647 1.363 . S
C646 H649 0.929 . S
C647 C646 1.363 . S
C647 C653 1.428 . S
H648 C644 0.930 . S
H649 C646 0.929 . S
S650 N651 1.613 . S
S650 N652 1.610 . S
N651 S650 1.613 . S
N651 C654 1.350 . S
N652 S650 1.610 . S
N652 C653 1.351 . S
C653 C647 1.428 . S
C653 N652 1.351 . S
C653 C654 1.434 . S
C654 C645 1.429 . S
C654 N651 1.350 . S
C654 C653 1.434 . S
C655 C656 1.369 . S
C655 C657 1.419 . S
C655 H659 0.930 . S
C656 C655 1.369 . S
C656 C665 1.429 . S
C657 C655 1.419 . S
C657 C658 1.363 . S
C657 H660 0.929 . S
C658 C657 1.363 . S
C658 C664 1.428 . S
H659 C655 0.930 . S
H660 C657 0.929 . S
S661 N662 1.613 1_655 S
S661 N663 1.610 1_655 S
N662 S661 1.613 1_455 S
N662 C665 1.350 . S
N663 S661 1.610 1_455 S
N663 C664 1.351 . S
C664 C658 1.428 . S
C664 N663 1.351 . S
C664 C665 1.434 . S
C665 C656 1.429 . S
C665 N662 1.350 . S
C665 C664 1.434 . S
C403 C13 1.927 . S
C405 C122 1.886 . S
C414 C27 1.654 . S
C416 C175 1.613 . S
C427 C228 1.773 . S
C425 C29 1.825 . S
C438 C265 1.475 . S
C436 C54 1.522 . S
C449 C325 1.711 . S
C447 C69 1.763 . S
C460 C378 1.569 . S
C458 C83 1.607 . S
C469 C15 1.928 . S
C471 C229 1.895 . S
C480 C41 1.609 . S
C482 C272 1.566 . S
C493 C318 1.724 . S
C491 C42 1.760 . S
C504 C371 1.475 . S
C502 C57 1.522 . S
C513 C71 1.825 . S
C515 C123 1.784 . S
C526 C176 1.619 . S
C524 C1 1.657 . S
C537 C282 1.887 . S
C535 C12 1.925 . S
C546 C26 1.657 . S
C548 C334 1.618 . S
C559 C387 1.789 . S
C557 C28 1.821 . S
C568 C55 1.520 . S
C570 C113 1.479 . S
C579 C68 1.761 . S
C581 C166 1.722 . S
C590 C82 1.607 . S
C592 C219 1.577 . S
C601 C14 1.928 . S
C603 C388 1.884 . S
C614 C106 1.569 . S
C612 C40 1.608 . S
C623 C43 1.763 . S
C625 C159 1.711 . S
C634 C56 1.520 . S
C636 C212 1.470 . S
C645 C70 1.825 . S
C647 C281 1.784 . S
C656 C0 1.653 . S
C658 C335 1.613 . S
