# Generated by pormake.
# Topology ssa, (4,4)-cn, num edge types: 1
# Building blocks:
#     Node 0, Type 0, BuildingBlock: NAWXER_clean_sbu_0, # of connection points: 4
#     Node 1, Type 0, BuildingBlock: NAWXER_clean_sbu_0, # of connection points: 4
#     Node 2, Type 0, BuildingBlock: NAWXER_clean_sbu_0, # of connection points: 4
#     Node 3, Type 0, BuildingBlock: NAWXER_clean_sbu_0, # of connection points: 4
#     Node 4, Type 0, BuildingBlock: NAWXER_clean_sbu_0, # of connection points: 4
#     Node 5, Type 0, BuildingBlock: NAWXER_clean_sbu_0, # of connection points: 4
#     Node 6, Type 1, BuildingBlock: NAWXER_clean_sbu_0, # of connection points: 4
#     Node 7, Type 1, BuildingBlock: NAWXER_clean_sbu_0, # of connection points: 4
#     Node 8, Type 1, BuildingBlock: NAWXER_clean_sbu_0, # of connection points: 4
#     Node 9, Type 1, BuildingBlock: NAWXER_clean_sbu_0, # of connection points: 4
#     Node 10, Type 1, BuildingBlock: NAWXER_clean_sbu_0, # of connection points: 4
#     Node 11, Type 1, BuildingBlock: NAWXER_clean_sbu_0, # of connection points: 4
#     Edge 12, Type (0, 1), BuildingBlock: AJUNOK_clean_linker_0, # of connection points: 2
#     Edge 13, Type (0, 1), BuildingBlock: AJUNOK_clean_linker_0, # of connection points: 2
#     Edge 14, Type (0, 1), BuildingBlock: AJUNOK_clean_linker_0, # of connection points: 2
#     Edge 15, Type (0, 1), BuildingBlock: AJUNOK_clean_linker_0, # of connection points: 2
#     Edge 16, Type (0, 1), BuildingBlock: AJUNOK_clean_linker_0, # of connection points: 2
#     Edge 17, Type (0, 1), BuildingBlock: AJUNOK_clean_linker_0, # of connection points: 2
#     Edge 18, Type (0, 1), BuildingBlock: AJUNOK_clean_linker_0, # of connection points: 2
#     Edge 19, Type (0, 1), BuildingBlock: AJUNOK_clean_linker_0, # of connection points: 2
#     Edge 20, Type (0, 1), BuildingBlock: AJUNOK_clean_linker_0, # of connection points: 2
#     Edge 21, Type (0, 1), BuildingBlock: AJUNOK_clean_linker_0, # of connection points: 2
#     Edge 22, Type (0, 1), BuildingBlock: AJUNOK_clean_linker_0, # of connection points: 2
#     Edge 23, Type (0, 1), BuildingBlock: AJUNOK_clean_linker_0, # of connection points: 2
#     Edge 24, Type (0, 1), BuildingBlock: AJUNOK_clean_linker_0, # of connection points: 2
#     Edge 25, Type (0, 1), BuildingBlock: AJUNOK_clean_linker_0, # of connection points: 2
#     Edge 26, Type (0, 1), BuildingBlock: AJUNOK_clean_linker_0, # of connection points: 2
#     Edge 27, Type (0, 1), BuildingBlock: AJUNOK_clean_linker_0, # of connection points: 2
#     Edge 28, Type (0, 1), BuildingBlock: AJUNOK_clean_linker_0, # of connection points: 2
#     Edge 29, Type (0, 1), BuildingBlock: AJUNOK_clean_linker_0, # of connection points: 2
#     Edge 30, Type (0, 1), BuildingBlock: AJUNOK_clean_linker_0, # of connection points: 2
#     Edge 31, Type (0, 1), BuildingBlock: AJUNOK_clean_linker_0, # of connection points: 2
#     Edge 32, Type (0, 1), BuildingBlock: AJUNOK_clean_linker_0, # of connection points: 2
#     Edge 33, Type (0, 1), BuildingBlock: AJUNOK_clean_linker_0, # of connection points: 2
#     Edge 34, Type (0, 1), BuildingBlock: AJUNOK_clean_linker_0, # of connection points: 2
#     Edge 35, Type (0, 1), BuildingBlock: AJUNOK_clean_linker_0, # of connection points: 2
# Relax obj value: 0.024
# Max RMSD: 0.040
# Mean RMSD: 0.033
data_MOF--net-ssa--node1-NAWXER_clean_sbu_0--node2-NAWXER_clean_sbu_0--edge1-AJUNOK_clean_linker_0
_symmetry_space_group_name_H-M    P1
_symmetry_Int_Tables_number       1
_symmetry_cell_setting            triclinic
loop_
_symmetry_equiv_pos_as_xyz
'x, y, z'
_cell_length_a     32.006059
_cell_length_b     31.96975
_cell_length_c     26.242042
_cell_angle_alpha  90.793398
_cell_angle_beta   90.095321
_cell_angle_gamma 120.34535
loop_
_atom_site_label
_atom_site_type_symbol
_atom_site_fract_x
_atom_site_fract_y
_atom_site_fract_z
_atom_type_partial_charge
C0 C 0.0854 0.60266 0.02025 0.0
C1 C 1.01162 0.44027 0.93505 0.0
O2 O 0.04705 0.56933 0.04117 0.0
Zn3 Zn 0.99571 0.49342 0.0315 0.0
O4 O 0.10181 0.59249 0.98058 0.0
Zn5 Zn 0.05182 0.52367 0.97523 0.0
O6 O 0.98957 0.52924 0.95901 0.0
O7 O 0.93619 0.49419 0.02033 0.0
O8 O 0.04947 0.4787 0.92102 0.0
O9 O 0.98984 0.44223 0.9751 0.0
O10 O 1.00734 0.46865 0.09393 0.0
O11 O 0.0701 0.5 0.04252 0.0
C12 C 0.94833 0.51687 0.9785 0.0
C13 C 0.05104 0.48061 0.08498 0.0
C14 C 0.48446 0.03846 0.5789 0.0
C15 C 0.52958 0.93915 0.47652 0.0
O16 O 0.47539 0.99592 0.58917 0.0
Zn17 Zn 0.50703 0.98753 0.52988 0.0
O18 O 0.50713 0.05872 0.53809 0.0
Zn19 Zn 0.53857 0.04378 0.47429 0.0
O20 O 0.4974 0.04152 0.41673 0.0
O21 O 0.45902 0.98126 0.46963 0.0
O22 O 0.54336 0.9809 0.45781 0.0
O23 O 0.5073 0.92752 0.51871 0.0
O24 O 0.58243 0.04072 0.54381 0.0
O25 O 0.60648 0.09499 0.4832 0.0
C26 C 0.45885 1.00285 0.42894 0.0
C27 C 0.61586 0.07977 0.52382 0.0
C28 C 0.39432 0.39869 0.94268 0.0
C29 C 0.47336 0.54905 0.04262 0.0
O30 O 0.39373 0.43736 0.9336 0.0
Zn31 Zn 0.43257 0.47395 0.99208 0.0
O32 O 0.41657 0.39643 0.98218 0.0
Zn33 Zn 0.45955 0.44195 0.04391 0.0
O34 O 0.42098 0.40828 0.10353 0.0
O35 O 0.38625 0.43786 0.05497 0.0
O36 O 0.48099 0.51632 0.0606 0.0
O37 O 0.44696 0.53981 1.00307 0.0
O38 O 0.50132 0.48183 0.9718 0.0
O39 O 0.52049 0.44392 0.02876 0.0
C40 C 0.38539 0.41449 0.09462 0.0
C41 C 0.53014 0.46793 0.98787 0.0
C42 C 0.067 0.618 0.46878 0.0
C43 C 0.99905 0.50485 0.60805 0.0
O44 O 0.0783 0.62647 0.51573 0.0
Zn45 Zn 0.03044 0.56402 0.54234 0.0
O46 O 0.0289 0.57832 0.45519 0.0
Zn47 Zn 0.9743 0.51401 0.49174 0.0
O48 O 0.91164 0.51169 0.49631 0.0
O49 O 0.96397 0.56357 0.5523 0.0
O50 O 0.97536 0.48975 0.56614 0.0
O51 O 0.03615 0.54717 0.61217 0.0
O52 O 0.04465 0.51327 0.50089 0.0
O53 O 0.98052 0.46454 0.45377 0.0
C54 C 0.92068 0.54002 0.53457 0.0
C55 C 0.02318 0.47737 0.46929 0.0
C56 C 0.60853 0.01251 0.07887 0.0
C57 C 0.52912 0.09464 1.00073 0.0
O58 O 0.61098 0.05147 0.09511 0.0
Zn59 Zn 0.56817 0.05405 0.04386 0.0
O60 O 0.58358 0.99124 0.03865 0.0
Zn61 Zn 0.5372 0.99915 0.98518 0.0
O62 O 0.5701 1.00767 0.92125 0.0
O63 O 0.60885 0.06914 0.97588 0.0
O64 O 0.51932 0.05483 0.97832 0.0
O65 O 0.55412 0.10727 0.04178 0.0
O66 O 0.50294 0.98986 0.06405 0.0
O67 O 0.47619 0.94035 0.997 0.0
C68 C 0.60561 0.04956 0.93214 0.0
C69 C 0.47229 0.94896 0.04366 0.0
C70 C 0.5942 0.59491 0.61168 0.0
C71 C 0.44594 0.51814 0.51089 0.0
O72 O 0.5547 0.59352 0.62162 0.0
Zn73 Zn 0.51854 0.55312 0.56405 0.0
O74 O 0.59689 0.57225 0.57227 0.0
Zn75 Zn 0.55112 0.52758 0.51097 0.0
O76 O 0.58575 0.56623 0.45177 0.0
O77 O 0.55425 0.59931 0.501 0.0
O78 O 0.47788 0.50944 0.49218 0.0
O79 O 0.45401 0.54085 0.55318 0.0
O80 O 0.51048 0.48423 0.58304 0.0
O81 O 0.54844 0.46626 0.52438 0.0
C82 C 0.57779 0.60082 0.46097 0.0
C83 C 0.52441 0.45569 0.56542 0.0
C84 C 0.29099 0.48285 0.37017 0.0
C85 C 0.1788 0.47117 0.23623 0.0
O86 O 0.25695 0.43921 0.36092 0.0
Zn87 Zn 0.19515 0.40176 0.31101 0.0
O88 O 0.2929 0.51744 0.34492 0.0
Zn89 Zn 0.23709 0.4792 0.30159 0.0
O90 O 0.17945 0.45523 0.35389 0.0
O91 O 0.13957 0.37528 0.35759 0.0
O92 O 0.21707 0.50945 0.25112 0.0
O93 O 0.16816 0.43023 0.25497 0.0
O94 O 0.21245 0.36097 0.26971 0.0
O95 O 0.25914 0.43917 0.25516 0.0
C96 C 0.1447 0.41598 0.37155 0.0
C97 C 0.2477 0.39521 0.24633 0.0
C98 C 0.86064 0.33813 0.70735 0.0
C99 C 0.74422 0.19869 0.80318 0.0
O100 O 0.82291 0.33404 0.72836 0.0
Zn101 Zn 0.79822 0.26842 0.75181 0.0
O102 O 0.86688 0.30167 0.70515 0.0
Zn103 Zn 0.83719 0.2311 0.73392 0.0
O104 O 0.8143 0.18789 0.67287 0.0
O105 O 0.77233 0.22453 0.68451 0.0
O106 O 0.77796 0.19356 0.78354 0.0
O107 O 0.74257 0.237 0.79519 0.0
O108 O 0.85661 0.28414 0.80232 0.0
O109 O 0.89427 0.24577 0.77677 0.0
C110 C 0.7802 0.19491 0.65885 0.0
C111 C 0.89126 0.27553 0.80738 0.0
C112 C 0.54381 0.81714 0.322 0.0
C113 C 0.5328 0.71736 0.17449 0.0
O114 O 0.58549 0.82626 0.30606 0.0
Zn115 Zn 0.61448 0.80118 0.24579 0.0
O116 O 0.50561 0.78626 0.29818 0.0
Zn117 Zn 0.53786 0.7702 0.24642 0.0
O118 O 0.56586 0.73582 0.29357 0.0
O119 O 0.6455 0.77315 0.28628 0.0
O120 O 0.49924 0.72146 0.19527 0.0
O121 O 0.5766 0.74496 0.18973 0.0
O122 O 0.65317 0.86011 0.20656 0.0
O123 O 0.57552 0.83714 0.20696 0.0
C124 C 0.60658 0.74008 0.3059 0.0
C125 C 0.61908 0.86765 0.19447 0.0
C126 C 0.82757 0.55955 0.85049 0.0
C127 C 0.73656 0.60951 0.74443 0.0
O128 O 0.79209 0.52386 0.82703 0.0
Zn129 Zn 0.73742 0.51238 0.77301 0.0
O130 O 0.83747 0.60258 0.84172 0.0
Zn131 Zn 0.78483 0.58682 0.79467 0.0
O132 O 0.72159 0.54774 0.84153 0.0
O133 O 0.67876 0.47238 0.81283 0.0
O134 O 0.77448 0.63792 0.77008 0.0
O135 O 0.72051 0.56381 0.74277 0.0
O136 O 0.75377 0.4882 0.71087 0.0
O137 O 0.80584 0.56522 0.72599 0.0
C138 C 0.68415 0.50527 0.84471 0.0
C139 C 0.7913 0.52729 0.69764 0.0
C140 C 0.33109 0.81829 0.18438 0.0
C141 C 0.20867 0.73421 0.31594 0.0
O142 O 0.30014 0.8321 0.18928 0.0
Zn143 Zn 0.23944 0.8183 0.23424 0.0
O144 O 0.32997 0.78621 0.21362 0.0
Zn145 Zn 0.27223 0.77481 0.25056 0.0
O146 O 0.22132 0.74777 0.1896 0.0
O147 O 0.18891 0.79387 0.18002 0.0
O148 O 0.24113 0.72487 0.30176 0.0
O149 O 0.20514 0.76798 0.2943 0.0
O150 O 0.2669 0.88212 0.26929 0.0
O151 O 0.30197 0.84102 0.29294 0.0
C152 C 0.1925 0.75752 0.16576 0.0
C153 C 0.29828 0.87897 0.29637 0.0
C154 C 0.40463 0.26095 0.81699 0.0
C155 C 0.44565 0.15931 0.71466 0.0
O156 O 0.45037 0.27866 0.81267 0.0
Zn157 Zn 0.49912 0.25879 0.77975 0.0
O158 O 0.37514 0.21892 0.79921 0.0
Zn159 Zn 0.42406 0.20806 0.76852 0.0
O160 O 0.45583 0.19317 0.83302 0.0
O161 O 0.5322 0.25065 0.83849 0.0
O162 O 0.40353 0.15049 0.72654 0.0
O163 O 0.48295 0.19796 0.73163 0.0
O164 O 0.53401 0.31226 0.73318 0.0
O165 O 0.45631 0.26698 0.71412 0.0
C166 C 0.49707 0.21182 0.85573 0.0
C167 C 0.498 0.30414 0.70525 0.0
C168 C 0.13241 0.51028 0.12426 0.0
C169 C 0.08217 0.47693 0.12429 0.0
C170 C 0.16337 0.50877 0.16105 0.0
C171 C 0.14543 0.47322 0.19864 0.0
H172 H 0.148 0.5383 0.09588 0.0
H173 H 0.20171 0.53515 0.1595 0.0
S174 S 0.01678 0.378 0.21604 0.0
N175 N 0.01584 0.40807 0.16582 0.0
N176 N 0.07403 0.40436 0.23449 0.0
C177 C 0.09525 0.43967 0.19924 0.0
C178 C 0.06361 0.44179 0.16225 0.0
C179 C 0.68654 0.15981 0.55273 0.0
C180 C 0.66319 0.10885 0.55128 0.0
C181 C 0.72632 0.18764 0.58556 0.0
C182 C 0.74541 0.16585 0.61712 0.0
H183 H 0.67221 0.17823 0.53067 0.0
H184 H 0.74121 0.22652 0.5876 0.0
S185 S 0.70032 0.03407 0.62428 0.0
N186 N 0.66396 0.03794 0.58228 0.0
N187 N 0.73953 0.09032 0.6424 0.0
C188 C 0.72432 0.11521 0.61366 0.0
C189 C 0.68303 0.08674 0.58123 0.0
C190 C 0.46361 0.61751 0.07529 0.0
C191 C 0.49214 0.59566 0.07073 0.0
C192 C 0.47756 0.65773 0.10794 0.0
C193 C 0.52109 0.6782 0.13625 0.0
H194 H 0.42914 0.60206 0.05539 0.0
H195 H 0.45362 0.6723 0.11172 0.0
S196 S 0.61062 0.63674 0.13398 0.0
N197 N 0.56701 0.59888 0.09478 0.0
N198 N 0.59395 0.67497 0.15506 0.0
C199 C 0.55107 0.65805 0.12992 0.0
C200 C 0.53639 0.61662 0.09748 0.0
C201 C 0.89072 0.57836 0.59731 0.0
C202 C 0.88134 0.53778 0.5671 0.0
C203 C 0.86034 0.57474 0.63773 0.0
C204 C 0.81936 0.53012 0.65065 0.0
H205 H 0.92313 0.613 0.59105 0.0
H206 H 0.87033 0.60715 0.66025 0.0
S207 S 0.7781 0.41264 0.58298 0.0
N208 N 0.82719 0.45149 0.55212 0.0
N209 N 0.7703 0.44451 0.62812 0.0
C210 C 0.80844 0.48948 0.61948 0.0
C211 C 0.83929 0.49334 0.57783 0.0
C212 C 0.45004 0.90756 0.12715 0.0
C213 C 0.43661 0.91065 0.07672 0.0
C214 C 0.41655 0.87376 0.16101 0.0
C215 C 0.36846 0.84249 0.14566 0.0
H216 H 0.48652 0.93216 0.1409 0.0
H217 H 0.42755 0.87426 0.2002 0.0
S218 S 0.31556 0.83413 0.01752 0.0
N219 N 0.37277 0.87741 1.01242 0.0
N220 N 0.30924 0.8151 0.07675 0.0
C221 C 0.35502 0.84393 0.09496 0.0
C222 C 0.38932 0.87764 0.0602 0.0
C223 C 0.55434 0.40591 0.6083 0.0
C224 C 0.51572 0.41316 0.59566 0.0
C225 C 0.54829 0.3701 0.64308 0.0
C226 C 0.50303 0.33924 0.66536 0.0
H227 H 0.59003 0.42954 0.59303 0.0
H228 H 0.57945 0.36697 0.65304 0.0
S229 S 0.38969 0.34156 0.6416 0.0
N230 N 0.43061 0.38594 0.60677 0.0
N231 N 0.41829 0.31708 0.66957 0.0
C232 C 0.46367 0.34486 0.65099 0.0
C233 C 0.47027 0.38224 0.61691 0.0
C234 C 0.57706 0.92101 0.4148 0.0
C235 C 0.53561 0.90402 0.44509 0.0
C236 C 0.58002 0.89174 0.37656 0.0
C237 C 0.54114 0.84473 0.36632 0.0
H238 H 0.60681 0.95792 0.41949 0.0
H239 H 0.61218 0.90703 0.35325 0.0
S240 S 0.42599 0.78176 0.43758 0.0
N241 N 0.45618 0.83606 0.46491 0.0
N242 N 0.46133 0.78107 0.39214 0.0
C243 C 0.50027 0.82644 0.3978 0.0
C244 C 0.49766 0.85606 0.43752 0.0
C245 C 0.57835 0.44014 0.93684 0.0
C246 C 0.5727 0.47816 0.95654 0.0
C247 C 0.61444 0.44891 0.90078 0.0
C248 C 0.64686 0.49618 0.88403 0.0
H249 H 0.55348 0.40315 0.9478 0.0
H250 H 0.61679 0.41844 0.88577 0.0
S251 S 0.64791 0.60829 0.92628 0.0
N252 N 0.60245 0.56448 0.95745 0.0
N253 N 0.67131 0.58164 0.89192 0.0
C254 C 0.64224 0.53457 0.90496 0.0
C255 C 0.60488 0.52539 0.94054 0.0
C256 C 0.11073 0.62708 0.38726 0.0
C257 C 0.1018 0.64907 0.42952 0.0
C258 C 0.14647 0.65474 0.35152 0.0
C259 C 0.17365 0.70551 0.35593 0.0
H260 H 0.09079 0.58799 0.38246 0.0
H261 H 0.15225 0.63634 0.3197 0.0
S262 S 0.16431 0.78087 0.45892 0.0
N263 N 0.12384 0.72467 0.474 0.0
N264 N 0.18923 0.77685 0.40535 0.0
C265 C 0.16471 0.72805 0.39749 0.0
C266 C 0.12932 0.69979 0.43473 0.0
C267 C 0.47511 0.10886 0.9437 0.0
C268 C 0.5179 0.12814 0.973 0.0
C269 C 0.46791 0.137 0.90798 0.0
C270 C 0.50372 0.18553 0.89894 0.0
H271 H 0.4476 0.071 0.947 0.0
H272 H 0.43478 0.11963 0.88556 0.0
S273 S 0.62203 0.25381 0.96684 0.0
N274 N 0.59599 0.19939 0.99208 0.0
N275 N 0.58302 0.25218 0.92443 0.0
C276 C 0.54605 0.20586 0.9294 0.0
C277 C 0.55299 0.17726 0.9665 0.0
C278 C 0.37766 0.46391 0.45229 0.0
C279 C 0.40346 0.50799 0.47946 0.0
C280 C 0.34041 0.45572 0.41813 0.0
C281 C 0.32872 0.49192 0.40866 0.0
H282 H 0.38663 0.43574 0.45717 0.0
H283 H 0.32166 0.42125 0.39777 0.0
S284 S 0.38675 0.61428 0.46936 0.0
N285 N 0.41502 0.58833 0.4949 0.0
N286 N 0.34606 0.57355 0.42951 0.0
C287 C 0.35435 0.53621 0.43566 0.0
C288 C 0.39143 0.54406 0.4714 0.0
C289 C 0.94953 0.35193 0.92435 0.0
C290 C 0.98918 0.39402 0.90421 0.0
C291 C 0.9209 0.31052 0.89387 0.0
C292 C 0.93121 0.30876 0.84218 0.0
H293 H 0.93846 0.35185 0.96335 0.0
H294 H 0.88836 0.28097 0.90999 0.0
S295 S 0.03274 0.40674 0.77114 0.0
N296 N 0.03894 0.42947 0.82943 0.0
N297 N 0.98532 0.35133 0.77262 0.0
C298 C 0.97272 0.3489 0.82237 0.0
C299 C 1.00171 0.39152 0.85324 0.0
C300 C 0.93583 0.57197 0.92268 0.0
C301 C 0.91576 0.52909 0.95098 0.0
C302 C 0.90677 0.58259 0.89176 0.0
C303 C 0.8568 0.55006 0.88705 0.0
H304 H 0.97449 0.59729 0.92391 0.0
H305 H 0.92386 0.61556 0.86992 0.0
S306 S 0.78617 0.43399 0.95504 0.0
N307 N 0.84259 0.45516 0.97435 0.0
N308 N 0.78793 0.47437 0.91517 0.0
C309 C 0.83605 0.50763 0.91613 0.0
C310 C 0.86554 0.49735 0.94846 0.0
C311 C 0.37151 0.9402 0.41475 0.0
C312 C 0.41466 0.97912 0.39544 0.0
C313 C 0.33188 0.91046 0.38283 0.0
C314 C 0.33312 0.91879 0.33036 0.0
H315 H 0.36908 0.93085 0.45458 0.0
H316 H 0.30101 0.87898 0.39891 0.0
S317 S 0.43522 0.01707 0.26037 0.0
N318 N 0.45463 0.02565 0.32011 0.0
N319 N 0.37971 0.96972 0.26045 0.0
C320 C 0.37453 0.95912 0.3108 0.0
C321 C 0.41531 0.9894 0.34327 0.0
C322 C 0.3599 0.312 0.91865 0.0
C323 C 0.38031 0.36051 0.90348 0.0
C324 C 0.36307 0.27762 0.88761 0.0
C325 C 0.38775 0.2913 0.84123 0.0
H326 H 0.345 0.3016 0.95649 0.0
H327 H 0.35026 0.24161 0.90211 0.0
S328 S 0.44268 0.41198 0.78184 0.0
N329 N 0.4211 0.41879 0.8365 0.0
N330 N 0.42868 0.3547 0.77921 0.0
C331 C 0.40472 0.33848 0.82385 0.0
C332 C 0.40042 0.37303 0.85471 0.0
C333 C 0.09891 0.4731 0.4647 0.0
C334 C 0.05016 0.45377 0.44971 0.0
C335 C 0.12808 0.4571 0.44228 0.0
C336 C 0.10975 0.42044 0.40454 0.0
H337 H 0.11572 0.50271 0.49224 0.0
H338 H 0.16616 0.47549 0.45262 0.0
S339 S 0.98349 0.3533 0.35568 0.0
N340 N 0.98376 0.39247 0.39762 0.0
N341 N 0.03904 0.3622 0.35585 0.0
C342 C 0.06036 0.39811 0.39169 0.0
C343 C 0.03048 0.41483 0.41416 0.0
C344 C 0.68436 0.08902 0.88786 0.0
C345 C 0.63736 0.08108 0.89252 0.0
C346 C 0.71856 0.12698 0.85824 0.0
C347 C 0.70708 0.15892 0.83368 0.0
H348 H 0.69515 0.06682 0.90851 0.0
H349 H 0.75469 0.13223 0.85589 0.0
S350 S 0.58786 0.152 0.83403 0.0
N351 N 0.58017 0.10665 0.86993 0.0
N352 N 0.64459 0.17865 0.81481 0.0
C353 C 0.65977 0.15071 0.8377 0.0
C354 C 0.62485 0.11157 0.86708 0.0
C355 C 0.61682 0.64386 0.37923 0.0
C356 C 0.59132 0.64078 0.42424 0.0
C357 C 0.62473 0.67823 0.34172 0.0
C358 C 0.60696 0.71016 0.34794 0.0
H359 H 0.62942 0.61863 0.37217 0.0
H360 H 0.64262 0.67819 0.30673 0.0
S361 S 0.54169 0.7204 0.4595 0.0
N362 N 0.55155 0.67595 0.47355 0.0
N363 N 0.56586 0.73911 0.40296 0.0
C364 C 0.5834 0.70892 0.39334 0.0
C365 C 0.57576 0.67465 0.43154 0.0
C366 C 0.50292 0.1177 0.61598 0.0
C367 C 0.47261 0.06702 0.61456 0.0
C368 C 0.49353 0.14684 0.64845 0.0
C369 C 0.4529 0.12668 0.68019 0.0
H370 H 0.53471 0.13516 0.59219 0.0
H371 H 0.51824 0.18568 0.64832 0.0
S372 S 0.36193 0.996 0.69093 0.0
N373 N 0.4004 0.99764 0.64795 0.0
N374 N 0.38196 0.05291 0.70855 0.0
C375 C 0.42189 0.07608 0.67903 0.0
C376 C 0.43204 0.04611 0.64645 0.0
C377 C 0.35034 0.38948 0.18249 0.0
C378 C 0.34482 0.39895 0.13133 0.0
C379 C 0.31608 0.38363 0.21958 0.0
C380 C 0.27486 0.38626 0.20656 0.0
H381 H 0.38276 0.38961 0.19466 0.0
H382 H 0.32344 0.38012 0.25912 0.0
S383 S 0.24006 0.40443 0.07777 0.0
N384 N 0.29186 0.40583 0.06932 0.0
N385 N 0.22841 0.3953 0.13917 0.0
C386 C 0.2673 0.39252 0.15534 0.0
C387 C 0.30196 0.39858 0.11765 0.0
C388 C 0.97876 0.42879 0.64697 0.0
C389 C 0.97833 0.47225 0.65067 0.0
C390 C 0.94076 0.38606 0.66619 0.0
C391 C 0.90079 0.38514 0.68996 0.0
H392 H 1.00614 0.4268 0.62453 0.0
H393 H 0.94196 0.3531 0.6601 0.0
S394 S 0.88797 0.49214 0.7177 0.0
N395 N 0.93877 0.51397 0.68526 0.0
N396 N 0.86729 0.43346 0.72304 0.0
C397 C 0.90233 0.42945 0.69819 0.0
C398 C 0.9413 0.47311 0.6784 0.0
C399 C 0.61291 0.97929 0.16268 0.0
C400 C 0.62485 0.98547 0.11071 0.0
C401 C 0.61398 0.94261 0.19049 0.0
C402 C 0.6284 0.91185 0.16775 0.0
H403 H 0.59871 1.0001 0.18086 0.0
H404 H 0.60122 0.93675 0.22942 0.0
S405 S 0.66825 0.9165 0.03461 0.0
N406 N 0.65472 0.95994 0.03865 0.0
N407 N 0.65855 0.89235 0.09174 0.0
C408 C 0.64398 0.92003 0.1171 0.0
C409 C 0.64177 0.95656 0.08837 0.0
C410 C 0.68186 0.62989 0.63025 0.0
C411 C 0.63526 0.61624 0.6481 0.0
C412 C 0.71835 0.6351 0.66372 0.0
C413 C 0.70931 0.62699 0.71594 0.0
H414 H 0.68894 0.63244 0.58971 0.0
H415 H 0.75196 0.64045 0.648 0.0
S416 S 0.5964 0.598 0.78294 0.0
N417 N 0.58436 0.60111 0.72233 0.0
N418 N 0.65314 0.61047 0.78497 0.0
C419 C 0.66485 0.61857 0.73492 0.0
C420 C 0.62768 0.61346 0.70098 0.0
C421 C 0.16362 0.67186 0.05285 0.0
C422 C 0.11316 0.64998 0.04771 0.0
C423 C 0.18923 0.7088 0.08933 0.0
C424 C 0.16566 0.72621 0.12119 0.0
H425 H 0.18296 0.65786 0.03142 0.0
H426 H 0.22759 0.72229 0.09427 0.0
S427 S 0.03492 0.68547 0.11806 0.0
N428 N 0.04106 0.65132 0.07431 0.0
N429 N 0.08974 0.72189 0.14171 0.0
C430 C 0.11592 0.70747 0.11356 0.0
C431 C 0.08956 0.66903 0.07713 0.0
loop_
_geom_bond_atom_site_label_1
_geom_bond_atom_site_label_2
_geom_bond_distance
_geom_bond_site_symmetry_2
_ccdc_geom_bond_type
C0 O2 1.258 . S
C0 O4 1.258 . S
C1 O8 1.254 . S
C1 O9 1.258 . S
O2 C0 1.258 . S
O2 Zn3 2.025 1_455 S
Zn3 O2 2.025 1_655 S
Zn3 O7 2.035 1_554 S
Zn3 O9 2.035 1_554 S
Zn3 O10 2.014 1_655 S
O4 C0 1.258 . S
O4 Zn5 2.035 1_554 S
Zn5 O4 2.035 1_556 S
Zn5 O6 2.019 1_455 S
Zn5 O8 2.026 1_455 S
Zn5 O11 2.035 1_556 S
O6 Zn5 2.019 1_655 S
O6 C12 1.256 . S
O7 Zn3 2.035 1_556 S
O7 C12 1.258 . S
O8 C1 1.254 . S
O8 Zn5 2.026 1_655 S
O9 C1 1.258 . S
O9 Zn3 2.035 1_556 S
O10 Zn3 2.014 1_455 S
O10 C13 1.263 . S
O11 Zn5 2.035 1_554 S
O11 C13 1.258 . S
C12 O6 1.256 . S
C12 O7 1.258 . S
C13 O10 1.263 . S
C13 O11 1.258 . S
C14 O16 1.263 . S
C14 O18 1.258 . S
C15 O22 1.256 . S
C15 O23 1.258 . S
O16 C14 1.263 . S
O16 Zn17 2.014 1_545 S
Zn17 O16 2.014 1_565 S
Zn17 O21 2.035 . S
Zn17 O23 2.035 . S
Zn17 O24 2.025 1_565 S
O18 C14 1.258 . S
O18 Zn19 2.035 . S
Zn19 O18 2.035 . S
Zn19 O20 2.026 1_545 S
Zn19 O22 2.019 1_545 S
Zn19 O25 2.035 . S
O20 Zn19 2.026 1_565 S
O20 C26 1.254 . S
O21 Zn17 2.035 . S
O21 C26 1.258 . S
O22 C15 1.256 . S
O22 Zn19 2.019 1_565 S
O23 C15 1.258 . S
O23 Zn17 2.035 . S
O24 Zn17 2.025 1_545 S
O24 C27 1.258 . S
O25 Zn19 2.035 . S
O25 C27 1.258 . S
C26 O20 1.254 . S
C26 O21 1.258 . S
C27 O24 1.258 . S
C27 O25 1.258 . S
C28 O30 1.247 . S
C28 O32 1.258 . S
C29 O36 1.247 . S
C29 O37 1.258 . S
O30 C28 1.247 . S
O30 Zn31 2.028 . S
Zn31 O30 2.028 . S
Zn31 O35 2.035 1_556 S
Zn31 O37 2.035 1_556 S
Zn31 O38 2.028 . S
O32 C28 1.258 . S
O32 Zn33 2.035 1_556 S
Zn33 O32 2.035 1_554 S
Zn33 O34 2.028 . S
Zn33 O36 2.028 . S
Zn33 O39 2.035 1_554 S
O34 Zn33 2.028 . S
O34 C40 1.247 . S
O35 Zn31 2.035 1_554 S
O35 C40 1.258 . S
O36 C29 1.247 . S
O36 Zn33 2.028 . S
O37 C29 1.258 . S
O37 Zn31 2.035 1_554 S
O38 Zn31 2.028 . S
O38 C41 1.247 . S
O39 Zn33 2.035 1_556 S
O39 C41 1.258 . S
C40 O34 1.247 . S
C40 O35 1.258 . S
C41 O38 1.247 . S
C41 O39 1.258 . S
C42 O44 1.247 . S
C42 O46 1.271 . S
C43 O50 1.247 . S
C43 O51 1.266 . S
O44 C42 1.247 . S
O44 Zn45 2.028 . S
Zn45 O44 2.028 . S
Zn45 O49 2.025 1_455 S
Zn45 O51 2.033 1_455 S
Zn45 O52 2.028 . S
O46 C42 1.271 . S
O46 Zn47 2.032 1_455 S
Zn47 O46 2.032 1_655 S
Zn47 O48 2.028 . S
Zn47 O50 2.028 . S
Zn47 O53 2.019 1_655 S
O48 Zn47 2.028 . S
O48 C54 1.247 . S
O49 Zn45 2.025 1_655 S
O49 C54 1.270 . S
O50 C43 1.247 . S
O50 Zn47 2.028 . S
O51 C43 1.266 . S
O51 Zn45 2.033 1_655 S
O52 Zn45 2.028 . S
O52 C55 1.247 . S
O53 Zn47 2.019 1_455 S
O53 C55 1.276 . S
C54 O48 1.247 . S
C54 O49 1.270 . S
C55 O52 1.247 . S
C55 O53 1.276 . S
C56 O58 1.256 . S
C56 O60 1.258 . S
C57 O64 1.263 . S
C57 O65 1.258 . S
O58 C56 1.256 . S
O58 Zn59 2.019 1_565 S
Zn59 O58 2.019 1_545 S
Zn59 O63 2.035 1_554 S
Zn59 O65 2.035 1_554 S
Zn59 O66 2.026 1_545 S
O60 C56 1.258 . S
O60 Zn61 2.035 1_554 S
Zn61 O60 2.035 1_556 S
Zn61 O62 2.025 1_565 S
Zn61 O64 2.014 1_565 S
Zn61 O67 2.035 1_556 S
O62 Zn61 2.025 1_545 S
O62 C68 1.258 . S
O63 Zn59 2.035 1_556 S
O63 C68 1.258 . S
O64 C57 1.263 . S
O64 Zn61 2.014 1_545 S
O65 C57 1.258 . S
O65 Zn59 2.035 1_556 S
O66 Zn59 2.026 1_565 S
O66 C69 1.254 . S
O67 Zn61 2.035 1_554 S
O67 C69 1.258 . S
C68 O62 1.258 . S
C68 O63 1.258 . S
C69 O66 1.254 . S
C69 O67 1.258 . S
C70 O72 1.247 . S
C70 O74 1.258 . S
C71 O78 1.247 . S
C71 O79 1.258 . S
O72 C70 1.247 . S
O72 Zn73 2.028 . S
Zn73 O72 2.028 . S
Zn73 O77 2.035 . S
Zn73 O79 2.035 . S
Zn73 O80 2.028 . S
O74 C70 1.258 . S
O74 Zn75 2.035 . S
Zn75 O74 2.035 . S
Zn75 O76 2.028 . S
Zn75 O78 2.028 . S
Zn75 O81 2.035 . S
O76 Zn75 2.028 . S
O76 C82 1.247 . S
O77 Zn73 2.035 . S
O77 C82 1.258 . S
O78 C71 1.247 . S
O78 Zn75 2.028 . S
O79 C71 1.258 . S
O79 Zn73 2.035 . S
O80 Zn73 2.028 . S
O80 C83 1.247 . S
O81 Zn75 2.035 . S
O81 C83 1.258 . S
C82 O76 1.247 . S
C82 O77 1.258 . S
C83 O80 1.247 . S
C83 O81 1.258 . S
C84 O86 1.247 . S
C84 O88 1.258 . S
C85 O92 1.247 . S
C85 O93 1.258 . S
O86 C84 1.247 . S
O86 Zn87 2.028 . S
Zn87 O86 2.028 . S
Zn87 O91 2.035 . S
Zn87 O93 2.035 . S
Zn87 O94 2.028 . S
O88 C84 1.258 . S
O88 Zn89 2.035 . S
Zn89 O88 2.035 . S
Zn89 O90 2.028 . S
Zn89 O92 2.028 . S
Zn89 O95 2.035 . S
O90 Zn89 2.028 . S
O90 C96 1.247 . S
O91 Zn87 2.035 . S
O91 C96 1.258 . S
O92 C85 1.247 . S
O92 Zn89 2.028 . S
O93 C85 1.258 . S
O93 Zn87 2.035 . S
O94 Zn87 2.028 . S
O94 C97 1.247 . S
O95 Zn89 2.035 . S
O95 C97 1.258 . S
C96 O90 1.247 . S
C96 O91 1.258 . S
C97 O94 1.247 . S
C97 O95 1.258 . S
C98 O100 1.247 . S
C98 O102 1.258 . S
C99 O106 1.247 . S
C99 O107 1.258 . S
O100 C98 1.247 . S
O100 Zn101 2.028 . S
Zn101 O100 2.028 . S
Zn101 O105 2.035 . S
Zn101 O107 2.035 . S
Zn101 O108 2.028 . S
O102 C98 1.258 . S
O102 Zn103 2.035 . S
Zn103 O102 2.035 . S
Zn103 O104 2.028 . S
Zn103 O106 2.028 . S
Zn103 O109 2.035 . S
O104 Zn103 2.028 . S
O104 C110 1.247 . S
O105 Zn101 2.035 . S
O105 C110 1.258 . S
O106 C99 1.247 . S
O106 Zn103 2.028 . S
O107 C99 1.258 . S
O107 Zn101 2.035 . S
O108 Zn101 2.028 . S
O108 C111 1.247 . S
O109 Zn103 2.035 . S
O109 C111 1.258 . S
C110 O104 1.247 . S
C110 O105 1.258 . S
C111 O108 1.247 . S
C111 O109 1.258 . S
C112 O114 1.247 . S
C112 O116 1.258 . S
C113 O120 1.247 . S
C113 O121 1.258 . S
O114 C112 1.247 . S
O114 Zn115 2.028 . S
Zn115 O114 2.028 . S
Zn115 O119 2.035 . S
Zn115 O121 2.035 . S
Zn115 O122 2.028 . S
O116 C112 1.258 . S
O116 Zn117 2.035 . S
Zn117 O116 2.035 . S
Zn117 O118 2.028 . S
Zn117 O120 2.028 . S
Zn117 O123 2.035 . S
O118 Zn117 2.028 . S
O118 C124 1.247 . S
O119 Zn115 2.035 . S
O119 C124 1.258 . S
O120 C113 1.247 . S
O120 Zn117 2.028 . S
O121 C113 1.258 . S
O121 Zn115 2.035 . S
O122 Zn115 2.028 . S
O122 C125 1.247 . S
O123 Zn117 2.035 . S
O123 C125 1.258 . S
C124 O118 1.247 . S
C124 O119 1.258 . S
C125 O122 1.247 . S
C125 O123 1.258 . S
C126 O128 1.247 . S
C126 O130 1.258 . S
C127 O134 1.247 . S
C127 O135 1.258 . S
O128 C126 1.247 . S
O128 Zn129 2.028 . S
Zn129 O128 2.028 . S
Zn129 O133 2.035 . S
Zn129 O135 2.035 . S
Zn129 O136 2.028 . S
O130 C126 1.258 . S
O130 Zn131 2.035 . S
Zn131 O130 2.035 . S
Zn131 O132 2.028 . S
Zn131 O134 2.028 . S
Zn131 O137 2.035 . S
O132 Zn131 2.028 . S
O132 C138 1.247 . S
O133 Zn129 2.035 . S
O133 C138 1.258 . S
O134 C127 1.247 . S
O134 Zn131 2.028 . S
O135 C127 1.258 . S
O135 Zn129 2.035 . S
O136 Zn129 2.028 . S
O136 C139 1.247 . S
O137 Zn131 2.035 . S
O137 C139 1.258 . S
C138 O132 1.247 . S
C138 O133 1.258 . S
C139 O136 1.247 . S
C139 O137 1.258 . S
C140 O142 1.247 . S
C140 O144 1.258 . S
C141 O148 1.247 . S
C141 O149 1.258 . S
O142 C140 1.247 . S
O142 Zn143 2.028 . S
Zn143 O142 2.028 . S
Zn143 O147 2.035 . S
Zn143 O149 2.035 . S
Zn143 O150 2.028 . S
O144 C140 1.258 . S
O144 Zn145 2.035 . S
Zn145 O144 2.035 . S
Zn145 O146 2.028 . S
Zn145 O148 2.028 . S
Zn145 O151 2.035 . S
O146 Zn145 2.028 . S
O146 C152 1.247 . S
O147 Zn143 2.035 . S
O147 C152 1.258 . S
O148 C141 1.247 . S
O148 Zn145 2.028 . S
O149 C141 1.258 . S
O149 Zn143 2.035 . S
O150 Zn143 2.028 . S
O150 C153 1.247 . S
O151 Zn145 2.035 . S
O151 C153 1.258 . S
C152 O146 1.247 . S
C152 O147 1.258 . S
C153 O150 1.247 . S
C153 O151 1.258 . S
C154 O156 1.247 . S
C154 O158 1.258 . S
C155 O162 1.247 . S
C155 O163 1.258 . S
O156 C154 1.247 . S
O156 Zn157 2.028 . S
Zn157 O156 2.028 . S
Zn157 O161 2.035 . S
Zn157 O163 2.035 . S
Zn157 O164 2.028 . S
O158 C154 1.258 . S
O158 Zn159 2.035 . S
Zn159 O158 2.035 . S
Zn159 O160 2.028 . S
Zn159 O162 2.028 . S
Zn159 O165 2.035 . S
O160 Zn159 2.028 . S
O160 C166 1.247 . S
O161 Zn157 2.035 . S
O161 C166 1.258 . S
O162 C155 1.247 . S
O162 Zn159 2.028 . S
O163 C155 1.258 . S
O163 Zn157 2.035 . S
O164 Zn157 2.028 . S
O164 C167 1.247 . S
O165 Zn159 2.035 . S
O165 C167 1.258 . S
C166 O160 1.247 . S
C166 O161 1.258 . S
C167 O164 1.247 . S
C167 O165 1.258 . S
C168 C169 1.369 . S
C168 C170 1.419 . S
C168 H172 0.930 . S
C169 C168 1.369 . S
C169 C178 1.429 . S
C170 C168 1.419 . S
C170 C171 1.363 . S
C170 H173 0.929 . S
C171 C170 1.363 . S
C171 C177 1.428 . S
H172 C168 0.930 . S
H173 C170 0.929 . S
S174 N175 1.613 . S
S174 N176 1.610 1_655 S
N175 S174 1.613 . S
N175 C178 1.350 1_655 S
N176 S174 1.610 1_455 S
N176 C177 1.351 . S
C177 C171 1.428 . S
C177 N176 1.351 . S
C177 C178 1.434 . S
C178 C169 1.429 . S
C178 N175 1.350 1_455 S
C178 C177 1.434 . S
C179 C180 1.369 . S
C179 C181 1.419 . S
C179 H183 0.930 . S
C180 C179 1.369 . S
C180 C189 1.429 . S
C181 C179 1.419 . S
C181 C182 1.363 . S
C181 H184 0.929 . S
C182 C181 1.363 . S
C182 C188 1.428 . S
H183 C179 0.930 . S
H184 C181 0.929 . S
S185 N186 1.613 . S
S185 N187 1.610 . S
N186 S185 1.613 . S
N186 C189 1.350 . S
N187 S185 1.610 . S
N187 C188 1.351 . S
C188 C182 1.428 . S
C188 N187 1.351 . S
C188 C189 1.434 . S
C189 C180 1.429 . S
C189 N186 1.350 . S
C189 C188 1.434 . S
C190 C191 1.369 . S
C190 C192 1.419 . S
C190 H194 0.930 . S
C191 C190 1.369 . S
C191 C200 1.429 . S
C192 C190 1.419 . S
C192 C193 1.363 . S
C192 H195 0.929 . S
C193 C192 1.363 . S
C193 C199 1.428 . S
H194 C190 0.930 . S
H195 C192 0.929 . S
S196 N197 1.613 . S
S196 N198 1.610 . S
N197 S196 1.613 . S
N197 C200 1.350 . S
N198 S196 1.610 . S
N198 C199 1.351 . S
C199 C193 1.428 . S
C199 N198 1.351 . S
C199 C200 1.434 . S
C200 C191 1.429 . S
C200 N197 1.350 . S
C200 C199 1.434 . S
C201 C202 1.369 . S
C201 C203 1.419 . S
C201 H205 0.930 . S
C202 C201 1.369 . S
C202 C211 1.429 . S
C203 C201 1.419 . S
C203 C204 1.363 . S
C203 H206 0.929 . S
C204 C203 1.363 . S
C204 C210 1.428 . S
H205 C201 0.930 . S
H206 C203 0.929 . S
S207 N208 1.613 . S
S207 N209 1.610 . S
N208 S207 1.613 . S
N208 C211 1.350 . S
N209 S207 1.610 . S
N209 C210 1.351 . S
C210 C204 1.428 . S
C210 N209 1.351 . S
C210 C211 1.434 . S
C211 C202 1.429 . S
C211 N208 1.350 . S
C211 C210 1.434 . S
C212 C213 1.369 . S
C212 C214 1.419 . S
C212 H216 0.930 . S
C213 C212 1.369 . S
C213 C222 1.429 . S
C214 C212 1.419 . S
C214 C215 1.363 . S
C214 H217 0.929 . S
C215 C214 1.363 . S
C215 C221 1.428 . S
H216 C212 0.930 . S
H217 C214 0.929 . S
S218 N219 1.613 . S
S218 N220 1.610 . S
N219 S218 1.613 . S
N219 C222 1.350 . S
N220 S218 1.610 . S
N220 C221 1.351 . S
C221 C215 1.428 . S
C221 N220 1.351 . S
C221 C222 1.434 . S
C222 C213 1.429 . S
C222 N219 1.350 . S
C222 C221 1.434 . S
C223 C224 1.369 . S
C223 C225 1.419 . S
C223 H227 0.930 . S
C224 C223 1.369 . S
C224 C233 1.429 . S
C225 C223 1.419 . S
C225 C226 1.363 . S
C225 H228 0.929 . S
C226 C225 1.363 . S
C226 C232 1.428 . S
H227 C223 0.930 . S
H228 C225 0.929 . S
S229 N230 1.613 . S
S229 N231 1.610 . S
N230 S229 1.613 . S
N230 C233 1.350 . S
N231 S229 1.610 . S
N231 C232 1.351 . S
C232 C226 1.428 . S
C232 N231 1.351 . S
C232 C233 1.434 . S
C233 C224 1.429 . S
C233 N230 1.350 . S
C233 C232 1.434 . S
C234 C235 1.369 . S
C234 C236 1.419 . S
C234 H238 0.930 . S
C235 C234 1.369 . S
C235 C244 1.429 . S
C236 C234 1.419 . S
C236 C237 1.363 . S
C236 H239 0.929 . S
C237 C236 1.363 . S
C237 C243 1.428 . S
H238 C234 0.930 . S
H239 C236 0.929 . S
S240 N241 1.613 . S
S240 N242 1.610 . S
N241 S240 1.613 . S
N241 C244 1.350 . S
N242 S240 1.610 . S
N242 C243 1.351 . S
C243 C237 1.428 . S
C243 N242 1.351 . S
C243 C244 1.434 . S
C244 C235 1.429 . S
C244 N241 1.350 . S
C244 C243 1.434 . S
C245 C246 1.369 . S
C245 C247 1.419 . S
C245 H249 0.930 . S
C246 C245 1.369 . S
C246 C255 1.429 . S
C247 C245 1.419 . S
C247 C248 1.363 . S
C247 H250 0.929 . S
C248 C247 1.363 . S
C248 C254 1.428 . S
H249 C245 0.930 . S
H250 C247 0.929 . S
S251 N252 1.613 . S
S251 N253 1.610 . S
N252 S251 1.613 . S
N252 C255 1.350 . S
N253 S251 1.610 . S
N253 C254 1.351 . S
C254 C248 1.428 . S
C254 N253 1.351 . S
C254 C255 1.434 . S
C255 C246 1.429 . S
C255 N252 1.350 . S
C255 C254 1.434 . S
C256 C257 1.369 . S
C256 C258 1.419 . S
C256 H260 0.930 . S
C257 C256 1.369 . S
C257 C266 1.429 . S
C258 C256 1.419 . S
C258 C259 1.363 . S
C258 H261 0.929 . S
C259 C258 1.363 . S
C259 C265 1.428 . S
H260 C256 0.930 . S
H261 C258 0.929 . S
S262 N263 1.613 . S
S262 N264 1.610 . S
N263 S262 1.613 . S
N263 C266 1.350 . S
N264 S262 1.610 . S
N264 C265 1.351 . S
C265 C259 1.428 . S
C265 N264 1.351 . S
C265 C266 1.434 . S
C266 C257 1.429 . S
C266 N263 1.350 . S
C266 C265 1.434 . S
C267 C268 1.369 . S
C267 C269 1.419 . S
C267 H271 0.930 . S
C268 C267 1.369 . S
C268 C277 1.429 . S
C269 C267 1.419 . S
C269 C270 1.363 . S
C269 H272 0.929 . S
C270 C269 1.363 . S
C270 C276 1.428 . S
H271 C267 0.930 . S
H272 C269 0.929 . S
S273 N274 1.613 . S
S273 N275 1.610 . S
N274 S273 1.613 . S
N274 C277 1.350 . S
N275 S273 1.610 . S
N275 C276 1.351 . S
C276 C270 1.428 . S
C276 N275 1.351 . S
C276 C277 1.434 . S
C277 C268 1.429 . S
C277 N274 1.350 . S
C277 C276 1.434 . S
C278 C279 1.369 . S
C278 C280 1.419 . S
C278 H282 0.930 . S
C279 C278 1.369 . S
C279 C288 1.429 . S
C280 C278 1.419 . S
C280 C281 1.363 . S
C280 H283 0.929 . S
C281 C280 1.363 . S
C281 C287 1.428 . S
H282 C278 0.930 . S
H283 C280 0.929 . S
S284 N285 1.613 . S
S284 N286 1.610 . S
N285 S284 1.613 . S
N285 C288 1.350 . S
N286 S284 1.610 . S
N286 C287 1.351 . S
C287 C281 1.428 . S
C287 N286 1.351 . S
C287 C288 1.434 . S
C288 C279 1.429 . S
C288 N285 1.350 . S
C288 C287 1.434 . S
C289 C290 1.369 . S
C289 C291 1.419 . S
C289 H293 0.930 . S
C290 C289 1.369 . S
C290 C299 1.429 . S
C291 C289 1.419 . S
C291 C292 1.363 . S
C291 H294 0.929 . S
C292 C291 1.363 . S
C292 C298 1.428 . S
H293 C289 0.930 . S
H294 C291 0.929 . S
S295 N296 1.613 . S
S295 N297 1.610 1_455 S
N296 S295 1.613 . S
N296 C299 1.350 1_455 S
N297 S295 1.610 1_655 S
N297 C298 1.351 . S
C298 C292 1.428 . S
C298 N297 1.351 . S
C298 C299 1.434 . S
C299 C290 1.429 . S
C299 N296 1.350 1_655 S
C299 C298 1.434 . S
C300 C301 1.369 . S
C300 C302 1.419 . S
C300 H304 0.930 . S
C301 C300 1.369 . S
C301 C310 1.429 . S
C302 C300 1.419 . S
C302 C303 1.363 . S
C302 H305 0.929 . S
C303 C302 1.363 . S
C303 C309 1.428 . S
H304 C300 0.930 . S
H305 C302 0.929 . S
S306 N307 1.613 . S
S306 N308 1.610 . S
N307 S306 1.613 . S
N307 C310 1.350 . S
N308 S306 1.610 . S
N308 C309 1.351 . S
C309 C303 1.428 . S
C309 N308 1.351 . S
C309 C310 1.434 . S
C310 C301 1.429 . S
C310 N307 1.350 . S
C310 C309 1.434 . S
C311 C312 1.369 . S
C311 C313 1.419 . S
C311 H315 0.930 . S
C312 C311 1.369 . S
C312 C321 1.429 . S
C313 C311 1.419 . S
C313 C314 1.363 . S
C313 H316 0.929 . S
C314 C313 1.363 . S
C314 C320 1.428 . S
H315 C311 0.930 . S
H316 C313 0.929 . S
S317 N318 1.613 . S
S317 N319 1.610 1_545 S
N318 S317 1.613 . S
N318 C321 1.350 1_545 S
N319 S317 1.610 1_565 S
N319 C320 1.351 . S
C320 C314 1.428 . S
C320 N319 1.351 . S
C320 C321 1.434 . S
C321 C312 1.429 . S
C321 N318 1.350 1_565 S
C321 C320 1.434 . S
C322 C323 1.369 . S
C322 C324 1.419 . S
C322 H326 0.930 . S
C323 C322 1.369 . S
C323 C332 1.429 . S
C324 C322 1.419 . S
C324 C325 1.363 . S
C324 H327 0.929 . S
C325 C324 1.363 . S
C325 C331 1.428 . S
H326 C322 0.930 . S
H327 C324 0.929 . S
S328 N329 1.613 . S
S328 N330 1.610 . S
N329 S328 1.613 . S
N329 C332 1.350 . S
N330 S328 1.610 . S
N330 C331 1.351 . S
C331 C325 1.428 . S
C331 N330 1.351 . S
C331 C332 1.434 . S
C332 C323 1.429 . S
C332 N329 1.350 . S
C332 C331 1.434 . S
C333 C334 1.369 . S
C333 C335 1.419 . S
C333 H337 0.930 . S
C334 C333 1.369 . S
C334 C343 1.429 . S
C335 C333 1.419 . S
C335 C336 1.363 . S
C335 H338 0.929 . S
C336 C335 1.363 . S
C336 C342 1.428 . S
H337 C333 0.930 . S
H338 C335 0.929 . S
S339 N340 1.613 . S
S339 N341 1.610 1_655 S
N340 S339 1.613 . S
N340 C343 1.350 1_655 S
N341 S339 1.610 1_455 S
N341 C342 1.351 . S
C342 C336 1.428 . S
C342 N341 1.351 . S
C342 C343 1.434 . S
C343 C334 1.429 . S
C343 N340 1.350 1_455 S
C343 C342 1.434 . S
C344 C345 1.369 . S
C344 C346 1.419 . S
C344 H348 0.930 . S
C345 C344 1.369 . S
C345 C354 1.429 . S
C346 C344 1.419 . S
C346 C347 1.363 . S
C346 H349 0.929 . S
C347 C346 1.363 . S
C347 C353 1.428 . S
H348 C344 0.930 . S
H349 C346 0.929 . S
S350 N351 1.613 . S
S350 N352 1.610 . S
N351 S350 1.613 . S
N351 C354 1.350 . S
N352 S350 1.610 . S
N352 C353 1.351 . S
C353 C347 1.428 . S
C353 N352 1.351 . S
C353 C354 1.434 . S
C354 C345 1.429 . S
C354 N351 1.350 . S
C354 C353 1.434 . S
C355 C356 1.369 . S
C355 C357 1.419 . S
C355 H359 0.930 . S
C356 C355 1.369 . S
C356 C365 1.429 . S
C357 C355 1.419 . S
C357 C358 1.363 . S
C357 H360 0.929 . S
C358 C357 1.363 . S
C358 C364 1.428 . S
H359 C355 0.930 . S
H360 C357 0.929 . S
S361 N362 1.613 . S
S361 N363 1.610 . S
N362 S361 1.613 . S
N362 C365 1.350 . S
N363 S361 1.610 . S
N363 C364 1.351 . S
C364 C358 1.428 . S
C364 N363 1.351 . S
C364 C365 1.434 . S
C365 C356 1.429 . S
C365 N362 1.350 . S
C365 C364 1.434 . S
C366 C367 1.369 . S
C366 C368 1.419 . S
C366 H370 0.930 . S
C367 C366 1.369 . S
C367 C376 1.429 . S
C368 C366 1.419 . S
C368 C369 1.363 . S
C368 H371 0.929 . S
C369 C368 1.363 . S
C369 C375 1.428 . S
H370 C366 0.930 . S
H371 C368 0.929 . S
S372 N373 1.613 . S
S372 N374 1.610 1_565 S
N373 S372 1.613 . S
N373 C376 1.350 1_565 S
N374 S372 1.610 1_545 S
N374 C375 1.351 . S
C375 C369 1.428 . S
C375 N374 1.351 . S
C375 C376 1.434 . S
C376 C367 1.429 . S
C376 N373 1.350 1_545 S
C376 C375 1.434 . S
C377 C378 1.369 . S
C377 C379 1.419 . S
C377 H381 0.930 . S
C378 C377 1.369 . S
C378 C387 1.429 . S
C379 C377 1.419 . S
C379 C380 1.363 . S
C379 H382 0.929 . S
C380 C379 1.363 . S
C380 C386 1.428 . S
H381 C377 0.930 . S
H382 C379 0.929 . S
S383 N384 1.613 . S
S383 N385 1.610 . S
N384 S383 1.613 . S
N384 C387 1.350 . S
N385 S383 1.610 . S
N385 C386 1.351 . S
C386 C380 1.428 . S
C386 N385 1.351 . S
C386 C387 1.434 . S
C387 C378 1.429 . S
C387 N384 1.350 . S
C387 C386 1.434 . S
C388 C389 1.369 . S
C388 C390 1.419 . S
C388 H392 0.930 . S
C389 C388 1.369 . S
C389 C398 1.429 . S
C390 C388 1.419 . S
C390 C391 1.363 . S
C390 H393 0.929 . S
C391 C390 1.363 . S
C391 C397 1.428 . S
H392 C388 0.930 . S
H393 C390 0.929 . S
S394 N395 1.613 . S
S394 N396 1.610 . S
N395 S394 1.613 . S
N395 C398 1.350 . S
N396 S394 1.610 . S
N396 C397 1.351 . S
C397 C391 1.428 . S
C397 N396 1.351 . S
C397 C398 1.434 . S
C398 C389 1.429 . S
C398 N395 1.350 . S
C398 C397 1.434 . S
C399 C400 1.369 . S
C399 C401 1.419 . S
C399 H403 0.930 . S
C400 C399 1.369 . S
C400 C409 1.429 . S
C401 C399 1.419 . S
C401 C402 1.363 . S
C401 H404 0.929 . S
C402 C401 1.363 . S
C402 C408 1.428 . S
H403 C399 0.930 . S
H404 C401 0.929 . S
S405 N406 1.613 . S
S405 N407 1.610 . S
N406 S405 1.613 . S
N406 C409 1.350 . S
N407 S405 1.610 . S
N407 C408 1.351 . S
C408 C402 1.428 . S
C408 N407 1.351 . S
C408 C409 1.434 . S
C409 C400 1.429 . S
C409 N406 1.350 . S
C409 C408 1.434 . S
C410 C411 1.369 . S
C410 C412 1.419 . S
C410 H414 0.930 . S
C411 C410 1.369 . S
C411 C420 1.429 . S
C412 C410 1.419 . S
C412 C413 1.363 . S
C412 H415 0.929 . S
C413 C412 1.363 . S
C413 C419 1.428 . S
H414 C410 0.930 . S
H415 C412 0.929 . S
S416 N417 1.613 . S
S416 N418 1.610 . S
N417 S416 1.613 . S
N417 C420 1.350 . S
N418 S416 1.610 . S
N418 C419 1.351 . S
C419 C413 1.428 . S
C419 N418 1.351 . S
C419 C420 1.434 . S
C420 C411 1.429 . S
C420 N417 1.350 . S
C420 C419 1.434 . S
C421 C422 1.369 . S
C421 C423 1.419 . S
C421 H425 0.930 . S
C422 C421 1.369 . S
C422 C431 1.429 . S
C423 C421 1.419 . S
C423 C424 1.363 . S
C423 H426 0.929 . S
C424 C423 1.363 . S
C424 C430 1.428 . S
H425 C421 0.930 . S
H426 C423 0.929 . S
S427 N428 1.613 . S
S427 N429 1.610 . S
N428 S427 1.613 . S
N428 C431 1.350 . S
N429 S427 1.610 . S
N429 C430 1.351 . S
C430 C424 1.428 . S
C430 N429 1.351 . S
C430 C431 1.434 . S
C431 C422 1.429 . S
C431 N428 1.350 . S
C431 C430 1.434 . S
C169 C13 1.648 . S
C171 C85 1.608 . S
C180 C27 1.651 . S
C182 C110 1.611 . S
C193 C113 1.612 . S
C191 C29 1.646 . S
C204 C139 1.609 . S
C202 C54 1.652 . S
C215 C140 1.613 . S
C213 C69 1.647 . S
C226 C167 1.610 . S
C224 C83 1.649 . S
C235 C15 1.650 . S
C237 C112 1.614 . S
C246 C41 1.651 . S
C248 C138 1.612 . S
C259 C141 1.611 . S
C257 C42 1.649 . S
C270 C166 1.612 . S
C268 C57 1.648 . S
C279 C71 1.648 . S
C281 C84 1.613 . S
C292 C111 1.610 . S
C290 C1 1.651 . S
C303 C126 1.607 . S
C301 C12 1.655 . S
C312 C26 1.648 . S
C314 C153 1.615 . S
C325 C154 1.609 . S
C323 C28 1.652 . S
C334 C55 1.648 . S
C336 C96 1.610 . S
C345 C68 1.651 . S
C347 C99 1.612 . S
C356 C82 1.651 . S
C358 C124 1.607 . S
C367 C14 1.648 . S
C369 C155 1.613 . S
C380 C97 1.609 . S
C378 C40 1.650 . S
C389 C43 1.651 . S
C391 C98 1.609 . S
C400 C56 1.649 . S
C402 C125 1.613 . S
C411 C70 1.648 . S
C413 C127 1.615 . S
C422 C0 1.649 . S
C424 C152 1.609 . S
