# Generated by pormake.
# Topology iac, (4,6)-cn, num edge types: 1
# Building blocks:
#     Node 0, Type 0, BuildingBlock: KUFVIS_clean_sbu_0, # of connection points: 4
#     Node 1, Type 0, BuildingBlock: KUFVIS_clean_sbu_0, # of connection points: 4
#     Node 2, Type 0, BuildingBlock: KUFVIS_clean_sbu_0, # of connection points: 4
#     Node 3, Type 0, BuildingBlock: KUFVIS_clean_sbu_0, # of connection points: 4
#     Node 4, Type 0, BuildingBlock: KUFVIS_clean_sbu_0, # of connection points: 4
#     Node 5, Type 0, BuildingBlock: KUFVIS_clean_sbu_0, # of connection points: 4
#     Node 6, Type 0, BuildingBlock: KUFVIS_clean_sbu_0, # of connection points: 4
#     Node 7, Type 0, BuildingBlock: KUFVIS_clean_sbu_0, # of connection points: 4
#     Node 8, Type 0, BuildingBlock: KUFVIS_clean_sbu_0, # of connection points: 4
#     Node 9, Type 0, BuildingBlock: KUFVIS_clean_sbu_0, # of connection points: 4
#     Node 10, Type 0, BuildingBlock: KUFVIS_clean_sbu_0, # of connection points: 4
#     Node 11, Type 0, BuildingBlock: KUFVIS_clean_sbu_0, # of connection points: 4
#     Node 12, Type 0, BuildingBlock: KUFVIS_clean_sbu_0, # of connection points: 4
#     Node 13, Type 0, BuildingBlock: KUFVIS_clean_sbu_0, # of connection points: 4
#     Node 14, Type 0, BuildingBlock: KUFVIS_clean_sbu_0, # of connection points: 4
#     Node 15, Type 0, BuildingBlock: KUFVIS_clean_sbu_0, # of connection points: 4
#     Node 16, Type 0, BuildingBlock: KUFVIS_clean_sbu_0, # of connection points: 4
#     Node 17, Type 0, BuildingBlock: KUFVIS_clean_sbu_0, # of connection points: 4
#     Node 18, Type 0, BuildingBlock: KUFVIS_clean_sbu_0, # of connection points: 4
#     Node 19, Type 0, BuildingBlock: KUFVIS_clean_sbu_0, # of connection points: 4
#     Node 20, Type 0, BuildingBlock: KUFVIS_clean_sbu_0, # of connection points: 4
#     Node 21, Type 0, BuildingBlock: KUFVIS_clean_sbu_0, # of connection points: 4
#     Node 22, Type 0, BuildingBlock: KUFVIS_clean_sbu_0, # of connection points: 4
#     Node 23, Type 0, BuildingBlock: KUFVIS_clean_sbu_0, # of connection points: 4
#     Node 24, Type 1, BuildingBlock: VOLQOD_clean_sbu_1, # of connection points: 6
#     Node 25, Type 1, BuildingBlock: VOLQOD_clean_sbu_1, # of connection points: 6
#     Node 26, Type 1, BuildingBlock: VOLQOD_clean_sbu_1, # of connection points: 6
#     Node 27, Type 1, BuildingBlock: VOLQOD_clean_sbu_1, # of connection points: 6
#     Node 28, Type 1, BuildingBlock: VOLQOD_clean_sbu_1, # of connection points: 6
#     Node 29, Type 1, BuildingBlock: VOLQOD_clean_sbu_1, # of connection points: 6
#     Node 30, Type 1, BuildingBlock: VOLQOD_clean_sbu_1, # of connection points: 6
#     Node 31, Type 1, BuildingBlock: VOLQOD_clean_sbu_1, # of connection points: 6
#     Node 32, Type 1, BuildingBlock: VOLQOD_clean_sbu_1, # of connection points: 6
#     Node 33, Type 1, BuildingBlock: VOLQOD_clean_sbu_1, # of connection points: 6
#     Node 34, Type 1, BuildingBlock: VOLQOD_clean_sbu_1, # of connection points: 6
#     Node 35, Type 1, BuildingBlock: VOLQOD_clean_sbu_1, # of connection points: 6
#     Node 36, Type 1, BuildingBlock: VOLQOD_clean_sbu_1, # of connection points: 6
#     Node 37, Type 1, BuildingBlock: VOLQOD_clean_sbu_1, # of connection points: 6
#     Node 38, Type 1, BuildingBlock: VOLQOD_clean_sbu_1, # of connection points: 6
#     Node 39, Type 1, BuildingBlock: VOLQOD_clean_sbu_1, # of connection points: 6
#     Edge 40, Type (0, 1), BuildingBlock: KIFKEQ_clean_linker_1, # of connection points: 2
#     Edge 41, Type (0, 1), BuildingBlock: KIFKEQ_clean_linker_1, # of connection points: 2
#     Edge 42, Type (0, 1), BuildingBlock: KIFKEQ_clean_linker_1, # of connection points: 2
#     Edge 43, Type (0, 1), BuildingBlock: KIFKEQ_clean_linker_1, # of connection points: 2
#     Edge 44, Type (0, 1), BuildingBlock: KIFKEQ_clean_linker_1, # of connection points: 2
#     Edge 45, Type (0, 1), BuildingBlock: KIFKEQ_clean_linker_1, # of connection points: 2
#     Edge 46, Type (0, 1), BuildingBlock: KIFKEQ_clean_linker_1, # of connection points: 2
#     Edge 47, Type (0, 1), BuildingBlock: KIFKEQ_clean_linker_1, # of connection points: 2
#     Edge 48, Type (0, 1), BuildingBlock: KIFKEQ_clean_linker_1, # of connection points: 2
#     Edge 49, Type (0, 1), BuildingBlock: KIFKEQ_clean_linker_1, # of connection points: 2
#     Edge 50, Type (0, 1), BuildingBlock: KIFKEQ_clean_linker_1, # of connection points: 2
#     Edge 51, Type (0, 1), BuildingBlock: KIFKEQ_clean_linker_1, # of connection points: 2
#     Edge 52, Type (0, 1), BuildingBlock: KIFKEQ_clean_linker_1, # of connection points: 2
#     Edge 53, Type (0, 1), BuildingBlock: KIFKEQ_clean_linker_1, # of connection points: 2
#     Edge 54, Type (0, 1), BuildingBlock: KIFKEQ_clean_linker_1, # of connection points: 2
#     Edge 55, Type (0, 1), BuildingBlock: KIFKEQ_clean_linker_1, # of connection points: 2
#     Edge 56, Type (0, 1), BuildingBlock: KIFKEQ_clean_linker_1, # of connection points: 2
#     Edge 57, Type (0, 1), BuildingBlock: KIFKEQ_clean_linker_1, # of connection points: 2
#     Edge 58, Type (0, 1), BuildingBlock: KIFKEQ_clean_linker_1, # of connection points: 2
#     Edge 59, Type (0, 1), BuildingBlock: KIFKEQ_clean_linker_1, # of connection points: 2
#     Edge 60, Type (0, 1), BuildingBlock: KIFKEQ_clean_linker_1, # of connection points: 2
#     Edge 61, Type (0, 1), BuildingBlock: KIFKEQ_clean_linker_1, # of connection points: 2
#     Edge 62, Type (0, 1), BuildingBlock: KIFKEQ_clean_linker_1, # of connection points: 2
#     Edge 63, Type (0, 1), BuildingBlock: KIFKEQ_clean_linker_1, # of connection points: 2
#     Edge 64, Type (0, 1), BuildingBlock: KIFKEQ_clean_linker_1, # of connection points: 2
#     Edge 65, Type (0, 1), BuildingBlock: KIFKEQ_clean_linker_1, # of connection points: 2
#     Edge 66, Type (0, 1), BuildingBlock: KIFKEQ_clean_linker_1, # of connection points: 2
#     Edge 67, Type (0, 1), BuildingBlock: KIFKEQ_clean_linker_1, # of connection points: 2
#     Edge 68, Type (0, 1), BuildingBlock: KIFKEQ_clean_linker_1, # of connection points: 2
#     Edge 69, Type (0, 1), BuildingBlock: KIFKEQ_clean_linker_1, # of connection points: 2
#     Edge 70, Type (0, 1), BuildingBlock: KIFKEQ_clean_linker_1, # of connection points: 2
#     Edge 71, Type (0, 1), BuildingBlock: KIFKEQ_clean_linker_1, # of connection points: 2
#     Edge 72, Type (0, 1), BuildingBlock: KIFKEQ_clean_linker_1, # of connection points: 2
#     Edge 73, Type (0, 1), BuildingBlock: KIFKEQ_clean_linker_1, # of connection points: 2
#     Edge 74, Type (0, 1), BuildingBlock: KIFKEQ_clean_linker_1, # of connection points: 2
#     Edge 75, Type (0, 1), BuildingBlock: KIFKEQ_clean_linker_1, # of connection points: 2
#     Edge 76, Type (0, 1), BuildingBlock: KIFKEQ_clean_linker_1, # of connection points: 2
#     Edge 77, Type (0, 1), BuildingBlock: KIFKEQ_clean_linker_1, # of connection points: 2
#     Edge 78, Type (0, 1), BuildingBlock: KIFKEQ_clean_linker_1, # of connection points: 2
#     Edge 79, Type (0, 1), BuildingBlock: KIFKEQ_clean_linker_1, # of connection points: 2
#     Edge 80, Type (0, 1), BuildingBlock: KIFKEQ_clean_linker_1, # of connection points: 2
#     Edge 81, Type (0, 1), BuildingBlock: KIFKEQ_clean_linker_1, # of connection points: 2
#     Edge 82, Type (0, 1), BuildingBlock: KIFKEQ_clean_linker_1, # of connection points: 2
#     Edge 83, Type (0, 1), BuildingBlock: KIFKEQ_clean_linker_1, # of connection points: 2
#     Edge 84, Type (0, 1), BuildingBlock: KIFKEQ_clean_linker_1, # of connection points: 2
#     Edge 85, Type (0, 1), BuildingBlock: KIFKEQ_clean_linker_1, # of connection points: 2
#     Edge 86, Type (0, 1), BuildingBlock: KIFKEQ_clean_linker_1, # of connection points: 2
#     Edge 87, Type (0, 1), BuildingBlock: KIFKEQ_clean_linker_1, # of connection points: 2
#     Edge 88, Type (0, 1), BuildingBlock: KIFKEQ_clean_linker_1, # of connection points: 2
#     Edge 89, Type (0, 1), BuildingBlock: KIFKEQ_clean_linker_1, # of connection points: 2
#     Edge 90, Type (0, 1), BuildingBlock: KIFKEQ_clean_linker_1, # of connection points: 2
#     Edge 91, Type (0, 1), BuildingBlock: KIFKEQ_clean_linker_1, # of connection points: 2
#     Edge 92, Type (0, 1), BuildingBlock: KIFKEQ_clean_linker_1, # of connection points: 2
#     Edge 93, Type (0, 1), BuildingBlock: KIFKEQ_clean_linker_1, # of connection points: 2
#     Edge 94, Type (0, 1), BuildingBlock: KIFKEQ_clean_linker_1, # of connection points: 2
#     Edge 95, Type (0, 1), BuildingBlock: KIFKEQ_clean_linker_1, # of connection points: 2
#     Edge 96, Type (0, 1), BuildingBlock: KIFKEQ_clean_linker_1, # of connection points: 2
#     Edge 97, Type (0, 1), BuildingBlock: KIFKEQ_clean_linker_1, # of connection points: 2
#     Edge 98, Type (0, 1), BuildingBlock: KIFKEQ_clean_linker_1, # of connection points: 2
#     Edge 99, Type (0, 1), BuildingBlock: KIFKEQ_clean_linker_1, # of connection points: 2
#     Edge 100, Type (0, 1), BuildingBlock: KIFKEQ_clean_linker_1, # of connection points: 2
#     Edge 101, Type (0, 1), BuildingBlock: KIFKEQ_clean_linker_1, # of connection points: 2
#     Edge 102, Type (0, 1), BuildingBlock: KIFKEQ_clean_linker_1, # of connection points: 2
#     Edge 103, Type (0, 1), BuildingBlock: KIFKEQ_clean_linker_1, # of connection points: 2
#     Edge 104, Type (0, 1), BuildingBlock: KIFKEQ_clean_linker_1, # of connection points: 2
#     Edge 105, Type (0, 1), BuildingBlock: KIFKEQ_clean_linker_1, # of connection points: 2
#     Edge 106, Type (0, 1), BuildingBlock: KIFKEQ_clean_linker_1, # of connection points: 2
#     Edge 107, Type (0, 1), BuildingBlock: KIFKEQ_clean_linker_1, # of connection points: 2
#     Edge 108, Type (0, 1), BuildingBlock: KIFKEQ_clean_linker_1, # of connection points: 2
#     Edge 109, Type (0, 1), BuildingBlock: KIFKEQ_clean_linker_1, # of connection points: 2
#     Edge 110, Type (0, 1), BuildingBlock: KIFKEQ_clean_linker_1, # of connection points: 2
#     Edge 111, Type (0, 1), BuildingBlock: KIFKEQ_clean_linker_1, # of connection points: 2
#     Edge 112, Type (0, 1), BuildingBlock: KIFKEQ_clean_linker_1, # of connection points: 2
#     Edge 113, Type (0, 1), BuildingBlock: KIFKEQ_clean_linker_1, # of connection points: 2
#     Edge 114, Type (0, 1), BuildingBlock: KIFKEQ_clean_linker_1, # of connection points: 2
#     Edge 115, Type (0, 1), BuildingBlock: KIFKEQ_clean_linker_1, # of connection points: 2
#     Edge 116, Type (0, 1), BuildingBlock: KIFKEQ_clean_linker_1, # of connection points: 2
#     Edge 117, Type (0, 1), BuildingBlock: KIFKEQ_clean_linker_1, # of connection points: 2
#     Edge 118, Type (0, 1), BuildingBlock: KIFKEQ_clean_linker_1, # of connection points: 2
#     Edge 119, Type (0, 1), BuildingBlock: KIFKEQ_clean_linker_1, # of connection points: 2
#     Edge 120, Type (0, 1), BuildingBlock: KIFKEQ_clean_linker_1, # of connection points: 2
#     Edge 121, Type (0, 1), BuildingBlock: KIFKEQ_clean_linker_1, # of connection points: 2
#     Edge 122, Type (0, 1), BuildingBlock: KIFKEQ_clean_linker_1, # of connection points: 2
#     Edge 123, Type (0, 1), BuildingBlock: KIFKEQ_clean_linker_1, # of connection points: 2
#     Edge 124, Type (0, 1), BuildingBlock: KIFKEQ_clean_linker_1, # of connection points: 2
#     Edge 125, Type (0, 1), BuildingBlock: KIFKEQ_clean_linker_1, # of connection points: 2
#     Edge 126, Type (0, 1), BuildingBlock: KIFKEQ_clean_linker_1, # of connection points: 2
#     Edge 127, Type (0, 1), BuildingBlock: KIFKEQ_clean_linker_1, # of connection points: 2
#     Edge 128, Type (0, 1), BuildingBlock: KIFKEQ_clean_linker_1, # of connection points: 2
#     Edge 129, Type (0, 1), BuildingBlock: KIFKEQ_clean_linker_1, # of connection points: 2
#     Edge 130, Type (0, 1), BuildingBlock: KIFKEQ_clean_linker_1, # of connection points: 2
#     Edge 131, Type (0, 1), BuildingBlock: KIFKEQ_clean_linker_1, # of connection points: 2
#     Edge 132, Type (0, 1), BuildingBlock: KIFKEQ_clean_linker_1, # of connection points: 2
#     Edge 133, Type (0, 1), BuildingBlock: KIFKEQ_clean_linker_1, # of connection points: 2
#     Edge 134, Type (0, 1), BuildingBlock: KIFKEQ_clean_linker_1, # of connection points: 2
#     Edge 135, Type (0, 1), BuildingBlock: KIFKEQ_clean_linker_1, # of connection points: 2
# Relax obj value: 0.300
# Max RMSD: 0.289
# Mean RMSD: 0.134
data_MOF--net-iac--node1-KUFVIS_clean_sbu_0--node2-VOLQOD_clean_sbu_1--edge1-KIFKEQ_clean_linker_1
_symmetry_space_group_name_H-M    P1
_symmetry_Int_Tables_number       1
_symmetry_cell_setting            triclinic
loop_
_symmetry_equiv_pos_as_xyz
'x, y, z'
_cell_length_a     55.578966
_cell_length_b     54.690647
_cell_length_c     56.671936
_cell_angle_alpha  90.216361
_cell_angle_beta   90.105727
_cell_angle_gamma 90.841256
loop_
_atom_site_label
_atom_site_type_symbol
_atom_site_fract_x
_atom_site_fract_y
_atom_site_fract_z
_atom_type_partial_charge
Mn0 Mn 0.00579 0.26962 0.14245 0.0
Mn1 Mn 0.97074 0.26248 0.09447 0.0
C2 C 0.00472 0.23226 0.12418 0.0
C3 C 0.04097 0.28556 0.15789 0.0
C4 C 0.95218 0.263 0.14472 0.0
O5 O -0.00384 0.30382 0.13361 0.0
O6 O 0.98143 0.29717 0.09725 0.0
C7 C 0.00603 0.27345 0.05675 0.0
N8 N 0.98931 0.2581 0.06647 0.0
C9 C 0.99312 0.22946 0.03442 0.0
C10 C 0.01027 0.24503 0.02397 0.0
C11 C 0.01682 0.26708 0.03525 0.0
C12 C 0.98304 0.23674 0.0559 0.0
H13 H 0.01107 0.29044 0.06534 0.0
C14 C 0.9897 0.31135 0.11343 0.0
O15 O 0.022 0.28266 0.171 0.0
O16 O 0.03972 0.27846 0.13604 0.0
N17 N 0.95929 0.22969 0.08905 0.0
C18 C 0.94335 0.2161 0.10196 0.0
C19 C 0.93524 0.19334 0.09329 0.0
C20 C 0.9433 0.1849 0.07131 0.0
C21 C 0.9595 0.19925 0.05822 0.0
C22 C 0.96688 0.22185 0.0677 0.0
H23 H 0.9368 0.2225 0.11871 0.0
O24 O 0.01375 0.23447 0.14523 0.0
O25 O -0.00179 0.25229 0.11378 0.0
O26 O 0.97246 0.2624 0.15513 0.0
O27 O 0.94979 0.26601 0.12246 0.0
C28 C 0.969 0.1918 0.03635 0.0
C29 C 0.98588 0.20683 0.02452 0.0
H30 H 0.01864 0.24018 0.00739 0.0
H31 H 0.03012 0.27914 0.02735 0.0
H32 H 0.92275 0.18235 0.10353 0.0
H33 H 0.93708 0.16729 0.06473 0.0
H34 H 0.96375 0.17434 0.02868 0.0
H35 H 0.99335 0.20073 0.0079 0.0
Mn36 Mn 0.00944 0.73737 0.36958 0.0
Mn37 Mn 0.97095 0.74774 0.41452 0.0
C38 C 0.00404 0.77673 0.38326 0.0
C39 C 0.0467 0.72557 0.35568 0.0
C40 C 0.95507 0.73657 0.36433 0.0
O41 O 0.00482 0.70391 0.38445 0.0
O42 O 0.98315 0.71402 0.41652 0.0
C43 C 0.00394 0.74419 0.45545 0.0
N44 N 0.98757 0.75702 0.44279 0.0
C45 C 0.98799 0.78961 0.47145 0.0
C46 C 0.00478 0.7767 0.48484 0.0
C47 C 0.01286 0.75394 0.47675 0.0
C48 C 0.97979 0.77901 0.45033 0.0
H49 H 0.01012 0.72663 0.44936 0.0
C50 C -0.00442 0.69893 0.40447 0.0
O51 O 0.02734 0.72269 0.34314 0.0
O52 O 0.04456 0.73585 0.37629 0.0
N53 N 0.95829 0.78012 0.41508 0.0
C54 C 0.94341 0.79104 0.39928 0.0
C55 C 0.93434 0.8143 0.40435 0.0
C56 C 0.94042 0.82599 0.42569 0.0
C57 C 0.95571 0.81439 0.4417 0.0
C58 C 0.96419 0.7912 0.43571 0.0
H59 H 0.9385 0.78211 0.38293 0.0
O60 O 0.01265 0.77312 0.36224 0.0
O61 O -0.00083 0.75737 0.3956 0.0
O62 O 0.97594 0.73639 0.35525 0.0
O63 O 0.95144 0.739 0.38644 0.0
C64 C 0.96321 0.82512 0.46318 0.0
C65 C 0.97941 0.81279 0.478 0.0
H66 H 0.01173 0.78417 0.50126 0.0
H67 H 0.02588 0.74391 0.48694 0.0
H68 H 0.92262 0.82317 0.39185 0.0
H69 H 0.93343 0.84395 0.4295 0.0
H70 H 0.95699 0.84307 0.46826 0.0
H71 H 0.98541 0.82144 0.49424 0.0
Mn72 Mn 0.49676 0.75872 0.62426 0.0
Mn73 Mn 0.45729 0.74911 0.57981 0.0
C74 C 0.49076 0.7196 0.6108 0.0
C75 C 0.5339 0.77361 0.636 0.0
C76 C 0.44284 0.75634 0.63099 0.0
O77 O 0.48938 0.79238 0.61234 0.0
O78 O 0.46884 0.78369 0.57922 0.0
C79 C 0.4909 0.75577 0.53982 0.0
N80 N 0.47401 0.742 0.55125 0.0
C81 C 0.47411 0.71156 0.52054 0.0
C82 C 0.49131 0.72553 0.50827 0.0
C83 C 0.49989 0.74765 0.51805 0.0
C84 C 0.46609 0.72042 0.54231 0.0
H85 H 0.49746 0.77282 0.54725 0.0
C86 C 0.47968 0.79867 0.59309 0.0
O87 O 0.51548 0.77403 0.65003 0.0
O88 O 0.53109 0.76334 0.61544 0.0
N89 N 0.44421 0.71664 0.57713 0.0
C90 C 0.42805 0.70502 0.59145 0.0
C91 C 0.41797 0.68246 0.58439 0.0
C92 C 0.4241 0.67236 0.56243 0.0
C93 C 0.44037 0.68486 0.54776 0.0
C94 C 0.44998 0.70719 0.55582 0.0
H95 H 0.42288 0.71286 0.60814 0.0
O96 O 0.50166 0.72355 0.63077 0.0
O97 O 0.48549 0.73875 0.59826 0.0
O98 O 0.46398 0.75663 0.63962 0.0
O99 O 0.43842 0.75548 0.60881 0.0
C100 C 0.4475 0.67603 0.52549 0.0
C101 C 0.46458 0.6892 0.51202 0.0
H102 H 0.49814 0.71941 0.4914 0.0
H103 H 0.51327 0.75847 0.50878 0.0
H104 H 0.40535 0.67296 0.59577 0.0
H105 H 0.41623 0.65498 0.55703 0.0
H106 H 0.44014 0.65898 0.51863 0.0
H107 H 0.47023 0.682 0.49512 0.0
Mn108 Mn 0.51681 0.22606 0.87498 0.0
Mn109 Mn 0.48184 0.23578 0.92288 0.0
C110 C 0.51341 0.26508 0.89019 0.0
C111 C 0.55201 0.214 0.85685 0.0
C112 C 0.46215 0.22785 0.8736 0.0
O113 O 0.51268 0.19209 0.88895 0.0
O114 O 0.49268 0.20159 0.92217 0.0
C115 C 0.51792 0.22876 0.96072 0.0
N116 N 0.50084 0.2427 0.95029 0.0
C117 C 0.50371 0.27287 0.98123 0.0
C118 C 0.52127 0.25879 0.99235 0.0
C119 C 0.5285 0.23671 0.98198 0.0
C120 C 0.49398 0.26412 0.95996 0.0
H121 H 0.52337 0.21167 0.95291 0.0
C122 C 0.50396 0.18655 0.90904 0.0
O123 O 0.53131 0.21204 0.84647 0.0
O124 O 0.55249 0.22337 0.87801 0.0
N125 N 0.47022 0.26836 0.92641 0.0
C126 C 0.45405 0.28044 0.91279 0.0
C127 C 0.44505 0.30291 0.92059 0.0
C128 C 0.4525 0.31258 0.94244 0.0
C129 C 0.46923 0.29992 0.9561 0.0
C130 C 0.47749 0.27754 0.94747 0.0
H131 H 0.44791 0.27293 0.89617 0.0
O132 O 0.52022 0.26189 0.86849 0.0
O133 O 0.50915 0.24549 0.90248 0.0
O134 O 0.48236 0.22659 0.86339 0.0
O135 O 0.45993 0.22962 0.89593 0.0
C136 C 0.4783 0.30879 0.9778 0.0
C137 C 0.49565 0.29535 0.99027 0.0
H138 H 0.52942 0.26482 0.00879 0.0
H139 H 0.54209 0.22578 0.99043 0.0
H140 H 0.43223 0.31264 0.90989 0.0
H141 H 0.44537 0.32983 0.94848 0.0
H142 H 0.47237 0.32612 0.98484 0.0
H143 H 0.5028 0.30257 0.00671 0.0
Mn144 Mn 0.12036 0.01773 0.24444 0.0
Mn145 Mn 0.17325 0.02427 0.27308 0.0
C146 C 0.13945 0.05514 0.2441 0.0
C147 C 0.09946 0.00339 0.21183 0.0
C148 C 0.12473 0.02326 0.29743 0.0
O149 O 0.13025 0.98315 0.25151 0.0
O150 O 0.1682 0.98936 0.26405 0.0
C151 C 0.20612 0.01218 0.23382 0.0
N152 N 0.19898 0.02794 0.25101 0.0
C153 C 0.23117 0.05618 0.24183 0.0
C154 C 0.23903 0.04015 0.22417 0.0
C155 C 0.22636 0.01812 0.22006 0.0
C156 C 0.21075 0.04939 0.2548 0.0
H157 H 0.19645 -0.00477 0.23062 0.0
C158 C 0.15088 0.97537 0.25717 0.0
O159 O 0.08921 0.00508 0.23232 0.0
O160 O 0.12175 0.01069 0.21016 0.0
N161 N 0.18109 0.05704 0.28272 0.0
C162 C 0.17097 0.07071 0.30014 0.0
C163 C 0.18129 0.09348 0.30618 0.0
C164 C 0.2022 0.10174 0.29464 0.0
C165 C 0.21263 0.08712 0.27718 0.0
C166 C 0.20147 0.06465 0.27181 0.0
H167 H 0.15512 0.06435 0.30937 0.0
O168 O 0.1169 0.05322 0.23826 0.0
O169 O 0.15055 0.03488 0.24862 0.0
O170 O 0.112 0.02323 0.27875 0.0
O171 O 0.14766 0.02147 0.29741 0.0
C172 C 0.23365 0.09397 0.26487 0.0
C173 C 0.24277 0.07864 0.24702 0.0
H174 H 0.2547 0.04461 0.2136 0.0
H175 H 0.23223 0.00571 0.20638 0.0
H176 H 0.17321 0.10459 0.31978 0.0
H177 H 0.21009 0.11933 0.29932 0.0
H178 H 0.24281 0.11111 0.26882 0.0
H179 H 0.25872 0.08431 0.23742 0.0
Mn180 Mn 0.27575 0.89118 0.50814 0.0
Mn181 Mn 0.28033 0.94264 0.47546 0.0
C182 C 0.3115 0.91282 0.50731 0.0
C183 C 0.2637 0.8711 0.54222 0.0
C184 C 0.27981 0.89152 0.4547 0.0
O185 O 0.24113 0.90002 0.50159 0.0
O186 O 0.24622 0.93666 0.48409 0.0
C187 C 0.26618 0.97945 0.51106 0.0
N188 N 0.2824 0.97105 0.4951 0.0
C189 C 0.30846 0.00599 0.50148 0.0
C190 C 0.29199 0.01508 0.51792 0.0
C191 C 0.27081 0.0017 0.5228 0.0
C192 C 0.30291 0.98369 0.49039 0.0
H193 H 0.24983 0.96926 0.51477 0.0
C194 C 0.23297 0.91983 0.49321 0.0
O195 O 0.2651 0.85983 0.52211 0.0
O196 O 0.2699 0.89411 0.54273 0.0
N197 N 0.3125 0.95086 0.46609 0.0
C198 C 0.32717 0.93884 0.45085 0.0
C199 C 0.34938 0.94947 0.44453 0.0
C200 C 0.35616 0.97245 0.45373 0.0
C201 C 0.34072 0.98453 0.46929 0.0
C202 C 0.31877 0.97308 0.47487 0.0
H203 H 0.32198 0.92129 0.44355 0.0
O204 O 0.31122 0.89002 0.51371 0.0
O205 O 0.29093 0.9223 0.50201 0.0
O206 O 0.28002 0.88013 0.47421 0.0
O207 O 0.27882 0.91475 0.45321 0.0
C208 C 0.34644 0.00727 0.47981 0.0
C209 C 0.33036 0.01795 0.49596 0.0
H210 H 0.2955 0.03221 0.52704 0.0
H211 H 0.25805 0.00855 0.53553 0.0
H212 H 0.36123 0.94001 0.43255 0.0
H213 H 0.37332 0.98056 0.44885 0.0
H214 H 0.36334 0.0165 0.47592 0.0
H215 H 0.33514 0.03524 0.50424 0.0
Mn216 Mn 0.37242 -0.00127 0.7802 0.0
Mn217 Mn 0.32028 0.99111 0.81017 0.0
C218 C 0.35457 0.96054 0.78244 0.0
C219 C 0.39381 0.00992 0.74671 0.0
C220 C 0.36882 -0.00165 0.83378 0.0
O221 O 0.35967 0.03313 0.78295 0.0
O222 O 0.32349 0.02554 0.79953 0.0
C223 C 0.2852 -0.00027 0.77178 0.0
N224 N 0.29393 0.9851 0.78911 0.0
C225 C 0.26272 0.95494 0.78218 0.0
C226 C 0.25332 0.96974 0.76434 0.0
C227 C 0.26466 0.99219 0.75907 0.0
C228 C 0.28321 0.96343 0.79426 0.0
H229 H 0.29382 0.01702 0.7677 0.0
C230 C 0.3389 0.03985 0.78966 0.0
O231 O 0.40323 0.0114 0.76762 0.0
O232 O 0.37188 0.00143 0.74511 0.0
N233 N 0.31463 0.95837 0.82092 0.0
C234 C 0.32709 0.94538 0.83724 0.0
C235 C 0.31864 0.92208 0.84388 0.0
C236 C 0.29741 0.91245 0.8338 0.0
C237 C 0.28488 0.92616 0.81706 0.0
C238 C 0.29412 0.94931 0.8112 0.0
H239 H 0.34342 0.95265 0.84503 0.0
O240 O 0.37739 0.96266 0.77776 0.0
O241 O 0.34295 0.98071 0.78552 0.0
O242 O 0.38113 -0.00153 0.81494 0.0
O243 O 0.3459 -0.00342 0.83404 0.0
C244 C 0.26392 0.91751 0.80554 0.0
C245 C 0.25287 0.93188 0.78809 0.0
H246 H 0.23754 0.96395 0.75444 0.0
H247 H 0.25758 0.00366 0.74526 0.0
H248 H 0.32849 0.91155 0.85671 0.0
H249 H 0.29105 0.8944 0.83884 0.0
H250 H 0.25642 0.89964 0.80964 0.0
H251 H 0.23703 0.92483 0.77904 0.0
Mn252 Mn 0.25267 0.12546 0.02092 0.0
Mn253 Mn 0.24836 0.06818 -0.00148 0.0
C254 C 0.2155 0.10738 0.01732 0.0
C255 C 0.26175 0.1512 0.05221 0.0
C256 C 0.25532 0.11345 0.96876 0.0
O257 O 0.28679 0.11343 0.02155 0.0
O258 O 0.281 0.07394 0.0119 0.0
C259 C 0.25303 0.04052 0.04308 0.0
N260 N 0.24049 0.04557 0.02305 0.0
C261 C 0.21044 0.01498 0.03222 0.0
C262 C 0.2231 0.00934 0.05287 0.0
C263 C 0.24442 0.02226 0.05838 0.0
C264 C 0.21977 0.03354 0.01778 0.0
H265 H 0.26947 0.05032 0.04734 0.0
C266 C 0.29416 0.09164 0.01958 0.0
O267 O 0.26425 0.15836 0.03054 0.0
O268 O 0.25342 0.12917 0.0557 0.0
N269 N 0.21769 0.05934 0.98527 0.0
C270 C 0.20754 0.06699 0.96472 0.0
C271 C 0.18599 0.05601 0.95679 0.0
C272 C 0.17537 0.03688 0.96975 0.0
C273 C 0.18647 0.02885 0.9905 0.0
C274 C 0.20786 0.04057 -0.0024 0.0
H275 H 0.21575 0.0814 0.95441 0.0
O276 O 0.21752 0.13086 0.02037 0.0
O277 O 0.23524 0.09487 0.01792 0.0
O278 O 0.25354 0.12893 0.98542 0.0
O279 O 0.25561 0.09031 0.97168 0.0
C280 C 0.17711 0.00968 0.00444 0.0
C281 C 0.18895 0.00292 0.0254 0.0
H282 H 0.21658 -0.00483 0.06466 0.0
H283 H 0.25426 0.01807 0.07433 0.0
H284 H 0.17763 0.0622 0.94067 0.0
H285 H 0.15873 0.02849 0.96361 0.0
H286 H 0.16071 0.00013 -0.00073 0.0
H287 H 0.18139 0.98836 0.03612 0.0
Mn288 Mn 0.76402 0.38716 0.99399 0.0
Mn289 Mn 0.76683 0.44027 0.96399 0.0
C290 C 0.80051 0.40633 0.98843 0.0
C291 C 0.75651 0.36588 0.02847 0.0
C292 C 0.7598 0.39073 0.94074 0.0
O293 O 0.72957 0.3986 0.99355 0.0
O294 O 0.7341 0.43599 0.97744 0.0
C295 C 0.7611 0.47523 0.00353 0.0
N296 N 0.7741 0.46685 0.98491 0.0
C297 C 0.80396 0.49871 0.99011 0.0
C298 C 0.79084 0.50777 0.00927 0.0
C299 C 0.76936 0.49591 0.01607 0.0
C300 C 0.79491 0.47796 0.97838 0.0
H301 H 0.74453 0.46622 0.00875 0.0
C302 C 0.72148 0.41941 0.98771 0.0
O303 O 0.75373 0.35567 0.00792 0.0
O304 O 0.76411 0.38847 0.02902 0.0
N305 N 0.79773 0.4469 0.95038 0.0
C306 C 0.80879 0.43522 0.93219 0.0
C307 C 0.83085 0.44439 0.92368 0.0
C308 C 0.84112 0.46562 0.93372 0.0
C309 C 0.82925 0.47749 0.95222 0.0
C310 C 0.80735 0.46748 0.96 0.0
H311 H 0.80091 0.41903 0.92425 0.0
O312 O 0.79963 0.38324 0.9937 0.0
O313 O 0.78011 0.41752 0.9872 0.0
O314 O 0.76222 0.37815 0.95937 0.0
O315 O 0.75985 0.41408 0.94062 0.0
C316 C 0.83838 0.49875 0.96335 0.0
C317 C 0.82579 0.50931 0.98233 0.0
H318 H 0.79714 0.52373 0.01897 0.0
H319 H 0.75918 0.50273 0.03089 0.0
H320 H 0.83988 0.43514 0.90937 0.0
H321 H 0.85817 0.47259 0.92715 0.0
H322 H 0.85526 0.50693 0.95767 0.0
H323 H 0.83319 0.52544 0.99099 0.0
Mn324 Mn 0.86962 0.49642 0.26988 0.0
Mn325 Mn 0.82053 0.48035 0.30154 0.0
C326 C 0.85906 0.45562 0.27424 0.0
C327 C 0.88744 0.50976 0.23512 0.0
C328 C 0.8676 0.4977 0.32345 0.0
O329 O 0.85086 0.52799 0.27219 0.0
O330 O 0.81677 0.51391 0.28918 0.0
C331 C 0.78414 0.47934 0.26326 0.0
N332 N 0.79555 0.46801 0.28137 0.0
C333 C 0.76919 0.43288 0.27824 0.0
C334 C 0.75692 0.44429 0.25976 0.0
C335 C 0.7646 0.46752 0.25207 0.0
C336 C 0.78884 0.44532 0.28835 0.0
H337 H 0.78989 0.49725 0.25742 0.0
C338 C 0.82912 0.53064 0.27883 0.0
O339 O 0.89719 0.51405 0.25555 0.0
O340 O 0.86729 0.49737 0.23478 0.0
N341 N 0.82138 0.44795 0.31416 0.0
C342 C 0.8359 0.43891 0.33135 0.0
C343 C 0.8313 0.41541 0.34033 0.0
C344 C 0.81158 0.40161 0.33186 0.0
C345 C 0.79677 0.41136 0.3143 0.0
C346 C 0.80243 0.43475 0.30581 0.0
H347 H 0.85095 0.44947 0.33808 0.0
O348 O 0.88092 0.4617 0.26836 0.0
O349 O 0.84423 0.47343 0.27694 0.0
O350 O 0.87932 0.49907 0.30426 0.0
O351 O 0.84524 0.49208 0.32441 0.0
C352 C 0.77656 0.39884 0.30497 0.0
C353 C 0.76271 0.40964 0.28702 0.0
H354 H 0.74169 0.43534 0.25126 0.0
H355 H 0.75535 0.47637 0.2377 0.0
H356 H 0.84284 0.40801 0.35386 0.0
H357 H 0.80802 0.38353 0.3389 0.0
H358 H 0.77165 0.38077 0.31127 0.0
H359 H 0.74738 0.39971 0.27978 0.0
Mn360 Mn 0.75061 0.62364 0.51893 0.0
Mn361 Mn 0.74399 0.56987 0.49009 0.0
C362 C 0.71285 0.60728 0.51341 0.0
C363 C 0.75973 0.64633 0.55219 0.0
C364 C 0.75425 0.61804 0.46571 0.0
O365 O 0.78395 0.60967 0.51939 0.0
O366 O 0.7771 0.57244 0.50351 0.0
C367 C 0.74793 0.53615 0.53065 0.0
N368 N 0.73535 0.54455 0.51177 0.0
C369 C 0.7038 0.51465 0.51784 0.0
C370 C 0.71648 0.50558 0.53727 0.0
C371 C 0.73859 0.51646 0.54376 0.0
C372 C 0.71393 0.53443 0.50555 0.0
H373 H 0.76497 0.54438 0.53566 0.0
C374 C 0.79066 0.58822 0.51402 0.0
O375 O 0.76329 0.65489 0.53118 0.0
O376 O 0.75033 0.62448 0.554 0.0
N377 N 0.71268 0.56456 0.47671 0.0
C378 C 0.70217 0.57613 0.45818 0.0
C379 C 0.67969 0.56782 0.44981 0.0
C380 C 0.66839 0.54751 0.46036 0.0
C381 C 0.67966 0.53572 0.47922 0.0
C382 C 0.70202 0.54487 0.48685 0.0
H383 H 0.71078 0.59168 0.4499 0.0
O384 O 0.71558 0.63046 0.51796 0.0
O385 O 0.73223 0.59426 0.51288 0.0
O386 O 0.75334 0.63095 0.4843 0.0
O387 O 0.75211 0.59475 0.46573 0.0
C388 C 0.6695 0.51535 0.49085 0.0
C389 C 0.68146 0.50494 0.51027 0.0
H390 H 0.70937 0.49035 0.54739 0.0
H391 H 0.74844 0.50962 0.55879 0.0
H392 H 0.67111 0.57703 0.43525 0.0
H393 H 0.65101 0.54119 0.45391 0.0
H394 H 0.6523 0.50778 0.48524 0.0
H395 H 0.67324 0.48956 0.51934 0.0
Mn396 Mn 0.61118 0.52107 0.76111 0.0
Mn397 Mn 0.66075 0.52921 0.79412 0.0
C398 C 0.62854 0.55922 0.76281 0.0
C399 C 0.59479 0.50562 0.72668 0.0
C400 C 0.61024 0.52375 0.81401 0.0
O401 O 0.62229 0.48706 0.76876 0.0
O402 O 0.6596 0.49482 0.78231 0.0
C403 C 0.6988 0.52265 0.75823 0.0
N404 N 0.68825 0.53666 0.77511 0.0
C405 C 0.71796 0.56865 0.77013 0.0
C406 C 0.72925 0.55449 0.75282 0.0
C407 C 0.71956 0.53143 0.74679 0.0
C408 C 0.69729 0.55896 0.78089 0.0
H409 H 0.69141 0.50493 0.75351 0.0
C410 C 0.64341 0.48026 0.77395 0.0
O411 O 0.58221 0.50671 0.74595 0.0
O412 O 0.61654 0.51463 0.72715 0.0
N413 N 0.66432 0.56193 0.80598 0.0
C414 C 0.65069 0.57385 0.82223 0.0
C415 C 0.65756 0.59747 0.82965 0.0
C416 C 0.67851 0.6085 0.82053 0.0
C417 C 0.69243 0.59579 0.80408 0.0
C418 C 0.6847 0.57229 0.79733 0.0
H419 H 0.63468 0.56547 0.82951 0.0
O420 O 0.60668 0.55654 0.75496 0.0
O421 O 0.63985 0.53937 0.76815 0.0
O422 O 0.5992 0.52537 0.79444 0.0
O423 O 0.63317 0.5224 0.81565 0.0
C424 C 0.71354 0.60563 0.79394 0.0
C425 C 0.72624 0.59212 0.77689 0.0
H426 H 0.74526 0.56121 0.74393 0.0
H427 H 0.72809 0.52044 0.73336 0.0
H428 H 0.64673 0.60714 0.84239 0.0
H429 H 0.68369 0.62676 0.82622 0.0
H430 H 0.71998 0.62373 0.79887 0.0
H431 H 0.74222 0.60007 0.76892 0.0
Mn432 Mn 0.98647 0.77746 0.8755 0.0
Mn433 Mn 0.95826 0.8009 0.92293 0.0
C434 C 0.98787 0.81862 0.88262 0.0
C435 C 0.0205 0.7628 0.8572 0.0
C436 C 0.93221 0.78371 0.87916 0.0
O437 O 0.98124 0.74773 0.89592 0.0
O438 O 0.96267 0.76515 0.92707 0.0
C439 C -0.00321 0.7937 0.95826 0.0
N440 N 0.98153 0.80883 0.94672 0.0
C441 C -0.00463 0.84354 0.96946 0.0
C442 C 0.01117 0.82832 0.98166 0.0
C443 C 0.01194 0.80331 0.97598 0.0
C444 C 0.98074 0.83293 0.95196 0.0
H445 H -0.00261 0.77447 0.95397 0.0
C446 C 0.97097 0.74658 0.91603 0.0
O447 O -0.00081 0.75784 0.84882 0.0
O448 O 0.02176 0.77456 0.87708 0.0
N449 N 0.95304 0.83535 0.92127 0.0
C450 C 0.93796 0.84777 0.9068 0.0
C451 C 0.93544 0.8731 0.90981 0.0
C452 C 0.94832 0.88534 0.92776 0.0
C453 C 0.96384 0.87219 0.94235 0.0
C454 C 0.96553 0.84696 0.93858 0.0
H455 H 0.92793 0.8384 0.89306 0.0
O456 O 0.99084 0.81044 0.86134 0.0
O457 O 0.98345 0.8025 0.89889 0.0
O458 O 0.95076 0.77694 0.86789 0.0
O459 O 0.93284 0.79372 0.89952 0.0
C460 C 0.97794 0.88316 0.96029 0.0
C461 C 0.9938 0.86888 0.97374 0.0
H462 H 0.02291 0.83566 0.99532 0.0
H463 H 0.02415 0.79146 0.98526 0.0
H464 H 0.92354 0.88315 0.89839 0.0
H465 H 0.94625 0.90486 0.93008 0.0
H466 H 0.977 0.90263 0.96365 0.0
H467 H 0.00485 0.8776 0.9872 0.0
Mn468 Mn -0.00313 0.23581 0.64086 0.0
Mn469 Mn 0.96591 0.22097 0.59172 0.0
C470 C 0.98905 0.19543 0.63171 0.0
C471 C 0.03264 0.24381 0.66033 0.0
C472 C 0.94346 0.24392 0.63497 0.0
O473 O -0.00123 0.26688 0.62126 0.0
O474 O 0.98133 0.25353 0.58741 0.0
C475 C 0.00651 0.21539 0.55852 0.0
N476 N 0.98684 0.20573 0.56957 0.0
C477 C 0.99115 0.16736 0.54922 0.0
C478 C 0.0114 0.17691 0.53754 0.0
C479 C 0.01917 0.201 0.5423 0.0
C480 C 0.97941 0.18248 0.56536 0.0
H481 H 0.01247 0.23393 0.5621 0.0
C482 C 0.9921 0.27 0.59987 0.0
O483 O 0.01238 0.25171 0.6685 0.0
O484 O 0.03226 0.2323 0.64025 0.0
N485 N 0.95031 0.18964 0.59391 0.0
C486 C 0.93106 0.18289 0.60737 0.0
C487 C 0.92127 0.15918 0.60505 0.0
C488 C 0.93124 0.14274 0.58878 0.0
C489 C 0.95094 0.15017 0.575 0.0
C490 C 0.95991 0.17403 0.57808 0.0
H491 H 0.92323 0.19552 0.61977 0.0
O492 O 0.99372 0.2017 0.65335 0.0
O493 O 0.98869 0.21309 0.61659 0.0
O494 O 0.96207 0.24288 0.64796 0.0
O495 O 0.94275 0.23633 0.61362 0.0
C496 C 0.96219 0.13476 0.55852 0.0
C497 C 0.98225 0.14337 0.54561 0.0
H498 H 0.02118 0.16588 0.52499 0.0
H499 H 0.03483 0.20848 0.53342 0.0
H500 H 0.90606 0.15359 0.61574 0.0
H501 H 0.9237 0.12444 0.58711 0.0
H502 H 0.95571 0.11618 0.55579 0.0
H503 H 0.99084 0.13131 0.53309 0.0
Mn504 Mn 0.48949 0.26501 0.37891 0.0
Mn505 Mn 0.46986 0.29088 0.32865 0.0
C506 C 0.44906 0.2684 0.37144 0.0
C507 C 0.50004 0.23292 0.40308 0.0
C508 C 0.49049 0.31996 0.36876 0.0
O509 O 0.51893 0.26289 0.35801 0.0
O510 O 0.50435 0.28248 0.32607 0.0
C511 C 0.4734 0.24697 0.29821 0.0
N512 N 0.45998 0.26516 0.3077 0.0
C513 C 0.42483 0.25165 0.2862 0.0
C514 C 0.43828 0.23279 0.27615 0.0
C515 C 0.46263 0.23037 0.28228 0.0
C516 C 0.43643 0.26739 0.30224 0.0
H517 H 0.49217 0.24519 0.30273 0.0
C518 C 0.52136 0.27225 0.33751 0.0
O519 O 0.50755 0.25509 0.40718 0.0
O520 O 0.48777 0.22904 0.38384 0.0
N521 N 0.43673 0.29992 0.3288 0.0
C522 C 0.42631 0.31908 0.34007 0.0
C523 C 0.40193 0.32399 0.33595 0.0
C524 C 0.38864 0.30942 0.31999 0.0
C525 C 0.39989 0.29006 0.30829 0.0
C526 C 0.42418 0.28594 0.31324 0.0
H527 H 0.43653 0.33051 0.35214 0.0
O528 O 0.45672 0.26742 0.39305 0.0
O529 O 0.46529 0.26828 0.35505 0.0
O530 O 0.49524 0.30148 0.3813 0.0
O531 O 0.47931 0.31878 0.34912 0.0
C532 C 0.38799 0.27481 0.29179 0.0
C533 C 0.40042 0.25553 0.28084 0.0
H534 H 0.43009 0.22007 0.26371 0.0
H535 H 0.47312 0.21585 0.27462 0.0
H536 H 0.39342 0.33903 0.34497 0.0
H537 H 0.36985 0.31327 0.31681 0.0
H538 H 0.36923 0.27763 0.28751 0.0
H539 H 0.391 0.24376 0.26837 0.0
Mn540 Mn 0.48521 0.7308 0.14857 0.0
Mn541 Mn 0.46211 0.72392 0.09412 0.0
C542 C 0.48061 0.69229 0.13315 0.0
C543 C 0.5182 0.73882 0.17241 0.0
C544 C 0.43344 0.73942 0.13707 0.0
O545 O 0.48645 0.7648 0.13429 0.0
O546 O 0.47873 0.75617 0.09592 0.0
C547 C 0.50607 0.72158 0.06492 0.0
N548 N 0.48503 0.71121 0.07241 0.0
C549 C 0.49011 0.6765 0.04677 0.0
C550 C 0.51181 0.68684 0.03872 0.0
C551 C 0.51985 0.70944 0.04789 0.0
C552 C 0.47714 0.68946 0.06375 0.0
H553 H 0.51224 0.73898 0.07191 0.0
C554 C 0.48463 0.77096 0.11264 0.0
O555 O 0.49654 0.74326 0.17966 0.0
O556 O 0.52066 0.73013 0.15122 0.0
N557 N 0.44559 0.6932 0.09039 0.0
C558 C 0.42514 0.68502 0.10119 0.0
C559 C 0.41515 0.66223 0.09468 0.0
C560 C 0.42615 0.64821 0.07702 0.0
C561 C 0.44712 0.65707 0.06607 0.0
C562 C 0.45622 0.67993 0.07326 0.0
H563 H 0.41653 0.69578 0.11466 0.0
O564 O 0.48324 0.69516 0.15576 0.0
O565 O 0.4814 0.71197 0.12043 0.0
O566 O 0.44922 0.73408 0.15242 0.0
O567 O 0.43677 0.73722 0.11487 0.0
C568 C 0.45957 0.64396 0.0486 0.0
C569 C 0.48109 0.65363 0.039 0.0
H570 H 0.52255 0.67749 0.02565 0.0
H571 H 0.53663 0.71748 0.04182 0.0
H572 H 0.39898 0.6555 0.10323 0.0
H573 H 0.41845 0.63061 0.07212 0.0
H574 H 0.45297 0.62623 0.04268 0.0
H575 H 0.49072 0.64318 0.02589 0.0
Mn576 Mn 0.89825 0.0191 0.74396 0.0
Mn577 Mn 0.84845 0.00563 0.77544 0.0
C578 C 0.88351 0.97967 0.74521 0.0
C579 C 0.91572 0.02915 0.70818 0.0
C580 C 0.89714 0.01578 0.79759 0.0
O581 O 0.88343 0.05236 0.74851 0.0
O582 O 0.85005 0.04129 0.76882 0.0
C583 C 0.81169 0.01662 0.7393 0.0
N584 N 0.82178 0.00056 0.75458 0.0
C585 C 0.79279 0.9692 0.74419 0.0
C586 C 0.78201 0.98545 0.72842 0.0
C587 C 0.79154 0.00924 0.72593 0.0
C588 C 0.81279 0.97761 0.75708 0.0
H589 H 0.81899 0.03491 0.73734 0.0
C590 C 0.86383 0.05734 0.7591 0.0
O591 O 0.92739 0.03285 0.72782 0.0
O592 O 0.89376 0.02114 0.70965 0.0
N593 N 0.84479 0.97166 0.78284 0.0
C594 C 0.85828 0.95778 0.79759 0.0
C595 C 0.85155 0.9333 0.80157 0.0
C596 C 0.83099 0.92339 0.79046 0.0
C597 C 0.81743 0.93801 0.7753 0.0
C598 C 0.82491 0.96234 0.77214 0.0
H599 H 0.87409 0.96533 0.80617 0.0
O600 O 0.906 0.98377 0.74045 0.0
O601 O 0.8706 -0.00131 0.74973 0.0
O602 O 0.90884 0.01944 0.77855 0.0
O603 O 0.8748 0.01009 0.79826 0.0
C604 C 0.79703 0.92929 0.76289 0.0
C605 C 0.78477 0.94485 0.74729 0.0
H606 H 0.76654 0.97979 0.718 0.0
H607 H 0.78338 0.02184 0.71372 0.0
H608 H 0.86218 0.92209 0.8132 0.0
H609 H 0.82587 0.90449 0.79357 0.0
H610 H 0.79086 0.91054 0.76492 0.0
H611 H 0.76935 0.93782 0.73755 0.0
Mn612 Mn 0.75427 0.12643 0.49597 0.0
Mn613 Mn 0.73542 0.07239 0.47334 0.0
C614 C 0.71788 0.10984 0.50691 0.0
C615 C 0.77193 0.15041 0.52518 0.0
C616 C 0.73596 0.11954 0.44564 0.0
O617 O 0.78521 0.112 0.48351 0.0
O618 O 0.771 0.07532 0.47053 0.0
C619 C 0.75727 0.03891 0.50795 0.0
N620 N 0.73738 0.04758 0.49689 0.0
C621 C 0.71147 0.02012 0.51854 0.0
C622 C 0.73169 0.01081 0.53007 0.0
C623 C 0.75468 0.02027 0.52476 0.0
C624 C 0.71518 0.03857 0.50181 0.0
H625 H 0.77496 0.04623 0.504 0.0
C626 C 0.78813 0.09093 0.47411 0.0
O627 O 0.76945 0.15856 0.50383 0.0
O628 O 0.76656 0.12755 0.52876 0.0
N629 N 0.70127 0.06774 0.47552 0.0
C630 C 0.68353 0.07979 0.46394 0.0
C631 C 0.65938 0.07308 0.46785 0.0
C632 C 0.65372 0.05406 0.48357 0.0
C633 C 0.6723 0.04189 0.49522 0.0
C634 C 0.69605 0.04923 0.49048 0.0
H635 H 0.68778 0.0945 0.45192 0.0
O636 O 0.72159 0.13326 0.50827 0.0
O637 O 0.73531 0.09699 0.49844 0.0
O638 O 0.74344 0.13304 0.46249 0.0
O639 O 0.73232 0.09654 0.44765 0.0
C640 C 0.66818 0.02303 0.51166 0.0
C641 C 0.68774 0.01218 0.52333 0.0
H642 H 0.72976 -0.00345 0.54318 0.0
H643 H 0.77036 0.01326 0.53368 0.0
H644 H 0.64514 0.08259 0.45881 0.0
H645 H 0.63506 0.04907 0.48667 0.0
H646 H 0.65001 0.01698 0.5157 0.0
H647 H 0.68431 -0.00204 0.5362 0.0
Mn648 Mn 0.6332 0.00478 0.27922 0.0
Mn649 Mn 0.68 0.03553 0.3031 0.0
C650 C 0.64077 0.0446 0.26873 0.0
C651 C 0.6184 0.98137 0.24798 0.0
C652 C 0.63382 0.02356 0.32962 0.0
O653 O 0.65359 0.97796 0.29302 0.0
O654 O 0.6865 -0.00016 0.3045 0.0
C655 C 0.71748 0.02428 0.2678 0.0
N656 N 0.70417 0.04101 0.27967 0.0
C657 C 0.7233 0.0743 0.2589 0.0
C658 C 0.73739 0.05743 0.24663 0.0
C659 C 0.73441 0.03231 0.25106 0.0
C660 C 0.70679 0.06523 0.27543 0.0
H661 H 0.7151 0.00494 0.271 0.0
C662 C 0.6749 0.97958 0.30147 0.0
O663 O 0.60717 0.98171 0.26813 0.0
O664 O 0.63889 0.9928 0.24698 0.0
N665 N 0.67558 0.07019 0.30224 0.0
C666 C 0.65966 0.08396 0.31458 0.0
C667 C 0.65972 0.10943 0.31157 0.0
C668 C 0.67614 0.12049 0.29597 0.0
C669 C 0.6925 0.10597 0.28361 0.0
C670 C 0.6917 0.08068 0.28745 0.0
H671 H 0.64693 0.07557 0.32654 0.0
O672 O 0.61943 0.03523 0.26583 0.0
O673 O 0.65661 0.03042 0.27808 0.0
O674 O 0.62219 0.01417 0.31229 0.0
O675 O 0.65562 0.03123 0.32819 0.0
C676 C 0.70926 0.11555 0.26735 0.0
C677 C 0.7247 0.09973 0.25505 0.0
H678 H 0.75036 0.06354 0.2336 0.0
H679 H 0.74508 0.01916 0.24153 0.0
H680 H 0.64704 0.12052 0.32117 0.0
H681 H 0.67589 0.1401 0.29347 0.0
H682 H 0.71024 0.13502 0.26394 0.0
H683 H 0.73735 0.10729 0.24242 0.0
Mn684 Mn 0.75069 0.86316 0.00638 0.0
Mn685 Mn 0.76216 0.9151 0.97638 0.0
C686 C 0.78834 0.88112 0.00762 0.0
C687 C 0.7388 0.84346 0.0405 0.0
C688 C 0.7562 0.86556 0.95309 0.0
O689 O 0.71721 0.87576 -0.00042 0.0
O690 O 0.727 0.91127 0.98143 0.0
C691 C 0.74776 0.95099 0.01269 0.0
N692 N 0.76479 0.94191 -0.00204 0.0
C693 C 0.79346 0.97295 0.00991 0.0
C694 C 0.7762 0.98271 0.02516 0.0
C695 C 0.75329 0.97162 0.02662 0.0
C696 C 0.78696 0.95228 -0.00341 0.0
H697 H 0.7301 0.94255 0.01377 0.0
C698 C 0.7116 0.89564 0.98933 0.0
O699 O 0.73785 0.83229 0.02024 0.0
O700 O 0.74565 0.86623 0.04068 0.0
N701 N 0.79562 0.92083 0.97034 0.0
C702 C 0.81044 0.90859 0.95541 0.0
C703 C 0.83424 0.91697 0.95235 0.0
C704 C 0.84244 0.93798 0.96443 0.0
C705 C 0.82675 0.95043 0.97947 0.0
C706 C 0.80326 0.94119 0.98185 0.0
H707 H 0.80416 0.89253 0.94598 0.0
O708 O 0.78574 0.85801 0.01217 0.0
O709 O 0.76897 0.89273 0.00214 0.0
O710 O 0.75353 0.85316 0.97189 0.0
O711 O 0.76 0.88863 0.95283 0.0
C712 C 0.83352 0.97155 0.99229 0.0
C713 C 0.8169 0.98278 0.00752 0.0
H714 H 0.78038 -0.00135 0.0359 0.0
H715 H 0.7399 0.97901 0.0384 0.0
H716 H 0.84623 0.90727 0.94069 0.0
H717 H 0.86082 0.94435 0.96208 0.0
H718 H 0.85156 0.97915 0.99077 0.0
H719 H 0.82242 -0.00116 0.01751 0.0
Mn720 Mn 0.26006 0.62722 0.01337 0.0
Mn721 Mn 0.22332 0.58678 0.98574 0.0
C722 C 0.2196 0.62655 0.02158 0.0
C723 C 0.2826 0.63815 0.04638 0.0
C724 C 0.24387 0.63238 0.96229 0.0
O725 O 0.28341 0.60229 0.0007 0.0
O726 O 0.25713 0.57504 0.9845 0.0
C727 C 0.2277 0.54463 0.01803 0.0
N728 N 0.21373 0.5612 0.00677 0.0
C729 C 0.17764 0.54348 0.0233 0.0
C730 C 0.19163 0.52608 0.03487 0.0
C731 C 0.21677 0.52671 0.03228 0.0
C732 C 0.18952 0.56078 0.00916 0.0
H733 H 0.24703 0.54515 0.01622 0.0
C734 C 0.27854 0.5822 0.99 0.0
O735 O 0.28581 0.64938 0.0264 0.0
O736 O 0.26839 0.6192 0.04621 0.0
N737 N 0.19018 0.59593 0.98617 0.0
C738 C 0.17957 0.61546 0.9758 0.0
C739 C 0.15458 0.61832 0.97776 0.0
C740 C 0.14076 0.60105 0.99031 0.0
C741 C 0.15208 0.58115 0.0009 0.0
C742 C 0.17703 0.57918 -0.00176 0.0
H743 H 0.19012 0.62889 0.96631 0.0
O744 O 0.23229 0.64623 0.02526 0.0
O745 O 0.23084 0.60807 0.01255 0.0
O746 O 0.25552 0.64076 0.98004 0.0
O747 O 0.23154 0.61249 0.96268 0.0
C748 C 0.13968 0.56357 0.01455 0.0
C749 C 0.15245 0.54475 0.02574 0.0
H750 H 0.1833 0.51234 0.04604 0.0
H751 H 0.22771 0.51345 0.04131 0.0
H752 H 0.146 0.63384 0.9697 0.0
H753 H 0.12152 0.60343 0.99195 0.0
H754 H 0.12039 0.56466 0.01696 0.0
H755 H 0.14278 0.53164 0.03657 0.0
Mn756 Mn 0.13159 0.49646 0.7684 0.0
Mn757 Mn 0.17592 0.52454 0.7992 0.0
C758 C 0.14255 0.53609 0.76025 0.0
C759 C 0.11838 0.47545 0.73504 0.0
C760 C 0.12597 0.51598 0.81862 0.0
O761 O 0.14862 0.46795 0.78319 0.0
O762 O 0.17763 0.48848 0.80345 0.0
C763 C 0.21723 0.50652 0.77158 0.0
N764 N 0.20427 0.52551 0.78017 0.0
C765 C 0.23139 0.5549 0.76262 0.0
C766 C 0.2451 0.53566 0.75368 0.0
C767 C 0.23794 0.51136 0.75812 0.0
C768 C 0.21091 0.54895 0.77587 0.0
H769 H 0.21179 0.48782 0.77495 0.0
C770 C 0.16669 0.46866 0.79718 0.0
O771 O 0.10554 0.47552 0.75422 0.0
O772 O 0.13961 0.48543 0.73625 0.0
N773 N 0.17629 0.55942 0.79634 0.0
C774 C 0.16053 0.57584 0.80537 0.0
C775 C 0.1648 0.60097 0.80204 0.0
C776 C 0.18529 0.60895 0.78962 0.0
C777 C 0.20134 0.5917 0.78065 0.0
C778 C 0.19617 0.56691 0.78456 0.0
H779 H 0.14474 0.5698 0.81488 0.0
O780 O 0.12112 0.52818 0.75497 0.0
O781 O 0.15657 0.52079 0.77074 0.0
O782 O 0.11737 0.50482 0.80062 0.0
O783 O 0.14736 0.52478 0.81975 0.0
C784 C 0.22215 0.59814 0.76783 0.0
C785 C 0.23712 0.57975 0.75874 0.0
H786 H 0.26107 0.53932 0.74328 0.0
H787 H 0.24838 0.49641 0.75121 0.0
H788 H 0.1523 0.61415 0.80899 0.0
H789 H 0.18847 0.62834 0.78698 0.0
H790 H 0.22665 0.61717 0.76459 0.0
H791 H 0.25289 0.58492 0.74861 0.0
Mn792 Mn 0.24767 0.36182 0.52006 0.0
Mn793 Mn 0.27385 0.40482 0.48592 0.0
C794 C 0.28818 0.36981 0.52333 0.0
C795 C 0.22973 0.35125 0.55542 0.0
C796 C 0.25861 0.35465 0.46802 0.0
O797 O 0.21923 0.38093 0.50829 0.0
O798 O 0.23852 0.41017 0.48724 0.0
C799 C 0.26529 0.44828 0.51584 0.0
N800 N 0.28083 0.43345 0.50425 0.0
C801 C 0.31475 0.45871 0.51564 0.0
C802 C 0.2991 0.47433 0.52763 0.0
C803 C 0.27428 0.46905 0.52778 0.0
C804 C 0.30474 0.43831 0.50405 0.0
H805 H 0.24621 0.44427 0.51598 0.0
C806 C 0.21931 0.39995 0.4953 0.0
O807 O 0.22692 0.33745 0.53683 0.0
O808 O 0.24138 0.37171 0.55283 0.0
N809 N 0.30799 0.40181 0.48318 0.0
C810 C 0.32073 0.3841 0.47203 0.0
C811 C 0.3459 0.38633 0.4707 0.0
C812 C 0.35766 0.40679 0.4807 0.0
C813 C 0.34417 0.42475 0.49213 0.0
C814 C 0.31913 0.42162 0.49275 0.0
H815 H 0.31176 0.36839 0.46423 0.0
O816 O 0.27942 0.3489 0.53008 0.0
O817 O 0.27301 0.38519 0.51455 0.0
O818 O 0.25065 0.34613 0.48745 0.0
O819 O 0.26775 0.37608 0.46576 0.0
C820 C 0.35459 0.44543 0.50324 0.0
C821 C 0.3399 0.46235 0.51507 0.0
H822 H 0.30597 0.49032 0.53692 0.0
H823 H 0.26211 0.48096 0.53707 0.0
H824 H 0.35621 0.37234 0.46194 0.0
H825 H 0.37706 0.40846 0.4796 0.0
H826 H 0.37392 0.44831 0.50312 0.0
H827 H 0.34817 0.47796 0.52387 0.0
Mn828 Mn 0.4087 0.52201 0.25539 0.0
Mn829 Mn 0.3527 0.52085 0.27822 0.0
C830 C 0.38687 0.48604 0.25679 0.0
C831 C 0.4335 0.52476 0.22271 0.0
C832 C 0.39766 0.52291 0.30823 0.0
O833 O 0.40065 0.55815 0.25606 0.0
O834 O 0.36314 0.55483 0.27123 0.0
C835 C 0.32705 0.53645 0.23517 0.0
N836 N 0.3303 0.51977 0.25262 0.0
C837 C 0.29906 0.49354 0.23678 0.0
C838 C 0.29527 0.5105 0.21871 0.0
C839 C 0.30936 0.53203 0.21788 0.0
C840 C 0.31693 0.49895 0.25351 0.0
H841 H 0.33792 0.55296 0.23444 0.0
C842 C 0.38117 0.56735 0.26367 0.0
O843 O 0.44229 0.52796 0.24381 0.0
O844 O 0.41044 0.52196 0.22078 0.0
N845 N 0.34039 0.48906 0.28605 0.0
C846 C 0.34642 0.47456 0.30458 0.0
C847 C 0.33407 0.45225 0.30792 0.0
C848 C 0.3155 0.44523 0.29235 0.0
C849 C 0.30927 0.46072 0.27371 0.0
C850 C 0.32209 0.48281 0.27138 0.0
H851 H 0.36065 0.47992 0.31662 0.0
O852 O 0.41007 0.48568 0.25516 0.0
O853 O 0.37706 0.50742 0.25744 0.0
O854 O 0.41286 0.52287 0.29131 0.0
O855 O 0.37487 0.5215 0.30527 0.0
C856 C 0.29098 0.45504 0.25726 0.0
C857 C 0.28596 0.47137 0.23874 0.0
H858 H 0.28168 0.50714 0.20531 0.0
H859 H 0.30661 0.54516 0.20393 0.0
H860 H 0.33891 0.44045 0.32241 0.0
H861 H 0.30617 0.42791 0.29484 0.0
H862 H 0.28081 0.43805 0.25857 0.0
H863 H 0.27202 0.46668 0.22606 0.0
O864 O 0.98918 0.07151 0.01935 0.0
Zn865 Zn -0.00277 0.04493 -0.00281 0.0
O866 O 0.98825 0.01463 0.01181 0.0
Zn867 Zn 0.01594 0.99374 0.01379 0.0
Zn868 Zn 0.97253 0.01847 0.04192 0.0
Zn869 Zn 0.96542 0.00052 0.99123 0.0
O870 O 0.01636 0.96962 0.98687 0.0
O871 O 0.98192 0.9785 0.96921 0.0
O872 O 0.0328 0.04799 0.99368 0.0
O873 O 0.04582 0.01396 0.01026 0.0
O874 O 0.01822 0.97837 0.04589 0.0
O875 O 0.99243 0.00125 0.06592 0.0
O876 O 0.93985 0.00135 0.04322 0.0
O877 O 0.98102 0.0495 0.96571 0.0
O878 O 0.94152 0.98121 0.00911 0.0
O879 O 0.94926 0.02527 0.97123 0.0
C880 C 0.97991 0.073 0.0398 0.0
C881 C 0.00171 0.96721 0.96968 0.0
C882 C 0.00872 0.9851 0.06528 0.0
C883 C 0.04985 0.03481 0.0011 0.0
C884 C 0.93209 0.98476 0.02919 0.0
C885 C 0.96029 0.04167 0.95945 0.0
O886 O 0.97186 0.05428 0.05078 0.0
O887 O 0.24905 0.71372 0.21597 0.0
Zn888 Zn 0.24659 0.72515 0.24941 0.0
O889 O 0.24894 0.76053 0.24993 0.0
Zn890 Zn 0.28085 0.7711 0.26057 0.0
Zn891 Zn 0.24239 0.77312 0.21832 0.0
Zn892 Zn 0.22547 0.77225 0.27178 0.0
O893 O 0.27958 0.79114 0.2904 0.0
O894 O 0.24087 0.78834 0.29968 0.0
O895 O 0.27512 0.71088 0.26544 0.0
O896 O 0.30147 0.74187 0.26693 0.0
O897 O 0.29772 0.79018 0.23549 0.0
O898 O 0.27124 0.79132 0.20624 0.0
O899 O 0.21493 0.79692 0.21838 0.0
O900 O 0.21612 0.7119 0.26473 0.0
O901 O 0.20494 0.797 0.25635 0.0
O902 O 0.20418 0.74551 0.28326 0.0
C903 C 0.2453 0.72348 0.19597 0.0
C904 C 0.26224 0.79544 0.30438 0.0
C905 C 0.29191 0.79644 0.21468 0.0
C906 C 0.29619 0.71932 0.26953 0.0
C907 C 0.20229 0.80489 0.23543 0.0
C908 C 0.20196 0.72284 0.27872 0.0
O909 O 0.23929 0.74582 0.19426 0.0
O910 O 0.51374 0.98107 0.53046 0.0
Zn911 Zn 0.50939 0.01469 0.51801 0.0
O912 O 0.51611 0.03846 0.54276 0.0
Zn913 Zn 0.48713 0.05685 0.54902 0.0
Zn914 Zn 0.52771 0.02254 0.57121 0.0
Zn915 Zn 0.54058 0.06054 0.53197 0.0
O916 O 0.48839 0.09027 0.53345 0.0
O917 O 0.52726 0.0929 0.5248 0.0
O918 O 0.47473 0.01437 0.50844 0.0
O919 O 0.45899 0.03809 0.53608 0.0
O920 O 0.48076 0.0588 0.58395 0.0
O921 O 0.50666 0.03202 0.59837 0.0
O922 O 0.56211 0.03216 0.57918 0.0
O923 O 0.5309 0.01898 0.48997 0.0
O924 O 0.5664 0.06435 0.55567 0.0
O925 O 0.55544 0.049 0.50167 0.0
C926 C 0.51945 0.9723 0.5504 0.0
C927 C 0.50643 0.10209 0.52521 0.0
C928 C 0.48926 0.04667 0.60115 0.0
C929 C 0.4566 0.02264 0.51938 0.0
C930 C 0.57379 0.05105 0.57243 0.0
C931 C 0.54907 0.03294 0.48651 0.0
O932 O 0.52525 0.98604 0.56775 0.0
O933 O 0.25512 0.2356 0.82647 0.0
Zn934 Zn 0.26104 0.26374 0.80496 0.0
O935 O 0.24843 0.25567 0.77403 0.0
Zn936 Zn 0.2745 0.25249 0.75124 0.0
Zn937 Zn 0.22893 0.22561 0.77522 0.0
Zn938 Zn 0.2286 0.28194 0.76433 0.0
O939 O 0.26728 0.27162 0.72155 0.0
O940 O 0.24079 0.29802 0.73541 0.0
O941 O 0.2964 0.26844 0.80322 0.0
O942 O 0.30649 0.26239 0.76573 0.0
O943 O 0.27872 0.21714 0.74328 0.0
O944 O 0.24599 0.19907 0.75784 0.0
O945 O 0.19561 0.22967 0.76116 0.0
O946 O 0.24695 0.29419 0.81933 0.0
O947 O 0.19669 0.2696 0.75449 0.0
O948 O 0.22386 0.30629 0.78966 0.0
C949 C 0.24094 0.21713 0.82611 0.0
C950 C 0.25402 0.29024 0.71881 0.0
C951 C 0.26598 0.19803 0.747 0.0
C952 C 0.31215 0.26747 0.78702 0.0
C953 C 0.18584 0.24905 0.75356 0.0
C954 C 0.23199 0.30893 0.81047 0.0
O955 O 0.2275 0.21241 0.80837 0.0
O956 O 0.01453 0.00238 0.44646 0.0
Zn957 Zn 0.99102 0.988 0.46922 0.0
O958 O 0.00434 0.99255 0.50018 0.0
Zn959 Zn 0.01064 0.96234 0.51682 0.0
Zn960 Zn 0.03184 0.01419 0.50083 0.0
Zn961 Zn 0.9797 0.00626 0.51834 0.0
O962 O -0.00485 0.96427 0.5495 0.0
O963 O 0.96251 0.97922 0.53419 0.0
O964 O 0.98769 0.95198 0.46278 0.0
O965 O -6e-05 0.93425 0.49612 0.0
O966 O 0.04616 0.95861 0.52077 0.0
O967 O 0.06058 -0.00479 0.51073 0.0
O968 O 0.02721 0.04144 0.5245 0.0
O969 O 0.95968 0.00606 0.46418 0.0
O970 O 0.99345 0.02913 0.54219 0.0
O971 O 0.95684 0.02446 0.49892 0.0
C972 C 0.03196 0.01771 0.44801 0.0
C973 C 0.97381 0.97195 0.55218 0.0
C974 C 0.06375 0.97341 0.51774 0.0
C975 C 0.99208 0.93298 0.47495 0.0
C976 C 0.01186 0.04315 0.54112 0.0
C977 C 0.94979 0.02154 0.47778 0.0
O978 O 0.03951 0.02575 0.46789 0.0
O979 O 0.29356 0.74155 0.75057 0.0
Zn980 Zn 0.26303 0.75112 0.76723 0.0
O981 O 0.23522 0.74614 0.74628 0.0
Zn982 Zn 0.21803 0.77689 0.74171 0.0
Zn983 Zn 0.24509 0.73316 0.71581 0.0
Zn984 Zn 0.21429 0.72222 0.76042 0.0
O985 O 0.18439 0.77538 0.75597 0.0
O986 O 0.18284 0.73655 0.76737 0.0
O987 O 0.26759 0.78667 0.77471 0.0
O988 O 0.23743 0.8045 0.75588 0.0
O989 O 0.21623 0.78585 0.70713 0.0
O990 O 0.23789 0.75687 0.69025 0.0
O991 O 0.22946 0.70105 0.70693 0.0
O992 O 0.26009 0.73206 0.79769 0.0
O993 O 0.20735 0.69457 0.73891 0.0
O994 O 0.22755 0.70915 0.7906 0.0
C995 C 0.29736 0.73282 0.73007 0.0
C996 C 0.17309 0.75723 0.765 0.0
C997 C 0.22607 0.77656 0.68896 0.0
C998 C 0.25649 0.80573 0.76835 0.0
C999 C 0.21424 0.68841 0.71846 0.0
C1000 C 0.24523 0.71528 0.80373 0.0
O1001 O 0.28029 0.72862 0.7156 0.0
O1002 O 0.54886 0.004 0.07476 0.0
Zn1003 Zn 0.53909 0.00848 0.04072 0.0
O1004 O 0.5048 0.00154 0.03683 0.0
Zn1005 Zn 0.49934 0.97251 0.01697 0.0
Zn1006 Zn 0.48975 -0.00279 0.06765 0.0
Zn1007 Zn 0.49036 0.02896 0.02185 0.0
O1008 O 0.47655 0.979 0.98997 0.0
O1009 O 0.47266 0.01921 0.99254 0.0
O1010 O 0.55728 0.98461 0.02175 0.0
O1011 O 0.53067 0.96002 0.00388 0.0
O1012 O 0.48579 0.94538 0.03643 0.0
O1013 O 0.47906 0.96237 0.07143 0.0
O1014 O 0.46137 0.0194 0.07245 0.0
O1015 O 0.54962 0.04152 0.02755 0.0
O1016 O 0.46647 0.04481 0.04241 0.0
O1017 O 0.51465 0.05351 0.01286 0.0
C1018 C 0.53677 0.00226 0.0938 0.0
C1019 C 0.46809 -0.00103 0.98228 0.0
C1020 C 0.47883 0.94389 0.05775 0.0
C1021 C 0.55227 0.96693 0.0079 0.0
C1022 C 0.45557 0.03852 0.06114 0.0
C1023 C 0.53702 0.05678 0.01622 0.0
O1024 O 0.51386 0.00179 0.09371 0.0
O1025 O 0.19866 0.2946 0.24276 0.0
Zn1026 Zn 0.22094 0.27345 0.26103 0.0
O1027 O 0.25303 0.27835 0.24903 0.0
Zn1028 Zn 0.26905 0.24753 0.24563 0.0
Zn1029 Zn 0.25358 0.29647 0.21984 0.0
Zn1030 Zn 0.26866 0.29729 0.27263 0.0
O1031 O 0.29347 0.24229 0.27141 0.0
O1032 O 0.28864 0.27603 0.29274 0.0
O1033 O 0.21037 0.2385 0.25658 0.0
O1034 O 0.24465 0.22042 0.24739 0.0
O1035 O 0.28336 0.24452 0.21333 0.0
O1036 O 0.26579 0.27477 0.19398 0.0
O1037 O 0.27576 0.32599 0.22194 0.0
O1038 O 0.21891 0.28239 0.29558 0.0
O1039 O 0.28985 0.32271 0.25852 0.0
O1040 O 0.24524 0.31306 0.29407 0.0
C1041 C 0.20058 0.30626 0.22341 0.0
C1042 C 0.29774 0.25506 0.28983 0.0
C1043 C 0.27849 0.25554 0.19417 0.0
C1044 C 0.22213 0.21942 0.25134 0.0
C1045 C 0.28988 0.33292 0.23844 0.0
C1046 C 0.22843 0.30155 0.30461 0.0
O1047 O 0.22027 0.30748 0.21198 0.0
O1048 O 0.49568 0.48786 0.95913 0.0
Zn1049 Zn 0.476 0.46937 0.98281 0.0
O1050 O 0.48858 0.47526 0.01428 0.0
Zn1051 Zn 0.50121 0.44576 0.02842 0.0
Zn1052 Zn 0.51426 0.49994 0.01349 0.0
Zn1053 Zn 0.46222 0.48608 0.03343 0.0
O1054 O 0.49066 0.44239 0.06252 0.0
O1055 O 0.45887 0.46647 0.06261 0.0
O1056 O 0.47933 0.43391 0.975 0.0
O1057 O 0.49423 0.41677 0.00746 0.0
O1058 O 0.53694 0.44728 0.02933 0.0
O1059 O 0.54619 0.48613 0.02263 0.0
O1060 O 0.5068 0.52802 0.03471 0.0
O1061 O 0.44136 0.47965 0.97907 0.0
O1062 O 0.46905 0.51992 0.04532 0.0
O1063 O 0.43097 0.48669 0.01624 0.0
C1064 C 0.51195 0.50442 0.96062 0.0
C1065 C 0.47261 0.45155 0.07297 0.0
C1066 C 0.55244 0.46442 0.02734 0.0
C1067 C 0.48672 0.41531 0.9862 0.0
C1068 C 0.48765 0.53374 0.04555 0.0
C1069 C 0.42564 0.48503 0.99447 0.0
O1070 O 0.5198 0.51189 0.98053 0.0
O1071 O 0.7933 0.2289 0.24121 0.0
Zn1072 Zn 0.76465 0.24232 0.25756 0.0
O1073 O 0.73751 0.24261 0.23581 0.0
Zn1074 Zn 0.72564 0.2755 0.23149 0.0
Zn1075 Zn 0.74562 0.2278 0.20577 0.0
Zn1076 Zn 0.71233 0.22343 0.24917 0.0
O1077 O 0.69382 0.28107 0.24786 0.0
O1078 O 0.68779 0.2443 0.26346 0.0
O1079 O 0.77509 0.27661 0.26632 0.0
O1080 O 0.7497 0.29879 0.24527 0.0
O1081 O 0.72337 0.28378 0.1971 0.0
O1082 O 0.73971 0.25158 0.17967 0.0
O1083 O 0.7259 0.1974 0.19904 0.0
O1084 O 0.75798 0.22131 0.28612 0.0
O1085 O 0.6967 0.20204 0.22525 0.0
O1086 O 0.72406 0.20253 0.27525 0.0
C1087 C 0.79724 0.22115 0.22042 0.0
C1088 C 0.682 0.26647 0.26104 0.0
C1089 C 0.73052 0.27275 0.17862 0.0
C1090 C 0.76792 0.29718 0.2588 0.0
C1091 C 0.70533 0.19151 0.2072 0.0
C1092 C 0.74165 0.20507 0.28944 0.0
O1093 O 0.78054 0.21978 0.20505 0.0
O1094 O 0.05027 0.50918 0.56247 0.0
Zn1095 Zn 0.04169 0.51527 0.52842 0.0
O1096 O 0.00883 0.50392 0.52227 0.0
Zn1097 Zn 0.00848 0.47681 0.49956 0.0
Zn1098 Zn 0.9929 0.49411 0.55151 0.0
Zn1099 Zn 0.99133 0.53049 0.50928 0.0
O1100 O 0.9851 0.48249 0.47274 0.0
O1101 O 0.9755 0.52122 0.47898 0.0
O1102 O 0.06411 0.49584 0.50898 0.0
O1103 O 0.04175 0.47092 0.48664 0.0
O1104 O -0.00081 0.4458 0.51596 0.0
O1105 O 0.98645 0.45799 0.55114 0.0
O1106 O 0.96164 0.51192 0.55709 0.0
O1107 O 0.04808 0.55047 0.51834 0.0
O1108 O 0.96527 0.54121 0.53032 0.0
O1109 O 0.01233 0.55877 0.50303 0.0
C1110 C 0.03784 0.50318 0.58049 0.0
C1111 C 0.97391 0.5017 0.46683 0.0
C1112 C 0.99065 0.44108 0.53628 0.0
C1113 C 0.06216 0.47963 0.49292 0.0
C1114 C 0.9543 0.53154 0.54763 0.0
C1115 C 0.03392 0.56479 0.50767 0.0
O1116 O 0.01531 0.49879 0.57907 0.0
O1117 O 0.74898 0.74074 0.3188 0.0
Zn1118 Zn 0.75464 0.76387 0.29224 0.0
O1119 O 0.74026 0.75121 0.26354 0.0
Zn1120 Zn 0.76491 0.74163 0.24065 0.0
Zn1121 Zn 0.7188 0.72372 0.27085 0.0
Zn1122 Zn 0.72182 0.77712 0.25071 0.0
O1123 O 0.75866 0.75619 0.20821 0.0
O1124 O 0.7284 0.78066 0.21678 0.0
O1125 O 0.79003 0.76561 0.28817 0.0
O1126 O 0.79837 0.75037 0.25273 0.0
O1127 O 0.76438 0.70515 0.23758 0.0
O1128 O 0.73007 0.69347 0.25447 0.0
O1129 O 0.68409 0.73067 0.26279 0.0
O1130 O 0.74388 0.79778 0.301 0.0
O1131 O 0.68678 0.76977 0.2527 0.0
O1132 O 0.72842 0.80898 0.26663 0.0
C1133 C 0.73538 0.72206 0.32148 0.0
C1134 C 0.74281 0.77151 0.20194 0.0
C1135 C 0.74933 0.68849 0.2434 0.0
C1136 C 0.8051 0.75972 0.27236 0.0
C1137 C 0.67427 0.75056 0.25658 0.0
C1138 C 0.73566 0.81409 0.28737 0.0
O1139 O 0.72161 0.71441 0.30499 0.0
O1140 O 0.72916 0.22919 0.687 0.0
Zn1141 Zn 0.73183 0.23235 0.72204 0.0
O1142 O 0.73886 0.26594 0.73098 0.0
Zn1143 Zn 0.76836 0.26746 0.74961 0.0
Zn1144 Zn 0.7415 0.28669 0.70313 0.0
Zn1145 Zn 0.71302 0.27753 0.75006 0.0
O1146 O 0.76446 0.28625 0.7798 0.0
O1147 O 0.72541 0.29388 0.77926 0.0
O1148 O 0.75937 0.21154 0.73117 0.0
O1149 O 0.78123 0.23397 0.75625 0.0
O1150 O 0.79402 0.28383 0.73068 0.0
O1151 O 0.77553 0.2985 0.69915 0.0
O1152 O 0.71935 0.31574 0.7057 0.0
O1153 O 0.70266 0.21825 0.73878 0.0
O1154 O 0.69436 0.30302 0.73377 0.0
O1155 O 0.69135 0.25043 0.75993 0.0
C1156 C 0.73176 0.24406 0.66992 0.0
C1157 C 0.74598 0.29592 0.78894 0.0
C1158 C 0.79456 0.29526 0.71118 0.0
C1159 C 0.77682 0.21388 0.74559 0.0
C1160 C 0.70044 0.31848 0.71811 0.0
C1161 C 0.68903 0.22813 0.75397 0.0
O1162 O 0.7357 0.26681 0.67347 0.0
O1163 O 0.68436 0.79709 0.72979 0.0
Zn1164 Zn 0.70503 0.77917 0.75239 0.0
O1165 O 0.73771 0.78352 0.74239 0.0
Zn1166 Zn 0.75443 0.75314 0.74369 0.0
Zn1167 Zn 0.74117 0.79906 0.71191 0.0
Zn1168 Zn 0.75043 0.80486 0.76565 0.0
O1169 O 0.77941 0.75349 0.76917 0.0
O1170 O 0.7691 0.78645 0.78962 0.0
O1171 O 0.69564 0.74373 0.75216 0.0
O1172 O 0.73113 0.72575 0.74994 0.0
O1173 O 0.76879 0.74554 0.71236 0.0
O1174 O 0.75376 0.77424 0.68908 0.0
O1175 O 0.76599 0.82686 0.71292 0.0
O1176 O 0.70059 0.79175 0.78566 0.0
O1177 O 0.77342 0.82779 0.75137 0.0
O1178 O 0.72501 0.82355 0.78196 0.0
C1179 C 0.68766 0.8081 0.71024 0.0
C1180 C 0.78136 0.76713 0.78734 0.0
C1181 C 0.76545 0.75458 0.69196 0.0
C1182 C 0.70834 0.72456 0.75198 0.0
C1183 C 0.77784 0.8351 0.7306 0.0
C1184 C 0.7087 0.81217 0.79324 0.0
O1185 O 0.70847 0.81019 0.70087 0.0
O1186 O 0.48066 0.55079 0.53296 0.0
Zn1187 Zn 0.49623 0.52769 0.51111 0.0
O1188 O 0.49214 0.49552 0.52398 0.0
Zn1189 Zn 0.5224 0.47837 0.5249 0.0
Zn1190 Zn 0.47593 0.4952 0.55407 0.0
Zn1191 Zn 0.47156 0.47992 0.50221 0.0
O1192 O 0.52515 0.45417 0.49775 0.0
O1193 O 0.49106 0.46237 0.47898 0.0
O1194 O 0.53114 0.53708 0.50964 0.0
O1195 O 0.54904 0.50289 0.52064 0.0
O1196 O 0.52779 0.46375 0.55716 0.0
O1197 O 0.49852 0.48147 0.57753 0.0
O1198 O 0.44715 0.47198 0.55414 0.0
O1199 O 0.48058 0.53133 0.47918 0.0
O1200 O 0.45002 0.45638 0.51808 0.0
O1201 O 0.45207 0.50319 0.48384 0.0
C1202 C 0.47037 0.54978 0.55298 0.0
C1203 C 0.51147 0.45232 0.47972 0.0
C1204 C 0.51733 0.46847 0.57665 0.0
C1205 C 0.55006 0.52523 0.51445 0.0
C1206 C 0.44085 0.45624 0.53859 0.0
C1207 C 0.46078 0.52139 0.47275 0.0
O1208 O 0.46738 0.52967 0.564 0.0
O1209 O 0.02153 0.47801 0.03386 0.0
Zn1210 Zn 0.00803 0.50355 0.01303 0.0
O1211 O 0.008 0.53453 0.03005 0.0
Zn1212 Zn 0.97535 0.54719 0.03262 0.0
Zn1213 Zn 0.02271 0.5318 0.06134 0.0
Zn1214 Zn 0.02692 0.55668 0.01177 0.0
O1215 O 0.97092 0.57856 0.01437 0.0
O1216 O 0.00649 0.58116 -0.00317 0.0
O1217 O 0.97448 0.49254 0.00535 0.0
O1218 O 0.95213 0.52281 0.01892 0.0
O1219 O 0.96566 0.55122 0.06664 0.0
O1220 O -0.00172 0.53971 0.08613 0.0
O1221 O 0.05159 0.55477 0.06574 0.0
O1222 O 0.02698 0.50447 0.9827 0.0
O1223 O 0.05031 0.57432 0.03158 0.0
O1224 O 0.04497 0.54075 0.98579 0.0
C1225 C 0.02982 0.47753 0.0548 0.0
C1226 C 0.98519 0.58864 -0.00034 0.0
C1227 C 0.97661 0.54698 0.08593 0.0
C1228 C 0.95408 0.50212 0.00882 0.0
C1229 C 0.05912 0.57166 0.05206 0.0
C1230 C 0.04193 0.52044 0.97523 0.0
O1231 O 0.0316 0.49681 0.06742 0.0
H1232 H 0.02371 0.2186 0.08252 0.0
H1233 H 0.98347 0.19186 0.14222 0.0
H1234 H 0.01815 0.1795 0.06262 0.0
H1235 H 0.97898 0.1519 0.12324 0.0
H1236 H 0.94974 0.09448 0.07178 0.0
H1237 H 0.95729 0.13264 0.09338 0.0
H1238 H 0.02701 0.13938 0.0598 0.0
H1239 H 0.0185 0.1028 0.03717 0.0
C1240 C 0.01376 0.20411 0.09133 0.0
C1241 C 0.00298 0.20823 0.11317 0.0
C1242 C 0.0109 0.18152 0.08021 0.0
C1243 C -0.00236 0.16252 0.0911 0.0
C1244 C 0.98849 0.16632 0.11393 0.0
C1245 C 0.99121 0.18904 0.12491 0.0
C1246 C 0.96645 0.10448 0.06893 0.0
C1247 C 0.98329 0.09614 0.05254 0.0
C1248 C 0.971 0.12612 0.08148 0.0
C1249 C 0.99279 0.13926 0.07831 0.0
C1250 C 0.00975 0.13033 0.06225 0.0
C1251 C 0.0049 0.10926 0.04928 0.0
H1252 H 0.09137 0.73842 0.37187 0.0
H1253 H 0.05477 0.69447 0.31906 0.0
H1254 H 0.12984 0.72875 0.35403 0.0
H1255 H 0.09332 0.68382 0.30174 0.0
H1256 H 0.15967 0.71146 0.25787 0.0
H1257 H 0.12171 0.70523 0.27848 0.0
H1258 H 0.16016 0.70053 0.34474 0.0
H1259 H 0.19798 0.70803 0.3239 0.0
C1260 C 0.09162 0.72627 0.35674 0.0
C1261 C 0.07012 0.71757 0.34659 0.0
C1262 C 0.11371 0.72046 0.34661 0.0
C1263 C 0.11474 0.70553 0.32632 0.0
C1264 C 0.09319 0.6957 0.31707 0.0
C1265 C 0.07111 0.70179 0.32701 0.0
C1266 C 0.15996 0.70799 0.27669 0.0
C1267 C 0.18151 0.71001 0.28939 0.0
C1268 C 0.13823 0.70448 0.28859 0.0
C1269 C 0.13781 0.70286 0.3134 0.0
C1270 C 0.15979 0.70231 0.32572 0.0
C1271 C 0.18146 0.70619 0.31381 0.0
H1272 H 0.4861 0.83831 0.62147 0.0
H1273 H 0.48182 0.8165 0.54821 0.0
H1274 H 0.49668 0.87974 0.60973 0.0
H1275 H 0.49369 0.85772 0.53636 0.0
H1276 H 0.53908 0.94453 0.58522 0.0
H1277 H 0.52952 0.90197 0.59424 0.0
H1278 H 0.48143 0.89857 0.53416 0.0
H1279 H 0.49198 0.94056 0.52452 0.0
C1280 C 0.48742 0.84243 0.60282 0.0
C1281 C 0.4832 0.82423 0.58574 0.0
C1282 C 0.49379 0.8661 0.59608 0.0
C1283 C 0.49652 0.87198 0.57211 0.0
C1284 C 0.4916 0.85388 0.55498 0.0
C1285 C 0.48479 0.83026 0.56174 0.0
C1286 C 0.52679 0.93451 0.57377 0.0
C1287 C 0.51624 0.94585 0.55425 0.0
C1288 C 0.52108 0.91022 0.57904 0.0
C1289 C 0.50435 0.89696 0.56516 0.0
C1290 C 0.49453 0.9081 0.54511 0.0
C1291 C 0.50056 0.93223 0.53961 0.0
H1292 H 0.41536 0.232 0.88785 0.0
H1293 H 0.46015 0.23177 0.82548 0.0
H1294 H 0.38128 0.24433 0.86399 0.0
H1295 H 0.42611 0.2447 0.80179 0.0
H1296 H 0.34905 0.2424 0.76712 0.0
H1297 H 0.38665 0.23202 0.78675 0.0
H1298 H 0.36977 0.28157 0.84375 0.0
H1299 H 0.33198 0.29139 0.82446 0.0
C1300 C 0.41791 0.2343 0.86904 0.0
C1301 C 0.44057 0.23104 0.85867 0.0
C1302 C 0.39845 0.24171 0.8554 0.0
C1303 C 0.4012 0.24609 0.83111 0.0
C1304 C 0.42347 0.24157 0.82047 0.0
C1305 C 0.44296 0.23409 0.8341 0.0
C1306 C 0.3538 0.2517 0.78343 0.0
C1307 C 0.33753 0.26747 0.79445 0.0
C1308 C 0.37525 0.24562 0.79476 0.0
C1309 C 0.38075 0.25541 0.81714 0.0
C1310 C 0.3656 0.2731 0.82689 0.0
C1311 C 0.34414 0.27899 0.81571 0.0
H1312 H 0.02594 0.78812 0.42401 0.0
H1313 H 0.98621 0.81971 0.36666 0.0
H1314 H 0.0236 0.82585 0.44601 0.0
H1315 H 0.98514 0.85875 0.38785 0.0
H1316 H 0.0268 0.89953 0.47886 0.0
H1317 H 0.03335 0.86442 0.45385 0.0
H1318 H 0.96581 0.87774 0.41811 0.0
H1319 H 0.96074 0.91452 0.44197 0.0
C1320 C 0.01697 0.80351 0.41604 0.0
C1321 C 0.00529 0.80094 0.39429 0.0
C1322 C 0.01593 0.82542 0.42847 0.0
C1323 C 0.00366 0.84554 0.4191 0.0
C1324 C 0.9939 0.84347 0.39615 0.0
C1325 C 0.99472 0.82128 0.38382 0.0
C1326 C 0.01318 0.89467 0.46588 0.0
C1327 C 0.99307 0.90941 0.46254 0.0
C1328 C 0.01691 0.87445 0.45142 0.0
C1329 C 0.00012 0.86789 0.43378 0.0
C1330 C 0.97952 0.88238 0.431 0.0
C1331 C 0.97627 0.9032 0.44497 0.0
H1332 H 0.4447 0.75535 0.67926 0.0
H1333 H 0.39492 0.75247 0.62044 0.0
H1334 H 0.41173 0.74651 0.7063 0.0
H1335 H 0.36207 0.74405 0.64759 0.0
H1336 H 0.31304 0.70357 0.69476 0.0
H1337 H 0.35013 0.70889 0.6725 0.0
H1338 H 0.37404 0.76467 0.72176 0.0
H1339 H 0.337 0.75903 0.74437 0.0
C1340 C 0.42672 0.75315 0.67209 0.0
C1341 C 0.42249 0.75441 0.64761 0.0
C1342 C 0.40788 0.74807 0.68763 0.0
C1343 C 0.38451 0.7441 0.67897 0.0
C1344 C 0.38009 0.74639 0.65466 0.0
C1345 C 0.39887 0.7515 0.63914 0.0
C1346 C 0.32651 0.7165 0.70119 0.0
C1347 C 0.32205 0.73116 0.72104 0.0
C1348 C 0.3476 0.7197 0.68834 0.0
C1349 C 0.36454 0.73771 0.69505 0.0
C1350 C 0.36117 0.75075 0.71616 0.0
C1351 C 0.34004 0.74744 0.72914 0.0
H1352 H 0.54475 0.1603 0.90108 0.0
H1353 H 0.48025 0.16194 0.94351 0.0
H1354 H 0.56207 0.13037 0.92814 0.0
H1355 H 0.49743 0.13227 0.97023 0.0
H1356 H 0.53588 0.10432 0.02854 0.0
H1357 H 0.53192 0.13659 -0.00072 0.0
H1358 H 0.5549 0.08683 0.94474 0.0
H1359 H 0.5595 0.05479 0.97429 0.0
C1360 C 0.53398 0.15369 0.91571 0.0
C1361 C 0.5112 0.16357 0.92032 0.0
C1362 C 0.54404 0.13687 0.93133 0.0
C1363 C 0.53146 0.12987 0.95173 0.0
C1364 C 0.50791 0.13815 0.95512 0.0
C1365 C 0.49789 0.1548 0.9396 0.0
C1366 C 0.54167 0.10084 0.0106 0.0
C1367 C 0.548 0.07724 0.00357 0.0
C1368 C 0.53894 0.11909 0.99376 0.0
C1369 C 0.54223 0.1138 0.96969 0.0
C1370 C 0.55206 0.09129 0.96316 0.0
C1371 C 0.555 0.07306 0.98011 0.0
H1372 H 0.05586 0.28603 0.20343 0.0
H1373 H 0.07544 0.31061 0.13368 0.0
H1374 H 0.09432 0.3005 0.21856 0.0
H1375 H 0.11353 0.32673 0.14898 0.0
H1376 H 0.18934 0.30633 0.17692 0.0
H1377 H 0.14928 0.30924 0.16042 0.0
H1378 H 0.12198 0.3307 0.22883 0.0
H1379 H 0.16206 0.32593 0.24558 0.0
C1380 C 0.06826 0.2951 0.19148 0.0
C1381 C 0.06307 0.29674 0.16737 0.0
C1382 C 0.09024 0.30375 0.20017 0.0
C1383 C 0.10725 0.31473 0.18497 0.0
C1384 C 0.10117 0.31787 0.16108 0.0
C1385 C 0.07939 0.30866 0.1523 0.0
C1386 C 0.17488 0.31236 0.18824 0.0
C1387 C 0.17851 0.31534 0.21256 0.0
C1388 C 0.15183 0.31417 0.17878 0.0
C1389 C 0.13216 0.31953 0.19344 0.0
C1390 C 0.13654 0.32561 0.21722 0.0
C1391 C 0.15948 0.32312 0.2268 0.0
H1392 H 0.11433 0.00232 0.16609 0.0
H1393 H 0.05512 0.98142 0.21141 0.0
H1394 H 0.09126 0.98898 0.13179 0.0
H1395 H 0.03224 0.96732 0.1771 0.0
H1396 H 0.9909 0.99239 0.10943 0.0
H1397 H 0.01294 0.98954 0.14616 0.0
H1398 H 0.07221 0.95622 0.10939 0.0
H1399 H 0.05032 0.95976 0.07225 0.0
C1400 C 0.09652 0.99449 0.16874 0.0
C1401 C 0.08632 0.99336 0.19133 0.0
C1402 C 0.0834 0.98654 0.1491 0.0
C1403 C 0.05986 0.97713 0.15172 0.0
C1404 C 0.0502 0.97478 0.1745 0.0
C1405 C 0.06328 0.9829 0.19412 0.0
C1406 C 0.00839 0.9839 0.1092 0.0
C1407 C 0.01914 0.97693 0.08784 0.0
C1408 C 0.02099 0.98208 0.13036 0.0
C1409 C 0.04455 0.97312 0.1306 0.0
C1410 C 0.05428 0.96372 0.10962 0.0
C1411 C 0.04166 0.96559 0.08838 0.0
H1412 H 0.27166 0.84245 0.44994 0.0
H1413 H 0.2885 0.90757 0.40973 0.0
H1414 H 0.2696 0.81871 0.41356 0.0
H1415 H 0.28641 0.88356 0.37329 0.0
H1416 H 0.3014 0.82403 0.31605 0.0
H1417 H 0.30787 0.8471 0.35273 0.0
H1418 H 0.2397 0.82021 0.37919 0.0
H1419 H 0.23311 0.79736 0.34278 0.0
C1420 C 0.27514 0.85168 0.43339 0.0
C1421 C 0.28005 0.87696 0.43271 0.0
C1422 C 0.27387 0.83807 0.41259 0.0
C1423 C 0.27773 0.84938 0.39072 0.0
C1424 C 0.28349 0.87444 0.39 0.0
C1425 C 0.28451 0.88816 0.41082 0.0
C1426 C 0.28788 0.82299 0.32977 0.0
C1427 C 0.26674 0.80893 0.32655 0.0
C1428 C 0.29154 0.83625 0.35063 0.0
C1429 C 0.27431 0.83529 0.3687 0.0
C1430 C 0.25336 0.82102 0.36559 0.0
C1431 C 0.24955 0.80809 0.34469 0.0
H1432 H 0.43936 0.0287 0.74602 0.0
H1433 H 0.37935 0.01003 0.70047 0.0
H1434 H 0.46265 0.04194 0.71196 0.0
H1435 H 0.40292 0.02297 0.66621 0.0
H1436 H 0.5047 0.02757 0.64281 0.0
H1437 H 0.48127 0.02124 0.67849 0.0
H1438 H 0.42173 0.0595 0.64732 0.0
H1439 H 0.44509 0.0656 0.61132 0.0
C1440 C 0.43113 0.0274 0.72871 0.0
C1441 C 0.40758 0.01813 0.72588 0.0
C1442 C 0.44451 0.03497 0.70921 0.0
C1443 C 0.43464 0.03345 0.68643 0.0
C1444 C 0.4109 0.02462 0.6836 0.0
C1445 C 0.39749 0.01701 0.70317 0.0
C1446 C 0.48677 0.03502 0.64366 0.0
C1447 C 0.47672 0.04694 0.62414 0.0
C1448 C 0.47336 0.03145 0.66416 0.0
C1449 C 0.44957 0.03966 0.6656 0.0
C1450 C 0.4399 0.05265 0.64655 0.0
C1451 C 0.45338 0.05636 0.62604 0.0
H1452 H 0.28863 0.11495 0.93332 0.0
H1453 H 0.2158 0.13374 0.95125 0.0
H1454 H 0.28467 0.13708 0.89578 0.0
H1455 H 0.21164 0.15546 0.91395 0.0
H1456 H 0.2088 0.18036 0.83703 0.0
H1457 H 0.21229 0.15035 0.8688 0.0
H1458 H 0.27979 0.18363 0.89032 0.0
H1459 H 0.27635 0.21359 0.85898 0.0
C1460 C 0.27168 0.12333 0.92889 0.0
C1461 C 0.25254 0.12294 0.94489 0.0
C1462 C 0.2694 0.13599 0.9076 0.0
C1463 C 0.24786 0.14796 0.90211 0.0
C1464 C 0.22832 0.14619 0.91765 0.0
C1465 C 0.23073 0.13394 0.93897 0.0
C1466 C 0.22433 0.18126 0.84858 0.0
C1467 C 0.24213 0.19951 0.84569 0.0
C1468 C 0.22638 0.16405 0.86663 0.0
C1469 C 0.24645 0.16458 0.88174 0.0
C1470 C 0.26435 0.18259 0.87863 0.0
C1471 C 0.26216 0.19996 0.8609 0.0
H1472 H 0.07964 0.04048 0.30404 0.0
H1473 H 0.1414 0.01382 0.34208 0.0
H1474 H 0.05778 0.04441 0.3408 0.0
H1475 H 0.11905 0.01713 0.37906 0.0
H1476 H 0.01704 0.00998 0.4029 0.0
H1477 H 0.04038 0.01467 0.36715 0.0
H1478 H 0.09977 0.04503 0.40757 0.0
H1479 H 0.07642 0.03976 0.4438 0.0
C1480 C 0.08854 0.03533 0.32026 0.0
C1481 C 0.11211 0.02635 0.32011 0.0
C1482 C 0.07599 0.03764 0.34134 0.0
C1483 C 0.08658 0.03081 0.36277 0.0
C1484 C 0.11049 0.02272 0.36281 0.0
C1485 C 0.1232 0.0206 0.34164 0.0
C1486 C 0.03495 0.01796 0.40422 0.0
C1487 C 0.04494 0.02433 0.42621 0.0
C1488 C 0.0483 0.0208 0.38366 0.0
C1489 C 0.07196 0.03015 0.38456 0.0
C1490 C 0.08167 0.03751 0.40642 0.0
C1491 C 0.06822 0.03471 0.42709 0.0
H1492 H 0.26417 0.8871 0.58809 0.0
H1493 H 0.2428 0.82594 0.54394 0.0
H1494 H 0.25104 0.86443 0.62298 0.0
H1495 H 0.22903 0.8037 0.57852 0.0
H1496 H 0.24208 0.7604 0.64638 0.0
H1497 H 0.24839 0.78404 0.61083 0.0
H1498 H 0.21674 0.84696 0.64431 0.0
H1499 H 0.21095 0.82332 0.68044 0.0
C1500 C 0.25646 0.86894 0.58584 0.0
C1501 C 0.25484 0.85815 0.56335 0.0
C1502 C 0.24873 0.85603 0.60577 0.0
C1503 C 0.23912 0.83218 0.60354 0.0
C1504 C 0.23676 0.82183 0.58091 0.0
C1505 C 0.24463 0.83462 0.56108 0.0
C1506 C 0.23614 0.77918 0.64615 0.0
C1507 C 0.22616 0.79 0.66635 0.0
C1508 C 0.23964 0.79273 0.62565 0.0
C1509 C 0.23318 0.81744 0.62475 0.0
C1510 C 0.22222 0.82804 0.64458 0.0
C1511 C 0.21869 0.81443 0.66519 0.0
H1512 H 0.35364 0.98304 0.87741 0.0
H1513 H 0.41402 0.01653 0.8412 0.0
H1514 H 0.37708 0.98297 0.91409 0.0
H1515 H 0.43705 0.01677 0.87782 0.0
H1516 H 0.45802 0.03768 0.9541 0.0
H1517 H 0.43273 0.03805 0.91892 0.0
H1518 H 0.41755 0.96097 0.92732 0.0
H1519 H 0.44319 0.96038 0.96256 0.0
C1520 C 0.37178 0.99054 0.87731 0.0
C1521 C 0.38204 -0.00032 0.85639 0.0
C1522 C 0.38518 0.99036 0.89822 0.0
C1523 C 0.40881 -0.00019 0.89864 0.0
C1524 C 0.41882 0.00947 0.87792 0.0
C1525 C 0.40564 0.00925 0.85698 0.0
C1526 C 0.44927 0.02079 0.94852 0.0
C1527 C 0.45266 -0.00104 0.96104 0.0
C1528 C 0.43486 0.02103 0.92837 0.0
C1529 C 0.42324 -0.00044 0.92053 0.0
C1530 C 0.42623 0.97779 0.93319 0.0
C1531 C 0.44101 0.97743 0.95318 0.0
H1532 H 0.27934 0.19797 0.05004 0.0
H1533 H 0.26018 0.14059 0.09909 0.0
H1534 H 0.2902 0.22482 0.08301 0.0
H1535 H 0.27065 0.1675 0.13194 0.0
H1536 H 0.30344 0.21335 0.18743 0.0
H1537 H 0.3045 0.18884 0.15151 0.0
H1538 H 0.26722 0.24557 0.114 0.0
H1539 H 0.26649 0.27031 0.14969 0.0
C1540 C 0.2775 0.19109 0.06785 0.0
C1541 C 0.26871 0.16727 0.07204 0.0
C1542 C 0.28374 0.20645 0.08668 0.0
C1543 C 0.28138 0.19822 0.11001 0.0
C1544 C 0.27308 0.17421 0.11413 0.0
C1545 C 0.26681 0.15889 0.09534 0.0
C1546 C 0.296 0.22089 0.17139 0.0
C1547 C 0.2844 0.24356 0.17155 0.0
C1548 C 0.2965 0.20676 0.15087 0.0
C1549 C 0.28547 0.21507 0.13014 0.0
C1550 C 0.27588 0.23868 0.12972 0.0
C1551 C 0.27538 0.25283 0.15024 0.0
H1552 H 0.18315 0.1182 0.98381 0.0
H1553 H 0.19431 0.07321 0.04503 0.0
H1554 H 0.14314 0.10008 0.97839 0.0
H1555 H 0.1538 0.05576 0.04058 0.0
H1556 H 0.09119 0.01111 0.01225 0.0
H1557 H 0.13132 0.02878 0.01602 0.0
H1558 H 0.10431 0.09911 0.99479 0.0
H1559 H 0.06427 0.08136 0.99052 0.0
C1560 C 0.17681 0.10445 0.99614 0.0
C1561 C 0.19173 0.09633 0.01431 0.0
C1562 C 0.15391 0.09424 0.99322 0.0
C1563 C 0.14533 0.07633 0.00895 0.0
C1564 C 0.16008 0.06905 0.02781 0.0
C1565 C 0.18317 0.079 0.03044 0.0
C1566 C 0.09388 0.03028 0.0081 0.0
C1567 C 0.07457 0.04483 0.00107 0.0
C1568 C 0.11688 0.04044 0.0104 0.0
C1569 C 0.12106 0.06535 0.00572 0.0
C1570 C 0.10181 0.07976 -0.00181 0.0
C1571 C 0.07882 0.06959 0.99579 0.0
H1572 H 0.69337 0.39611 0.02034 0.0
H1573 H 0.694 0.45687 0.97171 0.0
H1574 H 0.65382 0.40795 0.03423 0.0
H1575 H 0.65409 0.46817 0.985 0.0
H1576 H 0.59123 0.49577 0.02507 0.0
H1577 H 0.63299 0.48495 0.01802 0.0
H1578 H 0.61323 0.40826 0.02096 0.0
H1579 H 0.57187 0.41899 0.02886 0.0
C1580 C 0.68492 0.41179 0.01237 0.0
C1581 C 0.69675 0.42548 0.99482 0.0
C1582 C 0.66227 0.41859 0.02037 0.0
C1583 C 0.65086 0.43908 0.01083 0.0
C1584 C 0.66261 0.45261 0.99311 0.0
C1585 C 0.68536 0.44596 0.98528 0.0
C1586 C 0.59592 0.47661 0.02469 0.0
C1587 C 0.57819 0.45825 0.02726 0.0
C1588 C 0.61979 0.47041 0.02043 0.0
C1589 C 0.62634 0.44575 0.01849 0.0
C1590 C 0.60886 0.42744 0.02248 0.0
C1591 C 0.58507 0.43362 0.02693 0.0
H1592 H 0.82814 0.44138 0.24073 0.0
H1593 H 0.87029 0.4141 0.29853 0.0
H1594 H 0.80931 0.40155 0.2355 0.0
H1595 H 0.84947 0.37446 0.29534 0.0
H1596 H 0.81395 0.30095 0.27641 0.0
H1597 H 0.83935 0.33766 0.27805 0.0
H1598 H 0.77971 0.3801 0.25225 0.0
H1599 H 0.75487 0.34393 0.25065 0.0
C1600 C 0.83317 0.42667 0.25244 0.0
C1601 C 0.85 0.4307 0.27043 0.0
C1602 C 0.82214 0.40388 0.24973 0.0
C1603 C 0.82695 0.38483 0.26564 0.0
C1604 C 0.84516 0.38854 0.28273 0.0
C1605 C 0.85695 0.41127 0.28479 0.0
C1606 C 0.80625 0.31831 0.27156 0.0
C1607 C 0.7824 0.31953 0.26338 0.0
C1608 C 0.82083 0.3394 0.27244 0.0
C1609 C 0.8118 0.3621 0.26521 0.0
C1610 C 0.78768 0.36314 0.25769 0.0
C1611 C 0.7732 0.34227 0.25693 0.0
H1612 H 0.82259 0.61453 0.54111 0.0
H1613 H 0.81255 0.54424 0.50688 0.0
H1614 H 0.86073 0.60114 0.55716 0.0
H1615 H 0.85107 0.53116 0.52252 0.0
H1616 H 0.91426 0.50648 0.56239 0.0
H1617 H 0.87291 0.52079 0.5589 0.0
H1618 H 0.89978 0.59285 0.54072 0.0
H1619 H 0.94076 0.57871 0.54464 0.0
C1620 C 0.82857 0.59629 0.53681 0.0
C1621 C 0.81459 0.58055 0.52243 0.0
C1622 C 0.8504 0.5886 0.54615 0.0
C1623 C 0.85882 0.56505 0.54127 0.0
C1624 C 0.84482 0.54925 0.52702 0.0
C1625 C 0.82292 0.5569 0.51773 0.0
C1626 C 0.91125 0.5256 0.55864 0.0
C1627 C 0.9306 0.54145 0.55348 0.0
C1628 C 0.88762 0.53371 0.5563 0.0
C1629 C 0.88314 0.55777 0.54898 0.0
C1630 C 0.90259 0.57421 0.54637 0.0
C1631 C 0.92609 0.56611 0.54859 0.0
H1632 H 0.17725 0.06991 0.2174 0.0
H1633 H 0.1268 0.09437 0.26975 0.0
H1634 H 0.19607 0.11057 0.21671 0.0
H1635 H 0.14623 0.1346 0.27038 0.0
H1636 H 0.24175 0.17481 0.24298 0.0
H1637 H 0.22109 0.13575 0.23929 0.0
H1638 H 0.15287 0.17107 0.25021 0.0
H1639 H 0.17369 0.21026 0.25435 0.0
C1640 C 0.1705 0.08404 0.22898 0.0
C1641 C 0.15123 0.07914 0.24417 0.0
C1642 C 0.18122 0.10727 0.22866 0.0
C1643 C 0.17286 0.12589 0.24368 0.0
C1644 C 0.15298 0.12092 0.25833 0.0
C1645 C 0.14201 0.09785 0.25824 0.0
C1646 C 0.22234 0.17427 0.24469 0.0
C1647 C 0.20939 0.19564 0.24921 0.0
C1648 C 0.21043 0.15179 0.24247 0.0
C1649 C 0.1853 0.15008 0.24477 0.0
C1650 C 0.1723 0.17156 0.24889 0.0
C1651 C 0.18423 0.19408 0.25117 0.0
H1652 H 0.35658 0.90463 0.49071 0.0
H1653 H 0.31484 0.95421 0.53274 0.0
H1654 H 0.39154 0.93214 0.49415 0.0
H1655 H 0.34886 0.98243 0.53519 0.0
H1656 H 0.44094 -0.00371 0.48109 0.0
H1657 H 0.40581 0.96922 0.47928 0.0
H1658 H 0.38596 0.99181 0.54981 0.0
H1659 H 0.42001 0.01977 0.55089 0.0
C1660 C 0.35502 0.92149 0.50065 0.0
C1661 C 0.33305 0.928 0.51069 0.0
C1662 C 0.37485 0.93738 0.50243 0.0
C1663 C 0.37292 0.95991 0.5144 0.0
C1664 C 0.3512 0.96534 0.52585 0.0
C1665 C 0.33155 0.94938 0.52421 0.0
C1666 C 0.42865 -0.00414 0.49591 0.0
C1667 C 0.43317 0.01017 0.51608 0.0
C1668 C 0.40873 0.98005 0.49507 0.0
C1669 C 0.3932 0.9779 0.51458 0.0
C1670 C 0.39726 0.99307 0.53431 0.0
C1671 C 0.41684 0.00922 0.53493 0.0
H1672 H 0.8488 0.57493 0.26602 0.0
H1673 H 0.78077 0.53699 0.27571 0.0
H1674 H 0.82744 0.61123 0.25337 0.0
H1675 H 0.75962 0.57236 0.26157 0.0
H1676 H 0.73 0.64965 0.26692 0.0
H1677 H 0.7488 0.61082 0.27372 0.0
H1678 H 0.80456 0.62954 0.22348 0.0
H1679 H 0.78629 0.66932 0.21767 0.0
C1680 C 0.82932 0.57429 0.26531 0.0
C1681 C 0.81651 0.55317 0.27212 0.0
C1682 C 0.81705 0.59497 0.25772 0.0
C1683 C 0.79173 0.59477 0.25632 0.0
C1684 C 0.77905 0.57344 0.26281 0.0
C1685 C 0.79125 0.55305 0.2709 0.0
C1686 C 0.74593 0.64532 0.25683 0.0
C1687 C 0.75683 0.66274 0.242 0.0
C1688 C 0.75678 0.6229 0.26074 0.0
C1689 C 0.77854 0.61713 0.24951 0.0
C1690 C 0.78824 0.63368 0.233 0.0
C1691 C 0.77758 0.65635 0.2294 0.0
H1692 H 0.61403 0.44462 0.75538 0.0
H1693 H 0.68819 0.4598 0.77449 0.0
H1694 H 0.62585 0.40659 0.7369 0.0
H1695 H 0.69986 0.42122 0.75644 0.0
H1696 H 0.71819 0.36306 0.70433 0.0
H1697 H 0.70299 0.4027 0.71685 0.0
H1698 H 0.64067 0.36689 0.74738 0.0
H1699 H 0.65549 0.32753 0.73442 0.0
C1700 C 0.63282 0.43969 0.75603 0.0
C1701 C 0.65018 0.45536 0.76646 0.0
C1702 C 0.63957 0.41787 0.74533 0.0
C1703 C 0.66382 0.4111 0.74488 0.0
C1704 C 0.68109 0.42627 0.75601 0.0
C1705 C 0.67435 0.44818 0.7667 0.0
C1706 C 0.70082 0.36376 0.71292 0.0
C1707 C 0.68815 0.34218 0.71864 0.0
C1708 C 0.69233 0.38641 0.72046 0.0
C1709 C 0.67097 0.38781 0.73364 0.0
C1710 C 0.65722 0.36644 0.73734 0.0
C1711 C 0.66571 0.34386 0.72987 0.0
H1712 H 0.01939 0.82971 0.91702 0.0
H1713 H 0.97916 0.86146 0.86008 0.0
H1714 H 0.03097 0.86989 0.93107 0.0
H1715 H 0.99229 0.90231 0.8728 0.0
H1716 H 0.97365 0.9576 0.93142 0.0
H1717 H 0.97829 0.92556 0.90291 0.0
H1718 H 0.04754 0.90804 0.93315 0.0
H1719 H 0.04209 0.93975 0.96287 0.0
C1720 C 0.01324 0.84555 0.90742 0.0
C1721 C -0.00298 0.84295 0.88867 0.0
C1722 C 0.02044 0.86867 0.91503 0.0
C1723 C 0.01192 0.88963 0.90358 0.0
C1724 C -0.00169 0.88665 0.88271 0.0
C1725 C 0.99076 0.86338 0.87537 0.0
C1726 C 0.99003 0.94712 0.93192 0.0
C1727 C 0.00703 0.95049 0.95003 0.0
C1728 C 0.99294 0.92885 0.91517 0.0
C1729 C 0.01299 0.91351 0.91606 0.0
C1730 C 0.03139 0.91885 0.9325 0.0
C1731 C 0.02831 0.93702 0.94954 0.0
H1732 H 0.89641 0.24046 0.62053 0.0
H1733 H 0.94329 0.27657 0.67113 0.0
H1734 H 0.86196 0.26114 0.63777 0.0
H1735 H 0.9092 0.29781 0.68769 0.0
H1736 H 0.83872 0.29287 0.73188 0.0
H1737 H 0.87618 0.28539 0.71159 0.0
H1738 H 0.84177 0.29964 0.64467 0.0
H1739 H 0.80386 0.30647 0.66501 0.0
C1740 C 0.89936 0.25296 0.63516 0.0
C1741 C 0.92242 0.25645 0.64481 0.0
C1742 C 0.87972 0.26507 0.64484 0.0
C1743 C 0.88288 0.28112 0.66413 0.0
C1744 C 0.90611 0.28529 0.6731 0.0
C1745 C 0.92562 0.27299 0.66366 0.0
C1746 C 0.83926 0.29517 0.7129 0.0
C1747 C 0.81818 0.29961 0.70002 0.0
C1748 C 0.86082 0.29093 0.70122 0.0
C1749 C 0.86175 0.29127 0.67644 0.0
C1750 C 0.84137 0.29859 0.66375 0.0
C1751 C 0.81974 0.30281 0.67545 0.0
H1752 H 0.52308 0.23717 0.44529 0.0
H1753 H 0.48137 0.18637 0.40259 0.0
H1754 H 0.52221 0.20838 0.47784 0.0
H1755 H 0.48106 0.15718 0.43511 0.0
H1756 H 0.46568 0.11886 0.50379 0.0
H1757 H 0.4638 0.15193 0.47489 0.0
H1758 H 0.53875 0.16939 0.48797 0.0
H1759 H 0.54044 0.137 0.51702 0.0
C1760 C 0.51404 0.21968 0.44272 0.0
C1761 C 0.50236 0.21399 0.42134 0.0
C1762 C 0.5135 0.20321 0.46142 0.0
C1763 C 0.50134 0.18063 0.45914 0.0
C1764 C 0.49014 0.17467 0.43756 0.0
C1765 C 0.49064 0.19121 0.41882 0.0
C1766 C 0.48149 0.1303 0.50099 0.0
C1767 C 0.50324 0.12528 0.51251 0.0
C1768 C 0.48053 0.14895 0.48421 0.0
C1769 C 0.50126 0.16294 0.47886 0.0
C1770 C 0.52246 0.15901 0.49169 0.0
C1771 C 0.52343 0.1404 0.50834 0.0
H1772 H 0.56442 0.74597 0.15872 0.0
H1773 H 0.51938 0.74012 0.22059 0.0
H1774 H 0.59989 0.75063 0.18395 0.0
H1775 H 0.55526 0.74414 0.24587 0.0
H1776 H 0.64079 0.71329 0.26054 0.0
H1777 H 0.6002 0.71233 0.2435 0.0
H1778 H 0.60899 0.78733 0.22165 0.0
H1779 H 0.64909 0.78876 0.23889 0.0
C1780 C 0.56213 0.74572 0.1777 0.0
C1781 C 0.53924 0.74274 0.18776 0.0
C1782 C 0.58235 0.74841 0.19206 0.0
C1783 C 0.58005 0.74769 0.21667 0.0
C1784 C 0.55726 0.74472 0.22687 0.0
C1785 C 0.53687 0.74255 0.21245 0.0
C1786 C 0.63383 0.72977 0.25269 0.0
C1787 C 0.64834 0.75096 0.25076 0.0
C1788 C 0.61064 0.72921 0.24306 0.0
C1789 C 0.60182 0.74974 0.23129 0.0
C1790 C 0.61559 0.77134 0.2307 0.0
C1791 C 0.63855 0.77205 0.24055 0.0
H1792 H 0.96442 0.15221 0.63784 0.0
H1793 H 0.02913 0.18414 0.60878 0.0
H1794 H 0.97385 0.11317 0.61927 0.0
H1795 H 0.04031 0.14491 0.59253 0.0
H1796 H 0.033 0.08764 0.53499 0.0
H1797 H 0.03059 0.12262 0.56085 0.0
H1798 H 0.99415 0.07804 0.61326 0.0
H1799 H -0.00473 0.04337 0.58628 0.0
C1800 C 0.98093 0.15055 0.62788 0.0
C1801 C -0.00441 0.17104 0.62374 0.0
C1802 C 0.98665 0.12813 0.61751 0.0
C1803 C 0.00765 0.12582 0.60371 0.0
C1804 C 0.02343 0.14606 0.60192 0.0
C1805 C 0.0172 0.16853 0.61142 0.0
C1806 C 0.02485 0.08527 0.5522 0.0
C1807 C 0.01408 0.06299 0.55854 0.0
C1808 C 0.02358 0.10535 0.56728 0.0
C1809 C 0.01189 0.10348 0.5893 0.0
C1810 C 0.0026 0.08054 0.59623 0.0
C1811 C 0.00343 0.06057 0.58088 0.0
H1812 H 0.53835 0.30624 0.30687 0.0
H1813 H 0.55878 0.24122 0.34459 0.0
H1814 H 0.57847 0.30966 0.29026 0.0
H1815 H 0.59869 0.24381 0.32697 0.0
H1816 H 0.67351 0.26149 0.30741 0.0
H1817 H 0.63508 0.26603 0.3274 0.0
H1818 H 0.60347 0.29136 0.2622 0.0
H1819 H 0.6425 0.28816 0.24281 0.0
C1820 C 0.55138 0.29244 0.31133 0.0
C1821 C 0.54546 0.27333 0.32688 0.0
C1822 C 0.57437 0.29441 0.30178 0.0
C1823 C 0.59186 0.27707 0.30726 0.0
C1824 C 0.58584 0.25783 0.32276 0.0
C1825 C 0.56292 0.25614 0.33268 0.0
C1826 C 0.65842 0.26875 0.29768 0.0
C1827 C 0.6607 0.27456 0.27372 0.0
C1828 C 0.63636 0.271 0.30896 0.0
C1829 C 0.61602 0.27846 0.29628 0.0
C1830 C 0.61877 0.2857 0.27258 0.0
C1831 C 0.64107 0.28395 0.26142 0.0
H1832 H 0.47259 0.8094 0.14042 0.0
H1833 H 0.49934 0.79099 0.07118 0.0
H1834 H 0.46777 0.85164 0.12817 0.0
H1835 H 0.49577 0.83347 0.0592 0.0
H1836 H 0.46405 0.90267 0.03451 0.0
H1837 H 0.46514 0.86097 0.0493 0.0
H1838 H 0.48742 0.88832 0.11779 0.0
H1839 H 0.48503 0.92995 0.10329 0.0
C1840 C 0.47812 0.81459 0.12279 0.0
C1841 C 0.48632 0.79702 0.1067 0.0
C1842 C 0.47527 0.83878 0.11572 0.0
C1843 C 0.48096 0.84587 0.09256 0.0
C1844 C 0.49046 0.82847 0.07693 0.0
C1845 C 0.49287 0.80422 0.08386 0.0
C1846 C 0.46859 0.89971 0.05287 0.0
C1847 C 0.47455 0.91946 0.06772 0.0
C1848 C 0.46957 0.87585 0.06128 0.0
C1849 C 0.477 0.87127 0.08457 0.0
C1850 C 0.48155 0.89115 0.0998 0.0
C1851 C 0.48013 0.91505 0.09149 0.0
H1852 H 0.89211 0.81167 0.88056 0.0
H1853 H 0.91931 0.74307 0.85477 0.0
H1854 H 0.85366 0.80312 0.86136 0.0
H1855 H 0.88043 0.73347 0.83701 0.0
H1856 H 0.82343 0.7441 0.77943 0.0
H1857 H 0.85878 0.74524 0.80442 0.0
H1858 H 0.81789 0.7806 0.85948 0.0
H1859 H 0.78283 0.78082 0.83359 0.0
C1860 C 0.88965 0.7946 0.87104 0.0
C1861 C 0.90866 0.77827 0.86861 0.0
C1862 C 0.86754 0.78948 0.86029 0.0
C1863 C 0.8639 0.76759 0.84749 0.0
C1864 C 0.88273 0.75077 0.84616 0.0
C1865 C 0.90499 0.75622 0.85633 0.0
C1866 C 0.82187 0.75162 0.79708 0.0
C1867 C 0.80059 0.76269 0.8045 0.0
C1868 C 0.84215 0.75221 0.81152 0.0
C1869 C 0.84137 0.7634 0.83391 0.0
C1870 C 0.81936 0.77253 0.84208 0.0
C1871 C 0.79921 0.77244 0.82739 0.0
H1872 H 0.88637 0.99493 0.83966 0.0
H1873 H 0.93433 0.04761 0.807 0.0
H1874 H 0.90182 0.00644 0.87823 0.0
H1875 H 0.9493 0.05995 0.84594 0.0
H1876 H 0.98646 0.05116 0.91997 0.0
H1877 H 0.97216 0.0468 0.87949 0.0
H1878 H 0.89908 0.03992 0.90494 0.0
H1879 H 0.91361 0.04306 0.94541 0.0
C1880 C 0.90032 0.00894 0.84076 0.0
C1881 C 0.90914 0.02039 0.82037 0.0
C1882 C 0.90894 0.01582 0.8629 0.0
C1883 C 0.92632 0.03462 0.86522 0.0
C1884 C 0.93586 0.04546 0.84474 0.0
C1885 C 0.92741 0.03831 0.82246 0.0
C1886 C 0.96727 0.04951 0.91683 0.0
C1887 C 0.95112 0.04709 0.93574 0.0
C1888 C 0.95907 0.04692 0.89363 0.0
C1889 C 0.93457 0.04224 0.88906 0.0
C1890 C 0.91819 0.04261 0.90795 0.0
C1891 C 0.92642 0.04474 0.93109 0.0
H1892 H 0.78052 0.13887 0.57108 0.0
H1893 H 0.7668 0.20001 0.52517 0.0
H1894 H 0.77103 0.16407 0.60522 0.0
H1895 H 0.75667 0.22505 0.55932 0.0
H1896 H 0.7541 0.2655 0.63206 0.0
H1897 H 0.76839 0.2448 0.59661 0.0
H1898 H 0.73205 0.17837 0.61862 0.0
H1899 H 0.71821 0.1988 0.65415 0.0
C1900 C 0.7761 0.15788 0.56832 0.0
C1901 C 0.77409 0.16735 0.54543 0.0
C1902 C 0.77031 0.17222 0.58785 0.0
C1903 C 0.76226 0.19628 0.58487 0.0
C1904 C 0.76261 0.20652 0.56218 0.0
C1905 C 0.76856 0.19218 0.5426 0.0
C1906 C 0.74867 0.24664 0.62904 0.0
C1907 C 0.73516 0.23372 0.64603 0.0
C1908 C 0.75703 0.23475 0.60881 0.0
C1909 C 0.75196 0.20977 0.60518 0.0
C1910 C 0.73698 0.19741 0.62132 0.0
C1911 C 0.72874 0.20922 0.64152 0.0
H1912 H 0.58607 0.01606 0.33931 0.0
H1913 H 0.65405 0.03508 0.37235 0.0
H1914 H 0.56627 0.0184 0.37747 0.0
H1915 H 0.63435 0.03665 0.4106 0.0
H1916 H 0.54263 -0.0009 0.4514 0.0
H1917 H 0.56371 -0.0033 0.41395 0.0
H1918 H 0.60666 0.06027 0.43317 0.0
H1919 H 0.58608 0.06224 0.47098 0.0
C1920 C 0.59682 0.02061 0.35471 0.0
C1921 C 0.62165 0.02534 0.35274 0.0
C1922 C 0.58549 0.0218 0.37663 0.0
C1923 C 0.59875 0.02756 0.39712 0.0
C1924 C 0.62355 0.03244 0.39513 0.0
C1925 C 0.63486 0.03143 0.37319 0.0
C1926 C 0.55663 0.01252 0.4477 0.0
C1927 C 0.56256 0.03094 0.46414 0.0
C1928 C 0.56861 0.01124 0.42614 0.0
C1929 C 0.5867 0.02844 0.42044 0.0
C1930 C 0.59295 0.04661 0.43707 0.0
C1931 C 0.58105 0.04781 0.45871 0.0
H1932 H 0.74039 0.79423 0.04843 0.0
H1933 H 0.72912 0.86368 0.083 0.0
H1934 H 0.73978 0.77381 0.08692 0.0
H1935 H 0.7285 0.84343 0.1211 0.0
H1936 H 0.70714 0.79869 0.18318 0.0
H1937 H 0.70312 0.81303 0.14305 0.0
H1938 H 0.76795 0.77547 0.12357 0.0
H1939 H 0.77207 0.76064 0.16418 0.0
C1940 C 0.73732 0.80501 0.06419 0.0
C1941 C 0.73478 0.83049 0.06283 0.0
C1942 C 0.73722 0.79339 0.08613 0.0
C1943 C 0.73418 0.80709 0.10689 0.0
C1944 C 0.73068 0.83241 0.10534 0.0
C1945 C 0.73107 0.844 0.08355 0.0
C1946 C 0.7206 0.79333 0.17045 0.0
C1947 C 0.74022 0.77884 0.17701 0.0
C1948 C 0.71819 0.80155 0.14742 0.0
C1949 C 0.73532 0.79554 0.13035 0.0
C1950 C 0.75443 0.78022 0.13648 0.0
C1951 C 0.75688 0.77192 0.1597 0.0
H1952 H 0.96366 0.02426 0.69818 0.0
H1953 H 0.89392 0.0333 0.66594 0.0
H1954 H 0.98039 0.01308 0.65969 0.0
H1955 H 0.91004 0.02135 0.62817 0.0
H1956 H 0.94436 0.01024 0.55963 0.0
H1957 H 0.93491 0.03018 0.59636 0.0
H1958 H 0.9773 0.97744 0.6342 0.0
H1959 H 0.98825 0.95817 0.59664 0.0
C1960 C 0.95212 0.02459 0.68276 0.0
C1961 C 0.92749 0.02951 0.68497 0.0
C1962 C 0.96156 0.01777 0.66083 0.0
C1963 C 0.9465 0.0159 0.64089 0.0
C1964 C 0.92231 0.02275 0.64299 0.0
C1965 C 0.91298 0.02958 0.66473 0.0
C1966 C 0.9516 0.00263 0.57573 0.0
C1967 C 0.96666 0.98218 0.57525 0.0
C1968 C 0.94619 0.01421 0.59687 0.0
C1969 C 0.95506 0.00529 0.61831 0.0
C1970 C 0.97037 0.98497 0.61795 0.0
C1971 C 0.97632 0.97365 0.59654 0.0
H1972 H 0.72901 0.09695 0.40273 0.0
H1973 H 0.73766 0.16817 0.43544 0.0
H1974 H 0.73096 0.11604 0.36383 0.0
H1975 H 0.73936 0.18699 0.39679 0.0
H1976 H 0.77185 0.20944 0.32742 0.0
H1977 H 0.76926 0.18729 0.36457 0.0
H1978 H 0.70918 0.14466 0.33747 0.0
H1979 H 0.71195 0.16654 0.30018 0.0
C1980 C 0.73095 0.11665 0.40167 0.0
C1981 C 0.73348 0.13099 0.42221 0.0
C1982 C 0.7321 0.12755 0.3794 0.0
C1983 C 0.73584 0.15292 0.37735 0.0
C1984 C 0.73714 0.16732 0.39786 0.0
C1985 C 0.73596 0.1565 0.42002 0.0
C1986 C 0.75828 0.19516 0.32926 0.0
C1987 C 0.74193 0.18994 0.31096 0.0
C1988 C 0.75667 0.18261 0.35059 0.0
C1989 C 0.73875 0.16456 0.35401 0.0
C1990 C 0.72315 0.15849 0.33533 0.0
C1991 C 0.7247 0.17111 0.31403 0.0
H1992 H 0.57071 0.97 0.24028 0.0
H1993 H 0.6393 0.97714 0.20509 0.0
H1994 H 0.55032 0.97091 0.20209 0.0
H1995 H 0.61922 0.97971 0.16747 0.0
H1996 H 0.52218 0.0133 0.13847 0.0
H1997 H 0.54128 0.00181 0.17542 0.0
H1998 H 0.59716 0.9653 0.13625 0.0
H1999 H 0.57885 0.97833 0.09951 0.0
C2000 C 0.58146 0.97109 0.22438 0.0
C2001 C 0.60656 0.97388 0.22571 0.0
C2002 C 0.56977 0.97212 0.20249 0.0
C2003 C 0.583 0.9762 0.18162 0.0
C2004 C 0.60826 0.97653 0.18295 0.0
C2005 C 0.61987 0.97513 0.20469 0.0
C2006 C 0.53874 0.00311 0.13787 0.0
C2007 C 0.54929 -0.00288 0.11617 0.0
C2008 C 0.5495 -0.0039 0.15905 0.0
C2009 C 0.57077 0.9824 0.159 0.0
C2010 C 0.58109 0.9762 0.13714 0.0
C2011 C 0.57065 0.98374 0.11601 0.0
H2012 H 0.72734 0.82559 0.94564 0.0
H2013 H 0.77116 0.87943 0.90938 0.0
H2014 H 0.71006 0.81231 0.90812 0.0
H2015 H 0.7546 0.86557 0.87181 0.0
H2016 H 0.70655 0.85791 0.81145 0.0
H2017 H 0.71675 0.86918 0.85192 0.0
H2018 H 0.71748 0.79271 0.87096 0.0
H2019 H 0.70614 0.78163 0.83075 0.0
C2020 C 0.73383 0.83407 0.92958 0.0
C2021 C 0.75049 0.85366 0.9304 0.0
C2022 C 0.72378 0.82657 0.9081 0.0
C2023 C 0.73042 0.83838 0.88709 0.0
C2024 C 0.74841 0.85673 0.88781 0.0
C2025 C 0.75822 0.86442 0.90926 0.0
C2026 C 0.70787 0.84364 0.82459 0.0
C2027 C 0.70571 0.81896 0.81807 0.0
C2028 C 0.71416 0.85001 0.84761 0.0
C2029 C 0.71883 0.83177 0.86436 0.0
C2030 C 0.71415 0.80718 0.85843 0.0
C2031 C 0.70745 0.80083 0.83544 0.0
H2032 H 0.79067 0.91661 0.04056 0.0
H2033 H 0.83432 0.87394 0.99359 0.0
H2034 H 0.82622 0.9392 0.05409 0.0
H2035 H 0.86977 0.89759 0.0054 0.0
H2036 H 0.93311 0.93578 0.03078 0.0
H2037 H 0.89867 0.90793 0.03228 0.0
H2038 H 0.85182 0.96969 0.04227 0.0
H2039 H 0.88667 -0.00283 0.0419 0.0
C2040 C 0.80802 0.91231 0.03303 0.0
C2041 C 0.80997 0.89419 0.01562 0.0
C2042 C 0.82838 0.92526 0.04069 0.0
C2043 C 0.85103 0.92053 0.03078 0.0
C2044 C 0.85287 0.90156 0.01393 0.0
C2045 C 0.83256 0.88819 0.00679 0.0
C2046 C 0.91541 0.94317 0.03396 0.0
C2047 C 0.91226 0.96845 0.03596 0.0
C2048 C 0.89563 0.9273 0.03448 0.0
C2049 C 0.87222 0.93654 0.03623 0.0
C2050 C 0.86944 0.96178 0.04052 0.0
C2051 C 0.88937 0.97765 0.04041 0.0
H2052 H 0.27654 0.53263 0.98383 0.0
H2053 H 0.32588 0.59448 0.98394 0.0
H2054 H 0.3104 0.50497 0.9792 0.0
H2055 H 0.35955 0.56677 0.97875 0.0
H2056 H 0.41373 0.51083 0.95526 0.0
H2057 H 0.37597 0.53243 0.94869 0.0
H2058 H 0.34579 0.49877 0.01093 0.0
H2059 H 0.38362 0.47775 0.01787 0.0
C2060 C 0.29453 0.54035 0.98242 0.0
C2061 C 0.29861 0.56572 0.98455 0.0
C2062 C 0.31383 0.52451 0.97973 0.0
C2063 C 0.33745 0.53382 0.97852 0.0
C2064 C 0.34143 0.55922 0.97937 0.0
C2065 C 0.32221 0.57502 0.98257 0.0
C2066 C 0.39875 0.50746 0.96707 0.0
C2067 C 0.40152 0.49277 0.98713 0.0
C2068 C 0.37727 0.51991 0.96338 0.0
C2069 C 0.35815 0.51727 0.97938 0.0
C2070 C 0.36026 0.50094 -0.00172 0.0
C2071 C 0.38187 0.48899 0.00227 0.0
H2072 H 0.12517 0.58203 0.75991 0.0
H2073 H 0.18062 0.53662 0.73095 0.0
H2074 H 0.14191 0.61721 0.7392 0.0
H2075 H 0.19673 0.57128 0.70877 0.0
H2076 H 0.23825 0.64619 0.71455 0.0
H2077 H 0.21922 0.60606 0.71681 0.0
H2078 H 0.14975 0.63859 0.70481 0.0
H2079 H 0.16906 0.67886 0.70361 0.0
C2080 C 0.14082 0.57968 0.7488 0.0
C2081 C 0.15228 0.55718 0.74762 0.0
C2082 C 0.15022 0.59965 0.73652 0.0
C2083 C 0.17075 0.59716 0.72214 0.0
C2084 C 0.18122 0.57403 0.71995 0.0
C2085 C 0.17212 0.55424 0.7327 0.0
C2086 C 0.21908 0.64449 0.71128 0.0
C2087 C 0.20496 0.66531 0.70917 0.0
C2088 C 0.20803 0.62149 0.71274 0.0
C2089 C 0.18275 0.61924 0.71223 0.0
C2090 C 0.16915 0.63984 0.70637 0.0
C2091 C 0.18017 0.66283 0.70526 0.0
H2092 H 0.17426 0.38308 0.50675 0.0
H2093 H 0.21138 0.44112 0.46922 0.0
H2094 H 0.136 0.4021 0.49824 0.0
H2095 H 0.17292 0.45984 0.46038 0.0
H2096 H 0.10643 0.5011 0.49191 0.0
H2097 H 0.14454 0.48085 0.48619 0.0
H2098 H 0.10672 0.41393 0.46747 0.0
H2099 H 0.06829 0.43425 0.47356 0.0
C2100 C 0.17428 0.39974 0.49647 0.0
C2101 C 0.19595 0.41077 0.48901 0.0
C2102 C 0.15229 0.41045 0.49131 0.0
C2103 C 0.15149 0.43243 0.4786 0.0
C2104 C 0.17305 0.44298 0.47035 0.0
C2105 C 0.19506 0.43226 0.47548 0.0
C2106 C 0.10623 0.48223 0.486 0.0
C2107 C 0.08445 0.46909 0.48361 0.0
C2108 C 0.12808 0.47066 0.48255 0.0
C2109 C 0.12858 0.44571 0.47673 0.0
C2110 C 0.10679 0.43311 0.4723 0.0
C2111 C 0.08484 0.44477 0.47561 0.0
H2112 H 0.84538 0.9733 0.7164 0.0
H2113 H 0.89824 0.93394 0.75628 0.0
H2114 H 0.82415 0.93526 0.70729 0.0
H2115 H 0.87795 0.89532 0.74605 0.0
H2116 H 0.81248 0.84631 0.76251 0.0
H2117 H 0.84252 0.87824 0.76069 0.0
H2118 H 0.81938 0.89628 0.69001 0.0
H2119 H 0.78832 0.8641 0.69215 0.0
C2120 C 0.85245 0.9563 0.72308 0.0
C2121 C 0.87241 0.95637 0.73821 0.0
C2122 C 0.84066 0.93444 0.71739 0.0
C2123 C 0.84899 0.91221 0.72639 0.0
C2124 C 0.87059 0.91222 0.7395 0.0
C2125 C 0.88222 0.9342 0.74538 0.0
C2126 C 0.81378 0.85693 0.74645 0.0
C2127 C 0.79762 0.85307 0.72766 0.0
C2128 C 0.83137 0.87511 0.74527 0.0
C2129 C 0.83334 0.89005 0.72528 0.0
C2130 C 0.81807 0.88532 0.70584 0.0
C2131 C 0.80035 0.8669 0.70701 0.0
H2132 H 0.7229 0.07431 0.53966 0.0
H2133 H 0.67117 0.12247 0.50828 0.0
H2134 H 0.69189 0.05834 0.56652 0.0
H2135 H 0.64036 0.10706 0.53527 0.0
H2136 H 0.59203 0.09342 0.58957 0.0
H2137 H 0.63255 0.10758 0.57987 0.0
H2138 H 0.65158 0.03399 0.56037 0.0
H2139 H 0.61102 0.01983 0.57033 0.0
C2140 C 0.70474 0.08112 0.53832 0.0
C2141 C 0.69895 0.09889 0.52147 0.0
C2142 C 0.68723 0.07231 0.55388 0.0
C2143 C 0.66397 0.08182 0.55323 0.0
C2144 C 0.65837 0.09983 0.5365 0.0
C2145 C 0.67578 0.10841 0.52086 0.0
C2146 C 0.60536 0.08005 0.58471 0.0
C2147 C 0.59849 0.05571 0.58021 0.0
C2148 C 0.62842 0.08817 0.57887 0.0
C2149 C 0.64466 0.072 0.56844 0.0
C2150 C 0.63917 0.04685 0.56804 0.0
C2151 C 0.61604 0.03868 0.574 0.0
H2152 H 0.14895 0.42266 0.78864 0.0
H2153 H 0.20422 0.4619 0.82785 0.0
H2154 H 0.16472 0.3843 0.8025 0.0
H2155 H 0.21971 0.42321 0.84223 0.0
H2156 H 0.25837 0.34989 0.81819 0.0
H2157 H 0.24133 0.39039 0.82305 0.0
H2158 H 0.17131 0.35739 0.83533 0.0
H2159 H 0.18842 0.31698 0.82937 0.0
C2160 C 0.16427 0.42315 0.80049 0.0
C2161 C 0.1755 0.44538 0.80683 0.0
C2162 C 0.17313 0.40111 0.80875 0.0
C2163 C 0.19339 0.40071 0.82365 0.0
C2164 C 0.20413 0.42295 0.83071 0.0
C2165 C 0.19527 0.44508 0.8224 0.0
C2166 C 0.23962 0.35137 0.82314 0.0
C2167 C 0.22458 0.33062 0.82339 0.0
C2168 C 0.22979 0.37455 0.82587 0.0
C2169 C 0.20483 0.37706 0.82893 0.0
C2170 C 0.1905 0.35599 0.83241 0.0
C2171 C 0.20028 0.33289 0.82932 0.0
H2172 H 0.38185 0.60291 0.22984 0.0
H2173 H 0.3759 0.59069 0.30476 0.0
H2174 H 0.36768 0.64489 0.23538 0.0
H2175 H 0.36219 0.63247 0.31041 0.0
H2176 H 0.29209 0.67732 0.29434 0.0
H2177 H 0.32082 0.64423 0.29569 0.0
H2178 H 0.37176 0.68787 0.2559 0.0
H2179 H 0.3429 0.7214 0.25489 0.0
C2180 C 0.37849 0.60961 0.24753 0.0
C2181 C 0.37964 0.59381 0.26687 0.0
C2182 C 0.37046 0.63355 0.25074 0.0
C2183 C 0.36357 0.6417 0.27331 0.0
C2184 C 0.36715 0.62651 0.29285 0.0
C2185 C 0.37499 0.60271 0.28962 0.0
C2186 C 0.30967 0.6801 0.28649 0.0
C2187 C 0.31531 0.70179 0.27451 0.0
C2188 C 0.32617 0.66124 0.28732 0.0
C2189 C 0.34849 0.66355 0.27586 0.0
C2190 C 0.35466 0.68571 0.26485 0.0
C2191 C 0.33826 0.70487 0.26443 0.0
H2192 H 0.46617 0.68558 0.63579 0.0
H2193 H 0.5044 0.69705 0.57055 0.0
H2194 H 0.45643 0.64343 0.62382 0.0
H2195 H 0.49513 0.65497 0.5586 0.0
H2196 H 0.45595 0.59074 0.53119 0.0
H2197 H 0.45881 0.63196 0.54683 0.0
H2198 H 0.47632 0.60357 0.61561 0.0
H2199 H 0.47346 0.56184 0.59982 0.0
C2200 C 0.47244 0.67893 0.61888 0.0
C2201 C 0.48517 0.6945 0.60357 0.0
C2202 C 0.46699 0.65491 0.61211 0.0
C2203 C 0.47458 0.64612 0.5901 0.0
C2204 C 0.48843 0.66149 0.57538 0.0
C2205 C 0.49375 0.68549 0.58212 0.0
C2206 C 0.45972 0.59325 0.54982 0.0
C2207 C 0.46481 0.57322 0.56426 0.0
C2208 C 0.46151 0.61688 0.55872 0.0
C2209 C 0.46835 0.62101 0.58224 0.0
C2210 C 0.47111 0.60089 0.59735 0.0
C2211 C 0.46932 0.57705 0.58838 0.0
H2212 H 0.59876 0.22624 0.86726 0.0
H2213 H 0.55452 0.18538 0.8178 0.0
H2214 H 0.63365 0.22024 0.84191 0.0
H2215 H 0.58939 0.17891 0.79277 0.0
H2216 H 0.64264 0.22073 0.74147 0.0
H2217 H 0.6102 0.20895 0.76822 0.0
H2218 H 0.66247 0.19319 0.82248 0.0
H2219 H 0.69483 0.20539 0.79554 0.0
C2220 C 0.59666 0.21543 0.85132 0.0
C2221 C 0.57391 0.20675 0.84422 0.0
C2222 C 0.61665 0.21182 0.83685 0.0
C2223 C 0.61416 0.19933 0.81518 0.0
C2224 C 0.59175 0.18896 0.80914 0.0
C2225 C 0.57181 0.19269 0.82348 0.0
C2226 C 0.64711 0.21367 0.75875 0.0
C2227 C 0.67099 0.21362 0.76653 0.0
C2228 C 0.62861 0.20696 0.77412 0.0
C2229 C 0.63381 0.20037 0.79757 0.0
C2230 C 0.65794 0.19843 0.80462 0.0
C2231 C 0.67642 0.20511 0.78919 0.0
H2232 H 0.01566 0.34472 0.13949 0.0
H2233 H 0.97759 0.33576 0.07326 0.0
H2234 H 0.03072 0.38449 0.12666 0.0
H2235 H 0.99223 0.37574 0.06077 0.0
H2236 H 0.03861 0.43431 0.03284 0.0
H2237 H 0.03072 0.39378 0.04893 0.0
H2238 H 0.01755 0.42577 0.11746 0.0
H2239 H 0.02608 0.46627 0.1015 0.0
C2240 C 0.0101 0.3514 0.12239 0.0
C2241 C -0.00455 0.33699 0.10734 0.0
C2242 C 0.01885 0.37416 0.11503 0.0
C2243 C 0.01307 0.38297 0.09255 0.0
C2244 C -0.00243 0.36908 0.07795 0.0
C2245 C 0.9889 0.34631 0.08524 0.0
C2246 C 0.03476 0.4326 0.0515 0.0
C2247 C 0.03257 0.45343 0.06584 0.0
C2248 C 0.02996 0.40945 0.06064 0.0
C2249 C 0.02274 0.40675 0.08424 0.0
C2250 C 0.02294 0.42732 0.09916 0.0
C2251 C 0.02794 0.45052 0.09004 0.0
H2252 H 0.95466 0.73374 0.3159 0.0
H2253 H 0.90775 0.74089 0.37633 0.0
H2254 H 0.9206 0.74122 0.28965 0.0
H2255 H 0.87406 0.74822 0.35011 0.0
H2256 H 0.82678 0.7905 0.30357 0.0
H2257 H 0.8649 0.78402 0.32359 0.0
H2258 H 0.87916 0.7229 0.27749 0.0
H2259 H 0.84083 0.72951 0.25718 0.0
C2260 C 0.93709 0.73653 0.3236 0.0
C2261 C 0.93402 0.73698 0.34828 0.0
C2262 C 0.91765 0.74084 0.30853 0.0
C2263 C 0.89491 0.74586 0.3179 0.0
C2264 C 0.89158 0.74501 0.34245 0.0
C2265 C 0.91088 0.74056 0.35747 0.0
C2266 C 0.83834 0.77611 0.29726 0.0
C2267 C 0.83072 0.76029 0.27907 0.0
C2268 C 0.86004 0.77227 0.30884 0.0
C2269 C 0.87454 0.75252 0.30251 0.0
C2270 C 0.86816 0.73816 0.28279 0.0
C2271 C 0.84633 0.74204 0.2711 0.0
H2272 H 0.49443 0.30738 0.87368 0.0
H2273 H 0.53599 0.27739 0.93055 0.0
H2274 H 0.49159 0.34606 0.89507 0.0
H2275 H 0.53189 0.31474 0.95289 0.0
H2276 H 0.52486 0.38558 0.99031 0.0
H2277 H 0.53656 0.35326 0.96366 0.0
H2278 H 0.47012 0.36224 0.92462 0.0
H2279 H 0.45972 0.39602 0.95037 0.0
C2280 C 0.50299 0.30924 0.8908 0.0
C2281 C 0.51436 0.28932 0.90117 0.0
C2282 C 0.50115 0.33124 0.90326 0.0
C2283 C 0.51055 0.3335 0.92635 0.0
C2284 C 0.5242 0.31412 0.93536 0.0
C2285 C 0.52626 0.29238 0.92275 0.0
C2286 C 0.51262 0.38028 0.97622 0.0
C2287 C 0.49117 0.39292 0.97261 0.0
C2288 C 0.51934 0.36171 0.96078 0.0
C2289 C 0.50437 0.35472 0.94175 0.0
C2290 C 0.48259 0.36724 0.93856 0.0
C2291 C 0.47624 0.38631 0.95364 0.0
H2292 H 0.9499 0.24386 0.18919 0.0
H2293 H 0.90541 0.26698 0.13088 0.0
H2294 H 0.91436 0.22743 0.20904 0.0
H2295 H 0.87002 0.25098 0.15093 0.0
H2296 H 0.81323 0.2034 0.17826 0.0
H2297 H 0.85288 0.21086 0.16137 0.0
H2298 H 0.87738 0.24158 0.22769 0.0
H2299 H 0.83806 0.23355 0.24482 0.0
C2300 C 0.93252 0.24584 0.18079 0.0
C2301 C 0.93047 0.25669 0.15841 0.0
C2302 C 0.91223 0.23627 0.19211 0.0
C2303 C 0.88957 0.23744 0.18127 0.0
C2304 C 0.8874 0.24914 0.15936 0.0
C2305 C 0.90763 0.25864 0.14804 0.0
C2306 C 0.82728 0.21105 0.18945 0.0
C2307 C 0.82234 0.2185 0.21265 0.0
C2308 C 0.8499 0.21552 0.17972 0.0
C2309 C 0.86787 0.22755 0.19302 0.0
C2310 C 0.86379 0.23244 0.21699 0.0
C2311 C 0.84121 0.22783 0.22678 0.0
H2312 H 0.97248 0.67508 0.44 0.0
H2313 H 0.03716 0.67379 0.39783 0.0
H2314 H 0.98961 0.64532 0.46665 0.0
H2315 H 0.05466 0.64435 0.42499 0.0
H2316 H 0.05775 0.5691 0.46675 0.0
H2317 H 0.05112 0.60279 0.4396 0.0
H2318 H 0.02059 0.64498 0.4965 0.0
H2319 H 0.02627 0.61069 0.52322 0.0
C2320 C 0.99023 0.66813 0.43624 0.0
C2321 C 0.00343 0.67675 0.41683 0.0
C2322 C 0.00028 0.65145 0.45176 0.0
C2323 C 0.02386 0.64316 0.4484 0.0
C2324 C 0.03655 0.6506 0.42818 0.0
C2325 C 0.02639 0.66722 0.41248 0.0
C2326 C 0.05095 0.58615 0.47368 0.0
C2327 C 0.04254 0.58748 0.49697 0.0
C2328 C 0.04685 0.60535 0.45807 0.0
C2329 C 0.03448 0.62614 0.46574 0.0
C2330 C 0.02941 0.6288 0.48993 0.0
C2331 C 0.03319 0.60946 0.5054 0.0
H2332 H 0.53956 0.81168 0.66618 0.0
H2333 H 0.57913 0.76329 0.62066 0.0
H2334 H 0.57709 0.8303 0.67991 0.0
H2335 H 0.61689 0.78087 0.63536 0.0
H2336 H 0.64332 0.81687 0.72781 0.0
H2337 H 0.60594 0.8154 0.70609 0.0
H2338 H 0.64538 0.81378 0.64037 0.0
H2339 H 0.68317 0.81435 0.66248 0.0
C2340 C 0.55637 0.80501 0.65917 0.0
C2341 C 0.55662 0.78568 0.64285 0.0
C2342 C 0.57785 0.81571 0.66697 0.0
C2343 C 0.60004 0.80684 0.65906 0.0
C2344 C 0.60016 0.78838 0.64166 0.0
C2345 C 0.57857 0.77804 0.63345 0.0
C2346 C 0.64406 0.81687 0.70871 0.0
C2347 C 0.66611 0.81509 0.69686 0.0
C2348 C 0.62255 0.81622 0.69616 0.0
C2349 C 0.62262 0.81394 0.67144 0.0
C2350 C 0.64475 0.81495 0.65944 0.0
C2351 C 0.66639 0.81555 0.67208 0.0
H2352 H 0.61151 0.50942 0.68174 0.0
H2353 H 0.55694 0.47368 0.72404 0.0
H2354 H 0.59416 0.49108 0.64632 0.0
H2355 H 0.54017 0.45432 0.68876 0.0
H2356 H 0.49656 0.46773 0.61992 0.0
H2357 H 0.51723 0.46976 0.6574 0.0
H2358 H 0.58483 0.4561 0.62239 0.0
H2359 H 0.56403 0.45507 0.58441 0.0
C2360 C 0.59601 0.49732 0.68345 0.0
C2361 C 0.58517 0.49343 0.70546 0.0
C2362 C 0.58626 0.48649 0.66321 0.0
C2363 C 0.56568 0.47126 0.66467 0.0
C2364 C 0.55575 0.46629 0.68697 0.0
C2365 C 0.56527 0.47745 0.70715 0.0
C2366 C 0.51576 0.46455 0.62023 0.0
C2367 C 0.52879 0.46197 0.59918 0.0
C2368 C 0.52765 0.4655 0.64183 0.0
C2369 C 0.55281 0.46368 0.64285 0.0
C2370 C 0.56549 0.45822 0.62207 0.0
C2371 C 0.55356 0.45738 0.60035 0.0
H2372 H 0.74613 0.40864 0.89769 0.0
H2373 H 0.769 0.34265 0.93256 0.0
H2374 H 0.74331 0.38619 0.86035 0.0
H2375 H 0.76616 0.32049 0.89538 0.0
H2376 H 0.7841 0.29748 0.81948 0.0
H2377 H 0.78779 0.32138 0.85584 0.0
H2378 H 0.71715 0.35093 0.84415 0.0
H2379 H 0.71335 0.32711 0.80785 0.0
C2380 C 0.75053 0.38941 0.89741 0.0
C2381 C 0.75769 0.37742 0.9181 0.0
C2382 C 0.74885 0.37659 0.87609 0.0
C2383 C 0.75461 0.35169 0.87508 0.0
C2384 C 0.76188 0.33976 0.89568 0.0
C2385 C 0.7633 0.35244 0.91699 0.0
C2386 C 0.76938 0.30909 0.82465 0.0
C2387 C 0.7484 0.31031 0.81089 0.0
C2388 C 0.77147 0.32269 0.84545 0.0
C2389 C 0.75274 0.33795 0.85269 0.0
C2390 C 0.73192 0.33945 0.8388 0.0
C2391 C 0.7297 0.32566 0.81815 0.0
H2392 H 0.87416 0.50039 0.18938 0.0
H2393 H 0.92677 0.53971 0.23168 0.0
H2394 H 0.89495 0.51363 0.1536 0.0
H2395 H 0.94713 0.5534 0.19604 0.0
H2396 H 0.92836 0.55436 0.09245 0.0
H2397 H 0.90554 0.54877 0.12884 0.0
H2398 H 0.97147 0.53406 0.16638 0.0
H2399 H 0.99426 0.54012 0.13035 0.0
C2400 C 0.88999 0.51206 0.19102 0.0
C2401 C 0.89899 0.51877 0.21332 0.0
C2402 C 0.90179 0.51982 0.17053 0.0
C2403 C 0.92276 0.53449 0.17199 0.0
C2404 C 0.93125 0.5418 0.19432 0.0
C2405 C 0.91954 0.53398 0.21475 0.0
C2406 C 0.93803 0.55041 0.10857 0.0
C2407 C 0.96314 0.54752 0.10843 0.0
C2408 C 0.92491 0.54699 0.12937 0.0
C2409 C 0.93665 0.54073 0.15044 0.0
C2410 C 0.96186 0.53908 0.15051 0.0
C2411 C 0.97495 0.54245 0.12978 0.0
H2412 H 0.7451 0.60099 0.42068 0.0
H2413 H 0.76621 0.66589 0.45987 0.0
H2414 H 0.74148 0.6257 0.38493 0.0
H2415 H 0.76171 0.69031 0.42488 0.0
H2416 H 0.77044 0.72632 0.35485 0.0
H2417 H 0.77809 0.69921 0.38761 0.0
H2418 H 0.7145 0.65657 0.36966 0.0
H2419 H 0.70735 0.68328 0.33602 0.0
C2420 C 0.74925 0.62038 0.42163 0.0
C2421 C 0.7557 0.63148 0.44317 0.0
C2422 C 0.7469 0.63457 0.40125 0.0
C2423 C 0.75107 0.66002 0.40212 0.0
C2424 C 0.75859 0.67077 0.42345 0.0
C2425 C 0.76102 0.65669 0.44363 0.0
C2426 C 0.75791 0.71133 0.35796 0.0
C2427 C 0.73814 0.70711 0.34293 0.0
C2428 C 0.76234 0.69572 0.37676 0.0
C2429 C 0.74691 0.6757 0.38127 0.0
C2430 C 0.72696 0.67159 0.36642 0.0
C2431 C 0.72267 0.68709 0.34736 0.0
H2432 H 0.56213 0.53205 0.81763 0.0
H2433 H 0.62514 0.51662 0.85967 0.0
H2434 H 0.5376 0.53199 0.85297 0.0
H2435 H 0.60025 0.51601 0.89511 0.0
H2436 H 0.55214 0.53372 0.95681 0.0
H2437 H 0.57568 0.54161 0.92128 0.0
H2438 H 0.52332 0.50083 0.87996 0.0
H2439 H 0.4996 0.49336 0.91518 0.0
C2440 C 0.57079 0.52854 0.8344 0.0
C2441 C 0.59561 0.52402 0.83576 0.0
C2442 C 0.55666 0.52851 0.85465 0.0
C2443 C 0.56695 0.52387 0.87677 0.0
C2444 C 0.59185 0.51992 0.8783 0.0
C2445 C 0.60607 0.52004 0.85798 0.0
C2446 C 0.5454 0.52686 0.94007 0.0
C2447 C 0.52407 0.51274 0.93885 0.0
C2448 C 0.55901 0.53119 0.91978 0.0
C2449 C 0.55148 0.52161 0.89791 0.0
C2450 C 0.52952 0.50862 0.89653 0.0
C2451 C 0.51595 0.50426 0.91676 0.0
H2452 H 0.73752 0.31989 0.03194 0.0
H2453 H 0.76205 0.38148 0.07402 0.0
H2454 H 0.72782 0.29737 0.06772 0.0
H2455 H 0.75284 0.35867 0.10989 0.0
H2456 H 0.74559 0.25561 0.13592 0.0
H2457 H 0.75001 0.2784 0.09946 0.0
H2458 H 0.71921 0.34181 0.13282 0.0
H2459 H 0.71523 0.31917 0.16962 0.0
C2460 C 0.74092 0.32859 0.04884 0.0
C2461 C 0.75068 0.35239 0.05021 0.0
C2462 C 0.7354 0.31566 0.06933 0.0
C2463 C 0.7396 0.32623 0.0916 0.0
C2464 C 0.7491 0.35017 0.09297 0.0
C2465 C 0.75457 0.36314 0.07245 0.0
C2466 C 0.73948 0.27432 0.13546 0.0
C2467 C 0.73022 0.28562 0.15575 0.0
C2468 C 0.74193 0.28735 0.1145 0.0
C2469 C 0.73511 0.31195 0.11333 0.0
C2470 C 0.72498 0.32299 0.13333 0.0
C2471 C 0.72253 0.30995 0.15434 0.0
H2472 H 0.85566 0.48161 0.36778 0.0
H2473 H 0.91065 0.52138 0.32924 0.0
H2474 H 0.88124 0.48262 0.40298 0.0
H2475 H 0.93575 0.52281 0.36455 0.0
H2476 H 0.96005 0.54093 0.44114 0.0
H2477 H 0.93284 0.54135 0.40731 0.0
H2478 H 0.92441 0.46292 0.41157 0.0
H2479 H 0.95202 0.46232 0.44536 0.0
C2480 C 0.87301 0.49081 0.36687 0.0
C2481 C 0.88126 0.50115 0.34563 0.0
C2482 C 0.88765 0.49125 0.38696 0.0
C2483 C 0.91046 0.50258 0.38628 0.0
C2484 C 0.91821 0.51395 0.36545 0.0
C2485 C 0.90384 0.51308 0.34527 0.0
C2486 C 0.95245 0.52374 0.43485 0.0
C2487 C 0.95819 0.50156 0.44583 0.0
C2488 C 0.93691 0.52403 0.41552 0.0
C2489 C 0.9265 0.5022 0.40705 0.0
C2490 C 0.93209 0.48 0.41801 0.0
C2491 C 0.94802 0.47965 0.43713 0.0
H2492 H 0.75101 0.63599 0.59856 0.0
H2493 H 0.78329 0.69016 0.55261 0.0
H2494 H 0.75885 0.66267 0.63243 0.0
H2495 H 0.79148 0.71652 0.58643 0.0
H2496 H 0.76038 0.76687 0.64559 0.0
H2497 H 0.76429 0.73988 0.61173 0.0
H2498 H 0.79043 0.68272 0.65708 0.0
H2499 H 0.78623 0.70958 0.69116 0.0
C2500 C 0.76007 0.65341 0.59576 0.0
C2501 C 0.76618 0.66119 0.57297 0.0
C2502 C 0.76476 0.66858 0.61514 0.0
C2503 C 0.77568 0.6917 0.61198 0.0
C2504 C 0.78277 0.69893 0.58929 0.0
C2505 C 0.77805 0.68383 0.56997 0.0
C2506 C 0.76744 0.74874 0.64833 0.0
C2507 C 0.77256 0.74023 0.67111 0.0
C2508 C 0.7698 0.7333 0.62889 0.0
C2509 C 0.77735 0.70911 0.63189 0.0
C2510 C 0.78417 0.70117 0.6544 0.0
C2511 C 0.78188 0.71662 0.67385 0.0
H2512 H 0.69714 0.57166 0.54239 0.0
H2513 H 0.67459 0.61916 0.48629 0.0
H2514 H 0.65707 0.55308 0.54378 0.0
H2515 H 0.63472 0.59968 0.48639 0.0
H2516 H 0.55949 0.57365 0.50578 0.0
H2517 H 0.5984 0.59458 0.50672 0.0
H2518 H 0.63273 0.52612 0.52275 0.0
H2519 H 0.59405 0.50542 0.52215 0.0
C2520 C 0.68353 0.5778 0.53013 0.0
C2521 C 0.68883 0.59617 0.51376 0.0
C2522 C 0.66063 0.56716 0.53082 0.0
C2523 C 0.64269 0.57458 0.51493 0.0
C2524 C 0.64796 0.59365 0.49904 0.0
C2525 C 0.67078 0.60465 0.49876 0.0
C2526 C 0.57541 0.56306 0.50932 0.0
C2527 C 0.57368 0.53785 0.51381 0.0
C2528 C 0.59776 0.57505 0.50976 0.0
C2529 C 0.61883 0.56205 0.5146 0.0
C2530 C 0.61699 0.53682 0.51902 0.0
C2531 C 0.59472 0.52486 0.51859 0.0
H2532 H 0.20724 0.95597 0.47252 0.0
H2533 H 0.20049 0.89554 0.52123 0.0
H2534 H 0.1663 0.96779 0.48136 0.0
H2535 H 0.15953 0.9078 0.53042 0.0
H2536 H 0.07825 0.92589 0.51865 0.0
H2537 H 0.11911 0.91127 0.51328 0.0
H2538 H 0.14602 0.98579 0.51515 0.0
H2539 H 0.10521 0.00046 0.51992 0.0
C2540 C 0.19699 0.94512 0.48502 0.0
C2541 C 0.20718 0.92491 0.49626 0.0
C2542 C 0.17361 0.95205 0.49026 0.0
C2543 C 0.15994 0.93902 0.50696 0.0
C2544 C 0.16969 0.91818 0.5175 0.0
C2545 C 0.19312 0.91115 0.51217 0.0
C2546 C 0.09294 0.93912 0.51838 0.0
C2547 C 0.08852 0.96435 0.51934 0.0
C2548 C 0.11633 0.93073 0.51529 0.0
C2549 C 0.13563 0.94744 0.51326 0.0
C2550 C 0.13136 0.97254 0.51598 0.0
C2551 C 0.10803 0.98093 0.5189 0.0
H2552 H 0.31609 0.95269 0.75467 0.0
H2553 H 0.36549 0.91596 0.8007 0.0
H2554 H 0.29157 0.91593 0.75153 0.0
H2555 H 0.34197 0.87804 0.79639 0.0
H2556 H 0.28256 0.82196 0.80634 0.0
H2557 H 0.3071 0.85924 0.80876 0.0
H2558 H 0.28489 0.8781 0.73788 0.0
H2559 H 0.25893 0.84227 0.73666 0.0
C2560 C 0.32173 0.93646 0.76396 0.0
C2561 C 0.34185 0.93722 0.77879 0.0
C2562 C 0.30791 0.91515 0.76188 0.0
C2563 C 0.31435 0.89387 0.77411 0.0
C2564 C 0.33583 0.89425 0.78745 0.0
C2565 C 0.3495 0.9158 0.78974 0.0
C2566 C 0.28258 0.83454 0.79163 0.0
C2567 C 0.26863 0.82955 0.7715 0.0
C2568 C 0.29698 0.85568 0.79275 0.0
C2569 C 0.29837 0.87176 0.7734 0.0
C2570 C 0.28406 0.86667 0.7534 0.0
C2571 C 0.26909 0.84604 0.75264 0.0
H2572 H 0.316 0.04724 0.02103 0.0
H2573 H 0.32644 0.12325 0.04055 0.0
H2574 H 0.35423 0.03751 0.03927 0.0
H2575 H 0.36457 0.11327 0.05918 0.0
H2576 H 0.44437 0.08526 0.05033 0.0
H2577 H 0.4039 0.10041 0.04494 0.0
H2578 H 0.37489 0.03523 0.07782 0.0
H2579 H 0.41557 0.01978 0.08281 0.0
C2580 C 0.32642 0.06189 0.02917 0.0
C2581 C 0.31822 0.08606 0.02909 0.0
C2582 C 0.34815 0.05623 0.04 0.0
C2583 C 0.36218 0.07458 0.05101 0.0
C2584 C 0.35409 0.09876 0.05088 0.0
C2585 C 0.33232 0.10446 0.04005 0.0
C2586 C 0.42939 0.07457 0.05721 0.0
C2587 C 0.43301 0.05111 0.06646 0.0
C2588 C 0.40619 0.08328 0.05415 0.0
C2589 C 0.38625 0.06864 0.06034 0.0
C2590 C 0.39 0.04658 0.07237 0.0
C2591 C 0.41329 0.03788 0.07551 0.0
H2592 H 0.66764 0.57153 0.73724 0.0
H2593 H 0.61491 0.60055 0.78502 0.0
H2594 H 0.68661 0.61191 0.73395 0.0
H2595 H 0.63434 0.64088 0.78278 0.0
H2596 H 0.7297 0.68 0.75332 0.0
H2597 H 0.71029 0.64014 0.7559 0.0
H2598 H 0.64063 0.67431 0.7568 0.0
H2599 H 0.66011 0.71435 0.75461 0.0
C2600 C 0.66044 0.58662 0.74731 0.0
C2601 C 0.64039 0.58314 0.76187 0.0
C2602 C 0.67124 0.60969 0.7455 0.0
C2603 C 0.66211 0.62961 0.75826 0.0
C2604 C 0.64166 0.62601 0.77252 0.0
C2605 C 0.63068 0.60299 0.77401 0.0
C2606 C 0.71024 0.67905 0.75417 0.0
C2607 C 0.69645 0.70037 0.75384 0.0
C2608 C 0.69909 0.65614 0.75557 0.0
C2609 C 0.6739 0.654 0.75673 0.0
C2610 C 0.6601 0.67533 0.75637 0.0
C2611 C 0.67126 0.69828 0.75497 0.0
H2612 H 0.81097 0.44313 0.01821 0.0
H2613 H 0.84124 0.39869 0.96308 0.0
H2614 H 0.84869 0.46591 0.02181 0.0
H2615 H 0.87896 0.42235 0.96556 0.0
H2616 H 0.95008 0.4541 0.99546 0.0
H2617 H 0.91315 0.43036 0.98959 0.0
H2618 H 0.87157 0.49538 0.00194 0.0
H2619 H 0.90824 0.51886 0.00818 0.0
C2620 C 0.82576 0.43857 0.00663 0.0
C2621 C 0.82329 0.4198 0.98994 0.0
C2622 C 0.84731 0.45165 0.00855 0.0
C2623 C 0.86675 0.44629 0.99365 0.0
C2624 C 0.86439 0.42688 0.97737 0.0
C2625 C 0.84286 0.41347 0.97579 0.0
C2626 C 0.93302 0.46336 -0.00342 0.0
C2627 C 0.93205 0.4883 0.0025 0.0
C2628 C 0.91185 0.44976 0.99312 0.0
C2629 C 0.88934 0.46091 0.99539 0.0
C2630 C 0.88852 0.48608 0.00035 0.0
C2631 C 0.9096 0.49961 0.00388 0.0
H2632 H 0.29991 0.06424 0.80617 0.0
H2633 H 0.35878 0.07042 0.75666 0.0
H2634 H 0.28275 0.10134 0.79039 0.0
H2635 H 0.34117 0.10729 0.74041 0.0
H2636 H 0.31357 0.18805 0.74104 0.0
H2637 H 0.33258 0.14937 0.74963 0.0
H2638 H 0.26258 0.11439 0.75496 0.0
H2639 H 0.24349 0.15332 0.74717 0.0
C2640 C 0.30929 0.07361 0.79203 0.0
C2641 C 0.33071 0.06436 0.7827 0.0
C2642 C 0.29926 0.09469 0.78272 0.0
C2643 C 0.31028 0.10692 0.76373 0.0
C2644 C 0.33222 0.09825 0.75499 0.0
C2645 C 0.34237 0.0772 0.76443 0.0
C2646 C 0.3022 0.17197 0.74329 0.0
C2647 C 0.277 0.17384 0.74395 0.0
C2648 C 0.31315 0.14976 0.74829 0.0
C2649 C 0.29906 0.12902 0.75375 0.0
C2650 C 0.2739 0.1303 0.75165 0.0
C2651 C 0.26296 0.15252 0.74689 0.0
H2652 H 0.11791 0.93803 0.25238 0.0
H2653 H 0.19445 0.95356 0.25255 0.0
H2654 H 0.12579 0.89531 0.24247 0.0
H2655 H 0.20211 0.91107 0.24238 0.0
H2656 H 0.20846 0.84105 0.203 0.0
H2657 H 0.19278 0.88243 0.20612 0.0
H2658 H 0.14797 0.85997 0.2645 0.0
H2659 H 0.16375 0.81865 0.2616 0.0
C2660 C 0.13638 0.93234 0.25038 0.0
C2661 C 0.15558 0.94917 0.2533 0.0
C2662 C 0.14082 0.90797 0.24462 0.0
C2663 C 0.16449 0.90015 0.24125 0.0
C2664 C 0.18366 0.91684 0.24441 0.0
C2665 C 0.17928 0.94107 0.25054 0.0
C2666 C 0.1946 0.8447 0.21591 0.0
C2667 C 0.18754 0.82678 0.23227 0.0
C2668 C 0.18584 0.86841 0.21783 0.0
C2669 C 0.16959 0.87435 0.23584 0.0
C2670 C 0.16056 0.85581 0.25053 0.0
C2671 C 0.16958 0.8322 0.24885 0.0
H2672 H 0.46674 0.36325 0.37059 0.0
H2673 H 0.53428 0.32935 0.38718 0.0
H2674 H 0.47895 0.39925 0.39348 0.0
H2675 H 0.54709 0.36561 0.40919 0.0
H2676 H 0.53409 0.40846 0.4797 0.0
H2677 H 0.53455 0.37939 0.44701 0.0
H2678 H 0.50439 0.43395 0.40093 0.0
H2679 H 0.50308 0.46253 0.43395 0.0
C2680 C 0.48451 0.36394 0.37848 0.0
C2681 C 0.4994 0.34357 0.37765 0.0
C2682 C 0.49164 0.38455 0.39149 0.0
C2683 C 0.5139 0.3851 0.4035 0.0
C2684 C 0.52964 0.3655 0.40066 0.0
C2685 C 0.52235 0.34483 0.38802 0.0
C2686 C 0.52832 0.41438 0.46239 0.0
C2687 C 0.51816 0.4374 0.45931 0.0
C2688 C 0.52859 0.39781 0.4436 0.0
C2689 C 0.51902 0.40425 0.42144 0.0
C2690 C 0.51128 0.42825 0.4179 0.0
C2691 C 0.51068 0.44462 0.43674 0.0
H2692 H 0.4169 0.74187 0.18215 0.0
H2693 H 0.4009 0.76525 0.11106 0.0
H2694 H 0.38393 0.76591 0.19691 0.0
H2695 H 0.36782 0.78979 0.12609 0.0
H2696 H 0.29231 0.79095 0.16686 0.0
H2697 H 0.32834 0.78253 0.14441 0.0
H2698 H 0.37217 0.80853 0.20259 0.0
H2699 H 0.33602 0.8161 0.22552 0.0
C2700 C 0.40633 0.75214 0.16964 0.0
C2701 C 0.41152 0.75158 0.14543 0.0
C2702 C 0.38766 0.76629 0.17816 0.0
C2703 C 0.37373 0.78034 0.16272 0.0
C2704 C 0.37844 0.77935 0.1384 0.0
C2705 C 0.3972 0.7651 0.12982 0.0
C2706 C 0.30957 0.79597 0.17452 0.0
C2707 C 0.31144 0.80319 0.19832 0.0
C2708 C 0.33029 0.79108 0.16159 0.0
C2709 C 0.353 0.79383 0.17221 0.0
C2710 C 0.35478 0.80537 0.19436 0.0
C2711 C 0.3341 0.80993 0.20741 0.0
H2712 H 0.97221 0.70205 0.89447 0.0
H2713 H 0.96256 0.73664 0.96248 0.0
H2714 H 0.96921 0.66205 0.91298 0.0
H2715 H 0.96031 0.69658 0.98108 0.0
H2716 H 0.94754 0.61972 0.00757 0.0
H2717 H 0.93868 0.65705 0.98549 0.0
H2718 H -0.00249 0.64179 0.93811 0.0
H2719 H 0.00589 0.60481 0.95948 0.0
C2720 C 0.96948 0.7011 0.91338 0.0
C2721 C 0.96809 0.72244 0.92711 0.0
C2722 C 0.96765 0.67822 0.92394 0.0
C2723 C 0.96474 0.67623 0.94848 0.0
C2724 C 0.96227 0.69755 0.96209 0.0
C2725 C 0.96384 0.72048 0.95147 0.0
C2726 C 0.95821 0.62423 0.99218 0.0
C2727 C 0.97759 0.6096 0.98543 0.0
C2728 C 0.95324 0.64557 0.97964 0.0
C2729 C 0.96744 0.65231 0.96012 0.0
C2730 C 0.98601 0.63696 0.95284 0.0
C2731 C 0.991 0.61587 0.96531 0.0
H2732 H 0.03655 0.2501 0.70781 0.0
H2733 H 0.07865 0.241 0.64441 0.0
H2734 H 0.07348 0.24988 0.73151 0.0
H2735 H 0.11552 0.24146 0.66816 0.0
H2736 H 0.17012 0.28073 0.72069 0.0
H2737 H 0.13265 0.27903 0.6985 0.0
H2738 H 0.11114 0.21367 0.73577 0.0
H2739 H 0.1493 0.21487 0.75795 0.0
C2740 C 0.05369 0.24834 0.69896 0.0
C2741 C 0.05486 0.24571 0.67431 0.0
C2742 C 0.07467 0.24794 0.71251 0.0
C2743 C 0.09705 0.24543 0.70152 0.0
C2744 C 0.0983 0.24328 0.67689 0.0
C2745 C 0.07732 0.24313 0.66338 0.0
C2746 C 0.15741 0.26602 0.72435 0.0
C2747 C 0.16256 0.24794 0.74114 0.0
C2748 C 0.13608 0.26505 0.71154 0.0
C2749 C 0.11928 0.24626 0.71554 0.0
C2750 C 0.12402 0.22835 0.73256 0.0
C2751 C 0.14573 0.229 0.74513 0.0
H2752 H 0.5138 0.67804 0.1019 0.0
H2753 H 0.4531 0.65205 0.14239 0.0
H2754 H 0.51646 0.63854 0.08233 0.0
H2755 H 0.45614 0.61181 0.12354 0.0
H2756 H 0.44837 0.55779 0.06181 0.0
H2757 H 0.44782 0.59492 0.08551 0.0
H2758 H 0.52565 0.59696 0.08603 0.0
H2759 H 0.52615 0.5604 0.06152 0.0
C2760 C 0.50109 0.66365 0.1066 0.0
C2761 C 0.48263 0.66804 0.12272 0.0
C2762 C 0.50282 0.64092 0.09573 0.0
C2763 C 0.48631 0.62208 0.10116 0.0
C2764 C 0.46874 0.62615 0.11855 0.0
C2765 C 0.46702 0.64901 0.12939 0.0
C2766 C 0.46534 0.56621 0.06698 0.0
C2767 C 0.4873 0.55635 0.05966 0.0
C2768 C 0.46504 0.58734 0.08077 0.0
C2769 C 0.48669 0.59887 0.08772 0.0
C2770 C 0.50864 0.58876 0.08066 0.0
C2771 C 0.50894 0.56781 0.06662 0.0
H2772 H 0.0662 0.77656 0.86871 0.0
H2773 H 0.02407 0.74186 0.81341 0.0
H2774 H 0.1013 0.77689 0.84315 0.0
H2775 H 0.05948 0.74216 0.7878 0.0
H2776 H 0.13873 0.72181 0.76633 0.0
H2777 H 0.10055 0.72276 0.78724 0.0
H2778 H 0.11355 0.79864 0.80517 0.0
H2779 H 0.15206 0.7977 0.78411 0.0
C2780 C 0.06449 0.76871 0.85119 0.0
C2781 C 0.04237 0.75916 0.84305 0.0
C2782 C 0.08452 0.76924 0.83647 0.0
C2783 C 0.08291 0.76003 0.81339 0.0
C2784 C 0.06109 0.74952 0.80551 0.0
C2785 C 0.04092 0.74919 0.8202 0.0
C2786 C 0.13324 0.73884 0.77439 0.0
C2787 C 0.1484 0.75965 0.77388 0.0
C2788 C 0.11135 0.73937 0.78625 0.0
C2789 C 0.10432 0.76066 0.79802 0.0
C2790 C 0.11881 0.78191 0.79643 0.0
C2791 C 0.14067 0.78146 0.78426 0.0
H2792 H 0.00728 0.31253 0.62135 0.0
H2793 H 0.98264 0.28314 0.55439 0.0
H2794 H 0.00649 0.35364 0.60495 0.0
H2795 H 0.98123 0.32416 0.53838 0.0
H2796 H 0.0039 0.40025 0.51189 0.0
H2797 H 0.00617 0.3587 0.52677 0.0
H2798 H 0.97515 0.38201 0.59285 0.0
H2799 H 0.97336 0.42374 0.57823 0.0
C2800 C 0.00193 0.31476 0.60311 0.0
C2801 C 0.99485 0.29453 0.58927 0.0
C2802 C 0.00122 0.33834 0.5938 0.0
C2803 C 0.99344 0.34213 0.5705 0.0
C2804 C 0.98738 0.32183 0.55637 0.0
C2805 C 0.98812 0.2983 0.56563 0.0
C2806 C -0.00274 0.39649 0.52949 0.0
C2807 C 0.98856 0.41535 0.54392 0.0
C2808 C -0.0014 0.37266 0.53801 0.0
C2809 C 0.99117 0.36719 0.56109 0.0
C2810 C 0.98155 0.38582 0.57517 0.0
C2811 C 0.98026 0.40967 0.56668 0.0
H2812 H 0.43604 0.22708 0.3491 0.0
H2813 H 0.40729 0.29103 0.38272 0.0
H2814 H 0.39597 0.21418 0.33696 0.0
H2815 H 0.36738 0.28019 0.36828 0.0
H2816 H 0.29861 0.26556 0.3367 0.0
H2817 H 0.33233 0.2606 0.36343 0.0
H2818 H 0.37061 0.22228 0.30827 0.0
H2819 H 0.33639 0.22612 0.28247 0.0
C2820 C 0.42092 0.23845 0.35367 0.0
C2821 C 0.4245 0.26042 0.366 0.0
C2822 C 0.39792 0.23122 0.34656 0.0
C2823 C 0.37814 0.24642 0.35074 0.0
C2824 C 0.38179 0.26764 0.36472 0.0
C2825 C 0.40476 0.27426 0.37273 0.0
C2826 C 0.31414 0.25558 0.33063 0.0
C2827 C 0.31534 0.24689 0.30735 0.0
C2828 C 0.33363 0.25295 0.34585 0.0
C2829 C 0.35502 0.24231 0.33779 0.0
C2830 C 0.35486 0.23098 0.31535 0.0
C2831 C 0.33516 0.23321 0.3003 0.0
H2832 H 0.44413 0.51986 0.32422 0.0
H2833 H 0.37138 0.53338 0.34742 0.0
H2834 H 0.45831 0.52462 0.36476 0.0
H2835 H 0.38567 0.53878 0.38759 0.0
H2836 H 0.41628 0.508 0.45705 0.0
H2837 H 0.40079 0.51168 0.41726 0.0
H2838 H 0.4639 0.55386 0.39744 0.0
H2839 H 0.47984 0.54964 0.43741 0.0
C2840 C 0.4312 0.52401 0.33789 0.0
C2841 C 0.40659 0.52588 0.33262 0.0
C2842 C 0.43936 0.52701 0.36106 0.0
C2843 C 0.42308 0.53208 0.37933 0.0
C2844 C 0.39859 0.53456 0.37393 0.0
C2845 C 0.39042 0.5314 0.35088 0.0
C2846 C 0.4267 0.51845 0.44436 0.0
C2847 C 0.44942 0.52826 0.45027 0.0
C2848 C 0.41774 0.52066 0.42155 0.0
C2849 C 0.43127 0.53282 0.40416 0.0
C2850 C 0.4533 0.54403 0.41043 0.0
C2851 C 0.46229 0.54183 0.43335 0.0
H2852 H 0.29446 0.68612 0.05506 0.0
H2853 H 0.28202 0.61678 0.08945 0.0
H2854 H 0.28845 0.70722 0.09258 0.0
H2855 H 0.27499 0.63766 0.12646 0.0
H2856 H 0.2702 0.68097 0.19355 0.0
H2857 H 0.2867 0.66149 0.15879 0.0
H2858 H 0.25291 0.71546 0.11466 0.0
H2859 H 0.23729 0.73571 0.1497 0.0
C2860 C 0.2913 0.67533 0.07076 0.0
C2861 C 0.28837 0.64982 0.06925 0.0
C2862 C 0.28735 0.68744 0.09219 0.0
C2863 C 0.28042 0.67423 0.11242 0.0
C2864 C 0.2802 0.64854 0.11134 0.0
C2865 C 0.28429 0.63649 0.09004 0.0
C2866 C 0.26603 0.68859 0.17643 0.0
C2867 C 0.25219 0.70983 0.17444 0.0
C2868 C 0.27562 0.67742 0.15644 0.0
C2869 C 0.27136 0.68695 0.13385 0.0
C2870 C 0.2571 0.70793 0.1318 0.0
C2871 C 0.24775 0.71932 0.15187 0.0
H2872 H 0.12571 0.55216 0.85165 0.0
H2873 H 0.09372 0.48195 0.83437 0.0
H2874 H 0.10469 0.55211 0.88921 0.0
H2875 H 0.07388 0.48093 0.87264 0.0
H2876 H 0.02537 0.49674 0.93597 0.0
H2877 H 0.04414 0.49609 0.89712 0.0
H2878 H 0.10658 0.53403 0.92587 0.0
H2879 H 0.08697 0.53605 0.96411 0.0
C2880 C 0.11412 0.53672 0.85594 0.0
C2881 C 0.11126 0.51711 0.84014 0.0
C2882 C 0.1023 0.53648 0.87762 0.0
C2883 C 0.08789 0.51628 0.88428 0.0
C2884 C 0.08458 0.49692 0.86811 0.0
C2885 C 0.09596 0.49746 0.84615 0.0
C2886 C 0.04323 0.50465 0.93391 0.0
C2887 C 0.05472 0.51656 0.95288 0.0
C2888 C 0.05404 0.50429 0.91167 0.0
C2889 C 0.07678 0.51537 0.90814 0.0
C2890 C 0.08873 0.52606 0.92762 0.0
C2891 C 0.07767 0.52695 0.94964 0.0
H2892 H 0.22311 0.30396 0.5697 0.0
H2893 H 0.22687 0.37842 0.59528 0.0
H2894 H 0.22755 0.28913 0.6101 0.0
H2895 H 0.23195 0.36378 0.63529 0.0
H2896 H 0.22641 0.32918 0.70728 0.0
H2897 H 0.21508 0.34263 0.66819 0.0
H2898 H 0.26199 0.289 0.63726 0.0
H2899 H 0.2728 0.27478 0.67662 0.0
C2900 C 0.22412 0.31712 0.58401 0.0
C2901 C 0.22485 0.34232 0.5794 0.0
C2902 C 0.2271 0.30866 0.60706 0.0
C2903 C 0.23069 0.32529 0.62578 0.0
C2904 C 0.22925 0.35047 0.6213 0.0
C2905 C 0.2263 0.35888 0.59835 0.0
C2906 C 0.23455 0.32033 0.6922 0.0
C2907 C 0.25056 0.30086 0.69512 0.0
C2908 C 0.22797 0.32806 0.66975 0.0
C2909 C 0.23739 0.31668 0.64963 0.0
C2910 C 0.25399 0.29774 0.65246 0.0
C2911 C 0.26051 0.28988 0.675 0.0
H2912 H 0.42535 0.53701 0.17748 0.0
H2913 H 0.47356 0.49656 0.22195 0.0
H2914 H 0.43845 0.5136 0.14334 0.0
H2915 H 0.48662 0.47273 0.18754 0.0
H2916 H 0.50932 0.45611 0.10457 0.0
H2917 H 0.50511 0.4752 0.14351 0.0
H2918 H 0.42792 0.46734 0.13809 0.0
H2919 H 0.43209 0.4487 0.09924 0.0
C2920 C 0.43949 0.52377 0.17974 0.0
C2921 C 0.4484 0.5185 0.20226 0.0
C2922 C 0.44668 0.51009 0.16032 0.0
C2923 C 0.46282 0.49078 0.16308 0.0
C2924 C 0.47389 0.48733 0.18509 0.0
C2925 C 0.46669 0.50118 0.20466 0.0
C2926 C 0.49155 0.45726 0.11229 0.0
C2927 C 0.47097 0.45118 0.09886 0.0
C2928 C 0.48916 0.46848 0.13442 0.0
C2929 C 0.46619 0.4735 0.14326 0.0
C2930 C 0.44584 0.46426 0.13127 0.0
C2931 C 0.4482 0.45323 0.10923 0.0
H2932 H 0.27888 0.66424 0.94668 0.0
H2933 H 0.21068 0.63112 0.92701 0.0
H2934 H 0.28124 0.68401 0.90814 0.0
H2935 H 0.21228 0.65175 0.88932 0.0
H2936 H 0.2306 0.66927 0.81499 0.0
H2937 H 0.23192 0.64963 0.8533 0.0
H2938 H 0.26574 0.71448 0.88316 0.0
H2939 H 0.26558 0.73357 0.84425 0.0
C2940 C 0.26423 0.6615 0.93427 0.0
C2941 C 0.24468 0.646 0.93981 0.0
C2942 C 0.26553 0.67288 0.91219 0.0
C2943 C 0.24711 0.66926 0.89538 0.0
C2944 C 0.22719 0.65441 0.90142 0.0
C2945 C 0.22613 0.64274 0.9232 0.0
C2946 C 0.2385 0.67924 0.82972 0.0
C2947 C 0.24783 0.70299 0.82671 0.0
C2948 C 0.23907 0.66808 0.85177 0.0
C2949 C 0.24849 0.68061 0.87155 0.0
C2950 C 0.2585 0.70417 0.86836 0.0
C2951 C 0.25834 0.71518 0.84609 0.0
H2952 H 0.14026 0.47953 0.69249 0.0
H2953 H 0.07202 0.46091 0.7246 0.0
H2954 H 0.12076 0.48442 0.65488 0.0
H2955 H 0.05241 0.46406 0.68619 0.0
H2956 H 0.0205 0.50763 0.62532 0.0
H2957 H 0.04006 0.49548 0.66186 0.0
H2958 H 0.10151 0.47097 0.62183 0.0
H2959 H 0.08259 0.48488 0.58576 0.0
C2960 C 0.12114 0.47554 0.69134 0.0
C2961 C 0.10762 0.47027 0.71166 0.0
C2962 C 0.10986 0.47828 0.66957 0.0
C2963 C 0.08478 0.47523 0.66738 0.0
C2964 C 0.07162 0.46743 0.6873 0.0
C2965 C 0.08291 0.46516 0.70928 0.0
C2966 C 0.03835 0.49998 0.6245 0.0
C2967 C 0.05024 0.49765 0.60282 0.0
C2968 C 0.04945 0.49258 0.6454 0.0
C2969 C 0.07244 0.48204 0.64499 0.0
C2970 C 0.08408 0.47946 0.62309 0.0
C2971 C 0.07326 0.48748 0.60233 0.0
H2972 H 0.28457 0.35748 0.4277 0.0
H2973 H 0.22292 0.32091 0.45875 0.0
H2974 H 0.27235 0.34274 0.38895 0.0
H2975 H 0.21051 0.30625 0.41955 0.0
H2976 H 0.21798 0.27074 0.3411 0.0
H2977 H 0.22405 0.28028 0.38303 0.0
H2978 H 0.23589 0.35628 0.36551 0.0
H2979 H 0.23028 0.34677 0.32386 0.0
C2980 C 0.26865 0.34589 0.42628 0.0
C2981 C 0.25451 0.34062 0.44615 0.0
C2982 C 0.26153 0.33765 0.4041 0.0
C2983 C 0.24008 0.32408 0.40129 0.0
C2984 C 0.22699 0.31693 0.42132 0.0
C2985 C 0.23418 0.32517 0.4437 0.0
C2986 C 0.22098 0.2896 0.34638 0.0
C2987 C 0.22403 0.30802 0.32936 0.0
C2988 C 0.2246 0.295 0.37029 0.0
C2989 C 0.23117 0.31883 0.37725 0.0
C2990 C 0.23152 0.33762 0.36043 0.0
C2991 C 0.22809 0.33224 0.33667 0.0
H2992 H 0.33025 0.34535 0.52009 0.0
H2993 H 0.29845 0.41071 0.54802 0.0
H2994 H 0.37004 0.36011 0.53265 0.0
H2995 H 0.3379 0.42638 0.55925 0.0
H2996 H 0.40918 0.4549 0.57576 0.0
H2997 H 0.37415 0.42777 0.57979 0.0
H2998 H 0.39507 0.3895 0.51624 0.0
H2999 H 0.42996 0.41576 0.51278 0.0
C3000 C 0.33193 0.36291 0.52888 0.0
C3001 C 0.31183 0.3777 0.5319 0.0
C3002 C 0.35459 0.37139 0.53609 0.0
C3003 C 0.35735 0.39478 0.54637 0.0
C3004 C 0.33666 0.40832 0.55144 0.0
C3005 C 0.31408 0.39968 0.54446 0.0
C3006 C 0.40646 0.44032 0.563 0.0
C3007 C 0.42188 0.4379 0.54358 0.0
C3008 C 0.38636 0.42484 0.56523 0.0
C3009 C 0.38139 0.4068 0.54802 0.0
C3010 C 0.39815 0.40309 0.52988 0.0
C3011 C 0.41811 0.41846 0.52768 0.0
H3012 H 0.82884 0.11973 0.47189 0.0
H3013 H 0.80309 0.04545 0.46139 0.0
H3014 H 0.86991 0.10644 0.46497 0.0
H3015 H 0.84401 0.03218 0.45524 0.0
H3016 H 0.91915 0.01205 0.44063 0.0
H3017 H 0.88103 0.0324 0.43262 0.0
H3018 H 0.89566 0.08305 0.48982 0.0
H3019 H 0.93353 0.06337 0.49729 0.0
C3020 C 0.83189 0.10063 0.46795 0.0
C3021 C 0.81274 0.08358 0.46764 0.0
C3022 C 0.85541 0.09303 0.46394 0.0
C3023 C 0.86024 0.06822 0.45977 0.0
C3024 C 0.84092 0.05147 0.45809 0.0
C3025 C 0.81743 0.05907 0.46191 0.0
C3026 C 0.9144 0.02791 0.45103 0.0
C3027 C 0.92902 0.03581 0.46988 0.0
C3028 C 0.89258 0.03948 0.44654 0.0
C3029 C 0.88521 0.05916 0.46076 0.0
C3030 C 0.90081 0.06812 0.47837 0.0
C3031 C 0.92245 0.0566 0.48286 0.0
H3032 H 0.62439 0.09103 0.26944 0.0
H3033 H 0.67218 0.04245 0.23298 0.0
H3034 H 0.63695 0.1244 0.24374 0.0
H3035 H 0.68354 0.07503 0.20584 0.0
H3036 H 0.72666 0.14834 0.19871 0.0
H3037 H 0.70761 0.10924 0.20662 0.0
H3038 H 0.63796 0.14363 0.2075 0.0
H3039 H 0.65755 0.18313 0.20091 0.0
C3040 C 0.63742 0.0876 0.25566 0.0
C3041 C 0.64812 0.06478 0.25358 0.0
C3042 C 0.6443 0.10648 0.24055 0.0
C3043 C 0.66131 0.10249 0.22251 0.0
C3044 C 0.67082 0.07899 0.21973 0.0
C3045 C 0.66443 0.06037 0.23528 0.0
C3046 C 0.70718 0.14732 0.19945 0.0
C3047 C 0.69355 0.16864 0.19991 0.0
C3048 C 0.69615 0.12484 0.20417 0.0
C3049 C 0.67132 0.1235 0.20905 0.0
C3050 C 0.65728 0.14427 0.20507 0.0
C3051 C 0.66839 0.16682 0.20087 0.0
H3052 H 0.6923 0.92623 0.95702 0.0
H3053 H 0.67294 0.87761 0.01411 0.0
H3054 H 0.6509 0.93965 0.95445 0.0
H3055 H 0.63141 0.89157 0.01184 0.0
H3056 H 0.59433 0.98689 0.99375 0.0
H3057 H 0.63085 0.96565 0.98355 0.0
H3058 H 0.5929 0.89629 0.98842 0.0
H3059 H 0.5559 0.91791 -0.00122 0.0
C3060 C 0.67915 0.91828 0.96893 0.0
C3061 C 0.68596 0.90134 0.9862 0.0
C3062 C 0.65543 0.92588 0.96734 0.0
C3063 C 0.63805 0.91689 0.98314 0.0
C3064 C 0.64443 0.89866 -0.00068 0.0
C3065 C 0.66822 0.89086 0.00078 0.0
C3066 C 0.59364 0.96714 0.99211 0.0
C3067 C 0.57247 0.95397 -0.00279 0.0
C3068 C 0.6145 0.95496 0.9861 0.0
C3069 C 0.61472 0.9293 0.98527 0.0
C3070 C 0.59318 0.91609 0.98907 0.0
C3071 C 0.57206 0.92841 0.99481 0.0
H3072 H 0.38892 0.44387 0.28116 0.0
H3073 H 0.35571 0.47763 0.22101 0.0
H3074 H 0.36666 0.40611 0.27321 0.0
H3075 H 0.3346 0.43937 0.21162 0.0
H3076 H 0.2784 0.37739 0.22103 0.0
H3077 H 0.30303 0.41455 0.22327 0.0
H3078 H 0.36258 0.3723 0.2497 0.0
H3079 H 0.33713 0.33573 0.24905 0.0
C3080 C 0.37689 0.44297 0.26611 0.0
C3081 C 0.37316 0.46359 0.25219 0.0
C3082 C 0.3644 0.42127 0.26123 0.0
C3083 C 0.34876 0.41952 0.24166 0.0
C3084 C 0.346 0.4401 0.22712 0.0
C3085 C 0.35804 0.46199 0.23243 0.0
C3086 C 0.29691 0.37618 0.22692 0.0
C3087 C 0.30596 0.35399 0.23507 0.0
C3088 C 0.31109 0.39742 0.22821 0.0
C3089 C 0.33473 0.39663 0.23721 0.0
C3090 C 0.34422 0.37386 0.24353 0.0
C3091 C 0.32982 0.35283 0.24288 0.0
H3092 H 0.20543 0.58885 0.04905 0.0
H3093 H 0.18353 0.65936 0.02404 0.0
H3094 H 0.16598 0.58169 0.06591 0.0
H3095 H 0.14453 0.65373 0.04305 0.0
H3096 H 0.07239 0.61409 0.0313 0.0
H3097 H 0.11153 0.63276 0.03186 0.0
H3098 H 0.13269 0.58472 0.08864 0.0
H3099 H 0.0933 0.56445 0.08653 0.0
C3100 C 0.19195 0.60282 0.04723 0.0
C3101 C 0.1965 0.62368 0.03364 0.0
C3102 C 0.16949 0.59913 0.05756 0.0
C3103 C 0.15142 0.61673 0.05513 0.0
C3104 C 0.15742 0.63915 0.04423 0.0
C3105 C 0.17972 0.64248 0.03336 0.0
C3106 C 0.08522 0.6077 0.04423 0.0
C3107 C 0.08011 0.58717 0.05823 0.0
C3108 C 0.10782 0.61877 0.04484 0.0
C3109 C 0.12584 0.60991 0.05984 0.0
C3110 C 0.11962 0.59145 0.07616 0.0
C3111 C 0.09694 0.57998 0.07521 0.0
H3112 H 0.72329 0.97172 0.30199 0.0
H3113 H 0.6545 0.93569 0.31309 0.0
H3114 H 0.74328 0.9323 0.30489 0.0
H3115 H 0.67462 0.89649 0.31644 0.0
H3116 H 0.71987 0.82993 0.33022 0.0
H3117 H 0.70875 0.87201 0.3404 0.0
H3118 H 0.73556 0.89678 0.273 0.0
H3119 H 0.74591 0.85491 0.26263 0.0
C3120 C 0.71252 0.95551 0.30563 0.0
C3121 C 0.68731 0.95665 0.30689 0.0
C3122 C 0.72398 0.93305 0.30736 0.0
C3123 C 0.71043 0.91154 0.31094 0.0
C3124 C 0.68544 0.91292 0.31395 0.0
C3125 C 0.67394 0.93528 0.31175 0.0
C3126 C 0.72392 0.84455 0.31794 0.0
C3127 C 0.73349 0.83938 0.29561 0.0
C3128 C 0.71757 0.86848 0.32372 0.0
C3129 C 0.7214 0.88746 0.30747 0.0
C3130 C 0.7327 0.88246 0.28591 0.0
C3131 C 0.73844 0.85856 0.27992 0.0
H3132 H 0.83453 0.07866 0.79135 0.0
H3133 H 0.8752 0.09361 0.72793 0.0
H3134 H 0.81745 0.11949 0.78959 0.0
H3135 H 0.85778 0.13439 0.72612 0.0
H3136 H 0.78559 0.17789 0.71405 0.0
H3137 H 0.81136 0.14268 0.719 0.0
H3138 H 0.83007 0.16723 0.78924 0.0
H3139 H 0.80445 0.2031 0.78416 0.0
C3140 C 0.84004 0.09079 0.77722 0.0
C3141 C 0.85593 0.0829 0.75959 0.0
C3142 C 0.83046 0.11417 0.77638 0.0
C3143 C 0.83633 0.12987 0.7577 0.0
C3144 C 0.85304 0.12247 0.74066 0.0
C3145 C 0.86297 0.09921 0.74172 0.0
C3146 C 0.79527 0.17588 0.73053 0.0
C3147 C 0.7929 0.19305 0.74883 0.0
C3148 C 0.8102 0.1559 0.73322 0.0
C3149 C 0.82273 0.15248 0.75441 0.0
C3150 C 0.82058 0.16967 0.77272 0.0
C3151 C 0.80598 0.19006 0.76983 0.0
loop_
_geom_bond_atom_site_label_1
_geom_bond_atom_site_label_2
_geom_bond_distance
_geom_bond_site_symmetry_2
_ccdc_geom_bond_type
Mn0 O5 2.095 . S
Mn0 O15 2.162 . S
Mn0 O16 2.297 . S
Mn0 O24 2.385 . S
Mn0 O25 2.209 . S
Mn0 O26 2.094 1_455 S
Mn1 O6 2.121 . S
Mn1 N8 2.257 . S
Mn1 N17 2.282 . S
Mn1 O25 2.215 1_655 S
Mn1 O27 2.117 . S
C2 O24 1.234 . S
C2 O25 1.283 . S
C3 O15 1.281 . S
C3 O16 1.236 . S
C4 O26 1.240 . S
C4 O27 1.264 . S
O5 Mn0 2.095 . S
O5 C14 1.253 . S
O6 Mn1 2.121 . S
O6 C14 1.247 1_655 S
C7 N8 1.326 . S
C7 C11 1.460 . S
C7 H13 0.929 . S
N8 Mn1 2.257 . S
N8 C7 1.326 . S
N8 C12 1.362 . S
C9 C10 1.258 . S
C9 C12 1.431 . S
C9 C29 1.449 . S
C10 C9 1.258 . S
C10 C11 1.477 . S
C10 H30 0.931 . S
C11 C7 1.460 . S
C11 C10 1.477 . S
C11 H31 0.930 . S
C12 N8 1.362 . S
C12 C9 1.431 . S
C12 C22 1.476 . S
H13 C7 0.929 . S
C14 O5 1.253 . S
C14 O6 1.247 1_455 S
O15 Mn0 2.162 . S
O15 C3 1.281 . S
O16 Mn0 2.297 . S
O16 C3 1.236 . S
N17 Mn1 2.282 . S
N17 C18 1.328 . S
N17 C22 1.318 . S
C18 N17 1.328 . S
C18 C19 1.457 . S
C18 H23 0.929 . S
C19 C18 1.457 . S
C19 C20 1.291 . S
C19 H32 0.931 . S
C20 C19 1.291 . S
C20 C21 1.373 . S
C20 H33 0.929 . S
C21 C20 1.373 . S
C21 C22 1.396 . S
C21 C28 1.403 . S
C22 C12 1.476 . S
C22 N17 1.318 . S
C22 C21 1.396 . S
H23 C18 0.929 . S
O24 Mn0 2.385 . S
O24 C2 1.234 . S
O25 Mn0 2.209 . S
O25 Mn1 2.215 1_455 S
O25 C2 1.283 . S
O26 Mn0 2.094 1_655 S
O26 C4 1.240 . S
O27 Mn1 2.117 . S
O27 C4 1.264 . S
C28 C21 1.403 . S
C28 C29 1.399 . S
C28 H34 0.929 . S
C29 C9 1.449 . S
C29 C28 1.399 . S
C29 H35 0.930 . S
H30 C10 0.931 . S
H31 C11 0.930 . S
H32 C19 0.931 . S
H33 C20 0.929 . S
H34 C28 0.929 . S
H35 C29 0.930 . S
Mn36 O41 2.095 . S
Mn36 O51 2.162 . S
Mn36 O52 2.297 . S
Mn36 O60 2.385 . S
Mn36 O61 2.209 . S
Mn36 O62 2.094 1_455 S
Mn37 O42 2.121 . S
Mn37 N44 2.257 . S
Mn37 N53 2.282 . S
Mn37 O61 2.215 1_655 S
Mn37 O63 2.117 . S
C38 O60 1.234 . S
C38 O61 1.283 . S
C39 O51 1.281 . S
C39 O52 1.236 . S
C40 O62 1.240 . S
C40 O63 1.264 . S
O41 Mn36 2.095 . S
O41 C50 1.250 1_455 S
O42 Mn37 2.121 . S
O42 C50 1.256 . S
C43 N44 1.326 . S
C43 C47 1.460 . S
C43 H49 0.929 . S
N44 Mn37 2.257 . S
N44 C43 1.326 . S
N44 C48 1.362 . S
C45 C46 1.258 . S
C45 C48 1.431 . S
C45 C65 1.449 . S
C46 C45 1.258 . S
C46 C47 1.477 . S
C46 H66 0.931 . S
C47 C43 1.460 . S
C47 C46 1.477 . S
C47 H67 0.930 . S
C48 N44 1.362 . S
C48 C45 1.431 . S
C48 C58 1.476 . S
H49 C43 0.929 . S
C50 O41 1.250 1_655 S
C50 O42 1.256 . S
O51 Mn36 2.162 . S
O51 C39 1.281 . S
O52 Mn36 2.297 . S
O52 C39 1.236 . S
N53 Mn37 2.282 . S
N53 C54 1.328 . S
N53 C58 1.318 . S
C54 N53 1.328 . S
C54 C55 1.457 . S
C54 H59 0.929 . S
C55 C54 1.457 . S
C55 C56 1.291 . S
C55 H68 0.931 . S
C56 C55 1.291 . S
C56 C57 1.373 . S
C56 H69 0.929 . S
C57 C56 1.373 . S
C57 C58 1.396 . S
C57 C64 1.403 . S
C58 C48 1.476 . S
C58 N53 1.318 . S
C58 C57 1.396 . S
H59 C54 0.929 . S
O60 Mn36 2.385 . S
O60 C38 1.234 . S
O61 Mn36 2.209 . S
O61 Mn37 2.215 1_455 S
O61 C38 1.283 . S
O62 Mn36 2.094 1_655 S
O62 C40 1.240 . S
O63 Mn37 2.117 . S
O63 C40 1.264 . S
C64 C57 1.403 . S
C64 C65 1.399 . S
C64 H70 0.929 . S
C65 C45 1.449 . S
C65 C64 1.399 . S
C65 H71 0.930 . S
H66 C46 0.931 . S
H67 C47 0.930 . S
H68 C55 0.931 . S
H69 C56 0.929 . S
H70 C64 0.929 . S
H71 C65 0.930 . S
Mn72 O77 2.095 . S
Mn72 O87 2.162 . S
Mn72 O88 2.297 . S
Mn72 O96 2.385 . S
Mn72 O97 2.209 . S
Mn72 O98 2.094 . S
Mn73 O78 2.121 . S
Mn73 N80 2.257 . S
Mn73 N89 2.282 . S
Mn73 O97 2.215 . S
Mn73 O99 2.117 . S
C74 O96 1.234 . S
C74 O97 1.283 . S
C75 O87 1.281 . S
C75 O88 1.236 . S
C76 O98 1.240 . S
C76 O99 1.264 . S
O77 Mn72 2.095 . S
O77 C86 1.250 . S
O78 Mn73 2.121 . S
O78 C86 1.258 . S
C79 N80 1.326 . S
C79 C83 1.460 . S
C79 H85 0.929 . S
N80 Mn73 2.257 . S
N80 C79 1.326 . S
N80 C84 1.362 . S
C81 C82 1.258 . S
C81 C84 1.431 . S
C81 C101 1.449 . S
C82 C81 1.258 . S
C82 C83 1.477 . S
C82 H102 0.931 . S
C83 C79 1.460 . S
C83 C82 1.477 . S
C83 H103 0.930 . S
C84 N80 1.362 . S
C84 C81 1.431 . S
C84 C94 1.476 . S
H85 C79 0.929 . S
C86 O77 1.250 . S
C86 O78 1.258 . S
O87 Mn72 2.162 . S
O87 C75 1.281 . S
O88 Mn72 2.297 . S
O88 C75 1.236 . S
N89 Mn73 2.282 . S
N89 C90 1.328 . S
N89 C94 1.318 . S
C90 N89 1.328 . S
C90 C91 1.457 . S
C90 H95 0.929 . S
C91 C90 1.457 . S
C91 C92 1.291 . S
C91 H104 0.931 . S
C92 C91 1.291 . S
C92 C93 1.373 . S
C92 H105 0.929 . S
C93 C92 1.373 . S
C93 C94 1.396 . S
C93 C100 1.403 . S
C94 C84 1.476 . S
C94 N89 1.318 . S
C94 C93 1.396 . S
H95 C90 0.929 . S
O96 Mn72 2.385 . S
O96 C74 1.234 . S
O97 Mn72 2.209 . S
O97 Mn73 2.215 . S
O97 C74 1.283 . S
O98 Mn72 2.094 . S
O98 C76 1.240 . S
O99 Mn73 2.117 . S
O99 C76 1.264 . S
C100 C93 1.403 . S
C100 C101 1.399 . S
C100 H106 0.929 . S
C101 C81 1.449 . S
C101 C100 1.399 . S
C101 H107 0.930 . S
H102 C82 0.931 . S
H103 C83 0.930 . S
H104 C91 0.931 . S
H105 C92 0.929 . S
H106 C100 0.929 . S
H107 C101 0.930 . S
Mn108 O113 2.095 . S
Mn108 O123 2.162 . S
Mn108 O124 2.297 . S
Mn108 O132 2.385 . S
Mn108 O133 2.209 . S
Mn108 O134 2.094 . S
Mn109 O114 2.121 . S
Mn109 N116 2.257 . S
Mn109 N125 2.282 . S
Mn109 O133 2.215 . S
Mn109 O135 2.117 . S
C110 O132 1.234 . S
C110 O133 1.283 . S
C111 O123 1.281 . S
C111 O124 1.236 . S
C112 O134 1.240 . S
C112 O135 1.264 . S
O113 Mn108 2.095 . S
O113 C122 1.250 . S
O114 Mn109 2.121 . S
O114 C122 1.258 . S
C115 N116 1.326 . S
C115 C119 1.460 1_556 S
C115 H121 0.929 . S
N116 Mn109 2.257 . S
N116 C115 1.326 . S
N116 C120 1.362 . S
C117 C118 1.258 1_556 S
C117 C120 1.431 . S
C117 C137 1.440 1_556 S
C118 C117 1.258 1_554 S
C118 C119 1.477 . S
C118 H138 0.931 . S
C119 C115 1.460 1_554 S
C119 C118 1.477 . S
C119 H139 0.930 . S
C120 N116 1.362 . S
C120 C117 1.431 . S
C120 C130 1.476 . S
H121 C115 0.929 . S
C122 O113 1.250 . S
C122 O114 1.258 . S
O123 Mn108 2.162 . S
O123 C111 1.281 . S
O124 Mn108 2.297 . S
O124 C111 1.236 . S
N125 Mn109 2.282 . S
N125 C126 1.328 . S
N125 C130 1.318 . S
C126 N125 1.328 . S
C126 C127 1.457 . S
C126 H131 0.929 . S
C127 C126 1.457 . S
C127 C128 1.291 . S
C127 H140 0.931 . S
C128 C127 1.291 . S
C128 C129 1.373 . S
C128 H141 0.929 . S
C129 C128 1.373 . S
C129 C130 1.396 . S
C129 C136 1.403 . S
C130 C120 1.476 . S
C130 N125 1.318 . S
C130 C129 1.396 . S
H131 C126 0.929 . S
O132 Mn108 2.385 . S
O132 C110 1.234 . S
O133 Mn108 2.209 . S
O133 Mn109 2.215 . S
O133 C110 1.283 . S
O134 Mn108 2.094 . S
O134 C112 1.240 . S
O135 Mn109 2.117 . S
O135 C112 1.264 . S
C136 C129 1.403 . S
C136 C137 1.366 1_556 S
C136 H142 0.929 . S
C137 C117 1.440 1_554 S
C137 C136 1.366 1_554 S
C137 H143 0.974 . S
H138 C118 0.931 . S
H139 C119 0.930 . S
H140 C127 0.931 . S
H141 C128 0.929 . S
H142 C136 0.929 . S
H143 C137 0.974 . S
Mn144 O149 2.095 1_545 S
Mn144 O159 2.162 . S
Mn144 O160 2.297 . S
Mn144 O168 2.385 . S
Mn144 O169 2.209 . S
Mn144 O170 2.094 . S
Mn145 O150 2.121 1_545 S
Mn145 N152 2.257 . S
Mn145 N161 2.282 . S
Mn145 O169 2.215 . S
Mn145 O171 2.117 . S
C146 O168 1.234 . S
C146 O169 1.283 . S
C147 O159 1.281 . S
C147 O160 1.236 . S
C148 O170 1.240 . S
C148 O171 1.264 . S
O149 Mn144 2.095 1_565 S
O149 C158 1.250 . S
O150 Mn145 2.121 1_565 S
O150 C158 1.258 . S
C151 N152 1.326 . S
C151 C155 1.460 . S
C151 H157 0.929 . S
N152 Mn145 2.257 . S
N152 C151 1.326 . S
N152 C156 1.362 . S
C153 C154 1.258 . S
C153 C156 1.431 . S
C153 C173 1.449 . S
C154 C153 1.258 . S
C154 C155 1.477 . S
C154 H174 0.931 . S
C155 C151 1.460 . S
C155 C154 1.477 . S
C155 H175 0.930 . S
C156 N152 1.362 . S
C156 C153 1.431 . S
C156 C166 1.476 . S
H157 C151 0.929 . S
C158 O149 1.250 . S
C158 O150 1.258 . S
O159 Mn144 2.162 . S
O159 C147 1.281 . S
O160 Mn144 2.297 . S
O160 C147 1.236 . S
N161 Mn145 2.282 . S
N161 C162 1.328 . S
N161 C166 1.318 . S
C162 N161 1.328 . S
C162 C163 1.457 . S
C162 H167 0.929 . S
C163 C162 1.457 . S
C163 C164 1.291 . S
C163 H176 0.931 . S
C164 C163 1.291 . S
C164 C165 1.373 . S
C164 H177 0.929 . S
C165 C164 1.373 . S
C165 C166 1.396 . S
C165 C172 1.403 . S
C166 C156 1.476 . S
C166 N161 1.318 . S
C166 C165 1.396 . S
H167 C162 0.929 . S
O168 Mn144 2.385 . S
O168 C146 1.234 . S
O169 Mn144 2.209 . S
O169 Mn145 2.215 . S
O169 C146 1.283 . S
O170 Mn144 2.094 . S
O170 C148 1.240 . S
O171 Mn145 2.117 . S
O171 C148 1.264 . S
C172 C165 1.403 . S
C172 C173 1.399 . S
C172 H178 0.929 . S
C173 C153 1.449 . S
C173 C172 1.399 . S
C173 H179 0.930 . S
H174 C154 0.931 . S
H175 C155 0.930 . S
H176 C163 0.931 . S
H177 C164 0.929 . S
H178 C172 0.929 . S
H179 C173 0.930 . S
Mn180 O185 2.095 . S
Mn180 O195 2.162 . S
Mn180 O196 2.297 . S
Mn180 O204 2.385 . S
Mn180 O205 2.209 . S
Mn180 O206 2.094 . S
Mn181 O186 2.121 . S
Mn181 N188 2.257 . S
Mn181 N197 2.282 . S
Mn181 O205 2.215 . S
Mn181 O207 2.117 . S
C182 O204 1.234 . S
C182 O205 1.283 . S
C183 O195 1.281 . S
C183 O196 1.236 . S
C184 O206 1.240 . S
C184 O207 1.264 . S
O185 Mn180 2.095 . S
O185 C194 1.250 . S
O186 Mn181 2.121 . S
O186 C194 1.258 . S
C187 N188 1.326 . S
C187 C191 1.460 1_565 S
C187 H193 0.929 . S
N188 Mn181 2.257 . S
N188 C187 1.326 . S
N188 C192 1.362 . S
C189 C190 1.258 . S
C189 C192 1.431 1_545 S
C189 C209 1.449 . S
C190 C189 1.258 . S
C190 C191 1.477 . S
C190 H210 0.931 . S
C191 C187 1.460 1_545 S
C191 C190 1.477 . S
C191 H211 0.930 . S
C192 N188 1.362 . S
C192 C189 1.431 1_565 S
C192 C202 1.476 . S
H193 C187 0.929 . S
C194 O185 1.250 . S
C194 O186 1.258 . S
O195 Mn180 2.162 . S
O195 C183 1.281 . S
O196 Mn180 2.297 . S
O196 C183 1.236 . S
N197 Mn181 2.282 . S
N197 C198 1.328 . S
N197 C202 1.318 . S
C198 N197 1.328 . S
C198 C199 1.457 . S
C198 H203 0.929 . S
C199 C198 1.457 . S
C199 C200 1.291 . S
C199 H212 0.931 . S
C200 C199 1.291 . S
C200 C201 1.373 . S
C200 H213 0.929 . S
C201 C200 1.373 . S
C201 C202 1.396 . S
C201 C208 1.403 . S
C202 C192 1.476 . S
C202 N197 1.318 . S
C202 C201 1.396 . S
H203 C198 0.929 . S
O204 Mn180 2.385 . S
O204 C182 1.234 . S
O205 Mn180 2.209 . S
O205 Mn181 2.215 . S
O205 C182 1.283 . S
O206 Mn180 2.094 . S
O206 C184 1.240 . S
O207 Mn181 2.117 . S
O207 C184 1.264 . S
C208 C201 1.403 . S
C208 C209 1.399 1_565 S
C208 H214 0.929 . S
C209 C189 1.449 . S
C209 C208 1.399 1_545 S
C209 H215 0.930 . S
H210 C190 0.931 . S
H211 C191 0.930 . S
H212 C199 0.931 . S
H213 C200 0.929 . S
H214 C208 0.929 . S
H215 C209 0.930 . S
Mn216 O221 2.097 1_565 S
Mn216 O231 2.162 1_565 S
Mn216 O232 2.297 . S
Mn216 O240 2.383 . S
Mn216 O241 2.208 . S
Mn216 O242 2.094 1_565 S
Mn217 O222 2.121 1_565 S
Mn217 N224 2.257 . S
Mn217 N233 2.282 . S
Mn217 O241 2.215 . S
Mn217 O243 2.117 . S
C218 O240 1.234 . S
C218 O241 1.283 . S
C219 O231 1.284 . S
C219 O232 1.235 1_545 S
C220 O242 1.240 . S
C220 O243 1.263 1_545 S
O221 Mn216 2.097 1_545 S
O221 C230 1.250 . S
O222 Mn217 2.121 1_545 S
O222 C230 1.258 . S
C223 N224 1.326 1_545 S
C223 C227 1.460 1_545 S
C223 H229 0.929 . S
N224 Mn217 2.257 . S
N224 C223 1.326 1_565 S
N224 C228 1.362 . S
C225 C226 1.258 . S
C225 C228 1.431 . S
C225 C245 1.449 . S
C226 C225 1.258 . S
C226 C227 1.477 . S
C226 H246 0.931 . S
C227 C223 1.460 1_565 S
C227 C226 1.477 . S
C227 H247 0.930 1_565 S
C228 N224 1.362 . S
C228 C225 1.431 . S
C228 C238 1.476 . S
H229 C223 0.929 . S
C230 O221 1.250 . S
C230 O222 1.258 . S
O231 Mn216 2.162 1_545 S
O231 C219 1.284 . S
O232 Mn216 2.297 . S
O232 C219 1.235 1_565 S
N233 Mn217 2.282 . S
N233 C234 1.328 . S
N233 C238 1.318 . S
C234 N233 1.328 . S
C234 C235 1.457 . S
C234 H239 0.929 . S
C235 C234 1.457 . S
C235 C236 1.291 . S
C235 H248 0.931 . S
C236 C235 1.291 . S
C236 C237 1.373 . S
C236 H249 0.929 . S
C237 C236 1.373 . S
C237 C238 1.396 . S
C237 C244 1.403 . S
C238 C228 1.476 . S
C238 N233 1.318 . S
C238 C237 1.396 . S
H239 C234 0.929 . S
O240 Mn216 2.383 . S
O240 C218 1.234 . S
O241 Mn216 2.208 . S
O241 Mn217 2.215 . S
O241 C218 1.283 . S
O242 Mn216 2.094 1_545 S
O242 C220 1.240 . S
O243 Mn217 2.117 . S
O243 C220 1.263 1_565 S
C244 C237 1.403 . S
C244 C245 1.399 . S
C244 H250 0.929 . S
C245 C225 1.449 . S
C245 C244 1.399 . S
C245 H251 0.930 . S
H246 C226 0.931 . S
H247 C227 0.930 1_545 S
H248 C235 0.931 . S
H249 C236 0.929 . S
H250 C244 0.929 . S
H251 C245 0.930 . S
Mn252 O257 2.095 . S
Mn252 O267 2.162 . S
Mn252 O268 2.297 . S
Mn252 O276 2.385 . S
Mn252 O277 2.209 . S
Mn252 O278 2.094 1_554 S
Mn253 O258 2.121 . S
Mn253 N260 2.257 . S
Mn253 N269 2.282 . S
Mn253 O277 2.215 1_556 S
Mn253 O279 2.117 . S
C254 O276 1.234 . S
C254 O277 1.283 . S
C255 O267 1.281 . S
C255 O268 1.236 . S
C256 O278 1.240 . S
C256 O279 1.264 . S
O257 Mn252 2.095 . S
O257 C266 1.250 . S
O258 Mn253 2.121 . S
O258 C266 1.258 1_556 S
C259 N260 1.326 . S
C259 C263 1.460 . S
C259 H265 0.929 . S
N260 Mn253 2.257 . S
N260 C259 1.326 . S
N260 C264 1.362 . S
C261 C262 1.258 1_545 S
C261 C264 1.431 . S
C261 C281 1.449 . S
C262 C261 1.258 1_565 S
C262 C263 1.477 1_565 S
C262 H282 0.931 . S
C263 C259 1.460 . S
C263 C262 1.477 1_545 S
C263 H283 0.930 1_545 S
C264 N260 1.362 . S
C264 C261 1.431 . S
C264 C274 1.476 . S
H265 C259 0.929 . S
C266 O257 1.250 . S
C266 O258 1.258 1_554 S
O267 Mn252 2.162 . S
O267 C255 1.281 . S
O268 Mn252 2.297 . S
O268 C255 1.236 . S
N269 Mn253 2.282 . S
N269 C270 1.328 . S
N269 C274 1.318 . S
C270 N269 1.328 . S
C270 C271 1.457 . S
C270 H275 0.929 . S
C271 C270 1.457 . S
C271 C272 1.291 . S
C271 H284 0.931 . S
C272 C271 1.291 . S
C272 C273 1.373 . S
C272 H285 0.929 . S
C273 C272 1.373 . S
C273 C274 1.396 . S
C273 C280 1.403 . S
C274 C264 1.476 . S
C274 N269 1.318 . S
C274 C273 1.396 . S
H275 C270 0.929 . S
O276 Mn252 2.385 . S
O276 C254 1.234 . S
O277 Mn252 2.209 . S
O277 Mn253 2.215 1_554 S
O277 C254 1.283 . S
O278 Mn252 2.094 1_556 S
O278 C256 1.240 . S
O279 Mn253 2.117 . S
O279 C256 1.264 . S
C280 C273 1.403 . S
C280 C281 1.399 . S
C280 H286 0.929 . S
C281 C261 1.449 . S
C281 C280 1.399 . S
C281 H287 0.930 1_545 S
H282 C262 0.931 . S
H283 C263 0.930 1_565 S
H284 C271 0.931 . S
H285 C272 0.929 . S
H286 C280 0.929 . S
H287 C281 0.930 1_565 S
Mn288 O293 2.095 . S
Mn288 O303 2.162 . S
Mn288 O304 2.297 . S
Mn288 O312 2.385 . S
Mn288 O313 2.209 . S
Mn288 O314 2.094 1_554 S
Mn289 O294 2.121 . S
Mn289 N296 2.257 . S
Mn289 N305 2.282 . S
Mn289 O313 2.215 1_556 S
Mn289 O315 2.117 . S
C290 O312 1.234 . S
C290 O313 1.283 . S
C291 O303 1.281 . S
C291 O304 1.236 . S
C292 O314 1.240 . S
C292 O315 1.264 . S
O293 Mn288 2.095 . S
O293 C302 1.250 . S
O294 Mn289 2.121 . S
O294 C302 1.258 1_556 S
C295 N296 1.326 . S
C295 C299 1.460 . S
C295 H301 0.929 . S
N296 Mn289 2.257 . S
N296 C295 1.326 . S
N296 C300 1.362 . S
C297 C298 1.258 . S
C297 C300 1.431 . S
C297 C317 1.449 . S
C298 C297 1.258 . S
C298 C299 1.477 . S
C298 H318 0.931 . S
C299 C295 1.460 . S
C299 C298 1.477 . S
C299 H319 0.930 . S
C300 N296 1.362 . S
C300 C297 1.431 . S
C300 C310 1.476 . S
H301 C295 0.929 . S
C302 O293 1.250 . S
C302 O294 1.258 1_554 S
O303 Mn288 2.162 . S
O303 C291 1.281 . S
O304 Mn288 2.297 . S
O304 C291 1.236 . S
N305 Mn289 2.282 . S
N305 C306 1.328 . S
N305 C310 1.318 . S
C306 N305 1.328 . S
C306 C307 1.457 . S
C306 H311 0.929 . S
C307 C306 1.457 . S
C307 C308 1.291 . S
C307 H320 0.931 . S
C308 C307 1.291 . S
C308 C309 1.373 . S
C308 H321 0.929 . S
C309 C308 1.373 . S
C309 C310 1.396 . S
C309 C316 1.403 . S
C310 C300 1.476 . S
C310 N305 1.318 . S
C310 C309 1.396 . S
H311 C306 0.929 . S
O312 Mn288 2.385 . S
O312 C290 1.234 . S
O313 Mn288 2.209 . S
O313 Mn289 2.215 1_554 S
O313 C290 1.283 . S
O314 Mn288 2.094 1_556 S
O314 C292 1.240 . S
O315 Mn289 2.117 . S
O315 C292 1.264 . S
C316 C309 1.403 . S
C316 C317 1.399 . S
C316 H322 0.929 . S
C317 C297 1.449 . S
C317 C316 1.399 . S
C317 H323 0.930 . S
H318 C298 0.931 . S
H319 C299 0.930 . S
H320 C307 0.931 . S
H321 C308 0.929 . S
H322 C316 0.929 . S
H323 C317 0.930 . S
Mn324 O329 2.095 . S
Mn324 O339 2.162 . S
Mn324 O340 2.297 . S
Mn324 O348 2.385 . S
Mn324 O349 2.209 . S
Mn324 O350 2.094 . S
Mn325 O330 2.121 . S
Mn325 N332 2.257 . S
Mn325 N341 2.282 . S
Mn325 O349 2.215 . S
Mn325 O351 2.117 . S
C326 O348 1.234 . S
C326 O349 1.283 . S
C327 O339 1.281 . S
C327 O340 1.236 . S
C328 O350 1.240 . S
C328 O351 1.264 . S
O329 Mn324 2.095 . S
O329 C338 1.250 . S
O330 Mn325 2.121 . S
O330 C338 1.258 . S
C331 N332 1.326 . S
C331 C335 1.460 . S
C331 H337 0.929 . S
N332 Mn325 2.257 . S
N332 C331 1.326 . S
N332 C336 1.362 . S
C333 C334 1.258 . S
C333 C336 1.431 . S
C333 C353 1.449 . S
C334 C333 1.258 . S
C334 C335 1.477 . S
C334 H354 0.931 . S
C335 C331 1.460 . S
C335 C334 1.477 . S
C335 H355 0.930 . S
C336 N332 1.362 . S
C336 C333 1.431 . S
C336 C346 1.476 . S
H337 C331 0.929 . S
C338 O329 1.250 . S
C338 O330 1.258 . S
O339 Mn324 2.162 . S
O339 C327 1.281 . S
O340 Mn324 2.297 . S
O340 C327 1.236 . S
N341 Mn325 2.282 . S
N341 C342 1.328 . S
N341 C346 1.318 . S
C342 N341 1.328 . S
C342 C343 1.457 . S
C342 H347 0.929 . S
C343 C342 1.457 . S
C343 C344 1.291 . S
C343 H356 0.931 . S
C344 C343 1.291 . S
C344 C345 1.373 . S
C344 H357 0.929 . S
C345 C344 1.373 . S
C345 C346 1.396 . S
C345 C352 1.403 . S
C346 C336 1.476 . S
C346 N341 1.318 . S
C346 C345 1.396 . S
H347 C342 0.929 . S
O348 Mn324 2.385 . S
O348 C326 1.234 . S
O349 Mn324 2.209 . S
O349 Mn325 2.215 . S
O349 C326 1.283 . S
O350 Mn324 2.094 . S
O350 C328 1.240 . S
O351 Mn325 2.117 . S
O351 C328 1.264 . S
C352 C345 1.403 . S
C352 C353 1.399 . S
C352 H358 0.929 . S
C353 C333 1.449 . S
C353 C352 1.399 . S
C353 H359 0.930 . S
H354 C334 0.931 . S
H355 C335 0.930 . S
H356 C343 0.931 . S
H357 C344 0.929 . S
H358 C352 0.929 . S
H359 C353 0.930 . S
Mn360 O365 2.095 . S
Mn360 O375 2.162 . S
Mn360 O376 2.297 . S
Mn360 O384 2.385 . S
Mn360 O385 2.209 . S
Mn360 O386 2.094 . S
Mn361 O366 2.121 . S
Mn361 N368 2.257 . S
Mn361 N377 2.282 . S
Mn361 O385 2.215 . S
Mn361 O387 2.117 . S
C362 O384 1.234 . S
C362 O385 1.283 . S
C363 O375 1.281 . S
C363 O376 1.236 . S
C364 O386 1.240 . S
C364 O387 1.264 . S
O365 Mn360 2.095 . S
O365 C374 1.250 . S
O366 Mn361 2.121 . S
O366 C374 1.258 . S
C367 N368 1.326 . S
C367 C371 1.460 . S
C367 H373 0.929 . S
N368 Mn361 2.257 . S
N368 C367 1.326 . S
N368 C372 1.362 . S
C369 C370 1.258 . S
C369 C372 1.431 . S
C369 C389 1.449 . S
C370 C369 1.258 . S
C370 C371 1.477 . S
C370 H390 0.931 . S
C371 C367 1.460 . S
C371 C370 1.477 . S
C371 H391 0.930 . S
C372 N368 1.362 . S
C372 C369 1.431 . S
C372 C382 1.476 . S
H373 C367 0.929 . S
C374 O365 1.250 . S
C374 O366 1.258 . S
O375 Mn360 2.162 . S
O375 C363 1.281 . S
O376 Mn360 2.297 . S
O376 C363 1.236 . S
N377 Mn361 2.282 . S
N377 C378 1.328 . S
N377 C382 1.318 . S
C378 N377 1.328 . S
C378 C379 1.457 . S
C378 H383 0.929 . S
C379 C378 1.457 . S
C379 C380 1.291 . S
C379 H392 0.931 . S
C380 C379 1.291 . S
C380 C381 1.373 . S
C380 H393 0.929 . S
C381 C380 1.373 . S
C381 C382 1.396 . S
C381 C388 1.403 . S
C382 C372 1.476 . S
C382 N377 1.318 . S
C382 C381 1.396 . S
H383 C378 0.929 . S
O384 Mn360 2.385 . S
O384 C362 1.234 . S
O385 Mn360 2.209 . S
O385 Mn361 2.215 . S
O385 C362 1.283 . S
O386 Mn360 2.094 . S
O386 C364 1.240 . S
O387 Mn361 2.117 . S
O387 C364 1.264 . S
C388 C381 1.403 . S
C388 C389 1.399 . S
C388 H394 0.929 . S
C389 C369 1.449 . S
C389 C388 1.399 . S
C389 H395 0.930 . S
H390 C370 0.931 . S
H391 C371 0.930 . S
H392 C379 0.931 . S
H393 C380 0.929 . S
H394 C388 0.929 . S
H395 C389 0.930 . S
Mn396 O401 2.095 . S
Mn396 O411 2.162 . S
Mn396 O412 2.297 . S
Mn396 O420 2.385 . S
Mn396 O421 2.209 . S
Mn396 O422 2.094 . S
Mn397 O402 2.121 . S
Mn397 N404 2.257 . S
Mn397 N413 2.282 . S
Mn397 O421 2.215 . S
Mn397 O423 2.117 . S
C398 O420 1.234 . S
C398 O421 1.283 . S
C399 O411 1.281 . S
C399 O412 1.236 . S
C400 O422 1.240 . S
C400 O423 1.264 . S
O401 Mn396 2.095 . S
O401 C410 1.250 . S
O402 Mn397 2.121 . S
O402 C410 1.258 . S
C403 N404 1.326 . S
C403 C407 1.460 . S
C403 H409 0.929 . S
N404 Mn397 2.257 . S
N404 C403 1.326 . S
N404 C408 1.362 . S
C405 C406 1.258 . S
C405 C408 1.431 . S
C405 C425 1.449 . S
C406 C405 1.258 . S
C406 C407 1.477 . S
C406 H426 0.931 . S
C407 C403 1.460 . S
C407 C406 1.477 . S
C407 H427 0.930 . S
C408 N404 1.362 . S
C408 C405 1.431 . S
C408 C418 1.476 . S
H409 C403 0.929 . S
C410 O401 1.250 . S
C410 O402 1.258 . S
O411 Mn396 2.162 . S
O411 C399 1.281 . S
O412 Mn396 2.297 . S
O412 C399 1.236 . S
N413 Mn397 2.282 . S
N413 C414 1.328 . S
N413 C418 1.318 . S
C414 N413 1.328 . S
C414 C415 1.457 . S
C414 H419 0.929 . S
C415 C414 1.457 . S
C415 C416 1.291 . S
C415 H428 0.931 . S
C416 C415 1.291 . S
C416 C417 1.373 . S
C416 H429 0.929 . S
C417 C416 1.373 . S
C417 C418 1.396 . S
C417 C424 1.403 . S
C418 C408 1.476 . S
C418 N413 1.318 . S
C418 C417 1.396 . S
H419 C414 0.929 . S
O420 Mn396 2.385 . S
O420 C398 1.234 . S
O421 Mn396 2.209 . S
O421 Mn397 2.215 . S
O421 C398 1.283 . S
O422 Mn396 2.094 . S
O422 C400 1.240 . S
O423 Mn397 2.117 . S
O423 C400 1.264 . S
C424 C417 1.403 . S
C424 C425 1.399 . S
C424 H430 0.929 . S
C425 C405 1.449 . S
C425 C424 1.399 . S
C425 H431 0.930 . S
H426 C406 0.931 . S
H427 C407 0.930 . S
H428 C415 0.931 . S
H429 C416 0.929 . S
H430 C424 0.929 . S
H431 C425 0.930 . S
Mn432 O437 2.095 . S
Mn432 O447 2.162 . S
Mn432 O448 2.297 . S
Mn432 O456 2.385 . S
Mn432 O457 2.209 . S
Mn432 O458 2.094 1_455 S
Mn433 O438 2.121 . S
Mn433 N440 2.257 . S
Mn433 N449 2.282 . S
Mn433 O457 2.215 1_655 S
Mn433 O459 2.117 . S
C434 O456 1.234 . S
C434 O457 1.283 . S
C435 O447 1.281 . S
C435 O448 1.236 . S
C436 O458 1.240 . S
C436 O459 1.264 . S
O437 Mn432 2.095 . S
O437 C446 1.245 1_455 S
O438 Mn433 2.121 . S
O438 C446 1.284 . S
C439 N440 1.326 . S
C439 C443 1.460 1_556 S
C439 H445 0.929 . S
N440 Mn433 2.257 . S
N440 C439 1.326 . S
N440 C444 1.362 . S
C441 C442 1.258 1_556 S
C441 C444 1.431 . S
C441 C461 1.449 1_556 S
C442 C441 1.258 1_554 S
C442 C443 1.477 . S
C442 H462 0.931 . S
C443 C439 1.460 1_554 S
C443 C442 1.477 . S
C443 H463 0.930 . S
C444 N440 1.362 . S
C444 C441 1.431 . S
C444 C454 1.476 . S
H445 C439 0.929 . S
C446 O437 1.245 1_655 S
C446 O438 1.284 . S
O447 Mn432 2.162 . S
O447 C435 1.281 . S
O448 Mn432 2.297 . S
O448 C435 1.236 . S
N449 Mn433 2.282 . S
N449 C450 1.328 . S
N449 C454 1.318 . S
C450 N449 1.328 . S
C450 C451 1.457 . S
C450 H455 0.929 . S
C451 C450 1.457 . S
C451 C452 1.291 . S
C451 H464 0.931 . S
C452 C451 1.291 . S
C452 C453 1.373 . S
C452 H465 0.929 . S
C453 C452 1.373 . S
C453 C454 1.396 . S
C453 C460 1.403 . S
C454 C444 1.476 . S
C454 N449 1.318 . S
C454 C453 1.396 . S
H455 C450 0.929 . S
O456 Mn432 2.385 . S
O456 C434 1.234 . S
O457 Mn432 2.209 . S
O457 Mn433 2.215 1_455 S
O457 C434 1.283 . S
O458 Mn432 2.094 1_655 S
O458 C436 1.240 . S
O459 Mn433 2.117 . S
O459 C436 1.264 . S
C460 C453 1.403 . S
C460 C461 1.399 1_556 S
C460 H466 0.929 . S
C461 C441 1.449 1_554 S
C461 C460 1.399 1_554 S
C461 H467 0.930 . S
H462 C442 0.931 . S
H463 C443 0.930 . S
H464 C451 0.931 . S
H465 C452 0.929 . S
H466 C460 0.929 . S
H467 C461 0.930 . S
Mn468 O473 2.095 . S
Mn468 O483 2.162 . S
Mn468 O484 2.297 . S
Mn468 O492 2.385 . S
Mn468 O493 2.209 . S
Mn468 O494 2.094 1_455 S
Mn469 O474 2.121 . S
Mn469 N476 2.257 . S
Mn469 N485 2.282 . S
Mn469 O493 2.215 1_655 S
Mn469 O495 2.117 . S
C470 O492 1.234 . S
C470 O493 1.283 . S
C471 O483 1.281 . S
C471 O484 1.236 . S
C472 O494 1.240 . S
C472 O495 1.264 . S
O473 Mn468 2.095 . S
O473 C482 1.251 . S
O474 Mn469 2.121 . S
O474 C482 1.253 1_655 S
C475 N476 1.326 . S
C475 C479 1.460 . S
C475 H481 0.929 . S
N476 Mn469 2.257 . S
N476 C475 1.326 . S
N476 C480 1.362 . S
C477 C478 1.258 . S
C477 C480 1.431 . S
C477 C497 1.449 . S
C478 C477 1.258 . S
C478 C479 1.477 . S
C478 H498 0.931 . S
C479 C475 1.460 . S
C479 C478 1.477 . S
C479 H499 0.930 . S
C480 N476 1.362 . S
C480 C477 1.431 . S
C480 C490 1.476 . S
H481 C475 0.929 . S
C482 O473 1.251 . S
C482 O474 1.253 1_455 S
O483 Mn468 2.162 . S
O483 C471 1.281 . S
O484 Mn468 2.297 . S
O484 C471 1.236 . S
N485 Mn469 2.282 . S
N485 C486 1.328 . S
N485 C490 1.318 . S
C486 N485 1.328 . S
C486 C487 1.457 . S
C486 H491 0.929 . S
C487 C486 1.457 . S
C487 C488 1.291 . S
C487 H500 0.931 . S
C488 C487 1.291 . S
C488 C489 1.373 . S
C488 H501 0.929 . S
C489 C488 1.373 . S
C489 C490 1.396 . S
C489 C496 1.403 . S
C490 C480 1.476 . S
C490 N485 1.318 . S
C490 C489 1.396 . S
H491 C486 0.929 . S
O492 Mn468 2.385 . S
O492 C470 1.234 . S
O493 Mn468 2.209 . S
O493 Mn469 2.215 1_455 S
O493 C470 1.283 . S
O494 Mn468 2.094 1_655 S
O494 C472 1.240 . S
O495 Mn469 2.117 . S
O495 C472 1.264 . S
C496 C489 1.403 . S
C496 C497 1.399 . S
C496 H502 0.929 . S
C497 C477 1.449 . S
C497 C496 1.399 . S
C497 H503 0.930 . S
H498 C478 0.931 . S
H499 C479 0.930 . S
H500 C487 0.931 . S
H501 C488 0.929 . S
H502 C496 0.929 . S
H503 C497 0.930 . S
Mn504 O509 2.095 . S
Mn504 O519 2.162 . S
Mn504 O520 2.297 . S
Mn504 O528 2.385 . S
Mn504 O529 2.209 . S
Mn504 O530 2.094 . S
Mn505 O510 2.121 . S
Mn505 N512 2.257 . S
Mn505 N521 2.282 . S
Mn505 O529 2.215 . S
Mn505 O531 2.117 . S
C506 O528 1.234 . S
C506 O529 1.283 . S
C507 O519 1.281 . S
C507 O520 1.236 . S
C508 O530 1.240 . S
C508 O531 1.264 . S
O509 Mn504 2.095 . S
O509 C518 1.250 . S
O510 Mn505 2.121 . S
O510 C518 1.258 . S
C511 N512 1.326 . S
C511 C515 1.460 . S
C511 H517 0.929 . S
N512 Mn505 2.257 . S
N512 C511 1.326 . S
N512 C516 1.362 . S
C513 C514 1.258 . S
C513 C516 1.431 . S
C513 C533 1.449 . S
C514 C513 1.258 . S
C514 C515 1.477 . S
C514 H534 0.931 . S
C515 C511 1.460 . S
C515 C514 1.477 . S
C515 H535 0.930 . S
C516 N512 1.362 . S
C516 C513 1.431 . S
C516 C526 1.476 . S
H517 C511 0.929 . S
C518 O509 1.250 . S
C518 O510 1.258 . S
O519 Mn504 2.162 . S
O519 C507 1.281 . S
O520 Mn504 2.297 . S
O520 C507 1.236 . S
N521 Mn505 2.282 . S
N521 C522 1.328 . S
N521 C526 1.318 . S
C522 N521 1.328 . S
C522 C523 1.457 . S
C522 H527 0.929 . S
C523 C522 1.457 . S
C523 C524 1.291 . S
C523 H536 0.931 . S
C524 C523 1.291 . S
C524 C525 1.373 . S
C524 H537 0.929 . S
C525 C524 1.373 . S
C525 C526 1.396 . S
C525 C532 1.403 . S
C526 C516 1.476 . S
C526 N521 1.318 . S
C526 C525 1.396 . S
H527 C522 0.929 . S
O528 Mn504 2.385 . S
O528 C506 1.234 . S
O529 Mn504 2.209 . S
O529 Mn505 2.215 . S
O529 C506 1.283 . S
O530 Mn504 2.094 . S
O530 C508 1.240 . S
O531 Mn505 2.117 . S
O531 C508 1.264 . S
C532 C525 1.403 . S
C532 C533 1.399 . S
C532 H538 0.929 . S
C533 C513 1.449 . S
C533 C532 1.399 . S
C533 H539 0.930 . S
H534 C514 0.931 . S
H535 C515 0.930 . S
H536 C523 0.931 . S
H537 C524 0.929 . S
H538 C532 0.929 . S
H539 C533 0.930 . S
Mn540 O545 2.095 . S
Mn540 O555 2.162 . S
Mn540 O556 2.297 . S
Mn540 O564 2.385 . S
Mn540 O565 2.209 . S
Mn540 O566 2.094 . S
Mn541 O546 2.121 . S
Mn541 N548 2.257 . S
Mn541 N557 2.282 . S
Mn541 O565 2.215 . S
Mn541 O567 2.117 . S
C542 O564 1.234 . S
C542 O565 1.283 . S
C543 O555 1.281 . S
C543 O556 1.236 . S
C544 O566 1.240 . S
C544 O567 1.264 . S
O545 Mn540 2.095 . S
O545 C554 1.250 . S
O546 Mn541 2.121 . S
O546 C554 1.258 . S
C547 N548 1.326 . S
C547 C551 1.460 . S
C547 H553 0.929 . S
N548 Mn541 2.257 . S
N548 C547 1.326 . S
N548 C552 1.362 . S
C549 C550 1.258 . S
C549 C552 1.431 . S
C549 C569 1.449 . S
C550 C549 1.258 . S
C550 C551 1.477 . S
C550 H570 0.931 1_554 S
C551 C547 1.460 . S
C551 C550 1.477 . S
C551 H571 0.930 . S
C552 N548 1.362 . S
C552 C549 1.431 . S
C552 C562 1.476 . S
H553 C547 0.929 . S
C554 O545 1.250 . S
C554 O546 1.258 . S
O555 Mn540 2.162 . S
O555 C543 1.281 . S
O556 Mn540 2.297 . S
O556 C543 1.236 . S
N557 Mn541 2.282 . S
N557 C558 1.328 . S
N557 C562 1.318 . S
C558 N557 1.328 . S
C558 C559 1.457 . S
C558 H563 0.929 . S
C559 C558 1.457 . S
C559 C560 1.291 . S
C559 H572 0.931 . S
C560 C559 1.291 . S
C560 C561 1.373 . S
C560 H573 0.929 . S
C561 C560 1.373 . S
C561 C562 1.396 . S
C561 C568 1.403 . S
C562 C552 1.476 . S
C562 N557 1.318 . S
C562 C561 1.396 . S
H563 C558 0.929 . S
O564 Mn540 2.385 . S
O564 C542 1.234 . S
O565 Mn540 2.209 . S
O565 Mn541 2.215 . S
O565 C542 1.283 . S
O566 Mn540 2.094 . S
O566 C544 1.240 . S
O567 Mn541 2.117 . S
O567 C544 1.264 . S
C568 C561 1.403 . S
C568 C569 1.399 . S
C568 H574 0.929 . S
C569 C549 1.449 . S
C569 C568 1.399 . S
C569 H575 0.930 . S
H570 C550 0.931 1_556 S
H571 C551 0.930 . S
H572 C559 0.931 . S
H573 C560 0.929 . S
H574 C568 0.929 . S
H575 C569 0.930 . S
Mn576 O581 2.095 . S
Mn576 O591 2.162 . S
Mn576 O592 2.297 . S
Mn576 O600 2.385 1_545 S
Mn576 O601 2.209 . S
Mn576 O602 2.094 . S
Mn577 O582 2.121 . S
Mn577 N584 2.257 . S
Mn577 N593 2.282 1_545 S
Mn577 O601 2.215 . S
Mn577 O603 2.117 . S
C578 O600 1.234 . S
C578 O601 1.283 1_565 S
C579 O591 1.281 . S
C579 O592 1.236 . S
C580 O602 1.240 . S
C580 O603 1.264 . S
O581 Mn576 2.095 . S
O581 C590 1.250 . S
O582 Mn577 2.121 . S
O582 C590 1.258 . S
C583 N584 1.326 . S
C583 C587 1.460 . S
C583 H589 0.929 . S
N584 Mn577 2.257 . S
N584 C583 1.326 . S
N584 C588 1.362 1_545 S
C585 C586 1.258 . S
C585 C588 1.431 . S
C585 C605 1.449 . S
C586 C585 1.258 . S
C586 C587 1.477 1_565 S
C586 H606 0.931 . S
C587 C583 1.460 . S
C587 C586 1.477 1_545 S
C587 H607 0.930 . S
C588 N584 1.362 1_565 S
C588 C585 1.431 . S
C588 C598 1.476 . S
H589 C583 0.929 . S
C590 O581 1.250 . S
C590 O582 1.258 . S
O591 Mn576 2.162 . S
O591 C579 1.281 . S
O592 Mn576 2.297 . S
O592 C579 1.236 . S
N593 Mn577 2.282 1_565 S
N593 C594 1.328 . S
N593 C598 1.318 . S
C594 N593 1.328 . S
C594 C595 1.457 . S
C594 H599 0.929 . S
C595 C594 1.457 . S
C595 C596 1.291 . S
C595 H608 0.931 . S
C596 C595 1.291 . S
C596 C597 1.373 . S
C596 H609 0.929 . S
C597 C596 1.373 . S
C597 C598 1.396 . S
C597 C604 1.403 . S
C598 C588 1.476 . S
C598 N593 1.318 . S
C598 C597 1.396 . S
H599 C594 0.929 . S
O600 Mn576 2.385 1_565 S
O600 C578 1.234 . S
O601 Mn576 2.209 . S
O601 Mn577 2.215 . S
O601 C578 1.283 1_545 S
O602 Mn576 2.094 . S
O602 C580 1.240 . S
O603 Mn577 2.117 . S
O603 C580 1.264 . S
C604 C597 1.403 . S
C604 C605 1.399 . S
C604 H610 0.929 . S
C605 C585 1.449 . S
C605 C604 1.399 . S
C605 H611 0.930 . S
H606 C586 0.931 . S
H607 C587 0.930 . S
H608 C595 0.931 . S
H609 C596 0.929 . S
H610 C604 0.929 . S
H611 C605 0.930 . S
Mn612 O617 2.095 . S
Mn612 O627 2.162 . S
Mn612 O628 2.297 . S
Mn612 O636 2.385 . S
Mn612 O637 2.209 . S
Mn612 O638 2.094 . S
Mn613 O618 2.121 . S
Mn613 N620 2.257 . S
Mn613 N629 2.282 . S
Mn613 O637 2.215 . S
Mn613 O639 2.117 . S
C614 O636 1.234 . S
C614 O637 1.283 . S
C615 O627 1.281 . S
C615 O628 1.236 . S
C616 O638 1.240 . S
C616 O639 1.264 . S
O617 Mn612 2.095 . S
O617 C626 1.250 . S
O618 Mn613 2.121 . S
O618 C626 1.258 . S
C619 N620 1.326 . S
C619 C623 1.460 . S
C619 H625 0.929 . S
N620 Mn613 2.257 . S
N620 C619 1.326 . S
N620 C624 1.362 . S
C621 C622 1.258 . S
C621 C624 1.431 . S
C621 C641 1.449 . S
C622 C621 1.258 . S
C622 C623 1.477 . S
C622 H642 0.931 1_545 S
C623 C619 1.460 . S
C623 C622 1.477 . S
C623 H643 0.930 . S
C624 N620 1.362 . S
C624 C621 1.431 . S
C624 C634 1.476 . S
H625 C619 0.929 . S
C626 O617 1.250 . S
C626 O618 1.258 . S
O627 Mn612 2.162 . S
O627 C615 1.281 . S
O628 Mn612 2.297 . S
O628 C615 1.236 . S
N629 Mn613 2.282 . S
N629 C630 1.328 . S
N629 C634 1.318 . S
C630 N629 1.328 . S
C630 C631 1.457 . S
C630 H635 0.929 . S
C631 C630 1.457 . S
C631 C632 1.291 . S
C631 H644 0.931 . S
C632 C631 1.291 . S
C632 C633 1.373 . S
C632 H645 0.929 . S
C633 C632 1.373 . S
C633 C634 1.396 . S
C633 C640 1.403 . S
C634 C624 1.476 . S
C634 N629 1.318 . S
C634 C633 1.396 . S
H635 C630 0.929 . S
O636 Mn612 2.385 . S
O636 C614 1.234 . S
O637 Mn612 2.209 . S
O637 Mn613 2.215 . S
O637 C614 1.283 . S
O638 Mn612 2.094 . S
O638 C616 1.240 . S
O639 Mn613 2.117 . S
O639 C616 1.264 . S
C640 C633 1.403 . S
C640 C641 1.399 . S
C640 H646 0.929 . S
C641 C621 1.449 . S
C641 C640 1.399 . S
C641 H647 0.930 . S
H642 C622 0.931 1_565 S
H643 C623 0.930 . S
H644 C631 0.931 . S
H645 C632 0.929 . S
H646 C640 0.929 . S
H647 C641 0.930 . S
Mn648 O653 2.095 1_545 S
Mn648 O663 2.162 1_545 S
Mn648 O664 2.297 . S
Mn648 O672 2.385 . S
Mn648 O673 2.209 . S
Mn648 O674 2.094 . S
Mn649 O654 2.121 1_545 S
Mn649 N656 2.257 . S
Mn649 N665 2.282 . S
Mn649 O673 2.215 . S
Mn649 O675 2.117 . S
C650 O672 1.234 . S
C650 O673 1.283 . S
C651 O663 1.281 1_545 S
C651 O664 1.236 . S
C652 O674 1.240 . S
C652 O675 1.264 . S
O653 Mn648 2.095 1_565 S
O653 C662 1.250 . S
O654 Mn649 2.121 1_565 S
O654 C662 1.258 . S
C655 N656 1.317 1_565 S
C655 C659 1.455 1_565 S
C655 H661 0.944 . S
N656 Mn649 2.257 . S
N656 C655 1.317 1_545 S
N656 C660 1.362 . S
C657 C658 1.258 . S
C657 C660 1.431 . S
C657 C677 1.449 . S
C658 C657 1.258 . S
C658 C659 1.477 . S
C658 H678 0.931 . S
C659 C655 1.455 1_545 S
C659 C658 1.477 . S
C659 H679 0.930 1_545 S
C660 N656 1.362 . S
C660 C657 1.431 . S
C660 C670 1.476 . S
H661 C655 0.944 . S
C662 O653 1.250 . S
C662 O654 1.258 . S
O663 Mn648 2.162 1_565 S
O663 C651 1.281 1_565 S
O664 Mn648 2.297 . S
O664 C651 1.236 . S
N665 Mn649 2.282 . S
N665 C666 1.328 . S
N665 C670 1.318 . S
C666 N665 1.328 . S
C666 C667 1.457 . S
C666 H671 0.929 . S
C667 C666 1.457 . S
C667 C668 1.291 . S
C667 H680 0.931 . S
C668 C667 1.291 . S
C668 C669 1.373 . S
C668 H681 0.929 . S
C669 C668 1.373 . S
C669 C670 1.396 . S
C669 C676 1.403 . S
C670 C660 1.476 . S
C670 N665 1.318 . S
C670 C669 1.396 . S
H671 C666 0.929 . S
O672 Mn648 2.385 . S
O672 C650 1.234 . S
O673 Mn648 2.209 . S
O673 Mn649 2.215 . S
O673 C650 1.283 . S
O674 Mn648 2.094 . S
O674 C652 1.240 . S
O675 Mn649 2.117 . S
O675 C652 1.264 . S
C676 C669 1.403 . S
C676 C677 1.399 . S
C676 H682 0.929 . S
C677 C657 1.449 . S
C677 C676 1.399 . S
C677 H683 0.930 . S
H678 C658 0.931 . S
H679 C659 0.930 1_565 S
H680 C667 0.931 . S
H681 C668 0.929 . S
H682 C676 0.929 . S
H683 C677 0.930 . S
Mn684 O689 2.096 . S
Mn684 O699 2.162 . S
Mn684 O700 2.297 . S
Mn684 O708 2.385 . S
Mn684 O709 2.209 . S
Mn684 O710 2.094 1_554 S
Mn685 O690 2.121 . S
Mn685 N692 2.257 . S
Mn685 N701 2.282 . S
Mn685 O709 2.215 1_556 S
Mn685 O711 2.117 . S
C686 O708 1.234 . S
C686 O709 1.283 . S
C687 O699 1.281 . S
C687 O700 1.236 . S
C688 O710 1.240 . S
C688 O711 1.264 . S
O689 Mn684 2.096 . S
O689 C698 1.250 1_554 S
O690 Mn685 2.121 . S
O690 C698 1.258 . S
C691 N692 1.326 . S
C691 C695 1.437 1_565 S
C691 H697 0.929 . S
N692 Mn685 2.257 . S
N692 C691 1.326 . S
N692 C696 1.362 . S
C693 C694 1.258 1_565 S
C693 C696 1.431 . S
C693 C713 1.449 . S
C694 C693 1.258 1_545 S
C694 C695 1.483 . S
C694 H714 0.931 . S
C695 C691 1.437 1_545 S
C695 C694 1.483 . S
C695 H715 0.947 . S
C696 N692 1.362 . S
C696 C693 1.431 . S
C696 C706 1.476 . S
H697 C691 0.929 . S
C698 O689 1.250 1_556 S
C698 O690 1.258 . S
O699 Mn684 2.162 . S
O699 C687 1.281 . S
O700 Mn684 2.297 . S
O700 C687 1.236 . S
N701 Mn685 2.282 . S
N701 C702 1.328 . S
N701 C706 1.318 . S
C702 N701 1.328 . S
C702 C703 1.457 . S
C702 H707 0.929 . S
C703 C702 1.457 . S
C703 C704 1.291 . S
C703 H716 0.931 . S
C704 C703 1.291 . S
C704 C705 1.373 . S
C704 H717 0.929 . S
C705 C704 1.373 . S
C705 C706 1.396 . S
C705 C712 1.403 . S
C706 C696 1.476 . S
C706 N701 1.318 . S
C706 C705 1.396 . S
H707 C702 0.929 . S
O708 Mn684 2.385 . S
O708 C686 1.234 . S
O709 Mn684 2.209 . S
O709 Mn685 2.215 1_554 S
O709 C686 1.283 . S
O710 Mn684 2.094 1_556 S
O710 C688 1.240 . S
O711 Mn685 2.117 . S
O711 C688 1.264 . S
C712 C705 1.403 . S
C712 C713 1.399 . S
C712 H718 0.929 . S
C713 C693 1.449 . S
C713 C712 1.399 . S
C713 H719 0.930 1_565 S
H714 C694 0.931 . S
H715 C695 0.947 . S
H716 C703 0.931 . S
H717 C704 0.929 . S
H718 C712 0.929 . S
H719 C713 0.930 1_545 S
Mn720 O725 2.088 1_554 S
Mn720 O735 2.162 . S
Mn720 O736 2.297 . S
Mn720 O744 2.385 . S
Mn720 O745 2.210 . S
Mn720 O746 2.094 1_554 S
Mn721 O726 2.121 . S
Mn721 N728 2.257 . S
Mn721 N737 2.282 . S
Mn721 O745 2.207 1_556 S
Mn721 O747 2.117 . S
C722 O744 1.234 . S
C722 O745 1.285 . S
C723 O735 1.281 . S
C723 O736 1.236 . S
C724 O746 1.240 . S
C724 O747 1.264 . S
O725 Mn720 2.088 1_556 S
O725 C734 1.255 . S
O726 Mn721 2.121 . S
O726 C734 1.258 . S
C727 N728 1.326 . S
C727 C731 1.460 . S
C727 H733 0.929 . S
N728 Mn721 2.257 . S
N728 C727 1.326 . S
N728 C732 1.362 . S
C729 C730 1.258 . S
C729 C732 1.431 . S
C729 C749 1.449 . S
C730 C729 1.258 . S
C730 C731 1.477 . S
C730 H750 0.931 . S
C731 C727 1.460 . S
C731 C730 1.477 . S
C731 H751 0.930 . S
C732 N728 1.362 . S
C732 C729 1.431 . S
C732 C742 1.476 . S
H733 C727 0.929 . S
C734 O725 1.255 . S
C734 O726 1.258 . S
O735 Mn720 2.162 . S
O735 C723 1.281 . S
O736 Mn720 2.297 . S
O736 C723 1.236 . S
N737 Mn721 2.282 . S
N737 C738 1.328 . S
N737 C742 1.318 . S
C738 N737 1.328 . S
C738 C739 1.457 . S
C738 H743 0.929 . S
C739 C738 1.457 . S
C739 C740 1.291 . S
C739 H752 0.931 . S
C740 C739 1.291 . S
C740 C741 1.373 . S
C740 H753 0.929 . S
C741 C740 1.373 . S
C741 C742 1.396 . S
C741 C748 1.403 . S
C742 C732 1.476 . S
C742 N737 1.318 . S
C742 C741 1.396 . S
H743 C738 0.929 . S
O744 Mn720 2.385 . S
O744 C722 1.234 . S
O745 Mn720 2.210 . S
O745 Mn721 2.207 1_554 S
O745 C722 1.285 . S
O746 Mn720 2.094 1_556 S
O746 C724 1.240 . S
O747 Mn721 2.117 . S
O747 C724 1.264 . S
C748 C741 1.403 . S
C748 C749 1.399 . S
C748 H754 0.929 . S
C749 C729 1.449 . S
C749 C748 1.399 . S
C749 H755 0.930 . S
H750 C730 0.931 . S
H751 C731 0.930 . S
H752 C739 0.931 . S
H753 C740 0.929 . S
H754 C748 0.929 . S
H755 C749 0.930 . S
Mn756 O761 2.095 . S
Mn756 O771 2.162 . S
Mn756 O772 2.297 . S
Mn756 O780 2.385 . S
Mn756 O781 2.209 . S
Mn756 O782 2.094 . S
Mn757 O762 2.121 . S
Mn757 N764 2.257 . S
Mn757 N773 2.282 . S
Mn757 O781 2.215 . S
Mn757 O783 2.117 . S
C758 O780 1.234 . S
C758 O781 1.283 . S
C759 O771 1.281 . S
C759 O772 1.236 . S
C760 O782 1.240 . S
C760 O783 1.264 . S
O761 Mn756 2.095 . S
O761 C770 1.250 . S
O762 Mn757 2.121 . S
O762 C770 1.258 . S
C763 N764 1.326 . S
C763 C767 1.460 . S
C763 H769 0.929 . S
N764 Mn757 2.257 . S
N764 C763 1.326 . S
N764 C768 1.362 . S
C765 C766 1.258 . S
C765 C768 1.431 . S
C765 C785 1.449 . S
C766 C765 1.258 . S
C766 C767 1.477 . S
C766 H786 0.931 . S
C767 C763 1.460 . S
C767 C766 1.477 . S
C767 H787 0.930 . S
C768 N764 1.362 . S
C768 C765 1.431 . S
C768 C778 1.476 . S
H769 C763 0.929 . S
C770 O761 1.250 . S
C770 O762 1.258 . S
O771 Mn756 2.162 . S
O771 C759 1.281 . S
O772 Mn756 2.297 . S
O772 C759 1.236 . S
N773 Mn757 2.282 . S
N773 C774 1.328 . S
N773 C778 1.318 . S
C774 N773 1.328 . S
C774 C775 1.457 . S
C774 H779 0.929 . S
C775 C774 1.457 . S
C775 C776 1.291 . S
C775 H788 0.931 . S
C776 C775 1.291 . S
C776 C777 1.373 . S
C776 H789 0.929 . S
C777 C776 1.373 . S
C777 C778 1.396 . S
C777 C784 1.403 . S
C778 C768 1.476 . S
C778 N773 1.318 . S
C778 C777 1.396 . S
H779 C774 0.929 . S
O780 Mn756 2.385 . S
O780 C758 1.234 . S
O781 Mn756 2.209 . S
O781 Mn757 2.215 . S
O781 C758 1.283 . S
O782 Mn756 2.094 . S
O782 C760 1.240 . S
O783 Mn757 2.117 . S
O783 C760 1.264 . S
C784 C777 1.403 . S
C784 C785 1.399 . S
C784 H790 0.929 . S
C785 C765 1.449 . S
C785 C784 1.399 . S
C785 H791 0.930 . S
H786 C766 0.931 . S
H787 C767 0.930 . S
H788 C775 0.931 . S
H789 C776 0.929 . S
H790 C784 0.929 . S
H791 C785 0.930 . S
Mn792 O797 2.095 . S
Mn792 O807 2.162 . S
Mn792 O808 2.297 . S
Mn792 O816 2.385 . S
Mn792 O817 2.209 . S
Mn792 O818 2.094 . S
Mn793 O798 2.121 . S
Mn793 N800 2.257 . S
Mn793 N809 2.282 . S
Mn793 O817 2.215 . S
Mn793 O819 2.117 . S
C794 O816 1.234 . S
C794 O817 1.283 . S
C795 O807 1.281 . S
C795 O808 1.236 . S
C796 O818 1.240 . S
C796 O819 1.264 . S
O797 Mn792 2.095 . S
O797 C806 1.250 . S
O798 Mn793 2.121 . S
O798 C806 1.258 . S
C799 N800 1.326 . S
C799 C803 1.460 . S
C799 H805 0.929 . S
N800 Mn793 2.257 . S
N800 C799 1.326 . S
N800 C804 1.362 . S
C801 C802 1.258 . S
C801 C804 1.431 . S
C801 C821 1.449 . S
C802 C801 1.258 . S
C802 C803 1.477 . S
C802 H822 0.931 . S
C803 C799 1.460 . S
C803 C802 1.477 . S
C803 H823 0.930 . S
C804 N800 1.362 . S
C804 C801 1.431 . S
C804 C814 1.476 . S
H805 C799 0.929 . S
C806 O797 1.250 . S
C806 O798 1.258 . S
O807 Mn792 2.162 . S
O807 C795 1.281 . S
O808 Mn792 2.297 . S
O808 C795 1.236 . S
N809 Mn793 2.282 . S
N809 C810 1.328 . S
N809 C814 1.318 . S
C810 N809 1.328 . S
C810 C811 1.457 . S
C810 H815 0.929 . S
C811 C810 1.457 . S
C811 C812 1.291 . S
C811 H824 0.931 . S
C812 C811 1.291 . S
C812 C813 1.373 . S
C812 H825 0.929 . S
C813 C812 1.373 . S
C813 C814 1.396 . S
C813 C820 1.403 . S
C814 C804 1.476 . S
C814 N809 1.318 . S
C814 C813 1.396 . S
H815 C810 0.929 . S
O816 Mn792 2.385 . S
O816 C794 1.234 . S
O817 Mn792 2.209 . S
O817 Mn793 2.215 . S
O817 C794 1.283 . S
O818 Mn792 2.094 . S
O818 C796 1.240 . S
O819 Mn793 2.117 . S
O819 C796 1.264 . S
C820 C813 1.403 . S
C820 C821 1.399 . S
C820 H826 0.929 . S
C821 C801 1.449 . S
C821 C820 1.399 . S
C821 H827 0.930 . S
H822 C802 0.931 . S
H823 C803 0.930 . S
H824 C811 0.931 . S
H825 C812 0.929 . S
H826 C820 0.929 . S
H827 C821 0.930 . S
Mn828 O833 2.095 . S
Mn828 O843 2.162 . S
Mn828 O844 2.297 . S
Mn828 O852 2.385 . S
Mn828 O853 2.209 . S
Mn828 O854 2.094 . S
Mn829 O834 2.121 . S
Mn829 N836 2.257 . S
Mn829 N845 2.282 . S
Mn829 O853 2.215 . S
Mn829 O855 2.117 . S
C830 O852 1.234 . S
C830 O853 1.283 . S
C831 O843 1.281 . S
C831 O844 1.236 . S
C832 O854 1.240 . S
C832 O855 1.264 . S
O833 Mn828 2.095 . S
O833 C842 1.250 . S
O834 Mn829 2.121 . S
O834 C842 1.258 . S
C835 N836 1.326 . S
C835 C839 1.460 . S
C835 H841 0.929 . S
N836 Mn829 2.257 . S
N836 C835 1.326 . S
N836 C840 1.362 . S
C837 C838 1.258 . S
C837 C840 1.431 . S
C837 C857 1.449 . S
C838 C837 1.258 . S
C838 C839 1.477 . S
C838 H858 0.931 . S
C839 C835 1.460 . S
C839 C838 1.477 . S
C839 H859 0.930 . S
C840 N836 1.362 . S
C840 C837 1.431 . S
C840 C850 1.476 . S
H841 C835 0.929 . S
C842 O833 1.250 . S
C842 O834 1.258 . S
O843 Mn828 2.162 . S
O843 C831 1.281 . S
O844 Mn828 2.297 . S
O844 C831 1.236 . S
N845 Mn829 2.282 . S
N845 C846 1.328 . S
N845 C850 1.318 . S
C846 N845 1.328 . S
C846 C847 1.457 . S
C846 H851 0.929 . S
C847 C846 1.457 . S
C847 C848 1.291 . S
C847 H860 0.931 . S
C848 C847 1.291 . S
C848 C849 1.373 . S
C848 H861 0.929 . S
C849 C848 1.373 . S
C849 C850 1.396 . S
C849 C856 1.403 . S
C850 C840 1.476 . S
C850 N845 1.318 . S
C850 C849 1.396 . S
H851 C846 0.929 . S
O852 Mn828 2.385 . S
O852 C830 1.234 . S
O853 Mn828 2.209 . S
O853 Mn829 2.215 . S
O853 C830 1.283 . S
O854 Mn828 2.094 . S
O854 C832 1.240 . S
O855 Mn829 2.117 . S
O855 C832 1.264 . S
C856 C849 1.403 . S
C856 C857 1.399 . S
C856 H862 0.929 . S
C857 C837 1.449 . S
C857 C856 1.399 . S
C857 H863 0.930 . S
H858 C838 0.931 . S
H859 C839 0.930 . S
H860 C847 0.931 . S
H861 C848 0.929 . S
H862 C856 0.929 . S
H863 C857 0.930 . S
O864 Zn865 1.953 . S
O864 C880 1.225 1_455 S
Zn865 O864 1.953 . S
Zn865 O866 1.949 . S
Zn865 O872 1.922 . S
Zn865 O877 1.907 1_454 S
O866 Zn865 1.949 . S
O866 Zn867 1.923 1_545 S
O866 Zn868 1.950 1_455 S
O866 Zn869 1.945 1_444 S
Zn867 O866 1.923 1_565 S
Zn867 O870 1.933 . S
Zn867 O873 1.941 1_565 S
Zn867 O874 1.965 . S
Zn868 O866 1.950 1_655 S
Zn868 O875 1.956 . S
Zn868 O876 1.906 1_545 S
Zn868 O886 1.953 . S
Zn869 O866 1.945 1_666 S
Zn869 O871 1.931 . S
Zn869 O878 1.977 1_556 S
Zn869 O879 1.910 1_565 S
O870 Zn867 1.933 . S
O870 C881 1.226 1_554 S
O871 Zn869 1.931 . S
O871 C881 1.309 1_655 S
O872 Zn865 1.922 . S
O872 C883 1.259 . S
O873 Zn867 1.941 1_545 S
O873 C883 1.283 . S
O874 Zn867 1.965 . S
O874 C882 1.303 1_565 S
O875 Zn868 1.956 . S
O875 C882 1.216 1_655 S
O876 Zn868 1.906 1_565 S
O876 C884 1.304 . S
O877 Zn865 1.907 1_656 S
O877 C885 1.338 . S
O878 Zn869 1.977 1_554 S
O878 C884 1.272 . S
O879 Zn869 1.910 1_545 S
O879 C885 1.231 . S
C880 O864 1.225 1_655 S
C880 O886 1.298 . S
C881 O870 1.226 1_556 S
C881 O871 1.309 1_455 S
C882 O874 1.303 1_545 S
C882 O875 1.216 1_455 S
C883 O872 1.259 . S
C883 O873 1.283 . S
C884 O876 1.304 . S
C884 O878 1.272 . S
C885 O877 1.338 . S
C885 O879 1.231 . S
O886 Zn868 1.953 . S
O886 C880 1.298 . S
O887 Zn888 1.953 . S
O887 C903 1.225 . S
Zn888 O887 1.953 . S
Zn888 O889 1.949 . S
Zn888 O895 1.919 . S
Zn888 O900 1.924 . S
O889 Zn888 1.949 . S
O889 Zn890 1.923 . S
O889 Zn891 1.950 . S
O889 Zn892 1.945 . S
Zn890 O889 1.923 . S
Zn890 O893 1.933 . S
Zn890 O896 1.941 . S
Zn890 O897 1.965 . S
Zn891 O889 1.950 . S
Zn891 O898 1.938 . S
Zn891 O899 1.906 . S
Zn891 O909 1.953 . S
Zn892 O889 1.945 . S
Zn892 O894 1.932 . S
Zn892 O901 1.977 . S
Zn892 O902 1.910 . S
O893 Zn890 1.933 . S
O893 C904 1.226 . S
O894 Zn892 1.932 . S
O894 C904 1.307 . S
O895 Zn888 1.919 . S
O895 C906 1.253 . S
O896 Zn890 1.941 . S
O896 C906 1.283 . S
O897 Zn890 1.965 . S
O897 C905 1.303 . S
O898 Zn891 1.938 . S
O898 C905 1.247 . S
O899 Zn891 1.906 . S
O899 C907 1.304 . S
O900 Zn888 1.924 . S
O900 C908 1.311 . S
O901 Zn892 1.977 . S
O901 C907 1.272 . S
O902 Zn892 1.910 . S
O902 C908 1.231 . S
C903 O887 1.225 . S
C903 O909 1.298 . S
C904 O893 1.226 . S
C904 O894 1.307 . S
C905 O897 1.303 . S
C905 O898 1.247 . S
C906 O895 1.253 . S
C906 O896 1.283 . S
C907 O899 1.304 . S
C907 O901 1.272 . S
C908 O900 1.311 . S
C908 O902 1.231 . S
O909 Zn891 1.953 . S
O909 C903 1.298 . S
O910 Zn911 1.953 . S
O910 C926 1.225 . S
Zn911 O910 1.953 . S
Zn911 O912 1.949 1_565 S
Zn911 O918 1.919 . S
Zn911 O923 1.924 . S
O912 Zn911 1.949 1_545 S
O912 Zn913 1.923 . S
O912 Zn914 1.950 . S
O912 Zn915 1.945 . S
Zn913 O912 1.923 . S
Zn913 O916 1.933 . S
Zn913 O919 1.941 . S
Zn913 O920 1.965 . S
Zn914 O912 1.950 . S
Zn914 O921 1.938 . S
Zn914 O922 1.906 . S
Zn914 O932 1.953 1_545 S
Zn915 O912 1.945 . S
Zn915 O917 1.932 . S
Zn915 O924 1.977 . S
Zn915 O925 1.910 . S
O916 Zn913 1.933 . S
O916 C927 1.226 . S
O917 Zn915 1.932 . S
O917 C927 1.307 . S
O918 Zn911 1.919 . S
O918 C929 1.253 . S
O919 Zn913 1.941 . S
O919 C929 1.283 1_545 S
O920 Zn913 1.965 . S
O920 C928 1.303 . S
O921 Zn914 1.938 . S
O921 C928 1.247 . S
O922 Zn914 1.906 . S
O922 C930 1.304 . S
O923 Zn911 1.924 . S
O923 C931 1.311 . S
O924 Zn915 1.977 . S
O924 C930 1.272 . S
O925 Zn915 1.910 . S
O925 C931 1.231 1_545 S
C926 O910 1.225 . S
C926 O932 1.298 . S
C927 O916 1.226 . S
C927 O917 1.307 . S
C928 O920 1.303 . S
C928 O921 1.247 . S
C929 O918 1.253 . S
C929 O919 1.283 1_565 S
C930 O922 1.304 . S
C930 O924 1.272 . S
C931 O923 1.311 . S
C931 O925 1.231 1_565 S
O932 Zn914 1.953 1_565 S
O932 C926 1.298 . S
O933 Zn934 1.953 . S
O933 C949 1.225 . S
Zn934 O933 1.953 . S
Zn934 O935 1.949 . S
Zn934 O941 1.919 . S
Zn934 O946 1.924 . S
O935 Zn934 1.949 . S
O935 Zn936 1.923 . S
O935 Zn937 1.950 . S
O935 Zn938 1.945 . S
Zn936 O935 1.923 . S
Zn936 O939 1.933 . S
Zn936 O942 1.941 . S
Zn936 O943 1.965 . S
Zn937 O935 1.950 . S
Zn937 O944 1.938 . S
Zn937 O945 1.906 . S
Zn937 O955 1.953 . S
Zn938 O935 1.945 . S
Zn938 O940 1.932 . S
Zn938 O947 1.977 . S
Zn938 O948 1.910 . S
O939 Zn936 1.933 . S
O939 C950 1.226 . S
O940 Zn938 1.932 . S
O940 C950 1.307 . S
O941 Zn934 1.919 . S
O941 C952 1.253 . S
O942 Zn936 1.941 . S
O942 C952 1.283 . S
O943 Zn936 1.965 . S
O943 C951 1.303 . S
O944 Zn937 1.938 . S
O944 C951 1.247 . S
O945 Zn937 1.906 . S
O945 C953 1.304 . S
O946 Zn934 1.924 . S
O946 C954 1.311 . S
O947 Zn938 1.977 . S
O947 C953 1.272 . S
O948 Zn938 1.910 . S
O948 C954 1.231 . S
C949 O933 1.225 . S
C949 O955 1.298 . S
C950 O939 1.226 . S
C950 O940 1.307 . S
C951 O943 1.303 . S
C951 O944 1.247 . S
C952 O941 1.253 . S
C952 O942 1.283 . S
C953 O945 1.304 . S
C953 O947 1.272 . S
C954 O946 1.311 . S
C954 O948 1.231 . S
O955 Zn937 1.953 . S
O955 C949 1.298 . S
O956 Zn957 1.953 1_455 S
O956 C972 1.225 . S
Zn957 O956 1.953 1_655 S
Zn957 O958 1.949 1_655 S
Zn957 O964 1.919 1_545 S
Zn957 O969 1.924 . S
O958 Zn957 1.949 1_455 S
O958 Zn959 1.923 1_545 S
O958 Zn960 1.950 . S
O958 Zn961 1.945 1_455 S
Zn959 O958 1.923 1_565 S
Zn959 O962 1.933 . S
Zn959 O965 1.941 . S
Zn959 O966 1.965 . S
Zn960 O958 1.950 . S
Zn960 O967 1.938 . S
Zn960 O968 1.906 . S
Zn960 O978 1.953 . S
Zn961 O958 1.945 1_655 S
Zn961 O963 1.932 . S
Zn961 O970 1.977 1_655 S
Zn961 O971 1.910 . S
O962 Zn959 1.933 . S
O962 C973 1.226 1_455 S
O963 Zn961 1.932 . S
O963 C973 1.307 1_545 S
O964 Zn957 1.919 1_565 S
O964 C975 1.253 . S
O965 Zn959 1.941 . S
O965 C975 1.283 1_455 S
O966 Zn959 1.965 . S
O966 C974 1.303 . S
O967 Zn960 1.938 . S
O967 C974 1.247 1_545 S
O968 Zn960 1.906 . S
O968 C976 1.304 . S
O969 Zn957 1.924 . S
O969 C977 1.311 . S
O970 Zn961 1.977 1_455 S
O970 C976 1.272 . S
O971 Zn961 1.910 . S
O971 C977 1.231 . S
C972 O956 1.225 . S
C972 O978 1.298 . S
C973 O962 1.226 1_655 S
C973 O963 1.307 1_565 S
C974 O966 1.303 . S
C974 O967 1.247 1_565 S
C975 O964 1.253 . S
C975 O965 1.283 1_655 S
C976 O968 1.304 . S
C976 O970 1.272 . S
C977 O969 1.311 . S
C977 O971 1.231 . S
O978 Zn960 1.953 . S
O978 C972 1.298 . S
O979 Zn980 1.953 . S
O979 C995 1.225 . S
Zn980 O979 1.953 . S
Zn980 O981 1.949 . S
Zn980 O987 1.919 . S
Zn980 O992 1.924 . S
O981 Zn980 1.949 . S
O981 Zn982 1.923 . S
O981 Zn983 1.950 . S
O981 Zn984 1.945 . S
Zn982 O981 1.923 . S
Zn982 O985 1.933 . S
Zn982 O988 1.941 . S
Zn982 O989 1.965 . S
Zn983 O981 1.950 . S
Zn983 O990 1.938 . S
Zn983 O991 1.906 . S
Zn983 O1001 1.953 . S
Zn984 O981 1.945 . S
Zn984 O986 1.932 . S
Zn984 O993 1.977 . S
Zn984 O994 1.910 . S
O985 Zn982 1.933 . S
O985 C996 1.226 . S
O986 Zn984 1.932 . S
O986 C996 1.307 . S
O987 Zn980 1.919 . S
O987 C998 1.253 . S
O988 Zn982 1.941 . S
O988 C998 1.283 . S
O989 Zn982 1.965 . S
O989 C997 1.303 . S
O990 Zn983 1.938 . S
O990 C997 1.247 . S
O991 Zn983 1.906 . S
O991 C999 1.304 . S
O992 Zn980 1.924 . S
O992 C1000 1.311 . S
O993 Zn984 1.977 . S
O993 C999 1.272 . S
O994 Zn984 1.910 . S
O994 C1000 1.231 . S
C995 O979 1.225 . S
C995 O1001 1.298 . S
C996 O985 1.226 . S
C996 O986 1.307 . S
C997 O989 1.303 . S
C997 O990 1.247 . S
C998 O987 1.253 . S
C998 O988 1.283 . S
C999 O991 1.304 . S
C999 O993 1.272 . S
C1000 O992 1.311 . S
C1000 O994 1.231 . S
O1001 Zn983 1.953 . S
O1001 C995 1.298 . S
O1002 Zn1003 1.953 . S
O1002 C1018 1.225 . S
Zn1003 O1002 1.953 . S
Zn1003 O1004 1.949 . S
Zn1003 O1010 1.935 . S
Zn1003 O1015 1.924 . S
O1004 Zn1003 1.949 . S
O1004 Zn1005 1.918 1_544 S
O1004 Zn1006 1.950 . S
O1004 Zn1007 1.945 1_554 S
Zn1005 O1004 1.918 1_566 S
Zn1005 O1008 1.944 . S
Zn1005 O1011 1.943 . S
Zn1005 O1012 1.958 1_556 S
Zn1006 O1004 1.950 . S
Zn1006 O1013 1.938 1_545 S
Zn1006 O1014 1.906 . S
Zn1006 O1024 1.953 . S
Zn1007 O1004 1.945 1_556 S
Zn1007 O1009 1.932 . S
Zn1007 O1016 1.977 1_556 S
Zn1007 O1017 1.910 . S
O1008 Zn1005 1.944 . S
O1008 C1019 1.226 . S
O1009 Zn1007 1.932 . S
O1009 C1019 1.307 1_545 S
O1010 Zn1003 1.935 . S
O1010 C1021 1.228 1_544 S
O1011 Zn1005 1.943 . S
O1011 C1021 1.283 . S
O1012 Zn1005 1.958 1_554 S
O1012 C1020 1.303 . S
O1013 Zn1006 1.938 1_565 S
O1013 C1020 1.247 . S
O1014 Zn1006 1.906 . S
O1014 C1022 1.304 . S
O1015 Zn1003 1.924 . S
O1015 C1023 1.318 . S
O1016 Zn1007 1.977 1_554 S
O1016 C1022 1.272 . S
O1017 Zn1007 1.910 . S
O1017 C1023 1.223 1_556 S
C1018 O1002 1.225 . S
C1018 O1024 1.298 . S
C1019 O1008 1.226 . S
C1019 O1009 1.307 1_565 S
C1020 O1012 1.303 . S
C1020 O1013 1.247 . S
C1021 O1010 1.228 1_566 S
C1021 O1011 1.283 . S
C1022 O1014 1.304 . S
C1022 O1016 1.272 . S
C1023 O1015 1.318 . S
C1023 O1017 1.223 1_554 S
O1024 Zn1006 1.953 . S
O1024 C1018 1.298 . S
O1025 Zn1026 1.953 . S
O1025 C1041 1.225 . S
Zn1026 O1025 1.953 . S
Zn1026 O1027 1.949 . S
Zn1026 O1033 1.919 . S
Zn1026 O1038 1.924 . S
O1027 Zn1026 1.949 . S
O1027 Zn1028 1.923 . S
O1027 Zn1029 1.950 . S
O1027 Zn1030 1.945 . S
Zn1028 O1027 1.923 . S
Zn1028 O1031 1.933 . S
Zn1028 O1034 1.941 . S
Zn1028 O1035 1.965 . S
Zn1029 O1027 1.950 . S
Zn1029 O1036 1.938 . S
Zn1029 O1037 1.906 . S
Zn1029 O1047 1.953 . S
Zn1030 O1027 1.945 . S
Zn1030 O1032 1.932 . S
Zn1030 O1039 1.977 . S
Zn1030 O1040 1.910 . S
O1031 Zn1028 1.933 . S
O1031 C1042 1.226 . S
O1032 Zn1030 1.932 . S
O1032 C1042 1.307 . S
O1033 Zn1026 1.919 . S
O1033 C1044 1.253 . S
O1034 Zn1028 1.941 . S
O1034 C1044 1.283 . S
O1035 Zn1028 1.965 . S
O1035 C1043 1.303 . S
O1036 Zn1029 1.938 . S
O1036 C1043 1.247 . S
O1037 Zn1029 1.906 . S
O1037 C1045 1.304 . S
O1038 Zn1026 1.924 . S
O1038 C1046 1.311 . S
O1039 Zn1030 1.977 . S
O1039 C1045 1.272 . S
O1040 Zn1030 1.910 . S
O1040 C1046 1.231 . S
C1041 O1025 1.225 . S
C1041 O1047 1.298 . S
C1042 O1031 1.226 . S
C1042 O1032 1.307 . S
C1043 O1035 1.303 . S
C1043 O1036 1.247 . S
C1044 O1033 1.253 . S
C1044 O1034 1.283 . S
C1045 O1037 1.304 . S
C1045 O1039 1.272 . S
C1046 O1038 1.311 . S
C1046 O1040 1.231 . S
O1047 Zn1029 1.953 . S
O1047 C1041 1.298 . S
O1048 Zn1049 1.953 . S
O1048 C1064 1.225 . S
Zn1049 O1048 1.953 . S
Zn1049 O1050 1.949 1_556 S
Zn1049 O1056 1.919 . S
Zn1049 O1061 1.924 . S
O1050 Zn1049 1.949 1_554 S
O1050 Zn1051 1.923 . S
O1050 Zn1052 1.950 . S
O1050 Zn1053 1.945 . S
Zn1051 O1050 1.923 . S
Zn1051 O1054 1.933 . S
Zn1051 O1057 1.941 . S
Zn1051 O1058 1.965 . S
Zn1052 O1050 1.950 . S
Zn1052 O1059 1.938 . S
Zn1052 O1060 1.906 . S
Zn1052 O1070 1.953 1_554 S
Zn1053 O1050 1.945 . S
Zn1053 O1055 1.932 . S
Zn1053 O1062 1.977 . S
Zn1053 O1063 1.910 . S
O1054 Zn1051 1.933 . S
O1054 C1065 1.226 . S
O1055 Zn1053 1.932 . S
O1055 C1065 1.307 . S
O1056 Zn1049 1.919 . S
O1056 C1067 1.222 1_556 S
O1057 Zn1051 1.941 . S
O1057 C1067 1.314 . S
O1058 Zn1051 1.965 . S
O1058 C1066 1.303 . S
O1059 Zn1052 1.938 . S
O1059 C1066 1.247 . S
O1060 Zn1052 1.906 . S
O1060 C1068 1.304 . S
O1061 Zn1049 1.924 . S
O1061 C1069 1.311 . S
O1062 Zn1053 1.977 . S
O1062 C1068 1.272 . S
O1063 Zn1053 1.910 . S
O1063 C1069 1.231 1_554 S
C1064 O1048 1.225 . S
C1064 O1070 1.298 . S
C1065 O1054 1.226 . S
C1065 O1055 1.307 . S
C1066 O1058 1.303 . S
C1066 O1059 1.247 . S
C1067 O1056 1.222 1_554 S
C1067 O1057 1.314 . S
C1068 O1060 1.304 . S
C1068 O1062 1.272 . S
C1069 O1061 1.311 . S
C1069 O1063 1.231 1_556 S
O1070 Zn1052 1.953 1_556 S
O1070 C1064 1.298 . S
O1071 Zn1072 1.953 . S
O1071 C1087 1.225 . S
Zn1072 O1071 1.953 . S
Zn1072 O1073 1.949 . S
Zn1072 O1079 1.919 . S
Zn1072 O1084 1.924 . S
O1073 Zn1072 1.949 . S
O1073 Zn1074 1.923 . S
O1073 Zn1075 1.950 . S
O1073 Zn1076 1.945 . S
Zn1074 O1073 1.923 . S
Zn1074 O1077 1.933 . S
Zn1074 O1080 1.941 . S
Zn1074 O1081 1.965 . S
Zn1075 O1073 1.950 . S
Zn1075 O1082 1.938 . S
Zn1075 O1083 1.906 . S
Zn1075 O1093 1.953 . S
Zn1076 O1073 1.945 . S
Zn1076 O1078 1.932 . S
Zn1076 O1085 1.977 . S
Zn1076 O1086 1.910 . S
O1077 Zn1074 1.933 . S
O1077 C1088 1.226 . S
O1078 Zn1076 1.932 . S
O1078 C1088 1.307 . S
O1079 Zn1072 1.919 . S
O1079 C1090 1.253 . S
O1080 Zn1074 1.941 . S
O1080 C1090 1.283 . S
O1081 Zn1074 1.965 . S
O1081 C1089 1.303 . S
O1082 Zn1075 1.938 . S
O1082 C1089 1.247 . S
O1083 Zn1075 1.906 . S
O1083 C1091 1.304 . S
O1084 Zn1072 1.924 . S
O1084 C1092 1.311 . S
O1085 Zn1076 1.977 . S
O1085 C1091 1.272 . S
O1086 Zn1076 1.910 . S
O1086 C1092 1.231 . S
C1087 O1071 1.225 . S
C1087 O1093 1.298 . S
C1088 O1077 1.226 . S
C1088 O1078 1.307 . S
C1089 O1081 1.303 . S
C1089 O1082 1.247 . S
C1090 O1079 1.253 . S
C1090 O1080 1.283 . S
C1091 O1083 1.304 . S
C1091 O1085 1.272 . S
C1092 O1084 1.311 . S
C1092 O1086 1.231 . S
O1093 Zn1075 1.953 . S
O1093 C1087 1.298 . S
O1094 Zn1095 1.953 . S
O1094 C1110 1.225 . S
Zn1095 O1094 1.953 . S
Zn1095 O1096 1.934 1_455 S
Zn1095 O1102 1.919 . S
Zn1095 O1107 1.924 . S
O1096 Zn1095 1.934 1_655 S
O1096 Zn1097 1.921 1_655 S
O1096 Zn1098 1.958 . S
O1096 Zn1099 1.951 . S
Zn1097 O1096 1.921 1_455 S
Zn1097 O1100 1.917 1_455 S
Zn1097 O1103 1.982 . S
Zn1097 O1104 1.951 1_455 S
Zn1098 O1096 1.958 . S
Zn1098 O1105 1.938 . S
Zn1098 O1106 1.906 . S
Zn1098 O1116 1.963 . S
Zn1099 O1096 1.951 . S
Zn1099 O1101 1.932 . S
Zn1099 O1108 1.977 . S
Zn1099 O1109 1.902 1_655 S
O1100 Zn1097 1.917 1_655 S
O1100 C1111 1.226 . S
O1101 Zn1099 1.932 . S
O1101 C1111 1.307 . S
O1102 Zn1095 1.919 . S
O1102 C1113 1.253 . S
O1103 Zn1097 1.982 . S
O1103 C1113 1.283 . S
O1104 Zn1097 1.951 1_655 S
O1104 C1112 1.303 . S
O1105 Zn1098 1.938 . S
O1105 C1112 1.247 . S
O1106 Zn1098 1.906 . S
O1106 C1114 1.304 . S
O1107 Zn1095 1.924 . S
O1107 C1115 1.311 . S
O1108 Zn1099 1.977 . S
O1108 C1114 1.272 . S
O1109 Zn1099 1.902 1_455 S
O1109 C1115 1.247 . S
C1110 O1094 1.225 . S
C1110 O1116 1.279 1_455 S
C1111 O1100 1.226 . S
C1111 O1101 1.307 . S
C1112 O1104 1.303 . S
C1112 O1105 1.247 . S
C1113 O1102 1.253 . S
C1113 O1103 1.283 . S
C1114 O1106 1.304 . S
C1114 O1108 1.272 . S
C1115 O1107 1.311 . S
C1115 O1109 1.247 . S
O1116 Zn1098 1.963 . S
O1116 C1110 1.279 1_655 S
O1117 Zn1118 1.953 . S
O1117 C1133 1.225 . S
Zn1118 O1117 1.953 . S
Zn1118 O1119 1.949 . S
Zn1118 O1125 1.919 . S
Zn1118 O1130 1.924 . S
O1119 Zn1118 1.949 . S
O1119 Zn1120 1.923 . S
O1119 Zn1121 1.950 . S
O1119 Zn1122 1.945 . S
Zn1120 O1119 1.923 . S
Zn1120 O1123 1.933 . S
Zn1120 O1126 1.941 . S
Zn1120 O1127 1.965 . S
Zn1121 O1119 1.950 . S
Zn1121 O1128 1.938 . S
Zn1121 O1129 1.906 . S
Zn1121 O1139 1.953 . S
Zn1122 O1119 1.945 . S
Zn1122 O1124 1.932 . S
Zn1122 O1131 1.977 . S
Zn1122 O1132 1.910 . S
O1123 Zn1120 1.933 . S
O1123 C1134 1.226 . S
O1124 Zn1122 1.932 . S
O1124 C1134 1.307 . S
O1125 Zn1118 1.919 . S
O1125 C1136 1.253 . S
O1126 Zn1120 1.941 . S
O1126 C1136 1.283 . S
O1127 Zn1120 1.965 . S
O1127 C1135 1.303 . S
O1128 Zn1121 1.938 . S
O1128 C1135 1.247 . S
O1129 Zn1121 1.906 . S
O1129 C1137 1.304 . S
O1130 Zn1118 1.924 . S
O1130 C1138 1.311 . S
O1131 Zn1122 1.977 . S
O1131 C1137 1.272 . S
O1132 Zn1122 1.910 . S
O1132 C1138 1.231 . S
C1133 O1117 1.225 . S
C1133 O1139 1.298 . S
C1134 O1123 1.226 . S
C1134 O1124 1.307 . S
C1135 O1127 1.303 . S
C1135 O1128 1.247 . S
C1136 O1125 1.253 . S
C1136 O1126 1.283 . S
C1137 O1129 1.304 . S
C1137 O1131 1.272 . S
C1138 O1130 1.311 . S
C1138 O1132 1.231 . S
O1139 Zn1121 1.953 . S
O1139 C1133 1.298 . S
O1140 Zn1141 1.953 . S
O1140 C1156 1.225 . S
Zn1141 O1140 1.953 . S
Zn1141 O1142 1.949 . S
Zn1141 O1148 1.919 . S
Zn1141 O1153 1.924 . S
O1142 Zn1141 1.949 . S
O1142 Zn1143 1.923 . S
O1142 Zn1144 1.950 . S
O1142 Zn1145 1.945 . S
Zn1143 O1142 1.923 . S
Zn1143 O1146 1.933 . S
Zn1143 O1149 1.941 . S
Zn1143 O1150 1.965 . S
Zn1144 O1142 1.950 . S
Zn1144 O1151 1.938 . S
Zn1144 O1152 1.906 . S
Zn1144 O1162 1.953 . S
Zn1145 O1142 1.945 . S
Zn1145 O1147 1.932 . S
Zn1145 O1154 1.977 . S
Zn1145 O1155 1.910 . S
O1146 Zn1143 1.933 . S
O1146 C1157 1.226 . S
O1147 Zn1145 1.932 . S
O1147 C1157 1.307 . S
O1148 Zn1141 1.919 . S
O1148 C1159 1.253 . S
O1149 Zn1143 1.941 . S
O1149 C1159 1.283 . S
O1150 Zn1143 1.965 . S
O1150 C1158 1.303 . S
O1151 Zn1144 1.938 . S
O1151 C1158 1.247 . S
O1152 Zn1144 1.906 . S
O1152 C1160 1.304 . S
O1153 Zn1141 1.924 . S
O1153 C1161 1.311 . S
O1154 Zn1145 1.977 . S
O1154 C1160 1.272 . S
O1155 Zn1145 1.910 . S
O1155 C1161 1.231 . S
C1156 O1140 1.225 . S
C1156 O1162 1.298 . S
C1157 O1146 1.226 . S
C1157 O1147 1.307 . S
C1158 O1150 1.303 . S
C1158 O1151 1.247 . S
C1159 O1148 1.253 . S
C1159 O1149 1.283 . S
C1160 O1152 1.304 . S
C1160 O1154 1.272 . S
C1161 O1153 1.311 . S
C1161 O1155 1.231 . S
O1162 Zn1144 1.953 . S
O1162 C1156 1.298 . S
O1163 Zn1164 1.953 . S
O1163 C1179 1.225 . S
Zn1164 O1163 1.953 . S
Zn1164 O1165 1.949 . S
Zn1164 O1171 1.919 . S
Zn1164 O1176 1.924 . S
O1165 Zn1164 1.949 . S
O1165 Zn1166 1.923 . S
O1165 Zn1167 1.950 . S
O1165 Zn1168 1.945 . S
Zn1166 O1165 1.923 . S
Zn1166 O1169 1.933 . S
Zn1166 O1172 1.941 . S
Zn1166 O1173 1.965 . S
Zn1167 O1165 1.950 . S
Zn1167 O1174 1.938 . S
Zn1167 O1175 1.906 . S
Zn1167 O1185 1.953 . S
Zn1168 O1165 1.945 . S
Zn1168 O1170 1.932 . S
Zn1168 O1177 1.977 . S
Zn1168 O1178 1.910 . S
O1169 Zn1166 1.933 . S
O1169 C1180 1.226 . S
O1170 Zn1168 1.932 . S
O1170 C1180 1.307 . S
O1171 Zn1164 1.919 . S
O1171 C1182 1.253 . S
O1172 Zn1166 1.941 . S
O1172 C1182 1.283 . S
O1173 Zn1166 1.965 . S
O1173 C1181 1.303 . S
O1174 Zn1167 1.938 . S
O1174 C1181 1.247 . S
O1175 Zn1167 1.906 . S
O1175 C1183 1.304 . S
O1176 Zn1164 1.924 . S
O1176 C1184 1.311 . S
O1177 Zn1168 1.977 . S
O1177 C1183 1.272 . S
O1178 Zn1168 1.910 . S
O1178 C1184 1.231 . S
C1179 O1163 1.225 . S
C1179 O1185 1.298 . S
C1180 O1169 1.226 . S
C1180 O1170 1.307 . S
C1181 O1173 1.303 . S
C1181 O1174 1.247 . S
C1182 O1171 1.253 . S
C1182 O1172 1.283 . S
C1183 O1175 1.304 . S
C1183 O1177 1.272 . S
C1184 O1176 1.311 . S
C1184 O1178 1.231 . S
O1185 Zn1167 1.953 . S
O1185 C1179 1.298 . S
O1186 Zn1187 1.953 . S
O1186 C1202 1.225 . S
Zn1187 O1186 1.953 . S
Zn1187 O1188 1.949 . S
Zn1187 O1194 1.919 . S
Zn1187 O1199 1.924 . S
O1188 Zn1187 1.949 . S
O1188 Zn1189 1.923 . S
O1188 Zn1190 1.950 . S
O1188 Zn1191 1.945 . S
Zn1189 O1188 1.923 . S
Zn1189 O1192 1.933 . S
Zn1189 O1195 1.941 . S
Zn1189 O1196 1.965 . S
Zn1190 O1188 1.950 . S
Zn1190 O1197 1.938 . S
Zn1190 O1198 1.906 . S
Zn1190 O1208 1.953 . S
Zn1191 O1188 1.945 . S
Zn1191 O1193 1.932 . S
Zn1191 O1200 1.977 . S
Zn1191 O1201 1.910 . S
O1192 Zn1189 1.933 . S
O1192 C1203 1.226 . S
O1193 Zn1191 1.932 . S
O1193 C1203 1.307 . S
O1194 Zn1187 1.919 . S
O1194 C1205 1.253 . S
O1195 Zn1189 1.941 . S
O1195 C1205 1.283 . S
O1196 Zn1189 1.965 . S
O1196 C1204 1.303 . S
O1197 Zn1190 1.938 . S
O1197 C1204 1.247 . S
O1198 Zn1190 1.906 . S
O1198 C1206 1.304 . S
O1199 Zn1187 1.924 . S
O1199 C1207 1.311 . S
O1200 Zn1191 1.977 . S
O1200 C1206 1.272 . S
O1201 Zn1191 1.910 . S
O1201 C1207 1.231 . S
C1202 O1186 1.225 . S
C1202 O1208 1.298 . S
C1203 O1192 1.226 . S
C1203 O1193 1.307 . S
C1204 O1196 1.303 . S
C1204 O1197 1.247 . S
C1205 O1194 1.253 . S
C1205 O1195 1.283 . S
C1206 O1198 1.304 . S
C1206 O1200 1.272 . S
C1207 O1199 1.311 . S
C1207 O1201 1.231 . S
O1208 Zn1190 1.953 . S
O1208 C1202 1.298 . S
O1209 Zn1210 1.953 1_455 S
O1209 C1225 1.225 . S
Zn1210 O1209 1.953 1_655 S
Zn1210 O1211 1.949 1_655 S
Zn1210 O1217 1.922 . S
Zn1210 O1222 1.924 1_654 S
O1211 Zn1210 1.949 1_455 S
O1211 Zn1212 1.923 1_455 S
O1211 Zn1213 1.950 . S
O1211 Zn1214 1.945 1_554 S
Zn1212 O1211 1.923 1_655 S
Zn1212 O1215 1.933 . S
Zn1212 O1218 1.941 . S
Zn1212 O1219 1.965 . S
Zn1213 O1211 1.950 . S
Zn1213 O1220 1.938 . S
Zn1213 O1221 1.906 . S
Zn1213 O1231 1.953 . S
Zn1214 O1211 1.945 1_556 S
Zn1214 O1216 1.932 . S
Zn1214 O1223 1.977 1_556 S
Zn1214 O1224 1.910 . S
O1215 Zn1212 1.933 . S
O1215 C1226 1.226 1_554 S
O1216 Zn1214 1.932 . S
O1216 C1226 1.307 1_455 S
O1217 Zn1210 1.922 . S
O1217 C1228 1.258 . S
O1218 Zn1212 1.941 . S
O1218 C1228 1.283 . S
O1219 Zn1212 1.965 . S
O1219 C1227 1.303 . S
O1220 Zn1213 1.938 . S
O1220 C1227 1.247 1_455 S
O1221 Zn1213 1.906 . S
O1221 C1229 1.304 . S
O1222 Zn1210 1.924 1_456 S
O1222 C1230 1.311 . S
O1223 Zn1214 1.977 1_554 S
O1223 C1229 1.272 . S
O1224 Zn1214 1.910 . S
O1224 C1230 1.231 . S
C1225 O1209 1.225 . S
C1225 O1231 1.298 . S
C1226 O1215 1.226 1_556 S
C1226 O1216 1.307 1_655 S
C1227 O1219 1.303 . S
C1227 O1220 1.247 1_655 S
C1228 O1217 1.258 . S
C1228 O1218 1.283 . S
C1229 O1221 1.304 . S
C1229 O1223 1.272 . S
C1230 O1222 1.311 . S
C1230 O1224 1.231 . S
O1231 Zn1213 1.953 . S
O1231 C1225 1.298 . S
H1232 C1240 0.950 . S
H1233 C1245 0.950 . S
H1234 C1242 0.950 . S
H1235 C1244 0.950 . S
H1236 C1246 0.950 . S
H1237 C1248 0.950 . S
H1238 C1250 0.950 . S
H1239 C1251 0.950 . S
C1240 H1232 0.950 . S
C1240 C1241 1.386 . S
C1240 C1242 1.391 . S
C1241 C1240 1.386 . S
C1241 C1245 1.393 1_455 S
C1242 H1234 0.950 . S
C1242 C1240 1.391 . S
C1242 C1243 1.400 1_455 S
C1243 C1242 1.400 1_655 S
C1243 C1244 1.398 . S
C1243 C1249 1.491 . S
C1244 H1235 0.950 . S
C1244 C1243 1.398 . S
C1244 C1245 1.391 . S
C1245 H1233 0.950 . S
C1245 C1241 1.393 1_655 S
C1245 C1244 1.391 . S
C1246 H1236 0.950 . S
C1246 C1247 1.386 . S
C1246 C1248 1.391 . S
C1247 C1246 1.386 . S
C1247 C1251 1.393 1_655 S
C1248 H1237 0.950 . S
C1248 C1246 1.391 . S
C1248 C1249 1.400 . S
C1249 C1243 1.491 . S
C1249 C1248 1.400 . S
C1249 C1250 1.398 1_655 S
C1250 H1238 0.950 . S
C1250 C1249 1.398 1_455 S
C1250 C1251 1.391 . S
C1251 H1239 0.950 . S
C1251 C1247 1.393 1_455 S
C1251 C1250 1.391 . S
H1252 C1260 0.950 . S
H1253 C1265 0.950 . S
H1254 C1262 0.950 . S
H1255 C1264 0.950 . S
H1256 C1266 0.950 . S
H1257 C1268 0.950 . S
H1258 C1270 0.950 . S
H1259 C1271 0.950 . S
C1260 H1252 0.950 . S
C1260 C1261 1.386 . S
C1260 C1262 1.391 . S
C1261 C1260 1.386 . S
C1261 C1265 1.393 . S
C1262 H1254 0.950 . S
C1262 C1260 1.391 . S
C1262 C1263 1.400 . S
C1263 C1262 1.400 . S
C1263 C1264 1.398 . S
C1263 C1269 1.491 . S
C1264 H1255 0.950 . S
C1264 C1263 1.398 . S
C1264 C1265 1.391 . S
C1265 H1253 0.950 . S
C1265 C1261 1.393 . S
C1265 C1264 1.391 . S
C1266 H1256 0.950 . S
C1266 C1267 1.386 . S
C1266 C1268 1.391 . S
C1267 C1266 1.386 . S
C1267 C1271 1.393 . S
C1268 H1257 0.950 . S
C1268 C1266 1.391 . S
C1268 C1269 1.400 . S
C1269 C1263 1.491 . S
C1269 C1268 1.400 . S
C1269 C1270 1.398 . S
C1270 H1258 0.950 . S
C1270 C1269 1.398 . S
C1270 C1271 1.391 . S
C1271 H1259 0.950 . S
C1271 C1267 1.393 . S
C1271 C1270 1.391 . S
H1272 C1280 0.950 . S
H1273 C1285 0.950 . S
H1274 C1282 0.950 . S
H1275 C1284 0.950 . S
H1276 C1286 0.950 . S
H1277 C1288 0.950 . S
H1278 C1290 0.950 . S
H1279 C1291 0.950 . S
C1280 H1272 0.950 . S
C1280 C1281 1.386 . S
C1280 C1282 1.391 . S
C1281 C1280 1.386 . S
C1281 C1285 1.393 . S
C1282 H1274 0.950 . S
C1282 C1280 1.391 . S
C1282 C1283 1.400 . S
C1283 C1282 1.400 . S
C1283 C1284 1.398 . S
C1283 C1289 1.491 . S
C1284 H1275 0.950 . S
C1284 C1283 1.398 . S
C1284 C1285 1.391 . S
C1285 H1273 0.950 . S
C1285 C1281 1.393 . S
C1285 C1284 1.391 . S
C1286 H1276 0.950 . S
C1286 C1287 1.386 . S
C1286 C1288 1.391 . S
C1287 C1286 1.386 . S
C1287 C1291 1.393 . S
C1288 H1277 0.950 . S
C1288 C1286 1.391 . S
C1288 C1289 1.400 . S
C1289 C1283 1.491 . S
C1289 C1288 1.400 . S
C1289 C1290 1.398 . S
C1290 H1278 0.950 . S
C1290 C1289 1.398 . S
C1290 C1291 1.391 . S
C1291 H1279 0.950 . S
C1291 C1287 1.393 . S
C1291 C1290 1.391 . S
H1292 C1300 0.950 . S
H1293 C1305 0.950 . S
H1294 C1302 0.950 . S
H1295 C1304 0.950 . S
H1296 C1306 0.950 . S
H1297 C1308 0.950 . S
H1298 C1310 0.950 . S
H1299 C1311 0.950 . S
C1300 H1292 0.950 . S
C1300 C1301 1.386 . S
C1300 C1302 1.391 . S
C1301 C1300 1.386 . S
C1301 C1305 1.393 . S
C1302 H1294 0.950 . S
C1302 C1300 1.391 . S
C1302 C1303 1.400 . S
C1303 C1302 1.400 . S
C1303 C1304 1.398 . S
C1303 C1309 1.491 . S
C1304 H1295 0.950 . S
C1304 C1303 1.398 . S
C1304 C1305 1.391 . S
C1305 H1293 0.950 . S
C1305 C1301 1.393 . S
C1305 C1304 1.391 . S
C1306 H1296 0.950 . S
C1306 C1307 1.386 . S
C1306 C1308 1.391 . S
C1307 C1306 1.386 . S
C1307 C1311 1.393 . S
C1308 H1297 0.950 . S
C1308 C1306 1.391 . S
C1308 C1309 1.400 . S
C1309 C1303 1.491 . S
C1309 C1308 1.400 . S
C1309 C1310 1.398 . S
C1310 H1298 0.950 . S
C1310 C1309 1.398 . S
C1310 C1311 1.391 . S
C1311 H1299 0.950 . S
C1311 C1307 1.393 . S
C1311 C1310 1.391 . S
H1312 C1320 0.950 . S
H1313 C1325 0.950 . S
H1314 C1322 0.950 . S
H1315 C1324 0.950 . S
H1316 C1326 0.950 . S
H1317 C1328 0.950 . S
H1318 C1330 0.950 . S
H1319 C1331 0.950 . S
C1320 H1312 0.950 . S
C1320 C1321 1.386 1_655 S
C1320 C1322 1.391 . S
C1321 C1320 1.386 1_455 S
C1321 C1325 1.393 . S
C1322 H1314 0.950 . S
C1322 C1320 1.391 . S
C1322 C1323 1.400 1_655 S
C1323 C1322 1.400 1_455 S
C1323 C1324 1.398 . S
C1323 C1329 1.491 1_455 S
C1324 H1315 0.950 . S
C1324 C1323 1.398 . S
C1324 C1325 1.391 . S
C1325 H1313 0.950 . S
C1325 C1321 1.393 . S
C1325 C1324 1.391 . S
C1326 H1316 0.950 . S
C1326 C1327 1.386 1_455 S
C1326 C1328 1.391 . S
C1327 C1326 1.386 1_655 S
C1327 C1331 1.393 . S
C1328 H1317 0.950 . S
C1328 C1326 1.391 . S
C1328 C1329 1.400 1_455 S
C1329 C1323 1.491 1_655 S
C1329 C1328 1.400 1_655 S
C1329 C1330 1.398 . S
C1330 H1318 0.950 . S
C1330 C1329 1.398 . S
C1330 C1331 1.391 . S
C1331 H1319 0.950 . S
C1331 C1327 1.393 . S
C1331 C1330 1.391 . S
H1332 C1340 0.950 . S
H1333 C1345 0.950 . S
H1334 C1342 0.950 . S
H1335 C1344 0.950 . S
H1336 C1346 0.950 . S
H1337 C1348 0.950 . S
H1338 C1350 0.950 . S
H1339 C1351 0.950 . S
C1340 H1332 0.950 . S
C1340 C1341 1.386 . S
C1340 C1342 1.391 . S
C1341 C1340 1.386 . S
C1341 C1345 1.393 . S
C1342 H1334 0.950 . S
C1342 C1340 1.391 . S
C1342 C1343 1.400 . S
C1343 C1342 1.400 . S
C1343 C1344 1.398 . S
C1343 C1349 1.491 . S
C1344 H1335 0.950 . S
C1344 C1343 1.398 . S
C1344 C1345 1.391 . S
C1345 H1333 0.950 . S
C1345 C1341 1.393 . S
C1345 C1344 1.391 . S
C1346 H1336 0.950 . S
C1346 C1347 1.386 . S
C1346 C1348 1.391 . S
C1347 C1346 1.386 . S
C1347 C1351 1.393 . S
C1348 H1337 0.950 . S
C1348 C1346 1.391 . S
C1348 C1349 1.400 . S
C1349 C1343 1.491 . S
C1349 C1348 1.400 . S
C1349 C1350 1.398 . S
C1350 H1338 0.950 . S
C1350 C1349 1.398 . S
C1350 C1351 1.391 . S
C1351 H1339 0.950 . S
C1351 C1347 1.393 . S
C1351 C1350 1.391 . S
H1352 C1360 0.950 . S
H1353 C1365 0.950 . S
H1354 C1362 0.950 . S
H1355 C1364 0.950 . S
H1356 C1366 0.950 . S
H1357 C1368 0.950 . S
H1358 C1370 0.950 . S
H1359 C1371 0.950 . S
C1360 H1352 0.950 . S
C1360 C1361 1.386 . S
C1360 C1362 1.391 . S
C1361 C1360 1.386 . S
C1361 C1365 1.393 . S
C1362 H1354 0.950 . S
C1362 C1360 1.391 . S
C1362 C1363 1.400 . S
C1363 C1362 1.400 . S
C1363 C1364 1.398 . S
C1363 C1369 1.491 . S
C1364 H1355 0.950 . S
C1364 C1363 1.398 . S
C1364 C1365 1.391 . S
C1365 H1353 0.950 . S
C1365 C1361 1.393 . S
C1365 C1364 1.391 . S
C1366 H1356 0.950 . S
C1366 C1367 1.386 . S
C1366 C1368 1.391 . S
C1367 C1366 1.386 . S
C1367 C1371 1.393 . S
C1368 H1357 0.950 . S
C1368 C1366 1.391 . S
C1368 C1369 1.400 . S
C1369 C1363 1.491 . S
C1369 C1368 1.400 . S
C1369 C1370 1.398 . S
C1370 H1358 0.950 . S
C1370 C1369 1.398 . S
C1370 C1371 1.391 . S
C1371 H1359 0.950 . S
C1371 C1367 1.393 . S
C1371 C1370 1.391 . S
H1372 C1380 0.950 . S
H1373 C1385 0.950 . S
H1374 C1382 0.950 . S
H1375 C1384 0.950 . S
H1376 C1386 0.950 . S
H1377 C1388 0.950 . S
H1378 C1390 0.950 . S
H1379 C1391 0.950 . S
C1380 H1372 0.950 . S
C1380 C1381 1.386 . S
C1380 C1382 1.391 . S
C1381 C1380 1.386 . S
C1381 C1385 1.393 . S
C1382 H1374 0.950 . S
C1382 C1380 1.391 . S
C1382 C1383 1.400 . S
C1383 C1382 1.400 . S
C1383 C1384 1.398 . S
C1383 C1389 1.491 . S
C1384 H1375 0.950 . S
C1384 C1383 1.398 . S
C1384 C1385 1.391 . S
C1385 H1373 0.950 . S
C1385 C1381 1.393 . S
C1385 C1384 1.391 . S
C1386 H1376 0.950 . S
C1386 C1387 1.386 . S
C1386 C1388 1.391 . S
C1387 C1386 1.386 . S
C1387 C1391 1.393 . S
C1388 H1377 0.950 . S
C1388 C1386 1.391 . S
C1388 C1389 1.400 . S
C1389 C1383 1.491 . S
C1389 C1388 1.400 . S
C1389 C1390 1.398 . S
C1390 H1378 0.950 . S
C1390 C1389 1.398 . S
C1390 C1391 1.391 . S
C1391 H1379 0.950 . S
C1391 C1387 1.393 . S
C1391 C1390 1.391 . S
H1392 C1400 0.970 . S
H1393 C1405 0.950 . S
H1394 C1402 0.950 . S
H1395 C1404 0.950 . S
H1396 C1406 0.950 . S
H1397 C1408 0.950 . S
H1398 C1410 0.950 . S
H1399 C1411 0.950 . S
C1400 H1392 0.970 . S
C1400 C1401 1.363 1_565 S
C1400 C1402 1.394 . S
C1401 C1400 1.363 1_545 S
C1401 C1405 1.393 . S
C1402 H1394 0.950 . S
C1402 C1400 1.394 . S
C1402 C1403 1.400 1_565 S
C1403 C1402 1.400 1_545 S
C1403 C1404 1.398 . S
C1403 C1409 1.491 . S
C1404 H1395 0.950 . S
C1404 C1403 1.398 . S
C1404 C1405 1.391 . S
C1405 H1393 0.950 . S
C1405 C1401 1.393 . S
C1405 C1404 1.391 . S
C1406 H1396 0.950 . S
C1406 C1407 1.386 . S
C1406 C1408 1.391 . S
C1407 C1406 1.386 . S
C1407 C1411 1.393 1_545 S
C1408 H1397 0.950 . S
C1408 C1406 1.391 . S
C1408 C1409 1.400 . S
C1409 C1403 1.491 . S
C1409 C1408 1.400 . S
C1409 C1410 1.398 1_545 S
C1410 H1398 0.950 . S
C1410 C1409 1.398 1_565 S
C1410 C1411 1.391 . S
C1411 H1399 0.950 . S
C1411 C1407 1.393 1_565 S
C1411 C1410 1.391 . S
H1412 C1420 0.950 . S
H1413 C1425 0.950 . S
H1414 C1422 0.950 . S
H1415 C1424 0.950 . S
H1416 C1426 0.950 . S
H1417 C1428 0.950 . S
H1418 C1430 0.950 . S
H1419 C1431 0.950 . S
C1420 H1412 0.950 . S
C1420 C1421 1.386 . S
C1420 C1422 1.391 . S
C1421 C1420 1.386 . S
C1421 C1425 1.393 . S
C1422 H1414 0.950 . S
C1422 C1420 1.391 . S
C1422 C1423 1.400 . S
C1423 C1422 1.400 . S
C1423 C1424 1.398 . S
C1423 C1429 1.491 . S
C1424 H1415 0.950 . S
C1424 C1423 1.398 . S
C1424 C1425 1.391 . S
C1425 H1413 0.950 . S
C1425 C1421 1.393 . S
C1425 C1424 1.391 . S
C1426 H1416 0.950 . S
C1426 C1427 1.386 . S
C1426 C1428 1.391 . S
C1427 C1426 1.386 . S
C1427 C1431 1.393 . S
C1428 H1417 0.950 . S
C1428 C1426 1.391 . S
C1428 C1429 1.400 . S
C1429 C1423 1.491 . S
C1429 C1428 1.400 . S
C1429 C1430 1.398 . S
C1430 H1418 0.950 . S
C1430 C1429 1.398 . S
C1430 C1431 1.391 . S
C1431 H1419 0.950 . S
C1431 C1427 1.393 . S
C1431 C1430 1.391 . S
H1432 C1440 0.950 . S
H1433 C1445 0.950 . S
H1434 C1442 0.950 . S
H1435 C1444 0.950 . S
H1436 C1446 0.950 . S
H1437 C1448 0.950 . S
H1438 C1450 0.950 . S
H1439 C1451 0.950 . S
C1440 H1432 0.950 . S
C1440 C1441 1.403 . S
C1440 C1442 1.391 . S
C1441 C1440 1.403 . S
C1441 C1445 1.377 1_545 S
C1442 H1434 0.950 . S
C1442 C1440 1.391 . S
C1442 C1443 1.400 . S
C1443 C1442 1.400 . S
C1443 C1444 1.398 1_545 S
C1443 C1449 1.491 . S
C1444 H1435 0.950 . S
C1444 C1443 1.398 1_565 S
C1444 C1445 1.391 . S
C1445 H1433 0.950 . S
C1445 C1441 1.377 1_565 S
C1445 C1444 1.391 . S
C1446 H1436 0.950 . S
C1446 C1447 1.386 1_565 S
C1446 C1448 1.391 . S
C1447 C1446 1.386 1_545 S
C1447 C1451 1.393 . S
C1448 H1437 0.950 . S
C1448 C1446 1.391 . S
C1448 C1449 1.400 1_565 S
C1449 C1443 1.491 . S
C1449 C1448 1.400 1_545 S
C1449 C1450 1.398 . S
C1450 H1438 0.950 . S
C1450 C1449 1.398 . S
C1450 C1451 1.391 . S
C1451 H1439 0.950 . S
C1451 C1447 1.393 . S
C1451 C1450 1.391 . S
H1452 C1460 0.950 . S
H1453 C1465 0.950 . S
H1454 C1462 0.950 . S
H1455 C1464 0.950 . S
H1456 C1466 0.950 . S
H1457 C1468 0.950 . S
H1458 C1470 0.950 . S
H1459 C1471 0.950 . S
C1460 H1452 0.950 . S
C1460 C1461 1.386 . S
C1460 C1462 1.391 . S
C1461 C1460 1.386 . S
C1461 C1465 1.393 . S
C1462 H1454 0.950 . S
C1462 C1460 1.391 . S
C1462 C1463 1.400 . S
C1463 C1462 1.400 . S
C1463 C1464 1.398 . S
C1463 C1469 1.491 . S
C1464 H1455 0.950 . S
C1464 C1463 1.398 . S
C1464 C1465 1.391 . S
C1465 H1453 0.950 . S
C1465 C1461 1.393 . S
C1465 C1464 1.391 . S
C1466 H1456 0.950 . S
C1466 C1467 1.386 . S
C1466 C1468 1.391 . S
C1467 C1466 1.386 . S
C1467 C1471 1.393 . S
C1468 H1457 0.950 . S
C1468 C1466 1.391 . S
C1468 C1469 1.400 . S
C1469 C1463 1.491 . S
C1469 C1468 1.400 . S
C1469 C1470 1.398 . S
C1470 H1458 0.950 . S
C1470 C1469 1.398 . S
C1470 C1471 1.391 . S
C1471 H1459 0.950 . S
C1471 C1467 1.393 . S
C1471 C1470 1.391 . S
H1472 C1480 0.950 . S
H1473 C1485 0.950 1_565 S
H1474 C1482 0.950 . S
H1475 C1484 0.950 1_565 S
H1476 C1486 0.950 1_565 S
H1477 C1488 0.950 1_565 S
H1478 C1490 0.950 . S
H1479 C1491 0.950 . S
C1480 H1472 0.950 . S
C1480 C1481 1.386 . S
C1480 C1482 1.391 . S
C1481 C1480 1.386 . S
C1481 C1485 1.393 . S
C1482 H1474 0.950 . S
C1482 C1480 1.391 . S
C1482 C1483 1.400 . S
C1483 C1482 1.400 . S
C1483 C1484 1.398 . S
C1483 C1489 1.491 . S
C1484 H1475 0.950 1_545 S
C1484 C1483 1.398 . S
C1484 C1485 1.391 . S
C1485 H1473 0.950 1_545 S
C1485 C1481 1.393 . S
C1485 C1484 1.391 . S
C1486 H1476 0.950 1_545 S
C1486 C1487 1.386 . S
C1486 C1488 1.391 . S
C1487 C1486 1.386 . S
C1487 C1491 1.393 . S
C1488 H1477 0.950 1_545 S
C1488 C1486 1.391 . S
C1488 C1489 1.400 . S
C1489 C1483 1.491 . S
C1489 C1488 1.400 . S
C1489 C1490 1.398 . S
C1490 H1478 0.950 . S
C1490 C1489 1.398 . S
C1490 C1491 1.391 . S
C1491 H1479 0.950 . S
C1491 C1487 1.393 . S
C1491 C1490 1.391 . S
H1492 C1500 0.950 . S
H1493 C1505 0.950 . S
H1494 C1502 0.950 . S
H1495 C1504 0.950 . S
H1496 C1506 0.950 . S
H1497 C1508 0.950 . S
H1498 C1510 0.950 . S
H1499 C1511 0.950 . S
C1500 H1492 0.950 . S
C1500 C1501 1.386 . S
C1500 C1502 1.391 . S
C1501 C1500 1.386 . S
C1501 C1505 1.393 . S
C1502 H1494 0.950 . S
C1502 C1500 1.391 . S
C1502 C1503 1.400 . S
C1503 C1502 1.400 . S
C1503 C1504 1.398 . S
C1503 C1509 1.491 . S
C1504 H1495 0.950 . S
C1504 C1503 1.398 . S
C1504 C1505 1.391 . S
C1505 H1493 0.950 . S
C1505 C1501 1.393 . S
C1505 C1504 1.391 . S
C1506 H1496 0.950 . S
C1506 C1507 1.386 . S
C1506 C1508 1.391 . S
C1507 C1506 1.386 . S
C1507 C1511 1.393 . S
C1508 H1497 0.950 . S
C1508 C1506 1.391 . S
C1508 C1509 1.400 . S
C1509 C1503 1.491 . S
C1509 C1508 1.400 . S
C1509 C1510 1.398 . S
C1510 H1498 0.950 . S
C1510 C1509 1.398 . S
C1510 C1511 1.391 . S
C1511 H1499 0.950 . S
C1511 C1507 1.393 . S
C1511 C1510 1.391 . S
H1512 C1520 0.950 . S
H1513 C1525 0.950 . S
H1514 C1522 0.950 . S
H1515 C1524 0.950 . S
H1516 C1526 0.950 . S
H1517 C1528 0.950 . S
H1518 C1530 0.950 . S
H1519 C1531 0.950 . S
C1520 H1512 0.950 . S
C1520 C1521 1.384 . S
C1520 C1522 1.391 . S
C1521 C1520 1.384 . S
C1521 C1525 1.394 1_565 S
C1522 H1514 0.950 . S
C1522 C1520 1.391 . S
C1522 C1523 1.400 . S
C1523 C1522 1.400 . S
C1523 C1524 1.398 1_565 S
C1523 C1529 1.491 . S
C1524 H1515 0.950 . S
C1524 C1523 1.398 1_545 S
C1524 C1525 1.391 . S
C1525 H1513 0.950 . S
C1525 C1521 1.394 1_545 S
C1525 C1524 1.391 . S
C1526 H1516 0.950 . S
C1526 C1527 1.386 1_545 S
C1526 C1528 1.391 . S
C1527 C1526 1.386 1_565 S
C1527 C1531 1.393 . S
C1528 H1517 0.950 . S
C1528 C1526 1.391 . S
C1528 C1529 1.400 1_545 S
C1529 C1523 1.491 . S
C1529 C1528 1.400 1_565 S
C1529 C1530 1.398 . S
C1530 H1518 0.950 . S
C1530 C1529 1.398 . S
C1530 C1531 1.391 . S
C1531 H1519 0.950 . S
C1531 C1527 1.393 . S
C1531 C1530 1.391 . S
H1532 C1540 0.950 . S
H1533 C1545 0.950 . S
H1534 C1542 0.950 . S
H1535 C1544 0.950 . S
H1536 C1546 0.950 . S
H1537 C1548 0.950 . S
H1538 C1550 0.950 . S
H1539 C1551 0.950 . S
C1540 H1532 0.950 . S
C1540 C1541 1.386 . S
C1540 C1542 1.391 . S
C1541 C1540 1.386 . S
C1541 C1545 1.393 . S
C1542 H1534 0.950 . S
C1542 C1540 1.391 . S
C1542 C1543 1.400 . S
C1543 C1542 1.400 . S
C1543 C1544 1.398 . S
C1543 C1549 1.491 . S
C1544 H1535 0.950 . S
C1544 C1543 1.398 . S
C1544 C1545 1.391 . S
C1545 H1533 0.950 . S
C1545 C1541 1.393 . S
C1545 C1544 1.391 . S
C1546 H1536 0.950 . S
C1546 C1547 1.386 . S
C1546 C1548 1.391 . S
C1547 C1546 1.386 . S
C1547 C1551 1.393 . S
C1548 H1537 0.950 . S
C1548 C1546 1.391 . S
C1548 C1549 1.400 . S
C1549 C1543 1.491 . S
C1549 C1548 1.400 . S
C1549 C1550 1.398 . S
C1550 H1538 0.950 . S
C1550 C1549 1.398 . S
C1550 C1551 1.391 . S
C1551 H1539 0.950 . S
C1551 C1547 1.393 . S
C1551 C1550 1.391 . S
H1552 C1560 0.950 . S
H1553 C1565 0.950 . S
H1554 C1562 0.950 . S
H1555 C1564 0.949 . S
H1556 C1566 0.952 1_565 S
H1557 C1568 0.950 1_556 S
H1558 C1570 0.950 . S
H1559 C1571 0.950 . S
C1560 H1552 0.950 . S
C1560 C1561 1.386 . S
C1560 C1562 1.391 . S
C1561 C1560 1.386 . S
C1561 C1565 1.393 . S
C1562 H1554 0.950 . S
C1562 C1560 1.391 . S
C1562 C1563 1.400 . S
C1563 C1562 1.400 . S
C1563 C1564 1.398 . S
C1563 C1569 1.491 . S
C1564 H1555 0.949 . S
C1564 C1563 1.398 . S
C1564 C1565 1.391 . S
C1565 H1553 0.950 . S
C1565 C1561 1.393 . S
C1565 C1564 1.391 . S
C1566 H1556 0.952 1_545 S
C1566 C1567 1.385 1_556 S
C1566 C1568 1.390 1_556 S
C1567 C1566 1.385 1_554 S
C1567 C1571 1.393 . S
C1568 H1557 0.950 1_554 S
C1568 C1566 1.390 1_554 S
C1568 C1569 1.400 . S
C1569 C1563 1.491 . S
C1569 C1568 1.400 . S
C1569 C1570 1.398 . S
C1570 H1558 0.950 . S
C1570 C1569 1.398 . S
C1570 C1571 1.391 . S
C1571 H1559 0.950 . S
C1571 C1567 1.393 . S
C1571 C1570 1.391 . S
H1572 C1580 0.950 . S
H1573 C1585 0.950 . S
H1574 C1582 0.950 . S
H1575 C1584 0.950 . S
H1576 C1586 0.950 . S
H1577 C1588 0.950 . S
H1578 C1590 0.950 . S
H1579 C1591 0.950 . S
C1580 H1572 0.950 . S
C1580 C1581 1.386 . S
C1580 C1582 1.391 . S
C1581 C1580 1.386 . S
C1581 C1585 1.393 1_554 S
C1582 H1574 0.950 . S
C1582 C1580 1.391 . S
C1582 C1583 1.400 . S
C1583 C1582 1.400 . S
C1583 C1584 1.398 1_554 S
C1583 C1589 1.491 . S
C1584 H1575 0.950 . S
C1584 C1583 1.398 1_556 S
C1584 C1585 1.391 . S
C1585 H1573 0.950 . S
C1585 C1581 1.393 1_556 S
C1585 C1584 1.391 . S
C1586 H1576 0.950 . S
C1586 C1587 1.386 1_556 S
C1586 C1588 1.391 . S
C1587 C1586 1.386 1_554 S
C1587 C1591 1.393 . S
C1588 H1577 0.950 . S
C1588 C1586 1.391 . S
C1588 C1589 1.400 1_556 S
C1589 C1583 1.491 . S
C1589 C1588 1.400 1_554 S
C1589 C1590 1.398 . S
C1590 H1578 0.950 . S
C1590 C1589 1.398 . S
C1590 C1591 1.391 . S
C1591 H1579 0.950 . S
C1591 C1587 1.393 . S
C1591 C1590 1.391 . S
H1592 C1600 0.950 . S
H1593 C1605 0.950 . S
H1594 C1602 0.950 . S
H1595 C1604 0.950 . S
H1596 C1606 0.950 . S
H1597 C1608 0.950 . S
H1598 C1610 0.950 . S
H1599 C1611 0.950 . S
C1600 H1592 0.950 . S
C1600 C1601 1.386 . S
C1600 C1602 1.391 . S
C1601 C1600 1.386 . S
C1601 C1605 1.393 . S
C1602 H1594 0.950 . S
C1602 C1600 1.391 . S
C1602 C1603 1.400 . S
C1603 C1602 1.400 . S
C1603 C1604 1.398 . S
C1603 C1609 1.491 . S
C1604 H1595 0.950 . S
C1604 C1603 1.398 . S
C1604 C1605 1.391 . S
C1605 H1593 0.950 . S
C1605 C1601 1.393 . S
C1605 C1604 1.391 . S
C1606 H1596 0.950 . S
C1606 C1607 1.386 . S
C1606 C1608 1.391 . S
C1607 C1606 1.386 . S
C1607 C1611 1.393 . S
C1608 H1597 0.950 . S
C1608 C1606 1.391 . S
C1608 C1609 1.400 . S
C1609 C1603 1.491 . S
C1609 C1608 1.400 . S
C1609 C1610 1.398 . S
C1610 H1598 0.950 . S
C1610 C1609 1.398 . S
C1610 C1611 1.391 . S
C1611 H1599 0.950 . S
C1611 C1607 1.393 . S
C1611 C1610 1.391 . S
H1612 C1620 0.950 . S
H1613 C1625 0.950 . S
H1614 C1622 0.950 . S
H1615 C1624 0.950 . S
H1616 C1626 0.950 . S
H1617 C1628 0.950 . S
H1618 C1630 0.950 . S
H1619 C1631 0.950 . S
C1620 H1612 0.950 . S
C1620 C1621 1.386 . S
C1620 C1622 1.391 . S
C1621 C1620 1.386 . S
C1621 C1625 1.393 . S
C1622 H1614 0.950 . S
C1622 C1620 1.391 . S
C1622 C1623 1.400 . S
C1623 C1622 1.400 . S
C1623 C1624 1.398 . S
C1623 C1629 1.491 . S
C1624 H1615 0.950 . S
C1624 C1623 1.398 . S
C1624 C1625 1.391 . S
C1625 H1613 0.950 . S
C1625 C1621 1.393 . S
C1625 C1624 1.391 . S
C1626 H1616 0.950 . S
C1626 C1627 1.386 . S
C1626 C1628 1.391 . S
C1627 C1626 1.386 . S
C1627 C1631 1.393 . S
C1628 H1617 0.950 . S
C1628 C1626 1.391 . S
C1628 C1629 1.400 . S
C1629 C1623 1.491 . S
C1629 C1628 1.400 . S
C1629 C1630 1.398 . S
C1630 H1618 0.950 . S
C1630 C1629 1.398 . S
C1630 C1631 1.391 . S
C1631 H1619 0.950 . S
C1631 C1627 1.393 . S
C1631 C1630 1.391 . S
H1632 C1640 0.950 . S
H1633 C1645 0.950 . S
H1634 C1642 0.950 . S
H1635 C1644 0.950 . S
H1636 C1646 0.950 . S
H1637 C1648 0.950 . S
H1638 C1650 0.950 . S
H1639 C1651 0.950 . S
C1640 H1632 0.950 . S
C1640 C1641 1.386 . S
C1640 C1642 1.391 . S
C1641 C1640 1.386 . S
C1641 C1645 1.393 . S
C1642 H1634 0.950 . S
C1642 C1640 1.391 . S
C1642 C1643 1.400 . S
C1643 C1642 1.400 . S
C1643 C1644 1.398 . S
C1643 C1649 1.491 . S
C1644 H1635 0.950 . S
C1644 C1643 1.398 . S
C1644 C1645 1.391 . S
C1645 H1633 0.950 . S
C1645 C1641 1.393 . S
C1645 C1644 1.391 . S
C1646 H1636 0.950 . S
C1646 C1647 1.386 . S
C1646 C1648 1.391 . S
C1647 C1646 1.386 . S
C1647 C1651 1.393 . S
C1648 H1637 0.950 . S
C1648 C1646 1.391 . S
C1648 C1649 1.400 . S
C1649 C1643 1.491 . S
C1649 C1648 1.400 . S
C1649 C1650 1.398 . S
C1650 H1638 0.950 . S
C1650 C1649 1.398 . S
C1650 C1651 1.391 . S
C1651 H1639 0.950 . S
C1651 C1647 1.393 . S
C1651 C1650 1.391 . S
H1652 C1660 0.950 . S
H1653 C1665 0.950 . S
H1654 C1662 0.950 . S
H1655 C1664 0.950 . S
H1656 C1666 0.968 . S
H1657 C1668 0.950 . S
H1658 C1670 0.950 . S
H1659 C1671 0.950 . S
C1660 H1652 0.950 . S
C1660 C1661 1.386 . S
C1660 C1662 1.391 . S
C1661 C1660 1.386 . S
C1661 C1665 1.393 . S
C1662 H1654 0.950 . S
C1662 C1660 1.391 . S
C1662 C1663 1.400 . S
C1663 C1662 1.400 . S
C1663 C1664 1.398 . S
C1663 C1669 1.491 . S
C1664 H1655 0.950 . S
C1664 C1663 1.398 . S
C1664 C1665 1.391 . S
C1665 H1653 0.950 . S
C1665 C1661 1.393 . S
C1665 C1664 1.391 . S
C1666 H1656 0.968 . S
C1666 C1667 1.379 1_545 S
C1666 C1668 1.380 1_545 S
C1667 C1666 1.379 1_565 S
C1667 C1671 1.393 . S
C1668 H1657 0.950 . S
C1668 C1666 1.380 1_565 S
C1668 C1669 1.400 . S
C1669 C1663 1.491 . S
C1669 C1668 1.400 . S
C1669 C1670 1.398 . S
C1670 H1658 0.950 . S
C1670 C1669 1.398 . S
C1670 C1671 1.391 . S
C1671 H1659 0.950 . S
C1671 C1667 1.393 . S
C1671 C1670 1.391 . S
H1672 C1680 0.950 . S
H1673 C1685 0.950 . S
H1674 C1682 0.950 . S
H1675 C1684 0.950 . S
H1676 C1686 0.950 . S
H1677 C1688 0.950 . S
H1678 C1690 0.950 . S
H1679 C1691 0.950 . S
C1680 H1672 0.950 . S
C1680 C1681 1.386 . S
C1680 C1682 1.391 . S
C1681 C1680 1.386 . S
C1681 C1685 1.393 . S
C1682 H1674 0.950 . S
C1682 C1680 1.391 . S
C1682 C1683 1.400 . S
C1683 C1682 1.400 . S
C1683 C1684 1.398 . S
C1683 C1689 1.491 . S
C1684 H1675 0.950 . S
C1684 C1683 1.398 . S
C1684 C1685 1.391 . S
C1685 H1673 0.950 . S
C1685 C1681 1.393 . S
C1685 C1684 1.391 . S
C1686 H1676 0.950 . S
C1686 C1687 1.386 . S
C1686 C1688 1.391 . S
C1687 C1686 1.386 . S
C1687 C1691 1.393 . S
C1688 H1677 0.950 . S
C1688 C1686 1.391 . S
C1688 C1689 1.400 . S
C1689 C1683 1.491 . S
C1689 C1688 1.400 . S
C1689 C1690 1.398 . S
C1690 H1678 0.950 . S
C1690 C1689 1.398 . S
C1690 C1691 1.391 . S
C1691 H1679 0.950 . S
C1691 C1687 1.393 . S
C1691 C1690 1.391 . S
H1692 C1700 0.950 . S
H1693 C1705 0.950 . S
H1694 C1702 0.950 . S
H1695 C1704 0.950 . S
H1696 C1706 0.950 . S
H1697 C1708 0.950 . S
H1698 C1710 0.950 . S
H1699 C1711 0.950 . S
C1700 H1692 0.950 . S
C1700 C1701 1.386 . S
C1700 C1702 1.391 . S
C1701 C1700 1.386 . S
C1701 C1705 1.393 . S
C1702 H1694 0.950 . S
C1702 C1700 1.391 . S
C1702 C1703 1.400 . S
C1703 C1702 1.400 . S
C1703 C1704 1.398 . S
C1703 C1709 1.491 . S
C1704 H1695 0.950 . S
C1704 C1703 1.398 . S
C1704 C1705 1.391 . S
C1705 H1693 0.950 . S
C1705 C1701 1.393 . S
C1705 C1704 1.391 . S
C1706 H1696 0.950 . S
C1706 C1707 1.386 . S
C1706 C1708 1.391 . S
C1707 C1706 1.386 . S
C1707 C1711 1.393 . S
C1708 H1697 0.950 . S
C1708 C1706 1.391 . S
C1708 C1709 1.400 . S
C1709 C1703 1.491 . S
C1709 C1708 1.400 . S
C1709 C1710 1.398 . S
C1710 H1698 0.950 . S
C1710 C1709 1.398 . S
C1710 C1711 1.391 . S
C1711 H1699 0.950 . S
C1711 C1707 1.393 . S
C1711 C1710 1.391 . S
H1712 C1720 0.950 . S
H1713 C1725 0.950 . S
H1714 C1722 0.950 . S
H1715 C1724 0.950 . S
H1716 C1726 0.950 . S
H1717 C1728 0.950 . S
H1718 C1730 0.950 . S
H1719 C1731 0.950 . S
C1720 H1712 0.950 . S
C1720 C1721 1.386 . S
C1720 C1722 1.391 . S
C1721 C1720 1.386 . S
C1721 C1725 1.393 1_455 S
C1722 H1714 0.950 . S
C1722 C1720 1.391 . S
C1722 C1723 1.400 . S
C1723 C1722 1.400 . S
C1723 C1724 1.398 1_455 S
C1723 C1729 1.491 . S
C1724 H1715 0.950 . S
C1724 C1723 1.398 1_655 S
C1724 C1725 1.391 . S
C1725 H1713 0.950 . S
C1725 C1721 1.393 1_655 S
C1725 C1724 1.391 . S
C1726 H1716 0.950 . S
C1726 C1727 1.386 1_655 S
C1726 C1728 1.391 . S
C1727 C1726 1.386 1_455 S
C1727 C1731 1.393 . S
C1728 H1717 0.950 . S
C1728 C1726 1.391 . S
C1728 C1729 1.400 1_655 S
C1729 C1723 1.491 . S
C1729 C1728 1.400 1_455 S
C1729 C1730 1.398 . S
C1730 H1718 0.950 . S
C1730 C1729 1.398 . S
C1730 C1731 1.391 . S
C1731 H1719 0.950 . S
C1731 C1727 1.393 . S
C1731 C1730 1.391 . S
H1732 C1740 0.950 . S
H1733 C1745 0.950 . S
H1734 C1742 0.950 . S
H1735 C1744 0.950 . S
H1736 C1746 0.950 . S
H1737 C1748 0.950 . S
H1738 C1750 0.950 . S
H1739 C1751 0.950 . S
C1740 H1732 0.950 . S
C1740 C1741 1.386 . S
C1740 C1742 1.391 . S
C1741 C1740 1.386 . S
C1741 C1745 1.393 . S
C1742 H1734 0.950 . S
C1742 C1740 1.391 . S
C1742 C1743 1.400 . S
C1743 C1742 1.400 . S
C1743 C1744 1.398 . S
C1743 C1749 1.491 . S
C1744 H1735 0.950 . S
C1744 C1743 1.398 . S
C1744 C1745 1.391 . S
C1745 H1733 0.950 . S
C1745 C1741 1.393 . S
C1745 C1744 1.391 . S
C1746 H1736 0.950 . S
C1746 C1747 1.386 . S
C1746 C1748 1.391 . S
C1747 C1746 1.386 . S
C1747 C1751 1.393 . S
C1748 H1737 0.950 . S
C1748 C1746 1.391 . S
C1748 C1749 1.400 . S
C1749 C1743 1.491 . S
C1749 C1748 1.400 . S
C1749 C1750 1.398 . S
C1750 H1738 0.950 . S
C1750 C1749 1.398 . S
C1750 C1751 1.391 . S
C1751 H1739 0.950 . S
C1751 C1747 1.393 . S
C1751 C1750 1.391 . S
H1752 C1760 0.950 . S
H1753 C1765 0.950 . S
H1754 C1762 0.950 . S
H1755 C1764 0.950 . S
H1756 C1766 0.950 . S
H1757 C1768 0.950 . S
H1758 C1770 0.950 . S
H1759 C1771 0.950 . S
C1760 H1752 0.950 . S
C1760 C1761 1.386 . S
C1760 C1762 1.391 . S
C1761 C1760 1.386 . S
C1761 C1765 1.393 . S
C1762 H1754 0.950 . S
C1762 C1760 1.391 . S
C1762 C1763 1.400 . S
C1763 C1762 1.400 . S
C1763 C1764 1.398 . S
C1763 C1769 1.491 . S
C1764 H1755 0.950 . S
C1764 C1763 1.398 . S
C1764 C1765 1.391 . S
C1765 H1753 0.950 . S
C1765 C1761 1.393 . S
C1765 C1764 1.391 . S
C1766 H1756 0.950 . S
C1766 C1767 1.386 . S
C1766 C1768 1.391 . S
C1767 C1766 1.386 . S
C1767 C1771 1.393 . S
C1768 H1757 0.950 . S
C1768 C1766 1.391 . S
C1768 C1769 1.400 . S
C1769 C1763 1.491 . S
C1769 C1768 1.400 . S
C1769 C1770 1.398 . S
C1770 H1758 0.950 . S
C1770 C1769 1.398 . S
C1770 C1771 1.391 . S
C1771 H1759 0.950 . S
C1771 C1767 1.393 . S
C1771 C1770 1.391 . S
H1772 C1780 0.950 . S
H1773 C1785 0.950 . S
H1774 C1782 0.950 . S
H1775 C1784 0.950 . S
H1776 C1786 0.950 . S
H1777 C1788 0.950 . S
H1778 C1790 0.950 . S
H1779 C1791 0.950 . S
C1780 H1772 0.950 . S
C1780 C1781 1.386 . S
C1780 C1782 1.391 . S
C1781 C1780 1.386 . S
C1781 C1785 1.393 . S
C1782 H1774 0.950 . S
C1782 C1780 1.391 . S
C1782 C1783 1.400 . S
C1783 C1782 1.400 . S
C1783 C1784 1.398 . S
C1783 C1789 1.491 . S
C1784 H1775 0.950 . S
C1784 C1783 1.398 . S
C1784 C1785 1.391 . S
C1785 H1773 0.950 . S
C1785 C1781 1.393 . S
C1785 C1784 1.391 . S
C1786 H1776 0.950 . S
C1786 C1787 1.386 . S
C1786 C1788 1.391 . S
C1787 C1786 1.386 . S
C1787 C1791 1.393 . S
C1788 H1777 0.950 . S
C1788 C1786 1.391 . S
C1788 C1789 1.400 . S
C1789 C1783 1.491 . S
C1789 C1788 1.400 . S
C1789 C1790 1.398 . S
C1790 H1778 0.950 . S
C1790 C1789 1.398 . S
C1790 C1791 1.391 . S
C1791 H1779 0.950 . S
C1791 C1787 1.393 . S
C1791 C1790 1.391 . S
H1792 C1800 0.950 . S
H1793 C1805 0.950 . S
H1794 C1802 0.950 . S
H1795 C1804 0.950 . S
H1796 C1806 0.950 . S
H1797 C1808 0.950 . S
H1798 C1810 0.950 1_655 S
H1799 C1811 0.950 1_655 S
C1800 H1792 0.950 . S
C1800 C1801 1.386 1_655 S
C1800 C1802 1.391 . S
C1801 C1800 1.386 1_455 S
C1801 C1805 1.393 . S
C1802 H1794 0.950 . S
C1802 C1800 1.391 . S
C1802 C1803 1.400 1_655 S
C1803 C1802 1.400 1_455 S
C1803 C1804 1.398 . S
C1803 C1809 1.491 . S
C1804 H1795 0.950 . S
C1804 C1803 1.398 . S
C1804 C1805 1.391 . S
C1805 H1793 0.950 . S
C1805 C1801 1.393 . S
C1805 C1804 1.391 . S
C1806 H1796 0.950 . S
C1806 C1807 1.386 . S
C1806 C1808 1.391 . S
C1807 C1806 1.386 . S
C1807 C1811 1.393 . S
C1808 H1797 0.950 . S
C1808 C1806 1.391 . S
C1808 C1809 1.400 . S
C1809 C1803 1.491 . S
C1809 C1808 1.400 . S
C1809 C1810 1.398 . S
C1810 H1798 0.950 1_455 S
C1810 C1809 1.398 . S
C1810 C1811 1.391 . S
C1811 H1799 0.950 1_455 S
C1811 C1807 1.393 . S
C1811 C1810 1.391 . S
H1812 C1820 0.950 . S
H1813 C1825 0.950 . S
H1814 C1822 0.950 . S
H1815 C1824 0.950 . S
H1816 C1826 0.950 . S
H1817 C1828 0.950 . S
H1818 C1830 0.950 . S
H1819 C1831 0.950 . S
C1820 H1812 0.950 . S
C1820 C1821 1.386 . S
C1820 C1822 1.391 . S
C1821 C1820 1.386 . S
C1821 C1825 1.393 . S
C1822 H1814 0.950 . S
C1822 C1820 1.391 . S
C1822 C1823 1.400 . S
C1823 C1822 1.400 . S
C1823 C1824 1.398 . S
C1823 C1829 1.491 . S
C1824 H1815 0.950 . S
C1824 C1823 1.398 . S
C1824 C1825 1.391 . S
C1825 H1813 0.950 . S
C1825 C1821 1.393 . S
C1825 C1824 1.391 . S
C1826 H1816 0.950 . S
C1826 C1827 1.386 . S
C1826 C1828 1.391 . S
C1827 C1826 1.386 . S
C1827 C1831 1.393 . S
C1828 H1817 0.950 . S
C1828 C1826 1.391 . S
C1828 C1829 1.400 . S
C1829 C1823 1.491 . S
C1829 C1828 1.400 . S
C1829 C1830 1.398 . S
C1830 H1818 0.950 . S
C1830 C1829 1.398 . S
C1830 C1831 1.391 . S
C1831 H1819 0.950 . S
C1831 C1827 1.393 . S
C1831 C1830 1.391 . S
H1832 C1840 0.950 . S
H1833 C1845 0.950 . S
H1834 C1842 0.950 . S
H1835 C1844 0.950 . S
H1836 C1846 0.950 . S
H1837 C1848 0.950 . S
H1838 C1850 0.950 . S
H1839 C1851 0.950 . S
C1840 H1832 0.950 . S
C1840 C1841 1.386 . S
C1840 C1842 1.391 . S
C1841 C1840 1.386 . S
C1841 C1845 1.393 . S
C1842 H1834 0.950 . S
C1842 C1840 1.391 . S
C1842 C1843 1.400 . S
C1843 C1842 1.400 . S
C1843 C1844 1.398 . S
C1843 C1849 1.491 . S
C1844 H1835 0.950 . S
C1844 C1843 1.398 . S
C1844 C1845 1.391 . S
C1845 H1833 0.950 . S
C1845 C1841 1.393 . S
C1845 C1844 1.391 . S
C1846 H1836 0.950 . S
C1846 C1847 1.386 . S
C1846 C1848 1.391 . S
C1847 C1846 1.386 . S
C1847 C1851 1.393 . S
C1848 H1837 0.950 . S
C1848 C1846 1.391 . S
C1848 C1849 1.400 . S
C1849 C1843 1.491 . S
C1849 C1848 1.400 . S
C1849 C1850 1.398 . S
C1850 H1838 0.950 . S
C1850 C1849 1.398 . S
C1850 C1851 1.391 . S
C1851 H1839 0.950 . S
C1851 C1847 1.393 . S
C1851 C1850 1.391 . S
H1852 C1860 0.950 . S
H1853 C1865 0.950 . S
H1854 C1862 0.950 . S
H1855 C1864 0.950 . S
H1856 C1866 0.950 . S
H1857 C1868 0.950 . S
H1858 C1870 0.950 . S
H1859 C1871 0.950 . S
C1860 H1852 0.950 . S
C1860 C1861 1.386 . S
C1860 C1862 1.391 . S
C1861 C1860 1.386 . S
C1861 C1865 1.393 . S
C1862 H1854 0.950 . S
C1862 C1860 1.391 . S
C1862 C1863 1.400 . S
C1863 C1862 1.400 . S
C1863 C1864 1.398 . S
C1863 C1869 1.491 . S
C1864 H1855 0.950 . S
C1864 C1863 1.398 . S
C1864 C1865 1.391 . S
C1865 H1853 0.950 . S
C1865 C1861 1.393 . S
C1865 C1864 1.391 . S
C1866 H1856 0.950 . S
C1866 C1867 1.386 . S
C1866 C1868 1.391 . S
C1867 C1866 1.386 . S
C1867 C1871 1.393 . S
C1868 H1857 0.950 . S
C1868 C1866 1.391 . S
C1868 C1869 1.400 . S
C1869 C1863 1.491 . S
C1869 C1868 1.400 . S
C1869 C1870 1.398 . S
C1870 H1858 0.950 . S
C1870 C1869 1.398 . S
C1870 C1871 1.391 . S
C1871 H1859 0.950 . S
C1871 C1867 1.393 . S
C1871 C1870 1.391 . S
H1872 C1880 0.950 1_565 S
H1873 C1885 0.950 . S
H1874 C1882 0.950 1_565 S
H1875 C1884 0.950 . S
H1876 C1886 0.950 . S
H1877 C1888 0.950 . S
H1878 C1890 0.950 . S
H1879 C1891 0.950 . S
C1880 H1872 0.950 1_545 S
C1880 C1881 1.386 . S
C1880 C1882 1.391 . S
C1881 C1880 1.386 . S
C1881 C1885 1.393 . S
C1882 H1874 0.950 1_545 S
C1882 C1880 1.391 . S
C1882 C1883 1.400 . S
C1883 C1882 1.400 . S
C1883 C1884 1.398 . S
C1883 C1889 1.491 . S
C1884 H1875 0.950 . S
C1884 C1883 1.398 . S
C1884 C1885 1.391 . S
C1885 H1873 0.950 . S
C1885 C1881 1.393 . S
C1885 C1884 1.391 . S
C1886 H1876 0.950 . S
C1886 C1887 1.386 . S
C1886 C1888 1.391 . S
C1887 C1886 1.386 . S
C1887 C1891 1.393 . S
C1888 H1877 0.950 . S
C1888 C1886 1.391 . S
C1888 C1889 1.400 . S
C1889 C1883 1.491 . S
C1889 C1888 1.400 . S
C1889 C1890 1.398 . S
C1890 H1878 0.950 . S
C1890 C1889 1.398 . S
C1890 C1891 1.391 . S
C1891 H1879 0.950 . S
C1891 C1887 1.393 . S
C1891 C1890 1.391 . S
H1892 C1900 0.950 . S
H1893 C1905 0.950 . S
H1894 C1902 0.950 . S
H1895 C1904 0.950 . S
H1896 C1906 0.950 . S
H1897 C1908 0.950 . S
H1898 C1910 0.950 . S
H1899 C1911 0.950 . S
C1900 H1892 0.950 . S
C1900 C1901 1.386 . S
C1900 C1902 1.391 . S
C1901 C1900 1.386 . S
C1901 C1905 1.393 . S
C1902 H1894 0.950 . S
C1902 C1900 1.391 . S
C1902 C1903 1.400 . S
C1903 C1902 1.400 . S
C1903 C1904 1.398 . S
C1903 C1909 1.491 . S
C1904 H1895 0.950 . S
C1904 C1903 1.398 . S
C1904 C1905 1.391 . S
C1905 H1893 0.950 . S
C1905 C1901 1.393 . S
C1905 C1904 1.391 . S
C1906 H1896 0.950 . S
C1906 C1907 1.386 . S
C1906 C1908 1.391 . S
C1907 C1906 1.386 . S
C1907 C1911 1.393 . S
C1908 H1897 0.950 . S
C1908 C1906 1.391 . S
C1908 C1909 1.400 . S
C1909 C1903 1.491 . S
C1909 C1908 1.400 . S
C1909 C1910 1.398 . S
C1910 H1898 0.950 . S
C1910 C1909 1.398 . S
C1910 C1911 1.391 . S
C1911 H1899 0.950 . S
C1911 C1907 1.393 . S
C1911 C1910 1.391 . S
H1912 C1920 0.950 . S
H1913 C1925 0.950 . S
H1914 C1922 0.950 . S
H1915 C1924 0.950 . S
H1916 C1926 0.950 . S
H1917 C1928 0.950 . S
H1918 C1930 0.950 . S
H1919 C1931 0.950 . S
C1920 H1912 0.950 . S
C1920 C1921 1.371 1_545 S
C1920 C1922 1.391 . S
C1921 C1920 1.371 1_565 S
C1921 C1925 1.411 . S
C1922 H1914 0.950 . S
C1922 C1920 1.391 . S
C1922 C1923 1.400 1_545 S
C1923 C1922 1.400 1_565 S
C1923 C1924 1.398 . S
C1923 C1929 1.491 . S
C1924 H1915 0.950 . S
C1924 C1923 1.398 . S
C1924 C1925 1.391 . S
C1925 H1913 0.950 . S
C1925 C1921 1.411 . S
C1925 C1924 1.391 . S
C1926 H1916 0.950 . S
C1926 C1927 1.386 . S
C1926 C1928 1.391 . S
C1927 C1926 1.386 . S
C1927 C1931 1.393 1_565 S
C1928 H1917 0.950 . S
C1928 C1926 1.391 . S
C1928 C1929 1.400 . S
C1929 C1923 1.491 . S
C1929 C1928 1.400 . S
C1929 C1930 1.398 1_565 S
C1930 H1918 0.950 . S
C1930 C1929 1.398 1_545 S
C1930 C1931 1.391 . S
C1931 H1919 0.950 . S
C1931 C1927 1.393 1_545 S
C1931 C1930 1.391 . S
H1932 C1940 0.950 . S
H1933 C1945 0.950 . S
H1934 C1942 0.950 . S
H1935 C1944 0.950 . S
H1936 C1946 0.950 . S
H1937 C1948 0.950 . S
H1938 C1950 0.950 . S
H1939 C1951 0.950 . S
C1940 H1932 0.950 . S
C1940 C1941 1.386 . S
C1940 C1942 1.391 . S
C1941 C1940 1.386 . S
C1941 C1945 1.393 . S
C1942 H1934 0.950 . S
C1942 C1940 1.391 . S
C1942 C1943 1.400 . S
C1943 C1942 1.400 . S
C1943 C1944 1.398 . S
C1943 C1949 1.491 . S
C1944 H1935 0.950 . S
C1944 C1943 1.398 . S
C1944 C1945 1.391 . S
C1945 H1933 0.950 . S
C1945 C1941 1.393 . S
C1945 C1944 1.391 . S
C1946 H1936 0.950 . S
C1946 C1947 1.386 . S
C1946 C1948 1.391 . S
C1947 C1946 1.386 . S
C1947 C1951 1.393 . S
C1948 H1937 0.950 . S
C1948 C1946 1.391 . S
C1948 C1949 1.400 . S
C1949 C1943 1.491 . S
C1949 C1948 1.400 . S
C1949 C1950 1.398 . S
C1950 H1938 0.950 . S
C1950 C1949 1.398 . S
C1950 C1951 1.391 . S
C1951 H1939 0.950 . S
C1951 C1947 1.393 . S
C1951 C1950 1.391 . S
H1952 C1960 0.950 . S
H1953 C1965 0.950 . S
H1954 C1962 0.950 . S
H1955 C1964 0.950 1_565 S
H1956 C1966 0.950 . S
H1957 C1968 0.950 . S
H1958 C1970 0.950 . S
H1959 C1971 0.950 1_455 S
C1960 H1952 0.950 . S
C1960 C1961 1.386 . S
C1960 C1962 1.391 . S
C1961 C1960 1.386 . S
C1961 C1965 1.393 . S
C1962 H1954 0.950 . S
C1962 C1960 1.391 . S
C1962 C1963 1.400 . S
C1963 C1962 1.400 . S
C1963 C1964 1.398 . S
C1963 C1969 1.491 . S
C1964 H1955 0.950 1_545 S
C1964 C1963 1.398 . S
C1964 C1965 1.391 . S
C1965 H1953 0.950 . S
C1965 C1961 1.393 . S
C1965 C1964 1.391 . S
C1966 H1956 0.950 . S
C1966 C1967 1.386 . S
C1966 C1968 1.391 . S
C1967 C1966 1.386 . S
C1967 C1971 1.393 1_565 S
C1968 H1957 0.950 . S
C1968 C1966 1.391 . S
C1968 C1969 1.400 1_565 S
C1969 C1963 1.491 . S
C1969 C1968 1.400 1_545 S
C1969 C1970 1.398 . S
C1970 H1958 0.950 . S
C1970 C1969 1.398 . S
C1970 C1971 1.391 . S
C1971 H1959 0.950 1_655 S
C1971 C1967 1.393 1_545 S
C1971 C1970 1.391 . S
H1972 C1980 0.950 . S
H1973 C1985 0.950 . S
H1974 C1982 0.950 . S
H1975 C1984 0.950 . S
H1976 C1986 0.950 . S
H1977 C1988 0.950 . S
H1978 C1990 0.950 . S
H1979 C1991 0.950 . S
C1980 H1972 0.950 . S
C1980 C1981 1.386 . S
C1980 C1982 1.391 . S
C1981 C1980 1.386 . S
C1981 C1985 1.393 . S
C1982 H1974 0.950 . S
C1982 C1980 1.391 . S
C1982 C1983 1.400 . S
C1983 C1982 1.400 . S
C1983 C1984 1.398 . S
C1983 C1989 1.491 . S
C1984 H1975 0.950 . S
C1984 C1983 1.398 . S
C1984 C1985 1.391 . S
C1985 H1973 0.950 . S
C1985 C1981 1.393 . S
C1985 C1984 1.391 . S
C1986 H1976 0.950 . S
C1986 C1987 1.386 . S
C1986 C1988 1.391 . S
C1987 C1986 1.386 . S
C1987 C1991 1.393 . S
C1988 H1977 0.950 . S
C1988 C1986 1.391 . S
C1988 C1989 1.400 . S
C1989 C1983 1.491 . S
C1989 C1988 1.400 . S
C1989 C1990 1.398 . S
C1990 H1978 0.950 . S
C1990 C1989 1.398 . S
C1990 C1991 1.391 . S
C1991 H1979 0.950 . S
C1991 C1987 1.393 . S
C1991 C1990 1.391 . S
H1992 C2000 0.950 . S
H1993 C2005 0.950 . S
H1994 C2002 0.950 . S
H1995 C2004 0.950 . S
H1996 C2006 0.950 . S
H1997 C2008 0.950 . S
H1998 C2010 0.950 . S
H1999 C2011 0.950 1_565 S
C2000 H1992 0.950 . S
C2000 C2001 1.386 1_565 S
C2000 C2002 1.391 . S
C2001 C2000 1.386 1_545 S
C2001 C2005 1.393 . S
C2002 H1994 0.950 . S
C2002 C2000 1.391 . S
C2002 C2003 1.400 1_565 S
C2003 C2002 1.400 1_545 S
C2003 C2004 1.398 . S
C2003 C2009 1.491 . S
C2004 H1995 0.950 . S
C2004 C2003 1.398 . S
C2004 C2005 1.391 . S
C2005 H1993 0.950 . S
C2005 C2001 1.393 . S
C2005 C2004 1.391 . S
C2006 H1996 0.950 . S
C2006 C2007 1.386 . S
C2006 C2008 1.391 . S
C2007 C2006 1.386 . S
C2007 C2011 1.393 . S
C2008 H1997 0.950 . S
C2008 C2006 1.391 . S
C2008 C2009 1.400 . S
C2009 C2003 1.491 . S
C2009 C2008 1.400 . S
C2009 C2010 1.398 1_545 S
C2010 H1998 0.950 . S
C2010 C2009 1.398 1_565 S
C2010 C2011 1.391 1_565 S
C2011 H1999 0.950 1_545 S
C2011 C2007 1.393 . S
C2011 C2010 1.391 1_545 S
H2012 C2020 0.950 . S
H2013 C2025 0.950 . S
H2014 C2022 0.950 . S
H2015 C2024 0.950 . S
H2016 C2026 0.950 . S
H2017 C2028 0.950 . S
H2018 C2030 0.950 . S
H2019 C2031 0.950 . S
C2020 H2012 0.950 . S
C2020 C2021 1.386 . S
C2020 C2022 1.391 . S
C2021 C2020 1.386 . S
C2021 C2025 1.393 . S
C2022 H2014 0.950 . S
C2022 C2020 1.391 . S
C2022 C2023 1.400 . S
C2023 C2022 1.400 . S
C2023 C2024 1.398 . S
C2023 C2029 1.491 . S
C2024 H2015 0.950 . S
C2024 C2023 1.398 . S
C2024 C2025 1.391 . S
C2025 H2013 0.950 . S
C2025 C2021 1.393 . S
C2025 C2024 1.391 . S
C2026 H2016 0.950 . S
C2026 C2027 1.386 . S
C2026 C2028 1.391 . S
C2027 C2026 1.386 . S
C2027 C2031 1.393 . S
C2028 H2017 0.950 . S
C2028 C2026 1.391 . S
C2028 C2029 1.400 . S
C2029 C2023 1.491 . S
C2029 C2028 1.400 . S
C2029 C2030 1.398 . S
C2030 H2018 0.950 . S
C2030 C2029 1.398 . S
C2030 C2031 1.391 . S
C2031 H2019 0.950 . S
C2031 C2027 1.393 . S
C2031 C2030 1.391 . S
H2032 C2040 0.950 . S
H2033 C2045 0.950 . S
H2034 C2042 0.950 . S
H2035 C2044 0.950 . S
H2036 C2046 0.950 . S
H2037 C2048 0.950 . S
H2038 C2050 0.950 . S
H2039 C2051 0.980 . S
C2040 H2032 0.950 . S
C2040 C2041 1.386 . S
C2040 C2042 1.391 . S
C2041 C2040 1.386 . S
C2041 C2045 1.393 . S
C2042 H2034 0.950 . S
C2042 C2040 1.391 . S
C2042 C2043 1.400 . S
C2043 C2042 1.400 . S
C2043 C2044 1.398 . S
C2043 C2049 1.491 . S
C2044 H2035 0.950 . S
C2044 C2043 1.398 . S
C2044 C2045 1.391 . S
C2045 H2033 0.950 . S
C2045 C2041 1.393 . S
C2045 C2044 1.391 . S
C2046 H2036 0.950 . S
C2046 C2047 1.386 . S
C2046 C2048 1.391 . S
C2047 C2046 1.386 . S
C2047 C2051 1.393 . S
C2048 H2037 0.950 . S
C2048 C2046 1.391 . S
C2048 C2049 1.400 . S
C2049 C2043 1.491 . S
C2049 C2048 1.400 . S
C2049 C2050 1.398 . S
C2050 H2038 0.950 . S
C2050 C2049 1.398 . S
C2050 C2051 1.391 . S
C2051 H2039 0.980 . S
C2051 C2047 1.393 . S
C2051 C2050 1.391 . S
H2052 C2060 0.950 . S
H2053 C2065 0.950 . S
H2054 C2062 0.950 . S
H2055 C2064 0.950 . S
H2056 C2066 0.950 . S
H2057 C2068 0.950 . S
H2058 C2070 0.950 . S
H2059 C2071 0.950 . S
C2060 H2052 0.950 . S
C2060 C2061 1.386 1_556 S
C2060 C2062 1.391 . S
C2061 C2060 1.386 1_554 S
C2061 C2065 1.393 . S
C2062 H2054 0.950 . S
C2062 C2060 1.391 . S
C2062 C2063 1.400 . S
C2063 C2062 1.400 . S
C2063 C2064 1.398 1_556 S
C2063 C2069 1.491 . S
C2064 H2055 0.950 . S
C2064 C2063 1.398 1_554 S
C2064 C2065 1.391 . S
C2065 H2053 0.950 . S
C2065 C2061 1.393 . S
C2065 C2064 1.391 . S
C2066 H2056 0.950 . S
C2066 C2067 1.386 1_554 S
C2066 C2068 1.391 . S
C2067 C2066 1.386 1_556 S
C2067 C2071 1.393 . S
C2068 H2057 0.950 . S
C2068 C2066 1.391 . S
C2068 C2069 1.400 1_554 S
C2069 C2063 1.491 . S
C2069 C2068 1.400 1_556 S
C2069 C2070 1.398 . S
C2070 H2058 0.950 . S
C2070 C2069 1.398 . S
C2070 C2071 1.391 . S
C2071 H2059 0.950 . S
C2071 C2067 1.393 . S
C2071 C2070 1.391 . S
H2072 C2080 0.950 . S
H2073 C2085 0.950 . S
H2074 C2082 0.950 . S
H2075 C2084 0.950 . S
H2076 C2086 0.950 . S
H2077 C2088 0.950 . S
H2078 C2090 0.950 . S
H2079 C2091 0.950 . S
C2080 H2072 0.950 . S
C2080 C2081 1.386 . S
C2080 C2082 1.391 . S
C2081 C2080 1.386 . S
C2081 C2085 1.393 . S
C2082 H2074 0.950 . S
C2082 C2080 1.391 . S
C2082 C2083 1.400 . S
C2083 C2082 1.400 . S
C2083 C2084 1.398 . S
C2083 C2089 1.491 . S
C2084 H2075 0.950 . S
C2084 C2083 1.398 . S
C2084 C2085 1.391 . S
C2085 H2073 0.950 . S
C2085 C2081 1.393 . S
C2085 C2084 1.391 . S
C2086 H2076 0.950 . S
C2086 C2087 1.386 . S
C2086 C2088 1.391 . S
C2087 C2086 1.386 . S
C2087 C2091 1.393 . S
C2088 H2077 0.950 . S
C2088 C2086 1.391 . S
C2088 C2089 1.400 . S
C2089 C2083 1.491 . S
C2089 C2088 1.400 . S
C2089 C2090 1.398 . S
C2090 H2078 0.950 . S
C2090 C2089 1.398 . S
C2090 C2091 1.391 . S
C2091 H2079 0.950 . S
C2091 C2087 1.393 . S
C2091 C2090 1.391 . S
H2092 C2100 0.950 . S
H2093 C2105 0.950 . S
H2094 C2102 0.950 . S
H2095 C2104 0.950 . S
H2096 C2106 0.950 . S
H2097 C2108 0.950 . S
H2098 C2110 0.950 . S
H2099 C2111 0.950 . S
C2100 H2092 0.950 . S
C2100 C2101 1.386 . S
C2100 C2102 1.391 . S
C2101 C2100 1.386 . S
C2101 C2105 1.393 . S
C2102 H2094 0.950 . S
C2102 C2100 1.391 . S
C2102 C2103 1.400 . S
C2103 C2102 1.400 . S
C2103 C2104 1.398 . S
C2103 C2109 1.491 . S
C2104 H2095 0.950 . S
C2104 C2103 1.398 . S
C2104 C2105 1.391 . S
C2105 H2093 0.950 . S
C2105 C2101 1.393 . S
C2105 C2104 1.391 . S
C2106 H2096 0.950 . S
C2106 C2107 1.386 . S
C2106 C2108 1.391 . S
C2107 C2106 1.386 . S
C2107 C2111 1.393 . S
C2108 H2097 0.950 . S
C2108 C2106 1.391 . S
C2108 C2109 1.400 . S
C2109 C2103 1.491 . S
C2109 C2108 1.400 . S
C2109 C2110 1.398 . S
C2110 H2098 0.950 . S
C2110 C2109 1.398 . S
C2110 C2111 1.391 . S
C2111 H2099 0.950 . S
C2111 C2107 1.393 . S
C2111 C2110 1.391 . S
H2112 C2120 0.950 . S
H2113 C2125 0.950 . S
H2114 C2122 0.950 . S
H2115 C2124 0.950 . S
H2116 C2126 0.950 . S
H2117 C2128 0.950 . S
H2118 C2130 0.950 . S
H2119 C2131 0.950 . S
C2120 H2112 0.950 . S
C2120 C2121 1.386 . S
C2120 C2122 1.391 . S
C2121 C2120 1.386 . S
C2121 C2125 1.393 . S
C2122 H2114 0.950 . S
C2122 C2120 1.391 . S
C2122 C2123 1.400 . S
C2123 C2122 1.400 . S
C2123 C2124 1.398 . S
C2123 C2129 1.491 . S
C2124 H2115 0.950 . S
C2124 C2123 1.398 . S
C2124 C2125 1.391 . S
C2125 H2113 0.950 . S
C2125 C2121 1.393 . S
C2125 C2124 1.391 . S
C2126 H2116 0.950 . S
C2126 C2127 1.386 . S
C2126 C2128 1.391 . S
C2127 C2126 1.386 . S
C2127 C2131 1.393 . S
C2128 H2117 0.950 . S
C2128 C2126 1.391 . S
C2128 C2129 1.400 . S
C2129 C2123 1.491 . S
C2129 C2128 1.400 . S
C2129 C2130 1.398 . S
C2130 H2118 0.950 . S
C2130 C2129 1.398 . S
C2130 C2131 1.391 . S
C2131 H2119 0.950 . S
C2131 C2127 1.393 . S
C2131 C2130 1.391 . S
H2132 C2140 0.950 . S
H2133 C2145 0.950 . S
H2134 C2142 0.950 . S
H2135 C2144 0.950 . S
H2136 C2146 0.950 . S
H2137 C2148 0.950 . S
H2138 C2150 0.950 . S
H2139 C2151 0.950 . S
C2140 H2132 0.950 . S
C2140 C2141 1.386 . S
C2140 C2142 1.391 . S
C2141 C2140 1.386 . S
C2141 C2145 1.393 . S
C2142 H2134 0.950 . S
C2142 C2140 1.391 . S
C2142 C2143 1.400 . S
C2143 C2142 1.400 . S
C2143 C2144 1.398 . S
C2143 C2149 1.491 . S
C2144 H2135 0.950 . S
C2144 C2143 1.398 . S
C2144 C2145 1.391 . S
C2145 H2133 0.950 . S
C2145 C2141 1.393 . S
C2145 C2144 1.391 . S
C2146 H2136 0.950 . S
C2146 C2147 1.386 . S
C2146 C2148 1.391 . S
C2147 C2146 1.386 . S
C2147 C2151 1.393 . S
C2148 H2137 0.950 . S
C2148 C2146 1.391 . S
C2148 C2149 1.400 . S
C2149 C2143 1.491 . S
C2149 C2148 1.400 . S
C2149 C2150 1.398 . S
C2150 H2138 0.950 . S
C2150 C2149 1.398 . S
C2150 C2151 1.391 . S
C2151 H2139 0.950 . S
C2151 C2147 1.393 . S
C2151 C2150 1.391 . S
H2152 C2160 0.950 . S
H2153 C2165 0.950 . S
H2154 C2162 0.950 . S
H2155 C2164 0.950 . S
H2156 C2166 0.950 . S
H2157 C2168 0.950 . S
H2158 C2170 0.950 . S
H2159 C2171 0.950 . S
C2160 H2152 0.950 . S
C2160 C2161 1.386 . S
C2160 C2162 1.391 . S
C2161 C2160 1.386 . S
C2161 C2165 1.393 . S
C2162 H2154 0.950 . S
C2162 C2160 1.391 . S
C2162 C2163 1.400 . S
C2163 C2162 1.400 . S
C2163 C2164 1.398 . S
C2163 C2169 1.491 . S
C2164 H2155 0.950 . S
C2164 C2163 1.398 . S
C2164 C2165 1.391 . S
C2165 H2153 0.950 . S
C2165 C2161 1.393 . S
C2165 C2164 1.391 . S
C2166 H2156 0.950 . S
C2166 C2167 1.386 . S
C2166 C2168 1.391 . S
C2167 C2166 1.386 . S
C2167 C2171 1.393 . S
C2168 H2157 0.950 . S
C2168 C2166 1.391 . S
C2168 C2169 1.400 . S
C2169 C2163 1.491 . S
C2169 C2168 1.400 . S
C2169 C2170 1.398 . S
C2170 H2158 0.950 . S
C2170 C2169 1.398 . S
C2170 C2171 1.391 . S
C2171 H2159 0.950 . S
C2171 C2167 1.393 . S
C2171 C2170 1.391 . S
H2172 C2180 0.950 . S
H2173 C2185 0.950 . S
H2174 C2182 0.950 . S
H2175 C2184 0.950 . S
H2176 C2186 0.950 . S
H2177 C2188 0.950 . S
H2178 C2190 0.950 . S
H2179 C2191 0.950 . S
C2180 H2172 0.950 . S
C2180 C2181 1.386 . S
C2180 C2182 1.391 . S
C2181 C2180 1.386 . S
C2181 C2185 1.393 . S
C2182 H2174 0.950 . S
C2182 C2180 1.391 . S
C2182 C2183 1.400 . S
C2183 C2182 1.400 . S
C2183 C2184 1.398 . S
C2183 C2189 1.491 . S
C2184 H2175 0.950 . S
C2184 C2183 1.398 . S
C2184 C2185 1.391 . S
C2185 H2173 0.950 . S
C2185 C2181 1.393 . S
C2185 C2184 1.391 . S
C2186 H2176 0.950 . S
C2186 C2187 1.386 . S
C2186 C2188 1.391 . S
C2187 C2186 1.386 . S
C2187 C2191 1.393 . S
C2188 H2177 0.950 . S
C2188 C2186 1.391 . S
C2188 C2189 1.400 . S
C2189 C2183 1.491 . S
C2189 C2188 1.400 . S
C2189 C2190 1.398 . S
C2190 H2178 0.950 . S
C2190 C2189 1.398 . S
C2190 C2191 1.391 . S
C2191 H2179 0.950 . S
C2191 C2187 1.393 . S
C2191 C2190 1.391 . S
H2192 C2200 0.950 . S
H2193 C2205 0.950 . S
H2194 C2202 0.950 . S
H2195 C2204 0.950 . S
H2196 C2206 0.950 . S
H2197 C2208 0.950 . S
H2198 C2210 0.950 . S
H2199 C2211 0.950 . S
C2200 H2192 0.950 . S
C2200 C2201 1.386 . S
C2200 C2202 1.391 . S
C2201 C2200 1.386 . S
C2201 C2205 1.393 . S
C2202 H2194 0.950 . S
C2202 C2200 1.391 . S
C2202 C2203 1.400 . S
C2203 C2202 1.400 . S
C2203 C2204 1.398 . S
C2203 C2209 1.491 . S
C2204 H2195 0.950 . S
C2204 C2203 1.398 . S
C2204 C2205 1.391 . S
C2205 H2193 0.950 . S
C2205 C2201 1.393 . S
C2205 C2204 1.391 . S
C2206 H2196 0.950 . S
C2206 C2207 1.386 . S
C2206 C2208 1.391 . S
C2207 C2206 1.386 . S
C2207 C2211 1.393 . S
C2208 H2197 0.950 . S
C2208 C2206 1.391 . S
C2208 C2209 1.400 . S
C2209 C2203 1.491 . S
C2209 C2208 1.400 . S
C2209 C2210 1.398 . S
C2210 H2198 0.950 . S
C2210 C2209 1.398 . S
C2210 C2211 1.391 . S
C2211 H2199 0.950 . S
C2211 C2207 1.393 . S
C2211 C2210 1.391 . S
H2212 C2220 0.950 . S
H2213 C2225 0.950 . S
H2214 C2222 0.950 . S
H2215 C2224 0.950 . S
H2216 C2226 0.950 . S
H2217 C2228 0.950 . S
H2218 C2230 0.950 . S
H2219 C2231 0.950 . S
C2220 H2212 0.950 . S
C2220 C2221 1.386 . S
C2220 C2222 1.391 . S
C2221 C2220 1.386 . S
C2221 C2225 1.393 . S
C2222 H2214 0.950 . S
C2222 C2220 1.391 . S
C2222 C2223 1.400 . S
C2223 C2222 1.400 . S
C2223 C2224 1.398 . S
C2223 C2229 1.491 . S
C2224 H2215 0.950 . S
C2224 C2223 1.398 . S
C2224 C2225 1.391 . S
C2225 H2213 0.950 . S
C2225 C2221 1.393 . S
C2225 C2224 1.391 . S
C2226 H2216 0.950 . S
C2226 C2227 1.386 . S
C2226 C2228 1.391 . S
C2227 C2226 1.386 . S
C2227 C2231 1.393 . S
C2228 H2217 0.950 . S
C2228 C2226 1.391 . S
C2228 C2229 1.400 . S
C2229 C2223 1.491 . S
C2229 C2228 1.400 . S
C2229 C2230 1.398 . S
C2230 H2218 0.950 . S
C2230 C2229 1.398 . S
C2230 C2231 1.391 . S
C2231 H2219 0.950 . S
C2231 C2227 1.393 . S
C2231 C2230 1.391 . S
H2232 C2240 0.950 . S
H2233 C2245 0.950 . S
H2234 C2242 0.950 . S
H2235 C2244 0.950 . S
H2236 C2246 0.950 1_655 S
H2237 C2248 0.950 . S
H2238 C2250 0.950 . S
H2239 C2251 0.950 . S
C2240 H2232 0.950 . S
C2240 C2241 1.386 . S
C2240 C2242 1.391 . S
C2241 C2240 1.386 . S
C2241 C2245 1.393 1_455 S
C2242 H2234 0.950 . S
C2242 C2240 1.391 . S
C2242 C2243 1.400 . S
C2243 C2242 1.400 . S
C2243 C2244 1.398 1_455 S
C2243 C2249 1.491 . S
C2244 H2235 0.950 . S
C2244 C2243 1.398 1_655 S
C2244 C2245 1.391 . S
C2245 H2233 0.950 . S
C2245 C2241 1.393 1_655 S
C2245 C2244 1.391 . S
C2246 H2236 0.950 1_455 S
C2246 C2247 1.386 . S
C2246 C2248 1.391 1_455 S
C2247 C2246 1.386 . S
C2247 C2251 1.393 . S
C2248 H2237 0.950 . S
C2248 C2246 1.391 1_655 S
C2248 C2249 1.400 1_655 S
C2249 C2243 1.491 . S
C2249 C2248 1.400 1_455 S
C2249 C2250 1.398 . S
C2250 H2238 0.950 . S
C2250 C2249 1.398 . S
C2250 C2251 1.391 . S
C2251 H2239 0.950 . S
C2251 C2247 1.393 . S
C2251 C2250 1.391 . S
H2252 C2260 0.950 . S
H2253 C2265 0.950 . S
H2254 C2262 0.950 . S
H2255 C2264 0.950 . S
H2256 C2266 0.950 . S
H2257 C2268 0.950 . S
H2258 C2270 0.950 . S
H2259 C2271 0.950 . S
C2260 H2252 0.950 . S
C2260 C2261 1.386 . S
C2260 C2262 1.391 . S
C2261 C2260 1.386 . S
C2261 C2265 1.393 . S
C2262 H2254 0.950 . S
C2262 C2260 1.391 . S
C2262 C2263 1.400 . S
C2263 C2262 1.400 . S
C2263 C2264 1.398 . S
C2263 C2269 1.491 . S
C2264 H2255 0.950 . S
C2264 C2263 1.398 . S
C2264 C2265 1.391 . S
C2265 H2253 0.950 . S
C2265 C2261 1.393 . S
C2265 C2264 1.391 . S
C2266 H2256 0.950 . S
C2266 C2267 1.386 . S
C2266 C2268 1.391 . S
C2267 C2266 1.386 . S
C2267 C2271 1.393 . S
C2268 H2257 0.950 . S
C2268 C2266 1.391 . S
C2268 C2269 1.400 . S
C2269 C2263 1.491 . S
C2269 C2268 1.400 . S
C2269 C2270 1.398 . S
C2270 H2258 0.950 . S
C2270 C2269 1.398 . S
C2270 C2271 1.391 . S
C2271 H2259 0.950 . S
C2271 C2267 1.393 . S
C2271 C2270 1.391 . S
H2272 C2280 0.950 . S
H2273 C2285 0.950 . S
H2274 C2282 0.950 . S
H2275 C2284 0.950 . S
H2276 C2286 0.958 . S
H2277 C2288 0.950 . S
H2278 C2290 0.950 . S
H2279 C2291 0.950 . S
C2280 H2272 0.950 . S
C2280 C2281 1.386 . S
C2280 C2282 1.391 . S
C2281 C2280 1.386 . S
C2281 C2285 1.393 . S
C2282 H2274 0.950 . S
C2282 C2280 1.391 . S
C2282 C2283 1.400 . S
C2283 C2282 1.400 . S
C2283 C2284 1.398 . S
C2283 C2289 1.491 . S
C2284 H2275 0.950 . S
C2284 C2283 1.398 . S
C2284 C2285 1.391 . S
C2285 H2273 0.950 . S
C2285 C2281 1.393 . S
C2285 C2284 1.391 . S
C2286 H2276 0.958 . S
C2286 C2287 1.383 1_554 S
C2286 C2288 1.386 1_554 S
C2287 C2286 1.383 1_556 S
C2287 C2291 1.393 . S
C2288 H2277 0.950 . S
C2288 C2286 1.386 1_556 S
C2288 C2289 1.400 . S
C2289 C2283 1.491 . S
C2289 C2288 1.400 . S
C2289 C2290 1.398 . S
C2290 H2278 0.950 . S
C2290 C2289 1.398 . S
C2290 C2291 1.391 . S
C2291 H2279 0.950 . S
C2291 C2287 1.393 . S
C2291 C2290 1.391 . S
H2292 C2300 0.950 . S
H2293 C2305 0.950 . S
H2294 C2302 0.950 . S
H2295 C2304 0.950 . S
H2296 C2306 0.950 . S
H2297 C2308 0.950 . S
H2298 C2310 0.950 . S
H2299 C2311 0.950 . S
C2300 H2292 0.950 . S
C2300 C2301 1.386 . S
C2300 C2302 1.391 . S
C2301 C2300 1.386 . S
C2301 C2305 1.393 . S
C2302 H2294 0.950 . S
C2302 C2300 1.391 . S
C2302 C2303 1.400 . S
C2303 C2302 1.400 . S
C2303 C2304 1.398 . S
C2303 C2309 1.491 . S
C2304 H2295 0.950 . S
C2304 C2303 1.398 . S
C2304 C2305 1.391 . S
C2305 H2293 0.950 . S
C2305 C2301 1.393 . S
C2305 C2304 1.391 . S
C2306 H2296 0.950 . S
C2306 C2307 1.386 . S
C2306 C2308 1.391 . S
C2307 C2306 1.386 . S
C2307 C2311 1.393 . S
C2308 H2297 0.950 . S
C2308 C2306 1.391 . S
C2308 C2309 1.400 . S
C2309 C2303 1.491 . S
C2309 C2308 1.400 . S
C2309 C2310 1.398 . S
C2310 H2298 0.950 . S
C2310 C2309 1.398 . S
C2310 C2311 1.391 . S
C2311 H2299 0.950 . S
C2311 C2307 1.393 . S
C2311 C2310 1.391 . S
H2312 C2320 0.950 . S
H2313 C2325 0.950 . S
H2314 C2322 0.950 . S
H2315 C2324 0.950 . S
H2316 C2326 0.950 . S
H2317 C2328 0.950 . S
H2318 C2330 0.950 . S
H2319 C2331 0.950 . S
C2320 H2312 0.950 . S
C2320 C2321 1.386 1_655 S
C2320 C2322 1.391 . S
C2321 C2320 1.386 1_455 S
C2321 C2325 1.393 . S
C2322 H2314 0.950 . S
C2322 C2320 1.391 . S
C2322 C2323 1.400 1_655 S
C2323 C2322 1.400 1_455 S
C2323 C2324 1.398 . S
C2323 C2329 1.491 . S
C2324 H2315 0.950 . S
C2324 C2323 1.398 . S
C2324 C2325 1.391 . S
C2325 H2313 0.950 . S
C2325 C2321 1.393 . S
C2325 C2324 1.391 . S
C2326 H2316 0.950 . S
C2326 C2327 1.386 . S
C2326 C2328 1.391 . S
C2327 C2326 1.386 . S
C2327 C2331 1.393 1_455 S
C2328 H2317 0.950 . S
C2328 C2326 1.391 . S
C2328 C2329 1.400 . S
C2329 C2323 1.491 . S
C2329 C2328 1.400 . S
C2329 C2330 1.398 1_455 S
C2330 H2318 0.950 . S
C2330 C2329 1.398 1_655 S
C2330 C2331 1.391 . S
C2331 H2319 0.950 . S
C2331 C2327 1.393 1_655 S
C2331 C2330 1.391 . S
H2332 C2340 0.950 . S
H2333 C2345 0.950 . S
H2334 C2342 0.950 . S
H2335 C2344 0.950 . S
H2336 C2346 0.950 . S
H2337 C2348 0.950 . S
H2338 C2350 0.950 . S
H2339 C2351 0.950 . S
C2340 H2332 0.950 . S
C2340 C2341 1.386 . S
C2340 C2342 1.391 . S
C2341 C2340 1.386 . S
C2341 C2345 1.393 . S
C2342 H2334 0.950 . S
C2342 C2340 1.391 . S
C2342 C2343 1.400 . S
C2343 C2342 1.400 . S
C2343 C2344 1.398 . S
C2343 C2349 1.491 . S
C2344 H2335 0.950 . S
C2344 C2343 1.398 . S
C2344 C2345 1.391 . S
C2345 H2333 0.950 . S
C2345 C2341 1.393 . S
C2345 C2344 1.391 . S
C2346 H2336 0.950 . S
C2346 C2347 1.386 . S
C2346 C2348 1.391 . S
C2347 C2346 1.386 . S
C2347 C2351 1.393 . S
C2348 H2337 0.950 . S
C2348 C2346 1.391 . S
C2348 C2349 1.400 . S
C2349 C2343 1.491 . S
C2349 C2348 1.400 . S
C2349 C2350 1.398 . S
C2350 H2338 0.950 . S
C2350 C2349 1.398 . S
C2350 C2351 1.391 . S
C2351 H2339 0.950 . S
C2351 C2347 1.393 . S
C2351 C2350 1.391 . S
H2352 C2360 0.950 . S
H2353 C2365 0.950 . S
H2354 C2362 0.950 . S
H2355 C2364 0.950 . S
H2356 C2366 0.950 . S
H2357 C2368 0.950 . S
H2358 C2370 0.950 . S
H2359 C2371 0.950 . S
C2360 H2352 0.950 . S
C2360 C2361 1.386 . S
C2360 C2362 1.391 . S
C2361 C2360 1.386 . S
C2361 C2365 1.393 . S
C2362 H2354 0.950 . S
C2362 C2360 1.391 . S
C2362 C2363 1.400 . S
C2363 C2362 1.400 . S
C2363 C2364 1.398 . S
C2363 C2369 1.491 . S
C2364 H2355 0.950 . S
C2364 C2363 1.398 . S
C2364 C2365 1.391 . S
C2365 H2353 0.950 . S
C2365 C2361 1.393 . S
C2365 C2364 1.391 . S
C2366 H2356 0.950 . S
C2366 C2367 1.386 . S
C2366 C2368 1.391 . S
C2367 C2366 1.386 . S
C2367 C2371 1.393 . S
C2368 H2357 0.950 . S
C2368 C2366 1.391 . S
C2368 C2369 1.400 . S
C2369 C2363 1.491 . S
C2369 C2368 1.400 . S
C2369 C2370 1.398 . S
C2370 H2358 0.950 . S
C2370 C2369 1.398 . S
C2370 C2371 1.391 . S
C2371 H2359 0.950 . S
C2371 C2367 1.393 . S
C2371 C2370 1.391 . S
H2372 C2380 0.950 . S
H2373 C2385 0.950 . S
H2374 C2382 0.950 . S
H2375 C2384 0.950 . S
H2376 C2386 0.950 . S
H2377 C2388 0.950 . S
H2378 C2390 0.950 . S
H2379 C2391 0.950 . S
C2380 H2372 0.950 . S
C2380 C2381 1.386 . S
C2380 C2382 1.391 . S
C2381 C2380 1.386 . S
C2381 C2385 1.393 . S
C2382 H2374 0.950 . S
C2382 C2380 1.391 . S
C2382 C2383 1.400 . S
C2383 C2382 1.400 . S
C2383 C2384 1.398 . S
C2383 C2389 1.491 . S
C2384 H2375 0.950 . S
C2384 C2383 1.398 . S
C2384 C2385 1.391 . S
C2385 H2373 0.950 . S
C2385 C2381 1.393 . S
C2385 C2384 1.391 . S
C2386 H2376 0.950 . S
C2386 C2387 1.386 . S
C2386 C2388 1.391 . S
C2387 C2386 1.386 . S
C2387 C2391 1.393 . S
C2388 H2377 0.950 . S
C2388 C2386 1.391 . S
C2388 C2389 1.400 . S
C2389 C2383 1.491 . S
C2389 C2388 1.400 . S
C2389 C2390 1.398 . S
C2390 H2378 0.950 . S
C2390 C2389 1.398 . S
C2390 C2391 1.391 . S
C2391 H2379 0.950 . S
C2391 C2387 1.393 . S
C2391 C2390 1.391 . S
H2392 C2400 0.950 . S
H2393 C2405 0.950 . S
H2394 C2402 0.950 . S
H2395 C2404 0.950 . S
H2396 C2406 0.950 . S
H2397 C2408 0.950 . S
H2398 C2410 0.950 . S
H2399 C2411 0.950 . S
C2400 H2392 0.950 . S
C2400 C2401 1.386 . S
C2400 C2402 1.391 . S
C2401 C2400 1.386 . S
C2401 C2405 1.393 . S
C2402 H2394 0.950 . S
C2402 C2400 1.391 . S
C2402 C2403 1.400 . S
C2403 C2402 1.400 . S
C2403 C2404 1.398 . S
C2403 C2409 1.491 . S
C2404 H2395 0.950 . S
C2404 C2403 1.398 . S
C2404 C2405 1.391 . S
C2405 H2393 0.950 . S
C2405 C2401 1.393 . S
C2405 C2404 1.391 . S
C2406 H2396 0.950 . S
C2406 C2407 1.386 . S
C2406 C2408 1.391 . S
C2407 C2406 1.386 . S
C2407 C2411 1.393 . S
C2408 H2397 0.950 . S
C2408 C2406 1.391 . S
C2408 C2409 1.400 . S
C2409 C2403 1.491 . S
C2409 C2408 1.400 . S
C2409 C2410 1.398 . S
C2410 H2398 0.950 . S
C2410 C2409 1.398 . S
C2410 C2411 1.391 . S
C2411 H2399 0.950 . S
C2411 C2407 1.393 . S
C2411 C2410 1.391 . S
H2412 C2420 0.950 . S
H2413 C2425 0.950 . S
H2414 C2422 0.950 . S
H2415 C2424 0.950 . S
H2416 C2426 0.950 . S
H2417 C2428 0.950 . S
H2418 C2430 0.950 . S
H2419 C2431 0.950 . S
C2420 H2412 0.950 . S
C2420 C2421 1.386 . S
C2420 C2422 1.391 . S
C2421 C2420 1.386 . S
C2421 C2425 1.393 . S
C2422 H2414 0.950 . S
C2422 C2420 1.391 . S
C2422 C2423 1.400 . S
C2423 C2422 1.400 . S
C2423 C2424 1.398 . S
C2423 C2429 1.491 . S
C2424 H2415 0.950 . S
C2424 C2423 1.398 . S
C2424 C2425 1.391 . S
C2425 H2413 0.950 . S
C2425 C2421 1.393 . S
C2425 C2424 1.391 . S
C2426 H2416 0.950 . S
C2426 C2427 1.386 . S
C2426 C2428 1.391 . S
C2427 C2426 1.386 . S
C2427 C2431 1.393 . S
C2428 H2417 0.950 . S
C2428 C2426 1.391 . S
C2428 C2429 1.400 . S
C2429 C2423 1.491 . S
C2429 C2428 1.400 . S
C2429 C2430 1.398 . S
C2430 H2418 0.950 . S
C2430 C2429 1.398 . S
C2430 C2431 1.391 . S
C2431 H2419 0.950 . S
C2431 C2427 1.393 . S
C2431 C2430 1.391 . S
H2432 C2440 0.950 . S
H2433 C2445 0.950 . S
H2434 C2442 0.950 . S
H2435 C2444 0.950 . S
H2436 C2446 0.950 . S
H2437 C2448 0.950 . S
H2438 C2450 0.950 . S
H2439 C2451 0.950 . S
C2440 H2432 0.950 . S
C2440 C2441 1.386 . S
C2440 C2442 1.391 . S
C2441 C2440 1.386 . S
C2441 C2445 1.393 . S
C2442 H2434 0.950 . S
C2442 C2440 1.391 . S
C2442 C2443 1.400 . S
C2443 C2442 1.400 . S
C2443 C2444 1.398 . S
C2443 C2449 1.491 . S
C2444 H2435 0.950 . S
C2444 C2443 1.398 . S
C2444 C2445 1.391 . S
C2445 H2433 0.950 . S
C2445 C2441 1.393 . S
C2445 C2444 1.391 . S
C2446 H2436 0.950 . S
C2446 C2447 1.386 . S
C2446 C2448 1.391 . S
C2447 C2446 1.386 . S
C2447 C2451 1.393 . S
C2448 H2437 0.950 . S
C2448 C2446 1.391 . S
C2448 C2449 1.400 . S
C2449 C2443 1.491 . S
C2449 C2448 1.400 . S
C2449 C2450 1.398 . S
C2450 H2438 0.950 . S
C2450 C2449 1.398 . S
C2450 C2451 1.391 . S
C2451 H2439 0.950 . S
C2451 C2447 1.393 . S
C2451 C2450 1.391 . S
H2452 C2460 0.950 . S
H2453 C2465 0.950 . S
H2454 C2462 0.950 . S
H2455 C2464 0.950 . S
H2456 C2466 0.950 . S
H2457 C2468 0.950 . S
H2458 C2470 0.950 . S
H2459 C2471 0.950 . S
C2460 H2452 0.950 . S
C2460 C2461 1.386 . S
C2460 C2462 1.391 . S
C2461 C2460 1.386 . S
C2461 C2465 1.393 . S
C2462 H2454 0.950 . S
C2462 C2460 1.391 . S
C2462 C2463 1.400 . S
C2463 C2462 1.400 . S
C2463 C2464 1.398 . S
C2463 C2469 1.491 . S
C2464 H2455 0.950 . S
C2464 C2463 1.398 . S
C2464 C2465 1.391 . S
C2465 H2453 0.950 . S
C2465 C2461 1.393 . S
C2465 C2464 1.391 . S
C2466 H2456 0.950 . S
C2466 C2467 1.386 . S
C2466 C2468 1.391 . S
C2467 C2466 1.386 . S
C2467 C2471 1.393 . S
C2468 H2457 0.950 . S
C2468 C2466 1.391 . S
C2468 C2469 1.400 . S
C2469 C2463 1.491 . S
C2469 C2468 1.400 . S
C2469 C2470 1.398 . S
C2470 H2458 0.950 . S
C2470 C2469 1.398 . S
C2470 C2471 1.391 . S
C2471 H2459 0.950 . S
C2471 C2467 1.393 . S
C2471 C2470 1.391 . S
H2472 C2480 0.950 . S
H2473 C2485 0.950 . S
H2474 C2482 0.950 . S
H2475 C2484 0.950 . S
H2476 C2486 0.950 . S
H2477 C2488 0.950 . S
H2478 C2490 0.950 . S
H2479 C2491 0.950 . S
C2480 H2472 0.950 . S
C2480 C2481 1.386 . S
C2480 C2482 1.391 . S
C2481 C2480 1.386 . S
C2481 C2485 1.393 . S
C2482 H2474 0.950 . S
C2482 C2480 1.391 . S
C2482 C2483 1.400 . S
C2483 C2482 1.400 . S
C2483 C2484 1.398 . S
C2483 C2489 1.491 . S
C2484 H2475 0.950 . S
C2484 C2483 1.398 . S
C2484 C2485 1.391 . S
C2485 H2473 0.950 . S
C2485 C2481 1.393 . S
C2485 C2484 1.391 . S
C2486 H2476 0.950 . S
C2486 C2487 1.386 . S
C2486 C2488 1.391 . S
C2487 C2486 1.386 . S
C2487 C2491 1.393 . S
C2488 H2477 0.950 . S
C2488 C2486 1.391 . S
C2488 C2489 1.400 . S
C2489 C2483 1.491 . S
C2489 C2488 1.400 . S
C2489 C2490 1.398 . S
C2490 H2478 0.950 . S
C2490 C2489 1.398 . S
C2490 C2491 1.391 . S
C2491 H2479 0.950 . S
C2491 C2487 1.393 . S
C2491 C2490 1.391 . S
H2492 C2500 0.950 . S
H2493 C2505 0.950 . S
H2494 C2502 0.950 . S
H2495 C2504 0.950 . S
H2496 C2506 0.950 . S
H2497 C2508 0.950 . S
H2498 C2510 0.950 . S
H2499 C2511 0.950 . S
C2500 H2492 0.950 . S
C2500 C2501 1.386 . S
C2500 C2502 1.391 . S
C2501 C2500 1.386 . S
C2501 C2505 1.393 . S
C2502 H2494 0.950 . S
C2502 C2500 1.391 . S
C2502 C2503 1.400 . S
C2503 C2502 1.400 . S
C2503 C2504 1.398 . S
C2503 C2509 1.491 . S
C2504 H2495 0.950 . S
C2504 C2503 1.398 . S
C2504 C2505 1.391 . S
C2505 H2493 0.950 . S
C2505 C2501 1.393 . S
C2505 C2504 1.391 . S
C2506 H2496 0.950 . S
C2506 C2507 1.386 . S
C2506 C2508 1.391 . S
C2507 C2506 1.386 . S
C2507 C2511 1.393 . S
C2508 H2497 0.950 . S
C2508 C2506 1.391 . S
C2508 C2509 1.400 . S
C2509 C2503 1.491 . S
C2509 C2508 1.400 . S
C2509 C2510 1.398 . S
C2510 H2498 0.950 . S
C2510 C2509 1.398 . S
C2510 C2511 1.391 . S
C2511 H2499 0.950 . S
C2511 C2507 1.393 . S
C2511 C2510 1.391 . S
H2512 C2520 0.950 . S
H2513 C2525 0.950 . S
H2514 C2522 0.950 . S
H2515 C2524 0.950 . S
H2516 C2526 0.950 . S
H2517 C2528 0.950 . S
H2518 C2530 0.950 . S
H2519 C2531 0.950 . S
C2520 H2512 0.950 . S
C2520 C2521 1.386 . S
C2520 C2522 1.391 . S
C2521 C2520 1.386 . S
C2521 C2525 1.393 . S
C2522 H2514 0.950 . S
C2522 C2520 1.391 . S
C2522 C2523 1.400 . S
C2523 C2522 1.400 . S
C2523 C2524 1.398 . S
C2523 C2529 1.491 . S
C2524 H2515 0.950 . S
C2524 C2523 1.398 . S
C2524 C2525 1.391 . S
C2525 H2513 0.950 . S
C2525 C2521 1.393 . S
C2525 C2524 1.391 . S
C2526 H2516 0.950 . S
C2526 C2527 1.386 . S
C2526 C2528 1.391 . S
C2527 C2526 1.386 . S
C2527 C2531 1.393 . S
C2528 H2517 0.950 . S
C2528 C2526 1.391 . S
C2528 C2529 1.400 . S
C2529 C2523 1.491 . S
C2529 C2528 1.400 . S
C2529 C2530 1.398 . S
C2530 H2518 0.950 . S
C2530 C2529 1.398 . S
C2530 C2531 1.391 . S
C2531 H2519 0.950 . S
C2531 C2527 1.393 . S
C2531 C2530 1.391 . S
H2532 C2540 0.950 . S
H2533 C2545 0.950 . S
H2534 C2542 0.950 . S
H2535 C2544 0.950 . S
H2536 C2546 0.950 . S
H2537 C2548 0.950 . S
H2538 C2550 0.950 . S
H2539 C2551 0.950 . S
C2540 H2532 0.950 . S
C2540 C2541 1.386 . S
C2540 C2542 1.391 . S
C2541 C2540 1.386 . S
C2541 C2545 1.393 . S
C2542 H2534 0.950 . S
C2542 C2540 1.391 . S
C2542 C2543 1.400 . S
C2543 C2542 1.400 . S
C2543 C2544 1.398 . S
C2543 C2549 1.491 . S
C2544 H2535 0.950 . S
C2544 C2543 1.398 . S
C2544 C2545 1.391 . S
C2545 H2533 0.950 . S
C2545 C2541 1.393 . S
C2545 C2544 1.391 . S
C2546 H2536 0.950 . S
C2546 C2547 1.386 . S
C2546 C2548 1.391 . S
C2547 C2546 1.386 . S
C2547 C2551 1.393 . S
C2548 H2537 0.950 . S
C2548 C2546 1.391 . S
C2548 C2549 1.400 . S
C2549 C2543 1.491 . S
C2549 C2548 1.400 . S
C2549 C2550 1.398 . S
C2550 H2538 0.950 . S
C2550 C2549 1.398 . S
C2550 C2551 1.391 . S
C2551 H2539 0.950 . S
C2551 C2547 1.393 . S
C2551 C2550 1.391 . S
H2552 C2560 0.950 . S
H2553 C2565 0.950 . S
H2554 C2562 0.950 . S
H2555 C2564 0.950 . S
H2556 C2566 0.950 . S
H2557 C2568 0.950 . S
H2558 C2570 0.950 . S
H2559 C2571 0.950 . S
C2560 H2552 0.950 . S
C2560 C2561 1.386 . S
C2560 C2562 1.391 . S
C2561 C2560 1.386 . S
C2561 C2565 1.393 . S
C2562 H2554 0.950 . S
C2562 C2560 1.391 . S
C2562 C2563 1.400 . S
C2563 C2562 1.400 . S
C2563 C2564 1.398 . S
C2563 C2569 1.491 . S
C2564 H2555 0.950 . S
C2564 C2563 1.398 . S
C2564 C2565 1.391 . S
C2565 H2553 0.950 . S
C2565 C2561 1.393 . S
C2565 C2564 1.391 . S
C2566 H2556 0.950 . S
C2566 C2567 1.386 . S
C2566 C2568 1.391 . S
C2567 C2566 1.386 . S
C2567 C2571 1.393 . S
C2568 H2557 0.950 . S
C2568 C2566 1.391 . S
C2568 C2569 1.400 . S
C2569 C2563 1.491 . S
C2569 C2568 1.400 . S
C2569 C2570 1.398 . S
C2570 H2558 0.950 . S
C2570 C2569 1.398 . S
C2570 C2571 1.391 . S
C2571 H2559 0.950 . S
C2571 C2567 1.393 . S
C2571 C2570 1.391 . S
H2572 C2580 0.950 . S
H2573 C2585 0.950 . S
H2574 C2582 0.950 . S
H2575 C2584 0.950 . S
H2576 C2586 0.950 1_556 S
H2577 C2588 0.963 . S
H2578 C2590 0.950 . S
H2579 C2591 0.950 . S
C2580 H2572 0.950 . S
C2580 C2581 1.386 . S
C2580 C2582 1.391 . S
C2581 C2580 1.386 . S
C2581 C2585 1.393 1_554 S
C2582 H2574 0.950 . S
C2582 C2580 1.391 . S
C2582 C2583 1.400 . S
C2583 C2582 1.400 . S
C2583 C2584 1.398 1_554 S
C2583 C2589 1.491 . S
C2584 H2575 0.950 . S
C2584 C2583 1.398 1_556 S
C2584 C2585 1.391 . S
C2585 H2573 0.950 . S
C2585 C2581 1.393 1_556 S
C2585 C2584 1.391 . S
C2586 H2576 0.950 1_554 S
C2586 C2587 1.386 . S
C2586 C2588 1.390 1_554 S
C2587 C2586 1.386 . S
C2587 C2591 1.393 . S
C2588 H2577 0.963 . S
C2588 C2586 1.390 1_556 S
C2588 C2589 1.389 1_556 S
C2589 C2583 1.491 . S
C2589 C2588 1.389 1_554 S
C2589 C2590 1.398 . S
C2590 H2578 0.950 . S
C2590 C2589 1.398 . S
C2590 C2591 1.391 . S
C2591 H2579 0.950 . S
C2591 C2587 1.393 . S
C2591 C2590 1.391 . S
H2592 C2600 0.950 . S
H2593 C2605 0.950 . S
H2594 C2602 0.950 . S
H2595 C2604 0.950 . S
H2596 C2606 0.950 . S
H2597 C2608 0.950 . S
H2598 C2610 0.950 . S
H2599 C2611 0.950 . S
C2600 H2592 0.950 . S
C2600 C2601 1.386 . S
C2600 C2602 1.391 . S
C2601 C2600 1.386 . S
C2601 C2605 1.393 . S
C2602 H2594 0.950 . S
C2602 C2600 1.391 . S
C2602 C2603 1.400 . S
C2603 C2602 1.400 . S
C2603 C2604 1.398 . S
C2603 C2609 1.491 . S
C2604 H2595 0.950 . S
C2604 C2603 1.398 . S
C2604 C2605 1.391 . S
C2605 H2593 0.950 . S
C2605 C2601 1.393 . S
C2605 C2604 1.391 . S
C2606 H2596 0.950 . S
C2606 C2607 1.386 . S
C2606 C2608 1.391 . S
C2607 C2606 1.386 . S
C2607 C2611 1.393 . S
C2608 H2597 0.950 . S
C2608 C2606 1.391 . S
C2608 C2609 1.400 . S
C2609 C2603 1.491 . S
C2609 C2608 1.400 . S
C2609 C2610 1.398 . S
C2610 H2598 0.950 . S
C2610 C2609 1.398 . S
C2610 C2611 1.391 . S
C2611 H2599 0.950 . S
C2611 C2607 1.393 . S
C2611 C2610 1.391 . S
H2612 C2620 0.950 . S
H2613 C2625 0.950 . S
H2614 C2622 0.958 . S
H2615 C2624 0.950 . S
H2616 C2626 0.950 . S
H2617 C2628 0.950 . S
H2618 C2630 0.950 . S
H2619 C2631 0.950 . S
C2620 H2612 0.950 . S
C2620 C2621 1.386 . S
C2620 C2622 1.391 . S
C2621 C2620 1.386 . S
C2621 C2625 1.393 . S
C2622 H2614 0.958 . S
C2622 C2620 1.391 . S
C2622 C2623 1.400 . S
C2623 C2622 1.400 . S
C2623 C2624 1.398 . S
C2623 C2629 1.491 . S
C2624 H2615 0.950 . S
C2624 C2623 1.398 . S
C2624 C2625 1.391 . S
C2625 H2613 0.950 . S
C2625 C2621 1.393 . S
C2625 C2624 1.391 . S
C2626 H2616 0.950 . S
C2626 C2627 1.381 1_554 S
C2626 C2628 1.391 . S
C2627 C2626 1.381 1_556 S
C2627 C2631 1.396 . S
C2628 H2617 0.950 . S
C2628 C2626 1.391 . S
C2628 C2629 1.400 . S
C2629 C2623 1.491 . S
C2629 C2628 1.400 . S
C2629 C2630 1.398 1_554 S
C2630 H2618 0.950 . S
C2630 C2629 1.398 1_556 S
C2630 C2631 1.391 . S
C2631 H2619 0.950 . S
C2631 C2627 1.396 . S
C2631 C2630 1.391 . S
H2632 C2640 0.950 . S
H2633 C2645 0.950 . S
H2634 C2642 0.950 . S
H2635 C2644 0.950 . S
H2636 C2646 0.950 . S
H2637 C2648 0.950 . S
H2638 C2650 0.950 . S
H2639 C2651 0.950 . S
C2640 H2632 0.950 . S
C2640 C2641 1.386 . S
C2640 C2642 1.391 . S
C2641 C2640 1.386 . S
C2641 C2645 1.393 . S
C2642 H2634 0.950 . S
C2642 C2640 1.391 . S
C2642 C2643 1.400 . S
C2643 C2642 1.400 . S
C2643 C2644 1.398 . S
C2643 C2649 1.491 . S
C2644 H2635 0.950 . S
C2644 C2643 1.398 . S
C2644 C2645 1.391 . S
C2645 H2633 0.950 . S
C2645 C2641 1.393 . S
C2645 C2644 1.391 . S
C2646 H2636 0.950 . S
C2646 C2647 1.386 . S
C2646 C2648 1.391 . S
C2647 C2646 1.386 . S
C2647 C2651 1.393 . S
C2648 H2637 0.950 . S
C2648 C2646 1.391 . S
C2648 C2649 1.400 . S
C2649 C2643 1.491 . S
C2649 C2648 1.400 . S
C2649 C2650 1.398 . S
C2650 H2638 0.950 . S
C2650 C2649 1.398 . S
C2650 C2651 1.391 . S
C2651 H2639 0.950 . S
C2651 C2647 1.393 . S
C2651 C2650 1.391 . S
H2652 C2660 0.950 . S
H2653 C2665 0.950 . S
H2654 C2662 0.950 . S
H2655 C2664 0.950 . S
H2656 C2666 0.950 . S
H2657 C2668 0.950 . S
H2658 C2670 0.950 . S
H2659 C2671 0.950 . S
C2660 H2652 0.950 . S
C2660 C2661 1.386 . S
C2660 C2662 1.391 . S
C2661 C2660 1.386 . S
C2661 C2665 1.393 . S
C2662 H2654 0.950 . S
C2662 C2660 1.391 . S
C2662 C2663 1.400 . S
C2663 C2662 1.400 . S
C2663 C2664 1.398 . S
C2663 C2669 1.491 . S
C2664 H2655 0.950 . S
C2664 C2663 1.398 . S
C2664 C2665 1.391 . S
C2665 H2653 0.950 . S
C2665 C2661 1.393 . S
C2665 C2664 1.391 . S
C2666 H2656 0.950 . S
C2666 C2667 1.386 . S
C2666 C2668 1.391 . S
C2667 C2666 1.386 . S
C2667 C2671 1.393 . S
C2668 H2657 0.950 . S
C2668 C2666 1.391 . S
C2668 C2669 1.400 . S
C2669 C2663 1.491 . S
C2669 C2668 1.400 . S
C2669 C2670 1.398 . S
C2670 H2658 0.950 . S
C2670 C2669 1.398 . S
C2670 C2671 1.391 . S
C2671 H2659 0.950 . S
C2671 C2667 1.393 . S
C2671 C2670 1.391 . S
H2672 C2680 0.950 . S
H2673 C2685 0.950 . S
H2674 C2682 0.950 . S
H2675 C2684 0.950 . S
H2676 C2686 0.950 . S
H2677 C2688 0.950 . S
H2678 C2690 0.950 . S
H2679 C2691 0.950 . S
C2680 H2672 0.950 . S
C2680 C2681 1.386 . S
C2680 C2682 1.391 . S
C2681 C2680 1.386 . S
C2681 C2685 1.393 . S
C2682 H2674 0.950 . S
C2682 C2680 1.391 . S
C2682 C2683 1.400 . S
C2683 C2682 1.400 . S
C2683 C2684 1.398 . S
C2683 C2689 1.491 . S
C2684 H2675 0.950 . S
C2684 C2683 1.398 . S
C2684 C2685 1.391 . S
C2685 H2673 0.950 . S
C2685 C2681 1.393 . S
C2685 C2684 1.391 . S
C2686 H2676 0.950 . S
C2686 C2687 1.386 . S
C2686 C2688 1.391 . S
C2687 C2686 1.386 . S
C2687 C2691 1.393 . S
C2688 H2677 0.950 . S
C2688 C2686 1.391 . S
C2688 C2689 1.400 . S
C2689 C2683 1.491 . S
C2689 C2688 1.400 . S
C2689 C2690 1.398 . S
C2690 H2678 0.950 . S
C2690 C2689 1.398 . S
C2690 C2691 1.391 . S
C2691 H2679 0.950 . S
C2691 C2687 1.393 . S
C2691 C2690 1.391 . S
H2692 C2700 0.950 . S
H2693 C2705 0.950 . S
H2694 C2702 0.950 . S
H2695 C2704 0.950 . S
H2696 C2706 0.950 . S
H2697 C2708 0.950 . S
H2698 C2710 0.950 . S
H2699 C2711 0.950 . S
C2700 H2692 0.950 . S
C2700 C2701 1.386 . S
C2700 C2702 1.391 . S
C2701 C2700 1.386 . S
C2701 C2705 1.393 . S
C2702 H2694 0.950 . S
C2702 C2700 1.391 . S
C2702 C2703 1.400 . S
C2703 C2702 1.400 . S
C2703 C2704 1.398 . S
C2703 C2709 1.491 . S
C2704 H2695 0.950 . S
C2704 C2703 1.398 . S
C2704 C2705 1.391 . S
C2705 H2693 0.950 . S
C2705 C2701 1.393 . S
C2705 C2704 1.391 . S
C2706 H2696 0.950 . S
C2706 C2707 1.386 . S
C2706 C2708 1.391 . S
C2707 C2706 1.386 . S
C2707 C2711 1.393 . S
C2708 H2697 0.950 . S
C2708 C2706 1.391 . S
C2708 C2709 1.400 . S
C2709 C2703 1.491 . S
C2709 C2708 1.400 . S
C2709 C2710 1.398 . S
C2710 H2698 0.950 . S
C2710 C2709 1.398 . S
C2710 C2711 1.391 . S
C2711 H2699 0.950 . S
C2711 C2707 1.393 . S
C2711 C2710 1.391 . S
H2712 C2720 0.951 . S
H2713 C2725 0.950 . S
H2714 C2722 0.950 . S
H2715 C2724 0.950 . S
H2716 C2726 0.941 1_554 S
H2717 C2728 0.950 1_455 S
H2718 C2730 0.950 . S
H2719 C2731 0.950 . S
C2720 H2712 0.951 . S
C2720 C2721 1.383 1_655 S
C2720 C2722 1.393 . S
C2721 C2720 1.383 1_455 S
C2721 C2725 1.393 . S
C2722 H2714 0.950 . S
C2722 C2720 1.393 . S
C2722 C2723 1.404 . S
C2723 C2722 1.404 . S
C2723 C2724 1.391 1_655 S
C2723 C2729 1.495 . S
C2724 H2715 0.950 . S
C2724 C2723 1.391 1_455 S
C2724 C2725 1.391 . S
C2725 H2713 0.950 . S
C2725 C2721 1.393 . S
C2725 C2724 1.391 . S
C2726 H2716 0.941 1_556 S
C2726 C2727 1.390 . S
C2726 C2728 1.396 . S
C2727 C2726 1.390 . S
C2727 C2731 1.393 . S
C2728 H2717 0.950 1_655 S
C2728 C2726 1.396 . S
C2728 C2729 1.400 . S
C2729 C2723 1.495 . S
C2729 C2728 1.400 . S
C2729 C2730 1.398 . S
C2730 H2718 0.950 . S
C2730 C2729 1.398 . S
C2730 C2731 1.391 . S
C2731 H2719 0.950 . S
C2731 C2727 1.393 . S
C2731 C2730 1.391 . S
H2732 C2740 0.950 . S
H2733 C2745 0.950 . S
H2734 C2742 0.950 . S
H2735 C2744 0.950 . S
H2736 C2746 0.950 . S
H2737 C2748 0.950 . S
H2738 C2750 0.950 . S
H2739 C2751 0.950 . S
C2740 H2732 0.950 . S
C2740 C2741 1.386 . S
C2740 C2742 1.391 . S
C2741 C2740 1.386 . S
C2741 C2745 1.393 . S
C2742 H2734 0.950 . S
C2742 C2740 1.391 . S
C2742 C2743 1.400 . S
C2743 C2742 1.400 . S
C2743 C2744 1.398 . S
C2743 C2749 1.491 . S
C2744 H2735 0.950 . S
C2744 C2743 1.398 . S
C2744 C2745 1.391 . S
C2745 H2733 0.950 . S
C2745 C2741 1.393 . S
C2745 C2744 1.391 . S
C2746 H2736 0.950 . S
C2746 C2747 1.386 . S
C2746 C2748 1.391 . S
C2747 C2746 1.386 . S
C2747 C2751 1.393 . S
C2748 H2737 0.950 . S
C2748 C2746 1.391 . S
C2748 C2749 1.400 . S
C2749 C2743 1.491 . S
C2749 C2748 1.400 . S
C2749 C2750 1.398 . S
C2750 H2738 0.950 . S
C2750 C2749 1.398 . S
C2750 C2751 1.391 . S
C2751 H2739 0.950 . S
C2751 C2747 1.393 . S
C2751 C2750 1.391 . S
H2752 C2760 0.950 . S
H2753 C2765 0.950 . S
H2754 C2762 0.950 . S
H2755 C2764 0.950 . S
H2756 C2766 0.950 . S
H2757 C2768 0.950 . S
H2758 C2770 0.950 . S
H2759 C2771 0.950 . S
C2760 H2752 0.950 . S
C2760 C2761 1.386 . S
C2760 C2762 1.391 . S
C2761 C2760 1.386 . S
C2761 C2765 1.393 . S
C2762 H2754 0.950 . S
C2762 C2760 1.391 . S
C2762 C2763 1.400 . S
C2763 C2762 1.400 . S
C2763 C2764 1.398 . S
C2763 C2769 1.491 . S
C2764 H2755 0.950 . S
C2764 C2763 1.398 . S
C2764 C2765 1.391 . S
C2765 H2753 0.950 . S
C2765 C2761 1.393 . S
C2765 C2764 1.391 . S
C2766 H2756 0.950 . S
C2766 C2767 1.386 . S
C2766 C2768 1.391 . S
C2767 C2766 1.386 . S
C2767 C2771 1.393 . S
C2768 H2757 0.950 . S
C2768 C2766 1.391 . S
C2768 C2769 1.400 . S
C2769 C2763 1.491 . S
C2769 C2768 1.400 . S
C2769 C2770 1.398 . S
C2770 H2758 0.950 . S
C2770 C2769 1.398 . S
C2770 C2771 1.391 . S
C2771 H2759 0.950 . S
C2771 C2767 1.393 . S
C2771 C2770 1.391 . S
H2772 C2780 0.950 . S
H2773 C2785 0.950 . S
H2774 C2782 0.950 . S
H2775 C2784 0.950 . S
H2776 C2786 0.950 . S
H2777 C2788 0.950 . S
H2778 C2790 0.950 . S
H2779 C2791 0.950 . S
C2780 H2772 0.950 . S
C2780 C2781 1.386 . S
C2780 C2782 1.391 . S
C2781 C2780 1.386 . S
C2781 C2785 1.393 . S
C2782 H2774 0.950 . S
C2782 C2780 1.391 . S
C2782 C2783 1.400 . S
C2783 C2782 1.400 . S
C2783 C2784 1.398 . S
C2783 C2789 1.491 . S
C2784 H2775 0.950 . S
C2784 C2783 1.398 . S
C2784 C2785 1.391 . S
C2785 H2773 0.950 . S
C2785 C2781 1.393 . S
C2785 C2784 1.391 . S
C2786 H2776 0.950 . S
C2786 C2787 1.386 . S
C2786 C2788 1.391 . S
C2787 C2786 1.386 . S
C2787 C2791 1.393 . S
C2788 H2777 0.950 . S
C2788 C2786 1.391 . S
C2788 C2789 1.400 . S
C2789 C2783 1.491 . S
C2789 C2788 1.400 . S
C2789 C2790 1.398 . S
C2790 H2778 0.950 . S
C2790 C2789 1.398 . S
C2790 C2791 1.391 . S
C2791 H2779 0.950 . S
C2791 C2787 1.393 . S
C2791 C2790 1.391 . S
H2792 C2800 0.950 . S
H2793 C2805 0.950 . S
H2794 C2802 0.950 . S
H2795 C2804 0.950 . S
H2796 C2806 0.950 . S
H2797 C2808 0.950 . S
H2798 C2810 0.950 . S
H2799 C2811 0.950 . S
C2800 H2792 0.950 . S
C2800 C2801 1.386 . S
C2800 C2802 1.391 . S
C2801 C2800 1.386 . S
C2801 C2805 1.393 1_455 S
C2802 H2794 0.950 . S
C2802 C2800 1.391 . S
C2802 C2803 1.400 1_455 S
C2803 C2802 1.400 1_655 S
C2803 C2804 1.398 . S
C2803 C2809 1.491 . S
C2804 H2795 0.950 . S
C2804 C2803 1.398 . S
C2804 C2805 1.391 . S
C2805 H2793 0.950 . S
C2805 C2801 1.393 1_655 S
C2805 C2804 1.391 . S
C2806 H2796 0.950 . S
C2806 C2807 1.386 . S
C2806 C2808 1.391 . S
C2807 C2806 1.386 . S
C2807 C2811 1.393 1_655 S
C2808 H2797 0.950 . S
C2808 C2806 1.391 . S
C2808 C2809 1.400 . S
C2809 C2803 1.491 . S
C2809 C2808 1.400 . S
C2809 C2810 1.398 1_655 S
C2810 H2798 0.950 . S
C2810 C2809 1.398 1_455 S
C2810 C2811 1.391 . S
C2811 H2799 0.950 . S
C2811 C2807 1.393 1_455 S
C2811 C2810 1.391 . S
H2812 C2820 0.950 . S
H2813 C2825 0.950 . S
H2814 C2822 0.950 . S
H2815 C2824 0.950 . S
H2816 C2826 0.950 . S
H2817 C2828 0.950 . S
H2818 C2830 0.950 . S
H2819 C2831 0.950 . S
C2820 H2812 0.950 . S
C2820 C2821 1.386 . S
C2820 C2822 1.391 . S
C2821 C2820 1.386 . S
C2821 C2825 1.393 . S
C2822 H2814 0.950 . S
C2822 C2820 1.391 . S
C2822 C2823 1.400 . S
C2823 C2822 1.400 . S
C2823 C2824 1.398 . S
C2823 C2829 1.491 . S
C2824 H2815 0.950 . S
C2824 C2823 1.398 . S
C2824 C2825 1.391 . S
C2825 H2813 0.950 . S
C2825 C2821 1.393 . S
C2825 C2824 1.391 . S
C2826 H2816 0.950 . S
C2826 C2827 1.386 . S
C2826 C2828 1.391 . S
C2827 C2826 1.386 . S
C2827 C2831 1.393 . S
C2828 H2817 0.950 . S
C2828 C2826 1.391 . S
C2828 C2829 1.400 . S
C2829 C2823 1.491 . S
C2829 C2828 1.400 . S
C2829 C2830 1.398 . S
C2830 H2818 0.950 . S
C2830 C2829 1.398 . S
C2830 C2831 1.391 . S
C2831 H2819 0.950 . S
C2831 C2827 1.393 . S
C2831 C2830 1.391 . S
H2832 C2840 0.950 . S
H2833 C2845 0.950 . S
H2834 C2842 0.950 . S
H2835 C2844 0.950 . S
H2836 C2846 0.950 . S
H2837 C2848 0.950 . S
H2838 C2850 0.950 . S
H2839 C2851 0.950 . S
C2840 H2832 0.950 . S
C2840 C2841 1.386 . S
C2840 C2842 1.391 . S
C2841 C2840 1.386 . S
C2841 C2845 1.393 . S
C2842 H2834 0.950 . S
C2842 C2840 1.391 . S
C2842 C2843 1.400 . S
C2843 C2842 1.400 . S
C2843 C2844 1.398 . S
C2843 C2849 1.491 . S
C2844 H2835 0.950 . S
C2844 C2843 1.398 . S
C2844 C2845 1.391 . S
C2845 H2833 0.950 . S
C2845 C2841 1.393 . S
C2845 C2844 1.391 . S
C2846 H2836 0.950 . S
C2846 C2847 1.386 . S
C2846 C2848 1.391 . S
C2847 C2846 1.386 . S
C2847 C2851 1.393 . S
C2848 H2837 0.950 . S
C2848 C2846 1.391 . S
C2848 C2849 1.400 . S
C2849 C2843 1.491 . S
C2849 C2848 1.400 . S
C2849 C2850 1.398 . S
C2850 H2838 0.950 . S
C2850 C2849 1.398 . S
C2850 C2851 1.391 . S
C2851 H2839 0.950 . S
C2851 C2847 1.393 . S
C2851 C2850 1.391 . S
H2852 C2860 0.950 . S
H2853 C2865 0.950 . S
H2854 C2862 0.950 . S
H2855 C2864 0.950 . S
H2856 C2866 0.950 . S
H2857 C2868 0.950 . S
H2858 C2870 0.950 . S
H2859 C2871 0.950 . S
C2860 H2852 0.950 . S
C2860 C2861 1.386 . S
C2860 C2862 1.391 . S
C2861 C2860 1.386 . S
C2861 C2865 1.393 . S
C2862 H2854 0.950 . S
C2862 C2860 1.391 . S
C2862 C2863 1.400 . S
C2863 C2862 1.400 . S
C2863 C2864 1.398 . S
C2863 C2869 1.491 . S
C2864 H2855 0.950 . S
C2864 C2863 1.398 . S
C2864 C2865 1.391 . S
C2865 H2853 0.950 . S
C2865 C2861 1.393 . S
C2865 C2864 1.391 . S
C2866 H2856 0.950 . S
C2866 C2867 1.386 . S
C2866 C2868 1.391 . S
C2867 C2866 1.386 . S
C2867 C2871 1.393 . S
C2868 H2857 0.950 . S
C2868 C2866 1.391 . S
C2868 C2869 1.400 . S
C2869 C2863 1.491 . S
C2869 C2868 1.400 . S
C2869 C2870 1.398 . S
C2870 H2858 0.950 . S
C2870 C2869 1.398 . S
C2870 C2871 1.391 . S
C2871 H2859 0.950 . S
C2871 C2867 1.393 . S
C2871 C2870 1.391 . S
H2872 C2880 0.950 . S
H2873 C2885 0.950 . S
H2874 C2882 0.950 . S
H2875 C2884 0.950 . S
H2876 C2886 0.950 . S
H2877 C2888 0.950 . S
H2878 C2890 0.950 . S
H2879 C2891 0.950 . S
C2880 H2872 0.950 . S
C2880 C2881 1.386 . S
C2880 C2882 1.391 . S
C2881 C2880 1.386 . S
C2881 C2885 1.393 . S
C2882 H2874 0.950 . S
C2882 C2880 1.391 . S
C2882 C2883 1.400 . S
C2883 C2882 1.400 . S
C2883 C2884 1.398 . S
C2883 C2889 1.491 . S
C2884 H2875 0.950 . S
C2884 C2883 1.398 . S
C2884 C2885 1.391 . S
C2885 H2873 0.950 . S
C2885 C2881 1.393 . S
C2885 C2884 1.391 . S
C2886 H2876 0.950 . S
C2886 C2887 1.386 . S
C2886 C2888 1.391 . S
C2887 C2886 1.386 . S
C2887 C2891 1.393 . S
C2888 H2877 0.950 . S
C2888 C2886 1.391 . S
C2888 C2889 1.400 . S
C2889 C2883 1.491 . S
C2889 C2888 1.400 . S
C2889 C2890 1.398 . S
C2890 H2878 0.950 . S
C2890 C2889 1.398 . S
C2890 C2891 1.391 . S
C2891 H2879 0.950 . S
C2891 C2887 1.393 . S
C2891 C2890 1.391 . S
H2892 C2900 0.950 . S
H2893 C2905 0.950 . S
H2894 C2902 0.950 . S
H2895 C2904 0.950 . S
H2896 C2906 0.950 . S
H2897 C2908 0.950 . S
H2898 C2910 0.950 . S
H2899 C2911 0.950 . S
C2900 H2892 0.950 . S
C2900 C2901 1.386 . S
C2900 C2902 1.391 . S
C2901 C2900 1.386 . S
C2901 C2905 1.393 . S
C2902 H2894 0.950 . S
C2902 C2900 1.391 . S
C2902 C2903 1.400 . S
C2903 C2902 1.400 . S
C2903 C2904 1.398 . S
C2903 C2909 1.491 . S
C2904 H2895 0.950 . S
C2904 C2903 1.398 . S
C2904 C2905 1.391 . S
C2905 H2893 0.950 . S
C2905 C2901 1.393 . S
C2905 C2904 1.391 . S
C2906 H2896 0.950 . S
C2906 C2907 1.386 . S
C2906 C2908 1.391 . S
C2907 C2906 1.386 . S
C2907 C2911 1.393 . S
C2908 H2897 0.950 . S
C2908 C2906 1.391 . S
C2908 C2909 1.400 . S
C2909 C2903 1.491 . S
C2909 C2908 1.400 . S
C2909 C2910 1.398 . S
C2910 H2898 0.950 . S
C2910 C2909 1.398 . S
C2910 C2911 1.391 . S
C2911 H2899 0.950 . S
C2911 C2907 1.393 . S
C2911 C2910 1.391 . S
H2912 C2920 0.950 . S
H2913 C2925 0.950 . S
H2914 C2922 0.950 . S
H2915 C2924 0.950 . S
H2916 C2926 0.950 . S
H2917 C2928 0.950 . S
H2918 C2930 0.950 . S
H2919 C2931 0.950 . S
C2920 H2912 0.950 . S
C2920 C2921 1.386 . S
C2920 C2922 1.391 . S
C2921 C2920 1.386 . S
C2921 C2925 1.393 . S
C2922 H2914 0.950 . S
C2922 C2920 1.391 . S
C2922 C2923 1.400 . S
C2923 C2922 1.400 . S
C2923 C2924 1.398 . S
C2923 C2929 1.491 . S
C2924 H2915 0.950 . S
C2924 C2923 1.398 . S
C2924 C2925 1.391 . S
C2925 H2913 0.950 . S
C2925 C2921 1.393 . S
C2925 C2924 1.391 . S
C2926 H2916 0.950 . S
C2926 C2927 1.386 . S
C2926 C2928 1.391 . S
C2927 C2926 1.386 . S
C2927 C2931 1.393 . S
C2928 H2917 0.950 . S
C2928 C2926 1.391 . S
C2928 C2929 1.400 . S
C2929 C2923 1.491 . S
C2929 C2928 1.400 . S
C2929 C2930 1.398 . S
C2930 H2918 0.950 . S
C2930 C2929 1.398 . S
C2930 C2931 1.391 . S
C2931 H2919 0.950 . S
C2931 C2927 1.393 . S
C2931 C2930 1.391 . S
H2932 C2940 0.950 . S
H2933 C2945 0.950 . S
H2934 C2942 0.950 . S
H2935 C2944 0.950 . S
H2936 C2946 0.950 . S
H2937 C2948 0.950 . S
H2938 C2950 0.950 . S
H2939 C2951 0.950 . S
C2940 H2932 0.950 . S
C2940 C2941 1.386 . S
C2940 C2942 1.391 . S
C2941 C2940 1.386 . S
C2941 C2945 1.393 . S
C2942 H2934 0.950 . S
C2942 C2940 1.391 . S
C2942 C2943 1.400 . S
C2943 C2942 1.400 . S
C2943 C2944 1.398 . S
C2943 C2949 1.491 . S
C2944 H2935 0.950 . S
C2944 C2943 1.398 . S
C2944 C2945 1.391 . S
C2945 H2933 0.950 . S
C2945 C2941 1.393 . S
C2945 C2944 1.391 . S
C2946 H2936 0.950 . S
C2946 C2947 1.386 . S
C2946 C2948 1.391 . S
C2947 C2946 1.386 . S
C2947 C2951 1.393 . S
C2948 H2937 0.950 . S
C2948 C2946 1.391 . S
C2948 C2949 1.400 . S
C2949 C2943 1.491 . S
C2949 C2948 1.400 . S
C2949 C2950 1.398 . S
C2950 H2938 0.950 . S
C2950 C2949 1.398 . S
C2950 C2951 1.391 . S
C2951 H2939 0.950 . S
C2951 C2947 1.393 . S
C2951 C2950 1.391 . S
H2952 C2960 0.950 . S
H2953 C2965 0.950 . S
H2954 C2962 0.950 . S
H2955 C2964 0.950 . S
H2956 C2966 0.950 . S
H2957 C2968 0.950 . S
H2958 C2970 0.950 . S
H2959 C2971 0.950 . S
C2960 H2952 0.950 . S
C2960 C2961 1.386 . S
C2960 C2962 1.391 . S
C2961 C2960 1.386 . S
C2961 C2965 1.393 . S
C2962 H2954 0.950 . S
C2962 C2960 1.391 . S
C2962 C2963 1.400 . S
C2963 C2962 1.400 . S
C2963 C2964 1.398 . S
C2963 C2969 1.491 . S
C2964 H2955 0.950 . S
C2964 C2963 1.398 . S
C2964 C2965 1.391 . S
C2965 H2953 0.950 . S
C2965 C2961 1.393 . S
C2965 C2964 1.391 . S
C2966 H2956 0.950 . S
C2966 C2967 1.386 . S
C2966 C2968 1.391 . S
C2967 C2966 1.386 . S
C2967 C2971 1.393 . S
C2968 H2957 0.950 . S
C2968 C2966 1.391 . S
C2968 C2969 1.400 . S
C2969 C2963 1.491 . S
C2969 C2968 1.400 . S
C2969 C2970 1.398 . S
C2970 H2958 0.950 . S
C2970 C2969 1.398 . S
C2970 C2971 1.391 . S
C2971 H2959 0.950 . S
C2971 C2967 1.393 . S
C2971 C2970 1.391 . S
H2972 C2980 0.950 . S
H2973 C2985 0.950 . S
H2974 C2982 0.950 . S
H2975 C2984 0.950 . S
H2976 C2986 0.950 . S
H2977 C2988 0.950 . S
H2978 C2990 0.950 . S
H2979 C2991 0.950 . S
C2980 H2972 0.950 . S
C2980 C2981 1.386 . S
C2980 C2982 1.391 . S
C2981 C2980 1.386 . S
C2981 C2985 1.393 . S
C2982 H2974 0.950 . S
C2982 C2980 1.391 . S
C2982 C2983 1.400 . S
C2983 C2982 1.400 . S
C2983 C2984 1.398 . S
C2983 C2989 1.491 . S
C2984 H2975 0.950 . S
C2984 C2983 1.398 . S
C2984 C2985 1.391 . S
C2985 H2973 0.950 . S
C2985 C2981 1.393 . S
C2985 C2984 1.391 . S
C2986 H2976 0.950 . S
C2986 C2987 1.386 . S
C2986 C2988 1.391 . S
C2987 C2986 1.386 . S
C2987 C2991 1.393 . S
C2988 H2977 0.950 . S
C2988 C2986 1.391 . S
C2988 C2989 1.400 . S
C2989 C2983 1.491 . S
C2989 C2988 1.400 . S
C2989 C2990 1.398 . S
C2990 H2978 0.950 . S
C2990 C2989 1.398 . S
C2990 C2991 1.391 . S
C2991 H2979 0.950 . S
C2991 C2987 1.393 . S
C2991 C2990 1.391 . S
H2992 C3000 0.950 . S
H2993 C3005 0.950 . S
H2994 C3002 0.950 . S
H2995 C3004 0.950 . S
H2996 C3006 0.950 . S
H2997 C3008 0.950 . S
H2998 C3010 0.950 . S
H2999 C3011 0.950 . S
C3000 H2992 0.950 . S
C3000 C3001 1.386 . S
C3000 C3002 1.391 . S
C3001 C3000 1.386 . S
C3001 C3005 1.393 . S
C3002 H2994 0.950 . S
C3002 C3000 1.391 . S
C3002 C3003 1.400 . S
C3003 C3002 1.400 . S
C3003 C3004 1.398 . S
C3003 C3009 1.491 . S
C3004 H2995 0.950 . S
C3004 C3003 1.398 . S
C3004 C3005 1.391 . S
C3005 H2993 0.950 . S
C3005 C3001 1.393 . S
C3005 C3004 1.391 . S
C3006 H2996 0.950 . S
C3006 C3007 1.386 . S
C3006 C3008 1.391 . S
C3007 C3006 1.386 . S
C3007 C3011 1.393 . S
C3008 H2997 0.950 . S
C3008 C3006 1.391 . S
C3008 C3009 1.400 . S
C3009 C3003 1.491 . S
C3009 C3008 1.400 . S
C3009 C3010 1.398 . S
C3010 H2998 0.950 . S
C3010 C3009 1.398 . S
C3010 C3011 1.391 . S
C3011 H2999 0.950 . S
C3011 C3007 1.393 . S
C3011 C3010 1.391 . S
H3012 C3020 0.950 . S
H3013 C3025 0.950 . S
H3014 C3022 0.950 . S
H3015 C3024 0.950 . S
H3016 C3026 0.950 . S
H3017 C3028 0.950 . S
H3018 C3030 0.950 . S
H3019 C3031 0.950 . S
C3020 H3012 0.950 . S
C3020 C3021 1.386 . S
C3020 C3022 1.391 . S
C3021 C3020 1.386 . S
C3021 C3025 1.393 . S
C3022 H3014 0.950 . S
C3022 C3020 1.391 . S
C3022 C3023 1.400 . S
C3023 C3022 1.400 . S
C3023 C3024 1.398 . S
C3023 C3029 1.491 . S
C3024 H3015 0.950 . S
C3024 C3023 1.398 . S
C3024 C3025 1.391 . S
C3025 H3013 0.950 . S
C3025 C3021 1.393 . S
C3025 C3024 1.391 . S
C3026 H3016 0.950 . S
C3026 C3027 1.386 . S
C3026 C3028 1.391 . S
C3027 C3026 1.386 . S
C3027 C3031 1.393 . S
C3028 H3017 0.950 . S
C3028 C3026 1.391 . S
C3028 C3029 1.400 . S
C3029 C3023 1.491 . S
C3029 C3028 1.400 . S
C3029 C3030 1.398 . S
C3030 H3018 0.950 . S
C3030 C3029 1.398 . S
C3030 C3031 1.391 . S
C3031 H3019 0.950 . S
C3031 C3027 1.393 . S
C3031 C3030 1.391 . S
H3032 C3040 0.950 . S
H3033 C3045 0.950 . S
H3034 C3042 0.950 . S
H3035 C3044 0.950 . S
H3036 C3046 0.950 . S
H3037 C3048 0.950 . S
H3038 C3050 0.950 . S
H3039 C3051 0.950 . S
C3040 H3032 0.950 . S
C3040 C3041 1.386 . S
C3040 C3042 1.391 . S
C3041 C3040 1.386 . S
C3041 C3045 1.393 . S
C3042 H3034 0.950 . S
C3042 C3040 1.391 . S
C3042 C3043 1.400 . S
C3043 C3042 1.400 . S
C3043 C3044 1.398 . S
C3043 C3049 1.491 . S
C3044 H3035 0.950 . S
C3044 C3043 1.398 . S
C3044 C3045 1.391 . S
C3045 H3033 0.950 . S
C3045 C3041 1.393 . S
C3045 C3044 1.391 . S
C3046 H3036 0.950 . S
C3046 C3047 1.386 . S
C3046 C3048 1.391 . S
C3047 C3046 1.386 . S
C3047 C3051 1.393 . S
C3048 H3037 0.950 . S
C3048 C3046 1.391 . S
C3048 C3049 1.400 . S
C3049 C3043 1.491 . S
C3049 C3048 1.400 . S
C3049 C3050 1.398 . S
C3050 H3038 0.950 . S
C3050 C3049 1.398 . S
C3050 C3051 1.391 . S
C3051 H3039 0.950 . S
C3051 C3047 1.393 . S
C3051 C3050 1.391 . S
H3052 C3060 0.950 . S
H3053 C3065 0.950 . S
H3054 C3062 0.950 . S
H3055 C3064 0.950 . S
H3056 C3066 0.950 . S
H3057 C3068 0.950 . S
H3058 C3070 0.950 . S
H3059 C3071 0.950 . S
C3060 H3052 0.950 . S
C3060 C3061 1.386 1_556 S
C3060 C3062 1.391 . S
C3061 C3060 1.386 1_554 S
C3061 C3065 1.393 . S
C3062 H3054 0.950 . S
C3062 C3060 1.391 . S
C3062 C3063 1.400 . S
C3063 C3062 1.400 . S
C3063 C3064 1.398 1_556 S
C3063 C3069 1.491 . S
C3064 H3055 0.950 . S
C3064 C3063 1.398 1_554 S
C3064 C3065 1.391 . S
C3065 H3053 0.950 . S
C3065 C3061 1.393 . S
C3065 C3064 1.391 . S
C3066 H3056 0.950 . S
C3066 C3067 1.386 1_554 S
C3066 C3068 1.391 . S
C3067 C3066 1.386 1_556 S
C3067 C3071 1.393 . S
C3068 H3057 0.950 . S
C3068 C3066 1.391 . S
C3068 C3069 1.400 1_554 S
C3069 C3063 1.491 . S
C3069 C3068 1.400 1_556 S
C3069 C3070 1.398 . S
C3070 H3058 0.950 . S
C3070 C3069 1.398 . S
C3070 C3071 1.391 . S
C3071 H3059 0.950 . S
C3071 C3067 1.393 . S
C3071 C3070 1.391 . S
H3072 C3080 0.950 . S
H3073 C3085 0.950 . S
H3074 C3082 0.950 . S
H3075 C3084 0.950 . S
H3076 C3086 0.950 . S
H3077 C3088 0.950 . S
H3078 C3090 0.950 . S
H3079 C3091 0.950 . S
C3080 H3072 0.950 . S
C3080 C3081 1.386 . S
C3080 C3082 1.391 . S
C3081 C3080 1.386 . S
C3081 C3085 1.393 . S
C3082 H3074 0.950 . S
C3082 C3080 1.391 . S
C3082 C3083 1.400 . S
C3083 C3082 1.400 . S
C3083 C3084 1.398 . S
C3083 C3089 1.491 . S
C3084 H3075 0.950 . S
C3084 C3083 1.398 . S
C3084 C3085 1.391 . S
C3085 H3073 0.950 . S
C3085 C3081 1.393 . S
C3085 C3084 1.391 . S
C3086 H3076 0.950 . S
C3086 C3087 1.386 . S
C3086 C3088 1.391 . S
C3087 C3086 1.386 . S
C3087 C3091 1.393 . S
C3088 H3077 0.950 . S
C3088 C3086 1.391 . S
C3088 C3089 1.400 . S
C3089 C3083 1.491 . S
C3089 C3088 1.400 . S
C3089 C3090 1.398 . S
C3090 H3078 0.950 . S
C3090 C3089 1.398 . S
C3090 C3091 1.391 . S
C3091 H3079 0.950 . S
C3091 C3087 1.393 . S
C3091 C3090 1.391 . S
H3092 C3100 0.950 . S
H3093 C3105 0.950 . S
H3094 C3102 0.950 . S
H3095 C3104 0.950 . S
H3096 C3106 0.950 1_556 S
H3097 C3108 0.950 1_556 S
H3098 C3110 0.950 . S
H3099 C3111 0.950 . S
C3100 H3092 0.950 . S
C3100 C3101 1.386 . S
C3100 C3102 1.391 . S
C3101 C3100 1.386 . S
C3101 C3105 1.393 1_554 S
C3102 H3094 0.950 . S
C3102 C3100 1.391 . S
C3102 C3103 1.400 . S
C3103 C3102 1.400 . S
C3103 C3104 1.398 1_554 S
C3103 C3109 1.491 . S
C3104 H3095 0.950 . S
C3104 C3103 1.398 1_556 S
C3104 C3105 1.391 . S
C3105 H3093 0.950 . S
C3105 C3101 1.393 1_556 S
C3105 C3104 1.391 . S
C3106 H3096 0.950 1_554 S
C3106 C3107 1.386 . S
C3106 C3108 1.391 . S
C3107 C3106 1.386 . S
C3107 C3111 1.393 . S
C3108 H3097 0.950 1_554 S
C3108 C3106 1.391 . S
C3108 C3109 1.400 . S
C3109 C3103 1.491 . S
C3109 C3108 1.400 . S
C3109 C3110 1.398 . S
C3110 H3098 0.950 . S
C3110 C3109 1.398 . S
C3110 C3111 1.391 . S
C3111 H3099 0.950 . S
C3111 C3107 1.393 . S
C3111 C3110 1.391 . S
H3112 C3120 0.950 . S
H3113 C3125 0.950 . S
H3114 C3122 0.950 . S
H3115 C3124 0.950 . S
H3116 C3126 0.950 . S
H3117 C3128 0.950 . S
H3118 C3130 0.950 . S
H3119 C3131 0.950 . S
C3120 H3112 0.950 . S
C3120 C3121 1.386 . S
C3120 C3122 1.391 . S
C3121 C3120 1.386 . S
C3121 C3125 1.393 . S
C3122 H3114 0.950 . S
C3122 C3120 1.391 . S
C3122 C3123 1.400 . S
C3123 C3122 1.400 . S
C3123 C3124 1.398 . S
C3123 C3129 1.491 . S
C3124 H3115 0.950 . S
C3124 C3123 1.398 . S
C3124 C3125 1.391 . S
C3125 H3113 0.950 . S
C3125 C3121 1.393 . S
C3125 C3124 1.391 . S
C3126 H3116 0.950 . S
C3126 C3127 1.386 . S
C3126 C3128 1.391 . S
C3127 C3126 1.386 . S
C3127 C3131 1.393 . S
C3128 H3117 0.950 . S
C3128 C3126 1.391 . S
C3128 C3129 1.400 . S
C3129 C3123 1.491 . S
C3129 C3128 1.400 . S
C3129 C3130 1.398 . S
C3130 H3118 0.950 . S
C3130 C3129 1.398 . S
C3130 C3131 1.391 . S
C3131 H3119 0.950 . S
C3131 C3127 1.393 . S
C3131 C3130 1.391 . S
H3132 C3140 0.950 . S
H3133 C3145 0.950 . S
H3134 C3142 0.950 . S
H3135 C3144 0.950 . S
H3136 C3146 0.950 . S
H3137 C3148 0.950 . S
H3138 C3150 0.950 . S
H3139 C3151 0.950 . S
C3140 H3132 0.950 . S
C3140 C3141 1.386 . S
C3140 C3142 1.391 . S
C3141 C3140 1.386 . S
C3141 C3145 1.393 . S
C3142 H3134 0.950 . S
C3142 C3140 1.391 . S
C3142 C3143 1.400 . S
C3143 C3142 1.400 . S
C3143 C3144 1.398 . S
C3143 C3149 1.491 . S
C3144 H3135 0.950 . S
C3144 C3143 1.398 . S
C3144 C3145 1.391 . S
C3145 H3133 0.950 . S
C3145 C3141 1.393 . S
C3145 C3144 1.391 . S
C3146 H3136 0.950 . S
C3146 C3147 1.386 . S
C3146 C3148 1.391 . S
C3147 C3146 1.386 . S
C3147 C3151 1.393 . S
C3148 H3137 0.950 . S
C3148 C3146 1.391 . S
C3148 C3149 1.400 . S
C3149 C3143 1.491 . S
C3149 C3148 1.400 . S
C3149 C3150 1.398 . S
C3150 H3138 0.950 . S
C3150 C3149 1.398 . S
C3150 C3151 1.391 . S
C3151 H3139 0.950 . S
C3151 C3147 1.393 . S
C3151 C3150 1.391 . S
C1247 C880 1.117 . S
C1241 C2 1.118 . S
C1261 C39 1.301 . S
C1267 C908 1.208 . S
C1281 C86 1.023 . S
C1287 C926 0.996 . S
C1307 C952 1.178 . S
C1301 C112 1.330 . S
C1321 C38 1.446 . S
C1327 C975 1.300 . S
C1347 C995 1.014 . S
C1341 C76 1.022 . S
C1367 C1023 1.249 1_556 S
C1361 C122 1.325 . S
C1381 C3 1.098 . S
C1387 C1041 1.087 . S
C1401 C147 1.324 . S
C1407 C882 1.337 . S
C1421 C184 1.024 . S
C1427 C904 1.013 . S
C1447 C928 1.343 . S
C1441 C219 1.338 . S
C1467 C949 1.074 . S
C1461 C256 1.085 . S
C1481 C148 1.096 . S
C1487 C972 1.070 . S
C1507 C997 1.344 . S
C1501 C183 1.330 . S
C1527 C1019 1.023 . S
C1521 C220 1.050 1_565 S
C1547 C1043 1.322 . S
C1541 C255 1.321 . S
C1567 C883 0.951 . S
C1561 C254 1.036 . S
C1587 C1066 1.169 . S
C1581 C302 1.143 . S
C1601 C326 1.055 . S
C1607 C1090 0.991 . S
C1627 C1114 1.129 . S
C1621 C374 1.139 . S
C1641 C146 1.011 . S
C1647 C1044 0.959 . S
C1667 C929 0.966 . S
C1661 C182 1.033 . S
C1681 C338 1.112 . S
C1687 C1135 1.132 . S
C1707 C1160 1.098 . S
C1701 C410 1.111 . S
C1721 C434 1.172 . S
C1727 C881 1.165 . S
C1747 C1158 0.994 . S
C1741 C472 0.998 . S
C1761 C507 1.072 . S
C1767 C927 1.070 . S
C1781 C543 0.943 . S
C1787 C1137 0.943 . S
C1807 C976 1.022 . S
C1801 C470 1.035 . S
C1827 C1088 1.128 . S
C1821 C518 1.103 . S
C1847 C1020 1.035 . S
C1841 C554 1.021 . S
C1867 C1180 1.060 . S
C1861 C436 1.077 . S
C1887 C885 0.985 . S
C1881 C580 1.029 . S
C1901 C615 1.347 . S
C1907 C1156 1.325 . S
C1927 C931 0.957 . S
C1921 C652 1.012 1_565 S
C1941 C687 1.331 . S
C1947 C1134 1.292 . S
C1961 C579 1.339 . S
C1967 C973 1.299 . S
C1981 C616 1.025 . S
C1987 C1092 0.987 . S
C2007 C1018 1.310 . S
C2001 C651 1.345 . S
C2021 C688 0.989 . S
C2027 C1184 0.926 . S
C2041 C686 1.390 . S
C2047 C884 1.346 . S
C2061 C734 1.233 1_554 S
C2067 C1069 1.200 . S
C2081 C758 1.366 . S
C2087 C999 1.337 . S
C2101 C806 1.247 . S
C2107 C1113 1.190 . S
C2127 C1183 1.301 . S
C2121 C578 1.339 . S
C2147 C930 1.364 . S
C2141 C614 1.407 . S
C2167 C954 1.176 . S
C2161 C770 1.180 . S
C2187 C906 1.136 . S
C2181 C842 1.178 . S
C2201 C74 1.046 . S
C2207 C1202 1.020 . S
C2227 C1161 1.199 . S
C2221 C111 1.298 . S
C2247 C1225 1.071 . S
C2241 C14 1.077 . S
C2261 C40 1.338 . S
C2267 C1136 1.227 . S
C2281 C110 1.443 . S
C2287 C1067 1.270 1_556 S
C2307 C1087 1.083 . S
C2301 C4 1.090 . S
C2327 C1115 1.281 . S
C2321 C50 1.350 1_455 S
C2347 C1179 0.997 . S
C2341 C75 1.012 . S
C2367 C1204 1.346 . S
C2361 C399 1.331 . S
C2381 C292 1.029 . S
C2387 C1157 1.025 . S
C2401 C327 1.334 . S
C2407 C1227 1.343 . S
C2427 C1133 1.060 . S
C2421 C364 1.079 . S
C2447 C1064 1.089 . S
C2441 C400 1.096 . S
C2461 C291 1.325 . S
C2467 C1089 1.335 . S
C2487 C1111 1.025 . S
C2481 C328 1.055 . S
C2501 C363 1.314 . S
C2507 C1181 1.328 . S
C2527 C1205 0.963 . S
C2521 C362 1.018 . S
C2547 C974 1.174 . S
C2541 C194 1.163 . S
C2567 C998 0.965 . S
C2561 C218 1.012 . S
C2581 C266 1.116 . S
C2587 C1022 1.114 . S
C2607 C1182 0.946 . S
C2601 C398 0.981 . S
C2621 C290 1.076 . S
C2627 C1228 1.007 1_556 S
C2647 C951 1.133 . S
C2641 C230 1.114 . S
C2667 C907 1.062 . S
C2661 C158 1.073 . S
C2681 C508 1.086 . S
C2687 C1203 1.071 . S
C2707 C905 1.002 . S
C2701 C544 0.997 . S
C2727 C1226 1.136 . S
C2721 C446 1.099 1_455 S
C2741 C471 0.944 . S
C2747 C953 0.918 . S
C2761 C542 1.011 . S
C2767 C1068 0.990 . S
C2781 C435 1.075 . S
C2787 C996 1.073 . S
C2801 C482 0.992 . S
C2807 C1112 1.039 . S
C2821 C506 1.172 . S
C2827 C1042 1.143 . S
C2847 C1207 0.941 . S
C2841 C832 1.010 . S
C2861 C723 1.331 . S
C2867 C903 1.303 . S
C2887 C1230 0.992 . S
C2881 C760 1.027 . S
C2901 C795 1.339 . S
C2907 C950 1.306 . S
C2921 C831 1.340 . S
C2927 C1065 1.318 . S
C2947 C1000 0.934 . S
C2941 C724 1.008 . S
C2961 C759 1.360 . S
C2967 C1110 1.330 . S
C2987 C1046 0.988 . S
C2981 C796 1.020 . S
C3007 C1206 1.361 . S
C3001 C794 1.395 . S
C3027 C977 1.242 . S
C3021 C626 1.255 . S
C3041 C650 1.364 . S
C3047 C1091 1.329 . S
C3067 C1021 1.202 . S
C3061 C698 1.256 1_554 S
C3087 C1045 1.331 . S
C3081 C830 1.360 . S
C3101 C722 1.397 . S
C3107 C1229 1.358 . S
C3127 C1138 1.143 . S
C3121 C662 1.174 . S
C3147 C1159 1.127 . S
C3141 C590 1.184 . S
