# Generated by pormake.
# Topology soc, (4,6)-cn, num edge types: 1
# Building blocks:
#     Node 0, Type 0, BuildingBlock: ESEHIV_clean_sbu_0, # of connection points: 4
#     Node 1, Type 0, BuildingBlock: ESEHIV_clean_sbu_0, # of connection points: 4
#     Node 2, Type 0, BuildingBlock: ESEHIV_clean_sbu_0, # of connection points: 4
#     Node 3, Type 0, BuildingBlock: ESEHIV_clean_sbu_0, # of connection points: 4
#     Node 4, Type 0, BuildingBlock: ESEHIV_clean_sbu_0, # of connection points: 4
#     Node 5, Type 0, BuildingBlock: ESEHIV_clean_sbu_0, # of connection points: 4
#     Node 6, Type 0, BuildingBlock: ESEHIV_clean_sbu_0, # of connection points: 4
#     Node 7, Type 0, BuildingBlock: ESEHIV_clean_sbu_0, # of connection points: 4
#     Node 8, Type 0, BuildingBlock: ESEHIV_clean_sbu_0, # of connection points: 4
#     Node 9, Type 0, BuildingBlock: ESEHIV_clean_sbu_0, # of connection points: 4
#     Node 10, Type 0, BuildingBlock: ESEHIV_clean_sbu_0, # of connection points: 4
#     Node 11, Type 0, BuildingBlock: ESEHIV_clean_sbu_0, # of connection points: 4
#     Node 12, Type 1, BuildingBlock: BETDIP_clean_sbu_0, # of connection points: 6
#     Node 13, Type 1, BuildingBlock: BETDIP_clean_sbu_0, # of connection points: 6
#     Node 14, Type 1, BuildingBlock: BETDIP_clean_sbu_0, # of connection points: 6
#     Node 15, Type 1, BuildingBlock: BETDIP_clean_sbu_0, # of connection points: 6
#     Node 16, Type 1, BuildingBlock: BETDIP_clean_sbu_0, # of connection points: 6
#     Node 17, Type 1, BuildingBlock: BETDIP_clean_sbu_0, # of connection points: 6
#     Node 18, Type 1, BuildingBlock: BETDIP_clean_sbu_0, # of connection points: 6
#     Node 19, Type 1, BuildingBlock: BETDIP_clean_sbu_0, # of connection points: 6
#     Edge 20, Type (0, 1), BuildingBlock: KIFKEQ_clean_linker_1, # of connection points: 2
#     Edge 21, Type (0, 1), BuildingBlock: KIFKEQ_clean_linker_1, # of connection points: 2
#     Edge 22, Type (0, 1), BuildingBlock: KIFKEQ_clean_linker_1, # of connection points: 2
#     Edge 23, Type (0, 1), BuildingBlock: KIFKEQ_clean_linker_1, # of connection points: 2
#     Edge 24, Type (0, 1), BuildingBlock: KIFKEQ_clean_linker_1, # of connection points: 2
#     Edge 25, Type (0, 1), BuildingBlock: KIFKEQ_clean_linker_1, # of connection points: 2
#     Edge 26, Type (0, 1), BuildingBlock: KIFKEQ_clean_linker_1, # of connection points: 2
#     Edge 27, Type (0, 1), BuildingBlock: KIFKEQ_clean_linker_1, # of connection points: 2
#     Edge 28, Type (0, 1), BuildingBlock: KIFKEQ_clean_linker_1, # of connection points: 2
#     Edge 29, Type (0, 1), BuildingBlock: KIFKEQ_clean_linker_1, # of connection points: 2
#     Edge 30, Type (0, 1), BuildingBlock: KIFKEQ_clean_linker_1, # of connection points: 2
#     Edge 31, Type (0, 1), BuildingBlock: KIFKEQ_clean_linker_1, # of connection points: 2
#     Edge 32, Type (0, 1), BuildingBlock: KIFKEQ_clean_linker_1, # of connection points: 2
#     Edge 33, Type (0, 1), BuildingBlock: KIFKEQ_clean_linker_1, # of connection points: 2
#     Edge 34, Type (0, 1), BuildingBlock: KIFKEQ_clean_linker_1, # of connection points: 2
#     Edge 35, Type (0, 1), BuildingBlock: KIFKEQ_clean_linker_1, # of connection points: 2
#     Edge 36, Type (0, 1), BuildingBlock: KIFKEQ_clean_linker_1, # of connection points: 2
#     Edge 37, Type (0, 1), BuildingBlock: KIFKEQ_clean_linker_1, # of connection points: 2
#     Edge 38, Type (0, 1), BuildingBlock: KIFKEQ_clean_linker_1, # of connection points: 2
#     Edge 39, Type (0, 1), BuildingBlock: KIFKEQ_clean_linker_1, # of connection points: 2
#     Edge 40, Type (0, 1), BuildingBlock: KIFKEQ_clean_linker_1, # of connection points: 2
#     Edge 41, Type (0, 1), BuildingBlock: KIFKEQ_clean_linker_1, # of connection points: 2
#     Edge 42, Type (0, 1), BuildingBlock: KIFKEQ_clean_linker_1, # of connection points: 2
#     Edge 43, Type (0, 1), BuildingBlock: KIFKEQ_clean_linker_1, # of connection points: 2
#     Edge 44, Type (0, 1), BuildingBlock: KIFKEQ_clean_linker_1, # of connection points: 2
#     Edge 45, Type (0, 1), BuildingBlock: KIFKEQ_clean_linker_1, # of connection points: 2
#     Edge 46, Type (0, 1), BuildingBlock: KIFKEQ_clean_linker_1, # of connection points: 2
#     Edge 47, Type (0, 1), BuildingBlock: KIFKEQ_clean_linker_1, # of connection points: 2
#     Edge 48, Type (0, 1), BuildingBlock: KIFKEQ_clean_linker_1, # of connection points: 2
#     Edge 49, Type (0, 1), BuildingBlock: KIFKEQ_clean_linker_1, # of connection points: 2
#     Edge 50, Type (0, 1), BuildingBlock: KIFKEQ_clean_linker_1, # of connection points: 2
#     Edge 51, Type (0, 1), BuildingBlock: KIFKEQ_clean_linker_1, # of connection points: 2
#     Edge 52, Type (0, 1), BuildingBlock: KIFKEQ_clean_linker_1, # of connection points: 2
#     Edge 53, Type (0, 1), BuildingBlock: KIFKEQ_clean_linker_1, # of connection points: 2
#     Edge 54, Type (0, 1), BuildingBlock: KIFKEQ_clean_linker_1, # of connection points: 2
#     Edge 55, Type (0, 1), BuildingBlock: KIFKEQ_clean_linker_1, # of connection points: 2
#     Edge 56, Type (0, 1), BuildingBlock: KIFKEQ_clean_linker_1, # of connection points: 2
#     Edge 57, Type (0, 1), BuildingBlock: KIFKEQ_clean_linker_1, # of connection points: 2
#     Edge 58, Type (0, 1), BuildingBlock: KIFKEQ_clean_linker_1, # of connection points: 2
#     Edge 59, Type (0, 1), BuildingBlock: KIFKEQ_clean_linker_1, # of connection points: 2
#     Edge 60, Type (0, 1), BuildingBlock: KIFKEQ_clean_linker_1, # of connection points: 2
#     Edge 61, Type (0, 1), BuildingBlock: KIFKEQ_clean_linker_1, # of connection points: 2
#     Edge 62, Type (0, 1), BuildingBlock: KIFKEQ_clean_linker_1, # of connection points: 2
#     Edge 63, Type (0, 1), BuildingBlock: KIFKEQ_clean_linker_1, # of connection points: 2
#     Edge 64, Type (0, 1), BuildingBlock: KIFKEQ_clean_linker_1, # of connection points: 2
#     Edge 65, Type (0, 1), BuildingBlock: KIFKEQ_clean_linker_1, # of connection points: 2
#     Edge 66, Type (0, 1), BuildingBlock: KIFKEQ_clean_linker_1, # of connection points: 2
#     Edge 67, Type (0, 1), BuildingBlock: KIFKEQ_clean_linker_1, # of connection points: 2
# Relax obj value: 0.219
# Max RMSD: 0.295
# Mean RMSD: 0.197
data_MOF--net-soc--node1-ESEHIV_clean_sbu_0--node2-BETDIP_clean_sbu_0--edge1-KIFKEQ_clean_linker_1
_symmetry_space_group_name_H-M    P1
_symmetry_Int_Tables_number       1
_symmetry_cell_setting            triclinic
loop_
_symmetry_equiv_pos_as_xyz
'x, y, z'
_cell_length_a     45.426333
_cell_length_b     56.752769
_cell_length_c     42.715241
_cell_angle_alpha  91.788971
_cell_angle_beta   92.222878
_cell_angle_gamma 69.365918
loop_
_atom_site_label
_atom_site_type_symbol
_atom_site_fract_x
_atom_site_fract_y
_atom_site_fract_z
_atom_type_partial_charge
Cu0 Cu 0.05358 0.06285 0.33462 0.0
N1 N 0.07106 0.08125 0.36144 0.0
N2 N 0.09475 0.10856 0.37546 0.0
C3 C 0.08954 0.09364 0.35232 0.0
C4 C 0.07891 0.10538 0.40013 0.0
C5 C 0.06418 0.08862 0.39135 0.0
O6 O 0.0868 0.03875 0.3098 0.0
C7 C 0.9954 0.10024 0.32871 0.0
O8 O 0.99471 0.09227 0.35713 0.0
H9 H 0.09734 0.09286 0.32857 0.0
H10 H 0.04826 0.08327 0.40528 0.0
N11 N 1.03713 0.04277 0.3568 0.0
N12 N 1.01318 0.01525 0.36462 0.0
C13 C 1.01803 0.03122 0.34435 0.0
C14 C 1.04487 0.03374 0.3859 0.0
C15 C 1.02991 0.01691 0.39089 0.0
C16 C 0.11224 0.02667 0.32491 0.0
O17 O 0.11533 0.03292 0.35439 0.0
H18 H 1.00868 0.03399 0.32052 0.0
H19 H 0.06149 0.03803 0.40177 0.0
O20 O 1.0193 0.08871 0.31223 0.0
H21 H 0.07726 0.11503 0.4226 0.0
H22 H 1.03261 0.00573 0.41159 0.0
Cu23 Cu 0.04618 0.05841 0.75006 0.0
N24 N 1.02792 0.0393 0.72505 0.0
N25 N 1.00341 0.01191 0.71379 0.0
C26 C 1.01021 0.02688 0.73599 0.0
C27 C 1.01746 0.01522 0.68779 0.0
C28 C 1.03269 0.03199 0.69486 0.0
O29 O 1.01373 0.0825 0.77552 0.0
C30 C 0.10548 0.02243 0.75527 0.0
O31 O 0.1053 0.03016 0.72658 0.0
H32 H 1.00316 0.02846 0.76009 0.0
H33 H 0.04734 0.03756 0.67949 0.0
N34 N 0.06156 0.07878 0.7269 0.0
N35 N 0.08495 0.10674 0.71862 0.0
C36 C 0.08136 0.08999 0.7386 0.0
C37 C 0.0521 0.0887 0.69849 0.0
C38 C 0.06659 0.10583 0.69324 0.0
C39 C 0.98798 0.09439 0.76078 0.0
O40 O 0.98431 0.08774 0.73158 0.0
H41 H 0.09207 0.08633 0.76183 0.0
H42 H 1.03468 0.08476 0.68337 0.0
O43 O 0.08156 0.03333 0.77198 0.0
H44 H 1.01804 0.00536 0.6656 0.0
H45 H 0.06253 0.11758 0.6729 0.0
Cu46 Cu 0.27327 0.11917 0.0305 0.0
N47 N 0.241 0.1114 1.00915 0.0
N48 N 0.21815 0.08602 0.98648 0.0
C49 C 0.24225 0.08756 1.00463 0.0
C50 C 0.20101 0.10986 0.97861 0.0
C51 C 0.21505 0.12562 0.99297 0.0
O52 O 0.29736 0.08843 0.05258 0.0
C53 C 0.28019 0.15186 0.98821 0.0
O54 O 0.25199 0.16414 0.99872 0.0
H55 H 0.26154 0.07135 1.01303 0.0
H56 H 0.20734 0.14583 0.99089 0.0
N57 N 0.25789 0.14452 0.06071 0.0
N58 N 0.2583 0.1695 0.10202 0.0
C59 C 0.27573 0.1509 0.08281 0.0
C60 C 0.22807 0.15946 0.06597 0.0
C61 C 0.22824 0.17495 0.09146 0.0
C62 C 0.28091 0.08233 0.07219 0.0
O63 O 0.25227 0.09802 0.07731 0.0
H64 H 0.30098 0.14164 0.08499 0.0
H65 H 0.2077 0.15908 0.0523 0.0
O66 O 0.29596 0.13054 0.99988 0.0
H67 H 0.18034 0.11538 0.96317 0.0
H68 H 0.20781 0.18927 0.10116 0.0
Cu69 Cu 0.04899 0.33758 0.04093 0.0
N70 N 0.06536 0.35648 1.01638 0.0
N71 N 0.09802 0.36216 0.98174 0.0
C72 C 0.09432 0.34744 1.00448 0.0
C73 C 0.07015 0.38143 0.97963 0.0
C74 C 0.05002 0.37775 1.00079 0.0
O75 O 0.08168 0.32184 0.07378 0.0
C76 C 1.01746 0.30431 1.01108 0.0
O77 O 1.01531 0.29509 0.03835 0.0
H78 H 0.11167 0.32963 1.0114 0.0
H79 H 1.02532 0.38879 1.00295 0.0
N80 N 1.01317 0.35762 0.06215 0.0
N81 N 0.97195 0.36633 0.09301 0.0
C82 C 0.99485 0.34823 0.07792 0.0
C83 C 1.00152 0.38268 0.06766 0.0
C84 C 0.97608 0.38811 0.08693 0.0
C85 C 0.08706 0.33849 0.09176 0.0
O86 O 0.07162 0.36227 0.08549 0.0
H87 H 0.99911 0.32836 0.07969 0.0
H88 H 1.01137 0.39597 0.05917 0.0
O89 O 1.03377 0.31844 1.00889 0.0
H90 H 0.06391 0.39624 0.9626 0.0
H91 H 0.96195 0.40649 0.09597 0.0
Cu92 Cu 0.8102 0.00737 1.02745 0.0
N93 N 0.84448 0.01154 1.00904 0.0
N94 N 0.87301 0.03291 0.99105 0.0
C95 C 0.8501 0.03326 1.01037 0.0
C96 C 0.88246 0.00986 0.97716 0.0
C97 C 0.86486 0.99665 0.98843 0.0
O98 O 0.78345 0.0415 0.03853 0.0
C99 C 0.80564 0.96703 0.99191 0.0
O100 O 0.83148 0.95551 1.00843 0.0
H101 H 0.83582 0.04976 1.02333 0.0
H102 H 0.86563 0.97814 0.98068 0.0
N103 N 0.82422 0.98882 0.06377 0.0
N104 N 0.82563 0.96677 0.10658 0.0
C105 C 0.80977 0.97606 0.07963 0.0
C106 C 0.85012 0.98745 0.08103 0.0
C107 C 0.8511 0.97384 0.10739 0.0
C108 C 0.77108 0.04802 0.0651 0.0
O109 O 0.77016 0.03059 0.08414 0.0
H110 H 0.7878 0.9741 0.07176 0.0
H111 H 0.86662 0.99637 0.07523 0.0
O112 O 0.7909 0.99034 0.99735 0.0
H113 H 0.89964 0.0035 0.95901 0.0
H114 H 0.86867 0.97026 0.12622 0.0
Cu115 Cu 0.05658 0.78153 0.03341 0.0
N116 N 1.03852 0.76308 1.00674 0.0
N117 N 1.00379 0.75726 0.97137 0.0
C118 C 1.01224 0.77408 0.98918 0.0
C119 C 1.02591 0.73466 0.97803 0.0
C120 C 0.0473 0.73831 0.99983 0.0
O121 O 1.02382 0.79859 0.0642 0.0
C122 C 0.09457 0.78458 0.98758 0.0
O123 O 0.10033 0.76041 0.99093 0.0
H124 H 0.99992 0.79423 0.98924 0.0
H125 H 0.06785 0.72393 1.00965 0.0
N126 N 0.0918 0.76229 0.0574 0.0
N127 N 0.13383 0.75583 0.0896 0.0
C128 C 0.11191 0.77236 0.07118 0.0
C129 C 0.10144 0.73838 0.06725 0.0
C130 C 0.12733 0.73438 0.08726 0.0
C131 C 1.01664 0.78266 0.08008 0.0
O132 O 1.03073 0.75864 0.07343 0.0
H133 H 0.10954 0.79188 0.06879 0.0
H134 H 0.08991 0.72505 0.06129 0.0
O135 O 0.07396 0.80006 1.00514 0.0
H136 H 1.02653 0.7167 0.96818 0.0
H137 H 0.14006 0.71716 0.09948 0.0
Cu138 Cu 0.55077 0.55828 0.8399 0.0
N139 N 0.56766 0.57932 0.86306 0.0
N140 N 0.58953 0.60882 0.87142 0.0
C141 C 0.58303 0.59292 0.85034 0.0
C142 C 0.57765 0.60496 0.89853 0.0
C143 C 0.564 0.58693 0.89324 0.0
O144 O 0.58419 0.534 0.81548 0.0
C145 C 0.49034 0.59254 0.83372 0.0
O146 O 0.4912 0.5857 0.86293 0.0
H147 H 0.58784 0.59197 0.82564 0.0
H148 H 0.55112 0.58074 0.90993 0.0
N149 N 0.53679 0.53789 0.86466 0.0
N150 N 0.516 0.50866 0.87516 0.0
C151 C 0.52004 0.52392 0.85333 0.0
C152 C 0.54393 0.53117 0.8947 0.0
C153 C 0.53096 0.51332 0.90131 0.0
C154 C 0.61011 0.5233 0.83063 0.0
O155 O 0.6132 0.53118 0.8594 0.0
H156 H 0.51237 0.52418 0.82901 0.0
H157 H 0.55865 0.53786 0.91035 0.0
O158 O 0.51437 0.58172 0.81708 0.0
H159 H 0.57804 0.61481 0.92054 0.0
H160 H 0.5331 0.50416 0.92354 0.0
Cu161 Cu 0.55329 0.56235 0.25377 0.0
N162 N 0.53348 0.54293 0.23183 0.0
N163 N 0.50962 0.5148 0.22455 0.0
C164 C 0.51704 0.5305 0.24513 0.0
C165 C 0.52189 0.51753 0.19718 0.0
C166 C 0.53671 0.53484 0.20179 0.0
O167 O 0.52318 0.58735 0.28035 0.0
C168 C 0.6125 0.52591 0.25707 0.0
O169 O 0.61106 0.53287 0.22784 0.0
H170 H 0.51235 0.53182 0.2699 0.0
H171 H 0.55025 0.54012 0.18487 0.0
N172 N 0.56685 0.58147 0.22693 0.0
N173 N 0.58984 0.60818 0.21262 0.0
C174 C 0.58796 0.59246 0.23489 0.0
C175 C 0.55476 0.59058 0.1987 0.0
C176 C 0.56901 0.60701 0.18974 0.0
C177 C 0.49616 0.59885 0.26773 0.0
O178 O 0.4895 0.59125 0.23987 0.0
H179 H 0.60031 0.59006 0.25742 0.0
H180 H 0.53587 0.58654 0.18622 0.0
O181 O 0.58968 0.53766 0.27473 0.0
H182 H 0.52105 0.50721 0.17563 0.0
H183 H 0.56379 0.61776 0.16845 0.0
Cu184 Cu 0.80452 0.6131 0.53446 0.0
N185 N 0.81338 0.63594 0.50929 0.0
N186 N 0.82977 0.655 0.47234 0.0
C187 C 0.82679 0.63329 0.48111 0.0
C188 C 0.81778 0.67178 0.4957 0.0
C189 C 0.80772 0.66001 0.51832 0.0
O190 O 0.79588 0.62925 0.57565 0.0
C191 C 0.76445 0.60082 0.48903 0.0
O192 O 0.77411 0.61371 0.46942 0.0
H193 H 0.83429 0.61593 0.46743 0.0
H194 H 0.79691 0.66846 0.53999 0.0
N195 N 0.83811 0.58299 0.53869 0.0
N196 N 0.85799 0.54332 0.55493 0.0
C197 C 0.83875 0.567 0.56139 0.0
C198 C 0.85787 0.56907 0.51695 0.0
C199 C 0.87028 0.54449 0.52699 0.0
C200 C 0.81932 0.63059 0.59202 0.0
O201 O 0.84773 0.61969 0.58122 0.0
H202 H 0.82236 0.57209 0.58033 0.0
H203 H 0.86057 0.57564 0.49414 0.0
O204 O 0.77096 0.60199 0.51814 0.0
H205 H 0.81577 0.69138 0.49606 0.0
H206 H 0.88521 0.52848 0.51369 0.0
Cu207 Cu 0.56228 0.81333 0.54233 0.0
N208 N 0.59508 0.79528 0.51529 0.0
N209 N 0.63078 0.78863 0.47776 0.0
C210 C 0.61118 0.80565 0.49748 0.0
C211 C 0.62696 0.76664 0.48359 0.0
C212 C 0.60509 0.77077 0.50672 0.0
O213 O 0.57807 0.83641 0.56658 0.0
C214 C 0.51592 0.81144 0.50212 0.0
O215 O 0.53246 0.78769 0.50751 0.0
H216 H 0.6077 0.82554 0.49819 0.0
H217 H 0.59651 0.75697 0.51604 0.0
N218 N 0.55115 0.79339 0.57114 0.0
N219 N 0.52181 0.78397 0.60664 0.0
C220 C 0.52197 0.79862 0.58226 0.0
C221 C 0.5701 0.77457 0.58889 0.0
C222 C 0.55213 0.76873 0.61073 0.0
C223 C 0.57226 0.84186 0.59543 0.0
O224 O 0.54956 0.83643 0.60799 0.0
H225 H 0.50161 0.81408 0.57401 0.0
H226 H 0.5954 0.76652 0.58711 0.0
O227 O 0.52492 0.82826 0.51549 0.0
H228 H 0.63907 0.74881 0.47193 0.0
H229 H 0.56093 0.75479 0.62877 0.0
Cu230 Cu 0.31022 0.49979 0.52651 0.0
N231 N 0.34165 0.50704 0.50641 0.0
N232 N 0.36174 0.5313 0.48062 0.0
C233 C 0.34011 0.53068 0.50101 0.0
C234 C 0.37768 0.50698 0.4729 0.0
C235 C 0.36522 0.49202 0.4889 0.0
O236 O 0.29145 0.52793 0.55467 0.0
C237 C 0.26401 0.48335 0.49605 0.0
O238 O 0.26217 0.47402 0.52336 0.0
H239 H 0.3217 0.54721 0.50987 0.0
H240 H 0.37152 0.47185 0.48631 0.0
N241 N 0.32556 0.46995 0.54902 0.0
N242 N 0.32776 0.44173 0.58524 0.0
C243 C 0.31656 0.46629 0.57763 0.0
C244 C 0.34311 0.44696 0.53822 0.0
C245 C 0.34454 0.4295 0.56052 0.0
C246 C 0.30985 0.53137 0.57608 0.0
O247 O 0.33848 0.51473 0.57895 0.0
H248 H 0.30047 0.48111 0.5917 0.0
H249 H 0.3528 0.443 0.51511 0.0
O250 O 0.28144 0.49643 0.49361 0.0
H251 H 0.39602 0.50054 0.45588 0.0
H252 H 0.35625 0.40932 0.55834 0.0
Cu253 Cu 0.55597 0.28481 0.54554 0.0
N254 N 0.58784 0.26648 0.51862 0.0
N255 N 0.62634 0.26104 0.48507 0.0
C256 C 0.60614 0.27707 0.50499 0.0
C257 C 0.6206 0.2393 0.48639 0.0
C258 C 0.59672 0.24274 0.50706 0.0
O259 O 0.57683 0.30228 0.57489 0.0
C260 C 0.51056 0.28835 0.4998 0.0
O261 O 0.5247 0.26403 0.50358 0.0
H262 H 0.60438 0.29637 0.50958 0.0
H263 H 0.58602 0.22914 0.51236 0.0
N264 N 0.54173 0.26478 0.57067 0.0
N265 N 0.51203 0.25635 0.60628 0.0
C266 C 0.51723 0.27432 0.58966 0.0
C267 C 0.55277 0.23981 0.57545 0.0
C268 C 0.53445 0.23455 0.59732 0.0
C269 C 0.60026 0.28634 0.58949 0.0
O270 O 0.60626 0.26233 0.58311 0.0
H271 H 0.50395 0.29428 0.59153 0.0
H272 H 0.57295 0.22639 0.56431 0.0
O273 O 0.51984 0.30327 0.51739 0.0
H274 H 0.63201 0.22242 0.4726 0.0
H275 H 0.5374 0.21604 0.60571 0.0
Tb276 Tb 0.27258 0.31293 0.32333 0.0
Tb277 Tb 0.31537 0.32707 0.27888 0.0
C278 C 0.23747 0.29583 0.35188 0.0
C279 C 0.22533 0.27486 0.3504 0.0
C280 C 0.20276 0.27344 0.32766 0.0
C281 C 0.18993 0.25437 0.32882 0.0
C282 C 0.19938 0.23649 0.35275 0.0
C283 C 0.22267 0.23758 0.37478 0.0
C284 C 0.23531 0.25661 0.37371 0.0
C285 C 0.32323 0.31924 0.34994 0.0
C286 C 0.31068 0.27348 0.27086 0.0
C287 C 0.36168 0.33522 0.25769 0.0
C288 C 0.38103 0.35083 0.26412 0.0
C289 C 0.37156 0.37145 0.28512 0.0
C290 C 0.38764 0.38847 0.28687 0.0
C291 C 0.41337 0.38508 0.26763 0.0
C292 C 0.42354 0.36366 0.24778 0.0
C293 C 0.40749 0.34673 0.24607 0.0
C294 C 0.2614 0.33019 0.24873 0.0
C295 C 0.26665 0.36866 0.32105 0.0
O296 O 0.22685 0.31372 0.33111 0.0
O297 O 0.26776 0.2895 0.35787 0.0
O298 O 0.3217 0.30899 0.32344 0.0
O299 O 0.29614 0.32533 0.36261 0.0
O300 O 0.2893 0.27963 0.29282 0.0
O301 O 0.32606 0.2883 0.26324 0.0
O302 O 0.36451 0.31714 0.2772 0.0
O303 O 0.33238 0.34754 0.2493 0.0
O304 O 0.26985 0.32435 0.27673 0.0
O305 O 0.2841 0.3353 0.23668 0.0
O306 O 0.2946 0.36097 0.30794 0.0
O307 O 0.25049 0.3535 0.32389 0.0
H308 H 0.19453 0.2873 0.30943 0.0
H309 H 0.17188 0.25414 0.31161 0.0
H310 H 0.23095 0.22383 0.39313 0.0
H311 H 0.25261 0.2573 0.39158 0.0
H312 H 0.35109 0.37489 0.29921 0.0
H313 H 0.37947 0.40459 0.30269 0.0
H314 H 0.44294 0.36061 0.23232 0.0
H315 H 0.41492 0.33101 0.22955 0.0
Tb316 Tb 0.81235 0.32812 0.31544 0.0
Tb317 Tb 0.79111 0.29764 0.26755 0.0
C318 C 0.82212 0.36437 0.34394 0.0
C319 C 0.80437 0.38851 0.35994 0.0
C320 C 0.7849 0.40934 0.3428 0.0
C321 C 0.77186 0.43298 0.35735 0.0
C322 C 0.77808 0.43643 0.38932 0.0
C323 C 0.79634 0.41539 0.40678 0.0
C324 C 0.80945 0.39171 0.39219 0.0
C325 C 0.84791 0.27978 0.3135 0.0
C326 C 0.76713 0.30298 0.33756 0.0
C327 C 0.77642 0.26356 0.23929 0.0
C328 C 0.78104 0.2455 0.21264 0.0
C329 C 0.80753 0.22323 0.21162 0.0
C330 C 0.80795 0.20359 0.1908 0.0
C331 C 0.78186 0.20577 0.1707 0.0
C332 C 0.75635 0.22872 0.17028 0.0
C333 C 0.75592 0.24832 0.1911 0.0
C334 C 0.75738 0.34633 0.26948 0.0
C335 C 0.83538 0.3231 0.24432 0.0
O336 O 0.81759 0.36314 0.31362 0.0
O337 O 0.82445 0.34341 0.35754 0.0
O338 O 0.8351 0.29327 0.29054 0.0
O339 O 0.84407 0.29405 0.33832 0.0
O340 O 0.77456 0.32342 0.34132 0.0
O341 O 0.77477 0.28884 0.31189 0.0
O342 O 0.79863 0.25927 0.26111 0.0
O343 O 0.7623 0.28757 0.234 0.0
O344 O 0.76868 0.33247 0.29252 0.0
O345 O 0.76304 0.33265 0.24404 0.0
O346 O 0.82653 0.30342 0.23931 0.0
O347 O 0.82947 0.33638 0.27094 0.0
H348 H 0.78055 0.40766 0.31788 0.0
H349 H 0.75758 0.44874 0.34334 0.0
H350 H 0.80183 0.41747 0.43138 0.0
H351 H 0.82459 0.37609 0.40591 0.0
H352 H 0.82725 0.22039 0.22799 0.0
H353 H 0.8282 0.1863 0.19132 0.0
H354 H 0.73577 0.23098 0.15532 0.0
H355 H 0.73501 0.26512 0.19167 0.0
Tb356 Tb 0.83987 0.8075 0.29997 0.0
Tb357 Tb 0.7921 0.79882 0.2574 0.0
C358 C 0.88319 0.82009 0.32536 0.0
C359 C 0.89427 0.84151 0.3247 0.0
C360 C 0.92666 0.83695 0.32657 0.0
C361 C 0.93777 0.857 0.32795 0.0
C362 C 0.91662 0.88203 0.32753 0.0
C363 C 0.88414 0.88653 0.32497 0.0
C364 C 0.87306 0.86644 0.32355 0.0
C365 C 0.79146 0.80406 0.32969 0.0
C366 C 0.79239 0.85291 0.26048 0.0
C367 C 0.75016 0.78526 0.23073 0.0
C368 C 0.73639 0.76535 0.23321 0.0
C369 C 0.71378 0.76698 0.25555 0.0
C370 C 0.69934 0.74891 0.25584 0.0
C371 C 0.70722 0.72887 0.23382 0.0
C372 C 0.73023 0.72704 0.2119 0.0
C373 C 0.74452 0.74513 0.21151 0.0
C374 C 0.84112 0.80219 0.22862 0.0
C375 C 0.83964 0.75356 0.29645 0.0
O376 O 0.88676 0.80611 0.29987 0.0
O377 O 0.85585 0.82451 0.33776 0.0
O378 O 0.78977 0.81494 0.30376 0.0
O379 O 0.82031 0.79636 0.34013 0.0
O380 O 0.81948 0.84344 0.27619 0.0
O381 O 0.77444 0.83941 0.25393 0.0
O382 O 0.74449 0.80256 0.25298 0.0
O383 O 0.77926 0.77791 0.22171 0.0
O384 O 0.84194 0.79113 0.2541 0.0
O385 O 0.8125 0.81022 0.21762 0.0
O386 O 0.81138 0.76359 0.28308 0.0
O387 O 0.85819 0.76681 0.30097 0.0
H388 H 0.94338 0.81784 0.32758 0.0
H389 H 0.9629 0.8529 0.33027 0.0
H390 H 0.86728 0.90558 0.32419 0.0
H391 H 0.84792 0.87042 0.32209 0.0
H392 H 0.70683 0.7824 0.27249 0.0
H393 H 0.68186 0.7507 0.27318 0.0
H394 H 0.73647 0.71205 0.19434 0.0
H395 H 0.76152 0.74355 0.19373 0.0
Tb396 Tb 0.2943 0.80221 0.31353 0.0
Tb397 Tb 0.32576 0.82629 0.27217 0.0
C398 C 0.2817 0.77407 0.35129 0.0
C399 C 0.2957 0.74747 0.36062 0.0
C400 C 0.32781 0.73644 0.36907 0.0
C401 C 0.34008 0.71151 0.37916 0.0
C402 C 0.32055 0.69712 0.38077 0.0
C403 C 0.28863 0.70805 0.37159 0.0
C404 C 0.27635 0.73298 0.36172 0.0
C405 C 0.25903 0.84923 0.2989 0.0
C406 C 0.3434 0.82537 0.34263 0.0
C407 C 0.34184 0.85238 0.23407 0.0
C408 C 0.33053 0.87501 0.21435 0.0
C409 C 0.31966 0.89933 0.228 0.0
C410 C 0.31517 0.92046 0.20986 0.0
C411 C 0.32121 0.91779 0.17769 0.0
C412 C 0.33042 0.89363 0.16371 0.0
C413 C 0.33526 0.87243 0.18193 0.0
C414 C 0.36067 0.77938 0.28801 0.0
C415 C 0.27998 0.80074 0.24353 0.0
O416 O 0.26969 0.7781 0.32285 0.0
O417 O 0.29745 0.78878 0.35916 0.0
O418 O 0.28825 0.84093 0.3042 0.0
O419 O 0.24828 0.83182 0.30555 0.0
O420 O 0.33114 0.80754 0.34432 0.0
O421 O 0.33973 0.83864 0.31707 0.0
O422 O 0.34108 0.85611 0.26437 0.0
O423 O 0.33471 0.83266 0.22553 0.0
O424 O 0.3317 0.78786 0.28193 0.0
O425 O 0.3718 0.7966 0.28156 0.0
O426 O 0.28716 0.8214 0.24281 0.0
O427 O 0.28829 0.78622 0.26819 0.0
H428 H 0.34339 0.74709 0.36814 0.0
H429 H 0.36483 0.70351 0.38574 0.0
H430 H 0.2729 0.69757 0.3729 0.0
H431 H 0.25154 0.74109 0.35533 0.0
H432 H 0.31582 0.90206 0.25292 0.0
H433 H 0.30752 0.9389 0.22115 0.0
H434 H 0.33527 0.89102 0.13896 0.0
H435 H 0.34403 0.85391 0.17089 0.0
Tb436 Tb 0.30799 0.81581 0.81501 0.0
Tb437 Tb 0.27756 0.79504 0.76586 0.0
C438 C 0.32845 0.84563 0.8456 0.0
C439 C 0.31331 0.8683 0.86467 0.0
C440 C 0.28118 0.87587 0.87098 0.0
C441 C 0.26605 0.89887 0.88627 0.0
C442 C 0.28297 0.91448 0.8958 0.0
C443 C 0.31535 0.90649 0.89004 0.0
C444 C 0.33036 0.88362 0.87446 0.0
C445 C 0.32846 0.76585 0.81416 0.0
C446 C 0.24777 0.80653 0.83423 0.0
C447 C 0.25203 0.76861 0.73487 0.0
C448 C 0.2601 0.74605 0.71461 0.0
C449 C 0.28883 0.72607 0.71849 0.0
C450 C 0.29418 0.70345 0.7018 0.0
C451 C 0.27089 0.70051 0.68094 0.0
C452 C 0.24273 0.72101 0.6762 0.0
C453 C 0.23739 0.74356 0.69297 0.0
C454 C 0.25749 0.84504 0.76796 0.0
C455 C 0.33941 0.80206 0.74721 0.0
O456 O 0.32051 0.84792 0.81579 0.0
O457 O 0.32855 0.82435 0.85667 0.0
O458 O 0.32162 0.77989 0.79074 0.0
O459 O 0.32631 0.77986 0.8391 0.0
O460 O 0.26561 0.82017 0.84066 0.0
O461 O 0.25078 0.79359 0.80745 0.0
O462 O 0.26135 0.7649 0.76424 0.0
O463 O 0.25581 0.78852 0.72372 0.0
O464 O 0.26385 0.83049 0.79073 0.0
O465 O 0.26024 0.83156 0.74257 0.0
O466 O 0.32074 0.78904 0.74084 0.0
O467 O 0.33675 0.81521 0.77389 0.0
H468 H 0.26773 0.86419 0.86364 0.0
H469 H 0.24117 0.90443 0.89066 0.0
H470 H 0.3289 0.91827 0.8968 0.0
H471 H 0.35511 0.87814 0.86947 0.0
H472 H 0.30664 0.72766 0.73519 0.0
H473 H 0.31602 0.68797 0.70618 0.0
H474 H 0.2246 0.7195 0.65989 0.0
H475 H 0.21508 0.75883 0.68971 0.0
Tb476 Tb 0.33837 0.30384 0.81307 0.0
Tb477 Tb 0.27956 0.30038 0.78138 0.0
C478 C 0.39004 0.30981 0.82542 0.0
C479 C 0.40123 0.33126 0.82777 0.0
C480 C 0.43273 0.32738 0.82185 0.0
C481 C 0.44428 0.34715 0.82567 0.0
C482 C 0.42457 0.37124 0.83571 0.0
C483 C 0.39273 0.37516 0.84088 0.0
C484 C 0.38115 0.3554 0.83682 0.0
C485 C 0.28729 0.32131 0.84643 0.0
C486 C 0.2969 0.34663 0.76581 0.0
C487 C 0.22742 0.29513 0.76974 0.0
C488 C 0.21539 0.27405 0.76613 0.0
C489 C 0.21557 0.25855 0.79126 0.0
C490 C 0.20353 0.23903 0.78703 0.0
C491 C 0.19135 0.23451 0.75757 0.0
C492 C 0.19138 0.24996 0.73251 0.0
C493 C 0.20311 0.26956 0.7368 0.0
C494 C 0.33009 0.28327 0.74745 0.0
C495 C 0.32248 0.25626 0.82634 0.0
O496 O 0.38165 0.30406 0.79743 0.0
O497 O 0.3704 0.30913 0.84663 0.0
O498 O 0.28862 0.32385 0.81737 0.0
O499 O 0.31541 0.31061 0.85801 0.0
O500 O 0.32419 0.33541 0.78067 0.0
O501 O 0.27316 0.3384 0.76751 0.0
O502 O 0.23664 0.30015 0.79781 0.0
O503 O 0.24637 0.29644 0.74815 0.0
O504 O 0.32923 0.28074 0.7766 0.0
O505 O 0.30171 0.29333 0.73616 0.0
O506 O 0.29504 0.26764 0.81178 0.0
O507 O 0.34563 0.26534 0.8262 0.0
H508 H 0.44853 0.30893 0.8146 0.0
H509 H 0.46872 0.3435 0.82078 0.0
H510 H 0.37687 0.39332 0.84888 0.0
H511 H 0.35666 0.35886 0.84134 0.0
H512 H 0.22494 0.26146 0.81417 0.0
H513 H 0.20401 0.22732 0.80673 0.0
H514 H 0.18178 0.2472 0.70966 0.0
H515 H 0.20247 0.28133 0.7171 0.0
Tb516 Tb 0.78942 0.29641 0.81883 0.0
Tb517 Tb 0.81785 0.32298 0.77659 0.0
C518 C 0.78044 0.26511 0.85398 0.0
C519 C 0.8006 0.24275 0.87143 0.0
C520 C 0.81432 0.21944 0.85584 0.0
C521 C 0.83166 0.19799 0.8725 0.0
C522 C 0.83541 0.19922 0.90523 0.0
C523 C 0.8223 0.22261 0.92081 0.0
C524 C 0.80505 0.24417 0.90407 0.0
C525 C 0.75657 0.34485 0.81318 0.0
C526 C 0.84871 0.31033 0.84339 0.0
C527 C 0.8327 0.35154 0.74164 0.0
C528 C 0.82302 0.37106 0.71744 0.0
C529 C 0.81439 0.39656 0.72643 0.0
C530 C 0.81308 0.41466 0.70452 0.0
C531 C 0.82042 0.40768 0.67309 0.0
C532 C 0.82686 0.38243 0.66368 0.0
C533 C 0.82829 0.36428 0.68566 0.0
C534 C 0.85005 0.2743 0.78296 0.0
C535 C 0.7589 0.30852 0.75179 0.0
O536 O 0.78079 0.26297 0.8234 0.0
O537 O 0.78052 0.28717 0.86396 0.0
O538 O 0.78621 0.33496 0.81434 0.0
O539 O 0.74468 0.32786 0.81888 0.0
O540 O 0.83239 0.2952 0.8455 0.0
O541 O 0.84402 0.32573 0.81961 0.0
O542 O 0.82226 0.35791 0.76998 0.0
O543 O 0.8351 0.32847 0.73361 0.0
O544 O 0.8206 0.28467 0.78105 0.0
O545 O 0.86255 0.2911 0.77868 0.0
O546 O 0.77518 0.32371 0.74906 0.0
O547 O 0.76393 0.29332 0.77581 0.0
H548 H 0.81098 0.21749 0.83079 0.0
H549 H 0.8409 0.1802 0.85982 0.0
H550 H 0.82491 0.22416 0.94603 0.0
H551 H 0.79465 0.26183 0.91675 0.0
H552 H 0.81062 0.40239 0.7508 0.0
H553 H 0.80839 0.43384 0.71276 0.0
H554 H 0.83209 0.3765 0.63955 0.0
H555 H 0.83528 0.34475 0.67801 0.0
Tb556 Tb 0.75663 0.81332 0.79649 0.0
Tb557 Tb 0.81319 0.81689 0.76586 0.0
C558 C 0.70546 0.80751 0.80712 0.0
C559 C 0.69513 0.78592 0.81082 0.0
C560 C 0.66334 0.78903 0.80581 0.0
C561 C 0.65275 0.76918 0.81102 0.0
C562 C 0.67376 0.74579 0.82155 0.0
C563 C 0.70584 0.74261 0.82577 0.0
C564 C 0.71643 0.76245 0.82034 0.0
C565 C 0.80914 0.79724 0.83087 0.0
C566 C 0.79816 0.7684 0.75181 0.0
C567 C 0.8637 0.82324 0.75351 0.0
C568 C 0.87502 0.84454 0.74995 0.0
C569 C 0.8834 0.85675 0.77612 0.0
C570 C 0.89564 0.87591 0.77217 0.0
C571 C 0.89984 0.88328 0.74197 0.0
C572 C 0.89105 0.87123 0.71589 0.0
C573 C 0.87899 0.85204 0.71983 0.0
C574 C 0.76048 0.8326 0.73169 0.0
C575 C 0.77306 0.86084 0.81243 0.0
O576 O 0.71387 0.81074 0.7791 0.0
O577 O 0.72475 0.81061 0.82902 0.0
O578 O 0.80673 0.79414 0.80167 0.0
O579 O 0.78133 0.80732 0.84201 0.0
O580 O 0.7708 0.78008 0.76505 0.0
O581 O 0.82114 0.77767 0.75395 0.0
O582 O 0.85677 0.8187 0.78163 0.0
O583 O 0.84338 0.82094 0.73222 0.0
O584 O 0.76312 0.83613 0.76078 0.0
O585 O 0.78816 0.8218 0.72056 0.0
O586 O 0.79996 0.84919 0.79843 0.0
O587 O 0.74957 0.85216 0.81013 0.0
H588 H 0.6466 0.80695 0.79822 0.0
H589 H 0.62803 0.7722 0.80685 0.0
H590 H 0.7227 0.72502 0.8341 0.0
H591 H 0.74115 0.75963 0.82419 0.0
H592 H 0.88095 0.85131 0.79968 0.0
H593 H 0.90251 0.8845 0.79282 0.0
H594 H 0.89344 0.87663 0.69229 0.0
H595 H 0.87298 0.8429 0.69918 0.0
H596 H 0.14254 0.10476 0.33732 0.0
H597 H 0.08292 0.15278 0.40743 0.0
H598 H 0.16816 0.13555 0.33141 0.0
H599 H 0.10827 0.18357 0.40142 0.0
H600 H 0.18152 0.22106 0.40639 0.0
H601 H 0.15771 0.18929 0.41204 0.0
H602 H 0.15751 0.17764 0.31159 0.0
H603 H 0.18279 0.20876 0.30603 0.0
C604 C 0.13481 0.12193 0.35136 0.0
C605 C 0.11073 0.12628 0.37289 0.0
C606 C 0.14943 0.1396 0.34792 0.0
C607 C 0.14025 0.16205 0.36591 0.0
C608 C 0.11628 0.1663 0.38755 0.0
C609 C 0.10175 0.14861 0.39105 0.0
C610 C 0.1768 0.21151 0.3855 0.0
C611 C 0.18427 0.21735 0.35576 0.0
C612 C 0.16275 0.19351 0.38872 0.0
C613 C 0.15561 0.18095 0.36228 0.0
C614 C 0.16301 0.18678 0.33248 0.0
C615 C 0.17715 0.20482 0.32924 0.0
H616 H 0.99724 0.13347 0.28334 0.0
H617 H 0.93765 0.12181 0.35307 0.0
H618 H 0.95982 0.17663 0.27616 0.0
H619 H 0.90073 0.1644 0.34589 0.0
H620 H 0.87329 0.24936 0.36249 0.0
H621 H 0.90694 0.20515 0.36143 0.0
H622 H 0.90245 0.20465 0.26028 0.0
H623 H 0.86839 0.24933 0.2614 0.0
C624 C 0.97587 0.13985 0.29653 0.0
C625 C 0.97066 0.12428 0.31906 0.0
C626 C 0.95447 0.16457 0.29247 0.0
C627 C 0.92761 0.1741 0.31094 0.0
C628 C 0.92151 0.15786 0.33181 0.0
C629 C 0.94268 0.13336 0.3358 0.0
C630 C 0.8794 0.23986 0.34 0.0
C631 C 0.86818 0.25281 0.31206 0.0
C632 C 0.89857 0.21445 0.33937 0.0
C633 C 0.90725 0.20128 0.31076 0.0
C634 C 0.89628 0.21428 0.28267 0.0
C635 C 0.87671 0.23979 0.28332 0.0
H636 H 1.0032 0.99562 0.30814 0.0
H637 H 0.98591 0.9954 0.40684 0.0
H638 H 0.97728 0.96514 0.29786 0.0
H639 H 0.96088 0.96418 0.39666 0.0
H640 H 0.89314 0.92481 0.36367 0.0
H641 H 0.9142 0.95871 0.3714 0.0
H642 H 0.98872 0.92062 0.30796 0.0
H643 H 0.9671 0.88716 0.29946 0.0
C644 C 0.99362 0.98928 0.32764 0.0
C645 C 0.99667 0.99799 0.35836 0.0
C646 C 0.97908 0.97156 0.32176 0.0
C647 C 0.96715 0.96214 0.34644 0.0
C648 C 0.96959 0.97122 0.37708 0.0
C649 C 0.98423 0.9889 0.38297 0.0
C650 C 0.91373 0.92389 0.35099 0.0
C651 C 0.92849 0.90328 0.33098 0.0
C652 C 0.92599 0.94316 0.3557 0.0
C653 C 0.9532 0.94231 0.34041 0.0
C654 C 0.96756 0.92196 0.31989 0.0
C655 C 0.95537 0.90266 0.31526 0.0
H656 H 0.10547 0.99492 0.27721 0.0
H657 H 0.17318 0.0055 0.34466 0.0
H658 H 0.14266 0.95279 0.26431 0.0
H659 H 0.2099 0.96367 0.33223 0.0
H660 H 0.27773 0.89014 0.29621 0.0
H661 H 0.24402 0.93466 0.29492 0.0
H662 H 0.16162 0.91324 0.29249 0.0
H663 H 0.19525 0.86899 0.29329 0.0
C664 C 0.12853 0.98853 0.28871 0.0
C665 C 0.13628 0.00351 0.31208 0.0
C666 C 0.14975 0.96428 0.28157 0.0
C667 C 0.17925 0.95465 0.29744 0.0
C668 C 0.18761 0.9704 0.31931 0.0
C669 C 0.1664 0.99442 0.32658 0.0
C670 C 0.25241 0.89501 0.29505 0.0
C671 C 0.23912 0.87611 0.29529 0.0
C672 C 0.23306 0.92051 0.29439 0.0
C673 C 0.2 0.92764 0.29378 0.0
C674 C 0.18689 0.90856 0.29259 0.0
C675 C 0.20619 0.88315 0.29335 0.0
H676 H 0.16481 0.00485 0.73403 0.0
H677 H 0.10453 0.98714 0.79783 0.0
H678 H 0.20438 0.96322 0.74092 0.0
H679 H 0.14414 0.94492 0.80432 0.0
H680 H 0.23124 0.87323 0.81976 0.0
H681 H 0.19756 0.91775 0.82194 0.0
H682 H 0.20624 0.92226 0.72211 0.0
H683 H 0.2404 0.87818 0.72029 0.0
C684 C 0.16021 0.99214 0.74994 0.0
C685 C 0.13139 0.99921 0.76515 0.0
C686 C 0.18284 0.96817 0.75371 0.0
C687 C 0.17721 0.95045 0.7726 0.0
C688 C 0.14928 0.95808 0.7896 0.0
C689 C 0.12658 0.98229 0.78595 0.0
C690 C 0.22638 0.88393 0.79846 0.0
C691 C 0.23866 0.8723 0.76989 0.0
C692 C 0.2068 0.90936 0.79963 0.0
C693 C 0.1992 0.9237 0.77224 0.0
C694 C 0.21197 0.912 0.7438 0.0
C695 C 0.23142 0.88666 0.74266 0.0
H696 H 0.10733 0.11882 0.77484 0.0
H697 H 0.10228 0.13357 0.67569 0.0
H698 H 0.13528 0.14772 0.7845 0.0
H699 H 0.12866 0.16366 0.68571 0.0
H700 H 0.20113 0.20015 0.70918 0.0
H701 H 0.17737 0.16804 0.70014 0.0
H702 H 0.12674 0.19133 0.78598 0.0
H703 H 0.15122 0.22295 0.79529 0.0
C704 C 0.11214 0.12807 0.75497 0.0
C705 C 0.10227 0.12366 0.72437 0.0
C706 C 0.12792 0.14503 0.76065 0.0
C707 C 0.13415 0.15825 0.73597 0.0
C708 C 0.12464 0.15366 0.70534 0.0
C709 C 0.10904 0.13656 0.69961 0.0
C710 C 0.18494 0.19835 0.72611 0.0
C711 C 0.17801 0.21413 0.75291 0.0
C712 C 0.17119 0.18 0.72089 0.0
C713 C 0.14991 0.17709 0.7422 0.0
C714 C 0.14335 0.19269 0.76926 0.0
C715 C 0.15734 0.21089 0.77461 0.0
H716 H 0.99541 0.12548 0.80901 0.0
H717 H 0.92761 0.11704 0.74007 0.0
H718 H 0.95968 0.16823 0.82128 0.0
H719 H 0.89253 0.15954 0.75161 0.0
H720 H 0.82772 0.23524 0.78303 0.0
H721 H 0.85857 0.19019 0.78624 0.0
H722 H 0.9441 0.20729 0.79358 0.0
H723 H 0.91318 0.25206 0.79152 0.0
C724 C 0.97263 0.1325 0.79701 0.0
C725 C 0.96451 0.11793 0.77336 0.0
C726 C 0.95226 0.1571 0.80378 0.0
C727 C 0.9233 0.16757 0.78714 0.0
C728 C 0.9144 0.15222 0.76511 0.0
C729 C 0.93471 0.12779 0.75832 0.0
C730 C 0.85306 0.22929 0.78589 0.0
C731 C 0.86805 0.24711 0.78684 0.0
C732 C 0.8708 0.20349 0.78753 0.0
C733 C 0.90395 0.19497 0.79002 0.0
C734 C 0.9187 0.21302 0.79212 0.0
C735 C 0.90097 0.23873 0.79056 0.0
H736 H 0.97629 0.99101 0.66822 0.0
H737 H 0.99301 0.9929 0.76844 0.0
H738 H 0.95031 0.96062 0.6748 0.0
H739 H 0.96669 0.96288 0.77487 0.0
H740 H 0.89049 0.92697 0.7764 0.0
H741 H 0.91433 0.95879 0.76944 0.0
H742 H 0.9648 0.91632 0.69049 0.0
H743 H 0.94149 0.88433 0.69766 0.0
C744 C 0.97458 0.98497 0.69163 0.0
C745 C 0.98695 0.99454 0.71773 0.0
C746 C 0.95962 0.96753 0.69539 0.0
C747 C 0.95644 0.9593 0.72536 0.0
C748 C 0.96835 0.96909 0.75149 0.0
C749 C 0.98346 0.9864 0.74774 0.0
C750 C 0.90687 0.92428 0.75771 0.0
C751 C 0.91397 0.90302 0.73759 0.0
C752 C 0.92048 0.94257 0.75369 0.0
C753 C 0.94141 0.94014 0.72935 0.0
C754 C 0.94838 0.91899 0.70914 0.0
C755 C 0.93493 0.90065 0.71326 0.0
H756 H 0.22521 0.19411 0.15208 0.0
H757 H 0.31711 0.17104 0.11175 0.0
H758 H 0.24355 0.21483 0.19516 0.0
H759 H 0.33589 0.19075 0.15568 0.0
H760 H 0.33797 0.26143 0.21375 0.0
H761 H 0.32849 0.23288 0.17437 0.0
H762 H 0.27766 0.20758 0.24128 0.0
H763 H 0.28644 0.2366 0.28053 0.0
C764 C 0.24936 0.19332 0.15242 0.0
C765 C 0.26955 0.18097 0.12824 0.0
C766 C 0.26006 0.20488 0.17744 0.0
C767 C 0.2913 0.20432 0.17902 0.0
C768 C 0.31166 0.19165 0.15512 0.0
C769 C 0.30092 0.18013 0.13003 0.0
C770 C 0.32553 0.24929 0.2204 0.0
C771 C 0.31259 0.25159 0.2502 0.0
C772 C 0.32007 0.23289 0.19774 0.0
C773 C 0.30174 0.21832 0.20447 0.0
C774 C 0.29117 0.21903 0.2351 0.0
C775 C 0.29649 0.23551 0.25771 0.0
H776 H 0.95296 0.38876 0.14907 0.0
H777 H 0.94051 0.33455 0.08196 0.0
H778 H 0.91891 0.37866 0.18512 0.0
H779 H 0.90501 0.32526 0.11687 0.0
H780 H 0.87263 0.29296 0.19945 0.0
H781 H 0.90441 0.30442 0.16229 0.0
H782 H 0.86865 0.3814 0.19723 0.0
H783 H 0.83849 0.3694 0.2355 0.0
C784 C 0.94228 0.37508 0.14184 0.0
C785 C 0.94937 0.36235 0.1129 0.0
C786 C 0.92266 0.36928 0.1624 0.0
C787 C 0.90916 0.35095 0.15416 0.0
C788 C 0.91549 0.33896 0.12454 0.0
C789 C 0.93561 0.3444 0.10435 0.0
C790 C 0.87156 0.31232 0.19904 0.0
C791 C 0.85325 0.33023 0.22046 0.0
C792 C 0.88963 0.31901 0.17758 0.0
C793 C 0.88929 0.34393 0.17658 0.0
C794 C 0.87023 0.36193 0.19763 0.0
C795 C 0.8527 0.3551 0.21948 0.0
H796 H 0.76674 0.96757 0.11831 0.0
H797 H 0.86422 0.93512 0.14903 0.0
H798 H 0.75209 0.94486 0.1591 0.0
H799 H 0.84958 0.91282 0.1897 0.0
H800 H 0.81724 0.88935 0.27447 0.0
H801 H 0.82101 0.92069 0.2388 0.0
H802 H 0.75985 0.90056 0.17172 0.0
H803 H 0.75567 0.8694 0.20765 0.0
C804 C 0.78507 0.95556 0.1336 0.0
C805 C 0.81671 0.95326 0.13037 0.0
C806 C 0.77662 0.94267 0.15708 0.0
C807 C 0.79959 0.92734 0.17792 0.0
C808 C 0.83116 0.92501 0.17459 0.0
C809 C 0.8396 0.93777 0.15114 0.0
C810 C 0.80382 0.89211 0.25253 0.0
C811 C 0.78654 0.87662 0.24373 0.0
C812 C 0.80621 0.90993 0.23197 0.0
C813 C 0.79142 0.91261 0.20211 0.0
C814 C 0.77158 0.89891 0.19454 0.0
C815 C 0.76909 0.88109 0.21522 0.0
H816 H 0.15593 0.73602 0.14629 0.0
H817 H 0.16434 0.78788 0.0785 0.0
H818 H 0.19272 0.74686 0.1816 0.0
H819 H 0.20203 0.7983 0.11335 0.0
H820 H 0.24065 0.83131 0.19919 0.0
H821 H 0.2065 0.81996 0.16056 0.0
H822 H 0.2454 0.74265 0.19034 0.0
H823 H 0.2782 0.75428 0.22956 0.0
C824 C 0.16612 0.74941 0.1387 0.0
C825 C 0.15721 0.76108 0.10961 0.0
C826 C 0.18734 0.75564 0.15893 0.0
C827 C 0.20058 0.77348 0.15043 0.0
C828 C 0.19201 0.78483 0.12102 0.0
C829 C 0.17049 0.77878 0.10095 0.0
C830 C 0.24203 0.81188 0.19718 0.0
C831 C 0.26187 0.79376 0.21758 0.0
C832 C 0.22252 0.8053 0.17498 0.0
C833 C 0.22278 0.78038 0.17247 0.0
C834 C 0.24378 0.76214 0.19206 0.0
C835 C 0.26284 0.76878 0.21445 0.0
H836 H 0.22589 0.04521 1.0203 0.0
H837 H 0.2054 0.07436 0.92687 0.0
H838 H 0.23476 1.00276 0.99973 0.0
H839 H 0.21497 0.03171 0.90586 0.0
H840 H 0.22671 0.95049 0.87878 0.0
H841 H 0.20237 0.99252 0.90237 0.0
H842 H 0.27959 0.97627 0.97032 0.0
H843 H 0.3033 0.93438 0.94734 0.0
C844 C 0.22256 0.04249 0.99538 0.0
C845 C 0.21532 0.06285 0.97507 0.0
C846 C 0.22783 0.01824 0.98357 0.0
C847 C 0.22629 0.01381 0.95111 0.0
C848 C 0.21628 0.03452 0.93099 0.0
C849 C 0.21073 0.05893 0.94294 0.0
C850 C 0.23811 0.95583 0.89912 0.0
C851 C 0.26697 0.93924 0.91119 0.0
C852 C 0.2243 0.97991 0.91245 0.0
C853 C 0.23897 0.98769 0.93827 0.0
C854 C 0.26739 0.97076 0.95077 0.0
C855 C 0.28121 0.94685 0.93738 0.0
H856 H 0.11207 0.39491 0.9448 0.0
H857 H 0.14459 0.31684 0.97165 0.0
H858 H 0.15663 0.38546 0.91035 0.0
H859 H 0.18902 0.30776 0.9379 0.0
H860 H 0.28359 0.30825 0.90599 0.0
H861 H 0.23722 0.31868 0.93772 0.0
H862 H 0.17939 0.36017 0.86096 0.0
H863 H 0.22634 0.34966 0.82894 0.0
C864 C 0.12847 0.37575 0.94337 0.0
C865 C 0.12457 0.35676 0.96145 0.0
C866 C 0.15402 0.37035 0.92353 0.0
C867 C 0.17644 0.34589 0.92151 0.0
C868 C 0.17244 0.32689 0.9393 0.0
C869 C 0.14687 0.3322 0.95888 0.0
C870 C 0.26101 0.31962 0.89583 0.0
C871 C 0.25855 0.32811 0.86498 0.0
C872 C 0.23439 0.32547 0.91398 0.0
C873 C 0.20458 0.34015 0.90184 0.0
C874 C 0.20208 0.34894 0.87102 0.0
C875 C 0.22885 0.34284 0.85265 0.0
H876 H 0.87342 0.07194 0.02855 0.0
H877 H 0.88679 0.0436 0.93327 0.0
H878 H 0.87307 0.11272 1.01163 0.0
H879 H 0.88591 0.08432 0.91616 0.0
H880 H 0.81497 0.18591 0.95873 0.0
H881 H 0.83324 0.1449 0.98279 0.0
H882 H 0.90721 0.11777 0.91576 0.0
H883 H 0.88863 0.15905 0.89143 0.0
C884 C 0.87685 0.07434 1.00408 0.0
C885 C 0.87968 0.05473 0.98217 0.0
C886 C 0.87655 0.09768 0.99436 0.0
C887 C 0.87889 0.10195 0.96246 0.0
C888 C 0.88429 0.08168 0.94094 0.0
C889 C 0.88477 0.05827 0.95073 0.0
C890 C 0.8357 0.17146 0.94967 0.0
C891 C 0.85016 0.17568 0.923 0.0
C892 C 0.84626 0.14788 0.96351 0.0
C893 C 0.8716 0.12794 0.95107 0.0
C894 C 0.88731 0.1326 0.92558 0.0
C895 C 0.87669 0.15623 0.91167 0.0
H896 H 0.99483 0.72788 0.92275 0.0
H897 H 0.95058 0.79886 0.97137 0.0
H898 H 0.94845 0.73674 0.88792 0.0
H899 H 0.9053 0.80815 0.93583 0.0
H900 H 0.81436 0.80516 0.89319 0.0
H901 H 0.86178 0.7947 0.92618 0.0
H902 H 0.91831 0.76352 0.84559 0.0
H903 H 0.87021 0.77337 0.81254 0.0
C904 C 0.97536 0.74536 0.92607 0.0
C905 C 0.97666 0.76256 0.95012 0.0
C906 C 0.94887 0.75059 0.90579 0.0
C907 C 0.92297 0.77312 0.90908 0.0
C908 C 0.92451 0.79042 0.93283 0.0
C909 C 0.95084 0.78519 0.95308 0.0
C910 C 0.83689 0.796 0.88247 0.0
C911 C 0.83858 0.79022 0.85025 0.0
C912 C 0.86417 0.79017 0.90138 0.0
C913 C 0.89403 0.7785 0.88858 0.0
C914 C 0.89573 0.77238 0.8563 0.0
C915 C 0.86824 0.77817 0.8373 0.0
H916 H 0.08887 0.37034 0.13954 0.0
H917 H 0.13738 0.29425 0.1064 0.0
H918 H 0.12915 0.3655 0.18024 0.0
H919 H 0.17819 0.28941 0.1483 0.0
H920 H 0.22493 0.30024 0.25578 0.0
H921 H 0.18174 0.2979 0.21994 0.0
H922 H 0.19213 0.35633 0.16412 0.0
H923 H 0.23499 0.35829 0.19891 0.0
C924 C 0.10792 0.35234 0.14112 0.0
C925 C 0.10996 0.3328 0.11915 0.0
C926 C 0.13097 0.34959 0.16473 0.0
C927 C 0.15685 0.32714 0.16753 0.0
C928 C 0.15829 0.30689 0.14687 0.0
C929 C 0.135 0.30968 0.12284 0.0
C930 C 0.21763 0.31271 0.23602 0.0
C931 C 0.23307 0.32971 0.23038 0.0
C932 C 0.19328 0.31113 0.21531 0.0
C933 C 0.18373 0.32683 0.18907 0.0
C934 C 0.199 0.34393 0.18399 0.0
C935 C 0.22343 0.34516 0.20409 0.0
H936 H 0.12476 0.75596 0.93901 0.0
H937 H 0.1066 0.82935 0.98215 0.0
H938 H 0.15942 0.76379 0.9028 0.0
H939 H 0.14147 0.83769 0.94445 0.0
H940 H 0.23748 0.82628 0.89448 0.0
H941 H 0.19757 0.82446 0.93049 0.0
H942 H 0.16026 0.78689 0.85835 0.0
H943 H 0.20042 0.7879 0.82313 0.0
C944 C 0.12783 0.77405 0.94057 0.0
C945 C 0.11274 0.79201 0.9637 0.0
C946 C 0.1477 0.77864 0.9194 0.0
C947 C 0.1533 0.80147 0.92028 0.0
C948 C 0.13789 0.8198 0.94311 0.0
C949 C 0.11764 0.81517 0.96453 0.0
C950 C 0.22069 0.81766 0.88635 0.0
C951 C 0.22262 0.80685 0.85599 0.0
C952 C 0.1976 0.81682 0.90695 0.0
C953 C 0.17576 0.80523 0.89765 0.0
C954 C 0.17703 0.79542 0.8668 0.0
C955 C 0.20014 0.79606 0.84644 0.0
H956 H 0.34118 0.14094 0.96881 0.0
H957 H 0.24454 0.18738 0.94845 0.0
H958 H 0.35807 0.16116 0.9261 0.0
H959 H 0.26114 0.20705 0.90651 0.0
H960 H 0.28996 0.22454 0.81717 0.0
H961 H 0.28521 0.19426 0.85385 0.0
H962 H 0.35622 0.20726 0.91479 0.0
H963 H 0.36135 0.23761 0.87759 0.0
C964 C 0.32362 0.15523 0.95513 0.0
C965 C 0.29155 0.1626 0.96205 0.0
C966 C 0.33326 0.16682 0.93085 0.0
C967 C 0.31088 0.18548 0.91277 0.0
C968 C 0.27893 0.19245 0.91961 0.0
C969 C 0.26944 0.18128 0.94391 0.0
C970 C 0.30519 0.22052 0.83797 0.0
C971 C 0.32568 0.23376 0.84473 0.0
C972 C 0.30242 0.20318 0.85901 0.0
C973 C 0.31991 0.19877 0.88746 0.0
C974 C 0.3425 0.21027 0.89301 0.0
C975 C 0.34541 0.22764 0.87173 0.0
H976 H 0.99945 0.33427 0.95968 0.0
H977 H 0.98599 0.27096 1.00209 0.0
H978 H 0.95948 0.33551 0.91988 0.0
H979 H 0.9472 0.271 0.96097 0.0
H980 H 0.85531 0.29254 0.90324 0.0
H981 H 0.89677 0.29004 0.94226 0.0
H982 H 0.94289 0.32022 0.87564 0.0
H983 H 0.90028 0.32416 0.8376 0.0
C984 C 0.98851 0.32013 0.96007 0.0
C985 C 0.99614 0.30247 0.98423 0.0
C986 C 0.96544 0.32076 0.93696 0.0
C987 C 0.9495 0.30343 0.93676 0.0
C988 C 0.95807 0.28515 0.9604 0.0
C989 C 0.98076 0.28486 0.98391 0.0
C990 C 0.87425 0.29878 0.89704 0.0
C991 C 0.87419 0.3088 0.86732 0.0
C992 C 0.8984 0.2971 0.91941 0.0
C993 C 0.92372 0.30488 0.91258 0.0
C994 C 0.92373 0.31454 0.8825 0.0
C995 C 0.89923 0.31671 0.86041 0.0
H996 H 0.84028 0.9216 0.9669 0.0
H997 H 0.75048 0.98194 0.95614 0.0
H998 H 0.82785 0.90017 0.92096 0.0
H999 H 0.73784 0.95989 0.90989 0.0
H1000 H 0.72754 0.88492 0.85503 0.0
H1001 H 0.73164 0.91374 0.89765 0.0
H1002 H 0.81916 0.91335 0.86151 0.0
H1003 H 0.81515 0.88507 0.81902 0.0
C1004 C 0.81773 0.93023 0.95492 0.0
C1005 C 0.79642 0.95356 0.96517 0.0
C1006 C 0.81072 0.91799 0.92846 0.0
C1007 C 0.78206 0.92853 0.91174 0.0
C1008 C 0.76014 0.95144 0.9224 0.0
C1009 C 0.7674 0.96401 0.94877 0.0
C1010 C 0.74718 0.89156 0.85567 0.0
C1011 C 0.77124 0.88237 0.83384 0.0
C1012 C 0.74949 0.90803 0.88007 0.0
C1013 C 0.77597 0.91537 0.88306 0.0
C1014 C 0.79873 0.90767 0.85995 0.0
C1015 C 0.79634 0.89148 0.83556 0.0
H1016 H 1.0114 0.75209 0.12517 0.0
H1017 H 0.96846 0.82828 0.09282 0.0
H1018 H 0.97093 0.75948 0.16307 0.0
H1019 H 0.92759 0.83609 0.13202 0.0
H1020 H 0.8391 0.82631 0.17422 0.0
H1021 H 0.88247 0.82494 0.14158 0.0
H1022 H 0.94851 0.77896 0.21017 0.0
H1023 H 0.9047 0.77971 0.24234 0.0
C1024 C 0.99345 0.77068 0.12639 0.0
C1025 C 0.9932 0.78952 0.10555 0.0
C1026 C 0.97023 0.775 0.14858 0.0
C1027 C 0.94569 0.7984 0.15093 0.0
C1028 C 0.94587 0.81769 0.13078 0.0
C1029 C 0.96944 0.81333 0.10843 0.0
C1030 C 0.86292 0.81597 0.18244 0.0
C1031 C 0.86839 0.80281 0.21073 0.0
C1032 C 0.88791 0.81541 0.16378 0.0
C1033 C 0.91926 0.80167 0.17285 0.0
C1034 C 0.92475 0.78937 0.20194 0.0
C1035 C 0.89965 0.78989 0.2206 0.0
H1036 H 0.34037 0.04939 0.08791 0.0
H1037 H 0.24229 0.05704 0.08353 0.0
H1038 H 0.35365 0.00742 0.11084 0.0
H1039 H 0.25546 0.01555 0.10563 0.0
H1040 H 0.29197 0.93146 0.12046 0.0
H1041 H 0.28604 0.96948 0.09142 0.0
H1042 H 0.33981 0.99227 0.16396 0.0
H1043 H 0.34574 0.95429 0.19301 0.0
C1044 C 0.32181 0.04202 0.09158 0.0
C1045 C 0.29032 0.05655 0.08435 0.0
C1046 C 0.32933 0.01814 0.1047 0.0
C1047 C 0.30554 0.00826 0.10991 0.0
C1048 C 0.2743 0.02255 0.10164 0.0
C1049 C 0.26676 0.04644 0.08926 0.0
C1050 C 0.30281 0.94445 0.12999 0.0
C1051 C 0.31897 0.94009 0.15915 0.0
C1052 C 0.29939 0.96619 0.11343 0.0
C1053 C 0.31248 0.98379 0.12547 0.0
C1054 C 0.32972 0.97892 0.15402 0.0
C1055 C 0.33276 0.95737 0.17079 0.0
H1056 H 0.78105 0.08684 0.03596 0.0
H1057 H 0.74905 0.06774 0.12237 0.0
H1058 H 0.78211 0.12603 0.06014 0.0
H1059 H 0.7496 0.10712 0.14627 0.0
H1060 H 0.79914 0.15752 0.19079 0.0
H1061 H 0.79257 0.12141 0.16345 0.0
H1062 H 0.75143 0.16746 0.08333 0.0
H1063 H 0.75891 0.20366 0.11049 0.0
C1064 C 0.77351 0.09124 0.05986 0.0
C1065 C 0.76531 0.07396 0.07734 0.0
C1066 C 0.77412 0.11375 0.07371 0.0
C1067 C 0.76651 0.11947 0.10531 0.0
C1068 C 0.75632 0.10297 0.12209 0.0
C1069 C 0.75571 0.0805 0.10828 0.0
C1070 C 0.78918 0.15991 0.16715 0.0
C1071 C 0.77972 0.18348 0.15278 0.0
C1072 C 0.78492 0.13928 0.15165 0.0
C1073 C 0.77107 0.14163 0.12136 0.0
C1074 C 0.76217 0.16504 0.10665 0.0
C1075 C 0.76632 0.18579 0.12226 0.0
H1076 H 0.6255 0.60981 0.82226 0.0
H1077 H 0.58555 0.65068 0.90666 0.0
H1078 H 0.6458 0.64264 0.81015 0.0
H1079 H 0.60741 0.68271 0.89543 0.0
H1080 H 0.61854 0.74983 0.84894 0.0
H1081 H 0.59916 0.71641 0.86076 0.0
H1082 H 0.68396 0.66118 0.82478 0.0
H1083 H 0.70254 0.69481 0.81119 0.0
C1084 C 0.62106 0.62569 0.83835 0.0
C1085 C 0.60348 0.62752 0.86534 0.0
C1086 C 0.63313 0.64444 0.83157 0.0
C1087 C 0.62817 0.66549 0.85169 0.0
C1088 C 0.61126 0.66703 0.87906 0.0
C1089 C 0.59903 0.64837 0.88574 0.0
C1090 C 0.6329 0.73061 0.84307 0.0
C1091 C 0.66209 0.72513 0.82893 0.0
C1092 C 0.62197 0.71134 0.85035 0.0
C1093 C 0.64001 0.68598 0.84392 0.0
C1094 C 0.66923 0.68047 0.8298 0.0
C1095 C 0.6801 0.69978 0.82235 0.0
H1096 H 0.43116 0.60852 0.85526 0.0
H1097 H 0.48839 0.62717 0.78886 0.0
H1098 H 0.38935 0.6488 0.84671 0.0
H1099 H 0.4464 0.66811 0.78062 0.0
H1100 H 0.35467 0.73647 0.76288 0.0
H1101 H 0.3914 0.69273 0.76259 0.0
H1102 H 0.3849 0.69102 0.86306 0.0
H1103 H 0.3482 0.73427 0.86319 0.0
C1104 C 0.43463 0.62112 0.83842 0.0
C1105 C 0.46325 0.61471 0.82296 0.0
C1106 C 0.41069 0.64435 0.83368 0.0
C1107 C 0.41469 0.66201 0.81351 0.0
C1108 C 0.44248 0.65496 0.79632 0.0
C1109 C 0.46655 0.63149 0.80098 0.0
C1110 C 0.36083 0.72656 0.7848 0.0
C1111 C 0.34851 0.73879 0.81309 0.0
C1112 C 0.38206 0.70158 0.78466 0.0
C1113 C 0.39113 0.68824 0.81277 0.0
C1114 C 0.37815 0.70046 0.84088 0.0
C1115 C 0.35718 0.72536 0.84102 0.0
H1116 H 0.52295 0.46842 0.91184 0.0
H1117 H 0.47522 0.50583 0.82789 0.0
H1118 H 0.49954 0.43632 0.90313 0.0
H1119 H 0.45335 0.47286 0.81824 0.0
H1120 H 0.3958 0.42179 0.82408 0.0
H1121 H 0.41634 0.45554 0.83518 0.0
H1122 H 0.50365 0.40118 0.87008 0.0
H1123 H 0.48244 0.36775 0.86085 0.0
C1124 C 0.50747 0.46995 0.89154 0.0
C1125 C 0.50128 0.48987 0.87053 0.0
C1126 C 0.49431 0.45123 0.88629 0.0
C1127 C 0.47471 0.45175 0.85979 0.0
C1128 C 0.46809 0.47187 0.83906 0.0
C1129 C 0.48106 0.49069 0.84441 0.0
C1130 C 0.41924 0.41705 0.8345 0.0
C1131 C 0.43739 0.39194 0.84154 0.0
C1132 C 0.4312 0.43642 0.8405 0.0
C1133 C 0.46172 0.4312 0.85357 0.0
C1134 C 0.4799 0.40607 0.86045 0.0
C1135 C 0.46787 0.38675 0.85465 0.0
H1136 H 0.67068 0.50301 0.8521 0.0
H1137 H 0.60499 0.49003 0.78408 0.0
H1138 H 0.70789 0.4609 0.84212 0.0
H1139 H 0.64276 0.44771 0.77349 0.0
H1140 H 0.69329 0.36528 0.80589 0.0
H1141 H 0.66034 0.40948 0.80317 0.0
H1142 H 0.74338 0.43007 0.8079 0.0
H1143 H 0.77649 0.38543 0.81133 0.0
C1144 C 0.66446 0.49134 0.8344 0.0
C1145 C 0.63466 0.49984 0.81912 0.0
C1146 C 0.68598 0.46714 0.82853 0.0
C1147 C 0.67832 0.45065 0.80725 0.0
C1148 C 0.64928 0.45974 0.79043 0.0
C1149 C 0.62771 0.4841 0.79623 0.0
C1150 C 0.70458 0.37922 0.80614 0.0
C1151 C 0.73749 0.37188 0.80915 0.0
C1152 C 0.68564 0.40463 0.80421 0.0
C1153 C 0.69906 0.42351 0.80529 0.0
C1154 C 0.73217 0.41609 0.80729 0.0
C1155 C 0.7512 0.39052 0.80913 0.0
H1156 H 0.6123 0.49282 0.30294 0.0
H1157 H 0.66995 0.50529 0.23186 0.0
H1158 H 0.64999 0.4498 0.30933 0.0
H1159 H 0.70753 0.46281 0.2385 0.0
H1160 H 0.7349 0.37791 0.22085 0.0
H1161 H 0.70283 0.42248 0.22271 0.0
H1162 H 0.70515 0.42113 0.32385 0.0
H1163 H 0.73731 0.37612 0.32187 0.0
C1164 C 0.63343 0.48665 0.28938 0.0
C1165 C 0.63795 0.50233 0.26661 0.0
C1166 C 0.655 0.462 0.29298 0.0
C1167 C 0.68142 0.45268 0.2739 0.0
C1168 C 0.68703 0.46914 0.25298 0.0
C1169 C 0.66556 0.49358 0.24933 0.0
C1170 C 0.72866 0.38712 0.24349 0.0
C1171 C 0.73853 0.37354 0.27117 0.0
C1172 C 0.71045 0.41273 0.24461 0.0
C1173 C 0.70154 0.42547 0.27346 0.0
C1174 C 0.71142 0.41186 0.30126 0.0
C1175 C 0.7299 0.38614 0.30012 0.0
H1176 H 0.64515 0.60017 0.24434 0.0
H1177 H 0.57501 0.65385 0.18606 0.0
H1178 H 0.67384 0.62925 0.25078 0.0
H1179 H 0.60411 0.68262 0.19178 0.0
H1180 H 0.64419 0.73873 0.23857 0.0
H1181 H 0.61636 0.70899 0.2336 0.0
H1182 H 0.70461 0.64801 0.22008 0.0
H1183 H 0.73255 0.67769 0.22587 0.0
C1184 C 0.63591 0.61814 0.23284 0.0
C1185 C 0.60775 0.62471 0.21477 0.0
C1186 C 0.65248 0.6347 0.23632 0.0
C1187 C 0.64115 0.65828 0.22192 0.0
C1188 C 0.61322 0.66472 0.2035 0.0
C1189 C 0.59675 0.6481 0.19989 0.0
C1190 C 0.65769 0.71893 0.235 0.0
C1191 C 0.69056 0.71055 0.23261 0.0
C1192 C 0.64171 0.70194 0.23176 0.0
C1193 C 0.65827 0.67618 0.22621 0.0
C1194 C 0.69121 0.66772 0.22449 0.0
C1195 C 0.70718 0.68473 0.22757 0.0
H1196 H 0.50896 0.63133 0.31089 0.0
H1197 H 0.43409 0.62137 0.2529 0.0
H1198 H 0.475 0.67463 0.32322 0.0
H1199 H 0.40064 0.66438 0.26453 0.0
H1200 H 0.33967 0.74062 0.29714 0.0
H1201 H 0.3711 0.69583 0.30114 0.0
H1202 H 0.456 0.71295 0.29347 0.0
H1203 H 0.42455 0.75767 0.29054 0.0
C1204 C 0.48506 0.63816 0.30138 0.0
C1205 C 0.47432 0.62297 0.28072 0.0
C1206 C 0.46569 0.66306 0.30816 0.0
C1207 C 0.43513 0.67319 0.29459 0.0
C1208 C 0.42384 0.65731 0.27567 0.0
C1209 C 0.44317 0.63259 0.26881 0.0
C1210 C 0.36508 0.73477 0.29669 0.0
C1211 C 0.37967 0.75256 0.29307 0.0
C1212 C 0.38311 0.7091 0.29889 0.0
C1213 C 0.41616 0.70064 0.2973 0.0
C1214 C 0.43071 0.71869 0.29512 0.0
C1215 C 0.41267 0.74434 0.29312 0.0
H1216 H 0.51973 0.46927 0.19647 0.0
H1217 H 0.46672 0.51945 0.26878 0.0
H1218 H 0.49654 0.43825 0.20963 0.0
H1219 H 0.44401 0.48813 0.28248 0.0
H1220 H 0.38402 0.43631 0.2682 0.0
H1221 H 0.40728 0.46815 0.2593 0.0
H1222 H 0.49902 0.41003 0.25363 0.0
H1223 H 0.4759 0.37816 0.26296 0.0
C1224 C 0.50297 0.47376 0.21503 0.0
C1225 C 0.49504 0.49685 0.23155 0.0
C1226 C 0.49 0.45585 0.22286 0.0
C1227 C 0.46864 0.46067 0.24727 0.0
C1228 C 0.46033 0.4839 0.2635 0.0
C1229 C 0.47349 0.50176 0.2558 0.0
C1230 C 0.40926 0.43034 0.26579 0.0
C1231 C 0.42807 0.40464 0.26611 0.0
C1232 C 0.42255 0.4486 0.26055 0.0
C1233 C 0.45491 0.44156 0.25539 0.0
C1234 C 0.4739 0.41598 0.2569 0.0
C1235 C 0.46065 0.39774 0.26229 0.0
H1236 H 0.8641 0.63163 0.63565 0.0
H1237 H 0.76508 0.66681 0.61236 0.0
H1238 H 0.85934 0.66211 0.67823 0.0
H1239 H 0.76043 0.69782 0.65458 0.0
H1240 H 0.75757 0.74243 0.74491 0.0
H1241 H 0.76234 0.70636 0.71031 0.0
H1242 H 0.8526 0.7059 0.68124 0.0
H1243 H 0.8482 0.7415 0.71627 0.0
C1244 C 0.84121 0.64577 0.6398 0.0
C1245 C 0.81501 0.64694 0.62044 0.0
C1246 C 0.83854 0.66336 0.66412 0.0
C1247 C 0.80963 0.68269 0.66959 0.0
C1248 C 0.78303 0.6831 0.6512 0.0
C1249 C 0.78568 0.66535 0.62693 0.0
C1250 C 0.77863 0.73443 0.73143 0.0
C1251 C 0.8025 0.74493 0.73332 0.0
C1252 C 0.78125 0.71384 0.71143 0.0
C1253 C 0.80777 0.70325 0.69285 0.0
C1254 C 0.83203 0.7133 0.69551 0.0
C1255 C 0.82946 0.73384 0.71554 0.0
H1256 H 0.45975 0.79909 0.58934 0.0
H1257 H 0.52382 0.77398 0.66871 0.0
H1258 H 0.41531 0.80373 0.62274 0.0
H1259 H 0.47957 0.77846 0.70198 0.0
H1260 H 0.39012 0.81712 0.75858 0.0
H1261 H 0.43372 0.81259 0.72438 0.0
H1262 H 0.39204 0.77768 0.65302 0.0
H1263 H 0.34841 0.78208 0.68732 0.0
C1264 C 0.46438 0.79456 0.61389 0.0
C1265 C 0.49549 0.78612 0.62622 0.0
C1266 C 0.4389 0.79705 0.63303 0.0
C1267 C 0.44374 0.79154 0.66517 0.0
C1268 C 0.47485 0.78311 0.67745 0.0
C1269 C 0.50033 0.78029 0.65825 0.0
C1270 C 0.39012 0.80853 0.73558 0.0
C1271 C 0.3656 0.79996 0.72583 0.0
C1272 C 0.41531 0.80578 0.71599 0.0
C1273 C 0.41657 0.79469 0.68588 0.0
C1274 C 0.3918 0.78648 0.67593 0.0
C1275 C 0.36681 0.78891 0.6957 0.0
H1276 H 0.31879 0.39723 0.58777 0.0
H1277 H 0.31992 0.46127 0.64426 0.0
H1278 H 0.30661 0.37827 0.63379 0.0
H1279 H 0.30785 0.44217 0.69061 0.0
H1280 H 0.33358 0.37583 0.76513 0.0
H1281 H 0.33782 0.40186 0.72224 0.0
H1282 H 0.26126 0.3876 0.67219 0.0
H1283 H 0.2567 0.36176 0.71516 0.0
C1284 C 0.31654 0.4072 0.61007 0.0
C1285 C 0.32048 0.43066 0.61247 0.0
C1286 C 0.3092 0.39649 0.63634 0.0
C1287 C 0.30608 0.40883 0.66573 0.0
C1288 C 0.31009 0.43228 0.66822 0.0
C1289 C 0.3169 0.44321 0.64176 0.0
C1290 C 0.31709 0.37878 0.74534 0.0
C1291 C 0.29484 0.36667 0.74352 0.0
C1292 C 0.31953 0.3937 0.72081 0.0
C1293 C 0.30011 0.39649 0.69375 0.0
C1294 C 0.27673 0.38555 0.69267 0.0
C1295 C 0.27394 0.37096 0.71742 0.0
H1296 H 0.64393 0.25422 0.62761 0.0
H1297 H 0.60506 0.33323 0.60556 0.0
H1298 H 0.68013 0.26229 0.66531 0.0
H1299 H 0.64202 0.34149 0.6447 0.0
H1300 H 0.74212 0.33393 0.69552 0.0
H1301 H 0.70165 0.33184 0.65658 0.0
H1302 H 0.67727 0.28215 0.71656 0.0
H1303 H 0.71743 0.28376 0.75463 0.0
C1304 C 0.64288 0.2735 0.63084 0.0
C1305 C 0.62119 0.29308 0.61337 0.0
C1306 C 0.66376 0.27814 0.65284 0.0
C1307 C 0.66394 0.30258 0.65851 0.0
C1308 C 0.64257 0.32239 0.64092 0.0
C1309 C 0.62123 0.31771 0.61868 0.0
C1310 C 0.72804 0.32261 0.70036 0.0
C1311 C 0.7336 0.30866 0.72812 0.0
C1312 C 0.70465 0.32159 0.67813 0.0
C1313 C 0.68635 0.30657 0.68315 0.0
C1314 C 0.69124 0.2935 0.71146 0.0
C1315 C 0.71443 0.29446 0.73344 0.0
H1316 H 0.76976 0.55746 0.51863 0.0
H1317 H 0.73927 0.59596 0.4311 0.0
H1318 H 0.76692 0.51901 0.49452 0.0
H1319 H 0.73479 0.55774 0.4072 0.0
H1320 H 0.78223 0.4787 0.36447 0.0
H1321 H 0.77128 0.51979 0.38921 0.0
H1322 H 0.74013 0.4939 0.47155 0.0
H1323 H 0.75217 0.45227 0.4468 0.0
C1324 C 0.7613 0.55799 0.4945 0.0
C1325 C 0.755 0.57975 0.47668 0.0
C1326 C 0.75962 0.53583 0.48059 0.0
C1327 C 0.75116 0.53497 0.44863 0.0
C1328 C 0.7423 0.5574 0.4316 0.0
C1329 C 0.7445 0.57945 0.44537 0.0
C1330 C 0.77248 0.48189 0.38762 0.0
C1331 C 0.7681 0.46219 0.40366 0.0
C1332 C 0.76602 0.50559 0.40186 0.0
C1333 C 0.7547 0.5104 0.4325 0.0
C1334 C 0.74927 0.49088 0.44815 0.0
C1335 C 0.75608 0.46702 0.43396 0.0
H1336 H 0.64618 0.76533 0.42097 0.0
H1337 H 0.66167 0.82179 0.4825 0.0
H1338 H 0.68223 0.77144 0.38337 0.0
H1339 H 0.69799 0.82768 0.44514 0.0
H1340 H 0.79325 0.79995 0.39269 0.0
H1341 H 0.7524 0.79825 0.4268 0.0
H1342 H 0.68886 0.80635 0.34685 0.0
H1343 H 0.72995 0.80888 0.31242 0.0
C1344 C 0.65724 0.77907 0.42647 0.0
C1345 C 0.6511 0.79298 0.45491 0.0
C1346 C 0.67768 0.78274 0.40476 0.0
C1347 C 0.69304 0.80005 0.41119 0.0
C1348 C 0.68662 0.81415 0.43946 0.0
C1349 C 0.66571 0.81085 0.46085 0.0
C1350 C 0.77049 0.80167 0.38224 0.0
C1351 C 0.76493 0.80464 0.34969 0.0
C1352 C 0.74699 0.80076 0.40192 0.0
C1353 C 0.71728 0.80222 0.38968 0.0
C1354 C 0.71154 0.80513 0.35705 0.0
C1355 C 0.735 0.80669 0.33731 0.0
H1356 H 0.37597 0.53624 0.42062 0.0
H1357 H 0.34977 0.57701 0.50815 0.0
H1358 H 0.37143 0.5754 0.39503 0.0
H1359 H 0.34479 0.61616 0.48262 0.0
H1360 H 0.35834 0.68056 0.43286 0.0
H1361 H 0.37426 0.63904 0.45638 0.0
H1362 H 0.32567 0.61384 0.38109 0.0
H1363 H 0.31018 0.6552 0.35734 0.0
C1364 C 0.36984 0.55347 0.43452 0.0
C1365 C 0.36307 0.55359 0.46637 0.0
C1366 C 0.36693 0.57593 0.41981 0.0
C1367 C 0.35757 0.59891 0.43675 0.0
C1368 C 0.35228 0.59878 0.46894 0.0
C1369 C 0.35488 0.5764 0.48353 0.0
C1370 C 0.35157 0.666 0.42103 0.0
C1371 C 0.33284 0.67119 0.39334 0.0
C1372 C 0.36048 0.64229 0.43464 0.0
C1373 C 0.3511 0.62318 0.42069 0.0
C1374 C 0.33349 0.62807 0.3923 0.0
C1375 C 0.32435 0.65184 0.37885 0.0
H1376 H 0.46382 0.3355 0.49084 0.0
H1377 H 0.49907 0.25989 0.45213 0.0
H1378 H 0.42017 0.34631 0.45161 0.0
H1379 H 0.45597 0.27031 0.41404 0.0
H1380 H 0.38567 0.29581 0.33487 0.0
H1381 H 0.43221 0.2922 0.36805 0.0
H1382 H 0.37241 0.33784 0.43974 0.0
H1383 H 0.3263 0.34198 0.40623 0.0
C1384 C 0.4625 0.32129 0.4739 0.0
C1385 C 0.48499 0.29678 0.47496 0.0
C1386 C 0.43735 0.32739 0.45147 0.0
C1387 C 0.4343 0.30921 0.42937 0.0
C1388 C 0.45748 0.28503 0.43006 0.0
C1389 C 0.48223 0.27896 0.45237 0.0
C1390 C 0.38256 0.30544 0.35744 0.0
C1391 C 0.3522 0.319 0.36791 0.0
C1392 C 0.40924 0.30322 0.3767 0.0
C1393 C 0.40631 0.31447 0.407 0.0
C1394 C 0.37591 0.32904 0.41666 0.0
C1395 C 0.34933 0.33124 0.39744 0.0
H1396 H 0.5756 0.84296 0.65954 0.0
H1397 H 0.62216 0.85469 0.57832 0.0
H1398 H 0.61942 0.84457 0.69301 0.0
H1399 H 0.66551 0.85729 0.61197 0.0
H1400 H 0.75497 0.81961 0.67104 0.0
H1401 H 0.70751 0.82689 0.639 0.0
H1402 H 0.65135 0.86652 0.71657 0.0
H1403 H 0.69952 0.85851 0.74912 0.0
C1404 C 0.59478 0.84659 0.64886 0.0
C1405 C 0.5955 0.84834 0.61611 0.0
C1406 C 0.61996 0.8476 0.66817 0.0
C1407 C 0.64641 0.85059 0.65524 0.0
C1408 C 0.64597 0.85427 0.62272 0.0
C1409 C 0.62093 0.85302 0.60339 0.0
C1410 C 0.73252 0.83004 0.68126 0.0
C1411 C 0.73095 0.83841 0.71263 0.0
C1412 C 0.7052 0.83444 0.66273 0.0
C1413 C 0.67541 0.84753 0.67496 0.0
C1414 C 0.67383 0.85622 0.70638 0.0
C1415 C 0.70137 0.85171 0.72504 0.0
H1416 H 0.68015 0.22814 0.46107 0.0
H1417 H 0.62159 0.30686 0.46397 0.0
H1418 H 0.71627 0.23788 0.42719 0.0
H1419 H 0.65754 0.31654 0.43037 0.0
H1420 H 0.74281 0.32881 0.39156 0.0
H1421 H 0.71056 0.31802 0.42914 0.0
H1422 H 0.71646 0.25158 0.37377 0.0
H1423 H 0.74901 0.262 0.33671 0.0
C1424 C 0.67491 0.24748 0.45443 0.0
C1425 C 0.64798 0.26669 0.46535 0.0
C1426 C 0.69561 0.25308 0.43506 0.0
C1427 C 0.68983 0.27802 0.42617 0.0
C1428 C 0.66303 0.29721 0.43726 0.0
C1429 C 0.64237 0.29162 0.45656 0.0
C1430 C 0.73735 0.31184 0.38753 0.0
C1431 C 0.74837 0.29636 0.36106 0.0
C1432 C 0.71877 0.30572 0.40897 0.0
C1433 C 0.71091 0.28395 0.40442 0.0
C1434 C 0.7224 0.26829 0.37822 0.0
C1435 C 0.74089 0.27441 0.35681 0.0
H1436 H 0.82259 0.63688 0.41416 0.0
H1437 H 0.86235 0.68576 0.46539 0.0
H1438 H 0.8337 0.65242 0.36464 0.0
H1439 H 0.87273 0.7017 0.41657 0.0
H1440 H 0.89374 0.7279 0.3297 0.0
H1441 H 0.89999 0.69548 0.36807 0.0
H1442 H 0.80875 0.69299 0.33985 0.0
H1443 H 0.80288 0.72474 0.30099 0.0
C1444 C 0.83441 0.65046 0.41477 0.0
C1445 C 0.84123 0.66042 0.44351 0.0
C1446 C 0.84057 0.65949 0.3865 0.0
C1447 C 0.85392 0.67844 0.38659 0.0
C1448 C 0.86279 0.68692 0.41547 0.0
C1449 C 0.85648 0.67803 0.44353 0.0
C1450 C 0.87546 0.71986 0.33097 0.0
C1451 C 0.84747 0.72938 0.31281 0.0
C1452 C 0.87898 0.70135 0.35309 0.0
C1453 C 0.85454 0.6921 0.3576 0.0
C1454 C 0.82809 0.69965 0.33705 0.0
C1455 C 0.82464 0.71804 0.31481 0.0
H1456 H 0.48787 0.77899 0.48095 0.0
H1457 H 0.47951 0.85705 0.47616 0.0
H1458 H 0.44324 0.78652 0.44519 0.0
H1459 H 0.43366 0.86478 0.43997 0.0
H1460 H 0.38369 0.85189 0.3436 0.0
H1461 H 0.4223 0.85237 0.38494 0.0
H1462 H 0.38678 0.80795 0.44289 0.0
H1463 H 0.34891 0.80692 0.40154 0.0
C1464 C 0.47633 0.79791 0.47243 0.0
C1465 C 0.48739 0.81742 0.4814 0.0
C1466 C 0.45042 0.80227 0.45206 0.0
C1467 C 0.43462 0.8263 0.43993 0.0
C1468 C 0.44541 0.84603 0.44893 0.0
C1469 C 0.47151 0.84166 0.4697 0.0
C1470 C 0.38382 0.84256 0.36537 0.0
C1471 C 0.36359 0.82899 0.36906 0.0
C1472 C 0.40584 0.84297 0.38912 0.0
C1473 C 0.40794 0.82987 0.41701 0.0
C1474 C 0.38623 0.81777 0.42141 0.0
C1475 C 0.36446 0.81723 0.3977 0.0
H1476 H 0.26444 0.49838 0.43588 0.0
H1477 H 0.23714 0.44717 0.49077 0.0
H1478 H 0.25588 0.4769 0.38798 0.0
H1479 H 0.22933 0.42539 0.44307 0.0
H1480 H 0.2131 0.38968 0.35464 0.0
H1481 H 0.20279 0.42393 0.39325 0.0
H1482 H 0.28711 0.43618 0.36697 0.0
H1483 H 0.29704 0.40247 0.32804 0.0
C1484 C 0.256 0.48287 0.43772 0.0
C1485 C 0.25202 0.47419 0.4672 0.0
C1486 C 0.25124 0.47049 0.41025 0.0
C1487 C 0.24246 0.44916 0.41167 0.0
C1488 C 0.2359 0.44185 0.44102 0.0
C1489 C 0.24056 0.45428 0.46848 0.0
C1490 C 0.229 0.40012 0.35649 0.0
C1491 C 0.25624 0.39299 0.33861 0.0
C1492 C 0.22315 0.41968 0.37878 0.0
C1493 C 0.24439 0.43252 0.38363 0.0
C1494 C 0.27011 0.42683 0.36381 0.0
C1495 C 0.27593 0.40732 0.3415 0.0
H1496 H 0.45836 0.29711 0.61247 0.0
H1497 H 0.50928 0.22384 0.65101 0.0
H1498 H 0.41688 0.30313 0.6489 0.0
H1499 H 0.46646 0.22945 0.68657 0.0
H1500 H 0.39267 0.25984 0.76485 0.0
H1501 H 0.43845 0.25327 0.73224 0.0
H1502 H 0.37584 0.28677 0.65414 0.0
H1503 H 0.33089 0.29407 0.68668 0.0
C1504 C 0.46095 0.28224 0.62871 0.0
C1505 C 0.48743 0.25991 0.62846 0.0
C1506 C 0.43679 0.28561 0.64948 0.0
C1507 C 0.43807 0.26664 0.67045 0.0
C1508 C 0.46476 0.24449 0.67082 0.0
C1509 C 0.48916 0.24116 0.65008 0.0
C1510 C 0.38892 0.26589 0.74077 0.0
C1511 C 0.35829 0.27776 0.72842 0.0
C1512 C 0.41504 0.26197 0.72202 0.0
C1513 C 0.41085 0.26981 0.69064 0.0
C1514 C 0.38007 0.28106 0.67835 0.0
C1515 C 0.35421 0.28504 0.69698 0.0
H1516 H 0.85158 0.53964 0.61674 0.0
H1517 H 0.86351 0.49752 0.52932 0.0
H1518 H 0.84189 0.5056 0.64286 0.0
H1519 H 0.85428 0.46315 0.55568 0.0
H1520 H 0.86602 0.39956 0.62967 0.0
H1521 H 0.87724 0.43099 0.59935 0.0
H1522 H 0.79667 0.48914 0.63798 0.0
H1523 H 0.78483 0.45775 0.66772 0.0
C1524 C 0.85247 0.52296 0.60321 0.0
C1525 C 0.85801 0.52137 0.57095 0.0
C1526 C 0.84677 0.50356 0.61809 0.0
C1527 C 0.84673 0.48199 0.60112 0.0
C1528 C 0.85412 0.47963 0.56926 0.0
C1529 C 0.85963 0.4992 0.55425 0.0
C1530 C 0.85016 0.41894 0.6311 0.0
C1531 C 0.82461 0.42615 0.65136 0.0
C1532 C 0.85676 0.43693 0.61385 0.0
C1533 C 0.83815 0.46249 0.61676 0.0
C1534 C 0.81181 0.46958 0.63585 0.0
C1535 C 0.80503 0.45161 0.65285 0.0
H1536 H 0.34458 0.54389 0.62259 0.0
H1537 H 0.2562 0.57305 0.57034 0.0
H1538 H 0.33399 0.58475 0.64832 0.0
H1539 H 0.24578 0.61416 0.59602 0.0
H1540 H 0.22756 0.67736 0.67198 0.0
H1541 H 0.23526 0.63616 0.64791 0.0
H1542 H 0.33203 0.62643 0.63108 0.0
H1543 H 0.32431 0.66771 0.65485 0.0
C1544 C 0.32275 0.55896 0.61676 0.0
C1545 C 0.30131 0.55528 0.59426 0.0
C1546 C 0.31682 0.58243 0.63136 0.0
C1547 C 0.2893 0.60273 0.62385 0.0
C1548 C 0.26718 0.59881 0.60233 0.0
C1549 C 0.27315 0.57529 0.58762 0.0
C1550 C 0.25036 0.66658 0.66275 0.0
C1551 C 0.27534 0.67582 0.66531 0.0
C1552 C 0.25476 0.64296 0.64906 0.0
C1553 C 0.28427 0.62802 0.63781 0.0
C1554 C 0.30916 0.63735 0.64007 0.0
C1555 C 0.30474 0.66099 0.65365 0.0
loop_
_geom_bond_atom_site_label_1
_geom_bond_atom_site_label_2
_geom_bond_distance
_geom_bond_site_symmetry_2
_ccdc_geom_bond_type
Cu0 N1 1.999 . S
Cu0 O6 1.974 . S
Cu0 N11 1.985 1_455 S
Cu0 O20 1.959 1_455 S
N1 Cu0 1.999 . S
N1 C3 1.263 . S
N1 C5 1.389 . S
N2 C3 1.358 . S
N2 C4 1.400 . S
C3 N1 1.263 . S
C3 N2 1.358 . S
C3 H9 0.930 . S
C4 N2 1.400 . S
C4 C5 1.351 . S
C4 H21 0.930 . S
C5 N1 1.389 . S
C5 C4 1.351 . S
C5 H10 0.930 . S
O6 Cu0 1.974 . S
O6 C16 1.282 . S
C7 O8 1.261 . S
C7 O20 1.251 . S
O8 C7 1.261 . S
H9 C3 0.930 . S
H10 C5 0.930 . S
N11 Cu0 1.985 1_655 S
N11 C13 1.335 . S
N11 C14 1.392 . S
N12 C13 1.345 . S
N12 C15 1.334 . S
C13 N11 1.335 . S
C13 N12 1.345 . S
C13 H18 0.930 . S
C14 N11 1.392 . S
C14 C15 1.361 . S
C14 H19 0.914 1_655 S
C15 N12 1.334 . S
C15 C14 1.361 . S
C15 H22 0.934 1_545 S
C16 O6 1.282 . S
C16 O17 1.216 . S
O17 C16 1.216 . S
H18 C13 0.930 . S
H19 C14 0.914 1_455 S
O20 Cu0 1.959 1_655 S
O20 C7 1.251 . S
H21 C4 0.930 . S
H22 C15 0.934 1_565 S
Cu23 N24 1.999 1_455 S
Cu23 O29 1.974 1_455 S
Cu23 N34 1.985 . S
Cu23 O43 1.959 . S
N24 Cu23 1.999 1_655 S
N24 C26 1.263 . S
N24 C28 1.389 . S
N25 C26 1.358 . S
N25 C27 1.400 1_545 S
C26 N24 1.263 . S
C26 N25 1.358 . S
C26 H32 0.930 . S
C27 N25 1.400 1_565 S
C27 C28 1.351 1_565 S
C27 H44 0.930 . S
C28 N24 1.389 . S
C28 C27 1.351 1_545 S
C28 H33 0.930 1_645 S
O29 Cu23 1.974 1_655 S
O29 C39 1.282 . S
C30 O31 1.261 . S
C30 O43 1.251 . S
O31 C30 1.261 . S
H32 C26 0.930 . S
H33 C28 0.930 1_465 S
N34 Cu23 1.985 . S
N34 C36 1.335 . S
N34 C37 1.390 . S
N35 C36 1.345 . S
N35 C38 1.336 . S
C36 N34 1.335 . S
C36 N35 1.345 . S
C36 H41 0.930 . S
C37 N34 1.390 . S
C37 C38 1.346 . S
C37 H42 0.911 1_455 S
C38 N35 1.336 . S
C38 C37 1.346 . S
C38 H45 0.929 . S
C39 O29 1.282 . S
C39 O40 1.216 . S
O40 C39 1.216 . S
H41 C36 0.930 . S
H42 C37 0.911 1_655 S
O43 Cu23 1.959 . S
O43 C30 1.251 . S
H44 C27 0.930 . S
H45 C38 0.929 . S
Cu46 N47 1.999 1_554 S
Cu46 O52 1.974 . S
Cu46 N57 1.985 . S
Cu46 O66 1.959 1_554 S
N47 Cu46 1.999 1_556 S
N47 C49 1.263 . S
N47 C51 1.389 . S
N48 C49 1.358 . S
N48 C50 1.400 . S
C49 N47 1.263 . S
C49 N48 1.358 . S
C49 H55 0.922 1_556 S
C50 N48 1.400 . S
C50 C51 1.351 . S
C50 H67 0.930 . S
C51 N47 1.389 . S
C51 C50 1.351 . S
C51 H56 0.930 . S
O52 Cu46 1.974 . S
O52 C62 1.282 . S
C53 O54 1.261 . S
C53 O66 1.251 . S
O54 C53 1.261 . S
H55 C49 0.922 1_554 S
H56 C51 0.930 . S
N57 Cu46 1.985 . S
N57 C59 1.335 . S
N57 C60 1.390 . S
N58 C59 1.345 . S
N58 C61 1.336 . S
C59 N57 1.335 . S
C59 N58 1.345 . S
C59 H64 0.930 . S
C60 N57 1.390 . S
C60 C61 1.346 . S
C60 H65 0.930 . S
C61 N58 1.336 . S
C61 C60 1.346 . S
C61 H68 0.929 . S
C62 O52 1.282 . S
C62 O63 1.216 . S
O63 C62 1.216 . S
H64 C59 0.930 . S
H65 C60 0.930 . S
O66 Cu46 1.959 1_556 S
O66 C53 1.251 . S
H67 C50 0.930 . S
H68 C61 0.929 . S
Cu69 N70 1.999 1_554 S
Cu69 O75 1.974 . S
Cu69 N80 1.985 1_455 S
Cu69 O89 1.959 1_454 S
N70 Cu69 1.999 1_556 S
N70 C72 1.263 . S
N70 C74 1.389 . S
N71 C72 1.358 . S
N71 C73 1.400 . S
C72 N70 1.263 . S
C72 N71 1.358 . S
C72 H78 0.930 . S
C73 N71 1.400 . S
C73 C74 1.351 . S
C73 H90 0.930 . S
C74 N70 1.389 . S
C74 C73 1.351 . S
C74 H79 0.930 . S
O75 Cu69 1.974 . S
O75 C85 1.282 . S
C76 O77 1.261 . S
C76 O89 1.251 . S
O77 C76 1.261 . S
H78 C72 0.930 . S
H79 C74 0.930 . S
N80 Cu69 1.985 1_655 S
N80 C82 1.335 . S
N80 C83 1.390 . S
N81 C82 1.345 . S
N81 C84 1.336 . S
C82 N80 1.335 . S
C82 N81 1.345 . S
C82 H87 0.930 . S
C83 N80 1.390 . S
C83 C84 1.346 . S
C83 H88 0.930 1_655 S
C84 N81 1.336 . S
C84 C83 1.346 . S
C84 H91 0.929 . S
C85 O75 1.282 . S
C85 O86 1.216 . S
O86 C85 1.216 . S
H87 C82 0.930 . S
H88 C83 0.930 1_455 S
O89 Cu69 1.959 1_656 S
O89 C76 1.251 . S
H90 C73 0.930 . S
H91 C84 0.929 . S
Cu92 N93 1.999 1_554 S
Cu92 O98 1.974 . S
Cu92 N103 1.985 1_545 S
Cu92 O112 1.959 1_544 S
N93 Cu92 1.999 1_556 S
N93 C95 1.263 . S
N93 C97 1.389 . S
N94 C95 1.358 . S
N94 C96 1.400 . S
C95 N93 1.263 . S
C95 N94 1.358 . S
C95 H101 0.930 . S
C96 N94 1.400 . S
C96 C97 1.351 . S
C96 H113 0.930 . S
C97 N93 1.389 . S
C97 C96 1.351 . S
C97 H102 0.930 . S
O98 Cu92 1.974 . S
O98 C108 1.282 . S
C99 O100 1.261 . S
C99 O112 1.251 . S
O100 C99 1.261 . S
H101 C95 0.930 . S
H102 C97 0.930 . S
N103 Cu92 1.985 1_565 S
N103 C105 1.335 . S
N103 C106 1.390 . S
N104 C105 1.345 . S
N104 C107 1.336 . S
C105 N103 1.335 . S
C105 N104 1.345 . S
C105 H110 0.930 . S
C106 N103 1.390 . S
C106 C107 1.346 . S
C106 H111 0.930 . S
C107 N104 1.336 . S
C107 C106 1.346 . S
C107 H114 0.929 . S
C108 O98 1.282 . S
C108 O109 1.216 . S
O109 C108 1.216 . S
H110 C105 0.930 . S
H111 C106 0.930 . S
O112 Cu92 1.959 1_566 S
O112 C99 1.251 . S
H113 C96 0.930 . S
H114 C107 0.929 . S
Cu115 N116 1.999 1_454 S
Cu115 O121 1.974 1_455 S
Cu115 N126 1.985 . S
Cu115 O135 1.959 1_554 S
N116 Cu115 1.999 1_656 S
N116 C118 1.263 . S
N116 C120 1.389 . S
N117 C118 1.358 . S
N117 C119 1.400 . S
C118 N116 1.263 . S
C118 N117 1.358 . S
C118 H124 0.930 . S
C119 N117 1.400 . S
C119 C120 1.351 . S
C119 H136 0.930 . S
C120 N116 1.389 . S
C120 C119 1.351 . S
C120 H125 0.930 1_655 S
O121 Cu115 1.974 1_655 S
O121 C131 1.282 . S
C122 O123 1.261 . S
C122 O135 1.251 . S
O123 C122 1.261 . S
H124 C118 0.930 . S
H125 C120 0.930 1_455 S
N126 Cu115 1.985 . S
N126 C128 1.335 . S
N126 C129 1.390 . S
N127 C128 1.345 . S
N127 C130 1.336 . S
C128 N126 1.335 . S
C128 N127 1.345 . S
C128 H133 0.930 . S
C129 N126 1.390 . S
C129 C130 1.346 . S
C129 H134 0.930 . S
C130 N127 1.336 . S
C130 C129 1.346 . S
C130 H137 0.929 . S
C131 O121 1.282 . S
C131 O132 1.216 . S
O132 C131 1.216 . S
H133 C128 0.930 . S
H134 C129 0.930 . S
O135 Cu115 1.959 1_556 S
O135 C122 1.251 . S
H136 C119 0.930 . S
H137 C130 0.929 . S
Cu138 N139 1.999 . S
Cu138 O144 1.974 . S
Cu138 N149 1.985 . S
Cu138 O158 1.959 . S
N139 Cu138 1.999 . S
N139 C141 1.263 . S
N139 C143 1.389 . S
N140 C141 1.358 . S
N140 C142 1.400 . S
C141 N139 1.263 . S
C141 N140 1.358 . S
C141 H147 0.930 . S
C142 N140 1.400 . S
C142 C143 1.351 . S
C142 H159 0.930 . S
C143 N139 1.389 . S
C143 C142 1.351 . S
C143 H148 0.930 . S
O144 Cu138 1.974 . S
O144 C154 1.282 . S
C145 O146 1.261 . S
C145 O158 1.251 . S
O146 C145 1.261 . S
H147 C141 0.930 . S
H148 C143 0.930 . S
N149 Cu138 1.985 . S
N149 C151 1.335 . S
N149 C152 1.390 . S
N150 C151 1.345 . S
N150 C153 1.336 . S
C151 N149 1.335 . S
C151 N150 1.345 . S
C151 H156 0.930 . S
C152 N149 1.390 . S
C152 C153 1.346 . S
C152 H157 0.930 . S
C153 N150 1.336 . S
C153 C152 1.346 . S
C153 H160 0.929 . S
C154 O144 1.282 . S
C154 O155 1.216 . S
O155 C154 1.216 . S
H156 C151 0.930 . S
H157 C152 0.930 . S
O158 Cu138 1.959 . S
O158 C145 1.251 . S
H159 C142 0.930 . S
H160 C153 0.929 . S
Cu161 N162 1.999 . S
Cu161 O167 1.974 . S
Cu161 N172 1.985 . S
Cu161 O181 1.959 . S
N162 Cu161 1.999 . S
N162 C164 1.263 . S
N162 C166 1.389 . S
N163 C164 1.358 . S
N163 C165 1.400 . S
C164 N162 1.263 . S
C164 N163 1.358 . S
C164 H170 0.930 . S
C165 N163 1.400 . S
C165 C166 1.351 . S
C165 H182 0.930 . S
C166 N162 1.389 . S
C166 C165 1.351 . S
C166 H171 0.930 . S
O167 Cu161 1.974 . S
O167 C177 1.282 . S
C168 O169 1.261 . S
C168 O181 1.251 . S
O169 C168 1.261 . S
H170 C164 0.930 . S
H171 C166 0.930 . S
N172 Cu161 1.985 . S
N172 C174 1.335 . S
N172 C175 1.390 . S
N173 C174 1.345 . S
N173 C176 1.336 . S
C174 N172 1.335 . S
C174 N173 1.345 . S
C174 H179 0.930 . S
C175 N172 1.390 . S
C175 C176 1.346 . S
C175 H180 0.930 . S
C176 N173 1.336 . S
C176 C175 1.346 . S
C176 H183 0.929 . S
C177 O167 1.282 . S
C177 O178 1.216 . S
O178 C177 1.216 . S
H179 C174 0.930 . S
H180 C175 0.930 . S
O181 Cu161 1.959 . S
O181 C168 1.251 . S
H182 C165 0.930 . S
H183 C176 0.929 . S
Cu184 N185 1.999 . S
Cu184 O190 1.974 . S
Cu184 N195 1.985 . S
Cu184 O204 1.959 . S
N185 Cu184 1.999 . S
N185 C187 1.263 . S
N185 C189 1.389 . S
N186 C187 1.358 . S
N186 C188 1.400 . S
C187 N185 1.263 . S
C187 N186 1.358 . S
C187 H193 0.930 . S
C188 N186 1.400 . S
C188 C189 1.351 . S
C188 H205 0.930 . S
C189 N185 1.389 . S
C189 C188 1.351 . S
C189 H194 0.930 . S
O190 Cu184 1.974 . S
O190 C200 1.282 . S
C191 O192 1.261 . S
C191 O204 1.251 . S
O192 C191 1.261 . S
H193 C187 0.930 . S
H194 C189 0.930 . S
N195 Cu184 1.985 . S
N195 C197 1.335 . S
N195 C198 1.390 . S
N196 C197 1.345 . S
N196 C199 1.336 . S
C197 N195 1.335 . S
C197 N196 1.345 . S
C197 H202 0.930 . S
C198 N195 1.390 . S
C198 C199 1.346 . S
C198 H203 0.930 . S
C199 N196 1.336 . S
C199 C198 1.346 . S
C199 H206 0.929 . S
C200 O190 1.282 . S
C200 O201 1.216 . S
O201 C200 1.216 . S
H202 C197 0.930 . S
H203 C198 0.930 . S
O204 Cu184 1.959 . S
O204 C191 1.251 . S
H205 C188 0.930 . S
H206 C199 0.929 . S
Cu207 N208 1.999 . S
Cu207 O213 1.974 . S
Cu207 N218 1.985 . S
Cu207 O227 1.959 . S
N208 Cu207 1.999 . S
N208 C210 1.263 . S
N208 C212 1.389 . S
N209 C210 1.358 . S
N209 C211 1.400 . S
C210 N208 1.263 . S
C210 N209 1.358 . S
C210 H216 0.930 . S
C211 N209 1.400 . S
C211 C212 1.351 . S
C211 H228 0.930 . S
C212 N208 1.389 . S
C212 C211 1.351 . S
C212 H217 0.930 . S
O213 Cu207 1.974 . S
O213 C223 1.282 . S
C214 O215 1.261 . S
C214 O227 1.251 . S
O215 C214 1.261 . S
H216 C210 0.930 . S
H217 C212 0.930 . S
N218 Cu207 1.985 . S
N218 C220 1.335 . S
N218 C221 1.390 . S
N219 C220 1.345 . S
N219 C222 1.336 . S
C220 N218 1.335 . S
C220 N219 1.345 . S
C220 H225 0.930 . S
C221 N218 1.390 . S
C221 C222 1.346 . S
C221 H226 0.930 . S
C222 N219 1.336 . S
C222 C221 1.346 . S
C222 H229 0.929 . S
C223 O213 1.282 . S
C223 O224 1.216 . S
O224 C223 1.216 . S
H225 C220 0.930 . S
H226 C221 0.930 . S
O227 Cu207 1.959 . S
O227 C214 1.251 . S
H228 C211 0.930 . S
H229 C222 0.929 . S
Cu230 N231 1.999 . S
Cu230 O236 1.974 . S
Cu230 N241 1.985 . S
Cu230 O250 1.959 . S
N231 Cu230 1.999 . S
N231 C233 1.263 . S
N231 C235 1.389 . S
N232 C233 1.358 . S
N232 C234 1.400 . S
C233 N231 1.263 . S
C233 N232 1.358 . S
C233 H239 0.930 . S
C234 N232 1.400 . S
C234 C235 1.351 . S
C234 H251 0.930 . S
C235 N231 1.389 . S
C235 C234 1.351 . S
C235 H240 0.930 . S
O236 Cu230 1.974 . S
O236 C246 1.282 . S
C237 O238 1.261 . S
C237 O250 1.251 . S
O238 C237 1.261 . S
H239 C233 0.930 . S
H240 C235 0.930 . S
N241 Cu230 1.985 . S
N241 C243 1.335 . S
N241 C244 1.390 . S
N242 C243 1.345 . S
N242 C245 1.336 . S
C243 N241 1.335 . S
C243 N242 1.345 . S
C243 H248 0.930 . S
C244 N241 1.390 . S
C244 C245 1.346 . S
C244 H249 0.930 . S
C245 N242 1.336 . S
C245 C244 1.346 . S
C245 H252 0.929 . S
C246 O236 1.282 . S
C246 O247 1.216 . S
O247 C246 1.216 . S
H248 C243 0.930 . S
H249 C244 0.930 . S
O250 Cu230 1.959 . S
O250 C237 1.251 . S
H251 C234 0.930 . S
H252 C245 0.929 . S
Cu253 N254 1.999 . S
Cu253 O259 1.974 . S
Cu253 N264 1.985 . S
Cu253 O273 1.959 . S
N254 Cu253 1.999 . S
N254 C256 1.263 . S
N254 C258 1.389 . S
N255 C256 1.358 . S
N255 C257 1.400 . S
C256 N254 1.263 . S
C256 N255 1.358 . S
C256 H262 0.930 . S
C257 N255 1.400 . S
C257 C258 1.351 . S
C257 H274 0.930 . S
C258 N254 1.389 . S
C258 C257 1.351 . S
C258 H263 0.930 . S
O259 Cu253 1.974 . S
O259 C269 1.282 . S
C260 O261 1.261 . S
C260 O273 1.251 . S
O261 C260 1.261 . S
H262 C256 0.930 . S
H263 C258 0.930 . S
N264 Cu253 1.985 . S
N264 C266 1.335 . S
N264 C267 1.390 . S
N265 C266 1.345 . S
N265 C268 1.336 . S
C266 N264 1.335 . S
C266 N265 1.345 . S
C266 H271 0.930 . S
C267 N264 1.390 . S
C267 C268 1.346 . S
C267 H272 0.930 . S
C268 N265 1.336 . S
C268 C267 1.346 . S
C268 H275 0.929 . S
C269 O259 1.282 . S
C269 O270 1.216 . S
O270 C269 1.216 . S
H271 C266 0.930 . S
H272 C267 0.930 . S
O273 Cu253 1.959 . S
O273 C260 1.251 . S
H274 C257 0.930 . S
H275 C268 0.929 . S
Tb276 C278 2.809 . S
Tb276 O296 2.484 . S
Tb276 O297 2.440 . S
Tb276 O298 2.658 . S
Tb276 O299 2.409 . S
Tb276 O300 2.378 . S
Tb276 O304 2.325 . S
Tb276 O307 2.341 . S
Tb277 C287 2.809 . S
Tb277 O298 2.325 . S
Tb277 O301 2.341 . S
Tb277 O302 2.484 . S
Tb277 O303 2.440 . S
Tb277 O304 2.658 . S
Tb277 O305 2.409 . S
Tb277 O306 2.378 . S
C278 Tb276 2.809 . S
C278 C279 1.514 . S
C278 O296 1.248 . S
C278 O297 1.266 . S
C279 C278 1.514 . S
C279 C280 1.359 . S
C279 C284 1.348 . S
C280 C279 1.359 . S
C280 C281 1.380 . S
C280 H308 0.929 . S
C281 C280 1.380 . S
C281 C282 1.347 . S
C281 H309 0.931 . S
C282 C281 1.347 . S
C282 C283 1.369 . S
C283 C282 1.369 . S
C283 C284 1.408 . S
C283 H310 0.930 . S
C284 C279 1.348 . S
C284 C283 1.408 . S
C284 H311 0.930 . S
C285 O298 1.281 . S
C285 O299 1.254 . S
C286 O300 1.236 . S
C286 O301 1.266 . S
C287 Tb277 2.809 . S
C287 C288 1.514 . S
C287 O302 1.248 . S
C287 O303 1.266 . S
C288 C287 1.514 . S
C288 C289 1.359 . S
C288 C293 1.348 . S
C289 C288 1.359 . S
C289 C290 1.380 . S
C289 H312 0.929 . S
C290 C289 1.380 . S
C290 C291 1.347 . S
C290 H313 0.931 . S
C291 C290 1.347 . S
C291 C292 1.369 . S
C292 C291 1.369 . S
C292 C293 1.408 . S
C292 H314 0.930 . S
C293 C288 1.348 . S
C293 C292 1.408 . S
C293 H315 0.930 . S
C294 O304 1.281 . S
C294 O305 1.254 . S
C295 O306 1.236 . S
C295 O307 1.266 . S
O296 Tb276 2.484 . S
O296 C278 1.248 . S
O297 Tb276 2.440 . S
O297 C278 1.266 . S
O298 Tb276 2.658 . S
O298 Tb277 2.325 . S
O298 C285 1.281 . S
O299 Tb276 2.409 . S
O299 C285 1.254 . S
O300 Tb276 2.378 . S
O300 C286 1.236 . S
O301 Tb277 2.341 . S
O301 C286 1.266 . S
O302 Tb277 2.484 . S
O302 C287 1.248 . S
O303 Tb277 2.440 . S
O303 C287 1.266 . S
O304 Tb276 2.325 . S
O304 Tb277 2.658 . S
O304 C294 1.281 . S
O305 Tb277 2.409 . S
O305 C294 1.254 . S
O306 Tb277 2.378 . S
O306 C295 1.236 . S
O307 Tb276 2.341 . S
O307 C295 1.266 . S
H308 C280 0.929 . S
H309 C281 0.931 . S
H310 C283 0.930 . S
H311 C284 0.930 . S
H312 C289 0.929 . S
H313 C290 0.931 . S
H314 C292 0.930 . S
H315 C293 0.930 . S
Tb316 C318 2.809 . S
Tb316 O336 2.484 . S
Tb316 O337 2.440 . S
Tb316 O338 2.658 . S
Tb316 O339 2.409 . S
Tb316 O340 2.378 . S
Tb316 O344 2.325 . S
Tb316 O347 2.341 . S
Tb317 C327 2.809 . S
Tb317 O338 2.325 . S
Tb317 O341 2.341 . S
Tb317 O342 2.484 . S
Tb317 O343 2.440 . S
Tb317 O344 2.658 . S
Tb317 O345 2.409 . S
Tb317 O346 2.378 . S
C318 Tb316 2.809 . S
C318 C319 1.514 . S
C318 O336 1.248 . S
C318 O337 1.266 . S
C319 C318 1.514 . S
C319 C320 1.359 . S
C319 C324 1.348 . S
C320 C319 1.359 . S
C320 C321 1.380 . S
C320 H348 0.929 . S
C321 C320 1.380 . S
C321 C322 1.347 . S
C321 H349 0.931 . S
C322 C321 1.347 . S
C322 C323 1.369 . S
C323 C322 1.369 . S
C323 C324 1.408 . S
C323 H350 0.930 . S
C324 C319 1.348 . S
C324 C323 1.408 . S
C324 H351 0.930 . S
C325 O338 1.281 . S
C325 O339 1.254 . S
C326 O340 1.236 . S
C326 O341 1.266 . S
C327 Tb317 2.809 . S
C327 C328 1.514 . S
C327 O342 1.248 . S
C327 O343 1.266 . S
C328 C327 1.514 . S
C328 C329 1.359 . S
C328 C333 1.348 . S
C329 C328 1.359 . S
C329 C330 1.380 . S
C329 H352 0.929 . S
C330 C329 1.380 . S
C330 C331 1.347 . S
C330 H353 0.931 . S
C331 C330 1.347 . S
C331 C332 1.369 . S
C332 C331 1.369 . S
C332 C333 1.408 . S
C332 H354 0.930 . S
C333 C328 1.348 . S
C333 C332 1.408 . S
C333 H355 0.930 . S
C334 O344 1.281 . S
C334 O345 1.254 . S
C335 O346 1.236 . S
C335 O347 1.266 . S
O336 Tb316 2.484 . S
O336 C318 1.248 . S
O337 Tb316 2.440 . S
O337 C318 1.266 . S
O338 Tb316 2.658 . S
O338 Tb317 2.325 . S
O338 C325 1.281 . S
O339 Tb316 2.409 . S
O339 C325 1.254 . S
O340 Tb316 2.378 . S
O340 C326 1.236 . S
O341 Tb317 2.341 . S
O341 C326 1.266 . S
O342 Tb317 2.484 . S
O342 C327 1.248 . S
O343 Tb317 2.440 . S
O343 C327 1.266 . S
O344 Tb316 2.325 . S
O344 Tb317 2.658 . S
O344 C334 1.281 . S
O345 Tb317 2.409 . S
O345 C334 1.254 . S
O346 Tb317 2.378 . S
O346 C335 1.236 . S
O347 Tb316 2.341 . S
O347 C335 1.266 . S
H348 C320 0.929 . S
H349 C321 0.931 . S
H350 C323 0.930 . S
H351 C324 0.930 . S
H352 C329 0.929 . S
H353 C330 0.931 . S
H354 C332 0.930 . S
H355 C333 0.930 . S
Tb356 C358 2.809 . S
Tb356 O376 2.484 . S
Tb356 O377 2.440 . S
Tb356 O378 2.658 . S
Tb356 O379 2.409 . S
Tb356 O380 2.378 . S
Tb356 O384 2.325 . S
Tb356 O387 2.341 . S
Tb357 C367 2.809 . S
Tb357 O378 2.325 . S
Tb357 O381 2.341 . S
Tb357 O382 2.484 . S
Tb357 O383 2.440 . S
Tb357 O384 2.658 . S
Tb357 O385 2.409 . S
Tb357 O386 2.378 . S
C358 Tb356 2.809 . S
C358 C359 1.514 . S
C358 O376 1.248 . S
C358 O377 1.266 . S
C359 C358 1.514 . S
C359 C360 1.359 . S
C359 C364 1.348 . S
C360 C359 1.359 . S
C360 C361 1.380 . S
C360 H388 0.929 . S
C361 C360 1.380 . S
C361 C362 1.347 . S
C361 H389 0.931 . S
C362 C361 1.347 . S
C362 C363 1.369 . S
C363 C362 1.369 . S
C363 C364 1.408 . S
C363 H390 0.930 . S
C364 C359 1.348 . S
C364 C363 1.408 . S
C364 H391 0.930 . S
C365 O378 1.281 . S
C365 O379 1.254 . S
C366 O380 1.236 . S
C366 O381 1.266 . S
C367 Tb357 2.809 . S
C367 C368 1.514 . S
C367 O382 1.248 . S
C367 O383 1.266 . S
C368 C367 1.514 . S
C368 C369 1.359 . S
C368 C373 1.348 . S
C369 C368 1.359 . S
C369 C370 1.380 . S
C369 H392 0.929 . S
C370 C369 1.380 . S
C370 C371 1.347 . S
C370 H393 0.931 . S
C371 C370 1.347 . S
C371 C372 1.369 . S
C372 C371 1.369 . S
C372 C373 1.408 . S
C372 H394 0.930 . S
C373 C368 1.348 . S
C373 C372 1.408 . S
C373 H395 0.930 . S
C374 O384 1.281 . S
C374 O385 1.254 . S
C375 O386 1.236 . S
C375 O387 1.266 . S
O376 Tb356 2.484 . S
O376 C358 1.248 . S
O377 Tb356 2.440 . S
O377 C358 1.266 . S
O378 Tb356 2.658 . S
O378 Tb357 2.325 . S
O378 C365 1.281 . S
O379 Tb356 2.409 . S
O379 C365 1.254 . S
O380 Tb356 2.378 . S
O380 C366 1.236 . S
O381 Tb357 2.341 . S
O381 C366 1.266 . S
O382 Tb357 2.484 . S
O382 C367 1.248 . S
O383 Tb357 2.440 . S
O383 C367 1.266 . S
O384 Tb356 2.325 . S
O384 Tb357 2.658 . S
O384 C374 1.281 . S
O385 Tb357 2.409 . S
O385 C374 1.254 . S
O386 Tb357 2.378 . S
O386 C375 1.236 . S
O387 Tb356 2.341 . S
O387 C375 1.266 . S
H388 C360 0.929 . S
H389 C361 0.931 . S
H390 C363 0.930 . S
H391 C364 0.930 . S
H392 C369 0.929 . S
H393 C370 0.931 . S
H394 C372 0.930 . S
H395 C373 0.930 . S
Tb396 C398 2.809 . S
Tb396 O416 2.484 . S
Tb396 O417 2.440 . S
Tb396 O418 2.658 . S
Tb396 O419 2.409 . S
Tb396 O420 2.378 . S
Tb396 O424 2.325 . S
Tb396 O427 2.341 . S
Tb397 C407 2.809 . S
Tb397 O418 2.325 . S
Tb397 O421 2.341 . S
Tb397 O422 2.484 . S
Tb397 O423 2.440 . S
Tb397 O424 2.658 . S
Tb397 O425 2.409 . S
Tb397 O426 2.378 . S
C398 Tb396 2.809 . S
C398 C399 1.514 . S
C398 O416 1.248 . S
C398 O417 1.266 . S
C399 C398 1.514 . S
C399 C400 1.359 . S
C399 C404 1.348 . S
C400 C399 1.359 . S
C400 C401 1.380 . S
C400 H428 0.929 . S
C401 C400 1.380 . S
C401 C402 1.347 . S
C401 H429 0.931 . S
C402 C401 1.347 . S
C402 C403 1.369 . S
C403 C402 1.369 . S
C403 C404 1.408 . S
C403 H430 0.930 . S
C404 C399 1.348 . S
C404 C403 1.408 . S
C404 H431 0.930 . S
C405 O418 1.281 . S
C405 O419 1.254 . S
C406 O420 1.236 . S
C406 O421 1.266 . S
C407 Tb397 2.809 . S
C407 C408 1.514 . S
C407 O422 1.248 . S
C407 O423 1.266 . S
C408 C407 1.514 . S
C408 C409 1.359 . S
C408 C413 1.348 . S
C409 C408 1.359 . S
C409 C410 1.380 . S
C409 H432 0.929 . S
C410 C409 1.380 . S
C410 C411 1.347 . S
C410 H433 0.931 . S
C411 C410 1.347 . S
C411 C412 1.369 . S
C412 C411 1.369 . S
C412 C413 1.408 . S
C412 H434 0.930 . S
C413 C408 1.348 . S
C413 C412 1.408 . S
C413 H435 0.930 . S
C414 O424 1.281 . S
C414 O425 1.254 . S
C415 O426 1.236 . S
C415 O427 1.266 . S
O416 Tb396 2.484 . S
O416 C398 1.248 . S
O417 Tb396 2.440 . S
O417 C398 1.266 . S
O418 Tb396 2.658 . S
O418 Tb397 2.325 . S
O418 C405 1.281 . S
O419 Tb396 2.409 . S
O419 C405 1.254 . S
O420 Tb396 2.378 . S
O420 C406 1.236 . S
O421 Tb397 2.341 . S
O421 C406 1.266 . S
O422 Tb397 2.484 . S
O422 C407 1.248 . S
O423 Tb397 2.440 . S
O423 C407 1.266 . S
O424 Tb396 2.325 . S
O424 Tb397 2.658 . S
O424 C414 1.281 . S
O425 Tb397 2.409 . S
O425 C414 1.254 . S
O426 Tb397 2.378 . S
O426 C415 1.236 . S
O427 Tb396 2.341 . S
O427 C415 1.266 . S
H428 C400 0.929 . S
H429 C401 0.931 . S
H430 C403 0.930 . S
H431 C404 0.930 . S
H432 C409 0.929 . S
H433 C410 0.931 . S
H434 C412 0.930 . S
H435 C413 0.930 . S
Tb436 C438 2.809 . S
Tb436 O456 2.484 . S
Tb436 O457 2.440 . S
Tb436 O458 2.658 . S
Tb436 O459 2.409 . S
Tb436 O460 2.378 . S
Tb436 O464 2.325 . S
Tb436 O467 2.341 . S
Tb437 C447 2.809 . S
Tb437 O458 2.325 . S
Tb437 O461 2.341 . S
Tb437 O462 2.484 . S
Tb437 O463 2.440 . S
Tb437 O464 2.658 . S
Tb437 O465 2.409 . S
Tb437 O466 2.378 . S
C438 Tb436 2.809 . S
C438 C439 1.514 . S
C438 O456 1.248 . S
C438 O457 1.266 . S
C439 C438 1.514 . S
C439 C440 1.359 . S
C439 C444 1.348 . S
C440 C439 1.359 . S
C440 C441 1.380 . S
C440 H468 0.929 . S
C441 C440 1.380 . S
C441 C442 1.347 . S
C441 H469 0.931 . S
C442 C441 1.347 . S
C442 C443 1.369 . S
C443 C442 1.369 . S
C443 C444 1.408 . S
C443 H470 0.930 . S
C444 C439 1.348 . S
C444 C443 1.408 . S
C444 H471 0.930 . S
C445 O458 1.281 . S
C445 O459 1.254 . S
C446 O460 1.236 . S
C446 O461 1.266 . S
C447 Tb437 2.809 . S
C447 C448 1.514 . S
C447 O462 1.248 . S
C447 O463 1.266 . S
C448 C447 1.514 . S
C448 C449 1.359 . S
C448 C453 1.348 . S
C449 C448 1.359 . S
C449 C450 1.380 . S
C449 H472 0.929 . S
C450 C449 1.380 . S
C450 C451 1.347 . S
C450 H473 0.931 . S
C451 C450 1.347 . S
C451 C452 1.369 . S
C452 C451 1.369 . S
C452 C453 1.408 . S
C452 H474 0.930 . S
C453 C448 1.348 . S
C453 C452 1.408 . S
C453 H475 0.930 . S
C454 O464 1.281 . S
C454 O465 1.254 . S
C455 O466 1.236 . S
C455 O467 1.266 . S
O456 Tb436 2.484 . S
O456 C438 1.248 . S
O457 Tb436 2.440 . S
O457 C438 1.266 . S
O458 Tb436 2.658 . S
O458 Tb437 2.325 . S
O458 C445 1.281 . S
O459 Tb436 2.409 . S
O459 C445 1.254 . S
O460 Tb436 2.378 . S
O460 C446 1.236 . S
O461 Tb437 2.341 . S
O461 C446 1.266 . S
O462 Tb437 2.484 . S
O462 C447 1.248 . S
O463 Tb437 2.440 . S
O463 C447 1.266 . S
O464 Tb436 2.325 . S
O464 Tb437 2.658 . S
O464 C454 1.281 . S
O465 Tb437 2.409 . S
O465 C454 1.254 . S
O466 Tb437 2.378 . S
O466 C455 1.236 . S
O467 Tb436 2.341 . S
O467 C455 1.266 . S
H468 C440 0.929 . S
H469 C441 0.931 . S
H470 C443 0.930 . S
H471 C444 0.930 . S
H472 C449 0.929 . S
H473 C450 0.931 . S
H474 C452 0.930 . S
H475 C453 0.930 . S
Tb476 C478 2.809 . S
Tb476 O496 2.484 . S
Tb476 O497 2.440 . S
Tb476 O498 2.658 . S
Tb476 O499 2.409 . S
Tb476 O500 2.378 . S
Tb476 O504 2.325 . S
Tb476 O507 2.341 . S
Tb477 C487 2.809 . S
Tb477 O498 2.325 . S
Tb477 O501 2.341 . S
Tb477 O502 2.484 . S
Tb477 O503 2.440 . S
Tb477 O504 2.658 . S
Tb477 O505 2.409 . S
Tb477 O506 2.378 . S
C478 Tb476 2.809 . S
C478 C479 1.514 . S
C478 O496 1.248 . S
C478 O497 1.266 . S
C479 C478 1.514 . S
C479 C480 1.359 . S
C479 C484 1.348 . S
C480 C479 1.359 . S
C480 C481 1.380 . S
C480 H508 0.929 . S
C481 C480 1.380 . S
C481 C482 1.347 . S
C481 H509 0.931 . S
C482 C481 1.347 . S
C482 C483 1.369 . S
C483 C482 1.369 . S
C483 C484 1.408 . S
C483 H510 0.930 . S
C484 C479 1.348 . S
C484 C483 1.408 . S
C484 H511 0.930 . S
C485 O498 1.281 . S
C485 O499 1.254 . S
C486 O500 1.236 . S
C486 O501 1.266 . S
C487 Tb477 2.809 . S
C487 C488 1.514 . S
C487 O502 1.248 . S
C487 O503 1.266 . S
C488 C487 1.514 . S
C488 C489 1.359 . S
C488 C493 1.348 . S
C489 C488 1.359 . S
C489 C490 1.380 . S
C489 H512 0.929 . S
C490 C489 1.380 . S
C490 C491 1.347 . S
C490 H513 0.931 . S
C491 C490 1.347 . S
C491 C492 1.369 . S
C492 C491 1.369 . S
C492 C493 1.408 . S
C492 H514 0.930 . S
C493 C488 1.348 . S
C493 C492 1.408 . S
C493 H515 0.930 . S
C494 O504 1.281 . S
C494 O505 1.254 . S
C495 O506 1.236 . S
C495 O507 1.266 . S
O496 Tb476 2.484 . S
O496 C478 1.248 . S
O497 Tb476 2.440 . S
O497 C478 1.266 . S
O498 Tb476 2.658 . S
O498 Tb477 2.325 . S
O498 C485 1.281 . S
O499 Tb476 2.409 . S
O499 C485 1.254 . S
O500 Tb476 2.378 . S
O500 C486 1.236 . S
O501 Tb477 2.341 . S
O501 C486 1.266 . S
O502 Tb477 2.484 . S
O502 C487 1.248 . S
O503 Tb477 2.440 . S
O503 C487 1.266 . S
O504 Tb476 2.325 . S
O504 Tb477 2.658 . S
O504 C494 1.281 . S
O505 Tb477 2.409 . S
O505 C494 1.254 . S
O506 Tb477 2.378 . S
O506 C495 1.236 . S
O507 Tb476 2.341 . S
O507 C495 1.266 . S
H508 C480 0.929 . S
H509 C481 0.931 . S
H510 C483 0.930 . S
H511 C484 0.930 . S
H512 C489 0.929 . S
H513 C490 0.931 . S
H514 C492 0.930 . S
H515 C493 0.930 . S
Tb516 C518 2.809 . S
Tb516 O536 2.484 . S
Tb516 O537 2.440 . S
Tb516 O538 2.658 . S
Tb516 O539 2.409 . S
Tb516 O540 2.378 . S
Tb516 O544 2.325 . S
Tb516 O547 2.341 . S
Tb517 C527 2.809 . S
Tb517 O538 2.325 . S
Tb517 O541 2.341 . S
Tb517 O542 2.484 . S
Tb517 O543 2.440 . S
Tb517 O544 2.658 . S
Tb517 O545 2.409 . S
Tb517 O546 2.378 . S
C518 Tb516 2.809 . S
C518 C519 1.514 . S
C518 O536 1.248 . S
C518 O537 1.266 . S
C519 C518 1.514 . S
C519 C520 1.359 . S
C519 C524 1.348 . S
C520 C519 1.359 . S
C520 C521 1.380 . S
C520 H548 0.929 . S
C521 C520 1.380 . S
C521 C522 1.347 . S
C521 H549 0.931 . S
C522 C521 1.347 . S
C522 C523 1.369 . S
C523 C522 1.369 . S
C523 C524 1.408 . S
C523 H550 0.930 . S
C524 C519 1.348 . S
C524 C523 1.408 . S
C524 H551 0.930 . S
C525 O538 1.281 . S
C525 O539 1.254 . S
C526 O540 1.236 . S
C526 O541 1.266 . S
C527 Tb517 2.809 . S
C527 C528 1.514 . S
C527 O542 1.248 . S
C527 O543 1.266 . S
C528 C527 1.514 . S
C528 C529 1.359 . S
C528 C533 1.348 . S
C529 C528 1.359 . S
C529 C530 1.380 . S
C529 H552 0.929 . S
C530 C529 1.380 . S
C530 C531 1.347 . S
C530 H553 0.931 . S
C531 C530 1.347 . S
C531 C532 1.369 . S
C532 C531 1.369 . S
C532 C533 1.408 . S
C532 H554 0.930 . S
C533 C528 1.348 . S
C533 C532 1.408 . S
C533 H555 0.930 . S
C534 O544 1.281 . S
C534 O545 1.254 . S
C535 O546 1.236 . S
C535 O547 1.266 . S
O536 Tb516 2.484 . S
O536 C518 1.248 . S
O537 Tb516 2.440 . S
O537 C518 1.266 . S
O538 Tb516 2.658 . S
O538 Tb517 2.325 . S
O538 C525 1.281 . S
O539 Tb516 2.409 . S
O539 C525 1.254 . S
O540 Tb516 2.378 . S
O540 C526 1.236 . S
O541 Tb517 2.341 . S
O541 C526 1.266 . S
O542 Tb517 2.484 . S
O542 C527 1.248 . S
O543 Tb517 2.440 . S
O543 C527 1.266 . S
O544 Tb516 2.325 . S
O544 Tb517 2.658 . S
O544 C534 1.281 . S
O545 Tb517 2.409 . S
O545 C534 1.254 . S
O546 Tb517 2.378 . S
O546 C535 1.236 . S
O547 Tb516 2.341 . S
O547 C535 1.266 . S
H548 C520 0.929 . S
H549 C521 0.931 . S
H550 C523 0.930 . S
H551 C524 0.930 . S
H552 C529 0.929 . S
H553 C530 0.931 . S
H554 C532 0.930 . S
H555 C533 0.930 . S
Tb556 C558 2.809 . S
Tb556 O576 2.484 . S
Tb556 O577 2.440 . S
Tb556 O578 2.658 . S
Tb556 O579 2.409 . S
Tb556 O580 2.378 . S
Tb556 O584 2.325 . S
Tb556 O587 2.341 . S
Tb557 C567 2.809 . S
Tb557 O578 2.325 . S
Tb557 O581 2.341 . S
Tb557 O582 2.484 . S
Tb557 O583 2.440 . S
Tb557 O584 2.658 . S
Tb557 O585 2.409 . S
Tb557 O586 2.378 . S
C558 Tb556 2.809 . S
C558 C559 1.514 . S
C558 O576 1.248 . S
C558 O577 1.266 . S
C559 C558 1.514 . S
C559 C560 1.359 . S
C559 C564 1.348 . S
C560 C559 1.359 . S
C560 C561 1.380 . S
C560 H588 0.929 . S
C561 C560 1.380 . S
C561 C562 1.347 . S
C561 H589 0.931 . S
C562 C561 1.347 . S
C562 C563 1.369 . S
C563 C562 1.369 . S
C563 C564 1.408 . S
C563 H590 0.930 . S
C564 C559 1.348 . S
C564 C563 1.408 . S
C564 H591 0.930 . S
C565 O578 1.281 . S
C565 O579 1.254 . S
C566 O580 1.236 . S
C566 O581 1.266 . S
C567 Tb557 2.809 . S
C567 C568 1.514 . S
C567 O582 1.248 . S
C567 O583 1.266 . S
C568 C567 1.514 . S
C568 C569 1.359 . S
C568 C573 1.348 . S
C569 C568 1.359 . S
C569 C570 1.380 . S
C569 H592 0.929 . S
C570 C569 1.380 . S
C570 C571 1.347 . S
C570 H593 0.931 . S
C571 C570 1.347 . S
C571 C572 1.369 . S
C572 C571 1.369 . S
C572 C573 1.408 . S
C572 H594 0.930 . S
C573 C568 1.348 . S
C573 C572 1.408 . S
C573 H595 0.930 . S
C574 O584 1.281 . S
C574 O585 1.254 . S
C575 O586 1.236 . S
C575 O587 1.266 . S
O576 Tb556 2.484 . S
O576 C558 1.248 . S
O577 Tb556 2.440 . S
O577 C558 1.266 . S
O578 Tb556 2.658 . S
O578 Tb557 2.325 . S
O578 C565 1.281 . S
O579 Tb556 2.409 . S
O579 C565 1.254 . S
O580 Tb556 2.378 . S
O580 C566 1.236 . S
O581 Tb557 2.341 . S
O581 C566 1.266 . S
O582 Tb557 2.484 . S
O582 C567 1.248 . S
O583 Tb557 2.440 . S
O583 C567 1.266 . S
O584 Tb556 2.325 . S
O584 Tb557 2.658 . S
O584 C574 1.281 . S
O585 Tb557 2.409 . S
O585 C574 1.254 . S
O586 Tb557 2.378 . S
O586 C575 1.236 . S
O587 Tb556 2.341 . S
O587 C575 1.266 . S
H588 C560 0.929 . S
H589 C561 0.931 . S
H590 C563 0.930 . S
H591 C564 0.930 . S
H592 C569 0.929 . S
H593 C570 0.931 . S
H594 C572 0.930 . S
H595 C573 0.930 . S
H596 C604 0.950 . S
H597 C609 0.950 . S
H598 C606 0.950 . S
H599 C608 0.950 . S
H600 C610 0.950 . S
H601 C612 0.950 . S
H602 C614 0.950 . S
H603 C615 0.950 . S
C604 H596 0.950 . S
C604 C605 1.386 . S
C604 C606 1.391 . S
C605 C604 1.386 . S
C605 C609 1.393 . S
C606 H598 0.950 . S
C606 C604 1.391 . S
C606 C607 1.400 . S
C607 C606 1.400 . S
C607 C608 1.398 . S
C607 C613 1.491 . S
C608 H599 0.950 . S
C608 C607 1.398 . S
C608 C609 1.391 . S
C609 H597 0.950 . S
C609 C605 1.393 . S
C609 C608 1.391 . S
C610 H600 0.950 . S
C610 C611 1.386 . S
C610 C612 1.391 . S
C611 C610 1.386 . S
C611 C615 1.393 . S
C612 H601 0.950 . S
C612 C610 1.391 . S
C612 C613 1.400 . S
C613 C607 1.491 . S
C613 C612 1.400 . S
C613 C614 1.398 . S
C614 H602 0.950 . S
C614 C613 1.398 . S
C614 C615 1.391 . S
C615 H603 0.950 . S
C615 C611 1.393 . S
C615 C614 1.391 . S
H616 C624 0.950 . S
H617 C629 0.950 . S
H618 C626 0.950 . S
H619 C628 0.950 . S
H620 C630 0.950 . S
H621 C632 0.950 . S
H622 C634 0.950 . S
H623 C635 0.950 . S
C624 H616 0.950 . S
C624 C625 1.386 . S
C624 C626 1.391 . S
C625 C624 1.386 . S
C625 C629 1.393 . S
C626 H618 0.950 . S
C626 C624 1.391 . S
C626 C627 1.400 . S
C627 C626 1.400 . S
C627 C628 1.398 . S
C627 C633 1.491 . S
C628 H619 0.950 . S
C628 C627 1.398 . S
C628 C629 1.391 . S
C629 H617 0.950 . S
C629 C625 1.393 . S
C629 C628 1.391 . S
C630 H620 0.950 . S
C630 C631 1.386 . S
C630 C632 1.391 . S
C631 C630 1.386 . S
C631 C635 1.393 . S
C632 H621 0.950 . S
C632 C630 1.391 . S
C632 C633 1.400 . S
C633 C627 1.491 . S
C633 C632 1.400 . S
C633 C634 1.398 . S
C634 H622 0.950 . S
C634 C633 1.398 . S
C634 C635 1.391 . S
C635 H623 0.950 . S
C635 C631 1.393 . S
C635 C634 1.391 . S
H636 C644 0.950 . S
H637 C649 0.940 1_545 S
H638 C646 0.950 . S
H639 C648 0.950 . S
H640 C650 0.950 . S
H641 C652 0.950 . S
H642 C654 0.950 . S
H643 C655 0.950 . S
C644 H636 0.950 . S
C644 C645 1.386 1_565 S
C644 C646 1.391 . S
C645 C644 1.386 1_545 S
C645 C649 1.373 1_545 S
C646 H638 0.950 . S
C646 C644 1.391 . S
C646 C647 1.400 . S
C647 C646 1.400 . S
C647 C648 1.398 . S
C647 C653 1.491 . S
C648 H639 0.950 . S
C648 C647 1.398 . S
C648 C649 1.421 . S
C649 H637 0.940 1_565 S
C649 C645 1.373 1_565 S
C649 C648 1.421 . S
C650 H640 0.950 . S
C650 C651 1.386 . S
C650 C652 1.391 . S
C651 C650 1.386 . S
C651 C655 1.393 . S
C652 H641 0.950 . S
C652 C650 1.391 . S
C652 C653 1.400 . S
C653 C647 1.491 . S
C653 C652 1.400 . S
C653 C654 1.398 . S
C654 H642 0.950 . S
C654 C653 1.398 . S
C654 C655 1.391 . S
C655 H643 0.950 . S
C655 C651 1.393 . S
C655 C654 1.391 . S
H656 C664 0.950 . S
H657 C669 0.950 1_545 S
H658 C666 0.950 . S
H659 C668 0.950 . S
H660 C670 0.950 . S
H661 C672 0.950 . S
H662 C674 0.950 . S
H663 C675 0.950 . S
C664 H656 0.950 . S
C664 C665 1.386 . S
C664 C666 1.391 . S
C665 C664 1.386 . S
C665 C669 1.393 . S
C666 H658 0.950 . S
C666 C664 1.391 . S
C666 C667 1.400 . S
C667 C666 1.400 . S
C667 C668 1.398 . S
C667 C673 1.491 . S
C668 H659 0.950 . S
C668 C667 1.398 . S
C668 C669 1.391 . S
C669 H657 0.950 1_565 S
C669 C665 1.393 . S
C669 C668 1.391 . S
C670 H660 0.950 . S
C670 C671 1.386 . S
C670 C672 1.391 . S
C671 C670 1.386 . S
C671 C675 1.393 . S
C672 H661 0.950 . S
C672 C670 1.391 . S
C672 C673 1.400 . S
C673 C667 1.491 . S
C673 C672 1.400 . S
C673 C674 1.398 . S
C674 H662 0.950 . S
C674 C673 1.398 . S
C674 C675 1.391 . S
C675 H663 0.950 . S
C675 C671 1.393 . S
C675 C674 1.391 . S
H676 C684 0.950 . S
H677 C689 0.950 . S
H678 C686 0.950 . S
H679 C688 0.950 . S
H680 C690 0.950 . S
H681 C692 0.950 . S
H682 C694 0.950 . S
H683 C695 0.950 . S
C684 H676 0.950 . S
C684 C685 1.386 . S
C684 C686 1.391 . S
C685 C684 1.386 . S
C685 C689 1.393 . S
C686 H678 0.950 . S
C686 C684 1.391 . S
C686 C687 1.400 . S
C687 C686 1.400 . S
C687 C688 1.398 . S
C687 C693 1.491 . S
C688 H679 0.950 . S
C688 C687 1.398 . S
C688 C689 1.391 . S
C689 H677 0.950 . S
C689 C685 1.393 . S
C689 C688 1.391 . S
C690 H680 0.950 . S
C690 C691 1.386 . S
C690 C692 1.391 . S
C691 C690 1.386 . S
C691 C695 1.393 . S
C692 H681 0.950 . S
C692 C690 1.391 . S
C692 C693 1.400 . S
C693 C687 1.491 . S
C693 C692 1.400 . S
C693 C694 1.398 . S
C694 H682 0.950 . S
C694 C693 1.398 . S
C694 C695 1.391 . S
C695 H683 0.950 . S
C695 C691 1.393 . S
C695 C694 1.391 . S
H696 C704 0.950 . S
H697 C709 0.950 . S
H698 C706 0.950 . S
H699 C708 0.950 . S
H700 C710 0.950 . S
H701 C712 0.950 . S
H702 C714 0.950 . S
H703 C715 0.950 . S
C704 H696 0.950 . S
C704 C705 1.386 . S
C704 C706 1.391 . S
C705 C704 1.386 . S
C705 C709 1.393 . S
C706 H698 0.950 . S
C706 C704 1.391 . S
C706 C707 1.400 . S
C707 C706 1.400 . S
C707 C708 1.398 . S
C707 C713 1.491 . S
C708 H699 0.950 . S
C708 C707 1.398 . S
C708 C709 1.391 . S
C709 H697 0.950 . S
C709 C705 1.393 . S
C709 C708 1.391 . S
C710 H700 0.950 . S
C710 C711 1.386 . S
C710 C712 1.391 . S
C711 C710 1.386 . S
C711 C715 1.393 . S
C712 H701 0.950 . S
C712 C710 1.391 . S
C712 C713 1.400 . S
C713 C707 1.491 . S
C713 C712 1.400 . S
C713 C714 1.398 . S
C714 H702 0.950 . S
C714 C713 1.398 . S
C714 C715 1.391 . S
C715 H703 0.950 . S
C715 C711 1.393 . S
C715 C714 1.391 . S
H716 C724 0.950 . S
H717 C729 0.950 . S
H718 C726 0.950 . S
H719 C728 0.950 . S
H720 C730 0.950 . S
H721 C732 0.950 . S
H722 C734 0.950 . S
H723 C735 0.950 . S
C724 H716 0.950 . S
C724 C725 1.386 . S
C724 C726 1.391 . S
C725 C724 1.386 . S
C725 C729 1.393 . S
C726 H718 0.950 . S
C726 C724 1.391 . S
C726 C727 1.400 . S
C727 C726 1.400 . S
C727 C728 1.398 . S
C727 C733 1.491 . S
C728 H719 0.950 . S
C728 C727 1.398 . S
C728 C729 1.391 . S
C729 H717 0.950 . S
C729 C725 1.393 . S
C729 C728 1.391 . S
C730 H720 0.950 . S
C730 C731 1.386 . S
C730 C732 1.391 . S
C731 C730 1.386 . S
C731 C735 1.393 . S
C732 H721 0.950 . S
C732 C730 1.391 . S
C732 C733 1.400 . S
C733 C727 1.491 . S
C733 C732 1.400 . S
C733 C734 1.398 . S
C734 H722 0.950 . S
C734 C733 1.398 . S
C734 C735 1.391 . S
C735 H723 0.950 . S
C735 C731 1.393 . S
C735 C734 1.391 . S
H736 C744 0.950 . S
H737 C749 0.950 . S
H738 C746 0.950 . S
H739 C748 0.950 1_545 S
H740 C750 0.950 . S
H741 C752 0.950 . S
H742 C754 0.950 . S
H743 C755 0.950 . S
C744 H736 0.950 . S
C744 C745 1.386 1_565 S
C744 C746 1.391 . S
C745 C744 1.386 1_545 S
C745 C749 1.393 . S
C746 H738 0.950 . S
C746 C744 1.391 . S
C746 C747 1.400 . S
C747 C746 1.400 . S
C747 C748 1.398 . S
C747 C753 1.491 . S
C748 H739 0.950 1_565 S
C748 C747 1.398 . S
C748 C749 1.391 1_565 S
C749 H737 0.950 . S
C749 C745 1.393 . S
C749 C748 1.391 1_545 S
C750 H740 0.950 . S
C750 C751 1.386 . S
C750 C752 1.391 . S
C751 C750 1.386 . S
C751 C755 1.393 . S
C752 H741 0.950 . S
C752 C750 1.391 . S
C752 C753 1.400 . S
C753 C747 1.491 . S
C753 C752 1.400 . S
C753 C754 1.398 . S
C754 H742 0.950 . S
C754 C753 1.398 . S
C754 C755 1.391 . S
C755 H743 0.950 . S
C755 C751 1.393 . S
C755 C754 1.391 . S
H756 C764 0.950 . S
H757 C769 0.950 . S
H758 C766 0.950 . S
H759 C768 0.950 . S
H760 C770 0.950 . S
H761 C772 0.950 . S
H762 C774 0.950 . S
H763 C775 0.950 . S
C764 H756 0.950 . S
C764 C765 1.386 . S
C764 C766 1.391 . S
C765 C764 1.386 . S
C765 C769 1.393 . S
C766 H758 0.950 . S
C766 C764 1.391 . S
C766 C767 1.400 . S
C767 C766 1.400 . S
C767 C768 1.398 . S
C767 C773 1.491 . S
C768 H759 0.950 . S
C768 C767 1.398 . S
C768 C769 1.391 . S
C769 H757 0.950 . S
C769 C765 1.393 . S
C769 C768 1.391 . S
C770 H760 0.950 . S
C770 C771 1.386 . S
C770 C772 1.391 . S
C771 C770 1.386 . S
C771 C775 1.393 . S
C772 H761 0.950 . S
C772 C770 1.391 . S
C772 C773 1.400 . S
C773 C767 1.491 . S
C773 C772 1.400 . S
C773 C774 1.398 . S
C774 H762 0.950 . S
C774 C773 1.398 . S
C774 C775 1.391 . S
C775 H763 0.950 . S
C775 C771 1.393 . S
C775 C774 1.391 . S
H776 C784 0.950 . S
H777 C789 0.950 . S
H778 C786 0.950 . S
H779 C788 0.950 . S
H780 C790 0.950 . S
H781 C792 0.950 . S
H782 C794 0.950 . S
H783 C795 0.950 . S
C784 H776 0.950 . S
C784 C785 1.386 . S
C784 C786 1.391 . S
C785 C784 1.386 . S
C785 C789 1.393 . S
C786 H778 0.950 . S
C786 C784 1.391 . S
C786 C787 1.400 . S
C787 C786 1.400 . S
C787 C788 1.398 . S
C787 C793 1.491 . S
C788 H779 0.950 . S
C788 C787 1.398 . S
C788 C789 1.391 . S
C789 H777 0.950 . S
C789 C785 1.393 . S
C789 C788 1.391 . S
C790 H780 0.950 . S
C790 C791 1.386 . S
C790 C792 1.391 . S
C791 C790 1.386 . S
C791 C795 1.393 . S
C792 H781 0.950 . S
C792 C790 1.391 . S
C792 C793 1.400 . S
C793 C787 1.491 . S
C793 C792 1.400 . S
C793 C794 1.398 . S
C794 H782 0.950 . S
C794 C793 1.398 . S
C794 C795 1.391 . S
C795 H783 0.950 . S
C795 C791 1.393 . S
C795 C794 1.391 . S
H796 C804 0.950 . S
H797 C809 0.950 . S
H798 C806 0.950 . S
H799 C808 0.950 . S
H800 C810 0.950 . S
H801 C812 0.950 . S
H802 C814 0.950 . S
H803 C815 0.950 . S
C804 H796 0.950 . S
C804 C805 1.386 . S
C804 C806 1.391 . S
C805 C804 1.386 . S
C805 C809 1.393 . S
C806 H798 0.950 . S
C806 C804 1.391 . S
C806 C807 1.400 . S
C807 C806 1.400 . S
C807 C808 1.398 . S
C807 C813 1.491 . S
C808 H799 0.950 . S
C808 C807 1.398 . S
C808 C809 1.391 . S
C809 H797 0.950 . S
C809 C805 1.393 . S
C809 C808 1.391 . S
C810 H800 0.950 . S
C810 C811 1.386 . S
C810 C812 1.391 . S
C811 C810 1.386 . S
C811 C815 1.393 . S
C812 H801 0.950 . S
C812 C810 1.391 . S
C812 C813 1.400 . S
C813 C807 1.491 . S
C813 C812 1.400 . S
C813 C814 1.398 . S
C814 H802 0.950 . S
C814 C813 1.398 . S
C814 C815 1.391 . S
C815 H803 0.950 . S
C815 C811 1.393 . S
C815 C814 1.391 . S
H816 C824 0.950 . S
H817 C829 0.950 . S
H818 C826 0.950 . S
H819 C828 0.950 . S
H820 C830 0.950 . S
H821 C832 0.950 . S
H822 C834 0.950 . S
H823 C835 0.950 . S
C824 H816 0.950 . S
C824 C825 1.386 . S
C824 C826 1.391 . S
C825 C824 1.386 . S
C825 C829 1.393 . S
C826 H818 0.950 . S
C826 C824 1.391 . S
C826 C827 1.400 . S
C827 C826 1.400 . S
C827 C828 1.398 . S
C827 C833 1.491 . S
C828 H819 0.950 . S
C828 C827 1.398 . S
C828 C829 1.391 . S
C829 H817 0.950 . S
C829 C825 1.393 . S
C829 C828 1.391 . S
C830 H820 0.950 . S
C830 C831 1.386 . S
C830 C832 1.391 . S
C831 C830 1.386 . S
C831 C835 1.393 . S
C832 H821 0.950 . S
C832 C830 1.391 . S
C832 C833 1.400 . S
C833 C827 1.491 . S
C833 C832 1.400 . S
C833 C834 1.398 . S
C834 H822 0.950 . S
C834 C833 1.398 . S
C834 C835 1.391 . S
C835 H823 0.950 . S
C835 C831 1.393 . S
C835 C834 1.391 . S
H836 C844 0.950 . S
H837 C849 0.950 . S
H838 C846 0.950 . S
H839 C848 0.950 . S
H840 C850 0.950 . S
H841 C852 0.950 . S
H842 C854 0.950 . S
H843 C855 0.950 . S
C844 H836 0.950 . S
C844 C845 1.386 . S
C844 C846 1.391 1_545 S
C845 C844 1.386 . S
C845 C849 1.393 . S
C846 H838 0.950 . S
C846 C844 1.391 1_565 S
C846 C847 1.400 . S
C847 C846 1.400 . S
C847 C848 1.398 1_565 S
C847 C853 1.491 . S
C848 H839 0.950 . S
C848 C847 1.398 1_545 S
C848 C849 1.391 . S
C849 H837 0.950 . S
C849 C845 1.393 . S
C849 C848 1.391 . S
C850 H840 0.950 . S
C850 C851 1.386 . S
C850 C852 1.391 . S
C851 C850 1.386 . S
C851 C855 1.393 . S
C852 H841 0.950 . S
C852 C850 1.391 . S
C852 C853 1.400 . S
C853 C847 1.491 . S
C853 C852 1.400 . S
C853 C854 1.398 . S
C854 H842 0.950 . S
C854 C853 1.398 . S
C854 C855 1.391 . S
C855 H843 0.950 . S
C855 C851 1.393 . S
C855 C854 1.391 . S
H856 C864 0.950 . S
H857 C869 0.950 . S
H858 C866 0.950 . S
H859 C868 0.950 . S
H860 C870 0.950 . S
H861 C872 0.950 . S
H862 C874 0.950 . S
H863 C875 0.950 . S
C864 H856 0.950 . S
C864 C865 1.386 . S
C864 C866 1.391 . S
C865 C864 1.386 . S
C865 C869 1.393 . S
C866 H858 0.950 . S
C866 C864 1.391 . S
C866 C867 1.400 . S
C867 C866 1.400 . S
C867 C868 1.398 . S
C867 C873 1.491 . S
C868 H859 0.950 . S
C868 C867 1.398 . S
C868 C869 1.391 . S
C869 H857 0.950 . S
C869 C865 1.393 . S
C869 C868 1.391 . S
C870 H860 0.950 . S
C870 C871 1.386 . S
C870 C872 1.391 . S
C871 C870 1.386 . S
C871 C875 1.393 . S
C872 H861 0.950 . S
C872 C870 1.391 . S
C872 C873 1.400 . S
C873 C867 1.491 . S
C873 C872 1.400 . S
C873 C874 1.398 . S
C874 H862 0.950 . S
C874 C873 1.398 . S
C874 C875 1.391 . S
C875 H863 0.950 . S
C875 C871 1.393 . S
C875 C874 1.391 . S
H876 C884 0.950 . S
H877 C889 0.950 . S
H878 C886 0.950 . S
H879 C888 0.950 . S
H880 C890 0.950 . S
H881 C892 0.950 . S
H882 C894 0.950 . S
H883 C895 0.950 . S
C884 H876 0.950 . S
C884 C885 1.386 . S
C884 C886 1.391 . S
C885 C884 1.386 . S
C885 C889 1.393 . S
C886 H878 0.950 . S
C886 C884 1.391 . S
C886 C887 1.400 . S
C887 C886 1.400 . S
C887 C888 1.398 . S
C887 C893 1.491 . S
C888 H879 0.950 . S
C888 C887 1.398 . S
C888 C889 1.391 . S
C889 H877 0.950 . S
C889 C885 1.393 . S
C889 C888 1.391 . S
C890 H880 0.950 . S
C890 C891 1.386 . S
C890 C892 1.391 . S
C891 C890 1.386 . S
C891 C895 1.393 . S
C892 H881 0.950 . S
C892 C890 1.391 . S
C892 C893 1.400 . S
C893 C887 1.491 . S
C893 C892 1.400 . S
C893 C894 1.398 . S
C894 H882 0.950 . S
C894 C893 1.398 . S
C894 C895 1.391 . S
C895 H883 0.950 . S
C895 C891 1.393 . S
C895 C894 1.391 . S
H896 C904 0.950 . S
H897 C909 0.950 . S
H898 C906 0.950 . S
H899 C908 0.950 . S
H900 C910 0.950 . S
H901 C912 0.950 . S
H902 C914 0.950 . S
H903 C915 0.950 . S
C904 H896 0.950 . S
C904 C905 1.386 . S
C904 C906 1.391 . S
C905 C904 1.386 . S
C905 C909 1.393 . S
C906 H898 0.950 . S
C906 C904 1.391 . S
C906 C907 1.400 . S
C907 C906 1.400 . S
C907 C908 1.398 . S
C907 C913 1.491 . S
C908 H899 0.950 . S
C908 C907 1.398 . S
C908 C909 1.391 . S
C909 H897 0.950 . S
C909 C905 1.393 . S
C909 C908 1.391 . S
C910 H900 0.950 . S
C910 C911 1.386 . S
C910 C912 1.391 . S
C911 C910 1.386 . S
C911 C915 1.393 . S
C912 H901 0.950 . S
C912 C910 1.391 . S
C912 C913 1.400 . S
C913 C907 1.491 . S
C913 C912 1.400 . S
C913 C914 1.398 . S
C914 H902 0.950 . S
C914 C913 1.398 . S
C914 C915 1.391 . S
C915 H903 0.950 . S
C915 C911 1.393 . S
C915 C914 1.391 . S
H916 C924 0.950 . S
H917 C929 0.950 . S
H918 C926 0.950 . S
H919 C928 0.950 . S
H920 C930 0.950 . S
H921 C932 0.950 . S
H922 C934 0.950 . S
H923 C935 0.950 . S
C924 H916 0.950 . S
C924 C925 1.386 . S
C924 C926 1.391 . S
C925 C924 1.386 . S
C925 C929 1.393 . S
C926 H918 0.950 . S
C926 C924 1.391 . S
C926 C927 1.400 . S
C927 C926 1.400 . S
C927 C928 1.398 . S
C927 C933 1.491 . S
C928 H919 0.950 . S
C928 C927 1.398 . S
C928 C929 1.391 . S
C929 H917 0.950 . S
C929 C925 1.393 . S
C929 C928 1.391 . S
C930 H920 0.950 . S
C930 C931 1.386 . S
C930 C932 1.391 . S
C931 C930 1.386 . S
C931 C935 1.393 . S
C932 H921 0.950 . S
C932 C930 1.391 . S
C932 C933 1.400 . S
C933 C927 1.491 . S
C933 C932 1.400 . S
C933 C934 1.398 . S
C934 H922 0.950 . S
C934 C933 1.398 . S
C934 C935 1.391 . S
C935 H923 0.950 . S
C935 C931 1.393 . S
C935 C934 1.391 . S
H936 C944 0.950 . S
H937 C949 0.950 . S
H938 C946 0.950 . S
H939 C948 0.950 . S
H940 C950 0.950 . S
H941 C952 0.950 . S
H942 C954 0.950 . S
H943 C955 0.950 . S
C944 H936 0.950 . S
C944 C945 1.386 . S
C944 C946 1.391 . S
C945 C944 1.386 . S
C945 C949 1.393 . S
C946 H938 0.950 . S
C946 C944 1.391 . S
C946 C947 1.400 . S
C947 C946 1.400 . S
C947 C948 1.398 . S
C947 C953 1.491 . S
C948 H939 0.950 . S
C948 C947 1.398 . S
C948 C949 1.391 . S
C949 H937 0.950 . S
C949 C945 1.393 . S
C949 C948 1.391 . S
C950 H940 0.950 . S
C950 C951 1.386 . S
C950 C952 1.391 . S
C951 C950 1.386 . S
C951 C955 1.393 . S
C952 H941 0.950 . S
C952 C950 1.391 . S
C952 C953 1.400 . S
C953 C947 1.491 . S
C953 C952 1.400 . S
C953 C954 1.398 . S
C954 H942 0.950 . S
C954 C953 1.398 . S
C954 C955 1.391 . S
C955 H943 0.950 . S
C955 C951 1.393 . S
C955 C954 1.391 . S
H956 C964 0.950 . S
H957 C969 0.950 . S
H958 C966 0.950 . S
H959 C968 0.950 . S
H960 C970 0.950 . S
H961 C972 0.950 . S
H962 C974 0.950 . S
H963 C975 0.950 . S
C964 H956 0.950 . S
C964 C965 1.386 . S
C964 C966 1.391 . S
C965 C964 1.386 . S
C965 C969 1.393 . S
C966 H958 0.950 . S
C966 C964 1.391 . S
C966 C967 1.400 . S
C967 C966 1.400 . S
C967 C968 1.398 . S
C967 C973 1.491 . S
C968 H959 0.950 . S
C968 C967 1.398 . S
C968 C969 1.391 . S
C969 H957 0.950 . S
C969 C965 1.393 . S
C969 C968 1.391 . S
C970 H960 0.950 . S
C970 C971 1.386 . S
C970 C972 1.391 . S
C971 C970 1.386 . S
C971 C975 1.393 . S
C972 H961 0.950 . S
C972 C970 1.391 . S
C972 C973 1.400 . S
C973 C967 1.491 . S
C973 C972 1.400 . S
C973 C974 1.398 . S
C974 H962 0.950 . S
C974 C973 1.398 . S
C974 C975 1.391 . S
C975 H963 0.950 . S
C975 C971 1.393 . S
C975 C974 1.391 . S
H976 C984 0.950 . S
H977 C989 0.950 . S
H978 C986 0.950 . S
H979 C988 0.950 . S
H980 C990 0.950 . S
H981 C992 0.950 . S
H982 C994 0.950 . S
H983 C995 0.950 . S
C984 H976 0.950 . S
C984 C985 1.386 . S
C984 C986 1.391 . S
C985 C984 1.386 . S
C985 C989 1.393 . S
C986 H978 0.950 . S
C986 C984 1.391 . S
C986 C987 1.400 . S
C987 C986 1.400 . S
C987 C988 1.398 . S
C987 C993 1.491 . S
C988 H979 0.950 . S
C988 C987 1.398 . S
C988 C989 1.391 . S
C989 H977 0.950 . S
C989 C985 1.393 . S
C989 C988 1.391 . S
C990 H980 0.950 . S
C990 C991 1.386 . S
C990 C992 1.391 . S
C991 C990 1.386 . S
C991 C995 1.393 . S
C992 H981 0.950 . S
C992 C990 1.391 . S
C992 C993 1.400 . S
C993 C987 1.491 . S
C993 C992 1.400 . S
C993 C994 1.398 . S
C994 H982 0.950 . S
C994 C993 1.398 . S
C994 C995 1.391 . S
C995 H983 0.950 . S
C995 C991 1.393 . S
C995 C994 1.391 . S
H996 C1004 0.950 . S
H997 C1009 0.950 . S
H998 C1006 0.950 . S
H999 C1008 0.950 . S
H1000 C1010 0.950 . S
H1001 C1012 0.950 . S
H1002 C1014 0.950 . S
H1003 C1015 0.950 . S
C1004 H996 0.950 . S
C1004 C1005 1.386 . S
C1004 C1006 1.391 . S
C1005 C1004 1.386 . S
C1005 C1009 1.393 . S
C1006 H998 0.950 . S
C1006 C1004 1.391 . S
C1006 C1007 1.400 . S
C1007 C1006 1.400 . S
C1007 C1008 1.398 . S
C1007 C1013 1.491 . S
C1008 H999 0.950 . S
C1008 C1007 1.398 . S
C1008 C1009 1.391 . S
C1009 H997 0.950 . S
C1009 C1005 1.393 . S
C1009 C1008 1.391 . S
C1010 H1000 0.950 . S
C1010 C1011 1.386 . S
C1010 C1012 1.391 . S
C1011 C1010 1.386 . S
C1011 C1015 1.393 . S
C1012 H1001 0.950 . S
C1012 C1010 1.391 . S
C1012 C1013 1.400 . S
C1013 C1007 1.491 . S
C1013 C1012 1.400 . S
C1013 C1014 1.398 . S
C1014 H1002 0.950 . S
C1014 C1013 1.398 . S
C1014 C1015 1.391 . S
C1015 H1003 0.950 . S
C1015 C1011 1.393 . S
C1015 C1014 1.391 . S
H1016 C1024 0.950 . S
H1017 C1029 0.950 . S
H1018 C1026 0.950 . S
H1019 C1028 0.950 . S
H1020 C1030 0.950 . S
H1021 C1032 0.950 . S
H1022 C1034 0.950 . S
H1023 C1035 0.950 . S
C1024 H1016 0.950 . S
C1024 C1025 1.386 . S
C1024 C1026 1.391 . S
C1025 C1024 1.386 . S
C1025 C1029 1.393 . S
C1026 H1018 0.950 . S
C1026 C1024 1.391 . S
C1026 C1027 1.400 . S
C1027 C1026 1.400 . S
C1027 C1028 1.398 . S
C1027 C1033 1.491 . S
C1028 H1019 0.950 . S
C1028 C1027 1.398 . S
C1028 C1029 1.391 . S
C1029 H1017 0.950 . S
C1029 C1025 1.393 . S
C1029 C1028 1.391 . S
C1030 H1020 0.950 . S
C1030 C1031 1.386 . S
C1030 C1032 1.391 . S
C1031 C1030 1.386 . S
C1031 C1035 1.393 . S
C1032 H1021 0.950 . S
C1032 C1030 1.391 . S
C1032 C1033 1.400 . S
C1033 C1027 1.491 . S
C1033 C1032 1.400 . S
C1033 C1034 1.398 . S
C1034 H1022 0.950 . S
C1034 C1033 1.398 . S
C1034 C1035 1.391 . S
C1035 H1023 0.950 . S
C1035 C1031 1.393 . S
C1035 C1034 1.391 . S
H1036 C1044 0.950 . S
H1037 C1049 0.950 . S
H1038 C1046 0.950 . S
H1039 C1048 0.950 . S
H1040 C1050 0.950 . S
H1041 C1052 0.950 . S
H1042 C1054 0.950 . S
H1043 C1055 0.950 . S
C1044 H1036 0.950 . S
C1044 C1045 1.386 . S
C1044 C1046 1.391 . S
C1045 C1044 1.386 . S
C1045 C1049 1.393 . S
C1046 H1038 0.950 . S
C1046 C1044 1.391 . S
C1046 C1047 1.400 . S
C1047 C1046 1.400 . S
C1047 C1048 1.398 . S
C1047 C1053 1.491 1_545 S
C1048 H1039 0.950 . S
C1048 C1047 1.398 . S
C1048 C1049 1.391 . S
C1049 H1037 0.950 . S
C1049 C1045 1.393 . S
C1049 C1048 1.391 . S
C1050 H1040 0.950 . S
C1050 C1051 1.386 . S
C1050 C1052 1.391 . S
C1051 C1050 1.386 . S
C1051 C1055 1.393 . S
C1052 H1041 0.950 . S
C1052 C1050 1.391 . S
C1052 C1053 1.400 . S
C1053 C1047 1.491 1_565 S
C1053 C1052 1.400 . S
C1053 C1054 1.398 . S
C1054 H1042 0.950 . S
C1054 C1053 1.398 . S
C1054 C1055 1.391 . S
C1055 H1043 0.950 . S
C1055 C1051 1.393 . S
C1055 C1054 1.391 . S
H1056 C1064 0.950 . S
H1057 C1069 0.950 . S
H1058 C1066 0.950 . S
H1059 C1068 0.950 . S
H1060 C1070 0.950 . S
H1061 C1072 0.950 . S
H1062 C1074 0.950 . S
H1063 C1075 0.950 . S
C1064 H1056 0.950 . S
C1064 C1065 1.386 . S
C1064 C1066 1.391 . S
C1065 C1064 1.386 . S
C1065 C1069 1.393 . S
C1066 H1058 0.950 . S
C1066 C1064 1.391 . S
C1066 C1067 1.400 . S
C1067 C1066 1.400 . S
C1067 C1068 1.398 . S
C1067 C1073 1.491 . S
C1068 H1059 0.950 . S
C1068 C1067 1.398 . S
C1068 C1069 1.391 . S
C1069 H1057 0.950 . S
C1069 C1065 1.393 . S
C1069 C1068 1.391 . S
C1070 H1060 0.950 . S
C1070 C1071 1.386 . S
C1070 C1072 1.391 . S
C1071 C1070 1.386 . S
C1071 C1075 1.393 . S
C1072 H1061 0.950 . S
C1072 C1070 1.391 . S
C1072 C1073 1.400 . S
C1073 C1067 1.491 . S
C1073 C1072 1.400 . S
C1073 C1074 1.398 . S
C1074 H1062 0.950 . S
C1074 C1073 1.398 . S
C1074 C1075 1.391 . S
C1075 H1063 0.950 . S
C1075 C1071 1.393 . S
C1075 C1074 1.391 . S
H1076 C1084 0.950 . S
H1077 C1089 0.950 . S
H1078 C1086 0.950 . S
H1079 C1088 0.950 . S
H1080 C1090 0.950 . S
H1081 C1092 0.950 . S
H1082 C1094 0.950 . S
H1083 C1095 0.950 . S
C1084 H1076 0.950 . S
C1084 C1085 1.386 . S
C1084 C1086 1.391 . S
C1085 C1084 1.386 . S
C1085 C1089 1.393 . S
C1086 H1078 0.950 . S
C1086 C1084 1.391 . S
C1086 C1087 1.400 . S
C1087 C1086 1.400 . S
C1087 C1088 1.398 . S
C1087 C1093 1.491 . S
C1088 H1079 0.950 . S
C1088 C1087 1.398 . S
C1088 C1089 1.391 . S
C1089 H1077 0.950 . S
C1089 C1085 1.393 . S
C1089 C1088 1.391 . S
C1090 H1080 0.950 . S
C1090 C1091 1.386 . S
C1090 C1092 1.391 . S
C1091 C1090 1.386 . S
C1091 C1095 1.393 . S
C1092 H1081 0.950 . S
C1092 C1090 1.391 . S
C1092 C1093 1.400 . S
C1093 C1087 1.491 . S
C1093 C1092 1.400 . S
C1093 C1094 1.398 . S
C1094 H1082 0.950 . S
C1094 C1093 1.398 . S
C1094 C1095 1.391 . S
C1095 H1083 0.950 . S
C1095 C1091 1.393 . S
C1095 C1094 1.391 . S
H1096 C1104 0.950 . S
H1097 C1109 0.950 . S
H1098 C1106 0.950 . S
H1099 C1108 0.950 . S
H1100 C1110 0.950 . S
H1101 C1112 0.950 . S
H1102 C1114 0.950 . S
H1103 C1115 0.950 . S
C1104 H1096 0.950 . S
C1104 C1105 1.386 . S
C1104 C1106 1.391 . S
C1105 C1104 1.386 . S
C1105 C1109 1.393 . S
C1106 H1098 0.950 . S
C1106 C1104 1.391 . S
C1106 C1107 1.400 . S
C1107 C1106 1.400 . S
C1107 C1108 1.398 . S
C1107 C1113 1.491 . S
C1108 H1099 0.950 . S
C1108 C1107 1.398 . S
C1108 C1109 1.391 . S
C1109 H1097 0.950 . S
C1109 C1105 1.393 . S
C1109 C1108 1.391 . S
C1110 H1100 0.950 . S
C1110 C1111 1.386 . S
C1110 C1112 1.391 . S
C1111 C1110 1.386 . S
C1111 C1115 1.393 . S
C1112 H1101 0.950 . S
C1112 C1110 1.391 . S
C1112 C1113 1.400 . S
C1113 C1107 1.491 . S
C1113 C1112 1.400 . S
C1113 C1114 1.398 . S
C1114 H1102 0.950 . S
C1114 C1113 1.398 . S
C1114 C1115 1.391 . S
C1115 H1103 0.950 . S
C1115 C1111 1.393 . S
C1115 C1114 1.391 . S
H1116 C1124 0.950 . S
H1117 C1129 0.950 . S
H1118 C1126 0.950 . S
H1119 C1128 0.950 . S
H1120 C1130 0.950 . S
H1121 C1132 0.950 . S
H1122 C1134 0.950 . S
H1123 C1135 0.950 . S
C1124 H1116 0.950 . S
C1124 C1125 1.386 . S
C1124 C1126 1.391 . S
C1125 C1124 1.386 . S
C1125 C1129 1.393 . S
C1126 H1118 0.950 . S
C1126 C1124 1.391 . S
C1126 C1127 1.400 . S
C1127 C1126 1.400 . S
C1127 C1128 1.398 . S
C1127 C1133 1.491 . S
C1128 H1119 0.950 . S
C1128 C1127 1.398 . S
C1128 C1129 1.391 . S
C1129 H1117 0.950 . S
C1129 C1125 1.393 . S
C1129 C1128 1.391 . S
C1130 H1120 0.950 . S
C1130 C1131 1.386 . S
C1130 C1132 1.391 . S
C1131 C1130 1.386 . S
C1131 C1135 1.393 . S
C1132 H1121 0.950 . S
C1132 C1130 1.391 . S
C1132 C1133 1.400 . S
C1133 C1127 1.491 . S
C1133 C1132 1.400 . S
C1133 C1134 1.398 . S
C1134 H1122 0.950 . S
C1134 C1133 1.398 . S
C1134 C1135 1.391 . S
C1135 H1123 0.950 . S
C1135 C1131 1.393 . S
C1135 C1134 1.391 . S
H1136 C1144 0.950 . S
H1137 C1149 0.950 . S
H1138 C1146 0.950 . S
H1139 C1148 0.950 . S
H1140 C1150 0.950 . S
H1141 C1152 0.950 . S
H1142 C1154 0.950 . S
H1143 C1155 0.950 . S
C1144 H1136 0.950 . S
C1144 C1145 1.386 . S
C1144 C1146 1.391 . S
C1145 C1144 1.386 . S
C1145 C1149 1.393 . S
C1146 H1138 0.950 . S
C1146 C1144 1.391 . S
C1146 C1147 1.400 . S
C1147 C1146 1.400 . S
C1147 C1148 1.398 . S
C1147 C1153 1.491 . S
C1148 H1139 0.950 . S
C1148 C1147 1.398 . S
C1148 C1149 1.391 . S
C1149 H1137 0.950 . S
C1149 C1145 1.393 . S
C1149 C1148 1.391 . S
C1150 H1140 0.950 . S
C1150 C1151 1.386 . S
C1150 C1152 1.391 . S
C1151 C1150 1.386 . S
C1151 C1155 1.393 . S
C1152 H1141 0.950 . S
C1152 C1150 1.391 . S
C1152 C1153 1.400 . S
C1153 C1147 1.491 . S
C1153 C1152 1.400 . S
C1153 C1154 1.398 . S
C1154 H1142 0.950 . S
C1154 C1153 1.398 . S
C1154 C1155 1.391 . S
C1155 H1143 0.950 . S
C1155 C1151 1.393 . S
C1155 C1154 1.391 . S
H1156 C1164 0.950 . S
H1157 C1169 0.950 . S
H1158 C1166 0.950 . S
H1159 C1168 0.950 . S
H1160 C1170 0.950 . S
H1161 C1172 0.950 . S
H1162 C1174 0.950 . S
H1163 C1175 0.950 . S
C1164 H1156 0.950 . S
C1164 C1165 1.386 . S
C1164 C1166 1.391 . S
C1165 C1164 1.386 . S
C1165 C1169 1.393 . S
C1166 H1158 0.950 . S
C1166 C1164 1.391 . S
C1166 C1167 1.400 . S
C1167 C1166 1.400 . S
C1167 C1168 1.398 . S
C1167 C1173 1.491 . S
C1168 H1159 0.950 . S
C1168 C1167 1.398 . S
C1168 C1169 1.391 . S
C1169 H1157 0.950 . S
C1169 C1165 1.393 . S
C1169 C1168 1.391 . S
C1170 H1160 0.950 . S
C1170 C1171 1.386 . S
C1170 C1172 1.391 . S
C1171 C1170 1.386 . S
C1171 C1175 1.393 . S
C1172 H1161 0.950 . S
C1172 C1170 1.391 . S
C1172 C1173 1.400 . S
C1173 C1167 1.491 . S
C1173 C1172 1.400 . S
C1173 C1174 1.398 . S
C1174 H1162 0.950 . S
C1174 C1173 1.398 . S
C1174 C1175 1.391 . S
C1175 H1163 0.950 . S
C1175 C1171 1.393 . S
C1175 C1174 1.391 . S
H1176 C1184 0.950 . S
H1177 C1189 0.950 . S
H1178 C1186 0.950 . S
H1179 C1188 0.950 . S
H1180 C1190 0.950 . S
H1181 C1192 0.950 . S
H1182 C1194 0.950 . S
H1183 C1195 0.950 . S
C1184 H1176 0.950 . S
C1184 C1185 1.386 . S
C1184 C1186 1.391 . S
C1185 C1184 1.386 . S
C1185 C1189 1.393 . S
C1186 H1178 0.950 . S
C1186 C1184 1.391 . S
C1186 C1187 1.400 . S
C1187 C1186 1.400 . S
C1187 C1188 1.398 . S
C1187 C1193 1.491 . S
C1188 H1179 0.950 . S
C1188 C1187 1.398 . S
C1188 C1189 1.391 . S
C1189 H1177 0.950 . S
C1189 C1185 1.393 . S
C1189 C1188 1.391 . S
C1190 H1180 0.950 . S
C1190 C1191 1.386 . S
C1190 C1192 1.391 . S
C1191 C1190 1.386 . S
C1191 C1195 1.393 . S
C1192 H1181 0.950 . S
C1192 C1190 1.391 . S
C1192 C1193 1.400 . S
C1193 C1187 1.491 . S
C1193 C1192 1.400 . S
C1193 C1194 1.398 . S
C1194 H1182 0.950 . S
C1194 C1193 1.398 . S
C1194 C1195 1.391 . S
C1195 H1183 0.950 . S
C1195 C1191 1.393 . S
C1195 C1194 1.391 . S
H1196 C1204 0.950 . S
H1197 C1209 0.950 . S
H1198 C1206 0.950 . S
H1199 C1208 0.950 . S
H1200 C1210 0.950 . S
H1201 C1212 0.950 . S
H1202 C1214 0.950 . S
H1203 C1215 0.950 . S
C1204 H1196 0.950 . S
C1204 C1205 1.386 . S
C1204 C1206 1.391 . S
C1205 C1204 1.386 . S
C1205 C1209 1.393 . S
C1206 H1198 0.950 . S
C1206 C1204 1.391 . S
C1206 C1207 1.400 . S
C1207 C1206 1.400 . S
C1207 C1208 1.398 . S
C1207 C1213 1.491 . S
C1208 H1199 0.950 . S
C1208 C1207 1.398 . S
C1208 C1209 1.391 . S
C1209 H1197 0.950 . S
C1209 C1205 1.393 . S
C1209 C1208 1.391 . S
C1210 H1200 0.950 . S
C1210 C1211 1.386 . S
C1210 C1212 1.391 . S
C1211 C1210 1.386 . S
C1211 C1215 1.393 . S
C1212 H1201 0.950 . S
C1212 C1210 1.391 . S
C1212 C1213 1.400 . S
C1213 C1207 1.491 . S
C1213 C1212 1.400 . S
C1213 C1214 1.398 . S
C1214 H1202 0.950 . S
C1214 C1213 1.398 . S
C1214 C1215 1.391 . S
C1215 H1203 0.950 . S
C1215 C1211 1.393 . S
C1215 C1214 1.391 . S
H1216 C1224 0.950 . S
H1217 C1229 0.950 . S
H1218 C1226 0.950 . S
H1219 C1228 0.950 . S
H1220 C1230 0.950 . S
H1221 C1232 0.950 . S
H1222 C1234 0.950 . S
H1223 C1235 0.950 . S
C1224 H1216 0.950 . S
C1224 C1225 1.386 . S
C1224 C1226 1.391 . S
C1225 C1224 1.386 . S
C1225 C1229 1.393 . S
C1226 H1218 0.950 . S
C1226 C1224 1.391 . S
C1226 C1227 1.400 . S
C1227 C1226 1.400 . S
C1227 C1228 1.398 . S
C1227 C1233 1.491 . S
C1228 H1219 0.950 . S
C1228 C1227 1.398 . S
C1228 C1229 1.391 . S
C1229 H1217 0.950 . S
C1229 C1225 1.393 . S
C1229 C1228 1.391 . S
C1230 H1220 0.950 . S
C1230 C1231 1.386 . S
C1230 C1232 1.391 . S
C1231 C1230 1.386 . S
C1231 C1235 1.393 . S
C1232 H1221 0.950 . S
C1232 C1230 1.391 . S
C1232 C1233 1.400 . S
C1233 C1227 1.491 . S
C1233 C1232 1.400 . S
C1233 C1234 1.398 . S
C1234 H1222 0.950 . S
C1234 C1233 1.398 . S
C1234 C1235 1.391 . S
C1235 H1223 0.950 . S
C1235 C1231 1.393 . S
C1235 C1234 1.391 . S
H1236 C1244 0.950 . S
H1237 C1249 0.950 . S
H1238 C1246 0.950 . S
H1239 C1248 0.950 . S
H1240 C1250 0.950 . S
H1241 C1252 0.950 . S
H1242 C1254 0.950 . S
H1243 C1255 0.950 . S
C1244 H1236 0.950 . S
C1244 C1245 1.386 . S
C1244 C1246 1.391 . S
C1245 C1244 1.386 . S
C1245 C1249 1.393 . S
C1246 H1238 0.950 . S
C1246 C1244 1.391 . S
C1246 C1247 1.400 . S
C1247 C1246 1.400 . S
C1247 C1248 1.398 . S
C1247 C1253 1.491 . S
C1248 H1239 0.950 . S
C1248 C1247 1.398 . S
C1248 C1249 1.391 . S
C1249 H1237 0.950 . S
C1249 C1245 1.393 . S
C1249 C1248 1.391 . S
C1250 H1240 0.950 . S
C1250 C1251 1.386 . S
C1250 C1252 1.391 . S
C1251 C1250 1.386 . S
C1251 C1255 1.393 . S
C1252 H1241 0.950 . S
C1252 C1250 1.391 . S
C1252 C1253 1.400 . S
C1253 C1247 1.491 . S
C1253 C1252 1.400 . S
C1253 C1254 1.398 . S
C1254 H1242 0.950 . S
C1254 C1253 1.398 . S
C1254 C1255 1.391 . S
C1255 H1243 0.950 . S
C1255 C1251 1.393 . S
C1255 C1254 1.391 . S
H1256 C1264 0.950 . S
H1257 C1269 0.950 . S
H1258 C1266 0.950 . S
H1259 C1268 0.950 . S
H1260 C1270 0.950 . S
H1261 C1272 0.950 . S
H1262 C1274 0.950 . S
H1263 C1275 0.950 . S
C1264 H1256 0.950 . S
C1264 C1265 1.386 . S
C1264 C1266 1.391 . S
C1265 C1264 1.386 . S
C1265 C1269 1.393 . S
C1266 H1258 0.950 . S
C1266 C1264 1.391 . S
C1266 C1267 1.400 . S
C1267 C1266 1.400 . S
C1267 C1268 1.398 . S
C1267 C1273 1.491 . S
C1268 H1259 0.950 . S
C1268 C1267 1.398 . S
C1268 C1269 1.391 . S
C1269 H1257 0.950 . S
C1269 C1265 1.393 . S
C1269 C1268 1.391 . S
C1270 H1260 0.950 . S
C1270 C1271 1.386 . S
C1270 C1272 1.391 . S
C1271 C1270 1.386 . S
C1271 C1275 1.393 . S
C1272 H1261 0.950 . S
C1272 C1270 1.391 . S
C1272 C1273 1.400 . S
C1273 C1267 1.491 . S
C1273 C1272 1.400 . S
C1273 C1274 1.398 . S
C1274 H1262 0.950 . S
C1274 C1273 1.398 . S
C1274 C1275 1.391 . S
C1275 H1263 0.950 . S
C1275 C1271 1.393 . S
C1275 C1274 1.391 . S
H1276 C1284 0.950 . S
H1277 C1289 0.950 . S
H1278 C1286 0.950 . S
H1279 C1288 0.950 . S
H1280 C1290 0.950 . S
H1281 C1292 0.950 . S
H1282 C1294 0.950 . S
H1283 C1295 0.950 . S
C1284 H1276 0.950 . S
C1284 C1285 1.386 . S
C1284 C1286 1.391 . S
C1285 C1284 1.386 . S
C1285 C1289 1.393 . S
C1286 H1278 0.950 . S
C1286 C1284 1.391 . S
C1286 C1287 1.400 . S
C1287 C1286 1.400 . S
C1287 C1288 1.398 . S
C1287 C1293 1.491 . S
C1288 H1279 0.950 . S
C1288 C1287 1.398 . S
C1288 C1289 1.391 . S
C1289 H1277 0.950 . S
C1289 C1285 1.393 . S
C1289 C1288 1.391 . S
C1290 H1280 0.950 . S
C1290 C1291 1.386 . S
C1290 C1292 1.391 . S
C1291 C1290 1.386 . S
C1291 C1295 1.393 . S
C1292 H1281 0.950 . S
C1292 C1290 1.391 . S
C1292 C1293 1.400 . S
C1293 C1287 1.491 . S
C1293 C1292 1.400 . S
C1293 C1294 1.398 . S
C1294 H1282 0.950 . S
C1294 C1293 1.398 . S
C1294 C1295 1.391 . S
C1295 H1283 0.950 . S
C1295 C1291 1.393 . S
C1295 C1294 1.391 . S
H1296 C1304 0.950 . S
H1297 C1309 0.950 . S
H1298 C1306 0.950 . S
H1299 C1308 0.950 . S
H1300 C1310 0.950 . S
H1301 C1312 0.950 . S
H1302 C1314 0.950 . S
H1303 C1315 0.950 . S
C1304 H1296 0.950 . S
C1304 C1305 1.386 . S
C1304 C1306 1.391 . S
C1305 C1304 1.386 . S
C1305 C1309 1.393 . S
C1306 H1298 0.950 . S
C1306 C1304 1.391 . S
C1306 C1307 1.400 . S
C1307 C1306 1.400 . S
C1307 C1308 1.398 . S
C1307 C1313 1.491 . S
C1308 H1299 0.950 . S
C1308 C1307 1.398 . S
C1308 C1309 1.391 . S
C1309 H1297 0.950 . S
C1309 C1305 1.393 . S
C1309 C1308 1.391 . S
C1310 H1300 0.950 . S
C1310 C1311 1.386 . S
C1310 C1312 1.391 . S
C1311 C1310 1.386 . S
C1311 C1315 1.393 . S
C1312 H1301 0.950 . S
C1312 C1310 1.391 . S
C1312 C1313 1.400 . S
C1313 C1307 1.491 . S
C1313 C1312 1.400 . S
C1313 C1314 1.398 . S
C1314 H1302 0.950 . S
C1314 C1313 1.398 . S
C1314 C1315 1.391 . S
C1315 H1303 0.950 . S
C1315 C1311 1.393 . S
C1315 C1314 1.391 . S
H1316 C1324 0.950 . S
H1317 C1329 0.950 . S
H1318 C1326 0.950 . S
H1319 C1328 0.950 . S
H1320 C1330 0.950 . S
H1321 C1332 0.950 . S
H1322 C1334 0.950 . S
H1323 C1335 0.950 . S
C1324 H1316 0.950 . S
C1324 C1325 1.386 . S
C1324 C1326 1.391 . S
C1325 C1324 1.386 . S
C1325 C1329 1.393 . S
C1326 H1318 0.950 . S
C1326 C1324 1.391 . S
C1326 C1327 1.400 . S
C1327 C1326 1.400 . S
C1327 C1328 1.398 . S
C1327 C1333 1.491 . S
C1328 H1319 0.950 . S
C1328 C1327 1.398 . S
C1328 C1329 1.391 . S
C1329 H1317 0.950 . S
C1329 C1325 1.393 . S
C1329 C1328 1.391 . S
C1330 H1320 0.950 . S
C1330 C1331 1.386 . S
C1330 C1332 1.391 . S
C1331 C1330 1.386 . S
C1331 C1335 1.393 . S
C1332 H1321 0.950 . S
C1332 C1330 1.391 . S
C1332 C1333 1.400 . S
C1333 C1327 1.491 . S
C1333 C1332 1.400 . S
C1333 C1334 1.398 . S
C1334 H1322 0.950 . S
C1334 C1333 1.398 . S
C1334 C1335 1.391 . S
C1335 H1323 0.950 . S
C1335 C1331 1.393 . S
C1335 C1334 1.391 . S
H1336 C1344 0.950 . S
H1337 C1349 0.950 . S
H1338 C1346 0.950 . S
H1339 C1348 0.950 . S
H1340 C1350 0.950 . S
H1341 C1352 0.950 . S
H1342 C1354 0.950 . S
H1343 C1355 0.950 . S
C1344 H1336 0.950 . S
C1344 C1345 1.386 . S
C1344 C1346 1.391 . S
C1345 C1344 1.386 . S
C1345 C1349 1.393 . S
C1346 H1338 0.950 . S
C1346 C1344 1.391 . S
C1346 C1347 1.400 . S
C1347 C1346 1.400 . S
C1347 C1348 1.398 . S
C1347 C1353 1.491 . S
C1348 H1339 0.950 . S
C1348 C1347 1.398 . S
C1348 C1349 1.391 . S
C1349 H1337 0.950 . S
C1349 C1345 1.393 . S
C1349 C1348 1.391 . S
C1350 H1340 0.950 . S
C1350 C1351 1.386 . S
C1350 C1352 1.391 . S
C1351 C1350 1.386 . S
C1351 C1355 1.393 . S
C1352 H1341 0.950 . S
C1352 C1350 1.391 . S
C1352 C1353 1.400 . S
C1353 C1347 1.491 . S
C1353 C1352 1.400 . S
C1353 C1354 1.398 . S
C1354 H1342 0.950 . S
C1354 C1353 1.398 . S
C1354 C1355 1.391 . S
C1355 H1343 0.950 . S
C1355 C1351 1.393 . S
C1355 C1354 1.391 . S
H1356 C1364 0.950 . S
H1357 C1369 0.950 . S
H1358 C1366 0.950 . S
H1359 C1368 0.950 . S
H1360 C1370 0.950 . S
H1361 C1372 0.950 . S
H1362 C1374 0.950 . S
H1363 C1375 0.950 . S
C1364 H1356 0.950 . S
C1364 C1365 1.386 . S
C1364 C1366 1.391 . S
C1365 C1364 1.386 . S
C1365 C1369 1.393 . S
C1366 H1358 0.950 . S
C1366 C1364 1.391 . S
C1366 C1367 1.400 . S
C1367 C1366 1.400 . S
C1367 C1368 1.398 . S
C1367 C1373 1.491 . S
C1368 H1359 0.950 . S
C1368 C1367 1.398 . S
C1368 C1369 1.391 . S
C1369 H1357 0.950 . S
C1369 C1365 1.393 . S
C1369 C1368 1.391 . S
C1370 H1360 0.950 . S
C1370 C1371 1.386 . S
C1370 C1372 1.391 . S
C1371 C1370 1.386 . S
C1371 C1375 1.393 . S
C1372 H1361 0.950 . S
C1372 C1370 1.391 . S
C1372 C1373 1.400 . S
C1373 C1367 1.491 . S
C1373 C1372 1.400 . S
C1373 C1374 1.398 . S
C1374 H1362 0.950 . S
C1374 C1373 1.398 . S
C1374 C1375 1.391 . S
C1375 H1363 0.950 . S
C1375 C1371 1.393 . S
C1375 C1374 1.391 . S
H1376 C1384 0.950 . S
H1377 C1389 0.950 . S
H1378 C1386 0.950 . S
H1379 C1388 0.950 . S
H1380 C1390 0.950 . S
H1381 C1392 0.950 . S
H1382 C1394 0.950 . S
H1383 C1395 0.950 . S
C1384 H1376 0.950 . S
C1384 C1385 1.386 . S
C1384 C1386 1.391 . S
C1385 C1384 1.386 . S
C1385 C1389 1.393 . S
C1386 H1378 0.950 . S
C1386 C1384 1.391 . S
C1386 C1387 1.400 . S
C1387 C1386 1.400 . S
C1387 C1388 1.398 . S
C1387 C1393 1.491 . S
C1388 H1379 0.950 . S
C1388 C1387 1.398 . S
C1388 C1389 1.391 . S
C1389 H1377 0.950 . S
C1389 C1385 1.393 . S
C1389 C1388 1.391 . S
C1390 H1380 0.950 . S
C1390 C1391 1.386 . S
C1390 C1392 1.391 . S
C1391 C1390 1.386 . S
C1391 C1395 1.393 . S
C1392 H1381 0.950 . S
C1392 C1390 1.391 . S
C1392 C1393 1.400 . S
C1393 C1387 1.491 . S
C1393 C1392 1.400 . S
C1393 C1394 1.398 . S
C1394 H1382 0.950 . S
C1394 C1393 1.398 . S
C1394 C1395 1.391 . S
C1395 H1383 0.950 . S
C1395 C1391 1.393 . S
C1395 C1394 1.391 . S
H1396 C1404 0.950 . S
H1397 C1409 0.950 . S
H1398 C1406 0.950 . S
H1399 C1408 0.950 . S
H1400 C1410 0.950 . S
H1401 C1412 0.950 . S
H1402 C1414 0.950 . S
H1403 C1415 0.950 . S
C1404 H1396 0.950 . S
C1404 C1405 1.386 . S
C1404 C1406 1.391 . S
C1405 C1404 1.386 . S
C1405 C1409 1.393 . S
C1406 H1398 0.950 . S
C1406 C1404 1.391 . S
C1406 C1407 1.400 . S
C1407 C1406 1.400 . S
C1407 C1408 1.398 . S
C1407 C1413 1.491 . S
C1408 H1399 0.950 . S
C1408 C1407 1.398 . S
C1408 C1409 1.391 . S
C1409 H1397 0.950 . S
C1409 C1405 1.393 . S
C1409 C1408 1.391 . S
C1410 H1400 0.950 . S
C1410 C1411 1.386 . S
C1410 C1412 1.391 . S
C1411 C1410 1.386 . S
C1411 C1415 1.393 . S
C1412 H1401 0.950 . S
C1412 C1410 1.391 . S
C1412 C1413 1.400 . S
C1413 C1407 1.491 . S
C1413 C1412 1.400 . S
C1413 C1414 1.398 . S
C1414 H1402 0.950 . S
C1414 C1413 1.398 . S
C1414 C1415 1.391 . S
C1415 H1403 0.950 . S
C1415 C1411 1.393 . S
C1415 C1414 1.391 . S
H1416 C1424 0.950 . S
H1417 C1429 0.950 . S
H1418 C1426 0.950 . S
H1419 C1428 0.950 . S
H1420 C1430 0.950 . S
H1421 C1432 0.950 . S
H1422 C1434 0.950 . S
H1423 C1435 0.950 . S
C1424 H1416 0.950 . S
C1424 C1425 1.386 . S
C1424 C1426 1.391 . S
C1425 C1424 1.386 . S
C1425 C1429 1.393 . S
C1426 H1418 0.950 . S
C1426 C1424 1.391 . S
C1426 C1427 1.400 . S
C1427 C1426 1.400 . S
C1427 C1428 1.398 . S
C1427 C1433 1.491 . S
C1428 H1419 0.950 . S
C1428 C1427 1.398 . S
C1428 C1429 1.391 . S
C1429 H1417 0.950 . S
C1429 C1425 1.393 . S
C1429 C1428 1.391 . S
C1430 H1420 0.950 . S
C1430 C1431 1.386 . S
C1430 C1432 1.391 . S
C1431 C1430 1.386 . S
C1431 C1435 1.393 . S
C1432 H1421 0.950 . S
C1432 C1430 1.391 . S
C1432 C1433 1.400 . S
C1433 C1427 1.491 . S
C1433 C1432 1.400 . S
C1433 C1434 1.398 . S
C1434 H1422 0.950 . S
C1434 C1433 1.398 . S
C1434 C1435 1.391 . S
C1435 H1423 0.950 . S
C1435 C1431 1.393 . S
C1435 C1434 1.391 . S
H1436 C1444 0.950 . S
H1437 C1449 0.950 . S
H1438 C1446 0.950 . S
H1439 C1448 0.950 . S
H1440 C1450 0.950 . S
H1441 C1452 0.950 . S
H1442 C1454 0.950 . S
H1443 C1455 0.950 . S
C1444 H1436 0.950 . S
C1444 C1445 1.386 . S
C1444 C1446 1.391 . S
C1445 C1444 1.386 . S
C1445 C1449 1.393 . S
C1446 H1438 0.950 . S
C1446 C1444 1.391 . S
C1446 C1447 1.400 . S
C1447 C1446 1.400 . S
C1447 C1448 1.398 . S
C1447 C1453 1.491 . S
C1448 H1439 0.950 . S
C1448 C1447 1.398 . S
C1448 C1449 1.391 . S
C1449 H1437 0.950 . S
C1449 C1445 1.393 . S
C1449 C1448 1.391 . S
C1450 H1440 0.950 . S
C1450 C1451 1.386 . S
C1450 C1452 1.391 . S
C1451 C1450 1.386 . S
C1451 C1455 1.393 . S
C1452 H1441 0.950 . S
C1452 C1450 1.391 . S
C1452 C1453 1.400 . S
C1453 C1447 1.491 . S
C1453 C1452 1.400 . S
C1453 C1454 1.398 . S
C1454 H1442 0.950 . S
C1454 C1453 1.398 . S
C1454 C1455 1.391 . S
C1455 H1443 0.950 . S
C1455 C1451 1.393 . S
C1455 C1454 1.391 . S
H1456 C1464 0.950 . S
H1457 C1469 0.950 . S
H1458 C1466 0.950 . S
H1459 C1468 0.950 . S
H1460 C1470 0.950 . S
H1461 C1472 0.950 . S
H1462 C1474 0.950 . S
H1463 C1475 0.950 . S
C1464 H1456 0.950 . S
C1464 C1465 1.386 . S
C1464 C1466 1.391 . S
C1465 C1464 1.386 . S
C1465 C1469 1.393 . S
C1466 H1458 0.950 . S
C1466 C1464 1.391 . S
C1466 C1467 1.400 . S
C1467 C1466 1.400 . S
C1467 C1468 1.398 . S
C1467 C1473 1.491 . S
C1468 H1459 0.950 . S
C1468 C1467 1.398 . S
C1468 C1469 1.391 . S
C1469 H1457 0.950 . S
C1469 C1465 1.393 . S
C1469 C1468 1.391 . S
C1470 H1460 0.950 . S
C1470 C1471 1.386 . S
C1470 C1472 1.391 . S
C1471 C1470 1.386 . S
C1471 C1475 1.393 . S
C1472 H1461 0.950 . S
C1472 C1470 1.391 . S
C1472 C1473 1.400 . S
C1473 C1467 1.491 . S
C1473 C1472 1.400 . S
C1473 C1474 1.398 . S
C1474 H1462 0.950 . S
C1474 C1473 1.398 . S
C1474 C1475 1.391 . S
C1475 H1463 0.950 . S
C1475 C1471 1.393 . S
C1475 C1474 1.391 . S
H1476 C1484 0.950 . S
H1477 C1489 0.950 . S
H1478 C1486 0.950 . S
H1479 C1488 0.950 . S
H1480 C1490 0.950 . S
H1481 C1492 0.950 . S
H1482 C1494 0.950 . S
H1483 C1495 0.950 . S
C1484 H1476 0.950 . S
C1484 C1485 1.386 . S
C1484 C1486 1.391 . S
C1485 C1484 1.386 . S
C1485 C1489 1.393 . S
C1486 H1478 0.950 . S
C1486 C1484 1.391 . S
C1486 C1487 1.400 . S
C1487 C1486 1.400 . S
C1487 C1488 1.398 . S
C1487 C1493 1.491 . S
C1488 H1479 0.950 . S
C1488 C1487 1.398 . S
C1488 C1489 1.391 . S
C1489 H1477 0.950 . S
C1489 C1485 1.393 . S
C1489 C1488 1.391 . S
C1490 H1480 0.950 . S
C1490 C1491 1.386 . S
C1490 C1492 1.391 . S
C1491 C1490 1.386 . S
C1491 C1495 1.393 . S
C1492 H1481 0.950 . S
C1492 C1490 1.391 . S
C1492 C1493 1.400 . S
C1493 C1487 1.491 . S
C1493 C1492 1.400 . S
C1493 C1494 1.398 . S
C1494 H1482 0.950 . S
C1494 C1493 1.398 . S
C1494 C1495 1.391 . S
C1495 H1483 0.950 . S
C1495 C1491 1.393 . S
C1495 C1494 1.391 . S
H1496 C1504 0.950 . S
H1497 C1509 0.950 . S
H1498 C1506 0.950 . S
H1499 C1508 0.950 . S
H1500 C1510 0.950 . S
H1501 C1512 0.950 . S
H1502 C1514 0.950 . S
H1503 C1515 0.950 . S
C1504 H1496 0.950 . S
C1504 C1505 1.386 . S
C1504 C1506 1.391 . S
C1505 C1504 1.386 . S
C1505 C1509 1.393 . S
C1506 H1498 0.950 . S
C1506 C1504 1.391 . S
C1506 C1507 1.400 . S
C1507 C1506 1.400 . S
C1507 C1508 1.398 . S
C1507 C1513 1.491 . S
C1508 H1499 0.950 . S
C1508 C1507 1.398 . S
C1508 C1509 1.391 . S
C1509 H1497 0.950 . S
C1509 C1505 1.393 . S
C1509 C1508 1.391 . S
C1510 H1500 0.950 . S
C1510 C1511 1.386 . S
C1510 C1512 1.391 . S
C1511 C1510 1.386 . S
C1511 C1515 1.393 . S
C1512 H1501 0.950 . S
C1512 C1510 1.391 . S
C1512 C1513 1.400 . S
C1513 C1507 1.491 . S
C1513 C1512 1.400 . S
C1513 C1514 1.398 . S
C1514 H1502 0.950 . S
C1514 C1513 1.398 . S
C1514 C1515 1.391 . S
C1515 H1503 0.950 . S
C1515 C1511 1.393 . S
C1515 C1514 1.391 . S
H1516 C1524 0.950 . S
H1517 C1529 0.950 . S
H1518 C1526 0.950 . S
H1519 C1528 0.950 . S
H1520 C1530 0.950 . S
H1521 C1532 0.950 . S
H1522 C1534 0.950 . S
H1523 C1535 0.950 . S
C1524 H1516 0.950 . S
C1524 C1525 1.386 . S
C1524 C1526 1.391 . S
C1525 C1524 1.386 . S
C1525 C1529 1.393 . S
C1526 H1518 0.950 . S
C1526 C1524 1.391 . S
C1526 C1527 1.400 . S
C1527 C1526 1.400 . S
C1527 C1528 1.398 . S
C1527 C1533 1.491 . S
C1528 H1519 0.950 . S
C1528 C1527 1.398 . S
C1528 C1529 1.391 . S
C1529 H1517 0.950 . S
C1529 C1525 1.393 . S
C1529 C1528 1.391 . S
C1530 H1520 0.950 . S
C1530 C1531 1.386 . S
C1530 C1532 1.391 . S
C1531 C1530 1.386 . S
C1531 C1535 1.393 . S
C1532 H1521 0.950 . S
C1532 C1530 1.391 . S
C1532 C1533 1.400 . S
C1533 C1527 1.491 . S
C1533 C1532 1.400 . S
C1533 C1534 1.398 . S
C1534 H1522 0.950 . S
C1534 C1533 1.398 . S
C1534 C1535 1.391 . S
C1535 H1523 0.950 . S
C1535 C1531 1.393 . S
C1535 C1534 1.391 . S
H1536 C1544 0.950 . S
H1537 C1549 0.950 . S
H1538 C1546 0.950 . S
H1539 C1548 0.950 . S
H1540 C1550 0.950 . S
H1541 C1552 0.950 . S
H1542 C1554 0.950 . S
H1543 C1555 0.950 . S
C1544 H1536 0.950 . S
C1544 C1545 1.386 . S
C1544 C1546 1.391 . S
C1545 C1544 1.386 . S
C1545 C1549 1.393 . S
C1546 H1538 0.950 . S
C1546 C1544 1.391 . S
C1546 C1547 1.400 . S
C1547 C1546 1.400 . S
C1547 C1548 1.398 . S
C1547 C1553 1.491 . S
C1548 H1539 0.950 . S
C1548 C1547 1.398 . S
C1548 C1549 1.391 . S
C1549 H1537 0.950 . S
C1549 C1545 1.393 . S
C1549 C1548 1.391 . S
C1550 H1540 0.950 . S
C1550 C1551 1.386 . S
C1550 C1552 1.391 . S
C1551 C1550 1.386 . S
C1551 C1555 1.393 . S
C1552 H1541 0.950 . S
C1552 C1550 1.391 . S
C1552 C1553 1.400 . S
C1553 C1547 1.491 . S
C1553 C1552 1.400 . S
C1553 C1554 1.398 . S
C1554 H1542 0.950 . S
C1554 C1553 1.398 . S
C1554 C1555 1.391 . S
C1555 H1543 0.950 . S
C1555 C1551 1.393 . S
C1555 C1554 1.391 . S
C611 C282 1.556 . S
C605 N2 1.508 . S
C631 C325 2.351 . S
C625 C7 2.335 . S
C651 C362 1.585 . S
C645 N12 1.436 . S
C665 C16 2.243 1_565 S
C671 C405 2.327 . S
C691 C454 2.521 . S
C685 C30 2.475 1_565 S
C711 C491 1.374 . S
C705 N35 1.331 . S
C725 C39 2.501 . S
C731 C534 2.511 . S
C751 C571 1.362 . S
C745 N25 1.219 . S
C771 C286 1.354 . S
C765 N58 1.289 . S
C785 N81 1.950 . S
C791 C335 1.968 . S
C811 C366 1.359 . S
C805 N104 1.307 . S
C825 N127 2.002 . S
C831 C415 2.005 . S
C851 C442 0.808 . S
C845 N48 0.862 . S
C871 C485 1.543 . S
C865 N71 1.576 . S
C885 N94 0.838 . S
C891 C522 0.844 . S
C911 C565 1.545 . S
C905 N117 1.584 . S
C925 C85 2.120 . S
C931 C294 1.996 . S
C945 C122 2.387 . S
C951 C446 2.353 . S
C965 C53 2.029 . S
C971 C495 2.040 . S
C991 C526 2.400 . S
C985 C76 2.439 . S
C1011 C575 2.054 . S
C1005 C99 2.046 . S
C1031 C374 1.972 . S
C1025 C131 2.091 . S
C1051 C411 1.085 . S
C1045 C62 1.124 . S
C1065 C108 1.141 . S
C1071 C331 1.104 . S
C1091 C562 1.666 . S
C1085 N140 1.640 . S
C1105 C145 2.316 . S
C1111 C445 2.353 . S
C1131 C482 1.492 . S
C1125 N150 1.360 . S
C1145 C154 2.264 . S
C1151 C525 2.342 . S
C1171 C334 2.506 . S
C1165 C168 2.453 . S
C1185 N173 1.219 . S
C1191 C371 1.275 . S
C1211 C414 2.507 . S
C1205 C177 2.489 . S
C1231 C291 1.454 . S
C1225 N163 1.304 . S
C1251 C566 1.866 . S
C1245 C200 1.841 . S
C1271 C455 2.245 . S
C1265 N219 2.227 . S
C1285 N242 1.560 . S
C1291 C486 1.634 . S
C1311 C535 2.351 . S
C1305 C269 2.418 . S
C1331 C322 1.101 . S
C1325 C191 1.165 . S
C1345 N209 1.840 . S
C1351 C365 1.799 . S
C1365 N232 1.071 . S
C1371 C402 1.010 . S
C1385 C260 2.066 . S
C1391 C285 1.980 . S
C1405 C223 1.828 . S
C1411 C574 1.731 . S
C1425 N255 1.945 . S
C1431 C326 1.971 . S
C1445 N186 1.514 . S
C1451 C375 1.552 . S
C1471 C406 2.083 . S
C1465 C214 2.122 . S
C1491 C295 1.764 . S
C1485 C237 1.756 . S
C1511 C494 1.539 . S
C1505 N265 1.594 . S
C1531 C531 0.751 . S
C1525 N196 0.790 . S
C1551 C451 0.848 . S
C1545 C246 0.882 . S
