# Generated by pormake.
# Topology gar, (4,6)-cn, num edge types: 1
# Building blocks:
#     Node 0, Type 0, BuildingBlock: NAHDIM_clean_sbu_0, # of connection points: 4
#     Node 1, Type 0, BuildingBlock: NAHDIM_clean_sbu_0, # of connection points: 4
#     Node 2, Type 0, BuildingBlock: NAHDIM_clean_sbu_0, # of connection points: 4
#     Node 3, Type 0, BuildingBlock: NAHDIM_clean_sbu_0, # of connection points: 4
#     Node 4, Type 0, BuildingBlock: NAHDIM_clean_sbu_0, # of connection points: 4
#     Node 5, Type 0, BuildingBlock: NAHDIM_clean_sbu_0, # of connection points: 4
#     Node 6, Type 0, BuildingBlock: NAHDIM_clean_sbu_0, # of connection points: 4
#     Node 7, Type 0, BuildingBlock: NAHDIM_clean_sbu_0, # of connection points: 4
#     Node 8, Type 0, BuildingBlock: NAHDIM_clean_sbu_0, # of connection points: 4
#     Node 9, Type 0, BuildingBlock: NAHDIM_clean_sbu_0, # of connection points: 4
#     Node 10, Type 0, BuildingBlock: NAHDIM_clean_sbu_0, # of connection points: 4
#     Node 11, Type 0, BuildingBlock: NAHDIM_clean_sbu_0, # of connection points: 4
#     Node 12, Type 0, BuildingBlock: NAHDIM_clean_sbu_0, # of connection points: 4
#     Node 13, Type 0, BuildingBlock: NAHDIM_clean_sbu_0, # of connection points: 4
#     Node 14, Type 0, BuildingBlock: NAHDIM_clean_sbu_0, # of connection points: 4
#     Node 15, Type 0, BuildingBlock: NAHDIM_clean_sbu_0, # of connection points: 4
#     Node 16, Type 0, BuildingBlock: NAHDIM_clean_sbu_0, # of connection points: 4
#     Node 17, Type 0, BuildingBlock: NAHDIM_clean_sbu_0, # of connection points: 4
#     Node 18, Type 0, BuildingBlock: NAHDIM_clean_sbu_0, # of connection points: 4
#     Node 19, Type 0, BuildingBlock: NAHDIM_clean_sbu_0, # of connection points: 4
#     Node 20, Type 0, BuildingBlock: NAHDIM_clean_sbu_0, # of connection points: 4
#     Node 21, Type 0, BuildingBlock: NAHDIM_clean_sbu_0, # of connection points: 4
#     Node 22, Type 0, BuildingBlock: NAHDIM_clean_sbu_0, # of connection points: 4
#     Node 23, Type 0, BuildingBlock: NAHDIM_clean_sbu_0, # of connection points: 4
#     Node 24, Type 1, BuildingBlock: PAMTOO_clean_sbu_0, # of connection points: 6
#     Node 25, Type 1, BuildingBlock: PAMTOO_clean_sbu_0, # of connection points: 6
#     Node 26, Type 1, BuildingBlock: PAMTOO_clean_sbu_0, # of connection points: 6
#     Node 27, Type 1, BuildingBlock: PAMTOO_clean_sbu_0, # of connection points: 6
#     Node 28, Type 1, BuildingBlock: PAMTOO_clean_sbu_0, # of connection points: 6
#     Node 29, Type 1, BuildingBlock: PAMTOO_clean_sbu_0, # of connection points: 6
#     Node 30, Type 1, BuildingBlock: PAMTOO_clean_sbu_0, # of connection points: 6
#     Node 31, Type 1, BuildingBlock: PAMTOO_clean_sbu_0, # of connection points: 6
#     Node 32, Type 1, BuildingBlock: PAMTOO_clean_sbu_0, # of connection points: 6
#     Node 33, Type 1, BuildingBlock: PAMTOO_clean_sbu_0, # of connection points: 6
#     Node 34, Type 1, BuildingBlock: PAMTOO_clean_sbu_0, # of connection points: 6
#     Node 35, Type 1, BuildingBlock: PAMTOO_clean_sbu_0, # of connection points: 6
#     Node 36, Type 1, BuildingBlock: PAMTOO_clean_sbu_0, # of connection points: 6
#     Node 37, Type 1, BuildingBlock: PAMTOO_clean_sbu_0, # of connection points: 6
#     Node 38, Type 1, BuildingBlock: PAMTOO_clean_sbu_0, # of connection points: 6
#     Node 39, Type 1, BuildingBlock: PAMTOO_clean_sbu_0, # of connection points: 6
#     Edge 40, Type (0, 1), None
#     Edge 41, Type (0, 1), None
#     Edge 42, Type (0, 1), None
#     Edge 43, Type (0, 1), None
#     Edge 44, Type (0, 1), None
#     Edge 45, Type (0, 1), None
#     Edge 46, Type (0, 1), None
#     Edge 47, Type (0, 1), None
#     Edge 48, Type (0, 1), None
#     Edge 49, Type (0, 1), None
#     Edge 50, Type (0, 1), None
#     Edge 51, Type (0, 1), None
#     Edge 52, Type (0, 1), None
#     Edge 53, Type (0, 1), None
#     Edge 54, Type (0, 1), None
#     Edge 55, Type (0, 1), None
#     Edge 56, Type (0, 1), None
#     Edge 57, Type (0, 1), None
#     Edge 58, Type (0, 1), None
#     Edge 59, Type (0, 1), None
#     Edge 60, Type (0, 1), None
#     Edge 61, Type (0, 1), None
#     Edge 62, Type (0, 1), None
#     Edge 63, Type (0, 1), None
#     Edge 64, Type (0, 1), None
#     Edge 65, Type (0, 1), None
#     Edge 66, Type (0, 1), None
#     Edge 67, Type (0, 1), None
#     Edge 68, Type (0, 1), None
#     Edge 69, Type (0, 1), None
#     Edge 70, Type (0, 1), None
#     Edge 71, Type (0, 1), None
#     Edge 72, Type (0, 1), None
#     Edge 73, Type (0, 1), None
#     Edge 74, Type (0, 1), None
#     Edge 75, Type (0, 1), None
#     Edge 76, Type (0, 1), None
#     Edge 77, Type (0, 1), None
#     Edge 78, Type (0, 1), None
#     Edge 79, Type (0, 1), None
#     Edge 80, Type (0, 1), None
#     Edge 81, Type (0, 1), None
#     Edge 82, Type (0, 1), None
#     Edge 83, Type (0, 1), None
#     Edge 84, Type (0, 1), None
#     Edge 85, Type (0, 1), None
#     Edge 86, Type (0, 1), None
#     Edge 87, Type (0, 1), None
#     Edge 88, Type (0, 1), None
#     Edge 89, Type (0, 1), None
#     Edge 90, Type (0, 1), None
#     Edge 91, Type (0, 1), None
#     Edge 92, Type (0, 1), None
#     Edge 93, Type (0, 1), None
#     Edge 94, Type (0, 1), None
#     Edge 95, Type (0, 1), None
#     Edge 96, Type (0, 1), None
#     Edge 97, Type (0, 1), None
#     Edge 98, Type (0, 1), None
#     Edge 99, Type (0, 1), None
#     Edge 100, Type (0, 1), None
#     Edge 101, Type (0, 1), None
#     Edge 102, Type (0, 1), None
#     Edge 103, Type (0, 1), None
#     Edge 104, Type (0, 1), None
#     Edge 105, Type (0, 1), None
#     Edge 106, Type (0, 1), None
#     Edge 107, Type (0, 1), None
#     Edge 108, Type (0, 1), None
#     Edge 109, Type (0, 1), None
#     Edge 110, Type (0, 1), None
#     Edge 111, Type (0, 1), None
#     Edge 112, Type (0, 1), None
#     Edge 113, Type (0, 1), None
#     Edge 114, Type (0, 1), None
#     Edge 115, Type (0, 1), None
#     Edge 116, Type (0, 1), None
#     Edge 117, Type (0, 1), None
#     Edge 118, Type (0, 1), None
#     Edge 119, Type (0, 1), None
#     Edge 120, Type (0, 1), None
#     Edge 121, Type (0, 1), None
#     Edge 122, Type (0, 1), None
#     Edge 123, Type (0, 1), None
#     Edge 124, Type (0, 1), None
#     Edge 125, Type (0, 1), None
#     Edge 126, Type (0, 1), None
#     Edge 127, Type (0, 1), None
#     Edge 128, Type (0, 1), None
#     Edge 129, Type (0, 1), None
#     Edge 130, Type (0, 1), None
#     Edge 131, Type (0, 1), None
#     Edge 132, Type (0, 1), None
#     Edge 133, Type (0, 1), None
#     Edge 134, Type (0, 1), None
#     Edge 135, Type (0, 1), None
# Relax obj value: 0.339
# Max RMSD: 0.308
# Mean RMSD: 0.215
data_MOF--net-gar--node1-NAHDIM_clean_sbu_0--node2-PAMTOO_clean_sbu_0--edge1-none
_symmetry_space_group_name_H-M    P1
_symmetry_Int_Tables_number       1
_symmetry_cell_setting            triclinic
loop_
_symmetry_equiv_pos_as_xyz
'x, y, z'
_cell_length_a     31.225923
_cell_length_b     30.444692
_cell_length_c     27.359504
_cell_angle_alpha  100.49796
_cell_angle_beta   99.788536
_cell_angle_gamma 108.72006
loop_
_atom_site_label
_atom_site_type_symbol
_atom_site_fract_x
_atom_site_fract_y
_atom_site_fract_z
_atom_type_partial_charge
C0 C 0.22497 0.41132 0.35426 0.0
O1 O 0.24619 0.45461 0.38479 0.0
O2 O 0.1009 0.36145 0.42312 0.0
Zn3 Zn 0.1122 0.41126 0.38128 0.0
O4 O 0.12232 0.47735 0.44215 0.0
C5 C 1.00151 0.40989 0.35061 0.0
O6 O 1.02007 0.45454 0.3781 0.0
O7 O 0.17842 0.39299 0.34797 0.0
C8 C 0.13402 0.5234 0.44881 0.0
O9 O 0.14984 0.54251 0.41311 0.0
C10 C 0.0697 0.35711 0.44845 0.0
O11 O 0.04801 0.38766 0.45053 0.0
O12 O 0.03076 0.38768 0.34246 0.0
C13 C 0.95422 0.80354 0.77168 0.0
O14 O 0.93483 0.76343 0.73538 0.0
O15 O 0.0624 0.73351 0.70874 0.0
Zn16 Zn 0.06928 0.80525 0.75453 0.0
O17 O 0.07715 0.84827 0.7046 0.0
C18 C 0.18029 0.81012 0.79011 0.0
O19 O 0.16194 0.76355 0.7705 0.0
O20 O 1.00117 0.8215 0.78437 0.0
C21 C 0.11074 0.85555 0.68247 0.0
O22 O 0.13854 0.83136 0.68795 0.0
C23 C 0.05796 0.72282 0.65971 0.0
O24 O 0.04675 0.75183 0.63436 0.0
O25 O 0.15086 0.83298 0.793 0.0
C26 C 0.71887 0.90905 0.85259 0.0
O27 O 0.74005 0.95205 0.88374 0.0
O28 O 0.59408 0.85709 0.91976 0.0
Zn29 Zn 0.60508 0.90815 0.87951 0.0
O30 O 0.61533 0.97211 0.9427 0.0
C31 C 0.49435 0.90996 0.84228 0.0
O32 O 0.51312 0.95692 0.85595 0.0
O33 O 0.67218 0.89072 0.84605 0.0
C34 C 0.61088 0.01278 0.94106 0.0
O35 O 0.60811 0.02414 0.89688 0.0
C36 C 0.5618 0.85084 0.94368 0.0
O37 O 0.5383 0.87973 0.94472 0.0
O38 O 0.52326 0.88624 0.84304 0.0
C39 C 0.45932 0.30432 0.274 0.0
O40 O 0.43992 0.26352 0.23872 0.0
O41 O 0.56434 0.23525 0.2079 0.0
Zn42 Zn 0.57452 0.30673 0.25546 0.0
O43 O 0.58196 0.34988 0.20596 0.0
C44 C 0.68719 0.31069 0.28733 0.0
O45 O 0.66925 0.26434 0.26638 0.0
O46 O 0.50631 0.32288 0.28579 0.0
C47 C 0.61342 0.35461 0.18093 0.0
O48 O 0.63902 0.32789 0.18349 0.0
C49 C 0.55422 0.22344 0.15841 0.0
O50 O 0.54041 0.2521 0.13462 0.0
O51 O 0.65731 0.33303 0.29162 0.0
C52 C 0.04866 0.81773 0.1483 0.0
O53 O 0.03233 0.79686 0.09904 0.0
O54 O 0.11423 0.77473 0.07522 0.0
Zn55 Zn 0.13553 0.85521 0.11711 0.0
O56 O 0.1286 0.9282 0.08982 0.0
C57 C 0.23299 0.8441 0.16096 0.0
O58 O 0.23051 0.82479 0.11308 0.0
O59 O 0.09109 0.84618 0.16464 0.0
C60 C 0.09339 0.94194 0.07279 0.0
O61 O 0.05152 0.90945 0.06421 0.0
C62 C 0.10958 0.74125 0.10049 0.0
O63 O 0.11543 0.75516 0.15027 0.0
O64 O 0.20185 0.86227 0.1701 0.0
C65 C 0.60485 0.85379 0.44503 0.0
O66 O 0.61451 0.88265 0.49063 0.0
O67 O 0.52791 0.73335 0.50562 0.0
Zn68 Zn 0.52034 0.80435 0.47511 0.0
O69 O 0.53826 0.88487 0.51691 0.0
C70 C 0.45081 0.81681 0.38549 0.0
O71 O 0.48865 0.85186 0.38562 0.0
O72 O 0.56814 0.81593 0.43092 0.0
C73 C 0.51399 0.91282 0.51317 0.0
O74 O 0.46945 0.89204 0.49022 0.0
C75 C 0.56279 0.72123 0.52713 0.0
O76 O 0.60438 0.75496 0.53956 0.0
O77 O 0.45425 0.79084 0.41781 0.0
C78 C 0.54145 0.30994 0.64318 0.0
O79 O 0.52372 0.2899 0.5939 0.0
O80 O 0.60531 0.26425 0.5682 0.0
Zn81 Zn 0.62765 0.34568 0.60961 0.0
O82 O 0.62258 0.42 0.58533 0.0
C83 C 0.72455 0.33503 0.65411 0.0
O84 O 0.7197 0.30936 0.60804 0.0
O85 O 0.58438 0.33702 0.65863 0.0
C86 C 0.58889 0.43396 0.56451 0.0
O87 O 0.54713 0.40041 0.5482 0.0
C88 C 0.60419 0.23175 0.59438 0.0
O89 O 0.61511 0.24742 0.64451 0.0
O90 O 0.69444 0.35516 0.66113 0.0
C91 C 0.1095 0.36507 0.95112 0.0
O92 O 0.11645 0.39491 0.99539 0.0
O93 O 0.02908 0.2391 0.00366 0.0
Zn94 Zn 1.02136 0.31153 0.97391 0.0
O95 O 0.03471 0.39021 0.01869 0.0
C96 C 0.92636 0.3159 0.90747 0.0
O97 O 0.91943 0.33313 0.95181 0.0
O98 O 0.07369 0.32642 0.93635 0.0
C99 C 0.03001 0.4244 0.9972 0.0
O100 O 1.01539 0.41284 0.94707 0.0
C101 C 0.06379 0.22735 0.02689 0.0
O102 O 0.10494 0.26197 0.04192 0.0
O103 O 0.96128 0.3013 0.90799 0.0
C104 C 0.32891 0.08188 0.29105 0.0
O105 O 0.33216 0.04674 0.25795 0.0
O106 O 0.44629 0.08782 0.29886 0.0
Zn107 Zn 0.40461 0.06867 0.34412 0.0
O108 O 0.4441 0.08325 0.41422 0.0
C109 C 0.38892 0.97205 0.29288 0.0
O110 O 0.42346 0.99187 0.27305 0.0
O111 O 0.35728 0.09856 0.33495 0.0
C112 C 0.47337 0.06221 0.41532 0.0
O113 O 0.47438 0.03446 0.37321 0.0
C114 C 0.49004 0.11042 0.3131 0.0
O115 O 0.51024 0.13247 0.36152 0.0
O116 O 0.37372 0.99778 0.32196 0.0
C117 C 0.33557 0.19437 0.57501 0.0
O118 O 0.30465 0.19592 0.60176 0.0
O119 O 0.31425 0.29678 0.61322 0.0
Zn120 Zn 0.2981 0.25774 0.53549 0.0
O121 O 0.30938 0.29094 0.47023 0.0
C122 C 0.20238 0.20886 0.551 0.0
O123 O 0.21108 0.251 0.58127 0.0
O124 O 0.34027 0.21881 0.54167 0.0
C125 C 0.34552 0.31999 0.46005 0.0
O126 O 0.3851 0.33842 0.49525 0.0
C127 C 0.30225 0.32743 0.64077 0.0
O128 O 0.27623 0.34801 0.61843 0.0
O129 O 0.23124 0.2041 0.52412 0.0
C130 C 0.22013 0.08811 0.78036 0.0
O131 O 0.21782 0.11781 0.75158 0.0
O132 O 0.12481 0.11383 0.74658 0.0
Zn133 Zn 0.16355 0.13138 0.82371 0.0
O134 O 0.1331 0.12028 0.88981 0.0
C135 C 0.22103 0.22296 0.80296 0.0
O136 O 0.18558 0.21004 0.76328 0.0
O137 O 0.1987 0.08661 0.81609 0.0
C138 C 0.10303 0.08396 0.89896 0.0
O139 O 0.08128 0.04475 0.86178 0.0
C140 C 0.09836 0.12976 0.71967 0.0
O141 O 0.08369 0.16189 0.7427 0.0
O142 O 0.21855 0.19819 0.8363 0.0
C143 C 0.35228 0.06196 0.11683 0.0
O144 O 0.39763 0.08439 0.12697 0.0
O145 O 0.41788 0.97532 0.10598 0.0
Zn146 Zn 0.37809 0.99494 0.05726 0.0
O147 O 0.34903 0.93803 -0.0022 0.0
C148 C 0.44374 0.04759 0.00362 0.0
O149 O 0.42765 0.01051 0.96369 0.0
O150 O 0.33411 0.01934 0.08852 0.0
C151 C 0.33126 0.94407 0.95578 0.0
O152 O 0.32527 0.98476 0.95507 0.0
C153 C 0.44587 0.95872 0.08739 0.0
O154 O 0.4482 0.95848 0.03989 0.0
O155 O 0.4224 0.0489 0.03905 0.0
C156 C 0.3155 0.49156 0.03298 0.0
O157 O 0.34475 0.49158 0.00366 0.0
O158 O 0.36111 0.40888 0.14316 0.0
Zn159 Zn 0.36233 0.43518 0.07264 0.0
O160 O 0.34461 0.38944 0.99677 0.0
C161 C 0.4646 0.48984 0.08127 0.0
O162 O 0.47149 0.45215 0.09264 0.0
O163 O 0.31515 0.46821 0.06724 0.0
C164 C 0.37276 0.38454 0.96863 0.0
O165 O 0.41769 0.40158 0.98976 0.0
C166 C 0.32571 0.38889 0.16083 0.0
O167 O 0.28366 0.37868 0.1326 0.0
O168 O 0.42372 0.49114 0.07531 0.0
C169 C 0.82485 0.11229 0.05644 0.0
O170 O 0.78456 0.10766 0.02782 0.0
O171 O 0.84217 0.24077 0.17271 0.0
Zn172 Zn 0.81608 0.19589 0.10502 0.0
O173 O 0.8103 0.22745 0.04811 0.0
C174 C 0.72581 0.17795 0.12184 0.0
O175 O 0.74403 0.22043 0.15422 0.0
O176 O 0.847 0.14968 0.09276 0.0
C177 C 0.78583 0.25375 0.04776 0.0
O178 O 0.77158 0.26655 0.08849 0.0
C179 C 0.85677 0.28582 0.17969 0.0
O180 O 0.86452 0.3054 0.14157 0.0
O181 O 0.75112 0.15883 0.10155 0.0
C182 C 0.30554 0.58585 0.30646 0.0
O183 O 0.30386 0.62391 0.33647 0.0
O184 O 0.17995 0.5687 0.18927 0.0
Zn185 Zn 0.22381 0.5903 0.25719 0.0
O186 O 0.19435 0.59803 0.3143 0.0
C187 C 0.26833 0.67704 0.22887 0.0
O188 O 0.25439 0.65161 0.18101 0.0
O189 O 0.2713 0.56086 0.26835 0.0
C190 C 0.18131 0.63375 0.31709 0.0
O191 O 0.17504 0.65053 0.27655 0.0
C192 C 0.13654 0.55905 0.18382 0.0
O193 O 0.1174 0.55191 0.22224 0.0
O194 O 0.2605 0.65741 0.26475 0.0
C195 C 0.80828 0.98652 0.52723 0.0
O196 O 0.83796 0.98799 0.49823 0.0
O197 O 0.85758 0.90843 0.64085 0.0
Zn198 Zn 0.85929 0.93454 0.57 0.0
O199 O 0.84327 0.88846 0.49467 0.0
C200 C 0.96118 0.99125 0.57928 0.0
O201 O 0.96836 0.95393 0.59135 0.0
O202 O 0.80981 0.96458 0.56259 0.0
C203 C 0.87201 0.88477 0.46691 0.0
O204 O 0.9169 0.90354 0.48829 0.0
C205 C 0.82196 0.88751 0.65783 0.0
O206 O 0.78002 0.8761 0.62869 0.0
O207 O 0.92004 0.99199 0.57276 0.0
C208 C 0.95074 0.12316 0.34141 0.0
O209 O 0.95328 0.09371 0.37048 0.0
O210 O 1.01977 0.07121 0.2185 0.0
Zn211 Zn 0.99598 0.06943 0.29055 0.0
O212 O 0.04175 0.08544 0.36406 0.0
C213 C 0.9377 0.96559 0.27901 0.0
O214 O 0.97316 0.95702 0.26529 0.0
O215 O 0.96783 0.1207 0.30227 0.0
C216 C 0.04208 0.05594 0.39217 0.0
O217 O 1.02015 0.00987 0.37145 0.0
C218 C 0.0559 0.09966 0.20794 0.0
O219 O 0.0881 0.133 0.24585 0.0
O220 O 0.93875 1.00847 0.2878 0.0
C221 C 0.32661 0.60321 0.57718 0.0
O222 O 0.28876 0.60164 0.54621 0.0
O223 O 0.34902 0.74426 0.67807 0.0
Zn224 Zn 0.32413 0.69171 0.61468 0.0
O225 O 0.32642 0.71796 0.5531 0.0
C226 C 0.23876 0.66126 0.64787 0.0
O227 O 0.26397 0.68326 0.69478 0.0
O228 O 0.35056 0.64089 0.61256 0.0
C229 C 0.34753 0.76178 0.55531 0.0
O230 O 0.37592 0.79095 0.59842 0.0
C231 C 0.32762 0.77344 0.6792 0.0
O232 O 0.29466 0.76827 0.63934 0.0
O233 O 0.25734 0.66063 0.61022 0.0
C234 C 0.44935 0.62361 0.84047 0.0
O235 O 0.45315 0.59587 0.87125 0.0
O236 O 0.51945 0.56861 0.71974 0.0
Zn237 Zn 0.49599 0.5696 0.79181 0.0
O238 O 0.54174 0.58582 0.8655 0.0
C239 C 0.43893 0.46565 0.78061 0.0
O240 O 0.47395 0.4568 0.76605 0.0
O241 O 0.46653 0.62029 0.80143 0.0
C242 C 0.54335 0.55607 0.89302 0.0
O243 O 0.52269 0.50996 0.8717 0.0
C244 C 0.54964 0.60134 0.70594 0.0
O245 O 0.5744 0.64209 0.74 0.0
O246 O 0.44003 0.50854 0.78978 0.0
C247 C 0.80622 0.0931 0.80177 0.0
O248 O 0.80629 0.1331 0.82974 0.0
O249 O 0.67399 0.05849 0.68352 0.0
Zn250 Zn 0.72239 0.09405 0.74706 0.0
O251 O 0.69473 0.10933 0.80431 0.0
C252 C 0.78987 0.18012 0.7298 0.0
O253 O 0.81883 0.15808 0.72148 0.0
O254 O 0.7718 0.06806 0.764 0.0
C255 C 0.67452 0.13903 0.79886 0.0
O256 O 0.6688 0.1514 0.75534 0.0
C257 C 0.63105 0.04926 0.68171 0.0
O258 O 0.61572 0.04718 0.72333 0.0
O259 O 0.75124 0.15832 0.73823 0.0
C260 C 0.83728 0.69266 0.07141 0.0
O261 O 0.80643 0.69332 0.09848 0.0
O262 O 0.81562 0.79476 0.11159 0.0
Zn263 Zn 0.79882 0.75628 0.0337 0.0
O264 O 0.8079 0.79001 0.96852 0.0
C265 C 0.70343 0.70803 0.04968 0.0
O266 O 0.71149 0.75072 0.07826 0.0
O267 O 0.8415 0.71769 0.03855 0.0
C268 C 0.84349 0.81915 0.9576 0.0
O269 O 0.88374 0.83697 0.9917 0.0
C270 C 0.8034 0.82522 0.13904 0.0
O271 O 0.7774 0.84575 0.11656 0.0
O272 O 0.73249 0.70262 0.02341 0.0
C273 C 0.85815 0.60346 0.78608 0.0
O274 O 0.88355 0.59174 0.75617 0.0
O275 O 0.93981 0.55329 0.79811 0.0
Zn276 Zn 0.90682 0.56398 0.85183 0.0
O277 O 0.9553 0.59592 0.91692 0.0
C278 C 0.85294 0.47168 0.81118 0.0
O279 O 0.85011 0.49068 0.7719 0.0
O280 O 0.86314 0.59681 0.83093 0.0
C281 C 0.99813 0.60327 0.91875 0.0
O282 O 1.01357 0.603 0.87711 0.0
C283 C 0.95838 0.52177 0.79427 0.0
O284 O 0.95761 0.49601 0.828 0.0
O285 O 0.87146 0.49874 0.85594 0.0
C286 C 0.85348 0.56681 0.57923 0.0
O287 O 0.84982 0.52454 0.58693 0.0
O288 O 0.94113 0.51779 0.56917 0.0
Zn289 Zn 0.91054 0.54383 0.5172 0.0
O290 O 0.86137 0.48434 0.47113 0.0
C291 C 0.9855 0.59697 0.4654 0.0
O292 O 0.99 0.61511 0.42568 0.0
O293 O 0.87926 0.5837 0.55084 0.0
C294 C 0.87714 0.46377 0.43797 0.0
O295 O 0.91882 0.4856 0.43202 0.0
C296 C 0.95154 0.48071 0.55768 0.0
O297 O 0.96008 0.46829 0.51298 0.0
O298 O 0.94482 0.57844 0.47142 0.0
C299 C 0.72204 0.58585 0.28186 0.0
O300 O 0.7138 0.60847 0.24696 0.0
O301 O 0.6243 0.60906 0.2479 0.0
Zn302 Zn 0.66449 0.62954 0.325 0.0
O303 O 0.63553 0.61614 0.39168 0.0
C304 C 0.72602 0.71686 0.29942 0.0
O305 O 0.7003 0.69489 0.2528 0.0
O306 O 0.70349 0.58844 0.31976 0.0
C307 C 0.60344 0.58046 0.39927 0.0
O308 O 0.57765 0.54436 0.35988 0.0
C309 C 0.6038 0.63043 0.22131 0.0
O310 O 0.59775 0.66885 0.24474 0.0
O311 O 0.71611 0.69857 0.33672 0.0
Dy312 Dy 0.13149 0.11323 0.07497 0.0
Dy313 Dy 1.02718 0.05704 0.02819 0.0
C314 C 0.09394 0.08396 0.95189 0.0
O315 O 0.10527 0.17591 0.06263 0.0
O316 O 0.02897 0.1345 0.02113 0.0
O317 O 0.19855 0.1332 0.05782 0.0
O318 O 0.1934 0.15752 0.13514 0.0
O319 O 0.0284 0.07502 0.11328 0.0
O320 O 0.1062 0.11509 0.1482 0.0
O321 O 0.05202 0.99436 0.04112 0.0
O322 O 0.12917 0.03444 0.07708 0.0
O323 O 0.96456 0.99915 0.02792 0.0
O324 O 0.96262 0.04232 0.97435 0.0
C325 C 0.06463 0.17669 0.03747 0.0
O326 O 0.12273 0.11706 0.99203 0.0
O327 O 0.05862 0.04972 0.95889 0.0
C328 C 0.25772 0.13557 0.12229 0.0
C329 C 0.32223 0.08936 0.12658 0.0
C330 C 0.33558 0.13685 0.12203 0.0
C331 C 0.30319 0.15952 0.119 0.0
C332 C 0.2457 0.08987 0.13168 0.0
C333 C 0.2776 0.06659 0.13313 0.0
C334 C 0.2212 0.15367 0.10534 0.0
C335 C 0.06365 0.09575 0.15394 0.0
C336 C 0.09304 0.99273 0.06273 0.0
C337 C 0.90136 0.02512 0.0143 0.0
C338 C 0.84671 0.07722 0.04377 0.0
C339 C 0.88434 0.07728 0.07994 0.0
C340 C 0.91135 0.05128 0.06533 0.0
C341 C 0.8607 0.02089 0.97962 0.0
C342 C 0.83341 0.04682 0.9943 0.0
C343 C 0.93808 0.01192 0.99587 0.0
H344 H 0.36982 0.15508 0.11673 0.0
H345 H 0.31285 0.19463 0.11131 0.0
H346 H 0.21089 0.07111 0.13489 0.0
H347 H 0.26679 0.03014 0.13715 0.0
H348 H 0.89455 0.09952 0.1188 0.0
H349 H 0.94187 0.05447 0.09321 0.0
H350 H 0.8514 1.00041 0.94036 0.0
H351 H 0.80401 0.04566 0.96592 0.0
Dy352 Dy 0.36803 0.81688 0.23367 0.0
Dy353 Dy 0.31047 0.83062 0.31704 0.0
C354 C 0.37118 0.92065 0.28638 0.0
O355 O 0.39616 0.78946 0.30028 0.0
O356 O 0.38325 0.84046 0.36122 0.0
O357 O 0.43582 0.81746 0.22577 0.0
O358 O 0.38028 0.80032 0.15833 0.0
O359 O 0.29828 0.75276 0.2894 0.0
O360 O 0.30938 0.74849 0.2088 0.0
O361 O 0.26152 0.83512 0.24757 0.0
O362 O 0.30897 0.8365 0.19113 0.0
O363 O 0.25197 0.80252 0.3494 0.0
O364 O 0.30884 0.86936 0.39052 0.0
C365 C 0.40551 0.81155 0.34912 0.0
O366 O 0.39476 0.89545 0.26873 0.0
O367 O 0.33348 0.9018 0.30135 0.0
C368 C 0.45351 0.85161 0.1585 0.0
C369 C 0.46297 0.92725 0.11272 0.0
C370 C 0.47131 0.9361 0.1661 0.0
C371 C 0.46767 0.89855 0.18911 0.0
C372 C 0.45287 0.8441 0.10633 0.0
C373 C 0.45837 0.88224 0.08343 0.0
C374 C 0.42503 0.81261 0.17649 0.0
C375 C 0.29181 0.72842 0.24225 0.0
C376 C 0.27001 0.83987 0.20259 0.0
C377 C 0.28725 0.81206 0.4358 0.0
C378 C 0.33035 0.78105 0.51414 0.0
C379 C 0.31769 0.7541 0.46327 0.0
C380 C 0.29665 0.76963 0.42438 0.0
C381 C 0.29971 0.83895 0.48679 0.0
C382 C 0.32128 0.82358 0.52582 0.0
C383 C 0.27446 0.83289 0.39393 0.0
H384 H 0.47477 0.97038 0.18939 0.0
H385 H 0.46921 0.90539 0.22975 0.0
H386 H 0.44195 0.80809 0.08227 0.0
H387 H 0.4521 0.87476 0.04205 0.0
H388 H 0.32396 0.72094 0.45362 0.0
H389 H 0.28862 0.74879 0.38523 0.0
H390 H 0.29405 0.87247 0.49617 0.0
H391 H 0.3301 0.84444 0.56512 0.0
Dy392 Dy 0.5153 0.0701 0.57716 0.0
Dy393 Dy 0.60202 0.0752 0.52574 0.0
C394 C 0.50637 0.06903 0.4625 0.0
O395 O 0.50334 0.99057 0.5411 0.0
O396 O 0.57543 0.99538 0.52868 0.0
O397 O 0.44051 0.04407 0.56551 0.0
O398 O 0.48466 0.09386 0.63726 0.0
O399 O 0.62659 0.07656 0.60677 0.0
O400 O 0.55907 0.04772 0.63281 0.0
O401 O 0.60082 0.15325 0.53718 0.0
O402 O 0.56244 0.14974 0.60093 0.0
O403 O 0.67507 0.11057 0.52996 0.0
O404 O 0.63241 0.05025 0.46604 0.0
C405 C 0.533 0.96881 0.53081 0.0
O406 O 0.50201 0.09177 0.50514 0.0
O407 O 0.53903 0.05112 0.46179 0.0
C408 C 0.41631 0.10564 0.60086 0.0
C409 C 0.36388 0.1643 0.58407 0.0
C410 C 0.3999 0.16486 0.55933 0.0
C411 C 0.426 0.136 0.56787 0.0
C412 C 0.38094 0.10547 0.62619 0.0
C413 C 0.35504 0.1346 0.61803 0.0
C414 C 0.44243 0.07359 0.60767 0.0
C415 C 0.6036 0.05648 0.63759 0.0
C416 C 0.58644 0.17587 0.57383 0.0
C417 C 0.7088 0.05544 0.50031 0.0
C418 C 0.77406 0.01041 0.5185 0.0
C419 C 0.73917 1.00579 0.54571 0.0
C420 C 0.70681 0.0281 0.53666 0.0
C421 C 0.74362 0.06041 0.47334 0.0
C422 C 0.776 0.03815 0.48236 0.0
C423 C 0.67467 0.07876 0.49073 0.0
H424 H 0.40798 0.1876 0.53342 0.0
H425 H 0.45354 0.13712 0.54834 0.0
H426 H 0.37316 0.08257 0.65197 0.0
H427 H 0.32775 0.13344 0.63803 0.0
H428 H 0.73665 0.98472 0.57374 0.0
H429 H 0.68008 0.02388 0.55789 0.0
H430 H 0.74572 0.08139 0.44522 0.0
H431 H 0.80245 0.04255 0.46075 0.0
Dy432 Dy 0.36692 0.31691 0.80119 0.0
Dy433 Dy 0.29849 0.37804 0.80843 0.0
C434 C 0.40088 0.42604 0.7896 0.0
O435 O 0.38584 0.35768 0.88462 0.0
O436 O 0.3164 0.36629 0.88747 0.0
O437 O 0.43585 0.31451 0.82338 0.0
O438 O 0.38051 0.25364 0.76921 0.0
O439 O 0.25376 0.30012 0.78734 0.0
O440 O 0.30494 0.26894 0.82331 0.0
O441 O 0.30235 0.36883 0.72577 0.0
O442 O 0.32984 0.30683 0.71892 0.0
O443 O 0.23285 0.3859 0.7816 0.0
O444 O 0.28169 0.43483 0.85126 0.0
C445 C 0.35688 0.36695 0.9112 0.0
O446 O 0.40296 0.38319 0.77821 0.0
O447 O 0.36731 0.4339 0.80908 0.0
C448 C 0.45521 0.2793 0.75014 0.0
C449 C 0.512 0.29928 0.68014 0.0
C450 C 0.46325 0.27687 0.66257 0.0
C451 C 0.4352 0.26723 0.69709 0.0
C452 C 0.50404 0.30052 0.7676 0.0
C453 C 0.53211 0.31058 0.73307 0.0
C454 C 0.42558 0.27538 0.7876 0.0
C455 C 0.26188 0.2667 0.80734 0.0
C456 C 0.31264 0.33525 0.69788 0.0
C457 C 0.20255 0.40434 0.85332 0.0
C458 C 0.14139 0.37831 0.91732 0.0
C459 C 0.14151 0.34377 0.87566 0.0
C460 C 0.17203 0.35653 0.84427 0.0
C461 C 0.20158 0.43904 0.89412 0.0
C462 C 0.17152 0.42617 0.92596 0.0
C463 C 0.23855 0.41718 0.82406 0.0
H464 H 0.44654 0.26773 0.62212 0.0
H465 H 0.39771 0.25149 0.68219 0.0
H466 H 0.52046 0.31056 0.80824 0.0
H467 H 0.56956 0.3274 0.7479 0.0
H468 H 0.11869 0.30667 0.86791 0.0
H469 H 0.1723 0.32867 0.81355 0.0
H470 H 0.22476 0.47598 0.90192 0.0
H471 H 0.17177 0.45381 0.95725 0.0
Dy472 Dy 0.10731 0.0611 0.55788 0.0
Dy473 Dy 0.05106 0.13507 0.55288 0.0
C474 C 1.00072 0.02965 0.57035 0.0
O475 O 0.06649 0.04222 0.47557 0.0
O476 O 0.06159 0.11493 0.47328 0.0
O477 O 0.10978 0.99119 0.52976 0.0
O478 O 0.16591 0.04366 0.59127 0.0
O479 O 0.12746 0.17923 0.56989 0.0
O480 O 0.15616 0.12342 0.53611 0.0
O481 O 0.06036 0.13176 0.63544 0.0
O482 O 0.11651 0.09769 0.64091 0.0
O483 O 0.04497 0.20288 0.58287 0.0
O484 O 0.99797 0.1554 0.51158 0.0
C485 C 0.05951 0.07256 0.44934 0.0
O486 O 0.04143 0.02502 0.57945 0.0
O487 O 0.99479 0.06558 0.55286 0.0
C488 C 0.13909 0.96347 0.59755 0.0
C489 C 0.11998 0.8923 0.65268 0.0
C490 C 0.09784 0.9259 0.65588 0.0
C491 C 0.10754 0.96127 0.62885 0.0
C492 C 0.16157 0.93033 0.59447 0.0
C493 C 0.15232 0.89519 0.62204 0.0
C494 C 0.14608 0.99857 0.56617 0.0
C495 C 0.15966 0.16838 0.5506 0.0
C496 C 0.09071 0.11831 0.66253 0.0
C497 C 1.02718 0.23821 0.51678 0.0
C498 C 0.05562 0.31651 0.47262 0.0
C499 C 0.07787 0.28295 0.47012 0.0
C500 C 0.06381 0.24423 0.49205 0.0
C501 C 1.00468 0.27132 0.5192 0.0
C502 C 1.01874 0.31014 0.4973 0.0
C503 C 1.01421 0.19862 0.54184 0.0
H504 H 0.07326 0.92514 0.67957 0.0
H505 H 0.09006 0.98673 0.63211 0.0
H506 H 0.18592 0.93133 0.57043 0.0
H507 H 0.1702 0.87002 0.61893 0.0
H508 H 0.1062 0.28659 0.45129 0.0
H509 H 0.08179 0.21911 0.49006 0.0
H510 H 0.97648 0.26737 0.5383 0.0
H511 H 1.00061 0.33511 0.4997 0.0
Dy512 Dy 0.33504 0.90338 0.79108 0.0
Dy513 Dy 0.33905 0.81761 0.84351 0.0
C514 C 0.33049 0.91282 0.90817 0.0
O515 O 0.41431 0.91195 0.81021 0.0
O516 O 0.4177 0.85138 0.84788 0.0
O517 O 0.36384 0.97844 0.79299 0.0
O518 O 0.31079 0.92867 0.7268 0.0
O519 O 0.35706 0.80319 0.76889 0.0
O520 O 0.31348 0.83831 0.72754 0.0
O521 O 0.25948 0.80496 0.81658 0.0
O522 O 0.2581 0.87434 0.79617 0.0
O523 O 0.31048 0.74114 0.834 0.0
O524 O 0.36282 0.78673 0.90311 0.0
C525 C 0.43942 0.88829 0.8307 0.0
O526 O 0.32358 0.92767 0.86687 0.0
O527 O 0.34204 0.87507 0.90932 0.0
C528 C 0.30411 1.00248 0.75769 0.0
C529 C 0.24829 0.05793 0.77183 0.0
C530 C 0.25065 0.02579 0.80207 0.0
C531 C 0.27823 0.99827 0.79496 0.0
C532 C 0.30137 0.03384 0.72679 0.0
C533 C 0.27363 0.06144 0.73377 0.0
C534 C 0.3333 0.97352 0.75141 0.0
C535 C 0.3343 0.80751 0.72678 0.0
C536 C 0.23525 0.83238 0.80418 0.0
C537 C 0.36889 0.71328 0.86655 0.0
C538 C 0.42312 0.65592 0.85015 0.0
C539 C 0.41562 0.68354 0.81599 0.0
C540 C 0.38886 0.71203 0.8242 0.0
C541 C 0.37706 0.6866 0.90129 0.0
C542 C 0.40394 0.6582 0.89322 0.0
C543 C 0.34031 0.74298 0.87481 0.0
H544 H 0.2314 0.02201 0.83144 0.0
H545 H 0.27951 0.97383 0.81884 0.0
H546 H 0.3207 0.03705 0.69749 0.0
H547 H 0.27234 0.08573 0.70961 0.0
H548 H 0.42998 0.68279 0.78262 0.0
H549 H 0.38349 0.73281 0.79717 0.0
H550 H 0.36244 0.68751 0.93449 0.0
H551 H 0.40926 0.63766 0.92056 0.0
Dy552 Dy 0.58822 0.14879 0.0215 0.0
Dy553 Dy 0.58543 0.08289 0.09748 0.0
C554 C 0.60554 0.04753 0.986 0.0
O555 O 0.51861 0.09021 0.99014 0.0
O556 O 0.51292 0.07683 0.06816 0.0
O557 O 0.56299 0.16848 0.95343 0.0
O558 O 0.62672 0.21662 0.00834 0.0
O559 O 0.58331 0.15462 0.14307 0.0
O560 O 0.55118 0.1771 0.07545 0.0
O561 O 0.65712 0.10973 0.09069 0.0
O562 O 0.65141 0.18075 0.08794 0.0
O563 O 0.61894 0.0798 0.17177 0.0
O564 O 0.5571 0.01994 0.12473 0.0
C565 C 0.49365 0.07331 0.02077 0.0
O566 O 0.61371 0.09228 0.98269 0.0
O567 O 0.58868 0.03349 0.0244 0.0
C568 C 0.62756 0.19854 0.92244 0.0
C569 C 0.65919 0.16075 0.8413 0.0
C570 C 0.67536 0.15695 0.89064 0.0
C571 C 0.66014 0.17624 0.93099 0.0
C572 C 0.61269 0.20425 0.87365 0.0
C573 C 0.62891 0.18582 0.83316 0.0
C574 C 0.602 0.20436 0.96127 0.0
C575 C 0.5619 0.18191 0.12515 0.0
C576 C 0.67624 0.15574 0.10138 0.0
C577 C 0.55738 0.05494 0.20872 0.0
C578 C 0.51713 0.09764 0.27822 0.0
C579 C 0.49756 0.08604 0.22558 0.0
C580 C 0.51752 0.06515 0.1913 0.0
C581 C 0.57762 0.06709 0.26148 0.0
C582 C 0.55745 0.08829 0.29625 0.0
C583 C 0.58273 0.04311 0.17122 0.0
H584 H 0.69949 0.13873 0.89815 0.0
H585 H 0.67207 0.17137 0.96848 0.0
H586 H 0.58689 0.22057 0.86641 0.0
H587 H 0.61633 0.18949 0.79527 0.0
H588 H 0.4662 0.09242 0.21092 0.0
H589 H 0.50181 0.05757 0.15092 0.0
H590 H 0.60937 0.06117 0.27556 0.0
H591 H 0.57248 0.09604 0.33699 0.0
Dy592 Dy 0.3022 0.3077 0.28511 0.0
Dy593 Dy 0.37756 0.40334 0.33506 0.0
C594 C 0.34448 0.33249 0.40837 0.0
O595 O 0.24861 0.34272 0.30643 0.0
O596 O 0.30647 0.41464 0.34412 0.0
O597 O 0.25105 0.24154 0.28818 0.0
O598 O 0.27179 0.24793 0.21776 0.0
O599 O 0.36897 0.39726 0.24892 0.0
O600 O 0.29398 0.3475 0.22375 0.0
O601 O 0.433 0.36862 0.32465 0.0
O602 O 0.37541 0.3 0.27629 0.0
O603 O 0.4362 0.46448 0.33236 0.0
O604 O 0.3992 0.47051 0.39084 0.0
C605 C 0.26045 0.38784 0.33275 0.0
O606 O 0.30946 0.30672 0.36887 0.0
O607 O 0.37933 0.36802 0.40215 0.0
C608 C 0.26729 0.17812 0.24554 0.0
C609 C 0.30574 0.11201 0.27205 0.0
C610 C 0.25965 0.10557 0.27398 0.0
C611 C 0.24039 0.13868 0.26069 0.0
C612 C 0.31273 0.18283 0.24164 0.0
C613 C 0.33172 0.14991 0.2546 0.0
C614 C 0.25212 0.21871 0.24371 0.0
C615 C 0.33005 0.37713 0.21292 0.0
C616 C 0.4219 0.3256 0.2939 0.0
C617 C 0.41086 0.52951 0.34655 0.0
C618 C 0.34564 0.57115 0.31834 0.0
C619 C 0.35216 0.53699 0.28156 0.0
C620 C 0.38489 0.51669 0.29544 0.0
C621 C 0.4086 0.56813 0.38146 0.0
C622 C 0.3761 0.5889 0.36743 0.0
C623 C 0.42633 0.49368 0.3656 0.0
H624 H 0.23939 0.07624 0.28755 0.0
H625 H 0.20557 0.13494 0.26476 0.0
H626 H 0.33423 0.21267 0.2299 0.0
H627 H 0.3673 0.15493 0.25259 0.0
H628 H 0.33016 0.52388 0.24288 0.0
H629 H 0.38645 0.48774 0.2672 0.0
H630 H 0.42868 0.57954 0.42071 0.0
H631 H 0.37256 0.61625 0.39617 0.0
Dy632 Dy 0.60965 0.55997 0.05803 0.0
Dy633 Dy 0.55303 0.63372 0.05419 0.0
C634 C 0.50398 0.52817 0.07226 0.0
O635 O 0.56791 0.5415 0.97605 0.0
O636 O 0.5638 0.61458 0.97464 0.0
O637 O 0.61194 0.49015 0.0289 0.0
O638 O 0.66882 0.54262 0.08971 0.0
O639 O 0.62895 0.67858 0.06944 0.0
O640 O 0.65816 0.62274 0.03665 0.0
O641 O 0.56537 0.63297 0.13755 0.0
O642 O 0.6185 0.59495 0.14161 0.0
O643 O 0.54556 0.70102 0.08304 0.0
O644 O 0.49818 0.65172 0.01284 0.0
C645 C 0.56109 0.57217 0.9502 0.0
O646 O 0.54467 0.52351 0.08074 0.0
O647 O 0.49773 0.56402 0.05496 0.0
C648 C 0.64219 0.46251 0.09612 0.0
C649 C 0.62285 0.39137 0.1512 0.0
C650 C 0.6039 0.42751 0.15772 0.0
C651 C 0.6137 0.46283 0.13068 0.0
C652 C 0.66146 0.42679 0.08964 0.0
C653 C 0.65212 0.39165 0.11721 0.0
C654 C 0.64871 0.49752 0.06467 0.0
C655 C 0.66123 0.66762 0.05045 0.0
C656 C 0.59457 0.61773 0.16395 0.0
C657 C 0.52512 0.73398 0.01569 0.0
C658 C 0.54929 0.81051 0.96841 0.0
C659 C 0.5767 0.782 0.97216 0.0
C660 C 0.56475 0.74414 0.99567 0.0
C661 C 0.49717 0.76161 0.01121 0.0
C662 C 0.50919 0.79968 0.98793 0.0
C663 C 0.51391 0.69529 0.04215 0.0
H664 H 0.58172 0.42873 0.18398 0.0
H665 H 0.59859 0.4902 0.13639 0.0
H666 H 0.68327 0.42575 0.06293 0.0
H667 H 0.66742 0.36441 0.11144 0.0
H668 H 0.60758 0.78912 0.95731 0.0
H669 H 0.58667 0.72297 -0.0014 0.0
H670 H 0.4662 0.75385 0.02589 0.0
H671 H 0.48694 0.82051 0.98511 0.0
Dy672 Dy 0.84512 0.40617 0.29369 0.0
Dy673 Dy 0.8452 0.31787 0.34306 0.0
C674 C 0.85043 0.41612 0.40631 0.0
O675 O 0.92371 0.41879 0.32697 0.0
O676 O 0.9215 0.34449 0.33418 0.0
O677 O 0.87236 0.48315 0.30893 0.0
O678 O 0.82624 0.43975 0.23478 0.0
O679 O 0.84466 0.29091 0.26254 0.0
O680 O 0.85716 0.3579 0.23104 0.0
O681 O 0.76697 0.31285 0.32871 0.0
O682 O 0.76507 0.36624 0.27973 0.0
O683 O 0.81575 0.24327 0.34296 0.0
O684 O 0.87258 0.29247 0.40585 0.0
C685 C 0.94645 0.38879 0.33346 0.0
O686 O 0.82134 0.4131 0.36515 0.0
O687 O 0.8716 0.3856 0.40438 0.0
C688 C 0.81583 0.5102 0.2708 0.0
C689 C 0.75386 0.55931 0.27775 0.0
C690 C 0.76056 0.5323 0.31282 0.0
C691 C 0.79113 0.50775 0.3092 0.0
C692 C 0.80921 0.53692 0.23562 0.0
C693 C 0.77838 0.56131 0.239 0.0
C694 C 0.84629 0.48262 0.26584 0.0
C695 C 0.85434 0.31364 0.22731 0.0
C696 C 0.74234 0.33343 0.30185 0.0
C697 C 0.87556 0.21692 0.37322 0.0
C698 C 0.92628 0.15672 0.35322 0.0
C699 C 0.92169 0.18741 0.32175 0.0
C700 C 0.89666 0.21729 0.33175 0.0
C701 C 0.88085 0.18722 0.40542 0.0
C702 C 0.90607 0.15738 0.39556 0.0
C703 C 0.8483 0.2477 0.38236 0.0
H704 H 0.74205 0.5299 0.3429 0.0
H705 H 0.79528 0.48661 0.33626 0.0
H706 H 0.82759 0.53862 0.2054 0.0
H707 H 0.77392 0.58181 0.21134 0.0
H708 H 0.93698 0.188 0.28907 0.0
H709 H 0.89336 0.2404 0.30672 0.0
H710 H 0.8652 0.1868 0.43785 0.0
H711 H 0.90919 0.13441 0.42082 0.0
Dy712 Dy 0.13349 0.6663 0.54966 0.0
Dy713 Dy 0.0885 0.58191 0.5944 0.0
C714 C 0.12677 0.55642 0.49387 0.0
O715 O 0.06731 0.62344 0.49187 0.0
O716 O 1.02603 0.58623 0.5439 0.0
O717 O 0.13596 0.72026 0.5077 0.0
O718 O 0.20001 0.71817 0.55104 0.0
O719 O 0.07761 0.64711 0.64398 0.0
O720 O 0.08799 0.69592 0.58932 0.0
O721 O 0.16487 0.60327 0.60722 0.0
O722 O 0.17043 0.67761 0.63049 0.0
O723 O 0.10456 0.56139 0.66438 0.0
O724 O 0.04791 0.51241 0.60064 0.0
C725 C 1.02765 0.60115 0.50181 0.0
O726 O 0.14782 0.60366 0.50279 0.0
O727 O 0.09763 0.53919 0.52152 0.0
C728 C 0.19356 0.71845 0.46463 0.0
C729 C 0.18565 0.66336 0.36747 0.0
C730 C 0.21011 0.65623 0.41131 0.0
C731 C 0.21432 0.68369 0.45934 0.0
C732 C 0.17261 0.72851 0.42061 0.0
C733 C 0.16875 0.70111 0.37215 0.0
C734 C 0.18079 0.73132 0.51279 0.0
C735 C 0.07481 0.68627 0.63049 0.0
C736 C 0.1887 0.64578 0.63632 0.0
C737 C 0.03759 0.5174 0.6833 0.0
C738 C 0.98434 0.51824 0.75506 0.0
C739 C 0.98485 0.54733 0.72068 0.0
C740 C 1.01156 0.54713 0.68534 0.0
C741 C 0.0368 0.48755 0.71664 0.0
C742 C 1.01012 0.48796 0.75265 0.0
C743 C 0.0683 0.52157 0.64905 0.0
H744 H 0.22533 0.62878 0.40878 0.0
H745 H 0.23107 0.67504 0.49236 0.0
H746 H 0.15604 0.75484 0.42379 0.0
H747 H 0.15097 0.70819 0.33859 0.0
H748 H 0.96521 0.57091 0.72142 0.0
H749 H 1.0123 0.57059 0.65985 0.0
H750 H 0.05732 0.46483 0.71544 0.0
H751 H 1.0103 0.46536 0.77894 0.0
Dy752 Dy 0.86867 0.81691 0.30045 0.0
Dy753 Dy 0.79691 0.87416 0.30552 0.0
C754 C 0.89962 0.92552 0.28766 0.0
O755 O 0.88625 0.85842 0.38343 0.0
O756 O 0.81562 0.86439 0.38532 0.0
O757 O 0.93818 0.8167 0.32475 0.0
O758 O 0.88495 0.75524 0.26905 0.0
O759 O 0.7549 0.79527 0.28515 0.0
O760 O 0.80813 0.76752 0.32297 0.0
O761 O 0.80208 0.8659 0.22349 0.0
O762 O 0.83161 0.80545 0.21769 0.0
O763 O 0.72961 0.87769 0.27663 0.0
O764 O 0.77624 0.92889 0.34626 0.0
C765 C 0.85656 0.86659 0.40953 0.0
O766 O 0.9032 0.88332 0.27723 0.0
O767 O 0.86493 0.93211 0.30604 0.0
C768 C 0.96066 0.78361 0.25283 0.0
C769 C 1.01859 0.80591 0.18441 0.0
C770 C 0.97082 0.77783 0.16568 0.0
C771 C 0.94218 0.76692 0.19939 0.0
C772 C 1.00869 0.81045 0.27155 0.0
C773 C 0.03729 0.82161 0.23779 0.0
C774 C 0.92969 0.77814 0.28889 0.0
C775 C 0.76452 0.7632 0.30648 0.0
C776 C 0.81356 0.83308 0.19612 0.0
C777 C 0.69685 0.89484 0.34666 0.0
C778 C 0.63536 0.86744 0.40999 0.0
C779 C 0.63754 0.83292 0.36977 0.0
C780 C 0.66836 0.84639 0.33874 0.0
C781 C 0.69329 0.92942 0.38559 0.0
C782 C 0.66316 0.91588 0.41714 0.0
C783 C 0.73338 0.90898 0.31823 0.0
H784 H 0.95523 0.76497 0.12484 0.0
H785 H 0.90534 0.74645 0.18343 0.0
H786 H 1.02396 0.82396 0.31245 0.0
H787 H 0.074 0.84284 0.25358 0.0
H788 H 0.61653 0.79537 0.36328 0.0
H789 H 0.67057 0.81866 0.30935 0.0
H790 H 0.71467 0.96684 0.3923 0.0
H791 H 0.66164 0.94346 0.44722 0.0
Dy792 Dy 0.86752 0.33358 0.74303 0.0
Dy793 Dy 0.79128 0.32148 0.80995 0.0
C794 C 0.84782 0.42175 0.80194 0.0
O795 O 0.90873 0.33302 0.82146 0.0
O796 O 0.84858 0.30583 0.85933 0.0
O797 O 0.93611 0.37328 0.73659 0.0
O798 O 0.88807 0.31456 0.67305 0.0
O799 O 0.77501 0.25161 0.75378 0.0
O800 O 0.8472 0.2575 0.74263 0.0
O801 O 0.75765 0.34517 0.74503 0.0
O802 O 0.79705 0.32153 0.68833 0.0
O803 O 0.72557 0.27849 0.82141 0.0
O804 O 0.76524 0.3489 0.87214 0.0
C805 C 0.89305 0.31595 0.859 0.0
O806 O 0.85436 0.40158 0.75909 0.0
O807 O 0.83721 0.39787 0.83571 0.0
C808 C 0.93376 0.38376 0.65409 0.0
C809 C 0.94656 0.4477 0.59126 0.0
C810 C 0.91845 0.44929 0.62594 0.0
C811 C 0.91192 0.41746 0.65682 0.0
C812 C 0.96131 0.38128 0.61904 0.0
C813 C 0.96735 0.41288 0.58731 0.0
C814 C 0.92714 0.35163 0.68811 0.0
C815 C 0.80455 0.23191 0.74094 0.0
C816 C 0.76215 0.33539 0.69784 0.0
C817 C 0.73773 0.28728 0.90954 0.0
C818 C 0.76949 0.26572 0.00049 0.0
C819 C 0.77935 0.24646 0.95515 0.0
C820 C 0.7635 0.25708 0.91003 0.0
C821 C 0.72657 0.30557 0.9543 0.0
C822 C 0.74216 0.29456 -0.00031 0.0
C823 C 0.7326 0.30752 0.86582 0.0
H824 H 0.90122 0.47503 0.62916 0.0
H825 H 0.8901 0.41952 0.68325 0.0
H826 H 0.97803 0.35507 0.61624 0.0
H827 H 0.98865 0.41052 0.56028 0.0
H828 H 0.79962 0.22348 0.95444 0.0
H829 H 0.77292 0.243 0.87584 0.0
H830 H 0.70761 0.32979 0.9546 0.0
H831 H 0.73363 0.30939 0.03419 0.0
Dy832 Dy 0.79765 0.8072 0.78324 0.0
Dy833 Dy 0.87243 0.90268 0.8325 0.0
C834 C 0.8412 0.83215 0.90612 0.0
O835 O 0.74309 0.84101 0.80412 0.0
O836 O 0.80077 0.91298 0.84225 0.0
O837 O 0.75067 0.7395 0.78845 0.0
O838 O 0.76516 0.74774 0.71565 0.0
O839 O 0.86447 0.89679 0.74651 0.0
O840 O 0.78982 0.84609 0.72073 0.0
O841 O 0.92795 0.86793 0.82225 0.0
O842 O 0.8705 0.79925 0.77401 0.0
O843 O 0.92999 0.96407 0.82832 0.0
O844 O 0.89525 0.96974 0.88885 0.0
C845 C 0.75466 0.886 0.83074 0.0
O846 O 0.80508 0.80747 0.86742 0.0
O847 O 0.8761 0.86703 0.89909 0.0
C848 C 0.77174 0.68065 0.74351 0.0
C849 C 0.82661 0.62719 0.7688 0.0
C850 C 0.78507 0.62045 0.78472 0.0
C851 C 0.75741 0.64659 0.77151 0.0
C852 C 0.81251 0.68579 0.7261 0.0
C853 C 0.83915 0.65855 0.73772 0.0
C854 C 0.75106 0.71771 0.74314 0.0
C855 C 0.82589 0.87604 0.71013 0.0
C856 C 0.91691 0.82482 0.79169 0.0
C857 C 0.90495 0.02922 0.84453 0.0
C858 C 0.84437 0.07586 0.81515 0.0
C859 C 0.85015 0.04089 0.7786 0.0
C860 C 0.88037 0.01801 0.79307 0.0
C861 C 0.90295 0.06784 0.8798 0.0
C862 C 0.87288 0.09116 0.86516 0.0
C863 C 0.92094 0.99313 0.86257 0.0
H864 H 0.77465 0.5959 0.80834 0.0
H865 H 0.72657 0.64262 0.78609 0.0
H866 H 0.82499 0.71218 0.70508 0.0
H867 H 0.87095 0.66406 0.72477 0.0
H868 H 0.82945 0.02933 0.73936 0.0
H869 H 0.8814 0.98886 0.76462 0.0
H870 H 0.92157 0.07775 0.9195 0.0
H871 H 0.86953 0.11866 0.89389 0.0
Dy872 Dy 0.62853 0.60744 0.57747 0.0
Dy873 Dy 0.52505 0.55125 0.5275 0.0
C874 C 0.59451 0.57846 0.45201 0.0
O875 O 0.60358 0.66975 0.5624 0.0
O876 O 0.5268 0.62903 0.52264 0.0
O877 O 0.69637 0.65165 0.57239 0.0
O878 O 0.68786 0.63063 0.6423 0.0
O879 O 0.52686 0.5632 0.61287 0.0
O880 O 0.59791 0.62223 0.64535 0.0
O881 O 0.55112 0.48808 0.53128 0.0
O882 O 0.62487 0.52825 0.5799 0.0
O883 O 0.46483 0.4881 0.52143 0.0
O884 O 0.45825 0.54082 0.48123 0.0
C885 C 0.56294 0.67081 0.53813 0.0
O886 O 0.62803 0.60293 0.49349 0.0
O887 O 0.55363 0.55067 0.45614 0.0
C888 C 0.75544 0.63073 0.61432 0.0
C889 C 0.82273 0.591 0.59646 0.0
C890 C 0.82674 0.63613 0.58785 0.0
C891 C 0.79329 0.65579 0.59667 0.0
C892 C 0.7527 0.58683 0.6256 0.0
C893 C 0.78631 0.56729 0.61706 0.0
C894 C 0.71727 0.64869 0.61625 0.0
C895 C 0.55854 0.59475 0.65249 0.0
C896 C 0.59008 0.48608 0.55801 0.0
C897 C 0.39918 0.51063 0.52065 0.0
C898 C 0.34819 0.56215 0.56469 0.0
C899 C 0.3863 0.5507 0.6002 0.0
C900 C 0.40865 0.52456 0.57464 0.0
C901 C 0.36023 0.51359 0.48912 0.0
C902 C 0.33383 0.53795 0.50898 0.0
C903 C 0.43621 0.50427 0.49705 0.0
H904 H 0.85472 0.65547 0.57243 0.0
H905 H 0.79606 0.6898 0.58802 0.0
H906 H 0.72386 0.56681 0.63942 0.0
H907 H 0.78248 0.53261 0.6244 0.0
H908 H 0.36596 0.56114 0.58845 0.0
H909 H 0.43699 0.51878 0.59794 0.0
H910 H 0.35304 0.5013 0.44786 0.0
H911 H 0.30695 0.54339 0.48281 0.0
Dy912 Dy 1.02265 0.57581 0.07359 0.0
Dy913 Dy 0.11579 0.59015 0.02914 0.0
C914 C 1.02607 0.59918 0.96449 0.0
O915 O 1.01363 0.4973 0.0357 0.0
O916 O 0.08612 0.50835 0.02128 0.0
O917 O 0.94763 0.54691 0.05907 0.0
O918 O 0.98908 0.59505 0.13277 0.0
O919 O 0.13549 0.59058 0.11113 0.0
O920 O 0.06577 0.55342 0.1294 0.0
O921 O 0.1146 0.66742 0.04501 0.0
O922 O 0.06711 0.65693 0.10041 0.0
O923 O 0.19024 0.62517 0.04139 0.0
O924 O 0.15064 0.56901 0.97238 0.0
C925 C 0.0451 0.4788 0.02384 0.0
O926 O 1.00934 0.60175 0.0048 0.0
O927 O 0.06249 0.58719 0.96228 0.0
C928 C 0.9202 0.60553 0.09531 0.0
C929 C 0.86615 0.66295 0.07963 0.0
C930 C 0.9033 0.66592 0.0562 0.0
C931 C 0.93023 0.63776 0.06429 0.0
C932 C 0.88348 0.60274 0.11916 0.0
C933 C 0.85682 0.63131 0.1116 0.0
C934 C 0.94751 0.57441 0.10167 0.0
C935 C 0.11102 0.56648 0.13846 0.0
C936 C 0.09464 0.68609 0.07819 0.0
C937 C 0.22444 0.57049 0.01088 0.0
C938 C 0.28425 0.51898 0.02608 0.0
C939 C 0.24981 0.51643 0.05369 0.0
C940 C 0.22009 0.54191 0.04606 0.0
C941 C 0.25895 0.57352 0.98369 0.0
C942 C 0.28865 0.54808 0.99125 0.0
C943 C 0.19202 0.59575 0.0013 0.0
H944 H 0.91178 0.69017 0.03184 0.0
H945 H 0.95879 0.64104 0.046 0.0
H946 H 0.87525 0.57829 0.14337 0.0
H947 H 0.82857 0.62821 0.13049 0.0
H948 H 0.24547 0.4944 0.08075 0.0
H949 H 0.19339 0.53894 0.06723 0.0
H950 H 0.2627 0.59523 0.95627 0.0
H951 H 0.31484 0.55099 0.96941 0.0
loop_
_geom_bond_atom_site_label_1
_geom_bond_atom_site_label_2
_geom_bond_distance
_geom_bond_site_symmetry_2
_ccdc_geom_bond_type
C0 O1 1.160 . S
C0 O7 1.185 . S
O1 C0 1.160 . S
O2 Zn3 1.899 . S
O2 C10 1.284 . S
Zn3 O2 1.899 . S
Zn3 O4 2.032 . S
Zn3 O7 2.086 . S
Zn3 O12 1.977 . S
O4 Zn3 2.032 . S
O4 C8 1.278 . S
C5 O6 1.203 . S
C5 O12 1.267 1_655 S
O6 C5 1.203 . S
O7 C0 1.185 . S
O7 Zn3 2.086 . S
C8 O4 1.278 . S
C8 O9 1.211 . S
O9 C8 1.211 . S
C10 O2 1.284 . S
C10 O11 1.273 . S
O11 C10 1.273 . S
O12 Zn3 1.977 . S
O12 C5 1.267 1_455 S
C13 O14 1.160 . S
C13 O20 1.185 1_655 S
O14 C13 1.160 . S
O15 Zn16 1.899 . S
O15 C23 1.284 . S
Zn16 O15 1.899 . S
Zn16 O17 2.032 . S
Zn16 O20 2.086 . S
Zn16 O25 1.977 . S
O17 Zn16 2.032 . S
O17 C21 1.278 . S
C18 O19 1.203 . S
C18 O25 1.267 . S
O19 C18 1.203 . S
O20 C13 1.185 1_455 S
O20 Zn16 2.086 . S
C21 O17 1.278 . S
C21 O22 1.211 . S
O22 C21 1.211 . S
C23 O15 1.284 . S
C23 O24 1.273 . S
O24 C23 1.273 . S
O25 Zn16 1.977 . S
O25 C18 1.267 . S
C26 O27 1.160 . S
C26 O33 1.185 . S
O27 C26 1.160 . S
O28 Zn29 1.899 . S
O28 C36 1.284 . S
Zn29 O28 1.899 . S
Zn29 O30 2.032 . S
Zn29 O33 2.086 . S
Zn29 O38 1.977 . S
O30 Zn29 2.032 . S
O30 C34 1.278 . S
C31 O32 1.203 . S
C31 O38 1.267 . S
O32 C31 1.203 . S
O33 C26 1.185 . S
O33 Zn29 2.086 . S
C34 O30 1.278 . S
C34 O35 1.211 . S
O35 C34 1.211 . S
C36 O28 1.284 . S
C36 O37 1.273 . S
O37 C36 1.273 . S
O38 Zn29 1.977 . S
O38 C31 1.267 . S
C39 O40 1.160 . S
C39 O46 1.185 . S
O40 C39 1.160 . S
O41 Zn42 1.899 . S
O41 C49 1.284 . S
Zn42 O41 1.899 . S
Zn42 O43 2.032 . S
Zn42 O46 2.086 . S
Zn42 O51 1.977 . S
O43 Zn42 2.032 . S
O43 C47 1.278 . S
C44 O45 1.203 . S
C44 O51 1.267 . S
O45 C44 1.203 . S
O46 C39 1.185 . S
O46 Zn42 2.086 . S
C47 O43 1.278 . S
C47 O48 1.211 . S
O48 C47 1.211 . S
C49 O41 1.284 . S
C49 O50 1.273 . S
O50 C49 1.273 . S
O51 Zn42 1.977 . S
O51 C44 1.267 . S
C52 O53 1.160 . S
C52 O59 1.185 . S
O53 C52 1.160 . S
O54 Zn55 1.899 . S
O54 C62 1.284 . S
Zn55 O54 1.899 . S
Zn55 O56 2.032 . S
Zn55 O59 2.086 . S
Zn55 O64 1.977 . S
O56 Zn55 2.032 . S
O56 C60 1.278 . S
C57 O58 1.203 . S
C57 O64 1.267 . S
O58 C57 1.203 . S
O59 C52 1.185 . S
O59 Zn55 2.086 . S
C60 O56 1.278 . S
C60 O61 1.211 . S
O61 C60 1.211 . S
C62 O54 1.284 . S
C62 O63 1.273 . S
O63 C62 1.273 . S
O64 Zn55 1.977 . S
O64 C57 1.267 . S
C65 O66 1.160 . S
C65 O72 1.185 . S
O66 C65 1.160 . S
O67 Zn68 1.899 . S
O67 C75 1.284 . S
Zn68 O67 1.899 . S
Zn68 O69 2.032 . S
Zn68 O72 2.086 . S
Zn68 O77 1.977 . S
O69 Zn68 2.032 . S
O69 C73 1.278 . S
C70 O71 1.203 . S
C70 O77 1.267 . S
O71 C70 1.203 . S
O72 C65 1.185 . S
O72 Zn68 2.086 . S
C73 O69 1.278 . S
C73 O74 1.211 . S
O74 C73 1.211 . S
C75 O67 1.284 . S
C75 O76 1.273 . S
O76 C75 1.273 . S
O77 Zn68 1.977 . S
O77 C70 1.267 . S
C78 O79 1.160 . S
C78 O85 1.185 . S
O79 C78 1.160 . S
O80 Zn81 1.899 . S
O80 C88 1.284 . S
Zn81 O80 1.899 . S
Zn81 O82 2.032 . S
Zn81 O85 2.086 . S
Zn81 O90 1.977 . S
O82 Zn81 2.032 . S
O82 C86 1.278 . S
C83 O84 1.203 . S
C83 O90 1.267 . S
O84 C83 1.203 . S
O85 C78 1.185 . S
O85 Zn81 2.086 . S
C86 O82 1.278 . S
C86 O87 1.211 . S
O87 C86 1.211 . S
C88 O80 1.284 . S
C88 O89 1.273 . S
O89 C88 1.273 . S
O90 Zn81 1.977 . S
O90 C83 1.267 . S
C91 O92 1.160 . S
C91 O98 1.185 . S
O92 C91 1.160 . S
O93 Zn94 1.899 1_654 S
O93 C101 1.284 . S
Zn94 O93 1.899 1_456 S
Zn94 O95 2.032 1_556 S
Zn94 O98 2.086 . S
Zn94 O103 1.977 1_455 S
O95 Zn94 2.032 1_554 S
O95 C99 1.278 . S
C96 O97 1.203 . S
C96 O103 1.267 . S
O97 C96 1.203 . S
O98 C91 1.185 . S
O98 Zn94 2.086 . S
C99 O95 1.278 . S
C99 O100 1.211 1_455 S
O100 C99 1.211 1_655 S
C101 O93 1.284 . S
C101 O102 1.273 . S
O102 C101 1.273 . S
O103 Zn94 1.977 1_655 S
O103 C96 1.267 . S
C104 O105 1.160 . S
C104 O111 1.185 . S
O105 C104 1.160 . S
O106 Zn107 1.900 1_565 S
O106 C114 1.295 1_565 S
Zn107 O106 1.900 1_545 S
Zn107 O108 2.032 . S
Zn107 O111 2.091 . S
Zn107 O116 1.973 1_545 S
O108 Zn107 2.032 . S
O108 C112 1.278 . S
C109 O110 1.203 . S
C109 O116 1.267 . S
O110 C109 1.203 . S
O111 C104 1.185 . S
O111 Zn107 2.091 . S
C112 O108 1.278 . S
C112 O113 1.211 1_545 S
O113 C112 1.211 1_565 S
C114 O106 1.295 1_545 S
C114 O115 1.264 1_545 S
O115 C114 1.264 1_565 S
O116 Zn107 1.973 1_565 S
O116 C109 1.267 . S
C117 O118 1.160 . S
C117 O124 1.185 . S
O118 C117 1.160 . S
O119 Zn120 1.899 . S
O119 C127 1.284 . S
Zn120 O119 1.899 . S
Zn120 O121 2.032 . S
Zn120 O124 2.086 . S
Zn120 O129 1.977 . S
O121 Zn120 2.032 . S
O121 C125 1.278 . S
C122 O123 1.203 . S
C122 O129 1.267 . S
O123 C122 1.203 . S
O124 C117 1.185 . S
O124 Zn120 2.086 . S
C125 O121 1.278 . S
C125 O126 1.211 . S
O126 C125 1.211 . S
C127 O119 1.284 . S
C127 O128 1.273 . S
O128 C127 1.273 . S
O129 Zn120 1.977 . S
O129 C122 1.267 . S
C130 O131 1.160 . S
C130 O137 1.185 . S
O131 C130 1.160 . S
O132 Zn133 1.899 . S
O132 C140 1.284 . S
Zn133 O132 1.899 . S
Zn133 O134 2.032 . S
Zn133 O137 2.086 . S
Zn133 O142 1.977 . S
O134 Zn133 2.032 . S
O134 C138 1.278 . S
C135 O136 1.203 . S
C135 O142 1.267 . S
O136 C135 1.203 . S
O137 C130 1.185 . S
O137 Zn133 2.086 . S
C138 O134 1.278 . S
C138 O139 1.211 . S
O139 C138 1.211 . S
C140 O132 1.284 . S
C140 O141 1.273 . S
O141 C140 1.273 . S
O142 Zn133 1.977 . S
O142 C135 1.267 . S
C143 O144 1.160 . S
C143 O150 1.185 1_554 S
O144 C143 1.160 . S
O145 Zn146 1.899 1_565 S
O145 C153 1.284 . S
Zn146 O145 1.899 1_545 S
Zn146 O147 2.032 1_544 S
Zn146 O150 2.086 1_554 S
Zn146 O155 1.977 . S
O147 Zn146 2.032 1_566 S
O147 C151 1.278 . S
C148 O149 1.203 . S
C148 O155 1.267 . S
O149 C148 1.203 . S
O150 C143 1.185 1_556 S
O150 Zn146 2.086 1_556 S
C151 O147 1.278 . S
C151 O152 1.211 . S
O152 C151 1.211 . S
C153 O145 1.284 . S
C153 O154 1.273 . S
O154 C153 1.273 . S
O155 Zn146 1.977 . S
O155 C148 1.267 . S
C156 O157 1.160 . S
C156 O163 1.185 . S
O157 C156 1.160 . S
O158 Zn159 1.899 . S
O158 C166 1.284 . S
Zn159 O158 1.899 . S
Zn159 O160 2.034 . S
Zn159 O163 2.086 . S
Zn159 O168 1.977 . S
O160 Zn159 2.034 . S
O160 C164 1.276 1_554 S
C161 O162 1.203 . S
C161 O168 1.267 . S
O162 C161 1.203 . S
O163 C156 1.185 . S
O163 Zn159 2.086 . S
C164 O160 1.276 1_556 S
C164 O165 1.211 . S
O165 C164 1.211 . S
C166 O158 1.284 . S
C166 O167 1.273 . S
O167 C166 1.273 . S
O168 Zn159 1.977 . S
O168 C161 1.267 . S
C169 O170 1.160 . S
C169 O176 1.185 . S
O170 C169 1.160 . S
O171 Zn172 1.899 . S
O171 C179 1.284 . S
Zn172 O171 1.899 . S
Zn172 O173 2.032 . S
Zn172 O176 2.086 . S
Zn172 O181 1.977 . S
O173 Zn172 2.032 . S
O173 C177 1.278 . S
C174 O175 1.203 . S
C174 O181 1.267 . S
O175 C174 1.203 . S
O176 C169 1.185 . S
O176 Zn172 2.086 . S
C177 O173 1.278 . S
C177 O178 1.211 . S
O178 C177 1.211 . S
C179 O171 1.284 . S
C179 O180 1.273 . S
O180 C179 1.273 . S
O181 Zn172 1.977 . S
O181 C174 1.267 . S
C182 O183 1.160 . S
C182 O189 1.185 . S
O183 C182 1.160 . S
O184 Zn185 1.899 . S
O184 C192 1.284 . S
Zn185 O184 1.899 . S
Zn185 O186 2.032 . S
Zn185 O189 2.086 . S
Zn185 O194 1.977 . S
O186 Zn185 2.032 . S
O186 C190 1.278 . S
C187 O188 1.203 . S
C187 O194 1.267 . S
O188 C187 1.203 . S
O189 C182 1.185 . S
O189 Zn185 2.086 . S
C190 O186 1.278 . S
C190 O191 1.211 . S
O191 C190 1.211 . S
C192 O184 1.284 . S
C192 O193 1.273 . S
O193 C192 1.273 . S
O194 Zn185 1.977 . S
O194 C187 1.267 . S
C195 O196 1.160 . S
C195 O202 1.185 . S
O196 C195 1.160 . S
O197 Zn198 1.899 . S
O197 C205 1.284 . S
Zn198 O197 1.899 . S
Zn198 O199 2.032 . S
Zn198 O202 2.086 . S
Zn198 O207 1.977 . S
O199 Zn198 2.032 . S
O199 C203 1.278 . S
C200 O201 1.203 . S
C200 O207 1.267 . S
O201 C200 1.203 . S
O202 C195 1.185 . S
O202 Zn198 2.086 . S
C203 O199 1.278 . S
C203 O204 1.211 . S
O204 C203 1.211 . S
C205 O197 1.284 . S
C205 O206 1.273 . S
O206 C205 1.273 . S
O207 Zn198 1.977 . S
O207 C200 1.267 . S
C208 O209 1.160 . S
C208 O215 1.185 . S
O209 C208 1.160 . S
O210 Zn211 1.899 . S
O210 C218 1.284 1_655 S
Zn211 O210 1.899 . S
Zn211 O212 2.032 1_655 S
Zn211 O215 2.086 . S
Zn211 O220 1.977 1_545 S
O212 Zn211 2.032 1_455 S
O212 C216 1.278 . S
C213 O214 1.203 . S
C213 O220 1.267 . S
O214 C213 1.203 . S
O215 C208 1.185 . S
O215 Zn211 2.086 . S
C216 O212 1.278 . S
C216 O217 1.211 . S
O217 C216 1.211 . S
C218 O210 1.284 1_455 S
C218 O219 1.273 . S
O219 C218 1.273 . S
O220 Zn211 1.977 1_565 S
O220 C213 1.267 . S
C221 O222 1.160 . S
C221 O228 1.185 . S
O222 C221 1.160 . S
O223 Zn224 1.899 . S
O223 C231 1.284 . S
Zn224 O223 1.899 . S
Zn224 O225 2.032 . S
Zn224 O228 2.086 . S
Zn224 O233 1.977 . S
O225 Zn224 2.032 . S
O225 C229 1.278 . S
C226 O227 1.203 . S
C226 O233 1.267 . S
O227 C226 1.203 . S
O228 C221 1.185 . S
O228 Zn224 2.086 . S
C229 O225 1.278 . S
C229 O230 1.211 . S
O230 C229 1.211 . S
C231 O223 1.284 . S
C231 O232 1.273 . S
O232 C231 1.273 . S
O233 Zn224 1.977 . S
O233 C226 1.267 . S
C234 O235 1.160 . S
C234 O241 1.185 . S
O235 C234 1.160 . S
O236 Zn237 1.899 . S
O236 C244 1.284 . S
Zn237 O236 1.899 . S
Zn237 O238 2.032 . S
Zn237 O241 2.086 . S
Zn237 O246 1.977 . S
O238 Zn237 2.032 . S
O238 C242 1.278 . S
C239 O240 1.203 . S
C239 O246 1.267 . S
O240 C239 1.203 . S
O241 C234 1.185 . S
O241 Zn237 2.086 . S
C242 O238 1.278 . S
C242 O243 1.211 . S
O243 C242 1.211 . S
C244 O236 1.284 . S
C244 O245 1.273 . S
O245 C244 1.273 . S
O246 Zn237 1.977 . S
O246 C239 1.267 . S
C247 O248 1.160 . S
C247 O254 1.185 . S
O248 C247 1.160 . S
O249 Zn250 1.899 . S
O249 C257 1.284 . S
Zn250 O249 1.899 . S
Zn250 O251 2.032 . S
Zn250 O254 2.086 . S
Zn250 O259 1.977 . S
O251 Zn250 2.032 . S
O251 C255 1.278 . S
C252 O253 1.203 . S
C252 O259 1.267 . S
O253 C252 1.203 . S
O254 C247 1.185 . S
O254 Zn250 2.086 . S
C255 O251 1.278 . S
C255 O256 1.211 . S
O256 C255 1.211 . S
C257 O249 1.284 . S
C257 O258 1.273 . S
O258 C257 1.273 . S
O259 Zn250 1.977 . S
O259 C252 1.267 . S
C260 O261 1.160 . S
C260 O267 1.185 . S
O261 C260 1.160 . S
O262 Zn263 1.899 . S
O262 C270 1.284 . S
Zn263 O262 1.899 . S
Zn263 O264 2.032 . S
Zn263 O267 2.086 . S
Zn263 O272 1.977 . S
O264 Zn263 2.032 . S
O264 C268 1.278 1_554 S
C265 O266 1.203 . S
C265 O272 1.267 . S
O266 C265 1.203 . S
O267 C260 1.185 . S
O267 Zn263 2.086 . S
C268 O264 1.278 1_556 S
C268 O269 1.211 . S
O269 C268 1.211 . S
C270 O262 1.284 . S
C270 O271 1.273 . S
O271 C270 1.273 . S
O272 Zn263 1.977 . S
O272 C265 1.267 . S
C273 O274 1.160 . S
C273 O280 1.185 . S
O274 C273 1.160 . S
O275 Zn276 1.899 . S
O275 C283 1.284 . S
Zn276 O275 1.899 . S
Zn276 O277 2.032 . S
Zn276 O280 2.086 . S
Zn276 O285 1.977 . S
O277 Zn276 2.032 . S
O277 C281 1.278 . S
C278 O279 1.203 . S
C278 O285 1.267 . S
O279 C278 1.203 . S
O280 C273 1.185 . S
O280 Zn276 2.086 . S
C281 O277 1.278 . S
C281 O282 1.211 . S
O282 C281 1.211 . S
C283 O275 1.284 . S
C283 O284 1.273 . S
O284 C283 1.273 . S
O285 Zn276 1.977 . S
O285 C278 1.267 . S
C286 O287 1.160 . S
C286 O293 1.185 . S
O287 C286 1.160 . S
O288 Zn289 1.899 . S
O288 C296 1.284 . S
Zn289 O288 1.899 . S
Zn289 O290 2.032 . S
Zn289 O293 2.086 . S
Zn289 O298 1.977 . S
O290 Zn289 2.032 . S
O290 C294 1.278 . S
C291 O292 1.203 . S
C291 O298 1.267 . S
O292 C291 1.203 . S
O293 C286 1.185 . S
O293 Zn289 2.086 . S
C294 O290 1.278 . S
C294 O295 1.211 . S
O295 C294 1.211 . S
C296 O288 1.284 . S
C296 O297 1.273 . S
O297 C296 1.273 . S
O298 Zn289 1.977 . S
O298 C291 1.267 . S
C299 O300 1.160 . S
C299 O306 1.185 . S
O300 C299 1.160 . S
O301 Zn302 1.899 . S
O301 C309 1.284 . S
Zn302 O301 1.899 . S
Zn302 O303 2.032 . S
Zn302 O306 2.086 . S
Zn302 O311 1.977 . S
O303 Zn302 2.032 . S
O303 C307 1.278 . S
C304 O305 1.203 . S
C304 O311 1.267 . S
O305 C304 1.203 . S
O306 C299 1.185 . S
O306 Zn302 2.086 . S
C307 O303 1.278 . S
C307 O308 1.211 . S
O308 C307 1.211 . S
C309 O301 1.284 . S
C309 O310 1.273 . S
O310 C309 1.273 . S
O311 Zn302 1.977 . S
O311 C304 1.267 . S
Dy312 O315 2.307 . S
Dy312 O317 2.395 . S
Dy312 O318 2.379 . S
Dy312 O320 2.339 . S
Dy312 O322 2.298 . S
Dy312 O326 2.275 . S
Dy312 C334 2.738 . S
Dy313 O316 2.298 1_655 S
Dy313 O319 2.275 1_655 S
Dy313 O321 2.288 1_645 S
Dy313 O323 2.395 . S
Dy313 O324 2.379 1_554 S
Dy313 O327 2.339 1_654 S
Dy313 C343 2.738 . S
C314 O326 1.254 1_556 S
C314 O327 1.257 . S
O315 Dy312 2.307 . S
O315 C325 1.266 . S
O316 Dy313 2.298 1_455 S
O316 C325 1.236 . S
O317 Dy312 2.395 . S
O317 C334 1.255 . S
O318 Dy312 2.379 . S
O318 C334 1.249 . S
O319 Dy313 2.275 1_455 S
O319 C335 1.254 . S
O320 Dy312 2.339 . S
O320 C335 1.257 . S
O321 Dy313 2.288 1_465 S
O321 C336 1.270 . S
O322 Dy312 2.298 . S
O322 C336 1.230 1_545 S
O323 Dy313 2.395 . S
O323 C343 1.255 . S
O324 Dy313 2.379 1_556 S
O324 C343 1.249 1_556 S
C325 O315 1.266 . S
C325 O316 1.236 . S
O326 Dy312 2.275 . S
O326 C314 1.254 1_554 S
O327 Dy313 2.339 1_456 S
O327 C314 1.257 . S
C328 C331 1.344 . S
C328 C332 1.328 . S
C328 C334 1.516 . S
C329 C330 1.304 . S
C329 C333 1.323 . S
C330 C329 1.304 . S
C330 C331 1.371 . S
C330 H344 0.930 . S
C331 C328 1.344 . S
C331 C330 1.371 . S
C331 H345 0.931 . S
C332 C328 1.328 . S
C332 C333 1.433 . S
C332 H346 0.931 . S
C333 C329 1.323 . S
C333 C332 1.433 . S
C333 H347 0.933 . S
C334 Dy312 2.738 . S
C334 O317 1.255 . S
C334 O318 1.249 . S
C334 C328 1.516 . S
C335 O319 1.254 . S
C335 O320 1.257 . S
C336 O321 1.270 . S
C336 O322 1.230 1_565 S
C337 C340 1.344 . S
C337 C341 1.328 1_554 S
C337 C343 1.516 . S
C338 C339 1.290 1_556 S
C338 C342 1.340 . S
C339 C338 1.290 1_554 S
C339 C340 1.371 . S
C339 H348 0.930 . S
C340 C337 1.344 . S
C340 C339 1.371 . S
C340 H349 0.931 . S
C341 C337 1.328 1_556 S
C341 C342 1.433 . S
C341 H350 0.931 . S
C342 C338 1.340 . S
C342 C341 1.433 . S
C342 H351 0.933 . S
C343 Dy313 2.738 . S
C343 O323 1.255 . S
C343 O324 1.249 1_554 S
C343 C337 1.516 . S
H344 C330 0.930 . S
H345 C331 0.931 . S
H346 C332 0.931 . S
H347 C333 0.933 . S
H348 C339 0.930 . S
H349 C340 0.931 . S
H350 C341 0.931 . S
H351 C342 0.933 . S
Dy352 O355 2.307 . S
Dy352 O357 2.395 . S
Dy352 O358 2.379 . S
Dy352 O360 2.339 . S
Dy352 O362 2.298 . S
Dy352 O366 2.275 . S
Dy352 C374 2.738 . S
Dy353 O356 2.298 . S
Dy353 O359 2.275 . S
Dy353 O361 2.307 . S
Dy353 O363 2.395 . S
Dy353 O364 2.379 . S
Dy353 O367 2.339 . S
Dy353 C383 2.738 . S
C354 O366 1.254 . S
C354 O367 1.257 . S
O355 Dy352 2.307 . S
O355 C365 1.266 . S
O356 Dy353 2.298 . S
O356 C365 1.236 . S
O357 Dy352 2.395 . S
O357 C374 1.255 . S
O358 Dy352 2.379 . S
O358 C374 1.249 . S
O359 Dy353 2.275 . S
O359 C375 1.254 . S
O360 Dy352 2.339 . S
O360 C375 1.257 . S
O361 Dy353 2.307 . S
O361 C376 1.266 . S
O362 Dy352 2.298 . S
O362 C376 1.236 . S
O363 Dy353 2.395 . S
O363 C383 1.255 . S
O364 Dy353 2.379 . S
O364 C383 1.249 . S
C365 O355 1.266 . S
C365 O356 1.236 . S
O366 Dy352 2.275 . S
O366 C354 1.254 . S
O367 Dy353 2.339 . S
O367 C354 1.257 . S
C368 C371 1.344 . S
C368 C372 1.328 . S
C368 C374 1.516 . S
C369 C370 1.304 . S
C369 C373 1.323 . S
C370 C369 1.304 . S
C370 C371 1.371 . S
C370 H384 0.930 . S
C371 C368 1.344 . S
C371 C370 1.371 . S
C371 H385 0.931 . S
C372 C368 1.328 . S
C372 C373 1.433 . S
C372 H386 0.931 . S
C373 C369 1.323 . S
C373 C372 1.433 . S
C373 H387 0.933 . S
C374 Dy352 2.738 . S
C374 O357 1.255 . S
C374 O358 1.249 . S
C374 C368 1.516 . S
C375 O359 1.254 . S
C375 O360 1.257 . S
C376 O361 1.266 . S
C376 O362 1.236 . S
C377 C380 1.344 . S
C377 C381 1.328 . S
C377 C383 1.516 . S
C378 C379 1.304 . S
C378 C382 1.323 . S
C379 C378 1.304 . S
C379 C380 1.371 . S
C379 H388 0.930 . S
C380 C377 1.344 . S
C380 C379 1.371 . S
C380 H389 0.931 . S
C381 C377 1.328 . S
C381 C382 1.433 . S
C381 H390 0.931 . S
C382 C378 1.323 . S
C382 C381 1.433 . S
C382 H391 0.933 . S
C383 Dy353 2.738 . S
C383 O363 1.255 . S
C383 O364 1.249 . S
C383 C377 1.516 . S
H384 C370 0.930 . S
H385 C371 0.931 . S
H386 C372 0.931 . S
H387 C373 0.933 . S
H388 C379 0.930 . S
H389 C380 0.931 . S
H390 C381 0.931 . S
H391 C382 0.933 . S
Dy392 O395 2.307 . S
Dy392 O397 2.395 . S
Dy392 O398 2.379 . S
Dy392 O400 2.339 . S
Dy392 O402 2.298 . S
Dy392 O406 2.275 . S
Dy392 C414 2.738 . S
Dy393 O396 2.298 . S
Dy393 O399 2.275 . S
Dy393 O401 2.307 . S
Dy393 O403 2.395 . S
Dy393 O404 2.379 . S
Dy393 O407 2.339 . S
Dy393 C423 2.738 . S
C394 O406 1.254 . S
C394 O407 1.257 . S
O395 Dy392 2.307 . S
O395 C405 1.266 . S
O396 Dy393 2.298 . S
O396 C405 1.236 . S
O397 Dy392 2.395 . S
O397 C414 1.255 . S
O398 Dy392 2.379 . S
O398 C414 1.249 . S
O399 Dy393 2.275 . S
O399 C415 1.254 . S
O400 Dy392 2.339 . S
O400 C415 1.257 . S
O401 Dy393 2.307 . S
O401 C416 1.266 . S
O402 Dy392 2.298 . S
O402 C416 1.236 . S
O403 Dy393 2.395 . S
O403 C423 1.255 . S
O404 Dy393 2.379 . S
O404 C423 1.249 . S
C405 O395 1.266 . S
C405 O396 1.236 . S
O406 Dy392 2.275 . S
O406 C394 1.254 . S
O407 Dy393 2.339 . S
O407 C394 1.257 . S
C408 C411 1.344 . S
C408 C412 1.328 . S
C408 C414 1.516 . S
C409 C410 1.304 . S
C409 C413 1.323 . S
C410 C409 1.304 . S
C410 C411 1.371 . S
C410 H424 0.930 . S
C411 C408 1.344 . S
C411 C410 1.371 . S
C411 H425 0.931 . S
C412 C408 1.328 . S
C412 C413 1.433 . S
C412 H426 0.931 . S
C413 C409 1.323 . S
C413 C412 1.433 . S
C413 H427 0.933 . S
C414 Dy392 2.738 . S
C414 O397 1.255 . S
C414 O398 1.249 . S
C414 C408 1.516 . S
C415 O399 1.254 . S
C415 O400 1.257 . S
C416 O401 1.266 . S
C416 O402 1.236 . S
C417 C420 1.344 . S
C417 C421 1.328 1_545 S
C417 C423 1.516 . S
C418 C419 1.304 . S
C418 C422 1.323 . S
C419 C418 1.304 . S
C419 C420 1.371 1_565 S
C419 H428 0.930 . S
C420 C417 1.344 . S
C420 C419 1.371 1_545 S
C420 H429 0.931 . S
C421 C417 1.328 1_565 S
C421 C422 1.433 . S
C421 H430 0.931 . S
C422 C418 1.323 . S
C422 C421 1.433 . S
C422 H431 0.933 . S
C423 Dy393 2.738 . S
C423 O403 1.255 . S
C423 O404 1.249 . S
C423 C417 1.516 . S
H424 C410 0.930 . S
H425 C411 0.931 . S
H426 C412 0.931 . S
H427 C413 0.933 . S
H428 C419 0.930 . S
H429 C420 0.931 . S
H430 C421 0.931 . S
H431 C422 0.933 . S
Dy432 O435 2.307 . S
Dy432 O437 2.395 . S
Dy432 O438 2.379 . S
Dy432 O440 2.339 . S
Dy432 O442 2.298 . S
Dy432 O446 2.275 . S
Dy432 C454 2.738 . S
Dy433 O436 2.298 . S
Dy433 O439 2.275 . S
Dy433 O441 2.307 . S
Dy433 O443 2.395 . S
Dy433 O444 2.379 . S
Dy433 O447 2.339 . S
Dy433 C463 2.738 . S
C434 O446 1.254 . S
C434 O447 1.257 . S
O435 Dy432 2.307 . S
O435 C445 1.266 . S
O436 Dy433 2.298 . S
O436 C445 1.236 . S
O437 Dy432 2.395 . S
O437 C454 1.255 . S
O438 Dy432 2.379 . S
O438 C454 1.249 . S
O439 Dy433 2.275 . S
O439 C455 1.254 . S
O440 Dy432 2.339 . S
O440 C455 1.257 . S
O441 Dy433 2.307 . S
O441 C456 1.266 . S
O442 Dy432 2.298 . S
O442 C456 1.236 . S
O443 Dy433 2.395 . S
O443 C463 1.255 . S
O444 Dy433 2.379 . S
O444 C463 1.249 . S
C445 O435 1.266 . S
C445 O436 1.236 . S
O446 Dy432 2.275 . S
O446 C434 1.254 . S
O447 Dy433 2.339 . S
O447 C434 1.257 . S
C448 C451 1.344 . S
C448 C452 1.328 . S
C448 C454 1.516 . S
C449 C450 1.304 . S
C449 C453 1.323 . S
C450 C449 1.304 . S
C450 C451 1.371 . S
C450 H464 0.930 . S
C451 C448 1.344 . S
C451 C450 1.371 . S
C451 H465 0.931 . S
C452 C448 1.328 . S
C452 C453 1.433 . S
C452 H466 0.931 . S
C453 C449 1.323 . S
C453 C452 1.433 . S
C453 H467 0.933 . S
C454 Dy432 2.738 . S
C454 O437 1.255 . S
C454 O438 1.249 . S
C454 C448 1.516 . S
C455 O439 1.254 . S
C455 O440 1.257 . S
C456 O441 1.266 . S
C456 O442 1.236 . S
C457 C460 1.344 . S
C457 C461 1.328 . S
C457 C463 1.516 . S
C458 C459 1.304 . S
C458 C462 1.323 . S
C459 C458 1.304 . S
C459 C460 1.371 . S
C459 H468 0.930 . S
C460 C457 1.344 . S
C460 C459 1.371 . S
C460 H469 0.931 . S
C461 C457 1.328 . S
C461 C462 1.433 . S
C461 H470 0.931 . S
C462 C458 1.323 . S
C462 C461 1.433 . S
C462 H471 0.933 . S
C463 Dy433 2.738 . S
C463 O443 1.255 . S
C463 O444 1.249 . S
C463 C457 1.516 . S
H464 C450 0.930 . S
H465 C451 0.931 . S
H466 C452 0.931 . S
H467 C453 0.933 . S
H468 C459 0.930 . S
H469 C460 0.931 . S
H470 C461 0.931 . S
H471 C462 0.933 . S
Dy472 O475 2.307 . S
Dy472 O477 2.395 1_545 S
Dy472 O478 2.379 . S
Dy472 O480 2.339 . S
Dy472 O482 2.298 . S
Dy472 O486 2.275 . S
Dy472 C494 2.738 1_545 S
Dy473 O476 2.298 . S
Dy473 O479 2.275 . S
Dy473 O481 2.307 . S
Dy473 O483 2.395 . S
Dy473 O484 2.379 1_455 S
Dy473 O487 2.339 1_455 S
Dy473 C503 2.738 . S
C474 O486 1.254 1_655 S
C474 O487 1.257 . S
O475 Dy472 2.307 . S
O475 C485 1.266 . S
O476 Dy473 2.298 . S
O476 C485 1.236 . S
O477 Dy472 2.395 1_565 S
O477 C494 1.255 . S
O478 Dy472 2.379 . S
O478 C494 1.249 1_545 S
O479 Dy473 2.275 . S
O479 C495 1.254 . S
O480 Dy472 2.339 . S
O480 C495 1.257 . S
O481 Dy473 2.307 . S
O481 C496 1.266 . S
O482 Dy472 2.298 . S
O482 C496 1.236 . S
O483 Dy473 2.395 . S
O483 C503 1.255 . S
O484 Dy473 2.379 1_655 S
O484 C503 1.249 1_655 S
C485 O475 1.266 . S
C485 O476 1.236 . S
O486 Dy472 2.275 . S
O486 C474 1.254 1_455 S
O487 Dy473 2.339 1_655 S
O487 C474 1.257 . S
C488 C491 1.344 . S
C488 C492 1.328 . S
C488 C494 1.516 . S
C489 C490 1.304 . S
C489 C493 1.323 . S
C490 C489 1.304 . S
C490 C491 1.371 . S
C490 H504 0.930 . S
C491 C488 1.344 . S
C491 C490 1.371 . S
C491 H505 0.931 . S
C492 C488 1.328 . S
C492 C493 1.433 . S
C492 H506 0.931 . S
C493 C489 1.323 . S
C493 C492 1.433 . S
C493 H507 0.933 . S
C494 Dy472 2.738 1_565 S
C494 O477 1.255 . S
C494 O478 1.249 1_565 S
C494 C488 1.516 . S
C495 O479 1.254 . S
C495 O480 1.257 . S
C496 O481 1.266 . S
C496 O482 1.236 . S
C497 C500 1.344 . S
C497 C501 1.328 1_455 S
C497 C503 1.516 . S
C498 C499 1.304 . S
C498 C502 1.323 1_455 S
C499 C498 1.304 . S
C499 C500 1.371 . S
C499 H508 0.930 . S
C500 C497 1.344 . S
C500 C499 1.371 . S
C500 H509 0.931 . S
C501 C497 1.328 1_655 S
C501 C502 1.433 . S
C501 H510 0.931 . S
C502 C498 1.323 1_655 S
C502 C501 1.433 . S
C502 H511 0.933 . S
C503 Dy473 2.738 . S
C503 O483 1.255 . S
C503 O484 1.249 1_455 S
C503 C497 1.516 . S
H504 C490 0.930 . S
H505 C491 0.931 . S
H506 C492 0.931 . S
H507 C493 0.933 . S
H508 C499 0.930 . S
H509 C500 0.931 . S
H510 C501 0.931 . S
H511 C502 0.933 . S
Dy512 O515 2.307 . S
Dy512 O517 2.395 . S
Dy512 O518 2.379 . S
Dy512 O520 2.339 . S
Dy512 O522 2.298 . S
Dy512 O526 2.275 . S
Dy512 C534 2.738 . S
Dy513 O516 2.298 . S
Dy513 O519 2.275 . S
Dy513 O521 2.307 . S
Dy513 O523 2.395 . S
Dy513 O524 2.379 . S
Dy513 O527 2.339 . S
Dy513 C543 2.738 . S
C514 O526 1.254 . S
C514 O527 1.257 . S
O515 Dy512 2.307 . S
O515 C525 1.266 . S
O516 Dy513 2.298 . S
O516 C525 1.236 . S
O517 Dy512 2.395 . S
O517 C534 1.255 . S
O518 Dy512 2.379 . S
O518 C534 1.249 . S
O519 Dy513 2.275 . S
O519 C535 1.254 . S
O520 Dy512 2.339 . S
O520 C535 1.257 . S
O521 Dy513 2.307 . S
O521 C536 1.266 . S
O522 Dy512 2.298 . S
O522 C536 1.236 . S
O523 Dy513 2.395 . S
O523 C543 1.255 . S
O524 Dy513 2.379 . S
O524 C543 1.249 . S
C525 O515 1.266 . S
C525 O516 1.236 . S
O526 Dy512 2.275 . S
O526 C514 1.254 . S
O527 Dy513 2.339 . S
O527 C514 1.257 . S
C528 C531 1.344 . S
C528 C532 1.328 . S
C528 C534 1.516 . S
C529 C530 1.304 . S
C529 C533 1.323 . S
C530 C529 1.304 . S
C530 C531 1.370 1_545 S
C530 H544 0.930 . S
C531 C528 1.344 . S
C531 C530 1.370 1_565 S
C531 H545 0.932 . S
C532 C528 1.328 . S
C532 C533 1.433 1_565 S
C532 H546 0.931 . S
C533 C529 1.323 . S
C533 C532 1.433 1_545 S
C533 H547 0.933 . S
C534 Dy512 2.738 . S
C534 O517 1.255 . S
C534 O518 1.249 . S
C534 C528 1.516 . S
C535 O519 1.254 . S
C535 O520 1.257 . S
C536 O521 1.266 . S
C536 O522 1.236 . S
C537 C540 1.344 . S
C537 C541 1.328 . S
C537 C543 1.516 . S
C538 C539 1.304 . S
C538 C542 1.323 . S
C539 C538 1.304 . S
C539 C540 1.371 . S
C539 H548 0.930 . S
C540 C537 1.344 . S
C540 C539 1.371 . S
C540 H549 0.931 . S
C541 C537 1.328 . S
C541 C542 1.433 . S
C541 H550 0.931 . S
C542 C538 1.323 . S
C542 C541 1.433 . S
C542 H551 0.933 . S
C543 Dy513 2.738 . S
C543 O523 1.255 . S
C543 O524 1.249 . S
C543 C537 1.516 . S
H544 C530 0.930 . S
H545 C531 0.932 . S
H546 C532 0.931 . S
H547 C533 0.933 . S
H548 C539 0.930 . S
H549 C540 0.931 . S
H550 C541 0.931 . S
H551 C542 0.933 . S
Dy552 O555 2.307 . S
Dy552 O557 2.395 1_554 S
Dy552 O558 2.379 1_554 S
Dy552 O560 2.339 . S
Dy552 O562 2.298 . S
Dy552 O566 2.275 . S
Dy552 C574 2.738 1_554 S
Dy553 O556 2.298 . S
Dy553 O559 2.275 . S
Dy553 O561 2.307 . S
Dy553 O563 2.395 . S
Dy553 O564 2.379 1_545 S
Dy553 O567 2.339 1_545 S
Dy553 C583 2.738 . S
C554 O566 1.254 . S
C554 O567 1.257 1_545 S
O555 Dy552 2.307 . S
O555 C565 1.266 . S
O556 Dy553 2.298 . S
O556 C565 1.236 . S
O557 Dy552 2.395 1_556 S
O557 C574 1.255 . S
O558 Dy552 2.379 1_556 S
O558 C574 1.249 . S
O559 Dy553 2.275 . S
O559 C575 1.254 . S
O560 Dy552 2.339 . S
O560 C575 1.257 . S
O561 Dy553 2.307 . S
O561 C576 1.266 . S
O562 Dy552 2.298 . S
O562 C576 1.236 . S
O563 Dy553 2.395 . S
O563 C583 1.255 . S
O564 Dy553 2.379 1_565 S
O564 C583 1.249 1_565 S
C565 O555 1.266 . S
C565 O556 1.236 . S
O566 Dy552 2.275 . S
O566 C554 1.254 . S
O567 Dy553 2.339 1_565 S
O567 C554 1.257 1_565 S
C568 C571 1.344 . S
C568 C572 1.328 . S
C568 C574 1.516 . S
C569 C570 1.304 . S
C569 C573 1.323 . S
C570 C569 1.304 . S
C570 C571 1.371 . S
C570 H584 0.930 . S
C571 C568 1.344 . S
C571 C570 1.371 . S
C571 H585 0.931 . S
C572 C568 1.328 . S
C572 C573 1.433 . S
C572 H586 0.931 . S
C573 C569 1.323 . S
C573 C572 1.433 . S
C573 H587 0.933 . S
C574 Dy552 2.738 1_556 S
C574 O557 1.255 . S
C574 O558 1.249 . S
C574 C568 1.516 . S
C575 O559 1.254 . S
C575 O560 1.257 . S
C576 O561 1.266 . S
C576 O562 1.236 . S
C577 C580 1.344 1_565 S
C577 C581 1.328 . S
C577 C583 1.516 1_565 S
C578 C579 1.304 1_565 S
C578 C582 1.323 . S
C579 C578 1.304 1_545 S
C579 C580 1.371 . S
C579 H588 0.930 . S
C580 C577 1.344 1_545 S
C580 C579 1.371 . S
C580 H589 0.931 . S
C581 C577 1.328 . S
C581 C582 1.433 . S
C581 H590 0.931 . S
C582 C578 1.323 . S
C582 C581 1.433 . S
C582 H591 0.933 . S
C583 Dy553 2.738 . S
C583 O563 1.255 . S
C583 O564 1.249 1_545 S
C583 C577 1.516 1_545 S
H584 C570 0.930 . S
H585 C571 0.931 . S
H586 C572 0.931 . S
H587 C573 0.933 . S
H588 C579 0.930 . S
H589 C580 0.931 . S
H590 C581 0.931 . S
H591 C582 0.933 . S
Dy592 O595 2.307 . S
Dy592 O597 2.395 . S
Dy592 O598 2.379 . S
Dy592 O600 2.339 . S
Dy592 O602 2.298 . S
Dy592 O606 2.275 . S
Dy592 C614 2.738 . S
Dy593 O596 2.298 . S
Dy593 O599 2.275 . S
Dy593 O601 2.307 . S
Dy593 O603 2.395 . S
Dy593 O604 2.379 . S
Dy593 O607 2.339 . S
Dy593 C623 2.738 . S
C594 O606 1.254 . S
C594 O607 1.257 . S
O595 Dy592 2.307 . S
O595 C605 1.266 . S
O596 Dy593 2.298 . S
O596 C605 1.236 . S
O597 Dy592 2.395 . S
O597 C614 1.255 . S
O598 Dy592 2.379 . S
O598 C614 1.249 . S
O599 Dy593 2.275 . S
O599 C615 1.254 . S
O600 Dy592 2.339 . S
O600 C615 1.257 . S
O601 Dy593 2.307 . S
O601 C616 1.266 . S
O602 Dy592 2.298 . S
O602 C616 1.236 . S
O603 Dy593 2.395 . S
O603 C623 1.255 . S
O604 Dy593 2.379 . S
O604 C623 1.249 . S
C605 O595 1.266 . S
C605 O596 1.236 . S
O606 Dy592 2.275 . S
O606 C594 1.254 . S
O607 Dy593 2.339 . S
O607 C594 1.257 . S
C608 C611 1.344 . S
C608 C612 1.328 . S
C608 C614 1.516 . S
C609 C610 1.304 . S
C609 C613 1.323 . S
C610 C609 1.304 . S
C610 C611 1.371 . S
C610 H624 0.930 . S
C611 C608 1.344 . S
C611 C610 1.371 . S
C611 H625 0.931 . S
C612 C608 1.328 . S
C612 C613 1.433 . S
C612 H626 0.931 . S
C613 C609 1.323 . S
C613 C612 1.433 . S
C613 H627 0.933 . S
C614 Dy592 2.738 . S
C614 O597 1.255 . S
C614 O598 1.249 . S
C614 C608 1.516 . S
C615 O599 1.254 . S
C615 O600 1.257 . S
C616 O601 1.266 . S
C616 O602 1.236 . S
C617 C620 1.344 . S
C617 C621 1.328 . S
C617 C623 1.516 . S
C618 C619 1.304 . S
C618 C622 1.323 . S
C619 C618 1.304 . S
C619 C620 1.371 . S
C619 H628 0.930 . S
C620 C617 1.344 . S
C620 C619 1.371 . S
C620 H629 0.931 . S
C621 C617 1.328 . S
C621 C622 1.433 . S
C621 H630 0.931 . S
C622 C618 1.323 . S
C622 C621 1.433 . S
C622 H631 0.933 . S
C623 Dy593 2.738 . S
C623 O603 1.255 . S
C623 O604 1.249 . S
C623 C617 1.516 . S
H624 C610 0.930 . S
H625 C611 0.931 . S
H626 C612 0.931 . S
H627 C613 0.933 . S
H628 C619 0.930 . S
H629 C620 0.931 . S
H630 C621 0.931 . S
H631 C622 0.933 . S
Dy632 O635 2.307 1_554 S
Dy632 O637 2.395 . S
Dy632 O638 2.379 . S
Dy632 O640 2.339 . S
Dy632 O642 2.298 . S
Dy632 O646 2.275 . S
Dy632 C654 2.738 . S
Dy633 O636 2.298 1_554 S
Dy633 O639 2.275 . S
Dy633 O641 2.307 . S
Dy633 O643 2.395 . S
Dy633 O644 2.379 . S
Dy633 O647 2.339 . S
Dy633 C663 2.738 . S
C634 O646 1.254 . S
C634 O647 1.257 . S
O635 Dy632 2.307 1_556 S
O635 C645 1.266 . S
O636 Dy633 2.298 1_556 S
O636 C645 1.236 . S
O637 Dy632 2.395 . S
O637 C654 1.255 . S
O638 Dy632 2.379 . S
O638 C654 1.249 . S
O639 Dy633 2.275 . S
O639 C655 1.254 . S
O640 Dy632 2.339 . S
O640 C655 1.257 . S
O641 Dy633 2.307 . S
O641 C656 1.266 . S
O642 Dy632 2.298 . S
O642 C656 1.236 . S
O643 Dy633 2.395 . S
O643 C663 1.255 . S
O644 Dy633 2.379 . S
O644 C663 1.249 . S
C645 O635 1.266 . S
C645 O636 1.236 . S
O646 Dy632 2.275 . S
O646 C634 1.254 . S
O647 Dy633 2.339 . S
O647 C634 1.257 . S
C648 C651 1.344 . S
C648 C652 1.328 . S
C648 C654 1.516 . S
C649 C650 1.304 . S
C649 C653 1.323 . S
C650 C649 1.304 . S
C650 C651 1.371 . S
C650 H664 0.930 . S
C651 C648 1.344 . S
C651 C650 1.371 . S
C651 H665 0.931 . S
C652 C648 1.328 . S
C652 C653 1.433 . S
C652 H666 0.931 . S
C653 C649 1.323 . S
C653 C652 1.433 . S
C653 H667 0.933 . S
C654 Dy632 2.738 . S
C654 O637 1.255 . S
C654 O638 1.249 . S
C654 C648 1.516 . S
C655 O639 1.254 . S
C655 O640 1.257 . S
C656 O641 1.266 . S
C656 O642 1.236 . S
C657 C660 1.344 . S
C657 C661 1.328 . S
C657 C663 1.516 1_556 S
C658 C659 1.304 . S
C658 C662 1.323 . S
C659 C658 1.304 . S
C659 C660 1.371 . S
C659 H668 0.930 . S
C660 C657 1.344 . S
C660 C659 1.371 . S
C660 H669 0.931 . S
C661 C657 1.328 . S
C661 C662 1.433 . S
C661 H670 0.931 . S
C662 C658 1.323 . S
C662 C661 1.433 . S
C662 H671 0.933 . S
C663 Dy633 2.738 . S
C663 O643 1.255 . S
C663 O644 1.249 . S
C663 C657 1.516 1_554 S
H664 C650 0.930 . S
H665 C651 0.931 . S
H666 C652 0.931 . S
H667 C653 0.933 . S
H668 C659 0.930 . S
H669 C660 0.931 . S
H670 C661 0.931 . S
H671 C662 0.933 . S
Dy672 O675 2.307 . S
Dy672 O677 2.395 . S
Dy672 O678 2.379 . S
Dy672 O680 2.339 . S
Dy672 O682 2.298 . S
Dy672 O686 2.275 . S
Dy672 C694 2.738 . S
Dy673 O676 2.298 . S
Dy673 O679 2.275 . S
Dy673 O681 2.307 . S
Dy673 O683 2.395 . S
Dy673 O684 2.379 . S
Dy673 O687 2.339 . S
Dy673 C703 2.738 . S
C674 O686 1.254 . S
C674 O687 1.257 . S
O675 Dy672 2.307 . S
O675 C685 1.266 . S
O676 Dy673 2.298 . S
O676 C685 1.236 . S
O677 Dy672 2.395 . S
O677 C694 1.255 . S
O678 Dy672 2.379 . S
O678 C694 1.249 . S
O679 Dy673 2.275 . S
O679 C695 1.254 . S
O680 Dy672 2.339 . S
O680 C695 1.257 . S
O681 Dy673 2.307 . S
O681 C696 1.266 . S
O682 Dy672 2.298 . S
O682 C696 1.236 . S
O683 Dy673 2.395 . S
O683 C703 1.255 . S
O684 Dy673 2.379 . S
O684 C703 1.249 . S
C685 O675 1.266 . S
C685 O676 1.236 . S
O686 Dy672 2.275 . S
O686 C674 1.254 . S
O687 Dy673 2.339 . S
O687 C674 1.257 . S
C688 C691 1.344 . S
C688 C692 1.328 . S
C688 C694 1.516 . S
C689 C690 1.304 . S
C689 C693 1.323 . S
C690 C689 1.304 . S
C690 C691 1.371 . S
C690 H704 0.930 . S
C691 C688 1.344 . S
C691 C690 1.371 . S
C691 H705 0.931 . S
C692 C688 1.328 . S
C692 C693 1.433 . S
C692 H706 0.931 . S
C693 C689 1.323 . S
C693 C692 1.433 . S
C693 H707 0.933 . S
C694 Dy672 2.738 . S
C694 O677 1.255 . S
C694 O678 1.249 . S
C694 C688 1.516 . S
C695 O679 1.254 . S
C695 O680 1.257 . S
C696 O681 1.266 . S
C696 O682 1.236 . S
C697 C700 1.344 . S
C697 C701 1.328 . S
C697 C703 1.516 . S
C698 C699 1.304 . S
C698 C702 1.323 . S
C699 C698 1.304 . S
C699 C700 1.371 . S
C699 H708 0.930 . S
C700 C697 1.344 . S
C700 C699 1.371 . S
C700 H709 0.931 . S
C701 C697 1.328 . S
C701 C702 1.433 . S
C701 H710 0.931 . S
C702 C698 1.323 . S
C702 C701 1.433 . S
C702 H711 0.933 . S
C703 Dy673 2.738 . S
C703 O683 1.255 . S
C703 O684 1.249 . S
C703 C697 1.516 . S
H704 C690 0.930 . S
H705 C691 0.931 . S
H706 C692 0.931 . S
H707 C693 0.933 . S
H708 C699 0.930 . S
H709 C700 0.931 . S
H710 C701 0.931 . S
H711 C702 0.933 . S
Dy712 O715 2.307 1_455 S
Dy712 O717 2.395 . S
Dy712 O718 2.379 . S
Dy712 O720 2.339 . S
Dy712 O722 2.298 . S
Dy712 O726 2.275 . S
Dy712 C734 2.738 . S
Dy713 O716 2.298 1_455 S
Dy713 O719 2.275 . S
Dy713 O721 2.307 . S
Dy713 O723 2.395 . S
Dy713 O724 2.379 . S
Dy713 O727 2.339 . S
Dy713 C743 2.755 . S
C714 O726 1.254 . S
C714 O727 1.257 . S
O715 Dy712 2.307 1_655 S
O715 C725 1.266 . S
O716 Dy713 2.298 1_655 S
O716 C725 1.236 . S
O717 Dy712 2.395 . S
O717 C734 1.255 . S
O718 Dy712 2.379 . S
O718 C734 1.249 . S
O719 Dy713 2.275 . S
O719 C735 1.254 . S
O720 Dy712 2.339 . S
O720 C735 1.257 . S
O721 Dy713 2.307 . S
O721 C736 1.266 . S
O722 Dy712 2.298 . S
O722 C736 1.236 . S
O723 Dy713 2.395 . S
O723 C743 1.252 . S
O724 Dy713 2.379 . S
O724 C743 1.270 . S
C725 O715 1.266 . S
C725 O716 1.236 . S
O726 Dy712 2.275 . S
O726 C714 1.254 . S
O727 Dy713 2.339 . S
O727 C714 1.257 . S
C728 C731 1.344 . S
C728 C732 1.328 . S
C728 C734 1.516 . S
C729 C730 1.304 . S
C729 C733 1.323 . S
C730 C729 1.304 . S
C730 C731 1.371 . S
C730 H744 0.930 . S
C731 C728 1.344 . S
C731 C730 1.371 . S
C731 H745 0.931 . S
C732 C728 1.328 . S
C732 C733 1.433 . S
C732 H746 0.931 . S
C733 C729 1.323 . S
C733 C732 1.433 . S
C733 H747 0.933 . S
C734 Dy712 2.738 . S
C734 O717 1.255 . S
C734 O718 1.249 . S
C734 C728 1.516 . S
C735 O719 1.254 . S
C735 O720 1.257 . S
C736 O721 1.266 . S
C736 O722 1.236 . S
C737 C740 1.344 . S
C737 C741 1.328 . S
C737 C743 1.499 1_655 S
C738 C739 1.304 . S
C738 C742 1.323 . S
C739 C738 1.304 . S
C739 C740 1.371 . S
C739 H748 0.930 . S
C740 C737 1.344 . S
C740 C739 1.371 . S
C740 H749 0.931 . S
C741 C737 1.328 . S
C741 C742 1.433 . S
C741 H750 0.931 . S
C742 C738 1.323 . S
C742 C741 1.433 . S
C742 H751 0.933 . S
C743 Dy713 2.755 . S
C743 O723 1.252 . S
C743 O724 1.270 . S
C743 C737 1.499 1_455 S
H744 C730 0.930 . S
H745 C731 0.931 . S
H746 C732 0.931 . S
H747 C733 0.933 . S
H748 C739 0.930 . S
H749 C740 0.931 . S
H750 C741 0.931 . S
H751 C742 0.933 . S
Dy752 O755 2.307 . S
Dy752 O757 2.395 . S
Dy752 O758 2.379 . S
Dy752 O760 2.339 . S
Dy752 O762 2.298 . S
Dy752 O766 2.275 . S
Dy752 C774 2.738 . S
Dy753 O756 2.298 . S
Dy753 O759 2.275 . S
Dy753 O761 2.307 . S
Dy753 O763 2.395 . S
Dy753 O764 2.379 . S
Dy753 O767 2.339 . S
Dy753 C783 2.738 . S
C754 O766 1.254 . S
C754 O767 1.257 . S
O755 Dy752 2.307 . S
O755 C765 1.266 . S
O756 Dy753 2.298 . S
O756 C765 1.236 . S
O757 Dy752 2.395 . S
O757 C774 1.255 . S
O758 Dy752 2.379 . S
O758 C774 1.249 . S
O759 Dy753 2.275 . S
O759 C775 1.254 . S
O760 Dy752 2.339 . S
O760 C775 1.257 . S
O761 Dy753 2.307 . S
O761 C776 1.266 . S
O762 Dy752 2.298 . S
O762 C776 1.236 . S
O763 Dy753 2.395 . S
O763 C783 1.255 . S
O764 Dy753 2.379 . S
O764 C783 1.249 . S
C765 O755 1.266 . S
C765 O756 1.236 . S
O766 Dy752 2.275 . S
O766 C754 1.254 . S
O767 Dy753 2.339 . S
O767 C754 1.257 . S
C768 C771 1.344 . S
C768 C772 1.328 . S
C768 C774 1.516 . S
C769 C770 1.304 1_455 S
C769 C773 1.323 1_455 S
C770 C769 1.304 1_655 S
C770 C771 1.371 . S
C770 H784 0.930 1_655 S
C771 C768 1.344 . S
C771 C770 1.371 . S
C771 H785 0.931 . S
C772 C768 1.328 . S
C772 C773 1.433 . S
C772 H786 0.931 . S
C773 C769 1.323 1_655 S
C773 C772 1.433 . S
C773 H787 0.933 . S
C774 Dy752 2.738 . S
C774 O757 1.255 . S
C774 O758 1.249 . S
C774 C768 1.516 . S
C775 O759 1.254 . S
C775 O760 1.257 . S
C776 O761 1.266 . S
C776 O762 1.236 . S
C777 C780 1.344 . S
C777 C781 1.328 . S
C777 C783 1.516 . S
C778 C779 1.304 . S
C778 C782 1.323 . S
C779 C778 1.304 . S
C779 C780 1.371 . S
C779 H788 0.930 . S
C780 C777 1.344 . S
C780 C779 1.371 . S
C780 H789 0.931 . S
C781 C777 1.328 . S
C781 C782 1.433 . S
C781 H790 0.931 . S
C782 C778 1.323 . S
C782 C781 1.433 . S
C782 H791 0.933 . S
C783 Dy753 2.738 . S
C783 O763 1.255 . S
C783 O764 1.249 . S
C783 C777 1.516 . S
H784 C770 0.930 1_455 S
H785 C771 0.931 . S
H786 C772 0.931 . S
H787 C773 0.933 . S
H788 C779 0.930 . S
H789 C780 0.931 . S
H790 C781 0.931 . S
H791 C782 0.933 . S
Dy792 O795 2.307 . S
Dy792 O797 2.395 . S
Dy792 O798 2.379 . S
Dy792 O800 2.339 . S
Dy792 O802 2.298 . S
Dy792 O806 2.275 . S
Dy792 C814 2.738 . S
Dy793 O796 2.298 . S
Dy793 O799 2.275 . S
Dy793 O801 2.307 . S
Dy793 O803 2.395 . S
Dy793 O804 2.379 . S
Dy793 O807 2.339 . S
Dy793 C823 2.738 . S
C794 O806 1.254 . S
C794 O807 1.257 . S
O795 Dy792 2.307 . S
O795 C805 1.266 . S
O796 Dy793 2.298 . S
O796 C805 1.236 . S
O797 Dy792 2.395 . S
O797 C814 1.255 . S
O798 Dy792 2.379 . S
O798 C814 1.249 . S
O799 Dy793 2.275 . S
O799 C815 1.254 . S
O800 Dy792 2.339 . S
O800 C815 1.257 . S
O801 Dy793 2.307 . S
O801 C816 1.266 . S
O802 Dy792 2.298 . S
O802 C816 1.236 . S
O803 Dy793 2.395 . S
O803 C823 1.255 . S
O804 Dy793 2.379 . S
O804 C823 1.249 . S
C805 O795 1.266 . S
C805 O796 1.236 . S
O806 Dy792 2.275 . S
O806 C794 1.254 . S
O807 Dy793 2.339 . S
O807 C794 1.257 . S
C808 C811 1.344 . S
C808 C812 1.328 . S
C808 C814 1.516 . S
C809 C810 1.304 . S
C809 C813 1.323 . S
C810 C809 1.304 . S
C810 C811 1.371 . S
C810 H824 0.930 . S
C811 C808 1.344 . S
C811 C810 1.371 . S
C811 H825 0.931 . S
C812 C808 1.328 . S
C812 C813 1.433 . S
C812 H826 0.931 . S
C813 C809 1.323 . S
C813 C812 1.433 . S
C813 H827 0.933 . S
C814 Dy792 2.738 . S
C814 O797 1.255 . S
C814 O798 1.249 . S
C814 C808 1.516 . S
C815 O799 1.254 . S
C815 O800 1.257 . S
C816 O801 1.266 . S
C816 O802 1.236 . S
C817 C820 1.344 . S
C817 C821 1.328 1_556 S
C817 C823 1.516 . S
C818 C819 1.304 . S
C818 C822 1.323 . S
C819 C818 1.304 . S
C819 C820 1.371 1_554 S
C819 H828 0.930 . S
C820 C817 1.344 . S
C820 C819 1.371 1_556 S
C820 H829 0.931 . S
C821 C817 1.328 1_554 S
C821 C822 1.433 . S
C821 H830 0.931 . S
C822 C818 1.323 . S
C822 C821 1.433 . S
C822 H831 0.933 . S
C823 Dy793 2.738 . S
C823 O803 1.255 . S
C823 O804 1.249 . S
C823 C817 1.516 . S
H824 C810 0.930 . S
H825 C811 0.931 . S
H826 C812 0.931 . S
H827 C813 0.933 . S
H828 C819 0.930 . S
H829 C820 0.931 . S
H830 C821 0.931 . S
H831 C822 0.933 . S
Dy832 O835 2.307 . S
Dy832 O837 2.395 . S
Dy832 O838 2.379 . S
Dy832 O840 2.339 . S
Dy832 O842 2.298 . S
Dy832 O846 2.275 . S
Dy832 C854 2.738 . S
Dy833 O836 2.298 . S
Dy833 O839 2.275 . S
Dy833 O841 2.307 . S
Dy833 O843 2.395 . S
Dy833 O844 2.379 . S
Dy833 O847 2.339 . S
Dy833 C863 2.738 . S
C834 O846 1.254 . S
C834 O847 1.257 . S
O835 Dy832 2.307 . S
O835 C845 1.266 . S
O836 Dy833 2.298 . S
O836 C845 1.236 . S
O837 Dy832 2.395 . S
O837 C854 1.255 . S
O838 Dy832 2.379 . S
O838 C854 1.249 . S
O839 Dy833 2.275 . S
O839 C855 1.254 . S
O840 Dy832 2.339 . S
O840 C855 1.257 . S
O841 Dy833 2.307 . S
O841 C856 1.266 . S
O842 Dy832 2.298 . S
O842 C856 1.236 . S
O843 Dy833 2.395 . S
O843 C863 1.255 . S
O844 Dy833 2.379 . S
O844 C863 1.249 . S
C845 O835 1.266 . S
C845 O836 1.236 . S
O846 Dy832 2.275 . S
O846 C834 1.254 . S
O847 Dy833 2.339 . S
O847 C834 1.257 . S
C848 C851 1.344 . S
C848 C852 1.328 . S
C848 C854 1.516 . S
C849 C850 1.304 . S
C849 C853 1.323 . S
C850 C849 1.304 . S
C850 C851 1.371 . S
C850 H864 0.930 . S
C851 C848 1.344 . S
C851 C850 1.371 . S
C851 H865 0.931 . S
C852 C848 1.328 . S
C852 C853 1.433 . S
C852 H866 0.931 . S
C853 C849 1.323 . S
C853 C852 1.433 . S
C853 H867 0.933 . S
C854 Dy832 2.738 . S
C854 O837 1.255 . S
C854 O838 1.249 . S
C854 C848 1.516 . S
C855 O839 1.254 . S
C855 O840 1.257 . S
C856 O841 1.266 . S
C856 O842 1.236 . S
C857 C860 1.344 . S
C857 C861 1.328 . S
C857 C863 1.516 1_545 S
C858 C859 1.304 . S
C858 C862 1.323 . S
C859 C858 1.304 . S
C859 C860 1.371 . S
C859 H868 0.930 . S
C860 C857 1.344 . S
C860 C859 1.371 . S
C860 H869 0.931 . S
C861 C857 1.328 . S
C861 C862 1.433 . S
C861 H870 0.931 . S
C862 C858 1.323 . S
C862 C861 1.433 . S
C862 H871 0.933 . S
C863 Dy833 2.738 . S
C863 O843 1.255 . S
C863 O844 1.249 . S
C863 C857 1.516 1_565 S
H864 C850 0.930 . S
H865 C851 0.931 . S
H866 C852 0.931 . S
H867 C853 0.933 . S
H868 C859 0.930 . S
H869 C860 0.931 . S
H870 C861 0.931 . S
H871 C862 0.933 . S
Dy872 O875 2.307 . S
Dy872 O877 2.395 . S
Dy872 O878 2.379 . S
Dy872 O880 2.339 . S
Dy872 O882 2.298 . S
Dy872 O886 2.275 . S
Dy872 C894 2.738 . S
Dy873 O876 2.298 . S
Dy873 O879 2.275 . S
Dy873 O881 2.307 . S
Dy873 O883 2.395 . S
Dy873 O884 2.379 . S
Dy873 O887 2.339 . S
Dy873 C903 2.738 . S
C874 O886 1.254 . S
C874 O887 1.257 . S
O875 Dy872 2.307 . S
O875 C885 1.266 . S
O876 Dy873 2.298 . S
O876 C885 1.236 . S
O877 Dy872 2.395 . S
O877 C894 1.255 . S
O878 Dy872 2.379 . S
O878 C894 1.249 . S
O879 Dy873 2.275 . S
O879 C895 1.254 . S
O880 Dy872 2.339 . S
O880 C895 1.257 . S
O881 Dy873 2.307 . S
O881 C896 1.266 . S
O882 Dy872 2.298 . S
O882 C896 1.236 . S
O883 Dy873 2.395 . S
O883 C903 1.255 . S
O884 Dy873 2.379 . S
O884 C903 1.249 . S
C885 O875 1.266 . S
C885 O876 1.236 . S
O886 Dy872 2.275 . S
O886 C874 1.254 . S
O887 Dy873 2.339 . S
O887 C874 1.257 . S
C888 C891 1.344 . S
C888 C892 1.328 . S
C888 C894 1.516 . S
C889 C890 1.304 . S
C889 C893 1.323 . S
C890 C889 1.304 . S
C890 C891 1.371 . S
C890 H904 0.930 . S
C891 C888 1.344 . S
C891 C890 1.371 . S
C891 H905 0.931 . S
C892 C888 1.328 . S
C892 C893 1.433 . S
C892 H906 0.931 . S
C893 C889 1.323 . S
C893 C892 1.433 . S
C893 H907 0.933 . S
C894 Dy872 2.738 . S
C894 O877 1.255 . S
C894 O878 1.249 . S
C894 C888 1.516 . S
C895 O879 1.254 . S
C895 O880 1.257 . S
C896 O881 1.266 . S
C896 O882 1.236 . S
C897 C900 1.344 . S
C897 C901 1.328 . S
C897 C903 1.516 . S
C898 C899 1.304 . S
C898 C902 1.323 . S
C899 C898 1.304 . S
C899 C900 1.371 . S
C899 H908 0.930 . S
C900 C897 1.344 . S
C900 C899 1.371 . S
C900 H909 0.931 . S
C901 C897 1.328 . S
C901 C902 1.433 . S
C901 H910 0.931 . S
C902 C898 1.323 . S
C902 C901 1.433 . S
C902 H911 0.933 . S
C903 Dy873 2.738 . S
C903 O883 1.255 . S
C903 O884 1.249 . S
C903 C897 1.516 . S
H904 C890 0.930 . S
H905 C891 0.931 . S
H906 C892 0.931 . S
H907 C893 0.933 . S
H908 C899 0.930 . S
H909 C900 0.931 . S
H910 C901 0.931 . S
H911 C902 0.933 . S
Dy912 O915 2.307 . S
Dy912 O917 2.395 1_455 S
Dy912 O918 2.379 1_455 S
Dy912 O920 2.339 . S
Dy912 O922 2.298 . S
Dy912 O926 2.290 . S
Dy912 C934 2.738 1_455 S
Dy913 O916 2.298 . S
Dy913 O919 2.275 . S
Dy913 O921 2.307 . S
Dy913 O923 2.395 . S
Dy913 O924 2.379 1_554 S
Dy913 O927 2.339 1_554 S
Dy913 C943 2.738 1_554 S
C914 O926 1.239 1_556 S
C914 O927 1.257 . S
O915 Dy912 2.307 . S
O915 C925 1.266 . S
O916 Dy913 2.298 . S
O916 C925 1.236 . S
O917 Dy912 2.395 1_655 S
O917 C934 1.255 . S
O918 Dy912 2.379 1_655 S
O918 C934 1.249 . S
O919 Dy913 2.275 . S
O919 C935 1.254 . S
O920 Dy912 2.339 . S
O920 C935 1.257 . S
O921 Dy913 2.307 . S
O921 C936 1.266 . S
O922 Dy912 2.298 . S
O922 C936 1.236 . S
O923 Dy913 2.395 . S
O923 C943 1.255 1_554 S
O924 Dy913 2.379 1_556 S
O924 C943 1.249 . S
C925 O915 1.266 . S
C925 O916 1.236 . S
O926 Dy912 2.290 . S
O926 C914 1.239 1_554 S
O927 Dy913 2.339 1_556 S
O927 C914 1.257 . S
C928 C931 1.344 . S
C928 C932 1.328 . S
C928 C934 1.516 . S
C929 C930 1.304 . S
C929 C933 1.323 . S
C930 C929 1.304 . S
C930 C931 1.371 . S
C930 H944 0.930 . S
C931 C928 1.344 . S
C931 C930 1.371 . S
C931 H945 0.931 . S
C932 C928 1.328 . S
C932 C933 1.433 . S
C932 H946 0.931 . S
C933 C929 1.323 . S
C933 C932 1.433 . S
C933 H947 0.933 . S
C934 Dy912 2.738 1_655 S
C934 O917 1.255 . S
C934 O918 1.249 . S
C934 C928 1.516 . S
C935 O919 1.254 . S
C935 O920 1.257 . S
C936 O921 1.266 . S
C936 O922 1.236 . S
C937 C940 1.344 1_556 S
C937 C941 1.328 . S
C937 C943 1.516 . S
C938 C939 1.304 1_556 S
C938 C942 1.323 . S
C939 C938 1.304 1_554 S
C939 C940 1.371 . S
C939 H948 0.930 . S
C940 C937 1.344 1_554 S
C940 C939 1.371 . S
C940 H949 0.931 . S
C941 C937 1.328 . S
C941 C942 1.433 . S
C941 H950 0.931 . S
C942 C938 1.323 . S
C942 C941 1.433 . S
C942 H951 0.933 . S
C943 Dy913 2.738 1_556 S
C943 O923 1.255 1_556 S
C943 O924 1.249 . S
C943 C937 1.516 . S
H944 C930 0.930 . S
H945 C931 0.931 . S
H946 C932 0.931 . S
H947 C933 0.933 . S
H948 C939 0.930 . S
H949 C940 0.931 . S
H950 C941 0.931 . S
H951 C942 0.933 . S
C101 C325 4.182 1_655 S
C57 C376 3.033 . S
C73 C405 2.893 1_565 S
C449 C78 1.926 . S
C21 C489 1.587 . S
C525 C31 2.550 . S
C575 C49 2.802 . S
C0 C605 3.776 . S
C335 C218 3.271 . S
C229 C378 0.899 . S
C415 C257 1.675 . S
C445 C164 1.970 . S
C216 C485 1.925 . S
C535 C231 1.158 . S
C569 C255 0.901 . S
C615 C166 3.185 . S
C329 C143 2.654 . S
C265 C655 2.456 . S
C689 C299 2.299 . S
C725 C291 0.566 . S
C104 C609 2.800 . S
C117 C409 2.246 . S
C304 C775 2.421 . S
C794 C278 0.721 . S
C336 C60 4.189 . S
C805 C96 2.907 . S
C88 C416 2.934 . S
C65 C778 2.414 . S
C498 C10 1.813 . S
C44 C696 2.396 . S
C554 C34 2.778 1_544 S
C856 C13 3.984 . S
C314 C138 3.300 . S
C809 C296 0.966 . S
C112 C394 2.068 . S
C270 C776 1.979 . S
C140 C496 1.966 . S
C674 C294 1.598 . S
C114 C578 1.171 1_545 S
C268 C834 3.188 . S
C169 C338 3.645 1_554 S
C161 C634 2.601 . S
C234 C538 2.905 . S
C226 C736 0.858 . S
C858 C247 3.340 . S
C195 C418 2.802 . S
C434 C239 2.597 . S
C375 C187 0.918 . S
C75 C885 4.184 . S
C816 C83 2.938 . S
C99 C925 2.890 . S
C52 C769 1.910 . S
C47 C649 1.562 . S
C685 C5 2.581 . S
C735 C23 2.838 . S
C845 C26 3.774 . S
C895 C244 3.249 . S
C177 C818 0.867 . S
C935 C192 1.808 . S
C765 C203 1.941 . S
C645 C242 1.927 . S
C179 C695 1.066 . S
C729 C190 0.971 . S
C205 C855 3.190 . S
C889 C286 2.956 . S
C122 C495 2.464 . S
C529 C130 2.165 . S
C565 C148 0.454 . S
C849 C273 2.710 . S
C260 C929 2.231 . S
C455 C135 2.419 . S
C354 C109 0.783 . S
C86 C896 4.177 . S
C365 C70 2.999 . S
C62 C936 2.927 . S
C91 C458 2.390 . S
C36 C658 1.823 . S
C536 C18 2.432 . S
C8 C714 2.745 . S
C39 C616 3.979 . S
C874 C307 3.268 . S
C153 C369 1.054 . S
C914 C281 2.132 1_455 S
C127 C456 1.963 . S
C309 C656 1.975 . S
C514 C151 1.663 . S
C283 C738 1.235 . S
C594 C125 3.166 . S
C898 C221 3.534 . S
C474 C200 2.599 1_545 S
C208 C698 2.838 . S
C576 C174 0.767 . S
C182 C618 3.290 . S
C156 C938 2.869 1_554 S
C754 C213 2.597 . S
C815 C252 1.045 . S
