# Generated by pormake.
# Topology iac, (4,6)-cn, num edge types: 1
# Building blocks:
#     Node 0, Type 0, BuildingBlock: AZAVOO_clean_sbu_0, # of connection points: 4
#     Node 1, Type 0, BuildingBlock: AZAVOO_clean_sbu_0, # of connection points: 4
#     Node 2, Type 0, BuildingBlock: AZAVOO_clean_sbu_0, # of connection points: 4
#     Node 3, Type 0, BuildingBlock: AZAVOO_clean_sbu_0, # of connection points: 4
#     Node 4, Type 0, BuildingBlock: AZAVOO_clean_sbu_0, # of connection points: 4
#     Node 5, Type 0, BuildingBlock: AZAVOO_clean_sbu_0, # of connection points: 4
#     Node 6, Type 0, BuildingBlock: AZAVOO_clean_sbu_0, # of connection points: 4
#     Node 7, Type 0, BuildingBlock: AZAVOO_clean_sbu_0, # of connection points: 4
#     Node 8, Type 0, BuildingBlock: AZAVOO_clean_sbu_0, # of connection points: 4
#     Node 9, Type 0, BuildingBlock: AZAVOO_clean_sbu_0, # of connection points: 4
#     Node 10, Type 0, BuildingBlock: AZAVOO_clean_sbu_0, # of connection points: 4
#     Node 11, Type 0, BuildingBlock: AZAVOO_clean_sbu_0, # of connection points: 4
#     Node 12, Type 0, BuildingBlock: AZAVOO_clean_sbu_0, # of connection points: 4
#     Node 13, Type 0, BuildingBlock: AZAVOO_clean_sbu_0, # of connection points: 4
#     Node 14, Type 0, BuildingBlock: AZAVOO_clean_sbu_0, # of connection points: 4
#     Node 15, Type 0, BuildingBlock: AZAVOO_clean_sbu_0, # of connection points: 4
#     Node 16, Type 0, BuildingBlock: AZAVOO_clean_sbu_0, # of connection points: 4
#     Node 17, Type 0, BuildingBlock: AZAVOO_clean_sbu_0, # of connection points: 4
#     Node 18, Type 0, BuildingBlock: AZAVOO_clean_sbu_0, # of connection points: 4
#     Node 19, Type 0, BuildingBlock: AZAVOO_clean_sbu_0, # of connection points: 4
#     Node 20, Type 0, BuildingBlock: AZAVOO_clean_sbu_0, # of connection points: 4
#     Node 21, Type 0, BuildingBlock: AZAVOO_clean_sbu_0, # of connection points: 4
#     Node 22, Type 0, BuildingBlock: AZAVOO_clean_sbu_0, # of connection points: 4
#     Node 23, Type 0, BuildingBlock: AZAVOO_clean_sbu_0, # of connection points: 4
#     Node 24, Type 1, BuildingBlock: FUNLAD_clean_sbu_0, # of connection points: 6
#     Node 25, Type 1, BuildingBlock: FUNLAD_clean_sbu_0, # of connection points: 6
#     Node 26, Type 1, BuildingBlock: FUNLAD_clean_sbu_0, # of connection points: 6
#     Node 27, Type 1, BuildingBlock: FUNLAD_clean_sbu_0, # of connection points: 6
#     Node 28, Type 1, BuildingBlock: FUNLAD_clean_sbu_0, # of connection points: 6
#     Node 29, Type 1, BuildingBlock: FUNLAD_clean_sbu_0, # of connection points: 6
#     Node 30, Type 1, BuildingBlock: FUNLAD_clean_sbu_0, # of connection points: 6
#     Node 31, Type 1, BuildingBlock: FUNLAD_clean_sbu_0, # of connection points: 6
#     Node 32, Type 1, BuildingBlock: FUNLAD_clean_sbu_0, # of connection points: 6
#     Node 33, Type 1, BuildingBlock: FUNLAD_clean_sbu_0, # of connection points: 6
#     Node 34, Type 1, BuildingBlock: FUNLAD_clean_sbu_0, # of connection points: 6
#     Node 35, Type 1, BuildingBlock: FUNLAD_clean_sbu_0, # of connection points: 6
#     Node 36, Type 1, BuildingBlock: FUNLAD_clean_sbu_0, # of connection points: 6
#     Node 37, Type 1, BuildingBlock: FUNLAD_clean_sbu_0, # of connection points: 6
#     Node 38, Type 1, BuildingBlock: FUNLAD_clean_sbu_0, # of connection points: 6
#     Node 39, Type 1, BuildingBlock: FUNLAD_clean_sbu_0, # of connection points: 6
#     Edge 40, Type (0, 1), None
#     Edge 41, Type (0, 1), None
#     Edge 42, Type (0, 1), None
#     Edge 43, Type (0, 1), None
#     Edge 44, Type (0, 1), None
#     Edge 45, Type (0, 1), None
#     Edge 46, Type (0, 1), None
#     Edge 47, Type (0, 1), None
#     Edge 48, Type (0, 1), None
#     Edge 49, Type (0, 1), None
#     Edge 50, Type (0, 1), None
#     Edge 51, Type (0, 1), None
#     Edge 52, Type (0, 1), None
#     Edge 53, Type (0, 1), None
#     Edge 54, Type (0, 1), None
#     Edge 55, Type (0, 1), None
#     Edge 56, Type (0, 1), None
#     Edge 57, Type (0, 1), None
#     Edge 58, Type (0, 1), None
#     Edge 59, Type (0, 1), None
#     Edge 60, Type (0, 1), None
#     Edge 61, Type (0, 1), None
#     Edge 62, Type (0, 1), None
#     Edge 63, Type (0, 1), None
#     Edge 64, Type (0, 1), None
#     Edge 65, Type (0, 1), None
#     Edge 66, Type (0, 1), None
#     Edge 67, Type (0, 1), None
#     Edge 68, Type (0, 1), None
#     Edge 69, Type (0, 1), None
#     Edge 70, Type (0, 1), None
#     Edge 71, Type (0, 1), None
#     Edge 72, Type (0, 1), None
#     Edge 73, Type (0, 1), None
#     Edge 74, Type (0, 1), None
#     Edge 75, Type (0, 1), None
#     Edge 76, Type (0, 1), None
#     Edge 77, Type (0, 1), None
#     Edge 78, Type (0, 1), None
#     Edge 79, Type (0, 1), None
#     Edge 80, Type (0, 1), None
#     Edge 81, Type (0, 1), None
#     Edge 82, Type (0, 1), None
#     Edge 83, Type (0, 1), None
#     Edge 84, Type (0, 1), None
#     Edge 85, Type (0, 1), None
#     Edge 86, Type (0, 1), None
#     Edge 87, Type (0, 1), None
#     Edge 88, Type (0, 1), None
#     Edge 89, Type (0, 1), None
#     Edge 90, Type (0, 1), None
#     Edge 91, Type (0, 1), None
#     Edge 92, Type (0, 1), None
#     Edge 93, Type (0, 1), None
#     Edge 94, Type (0, 1), None
#     Edge 95, Type (0, 1), None
#     Edge 96, Type (0, 1), None
#     Edge 97, Type (0, 1), None
#     Edge 98, Type (0, 1), None
#     Edge 99, Type (0, 1), None
#     Edge 100, Type (0, 1), None
#     Edge 101, Type (0, 1), None
#     Edge 102, Type (0, 1), None
#     Edge 103, Type (0, 1), None
#     Edge 104, Type (0, 1), None
#     Edge 105, Type (0, 1), None
#     Edge 106, Type (0, 1), None
#     Edge 107, Type (0, 1), None
#     Edge 108, Type (0, 1), None
#     Edge 109, Type (0, 1), None
#     Edge 110, Type (0, 1), None
#     Edge 111, Type (0, 1), None
#     Edge 112, Type (0, 1), None
#     Edge 113, Type (0, 1), None
#     Edge 114, Type (0, 1), None
#     Edge 115, Type (0, 1), None
#     Edge 116, Type (0, 1), None
#     Edge 117, Type (0, 1), None
#     Edge 118, Type (0, 1), None
#     Edge 119, Type (0, 1), None
#     Edge 120, Type (0, 1), None
#     Edge 121, Type (0, 1), None
#     Edge 122, Type (0, 1), None
#     Edge 123, Type (0, 1), None
#     Edge 124, Type (0, 1), None
#     Edge 125, Type (0, 1), None
#     Edge 126, Type (0, 1), None
#     Edge 127, Type (0, 1), None
#     Edge 128, Type (0, 1), None
#     Edge 129, Type (0, 1), None
#     Edge 130, Type (0, 1), None
#     Edge 131, Type (0, 1), None
#     Edge 132, Type (0, 1), None
#     Edge 133, Type (0, 1), None
#     Edge 134, Type (0, 1), None
#     Edge 135, Type (0, 1), None
# Relax obj value: 0.553
# Max RMSD: 0.401
# Mean RMSD: 0.205
data_MOF--net-iac--node1-AZAVOO_clean_sbu_0--node2-FUNLAD_clean_sbu_0--edge1-none
_symmetry_space_group_name_H-M    P1
_symmetry_Int_Tables_number       1
_symmetry_cell_setting            triclinic
loop_
_symmetry_equiv_pos_as_xyz
'x, y, z'
_cell_length_a     26.267775
_cell_length_b     23.577128
_cell_length_c     29.939707
_cell_angle_alpha  92.257502
_cell_angle_beta   90.458032
_cell_angle_gamma 91.229856
loop_
_atom_site_label
_atom_site_type_symbol
_atom_site_fract_x
_atom_site_fract_y
_atom_site_fract_z
_atom_type_partial_charge
Mg0 Mg 0.14524 0.21697 0.1793 0.0
O1 O 0.17672 0.14792 0.1284 0.0
O2 O 0.0956 0.15618 0.1329 0.0
Mg3 Mg 0.0163 0.17948 0.11646 0.0
C4 C 0.13379 0.14493 0.10874 0.0
C5 C 0.22062 0.2987 0.22169 0.0
O6 O 0.17699 0.31727 0.23682 0.0
O7 O 0.14091 0.26621 0.11799 0.0
O8 O 0.06539 0.24655 0.08389 0.0
O9 O 0.11361 0.17058 0.23863 0.0
O10 O 0.07179 0.17731 0.17527 0.0
C11 C 0.10919 0.27161 0.08615 0.0
C12 C 0.07074 0.16653 0.21701 0.0
O13 O 0.22108 0.25511 0.19558 0.0
Mg14 Mg 0.07118 0.76028 0.39013 0.0
O15 O 0.06927 0.83949 0.44312 0.0
O16 O 1.00122 0.82397 0.48643 0.0
Mg17 Mg 0.95612 0.74453 0.46286 0.0
C18 C 0.03999 0.85399 0.47592 0.0
C19 C 0.17834 0.75448 0.32757 0.0
O20 O 0.14714 0.72645 0.29977 0.0
O21 O 0.0919 0.69365 0.44533 0.0
O22 O 0.02077 0.68721 0.48571 0.0
O23 O 0.01615 0.80458 0.34121 0.0
O24 O 0.98886 0.7545 0.39585 0.0
C25 C 0.06624 0.67229 0.47743 0.0
C26 C 0.9776 0.7852 0.36289 0.0
O27 O 0.16031 0.77381 0.36522 0.0
Mg28 Mg 0.64524 0.71697 0.6793 0.0
O29 O 0.67672 0.64792 0.6284 0.0
O30 O 0.5956 0.65618 0.6329 0.0
Mg31 Mg 0.5163 0.67948 0.61646 0.0
C32 C 0.63379 0.64493 0.60874 0.0
C33 C 0.72062 0.7987 0.72169 0.0
O34 O 0.67699 0.81727 0.73682 0.0
O35 O 0.64091 0.76621 0.61799 0.0
O36 O 0.56539 0.74655 0.58389 0.0
O37 O 0.61361 0.67058 0.73863 0.0
O38 O 0.57179 0.67731 0.67527 0.0
C39 C 0.60919 0.77161 0.58615 0.0
C40 C 0.57074 0.66653 0.71701 0.0
O41 O 0.72108 0.75511 0.69558 0.0
Mg42 Mg 0.57118 0.26028 0.89013 0.0
O43 O 0.56927 0.33949 0.94312 0.0
O44 O 0.50122 0.32397 0.98643 0.0
Mg45 Mg 0.45612 0.24453 0.96286 0.0
C46 C 0.53999 0.35399 0.97592 0.0
C47 C 0.67834 0.25448 0.82757 0.0
O48 O 0.64714 0.22645 0.79977 0.0
O49 O 0.5919 0.19365 0.94533 0.0
O50 O 0.52077 0.18721 0.98571 0.0
O51 O 0.51615 0.30458 0.84121 0.0
O52 O 0.48886 0.2545 0.89585 0.0
C53 C 0.56624 0.17229 0.97743 0.0
C54 C 0.4776 0.2852 0.86289 0.0
O55 O 0.66031 0.27381 0.86522 0.0
Mg56 Mg 0.20892 0.03191 0.26528 0.0
O57 O 0.26823 0.10903 0.27156 0.0
O58 O 0.3004 0.10752 0.34132 0.0
Mg59 Mg 0.26992 0.03074 0.37717 0.0
C60 C 0.29672 0.13026 0.30352 0.0
C61 C 0.1487 0.02016 0.17674 0.0
O62 O 0.11427 0.01169 0.20747 0.0
O63 O 0.27038 0.96533 0.25554 0.0
O64 O 0.29991 0.96532 0.32575 0.0
O65 O 0.14699 0.08445 0.29756 0.0
O66 O 0.2031 0.0363 0.33455 0.0
C67 C 0.29882 0.94515 0.28549 0.0
C68 C 0.16546 0.06986 0.33547 0.0
O69 O 0.19422 0.03353 0.18896 0.0
Mg70 Mg 0.32172 0.93617 0.58863 0.0
O71 O 0.33474 0.86811 0.53319 0.0
O72 O 0.41428 0.83598 0.54293 0.0
Mg73 Mg 0.4449 0.86731 0.60972 0.0
C74 C 0.37317 0.83922 0.5204 0.0
C75 C 0.20179 0.96981 0.59356 0.0
O76 O 0.21016 0.97016 0.63687 0.0
O77 O 0.29993 0.86607 0.63972 0.0
O78 O 0.37641 0.82767 0.64624 0.0
O79 O 0.36451 -0.00437 0.54434 0.0
O80 O 0.40269 0.94222 0.59253 0.0
C81 C 0.329 0.82848 0.65553 0.0
C82 C 0.40614 0.97422 0.55862 0.0
O83 O 0.2371 0.95404 0.56697 0.0
Mg84 Mg 0.47561 0.02663 0.75765 0.0
O85 O 0.41926 0.94591 0.76378 0.0
O86 O 0.39055 0.94913 0.83461 0.0
Mg87 Mg 0.42934 0.02296 0.87359 0.0
C88 C 0.39225 0.92544 0.79562 0.0
C89 C 0.53182 0.04046 0.66751 0.0
O90 O 0.56928 0.04134 0.69681 0.0
O91 O 0.41063 0.09225 0.76024 0.0
O92 O 0.38927 0.08935 0.83228 0.0
O93 O 0.54114 0.97293 0.77636 0.0
O94 O 0.49025 0.0169 0.8243 0.0
C95 C 0.38472 0.11026 0.79376 0.0
C96 C 0.52729 0.98306 0.81715 0.0
O97 O 0.48612 0.03133 0.68066 0.0
Mg98 Mg 0.36036 0.00923 0.03862 0.0
O99 O 0.37484 0.08806 0.08833 0.0
O100 O 0.4409 0.13785 0.06012 0.0
Mg101 Mg 0.45984 0.09878 0.99242 0.0
C102 C 0.40718 0.1301 0.08987 0.0
C103 C 0.3286 0.92122 0.9564 0.0
O104 O 0.33645 0.88428 0.92336 0.0
O105 O 0.31488 0.06808 -0.00283 0.0
O106 O 0.37988 0.12526 0.97902 0.0
O107 O 0.42254 0.96469 0.0734 0.0
O108 O 0.43035 0.02048 0.01627 0.0
C109 C 0.33243 0.11394 0.98169 0.0
C110 C 0.45072 0.99113 0.04582 0.0
O111 O 0.36484 0.93893 0.98158 0.0
Mg112 Mg 0.82172 0.43617 0.08863 0.0
O113 O 0.83474 0.36811 0.03319 0.0
O114 O 0.91428 0.33598 0.04293 0.0
Mg115 Mg 0.9449 0.36731 0.10972 0.0
C116 C 0.87317 0.33922 0.0204 0.0
C117 C 0.70179 0.46981 0.09356 0.0
O118 O 0.71016 0.47016 0.13687 0.0
O119 O 0.79993 0.36607 0.13972 0.0
O120 O 0.87641 0.32767 0.14624 0.0
O121 O 0.86451 0.49563 0.04434 0.0
O122 O 0.90269 0.44222 0.09253 0.0
C123 C 0.829 0.32848 0.15553 0.0
C124 C 0.90614 0.47422 0.05862 0.0
O125 O 0.7371 0.45404 0.06697 0.0
Mg126 Mg 0.97561 0.52663 0.25765 0.0
O127 O 0.91926 0.44591 0.26378 0.0
O128 O 0.89055 0.44913 0.33461 0.0
Mg129 Mg 0.92934 0.52296 0.37359 0.0
C130 C 0.89225 0.42544 0.29562 0.0
C131 C 0.03182 0.54046 0.16751 0.0
O132 O 0.06928 0.54135 0.19681 0.0
O133 O 0.91063 0.59225 0.26024 0.0
O134 O 0.88927 0.58935 0.33228 0.0
O135 O 0.04114 0.47293 0.27636 0.0
O136 O 0.99025 0.5169 0.3243 0.0
C137 C 0.88472 0.61026 0.29376 0.0
C138 C 0.02729 0.48306 0.31715 0.0
O139 O 0.98612 0.53133 0.18066 0.0
Mg140 Mg 0.86036 0.50923 0.53862 0.0
O141 O 0.87484 0.58806 0.58833 0.0
O142 O 0.9409 0.63785 0.56012 0.0
Mg143 Mg 0.95984 0.59878 0.49242 0.0
C144 C 0.90718 0.6301 0.58987 0.0
C145 C 0.8286 0.42122 0.4564 0.0
O146 O 0.83645 0.38427 0.42336 0.0
O147 O 0.81488 0.56808 0.49717 0.0
O148 O 0.87988 0.62526 0.47902 0.0
O149 O 0.92254 0.46469 0.5734 0.0
O150 O 0.93035 0.52048 0.51627 0.0
C151 C 0.83243 0.61394 0.48169 0.0
C152 C 0.95072 0.49113 0.54582 0.0
O153 O 0.86484 0.43893 0.48158 0.0
Mg154 Mg 0.70892 0.53191 0.76528 0.0
O155 O 0.76823 0.60903 0.77156 0.0
O156 O 0.8004 0.60752 0.84132 0.0
Mg157 Mg 0.76992 0.53074 0.87717 0.0
C158 C 0.79672 0.63026 0.80352 0.0
C159 C 0.6487 0.52016 0.67674 0.0
O160 O 0.61427 0.51169 0.70747 0.0
O161 O 0.77038 0.46533 0.75554 0.0
O162 O 0.79991 0.46532 0.82575 0.0
O163 O 0.64699 0.58445 0.79756 0.0
O164 O 0.7031 0.5363 0.83455 0.0
C165 C 0.79882 0.44515 0.78549 0.0
C166 C 0.66546 0.56986 0.83547 0.0
O167 O 0.69422 0.53353 0.68896 0.0
Mg168 Mg 0.07022 0.85411 0.8861 0.0
O169 O 0.07772 0.89769 0.95237 0.0
O170 O 0.99659 0.9142 0.9705 0.0
Mg171 Mg 0.94015 0.90294 0.91194 0.0
C172 C 0.04339 0.90901 0.98104 0.0
C173 C 0.10912 0.74011 0.89909 0.0
O174 O 0.11622 0.68754 0.91011 0.0
O175 O 0.02224 0.79849 0.93363 0.0
O176 O 0.93964 0.82101 0.94436 0.0
O177 O 0.03827 0.80315 0.82532 0.0
O178 O 0.99527 0.86004 0.86897 0.0
C179 C 0.97829 0.79103 0.95147 0.0
C180 C 0.99522 0.81839 0.8407 0.0
O181 O 0.07308 0.76822 0.91639 0.0
Mg182 Mg 0.08268 0.28594 0.69467 0.0
O183 O 0.07592 0.19816 0.65145 0.0
O184 O 0.01286 0.20981 0.60247 0.0
Mg185 Mg 0.9731 0.29467 0.62092 0.0
C186 C 0.04898 0.1803 0.61747 0.0
C187 C 0.17376 0.25156 0.75729 0.0
O188 O 0.13527 0.24381 0.78425 0.0
O189 O 0.11245 0.33883 0.63369 0.0
O190 O 0.04169 0.34769 0.5932 0.0
O191 O 0.02993 0.26029 0.7526 0.0
O192 O 1.00192 0.29877 0.69226 0.0
C193 C 0.08914 0.35872 0.60003 0.0
C194 C 0.99184 0.28106 0.73175 0.0
O195 O 0.16504 0.26673 0.71757 0.0
Mg196 Mg 0.57022 0.35411 0.3861 0.0
O197 O 0.57772 0.39769 0.45237 0.0
O198 O 0.49659 0.4142 0.4705 0.0
Mg199 Mg 0.44015 0.40294 0.41194 0.0
C200 C 0.54339 0.40901 0.48104 0.0
C201 C 0.60912 0.24011 0.39909 0.0
O202 O 0.61622 0.18754 0.41011 0.0
O203 O 0.52224 0.29849 0.43363 0.0
O204 O 0.43964 0.32101 0.44436 0.0
O205 O 0.53826 0.30315 0.32532 0.0
O206 O 0.49526 0.36004 0.36897 0.0
C207 C 0.47829 0.29103 0.45147 0.0
C208 C 0.49522 0.31839 0.3407 0.0
O209 O 0.57308 0.26822 0.41639 0.0
Mg210 Mg 0.58268 0.78594 0.19467 0.0
O211 O 0.57592 0.69816 0.15145 0.0
O212 O 0.51286 0.70981 0.10247 0.0
Mg213 Mg 0.4731 0.79467 0.12092 0.0
C214 C 0.54898 0.6803 0.11747 0.0
C215 C 0.67376 0.75156 0.25729 0.0
O216 O 0.63527 0.74381 0.28425 0.0
O217 O 0.61245 0.83883 0.13369 0.0
O218 O 0.54169 0.84769 0.0932 0.0
O219 O 0.52993 0.76029 0.2526 0.0
O220 O 0.50192 0.79877 0.19226 0.0
C221 C 0.58914 0.85872 0.10003 0.0
C222 C 0.49184 0.78106 0.23175 0.0
O223 O 0.66504 0.76673 0.21757 0.0
Mg224 Mg 1.00417 0.06146 0.82638 0.0
O225 O 0.96732 0.97384 0.79784 0.0
O226 O 0.9016 0.9748 0.84413 0.0
Mg227 Mg 0.90513 0.03567 0.90527 0.0
C228 C 0.92293 0.95554 0.80865 0.0
C229 C 0.07054 0.04675 0.73529 0.0
O230 O 0.10992 0.06347 0.71202 0.0
O231 O 0.93422 0.1052 0.79503 0.0
O232 O 0.88122 0.0988 0.85271 0.0
O233 O 0.06318 0.02809 0.87499 0.0
O234 O 0.98724 0.05283 0.89574 0.0
C235 C 0.89167 0.11611 0.81375 0.0
C236 C 0.03217 0.03733 0.9074 0.0
O237 O 0.05875 0.07582 0.76989 0.0
Mg238 Mg 0.81928 0.09679 0.4755 0.0
O239 O 0.81737 0.15455 0.53585 0.0
O240 O 0.88619 0.2112 0.54062 0.0
Mg241 Mg 0.93948 0.18109 0.48405 0.0
C242 C 0.84299 0.19462 0.55503 0.0
C243 C 0.70012 0.10961 0.51026 0.0
O244 O 0.71183 0.16264 0.52164 0.0
O245 O 0.80767 0.17134 0.4269 0.0
O246 O 0.88633 0.21054 0.42957 0.0
O247 O 0.86159 0.03275 0.51628 0.0
O248 O 0.90029 0.09739 0.47704 0.0
C249 C 0.84154 0.20647 0.41282 0.0
C250 C 0.90369 0.05647 0.50377 0.0
O251 O 0.73268 0.0784 0.48987 0.0
Mg252 Mg 0.67304 0.02647 0.33495 0.0
O253 O 0.70221 0.09095 0.28322 0.0
O254 O 0.76806 0.08003 0.32565 0.0
Mg255 Mg 0.70336 0.03189 0.36089 0.0
C256 C 0.74876 0.10313 0.29201 0.0
C257 C 0.58248 -0.00387 0.2561 0.0
O258 O 0.54249 0.96296 0.24745 0.0
O259 O 0.73054 0.95418 0.3089 0.0
O260 O 0.75507 0.95988 0.37802 0.0
O261 O 0.60877 0.07026 0.37424 0.0
O262 O 0.63556 0.98687 0.39254 0.0
C263 C 0.75805 0.93506 0.34006 0.0
C264 C 0.60223 0.02574 0.39759 0.0
O265 O 0.60825 0.98796 0.29131 0.0
Mg266 Mg 0.75095 0.99112 0.09026 0.0
O267 O 0.77513 0.94482 0.02336 0.0
O268 O 0.85812 0.9255 0.02366 0.0
Mg269 Mg 0.86787 0.90873 0.09676 0.0
C270 C 0.81526 0.92794 0.00351 0.0
C271 C 0.74808 0.06842 0.01543 0.0
O272 O 0.75573 0.10375 0.98324 0.0
O273 O 0.73019 0.90855 0.12556 0.0
O274 O 0.78821 0.87321 0.08303 0.0
O275 O 0.80627 0.06675 0.08889 0.0
O276 O 0.82751 0.98836 0.11768 0.0
C277 C 0.76221 0.86971 0.11776 0.0
C278 C 0.83985 0.03909 0.1095 0.0
O279 O 0.77665 0.0698 0.04958 0.0
Mg280 Mg 0.31928 0.59679 0.9755 0.0
O281 O 0.31737 0.65455 0.03585 0.0
O282 O 0.38619 0.7112 0.04062 0.0
Mg283 Mg 0.43948 0.68109 0.98405 0.0
C284 C 0.34299 0.69462 0.05503 0.0
C285 C 0.20012 0.60961 0.01026 0.0
O286 O 0.21183 0.66265 0.02164 0.0
O287 O 0.30767 0.67134 0.9269 0.0
O288 O 0.38633 0.71054 0.92957 0.0
O289 O 0.36159 0.53275 0.01628 0.0
O290 O 0.40029 0.59739 0.97704 0.0
C291 C 0.34154 0.70647 0.91282 0.0
C292 C 0.40369 0.55647 0.00377 0.0
O293 O 0.23268 0.5784 0.98987 0.0
Mg294 Mg 0.17304 0.52647 0.83495 0.0
O295 O 0.20221 0.59095 0.78322 0.0
O296 O 0.26806 0.58003 0.82565 0.0
Mg297 Mg 0.20336 0.53189 0.86089 0.0
C298 C 0.24876 0.60313 0.79201 0.0
C299 C 0.08248 0.49613 0.7561 0.0
O300 O 0.04249 0.46296 0.74745 0.0
O301 O 0.23054 0.45418 0.8089 0.0
O302 O 0.25507 0.45988 0.87802 0.0
O303 O 0.10877 0.57026 0.87424 0.0
O304 O 0.13556 0.48687 0.89254 0.0
C305 C 0.25805 0.43506 0.84006 0.0
C306 C 0.10223 0.52574 0.89759 0.0
O307 O 0.10825 0.48796 0.79131 0.0
Mg308 Mg 0.25095 0.49112 0.59026 0.0
O309 O 0.27513 0.44482 0.52336 0.0
O310 O 0.35812 0.4255 0.52366 0.0
Mg311 Mg 0.36787 0.40873 0.59676 0.0
C312 C 0.31526 0.42794 0.50351 0.0
C313 C 0.24808 0.56842 0.51543 0.0
O314 O 0.25573 0.60375 0.48324 0.0
O315 O 0.23019 0.40855 0.62556 0.0
O316 O 0.28821 0.37321 0.58303 0.0
O317 O 0.30627 0.56675 0.58889 0.0
O318 O 0.32751 0.48836 0.61768 0.0
C319 C 0.26221 0.36971 0.61776 0.0
C320 C 0.33985 0.53909 0.6095 0.0
O321 O 0.27665 0.5698 0.54958 0.0
Mg322 Mg 0.50417 0.56146 0.32638 0.0
O323 O 0.46731 0.47384 0.29784 0.0
O324 O 0.4016 0.4748 0.34413 0.0
Mg325 Mg 0.40513 0.53567 0.40527 0.0
C326 C 0.42293 0.45554 0.30865 0.0
C327 C 0.57054 0.54675 0.23529 0.0
O328 O 0.60992 0.56347 0.21202 0.0
O329 O 0.43422 0.6052 0.29503 0.0
O330 O 0.38122 0.5988 0.35271 0.0
O331 O 0.56318 0.52809 0.37499 0.0
O332 O 0.48724 0.55283 0.39574 0.0
C333 C 0.39167 0.61611 0.31375 0.0
C334 C 0.53217 0.53733 0.4074 0.0
O335 O 0.55875 0.57582 0.26989 0.0
C336 C 0.05033 0.03589 0.95504 0.0
N337 N 0.99118 0.05763 0.08182 0.0
C338 C 0.95934 0.09541 0.06404 0.0
C339 C 0.90903 0.09626 0.07758 0.0
C340 C 0.89273 0.05691 0.10867 0.0
C341 C 0.92792 0.02475 0.13103 0.0
C342 C 0.9774 0.02504 0.11639 0.0
Zn343 Zn 0.05484 0.03702 0.05213 0.0
C344 C 0.0597 0.92351 0.02653 0.0
N345 N 0.19505 0.98853 0.00551 0.0
C346 C 0.2105 0.00395 0.96441 0.0
C347 C 0.21782 0.94622 0.02734 0.0
C348 C 0.26013 0.92058 0.00959 0.0
C349 C 0.27807 0.93756 0.96852 0.0
C350 C 0.25256 0.97831 0.94481 0.0
Zn351 Zn 0.13148 0.0169 0.03309 0.0
O352 O 0.0201 0.0445 0.98722 0.0
C353 C 0.12561 0.13052 0.06103 0.0
O354 O 0.09713 0.027 0.96442 0.0
H355 H 0.20305 0.93159 0.05846 0.0
H356 H 0.97179 0.12111 0.03689 0.0
H357 H 0.19054 0.03623 0.94712 0.0
O358 O 0.07907 0.12083 0.05173 0.0
O359 O 0.1586 0.10074 0.04073 0.0
H360 H 1.00297 -0.00552 0.12954 0.0
O361 O 0.16411 0.00823 0.09829 0.0
O362 O 0.08746 0.02929 0.11887 0.0
O363 O 0.10681 0.9335 0.03031 0.0
O364 O 0.02979 0.9538 0.04939 0.0
C365 C 0.13288 0.01806 0.1293 0.0
H366 H 0.88242 0.12229 0.0602 0.0
H367 H 0.9162 -0.00534 0.15563 0.0
H368 H 0.27962 0.88902 0.02836 0.0
H369 H 0.26667 0.99226 0.91306 0.0
C370 C 0.43931 0.78274 0.2519 0.0
N371 N 0.30798 0.75038 0.18612 0.0
C372 C 0.3262 0.78903 0.1572 0.0
C373 C 0.33582 0.77268 0.11295 0.0
C374 C 0.32462 0.71681 0.0983 0.0
C375 C 0.29978 0.67992 0.12731 0.0
C376 C 0.29246 0.69747 0.17175 0.0
Zn377 Zn 0.32684 0.76592 0.25107 0.0
C378 C 0.36186 0.66434 0.29912 0.0
N379 N 0.36742 0.79561 0.38359 0.0
C380 C 0.40352 0.83377 0.39885 0.0
C381 C 0.33709 0.76669 0.41216 0.0
C382 C 0.33942 0.77882 0.45776 0.0
C383 C 0.37453 0.81954 0.47399 0.0
C384 C 0.40815 0.84607 0.44465 0.0
Zn385 Zn 0.34861 0.78353 0.31855 0.0
O386 O 0.40118 0.78618 0.22632 0.0
C387 C 0.32083 0.88879 0.27832 0.0
O388 O 0.4309 0.77993 0.29406 0.0
H389 H 0.30907 0.73577 0.39959 0.0
H390 H 0.33884 0.83074 0.16948 0.0
H391 H 0.42695 0.85623 0.3755 0.0
O392 O 0.30387 0.85392 0.24778 0.0
O393 O 0.34694 0.87023 0.31013 0.0
H394 H 0.27892 0.66736 0.19552 0.0
O395 O 0.26707 0.78559 0.33952 0.0
O396 O 0.2484 0.74424 0.27494 0.0
O397 O 0.35098 0.69949 0.32988 0.0
O398 O 0.35586 0.67827 0.25867 0.0
C399 C 0.23358 0.76206 0.31362 0.0
H400 H 0.35436 0.80232 0.09124 0.0
H401 H 0.29041 0.63637 0.11692 0.0
H402 H 0.31327 0.75782 0.4799 0.0
H403 H 0.43553 0.87822 0.45682 0.0
C404 C 0.54385 0.04396 0.61961 0.0
N405 N 0.59906 0.92254 0.53205 0.0
C406 C 0.64043 0.91534 0.5583 0.0
C407 C 0.65236 0.8612 0.57004 0.0
C408 C 0.61937 0.81643 0.55566 0.0
C409 C 0.58441 0.82394 0.52109 0.0
C410 C 0.5739 0.87867 0.51029 0.0
Zn411 Zn 0.56883 -0.00395 0.52981 0.0
C412 C 0.45573 0.98853 0.53816 0.0
N413 N 0.50208 0.1471 0.51632 0.0
C414 C 0.5196 0.19613 0.53659 0.0
C415 C 0.46636 0.14583 0.48305 0.0
C416 C 0.45057 0.1957 0.46556 0.0
C417 C 0.47369 0.24592 0.48164 0.0
C418 C 0.50587 0.24719 0.51919 0.0
Zn419 Zn 0.53608 0.07547 0.52489 0.0
O420 O 0.57338 0.00815 0.60116 0.0
C421 C 0.64918 0.0857 0.52079 0.0
O422 O 0.52283 0.0804 0.59574 0.0
H423 H 0.4543 0.1063 0.46641 0.0
H424 H 0.66035 0.95159 0.57396 0.0
H425 H 0.54804 0.19533 0.56287 0.0
O426 O 0.64219 0.03239 0.51909 0.0
O427 O 0.61136 0.11719 0.52958 0.0
H428 H 0.54189 0.88621 0.48856 0.0
O429 O 0.55128 0.07093 0.45356 0.0
O430 O 0.56637 0.98146 0.45959 0.0
O431 O 0.4619 0.03633 0.52117 0.0
O432 O 0.49452 0.95838 0.54345 0.0
C433 C 0.56704 0.02479 0.43608 0.0
H434 H 0.68117 0.85621 0.59561 0.0
H435 H 0.55987 0.7895 0.50809 0.0
H436 H 0.42653 0.19432 0.43589 0.0
H437 H 0.52446 0.28632 0.53144 0.0
C438 C 0.3565 0.16381 0.79197 0.0
N439 N 0.28283 0.23304 0.90156 0.0
C440 C 0.25821 0.18168 0.89747 0.0
C441 C 0.2663 0.14166 0.92932 0.0
C442 C 0.29867 0.15648 0.96518 0.0
C443 C 0.31294 0.21367 0.97374 0.0
C444 C 0.30524 0.25187 0.94043 0.0
Zn445 Zn 0.30863 0.26342 0.84464 0.0
C446 C 0.42335 0.29154 0.84759 0.0
N447 N 0.35642 0.31063 0.71862 0.0
C448 C 0.33966 0.27377 0.68531 0.0
C449 C 0.35087 0.36748 0.71557 0.0
C450 C 0.31555 0.38747 0.68546 0.0
C451 C 0.29141 0.34896 0.65491 0.0
C452 C 0.30641 0.29233 0.6529 0.0
Zn453 Zn 0.33785 0.28365 0.77947 0.0
O454 O 0.32958 0.17843 0.82532 0.0
C455 C 0.22612 0.25272 0.77568 0.0
O456 O 0.36756 0.20074 0.76369 0.0
H457 H 0.3672 0.3964 0.74101 0.0
H458 H 0.24053 0.16785 0.86608 0.0
H459 H 0.34533 0.22874 0.68746 0.0
O460 O 0.23335 0.25186 0.81751 0.0
O461 O 0.26411 0.26076 0.75078 0.0
H462 H 0.32421 0.29308 0.94268 0.0
O463 O 0.30483 0.36681 0.79655 0.0
O464 O 0.28797 0.34709 0.86552 0.0
O465 O 0.41335 0.3059 0.8078 0.0
O466 O 0.38662 0.27402 0.87153 0.0
C467 C 0.28652 0.38171 0.83419 0.0
H468 H 0.25544 0.09796 0.92153 0.0
H469 H 0.33757 0.22616 0.00183 0.0
H470 H 0.30734 0.43226 0.68606 0.0
H471 H 0.2911 0.26246 0.62755 0.0
C472 C 0.15137 0.98729 0.57654 0.0
N473 N 0.09789 0.06893 0.46155 0.0
C474 C 0.14734 0.08688 0.45891 0.0
C475 C 0.16974 0.09342 0.41718 0.0
C476 C 0.14047 0.08301 0.3782 0.0
C477 C 0.08836 0.07117 0.38198 0.0
C478 C 0.06792 0.06314 0.42416 0.0
Zn479 Zn 0.07085 0.03521 0.51944 0.0
C480 C 0.04764 0.90873 0.50185 0.0
N481 N 1.00541 0.9601 0.63432 0.0
C482 C 0.04073 0.93062 0.65667 0.0
C483 C 0.97426 -0.00366 0.657 0.0
C484 C 0.98996 0.01897 0.69871 0.0
C485 C 0.0368 0.00215 0.71585 0.0
C486 C 0.05898 0.95297 0.69766 0.0
Zn487 Zn 0.03409 -0.00537 0.57743 0.0
O488 O 0.14702 0.01228 0.53985 0.0
C489 C 0.05703 0.12287 0.59547 0.0
O490 O 0.1116 0.97833 0.59937 0.0
H491 H 0.94478 0.01781 0.6393 0.0
H492 H 0.17058 0.0918 0.48881 0.0
H493 H 0.06307 0.89932 0.63871 0.0
O494 O 0.07592 0.11801 0.5563 0.0
O495 O 0.03738 0.07876 0.61231 0.0
H496 H 0.02916 0.04745 0.42624 0.0
O497 O 0.95828 0.01041 0.55482 0.0
O498 O 0.9941 0.05603 0.50059 0.0
O499 O 0.03116 0.91361 0.54177 0.0
O500 O 0.06503 0.95279 0.48342 0.0
C501 C 0.95405 0.04 0.52057 0.0
H502 H 0.2102 0.10277 0.41534 0.0
H503 H 0.06492 0.06186 0.35254 0.0
H504 H 0.97148 0.05639 0.71235 0.0
H505 H 0.09473 0.93822 0.71071 0.0
C506 C 0.31274 0.79252 0.69298 0.0
N507 N 0.42635 0.70727 0.76174 0.0
C508 C 0.43026 0.66915 0.72673 0.0
C509 C 0.47773 0.64829 0.71472 0.0
C510 C 0.52123 0.6665 0.73928 0.0
C511 C 0.51539 0.70128 0.77782 0.0
C512 C 0.46735 0.72198 0.78816 0.0
Zn513 Zn 0.35803 0.74334 0.77493 0.0
C514 C 0.3669 0.86881 0.79007 0.0
N515 N 0.21395 0.80652 0.80738 0.0
C516 C 0.17402 0.77376 0.79132 0.0
C517 C 0.21371 0.82893 0.85004 0.0
C518 C 0.17781 0.80951 0.88046 0.0
C519 C 0.1424 0.76704 0.86644 0.0
C520 C 0.13908 0.75089 0.82101 0.0
Zn521 Zn 0.28395 0.77859 0.78729 0.0
O522 O 0.34391 0.7553 0.70554 0.0
C523 C 0.27449 0.65361 0.77367 0.0
O524 O 0.27832 0.80931 0.72004 0.0
H525 H 0.24579 0.85454 0.8625 0.0
H526 H 0.39698 0.65722 0.70671 0.0
H527 H 0.17392 0.75773 0.75697 0.0
O528 O 0.32265 0.65929 0.77596 0.0
O529 O 0.24858 0.69771 0.76931 0.0
H530 H 0.4634 0.75217 0.81598 0.0
O531 O 0.29161 0.74685 0.85483 0.0
O532 O 0.37255 0.73497 0.8435 0.0
O533 O 0.32181 0.86001 0.80451 0.0
O534 O 0.39223 0.82674 0.77547 0.0
C535 C 0.33476 0.73291 0.86943 0.0
H536 H 0.481 0.62198 0.68447 0.0
H537 H 0.54819 0.71725 0.79698 0.0
H538 H 0.18038 0.82391 0.91524 0.0
H539 H 0.11099 0.71952 0.80892 0.0
C540 C 0.61198 0.90726 0.07536 0.0
N541 N 0.60923 0.06795 0.13524 0.0
C542 C 0.56604 0.08279 0.15712 0.0
C543 C 0.55905 0.06701 0.20118 0.0
C544 C 0.59742 0.03735 0.22265 0.0
C545 C 0.64499 0.03282 0.20225 0.0
C546 C 0.65024 0.04896 0.15806 0.0
Zn547 Zn 0.6011 0.03468 0.07083 0.0
C548 C 0.69919 0.04181 0.02157 0.0
N549 N 0.59507 0.96022 0.94011 0.0
C550 C 0.55171 0.9295 0.92993 0.0
C551 C 0.62326 0.98416 0.90752 0.0
C552 C 0.60433 0.98472 0.86399 0.0
C553 C 0.55566 0.96192 0.85482 0.0
C554 C 0.53033 0.93119 0.88725 0.0
Zn555 Zn 0.60428 -0.00595 0.00369 0.0
O556 O 0.62059 0.95352 0.09766 0.0
C557 C 0.50445 -0.00692 0.04835 0.0
O558 O 0.60613 0.90977 0.03305 0.0
H559 H 0.65718 0.00909 0.91596 0.0
H560 H 0.53395 0.09809 0.13858 0.0
H561 H 0.53031 0.90968 0.956 0.0
O562 O 0.52674 0.01179 0.08347 0.0
O563 O 0.52779 0.9892 0.01178 0.0
H564 H 0.68406 0.03679 0.14014 0.0
O565 O 0.59758 0.07802 0.97662 0.0
O566 O 0.57817 0.11544 0.04238 0.0
O567 O 0.68181 0.00294 -0.00505 0.0
O568 O 0.67464 0.05757 0.056 0.0
C569 C 0.58436 0.12112 0.00035 0.0
H570 H 0.52179 0.07123 0.21607 0.0
H571 H 0.67514 0.00936 0.21749 0.0
H572 H 0.62443 0.00918 0.83951 0.0
H573 H 0.49257 0.91313 0.88084 0.0
C574 C 0.32059 0.18714 0.29991 0.0
N575 N 0.40492 0.25084 0.19865 0.0
C576 C 0.42642 0.19915 0.20367 0.0
C577 C 0.42717 0.15897 0.16838 0.0
C578 C 0.40649 0.17216 0.12722 0.0
C579 C 0.38847 0.22707 0.12131 0.0
C580 C 0.38738 0.26595 0.15797 0.0
Zn581 Zn 0.37724 0.28536 0.25768 0.0
C582 C 0.26721 0.31307 0.2458 0.0
N583 N 0.3093 0.33854 0.37837 0.0
C584 C 0.32706 0.3126 0.4149 0.0
C585 C 0.28678 0.39011 0.38218 0.0
C586 C 0.28614 0.42004 0.4235 0.0
C587 C 0.30951 0.39653 0.46043 0.0
C588 C 0.32768 0.34114 0.45645 0.0
Zn589 Zn 0.336 0.30911 0.31818 0.0
O590 O 0.34179 0.20183 0.26415 0.0
C591 C 0.44758 0.29117 0.32672 0.0
O592 O 0.31774 0.22328 0.33241 0.0
H593 H 0.27295 0.41005 0.35265 0.0
H594 H 0.43836 0.18617 0.23621 0.0
H595 H 0.345 0.27185 0.41115 0.0
O596 O 0.44427 0.26533 0.28909 0.0
O597 O 0.40785 0.30711 0.34673 0.0
H598 H 0.36913 0.30627 0.15464 0.0
O599 O 0.35419 0.39202 0.30465 0.0
O600 O 0.41429 0.37187 0.2566 0.0
O601 O 0.26605 0.31479 0.28813 0.0
O602 O 0.30922 0.30756 0.22543 0.0
C603 C 0.39509 0.40648 0.28563 0.0
H604 H 0.44234 0.11734 0.17361 0.0
H605 H 0.37328 0.23876 0.08929 0.0
H606 H 0.27053 0.4622 0.42594 0.0
H607 H 0.34426 0.32101 0.4849 0.0
C608 C 0.65137 0.48729 0.07654 0.0
N609 N 0.59789 0.56894 0.96155 0.0
C610 C 0.64734 0.58688 0.95891 0.0
C611 C 0.66974 0.59342 0.91718 0.0
C612 C 0.64047 0.58301 0.8782 0.0
C613 C 0.58836 0.57117 0.88198 0.0
C614 C 0.56792 0.56314 0.92416 0.0
Zn615 Zn 0.57085 0.53521 0.01944 0.0
C616 C 0.54764 0.40873 0.00185 0.0
N617 N 0.50541 0.4601 0.13432 0.0
C618 C 0.54073 0.43062 0.15667 0.0
C619 C 0.47426 0.49634 0.157 0.0
C620 C 0.48996 0.51897 0.19871 0.0
C621 C 0.5368 0.50215 0.21585 0.0
C622 C 0.55898 0.45297 0.19766 0.0
Zn623 Zn 0.53409 0.49463 0.07743 0.0
O624 O 0.64702 0.51228 0.03985 0.0
C625 C 0.55703 0.62287 0.09547 0.0
O626 O 0.6116 0.47833 0.09937 0.0
H627 H 0.44478 0.51781 0.1393 0.0
H628 H 0.67058 0.5918 0.98881 0.0
H629 H 0.56307 0.39932 0.13871 0.0
O630 O 0.57592 0.61801 0.0563 0.0
O631 O 0.53738 0.57876 0.11231 0.0
H632 H 0.52916 0.54745 0.92624 0.0
O633 O 0.45828 0.51041 0.05482 0.0
O634 O 0.4941 0.55603 0.00059 0.0
O635 O 0.53116 0.41361 0.04177 0.0
O636 O 0.56503 0.45279 0.98342 0.0
C637 C 0.45405 0.54 0.02057 0.0
H638 H 0.7102 0.60277 0.91534 0.0
H639 H 0.56492 0.56186 0.85254 0.0
H640 H 0.47148 0.55639 0.21235 0.0
H641 H 0.59473 0.43822 0.21071 0.0
C642 C 0.81274 0.29252 0.19298 0.0
N643 N 0.92635 0.20727 0.26174 0.0
C644 C 0.93026 0.16915 0.22673 0.0
C645 C 0.97773 0.14829 0.21472 0.0
C646 C 0.02123 0.1665 0.23928 0.0
C647 C 0.01539 0.20128 0.27782 0.0
C648 C 0.96735 0.22198 0.28816 0.0
Zn649 Zn 0.85803 0.24334 0.27493 0.0
C650 C 0.8669 0.36881 0.29007 0.0
N651 N 0.71395 0.30652 0.30738 0.0
C652 C 0.67402 0.27376 0.29132 0.0
C653 C 0.71371 0.32893 0.35004 0.0
C654 C 0.67781 0.30951 0.38046 0.0
C655 C 0.6424 0.26704 0.36644 0.0
C656 C 0.63908 0.25089 0.32101 0.0
Zn657 Zn 0.78395 0.27859 0.28729 0.0
O658 O 0.84391 0.2553 0.20554 0.0
C659 C 0.77449 0.15361 0.27367 0.0
O660 O 0.77832 0.30931 0.22004 0.0
H661 H 0.74579 0.35454 0.3625 0.0
H662 H 0.89698 0.15722 0.20671 0.0
H663 H 0.67392 0.25773 0.25697 0.0
O664 O 0.82265 0.15929 0.27596 0.0
O665 O 0.74858 0.19771 0.26931 0.0
H666 H 0.9634 0.25217 0.31598 0.0
O667 O 0.79161 0.24685 0.35483 0.0
O668 O 0.87255 0.23497 0.3435 0.0
O669 O 0.82181 0.36001 0.30451 0.0
O670 O 0.89223 0.32674 0.27547 0.0
C671 C 0.83476 0.23291 0.36943 0.0
H672 H 0.981 0.12198 0.18447 0.0
H673 H 0.04819 0.21725 0.29698 0.0
H674 H 0.68038 0.32391 0.41524 0.0
H675 H 0.61099 0.21952 0.30892 0.0
C676 C 0.11198 0.40726 0.57536 0.0
N677 N 0.10923 0.56795 0.63524 0.0
C678 C 0.06604 0.58279 0.65712 0.0
C679 C 0.05905 0.56701 0.70118 0.0
C680 C 0.09742 0.53735 0.72265 0.0
C681 C 0.14499 0.53282 0.70225 0.0
C682 C 0.15024 0.54896 0.65806 0.0
Zn683 Zn 0.1011 0.53468 0.57083 0.0
C684 C 0.19919 0.54181 0.52157 0.0
N685 N 0.09507 0.46022 0.44011 0.0
C686 C 0.05171 0.4295 0.42993 0.0
C687 C 0.12326 0.48416 0.40752 0.0
C688 C 0.10433 0.48472 0.36399 0.0
C689 C 0.05566 0.46192 0.35482 0.0
C690 C 0.03033 0.43119 0.38725 0.0
Zn691 Zn 0.10428 0.49405 0.50369 0.0
O692 O 0.12059 0.45352 0.59766 0.0
C693 C 1.00445 0.49308 0.54835 0.0
O694 O 0.10613 0.40977 0.53305 0.0
H695 H 0.15718 0.50909 0.41596 0.0
H696 H 0.03395 0.59809 0.63858 0.0
H697 H 0.03031 0.40968 0.456 0.0
O698 O 0.02674 0.51179 0.58347 0.0
O699 O 0.02779 0.4892 0.51178 0.0
H700 H 0.18406 0.53679 0.64014 0.0
O701 O 0.09758 0.57802 0.47662 0.0
O702 O 0.07817 0.61544 0.54238 0.0
O703 O 0.18181 0.50294 0.49495 0.0
O704 O 0.17464 0.55757 0.556 0.0
C705 C 0.08436 0.62112 0.50035 0.0
H706 H 0.02179 0.57123 0.71607 0.0
H707 H 0.17514 0.50936 0.71749 0.0
H708 H 0.12443 0.50918 0.33951 0.0
H709 H 0.99257 0.41313 0.38084 0.0
C710 C 0.8565 0.66381 0.29197 0.0
N711 N 0.78283 0.73304 0.40156 0.0
C712 C 0.75821 0.68168 0.39747 0.0
C713 C 0.7663 0.64166 0.42932 0.0
C714 C 0.79867 0.65648 0.46518 0.0
C715 C 0.81294 0.71367 0.47374 0.0
C716 C 0.80524 0.75187 0.44043 0.0
Zn717 Zn 0.80863 0.76342 0.34464 0.0
C718 C 0.92335 0.79154 0.34759 0.0
N719 N 0.85642 0.81063 0.21862 0.0
C720 C 0.83966 0.77377 0.18531 0.0
C721 C 0.85086 0.86748 0.21557 0.0
C722 C 0.81555 0.88747 0.18546 0.0
C723 C 0.79141 0.84896 0.15491 0.0
C724 C 0.80641 0.79233 0.1529 0.0
Zn725 Zn 0.83785 0.78365 0.27947 0.0
O726 O 0.82958 0.67843 0.32532 0.0
C727 C 0.72612 0.75272 0.27568 0.0
O728 O 0.86756 0.70074 0.26369 0.0
H729 H 0.8672 0.8964 0.24101 0.0
H730 H 0.74053 0.66785 0.36608 0.0
H731 H 0.84533 0.72874 0.18746 0.0
O732 O 0.73335 0.75186 0.31751 0.0
O733 O 0.76411 0.76076 0.25078 0.0
H734 H 0.82421 0.79308 0.44268 0.0
O735 O 0.80483 0.86681 0.29655 0.0
O736 O 0.78797 0.84709 0.36552 0.0
O737 O 0.91335 0.8059 0.3078 0.0
O738 O 0.88662 0.77402 0.37153 0.0
C739 C 0.78652 0.88171 0.33419 0.0
H740 H 0.75544 0.59796 0.42153 0.0
H741 H 0.83757 0.72616 0.50183 0.0
H742 H 0.80734 0.93226 0.18606 0.0
H743 H 0.7911 0.76246 0.12755 0.0
C744 C 0.93931 0.28274 0.7519 0.0
N745 N 0.80798 0.25038 0.68612 0.0
C746 C 0.8262 0.28903 0.6572 0.0
C747 C 0.83582 0.27268 0.61295 0.0
C748 C 0.82462 0.21681 0.5983 0.0
C749 C 0.79978 0.17992 0.62731 0.0
C750 C 0.79246 0.19747 0.67175 0.0
Zn751 Zn 0.82684 0.26592 0.75107 0.0
C752 C 0.86186 0.16434 0.79912 0.0
N753 N 0.86742 0.29562 0.88359 0.0
C754 C 0.90352 0.33377 0.89885 0.0
C755 C 0.83709 0.26669 0.91216 0.0
C756 C 0.83942 0.27882 0.95776 0.0
C757 C 0.87453 0.31954 0.97399 0.0
C758 C 0.90815 0.34607 0.94465 0.0
Zn759 Zn 0.84861 0.28353 0.81855 0.0
O760 O 0.90118 0.28618 0.72632 0.0
C761 C 0.82083 0.38879 0.77832 0.0
O762 O 0.9309 0.27993 0.79406 0.0
H763 H 0.80907 0.23577 0.89959 0.0
H764 H 0.83884 0.33074 0.66948 0.0
H765 H 0.92695 0.35623 0.8755 0.0
O766 O 0.80387 0.35392 0.74778 0.0
O767 O 0.84694 0.37023 0.81013 0.0
H768 H 0.77892 0.16736 0.69552 0.0
O769 O 0.76707 0.28559 0.83952 0.0
O770 O 0.7484 0.24424 0.77494 0.0
O771 O 0.85098 0.19949 0.82988 0.0
O772 O 0.85586 0.17827 0.75867 0.0
C773 C 0.73358 0.26206 0.81362 0.0
H774 H 0.85436 0.30232 0.59124 0.0
H775 H 0.79041 0.13637 0.61692 0.0
H776 H 0.81327 0.25782 0.9799 0.0
H777 H 0.93553 0.37822 0.95682 0.0
C778 C 0.82059 0.68714 0.79991 0.0
N779 N 0.90492 0.75084 0.69865 0.0
C780 C 0.92642 0.69915 0.70367 0.0
C781 C 0.92717 0.65897 0.66838 0.0
C782 C 0.90649 0.67216 0.62722 0.0
C783 C 0.88847 0.72707 0.62131 0.0
C784 C 0.88738 0.76595 0.65797 0.0
Zn785 Zn 0.87724 0.78536 0.75768 0.0
C786 C 0.76721 0.81307 0.7458 0.0
N787 N 0.8093 0.83854 0.87837 0.0
C788 C 0.82706 0.8126 0.9149 0.0
C789 C 0.78678 0.89011 0.88218 0.0
C790 C 0.78614 0.92004 0.9235 0.0
C791 C 0.80951 0.89652 0.96043 0.0
C792 C 0.82768 0.84114 0.95645 0.0
Zn793 Zn 0.836 0.80911 0.81818 0.0
O794 O 0.84179 0.70183 0.76415 0.0
C795 C 0.94758 0.79117 0.82672 0.0
O796 O 0.81774 0.72328 0.83241 0.0
H797 H 0.77295 0.91005 0.85265 0.0
H798 H 0.93836 0.68617 0.73621 0.0
H799 H 0.845 0.77185 0.91115 0.0
O800 O 0.94427 0.76533 0.78909 0.0
O801 O 0.90786 0.80711 0.84673 0.0
H802 H 0.86913 0.80627 0.65464 0.0
O803 O 0.85419 0.89202 0.80465 0.0
O804 O 0.91429 0.87187 0.7566 0.0
O805 O 0.76605 0.81479 0.78813 0.0
O806 O 0.80922 0.80756 0.72543 0.0
C807 C 0.89509 0.90648 0.78563 0.0
H808 H 0.94234 0.61734 0.67361 0.0
H809 H 0.87328 0.73876 0.58929 0.0
H810 H 0.77053 0.9622 0.92594 0.0
H811 H 0.84426 0.82101 0.9849 0.0
C812 C 0.55033 0.53589 0.45504 0.0
N813 N 0.49118 0.55763 0.58182 0.0
C814 C 0.45934 0.59541 0.56404 0.0
C815 C 0.40903 0.59626 0.57758 0.0
C816 C 0.39273 0.55692 0.60867 0.0
C817 C 0.42792 0.52475 0.63103 0.0
C818 C 0.4774 0.52504 0.61639 0.0
Zn819 Zn 0.55484 0.53702 0.55213 0.0
C820 C 0.5597 0.42351 0.52653 0.0
N821 N 0.69505 0.48853 0.50551 0.0
C822 C 0.7105 0.50394 0.46441 0.0
C823 C 0.71782 0.44622 0.52734 0.0
C824 C 0.76013 0.42058 0.50959 0.0
C825 C 0.77807 0.43756 0.46852 0.0
C826 C 0.75256 0.47831 0.44481 0.0
Zn827 Zn 0.63148 0.5169 0.53309 0.0
O828 O 0.5201 0.5445 0.48722 0.0
C829 C 0.62561 0.63052 0.56103 0.0
O830 O 0.59713 0.527 0.46442 0.0
H831 H 0.70305 0.43159 0.55846 0.0
H832 H 0.47179 0.62111 0.53689 0.0
H833 H 0.69054 0.53623 0.44712 0.0
O834 O 0.57907 0.62083 0.55173 0.0
O835 O 0.6586 0.60074 0.54073 0.0
H836 H 0.50297 0.49448 0.62954 0.0
O837 O 0.66411 0.50823 0.59829 0.0
O838 O 0.58746 0.52929 0.61887 0.0
O839 O 0.60681 0.4335 0.53031 0.0
O840 O 0.52979 0.45381 0.54939 0.0
C841 C 0.63288 0.51806 0.6293 0.0
H842 H 0.38242 0.62229 0.5602 0.0
H843 H 0.4162 0.49466 0.65563 0.0
H844 H 0.77962 0.38902 0.52836 0.0
H845 H 0.76667 0.49226 0.41306 0.0
C846 C 0.04385 0.54397 0.11961 0.0
N847 N 0.09906 0.42254 0.03205 0.0
C848 C 0.14043 0.41534 0.0583 0.0
C849 C 0.15236 0.3612 0.07004 0.0
C850 C 0.11937 0.31643 0.05566 0.0
C851 C 0.08441 0.32394 0.02109 0.0
C852 C 0.0739 0.37867 0.01029 0.0
Zn853 Zn 0.06883 0.49605 0.02981 0.0
C854 C 0.95573 0.48853 0.03816 0.0
N855 N 1.00208 0.6471 0.01632 0.0
C856 C 0.0196 0.69613 0.03659 0.0
C857 C 0.96636 0.64583 0.98305 0.0
C858 C 0.95057 0.6957 0.96556 0.0
C859 C 0.97369 0.74592 0.98164 0.0
C860 C 1.00587 0.74719 0.01919 0.0
Zn861 Zn 0.03608 0.57547 0.02489 0.0
O862 O 0.07338 0.50815 0.10116 0.0
C863 C 0.14918 0.5857 0.02079 0.0
O864 O 0.02283 0.5804 0.09574 0.0
H865 H 0.9543 0.6063 0.96641 0.0
H866 H 0.16035 0.45159 0.07396 0.0
H867 H 0.04804 0.69533 0.06287 0.0
O868 O 0.14219 0.53239 0.01909 0.0
O869 O 0.11136 0.61719 0.02958 0.0
H870 H 0.04189 0.38621 0.98856 0.0
O871 O 0.05128 0.57093 0.95356 0.0
O872 O 0.06637 0.48146 0.95959 0.0
O873 O 0.9619 0.53633 0.02117 0.0
O874 O 0.99452 0.45838 0.04345 0.0
C875 C 0.06704 0.52479 0.93608 0.0
H876 H 0.18117 0.35621 0.09561 0.0
H877 H 0.05987 0.2895 0.00809 0.0
H878 H 0.92653 0.69432 0.93589 0.0
H879 H 0.02446 0.78632 0.03144 0.0
loop_
_geom_bond_atom_site_label_1
_geom_bond_atom_site_label_2
_geom_bond_distance
_geom_bond_site_symmetry_2
_ccdc_geom_bond_type
Mg0 O1 2.028 . S
Mg0 O7 1.986 . S
Mg0 O9 2.114 . S
Mg0 O10 2.251 . S
Mg0 O13 2.010 . S
O1 Mg0 2.028 . S
O1 C4 1.250 . S
O2 Mg3 2.028 . S
O2 C4 1.248 . S
Mg3 O2 2.028 . S
Mg3 O8 2.032 . S
Mg3 O10 2.079 . S
C4 O1 1.250 . S
C4 O2 1.248 . S
C5 O6 1.264 . S
C5 O13 1.249 . S
O6 C5 1.264 . S
O7 Mg0 1.986 . S
O7 C11 1.246 . S
O8 Mg3 2.032 . S
O8 C11 1.259 . S
O9 Mg0 2.114 . S
O9 C12 1.252 . S
O10 Mg0 2.251 . S
O10 Mg3 2.079 . S
O10 C12 1.273 . S
C11 O7 1.246 . S
C11 O8 1.259 . S
C12 O9 1.252 . S
C12 O10 1.273 . S
O13 Mg0 2.010 . S
O13 C5 1.249 . S
Mg14 O15 2.028 . S
Mg14 O21 1.986 . S
Mg14 O23 2.114 . S
Mg14 O24 2.251 1_455 S
Mg14 O27 2.010 . S
O15 Mg14 2.028 . S
O15 C18 1.250 . S
O16 Mg17 2.028 1_455 S
O16 C18 1.248 . S
Mg17 O16 2.028 1_655 S
Mg17 O22 2.032 1_655 S
Mg17 O24 2.079 . S
C18 O15 1.250 . S
C18 O16 1.248 . S
C19 O20 1.264 . S
C19 O27 1.249 . S
O20 C19 1.264 . S
O21 Mg14 1.986 . S
O21 C25 1.246 . S
O22 Mg17 2.032 1_455 S
O22 C25 1.259 . S
O23 Mg14 2.114 . S
O23 C26 1.252 1_455 S
O24 Mg14 2.251 1_655 S
O24 Mg17 2.079 . S
O24 C26 1.273 . S
C25 O21 1.246 . S
C25 O22 1.259 . S
C26 O23 1.252 1_655 S
C26 O24 1.273 . S
O27 Mg14 2.010 . S
O27 C19 1.249 . S
Mg28 O29 2.028 . S
Mg28 O35 1.986 . S
Mg28 O37 2.114 . S
Mg28 O38 2.251 . S
Mg28 O41 2.010 . S
O29 Mg28 2.028 . S
O29 C32 1.250 . S
O30 Mg31 2.028 . S
O30 C32 1.248 . S
Mg31 O30 2.028 . S
Mg31 O36 2.032 . S
Mg31 O38 2.079 . S
C32 O29 1.250 . S
C32 O30 1.248 . S
C33 O34 1.264 . S
C33 O41 1.249 . S
O34 C33 1.264 . S
O35 Mg28 1.986 . S
O35 C39 1.246 . S
O36 Mg31 2.032 . S
O36 C39 1.259 . S
O37 Mg28 2.114 . S
O37 C40 1.252 . S
O38 Mg28 2.251 . S
O38 Mg31 2.079 . S
O38 C40 1.273 . S
C39 O35 1.246 . S
C39 O36 1.259 . S
C40 O37 1.252 . S
C40 O38 1.273 . S
O41 Mg28 2.010 . S
O41 C33 1.249 . S
Mg42 O43 2.028 . S
Mg42 O49 1.986 . S
Mg42 O51 2.114 . S
Mg42 O52 2.251 . S
Mg42 O55 2.010 . S
O43 Mg42 2.028 . S
O43 C46 1.250 . S
O44 Mg45 2.028 . S
O44 C46 1.248 . S
Mg45 O44 2.028 . S
Mg45 O50 2.032 . S
Mg45 O52 2.079 . S
C46 O43 1.250 . S
C46 O44 1.248 . S
C47 O48 1.264 . S
C47 O55 1.249 . S
O48 C47 1.264 . S
O49 Mg42 1.986 . S
O49 C53 1.246 . S
O50 Mg45 2.032 . S
O50 C53 1.259 . S
O51 Mg42 2.114 . S
O51 C54 1.252 . S
O52 Mg42 2.251 . S
O52 Mg45 2.079 . S
O52 C54 1.273 . S
C53 O49 1.246 . S
C53 O50 1.259 . S
C54 O51 1.252 . S
C54 O52 1.273 . S
O55 Mg42 2.010 . S
O55 C47 1.249 . S
Mg56 O57 2.028 . S
Mg56 O63 1.986 1_545 S
Mg56 O65 2.114 . S
Mg56 O66 2.251 . S
Mg56 O69 2.010 . S
O57 Mg56 2.028 . S
O57 C60 1.250 . S
O58 Mg59 2.028 . S
O58 C60 1.248 . S
Mg59 O58 2.028 . S
Mg59 O64 2.032 1_545 S
Mg59 O66 2.079 . S
C60 O57 1.250 . S
C60 O58 1.248 . S
C61 O62 1.264 . S
C61 O69 1.249 . S
O62 C61 1.264 . S
O63 Mg56 1.986 1_565 S
O63 C67 1.246 . S
O64 Mg59 2.032 1_565 S
O64 C67 1.259 . S
O65 Mg56 2.114 . S
O65 C68 1.252 . S
O66 Mg56 2.251 . S
O66 Mg59 2.079 . S
O66 C68 1.273 . S
C67 O63 1.246 . S
C67 O64 1.259 . S
C68 O65 1.252 . S
C68 O66 1.273 . S
O69 Mg56 2.010 . S
O69 C61 1.249 . S
Mg70 O71 2.028 . S
Mg70 O77 1.986 . S
Mg70 O79 2.114 1_565 S
Mg70 O80 2.251 . S
Mg70 O83 2.010 1_565 S
O71 Mg70 2.028 . S
O71 C74 1.250 . S
O72 Mg73 2.028 . S
O72 C74 1.248 . S
Mg73 O72 2.028 . S
Mg73 O78 2.032 . S
Mg73 O80 2.079 . S
C74 O71 1.250 . S
C74 O72 1.248 . S
C75 O76 1.264 . S
C75 O83 1.249 . S
O76 C75 1.264 . S
O77 Mg70 1.986 . S
O77 C81 1.246 . S
O78 Mg73 2.032 . S
O78 C81 1.259 . S
O79 Mg70 2.114 1_545 S
O79 C82 1.252 . S
O80 Mg70 2.251 . S
O80 Mg73 2.079 . S
O80 C82 1.273 1_565 S
C81 O77 1.246 . S
C81 O78 1.259 . S
C82 O79 1.252 . S
C82 O80 1.273 1_545 S
O83 Mg70 2.010 1_545 S
O83 C75 1.249 . S
Mg84 O85 2.028 1_545 S
Mg84 O91 1.986 . S
Mg84 O93 2.114 . S
Mg84 O94 2.251 . S
Mg84 O97 2.010 . S
O85 Mg84 2.028 1_565 S
O85 C88 1.250 . S
O86 Mg87 2.028 1_565 S
O86 C88 1.248 . S
Mg87 O86 2.028 1_545 S
Mg87 O92 2.032 . S
Mg87 O94 2.079 . S
C88 O85 1.250 . S
C88 O86 1.248 . S
C89 O90 1.264 . S
C89 O97 1.249 . S
O90 C89 1.264 . S
O91 Mg84 1.986 . S
O91 C95 1.246 . S
O92 Mg87 2.032 . S
O92 C95 1.259 . S
O93 Mg84 2.114 . S
O93 C96 1.252 . S
O94 Mg84 2.251 . S
O94 Mg87 2.079 . S
O94 C96 1.273 . S
C95 O91 1.246 . S
C95 O92 1.259 . S
C96 O93 1.252 . S
C96 O94 1.273 . S
O97 Mg84 2.010 . S
O97 C89 1.249 . S
Mg98 O99 2.028 . S
Mg98 O105 1.986 1_554 S
Mg98 O107 2.114 1_545 S
Mg98 O108 2.251 . S
Mg98 O111 2.010 . S
O99 Mg98 2.028 . S
O99 C102 1.250 . S
O100 Mg101 2.028 . S
O100 C102 1.248 . S
Mg101 O100 2.028 . S
Mg101 O106 2.032 . S
Mg101 O108 2.079 . S
C102 O99 1.250 . S
C102 O100 1.248 . S
C103 O104 1.264 . S
C103 O111 1.249 1_565 S
O104 C103 1.264 . S
O105 Mg98 1.986 1_556 S
O105 C109 1.246 . S
O106 Mg101 2.032 . S
O106 C109 1.259 1_554 S
O107 Mg98 2.114 1_565 S
O107 C110 1.252 1_565 S
O108 Mg98 2.251 . S
O108 Mg101 2.079 . S
O108 C110 1.273 . S
C109 O105 1.246 . S
C109 O106 1.259 1_556 S
C110 O107 1.252 1_545 S
C110 O108 1.273 . S
O111 Mg98 2.010 . S
O111 C103 1.249 1_545 S
Mg112 O113 2.028 . S
Mg112 O119 1.986 . S
Mg112 O121 2.114 . S
Mg112 O122 2.251 . S
Mg112 O125 2.010 . S
O113 Mg112 2.028 . S
O113 C116 1.250 . S
O114 Mg115 2.028 . S
O114 C116 1.248 . S
Mg115 O114 2.028 . S
Mg115 O120 2.032 . S
Mg115 O122 2.079 . S
C116 O113 1.250 . S
C116 O114 1.248 . S
C117 O118 1.264 . S
C117 O125 1.249 . S
O118 C117 1.264 . S
O119 Mg112 1.986 . S
O119 C123 1.246 . S
O120 Mg115 2.032 . S
O120 C123 1.259 . S
O121 Mg112 2.114 . S
O121 C124 1.252 . S
O122 Mg112 2.251 . S
O122 Mg115 2.079 . S
O122 C124 1.273 . S
C123 O119 1.246 . S
C123 O120 1.259 . S
C124 O121 1.252 . S
C124 O122 1.273 . S
O125 Mg112 2.010 . S
O125 C117 1.249 . S
Mg126 O127 2.028 . S
Mg126 O133 1.986 . S
Mg126 O135 2.114 . S
Mg126 O136 2.251 . S
Mg126 O139 2.010 . S
O127 Mg126 2.028 . S
O127 C130 1.250 . S
O128 Mg129 2.028 . S
O128 C130 1.248 . S
Mg129 O128 2.028 . S
Mg129 O134 2.032 . S
Mg129 O136 2.079 . S
C130 O127 1.250 . S
C130 O128 1.248 . S
C131 O132 1.264 1_655 S
C131 O139 1.249 . S
O132 C131 1.264 1_455 S
O133 Mg126 1.986 . S
O133 C137 1.246 . S
O134 Mg129 2.032 . S
O134 C137 1.259 . S
O135 Mg126 2.114 . S
O135 C138 1.252 . S
O136 Mg126 2.251 . S
O136 Mg129 2.079 . S
O136 C138 1.273 . S
C137 O133 1.246 . S
C137 O134 1.259 . S
C138 O135 1.252 . S
C138 O136 1.273 . S
O139 Mg126 2.010 . S
O139 C131 1.249 . S
Mg140 O141 2.028 . S
Mg140 O147 1.986 . S
Mg140 O149 2.114 . S
Mg140 O150 2.251 . S
Mg140 O153 2.010 . S
O141 Mg140 2.028 . S
O141 C144 1.250 . S
O142 Mg143 2.028 . S
O142 C144 1.248 . S
Mg143 O142 2.028 . S
Mg143 O148 2.032 . S
Mg143 O150 2.079 . S
C144 O141 1.250 . S
C144 O142 1.248 . S
C145 O146 1.264 . S
C145 O153 1.249 . S
O146 C145 1.264 . S
O147 Mg140 1.986 . S
O147 C151 1.246 . S
O148 Mg143 2.032 . S
O148 C151 1.259 . S
O149 Mg140 2.114 . S
O149 C152 1.252 . S
O150 Mg140 2.251 . S
O150 Mg143 2.079 . S
O150 C152 1.273 . S
C151 O147 1.246 . S
C151 O148 1.259 . S
C152 O149 1.252 . S
C152 O150 1.273 . S
O153 Mg140 2.010 . S
O153 C145 1.249 . S
Mg154 O155 2.028 . S
Mg154 O161 1.986 . S
Mg154 O163 2.114 . S
Mg154 O164 2.251 . S
Mg154 O167 2.010 . S
O155 Mg154 2.028 . S
O155 C158 1.250 . S
O156 Mg157 2.028 . S
O156 C158 1.248 . S
Mg157 O156 2.028 . S
Mg157 O162 2.032 . S
Mg157 O164 2.079 . S
C158 O155 1.250 . S
C158 O156 1.248 . S
C159 O160 1.264 . S
C159 O167 1.249 . S
O160 C159 1.264 . S
O161 Mg154 1.986 . S
O161 C165 1.246 . S
O162 Mg157 2.032 . S
O162 C165 1.259 . S
O163 Mg154 2.114 . S
O163 C166 1.252 . S
O164 Mg154 2.251 . S
O164 Mg157 2.079 . S
O164 C166 1.273 . S
C165 O161 1.246 . S
C165 O162 1.259 . S
C166 O163 1.252 . S
C166 O164 1.273 . S
O167 Mg154 2.010 . S
O167 C159 1.249 . S
Mg168 O169 2.028 1_655 S
Mg168 O175 1.986 1_655 S
Mg168 O177 2.114 . S
Mg168 O178 2.251 . S
Mg168 O181 2.010 1_655 S
O169 Mg168 2.028 1_455 S
O169 C172 1.250 1_455 S
O170 Mg171 2.028 . S
O170 C172 1.248 . S
Mg171 O170 2.028 . S
Mg171 O176 2.032 . S
Mg171 O178 2.079 . S
C172 O169 1.250 1_655 S
C172 O170 1.248 . S
C173 O174 1.264 . S
C173 O181 1.249 . S
O174 C173 1.264 . S
O175 Mg168 1.986 1_455 S
O175 C179 1.246 1_455 S
O176 Mg171 2.032 . S
O176 C179 1.259 . S
O177 Mg168 2.114 . S
O177 C180 1.252 . S
O178 Mg168 2.251 . S
O178 Mg171 2.079 . S
O178 C180 1.273 . S
C179 O175 1.246 1_655 S
C179 O176 1.259 . S
C180 O177 1.252 . S
C180 O178 1.273 . S
O181 Mg168 2.010 1_455 S
O181 C173 1.249 . S
Mg182 O183 2.028 . S
Mg182 O189 1.986 . S
Mg182 O191 2.114 . S
Mg182 O192 2.251 1_455 S
Mg182 O195 2.010 . S
O183 Mg182 2.028 . S
O183 C186 1.250 . S
O184 Mg185 2.028 1_455 S
O184 C186 1.248 . S
Mg185 O184 2.028 1_655 S
Mg185 O190 2.032 1_655 S
Mg185 O192 2.079 . S
C186 O183 1.250 . S
C186 O184 1.248 . S
C187 O188 1.264 . S
C187 O195 1.249 . S
O188 C187 1.264 . S
O189 Mg182 1.986 . S
O189 C193 1.246 . S
O190 Mg185 2.032 1_455 S
O190 C193 1.259 . S
O191 Mg182 2.114 . S
O191 C194 1.252 1_455 S
O192 Mg182 2.251 1_655 S
O192 Mg185 2.079 . S
O192 C194 1.273 . S
C193 O189 1.246 . S
C193 O190 1.259 . S
C194 O191 1.252 1_655 S
C194 O192 1.273 . S
O195 Mg182 2.010 . S
O195 C187 1.249 . S
Mg196 O197 2.028 . S
Mg196 O203 1.986 . S
Mg196 O205 2.114 . S
Mg196 O206 2.251 . S
Mg196 O209 2.010 . S
O197 Mg196 2.028 . S
O197 C200 1.250 . S
O198 Mg199 2.028 . S
O198 C200 1.248 . S
Mg199 O198 2.028 . S
Mg199 O204 2.032 . S
Mg199 O206 2.079 . S
C200 O197 1.250 . S
C200 O198 1.248 . S
C201 O202 1.264 . S
C201 O209 1.249 . S
O202 C201 1.264 . S
O203 Mg196 1.986 . S
O203 C207 1.246 . S
O204 Mg199 2.032 . S
O204 C207 1.259 . S
O205 Mg196 2.114 . S
O205 C208 1.252 . S
O206 Mg196 2.251 . S
O206 Mg199 2.079 . S
O206 C208 1.273 . S
C207 O203 1.246 . S
C207 O204 1.259 . S
C208 O205 1.252 . S
C208 O206 1.273 . S
O209 Mg196 2.010 . S
O209 C201 1.249 . S
Mg210 O211 2.028 . S
Mg210 O217 1.986 . S
Mg210 O219 2.114 . S
Mg210 O220 2.251 . S
Mg210 O223 2.010 . S
O211 Mg210 2.028 . S
O211 C214 1.250 . S
O212 Mg213 2.028 . S
O212 C214 1.248 . S
Mg213 O212 2.028 . S
Mg213 O218 2.032 . S
Mg213 O220 2.079 . S
C214 O211 1.250 . S
C214 O212 1.248 . S
C215 O216 1.264 . S
C215 O223 1.249 . S
O216 C215 1.264 . S
O217 Mg210 1.986 . S
O217 C221 1.246 . S
O218 Mg213 2.032 . S
O218 C221 1.259 . S
O219 Mg210 2.114 . S
O219 C222 1.252 . S
O220 Mg210 2.251 . S
O220 Mg213 2.079 . S
O220 C222 1.273 . S
C221 O217 1.246 . S
C221 O218 1.259 . S
C222 O219 1.252 . S
C222 O220 1.273 . S
O223 Mg210 2.010 . S
O223 C215 1.249 . S
Mg224 O225 2.028 1_545 S
Mg224 O231 1.986 . S
Mg224 O233 2.114 1_645 S
Mg224 O234 2.251 . S
Mg224 O237 2.010 . S
O225 Mg224 2.028 1_565 S
O225 C228 1.250 . S
O226 Mg227 2.028 1_565 S
O226 C228 1.248 . S
Mg227 O226 2.028 1_545 S
Mg227 O232 2.032 . S
Mg227 O234 2.079 . S
C228 O225 1.250 . S
C228 O226 1.248 . S
C229 O230 1.264 . S
C229 O237 1.249 1_455 S
O230 C229 1.264 . S
O231 Mg224 1.986 . S
O231 C235 1.246 . S
O232 Mg227 2.032 . S
O232 C235 1.259 . S
O233 Mg224 2.114 1_465 S
O233 C236 1.252 1_455 S
O234 Mg224 2.251 . S
O234 Mg227 2.079 . S
O234 C236 1.273 1_545 S
C235 O231 1.246 . S
C235 O232 1.259 . S
C236 O233 1.252 1_655 S
C236 O234 1.273 1_565 S
O237 Mg224 2.010 . S
O237 C229 1.249 1_655 S
Mg238 O239 2.028 . S
Mg238 O245 1.986 . S
Mg238 O247 2.114 . S
Mg238 O248 2.251 . S
Mg238 O251 2.010 . S
O239 Mg238 2.028 . S
O239 C242 1.250 . S
O240 Mg241 2.028 . S
O240 C242 1.248 . S
Mg241 O240 2.028 . S
Mg241 O246 2.032 . S
Mg241 O248 2.079 . S
C242 O239 1.250 . S
C242 O240 1.248 . S
C243 O244 1.264 1_545 S
C243 O251 1.249 . S
O244 C243 1.264 1_565 S
O245 Mg238 1.986 . S
O245 C249 1.246 . S
O246 Mg241 2.032 . S
O246 C249 1.259 . S
O247 Mg238 2.114 . S
O247 C250 1.252 . S
O248 Mg238 2.251 . S
O248 Mg241 2.079 . S
O248 C250 1.273 . S
C249 O245 1.246 . S
C249 O246 1.259 . S
C250 O247 1.252 . S
C250 O248 1.273 . S
O251 Mg238 2.010 . S
O251 C243 1.249 . S
Mg252 O253 2.028 . S
Mg252 O259 1.986 1_545 S
Mg252 O261 2.114 . S
Mg252 O262 2.251 . S
Mg252 O265 2.010 . S
O253 Mg252 2.028 . S
O253 C256 1.250 . S
O254 Mg255 2.028 . S
O254 C256 1.248 . S
Mg255 O254 2.028 . S
Mg255 O260 2.032 1_545 S
Mg255 O262 2.079 . S
C256 O253 1.250 . S
C256 O254 1.248 . S
C257 O258 1.264 1_545 S
C257 O265 1.249 . S
O258 C257 1.264 1_565 S
O259 Mg252 1.986 1_565 S
O259 C263 1.246 . S
O260 Mg255 2.032 1_565 S
O260 C263 1.259 . S
O261 Mg252 2.114 . S
O261 C264 1.252 . S
O262 Mg252 2.251 . S
O262 Mg255 2.079 . S
O262 C264 1.273 . S
C263 O259 1.246 . S
C263 O260 1.259 . S
C264 O261 1.252 . S
C264 O262 1.273 . S
O265 Mg252 2.010 . S
O265 C257 1.249 . S
Mg266 O267 2.028 1_545 S
Mg266 O273 1.986 1_545 S
Mg266 O275 2.114 . S
Mg266 O276 2.251 1_545 S
Mg266 O279 2.010 . S
O267 Mg266 2.028 1_565 S
O267 C270 1.250 1_554 S
O268 Mg269 2.028 1_556 S
O268 C270 1.248 . S
Mg269 O268 2.028 1_554 S
Mg269 O274 2.032 . S
Mg269 O276 2.079 . S
C270 O267 1.250 1_556 S
C270 O268 1.248 . S
C271 O272 1.264 . S
C271 O279 1.249 . S
O272 C271 1.264 . S
O273 Mg266 1.986 1_565 S
O273 C277 1.246 . S
O274 Mg269 2.032 . S
O274 C277 1.259 . S
O275 Mg266 2.114 . S
O275 C278 1.252 . S
O276 Mg266 2.251 1_565 S
O276 Mg269 2.079 . S
O276 C278 1.273 1_565 S
C277 O273 1.246 . S
C277 O274 1.259 . S
C278 O275 1.252 . S
C278 O276 1.273 1_545 S
O279 Mg266 2.010 . S
O279 C271 1.249 . S
Mg280 O281 2.028 1_556 S
Mg280 O287 1.986 . S
Mg280 O289 2.114 1_556 S
Mg280 O290 2.251 . S
Mg280 O293 2.010 . S
O281 Mg280 2.028 1_554 S
O281 C284 1.250 . S
O282 Mg283 2.028 . S
O282 C284 1.248 . S
Mg283 O282 2.028 . S
Mg283 O288 2.032 1_554 S
Mg283 O290 2.079 1_554 S
C284 O281 1.250 . S
C284 O282 1.248 . S
C285 O286 1.264 . S
C285 O293 1.249 . S
O286 C285 1.264 . S
O287 Mg280 1.986 . S
O287 C291 1.246 . S
O288 Mg283 2.032 1_556 S
O288 C291 1.259 . S
O289 Mg280 2.114 1_554 S
O289 C292 1.252 . S
O290 Mg280 2.251 . S
O290 Mg283 2.079 1_556 S
O290 C292 1.273 1_556 S
C291 O287 1.246 . S
C291 O288 1.259 . S
C292 O289 1.252 . S
C292 O290 1.273 1_554 S
O293 Mg280 2.010 . S
O293 C285 1.249 . S
Mg294 O295 2.028 . S
Mg294 O301 1.986 . S
Mg294 O303 2.114 . S
Mg294 O304 2.251 . S
Mg294 O307 2.010 . S
O295 Mg294 2.028 . S
O295 C298 1.250 . S
O296 Mg297 2.028 . S
O296 C298 1.248 . S
Mg297 O296 2.028 . S
Mg297 O302 2.032 . S
Mg297 O304 2.079 . S
C298 O295 1.250 . S
C298 O296 1.248 . S
C299 O300 1.264 . S
C299 O307 1.249 . S
O300 C299 1.264 . S
O301 Mg294 1.986 . S
O301 C305 1.246 . S
O302 Mg297 2.032 . S
O302 C305 1.259 . S
O303 Mg294 2.114 . S
O303 C306 1.252 . S
O304 Mg294 2.251 . S
O304 Mg297 2.079 . S
O304 C306 1.273 . S
C305 O301 1.246 . S
C305 O302 1.259 . S
C306 O303 1.252 . S
C306 O304 1.273 . S
O307 Mg294 2.010 . S
O307 C299 1.249 . S
Mg308 O309 2.028 . S
Mg308 O315 1.986 . S
Mg308 O317 2.114 . S
Mg308 O318 2.251 . S
Mg308 O321 2.010 . S
O309 Mg308 2.028 . S
O309 C312 1.250 . S
O310 Mg311 2.028 . S
O310 C312 1.248 . S
Mg311 O310 2.028 . S
Mg311 O316 2.032 . S
Mg311 O318 2.079 . S
C312 O309 1.250 . S
C312 O310 1.248 . S
C313 O314 1.264 . S
C313 O321 1.249 . S
O314 C313 1.264 . S
O315 Mg308 1.986 . S
O315 C319 1.246 . S
O316 Mg311 2.032 . S
O316 C319 1.259 . S
O317 Mg308 2.114 . S
O317 C320 1.252 . S
O318 Mg308 2.251 . S
O318 Mg311 2.079 . S
O318 C320 1.273 . S
C319 O315 1.246 . S
C319 O316 1.259 . S
C320 O317 1.252 . S
C320 O318 1.273 . S
O321 Mg308 2.010 . S
O321 C313 1.249 . S
Mg322 O323 2.028 . S
Mg322 O329 1.986 . S
Mg322 O331 2.114 . S
Mg322 O332 2.251 . S
Mg322 O335 2.010 . S
O323 Mg322 2.028 . S
O323 C326 1.250 . S
O324 Mg325 2.028 . S
O324 C326 1.248 . S
Mg325 O324 2.028 . S
Mg325 O330 2.032 . S
Mg325 O332 2.079 . S
C326 O323 1.250 . S
C326 O324 1.248 . S
C327 O328 1.264 . S
C327 O335 1.249 . S
O328 C327 1.264 . S
O329 Mg322 1.986 . S
O329 C333 1.246 . S
O330 Mg325 2.032 . S
O330 C333 1.259 . S
O331 Mg322 2.114 . S
O331 C334 1.252 . S
O332 Mg322 2.251 . S
O332 Mg325 2.079 . S
O332 C334 1.273 . S
C333 O329 1.246 . S
C333 O330 1.259 . S
C334 O331 1.252 . S
C334 O332 1.273 . S
O335 Mg322 2.010 . S
O335 C327 1.249 . S
C336 O352 1.242 1_456 S
C336 O354 1.254 . S
N337 C338 1.333 . S
N337 C342 1.307 1_545 S
N337 Zn343 2.020 1_655 S
C338 N337 1.333 . S
C338 C339 1.379 . S
C338 H356 0.952 . S
C339 C338 1.379 . S
C339 C340 1.391 1_545 S
C339 H366 0.949 . S
C340 C339 1.391 1_565 S
C340 C341 1.356 . S
C341 C340 1.356 . S
C341 C342 1.370 . S
C341 H367 0.950 . S
C342 N337 1.307 1_565 S
C342 C341 1.370 . S
C342 H360 0.948 . S
Zn343 N337 2.020 1_455 S
Zn343 O352 2.050 1_455 S
Zn343 O358 2.034 . S
Zn343 O362 2.025 1_545 S
Zn343 O364 2.024 1_545 S
C344 O363 1.246 . S
C344 O364 1.249 . S
N345 C346 1.307 1_554 S
N345 C347 1.333 . S
N345 Zn351 2.020 . S
C346 N345 1.307 1_556 S
C346 C350 1.370 . S
C346 H357 0.948 . S
C347 N345 1.333 . S
C347 C348 1.379 . S
C347 H355 0.952 1_545 S
C348 C347 1.379 . S
C348 C349 1.390 1_554 S
C348 H368 0.949 1_545 S
C349 C348 1.390 1_556 S
C349 C350 1.357 . S
C350 C346 1.370 . S
C350 C349 1.357 . S
C350 H369 0.950 . S
Zn351 N345 2.020 . S
Zn351 O354 2.025 1_554 S
Zn351 O359 2.024 . S
Zn351 O361 2.045 . S
Zn351 O363 2.034 1_545 S
O352 C336 1.242 1_654 S
O352 Zn343 2.050 1_655 S
C353 O358 1.246 . S
C353 O359 1.249 . S
O354 C336 1.254 . S
O354 Zn351 2.025 1_556 S
H355 C347 0.952 1_565 S
H356 C338 0.952 . S
H357 C346 0.948 . S
O358 Zn343 2.034 . S
O358 C353 1.246 . S
O359 Zn351 2.024 . S
O359 C353 1.249 . S
H360 C342 0.948 . S
O361 Zn351 2.045 . S
O361 C365 1.247 1_545 S
O362 Zn343 2.025 1_565 S
O362 C365 1.254 . S
O363 C344 1.246 . S
O363 Zn351 2.034 1_565 S
O364 Zn343 2.024 1_565 S
O364 C344 1.249 . S
C365 O361 1.247 1_565 S
C365 O362 1.254 . S
H366 C339 0.949 . S
H367 C341 0.950 . S
H368 C348 0.949 1_565 S
H369 C350 0.950 . S
C370 O386 1.251 . S
C370 O388 1.254 . S
N371 C372 1.333 . S
N371 C376 1.307 . S
N371 Zn377 2.020 . S
C372 N371 1.333 . S
C372 C373 1.379 . S
C372 H390 0.952 . S
C373 C372 1.379 . S
C373 C374 1.390 . S
C373 H400 0.949 . S
C374 C373 1.390 . S
C374 C375 1.357 . S
C375 C374 1.357 . S
C375 C376 1.370 . S
C375 H401 0.950 . S
C376 N371 1.307 . S
C376 C375 1.370 . S
C376 H394 0.948 . S
Zn377 N371 2.020 . S
Zn377 O386 2.039 . S
Zn377 O392 2.034 . S
Zn377 O396 2.025 . S
Zn377 O398 2.024 . S
C378 O397 1.246 . S
C378 O398 1.249 . S
N379 C380 1.307 . S
N379 C381 1.333 . S
N379 Zn385 2.020 . S
C380 N379 1.307 . S
C380 C384 1.370 . S
C380 H391 0.948 . S
C381 N379 1.333 . S
C381 C382 1.379 . S
C381 H389 0.952 . S
C382 C381 1.379 . S
C382 C383 1.390 . S
C382 H402 0.949 . S
C383 C382 1.390 . S
C383 C384 1.357 . S
C384 C380 1.370 . S
C384 C383 1.357 . S
C384 H403 0.950 . S
Zn385 N379 2.020 . S
Zn385 O388 2.025 . S
Zn385 O393 2.024 . S
Zn385 O395 2.039 . S
Zn385 O397 2.034 . S
O386 C370 1.251 . S
O386 Zn377 2.039 . S
C387 O392 1.246 . S
C387 O393 1.249 . S
O388 C370 1.254 . S
O388 Zn385 2.025 . S
H389 C381 0.952 . S
H390 C372 0.952 . S
H391 C380 0.948 . S
O392 Zn377 2.034 . S
O392 C387 1.246 . S
O393 Zn385 2.024 . S
O393 C387 1.249 . S
H394 C376 0.948 . S
O395 Zn385 2.039 . S
O395 C399 1.251 . S
O396 Zn377 2.025 . S
O396 C399 1.254 . S
O397 C378 1.246 . S
O397 Zn385 2.034 . S
O398 Zn377 2.024 . S
O398 C378 1.249 . S
C399 O395 1.251 . S
C399 O396 1.254 . S
H400 C373 0.949 . S
H401 C375 0.950 . S
H402 C382 0.949 . S
H403 C384 0.950 . S
C404 O420 1.251 . S
C404 O422 1.254 . S
N405 C406 1.333 . S
N405 C410 1.307 . S
N405 Zn411 2.020 . S
C406 N405 1.333 . S
C406 C407 1.379 . S
C406 H424 0.952 . S
C407 C406 1.379 . S
C407 C408 1.390 . S
C407 H434 0.949 . S
C408 C407 1.390 . S
C408 C409 1.357 . S
C409 C408 1.357 . S
C409 C410 1.370 . S
C409 H435 0.950 . S
C410 N405 1.307 . S
C410 C409 1.370 . S
C410 H428 0.948 . S
Zn411 N405 2.020 . S
Zn411 O420 2.039 1_565 S
Zn411 O426 2.034 1_565 S
Zn411 O430 2.025 . S
Zn411 O432 2.024 . S
C412 O431 1.246 1_565 S
C412 O432 1.249 . S
N413 C414 1.307 . S
N413 C415 1.333 . S
N413 Zn419 2.020 . S
C414 N413 1.307 . S
C414 C418 1.370 . S
C414 H425 0.948 . S
C415 N413 1.333 . S
C415 C416 1.379 . S
C415 H423 0.952 . S
C416 C415 1.379 . S
C416 C417 1.390 . S
C416 H436 0.949 . S
C417 C416 1.390 . S
C417 C418 1.357 . S
C418 C414 1.370 . S
C418 C417 1.357 . S
C418 H437 0.950 . S
Zn419 N413 2.020 . S
Zn419 O422 2.025 . S
Zn419 O427 2.024 . S
Zn419 O429 2.039 . S
Zn419 O431 2.034 . S
O420 C404 1.251 . S
O420 Zn411 2.039 1_545 S
C421 O426 1.246 . S
C421 O427 1.249 . S
O422 C404 1.254 . S
O422 Zn419 2.025 . S
H423 C415 0.952 . S
H424 C406 0.952 . S
H425 C414 0.948 . S
O426 Zn411 2.034 1_545 S
O426 C421 1.246 . S
O427 Zn419 2.024 . S
O427 C421 1.249 . S
H428 C410 0.948 . S
O429 Zn419 2.039 . S
O429 C433 1.251 1_545 S
O430 Zn411 2.025 . S
O430 C433 1.254 . S
O431 C412 1.246 1_545 S
O431 Zn419 2.034 . S
O432 Zn411 2.024 . S
O432 C412 1.249 . S
C433 O429 1.251 1_565 S
C433 O430 1.254 . S
H434 C407 0.949 . S
H435 C409 0.950 . S
H436 C416 0.949 . S
H437 C418 0.950 . S
C438 O454 1.251 . S
C438 O456 1.254 . S
N439 C440 1.333 . S
N439 C444 1.307 . S
N439 Zn445 2.020 . S
C440 N439 1.333 . S
C440 C441 1.379 . S
C440 H458 0.952 . S
C441 C440 1.379 . S
C441 C442 1.390 . S
C441 H468 0.949 . S
C442 C441 1.390 . S
C442 C443 1.357 . S
C443 C442 1.357 . S
C443 C444 1.370 . S
C443 H469 0.950 1_556 S
C444 N439 1.307 . S
C444 C443 1.370 . S
C444 H462 0.948 . S
Zn445 N439 2.020 . S
Zn445 O454 2.039 . S
Zn445 O460 2.034 . S
Zn445 O464 2.025 . S
Zn445 O466 2.024 . S
C446 O465 1.246 . S
C446 O466 1.249 . S
N447 C448 1.307 . S
N447 C449 1.333 . S
N447 Zn453 2.020 . S
C448 N447 1.307 . S
C448 C452 1.370 . S
C448 H459 0.948 . S
C449 N447 1.333 . S
C449 C450 1.379 . S
C449 H457 0.952 . S
C450 C449 1.379 . S
C450 C451 1.390 . S
C450 H470 0.949 . S
C451 C450 1.390 . S
C451 C452 1.357 . S
C452 C448 1.370 . S
C452 C451 1.357 . S
C452 H471 0.950 . S
Zn453 N447 2.020 . S
Zn453 O456 2.025 . S
Zn453 O461 2.024 . S
Zn453 O463 2.039 . S
Zn453 O465 2.034 . S
O454 C438 1.251 . S
O454 Zn445 2.039 . S
C455 O460 1.246 . S
C455 O461 1.249 . S
O456 C438 1.254 . S
O456 Zn453 2.025 . S
H457 C449 0.952 . S
H458 C440 0.952 . S
H459 C448 0.948 . S
O460 Zn445 2.034 . S
O460 C455 1.246 . S
O461 Zn453 2.024 . S
O461 C455 1.249 . S
H462 C444 0.948 . S
O463 Zn453 2.039 . S
O463 C467 1.251 . S
O464 Zn445 2.025 . S
O464 C467 1.254 . S
O465 C446 1.246 . S
O465 Zn453 2.034 . S
O466 Zn445 2.024 . S
O466 C446 1.249 . S
C467 O463 1.251 . S
C467 O464 1.254 . S
H468 C441 0.949 . S
H469 C443 0.950 1_554 S
H470 C450 0.949 . S
H471 C452 0.950 . S
C472 O488 1.251 . S
C472 O490 1.254 1_545 S
N473 C474 1.333 . S
N473 C478 1.307 . S
N473 Zn479 2.020 . S
C474 N473 1.333 . S
C474 C475 1.379 . S
C474 H492 0.952 . S
C475 C474 1.379 . S
C475 C476 1.390 . S
C475 H502 0.949 . S
C476 C475 1.390 . S
C476 C477 1.357 . S
C477 C476 1.357 . S
C477 C478 1.370 . S
C477 H503 0.950 . S
C478 N473 1.307 . S
C478 C477 1.370 . S
C478 H496 0.948 . S
Zn479 N473 2.020 . S
Zn479 O488 2.039 . S
Zn479 O494 2.034 . S
Zn479 O498 2.025 . S
Zn479 O500 2.024 1_545 S
C480 O499 1.246 . S
C480 O500 1.249 . S
N481 C482 1.307 . S
N481 C483 1.333 1_455 S
N481 Zn487 2.020 1_565 S
C482 N481 1.307 . S
C482 C486 1.370 . S
C482 H493 0.947 1_565 S
C483 N481 1.333 1_655 S
C483 C484 1.379 . S
C483 H491 0.952 . S
C484 C483 1.379 . S
C484 C485 1.390 . S
C484 H504 0.949 . S
C485 C484 1.390 . S
C485 C486 1.357 1_655 S
C486 C482 1.370 . S
C486 C485 1.357 1_455 S
C486 H505 0.950 . S
Zn487 N481 2.020 1_545 S
Zn487 O490 2.025 1_545 S
Zn487 O495 2.024 . S
Zn487 O497 2.039 1_455 S
Zn487 O499 2.034 1_545 S
O488 C472 1.251 . S
O488 Zn479 2.039 . S
C489 O494 1.246 . S
C489 O495 1.249 . S
O490 C472 1.254 1_565 S
O490 Zn487 2.025 1_565 S
H491 C483 0.952 . S
H492 C474 0.952 . S
H493 C482 0.947 1_545 S
O494 Zn479 2.034 . S
O494 C489 1.246 . S
O495 Zn487 2.024 . S
O495 C489 1.249 . S
H496 C478 0.948 . S
O497 Zn487 2.039 1_655 S
O497 C501 1.251 . S
O498 Zn479 2.025 . S
O498 C501 1.254 1_455 S
O499 C480 1.246 . S
O499 Zn487 2.034 1_565 S
O500 Zn479 2.024 1_565 S
O500 C480 1.249 . S
C501 O497 1.251 . S
C501 O498 1.254 1_655 S
H502 C475 0.949 . S
H503 C477 0.950 . S
H504 C484 0.949 . S
H505 C486 0.950 . S
C506 O522 1.251 . S
C506 O524 1.254 . S
N507 C508 1.333 . S
N507 C512 1.307 . S
N507 Zn513 2.020 . S
C508 N507 1.333 . S
C508 C509 1.379 . S
C508 H526 0.952 . S
C509 C508 1.379 . S
C509 C510 1.390 . S
C509 H536 0.949 . S
C510 C509 1.390 . S
C510 C511 1.357 . S
C511 C510 1.357 . S
C511 C512 1.370 . S
C511 H537 0.950 . S
C512 N507 1.307 . S
C512 C511 1.370 . S
C512 H530 0.948 . S
Zn513 N507 2.020 . S
Zn513 O522 2.039 . S
Zn513 O528 2.034 . S
Zn513 O532 2.025 . S
Zn513 O534 2.024 . S
C514 O533 1.246 . S
C514 O534 1.249 . S
N515 C516 1.307 . S
N515 C517 1.333 . S
N515 Zn521 2.020 . S
C516 N515 1.307 . S
C516 C520 1.370 . S
C516 H527 0.948 . S
C517 N515 1.333 . S
C517 C518 1.379 . S
C517 H525 0.952 . S
C518 C517 1.379 . S
C518 C519 1.390 . S
C518 H538 0.949 . S
C519 C518 1.390 . S
C519 C520 1.357 . S
C520 C516 1.370 . S
C520 C519 1.357 . S
C520 H539 0.950 . S
Zn521 N515 2.020 . S
Zn521 O524 2.025 . S
Zn521 O529 2.024 . S
Zn521 O531 2.039 . S
Zn521 O533 2.034 . S
O522 C506 1.251 . S
O522 Zn513 2.039 . S
C523 O528 1.246 . S
C523 O529 1.249 . S
O524 C506 1.254 . S
O524 Zn521 2.025 . S
H525 C517 0.952 . S
H526 C508 0.952 . S
H527 C516 0.948 . S
O528 Zn513 2.034 . S
O528 C523 1.246 . S
O529 Zn521 2.024 . S
O529 C523 1.249 . S
H530 C512 0.948 . S
O531 Zn521 2.039 . S
O531 C535 1.251 . S
O532 Zn513 2.025 . S
O532 C535 1.254 . S
O533 C514 1.246 . S
O533 Zn521 2.034 . S
O534 Zn513 2.024 . S
O534 C514 1.249 . S
C535 O531 1.251 . S
C535 O532 1.254 . S
H536 C509 0.949 . S
H537 C511 0.950 . S
H538 C518 0.949 . S
H539 C520 0.950 . S
C540 O556 1.251 . S
C540 O558 1.254 . S
N541 C542 1.333 . S
N541 C546 1.307 . S
N541 Zn547 2.020 . S
C542 N541 1.333 . S
C542 C543 1.379 . S
C542 H560 0.952 . S
C543 C542 1.379 . S
C543 C544 1.390 . S
C543 H570 0.949 . S
C544 C543 1.390 . S
C544 C545 1.357 . S
C545 C544 1.357 . S
C545 C546 1.370 . S
C545 H571 0.950 . S
C546 N541 1.307 . S
C546 C545 1.370 . S
C546 H564 0.948 . S
Zn547 N541 2.020 . S
Zn547 O556 2.039 1_545 S
Zn547 O562 2.034 . S
Zn547 O566 2.025 . S
Zn547 O568 2.024 . S
C548 O567 1.249 1_545 S
C548 O568 1.249 . S
N549 C550 1.307 . S
N549 C551 1.333 1_565 S
N549 Zn555 2.020 1_566 S
C550 N549 1.307 . S
C550 C554 1.370 . S
C550 H561 0.948 . S
C551 N549 1.333 1_545 S
C551 C552 1.379 1_545 S
C551 H559 0.952 . S
C552 C551 1.379 1_565 S
C552 C553 1.390 . S
C552 H572 0.949 1_565 S
C553 C552 1.390 . S
C553 C554 1.357 . S
C554 C550 1.370 . S
C554 C553 1.357 . S
C554 H573 0.950 . S
Zn555 N549 2.020 1_544 S
Zn555 O558 2.025 1_545 S
Zn555 O563 2.024 . S
Zn555 O565 2.039 1_554 S
Zn555 O567 2.035 1_545 S
O556 C540 1.251 . S
O556 Zn547 2.039 1_565 S
C557 O562 1.246 . S
C557 O563 1.249 . S
O558 C540 1.254 . S
O558 Zn555 2.025 1_565 S
H559 C551 0.952 . S
H560 C542 0.952 . S
H561 C550 0.948 . S
O562 Zn547 2.034 . S
O562 C557 1.246 . S
O563 Zn555 2.024 . S
O563 C557 1.249 . S
H564 C546 0.948 . S
O565 Zn555 2.039 1_556 S
O565 C569 1.251 1_556 S
O566 Zn547 2.025 . S
O566 C569 1.254 . S
O567 C548 1.249 1_565 S
O567 Zn555 2.035 1_565 S
O568 Zn547 2.024 . S
O568 C548 1.249 . S
C569 O565 1.251 1_554 S
C569 O566 1.254 . S
H570 C543 0.949 . S
H571 C545 0.950 . S
H572 C552 0.949 1_545 S
H573 C554 0.950 . S
C574 O590 1.251 . S
C574 O592 1.254 . S
N575 C576 1.333 . S
N575 C580 1.307 . S
N575 Zn581 2.020 . S
C576 N575 1.333 . S
C576 C577 1.379 . S
C576 H594 0.952 . S
C577 C576 1.379 . S
C577 C578 1.390 . S
C577 H604 0.949 . S
C578 C577 1.390 . S
C578 C579 1.357 . S
C579 C578 1.357 . S
C579 C580 1.370 . S
C579 H605 0.950 . S
C580 N575 1.307 . S
C580 C579 1.370 . S
C580 H598 0.948 . S
Zn581 N575 2.020 . S
Zn581 O590 2.039 . S
Zn581 O596 2.034 . S
Zn581 O600 2.025 . S
Zn581 O602 2.024 . S
C582 O601 1.246 . S
C582 O602 1.249 . S
N583 C584 1.307 . S
N583 C585 1.333 . S
N583 Zn589 2.020 . S
C584 N583 1.307 . S
C584 C588 1.370 . S
C584 H595 0.948 . S
C585 N583 1.333 . S
C585 C586 1.379 . S
C585 H593 0.952 . S
C586 C585 1.379 . S
C586 C587 1.390 . S
C586 H606 0.949 . S
C587 C586 1.390 . S
C587 C588 1.357 . S
C588 C584 1.370 . S
C588 C587 1.357 . S
C588 H607 0.950 . S
Zn589 N583 2.020 . S
Zn589 O592 2.025 . S
Zn589 O597 2.024 . S
Zn589 O599 2.039 . S
Zn589 O601 2.034 . S
O590 C574 1.251 . S
O590 Zn581 2.039 . S
C591 O596 1.246 . S
C591 O597 1.249 . S
O592 C574 1.254 . S
O592 Zn589 2.025 . S
H593 C585 0.952 . S
H594 C576 0.952 . S
H595 C584 0.948 . S
O596 Zn581 2.034 . S
O596 C591 1.246 . S
O597 Zn589 2.024 . S
O597 C591 1.249 . S
H598 C580 0.948 . S
O599 Zn589 2.039 . S
O599 C603 1.251 . S
O600 Zn581 2.025 . S
O600 C603 1.254 . S
O601 C582 1.246 . S
O601 Zn589 2.034 . S
O602 Zn581 2.024 . S
O602 C582 1.249 . S
C603 O599 1.251 . S
C603 O600 1.254 . S
H604 C577 0.949 . S
H605 C579 0.950 . S
H606 C586 0.949 . S
H607 C588 0.950 . S
C608 O624 1.251 . S
C608 O626 1.254 . S
N609 C610 1.333 . S
N609 C614 1.307 . S
N609 Zn615 2.020 1_556 S
C610 N609 1.333 . S
C610 C611 1.379 . S
C610 H628 0.952 . S
C611 C610 1.379 . S
C611 C612 1.390 . S
C611 H638 0.949 . S
C612 C611 1.390 . S
C612 C613 1.357 . S
C613 C612 1.357 . S
C613 C614 1.370 . S
C613 H639 0.950 . S
C614 N609 1.307 . S
C614 C613 1.370 . S
C614 H632 0.948 . S
Zn615 N609 2.020 1_554 S
Zn615 O624 2.039 . S
Zn615 O630 2.034 . S
Zn615 O634 2.025 1_554 S
Zn615 O636 2.024 1_554 S
C616 O635 1.246 . S
C616 O636 1.249 1_554 S
N617 C618 1.307 . S
N617 C619 1.333 . S
N617 Zn623 2.020 . S
C618 N617 1.307 . S
C618 C622 1.370 . S
C618 H629 0.948 . S
C619 N617 1.333 . S
C619 C620 1.379 . S
C619 H627 0.952 . S
C620 C619 1.379 . S
C620 C621 1.390 . S
C620 H640 0.949 . S
C621 C620 1.390 . S
C621 C622 1.357 . S
C622 C618 1.370 . S
C622 C621 1.357 . S
C622 H641 0.950 . S
Zn623 N617 2.020 . S
Zn623 O626 2.025 . S
Zn623 O631 2.024 . S
Zn623 O633 2.039 . S
Zn623 O635 2.034 . S
O624 C608 1.251 . S
O624 Zn615 2.039 . S
C625 O630 1.246 . S
C625 O631 1.249 . S
O626 C608 1.254 . S
O626 Zn623 2.025 . S
H627 C619 0.952 . S
H628 C610 0.952 . S
H629 C618 0.948 . S
O630 Zn615 2.034 . S
O630 C625 1.246 . S
O631 Zn623 2.024 . S
O631 C625 1.249 . S
H632 C614 0.948 . S
O633 Zn623 2.039 . S
O633 C637 1.251 . S
O634 Zn615 2.025 1_556 S
O634 C637 1.254 1_556 S
O635 C616 1.246 . S
O635 Zn623 2.034 . S
O636 Zn615 2.024 1_556 S
O636 C616 1.249 1_556 S
C637 O633 1.251 . S
C637 O634 1.254 1_554 S
H638 C611 0.949 . S
H639 C613 0.950 . S
H640 C620 0.949 . S
H641 C622 0.950 . S
C642 O658 1.251 . S
C642 O660 1.254 . S
N643 C644 1.333 . S
N643 C648 1.307 . S
N643 Zn649 2.020 . S
C644 N643 1.333 . S
C644 C645 1.379 . S
C644 H662 0.952 . S
C645 C644 1.379 . S
C645 C646 1.390 1_655 S
C645 H672 0.949 . S
C646 C645 1.390 1_455 S
C646 C647 1.357 . S
C647 C646 1.357 . S
C647 C648 1.370 1_455 S
C647 H673 0.950 . S
C648 N643 1.307 . S
C648 C647 1.370 1_655 S
C648 H666 0.948 . S
Zn649 N643 2.020 . S
Zn649 O658 2.039 . S
Zn649 O664 2.034 . S
Zn649 O668 2.025 . S
Zn649 O670 2.024 . S
C650 O669 1.246 . S
C650 O670 1.249 . S
N651 C652 1.307 . S
N651 C653 1.333 . S
N651 Zn657 2.020 . S
C652 N651 1.307 . S
C652 C656 1.370 . S
C652 H663 0.948 . S
C653 N651 1.333 . S
C653 C654 1.379 . S
C653 H661 0.952 . S
C654 C653 1.379 . S
C654 C655 1.390 . S
C654 H674 0.949 . S
C655 C654 1.390 . S
C655 C656 1.357 . S
C656 C652 1.370 . S
C656 C655 1.357 . S
C656 H675 0.950 . S
Zn657 N651 2.020 . S
Zn657 O660 2.025 . S
Zn657 O665 2.024 . S
Zn657 O667 2.039 . S
Zn657 O669 2.034 . S
O658 C642 1.251 . S
O658 Zn649 2.039 . S
C659 O664 1.246 . S
C659 O665 1.249 . S
O660 C642 1.254 . S
O660 Zn657 2.025 . S
H661 C653 0.952 . S
H662 C644 0.952 . S
H663 C652 0.948 . S
O664 Zn649 2.034 . S
O664 C659 1.246 . S
O665 Zn657 2.024 . S
O665 C659 1.249 . S
H666 C648 0.948 . S
O667 Zn657 2.039 . S
O667 C671 1.251 . S
O668 Zn649 2.025 . S
O668 C671 1.254 . S
O669 C650 1.246 . S
O669 Zn657 2.034 . S
O670 Zn649 2.024 . S
O670 C650 1.249 . S
C671 O667 1.251 . S
C671 O668 1.254 . S
H672 C645 0.949 . S
H673 C647 0.950 . S
H674 C654 0.949 . S
H675 C656 0.950 . S
C676 O692 1.251 . S
C676 O694 1.254 . S
N677 C678 1.333 . S
N677 C682 1.307 . S
N677 Zn683 2.020 . S
C678 N677 1.333 . S
C678 C679 1.379 . S
C678 H696 0.952 . S
C679 C678 1.379 . S
C679 C680 1.390 . S
C679 H706 0.949 . S
C680 C679 1.390 . S
C680 C681 1.357 . S
C681 C680 1.357 . S
C681 C682 1.370 . S
C681 H707 0.950 . S
C682 N677 1.307 . S
C682 C681 1.370 . S
C682 H700 0.948 . S
Zn683 N677 2.020 . S
Zn683 O692 2.039 . S
Zn683 O698 2.034 . S
Zn683 O702 2.025 . S
Zn683 O704 2.024 . S
C684 O703 1.246 . S
C684 O704 1.249 . S
N685 C686 1.307 1_455 S
N685 C687 1.333 . S
N685 Zn691 2.020 . S
C686 N685 1.307 1_655 S
C686 C690 1.370 . S
C686 H697 0.948 . S
C687 N685 1.333 . S
C687 C688 1.379 . S
C687 H695 0.952 . S
C688 C687 1.379 . S
C688 C689 1.390 1_455 S
C688 H708 0.949 . S
C689 C688 1.390 1_655 S
C689 C690 1.357 . S
C690 C686 1.370 . S
C690 C689 1.357 . S
C690 H709 0.950 . S
Zn691 N685 2.020 . S
Zn691 O694 2.025 . S
Zn691 O699 2.024 1_455 S
Zn691 O701 2.039 . S
Zn691 O703 2.034 . S
O692 C676 1.251 . S
O692 Zn683 2.039 . S
C693 O698 1.246 1_655 S
C693 O699 1.249 . S
O694 C676 1.254 . S
O694 Zn691 2.025 . S
H695 C687 0.952 . S
H696 C678 0.952 . S
H697 C686 0.948 . S
O698 Zn683 2.034 . S
O698 C693 1.246 1_455 S
O699 Zn691 2.024 1_655 S
O699 C693 1.249 . S
H700 C682 0.948 . S
O701 Zn691 2.039 . S
O701 C705 1.251 . S
O702 Zn683 2.025 . S
O702 C705 1.254 . S
O703 C684 1.246 . S
O703 Zn691 2.034 . S
O704 Zn683 2.024 . S
O704 C684 1.249 . S
C705 O701 1.251 . S
C705 O702 1.254 . S
H706 C679 0.949 . S
H707 C681 0.950 . S
H708 C688 0.949 . S
H709 C690 0.950 . S
C710 O726 1.251 . S
C710 O728 1.254 . S
N711 C712 1.333 . S
N711 C716 1.307 . S
N711 Zn717 2.020 . S
C712 N711 1.333 . S
C712 C713 1.379 . S
C712 H730 0.952 . S
C713 C712 1.379 . S
C713 C714 1.390 . S
C713 H740 0.949 . S
C714 C713 1.390 . S
C714 C715 1.357 . S
C715 C714 1.357 . S
C715 C716 1.370 . S
C715 H741 0.950 . S
C716 N711 1.307 . S
C716 C715 1.370 . S
C716 H734 0.948 . S
Zn717 N711 2.020 . S
Zn717 O726 2.039 . S
Zn717 O732 2.034 . S
Zn717 O736 2.025 . S
Zn717 O738 2.024 . S
C718 O737 1.246 . S
C718 O738 1.249 . S
N719 C720 1.307 . S
N719 C721 1.333 . S
N719 Zn725 2.020 . S
C720 N719 1.307 . S
C720 C724 1.370 . S
C720 H731 0.948 . S
C721 N719 1.333 . S
C721 C722 1.379 . S
C721 H729 0.952 . S
C722 C721 1.379 . S
C722 C723 1.390 . S
C722 H742 0.949 . S
C723 C722 1.390 . S
C723 C724 1.357 . S
C724 C720 1.370 . S
C724 C723 1.357 . S
C724 H743 0.950 . S
Zn725 N719 2.020 . S
Zn725 O728 2.025 . S
Zn725 O733 2.024 . S
Zn725 O735 2.039 . S
Zn725 O737 2.034 . S
O726 C710 1.251 . S
O726 Zn717 2.039 . S
C727 O732 1.246 . S
C727 O733 1.249 . S
O728 C710 1.254 . S
O728 Zn725 2.025 . S
H729 C721 0.952 . S
H730 C712 0.952 . S
H731 C720 0.948 . S
O732 Zn717 2.034 . S
O732 C727 1.246 . S
O733 Zn725 2.024 . S
O733 C727 1.249 . S
H734 C716 0.948 . S
O735 Zn725 2.039 . S
O735 C739 1.251 . S
O736 Zn717 2.025 . S
O736 C739 1.254 . S
O737 C718 1.246 . S
O737 Zn725 2.034 . S
O738 Zn717 2.024 . S
O738 C718 1.249 . S
C739 O735 1.251 . S
C739 O736 1.254 . S
H740 C713 0.949 . S
H741 C715 0.950 . S
H742 C722 0.949 . S
H743 C724 0.950 . S
C744 O760 1.251 . S
C744 O762 1.254 . S
N745 C746 1.333 . S
N745 C750 1.307 . S
N745 Zn751 2.020 . S
C746 N745 1.333 . S
C746 C747 1.379 . S
C746 H764 0.952 . S
C747 C746 1.379 . S
C747 C748 1.390 . S
C747 H774 0.949 . S
C748 C747 1.390 . S
C748 C749 1.357 . S
C749 C748 1.357 . S
C749 C750 1.370 . S
C749 H775 0.950 . S
C750 N745 1.307 . S
C750 C749 1.370 . S
C750 H768 0.948 . S
Zn751 N745 2.020 . S
Zn751 O760 2.039 . S
Zn751 O766 2.034 . S
Zn751 O770 2.025 . S
Zn751 O772 2.024 . S
C752 O771 1.246 . S
C752 O772 1.249 . S
N753 C754 1.307 . S
N753 C755 1.333 . S
N753 Zn759 2.020 . S
C754 N753 1.307 . S
C754 C758 1.370 . S
C754 H765 0.948 . S
C755 N753 1.333 . S
C755 C756 1.379 . S
C755 H763 0.952 . S
C756 C755 1.379 . S
C756 C757 1.390 . S
C756 H776 0.949 1_556 S
C757 C756 1.390 . S
C757 C758 1.357 . S
C758 C754 1.370 . S
C758 C757 1.357 . S
C758 H777 0.950 . S
Zn759 N753 2.020 . S
Zn759 O762 2.025 . S
Zn759 O767 2.024 . S
Zn759 O769 2.039 . S
Zn759 O771 2.034 . S
O760 C744 1.251 . S
O760 Zn751 2.039 . S
C761 O766 1.246 . S
C761 O767 1.249 . S
O762 C744 1.254 . S
O762 Zn759 2.025 . S
H763 C755 0.952 . S
H764 C746 0.952 . S
H765 C754 0.948 . S
O766 Zn751 2.034 . S
O766 C761 1.246 . S
O767 Zn759 2.024 . S
O767 C761 1.249 . S
H768 C750 0.948 . S
O769 Zn759 2.039 . S
O769 C773 1.251 . S
O770 Zn751 2.025 . S
O770 C773 1.254 . S
O771 C752 1.246 . S
O771 Zn759 2.034 . S
O772 Zn751 2.024 . S
O772 C752 1.249 . S
C773 O769 1.251 . S
C773 O770 1.254 . S
H774 C747 0.949 . S
H775 C749 0.950 . S
H776 C756 0.949 1_554 S
H777 C758 0.950 . S
C778 O794 1.251 . S
C778 O796 1.254 . S
N779 C780 1.333 . S
N779 C784 1.307 . S
N779 Zn785 2.020 . S
C780 N779 1.333 . S
C780 C781 1.379 . S
C780 H798 0.952 . S
C781 C780 1.379 . S
C781 C782 1.390 . S
C781 H808 0.949 . S
C782 C781 1.390 . S
C782 C783 1.357 . S
C783 C782 1.357 . S
C783 C784 1.370 . S
C783 H809 0.950 . S
C784 N779 1.307 . S
C784 C783 1.370 . S
C784 H802 0.948 . S
Zn785 N779 2.020 . S
Zn785 O794 2.039 . S
Zn785 O800 2.034 . S
Zn785 O804 2.025 . S
Zn785 O806 2.024 . S
C786 O805 1.246 . S
C786 O806 1.249 . S
N787 C788 1.307 . S
N787 C789 1.333 . S
N787 Zn793 2.020 . S
C788 N787 1.307 . S
C788 C792 1.370 . S
C788 H799 0.948 . S
C789 N787 1.333 . S
C789 C790 1.379 . S
C789 H797 0.952 . S
C790 C789 1.379 . S
C790 C791 1.390 . S
C790 H810 0.949 . S
C791 C790 1.390 . S
C791 C792 1.357 . S
C792 C788 1.370 . S
C792 C791 1.357 . S
C792 H811 0.950 . S
Zn793 N787 2.020 . S
Zn793 O796 2.025 . S
Zn793 O801 2.024 . S
Zn793 O803 2.039 . S
Zn793 O805 2.034 . S
O794 C778 1.251 . S
O794 Zn785 2.039 . S
C795 O800 1.246 . S
C795 O801 1.249 . S
O796 C778 1.254 . S
O796 Zn793 2.025 . S
H797 C789 0.952 . S
H798 C780 0.952 . S
H799 C788 0.948 . S
O800 Zn785 2.034 . S
O800 C795 1.246 . S
O801 Zn793 2.024 . S
O801 C795 1.249 . S
H802 C784 0.948 . S
O803 Zn793 2.039 . S
O803 C807 1.251 . S
O804 Zn785 2.025 . S
O804 C807 1.254 . S
O805 C786 1.246 . S
O805 Zn793 2.034 . S
O806 Zn785 2.024 . S
O806 C786 1.249 . S
C807 O803 1.251 . S
C807 O804 1.254 . S
H808 C781 0.949 . S
H809 C783 0.950 . S
H810 C790 0.949 . S
H811 C792 0.950 . S
C812 O828 1.251 . S
C812 O830 1.254 . S
N813 C814 1.333 . S
N813 C818 1.307 . S
N813 Zn819 2.020 . S
C814 N813 1.333 . S
C814 C815 1.379 . S
C814 H832 0.952 . S
C815 C814 1.379 . S
C815 C816 1.390 . S
C815 H842 0.949 . S
C816 C815 1.390 . S
C816 C817 1.357 . S
C817 C816 1.357 . S
C817 C818 1.370 . S
C817 H843 0.950 . S
C818 N813 1.307 . S
C818 C817 1.370 . S
C818 H836 0.948 . S
Zn819 N813 2.020 . S
Zn819 O828 2.039 . S
Zn819 O834 2.034 . S
Zn819 O838 2.025 . S
Zn819 O840 2.024 . S
C820 O839 1.246 . S
C820 O840 1.249 . S
N821 C822 1.307 . S
N821 C823 1.333 . S
N821 Zn827 2.020 . S
C822 N821 1.307 . S
C822 C826 1.370 . S
C822 H833 0.948 . S
C823 N821 1.333 . S
C823 C824 1.379 . S
C823 H831 0.952 . S
C824 C823 1.379 . S
C824 C825 1.390 . S
C824 H844 0.949 . S
C825 C824 1.390 . S
C825 C826 1.357 . S
C826 C822 1.370 . S
C826 C825 1.357 . S
C826 H845 0.950 . S
Zn827 N821 2.020 . S
Zn827 O830 2.025 . S
Zn827 O835 2.024 . S
Zn827 O837 2.039 . S
Zn827 O839 2.034 . S
O828 C812 1.251 . S
O828 Zn819 2.039 . S
C829 O834 1.246 . S
C829 O835 1.249 . S
O830 C812 1.254 . S
O830 Zn827 2.025 . S
H831 C823 0.952 . S
H832 C814 0.952 . S
H833 C822 0.948 . S
O834 Zn819 2.034 . S
O834 C829 1.246 . S
O835 Zn827 2.024 . S
O835 C829 1.249 . S
H836 C818 0.948 . S
O837 Zn827 2.039 . S
O837 C841 1.251 . S
O838 Zn819 2.025 . S
O838 C841 1.254 . S
O839 C820 1.246 . S
O839 Zn827 2.034 . S
O840 Zn819 2.024 . S
O840 C820 1.249 . S
C841 O837 1.251 . S
C841 O838 1.254 . S
H842 C815 0.949 . S
H843 C817 0.950 . S
H844 C824 0.949 . S
H845 C826 0.950 . S
C846 O862 1.251 . S
C846 O864 1.254 . S
N847 C848 1.333 . S
N847 C852 1.307 . S
N847 Zn853 2.020 . S
C848 N847 1.333 . S
C848 C849 1.379 . S
C848 H866 0.952 . S
C849 C848 1.379 . S
C849 C850 1.390 . S
C849 H876 0.949 . S
C850 C849 1.390 . S
C850 C851 1.357 . S
C851 C850 1.357 . S
C851 C852 1.370 . S
C851 H877 0.950 . S
C852 N847 1.307 . S
C852 C851 1.370 . S
C852 H870 0.948 . S
Zn853 N847 2.020 . S
Zn853 O862 2.039 . S
Zn853 O868 2.034 . S
Zn853 O872 2.025 1_554 S
Zn853 O874 2.024 . S
C854 O873 1.246 . S
C854 O874 1.249 1_655 S
N855 C856 1.307 . S
N855 C857 1.333 1_554 S
N855 Zn861 2.020 . S
C856 N855 1.307 . S
C856 C860 1.370 . S
C856 H867 0.948 . S
C857 N855 1.333 1_556 S
C857 C858 1.379 1_455 S
C857 H865 0.952 . S
C858 C857 1.379 1_655 S
C858 C859 1.390 . S
C858 H878 0.949 . S
C859 C858 1.390 . S
C859 C860 1.357 1_656 S
C860 C856 1.370 . S
C860 C859 1.357 1_454 S
C860 H879 0.950 . S
Zn861 N855 2.020 . S
Zn861 O864 2.025 . S
Zn861 O869 2.024 . S
Zn861 O871 2.039 1_554 S
Zn861 O873 2.034 1_455 S
O862 C846 1.251 . S
O862 Zn853 2.039 . S
C863 O868 1.246 . S
C863 O869 1.249 . S
O864 C846 1.254 . S
O864 Zn861 2.025 . S
H865 C857 0.952 . S
H866 C848 0.952 . S
H867 C856 0.948 . S
O868 Zn853 2.034 . S
O868 C863 1.246 . S
O869 Zn861 2.024 . S
O869 C863 1.249 . S
H870 C852 0.948 . S
O871 Zn861 2.039 1_556 S
O871 C875 1.251 . S
O872 Zn853 2.025 1_556 S
O872 C875 1.254 . S
O873 C854 1.246 . S
O873 Zn861 2.034 1_655 S
O874 Zn853 2.024 . S
O874 C854 1.249 1_455 S
C875 O871 1.251 . S
C875 O872 1.254 . S
H876 C849 0.949 . S
H877 C851 0.950 . S
H878 C858 0.949 . S
H879 C860 0.950 . S
C353 C4 2.070 . S
C19 C399 1.964 . S
C39 C408 0.822 . S
C446 C54 2.044 . S
C18 C480 1.918 . S
C510 C40 0.688 . S
C569 C53 1.879 1_554 S
C5 C582 2.045 . S
C61 C365 1.516 1_545 S
C74 C383 1.619 . S
C404 C89 1.721 . S
C442 C109 2.705 . S
C68 C476 1.719 . S
C506 C81 2.449 . S
C553 C96 1.899 1_565 S
C578 C102 0.969 . S
C349 C103 1.952 1_546 S
C608 C117 2.347 . S
C130 C650 2.562 . S
C693 C152 1.244 . S
C60 C574 1.953 . S
C412 C82 2.778 1_565 S
C137 C710 1.834 . S
C761 C165 1.969 . S
C172 C344 2.454 1_656 S
C744 C194 2.636 . S
C207 C417 0.561 . S
C215 C727 1.877 . S
C489 C186 2.166 . S
C655 C201 1.045 . S
C540 C221 1.963 . S
C795 C180 2.742 . S
C336 C236 2.172 1_445 S
C242 C748 2.140 . S
C433 C264 2.868 1_565 S
C277 C723 2.506 . S
C229 C485 1.873 1_445 S
C249 C671 2.240 . S
C544 C257 2.151 . S
C270 C791 1.218 . S
C278 C340 2.027 1_545 S
C292 C637 2.277 . S
C298 C523 3.091 . S
C313 C684 1.704 . S
C807 C228 2.284 . S
C421 C243 3.061 . S
C467 C305 1.915 . S
C378 C333 2.217 . S
C32 C829 2.070 . S
C773 C47 1.964 . S
C850 C11 0.822 . S
C26 C718 2.044 . S
C46 C616 1.918 1_556 S
C646 C12 0.688 . S
C705 C25 1.879 . S
C786 C33 2.045 . S
C841 C159 1.516 . S
C116 C757 1.619 1_554 S
C131 C846 1.721 1_655 S
C714 C151 2.705 . S
C612 C166 1.719 . S
C123 C642 2.449 . S
C689 C138 1.899 . S
C144 C782 0.969 . S
C825 C145 1.952 . S
C472 C75 2.347 . S
C514 C88 2.562 . S
C110 C557 1.244 . S
C778 C158 1.953 . S
C124 C854 2.778 . S
C438 C95 1.835 . S
C387 C67 1.969 . S
C200 C820 2.454 . S
C370 C222 2.636 . S
C859 C179 0.561 . S
C187 C455 1.877 . S
C214 C625 2.166 . S
C173 C519 1.045 . S
C193 C676 1.963 . S
C208 C591 2.742 . S
C812 C334 2.174 . S
C284 C374 2.140 . S
C875 C306 2.868 . S
C319 C451 2.506 . S
C327 C621 1.871 . S
C535 C291 2.240 . S
C299 C680 2.151 . S
C587 C312 1.218 . S
C816 C320 2.027 . S
C501 C250 2.277 . S
C256 C659 3.091 . S
C548 C271 1.704 . S
C603 C326 2.282 . S
C285 C863 3.061 1_556 S
C739 C263 1.916 . S
C752 C235 2.214 . S
