# Generated by pormake.
# Topology gar, (4,6)-cn, num edge types: 1
# Building blocks:
#     Node 0, Type 0, BuildingBlock: AZAVOO_clean_sbu_0, # of connection points: 4
#     Node 1, Type 0, BuildingBlock: AZAVOO_clean_sbu_0, # of connection points: 4
#     Node 2, Type 0, BuildingBlock: AZAVOO_clean_sbu_0, # of connection points: 4
#     Node 3, Type 0, BuildingBlock: AZAVOO_clean_sbu_0, # of connection points: 4
#     Node 4, Type 0, BuildingBlock: AZAVOO_clean_sbu_0, # of connection points: 4
#     Node 5, Type 0, BuildingBlock: AZAVOO_clean_sbu_0, # of connection points: 4
#     Node 6, Type 0, BuildingBlock: AZAVOO_clean_sbu_0, # of connection points: 4
#     Node 7, Type 0, BuildingBlock: AZAVOO_clean_sbu_0, # of connection points: 4
#     Node 8, Type 0, BuildingBlock: AZAVOO_clean_sbu_0, # of connection points: 4
#     Node 9, Type 0, BuildingBlock: AZAVOO_clean_sbu_0, # of connection points: 4
#     Node 10, Type 0, BuildingBlock: AZAVOO_clean_sbu_0, # of connection points: 4
#     Node 11, Type 0, BuildingBlock: AZAVOO_clean_sbu_0, # of connection points: 4
#     Node 12, Type 0, BuildingBlock: AZAVOO_clean_sbu_0, # of connection points: 4
#     Node 13, Type 0, BuildingBlock: AZAVOO_clean_sbu_0, # of connection points: 4
#     Node 14, Type 0, BuildingBlock: AZAVOO_clean_sbu_0, # of connection points: 4
#     Node 15, Type 0, BuildingBlock: AZAVOO_clean_sbu_0, # of connection points: 4
#     Node 16, Type 0, BuildingBlock: AZAVOO_clean_sbu_0, # of connection points: 4
#     Node 17, Type 0, BuildingBlock: AZAVOO_clean_sbu_0, # of connection points: 4
#     Node 18, Type 0, BuildingBlock: AZAVOO_clean_sbu_0, # of connection points: 4
#     Node 19, Type 0, BuildingBlock: AZAVOO_clean_sbu_0, # of connection points: 4
#     Node 20, Type 0, BuildingBlock: AZAVOO_clean_sbu_0, # of connection points: 4
#     Node 21, Type 0, BuildingBlock: AZAVOO_clean_sbu_0, # of connection points: 4
#     Node 22, Type 0, BuildingBlock: AZAVOO_clean_sbu_0, # of connection points: 4
#     Node 23, Type 0, BuildingBlock: AZAVOO_clean_sbu_0, # of connection points: 4
#     Node 24, Type 1, BuildingBlock: KUMBOL_clean_sbu_1, # of connection points: 6
#     Node 25, Type 1, BuildingBlock: KUMBOL_clean_sbu_1, # of connection points: 6
#     Node 26, Type 1, BuildingBlock: KUMBOL_clean_sbu_1, # of connection points: 6
#     Node 27, Type 1, BuildingBlock: KUMBOL_clean_sbu_1, # of connection points: 6
#     Node 28, Type 1, BuildingBlock: KUMBOL_clean_sbu_1, # of connection points: 6
#     Node 29, Type 1, BuildingBlock: KUMBOL_clean_sbu_1, # of connection points: 6
#     Node 30, Type 1, BuildingBlock: KUMBOL_clean_sbu_1, # of connection points: 6
#     Node 31, Type 1, BuildingBlock: KUMBOL_clean_sbu_1, # of connection points: 6
#     Node 32, Type 1, BuildingBlock: KUMBOL_clean_sbu_1, # of connection points: 6
#     Node 33, Type 1, BuildingBlock: KUMBOL_clean_sbu_1, # of connection points: 6
#     Node 34, Type 1, BuildingBlock: KUMBOL_clean_sbu_1, # of connection points: 6
#     Node 35, Type 1, BuildingBlock: KUMBOL_clean_sbu_1, # of connection points: 6
#     Node 36, Type 1, BuildingBlock: KUMBOL_clean_sbu_1, # of connection points: 6
#     Node 37, Type 1, BuildingBlock: KUMBOL_clean_sbu_1, # of connection points: 6
#     Node 38, Type 1, BuildingBlock: KUMBOL_clean_sbu_1, # of connection points: 6
#     Node 39, Type 1, BuildingBlock: KUMBOL_clean_sbu_1, # of connection points: 6
#     Edge 40, Type (0, 1), BuildingBlock: AJUNOK_clean_linker_0, # of connection points: 2
#     Edge 41, Type (0, 1), BuildingBlock: AJUNOK_clean_linker_0, # of connection points: 2
#     Edge 42, Type (0, 1), BuildingBlock: AJUNOK_clean_linker_0, # of connection points: 2
#     Edge 43, Type (0, 1), BuildingBlock: AJUNOK_clean_linker_0, # of connection points: 2
#     Edge 44, Type (0, 1), BuildingBlock: AJUNOK_clean_linker_0, # of connection points: 2
#     Edge 45, Type (0, 1), BuildingBlock: AJUNOK_clean_linker_0, # of connection points: 2
#     Edge 46, Type (0, 1), BuildingBlock: AJUNOK_clean_linker_0, # of connection points: 2
#     Edge 47, Type (0, 1), BuildingBlock: AJUNOK_clean_linker_0, # of connection points: 2
#     Edge 48, Type (0, 1), BuildingBlock: AJUNOK_clean_linker_0, # of connection points: 2
#     Edge 49, Type (0, 1), BuildingBlock: AJUNOK_clean_linker_0, # of connection points: 2
#     Edge 50, Type (0, 1), BuildingBlock: AJUNOK_clean_linker_0, # of connection points: 2
#     Edge 51, Type (0, 1), BuildingBlock: AJUNOK_clean_linker_0, # of connection points: 2
#     Edge 52, Type (0, 1), BuildingBlock: AJUNOK_clean_linker_0, # of connection points: 2
#     Edge 53, Type (0, 1), BuildingBlock: AJUNOK_clean_linker_0, # of connection points: 2
#     Edge 54, Type (0, 1), BuildingBlock: AJUNOK_clean_linker_0, # of connection points: 2
#     Edge 55, Type (0, 1), BuildingBlock: AJUNOK_clean_linker_0, # of connection points: 2
#     Edge 56, Type (0, 1), BuildingBlock: AJUNOK_clean_linker_0, # of connection points: 2
#     Edge 57, Type (0, 1), BuildingBlock: AJUNOK_clean_linker_0, # of connection points: 2
#     Edge 58, Type (0, 1), BuildingBlock: AJUNOK_clean_linker_0, # of connection points: 2
#     Edge 59, Type (0, 1), BuildingBlock: AJUNOK_clean_linker_0, # of connection points: 2
#     Edge 60, Type (0, 1), BuildingBlock: AJUNOK_clean_linker_0, # of connection points: 2
#     Edge 61, Type (0, 1), BuildingBlock: AJUNOK_clean_linker_0, # of connection points: 2
#     Edge 62, Type (0, 1), BuildingBlock: AJUNOK_clean_linker_0, # of connection points: 2
#     Edge 63, Type (0, 1), BuildingBlock: AJUNOK_clean_linker_0, # of connection points: 2
#     Edge 64, Type (0, 1), BuildingBlock: AJUNOK_clean_linker_0, # of connection points: 2
#     Edge 65, Type (0, 1), BuildingBlock: AJUNOK_clean_linker_0, # of connection points: 2
#     Edge 66, Type (0, 1), BuildingBlock: AJUNOK_clean_linker_0, # of connection points: 2
#     Edge 67, Type (0, 1), BuildingBlock: AJUNOK_clean_linker_0, # of connection points: 2
#     Edge 68, Type (0, 1), BuildingBlock: AJUNOK_clean_linker_0, # of connection points: 2
#     Edge 69, Type (0, 1), BuildingBlock: AJUNOK_clean_linker_0, # of connection points: 2
#     Edge 70, Type (0, 1), BuildingBlock: AJUNOK_clean_linker_0, # of connection points: 2
#     Edge 71, Type (0, 1), BuildingBlock: AJUNOK_clean_linker_0, # of connection points: 2
#     Edge 72, Type (0, 1), BuildingBlock: AJUNOK_clean_linker_0, # of connection points: 2
#     Edge 73, Type (0, 1), BuildingBlock: AJUNOK_clean_linker_0, # of connection points: 2
#     Edge 74, Type (0, 1), BuildingBlock: AJUNOK_clean_linker_0, # of connection points: 2
#     Edge 75, Type (0, 1), BuildingBlock: AJUNOK_clean_linker_0, # of connection points: 2
#     Edge 76, Type (0, 1), BuildingBlock: AJUNOK_clean_linker_0, # of connection points: 2
#     Edge 77, Type (0, 1), BuildingBlock: AJUNOK_clean_linker_0, # of connection points: 2
#     Edge 78, Type (0, 1), BuildingBlock: AJUNOK_clean_linker_0, # of connection points: 2
#     Edge 79, Type (0, 1), BuildingBlock: AJUNOK_clean_linker_0, # of connection points: 2
#     Edge 80, Type (0, 1), BuildingBlock: AJUNOK_clean_linker_0, # of connection points: 2
#     Edge 81, Type (0, 1), BuildingBlock: AJUNOK_clean_linker_0, # of connection points: 2
#     Edge 82, Type (0, 1), BuildingBlock: AJUNOK_clean_linker_0, # of connection points: 2
#     Edge 83, Type (0, 1), BuildingBlock: AJUNOK_clean_linker_0, # of connection points: 2
#     Edge 84, Type (0, 1), BuildingBlock: AJUNOK_clean_linker_0, # of connection points: 2
#     Edge 85, Type (0, 1), BuildingBlock: AJUNOK_clean_linker_0, # of connection points: 2
#     Edge 86, Type (0, 1), BuildingBlock: AJUNOK_clean_linker_0, # of connection points: 2
#     Edge 87, Type (0, 1), BuildingBlock: AJUNOK_clean_linker_0, # of connection points: 2
#     Edge 88, Type (0, 1), BuildingBlock: AJUNOK_clean_linker_0, # of connection points: 2
#     Edge 89, Type (0, 1), BuildingBlock: AJUNOK_clean_linker_0, # of connection points: 2
#     Edge 90, Type (0, 1), BuildingBlock: AJUNOK_clean_linker_0, # of connection points: 2
#     Edge 91, Type (0, 1), BuildingBlock: AJUNOK_clean_linker_0, # of connection points: 2
#     Edge 92, Type (0, 1), BuildingBlock: AJUNOK_clean_linker_0, # of connection points: 2
#     Edge 93, Type (0, 1), BuildingBlock: AJUNOK_clean_linker_0, # of connection points: 2
#     Edge 94, Type (0, 1), BuildingBlock: AJUNOK_clean_linker_0, # of connection points: 2
#     Edge 95, Type (0, 1), BuildingBlock: AJUNOK_clean_linker_0, # of connection points: 2
#     Edge 96, Type (0, 1), BuildingBlock: AJUNOK_clean_linker_0, # of connection points: 2
#     Edge 97, Type (0, 1), BuildingBlock: AJUNOK_clean_linker_0, # of connection points: 2
#     Edge 98, Type (0, 1), BuildingBlock: AJUNOK_clean_linker_0, # of connection points: 2
#     Edge 99, Type (0, 1), BuildingBlock: AJUNOK_clean_linker_0, # of connection points: 2
#     Edge 100, Type (0, 1), BuildingBlock: AJUNOK_clean_linker_0, # of connection points: 2
#     Edge 101, Type (0, 1), BuildingBlock: AJUNOK_clean_linker_0, # of connection points: 2
#     Edge 102, Type (0, 1), BuildingBlock: AJUNOK_clean_linker_0, # of connection points: 2
#     Edge 103, Type (0, 1), BuildingBlock: AJUNOK_clean_linker_0, # of connection points: 2
#     Edge 104, Type (0, 1), BuildingBlock: AJUNOK_clean_linker_0, # of connection points: 2
#     Edge 105, Type (0, 1), BuildingBlock: AJUNOK_clean_linker_0, # of connection points: 2
#     Edge 106, Type (0, 1), BuildingBlock: AJUNOK_clean_linker_0, # of connection points: 2
#     Edge 107, Type (0, 1), BuildingBlock: AJUNOK_clean_linker_0, # of connection points: 2
#     Edge 108, Type (0, 1), BuildingBlock: AJUNOK_clean_linker_0, # of connection points: 2
#     Edge 109, Type (0, 1), BuildingBlock: AJUNOK_clean_linker_0, # of connection points: 2
#     Edge 110, Type (0, 1), BuildingBlock: AJUNOK_clean_linker_0, # of connection points: 2
#     Edge 111, Type (0, 1), BuildingBlock: AJUNOK_clean_linker_0, # of connection points: 2
#     Edge 112, Type (0, 1), BuildingBlock: AJUNOK_clean_linker_0, # of connection points: 2
#     Edge 113, Type (0, 1), BuildingBlock: AJUNOK_clean_linker_0, # of connection points: 2
#     Edge 114, Type (0, 1), BuildingBlock: AJUNOK_clean_linker_0, # of connection points: 2
#     Edge 115, Type (0, 1), BuildingBlock: AJUNOK_clean_linker_0, # of connection points: 2
#     Edge 116, Type (0, 1), BuildingBlock: AJUNOK_clean_linker_0, # of connection points: 2
#     Edge 117, Type (0, 1), BuildingBlock: AJUNOK_clean_linker_0, # of connection points: 2
#     Edge 118, Type (0, 1), BuildingBlock: AJUNOK_clean_linker_0, # of connection points: 2
#     Edge 119, Type (0, 1), BuildingBlock: AJUNOK_clean_linker_0, # of connection points: 2
#     Edge 120, Type (0, 1), BuildingBlock: AJUNOK_clean_linker_0, # of connection points: 2
#     Edge 121, Type (0, 1), BuildingBlock: AJUNOK_clean_linker_0, # of connection points: 2
#     Edge 122, Type (0, 1), BuildingBlock: AJUNOK_clean_linker_0, # of connection points: 2
#     Edge 123, Type (0, 1), BuildingBlock: AJUNOK_clean_linker_0, # of connection points: 2
#     Edge 124, Type (0, 1), BuildingBlock: AJUNOK_clean_linker_0, # of connection points: 2
#     Edge 125, Type (0, 1), BuildingBlock: AJUNOK_clean_linker_0, # of connection points: 2
#     Edge 126, Type (0, 1), BuildingBlock: AJUNOK_clean_linker_0, # of connection points: 2
#     Edge 127, Type (0, 1), BuildingBlock: AJUNOK_clean_linker_0, # of connection points: 2
#     Edge 128, Type (0, 1), BuildingBlock: AJUNOK_clean_linker_0, # of connection points: 2
#     Edge 129, Type (0, 1), BuildingBlock: AJUNOK_clean_linker_0, # of connection points: 2
#     Edge 130, Type (0, 1), BuildingBlock: AJUNOK_clean_linker_0, # of connection points: 2
#     Edge 131, Type (0, 1), BuildingBlock: AJUNOK_clean_linker_0, # of connection points: 2
#     Edge 132, Type (0, 1), BuildingBlock: AJUNOK_clean_linker_0, # of connection points: 2
#     Edge 133, Type (0, 1), BuildingBlock: AJUNOK_clean_linker_0, # of connection points: 2
#     Edge 134, Type (0, 1), BuildingBlock: AJUNOK_clean_linker_0, # of connection points: 2
#     Edge 135, Type (0, 1), BuildingBlock: AJUNOK_clean_linker_0, # of connection points: 2
# Relax obj value: 0.132
# Max RMSD: 0.228
# Mean RMSD: 0.157
data_MOF--net-gar--node1-AZAVOO_clean_sbu_0--node2-KUMBOL_clean_sbu_1--edge1-AJUNOK_clean_linker_0
_symmetry_space_group_name_H-M    P1
_symmetry_Int_Tables_number       1
_symmetry_cell_setting            triclinic
loop_
_symmetry_equiv_pos_as_xyz
'x, y, z'
_cell_length_a     46.910457
_cell_length_b     45.312418
_cell_length_c     42.209329
_cell_angle_alpha  99.824921
_cell_angle_beta   96.711495
_cell_angle_gamma 103.90228
loop_
_atom_site_label
_atom_site_type_symbol
_atom_site_fract_x
_atom_site_fract_y
_atom_site_fract_z
_atom_type_partial_charge
Mg0 Mg 0.05653 0.32565 0.34144 0.0
O1 O 0.06437 0.37375 0.38206 0.0
O2 O 0.02469 0.36508 0.40769 0.0
Mg3 Mg 0.98938 0.31943 0.39127 0.0
C4 C 0.04927 0.38255 0.404 0.0
C5 C 0.12612 0.32597 0.31255 0.0
O6 O 0.11138 0.32135 0.28295 0.0
O7 O 0.06279 0.29665 0.38226 0.0
O8 O 0.02323 0.29604 0.40721 0.0
O9 O 0.01313 0.3314 0.30357 0.0
O10 O 1.0064 0.31671 0.34646 0.0
C11 C 0.0475 0.28891 0.40426 0.0
C12 C 0.99407 0.32268 0.3214 0.0
O13 O 0.11161 0.32952 0.33692 0.0
Mg14 Mg 0.03417 0.76076 0.73556 0.0
O15 O 0.03851 0.72103 0.69184 0.0
O16 O 0.99354 0.70442 0.66117 0.0
Mg17 Mg 0.96299 0.73623 0.6762 0.0
C18 C 0.02011 0.70214 0.66773 0.0
C19 C 0.11031 0.77998 0.77264 0.0
O20 O 0.10167 0.78684 0.80084 0.0
O21 O 0.03627 0.7968 0.70193 0.0
O22 O 0.99466 0.77907 0.66467 0.0
O23 O 1.00586 0.7872 0.77082 0.0
O24 O 0.98335 0.7529 0.72887 0.0
C25 C 0.01955 0.79902 0.67663 0.0
C26 C 0.98041 0.77267 0.75324 0.0
O27 O 0.09027 0.77179 0.74661 0.0
Mg28 Mg 0.55785 0.82816 0.84161 0.0
O29 O 0.56558 0.87523 0.88444 0.0
O30 O 0.52621 0.86204 0.90911 0.0
Mg31 Mg 0.49112 0.81684 0.89301 0.0
C32 C 0.55015 0.88145 0.90702 0.0
C33 C 0.62578 0.82558 0.81293 0.0
O34 O 0.60999 0.81885 0.7836 0.0
O35 O 0.5615 0.79505 0.87811 0.0
O36 O 0.52457 0.79165 0.90771 0.0
O37 O 0.5132 0.83152 0.80418 0.0
O38 O 0.50764 0.81814 0.84771 0.0
C39 C 0.54832 0.78522 0.90069 0.0
C40 C 0.49466 0.82311 0.82245 0.0
O41 O 0.61247 0.83161 0.83775 0.0
Mg42 Mg 0.53555 0.26153 0.23608 0.0
O43 O 0.53825 0.22053 0.1929 0.0
O44 O 0.49336 0.20647 0.1622 0.0
Mg45 Mg 0.463 0.23829 0.17802 0.0
C46 C 0.51936 0.20254 0.16861 0.0
C47 C 0.61195 0.27937 0.27278 0.0
O48 O 0.60275 0.28552 0.30078 0.0
O49 O 0.53754 0.29707 0.20138 0.0
O50 O 0.49474 0.28107 0.16606 0.0
O51 O 0.50705 0.2893 0.27009 0.0
O52 O 0.48427 0.25269 0.23033 0.0
C53 C 0.52031 0.30016 0.17692 0.0
C54 C 0.48148 0.27335 0.25378 0.0
O55 O 0.59212 0.27204 0.24652 0.0
Mg56 Mg 0.09363 0.81734 0.11766 0.0
O57 O 0.08415 0.76309 0.10708 0.0
O58 O 0.05102 0.75495 0.06169 0.0
Mg59 Mg 0.02651 0.79523 0.06857 0.0
C60 C 0.06853 0.74515 0.0806 0.0
C61 C 0.15479 0.83073 0.17757 0.0
O62 O 0.13915 0.84507 0.1955 0.0
O63 O 0.08918 0.86697 0.10331 0.0
O64 O 0.05092 0.84525 0.06222 0.0
O65 O 0.07482 0.82189 0.16637 0.0
O66 O 0.04525 0.80917 0.12105 0.0
C67 C 0.07088 0.8694 0.07857 0.0
C68 C 0.04804 0.81446 0.15196 0.0
O69 O 0.14439 0.82073 0.14674 0.0
Mg70 Mg 0.50825 0.77558 0.46028 0.0
O71 O 0.5262 0.83041 0.48649 0.0
O72 O 0.48596 0.83038 0.50681 0.0
Mg73 Mg 0.48365 0.77723 0.50099 0.0
C74 C 0.50997 0.84604 0.50008 0.0
C75 C 0.55776 0.7733 0.41761 0.0
O76 O 0.53425 0.75752 0.39595 0.0
O77 O 0.52765 0.74455 0.49582 0.0
O78 O 0.48219 0.72384 0.49951 0.0
O79 O 0.48487 0.79377 0.42163 0.0
O80 O 0.45523 0.76927 0.45077 0.0
C81 C 0.50884 0.72155 0.50207 0.0
C82 C 0.4582 0.78239 0.42593 0.0
O83 O 0.55427 0.78422 0.44621 0.0
Mg84 Mg 0.59179 0.31584 0.61768 0.0
O85 O 0.58255 0.26156 0.60685 0.0
O86 O 0.55054 0.25358 0.56063 0.0
Mg87 Mg 0.52667 0.29422 0.56631 0.0
C88 C 0.56765 0.24377 0.57994 0.0
C89 C 0.65421 0.32941 0.67726 0.0
O90 O 0.64124 0.3469 0.69551 0.0
O91 O 0.58815 0.36624 0.60411 0.0
O92 O 0.55024 0.34517 0.56258 0.0
O93 O 0.57139 0.32024 0.66555 0.0
O94 O 0.54325 0.30713 0.6193 0.0
C95 C 0.57008 0.36914 0.57942 0.0
C96 C 0.5449 0.31245 0.65012 0.0
O97 O 0.64203 0.31816 0.64706 0.0
Mg98 Mg 1.00774 0.27579 0.957 0.0
O99 O 0.02437 0.33091 0.98215 0.0
O100 O 0.98823 0.33077 0.00991 0.0
Mg101 Mg 0.98391 0.27734 1.00099 0.0
C102 C 1.01025 0.3464 0.99967 0.0
C103 C 0.05648 0.26928 0.9142 0.0
O104 O 0.03289 0.24979 0.89536 0.0
O105 O 0.02643 0.24356 0.99112 0.0
O106 O 0.98174 0.22424 0.99876 0.0
O107 O 0.98401 0.29357 0.91925 0.0
O108 O 0.95514 0.27007 0.94997 0.0
C109 C 1.00799 0.2211 0.9988 0.0
C110 C 0.95759 0.28248 0.92446 0.0
O111 O 0.05366 0.2841 0.94154 0.0
Mg112 Mg 0.41415 0.04185 0.34731 0.0
O113 O 0.37608 1.00236 0.3175 0.0
O114 O 0.35594 0.98379 0.35803 0.0
Mg115 Mg 0.36512 0.02054 0.40251 0.0
C116 C 0.35971 0.98095 0.32834 0.0
C117 C 0.43463 0.05274 0.27447 0.0
O118 O 0.43917 0.07525 0.25826 0.0
O119 O 0.39002 0.07719 0.35519 0.0
O120 O 0.3489 0.04863 0.36761 0.0
O121 O 0.43127 1.00329 0.35325 0.0
O122 O 0.40986 0.02785 0.38973 0.0
C123 C 0.36225 0.07042 0.35493 0.0
C124 C 0.4262 0.00927 0.38292 0.0
O125 O 0.42654 0.05793 0.30197 0.0
Mg126 Mg 0.26978 0.18911 0.5123 0.0
O127 O 0.2757 0.21819 0.56622 0.0
O128 O 0.32275 0.24673 0.5793 0.0
Mg129 Mg 0.34746 0.23564 0.53582 0.0
C130 C 0.29689 0.23787 0.58674 0.0
C131 C 0.20803 0.14293 0.50676 0.0
O132 O 0.22509 0.12483 0.49828 0.0
O133 O 0.27152 0.22907 0.48187 0.0
O134 O 0.32049 0.25019 0.49478 0.0
O135 O 0.28499 0.15176 0.53201 0.0
O136 O 0.31563 0.18959 0.51692 0.0
C137 C 0.29559 0.24737 0.47703 0.0
C138 C 0.31163 0.16435 0.5277 0.0
O139 O 0.21882 0.1724 0.51228 0.0
Mg140 Mg 0.13547 0.06833 0.80767 0.0
O141 O 0.17011 0.11626 0.81144 0.0
O142 O 0.20271 0.124 0.85656 0.0
Mg143 Mg 0.18634 0.08622 0.88587 0.0
C144 C 0.19425 0.13206 0.83026 0.0
C145 C 0.0987 0.04973 0.73482 0.0
O146 O 0.08318 0.02816 0.74788 0.0
O147 O 0.17098 0.04222 0.79892 0.0
O148 O 0.19849 0.05044 0.84859 0.0
O149 O 0.10267 0.08462 0.8392 0.0
O150 O 0.13995 0.06873 0.85893 0.0
C151 C 0.19156 0.03721 0.81846 0.0
C152 C 0.1163 0.077 0.8637 0.0
O153 O 0.12165 0.06921 0.75258 0.0
Mg154 Mg 0.33249 0.9707 0.0151 0.0
O155 O 0.32821 0.93348 0.97413 0.0
O156 O 0.36524 0.91118 0.98236 0.0
Mg157 Mg 0.39183 0.93386 0.0319 0.0
C158 C 0.34216 0.91388 0.96524 0.0
C159 C 0.28735 0.99866 0.99641 0.0
O160 O 0.3105 0.02178 0.01097 0.0
O161 O 0.31178 0.93577 0.04331 0.0
O162 O 0.3497 0.91421 0.04959 0.0
O163 O 0.36095 1.00057 0.99036 0.0
O164 O 0.3755 0.97382 0.02638 0.0
C165 C 0.3232 0.91522 0.05242 0.0
C166 C 0.38105 0.98954 0.00412 0.0
O167 O 0.29031 0.97159 0.99172 0.0
Mg168 Mg 0.32468 0.40644 0.06455 0.0
O169 O 0.31623 0.37605 0.01145 0.0
O170 O 0.34888 0.34776 0.01116 0.0
Mg171 Mg 0.37928 0.36393 0.06245 0.0
C172 C 0.32781 0.35614 0.99632 0.0
C173 C 0.27275 0.43627 0.07143 0.0
O174 O 0.29215 0.45362 0.09667 0.0
O175 O 0.30853 0.36969 0.0947 0.0
O176 O 0.34705 0.34912 0.09914 0.0
O177 O 0.35206 0.44344 0.04551 0.0
O178 O 0.37104 0.41129 0.07005 0.0
C179 C 0.32278 0.35302 0.10794 0.0
C180 C 0.37512 0.43441 0.05526 0.0
O181 O 0.27911 0.41347 0.05454 0.0
Mg182 Mg 0.78229 0.11886 0.07114 0.0
O183 O 0.76831 0.14738 0.11211 0.0
O184 O 0.81034 0.1868 0.12226 0.0
Mg185 Mg 0.84996 0.17748 0.09947 0.0
C186 C 0.78348 0.17498 0.12585 0.0
C187 C 0.72176 0.07631 0.05479 0.0
O188 O 0.73418 0.06468 0.07746 0.0
O189 O 0.77968 0.15647 0.04547 0.0
O190 O 0.82635 0.18534 0.05278 0.0
O191 O 0.79537 0.08481 0.09756 0.0
O192 O 0.82162 0.13295 0.10235 0.0
C193 C 0.79949 0.17748 0.03846 0.0
C194 C 0.82108 0.1044 0.1002 0.0
O195 O 0.73766 0.09689 0.04317 0.0
Mg196 Mg 0.19237 0.55205 0.23832 0.0
O197 O 0.22294 0.60012 0.24528 0.0
O198 O 0.24547 0.61467 0.29767 0.0
Mg199 Mg 0.24693 0.56892 0.30919 0.0
C200 C 0.23821 0.62038 0.26976 0.0
C201 C 0.1536 0.55998 0.18661 0.0
O202 O 0.1376 0.55496 0.20956 0.0
O203 O 0.22353 0.52675 0.21731 0.0
O204 O 0.25283 0.56106 0.25628 0.0
O205 O 0.16527 0.57481 0.26754 0.0
O206 O 0.19813 0.55334 0.28992 0.0
C207 C 0.24657 0.53432 0.23842 0.0
C208 C 0.17849 0.56863 0.29308 0.0
O209 O 0.17969 0.55726 0.18927 0.0
Mg210 Mg 0.82426 0.90693 0.56748 0.0
O211 O 0.81635 0.87656 0.51356 0.0
O212 O 0.85058 0.85018 0.51356 0.0
Mg213 Mg 0.88095 0.86706 0.56526 0.0
C214 C 0.82873 0.85729 0.49849 0.0
C215 C 0.77504 0.93897 0.5721 0.0
O216 O 0.79786 0.95861 0.59207 0.0
O217 O 0.8089 0.86892 0.59737 0.0
O218 O 0.84867 0.85048 0.60156 0.0
O219 O 0.85199 0.94604 0.54987 0.0
O220 O 0.87108 0.91347 0.57338 0.0
C221 C 0.82407 0.85297 0.6107 0.0
C222 C 0.87513 0.93721 0.55961 0.0
O223 O 0.77797 0.9131 0.55793 0.0
Mg224 Mg 0.96436 0.02805 0.27854 0.0
O225 O 0.92889 0.98002 0.2735 0.0
O226 O 0.9086 0.98846 0.31832 0.0
Mg227 Mg 0.92778 0.03549 0.35151 0.0
C228 C 0.90995 0.971 0.29177 0.0
C229 C 0.99445 0.03496 0.2188 0.0
O230 O 0.01303 0.05472 0.24324 0.0
O231 O 0.92791 0.05116 0.26421 0.0
O232 O 0.9093 0.05562 0.31083 0.0
O233 O 0.99902 0.01423 0.31238 0.0
O234 O 0.96743 0.0392 0.32956 0.0
C235 C 0.90973 0.05967 0.28171 0.0
C236 C 0.98874 0.02736 0.33657 0.0
O237 O 0.97094 0.01737 0.22466 0.0
Mg238 Mg 0.28076 0.62701 0.5742 0.0
O239 O 0.27572 0.65204 0.61951 0.0
O240 O 0.31476 0.6927 0.6211 0.0
Mg241 Mg 0.35106 0.67845 0.59466 0.0
C242 C 0.28965 0.68042 0.62893 0.0
C243 C 0.22013 0.5848 0.55469 0.0
O244 O 0.23564 0.56425 0.5548 0.0
O245 O 0.2793 0.66984 0.5553 0.0
O246 O 0.32624 0.68551 0.54829 0.0
O247 O 0.29173 0.58771 0.59293 0.0
O248 O 0.32324 0.63308 0.59599 0.0
C249 C 0.2991 0.6857 0.54249 0.0
C250 C 0.31857 0.60365 0.59286 0.0
O251 O 0.23329 0.6132 0.56001 0.0
Mg252 Mg 0.4642 0.53127 0.78013 0.0
O253 O 0.43031 0.4824 0.77157 0.0
O254 O 0.40412 0.48432 0.8127 0.0
Mg255 Mg 0.42132 0.52972 0.84914 0.0
C256 C 0.40934 0.4703 0.78611 0.0
C257 C 0.49753 0.53306 0.71866 0.0
O258 O 0.52058 0.54424 0.74215 0.0
O259 O 0.42713 0.55377 0.76553 0.0
O260 O 0.40577 0.55269 0.81015 0.0
O261 O 0.49901 0.51853 0.81609 0.0
O262 O 0.46334 0.53784 0.83072 0.0
C263 C 0.4076 0.5598 0.78242 0.0
C264 C 0.48601 0.52865 0.83943 0.0
O265 O 0.47177 0.52378 0.72601 0.0
Mg266 Mg 0.69096 0.05548 0.73819 0.0
O267 O 0.72134 0.10264 0.74868 0.0
O268 O 0.74342 0.1102 0.79996 0.0
Mg269 Mg 0.73126 0.06859 0.82064 0.0
C270 C 0.739 0.11951 0.77364 0.0
C271 C 0.65488 0.05533 0.68348 0.0
O272 O 0.63907 0.04196 0.70332 0.0
O273 O 0.72737 0.03505 0.72781 0.0
O274 O 0.74882 0.04419 0.77978 0.0
O275 O 0.65817 0.07523 0.76021 0.0
O276 O 0.6895 0.0545 0.78666 0.0
C277 C 0.74721 0.03282 0.7496 0.0
C278 C 0.66805 0.06754 0.78656 0.0
O279 O 0.68284 0.06127 0.68843 0.0
Mg280 Mg 0.7723 0.68926 0.01292 0.0
O281 O 0.77676 0.71744 0.06682 0.0
O282 O 0.82194 0.75044 0.07985 0.0
Mg283 Mg 0.8481 0.74038 0.03783 0.0
C284 C 0.79657 0.73894 0.08714 0.0
C285 C 0.7109 0.64235 0.00674 0.0
O286 O 0.72865 0.62494 0.99855 0.0
O287 O 0.77243 0.72889 0.98226 0.0
O288 O 0.82079 0.75253 0.99594 0.0
O289 O 0.78956 0.65231 0.03209 0.0
O290 O 0.81893 0.69247 0.01931 0.0
C291 C 0.79592 0.74815 0.9776 0.0
C292 C 0.81613 0.66686 0.02931 0.0
O293 O 0.72106 0.67183 0.01157 0.0
Mg294 Mg 0.91376 0.53201 0.83431 0.0
O295 O 0.87972 0.49302 0.79718 0.0
O296 O 0.86702 0.49903 0.84466 0.0
Mg297 Mg 0.86493 0.51514 0.89808 0.0
C298 C 0.86361 0.48196 0.81664 0.0
C299 C 0.93251 0.55469 0.77003 0.0
O300 O 0.93661 0.57647 0.75289 0.0
O301 O 0.88334 0.5578 0.84306 0.0
O302 O 0.85301 0.55714 0.87888 0.0
O303 O 0.94123 0.502 0.84303 0.0
O304 O 0.90414 0.50751 0.87034 0.0
C305 C 0.86412 0.56815 0.85585 0.0
C306 C 0.93016 0.50259 0.86997 0.0
O307 O 0.92645 0.56094 0.79819 0.0
Mg308 Mg 0.8307 0.46771 0.51405 0.0
O309 O 0.82395 0.43161 0.46925 0.0
O310 O 0.86524 0.41573 0.4661 0.0
Mg311 Mg 0.88138 0.42115 0.51926 0.0
C312 C 0.84032 0.41838 0.45336 0.0
C313 C 0.78685 0.49859 0.4953 0.0
O314 O 0.81107 0.52135 0.50706 0.0
O315 O 0.80978 0.43527 0.54474 0.0
O316 O 0.83191 0.40336 0.52016 0.0
O317 O 0.86113 0.49797 0.4914 0.0
O318 O 0.874 0.46812 0.52497 0.0
C319 C 0.81896 0.41115 0.54371 0.0
C320 C 0.88088 0.48655 0.50534 0.0
O321 O 0.78838 0.47111 0.49346 0.0
Mg322 Mg 0.63604 0.56958 0.30889 0.0
O323 O 0.67002 0.61738 0.3124 0.0
O324 O 0.70414 0.62443 0.35613 0.0
Mg325 Mg 0.68725 0.58793 0.38706 0.0
C326 C 0.69496 0.63249 0.33006 0.0
C327 C 0.59727 0.55437 0.23789 0.0
O328 O 0.57798 0.53808 0.25273 0.0
O329 O 0.67166 0.54376 0.30102 0.0
O330 O 0.69769 0.54995 0.351 0.0
O331 O 0.60227 0.58395 0.34022 0.0
O332 O 0.64143 0.57095 0.35954 0.0
C333 C 0.69082 0.53692 0.32081 0.0
C334 C 0.6169 0.57692 0.36445 0.0
O335 O 0.62267 0.5697 0.2541 0.0
C336 C 0.9858 0.95399 0.9769 0.0
C337 C 0.95785 0.92484 0.01176 0.0
C338 C 0.97513 0.95308 0.0063 0.0
C339 C 0.95302 0.89736 0.98838 0.0
C340 C 0.98137 0.92625 0.95366 0.0
C341 C 0.96532 0.89795 0.95977 0.0
N342 N 1.00053 0.98189 0.97109 0.0
C343 C 1.0091 0.98372 0.94154 0.0
C344 C 0.99268 0.92782 0.92461 0.0
C345 C 1.00606 0.95673 0.91826 0.0
Gd346 Gd 0.08603 0.06589 0.05566 0.0
Gd347 Gd 1.00519 0.02513 0.01295 0.0
N348 N 0.98122 0.97978 0.02927 0.0
C349 C 0.94559 0.92508 0.04044 0.0
C350 C 0.96905 0.98005 0.05711 0.0
C351 C 0.95104 0.95288 0.06308 0.0
H352 H 0.97163 1.00145 0.0739 0.0
H353 H 0.94105 0.9535 0.08495 0.0
H354 H 0.12284 0.08612 0.99648 0.0
H355 H 0.01774 1.00584 0.93535 0.0
H356 H 0.1535 0.13355 0.98344 0.0
H357 H 0.93163 0.90402 0.04515 0.0
H358 H 0.93982 0.87549 0.99221 0.0
H359 H 0.07684 0.08603 0.13454 0.0
H360 H 0.98986 0.90701 0.90624 0.0
H361 H 0.01334 0.95829 0.89505 0.0
H362 H 0.16113 0.21298 0.07755 0.0
H363 H 0.96145 0.8765 0.94201 0.0
H364 H 0.11597 0.18314 0.16715 0.0
H365 H 0.08904 0.13265 0.17758 0.0
N366 N 0.09534 0.10917 0.09893 0.0
C367 C 0.11201 0.13634 0.0935 0.0
C368 C 0.08782 0.10762 0.12901 0.0
C369 C 0.11057 0.16252 0.14795 0.0
C370 C 0.09515 0.13416 0.15384 0.0
C371 C 0.11978 0.16379 0.11778 0.0
H372 H 0.143 0.21277 0.12987 0.0
N373 N 0.1149 0.10964 0.04116 0.0
C374 C 0.1222 0.13653 0.06389 0.0
C375 C 0.15121 0.163 0.02838 0.0
C376 C 0.14032 0.16406 0.05794 0.0
C377 C 0.12667 0.10808 0.0131 0.0
C378 C 0.14457 0.1348 0.006 0.0
O379 O 0.03462 0.99096 0.02127 0.0
O380 O 0.06946 0.01706 0.06592 0.0
O381 O 0.12226 0.04825 0.04187 0.0
O382 O 0.12364 0.07085 0.09306 0.0
O383 O 1.01011 0.04675 0.0669 0.0
O384 O 0.05638 0.04497 0.08837 0.0
O385 O 0.06276 0.10232 0.04027 0.0
O386 O 0.01408 0.07772 0.0155 0.0
O387 O 0.96232 0.0275 0.02416 0.0
O388 O 0.96865 0.01963 0.97353 0.0
O389 O 0.07839 0.04274 1.0019 0.0
O390 O 0.03424 0.04976 0.98047 0.0
C391 C 0.05459 0.9906 0.04617 0.0
C392 C 0.0289 0.04441 0.09137 0.0
C393 C 0.1645 0.05005 0.08097 0.0
C394 C 0.20223 0.02737 0.06293 0.0
C395 C 0.20083 0.03999 0.12058 0.0
C396 C 0.17595 0.05106 0.11354 0.0
C397 C 0.21389 0.02779 0.09518 0.0
C398 C 0.1781 0.0388 0.05591 0.0
C399 C 0.13604 0.05586 0.07207 0.0
C400 C 0.14735 0.19157 0.08175 0.0
C401 C 0.13699 0.19146 0.11152 0.0
H402 H 0.16517 0.18365 0.02289 0.0
C403 C 0.03622 0.10324 0.02624 0.0
C404 C 0.06194 0.04959 0.97832 0.0
C405 C 0.92791 0.03994 0.98671 0.0
C406 C 0.88876 0.06139 0.00604 0.0
C407 C 0.88751 0.04394 0.94787 0.0
C408 C 0.91394 0.03564 0.95444 0.0
C409 C 0.87447 0.05574 0.97341 0.0
C410 C 0.91615 0.05449 0.01226 0.0
C411 C 0.95026 0.02325 0.99384 0.0
H412 H 0.20969 0.04048 0.14557 0.0
H413 H 0.16518 0.05933 0.13327 0.0
H414 H 0.23318 0.01919 0.10055 0.0
H415 H 0.16948 0.03796 0.03063 0.0
H416 H 0.87636 0.03983 0.92296 0.0
H417 H 0.92259 0.02437 0.93442 0.0
H418 H 0.85289 0.0599 0.96744 0.0
H419 H 0.92787 0.05935 0.03699 0.0
C420 C 0.34143 0.73129 0.21228 0.0
C421 C 0.29806 0.70423 0.1718 0.0
C422 C 0.31321 0.72964 0.19748 0.0
C423 C 0.31139 0.6802 0.16239 0.0
C424 C 0.35559 0.70796 0.20183 0.0
C425 C 0.3402 0.68214 0.17728 0.0
N426 N 0.35587 0.75678 0.23544 0.0
C427 C 0.38511 0.76118 0.24772 0.0
C428 C 0.38516 0.7118 0.2156 0.0
C429 C 0.40014 0.73881 0.23835 0.0
Gd430 Gd 0.28645 0.80666 0.33473 0.0
Gd431 Gd 0.32925 0.79295 0.25326 0.0
N432 N 0.30164 0.75403 0.2064 0.0
C433 C 0.2706 0.70442 0.15524 0.0
C434 C 0.27656 0.75568 0.18727 0.0
C435 C 0.26014 0.7306 0.16255 0.0
H436 H 0.26934 0.77656 0.18944 0.0
H437 H 0.23988 0.73196 0.1484 0.0
H438 H 0.35747 0.84215 0.37924 0.0
H439 H 0.39716 0.78274 0.26355 0.0
H440 H 0.37944 0.87969 0.42954 0.0
H441 H 0.25823 0.68536 0.13554 0.0
H442 H 0.30005 0.66058 0.14282 0.0
H443 H 0.21843 0.81648 0.31567 0.0
H444 H 0.39688 0.69457 0.20809 0.0
H445 H 0.42337 0.74267 0.24833 0.0
H446 H 0.3013 0.92461 0.45832 0.0
H447 H 0.35067 0.66398 0.16906 0.0
H448 H 0.20741 0.88988 0.38715 0.0
H449 H 0.18782 0.84988 0.33656 0.0
N450 N 0.25627 0.83866 0.3526 0.0
C451 C 0.2675 0.86061 0.38023 0.0
C452 C 0.22794 0.83469 0.33696 0.0
C453 C 0.22125 0.87557 0.37776 0.0
C454 C 0.21018 0.85319 0.34911 0.0
C455 C 0.25018 0.87951 0.39375 0.0
H456 H 0.24953 0.91706 0.43281 0.0
N457 N 0.31355 0.84839 0.37858 0.0
C458 C 0.29693 0.86543 0.39384 0.0
C459 C 0.33925 0.89324 0.43559 0.0
C460 C 0.30945 0.88861 0.42234 0.0
C461 C 0.34315 0.85402 0.39097 0.0
C462 C 0.35617 0.87595 0.41974 0.0
O463 O 0.31019 0.7587 0.28202 0.0
O464 O 0.2669 0.7671 0.29373 0.0
O465 O 0.28773 0.76818 0.35931 0.0
O466 O 0.24932 0.78858 0.35758 0.0
O467 O 0.2822 0.80106 0.24202 0.0
O468 O 0.25709 0.80706 0.28676 0.0
O469 O 0.30247 0.83755 0.30236 0.0
O470 O 0.34765 0.83542 0.29346 0.0
O471 O 0.33102 0.83377 0.23273 0.0
O472 O 0.36757 0.81163 0.23226 0.0
O473 O 0.33203 0.79626 0.34502 0.0
O474 O 0.35854 0.79235 0.30116 0.0
C475 C 0.28151 0.749 0.28001 0.0
C476 C 0.25851 0.80532 0.25504 0.0
C477 C 0.24615 0.74645 0.38528 0.0
C478 C 0.2468 0.72095 0.43095 0.0
C479 C 0.19996 0.716 0.39672 0.0
C480 C 0.215 0.73571 0.37859 0.0
C481 C 0.21578 0.7085 0.42281 0.0
C482 C 0.26208 0.73892 0.41134 0.0
C483 C 0.26167 0.76832 0.36755 0.0
C484 C 0.292 0.90673 0.43653 0.0
C485 C 0.26251 0.90237 0.4221 0.0
H486 H 0.34955 0.91048 0.45764 0.0
C487 C 0.33008 0.8517 0.30432 0.0
C488 C 0.35609 0.79268 0.33248 0.0
C489 C 0.36419 0.84396 0.19494 0.0
C490 C 0.35079 0.86263 0.14675 0.0
C491 C 0.40199 0.86239 0.16305 0.0
C492 C 0.39386 0.84987 0.18962 0.0
C493 C 0.38053 0.86891 0.14167 0.0
C494 C 0.34257 0.85033 0.17337 0.0
C495 C 0.35733 0.83428 0.22491 0.0
H496 H 0.17598 0.70715 0.39108 0.0
H497 H 0.20233 0.74268 0.35943 0.0
H498 H 0.20377 0.69365 0.43715 0.0
H499 H 0.28603 0.74864 0.4176 0.0
H500 H 0.42494 0.86731 0.15925 0.0
H501 H 0.41087 0.84545 0.20645 0.0
H502 H 0.38707 0.87889 0.12119 0.0
H503 H 0.31962 0.84609 0.17728 0.0
C504 C 0.61867 0.10808 0.48155 0.0
C505 C 0.65476 0.14682 0.52355 0.0
C506 C 0.63289 0.11806 0.51387 0.0
C507 C 0.66065 0.16619 0.50113 0.0
C508 C 0.62598 0.12682 0.45857 0.0
C509 C 0.64611 0.15633 0.46879 0.0
N510 N 0.60033 0.07883 0.47184 0.0
C511 C 0.59353 0.06527 0.43942 0.0
C512 C 0.61449 0.1145 0.42557 0.0
C513 C 0.59902 0.08321 0.41584 0.0
Gd514 Gd 0.50399 0.04174 0.55844 0.0
Gd515 Gd 0.58889 0.05266 0.51432 0.0
N516 N 0.62699 0.09876 0.5352 0.0
C517 C 0.67098 0.15479 0.55516 0.0
C518 C 0.64375 0.10593 0.56548 0.0
C519 C 0.66575 0.13403 0.57602 0.0
H520 H 0.64102 0.08982 0.58128 0.0
H521 H 0.67892 0.13949 0.60012 0.0
H522 H 0.46021 0.99483 0.4906 0.0
H523 H 0.58313 0.04064 0.4317 0.0
H524 H 0.41783 0.94869 0.47597 0.0
H525 H 0.68824 0.17644 0.56333 0.0
H526 H 0.67719 0.18843 0.50828 0.0
H527 H 0.5281 0.05048 0.6413 0.0
H528 H 0.6193 0.12824 0.40725 0.0
H529 H 0.59187 0.07275 0.39021 0.0
H530 H 0.41303 0.91154 0.57508 0.0
H531 H 0.65176 0.17105 0.45149 0.0
H532 H 0.48225 0.96899 0.67007 0.0
H533 H 0.51962 0.0198 0.68295 0.0
N534 N 0.49889 0.01563 0.6024 0.0
C535 C 0.47692 0.98838 0.59531 0.0
C536 C 0.51314 0.02749 0.63395 0.0
C537 C 0.48659 0.98189 0.65097 0.0
C538 C 0.50781 0.01047 0.65829 0.0
C539 C 0.47035 0.97083 0.61948 0.0
H540 H 0.44214 0.92951 0.63019 0.0
N541 N 0.467 0.99468 0.54067 0.0
C542 C 0.46024 0.97805 0.56399 0.0
C543 C 0.42112 0.94009 0.52467 0.0
C544 C 0.43708 0.95016 0.55643 0.0
C545 C 0.45261 0.98387 0.50937 0.0
C546 C 0.42918 0.95688 0.50093 0.0
O547 O 0.57908 0.09839 0.53789 0.0
O548 O 0.53158 0.09048 0.55475 0.0
O549 O 0.46417 0.05717 0.54267 0.0
O550 O 0.48695 0.06904 0.59356 0.0
O551 O 0.56554 0.04032 0.55445 0.0
O552 O 0.54514 0.05939 0.59444 0.0
O553 O 0.5135 0.99544 0.53579 0.0
O554 O 0.55932 1.00275 0.51516 0.0
O555 O 0.62987 0.03933 0.52977 0.0
O556 O 0.60261 0.02086 0.48064 0.0
O557 O 0.52557 0.04774 0.51489 0.0
O558 O 0.55195 0.04963 0.47578 0.0
C559 C 0.55687 0.10848 0.54914 0.0
C560 C 0.56913 0.05695 0.58341 0.0
C561 C 0.44612 0.091 0.58385 0.0
C562 C 0.40778 0.1177 0.57434 0.0
C563 C 0.43328 0.1233 0.62927 0.0
C564 C 0.44997 0.10367 0.61746 0.0
C565 C 0.41239 0.1304 0.60786 0.0
C566 C 0.42487 0.09814 0.56211 0.0
C567 C 0.46605 0.07239 0.5724 0.0
C568 C 0.43073 0.93293 0.58051 0.0
C569 C 0.44739 0.94313 0.61186 0.0
H570 H 0.40311 0.91895 0.51802 0.0
C571 C 0.53436 0.98472 0.52208 0.0
C572 C 0.52613 0.04823 0.48412 0.0
C573 C 0.64631 1.0036 0.48921 0.0
C574 C 0.6847 0.97743 0.49929 0.0
C575 C 0.66323 0.97585 0.44375 0.0
C576 C 0.64496 0.99379 0.45543 0.0
C577 C 0.68311 0.96772 0.46557 0.0
C578 C 0.66619 0.99528 0.51118 0.0
C579 C 0.6261 0.02148 0.5008 0.0
H580 H 0.43645 0.13294 0.65511 0.0
H581 H 0.46617 0.09871 0.63483 0.0
H582 H 0.3993 0.14546 0.61756 0.0
H583 H 0.42151 0.0885 0.53619 0.0
H584 H 0.66206 0.96836 0.41776 0.0
H585 H 0.62976 0.99997 0.43796 0.0
H586 H 0.69741 0.95396 0.45619 0.0
H587 H 0.66746 1.00279 0.53724 0.0
C588 C 0.2343 0.3278 0.72317 0.0
C589 C 0.19941 0.28039 0.69191 0.0
C590 C 0.22171 0.29615 0.71898 0.0
C591 C 0.19135 0.29655 0.6682 0.0
C592 C 0.22583 0.34427 0.69975 0.0
C593 C 0.20477 0.32836 0.67195 0.0
N594 N 0.25376 0.34274 0.75088 0.0
C595 C 0.26403 0.37434 0.7576 0.0
C596 C 0.23811 0.37643 0.70547 0.0
C597 C 0.25699 0.39159 0.73476 0.0
Gd598 Gd 0.33851 0.27877 0.79471 0.0
Gd599 Gd 0.26646 0.31166 0.78671 0.0
N600 N 0.23029 0.28109 0.74218 0.0
C601 C 0.1852 0.2491 0.69001 0.0
C602 C 0.21553 0.25101 0.74112 0.0
C603 C 0.19302 0.23449 0.71497 0.0
H604 H 0.22021 0.23998 0.76092 0.0
H605 H 0.18141 0.21061 0.71434 0.0
H606 H 0.37088 0.35409 0.83385 0.0
H607 H 0.27764 0.38634 0.78081 0.0
H608 H 0.41169 0.3821 0.87881 0.0
H609 H 0.16761 0.23631 0.66991 0.0
H610 H 0.1744 0.28478 0.64717 0.0
H611 H 0.31818 0.20494 0.8045 0.0
H612 H 0.2324 0.38988 0.68797 0.0
H613 H 0.26586 0.41659 0.73995 0.0
H614 H 0.43163 0.30246 0.93249 0.0
H615 H 0.19805 0.34061 0.6537 0.0
H616 H 0.37002 0.1987 0.89229 0.0
H617 H 0.33075 0.1741 0.84424 0.0
N618 N 0.34858 0.24715 0.83088 0.0
C619 C 0.36987 0.26126 0.85746 0.0
C620 C 0.33465 0.21623 0.8259 0.0
C621 C 0.36422 0.21253 0.87525 0.0
C622 C 0.34199 0.19857 0.84818 0.0
C623 C 0.37863 0.24418 0.88007 0.0
H624 H 0.40841 0.24636 0.92427 0.0
N625 N 0.3713 0.30933 0.84215 0.0
C626 C 0.3822 0.29312 0.86274 0.0
C627 C 0.41592 0.34062 0.89508 0.0
C628 C 0.40456 0.30838 0.88997 0.0
C629 C 0.38097 0.34098 0.84841 0.0
C630 C 0.40376 0.35703 0.87445 0.0
O631 O 0.28215 0.29673 0.73841 0.0
O632 O 0.30426 0.25857 0.74851 0.0
O633 O 0.37519 0.29413 0.76786 0.0
O634 O 0.36466 0.24751 0.77847 0.0
O635 O 0.2645 0.26762 0.80679 0.0
O636 O 0.29453 0.24104 0.7815 0.0
O637 O 0.32091 0.29276 0.84213 0.0
O638 O 0.30191 0.33292 0.83202 0.0
O639 O 0.22899 0.29738 0.81316 0.0
O640 O 0.24482 0.34527 0.80709 0.0
O641 O 0.34439 0.3236 0.77653 0.0
O642 O 0.3093 0.34954 0.79121 0.0
C643 C 0.29383 0.27383 0.72797 0.0
C644 C 0.27085 0.24142 0.79549 0.0
C645 C 0.40533 0.2592 0.74748 0.0
C646 C 0.4463 0.27023 0.71585 0.0
C647 C 0.42737 0.21831 0.72551 0.0
C648 C 0.40698 0.22824 0.74316 0.0
C649 C 0.44674 0.239 0.71192 0.0
C650 C 0.42538 0.28054 0.73376 0.0
C651 C 0.38128 0.2673 0.76464 0.0
C652 C 0.41438 0.29115 0.91159 0.0
C653 C 0.40118 0.25921 0.90689 0.0
H654 H 0.43338 0.35314 0.91542 0.0
C655 C 0.31123 0.31713 0.85265 0.0
C656 C 0.33435 0.34846 0.7801 0.0
C657 C 0.20451 0.33629 0.83774 0.0
C658 C 0.16182 0.32739 0.86648 0.0
C659 C 0.18908 0.37999 0.86538 0.0
C660 C 0.20777 0.36845 0.84639 0.0
C661 C 0.16649 0.35973 0.87559 0.0
C662 C 0.18131 0.31555 0.84789 0.0
C663 C 0.22621 0.32567 0.81898 0.0
H664 H 0.42811 0.1943 0.72224 0.0
H665 H 0.39207 0.21129 0.75305 0.0
H666 H 0.46244 0.23058 0.69833 0.0
H667 H 0.42464 0.30456 0.73677 0.0
H668 H 0.19202 0.40481 0.8721 0.0
H669 H 0.22514 0.38494 0.83885 0.0
H670 H 0.1521 0.36939 0.89019 0.0
H671 H 0.17803 0.29067 0.84079 0.0
C672 C 0.01601 0.11933 0.60947 0.0
C673 C 0.06196 0.1565 0.63804 0.0
C674 C 0.04639 0.13213 0.61162 0.0
C675 C 0.04692 0.16674 0.66286 0.0
C676 C 1.00083 0.12972 0.63433 0.0
C677 C 0.0165 0.15319 0.66115 0.0
N678 N 1.00113 0.0974 0.5827 0.0
C679 C 0.97097 0.08562 0.57894 0.0
C680 C 0.97016 0.11666 0.63121 0.0
C681 C 0.95517 0.09465 0.6033 0.0
Gd682 Gd 0.05742 1.00325 0.53207 0.0
Gd683 Gd 0.02993 0.08368 0.54333 0.0
N684 N 0.06046 0.12159 0.58733 0.0
C685 C 0.09204 0.17043 0.63833 0.0
C686 C 0.08949 0.1359 0.58699 0.0
C687 C 0.10578 0.16027 0.61254 0.0
H688 H 0.09986 0.12947 0.56649 0.0
H689 H 0.1288 0.17155 0.61205 0.0
H690 H 0.99738 0.9431 0.51521 0.0
H691 H 0.95875 0.0696 0.55693 0.0
H692 H 0.9737 0.89679 0.4715 0.0
H693 H 0.10466 0.18947 0.65794 0.0
H694 H 0.05855 0.18534 0.68333 0.0
H695 H 0.12825 0.02786 0.51862 0.0
H696 H 0.95777 0.12388 0.64985 0.0
H697 H 0.93133 0.08495 0.6003 0.0
H698 H 0.04105 0.90119 0.39435 0.0
H699 H 1.00516 0.16145 0.68039 0.0
H700 H 0.13503 0.97741 0.42589 0.0
H701 H 0.15763 0.01796 0.47546 0.0
N702 N 0.08823 0.99516 0.49285 0.0
C703 C 0.07585 0.97176 0.46643 0.0
C704 C 0.1175 0.01108 0.49662 0.0
C705 C 0.12167 0.98219 0.44443 0.0
C706 C 0.13449 1.00514 0.47236 0.0
C707 C 0.09218 0.96476 0.44143 0.0
H708 H 0.09115 0.93444 0.39536 0.0
N709 N 0.03265 0.96015 0.4904 0.0
C710 C 0.04741 0.95337 0.46547 0.0
C711 C 1.00767 0.90699 0.44193 0.0
C712 C 0.035 0.92697 0.44014 0.0
C713 C 1.00716 0.93958 0.49345 0.0
C714 C 0.99402 0.91299 0.46907 0.0
O715 O 0.04139 0.06559 0.58909 0.0
O716 O 0.07764 0.04109 0.57699 0.0
O717 O 0.04528 0.97162 0.56574 0.0
O718 O 0.08594 0.97477 0.54402 0.0
O719 O 0.06968 0.07919 0.5189 0.0
O720 O 0.09332 0.04918 0.54509 0.0
O721 O 0.0402 0.016 0.4848 0.0
O722 O 1.00999 0.0493 0.49579 0.0
O723 O 0.04599 0.12391 0.5209 0.0
O724 O 0.99894 0.10727 0.5253 0.0
O725 O 1.01066 0.99886 0.54306 0.0
O726 O 0.99134 0.04084 0.53593 0.0
C727 C 0.06301 0.05331 0.598 0.0
C728 C 0.09413 0.07316 0.53107 0.0
C729 C 0.07751 0.93816 0.57971 0.0
C730 C 0.06751 0.89633 0.61016 0.0
C731 C 0.11635 0.91383 0.59556 0.0
C732 C 0.10679 0.93542 0.58031 0.0
C733 C 0.09693 0.89447 0.6104 0.0
C734 C 0.0576 0.91832 0.59475 0.0
C735 C 0.06886 0.96151 0.56266 0.0
C736 C 0.05054 0.92093 0.41437 0.0
C737 C 0.07904 0.93988 0.41494 0.0
H738 H 0.99743 0.88643 0.42306 0.0
C739 C 0.02124 0.03144 0.47551 0.0
C740 C 0.98882 0.01244 0.54101 0.0
C741 C 1.01054 0.15024 0.49796 0.0
C742 C 0.02211 0.19263 0.46874 0.0
C743 C 0.97067 0.1668 0.47009 0.0
C744 C 0.98006 0.14784 0.48935 0.0
C745 C 0.99146 0.18876 0.45953 0.0
C746 C 0.0318 0.1731 0.48782 0.0
C747 C 0.01897 0.12675 0.51472 0.0
H748 H 0.13899 0.9121 0.59589 0.0
H749 H 0.12257 0.95013 0.56903 0.0
H750 H 0.10489 0.87782 0.62215 0.0
H751 H 0.03485 0.91984 0.59436 0.0
H752 H 0.94713 0.16446 0.4633 0.0
H753 H 0.96324 0.13067 0.4968 0.0
H754 H 0.98362 0.20354 0.44484 0.0
H755 H 0.05541 0.17574 0.49471 0.0
C756 C 0.24782 0.72784 0.85409 0.0
C757 C 0.21378 0.68383 0.81542 0.0
C758 C 0.23907 0.70965 0.82252 0.0
C759 C 0.19772 0.67621 0.84024 0.0
C760 C 0.23133 0.72033 0.87888 0.0
C761 C 0.20646 0.69436 0.87184 0.0
N762 N 0.27205 0.75294 0.86047 0.0
C763 C 0.28131 0.77093 0.89108 0.0
C764 C 0.24025 0.73921 0.9101 0.0
C765 C 0.26533 0.76458 0.91621 0.0
Gd766 Gd 0.30353 0.83425 0.77509 0.0
Gd767 Gd 0.29838 0.75765 0.81705 0.0
N768 N 0.25472 0.71759 0.79863 0.0
C769 C 0.20525 0.66644 0.78347 0.0
C770 C 0.24651 0.70064 0.76761 0.0
C771 C 0.2217 0.67492 0.75947 0.0
H772 H 0.25914 0.70652 0.74923 0.0
H773 H 0.21544 0.66152 0.73472 0.0
H774 H 0.33621 0.88914 0.84107 0.0
H775 H 0.30147 0.78963 0.89655 0.0
H776 H 0.3828 0.9313 0.85963 0.0
H777 H 0.18601 0.64645 0.77709 0.0
H778 H 0.17829 0.65645 0.83518 0.0
H779 H 0.30115 0.8073 0.69469 0.0
H780 H 0.22808 0.73425 0.92971 0.0
H781 H 0.27266 0.77895 0.94044 0.0
H782 H 0.4303 0.93106 0.76495 0.0
H783 H 0.1936 0.68829 0.89062 0.0
H784 H 0.37997 0.85824 0.6669 0.0
H785 H 0.3322 0.8175 0.65274 0.0
N786 N 0.33204 0.8398 0.73321 0.0
C787 C 0.3578 0.86312 0.74132 0.0
C788 C 0.32257 0.82392 0.70174 0.0
C789 C 0.36678 0.85327 0.68573 0.0
C790 C 0.33989 0.83015 0.67766 0.0
C791 C 0.37593 0.8703 0.71777 0.0
H792 H 0.41632 0.90047 0.70883 0.0
N793 N 0.34742 0.87388 0.79518 0.0
C794 C 0.36564 0.88072 0.77306 0.0
C795 C 0.39842 0.9232 0.81373 0.0
C796 C 0.39182 0.90544 0.78191 0.0
C797 C 0.35263 0.89243 0.82536 0.0
C798 C 0.37854 0.91688 0.83543 0.0
O799 O 0.25328 0.7702 0.80501 0.0
O800 O 0.25648 0.8012 0.76597 0.0
O801 O 0.2871 0.87503 0.79122 0.0
O802 O 0.28565 0.85597 0.73931 0.0
O803 O 0.31178 0.76326 0.76938 0.0
O804 O 0.28502 0.78851 0.74152 0.0
O805 O 0.34949 0.8256 0.79168 0.0
O806 O 0.34715 0.78317 0.81684 0.0
O807 O 0.31062 0.71483 0.80469 0.0
O808 O 0.32185 0.74143 0.85547 0.0
O809 O 0.28826 0.83096 0.82268 0.0
O810 O 0.31752 0.80428 0.84609 0.0
C811 C 0.24073 0.78417 0.78384 0.0
C812 C 0.29351 0.76358 0.74406 0.0
C813 C 0.26606 0.90028 0.75051 0.0
C814 C 0.24134 0.94145 0.76128 0.0
C815 C 0.24572 0.92045 0.70579 0.0
C816 C 0.26055 0.9002 0.71701 0.0
C817 C 0.23612 0.94091 0.72773 0.0
C818 C 0.25667 0.92129 0.77287 0.0
C819 C 0.2797 0.87679 0.76092 0.0
C820 C 0.41015 0.91212 0.75862 0.0
C821 C 0.40219 0.89467 0.72665 0.0
H822 H 0.41828 0.94241 0.82145 0.0
C823 C 0.36239 0.80704 0.806 0.0
C824 C 0.30365 0.82585 0.8478 0.0
C825 C 0.33882 0.69457 0.84331 0.0
C826 C 0.36186 0.65324 0.82675 0.0
C827 C 0.36613 0.67546 0.88415 0.0
C828 C 0.34942 0.6956 0.87612 0.0
C829 C 0.3724 0.65436 0.85956 0.0
C830 C 0.34508 0.67322 0.8187 0.0
C831 C 0.32411 0.71775 0.83437 0.0
H832 H 0.24137 0.92006 0.67995 0.0
H833 H 0.26735 0.88417 0.69924 0.0
H834 H 0.22434 0.95632 0.71846 0.0
H835 H 0.2603 0.9213 0.79872 0.0
H836 H 0.37432 0.67629 0.90943 0.0
H837 H 0.34519 0.7122 0.89548 0.0
H838 H 0.38522 0.63869 0.86607 0.0
H839 H 0.3372 0.67221 0.79336 0.0
C840 C 0.60693 1.00423 0.11823 0.0
C841 C 0.63001 0.04466 0.16569 0.0
C842 C 0.60806 0.03243 0.13752 0.0
C843 C 0.65169 0.02901 0.17283 0.0
C844 C 0.62827 0.98799 0.12564 0.0
C845 C 0.65098 1.00084 0.15266 0.0
N846 N 0.58404 0.99188 0.09313 0.0
C847 C 0.58049 0.96272 0.07559 0.0
C848 C 0.62559 0.95884 0.10626 0.0
C849 C 0.6013 0.94598 0.08131 0.0
Gd850 Gd 0.54888 0.07008 0.00415 0.0
Gd851 Gd 0.55118 0.02238 0.08199 0.0
N852 N 0.58688 0.04713 0.12965 0.0
C853 C 0.62926 0.07204 0.18618 0.0
C854 C 0.58584 0.07357 0.15012 0.0
C855 C 0.60704 0.08647 0.1784 0.0
H856 H 0.56844 0.08474 0.14554 0.0
H857 H 0.60605 0.10746 0.19436 0.0
H858 H 0.52339 0.99877 0.95022 0.0
H859 H 0.56113 0.95197 0.05797 0.0
H860 H 0.48314 0.97263 0.90551 0.0
H861 H 0.64558 0.08207 0.20813 0.0
H862 H 0.66886 0.03828 0.19415 0.0
H863 H 0.5377 0.13957 0.02807 0.0
H864 H 0.64152 0.94569 0.11107 0.0
H865 H 0.59824 0.92294 0.06686 0.0
H866 H 0.4263 0.0461 0.89616 0.0
H867 H 0.66756 0.98877 0.15867 0.0
H868 H 0.45961 0.14538 0.96877 0.0
H869 H 0.50213 0.16924 0.01362 0.0
N870 N 0.51525 0.09907 0.99221 0.0
C871 C 0.49186 0.08536 0.96776 0.0
C872 C 0.51894 0.12871 0.0088 0.0
C873 C 0.475 0.13212 0.97521 0.0
C874 C 0.49894 0.14566 1.00056 0.0
C875 C 0.47119 0.10165 0.95844 0.0
H876 H 0.43152 0.09943 0.92514 0.0
N877 N 0.5087 0.03977 0.96208 0.0
C878 C 0.48855 0.05495 0.95212 0.0
C879 C 0.46283 0.01052 0.90921 0.0
C880 C 0.46493 0.04058 0.92578 0.0
C881 C 0.50696 0.01065 0.945 0.0
C882 C 0.48407 0.99562 0.91875 0.0
O883 O 0.59476 0.04087 0.06741 0.0
O884 O 0.58265 0.08031 0.04814 0.0
O885 O 0.57632 0.06693 0.96733 0.0
O886 O 0.5694 0.11218 0.98821 0.0
O887 O 0.54071 0.07007 0.09311 0.0
O888 O 0.55599 0.1014 0.05567 0.0
O889 O 0.50828 0.06047 0.02392 0.0
O890 O 0.52133 0.02021 0.03679 0.0
O891 O 0.51764 0.0222 0.11352 0.0
O892 O 0.52478 0.9789 0.08953 0.0
O893 O 0.56174 0.0232 0.99361 0.0
O894 O 0.54743 0.99218 0.03123 0.0
C895 C 0.60095 0.06359 0.05198 0.0
C896 C 0.54581 0.09707 0.08338 0.0
C897 C 0.59944 0.11039 0.94571 0.0
C898 C 0.62276 0.10401 0.89852 0.0
C899 C 0.6229 0.15554 0.92552 0.0
C900 C 0.60705 0.14267 0.94801 0.0
C901 C 0.63073 0.13621 0.90069 0.0
C902 C 0.6075 0.09101 0.92099 0.0
C903 C 0.58115 0.09644 0.96723 0.0
C904 C 0.44448 0.05681 0.91629 0.0
C905 C 0.4475 0.08721 0.9327 0.0
H906 H 0.44528 0.99888 0.88868 0.0
C907 C 0.50211 0.03645 0.03674 0.0
C908 C 0.55646 0.99598 1.00301 0.0
C909 C 0.50129 0.97731 0.13642 0.0
C910 C 0.47725 0.97692 0.18448 0.0
C911 C 0.48605 0.92963 0.1565 0.0
C912 C 0.49919 0.94549 0.13412 0.0
C913 C 0.47489 0.94521 0.18144 0.0
C914 C 0.49039 0.99311 0.16202 0.0
C915 C 0.50988 0.99198 0.10913 0.0
H916 H 0.62874 0.18038 0.92705 0.0
H917 H 0.60048 0.15784 0.96684 0.0
H918 H 0.64263 0.14621 0.88288 0.0
H919 H 0.6012 0.06593 0.91846 0.0
H920 H 0.48396 0.90503 0.1541 0.0
H921 H 0.50671 0.93248 0.1143 0.0
H922 H 0.46418 0.9325 0.19829 0.0
H923 H 0.49103 0.01745 0.1638 0.0
C924 C 0.38405 0.38468 0.35744 0.0
C925 C 0.41364 0.40878 0.32055 0.0
C926 C 0.38848 0.38703 0.3259 0.0
C927 C 0.43327 0.42929 0.34726 0.0
C928 C 0.40424 0.4047 0.38432 0.0
C929 C 0.42829 0.42754 0.37902 0.0
N930 N 0.35957 0.36346 0.36181 0.0
C931 C 0.35502 0.36009 0.39258 0.0
C932 C 0.39924 0.40173 0.41577 0.0
C933 C 0.37491 0.37889 0.4199 0.0
Gd934 Gd 0.28997 0.2582 0.27285 0.0
Gd935 Gd 0.32282 0.34347 0.31467 0.0
N936 N 0.36837 0.36784 0.30048 0.0
C937 C 0.41811 0.40952 0.28848 0.0
C938 C 0.37348 0.36744 0.26927 0.0
C939 C 0.39823 0.38834 0.26277 0.0
H940 H 0.3587 0.35106 0.24925 0.0
H941 H 0.40178 0.38827 0.23788 0.0
H942 H 0.27057 0.22679 0.33573 0.0
H943 H 0.33487 0.34478 0.39638 0.0
H944 H 0.22675 0.19378 0.35093 0.0
H945 H 0.43706 0.42596 0.28334 0.0
H946 H 0.45229 0.44665 0.34363 0.0
H947 H 0.27597 0.24443 0.19124 0.0
H948 H 0.4138 0.41717 0.43699 0.0
H949 H 0.37075 0.37663 0.44417 0.0
H950 H 0.15494 0.16286 0.25297 0.0
H951 H 0.44306 0.44408 0.39934 0.0
H952 H 0.18601 0.19375 0.1573 0.0
H953 H 0.23419 0.22244 0.14596 0.0
N954 N 0.25034 0.23719 0.22828 0.0
C955 C 0.22478 0.21944 0.23472 0.0
C956 C 0.25404 0.23706 0.19665 0.0
C957 C 0.20365 0.20617 0.17737 0.0
C958 C 0.23071 0.22253 0.17088 0.0
C959 C 0.20071 0.2036 0.20942 0.0
H960 H 0.157 0.17116 0.19737 0.0
N961 N 0.24849 0.2276 0.28923 0.0
C962 C 0.22401 0.21406 0.26599 0.0
C963 C 0.19973 0.18662 0.30402 0.0
C964 C 0.19898 0.19317 0.2728 0.0
C965 C 0.25004 0.21937 0.31885 0.0
C966 C 0.22548 0.19965 0.3271 0.0
O967 O 0.35956 0.31648 0.30809 0.0
O968 O 0.3373 0.27861 0.26285 0.0
O969 O 0.30963 0.22247 0.28889 0.0
O970 O 0.29109 0.21943 0.23786 0.0
O971 O 0.3068 0.33892 0.26056 0.0
O972 O 0.3007 0.28808 0.23527 0.0
O973 O 0.25124 0.2788 0.2877 0.0
O974 O 0.27186 0.33076 0.31065 0.0
O975 O 0.31648 0.38573 0.3012 0.0
O976 O 0.31858 0.38024 0.35209 0.0
O977 O 0.31076 0.26951 0.32691 0.0
O978 O 0.30005 0.31429 0.34753 0.0
C979 C 0.36177 0.29487 0.28336 0.0
C980 C 0.30333 0.31744 0.23403 0.0
C981 C 0.31033 0.17785 0.24721 0.0
C982 C 0.32053 0.13122 0.25949 0.0
C983 C 0.30369 0.13346 0.20349 0.0
C984 C 0.30314 0.16401 0.21385 0.0
C985 C 0.31097 0.11664 0.22633 0.0
C986 C 0.32068 0.1622 0.2696 0.0
C987 C 0.30381 0.20702 0.25871 0.0
C988 C 0.17438 0.17881 0.24812 0.0
C989 C 0.17537 0.18385 0.21648 0.0
H990 H 0.18089 0.17088 0.31025 0.0
C991 C 0.24834 0.30652 0.30101 0.0
C992 C 0.30246 0.28681 0.35053 0.0
C993 C 0.30756 0.42629 0.3407 0.0
C994 C 0.2878 0.46665 0.32457 0.0
C995 C 0.30504 0.46966 0.38178 0.0
C996 C 0.3128 0.44184 0.37348 0.0
C997 C 0.29255 0.48217 0.35737 0.0
C998 C 0.29499 0.43866 0.31649 0.0
C999 C 0.3172 0.39839 0.33167 0.0
H1000 H 0.29711 0.12237 0.17798 0.0
H1001 H 0.29576 0.17622 0.19592 0.0
H1002 H 0.30837 0.09211 0.21784 0.0
H1003 H 0.32767 0.17381 0.295 0.0
H1004 H 0.30879 0.48155 0.40703 0.0
H1005 H 0.32288 0.43251 0.39255 0.0
H1006 H 0.28674 0.50388 0.36401 0.0
H1007 H 0.2903 0.42619 0.29134 0.0
C1008 C 0.51576 0.62077 0.11096 0.0
C1009 C 0.56142 0.65787 0.14031 0.0
C1010 C 0.546 0.63403 0.1134 0.0
C1011 C 0.54619 0.66732 0.16528 0.0
C1012 C 0.50026 0.63069 0.1357 0.0
C1013 C 0.51573 0.65359 0.16309 0.0
N1014 N 0.50124 0.59932 0.0837 0.0
C1015 C 0.47093 0.58906 0.07855 0.0
C1016 C 0.46946 0.61803 0.13166 0.0
C1017 C 0.45466 0.5975 0.10268 0.0
Gd1018 Gd 0.55788 0.5032 0.03034 0.0
Gd1019 Gd 0.53057 0.58525 0.04484 0.0
N1020 N 0.56025 0.62384 0.08915 0.0
C1021 C 0.59157 0.67189 0.14105 0.0
C1022 C 0.58945 0.63806 0.08945 0.0
C1023 C 0.60555 0.66212 0.11534 0.0
H1024 H 0.60036 0.63108 0.06971 0.0
H1025 H 0.62873 0.6732 0.11537 0.0
H1026 H 0.48531 0.46358 0.99932 0.0
H1027 H 0.45922 0.57554 0.05518 0.0
H1028 H 0.4582 0.42113 0.954 0.0
H1029 H 0.60411 0.69052 0.16108 0.0
H1030 H 0.5577 0.68548 0.18619 0.0
H1031 H 0.62816 0.52022 0.01776 0.0
H1032 H 0.45677 0.62492 0.15013 0.0
H1033 H 0.43066 0.5888 0.09855 0.0
H1034 H 0.5323 0.4038 0.88943 0.0
H1035 H 0.50418 0.6614 0.18233 0.0
H1036 H 0.63234 0.46698 0.92541 0.0
H1037 H 0.65722 0.50677 0.97499 0.0
N1038 N 0.58712 0.49126 0.99136 0.0
C1039 C 0.57302 0.46906 0.96458 0.0
C1040 C 0.61698 0.50432 0.99551 0.0
C1041 C 0.61941 0.47359 0.94374 0.0
C1042 C 0.63352 0.49613 0.97161 0.0
C1043 C 0.58889 0.45941 0.94014 0.0
H1044 H 0.58587 0.42803 0.89423 0.0
N1045 N 0.52762 0.4669 0.98465 0.0
C1046 C 0.54258 0.45602 0.96147 0.0
C1047 C 0.49699 0.41928 0.93197 0.0
C1048 C 0.52757 0.4322 0.93433 0.0
C1049 C 0.49758 0.45492 0.98178 0.0
C1050 C 0.48193 0.43079 0.95574 0.0
O1051 O 0.55319 0.57656 0.09134 0.0
O1052 O 0.56841 0.53095 0.08112 0.0
O1053 O 0.54317 0.46232 0.05166 0.0
O1054 O 0.5901 0.48001 0.04788 0.0
O1055 O 0.57119 0.58231 0.02165 0.0
O1056 O 0.59423 0.54911 0.04373 0.0
O1057 O 0.54751 0.52309 0.98614 0.0
O1058 O 0.51088 0.54531 1.00117 0.0
O1059 O 0.54511 0.62203 0.01781 0.0
O1060 O 0.49961 0.60984 0.0279 0.0
O1061 O 0.51383 0.50044 0.04686 0.0
O1062 O 0.49318 0.54197 0.04308 0.0
C1063 C 0.56538 0.55547 0.10045 0.0
C1064 C 0.5954 0.57507 0.03286 0.0
C1065 C 0.57812 0.43545 0.07408 0.0
C1066 C 0.56842 0.39599 0.10783 0.0
C1067 C 0.61701 0.41203 0.09199 0.0
C1068 C 0.60733 0.43254 0.07509 0.0
C1069 C 0.59783 0.39402 0.10827 0.0
C1070 C 0.55833 0.41678 0.09047 0.0
C1071 C 0.57026 0.46 0.05824 0.0
C1072 C 0.54346 0.42208 0.91035 0.0
C1073 C 0.57397 0.43587 0.91309 0.0
H1074 H 0.48477 0.40067 0.91177 0.0
C1075 C 0.52549 0.5352 0.97863 0.0
C1076 C 0.49184 0.51364 0.04827 0.0
C1077 C 0.51143 0.65171 0.9989 0.0
C1078 C 0.52388 0.69354 0.96928 0.0
C1079 C 0.47448 0.67836 0.98329 0.0
C1080 C 0.48259 0.65579 0.99817 0.0
C1081 C 0.49496 0.69714 0.96897 0.0
C1082 C 0.53225 0.67079 0.98433 0.0
C1083 C 0.51916 0.62777 0.01536 0.0
H1084 H 0.63965 0.41023 0.09265 0.0
H1085 H 0.62305 0.44653 0.0631 0.0
H1086 H 0.606 0.37827 0.12131 0.0
H1087 H 0.5358 0.4189 0.09042 0.0
H1088 H 0.4522 0.68124 0.98279 0.0
H1089 H 0.46616 0.64152 0.00915 0.0
H1090 H 0.48816 0.71444 0.95727 0.0
H1091 H 0.55453 0.66793 0.9845 0.0
C1092 C 0.7444 0.22339 0.35632 0.0
C1093 C 0.70739 0.18502 0.31484 0.0
C1094 C 0.73436 0.20879 0.32382 0.0
C1095 C 0.69039 0.17672 0.33871 0.0
C1096 C 0.72718 0.21506 0.38034 0.0
C1097 C 0.70005 0.19198 0.3713 0.0
N1098 N 0.77119 0.24502 0.36462 0.0
C1099 C 0.78291 0.25716 0.39685 0.0
C1100 C 0.73803 0.22961 0.41294 0.0
C1101 C 0.76619 0.25045 0.42126 0.0
Gd1102 Gd 0.80623 0.33565 0.2737 0.0
Gd1103 Gd 0.79654 0.25538 0.32077 0.0
N1104 N 0.75078 0.21778 0.30097 0.0
C1105 C 0.69816 0.1703 0.28204 0.0
C1106 C 0.74077 0.20468 0.26876 0.0
C1107 C 0.71485 0.18036 0.25887 0.0
H1108 H 0.75217 0.21303 0.25034 0.0
H1109 H 0.70755 0.16972 0.23329 0.0
H1110 H 0.83183 0.40543 0.32792 0.0
H1111 H 0.80531 0.27207 0.40417 0.0
H1112 H 0.87931 0.4458 0.34612 0.0
H1113 H 0.67789 0.15161 0.27428 0.0
H1114 H 0.66962 0.15861 0.33219 0.0
H1115 H 0.79801 0.31792 0.19119 0.0
H1116 H 0.72527 0.22412 0.43198 0.0
H1117 H 0.77528 0.26096 0.44656 0.0
H1118 H 0.93569 0.4273 0.26087 0.0
H1119 H 0.68662 0.18534 0.38944 0.0
H1120 H 0.88206 0.35536 0.1637 0.0
H1121 H 0.83 0.32291 0.14885 0.0
N1122 N 0.83265 0.34329 0.23011 0.0
C1123 C 0.86017 0.36361 0.23819 0.0
C1124 C 0.82115 0.33045 0.19815 0.0
C1125 C 0.86842 0.35223 0.18252 0.0
C1126 C 0.83905 0.3339 0.17403 0.0
C1127 C 0.87901 0.36828 0.21474 0.0
H1128 H 0.92175 0.39394 0.20602 0.0
N1129 N 0.84702 0.38068 0.28875 0.0
C1130 C 0.86771 0.3829 0.26872 0.0
C1131 C 0.89957 0.42842 0.30625 0.0
C1132 C 0.89467 0.40669 0.277 0.0
C1133 C 0.84989 0.4045 0.31455 0.0
C1134 C 0.87663 0.4279 0.32459 0.0
O1135 O 0.75404 0.2723 0.30847 0.0
O1136 O 0.7601 0.29911 0.26555 0.0
O1137 O 0.78568 0.3718 0.29508 0.0
O1138 O 0.77476 0.34947 0.24346 0.0
O1139 O 0.79722 0.25308 0.26788 0.0
O1140 O 0.79974 0.29166 0.23738 0.0
O1141 O 0.85119 0.33088 0.29819 0.0
O1142 O 0.8442 0.28165 0.31261 0.0
O1143 O 0.80512 0.21036 0.30701 0.0
O1144 O 0.82625 0.24094 0.35455 0.0
O1145 O 0.80382 0.31375 0.31545 0.0
O1146 O 0.80619 0.29669 0.35957 0.0
C1147 C 0.74326 0.28539 0.28523 0.0
C1148 C 0.79787 0.26285 0.24042 0.0
C1149 C 0.76525 0.39834 0.2559 0.0
C1150 C 0.7414 0.44077 0.26292 0.0
C1151 C 0.75554 0.42353 0.21076 0.0
C1152 C 0.76671 0.40142 0.22336 0.0
C1153 C 0.74311 0.44313 0.23035 0.0
C1154 C 0.75278 0.4184 0.27575 0.0
C1155 C 0.77053 0.37037 0.26643 0.0
C1156 C 0.91479 0.40937 0.25484 0.0
C1157 C 0.90686 0.39033 0.22362 0.0
H1158 H 0.92003 0.4469 0.31366 0.0
C1159 C 0.8615 0.30773 0.30652 0.0
C1160 C 0.80558 0.32006 0.34687 0.0
C1161 C 0.83854 0.19187 0.34206 0.0
C1162 C 0.86173 0.15107 0.32436 0.0
C1163 C 0.86518 0.17142 0.38212 0.0
C1164 C 0.84871 0.1919 0.3747 0.0
C1165 C 0.87177 0.15111 0.35705 0.0
C1166 C 0.84497 0.17128 0.31686 0.0
C1167 C 0.8233 0.21488 0.33426 0.0
H1168 H 0.75608 0.42519 0.18554 0.0
H1169 H 0.77541 0.38591 0.20703 0.0
H1170 H 0.73461 0.46018 0.21986 0.0
H1171 H 0.75036 0.41537 0.30031 0.0
H1172 H 0.87301 0.17145 0.40728 0.0
H1173 H 0.84409 0.20785 0.39442 0.0
H1174 H 0.8847 0.13538 0.36309 0.0
H1175 H 0.83766 0.17144 0.29157 0.0
C1176 C 0.10466 0.5037 0.61908 0.0
C1177 C 0.13482 0.54961 0.6573 0.0
C1178 C 0.10901 0.53435 0.63408 0.0
C1179 C 0.15687 0.53413 0.66347 0.0
C1180 C 0.12649 0.48784 0.62539 0.0
C1181 C 0.15288 0.50341 0.6472 0.0
N1182 N 0.07878 0.48931 0.59841 0.0
C1183 C 0.07213 0.45832 0.58576 0.0
C1184 C 0.12087 0.45667 0.60995 0.0
C1185 C 0.09327 0.44165 0.59059 0.0
Gd1186 Gd 0.05068 0.56984 0.50278 0.0
Gd1187 Gd 0.04854 0.5206 0.58234 0.0
N1188 N 0.08768 0.54895 0.62632 0.0
C1189 C 0.13753 0.57981 0.67392 0.0
C1190 C 0.08988 0.57807 0.64357 0.0
C1191 C 0.11473 0.59387 0.66739 0.0
H1192 H 0.07253 0.58944 0.63991 0.0
H1193 H 0.11626 0.61696 0.68076 0.0
H1194 H 0.02272 0.49817 0.44752 0.0
H1195 H 0.05041 0.44646 0.57203 0.0
H1196 H 0.98178 0.47311 0.40383 0.0
H1197 H 0.15679 0.5922 0.69225 0.0
H1198 H 0.17695 0.54561 0.68097 0.0
H1199 H 0.04152 0.64013 0.52608 0.0
H1200 H 0.1372 0.44374 0.61375 0.0
H1201 H 0.08818 0.4172 0.57965 0.0
H1202 H 0.92638 0.54801 0.39708 0.0
H1203 H 0.16997 0.49168 0.65227 0.0
H1204 H 0.96186 0.64672 0.47034 0.0
H1205 H 1.00551 0.67004 0.51394 0.0
N1206 N 0.0187 0.60032 0.48954 0.0
C1207 C 0.99486 0.58707 0.46544 0.0
C1208 C 0.02263 0.62973 0.50686 0.0
C1209 C 0.97768 0.63352 0.47543 0.0
C1210 C 1.00228 0.64675 0.50006 0.0
C1211 C 0.97368 0.60337 0.45776 0.0
H1212 H 0.93259 0.60125 0.4269 0.0
N1213 N 1.01126 0.54126 0.45834 0.0
C1214 C 0.9911 0.55678 0.44925 0.0
C1215 C 0.96309 0.51212 0.40764 0.0
C1216 C 0.96634 0.54246 0.4241 0.0
C1217 C 1.00775 0.51143 0.44188 0.0
C1218 C 0.98399 0.49665 0.41649 0.0
O1219 O 0.0923 0.5316 0.56808 0.0
O1220 O 0.07732 0.56816 0.54854 0.0
O1221 O 0.0855 0.56857 0.47404 0.0
O1222 O 0.07613 0.61242 0.49199 0.0
O1223 O 0.03899 0.56919 0.59155 0.0
O1224 O 0.0565 0.60041 0.55454 0.0
O1225 O 1.00789 0.56023 0.51921 0.0
O1226 O 0.02324 0.5228 0.53593 0.0
O1227 O 0.01805 0.5228 0.61691 0.0
O1228 O 0.01648 0.47873 0.58627 0.0
O1229 O 0.05873 0.5208 0.49144 0.0
O1230 O 0.04896 0.4903 0.53149 0.0
C1231 C 0.09653 0.55201 0.55026 0.0
C1232 C 0.04509 0.59628 0.58169 0.0
C1233 C 0.09603 0.60713 0.44304 0.0
C1234 C 0.11836 0.60044 0.39465 0.0
C1235 C 0.1009 0.64611 0.40963 0.0
C1236 C 0.09184 0.63548 0.4369 0.0
C1237 C 0.11437 0.62876 0.38865 0.0
C1238 C 0.10884 0.58931 0.42135 0.0
C1239 C 0.09138 0.59814 0.47403 0.0
C1240 C 0.94547 0.55874 0.41616 0.0
C1241 C 0.94904 0.58906 0.43308 0.0
H1242 H 0.94458 0.50047 0.38811 0.0
C1243 C 1.00299 0.53772 0.53441 0.0
C1244 C 0.0561 0.49417 0.50207 0.0
C1245 C 0.99919 0.47737 0.637 0.0
C1246 C 0.97666 0.47591 0.68595 0.0
C1247 C 0.9888 0.43025 0.65873 0.0
C1248 C 0.99985 0.44629 0.63539 0.0
C1249 C 0.97703 0.44493 0.68382 0.0
C1250 C 0.98782 0.49223 0.66271 0.0
C1251 C 1.00604 0.49292 0.60985 0.0
H1252 H 0.09828 0.66823 0.40526 0.0
H1253 H 0.08249 0.64991 0.45365 0.0
H1254 H 0.12233 0.63768 0.36814 0.0
H1255 H 0.11297 0.56777 0.42609 0.0
H1256 H 0.98879 0.40616 0.65699 0.0
H1257 H 1.00802 0.43404 0.61561 0.0
H1258 H 0.96786 0.43205 0.70134 0.0
H1259 H 0.98652 0.51599 0.66397 0.0
C1260 C 0.73551 0.82771 0.223 0.0
C1261 C 0.69862 0.78132 0.19239 0.0
C1262 C 0.72136 0.79639 0.21927 0.0
C1263 C 0.69125 0.79783 0.16873 0.0
C1264 C 0.72789 0.84447 0.19948 0.0
C1265 C 0.70593 0.82928 0.1722 0.0
N1266 N 0.75636 0.84191 0.2499 0.0
C1267 C 0.76962 0.87299 0.25525 0.0
C1268 C 0.74235 0.87611 0.20428 0.0
C1269 C 0.76318 0.89046 0.2324 0.0
Gd1270 Gd 0.83883 0.78054 0.29306 0.0
Gd1271 Gd 0.76514 0.81075 0.28728 0.0
N1272 N 0.72913 0.78096 0.24249 0.0
C1273 C 0.68334 0.75036 0.19062 0.0
C1274 C 0.71312 0.75146 0.24184 0.0
C1275 C 0.69032 0.73553 0.21573 0.0
H1276 H 0.71705 0.74066 0.2621 0.0
H1277 H 0.67769 0.71207 0.21532 0.0
H1278 H 0.88269 0.85354 0.31991 0.0
H1279 H 0.78432 0.88456 0.27768 0.0
H1280 H 0.92165 0.88297 0.36625 0.0
H1281 H 0.66551 0.73806 0.17059 0.0
H1282 H 0.67392 0.78659 0.14789 0.0
H1283 H 0.82036 0.70688 0.30404 0.0
H1284 H 0.73719 0.88976 0.18676 0.0
H1285 H 0.77391 0.91509 0.2368 0.0
H1286 H 0.93084 0.80847 0.43231 0.0
H1287 H 0.69984 0.84178 0.1539 0.0
H1288 H 0.86959 0.70422 0.39493 0.0
H1289 H 0.83238 0.67768 0.34561 0.0
N1290 N 0.84901 0.75013 0.33049 0.0
C1291 C 0.86973 0.76516 0.35733 0.0
C1292 C 0.83592 0.71904 0.32591 0.0
C1293 C 0.86401 0.71735 0.37704 0.0
C1294 C 0.84296 0.70229 0.34925 0.0
C1295 C 0.87793 0.74907 0.38123 0.0
H1296 H 0.90647 0.75296 0.42685 0.0
N1297 N 0.87393 0.81188 0.33792 0.0
C1298 C 0.8829 0.79678 0.3609 0.0
C1299 C 0.91911 0.84412 0.38987 0.0
C1300 C 0.90535 0.81267 0.38781 0.0
C1301 C 0.888 0.84225 0.3393 0.0
C1302 C 0.91057 0.85888 0.36535 0.0
O1303 O 0.78191 0.79808 0.23917 0.0
O1304 O 0.80437 0.75961 0.2472 0.0
O1305 O 0.87643 0.79665 0.26691 0.0
O1306 O 0.86422 0.74945 0.27567 0.0
O1307 O 0.76342 0.76605 0.30552 0.0
O1308 O 0.79562 0.7416 0.28104 0.0
O1309 O 0.82266 0.79444 0.34202 0.0
O1310 O 0.79759 0.83151 0.33503 0.0
O1311 O 0.72699 0.79699 0.31231 0.0
O1312 O 0.74172 0.8443 0.30366 0.0
O1313 O 0.83921 0.82372 0.27282 0.0
O1314 O 0.80883 0.84744 0.30047 0.0
C1315 C 0.79307 0.77514 0.22759 0.0
C1316 C 0.77147 0.74081 0.29454 0.0
C1317 C 0.90428 0.75956 0.2442 0.0
C1318 C 0.94692 0.76844 0.21432 0.0
C1319 C 0.91955 0.71591 0.21607 0.0
C1320 C 0.90119 0.72746 0.23547 0.0
C1321 C 0.9418 0.73602 0.2053 0.0
C1322 C 0.92751 0.78041 0.23352 0.0
C1323 C 0.88165 0.76939 0.26274 0.0
C1324 C 0.91367 0.79663 0.41149 0.0
C1325 C 0.89984 0.76499 0.40834 0.0
H1326 H 0.93667 0.85704 0.40994 0.0
C1327 C 0.81068 0.81672 0.3541 0.0
C1328 C 0.83111 0.84868 0.2841 0.0
C1329 C 0.6992 0.83435 0.33122 0.0
C1330 C 0.65909 0.82568 0.36341 0.0
C1331 C 0.67373 0.87431 0.34493 0.0
C1332 C 0.69537 0.86396 0.32998 0.0
C1333 C 0.65568 0.85537 0.36138 0.0
C1334 C 0.68084 0.81499 0.34789 0.0
C1335 C 0.72293 0.82479 0.31556 0.0
H1336 H 0.91646 0.69108 0.20924 0.0
H1337 H 0.88397 0.71085 0.24308 0.0
H1338 H 0.95558 0.726 0.19008 0.0
H1339 H 0.93066 0.80527 0.24037 0.0
H1340 H 0.6709 0.89713 0.34375 0.0
H1341 H 0.70913 0.87931 0.31739 0.0
H1342 H 0.63873 0.86397 0.37241 0.0
H1343 H 0.68385 0.79226 0.34934 0.0
C1344 C 0.84063 0.23206 0.71253 0.0
C1345 C 0.79707 0.20412 0.67273 0.0
C1346 C 0.81215 0.2298 0.69818 0.0
C1347 C 0.81065 0.18025 0.66341 0.0
C1348 C 0.85488 0.20868 0.70248 0.0
C1349 C 0.83953 0.18251 0.67833 0.0
N1350 N 0.85527 0.25826 0.73467 0.0
C1351 C 0.88458 0.26296 0.74683 0.0
C1352 C 0.88452 0.21284 0.71622 0.0
C1353 C 0.89953 0.2403 0.73828 0.0
Gd1354 Gd 0.7828 0.30257 0.83386 0.0
Gd1355 Gd 0.82844 0.29417 0.7528 0.0
N1356 N 0.80027 0.25396 0.70715 0.0
C1357 C 0.76939 0.20383 0.65633 0.0
C1358 C 0.77418 0.25455 0.6891 0.0
C1359 C 0.75818 0.22942 0.66418 0.0
H1360 H 0.76547 0.27446 0.69253 0.0
H1361 H 0.73738 0.23011 0.65058 0.0
H1362 H 0.84193 0.31794 0.89636 0.0
H1363 H 0.89667 0.28454 0.76268 0.0
H1364 H 0.86354 0.35508 0.94706 0.0
H1365 H 0.75717 0.18465 0.63666 0.0
H1366 H 0.79937 0.16043 0.64403 0.0
H1367 H 0.71693 0.31605 0.81239 0.0
H1368 H 0.89624 0.19547 0.70923 0.0
H1369 H 0.92273 0.24424 0.74843 0.0
H1370 H 0.79847 0.4216 0.95715 0.0
H1371 H 0.85011 0.16438 0.67034 0.0
H1372 H 0.71133 0.39758 0.8763 0.0
H1373 H 0.69003 0.35506 0.8281 0.0
N1374 N 0.75437 0.33711 0.85 0.0
C1375 C 0.76604 0.35979 0.877 0.0
C1376 C 0.7271 0.33492 0.8329 0.0
C1377 C 0.72358 0.38076 0.86918 0.0
C1378 C 0.7115 0.35683 0.84197 0.0
C1379 C 0.7509 0.38218 0.88743 0.0
H1380 H 0.75189 0.4223 0.92425 0.0
N1381 N 0.80661 0.33812 0.88383 0.0
C1382 C 0.79264 0.35992 0.89487 0.0
C1383 C 0.83012 0.38003 0.94338 0.0
C1384 C 0.80422 0.38171 0.9246 0.0
C1385 C 0.83145 0.33599 0.90291 0.0
C1386 C 0.84371 0.35696 0.9325 0.0
O1387 O 0.81149 0.25894 0.78002 0.0
O1388 O 0.76687 0.26398 0.78999 0.0
O1389 O 0.78365 0.26774 0.86242 0.0
O1390 O 0.74204 0.27852 0.84768 0.0
O1391 O 0.78291 0.30496 0.74273 0.0
O1392 O 0.75457 0.3018 0.78501 0.0
O1393 O 0.79748 0.34578 0.81581 0.0
O1394 O 0.83512 0.33046 0.79748 0.0
O1395 O 0.8281 0.32962 0.72479 0.0
O1396 O 0.86993 0.32139 0.74376 0.0
O1397 O 0.83004 0.2943 0.84252 0.0
O1398 O 0.85829 0.29343 0.80013 0.0
C1399 C 0.78317 0.24759 0.77655 0.0
C1400 C 0.75811 0.30551 0.75496 0.0
C1401 C 0.74551 0.25569 0.89389 0.0
C1402 C 0.75152 0.23323 0.94141 0.0
C1403 C 0.70514 0.24519 0.92492 0.0
C1404 C 0.71649 0.25612 0.89883 0.0
C1405 C 0.72248 0.23352 0.94602 0.0
C1406 C 0.76321 0.24454 0.91562 0.0
C1407 C 0.75523 0.26191 0.86348 0.0
C1408 C 0.78961 0.40443 0.93474 0.0
C1409 C 0.76312 0.40483 0.91602 0.0
H1410 H 0.83968 0.39626 0.9663 0.0
C1411 C 0.81959 0.35065 0.79983 0.0
C1412 C 0.85497 0.29208 0.83096 0.0
C1413 C 0.86754 0.34084 0.69555 0.0
C1414 C 0.86473 0.36265 0.64729 0.0
C1415 C 0.90309 0.33658 0.65894 0.0
C1416 C 0.89253 0.33117 0.68742 0.0
C1417 C 0.88903 0.35182 0.63868 0.0
C1418 C 0.8537 0.35668 0.67545 0.0
C1419 C 0.85689 0.33663 0.72592 0.0
H1420 H 0.68261 0.24507 0.92832 0.0
H1421 H 0.70218 0.26393 0.88193 0.0
H1422 H 0.71317 0.22435 0.96576 0.0
H1423 H 0.78534 0.24314 0.91169 0.0
H1424 H 0.92226 0.32905 0.65258 0.0
H1425 H 0.90401 0.31955 0.70302 0.0
H1426 H 0.89735 0.35542 0.61638 0.0
H1427 H 0.83499 0.36511 0.68217 0.0
C1428 C 0.88423 0.88289 0.85337 0.0
C1429 C 0.9116 0.90812 0.81541 0.0
C1430 C 0.88669 0.88652 0.82153 0.0
C1431 C 0.93324 0.92671 0.84151 0.0
C1432 C 0.9058 0.90205 0.8796 0.0
C1433 C 0.92983 0.92429 0.87348 0.0
N1434 N 0.85981 0.86243 0.85895 0.0
C1435 C 0.85622 0.85941 0.89003 0.0
C1436 C 0.90181 0.89948 0.91142 0.0
C1437 C 0.87725 0.87766 0.91664 0.0
Gd1438 Gd 0.78994 0.75847 0.77373 0.0
Gd1439 Gd 0.82133 0.84359 0.814 0.0
N1440 N 0.86409 0.87037 0.79686 0.0
C1441 C 0.91322 0.9118 0.7834 0.0
C1442 C 0.86502 0.87512 0.76589 0.0
C1443 C 0.88975 0.89527 0.75855 0.0
H1444 H 0.84635 0.86489 0.74695 0.0
H1445 H 0.89019 0.89889 0.7339 0.0
H1446 H 0.76928 0.72718 0.83618 0.0
H1447 H 0.83602 0.84491 0.89474 0.0
H1448 H 0.72508 0.6931 0.84956 0.0
H1449 H 0.93196 0.92815 0.77779 0.0
H1450 H 0.95207 0.94397 0.83732 0.0
H1451 H 0.77417 0.75962 0.69322 0.0
H1452 H 0.91713 0.9148 0.93215 0.0
H1453 H 0.87381 0.87587 0.94123 0.0
H1454 H 0.65618 0.66198 0.74936 0.0
H1455 H 0.94546 0.94037 0.89338 0.0
H1456 H 0.68836 0.6981 0.65633 0.0
H1457 H 0.73395 0.73401 0.64755 0.0
N1458 N 0.75066 0.74162 0.72913 0.0
C1459 C 0.72568 0.72162 0.73436 0.0
C1460 C 0.7537 0.74609 0.69831 0.0
C1461 C 0.70535 0.71062 0.67699 0.0
C1462 C 0.73109 0.73087 0.67194 0.0
C1463 C 0.70234 0.70577 0.70838 0.0
H1464 H 0.65973 0.67156 0.6944 0.0
N1465 N 0.74819 0.72837 0.78933 0.0
C1466 C 0.72437 0.71496 0.76527 0.0
C1467 C 0.69924 0.68627 0.80199 0.0
C1468 C 0.69927 0.6934 0.77101 0.0
C1469 C 0.7491 0.7197 0.81873 0.0
C1470 C 0.72436 0.69939 0.82592 0.0
O1471 O 0.85896 0.81743 0.80798 0.0
O1472 O 0.837 0.77863 0.76354 0.0
O1473 O 0.80764 0.72212 0.78886 0.0
O1474 O 0.78879 0.71851 0.73747 0.0
O1475 O 0.79979 0.83456 0.76027 0.0
O1476 O 0.80893 0.78863 0.73998 0.0
O1477 O 0.75088 0.77948 0.78675 0.0
O1478 O 0.77086 0.83101 0.8116 0.0
O1479 O 0.8152 0.88593 0.8021 0.0
O1480 O 0.81578 0.87929 0.85272 0.0
O1481 O 0.81036 0.76947 0.82762 0.0
O1482 O 0.79969 0.8145 0.84771 0.0
C1483 C 0.86145 0.79582 0.7834 0.0
C1484 C 0.80355 0.8147 0.73551 0.0
C1485 C 0.80704 0.67627 0.74951 0.0
C1486 C 0.81932 0.63198 0.76546 0.0
C1487 C 0.81196 0.63442 0.70823 0.0
C1488 C 0.80609 0.66322 0.7166 0.0
C1489 C 0.81867 0.61876 0.73263 0.0
C1490 C 0.81363 0.66066 0.77375 0.0
C1491 C 0.80094 0.706 0.75893 0.0
C1492 C 0.67555 0.67871 0.74546 0.0
C1493 C 0.67737 0.68446 0.71417 0.0
H1494 H 0.68029 0.67001 0.80737 0.0
C1495 C 0.74765 0.80678 0.80091 0.0
C1496 C 0.80221 0.78709 0.85103 0.0
C1497 C 0.80772 0.92735 0.84119 0.0
C1498 C 0.78817 0.96686 0.82292 0.0
C1499 C 0.79739 0.96746 0.8806 0.0
C1500 C 0.80739 0.9407 0.87369 0.0
C1501 C 0.78732 0.9804 0.8551 0.0
C1502 C 0.7987 0.94095 0.81614 0.0
C1503 C 0.81283 0.89698 0.83208 0.0
H1504 H 0.81161 0.62441 0.68296 0.0
H1505 H 0.80108 0.67531 0.69751 0.0
H1506 H 0.8239 0.59672 0.72605 0.0
H1507 H 0.81523 0.67121 0.79923 0.0
H1508 H 0.79677 0.97767 0.90555 0.0
H1509 H 0.81397 0.93006 0.89346 0.0
H1510 H 0.77879 1.00059 0.86032 0.0
H1511 H 0.79814 0.93041 0.79086 0.0
C1512 C 0.48531 0.45582 0.47693 0.0
C1513 C 0.45736 0.42788 0.5126 0.0
C1514 C 0.47433 0.45579 0.50617 0.0
C1515 C 0.45273 0.39989 0.49002 0.0
C1516 C 0.48087 0.42768 0.45434 0.0
C1517 C 0.46479 0.39973 0.46118 0.0
N1518 N 0.50073 0.4833 0.47088 0.0
C1519 C 0.51058 0.48434 0.4418 0.0
C1520 C 0.49256 0.42847 0.4254 0.0
C1521 C 0.50708 0.45697 0.41891 0.0
Gd1522 Gd 0.58556 0.5658 0.55732 0.0
Gd1523 Gd 0.50727 0.52723 0.51262 0.0
N1524 N 0.48012 0.48302 0.52822 0.0
C1525 C 0.44537 0.42897 0.54149 0.0
C1526 C 0.46754 0.48438 0.55578 0.0
C1527 C 0.45024 0.45741 0.563 0.0
H1528 H 0.46993 0.50629 0.57179 0.0
H1529 H 0.44042 0.45865 0.58499 0.0
H1530 H 0.62062 0.58698 0.49661 0.0
H1531 H 0.52084 0.50611 0.43575 0.0
H1532 H 0.65008 0.63456 0.48338 0.0
H1533 H 0.43197 0.4081 0.54717 0.0
H1534 H 0.43982 0.37823 0.4946 0.0
H1535 H 0.57747 0.58439 0.63596 0.0
H1536 H 0.48967 0.40735 0.40746 0.0
H1537 H 0.51525 0.45791 0.39606 0.0
H1538 H 0.65973 0.71286 0.579 0.0
H1539 H 0.46103 0.37794 0.444 0.0
H1540 H 0.61591 0.68198 0.66909 0.0
H1541 H 0.58945 0.63122 0.6794 0.0
N1542 N 0.59572 0.60845 0.60073 0.0
C1543 C 0.61172 0.63578 0.59508 0.0
C1544 C 0.58832 0.60641 0.63076 0.0
C1545 C 0.61065 0.66142 0.64983 0.0
C1546 C 0.59549 0.63288 0.65566 0.0
C1547 C 0.61966 0.66302 0.61958 0.0
H1548 H 0.64269 0.71204 0.63183 0.0
N1549 N 0.61253 0.60986 0.54156 0.0
C1550 C 0.6205 0.63646 0.56478 0.0
C1551 C 0.64843 0.66354 0.52887 0.0
C1552 C 0.63835 0.66416 0.55884 0.0
C1553 C 0.62384 0.60873 0.51318 0.0
C1554 C 0.64141 0.63559 0.50609 0.0
O1555 O 0.53459 0.49123 0.52188 0.0
O1556 O 0.5697 0.51667 0.56655 0.0
O1557 O 0.62302 0.55098 0.54343 0.0
O1558 O 0.62254 0.56943 0.59534 0.0
O1559 O 0.51196 0.54919 0.56639 0.0
O1560 O 0.55596 0.54293 0.58863 0.0
O1561 O 0.55766 0.60156 0.55149 0.0
O1562 O 0.52402 0.57723 0.50525 0.0
O1563 O 0.4689 0.54221 0.52546 0.0
O1564 O 0.47011 0.52151 0.47453 0.0
O1565 O 0.5798 0.54285 0.50361 0.0
O1566 O 0.53677 0.55063 0.48075 0.0
C1567 C 0.55449 0.49043 0.54668 0.0
C1568 C 0.52879 0.54409 0.5908 0.0
C1569 C 0.66498 0.55163 0.58199 0.0
C1570 C 0.70388 0.53155 0.56273 0.0
C1571 C 0.70212 0.54144 0.62049 0.0
C1572 C 0.6766 0.55164 0.61422 0.0
C1573 C 0.71567 0.53104 0.59466 0.0
C1574 C 0.67903 0.5421 0.55648 0.0
C1575 C 0.63615 0.55694 0.57376 0.0
C1576 C 0.6461 0.69136 0.58316 0.0
C1577 C 0.63649 0.69086 0.61329 0.0
H1578 H 0.66234 0.68428 0.52347 0.0
C1579 C 0.53797 0.60292 0.52683 0.0
C1580 C 0.564 0.54909 0.47911 0.0
C1581 C 0.42652 0.53861 0.48499 0.0
C1582 C 0.38323 0.55478 0.49906 0.0
C1583 C 0.38441 0.53193 0.44294 0.0
C1584 C 0.41302 0.52935 0.45216 0.0
C1585 C 0.36922 0.5437 0.46634 0.0
C1586 C 0.412 0.55221 0.50817 0.0
C1587 C 0.45584 0.53449 0.49505 0.0
H1588 H 0.71106 0.54108 0.6452 0.0
H1589 H 0.6655 0.5585 0.63423 0.0
H1590 H 0.73529 0.52281 0.59947 0.0
H1591 H 0.67014 0.5417 0.53141 0.0
H1592 H 0.37372 0.52414 0.41772 0.0
H1593 H 0.42432 0.51962 0.43373 0.0
H1594 H 0.34637 0.54367 0.45872 0.0
H1595 H 0.42306 0.56072 0.53327 0.0
C1596 C 0.11394 0.60622 0.97959 0.0
C1597 C 0.15302 0.64397 0.01953 0.0
C1598 C 0.1299 0.61607 0.01119 0.0
C1599 C 0.15898 0.66241 0.99632 0.0
C1600 C 0.12101 0.62409 0.95583 0.0
C1601 C 0.14299 0.65254 0.96459 0.0
N1602 N 0.0935 0.57803 0.9713 0.0
C1603 C 0.0826 0.5648 0.93929 0.0
C1604 C 0.10687 0.61209 0.92353 0.0
C1605 C 0.08806 0.58201 0.9151 0.0
Gd1606 Gd 1.00665 0.54313 0.06509 0.0
Gd1607 Gd 0.08458 0.55217 0.01435 0.0
N1608 N 0.12416 0.59747 0.03313 0.0
C1609 C 0.17036 0.65191 0.05056 0.0
C1610 C 0.14269 0.60399 0.0623 0.0
C1611 C 0.16549 0.63153 0.07182 0.0
H1612 H 0.14115 0.58756 0.0777 0.0
H1613 H 0.17978 0.63661 0.09523 0.0
H1614 H 0.97055 0.49468 0.99409 0.0
H1615 H 0.06984 0.54076 0.9324 0.0
H1616 H 0.92861 0.44792 0.97629 0.0
H1617 H 0.1884 0.67301 0.05779 0.0
H1618 H 0.17659 0.6839 1.00238 0.0
H1619 H 0.03024 0.54813 0.14626 0.0
H1620 H 0.11158 0.62517 0.90465 0.0
H1621 H 0.07834 0.5718 0.8899 0.0
H1622 H 0.91245 0.41249 0.07497 0.0
H1623 H 0.14857 0.66655 0.94666 0.0
H1624 H 0.97875 0.46798 0.1732 0.0
H1625 H 0.01877 0.51701 0.18734 0.0
N1626 N 0.99905 0.51564 0.10736 0.0
C1627 C 0.97666 0.48886 0.09923 0.0
C1628 C 0.0137 0.52609 0.13881 0.0
C1629 C 0.98417 0.48117 0.15458 0.0
C1630 C 1.00687 0.50876 0.16261 0.0
C1631 C 0.96851 0.47107 0.12273 0.0
H1632 H 0.93837 0.43003 0.13164 0.0
N1633 N 0.9716 0.4951 0.04449 0.0
C1634 C 0.96214 0.47869 0.0671 0.0
C1635 C 0.92619 0.44033 0.02502 0.0
C1636 C 0.93911 0.45081 0.05791 0.0
C1637 C 0.96074 0.48364 0.01216 0.0
C1638 C 0.93749 0.45652 1.00196 0.0
O1639 O 0.07732 0.59913 0.03666 0.0
O1640 O 0.03384 0.59181 0.06091 0.0
O1641 O 0.96724 0.55833 0.05076 0.0
O1642 O 0.98719 0.56729 0.10211 0.0
O1643 O 0.06281 0.54464 0.05574 0.0
O1644 O 0.04788 0.56157 0.10005 0.0
O1645 O 0.02041 0.49752 0.04824 0.0
O1646 O 0.05361 0.50211 0.00971 0.0
O1647 O 0.12334 0.53602 0.03199 0.0
O1648 O 0.10206 0.52428 0.98025 0.0
O1649 O 1.00646 0.5462 0.01309 0.0
O1650 O 0.04321 0.54672 0.98033 0.0
C1651 C 0.05706 0.60958 0.05148 0.0
C1652 C 0.06998 0.55865 0.08595 0.0
C1653 C 0.94483 0.58786 0.0899 0.0
C1654 C 0.90819 0.61587 0.07676 0.0
C1655 C 0.92571 0.61598 0.13314 0.0
C1656 C 0.9441 0.59749 0.12318 0.0
C1657 C 0.90794 0.6252 0.11013 0.0
C1658 C 0.92658 0.59702 0.06645 0.0
C1659 C 0.96719 0.57159 0.08056 0.0
C1660 C 0.93026 0.4338 0.08155 0.0
C1661 C 0.94507 0.44376 0.1138 0.0
H1662 H 0.90831 0.41917 0.01705 0.0
C1663 C 0.03496 0.48543 0.02604 0.0
C1664 C 0.01626 0.54764 0.98541 0.0
C1665 C 0.14516 0.50617 0.99103 0.0
C1666 C 0.1842 0.48052 1.00169 0.0
C1667 C 0.16804 0.48564 0.94652 0.0
C1668 C 0.14755 0.50079 0.95772 0.0
C1669 C 0.18638 0.4757 0.96831 0.0
C1670 C 0.16357 0.49601 0.01303 0.0
C1671 C 0.12328 0.52228 1.002 0.0
H1672 H 0.92541 0.62343 0.15883 0.0
H1673 H 0.95817 0.59119 0.14168 0.0
H1674 H 0.8938 0.63967 0.11836 0.0
H1675 H 0.92724 0.59031 0.04068 0.0
H1676 H 0.16975 0.48163 0.92087 0.0
H1677 H 0.13363 0.50839 0.94021 0.0
H1678 H 0.20235 0.46419 0.95903 0.0
H1679 H 0.16136 0.49951 0.03859 0.0
C1680 C 0.9972 0.16989 0.02049 0.0
C1681 C 0.01655 0.19194 0.00709 0.0
C1682 C 1.00389 0.14206 0.02689 0.0
C1683 C 0.03067 0.13447 0.02098 0.0
H1684 H 0.97629 0.17395 0.02587 0.0
H1685 H 0.98774 0.12623 0.03669 0.0
S1686 S 0.0889 0.18284 0.98472 0.0
N1687 N 0.06364 0.20265 0.98699 0.0
N1688 N 0.07655 0.15202 1.00028 0.0
C1689 C 0.05047 0.15649 0.00812 0.0
C1690 C 0.04338 0.18453 1.00093 0.0
C1691 C 0.19161 0.79712 0.18646 0.0
C1692 C 0.18307 0.82504 0.19493 0.0
C1693 C 0.21573 0.79055 0.20555 0.0
C1694 C 0.23289 0.8117 0.23391 0.0
H1695 H 0.17885 0.77962 0.16561 0.0
H1696 H 0.22022 0.76824 0.19855 0.0
S1697 S 0.22087 0.88817 0.26683 0.0
N1698 N 0.19477 0.87391 0.2343 0.0
N1699 N 0.23944 0.86173 0.2689 0.0
C1700 C 0.22466 0.8395 0.24243 0.0
C1701 C 0.20018 0.84613 0.22335 0.0
C1702 C 0.54047 0.90164 0.52931 0.0
C1703 C 0.51732 0.88151 0.50496 0.0
C1704 C 0.54639 0.93474 0.53433 0.0
C1705 C 0.52961 0.94951 0.51514 0.0
H1706 H 0.55382 0.89177 0.54506 0.0
H1707 H 0.56393 0.94887 0.55384 0.0
S1708 S 0.46848 0.90803 0.44649 0.0
N1709 N 0.47884 0.87965 0.46048 0.0
N1710 N 0.48992 0.94077 0.4697 0.0
C1711 C 0.50697 0.92963 0.49045 0.0
C1712 C 0.50091 0.89613 0.48541 0.0
C1713 C 0.52272 0.30932 0.70143 0.0
C1714 C 0.51847 0.3076 0.66741 0.0
C1715 C 0.49858 0.30081 0.71795 0.0
C1716 C 0.46904 0.29052 0.70134 0.0
H1717 H 0.54502 0.31566 0.71526 0.0
H1718 H 0.50322 0.30005 0.74351 0.0
S1719 S 0.4452 0.28554 0.61324 0.0
N1720 N 0.4819 0.29767 0.6184 0.0
N1721 N 0.43672 0.28172 0.64951 0.0
C1722 C 0.4643 0.29083 0.66786 0.0
C1723 C 0.4889 0.29933 0.65092 0.0
C1724 C 0.02454 0.82001 0.62576 0.0
C1725 C 0.02903 0.82537 0.66008 0.0
C1726 C 0.03446 0.84405 0.60927 0.0
C1727 C 0.0485 0.87453 0.62647 0.0
H1728 H 0.01452 0.79673 0.61154 0.0
H1729 H 0.03266 0.83841 0.58299 0.0
S1730 S 0.06211 0.90187 0.7161 0.0
N1731 N 0.04637 0.86417 0.71053 0.0
N1732 N 0.06415 0.90937 0.67935 0.0
C1733 C 0.05143 0.8806 0.66061 0.0
C1734 C 0.04198 0.85604 0.67748 0.0
C1735 C 0.44141 0.80189 0.78907 0.0
C1736 C 0.46127 0.82126 0.81681 0.0
C1737 C 0.40987 0.79764 0.78561 0.0
C1738 C 0.39633 0.81275 0.80949 0.0
H1739 H 0.45021 0.78913 0.77022 0.0
H1740 H 0.3959 0.78204 0.7641 0.0
S1741 S 0.43795 0.86737 0.88589 0.0
N1742 N 0.46432 0.85657 0.86795 0.0
N1743 N 0.40629 0.84881 0.86141 0.0
C1744 C 0.41603 0.83255 0.83689 0.0
C1745 C 0.44795 0.83669 0.84054 0.0
C1746 C 0.55604 0.17601 0.14195 0.0
C1747 C 0.5267 0.17552 0.1474 0.0
C1748 C 0.56228 0.15107 0.12088 0.0
C1749 C 0.53965 0.1241 0.10514 0.0
H1750 H 0.57426 0.19605 0.15355 0.0
H1751 H 0.58505 0.15272 0.11726 0.0
S1752 S 0.45964 0.10992 0.11179 0.0
N1753 N 0.47498 0.14485 0.13467 0.0
N1754 N 0.48719 0.09818 0.0975 0.0
C1755 C 0.51062 0.12303 0.11103 0.0
C1756 C 0.50404 0.14857 0.13141 0.0
C1757 C 0.18323 0.34638 0.31387 0.0
C1758 C 0.15818 0.32211 0.3155 0.0
C1759 C 0.21182 0.34129 0.31 0.0
C1760 C 0.21728 0.31138 0.30632 0.0
H1761 H 0.18058 0.36958 0.31481 0.0
H1762 H 0.2297 0.36111 0.30892 0.0
S1763 S 0.15944 0.2398 0.30907 0.0
N1764 N 0.14146 0.26697 0.31322 0.0
N1765 N 0.19392 0.25742 0.30608 0.0
C1766 C 0.19238 0.28713 0.30824 0.0
C1767 C 0.16346 0.29243 0.31259 0.0
C1768 C 0.98228 0.03904 0.16023 0.0
C1769 C 1.00165 0.03376 0.18543 0.0
C1770 C 0.99122 0.04275 0.13006 0.0
C1771 C 0.01946 0.04023 0.12351 0.0
H1772 H 0.96061 0.04173 0.16437 0.0
H1773 H 0.97598 0.04804 0.11191 0.0
S1774 S 0.07801 0.02605 0.18241 0.0
N1775 N 0.05006 0.0266 0.20257 0.0
N1776 N 0.06645 0.03121 0.14582 0.0
C1777 C 0.03861 0.03399 0.14865 0.0
C1778 C 0.02978 0.03132 0.17952 0.0
C1779 C 0.3013 0.69734 0.48768 0.0
C1780 C 0.28918 0.70022 0.51656 0.0
C1781 C 0.28817 0.70528 0.46009 0.0
C1782 C 0.26285 0.71659 0.46096 0.0
H1783 H 0.31981 0.68708 0.48577 0.0
H1784 H 0.29695 0.70112 0.4376 0.0
S1785 S 0.22708 0.73498 0.53285 0.0
N1786 N 0.25317 0.71898 0.54587 0.0
N1787 N 0.22956 0.73565 0.49428 0.0
C1788 C 0.25238 0.72238 0.49058 0.0
C1789 C 0.26527 0.71368 0.5184 0.0
C1790 C 0.63638 0.04302 0.62593 0.0
C1791 C 0.63984 0.06282 0.65601 0.0
C1792 C 0.61407 0.04256 0.60125 0.0
C1793 C 0.59626 0.06328 0.6058 0.0
H1794 H 0.64879 0.0257 0.62261 0.0
H1795 H 0.6095 0.02454 0.57948 0.0
S1796 S 0.59928 0.12152 0.68003 0.0
N1797 N 0.62532 0.10414 0.68964 0.0
N1798 N 0.58487 0.10564 0.64152 0.0
C1799 C 0.60143 0.08514 0.63504 0.0
C1800 C 0.62317 0.08449 0.66071 0.0
C1801 C 0.3076 0.31604 0.94338 0.0
C1802 C 0.32086 0.34702 0.95962 0.0
C1803 C 0.3042 0.30697 0.90903 0.0
C1804 C 0.31369 0.32823 0.88906 0.0
H1805 H 0.30019 0.29852 0.95734 0.0
H1806 H 0.29427 0.28295 0.89805 0.0
S1807 S 0.35233 0.41172 0.91977 0.0
N1808 N 0.34516 0.39878 0.95307 0.0
N1809 N 0.33834 0.38179 0.88897 0.0
C1810 C 0.32688 0.35934 0.90506 0.0
C1811 C 0.33057 0.36861 0.94008 0.0
C1812 C 1.00699 0.05602 0.39429 0.0
C1813 C 0.99909 0.02775 0.37124 0.0
C1814 C 0.01385 0.05691 0.42789 0.0
C1815 C 0.01262 0.0295 0.43983 0.0
H1816 H 1.00777 0.07763 0.38625 0.0
H1817 H 0.02033 0.07926 0.44463 0.0
S1818 S 0.98652 0.94946 0.38981 0.0
N1819 N 0.98685 0.97181 0.36278 0.0
N1820 N 0.99847 0.97316 0.42583 0.0
C1821 C 1.00346 1.00109 0.41701 0.0
C1822 C 0.99697 1.00029 0.38276 0.0
C1823 C 0.27081 0.72136 0.65705 0.0
C1824 C 0.28303 0.6963 0.65776 0.0
C1825 C 0.27296 0.74242 0.68579 0.0
C1826 C 0.28934 0.73983 0.71486 0.0
H1827 H 0.26073 0.72526 0.63422 0.0
H1828 H 0.26286 0.76144 0.68481 0.0
S1829 S 0.32339 0.67554 0.72702 0.0
N1830 N 0.30779 0.6666 0.68845 0.0
N1831 N 0.317 0.70901 0.74186 0.0
C1832 C 0.30111 0.71403 0.71524 0.0
C1833 C 0.2964 0.69134 0.68672 0.0
C1834 C 0.67002 0.07319 0.84602 0.0
C1835 C 0.65422 0.07212 0.81526 0.0
C1836 C 0.65775 0.07947 0.87393 0.0
C1837 C 0.62941 0.08439 0.87138 0.0
H1838 H 0.69246 0.07087 0.84896 0.0
H1839 H 0.67136 0.08315 0.89759 0.0
S1840 S 0.57637 0.07671 0.79668 0.0
N1841 N 0.60713 0.07185 0.7837 0.0
N1842 N 0.58351 0.08195 0.83679 0.0
C1843 C 0.61198 0.07954 0.84088 0.0
C1844 C 0.62471 0.07418 0.8125 0.0
C1845 C 0.30426 0.31335 0.1415 0.0
C1846 C 0.31504 0.34436 0.13919 0.0
C1847 C 0.29985 0.30518 0.17171 0.0
C1848 C 0.30549 0.32734 0.20135 0.0
H1849 H 0.29985 0.29511 0.1199 0.0
H1850 H 0.29291 0.28102 0.17126 0.0
S1851 S 0.33568 0.41237 0.20816 0.0
N1852 N 0.33276 0.3977 0.16898 0.0
N1853 N 0.32287 0.38271 0.22514 0.0
C1854 C 0.31573 0.35877 0.19889 0.0
C1855 C 0.32088 0.36707 0.16815 0.0
C1856 C 0.25363 0.03174 1.00311 0.0
C1857 C 0.25779 1.00185 0.99924 0.0
C1858 C 0.23282 0.03925 0.02154 0.0
C1859 C 0.21632 0.01696 0.03631 0.0
H1860 H 0.26886 0.05018 0.99539 0.0
H1861 H 0.23187 0.06321 0.02711 0.0
S1862 S 0.21229 0.93341 0.02482 0.0
N1863 N 0.2384 0.9479 0.00446 0.0
N1864 N 0.1996 0.96288 0.03994 0.0
C1865 C 0.21665 0.98598 0.02819 0.0
C1866 C 0.23736 0.97808 0.00898 0.0
C1867 C 0.67836 0.60063 0.02812 0.0
C1868 C 0.68141 0.62737 0.01466 0.0
C1869 C 0.65108 0.58518 0.03563 0.0
C1870 C 0.62492 0.5943 0.02794 0.0
H1871 H 0.69749 0.59181 0.0336 0.0
H1872 H 0.65073 0.56592 0.04765 0.0
S1873 S 0.62183 0.66578 0.99647 0.0
N1874 N 0.65698 0.66505 0.99809 0.0
N1875 N 0.60497 0.63449 0.00891 0.0
C1876 C 0.62794 0.62186 0.0154 0.0
C1877 C 0.65625 0.6386 0.00943 0.0
C1878 C 0.68879 0.4901 0.27944 0.0
C1879 C 0.70309 0.5107 0.30887 0.0
C1880 C 0.69994 0.46566 0.26653 0.0
C1881 C 0.72634 0.4612 0.28195 0.0
H1882 H 0.66893 0.493 0.26586 0.0
H1883 H 0.68851 0.45096 0.24331 0.0
S1884 S 0.76855 0.50402 0.36329 0.0
N1885 N 0.74204 0.52151 0.35625 0.0
N1886 N 0.76378 0.47596 0.33094 0.0
C1887 C 0.73941 0.47966 0.31291 0.0
C1888 C 0.7277 0.50446 0.3265 0.0
C1889 C 0.92319 0.5305 0.52251 0.0
C1890 C 0.91182 0.49965 0.50606 0.0
C1891 C 0.95302 0.54158 0.53574 0.0
C1892 C 0.9722 0.52231 0.53174 0.0
H1893 H 0.90867 0.54559 0.52689 0.0
H1894 H 0.96151 0.56582 0.54783 0.0
S1895 S 0.95301 0.44016 0.48806 0.0
N1896 N 0.92146 0.45033 0.4847 0.0
N1897 N 0.97825 0.47125 0.5096 0.0
C1898 C 0.96114 0.49137 0.51504 0.0
C1899 C 0.9307 0.48015 0.5016 0.0
C1900 C 0.33094 0.1034 0.33867 0.0
C1901 C 0.34577 0.08077 0.33009 0.0
C1902 C 0.32213 0.11939 0.31547 0.0
C1903 C 0.32935 0.11403 0.28374 0.0
H1904 H 0.32714 0.10946 0.3635 0.0
H1905 H 0.31001 0.13627 0.32267 0.0
S1906 S 0.3675 0.05633 0.25039 0.0
N1907 N 0.36439 0.05107 0.28765 0.0
N1908 N 0.35363 0.08565 0.24621 0.0
C1909 C 0.34459 0.0916 0.2755 0.0
C1910 C 0.35119 0.07369 0.29811 0.0
C1911 C 0.33133 0.12529 0.55142 0.0
C1912 C 0.33616 0.14989 0.53473 0.0
C1913 C 0.35429 0.11236 0.56079 0.0
C1914 C 0.38297 0.12354 0.55392 0.0
H1915 H 0.30997 0.11678 0.55867 0.0
H1916 H 0.35016 0.09499 0.57566 0.0
S1917 S 0.40591 0.18244 0.50436 0.0
N1918 N 0.37071 0.18122 0.50665 0.0
N1919 N 0.41422 0.157 0.52516 0.0
C1920 C 0.38765 0.146 0.5346 0.0
C1921 C 0.36414 0.15927 0.52488 0.0
C1922 C 0.73626 0.6823 0.343 0.0
C1923 C 0.7146 0.65943 0.31964 0.0
C1924 C 0.75528 0.7077 0.33428 0.0
C1925 C 0.75422 0.71111 0.30173 0.0
H1926 H 0.73822 0.68097 0.3685 0.0
H1927 H 0.77091 0.72503 0.35331 0.0
S1928 S 0.70364 0.65674 0.23032 0.0
N1929 N 0.69415 0.64163 0.26178 0.0
N1930 N 0.73115 0.68834 0.2455 0.0
C1931 C 0.73368 0.68785 0.27778 0.0
C1932 C 0.71355 0.66238 0.28671 0.0
C1933 C 0.84358 0.42969 0.7804 0.0
C1934 C 0.85125 0.44843 0.81192 0.0
C1935 C 0.83454 0.39731 0.77605 0.0
C1936 C 0.83454 0.38318 0.80312 0.0
H1937 H 0.84411 0.44011 0.75913 0.0
H1938 H 0.82671 0.38356 0.75164 0.0
S1939 S 0.85671 0.42162 0.89013 0.0
N1940 N 0.85907 0.4502 0.87043 0.0
N1941 N 0.84594 0.38954 0.86172 0.0
C1942 C 0.84391 0.40156 0.83444 0.0
C1943 C 0.85119 0.43421 0.83902 0.0
C1944 C 0.05333 0.90232 0.03917 0.0
C1945 C 0.06941 0.9008 0.06948 0.0
C1946 C 0.04873 0.9307 0.0316 0.0
C1947 C 0.05985 0.95971 0.05382 0.0
H1948 H 0.04376 0.88115 0.02096 0.0
H1949 H 0.03622 0.92976 0.00804 0.0
S1950 S 0.10311 0.96905 0.1366 0.0
N1951 N 0.09589 0.93152 0.12161 0.0
N1952 N 0.08822 0.98396 0.10785 0.0
C1953 C 0.07627 0.95836 0.08391 0.0
C1954 C 0.08077 0.92947 0.09155 0.0
C1955 C 0.90152 0.27691 0.90678 0.0
C1956 C 0.93102 0.28331 0.90023 0.0
C1957 C 0.87726 0.27903 0.88431 0.0
C1958 C 0.88111 0.28861 0.85437 0.0
H1959 H 0.89705 0.27024 0.92953 0.0
H1960 H 0.85518 0.27283 0.89054 0.0
S1961 S 0.95348 0.30531 0.8239 0.0
N1962 N 0.96177 0.2964 0.85947 0.0
N1963 N 0.91765 0.30332 0.81974 0.0
C1964 C 0.91051 0.29447 0.84752 0.0
C1965 C 0.93491 0.29125 0.86971 0.0
C1966 C 0.57403 0.19525 0.54349 0.0
C1967 C 0.56666 0.20973 0.57269 0.0
C1968 C 0.57178 0.16284 0.53639 0.0
C1969 C 0.56081 0.14325 0.55748 0.0
H1970 H 0.58175 0.20907 0.52608 0.0
H1971 H 0.57791 0.15294 0.51379 0.0
S1972 S 0.53683 0.16945 0.63591 0.0
N1973 N 0.54753 0.20169 0.6222 0.0
N1974 N 0.54193 0.14135 0.60847 0.0
C1975 C 0.55284 0.15755 0.58629 0.0
C1976 C 0.55606 0.1905 0.59392 0.0
C1977 C 0.60817 0.80972 0.42428 0.0
C1978 C 0.58733 0.782 0.4077 0.0
C1979 C 0.63362 0.82183 0.41155 0.0
C1980 C 0.63901 0.8069 0.3816 0.0
H1981 H 0.60383 0.82335 0.44599 0.0
H1982 H 0.64798 0.84438 0.4239 0.0
S1983 S 0.59612 0.72875 0.33463 0.0
N1984 N 0.57724 0.73625 0.36431 0.0
N1985 N 0.62502 0.75936 0.33986 0.0
C1986 C 0.62048 0.77713 0.36717 0.0
C1987 C 0.59449 0.76472 0.38025 0.0
C1988 C 0.06133 0.24084 0.41489 0.0
C1989 C 0.0556 0.26945 0.42686 0.0
C1990 C 0.05469 0.2161 0.43149 0.0
C1991 C 0.04246 0.21961 0.46043 0.0
H1992 H 0.06731 0.23629 0.39086 0.0
H1993 H 0.05585 0.19331 0.41974 0.0
S1994 S 0.02783 0.29117 0.50389 0.0
N1995 N 0.04138 0.30102 0.47171 0.0
N1996 N 0.02858 0.25472 0.50211 0.0
C1997 C 0.04058 0.24924 0.47457 0.0
C1998 C 0.04735 0.27419 0.45798 0.0
C1999 C 0.66323 0.2816 0.30382 0.0
C2000 C 0.64524 0.2799 0.27364 0.0
C2001 C 0.69403 0.28265 0.3069 0.0
C2002 C 0.70958 0.28282 0.28018 0.0
H2003 H 0.65339 0.28206 0.32579 0.0
H2004 H 0.70596 0.284 0.33091 0.0
S2005 S 0.67388 0.27655 0.19486 0.0
N2006 N 0.64615 0.27655 0.21572 0.0
N2007 N 0.70365 0.27955 0.22161 0.0
C2008 C 0.69205 0.28073 0.24965 0.0
C2009 C 0.66029 0.27899 0.24637 0.0
C2010 C 0.56997 0.94116 0.92722 0.0
C2011 C 0.55826 0.91111 0.93298 0.0
C2012 C 0.5702 0.96845 0.9501 0.0
C2013 C 0.55745 0.96696 0.97896 0.0
H2014 H 0.57794 0.94365 0.9045 0.0
H2015 H 0.57951 0.99088 0.9445 0.0
S2016 S 0.52245 0.89345 0.004 0.0
N2017 N 0.53653 0.88211 0.9716 0.0
N2018 N 0.52942 0.93144 0.00845 0.0
C2019 C 0.54499 0.93681 0.98394 0.0
C2020 C 0.54752 0.90962 0.96274 0.0
C2021 C 0.94718 0.79675 0.79093 0.0
C2022 C 0.95007 0.77905 0.76061 0.0
C2023 C 0.9194 0.80248 0.79823 0.0
C2024 C 0.89219 0.7909 0.77578 0.0
H2025 H 0.9667 0.80619 0.80963 0.0
H2026 H 0.91928 0.8159 0.82202 0.0
S2027 S 0.88645 0.74412 0.69228 0.0
N2028 N 0.92184 0.75068 0.70794 0.0
N2029 N 0.87123 0.76112 0.72098 0.0
C2030 C 0.89491 0.77336 0.74541 0.0
C2031 C 0.92305 0.76756 0.73809 0.0
C2032 C 0.09423 0.09285 0.91419 0.0
C2033 C 0.10161 0.06984 0.89231 0.0
C2034 C 0.08065 0.08579 0.94123 0.0
C2035 C 0.07439 0.05567 0.94802 0.0
H2036 H 0.09929 0.11655 0.91064 0.0
H2037 H 0.07561 0.10426 0.95745 0.0
S2038 S 0.08524 0.98606 0.89548 0.0
N2039 N 0.09826 0.01475 0.87717 0.0
N2040 N 0.07454 1.0021 0.92863 0.0
C2041 C 0.08101 0.03231 0.92582 0.0
C2042 C 0.09419 0.03927 0.89792 0.0
C2043 C 0.80968 0.38347 0.58866 0.0
C2044 C 0.82899 0.40457 0.57499 0.0
C2045 C 0.82087 0.37169 0.61461 0.0
C2046 C 0.85161 0.38065 0.62681 0.0
H2047 H 0.78635 0.37462 0.57793 0.0
H2048 H 0.8059 0.35381 0.62331 0.0
S2049 S 0.90973 0.44033 0.60354 0.0
N2050 N 0.87877 0.43824 0.57927 0.0
N2051 N 0.89994 0.41553 0.62727 0.0
C2052 C 0.87028 0.40432 0.61564 0.0
C2053 C 0.85892 0.41638 0.58966 0.0
C2054 C 0.44745 0.02364 0.4409 0.0
C2055 C 0.45116 0.01362 0.40855 0.0
C2056 C 0.47198 0.03886 0.4649 0.0
C2057 C 0.50062 0.04158 0.45822 0.0
H2058 H 0.42541 0.02132 0.44729 0.0
H2059 H 0.46845 0.04696 0.48898 0.0
S2060 S 0.52219 0.03041 0.37584 0.0
N2061 N 0.48612 0.01472 0.36987 0.0
N2062 N 0.53116 0.04327 0.41545 0.0
C2063 C 0.50455 0.03488 0.42555 0.0
C2064 C 0.48005 0.01976 0.40085 0.0
C2065 C 0.79679 0.72805 0.14375 0.0
C2066 C 0.79237 0.7475 0.12193 0.0
C2067 C 0.79675 0.73701 0.17753 0.0
C2068 C 0.79204 0.76582 0.19121 0.0
H2069 H 0.80115 0.70598 0.13474 0.0
H2070 H 0.80067 0.7212 0.19307 0.0
S2071 S 0.77992 0.82557 0.14444 0.0
N2072 N 0.78356 0.79704 0.11644 0.0
N2073 N 0.7833 0.81396 0.17939 0.0
C2074 C 0.78741 0.78539 0.16943 0.0
C2075 C 0.78769 0.77628 0.13506 0.0
C2076 C 0.10813 0.07042 0.68361 0.0
C2077 C 0.08918 0.05131 0.70002 0.0
C2078 C 0.09963 0.07129 0.65061 0.0
C2079 C 0.07161 0.05364 0.63302 0.0
H2080 H 0.12988 0.08446 0.69616 0.0
H2081 H 0.11501 0.08589 0.6388 0.0
S2082 S 0.01352 1.00033 0.66372 0.0
N2083 N 0.04079 0.01435 0.69518 0.0
N2084 N 0.02508 0.01683 0.63391 0.0
C2085 C 0.05238 0.03497 0.64902 0.0
C2086 C 0.06107 0.03359 0.68228 0.0
C2087 C 0.84311 0.39772 0.39699 0.0
C2088 C 0.82674 0.3983 0.42256 0.0
C2089 C 0.83485 0.37246 0.37096 0.0
C2090 C 0.80861 0.3493 0.36814 0.0
H2091 H 0.864 0.41507 0.39884 0.0
H2092 H 0.85061 0.36932 0.35486 0.0
S2093 S 0.76315 0.33655 0.43329 0.0
N2094 N 0.78705 0.37088 0.44738 0.0
N2095 N 0.7695 0.3251 0.3961 0.0
C2096 C 0.79201 0.34962 0.39384 0.0
C2097 C 0.80133 0.37423 0.42139 0.0
C2098 C 0.47053 0.02274 0.26536 0.0
C2099 C 0.44068 0.02362 0.26034 0.0
C2100 C 0.48235 0.00732 0.24059 0.0
C2101 C 0.46447 0.99234 0.21043 0.0
H2102 H 0.48552 0.03671 0.28711 0.0
H2103 H 0.50581 0.00825 0.24449 0.0
S2104 S 0.38343 0.98157 0.18831 0.0
N2105 N 0.39224 1.00263 0.22581 0.0
N2106 N 0.41483 0.97534 0.1784 0.0
C2107 C 0.43401 0.99041 0.20634 0.0
C2108 C 0.42191 1.00534 0.23183 0.0
C2109 C 0.77107 0.75811 0.92424 0.0
C2110 C 0.79694 0.76116 0.94672 0.0
C2111 C 0.7728 0.76738 0.89385 0.0
C2112 C 0.80041 0.77842 0.88374 0.0
H2113 H 0.74934 0.74832 0.92999 0.0
H2114 H 0.75229 0.76507 0.87775 0.0
S2115 S 0.87481 0.79281 0.93323 0.0
N2116 N 0.85134 0.77909 0.95673 0.0
N2117 N 0.85394 0.79296 0.89903 0.0
C2118 C 0.82624 0.78181 0.90584 0.0
C2119 C 0.82466 0.77402 0.93729 0.0
C2120 C 0.84098 0.10479 0.04948 0.0
C2121 C 0.84087 0.09485 0.0792 0.0
C2122 C 0.85787 0.09506 0.02716 0.0
C2123 C 0.87445 0.07397 0.03296 0.0
H2124 H 0.82752 0.11993 0.04307 0.0
H2125 H 0.8574 0.10388 0.00488 0.0
S2126 S 0.88343 0.04419 0.10974 0.0
N2127 N 0.8603 0.06611 0.11558 0.0
N2128 N 0.89128 0.0454 0.07271 0.0
C2129 C 0.87531 0.06475 0.06352 0.0
C2130 C 0.8584 0.07554 0.08671 0.0
C2131 C 0.40894 0.48467 0.0512 0.0
C2132 C 0.40519 0.45347 0.05373 0.0
C2133 C 0.43685 0.50386 0.04998 0.0
C2134 C 0.4626 0.49314 0.05194 0.0
H2135 H 0.39007 0.49454 0.05002 0.0
H2136 H 0.43774 0.52699 0.04663 0.0
S2137 S 0.4644 0.41233 0.05799 0.0
N2138 N 0.42908 0.41201 0.05699 0.0
N2139 N 0.48193 0.44821 0.05673 0.0
C2140 C 0.4591 0.4618 0.0551 0.0
C2141 C 0.43039 0.44202 0.05554 0.0
C2142 C 0.40436 0.6112 0.77405 0.0
C2143 C 0.38941 0.58031 0.77407 0.0
C2144 C 0.39334 0.63573 0.78793 0.0
C2145 C 0.36707 0.62958 0.80142 0.0
H2146 H 0.42665 0.61665 0.76816 0.0
H2147 H 0.40701 0.65937 0.79141 0.0
S2148 S 0.31679 0.55278 0.80008 0.0
N2149 N 0.34447 0.54496 0.78239 0.0
N2150 N 0.324 0.59103 0.80873 0.0
C2151 C 0.34979 0.59894 0.79671 0.0
C2152 C 0.36077 0.57416 0.78238 0.0
C2153 C 0.17279 0.59938 0.55562 0.0
C2154 C 0.1878 0.57596 0.54967 0.0
C2155 C 0.14192 0.59191 0.55157 0.0
C2156 C 0.12552 0.5609 0.5416 0.0
H2157 H 0.18489 0.62354 0.56467 0.0
H2158 H 0.13112 0.61005 0.55887 0.0
S2159 S 0.15356 0.49115 0.52464 0.0
N2160 N 0.18372 0.52061 0.53486 0.0
N2161 N 0.12532 0.50682 0.52558 0.0
C2162 C 0.13999 0.53751 0.53448 0.0
C2163 C 0.17135 0.54492 0.53941 0.0
C2164 C 0.78563 1.00662 0.75246 0.0
C2165 C 0.75512 1.00387 0.74541 0.0
C2166 C 0.79634 0.99369 0.7775 0.0
C2167 C 0.77653 0.97786 0.79528 0.0
H2168 H 0.80133 0.02299 0.74271 0.0
H2169 H 0.82016 0.99805 0.78464 0.0
S2170 S 0.69437 0.95812 0.77984 0.0
N2171 N 0.70498 0.97762 0.75168 0.0
N2172 N 0.72535 0.95529 0.80062 0.0
C2173 C 0.74589 0.9706 0.78469 0.0
C2174 C 0.73504 0.98201 0.75788 0.0
C2175 C 0.75916 0.97259 0.53778 0.0
C2176 C 0.75151 0.9508 0.5574 0.0
C2177 C 0.73723 0.98193 0.51994 0.0
C2178 C 0.70708 0.9701 0.52161 0.0
H2179 H 0.78219 0.9815 0.5352 0.0
H2180 H 0.74379 0.99792 0.50406 0.0
S2181 S 0.67578 0.91425 0.57131 0.0
N2182 N 0.7121 0.91846 0.57862 0.0
N2183 N 0.67055 0.937 0.54567 0.0
C2184 C 0.69915 0.94937 0.54226 0.0
C2185 C 0.72152 0.93934 0.55998 0.0
C2186 C 0.36102 0.43084 0.76579 0.0
C2187 C 0.39201 0.43774 0.7747 0.0
C2188 C 0.34275 0.40131 0.76553 0.0
C2189 C 0.35453 0.37771 0.77481 0.0
H2190 H 0.3507 0.4489 0.76075 0.0
H2191 H 0.31928 0.39741 0.75869 0.0
S2192 S 0.43534 0.3836 0.79573 0.0
N2193 N 0.43431 0.41846 0.78993 0.0
N2194 N 0.40037 0.36256 0.7882 0.0
C2195 C 0.38594 0.3837 0.78061 0.0
C2196 C 0.40452 0.41388 0.78107 0.0
C2197 C 0.27206 0.6637 0.25492 0.0
C2198 C 0.24584 0.65192 0.26638 0.0
C2199 C 0.28288 0.69553 0.25806 0.0
C2200 C 0.26726 0.71589 0.272 0.0
H2201 H 0.28511 0.64848 0.2455 0.0
H2202 H 0.30439 0.70417 0.25138 0.0
S2203 S 0.19492 0.69399 0.30139 0.0
N2204 N 0.20301 0.66087 0.28928 0.0
N2205 N 0.22242 0.72119 0.29434 0.0
C2206 C 0.23958 0.70367 0.28114 0.0
C2207 C 0.22904 0.67135 0.27847 0.0
C2208 C 0.5088 0.6639 0.48571 0.0
C2209 C 0.5172 0.69201 0.50936 0.0
C2210 C 0.51585 0.63608 0.49154 0.0
C2211 C 0.53172 0.63407 0.52158 0.0
H2212 H 0.49661 0.66336 0.4621 0.0
H2213 H 0.50863 0.61573 0.47196 0.0
S2214 S 0.55719 0.70008 0.59325 0.0
N2215 N 0.54147 0.71516 0.56512 0.0
N2216 N 0.55427 0.66363 0.57608 0.0
C2217 C 0.53998 0.66198 0.54569 0.0
C2218 C 0.53288 0.69045 0.53965 0.0
C2219 C 0.70457 0.34648 0.71483 0.0
C2220 C 0.68204 0.32233 0.69354 0.0
C2221 C 0.72901 0.34082 0.73387 0.0
C2222 C 0.7321 0.31058 0.73344 0.0
H2223 H 0.70316 0.37023 0.7171 0.0
H2224 H 0.74546 0.36041 0.74958 0.0
S2225 S 0.67793 0.23828 0.68553 0.0
N2226 N 0.66405 0.26626 0.67527 0.0
N2227 N 0.70898 0.25571 0.71162 0.0
C2228 C 0.70946 0.286 0.71304 0.0
C2229 C 0.68483 0.29181 0.69304 0.0
C2230 C 0.0217 0.39907 0.98185 0.0
C2231 C 0.01851 0.38202 0.00701 0.0
C2232 C 0.02739 0.43212 0.98799 0.0
C2233 C 0.03024 0.45012 0.01968 0.0
H2234 H 0.01902 0.38665 0.95693 0.0
H2235 H 0.0289 0.44361 0.96753 0.0
S2236 S 0.02905 0.41796 0.09506 0.0
N2237 N 0.02199 0.38679 0.06557 0.0
N2238 N 0.03277 0.44794 0.07698 0.0
C2239 C 0.0283 0.43344 0.04517 0.0
C2240 C 0.02244 0.39987 0.03892 0.0
C2241 C 0.02466 0.78862 0.19357 0.0
C2242 C 0.0228 0.8071 0.17028 0.0
C2243 C 1.00092 0.77916 0.21011 0.0
C2244 C 0.97398 0.78755 0.20421 0.0
H2245 H 0.04421 0.78022 0.19808 0.0
H2246 H 1.00303 0.76343 0.22639 0.0
S2247 S 0.96089 0.84239 0.15155 0.0
N2248 N 0.99418 0.83817 0.14625 0.0
N2249 N 0.94918 0.8202 0.17728 0.0
C2250 C 0.97285 0.80846 0.18313 0.0
C2251 C 0.99724 0.81806 0.16603 0.0
C2252 C 0.52189 0.32222 0.12606 0.0
C2253 C 0.52991 0.32658 0.16016 0.0
C2254 C 0.53187 0.34606 0.10923 0.0
C2255 C 0.5497 0.37548 0.12589 0.0
H2256 H 0.50895 0.29969 0.11202 0.0
H2257 H 0.52713 0.34085 0.08284 0.0
S2258 S 0.57323 0.40069 0.2154 0.0
N2259 N 0.55449 0.36384 0.21017 0.0
N2260 N 0.57243 0.40866 0.17859 0.0
C2261 C 0.55613 0.38082 0.16011 0.0
C2262 C 0.54654 0.35641 0.17722 0.0
C2263 C 0.94021 0.30029 0.28953 0.0
C2264 C 0.96064 0.32133 0.31584 0.0
C2265 C 0.90862 0.2957 0.28692 0.0
C2266 C 0.89543 0.31199 0.31032 0.0
H2267 H 0.94863 0.28653 0.27114 0.0
H2268 H 0.89434 0.27918 0.2662 0.0
S2269 S 0.93837 0.37042 0.38357 0.0
N2270 N 0.96443 0.35912 0.36542 0.0
N2271 N 0.90624 0.35055 0.3606 0.0
C2272 C 0.91563 0.33334 0.3364 0.0
C2273 C 0.94766 0.33787 0.33917 0.0
C2274 C 1.00832 0.64575 0.63884 0.0
C2275 C 0.0285 0.67564 0.64709 0.0
C2276 C 0.01418 0.62052 0.61829 0.0
C2277 C 0.04005 0.62395 0.60377 0.0
H2278 H 0.98768 0.64169 0.64857 0.0
H2279 H 0.99786 0.59815 0.61315 0.0
S2280 S 0.1002 0.69718 0.6165 0.0
N2281 N 0.07594 0.70683 0.63896 0.0
N2282 N 0.08623 0.66003 0.59929 0.0
C2283 C 0.06038 0.65373 0.61144 0.0
C2284 C 0.05484 0.6793 0.6333 0.0
C2285 C 0.68197 0.84576 0.81082 0.0
C2286 C 0.65784 0.82208 0.81548 0.0
C2287 C 0.71047 0.84071 0.80677 0.0
C2288 C 0.71658 0.81133 0.80584 0.0
H2289 H 0.67866 0.8684 0.80954 0.0
H2290 H 0.72773 0.86005 0.80336 0.0
S2291 S 0.66142 0.74142 0.81738 0.0
N2292 N 0.64273 0.76805 0.81931 0.0
N2293 N 0.69513 0.75856 0.81151 0.0
C2294 C 0.69263 0.7876 0.81071 0.0
C2295 C 0.66382 0.79292 0.81538 0.0
C2296 C 0.52565 0.5221 0.67354 0.0
C2297 C 0.50202 0.53271 0.68434 0.0
C2298 C 0.53332 0.52512 0.64293 0.0
C2299 C 0.51804 0.53939 0.62189 0.0
H2300 H 0.5387 0.5118 0.68914 0.0
H2301 H 0.5519 0.51671 0.6361 0.0
S2302 S 0.45458 0.57157 0.63881 0.0
N2303 N 0.46296 0.55775 0.67148 0.0
N2304 N 0.47805 0.56426 0.6142 0.0
C2305 C 0.49397 0.54964 0.63211 0.0
C2306 C 0.4858 0.54609 0.66324 0.0
C2307 C 0.76861 0.17362 0.9858 0.0
C2308 C 0.7908 0.19175 0.01179 0.0
C2309 C 0.75761 0.187 0.96141 0.0
C2310 C 0.76838 0.21884 0.96249 0.0
H2311 H 0.7591 0.14911 0.98476 0.0
H2312 H 0.73961 0.17273 0.94244 0.0
S2313 S 0.8273 0.27582 0.02423 0.0
N2314 N 0.82387 0.24266 0.03664 0.0
N2315 N 0.80346 0.26785 0.98987 0.0
C2316 C 0.79168 0.23688 0.98717 0.0
C2317 C 0.80278 0.22329 0.01223 0.0
C2318 C 0.13561 0.54363 0.12864 0.0
C2319 C 0.14033 0.56606 0.15726 0.0
C2320 C 0.11408 0.54302 0.10294 0.0
C2321 C 0.09879 0.56612 0.10498 0.0
H2322 H 0.14579 0.52446 0.12769 0.0
H2323 H 0.10727 0.52281 0.08319 0.0
S2324 S 0.10669 0.63169 0.1738 0.0
N2325 N 0.13024 0.61255 0.18619 0.0
N2326 N 0.09175 0.61348 0.13604 0.0
C2327 C 0.1061 0.5907 0.13212 0.0
C2328 C 0.12668 0.59027 0.1589 0.0
C2329 C 0.83391 0.86702 0.44156 0.0
C2330 C 0.8214 0.84704 0.46161 0.0
C2331 C 0.8301 0.85734 0.40711 0.0
C2332 C 0.81386 0.82699 0.39085 0.0
H2333 H 0.84733 0.8903 0.45271 0.0
H2334 H 0.84055 0.8736 0.39314 0.0
S2335 S 0.77335 0.76667 0.43102 0.0
N2336 N 0.78989 0.79607 0.46172 0.0
N2337 N 0.78286 0.77805 0.39766 0.0
C2338 C 0.80044 0.80715 0.41047 0.0
C2339 C 0.80418 0.81705 0.44552 0.0
C2340 C 0.51681 0.51467 0.88527 0.0
C2341 C 0.49602 0.53023 0.87488 0.0
C2342 C 0.52621 0.51647 0.9187 0.0
C2343 C 0.51498 0.53358 0.94328 0.0
H2344 H 0.52592 0.501 0.8675 0.0
H2345 H 0.54247 0.50426 0.9252 0.0
S2346 S 0.46218 0.58109 0.92927 0.0
N2347 N 0.4666 0.56581 0.89242 0.0
N2348 N 0.48288 0.56755 0.95449 0.0
C2349 C 0.49446 0.54952 0.93318 0.0
C2350 C 0.48537 0.54825 0.89928 0.0
C2351 C 0.77272 0.22196 0.15221 0.0
C2352 C 0.77421 0.19167 0.15319 0.0
C2353 C 0.78009 0.24479 0.18065 0.0
C2354 C 0.79063 0.23837 0.21061 0.0
H2355 H 0.76806 0.22855 0.12903 0.0
H2356 H 0.77806 0.26761 0.17874 0.0
S2357 S 0.79531 0.16074 0.22528 0.0
N2358 N 0.7822 0.15467 0.18607 0.0
N2359 N 0.80062 0.19829 0.23913 0.0
C2360 C 0.79102 0.20747 0.21172 0.0
C2361 C 0.7812 0.18387 0.18315 0.0
C2362 C 0.13491 0.55732 0.31979 0.0
C2363 C 0.16543 0.5715 0.32245 0.0
C2364 C 0.11986 0.56367 0.34554 0.0
C2365 C 0.13513 0.58446 0.37427 0.0
H2366 H 0.12232 0.54267 0.297 0.0
H2367 H 0.09588 0.55451 0.34197 0.0
S2368 S 0.21549 0.62436 0.39469 0.0
N2369 N 0.21089 0.60483 0.35677 0.0
N2370 N 0.1824 0.61608 0.40595 0.0
C2371 C 0.16608 0.59631 0.37842 0.0
C2372 C 0.1814 0.59013 0.35208 0.0
C2373 C 0.83153 0.822 0.65442 0.0
C2374 C 0.81561 0.84087 0.64073 0.0
C2375 C 0.82691 0.81329 0.68438 0.0
C2376 C 0.80652 0.8234 0.70282 0.0
H2377 H 0.84827 0.81424 0.64218 0.0
H2378 H 0.84021 0.79919 0.69367 0.0
S2379 S 0.75798 0.872 0.67834 0.0
N2380 N 0.77735 0.86836 0.64829 0.0
N2381 N 0.76943 0.85246 0.70462 0.0
C2382 C 0.79012 0.84187 0.68949 0.0
C2383 C 0.79441 0.85039 0.65858 0.0
C2384 C 0.73712 0.48115 0.5087 0.0
C2385 C 0.75798 0.50391 0.4982 0.0
C2386 C 0.71744 0.48992 0.52801 0.0
C2387 C 0.71748 0.52111 0.53556 0.0
H2388 H 0.73864 0.45739 0.50614 0.0
H2389 H 0.70408 0.47291 0.53927 0.0
S2390 S 0.75856 0.58606 0.50235 0.0
N2391 N 0.77174 0.55646 0.48878 0.0
N2392 N 0.73267 0.57267 0.52356 0.0
C2393 C 0.73366 0.54257 0.51969 0.0
C2394 C 0.75445 0.53389 0.50095 0.0
C2395 C 0.15305 0.11939 0.49047 0.0
C2396 C 0.17856 0.12855 0.51458 0.0
C2397 C 0.12574 0.10184 0.49624 0.0
C2398 C 0.1232 0.0921 0.52599 0.0
H2399 H 0.15436 0.12526 0.46676 0.0
H2400 H 0.10666 0.0951 0.4769 0.0
S2401 S 0.18327 0.11145 0.59757 0.0
N2402 N 0.19941 0.12771 0.56973 0.0
N2403 N 0.14833 0.09434 0.58042 0.0
C2404 C 0.14853 0.10144 0.55043 0.0
C2405 C 0.17615 0.11972 0.54472 0.0
C2406 C 0.18652 0.98399 0.78802 0.0
C2407 C 0.20497 0.012 0.80711 0.0
C2408 C 0.19834 0.95958 0.77634 0.0
C2409 C 0.22907 0.96257 0.78283 0.0
H2410 H 0.16281 0.98106 0.78166 0.0
H2411 H 0.18361 0.93891 0.76034 0.0
S2412 S 0.28628 0.02966 0.83508 0.0
N2413 N 0.25489 0.04016 0.83519 0.0
N2414 N 0.27737 0.9943 0.81215 0.0
C2415 C 0.24751 0.98952 0.80383 0.0
C2416 C 0.23537 0.01434 0.81616 0.0
C2417 C 0.42338 0.03195 0.01564 0.0
C2418 C 0.41145 1.00072 1.0014 0.0
C2419 C 0.45238 0.04218 0.03117 0.0
C2420 C 0.47082 0.02192 0.03094 0.0
H2421 H 0.40953 0.048 0.01757 0.0
H2422 H 0.46094 0.06672 0.04161 0.0
S2423 S 0.45051 0.93849 0.99163 0.0
N2424 N 0.42003 0.95 0.98389 0.0
N2425 N 0.47568 0.96942 0.01364 0.0
C2426 C 0.45947 0.99066 0.01548 0.0
C2427 C 0.42962 0.98021 0.99965 0.0
C2428 C 0.87056 0.60085 0.81537 0.0
C2429 C 0.85405 0.59057 0.83928 0.0
C2430 C 0.85865 0.6136 0.79142 0.0
C2431 C 0.83053 0.61847 0.79151 0.0
H2432 H 0.8924 0.59737 0.81363 0.0
H2433 H 0.87156 0.61962 0.77263 0.0
S2434 S 0.78258 0.60604 0.85453 0.0
N2435 N 0.81066 0.59168 0.86515 0.0
N2436 N 0.78907 0.6193 0.8212 0.0
C2437 C 0.81532 0.61254 0.81759 0.0
C2438 C 0.827 0.59789 0.84143 0.0
C2439 C 0.83612 0.62111 0.03407 0.0
C2440 C 0.84165 0.65334 0.03551 0.0
C2441 C 0.85914 0.60782 0.04308 0.0
C2442 C 0.88839 0.62634 0.054 0.0
H2443 H 0.81364 0.60617 0.02725 0.0
H2444 H 0.85357 0.58345 0.04427 0.0
S2445 S 0.91589 0.71063 0.05712 0.0
N2446 N 0.8797 0.70244 0.0444 0.0
N2447 N 0.92263 0.67738 0.06179 0.0
C2448 C 0.89479 0.65786 0.05248 0.0
C2449 C 0.87145 0.67143 0.04319 0.0
C2450 C 0.21468 0.16217 0.78814 0.0
C2451 C 0.2138 0.15991 0.82108 0.0
C2452 C 0.23417 0.18771 0.77961 0.0
C2453 C 0.25309 0.21232 0.80368 0.0
H2454 H 0.20046 0.14394 0.76877 0.0
H2455 H 0.23384 0.18859 0.75408 0.0
S2456 S 0.26 0.21772 0.8929 0.0
N2457 N 0.2344 0.18476 0.87749 0.0
N2458 N 0.27012 0.23217 0.86135 0.0
C2459 C 0.2525 0.21011 0.83634 0.0
C2460 C 0.23316 0.18416 0.84506 0.0
C2461 C 0.36719 0.93359 0.29555 0.0
C2462 C 0.34765 0.94985 0.30845 0.0
C2463 C 0.36139 0.90131 0.29326 0.0
C2464 C 0.33627 0.8851 0.3044 0.0
H2465 H 0.38833 0.94613 0.29043 0.0
H2466 H 0.37728 0.88945 0.28439 0.0
S2467 S 0.2778 0.91829 0.33721 0.0
N2468 N 0.30092 0.94759 0.32765 0.0
N2469 N 0.29124 0.88829 0.32685 0.0
C2470 C 0.31576 0.9013 0.31484 0.0
C2471 C 0.32085 0.93329 0.31531 0.0
C2472 C 0.55297 0.40221 0.54007 0.0
C2473 C 0.56882 0.40071 0.57055 0.0
C2474 C 0.5484 0.43052 0.53234 0.0
C2475 C 0.55935 0.45951 0.55454 0.0
H2476 H 0.54354 0.38104 0.52183 0.0
H2477 H 0.53607 0.42956 0.50866 0.0
S2478 S 0.60139 0.46909 0.63806 0.0
N2479 N 0.59471 0.43157 0.62298 0.0
N2480 N 0.58684 0.48387 0.609 0.0
C2481 C 0.57542 0.45824 0.5849 0.0
C2482 C 0.57996 0.42941 0.59269 0.0
C2483 C 0.40293 0.78039 0.4095 0.0
C2484 C 0.43191 0.78372 0.40174 0.0
C2485 C 0.3789 0.78324 0.38725 0.0
C2486 C 0.38233 0.78948 0.35587 0.0
H2487 H 0.3988 0.776 0.43319 0.0
H2488 H 0.35734 0.78054 0.39491 0.0
S2489 S 0.45374 0.80007 0.32328 0.0
N2490 N 0.4621 0.79262 0.35959 0.0
N2491 N 0.41831 0.79987 0.31957 0.0
C2492 C 0.41133 0.79294 0.34813 0.0
C2493 C 0.43558 0.78959 0.37045 0.0
C2494 C 0.072 0.6956 0.0433 0.0
C2495 C 0.06726 0.711 0.07354 0.0
C2496 C 0.06962 0.66316 0.03663 0.0
C2497 C 0.06101 0.64438 0.05928 0.0
H2498 H 0.07781 0.70874 0.02474 0.0
H2499 H 0.07378 0.65258 0.0132 0.0
S2500 S 0.044 0.67307 0.1409 0.0
N2501 N 0.05311 0.70467 0.12576 0.0
N2502 N 0.0467 0.64419 0.11272 0.0
C2503 C 0.05547 0.65956 0.0891 0.0
C2504 C 0.05904 0.69259 0.0963 0.0
C2505 C 0.0821 0.30091 0.87872 0.0
C2506 C 0.08316 0.28051 0.9 0.0
C2507 C 0.10737 0.31404 0.86625 0.0
C2508 C 0.13476 0.3074 0.87467 0.0
H2509 H 0.06178 0.30753 0.87244 0.0
H2510 H 0.10578 0.3306 0.85084 0.0
S2511 S 0.14799 0.25242 0.927 0.0
N2512 N 0.11268 0.25205 0.92723 0.0
N2513 N 0.16066 0.27684 0.90368 0.0
C2514 C 0.13572 0.28563 0.89466 0.0
C2515 C 0.10979 0.27229 0.90753 0.0
C2516 C 0.56448 0.76791 0.95054 0.0
C2517 C 0.55693 0.76136 0.91635 0.0
C2518 C 0.55811 0.74424 0.96827 0.0
C2519 C 0.54382 0.71345 0.95225 0.0
H2520 H 0.572 0.79182 0.9638 0.0
H2521 H 0.56097 0.75065 0.99461 0.0
S2522 S 0.52309 0.68384 0.86319 0.0
N2523 N 0.5378 0.72153 0.86718 0.0
N2524 N 0.52572 0.67712 0.90052 0.0
C2525 C 0.53956 0.70616 0.91809 0.0
C2526 C 0.54616 0.73018 0.90007 0.0
C2527 C 0.1615 0.79265 0.75245 0.0
C2528 C 0.14284 0.7787 0.77288 0.0
C2529 C 0.19256 0.79397 0.75589 0.0
C2530 C 0.20691 0.78114 0.77969 0.0
H2531 H 0.15231 0.80356 0.7343 0.0
H2532 H 0.20552 0.80563 0.73984 0.0
S2533 S 0.16801 0.74149 0.83898 0.0
N2534 N 0.14146 0.7513 0.8174 0.0
N2535 N 0.19858 0.75398 0.82397 0.0
C2536 C 0.18823 0.76689 0.79987 0.0
C2537 C 0.15681 0.76567 0.79645 0.0
C2538 C 0.06435 0.44196 0.42171 0.0
C2539 C 0.06017 0.41227 0.4293 0.0
C2540 C 0.06497 0.46846 0.44571 0.0
C2541 C 0.05963 0.4663 0.47792 0.0
H2542 H 0.06559 0.44452 0.39683 0.0
H2543 H 0.06825 0.4906 0.43831 0.0
S2544 S 0.05127 0.39377 0.51027 0.0
N2545 N 0.05528 0.38313 0.47214 0.0
N2546 N 0.05281 0.43105 0.5153 0.0
C2547 C 0.05709 0.43677 0.48561 0.0
C2548 C 0.05818 0.41043 0.46189 0.0
C2549 C 0.44803 0.30781 0.27802 0.0
C2550 C 0.45091 0.27872 0.26152 0.0
C2551 C 0.42005 0.31289 0.28537 0.0
C2552 C 0.39261 0.28926 0.27686 0.0
H2553 H 0.46771 0.32722 0.28516 0.0
H2554 H 0.41999 0.33591 0.29755 0.0
S2555 S 0.38765 0.20718 0.23881 0.0
N2556 N 0.42311 0.22498 0.24058 0.0
N2557 N 0.37196 0.23422 0.25396 0.0
C2558 C 0.39549 0.25982 0.26151 0.0
C2559 C 0.42389 0.25467 0.25405 0.0
C2560 C 0.58275 0.58472 0.40563 0.0
C2561 C 0.60372 0.56991 0.39393 0.0
C2562 C 0.56961 0.57739 0.43273 0.0
C2563 C 0.57675 0.55482 0.44916 0.0
H2564 H 0.57666 0.60236 0.39399 0.0
H2565 H 0.55414 0.59 0.4413 0.0
S2566 S 0.62585 0.50499 0.42471 0.0
N2567 N 0.62803 0.52857 0.39872 0.0
N2568 N 0.6034 0.51515 0.44932 0.0
C2569 C 0.59662 0.53885 0.43687 0.0
C2570 C 0.61004 0.54628 0.40939 0.0
C2571 C 0.31114 0.91061 0.10538 0.0
C2572 C 0.30904 0.89556 0.07292 0.0
C2573 C 0.32159 0.89781 0.13079 0.0
C2574 C 0.32867 0.86928 0.12383 0.0
H2575 H 0.31029 0.93462 0.11096 0.0
H2576 H 0.32761 0.9119 0.15526 0.0
S2577 S 0.31753 0.81697 0.0436 0.0
N2578 N 0.30765 0.84792 0.03563 0.0
N2579 N 0.32646 0.82337 0.08365 0.0
C2580 C 0.32101 0.85156 0.09211 0.0
C2581 C 0.31063 0.86465 0.06637 0.0
C2582 C 0.98146 0.5234 0.89846 0.0
C2583 C 0.95121 0.51215 0.9004 0.0
C2584 C 1.002 0.53887 0.92595 0.0
C2585 C 0.99354 0.54276 0.95668 0.0
H2586 H 0.98956 0.52112 0.8754 0.0
H2587 H 0.02473 0.54684 0.92288 0.0
S2588 S 0.91603 0.52533 0.974 0.0
N2589 N 0.913 0.50995 0.93502 0.0
N2590 N 0.95183 0.54205 0.98635 0.0
C2591 C 0.96295 0.53524 0.95854 0.0
C2592 C 0.94186 0.51842 0.93064 0.0
C2593 C 0.28345 0.27141 0.63496 0.0
C2594 C 0.29364 0.24574 0.62208 0.0
C2595 C 0.28302 0.27994 0.66887 0.0
C2596 C 0.29294 0.26334 0.69158 0.0
H2597 H 0.27625 0.28535 0.61882 0.0
H2598 H 0.27531 0.30012 0.67735 0.0
S2599 S 0.32125 0.19374 0.66977 0.0
N2600 N 0.31331 0.20355 0.63452 0.0
N2601 N 0.3128 0.21923 0.69747 0.0
C2602 C 0.30281 0.23735 0.67862 0.0
C2603 C 0.3031 0.22872 0.64423 0.0
C2604 C 0.60243 0.58052 0.18967 0.0
C2605 C 0.58927 0.55477 0.20273 0.0
C2606 C 0.59413 0.58148 0.15669 0.0
C2607 C 0.573 0.55636 0.13562 0.0
H2608 H 0.61895 0.60022 0.20513 0.0
H2609 H 0.60471 0.60157 0.14751 0.0
S2610 S 0.53285 0.4832 0.15678 0.0
N2611 N 0.55428 0.50348 0.19123 0.0
N2612 N 0.53944 0.50513 0.12962 0.0
C2613 C 0.56004 0.5305 0.14819 0.0
C2614 C 0.56798 0.52971 0.18163 0.0
C2615 C 0.3519 0.88238 0.91763 0.0
C2616 C 0.33128 0.8937 0.93391 0.0
C2617 C 0.34219 0.85988 0.88969 0.0
C2618 C 0.31201 0.8494 0.87653 0.0
H2619 H 0.37558 0.89031 0.92695 0.0
H2620 H 0.35834 0.8508 0.87794 0.0
S2621 S 0.24916 0.87266 0.90878 0.0
N2622 N 0.27917 0.89368 0.93483 0.0
N2623 N 0.26126 0.85141 0.88023 0.0
C2624 C 0.29105 0.86132 0.89138 0.0
C2625 C 0.30074 0.88387 0.9206 0.0
C2626 C 0.968 0.52371 0.76454 0.0
C2627 C 0.93853 0.52537 0.75744 0.0
C2628 C 0.98018 0.50663 0.74153 0.0
C2629 C 0.96288 0.4906 0.71138 0.0
H2630 H 0.98256 0.5384 0.78623 0.0
H2631 H 1.00358 0.50746 0.74649 0.0
S2632 S 0.88252 0.48143 0.68552 0.0
N2633 N 0.89073 0.50462 0.72193 0.0
N2634 N 0.91389 0.47338 0.67792 0.0
C2635 C 0.93254 0.48932 0.70581 0.0
C2636 C 0.92012 0.50622 0.7294 0.0
C2637 C 0.27107 0.25782 0.42372 0.0
C2638 C 0.29683 0.26089 0.4464 0.0
C2639 C 0.27295 0.26699 0.39329 0.0
C2640 C 0.30062 0.27795 0.38324 0.0
H2641 H 0.24928 0.24798 0.4293 0.0
H2642 H 0.2525 0.26468 0.37709 0.0
S2643 S 0.37476 0.29337 0.4337 0.0
N2644 N 0.35115 0.27947 0.457 0.0
N2645 N 0.3541 0.29313 0.39919 0.0
C2646 C 0.32635 0.28167 0.40568 0.0
C2647 C 0.32459 0.27398 0.43721 0.0
C2648 C 0.35376 0.57254 0.57819 0.0
C2649 C 0.33462 0.59021 0.56973 0.0
C2650 C 0.36996 0.5614 0.55528 0.0
C2651 C 0.36765 0.56832 0.52377 0.0
H2652 H 0.35614 0.56734 0.60234 0.0
H2653 H 0.3839 0.54689 0.56215 0.0
S2654 S 0.32142 0.61612 0.49185 0.0
N2655 N 0.31352 0.61402 0.52854 0.0
N2656 N 0.34674 0.59675 0.48715 0.0
C2657 C 0.34929 0.58721 0.51598 0.0
C2658 C 0.33193 0.59713 0.53854 0.0
C2659 C 0.92061 0.98201 0.57874 0.0
C2660 C 0.90496 0.95485 0.55576 0.0
C2661 C 0.94747 1.00103 0.57349 0.0
C2662 C 0.95914 0.99387 0.54476 0.0
H2663 H 0.91194 0.98867 0.60078 0.0
H2664 H 0.95931 0.02125 0.59212 0.0
S2665 S 0.92419 0.92755 0.47555 0.0
N2666 N 0.90207 0.92267 0.50297 0.0
N2667 N 0.95106 0.95947 0.49179 0.0
C2668 C 0.94298 0.96741 0.52123 0.0
C2669 C 0.91621 0.94766 0.52704 0.0
C2670 C 0.9097 0.11237 0.2774 0.0
C2671 C 0.8932 0.08118 0.27245 0.0
C2672 C 0.89786 0.13628 0.29088 0.0
C2673 C 0.86901 0.12943 0.29859 0.0
H2674 H 0.93326 0.11798 0.27595 0.0
H2675 H 0.91237 0.15964 0.29867 0.0
S2676 S 0.81444 0.0525 0.28143 0.0
N2677 N 0.84499 0.04536 0.26985 0.0
N2678 N 0.82228 0.09057 0.29408 0.0
C2679 C 0.85078 0.09905 0.28856 0.0
C2680 C 0.86297 0.07473 0.27535 0.0
C2681 C 0.67276 0.07281 0.02376 0.0
C2682 C 0.69116 0.07704 0.05378 0.0
C2683 C 0.64294 0.0725 0.02298 0.0
C2684 C 0.6318 0.07718 0.0522 0.0
H2685 H 0.68102 0.06806 1.00102 0.0
H2686 H 0.6282 0.06596 0.99974 0.0
S2687 S 0.67407 0.10177 0.13594 0.0
N2688 N 0.69843 0.09422 0.11269 0.0
N2689 N 0.64229 0.0949 0.11097 0.0
C2690 C 0.65103 0.08643 0.08197 0.0
C2691 C 0.68096 0.08587 0.08286 0.0
C2692 C 0.23716 0.50354 0.28031 0.0
C2693 C 0.25176 0.51004 0.25421 0.0
C2694 C 0.24866 0.48868 0.30274 0.0
C2695 C 0.27433 0.47892 0.29865 0.0
H2696 H 0.21765 0.51103 0.28435 0.0
H2697 H 0.23789 0.48551 0.32375 0.0
S2698 S 0.3139 0.48178 0.22743 0.0
N2699 N 0.28821 0.50029 0.22091 0.0
N2700 N 0.30994 0.47053 0.26228 0.0
C2701 C 0.28648 0.4814 0.26985 0.0
C2702 C 0.27497 0.49732 0.24757 0.0
C2703 C 0.22735 0.42731 0.03059 0.0
C2704 C 0.24667 0.44619 0.05854 0.0
C2705 C 0.20604 0.43812 0.01363 0.0
C2706 C 0.2032 0.4683 0.02376 0.0
H2707 H 0.22949 0.40439 0.02074 0.0
H2708 H 0.19241 0.42309 0.99158 0.0
S2709 S 0.24523 0.52547 0.09809 0.0
N2710 N 0.25916 0.49527 0.09794 0.0
N2711 N 0.21923 0.5159 0.06539 0.0
C2712 C 0.22073 0.48669 0.05302 0.0
C2713 C 0.24247 0.47555 0.07056 0.0
C2714 C 0.86294 0.93582 0.29901 0.0
C2715 C 0.88821 0.93973 0.2835 0.0
C2716 C 0.84459 0.90654 0.29846 0.0
C2717 C 0.84951 0.8795 0.28098 0.0
H2718 H 0.85796 0.9556 0.31337 0.0
H2719 H 0.82715 0.90529 0.31324 0.0
S2720 S 0.90975 0.87665 0.2314 0.0
N2721 N 0.91577 0.91398 0.24742 0.0
N2722 N 0.87981 0.85861 0.24446 0.0
C2723 C 0.87327 0.88298 0.26292 0.0
C2724 C 0.89276 0.91313 0.26434 0.0
C2725 C 0.74624 0.16382 0.74548 0.0
C2726 C 0.75285 0.15169 0.77325 0.0
C2727 C 0.7562 0.19548 0.7465 0.0
C2728 C 0.77351 0.21505 0.77484 0.0
H2729 H 0.7325 0.1491 0.72333 0.0
H2730 H 0.75011 0.2047 0.72541 0.0
S2731 S 0.79942 0.1951 0.85254 0.0
N2732 N 0.77874 0.16212 0.8294 0.0
N2733 N 0.79958 0.22107 0.82957 0.0
C2734 C 0.78186 0.20323 0.80179 0.0
C2735 C 0.77101 0.17149 0.8014 0.0
loop_
_geom_bond_atom_site_label_1
_geom_bond_atom_site_label_2
_geom_bond_distance
_geom_bond_site_symmetry_2
_ccdc_geom_bond_type
Mg0 O1 2.028 . S
Mg0 O7 1.986 . S
Mg0 O9 2.114 . S
Mg0 O10 2.251 1_455 S
Mg0 O13 2.010 . S
O1 Mg0 2.028 . S
O1 C4 1.250 . S
O2 Mg3 2.028 1_455 S
O2 C4 1.248 . S
Mg3 O2 2.028 1_655 S
Mg3 O8 2.032 1_655 S
Mg3 O10 2.079 . S
C4 O1 1.250 . S
C4 O2 1.248 . S
C5 O6 1.264 . S
C5 O13 1.249 . S
O6 C5 1.264 . S
O7 Mg0 1.986 . S
O7 C11 1.246 . S
O8 Mg3 2.032 1_455 S
O8 C11 1.259 . S
O9 Mg0 2.114 . S
O9 C12 1.252 1_455 S
O10 Mg0 2.251 1_655 S
O10 Mg3 2.079 . S
O10 C12 1.273 . S
C11 O7 1.246 . S
C11 O8 1.259 . S
C12 O9 1.252 1_655 S
C12 O10 1.273 . S
O13 Mg0 2.010 . S
O13 C5 1.249 . S
Mg14 O15 2.028 . S
Mg14 O21 1.986 . S
Mg14 O23 2.114 . S
Mg14 O24 2.251 1_455 S
Mg14 O27 2.010 . S
O15 Mg14 2.028 . S
O15 C18 1.250 . S
O16 Mg17 2.028 . S
O16 C18 1.248 1_655 S
Mg17 O16 2.028 . S
Mg17 O22 2.032 . S
Mg17 O24 2.079 . S
C18 O15 1.250 . S
C18 O16 1.248 1_455 S
C19 O20 1.264 . S
C19 O27 1.249 . S
O20 C19 1.264 . S
O21 Mg14 1.986 . S
O21 C25 1.246 . S
O22 Mg17 2.032 . S
O22 C25 1.259 1_655 S
O23 Mg14 2.114 . S
O23 C26 1.252 1_455 S
O24 Mg14 2.251 1_655 S
O24 Mg17 2.079 . S
O24 C26 1.273 . S
C25 O21 1.246 . S
C25 O22 1.259 1_455 S
C26 O23 1.252 1_655 S
C26 O24 1.273 . S
O27 Mg14 2.010 . S
O27 C19 1.249 . S
Mg28 O29 2.028 . S
Mg28 O35 1.986 . S
Mg28 O37 2.114 . S
Mg28 O38 2.251 . S
Mg28 O41 2.010 . S
O29 Mg28 2.028 . S
O29 C32 1.250 . S
O30 Mg31 2.028 . S
O30 C32 1.248 . S
Mg31 O30 2.028 . S
Mg31 O36 2.032 . S
Mg31 O38 2.079 . S
C32 O29 1.250 . S
C32 O30 1.248 . S
C33 O34 1.264 . S
C33 O41 1.249 . S
O34 C33 1.264 . S
O35 Mg28 1.986 . S
O35 C39 1.246 . S
O36 Mg31 2.032 . S
O36 C39 1.259 . S
O37 Mg28 2.114 . S
O37 C40 1.252 . S
O38 Mg28 2.251 . S
O38 Mg31 2.079 . S
O38 C40 1.273 . S
C39 O35 1.246 . S
C39 O36 1.259 . S
C40 O37 1.252 . S
C40 O38 1.273 . S
O41 Mg28 2.010 . S
O41 C33 1.249 . S
Mg42 O43 2.028 . S
Mg42 O49 1.986 . S
Mg42 O51 2.114 . S
Mg42 O52 2.251 . S
Mg42 O55 2.010 . S
O43 Mg42 2.028 . S
O43 C46 1.250 . S
O44 Mg45 2.028 . S
O44 C46 1.248 . S
Mg45 O44 2.028 . S
Mg45 O50 2.032 . S
Mg45 O52 2.079 . S
C46 O43 1.250 . S
C46 O44 1.248 . S
C47 O48 1.264 . S
C47 O55 1.249 . S
O48 C47 1.264 . S
O49 Mg42 1.986 . S
O49 C53 1.246 . S
O50 Mg45 2.032 . S
O50 C53 1.259 . S
O51 Mg42 2.114 . S
O51 C54 1.252 . S
O52 Mg42 2.251 . S
O52 Mg45 2.079 . S
O52 C54 1.273 . S
C53 O49 1.246 . S
C53 O50 1.259 . S
C54 O51 1.252 . S
C54 O52 1.273 . S
O55 Mg42 2.010 . S
O55 C47 1.249 . S
Mg56 O57 2.028 . S
Mg56 O63 1.986 . S
Mg56 O65 2.114 . S
Mg56 O66 2.251 . S
Mg56 O69 2.010 . S
O57 Mg56 2.028 . S
O57 C60 1.250 . S
O58 Mg59 2.028 . S
O58 C60 1.248 . S
Mg59 O58 2.028 . S
Mg59 O64 2.032 . S
Mg59 O66 2.079 . S
C60 O57 1.250 . S
C60 O58 1.248 . S
C61 O62 1.264 . S
C61 O69 1.249 . S
O62 C61 1.264 . S
O63 Mg56 1.986 . S
O63 C67 1.246 . S
O64 Mg59 2.032 . S
O64 C67 1.259 . S
O65 Mg56 2.114 . S
O65 C68 1.252 . S
O66 Mg56 2.251 . S
O66 Mg59 2.079 . S
O66 C68 1.273 . S
C67 O63 1.246 . S
C67 O64 1.259 . S
C68 O65 1.252 . S
C68 O66 1.273 . S
O69 Mg56 2.010 . S
O69 C61 1.249 . S
Mg70 O71 2.028 . S
Mg70 O77 1.986 . S
Mg70 O79 2.114 . S
Mg70 O80 2.251 . S
Mg70 O83 2.010 . S
O71 Mg70 2.028 . S
O71 C74 1.250 . S
O72 Mg73 2.028 . S
O72 C74 1.248 . S
Mg73 O72 2.028 . S
Mg73 O78 2.032 . S
Mg73 O80 2.079 . S
C74 O71 1.250 . S
C74 O72 1.248 . S
C75 O76 1.264 . S
C75 O83 1.249 . S
O76 C75 1.264 . S
O77 Mg70 1.986 . S
O77 C81 1.246 . S
O78 Mg73 2.032 . S
O78 C81 1.259 . S
O79 Mg70 2.114 . S
O79 C82 1.252 . S
O80 Mg70 2.251 . S
O80 Mg73 2.079 . S
O80 C82 1.273 . S
C81 O77 1.246 . S
C81 O78 1.259 . S
C82 O79 1.252 . S
C82 O80 1.273 . S
O83 Mg70 2.010 . S
O83 C75 1.249 . S
Mg84 O85 2.028 . S
Mg84 O91 1.986 . S
Mg84 O93 2.114 . S
Mg84 O94 2.251 . S
Mg84 O97 2.010 . S
O85 Mg84 2.028 . S
O85 C88 1.250 . S
O86 Mg87 2.028 . S
O86 C88 1.248 . S
Mg87 O86 2.028 . S
Mg87 O92 2.032 . S
Mg87 O94 2.079 . S
C88 O85 1.250 . S
C88 O86 1.248 . S
C89 O90 1.264 . S
C89 O97 1.249 . S
O90 C89 1.264 . S
O91 Mg84 1.986 . S
O91 C95 1.246 . S
O92 Mg87 2.032 . S
O92 C95 1.259 . S
O93 Mg84 2.114 . S
O93 C96 1.252 . S
O94 Mg84 2.251 . S
O94 Mg87 2.079 . S
O94 C96 1.273 . S
C95 O91 1.246 . S
C95 O92 1.259 . S
C96 O93 1.252 . S
C96 O94 1.273 . S
O97 Mg84 2.010 . S
O97 C89 1.249 . S
Mg98 O99 2.028 1_655 S
Mg98 O105 1.986 1_655 S
Mg98 O107 2.114 . S
Mg98 O108 2.251 . S
Mg98 O111 2.010 1_655 S
O99 Mg98 2.028 1_455 S
O99 C102 1.250 . S
O100 Mg101 2.028 1_554 S
O100 C102 1.248 1_654 S
Mg101 O100 2.028 1_556 S
Mg101 O106 2.032 1_556 S
Mg101 O108 2.079 . S
C102 O99 1.250 . S
C102 O100 1.248 1_456 S
C103 O104 1.264 . S
C103 O111 1.249 . S
O104 C103 1.264 . S
O105 Mg98 1.986 1_455 S
O105 C109 1.240 1_456 S
O106 Mg101 2.032 1_554 S
O106 C109 1.262 . S
O107 Mg98 2.114 . S
O107 C110 1.252 . S
O108 Mg98 2.251 . S
O108 Mg101 2.079 . S
O108 C110 1.273 . S
C109 O105 1.240 1_654 S
C109 O106 1.262 . S
C110 O107 1.252 . S
C110 O108 1.273 . S
O111 Mg98 2.010 1_455 S
O111 C103 1.249 . S
Mg112 O113 2.028 1_545 S
Mg112 O119 1.986 . S
Mg112 O121 2.114 . S
Mg112 O122 2.251 . S
Mg112 O125 2.010 . S
O113 Mg112 2.028 1_565 S
O113 C116 1.250 . S
O114 Mg115 2.028 1_565 S
O114 C116 1.248 . S
Mg115 O114 2.028 1_545 S
Mg115 O120 2.032 . S
Mg115 O122 2.079 . S
C116 O113 1.250 . S
C116 O114 1.248 . S
C117 O118 1.264 . S
C117 O125 1.249 . S
O118 C117 1.264 . S
O119 Mg112 1.986 . S
O119 C123 1.246 . S
O120 Mg115 2.032 . S
O120 C123 1.259 . S
O121 Mg112 2.114 . S
O121 C124 1.252 . S
O122 Mg112 2.251 . S
O122 Mg115 2.079 . S
O122 C124 1.273 . S
C123 O119 1.246 . S
C123 O120 1.259 . S
C124 O121 1.252 . S
C124 O122 1.273 . S
O125 Mg112 2.010 . S
O125 C117 1.249 . S
Mg126 O127 2.028 . S
Mg126 O133 1.986 . S
Mg126 O135 2.114 . S
Mg126 O136 2.251 . S
Mg126 O139 2.010 . S
O127 Mg126 2.028 . S
O127 C130 1.250 . S
O128 Mg129 2.028 . S
O128 C130 1.248 . S
Mg129 O128 2.028 . S
Mg129 O134 2.032 . S
Mg129 O136 2.079 . S
C130 O127 1.250 . S
C130 O128 1.248 . S
C131 O132 1.264 . S
C131 O139 1.249 . S
O132 C131 1.264 . S
O133 Mg126 1.986 . S
O133 C137 1.246 . S
O134 Mg129 2.032 . S
O134 C137 1.259 . S
O135 Mg126 2.114 . S
O135 C138 1.252 . S
O136 Mg126 2.251 . S
O136 Mg129 2.079 . S
O136 C138 1.273 . S
C137 O133 1.246 . S
C137 O134 1.259 . S
C138 O135 1.252 . S
C138 O136 1.273 . S
O139 Mg126 2.010 . S
O139 C131 1.249 . S
Mg140 O141 2.028 . S
Mg140 O147 1.986 . S
Mg140 O149 2.114 . S
Mg140 O150 2.251 . S
Mg140 O153 2.010 . S
O141 Mg140 2.028 . S
O141 C144 1.250 . S
O142 Mg143 2.028 . S
O142 C144 1.248 . S
Mg143 O142 2.028 . S
Mg143 O148 2.032 . S
Mg143 O150 2.079 . S
C144 O141 1.250 . S
C144 O142 1.248 . S
C145 O146 1.264 . S
C145 O153 1.249 . S
O146 C145 1.264 . S
O147 Mg140 1.986 . S
O147 C151 1.246 . S
O148 Mg143 2.032 . S
O148 C151 1.259 . S
O149 Mg140 2.114 . S
O149 C152 1.252 . S
O150 Mg140 2.251 . S
O150 Mg143 2.079 . S
O150 C152 1.273 . S
C151 O147 1.246 . S
C151 O148 1.259 . S
C152 O149 1.252 . S
C152 O150 1.273 . S
O153 Mg140 2.010 . S
O153 C145 1.249 . S
Mg154 O155 2.028 1_554 S
Mg154 O161 1.986 . S
Mg154 O163 2.114 1_554 S
Mg154 O164 2.251 . S
Mg154 O167 2.010 . S
O155 Mg154 2.028 1_556 S
O155 C158 1.250 . S
O156 Mg157 2.028 1_556 S
O156 C158 1.248 . S
Mg157 O156 2.028 1_554 S
Mg157 O162 2.032 . S
Mg157 O164 2.079 . S
C158 O155 1.250 . S
C158 O156 1.248 . S
C159 O160 1.264 1_565 S
C159 O167 1.249 . S
O160 C159 1.264 1_545 S
O161 Mg154 1.986 . S
O161 C165 1.246 . S
O162 Mg157 2.032 . S
O162 C165 1.259 . S
O163 Mg154 2.114 1_556 S
O163 C166 1.252 1_556 S
O164 Mg154 2.251 . S
O164 Mg157 2.079 . S
O164 C166 1.273 . S
C165 O161 1.246 . S
C165 O162 1.259 . S
C166 O163 1.252 1_554 S
C166 O164 1.273 . S
O167 Mg154 2.010 . S
O167 C159 1.249 . S
Mg168 O169 2.028 . S
Mg168 O175 1.986 . S
Mg168 O177 2.114 . S
Mg168 O178 2.251 . S
Mg168 O181 2.010 . S
O169 Mg168 2.028 . S
O169 C172 1.250 . S
O170 Mg171 2.028 . S
O170 C172 1.248 . S
Mg171 O170 2.028 . S
Mg171 O176 2.032 . S
Mg171 O178 2.079 . S
C172 O169 1.250 . S
C172 O170 1.248 . S
C173 O174 1.264 . S
C173 O181 1.249 . S
O174 C173 1.264 . S
O175 Mg168 1.986 . S
O175 C179 1.246 . S
O176 Mg171 2.032 . S
O176 C179 1.259 . S
O177 Mg168 2.114 . S
O177 C180 1.252 . S
O178 Mg168 2.251 . S
O178 Mg171 2.079 . S
O178 C180 1.273 . S
C179 O175 1.246 . S
C179 O176 1.259 . S
C180 O177 1.252 . S
C180 O178 1.273 . S
O181 Mg168 2.010 . S
O181 C173 1.249 . S
Mg182 O183 2.028 . S
Mg182 O189 1.986 . S
Mg182 O191 2.114 . S
Mg182 O192 2.251 . S
Mg182 O195 2.010 . S
O183 Mg182 2.028 . S
O183 C186 1.250 . S
O184 Mg185 2.028 . S
O184 C186 1.248 . S
Mg185 O184 2.028 . S
Mg185 O190 2.032 . S
Mg185 O192 2.079 . S
C186 O183 1.250 . S
C186 O184 1.248 . S
C187 O188 1.264 . S
C187 O195 1.249 . S
O188 C187 1.264 . S
O189 Mg182 1.986 . S
O189 C193 1.246 . S
O190 Mg185 2.032 . S
O190 C193 1.259 . S
O191 Mg182 2.114 . S
O191 C194 1.252 . S
O192 Mg182 2.251 . S
O192 Mg185 2.079 . S
O192 C194 1.273 . S
C193 O189 1.246 . S
C193 O190 1.259 . S
C194 O191 1.252 . S
C194 O192 1.273 . S
O195 Mg182 2.010 . S
O195 C187 1.249 . S
Mg196 O197 2.028 . S
Mg196 O203 1.986 . S
Mg196 O205 2.114 . S
Mg196 O206 2.251 . S
Mg196 O209 2.010 . S
O197 Mg196 2.028 . S
O197 C200 1.250 . S
O198 Mg199 2.028 . S
O198 C200 1.248 . S
Mg199 O198 2.028 . S
Mg199 O204 2.032 . S
Mg199 O206 2.079 . S
C200 O197 1.250 . S
C200 O198 1.248 . S
C201 O202 1.264 . S
C201 O209 1.249 . S
O202 C201 1.264 . S
O203 Mg196 1.986 . S
O203 C207 1.246 . S
O204 Mg199 2.032 . S
O204 C207 1.259 . S
O205 Mg196 2.114 . S
O205 C208 1.252 . S
O206 Mg196 2.251 . S
O206 Mg199 2.079 . S
O206 C208 1.273 . S
C207 O203 1.246 . S
C207 O204 1.259 . S
C208 O205 1.252 . S
C208 O206 1.273 . S
O209 Mg196 2.010 . S
O209 C201 1.249 . S
Mg210 O211 2.028 . S
Mg210 O217 1.986 . S
Mg210 O219 2.114 . S
Mg210 O220 2.251 . S
Mg210 O223 2.010 . S
O211 Mg210 2.028 . S
O211 C214 1.250 . S
O212 Mg213 2.028 . S
O212 C214 1.248 . S
Mg213 O212 2.028 . S
Mg213 O218 2.032 . S
Mg213 O220 2.079 . S
C214 O211 1.250 . S
C214 O212 1.248 . S
C215 O216 1.264 . S
C215 O223 1.249 . S
O216 C215 1.264 . S
O217 Mg210 1.986 . S
O217 C221 1.246 . S
O218 Mg213 2.032 . S
O218 C221 1.259 . S
O219 Mg210 2.114 . S
O219 C222 1.252 . S
O220 Mg210 2.251 . S
O220 Mg213 2.079 . S
O220 C222 1.273 . S
C221 O217 1.246 . S
C221 O218 1.259 . S
C222 O219 1.252 . S
C222 O220 1.273 . S
O223 Mg210 2.010 . S
O223 C215 1.249 . S
Mg224 O225 2.028 1_545 S
Mg224 O231 1.986 . S
Mg224 O233 2.114 . S
Mg224 O234 2.251 . S
Mg224 O237 2.010 . S
O225 Mg224 2.028 1_565 S
O225 C228 1.250 . S
O226 Mg227 2.028 1_565 S
O226 C228 1.248 . S
Mg227 O226 2.028 1_545 S
Mg227 O232 2.032 . S
Mg227 O234 2.079 . S
C228 O225 1.250 . S
C228 O226 1.248 . S
C229 O230 1.264 1_655 S
C229 O237 1.249 . S
O230 C229 1.264 1_455 S
O231 Mg224 1.986 . S
O231 C235 1.246 . S
O232 Mg227 2.032 . S
O232 C235 1.259 . S
O233 Mg224 2.114 . S
O233 C236 1.252 . S
O234 Mg224 2.251 . S
O234 Mg227 2.079 . S
O234 C236 1.273 . S
C235 O231 1.246 . S
C235 O232 1.259 . S
C236 O233 1.252 . S
C236 O234 1.273 . S
O237 Mg224 2.010 . S
O237 C229 1.249 . S
Mg238 O239 2.028 . S
Mg238 O245 1.986 . S
Mg238 O247 2.114 . S
Mg238 O248 2.251 . S
Mg238 O251 2.010 . S
O239 Mg238 2.028 . S
O239 C242 1.250 . S
O240 Mg241 2.028 . S
O240 C242 1.248 . S
Mg241 O240 2.028 . S
Mg241 O246 2.032 . S
Mg241 O248 2.079 . S
C242 O239 1.250 . S
C242 O240 1.248 . S
C243 O244 1.264 . S
C243 O251 1.249 . S
O244 C243 1.264 . S
O245 Mg238 1.986 . S
O245 C249 1.246 . S
O246 Mg241 2.032 . S
O246 C249 1.259 . S
O247 Mg238 2.114 . S
O247 C250 1.252 . S
O248 Mg238 2.251 . S
O248 Mg241 2.079 . S
O248 C250 1.273 . S
C249 O245 1.246 . S
C249 O246 1.259 . S
C250 O247 1.252 . S
C250 O248 1.273 . S
O251 Mg238 2.010 . S
O251 C243 1.249 . S
Mg252 O253 2.028 . S
Mg252 O259 1.986 . S
Mg252 O261 2.114 . S
Mg252 O262 2.251 . S
Mg252 O265 2.010 . S
O253 Mg252 2.028 . S
O253 C256 1.250 . S
O254 Mg255 2.028 . S
O254 C256 1.248 . S
Mg255 O254 2.028 . S
Mg255 O260 2.032 . S
Mg255 O262 2.079 . S
C256 O253 1.250 . S
C256 O254 1.248 . S
C257 O258 1.264 . S
C257 O265 1.249 . S
O258 C257 1.264 . S
O259 Mg252 1.986 . S
O259 C263 1.246 . S
O260 Mg255 2.032 . S
O260 C263 1.259 . S
O261 Mg252 2.114 . S
O261 C264 1.252 . S
O262 Mg252 2.251 . S
O262 Mg255 2.079 . S
O262 C264 1.273 . S
C263 O259 1.246 . S
C263 O260 1.259 . S
C264 O261 1.252 . S
C264 O262 1.273 . S
O265 Mg252 2.010 . S
O265 C257 1.249 . S
Mg266 O267 2.028 . S
Mg266 O273 1.986 . S
Mg266 O275 2.114 . S
Mg266 O276 2.251 . S
Mg266 O279 2.010 . S
O267 Mg266 2.028 . S
O267 C270 1.250 . S
O268 Mg269 2.028 . S
O268 C270 1.248 . S
Mg269 O268 2.028 . S
Mg269 O274 2.032 . S
Mg269 O276 2.079 . S
C270 O267 1.250 . S
C270 O268 1.248 . S
C271 O272 1.264 . S
C271 O279 1.249 . S
O272 C271 1.264 . S
O273 Mg266 1.986 . S
O273 C277 1.246 . S
O274 Mg269 2.032 . S
O274 C277 1.259 . S
O275 Mg266 2.114 . S
O275 C278 1.252 . S
O276 Mg266 2.251 . S
O276 Mg269 2.079 . S
O276 C278 1.273 . S
C277 O273 1.246 . S
C277 O274 1.259 . S
C278 O275 1.252 . S
C278 O276 1.273 . S
O279 Mg266 2.010 . S
O279 C271 1.249 . S
Mg280 O281 2.028 . S
Mg280 O287 1.986 1_554 S
Mg280 O289 2.114 . S
Mg280 O290 2.251 . S
Mg280 O293 2.010 1_554 S
O281 Mg280 2.028 . S
O281 C284 1.250 . S
O282 Mg283 2.028 . S
O282 C284 1.248 . S
Mg283 O282 2.028 . S
Mg283 O288 2.032 1_554 S
Mg283 O290 2.079 . S
C284 O281 1.250 . S
C284 O282 1.248 . S
C285 O286 1.264 1_554 S
C285 O293 1.250 1_554 S
O286 C285 1.264 1_556 S
O287 Mg280 1.986 1_556 S
O287 C291 1.246 . S
O288 Mg283 2.032 1_556 S
O288 C291 1.259 . S
O289 Mg280 2.114 . S
O289 C292 1.252 . S
O290 Mg280 2.251 . S
O290 Mg283 2.079 . S
O290 C292 1.273 . S
C291 O287 1.246 . S
C291 O288 1.259 . S
C292 O289 1.252 . S
C292 O290 1.273 . S
O293 Mg280 2.010 1_556 S
O293 C285 1.250 1_556 S
Mg294 O295 2.028 . S
Mg294 O301 1.986 . S
Mg294 O303 2.114 . S
Mg294 O304 2.251 . S
Mg294 O307 2.010 . S
O295 Mg294 2.028 . S
O295 C298 1.250 . S
O296 Mg297 2.028 . S
O296 C298 1.248 . S
Mg297 O296 2.028 . S
Mg297 O302 2.032 . S
Mg297 O304 2.079 . S
C298 O295 1.250 . S
C298 O296 1.248 . S
C299 O300 1.264 . S
C299 O307 1.249 . S
O300 C299 1.264 . S
O301 Mg294 1.986 . S
O301 C305 1.246 . S
O302 Mg297 2.032 . S
O302 C305 1.259 . S
O303 Mg294 2.114 . S
O303 C306 1.252 . S
O304 Mg294 2.251 . S
O304 Mg297 2.079 . S
O304 C306 1.273 . S
C305 O301 1.246 . S
C305 O302 1.259 . S
C306 O303 1.252 . S
C306 O304 1.273 . S
O307 Mg294 2.010 . S
O307 C299 1.249 . S
Mg308 O309 2.028 . S
Mg308 O315 1.986 . S
Mg308 O317 2.114 . S
Mg308 O318 2.251 . S
Mg308 O321 2.010 . S
O309 Mg308 2.028 . S
O309 C312 1.250 . S
O310 Mg311 2.028 . S
O310 C312 1.248 . S
Mg311 O310 2.028 . S
Mg311 O316 2.032 . S
Mg311 O318 2.079 . S
C312 O309 1.250 . S
C312 O310 1.248 . S
C313 O314 1.264 . S
C313 O321 1.249 . S
O314 C313 1.264 . S
O315 Mg308 1.986 . S
O315 C319 1.246 . S
O316 Mg311 2.032 . S
O316 C319 1.259 . S
O317 Mg308 2.114 . S
O317 C320 1.252 . S
O318 Mg308 2.251 . S
O318 Mg311 2.079 . S
O318 C320 1.273 . S
C319 O315 1.246 . S
C319 O316 1.259 . S
C320 O317 1.252 . S
C320 O318 1.273 . S
O321 Mg308 2.010 . S
O321 C313 1.249 . S
Mg322 O323 2.028 . S
Mg322 O329 1.986 . S
Mg322 O331 2.114 . S
Mg322 O332 2.251 . S
Mg322 O335 2.010 . S
O323 Mg322 2.028 . S
O323 C326 1.250 . S
O324 Mg325 2.028 . S
O324 C326 1.248 . S
Mg325 O324 2.028 . S
Mg325 O330 2.032 . S
Mg325 O332 2.079 . S
C326 O323 1.250 . S
C326 O324 1.248 . S
C327 O328 1.264 . S
C327 O335 1.249 . S
O328 C327 1.264 . S
O329 Mg322 1.986 . S
O329 C333 1.246 . S
O330 Mg325 2.032 . S
O330 C333 1.259 . S
O331 Mg322 2.114 . S
O331 C334 1.252 . S
O332 Mg322 2.251 . S
O332 Mg325 2.079 . S
O332 C334 1.273 . S
C333 O329 1.246 . S
C333 O330 1.259 . S
C334 O331 1.252 . S
C334 O332 1.273 . S
O335 Mg322 2.010 . S
O335 C327 1.249 . S
C336 C338 1.422 . S
C336 C340 1.415 . S
C336 N342 1.369 . S
C337 C338 1.423 . S
C337 C339 1.420 . S
C337 C349 1.418 1_556 S
C338 C336 1.422 . S
C338 C337 1.423 . S
C338 N348 1.359 1_556 S
C339 C337 1.420 . S
C339 C341 1.329 . S
C339 H358 0.930 . S
C340 C336 1.415 . S
C340 C341 1.437 . S
C340 C344 1.413 . S
C341 C339 1.329 . S
C341 C340 1.437 . S
C341 H363 0.929 . S
N342 C336 1.369 . S
N342 C343 1.338 . S
N342 Gd347 2.622 1_566 S
C343 N342 1.338 . S
C343 C345 1.378 . S
C343 H355 0.929 . S
C344 C340 1.413 . S
C344 C345 1.348 . S
C344 H360 0.931 . S
C345 C343 1.378 . S
C345 C344 1.348 . S
C345 H361 0.930 . S
Gd346 N366 2.622 . S
Gd346 N373 2.570 . S
Gd346 O380 2.353 . S
Gd346 O381 2.468 . S
Gd346 O382 2.427 . S
Gd346 O384 2.388 . S
Gd346 O385 2.386 . S
Gd346 O389 2.307 . S
Gd346 C399 2.805 . S
Gd347 N342 2.622 1_544 S
Gd347 N348 2.570 1_545 S
Gd347 O379 2.386 1_645 S
Gd347 O383 2.307 1_655 S
Gd347 O386 2.353 1_655 S
Gd347 O387 2.468 . S
Gd347 O388 2.427 1_554 S
Gd347 O390 2.388 1_654 S
Gd347 C411 2.805 1_554 S
N348 C338 1.359 1_554 S
N348 Gd347 2.570 1_565 S
N348 C350 1.343 . S
C349 C337 1.418 1_554 S
C349 C351 1.321 . S
C349 H357 0.931 . S
C350 N348 1.343 . S
C350 C351 1.390 . S
C350 H352 0.931 . S
C351 C349 1.321 . S
C351 C350 1.390 . S
C351 H353 0.930 . S
H352 C350 0.931 . S
H353 C351 0.930 . S
H354 C377 0.929 1_556 S
H355 C343 0.929 . S
H356 C378 0.930 1_556 S
H357 C349 0.931 . S
H358 C339 0.930 . S
H359 C368 0.929 . S
H360 C344 0.931 . S
H361 C345 0.930 . S
H362 C400 0.930 . S
H363 C341 0.929 . S
H364 C369 0.931 . S
H365 C370 0.930 . S
N366 Gd346 2.622 . S
N366 C367 1.369 . S
N366 C368 1.338 . S
C367 N366 1.369 . S
C367 C371 1.415 . S
C367 C374 1.422 . S
C368 H359 0.929 . S
C368 N366 1.338 . S
C368 C370 1.378 . S
C369 H364 0.931 . S
C369 C370 1.348 . S
C369 C371 1.413 . S
C370 H365 0.930 . S
C370 C368 1.378 . S
C370 C369 1.348 . S
C371 C367 1.415 . S
C371 C369 1.413 . S
C371 C401 1.437 . S
H372 C401 0.929 . S
N373 Gd346 2.570 . S
N373 C374 1.359 . S
N373 C377 1.343 . S
C374 C367 1.422 . S
C374 N373 1.359 . S
C374 C376 1.421 . S
C375 C376 1.422 . S
C375 C378 1.321 . S
C375 H402 0.931 . S
C376 C374 1.421 . S
C376 C375 1.422 . S
C376 C400 1.417 . S
C377 H354 0.929 1_554 S
C377 N373 1.343 . S
C377 C378 1.390 . S
C378 H356 0.930 1_554 S
C378 C375 1.321 . S
C378 C377 1.390 . S
O379 Gd347 2.386 1_465 S
O379 C391 1.265 . S
O380 Gd346 2.353 . S
O380 C391 1.242 1_545 S
O381 Gd346 2.468 . S
O381 C399 1.263 . S
O382 Gd346 2.427 . S
O382 C399 1.252 . S
O383 Gd347 2.307 1_455 S
O383 C392 1.261 . S
O384 Gd346 2.388 . S
O384 C392 1.252 . S
O385 Gd346 2.386 . S
O385 C403 1.265 . S
O386 Gd347 2.353 1_455 S
O386 C403 1.242 . S
O387 Gd347 2.468 . S
O387 C411 1.263 1_554 S
O388 Gd347 2.427 1_556 S
O388 C411 1.252 . S
O389 Gd346 2.307 . S
O389 C404 1.261 1_554 S
O390 Gd347 2.388 1_456 S
O390 C404 1.252 . S
C391 O379 1.265 . S
C391 O380 1.242 1_565 S
C392 O383 1.261 . S
C392 O384 1.252 . S
C393 C396 1.394 . S
C393 C398 1.370 . S
C393 C399 1.500 . S
C394 C397 1.383 . S
C394 C398 1.395 . S
C395 C396 1.396 . S
C395 C397 1.365 . S
C395 H412 0.929 . S
C396 C393 1.394 . S
C396 C395 1.396 . S
C396 H413 0.930 . S
C397 C394 1.383 . S
C397 C395 1.365 . S
C397 H414 0.931 . S
C398 C393 1.370 . S
C398 C394 1.395 . S
C398 H415 0.930 . S
C399 Gd346 2.805 . S
C399 O381 1.263 . S
C399 O382 1.252 . S
C399 C393 1.500 . S
C400 H362 0.930 . S
C400 C376 1.417 . S
C400 C401 1.329 . S
C401 C371 1.437 . S
C401 H372 0.929 . S
C401 C400 1.329 . S
H402 C375 0.931 . S
C403 O385 1.265 . S
C403 O386 1.242 . S
C404 O389 1.261 1_556 S
C404 O390 1.252 . S
C405 C408 1.394 . S
C405 C410 1.370 1_556 S
C405 C411 1.500 . S
C406 C409 1.383 1_554 S
C406 C410 1.395 . S
C407 C408 1.396 . S
C407 C409 1.365 . S
C407 H416 0.929 . S
C408 C405 1.394 . S
C408 C407 1.396 . S
C408 H417 0.930 . S
C409 C406 1.383 1_556 S
C409 C407 1.365 . S
C409 H418 0.931 . S
C410 C405 1.370 1_554 S
C410 C406 1.395 . S
C410 H419 0.930 . S
C411 Gd347 2.805 1_556 S
C411 O387 1.263 1_556 S
C411 O388 1.252 . S
C411 C405 1.500 . S
H412 C395 0.929 . S
H413 C396 0.930 . S
H414 C397 0.931 . S
H415 C398 0.930 . S
H416 C407 0.929 . S
H417 C408 0.930 . S
H418 C409 0.931 . S
H419 C410 0.930 . S
C420 C422 1.422 . S
C420 C424 1.415 . S
C420 N426 1.369 . S
C421 C422 1.421 . S
C421 C423 1.417 . S
C421 C433 1.422 . S
C422 C420 1.422 . S
C422 C421 1.421 . S
C422 N432 1.359 . S
C423 C421 1.417 . S
C423 C425 1.329 . S
C423 H442 0.930 . S
C424 C420 1.415 . S
C424 C425 1.437 . S
C424 C428 1.413 . S
C425 C423 1.329 . S
C425 C424 1.437 . S
C425 H447 0.929 . S
N426 C420 1.369 . S
N426 C427 1.338 . S
N426 Gd431 2.622 . S
C427 N426 1.338 . S
C427 C429 1.378 . S
C427 H439 0.929 . S
C428 C424 1.413 . S
C428 C429 1.348 . S
C428 H444 0.931 . S
C429 C427 1.378 . S
C429 C428 1.348 . S
C429 H445 0.930 . S
Gd430 N450 2.622 . S
Gd430 N457 2.570 . S
Gd430 O464 2.353 . S
Gd430 O465 2.468 . S
Gd430 O466 2.427 . S
Gd430 O468 2.388 . S
Gd430 O469 2.386 . S
Gd430 O473 2.307 . S
Gd430 C483 2.805 . S
Gd431 N426 2.622 . S
Gd431 N432 2.570 . S
Gd431 O463 2.386 . S
Gd431 O467 2.307 . S
Gd431 O470 2.353 . S
Gd431 O471 2.468 . S
Gd431 O472 2.427 . S
Gd431 O474 2.388 . S
Gd431 C495 2.805 . S
N432 C422 1.359 . S
N432 Gd431 2.570 . S
N432 C434 1.343 . S
C433 C421 1.422 . S
C433 C435 1.321 . S
C433 H441 0.931 . S
C434 N432 1.343 . S
C434 C435 1.390 . S
C434 H436 0.931 . S
C435 C433 1.321 . S
C435 C434 1.390 . S
C435 H437 0.930 . S
H436 C434 0.931 . S
H437 C435 0.930 . S
H438 C461 0.931 . S
H439 C427 0.929 . S
H440 C462 0.930 . S
H441 C433 0.931 . S
H442 C423 0.930 . S
H443 C452 0.929 . S
H444 C428 0.931 . S
H445 C429 0.930 . S
H446 C484 0.930 . S
H447 C425 0.929 . S
H448 C453 0.931 . S
H449 C454 0.930 . S
N450 Gd430 2.622 . S
N450 C451 1.369 . S
N450 C452 1.338 . S
C451 N450 1.369 . S
C451 C455 1.415 . S
C451 C458 1.422 . S
C452 H443 0.929 . S
C452 N450 1.338 . S
C452 C454 1.378 . S
C453 H448 0.931 . S
C453 C454 1.348 . S
C453 C455 1.413 . S
C454 H449 0.930 . S
C454 C452 1.378 . S
C454 C453 1.348 . S
C455 C451 1.415 . S
C455 C453 1.413 . S
C455 C485 1.437 . S
H456 C485 0.929 . S
N457 Gd430 2.570 . S
N457 C458 1.359 . S
N457 C461 1.343 . S
C458 C451 1.422 . S
C458 N457 1.359 . S
C458 C460 1.421 . S
C459 C460 1.422 . S
C459 C462 1.321 . S
C459 H486 0.931 . S
C460 C458 1.421 . S
C460 C459 1.422 . S
C460 C484 1.417 . S
C461 H438 0.931 . S
C461 N457 1.343 . S
C461 C462 1.390 . S
C462 H440 0.930 . S
C462 C459 1.321 . S
C462 C461 1.390 . S
O463 Gd431 2.386 . S
O463 C475 1.265 . S
O464 Gd430 2.353 . S
O464 C475 1.242 . S
O465 Gd430 2.468 . S
O465 C483 1.263 . S
O466 Gd430 2.427 . S
O466 C483 1.252 . S
O467 Gd431 2.307 . S
O467 C476 1.261 . S
O468 Gd430 2.388 . S
O468 C476 1.252 . S
O469 Gd430 2.386 . S
O469 C487 1.265 . S
O470 Gd431 2.353 . S
O470 C487 1.242 . S
O471 Gd431 2.468 . S
O471 C495 1.263 . S
O472 Gd431 2.427 . S
O472 C495 1.252 . S
O473 Gd430 2.307 . S
O473 C488 1.261 . S
O474 Gd431 2.388 . S
O474 C488 1.252 . S
C475 O463 1.265 . S
C475 O464 1.242 . S
C476 O467 1.261 . S
C476 O468 1.252 . S
C477 C480 1.394 . S
C477 C482 1.370 . S
C477 C483 1.500 . S
C478 C481 1.383 . S
C478 C482 1.395 . S
C479 C480 1.396 . S
C479 C481 1.365 . S
C479 H496 0.929 . S
C480 C477 1.394 . S
C480 C479 1.396 . S
C480 H497 0.930 . S
C481 C478 1.383 . S
C481 C479 1.365 . S
C481 H498 0.931 . S
C482 C477 1.370 . S
C482 C478 1.395 . S
C482 H499 0.930 . S
C483 Gd430 2.805 . S
C483 O465 1.263 . S
C483 O466 1.252 . S
C483 C477 1.500 . S
C484 H446 0.930 . S
C484 C460 1.417 . S
C484 C485 1.329 . S
C485 C455 1.437 . S
C485 H456 0.929 . S
C485 C484 1.329 . S
H486 C459 0.931 . S
C487 O469 1.265 . S
C487 O470 1.242 . S
C488 O473 1.261 . S
C488 O474 1.252 . S
C489 C492 1.394 . S
C489 C494 1.370 . S
C489 C495 1.500 . S
C490 C493 1.383 . S
C490 C494 1.395 . S
C491 C492 1.396 . S
C491 C493 1.365 . S
C491 H500 0.929 . S
C492 C489 1.394 . S
C492 C491 1.396 . S
C492 H501 0.930 . S
C493 C490 1.383 . S
C493 C491 1.365 . S
C493 H502 0.931 . S
C494 C489 1.370 . S
C494 C490 1.395 . S
C494 H503 0.930 . S
C495 Gd431 2.805 . S
C495 O471 1.263 . S
C495 O472 1.252 . S
C495 C489 1.500 . S
H496 C479 0.929 . S
H497 C480 0.930 . S
H498 C481 0.931 . S
H499 C482 0.930 . S
H500 C491 0.929 . S
H501 C492 0.930 . S
H502 C493 0.931 . S
H503 C494 0.930 . S
C504 C506 1.422 . S
C504 C508 1.415 . S
C504 N510 1.369 . S
C505 C506 1.421 . S
C505 C507 1.417 . S
C505 C517 1.422 . S
C506 C504 1.422 . S
C506 C505 1.421 . S
C506 N516 1.359 . S
C507 C505 1.417 . S
C507 C509 1.329 . S
C507 H526 0.930 . S
C508 C504 1.415 . S
C508 C509 1.437 . S
C508 C512 1.413 . S
C509 C507 1.329 . S
C509 C508 1.437 . S
C509 H531 0.929 . S
N510 C504 1.369 . S
N510 C511 1.338 . S
N510 Gd515 2.622 . S
C511 N510 1.338 . S
C511 C513 1.378 . S
C511 H523 0.929 . S
C512 C508 1.413 . S
C512 C513 1.348 . S
C512 H528 0.931 . S
C513 C511 1.378 . S
C513 C512 1.348 . S
C513 H529 0.930 . S
Gd514 N534 2.622 . S
Gd514 N541 2.570 1_545 S
Gd514 O548 2.353 . S
Gd514 O549 2.468 . S
Gd514 O550 2.427 . S
Gd514 O552 2.388 . S
Gd514 O553 2.386 1_545 S
Gd514 O557 2.307 . S
Gd514 C567 2.805 . S
Gd515 N510 2.622 . S
Gd515 N516 2.570 . S
Gd515 O547 2.386 . S
Gd515 O551 2.307 . S
Gd515 O554 2.353 1_545 S
Gd515 O555 2.468 . S
Gd515 O556 2.427 . S
Gd515 O558 2.388 . S
Gd515 C579 2.805 . S
N516 C506 1.359 . S
N516 Gd515 2.570 . S
N516 C518 1.343 . S
C517 C505 1.422 . S
C517 C519 1.321 . S
C517 H525 0.931 . S
C518 N516 1.343 . S
C518 C519 1.390 . S
C518 H520 0.931 . S
C519 C517 1.321 . S
C519 C518 1.390 . S
C519 H521 0.930 . S
H520 C518 0.931 . S
H521 C519 0.930 . S
H522 C545 0.931 . S
H523 C511 0.929 . S
H524 C546 0.930 . S
H525 C517 0.931 . S
H526 C507 0.930 . S
H527 C536 0.929 . S
H528 C512 0.931 . S
H529 C513 0.930 . S
H530 C568 0.930 . S
H531 C509 0.929 . S
H532 C537 0.931 . S
H533 C538 0.930 1_545 S
N534 Gd514 2.622 . S
N534 C535 1.369 1_545 S
N534 C536 1.338 . S
C535 N534 1.369 1_565 S
C535 C539 1.415 . S
C535 C542 1.422 . S
C536 H527 0.929 . S
C536 N534 1.338 . S
C536 C538 1.378 1_545 S
C537 H532 0.931 . S
C537 C538 1.348 . S
C537 C539 1.413 . S
C538 H533 0.930 1_565 S
C538 C536 1.378 1_565 S
C538 C537 1.348 . S
C539 C535 1.415 . S
C539 C537 1.413 . S
C539 C569 1.437 . S
H540 C569 0.929 . S
N541 Gd514 2.570 1_565 S
N541 C542 1.359 . S
N541 C545 1.343 . S
C542 C535 1.422 . S
C542 N541 1.359 . S
C542 C544 1.421 . S
C543 C544 1.422 . S
C543 C546 1.321 . S
C543 H570 0.931 . S
C544 C542 1.421 . S
C544 C543 1.422 . S
C544 C568 1.417 . S
C545 H522 0.931 . S
C545 N541 1.343 . S
C545 C546 1.390 . S
C546 H524 0.930 . S
C546 C543 1.321 . S
C546 C545 1.390 . S
O547 Gd515 2.386 . S
O547 C559 1.265 . S
O548 Gd514 2.353 . S
O548 C559 1.242 . S
O549 Gd514 2.468 . S
O549 C567 1.263 . S
O550 Gd514 2.427 . S
O550 C567 1.252 . S
O551 Gd515 2.307 . S
O551 C560 1.261 . S
O552 Gd514 2.388 . S
O552 C560 1.252 . S
O553 Gd514 2.386 1_565 S
O553 C571 1.265 . S
O554 Gd515 2.353 1_565 S
O554 C571 1.242 . S
O555 Gd515 2.468 . S
O555 C579 1.263 . S
O556 Gd515 2.427 . S
O556 C579 1.252 . S
O557 Gd514 2.307 . S
O557 C572 1.261 . S
O558 Gd515 2.388 . S
O558 C572 1.252 . S
C559 O547 1.265 . S
C559 O548 1.242 . S
C560 O551 1.261 . S
C560 O552 1.252 . S
C561 C564 1.394 . S
C561 C566 1.370 . S
C561 C567 1.500 . S
C562 C565 1.383 . S
C562 C566 1.395 . S
C563 C564 1.396 . S
C563 C565 1.365 . S
C563 H580 0.929 . S
C564 C561 1.394 . S
C564 C563 1.396 . S
C564 H581 0.930 . S
C565 C562 1.383 . S
C565 C563 1.365 . S
C565 H582 0.931 . S
C566 C561 1.370 . S
C566 C562 1.395 . S
C566 H583 0.930 . S
C567 Gd514 2.805 . S
C567 O549 1.263 . S
C567 O550 1.252 . S
C567 C561 1.500 . S
C568 H530 0.930 . S
C568 C544 1.417 . S
C568 C569 1.329 . S
C569 C539 1.437 . S
C569 H540 0.929 . S
C569 C568 1.329 . S
H570 C543 0.931 . S
C571 O553 1.265 . S
C571 O554 1.242 . S
C572 O557 1.261 . S
C572 O558 1.252 . S
C573 C576 1.394 . S
C573 C578 1.370 . S
C573 C579 1.500 1_565 S
C574 C577 1.383 . S
C574 C578 1.395 . S
C575 C576 1.396 . S
C575 C577 1.365 . S
C575 H584 0.929 . S
C576 C573 1.394 . S
C576 C575 1.396 . S
C576 H585 0.930 . S
C577 C574 1.383 . S
C577 C575 1.365 . S
C577 H586 0.931 . S
C578 C573 1.370 . S
C578 C574 1.395 . S
C578 H587 0.930 . S
C579 Gd515 2.805 . S
C579 O555 1.263 . S
C579 O556 1.252 . S
C579 C573 1.500 1_545 S
H580 C563 0.929 . S
H581 C564 0.930 . S
H582 C565 0.931 . S
H583 C566 0.930 . S
H584 C575 0.929 . S
H585 C576 0.930 . S
H586 C577 0.931 . S
H587 C578 0.930 . S
C588 C590 1.422 . S
C588 C592 1.415 . S
C588 N594 1.369 . S
C589 C590 1.421 . S
C589 C591 1.417 . S
C589 C601 1.422 . S
C590 C588 1.422 . S
C590 C589 1.421 . S
C590 N600 1.359 . S
C591 C589 1.417 . S
C591 C593 1.329 . S
C591 H610 0.930 . S
C592 C588 1.415 . S
C592 C593 1.437 . S
C592 C596 1.413 . S
C593 C591 1.329 . S
C593 C592 1.437 . S
C593 H615 0.929 . S
N594 C588 1.369 . S
N594 C595 1.338 . S
N594 Gd599 2.622 . S
C595 N594 1.338 . S
C595 C597 1.378 . S
C595 H607 0.929 . S
C596 C592 1.413 . S
C596 C597 1.348 . S
C596 H612 0.931 . S
C597 C595 1.378 . S
C597 C596 1.348 . S
C597 H613 0.930 . S
Gd598 N618 2.622 . S
Gd598 N625 2.570 . S
Gd598 O632 2.353 . S
Gd598 O633 2.468 . S
Gd598 O634 2.427 . S
Gd598 O636 2.388 . S
Gd598 O637 2.386 . S
Gd598 O641 2.307 . S
Gd598 C651 2.805 . S
Gd599 N594 2.622 . S
Gd599 N600 2.570 . S
Gd599 O631 2.386 . S
Gd599 O635 2.307 . S
Gd599 O638 2.353 . S
Gd599 O639 2.468 . S
Gd599 O640 2.427 . S
Gd599 O642 2.388 . S
Gd599 C663 2.805 . S
N600 C590 1.359 . S
N600 Gd599 2.570 . S
N600 C602 1.343 . S
C601 C589 1.422 . S
C601 C603 1.321 . S
C601 H609 0.931 . S
C602 N600 1.343 . S
C602 C603 1.390 . S
C602 H604 0.931 . S
C603 C601 1.321 . S
C603 C602 1.390 . S
C603 H605 0.930 . S
H604 C602 0.931 . S
H605 C603 0.930 . S
H606 C629 0.931 . S
H607 C595 0.929 . S
H608 C630 0.930 . S
H609 C601 0.931 . S
H610 C591 0.930 . S
H611 C620 0.929 . S
H612 C596 0.931 . S
H613 C597 0.930 . S
H614 C652 0.930 . S
H615 C593 0.929 . S
H616 C621 0.931 . S
H617 C622 0.930 . S
N618 Gd598 2.622 . S
N618 C619 1.369 . S
N618 C620 1.338 . S
C619 N618 1.369 . S
C619 C623 1.415 . S
C619 C626 1.422 . S
C620 H611 0.929 . S
C620 N618 1.338 . S
C620 C622 1.378 . S
C621 H616 0.931 . S
C621 C622 1.348 . S
C621 C623 1.413 . S
C622 H617 0.930 . S
C622 C620 1.378 . S
C622 C621 1.348 . S
C623 C619 1.415 . S
C623 C621 1.413 . S
C623 C653 1.437 . S
H624 C653 0.929 . S
N625 Gd598 2.570 . S
N625 C626 1.359 . S
N625 C629 1.343 . S
C626 C619 1.422 . S
C626 N625 1.359 . S
C626 C628 1.421 . S
C627 C628 1.422 . S
C627 C630 1.321 . S
C627 H654 0.931 . S
C628 C626 1.421 . S
C628 C627 1.422 . S
C628 C652 1.417 . S
C629 H606 0.931 . S
C629 N625 1.343 . S
C629 C630 1.390 . S
C630 H608 0.930 . S
C630 C627 1.321 . S
C630 C629 1.390 . S
O631 Gd599 2.386 . S
O631 C643 1.265 . S
O632 Gd598 2.353 . S
O632 C643 1.242 . S
O633 Gd598 2.468 . S
O633 C651 1.263 . S
O634 Gd598 2.427 . S
O634 C651 1.252 . S
O635 Gd599 2.307 . S
O635 C644 1.261 . S
O636 Gd598 2.388 . S
O636 C644 1.252 . S
O637 Gd598 2.386 . S
O637 C655 1.265 . S
O638 Gd599 2.353 . S
O638 C655 1.242 . S
O639 Gd599 2.468 . S
O639 C663 1.263 . S
O640 Gd599 2.427 . S
O640 C663 1.252 . S
O641 Gd598 2.307 . S
O641 C656 1.261 . S
O642 Gd599 2.388 . S
O642 C656 1.252 . S
C643 O631 1.265 . S
C643 O632 1.242 . S
C644 O635 1.261 . S
C644 O636 1.252 . S
C645 C648 1.394 . S
C645 C650 1.370 . S
C645 C651 1.500 . S
C646 C649 1.383 . S
C646 C650 1.395 . S
C647 C648 1.396 . S
C647 C649 1.365 . S
C647 H664 0.929 . S
C648 C645 1.394 . S
C648 C647 1.396 . S
C648 H665 0.930 . S
C649 C646 1.383 . S
C649 C647 1.365 . S
C649 H666 0.931 . S
C650 C645 1.370 . S
C650 C646 1.395 . S
C650 H667 0.930 . S
C651 Gd598 2.805 . S
C651 O633 1.263 . S
C651 O634 1.252 . S
C651 C645 1.500 . S
C652 H614 0.930 . S
C652 C628 1.417 . S
C652 C653 1.329 . S
C653 C623 1.437 . S
C653 H624 0.929 . S
C653 C652 1.329 . S
H654 C627 0.931 . S
C655 O637 1.265 . S
C655 O638 1.242 . S
C656 O641 1.261 . S
C656 O642 1.252 . S
C657 C660 1.394 . S
C657 C662 1.370 . S
C657 C663 1.500 . S
C658 C661 1.383 . S
C658 C662 1.395 . S
C659 C660 1.396 . S
C659 C661 1.365 . S
C659 H668 0.929 . S
C660 C657 1.394 . S
C660 C659 1.396 . S
C660 H669 0.930 . S
C661 C658 1.383 . S
C661 C659 1.365 . S
C661 H670 0.931 . S
C662 C657 1.370 . S
C662 C658 1.395 . S
C662 H671 0.930 . S
C663 Gd599 2.805 . S
C663 O639 1.263 . S
C663 O640 1.252 . S
C663 C657 1.500 . S
H664 C647 0.929 . S
H665 C648 0.930 . S
H666 C649 0.931 . S
H667 C650 0.930 . S
H668 C659 0.929 . S
H669 C660 0.930 . S
H670 C661 0.931 . S
H671 C662 0.930 . S
C672 C674 1.422 . S
C672 C676 1.415 1_455 S
C672 N678 1.369 1_455 S
C673 C674 1.421 . S
C673 C675 1.417 . S
C673 C685 1.422 . S
C674 C672 1.422 . S
C674 C673 1.421 . S
C674 N684 1.359 . S
C675 C673 1.417 . S
C675 C677 1.329 . S
C675 H694 0.930 . S
C676 C672 1.415 1_655 S
C676 C677 1.437 1_655 S
C676 C680 1.413 . S
C677 C675 1.329 . S
C677 C676 1.437 1_455 S
C677 H699 0.929 1_455 S
N678 C672 1.369 1_655 S
N678 C679 1.338 . S
N678 Gd683 2.622 1_655 S
C679 N678 1.338 . S
C679 C681 1.378 . S
C679 H691 0.929 . S
C680 C676 1.413 . S
C680 C681 1.348 . S
C680 H696 0.931 . S
C681 C679 1.378 . S
C681 C680 1.348 . S
C681 H697 0.930 . S
Gd682 N702 2.622 . S
Gd682 N709 2.570 . S
Gd682 O716 2.353 1_565 S
Gd682 O717 2.468 . S
Gd682 O718 2.427 . S
Gd682 O720 2.388 1_565 S
Gd682 O721 2.386 1_565 S
Gd682 O725 2.307 1_565 S
Gd682 C735 2.805 . S
Gd683 N678 2.622 1_455 S
Gd683 N684 2.570 . S
Gd683 O715 2.386 . S
Gd683 O719 2.307 . S
Gd683 O722 2.353 . S
Gd683 O723 2.468 . S
Gd683 O724 2.427 1_455 S
Gd683 O726 2.388 1_455 S
Gd683 C747 2.805 . S
N684 C674 1.359 . S
N684 Gd683 2.570 . S
N684 C686 1.343 . S
C685 C673 1.422 . S
C685 C687 1.321 . S
C685 H693 0.931 . S
C686 N684 1.343 . S
C686 C687 1.390 . S
C686 H688 0.931 . S
C687 C685 1.321 . S
C687 C686 1.390 . S
C687 H689 0.930 . S
H688 C686 0.931 . S
H689 C687 0.930 . S
H690 C713 0.931 . S
H691 C679 0.929 . S
H692 C714 0.930 . S
H693 C685 0.931 . S
H694 C675 0.930 . S
H695 C704 0.929 1_545 S
H696 C680 0.931 . S
H697 C681 0.930 . S
H698 C736 0.930 . S
H699 C677 0.929 1_655 S
H700 C705 0.931 . S
H701 C706 0.930 . S
N702 Gd682 2.622 . S
N702 C703 1.369 . S
N702 C704 1.338 . S
C703 N702 1.369 . S
C703 C707 1.415 . S
C703 C710 1.422 . S
C704 H695 0.929 1_565 S
C704 N702 1.338 . S
C704 C706 1.378 . S
C705 H700 0.931 . S
C705 C706 1.348 . S
C705 C707 1.413 . S
C706 H701 0.930 . S
C706 C704 1.378 . S
C706 C705 1.348 . S
C707 C703 1.415 . S
C707 C705 1.413 . S
C707 C737 1.437 . S
H708 C737 0.929 . S
N709 Gd682 2.570 . S
N709 C710 1.359 . S
N709 C713 1.343 1_455 S
C710 C703 1.422 . S
C710 N709 1.359 . S
C710 C712 1.421 . S
C711 C712 1.422 1_655 S
C711 C714 1.321 . S
C711 H738 0.931 . S
C712 C710 1.421 . S
C712 C711 1.422 1_455 S
C712 C736 1.417 . S
C713 H690 0.931 . S
C713 N709 1.343 1_655 S
C713 C714 1.390 . S
C714 H692 0.930 . S
C714 C711 1.321 . S
C714 C713 1.390 . S
O715 Gd683 2.386 . S
O715 C727 1.265 . S
O716 Gd682 2.353 1_545 S
O716 C727 1.242 . S
O717 Gd682 2.468 . S
O717 C735 1.263 . S
O718 Gd682 2.427 . S
O718 C735 1.252 . S
O719 Gd683 2.307 . S
O719 C728 1.261 . S
O720 Gd682 2.388 1_545 S
O720 C728 1.252 . S
O721 Gd682 2.386 1_545 S
O721 C739 1.265 . S
O722 Gd683 2.353 . S
O722 C739 1.242 . S
O723 Gd683 2.468 . S
O723 C747 1.263 . S
O724 Gd683 2.427 1_655 S
O724 C747 1.252 1_655 S
O725 Gd682 2.307 1_545 S
O725 C740 1.261 1_455 S
O726 Gd683 2.388 1_655 S
O726 C740 1.252 . S
C727 O715 1.265 . S
C727 O716 1.242 . S
C728 O719 1.261 . S
C728 O720 1.252 . S
C729 C732 1.394 . S
C729 C734 1.370 . S
C729 C735 1.500 . S
C730 C733 1.383 . S
C730 C734 1.395 . S
C731 C732 1.396 . S
C731 C733 1.365 . S
C731 H748 0.929 . S
C732 C729 1.394 . S
C732 C731 1.396 . S
C732 H749 0.930 . S
C733 C730 1.383 . S
C733 C731 1.365 . S
C733 H750 0.931 . S
C734 C729 1.370 . S
C734 C730 1.395 . S
C734 H751 0.930 . S
C735 Gd682 2.805 . S
C735 O717 1.263 . S
C735 O718 1.252 . S
C735 C729 1.500 . S
C736 H698 0.930 . S
C736 C712 1.417 . S
C736 C737 1.329 . S
C737 C707 1.437 . S
C737 H708 0.929 . S
C737 C736 1.329 . S
H738 C711 0.931 . S
C739 O721 1.265 . S
C739 O722 1.242 . S
C740 O725 1.261 1_655 S
C740 O726 1.252 . S
C741 C744 1.394 1_455 S
C741 C746 1.370 . S
C741 C747 1.500 . S
C742 C745 1.383 1_455 S
C742 C746 1.395 . S
C743 C744 1.396 . S
C743 C745 1.365 . S
C743 H752 0.929 . S
C744 C741 1.394 1_655 S
C744 C743 1.396 . S
C744 H753 0.930 . S
C745 C742 1.383 1_655 S
C745 C743 1.365 . S
C745 H754 0.931 . S
C746 C741 1.370 . S
C746 C742 1.395 . S
C746 H755 0.930 . S
C747 Gd683 2.805 . S
C747 O723 1.263 . S
C747 O724 1.252 1_455 S
C747 C741 1.500 . S
H748 C731 0.929 . S
H749 C732 0.930 . S
H750 C733 0.931 . S
H751 C734 0.930 . S
H752 C743 0.929 . S
H753 C744 0.930 . S
H754 C745 0.931 . S
H755 C746 0.930 . S
C756 C758 1.422 . S
C756 C760 1.415 . S
C756 N762 1.369 . S
C757 C758 1.421 . S
C757 C759 1.417 . S
C757 C769 1.422 . S
C758 C756 1.422 . S
C758 C757 1.421 . S
C758 N768 1.359 . S
C759 C757 1.417 . S
C759 C761 1.329 . S
C759 H778 0.930 . S
C760 C756 1.415 . S
C760 C761 1.437 . S
C760 C764 1.413 . S
C761 C759 1.329 . S
C761 C760 1.437 . S
C761 H783 0.929 . S
N762 C756 1.369 . S
N762 C763 1.338 . S
N762 Gd767 2.622 . S
C763 N762 1.338 . S
C763 C765 1.378 . S
C763 H775 0.929 . S
C764 C760 1.413 . S
C764 C765 1.348 . S
C764 H780 0.931 . S
C765 C763 1.378 . S
C765 C764 1.348 . S
C765 H781 0.930 . S
Gd766 N786 2.622 . S
Gd766 N793 2.570 . S
Gd766 O800 2.353 . S
Gd766 O801 2.468 . S
Gd766 O802 2.427 . S
Gd766 O804 2.388 . S
Gd766 O805 2.386 . S
Gd766 O809 2.307 . S
Gd766 C819 2.805 . S
Gd767 N762 2.622 . S
Gd767 N768 2.570 . S
Gd767 O799 2.386 . S
Gd767 O803 2.307 . S
Gd767 O806 2.353 . S
Gd767 O807 2.468 . S
Gd767 O808 2.427 . S
Gd767 O810 2.388 . S
Gd767 C831 2.805 . S
N768 C758 1.359 . S
N768 Gd767 2.570 . S
N768 C770 1.343 . S
C769 C757 1.422 . S
C769 C771 1.321 . S
C769 H777 0.931 . S
C770 N768 1.343 . S
C770 C771 1.390 . S
C770 H772 0.931 . S
C771 C769 1.321 . S
C771 C770 1.390 . S
C771 H773 0.930 . S
H772 C770 0.931 . S
H773 C771 0.930 . S
H774 C797 0.931 . S
H775 C763 0.929 . S
H776 C798 0.930 . S
H777 C769 0.931 . S
H778 C759 0.930 . S
H779 C788 0.929 . S
H780 C764 0.931 . S
H781 C765 0.930 . S
H782 C820 0.930 . S
H783 C761 0.929 . S
H784 C789 0.931 . S
H785 C790 0.930 . S
N786 Gd766 2.622 . S
N786 C787 1.369 . S
N786 C788 1.338 . S
C787 N786 1.369 . S
C787 C791 1.415 . S
C787 C794 1.422 . S
C788 H779 0.929 . S
C788 N786 1.338 . S
C788 C790 1.378 . S
C789 H784 0.931 . S
C789 C790 1.348 . S
C789 C791 1.413 . S
C790 H785 0.930 . S
C790 C788 1.378 . S
C790 C789 1.348 . S
C791 C787 1.415 . S
C791 C789 1.413 . S
C791 C821 1.437 . S
H792 C821 0.929 . S
N793 Gd766 2.570 . S
N793 C794 1.359 . S
N793 C797 1.343 . S
C794 C787 1.422 . S
C794 N793 1.359 . S
C794 C796 1.421 . S
C795 C796 1.422 . S
C795 C798 1.321 . S
C795 H822 0.931 . S
C796 C794 1.421 . S
C796 C795 1.422 . S
C796 C820 1.417 . S
C797 H774 0.931 . S
C797 N793 1.343 . S
C797 C798 1.390 . S
C798 H776 0.930 . S
C798 C795 1.321 . S
C798 C797 1.390 . S
O799 Gd767 2.386 . S
O799 C811 1.265 . S
O800 Gd766 2.353 . S
O800 C811 1.242 . S
O801 Gd766 2.468 . S
O801 C819 1.263 . S
O802 Gd766 2.427 . S
O802 C819 1.252 . S
O803 Gd767 2.307 . S
O803 C812 1.261 . S
O804 Gd766 2.388 . S
O804 C812 1.252 . S
O805 Gd766 2.386 . S
O805 C823 1.265 . S
O806 Gd767 2.353 . S
O806 C823 1.242 . S
O807 Gd767 2.468 . S
O807 C831 1.263 . S
O808 Gd767 2.427 . S
O808 C831 1.252 . S
O809 Gd766 2.307 . S
O809 C824 1.261 . S
O810 Gd767 2.388 . S
O810 C824 1.252 . S
C811 O799 1.265 . S
C811 O800 1.242 . S
C812 O803 1.261 . S
C812 O804 1.252 . S
C813 C816 1.394 . S
C813 C818 1.370 . S
C813 C819 1.500 . S
C814 C817 1.383 . S
C814 C818 1.395 . S
C815 C816 1.396 . S
C815 C817 1.365 . S
C815 H832 0.929 . S
C816 C813 1.394 . S
C816 C815 1.396 . S
C816 H833 0.930 . S
C817 C814 1.383 . S
C817 C815 1.365 . S
C817 H834 0.931 . S
C818 C813 1.370 . S
C818 C814 1.395 . S
C818 H835 0.930 . S
C819 Gd766 2.805 . S
C819 O801 1.263 . S
C819 O802 1.252 . S
C819 C813 1.500 . S
C820 H782 0.930 . S
C820 C796 1.417 . S
C820 C821 1.329 . S
C821 C791 1.437 . S
C821 H792 0.929 . S
C821 C820 1.329 . S
H822 C795 0.931 . S
C823 O805 1.265 . S
C823 O806 1.242 . S
C824 O809 1.261 . S
C824 O810 1.252 . S
C825 C828 1.394 . S
C825 C830 1.370 . S
C825 C831 1.500 . S
C826 C829 1.383 . S
C826 C830 1.395 . S
C827 C828 1.396 . S
C827 C829 1.365 . S
C827 H836 0.929 . S
C828 C825 1.394 . S
C828 C827 1.396 . S
C828 H837 0.930 . S
C829 C826 1.383 . S
C829 C827 1.365 . S
C829 H838 0.931 . S
C830 C825 1.370 . S
C830 C826 1.395 . S
C830 H839 0.930 . S
C831 Gd767 2.805 . S
C831 O807 1.263 . S
C831 O808 1.252 . S
C831 C825 1.500 . S
H832 C815 0.929 . S
H833 C816 0.930 . S
H834 C817 0.931 . S
H835 C818 0.930 . S
H836 C827 0.929 . S
H837 C828 0.930 . S
H838 C829 0.931 . S
H839 C830 0.930 . S
C840 C842 1.422 1_565 S
C840 C844 1.415 . S
C840 N846 1.369 . S
C841 C842 1.421 . S
C841 C843 1.417 . S
C841 C853 1.422 . S
C842 C840 1.422 1_545 S
C842 C841 1.421 . S
C842 N852 1.359 . S
C843 C841 1.417 . S
C843 C845 1.329 1_545 S
C843 H862 0.930 . S
C844 C840 1.415 . S
C844 C845 1.437 . S
C844 C848 1.413 . S
C845 C843 1.329 1_565 S
C845 C844 1.437 . S
C845 H867 0.929 . S
N846 C840 1.369 . S
N846 C847 1.338 . S
N846 Gd851 2.622 1_565 S
C847 N846 1.338 . S
C847 C849 1.378 . S
C847 H859 0.929 . S
C848 C844 1.413 . S
C848 C849 1.348 . S
C848 H864 0.931 . S
C849 C847 1.378 . S
C849 C848 1.348 . S
C849 H865 0.930 . S
Gd850 N870 2.622 . S
Gd850 N877 2.570 . S
Gd850 O884 2.353 1_556 S
Gd850 O885 2.468 . S
Gd850 O886 2.427 . S
Gd850 O888 2.388 1_556 S
Gd850 O889 2.386 1_556 S
Gd850 O893 2.307 . S
Gd850 C903 2.805 . S
Gd851 N846 2.622 1_545 S
Gd851 N852 2.570 . S
Gd851 O883 2.386 . S
Gd851 O887 2.307 . S
Gd851 O890 2.353 . S
Gd851 O891 2.468 . S
Gd851 O892 2.427 1_545 S
Gd851 O894 2.388 1_545 S
Gd851 C915 2.805 1_545 S
N852 C842 1.359 . S
N852 Gd851 2.570 . S
N852 C854 1.343 . S
C853 C841 1.422 . S
C853 C855 1.321 . S
C853 H861 0.931 . S
C854 N852 1.343 . S
C854 C855 1.390 . S
C854 H856 0.931 . S
C855 C853 1.321 . S
C855 C854 1.390 . S
C855 H857 0.930 . S
H856 C854 0.931 . S
H857 C855 0.930 . S
H858 C881 0.931 1_565 S
H859 C847 0.929 . S
H860 C882 0.930 . S
H861 C853 0.931 . S
H862 C843 0.930 . S
H863 C872 0.929 1_554 S
H864 C848 0.931 . S
H865 C849 0.930 . S
H866 C904 0.930 . S
H867 C845 0.929 . S
H868 C873 0.931 . S
H869 C874 0.930 1_554 S
N870 Gd850 2.622 . S
N870 C871 1.369 . S
N870 C872 1.338 . S
C871 N870 1.369 . S
C871 C875 1.415 . S
C871 C878 1.422 . S
C872 H863 0.929 1_556 S
C872 N870 1.338 . S
C872 C874 1.378 . S
C873 H868 0.931 . S
C873 C874 1.348 . S
C873 C875 1.413 . S
C874 H869 0.930 1_556 S
C874 C872 1.378 . S
C874 C873 1.348 . S
C875 C871 1.415 . S
C875 C873 1.413 . S
C875 C905 1.437 . S
H876 C905 0.929 . S
N877 Gd850 2.570 . S
N877 C878 1.359 . S
N877 C881 1.343 . S
C878 C871 1.422 . S
C878 N877 1.359 . S
C878 C880 1.421 . S
C879 C880 1.422 . S
C879 C882 1.321 1_545 S
C879 H906 0.931 1_545 S
C880 C878 1.421 . S
C880 C879 1.422 . S
C880 C904 1.417 . S
C881 H858 0.931 1_545 S
C881 N877 1.343 . S
C881 C882 1.390 1_545 S
C882 H860 0.930 . S
C882 C879 1.321 1_565 S
C882 C881 1.390 1_565 S
O883 Gd851 2.386 . S
O883 C895 1.265 . S
O884 Gd850 2.353 1_554 S
O884 C895 1.242 . S
O885 Gd850 2.468 . S
O885 C903 1.263 . S
O886 Gd850 2.427 . S
O886 C903 1.252 . S
O887 Gd851 2.307 . S
O887 C896 1.261 . S
O888 Gd850 2.388 1_554 S
O888 C896 1.252 . S
O889 Gd850 2.386 1_554 S
O889 C907 1.265 . S
O890 Gd851 2.353 . S
O890 C907 1.242 . S
O891 Gd851 2.468 . S
O891 C915 1.263 1_545 S
O892 Gd851 2.427 1_565 S
O892 C915 1.252 . S
O893 Gd850 2.307 . S
O893 C908 1.249 1_546 S
O894 Gd851 2.388 1_565 S
O894 C908 1.287 . S
C895 O883 1.265 . S
C895 O884 1.242 . S
C896 O887 1.261 . S
C896 O888 1.252 . S
C897 C900 1.394 . S
C897 C902 1.370 . S
C897 C903 1.500 . S
C898 C901 1.383 . S
C898 C902 1.395 . S
C899 C900 1.396 . S
C899 C901 1.365 . S
C899 H916 0.929 . S
C900 C897 1.394 . S
C900 C899 1.396 . S
C900 H917 0.930 . S
C901 C898 1.383 . S
C901 C899 1.365 . S
C901 H918 0.931 . S
C902 C897 1.370 . S
C902 C898 1.395 . S
C902 H919 0.930 . S
C903 Gd850 2.805 . S
C903 O885 1.263 . S
C903 O886 1.252 . S
C903 C897 1.500 . S
C904 H866 0.930 . S
C904 C880 1.417 . S
C904 C905 1.329 . S
C905 C875 1.437 . S
C905 H876 0.929 . S
C905 C904 1.329 . S
H906 C879 0.931 1_565 S
C907 O889 1.265 . S
C907 O890 1.242 . S
C908 O893 1.249 1_564 S
C908 O894 1.287 . S
C909 C912 1.394 . S
C909 C914 1.370 1_565 S
C909 C915 1.500 . S
C910 C913 1.383 . S
C910 C914 1.395 1_565 S
C911 C912 1.396 . S
C911 C913 1.365 . S
C911 H920 0.929 . S
C912 C909 1.394 . S
C912 C911 1.396 . S
C912 H921 0.930 . S
C913 C910 1.383 . S
C913 C911 1.365 . S
C913 H922 0.931 . S
C914 C909 1.370 1_545 S
C914 C910 1.395 1_545 S
C914 H923 0.930 . S
C915 Gd851 2.805 1_565 S
C915 O891 1.263 1_565 S
C915 O892 1.252 . S
C915 C909 1.500 . S
H916 C899 0.929 . S
H917 C900 0.930 . S
H918 C901 0.931 . S
H919 C902 0.930 . S
H920 C911 0.929 . S
H921 C912 0.930 . S
H922 C913 0.931 . S
H923 C914 0.930 . S
C924 C926 1.422 . S
C924 C928 1.415 . S
C924 N930 1.369 . S
C925 C926 1.421 . S
C925 C927 1.417 . S
C925 C937 1.422 . S
C926 C924 1.422 . S
C926 C925 1.421 . S
C926 N936 1.359 . S
C927 C925 1.417 . S
C927 C929 1.329 . S
C927 H946 0.930 . S
C928 C924 1.415 . S
C928 C929 1.437 . S
C928 C932 1.413 . S
C929 C927 1.329 . S
C929 C928 1.437 . S
C929 H951 0.929 . S
N930 C924 1.369 . S
N930 C931 1.338 . S
N930 Gd935 2.622 . S
C931 N930 1.338 . S
C931 C933 1.378 . S
C931 H943 0.929 . S
C932 C928 1.413 . S
C932 C933 1.348 . S
C932 H948 0.931 . S
C933 C931 1.378 . S
C933 C932 1.348 . S
C933 H949 0.930 . S
Gd934 N954 2.622 . S
Gd934 N961 2.570 . S
Gd934 O968 2.353 . S
Gd934 O969 2.468 . S
Gd934 O970 2.427 . S
Gd934 O972 2.388 . S
Gd934 O973 2.386 . S
Gd934 O977 2.307 . S
Gd934 C987 2.805 . S
Gd935 N930 2.622 . S
Gd935 N936 2.570 . S
Gd935 O967 2.386 . S
Gd935 O971 2.307 . S
Gd935 O974 2.353 . S
Gd935 O975 2.468 . S
Gd935 O976 2.427 . S
Gd935 O978 2.388 . S
Gd935 C999 2.805 . S
N936 C926 1.359 . S
N936 Gd935 2.570 . S
N936 C938 1.343 . S
C937 C925 1.422 . S
C937 C939 1.321 . S
C937 H945 0.931 . S
C938 N936 1.343 . S
C938 C939 1.390 . S
C938 H940 0.931 . S
C939 C937 1.321 . S
C939 C938 1.390 . S
C939 H941 0.930 . S
H940 C938 0.931 . S
H941 C939 0.930 . S
H942 C965 0.931 . S
H943 C931 0.929 . S
H944 C966 0.930 . S
H945 C937 0.931 . S
H946 C927 0.930 . S
H947 C956 0.929 . S
H948 C932 0.931 . S
H949 C933 0.930 . S
H950 C988 0.930 . S
H951 C929 0.929 . S
H952 C957 0.931 . S
H953 C958 0.930 . S
N954 Gd934 2.622 . S
N954 C955 1.369 . S
N954 C956 1.338 . S
C955 N954 1.369 . S
C955 C959 1.415 . S
C955 C962 1.422 . S
C956 H947 0.929 . S
C956 N954 1.338 . S
C956 C958 1.378 . S
C957 H952 0.931 . S
C957 C958 1.348 . S
C957 C959 1.413 . S
C958 H953 0.930 . S
C958 C956 1.378 . S
C958 C957 1.348 . S
C959 C955 1.415 . S
C959 C957 1.413 . S
C959 C989 1.437 . S
H960 C989 0.929 . S
N961 Gd934 2.570 . S
N961 C962 1.359 . S
N961 C965 1.343 . S
C962 C955 1.422 . S
C962 N961 1.359 . S
C962 C964 1.421 . S
C963 C964 1.422 . S
C963 C966 1.321 . S
C963 H990 0.931 . S
C964 C962 1.421 . S
C964 C963 1.422 . S
C964 C988 1.417 . S
C965 H942 0.931 . S
C965 N961 1.343 . S
C965 C966 1.390 . S
C966 H944 0.930 . S
C966 C963 1.321 . S
C966 C965 1.390 . S
O967 Gd935 2.386 . S
O967 C979 1.265 . S
O968 Gd934 2.353 . S
O968 C979 1.242 . S
O969 Gd934 2.468 . S
O969 C987 1.263 . S
O970 Gd934 2.427 . S
O970 C987 1.252 . S
O971 Gd935 2.307 . S
O971 C980 1.261 . S
O972 Gd934 2.388 . S
O972 C980 1.252 . S
O973 Gd934 2.386 . S
O973 C991 1.265 . S
O974 Gd935 2.353 . S
O974 C991 1.242 . S
O975 Gd935 2.468 . S
O975 C999 1.263 . S
O976 Gd935 2.427 . S
O976 C999 1.252 . S
O977 Gd934 2.307 . S
O977 C992 1.261 . S
O978 Gd935 2.388 . S
O978 C992 1.252 . S
C979 O967 1.265 . S
C979 O968 1.242 . S
C980 O971 1.261 . S
C980 O972 1.252 . S
C981 C984 1.394 . S
C981 C986 1.370 . S
C981 C987 1.500 . S
C982 C985 1.383 . S
C982 C986 1.395 . S
C983 C984 1.396 . S
C983 C985 1.365 . S
C983 H1000 0.929 . S
C984 C981 1.394 . S
C984 C983 1.396 . S
C984 H1001 0.930 . S
C985 C982 1.383 . S
C985 C983 1.365 . S
C985 H1002 0.931 . S
C986 C981 1.370 . S
C986 C982 1.395 . S
C986 H1003 0.930 . S
C987 Gd934 2.805 . S
C987 O969 1.263 . S
C987 O970 1.252 . S
C987 C981 1.500 . S
C988 H950 0.930 . S
C988 C964 1.417 . S
C988 C989 1.329 . S
C989 C959 1.437 . S
C989 H960 0.929 . S
C989 C988 1.329 . S
H990 C963 0.931 . S
C991 O973 1.265 . S
C991 O974 1.242 . S
C992 O977 1.261 . S
C992 O978 1.252 . S
C993 C996 1.394 . S
C993 C998 1.370 . S
C993 C999 1.500 . S
C994 C997 1.383 . S
C994 C998 1.395 . S
C995 C996 1.396 . S
C995 C997 1.365 . S
C995 H1004 0.929 . S
C996 C993 1.394 . S
C996 C995 1.396 . S
C996 H1005 0.930 . S
C997 C994 1.383 . S
C997 C995 1.365 . S
C997 H1006 0.931 . S
C998 C993 1.370 . S
C998 C994 1.395 . S
C998 H1007 0.930 . S
C999 Gd935 2.805 . S
C999 O975 1.263 . S
C999 O976 1.252 . S
C999 C993 1.500 . S
H1000 C983 0.929 . S
H1001 C984 0.930 . S
H1002 C985 0.931 . S
H1003 C986 0.930 . S
H1004 C995 0.929 . S
H1005 C996 0.930 . S
H1006 C997 0.931 . S
H1007 C998 0.930 . S
C1008 C1010 1.422 . S
C1008 C1012 1.415 . S
C1008 N1014 1.369 . S
C1009 C1010 1.421 . S
C1009 C1011 1.417 . S
C1009 C1021 1.422 . S
C1010 C1008 1.422 . S
C1010 C1009 1.421 . S
C1010 N1020 1.359 . S
C1011 C1009 1.417 . S
C1011 C1013 1.329 . S
C1011 H1030 0.930 . S
C1012 C1008 1.415 . S
C1012 C1013 1.437 . S
C1012 C1016 1.413 . S
C1013 C1011 1.329 . S
C1013 C1012 1.437 . S
C1013 H1035 0.929 . S
N1014 C1008 1.369 . S
N1014 C1015 1.338 . S
N1014 Gd1019 2.622 . S
C1015 N1014 1.338 . S
C1015 C1017 1.378 . S
C1015 H1027 0.929 . S
C1016 C1012 1.413 . S
C1016 C1017 1.348 . S
C1016 H1032 0.931 . S
C1017 C1015 1.378 . S
C1017 C1016 1.348 . S
C1017 H1033 0.930 . S
Gd1018 N1038 2.622 1_554 S
Gd1018 N1045 2.570 1_554 S
Gd1018 O1052 2.353 . S
Gd1018 O1053 2.468 . S
Gd1018 O1054 2.427 . S
Gd1018 O1056 2.388 . S
Gd1018 O1057 2.386 1_554 S
Gd1018 O1061 2.307 . S
Gd1018 C1071 2.805 . S
Gd1019 N1014 2.622 . S
Gd1019 N1020 2.570 . S
Gd1019 O1051 2.386 . S
Gd1019 O1055 2.307 . S
Gd1019 O1058 2.353 1_554 S
Gd1019 O1059 2.468 . S
Gd1019 O1060 2.427 . S
Gd1019 O1062 2.388 . S
Gd1019 C1083 2.805 . S
N1020 C1010 1.359 . S
N1020 Gd1019 2.570 . S
N1020 C1022 1.343 . S
C1021 C1009 1.422 . S
C1021 C1023 1.321 . S
C1021 H1029 0.931 . S
C1022 N1020 1.343 . S
C1022 C1023 1.390 . S
C1022 H1024 0.931 . S
C1023 C1021 1.321 . S
C1023 C1022 1.390 . S
C1023 H1025 0.930 . S
H1024 C1022 0.931 . S
H1025 C1023 0.930 . S
H1026 C1049 0.931 . S
H1027 C1015 0.929 . S
H1028 C1050 0.930 . S
H1029 C1021 0.931 . S
H1030 C1011 0.930 . S
H1031 C1040 0.929 1_554 S
H1032 C1016 0.931 . S
H1033 C1017 0.930 . S
H1034 C1072 0.930 . S
H1035 C1013 0.929 . S
H1036 C1041 0.931 . S
H1037 C1042 0.930 . S
N1038 Gd1018 2.622 1_556 S
N1038 C1039 1.369 . S
N1038 C1040 1.338 . S
C1039 N1038 1.369 . S
C1039 C1043 1.415 . S
C1039 C1046 1.422 . S
C1040 H1031 0.929 1_556 S
C1040 N1038 1.338 . S
C1040 C1042 1.378 . S
C1041 H1036 0.931 . S
C1041 C1042 1.348 . S
C1041 C1043 1.413 . S
C1042 H1037 0.930 . S
C1042 C1040 1.378 . S
C1042 C1041 1.348 . S
C1043 C1039 1.415 . S
C1043 C1041 1.413 . S
C1043 C1073 1.437 . S
H1044 C1073 0.929 . S
N1045 Gd1018 2.570 1_556 S
N1045 C1046 1.359 . S
N1045 C1049 1.343 . S
C1046 C1039 1.422 . S
C1046 N1045 1.359 . S
C1046 C1048 1.421 . S
C1047 C1048 1.422 . S
C1047 C1050 1.321 . S
C1047 H1074 0.931 . S
C1048 C1046 1.421 . S
C1048 C1047 1.422 . S
C1048 C1072 1.417 . S
C1049 H1026 0.931 . S
C1049 N1045 1.343 . S
C1049 C1050 1.390 . S
C1050 H1028 0.930 . S
C1050 C1047 1.321 . S
C1050 C1049 1.390 . S
O1051 Gd1019 2.386 . S
O1051 C1063 1.265 . S
O1052 Gd1018 2.353 . S
O1052 C1063 1.242 . S
O1053 Gd1018 2.468 . S
O1053 C1071 1.263 . S
O1054 Gd1018 2.427 . S
O1054 C1071 1.252 . S
O1055 Gd1019 2.307 . S
O1055 C1064 1.261 . S
O1056 Gd1018 2.388 . S
O1056 C1064 1.252 . S
O1057 Gd1018 2.386 1_556 S
O1057 C1075 1.265 . S
O1058 Gd1019 2.353 1_556 S
O1058 C1075 1.242 . S
O1059 Gd1019 2.468 . S
O1059 C1083 1.263 . S
O1060 Gd1019 2.427 . S
O1060 C1083 1.252 . S
O1061 Gd1018 2.307 . S
O1061 C1076 1.261 . S
O1062 Gd1019 2.388 . S
O1062 C1076 1.252 . S
C1063 O1051 1.265 . S
C1063 O1052 1.242 . S
C1064 O1055 1.261 . S
C1064 O1056 1.252 . S
C1065 C1068 1.394 . S
C1065 C1070 1.370 . S
C1065 C1071 1.500 . S
C1066 C1069 1.383 . S
C1066 C1070 1.395 . S
C1067 C1068 1.396 . S
C1067 C1069 1.365 . S
C1067 H1084 0.929 . S
C1068 C1065 1.394 . S
C1068 C1067 1.396 . S
C1068 H1085 0.930 . S
C1069 C1066 1.383 . S
C1069 C1067 1.365 . S
C1069 H1086 0.931 . S
C1070 C1065 1.370 . S
C1070 C1066 1.395 . S
C1070 H1087 0.930 . S
C1071 Gd1018 2.805 . S
C1071 O1053 1.263 . S
C1071 O1054 1.252 . S
C1071 C1065 1.500 . S
C1072 H1034 0.930 . S
C1072 C1048 1.417 . S
C1072 C1073 1.329 . S
C1073 C1043 1.437 . S
C1073 H1044 0.929 . S
C1073 C1072 1.329 . S
H1074 C1047 0.931 . S
C1075 O1057 1.265 . S
C1075 O1058 1.242 . S
C1076 O1061 1.261 . S
C1076 O1062 1.252 . S
C1077 C1080 1.394 . S
C1077 C1082 1.370 . S
C1077 C1083 1.500 1_556 S
C1078 C1081 1.383 . S
C1078 C1082 1.395 . S
C1079 C1080 1.396 . S
C1079 C1081 1.365 . S
C1079 H1088 0.929 . S
C1080 C1077 1.394 . S
C1080 C1079 1.396 . S
C1080 H1089 0.930 . S
C1081 C1078 1.383 . S
C1081 C1079 1.365 . S
C1081 H1090 0.931 . S
C1082 C1077 1.370 . S
C1082 C1078 1.395 . S
C1082 H1091 0.930 . S
C1083 Gd1019 2.805 . S
C1083 O1059 1.263 . S
C1083 O1060 1.252 . S
C1083 C1077 1.500 1_554 S
H1084 C1067 0.929 . S
H1085 C1068 0.930 . S
H1086 C1069 0.931 . S
H1087 C1070 0.930 . S
H1088 C1079 0.929 . S
H1089 C1080 0.930 . S
H1090 C1081 0.931 . S
H1091 C1082 0.930 . S
C1092 C1094 1.422 . S
C1092 C1096 1.415 . S
C1092 N1098 1.369 . S
C1093 C1094 1.421 . S
C1093 C1095 1.417 . S
C1093 C1105 1.422 . S
C1094 C1092 1.422 . S
C1094 C1093 1.421 . S
C1094 N1104 1.359 . S
C1095 C1093 1.417 . S
C1095 C1097 1.329 . S
C1095 H1114 0.930 . S
C1096 C1092 1.415 . S
C1096 C1097 1.437 . S
C1096 C1100 1.413 . S
C1097 C1095 1.329 . S
C1097 C1096 1.437 . S
C1097 H1119 0.929 . S
N1098 C1092 1.369 . S
N1098 C1099 1.338 . S
N1098 Gd1103 2.622 . S
C1099 N1098 1.338 . S
C1099 C1101 1.378 . S
C1099 H1111 0.929 . S
C1100 C1096 1.413 . S
C1100 C1101 1.348 . S
C1100 H1116 0.931 . S
C1101 C1099 1.378 . S
C1101 C1100 1.348 . S
C1101 H1117 0.930 . S
Gd1102 N1122 2.622 . S
Gd1102 N1129 2.570 . S
Gd1102 O1136 2.353 . S
Gd1102 O1137 2.468 . S
Gd1102 O1138 2.427 . S
Gd1102 O1140 2.388 . S
Gd1102 O1141 2.386 . S
Gd1102 O1145 2.307 . S
Gd1102 C1155 2.805 . S
Gd1103 N1098 2.622 . S
Gd1103 N1104 2.570 . S
Gd1103 O1135 2.386 . S
Gd1103 O1139 2.307 . S
Gd1103 O1142 2.353 . S
Gd1103 O1143 2.468 . S
Gd1103 O1144 2.427 . S
Gd1103 O1146 2.388 . S
Gd1103 C1167 2.805 . S
N1104 C1094 1.359 . S
N1104 Gd1103 2.570 . S
N1104 C1106 1.343 . S
C1105 C1093 1.422 . S
C1105 C1107 1.321 . S
C1105 H1113 0.931 . S
C1106 N1104 1.343 . S
C1106 C1107 1.390 . S
C1106 H1108 0.931 . S
C1107 C1105 1.321 . S
C1107 C1106 1.390 . S
C1107 H1109 0.930 . S
H1108 C1106 0.931 . S
H1109 C1107 0.930 . S
H1110 C1133 0.931 . S
H1111 C1099 0.929 . S
H1112 C1134 0.930 . S
H1113 C1105 0.931 . S
H1114 C1095 0.930 . S
H1115 C1124 0.929 . S
H1116 C1100 0.931 . S
H1117 C1101 0.930 . S
H1118 C1156 0.930 . S
H1119 C1097 0.929 . S
H1120 C1125 0.931 . S
H1121 C1126 0.930 . S
N1122 Gd1102 2.622 . S
N1122 C1123 1.369 . S
N1122 C1124 1.338 . S
C1123 N1122 1.369 . S
C1123 C1127 1.415 . S
C1123 C1130 1.422 . S
C1124 H1115 0.929 . S
C1124 N1122 1.338 . S
C1124 C1126 1.378 . S
C1125 H1120 0.931 . S
C1125 C1126 1.348 . S
C1125 C1127 1.413 . S
C1126 H1121 0.930 . S
C1126 C1124 1.378 . S
C1126 C1125 1.348 . S
C1127 C1123 1.415 . S
C1127 C1125 1.413 . S
C1127 C1157 1.437 . S
H1128 C1157 0.929 . S
N1129 Gd1102 2.570 . S
N1129 C1130 1.359 . S
N1129 C1133 1.343 . S
C1130 C1123 1.422 . S
C1130 N1129 1.359 . S
C1130 C1132 1.421 . S
C1131 C1132 1.422 . S
C1131 C1134 1.321 . S
C1131 H1158 0.931 . S
C1132 C1130 1.421 . S
C1132 C1131 1.422 . S
C1132 C1156 1.417 . S
C1133 H1110 0.931 . S
C1133 N1129 1.343 . S
C1133 C1134 1.390 . S
C1134 H1112 0.930 . S
C1134 C1131 1.321 . S
C1134 C1133 1.390 . S
O1135 Gd1103 2.386 . S
O1135 C1147 1.265 . S
O1136 Gd1102 2.353 . S
O1136 C1147 1.242 . S
O1137 Gd1102 2.468 . S
O1137 C1155 1.263 . S
O1138 Gd1102 2.427 . S
O1138 C1155 1.252 . S
O1139 Gd1103 2.307 . S
O1139 C1148 1.261 . S
O1140 Gd1102 2.388 . S
O1140 C1148 1.252 . S
O1141 Gd1102 2.386 . S
O1141 C1159 1.265 . S
O1142 Gd1103 2.353 . S
O1142 C1159 1.242 . S
O1143 Gd1103 2.468 . S
O1143 C1167 1.263 . S
O1144 Gd1103 2.427 . S
O1144 C1167 1.252 . S
O1145 Gd1102 2.307 . S
O1145 C1160 1.261 . S
O1146 Gd1103 2.388 . S
O1146 C1160 1.252 . S
C1147 O1135 1.265 . S
C1147 O1136 1.242 . S
C1148 O1139 1.261 . S
C1148 O1140 1.252 . S
C1149 C1152 1.394 . S
C1149 C1154 1.370 . S
C1149 C1155 1.500 . S
C1150 C1153 1.383 . S
C1150 C1154 1.395 . S
C1151 C1152 1.396 . S
C1151 C1153 1.365 . S
C1151 H1168 0.929 . S
C1152 C1149 1.394 . S
C1152 C1151 1.396 . S
C1152 H1169 0.930 . S
C1153 C1150 1.383 . S
C1153 C1151 1.365 . S
C1153 H1170 0.931 . S
C1154 C1149 1.370 . S
C1154 C1150 1.395 . S
C1154 H1171 0.930 . S
C1155 Gd1102 2.805 . S
C1155 O1137 1.263 . S
C1155 O1138 1.252 . S
C1155 C1149 1.500 . S
C1156 H1118 0.930 . S
C1156 C1132 1.417 . S
C1156 C1157 1.329 . S
C1157 C1127 1.437 . S
C1157 H1128 0.929 . S
C1157 C1156 1.329 . S
H1158 C1131 0.931 . S
C1159 O1141 1.265 . S
C1159 O1142 1.242 . S
C1160 O1145 1.261 . S
C1160 O1146 1.252 . S
C1161 C1164 1.394 . S
C1161 C1166 1.370 . S
C1161 C1167 1.500 . S
C1162 C1165 1.383 . S
C1162 C1166 1.395 . S
C1163 C1164 1.396 . S
C1163 C1165 1.365 . S
C1163 H1172 0.929 . S
C1164 C1161 1.394 . S
C1164 C1163 1.396 . S
C1164 H1173 0.930 . S
C1165 C1162 1.383 . S
C1165 C1163 1.365 . S
C1165 H1174 0.931 . S
C1166 C1161 1.370 . S
C1166 C1162 1.395 . S
C1166 H1175 0.930 . S
C1167 Gd1103 2.805 . S
C1167 O1143 1.263 . S
C1167 O1144 1.252 . S
C1167 C1161 1.500 . S
H1168 C1151 0.929 . S
H1169 C1152 0.930 . S
H1170 C1153 0.931 . S
H1171 C1154 0.930 . S
H1172 C1163 0.929 . S
H1173 C1164 0.930 . S
H1174 C1165 0.931 . S
H1175 C1166 0.930 . S
C1176 C1178 1.422 . S
C1176 C1180 1.415 . S
C1176 N1182 1.369 . S
C1177 C1178 1.421 . S
C1177 C1179 1.417 . S
C1177 C1189 1.422 . S
C1178 C1176 1.422 . S
C1178 C1177 1.421 . S
C1178 N1188 1.359 . S
C1179 C1177 1.417 . S
C1179 C1181 1.329 . S
C1179 H1198 0.930 . S
C1180 C1176 1.415 . S
C1180 C1181 1.437 . S
C1180 C1184 1.413 . S
C1181 C1179 1.329 . S
C1181 C1180 1.437 . S
C1181 H1203 0.929 . S
N1182 C1176 1.369 . S
N1182 C1183 1.338 . S
N1182 Gd1187 2.622 . S
C1183 N1182 1.338 . S
C1183 C1185 1.378 . S
C1183 H1195 0.929 . S
C1184 C1180 1.413 . S
C1184 C1185 1.348 . S
C1184 H1200 0.931 . S
C1185 C1183 1.378 . S
C1185 C1184 1.348 . S
C1185 H1201 0.930 . S
Gd1186 N1206 2.642 . S
Gd1186 N1213 2.570 1_455 S
Gd1186 O1220 2.353 . S
Gd1186 O1221 2.468 . S
Gd1186 O1222 2.427 . S
Gd1186 O1224 2.388 . S
Gd1186 O1225 2.386 1_455 S
Gd1186 O1229 2.307 . S
Gd1186 C1239 2.805 . S
Gd1187 N1182 2.622 . S
Gd1187 N1188 2.570 . S
Gd1187 O1219 2.386 . S
Gd1187 O1223 2.307 . S
Gd1187 O1226 2.353 1_455 S
Gd1187 O1227 2.468 . S
Gd1187 O1228 2.427 . S
Gd1187 O1230 2.388 . S
Gd1187 C1251 2.805 . S
N1188 C1178 1.359 . S
N1188 Gd1187 2.570 . S
N1188 C1190 1.343 . S
C1189 C1177 1.422 . S
C1189 C1191 1.321 . S
C1189 H1197 0.931 . S
C1190 N1188 1.343 . S
C1190 C1191 1.390 . S
C1190 H1192 0.931 . S
C1191 C1189 1.321 . S
C1191 C1190 1.390 . S
C1191 H1193 0.930 . S
H1192 C1190 0.931 . S
H1193 C1191 0.930 . S
H1194 C1217 0.931 1_455 S
H1195 C1183 0.929 . S
H1196 C1218 0.930 . S
H1197 C1189 0.931 . S
H1198 C1179 0.930 . S
H1199 C1208 0.929 . S
H1200 C1184 0.931 . S
H1201 C1185 0.930 . S
H1202 C1240 0.930 . S
H1203 C1181 0.929 . S
H1204 C1209 0.931 . S
H1205 C1210 0.930 . S
N1206 Gd1186 2.642 . S
N1206 C1207 1.353 1_455 S
N1206 C1208 1.332 . S
C1207 N1206 1.353 1_655 S
C1207 C1211 1.415 . S
C1207 C1214 1.422 . S
C1208 H1199 0.929 . S
C1208 N1206 1.332 . S
C1208 C1210 1.378 1_455 S
C1209 H1204 0.931 . S
C1209 C1210 1.348 . S
C1209 C1211 1.413 . S
C1210 H1205 0.930 . S
C1210 C1208 1.378 1_655 S
C1210 C1209 1.348 . S
C1211 C1207 1.415 . S
C1211 C1209 1.413 . S
C1211 C1241 1.437 . S
H1212 C1241 0.929 . S
N1213 Gd1186 2.570 1_655 S
N1213 C1214 1.359 . S
N1213 C1217 1.343 . S
C1214 C1207 1.422 . S
C1214 N1213 1.359 . S
C1214 C1216 1.421 . S
C1215 C1216 1.422 . S
C1215 C1218 1.321 . S
C1215 H1242 0.931 . S
C1216 C1214 1.421 . S
C1216 C1215 1.422 . S
C1216 C1240 1.417 . S
C1217 H1194 0.931 1_655 S
C1217 N1213 1.343 . S
C1217 C1218 1.390 . S
C1218 H1196 0.930 . S
C1218 C1215 1.321 . S
C1218 C1217 1.390 . S
O1219 Gd1187 2.386 . S
O1219 C1231 1.265 . S
O1220 Gd1186 2.353 . S
O1220 C1231 1.242 . S
O1221 Gd1186 2.468 . S
O1221 C1239 1.263 . S
O1222 Gd1186 2.427 . S
O1222 C1239 1.252 . S
O1223 Gd1187 2.307 . S
O1223 C1232 1.261 . S
O1224 Gd1186 2.388 . S
O1224 C1232 1.252 . S
O1225 Gd1186 2.386 1_655 S
O1225 C1243 1.265 . S
O1226 Gd1187 2.353 1_655 S
O1226 C1243 1.242 . S
O1227 Gd1187 2.468 . S
O1227 C1251 1.263 . S
O1228 Gd1187 2.427 . S
O1228 C1251 1.252 . S
O1229 Gd1186 2.307 . S
O1229 C1244 1.261 . S
O1230 Gd1187 2.388 . S
O1230 C1244 1.252 . S
C1231 O1219 1.265 . S
C1231 O1220 1.242 . S
C1232 O1223 1.261 . S
C1232 O1224 1.252 . S
C1233 C1236 1.394 . S
C1233 C1238 1.370 . S
C1233 C1239 1.500 . S
C1234 C1237 1.383 . S
C1234 C1238 1.395 . S
C1235 C1236 1.396 . S
C1235 C1237 1.365 . S
C1235 H1252 0.929 . S
C1236 C1233 1.394 . S
C1236 C1235 1.396 . S
C1236 H1253 0.930 . S
C1237 C1234 1.383 . S
C1237 C1235 1.365 . S
C1237 H1254 0.931 . S
C1238 C1233 1.370 . S
C1238 C1234 1.395 . S
C1238 H1255 0.930 . S
C1239 Gd1186 2.805 . S
C1239 O1221 1.263 . S
C1239 O1222 1.252 . S
C1239 C1233 1.500 . S
C1240 H1202 0.930 . S
C1240 C1216 1.417 . S
C1240 C1241 1.329 . S
C1241 C1211 1.437 . S
C1241 H1212 0.929 . S
C1241 C1240 1.329 . S
H1242 C1215 0.931 . S
C1243 O1225 1.265 . S
C1243 O1226 1.242 . S
C1244 O1229 1.261 . S
C1244 O1230 1.252 . S
C1245 C1248 1.394 . S
C1245 C1250 1.370 . S
C1245 C1251 1.500 1_655 S
C1246 C1249 1.383 . S
C1246 C1250 1.395 . S
C1247 C1248 1.396 . S
C1247 C1249 1.365 . S
C1247 H1256 0.929 . S
C1248 C1245 1.394 . S
C1248 C1247 1.396 . S
C1248 H1257 0.930 . S
C1249 C1246 1.383 . S
C1249 C1247 1.365 . S
C1249 H1258 0.931 . S
C1250 C1245 1.370 . S
C1250 C1246 1.395 . S
C1250 H1259 0.930 . S
C1251 Gd1187 2.805 . S
C1251 O1227 1.263 . S
C1251 O1228 1.252 . S
C1251 C1245 1.500 1_455 S
H1252 C1235 0.929 . S
H1253 C1236 0.930 . S
H1254 C1237 0.931 . S
H1255 C1238 0.930 . S
H1256 C1247 0.929 . S
H1257 C1248 0.930 . S
H1258 C1249 0.931 . S
H1259 C1250 0.930 . S
C1260 C1262 1.422 . S
C1260 C1264 1.415 . S
C1260 N1266 1.369 . S
C1261 C1262 1.421 . S
C1261 C1263 1.417 . S
C1261 C1273 1.422 . S
C1262 C1260 1.422 . S
C1262 C1261 1.421 . S
C1262 N1272 1.359 . S
C1263 C1261 1.417 . S
C1263 C1265 1.329 . S
C1263 H1282 0.930 . S
C1264 C1260 1.415 . S
C1264 C1265 1.437 . S
C1264 C1268 1.413 . S
C1265 C1263 1.329 . S
C1265 C1264 1.437 . S
C1265 H1287 0.929 . S
N1266 C1260 1.369 . S
N1266 C1267 1.338 . S
N1266 Gd1271 2.622 . S
C1267 N1266 1.338 . S
C1267 C1269 1.378 . S
C1267 H1279 0.929 . S
C1268 C1264 1.413 . S
C1268 C1269 1.348 . S
C1268 H1284 0.931 . S
C1269 C1267 1.378 . S
C1269 C1268 1.348 . S
C1269 H1285 0.930 . S
Gd1270 N1290 2.622 . S
Gd1270 N1297 2.570 . S
Gd1270 O1304 2.353 . S
Gd1270 O1305 2.468 . S
Gd1270 O1306 2.427 . S
Gd1270 O1308 2.388 . S
Gd1270 O1309 2.386 . S
Gd1270 O1313 2.307 . S
Gd1270 C1323 2.805 . S
Gd1271 N1266 2.622 . S
Gd1271 N1272 2.570 . S
Gd1271 O1303 2.386 . S
Gd1271 O1307 2.307 . S
Gd1271 O1310 2.353 . S
Gd1271 O1311 2.468 . S
Gd1271 O1312 2.427 . S
Gd1271 O1314 2.388 . S
Gd1271 C1335 2.805 . S
N1272 C1262 1.359 . S
N1272 Gd1271 2.570 . S
N1272 C1274 1.343 . S
C1273 C1261 1.422 . S
C1273 C1275 1.321 . S
C1273 H1281 0.931 . S
C1274 N1272 1.343 . S
C1274 C1275 1.390 . S
C1274 H1276 0.931 . S
C1275 C1273 1.321 . S
C1275 C1274 1.390 . S
C1275 H1277 0.930 . S
H1276 C1274 0.931 . S
H1277 C1275 0.930 . S
H1278 C1301 0.931 . S
H1279 C1267 0.929 . S
H1280 C1302 0.930 . S
H1281 C1273 0.931 . S
H1282 C1263 0.930 . S
H1283 C1292 0.929 . S
H1284 C1268 0.931 . S
H1285 C1269 0.930 . S
H1286 C1324 0.930 . S
H1287 C1265 0.929 . S
H1288 C1293 0.931 . S
H1289 C1294 0.930 . S
N1290 Gd1270 2.622 . S
N1290 C1291 1.369 . S
N1290 C1292 1.338 . S
C1291 N1290 1.369 . S
C1291 C1295 1.415 . S
C1291 C1298 1.422 . S
C1292 H1283 0.929 . S
C1292 N1290 1.338 . S
C1292 C1294 1.378 . S
C1293 H1288 0.931 . S
C1293 C1294 1.348 . S
C1293 C1295 1.413 . S
C1294 H1289 0.930 . S
C1294 C1292 1.378 . S
C1294 C1293 1.348 . S
C1295 C1291 1.415 . S
C1295 C1293 1.413 . S
C1295 C1325 1.437 . S
H1296 C1325 0.929 . S
N1297 Gd1270 2.570 . S
N1297 C1298 1.359 . S
N1297 C1301 1.343 . S
C1298 C1291 1.422 . S
C1298 N1297 1.359 . S
C1298 C1300 1.421 . S
C1299 C1300 1.422 . S
C1299 C1302 1.321 . S
C1299 H1326 0.931 . S
C1300 C1298 1.421 . S
C1300 C1299 1.422 . S
C1300 C1324 1.417 . S
C1301 H1278 0.931 . S
C1301 N1297 1.343 . S
C1301 C1302 1.390 . S
C1302 H1280 0.930 . S
C1302 C1299 1.321 . S
C1302 C1301 1.390 . S
O1303 Gd1271 2.386 . S
O1303 C1315 1.265 . S
O1304 Gd1270 2.353 . S
O1304 C1315 1.242 . S
O1305 Gd1270 2.468 . S
O1305 C1323 1.263 . S
O1306 Gd1270 2.427 . S
O1306 C1323 1.252 . S
O1307 Gd1271 2.307 . S
O1307 C1316 1.261 . S
O1308 Gd1270 2.388 . S
O1308 C1316 1.252 . S
O1309 Gd1270 2.386 . S
O1309 C1327 1.265 . S
O1310 Gd1271 2.353 . S
O1310 C1327 1.242 . S
O1311 Gd1271 2.468 . S
O1311 C1335 1.263 . S
O1312 Gd1271 2.427 . S
O1312 C1335 1.252 . S
O1313 Gd1270 2.307 . S
O1313 C1328 1.261 . S
O1314 Gd1271 2.388 . S
O1314 C1328 1.252 . S
C1315 O1303 1.265 . S
C1315 O1304 1.242 . S
C1316 O1307 1.261 . S
C1316 O1308 1.252 . S
C1317 C1320 1.394 . S
C1317 C1322 1.370 . S
C1317 C1323 1.500 . S
C1318 C1321 1.383 . S
C1318 C1322 1.395 . S
C1319 C1320 1.396 . S
C1319 C1321 1.365 . S
C1319 H1336 0.929 . S
C1320 C1317 1.394 . S
C1320 C1319 1.396 . S
C1320 H1337 0.930 . S
C1321 C1318 1.383 . S
C1321 C1319 1.365 . S
C1321 H1338 0.931 . S
C1322 C1317 1.370 . S
C1322 C1318 1.395 . S
C1322 H1339 0.930 . S
C1323 Gd1270 2.805 . S
C1323 O1305 1.263 . S
C1323 O1306 1.252 . S
C1323 C1317 1.500 . S
C1324 H1286 0.930 . S
C1324 C1300 1.417 . S
C1324 C1325 1.329 . S
C1325 C1295 1.437 . S
C1325 H1296 0.929 . S
C1325 C1324 1.329 . S
H1326 C1299 0.931 . S
C1327 O1309 1.265 . S
C1327 O1310 1.242 . S
C1328 O1313 1.261 . S
C1328 O1314 1.252 . S
C1329 C1332 1.394 . S
C1329 C1334 1.370 . S
C1329 C1335 1.500 . S
C1330 C1333 1.383 . S
C1330 C1334 1.395 . S
C1331 C1332 1.396 . S
C1331 C1333 1.365 . S
C1331 H1340 0.929 . S
C1332 C1329 1.394 . S
C1332 C1331 1.396 . S
C1332 H1341 0.930 . S
C1333 C1330 1.383 . S
C1333 C1331 1.365 . S
C1333 H1342 0.931 . S
C1334 C1329 1.370 . S
C1334 C1330 1.395 . S
C1334 H1343 0.930 . S
C1335 Gd1271 2.805 . S
C1335 O1311 1.263 . S
C1335 O1312 1.252 . S
C1335 C1329 1.500 . S
H1336 C1319 0.929 . S
H1337 C1320 0.930 . S
H1338 C1321 0.931 . S
H1339 C1322 0.930 . S
H1340 C1331 0.929 . S
H1341 C1332 0.930 . S
H1342 C1333 0.931 . S
H1343 C1334 0.930 . S
C1344 C1346 1.422 . S
C1344 C1348 1.415 . S
C1344 N1350 1.369 . S
C1345 C1346 1.421 . S
C1345 C1347 1.417 . S
C1345 C1357 1.422 . S
C1346 C1344 1.422 . S
C1346 C1345 1.421 . S
C1346 N1356 1.359 . S
C1347 C1345 1.417 . S
C1347 C1349 1.329 . S
C1347 H1366 0.930 . S
C1348 C1344 1.415 . S
C1348 C1349 1.437 . S
C1348 C1352 1.413 . S
C1349 C1347 1.329 . S
C1349 C1348 1.437 . S
C1349 H1371 0.929 . S
N1350 C1344 1.369 . S
N1350 C1351 1.338 . S
N1350 Gd1355 2.622 . S
C1351 N1350 1.338 . S
C1351 C1353 1.378 . S
C1351 H1363 0.929 . S
C1352 C1348 1.413 . S
C1352 C1353 1.348 . S
C1352 H1368 0.931 . S
C1353 C1351 1.378 . S
C1353 C1352 1.348 . S
C1353 H1369 0.930 . S
Gd1354 N1374 2.622 . S
Gd1354 N1381 2.570 . S
Gd1354 O1388 2.353 . S
Gd1354 O1389 2.468 . S
Gd1354 O1390 2.427 . S
Gd1354 O1392 2.388 . S
Gd1354 O1393 2.386 . S
Gd1354 O1397 2.307 . S
Gd1354 C1407 2.805 . S
Gd1355 N1350 2.622 . S
Gd1355 N1356 2.570 . S
Gd1355 O1387 2.386 . S
Gd1355 O1391 2.307 . S
Gd1355 O1394 2.353 . S
Gd1355 O1395 2.468 . S
Gd1355 O1396 2.427 . S
Gd1355 O1398 2.388 . S
Gd1355 C1419 2.805 . S
N1356 C1346 1.359 . S
N1356 Gd1355 2.570 . S
N1356 C1358 1.343 . S
C1357 C1345 1.422 . S
C1357 C1359 1.321 . S
C1357 H1365 0.931 . S
C1358 N1356 1.343 . S
C1358 C1359 1.390 . S
C1358 H1360 0.931 . S
C1359 C1357 1.321 . S
C1359 C1358 1.390 . S
C1359 H1361 0.930 . S
H1360 C1358 0.931 . S
H1361 C1359 0.930 . S
H1362 C1385 0.931 . S
H1363 C1351 0.929 . S
H1364 C1386 0.930 . S
H1365 C1357 0.931 . S
H1366 C1347 0.930 . S
H1367 C1376 0.929 . S
H1368 C1352 0.931 . S
H1369 C1353 0.930 . S
H1370 C1408 0.930 . S
H1371 C1349 0.929 . S
H1372 C1377 0.931 . S
H1373 C1378 0.930 . S
N1374 Gd1354 2.622 . S
N1374 C1375 1.369 . S
N1374 C1376 1.338 . S
C1375 N1374 1.369 . S
C1375 C1379 1.415 . S
C1375 C1382 1.422 . S
C1376 H1367 0.929 . S
C1376 N1374 1.338 . S
C1376 C1378 1.378 . S
C1377 H1372 0.931 . S
C1377 C1378 1.348 . S
C1377 C1379 1.413 . S
C1378 H1373 0.930 . S
C1378 C1376 1.378 . S
C1378 C1377 1.348 . S
C1379 C1375 1.415 . S
C1379 C1377 1.413 . S
C1379 C1409 1.437 . S
H1380 C1409 0.929 . S
N1381 Gd1354 2.570 . S
N1381 C1382 1.359 . S
N1381 C1385 1.343 . S
C1382 C1375 1.422 . S
C1382 N1381 1.359 . S
C1382 C1384 1.421 . S
C1383 C1384 1.422 . S
C1383 C1386 1.321 . S
C1383 H1410 0.931 . S
C1384 C1382 1.421 . S
C1384 C1383 1.422 . S
C1384 C1408 1.417 . S
C1385 H1362 0.931 . S
C1385 N1381 1.343 . S
C1385 C1386 1.390 . S
C1386 H1364 0.930 . S
C1386 C1383 1.321 . S
C1386 C1385 1.390 . S
O1387 Gd1355 2.386 . S
O1387 C1399 1.265 . S
O1388 Gd1354 2.353 . S
O1388 C1399 1.242 . S
O1389 Gd1354 2.468 . S
O1389 C1407 1.263 . S
O1390 Gd1354 2.427 . S
O1390 C1407 1.252 . S
O1391 Gd1355 2.307 . S
O1391 C1400 1.261 . S
O1392 Gd1354 2.388 . S
O1392 C1400 1.252 . S
O1393 Gd1354 2.386 . S
O1393 C1411 1.265 . S
O1394 Gd1355 2.353 . S
O1394 C1411 1.242 . S
O1395 Gd1355 2.468 . S
O1395 C1419 1.263 . S
O1396 Gd1355 2.427 . S
O1396 C1419 1.252 . S
O1397 Gd1354 2.307 . S
O1397 C1412 1.261 . S
O1398 Gd1355 2.388 . S
O1398 C1412 1.252 . S
C1399 O1387 1.265 . S
C1399 O1388 1.242 . S
C1400 O1391 1.261 . S
C1400 O1392 1.252 . S
C1401 C1404 1.394 . S
C1401 C1406 1.370 . S
C1401 C1407 1.500 . S
C1402 C1405 1.383 . S
C1402 C1406 1.395 . S
C1403 C1404 1.396 . S
C1403 C1405 1.365 . S
C1403 H1420 0.929 . S
C1404 C1401 1.394 . S
C1404 C1403 1.396 . S
C1404 H1421 0.930 . S
C1405 C1402 1.383 . S
C1405 C1403 1.365 . S
C1405 H1422 0.931 . S
C1406 C1401 1.370 . S
C1406 C1402 1.395 . S
C1406 H1423 0.930 . S
C1407 Gd1354 2.805 . S
C1407 O1389 1.263 . S
C1407 O1390 1.252 . S
C1407 C1401 1.500 . S
C1408 H1370 0.930 . S
C1408 C1384 1.417 . S
C1408 C1409 1.329 . S
C1409 C1379 1.437 . S
C1409 H1380 0.929 . S
C1409 C1408 1.329 . S
H1410 C1383 0.931 . S
C1411 O1393 1.265 . S
C1411 O1394 1.242 . S
C1412 O1397 1.261 . S
C1412 O1398 1.252 . S
C1413 C1416 1.394 . S
C1413 C1418 1.370 . S
C1413 C1419 1.500 . S
C1414 C1417 1.383 . S
C1414 C1418 1.395 . S
C1415 C1416 1.396 . S
C1415 C1417 1.365 . S
C1415 H1424 0.929 . S
C1416 C1413 1.394 . S
C1416 C1415 1.396 . S
C1416 H1425 0.930 . S
C1417 C1414 1.383 . S
C1417 C1415 1.365 . S
C1417 H1426 0.931 . S
C1418 C1413 1.370 . S
C1418 C1414 1.395 . S
C1418 H1427 0.930 . S
C1419 Gd1355 2.805 . S
C1419 O1395 1.263 . S
C1419 O1396 1.252 . S
C1419 C1413 1.500 . S
H1420 C1403 0.929 . S
H1421 C1404 0.930 . S
H1422 C1405 0.931 . S
H1423 C1406 0.930 . S
H1424 C1415 0.929 . S
H1425 C1416 0.930 . S
H1426 C1417 0.931 . S
H1427 C1418 0.930 . S
C1428 C1430 1.422 . S
C1428 C1432 1.415 . S
C1428 N1434 1.369 . S
C1429 C1430 1.421 . S
C1429 C1431 1.417 . S
C1429 C1441 1.422 . S
C1430 C1428 1.422 . S
C1430 C1429 1.421 . S
C1430 N1440 1.359 . S
C1431 C1429 1.417 . S
C1431 C1433 1.329 . S
C1431 H1450 0.930 . S
C1432 C1428 1.415 . S
C1432 C1433 1.437 . S
C1432 C1436 1.413 . S
C1433 C1431 1.329 . S
C1433 C1432 1.437 . S
C1433 H1455 0.929 . S
N1434 C1428 1.369 . S
N1434 C1435 1.338 . S
N1434 Gd1439 2.622 . S
C1435 N1434 1.338 . S
C1435 C1437 1.378 . S
C1435 H1447 0.929 . S
C1436 C1432 1.413 . S
C1436 C1437 1.348 . S
C1436 H1452 0.931 . S
C1437 C1435 1.378 . S
C1437 C1436 1.348 . S
C1437 H1453 0.930 . S
Gd1438 N1458 2.622 . S
Gd1438 N1465 2.570 . S
Gd1438 O1472 2.353 . S
Gd1438 O1473 2.468 . S
Gd1438 O1474 2.427 . S
Gd1438 O1476 2.388 . S
Gd1438 O1477 2.386 . S
Gd1438 O1481 2.307 . S
Gd1438 C1491 2.805 . S
Gd1439 N1434 2.622 . S
Gd1439 N1440 2.570 . S
Gd1439 O1471 2.386 . S
Gd1439 O1475 2.307 . S
Gd1439 O1478 2.353 . S
Gd1439 O1479 2.468 . S
Gd1439 O1480 2.427 . S
Gd1439 O1482 2.388 . S
Gd1439 C1503 2.805 . S
N1440 C1430 1.359 . S
N1440 Gd1439 2.570 . S
N1440 C1442 1.343 . S
C1441 C1429 1.422 . S
C1441 C1443 1.321 . S
C1441 H1449 0.931 . S
C1442 N1440 1.343 . S
C1442 C1443 1.390 . S
C1442 H1444 0.931 . S
C1443 C1441 1.321 . S
C1443 C1442 1.390 . S
C1443 H1445 0.930 . S
H1444 C1442 0.931 . S
H1445 C1443 0.930 . S
H1446 C1469 0.931 . S
H1447 C1435 0.929 . S
H1448 C1470 0.930 . S
H1449 C1441 0.931 . S
H1450 C1431 0.930 . S
H1451 C1460 0.929 . S
H1452 C1436 0.931 . S
H1453 C1437 0.930 . S
H1454 C1492 0.930 . S
H1455 C1433 0.929 . S
H1456 C1461 0.931 . S
H1457 C1462 0.930 . S
N1458 Gd1438 2.622 . S
N1458 C1459 1.369 . S
N1458 C1460 1.338 . S
C1459 N1458 1.369 . S
C1459 C1463 1.415 . S
C1459 C1466 1.422 . S
C1460 H1451 0.929 . S
C1460 N1458 1.338 . S
C1460 C1462 1.378 . S
C1461 H1456 0.931 . S
C1461 C1462 1.348 . S
C1461 C1463 1.413 . S
C1462 H1457 0.930 . S
C1462 C1460 1.378 . S
C1462 C1461 1.348 . S
C1463 C1459 1.415 . S
C1463 C1461 1.413 . S
C1463 C1493 1.437 . S
H1464 C1493 0.929 . S
N1465 Gd1438 2.570 . S
N1465 C1466 1.359 . S
N1465 C1469 1.343 . S
C1466 C1459 1.422 . S
C1466 N1465 1.359 . S
C1466 C1468 1.421 . S
C1467 C1468 1.422 . S
C1467 C1470 1.321 . S
C1467 H1494 0.931 . S
C1468 C1466 1.421 . S
C1468 C1467 1.422 . S
C1468 C1492 1.417 . S
C1469 H1446 0.931 . S
C1469 N1465 1.343 . S
C1469 C1470 1.390 . S
C1470 H1448 0.930 . S
C1470 C1467 1.321 . S
C1470 C1469 1.390 . S
O1471 Gd1439 2.386 . S
O1471 C1483 1.265 . S
O1472 Gd1438 2.353 . S
O1472 C1483 1.242 . S
O1473 Gd1438 2.468 . S
O1473 C1491 1.263 . S
O1474 Gd1438 2.427 . S
O1474 C1491 1.252 . S
O1475 Gd1439 2.307 . S
O1475 C1484 1.261 . S
O1476 Gd1438 2.388 . S
O1476 C1484 1.252 . S
O1477 Gd1438 2.386 . S
O1477 C1495 1.265 . S
O1478 Gd1439 2.353 . S
O1478 C1495 1.242 . S
O1479 Gd1439 2.468 . S
O1479 C1503 1.263 . S
O1480 Gd1439 2.427 . S
O1480 C1503 1.252 . S
O1481 Gd1438 2.307 . S
O1481 C1496 1.261 . S
O1482 Gd1439 2.388 . S
O1482 C1496 1.252 . S
C1483 O1471 1.265 . S
C1483 O1472 1.242 . S
C1484 O1475 1.261 . S
C1484 O1476 1.252 . S
C1485 C1488 1.394 . S
C1485 C1490 1.370 . S
C1485 C1491 1.500 . S
C1486 C1489 1.383 . S
C1486 C1490 1.395 . S
C1487 C1488 1.396 . S
C1487 C1489 1.365 . S
C1487 H1504 0.929 . S
C1488 C1485 1.394 . S
C1488 C1487 1.396 . S
C1488 H1505 0.930 . S
C1489 C1486 1.383 . S
C1489 C1487 1.365 . S
C1489 H1506 0.931 . S
C1490 C1485 1.370 . S
C1490 C1486 1.395 . S
C1490 H1507 0.930 . S
C1491 Gd1438 2.805 . S
C1491 O1473 1.263 . S
C1491 O1474 1.252 . S
C1491 C1485 1.500 . S
C1492 H1454 0.930 . S
C1492 C1468 1.417 . S
C1492 C1493 1.329 . S
C1493 C1463 1.437 . S
C1493 H1464 0.929 . S
C1493 C1492 1.329 . S
H1494 C1467 0.931 . S
C1495 O1477 1.265 . S
C1495 O1478 1.242 . S
C1496 O1481 1.261 . S
C1496 O1482 1.252 . S
C1497 C1500 1.394 . S
C1497 C1502 1.370 . S
C1497 C1503 1.500 . S
C1498 C1501 1.383 . S
C1498 C1502 1.395 . S
C1499 C1500 1.396 . S
C1499 C1501 1.365 . S
C1499 H1508 0.929 . S
C1500 C1497 1.394 . S
C1500 C1499 1.396 . S
C1500 H1509 0.930 . S
C1501 C1498 1.383 . S
C1501 C1499 1.365 . S
C1501 H1510 0.931 . S
C1502 C1497 1.370 . S
C1502 C1498 1.395 . S
C1502 H1511 0.930 . S
C1503 Gd1439 2.805 . S
C1503 O1479 1.263 . S
C1503 O1480 1.252 . S
C1503 C1497 1.500 . S
H1504 C1487 0.929 . S
H1505 C1488 0.930 . S
H1506 C1489 0.931 . S
H1507 C1490 0.930 . S
H1508 C1499 0.929 . S
H1509 C1500 0.930 . S
H1510 C1501 0.931 . S
H1511 C1502 0.930 . S
C1512 C1514 1.422 . S
C1512 C1516 1.415 . S
C1512 N1518 1.369 . S
C1513 C1514 1.421 . S
C1513 C1515 1.417 . S
C1513 C1525 1.422 . S
C1514 C1512 1.422 . S
C1514 C1513 1.421 . S
C1514 N1524 1.359 . S
C1515 C1513 1.417 . S
C1515 C1517 1.329 . S
C1515 H1534 0.930 . S
C1516 C1512 1.415 . S
C1516 C1517 1.437 . S
C1516 C1520 1.413 . S
C1517 C1515 1.329 . S
C1517 C1516 1.437 . S
C1517 H1539 0.929 . S
N1518 C1512 1.369 . S
N1518 C1519 1.338 . S
N1518 Gd1523 2.622 . S
C1519 N1518 1.338 . S
C1519 C1521 1.378 . S
C1519 H1531 0.929 . S
C1520 C1516 1.413 . S
C1520 C1521 1.348 . S
C1520 H1536 0.931 . S
C1521 C1519 1.378 . S
C1521 C1520 1.348 . S
C1521 H1537 0.930 . S
Gd1522 N1542 2.622 . S
Gd1522 N1549 2.570 . S
Gd1522 O1556 2.353 . S
Gd1522 O1557 2.468 . S
Gd1522 O1558 2.427 . S
Gd1522 O1560 2.388 . S
Gd1522 O1561 2.386 . S
Gd1522 O1565 2.307 . S
Gd1522 C1575 2.805 . S
Gd1523 N1518 2.622 . S
Gd1523 N1524 2.570 . S
Gd1523 O1555 2.386 . S
Gd1523 O1559 2.307 . S
Gd1523 O1562 2.353 . S
Gd1523 O1563 2.468 . S
Gd1523 O1564 2.427 . S
Gd1523 O1566 2.388 . S
Gd1523 C1587 2.805 . S
N1524 C1514 1.359 . S
N1524 Gd1523 2.570 . S
N1524 C1526 1.343 . S
C1525 C1513 1.422 . S
C1525 C1527 1.321 . S
C1525 H1533 0.931 . S
C1526 N1524 1.343 . S
C1526 C1527 1.390 . S
C1526 H1528 0.931 . S
C1527 C1525 1.321 . S
C1527 C1526 1.390 . S
C1527 H1529 0.930 . S
H1528 C1526 0.931 . S
H1529 C1527 0.930 . S
H1530 C1553 0.931 . S
H1531 C1519 0.929 . S
H1532 C1554 0.930 . S
H1533 C1525 0.931 . S
H1534 C1515 0.930 . S
H1535 C1544 0.929 . S
H1536 C1520 0.931 . S
H1537 C1521 0.930 . S
H1538 C1576 0.930 . S
H1539 C1517 0.929 . S
H1540 C1545 0.931 . S
H1541 C1546 0.930 . S
N1542 Gd1522 2.622 . S
N1542 C1543 1.369 . S
N1542 C1544 1.338 . S
C1543 N1542 1.369 . S
C1543 C1547 1.415 . S
C1543 C1550 1.422 . S
C1544 H1535 0.929 . S
C1544 N1542 1.338 . S
C1544 C1546 1.378 . S
C1545 H1540 0.931 . S
C1545 C1546 1.348 . S
C1545 C1547 1.413 . S
C1546 H1541 0.930 . S
C1546 C1544 1.378 . S
C1546 C1545 1.348 . S
C1547 C1543 1.415 . S
C1547 C1545 1.413 . S
C1547 C1577 1.437 . S
H1548 C1577 0.929 . S
N1549 Gd1522 2.570 . S
N1549 C1550 1.359 . S
N1549 C1553 1.343 . S
C1550 C1543 1.422 . S
C1550 N1549 1.359 . S
C1550 C1552 1.421 . S
C1551 C1552 1.422 . S
C1551 C1554 1.321 . S
C1551 H1578 0.931 . S
C1552 C1550 1.421 . S
C1552 C1551 1.422 . S
C1552 C1576 1.417 . S
C1553 H1530 0.931 . S
C1553 N1549 1.343 . S
C1553 C1554 1.390 . S
C1554 H1532 0.930 . S
C1554 C1551 1.321 . S
C1554 C1553 1.390 . S
O1555 Gd1523 2.386 . S
O1555 C1567 1.265 . S
O1556 Gd1522 2.353 . S
O1556 C1567 1.242 . S
O1557 Gd1522 2.468 . S
O1557 C1575 1.263 . S
O1558 Gd1522 2.427 . S
O1558 C1575 1.252 . S
O1559 Gd1523 2.307 . S
O1559 C1568 1.261 . S
O1560 Gd1522 2.388 . S
O1560 C1568 1.252 . S
O1561 Gd1522 2.386 . S
O1561 C1579 1.265 . S
O1562 Gd1523 2.353 . S
O1562 C1579 1.242 . S
O1563 Gd1523 2.468 . S
O1563 C1587 1.263 . S
O1564 Gd1523 2.427 . S
O1564 C1587 1.252 . S
O1565 Gd1522 2.307 . S
O1565 C1580 1.261 . S
O1566 Gd1523 2.388 . S
O1566 C1580 1.252 . S
C1567 O1555 1.265 . S
C1567 O1556 1.242 . S
C1568 O1559 1.261 . S
C1568 O1560 1.252 . S
C1569 C1572 1.394 . S
C1569 C1574 1.370 . S
C1569 C1575 1.500 . S
C1570 C1573 1.383 . S
C1570 C1574 1.395 . S
C1571 C1572 1.396 . S
C1571 C1573 1.365 . S
C1571 H1588 0.929 . S
C1572 C1569 1.394 . S
C1572 C1571 1.396 . S
C1572 H1589 0.930 . S
C1573 C1570 1.383 . S
C1573 C1571 1.365 . S
C1573 H1590 0.931 . S
C1574 C1569 1.370 . S
C1574 C1570 1.395 . S
C1574 H1591 0.930 . S
C1575 Gd1522 2.805 . S
C1575 O1557 1.263 . S
C1575 O1558 1.252 . S
C1575 C1569 1.500 . S
C1576 H1538 0.930 . S
C1576 C1552 1.417 . S
C1576 C1577 1.329 . S
C1577 C1547 1.437 . S
C1577 H1548 0.929 . S
C1577 C1576 1.329 . S
H1578 C1551 0.931 . S
C1579 O1561 1.265 . S
C1579 O1562 1.242 . S
C1580 O1565 1.261 . S
C1580 O1566 1.252 . S
C1581 C1584 1.394 . S
C1581 C1586 1.370 . S
C1581 C1587 1.500 . S
C1582 C1585 1.383 . S
C1582 C1586 1.395 . S
C1583 C1584 1.396 . S
C1583 C1585 1.365 . S
C1583 H1592 0.929 . S
C1584 C1581 1.394 . S
C1584 C1583 1.396 . S
C1584 H1593 0.930 . S
C1585 C1582 1.383 . S
C1585 C1583 1.365 . S
C1585 H1594 0.931 . S
C1586 C1581 1.370 . S
C1586 C1582 1.395 . S
C1586 H1595 0.930 . S
C1587 Gd1523 2.805 . S
C1587 O1563 1.263 . S
C1587 O1564 1.252 . S
C1587 C1581 1.500 . S
H1588 C1571 0.929 . S
H1589 C1572 0.930 . S
H1590 C1573 0.931 . S
H1591 C1574 0.930 . S
H1592 C1583 0.929 . S
H1593 C1584 0.930 . S
H1594 C1585 0.931 . S
H1595 C1586 0.930 . S
C1596 C1598 1.422 1_556 S
C1596 C1600 1.415 . S
C1596 N1602 1.369 . S
C1597 C1598 1.421 . S
C1597 C1599 1.417 1_554 S
C1597 C1609 1.422 . S
C1598 C1596 1.422 1_554 S
C1598 C1597 1.421 . S
C1598 N1608 1.359 . S
C1599 C1597 1.417 1_556 S
C1599 C1601 1.329 . S
C1599 H1618 0.930 . S
C1600 C1596 1.415 . S
C1600 C1601 1.437 . S
C1600 C1604 1.413 . S
C1601 C1599 1.329 . S
C1601 C1600 1.437 . S
C1601 H1623 0.929 . S
N1602 C1596 1.369 . S
N1602 C1603 1.338 . S
N1602 Gd1607 2.622 1_556 S
C1603 N1602 1.338 . S
C1603 C1605 1.378 . S
C1603 H1615 0.929 . S
C1604 C1600 1.413 . S
C1604 C1605 1.348 . S
C1604 H1620 0.931 . S
C1605 C1603 1.378 . S
C1605 C1604 1.348 . S
C1605 H1621 0.930 . S
Gd1606 N1626 2.622 . S
Gd1606 N1633 2.570 . S
Gd1606 O1640 2.353 1_655 S
Gd1606 O1641 2.468 . S
Gd1606 O1642 2.427 . S
Gd1606 O1644 2.388 1_655 S
Gd1606 O1645 2.386 1_655 S
Gd1606 O1649 2.307 . S
Gd1606 C1659 2.805 . S
Gd1607 N1602 2.622 1_554 S
Gd1607 N1608 2.570 . S
Gd1607 O1639 2.386 . S
Gd1607 O1643 2.307 . S
Gd1607 O1646 2.353 . S
Gd1607 O1647 2.468 . S
Gd1607 O1648 2.427 1_554 S
Gd1607 O1650 2.388 1_554 S
Gd1607 C1671 2.805 1_554 S
N1608 C1598 1.359 . S
N1608 Gd1607 2.570 . S
N1608 C1610 1.343 . S
C1609 C1597 1.422 . S
C1609 C1611 1.321 . S
C1609 H1617 0.931 . S
C1610 N1608 1.343 . S
C1610 C1611 1.390 . S
C1610 H1612 0.931 . S
C1611 C1609 1.321 . S
C1611 C1610 1.390 . S
C1611 H1613 0.930 . S
H1612 C1610 0.931 . S
H1613 C1611 0.930 . S
H1614 C1637 0.931 1_556 S
H1615 C1603 0.929 . S
H1616 C1638 0.909 1_556 S
H1617 C1609 0.931 . S
H1618 C1599 0.930 . S
H1619 C1628 0.915 1_455 S
H1620 C1604 0.931 . S
H1621 C1605 0.930 . S
H1622 C1660 0.930 . S
H1623 C1601 0.929 . S
H1624 C1629 0.931 . S
H1625 C1630 0.930 1_455 S
N1626 Gd1606 2.622 . S
N1626 C1627 1.369 . S
N1626 C1628 1.348 . S
C1627 N1626 1.369 . S
C1627 C1631 1.415 . S
C1627 C1634 1.422 . S
C1628 H1619 0.915 1_655 S
C1628 N1626 1.348 . S
C1628 C1630 1.382 . S
C1629 H1624 0.931 . S
C1629 C1630 1.348 . S
C1629 C1631 1.413 . S
C1630 H1625 0.930 1_655 S
C1630 C1628 1.382 . S
C1630 C1629 1.348 . S
C1631 C1627 1.415 . S
C1631 C1629 1.413 . S
C1631 C1661 1.437 . S
H1632 C1661 0.929 . S
N1633 Gd1606 2.570 . S
N1633 C1634 1.359 . S
N1633 C1637 1.343 . S
C1634 C1627 1.422 . S
C1634 N1633 1.359 . S
C1634 C1636 1.421 . S
C1635 C1636 1.422 . S
C1635 C1638 1.340 . S
C1635 H1662 0.931 . S
C1636 C1634 1.421 . S
C1636 C1635 1.422 . S
C1636 C1660 1.417 . S
C1637 H1614 0.931 1_554 S
C1637 N1633 1.343 . S
C1637 C1638 1.392 . S
C1638 H1616 0.909 1_554 S
C1638 C1635 1.340 . S
C1638 C1637 1.392 . S
O1639 Gd1607 2.386 . S
O1639 C1651 1.265 . S
O1640 Gd1606 2.353 1_455 S
O1640 C1651 1.242 . S
O1641 Gd1606 2.468 . S
O1641 C1659 1.263 . S
O1642 Gd1606 2.427 . S
O1642 C1659 1.252 . S
O1643 Gd1607 2.307 . S
O1643 C1652 1.261 . S
O1644 Gd1606 2.388 1_455 S
O1644 C1652 1.252 . S
O1645 Gd1606 2.386 1_455 S
O1645 C1663 1.265 . S
O1646 Gd1607 2.353 . S
O1646 C1663 1.242 . S
O1647 Gd1607 2.468 . S
O1647 C1671 1.263 1_554 S
O1648 Gd1607 2.427 1_556 S
O1648 C1671 1.252 . S
O1649 Gd1606 2.307 . S
O1649 C1664 1.261 1_654 S
O1650 Gd1607 2.388 1_556 S
O1650 C1664 1.252 . S
C1651 O1639 1.265 . S
C1651 O1640 1.242 . S
C1652 O1643 1.261 . S
C1652 O1644 1.252 . S
C1653 C1656 1.394 . S
C1653 C1658 1.370 . S
C1653 C1659 1.500 . S
C1654 C1657 1.383 . S
C1654 C1658 1.395 . S
C1655 C1656 1.396 . S
C1655 C1657 1.365 . S
C1655 H1672 0.929 . S
C1656 C1653 1.394 . S
C1656 C1655 1.396 . S
C1656 H1673 0.930 . S
C1657 C1654 1.383 . S
C1657 C1655 1.365 . S
C1657 H1674 0.931 . S
C1658 C1653 1.370 . S
C1658 C1654 1.395 . S
C1658 H1675 0.930 . S
C1659 Gd1606 2.805 . S
C1659 O1641 1.263 . S
C1659 O1642 1.252 . S
C1659 C1653 1.500 . S
C1660 H1622 0.930 . S
C1660 C1636 1.417 . S
C1660 C1661 1.329 . S
C1661 C1631 1.437 . S
C1661 H1632 0.929 . S
C1661 C1660 1.329 . S
H1662 C1635 0.931 . S
C1663 O1645 1.265 . S
C1663 O1646 1.242 . S
C1664 O1649 1.261 1_456 S
C1664 O1650 1.252 . S
C1665 C1668 1.394 . S
C1665 C1670 1.370 1_556 S
C1665 C1671 1.500 . S
C1666 C1669 1.383 1_554 S
C1666 C1670 1.395 . S
C1667 C1668 1.396 . S
C1667 C1669 1.365 . S
C1667 H1676 0.929 . S
C1668 C1665 1.394 . S
C1668 C1667 1.396 . S
C1668 H1677 0.930 . S
C1669 C1666 1.383 1_556 S
C1669 C1667 1.365 . S
C1669 H1678 0.931 . S
C1670 C1665 1.370 1_554 S
C1670 C1666 1.395 . S
C1670 H1679 0.930 . S
C1671 Gd1607 2.805 1_556 S
C1671 O1647 1.263 1_556 S
C1671 O1648 1.252 . S
C1671 C1665 1.500 . S
H1672 C1655 0.929 . S
H1673 C1656 0.930 . S
H1674 C1657 0.931 . S
H1675 C1658 0.930 . S
H1676 C1667 0.929 . S
H1677 C1668 0.930 . S
H1678 C1669 0.931 . S
H1679 C1670 0.930 . S
C1680 C1681 1.369 1_655 S
C1680 C1682 1.419 . S
C1680 H1684 0.930 . S
C1681 C1680 1.369 1_455 S
C1681 C1690 1.432 . S
C1682 C1680 1.419 . S
C1682 C1683 1.363 1_655 S
C1682 H1685 0.929 . S
C1683 C1682 1.363 1_455 S
C1683 C1689 1.428 . S
H1684 C1680 0.930 . S
H1685 C1682 0.929 . S
S1686 N1687 1.613 . S
S1686 N1688 1.610 . S
N1687 S1686 1.613 . S
N1687 C1690 1.343 1_556 S
N1688 S1686 1.610 . S
N1688 C1689 1.351 1_556 S
C1689 C1683 1.428 . S
C1689 N1688 1.351 1_554 S
C1689 C1690 1.436 . S
C1690 C1681 1.432 . S
C1690 N1687 1.343 1_554 S
C1690 C1689 1.436 . S
C1691 C1692 1.369 . S
C1691 C1693 1.419 . S
C1691 H1695 0.930 . S
C1692 C1691 1.369 . S
C1692 C1701 1.429 . S
C1693 C1691 1.419 . S
C1693 C1694 1.363 . S
C1693 H1696 0.929 . S
C1694 C1693 1.363 . S
C1694 C1700 1.428 . S
H1695 C1691 0.930 . S
H1696 C1693 0.929 . S
S1697 N1698 1.613 . S
S1697 N1699 1.610 . S
N1698 S1697 1.613 . S
N1698 C1701 1.350 . S
N1699 S1697 1.610 . S
N1699 C1700 1.351 . S
C1700 C1694 1.428 . S
C1700 N1699 1.351 . S
C1700 C1701 1.434 . S
C1701 C1692 1.429 . S
C1701 N1698 1.350 . S
C1701 C1700 1.434 . S
C1702 C1703 1.369 . S
C1702 C1704 1.419 . S
C1702 H1706 0.930 . S
C1703 C1702 1.369 . S
C1703 C1712 1.429 . S
C1704 C1702 1.419 . S
C1704 C1705 1.363 . S
C1704 H1707 0.929 . S
C1705 C1704 1.363 . S
C1705 C1711 1.428 . S
H1706 C1702 0.930 . S
H1707 C1704 0.929 . S
S1708 N1709 1.613 . S
S1708 N1710 1.610 . S
N1709 S1708 1.613 . S
N1709 C1712 1.350 . S
N1710 S1708 1.610 . S
N1710 C1711 1.351 . S
C1711 C1705 1.428 . S
C1711 N1710 1.351 . S
C1711 C1712 1.434 . S
C1712 C1703 1.429 . S
C1712 N1709 1.350 . S
C1712 C1711 1.434 . S
C1713 C1714 1.369 . S
C1713 C1715 1.419 . S
C1713 H1717 0.930 . S
C1714 C1713 1.369 . S
C1714 C1723 1.429 . S
C1715 C1713 1.419 . S
C1715 C1716 1.363 . S
C1715 H1718 0.929 . S
C1716 C1715 1.363 . S
C1716 C1722 1.428 . S
H1717 C1713 0.930 . S
H1718 C1715 0.929 . S
S1719 N1720 1.613 . S
S1719 N1721 1.610 . S
N1720 S1719 1.613 . S
N1720 C1723 1.350 . S
N1721 S1719 1.610 . S
N1721 C1722 1.351 . S
C1722 C1716 1.428 . S
C1722 N1721 1.351 . S
C1722 C1723 1.434 . S
C1723 C1714 1.429 . S
C1723 N1720 1.350 . S
C1723 C1722 1.434 . S
C1724 C1725 1.369 . S
C1724 C1726 1.419 . S
C1724 H1728 0.930 . S
C1725 C1724 1.369 . S
C1725 C1734 1.429 . S
C1726 C1724 1.419 . S
C1726 C1727 1.363 . S
C1726 H1729 0.929 . S
C1727 C1726 1.363 . S
C1727 C1733 1.428 . S
H1728 C1724 0.930 . S
H1729 C1726 0.929 . S
S1730 N1731 1.613 . S
S1730 N1732 1.610 . S
N1731 S1730 1.613 . S
N1731 C1734 1.350 . S
N1732 S1730 1.610 . S
N1732 C1733 1.351 . S
C1733 C1727 1.428 . S
C1733 N1732 1.351 . S
C1733 C1734 1.434 . S
C1734 C1725 1.429 . S
C1734 N1731 1.350 . S
C1734 C1733 1.434 . S
C1735 C1736 1.369 . S
C1735 C1737 1.419 . S
C1735 H1739 0.930 . S
C1736 C1735 1.369 . S
C1736 C1745 1.429 . S
C1737 C1735 1.419 . S
C1737 C1738 1.363 . S
C1737 H1740 0.929 . S
C1738 C1737 1.363 . S
C1738 C1744 1.428 . S
H1739 C1735 0.930 . S
H1740 C1737 0.929 . S
S1741 N1742 1.613 . S
S1741 N1743 1.610 . S
N1742 S1741 1.613 . S
N1742 C1745 1.350 . S
N1743 S1741 1.610 . S
N1743 C1744 1.351 . S
C1744 C1738 1.428 . S
C1744 N1743 1.351 . S
C1744 C1745 1.434 . S
C1745 C1736 1.429 . S
C1745 N1742 1.350 . S
C1745 C1744 1.434 . S
C1746 C1747 1.369 . S
C1746 C1748 1.419 . S
C1746 H1750 0.930 . S
C1747 C1746 1.369 . S
C1747 C1756 1.429 . S
C1748 C1746 1.419 . S
C1748 C1749 1.363 . S
C1748 H1751 0.929 . S
C1749 C1748 1.363 . S
C1749 C1755 1.428 . S
H1750 C1746 0.930 . S
H1751 C1748 0.929 . S
S1752 N1753 1.613 . S
S1752 N1754 1.610 . S
N1753 S1752 1.613 . S
N1753 C1756 1.350 . S
N1754 S1752 1.610 . S
N1754 C1755 1.351 . S
C1755 C1749 1.428 . S
C1755 N1754 1.351 . S
C1755 C1756 1.434 . S
C1756 C1747 1.429 . S
C1756 N1753 1.350 . S
C1756 C1755 1.434 . S
C1757 C1758 1.369 . S
C1757 C1759 1.419 . S
C1757 H1761 0.930 . S
C1758 C1757 1.369 . S
C1758 C1767 1.429 . S
C1759 C1757 1.419 . S
C1759 C1760 1.363 . S
C1759 H1762 0.929 . S
C1760 C1759 1.363 . S
C1760 C1766 1.428 . S
H1761 C1757 0.930 . S
H1762 C1759 0.929 . S
S1763 N1764 1.613 . S
S1763 N1765 1.610 . S
N1764 S1763 1.613 . S
N1764 C1767 1.350 . S
N1765 S1763 1.610 . S
N1765 C1766 1.351 . S
C1766 C1760 1.428 . S
C1766 N1765 1.351 . S
C1766 C1767 1.434 . S
C1767 C1758 1.429 . S
C1767 N1764 1.350 . S
C1767 C1766 1.434 . S
C1768 C1769 1.369 . S
C1768 C1770 1.419 . S
C1768 H1772 0.930 . S
C1769 C1768 1.369 . S
C1769 C1778 1.429 1_655 S
C1770 C1768 1.419 . S
C1770 C1771 1.363 1_655 S
C1770 H1773 0.929 . S
C1771 C1770 1.363 1_455 S
C1771 C1777 1.428 . S
H1772 C1768 0.930 . S
H1773 C1770 0.929 . S
S1774 N1775 1.613 . S
S1774 N1776 1.610 . S
N1775 S1774 1.613 . S
N1775 C1778 1.350 . S
N1776 S1774 1.610 . S
N1776 C1777 1.351 . S
C1777 C1771 1.428 . S
C1777 N1776 1.351 . S
C1777 C1778 1.434 . S
C1778 C1769 1.429 1_455 S
C1778 N1775 1.350 . S
C1778 C1777 1.434 . S
C1779 C1780 1.369 . S
C1779 C1781 1.419 . S
C1779 H1783 0.930 . S
C1780 C1779 1.369 . S
C1780 C1789 1.429 . S
C1781 C1779 1.419 . S
C1781 C1782 1.363 . S
C1781 H1784 0.929 . S
C1782 C1781 1.363 . S
C1782 C1788 1.428 . S
H1783 C1779 0.930 . S
H1784 C1781 0.929 . S
S1785 N1786 1.613 . S
S1785 N1787 1.610 . S
N1786 S1785 1.613 . S
N1786 C1789 1.350 . S
N1787 S1785 1.610 . S
N1787 C1788 1.351 . S
C1788 C1782 1.428 . S
C1788 N1787 1.351 . S
C1788 C1789 1.434 . S
C1789 C1780 1.429 . S
C1789 N1786 1.350 . S
C1789 C1788 1.434 . S
C1790 C1791 1.369 . S
C1790 C1792 1.419 . S
C1790 H1794 0.930 . S
C1791 C1790 1.369 . S
C1791 C1800 1.429 . S
C1792 C1790 1.419 . S
C1792 C1793 1.363 . S
C1792 H1795 0.929 . S
C1793 C1792 1.363 . S
C1793 C1799 1.428 . S
H1794 C1790 0.930 . S
H1795 C1792 0.929 . S
S1796 N1797 1.613 . S
S1796 N1798 1.610 . S
N1797 S1796 1.613 . S
N1797 C1800 1.350 . S
N1798 S1796 1.610 . S
N1798 C1799 1.351 . S
C1799 C1793 1.428 . S
C1799 N1798 1.351 . S
C1799 C1800 1.434 . S
C1800 C1791 1.429 . S
C1800 N1797 1.350 . S
C1800 C1799 1.434 . S
C1801 C1802 1.369 . S
C1801 C1803 1.419 . S
C1801 H1805 0.930 . S
C1802 C1801 1.369 . S
C1802 C1811 1.429 . S
C1803 C1801 1.419 . S
C1803 C1804 1.363 . S
C1803 H1806 0.929 . S
C1804 C1803 1.363 . S
C1804 C1810 1.428 . S
H1805 C1801 0.930 . S
H1806 C1803 0.929 . S
S1807 N1808 1.613 . S
S1807 N1809 1.610 . S
N1808 S1807 1.613 . S
N1808 C1811 1.350 . S
N1809 S1807 1.610 . S
N1809 C1810 1.351 . S
C1810 C1804 1.428 . S
C1810 N1809 1.351 . S
C1810 C1811 1.434 . S
C1811 C1802 1.429 . S
C1811 N1808 1.350 . S
C1811 C1810 1.434 . S
C1812 C1813 1.369 . S
C1812 C1814 1.416 1_655 S
C1812 H1816 0.930 . S
C1813 C1812 1.369 . S
C1813 C1822 1.429 1_545 S
C1814 C1812 1.416 1_455 S
C1814 C1815 1.367 . S
C1814 H1817 0.928 . S
C1815 C1814 1.367 . S
C1815 C1821 1.428 1_445 S
H1816 C1812 0.930 . S
H1817 C1814 0.928 . S
S1818 N1819 1.613 . S
S1818 N1820 1.610 . S
N1819 S1818 1.613 . S
N1819 C1822 1.350 . S
N1820 S1818 1.610 . S
N1820 C1821 1.351 . S
C1821 C1815 1.428 1_665 S
C1821 N1820 1.351 . S
C1821 C1822 1.434 . S
C1822 C1813 1.429 1_565 S
C1822 N1819 1.350 . S
C1822 C1821 1.434 . S
C1823 C1824 1.369 . S
C1823 C1825 1.419 . S
C1823 H1827 0.930 . S
C1824 C1823 1.369 . S
C1824 C1833 1.429 . S
C1825 C1823 1.419 . S
C1825 C1826 1.363 . S
C1825 H1828 0.929 . S
C1826 C1825 1.363 . S
C1826 C1832 1.428 . S
H1827 C1823 0.930 . S
H1828 C1825 0.929 . S
S1829 N1830 1.613 . S
S1829 N1831 1.610 . S
N1830 S1829 1.613 . S
N1830 C1833 1.350 . S
N1831 S1829 1.610 . S
N1831 C1832 1.351 . S
C1832 C1826 1.428 . S
C1832 N1831 1.351 . S
C1832 C1833 1.434 . S
C1833 C1824 1.429 . S
C1833 N1830 1.350 . S
C1833 C1832 1.434 . S
C1834 C1835 1.369 . S
C1834 C1836 1.419 . S
C1834 H1838 0.930 . S
C1835 C1834 1.369 . S
C1835 C1844 1.429 . S
C1836 C1834 1.419 . S
C1836 C1837 1.363 . S
C1836 H1839 0.929 . S
C1837 C1836 1.363 . S
C1837 C1843 1.428 . S
H1838 C1834 0.930 . S
H1839 C1836 0.929 . S
S1840 N1841 1.613 . S
S1840 N1842 1.610 . S
N1841 S1840 1.613 . S
N1841 C1844 1.350 . S
N1842 S1840 1.610 . S
N1842 C1843 1.351 . S
C1843 C1837 1.428 . S
C1843 N1842 1.351 . S
C1843 C1844 1.434 . S
C1844 C1835 1.429 . S
C1844 N1841 1.350 . S
C1844 C1843 1.434 . S
C1845 C1846 1.369 . S
C1845 C1847 1.419 . S
C1845 H1849 0.930 . S
C1846 C1845 1.369 . S
C1846 C1855 1.429 . S
C1847 C1845 1.419 . S
C1847 C1848 1.363 . S
C1847 H1850 0.929 . S
C1848 C1847 1.363 . S
C1848 C1854 1.428 . S
H1849 C1845 0.930 . S
H1850 C1847 0.929 . S
S1851 N1852 1.613 . S
S1851 N1853 1.610 . S
N1852 S1851 1.613 . S
N1852 C1855 1.350 . S
N1853 S1851 1.610 . S
N1853 C1854 1.351 . S
C1854 C1848 1.428 . S
C1854 N1853 1.351 . S
C1854 C1855 1.434 . S
C1855 C1846 1.429 . S
C1855 N1852 1.350 . S
C1855 C1854 1.434 . S
C1856 C1857 1.369 1_544 S
C1856 C1858 1.419 . S
C1856 H1860 0.930 1_554 S
C1857 C1856 1.369 1_566 S
C1857 C1866 1.429 1_556 S
C1858 C1856 1.419 . S
C1858 C1859 1.363 . S
C1858 H1861 0.929 . S
C1859 C1858 1.363 . S
C1859 C1865 1.428 1_545 S
H1860 C1856 0.930 1_556 S
H1861 C1858 0.929 . S
S1862 N1863 1.613 . S
S1862 N1864 1.610 . S
N1863 S1862 1.613 . S
N1863 C1866 1.350 . S
N1864 S1862 1.610 . S
N1864 C1865 1.351 . S
C1865 C1859 1.428 1_565 S
C1865 N1864 1.351 . S
C1865 C1866 1.434 . S
C1866 C1857 1.429 1_554 S
C1866 N1863 1.350 . S
C1866 C1865 1.434 . S
C1867 C1868 1.369 . S
C1867 C1869 1.419 . S
C1867 H1871 0.930 . S
C1868 C1867 1.369 . S
C1868 C1877 1.429 . S
C1869 C1867 1.419 . S
C1869 C1870 1.363 . S
C1869 H1872 0.929 . S
C1870 C1869 1.363 . S
C1870 C1876 1.428 . S
H1871 C1867 0.930 . S
H1872 C1869 0.929 . S
S1873 N1874 1.612 . S
S1873 N1875 1.625 . S
N1874 S1873 1.612 . S
N1874 C1877 1.350 . S
N1875 S1873 1.625 . S
N1875 C1876 1.351 . S
C1876 C1870 1.428 . S
C1876 N1875 1.351 . S
C1876 C1877 1.434 . S
C1877 C1868 1.429 . S
C1877 N1874 1.350 . S
C1877 C1876 1.434 . S
C1878 C1879 1.369 . S
C1878 C1880 1.419 . S
C1878 H1882 0.930 . S
C1879 C1878 1.369 . S
C1879 C1888 1.429 . S
C1880 C1878 1.419 . S
C1880 C1881 1.363 . S
C1880 H1883 0.929 . S
C1881 C1880 1.363 . S
C1881 C1887 1.428 . S
H1882 C1878 0.930 . S
H1883 C1880 0.929 . S
S1884 N1885 1.613 . S
S1884 N1886 1.610 . S
N1885 S1884 1.613 . S
N1885 C1888 1.350 . S
N1886 S1884 1.610 . S
N1886 C1887 1.351 . S
C1887 C1881 1.428 . S
C1887 N1886 1.351 . S
C1887 C1888 1.434 . S
C1888 C1879 1.429 . S
C1888 N1885 1.350 . S
C1888 C1887 1.434 . S
C1889 C1890 1.369 . S
C1889 C1891 1.419 . S
C1889 H1893 0.930 . S
C1890 C1889 1.369 . S
C1890 C1899 1.429 . S
C1891 C1889 1.419 . S
C1891 C1892 1.363 . S
C1891 H1894 0.929 . S
C1892 C1891 1.363 . S
C1892 C1898 1.428 . S
H1893 C1889 0.930 . S
H1894 C1891 0.929 . S
S1895 N1896 1.613 . S
S1895 N1897 1.610 . S
N1896 S1895 1.613 . S
N1896 C1899 1.350 . S
N1897 S1895 1.610 . S
N1897 C1898 1.351 . S
C1898 C1892 1.428 . S
C1898 N1897 1.351 . S
C1898 C1899 1.434 . S
C1899 C1890 1.429 . S
C1899 N1896 1.350 . S
C1899 C1898 1.434 . S
C1900 C1901 1.369 . S
C1900 C1902 1.419 . S
C1900 H1904 0.930 . S
C1901 C1900 1.369 . S
C1901 C1910 1.429 . S
C1902 C1900 1.419 . S
C1902 C1903 1.363 . S
C1902 H1905 0.929 . S
C1903 C1902 1.363 . S
C1903 C1909 1.428 . S
H1904 C1900 0.930 . S
H1905 C1902 0.929 . S
S1906 N1907 1.613 . S
S1906 N1908 1.610 . S
N1907 S1906 1.613 . S
N1907 C1910 1.350 . S
N1908 S1906 1.610 . S
N1908 C1909 1.351 . S
C1909 C1903 1.428 . S
C1909 N1908 1.351 . S
C1909 C1910 1.434 . S
C1910 C1901 1.429 . S
C1910 N1907 1.350 . S
C1910 C1909 1.434 . S
C1911 C1912 1.369 . S
C1911 C1913 1.419 . S
C1911 H1915 0.930 . S
C1912 C1911 1.369 . S
C1912 C1921 1.429 . S
C1913 C1911 1.419 . S
C1913 C1914 1.363 . S
C1913 H1916 0.929 . S
C1914 C1913 1.363 . S
C1914 C1920 1.428 . S
H1915 C1911 0.930 . S
H1916 C1913 0.929 . S
S1917 N1918 1.613 . S
S1917 N1919 1.610 . S
N1918 S1917 1.613 . S
N1918 C1921 1.350 . S
N1919 S1917 1.610 . S
N1919 C1920 1.351 . S
C1920 C1914 1.428 . S
C1920 N1919 1.351 . S
C1920 C1921 1.434 . S
C1921 C1912 1.429 . S
C1921 N1918 1.350 . S
C1921 C1920 1.434 . S
C1922 C1923 1.369 . S
C1922 C1924 1.419 . S
C1922 H1926 0.930 . S
C1923 C1922 1.369 . S
C1923 C1932 1.429 . S
C1924 C1922 1.419 . S
C1924 C1925 1.363 . S
C1924 H1927 0.929 . S
C1925 C1924 1.363 . S
C1925 C1931 1.428 . S
H1926 C1922 0.930 . S
H1927 C1924 0.929 . S
S1928 N1929 1.613 . S
S1928 N1930 1.610 . S
N1929 S1928 1.613 . S
N1929 C1932 1.350 . S
N1930 S1928 1.610 . S
N1930 C1931 1.351 . S
C1931 C1925 1.428 . S
C1931 N1930 1.351 . S
C1931 C1932 1.434 . S
C1932 C1923 1.429 . S
C1932 N1929 1.350 . S
C1932 C1931 1.434 . S
C1933 C1934 1.369 . S
C1933 C1935 1.419 . S
C1933 H1937 0.930 . S
C1934 C1933 1.369 . S
C1934 C1943 1.429 . S
C1935 C1933 1.419 . S
C1935 C1936 1.363 . S
C1935 H1938 0.929 . S
C1936 C1935 1.363 . S
C1936 C1942 1.428 . S
H1937 C1933 0.930 . S
H1938 C1935 0.929 . S
S1939 N1940 1.613 . S
S1939 N1941 1.610 . S
N1940 S1939 1.613 . S
N1940 C1943 1.350 . S
N1941 S1939 1.610 . S
N1941 C1942 1.351 . S
C1942 C1936 1.428 . S
C1942 N1941 1.351 . S
C1942 C1943 1.434 . S
C1943 C1934 1.429 . S
C1943 N1940 1.350 . S
C1943 C1942 1.434 . S
C1944 C1945 1.369 . S
C1944 C1946 1.419 . S
C1944 H1948 0.930 . S
C1945 C1944 1.369 . S
C1945 C1954 1.429 . S
C1946 C1944 1.419 . S
C1946 C1947 1.363 . S
C1946 H1949 0.928 . S
C1947 C1946 1.363 . S
C1947 C1953 1.428 . S
H1948 C1944 0.930 . S
H1949 C1946 0.928 . S
S1950 N1951 1.613 . S
S1950 N1952 1.610 . S
N1951 S1950 1.613 . S
N1951 C1954 1.350 . S
N1952 S1950 1.610 . S
N1952 C1953 1.351 . S
C1953 C1947 1.428 . S
C1953 N1952 1.351 . S
C1953 C1954 1.434 . S
C1954 C1945 1.429 . S
C1954 N1951 1.350 . S
C1954 C1953 1.434 . S
C1955 C1956 1.369 . S
C1955 C1957 1.419 . S
C1955 H1959 0.930 . S
C1956 C1955 1.369 . S
C1956 C1965 1.429 . S
C1957 C1955 1.419 . S
C1957 C1958 1.363 . S
C1957 H1960 0.929 . S
C1958 C1957 1.363 . S
C1958 C1964 1.428 . S
H1959 C1955 0.930 . S
H1960 C1957 0.929 . S
S1961 N1962 1.613 . S
S1961 N1963 1.610 . S
N1962 S1961 1.613 . S
N1962 C1965 1.350 . S
N1963 S1961 1.610 . S
N1963 C1964 1.351 . S
C1964 C1958 1.428 . S
C1964 N1963 1.351 . S
C1964 C1965 1.434 . S
C1965 C1956 1.429 . S
C1965 N1962 1.350 . S
C1965 C1964 1.434 . S
C1966 C1967 1.369 . S
C1966 C1968 1.419 . S
C1966 H1970 0.930 . S
C1967 C1966 1.369 . S
C1967 C1976 1.429 . S
C1968 C1966 1.419 . S
C1968 C1969 1.363 . S
C1968 H1971 0.929 . S
C1969 C1968 1.363 . S
C1969 C1975 1.428 . S
H1970 C1966 0.930 . S
H1971 C1968 0.929 . S
S1972 N1973 1.613 . S
S1972 N1974 1.610 . S
N1973 S1972 1.613 . S
N1973 C1976 1.350 . S
N1974 S1972 1.610 . S
N1974 C1975 1.351 . S
C1975 C1969 1.428 . S
C1975 N1974 1.351 . S
C1975 C1976 1.434 . S
C1976 C1967 1.429 . S
C1976 N1973 1.350 . S
C1976 C1975 1.434 . S
C1977 C1978 1.369 . S
C1977 C1979 1.419 . S
C1977 H1981 0.930 . S
C1978 C1977 1.369 . S
C1978 C1987 1.429 . S
C1979 C1977 1.419 . S
C1979 C1980 1.363 . S
C1979 H1982 0.929 . S
C1980 C1979 1.363 . S
C1980 C1986 1.428 . S
H1981 C1977 0.930 . S
H1982 C1979 0.929 . S
S1983 N1984 1.613 . S
S1983 N1985 1.610 . S
N1984 S1983 1.613 . S
N1984 C1987 1.350 . S
N1985 S1983 1.610 . S
N1985 C1986 1.351 . S
C1986 C1980 1.428 . S
C1986 N1985 1.351 . S
C1986 C1987 1.434 . S
C1987 C1978 1.429 . S
C1987 N1984 1.350 . S
C1987 C1986 1.434 . S
C1988 C1989 1.369 . S
C1988 C1990 1.419 . S
C1988 H1992 0.930 . S
C1989 C1988 1.369 . S
C1989 C1998 1.429 . S
C1990 C1988 1.419 . S
C1990 C1991 1.363 . S
C1990 H1993 0.929 . S
C1991 C1990 1.363 . S
C1991 C1997 1.428 . S
H1992 C1988 0.930 . S
H1993 C1990 0.929 . S
S1994 N1995 1.613 1_655 S
S1994 N1996 1.610 1_655 S
N1995 S1994 1.613 1_455 S
N1995 C1998 1.350 . S
N1996 S1994 1.610 1_455 S
N1996 C1997 1.351 . S
C1997 C1991 1.428 . S
C1997 N1996 1.351 . S
C1997 C1998 1.434 . S
C1998 C1989 1.429 . S
C1998 N1995 1.350 . S
C1998 C1997 1.434 . S
C1999 C2000 1.369 . S
C1999 C2001 1.419 . S
C1999 H2003 0.930 . S
C2000 C1999 1.369 . S
C2000 C2009 1.429 . S
C2001 C1999 1.419 . S
C2001 C2002 1.363 . S
C2001 H2004 0.929 . S
C2002 C2001 1.363 . S
C2002 C2008 1.428 . S
H2003 C1999 0.930 . S
H2004 C2001 0.929 . S
S2005 N2006 1.613 . S
S2005 N2007 1.610 . S
N2006 S2005 1.613 . S
N2006 C2009 1.350 . S
N2007 S2005 1.610 . S
N2007 C2008 1.351 . S
C2008 C2002 1.428 . S
C2008 N2007 1.351 . S
C2008 C2009 1.434 . S
C2009 C2000 1.429 . S
C2009 N2006 1.350 . S
C2009 C2008 1.434 . S
C2010 C2011 1.369 . S
C2010 C2012 1.419 . S
C2010 H2014 0.930 . S
C2011 C2010 1.369 . S
C2011 C2020 1.429 . S
C2012 C2010 1.419 . S
C2012 C2013 1.363 . S
C2012 H2015 0.929 . S
C2013 C2012 1.363 . S
C2013 C2019 1.428 . S
H2014 C2010 0.930 . S
H2015 C2012 0.929 . S
S2016 N2017 1.613 . S
S2016 N2018 1.610 . S
N2017 S2016 1.613 . S
N2017 C2020 1.350 . S
N2018 S2016 1.610 . S
N2018 C2019 1.351 . S
C2019 C2013 1.428 . S
C2019 N2018 1.351 . S
C2019 C2020 1.434 . S
C2020 C2011 1.429 . S
C2020 N2017 1.350 . S
C2020 C2019 1.434 . S
C2021 C2022 1.369 . S
C2021 C2023 1.419 . S
C2021 H2025 0.930 . S
C2022 C2021 1.369 . S
C2022 C2031 1.429 . S
C2023 C2021 1.419 . S
C2023 C2024 1.363 . S
C2023 H2026 0.929 . S
C2024 C2023 1.363 . S
C2024 C2030 1.428 . S
H2025 C2021 0.930 . S
H2026 C2023 0.929 . S
S2027 N2028 1.613 . S
S2027 N2029 1.610 . S
N2028 S2027 1.613 . S
N2028 C2031 1.350 . S
N2029 S2027 1.610 . S
N2029 C2030 1.351 . S
C2030 C2024 1.428 . S
C2030 N2029 1.351 . S
C2030 C2031 1.434 . S
C2031 C2022 1.429 . S
C2031 N2028 1.350 . S
C2031 C2030 1.434 . S
C2032 C2033 1.369 . S
C2032 C2034 1.419 . S
C2032 H2036 0.930 . S
C2033 C2032 1.369 . S
C2033 C2042 1.429 . S
C2034 C2032 1.419 . S
C2034 C2035 1.363 . S
C2034 H2037 0.929 . S
C2035 C2034 1.363 . S
C2035 C2041 1.428 . S
H2036 C2032 0.930 . S
H2037 C2034 0.929 . S
S2038 N2039 1.613 1_565 S
S2038 N2040 1.610 . S
N2039 S2038 1.613 1_545 S
N2039 C2042 1.350 . S
N2040 S2038 1.610 . S
N2040 C2041 1.351 1_565 S
C2041 C2035 1.428 . S
C2041 N2040 1.351 1_545 S
C2041 C2042 1.434 . S
C2042 C2033 1.429 . S
C2042 N2039 1.350 . S
C2042 C2041 1.434 . S
C2043 C2044 1.369 . S
C2043 C2045 1.419 . S
C2043 H2047 0.930 . S
C2044 C2043 1.369 . S
C2044 C2053 1.429 . S
C2045 C2043 1.419 . S
C2045 C2046 1.363 . S
C2045 H2048 0.929 . S
C2046 C2045 1.363 . S
C2046 C2052 1.428 . S
H2047 C2043 0.930 . S
H2048 C2045 0.929 . S
S2049 N2050 1.613 . S
S2049 N2051 1.610 . S
N2050 S2049 1.613 . S
N2050 C2053 1.350 . S
N2051 S2049 1.610 . S
N2051 C2052 1.351 . S
C2052 C2046 1.428 . S
C2052 N2051 1.351 . S
C2052 C2053 1.434 . S
C2053 C2044 1.429 . S
C2053 N2050 1.350 . S
C2053 C2052 1.434 . S
C2054 C2055 1.369 . S
C2054 C2056 1.419 . S
C2054 H2058 0.930 . S
C2055 C2054 1.369 . S
C2055 C2064 1.429 . S
C2056 C2054 1.419 . S
C2056 C2057 1.363 . S
C2056 H2059 0.929 . S
C2057 C2056 1.363 . S
C2057 C2063 1.428 . S
H2058 C2054 0.930 . S
H2059 C2056 0.929 . S
S2060 N2061 1.613 . S
S2060 N2062 1.610 . S
N2061 S2060 1.613 . S
N2061 C2064 1.350 . S
N2062 S2060 1.610 . S
N2062 C2063 1.351 . S
C2063 C2057 1.428 . S
C2063 N2062 1.351 . S
C2063 C2064 1.434 . S
C2064 C2055 1.429 . S
C2064 N2061 1.350 . S
C2064 C2063 1.434 . S
C2065 C2066 1.369 . S
C2065 C2067 1.419 . S
C2065 H2069 0.930 . S
C2066 C2065 1.369 . S
C2066 C2075 1.429 . S
C2067 C2065 1.419 . S
C2067 C2068 1.363 . S
C2067 H2070 0.929 . S
C2068 C2067 1.363 . S
C2068 C2074 1.428 . S
H2069 C2065 0.930 . S
H2070 C2067 0.929 . S
S2071 N2072 1.613 . S
S2071 N2073 1.610 . S
N2072 S2071 1.613 . S
N2072 C2075 1.350 . S
N2073 S2071 1.610 . S
N2073 C2074 1.351 . S
C2074 C2068 1.428 . S
C2074 N2073 1.351 . S
C2074 C2075 1.434 . S
C2075 C2066 1.429 . S
C2075 N2072 1.350 . S
C2075 C2074 1.434 . S
C2076 C2077 1.369 . S
C2076 C2078 1.419 . S
C2076 H2080 0.930 . S
C2077 C2076 1.369 . S
C2077 C2086 1.429 . S
C2078 C2076 1.419 . S
C2078 C2079 1.363 . S
C2078 H2081 0.929 . S
C2079 C2078 1.363 . S
C2079 C2085 1.428 . S
H2080 C2076 0.930 . S
H2081 C2078 0.929 . S
S2082 N2083 1.613 1_565 S
S2082 N2084 1.610 1_565 S
N2083 S2082 1.613 1_545 S
N2083 C2086 1.350 . S
N2084 S2082 1.610 1_545 S
N2084 C2085 1.351 . S
C2085 C2079 1.428 . S
C2085 N2084 1.351 . S
C2085 C2086 1.434 . S
C2086 C2077 1.429 . S
C2086 N2083 1.350 . S
C2086 C2085 1.434 . S
C2087 C2088 1.369 . S
C2087 C2089 1.419 . S
C2087 H2091 0.930 . S
C2088 C2087 1.369 . S
C2088 C2097 1.429 . S
C2089 C2087 1.419 . S
C2089 C2090 1.363 . S
C2089 H2092 0.929 . S
C2090 C2089 1.363 . S
C2090 C2096 1.428 . S
H2091 C2087 0.930 . S
H2092 C2089 0.929 . S
S2093 N2094 1.613 . S
S2093 N2095 1.610 . S
N2094 S2093 1.613 . S
N2094 C2097 1.350 . S
N2095 S2093 1.610 . S
N2095 C2096 1.351 . S
C2096 C2090 1.428 . S
C2096 N2095 1.351 . S
C2096 C2097 1.434 . S
C2097 C2088 1.429 . S
C2097 N2094 1.350 . S
C2097 C2096 1.434 . S
C2098 C2099 1.369 1_545 S
C2098 C2100 1.419 . S
C2098 H2102 0.930 . S
C2099 C2098 1.369 1_565 S
C2099 C2108 1.429 . S
C2100 C2098 1.419 . S
C2100 C2101 1.363 . S
C2100 H2103 0.929 . S
C2101 C2100 1.363 . S
C2101 C2107 1.428 1_545 S
H2102 C2098 0.930 . S
H2103 C2100 0.929 . S
S2104 N2105 1.613 . S
S2104 N2106 1.610 . S
N2105 S2104 1.613 . S
N2105 C2108 1.350 . S
N2106 S2104 1.610 . S
N2106 C2107 1.351 . S
C2107 C2101 1.428 1_565 S
C2107 N2106 1.351 . S
C2107 C2108 1.434 . S
C2108 C2099 1.429 . S
C2108 N2105 1.350 . S
C2108 C2107 1.434 . S
C2109 C2110 1.369 . S
C2109 C2111 1.419 . S
C2109 H2113 0.930 . S
C2110 C2109 1.369 . S
C2110 C2119 1.429 . S
C2111 C2109 1.419 . S
C2111 C2112 1.363 . S
C2111 H2114 0.929 . S
C2112 C2111 1.363 . S
C2112 C2118 1.428 . S
H2113 C2109 0.930 . S
H2114 C2111 0.929 . S
S2115 N2116 1.613 . S
S2115 N2117 1.610 . S
N2116 S2115 1.613 . S
N2116 C2119 1.350 . S
N2117 S2115 1.610 . S
N2117 C2118 1.351 . S
C2118 C2112 1.428 . S
C2118 N2117 1.351 . S
C2118 C2119 1.434 . S
C2119 C2110 1.429 . S
C2119 N2116 1.350 . S
C2119 C2118 1.434 . S
C2120 C2121 1.369 . S
C2120 C2122 1.419 . S
C2120 H2124 0.930 . S
C2121 C2120 1.369 . S
C2121 C2130 1.429 . S
C2122 C2120 1.419 . S
C2122 C2123 1.363 . S
C2122 H2125 0.964 . S
C2123 C2122 1.363 . S
C2123 C2129 1.428 . S
H2124 C2120 0.930 . S
H2125 C2122 0.964 . S
S2126 N2127 1.613 . S
S2126 N2128 1.610 . S
N2127 S2126 1.613 . S
N2127 C2130 1.350 . S
N2128 S2126 1.610 . S
N2128 C2129 1.351 . S
C2129 C2123 1.428 . S
C2129 N2128 1.351 . S
C2129 C2130 1.434 . S
C2130 C2121 1.429 . S
C2130 N2127 1.350 . S
C2130 C2129 1.434 . S
C2131 C2132 1.369 . S
C2131 C2133 1.419 . S
C2131 H2135 0.930 . S
C2132 C2131 1.369 . S
C2132 C2141 1.429 . S
C2133 C2131 1.419 . S
C2133 C2134 1.363 . S
C2133 H2136 0.929 . S
C2134 C2133 1.363 . S
C2134 C2140 1.428 . S
H2135 C2131 0.930 . S
H2136 C2133 0.929 . S
S2137 N2138 1.613 . S
S2137 N2139 1.610 . S
N2138 S2137 1.613 . S
N2138 C2141 1.350 . S
N2139 S2137 1.610 . S
N2139 C2140 1.351 . S
C2140 C2134 1.428 . S
C2140 N2139 1.351 . S
C2140 C2141 1.434 . S
C2141 C2132 1.429 . S
C2141 N2138 1.350 . S
C2141 C2140 1.434 . S
C2142 C2143 1.369 . S
C2142 C2144 1.419 . S
C2142 H2146 0.930 . S
C2143 C2142 1.369 . S
C2143 C2152 1.429 . S
C2144 C2142 1.419 . S
C2144 C2145 1.363 . S
C2144 H2147 0.929 . S
C2145 C2144 1.363 . S
C2145 C2151 1.428 . S
H2146 C2142 0.930 . S
H2147 C2144 0.929 . S
S2148 N2149 1.613 . S
S2148 N2150 1.610 . S
N2149 S2148 1.613 . S
N2149 C2152 1.350 . S
N2150 S2148 1.610 . S
N2150 C2151 1.351 . S
C2151 C2145 1.428 . S
C2151 N2150 1.351 . S
C2151 C2152 1.434 . S
C2152 C2143 1.429 . S
C2152 N2149 1.350 . S
C2152 C2151 1.434 . S
C2153 C2154 1.369 . S
C2153 C2155 1.419 . S
C2153 H2157 0.930 . S
C2154 C2153 1.369 . S
C2154 C2163 1.429 . S
C2155 C2153 1.419 . S
C2155 C2156 1.363 . S
C2155 H2158 0.929 . S
C2156 C2155 1.363 . S
C2156 C2162 1.428 . S
H2157 C2153 0.930 . S
H2158 C2155 0.929 . S
S2159 N2160 1.613 . S
S2159 N2161 1.610 . S
N2160 S2159 1.613 . S
N2160 C2163 1.350 . S
N2161 S2159 1.610 . S
N2161 C2162 1.351 . S
C2162 C2156 1.428 . S
C2162 N2161 1.351 . S
C2162 C2163 1.434 . S
C2163 C2154 1.429 . S
C2163 N2160 1.350 . S
C2163 C2162 1.434 . S
C2164 C2165 1.369 . S
C2164 C2166 1.413 1_545 S
C2164 H2168 0.930 . S
C2165 C2164 1.369 . S
C2165 C2174 1.429 1_545 S
C2166 C2164 1.413 1_565 S
C2166 C2167 1.368 . S
C2166 H2169 0.930 1_565 S
C2167 C2166 1.368 . S
C2167 C2173 1.428 . S
H2168 C2164 0.930 . S
H2169 C2166 0.930 1_545 S
S2170 N2171 1.613 . S
S2170 N2172 1.610 . S
N2171 S2170 1.613 . S
N2171 C2174 1.350 . S
N2172 S2170 1.610 . S
N2172 C2173 1.351 . S
C2173 C2167 1.428 . S
C2173 N2172 1.351 . S
C2173 C2174 1.434 . S
C2174 C2165 1.429 1_565 S
C2174 N2171 1.350 . S
C2174 C2173 1.434 . S
C2175 C2176 1.369 . S
C2175 C2177 1.419 . S
C2175 H2179 0.930 . S
C2176 C2175 1.369 . S
C2176 C2185 1.429 . S
C2177 C2175 1.419 . S
C2177 C2178 1.363 . S
C2177 H2180 0.929 . S
C2178 C2177 1.363 . S
C2178 C2184 1.428 . S
H2179 C2175 0.930 . S
H2180 C2177 0.929 . S
S2181 N2182 1.613 . S
S2181 N2183 1.610 . S
N2182 S2181 1.613 . S
N2182 C2185 1.350 . S
N2183 S2181 1.610 . S
N2183 C2184 1.351 . S
C2184 C2178 1.428 . S
C2184 N2183 1.351 . S
C2184 C2185 1.434 . S
C2185 C2176 1.429 . S
C2185 N2182 1.350 . S
C2185 C2184 1.434 . S
C2186 C2187 1.369 . S
C2186 C2188 1.419 . S
C2186 H2190 0.930 . S
C2187 C2186 1.369 . S
C2187 C2196 1.429 . S
C2188 C2186 1.419 . S
C2188 C2189 1.363 . S
C2188 H2191 0.929 . S
C2189 C2188 1.363 . S
C2189 C2195 1.428 . S
H2190 C2186 0.930 . S
H2191 C2188 0.929 . S
S2192 N2193 1.613 . S
S2192 N2194 1.610 . S
N2193 S2192 1.613 . S
N2193 C2196 1.350 . S
N2194 S2192 1.610 . S
N2194 C2195 1.351 . S
C2195 C2189 1.428 . S
C2195 N2194 1.351 . S
C2195 C2196 1.434 . S
C2196 C2187 1.429 . S
C2196 N2193 1.350 . S
C2196 C2195 1.434 . S
C2197 C2198 1.369 . S
C2197 C2199 1.419 . S
C2197 H2201 0.930 . S
C2198 C2197 1.369 . S
C2198 C2207 1.429 . S
C2199 C2197 1.419 . S
C2199 C2200 1.363 . S
C2199 H2202 0.929 . S
C2200 C2199 1.363 . S
C2200 C2206 1.428 . S
H2201 C2197 0.930 . S
H2202 C2199 0.929 . S
S2203 N2204 1.613 . S
S2203 N2205 1.610 . S
N2204 S2203 1.613 . S
N2204 C2207 1.350 . S
N2205 S2203 1.610 . S
N2205 C2206 1.351 . S
C2206 C2200 1.428 . S
C2206 N2205 1.351 . S
C2206 C2207 1.434 . S
C2207 C2198 1.429 . S
C2207 N2204 1.350 . S
C2207 C2206 1.434 . S
C2208 C2209 1.369 . S
C2208 C2210 1.419 . S
C2208 H2212 0.930 . S
C2209 C2208 1.369 . S
C2209 C2218 1.429 . S
C2210 C2208 1.419 . S
C2210 C2211 1.363 . S
C2210 H2213 0.929 . S
C2211 C2210 1.363 . S
C2211 C2217 1.428 . S
H2212 C2208 0.930 . S
H2213 C2210 0.929 . S
S2214 N2215 1.613 . S
S2214 N2216 1.610 . S
N2215 S2214 1.613 . S
N2215 C2218 1.350 . S
N2216 S2214 1.610 . S
N2216 C2217 1.351 . S
C2217 C2211 1.428 . S
C2217 N2216 1.351 . S
C2217 C2218 1.434 . S
C2218 C2209 1.429 . S
C2218 N2215 1.350 . S
C2218 C2217 1.434 . S
C2219 C2220 1.369 . S
C2219 C2221 1.419 . S
C2219 H2223 0.930 . S
C2220 C2219 1.369 . S
C2220 C2229 1.429 . S
C2221 C2219 1.419 . S
C2221 C2222 1.363 . S
C2221 H2224 0.929 . S
C2222 C2221 1.363 . S
C2222 C2228 1.428 . S
H2223 C2219 0.930 . S
H2224 C2221 0.929 . S
S2225 N2226 1.613 . S
S2225 N2227 1.610 . S
N2226 S2225 1.613 . S
N2226 C2229 1.350 . S
N2227 S2225 1.610 . S
N2227 C2228 1.351 . S
C2228 C2222 1.428 . S
C2228 N2227 1.351 . S
C2228 C2229 1.434 . S
C2229 C2220 1.429 . S
C2229 N2226 1.350 . S
C2229 C2228 1.434 . S
C2230 C2231 1.369 1_556 S
C2230 C2232 1.419 . S
C2230 H2234 0.930 . S
C2231 C2230 1.369 1_554 S
C2231 C2240 1.429 . S
C2232 C2230 1.419 . S
C2232 C2233 1.363 1_556 S
C2232 H2235 0.929 . S
C2233 C2232 1.363 1_554 S
C2233 C2239 1.428 . S
H2234 C2230 0.930 . S
H2235 C2232 0.929 . S
S2236 N2237 1.613 . S
S2236 N2238 1.610 . S
N2237 S2236 1.613 . S
N2237 C2240 1.350 . S
N2238 S2236 1.610 . S
N2238 C2239 1.351 . S
C2239 C2233 1.428 . S
C2239 N2238 1.351 . S
C2239 C2240 1.434 . S
C2240 C2231 1.429 . S
C2240 N2237 1.350 . S
C2240 C2239 1.434 . S
C2241 C2242 1.370 . S
C2241 C2243 1.407 1_455 S
C2241 H2245 0.941 . S
C2242 C2241 1.370 . S
C2242 C2251 1.429 1_455 S
C2243 C2241 1.407 1_655 S
C2243 C2244 1.363 . S
C2243 H2246 0.929 . S
C2244 C2243 1.363 . S
C2244 C2250 1.428 . S
H2245 C2241 0.941 . S
H2246 C2243 0.929 . S
S2247 N2248 1.613 . S
S2247 N2249 1.610 . S
N2248 S2247 1.613 . S
N2248 C2251 1.350 . S
N2249 S2247 1.610 . S
N2249 C2250 1.351 . S
C2250 C2244 1.428 . S
C2250 N2249 1.351 . S
C2250 C2251 1.434 . S
C2251 C2242 1.429 1_655 S
C2251 N2248 1.350 . S
C2251 C2250 1.434 . S
C2252 C2253 1.369 . S
C2252 C2254 1.419 . S
C2252 H2256 0.930 . S
C2253 C2252 1.369 . S
C2253 C2262 1.429 . S
C2254 C2252 1.419 . S
C2254 C2255 1.363 . S
C2254 H2257 0.929 . S
C2255 C2254 1.363 . S
C2255 C2261 1.428 . S
H2256 C2252 0.930 . S
H2257 C2254 0.929 . S
S2258 N2259 1.613 . S
S2258 N2260 1.610 . S
N2259 S2258 1.613 . S
N2259 C2262 1.350 . S
N2260 S2258 1.610 . S
N2260 C2261 1.351 . S
C2261 C2255 1.428 . S
C2261 N2260 1.351 . S
C2261 C2262 1.434 . S
C2262 C2253 1.429 . S
C2262 N2259 1.350 . S
C2262 C2261 1.434 . S
C2263 C2264 1.369 . S
C2263 C2265 1.419 . S
C2263 H2267 0.930 . S
C2264 C2263 1.369 . S
C2264 C2273 1.429 . S
C2265 C2263 1.419 . S
C2265 C2266 1.363 . S
C2265 H2268 0.929 . S
C2266 C2265 1.363 . S
C2266 C2272 1.428 . S
H2267 C2263 0.930 . S
H2268 C2265 0.929 . S
S2269 N2270 1.613 . S
S2269 N2271 1.610 . S
N2270 S2269 1.613 . S
N2270 C2273 1.350 . S
N2271 S2269 1.610 . S
N2271 C2272 1.351 . S
C2272 C2266 1.428 . S
C2272 N2271 1.351 . S
C2272 C2273 1.434 . S
C2273 C2264 1.429 . S
C2273 N2270 1.350 . S
C2273 C2272 1.434 . S
C2274 C2275 1.357 1_655 S
C2274 C2276 1.406 1_655 S
C2274 H2278 0.957 . S
C2275 C2274 1.357 1_455 S
C2275 C2284 1.429 . S
C2276 C2274 1.406 1_455 S
C2276 C2277 1.363 . S
C2276 H2279 0.929 1_455 S
C2277 C2276 1.363 . S
C2277 C2283 1.428 . S
H2278 C2274 0.957 . S
H2279 C2276 0.929 1_655 S
S2280 N2281 1.613 . S
S2280 N2282 1.610 . S
N2281 S2280 1.613 . S
N2281 C2284 1.350 . S
N2282 S2280 1.610 . S
N2282 C2283 1.351 . S
C2283 C2277 1.428 . S
C2283 N2282 1.351 . S
C2283 C2284 1.434 . S
C2284 C2275 1.429 . S
C2284 N2281 1.350 . S
C2284 C2283 1.434 . S
C2285 C2286 1.369 . S
C2285 C2287 1.419 . S
C2285 H2289 0.930 . S
C2286 C2285 1.369 . S
C2286 C2295 1.429 . S
C2287 C2285 1.419 . S
C2287 C2288 1.363 . S
C2287 H2290 0.929 . S
C2288 C2287 1.363 . S
C2288 C2294 1.428 . S
H2289 C2285 0.930 . S
H2290 C2287 0.929 . S
S2291 N2292 1.613 . S
S2291 N2293 1.610 . S
N2292 S2291 1.613 . S
N2292 C2295 1.350 . S
N2293 S2291 1.610 . S
N2293 C2294 1.351 . S
C2294 C2288 1.428 . S
C2294 N2293 1.351 . S
C2294 C2295 1.434 . S
C2295 C2286 1.429 . S
C2295 N2292 1.350 . S
C2295 C2294 1.434 . S
C2296 C2297 1.369 . S
C2296 C2298 1.419 . S
C2296 H2300 0.930 . S
C2297 C2296 1.369 . S
C2297 C2306 1.429 . S
C2298 C2296 1.419 . S
C2298 C2299 1.363 . S
C2298 H2301 0.929 . S
C2299 C2298 1.363 . S
C2299 C2305 1.428 . S
H2300 C2296 0.930 . S
H2301 C2298 0.929 . S
S2302 N2303 1.613 . S
S2302 N2304 1.610 . S
N2303 S2302 1.613 . S
N2303 C2306 1.350 . S
N2304 S2302 1.610 . S
N2304 C2305 1.351 . S
C2305 C2299 1.428 . S
C2305 N2304 1.351 . S
C2305 C2306 1.434 . S
C2306 C2297 1.429 . S
C2306 N2303 1.350 . S
C2306 C2305 1.434 . S
C2307 C2308 1.369 1_556 S
C2307 C2309 1.419 . S
C2307 H2311 0.930 . S
C2308 C2307 1.369 1_554 S
C2308 C2317 1.429 . S
C2309 C2307 1.419 . S
C2309 C2310 1.363 . S
C2309 H2312 0.929 . S
C2310 C2309 1.363 . S
C2310 C2316 1.428 . S
H2311 C2307 0.930 . S
H2312 C2309 0.929 . S
S2313 N2314 1.613 . S
S2313 N2315 1.610 1_554 S
N2314 S2313 1.613 . S
N2314 C2317 1.350 . S
N2315 S2313 1.610 1_556 S
N2315 C2316 1.351 . S
C2316 C2310 1.428 . S
C2316 N2315 1.351 . S
C2316 C2317 1.434 1_556 S
C2317 C2308 1.429 . S
C2317 N2314 1.350 . S
C2317 C2316 1.434 1_554 S
C2318 C2319 1.369 . S
C2318 C2320 1.419 . S
C2318 H2322 0.930 . S
C2319 C2318 1.369 . S
C2319 C2328 1.429 . S
C2320 C2318 1.419 . S
C2320 C2321 1.363 . S
C2320 H2323 0.929 . S
C2321 C2320 1.363 . S
C2321 C2327 1.428 . S
H2322 C2318 0.930 . S
H2323 C2320 0.929 . S
S2324 N2325 1.613 . S
S2324 N2326 1.610 . S
N2325 S2324 1.613 . S
N2325 C2328 1.350 . S
N2326 S2324 1.610 . S
N2326 C2327 1.351 . S
C2327 C2321 1.428 . S
C2327 N2326 1.351 . S
C2327 C2328 1.434 . S
C2328 C2319 1.429 . S
C2328 N2325 1.350 . S
C2328 C2327 1.434 . S
C2329 C2330 1.369 . S
C2329 C2331 1.419 . S
C2329 H2333 0.930 . S
C2330 C2329 1.369 . S
C2330 C2339 1.429 . S
C2331 C2329 1.419 . S
C2331 C2332 1.363 . S
C2331 H2334 0.929 . S
C2332 C2331 1.363 . S
C2332 C2338 1.428 . S
H2333 C2329 0.930 . S
H2334 C2331 0.929 . S
S2335 N2336 1.613 . S
S2335 N2337 1.610 . S
N2336 S2335 1.613 . S
N2336 C2339 1.350 . S
N2337 S2335 1.610 . S
N2337 C2338 1.351 . S
C2338 C2332 1.428 . S
C2338 N2337 1.351 . S
C2338 C2339 1.434 . S
C2339 C2330 1.429 . S
C2339 N2336 1.350 . S
C2339 C2338 1.434 . S
C2340 C2341 1.369 . S
C2340 C2342 1.419 . S
C2340 H2344 0.930 . S
C2341 C2340 1.369 . S
C2341 C2350 1.429 . S
C2342 C2340 1.419 . S
C2342 C2343 1.363 . S
C2342 H2345 0.929 . S
C2343 C2342 1.363 . S
C2343 C2349 1.428 . S
H2344 C2340 0.930 . S
H2345 C2342 0.929 . S
S2346 N2347 1.613 . S
S2346 N2348 1.610 . S
N2347 S2346 1.613 . S
N2347 C2350 1.350 . S
N2348 S2346 1.610 . S
N2348 C2349 1.351 . S
C2349 C2343 1.428 . S
C2349 N2348 1.351 . S
C2349 C2350 1.434 . S
C2350 C2341 1.429 . S
C2350 N2347 1.350 . S
C2350 C2349 1.434 . S
C2351 C2352 1.369 . S
C2351 C2353 1.419 . S
C2351 H2355 0.930 . S
C2352 C2351 1.369 . S
C2352 C2361 1.429 . S
C2353 C2351 1.419 . S
C2353 C2354 1.363 . S
C2353 H2356 0.929 . S
C2354 C2353 1.363 . S
C2354 C2360 1.428 . S
H2355 C2351 0.930 . S
H2356 C2353 0.929 . S
S2357 N2358 1.613 . S
S2357 N2359 1.610 . S
N2358 S2357 1.613 . S
N2358 C2361 1.350 . S
N2359 S2357 1.610 . S
N2359 C2360 1.351 . S
C2360 C2354 1.428 . S
C2360 N2359 1.351 . S
C2360 C2361 1.434 . S
C2361 C2352 1.429 . S
C2361 N2358 1.350 . S
C2361 C2360 1.434 . S
C2362 C2363 1.369 . S
C2362 C2364 1.419 . S
C2362 H2366 0.930 . S
C2363 C2362 1.369 . S
C2363 C2372 1.429 . S
C2364 C2362 1.419 . S
C2364 C2365 1.363 . S
C2364 H2367 0.929 . S
C2365 C2364 1.363 . S
C2365 C2371 1.428 . S
H2366 C2362 0.930 . S
H2367 C2364 0.929 . S
S2368 N2369 1.613 . S
S2368 N2370 1.610 . S
N2369 S2368 1.613 . S
N2369 C2372 1.350 . S
N2370 S2368 1.610 . S
N2370 C2371 1.351 . S
C2371 C2365 1.428 . S
C2371 N2370 1.351 . S
C2371 C2372 1.434 . S
C2372 C2363 1.429 . S
C2372 N2369 1.350 . S
C2372 C2371 1.434 . S
C2373 C2374 1.369 . S
C2373 C2375 1.419 . S
C2373 H2377 0.930 . S
C2374 C2373 1.369 . S
C2374 C2383 1.429 . S
C2375 C2373 1.419 . S
C2375 C2376 1.363 . S
C2375 H2378 0.929 . S
C2376 C2375 1.363 . S
C2376 C2382 1.428 . S
H2377 C2373 0.930 . S
H2378 C2375 0.929 . S
S2379 N2380 1.613 . S
S2379 N2381 1.610 . S
N2380 S2379 1.613 . S
N2380 C2383 1.350 . S
N2381 S2379 1.610 . S
N2381 C2382 1.351 . S
C2382 C2376 1.428 . S
C2382 N2381 1.351 . S
C2382 C2383 1.434 . S
C2383 C2374 1.429 . S
C2383 N2380 1.350 . S
C2383 C2382 1.434 . S
C2384 C2385 1.369 . S
C2384 C2386 1.419 . S
C2384 H2388 0.930 . S
C2385 C2384 1.369 . S
C2385 C2394 1.429 . S
C2386 C2384 1.419 . S
C2386 C2387 1.363 . S
C2386 H2389 0.929 . S
C2387 C2386 1.363 . S
C2387 C2393 1.428 . S
H2388 C2384 0.930 . S
H2389 C2386 0.929 . S
S2390 N2391 1.613 . S
S2390 N2392 1.610 . S
N2391 S2390 1.613 . S
N2391 C2394 1.350 . S
N2392 S2390 1.610 . S
N2392 C2393 1.351 . S
C2393 C2387 1.428 . S
C2393 N2392 1.351 . S
C2393 C2394 1.434 . S
C2394 C2385 1.429 . S
C2394 N2391 1.350 . S
C2394 C2393 1.434 . S
C2395 C2396 1.369 . S
C2395 C2397 1.419 . S
C2395 H2399 0.930 . S
C2396 C2395 1.369 . S
C2396 C2405 1.429 . S
C2397 C2395 1.419 . S
C2397 C2398 1.363 . S
C2397 H2400 0.929 . S
C2398 C2397 1.363 . S
C2398 C2404 1.428 . S
H2399 C2395 0.930 . S
H2400 C2397 0.929 . S
S2401 N2402 1.613 . S
S2401 N2403 1.610 . S
N2402 S2401 1.613 . S
N2402 C2405 1.350 . S
N2403 S2401 1.610 . S
N2403 C2404 1.351 . S
C2404 C2398 1.428 . S
C2404 N2403 1.351 . S
C2404 C2405 1.434 . S
C2405 C2396 1.429 . S
C2405 N2402 1.350 . S
C2405 C2404 1.434 . S
C2406 C2407 1.369 1_565 S
C2406 C2408 1.419 . S
C2406 H2410 0.930 . S
C2407 C2406 1.369 1_545 S
C2407 C2416 1.429 . S
C2408 C2406 1.419 . S
C2408 C2409 1.363 . S
C2408 H2411 0.929 . S
C2409 C2408 1.363 . S
C2409 C2415 1.428 . S
H2410 C2406 0.930 . S
H2411 C2408 0.929 . S
S2412 N2413 1.613 . S
S2412 N2414 1.610 1_545 S
N2413 S2412 1.613 . S
N2413 C2416 1.350 . S
N2414 S2412 1.610 1_565 S
N2414 C2415 1.351 . S
C2415 C2409 1.428 . S
C2415 N2414 1.351 . S
C2415 C2416 1.434 1_565 S
C2416 C2407 1.429 . S
C2416 N2413 1.350 . S
C2416 C2415 1.434 1_545 S
C2417 C2418 1.369 1_545 S
C2417 C2419 1.419 . S
C2417 H2421 0.930 . S
C2418 C2417 1.369 1_565 S
C2418 C2427 1.429 . S
C2419 C2417 1.419 . S
C2419 C2420 1.363 . S
C2419 H2422 0.929 . S
C2420 C2419 1.363 . S
C2420 C2426 1.428 1_545 S
H2421 C2417 0.930 . S
H2422 C2419 0.929 . S
S2423 N2424 1.613 . S
S2423 N2425 1.610 . S
N2424 S2423 1.613 . S
N2424 C2427 1.350 . S
N2425 S2423 1.610 . S
N2425 C2426 1.351 . S
C2426 C2420 1.428 1_565 S
C2426 N2425 1.351 . S
C2426 C2427 1.434 . S
C2427 C2418 1.429 . S
C2427 N2424 1.350 . S
C2427 C2426 1.434 . S
C2428 C2429 1.369 . S
C2428 C2430 1.419 . S
C2428 H2432 0.930 . S
C2429 C2428 1.369 . S
C2429 C2438 1.429 . S
C2430 C2428 1.419 . S
C2430 C2431 1.363 . S
C2430 H2433 0.929 . S
C2431 C2430 1.363 . S
C2431 C2437 1.428 . S
H2432 C2428 0.930 . S
H2433 C2430 0.929 . S
S2434 N2435 1.613 . S
S2434 N2436 1.610 . S
N2435 S2434 1.613 . S
N2435 C2438 1.350 . S
N2436 S2434 1.610 . S
N2436 C2437 1.351 . S
C2437 C2431 1.428 . S
C2437 N2436 1.351 . S
C2437 C2438 1.434 . S
C2438 C2429 1.429 . S
C2438 N2435 1.350 . S
C2438 C2437 1.434 . S
C2439 C2440 1.369 . S
C2439 C2441 1.419 . S
C2439 H2443 0.930 . S
C2440 C2439 1.369 . S
C2440 C2449 1.429 . S
C2441 C2439 1.419 . S
C2441 C2442 1.363 . S
C2441 H2444 0.929 . S
C2442 C2441 1.363 . S
C2442 C2448 1.428 . S
H2443 C2439 0.930 . S
H2444 C2441 0.929 . S
S2445 N2446 1.613 . S
S2445 N2447 1.610 . S
N2446 S2445 1.613 . S
N2446 C2449 1.350 . S
N2447 S2445 1.610 . S
N2447 C2448 1.351 . S
C2448 C2442 1.428 . S
C2448 N2447 1.351 . S
C2448 C2449 1.434 . S
C2449 C2440 1.429 . S
C2449 N2446 1.350 . S
C2449 C2448 1.434 . S
C2450 C2451 1.369 . S
C2450 C2452 1.419 . S
C2450 H2454 0.930 . S
C2451 C2450 1.369 . S
C2451 C2460 1.429 . S
C2452 C2450 1.419 . S
C2452 C2453 1.363 . S
C2452 H2455 0.929 . S
C2453 C2452 1.363 . S
C2453 C2459 1.428 . S
H2454 C2450 0.930 . S
H2455 C2452 0.929 . S
S2456 N2457 1.613 . S
S2456 N2458 1.610 . S
N2457 S2456 1.613 . S
N2457 C2460 1.350 . S
N2458 S2456 1.610 . S
N2458 C2459 1.351 . S
C2459 C2453 1.428 . S
C2459 N2458 1.351 . S
C2459 C2460 1.434 . S
C2460 C2451 1.429 . S
C2460 N2457 1.350 . S
C2460 C2459 1.434 . S
C2461 C2462 1.369 . S
C2461 C2463 1.419 . S
C2461 H2465 0.930 . S
C2462 C2461 1.369 . S
C2462 C2471 1.429 . S
C2463 C2461 1.419 . S
C2463 C2464 1.363 . S
C2463 H2466 0.929 . S
C2464 C2463 1.363 . S
C2464 C2470 1.428 . S
H2465 C2461 0.930 . S
H2466 C2463 0.929 . S
S2467 N2468 1.613 . S
S2467 N2469 1.610 . S
N2468 S2467 1.613 . S
N2468 C2471 1.350 . S
N2469 S2467 1.610 . S
N2469 C2470 1.351 . S
C2470 C2464 1.428 . S
C2470 N2469 1.351 . S
C2470 C2471 1.434 . S
C2471 C2462 1.429 . S
C2471 N2468 1.350 . S
C2471 C2470 1.434 . S
C2472 C2473 1.369 . S
C2472 C2474 1.419 . S
C2472 H2476 0.930 . S
C2473 C2472 1.369 . S
C2473 C2482 1.429 . S
C2474 C2472 1.419 . S
C2474 C2475 1.363 . S
C2474 H2477 0.929 . S
C2475 C2474 1.363 . S
C2475 C2481 1.428 . S
H2476 C2472 0.930 . S
H2477 C2474 0.929 . S
S2478 N2479 1.613 . S
S2478 N2480 1.610 . S
N2479 S2478 1.613 . S
N2479 C2482 1.350 . S
N2480 S2478 1.610 . S
N2480 C2481 1.351 . S
C2481 C2475 1.428 . S
C2481 N2480 1.351 . S
C2481 C2482 1.434 . S
C2482 C2473 1.429 . S
C2482 N2479 1.350 . S
C2482 C2481 1.434 . S
C2483 C2484 1.369 . S
C2483 C2485 1.419 . S
C2483 H2487 0.930 . S
C2484 C2483 1.369 . S
C2484 C2493 1.429 . S
C2485 C2483 1.419 . S
C2485 C2486 1.363 . S
C2485 H2488 0.929 . S
C2486 C2485 1.363 . S
C2486 C2492 1.428 . S
H2487 C2483 0.930 . S
H2488 C2485 0.929 . S
S2489 N2490 1.613 . S
S2489 N2491 1.610 . S
N2490 S2489 1.613 . S
N2490 C2493 1.350 . S
N2491 S2489 1.610 . S
N2491 C2492 1.351 . S
C2492 C2486 1.428 . S
C2492 N2491 1.351 . S
C2492 C2493 1.434 . S
C2493 C2484 1.429 . S
C2493 N2490 1.350 . S
C2493 C2492 1.434 . S
C2494 C2495 1.369 . S
C2494 C2496 1.419 . S
C2494 H2498 0.930 . S
C2495 C2494 1.369 . S
C2495 C2504 1.429 . S
C2496 C2494 1.419 . S
C2496 C2497 1.363 . S
C2496 H2499 0.929 . S
C2497 C2496 1.363 . S
C2497 C2503 1.428 . S
H2498 C2494 0.930 . S
H2499 C2496 0.929 . S
S2500 N2501 1.613 . S
S2500 N2502 1.610 . S
N2501 S2500 1.613 . S
N2501 C2504 1.350 . S
N2502 S2500 1.610 . S
N2502 C2503 1.351 . S
C2503 C2497 1.428 . S
C2503 N2502 1.351 . S
C2503 C2504 1.434 . S
C2504 C2495 1.429 . S
C2504 N2501 1.350 . S
C2504 C2503 1.434 . S
C2505 C2506 1.369 . S
C2505 C2507 1.419 . S
C2505 H2509 0.930 . S
C2506 C2505 1.369 . S
C2506 C2515 1.429 . S
C2507 C2505 1.419 . S
C2507 C2508 1.363 . S
C2507 H2510 0.929 . S
C2508 C2507 1.363 . S
C2508 C2514 1.428 . S
H2509 C2505 0.930 . S
H2510 C2507 0.929 . S
S2511 N2512 1.613 . S
S2511 N2513 1.610 . S
N2512 S2511 1.613 . S
N2512 C2515 1.350 . S
N2513 S2511 1.610 . S
N2513 C2514 1.351 . S
C2514 C2508 1.428 . S
C2514 N2513 1.351 . S
C2514 C2515 1.434 . S
C2515 C2506 1.429 . S
C2515 N2512 1.350 . S
C2515 C2514 1.434 . S
C2516 C2517 1.369 . S
C2516 C2518 1.419 . S
C2516 H2520 0.930 . S
C2517 C2516 1.369 . S
C2517 C2526 1.429 . S
C2518 C2516 1.419 . S
C2518 C2519 1.363 . S
C2518 H2521 0.929 . S
C2519 C2518 1.363 . S
C2519 C2525 1.428 . S
H2520 C2516 0.930 . S
H2521 C2518 0.929 . S
S2522 N2523 1.613 . S
S2522 N2524 1.610 . S
N2523 S2522 1.613 . S
N2523 C2526 1.350 . S
N2524 S2522 1.610 . S
N2524 C2525 1.351 . S
C2525 C2519 1.428 . S
C2525 N2524 1.351 . S
C2525 C2526 1.434 . S
C2526 C2517 1.429 . S
C2526 N2523 1.350 . S
C2526 C2525 1.434 . S
C2527 C2528 1.369 . S
C2527 C2529 1.419 . S
C2527 H2531 0.930 . S
C2528 C2527 1.369 . S
C2528 C2537 1.429 . S
C2529 C2527 1.419 . S
C2529 C2530 1.363 . S
C2529 H2532 0.929 . S
C2530 C2529 1.363 . S
C2530 C2536 1.428 . S
H2531 C2527 0.930 . S
H2532 C2529 0.929 . S
S2533 N2534 1.613 . S
S2533 N2535 1.610 . S
N2534 S2533 1.613 . S
N2534 C2537 1.350 . S
N2535 S2533 1.610 . S
N2535 C2536 1.351 . S
C2536 C2530 1.428 . S
C2536 N2535 1.351 . S
C2536 C2537 1.434 . S
C2537 C2528 1.429 . S
C2537 N2534 1.350 . S
C2537 C2536 1.434 . S
C2538 C2539 1.369 . S
C2538 C2540 1.419 . S
C2538 H2542 0.930 . S
C2539 C2538 1.369 . S
C2539 C2548 1.429 . S
C2540 C2538 1.419 . S
C2540 C2541 1.363 . S
C2540 H2543 0.929 . S
C2541 C2540 1.363 . S
C2541 C2547 1.428 . S
H2542 C2538 0.930 . S
H2543 C2540 0.929 . S
S2544 N2545 1.613 . S
S2544 N2546 1.610 . S
N2545 S2544 1.613 . S
N2545 C2548 1.350 . S
N2546 S2544 1.610 . S
N2546 C2547 1.351 . S
C2547 C2541 1.428 . S
C2547 N2546 1.351 . S
C2547 C2548 1.434 . S
C2548 C2539 1.429 . S
C2548 N2545 1.350 . S
C2548 C2547 1.434 . S
C2549 C2550 1.369 . S
C2549 C2551 1.419 . S
C2549 H2553 0.930 . S
C2550 C2549 1.369 . S
C2550 C2559 1.429 . S
C2551 C2549 1.419 . S
C2551 C2552 1.363 . S
C2551 H2554 0.929 . S
C2552 C2551 1.363 . S
C2552 C2558 1.428 . S
H2553 C2549 0.930 . S
H2554 C2551 0.929 . S
S2555 N2556 1.613 . S
S2555 N2557 1.610 . S
N2556 S2555 1.613 . S
N2556 C2559 1.350 . S
N2557 S2555 1.610 . S
N2557 C2558 1.351 . S
C2558 C2552 1.428 . S
C2558 N2557 1.351 . S
C2558 C2559 1.434 . S
C2559 C2550 1.429 . S
C2559 N2556 1.350 . S
C2559 C2558 1.434 . S
C2560 C2561 1.369 . S
C2560 C2562 1.419 . S
C2560 H2564 0.930 . S
C2561 C2560 1.369 . S
C2561 C2570 1.429 . S
C2562 C2560 1.419 . S
C2562 C2563 1.363 . S
C2562 H2565 0.929 . S
C2563 C2562 1.363 . S
C2563 C2569 1.428 . S
H2564 C2560 0.930 . S
H2565 C2562 0.929 . S
S2566 N2567 1.613 . S
S2566 N2568 1.610 . S
N2567 S2566 1.613 . S
N2567 C2570 1.350 . S
N2568 S2566 1.610 . S
N2568 C2569 1.351 . S
C2569 C2563 1.428 . S
C2569 N2568 1.351 . S
C2569 C2570 1.434 . S
C2570 C2561 1.429 . S
C2570 N2567 1.350 . S
C2570 C2569 1.434 . S
C2571 C2572 1.369 . S
C2571 C2573 1.419 . S
C2571 H2575 0.930 . S
C2572 C2571 1.369 . S
C2572 C2581 1.429 . S
C2573 C2571 1.419 . S
C2573 C2574 1.363 . S
C2573 H2576 0.929 . S
C2574 C2573 1.363 . S
C2574 C2580 1.428 . S
H2575 C2571 0.930 . S
H2576 C2573 0.929 . S
S2577 N2578 1.613 . S
S2577 N2579 1.610 . S
N2578 S2577 1.613 . S
N2578 C2581 1.350 . S
N2579 S2577 1.610 . S
N2579 C2580 1.351 . S
C2580 C2574 1.428 . S
C2580 N2579 1.351 . S
C2580 C2581 1.434 . S
C2581 C2572 1.429 . S
C2581 N2578 1.350 . S
C2581 C2580 1.434 . S
C2582 C2583 1.369 . S
C2582 C2584 1.419 . S
C2582 H2586 0.930 . S
C2583 C2582 1.369 . S
C2583 C2592 1.429 . S
C2584 C2582 1.419 . S
C2584 C2585 1.363 . S
C2584 H2587 0.929 1_655 S
C2585 C2584 1.363 . S
C2585 C2591 1.428 . S
H2586 C2582 0.930 . S
H2587 C2584 0.929 1_455 S
S2588 N2589 1.613 . S
S2588 N2590 1.610 . S
N2589 S2588 1.613 . S
N2589 C2592 1.350 . S
N2590 S2588 1.610 . S
N2590 C2591 1.351 . S
C2591 C2585 1.428 . S
C2591 N2590 1.351 . S
C2591 C2592 1.434 . S
C2592 C2583 1.429 . S
C2592 N2589 1.350 . S
C2592 C2591 1.434 . S
C2593 C2594 1.369 . S
C2593 C2595 1.419 . S
C2593 H2597 0.930 . S
C2594 C2593 1.369 . S
C2594 C2603 1.429 . S
C2595 C2593 1.419 . S
C2595 C2596 1.363 . S
C2595 H2598 0.929 . S
C2596 C2595 1.363 . S
C2596 C2602 1.428 . S
H2597 C2593 0.930 . S
H2598 C2595 0.929 . S
S2599 N2600 1.613 . S
S2599 N2601 1.610 . S
N2600 S2599 1.613 . S
N2600 C2603 1.350 . S
N2601 S2599 1.610 . S
N2601 C2602 1.351 . S
C2602 C2596 1.428 . S
C2602 N2601 1.351 . S
C2602 C2603 1.434 . S
C2603 C2594 1.429 . S
C2603 N2600 1.350 . S
C2603 C2602 1.434 . S
C2604 C2605 1.369 . S
C2604 C2606 1.419 . S
C2604 H2608 0.930 . S
C2605 C2604 1.369 . S
C2605 C2614 1.429 . S
C2606 C2604 1.419 . S
C2606 C2607 1.363 . S
C2606 H2609 0.929 . S
C2607 C2606 1.363 . S
C2607 C2613 1.428 . S
H2608 C2604 0.930 . S
H2609 C2606 0.929 . S
S2610 N2611 1.613 . S
S2610 N2612 1.610 . S
N2611 S2610 1.613 . S
N2611 C2614 1.350 . S
N2612 S2610 1.610 . S
N2612 C2613 1.351 . S
C2613 C2607 1.428 . S
C2613 N2612 1.351 . S
C2613 C2614 1.434 . S
C2614 C2605 1.429 . S
C2614 N2611 1.350 . S
C2614 C2613 1.434 . S
C2615 C2616 1.369 . S
C2615 C2617 1.419 . S
C2615 H2619 0.930 . S
C2616 C2615 1.369 . S
C2616 C2625 1.429 . S
C2617 C2615 1.419 . S
C2617 C2618 1.363 . S
C2617 H2620 0.929 . S
C2618 C2617 1.363 . S
C2618 C2624 1.428 . S
H2619 C2615 0.930 . S
H2620 C2617 0.929 . S
S2621 N2622 1.613 . S
S2621 N2623 1.610 . S
N2622 S2621 1.613 . S
N2622 C2625 1.350 . S
N2623 S2621 1.610 . S
N2623 C2624 1.351 . S
C2624 C2618 1.428 . S
C2624 N2623 1.351 . S
C2624 C2625 1.434 . S
C2625 C2616 1.429 . S
C2625 N2622 1.350 . S
C2625 C2624 1.434 . S
C2626 C2627 1.369 . S
C2626 C2628 1.419 . S
C2626 H2630 0.930 . S
C2627 C2626 1.369 . S
C2627 C2636 1.429 . S
C2628 C2626 1.419 . S
C2628 C2629 1.363 . S
C2628 H2631 0.929 . S
C2629 C2628 1.363 . S
C2629 C2635 1.428 . S
H2630 C2626 0.930 . S
H2631 C2628 0.929 . S
S2632 N2633 1.613 . S
S2632 N2634 1.610 . S
N2633 S2632 1.613 . S
N2633 C2636 1.350 . S
N2634 S2632 1.610 . S
N2634 C2635 1.351 . S
C2635 C2629 1.428 . S
C2635 N2634 1.351 . S
C2635 C2636 1.434 . S
C2636 C2627 1.429 . S
C2636 N2633 1.350 . S
C2636 C2635 1.434 . S
C2637 C2638 1.369 . S
C2637 C2639 1.419 . S
C2637 H2641 0.930 . S
C2638 C2637 1.369 . S
C2638 C2647 1.429 . S
C2639 C2637 1.419 . S
C2639 C2640 1.363 . S
C2639 H2642 0.929 . S
C2640 C2639 1.363 . S
C2640 C2646 1.428 . S
H2641 C2637 0.930 . S
H2642 C2639 0.929 . S
S2643 N2644 1.613 . S
S2643 N2645 1.610 . S
N2644 S2643 1.613 . S
N2644 C2647 1.350 . S
N2645 S2643 1.610 . S
N2645 C2646 1.351 . S
C2646 C2640 1.428 . S
C2646 N2645 1.351 . S
C2646 C2647 1.434 . S
C2647 C2638 1.429 . S
C2647 N2644 1.350 . S
C2647 C2646 1.434 . S
C2648 C2649 1.369 . S
C2648 C2650 1.419 . S
C2648 H2652 0.930 . S
C2649 C2648 1.369 . S
C2649 C2658 1.429 . S
C2650 C2648 1.419 . S
C2650 C2651 1.363 . S
C2650 H2653 0.929 . S
C2651 C2650 1.363 . S
C2651 C2657 1.428 . S
H2652 C2648 0.930 . S
H2653 C2650 0.929 . S
S2654 N2655 1.613 . S
S2654 N2656 1.610 . S
N2655 S2654 1.613 . S
N2655 C2658 1.350 . S
N2656 S2654 1.610 . S
N2656 C2657 1.351 . S
C2657 C2651 1.428 . S
C2657 N2656 1.351 . S
C2657 C2658 1.434 . S
C2658 C2649 1.429 . S
C2658 N2655 1.350 . S
C2658 C2657 1.434 . S
C2659 C2660 1.369 . S
C2659 C2661 1.419 . S
C2659 H2663 0.930 . S
C2660 C2659 1.369 . S
C2660 C2669 1.429 . S
C2661 C2659 1.419 . S
C2661 C2662 1.363 . S
C2661 H2664 0.929 1_565 S
C2662 C2661 1.363 . S
C2662 C2668 1.428 . S
H2663 C2659 0.930 . S
H2664 C2661 0.929 1_545 S
S2665 N2666 1.613 . S
S2665 N2667 1.610 . S
N2666 S2665 1.613 . S
N2666 C2669 1.350 . S
N2667 S2665 1.610 . S
N2667 C2668 1.351 . S
C2668 C2662 1.428 . S
C2668 N2667 1.351 . S
C2668 C2669 1.434 . S
C2669 C2660 1.429 . S
C2669 N2666 1.350 . S
C2669 C2668 1.434 . S
C2670 C2671 1.369 . S
C2670 C2672 1.419 . S
C2670 H2674 0.930 . S
C2671 C2670 1.369 . S
C2671 C2680 1.429 . S
C2672 C2670 1.419 . S
C2672 C2673 1.363 . S
C2672 H2675 0.929 . S
C2673 C2672 1.363 . S
C2673 C2679 1.428 . S
H2674 C2670 0.930 . S
H2675 C2672 0.929 . S
S2676 N2677 1.613 . S
S2676 N2678 1.610 . S
N2677 S2676 1.613 . S
N2677 C2680 1.350 . S
N2678 S2676 1.610 . S
N2678 C2679 1.351 . S
C2679 C2673 1.428 . S
C2679 N2678 1.351 . S
C2679 C2680 1.434 . S
C2680 C2671 1.429 . S
C2680 N2677 1.350 . S
C2680 C2679 1.434 . S
C2681 C2682 1.369 . S
C2681 C2683 1.419 . S
C2681 H2685 0.930 . S
C2682 C2681 1.369 . S
C2682 C2691 1.429 . S
C2683 C2681 1.419 . S
C2683 C2684 1.363 . S
C2683 H2686 0.929 . S
C2684 C2683 1.363 . S
C2684 C2690 1.428 . S
H2685 C2681 0.930 . S
H2686 C2683 0.929 . S
S2687 N2688 1.613 . S
S2687 N2689 1.610 . S
N2688 S2687 1.613 . S
N2688 C2691 1.350 . S
N2689 S2687 1.610 . S
N2689 C2690 1.351 . S
C2690 C2684 1.428 . S
C2690 N2689 1.351 . S
C2690 C2691 1.434 . S
C2691 C2682 1.429 . S
C2691 N2688 1.350 . S
C2691 C2690 1.434 . S
C2692 C2693 1.369 . S
C2692 C2694 1.419 . S
C2692 H2696 0.930 . S
C2693 C2692 1.369 . S
C2693 C2702 1.429 . S
C2694 C2692 1.419 . S
C2694 C2695 1.363 . S
C2694 H2697 0.929 . S
C2695 C2694 1.363 . S
C2695 C2701 1.428 . S
H2696 C2692 0.930 . S
H2697 C2694 0.929 . S
S2698 N2699 1.613 . S
S2698 N2700 1.610 . S
N2699 S2698 1.613 . S
N2699 C2702 1.350 . S
N2700 S2698 1.610 . S
N2700 C2701 1.351 . S
C2701 C2695 1.428 . S
C2701 N2700 1.351 . S
C2701 C2702 1.434 . S
C2702 C2693 1.429 . S
C2702 N2699 1.350 . S
C2702 C2701 1.434 . S
C2703 C2704 1.369 . S
C2703 C2705 1.419 . S
C2703 H2707 0.916 1_554 S
C2704 C2703 1.369 . S
C2704 C2713 1.429 . S
C2705 C2703 1.419 . S
C2705 C2706 1.363 . S
C2705 H2708 0.929 1_554 S
C2706 C2705 1.363 . S
C2706 C2712 1.428 . S
H2707 C2703 0.916 1_556 S
H2708 C2705 0.929 1_556 S
S2709 N2710 1.613 . S
S2709 N2711 1.610 . S
N2710 S2709 1.613 . S
N2710 C2713 1.350 . S
N2711 S2709 1.610 . S
N2711 C2712 1.351 . S
C2712 C2706 1.428 . S
C2712 N2711 1.351 . S
C2712 C2713 1.434 . S
C2713 C2704 1.429 . S
C2713 N2710 1.350 . S
C2713 C2712 1.434 . S
C2714 C2715 1.369 . S
C2714 C2716 1.419 . S
C2714 H2718 0.930 . S
C2715 C2714 1.369 . S
C2715 C2724 1.429 . S
C2716 C2714 1.419 . S
C2716 C2717 1.363 . S
C2716 H2719 0.929 . S
C2717 C2716 1.363 . S
C2717 C2723 1.428 . S
H2718 C2714 0.930 . S
H2719 C2716 0.929 . S
S2720 N2721 1.613 . S
S2720 N2722 1.610 . S
N2721 S2720 1.613 . S
N2721 C2724 1.350 . S
N2722 S2720 1.610 . S
N2722 C2723 1.351 . S
C2723 C2717 1.428 . S
C2723 N2722 1.351 . S
C2723 C2724 1.434 . S
C2724 C2715 1.429 . S
C2724 N2721 1.350 . S
C2724 C2723 1.434 . S
C2725 C2726 1.369 . S
C2725 C2727 1.419 . S
C2725 H2729 0.930 . S
C2726 C2725 1.369 . S
C2726 C2735 1.429 . S
C2727 C2725 1.419 . S
C2727 C2728 1.363 . S
C2727 H2730 0.929 . S
C2728 C2727 1.363 . S
C2728 C2734 1.428 . S
H2729 C2725 0.930 . S
H2730 C2727 0.929 . S
S2731 N2732 1.613 . S
S2731 N2733 1.610 . S
N2732 S2731 1.613 . S
N2732 C2735 1.350 . S
N2733 S2731 1.610 . S
N2733 C2734 1.351 . S
C2734 C2728 1.428 . S
C2734 N2733 1.351 . S
C2734 C2735 1.434 . S
C2735 C2726 1.429 . S
C2735 N2732 1.350 . S
C2735 C2734 1.434 . S
C1681 C109 2.262 1_455 S
C1683 C403 2.265 . S
C1692 C61 1.675 . S
C1694 C476 1.898 . S
C1703 C74 1.956 . S
C1705 C571 2.018 . S
C1716 C646 1.339 . S
C1714 C96 1.428 . S
C1725 C25 1.362 . S
C1727 C730 1.276 . S
C1738 C823 2.017 . S
C1736 C40 1.957 . S
C1749 C896 2.004 . S
C1747 C46 1.990 . S
C1758 C5 1.871 . S
C1760 C991 2.305 . S
C1771 C392 1.765 . S
C1769 C229 1.422 . S
C1780 C249 0.923 . S
C1782 C478 0.881 . S
C1793 C560 1.105 . S
C1791 C271 0.888 . S
C1804 C655 1.774 . S
C1802 C172 1.725 1_556 S
C1813 C236 1.593 . S
C1815 C739 1.604 . S
C1826 C812 1.309 . S
C1824 C242 1.284 . S
C1837 C898 0.886 . S
C1835 C278 0.945 . S
C1848 C980 1.831 . S
C1846 C179 1.899 . S
C1859 C394 1.177 . S
C1857 C159 0.876 1_556 S
C1868 C285 1.429 . S
C1870 C1064 1.597 . S
C1881 C1150 1.269 . S
C1879 C333 1.325 . S
C1892 C1243 0.875 . S
C1890 C320 0.856 . S
C1901 C123 1.179 . S
C1903 C982 1.178 . S
C1912 C138 1.434 . S
C1914 C562 1.382 . S
C1923 C326 1.754 . S
C1925 C1316 1.756 . S
C1936 C1411 0.879 . S
C1934 C298 0.870 . S
C1947 C391 2.224 . S
C1945 C67 2.126 . S
C1958 C1412 1.830 . S
C1956 C110 1.818 . S
C1967 C88 1.937 . S
C1969 C559 1.982 . S
C1978 C75 1.111 . S
C1980 C1330 1.258 . S
C1991 C742 1.257 . S
C1989 C11 1.317 . S
C2000 C47 1.771 . S
C2002 C1147 1.964 . S
C2013 C908 1.854 1_556 S
C2011 C32 1.746 . S
C2024 C1483 2.313 . S
C2022 C26 2.267 . S
C2035 C404 1.834 . S
C2033 C152 1.881 . S
C2046 C1414 0.884 . S
C2044 C319 0.913 . S
C2055 C124 1.086 . S
C2057 C572 1.085 . S
C2066 C284 1.764 . S
C2068 C1315 1.779 . S
C2077 C145 1.359 . S
C2079 C727 1.548 . S
C2090 C1160 1.196 . S
C2088 C312 1.173 . S
C2099 C117 0.785 1_565 S
C2101 C910 0.792 1_545 S
C2110 C291 1.742 . S
C2112 C1496 1.738 . S
C2121 C194 1.234 . S
C2123 C406 1.283 . S
C2132 C180 1.577 . S
C2134 C1076 1.567 . S
C2143 C263 1.229 . S
C2145 C826 1.224 . S
C2154 C243 0.778 . S
C2156 C1231 0.838 . S
C2167 C1498 1.210 . S
C2165 C277 1.109 . S
C2176 C215 1.250 . S
C2178 C574 1.371 . S
C2189 C656 1.660 . S
C2187 C256 1.567 . S
C2200 C475 0.914 . S
C2198 C200 0.899 . S
C2209 C81 2.262 . S
C2211 C1579 2.265 . S
C2222 C1400 1.896 . S
C2220 C89 1.684 . S
C2231 C102 1.960 1_554 S
C2233 C1663 2.016 . S
C2242 C68 1.427 . S
C2244 C1318 1.343 . S
C2253 C53 1.363 . S
C2255 C1066 1.275 . S
C2266 C1159 2.017 . S
C2264 C12 1.957 . S
C2277 C1232 2.002 . S
C2275 C18 1.988 . S
C2288 C1495 2.305 . S
C2286 C33 1.871 . S
C2299 C1568 1.769 . S
C2297 C257 1.428 . S
C2308 C193 0.918 . S
C2310 C1402 0.890 . S
C2321 C1652 1.105 . S
C2319 C201 0.891 . S
C2332 C1327 1.771 . S
C2330 C214 1.728 . S
C2343 C1075 1.602 . S
C2341 C264 1.594 . S
C2352 C186 1.286 . S
C2354 C1148 1.307 . S
C2365 C1234 0.888 . S
C2363 C208 0.946 . S
C2374 C221 1.900 . S
C2376 C1484 1.835 . S
C2387 C1570 1.178 . S
C2385 C313 0.861 . S
C2396 C131 1.427 . S
C2398 C728 1.594 . S
C2409 C814 1.266 . S
C2407 C151 1.325 . S
C2420 C907 0.874 . S
C2418 C166 0.857 . S
C2431 C1486 1.181 . S
C2429 C305 1.185 . S
C2440 C292 1.433 . S
C2442 C1654 1.379 . S
C2453 C644 1.758 . S
C2451 C144 1.753 . S
C2464 C487 0.878 . S
C2462 C116 0.871 . S
C2473 C95 2.126 . S
C2475 C1567 2.224 . S
C2486 C488 1.830 . S
C2484 C82 1.818 . S
C2495 C60 1.937 . S
C2497 C1651 1.982 . S
C2506 C103 1.120 . S
C2508 C658 1.256 . S
C2517 C39 1.319 . S
C2519 C1078 1.257 . S
C2530 C811 1.962 . S
C2528 C19 1.768 . S
C2539 C4 1.747 . S
C2541 C1244 1.876 . S
C2550 C54 2.270 . S
C2552 C979 2.313 . S
C2563 C1580 1.835 . S
C2561 C334 1.880 . S
C2572 C165 0.917 . S
C2574 C490 0.888 . S
C2585 C1664 1.084 1_655 S
C2583 C306 1.093 . S
C2594 C130 1.761 . S
C2596 C643 1.780 . S
C2605 C327 1.359 . S
C2607 C1063 1.547 . S
C2618 C824 1.199 . S
C2616 C158 1.182 . S
C2627 C299 0.785 . S
C2629 C1246 0.792 . S
C2640 C992 1.738 . S
C2638 C137 1.742 . S
C2651 C1582 1.279 . S
C2649 C250 1.222 . S
C2662 C740 1.566 1_565 S
C2660 C222 1.576 . S
C2671 C235 1.231 . S
C2673 C1162 1.226 . S
C2684 C895 0.839 . S
C2682 C187 0.802 . S
C2693 C207 1.124 . S
C2695 C994 1.215 . S
C2704 C173 1.239 . S
C2706 C1666 1.375 . S
C2717 C1328 1.660 . S
C2715 C228 1.571 . S
C2728 C1399 0.913 . S
C2726 C270 0.893 . S
