# Generated by pormake.
# Topology ibd, (4,6)-cn, num edge types: 1
# Building blocks:
#     Node 0, Type 0, BuildingBlock: TATPOV_clean_sbu_0, # of connection points: 4
#     Node 1, Type 0, BuildingBlock: TATPOV_clean_sbu_0, # of connection points: 4
#     Node 2, Type 0, BuildingBlock: TATPOV_clean_sbu_0, # of connection points: 4
#     Node 3, Type 0, BuildingBlock: TATPOV_clean_sbu_0, # of connection points: 4
#     Node 4, Type 0, BuildingBlock: TATPOV_clean_sbu_0, # of connection points: 4
#     Node 5, Type 0, BuildingBlock: TATPOV_clean_sbu_0, # of connection points: 4
#     Node 6, Type 0, BuildingBlock: TATPOV_clean_sbu_0, # of connection points: 4
#     Node 7, Type 0, BuildingBlock: TATPOV_clean_sbu_0, # of connection points: 4
#     Node 8, Type 0, BuildingBlock: TATPOV_clean_sbu_0, # of connection points: 4
#     Node 9, Type 0, BuildingBlock: TATPOV_clean_sbu_0, # of connection points: 4
#     Node 10, Type 0, BuildingBlock: TATPOV_clean_sbu_0, # of connection points: 4
#     Node 11, Type 0, BuildingBlock: TATPOV_clean_sbu_0, # of connection points: 4
#     Node 12, Type 0, BuildingBlock: TATPOV_clean_sbu_0, # of connection points: 4
#     Node 13, Type 0, BuildingBlock: TATPOV_clean_sbu_0, # of connection points: 4
#     Node 14, Type 0, BuildingBlock: TATPOV_clean_sbu_0, # of connection points: 4
#     Node 15, Type 0, BuildingBlock: TATPOV_clean_sbu_0, # of connection points: 4
#     Node 16, Type 0, BuildingBlock: TATPOV_clean_sbu_0, # of connection points: 4
#     Node 17, Type 0, BuildingBlock: TATPOV_clean_sbu_0, # of connection points: 4
#     Node 18, Type 0, BuildingBlock: TATPOV_clean_sbu_0, # of connection points: 4
#     Node 19, Type 0, BuildingBlock: TATPOV_clean_sbu_0, # of connection points: 4
#     Node 20, Type 0, BuildingBlock: TATPOV_clean_sbu_0, # of connection points: 4
#     Node 21, Type 0, BuildingBlock: TATPOV_clean_sbu_0, # of connection points: 4
#     Node 22, Type 0, BuildingBlock: TATPOV_clean_sbu_0, # of connection points: 4
#     Node 23, Type 0, BuildingBlock: TATPOV_clean_sbu_0, # of connection points: 4
#     Node 24, Type 1, BuildingBlock: IZENUY_clean_sbu_0, # of connection points: 6
#     Node 25, Type 1, BuildingBlock: IZENUY_clean_sbu_0, # of connection points: 6
#     Node 26, Type 1, BuildingBlock: IZENUY_clean_sbu_0, # of connection points: 6
#     Node 27, Type 1, BuildingBlock: IZENUY_clean_sbu_0, # of connection points: 6
#     Node 28, Type 1, BuildingBlock: IZENUY_clean_sbu_0, # of connection points: 6
#     Node 29, Type 1, BuildingBlock: IZENUY_clean_sbu_0, # of connection points: 6
#     Node 30, Type 1, BuildingBlock: IZENUY_clean_sbu_0, # of connection points: 6
#     Node 31, Type 1, BuildingBlock: IZENUY_clean_sbu_0, # of connection points: 6
#     Node 32, Type 1, BuildingBlock: IZENUY_clean_sbu_0, # of connection points: 6
#     Node 33, Type 1, BuildingBlock: IZENUY_clean_sbu_0, # of connection points: 6
#     Node 34, Type 1, BuildingBlock: IZENUY_clean_sbu_0, # of connection points: 6
#     Node 35, Type 1, BuildingBlock: IZENUY_clean_sbu_0, # of connection points: 6
#     Node 36, Type 1, BuildingBlock: IZENUY_clean_sbu_0, # of connection points: 6
#     Node 37, Type 1, BuildingBlock: IZENUY_clean_sbu_0, # of connection points: 6
#     Node 38, Type 1, BuildingBlock: IZENUY_clean_sbu_0, # of connection points: 6
#     Node 39, Type 1, BuildingBlock: IZENUY_clean_sbu_0, # of connection points: 6
#     Edge 40, Type (0, 1), BuildingBlock: ZUJKAS_clean_linker_0, # of connection points: 2
#     Edge 41, Type (0, 1), BuildingBlock: ZUJKAS_clean_linker_0, # of connection points: 2
#     Edge 42, Type (0, 1), BuildingBlock: ZUJKAS_clean_linker_0, # of connection points: 2
#     Edge 43, Type (0, 1), BuildingBlock: ZUJKAS_clean_linker_0, # of connection points: 2
#     Edge 44, Type (0, 1), BuildingBlock: ZUJKAS_clean_linker_0, # of connection points: 2
#     Edge 45, Type (0, 1), BuildingBlock: ZUJKAS_clean_linker_0, # of connection points: 2
#     Edge 46, Type (0, 1), BuildingBlock: ZUJKAS_clean_linker_0, # of connection points: 2
#     Edge 47, Type (0, 1), BuildingBlock: ZUJKAS_clean_linker_0, # of connection points: 2
#     Edge 48, Type (0, 1), BuildingBlock: ZUJKAS_clean_linker_0, # of connection points: 2
#     Edge 49, Type (0, 1), BuildingBlock: ZUJKAS_clean_linker_0, # of connection points: 2
#     Edge 50, Type (0, 1), BuildingBlock: ZUJKAS_clean_linker_0, # of connection points: 2
#     Edge 51, Type (0, 1), BuildingBlock: ZUJKAS_clean_linker_0, # of connection points: 2
#     Edge 52, Type (0, 1), BuildingBlock: ZUJKAS_clean_linker_0, # of connection points: 2
#     Edge 53, Type (0, 1), BuildingBlock: ZUJKAS_clean_linker_0, # of connection points: 2
#     Edge 54, Type (0, 1), BuildingBlock: ZUJKAS_clean_linker_0, # of connection points: 2
#     Edge 55, Type (0, 1), BuildingBlock: ZUJKAS_clean_linker_0, # of connection points: 2
#     Edge 56, Type (0, 1), BuildingBlock: ZUJKAS_clean_linker_0, # of connection points: 2
#     Edge 57, Type (0, 1), BuildingBlock: ZUJKAS_clean_linker_0, # of connection points: 2
#     Edge 58, Type (0, 1), BuildingBlock: ZUJKAS_clean_linker_0, # of connection points: 2
#     Edge 59, Type (0, 1), BuildingBlock: ZUJKAS_clean_linker_0, # of connection points: 2
#     Edge 60, Type (0, 1), BuildingBlock: ZUJKAS_clean_linker_0, # of connection points: 2
#     Edge 61, Type (0, 1), BuildingBlock: ZUJKAS_clean_linker_0, # of connection points: 2
#     Edge 62, Type (0, 1), BuildingBlock: ZUJKAS_clean_linker_0, # of connection points: 2
#     Edge 63, Type (0, 1), BuildingBlock: ZUJKAS_clean_linker_0, # of connection points: 2
#     Edge 64, Type (0, 1), BuildingBlock: ZUJKAS_clean_linker_0, # of connection points: 2
#     Edge 65, Type (0, 1), BuildingBlock: ZUJKAS_clean_linker_0, # of connection points: 2
#     Edge 66, Type (0, 1), BuildingBlock: ZUJKAS_clean_linker_0, # of connection points: 2
#     Edge 67, Type (0, 1), BuildingBlock: ZUJKAS_clean_linker_0, # of connection points: 2
#     Edge 68, Type (0, 1), BuildingBlock: ZUJKAS_clean_linker_0, # of connection points: 2
#     Edge 69, Type (0, 1), BuildingBlock: ZUJKAS_clean_linker_0, # of connection points: 2
#     Edge 70, Type (0, 1), BuildingBlock: ZUJKAS_clean_linker_0, # of connection points: 2
#     Edge 71, Type (0, 1), BuildingBlock: ZUJKAS_clean_linker_0, # of connection points: 2
#     Edge 72, Type (0, 1), BuildingBlock: ZUJKAS_clean_linker_0, # of connection points: 2
#     Edge 73, Type (0, 1), BuildingBlock: ZUJKAS_clean_linker_0, # of connection points: 2
#     Edge 74, Type (0, 1), BuildingBlock: ZUJKAS_clean_linker_0, # of connection points: 2
#     Edge 75, Type (0, 1), BuildingBlock: ZUJKAS_clean_linker_0, # of connection points: 2
#     Edge 76, Type (0, 1), BuildingBlock: ZUJKAS_clean_linker_0, # of connection points: 2
#     Edge 77, Type (0, 1), BuildingBlock: ZUJKAS_clean_linker_0, # of connection points: 2
#     Edge 78, Type (0, 1), BuildingBlock: ZUJKAS_clean_linker_0, # of connection points: 2
#     Edge 79, Type (0, 1), BuildingBlock: ZUJKAS_clean_linker_0, # of connection points: 2
#     Edge 80, Type (0, 1), BuildingBlock: ZUJKAS_clean_linker_0, # of connection points: 2
#     Edge 81, Type (0, 1), BuildingBlock: ZUJKAS_clean_linker_0, # of connection points: 2
#     Edge 82, Type (0, 1), BuildingBlock: ZUJKAS_clean_linker_0, # of connection points: 2
#     Edge 83, Type (0, 1), BuildingBlock: ZUJKAS_clean_linker_0, # of connection points: 2
#     Edge 84, Type (0, 1), BuildingBlock: ZUJKAS_clean_linker_0, # of connection points: 2
#     Edge 85, Type (0, 1), BuildingBlock: ZUJKAS_clean_linker_0, # of connection points: 2
#     Edge 86, Type (0, 1), BuildingBlock: ZUJKAS_clean_linker_0, # of connection points: 2
#     Edge 87, Type (0, 1), BuildingBlock: ZUJKAS_clean_linker_0, # of connection points: 2
#     Edge 88, Type (0, 1), BuildingBlock: ZUJKAS_clean_linker_0, # of connection points: 2
#     Edge 89, Type (0, 1), BuildingBlock: ZUJKAS_clean_linker_0, # of connection points: 2
#     Edge 90, Type (0, 1), BuildingBlock: ZUJKAS_clean_linker_0, # of connection points: 2
#     Edge 91, Type (0, 1), BuildingBlock: ZUJKAS_clean_linker_0, # of connection points: 2
#     Edge 92, Type (0, 1), BuildingBlock: ZUJKAS_clean_linker_0, # of connection points: 2
#     Edge 93, Type (0, 1), BuildingBlock: ZUJKAS_clean_linker_0, # of connection points: 2
#     Edge 94, Type (0, 1), BuildingBlock: ZUJKAS_clean_linker_0, # of connection points: 2
#     Edge 95, Type (0, 1), BuildingBlock: ZUJKAS_clean_linker_0, # of connection points: 2
#     Edge 96, Type (0, 1), BuildingBlock: ZUJKAS_clean_linker_0, # of connection points: 2
#     Edge 97, Type (0, 1), BuildingBlock: ZUJKAS_clean_linker_0, # of connection points: 2
#     Edge 98, Type (0, 1), BuildingBlock: ZUJKAS_clean_linker_0, # of connection points: 2
#     Edge 99, Type (0, 1), BuildingBlock: ZUJKAS_clean_linker_0, # of connection points: 2
#     Edge 100, Type (0, 1), BuildingBlock: ZUJKAS_clean_linker_0, # of connection points: 2
#     Edge 101, Type (0, 1), BuildingBlock: ZUJKAS_clean_linker_0, # of connection points: 2
#     Edge 102, Type (0, 1), BuildingBlock: ZUJKAS_clean_linker_0, # of connection points: 2
#     Edge 103, Type (0, 1), BuildingBlock: ZUJKAS_clean_linker_0, # of connection points: 2
#     Edge 104, Type (0, 1), BuildingBlock: ZUJKAS_clean_linker_0, # of connection points: 2
#     Edge 105, Type (0, 1), BuildingBlock: ZUJKAS_clean_linker_0, # of connection points: 2
#     Edge 106, Type (0, 1), BuildingBlock: ZUJKAS_clean_linker_0, # of connection points: 2
#     Edge 107, Type (0, 1), BuildingBlock: ZUJKAS_clean_linker_0, # of connection points: 2
#     Edge 108, Type (0, 1), BuildingBlock: ZUJKAS_clean_linker_0, # of connection points: 2
#     Edge 109, Type (0, 1), BuildingBlock: ZUJKAS_clean_linker_0, # of connection points: 2
#     Edge 110, Type (0, 1), BuildingBlock: ZUJKAS_clean_linker_0, # of connection points: 2
#     Edge 111, Type (0, 1), BuildingBlock: ZUJKAS_clean_linker_0, # of connection points: 2
#     Edge 112, Type (0, 1), BuildingBlock: ZUJKAS_clean_linker_0, # of connection points: 2
#     Edge 113, Type (0, 1), BuildingBlock: ZUJKAS_clean_linker_0, # of connection points: 2
#     Edge 114, Type (0, 1), BuildingBlock: ZUJKAS_clean_linker_0, # of connection points: 2
#     Edge 115, Type (0, 1), BuildingBlock: ZUJKAS_clean_linker_0, # of connection points: 2
#     Edge 116, Type (0, 1), BuildingBlock: ZUJKAS_clean_linker_0, # of connection points: 2
#     Edge 117, Type (0, 1), BuildingBlock: ZUJKAS_clean_linker_0, # of connection points: 2
#     Edge 118, Type (0, 1), BuildingBlock: ZUJKAS_clean_linker_0, # of connection points: 2
#     Edge 119, Type (0, 1), BuildingBlock: ZUJKAS_clean_linker_0, # of connection points: 2
#     Edge 120, Type (0, 1), BuildingBlock: ZUJKAS_clean_linker_0, # of connection points: 2
#     Edge 121, Type (0, 1), BuildingBlock: ZUJKAS_clean_linker_0, # of connection points: 2
#     Edge 122, Type (0, 1), BuildingBlock: ZUJKAS_clean_linker_0, # of connection points: 2
#     Edge 123, Type (0, 1), BuildingBlock: ZUJKAS_clean_linker_0, # of connection points: 2
#     Edge 124, Type (0, 1), BuildingBlock: ZUJKAS_clean_linker_0, # of connection points: 2
#     Edge 125, Type (0, 1), BuildingBlock: ZUJKAS_clean_linker_0, # of connection points: 2
#     Edge 126, Type (0, 1), BuildingBlock: ZUJKAS_clean_linker_0, # of connection points: 2
#     Edge 127, Type (0, 1), BuildingBlock: ZUJKAS_clean_linker_0, # of connection points: 2
#     Edge 128, Type (0, 1), BuildingBlock: ZUJKAS_clean_linker_0, # of connection points: 2
#     Edge 129, Type (0, 1), BuildingBlock: ZUJKAS_clean_linker_0, # of connection points: 2
#     Edge 130, Type (0, 1), BuildingBlock: ZUJKAS_clean_linker_0, # of connection points: 2
#     Edge 131, Type (0, 1), BuildingBlock: ZUJKAS_clean_linker_0, # of connection points: 2
#     Edge 132, Type (0, 1), BuildingBlock: ZUJKAS_clean_linker_0, # of connection points: 2
#     Edge 133, Type (0, 1), BuildingBlock: ZUJKAS_clean_linker_0, # of connection points: 2
#     Edge 134, Type (0, 1), BuildingBlock: ZUJKAS_clean_linker_0, # of connection points: 2
#     Edge 135, Type (0, 1), BuildingBlock: ZUJKAS_clean_linker_0, # of connection points: 2
# Relax obj value: 0.311
# Max RMSD: 0.292
# Mean RMSD: 0.264
data_MOF--net-ibd--node1-TATPOV_clean_sbu_0--node2-IZENUY_clean_sbu_0--edge1-ZUJKAS_clean_linker_0
_symmetry_space_group_name_H-M    P1
_symmetry_Int_Tables_number       1
_symmetry_cell_setting            triclinic
loop_
_symmetry_equiv_pos_as_xyz
'x, y, z'
_cell_length_a     64.273276
_cell_length_b     64.352706
_cell_length_c     64.157579
_cell_angle_alpha  91.849704
_cell_angle_beta   91.582032
_cell_angle_gamma 91.805045
loop_
_atom_site_label
_atom_site_type_symbol
_atom_site_fract_x
_atom_site_fract_y
_atom_site_fract_z
_atom_type_partial_charge
Zn0 Zn 0.93996 0.24169 0.37662 0.0
Zn1 Zn 0.96845 0.21873 0.35771 0.0
O2 O 0.95421 0.19695 0.37611 0.0
O3 O 0.93041 0.21588 0.39106 0.0
O4 O -0.01146 0.20288 0.33979 0.0
O5 O 0.92587 0.2493 0.35007 0.0
O6 O 0.95002 0.23146 0.33462 0.0
C7 C 0.93911 0.19863 0.3885 0.0
C8 C -0.01774 0.25545 0.38687 0.0
O9 O -0.01317 0.23955 0.37574 0.0
O10 O 0.96344 0.26015 0.38903 0.0
C11 C 0.00156 0.21333 0.32941 0.0
O12 O 0.00238 0.23369 0.33192 0.0
C13 C 0.93407 0.24273 0.33354 0.0
Zn14 Zn 0.93973 0.74896 0.58149 0.0
Zn15 Zn 0.97254 0.7367 0.60454 0.0
O16 O -0.01318 0.75766 0.58572 0.0
O17 O 0.96018 0.76679 0.56606 0.0
O18 O -0.00515 0.72731 0.62452 0.0
O19 O 0.92555 0.7607 0.60627 0.0
O20 O 0.95189 0.7494 0.62486 0.0
C21 C -0.02055 0.76817 0.57087 0.0
C22 C 0.94661 0.70513 0.5774 0.0
O23 O 0.96272 0.70968 0.58882 0.0
O24 O 0.93395 0.71904 0.57273 0.0
C25 C -0.01105 0.71337 0.63687 0.0
O26 O 0.96966 0.70597 0.63512 0.0
C27 C 0.93449 0.7583 0.62378 0.0
Zn28 Zn 0.43107 0.73788 0.88093 0.0
Zn29 Zn 0.46126 0.71959 0.85963 0.0
O30 O 0.44941 0.69504 0.87658 0.0
O31 O 0.42369 0.71016 0.89261 0.0
O32 O 0.48246 0.70802 0.83974 0.0
O33 O 0.41587 0.74716 0.85552 0.0
O34 O 0.44139 0.73317 0.83838 0.0
C35 C 0.43414 0.69417 0.8889 0.0
C36 C 0.47258 0.75423 0.892 0.0
O37 O 0.47818 0.74049 0.87873 0.0
O38 O 0.45342 0.75647 0.89536 0.0
C39 C 0.48823 0.68937 0.83753 0.0
O40 O 0.48083 0.67514 0.84982 0.0
C41 C 0.42454 0.74312 0.83849 0.0
Zn42 Zn 0.44639 0.25012 0.08714 0.0
Zn43 Zn 0.47984 0.23663 0.10893 0.0
O44 O 0.49315 0.25928 0.0914 0.0
O45 O 0.46612 0.27028 0.07351 0.0
O46 O 0.50298 0.22776 0.1284 0.0
O47 O 0.43178 0.25864 0.11298 0.0
O48 O 0.45873 0.24677 0.1302 0.0
C49 C 0.48548 0.2712 0.07789 0.0
C50 C 0.45507 0.20689 0.07886 0.0
O51 O 0.47078 0.21068 0.09106 0.0
O52 O 0.44215 0.22089 0.07531 0.0
C53 C 0.5089 0.20919 0.13006 0.0
O54 O 0.50067 0.19447 0.11748 0.0
C55 C 0.44095 0.25499 0.13009 0.0
Zn56 Zn 0.96775 0.76909 0.13275 0.0
Zn57 Zn -0.01758 0.73543 0.11205 0.0
O58 O 0.95951 0.72226 0.12948 0.0
O59 O 0.94776 0.7495 0.14662 0.0
O60 O -0.00781 0.71195 0.09337 0.0
O61 O 0.95929 0.7826 0.10647 0.0
O62 O 0.97223 0.75559 0.09009 0.0
C63 C 0.94718 0.73008 0.14261 0.0
C64 C 0.01115 0.76186 0.14169 0.0
O65 O 0.00793 0.74563 0.13002 0.0
O66 O -0.0033 0.77446 0.14469 0.0
C67 C 0.01125 0.70912 0.08961 0.0
O68 O 0.02567 0.72097 0.09936 0.0
C69 C 0.96352 0.77309 0.08965 0.0
Zn70 Zn 0.47057 0.7814 0.34144 0.0
Zn71 Zn 0.49056 0.7518 0.36197 0.0
O72 O 0.51436 0.76445 0.34473 0.0
O73 O 0.49799 0.78938 0.32888 0.0
O74 O 0.50323 0.73111 0.38152 0.0
O75 O 0.46121 0.7961 0.36718 0.0
O76 O 0.47647 0.77102 0.38361 0.0
C77 C 0.51444 0.77953 0.33229 0.0
C78 C 0.45552 0.73946 0.33059 0.0
O79 O 0.47024 0.73423 0.34285 0.0
O80 O 0.45205 0.75847 0.32791 0.0
C81 C 0.52197 0.72537 0.38279 0.0
O82 O 0.53553 0.73245 0.36959 0.0
C83 C 0.46579 0.7874 0.384 0.0
Zn84 Zn 0.4358 0.25444 0.62959 0.0
Zn85 Zn 0.46051 0.22857 0.60986 0.0
O86 O 0.43865 0.20974 0.62366 0.0
O87 O 0.41516 0.23135 0.63477 0.0
O88 O 0.47583 0.20868 0.59126 0.0
O89 O 0.43198 0.27237 0.60518 0.0
O90 O 0.45056 0.24946 0.58841 0.0
C91 C 0.42123 0.21299 0.63203 0.0
C92 C 0.47825 0.2536 0.64689 0.0
O93 O 0.48167 0.24147 0.63137 0.0
O94 O 0.46015 0.26026 0.64969 0.0
C95 C 0.49546 0.20837 0.58938 0.0
O96 O 0.50752 0.22103 0.60118 0.0
C97 C 0.44014 0.26599 0.58856 0.0
Zn98 Zn -0.02035 0.28227 0.83662 0.0
Zn99 Zn -0.00384 0.25139 0.85784 0.0
O100 O 0.02138 0.26271 0.84148 0.0
O101 O 0.00811 0.29006 0.82686 0.0
O102 O 0.007 0.22962 0.87735 0.0
O103 O 0.96857 0.29649 0.86184 0.0
O104 O -0.017 0.27155 0.87923 0.0
C105 C 0.02344 0.27864 0.83026 0.0
C106 C 0.9626 0.2415 0.82398 0.0
O107 O 0.97489 0.23531 0.83827 0.0
O108 O 0.96189 0.26069 0.82028 0.0
C109 C 0.02567 0.22385 0.8795 0.0
O110 O 0.04003 0.2316 0.86753 0.0
C111 C 0.97264 0.28813 0.87897 0.0
Zn112 Zn 0.37469 0.95195 0.25566 0.0
Zn113 Zn 0.35556 0.9739 0.22789 0.0
O114 O 0.37645 0.9589 0.2088 0.0
O115 O 0.39425 0.94342 0.23333 0.0
O116 O 0.33709 -0.0089 0.20929 0.0
O117 O 0.35008 0.934 0.26182 0.0
O118 O 0.33321 0.95468 0.24116 0.0
C119 C 0.39166 0.94782 0.21435 0.0
C120 C 0.37968 -0.00527 0.26564 0.0
O121 O 0.37103 -0.0041 0.2476 0.0
O122 O 0.38165 0.97726 0.2738 0.0
C123 C 0.32567 0.0041 0.21855 0.0
O124 O 0.32728 0.00619 0.23898 0.0
C125 C 0.33317 0.93959 0.2536 0.0
Zn126 Zn 0.26371 0.09082 0.45515 0.0
Zn127 Zn 0.24168 0.11002 0.48515 0.0
O128 O 0.26199 0.09284 0.50225 0.0
O129 O 0.28151 0.07904 0.47801 0.0
O130 O 0.22678 0.12754 0.50626 0.0
O131 O 0.27244 0.1175 0.44263 0.0
O132 O 0.25431 0.13274 0.467 0.0
C133 C 0.27718 0.08173 0.49702 0.0
C134 C 0.21947 0.07933 0.45465 0.0
O135 O 0.21886 0.09167 0.47053 0.0
O136 O 0.23644 0.07659 0.4455 0.0
C137 C 0.23734 0.14193 0.51612 0.0
O138 O 0.25747 0.14362 0.5132 0.0
C139 C 0.26576 0.13386 0.45116 0.0
Zn140 Zn 0.12767 0.97521 0.77316 0.0
Zn141 Zn 0.10441 -0.0087 0.74211 0.0
O142 O 0.12266 0.97184 0.72514 0.0
O143 O 0.14098 0.95808 0.75048 0.0
O144 O 0.0834 0.00291 0.72211 0.0
O145 O 0.10311 0.96388 0.78777 0.0
O146 O 0.08465 0.97648 0.76195 0.0
C147 C 0.13647 0.95941 0.73122 0.0
C148 C 0.13285 0.01966 0.77006 0.0
O149 O 0.1206 0.01726 0.75418 0.0
O150 O 0.13787 0.0043 0.78072 0.0
C151 C 0.08337 0.00336 0.70232 0.0
O152 O 0.09909 -0.00415 0.69217 0.0
C153 C 0.08569 0.96674 0.77891 0.0
Zn154 Zn 0.27348 0.839 0.97357 0.0
Zn155 Zn 0.24601 0.85909 -0.00305 0.0
O156 O 0.25949 0.84003 0.01863 0.0
O157 O 0.28176 0.82353 -0.00098 0.0
O158 O 0.22735 0.87834 0.01315 0.0
O159 O 0.28971 0.86463 0.96687 0.0
O160 O 0.26546 0.88107 -0.01626 0.0
C161 C 0.27361 0.82665 0.01655 0.0
C162 C 0.2307 0.83126 0.95986 0.0
O163 O 0.22675 0.84205 0.9762 0.0
O164 O 0.24934 0.82854 0.95476 0.0
C165 C 0.20753 0.8778 0.01287 0.0
O166 O 0.19729 0.86266 0.00242 0.0
C167 C 0.28189 0.88142 0.97303 0.0
Zn168 Zn 0.24699 0.37857 0.94589 0.0
Zn169 Zn 0.22026 0.35912 0.96941 0.0
O170 O 0.20047 0.37913 0.95407 0.0
O171 O 0.22382 0.39615 0.93611 0.0
O172 O 0.20237 0.34053 -0.01271 0.0
O173 O 0.25459 0.35332 0.92954 0.0
O174 O 0.23424 0.33677 0.95091 0.0
C175 C 0.20517 0.39351 0.94157 0.0
C176 C 0.2571 0.38539 -0.01103 0.0
O177 O 0.23995 0.37519 -0.00913 0.0
O178 O 0.26426 0.38809 0.97105 0.0
C179 C 0.21234 0.32904 -0.00037 0.0
O180 O 0.23277 0.33081 0.00056 0.0
C181 C 0.2469 0.33647 0.93593 0.0
Zn182 Zn 0.75757 0.1273 0.95905 0.0
Zn183 Zn 0.72498 0.10754 0.97553 0.0
O184 O 0.71066 0.12497 0.95325 0.0
O185 O 0.73744 0.14216 0.94065 0.0
O186 O 0.70204 0.08923 -0.0131 0.0
O187 O 0.77043 0.10125 0.94919 0.0
O188 O 0.74482 0.08518 0.96484 0.0
C189 C 0.71799 0.13836 0.94093 0.0
C190 C 0.75327 0.13657 0.00283 0.0
O191 O 0.73632 0.12588 0.00048 0.0
O192 O 0.76537 0.13868 -0.01223 0.0
C193 C 0.70249 0.08391 0.00583 0.0
O194 O 0.71733 0.09168 0.01854 0.0
C195 C 0.76163 0.08459 0.95476 0.0
Zn196 Zn 0.08358 0.45682 0.26372 0.0
Zn197 Zn 0.10455 0.48381 0.24028 0.0
O198 O 0.09004 0.50332 0.26103 0.0
O199 O 0.07524 0.48095 0.28177 0.0
O200 O 0.12433 0.5019 0.22442 0.0
O201 O 0.10864 0.44097 0.27131 0.0
O202 O 0.12542 0.46383 0.25272 0.0
C203 C 0.07932 0.49954 0.27698 0.0
C204 C 0.07024 0.45611 0.22001 0.0
O205 O 0.08448 0.4701 0.21814 0.0
O206 O 0.06695 0.44852 0.23764 0.0
C207 C 0.12423 0.52137 0.2217 0.0
O208 O 0.10898 0.53231 0.22906 0.0
C209 C 0.12544 0.44793 0.26404 0.0
Zn210 Zn 0.73598 0.88058 0.43872 0.0
Zn211 Zn 0.71548 0.85927 0.46718 0.0
O212 O 0.69228 0.87724 0.45444 0.0
O213 O 0.70912 0.89297 0.42962 0.0
O214 O 0.70096 0.83898 0.48613 0.0
O215 O 0.74626 0.85558 0.42367 0.0
O216 O 0.72974 0.83818 0.44744 0.0
C217 C 0.6925 0.88965 0.43929 0.0
C218 C 0.75015 0.89043 0.4813 0.0
O219 O 0.7359 0.87729 0.48601 0.0
O220 O 0.7533 0.89418 0.46236 0.0
C221 C 0.70078 0.83978 0.50598 0.0
O222 O 0.70961 0.85589 0.51622 0.0
C223 C 0.74107 0.83844 0.43142 0.0
Zn224 Zn 0.83597 0.9765 0.27547 0.0
Zn225 Zn 0.85618 -0.00168 0.24717 0.0
O226 O 0.83758 0.02063 0.26071 0.0
O227 O 0.8226 0.00269 0.28522 0.0
O228 O 0.87586 0.01386 0.22833 0.0
O229 O 0.86158 0.96715 0.29006 0.0
O230 O 0.87806 -0.01522 0.26644 0.0
C231 C 0.8253 0.01962 0.27599 0.0
C232 C 0.82616 0.9627 0.23275 0.0
O233 O 0.83864 0.97756 0.22814 0.0
O234 O 0.82284 0.95903 0.25168 0.0
C235 C 0.87514 0.01437 0.20851 0.0
O236 O 0.8594 0.00515 0.19806 0.0
C237 C 0.87844 0.97327 0.28226 0.0
Zn238 Zn 0.25817 0.63634 0.46515 0.0
Zn239 Zn 0.2286 0.61076 0.48015 0.0
O240 O 0.21119 0.62726 0.45956 0.0
O241 O 0.23558 0.64752 0.44658 0.0
O242 O 0.20935 0.58837 0.4906 0.0
O243 O 0.27541 0.61329 0.45464 0.0
O244 O 0.25106 0.59274 0.46702 0.0
C245 C 0.21668 0.64139 0.44717 0.0
C246 C 0.25193 0.64217 0.50941 0.0
O247 O 0.23751 0.62828 0.5064 0.0
O248 O 0.26308 0.64778 0.49449 0.0
C249 C 0.19254 0.5906 0.50027 0.0
O250 O 0.18582 0.60939 0.50403 0.0
C251 C 0.26821 0.59519 0.45775 0.0
Zn252 Zn 0.33544 0.48296 0.77992 0.0
Zn253 Zn 0.35574 0.50039 0.74859 0.0
O254 O 0.33834 0.52487 0.75994 0.0
O255 O 0.32355 0.51063 0.78686 0.0
O256 O 0.37465 0.51173 0.72644 0.0
O257 O 0.36137 0.47454 0.79479 0.0
O258 O 0.37774 0.488 0.76848 0.0
C259 C 0.32653 0.52617 0.77559 0.0
C260 C 0.3238 0.465 0.73905 0.0
O261 O 0.33696 0.47846 0.73274 0.0
O262 O 0.32062 0.46364 0.75838 0.0
C263 C 0.37943 0.53078 0.72379 0.0
O264 O 0.37069 0.54516 0.73526 0.0
C265 C 0.37812 0.47861 0.78568 0.0
Zn266 Zn 0.58185 0.94808 0.75416 0.0
Zn267 Zn 0.60438 0.97719 0.73449 0.0
O268 O 0.58717 -0.00445 0.75378 0.0
O269 O 0.56897 0.9717 0.76999 0.0
O270 O 0.62498 -0.00371 0.72087 0.0
O271 O 0.60663 0.93469 0.7662 0.0
O272 O 0.62469 0.95807 0.74939 0.0
C273 C 0.57372 -0.00936 0.76715 0.0
C274 C 0.5748 0.94759 0.70945 0.0
O275 O 0.58693 0.96364 0.71008 0.0
O276 O 0.57076 0.9381 0.7259 0.0
C277 C 0.6246 0.01586 0.71882 0.0
O278 O 0.60866 0.02616 0.72556 0.0
C279 C 0.62397 0.94245 0.7611 0.0
Zn280 Zn 0.76971 0.58474 0.96396 0.0
Zn281 Zn 0.74634 0.6051 -0.0089 0.0
O282 O 0.7692 0.59227 0.00935 0.0
O283 O 0.7905 0.57885 -0.01334 0.0
O284 O 0.73154 0.62376 0.01135 0.0
O285 O 0.77363 0.60939 0.94623 0.0
O286 O 0.75564 0.62624 0.96962 0.0
C287 C 0.78588 0.58286 0.00537 0.0
C288 C 0.72732 0.56793 0.96675 0.0
O289 O 0.72472 0.58323 0.9794 0.0
O290 O 0.74491 0.56525 0.95879 0.0
C291 C 0.71254 0.62836 0.00907 0.0
O292 O 0.7013 0.61957 -0.0064 0.0
C293 C 0.76574 0.62601 0.95281 0.0
Zn294 Zn 0.87302 0.44233 0.74826 0.0
Zn295 Zn 0.8538 0.46896 0.72363 0.0
O296 O 0.87284 0.45419 0.70259 0.0
O297 O 0.88835 0.43222 0.72313 0.0
O298 O 0.83578 0.48818 0.70687 0.0
O299 O 0.84677 0.42772 0.75602 0.0
O300 O 0.83091 0.45057 0.73698 0.0
C301 C 0.88576 0.43977 0.70529 0.0
C302 C 0.8819 0.48513 0.76041 0.0
O303 O 0.87111 0.48858 0.74398 0.0
O304 O 0.88436 0.46671 0.76613 0.0
C305 C 0.8253 0.50133 0.71707 0.0
O306 O 0.82764 0.50254 0.73749 0.0
C307 C 0.83012 0.43511 0.74894 0.0
Zn308 Zn 0.77499 0.34242 0.47499 0.0
Zn309 Zn 0.74704 0.36274 0.49727 0.0
O310 O 0.76063 0.34438 0.51955 0.0
O311 O 0.78415 0.32837 0.5011 0.0
O312 O 0.72735 0.38138 0.51291 0.0
O313 O 0.78985 0.36815 0.46638 0.0
O314 O 0.76599 0.38492 0.48344 0.0
C315 C 0.77533 0.33154 0.51827 0.0
C316 C 0.73252 0.33308 0.46127 0.0
O317 O 0.72817 0.34478 0.47686 0.0
O318 O 0.75128 0.33017 0.45676 0.0
C319 C 0.71418 0.39143 0.50239 0.0
O320 O 0.71308 0.38845 0.48203 0.0
C321 C 0.782 0.38509 0.47208 0.0
Zn322 Zn 0.63478 0.46774 0.26731 0.0
Zn323 Zn 0.61295 0.48346 0.23516 0.0
O324 O 0.63024 0.46164 0.21997 0.0
O325 O 0.64791 0.44878 0.24624 0.0
O326 O 0.59331 0.49456 0.2134 0.0
O327 O 0.60935 0.45825 0.28172 0.0
O328 O 0.592 0.47183 0.25573 0.0
C329 C 0.64349 0.44903 0.22689 0.0
C330 C 0.64252 0.51171 0.26193 0.0
O331 O 0.63039 0.50906 0.24597 0.0
O332 O 0.64638 0.49666 0.27352 0.0
C333 C 0.58187 0.50912 0.21972 0.0
O334 O 0.58457 0.51648 0.23898 0.0
C335 C 0.59224 0.46251 0.27295 0.0
Fe336 Fe 0.10456 0.08846 0.12516 0.0
Fe337 Fe 0.08659 0.12685 0.10465 0.0
O338 O 0.10551 0.10733 0.10556 0.0
Fe339 Fe 0.1254 0.1067 0.08687 0.0
O340 O 0.11738 0.08064 0.07763 0.0
O341 O 0.11451 0.06733 0.1086 0.0
O342 O 0.07849 0.07947 0.1169 0.0
C343 C 0.06291 0.0909 0.11614 0.0
C344 C 0.14669 0.09543 0.1243 0.0
O345 O 0.06529 0.11039 0.11441 0.0
C346 C 0.12401 0.14869 0.09401 0.0
O347 O 0.09442 0.10612 0.14531 0.0
O348 O 0.09378 0.13658 0.1308 0.0
O349 O 0.14534 0.09655 0.10463 0.0
O350 O 0.13056 0.09585 0.13506 0.0
C351 C 0.08971 0.11833 0.06293 0.0
O352 O 0.10435 0.147 0.09476 0.0
O353 O 0.13498 0.13276 0.09458 0.0
C354 C 0.09346 0.12575 0.14685 0.0
O355 O 0.07794 0.1187 0.07836 0.0
O356 O 0.1092 0.11672 0.0656 0.0
C357 C 0.11634 0.06504 0.08904 0.0
Fe358 Fe 0.08335 0.83949 0.36362 0.0
Fe359 Fe 0.10598 0.87518 0.34233 0.0
O360 O 0.10468 0.8574 0.36268 0.0
Fe361 Fe 0.12475 0.85745 0.38207 0.0
O362 O 0.13087 0.83082 0.37521 0.0
O363 O 0.09843 0.81898 0.37553 0.0
O364 O 0.08972 0.82786 0.3387 0.0
C365 C 0.09196 0.83763 0.32218 0.0
C366 C 0.08809 0.85058 0.40476 0.0
O367 O 0.0932 0.85733 0.32263 0.0
C368 C 0.11964 0.89905 0.37812 0.0
O369 O 0.06432 0.8567 0.35166 0.0
O370 O 0.08172 0.88638 0.34953 0.0
O371 O 0.10758 0.84918 0.40288 0.0
O372 O 0.07606 0.85 0.38885 0.0
C373 C 0.14662 0.86498 0.34504 0.0
O374 O 0.11906 0.89612 0.35848 0.0
O375 O 0.11954 0.88392 0.3901 0.0
C376 C 0.06468 0.87631 0.35023 0.0
O377 O 0.1303 0.86515 0.3338 0.0
O378 O 0.14564 0.86592 0.36476 0.0
C379 C 0.11778 0.81579 0.3755 0.0
Fe380 Fe 0.34748 0.87865 0.63114 0.0
Fe381 Fe 0.32623 0.85919 0.59137 0.0
O382 O 0.34529 0.85845 0.61176 0.0
Fe383 Fe 0.3622 0.83739 0.61285 0.0
O384 O 0.35288 0.83031 0.63804 0.0
O385 O 0.35618 0.86179 0.65218 0.0
O386 O 0.32101 0.87366 0.63911 0.0
C387 C 0.30523 0.87398 0.62696 0.0
C388 C 0.38839 0.87223 0.62387 0.0
O389 O 0.30704 0.87231 0.60736 0.0
C390 C 0.3618 0.84419 0.5712 0.0
O391 O 0.33938 0.89911 0.6137 0.0
O392 O 0.3368 0.88369 0.58257 0.0
O393 O 0.38435 0.85286 0.62441 0.0
O394 O 0.37394 0.88499 0.62414 0.0
C395 C 0.32356 0.81814 0.60087 0.0
O396 O 0.34222 0.84616 0.57164 0.0
O397 O 0.37249 0.84324 0.58784 0.0
C398 C 0.33915 0.89996 0.594 0.0
O399 O 0.3142 0.83491 0.59906 0.0
O400 O 0.34325 0.81807 0.60139 0.0
C401 C 0.35407 0.84227 0.65396 0.0
Fe402 Fe 0.38031 0.12914 0.85805 0.0
Fe403 Fe 0.3597 0.08837 0.84046 0.0
O404 O 0.36165 0.1085 0.85992 0.0
Fe405 Fe 0.34493 0.10794 0.8813 0.0
O406 O 0.33429 0.1325 0.87469 0.0
O407 O 0.36429 0.14892 0.87071 0.0
O408 O 0.36913 0.13671 0.83326 0.0
C409 C 0.36662 0.12452 0.81752 0.0
C410 C 0.38371 0.12102 0.89954 0.0
O411 O 0.36735 0.10503 0.81922 0.0
C412 C 0.3535 0.06697 0.87782 0.0
O413 O 0.39955 0.11313 0.84515 0.0
O414 O 0.38637 0.08118 0.84562 0.0
O415 O 0.36403 0.12022 0.89999 0.0
O416 O 0.39281 0.12261 0.8825 0.0
C417 C 0.31872 0.09555 0.84693 0.0
O418 O 0.35138 0.06799 0.8582 0.0
O419 O 0.35453 0.08324 0.88925 0.0
C420 C 0.40187 0.09365 0.84463 0.0
O421 O 0.33311 0.09461 0.83403 0.0
O422 O 0.32277 0.0957 0.86637 0.0
C423 C 0.34476 0.14916 0.87301 0.0
Fe424 Fe 0.58032 0.33752 0.86277 0.0
Fe425 Fe 0.60124 0.37547 0.84352 0.0
O426 O 0.60146 0.35579 0.86207 0.0
Fe427 Fe 0.62271 0.35425 0.88003 0.0
O428 O 0.62834 0.3283 0.87031 0.0
O429 O 0.59614 0.3162 0.872 0.0
O430 O 0.585 0.32812 0.83655 0.0
C431 C 0.58595 0.33941 0.82089 0.0
C432 C 0.58753 0.34546 0.90428 0.0
O433 O 0.58784 0.35905 0.823 0.0
C434 C 0.61707 0.39619 0.88048 0.0
O435 O 0.56047 0.35529 0.85341 0.0
O436 O 0.57723 0.38544 0.85313 0.0
O437 O 0.60684 0.34414 0.90109 0.0
O438 O 0.57458 0.34595 0.88916 0.0
C439 C 0.64217 0.36569 0.84268 0.0
O440 O 0.61464 0.39519 0.8608 0.0
O441 O 0.61835 0.37996 0.89085 0.0
C442 C 0.56045 0.37495 0.85369 0.0
O443 O 0.62524 0.36702 0.83259 0.0
O444 O 0.64242 0.36433 0.86233 0.0
C445 C 0.61541 0.31313 0.87042 0.0
Fe446 Fe 0.83641 0.36216 0.08717 0.0
Fe447 Fe 0.85494 0.37672 0.12988 0.0
O448 O 0.85515 0.35975 0.10762 0.0
Fe449 Fe 0.87401 0.34044 0.10576 0.0
O450 O 0.88369 0.3507 0.08196 0.0
O451 O 0.8533 0.35323 0.06616 0.0
O452 O 0.84559 0.38853 0.08257 0.0
C453 C 0.84616 0.40295 0.09644 0.0
C454 C 0.83676 0.31999 0.09076 0.0
O455 O 0.84521 0.39881 0.11557 0.0
C456 C 0.86545 0.33817 0.14699 0.0
O457 O 0.81599 0.37132 0.10426 0.0
O458 O 0.8288 0.36779 0.13599 0.0
O459 O 0.85649 0.3213 0.09181 0.0
O460 O 0.82612 0.33611 0.09087 0.0
C461 C 0.89655 0.37586 0.12212 0.0
O462 O 0.86493 0.35782 0.14822 0.0
O463 O 0.86581 0.32876 0.12953 0.0
C464 C 0.81335 0.36897 0.12354 0.0
O465 O 0.88085 0.38674 0.12495 0.0
O466 O 0.89474 0.35631 0.11926 0.0
C467 C 0.87294 0.35262 0.06553 0.0
Fe468 Fe 0.8411 0.61206 0.37522 0.0
Fe469 Fe 0.87901 0.63304 0.35589 0.0
O470 O 0.86037 0.61227 0.35612 0.0
Fe471 Fe 0.86108 0.59177 0.33719 0.0
O472 O 0.83546 0.59764 0.3273 0.0
O473 O 0.8208 0.5996 0.35783 0.0
O474 O 0.83137 0.63655 0.36702 0.0
C475 C 0.84209 0.6532 0.36671 0.0
C476 C 0.85007 0.57101 0.37388 0.0
O477 O 0.86178 0.65286 0.36655 0.0
C478 C 0.90245 0.59777 0.34614 0.0
O479 O 0.85818 0.62448 0.39583 0.0
O480 O 0.88882 0.62678 0.38148 0.0
O481 O 0.85069 0.57153 0.35418 0.0
O482 O 0.84945 0.58756 0.38476 0.0
C483 C 0.87018 0.62764 0.31435 0.0
O484 O 0.89972 0.61714 0.34541 0.0
O485 O 0.88705 0.58507 0.34594 0.0
C486 C 0.87791 0.62503 0.39738 0.0
O487 O 0.87023 0.64006 0.33001 0.0
O488 O 0.8713 0.60822 0.31672 0.0
C489 C 0.81945 0.59906 0.33806 0.0
Fe490 Fe 0.87438 0.83601 0.85727 0.0
Fe491 Fe 0.83763 0.85506 0.87945 0.0
O492 O 0.85598 0.8557 0.85952 0.0
Fe493 Fe 0.856 0.87603 0.84174 0.0
O494 O 0.88216 0.88427 0.84996 0.0
O495 O 0.89487 0.85307 0.84698 0.0
O496 O 0.88522 0.84254 0.88294 0.0
C497 C 0.87488 0.84258 0.89933 0.0
C498 C 0.86396 0.84054 0.81646 0.0
O499 O 0.85518 0.84322 0.89847 0.0
C500 C 0.81443 0.86792 0.84427 0.0
O501 O 0.85727 0.81541 0.8672 0.0
O502 O 0.8271 0.8301 0.86993 0.0
O503 O 0.86517 0.86007 0.81978 0.0
O504 O 0.86452 0.82838 0.83144 0.0
C505 C 0.84712 0.89648 0.8801 0.0
O506 O 0.8169 0.86676 0.86387 0.0
O507 O 0.82988 0.86888 0.83264 0.0
C508 C 0.83761 0.81402 0.86805 0.0
O509 O 0.8469 0.88005 0.89024 0.0
O510 O 0.84671 0.89564 0.86035 0.0
C511 C 0.8975 0.87264 0.84885 0.0
Fe512 Fe 0.85381 0.08573 0.63349 0.0
Fe513 Fe 0.83311 0.1055 0.59554 0.0
O514 O 0.85383 0.1049 0.61425 0.0
Fe515 Fe 0.87461 0.12357 0.61368 0.0
O516 O 0.86923 0.13331 0.63972 0.0
O517 O 0.86694 0.10264 0.65379 0.0
O518 O 0.82928 0.09425 0.64354 0.0
C519 C 0.81266 0.09526 0.63273 0.0
C520 C 0.89495 0.08658 0.62388 0.0
O521 O 0.81311 0.09591 0.61304 0.0
C522 C 0.86889 0.11454 0.57208 0.0
O523 O 0.84067 0.06543 0.61662 0.0
O524 O 0.83813 0.07943 0.58588 0.0
O525 O 0.8945 0.10623 0.62354 0.0
O526 O 0.87833 0.07575 0.62486 0.0
C527 C 0.83916 0.14705 0.60418 0.0
O528 O 0.8494 0.11519 0.5745 0.0
O529 O 0.8813 0.11487 0.58766 0.0
C530 C 0.83823 0.0636 0.59697 0.0
O531 O 0.82662 0.13159 0.60406 0.0
O532 O 0.8586 0.14449 0.60367 0.0
C533 C 0.86904 0.12227 0.65562 0.0
Fe534 Fe 0.6005 0.09753 0.3405 0.0
Fe535 Fe 0.61972 0.11514 0.38189 0.0
O536 O 0.6009 0.11638 0.36128 0.0
Fe537 Fe 0.58256 0.13634 0.36143 0.0
O538 O 0.59119 0.14573 0.33665 0.0
O539 O 0.59117 0.11513 0.32056 0.0
O540 O 0.62673 0.10511 0.33356 0.0
C541 C 0.64237 0.10493 0.34584 0.0
C542 C 0.55883 0.10061 0.3466 0.0
O543 O 0.64009 0.10438 0.36539 0.0
C544 C 0.58342 0.12735 0.40276 0.0
O545 O 0.6097 0.07631 0.35662 0.0
O546 O 0.61012 0.0895 0.38861 0.0
O547 O 0.56144 0.12017 0.34884 0.0
O548 O 0.5742 0.08889 0.346 0.0
C549 C 0.62009 0.15702 0.37622 0.0
O550 O 0.60299 0.12582 0.40211 0.0
O551 O 0.57256 0.12845 0.3862 0.0
C552 C 0.60917 0.07393 0.37614 0.0
O553 O 0.63046 0.14071 0.37665 0.0
O554 O 0.60042 0.15609 0.37403 0.0
C555 C 0.5914 0.13478 0.32002 0.0
Fe556 Fe 0.59177 0.83523 0.10597 0.0
Fe557 Fe 0.6293 0.85569 0.08523 0.0
O558 O 0.61076 0.85569 0.10517 0.0
Fe559 Fe 0.61124 0.87617 0.12432 0.0
O560 O 0.58506 0.88336 0.11706 0.0
O561 O 0.57138 0.8516 0.11667 0.0
O562 O 0.58146 0.84093 0.08034 0.0
C563 C 0.592 0.84108 0.06406 0.0
C564 C 0.60173 0.84038 0.1475 0.0
O565 O 0.61169 0.84299 0.06525 0.0
C566 C 0.65289 0.87047 0.12116 0.0
O567 O 0.60859 0.81516 0.09523 0.0
O568 O 0.63921 0.83097 0.09316 0.0
O569 O 0.60179 0.8599 0.14536 0.0
O570 O 0.60084 0.82812 0.13174 0.0
C571 C 0.62051 0.89689 0.08706 0.0
O572 O 0.65032 0.86842 0.10153 0.0
O573 O 0.63745 0.8704 0.13287 0.0
C574 C 0.62819 0.81446 0.09394 0.0
O575 O 0.62063 0.88037 0.07594 0.0
O576 O 0.62076 0.89621 0.10679 0.0
C577 C 0.56933 0.87113 0.11689 0.0
Fe578 Fe 0.37633 0.62042 0.11297 0.0
Fe579 Fe 0.33481 0.60148 0.09566 0.0
O580 O 0.35525 0.6022 0.1148 0.0
Fe581 Fe 0.35455 0.58476 0.1356 0.0
O582 O 0.37912 0.57383 0.12844 0.0
O583 O 0.3959 0.60362 0.12439 0.0
O584 O 0.38307 0.60976 0.08764 0.0
C585 C 0.37083 0.60867 0.07194 0.0
C586 C 0.37029 0.62263 0.15494 0.0
O587 O 0.35135 0.60956 0.07417 0.0
C588 C 0.31351 0.59439 0.1331 0.0
O589 O 0.36048 0.64072 0.10138 0.0
O590 O 0.3284 0.62803 0.10224 0.0
O591 O 0.36734 0.60307 0.15485 0.0
O592 O 0.37119 0.63225 0.13816 0.0
C593 C 0.33964 0.55995 0.10051 0.0
O594 O 0.31441 0.59329 0.11341 0.0
O595 O 0.3299 0.59431 0.14435 0.0
C596 C 0.34102 0.64338 0.10181 0.0
O597 O 0.33989 0.57479 0.08811 0.0
O598 O 0.3416 0.56337 0.12005 0.0
C599 C 0.39596 0.58418 0.12689 0.0
Fe600 Fe 0.09969 0.59656 0.83549 0.0
Fe601 Fe 0.11946 0.61389 0.8768 0.0
O602 O 0.09992 0.6148 0.85681 0.0
Fe603 Fe 0.08072 0.63394 0.85812 0.0
O604 O 0.08821 0.64442 0.83345 0.0
O605 O 0.08916 0.6144 0.81633 0.0
O606 O 0.12546 0.60527 0.82806 0.0
C607 C 0.14145 0.60549 0.8399 0.0
C608 C 0.05809 0.59769 0.8427 0.0
O609 O 0.13975 0.6045 0.85948 0.0
C610 C 0.08326 0.62386 0.89909 0.0
O611 O 0.10998 0.57523 0.85079 0.0
O612 O 0.1114 0.5877 0.88312 0.0
O613 O 0.05985 0.61725 0.84562 0.0
O614 O 0.07395 0.58674 0.8414 0.0
C615 C 0.11777 0.65582 0.87248 0.0
O616 O 0.10286 0.62322 0.89779 0.0
O617 O 0.07182 0.62488 0.88291 0.0
C618 C 0.11044 0.57244 0.87027 0.0
O619 O 0.12883 0.63999 0.87192 0.0
O620 O 0.09809 0.65412 0.87082 0.0
C621 C 0.08842 0.63404 0.81647 0.0
Fe622 Fe 0.13014 0.36118 0.58489 0.0
Fe623 Fe 0.09431 0.3377 0.60567 0.0
O624 O 0.1118 0.35947 0.6049 0.0
Fe625 Fe 0.111 0.37954 0.62434 0.0
O626 O 0.13752 0.37515 0.63287 0.0
O627 O 0.15045 0.37475 0.60149 0.0
O628 O 0.14175 0.33708 0.59219 0.0
C629 C 0.13202 0.31983 0.59307 0.0
C630 C 0.11895 0.40164 0.58762 0.0
O631 O 0.11241 0.319 0.59459 0.0
C632 C 0.0695 0.37191 0.61671 0.0
O633 O 0.11312 0.34787 0.56477 0.0
O634 O 0.0833 0.34278 0.58019 0.0
O635 O 0.11936 0.40048 0.6073 0.0
O636 O 0.11986 0.38543 0.57617 0.0
C637 C 0.10437 0.34303 0.64709 0.0
O638 O 0.07289 0.35257 0.61678 0.0
O639 O 0.08445 0.38509 0.61683 0.0
C640 C 0.09363 0.34411 0.56384 0.0
O641 O 0.10429 0.33101 0.6312 0.0
O642 O 0.10253 0.36242 0.64516 0.0
C643 C 0.15296 0.37606 0.62117 0.0
Fe644 Fe 0.62634 0.61238 0.59151 0.0
Fe645 Fe 0.60479 0.5914 0.62798 0.0
O646 O 0.60624 0.61175 0.60996 0.0
Fe647 Fe 0.58753 0.63148 0.61039 0.0
O648 O 0.57899 0.62519 0.58362 0.0
O649 O 0.61033 0.62373 0.57086 0.0
O650 O 0.61842 0.58696 0.58045 0.0
C651 C 0.61737 0.57054 0.59065 0.0
C652 C 0.62507 0.65391 0.60132 0.0
O653 O 0.61501 0.57141 0.6102 0.0
C654 C 0.59366 0.62712 0.65229 0.0
O655 O 0.64603 0.60109 0.60879 0.0
O656 O 0.63065 0.59797 0.63876 0.0
O657 O 0.60542 0.65222 0.60199 0.0
O658 O 0.63595 0.63793 0.60095 0.0
C659 C 0.56334 0.59493 0.61901 0.0
O660 O 0.59439 0.60761 0.64913 0.0
O661 O 0.59458 0.63926 0.63723 0.0
C662 C 0.64699 0.59852 0.6283 0.0
O663 O 0.57872 0.58319 0.61871 0.0
O664 O 0.56609 0.6145 0.61887 0.0
C665 C 0.59084 0.62543 0.56824 0.0
Fe666 Fe 0.37794 0.34675 0.36058 0.0
Fe667 Fe 0.35899 0.38367 0.33904 0.0
O668 O 0.35901 0.36599 0.3595 0.0
Fe669 Fe 0.34013 0.3676 0.37888 0.0
O670 O 0.3302 0.34158 0.37234 0.0
O671 O 0.3608 0.32733 0.37245 0.0
O672 O 0.36924 0.33559 0.33554 0.0
C673 C 0.36883 0.34554 0.31896 0.0
C674 C 0.37688 0.35822 0.40162 0.0
O675 O 0.36905 0.36525 0.31959 0.0
C676 C 0.34944 0.40864 0.37438 0.0
O677 O 0.39843 0.36276 0.34894 0.0
O678 O 0.38477 0.39348 0.34663 0.0
O679 O 0.3572 0.35846 0.39987 0.0
O680 O 0.38779 0.35674 0.38569 0.0
C681 C 0.31751 0.3753 0.34165 0.0
O682 O 0.34896 0.40532 0.35479 0.0
O683 O 0.34897 0.3937 0.38657 0.0
C684 C 0.40048 0.38234 0.34782 0.0
O685 O 0.33319 0.37485 0.33032 0.0
O686 O 0.31966 0.37695 0.36133 0.0
C687 C 0.34112 0.32568 0.37283 0.0
H688 H 0.03319 0.23071 0.30758 0.0
H689 H 0.05143 0.21513 0.27828 0.0
H690 H 0.01641 0.15758 0.28468 0.0
H691 H -0.00192 0.173 0.31411 0.0
H692 H 0.07512 0.17575 0.2754 0.0
H693 H 0.0046 0.17742 0.22319 0.0
H694 H 0.00748 0.19315 0.24699 0.0
H695 H 0.00139 0.16582 0.2481 0.0
C696 C 0.02949 0.21466 0.30293 0.0
C697 C 0.01407 0.20314 0.31312 0.0
C698 C 0.03997 0.20578 0.2862 0.0
C699 C 0.03511 0.1853 0.27921 0.0
C700 C 0.02025 0.17349 0.28976 0.0
H701 H 0.09305 0.10795 0.18506 0.0
H702 H 0.08055 0.12292 0.21775 0.0
C703 C 0.00985 0.18231 0.30662 0.0
C704 C 0.04489 0.17669 0.26026 0.0
H705 H 0.03442 0.16247 0.2092 0.0
C706 C 0.06626 0.17277 0.26093 0.0
C707 C 0.0333 0.17311 0.24136 0.0
C708 C 0.01044 0.17769 0.23966 0.0
C709 C 0.07629 0.16509 0.24319 0.0
C710 C 0.06462 0.16126 0.22437 0.0
C711 C 0.04331 0.16539 0.22368 0.0
C712 C 0.07412 0.15289 0.20515 0.0
C713 C 0.09934 0.16142 0.24456 0.0
C714 C 0.07479 0.16483 0.18724 0.0
C715 C 0.082 0.15636 0.16852 0.0
C716 C 0.08842 0.13565 0.16727 0.0
C717 C 0.08825 0.12394 0.18544 0.0
C718 C 0.08117 0.13248 0.20418 0.0
H719 H 0.10683 0.16904 0.25876 0.0
H720 H 0.10181 0.14445 0.24511 0.0
H721 H 0.10716 0.1673 0.2306 0.0
H722 H 0.06935 0.18059 0.18766 0.0
H723 H 0.08184 0.16583 0.15487 0.0
H724 H 0.9686 0.79031 0.53702 0.0
H725 H -0.00858 0.80983 0.51463 0.0
H726 H 0.04433 0.79636 0.55417 0.0
H727 H 0.02154 0.77618 0.57659 0.0
H728 H 0.01828 0.84385 0.52136 0.0
H729 H 0.06071 0.77318 0.49737 0.0
H730 H 0.03704 0.77171 0.51176 0.0
H731 H 0.06121 0.77964 0.52483 0.0
C732 C -0.01493 0.79153 0.5411 0.0
C733 C -0.00671 0.78143 0.55847 0.0
C734 C -0.00192 0.8028 0.5283 0.0
C735 C 0.01958 0.80429 0.53257 0.0
C736 C 0.0278 0.79505 0.5504 0.0
H737 H 0.10921 0.84681 0.44193 0.0
H738 H 0.09456 0.83943 0.47571 0.0
C739 C 0.01476 0.7836 0.56322 0.0
C740 C 0.03319 0.81451 0.51747 0.0
H741 H 0.06891 0.80397 0.48055 0.0
C742 C 0.02958 0.83524 0.51262 0.0
C743 C 0.0479 0.80321 0.5061 0.0
C744 C 0.05192 0.78066 0.51009 0.0
C745 C 0.03975 0.84475 0.49618 0.0
C746 C 0.05373 0.83313 0.48427 0.0
C747 C 0.05816 0.81279 0.48979 0.0
C748 C 0.06251 0.8409 0.46485 0.0
C749 C 0.03516 0.86696 0.49142 0.0
C750 C 0.0493 0.84447 0.44764 0.0
C751 C 0.05758 0.84857 0.42825 0.0
C752 C 0.07925 0.84905 0.42573 0.0
C753 C 0.09244 0.84645 0.44327 0.0
C754 C 0.08413 0.84227 0.46262 0.0
H755 H 0.0292 0.87545 0.50526 0.0
H756 H 0.04928 0.87539 0.48608 0.0
H757 H 0.02304 0.86709 0.47877 0.0
H758 H 0.03255 0.8431 0.44897 0.0
H759 H 0.04699 0.85056 0.41509 0.0
H760 H 0.44458 0.75086 0.80243 0.0
H761 H 0.43053 0.76764 0.77162 0.0
H762 H 0.37019 0.76935 0.7994 0.0
H763 H 0.38438 0.7535 0.83059 0.0
H764 H 0.40127 0.75762 0.74356 0.0
H765 H 0.3785 0.82913 0.78628 0.0
H766 H 0.39396 0.80969 0.79834 0.0
H767 H 0.36607 0.8062 0.79595 0.0
C768 C 0.4283 0.75474 0.80191 0.0
C769 C 0.41563 0.75111 0.81899 0.0
C770 C 0.42029 0.76436 0.78432 0.0
C771 C 0.39944 0.77028 0.78343 0.0
C772 C 0.3865 0.76562 0.80003 0.0
H773 H 0.33988 0.80438 0.66612 0.0
H774 H 0.34914 0.78705 0.69831 0.0
C775 C 0.39459 0.75638 0.81777 0.0
C776 C 0.39129 0.78134 0.76515 0.0
H777 H 0.36648 0.82508 0.75095 0.0
C778 C 0.39372 0.7724 0.74517 0.0
C779 C 0.38176 0.80083 0.76724 0.0
C780 C 0.38011 0.81213 0.78809 0.0
C781 C 0.38682 0.78232 0.72722 0.0
C782 C 0.37645 0.80134 0.72936 0.0
C783 C 0.37412 0.81035 0.74934 0.0
C784 C 0.36878 0.81261 0.71102 0.0
C785 C 0.39139 0.7726 0.70616 0.0
C786 C 0.37554 0.83326 0.70815 0.0
C787 C 0.36977 0.84341 0.69006 0.0
C788 C 0.35733 0.83297 0.67444 0.0
C789 C 0.34971 0.81268 0.67781 0.0
C790 C 0.35515 0.8027 0.69609 0.0
H791 H 0.40455 0.76186 0.70717 0.0
H792 H 0.37747 0.76343 0.70015 0.0
H793 H 0.39525 0.78465 0.69475 0.0
H794 H 0.38592 0.84129 0.71955 0.0
H795 H 0.37591 0.85903 0.68784 0.0
H796 H 0.48567 0.18048 0.06735 0.0
H797 H 0.48233 0.15283 0.04002 0.0
H798 H 0.41609 0.1614 0.03572 0.0
H799 H 0.41927 0.18883 0.06277 0.0
H800 H 0.42981 0.11809 0.02895 0.0
H801 H 0.46988 0.17773 -0.01851 0.0
H802 H 0.48242 0.16926 0.00501 0.0
H803 H 0.45967 0.18463 0.00659 0.0
C804 C 0.47033 0.17593 0.06105 0.0
C805 C 0.45276 0.18702 0.06683 0.0
C806 C 0.46847 0.16021 0.04544 0.0
C807 C 0.44901 0.15536 0.03571 0.0
C808 C 0.43124 0.16495 0.04305 0.0
H809 H 0.36937 0.12461 0.93905 0.0
H810 H 0.38969 0.12683 0.97162 0.0
C811 C 0.43309 0.18072 0.05841 0.0
C812 C 0.44712 0.14338 0.01571 0.0
H813 H 0.44955 0.152 0.96371 0.0
C814 C 0.43466 0.12507 0.01463 0.0
C815 C 0.45365 0.15245 -0.00291 0.0
C816 C 0.46711 0.17212 -0.0026 0.0
C817 C 0.4271 0.11658 -0.00462 0.0
C818 C 0.43167 0.12706 0.97691 0.0
C819 C 0.44587 0.1441 0.97789 0.0
C820 C 0.41947 0.12299 0.95719 0.0
C821 C 0.41353 0.09702 -0.00488 0.0
C822 C 0.42946 0.12066 0.93811 0.0
C823 C 0.41786 0.11987 0.91932 0.0
C824 C 0.39607 0.12144 0.91932 0.0
C825 C 0.38611 0.12332 0.93848 0.0
C826 C 0.39771 0.12428 0.95718 0.0
H827 H 0.41851 0.08667 0.00773 0.0
H828 H 0.39721 0.10119 -0.00198 0.0
H829 H 0.41397 0.08831 0.97992 0.0
H830 H 0.44626 0.11991 0.93774 0.0
H831 H 0.42598 0.11823 0.90482 0.0
H832 H 0.03887 0.73286 0.1541 0.0
H833 H 0.06626 0.73825 0.1814 0.0
H834 H 0.0548 0.80396 0.18367 0.0
H835 H 0.02773 0.79876 0.15658 0.0
H836 H 0.09804 0.7933 0.19181 0.0
H837 H 0.04 0.75034 0.23894 0.0
H838 H 0.04998 0.73766 0.21608 0.0
H839 H 0.03315 0.7592 0.21335 0.0
C840 C 0.04273 0.74852 0.15995 0.0
C841 C 0.03091 0.76535 0.15364 0.0
C842 C 0.05832 0.75156 0.17553 0.0
C843 C 0.06223 0.77144 0.18474 0.0
C844 C 0.05197 0.78849 0.17679 0.0
H845 H 0.08754 0.85279 0.28307 0.0
H846 H 0.08643 0.83309 0.24994 0.0
C847 C 0.03639 0.78547 0.16141 0.0
C848 C 0.07372 0.77445 0.2049 0.0
H849 H 0.06454 0.77192 0.25681 0.0
C850 C 0.09117 0.78814 0.20609 0.0
C851 C 0.06476 0.76758 0.22346 0.0
C852 C 0.04591 0.75294 0.22309 0.0
C853 C 0.09888 0.79643 0.22537 0.0
C854 C 0.0885 0.79125 0.24375 0.0
C855 C 0.07236 0.77603 0.24268 0.0
C856 C 0.09191 0.80334 0.26365 0.0
C857 C 0.11753 0.81127 0.22575 0.0
C858 C 0.09482 0.79313 0.28245 0.0
C859 C 0.09491 0.80431 0.30147 0.0
C860 C 0.09213 0.82591 0.30202 0.0
C861 C 0.08974 0.83618 0.28316 0.0
C862 C 0.08942 0.82496 0.26417 0.0
H863 H 0.12824 0.80718 0.21306 0.0
H864 H 0.11223 0.82724 0.22309 0.0
H865 H 0.12627 0.81128 0.24092 0.0
H866 H 0.09654 0.77644 0.28242 0.0
H867 H 0.09703 0.79598 0.31575 0.0
H868 H 0.44303 0.8221 0.39002 0.0
H869 H 0.42615 0.83354 0.42179 0.0
H870 H 0.45222 0.78254 0.45455 0.0
H871 H 0.46905 0.77075 0.4227 0.0
H872 H 0.4091 0.78612 0.45882 0.0
H873 H 0.45122 0.86176 0.47539 0.0
H874 H 0.44054 0.8585 0.44928 0.0
H875 H 0.46089 0.842 0.45789 0.0
C876 C 0.44542 0.81343 0.40403 0.0
C877 C 0.45739 0.79548 0.40381 0.0
C878 C 0.43582 0.82007 0.4222 0.0
C879 C 0.4381 0.809 0.44053 0.0
C880 C 0.45035 0.79133 0.44053 0.0
H881 H 0.40346 0.84181 0.56522 0.0
H882 H 0.42092 0.8339 0.53285 0.0
C883 C 0.46 0.78466 0.42235 0.0
C884 C 0.4267 0.81517 0.45934 0.0
H885 H 0.42123 0.85483 0.49517 0.0
C886 C 0.41176 0.80112 0.46682 0.0
C887 C 0.43029 0.83472 0.46971 0.0
C888 C 0.44673 0.85007 0.46281 0.0
C889 C 0.40022 0.80613 0.48442 0.0
C890 C 0.40354 0.82583 0.49457 0.0
C891 C 0.41855 0.83985 0.48715 0.0
C892 C 0.39261 0.83161 0.51379 0.0
C893 C 0.38495 0.79012 0.49232 0.0
C894 C 0.37088 0.83333 0.5137 0.0
C895 C 0.36075 0.83782 0.53227 0.0
C896 C 0.37224 0.84066 0.55118 0.0
C897 C 0.39407 0.83952 0.551 0.0
C898 C 0.40413 0.83507 0.53249 0.0
H899 H 0.38741 0.77436 0.48543 0.0
H900 H 0.38625 0.78941 0.50958 0.0
H901 H 0.36887 0.79454 0.48808 0.0
H902 H 0.36177 0.83105 0.49931 0.0
H903 H 0.34395 0.83874 0.53186 0.0
H904 H 0.37935 0.20786 0.63636 0.0
H905 H 0.36237 0.18704 0.66271 0.0
H906 H 0.42155 0.16146 0.67954 0.0
H907 H 0.4382 0.18107 0.65233 0.0
H908 H 0.39156 0.1345 0.68679 0.0
H909 H 0.37074 0.21168 0.72008 0.0
H910 H 0.35853 0.20521 0.69516 0.0
H911 H 0.3864 0.20904 0.69739 0.0
C912 C 0.3885 0.19713 0.64516 0.0
C913 C 0.41009 0.19623 0.64259 0.0
C914 C 0.37887 0.18546 0.66036 0.0
C915 C 0.39087 0.17345 0.67372 0.0
C916 C 0.412 0.17083 0.6696 0.0
H917 H 0.38569 0.16004 0.80448 0.0
H918 H 0.38863 0.17097 0.7685 0.0
C919 C 0.42152 0.182 0.65398 0.0
C920 C 0.38243 0.16584 0.69346 0.0
H921 H 0.36276 0.18269 0.7397 0.0
C922 C 0.38508 0.14497 0.69831 0.0
C923 C 0.37431 0.17967 0.70863 0.0
C924 C 0.37249 0.20267 0.7052 0.0
C925 C 0.38065 0.1377 0.71815 0.0
C926 C 0.37245 0.15151 0.73325 0.0
C927 C 0.36894 0.17214 0.72808 0.0
C928 C 0.3692 0.14554 0.75507 0.0
C929 C 0.38602 0.11567 0.72304 0.0
C930 C 0.35677 0.12803 0.75957 0.0
C931 C 0.35547 0.12154 0.78006 0.0
C932 C 0.36604 0.13284 0.79643 0.0
C933 C 0.37735 0.15111 0.79212 0.0
C934 C 0.37906 0.15731 0.77158 0.0
H935 H 0.39713 0.10914 0.7118 0.0
H936 H 0.39297 0.11485 0.73901 0.0
H937 H 0.37163 0.10565 0.72205 0.0
H938 H 0.34842 0.11914 0.74721 0.0
H939 H 0.3464 0.10753 0.78308 0.0
H940 H 0.06374 0.20754 0.88807 0.0
H941 H 0.07354 0.18602 0.9173 0.0
H942 H 0.01068 0.1873 0.93901 0.0
H943 H 0.00065 0.20842 0.90965 0.0
H944 H 0.07238 0.19644 0.95852 0.0
H945 H 0.02203 0.12604 0.94188 0.0
H946 H 0.02642 0.14556 0.92277 0.0
H947 H 0.00783 0.14959 0.94285 0.0
C948 C 0.05192 0.20303 0.8989 0.0
C949 C 0.03139 0.20969 0.89645 0.0
C950 C 0.05756 0.19073 0.91563 0.0
C951 C 0.0428 0.18476 0.93022 0.0
C952 C 0.02225 0.19124 0.92771 0.0
H953 H 0.05 0.12951 0.05194 0.0
H954 H 0.03843 0.14432 0.01903 0.0
C955 C 0.01657 0.20346 0.91094 0.0
C956 C 0.04922 0.17296 0.94879 0.0
H957 H 0.03857 0.129 0.97569 0.0
C958 C 0.06511 0.18161 0.96215 0.0
C959 C 0.03965 0.15363 0.95362 0.0
C960 C 0.02318 0.14304 0.93943 0.0
C961 C 0.07142 0.17171 0.98035 0.0
C962 C 0.06178 0.15246 -0.01477 0.0
C963 C 0.04591 0.14376 0.97191 0.0
C964 C 0.06804 0.1413 0.0042 0.0
C965 C 0.08805 0.18217 -0.00551 0.0
C966 C 0.08826 0.13396 0.00645 0.0
C967 C 0.09492 0.12546 0.02518 0.0
C968 C 0.08147 0.12409 0.04208 0.0
C969 C 0.06081 0.13037 0.03932 0.0
C970 C 0.05416 0.13887 0.02052 0.0
H971 H 0.09042 0.19889 -0.0089 0.0
H972 H 0.084 0.18089 0.01113 0.0
H973 H 0.10302 0.17441 -0.00781 0.0
H974 H 0.09911 0.13534 -0.0061 0.0
H975 H 0.11088 0.12065 0.02663 0.0
H976 H 0.31197 -0.00172 0.17772 0.0
H977 H 0.28364 0.01607 0.15992 0.0
H978 H 0.27479 0.05375 0.21555 0.0
H979 H 0.30292 0.03615 0.23339 0.0
H980 H 0.24147 0.01724 0.17367 0.0
H981 H 0.27728 0.09647 0.16857 0.0
H982 H 0.29247 0.07376 0.17284 0.0
H983 H 0.27902 0.0857 0.19404 0.0
C984 C 0.30417 0.01054 0.18606 0.0
C985 C 0.30974 0.01579 0.20698 0.0
C986 C 0.28796 0.02066 0.17589 0.0
C987 C 0.27725 0.03639 0.18634 0.0
C988 C 0.28304 0.0419 0.20707 0.0
H989 H 0.15399 0.08283 0.16425 0.0
H990 H 0.18619 0.06923 0.17886 0.0
C991 C 0.29909 0.03172 0.21728 0.0
C992 C 0.25917 0.04622 0.17615 0.0
H993 H 0.24069 0.09299 0.16151 0.0
C994 C 0.24135 0.03377 0.17087 0.0
C995 C 0.25907 0.06777 0.17241 0.0
C996 C 0.27803 0.08173 0.17707 0.0
C997 C 0.22326 0.0424 0.16249 0.0
C998 C 0.22293 0.06406 0.15942 0.0
C999 C 0.24092 0.07643 0.16412 0.0
C1000 C 0.20398 0.074 0.1512 0.0
C1001 C 0.20459 0.02831 0.15694 0.0
C1002 C 0.20352 0.08182 0.13105 0.0
C1003 C 0.18512 0.08958 0.1226 0.0
C1004 C 0.16685 0.08984 0.13423 0.0
C1005 C 0.1677 0.08288 0.15482 0.0
C1006 C 0.18608 0.07499 0.16318 0.0
H1007 H 0.20863 0.01164 0.15644 0.0
H1008 H 0.19256 0.03053 0.16882 0.0
H1009 H 0.19768 0.03222 0.14156 0.0
H1010 H 0.21722 0.08129 0.1216 0.0
H1011 H 0.18508 0.09486 0.10674 0.0
H1012 H 0.21114 0.06267 0.41581 0.0
H1013 H 0.18382 0.03692 0.40548 0.0
H1014 H 0.15887 0.0413 0.46712 0.0
H1015 H 0.18615 0.06743 0.47758 0.0
H1016 H 0.17295 0.00098 0.45281 0.0
H1017 H 0.11932 0.03514 0.39515 0.0
H1018 H 0.14638 0.04124 0.39125 0.0
H1019 H 0.13436 0.0507 0.41452 0.0
C1020 C 0.19951 0.05857 0.42702 0.0
C1021 C 0.20084 0.06687 0.44754 0.0
C1022 C 0.1838 0.04401 0.42103 0.0
C1023 C 0.16926 0.03741 0.43549 0.0
C1024 C 0.16985 0.04645 0.4557 0.0
H1025 H 0.11015 0.91291 0.41718 0.0
H1026 H 0.11737 0.9476 0.43297 0.0
C1027 C 0.18542 0.06132 0.46163 0.0
C1028 C 0.15615 0.01862 0.43037 0.0
H1029 H 0.12159 -0.00214 0.39356 0.0
C1030 C 0.16129 0.00028 0.44023 0.0
C1031 C 0.14119 0.0179 0.41383 0.0
C1032 C 0.13482 0.03733 0.40316 0.0
C1033 C 0.15304 -0.0191 0.43293 0.0
C1034 C 0.1387 -0.01998 0.41573 0.0
C1035 C 0.1326 -0.00144 0.4067 0.0
C1036 C 0.13162 0.95995 0.4056 0.0
C1037 C 0.16101 0.96154 0.44272 0.0
C1038 C 0.13619 0.95576 0.38463 0.0
C1039 C 0.1317 0.93612 0.37546 0.0
C1040 C 0.12278 0.92028 0.38719 0.0
C1041 C 0.11741 0.92475 0.40791 0.0
C1042 C 0.12156 0.94452 0.41696 0.0
H1043 H 0.17541 0.96482 0.4524 0.0
H1044 H 0.14899 0.95506 0.45299 0.0
H1045 H 0.16438 0.9495 0.4306 0.0
H1046 H 0.14391 0.96748 0.37557 0.0
H1047 H 0.13592 0.93314 0.35943 0.0
H1048 H 0.14021 0.9655 0.68933 0.0
H1049 H 0.16374 0.94775 0.66561 0.0
H1050 H 0.18304 0.90835 0.71522 0.0
H1051 H 0.15974 0.92581 0.73885 0.0
H1052 H 0.20692 0.9481 0.67387 0.0
H1053 H 0.17508 0.86726 0.66514 0.0
H1054 H 0.15958 0.88874 0.67364 0.0
H1055 H 0.17674 0.87655 0.69184 0.0
C1056 C 0.14913 0.95274 0.69501 0.0
C1057 C 0.14826 0.94714 0.71598 0.0
C1058 C 0.16254 0.94264 0.68147 0.0
C1059 C 0.17491 0.92659 0.68862 0.0
C1060 C 0.17332 0.9204 0.70927 0.0
H1061 H 0.29683 0.8875 0.66666 0.0
H1062 H 0.26368 0.8997 0.67936 0.0
C1063 C 0.16013 0.93056 0.72281 0.0
C1064 C 0.19145 0.91804 0.67565 0.0
H1065 H 0.21175 0.87231 0.6587 0.0
C1066 C 0.20778 0.93158 0.67016 0.0
C1067 C 0.19249 0.89651 0.6708 0.0
C1068 C 0.17492 0.88144 0.67547 0.0
C1069 C 0.2257 0.92399 0.66104 0.0
C1070 C 0.2273 0.90234 0.65746 0.0
C1071 C 0.21051 0.88889 0.66179 0.0
C1072 C 0.24676 0.89347 0.65011 0.0
C1073 C 0.24308 0.93907 0.6558 0.0
C1074 C 0.24793 0.88545 0.62964 0.0
C1075 C 0.26685 0.87855 0.62229 0.0
C1076 C 0.28484 0.87941 0.63537 0.0
C1077 C 0.28332 0.88667 0.65616 0.0
C1078 C 0.26443 0.8937 0.66344 0.0
H1079 H 0.23781 0.95534 0.65556 0.0
H1080 H 0.25587 0.93833 0.66772 0.0
H1081 H 0.2495 0.93488 0.64038 0.0
H1082 H 0.23437 0.8851 0.61921 0.0
H1083 H 0.26746 0.8729 0.60623 0.0
H1084 H 0.26263 0.91797 0.9668 0.0
H1085 H 0.27779 0.94945 0.95206 0.0
H1086 H 0.33792 0.92143 0.95148 0.0
H1087 H 0.3226 0.88959 0.96512 0.0
H1088 H 0.30697 0.97712 0.9635 0.0
H1089 H 0.3318 0.93568 0.8918 0.0
H1090 H 0.3156 0.92335 0.91058 0.0
H1091 H 0.3434 0.92566 0.91497 0.0
C1092 C 0.2791 0.91863 0.96363 0.0
C1093 C 0.2914 0.9013 0.96678 0.0
C1094 C 0.28775 0.93658 0.95521 0.0
C1095 C 0.30888 0.93757 0.9501 0.0
C1096 C 0.32144 0.92074 0.95456 0.0
H1097 H 0.3673 0.05626 0.91647 0.0
H1098 H 0.35872 0.02425 0.93445 0.0
C1099 C 0.31271 0.90264 0.96251 0.0
C1100 C 0.31758 0.95599 0.93966 0.0
H1101 H 0.34336 0.97089 0.89652 0.0
C1102 C 0.3149 0.97578 0.94884 0.0
C1103 C 0.32764 0.95422 0.92034 0.0
C1104 C 0.32959 0.93361 0.90874 0.0
C1105 C 0.32187 -0.00613 0.9392 0.0
C1106 C 0.33259 -0.00795 0.92025 0.0
C1107 C 0.3354 0.97224 0.91117 0.0
C1108 C 0.33977 0.01049 0.90885 0.0
C1109 C 0.3169 0.0147 0.94902 0.0
C1110 C 0.33313 0.01278 0.88804 0.0
C1111 C 0.33855 0.03072 0.87754 0.0
C1112 C 0.35047 0.04683 0.88779 0.0
C1113 C 0.35787 0.04416 0.90832 0.0
C1114 C 0.35281 0.02599 0.91866 0.0
H1115 H 0.30372 0.01337 0.95981 0.0
H1116 H 0.33069 0.02097 0.95823 0.0
H1117 H 0.31285 0.02602 0.93698 0.0
H1118 H 0.32317 0.00096 0.8801 0.0
H1119 H 0.33257 0.03238 0.86175 0.0
H1120 H 0.32852 0.90534 0.27713 0.0
H1121 H 0.29633 0.88994 0.2897 0.0
H1122 H 0.26087 0.93455 0.25618 0.0
H1123 H 0.2932 0.95036 0.24363 0.0
H1124 H 0.2511 0.93222 0.29799 0.0
H1125 H 0.25055 0.85344 0.26038 0.0
H1126 H 0.27466 0.86054 0.27395 0.0
H1127 H 0.26661 0.87479 0.25162 0.0
C1128 C 0.31389 0.91176 0.27217 0.0
C1129 C 0.31343 0.92914 0.25941 0.0
C1130 C 0.29548 0.90281 0.27926 0.0
C1131 C 0.27623 0.91093 0.27365 0.0
C1132 C 0.27562 0.92798 0.26055 0.0
H1133 H 0.15423 0.86156 0.30346 0.0
H1134 H 0.18618 0.87161 0.28617 0.0
C1135 C 0.29408 0.93697 0.25339 0.0
C1136 C 0.25699 0.90268 0.28295 0.0
H1137 H 0.22767 0.85819 0.28882 0.0
C1138 C 0.24586 0.91608 0.29586 0.0
C1139 C 0.25019 0.88164 0.28005 0.0
C1140 C 0.261 0.8668 0.26559 0.0
C1141 C 0.22833 0.90891 0.30633 0.0
C1142 C 0.22202 0.88768 0.3041 0.0
C1143 C 0.23281 0.87437 0.29078 0.0
C1144 C 0.20365 0.87932 0.31481 0.0
C1145 C 0.21657 0.92416 0.31952 0.0
C1146 C 0.2032 0.87956 0.33668 0.0
C1147 C 0.18493 0.87385 0.34667 0.0
C1148 C 0.16685 0.86781 0.3349 0.0
C1149 C 0.16781 0.86638 0.313 0.0
C1150 C 0.18606 0.87206 0.30307 0.0
H1151 H 0.22049 0.94053 0.31576 0.0
H1152 H 0.19949 0.9214 0.31733 0.0
H1153 H 0.2207 0.92212 0.33622 0.0
H1154 H 0.21681 0.88476 0.346 0.0
H1155 H 0.18475 0.875 0.36354 0.0
H1156 H 0.31857 0.07439 0.49944 0.0
H1157 H 0.33536 0.04801 0.52019 0.0
H1158 H 0.27671 0.03364 0.54854 0.0
H1159 H 0.26036 0.06104 0.52898 0.0
H1160 H 0.30681 0.02784 0.57523 0.0
H1161 H 0.32682 -0.01044 0.49996 0.0
H1162 H 0.33937 0.01464 0.50425 0.0
H1163 H 0.31142 0.0124 0.50123 0.0
C1164 C 0.30949 0.06598 0.51059 0.0
C1165 C 0.28819 0.06952 0.51255 0.0
C1166 C 0.319 0.05076 0.52223 0.0
C1167 C 0.3071 0.03825 0.53526 0.0
C1168 C 0.28619 0.04294 0.53842 0.0
H1169 H 0.31873 0.90949 0.55801 0.0
H1170 H 0.31327 0.94408 0.54475 0.0
C1171 C 0.27684 0.05862 0.52729 0.0
C1172 C 0.31568 0.01917 0.54411 0.0
H1173 H 0.33694 0.9729 0.53043 0.0
C1174 C 0.31348 0.01584 0.56547 0.0
C1175 C 0.32409 0.00337 0.53126 0.0
C1176 C 0.32539 0.00503 0.50789 0.0
C1177 C 0.31882 -0.00305 0.57422 0.0
C1178 C 0.32752 -0.0187 0.56142 0.0
C1179 C 0.3304 -0.01505 0.54024 0.0
C1180 C 0.33203 0.96036 0.5691 0.0
C1181 C 0.31398 -0.00639 0.59679 0.0
C1182 C 0.34484 0.95788 0.58687 0.0
C1183 C 0.34756 0.93812 0.59474 0.0
C1184 C 0.33809 0.92047 0.58456 0.0
C1185 C 0.32629 0.92283 0.56611 0.0
C1186 C 0.32314 0.94261 0.55856 0.0
H1187 H 0.30229 0.00461 0.60257 0.0
H1188 H 0.30795 0.97751 0.59905 0.0
H1189 H 0.32841 -0.00374 0.60653 0.0
H1190 H 0.35247 0.97123 0.59485 0.0
H1191 H 0.35695 0.93664 0.60887 0.0
H1192 H 0.13084 0.04119 0.80663 0.0
H1193 H 0.15702 0.06679 0.82035 0.0
H1194 H 0.18579 0.06686 0.76034 0.0
H1195 H 0.15893 0.04206 0.74641 0.0
H1196 H 0.19419 0.05104 0.82185 0.0
H1197 H 0.20063 0.12524 0.78115 0.0
H1198 H 0.17715 0.10897 0.77982 0.0
H1199 H 0.19847 0.10337 0.7631 0.0
C1200 C 0.14206 0.04765 0.79612 0.0
C1201 C 0.14301 0.03983 0.77555 0.0
C1202 C 0.15703 0.06222 0.80394 0.0
C1203 C 0.17345 0.06869 0.79143 0.0
C1204 C 0.17309 0.06247 0.77021 0.0
H1205 H 0.30393 0.08906 0.80676 0.0
H1206 H 0.26754 0.08625 0.7946 0.0
C1207 C 0.15778 0.04823 0.76224 0.0
C1208 C 0.19308 0.07706 0.80154 0.0
H1209 H 0.23245 0.11349 0.79774 0.0
C1210 C 0.20229 0.06501 0.81694 0.0
C1211 C 0.20381 0.09505 0.79485 0.0
C1212 C 0.19439 0.10899 0.77895 0.0
C1213 C 0.22226 0.06989 0.82518 0.0
C1214 C 0.23324 0.08753 0.8181 0.0
C1215 C 0.2239 0.09999 0.80314 0.0
C1216 C 0.255 0.09217 0.82509 0.0
C1217 C 0.23186 0.05545 0.8406 0.0
C1218 C 0.25991 0.09684 0.84618 0.0
C1219 C 0.28065 0.09814 0.85325 0.0
C1220 C 0.29682 0.09497 0.83928 0.0
C1221 C 0.29183 0.09133 0.81796 0.0
C1222 C 0.27107 0.0899 0.81094 0.0
H1223 H 0.22297 0.0404 0.84118 0.0
H1224 H 0.24817 0.05222 0.83661 0.0
H1225 H 0.23206 0.06293 0.85643 0.0
H1226 H 0.24767 0.09889 0.85726 0.0
H1227 H 0.28398 0.10136 0.8697 0.0
H1228 H 0.22394 0.91444 0.02994 0.0
H1229 H 0.20525 0.94413 0.04353 0.0
H1230 H 0.14678 0.91054 0.03156 0.0
H1231 H 0.1654 0.88088 0.01736 0.0
H1232 H 0.14504 0.94941 0.01805 0.0
H1233 H 0.1781 0.95252 0.09861 0.0
H1234 H 0.19808 0.95347 0.07968 0.0
H1235 H 0.18136 0.93057 0.08092 0.0
C1236 C 0.20712 0.91322 0.0304 0.0
C1237 C 0.19619 0.89519 0.02262 0.0
C1238 C 0.19643 0.93022 0.0383 0.0
C1239 C 0.1746 0.92949 0.03894 0.0
C1240 C 0.16364 0.91145 0.03134 0.0
H1241 H 0.11125 0.02747 0.10732 0.0
H1242 H 0.12265 -0.00638 0.09453 0.0
C1243 C 0.17431 0.89447 0.02327 0.0
C1244 C 0.16325 0.94791 0.04664 0.0
H1245 H 0.16116 -0.01693 0.08748 0.0
C1246 C 0.1484 0.95664 0.03333 0.0
C1247 C 0.16733 0.95719 0.0667 0.0
C1248 C 0.18192 0.94782 0.08237 0.0
C1249 C 0.13808 0.97476 0.03925 0.0
C1250 C 0.14311 -0.01525 0.05881 0.0
C1251 C 0.15744 0.9756 0.07238 0.0
C1252 C 0.13414 0.0049 0.06545 0.0
C1253 C 0.12177 -0.01712 0.02452 0.0
C1254 C 0.1365 0.02253 0.05326 0.0
C1255 C 0.12975 0.04189 0.06043 0.0
C1256 C 0.12085 0.04412 0.08014 0.0
C1257 C 0.11806 0.02634 0.09209 0.0
C1258 C 0.12462 0.00696 0.08481 0.0
H1259 H 0.11493 0.97025 0.014 0.0
H1260 H 0.10902 -0.00979 0.03314 0.0
H1261 H 0.1291 -0.00529 0.01461 0.0
H1262 H 0.14426 0.02152 0.03851 0.0
H1263 H 0.13234 0.05527 0.05089 0.0
H1264 H 0.17125 0.31562 -0.00342 0.0
H1265 H 0.15462 0.28702 0.01512 0.0
H1266 H 0.21252 0.2771 0.04827 0.0
H1267 H 0.22918 0.30552 0.02998 0.0
H1268 H 0.16725 0.245 0.01429 0.0
H1269 H 0.16972 0.27891 0.09496 0.0
H1270 H 0.17269 0.29456 0.07228 0.0
H1271 H 0.19424 0.28033 0.08221 0.0
C1272 C 0.18036 0.30753 0.00802 0.0
C1273 C 0.20155 0.31289 0.0118 0.0
C1274 C 0.17085 0.29116 0.01856 0.0
C1275 C 0.18227 0.28008 0.03326 0.0
C1276 C 0.2033 0.28565 0.03728 0.0
H1277 H 0.16329 0.15644 0.07971 0.0
H1278 H 0.17702 0.18891 0.06571 0.0
C1279 C 0.21283 0.30186 0.02669 0.0
C1280 C 0.17269 0.2619 0.04354 0.0
H1281 H 0.16219 0.24238 0.09123 0.0
C1282 C 0.16599 0.24449 0.03109 0.0
C1283 C 0.17095 0.26129 0.06547 0.0
C1284 C 0.17709 0.27983 0.07954 0.0
C1285 C 0.15819 0.22628 0.04003 0.0
C1286 C 0.15716 0.22543 0.06198 0.0
C1287 C 0.16326 0.24302 0.07442 0.0
C1288 C 0.14959 0.20636 0.07215 0.0
C1289 C 0.15105 0.20803 0.02599 0.0
C1290 C 0.12988 0.20564 0.08096 0.0
C1291 C 0.12194 0.18711 0.08892 0.0
C1292 C 0.13365 0.16897 0.08838 0.0
C1293 C 0.15384 0.17007 0.08044 0.0
C1294 C 0.16169 0.18858 0.07231 0.0
H1295 H 0.14971 0.21229 0.00938 0.0
H1296 H 0.16242 0.19547 0.02729 0.0
H1297 H 0.13572 0.2017 0.03087 0.0
H1298 H 0.12036 0.21923 0.08105 0.0
H1299 H 0.10637 0.18685 0.09497 0.0
H1300 H 0.72908 0.16918 0.91493 0.0
H1301 H 0.70649 0.19356 0.89809 0.0
H1302 H 0.65249 0.16062 0.92047 0.0
H1303 H 0.67517 0.13632 0.93809 0.0
H1304 H 0.67486 0.19108 0.86891 0.0
H1305 H 0.64636 0.21843 0.94595 0.0
H1306 H 0.66779 0.20118 0.94366 0.0
H1307 H 0.64147 0.19134 0.93945 0.0
C1308 C 0.7124 0.16691 0.91616 0.0
C1309 C 0.70395 0.15099 0.92819 0.0
C1310 C 0.69948 0.18086 0.90642 0.0
C1311 C 0.67784 0.17918 0.90839 0.0
C1312 C 0.6692 0.16248 0.91919 0.0
H1313 H 0.59252 0.27773 0.8777 0.0
H1314 H 0.6054 0.2431 0.88393 0.0
C1315 C 0.68217 0.14855 0.92914 0.0
C1316 C 0.66482 0.19593 0.90042 0.0
H1317 H 0.6353 0.23625 0.91662 0.0
C1318 C 0.66598 0.2008 0.87928 0.0
C1319 C 0.65332 0.20866 0.91401 0.0
C1320 C 0.65223 0.20482 0.93706 0.0
C1321 C 0.65648 0.21843 0.87152 0.0
C1322 C 0.64565 0.23148 0.88528 0.0
C1323 C 0.64364 0.22612 0.90615 0.0
C1324 C 0.63762 0.25165 0.8789 0.0
C1325 C 0.65841 0.22318 0.84878 0.0
C1326 C 0.65152 0.26787 0.87388 0.0
C1327 C 0.64426 0.28775 0.87047 0.0
C1328 C 0.62297 0.29174 0.87207 0.0
C1329 C 0.60902 0.27523 0.87639 0.0
C1330 C 0.61631 0.2554 0.87992 0.0
H1331 H 0.66231 0.20915 0.83931 0.0
H1332 H 0.64374 0.22946 0.8424 0.0
H1333 H 0.67105 0.23511 0.84713 0.0
H1334 H 0.66808 0.26533 0.87339 0.0
H1335 H 0.65541 0.30009 0.86713 0.0
H1336 H 0.03927 0.42652 0.2198 0.0
H1337 H 0.01692 0.41409 0.19082 0.0
H1338 H 0.04893 0.4553 0.14976 0.0
H1339 H 0.07156 0.46834 0.17922 0.0
H1340 H 0.00658 0.45701 0.14535 0.0
H1341 H 0.02782 0.37508 0.14224 0.0
H1342 H 0.02338 0.38251 0.16885 0.0
H1343 H 0.04427 0.39508 0.15526 0.0
C1344 C 0.04182 0.4329 0.20463 0.0
C1345 C 0.05728 0.44841 0.20184 0.0
C1346 C 0.02912 0.42558 0.18798 0.0
C1347 C 0.03166 0.43333 0.16802 0.0
C1348 C 0.04699 0.44889 0.16501 0.0
H1349 H 0.93104 0.36357 0.10206 0.0
H1350 H 0.96605 0.37974 0.10468 0.0
C1351 C 0.05983 0.45633 0.18183 0.0
C1352 C 0.01678 0.42608 0.15117 0.0
H1353 H -0.00953 0.3814 0.13549 0.0
C1354 C 0.00337 0.44049 0.14253 0.0
C1355 C 0.01303 0.40462 0.14675 0.0
C1356 C 0.02811 0.3885 0.1536 0.0
C1357 C -0.01516 0.43382 0.13195 0.0
C1358 C -0.0206 0.41231 0.13074 0.0
C1359 C -0.00581 0.39795 0.13691 0.0
C1360 C 0.95772 0.40448 0.12629 0.0
C1361 C 0.97096 0.44997 0.123 0.0
C1362 C 0.94131 0.41302 0.13744 0.0
C1363 C 0.9213 0.40402 0.13567 0.0
C1364 C 0.91744 0.38589 0.12328 0.0
C1365 C 0.93372 0.37741 0.11195 0.0
C1366 C 0.95366 0.38672 0.11332 0.0
H1367 H -0.01953 0.46284 0.11656 0.0
H1368 H 0.96028 0.44326 0.11047 0.0
H1369 H 0.96161 0.45684 0.13562 0.0
H1370 H 0.9441 0.42616 0.14822 0.0
H1371 H 0.90902 0.4108 0.14464 0.0
H1372 H 0.73648 0.79897 0.44592 0.0
H1373 H 0.75275 0.76748 0.43259 0.0
H1374 H 0.7807 0.80243 0.3838 0.0
H1375 H 0.7644 0.83385 0.39677 0.0
H1376 H 0.76355 0.76327 0.37019 0.0
H1377 H 0.81579 0.75833 0.44023 0.0
H1378 H 0.78853 0.75928 0.44557 0.0
H1379 H 0.80154 0.78132 0.43461 0.0
C1380 C 0.74594 0.79992 0.43225 0.0
C1381 C 0.74929 0.81896 0.42252 0.0
C1382 C 0.7553 0.78195 0.42473 0.0
C1383 C 0.76818 0.78278 0.40745 0.0
C1384 C 0.77089 0.80154 0.39724 0.0
H1385 H 0.85992 0.6922 0.37345 0.0
H1386 H 0.84209 0.72447 0.38137 0.0
C1387 C 0.76158 0.81948 0.40472 0.0
C1388 C 0.77935 0.76426 0.40026 0.0
H1389 H 0.81639 0.73052 0.41521 0.0
C1390 C 0.77512 0.75608 0.37999 0.0
C1391 C 0.7947 0.75523 0.41298 0.0
C1392 C 0.80061 0.76406 0.4345 0.0
C1393 C 0.78559 0.73878 0.37223 0.0
C1394 C 0.80044 0.72936 0.38521 0.0
C1395 C 0.80493 0.73777 0.40534 0.0
C1396 C 0.8111 0.71034 0.37855 0.0
C1397 C 0.78083 0.7309 0.35016 0.0
C1398 C 0.79954 0.6918 0.37421 0.0
C1399 C 0.80963 0.6734 0.36968 0.0
C1400 C 0.83152 0.67314 0.36957 0.0
C1401 C 0.84306 0.69187 0.37341 0.0
C1402 C 0.83291 0.7103 0.37796 0.0
H1403 H 0.77368 0.74301 0.34058 0.0
H1404 H 0.79515 0.72567 0.34253 0.0
H1405 H 0.76964 0.71743 0.35041 0.0
H1406 H 0.78272 0.69143 0.37495 0.0
H1407 H 0.80026 0.65926 0.36677 0.0
H1408 H 0.87795 0.02113 0.16661 0.0
H1409 H 0.90811 0.03472 0.14824 0.0
H1410 H 0.94301 0.04147 0.20659 0.0
H1411 H 0.91282 0.02854 0.22509 0.0
H1412 H 0.94932 0.07459 0.18352 0.0
H1413 H 0.95939 0.00332 0.13438 0.0
H1414 H 0.93421 0.01428 0.13119 0.0
H1415 H 0.94192 0.00403 0.15589 0.0
C1416 C 0.89202 0.02559 0.17554 0.0
C1417 C 0.89296 0.02364 0.19733 0.0
C1418 C 0.90933 0.03319 0.16498 0.0
C1419 C 0.92804 0.03871 0.17594 0.0
C1420 C 0.92882 0.03723 0.19774 0.0
H1421 H 0.05321 0.05241 0.13108 0.0
H1422 H 0.01979 0.04014 0.14413 0.0
C1423 C 0.9115 0.02982 0.20832 0.0
C1424 C 0.94683 0.04615 0.16489 0.0
H1425 H -0.01882 0.03252 0.12743 0.0
C1426 C 0.95625 0.0654 0.17122 0.0
C1427 C 0.95609 0.03404 0.14904 0.0
C1428 C 0.94753 0.01268 0.14233 0.0
C1429 C 0.97464 0.07283 0.16226 0.0
C1430 C -0.01639 0.06097 0.14604 0.0
C1431 C 0.97418 0.04173 0.13967 0.0
C1432 C 0.00335 0.06779 0.13627 0.0
C1433 C -0.01534 0.09298 0.17084 0.0
C1434 C 0.00511 0.08711 0.12677 0.0
C1435 C 0.02427 0.09426 0.11944 0.0
C1436 C 0.04204 0.0821 0.12115 0.0
C1437 C 0.0399 0.06222 0.12952 0.0
C1438 C 0.02078 0.05517 0.13703 0.0
H1439 H 0.97912 0.0971 0.18665 0.0
H1440 H 0.00188 0.09207 0.17171 0.0
H1441 H -0.01942 0.10575 0.16041 0.0
H1442 H -0.00824 0.09688 0.12543 0.0
H1443 H 0.02527 0.10955 0.11289 0.0
H1444 H 0.22237 0.65116 0.53801 0.0
H1445 H 0.22619 0.67726 0.56685 0.0
H1446 H 0.29162 0.6848 0.55474 0.0
H1447 H 0.28791 0.65909 0.52605 0.0
H1448 H 0.27925 0.68812 0.59975 0.0
H1449 H 0.23633 0.73774 0.54433 0.0
H1450 H 0.22493 0.7132 0.55161 0.0
H1451 H 0.24721 0.71366 0.53539 0.0
C1452 C 0.23767 0.65791 0.54202 0.0
C1453 C 0.25481 0.65342 0.52967 0.0
C1454 C 0.2398 0.67279 0.55842 0.0
C1455 C 0.25913 0.68303 0.5627 0.0
C1456 C 0.27659 0.67703 0.55166 0.0
H1457 H 0.33832 0.77908 0.59603 0.0
H1458 H 0.31835 0.74636 0.59321 0.0
C1459 C 0.27443 0.66244 0.53521 0.0
C1460 C 0.26102 0.70232 0.57577 0.0
H1461 H 0.25762 0.75454 0.57002 0.0
C1462 C 0.27399 0.70267 0.59372 0.0
C1463 C 0.25393 0.72122 0.56796 0.0
C1464 C 0.23984 0.72165 0.54876 0.0
C1465 C 0.28151 0.72156 0.60302 0.0
C1466 C 0.27641 0.74043 0.59366 0.0
C1467 C 0.26172 0.74007 0.57706 0.0
C1468 C 0.28849 0.76011 0.59835 0.0
C1469 C 0.29557 0.72103 0.62219 0.0
C1470 C 0.27837 0.7789 0.60166 0.0
C1471 C 0.28977 0.7978 0.60276 0.0
C1472 C 0.31149 0.7982 0.60056 0.0
C1473 C 0.32163 0.77933 0.59784 0.0
C1474 C 0.31022 0.76052 0.59653 0.0
H1475 H 0.29091 0.70792 0.63209 0.0
H1476 H 0.31177 0.71847 0.61738 0.0
H1477 H 0.2953 0.73577 0.63165 0.0
H1478 H 0.26159 0.77899 0.60286 0.0
H1479 H 0.28152 0.81208 0.60505 0.0
H1480 H 0.06316 0.4978 0.31557 0.0
H1481 H 0.03818 0.5213 0.33051 0.0
H1482 H 0.04703 0.56281 0.27983 0.0
H1483 H 0.07196 0.53907 0.26447 0.0
H1484 H 0.03498 0.56409 0.34225 0.0
H1485 H -0.01351 0.53952 0.27185 0.0
H1486 H 0.01042 0.52714 0.27861 0.0
H1487 H 0.01113 0.55226 0.26718 0.0
C1488 C 0.06022 0.51219 0.30784 0.0
C1489 C 0.0691 0.51637 0.28858 0.0
C1490 C 0.04601 0.52565 0.31648 0.0
C1491 C 0.04045 0.54349 0.306 0.0
C1492 C 0.05094 0.54889 0.28794 0.0
H1493 H 0.93879 0.62086 0.34614 0.0
H1494 H 0.97336 0.60888 0.33799 0.0
C1495 C 0.06523 0.53538 0.27924 0.0
C1496 C 0.02155 0.55425 0.3123 0.0
H1497 H 0.97064 0.55961 0.29756 0.0
C1498 C 0.02096 0.56342 0.33242 0.0
C1499 C 0.00321 0.55287 0.29954 0.0
C1500 C 0.00266 0.5423 0.27815 0.0
C1501 C 0.00236 0.571 0.34024 0.0
C1502 C -0.01595 0.56944 0.3275 0.0
C1503 C -0.01524 0.56068 0.30726 0.0
C1504 C 0.96375 0.5764 0.3348 0.0
C1505 C 0.00222 0.5799 0.36227 0.0
C1506 C 0.94693 0.56205 0.33577 0.0
C1507 C 0.92707 0.56882 0.34029 0.0
C1508 C 0.92371 0.59011 0.34371 0.0
C1509 C 0.94081 0.60434 0.34348 0.0
C1510 C 0.96063 0.59754 0.33898 0.0
H1511 H 0.0164 0.57596 0.37143 0.0
H1512 H 0.0016 0.59709 0.36188 0.0
H1513 H -0.01172 0.5741 0.37043 0.0
H1514 H 0.94909 0.54564 0.33252 0.0
H1515 H 0.91428 0.55747 0.34041 0.0
H1516 H 0.41312 0.46895 0.76479 0.0
H1517 H 0.44401 0.45236 0.77879 0.0
H1518 H 0.41894 0.45573 0.84048 0.0
H1519 H 0.38757 0.47129 0.82636 0.0
H1520 H 0.47361 0.46276 0.80608 0.0
H1521 H 0.42928 0.39519 0.83565 0.0
H1522 H 0.41733 0.41411 0.81948 0.0
H1523 H 0.42132 0.41934 0.84709 0.0
C1524 C 0.41428 0.46626 0.78135 0.0
C1525 C 0.39787 0.47114 0.79446 0.0
C1526 C 0.43191 0.45675 0.78934 0.0
C1527 C 0.43354 0.45224 0.8106 0.0
C1528 C 0.4177 0.45833 0.82391 0.0
H1529 H 0.55212 0.41479 0.86552 0.0
H1530 H 0.52081 0.43384 0.85701 0.0
C1531 C 0.39988 0.4674 0.81586 0.0
C1532 C 0.45165 0.44091 0.8187 0.0
H1533 H 0.46514 0.39815 0.84553 0.0
C1534 C 0.47176 0.4486 0.81467 0.0
C1535 C 0.44923 0.42222 0.82959 0.0
C1536 C 0.42813 0.41211 0.83302 0.0
C1537 C 0.48951 0.43815 0.82116 0.0
C1538 C 0.4871 0.41993 0.83281 0.0
C1539 C 0.46699 0.41226 0.83687 0.0
C1540 C 0.50518 0.40798 0.83996 0.0
C1541 C 0.51057 0.44635 0.81475 0.0
C1542 C 0.50621 0.38673 0.83446 0.0
C1543 C 0.52378 0.37566 0.83989 0.0
C1544 C 0.54074 0.38573 0.85067 0.0
C1545 C 0.53934 0.40674 0.85696 0.0
C1546 C 0.52156 0.41769 0.85192 0.0
H1547 H 0.50926 0.45631 0.80096 0.0
H1548 H 0.51785 0.45603 0.82777 0.0
H1549 H 0.52106 0.43347 0.81093 0.0
H1550 H 0.49369 0.37886 0.82536 0.0
H1551 H 0.52448 0.35949 0.83479 0.0
H1552 H 0.89788 0.77843 0.62682 0.0
H1553 H 0.88253 0.79269 0.65839 0.0
H1554 H 0.93346 0.77007 0.69552 0.0
H1555 H 0.94911 0.75589 0.66403 0.0
H1556 H 0.87044 0.77231 0.69514 0.0
H1557 H 0.93279 0.83309 0.71038 0.0
H1558 H 0.92933 0.81913 0.6856 0.0
H1559 H 0.94202 0.80715 0.70722 0.0
C1560 C 0.90583 0.77645 0.64169 0.0
C1561 C 0.92482 0.76619 0.64292 0.0
C1562 C 0.897 0.78456 0.65968 0.0
C1563 C 0.90705 0.78263 0.67913 0.0
C1564 C 0.9257 0.77197 0.68053 0.0
H1565 H 0.86663 0.79972 0.80397 0.0
H1566 H 0.87404 0.78612 0.76914 0.0
C1567 C 0.93457 0.76385 0.66255 0.0
C1568 C 0.89815 0.79204 0.69797 0.0
H1569 H 0.90853 0.82812 0.73717 0.0
C1570 C 0.87865 0.78461 0.70431 0.0
C1571 C 0.90881 0.8083 0.70956 0.0
C1572 C 0.92931 0.81756 0.70279 0.0
C1573 C 0.86979 0.79263 0.72247 0.0
C1574 C 0.8809 0.80824 0.73456 0.0
C1575 C 0.90011 0.81608 0.72785 0.0
C1576 C 0.87354 0.81609 0.7548 0.0
C1577 C 0.84865 0.78438 0.72852 0.0
C1578 C 0.87076 0.83744 0.7582 0.0
C1579 C 0.86674 0.84532 0.77813 0.0
C1580 C 0.86559 0.83195 0.795 0.0
C1581 C 0.86747 0.81044 0.79132 0.0
C1582 C 0.87154 0.8026 0.7714 0.0
H1583 H 0.83974 0.77727 0.71487 0.0
H1584 H 0.85067 0.77218 0.74018 0.0
H1585 H 0.83938 0.7969 0.73562 0.0
H1586 H 0.87234 0.84807 0.74554 0.0
H1587 H 0.86523 0.86195 0.78042 0.0
H1588 H 0.96311 0.16795 0.40406 0.0
H1589 H 0.95372 0.14434 0.43193 0.0
H1590 H 0.89136 0.16718 0.43077 0.0
H1591 H 0.90065 0.19085 0.40332 0.0
H1592 H 0.93904 0.16273 0.47064 0.0
H1593 H 0.88292 0.10312 0.43639 0.0
H1594 H 0.90162 0.11699 0.421 0.0
H1595 H 0.8781 0.12917 0.42864 0.0
C1596 C 0.94723 0.16741 0.40931 0.0
C1597 C 0.93262 0.18126 0.40162 0.0
C1598 C 0.94192 0.15399 0.42524 0.0
C1599 C 0.9218 0.15391 0.43326 0.0
C1600 C 0.90685 0.16674 0.42458 0.0
H1601 H 0.84867 0.12675 0.53672 0.0
H1602 H 0.86358 0.13302 0.5028 0.0
C1603 C 0.91223 0.18034 0.40897 0.0
C1604 C 0.91706 0.1431 0.45268 0.0
H1605 H 0.88192 0.10933 0.47346 0.0
C1606 C 0.9269 0.15069 0.47129 0.0
C1607 C 0.90106 0.12761 0.4534 0.0
C1608 C 0.8904 0.11858 0.43377 0.0
C1609 C 0.92025 0.14421 0.49077 0.0
C1610 C 0.9037 0.12919 0.49158 0.0
C1611 C 0.89457 0.12084 0.47285 0.0
C1612 C 0.89448 0.12339 0.51164 0.0
C1613 C 0.93009 0.15457 0.51024 0.0
C1614 C 0.90672 0.11534 0.52776 0.0
C1615 C 0.89832 0.11207 0.54731 0.0
C1616 C 0.87738 0.11638 0.55097 0.0
C1617 C 0.86486 0.12334 0.53445 0.0
C1618 C 0.87336 0.12688 0.51502 0.0
H1619 H 0.9389 0.16913 0.5068 0.0
H1620 H 0.91812 0.15836 0.5218 0.0
H1621 H 0.94117 0.14385 0.51746 0.0
H1622 H 0.92289 0.11197 0.52535 0.0
H1623 H 0.90828 0.10639 0.55963 0.0
H1624 H 0.52292 0.17083 0.13962 0.0
H1625 H 0.5422 0.16146 0.17117 0.0
H1626 H 0.54581 0.22586 0.19201 0.0
H1627 H 0.52638 0.23542 0.16062 0.0
H1628 H 0.58207 0.1756 0.18968 0.0
H1629 H 0.51482 0.19538 0.23858 0.0
H1630 H 0.5125 0.19222 0.21056 0.0
H1631 H 0.52429 0.21559 0.22227 0.0
C1632 C 0.52801 0.18306 0.15078 0.0
C1633 C 0.52287 0.20385 0.14771 0.0
C1634 C 0.53906 0.17767 0.16878 0.0
C1635 C 0.54511 0.19293 0.18404 0.0
C1636 C 0.54098 0.21382 0.18054 0.0
H1637 H 0.58816 0.17634 0.31259 0.0
H1638 H 0.58008 0.19213 0.27926 0.0
C1639 C 0.52994 0.21925 0.16255 0.0
C1640 C 0.55454 0.18676 0.20413 0.0
H1641 H 0.54459 0.18346 0.25592 0.0
C1642 C 0.57397 0.17742 0.20421 0.0
C1643 C 0.54391 0.18919 0.22303 0.0
C1644 C 0.52265 0.19849 0.22372 0.0
C1645 C 0.58304 0.17032 0.22274 0.0
C1646 C 0.57216 0.17228 0.24155 0.0
C1647 C 0.55295 0.18206 0.2415 0.0
C1648 C 0.5796 0.16312 0.26121 0.0
C1649 C 0.6042 0.16087 0.22201 0.0
C1650 C 0.5822 0.1416 0.26209 0.0
C1651 C 0.58683 0.13253 0.28108 0.0
C1652 C 0.58875 0.14478 0.29965 0.0
C1653 C 0.58675 0.16644 0.29862 0.0
C1654 C 0.58214 0.1755 0.27958 0.0
H1655 H 0.61311 0.16648 0.20858 0.0
H1656 H 0.61346 0.16451 0.23661 0.0
H1657 H 0.60221 0.14371 0.22011 0.0
H1658 H 0.57984 0.13167 0.24822 0.0
H1659 H 0.58823 0.11581 0.28127 0.0
H1660 H 0.51461 0.74835 0.89585 0.0
H1661 H 0.53923 0.76589 0.92102 0.0
H1662 H 0.49063 0.80527 0.94247 0.0
H1663 H 0.466 0.788 0.91745 0.0
H1664 H 0.53192 0.82576 0.93848 0.0
H1665 H 0.5317 0.75363 -0.01567 0.0
H1666 H 0.53804 0.75108 0.95724 0.0
H1667 H 0.51224 0.75794 0.96424 0.0
C1668 C 0.50926 0.76099 0.90566 0.0
C1669 C 0.48828 0.7666 0.90485 0.0
C1670 C 0.52333 0.77095 0.92005 0.0
C1671 C 0.51663 0.78668 0.93371 0.0
C1672 C 0.49606 0.79314 0.93205 0.0
H1673 H 0.55079 0.83103 0.05633 0.0
H1674 H 0.53416 0.81914 0.02321 0.0
C1675 C 0.48199 0.78317 0.9178 0.0
C1676 C 0.53029 0.79516 0.95107 0.0
H1677 H 0.55045 0.78278 -0.00132 0.0
C1678 C 0.53626 0.81635 0.95154 0.0
C1679 C 0.53562 0.78283 0.96814 0.0
C1680 C 0.52901 0.76013 0.96868 0.0
C1681 C 0.54721 0.8256 0.96887 0.0
C1682 C 0.55219 0.81332 -0.01396 0.0
C1683 C 0.54659 0.79208 -0.01461 0.0
C1684 C 0.56211 0.82236 0.00544 0.0
C1685 C 0.55275 0.84855 0.96913 0.0
C1686 C 0.58329 0.8283 0.00628 0.0
C1687 C 0.59292 0.83503 0.02523 0.0
C1688 C 0.58149 0.83589 0.04363 0.0
C1689 C 0.56009 0.83053 0.04251 0.0
C1690 C 0.55054 0.82372 0.02361 0.0
H1691 H 0.54592 0.85633 0.95546 0.0
H1692 H 0.54724 0.85622 -0.01637 0.0
H1693 H 0.56994 0.85082 0.96905 0.0
H1694 H 0.59248 0.82717 -0.0076 0.0
H1695 H 0.60942 0.83908 0.02553 0.0
H1696 H 0.95925 0.19894 0.82683 0.0
H1697 H 0.93959 0.17435 0.80316 0.0
H1698 H 0.9178 0.22545 0.76752 0.0
H1699 H 0.93679 0.24999 0.79118 0.0
H1700 H 0.88691 0.19607 0.77331 0.0
H1701 H 0.95859 0.15936 0.74481 0.0
H1702 H 0.95475 0.15847 0.77239 0.0
H1703 H 0.95952 0.18307 0.76063 0.0
C1704 C 0.95014 0.20492 0.81404 0.0
C1705 C 0.94976 0.22642 0.8108 0.0
C1706 C 0.939 0.19085 0.80048 0.0
C1707 C 0.92753 0.19807 0.78338 0.0
C1708 C 0.92659 0.21953 0.78058 0.0
H1709 H 0.871 0.16377 0.66639 0.0
H1710 H 0.88284 0.17999 0.69978 0.0
C1711 C 0.93755 0.23355 0.79413 0.0
C1712 C 0.91704 0.18356 0.76773 0.0
H1713 H 0.92679 0.14804 0.72882 0.0
C1714 C 0.89558 0.18538 0.76374 0.0
C1715 C 0.9284 0.16963 0.75526 0.0
C1716 C 0.95161 0.16754 0.7583 0.0
C1717 C 0.88532 0.17414 0.74718 0.0
C1718 C 0.89684 0.16087 0.73426 0.0
C1719 C 0.91805 0.15827 0.73882 0.0
C1720 C 0.8877 0.15089 0.7149 0.0
C1721 C 0.86232 0.17683 0.74337 0.0
C1722 C 0.88653 0.12917 0.71239 0.0
C1723 C 0.87973 0.11983 0.69333 0.0
C1724 C 0.87431 0.1321 0.67635 0.0
C1725 C 0.8751 0.15388 0.67911 0.0
C1726 C 0.88173 0.16318 0.69822 0.0
H1727 H 0.85476 0.18301 0.75755 0.0
H1728 H 0.86004 0.18804 0.73078 0.0
H1729 H 0.85442 0.16185 0.7383 0.0
H1730 H 0.89123 0.11946 0.72506 0.0
H1731 H 0.87936 0.10302 0.69173 0.0
H1732 H 0.47435 0.18536 0.55859 0.0
H1733 H 0.48887 0.16737 0.52846 0.0
H1734 H 0.55097 0.18454 0.55121 0.0
H1735 H 0.53662 0.20271 0.58145 0.0
H1736 H 0.51623 0.18953 0.49991 0.0
H1737 H 0.55225 0.12058 0.53441 0.0
H1738 H 0.53156 0.13432 0.5468 0.0
H1739 H 0.55758 0.1453 0.54774 0.0
C1740 C 0.49112 0.18507 0.55741 0.0
C1741 C 0.50433 0.19556 0.57241 0.0
C1742 C 0.49936 0.17478 0.54015 0.0
C1743 C 0.52095 0.17452 0.53772 0.0
C1744 C 0.53425 0.18435 0.55298 0.0
H1745 H 0.60288 0.13536 0.44077 0.0
H1746 H 0.58689 0.14544 0.47351 0.0
C1747 C 0.52601 0.1948 0.57019 0.0
C1748 C 0.52945 0.16562 0.5183 0.0
H1749 H 0.5591 0.12675 0.499 0.0
C1750 C 0.52548 0.17571 0.49963 0.0
C1751 C 0.54163 0.14773 0.51813 0.0
C1752 C 0.54596 0.13619 0.53778 0.0
C1753 C 0.53377 0.16867 0.48078 0.0
C1754 C 0.54585 0.15064 0.4805 0.0
C1755 C 0.54973 0.14047 0.49921 0.0
C1756 C 0.55525 0.14266 0.46107 0.0
C1757 C 0.53011 0.18108 0.46151 0.0
C1758 C 0.54275 0.13708 0.44335 0.0
C1759 C 0.55185 0.13151 0.42451 0.0
C1760 C 0.57364 0.13111 0.42314 0.0
C1761 C 0.58606 0.13558 0.44123 0.0
C1762 C 0.57694 0.14134 0.45999 0.0
H1763 H 0.52551 0.19719 0.46551 0.0
H1764 H 0.54427 0.1819 0.45201 0.0
H1765 H 0.51731 0.17346 0.45182 0.0
H1766 H 0.52594 0.13744 0.44398 0.0
H1767 H 0.54182 0.12788 0.41095 0.0
H1768 H 0.54292 0.75259 0.31711 0.0
H1769 H 0.56718 0.75931 0.28896 0.0
H1770 H 0.55061 0.82374 0.29008 0.0
H1771 H 0.52628 0.81709 0.31781 0.0
H1772 H 0.54989 0.77502 0.25049 0.0
H1773 H 0.61485 0.8259 0.28284 0.0
H1774 H 0.59952 0.8089 0.29877 0.0
H1775 H 0.58958 0.83339 0.29109 0.0
C1776 C 0.54505 0.76833 0.31185 0.0
C1777 C 0.5327 0.78433 0.31958 0.0
C1778 C 0.55882 0.77212 0.29572 0.0
C1779 C 0.56078 0.79205 0.28754 0.0
C1780 C 0.5496 0.80833 0.29637 0.0
H1781 H 0.59219 0.86146 0.18343 0.0
H1782 H 0.58546 0.84715 0.21741 0.0
C1783 C 0.53563 0.80449 0.31217 0.0
C1784 C 0.57168 0.79542 0.26781 0.0
H1785 H 0.60806 0.827 0.24589 0.0
C1786 C 0.56294 0.786 0.24944 0.0
C1787 C 0.58853 0.8099 0.26656 0.0
C1788 C 0.59882 0.81999 0.28589 0.0
C1789 C 0.56965 0.79174 0.22972 0.0
C1790 C 0.58603 0.80687 0.22839 0.0
C1791 C 0.59551 0.81544 0.24687 0.0
C1792 C 0.59209 0.81547 0.20811 0.0
C1793 C 0.55813 0.78258 0.21057 0.0
C1794 C 0.5986 0.80253 0.19164 0.0
C1795 C 0.60215 0.81064 0.172 0.0
C1796 C 0.59964 0.83193 0.1686 0.0
C1797 C 0.5942 0.845 0.18545 0.0
C1798 C 0.59039 0.83684 0.20494 0.0
H1799 H 0.54301 0.77501 0.21445 0.0
H1800 H 0.55508 0.79473 0.19908 0.0
H1801 H 0.56773 0.77059 0.20308 0.0
H1802 H 0.60058 0.7861 0.19384 0.0
H1803 H 0.60661 0.80021 0.15944 0.0
H1804 H 0.96969 0.75688 0.05046 0.0
H1805 H 0.95804 0.77093 0.01729 0.0
H1806 H 0.93225 0.82318 0.05024 0.0
H1807 H 0.94402 0.8095 0.08338 0.0
H1808 H 0.91682 0.77762 0.00654 0.0
H1809 H 0.96454 0.85078 0.00389 0.0
H1810 H 0.97092 0.83005 0.02104 0.0
H1811 H 0.95109 0.84795 0.02785 0.0
C1812 C 0.96177 0.7715 0.05063 0.0
C1813 C 0.95772 0.78206 0.06953 0.0
C1814 C 0.95516 0.77949 0.03169 0.0
C1815 C 0.94456 0.79819 0.03138 0.0
C1816 C 0.94082 0.80895 0.05017 0.0
H1817 H 0.85756 0.83766 0.93738 0.0
H1818 H 0.87522 0.82786 0.96966 0.0
C1819 C 0.94742 0.80101 0.06909 0.0
C1820 C 0.93583 0.80559 0.0116 0.0
H1821 H 0.93527 0.84724 0.98005 0.0
C1822 C 0.92097 0.79276 0.00063 0.0
C1823 C 0.94143 0.82529 0.00396 0.0
C1824 C 0.95802 0.83925 0.01468 0.0
C1825 C 0.91113 0.79933 -0.01762 0.0
C1826 C 0.91609 0.81937 0.97522 0.0
C1827 C 0.93135 0.832 -0.01415 0.0
C1828 C 0.90579 0.82722 0.95641 0.0
C1829 C 0.89561 0.78473 0.97086 0.0
C1830 C 0.91737 0.83088 0.93866 0.0
C1831 C 0.9074 0.83655 0.92024 0.0
C1832 C 0.88567 0.83867 0.91934 0.0
C1833 C 0.87428 0.83594 0.9375 0.0
C1834 C 0.88429 0.83029 0.95591 0.0
H1835 H 0.89725 0.76838 0.97557 0.0
H1836 H 0.8796 0.78944 0.97441 0.0
H1837 H 0.89747 0.78538 0.95373 0.0
H1838 H 0.93403 0.82871 0.93888 0.0
H1839 H 0.91665 0.83873 0.90658 0.0
H1840 H 0.62767 0.90845 0.78505 0.0
H1841 H 0.65967 0.8938 0.79864 0.0
H1842 H 0.69602 0.94079 0.76822 0.0
H1843 H 0.66406 0.95575 0.7546 0.0
H1844 H 0.69451 0.87888 0.7758 0.0
H1845 H 0.71507 0.94541 0.83085 0.0
H1846 H 0.68933 0.9413 0.81916 0.0
H1847 H 0.71003 0.95208 0.80422 0.0
C1848 C 0.64245 0.91571 0.78123 0.0
C1849 C 0.64335 0.93336 0.76887 0.0
C1850 C 0.66068 0.90727 0.78896 0.0
C1851 C 0.68006 0.91638 0.78456 0.0
C1852 C 0.6811 0.93376 0.77196 0.0
H1853 H 0.80344 0.87123 0.80312 0.0
H1854 H 0.76975 0.8809 0.7886 0.0
C1855 C 0.66286 0.94222 0.76417 0.0
C1856 C 0.69916 0.90779 0.79343 0.0
H1857 H 0.73973 0.91906 0.82763 0.0
C1858 C 0.70443 0.88759 0.78716 0.0
C1859 C 0.71177 0.91919 0.80841 0.0
C1860 C 0.70625 0.94064 0.81624 0.0
C1861 C 0.72234 0.87857 0.7953 0.0
C1862 C 0.73521 0.8902 0.80989 0.0
C1863 C 0.72975 0.91026 0.81638 0.0
C1864 C 0.75474 0.88212 0.81837 0.0
C1865 C 0.72725 0.85668 0.78842 0.0
C1866 C 0.75731 0.87957 0.83988 0.0
C1867 C 0.77655 0.87415 0.84827 0.0
C1868 C 0.79355 0.87142 0.83524 0.0
C1869 C 0.79068 0.87331 0.81358 0.0
C1870 C 0.77142 0.87869 0.80522 0.0
H1871 H 0.71341 0.8482 0.78121 0.0
H1872 H 0.73959 0.85724 0.77667 0.0
H1873 H 0.73313 0.84779 0.8018 0.0
H1874 H 0.74455 0.88226 0.85022 0.0
H1875 H 0.77825 0.87276 0.86501 0.0
H1876 H 0.74133 0.89581 0.52277 0.0
H1877 H 0.7584 0.92089 0.54792 0.0
H1878 H 0.8027 0.93813 0.50175 0.0
H1879 H 0.78599 0.9132 0.47672 0.0
H1880 H 0.81999 0.93566 0.54364 0.0
H1881 H 0.74957 -0.01623 0.53784 0.0
H1882 H 0.74572 0.95731 0.54549 0.0
H1883 H 0.754 0.96252 0.51963 0.0
C1884 C 0.75497 0.90464 0.51815 0.0
C1885 C 0.76213 0.90275 0.49767 0.0
C1886 C 0.76463 0.919 0.53248 0.0
C1887 C 0.7816 0.93153 0.52654 0.0
C1888 C 0.78959 0.92864 0.5066 0.0
H1889 H 0.82721 0.05434 0.55614 0.0
H1890 H 0.81445 0.02087 0.54098 0.0
C1891 C 0.77993 0.91444 0.49229 0.0
C1892 C 0.78991 0.94911 0.54003 0.0
H1893 H 0.77842 -0.00185 0.55693 0.0
C1894 C 0.81086 0.94922 0.54688 0.0
C1895 C 0.77797 0.96685 0.54389 0.0
C1896 C 0.7556 0.96782 0.53626 0.0
C1897 C 0.82032 0.96684 0.55712 0.0
C1898 C 0.80846 -0.01531 0.56057 0.0
C1899 C 0.7874 -0.01563 0.55422 0.0
C1900 C 0.81782 0.00434 0.56963 0.0
C1901 C 0.84309 0.96664 0.5634 0.0
C1902 C 0.82414 0.006 0.59072 0.0
C1903 C 0.83142 0.02514 0.59948 0.0
C1904 C 0.83244 0.04294 0.58728 0.0
C1905 C 0.82662 0.041 0.566 0.0
C1906 C 0.81929 0.0219 0.5573 0.0
H1907 H 0.85077 0.9527 0.55696 0.0
H1908 H 0.85137 -0.0192 0.558 0.0
H1909 H 0.84472 0.96671 0.58067 0.0
H1910 H 0.82291 -0.00735 0.60052 0.0
H1911 H 0.83578 0.02607 0.61592 0.0
H1912 H 0.81006 0.0281 0.31419 0.0
H1913 H 0.78228 0.05165 0.32265 0.0
H1914 H 0.78241 0.07397 0.26001 0.0
H1915 H 0.81049 0.05032 0.25137 0.0
H1916 H 0.77584 0.09714 0.31802 0.0
H1917 H 0.72373 0.0441 0.26808 0.0
H1918 H 0.7491 0.03641 0.27711 0.0
H1919 H 0.7469 0.05489 0.25691 0.0
C1920 C 0.80456 0.0384 0.30234 0.0
C1921 C 0.81229 0.03724 0.28206 0.0
C1922 C 0.78872 0.05189 0.30722 0.0
C1923 C 0.78014 0.06432 0.29189 0.0
C1924 C 0.78879 0.06436 0.27201 0.0
H1925 H 0.65388 0.10963 0.30543 0.0
H1926 H 0.6881 0.10415 0.29082 0.0
C1927 C 0.80489 0.05096 0.26714 0.0
C1928 C 0.76061 0.07505 0.2963 0.0
H1929 H 0.70795 0.06898 0.28909 0.0
C1930 C 0.76099 0.09129 0.31144 0.0
C1931 C 0.74129 0.06736 0.28767 0.0
C1932 C 0.74002 0.04967 0.2716 0.0
C1933 C 0.74246 0.09964 0.31866 0.0
C1934 C 0.72307 0.09106 0.31096 0.0
C1935 C 0.72278 0.07552 0.29506 0.0
C1936 C 0.70295 0.09665 0.3202 0.0
C1937 C 0.74388 0.1174 0.3346 0.0
C1938 C 0.69985 0.0943 0.3416 0.0
C1939 C 0.68034 0.09756 0.35002 0.0
C1940 C 0.66339 0.10286 0.33715 0.0
C1941 C 0.66658 0.10546 0.31577 0.0
C1942 C 0.68615 0.10239 0.30739 0.0
H1943 H 0.7585 0.12685 0.33309 0.0
H1944 H 0.73045 0.12774 0.33305 0.0
H1945 H 0.74405 0.11106 0.35048 0.0
H1946 H 0.71234 0.08927 0.35172 0.0
H1947 H 0.67843 0.09529 0.36652 0.0
H1948 H 0.67694 0.05735 -0.01819 0.0
H1949 H 0.65695 0.02699 -0.00665 0.0
H1950 H 0.67607 0.0421 0.05711 0.0
H1951 H 0.69615 0.07237 0.04577 0.0
H1952 H 0.67711 -0.00559 0.01627 0.0
H1953 H 0.61202 0.02877 0.05926 0.0
H1954 H 0.6262 0.04267 0.03982 0.0
H1955 H 0.63738 0.04026 0.06556 0.0
C1956 C 0.67656 0.05445 -0.00167 0.0
C1957 C 0.68819 0.06724 0.01288 0.0
C1958 C 0.66516 0.03709 0.00487 0.0
C1959 C 0.6649 0.03244 0.02608 0.0
C1960 C 0.67582 0.04561 0.04071 0.0
H1961 H 0.63084 0.93453 0.10613 0.0
H1962 H 0.63941 0.96719 0.08957 0.0
C1963 C 0.68738 0.06284 0.03418 0.0
C1964 C 0.65509 0.01273 0.0328 0.0
H1965 H 0.6182 -0.00701 0.06462 0.0
C1966 C 0.66402 -0.00599 0.02659 0.0
C1967 C 0.63816 0.01238 0.04637 0.0
C1968 C 0.62772 0.03206 0.05306 0.0
C1969 C 0.65709 0.97494 0.03434 0.0
C1970 C 0.64032 0.97455 0.04822 0.0
C1971 C 0.631 -0.00672 0.05395 0.0
C1972 C 0.63324 0.95509 0.05806 0.0
C1973 C 0.66852 0.95556 0.02842 0.0
C1974 C 0.62632 0.93756 0.0459 0.0
C1975 C 0.62164 0.91873 0.05532 0.0
C1976 C 0.62347 0.9172 0.07712 0.0
C1977 C 0.62932 0.93511 0.0893 0.0
C1978 C 0.63421 0.95383 0.07986 0.0
H1979 H 0.68402 0.95932 0.022 0.0
H1980 H 0.67076 0.94563 0.04208 0.0
H1981 H 0.65926 0.94644 0.01625 0.0
H1982 H 0.62492 0.93832 0.02909 0.0
H1983 H 0.61691 0.90531 0.0455 0.0
H1984 H 0.66114 -0.00077 0.70713 0.0
H1985 H 0.69129 0.017 0.69289 0.0
H1986 H 0.65932 0.07492 0.69507 0.0
H1987 H 0.62901 0.05725 0.70985 0.0
H1988 H 0.69417 0.03753 0.65674 0.0
H1989 H 0.71487 0.09083 0.72456 0.0
H1990 H 0.69664 0.06907 0.72622 0.0
H1991 H 0.68869 0.09255 0.71434 0.0
C1992 C 0.66045 0.01576 0.70465 0.0
C1993 C 0.64264 0.02683 0.7097 0.0
C1994 C 0.67774 0.0259 0.69649 0.0
C1995 C 0.67768 0.04733 0.69316 0.0
C1996 C 0.65987 0.05845 0.69792 0.0
H1997 H 0.77403 0.10168 0.61582 0.0
H1998 H 0.74034 0.09286 0.63057 0.0
C1999 C 0.64251 0.0483 0.70623 0.0
C2000 C 0.69624 0.05763 0.68423 0.0
H2001 H 0.73535 0.09398 0.69472 0.0
C2002 C 0.70311 0.04996 0.66498 0.0
C2003 C 0.70798 0.0737 0.69514 0.0
C2004 C 0.70184 0.08195 0.71629 0.0
C2005 C 0.72158 0.05762 0.65648 0.0
C2006 C 0.73326 0.07381 0.66727 0.0
C2007 C 0.72626 0.08171 0.6864 0.0
C2008 C 0.75339 0.0818 0.65946 0.0
C2009 C 0.72884 0.04767 0.63642 0.0
C2010 C 0.77185 0.0796 0.67128 0.0
C2011 C 0.79114 0.08488 0.66301 0.0
C2012 C 0.7923 0.09238 0.64271 0.0
C2013 C 0.7737 0.09564 0.63138 0.0
C2014 C 0.75443 0.09054 0.63974 0.0
H2015 H 0.72094 0.03228 0.63297 0.0
H2016 H 0.72521 0.05788 0.62329 0.0
H2017 H 0.74592 0.04554 0.6371 0.0
H2018 H 0.77139 0.073 0.68659 0.0
H2019 H 0.80516 0.08226 0.67219 0.0
H2020 H 0.68227 0.90494 0.40164 0.0
H2021 H 0.65841 0.93281 0.39473 0.0
H2022 H 0.63862 0.93196 0.45837 0.0
H2023 H 0.66257 0.9038 0.46543 0.0
H2024 H 0.61327 0.93991 0.40156 0.0
H2025 H 0.66905 -0.00976 0.45032 0.0
H2026 H 0.67594 0.96489 0.44039 0.0
H2027 H 0.65827 0.96709 0.46145 0.0
C2028 C 0.67241 0.91025 0.41403 0.0
C2029 C 0.67441 0.90235 0.43413 0.0
C2030 C 0.65875 0.92616 0.41004 0.0
C2031 C 0.647 0.93461 0.4261 0.0
C2032 C 0.6477 0.92568 0.4458 0.0
H2033 H 0.60489 0.0623 0.41658 0.0
H2034 H 0.60937 0.02774 0.43054 0.0
C2035 C 0.66127 0.90953 0.44977 0.0
C2036 C 0.63642 0.95438 0.42264 0.0
H2037 H 0.64379 0.00679 0.43068 0.0
C2038 C 0.61963 0.95455 0.40821 0.0
C2039 C 0.64477 0.97342 0.43136 0.0
C2040 C 0.66306 0.97411 0.44668 0.0
C2041 C 0.6114 0.97335 0.40174 0.0
C2042 C 0.62065 -0.00755 0.40945 0.0
C2043 C 0.63672 -0.00781 0.42471 0.0
C2044 C 0.61533 0.0128 0.40068 0.0
C2045 C 0.59306 0.97251 0.38652 0.0
C2046 C 0.61708 0.01595 0.37923 0.0
C2047 C 0.6144 0.03564 0.37119 0.0
C2048 C 0.61027 0.05274 0.38448 0.0
C2049 C 0.60815 0.0495 0.40591 0.0
C2050 C 0.61066 0.02973 0.41392 0.0
H2051 H 0.58329 0.95816 0.38829 0.0
H2052 H 0.58318 -0.01378 0.38864 0.0
H2053 H 0.59882 0.97221 0.37037 0.0
H2054 H 0.62131 0.00334 0.36876 0.0
H2055 H 0.61626 0.03757 0.35463 0.0
H2056 H 0.81925 0.97224 0.19172 0.0
H2057 H 0.79424 0.95465 0.16685 0.0
H2058 H 0.78048 0.90847 0.21215 0.0
H2059 H 0.80534 0.9257 0.23687 0.0
H2060 H 0.7823 0.89236 0.1698 0.0
H2061 H 0.73133 0.96034 0.17917 0.0
H2062 H 0.75737 0.9655 0.17067 0.0
H2063 H 0.75337 0.9565 0.19649 0.0
C2064 C 0.81121 0.95809 0.19618 0.0
C2065 C 0.81403 0.95053 0.21636 0.0
C2066 C 0.79689 0.94812 0.18201 0.0
C2067 C 0.78532 0.93046 0.18782 0.0
C2068 C 0.78921 0.92212 0.20739 0.0
H2069 H 0.66351 0.88046 0.16193 0.0
H2070 H 0.6971 0.89404 0.17599 0.0
C2071 C 0.80336 0.93207 0.22154 0.0
C2072 C 0.76768 0.92169 0.17468 0.0
H2073 H 0.71757 0.93132 0.1599 0.0
C2074 C 0.76824 0.90094 0.16729 0.0
C2075 C 0.74929 0.93289 0.17177 0.0
C2076 C 0.7476 0.955 0.18002 0.0
C2077 C 0.75068 0.89094 0.15746 0.0
C2078 C 0.7322 0.90203 0.15499 0.0
C2079 C 0.73183 0.92292 0.16185 0.0
C2080 C 0.71259 0.892 0.14653 0.0
C2081 C 0.75164 0.86837 0.15058 0.0
C2082 C 0.71031 0.88609 0.12535 0.0
C2083 C 0.69109 0.87834 0.11721 0.0
C2084 C 0.67381 0.87643 0.13013 0.0
C2085 C 0.67643 0.88174 0.15151 0.0
C2086 C 0.69561 0.88954 0.15958 0.0
H2087 H 0.76621 0.86123 0.15616 0.0
H2088 H 0.73811 0.85937 0.15644 0.0
H2089 H 0.75087 0.86706 0.13329 0.0
H2090 H 0.72322 0.88807 0.115 0.0
H2091 H 0.68963 0.87439 0.10068 0.0
H2092 H 0.79828 0.07853 0.93548 0.0
H2093 H 0.81413 0.04556 0.92682 0.0
H2094 H 0.76307 0.01232 0.95438 0.0
H2095 H 0.74687 0.04536 0.96308 0.0
H2096 H 0.82572 0.01234 0.95407 0.0
H2097 H 0.76542 -0.01102 0.89299 0.0
H2098 H 0.7687 0.01538 0.9032 0.0
H2099 H 0.75623 -0.00406 0.91843 0.0
C2100 C 0.79036 0.06424 0.93973 0.0
C2101 C 0.7712 0.06454 0.94981 0.0
C2102 C 0.79952 0.04545 0.93487 0.0
C2103 C 0.78968 0.02663 0.93989 0.0
C2104 C 0.77076 0.02677 0.95026 0.0
H2105 H 0.8402 0.90346 0.92168 0.0
H2106 H 0.82802 0.93546 0.93818 0.0
C2107 C 0.76156 0.04562 0.95519 0.0
C2108 C 0.79899 0.00692 0.9334 0.0
H2109 H 0.79268 0.96609 0.89842 0.0
C2110 C 0.81848 0.00208 0.94204 0.0
C2111 C 0.78949 -0.00617 0.91755 0.0
C2112 C 0.76887 -0.00124 0.90733 0.0
C2113 C 0.82888 -0.01554 0.93501 0.0
C2114 C 0.81943 0.97149 0.91906 0.0
C2115 C 0.79982 0.97618 0.91067 0.0
C2116 C 0.82976 0.95326 0.91021 0.0
C2117 C 0.85011 -0.01986 0.94416 0.0
C2118 C 0.83512 0.95293 0.88919 0.0
C2119 C 0.84199 0.93472 0.8797 0.0
C2120 C 0.84344 0.91649 0.89106 0.0
C2121 C 0.83919 0.91722 0.91248 0.0
C2122 C 0.8323 0.93549 0.92196 0.0
H2123 H 0.85671 -0.00649 0.95385 0.0
H2124 H 0.8489 0.96641 0.95414 0.0
H2125 H 0.86106 0.97645 0.93157 0.0
H2126 H 0.83324 0.96657 0.87994 0.0
H2127 H 0.84529 0.93474 0.86323 0.0
H2128 H 0.75251 0.66491 0.96311 0.0
H2129 H 0.75946 0.69702 0.94475 0.0
H2130 H 0.79261 0.66269 0.89809 0.0
H2131 H 0.78561 0.63054 0.91611 0.0
H2132 H 0.79957 0.71235 0.93845 0.0
H2133 H 0.75581 0.70015 0.86309 0.0
H2134 H 0.75034 0.68513 0.88574 0.0
H2135 H 0.77191 0.67887 0.86968 0.0
C2136 C 0.76103 0.66414 0.94878 0.0
C2137 C 0.76863 0.64521 0.94113 0.0
C2138 C 0.76492 0.68247 0.93831 0.0
C2139 C 0.77627 0.6821 0.91995 0.0
C2140 C 0.78341 0.66318 0.91199 0.0
H2141 H 0.85589 0.77648 0.87152 0.0
H2142 H 0.83934 0.74393 0.88206 0.0
C2143 C 0.77957 0.64487 0.92244 0.0
C2144 C 0.78274 0.70172 0.91042 0.0
H2145 H 0.78218 0.72745 0.86472 0.0
C2146 C 0.79557 0.71578 0.92241 0.0
C2147 C 0.7774 0.70608 0.88952 0.0
C2148 C 0.76294 0.69186 0.87629 0.0
C2149 C 0.8038 0.73385 0.91384 0.0
C2150 C 0.79922 0.73776 0.8927 0.0
C2151 C 0.78583 0.72412 0.88085 0.0
C2152 C 0.80838 0.7561 0.8829 0.0
C2153 C 0.8175 0.74858 0.92738 0.0
C2154 C 0.79618 0.77329 0.87913 0.0
C2155 C 0.80556 0.79193 0.87317 0.0
C2156 C 0.82727 0.79356 0.87091 0.0
C2157 C 0.83918 0.7758 0.87331 0.0
C2158 C 0.82978 0.7572 0.87931 0.0
H2159 H 0.8163 0.74533 0.94422 0.0
H2160 H 0.83397 0.74693 0.92302 0.0
H2161 H 0.81332 0.76495 0.92495 0.0
H2162 H 0.77961 0.77258 0.88181 0.0
H2163 H 0.79592 0.80527 0.87121 0.0
H2164 H 0.31101 0.80929 0.02269 0.0
H2165 H 0.31937 0.78167 0.04637 0.0
H2166 H 0.25853 0.78539 0.07266 0.0
H2167 H 0.25002 0.81338 0.0489 0.0
H2168 H 0.31648 0.77709 0.09309 0.0
H2169 H 0.26294 0.72546 0.04314 0.0
H2170 H 0.27286 0.75006 0.03418 0.0
H2171 H 0.2534 0.74951 0.05366 0.0
C2172 C 0.29956 0.80459 0.03384 0.0
C2173 C 0.27979 0.81333 0.03383 0.0
C2174 C 0.3044 0.78886 0.04741 0.0
C2175 C 0.2895 0.78139 0.06107 0.0
C2176 C 0.27019 0.79095 0.06213 0.0
H2177 H 0.30125 0.65581 0.10775 0.0
H2178 H 0.28736 0.69023 0.10239 0.0
C2179 C 0.26539 0.80697 0.04865 0.0
C2180 C 0.29362 0.76204 0.07209 0.0
H2181 H 0.2848 0.70956 0.06707 0.0
C2182 C 0.30929 0.76232 0.08774 0.0
C2183 C 0.28418 0.74285 0.06505 0.0
C2184 C 0.26745 0.74173 0.04804 0.0
C2185 C 0.3163 0.74378 0.09609 0.0
C2186 C 0.30782 0.72448 0.08806 0.0
C2187 C 0.29137 0.72432 0.07317 0.0
C2188 C 0.31672 0.70426 0.09353 0.0
C2189 C 0.33286 0.7451 0.11324 0.0
C2190 C 0.33786 0.70065 0.09035 0.0
C2191 C 0.34589 0.68103 0.09355 0.0
C2192 C 0.33283 0.66449 0.09959 0.0
C2193 C 0.31171 0.66818 0.10298 0.0
C2194 C 0.30375 0.68787 0.09999 0.0
H2195 H 0.33205 0.75987 0.12261 0.0
H2196 H 0.33139 0.73187 0.12384 0.0
H2197 H 0.34843 0.74485 0.1062 0.0
H2198 H 0.34807 0.71283 0.08474 0.0
H2199 H 0.36219 0.6787 0.09068 0.0
H2200 H 0.88717 0.49017 0.80237 0.0
H2201 H 0.9114 0.51454 0.82129 0.0
H2202 H 0.92858 0.5411 0.76299 0.0
H2203 H 0.90322 0.51776 0.74433 0.0
H2204 H 0.94996 0.51364 0.81931 0.0
H2205 H 0.93032 0.59274 0.79724 0.0
H2206 H 0.91274 0.57072 0.79171 0.0
H2207 H 0.93324 0.57701 0.77405 0.0
C2208 C 0.89562 0.50175 0.79375 0.0
C2209 C 0.89335 0.50221 0.77196 0.0
C2210 C 0.90952 0.51562 0.80453 0.0
C2211 C 0.92184 0.52985 0.79367 0.0
C2212 C 0.91889 0.53082 0.77191 0.0
H2213 H 0.04918 0.56051 0.82239 0.0
H2214 H 0.01502 0.54513 0.81285 0.0
C2215 C 0.90449 0.51736 0.76119 0.0
C2216 C 0.93964 0.54136 0.80458 0.0
H2217 H 0.96671 0.58793 0.80729 0.0
C2218 C 0.9533 0.53001 0.81698 0.0
C2219 C 0.94402 0.56282 0.80201 0.0
C2220 C 0.92912 0.57652 0.79072 0.0
C2221 C 0.97161 0.53919 0.82595 0.0
C2222 C 0.977 0.56006 0.82164 0.0
C2223 C 0.96284 0.57178 0.81024 0.0
C2224 C -0.00228 0.56955 0.82777 0.0
C2225 C -0.01503 0.52629 0.83993 0.0
C2226 C -0.00054 0.58884 0.83867 0.0
C2227 C 0.01909 0.59796 0.84374 0.0
C2228 C 0.0373 0.58786 0.83811 0.0
C2229 C 0.03548 0.56854 0.82726 0.0
C2230 C 0.01592 0.55965 0.8219 0.0
H2231 H 0.97537 0.51441 0.84784 0.0
H2232 H -0.00368 0.51789 0.83034 0.0
H2233 H -0.00636 0.53608 0.85202 0.0
H2234 H -0.01435 0.59685 0.84324 0.0
H2235 H 0.02001 0.61288 0.85208 0.0
H2236 H 0.2552 0.17642 0.53605 0.0
H2237 H 0.23761 0.20509 0.55325 0.0
H2238 H 0.17831 0.17313 0.54135 0.0
H2239 H 0.19576 0.14427 0.52413 0.0
H2240 H 0.20702 0.22839 0.5321 0.0
H2241 H 0.1762 0.19319 0.60343 0.0
H2242 H 0.19717 0.1821 0.58904 0.0
H2243 H 0.17075 0.1786 0.57942 0.0
C2244 C 0.23844 0.17529 0.53737 0.0
C2245 C 0.22688 0.15807 0.52864 0.0
C2246 C 0.22843 0.1917 0.5472 0.0
C2247 C 0.2067 0.19115 0.54871 0.0
C2248 C 0.19513 0.1737 0.54065 0.0
H2249 H 0.11552 0.28048 0.58539 0.0
H2250 H 0.13414 0.24919 0.57579 0.0
C2251 C 0.20513 0.15727 0.53072 0.0
C2252 C 0.19607 0.20964 0.55696 0.0
H2253 H 0.1647 0.22683 0.59557 0.0
C2254 C 0.19789 0.22812 0.54606 0.0
C2255 C 0.18402 0.20912 0.57505 0.0
C2256 C 0.18198 0.18976 0.58756 0.0
C2257 C 0.18769 0.24606 0.55254 0.0
C2258 C 0.17577 0.24565 0.57076 0.0
C2259 C 0.17394 0.22714 0.58168 0.0
C2260 C 0.16474 0.2642 0.57836 0.0
C2261 C 0.18929 0.26508 0.53943 0.0
C2262 C 0.17582 0.28287 0.58362 0.0
C2263 C 0.16523 0.30083 0.58895 0.0
C2264 C 0.14334 0.3004 0.58937 0.0
C2265 C 0.13237 0.2814 0.58513 0.0
C2266 C 0.14298 0.26348 0.57966 0.0
H2267 H 0.19418 0.26114 0.52334 0.0
H2268 H 0.17418 0.27296 0.53845 0.0
H2269 H 0.20111 0.27622 0.54665 0.0
H2270 H 0.19266 0.28364 0.58322 0.0
H2271 H 0.17419 0.31513 0.5924 0.0
H2272 H 0.07989 0.9581 0.81962 0.0
H2273 H 0.04845 0.94354 0.83489 0.0
H2274 H 0.0174 0.94145 0.77429 0.0
H2275 H 0.04848 0.95696 0.75913 0.0
H2276 H -0.0076 0.95499 0.803 0.0
H2277 H 0.02942 0.88389 0.83078 0.0
H2278 H 0.04172 0.90736 0.84159 0.0
H2279 H 0.0424 0.90172 0.81395 0.0
C2280 C 0.06633 0.95453 0.80958 0.0
C2281 C 0.0666 0.95847 0.78817 0.0
C2282 C 0.04845 0.94609 0.81829 0.0
C2283 C 0.03079 0.94093 0.80563 0.0
C2284 C 0.03093 0.94522 0.78431 0.0
H2285 H 0.92965 0.8558 0.82821 0.0
H2286 H 0.96245 0.87321 0.81963 0.0
C2287 C 0.04865 0.95406 0.77567 0.0
C2288 C 0.01206 0.93117 0.81452 0.0
H2289 H -0.00515 0.88927 0.84118 0.0
C2290 C -0.00709 0.94061 0.81133 0.0
C2291 C 0.01279 0.91228 0.82519 0.0
C2292 C 0.03265 0.90061 0.82791 0.0
C2293 C 0.97436 0.93153 0.81823 0.0
C2294 C 0.97516 0.91294 0.82939 0.0
C2295 C -0.00564 0.90366 0.83284 0.0
C2296 C 0.95609 0.90205 0.83625 0.0
C2297 C 0.95408 0.94151 0.81268 0.0
C2298 C 0.94196 0.91228 0.84897 0.0
C2299 C 0.92302 0.90252 0.85352 0.0
C2300 C 0.91824 0.88218 0.8459 0.0
C2301 C 0.93296 0.87149 0.83429 0.0
C2302 C 0.95169 0.88142 0.82938 0.0
H2303 H 0.95574 0.95209 0.79943 0.0
H2304 H 0.94168 0.9296 0.80844 0.0
H2305 H 0.94898 0.9509 0.8263 0.0
H2306 H 0.94537 0.92797 0.85499 0.0
H2307 H 0.91202 0.91095 0.86278 0.0
H2308 H 0.72975 0.32618 0.41938 0.0
H2309 H 0.70626 0.30136 0.40012 0.0
H2310 H 0.67648 0.28646 0.45754 0.0
H2311 H 0.69898 0.31241 0.47645 0.0
H2312 H 0.70662 0.26289 0.40339 0.0
H2313 H 0.62654 0.2843 0.4209 0.0
H2314 H 0.64857 0.30172 0.42697 0.0
H2315 H 0.6411 0.28188 0.44484 0.0
C2316 C 0.71766 0.31809 0.42768 0.0
C2317 C 0.71602 0.32121 0.44931 0.0
C2318 C 0.7043 0.30385 0.41672 0.0
C2319 C 0.68942 0.29203 0.42727 0.0
C2320 C 0.68731 0.29575 0.44883 0.0
H2321 H 0.65687 0.1645 0.39772 0.0
H2322 H 0.67307 0.19815 0.40803 0.0
C2323 C 0.70027 0.31051 0.4597 0.0
C2324 C 0.67824 0.27404 0.41635 0.0
H2325 H 0.63125 0.24782 0.41163 0.0
C2326 C 0.69004 0.25988 0.40489 0.0
C2327 C 0.65654 0.27009 0.41788 0.0
C2328 C 0.64247 0.28547 0.42812 0.0
C2329 C 0.681 0.24158 0.39573 0.0
C2330 C 0.65973 0.23672 0.39893 0.0
C2331 C 0.64767 0.2513 0.40952 0.0
C2332 C 0.64996 0.21628 0.39223 0.0
C2333 C 0.69442 0.22776 0.38266 0.0
C2334 C 0.63113 0.21517 0.38054 0.0
C2335 C 0.62153 0.19589 0.37509 0.0
C2336 C 0.63069 0.17736 0.38106 0.0
C2337 C 0.64961 0.17849 0.39259 0.0
C2338 C 0.65897 0.19775 0.39839 0.0
H2339 H 0.70704 0.23696 0.37538 0.0
H2340 H 0.70193 0.21634 0.3928 0.0
H2341 H 0.68516 0.21917 0.3701 0.0
H2342 H 0.62382 0.22924 0.37571 0.0
H2343 H 0.60693 0.19547 0.36621 0.0
H2344 H 0.90372 0.40233 0.70128 0.0
H2345 H 0.93134 0.39273 0.67782 0.0
H2346 H 0.92688 0.4516 0.64807 0.0
H2347 H 0.89891 0.46135 0.67155 0.0
H2348 H 0.9351 0.39315 0.63034 0.0
H2349 H -0.01255 0.44869 0.67718 0.0
H2350 H 0.96312 0.439 0.68709 0.0
H2351 H 0.96308 0.45771 0.66699 0.0
C2352 C 0.90827 0.41308 0.68944 0.0
C2353 C 0.89929 0.43268 0.68837 0.0
C2354 C 0.92401 0.40753 0.67601 0.0
C2355 C 0.93124 0.42153 0.66138 0.0
C2356 C 0.92149 0.44062 0.65934 0.0
H2357 H 0.05543 0.41093 0.61048 0.0
H2358 H 0.02076 0.42379 0.61707 0.0
C2359 C 0.90549 0.44612 0.67268 0.0
C2360 C 0.95046 0.41684 0.65019 0.0
H2361 H 0.00295 0.42646 0.65311 0.0
C2362 C 0.94993 0.40064 0.63501 0.0
C2363 C 0.96973 0.42665 0.65635 0.0
C2364 C 0.9711 0.44394 0.67285 0.0
C2365 C 0.96832 0.39365 0.62614 0.0
C2366 C -0.01225 0.40269 0.63317 0.0
C2367 C -0.01189 0.41948 0.64774 0.0
C2368 C 0.00799 0.39424 0.6268 0.0
C2369 C 0.96669 0.37661 0.60941 0.0
C2370 C 0.01239 0.3733 0.62994 0.0
C2371 C 0.03216 0.36584 0.62598 0.0
C2372 C 0.04808 0.3793 0.61922 0.0
C2373 C 0.04355 0.40018 0.61578 0.0
C2374 C 0.02372 0.40755 0.6195 0.0
H2375 H 0.95153 0.37682 0.60069 0.0
H2376 H -0.02056 0.37806 0.59817 0.0
H2377 H 0.96764 0.3613 0.6168 0.0
H2378 H 0.00078 0.36284 0.63616 0.0
H2379 H 0.03516 0.34972 0.62894 0.0
H2380 H 0.55609 0.54084 0.22853 0.0
H2381 H 0.52542 0.55096 0.20853 0.0
H2382 H 0.53709 0.50398 0.16123 0.0
H2383 H 0.56811 0.49381 0.1811 0.0
H2384 H 0.52515 0.54272 0.14517 0.0
H2385 H 0.47126 0.51506 0.20506 0.0
H2386 H 0.49123 0.53293 0.21542 0.0
H2387 H 0.49822 0.50805 0.20464 0.0
C2388 C 0.55226 0.5327 0.21382 0.0
C2389 C 0.56445 0.51637 0.20652 0.0
C2390 C 0.53466 0.53846 0.20245 0.0
C2391 C 0.52876 0.52792 0.18364 0.0
C2392 C 0.54131 0.51218 0.17582 0.0
H2393 H 0.40253 0.54293 0.13334 0.0
H2394 H 0.43518 0.52721 0.14388 0.0
C2395 C 0.55902 0.50641 0.18719 0.0
C2396 C 0.50919 0.53317 0.17251 0.0
H2397 H 0.45696 0.53687 0.1793 0.0
C2398 C 0.51019 0.54126 0.1525 0.0
C2399 C 0.48965 0.53084 0.18193 0.0
C2400 C 0.48743 0.52105 0.20286 0.0
C2401 C 0.49222 0.54798 0.14205 0.0
C2402 C 0.47288 0.54686 0.15206 0.0
C2403 C 0.4718 0.53791 0.17168 0.0
C2404 C 0.45372 0.55583 0.14313 0.0
C2405 C 0.49416 0.55625 0.12043 0.0
C2406 C 0.45331 0.57709 0.13899 0.0
C2407 C 0.43471 0.58611 0.13289 0.0
C2408 C 0.41603 0.57409 0.13106 0.0
C2409 C 0.41659 0.55266 0.13465 0.0
C2410 C 0.43525 0.54364 0.14067 0.0
H2411 H 0.50781 0.54982 0.11248 0.0
H2412 H 0.47993 0.55246 0.11066 0.0
H2413 H 0.49643 0.57341 0.12159 0.0
H2414 H 0.46722 0.58693 0.14127 0.0
H2415 H 0.43487 0.60267 0.13034 0.0
H2416 H 0.50283 0.7142 0.8069 0.0
H2417 H 0.52327 0.70406 0.77688 0.0
H2418 H 0.52555 0.6415 0.79876 0.0
H2419 H 0.50471 0.65138 0.82865 0.0
H2420 H 0.56222 0.68797 0.7734 0.0
H2421 H 0.50197 0.63197 0.73978 0.0
H2422 H 0.49671 0.65027 0.76072 0.0
H2423 H 0.50995 0.62672 0.76606 0.0
C2424 C 0.50772 0.69827 0.8054 0.0
C2425 C 0.50193 0.68355 0.82013 0.0
C2426 C 0.51943 0.69252 0.78821 0.0
C2427 C 0.52562 0.67192 0.78532 0.0
C2428 C 0.52053 0.65736 0.80037 0.0
H2429 H 0.58922 0.60522 0.68778 0.0
H2430 H 0.57458 0.61696 0.72064 0.0
C2431 C 0.50871 0.66308 0.81754 0.0
C2432 C 0.5371 0.66568 0.7664 0.0
H2433 H 0.53457 0.63272 0.72351 0.0
C2434 C 0.55616 0.67592 0.76246 0.0
C2435 C 0.52914 0.65003 0.75205 0.0
C2436 C 0.50823 0.63924 0.7547 0.0
C2437 C 0.56764 0.67066 0.74479 0.0
C2438 C 0.55974 0.65491 0.73058 0.0
C2439 C 0.54068 0.64471 0.73449 0.0
C2440 C 0.57082 0.64868 0.71143 0.0
C2441 C 0.58831 0.68172 0.74167 0.0
C2442 C 0.57391 0.66271 0.69539 0.0
C2443 C 0.58232 0.65605 0.67648 0.0
C2444 C 0.58768 0.63517 0.67321 0.0
C2445 C 0.58526 0.6214 0.68966 0.0
C2446 C 0.57685 0.62806 0.70849 0.0
H2447 H 0.59449 0.68966 0.75629 0.0
H2448 H 0.59997 0.67066 0.736 0.0
H2449 H 0.5863 0.69367 0.72976 0.0
H2450 H 0.56906 0.67862 0.69718 0.0
H2451 H 0.58385 0.66706 0.66416 0.0
H2452 H 0.52819 0.27458 0.07959 0.0
H2453 H 0.55053 0.29371 0.05597 0.0
H2454 H 0.49612 0.31716 0.02496 0.0
H2455 H 0.47383 0.29863 0.0486 0.0
H2456 H 0.55005 0.28553 0.01471 0.0
H2457 H 0.5335 0.36847 0.02793 0.0
H2458 H 0.52658 0.34894 0.04634 0.0
H2459 H 0.50983 0.3532 0.024 0.0
C2460 C 0.52102 0.28424 0.06807 0.0
C2461 C 0.49922 0.28496 0.06589 0.0
C2462 C 0.53381 0.29516 0.05461 0.0
C2463 C 0.52501 0.30708 0.03888 0.0
C2464 C 0.50331 0.30852 0.0373 0.0
H2465 H 0.54723 0.34574 0.91709 0.0
H2466 H 0.53473 0.33866 0.9519 0.0
C2467 C 0.49055 0.29769 0.05073 0.0
C2468 C 0.53804 0.31564 0.02231 0.0
H2469 H 0.54579 0.35878 -0.00647 0.0
C2470 C 0.54955 0.30166 0.01038 0.0
C2471 C 0.53732 0.33668 0.01665 0.0
C2472 C 0.5263 0.3527 0.02957 0.0
C2473 C 0.55927 0.30785 -0.0078 0.0
C2474 C 0.55756 0.3286 -0.01406 0.0
C2475 C 0.5469 0.34284 -0.00165 0.0
C2476 C 0.56546 0.33522 0.96573 0.0
C2477 C 0.5703 0.29188 0.97918 0.0
C2478 C 0.58687 0.33613 0.96223 0.0
C2479 C 0.59408 0.34012 0.94237 0.0
C2480 C 0.57996 0.34324 0.92569 0.0
C2481 C 0.55852 0.34323 0.92954 0.0
C2482 C 0.55135 0.33928 0.94942 0.0
H2483 H 0.56752 0.27583 -0.01541 0.0
H2484 H 0.56512 0.29243 0.96255 0.0
H2485 H 0.58732 0.29543 0.98009 0.0
H2486 H 0.59797 0.33323 0.97473 0.0
H2487 H 0.61071 0.3402 0.94001 0.0
H2488 H 0.95002 0.23586 0.29475 0.0
H2489 H 0.93684 0.24883 0.26153 0.0
H2490 H 0.88581 0.27677 0.2931 0.0
H2491 H 0.89863 0.26381 0.32618 0.0
H2492 H 0.8744 0.25579 0.25438 0.0
H2493 H 0.94182 0.31156 0.24862 0.0
H2494 H 0.94807 0.28476 0.25163 0.0
H2495 H 0.93593 0.29872 0.27245 0.0
C2496 C 0.93589 0.2446 0.29458 0.0
C2497 C 0.92549 0.24898 0.31314 0.0
C2498 C 0.92844 0.25205 0.27562 0.0
C2499 C 0.91052 0.26396 0.27499 0.0
C2500 C 0.8997 0.26765 0.29332 0.0
H2501 H 0.8705 0.35351 0.18714 0.0
H2502 H 0.88004 0.33431 0.21804 0.0
C2503 C 0.90712 0.26028 0.31222 0.0
C2504 C 0.90342 0.27349 0.2555 0.0
H2505 H 0.9165 0.31096 0.22135 0.0
C2506 C 0.88362 0.26775 0.24703 0.0
C2507 C 0.91541 0.28931 0.24623 0.0
C2508 C 0.93643 0.29664 0.25522 0.0
C2509 C 0.87545 0.2775 0.22948 0.0
C2510 C 0.88751 0.29321 0.22016 0.0
C2511 C 0.90734 0.29886 0.22857 0.0
C2512 C 0.87983 0.30431 0.20182 0.0
C2513 C 0.8538 0.27132 0.22139 0.0
C2514 C 0.87631 0.2937 0.18256 0.0
C2515 C 0.87084 0.30461 0.16486 0.0
C2516 C 0.86893 0.32635 0.16611 0.0
C2517 C 0.87185 0.3368 0.18561 0.0
C2518 C 0.87734 0.32588 0.20328 0.0
H2519 H 0.8449 0.26244 0.23295 0.0
H2520 H 0.84499 0.28526 0.21728 0.0
H2521 H 0.8549 0.26134 0.20705 0.0
H2522 H 0.87843 0.2771 0.18108 0.0
H2523 H 0.86869 0.29606 0.15009 0.0
H2524 H 0.90988 0.68598 0.56566 0.0
H2525 H 0.90491 0.6573 0.54029 0.0
H2526 H 0.97126 0.6489 0.54034 0.0
H2527 H 0.97633 0.67786 0.56596 0.0
H2528 H 0.95548 0.6608 0.5033 0.0
H2529 H 0.90664 0.59529 0.52896 0.0
H2530 H 0.89594 0.61935 0.53758 0.0
H2531 H 0.92137 0.61246 0.54717 0.0
C2532 C 0.92335 0.67749 0.5609 0.0
C2533 C 0.9435 0.68432 0.56742 0.0
C2534 C 0.92047 0.66088 0.54657 0.0
C2535 C 0.93771 0.65087 0.53846 0.0
C2536 C 0.95775 0.65631 0.54656 0.0
H2537 H 0.91777 0.61429 0.4061 0.0
H2538 H 0.93556 0.61422 0.44029 0.0
C2539 C 0.96062 0.67286 0.56115 0.0
C2540 C 0.93491 0.63924 0.51827 0.0
H2541 H 0.90035 0.60556 0.49256 0.0
C2542 C 0.94399 0.64817 0.50091 0.0
C2543 C 0.91992 0.62283 0.51523 0.0
C2544 C 0.9106 0.61182 0.53331 0.0
C2545 C 0.93672 0.64288 0.4806 0.0
C2546 C 0.92033 0.62776 0.47764 0.0
C2547 C 0.91273 0.61733 0.49489 0.0
C2548 C 0.90907 0.6248 0.4573 0.0
C2549 C 0.94529 0.65495 0.46275 0.0
C2550 C 0.888 0.62987 0.45567 0.0
C2551 C 0.87771 0.62964 0.43622 0.0
C2552 C 0.8884 0.62457 0.41807 0.0
C2553 C 0.90928 0.61875 0.41981 0.0
C2554 C 0.91946 0.61864 0.43931 0.0
H2555 H 0.95517 0.66863 0.46826 0.0
H2556 H 0.95502 0.64469 0.45311 0.0
H2557 H 0.93247 0.66051 0.45263 0.0
H2558 H 0.87971 0.63468 0.4694 0.0
H2559 H 0.86157 0.634 0.43536 0.0
H2560 H 0.5206 0.253 0.64155 0.0
H2561 H 0.548 0.26754 0.66587 0.0
H2562 H 0.5012 0.28381 0.70994 0.0
H2563 H 0.47404 0.26989 0.68588 0.0
H2564 H 0.52892 0.31666 0.70081 0.0
H2565 H 0.56997 0.24495 0.72202 0.0
H2566 H 0.56629 0.2504 0.69483 0.0
H2567 H 0.5442 0.24377 0.71002 0.0
C2568 C 0.51626 0.2595 0.65653 0.0
C2569 C 0.49519 0.26047 0.66177 0.0
C2570 C 0.53189 0.26774 0.67038 0.0
C2571 C 0.52656 0.27674 0.68965 0.0
C2572 C 0.5056 0.27707 0.69506 0.0
H2573 H 0.56659 0.30205 0.81076 0.0
H2574 H 0.55766 0.28766 0.77593 0.0
C2575 C 0.49009 0.26909 0.68128 0.0
C2576 C 0.54227 0.28671 0.70428 0.0
H2577 H 0.57834 0.27547 0.74187 0.0
C2578 C 0.54009 0.30783 0.70956 0.0
C2579 C 0.55677 0.27504 0.71551 0.0
C2580 C 0.55952 0.25225 0.71048 0.0
C2581 C 0.55062 0.31721 0.72697 0.0
C2582 C 0.56433 0.30525 0.73897 0.0
C2583 C 0.56781 0.28456 0.73264 0.0
C2584 C 0.57252 0.31287 0.75971 0.0
C2585 C 0.54556 0.33926 0.73328 0.0
C2586 C 0.58434 0.33155 0.76218 0.0
C2587 C 0.589 0.3401 0.78213 0.0
C2588 C 0.58238 0.32979 0.79988 0.0
C2589 C 0.57178 0.31042 0.79737 0.0
C2590 C 0.56678 0.30211 0.77746 0.0
H2591 H 0.53167 0.34474 0.72461 0.0
H2592 H 0.5426 0.34062 0.75023 0.0
H2593 H 0.55894 0.34982 0.72994 0.0
H2594 H 0.58941 0.33982 0.7487 0.0
H2595 H 0.59758 0.35485 0.78366 0.0
H2596 H 0.94998 0.3231 0.88345 0.0
H2597 H 0.93418 0.33667 0.91499 0.0
H2598 H 0.96063 0.28745 0.95014 0.0
H2599 H 0.97635 0.27349 0.91851 0.0
H2600 H 0.91817 0.29191 0.95572 0.0
H2601 H 0.96104 0.36795 0.9659 0.0
H2602 H 0.94935 0.36325 0.94036 0.0
H2603 H 0.9699 0.34709 0.94922 0.0
C2604 C 0.95266 0.31524 0.89791 0.0
C2605 C 0.96444 0.29718 0.89846 0.0
C2606 C 0.9437 0.32313 0.91595 0.0
C2607 C 0.94647 0.31322 0.93491 0.0
C2608 C 0.95843 0.29537 0.93563 0.0
H2609 H 0.91468 0.3529 0.05889 0.0
H2610 H 0.93184 0.34469 0.02635 0.0
C2611 C 0.96741 0.28744 0.91756 0.0
C2612 C 0.93579 0.32075 0.95369 0.0
H2613 H 0.93151 0.36281 -0.01308 0.0
C2614 C 0.92112 0.30739 0.9626 0.0
C2615 C 0.93977 0.34092 0.96261 0.0
C2616 C 0.95601 0.35559 0.95417 0.0
C2617 C 0.91017 0.31369 0.98018 0.0
C2618 C 0.91377 0.33402 -0.01118 0.0
C2619 C 0.92859 0.34734 0.98003 0.0
C2620 C 0.90325 0.34119 0.00781 0.0
C2621 C 0.8952 0.29836 -0.01034 0.0
C2622 C 0.88151 0.34266 0.00796 0.0
C2623 C 0.87159 0.3473 0.02658 0.0
C2624 C 0.8833 0.35056 0.04531 0.0
C2625 C 0.90516 0.35023 0.04479 0.0
C2626 C 0.91503 0.3456 0.0262 0.0
H2627 H 0.89761 0.28215 -0.01604 0.0
H2628 H 0.89687 0.299 0.00694 0.0
H2629 H 0.879 0.30238 -0.01462 0.0
H2630 H 0.87221 0.33967 -0.00622 0.0
H2631 H 0.85474 0.34759 0.02642 0.0
H2632 H 0.94334 0.68742 0.14079 0.0
H2633 H 0.92335 0.66539 0.16398 0.0
H2634 H 0.90013 0.72012 0.1949 0.0
H2635 H 0.91946 0.7421 0.17165 0.0
H2636 H 0.93072 0.66552 0.20505 0.0
H2637 H 0.84828 0.68379 0.19137 0.0
H2638 H 0.86821 0.69052 0.17323 0.0
H2639 H 0.86385 0.70718 0.19571 0.0
C2640 C 0.93357 0.69473 0.1522 0.0
C2641 C 0.93312 0.71652 0.15447 0.0
C2642 C 0.92215 0.68212 0.16541 0.0
C2643 C 0.91002 0.6911 0.18098 0.0
C2644 C 0.9089 0.7128 0.18266 0.0
H2645 H 0.87182 0.66839 0.30306 0.0
H2646 H 0.8789 0.68151 0.26848 0.0
C2647 C 0.9202 0.72538 0.16946 0.0
C2648 C 0.90095 0.67823 0.19737 0.0
H2649 H 0.8573 0.67143 0.22587 0.0
C2650 C 0.91454 0.66638 0.20929 0.0
C2651 C 0.87985 0.67942 0.20292 0.0
C2652 C 0.86419 0.69075 0.18996 0.0
C2653 C 0.90791 0.65677 0.22733 0.0
C2654 C 0.88715 0.65898 0.2335 0.0
C2655 C 0.87327 0.66997 0.22112 0.0
C2656 C 0.88014 0.651 0.25349 0.0
C2657 C 0.92342 0.64522 0.2403 0.0
C2658 C 0.87797 0.62955 0.25623 0.0
C2659 C 0.87398 0.62201 0.27591 0.0
C2660 C 0.87215 0.63581 0.2932 0.0
C2661 C 0.87332 0.65735 0.29013 0.0
C2662 C 0.87727 0.66487 0.2704 0.0
H2663 H 0.93957 0.64727 0.23479 0.0
H2664 H 0.92309 0.65061 0.25691 0.0
H2665 H 0.91916 0.62836 0.23953 0.0
H2666 H 0.88001 0.61866 0.24327 0.0
H2667 H 0.87295 0.60533 0.27766 0.0
H2668 H 0.49865 0.71133 0.41484 0.0
H2669 H 0.51027 0.69173 0.44476 0.0
H2670 H 0.57184 0.68934 0.41993 0.0
H2671 H 0.56046 0.70934 0.39011 0.0
H2672 H 0.52698 0.65301 0.44813 0.0
H2673 H 0.5835 0.7146 0.4781 0.0
H2674 H 0.56426 0.71911 0.45789 0.0
H2675 H 0.58769 0.70594 0.45172 0.0
C2676 C 0.51466 0.7066 0.41566 0.0
C2677 C 0.52868 0.71211 0.40013 0.0
C2678 C 0.52127 0.69535 0.4328 0.0
C2679 C 0.54202 0.68939 0.43482 0.0
C2680 C 0.55587 0.6942 0.41897 0.0
H2681 H 0.61224 0.62953 0.53226 0.0
H2682 H 0.59976 0.64315 0.49929 0.0
C2683 C 0.5493 0.70554 0.40185 0.0
C2684 C 0.54917 0.67849 0.45369 0.0
H2685 H 0.58348 0.68268 0.49537 0.0
C2686 C 0.53932 0.6595 0.45848 0.0
C2687 C 0.56521 0.68702 0.46726 0.0
C2688 C 0.57567 0.70787 0.46365 0.0
C2689 C 0.54529 0.64866 0.47627 0.0
C2690 C 0.56136 0.65717 0.48976 0.0
C2691 C 0.57123 0.67612 0.48495 0.0
C2692 C 0.56815 0.64691 0.50911 0.0
C2693 C 0.53459 0.62805 0.48031 0.0
C2694 C 0.55445 0.64424 0.52557 0.0
C2695 C 0.56153 0.63643 0.54453 0.0
C2696 C 0.58251 0.63125 0.54744 0.0
C2697 C 0.59599 0.63335 0.53065 0.0
C2698 C 0.5889 0.64117 0.51175 0.0
H2699 H 0.52647 0.62125 0.46604 0.0
H2700 H 0.54592 0.61676 0.48612 0.0
H2701 H 0.52281 0.63035 0.49242 0.0
H2702 H 0.53844 0.64889 0.52401 0.0
H2703 H 0.55073 0.63511 0.55712 0.0
H2704 H 0.80373 0.5333 0.73398 0.0
H2705 H 0.77523 0.55193 0.71785 0.0
H2706 H 0.7819 0.51643 0.66044 0.0
H2707 H 0.81054 0.49764 0.67645 0.0
H2708 H 0.77369 0.5757 0.67942 0.0
H2709 H 0.71993 0.50612 0.67792 0.0
H2710 H 0.74344 0.50802 0.69404 0.0
H2711 H 0.74489 0.5027 0.66649 0.0
C2712 C 0.79929 0.52953 0.71786 0.0
C2713 C 0.80935 0.51386 0.70655 0.0
C2714 C 0.78301 0.54025 0.70866 0.0
C2715 C 0.77631 0.53541 0.68805 0.0
C2716 C 0.78671 0.52025 0.67646 0.0
H2717 H 0.68556 0.59836 0.61107 0.0
H2718 H 0.71754 0.58448 0.62585 0.0
C2719 C 0.80312 0.50959 0.68561 0.0
C2720 C 0.75791 0.54569 0.67907 0.0
H2721 H 0.70712 0.53656 0.6634 0.0
C2722 C 0.75915 0.56716 0.67582 0.0
C2723 C 0.7389 0.53454 0.67468 0.0
C2724 C 0.73651 0.5116 0.67856 0.0
C2725 C 0.74188 0.57775 0.6681 0.0
C2726 C 0.72294 0.56654 0.6635 0.0
C2727 C 0.72169 0.5451 0.66689 0.0
C2728 C 0.70413 0.5767 0.65526 0.0
C2729 C 0.74387 0.6009 0.66529 0.0
C2730 C 0.68598 0.57705 0.66693 0.0
C2731 C 0.66767 0.58504 0.65857 0.0
C2732 C 0.66704 0.5926 0.63821 0.0
C2733 C 0.68545 0.59272 0.62679 0.0
C2734 C 0.70379 0.58484 0.63523 0.0
H2735 H 0.75796 0.60789 0.67353 0.0
H2736 H 0.74501 0.60395 0.64843 0.0
H2737 H 0.72992 0.60876 0.67111 0.0
H2738 H 0.68591 0.5708 0.6824 0.0
H2739 H 0.65382 0.58462 0.66781 0.0
H2740 H 0.68509 0.57306 0.9699 0.0
H2741 H 0.65704 0.54877 0.9566 0.0
H2742 H 0.70295 0.50515 0.93734 0.0
H2743 H 0.73069 0.52911 0.95008 0.0
H2744 H 0.67344 0.51573 0.90573 0.0
H2745 H 0.63663 0.49127 0.97908 0.0
H2746 H 0.64065 0.51859 0.97462 0.0
H2747 H 0.66264 0.50275 0.97924 0.0
C2748 C 0.68909 0.55817 0.96303 0.0
C2749 C 0.71006 0.55305 0.96083 0.0
C2750 C 0.6731 0.54434 0.9555 0.0
C2751 C 0.678 0.52524 0.94598 0.0
C2752 C 0.69888 0.5199 0.94451 0.0
H2753 H 0.63815 0.40468 0.91735 0.0
H2754 H 0.64738 0.43886 0.9331 0.0
C2755 C 0.71472 0.53364 0.9518 0.0
C2756 C 0.66191 0.5108 0.93637 0.0
H2757 H 0.62728 0.47207 0.94831 0.0
C2758 C 0.66294 0.50643 0.91488 0.0
C2759 C 0.64835 0.49883 0.94848 0.0
C2760 C 0.6469 0.50292 0.97166 0.0
C2761 C 0.65217 0.48922 0.90542 0.0
C2762 C 0.63939 0.47649 0.91773 0.0
C2763 C 0.63708 0.48187 0.93894 0.0
C2764 C 0.63096 0.45602 0.90964 0.0
C2765 C 0.65604 0.48393 0.88276 0.0
C2766 C 0.61812 0.45428 0.89157 0.0
C2767 C 0.61329 0.43474 0.88222 0.0
C2768 C 0.62074 0.41666 0.89115 0.0
C2769 C 0.63231 0.41836 0.91005 0.0
C2770 C 0.63749 0.43789 0.91913 0.0
H2771 H 0.66949 0.49301 0.87683 0.0
H2772 H 0.65907 0.46713 0.88047 0.0
H2773 H 0.64208 0.48752 0.87315 0.0
H2774 H 0.61243 0.46804 0.88431 0.0
H2775 H 0.60395 0.43381 0.86788 0.0
H2776 H 0.64412 0.44962 0.1841 0.0
H2777 H 0.66695 0.42999 0.16124 0.0
H2778 H 0.69186 0.39878 0.21449 0.0
H2779 H 0.66903 0.41783 0.23721 0.0
H2780 H 0.70879 0.43387 0.16474 0.0
H2781 H 0.68586 0.35113 0.17233 0.0
H2782 H 0.66917 0.37195 0.17997 0.0
H2783 H 0.68957 0.36388 0.19747 0.0
C2784 C 0.6541 0.43819 0.19083 0.0
C2785 C 0.65489 0.43541 0.21248 0.0
C2786 C 0.66711 0.42699 0.17776 0.0
C2787 C 0.6809 0.41272 0.18613 0.0
C2788 C 0.681 0.4093 0.20759 0.0
H2789 H 0.80171 0.37032 0.16441 0.0
H2790 H 0.76737 0.37861 0.17748 0.0
C2791 C 0.66807 0.42043 0.22061 0.0
C2792 C 0.69726 0.40359 0.17326 0.0
H2793 H 0.72178 0.35822 0.16294 0.0
C2794 C 0.71134 0.41728 0.16391 0.0
C2795 C 0.70061 0.38195 0.17226 0.0
C2796 C 0.68534 0.36639 0.18087 0.0
C2797 C 0.72932 0.41002 0.15464 0.0
C2798 C 0.73323 0.38856 0.15472 0.0
C2799 C 0.71875 0.37471 0.16318 0.0
C2800 C 0.75285 0.38061 0.14683 0.0
C2801 C 0.74457 0.42539 0.14564 0.0
C2802 C 0.7557 0.37852 0.12534 0.0
C2803 C 0.77521 0.37382 0.11783 0.0
C2804 C 0.79223 0.37125 0.13172 0.0
C2805 C 0.78898 0.37232 0.15331 0.0
C2806 C 0.7694 0.37699 0.1608 0.0
H2807 H 0.73985 0.44174 0.14803 0.0
H2808 H 0.76028 0.42373 0.15292 0.0
H2809 H 0.74577 0.42206 0.12864 0.0
H2810 H 0.74302 0.38126 0.1144 0.0
H2811 H 0.7771 0.37291 0.1011 0.0
H2812 H 0.76706 0.42444 0.477 0.0
H2813 H 0.78056 0.45633 0.46153 0.0
H2814 H 0.83012 0.4221 0.4341 0.0
H2815 H 0.81704 0.39038 0.44963 0.0
H2816 H 0.84341 0.46054 0.45184 0.0
H2817 H 0.77425 0.46716 0.39881 0.0
H2818 H 0.76858 0.46594 0.42602 0.0
H2819 H 0.77934 0.44389 0.4128 0.0
C2820 C 0.78093 0.42376 0.46783 0.0
C2821 C 0.79086 0.40483 0.46441 0.0
C2822 C 0.78854 0.44194 0.4589 0.0
C2823 C 0.80612 0.44144 0.44639 0.0
C2824 C 0.81647 0.42277 0.44361 0.0
H2825 H 0.8427 0.53219 0.35568 0.0
H2826 H 0.83382 0.49999 0.37327 0.0
C2827 C 0.80892 0.40465 0.45249 0.0
C2828 C 0.81358 0.46017 0.43569 0.0
H2829 H 0.79975 0.49447 0.39867 0.0
C2830 C 0.83389 0.468 0.44022 0.0
C2831 C 0.80123 0.46957 0.42026 0.0
C2832 C 0.7797 0.46115 0.41399 0.0
C2833 C 0.84209 0.48521 0.42994 0.0
C2834 C 0.82952 0.49496 0.41495 0.0
C2835 C 0.80932 0.48697 0.41022 0.0
C2836 C 0.83673 0.51389 0.40442 0.0
C2837 C 0.86423 0.49259 0.43498 0.0
C2838 C 0.84147 0.53226 0.41614 0.0
C2839 C 0.84658 0.55061 0.40619 0.0
C2840 C 0.84687 0.551 0.38427 0.0
C2841 C 0.84265 0.53242 0.37257 0.0
C2842 C 0.83752 0.51404 0.38258 0.0
H2843 H 0.87346 0.48021 0.44211 0.0
H2844 H 0.8721 0.49779 0.42077 0.0
H2845 H 0.86414 0.50598 0.44632 0.0
H2846 H 0.84059 0.53258 0.43298 0.0
H2847 H 0.84976 0.56462 0.4157 0.0
H2848 H 0.79105 0.44995 0.74181 0.0
H2849 H 0.75815 0.43635 0.75529 0.0
H2850 H 0.79072 0.38688 0.78441 0.0
H2851 H 0.82348 0.40013 0.77096 0.0
H2852 H 0.75241 0.37409 0.76356 0.0
H2853 H 0.7448 0.44221 0.81818 0.0
H2854 H 0.7479 0.44807 0.7912 0.0
H2855 H 0.76882 0.43667 0.80548 0.0
C2856 C 0.79116 0.43607 0.75092 0.0
C2857 C 0.80991 0.42623 0.75547 0.0
C2858 C 0.7724 0.42839 0.75867 0.0
C2859 C 0.77212 0.41079 0.77106 0.0
C2860 C 0.79065 0.40052 0.77494 0.0
H2861 H 0.68157 0.37126 0.85974 0.0
H2862 H 0.71336 0.3806 0.84163 0.0
C2863 C 0.80937 0.40818 0.76728 0.0
C2864 C 0.75277 0.4034 0.78074 0.0
H2865 H 0.71779 0.41651 0.81759 0.0
C2866 C 0.74474 0.38336 0.7753 0.0
C2867 C 0.7431 0.41546 0.79629 0.0
C2868 C 0.75162 0.43674 0.80333 0.0
C2869 C 0.72715 0.37507 0.78498 0.0
C2870 C 0.71733 0.38725 0.80032 0.0
C2871 C 0.7254 0.40726 0.80578 0.0
C2872 C 0.69855 0.37966 0.8109 0.0
C2873 C 0.71948 0.35322 0.77905 0.0
C2874 C 0.67982 0.37581 0.79955 0.0
C2875 C 0.66164 0.37047 0.80982 0.0
C2876 C 0.66187 0.369 0.83167 0.0
C2877 C 0.68085 0.37223 0.84292 0.0
C2878 C 0.69901 0.37763 0.83261 0.0
H2879 H 0.7315 0.34428 0.77086 0.0
H2880 H 0.71481 0.34472 0.79306 0.0
H2881 H 0.70562 0.35389 0.76842 0.0
H2882 H 0.6791 0.37759 0.78281 0.0
H2883 H 0.64731 0.36806 0.80066 0.0
H2884 H 0.77538 0.5783 0.04611 0.0
H2885 H 0.79088 0.55424 0.07038 0.0
H2886 H 0.83888 0.54133 0.02653 0.0
H2887 H 0.82385 0.56554 0.00253 0.0
H2888 H 0.79024 0.51425 0.0576 0.0
H2889 H 0.87114 0.53753 0.08088 0.0
H2890 H 0.85289 0.55577 0.07078 0.0
H2891 H 0.86702 0.53933 0.05326 0.0
C2892 C 0.78972 0.57099 0.04202 0.0
C2893 C 0.79817 0.5735 0.02224 0.0
C2894 C 0.79855 0.55723 0.0559 0.0
C2895 C 0.81603 0.54598 0.05028 0.0
C2896 C 0.82563 0.55007 0.03141 0.0
H2897 H 0.83886 0.41776 0.05743 0.0
H2898 H 0.83277 0.4538 0.0485 0.0
C2899 C 0.81685 0.56379 0.01757 0.0
C2900 C 0.82154 0.52713 0.06155 0.0
H2901 H 0.86293 0.50017 0.07951 0.0
C2902 C 0.80605 0.51139 0.06286 0.0
C2903 C 0.84215 0.52335 0.06839 0.0
C2904 C 0.85918 0.54001 0.06845 0.0
C2905 C 0.81084 0.49161 0.06963 0.0
C2906 C 0.8317 0.48741 0.07498 0.0
C2907 C 0.84701 0.50342 0.07496 0.0
C2908 C 0.83774 0.46621 0.08005 0.0
C2909 C 0.79365 0.47515 0.07048 0.0
C2910 C 0.84314 0.46153 0.1006 0.0
C2911 C 0.84654 0.44099 0.10577 0.0
C2912 C 0.84469 0.42484 0.09042 0.0
C2913 C 0.84029 0.4298 0.06962 0.0
C2914 C 0.83679 0.45034 0.0645 0.0
H2915 H 0.778 0.48203 0.07035 0.0
H2916 H 0.79443 0.46439 0.05667 0.0
H2917 H 0.79547 0.46589 0.08468 0.0
H2918 H 0.84399 0.47364 0.11275 0.0
H2919 H 0.85013 0.43771 0.12191 0.0
H2920 H 0.65246 0.54224 0.23466 0.0
H2921 H 0.6779 0.57117 0.24139 0.0
H2922 H 0.68305 0.55487 0.30598 0.0
H2923 H 0.6578 0.5263 0.29948 0.0
H2924 H 0.6875 0.59918 0.29873 0.0
H2925 H 0.73756 0.54916 0.24957 0.0
H2926 H 0.71366 0.55822 0.23843 0.0
H2927 H 0.71287 0.53947 0.25853 0.0
C2928 C 0.65855 0.54529 0.25041 0.0
C2929 C 0.65359 0.53179 0.26646 0.0
C2930 C 0.67306 0.56177 0.25421 0.0
C2931 C 0.68255 0.56486 0.27409 0.0
C2932 C 0.67593 0.5527 0.29052 0.0
H2933 H 0.78131 0.59104 0.35443 0.0
H2934 H 0.74761 0.58931 0.33588 0.0
C2935 C 0.66163 0.53626 0.28674 0.0
C2936 C 0.70182 0.57774 0.27746 0.0
H2937 H 0.75412 0.57314 0.27273 0.0
C2938 C 0.70209 0.59399 0.29259 0.0
C2939 C 0.72078 0.57097 0.26933 0.0
C2940 C 0.7214 0.55347 0.25311 0.0
C2941 C 0.72096 0.60253 0.30102 0.0
C2942 C 0.73989 0.59418 0.29446 0.0
C2943 C 0.73959 0.57938 0.2779 0.0
C2944 C 0.75984 0.59822 0.3062 0.0
C2945 C 0.72038 0.61978 0.31744 0.0
C2946 C 0.77801 0.60336 0.29562 0.0
C2947 C 0.79735 0.60377 0.30606 0.0
C2948 C 0.79887 0.59914 0.32732 0.0
C2949 C 0.78062 0.59468 0.33806 0.0
C2950 C 0.7613 0.594 0.32753 0.0
H2951 H 0.70682 0.62972 0.31464 0.0
H2952 H 0.71858 0.61292 0.33297 0.0
H2953 H 0.73484 0.62971 0.31781 0.0
H2954 H 0.77727 0.60649 0.27912 0.0
H2955 H 0.81114 0.60755 0.29742 0.0
H2956 H 0.68238 0.41267 0.48482 0.0
H2957 H 0.66346 0.44139 0.50039 0.0
H2958 H 0.69826 0.4358 0.55821 0.0
H2959 H 0.71732 0.40696 0.54279 0.0
H2960 H 0.63917 0.44358 0.53879 0.0
H2961 H 0.70874 0.49735 0.53983 0.0
H2962 H 0.70698 0.47361 0.52401 0.0
H2963 H 0.71217 0.47264 0.55159 0.0
C2964 C 0.68593 0.41741 0.50091 0.0
C2965 C 0.70149 0.40759 0.51251 0.0
C2966 C 0.67505 0.43381 0.50979 0.0
C2967 C 0.67961 0.44086 0.53036 0.0
C2968 C 0.69466 0.43071 0.54223 0.0
H2969 H 0.61669 0.53185 0.60736 0.0
H2970 H 0.63014 0.49978 0.59217 0.0
C2971 C 0.70547 0.41419 0.53341 0.0
C2972 C 0.6692 0.45937 0.53904 0.0
H2973 H 0.67824 0.51023 0.55447 0.0
C2974 C 0.64769 0.45815 0.54229 0.0
C2975 C 0.68032 0.47842 0.5433 0.0
C2976 C 0.70331 0.48078 0.53939 0.0
C2977 C 0.63704 0.47546 0.54995 0.0
C2978 C 0.64824 0.49441 0.55448 0.0
C2979 C 0.66971 0.49566 0.55103 0.0
C2980 C 0.63808 0.51322 0.56285 0.0
C2981 C 0.61387 0.47347 0.55282 0.0
C2982 C 0.63792 0.53141 0.55136 0.0
C2983 C 0.63019 0.54978 0.55996 0.0
C2984 C 0.6227 0.55042 0.58038 0.0
C2985 C 0.62229 0.53196 0.59159 0.0
C2986 C 0.62992 0.51356 0.58292 0.0
H2987 H 0.60688 0.45942 0.54449 0.0
H2988 H 0.61079 0.47224 0.56968 0.0
H2989 H 0.606 0.48742 0.54716 0.0
H2990 H 0.6442 0.5315 0.53586 0.0
H2991 H 0.63083 0.56367 0.55086 0.0
H2992 H 0.69491 0.83709 0.54804 0.0
H2993 H 0.68233 0.80685 0.56679 0.0
H2994 H 0.67546 0.7714 0.50866 0.0
H2995 H 0.68742 0.80167 0.48979 0.0
H2996 H 0.64265 0.76493 0.53225 0.0
H2997 H 0.71456 0.75614 0.58046 0.0
H2998 H 0.70344 0.78122 0.58369 0.0
H2999 H 0.71343 0.77334 0.55884 0.0
C3000 C 0.69067 0.82288 0.53924 0.0
C3001 C 0.69226 0.82182 0.5174 0.0
C3002 C 0.68365 0.80552 0.55001 0.0
C3003 C 0.67836 0.78665 0.53922 0.0
C3004 C 0.67955 0.78572 0.51738 0.0
H3005 H 0.66393 0.66225 0.58622 0.0
H3006 H 0.67696 0.69512 0.57257 0.0
C3007 C 0.68639 0.80308 0.50659 0.0
C3008 C 0.67127 0.76793 0.55048 0.0
H3009 H 0.68541 0.7345 0.58838 0.0
C3010 C 0.65201 0.7583 0.54453 0.0
C3011 C 0.68361 0.75904 0.56631 0.0
C3012 C 0.705 0.76782 0.57259 0.0
C3013 C 0.64473 0.74015 0.55393 0.0
C3014 C 0.65675 0.73164 0.57022 0.0
C3015 C 0.67607 0.74118 0.57612 0.0
C3016 C 0.64983 0.7124 0.58069 0.0
C3017 C 0.6245 0.72992 0.54583 0.0
C3018 C 0.63066 0.71137 0.59064 0.0
C3019 C 0.62311 0.69258 0.59834 0.0
C3020 C 0.63471 0.67445 0.59654 0.0
C3021 C 0.65457 0.67588 0.58787 0.0
C3022 C 0.66202 0.69466 0.58 0.0
H3023 H 0.62026 0.73497 0.52992 0.0
H3024 H 0.62541 0.7127 0.54538 0.0
H3025 H 0.6118 0.73431 0.55631 0.0
H3026 H 0.62123 0.72499 0.59192 0.0
H3027 H 0.60786 0.69212 0.60513 0.0
H3028 H 0.17474 0.64342 0.4533 0.0
H3029 H 0.15068 0.66702 0.43651 0.0
H3030 H 0.19953 0.68773 0.39656 0.0
H3031 H 0.22346 0.66429 0.41305 0.0
H3032 H 0.15933 0.70934 0.43946 0.0
H3033 H 0.14912 0.68423 0.35649 0.0
H3034 H 0.15794 0.66699 0.37636 0.0
H3035 H 0.17599 0.68498 0.36491 0.0
C3036 C 0.18013 0.65254 0.4405 0.0
C3037 C 0.20102 0.65219 0.43462 0.0
C3038 C 0.16639 0.666 0.43095 0.0
C3039 C 0.17328 0.67897 0.41517 0.0
C3040 C 0.19375 0.67757 0.40839 0.0
H3041 H 0.15726 0.80389 0.3855 0.0
H3042 H 0.16813 0.76902 0.39417 0.0
C3043 C 0.20748 0.66431 0.418 0.0
C3044 C 0.16058 0.69632 0.40816 0.0
H3045 H 0.1446 0.72097 0.36447 0.0
C3046 C 0.15565 0.71165 0.42311 0.0
C3047 C 0.1558 0.6993 0.38683 0.0
C3048 C 0.15981 0.68288 0.37026 0.0
C3049 C 0.14729 0.73046 0.41716 0.0
C3050 C 0.1439 0.734 0.39576 0.0
C3051 C 0.14756 0.71823 0.38086 0.0
C3052 C 0.13758 0.75449 0.38872 0.0
C3053 C 0.14282 0.7468 0.4337 0.0
C3054 C 0.11693 0.75759 0.38241 0.0
C3055 C 0.11062 0.77748 0.37757 0.0
C3056 C 0.12494 0.79453 0.37887 0.0
C3057 C 0.14584 0.79112 0.3844 0.0
C3058 C 0.15208 0.77125 0.38937 0.0
H3059 H 0.14285 0.74036 0.44956 0.0
H3060 H 0.15492 0.75948 0.43349 0.0
H3061 H 0.1275 0.75371 0.43047 0.0
H3062 H 0.10559 0.74475 0.38181 0.0
H3063 H 0.09444 0.77955 0.37318 0.0
H3064 H 0.57113 0.90829 0.69366 0.0
H3065 H 0.54442 0.89486 0.66851 0.0
H3066 H 0.52513 0.95744 0.6583 0.0
H3067 H 0.55259 0.97095 0.68279 0.0
H3068 H 0.50595 0.90123 0.68106 0.0
H3069 H 0.51309 0.93032 0.60112 0.0
H3070 H 0.53485 0.93051 0.61959 0.0
H3071 H 0.51594 0.95049 0.62108 0.0
C3072 C 0.56182 0.91919 0.68524 0.0
C3073 C 0.56373 0.94058 0.69009 0.0
C3074 C 0.54658 0.91154 0.67091 0.0
C3075 C 0.53272 0.92512 0.66158 0.0
C3076 C 0.53587 0.94669 0.66498 0.0
H3077 H 0.40293 0.91271 0.62732 0.0
H3078 H 0.43908 0.9251 0.63314 0.0
C3079 C 0.5515 0.95441 0.67903 0.0
C3080 C 0.51268 0.91661 0.65253 0.0
H3081 H 0.47915 0.91723 0.61033 0.0
C3082 C 0.50029 0.90444 0.66543 0.0
C3083 C 0.50516 0.92115 0.63232 0.0
C3084 C 0.51804 0.93369 0.61765 0.0
C3085 C 0.48047 0.89697 0.65888 0.0
C3086 C 0.47288 0.90158 0.63876 0.0
C3087 C 0.48518 0.91367 0.62571 0.0
C3088 C 0.45179 0.8944 0.63163 0.0
C3089 C 0.46752 0.88469 0.67379 0.0
C3090 C 0.44719 0.8731 0.62838 0.0
C3091 C 0.42659 0.86593 0.62529 0.0
C3092 C 0.41028 0.87999 0.62535 0.0
C3093 C 0.41511 0.90145 0.62743 0.0
C3094 C 0.43574 0.90859 0.63058 0.0
H3095 H 0.47411 0.88584 0.68999 0.0
H3096 H 0.45132 0.8902 0.67388 0.0
H3097 H 0.46689 0.86805 0.66865 0.0
H3098 H 0.45947 0.86196 0.62908 0.0
H3099 H 0.42344 0.84933 0.62342 0.0
H3100 H 0.23959 0.29718 0.94997 0.0
H3101 H 0.25472 0.26491 0.937 0.0
H3102 H 0.28533 0.29855 0.88887 0.0
H3103 H 0.27025 0.33075 0.90152 0.0
H3104 H 0.26655 0.25916 0.87542 0.0
H3105 H 0.31799 0.25487 0.94623 0.0
H3106 H 0.29067 0.25692 0.95091 0.0
H3107 H 0.30468 0.27816 0.93964 0.0
C3108 C 0.24932 0.29765 0.93646 0.0
C3109 C 0.25389 0.31655 0.9269 0.0
C3110 C 0.25802 0.27925 0.92916 0.0
C3111 C 0.27137 0.2795 0.91222 0.0
C3112 C 0.27514 0.29811 0.90205 0.0
H3113 H 0.36259 0.1883 0.87881 0.0
H3114 H 0.34476 0.22064 0.88664 0.0
C3115 C 0.26654 0.31649 0.90934 0.0
C3116 C 0.2822 0.26062 0.90556 0.0
H3117 H 0.31902 0.22703 0.92139 0.0
C3118 C 0.278 0.25208 0.88544 0.0
C3119 C 0.29739 0.25175 0.91858 0.0
C3120 C 0.30315 0.26094 0.93999 0.0
C3121 C 0.28841 0.23457 0.8781 0.0
C3122 C 0.30321 0.22539 0.89133 0.0
C3123 C 0.30762 0.23413 0.91133 0.0
C3124 C 0.31384 0.20627 0.88504 0.0
C3125 C 0.28368 0.2262 0.85619 0.0
C3126 C 0.3023 0.1876 0.88152 0.0
C3127 C 0.31238 0.16918 0.87711 0.0
C3128 C 0.33424 0.16905 0.87624 0.0
C3129 C 0.34575 0.18789 0.87935 0.0
C3130 C 0.33562 0.20634 0.88385 0.0
H3131 H 0.2762 0.23794 0.84639 0.0
H3132 H 0.29808 0.22114 0.84861 0.0
H3133 H 0.27281 0.21249 0.85676 0.0
H3134 H 0.28552 0.18719 0.88272 0.0
H3135 H 0.30302 0.15496 0.87473 0.0
H3136 H 0.39127 0.56971 0.71163 0.0
H3137 H 0.42048 0.57929 0.68984 0.0
H3138 H 0.4353 0.51463 0.68227 0.0
H3139 H 0.40581 0.5049 0.7035 0.0
H3140 H 0.46082 0.57369 0.69786 0.0
H3141 H 0.43871 0.53238 0.62303 0.0
H3142 H 0.42057 0.53582 0.64374 0.0
H3143 H 0.43911 0.51546 0.64469 0.0
C3144 C 0.40055 0.55749 0.70507 0.0
C3145 C 0.39613 0.53653 0.70929 0.0
C3146 C 0.41727 0.563 0.69262 0.0
C3147 C 0.42997 0.54768 0.68413 0.0
C3148 C 0.42545 0.52671 0.68814 0.0
H3149 H 0.55203 0.55467 0.62828 0.0
H3150 H 0.51896 0.54255 0.6426 0.0
C3151 C 0.40862 0.52118 0.70043 0.0
C3152 C 0.44877 0.55379 0.6724 0.0
H3153 H 0.47375 0.54587 0.62651 0.0
C3154 C 0.46352 0.56771 0.6822 0.0
C3155 C 0.45241 0.54593 0.65197 0.0
C3156 C 0.43677 0.53173 0.64015 0.0
C3157 C 0.48183 0.57378 0.67229 0.0
C3158 C 0.48551 0.56584 0.65197 0.0
C3159 C 0.47088 0.55187 0.64213 0.0
C3160 C 0.50439 0.57229 0.64074 0.0
C3161 C 0.49731 0.58849 0.68374 0.0
C3162 C 0.50681 0.59278 0.63423 0.0
C3163 C 0.52558 0.59974 0.62598 0.0
C3164 C 0.5424 0.58634 0.62411 0.0
C3165 C 0.53947 0.56543 0.62951 0.0
C3166 C 0.52059 0.55847 0.63774 0.0
H3167 H 0.49413 0.59006 0.70064 0.0
H3168 H 0.51343 0.58309 0.68194 0.0
H3169 H 0.49647 0.60411 0.677 0.0
H3170 H 0.4944 0.60361 0.6362 0.0
H3171 H 0.52716 0.61589 0.62187 0.0
H3172 H 0.72725 0.16026 0.02564 0.0
H3173 H 0.73854 0.18929 0.04954 0.0
H3174 H 0.80188 0.16942 0.04689 0.0
H3175 H 0.79082 0.14091 0.02263 0.0
H3176 H 0.76892 0.19745 0.08889 0.0
H3177 H 0.79458 0.22472 0.01199 0.0
H3178 H 0.77581 0.20354 0.01436 0.0
H3179 H 0.80307 0.1994 0.01874 0.0
C3180 C 0.7434 0.16158 0.03096 0.0
C3181 C 0.75827 0.14866 0.02219 0.0
C3182 C 0.74981 0.17812 0.04458 0.0
C3183 C 0.77104 0.18153 0.04967 0.0
C3184 C 0.78544 0.167 0.04303 0.0
H3185 H 0.85471 0.28236 0.08541 0.0
H3186 H 0.83716 0.24853 0.07852 0.0
C3187 C 0.77913 0.15078 0.02917 0.0
C3188 C 0.77881 0.20216 0.05756 0.0
H3189 H 0.80548 0.2452 0.04171 0.0
C3190 C 0.77678 0.20801 0.07864 0.0
C3191 C 0.78881 0.2159 0.04396 0.0
C3192 C 0.79059 0.21073 0.02095 0.0
C3193 C 0.78527 0.22715 0.08661 0.0
C3194 C 0.7959 0.24045 0.0731 0.0
C3195 C 0.79743 0.23478 0.05199 0.0
C3196 C 0.8061 0.26027 0.08036 0.0
C3197 C 0.78337 0.23293 0.10941 0.0
C3198 C 0.79431 0.27796 0.08367 0.0
C3199 C 0.80427 0.29739 0.08737 0.0
C3200 C 0.82616 0.29937 0.08775 0.0
C3201 C 0.83785 0.28142 0.08508 0.0
C3202 C 0.82788 0.26206 0.0813 0.0
H3203 H 0.776 0.22018 0.11819 0.0
H3204 H 0.79901 0.23689 0.1165 0.0
H3205 H 0.77384 0.24694 0.11106 0.0
H3206 H 0.77746 0.27683 0.08267 0.0
H3207 H 0.79482 0.31089 0.08955 0.0
H3208 H 0.56896 0.03138 0.75721 0.0
H3209 H 0.54521 0.05591 0.77336 0.0
H3210 H 0.52895 0.01047 0.81864 0.0
H3211 H 0.55251 -0.01391 0.8028 0.0
H3212 H 0.50287 0.04595 0.77437 0.0
H3213 H 0.53407 0.06423 0.85427 0.0
H3214 H 0.55 0.05419 0.8337 0.0
H3215 H 0.53367 0.03684 0.84804 0.0
C3216 C 0.56073 0.02688 0.77095 0.0
C3217 C 0.56241 0.00677 0.77863 0.0
C3218 C 0.5472 0.04088 0.78014 0.0
C3219 C 0.53551 0.03506 0.79731 0.0
C3220 C 0.53812 0.01543 0.80567 0.0
H3221 H 0.41159 0.05393 0.83272 0.0
H3222 H 0.44543 0.04193 0.82159 0.0
C3223 C 0.55145 0.00143 0.79645 0.0
C3224 C 0.51833 0.04787 0.80464 0.0
H3225 H 0.49683 0.06741 0.8489 0.0
C3226 C 0.50173 0.05106 0.79057 0.0
C3227 C 0.51693 0.05456 0.82575 0.0
C3228 C 0.53473 0.05247 0.84126 0.0
C3229 C 0.48323 0.05962 0.79733 0.0
C3230 C 0.48128 0.0649 0.81871 0.0
C3231 C 0.49831 0.06295 0.83257 0.0
C3232 C 0.46137 0.07182 0.82694 0.0
C3233 C 0.46568 0.06247 0.78167 0.0
C3234 C 0.45944 0.09239 0.83419 0.0
C3235 C 0.44017 0.09931 0.84051 0.0
C3236 C 0.42256 0.08569 0.8398 0.0
C3237 C 0.42481 0.06482 0.83337 0.0
C3238 C 0.44408 0.05796 0.82693 0.0
H3239 H 0.47123 0.0622 0.76542 0.0
H3240 H 0.45388 0.04965 0.78296 0.0
H3241 H 0.45794 0.07739 0.7848 0.0
H3242 H 0.4727 0.10322 0.8344 0.0
H3243 H 0.439 0.11544 0.84558 0.0
H3244 H 0.88446 0.9508 0.31714 0.0
H3245 H 0.91691 0.93683 0.33032 0.0
H3246 H 0.95014 0.96546 0.2807 0.0
H3247 H 0.9176 -0.02055 0.26719 0.0
H3248 H 0.95749 0.9229 0.28496 0.0
H3249 H 0.96713 0.96632 0.36093 0.0
H3250 H 0.94188 0.95394 0.35658 0.0
H3251 H 0.9501 0.97456 0.34012 0.0
C3252 C 0.89868 0.95435 0.30911 0.0
C3253 C 0.89843 0.96623 0.29107 0.0
C3254 C 0.91724 0.94645 0.31677 0.0
C3255 C 0.93593 0.95034 0.30663 0.0
C3256 C 0.93585 0.96242 0.28881 0.0
H3257 H 0.05989 0.9182 0.34794 0.0
H3258 H 0.02845 0.93619 0.33793 0.0
C3259 C 0.91727 0.97041 0.28114 0.0
C3260 C 0.95522 0.94055 0.31385 0.0
H3261 H -0.01158 0.93696 0.35594 0.0
C3262 C 0.96436 0.92606 0.30042 0.0
C3263 C 0.96414 0.94482 0.33399 0.0
C3264 C 0.95545 0.9609 0.3487 0.0
C3265 C -0.018 0.91538 0.30676 0.0
C3266 C -0.00951 0.91911 0.32715 0.0
C3267 C -0.01835 0.93394 0.34042 0.0
C3268 C 0.00898 0.90819 0.33468 0.0
C3269 C -0.00846 0.90035 0.29151 0.0
C3270 C 0.00824 0.88653 0.33673 0.0
C3271 C 0.02619 0.87615 0.34246 0.0
C3272 C 0.04517 0.8873 0.34622 0.0
C3273 C 0.04559 0.90911 0.34497 0.0
C3274 C 0.02764 0.91944 0.33929 0.0
H3275 H -0.0139 0.90277 0.2752 0.0
H3276 H 0.0088 0.90193 0.29233 0.0
H3277 H -0.01294 0.8842 0.29552 0.0
H3278 H -0.00616 0.87764 0.33357 0.0
H3279 H 0.0253 0.85937 0.34341 0.0
H3280 H 0.45617 0.24971 0.16974 0.0
H3281 H 0.44098 0.26154 0.2024 0.0
H3282 H 0.38905 0.28581 0.16797 0.0
H3283 H 0.40388 0.27383 0.13529 0.0
H3284 H 0.43346 0.30259 0.21247 0.0
H3285 H 0.36059 0.25421 0.21424 0.0
H3286 H 0.38183 0.24782 0.19757 0.0
H3287 H 0.36388 0.26736 0.19022 0.0
C3288 C 0.44138 0.25733 0.16912 0.0
C3289 C 0.43126 0.26089 0.14992 0.0
C3290 C 0.43273 0.26403 0.18778 0.0
C3291 C 0.41379 0.27428 0.18755 0.0
C3292 C 0.40346 0.27752 0.16847 0.0
H3293 H 0.37215 0.36195 0.28039 0.0
H3294 H 0.38155 0.34379 0.24814 0.0
C3295 C 0.41206 0.27081 0.14981 0.0
C3296 C 0.40576 0.28323 0.20708 0.0
H3297 H 0.36341 0.28363 0.23801 0.0
C3298 C 0.41821 0.29834 0.21815 0.0
C3299 C 0.38593 0.27752 0.21445 0.0
C3300 C 0.37234 0.26069 0.20362 0.0
C3301 C 0.41117 0.30826 0.23623 0.0
C3302 C 0.39102 0.30315 0.24314 0.0
C3303 C 0.37873 0.28767 0.2324 0.0
C3304 C 0.38274 0.31355 0.2618 0.0
C3305 C 0.4254 0.32405 0.24786 0.0
C3306 C 0.37943 0.30229 0.2798 0.0
C3307 C 0.37401 0.31257 0.29825 0.0
C3308 C 0.37181 0.33427 0.29891 0.0
C3309 C 0.37396 0.34527 0.28047 0.0
C3310 C 0.37937 0.33496 0.26205 0.0
H3311 H 0.44187 0.32266 0.24331 0.0
H3312 H 0.42046 0.33994 0.24426 0.0
H3313 H 0.42455 0.32226 0.26498 0.0
H3314 H 0.38186 0.28571 0.27979 0.0
H3315 H 0.37227 0.30361 0.31213 0.0
H3316 H 0.39668 0.68141 0.90299 0.0
H3317 H 0.39035 0.65695 0.93055 0.0
H3318 H 0.455 0.64095 0.93099 0.0
H3319 H 0.46148 0.66558 0.90316 0.0
H3320 H 0.39866 0.61288 0.93787 0.0
H3321 H 0.44478 0.66993 -0.01076 0.0
H3322 H 0.43537 0.67647 0.9636 0.0
H3323 H 0.45685 0.65954 0.96635 0.0
C3324 C 0.40944 0.67224 0.90851 0.0
C3325 C 0.42962 0.67554 0.9011 0.0
C3326 C 0.40579 0.65824 0.92424 0.0
C3327 C 0.42226 0.64741 0.93302 0.0
C3328 C 0.44212 0.64933 0.9245 0.0
H3329 H 0.41146 0.60476 0.06081 0.0
H3330 H 0.42597 0.60936 0.02634 0.0
C3331 C 0.44577 0.66327 0.90852 0.0
C3332 C 0.41886 0.63657 0.95274 0.0
H3333 H 0.42574 0.64389 0.00543 0.0
C3334 C 0.40489 0.61936 0.95266 0.0
C3335 C 0.42701 0.64507 0.97199 0.0
C3336 C 0.44176 0.66383 0.97301 0.0
C3337 C 0.39828 0.61088 0.97138 0.0
C3338 C 0.40539 0.62025 -0.00934 0.0
C3339 C 0.42024 0.63673 -0.00932 0.0
C3340 C 0.39633 0.61465 0.0109 0.0
C3341 C 0.38353 0.59216 0.97026 0.0
C3342 C 0.37481 0.61593 0.01374 0.0
C3343 C 0.36645 0.61319 0.03338 0.0
C3344 C 0.37948 0.60946 0.05075 0.0
C3345 C 0.40098 0.6077 0.0478 0.0
C3346 C 0.4093 0.61028 0.02808 0.0
H3347 H 0.38579 0.58251 0.95587 0.0
H3348 H 0.38562 0.5823 -0.016 0.0
H3349 H 0.36726 0.59746 0.96974 0.0
H3350 H 0.36451 0.6199 0.00093 0.0
H3351 H 0.34985 0.61477 0.03508 0.0
H3352 H -0.01934 0.68342 0.66478 0.0
H3353 H 0.00249 0.67324 0.69416 0.0
H3354 H 0.05058 0.71722 0.67715 0.0
H3355 H 0.02881 0.72748 0.6474 0.0
H3356 H 0.06526 0.67728 0.68842 0.0
H3357 H 0.01302 0.71048 0.74722 0.0
H3358 H -0.0003 0.69312 0.72848 0.0
H3359 H 0.01155 0.717 0.72006 0.0
C3360 C -0.0041 0.69092 0.66717 0.0
C3361 C 0.00292 0.70641 0.65383 0.0
C3362 C 0.00832 0.68513 0.68405 0.0
C3363 C 0.02796 0.69476 0.68804 0.0
C3364 C 0.03538 0.70972 0.67439 0.0
H3365 H 0.08602 0.6759 0.81046 0.0
H3366 H 0.0752 0.69282 0.77853 0.0
C3367 C 0.02293 0.71556 0.65743 0.0
C3368 C 0.04043 0.68924 0.70669 0.0
H3369 H 0.03788 0.68657 0.75956 0.0
C3370 C 0.05946 0.67953 0.70402 0.0
C3371 C 0.03301 0.69258 0.72703 0.0
C3372 C 0.0133 0.70406 0.73095 0.0
C3373 C 0.07075 0.67208 0.72115 0.0
C3374 C 0.06258 0.67414 0.74136 0.0
C3375 C 0.04408 0.68482 0.74407 0.0
C3376 C 0.07206 0.66428 0.75977 0.0
C3377 C 0.09123 0.66197 0.71742 0.0
C3378 C 0.07418 0.64264 0.75977 0.0
C3379 C 0.08044 0.63292 0.77796 0.0
C3380 C 0.08442 0.64463 0.79663 0.0
C3381 C 0.08299 0.66639 0.7964 0.0
C3382 C 0.07682 0.67611 0.77815 0.0
H3383 H 0.09854 0.66779 0.70314 0.0
H3384 H 0.1023 0.66481 0.73088 0.0
H3385 H 0.08846 0.64493 0.71514 0.0
H3386 H 0.07011 0.63312 0.74594 0.0
H3387 H 0.08132 0.61613 0.77757 0.0
H3388 H 0.01561 0.24038 0.40786 0.0
H3389 H 0.03735 0.25909 0.43472 0.0
H3390 H 0.00766 0.31624 0.41998 0.0
H3391 H -0.01506 0.29726 0.39416 0.0
H3392 H 0.0646 0.29011 0.43896 0.0
H3393 H -0.00681 0.31264 0.47942 0.0
H3394 H -0.00762 0.29517 0.45693 0.0
H3395 H -0.00546 0.32289 0.45385 0.0
C3396 C 0.01403 0.25701 0.41013 0.0
C3397 C -0.00154 0.26738 0.39923 0.0
C3398 C 0.02641 0.26769 0.4255 0.0
C3399 C 0.02364 0.28896 0.42989 0.0
C3400 C 0.00951 0.29969 0.41747 0.0
H3401 H 0.10535 0.35508 0.52489 0.0
H3402 H 0.08893 0.3437 0.49133 0.0
C3403 C -0.00329 0.28891 0.40258 0.0
C3404 C 0.03429 0.29938 0.44844 0.0
H3405 H 0.02505 0.32603 0.49395 0.0
C3406 C 0.05598 0.29799 0.45099 0.0
C3407 C 0.02298 0.30936 0.46434 0.0
C3408 C -0.00051 0.30994 0.46364 0.0
C3409 C 0.0666 0.30599 0.4691 0.0
C3410 C 0.05532 0.31641 0.48473 0.0
C3411 C 0.03373 0.31819 0.48192 0.0
C3412 C 0.06513 0.32418 0.50487 0.0
C3413 C 0.0896 0.30231 0.47165 0.0
C3414 C 0.05666 0.31785 0.52368 0.0
C3415 C 0.06558 0.32485 0.5428 0.0
C3416 C 0.08338 0.33811 0.54354 0.0
C3417 C 0.09174 0.3447 0.52475 0.0
C3418 C 0.0825 0.33804 0.50557 0.0
H3419 H 0.09449 0.28929 0.46128 0.0
H3420 H 0.09853 0.31652 0.46744 0.0
H3421 H 0.09383 0.29872 0.48801 0.0
H3422 H 0.04325 0.30721 0.5236 0.0
H3423 H 0.05884 0.31938 0.55699 0.0
H3424 H 0.47011 0.70488 0.31124 0.0
H3425 H 0.45184 0.68298 0.28423 0.0
H3426 H 0.39545 0.71597 0.29484 0.0
H3427 H 0.41413 0.73884 0.32076 0.0
H3428 H 0.42022 0.65706 0.27989 0.0
H3429 H 0.40199 0.72673 0.23505 0.0
H3430 H 0.41841 0.72821 0.25825 0.0
H3431 H 0.39047 0.72717 0.26015 0.0
C3432 C 0.45373 0.70721 0.30798 0.0
C3433 C 0.44355 0.72366 0.31778 0.0
C3434 C 0.4433 0.69473 0.29254 0.0
C3435 C 0.42243 0.69828 0.28698 0.0
C3436 C 0.41175 0.71348 0.29823 0.0
H3437 H 0.35771 0.6134 0.19399 0.0
H3438 H 0.36821 0.63149 0.22701 0.0
C3439 C 0.42235 0.72638 0.31318 0.0
C3440 C 0.4124 0.68705 0.26856 0.0
H3441 H 0.38788 0.69464 0.22168 0.0
C3442 C 0.41314 0.66526 0.26714 0.0
C3443 C 0.40347 0.69779 0.25175 0.0
C3444 C 0.40372 0.72125 0.25124 0.0
C3445 C 0.40556 0.65395 0.24928 0.0
C3446 C 0.39612 0.66467 0.23274 0.0
C3447 C 0.39497 0.6864 0.2344 0.0
C3448 C 0.38874 0.65402 0.21287 0.0
C3449 C 0.40868 0.63079 0.248 0.0
C3450 C 0.3959 0.66128 0.19384 0.0
C3451 C 0.38935 0.65146 0.175 0.0
C3452 C 0.37579 0.63391 0.1748 0.0
C3453 C 0.36836 0.62678 0.19377 0.0
C3454 C 0.37452 0.63697 0.21263 0.0
H3455 H 0.42126 0.62615 0.25896 0.0
H3456 H 0.39409 0.62251 0.25228 0.0
H3457 H 0.41264 0.62555 0.23198 0.0
H3458 H 0.40684 0.67442 0.19356 0.0
H3459 H 0.39543 0.65722 0.16062 0.0
H3460 H -0.01483 0.68758 0.06153 0.0
H3461 H -0.00504 0.66715 0.0307 0.0
H3462 H 0.05986 0.67764 0.04782 0.0
H3463 H 0.05028 0.69805 0.07867 0.0
H3464 H 0.02003 0.68472 -0.00065 0.0
H3465 H 0.05528 0.61468 0.03186 0.0
H3466 H 0.03795 0.63084 0.04647 0.0
H3467 H 0.06473 0.63894 0.0438 0.0
C3468 C 0.00153 0.68521 0.05898 0.0
C3469 C 0.01696 0.69453 0.07253 0.0
C3470 C 0.00707 0.67354 0.04134 0.0
C3471 C 0.02811 0.67073 0.0371 0.0
C3472 C 0.04352 0.67932 0.051 0.0
H3473 H 0.10369 0.63143 0.93665 0.0
H3474 H 0.08854 0.64066 0.97002 0.0
C3475 C 0.03801 0.6911 0.06857 0.0
C3476 C 0.03404 0.66076 0.01709 0.0
H3477 H 0.06171 0.62117 -0.00385 0.0
C3478 C 0.02888 0.67065 -0.00143 0.0
C3479 C 0.04571 0.64252 0.01622 0.0
C3480 C 0.05113 0.63098 0.03562 0.0
C3481 C 0.03581 0.66329 0.97923 0.0
C3482 C 0.04776 0.64518 0.97834 0.0
C3483 C 0.05249 0.63499 -0.00315 0.0
C3484 C 0.0566 0.63743 0.95854 0.0
C3485 C 0.03111 0.67558 0.9601 0.0
C3486 C 0.04365 0.63186 0.94113 0.0
C3487 C 0.05227 0.62676 0.92192 0.0
C3488 C 0.07401 0.62687 0.91985 0.0
C3489 C 0.08689 0.63128 0.93763 0.0
C3490 C 0.07826 0.63654 0.95676 0.0
H3491 H 0.02633 0.69161 0.96424 0.0
H3492 H 0.04487 0.67665 0.95005 0.0
H3493 H 0.01813 0.66768 0.95089 0.0
H3494 H 0.02688 0.63191 0.94228 0.0
H3495 H 0.0419 0.62318 0.9086 0.0
H3496 H 0.04992 0.25035 0.81384 0.0
H3497 H 0.07479 0.25694 0.78623 0.0
H3498 H 0.06388 0.32264 0.79208 0.0
H3499 H 0.03916 0.31615 0.8194 0.0
H3500 H 0.05922 0.2741 0.75009 0.0
H3501 H 0.1261 0.32253 0.78136 0.0
H3502 H 0.10998 0.30679 0.79776 0.0
H3503 H 0.1018 0.33202 0.79014 0.0
C3504 C 0.05355 0.26626 0.80983 0.0
C3505 C 0.04257 0.28275 0.81865 0.0
C3506 C 0.06767 0.27 0.79401 0.0
C3507 C 0.07129 0.2903 0.78717 0.0
C3508 C 0.06168 0.3069 0.79732 0.0
H3509 H 0.09548 0.36284 0.68398 0.0
H3510 H 0.0912 0.34741 0.71792 0.0
C3511 C 0.04744 0.30317 0.81288 0.0
C3512 C 0.08167 0.29399 0.7672 0.0
H3513 H 0.11685 0.32656 0.74477 0.0
C3514 C 0.07221 0.28513 0.74889 0.0
C3515 C 0.09848 0.30852 0.7657 0.0
C3516 C 0.1098 0.31785 0.78483 0.0
C3517 C 0.07802 0.29157 0.72913 0.0
C3518 C 0.09414 0.30693 0.72763 0.0
C3519 C 0.10445 0.31487 0.74592 0.0
C3520 C 0.099 0.31638 0.70745 0.0
C3521 C 0.0658 0.28295 0.71016 0.0
C3522 C 0.10535 0.30419 0.69038 0.0
C3523 C 0.10754 0.31292 0.67083 0.0
C3524 C 0.10372 0.33409 0.66808 0.0
C3525 C 0.09844 0.34647 0.68549 0.0
C3526 C 0.09606 0.33768 0.70495 0.0
H3527 H 0.05115 0.2747 0.7144 0.0
H3528 H 0.0618 0.29556 0.69948 0.0
H3529 H 0.07539 0.27169 0.70155 0.0
H3530 H 0.10819 0.28782 0.69206 0.0
H3531 H 0.11194 0.30302 0.65782 0.0
H3532 H 0.45403 0.25624 0.54961 0.0
H3533 H 0.44866 0.27561 0.5178 0.0
H3534 H 0.41522 0.3217 0.55246 0.0
H3535 H 0.4206 0.30266 0.58429 0.0
H3536 H 0.40942 0.28375 0.50097 0.0
H3537 H 0.45533 0.35701 0.5182 0.0
H3538 H 0.45927 0.33358 0.53239 0.0
H3539 H 0.43805 0.35004 0.53854 0.0
C3540 C 0.44572 0.27061 0.5505 0.0
C3541 C 0.43766 0.27788 0.56944 0.0
C3542 C 0.44275 0.28167 0.53236 0.0
C3543 C 0.43187 0.30022 0.53294 0.0
C3544 C 0.42408 0.30766 0.55184 0.0
H3545 H 0.35779 0.35515 0.43895 0.0
H3546 H 0.37318 0.3432 0.47147 0.0
C3547 C 0.42699 0.29663 0.56995 0.0
C3548 C 0.42675 0.31073 0.51349 0.0
H3549 H 0.43007 0.35749 0.48995 0.0
C3550 C 0.41415 0.29978 0.49843 0.0
C3551 C 0.43304 0.33161 0.51028 0.0
C3552 C 0.44734 0.34371 0.52562 0.0
C3553 C 0.40701 0.30942 0.4805 0.0
C3554 C 0.4125 0.33056 0.47776 0.0
C3555 C 0.42573 0.34135 0.49238 0.0
C3556 C 0.4043 0.3415 0.45971 0.0
C3557 C 0.39342 0.29704 0.4647 0.0
C3558 C 0.41703 0.34531 0.44281 0.0
C3559 C 0.40832 0.35209 0.42417 0.0
C3560 C 0.38675 0.35509 0.42226 0.0
C3561 C 0.3744 0.35278 0.43983 0.0
C3562 C 0.38313 0.34598 0.45842 0.0
H3563 H 0.39381 0.28005 0.46722 0.0
H3564 H 0.37708 0.3019 0.46598 0.0
H3565 H 0.39839 0.30004 0.44861 0.0
H3566 H 0.43343 0.34194 0.44367 0.0
H3567 H 0.4183 0.35394 0.41098 0.0
H3568 H 0.16432 0.45864 0.251 0.0
H3569 H 0.19706 0.44244 0.26022 0.0
H3570 H 0.16384 0.39814 0.29708 0.0
H3571 H 0.13102 0.41401 0.28781 0.0
H3572 H 0.21221 0.44017 0.30101 0.0
H3573 H 0.2028 0.36158 0.26308 0.0
H3574 H 0.18705 0.38308 0.25574 0.0
H3575 H 0.18123 0.36887 0.27864 0.0
C3576 C 0.16394 0.44531 0.26089 0.0
C3577 C 0.14511 0.43766 0.26877 0.0
C3578 C 0.18263 0.43605 0.26606 0.0
C3579 C 0.18273 0.41895 0.27905 0.0
C3580 C 0.16396 0.41105 0.28665 0.0
H3581 H 0.28076 0.38117 0.361 0.0
H3582 H 0.24753 0.38988 0.34465 0.0
C3583 C 0.14527 0.42027 0.28149 0.0
C3584 C 0.20264 0.41069 0.28636 0.0
H3585 H 0.23036 0.36644 0.28881 0.0
C3586 C 0.21628 0.42411 0.29819 0.0
C3587 C 0.20784 0.38976 0.28251 0.0
C3588 C 0.19406 0.37501 0.26913 0.0
C3589 C 0.23484 0.417 0.30679 0.0
C3590 C 0.23964 0.39588 0.30367 0.0
C3591 C 0.22635 0.38256 0.29134 0.0
C3592 C 0.25858 0.3876 0.31315 0.0
C3593 C 0.24918 0.43209 0.3192 0.0
C3594 C 0.27536 0.38268 0.30066 0.0
C3595 C 0.29438 0.37773 0.30991 0.0
C3596 C 0.29679 0.37765 0.33177 0.0
C3597 C 0.27948 0.38133 0.34413 0.0
C3598 C 0.2605 0.38629 0.33486 0.0
H3599 H 0.24535 0.44852 0.31651 0.0
H3600 H 0.2477 0.42928 0.33608 0.0
H3601 H 0.26566 0.42981 0.31515 0.0
H3602 H 0.27401 0.38357 0.28384 0.0
H3603 H 0.30736 0.37474 0.29995 0.0
H3604 H 0.2965 0.40209 -0.00897 0.0
H3605 H 0.31158 0.42606 0.01776 0.0
H3606 H 0.25715 0.41754 0.05481 0.0
H3607 H 0.24168 0.39357 0.02776 0.0
H3608 H 0.2649 0.4578 0.04644 0.0
H3609 H 0.33788 0.42458 0.07544 0.0
H3610 H 0.33653 0.42369 0.04748 0.0
H3611 H 0.31769 0.40895 0.06174 0.0
C3612 C 0.28791 0.40486 0.00509 0.0
C3613 C 0.26778 0.39613 0.00717 0.0
C3614 C 0.29668 0.41844 0.0205 0.0
C3615 C 0.2856 0.42346 0.03839 0.0
C3616 C 0.26603 0.41374 0.04116 0.0
H3617 H 0.33623 0.52438 0.12265 0.0
H3618 H 0.32289 0.4901 0.10998 0.0
C3619 C 0.25722 0.40004 0.02572 0.0
C3620 C 0.29304 0.44125 0.05212 0.0
H3621 H 0.33673 0.46245 0.07699 0.0
C3622 C 0.28044 0.45863 0.05354 0.0
C3623 C 0.31325 0.44232 0.0615 0.0
C3624 C 0.32701 0.42377 0.06165 0.0
C3625 C 0.28799 0.47746 0.06287 0.0
C3626 C 0.30877 0.47901 0.07068 0.0
C3627 C 0.32093 0.46129 0.07058 0.0
C3628 C 0.3183 0.4992 0.07808 0.0
C3629 C 0.27382 0.49571 0.06382 0.0
C3630 C 0.32072 0.51541 0.06415 0.0
C3631 C 0.32835 0.53498 0.07128 0.0
C3632 C 0.33372 0.53869 0.0925 0.0
C3633 C 0.33211 0.52211 0.10624 0.0
C3634 C 0.3245 0.50251 0.09906 0.0
H3635 H 0.25715 0.49059 0.06246 0.0
H3636 H 0.27644 0.50497 0.07861 0.0
H3637 H 0.27715 0.50598 0.05066 0.0
H3638 H 0.31634 0.51299 0.04781 0.0
H3639 H 0.32953 0.54732 0.06024 0.0
H3640 H 0.31318 0.54028 0.81295 0.0
H3641 H 0.28469 0.5637 0.81885 0.0
H3642 H 0.28186 0.57657 0.75331 0.0
H3643 H 0.31057 0.55292 0.74725 0.0
H3644 H 0.27457 0.60624 0.80936 0.0
H3645 H 0.22567 0.54558 0.76534 0.0
H3646 H 0.25189 0.54078 0.77426 0.0
H3647 H 0.24752 0.55696 0.75241 0.0
C3648 C 0.30693 0.54858 0.79987 0.0
C3649 C 0.3139 0.5446 0.7796 0.0
C3650 C 0.29067 0.56199 0.80328 0.0
C3651 C 0.28092 0.57155 0.78647 0.0
C3652 C 0.28906 0.56912 0.76645 0.0
H3653 H 0.15147 0.60868 0.7988 0.0
H3654 H 0.18572 0.60501 0.78358 0.0
C3655 C 0.30555 0.55576 0.76304 0.0
C3656 C 0.26071 0.58142 0.78983 0.0
H3657 H 0.20841 0.57119 0.78394 0.0
C3658 C 0.26008 0.59887 0.80348 0.0
C3659 C 0.24182 0.57175 0.78215 0.0
C3660 C 0.24157 0.55266 0.76781 0.0
C3661 C 0.24104 0.60642 0.81027 0.0
C3662 C 0.22221 0.5959 0.80365 0.0
C3663 C 0.22283 0.57921 0.78907 0.0
C3664 C 0.20191 0.60053 0.81304 0.0
C3665 C 0.24136 0.62537 0.82475 0.0
C3666 C 0.19958 0.59923 0.83466 0.0
C3667 C 0.18006 0.60137 0.84341 0.0
C3668 C 0.16234 0.60455 0.83069 0.0
C3669 C 0.16476 0.60617 0.80905 0.0
C3670 C 0.18434 0.60413 0.80033 0.0
H3671 H 0.2552 0.63566 0.8222 0.0
H3672 H 0.2271 0.63446 0.82262 0.0
H3673 H 0.2423 0.62038 0.84113 0.0
H3674 H 0.21274 0.59584 0.84475 0.0
H3675 H 0.1788 0.59996 0.86011 0.0
H3676 H 0.20352 0.55012 0.4961 0.0
H3677 H 0.18663 0.51962 0.51065 0.0
H3678 H 0.13973 0.55814 0.53705 0.0
H3679 H 0.15654 0.58897 0.52244 0.0
H3680 H 0.18017 0.51498 0.55426 0.0
H3681 H 0.10644 0.50844 0.50656 0.0
H3682 H 0.12914 0.52295 0.49836 0.0
H3683 H 0.11329 0.53355 0.51841 0.0
C3684 C 0.18951 0.55217 0.50483 0.0
C3685 C 0.18141 0.57204 0.50814 0.0
C3686 C 0.17988 0.53469 0.51314 0.0
C3687 C 0.16188 0.53661 0.52479 0.0
C3688 C 0.15347 0.55631 0.52786 0.0
H3689 H 0.11982 0.43988 0.60762 0.0
H3690 H 0.12785 0.4736 0.59277 0.0
C3691 C 0.16315 0.5739 0.51958 0.0
C3692 C 0.15281 0.51804 0.53465 0.0
H3693 H 0.11079 0.48409 0.53302 0.0
C3694 C 0.16494 0.50829 0.54973 0.0
C3695 C 0.13302 0.50932 0.52854 0.0
C3696 C 0.11968 0.51895 0.51198 0.0
C3697 C 0.15793 0.4899 0.55877 0.0
C3698 C 0.13812 0.48116 0.55273 0.0
C3699 C 0.12589 0.49096 0.53771 0.0
C3700 C 0.13045 0.4613 0.56121 0.0
C3701 C 0.17206 0.4796 0.57425 0.0
C3702 C 0.12838 0.44337 0.54821 0.0
C3703 C 0.12375 0.42403 0.55662 0.0
C3704 C 0.12107 0.42233 0.57821 0.0
C3705 C 0.122 0.44056 0.59097 0.0
C3706 C 0.12662 0.45986 0.58254 0.0
H3707 H 0.18832 0.48596 0.57398 0.0
H3708 H 0.16624 0.48226 0.59021 0.0
H3709 H 0.17215 0.46255 0.57102 0.0
H3710 H 0.13121 0.44419 0.53168 0.0
H3711 H 0.12301 0.41035 0.54631 0.0
H3712 H 0.16006 0.50361 0.20956 0.0
H3713 H 0.19023 0.52033 0.19426 0.0
H3714 H 0.15922 0.57881 0.19491 0.0
H3715 H 0.12895 0.56223 0.21084 0.0
H3716 H 0.1938 0.53938 0.15781 0.0
H3717 H 0.21469 0.59509 0.22361 0.0
H3718 H 0.196 0.57384 0.22596 0.0
H3719 H 0.18868 0.597 0.21305 0.0
C3720 C 0.15957 0.52005 0.20648 0.0
C3721 C 0.14208 0.5316 0.21152 0.0
C3722 C 0.17688 0.52959 0.19772 0.0
C3723 C 0.17714 0.55089 0.19371 0.0
C3724 C 0.15956 0.56245 0.1983 0.0
H3725 H 0.27526 0.6 0.11495 0.0
H3726 H 0.24121 0.59232 0.12948 0.0
C3727 C 0.14221 0.55292 0.20726 0.0
C3728 C 0.19585 0.56061 0.18446 0.0
H3729 H 0.2353 0.59687 0.19375 0.0
C3730 C 0.20281 0.55204 0.16561 0.0
C3731 C 0.20771 0.57698 0.19478 0.0
C3732 C 0.20155 0.58619 0.21556 0.0
C3733 C 0.22148 0.55905 0.15698 0.0
C3734 C 0.23325 0.57555 0.16718 0.0
C3735 C 0.22615 0.58437 0.18587 0.0
C3736 C 0.25361 0.5829 0.15929 0.0
C3737 C 0.22882 0.54807 0.1375 0.0
C3738 C 0.27183 0.58132 0.17165 0.0
C3739 C 0.29132 0.58602 0.16351 0.0
C3740 C 0.29293 0.59226 0.14279 0.0
C3741 C 0.27457 0.59491 0.13085 0.0
C3742 C 0.2551 0.59044 0.13909 0.0
H3743 H 0.22085 0.53261 0.13475 0.0
H3744 H 0.22535 0.55761 0.12381 0.0
H3745 H 0.24588 0.54584 0.13843 0.0
H3746 H 0.27103 0.57566 0.18735 0.0
H3747 H 0.30514 0.58388 0.17315 0.0
H3748 H 0.21312 0.42958 0.92231 0.0
H3749 H 0.18882 0.45466 0.91003 0.0
H3750 H 0.13738 0.41645 0.93039 0.0
H3751 H 0.16209 0.39109 0.94358 0.0
H3752 H 0.15885 0.45022 0.88041 0.0
H3753 H 0.12471 0.47293 0.95634 0.0
H3754 H 0.14763 0.45753 0.95483 0.0
H3755 H 0.12242 0.4459 0.94834 0.0
C3756 C 0.19666 0.42632 0.92425 0.0
C3757 C 0.18958 0.40822 0.93394 0.0
C3758 C 0.18273 0.44077 0.91716 0.0
C3759 C 0.16126 0.43756 0.91933 0.0
C3760 C 0.15393 0.41943 0.92883 0.0
H3761 H 0.09727 0.5355 0.85132 0.0
H3762 H 0.10397 0.50037 0.86299 0.0
C3763 C 0.16803 0.40491 0.93624 0.0
C3764 C 0.14716 0.45358 0.91139 0.0
H3765 H 0.116 0.49265 0.92748 0.0
C3766 C 0.14919 0.45934 0.8906 0.0
C3767 C 0.13462 0.46544 0.92474 0.0
C3768 C 0.13223 0.46032 0.94735 0.0
C3769 C 0.14048 0.4775 0.88321 0.0
C3770 C 0.12848 0.48982 0.89675 0.0
C3771 C 0.1252 0.48323 0.91713 0.0
C3772 C 0.12148 0.51075 0.89094 0.0
C3773 C 0.14564 0.48405 0.8615 0.0
C3774 C 0.12787 0.52828 0.9034 0.0
C3775 C 0.12353 0.54829 0.89708 0.0
C3776 C 0.11297 0.55123 0.87798 0.0
C3777 C 0.10577 0.53369 0.86594 0.0
C3778 C 0.10969 0.51362 0.87254 0.0
H3779 H 0.15898 0.47552 0.85518 0.0
H3780 H 0.13199 0.48067 0.85084 0.0
H3781 H 0.14956 0.50097 0.86131 0.0
H3782 H 0.13693 0.52654 0.9177 0.0
H3783 H 0.12925 0.56149 0.90673 0.0
H3784 H 0.29428 0.43535 0.74762 0.0
H3785 H 0.27038 0.41656 0.72315 0.0
H3786 H 0.30014 0.44573 0.67169 0.0
H3787 H 0.32402 0.46509 0.69624 0.0
H3788 H 0.25845 0.44947 0.67005 0.0
H3789 H 0.27574 0.3674 0.68353 0.0
H3790 H 0.27115 0.3812 0.70759 0.0
H3791 H 0.29316 0.38864 0.69237 0.0
C3792 C 0.29603 0.43757 0.73109 0.0
C3793 C 0.31105 0.45181 0.72391 0.0
C3794 C 0.28244 0.42663 0.71708 0.0
C3795 C 0.28368 0.42946 0.69556 0.0
C3796 C 0.29903 0.4432 0.68824 0.0
H3797 H 0.18846 0.38707 0.60095 0.0
H3798 H 0.22215 0.39867 0.6167 0.0
C3799 C 0.31266 0.45423 0.70229 0.0
C3800 C 0.2675 0.41974 0.68114 0.0
H3801 H 0.24134 0.37371 0.66906 0.0
C3802 C 0.25499 0.43285 0.66944 0.0
C3803 C 0.26301 0.39805 0.68037 0.0
C3804 C 0.27663 0.38301 0.69148 0.0
C3805 C 0.23738 0.42501 0.65801 0.0
C3806 C 0.23229 0.4035 0.6582 0.0
C3807 C 0.24527 0.39023 0.66911 0.0
C3808 C 0.21266 0.39484 0.64846 0.0
C3809 C 0.22372 0.43989 0.64669 0.0
C3810 C 0.19642 0.38839 0.66114 0.0
C3811 C 0.17716 0.38184 0.65225 0.0
C3812 C 0.17384 0.38149 0.63047 0.0
C3813 C 0.19045 0.38722 0.61778 0.0
C3814 C 0.2097 0.3939 0.62672 0.0
H3815 H 0.22841 0.45641 0.65028 0.0
H3816 H 0.2247 0.43693 0.62961 0.0
H3817 H 0.2072 0.43737 0.6509 0.0
H3818 H 0.19849 0.389 0.67797 0.0
H3819 H 0.16476 0.37738 0.66247 0.0
H3820 H 0.30519 0.59506 0.43777 0.0
H3821 H 0.32278 0.56498 0.42327 0.0
H3822 H 0.27459 0.52414 0.44592 0.0
H3823 H 0.25671 0.55411 0.46035 0.0
H3824 H 0.33741 0.52873 0.44323 0.0
H3825 H 0.27586 0.5107 0.38228 0.0
H3826 H 0.27795 0.53534 0.39659 0.0
H3827 H 0.26648 0.51291 0.40836 0.0
C3828 C 0.29834 0.57968 0.43974 0.0
C3829 C 0.27944 0.57697 0.45004 0.0
C3830 C 0.30845 0.56255 0.43149 0.0
C3831 C 0.29978 0.54248 0.43331 0.0
C3832 C 0.28129 0.53961 0.4441 0.0
H3833 H 0.34649 0.42101 0.41531 0.0
H3834 H 0.33766 0.45531 0.42896 0.0
C3835 C 0.27116 0.55673 0.45239 0.0
C3836 C 0.30983 0.52453 0.42352 0.0
H3837 H 0.30157 0.48541 0.38691 0.0
C3838 C 0.3297 0.5193 0.43081 0.0
C3839 C 0.29982 0.5126 0.40708 0.0
C3840 C 0.27893 0.51823 0.39794 0.0
C3841 C 0.33955 0.50186 0.42254 0.0
C3842 C 0.32907 0.48935 0.4068 0.0
C3843 C 0.30952 0.49503 0.39904 0.0
C3844 C 0.33739 0.4696 0.39889 0.0
C3845 C 0.36102 0.49697 0.4307 0.0
C3846 C 0.34023 0.46633 0.37745 0.0
C3847 C 0.34507 0.44668 0.36954 0.0
C3848 C 0.34699 0.42995 0.38295 0.0
C3849 C 0.34506 0.43354 0.40454 0.0
C3850 C 0.34019 0.45319 0.41242 0.0
H3851 H 0.36925 0.51103 0.43778 0.0
H3852 H 0.35962 0.48528 0.44297 0.0
H3853 H 0.37061 0.49043 0.4181 0.0
H3854 H 0.33803 0.47884 0.36678 0.0
H3855 H 0.34657 0.44446 0.35285 0.0
H3856 H 0.29209 0.14169 0.41959 0.0
H3857 H 0.3014 0.17528 0.40537 0.0
H3858 H 0.26075 0.20564 0.44832 0.0
H3859 H 0.25154 0.17202 0.463 0.0
H3860 H 0.27564 0.20459 0.38689 0.0
H3861 H 0.31737 0.23631 0.45882 0.0
H3862 H 0.31034 0.20904 0.45504 0.0
H3863 H 0.29093 0.22731 0.46198 0.0
C3864 C 0.28511 0.15548 0.42607 0.0
C3865 C 0.27118 0.15422 0.44252 0.0
C3866 C 0.2904 0.17464 0.41786 0.0
C3867 C 0.28188 0.19286 0.42594 0.0
C3868 C 0.2677 0.19171 0.44212 0.0
H3869 H 0.29945 0.31644 0.37574 0.0
H3870 H 0.28336 0.28396 0.38726 0.0
C3871 C 0.26245 0.17252 0.45044 0.0
C3872 C 0.28831 0.21304 0.41755 0.0
H3873 H 0.31587 0.25807 0.43003 0.0
C3874 C 0.28428 0.21639 0.39632 0.0
C3875 C 0.29972 0.22822 0.42995 0.0
C3876 C 0.30503 0.22508 0.45268 0.0
C3877 C 0.29164 0.23453 0.38707 0.0
C3878 C 0.30319 0.24954 0.39944 0.0
C3879 C 0.30693 0.24639 0.42071 0.0
C3880 C 0.31247 0.26827 0.39047 0.0
C3881 C 0.28768 0.23732 0.36407 0.0
C3882 C 0.33406 0.26988 0.38827 0.0
C3883 C 0.34332 0.28831 0.38169 0.0
C3884 C 0.33109 0.30548 0.37743 0.0
C3885 C 0.30931 0.30352 0.37898 0.0
C3886 C 0.30007 0.28501 0.3855 0.0
H3887 H 0.27997 0.22333 0.35628 0.0
H3888 H 0.27759 0.2508 0.36184 0.0
H3889 H 0.30259 0.24074 0.35634 0.0
H3890 H 0.34379 0.25701 0.3921 0.0
H3891 H 0.3601 0.28928 0.38059 0.0
H3892 H 0.75008 0.31652 0.54841 0.0
H3893 H 0.75805 0.28839 0.57213 0.0
H3894 H 0.82113 0.28849 0.55094 0.0
H3895 H 0.81323 0.31619 0.52715 0.0
H3896 H 0.77246 0.24953 0.55382 0.0
H3897 H 0.82732 0.28235 0.61535 0.0
H3898 H 0.80939 0.29812 0.60107 0.0
H3899 H 0.83313 0.29018 0.58946 0.0
C3900 C 0.76581 0.311 0.54936 0.0
C3901 C 0.78103 0.31847 0.53592 0.0
C3902 C 0.77032 0.2949 0.56284 0.0
C3903 C 0.79023 0.28649 0.56339 0.0
C3904 C 0.80578 0.29497 0.55101 0.0
H3905 H 0.86027 0.1821 0.59249 0.0
H3906 H 0.84615 0.21607 0.58573 0.0
C3907 C 0.80121 0.31074 0.53735 0.0
C3908 C 0.79416 0.26695 0.57422 0.0
H3909 H 0.82761 0.24541 0.609 0.0
C3910 C 0.78416 0.24859 0.56623 0.0
C3911 C 0.80959 0.26585 0.59022 0.0
C3912 C 0.82038 0.2852 0.59969 0.0
C3913 C 0.79013 0.229 0.57283 0.0
C3914 C 0.80613 0.22781 0.58836 0.0
C3915 C 0.81538 0.24629 0.5971 0.0
C3916 C 0.81474 0.2076 0.59433 0.0
C3917 C 0.7802 0.20981 0.56207 0.0
C3918 C 0.80193 0.19163 0.60193 0.0
C3919 C 0.80991 0.17203 0.6055 0.0
C3920 C 0.83096 0.16816 0.60192 0.0
C3921 C 0.84398 0.18451 0.59534 0.0
C3922 C 0.83593 0.20398 0.59151 0.0
H3923 H 0.77195 0.21347 0.54726 0.0
H3924 H 0.79204 0.19809 0.55855 0.0
H3925 H 0.76862 0.20274 0.57245 0.0
H3926 H 0.78567 0.19421 0.60477 0.0
H3927 H 0.79955 0.15985 0.61086 0.0
H3928 H 0.38154 0.00464 0.30708 0.0
H3929 H 0.40633 0.02914 0.32504 0.0
H3930 H 0.42859 0.04837 0.26554 0.0
H3931 H 0.40287 0.02488 0.24766 0.0
H3932 H 0.44495 0.02384 0.32444 0.0
H3933 H 0.43381 0.10258 0.29581 0.0
H3934 H 0.41437 0.08195 0.29136 0.0
H3935 H 0.43588 0.08471 0.27405 0.0
C3936 C 0.39114 0.0148 0.2979 0.0
C3937 C 0.39032 0.01298 0.27603 0.0
C3938 C 0.40538 0.02871 0.30815 0.0
C3939 C 0.41941 0.04069 0.29671 0.0
C3940 C 0.41765 0.03979 0.27479 0.0
H3941 H 0.54806 0.06277 0.32823 0.0
H3942 H 0.5132 0.04928 0.31828 0.0
C3943 C 0.40298 0.02627 0.26453 0.0
C3944 C 0.4378 0.05129 0.30748 0.0
H3945 H 0.46902 0.09521 0.30794 0.0
C3946 C 0.44992 0.03963 0.32112 0.0
C3947 C 0.4443 0.07196 0.3035 0.0
C3948 C 0.43123 0.08605 0.29056 0.0
C3949 C 0.46873 0.04766 0.33006 0.0
C3950 C 0.47615 0.06761 0.32457 0.0
C3951 C 0.46356 0.07973 0.31183 0.0
C3952 C 0.49727 0.07575 0.33111 0.0
C3953 C 0.48045 0.03457 0.34526 0.0
C3954 C 0.50003 0.09541 0.3411 0.0
C3955 C 0.52003 0.10336 0.34645 0.0
C3956 C 0.53764 0.09174 0.34198 0.0
C3957 C 0.53482 0.07199 0.33215 0.0
C3958 C 0.51486 0.0642 0.32655 0.0
H3959 H 0.46967 0.02391 0.35338 0.0
H3960 H 0.49148 0.02482 0.33661 0.0
H3961 H 0.48938 0.04436 0.35718 0.0
H3962 H 0.4867 0.10464 0.34469 0.0
H3963 H 0.5217 0.11864 0.35402 0.0
H3964 H 0.73371 0.65527 0.03656 0.0
H3965 H 0.72012 0.68545 0.05526 0.0
H3966 H 0.65856 0.67008 0.02992 0.0
H3967 H 0.67199 0.63993 0.01094 0.0
H3968 H 0.69617 0.71808 0.03128 0.0
H3969 H 0.65375 0.68201 0.09613 0.0
H3970 H 0.67539 0.66977 0.08382 0.0
H3971 H 0.65052 0.66989 0.07048 0.0
C3972 C 0.71721 0.65809 0.03518 0.0
C3973 C 0.70393 0.64522 0.02219 0.0
C3974 C 0.70951 0.67536 0.04587 0.0
C3975 C 0.68836 0.67986 0.04403 0.0
C3976 C 0.67491 0.6667 0.03167 0.0
H3977 H 0.60842 0.77712 0.08391 0.0
H3978 H 0.62418 0.74459 0.0733 0.0
C3979 C 0.68263 0.64953 0.0208 0.0
C3980 C 0.68067 0.69927 0.05359 0.0
H3981 H 0.6498 0.71805 0.09183 0.0
C3982 C 0.68617 0.71817 0.04463 0.0
C3983 C 0.66752 0.69917 0.07084 0.0
C3984 C 0.66145 0.67918 0.08105 0.0
C3985 C 0.67838 0.73703 0.05211 0.0
C3986 C 0.66524 0.73703 0.06949 0.0
C3987 C 0.65996 0.71807 0.07861 0.0
C3988 C 0.65595 0.75639 0.07768 0.0
C3989 C 0.68361 0.75662 0.04074 0.0
C3990 C 0.66856 0.77371 0.08432 0.0
C3991 C 0.65958 0.79248 0.09017 0.0
C3992 C 0.63781 0.79415 0.08984 0.0
C3993 C 0.62524 0.77642 0.08429 0.0
C3994 C 0.63423 0.75777 0.07822 0.0
H3995 H 0.68898 0.75311 0.02473 0.0
H3996 H 0.66994 0.7667 0.0396 0.0
H3997 H 0.69637 0.76547 0.0494 0.0
H3998 H 0.68536 0.77284 0.08462 0.0
H3999 H 0.6697 0.80575 0.09462 0.0
H4000 H 0.55265 0.46941 0.25877 0.0
H4001 H 0.52008 0.45822 0.27444 0.0
H4002 H 0.55471 0.43056 0.32436 0.0
H4003 H 0.58732 0.44182 0.30903 0.0
H4004 H 0.50856 0.41676 0.28151 0.0
H4005 H 0.5113 0.46495 0.35498 0.0
H4006 H 0.52721 0.47088 0.33304 0.0
H4007 H 0.53445 0.45076 0.35036 0.0
C4008 C 0.55334 0.4611 0.27318 0.0
C4009 C 0.57254 0.45646 0.28265 0.0
C4010 C 0.53475 0.45477 0.2821 0.0
C4011 C 0.5351 0.44385 0.30065 0.0
C4012 C 0.55419 0.43936 0.31026 0.0
H4013 H 0.43741 0.36275 0.34449 0.0
H4014 H 0.47082 0.37817 0.33469 0.0
C4015 C 0.57278 0.44567 0.30137 0.0
C4016 C 0.51552 0.43582 0.30918 0.0
H4017 H 0.48556 0.43745 0.35221 0.0
C4018 C 0.50345 0.42134 0.29692 0.0
C4019 C 0.50898 0.44199 0.32923 0.0
C4020 C 0.52104 0.45814 0.34263 0.0
C4021 C 0.48503 0.41255 0.30433 0.0
C4022 C 0.4788 0.41823 0.32462 0.0
C4023 C 0.49065 0.43299 0.33677 0.0
C4024 C 0.45956 0.40942 0.33308 0.0
C4025 C 0.47223 0.39746 0.29031 0.0
C4026 C 0.44258 0.42214 0.33622 0.0
C4027 C 0.4235 0.41344 0.34184 0.0
C4028 C 0.4212 0.39187 0.34442 0.0
C4029 C 0.43863 0.37937 0.3424 0.0
C4030 C 0.45769 0.38811 0.33677 0.0
H4031 H 0.47682 0.3982 0.27377 0.0
H4032 H 0.47456 0.38139 0.29549 0.0
H4033 H 0.45539 0.40062 0.2912 0.0
H4034 H 0.44388 0.43866 0.33352 0.0
H4035 H 0.41043 0.42352 0.3435 0.0
H4036 H 0.19766 0.81014 0.97542 0.0
H4037 H 0.17518 0.78402 0.95659 0.0
H4038 H 0.20292 0.80073 0.89869 0.0
H4039 H 0.22649 0.82572 0.91777 0.0
H4040 H 0.14702 0.78035 0.92678 0.0
H4041 H 0.21764 0.7416 0.89942 0.0
H4042 H 0.21905 0.76352 0.9176 0.0
H4043 H 0.21556 0.76738 0.89003 0.0
C4044 C 0.19864 0.80847 0.95862 0.0
C4045 C 0.21394 0.81963 0.94803 0.0
C4046 C 0.18583 0.79354 0.94785 0.0
C4047 C 0.18787 0.78987 0.92629 0.0
C4048 C 0.20165 0.80265 0.91542 0.0
H4049 H 0.10429 0.69438 0.86298 0.0
H4050 H 0.12053 0.72816 0.87379 0.0
C4051 C 0.21493 0.81708 0.92627 0.0
C4052 C 0.17693 0.77158 0.91571 0.0
H4053 H 0.1854 0.7269 0.88751 0.0
C4054 C 0.15539 0.76866 0.91815 0.0
C4055 C 0.18792 0.75613 0.90473 0.0
C4056 C 0.21132 0.75717 0.90296 0.0
C4057 C 0.14464 0.75056 0.91039 0.0
C4058 C 0.15559 0.73534 0.89906 0.0
C4059 C 0.17698 0.7386 0.89608 0.0
C4060 C 0.14579 0.71511 0.89163 0.0
C4061 C 0.12194 0.74753 0.91533 0.0
C4062 C 0.15506 0.69652 0.89719 0.0
C4063 C 0.14624 0.67732 0.89045 0.0
C4064 C 0.12772 0.67625 0.87829 0.0
C4065 C 0.11848 0.6948 0.87252 0.0
C4066 C 0.12763 0.71408 0.87887 0.0
H4067 H 0.11758 0.75762 0.9288 0.0
H4068 H 0.11221 0.75172 0.90164 0.0
H4069 H 0.11817 0.73111 0.91895 0.0
H4070 H 0.16907 0.69684 0.90701 0.0
H4071 H 0.15364 0.66328 0.89526 0.0
H4072 H 0.42955 0.93277 0.22355 0.0
H4073 H 0.45525 0.91985 0.1999 0.0
H4074 H 0.41488 0.93231 0.14724 0.0
H4075 H 0.38888 0.94601 0.17116 0.0
H4076 H 0.4512 0.8869 0.17293 0.0
H4077 H 0.47027 0.95899 0.13073 0.0
H4078 H 0.45564 0.95936 0.15434 0.0
H4079 H 0.4434 0.95027 0.13011 0.0
C4080 C 0.42601 0.93287 0.20695 0.0
C4081 C 0.40706 0.94037 0.19927 0.0
C4082 C 0.44079 0.92544 0.19342 0.0
C4083 C 0.43708 0.92514 0.17179 0.0
C4084 C 0.41822 0.93267 0.16388 0.0
H4085 H 0.5314 0.8524 0.10719 0.0
H4086 H 0.49704 0.86517 0.11564 0.0
C4087 C 0.40335 0.94039 0.17755 0.0
C4088 C 0.45312 0.91638 0.1581 0.0
H4089 H 0.49016 0.92978 0.12335 0.0
C4090 C 0.45956 0.89616 0.16185 0.0
C4091 C 0.46404 0.92854 0.14375 0.0
C4092 C 0.45816 0.95055 0.1395 0.0
C4093 C 0.47735 0.88821 0.15273 0.0
C4094 C 0.4886 0.90053 0.1387 0.0
C4095 C 0.4815 0.92034 0.13404 0.0
C4096 C 0.50891 0.89399 0.13053 0.0
C4097 C 0.48464 0.86727 0.15939 0.0
C4098 C 0.52692 0.90649 0.13486 0.0
C4099 C 0.5465 0.89945 0.12959 0.0
C4100 C 0.54849 0.87964 0.12011 0.0
C4101 C 0.53037 0.86758 0.11483 0.0
C4102 C 0.51074 0.87482 0.11974 0.0
H4103 H 0.47717 0.86228 0.1739 0.0
H4104 H 0.48051 0.85539 0.14693 0.0
H4105 H 0.50178 0.86757 0.1621 0.0
H4106 H 0.52592 0.92137 0.1431 0.0
H4107 H 0.56015 0.90915 0.13381 0.0
H4108 H 0.07816 0.00895 0.66018 0.0
H4109 H 0.04804 0.02349 0.64208 0.0
H4110 H 0.01757 0.03104 0.70076 0.0
H4111 H 0.04748 0.01699 0.71892 0.0
H4112 H 0.00627 0.01009 0.64012 0.0
H4113 H 0.01488 0.08885 0.67715 0.0
H4114 H 0.03532 0.07027 0.67826 0.0
H4115 H 0.01415 0.06889 0.69602 0.0
C4116 C 0.06507 0.01381 0.66922 0.0
C4117 C 0.06533 0.01199 0.69102 0.0
C4118 C 0.04788 0.02207 0.65885 0.0
C4119 C 0.03075 0.0287 0.67013 0.0
C4120 C 0.03083 0.0265 0.69181 0.0
H4121 H 0.90275 0.04743 0.63716 0.0
H4122 H 0.93668 0.03305 0.64513 0.0
C4123 C 0.04795 0.01836 0.70215 0.0
C4124 C 0.01253 0.03768 0.65946 0.0
H4125 H -0.01838 0.07978 0.66105 0.0
C4126 C 0.00099 0.02544 0.64446 0.0
C4127 C 0.00587 0.05784 0.66485 0.0
C4128 C 0.01833 0.07231 0.67979 0.0
C4129 C -0.01757 0.03247 0.63543 0.0
C4130 C 0.97504 0.05208 0.64192 0.0
C4131 C -0.01289 0.06465 0.65622 0.0
C4132 C 0.95454 0.0597 0.6348 0.0
C4133 C 0.97095 0.01883 0.61906 0.0
C4134 C 0.95321 0.07953 0.62647 0.0
C4135 C 0.93383 0.08794 0.62224 0.0
C4136 C 0.91534 0.07666 0.62622 0.0
C4137 C 0.91668 0.05647 0.6338 0.0
C4138 C 0.9361 0.04815 0.63823 0.0
H4139 H -0.01832 0.00826 0.61097 0.0
H4140 H 0.95905 0.00903 0.62667 0.0
H4141 H 0.96298 0.02825 0.60724 0.0
H4142 H 0.9672 0.08876 0.62373 0.0
H4143 H 0.93334 0.10348 0.61629 0.0
loop_
_geom_bond_atom_site_label_1
_geom_bond_atom_site_label_2
_geom_bond_distance
_geom_bond_site_symmetry_2
_ccdc_geom_bond_type
Zn0 O3 2.031 . S
Zn0 O5 2.049 . S
Zn0 O10 2.107 . S
Zn1 O2 1.952 1_455 S
Zn1 O4 1.993 . S
Zn1 O6 1.983 1_455 S
Zn1 O9 1.953 . S
O2 Zn1 1.952 1_655 S
O2 C7 1.254 . S
O3 Zn0 2.031 . S
O3 C7 1.269 . S
O4 Zn1 1.993 . S
O4 C11 1.262 . S
O5 Zn0 2.049 . S
O5 C13 1.260 . S
O6 Zn1 1.983 1_655 S
O6 C13 1.257 . S
C7 O2 1.254 . S
C7 O3 1.269 . S
C8 O9 1.249 . S
C8 O10 1.234 1_455 S
O9 Zn1 1.953 . S
O9 C8 1.249 . S
O10 Zn0 2.107 . S
O10 C8 1.234 1_655 S
C11 O4 1.262 . S
C11 O12 1.232 . S
O12 C11 1.232 . S
C13 O5 1.260 . S
C13 O6 1.257 . S
Zn14 O17 2.031 1_655 S
Zn14 O19 2.049 . S
Zn14 O24 2.067 . S
Zn15 O16 1.962 . S
Zn15 O18 1.986 . S
Zn15 O20 1.996 1_455 S
Zn15 O23 1.943 1_455 S
O16 Zn15 1.962 . S
O16 C21 1.254 . S
O17 Zn14 2.031 1_455 S
O17 C21 1.269 . S
O18 Zn15 1.986 . S
O18 C25 1.262 . S
O19 Zn14 2.049 . S
O19 C27 1.260 . S
O20 Zn15 1.996 1_655 S
O20 C27 1.257 . S
C21 O16 1.254 . S
C21 O17 1.269 . S
C22 O23 1.249 . S
C22 O24 1.270 . S
O23 Zn15 1.943 1_655 S
O23 C22 1.249 . S
O24 Zn14 2.067 . S
O24 C22 1.270 . S
C25 O18 1.262 . S
C25 O26 1.232 . S
O26 C25 1.232 . S
C27 O19 1.260 . S
C27 O20 1.257 . S
Zn28 O31 2.031 . S
Zn28 O33 2.049 . S
Zn28 O38 2.067 . S
Zn29 O30 1.962 . S
Zn29 O32 1.986 . S
Zn29 O34 1.996 . S
Zn29 O37 1.943 . S
O30 Zn29 1.962 . S
O30 C35 1.254 . S
O31 Zn28 2.031 . S
O31 C35 1.269 . S
O32 Zn29 1.986 . S
O32 C39 1.262 . S
O33 Zn28 2.049 . S
O33 C41 1.260 . S
O34 Zn29 1.996 . S
O34 C41 1.257 . S
C35 O30 1.254 . S
C35 O31 1.269 . S
C36 O37 1.249 . S
C36 O38 1.270 . S
O37 Zn29 1.943 . S
O37 C36 1.249 . S
O38 Zn28 2.067 . S
O38 C36 1.270 . S
C39 O32 1.262 . S
C39 O40 1.232 . S
O40 C39 1.232 . S
C41 O33 1.260 . S
C41 O34 1.257 . S
Zn42 O45 2.031 . S
Zn42 O47 2.049 . S
Zn42 O52 2.067 . S
Zn43 O44 1.962 . S
Zn43 O46 1.986 . S
Zn43 O48 1.996 . S
Zn43 O51 1.943 . S
O44 Zn43 1.962 . S
O44 C49 1.254 . S
O45 Zn42 2.031 . S
O45 C49 1.269 . S
O46 Zn43 1.986 . S
O46 C53 1.262 . S
O47 Zn42 2.049 . S
O47 C55 1.260 . S
O48 Zn43 1.996 . S
O48 C55 1.257 . S
C49 O44 1.254 . S
C49 O45 1.269 . S
C50 O51 1.249 . S
C50 O52 1.270 . S
O51 Zn43 1.943 . S
O51 C50 1.249 . S
O52 Zn42 2.067 . S
O52 C50 1.270 . S
C53 O46 1.262 . S
C53 O54 1.232 . S
O54 C53 1.232 . S
C55 O47 1.260 . S
C55 O48 1.257 . S
Zn56 O59 2.031 . S
Zn56 O61 2.049 . S
Zn56 O66 2.080 . S
Zn57 O58 1.947 1_455 S
Zn57 O60 1.997 . S
Zn57 O62 1.977 1_455 S
Zn57 O65 1.959 . S
O58 Zn57 1.947 1_655 S
O58 C63 1.254 . S
O59 Zn56 2.031 . S
O59 C63 1.269 . S
O60 Zn57 1.997 . S
O60 C67 1.262 . S
O61 Zn56 2.049 . S
O61 C69 1.260 . S
O62 Zn57 1.977 1_655 S
O62 C69 1.257 . S
C63 O58 1.254 . S
C63 O59 1.269 . S
C64 O65 1.249 . S
C64 O66 1.258 1_455 S
O65 Zn57 1.959 . S
O65 C64 1.249 . S
O66 Zn56 2.080 . S
O66 C64 1.258 1_655 S
C67 O60 1.262 . S
C67 O68 1.232 . S
O68 C67 1.232 . S
C69 O61 1.260 . S
C69 O62 1.257 . S
Zn70 O73 2.031 . S
Zn70 O75 2.049 . S
Zn70 O80 2.067 . S
Zn71 O72 1.962 . S
Zn71 O74 1.986 . S
Zn71 O76 1.996 . S
Zn71 O79 1.943 . S
O72 Zn71 1.962 . S
O72 C77 1.254 . S
O73 Zn70 2.031 . S
O73 C77 1.269 . S
O74 Zn71 1.986 . S
O74 C81 1.262 . S
O75 Zn70 2.049 . S
O75 C83 1.260 . S
O76 Zn71 1.996 . S
O76 C83 1.257 . S
C77 O72 1.254 . S
C77 O73 1.269 . S
C78 O79 1.249 . S
C78 O80 1.270 . S
O79 Zn71 1.943 . S
O79 C78 1.249 . S
O80 Zn70 2.067 . S
O80 C78 1.270 . S
C81 O74 1.262 . S
C81 O82 1.232 . S
O82 C81 1.232 . S
C83 O75 1.260 . S
C83 O76 1.257 . S
Zn84 O87 2.031 . S
Zn84 O89 2.049 . S
Zn84 O94 2.067 . S
Zn85 O86 1.962 . S
Zn85 O88 1.986 . S
Zn85 O90 1.996 . S
Zn85 O93 1.943 . S
O86 Zn85 1.962 . S
O86 C91 1.254 . S
O87 Zn84 2.031 . S
O87 C91 1.269 . S
O88 Zn85 1.986 . S
O88 C95 1.262 . S
O89 Zn84 2.049 . S
O89 C97 1.260 . S
O90 Zn85 1.996 . S
O90 C97 1.257 . S
C91 O86 1.254 . S
C91 O87 1.269 . S
C92 O93 1.249 . S
C92 O94 1.270 . S
O93 Zn85 1.943 . S
O93 C92 1.249 . S
O94 Zn84 2.067 . S
O94 C92 1.270 . S
C95 O88 1.262 . S
C95 O96 1.232 . S
O96 C95 1.232 . S
C97 O89 1.260 . S
C97 O90 1.257 . S
Zn98 O101 2.031 1_655 S
Zn98 O103 2.049 . S
Zn98 O108 2.067 . S
Zn99 O100 1.962 . S
Zn99 O102 1.986 . S
Zn99 O104 1.996 1_455 S
Zn99 O107 1.943 1_455 S
O100 Zn99 1.962 . S
O100 C105 1.254 . S
O101 Zn98 2.031 1_455 S
O101 C105 1.269 . S
O102 Zn99 1.986 . S
O102 C109 1.262 . S
O103 Zn98 2.049 . S
O103 C111 1.260 . S
O104 Zn99 1.996 1_655 S
O104 C111 1.257 . S
C105 O100 1.254 . S
C105 O101 1.269 . S
C106 O107 1.249 . S
C106 O108 1.270 . S
O107 Zn99 1.943 1_655 S
O107 C106 1.249 . S
O108 Zn98 2.067 . S
O108 C106 1.270 . S
C109 O102 1.262 . S
C109 O110 1.232 . S
O110 C109 1.232 . S
C111 O103 1.260 . S
C111 O104 1.257 . S
Zn112 O115 2.031 . S
Zn112 O117 2.049 . S
Zn112 O122 2.093 . S
Zn113 O114 1.956 1_545 S
Zn113 O116 1.990 . S
Zn113 O118 1.990 1_545 S
Zn113 O121 1.948 . S
O114 Zn113 1.956 1_565 S
O114 C119 1.254 . S
O115 Zn112 2.031 . S
O115 C119 1.269 . S
O116 Zn113 1.990 . S
O116 C123 1.262 . S
O117 Zn112 2.049 . S
O117 C125 1.260 . S
O118 Zn113 1.990 1_565 S
O118 C125 1.257 . S
C119 O114 1.254 . S
C119 O115 1.269 . S
C120 O121 1.249 . S
C120 O122 1.247 1_545 S
O121 Zn113 1.948 . S
O121 C120 1.249 . S
O122 Zn112 2.093 . S
O122 C120 1.247 1_565 S
C123 O116 1.262 . S
C123 O124 1.232 . S
O124 C123 1.232 . S
C125 O117 1.260 . S
C125 O118 1.257 . S
Zn126 O129 2.031 . S
Zn126 O131 2.049 . S
Zn126 O136 2.067 . S
Zn127 O128 1.962 . S
Zn127 O130 1.986 . S
Zn127 O132 1.996 . S
Zn127 O135 1.943 . S
O128 Zn127 1.962 . S
O128 C133 1.254 . S
O129 Zn126 2.031 . S
O129 C133 1.269 . S
O130 Zn127 1.986 . S
O130 C137 1.262 . S
O131 Zn126 2.049 . S
O131 C139 1.260 . S
O132 Zn127 1.996 . S
O132 C139 1.257 . S
C133 O128 1.254 . S
C133 O129 1.269 . S
C134 O135 1.249 . S
C134 O136 1.270 . S
O135 Zn127 1.943 . S
O135 C134 1.249 . S
O136 Zn126 2.067 . S
O136 C134 1.270 . S
C137 O130 1.262 . S
C137 O138 1.232 . S
O138 C137 1.232 . S
C139 O131 1.260 . S
C139 O132 1.257 . S
Zn140 O143 2.031 . S
Zn140 O145 2.049 . S
Zn140 O150 2.067 1_565 S
Zn141 O142 1.962 1_545 S
Zn141 O144 1.986 . S
Zn141 O146 1.996 1_545 S
Zn141 O149 1.943 . S
O142 Zn141 1.962 1_565 S
O142 C147 1.254 . S
O143 Zn140 2.031 . S
O143 C147 1.269 . S
O144 Zn141 1.986 . S
O144 C151 1.262 . S
O145 Zn140 2.049 . S
O145 C153 1.260 . S
O146 Zn141 1.996 1_565 S
O146 C153 1.257 . S
C147 O142 1.254 . S
C147 O143 1.269 . S
C148 O149 1.249 . S
C148 O150 1.270 . S
O149 Zn141 1.943 . S
O149 C148 1.249 . S
O150 Zn140 2.067 1_545 S
O150 C148 1.270 . S
C151 O144 1.262 . S
C151 O152 1.232 . S
O152 C151 1.232 . S
C153 O145 1.260 . S
C153 O146 1.257 . S
Zn154 O157 2.031 1_556 S
Zn154 O159 2.049 . S
Zn154 O164 2.067 . S
Zn155 O156 1.962 . S
Zn155 O158 1.986 . S
Zn155 O160 1.996 1_554 S
Zn155 O163 1.943 1_554 S
O156 Zn155 1.962 . S
O156 C161 1.254 . S
O157 Zn154 2.031 1_554 S
O157 C161 1.269 . S
O158 Zn155 1.986 . S
O158 C165 1.262 . S
O159 Zn154 2.049 . S
O159 C167 1.260 . S
O160 Zn155 1.996 1_556 S
O160 C167 1.257 . S
C161 O156 1.254 . S
C161 O157 1.269 . S
C162 O163 1.249 . S
C162 O164 1.270 . S
O163 Zn155 1.943 1_556 S
O163 C162 1.249 . S
O164 Zn154 2.067 . S
O164 C162 1.270 . S
C165 O158 1.262 . S
C165 O166 1.232 . S
O166 C165 1.232 . S
C167 O159 1.260 . S
C167 O160 1.257 . S
Zn168 O171 2.031 . S
Zn168 O173 2.049 . S
Zn168 O178 2.068 1_556 S
Zn169 O170 1.937 1_554 S
Zn169 O172 2.004 . S
Zn169 O174 1.966 1_554 S
Zn169 O177 1.968 . S
O170 Zn169 1.937 1_556 S
O170 C175 1.254 . S
O171 Zn168 2.031 . S
O171 C175 1.269 . S
O172 Zn169 2.004 . S
O172 C179 1.262 . S
O173 Zn168 2.049 . S
O173 C181 1.260 . S
O174 Zn169 1.966 1_556 S
O174 C181 1.257 . S
C175 O170 1.254 . S
C175 O171 1.269 . S
C176 O177 1.249 . S
C176 O178 1.270 . S
O177 Zn169 1.968 . S
O177 C176 1.249 . S
O178 Zn168 2.068 1_554 S
O178 C176 1.270 . S
C179 O172 1.262 . S
C179 O180 1.232 . S
O180 C179 1.232 . S
C181 O173 1.260 . S
C181 O174 1.257 . S
Zn182 O185 2.031 . S
Zn182 O187 2.049 . S
Zn182 O192 2.068 . S
Zn183 O184 1.940 1_554 S
Zn183 O186 2.002 . S
Zn183 O188 1.969 1_554 S
Zn183 O191 1.966 . S
O184 Zn183 1.940 1_556 S
O184 C189 1.254 . S
O185 Zn182 2.031 . S
O185 C189 1.269 . S
O186 Zn183 2.002 . S
O186 C193 1.262 . S
O187 Zn182 2.049 . S
O187 C195 1.260 . S
O188 Zn183 1.969 1_556 S
O188 C195 1.257 . S
C189 O184 1.254 . S
C189 O185 1.269 . S
C190 O191 1.249 . S
C190 O192 1.270 1_554 S
O191 Zn183 1.966 . S
O191 C190 1.249 . S
O192 Zn182 2.068 . S
O192 C190 1.270 1_556 S
C193 O186 1.262 . S
C193 O194 1.232 . S
O194 C193 1.232 . S
C195 O187 1.260 . S
C195 O188 1.257 . S
Zn196 O199 2.031 . S
Zn196 O201 2.049 . S
Zn196 O206 2.067 . S
Zn197 O198 1.962 . S
Zn197 O200 1.986 . S
Zn197 O202 1.996 . S
Zn197 O205 1.943 . S
O198 Zn197 1.962 . S
O198 C203 1.254 . S
O199 Zn196 2.031 . S
O199 C203 1.269 . S
O200 Zn197 1.986 . S
O200 C207 1.262 . S
O201 Zn196 2.049 . S
O201 C209 1.260 . S
O202 Zn197 1.996 . S
O202 C209 1.257 . S
C203 O198 1.254 . S
C203 O199 1.269 . S
C204 O205 1.249 . S
C204 O206 1.270 . S
O205 Zn197 1.943 . S
O205 C204 1.249 . S
O206 Zn196 2.067 . S
O206 C204 1.270 . S
C207 O200 1.262 . S
C207 O208 1.232 . S
O208 C207 1.232 . S
C209 O201 1.260 . S
C209 O202 1.257 . S
Zn210 O213 2.031 . S
Zn210 O215 2.049 . S
Zn210 O220 2.067 . S
Zn211 O212 1.962 . S
Zn211 O214 1.986 . S
Zn211 O216 1.996 . S
Zn211 O219 1.943 . S
O212 Zn211 1.962 . S
O212 C217 1.254 . S
O213 Zn210 2.031 . S
O213 C217 1.269 . S
O214 Zn211 1.986 . S
O214 C221 1.262 . S
O215 Zn210 2.049 . S
O215 C223 1.260 . S
O216 Zn211 1.996 . S
O216 C223 1.257 . S
C217 O212 1.254 . S
C217 O213 1.269 . S
C218 O219 1.249 . S
C218 O220 1.270 . S
O219 Zn211 1.943 . S
O219 C218 1.249 . S
O220 Zn210 2.067 . S
O220 C218 1.270 . S
C221 O214 1.262 . S
C221 O222 1.232 . S
O222 C221 1.232 . S
C223 O215 1.260 . S
C223 O216 1.257 . S
Zn224 O227 2.031 1_565 S
Zn224 O229 2.049 . S
Zn224 O234 2.067 . S
Zn225 O226 1.962 . S
Zn225 O228 1.986 . S
Zn225 O230 1.996 1_545 S
Zn225 O233 1.919 1_545 S
O226 Zn225 1.962 . S
O226 C231 1.254 . S
O227 Zn224 2.031 1_545 S
O227 C231 1.269 . S
O228 Zn225 1.986 . S
O228 C235 1.262 . S
O229 Zn224 2.049 . S
O229 C237 1.260 . S
O230 Zn225 1.996 1_565 S
O230 C237 1.257 . S
C231 O226 1.254 . S
C231 O227 1.269 . S
C232 O233 1.280 . S
C232 O234 1.270 . S
O233 Zn225 1.919 1_565 S
O233 C232 1.280 . S
O234 Zn224 2.067 . S
O234 C232 1.270 . S
C235 O228 1.262 . S
C235 O236 1.232 . S
O236 C235 1.232 . S
C237 O229 1.260 . S
C237 O230 1.257 . S
Zn238 O241 2.031 . S
Zn238 O243 2.049 . S
Zn238 O248 2.067 . S
Zn239 O240 1.962 . S
Zn239 O242 1.986 . S
Zn239 O244 1.996 . S
Zn239 O247 1.943 . S
O240 Zn239 1.962 . S
O240 C245 1.254 . S
O241 Zn238 2.031 . S
O241 C245 1.269 . S
O242 Zn239 1.986 . S
O242 C249 1.262 . S
O243 Zn238 2.049 . S
O243 C251 1.260 . S
O244 Zn239 1.996 . S
O244 C251 1.257 . S
C245 O240 1.254 . S
C245 O241 1.269 . S
C246 O247 1.249 . S
C246 O248 1.270 . S
O247 Zn239 1.943 . S
O247 C246 1.249 . S
O248 Zn238 2.067 . S
O248 C246 1.270 . S
C249 O242 1.262 . S
C249 O250 1.232 . S
O250 C249 1.232 . S
C251 O243 1.260 . S
C251 O244 1.257 . S
Zn252 O255 2.031 . S
Zn252 O257 2.049 . S
Zn252 O262 2.067 . S
Zn253 O254 1.962 . S
Zn253 O256 1.986 . S
Zn253 O258 1.996 . S
Zn253 O261 1.943 . S
O254 Zn253 1.962 . S
O254 C259 1.254 . S
O255 Zn252 2.031 . S
O255 C259 1.269 . S
O256 Zn253 1.986 . S
O256 C263 1.262 . S
O257 Zn252 2.049 . S
O257 C265 1.260 . S
O258 Zn253 1.996 . S
O258 C265 1.257 . S
C259 O254 1.254 . S
C259 O255 1.269 . S
C260 O261 1.249 . S
C260 O262 1.270 . S
O261 Zn253 1.943 . S
O261 C260 1.249 . S
O262 Zn252 2.067 . S
O262 C260 1.270 . S
C263 O256 1.262 . S
C263 O264 1.232 . S
O264 C263 1.232 . S
C265 O257 1.260 . S
C265 O258 1.257 . S
Zn266 O269 2.031 1_565 S
Zn266 O271 2.049 . S
Zn266 O276 2.067 . S
Zn267 O268 1.962 . S
Zn267 O270 1.986 . S
Zn267 O272 1.996 1_545 S
Zn267 O275 1.943 1_545 S
O268 Zn267 1.962 . S
O268 C273 1.254 . S
O269 Zn266 2.031 1_545 S
O269 C273 1.269 . S
O270 Zn267 1.986 . S
O270 C277 1.262 . S
O271 Zn266 2.049 . S
O271 C279 1.260 . S
O272 Zn267 1.996 1_565 S
O272 C279 1.257 . S
C273 O268 1.254 . S
C273 O269 1.269 . S
C274 O275 1.249 . S
C274 O276 1.270 . S
O275 Zn267 1.943 1_565 S
O275 C274 1.249 . S
O276 Zn266 2.067 . S
O276 C274 1.270 . S
C277 O270 1.262 . S
C277 O278 1.232 . S
O278 C277 1.232 . S
C279 O271 1.260 . S
C279 O272 1.257 . S
Zn280 O283 2.031 1_556 S
Zn280 O285 2.049 . S
Zn280 O290 2.067 . S
Zn281 O282 1.962 . S
Zn281 O284 1.986 . S
Zn281 O286 1.996 1_554 S
Zn281 O289 1.943 1_554 S
O282 Zn281 1.962 . S
O282 C287 1.254 . S
O283 Zn280 2.031 1_554 S
O283 C287 1.269 . S
O284 Zn281 1.986 . S
O284 C291 1.262 . S
O285 Zn280 2.049 . S
O285 C293 1.260 . S
O286 Zn281 1.996 1_556 S
O286 C293 1.257 . S
C287 O282 1.254 . S
C287 O283 1.269 . S
C288 O289 1.249 . S
C288 O290 1.270 . S
O289 Zn281 1.943 1_556 S
O289 C288 1.249 . S
O290 Zn280 2.067 . S
O290 C288 1.270 . S
C291 O284 1.262 . S
C291 O292 1.232 . S
O292 C291 1.232 . S
C293 O285 1.260 . S
C293 O286 1.257 . S
Zn294 O297 2.031 . S
Zn294 O299 2.049 . S
Zn294 O304 2.067 . S
Zn295 O296 1.962 . S
Zn295 O298 1.986 . S
Zn295 O300 1.996 . S
Zn295 O303 1.943 . S
O296 Zn295 1.962 . S
O296 C301 1.254 . S
O297 Zn294 2.031 . S
O297 C301 1.269 . S
O298 Zn295 1.986 . S
O298 C305 1.262 . S
O299 Zn294 2.049 . S
O299 C307 1.260 . S
O300 Zn295 1.996 . S
O300 C307 1.257 . S
C301 O296 1.254 . S
C301 O297 1.269 . S
C302 O303 1.249 . S
C302 O304 1.270 . S
O303 Zn295 1.943 . S
O303 C302 1.249 . S
O304 Zn294 2.067 . S
O304 C302 1.270 . S
C305 O298 1.262 . S
C305 O306 1.232 . S
O306 C305 1.232 . S
C307 O299 1.260 . S
C307 O300 1.257 . S
Zn308 O311 2.031 . S
Zn308 O313 2.049 . S
Zn308 O318 2.067 . S
Zn309 O310 1.962 . S
Zn309 O312 1.986 . S
Zn309 O314 1.996 . S
Zn309 O317 1.943 . S
O310 Zn309 1.962 . S
O310 C315 1.254 . S
O311 Zn308 2.031 . S
O311 C315 1.269 . S
O312 Zn309 1.986 . S
O312 C319 1.262 . S
O313 Zn308 2.049 . S
O313 C321 1.260 . S
O314 Zn309 1.996 . S
O314 C321 1.257 . S
C315 O310 1.254 . S
C315 O311 1.269 . S
C316 O317 1.249 . S
C316 O318 1.270 . S
O317 Zn309 1.943 . S
O317 C316 1.249 . S
O318 Zn308 2.067 . S
O318 C316 1.270 . S
C319 O312 1.262 . S
C319 O320 1.232 . S
O320 C319 1.232 . S
C321 O313 1.260 . S
C321 O314 1.257 . S
Zn322 O325 2.031 . S
Zn322 O327 2.049 . S
Zn322 O332 2.067 . S
Zn323 O324 1.962 . S
Zn323 O326 1.986 . S
Zn323 O328 1.996 . S
Zn323 O331 1.943 . S
O324 Zn323 1.962 . S
O324 C329 1.254 . S
O325 Zn322 2.031 . S
O325 C329 1.269 . S
O326 Zn323 1.986 . S
O326 C333 1.262 . S
O327 Zn322 2.049 . S
O327 C335 1.260 . S
O328 Zn323 1.996 . S
O328 C335 1.257 . S
C329 O324 1.254 . S
C329 O325 1.269 . S
C330 O331 1.249 . S
C330 O332 1.270 . S
O331 Zn323 1.943 . S
O331 C330 1.249 . S
O332 Zn322 2.067 . S
O332 C330 1.270 . S
C333 O326 1.262 . S
C333 O334 1.232 . S
O334 C333 1.232 . S
C335 O327 1.260 . S
C335 O328 1.257 . S
Fe336 O338 1.918 . S
Fe336 O341 1.997 . S
Fe336 O342 2.002 . S
Fe336 O347 1.976 . S
Fe336 O350 1.996 . S
Fe337 O338 1.918 . S
Fe337 O345 1.997 . S
Fe337 O348 1.996 . S
Fe337 O352 1.976 . S
Fe337 O355 2.002 . S
O338 Fe336 1.918 . S
O338 Fe337 1.918 . S
O338 Fe339 1.918 . S
Fe339 O338 1.918 . S
Fe339 O340 2.002 . S
Fe339 O349 1.976 . S
Fe339 O353 1.996 . S
Fe339 O356 1.997 . S
O340 Fe339 2.002 . S
O340 C357 1.295 . S
O341 Fe336 1.997 . S
O341 C357 1.235 . S
O342 Fe336 2.002 . S
O342 C343 1.295 . S
C343 O342 1.295 . S
C343 O345 1.235 . S
C344 O349 1.287 . S
C344 O350 1.255 . S
O345 Fe337 1.997 . S
O345 C343 1.235 . S
C346 O352 1.287 . S
C346 O353 1.255 . S
O347 Fe336 1.976 . S
O347 C354 1.287 . S
O348 Fe337 1.996 . S
O348 C354 1.255 . S
O349 Fe339 1.976 . S
O349 C344 1.287 . S
O350 Fe336 1.996 . S
O350 C344 1.255 . S
C351 O355 1.295 . S
C351 O356 1.235 . S
O352 Fe337 1.976 . S
O352 C346 1.287 . S
O353 Fe339 1.996 . S
O353 C346 1.255 . S
C354 O347 1.287 . S
C354 O348 1.255 . S
O355 Fe337 2.002 . S
O355 C351 1.295 . S
O356 Fe339 1.997 . S
O356 C351 1.235 . S
C357 O340 1.295 . S
C357 O341 1.235 . S
Fe358 O360 1.918 . S
Fe358 O363 1.997 . S
Fe358 O364 2.002 . S
Fe358 O369 1.976 . S
Fe358 O372 1.996 . S
Fe359 O360 1.918 . S
Fe359 O367 1.997 . S
Fe359 O370 1.996 . S
Fe359 O374 1.976 . S
Fe359 O377 2.002 . S
O360 Fe358 1.918 . S
O360 Fe359 1.918 . S
O360 Fe361 1.918 . S
Fe361 O360 1.918 . S
Fe361 O362 2.002 . S
Fe361 O371 1.976 . S
Fe361 O375 1.996 . S
Fe361 O378 1.997 . S
O362 Fe361 2.002 . S
O362 C379 1.295 . S
O363 Fe358 1.997 . S
O363 C379 1.235 . S
O364 Fe358 2.002 . S
O364 C365 1.295 . S
C365 O364 1.295 . S
C365 O367 1.235 . S
C366 O371 1.287 . S
C366 O372 1.255 . S
O367 Fe359 1.997 . S
O367 C365 1.235 . S
C368 O374 1.287 . S
C368 O375 1.255 . S
O369 Fe358 1.976 . S
O369 C376 1.287 . S
O370 Fe359 1.996 . S
O370 C376 1.255 . S
O371 Fe361 1.976 . S
O371 C366 1.287 . S
O372 Fe358 1.996 . S
O372 C366 1.255 . S
C373 O377 1.295 . S
C373 O378 1.235 . S
O374 Fe359 1.976 . S
O374 C368 1.287 . S
O375 Fe361 1.996 . S
O375 C368 1.255 . S
C376 O369 1.287 . S
C376 O370 1.255 . S
O377 Fe359 2.002 . S
O377 C373 1.295 . S
O378 Fe361 1.997 . S
O378 C373 1.235 . S
C379 O362 1.295 . S
C379 O363 1.235 . S
Fe380 O382 1.918 . S
Fe380 O385 1.997 . S
Fe380 O386 2.002 . S
Fe380 O391 1.976 . S
Fe380 O394 1.996 . S
Fe381 O382 1.918 . S
Fe381 O389 1.997 . S
Fe381 O392 1.996 . S
Fe381 O396 1.976 . S
Fe381 O399 2.002 . S
O382 Fe380 1.918 . S
O382 Fe381 1.918 . S
O382 Fe383 1.918 . S
Fe383 O382 1.918 . S
Fe383 O384 2.002 . S
Fe383 O393 1.976 . S
Fe383 O397 1.996 . S
Fe383 O400 1.997 . S
O384 Fe383 2.002 . S
O384 C401 1.295 . S
O385 Fe380 1.997 . S
O385 C401 1.235 . S
O386 Fe380 2.002 . S
O386 C387 1.295 . S
C387 O386 1.295 . S
C387 O389 1.235 . S
C388 O393 1.287 . S
C388 O394 1.255 . S
O389 Fe381 1.997 . S
O389 C387 1.235 . S
C390 O396 1.287 . S
C390 O397 1.255 . S
O391 Fe380 1.976 . S
O391 C398 1.287 . S
O392 Fe381 1.996 . S
O392 C398 1.255 . S
O393 Fe383 1.976 . S
O393 C388 1.287 . S
O394 Fe380 1.996 . S
O394 C388 1.255 . S
C395 O399 1.295 . S
C395 O400 1.235 . S
O396 Fe381 1.976 . S
O396 C390 1.287 . S
O397 Fe383 1.996 . S
O397 C390 1.255 . S
C398 O391 1.287 . S
C398 O392 1.255 . S
O399 Fe381 2.002 . S
O399 C395 1.295 . S
O400 Fe383 1.997 . S
O400 C395 1.235 . S
C401 O384 1.295 . S
C401 O385 1.235 . S
Fe402 O404 1.918 . S
Fe402 O407 1.997 . S
Fe402 O408 2.002 . S
Fe402 O413 1.976 . S
Fe402 O416 1.996 . S
Fe403 O404 1.918 . S
Fe403 O411 1.997 . S
Fe403 O414 1.996 . S
Fe403 O418 1.976 . S
Fe403 O421 2.002 . S
O404 Fe402 1.918 . S
O404 Fe403 1.918 . S
O404 Fe405 1.918 . S
Fe405 O404 1.918 . S
Fe405 O406 2.002 . S
Fe405 O415 1.976 . S
Fe405 O419 1.996 . S
Fe405 O422 1.997 . S
O406 Fe405 2.002 . S
O406 C423 1.295 . S
O407 Fe402 1.997 . S
O407 C423 1.235 . S
O408 Fe402 2.002 . S
O408 C409 1.295 . S
C409 O408 1.295 . S
C409 O411 1.235 . S
C410 O415 1.287 . S
C410 O416 1.255 . S
O411 Fe403 1.997 . S
O411 C409 1.235 . S
C412 O418 1.287 . S
C412 O419 1.255 . S
O413 Fe402 1.976 . S
O413 C420 1.287 . S
O414 Fe403 1.996 . S
O414 C420 1.255 . S
O415 Fe405 1.976 . S
O415 C410 1.287 . S
O416 Fe402 1.996 . S
O416 C410 1.255 . S
C417 O421 1.295 . S
C417 O422 1.235 . S
O418 Fe403 1.976 . S
O418 C412 1.287 . S
O419 Fe405 1.996 . S
O419 C412 1.255 . S
C420 O413 1.287 . S
C420 O414 1.255 . S
O421 Fe403 2.002 . S
O421 C417 1.295 . S
O422 Fe405 1.997 . S
O422 C417 1.235 . S
C423 O406 1.295 . S
C423 O407 1.235 . S
Fe424 O426 1.918 . S
Fe424 O429 1.997 . S
Fe424 O430 2.002 . S
Fe424 O435 1.976 . S
Fe424 O438 1.996 . S
Fe425 O426 1.918 . S
Fe425 O433 1.997 . S
Fe425 O436 1.996 . S
Fe425 O440 1.976 . S
Fe425 O443 2.002 . S
O426 Fe424 1.918 . S
O426 Fe425 1.918 . S
O426 Fe427 1.918 . S
Fe427 O426 1.918 . S
Fe427 O428 2.002 . S
Fe427 O437 1.976 . S
Fe427 O441 1.996 . S
Fe427 O444 1.997 . S
O428 Fe427 2.002 . S
O428 C445 1.295 . S
O429 Fe424 1.997 . S
O429 C445 1.235 . S
O430 Fe424 2.002 . S
O430 C431 1.295 . S
C431 O430 1.295 . S
C431 O433 1.235 . S
C432 O437 1.287 . S
C432 O438 1.255 . S
O433 Fe425 1.997 . S
O433 C431 1.235 . S
C434 O440 1.287 . S
C434 O441 1.255 . S
O435 Fe424 1.976 . S
O435 C442 1.287 . S
O436 Fe425 1.996 . S
O436 C442 1.255 . S
O437 Fe427 1.976 . S
O437 C432 1.287 . S
O438 Fe424 1.996 . S
O438 C432 1.255 . S
C439 O443 1.295 . S
C439 O444 1.235 . S
O440 Fe425 1.976 . S
O440 C434 1.287 . S
O441 Fe427 1.996 . S
O441 C434 1.255 . S
C442 O435 1.287 . S
C442 O436 1.255 . S
O443 Fe425 2.002 . S
O443 C439 1.295 . S
O444 Fe427 1.997 . S
O444 C439 1.235 . S
C445 O428 1.295 . S
C445 O429 1.235 . S
Fe446 O448 1.918 . S
Fe446 O451 1.997 . S
Fe446 O452 2.002 . S
Fe446 O457 1.976 . S
Fe446 O460 1.996 . S
Fe447 O448 1.918 . S
Fe447 O455 1.997 . S
Fe447 O458 1.996 . S
Fe447 O462 1.976 . S
Fe447 O465 2.002 . S
O448 Fe446 1.918 . S
O448 Fe447 1.918 . S
O448 Fe449 1.918 . S
Fe449 O448 1.918 . S
Fe449 O450 2.002 . S
Fe449 O459 1.976 . S
Fe449 O463 1.996 . S
Fe449 O466 1.997 . S
O450 Fe449 2.002 . S
O450 C467 1.295 . S
O451 Fe446 1.997 . S
O451 C467 1.235 . S
O452 Fe446 2.002 . S
O452 C453 1.295 . S
C453 O452 1.295 . S
C453 O455 1.235 . S
C454 O459 1.287 . S
C454 O460 1.255 . S
O455 Fe447 1.997 . S
O455 C453 1.235 . S
C456 O462 1.287 . S
C456 O463 1.255 . S
O457 Fe446 1.976 . S
O457 C464 1.287 . S
O458 Fe447 1.996 . S
O458 C464 1.255 . S
O459 Fe449 1.976 . S
O459 C454 1.287 . S
O460 Fe446 1.996 . S
O460 C454 1.255 . S
C461 O465 1.295 . S
C461 O466 1.235 . S
O462 Fe447 1.976 . S
O462 C456 1.287 . S
O463 Fe449 1.996 . S
O463 C456 1.255 . S
C464 O457 1.287 . S
C464 O458 1.255 . S
O465 Fe447 2.002 . S
O465 C461 1.295 . S
O466 Fe449 1.997 . S
O466 C461 1.235 . S
C467 O450 1.295 . S
C467 O451 1.235 . S
Fe468 O470 1.918 . S
Fe468 O473 1.997 . S
Fe468 O474 2.002 . S
Fe468 O479 1.976 . S
Fe468 O482 1.996 . S
Fe469 O470 1.918 . S
Fe469 O477 1.997 . S
Fe469 O480 1.996 . S
Fe469 O484 1.976 . S
Fe469 O487 2.002 . S
O470 Fe468 1.918 . S
O470 Fe469 1.918 . S
O470 Fe471 1.918 . S
Fe471 O470 1.918 . S
Fe471 O472 2.002 . S
Fe471 O481 1.976 . S
Fe471 O485 1.996 . S
Fe471 O488 1.997 . S
O472 Fe471 2.002 . S
O472 C489 1.295 . S
O473 Fe468 1.997 . S
O473 C489 1.235 . S
O474 Fe468 2.002 . S
O474 C475 1.295 . S
C475 O474 1.295 . S
C475 O477 1.235 . S
C476 O481 1.287 . S
C476 O482 1.255 . S
O477 Fe469 1.997 . S
O477 C475 1.235 . S
C478 O484 1.287 . S
C478 O485 1.255 . S
O479 Fe468 1.976 . S
O479 C486 1.287 . S
O480 Fe469 1.996 . S
O480 C486 1.255 . S
O481 Fe471 1.976 . S
O481 C476 1.287 . S
O482 Fe468 1.996 . S
O482 C476 1.255 . S
C483 O487 1.295 . S
C483 O488 1.235 . S
O484 Fe469 1.976 . S
O484 C478 1.287 . S
O485 Fe471 1.996 . S
O485 C478 1.255 . S
C486 O479 1.287 . S
C486 O480 1.255 . S
O487 Fe469 2.002 . S
O487 C483 1.295 . S
O488 Fe471 1.997 . S
O488 C483 1.235 . S
C489 O472 1.295 . S
C489 O473 1.235 . S
Fe490 O492 1.918 . S
Fe490 O495 1.997 . S
Fe490 O496 2.002 . S
Fe490 O501 1.976 . S
Fe490 O504 1.996 . S
Fe491 O492 1.918 . S
Fe491 O499 1.997 . S
Fe491 O502 1.996 . S
Fe491 O506 1.976 . S
Fe491 O509 2.002 . S
O492 Fe490 1.918 . S
O492 Fe491 1.918 . S
O492 Fe493 1.918 . S
Fe493 O492 1.918 . S
Fe493 O494 2.002 . S
Fe493 O503 1.976 . S
Fe493 O507 1.996 . S
Fe493 O510 1.997 . S
O494 Fe493 2.002 . S
O494 C511 1.295 . S
O495 Fe490 1.997 . S
O495 C511 1.235 . S
O496 Fe490 2.002 . S
O496 C497 1.295 . S
C497 O496 1.295 . S
C497 O499 1.235 . S
C498 O503 1.287 . S
C498 O504 1.255 . S
O499 Fe491 1.997 . S
O499 C497 1.235 . S
C500 O506 1.287 . S
C500 O507 1.255 . S
O501 Fe490 1.976 . S
O501 C508 1.287 . S
O502 Fe491 1.996 . S
O502 C508 1.255 . S
O503 Fe493 1.976 . S
O503 C498 1.287 . S
O504 Fe490 1.996 . S
O504 C498 1.255 . S
C505 O509 1.295 . S
C505 O510 1.235 . S
O506 Fe491 1.976 . S
O506 C500 1.287 . S
O507 Fe493 1.996 . S
O507 C500 1.255 . S
C508 O501 1.287 . S
C508 O502 1.255 . S
O509 Fe491 2.002 . S
O509 C505 1.295 . S
O510 Fe493 1.997 . S
O510 C505 1.235 . S
C511 O494 1.295 . S
C511 O495 1.235 . S
Fe512 O514 1.918 . S
Fe512 O517 1.997 . S
Fe512 O518 2.002 . S
Fe512 O523 1.976 . S
Fe512 O526 1.996 . S
Fe513 O514 1.918 . S
Fe513 O521 1.997 . S
Fe513 O524 1.996 . S
Fe513 O528 1.976 . S
Fe513 O531 2.002 . S
O514 Fe512 1.918 . S
O514 Fe513 1.918 . S
O514 Fe515 1.918 . S
Fe515 O514 1.918 . S
Fe515 O516 2.002 . S
Fe515 O525 1.976 . S
Fe515 O529 1.996 . S
Fe515 O532 1.997 . S
O516 Fe515 2.002 . S
O516 C533 1.295 . S
O517 Fe512 1.997 . S
O517 C533 1.235 . S
O518 Fe512 2.002 . S
O518 C519 1.295 . S
C519 O518 1.295 . S
C519 O521 1.235 . S
C520 O525 1.287 . S
C520 O526 1.255 . S
O521 Fe513 1.997 . S
O521 C519 1.235 . S
C522 O528 1.287 . S
C522 O529 1.255 . S
O523 Fe512 1.976 . S
O523 C530 1.287 . S
O524 Fe513 1.996 . S
O524 C530 1.255 . S
O525 Fe515 1.976 . S
O525 C520 1.287 . S
O526 Fe512 1.996 . S
O526 C520 1.255 . S
C527 O531 1.295 . S
C527 O532 1.235 . S
O528 Fe513 1.976 . S
O528 C522 1.287 . S
O529 Fe515 1.996 . S
O529 C522 1.255 . S
C530 O523 1.287 . S
C530 O524 1.255 . S
O531 Fe513 2.002 . S
O531 C527 1.295 . S
O532 Fe515 1.997 . S
O532 C527 1.235 . S
C533 O516 1.295 . S
C533 O517 1.235 . S
Fe534 O536 1.918 . S
Fe534 O539 1.997 . S
Fe534 O540 2.002 . S
Fe534 O545 1.976 . S
Fe534 O548 1.996 . S
Fe535 O536 1.918 . S
Fe535 O543 1.997 . S
Fe535 O546 1.996 . S
Fe535 O550 1.976 . S
Fe535 O553 2.002 . S
O536 Fe534 1.918 . S
O536 Fe535 1.918 . S
O536 Fe537 1.918 . S
Fe537 O536 1.918 . S
Fe537 O538 2.002 . S
Fe537 O547 1.976 . S
Fe537 O551 1.996 . S
Fe537 O554 1.997 . S
O538 Fe537 2.002 . S
O538 C555 1.295 . S
O539 Fe534 1.997 . S
O539 C555 1.235 . S
O540 Fe534 2.002 . S
O540 C541 1.295 . S
C541 O540 1.295 . S
C541 O543 1.235 . S
C542 O547 1.287 . S
C542 O548 1.255 . S
O543 Fe535 1.997 . S
O543 C541 1.235 . S
C544 O550 1.287 . S
C544 O551 1.255 . S
O545 Fe534 1.976 . S
O545 C552 1.287 . S
O546 Fe535 1.996 . S
O546 C552 1.255 . S
O547 Fe537 1.976 . S
O547 C542 1.287 . S
O548 Fe534 1.996 . S
O548 C542 1.255 . S
C549 O553 1.295 . S
C549 O554 1.235 . S
O550 Fe535 1.976 . S
O550 C544 1.287 . S
O551 Fe537 1.996 . S
O551 C544 1.255 . S
C552 O545 1.287 . S
C552 O546 1.255 . S
O553 Fe535 2.002 . S
O553 C549 1.295 . S
O554 Fe537 1.997 . S
O554 C549 1.235 . S
C555 O538 1.295 . S
C555 O539 1.235 . S
Fe556 O558 1.918 . S
Fe556 O561 1.997 . S
Fe556 O562 2.002 . S
Fe556 O567 1.976 . S
Fe556 O570 1.996 . S
Fe557 O558 1.918 . S
Fe557 O565 1.997 . S
Fe557 O568 1.996 . S
Fe557 O572 1.976 . S
Fe557 O575 2.002 . S
O558 Fe556 1.918 . S
O558 Fe557 1.918 . S
O558 Fe559 1.918 . S
Fe559 O558 1.918 . S
Fe559 O560 2.002 . S
Fe559 O569 1.976 . S
Fe559 O573 1.996 . S
Fe559 O576 1.997 . S
O560 Fe559 2.002 . S
O560 C577 1.295 . S
O561 Fe556 1.997 . S
O561 C577 1.235 . S
O562 Fe556 2.002 . S
O562 C563 1.295 . S
C563 O562 1.295 . S
C563 O565 1.235 . S
C564 O569 1.287 . S
C564 O570 1.255 . S
O565 Fe557 1.997 . S
O565 C563 1.235 . S
C566 O572 1.287 . S
C566 O573 1.255 . S
O567 Fe556 1.976 . S
O567 C574 1.287 . S
O568 Fe557 1.996 . S
O568 C574 1.255 . S
O569 Fe559 1.976 . S
O569 C564 1.287 . S
O570 Fe556 1.996 . S
O570 C564 1.255 . S
C571 O575 1.295 . S
C571 O576 1.235 . S
O572 Fe557 1.976 . S
O572 C566 1.287 . S
O573 Fe559 1.996 . S
O573 C566 1.255 . S
C574 O567 1.287 . S
C574 O568 1.255 . S
O575 Fe557 2.002 . S
O575 C571 1.295 . S
O576 Fe559 1.997 . S
O576 C571 1.235 . S
C577 O560 1.295 . S
C577 O561 1.235 . S
Fe578 O580 1.918 . S
Fe578 O583 1.997 . S
Fe578 O584 2.002 . S
Fe578 O589 1.976 . S
Fe578 O592 1.996 . S
Fe579 O580 1.918 . S
Fe579 O587 1.997 . S
Fe579 O590 1.996 . S
Fe579 O594 1.976 . S
Fe579 O597 2.002 . S
O580 Fe578 1.918 . S
O580 Fe579 1.918 . S
O580 Fe581 1.918 . S
Fe581 O580 1.918 . S
Fe581 O582 2.002 . S
Fe581 O591 1.976 . S
Fe581 O595 1.996 . S
Fe581 O598 1.997 . S
O582 Fe581 2.002 . S
O582 C599 1.295 . S
O583 Fe578 1.997 . S
O583 C599 1.235 . S
O584 Fe578 2.002 . S
O584 C585 1.295 . S
C585 O584 1.295 . S
C585 O587 1.235 . S
C586 O591 1.287 . S
C586 O592 1.255 . S
O587 Fe579 1.997 . S
O587 C585 1.235 . S
C588 O594 1.287 . S
C588 O595 1.255 . S
O589 Fe578 1.976 . S
O589 C596 1.287 . S
O590 Fe579 1.996 . S
O590 C596 1.255 . S
O591 Fe581 1.976 . S
O591 C586 1.287 . S
O592 Fe578 1.996 . S
O592 C586 1.255 . S
C593 O597 1.295 . S
C593 O598 1.235 . S
O594 Fe579 1.976 . S
O594 C588 1.287 . S
O595 Fe581 1.996 . S
O595 C588 1.255 . S
C596 O589 1.287 . S
C596 O590 1.255 . S
O597 Fe579 2.002 . S
O597 C593 1.295 . S
O598 Fe581 1.997 . S
O598 C593 1.235 . S
C599 O582 1.295 . S
C599 O583 1.235 . S
Fe600 O602 1.918 . S
Fe600 O605 1.997 . S
Fe600 O606 2.002 . S
Fe600 O611 1.976 . S
Fe600 O614 1.996 . S
Fe601 O602 1.918 . S
Fe601 O609 1.997 . S
Fe601 O612 1.996 . S
Fe601 O616 1.976 . S
Fe601 O619 2.002 . S
O602 Fe600 1.918 . S
O602 Fe601 1.918 . S
O602 Fe603 1.918 . S
Fe603 O602 1.918 . S
Fe603 O604 2.002 . S
Fe603 O613 1.976 . S
Fe603 O617 1.996 . S
Fe603 O620 1.997 . S
O604 Fe603 2.002 . S
O604 C621 1.295 . S
O605 Fe600 1.997 . S
O605 C621 1.235 . S
O606 Fe600 2.002 . S
O606 C607 1.295 . S
C607 O606 1.295 . S
C607 O609 1.235 . S
C608 O613 1.287 . S
C608 O614 1.255 . S
O609 Fe601 1.997 . S
O609 C607 1.235 . S
C610 O616 1.287 . S
C610 O617 1.255 . S
O611 Fe600 1.976 . S
O611 C618 1.287 . S
O612 Fe601 1.996 . S
O612 C618 1.255 . S
O613 Fe603 1.976 . S
O613 C608 1.287 . S
O614 Fe600 1.996 . S
O614 C608 1.255 . S
C615 O619 1.295 . S
C615 O620 1.235 . S
O616 Fe601 1.976 . S
O616 C610 1.287 . S
O617 Fe603 1.996 . S
O617 C610 1.255 . S
C618 O611 1.287 . S
C618 O612 1.255 . S
O619 Fe601 2.002 . S
O619 C615 1.295 . S
O620 Fe603 1.997 . S
O620 C615 1.235 . S
C621 O604 1.295 . S
C621 O605 1.235 . S
Fe622 O624 1.918 . S
Fe622 O627 1.997 . S
Fe622 O628 2.002 . S
Fe622 O633 1.976 . S
Fe622 O636 1.996 . S
Fe623 O624 1.918 . S
Fe623 O631 1.997 . S
Fe623 O634 1.996 . S
Fe623 O638 1.976 . S
Fe623 O641 2.002 . S
O624 Fe622 1.918 . S
O624 Fe623 1.918 . S
O624 Fe625 1.918 . S
Fe625 O624 1.918 . S
Fe625 O626 2.002 . S
Fe625 O635 1.976 . S
Fe625 O639 1.996 . S
Fe625 O642 1.997 . S
O626 Fe625 2.002 . S
O626 C643 1.295 . S
O627 Fe622 1.997 . S
O627 C643 1.235 . S
O628 Fe622 2.002 . S
O628 C629 1.295 . S
C629 O628 1.295 . S
C629 O631 1.235 . S
C630 O635 1.287 . S
C630 O636 1.255 . S
O631 Fe623 1.997 . S
O631 C629 1.235 . S
C632 O638 1.287 . S
C632 O639 1.255 . S
O633 Fe622 1.976 . S
O633 C640 1.287 . S
O634 Fe623 1.996 . S
O634 C640 1.255 . S
O635 Fe625 1.976 . S
O635 C630 1.287 . S
O636 Fe622 1.996 . S
O636 C630 1.255 . S
C637 O641 1.295 . S
C637 O642 1.235 . S
O638 Fe623 1.976 . S
O638 C632 1.287 . S
O639 Fe625 1.996 . S
O639 C632 1.255 . S
C640 O633 1.287 . S
C640 O634 1.255 . S
O641 Fe623 2.002 . S
O641 C637 1.295 . S
O642 Fe625 1.997 . S
O642 C637 1.235 . S
C643 O626 1.295 . S
C643 O627 1.235 . S
Fe644 O646 1.918 . S
Fe644 O649 1.997 . S
Fe644 O650 2.002 . S
Fe644 O655 1.976 . S
Fe644 O658 1.996 . S
Fe645 O646 1.918 . S
Fe645 O653 1.997 . S
Fe645 O656 1.996 . S
Fe645 O660 1.976 . S
Fe645 O663 2.002 . S
O646 Fe644 1.918 . S
O646 Fe645 1.918 . S
O646 Fe647 1.918 . S
Fe647 O646 1.918 . S
Fe647 O648 2.002 . S
Fe647 O657 1.976 . S
Fe647 O661 1.996 . S
Fe647 O664 1.997 . S
O648 Fe647 2.002 . S
O648 C665 1.295 . S
O649 Fe644 1.997 . S
O649 C665 1.235 . S
O650 Fe644 2.002 . S
O650 C651 1.295 . S
C651 O650 1.295 . S
C651 O653 1.235 . S
C652 O657 1.287 . S
C652 O658 1.255 . S
O653 Fe645 1.997 . S
O653 C651 1.235 . S
C654 O660 1.287 . S
C654 O661 1.255 . S
O655 Fe644 1.976 . S
O655 C662 1.287 . S
O656 Fe645 1.996 . S
O656 C662 1.255 . S
O657 Fe647 1.976 . S
O657 C652 1.287 . S
O658 Fe644 1.996 . S
O658 C652 1.255 . S
C659 O663 1.295 . S
C659 O664 1.235 . S
O660 Fe645 1.976 . S
O660 C654 1.287 . S
O661 Fe647 1.996 . S
O661 C654 1.255 . S
C662 O655 1.287 . S
C662 O656 1.255 . S
O663 Fe645 2.002 . S
O663 C659 1.295 . S
O664 Fe647 1.997 . S
O664 C659 1.235 . S
C665 O648 1.295 . S
C665 O649 1.235 . S
Fe666 O668 1.918 . S
Fe666 O671 1.997 . S
Fe666 O672 2.002 . S
Fe666 O677 1.976 . S
Fe666 O680 1.996 . S
Fe667 O668 1.918 . S
Fe667 O675 1.997 . S
Fe667 O678 1.996 . S
Fe667 O682 1.976 . S
Fe667 O685 2.002 . S
O668 Fe666 1.918 . S
O668 Fe667 1.918 . S
O668 Fe669 1.918 . S
Fe669 O668 1.918 . S
Fe669 O670 2.002 . S
Fe669 O679 1.976 . S
Fe669 O683 1.996 . S
Fe669 O686 1.997 . S
O670 Fe669 2.002 . S
O670 C687 1.295 . S
O671 Fe666 1.997 . S
O671 C687 1.235 . S
O672 Fe666 2.002 . S
O672 C673 1.295 . S
C673 O672 1.295 . S
C673 O675 1.235 . S
C674 O679 1.287 . S
C674 O680 1.255 . S
O675 Fe667 1.997 . S
O675 C673 1.235 . S
C676 O682 1.287 . S
C676 O683 1.255 . S
O677 Fe666 1.976 . S
O677 C684 1.287 . S
O678 Fe667 1.996 . S
O678 C684 1.255 . S
O679 Fe669 1.976 . S
O679 C674 1.287 . S
O680 Fe666 1.996 . S
O680 C674 1.255 . S
C681 O685 1.295 . S
C681 O686 1.235 . S
O682 Fe667 1.976 . S
O682 C676 1.287 . S
O683 Fe669 1.996 . S
O683 C676 1.255 . S
C684 O677 1.287 . S
C684 O678 1.255 . S
O685 Fe667 2.002 . S
O685 C681 1.295 . S
O686 Fe669 1.997 . S
O686 C681 1.235 . S
C687 O670 1.295 . S
C687 O671 1.235 . S
H688 C696 0.929 . S
H689 C698 0.930 . S
H690 C700 0.930 . S
H691 C703 0.929 . S
H692 C706 0.930 . S
H693 C708 0.960 . S
H694 C708 0.960 . S
H695 C708 0.960 . S
C696 H688 0.929 . S
C696 C697 1.377 . S
C696 C698 1.384 . S
C697 C696 1.377 . S
C697 C703 1.390 . S
C698 H689 0.930 . S
C698 C696 1.384 . S
C698 C699 1.372 . S
C699 C698 1.372 . S
C699 C700 1.400 . S
C699 C704 1.490 . S
C700 H690 0.930 . S
C700 C699 1.400 . S
C700 C703 1.386 . S
H701 C717 0.930 . S
H702 C718 0.931 . S
C703 H691 0.929 . S
C703 C697 1.390 . S
C703 C700 1.386 . S
C704 C699 1.490 . S
C704 C706 1.395 . S
C704 C707 1.403 . S
H705 C711 0.930 . S
C706 H692 0.930 . S
C706 C704 1.395 . S
C706 C709 1.403 . S
C707 C704 1.403 . S
C707 C708 1.524 . S
C707 C711 1.400 . S
C708 H693 0.960 . S
C708 H694 0.960 . S
C708 H695 0.960 . S
C708 C707 1.524 . S
C709 C706 1.403 . S
C709 C710 1.392 . S
C709 C713 1.495 . S
C710 C709 1.392 . S
C710 C711 1.385 . S
C710 C712 1.478 . S
C711 H705 0.930 . S
C711 C707 1.400 . S
C711 C710 1.385 . S
C712 C710 1.478 . S
C712 C714 1.381 . S
C712 C718 1.383 . S
C713 C709 1.495 . S
C713 H719 0.959 . S
C713 H720 0.961 . S
C713 H721 0.960 . S
C714 C712 1.381 . S
C714 C715 1.394 . S
C714 H722 0.930 . S
C715 C714 1.394 . S
C715 C716 1.383 . S
C715 H723 0.929 . S
C716 C715 1.383 . S
C716 C717 1.377 . S
C717 H701 0.930 . S
C717 C716 1.377 . S
C717 C718 1.379 . S
C718 H702 0.931 . S
C718 C712 1.383 . S
C718 C717 1.379 . S
H719 C713 0.959 . S
H720 C713 0.961 . S
H721 C713 0.960 . S
H722 C714 0.930 . S
H723 C715 0.929 . S
H724 C732 0.929 . S
H725 C734 0.930 . S
H726 C736 0.930 . S
H727 C739 0.929 . S
H728 C742 0.930 . S
H729 C744 0.960 . S
H730 C744 0.960 . S
H731 C744 0.960 . S
C732 H724 0.929 . S
C732 C733 1.377 . S
C732 C734 1.384 . S
C733 C732 1.377 . S
C733 C739 1.390 . S
C734 H725 0.930 . S
C734 C732 1.384 . S
C734 C735 1.372 . S
C735 C734 1.372 . S
C735 C736 1.400 . S
C735 C740 1.490 . S
C736 H726 0.930 . S
C736 C735 1.400 . S
C736 C739 1.386 . S
H737 C753 0.930 . S
H738 C754 0.931 . S
C739 H727 0.929 . S
C739 C733 1.390 . S
C739 C736 1.386 . S
C740 C735 1.490 . S
C740 C742 1.395 . S
C740 C743 1.403 . S
H741 C747 0.930 . S
C742 H728 0.930 . S
C742 C740 1.395 . S
C742 C745 1.403 . S
C743 C740 1.403 . S
C743 C744 1.524 . S
C743 C747 1.400 . S
C744 H729 0.960 . S
C744 H730 0.960 . S
C744 H731 0.960 . S
C744 C743 1.524 . S
C745 C742 1.403 . S
C745 C746 1.392 . S
C745 C749 1.495 . S
C746 C745 1.392 . S
C746 C747 1.385 . S
C746 C748 1.478 . S
C747 H741 0.930 . S
C747 C743 1.400 . S
C747 C746 1.385 . S
C748 C746 1.478 . S
C748 C750 1.381 . S
C748 C754 1.383 . S
C749 C745 1.495 . S
C749 H755 0.959 . S
C749 H756 0.961 . S
C749 H757 0.960 . S
C750 C748 1.381 . S
C750 C751 1.394 . S
C750 H758 0.930 . S
C751 C750 1.394 . S
C751 C752 1.383 . S
C751 H759 0.929 . S
C752 C751 1.383 . S
C752 C753 1.377 . S
C753 H737 0.930 . S
C753 C752 1.377 . S
C753 C754 1.379 . S
C754 H738 0.931 . S
C754 C748 1.383 . S
C754 C753 1.379 . S
H755 C749 0.959 . S
H756 C749 0.961 . S
H757 C749 0.960 . S
H758 C750 0.930 . S
H759 C751 0.929 . S
H760 C768 0.929 . S
H761 C770 0.930 . S
H762 C772 0.930 . S
H763 C775 0.929 . S
H764 C778 0.930 . S
H765 C780 0.960 . S
H766 C780 0.960 . S
H767 C780 0.960 . S
C768 H760 0.929 . S
C768 C769 1.377 . S
C768 C770 1.384 . S
C769 C768 1.377 . S
C769 C775 1.390 . S
C770 H761 0.930 . S
C770 C768 1.384 . S
C770 C771 1.372 . S
C771 C770 1.372 . S
C771 C772 1.400 . S
C771 C776 1.490 . S
C772 H762 0.930 . S
C772 C771 1.400 . S
C772 C775 1.386 . S
H773 C789 0.930 . S
H774 C790 0.931 . S
C775 H763 0.929 . S
C775 C769 1.390 . S
C775 C772 1.386 . S
C776 C771 1.490 . S
C776 C778 1.395 . S
C776 C779 1.403 . S
H777 C783 0.930 . S
C778 H764 0.930 . S
C778 C776 1.395 . S
C778 C781 1.403 . S
C779 C776 1.403 . S
C779 C780 1.524 . S
C779 C783 1.400 . S
C780 H765 0.960 . S
C780 H766 0.960 . S
C780 H767 0.960 . S
C780 C779 1.524 . S
C781 C778 1.403 . S
C781 C782 1.392 . S
C781 C785 1.495 . S
C782 C781 1.392 . S
C782 C783 1.385 . S
C782 C784 1.478 . S
C783 H777 0.930 . S
C783 C779 1.400 . S
C783 C782 1.385 . S
C784 C782 1.478 . S
C784 C786 1.381 . S
C784 C790 1.383 . S
C785 C781 1.495 . S
C785 H791 0.959 . S
C785 H792 0.961 . S
C785 H793 0.960 . S
C786 C784 1.381 . S
C786 C787 1.394 . S
C786 H794 0.930 . S
C787 C786 1.394 . S
C787 C788 1.383 . S
C787 H795 0.929 . S
C788 C787 1.383 . S
C788 C789 1.377 . S
C789 H773 0.930 . S
C789 C788 1.377 . S
C789 C790 1.379 . S
C790 H774 0.931 . S
C790 C784 1.383 . S
C790 C789 1.379 . S
H791 C785 0.959 . S
H792 C785 0.961 . S
H793 C785 0.960 . S
H794 C786 0.930 . S
H795 C787 0.929 . S
H796 C804 0.929 . S
H797 C806 0.930 . S
H798 C808 0.930 . S
H799 C811 0.929 . S
H800 C814 0.930 . S
H801 C816 0.945 1_556 S
H802 C816 0.960 . S
H803 C816 0.960 . S
C804 H796 0.929 . S
C804 C805 1.377 . S
C804 C806 1.384 . S
C805 C804 1.377 . S
C805 C811 1.390 . S
C806 H797 0.930 . S
C806 C804 1.384 . S
C806 C807 1.372 . S
C807 C806 1.372 . S
C807 C808 1.400 . S
C807 C812 1.490 . S
C808 H798 0.930 . S
C808 C807 1.400 . S
C808 C811 1.386 . S
H809 C825 0.930 . S
H810 C826 0.931 . S
C811 H799 0.929 . S
C811 C805 1.390 . S
C811 C808 1.386 . S
C812 C807 1.490 . S
C812 C814 1.395 . S
C812 C815 1.403 . S
H813 C819 0.928 . S
C814 H800 0.930 . S
C814 C812 1.395 . S
C814 C817 1.403 . S
C815 C812 1.403 . S
C815 C816 1.524 . S
C815 C819 1.402 1_554 S
C816 H801 0.945 1_554 S
C816 H802 0.960 . S
C816 H803 0.960 . S
C816 C815 1.524 . S
C817 C814 1.403 . S
C817 C818 1.392 . S
C817 C821 1.495 . S
C818 C817 1.392 . S
C818 C819 1.385 1_554 S
C818 C820 1.478 1_554 S
C819 H813 0.928 . S
C819 C815 1.402 1_556 S
C819 C818 1.385 1_556 S
C820 C818 1.478 1_556 S
C820 C822 1.381 . S
C820 C826 1.383 . S
C821 C817 1.495 . S
C821 H827 0.959 . S
C821 H828 0.961 . S
C821 H829 0.960 . S
C822 C820 1.381 . S
C822 C823 1.394 . S
C822 H830 0.930 . S
C823 C822 1.394 . S
C823 C824 1.383 . S
C823 H831 0.929 . S
C824 C823 1.383 . S
C824 C825 1.377 . S
C825 H809 0.930 . S
C825 C824 1.377 . S
C825 C826 1.379 . S
C826 H810 0.931 . S
C826 C820 1.383 . S
C826 C825 1.379 . S
H827 C821 0.959 . S
H828 C821 0.961 . S
H829 C821 0.960 . S
H830 C822 0.930 . S
H831 C823 0.929 . S
H832 C840 0.929 . S
H833 C842 0.930 . S
H834 C844 0.930 . S
H835 C847 0.929 . S
H836 C850 0.930 . S
H837 C852 0.960 . S
H838 C852 0.960 . S
H839 C852 0.960 . S
C840 H832 0.929 . S
C840 C841 1.377 . S
C840 C842 1.384 . S
C841 C840 1.377 . S
C841 C847 1.390 . S
C842 H833 0.930 . S
C842 C840 1.384 . S
C842 C843 1.372 . S
C843 C842 1.372 . S
C843 C844 1.400 . S
C843 C848 1.490 . S
C844 H834 0.930 . S
C844 C843 1.400 . S
C844 C847 1.386 . S
H845 C861 0.930 . S
H846 C862 0.931 . S
C847 H835 0.929 . S
C847 C841 1.390 . S
C847 C844 1.386 . S
C848 C843 1.490 . S
C848 C850 1.395 . S
C848 C851 1.403 . S
H849 C855 0.930 . S
C850 H836 0.930 . S
C850 C848 1.395 . S
C850 C853 1.403 . S
C851 C848 1.403 . S
C851 C852 1.524 . S
C851 C855 1.400 . S
C852 H837 0.960 . S
C852 H838 0.960 . S
C852 H839 0.960 . S
C852 C851 1.524 . S
C853 C850 1.403 . S
C853 C854 1.392 . S
C853 C857 1.495 . S
C854 C853 1.392 . S
C854 C855 1.385 . S
C854 C856 1.478 . S
C855 H849 0.930 . S
C855 C851 1.400 . S
C855 C854 1.385 . S
C856 C854 1.478 . S
C856 C858 1.381 . S
C856 C862 1.383 . S
C857 C853 1.495 . S
C857 H863 0.959 . S
C857 H864 0.961 . S
C857 H865 0.960 . S
C858 C856 1.381 . S
C858 C859 1.394 . S
C858 H866 0.930 . S
C859 C858 1.394 . S
C859 C860 1.383 . S
C859 H867 0.929 . S
C860 C859 1.383 . S
C860 C861 1.377 . S
C861 H845 0.930 . S
C861 C860 1.377 . S
C861 C862 1.379 . S
C862 H846 0.931 . S
C862 C856 1.383 . S
C862 C861 1.379 . S
H863 C857 0.959 . S
H864 C857 0.961 . S
H865 C857 0.960 . S
H866 C858 0.930 . S
H867 C859 0.929 . S
H868 C876 0.929 . S
H869 C878 0.930 . S
H870 C880 0.930 . S
H871 C883 0.929 . S
H872 C886 0.930 . S
H873 C888 0.960 . S
H874 C888 0.960 . S
H875 C888 0.960 . S
C876 H868 0.929 . S
C876 C877 1.377 . S
C876 C878 1.384 . S
C877 C876 1.377 . S
C877 C883 1.390 . S
C878 H869 0.930 . S
C878 C876 1.384 . S
C878 C879 1.372 . S
C879 C878 1.372 . S
C879 C880 1.400 . S
C879 C884 1.490 . S
C880 H870 0.930 . S
C880 C879 1.400 . S
C880 C883 1.386 . S
H881 C897 0.930 . S
H882 C898 0.931 . S
C883 H871 0.929 . S
C883 C877 1.390 . S
C883 C880 1.386 . S
C884 C879 1.490 . S
C884 C886 1.395 . S
C884 C887 1.403 . S
H885 C891 0.930 . S
C886 H872 0.930 . S
C886 C884 1.395 . S
C886 C889 1.403 . S
C887 C884 1.403 . S
C887 C888 1.524 . S
C887 C891 1.400 . S
C888 H873 0.960 . S
C888 H874 0.960 . S
C888 H875 0.960 . S
C888 C887 1.524 . S
C889 C886 1.403 . S
C889 C890 1.392 . S
C889 C893 1.495 . S
C890 C889 1.392 . S
C890 C891 1.385 . S
C890 C892 1.478 . S
C891 H885 0.930 . S
C891 C887 1.400 . S
C891 C890 1.385 . S
C892 C890 1.478 . S
C892 C894 1.381 . S
C892 C898 1.383 . S
C893 C889 1.495 . S
C893 H899 0.959 . S
C893 H900 0.961 . S
C893 H901 0.960 . S
C894 C892 1.381 . S
C894 C895 1.394 . S
C894 H902 0.930 . S
C895 C894 1.394 . S
C895 C896 1.383 . S
C895 H903 0.929 . S
C896 C895 1.383 . S
C896 C897 1.377 . S
C897 H881 0.930 . S
C897 C896 1.377 . S
C897 C898 1.379 . S
C898 H882 0.931 . S
C898 C892 1.383 . S
C898 C897 1.379 . S
H899 C893 0.959 . S
H900 C893 0.961 . S
H901 C893 0.960 . S
H902 C894 0.930 . S
H903 C895 0.929 . S
H904 C912 0.929 . S
H905 C914 0.930 . S
H906 C916 0.930 . S
H907 C919 0.929 . S
H908 C922 0.930 . S
H909 C924 0.960 . S
H910 C924 0.960 . S
H911 C924 0.960 . S
C912 H904 0.929 . S
C912 C913 1.377 . S
C912 C914 1.384 . S
C913 C912 1.377 . S
C913 C919 1.390 . S
C914 H905 0.930 . S
C914 C912 1.384 . S
C914 C915 1.372 . S
C915 C914 1.372 . S
C915 C916 1.400 . S
C915 C920 1.490 . S
C916 H906 0.930 . S
C916 C915 1.400 . S
C916 C919 1.386 . S
H917 C933 0.930 . S
H918 C934 0.931 . S
C919 H907 0.929 . S
C919 C913 1.390 . S
C919 C916 1.386 . S
C920 C915 1.490 . S
C920 C922 1.395 . S
C920 C923 1.403 . S
H921 C927 0.930 . S
C922 H908 0.930 . S
C922 C920 1.395 . S
C922 C925 1.403 . S
C923 C920 1.403 . S
C923 C924 1.524 . S
C923 C927 1.400 . S
C924 H909 0.960 . S
C924 H910 0.960 . S
C924 H911 0.960 . S
C924 C923 1.524 . S
C925 C922 1.403 . S
C925 C926 1.392 . S
C925 C929 1.495 . S
C926 C925 1.392 . S
C926 C927 1.385 . S
C926 C928 1.478 . S
C927 H921 0.930 . S
C927 C923 1.400 . S
C927 C926 1.385 . S
C928 C926 1.478 . S
C928 C930 1.381 . S
C928 C934 1.383 . S
C929 C925 1.495 . S
C929 H935 0.959 . S
C929 H936 0.961 . S
C929 H937 0.960 . S
C930 C928 1.381 . S
C930 C931 1.394 . S
C930 H938 0.930 . S
C931 C930 1.394 . S
C931 C932 1.383 . S
C931 H939 0.929 . S
C932 C931 1.383 . S
C932 C933 1.377 . S
C933 H917 0.930 . S
C933 C932 1.377 . S
C933 C934 1.379 . S
C934 H918 0.931 . S
C934 C928 1.383 . S
C934 C933 1.379 . S
H935 C929 0.959 . S
H936 C929 0.961 . S
H937 C929 0.960 . S
H938 C930 0.930 . S
H939 C931 0.929 . S
H940 C948 0.929 . S
H941 C950 0.930 . S
H942 C952 0.930 . S
H943 C955 0.929 . S
H944 C958 0.930 . S
H945 C960 0.960 . S
H946 C960 0.960 . S
H947 C960 0.960 . S
C948 H940 0.929 . S
C948 C949 1.377 . S
C948 C950 1.384 . S
C949 C948 1.377 . S
C949 C955 1.390 . S
C950 H941 0.930 . S
C950 C948 1.384 . S
C950 C951 1.372 . S
C951 C950 1.372 . S
C951 C952 1.400 . S
C951 C956 1.490 . S
C952 H942 0.930 . S
C952 C951 1.400 . S
C952 C955 1.386 . S
H953 C969 0.930 . S
H954 C970 0.931 . S
C955 H943 0.929 . S
C955 C949 1.390 . S
C955 C952 1.386 . S
C956 C951 1.490 . S
C956 C958 1.395 . S
C956 C959 1.403 . S
H957 C963 0.940 . S
C958 H944 0.930 . S
C958 C956 1.395 . S
C958 C961 1.403 1_556 S
C959 C956 1.403 . S
C959 C960 1.524 . S
C959 C963 1.381 1_556 S
C960 H945 0.960 . S
C960 H946 0.960 . S
C960 H947 0.960 . S
C960 C959 1.524 . S
C961 C958 1.403 1_554 S
C961 C962 1.392 . S
C961 C965 1.495 . S
C962 C961 1.392 . S
C962 C963 1.395 . S
C962 C964 1.478 . S
C963 H957 0.940 . S
C963 C959 1.381 1_554 S
C963 C962 1.395 . S
C964 C962 1.478 . S
C964 C966 1.381 . S
C964 C970 1.383 . S
C965 C961 1.495 . S
C965 H971 0.959 . S
C965 H972 0.961 . S
C965 H973 0.960 . S
C966 C964 1.381 . S
C966 C967 1.394 . S
C966 H974 0.930 . S
C967 C966 1.394 . S
C967 C968 1.383 . S
C967 H975 0.929 . S
C968 C967 1.383 . S
C968 C969 1.377 . S
C969 H953 0.930 . S
C969 C968 1.377 . S
C969 C970 1.379 . S
C970 H954 0.931 . S
C970 C964 1.383 . S
C970 C969 1.379 . S
H971 C965 0.959 . S
H972 C965 0.961 . S
H973 C965 0.960 . S
H974 C966 0.930 . S
H975 C967 0.929 . S
H976 C984 0.929 . S
H977 C986 0.930 . S
H978 C988 0.930 . S
H979 C991 0.929 . S
H980 C994 0.930 . S
H981 C996 0.960 . S
H982 C996 0.960 . S
H983 C996 0.960 . S
C984 H976 0.929 . S
C984 C985 1.377 . S
C984 C986 1.384 . S
C985 C984 1.377 . S
C985 C991 1.390 . S
C986 H977 0.930 . S
C986 C984 1.384 . S
C986 C987 1.372 . S
C987 C986 1.372 . S
C987 C988 1.400 . S
C987 C992 1.490 . S
C988 H978 0.930 . S
C988 C987 1.400 . S
C988 C991 1.386 . S
H989 C1005 0.930 . S
H990 C1006 0.931 . S
C991 H979 0.929 . S
C991 C985 1.390 . S
C991 C988 1.386 . S
C992 C987 1.490 . S
C992 C994 1.395 . S
C992 C995 1.403 . S
H993 C999 0.930 . S
C994 H980 0.930 . S
C994 C992 1.395 . S
C994 C997 1.403 . S
C995 C992 1.403 . S
C995 C996 1.524 . S
C995 C999 1.400 . S
C996 H981 0.960 . S
C996 H982 0.960 . S
C996 H983 0.960 . S
C996 C995 1.524 . S
C997 C994 1.403 . S
C997 C998 1.392 . S
C997 C1001 1.495 . S
C998 C997 1.392 . S
C998 C999 1.385 . S
C998 C1000 1.478 . S
C999 H993 0.930 . S
C999 C995 1.400 . S
C999 C998 1.385 . S
C1000 C998 1.478 . S
C1000 C1002 1.381 . S
C1000 C1006 1.383 . S
C1001 C997 1.495 . S
C1001 H1007 0.959 . S
C1001 H1008 0.961 . S
C1001 H1009 0.960 . S
C1002 C1000 1.381 . S
C1002 C1003 1.394 . S
C1002 H1010 0.930 . S
C1003 C1002 1.394 . S
C1003 C1004 1.383 . S
C1003 H1011 0.929 . S
C1004 C1003 1.383 . S
C1004 C1005 1.377 . S
C1005 H989 0.930 . S
C1005 C1004 1.377 . S
C1005 C1006 1.379 . S
C1006 H990 0.931 . S
C1006 C1000 1.383 . S
C1006 C1005 1.379 . S
H1007 C1001 0.959 . S
H1008 C1001 0.961 . S
H1009 C1001 0.960 . S
H1010 C1002 0.930 . S
H1011 C1003 0.929 . S
H1012 C1020 0.929 . S
H1013 C1022 0.930 . S
H1014 C1024 0.930 . S
H1015 C1027 0.929 . S
H1016 C1030 0.930 . S
H1017 C1032 0.960 . S
H1018 C1032 0.960 . S
H1019 C1032 0.960 . S
C1020 H1012 0.929 . S
C1020 C1021 1.377 . S
C1020 C1022 1.384 . S
C1021 C1020 1.377 . S
C1021 C1027 1.390 . S
C1022 H1013 0.930 . S
C1022 C1020 1.384 . S
C1022 C1023 1.372 . S
C1023 C1022 1.372 . S
C1023 C1024 1.400 . S
C1023 C1028 1.490 . S
C1024 H1014 0.930 . S
C1024 C1023 1.400 . S
C1024 C1027 1.386 . S
H1025 C1041 0.930 . S
H1026 C1042 0.931 . S
C1027 H1015 0.929 . S
C1027 C1021 1.390 . S
C1027 C1024 1.386 . S
C1028 C1023 1.490 . S
C1028 C1030 1.395 . S
C1028 C1031 1.403 . S
H1029 C1035 0.930 . S
C1030 H1016 0.930 . S
C1030 C1028 1.395 . S
C1030 C1033 1.403 . S
C1031 C1028 1.403 . S
C1031 C1032 1.524 . S
C1031 C1035 1.400 . S
C1032 H1017 0.960 . S
C1032 H1018 0.960 . S
C1032 H1019 0.960 . S
C1032 C1031 1.524 . S
C1033 C1030 1.403 . S
C1033 C1034 1.392 . S
C1033 C1037 1.495 1_545 S
C1034 C1033 1.392 . S
C1034 C1035 1.382 . S
C1034 C1036 1.481 1_545 S
C1035 H1029 0.930 . S
C1035 C1031 1.400 . S
C1035 C1034 1.382 . S
C1036 C1034 1.481 1_565 S
C1036 C1038 1.381 . S
C1036 C1042 1.383 . S
C1037 C1033 1.495 1_565 S
C1037 H1043 0.959 . S
C1037 H1044 0.961 . S
C1037 H1045 0.960 . S
C1038 C1036 1.381 . S
C1038 C1039 1.394 . S
C1038 H1046 0.930 . S
C1039 C1038 1.394 . S
C1039 C1040 1.383 . S
C1039 H1047 0.929 . S
C1040 C1039 1.383 . S
C1040 C1041 1.377 . S
C1041 H1025 0.930 . S
C1041 C1040 1.377 . S
C1041 C1042 1.379 . S
C1042 H1026 0.931 . S
C1042 C1036 1.383 . S
C1042 C1041 1.379 . S
H1043 C1037 0.959 . S
H1044 C1037 0.961 . S
H1045 C1037 0.960 . S
H1046 C1038 0.930 . S
H1047 C1039 0.929 . S
H1048 C1056 0.929 1_545 S
H1049 C1058 0.930 . S
H1050 C1060 0.930 . S
H1051 C1063 0.929 . S
H1052 C1066 0.930 . S
H1053 C1068 0.960 . S
H1054 C1068 0.960 . S
H1055 C1068 0.960 . S
C1056 H1048 0.929 1_565 S
C1056 C1057 1.377 . S
C1056 C1058 1.384 . S
C1057 C1056 1.377 . S
C1057 C1063 1.390 . S
C1058 H1049 0.930 . S
C1058 C1056 1.384 . S
C1058 C1059 1.372 . S
C1059 C1058 1.372 . S
C1059 C1060 1.400 . S
C1059 C1064 1.490 . S
C1060 H1050 0.930 . S
C1060 C1059 1.400 . S
C1060 C1063 1.386 . S
H1061 C1077 0.930 . S
H1062 C1078 0.931 . S
C1063 H1051 0.929 . S
C1063 C1057 1.390 . S
C1063 C1060 1.386 . S
C1064 C1059 1.490 . S
C1064 C1066 1.395 . S
C1064 C1067 1.403 . S
H1065 C1071 0.930 . S
C1066 H1052 0.930 . S
C1066 C1064 1.395 . S
C1066 C1069 1.403 . S
C1067 C1064 1.403 . S
C1067 C1068 1.524 . S
C1067 C1071 1.400 . S
C1068 H1053 0.960 . S
C1068 H1054 0.960 . S
C1068 H1055 0.960 . S
C1068 C1067 1.524 . S
C1069 C1066 1.403 . S
C1069 C1070 1.392 . S
C1069 C1073 1.495 . S
C1070 C1069 1.392 . S
C1070 C1071 1.385 . S
C1070 C1072 1.478 . S
C1071 H1065 0.930 . S
C1071 C1067 1.400 . S
C1071 C1070 1.385 . S
C1072 C1070 1.478 . S
C1072 C1074 1.381 . S
C1072 C1078 1.383 . S
C1073 C1069 1.495 . S
C1073 H1079 0.959 . S
C1073 H1080 0.961 . S
C1073 H1081 0.960 . S
C1074 C1072 1.381 . S
C1074 C1075 1.394 . S
C1074 H1082 0.930 . S
C1075 C1074 1.394 . S
C1075 C1076 1.383 . S
C1075 H1083 0.929 . S
C1076 C1075 1.383 . S
C1076 C1077 1.377 . S
C1077 H1061 0.930 . S
C1077 C1076 1.377 . S
C1077 C1078 1.379 . S
C1078 H1062 0.931 . S
C1078 C1072 1.383 . S
C1078 C1077 1.379 . S
H1079 C1073 0.959 . S
H1080 C1073 0.961 . S
H1081 C1073 0.960 . S
H1082 C1074 0.930 . S
H1083 C1075 0.929 . S
H1084 C1092 0.929 . S
H1085 C1094 0.930 . S
H1086 C1096 0.930 . S
H1087 C1099 0.929 . S
H1088 C1102 0.930 . S
H1089 C1104 0.960 . S
H1090 C1104 0.960 . S
H1091 C1104 0.960 . S
C1092 H1084 0.929 . S
C1092 C1093 1.377 . S
C1092 C1094 1.384 . S
C1093 C1092 1.377 . S
C1093 C1099 1.390 . S
C1094 H1085 0.930 . S
C1094 C1092 1.384 . S
C1094 C1095 1.372 . S
C1095 C1094 1.372 . S
C1095 C1096 1.400 . S
C1095 C1100 1.490 . S
C1096 H1086 0.930 . S
C1096 C1095 1.400 . S
C1096 C1099 1.386 . S
H1097 C1113 0.930 . S
H1098 C1114 0.931 . S
C1099 H1087 0.929 . S
C1099 C1093 1.390 . S
C1099 C1096 1.386 . S
C1100 C1095 1.490 . S
C1100 C1102 1.395 . S
C1100 C1103 1.403 . S
H1101 C1107 0.930 . S
C1102 H1088 0.930 . S
C1102 C1100 1.395 . S
C1102 C1105 1.403 1_565 S
C1103 C1100 1.403 . S
C1103 C1104 1.524 . S
C1103 C1107 1.400 . S
C1104 H1089 0.960 . S
C1104 H1090 0.960 . S
C1104 H1091 0.960 . S
C1104 C1103 1.524 . S
C1105 C1102 1.403 1_545 S
C1105 C1106 1.392 . S
C1105 C1109 1.495 . S
C1106 C1105 1.392 . S
C1106 C1107 1.385 1_545 S
C1106 C1108 1.478 . S
C1107 H1101 0.930 . S
C1107 C1103 1.400 . S
C1107 C1106 1.385 1_565 S
C1108 C1106 1.478 . S
C1108 C1110 1.381 . S
C1108 C1114 1.383 . S
C1109 C1105 1.495 . S
C1109 H1115 0.959 . S
C1109 H1116 0.961 . S
C1109 H1117 0.960 . S
C1110 C1108 1.381 . S
C1110 C1111 1.394 . S
C1110 H1118 0.930 . S
C1111 C1110 1.394 . S
C1111 C1112 1.383 . S
C1111 H1119 0.929 . S
C1112 C1111 1.383 . S
C1112 C1113 1.377 . S
C1113 H1097 0.930 . S
C1113 C1112 1.377 . S
C1113 C1114 1.379 . S
C1114 H1098 0.931 . S
C1114 C1108 1.383 . S
C1114 C1113 1.379 . S
H1115 C1109 0.959 . S
H1116 C1109 0.961 . S
H1117 C1109 0.960 . S
H1118 C1110 0.930 . S
H1119 C1111 0.929 . S
H1120 C1128 0.929 . S
H1121 C1130 0.930 . S
H1122 C1132 0.930 . S
H1123 C1135 0.929 . S
H1124 C1138 0.930 . S
H1125 C1140 0.960 . S
H1126 C1140 0.960 . S
H1127 C1140 0.960 . S
C1128 H1120 0.929 . S
C1128 C1129 1.377 . S
C1128 C1130 1.384 . S
C1129 C1128 1.377 . S
C1129 C1135 1.390 . S
C1130 H1121 0.930 . S
C1130 C1128 1.384 . S
C1130 C1131 1.372 . S
C1131 C1130 1.372 . S
C1131 C1132 1.400 . S
C1131 C1136 1.490 . S
C1132 H1122 0.930 . S
C1132 C1131 1.400 . S
C1132 C1135 1.386 . S
H1133 C1149 0.930 . S
H1134 C1150 0.931 . S
C1135 H1123 0.929 . S
C1135 C1129 1.390 . S
C1135 C1132 1.386 . S
C1136 C1131 1.490 . S
C1136 C1138 1.395 . S
C1136 C1139 1.403 . S
H1137 C1143 0.930 . S
C1138 H1124 0.930 . S
C1138 C1136 1.395 . S
C1138 C1141 1.403 . S
C1139 C1136 1.403 . S
C1139 C1140 1.524 . S
C1139 C1143 1.400 . S
C1140 H1125 0.960 . S
C1140 H1126 0.960 . S
C1140 H1127 0.960 . S
C1140 C1139 1.524 . S
C1141 C1138 1.403 . S
C1141 C1142 1.392 . S
C1141 C1145 1.495 . S
C1142 C1141 1.392 . S
C1142 C1143 1.385 . S
C1142 C1144 1.478 . S
C1143 H1137 0.930 . S
C1143 C1139 1.400 . S
C1143 C1142 1.385 . S
C1144 C1142 1.478 . S
C1144 C1146 1.381 . S
C1144 C1150 1.383 . S
C1145 C1141 1.495 . S
C1145 H1151 0.959 . S
C1145 H1152 0.961 . S
C1145 H1153 0.960 . S
C1146 C1144 1.381 . S
C1146 C1147 1.394 . S
C1146 H1154 0.930 . S
C1147 C1146 1.394 . S
C1147 C1148 1.383 . S
C1147 H1155 0.929 . S
C1148 C1147 1.383 . S
C1148 C1149 1.377 . S
C1149 H1133 0.930 . S
C1149 C1148 1.377 . S
C1149 C1150 1.379 . S
C1150 H1134 0.931 . S
C1150 C1144 1.383 . S
C1150 C1149 1.379 . S
H1151 C1145 0.959 . S
H1152 C1145 0.961 . S
H1153 C1145 0.960 . S
H1154 C1146 0.930 . S
H1155 C1147 0.929 . S
H1156 C1164 0.929 . S
H1157 C1166 0.930 . S
H1158 C1168 0.930 . S
H1159 C1171 0.929 . S
H1160 C1174 0.930 . S
H1161 C1176 0.946 1_565 S
H1162 C1176 0.960 . S
H1163 C1176 0.960 . S
C1164 H1156 0.929 . S
C1164 C1165 1.377 . S
C1164 C1166 1.384 . S
C1165 C1164 1.377 . S
C1165 C1171 1.390 . S
C1166 H1157 0.930 . S
C1166 C1164 1.384 . S
C1166 C1167 1.372 . S
C1167 C1166 1.372 . S
C1167 C1168 1.400 . S
C1167 C1172 1.490 . S
C1168 H1158 0.930 . S
C1168 C1167 1.400 . S
C1168 C1171 1.386 . S
H1169 C1185 0.930 . S
H1170 C1186 0.931 . S
C1171 H1159 0.929 . S
C1171 C1165 1.390 . S
C1171 C1168 1.386 . S
C1172 C1167 1.490 . S
C1172 C1174 1.395 . S
C1172 C1175 1.403 . S
H1173 C1179 0.930 1_565 S
C1174 H1160 0.930 . S
C1174 C1172 1.395 . S
C1174 C1177 1.403 . S
C1175 C1172 1.403 . S
C1175 C1176 1.524 . S
C1175 C1179 1.400 . S
C1176 H1161 0.946 1_545 S
C1176 H1162 0.960 . S
C1176 H1163 0.960 . S
C1176 C1175 1.524 . S
C1177 C1174 1.403 . S
C1177 C1178 1.392 . S
C1177 C1181 1.495 . S
C1178 C1177 1.392 . S
C1178 C1179 1.385 . S
C1178 C1180 1.478 1_545 S
C1179 H1173 0.930 1_545 S
C1179 C1175 1.400 . S
C1179 C1178 1.385 . S
C1180 C1178 1.478 1_565 S
C1180 C1182 1.381 . S
C1180 C1186 1.383 . S
C1181 C1177 1.495 . S
C1181 H1187 0.959 . S
C1181 H1188 0.961 . S
C1181 H1189 0.960 . S
C1182 C1180 1.381 . S
C1182 C1183 1.394 . S
C1182 H1190 0.930 . S
C1183 C1182 1.394 . S
C1183 C1184 1.383 . S
C1183 H1191 0.929 . S
C1184 C1183 1.383 . S
C1184 C1185 1.377 . S
C1185 H1169 0.930 . S
C1185 C1184 1.377 . S
C1185 C1186 1.379 . S
C1186 H1170 0.931 . S
C1186 C1180 1.383 . S
C1186 C1185 1.379 . S
H1187 C1181 0.959 . S
H1188 C1181 0.961 . S
H1189 C1181 0.960 . S
H1190 C1182 0.930 . S
H1191 C1183 0.929 . S
H1192 C1200 0.929 . S
H1193 C1202 0.930 . S
H1194 C1204 0.930 . S
H1195 C1207 0.929 . S
H1196 C1210 0.930 . S
H1197 C1212 0.960 . S
H1198 C1212 0.960 . S
H1199 C1212 0.960 . S
C1200 H1192 0.929 . S
C1200 C1201 1.377 . S
C1200 C1202 1.384 . S
C1201 C1200 1.377 . S
C1201 C1207 1.390 . S
C1202 H1193 0.930 . S
C1202 C1200 1.384 . S
C1202 C1203 1.372 . S
C1203 C1202 1.372 . S
C1203 C1204 1.400 . S
C1203 C1208 1.490 . S
C1204 H1194 0.930 . S
C1204 C1203 1.400 . S
C1204 C1207 1.386 . S
H1205 C1221 0.930 . S
H1206 C1222 0.931 . S
C1207 H1195 0.929 . S
C1207 C1201 1.390 . S
C1207 C1204 1.386 . S
C1208 C1203 1.490 . S
C1208 C1210 1.395 . S
C1208 C1211 1.403 . S
H1209 C1215 0.930 . S
C1210 H1196 0.930 . S
C1210 C1208 1.395 . S
C1210 C1213 1.403 . S
C1211 C1208 1.403 . S
C1211 C1212 1.524 . S
C1211 C1215 1.400 . S
C1212 H1197 0.960 . S
C1212 H1198 0.960 . S
C1212 H1199 0.960 . S
C1212 C1211 1.524 . S
C1213 C1210 1.403 . S
C1213 C1214 1.392 . S
C1213 C1217 1.495 . S
C1214 C1213 1.392 . S
C1214 C1215 1.385 . S
C1214 C1216 1.478 . S
C1215 H1209 0.930 . S
C1215 C1211 1.400 . S
C1215 C1214 1.385 . S
C1216 C1214 1.478 . S
C1216 C1218 1.381 . S
C1216 C1222 1.383 . S
C1217 C1213 1.495 . S
C1217 H1223 0.959 . S
C1217 H1224 0.961 . S
C1217 H1225 0.960 . S
C1218 C1216 1.381 . S
C1218 C1219 1.394 . S
C1218 H1226 0.930 . S
C1219 C1218 1.394 . S
C1219 C1220 1.383 . S
C1219 H1227 0.929 . S
C1220 C1219 1.383 . S
C1220 C1221 1.377 . S
C1221 H1205 0.930 . S
C1221 C1220 1.377 . S
C1221 C1222 1.379 . S
C1222 H1206 0.931 . S
C1222 C1216 1.383 . S
C1222 C1221 1.379 . S
H1223 C1217 0.959 . S
H1224 C1217 0.961 . S
H1225 C1217 0.960 . S
H1226 C1218 0.930 . S
H1227 C1219 0.929 . S
H1228 C1236 0.929 . S
H1229 C1238 0.930 . S
H1230 C1240 0.930 . S
H1231 C1243 0.929 . S
H1232 C1246 0.930 . S
H1233 C1248 0.960 . S
H1234 C1248 0.960 . S
H1235 C1248 0.960 . S
C1236 H1228 0.929 . S
C1236 C1237 1.377 . S
C1236 C1238 1.384 . S
C1237 C1236 1.377 . S
C1237 C1243 1.390 . S
C1238 H1229 0.930 . S
C1238 C1236 1.384 . S
C1238 C1239 1.372 . S
C1239 C1238 1.372 . S
C1239 C1240 1.400 . S
C1239 C1244 1.490 . S
C1240 H1230 0.930 . S
C1240 C1239 1.400 . S
C1240 C1243 1.386 . S
H1241 C1257 0.930 . S
H1242 C1258 0.931 . S
C1243 H1231 0.929 . S
C1243 C1237 1.390 . S
C1243 C1240 1.386 . S
C1244 C1239 1.490 . S
C1244 C1246 1.395 . S
C1244 C1247 1.403 . S
H1245 C1251 0.930 . S
C1246 H1232 0.930 . S
C1246 C1244 1.395 . S
C1246 C1249 1.403 1_565 S
C1247 C1244 1.403 . S
C1247 C1248 1.524 . S
C1247 C1251 1.404 1_565 S
C1248 H1233 0.960 . S
C1248 H1234 0.960 . S
C1248 H1235 0.960 . S
C1248 C1247 1.524 . S
C1249 C1246 1.403 1_545 S
C1249 C1250 1.392 . S
C1249 C1253 1.495 . S
C1250 C1249 1.392 . S
C1250 C1251 1.381 . S
C1250 C1252 1.478 . S
C1251 H1245 0.930 . S
C1251 C1247 1.404 1_545 S
C1251 C1250 1.381 . S
C1252 C1250 1.478 . S
C1252 C1254 1.381 . S
C1252 C1258 1.383 . S
C1253 C1249 1.495 . S
C1253 H1259 0.959 . S
C1253 H1260 0.961 . S
C1253 H1261 0.960 . S
C1254 C1252 1.381 . S
C1254 C1255 1.394 . S
C1254 H1262 0.930 . S
C1255 C1254 1.394 . S
C1255 C1256 1.383 . S
C1255 H1263 0.929 . S
C1256 C1255 1.383 . S
C1256 C1257 1.377 . S
C1257 H1241 0.930 . S
C1257 C1256 1.377 . S
C1257 C1258 1.379 . S
C1258 H1242 0.931 . S
C1258 C1252 1.383 . S
C1258 C1257 1.379 . S
H1259 C1253 0.959 . S
H1260 C1253 0.961 . S
H1261 C1253 0.960 . S
H1262 C1254 0.930 . S
H1263 C1255 0.929 . S
H1264 C1272 0.929 . S
H1265 C1274 0.930 . S
H1266 C1276 0.930 . S
H1267 C1279 0.929 . S
H1268 C1282 0.930 . S
H1269 C1284 0.960 . S
H1270 C1284 0.960 . S
H1271 C1284 0.960 . S
C1272 H1264 0.929 . S
C1272 C1273 1.377 . S
C1272 C1274 1.384 . S
C1273 C1272 1.377 . S
C1273 C1279 1.390 . S
C1274 H1265 0.930 . S
C1274 C1272 1.384 . S
C1274 C1275 1.372 . S
C1275 C1274 1.372 . S
C1275 C1276 1.400 . S
C1275 C1280 1.490 . S
C1276 H1266 0.930 . S
C1276 C1275 1.400 . S
C1276 C1279 1.386 . S
H1277 C1293 0.930 . S
H1278 C1294 0.931 . S
C1279 H1267 0.929 . S
C1279 C1273 1.390 . S
C1279 C1276 1.386 . S
C1280 C1275 1.490 . S
C1280 C1282 1.395 . S
C1280 C1283 1.403 . S
H1281 C1287 0.930 . S
C1282 H1268 0.930 . S
C1282 C1280 1.395 . S
C1282 C1285 1.403 . S
C1283 C1280 1.403 . S
C1283 C1284 1.524 . S
C1283 C1287 1.400 . S
C1284 H1269 0.960 . S
C1284 H1270 0.960 . S
C1284 H1271 0.960 . S
C1284 C1283 1.524 . S
C1285 C1282 1.403 . S
C1285 C1286 1.392 . S
C1285 C1289 1.495 . S
C1286 C1285 1.392 . S
C1286 C1287 1.385 . S
C1286 C1288 1.478 . S
C1287 H1281 0.930 . S
C1287 C1283 1.400 . S
C1287 C1286 1.385 . S
C1288 C1286 1.478 . S
C1288 C1290 1.381 . S
C1288 C1294 1.383 . S
C1289 C1285 1.495 . S
C1289 H1295 0.959 . S
C1289 H1296 0.961 . S
C1289 H1297 0.960 . S
C1290 C1288 1.381 . S
C1290 C1291 1.394 . S
C1290 H1298 0.930 . S
C1291 C1290 1.394 . S
C1291 C1292 1.383 . S
C1291 H1299 0.929 . S
C1292 C1291 1.383 . S
C1292 C1293 1.377 . S
C1293 H1277 0.930 . S
C1293 C1292 1.377 . S
C1293 C1294 1.379 . S
C1294 H1278 0.931 . S
C1294 C1288 1.383 . S
C1294 C1293 1.379 . S
H1295 C1289 0.959 . S
H1296 C1289 0.961 . S
H1297 C1289 0.960 . S
H1298 C1290 0.930 . S
H1299 C1291 0.929 . S
H1300 C1308 0.929 . S
H1301 C1310 0.930 . S
H1302 C1312 0.930 . S
H1303 C1315 0.929 . S
H1304 C1318 0.930 . S
H1305 C1320 0.960 . S
H1306 C1320 0.960 . S
H1307 C1320 0.960 . S
C1308 H1300 0.929 . S
C1308 C1309 1.377 . S
C1308 C1310 1.384 . S
C1309 C1308 1.377 . S
C1309 C1315 1.390 . S
C1310 H1301 0.930 . S
C1310 C1308 1.384 . S
C1310 C1311 1.372 . S
C1311 C1310 1.372 . S
C1311 C1312 1.400 . S
C1311 C1316 1.490 . S
C1312 H1302 0.930 . S
C1312 C1311 1.400 . S
C1312 C1315 1.386 . S
H1313 C1329 0.930 . S
H1314 C1330 0.931 . S
C1315 H1303 0.929 . S
C1315 C1309 1.390 . S
C1315 C1312 1.386 . S
C1316 C1311 1.490 . S
C1316 C1318 1.395 . S
C1316 C1319 1.403 . S
H1317 C1323 0.930 . S
C1318 H1304 0.930 . S
C1318 C1316 1.395 . S
C1318 C1321 1.403 . S
C1319 C1316 1.403 . S
C1319 C1320 1.524 . S
C1319 C1323 1.400 . S
C1320 H1305 0.960 . S
C1320 H1306 0.960 . S
C1320 H1307 0.960 . S
C1320 C1319 1.524 . S
C1321 C1318 1.403 . S
C1321 C1322 1.392 . S
C1321 C1325 1.495 . S
C1322 C1321 1.392 . S
C1322 C1323 1.385 . S
C1322 C1324 1.478 . S
C1323 H1317 0.930 . S
C1323 C1319 1.400 . S
C1323 C1322 1.385 . S
C1324 C1322 1.478 . S
C1324 C1326 1.381 . S
C1324 C1330 1.383 . S
C1325 C1321 1.495 . S
C1325 H1331 0.959 . S
C1325 H1332 0.961 . S
C1325 H1333 0.960 . S
C1326 C1324 1.381 . S
C1326 C1327 1.394 . S
C1326 H1334 0.930 . S
C1327 C1326 1.394 . S
C1327 C1328 1.383 . S
C1327 H1335 0.929 . S
C1328 C1327 1.383 . S
C1328 C1329 1.377 . S
C1329 H1313 0.930 . S
C1329 C1328 1.377 . S
C1329 C1330 1.379 . S
C1330 H1314 0.931 . S
C1330 C1324 1.383 . S
C1330 C1329 1.379 . S
H1331 C1325 0.959 . S
H1332 C1325 0.961 . S
H1333 C1325 0.960 . S
H1334 C1326 0.930 . S
H1335 C1327 0.929 . S
H1336 C1344 0.929 . S
H1337 C1346 0.930 . S
H1338 C1348 0.930 . S
H1339 C1351 0.929 . S
H1340 C1354 0.930 . S
H1341 C1356 0.960 . S
H1342 C1356 0.960 . S
H1343 C1356 0.960 . S
C1344 H1336 0.929 . S
C1344 C1345 1.377 . S
C1344 C1346 1.384 . S
C1345 C1344 1.377 . S
C1345 C1351 1.390 . S
C1346 H1337 0.930 . S
C1346 C1344 1.384 . S
C1346 C1347 1.372 . S
C1347 C1346 1.372 . S
C1347 C1348 1.400 . S
C1347 C1352 1.490 . S
C1348 H1338 0.930 . S
C1348 C1347 1.400 . S
C1348 C1351 1.386 . S
H1349 C1365 0.930 . S
H1350 C1366 0.931 . S
C1351 H1339 0.929 . S
C1351 C1345 1.390 . S
C1351 C1348 1.386 . S
C1352 C1347 1.490 . S
C1352 C1354 1.395 . S
C1352 C1355 1.403 . S
H1353 C1359 0.930 . S
C1354 H1340 0.930 . S
C1354 C1352 1.395 . S
C1354 C1357 1.403 1_455 S
C1355 C1352 1.403 . S
C1355 C1356 1.524 . S
C1355 C1359 1.400 . S
C1356 H1341 0.960 . S
C1356 H1342 0.960 . S
C1356 H1343 0.960 . S
C1356 C1355 1.524 . S
C1357 C1354 1.403 1_655 S
C1357 C1358 1.392 . S
C1357 C1361 1.495 . S
C1358 C1357 1.392 . S
C1358 C1359 1.385 1_655 S
C1358 C1360 1.478 . S
C1359 H1353 0.930 . S
C1359 C1355 1.400 . S
C1359 C1358 1.385 1_455 S
C1360 C1358 1.478 . S
C1360 C1362 1.381 . S
C1360 C1366 1.383 . S
C1361 C1357 1.495 . S
C1361 H1367 0.959 . S
C1361 H1368 0.961 . S
C1361 H1369 0.960 . S
C1362 C1360 1.381 . S
C1362 C1363 1.394 . S
C1362 H1370 0.930 . S
C1363 C1362 1.394 . S
C1363 C1364 1.383 . S
C1363 H1371 0.929 . S
C1364 C1363 1.383 . S
C1364 C1365 1.377 . S
C1365 H1349 0.930 . S
C1365 C1364 1.377 . S
C1365 C1366 1.379 . S
C1366 H1350 0.931 . S
C1366 C1360 1.383 . S
C1366 C1365 1.379 . S
H1367 C1361 0.959 . S
H1368 C1361 0.961 . S
H1369 C1361 0.960 . S
H1370 C1362 0.930 . S
H1371 C1363 0.929 . S
H1372 C1380 0.929 . S
H1373 C1382 0.930 . S
H1374 C1384 0.930 . S
H1375 C1387 0.929 . S
H1376 C1390 0.930 . S
H1377 C1392 0.960 . S
H1378 C1392 0.960 . S
H1379 C1392 0.960 . S
C1380 H1372 0.929 . S
C1380 C1381 1.377 . S
C1380 C1382 1.384 . S
C1381 C1380 1.377 . S
C1381 C1387 1.390 . S
C1382 H1373 0.930 . S
C1382 C1380 1.384 . S
C1382 C1383 1.372 . S
C1383 C1382 1.372 . S
C1383 C1384 1.400 . S
C1383 C1388 1.490 . S
C1384 H1374 0.930 . S
C1384 C1383 1.400 . S
C1384 C1387 1.386 . S
H1385 C1401 0.930 . S
H1386 C1402 0.931 . S
C1387 H1375 0.929 . S
C1387 C1381 1.390 . S
C1387 C1384 1.386 . S
C1388 C1383 1.490 . S
C1388 C1390 1.395 . S
C1388 C1391 1.403 . S
H1389 C1395 0.930 . S
C1390 H1376 0.930 . S
C1390 C1388 1.395 . S
C1390 C1393 1.403 . S
C1391 C1388 1.403 . S
C1391 C1392 1.524 . S
C1391 C1395 1.400 . S
C1392 H1377 0.960 . S
C1392 H1378 0.960 . S
C1392 H1379 0.960 . S
C1392 C1391 1.524 . S
C1393 C1390 1.403 . S
C1393 C1394 1.392 . S
C1393 C1397 1.495 . S
C1394 C1393 1.392 . S
C1394 C1395 1.385 . S
C1394 C1396 1.478 . S
C1395 H1389 0.930 . S
C1395 C1391 1.400 . S
C1395 C1394 1.385 . S
C1396 C1394 1.478 . S
C1396 C1398 1.381 . S
C1396 C1402 1.383 . S
C1397 C1393 1.495 . S
C1397 H1403 0.959 . S
C1397 H1404 0.961 . S
C1397 H1405 0.960 . S
C1398 C1396 1.381 . S
C1398 C1399 1.394 . S
C1398 H1406 0.930 . S
C1399 C1398 1.394 . S
C1399 C1400 1.383 . S
C1399 H1407 0.929 . S
C1400 C1399 1.383 . S
C1400 C1401 1.377 . S
C1401 H1385 0.930 . S
C1401 C1400 1.377 . S
C1401 C1402 1.379 . S
C1402 H1386 0.931 . S
C1402 C1396 1.383 . S
C1402 C1401 1.379 . S
H1403 C1397 0.959 . S
H1404 C1397 0.961 . S
H1405 C1397 0.960 . S
H1406 C1398 0.930 . S
H1407 C1399 0.929 . S
H1408 C1416 0.929 . S
H1409 C1418 0.930 . S
H1410 C1420 0.930 . S
H1411 C1423 0.929 . S
H1412 C1426 0.930 . S
H1413 C1428 0.960 1_455 S
H1414 C1428 0.960 . S
H1415 C1428 0.960 . S
C1416 H1408 0.929 . S
C1416 C1417 1.377 . S
C1416 C1418 1.384 . S
C1417 C1416 1.377 . S
C1417 C1423 1.390 . S
C1418 H1409 0.930 . S
C1418 C1416 1.384 . S
C1418 C1419 1.372 . S
C1419 C1418 1.372 . S
C1419 C1420 1.400 . S
C1419 C1424 1.490 . S
C1420 H1410 0.930 . S
C1420 C1419 1.400 . S
C1420 C1423 1.386 . S
H1421 C1437 0.930 . S
H1422 C1438 0.931 . S
C1423 H1411 0.929 . S
C1423 C1417 1.390 . S
C1423 C1420 1.386 . S
C1424 C1419 1.490 . S
C1424 C1426 1.395 . S
C1424 C1427 1.403 . S
H1425 C1431 0.930 . S
C1426 H1412 0.930 . S
C1426 C1424 1.395 . S
C1426 C1429 1.403 . S
C1427 C1424 1.403 . S
C1427 C1428 1.524 . S
C1427 C1431 1.400 1_655 S
C1428 H1413 0.960 1_655 S
C1428 H1414 0.960 . S
C1428 H1415 0.960 . S
C1428 C1427 1.524 . S
C1429 C1426 1.403 . S
C1429 C1430 1.392 1_655 S
C1429 C1433 1.495 . S
C1430 C1429 1.392 1_455 S
C1430 C1431 1.385 . S
C1430 C1432 1.478 . S
C1431 H1425 0.930 . S
C1431 C1427 1.400 1_455 S
C1431 C1430 1.385 . S
C1432 C1430 1.478 . S
C1432 C1434 1.381 . S
C1432 C1438 1.383 . S
C1433 C1429 1.495 . S
C1433 H1439 0.959 . S
C1433 H1440 0.961 . S
C1433 H1441 0.960 . S
C1434 C1432 1.381 . S
C1434 C1435 1.394 . S
C1434 H1442 0.930 . S
C1435 C1434 1.394 . S
C1435 C1436 1.383 . S
C1435 H1443 0.929 . S
C1436 C1435 1.383 . S
C1436 C1437 1.377 . S
C1437 H1421 0.930 . S
C1437 C1436 1.377 . S
C1437 C1438 1.379 . S
C1438 H1422 0.931 . S
C1438 C1432 1.383 . S
C1438 C1437 1.379 . S
H1439 C1433 0.959 . S
H1440 C1433 0.961 . S
H1441 C1433 0.960 . S
H1442 C1434 0.930 . S
H1443 C1435 0.929 . S
H1444 C1452 0.929 . S
H1445 C1454 0.930 . S
H1446 C1456 0.930 . S
H1447 C1459 0.929 . S
H1448 C1462 0.930 . S
H1449 C1464 0.960 . S
H1450 C1464 0.960 . S
H1451 C1464 0.960 . S
C1452 H1444 0.929 . S
C1452 C1453 1.377 . S
C1452 C1454 1.384 . S
C1453 C1452 1.377 . S
C1453 C1459 1.390 . S
C1454 H1445 0.930 . S
C1454 C1452 1.384 . S
C1454 C1455 1.372 . S
C1455 C1454 1.372 . S
C1455 C1456 1.400 . S
C1455 C1460 1.490 . S
C1456 H1446 0.930 . S
C1456 C1455 1.400 . S
C1456 C1459 1.386 . S
H1457 C1473 0.930 . S
H1458 C1474 0.931 . S
C1459 H1447 0.929 . S
C1459 C1453 1.390 . S
C1459 C1456 1.386 . S
C1460 C1455 1.490 . S
C1460 C1462 1.395 . S
C1460 C1463 1.403 . S
H1461 C1467 0.930 . S
C1462 H1448 0.930 . S
C1462 C1460 1.395 . S
C1462 C1465 1.403 . S
C1463 C1460 1.403 . S
C1463 C1464 1.524 . S
C1463 C1467 1.400 . S
C1464 H1449 0.960 . S
C1464 H1450 0.960 . S
C1464 H1451 0.960 . S
C1464 C1463 1.524 . S
C1465 C1462 1.403 . S
C1465 C1466 1.392 . S
C1465 C1469 1.495 . S
C1466 C1465 1.392 . S
C1466 C1467 1.385 . S
C1466 C1468 1.478 . S
C1467 H1461 0.930 . S
C1467 C1463 1.400 . S
C1467 C1466 1.385 . S
C1468 C1466 1.478 . S
C1468 C1470 1.381 . S
C1468 C1474 1.383 . S
C1469 C1465 1.495 . S
C1469 H1475 0.959 . S
C1469 H1476 0.961 . S
C1469 H1477 0.960 . S
C1470 C1468 1.381 . S
C1470 C1471 1.394 . S
C1470 H1478 0.930 . S
C1471 C1470 1.394 . S
C1471 C1472 1.383 . S
C1471 H1479 0.929 . S
C1472 C1471 1.383 . S
C1472 C1473 1.377 . S
C1473 H1457 0.930 . S
C1473 C1472 1.377 . S
C1473 C1474 1.379 . S
C1474 H1458 0.931 . S
C1474 C1468 1.383 . S
C1474 C1473 1.379 . S
H1475 C1469 0.959 . S
H1476 C1469 0.961 . S
H1477 C1469 0.960 . S
H1478 C1470 0.930 . S
H1479 C1471 0.929 . S
H1480 C1488 0.929 . S
H1481 C1490 0.930 . S
H1482 C1492 0.930 . S
H1483 C1495 0.929 . S
H1484 C1498 0.930 . S
H1485 C1500 0.960 1_655 S
H1486 C1500 0.960 . S
H1487 C1500 0.960 . S
C1488 H1480 0.929 . S
C1488 C1489 1.377 . S
C1488 C1490 1.384 . S
C1489 C1488 1.377 . S
C1489 C1495 1.390 . S
C1490 H1481 0.930 . S
C1490 C1488 1.384 . S
C1490 C1491 1.372 . S
C1491 C1490 1.372 . S
C1491 C1492 1.400 . S
C1491 C1496 1.490 . S
C1492 H1482 0.930 . S
C1492 C1491 1.400 . S
C1492 C1495 1.386 . S
H1493 C1509 0.930 . S
H1494 C1510 0.931 . S
C1495 H1483 0.929 . S
C1495 C1489 1.390 . S
C1495 C1492 1.386 . S
C1496 C1491 1.490 . S
C1496 C1498 1.395 . S
C1496 C1499 1.403 . S
H1497 C1503 0.930 . S
C1498 H1484 0.930 . S
C1498 C1496 1.395 . S
C1498 C1501 1.403 . S
C1499 C1496 1.403 . S
C1499 C1500 1.524 . S
C1499 C1503 1.400 1_455 S
C1500 H1485 0.960 1_455 S
C1500 H1486 0.960 . S
C1500 H1487 0.960 . S
C1500 C1499 1.524 . S
C1501 C1498 1.403 . S
C1501 C1502 1.392 1_455 S
C1501 C1505 1.495 . S
C1502 C1501 1.392 1_655 S
C1502 C1503 1.385 . S
C1502 C1504 1.478 . S
C1503 H1497 0.930 . S
C1503 C1499 1.400 1_655 S
C1503 C1502 1.385 . S
C1504 C1502 1.478 . S
C1504 C1506 1.381 . S
C1504 C1510 1.383 . S
C1505 C1501 1.495 . S
C1505 H1511 0.959 . S
C1505 H1512 0.961 . S
C1505 H1513 0.960 . S
C1506 C1504 1.381 . S
C1506 C1507 1.394 . S
C1506 H1514 0.930 . S
C1507 C1506 1.394 . S
C1507 C1508 1.383 . S
C1507 H1515 0.929 . S
C1508 C1507 1.383 . S
C1508 C1509 1.377 . S
C1509 H1493 0.930 . S
C1509 C1508 1.377 . S
C1509 C1510 1.379 . S
C1510 H1494 0.931 . S
C1510 C1504 1.383 . S
C1510 C1509 1.379 . S
H1511 C1505 0.959 . S
H1512 C1505 0.961 . S
H1513 C1505 0.960 . S
H1514 C1506 0.930 . S
H1515 C1507 0.929 . S
H1516 C1524 0.929 . S
H1517 C1526 0.930 . S
H1518 C1528 0.930 . S
H1519 C1531 0.929 . S
H1520 C1534 0.930 . S
H1521 C1536 0.960 . S
H1522 C1536 0.960 . S
H1523 C1536 0.960 . S
C1524 H1516 0.929 . S
C1524 C1525 1.377 . S
C1524 C1526 1.384 . S
C1525 C1524 1.377 . S
C1525 C1531 1.390 . S
C1526 H1517 0.930 . S
C1526 C1524 1.384 . S
C1526 C1527 1.372 . S
C1527 C1526 1.372 . S
C1527 C1528 1.400 . S
C1527 C1532 1.490 . S
C1528 H1518 0.930 . S
C1528 C1527 1.400 . S
C1528 C1531 1.386 . S
H1529 C1545 0.930 . S
H1530 C1546 0.931 . S
C1531 H1519 0.929 . S
C1531 C1525 1.390 . S
C1531 C1528 1.386 . S
C1532 C1527 1.490 . S
C1532 C1534 1.395 . S
C1532 C1535 1.403 . S
H1533 C1539 0.930 . S
C1534 H1520 0.930 . S
C1534 C1532 1.395 . S
C1534 C1537 1.403 . S
C1535 C1532 1.403 . S
C1535 C1536 1.524 . S
C1535 C1539 1.400 . S
C1536 H1521 0.960 . S
C1536 H1522 0.960 . S
C1536 H1523 0.960 . S
C1536 C1535 1.524 . S
C1537 C1534 1.403 . S
C1537 C1538 1.392 . S
C1537 C1541 1.495 . S
C1538 C1537 1.392 . S
C1538 C1539 1.385 . S
C1538 C1540 1.478 . S
C1539 H1533 0.930 . S
C1539 C1535 1.400 . S
C1539 C1538 1.385 . S
C1540 C1538 1.478 . S
C1540 C1542 1.381 . S
C1540 C1546 1.383 . S
C1541 C1537 1.495 . S
C1541 H1547 0.959 . S
C1541 H1548 0.961 . S
C1541 H1549 0.960 . S
C1542 C1540 1.381 . S
C1542 C1543 1.394 . S
C1542 H1550 0.930 . S
C1543 C1542 1.394 . S
C1543 C1544 1.383 . S
C1543 H1551 0.929 . S
C1544 C1543 1.383 . S
C1544 C1545 1.377 . S
C1545 H1529 0.930 . S
C1545 C1544 1.377 . S
C1545 C1546 1.379 . S
C1546 H1530 0.931 . S
C1546 C1540 1.383 . S
C1546 C1545 1.379 . S
H1547 C1541 0.959 . S
H1548 C1541 0.961 . S
H1549 C1541 0.960 . S
H1550 C1542 0.930 . S
H1551 C1543 0.929 . S
H1552 C1560 0.929 . S
H1553 C1562 0.930 . S
H1554 C1564 0.930 . S
H1555 C1567 0.929 . S
H1556 C1570 0.930 . S
H1557 C1572 0.960 . S
H1558 C1572 0.960 . S
H1559 C1572 0.960 . S
C1560 H1552 0.929 . S
C1560 C1561 1.377 . S
C1560 C1562 1.384 . S
C1561 C1560 1.377 . S
C1561 C1567 1.390 . S
C1562 H1553 0.930 . S
C1562 C1560 1.384 . S
C1562 C1563 1.372 . S
C1563 C1562 1.372 . S
C1563 C1564 1.400 . S
C1563 C1568 1.490 . S
C1564 H1554 0.930 . S
C1564 C1563 1.400 . S
C1564 C1567 1.386 . S
H1565 C1581 0.930 . S
H1566 C1582 0.931 . S
C1567 H1555 0.929 . S
C1567 C1561 1.390 . S
C1567 C1564 1.386 . S
C1568 C1563 1.490 . S
C1568 C1570 1.395 . S
C1568 C1571 1.403 . S
H1569 C1575 0.930 . S
C1570 H1556 0.930 . S
C1570 C1568 1.395 . S
C1570 C1573 1.403 . S
C1571 C1568 1.403 . S
C1571 C1572 1.524 . S
C1571 C1575 1.400 . S
C1572 H1557 0.960 . S
C1572 H1558 0.960 . S
C1572 H1559 0.960 . S
C1572 C1571 1.524 . S
C1573 C1570 1.403 . S
C1573 C1574 1.392 . S
C1573 C1577 1.495 . S
C1574 C1573 1.392 . S
C1574 C1575 1.385 . S
C1574 C1576 1.478 . S
C1575 H1569 0.930 . S
C1575 C1571 1.400 . S
C1575 C1574 1.385 . S
C1576 C1574 1.478 . S
C1576 C1578 1.381 . S
C1576 C1582 1.383 . S
C1577 C1573 1.495 . S
C1577 H1583 0.959 . S
C1577 H1584 0.961 . S
C1577 H1585 0.960 . S
C1578 C1576 1.381 . S
C1578 C1579 1.394 . S
C1578 H1586 0.930 . S
C1579 C1578 1.394 . S
C1579 C1580 1.383 . S
C1579 H1587 0.929 . S
C1580 C1579 1.383 . S
C1580 C1581 1.377 . S
C1581 H1565 0.930 . S
C1581 C1580 1.377 . S
C1581 C1582 1.379 . S
C1582 H1566 0.931 . S
C1582 C1576 1.383 . S
C1582 C1581 1.379 . S
H1583 C1577 0.959 . S
H1584 C1577 0.961 . S
H1585 C1577 0.960 . S
H1586 C1578 0.930 . S
H1587 C1579 0.929 . S
H1588 C1596 0.963 . S
H1589 C1598 0.930 . S
H1590 C1600 0.930 . S
H1591 C1603 0.929 . S
H1592 C1606 0.930 . S
H1593 C1608 0.960 . S
H1594 C1608 0.960 . S
H1595 C1608 0.960 . S
C1596 H1588 0.963 . S
C1596 C1597 1.377 . S
C1596 C1598 1.384 . S
C1597 C1596 1.377 . S
C1597 C1603 1.390 . S
C1598 H1589 0.930 . S
C1598 C1596 1.384 . S
C1598 C1599 1.372 . S
C1599 C1598 1.372 . S
C1599 C1600 1.400 . S
C1599 C1604 1.490 . S
C1600 H1590 0.930 . S
C1600 C1599 1.400 . S
C1600 C1603 1.386 . S
H1601 C1617 0.930 . S
H1602 C1618 0.931 . S
C1603 H1591 0.929 . S
C1603 C1597 1.390 . S
C1603 C1600 1.386 . S
C1604 C1599 1.490 . S
C1604 C1606 1.395 . S
C1604 C1607 1.403 . S
H1605 C1611 0.930 . S
C1606 H1592 0.930 . S
C1606 C1604 1.395 . S
C1606 C1609 1.403 . S
C1607 C1604 1.403 . S
C1607 C1608 1.524 . S
C1607 C1611 1.400 . S
C1608 H1593 0.960 . S
C1608 H1594 0.960 . S
C1608 H1595 0.960 . S
C1608 C1607 1.524 . S
C1609 C1606 1.403 . S
C1609 C1610 1.392 . S
C1609 C1613 1.495 . S
C1610 C1609 1.392 . S
C1610 C1611 1.385 . S
C1610 C1612 1.478 . S
C1611 H1605 0.930 . S
C1611 C1607 1.400 . S
C1611 C1610 1.385 . S
C1612 C1610 1.478 . S
C1612 C1614 1.381 . S
C1612 C1618 1.383 . S
C1613 C1609 1.495 . S
C1613 H1619 0.959 . S
C1613 H1620 0.961 . S
C1613 H1621 0.960 . S
C1614 C1612 1.381 . S
C1614 C1615 1.394 . S
C1614 H1622 0.930 . S
C1615 C1614 1.394 . S
C1615 C1616 1.383 . S
C1615 H1623 0.929 . S
C1616 C1615 1.383 . S
C1616 C1617 1.377 . S
C1617 H1601 0.930 . S
C1617 C1616 1.377 . S
C1617 C1618 1.379 . S
C1618 H1602 0.931 . S
C1618 C1612 1.383 . S
C1618 C1617 1.379 . S
H1619 C1613 0.959 . S
H1620 C1613 0.961 . S
H1621 C1613 0.960 . S
H1622 C1614 0.930 . S
H1623 C1615 0.929 . S
H1624 C1632 0.929 . S
H1625 C1634 0.930 . S
H1626 C1636 0.930 . S
H1627 C1639 0.929 . S
H1628 C1642 0.930 . S
H1629 C1644 0.960 . S
H1630 C1644 0.960 . S
H1631 C1644 0.960 . S
C1632 H1624 0.929 . S
C1632 C1633 1.377 . S
C1632 C1634 1.384 . S
C1633 C1632 1.377 . S
C1633 C1639 1.390 . S
C1634 H1625 0.930 . S
C1634 C1632 1.384 . S
C1634 C1635 1.372 . S
C1635 C1634 1.372 . S
C1635 C1636 1.400 . S
C1635 C1640 1.490 . S
C1636 H1626 0.930 . S
C1636 C1635 1.400 . S
C1636 C1639 1.386 . S
H1637 C1653 0.930 . S
H1638 C1654 0.931 . S
C1639 H1627 0.929 . S
C1639 C1633 1.390 . S
C1639 C1636 1.386 . S
C1640 C1635 1.490 . S
C1640 C1642 1.395 . S
C1640 C1643 1.403 . S
H1641 C1647 0.930 . S
C1642 H1628 0.930 . S
C1642 C1640 1.395 . S
C1642 C1645 1.403 . S
C1643 C1640 1.403 . S
C1643 C1644 1.524 . S
C1643 C1647 1.400 . S
C1644 H1629 0.960 . S
C1644 H1630 0.960 . S
C1644 H1631 0.960 . S
C1644 C1643 1.524 . S
C1645 C1642 1.403 . S
C1645 C1646 1.392 . S
C1645 C1649 1.495 . S
C1646 C1645 1.392 . S
C1646 C1647 1.385 . S
C1646 C1648 1.478 . S
C1647 H1641 0.930 . S
C1647 C1643 1.400 . S
C1647 C1646 1.385 . S
C1648 C1646 1.478 . S
C1648 C1650 1.381 . S
C1648 C1654 1.383 . S
C1649 C1645 1.495 . S
C1649 H1655 0.959 . S
C1649 H1656 0.961 . S
C1649 H1657 0.960 . S
C1650 C1648 1.381 . S
C1650 C1651 1.394 . S
C1650 H1658 0.930 . S
C1651 C1650 1.394 . S
C1651 C1652 1.383 . S
C1651 H1659 0.929 . S
C1652 C1651 1.383 . S
C1652 C1653 1.377 . S
C1653 H1637 0.930 . S
C1653 C1652 1.377 . S
C1653 C1654 1.379 . S
C1654 H1638 0.931 . S
C1654 C1648 1.383 . S
C1654 C1653 1.379 . S
H1655 C1649 0.959 . S
H1656 C1649 0.961 . S
H1657 C1649 0.960 . S
H1658 C1650 0.930 . S
H1659 C1651 0.929 . S
H1660 C1668 0.929 . S
H1661 C1670 0.930 . S
H1662 C1672 0.930 . S
H1663 C1675 0.929 . S
H1664 C1678 0.930 . S
H1665 C1680 0.960 1_554 S
H1666 C1680 0.960 . S
H1667 C1680 0.960 . S
C1668 H1660 0.929 . S
C1668 C1669 1.377 . S
C1668 C1670 1.384 . S
C1669 C1668 1.377 . S
C1669 C1675 1.390 . S
C1670 H1661 0.930 . S
C1670 C1668 1.384 . S
C1670 C1671 1.372 . S
C1671 C1670 1.372 . S
C1671 C1672 1.400 . S
C1671 C1676 1.490 . S
C1672 H1662 0.930 . S
C1672 C1671 1.400 . S
C1672 C1675 1.386 . S
H1673 C1689 0.930 . S
H1674 C1690 0.931 . S
C1675 H1663 0.929 . S
C1675 C1669 1.390 . S
C1675 C1672 1.386 . S
C1676 C1671 1.490 . S
C1676 C1678 1.395 . S
C1676 C1679 1.403 . S
H1677 C1683 0.930 . S
C1678 H1664 0.930 . S
C1678 C1676 1.395 . S
C1678 C1681 1.403 . S
C1679 C1676 1.403 . S
C1679 C1680 1.524 . S
C1679 C1683 1.400 1_556 S
C1680 H1665 0.960 1_556 S
C1680 H1666 0.960 . S
C1680 H1667 0.960 . S
C1680 C1679 1.524 . S
C1681 C1678 1.403 . S
C1681 C1682 1.392 1_556 S
C1681 C1685 1.495 . S
C1682 C1681 1.392 1_554 S
C1682 C1683 1.385 . S
C1682 C1684 1.478 . S
C1683 H1677 0.930 . S
C1683 C1679 1.400 1_554 S
C1683 C1682 1.385 . S
C1684 C1682 1.478 . S
C1684 C1686 1.381 . S
C1684 C1690 1.383 . S
C1685 C1681 1.495 . S
C1685 H1691 0.959 . S
C1685 H1692 0.961 . S
C1685 H1693 0.960 . S
C1686 C1684 1.381 . S
C1686 C1687 1.394 . S
C1686 H1694 0.930 . S
C1687 C1686 1.394 . S
C1687 C1688 1.383 . S
C1687 H1695 0.929 . S
C1688 C1687 1.383 . S
C1688 C1689 1.377 . S
C1689 H1673 0.930 . S
C1689 C1688 1.377 . S
C1689 C1690 1.379 . S
C1690 H1674 0.931 . S
C1690 C1684 1.383 . S
C1690 C1689 1.379 . S
H1691 C1685 0.959 . S
H1692 C1685 0.961 . S
H1693 C1685 0.960 . S
H1694 C1686 0.930 . S
H1695 C1687 0.929 . S
H1696 C1704 0.929 . S
H1697 C1706 0.930 . S
H1698 C1708 0.930 . S
H1699 C1711 0.929 . S
H1700 C1714 0.930 . S
H1701 C1716 0.960 . S
H1702 C1716 0.960 . S
H1703 C1716 0.960 . S
C1704 H1696 0.929 . S
C1704 C1705 1.377 . S
C1704 C1706 1.384 . S
C1705 C1704 1.377 . S
C1705 C1711 1.390 . S
C1706 H1697 0.930 . S
C1706 C1704 1.384 . S
C1706 C1707 1.372 . S
C1707 C1706 1.372 . S
C1707 C1708 1.400 . S
C1707 C1712 1.490 . S
C1708 H1698 0.930 . S
C1708 C1707 1.400 . S
C1708 C1711 1.386 . S
H1709 C1725 0.930 . S
H1710 C1726 0.931 . S
C1711 H1699 0.929 . S
C1711 C1705 1.390 . S
C1711 C1708 1.386 . S
C1712 C1707 1.490 . S
C1712 C1714 1.395 . S
C1712 C1715 1.403 . S
H1713 C1719 0.930 . S
C1714 H1700 0.930 . S
C1714 C1712 1.395 . S
C1714 C1717 1.403 . S
C1715 C1712 1.403 . S
C1715 C1716 1.524 . S
C1715 C1719 1.400 . S
C1716 H1701 0.960 . S
C1716 H1702 0.960 . S
C1716 H1703 0.960 . S
C1716 C1715 1.524 . S
C1717 C1714 1.403 . S
C1717 C1718 1.392 . S
C1717 C1721 1.495 . S
C1718 C1717 1.392 . S
C1718 C1719 1.385 . S
C1718 C1720 1.478 . S
C1719 H1713 0.930 . S
C1719 C1715 1.400 . S
C1719 C1718 1.385 . S
C1720 C1718 1.478 . S
C1720 C1722 1.381 . S
C1720 C1726 1.383 . S
C1721 C1717 1.495 . S
C1721 H1727 0.959 . S
C1721 H1728 0.961 . S
C1721 H1729 0.960 . S
C1722 C1720 1.381 . S
C1722 C1723 1.394 . S
C1722 H1730 0.930 . S
C1723 C1722 1.394 . S
C1723 C1724 1.383 . S
C1723 H1731 0.929 . S
C1724 C1723 1.383 . S
C1724 C1725 1.377 . S
C1725 H1709 0.930 . S
C1725 C1724 1.377 . S
C1725 C1726 1.379 . S
C1726 H1710 0.931 . S
C1726 C1720 1.383 . S
C1726 C1725 1.379 . S
H1727 C1721 0.959 . S
H1728 C1721 0.961 . S
H1729 C1721 0.960 . S
H1730 C1722 0.930 . S
H1731 C1723 0.929 . S
H1732 C1740 0.929 . S
H1733 C1742 0.930 . S
H1734 C1744 0.930 . S
H1735 C1747 0.929 . S
H1736 C1750 0.930 . S
H1737 C1752 0.960 . S
H1738 C1752 0.960 . S
H1739 C1752 0.960 . S
C1740 H1732 0.929 . S
C1740 C1741 1.377 . S
C1740 C1742 1.384 . S
C1741 C1740 1.377 . S
C1741 C1747 1.390 . S
C1742 H1733 0.930 . S
C1742 C1740 1.384 . S
C1742 C1743 1.372 . S
C1743 C1742 1.372 . S
C1743 C1744 1.400 . S
C1743 C1748 1.490 . S
C1744 H1734 0.930 . S
C1744 C1743 1.400 . S
C1744 C1747 1.386 . S
H1745 C1761 0.930 . S
H1746 C1762 0.931 . S
C1747 H1735 0.929 . S
C1747 C1741 1.390 . S
C1747 C1744 1.386 . S
C1748 C1743 1.490 . S
C1748 C1750 1.395 . S
C1748 C1751 1.403 . S
H1749 C1755 0.930 . S
C1750 H1736 0.930 . S
C1750 C1748 1.395 . S
C1750 C1753 1.403 . S
C1751 C1748 1.403 . S
C1751 C1752 1.524 . S
C1751 C1755 1.400 . S
C1752 H1737 0.960 . S
C1752 H1738 0.960 . S
C1752 H1739 0.960 . S
C1752 C1751 1.524 . S
C1753 C1750 1.403 . S
C1753 C1754 1.392 . S
C1753 C1757 1.495 . S
C1754 C1753 1.392 . S
C1754 C1755 1.385 . S
C1754 C1756 1.478 . S
C1755 H1749 0.930 . S
C1755 C1751 1.400 . S
C1755 C1754 1.385 . S
C1756 C1754 1.478 . S
C1756 C1758 1.381 . S
C1756 C1762 1.383 . S
C1757 C1753 1.495 . S
C1757 H1763 0.959 . S
C1757 H1764 0.961 . S
C1757 H1765 0.960 . S
C1758 C1756 1.381 . S
C1758 C1759 1.394 . S
C1758 H1766 0.930 . S
C1759 C1758 1.394 . S
C1759 C1760 1.383 . S
C1759 H1767 0.929 . S
C1760 C1759 1.383 . S
C1760 C1761 1.377 . S
C1761 H1745 0.930 . S
C1761 C1760 1.377 . S
C1761 C1762 1.379 . S
C1762 H1746 0.931 . S
C1762 C1756 1.383 . S
C1762 C1761 1.379 . S
H1763 C1757 0.959 . S
H1764 C1757 0.961 . S
H1765 C1757 0.960 . S
H1766 C1758 0.930 . S
H1767 C1759 0.929 . S
H1768 C1776 0.929 . S
H1769 C1778 0.930 . S
H1770 C1780 0.930 . S
H1771 C1783 0.929 . S
H1772 C1786 0.930 . S
H1773 C1788 0.960 . S
H1774 C1788 0.960 . S
H1775 C1788 0.960 . S
C1776 H1768 0.929 . S
C1776 C1777 1.377 . S
C1776 C1778 1.384 . S
C1777 C1776 1.377 . S
C1777 C1783 1.390 . S
C1778 H1769 0.930 . S
C1778 C1776 1.384 . S
C1778 C1779 1.372 . S
C1779 C1778 1.372 . S
C1779 C1780 1.400 . S
C1779 C1784 1.490 . S
C1780 H1770 0.930 . S
C1780 C1779 1.400 . S
C1780 C1783 1.386 . S
H1781 C1797 0.930 . S
H1782 C1798 0.931 . S
C1783 H1771 0.929 . S
C1783 C1777 1.390 . S
C1783 C1780 1.386 . S
C1784 C1779 1.490 . S
C1784 C1786 1.395 . S
C1784 C1787 1.403 . S
H1785 C1791 0.930 . S
C1786 H1772 0.930 . S
C1786 C1784 1.395 . S
C1786 C1789 1.403 . S
C1787 C1784 1.403 . S
C1787 C1788 1.524 . S
C1787 C1791 1.400 . S
C1788 H1773 0.960 . S
C1788 H1774 0.960 . S
C1788 H1775 0.960 . S
C1788 C1787 1.524 . S
C1789 C1786 1.403 . S
C1789 C1790 1.392 . S
C1789 C1793 1.495 . S
C1790 C1789 1.392 . S
C1790 C1791 1.385 . S
C1790 C1792 1.478 . S
C1791 H1785 0.930 . S
C1791 C1787 1.400 . S
C1791 C1790 1.385 . S
C1792 C1790 1.478 . S
C1792 C1794 1.381 . S
C1792 C1798 1.383 . S
C1793 C1789 1.495 . S
C1793 H1799 0.959 . S
C1793 H1800 0.961 . S
C1793 H1801 0.960 . S
C1794 C1792 1.381 . S
C1794 C1795 1.394 . S
C1794 H1802 0.930 . S
C1795 C1794 1.394 . S
C1795 C1796 1.383 . S
C1795 H1803 0.929 . S
C1796 C1795 1.383 . S
C1796 C1797 1.377 . S
C1797 H1781 0.930 . S
C1797 C1796 1.377 . S
C1797 C1798 1.379 . S
C1798 H1782 0.931 . S
C1798 C1792 1.383 . S
C1798 C1797 1.379 . S
H1799 C1793 0.959 . S
H1800 C1793 0.961 . S
H1801 C1793 0.960 . S
H1802 C1794 0.930 . S
H1803 C1795 0.929 . S
H1804 C1812 0.929 . S
H1805 C1814 0.930 . S
H1806 C1816 0.930 . S
H1807 C1819 0.929 . S
H1808 C1822 0.930 . S
H1809 C1824 0.960 . S
H1810 C1824 0.960 . S
H1811 C1824 0.960 . S
C1812 H1804 0.929 . S
C1812 C1813 1.377 . S
C1812 C1814 1.384 . S
C1813 C1812 1.377 . S
C1813 C1819 1.390 . S
C1814 H1805 0.930 . S
C1814 C1812 1.384 . S
C1814 C1815 1.372 . S
C1815 C1814 1.372 . S
C1815 C1816 1.400 . S
C1815 C1820 1.490 . S
C1816 H1806 0.930 . S
C1816 C1815 1.400 . S
C1816 C1819 1.386 . S
H1817 C1833 0.930 . S
H1818 C1834 0.931 . S
C1819 H1807 0.929 . S
C1819 C1813 1.390 . S
C1819 C1816 1.386 . S
C1820 C1815 1.490 . S
C1820 C1822 1.395 . S
C1820 C1823 1.403 . S
H1821 C1827 0.930 1_556 S
C1822 H1808 0.930 . S
C1822 C1820 1.395 . S
C1822 C1825 1.403 . S
C1823 C1820 1.403 . S
C1823 C1824 1.524 . S
C1823 C1827 1.400 . S
C1824 H1809 0.960 . S
C1824 H1810 0.960 . S
C1824 H1811 0.960 . S
C1824 C1823 1.524 . S
C1825 C1822 1.403 . S
C1825 C1826 1.392 1_554 S
C1825 C1829 1.495 . S
C1826 C1825 1.392 1_556 S
C1826 C1827 1.385 1_556 S
C1826 C1828 1.478 . S
C1827 H1821 0.930 1_554 S
C1827 C1823 1.400 . S
C1827 C1826 1.385 1_554 S
C1828 C1826 1.478 . S
C1828 C1830 1.381 . S
C1828 C1834 1.383 . S
C1829 C1825 1.495 . S
C1829 H1835 0.959 . S
C1829 H1836 0.961 . S
C1829 H1837 0.960 1_554 S
C1830 C1828 1.381 . S
C1830 C1831 1.394 . S
C1830 H1838 0.930 . S
C1831 C1830 1.394 . S
C1831 C1832 1.383 . S
C1831 H1839 0.929 . S
C1832 C1831 1.383 . S
C1832 C1833 1.377 . S
C1833 H1817 0.930 . S
C1833 C1832 1.377 . S
C1833 C1834 1.379 . S
C1834 H1818 0.931 . S
C1834 C1828 1.383 . S
C1834 C1833 1.379 . S
H1835 C1829 0.959 . S
H1836 C1829 0.961 . S
H1837 C1829 0.960 1_556 S
H1838 C1830 0.930 . S
H1839 C1831 0.929 . S
H1840 C1848 0.929 . S
H1841 C1850 0.930 . S
H1842 C1852 0.930 . S
H1843 C1855 0.929 . S
H1844 C1858 0.930 . S
H1845 C1860 0.960 . S
H1846 C1860 0.960 . S
H1847 C1860 0.960 . S
C1848 H1840 0.929 . S
C1848 C1849 1.377 . S
C1848 C1850 1.384 . S
C1849 C1848 1.377 . S
C1849 C1855 1.390 . S
C1850 H1841 0.930 . S
C1850 C1848 1.384 . S
C1850 C1851 1.372 . S
C1851 C1850 1.372 . S
C1851 C1852 1.400 . S
C1851 C1856 1.490 . S
C1852 H1842 0.930 . S
C1852 C1851 1.400 . S
C1852 C1855 1.386 . S
H1853 C1869 0.930 . S
H1854 C1870 0.931 . S
C1855 H1843 0.929 . S
C1855 C1849 1.390 . S
C1855 C1852 1.386 . S
C1856 C1851 1.490 . S
C1856 C1858 1.395 . S
C1856 C1859 1.403 . S
H1857 C1863 0.930 . S
C1858 H1844 0.930 . S
C1858 C1856 1.395 . S
C1858 C1861 1.403 . S
C1859 C1856 1.403 . S
C1859 C1860 1.524 . S
C1859 C1863 1.400 . S
C1860 H1845 0.960 . S
C1860 H1846 0.960 . S
C1860 H1847 0.960 . S
C1860 C1859 1.524 . S
C1861 C1858 1.403 . S
C1861 C1862 1.392 . S
C1861 C1865 1.495 . S
C1862 C1861 1.392 . S
C1862 C1863 1.385 . S
C1862 C1864 1.478 . S
C1863 H1857 0.930 . S
C1863 C1859 1.400 . S
C1863 C1862 1.385 . S
C1864 C1862 1.478 . S
C1864 C1866 1.381 . S
C1864 C1870 1.383 . S
C1865 C1861 1.495 . S
C1865 H1871 0.959 . S
C1865 H1872 0.961 . S
C1865 H1873 0.960 . S
C1866 C1864 1.381 . S
C1866 C1867 1.394 . S
C1866 H1874 0.930 . S
C1867 C1866 1.394 . S
C1867 C1868 1.383 . S
C1867 H1875 0.929 . S
C1868 C1867 1.383 . S
C1868 C1869 1.377 . S
C1869 H1853 0.930 . S
C1869 C1868 1.377 . S
C1869 C1870 1.379 . S
C1870 H1854 0.931 . S
C1870 C1864 1.383 . S
C1870 C1869 1.379 . S
H1871 C1865 0.959 . S
H1872 C1865 0.961 . S
H1873 C1865 0.960 . S
H1874 C1866 0.930 . S
H1875 C1867 0.929 . S
H1876 C1884 0.929 . S
H1877 C1886 0.930 . S
H1878 C1888 0.930 . S
H1879 C1891 0.929 . S
H1880 C1894 0.930 . S
H1881 C1896 0.960 1_545 S
H1882 C1896 0.960 . S
H1883 C1896 0.960 . S
C1884 H1876 0.929 . S
C1884 C1885 1.377 . S
C1884 C1886 1.384 . S
C1885 C1884 1.377 . S
C1885 C1891 1.390 . S
C1886 H1877 0.930 . S
C1886 C1884 1.384 . S
C1886 C1887 1.372 . S
C1887 C1886 1.372 . S
C1887 C1888 1.400 . S
C1887 C1892 1.490 . S
C1888 H1878 0.930 . S
C1888 C1887 1.400 . S
C1888 C1891 1.386 . S
H1889 C1905 0.930 . S
H1890 C1906 0.931 . S
C1891 H1879 0.929 . S
C1891 C1885 1.390 . S
C1891 C1888 1.386 . S
C1892 C1887 1.490 . S
C1892 C1894 1.395 . S
C1892 C1895 1.403 . S
H1893 C1899 0.930 . S
C1894 H1880 0.930 . S
C1894 C1892 1.395 . S
C1894 C1897 1.403 . S
C1895 C1892 1.403 . S
C1895 C1896 1.524 . S
C1895 C1899 1.400 1_565 S
C1896 H1881 0.960 1_565 S
C1896 H1882 0.960 . S
C1896 H1883 0.960 . S
C1896 C1895 1.524 . S
C1897 C1894 1.403 . S
C1897 C1898 1.392 1_565 S
C1897 C1901 1.495 . S
C1898 C1897 1.392 1_545 S
C1898 C1899 1.385 . S
C1898 C1900 1.478 . S
C1899 H1893 0.930 . S
C1899 C1895 1.400 1_545 S
C1899 C1898 1.385 . S
C1900 C1898 1.478 . S
C1900 C1902 1.381 . S
C1900 C1906 1.383 . S
C1901 C1897 1.495 . S
C1901 H1907 0.959 . S
C1901 H1908 0.961 . S
C1901 H1909 0.960 1_565 S
C1902 C1900 1.381 . S
C1902 C1903 1.394 . S
C1902 H1910 0.930 . S
C1903 C1902 1.394 . S
C1903 C1904 1.383 . S
C1903 H1911 0.929 . S
C1904 C1903 1.383 . S
C1904 C1905 1.377 . S
C1905 H1889 0.930 . S
C1905 C1904 1.377 . S
C1905 C1906 1.379 . S
C1906 H1890 0.931 . S
C1906 C1900 1.383 . S
C1906 C1905 1.379 . S
H1907 C1901 0.959 . S
H1908 C1901 0.961 . S
H1909 C1901 0.960 1_545 S
H1910 C1902 0.930 . S
H1911 C1903 0.929 . S
H1912 C1920 0.929 . S
H1913 C1922 0.930 . S
H1914 C1924 0.930 . S
H1915 C1927 0.929 . S
H1916 C1930 0.930 . S
H1917 C1932 0.960 . S
H1918 C1932 0.960 . S
H1919 C1932 0.960 . S
C1920 H1912 0.929 . S
C1920 C1921 1.377 . S
C1920 C1922 1.384 . S
C1921 C1920 1.377 . S
C1921 C1927 1.390 . S
C1922 H1913 0.930 . S
C1922 C1920 1.384 . S
C1922 C1923 1.372 . S
C1923 C1922 1.372 . S
C1923 C1924 1.400 . S
C1923 C1928 1.490 . S
C1924 H1914 0.930 . S
C1924 C1923 1.400 . S
C1924 C1927 1.386 . S
H1925 C1941 0.930 . S
H1926 C1942 0.931 . S
C1927 H1915 0.929 . S
C1927 C1921 1.390 . S
C1927 C1924 1.386 . S
C1928 C1923 1.490 . S
C1928 C1930 1.395 . S
C1928 C1931 1.403 . S
H1929 C1935 0.930 . S
C1930 H1916 0.930 . S
C1930 C1928 1.395 . S
C1930 C1933 1.403 . S
C1931 C1928 1.403 . S
C1931 C1932 1.524 . S
C1931 C1935 1.400 . S
C1932 H1917 0.960 . S
C1932 H1918 0.960 . S
C1932 H1919 0.960 . S
C1932 C1931 1.524 . S
C1933 C1930 1.403 . S
C1933 C1934 1.392 . S
C1933 C1937 1.495 . S
C1934 C1933 1.392 . S
C1934 C1935 1.385 . S
C1934 C1936 1.478 . S
C1935 H1929 0.930 . S
C1935 C1931 1.400 . S
C1935 C1934 1.385 . S
C1936 C1934 1.478 . S
C1936 C1938 1.381 . S
C1936 C1942 1.383 . S
C1937 C1933 1.495 . S
C1937 H1943 0.959 . S
C1937 H1944 0.961 . S
C1937 H1945 0.960 . S
C1938 C1936 1.381 . S
C1938 C1939 1.394 . S
C1938 H1946 0.930 . S
C1939 C1938 1.394 . S
C1939 C1940 1.383 . S
C1939 H1947 0.929 . S
C1940 C1939 1.383 . S
C1940 C1941 1.377 . S
C1941 H1925 0.930 . S
C1941 C1940 1.377 . S
C1941 C1942 1.379 . S
C1942 H1926 0.931 . S
C1942 C1936 1.383 . S
C1942 C1941 1.379 . S
H1943 C1937 0.959 . S
H1944 C1937 0.961 . S
H1945 C1937 0.960 . S
H1946 C1938 0.930 . S
H1947 C1939 0.929 . S
H1948 C1956 0.929 . S
H1949 C1958 0.930 . S
H1950 C1960 0.930 . S
H1951 C1963 0.929 . S
H1952 C1966 0.930 . S
H1953 C1968 0.960 . S
H1954 C1968 0.960 . S
H1955 C1968 0.960 . S
C1956 H1948 0.929 . S
C1956 C1957 1.377 . S
C1956 C1958 1.384 . S
C1957 C1956 1.377 . S
C1957 C1963 1.390 . S
C1958 H1949 0.930 . S
C1958 C1956 1.384 . S
C1958 C1959 1.372 . S
C1959 C1958 1.372 . S
C1959 C1960 1.400 . S
C1959 C1964 1.490 . S
C1960 H1950 0.930 . S
C1960 C1959 1.400 . S
C1960 C1963 1.386 . S
H1961 C1977 0.930 . S
H1962 C1978 0.931 . S
C1963 H1951 0.929 . S
C1963 C1957 1.390 . S
C1963 C1960 1.386 . S
C1964 C1959 1.490 . S
C1964 C1966 1.395 . S
C1964 C1967 1.403 . S
H1965 C1971 0.930 . S
C1966 H1952 0.930 . S
C1966 C1964 1.395 . S
C1966 C1969 1.403 1_545 S
C1967 C1964 1.403 . S
C1967 C1968 1.524 . S
C1967 C1971 1.400 . S
C1968 H1953 0.960 . S
C1968 H1954 0.960 . S
C1968 H1955 0.960 . S
C1968 C1967 1.524 . S
C1969 C1966 1.403 1_565 S
C1969 C1970 1.392 . S
C1969 C1973 1.495 . S
C1970 C1969 1.392 . S
C1970 C1971 1.385 1_565 S
C1970 C1972 1.478 . S
C1971 H1965 0.930 . S
C1971 C1967 1.400 . S
C1971 C1970 1.385 1_545 S
C1972 C1970 1.478 . S
C1972 C1974 1.381 . S
C1972 C1978 1.383 . S
C1973 C1969 1.495 . S
C1973 H1979 0.959 . S
C1973 H1980 0.961 . S
C1973 H1981 0.960 . S
C1974 C1972 1.381 . S
C1974 C1975 1.394 . S
C1974 H1982 0.930 . S
C1975 C1974 1.394 . S
C1975 C1976 1.383 . S
C1975 H1983 0.929 . S
C1976 C1975 1.383 . S
C1976 C1977 1.377 . S
C1977 H1961 0.930 . S
C1977 C1976 1.377 . S
C1977 C1978 1.379 . S
C1978 H1962 0.931 . S
C1978 C1972 1.383 . S
C1978 C1977 1.379 . S
H1979 C1973 0.959 . S
H1980 C1973 0.961 . S
H1981 C1973 0.960 . S
H1982 C1974 0.930 . S
H1983 C1975 0.929 . S
H1984 C1992 0.929 . S
H1985 C1994 0.930 . S
H1986 C1996 0.930 . S
H1987 C1999 0.929 . S
H1988 C2002 0.930 . S
H1989 C2004 0.960 . S
H1990 C2004 0.960 . S
H1991 C2004 0.960 . S
C1992 H1984 0.929 . S
C1992 C1993 1.377 . S
C1992 C1994 1.384 . S
C1993 C1992 1.377 . S
C1993 C1999 1.390 . S
C1994 H1985 0.930 . S
C1994 C1992 1.384 . S
C1994 C1995 1.372 . S
C1995 C1994 1.372 . S
C1995 C1996 1.400 . S
C1995 C2000 1.490 . S
C1996 H1986 0.930 . S
C1996 C1995 1.400 . S
C1996 C1999 1.386 . S
H1997 C2013 0.930 . S
H1998 C2014 0.931 . S
C1999 H1987 0.929 . S
C1999 C1993 1.390 . S
C1999 C1996 1.386 . S
C2000 C1995 1.490 . S
C2000 C2002 1.395 . S
C2000 C2003 1.403 . S
H2001 C2007 0.930 . S
C2002 H1988 0.930 . S
C2002 C2000 1.395 . S
C2002 C2005 1.403 . S
C2003 C2000 1.403 . S
C2003 C2004 1.524 . S
C2003 C2007 1.400 . S
C2004 H1989 0.960 . S
C2004 H1990 0.960 . S
C2004 H1991 0.960 . S
C2004 C2003 1.524 . S
C2005 C2002 1.403 . S
C2005 C2006 1.392 . S
C2005 C2009 1.495 . S
C2006 C2005 1.392 . S
C2006 C2007 1.385 . S
C2006 C2008 1.478 . S
C2007 H2001 0.930 . S
C2007 C2003 1.400 . S
C2007 C2006 1.385 . S
C2008 C2006 1.478 . S
C2008 C2010 1.381 . S
C2008 C2014 1.383 . S
C2009 C2005 1.495 . S
C2009 H2015 0.959 . S
C2009 H2016 0.961 . S
C2009 H2017 0.960 . S
C2010 C2008 1.381 . S
C2010 C2011 1.394 . S
C2010 H2018 0.930 . S
C2011 C2010 1.394 . S
C2011 C2012 1.383 . S
C2011 H2019 0.929 . S
C2012 C2011 1.383 . S
C2012 C2013 1.377 . S
C2013 H1997 0.930 . S
C2013 C2012 1.377 . S
C2013 C2014 1.379 . S
C2014 H1998 0.931 . S
C2014 C2008 1.383 . S
C2014 C2013 1.379 . S
H2015 C2009 0.959 . S
H2016 C2009 0.961 . S
H2017 C2009 0.960 . S
H2018 C2010 0.930 . S
H2019 C2011 0.929 . S
H2020 C2028 0.929 . S
H2021 C2030 0.930 . S
H2022 C2032 0.930 . S
H2023 C2035 0.929 . S
H2024 C2038 0.930 . S
H2025 C2040 0.960 1_545 S
H2026 C2040 0.960 . S
H2027 C2040 0.960 . S
C2028 H2020 0.929 . S
C2028 C2029 1.377 . S
C2028 C2030 1.384 . S
C2029 C2028 1.377 . S
C2029 C2035 1.390 . S
C2030 H2021 0.930 . S
C2030 C2028 1.384 . S
C2030 C2031 1.372 . S
C2031 C2030 1.372 . S
C2031 C2032 1.400 . S
C2031 C2036 1.490 . S
C2032 H2022 0.930 . S
C2032 C2031 1.400 . S
C2032 C2035 1.386 . S
H2033 C2049 0.930 . S
H2034 C2050 0.931 . S
C2035 H2023 0.929 . S
C2035 C2029 1.390 . S
C2035 C2032 1.386 . S
C2036 C2031 1.490 . S
C2036 C2038 1.395 . S
C2036 C2039 1.403 . S
H2037 C2043 0.930 . S
C2038 H2024 0.930 . S
C2038 C2036 1.395 . S
C2038 C2041 1.403 . S
C2039 C2036 1.403 . S
C2039 C2040 1.524 . S
C2039 C2043 1.400 1_565 S
C2040 H2025 0.960 1_565 S
C2040 H2026 0.960 . S
C2040 H2027 0.960 . S
C2040 C2039 1.524 . S
C2041 C2038 1.403 . S
C2041 C2042 1.392 1_565 S
C2041 C2045 1.495 . S
C2042 C2041 1.392 1_545 S
C2042 C2043 1.385 . S
C2042 C2044 1.478 . S
C2043 H2037 0.930 . S
C2043 C2039 1.400 1_545 S
C2043 C2042 1.385 . S
C2044 C2042 1.478 . S
C2044 C2046 1.381 . S
C2044 C2050 1.383 . S
C2045 C2041 1.495 . S
C2045 H2051 0.959 . S
C2045 H2052 0.961 . S
C2045 H2053 0.960 . S
C2046 C2044 1.381 . S
C2046 C2047 1.394 . S
C2046 H2054 0.930 . S
C2047 C2046 1.394 . S
C2047 C2048 1.383 . S
C2047 H2055 0.929 . S
C2048 C2047 1.383 . S
C2048 C2049 1.377 . S
C2049 H2033 0.930 . S
C2049 C2048 1.377 . S
C2049 C2050 1.379 . S
C2050 H2034 0.931 . S
C2050 C2044 1.383 . S
C2050 C2049 1.379 . S
H2051 C2045 0.959 . S
H2052 C2045 0.961 . S
H2053 C2045 0.960 . S
H2054 C2046 0.930 . S
H2055 C2047 0.929 . S
H2056 C2064 0.929 . S
H2057 C2066 0.930 . S
H2058 C2068 0.930 . S
H2059 C2071 0.929 . S
H2060 C2074 0.930 . S
H2061 C2076 0.960 . S
H2062 C2076 0.960 . S
H2063 C2076 0.960 . S
C2064 H2056 0.929 . S
C2064 C2065 1.377 . S
C2064 C2066 1.384 . S
C2065 C2064 1.377 . S
C2065 C2071 1.390 . S
C2066 H2057 0.930 . S
C2066 C2064 1.384 . S
C2066 C2067 1.372 . S
C2067 C2066 1.372 . S
C2067 C2068 1.400 . S
C2067 C2072 1.490 . S
C2068 H2058 0.930 . S
C2068 C2067 1.400 . S
C2068 C2071 1.386 . S
H2069 C2085 0.930 . S
H2070 C2086 0.931 . S
C2071 H2059 0.929 . S
C2071 C2065 1.390 . S
C2071 C2068 1.386 . S
C2072 C2067 1.490 . S
C2072 C2074 1.395 . S
C2072 C2075 1.403 . S
H2073 C2079 0.930 . S
C2074 H2060 0.930 . S
C2074 C2072 1.395 . S
C2074 C2077 1.403 . S
C2075 C2072 1.403 . S
C2075 C2076 1.524 . S
C2075 C2079 1.400 . S
C2076 H2061 0.960 . S
C2076 H2062 0.960 . S
C2076 H2063 0.960 . S
C2076 C2075 1.524 . S
C2077 C2074 1.403 . S
C2077 C2078 1.392 . S
C2077 C2081 1.495 . S
C2078 C2077 1.392 . S
C2078 C2079 1.385 . S
C2078 C2080 1.478 . S
C2079 H2073 0.930 . S
C2079 C2075 1.400 . S
C2079 C2078 1.385 . S
C2080 C2078 1.478 . S
C2080 C2082 1.381 . S
C2080 C2086 1.383 . S
C2081 C2077 1.495 . S
C2081 H2087 0.959 . S
C2081 H2088 0.961 . S
C2081 H2089 0.960 . S
C2082 C2080 1.381 . S
C2082 C2083 1.394 . S
C2082 H2090 0.930 . S
C2083 C2082 1.394 . S
C2083 C2084 1.383 . S
C2083 H2091 0.929 . S
C2084 C2083 1.383 . S
C2084 C2085 1.377 . S
C2085 H2069 0.930 . S
C2085 C2084 1.377 . S
C2085 C2086 1.379 . S
C2086 H2070 0.931 . S
C2086 C2080 1.383 . S
C2086 C2085 1.379 . S
H2087 C2081 0.959 . S
H2088 C2081 0.961 . S
H2089 C2081 0.960 . S
H2090 C2082 0.930 . S
H2091 C2083 0.929 . S
H2092 C2100 0.929 . S
H2093 C2102 0.930 . S
H2094 C2104 0.930 . S
H2095 C2107 0.929 . S
H2096 C2110 0.930 . S
H2097 C2112 0.960 . S
H2098 C2112 0.960 . S
H2099 C2112 0.960 . S
C2100 H2092 0.929 . S
C2100 C2101 1.377 . S
C2100 C2102 1.384 . S
C2101 C2100 1.377 . S
C2101 C2107 1.390 . S
C2102 H2093 0.930 . S
C2102 C2100 1.384 . S
C2102 C2103 1.372 . S
C2103 C2102 1.372 . S
C2103 C2104 1.400 . S
C2103 C2108 1.490 . S
C2104 H2094 0.930 . S
C2104 C2103 1.400 . S
C2104 C2107 1.386 . S
H2105 C2121 0.930 . S
H2106 C2122 0.931 . S
C2107 H2095 0.929 . S
C2107 C2101 1.390 . S
C2107 C2104 1.386 . S
C2108 C2103 1.490 . S
C2108 C2110 1.395 . S
C2108 C2111 1.403 . S
H2109 C2115 0.930 . S
C2110 H2096 0.930 . S
C2110 C2108 1.395 . S
C2110 C2113 1.403 . S
C2111 C2108 1.403 . S
C2111 C2112 1.524 . S
C2111 C2115 1.400 . S
C2112 H2097 0.960 . S
C2112 H2098 0.960 . S
C2112 H2099 0.960 . S
C2112 C2111 1.524 . S
C2113 C2110 1.403 . S
C2113 C2114 1.392 1_545 S
C2113 C2117 1.495 1_545 S
C2114 C2113 1.392 1_565 S
C2114 C2115 1.385 1_565 S
C2114 C2116 1.478 . S
C2115 H2109 0.930 . S
C2115 C2111 1.400 . S
C2115 C2114 1.385 1_545 S
C2116 C2114 1.478 . S
C2116 C2118 1.381 . S
C2116 C2122 1.383 . S
C2117 C2113 1.495 1_565 S
C2117 H2123 0.959 1_565 S
C2117 H2124 0.961 . S
C2117 H2125 0.960 . S
C2118 C2116 1.381 . S
C2118 C2119 1.394 . S
C2118 H2126 0.930 . S
C2119 C2118 1.394 . S
C2119 C2120 1.383 . S
C2119 H2127 0.929 . S
C2120 C2119 1.383 . S
C2120 C2121 1.377 . S
C2121 H2105 0.930 . S
C2121 C2120 1.377 . S
C2121 C2122 1.379 . S
C2122 H2106 0.931 . S
C2122 C2116 1.383 . S
C2122 C2121 1.379 . S
H2123 C2117 0.959 1_545 S
H2124 C2117 0.961 . S
H2125 C2117 0.960 . S
H2126 C2118 0.930 . S
H2127 C2119 0.929 . S
H2128 C2136 0.929 . S
H2129 C2138 0.930 . S
H2130 C2140 0.930 . S
H2131 C2143 0.929 . S
H2132 C2146 0.930 . S
H2133 C2148 0.960 . S
H2134 C2148 0.960 . S
H2135 C2148 0.960 . S
C2136 H2128 0.929 . S
C2136 C2137 1.377 . S
C2136 C2138 1.384 . S
C2137 C2136 1.377 . S
C2137 C2143 1.390 . S
C2138 H2129 0.930 . S
C2138 C2136 1.384 . S
C2138 C2139 1.372 . S
C2139 C2138 1.372 . S
C2139 C2140 1.400 . S
C2139 C2144 1.490 . S
C2140 H2130 0.930 . S
C2140 C2139 1.400 . S
C2140 C2143 1.386 . S
H2141 C2157 0.930 . S
H2142 C2158 0.931 . S
C2143 H2131 0.929 . S
C2143 C2137 1.390 . S
C2143 C2140 1.386 . S
C2144 C2139 1.490 . S
C2144 C2146 1.395 . S
C2144 C2147 1.403 . S
H2145 C2151 0.930 . S
C2146 H2132 0.930 . S
C2146 C2144 1.395 . S
C2146 C2149 1.403 . S
C2147 C2144 1.403 . S
C2147 C2148 1.524 . S
C2147 C2151 1.400 . S
C2148 H2133 0.960 . S
C2148 H2134 0.960 . S
C2148 H2135 0.960 . S
C2148 C2147 1.524 . S
C2149 C2146 1.403 . S
C2149 C2150 1.392 . S
C2149 C2153 1.495 . S
C2150 C2149 1.392 . S
C2150 C2151 1.385 . S
C2150 C2152 1.478 . S
C2151 H2145 0.930 . S
C2151 C2147 1.400 . S
C2151 C2150 1.385 . S
C2152 C2150 1.478 . S
C2152 C2154 1.381 . S
C2152 C2158 1.383 . S
C2153 C2149 1.495 . S
C2153 H2159 0.959 . S
C2153 H2160 0.961 . S
C2153 H2161 0.960 . S
C2154 C2152 1.381 . S
C2154 C2155 1.394 . S
C2154 H2162 0.930 . S
C2155 C2154 1.394 . S
C2155 C2156 1.383 . S
C2155 H2163 0.929 . S
C2156 C2155 1.383 . S
C2156 C2157 1.377 . S
C2157 H2141 0.930 . S
C2157 C2156 1.377 . S
C2157 C2158 1.379 . S
C2158 H2142 0.931 . S
C2158 C2152 1.383 . S
C2158 C2157 1.379 . S
H2159 C2153 0.959 . S
H2160 C2153 0.961 . S
H2161 C2153 0.960 . S
H2162 C2154 0.930 . S
H2163 C2155 0.929 . S
H2164 C2172 0.929 . S
H2165 C2174 0.930 . S
H2166 C2176 0.930 . S
H2167 C2179 0.929 . S
H2168 C2182 0.930 . S
H2169 C2184 0.960 . S
H2170 C2184 0.960 . S
H2171 C2184 0.960 . S
C2172 H2164 0.929 . S
C2172 C2173 1.377 . S
C2172 C2174 1.384 . S
C2173 C2172 1.377 . S
C2173 C2179 1.390 . S
C2174 H2165 0.930 . S
C2174 C2172 1.384 . S
C2174 C2175 1.372 . S
C2175 C2174 1.372 . S
C2175 C2176 1.400 . S
C2175 C2180 1.490 . S
C2176 H2166 0.930 . S
C2176 C2175 1.400 . S
C2176 C2179 1.386 . S
H2177 C2193 0.930 . S
H2178 C2194 0.931 . S
C2179 H2167 0.929 . S
C2179 C2173 1.390 . S
C2179 C2176 1.386 . S
C2180 C2175 1.490 . S
C2180 C2182 1.395 . S
C2180 C2183 1.403 . S
H2181 C2187 0.930 . S
C2182 H2168 0.930 . S
C2182 C2180 1.395 . S
C2182 C2185 1.403 . S
C2183 C2180 1.403 . S
C2183 C2184 1.524 . S
C2183 C2187 1.400 . S
C2184 H2169 0.960 . S
C2184 H2170 0.960 . S
C2184 H2171 0.960 . S
C2184 C2183 1.524 . S
C2185 C2182 1.403 . S
C2185 C2186 1.392 . S
C2185 C2189 1.495 . S
C2186 C2185 1.392 . S
C2186 C2187 1.385 . S
C2186 C2188 1.478 . S
C2187 H2181 0.930 . S
C2187 C2183 1.400 . S
C2187 C2186 1.385 . S
C2188 C2186 1.478 . S
C2188 C2190 1.381 . S
C2188 C2194 1.383 . S
C2189 C2185 1.495 . S
C2189 H2195 0.959 . S
C2189 H2196 0.961 . S
C2189 H2197 0.960 . S
C2190 C2188 1.381 . S
C2190 C2191 1.394 . S
C2190 H2198 0.930 . S
C2191 C2190 1.394 . S
C2191 C2192 1.383 . S
C2191 H2199 0.929 . S
C2192 C2191 1.383 . S
C2192 C2193 1.377 . S
C2193 H2177 0.930 . S
C2193 C2192 1.377 . S
C2193 C2194 1.379 . S
C2194 H2178 0.931 . S
C2194 C2188 1.383 . S
C2194 C2193 1.379 . S
H2195 C2189 0.959 . S
H2196 C2189 0.961 . S
H2197 C2189 0.960 . S
H2198 C2190 0.930 . S
H2199 C2191 0.929 . S
H2200 C2208 0.929 . S
H2201 C2210 0.930 . S
H2202 C2212 0.930 . S
H2203 C2215 0.929 . S
H2204 C2218 0.930 . S
H2205 C2220 0.960 . S
H2206 C2220 0.960 . S
H2207 C2220 0.960 . S
C2208 H2200 0.929 . S
C2208 C2209 1.377 . S
C2208 C2210 1.384 . S
C2209 C2208 1.377 . S
C2209 C2215 1.390 . S
C2210 H2201 0.930 . S
C2210 C2208 1.384 . S
C2210 C2211 1.372 . S
C2211 C2210 1.372 . S
C2211 C2212 1.400 . S
C2211 C2216 1.490 . S
C2212 H2202 0.930 . S
C2212 C2211 1.400 . S
C2212 C2215 1.386 . S
H2213 C2229 0.930 . S
H2214 C2230 0.931 . S
C2215 H2203 0.929 . S
C2215 C2209 1.390 . S
C2215 C2212 1.386 . S
C2216 C2211 1.490 . S
C2216 C2218 1.395 . S
C2216 C2219 1.403 . S
H2217 C2223 0.930 . S
C2218 H2204 0.930 . S
C2218 C2216 1.395 . S
C2218 C2221 1.403 . S
C2219 C2216 1.403 . S
C2219 C2220 1.524 . S
C2219 C2223 1.400 1_655 S
C2220 H2205 0.960 . S
C2220 H2206 0.960 . S
C2220 H2207 0.960 . S
C2220 C2219 1.524 . S
C2221 C2218 1.403 . S
C2221 C2222 1.392 1_655 S
C2221 C2225 1.495 . S
C2222 C2221 1.392 1_455 S
C2222 C2223 1.385 . S
C2222 C2224 1.478 . S
C2223 H2217 0.930 . S
C2223 C2219 1.400 1_455 S
C2223 C2222 1.385 . S
C2224 C2222 1.478 . S
C2224 C2226 1.381 . S
C2224 C2230 1.383 . S
C2225 C2221 1.495 . S
C2225 H2231 0.959 . S
C2225 H2232 0.961 1_655 S
C2225 H2233 0.960 . S
C2226 C2224 1.381 . S
C2226 C2227 1.394 . S
C2226 H2234 0.930 . S
C2227 C2226 1.394 . S
C2227 C2228 1.383 . S
C2227 H2235 0.929 . S
C2228 C2227 1.383 . S
C2228 C2229 1.377 . S
C2229 H2213 0.930 . S
C2229 C2228 1.377 . S
C2229 C2230 1.379 . S
C2230 H2214 0.931 . S
C2230 C2224 1.383 . S
C2230 C2229 1.379 . S
H2231 C2225 0.959 . S
H2232 C2225 0.961 1_455 S
H2233 C2225 0.960 . S
H2234 C2226 0.930 . S
H2235 C2227 0.929 . S
H2236 C2244 0.929 . S
H2237 C2246 0.930 . S
H2238 C2248 0.930 . S
H2239 C2251 0.929 . S
H2240 C2254 0.930 . S
H2241 C2256 0.960 . S
H2242 C2256 0.960 . S
H2243 C2256 0.960 . S
C2244 H2236 0.929 . S
C2244 C2245 1.377 . S
C2244 C2246 1.384 . S
C2245 C2244 1.377 . S
C2245 C2251 1.390 . S
C2246 H2237 0.930 . S
C2246 C2244 1.384 . S
C2246 C2247 1.372 . S
C2247 C2246 1.372 . S
C2247 C2248 1.400 . S
C2247 C2252 1.490 . S
C2248 H2238 0.930 . S
C2248 C2247 1.400 . S
C2248 C2251 1.386 . S
H2249 C2265 0.930 . S
H2250 C2266 0.931 . S
C2251 H2239 0.929 . S
C2251 C2245 1.390 . S
C2251 C2248 1.386 . S
C2252 C2247 1.490 . S
C2252 C2254 1.395 . S
C2252 C2255 1.403 . S
H2253 C2259 0.930 . S
C2254 H2240 0.930 . S
C2254 C2252 1.395 . S
C2254 C2257 1.403 . S
C2255 C2252 1.403 . S
C2255 C2256 1.524 . S
C2255 C2259 1.400 . S
C2256 H2241 0.960 . S
C2256 H2242 0.960 . S
C2256 H2243 0.960 . S
C2256 C2255 1.524 . S
C2257 C2254 1.403 . S
C2257 C2258 1.392 . S
C2257 C2261 1.495 . S
C2258 C2257 1.392 . S
C2258 C2259 1.385 . S
C2258 C2260 1.478 . S
C2259 H2253 0.930 . S
C2259 C2255 1.400 . S
C2259 C2258 1.385 . S
C2260 C2258 1.478 . S
C2260 C2262 1.381 . S
C2260 C2266 1.383 . S
C2261 C2257 1.495 . S
C2261 H2267 0.959 . S
C2261 H2268 0.961 . S
C2261 H2269 0.960 . S
C2262 C2260 1.381 . S
C2262 C2263 1.394 . S
C2262 H2270 0.930 . S
C2263 C2262 1.394 . S
C2263 C2264 1.383 . S
C2263 H2271 0.929 . S
C2264 C2263 1.383 . S
C2264 C2265 1.377 . S
C2265 H2249 0.930 . S
C2265 C2264 1.377 . S
C2265 C2266 1.379 . S
C2266 H2250 0.931 . S
C2266 C2260 1.383 . S
C2266 C2265 1.379 . S
H2267 C2261 0.959 . S
H2268 C2261 0.961 . S
H2269 C2261 0.960 . S
H2270 C2262 0.930 . S
H2271 C2263 0.929 . S
H2272 C2280 0.929 . S
H2273 C2282 0.930 . S
H2274 C2284 0.930 . S
H2275 C2287 0.929 . S
H2276 C2290 0.930 . S
H2277 C2292 0.960 . S
H2278 C2292 0.960 . S
H2279 C2292 0.960 . S
C2280 H2272 0.929 . S
C2280 C2281 1.377 . S
C2280 C2282 1.384 . S
C2281 C2280 1.377 . S
C2281 C2287 1.390 . S
C2282 H2273 0.930 . S
C2282 C2280 1.384 . S
C2282 C2283 1.372 . S
C2283 C2282 1.372 . S
C2283 C2284 1.400 . S
C2283 C2288 1.490 . S
C2284 H2274 0.930 . S
C2284 C2283 1.400 . S
C2284 C2287 1.386 . S
H2285 C2301 0.930 . S
H2286 C2302 0.931 . S
C2287 H2275 0.929 . S
C2287 C2281 1.390 . S
C2287 C2284 1.386 . S
C2288 C2283 1.490 . S
C2288 C2290 1.395 . S
C2288 C2291 1.403 . S
H2289 C2295 0.930 . S
C2290 H2276 0.930 . S
C2290 C2288 1.395 . S
C2290 C2293 1.403 1_455 S
C2291 C2288 1.403 . S
C2291 C2292 1.524 . S
C2291 C2295 1.400 . S
C2292 H2277 0.960 . S
C2292 H2278 0.960 . S
C2292 H2279 0.960 . S
C2292 C2291 1.524 . S
C2293 C2290 1.403 1_655 S
C2293 C2294 1.392 . S
C2293 C2297 1.495 . S
C2294 C2293 1.392 . S
C2294 C2295 1.385 1_655 S
C2294 C2296 1.478 . S
C2295 H2289 0.930 . S
C2295 C2291 1.400 . S
C2295 C2294 1.385 1_455 S
C2296 C2294 1.478 . S
C2296 C2298 1.381 . S
C2296 C2302 1.383 . S
C2297 C2293 1.495 . S
C2297 H2303 0.959 . S
C2297 H2304 0.961 . S
C2297 H2305 0.960 . S
C2298 C2296 1.381 . S
C2298 C2299 1.394 . S
C2298 H2306 0.930 . S
C2299 C2298 1.394 . S
C2299 C2300 1.383 . S
C2299 H2307 0.929 . S
C2300 C2299 1.383 . S
C2300 C2301 1.377 . S
C2301 H2285 0.930 . S
C2301 C2300 1.377 . S
C2301 C2302 1.379 . S
C2302 H2286 0.931 . S
C2302 C2296 1.383 . S
C2302 C2301 1.379 . S
H2303 C2297 0.959 . S
H2304 C2297 0.961 . S
H2305 C2297 0.960 . S
H2306 C2298 0.930 . S
H2307 C2299 0.929 . S
H2308 C2316 0.929 . S
H2309 C2318 0.930 . S
H2310 C2320 0.930 . S
H2311 C2323 0.929 . S
H2312 C2326 0.930 . S
H2313 C2328 0.960 . S
H2314 C2328 0.960 . S
H2315 C2328 0.960 . S
C2316 H2308 0.929 . S
C2316 C2317 1.377 . S
C2316 C2318 1.384 . S
C2317 C2316 1.377 . S
C2317 C2323 1.390 . S
C2318 H2309 0.930 . S
C2318 C2316 1.384 . S
C2318 C2319 1.372 . S
C2319 C2318 1.372 . S
C2319 C2320 1.400 . S
C2319 C2324 1.490 . S
C2320 H2310 0.930 . S
C2320 C2319 1.400 . S
C2320 C2323 1.386 . S
H2321 C2337 0.930 . S
H2322 C2338 0.931 . S
C2323 H2311 0.929 . S
C2323 C2317 1.390 . S
C2323 C2320 1.386 . S
C2324 C2319 1.490 . S
C2324 C2326 1.395 . S
C2324 C2327 1.403 . S
H2325 C2331 0.930 . S
C2326 H2312 0.930 . S
C2326 C2324 1.395 . S
C2326 C2329 1.403 . S
C2327 C2324 1.403 . S
C2327 C2328 1.524 . S
C2327 C2331 1.400 . S
C2328 H2313 0.960 . S
C2328 H2314 0.960 . S
C2328 H2315 0.960 . S
C2328 C2327 1.524 . S
C2329 C2326 1.403 . S
C2329 C2330 1.392 . S
C2329 C2333 1.495 . S
C2330 C2329 1.392 . S
C2330 C2331 1.385 . S
C2330 C2332 1.478 . S
C2331 H2325 0.930 . S
C2331 C2327 1.400 . S
C2331 C2330 1.385 . S
C2332 C2330 1.478 . S
C2332 C2334 1.381 . S
C2332 C2338 1.383 . S
C2333 C2329 1.495 . S
C2333 H2339 0.959 . S
C2333 H2340 0.961 . S
C2333 H2341 0.960 . S
C2334 C2332 1.381 . S
C2334 C2335 1.394 . S
C2334 H2342 0.930 . S
C2335 C2334 1.394 . S
C2335 C2336 1.383 . S
C2335 H2343 0.929 . S
C2336 C2335 1.383 . S
C2336 C2337 1.377 . S
C2337 H2321 0.930 . S
C2337 C2336 1.377 . S
C2337 C2338 1.379 . S
C2338 H2322 0.931 . S
C2338 C2332 1.383 . S
C2338 C2337 1.379 . S
H2339 C2333 0.959 . S
H2340 C2333 0.961 . S
H2341 C2333 0.960 . S
H2342 C2334 0.930 . S
H2343 C2335 0.929 . S
H2344 C2352 0.929 . S
H2345 C2354 0.930 . S
H2346 C2356 0.930 . S
H2347 C2359 0.929 . S
H2348 C2362 0.930 . S
H2349 C2364 0.960 . S
H2350 C2364 0.960 . S
H2351 C2364 0.960 . S
C2352 H2344 0.929 . S
C2352 C2353 1.377 . S
C2352 C2354 1.384 . S
C2353 C2352 1.377 . S
C2353 C2359 1.390 . S
C2354 H2345 0.930 . S
C2354 C2352 1.384 . S
C2354 C2355 1.372 . S
C2355 C2354 1.372 . S
C2355 C2356 1.400 . S
C2355 C2360 1.490 . S
C2356 H2346 0.930 . S
C2356 C2355 1.400 . S
C2356 C2359 1.386 . S
H2357 C2373 0.930 . S
H2358 C2374 0.931 . S
C2359 H2347 0.929 . S
C2359 C2353 1.390 . S
C2359 C2356 1.386 . S
C2360 C2355 1.490 . S
C2360 C2362 1.395 . S
C2360 C2363 1.403 . S
H2361 C2367 0.965 . S
C2362 H2348 0.930 . S
C2362 C2360 1.395 . S
C2362 C2365 1.403 . S
C2363 C2360 1.403 . S
C2363 C2364 1.524 . S
C2363 C2367 1.362 1_655 S
C2364 H2349 0.960 . S
C2364 H2350 0.960 . S
C2364 H2351 0.960 . S
C2364 C2363 1.524 . S
C2365 C2362 1.403 . S
C2365 C2366 1.392 1_655 S
C2365 C2369 1.495 . S
C2366 C2365 1.392 1_455 S
C2366 C2367 1.392 . S
C2366 C2368 1.478 . S
C2367 H2361 0.965 . S
C2367 C2363 1.362 1_455 S
C2367 C2366 1.392 . S
C2368 C2366 1.478 . S
C2368 C2370 1.381 . S
C2368 C2374 1.383 . S
C2369 C2365 1.495 . S
C2369 H2375 0.959 . S
C2369 H2376 0.961 . S
C2369 H2377 0.960 1_655 S
C2370 C2368 1.381 . S
C2370 C2371 1.394 . S
C2370 H2378 0.930 . S
C2371 C2370 1.394 . S
C2371 C2372 1.383 . S
C2371 H2379 0.929 . S
C2372 C2371 1.383 . S
C2372 C2373 1.377 . S
C2373 H2357 0.930 . S
C2373 C2372 1.377 . S
C2373 C2374 1.379 . S
C2374 H2358 0.931 . S
C2374 C2368 1.383 . S
C2374 C2373 1.379 . S
H2375 C2369 0.959 . S
H2376 C2369 0.961 . S
H2377 C2369 0.960 1_455 S
H2378 C2370 0.930 . S
H2379 C2371 0.929 . S
H2380 C2388 0.929 . S
H2381 C2390 0.930 . S
H2382 C2392 0.930 . S
H2383 C2395 0.929 . S
H2384 C2398 0.930 . S
H2385 C2400 0.960 . S
H2386 C2400 0.960 . S
H2387 C2400 0.960 . S
C2388 H2380 0.929 . S
C2388 C2389 1.377 . S
C2388 C2390 1.384 . S
C2389 C2388 1.377 . S
C2389 C2395 1.390 . S
C2390 H2381 0.930 . S
C2390 C2388 1.384 . S
C2390 C2391 1.372 . S
C2391 C2390 1.372 . S
C2391 C2392 1.400 . S
C2391 C2396 1.490 . S
C2392 H2382 0.930 . S
C2392 C2391 1.400 . S
C2392 C2395 1.386 . S
H2393 C2409 0.930 . S
H2394 C2410 0.931 . S
C2395 H2383 0.929 . S
C2395 C2389 1.390 . S
C2395 C2392 1.386 . S
C2396 C2391 1.490 . S
C2396 C2398 1.395 . S
C2396 C2399 1.403 . S
H2397 C2403 0.930 . S
C2398 H2384 0.930 . S
C2398 C2396 1.395 . S
C2398 C2401 1.403 . S
C2399 C2396 1.403 . S
C2399 C2400 1.524 . S
C2399 C2403 1.400 . S
C2400 H2385 0.960 . S
C2400 H2386 0.960 . S
C2400 H2387 0.960 . S
C2400 C2399 1.524 . S
C2401 C2398 1.403 . S
C2401 C2402 1.392 . S
C2401 C2405 1.495 . S
C2402 C2401 1.392 . S
C2402 C2403 1.385 . S
C2402 C2404 1.478 . S
C2403 H2397 0.930 . S
C2403 C2399 1.400 . S
C2403 C2402 1.385 . S
C2404 C2402 1.478 . S
C2404 C2406 1.381 . S
C2404 C2410 1.383 . S
C2405 C2401 1.495 . S
C2405 H2411 0.959 . S
C2405 H2412 0.961 . S
C2405 H2413 0.960 . S
C2406 C2404 1.381 . S
C2406 C2407 1.394 . S
C2406 H2414 0.930 . S
C2407 C2406 1.394 . S
C2407 C2408 1.383 . S
C2407 H2415 0.929 . S
C2408 C2407 1.383 . S
C2408 C2409 1.377 . S
C2409 H2393 0.930 . S
C2409 C2408 1.377 . S
C2409 C2410 1.379 . S
C2410 H2394 0.931 . S
C2410 C2404 1.383 . S
C2410 C2409 1.379 . S
H2411 C2405 0.959 . S
H2412 C2405 0.961 . S
H2413 C2405 0.960 . S
H2414 C2406 0.930 . S
H2415 C2407 0.929 . S
H2416 C2424 0.929 . S
H2417 C2426 0.930 . S
H2418 C2428 0.930 . S
H2419 C2431 0.929 . S
H2420 C2434 0.930 . S
H2421 C2436 0.960 . S
H2422 C2436 0.960 . S
H2423 C2436 0.960 . S
C2424 H2416 0.929 . S
C2424 C2425 1.377 . S
C2424 C2426 1.384 . S
C2425 C2424 1.377 . S
C2425 C2431 1.390 . S
C2426 H2417 0.930 . S
C2426 C2424 1.384 . S
C2426 C2427 1.372 . S
C2427 C2426 1.372 . S
C2427 C2428 1.400 . S
C2427 C2432 1.490 . S
C2428 H2418 0.930 . S
C2428 C2427 1.400 . S
C2428 C2431 1.386 . S
H2429 C2445 0.930 . S
H2430 C2446 0.931 . S
C2431 H2419 0.929 . S
C2431 C2425 1.390 . S
C2431 C2428 1.386 . S
C2432 C2427 1.490 . S
C2432 C2434 1.395 . S
C2432 C2435 1.403 . S
H2433 C2439 0.930 . S
C2434 H2420 0.930 . S
C2434 C2432 1.395 . S
C2434 C2437 1.403 . S
C2435 C2432 1.403 . S
C2435 C2436 1.524 . S
C2435 C2439 1.400 . S
C2436 H2421 0.960 . S
C2436 H2422 0.960 . S
C2436 H2423 0.960 . S
C2436 C2435 1.524 . S
C2437 C2434 1.403 . S
C2437 C2438 1.392 . S
C2437 C2441 1.495 . S
C2438 C2437 1.392 . S
C2438 C2439 1.385 . S
C2438 C2440 1.478 . S
C2439 H2433 0.930 . S
C2439 C2435 1.400 . S
C2439 C2438 1.385 . S
C2440 C2438 1.478 . S
C2440 C2442 1.381 . S
C2440 C2446 1.383 . S
C2441 C2437 1.495 . S
C2441 H2447 0.959 . S
C2441 H2448 0.961 . S
C2441 H2449 0.960 . S
C2442 C2440 1.381 . S
C2442 C2443 1.394 . S
C2442 H2450 0.930 . S
C2443 C2442 1.394 . S
C2443 C2444 1.383 . S
C2443 H2451 0.929 . S
C2444 C2443 1.383 . S
C2444 C2445 1.377 . S
C2445 H2429 0.930 . S
C2445 C2444 1.377 . S
C2445 C2446 1.379 . S
C2446 H2430 0.931 . S
C2446 C2440 1.383 . S
C2446 C2445 1.379 . S
H2447 C2441 0.959 . S
H2448 C2441 0.961 . S
H2449 C2441 0.960 . S
H2450 C2442 0.930 . S
H2451 C2443 0.929 . S
H2452 C2460 0.929 . S
H2453 C2462 0.930 . S
H2454 C2464 0.930 . S
H2455 C2467 0.929 . S
H2456 C2470 0.930 . S
H2457 C2472 0.960 . S
H2458 C2472 0.960 . S
H2459 C2472 0.960 . S
C2460 H2452 0.929 . S
C2460 C2461 1.377 . S
C2460 C2462 1.384 . S
C2461 C2460 1.377 . S
C2461 C2467 1.390 . S
C2462 H2453 0.930 . S
C2462 C2460 1.384 . S
C2462 C2463 1.372 . S
C2463 C2462 1.372 . S
C2463 C2464 1.400 . S
C2463 C2468 1.490 . S
C2464 H2454 0.930 . S
C2464 C2463 1.400 . S
C2464 C2467 1.386 . S
H2465 C2481 0.930 . S
H2466 C2482 0.931 . S
C2467 H2455 0.929 . S
C2467 C2461 1.390 . S
C2467 C2464 1.386 . S
C2468 C2463 1.490 . S
C2468 C2470 1.395 . S
C2468 C2471 1.403 . S
H2469 C2475 0.930 . S
C2470 H2456 0.930 . S
C2470 C2468 1.395 . S
C2470 C2473 1.403 . S
C2471 C2468 1.403 . S
C2471 C2472 1.524 . S
C2471 C2475 1.400 . S
C2472 H2457 0.960 . S
C2472 H2458 0.960 . S
C2472 H2459 0.960 . S
C2472 C2471 1.524 . S
C2473 C2470 1.403 . S
C2473 C2474 1.381 1_554 S
C2473 C2477 1.495 1_554 S
C2474 C2473 1.381 1_556 S
C2474 C2475 1.359 1_556 S
C2474 C2476 1.515 . S
C2475 H2469 0.930 . S
C2475 C2471 1.400 . S
C2475 C2474 1.359 1_554 S
C2476 C2474 1.515 . S
C2476 C2478 1.381 . S
C2476 C2482 1.383 . S
C2477 C2473 1.495 1_556 S
C2477 H2483 0.959 . S
C2477 H2484 0.961 . S
C2477 H2485 0.960 . S
C2478 C2476 1.381 . S
C2478 C2479 1.394 . S
C2478 H2486 0.930 . S
C2479 C2478 1.394 . S
C2479 C2480 1.383 . S
C2479 H2487 0.929 . S
C2480 C2479 1.383 . S
C2480 C2481 1.377 . S
C2481 H2465 0.930 . S
C2481 C2480 1.377 . S
C2481 C2482 1.379 . S
C2482 H2466 0.931 . S
C2482 C2476 1.383 . S
C2482 C2481 1.379 . S
H2483 C2477 0.959 . S
H2484 C2477 0.961 . S
H2485 C2477 0.960 . S
H2486 C2478 0.930 . S
H2487 C2479 0.929 . S
H2488 C2496 0.929 . S
H2489 C2498 0.930 . S
H2490 C2500 0.930 . S
H2491 C2503 0.929 . S
H2492 C2506 0.930 . S
H2493 C2508 0.960 . S
H2494 C2508 0.960 . S
H2495 C2508 0.960 . S
C2496 H2488 0.929 . S
C2496 C2497 1.377 . S
C2496 C2498 1.384 . S
C2497 C2496 1.377 . S
C2497 C2503 1.390 . S
C2498 H2489 0.930 . S
C2498 C2496 1.384 . S
C2498 C2499 1.372 . S
C2499 C2498 1.372 . S
C2499 C2500 1.400 . S
C2499 C2504 1.490 . S
C2500 H2490 0.930 . S
C2500 C2499 1.400 . S
C2500 C2503 1.386 . S
H2501 C2517 0.930 . S
H2502 C2518 0.931 . S
C2503 H2491 0.929 . S
C2503 C2497 1.390 . S
C2503 C2500 1.386 . S
C2504 C2499 1.490 . S
C2504 C2506 1.395 . S
C2504 C2507 1.403 . S
H2505 C2511 0.930 . S
C2506 H2492 0.930 . S
C2506 C2504 1.395 . S
C2506 C2509 1.403 . S
C2507 C2504 1.403 . S
C2507 C2508 1.524 . S
C2507 C2511 1.400 . S
C2508 H2493 0.960 . S
C2508 H2494 0.960 . S
C2508 H2495 0.960 . S
C2508 C2507 1.524 . S
C2509 C2506 1.403 . S
C2509 C2510 1.392 . S
C2509 C2513 1.495 . S
C2510 C2509 1.392 . S
C2510 C2511 1.385 . S
C2510 C2512 1.478 . S
C2511 H2505 0.930 . S
C2511 C2507 1.400 . S
C2511 C2510 1.385 . S
C2512 C2510 1.478 . S
C2512 C2514 1.381 . S
C2512 C2518 1.383 . S
C2513 C2509 1.495 . S
C2513 H2519 0.959 . S
C2513 H2520 0.961 . S
C2513 H2521 0.960 . S
C2514 C2512 1.381 . S
C2514 C2515 1.394 . S
C2514 H2522 0.930 . S
C2515 C2514 1.394 . S
C2515 C2516 1.383 . S
C2515 H2523 0.929 . S
C2516 C2515 1.383 . S
C2516 C2517 1.377 . S
C2517 H2501 0.930 . S
C2517 C2516 1.377 . S
C2517 C2518 1.379 . S
C2518 H2502 0.931 . S
C2518 C2512 1.383 . S
C2518 C2517 1.379 . S
H2519 C2513 0.959 . S
H2520 C2513 0.961 . S
H2521 C2513 0.960 . S
H2522 C2514 0.930 . S
H2523 C2515 0.929 . S
H2524 C2532 0.929 . S
H2525 C2534 0.930 . S
H2526 C2536 0.930 . S
H2527 C2539 0.929 . S
H2528 C2542 0.930 . S
H2529 C2544 0.960 . S
H2530 C2544 0.960 . S
H2531 C2544 0.960 . S
C2532 H2524 0.929 . S
C2532 C2533 1.377 . S
C2532 C2534 1.384 . S
C2533 C2532 1.377 . S
C2533 C2539 1.390 . S
C2534 H2525 0.930 . S
C2534 C2532 1.384 . S
C2534 C2535 1.372 . S
C2535 C2534 1.372 . S
C2535 C2536 1.400 . S
C2535 C2540 1.490 . S
C2536 H2526 0.930 . S
C2536 C2535 1.400 . S
C2536 C2539 1.386 . S
H2537 C2553 0.930 . S
H2538 C2554 0.931 . S
C2539 H2527 0.929 . S
C2539 C2533 1.390 . S
C2539 C2536 1.386 . S
C2540 C2535 1.490 . S
C2540 C2542 1.395 . S
C2540 C2543 1.403 . S
H2541 C2547 0.930 . S
C2542 H2528 0.930 . S
C2542 C2540 1.395 . S
C2542 C2545 1.403 . S
C2543 C2540 1.403 . S
C2543 C2544 1.524 . S
C2543 C2547 1.400 . S
C2544 H2529 0.960 . S
C2544 H2530 0.960 . S
C2544 H2531 0.960 . S
C2544 C2543 1.524 . S
C2545 C2542 1.403 . S
C2545 C2546 1.392 . S
C2545 C2549 1.495 . S
C2546 C2545 1.392 . S
C2546 C2547 1.385 . S
C2546 C2548 1.478 . S
C2547 H2541 0.930 . S
C2547 C2543 1.400 . S
C2547 C2546 1.385 . S
C2548 C2546 1.478 . S
C2548 C2550 1.381 . S
C2548 C2554 1.383 . S
C2549 C2545 1.495 . S
C2549 H2555 0.959 . S
C2549 H2556 0.961 . S
C2549 H2557 0.960 . S
C2550 C2548 1.381 . S
C2550 C2551 1.394 . S
C2550 H2558 0.930 . S
C2551 C2550 1.394 . S
C2551 C2552 1.383 . S
C2551 H2559 0.929 . S
C2552 C2551 1.383 . S
C2552 C2553 1.377 . S
C2553 H2537 0.930 . S
C2553 C2552 1.377 . S
C2553 C2554 1.379 . S
C2554 H2538 0.931 . S
C2554 C2548 1.383 . S
C2554 C2553 1.379 . S
H2555 C2549 0.959 . S
H2556 C2549 0.961 . S
H2557 C2549 0.960 . S
H2558 C2550 0.930 . S
H2559 C2551 0.929 . S
H2560 C2568 0.929 . S
H2561 C2570 0.930 . S
H2562 C2572 0.930 . S
H2563 C2575 0.929 . S
H2564 C2578 0.930 . S
H2565 C2580 0.960 . S
H2566 C2580 0.960 . S
H2567 C2580 0.960 . S
C2568 H2560 0.929 . S
C2568 C2569 1.377 . S
C2568 C2570 1.384 . S
C2569 C2568 1.377 . S
C2569 C2575 1.390 . S
C2570 H2561 0.930 . S
C2570 C2568 1.384 . S
C2570 C2571 1.372 . S
C2571 C2570 1.372 . S
C2571 C2572 1.400 . S
C2571 C2576 1.490 . S
C2572 H2562 0.930 . S
C2572 C2571 1.400 . S
C2572 C2575 1.386 . S
H2573 C2589 0.930 . S
H2574 C2590 0.931 . S
C2575 H2563 0.929 . S
C2575 C2569 1.390 . S
C2575 C2572 1.386 . S
C2576 C2571 1.490 . S
C2576 C2578 1.395 . S
C2576 C2579 1.403 . S
H2577 C2583 0.930 . S
C2578 H2564 0.930 . S
C2578 C2576 1.395 . S
C2578 C2581 1.403 . S
C2579 C2576 1.403 . S
C2579 C2580 1.524 . S
C2579 C2583 1.400 . S
C2580 H2565 0.960 . S
C2580 H2566 0.960 . S
C2580 H2567 0.960 . S
C2580 C2579 1.524 . S
C2581 C2578 1.403 . S
C2581 C2582 1.392 . S
C2581 C2585 1.495 . S
C2582 C2581 1.392 . S
C2582 C2583 1.385 . S
C2582 C2584 1.478 . S
C2583 H2577 0.930 . S
C2583 C2579 1.400 . S
C2583 C2582 1.385 . S
C2584 C2582 1.478 . S
C2584 C2586 1.381 . S
C2584 C2590 1.383 . S
C2585 C2581 1.495 . S
C2585 H2591 0.959 . S
C2585 H2592 0.961 . S
C2585 H2593 0.960 . S
C2586 C2584 1.381 . S
C2586 C2587 1.394 . S
C2586 H2594 0.930 . S
C2587 C2586 1.394 . S
C2587 C2588 1.383 . S
C2587 H2595 0.929 . S
C2588 C2587 1.383 . S
C2588 C2589 1.377 . S
C2589 H2573 0.930 . S
C2589 C2588 1.377 . S
C2589 C2590 1.379 . S
C2590 H2574 0.931 . S
C2590 C2584 1.383 . S
C2590 C2589 1.379 . S
H2591 C2585 0.959 . S
H2592 C2585 0.961 . S
H2593 C2585 0.960 . S
H2594 C2586 0.930 . S
H2595 C2587 0.929 . S
H2596 C2604 0.929 . S
H2597 C2606 0.930 . S
H2598 C2608 0.930 . S
H2599 C2611 0.929 . S
H2600 C2614 0.930 . S
H2601 C2616 0.960 . S
H2602 C2616 0.960 . S
H2603 C2616 0.960 . S
C2604 H2596 0.929 . S
C2604 C2605 1.377 . S
C2604 C2606 1.384 . S
C2605 C2604 1.377 . S
C2605 C2611 1.390 . S
C2606 H2597 0.930 . S
C2606 C2604 1.384 . S
C2606 C2607 1.372 . S
C2607 C2606 1.372 . S
C2607 C2608 1.400 . S
C2607 C2612 1.490 . S
C2608 H2598 0.930 . S
C2608 C2607 1.400 . S
C2608 C2611 1.386 . S
H2609 C2625 0.930 . S
H2610 C2626 0.931 . S
C2611 H2599 0.929 . S
C2611 C2605 1.390 . S
C2611 C2608 1.386 . S
C2612 C2607 1.490 . S
C2612 C2614 1.395 . S
C2612 C2615 1.403 . S
H2613 C2619 0.930 . S
C2614 H2600 0.930 . S
C2614 C2612 1.395 . S
C2614 C2617 1.403 . S
C2615 C2612 1.403 . S
C2615 C2616 1.524 . S
C2615 C2619 1.400 1_556 S
C2616 H2601 0.960 . S
C2616 H2602 0.960 . S
C2616 H2603 0.960 . S
C2616 C2615 1.524 . S
C2617 C2614 1.403 . S
C2617 C2618 1.392 1_556 S
C2617 C2621 1.495 . S
C2618 C2617 1.392 1_554 S
C2618 C2619 1.385 . S
C2618 C2620 1.478 . S
C2619 H2613 0.930 . S
C2619 C2615 1.400 1_554 S
C2619 C2618 1.385 . S
C2620 C2618 1.478 . S
C2620 C2622 1.381 . S
C2620 C2626 1.383 . S
C2621 C2617 1.495 . S
C2621 H2627 0.959 . S
C2621 H2628 0.961 1_556 S
C2621 H2629 0.960 . S
C2622 C2620 1.381 . S
C2622 C2623 1.394 . S
C2622 H2630 0.930 . S
C2623 C2622 1.394 . S
C2623 C2624 1.383 . S
C2623 H2631 0.929 . S
C2624 C2623 1.383 . S
C2624 C2625 1.377 . S
C2625 H2609 0.930 . S
C2625 C2624 1.377 . S
C2625 C2626 1.379 . S
C2626 H2610 0.931 . S
C2626 C2620 1.383 . S
C2626 C2625 1.379 . S
H2627 C2621 0.959 . S
H2628 C2621 0.961 1_554 S
H2629 C2621 0.960 . S
H2630 C2622 0.930 . S
H2631 C2623 0.929 . S
H2632 C2640 0.929 . S
H2633 C2642 0.930 . S
H2634 C2644 0.930 . S
H2635 C2647 0.929 . S
H2636 C2650 0.930 . S
H2637 C2652 0.960 . S
H2638 C2652 0.960 . S
H2639 C2652 0.960 . S
C2640 H2632 0.929 . S
C2640 C2641 1.377 . S
C2640 C2642 1.384 . S
C2641 C2640 1.377 . S
C2641 C2647 1.390 . S
C2642 H2633 0.930 . S
C2642 C2640 1.384 . S
C2642 C2643 1.372 . S
C2643 C2642 1.372 . S
C2643 C2644 1.400 . S
C2643 C2648 1.490 . S
C2644 H2634 0.930 . S
C2644 C2643 1.400 . S
C2644 C2647 1.386 . S
H2645 C2661 0.930 . S
H2646 C2662 0.931 . S
C2647 H2635 0.929 . S
C2647 C2641 1.390 . S
C2647 C2644 1.386 . S
C2648 C2643 1.490 . S
C2648 C2650 1.395 . S
C2648 C2651 1.403 . S
H2649 C2655 0.930 . S
C2650 H2636 0.930 . S
C2650 C2648 1.395 . S
C2650 C2653 1.403 . S
C2651 C2648 1.403 . S
C2651 C2652 1.524 . S
C2651 C2655 1.400 . S
C2652 H2637 0.960 . S
C2652 H2638 0.960 . S
C2652 H2639 0.960 . S
C2652 C2651 1.524 . S
C2653 C2650 1.403 . S
C2653 C2654 1.392 . S
C2653 C2657 1.495 . S
C2654 C2653 1.392 . S
C2654 C2655 1.385 . S
C2654 C2656 1.478 . S
C2655 H2649 0.930 . S
C2655 C2651 1.400 . S
C2655 C2654 1.385 . S
C2656 C2654 1.478 . S
C2656 C2658 1.381 . S
C2656 C2662 1.383 . S
C2657 C2653 1.495 . S
C2657 H2663 0.959 . S
C2657 H2664 0.961 . S
C2657 H2665 0.960 . S
C2658 C2656 1.381 . S
C2658 C2659 1.394 . S
C2658 H2666 0.930 . S
C2659 C2658 1.394 . S
C2659 C2660 1.383 . S
C2659 H2667 0.929 . S
C2660 C2659 1.383 . S
C2660 C2661 1.377 . S
C2661 H2645 0.930 . S
C2661 C2660 1.377 . S
C2661 C2662 1.379 . S
C2662 H2646 0.931 . S
C2662 C2656 1.383 . S
C2662 C2661 1.379 . S
H2663 C2657 0.959 . S
H2664 C2657 0.961 . S
H2665 C2657 0.960 . S
H2666 C2658 0.930 . S
H2667 C2659 0.929 . S
H2668 C2676 0.929 . S
H2669 C2678 0.930 . S
H2670 C2680 0.930 . S
H2671 C2683 0.929 . S
H2672 C2686 0.930 . S
H2673 C2688 0.960 . S
H2674 C2688 0.960 . S
H2675 C2688 0.960 . S
C2676 H2668 0.929 . S
C2676 C2677 1.377 . S
C2676 C2678 1.384 . S
C2677 C2676 1.377 . S
C2677 C2683 1.390 . S
C2678 H2669 0.930 . S
C2678 C2676 1.384 . S
C2678 C2679 1.372 . S
C2679 C2678 1.372 . S
C2679 C2680 1.400 . S
C2679 C2684 1.490 . S
C2680 H2670 0.930 . S
C2680 C2679 1.400 . S
C2680 C2683 1.386 . S
H2681 C2697 0.930 . S
H2682 C2698 0.931 . S
C2683 H2671 0.929 . S
C2683 C2677 1.390 . S
C2683 C2680 1.386 . S
C2684 C2679 1.490 . S
C2684 C2686 1.395 . S
C2684 C2687 1.403 . S
H2685 C2691 0.930 . S
C2686 H2672 0.930 . S
C2686 C2684 1.395 . S
C2686 C2689 1.403 . S
C2687 C2684 1.403 . S
C2687 C2688 1.524 . S
C2687 C2691 1.400 . S
C2688 H2673 0.960 . S
C2688 H2674 0.960 . S
C2688 H2675 0.960 . S
C2688 C2687 1.524 . S
C2689 C2686 1.403 . S
C2689 C2690 1.392 . S
C2689 C2693 1.495 . S
C2690 C2689 1.392 . S
C2690 C2691 1.385 . S
C2690 C2692 1.478 . S
C2691 H2685 0.930 . S
C2691 C2687 1.400 . S
C2691 C2690 1.385 . S
C2692 C2690 1.478 . S
C2692 C2694 1.381 . S
C2692 C2698 1.383 . S
C2693 C2689 1.495 . S
C2693 H2699 0.959 . S
C2693 H2700 0.961 . S
C2693 H2701 0.960 . S
C2694 C2692 1.381 . S
C2694 C2695 1.394 . S
C2694 H2702 0.930 . S
C2695 C2694 1.394 . S
C2695 C2696 1.383 . S
C2695 H2703 0.929 . S
C2696 C2695 1.383 . S
C2696 C2697 1.377 . S
C2697 H2681 0.930 . S
C2697 C2696 1.377 . S
C2697 C2698 1.379 . S
C2698 H2682 0.931 . S
C2698 C2692 1.383 . S
C2698 C2697 1.379 . S
H2699 C2693 0.959 . S
H2700 C2693 0.961 . S
H2701 C2693 0.960 . S
H2702 C2694 0.930 . S
H2703 C2695 0.929 . S
H2704 C2712 0.929 . S
H2705 C2714 0.930 . S
H2706 C2716 0.930 . S
H2707 C2719 0.929 . S
H2708 C2722 0.930 . S
H2709 C2724 0.960 . S
H2710 C2724 0.960 . S
H2711 C2724 0.960 . S
C2712 H2704 0.929 . S
C2712 C2713 1.377 . S
C2712 C2714 1.384 . S
C2713 C2712 1.377 . S
C2713 C2719 1.390 . S
C2714 H2705 0.930 . S
C2714 C2712 1.384 . S
C2714 C2715 1.372 . S
C2715 C2714 1.372 . S
C2715 C2716 1.400 . S
C2715 C2720 1.490 . S
C2716 H2706 0.930 . S
C2716 C2715 1.400 . S
C2716 C2719 1.386 . S
H2717 C2733 0.930 . S
H2718 C2734 0.931 . S
C2719 H2707 0.929 . S
C2719 C2713 1.390 . S
C2719 C2716 1.386 . S
C2720 C2715 1.490 . S
C2720 C2722 1.395 . S
C2720 C2723 1.403 . S
H2721 C2727 0.930 . S
C2722 H2708 0.930 . S
C2722 C2720 1.395 . S
C2722 C2725 1.403 . S
C2723 C2720 1.403 . S
C2723 C2724 1.524 . S
C2723 C2727 1.400 . S
C2724 H2709 0.960 . S
C2724 H2710 0.960 . S
C2724 H2711 0.960 . S
C2724 C2723 1.524 . S
C2725 C2722 1.403 . S
C2725 C2726 1.392 . S
C2725 C2729 1.495 . S
C2726 C2725 1.392 . S
C2726 C2727 1.385 . S
C2726 C2728 1.478 . S
C2727 H2721 0.930 . S
C2727 C2723 1.400 . S
C2727 C2726 1.385 . S
C2728 C2726 1.478 . S
C2728 C2730 1.381 . S
C2728 C2734 1.383 . S
C2729 C2725 1.495 . S
C2729 H2735 0.959 . S
C2729 H2736 0.961 . S
C2729 H2737 0.960 . S
C2730 C2728 1.381 . S
C2730 C2731 1.394 . S
C2730 H2738 0.930 . S
C2731 C2730 1.394 . S
C2731 C2732 1.383 . S
C2731 H2739 0.929 . S
C2732 C2731 1.383 . S
C2732 C2733 1.377 . S
C2733 H2717 0.930 . S
C2733 C2732 1.377 . S
C2733 C2734 1.379 . S
C2734 H2718 0.931 . S
C2734 C2728 1.383 . S
C2734 C2733 1.379 . S
H2735 C2729 0.959 . S
H2736 C2729 0.961 . S
H2737 C2729 0.960 . S
H2738 C2730 0.930 . S
H2739 C2731 0.929 . S
H2740 C2748 0.929 . S
H2741 C2750 0.930 . S
H2742 C2752 0.930 . S
H2743 C2755 0.929 . S
H2744 C2758 0.930 . S
H2745 C2760 0.960 . S
H2746 C2760 0.960 . S
H2747 C2760 0.960 . S
C2748 H2740 0.929 . S
C2748 C2749 1.377 . S
C2748 C2750 1.384 . S
C2749 C2748 1.377 . S
C2749 C2755 1.390 . S
C2750 H2741 0.930 . S
C2750 C2748 1.384 . S
C2750 C2751 1.372 . S
C2751 C2750 1.372 . S
C2751 C2752 1.400 . S
C2751 C2756 1.490 . S
C2752 H2742 0.930 . S
C2752 C2751 1.400 . S
C2752 C2755 1.386 . S
H2753 C2769 0.930 . S
H2754 C2770 0.931 . S
C2755 H2743 0.929 . S
C2755 C2749 1.390 . S
C2755 C2752 1.386 . S
C2756 C2751 1.490 . S
C2756 C2758 1.395 . S
C2756 C2759 1.403 . S
H2757 C2763 0.930 . S
C2758 H2744 0.930 . S
C2758 C2756 1.395 . S
C2758 C2761 1.403 . S
C2759 C2756 1.403 . S
C2759 C2760 1.524 . S
C2759 C2763 1.400 . S
C2760 H2745 0.960 . S
C2760 H2746 0.960 . S
C2760 H2747 0.960 . S
C2760 C2759 1.524 . S
C2761 C2758 1.403 . S
C2761 C2762 1.392 . S
C2761 C2765 1.495 . S
C2762 C2761 1.392 . S
C2762 C2763 1.385 . S
C2762 C2764 1.478 . S
C2763 H2757 0.930 . S
C2763 C2759 1.400 . S
C2763 C2762 1.385 . S
C2764 C2762 1.478 . S
C2764 C2766 1.381 . S
C2764 C2770 1.383 . S
C2765 C2761 1.495 . S
C2765 H2771 0.959 . S
C2765 H2772 0.961 . S
C2765 H2773 0.960 . S
C2766 C2764 1.381 . S
C2766 C2767 1.394 . S
C2766 H2774 0.930 . S
C2767 C2766 1.394 . S
C2767 C2768 1.383 . S
C2767 H2775 0.929 . S
C2768 C2767 1.383 . S
C2768 C2769 1.377 . S
C2769 H2753 0.930 . S
C2769 C2768 1.377 . S
C2769 C2770 1.379 . S
C2770 H2754 0.931 . S
C2770 C2764 1.383 . S
C2770 C2769 1.379 . S
H2771 C2765 0.959 . S
H2772 C2765 0.961 . S
H2773 C2765 0.960 . S
H2774 C2766 0.930 . S
H2775 C2767 0.929 . S
H2776 C2784 0.929 . S
H2777 C2786 0.930 . S
H2778 C2788 0.930 . S
H2779 C2791 0.929 . S
H2780 C2794 0.930 . S
H2781 C2796 0.960 . S
H2782 C2796 0.960 . S
H2783 C2796 0.960 . S
C2784 H2776 0.929 . S
C2784 C2785 1.377 . S
C2784 C2786 1.384 . S
C2785 C2784 1.377 . S
C2785 C2791 1.390 . S
C2786 H2777 0.930 . S
C2786 C2784 1.384 . S
C2786 C2787 1.372 . S
C2787 C2786 1.372 . S
C2787 C2788 1.400 . S
C2787 C2792 1.490 . S
C2788 H2778 0.930 . S
C2788 C2787 1.400 . S
C2788 C2791 1.386 . S
H2789 C2805 0.930 . S
H2790 C2806 0.931 . S
C2791 H2779 0.929 . S
C2791 C2785 1.390 . S
C2791 C2788 1.386 . S
C2792 C2787 1.490 . S
C2792 C2794 1.395 . S
C2792 C2795 1.403 . S
H2793 C2799 0.930 . S
C2794 H2780 0.930 . S
C2794 C2792 1.395 . S
C2794 C2797 1.403 . S
C2795 C2792 1.403 . S
C2795 C2796 1.524 . S
C2795 C2799 1.400 . S
C2796 H2781 0.960 . S
C2796 H2782 0.960 . S
C2796 H2783 0.960 . S
C2796 C2795 1.524 . S
C2797 C2794 1.403 . S
C2797 C2798 1.392 . S
C2797 C2801 1.495 . S
C2798 C2797 1.392 . S
C2798 C2799 1.385 . S
C2798 C2800 1.478 . S
C2799 H2793 0.930 . S
C2799 C2795 1.400 . S
C2799 C2798 1.385 . S
C2800 C2798 1.478 . S
C2800 C2802 1.381 . S
C2800 C2806 1.383 . S
C2801 C2797 1.495 . S
C2801 H2807 0.959 . S
C2801 H2808 0.961 . S
C2801 H2809 0.960 . S
C2802 C2800 1.381 . S
C2802 C2803 1.394 . S
C2802 H2810 0.930 . S
C2803 C2802 1.394 . S
C2803 C2804 1.383 . S
C2803 H2811 0.929 . S
C2804 C2803 1.383 . S
C2804 C2805 1.377 . S
C2805 H2789 0.930 . S
C2805 C2804 1.377 . S
C2805 C2806 1.379 . S
C2806 H2790 0.931 . S
C2806 C2800 1.383 . S
C2806 C2805 1.379 . S
H2807 C2801 0.959 . S
H2808 C2801 0.961 . S
H2809 C2801 0.960 . S
H2810 C2802 0.930 . S
H2811 C2803 0.929 . S
H2812 C2820 0.929 . S
H2813 C2822 0.930 . S
H2814 C2824 0.930 . S
H2815 C2827 0.929 . S
H2816 C2830 0.930 . S
H2817 C2832 0.960 . S
H2818 C2832 0.960 . S
H2819 C2832 0.960 . S
C2820 H2812 0.929 . S
C2820 C2821 1.377 . S
C2820 C2822 1.384 . S
C2821 C2820 1.377 . S
C2821 C2827 1.390 . S
C2822 H2813 0.930 . S
C2822 C2820 1.384 . S
C2822 C2823 1.372 . S
C2823 C2822 1.372 . S
C2823 C2824 1.400 . S
C2823 C2828 1.490 . S
C2824 H2814 0.930 . S
C2824 C2823 1.400 . S
C2824 C2827 1.386 . S
H2825 C2841 0.930 . S
H2826 C2842 0.931 . S
C2827 H2815 0.929 . S
C2827 C2821 1.390 . S
C2827 C2824 1.386 . S
C2828 C2823 1.490 . S
C2828 C2830 1.395 . S
C2828 C2831 1.403 . S
H2829 C2835 0.930 . S
C2830 H2816 0.930 . S
C2830 C2828 1.395 . S
C2830 C2833 1.403 . S
C2831 C2828 1.403 . S
C2831 C2832 1.524 . S
C2831 C2835 1.400 . S
C2832 H2817 0.960 . S
C2832 H2818 0.960 . S
C2832 H2819 0.960 . S
C2832 C2831 1.524 . S
C2833 C2830 1.403 . S
C2833 C2834 1.392 . S
C2833 C2837 1.495 . S
C2834 C2833 1.392 . S
C2834 C2835 1.385 . S
C2834 C2836 1.478 . S
C2835 H2829 0.930 . S
C2835 C2831 1.400 . S
C2835 C2834 1.385 . S
C2836 C2834 1.478 . S
C2836 C2838 1.381 . S
C2836 C2842 1.383 . S
C2837 C2833 1.495 . S
C2837 H2843 0.959 . S
C2837 H2844 0.961 . S
C2837 H2845 0.960 . S
C2838 C2836 1.381 . S
C2838 C2839 1.394 . S
C2838 H2846 0.930 . S
C2839 C2838 1.394 . S
C2839 C2840 1.383 . S
C2839 H2847 0.929 . S
C2840 C2839 1.383 . S
C2840 C2841 1.377 . S
C2841 H2825 0.930 . S
C2841 C2840 1.377 . S
C2841 C2842 1.379 . S
C2842 H2826 0.931 . S
C2842 C2836 1.383 . S
C2842 C2841 1.379 . S
H2843 C2837 0.959 . S
H2844 C2837 0.961 . S
H2845 C2837 0.960 . S
H2846 C2838 0.930 . S
H2847 C2839 0.929 . S
H2848 C2856 0.929 . S
H2849 C2858 0.930 . S
H2850 C2860 0.930 . S
H2851 C2863 0.929 . S
H2852 C2866 0.930 . S
H2853 C2868 0.960 . S
H2854 C2868 0.960 . S
H2855 C2868 0.960 . S
C2856 H2848 0.929 . S
C2856 C2857 1.377 . S
C2856 C2858 1.384 . S
C2857 C2856 1.377 . S
C2857 C2863 1.390 . S
C2858 H2849 0.930 . S
C2858 C2856 1.384 . S
C2858 C2859 1.372 . S
C2859 C2858 1.372 . S
C2859 C2860 1.400 . S
C2859 C2864 1.490 . S
C2860 H2850 0.930 . S
C2860 C2859 1.400 . S
C2860 C2863 1.386 . S
H2861 C2877 0.930 . S
H2862 C2878 0.931 . S
C2863 H2851 0.929 . S
C2863 C2857 1.390 . S
C2863 C2860 1.386 . S
C2864 C2859 1.490 . S
C2864 C2866 1.395 . S
C2864 C2867 1.403 . S
H2865 C2871 0.930 . S
C2866 H2852 0.930 . S
C2866 C2864 1.395 . S
C2866 C2869 1.403 . S
C2867 C2864 1.403 . S
C2867 C2868 1.524 . S
C2867 C2871 1.400 . S
C2868 H2853 0.960 . S
C2868 H2854 0.960 . S
C2868 H2855 0.960 . S
C2868 C2867 1.524 . S
C2869 C2866 1.403 . S
C2869 C2870 1.392 . S
C2869 C2873 1.495 . S
C2870 C2869 1.392 . S
C2870 C2871 1.385 . S
C2870 C2872 1.478 . S
C2871 H2865 0.930 . S
C2871 C2867 1.400 . S
C2871 C2870 1.385 . S
C2872 C2870 1.478 . S
C2872 C2874 1.381 . S
C2872 C2878 1.383 . S
C2873 C2869 1.495 . S
C2873 H2879 0.959 . S
C2873 H2880 0.961 . S
C2873 H2881 0.960 . S
C2874 C2872 1.381 . S
C2874 C2875 1.394 . S
C2874 H2882 0.930 . S
C2875 C2874 1.394 . S
C2875 C2876 1.383 . S
C2875 H2883 0.929 . S
C2876 C2875 1.383 . S
C2876 C2877 1.377 . S
C2877 H2861 0.930 . S
C2877 C2876 1.377 . S
C2877 C2878 1.379 . S
C2878 H2862 0.931 . S
C2878 C2872 1.383 . S
C2878 C2877 1.379 . S
H2879 C2873 0.959 . S
H2880 C2873 0.961 . S
H2881 C2873 0.960 . S
H2882 C2874 0.930 . S
H2883 C2875 0.929 . S
H2884 C2892 0.929 . S
H2885 C2894 0.930 . S
H2886 C2896 0.930 . S
H2887 C2899 0.929 . S
H2888 C2902 0.930 . S
H2889 C2904 0.960 . S
H2890 C2904 0.960 . S
H2891 C2904 0.960 . S
C2892 H2884 0.929 . S
C2892 C2893 1.377 . S
C2892 C2894 1.384 . S
C2893 C2892 1.377 . S
C2893 C2899 1.390 . S
C2894 H2885 0.930 . S
C2894 C2892 1.384 . S
C2894 C2895 1.372 . S
C2895 C2894 1.372 . S
C2895 C2896 1.400 . S
C2895 C2900 1.490 . S
C2896 H2886 0.930 . S
C2896 C2895 1.400 . S
C2896 C2899 1.386 . S
H2897 C2913 0.930 . S
H2898 C2914 0.931 . S
C2899 H2887 0.929 . S
C2899 C2893 1.390 . S
C2899 C2896 1.386 . S
C2900 C2895 1.490 . S
C2900 C2902 1.395 . S
C2900 C2903 1.403 . S
H2901 C2907 0.930 . S
C2902 H2888 0.930 . S
C2902 C2900 1.395 . S
C2902 C2905 1.403 . S
C2903 C2900 1.403 . S
C2903 C2904 1.524 . S
C2903 C2907 1.400 . S
C2904 H2889 0.960 . S
C2904 H2890 0.960 . S
C2904 H2891 0.960 . S
C2904 C2903 1.524 . S
C2905 C2902 1.403 . S
C2905 C2906 1.392 . S
C2905 C2909 1.495 . S
C2906 C2905 1.392 . S
C2906 C2907 1.385 . S
C2906 C2908 1.478 . S
C2907 H2901 0.930 . S
C2907 C2903 1.400 . S
C2907 C2906 1.385 . S
C2908 C2906 1.478 . S
C2908 C2910 1.381 . S
C2908 C2914 1.383 . S
C2909 C2905 1.495 . S
C2909 H2915 0.959 . S
C2909 H2916 0.961 . S
C2909 H2917 0.960 . S
C2910 C2908 1.381 . S
C2910 C2911 1.394 . S
C2910 H2918 0.930 . S
C2911 C2910 1.394 . S
C2911 C2912 1.383 . S
C2911 H2919 0.929 . S
C2912 C2911 1.383 . S
C2912 C2913 1.377 . S
C2913 H2897 0.930 . S
C2913 C2912 1.377 . S
C2913 C2914 1.379 . S
C2914 H2898 0.931 . S
C2914 C2908 1.383 . S
C2914 C2913 1.379 . S
H2915 C2909 0.959 . S
H2916 C2909 0.961 . S
H2917 C2909 0.960 . S
H2918 C2910 0.930 . S
H2919 C2911 0.929 . S
H2920 C2928 0.929 . S
H2921 C2930 0.930 . S
H2922 C2932 0.930 . S
H2923 C2935 0.929 . S
H2924 C2938 0.930 . S
H2925 C2940 0.960 . S
H2926 C2940 0.960 . S
H2927 C2940 0.960 . S
C2928 H2920 0.929 . S
C2928 C2929 1.377 . S
C2928 C2930 1.384 . S
C2929 C2928 1.377 . S
C2929 C2935 1.390 . S
C2930 H2921 0.930 . S
C2930 C2928 1.384 . S
C2930 C2931 1.372 . S
C2931 C2930 1.372 . S
C2931 C2932 1.400 . S
C2931 C2936 1.490 . S
C2932 H2922 0.930 . S
C2932 C2931 1.400 . S
C2932 C2935 1.386 . S
H2933 C2949 0.930 . S
H2934 C2950 0.931 . S
C2935 H2923 0.929 . S
C2935 C2929 1.390 . S
C2935 C2932 1.386 . S
C2936 C2931 1.490 . S
C2936 C2938 1.395 . S
C2936 C2939 1.403 . S
H2937 C2943 0.930 . S
C2938 H2924 0.930 . S
C2938 C2936 1.395 . S
C2938 C2941 1.403 . S
C2939 C2936 1.403 . S
C2939 C2940 1.524 . S
C2939 C2943 1.400 . S
C2940 H2925 0.960 . S
C2940 H2926 0.960 . S
C2940 H2927 0.960 . S
C2940 C2939 1.524 . S
C2941 C2938 1.403 . S
C2941 C2942 1.392 . S
C2941 C2945 1.495 . S
C2942 C2941 1.392 . S
C2942 C2943 1.385 . S
C2942 C2944 1.478 . S
C2943 H2937 0.930 . S
C2943 C2939 1.400 . S
C2943 C2942 1.385 . S
C2944 C2942 1.478 . S
C2944 C2946 1.381 . S
C2944 C2950 1.383 . S
C2945 C2941 1.495 . S
C2945 H2951 0.959 . S
C2945 H2952 0.961 . S
C2945 H2953 0.960 . S
C2946 C2944 1.381 . S
C2946 C2947 1.394 . S
C2946 H2954 0.930 . S
C2947 C2946 1.394 . S
C2947 C2948 1.383 . S
C2947 H2955 0.929 . S
C2948 C2947 1.383 . S
C2948 C2949 1.377 . S
C2949 H2933 0.930 . S
C2949 C2948 1.377 . S
C2949 C2950 1.379 . S
C2950 H2934 0.931 . S
C2950 C2944 1.383 . S
C2950 C2949 1.379 . S
H2951 C2945 0.959 . S
H2952 C2945 0.961 . S
H2953 C2945 0.960 . S
H2954 C2946 0.930 . S
H2955 C2947 0.929 . S
H2956 C2964 0.929 . S
H2957 C2966 0.930 . S
H2958 C2968 0.930 . S
H2959 C2971 0.929 . S
H2960 C2974 0.930 . S
H2961 C2976 0.960 . S
H2962 C2976 0.960 . S
H2963 C2976 0.960 . S
C2964 H2956 0.929 . S
C2964 C2965 1.377 . S
C2964 C2966 1.384 . S
C2965 C2964 1.377 . S
C2965 C2971 1.390 . S
C2966 H2957 0.930 . S
C2966 C2964 1.384 . S
C2966 C2967 1.372 . S
C2967 C2966 1.372 . S
C2967 C2968 1.400 . S
C2967 C2972 1.490 . S
C2968 H2958 0.930 . S
C2968 C2967 1.400 . S
C2968 C2971 1.386 . S
H2969 C2985 0.930 . S
H2970 C2986 0.931 . S
C2971 H2959 0.929 . S
C2971 C2965 1.390 . S
C2971 C2968 1.386 . S
C2972 C2967 1.490 . S
C2972 C2974 1.395 . S
C2972 C2975 1.403 . S
H2973 C2979 0.930 . S
C2974 H2960 0.930 . S
C2974 C2972 1.395 . S
C2974 C2977 1.403 . S
C2975 C2972 1.403 . S
C2975 C2976 1.524 . S
C2975 C2979 1.400 . S
C2976 H2961 0.960 . S
C2976 H2962 0.960 . S
C2976 H2963 0.960 . S
C2976 C2975 1.524 . S
C2977 C2974 1.403 . S
C2977 C2978 1.392 . S
C2977 C2981 1.495 . S
C2978 C2977 1.392 . S
C2978 C2979 1.385 . S
C2978 C2980 1.478 . S
C2979 H2973 0.930 . S
C2979 C2975 1.400 . S
C2979 C2978 1.385 . S
C2980 C2978 1.478 . S
C2980 C2982 1.381 . S
C2980 C2986 1.383 . S
C2981 C2977 1.495 . S
C2981 H2987 0.959 . S
C2981 H2988 0.961 . S
C2981 H2989 0.960 . S
C2982 C2980 1.381 . S
C2982 C2983 1.394 . S
C2982 H2990 0.930 . S
C2983 C2982 1.394 . S
C2983 C2984 1.383 . S
C2983 H2991 0.929 . S
C2984 C2983 1.383 . S
C2984 C2985 1.377 . S
C2985 H2969 0.930 . S
C2985 C2984 1.377 . S
C2985 C2986 1.379 . S
C2986 H2970 0.931 . S
C2986 C2980 1.383 . S
C2986 C2985 1.379 . S
H2987 C2981 0.959 . S
H2988 C2981 0.961 . S
H2989 C2981 0.960 . S
H2990 C2982 0.930 . S
H2991 C2983 0.929 . S
H2992 C3000 0.929 . S
H2993 C3002 0.930 . S
H2994 C3004 0.930 . S
H2995 C3007 0.929 . S
H2996 C3010 0.930 . S
H2997 C3012 0.960 . S
H2998 C3012 0.960 . S
H2999 C3012 0.960 . S
C3000 H2992 0.929 . S
C3000 C3001 1.377 . S
C3000 C3002 1.384 . S
C3001 C3000 1.377 . S
C3001 C3007 1.390 . S
C3002 H2993 0.930 . S
C3002 C3000 1.384 . S
C3002 C3003 1.372 . S
C3003 C3002 1.372 . S
C3003 C3004 1.400 . S
C3003 C3008 1.490 . S
C3004 H2994 0.930 . S
C3004 C3003 1.400 . S
C3004 C3007 1.386 . S
H3005 C3021 0.930 . S
H3006 C3022 0.931 . S
C3007 H2995 0.929 . S
C3007 C3001 1.390 . S
C3007 C3004 1.386 . S
C3008 C3003 1.490 . S
C3008 C3010 1.395 . S
C3008 C3011 1.403 . S
H3009 C3015 0.930 . S
C3010 H2996 0.930 . S
C3010 C3008 1.395 . S
C3010 C3013 1.403 . S
C3011 C3008 1.403 . S
C3011 C3012 1.524 . S
C3011 C3015 1.400 . S
C3012 H2997 0.960 . S
C3012 H2998 0.960 . S
C3012 H2999 0.960 . S
C3012 C3011 1.524 . S
C3013 C3010 1.403 . S
C3013 C3014 1.392 . S
C3013 C3017 1.495 . S
C3014 C3013 1.392 . S
C3014 C3015 1.385 . S
C3014 C3016 1.478 . S
C3015 H3009 0.930 . S
C3015 C3011 1.400 . S
C3015 C3014 1.385 . S
C3016 C3014 1.478 . S
C3016 C3018 1.381 . S
C3016 C3022 1.383 . S
C3017 C3013 1.495 . S
C3017 H3023 0.959 . S
C3017 H3024 0.961 . S
C3017 H3025 0.960 . S
C3018 C3016 1.381 . S
C3018 C3019 1.394 . S
C3018 H3026 0.930 . S
C3019 C3018 1.394 . S
C3019 C3020 1.383 . S
C3019 H3027 0.929 . S
C3020 C3019 1.383 . S
C3020 C3021 1.377 . S
C3021 H3005 0.930 . S
C3021 C3020 1.377 . S
C3021 C3022 1.379 . S
C3022 H3006 0.931 . S
C3022 C3016 1.383 . S
C3022 C3021 1.379 . S
H3023 C3017 0.959 . S
H3024 C3017 0.961 . S
H3025 C3017 0.960 . S
H3026 C3018 0.930 . S
H3027 C3019 0.929 . S
H3028 C3036 0.929 . S
H3029 C3038 0.930 . S
H3030 C3040 0.930 . S
H3031 C3043 0.929 . S
H3032 C3046 0.930 . S
H3033 C3048 0.960 . S
H3034 C3048 0.960 . S
H3035 C3048 0.960 . S
C3036 H3028 0.929 . S
C3036 C3037 1.377 . S
C3036 C3038 1.384 . S
C3037 C3036 1.377 . S
C3037 C3043 1.390 . S
C3038 H3029 0.930 . S
C3038 C3036 1.384 . S
C3038 C3039 1.372 . S
C3039 C3038 1.372 . S
C3039 C3040 1.400 . S
C3039 C3044 1.490 . S
C3040 H3030 0.930 . S
C3040 C3039 1.400 . S
C3040 C3043 1.386 . S
H3041 C3057 0.930 . S
H3042 C3058 0.931 . S
C3043 H3031 0.929 . S
C3043 C3037 1.390 . S
C3043 C3040 1.386 . S
C3044 C3039 1.490 . S
C3044 C3046 1.395 . S
C3044 C3047 1.403 . S
H3045 C3051 0.930 . S
C3046 H3032 0.930 . S
C3046 C3044 1.395 . S
C3046 C3049 1.403 . S
C3047 C3044 1.403 . S
C3047 C3048 1.524 . S
C3047 C3051 1.400 . S
C3048 H3033 0.960 . S
C3048 H3034 0.960 . S
C3048 H3035 0.960 . S
C3048 C3047 1.524 . S
C3049 C3046 1.403 . S
C3049 C3050 1.392 . S
C3049 C3053 1.495 . S
C3050 C3049 1.392 . S
C3050 C3051 1.385 . S
C3050 C3052 1.478 . S
C3051 H3045 0.930 . S
C3051 C3047 1.400 . S
C3051 C3050 1.385 . S
C3052 C3050 1.478 . S
C3052 C3054 1.381 . S
C3052 C3058 1.383 . S
C3053 C3049 1.495 . S
C3053 H3059 0.959 . S
C3053 H3060 0.961 . S
C3053 H3061 0.960 . S
C3054 C3052 1.381 . S
C3054 C3055 1.394 . S
C3054 H3062 0.930 . S
C3055 C3054 1.394 . S
C3055 C3056 1.383 . S
C3055 H3063 0.929 . S
C3056 C3055 1.383 . S
C3056 C3057 1.377 . S
C3057 H3041 0.930 . S
C3057 C3056 1.377 . S
C3057 C3058 1.379 . S
C3058 H3042 0.931 . S
C3058 C3052 1.383 . S
C3058 C3057 1.379 . S
H3059 C3053 0.959 . S
H3060 C3053 0.961 . S
H3061 C3053 0.960 . S
H3062 C3054 0.930 . S
H3063 C3055 0.929 . S
H3064 C3072 0.929 . S
H3065 C3074 0.930 . S
H3066 C3076 0.930 . S
H3067 C3079 0.929 1_545 S
H3068 C3082 0.930 . S
H3069 C3084 0.960 . S
H3070 C3084 0.960 . S
H3071 C3084 0.960 . S
C3072 H3064 0.929 . S
C3072 C3073 1.377 . S
C3072 C3074 1.384 . S
C3073 C3072 1.377 . S
C3073 C3079 1.390 . S
C3074 H3065 0.930 . S
C3074 C3072 1.384 . S
C3074 C3075 1.372 . S
C3075 C3074 1.372 . S
C3075 C3076 1.400 . S
C3075 C3080 1.490 . S
C3076 H3066 0.930 . S
C3076 C3075 1.400 . S
C3076 C3079 1.386 . S
H3077 C3093 0.930 . S
H3078 C3094 0.931 . S
C3079 H3067 0.929 1_565 S
C3079 C3073 1.390 . S
C3079 C3076 1.386 . S
C3080 C3075 1.490 . S
C3080 C3082 1.395 . S
C3080 C3083 1.403 . S
H3081 C3087 0.930 . S
C3082 H3068 0.930 . S
C3082 C3080 1.395 . S
C3082 C3085 1.403 . S
C3083 C3080 1.403 . S
C3083 C3084 1.524 . S
C3083 C3087 1.400 . S
C3084 H3069 0.960 . S
C3084 H3070 0.960 . S
C3084 H3071 0.960 . S
C3084 C3083 1.524 . S
C3085 C3082 1.403 . S
C3085 C3086 1.392 . S
C3085 C3089 1.495 . S
C3086 C3085 1.392 . S
C3086 C3087 1.385 . S
C3086 C3088 1.478 . S
C3087 H3081 0.930 . S
C3087 C3083 1.400 . S
C3087 C3086 1.385 . S
C3088 C3086 1.478 . S
C3088 C3090 1.381 . S
C3088 C3094 1.383 . S
C3089 C3085 1.495 . S
C3089 H3095 0.959 . S
C3089 H3096 0.961 . S
C3089 H3097 0.960 . S
C3090 C3088 1.381 . S
C3090 C3091 1.394 . S
C3090 H3098 0.930 . S
C3091 C3090 1.394 . S
C3091 C3092 1.383 . S
C3091 H3099 0.929 . S
C3092 C3091 1.383 . S
C3092 C3093 1.377 . S
C3093 H3077 0.930 . S
C3093 C3092 1.377 . S
C3093 C3094 1.379 . S
C3094 H3078 0.931 . S
C3094 C3088 1.383 . S
C3094 C3093 1.379 . S
H3095 C3089 0.959 . S
H3096 C3089 0.961 . S
H3097 C3089 0.960 . S
H3098 C3090 0.930 . S
H3099 C3091 0.929 . S
H3100 C3108 0.929 . S
H3101 C3110 0.930 . S
H3102 C3112 0.930 . S
H3103 C3115 0.929 . S
H3104 C3118 0.930 . S
H3105 C3120 0.960 . S
H3106 C3120 0.960 . S
H3107 C3120 0.960 . S
C3108 H3100 0.929 . S
C3108 C3109 1.377 . S
C3108 C3110 1.384 . S
C3109 C3108 1.377 . S
C3109 C3115 1.390 . S
C3110 H3101 0.930 . S
C3110 C3108 1.384 . S
C3110 C3111 1.372 . S
C3111 C3110 1.372 . S
C3111 C3112 1.400 . S
C3111 C3116 1.490 . S
C3112 H3102 0.930 . S
C3112 C3111 1.400 . S
C3112 C3115 1.386 . S
H3113 C3129 0.930 . S
H3114 C3130 0.931 . S
C3115 H3103 0.929 . S
C3115 C3109 1.390 . S
C3115 C3112 1.386 . S
C3116 C3111 1.490 . S
C3116 C3118 1.395 . S
C3116 C3119 1.403 . S
H3117 C3123 0.930 . S
C3118 H3104 0.930 . S
C3118 C3116 1.395 . S
C3118 C3121 1.403 . S
C3119 C3116 1.403 . S
C3119 C3120 1.524 . S
C3119 C3123 1.400 . S
C3120 H3105 0.960 . S
C3120 H3106 0.960 . S
C3120 H3107 0.960 . S
C3120 C3119 1.524 . S
C3121 C3118 1.403 . S
C3121 C3122 1.392 . S
C3121 C3125 1.495 . S
C3122 C3121 1.392 . S
C3122 C3123 1.385 . S
C3122 C3124 1.478 . S
C3123 H3117 0.930 . S
C3123 C3119 1.400 . S
C3123 C3122 1.385 . S
C3124 C3122 1.478 . S
C3124 C3126 1.381 . S
C3124 C3130 1.383 . S
C3125 C3121 1.495 . S
C3125 H3131 0.959 . S
C3125 H3132 0.961 . S
C3125 H3133 0.960 . S
C3126 C3124 1.381 . S
C3126 C3127 1.394 . S
C3126 H3134 0.930 . S
C3127 C3126 1.394 . S
C3127 C3128 1.383 . S
C3127 H3135 0.929 . S
C3128 C3127 1.383 . S
C3128 C3129 1.377 . S
C3129 H3113 0.930 . S
C3129 C3128 1.377 . S
C3129 C3130 1.379 . S
C3130 H3114 0.931 . S
C3130 C3124 1.383 . S
C3130 C3129 1.379 . S
H3131 C3125 0.959 . S
H3132 C3125 0.961 . S
H3133 C3125 0.960 . S
H3134 C3126 0.930 . S
H3135 C3127 0.929 . S
H3136 C3144 0.929 . S
H3137 C3146 0.930 . S
H3138 C3148 0.930 . S
H3139 C3151 0.929 . S
H3140 C3154 0.930 . S
H3141 C3156 0.960 . S
H3142 C3156 0.960 . S
H3143 C3156 0.960 . S
C3144 H3136 0.929 . S
C3144 C3145 1.377 . S
C3144 C3146 1.384 . S
C3145 C3144 1.377 . S
C3145 C3151 1.390 . S
C3146 H3137 0.930 . S
C3146 C3144 1.384 . S
C3146 C3147 1.372 . S
C3147 C3146 1.372 . S
C3147 C3148 1.400 . S
C3147 C3152 1.490 . S
C3148 H3138 0.930 . S
C3148 C3147 1.400 . S
C3148 C3151 1.386 . S
H3149 C3165 0.930 . S
H3150 C3166 0.931 . S
C3151 H3139 0.929 . S
C3151 C3145 1.390 . S
C3151 C3148 1.386 . S
C3152 C3147 1.490 . S
C3152 C3154 1.395 . S
C3152 C3155 1.403 . S
H3153 C3159 0.930 . S
C3154 H3140 0.930 . S
C3154 C3152 1.395 . S
C3154 C3157 1.403 . S
C3155 C3152 1.403 . S
C3155 C3156 1.524 . S
C3155 C3159 1.400 . S
C3156 H3141 0.960 . S
C3156 H3142 0.960 . S
C3156 H3143 0.960 . S
C3156 C3155 1.524 . S
C3157 C3154 1.403 . S
C3157 C3158 1.392 . S
C3157 C3161 1.495 . S
C3158 C3157 1.392 . S
C3158 C3159 1.385 . S
C3158 C3160 1.478 . S
C3159 H3153 0.930 . S
C3159 C3155 1.400 . S
C3159 C3158 1.385 . S
C3160 C3158 1.478 . S
C3160 C3162 1.381 . S
C3160 C3166 1.383 . S
C3161 C3157 1.495 . S
C3161 H3167 0.959 . S
C3161 H3168 0.961 . S
C3161 H3169 0.960 . S
C3162 C3160 1.381 . S
C3162 C3163 1.394 . S
C3162 H3170 0.930 . S
C3163 C3162 1.394 . S
C3163 C3164 1.383 . S
C3163 H3171 0.929 . S
C3164 C3163 1.383 . S
C3164 C3165 1.377 . S
C3165 H3149 0.930 . S
C3165 C3164 1.377 . S
C3165 C3166 1.379 . S
C3166 H3150 0.931 . S
C3166 C3160 1.383 . S
C3166 C3165 1.379 . S
H3167 C3161 0.959 . S
H3168 C3161 0.961 . S
H3169 C3161 0.960 . S
H3170 C3162 0.930 . S
H3171 C3163 0.929 . S
H3172 C3180 0.929 . S
H3173 C3182 0.930 . S
H3174 C3184 0.930 . S
H3175 C3187 0.929 . S
H3176 C3190 0.930 . S
H3177 C3192 0.960 . S
H3178 C3192 0.960 . S
H3179 C3192 0.960 . S
C3180 H3172 0.929 . S
C3180 C3181 1.377 . S
C3180 C3182 1.384 . S
C3181 C3180 1.377 . S
C3181 C3187 1.390 . S
C3182 H3173 0.930 . S
C3182 C3180 1.384 . S
C3182 C3183 1.372 . S
C3183 C3182 1.372 . S
C3183 C3184 1.400 . S
C3183 C3188 1.490 . S
C3184 H3174 0.930 . S
C3184 C3183 1.400 . S
C3184 C3187 1.386 . S
H3185 C3201 0.930 . S
H3186 C3202 0.931 . S
C3187 H3175 0.929 . S
C3187 C3181 1.390 . S
C3187 C3184 1.386 . S
C3188 C3183 1.490 . S
C3188 C3190 1.395 . S
C3188 C3191 1.403 . S
H3189 C3195 0.930 . S
C3190 H3176 0.930 . S
C3190 C3188 1.395 . S
C3190 C3193 1.403 . S
C3191 C3188 1.403 . S
C3191 C3192 1.524 . S
C3191 C3195 1.400 . S
C3192 H3177 0.960 . S
C3192 H3178 0.960 . S
C3192 H3179 0.960 . S
C3192 C3191 1.524 . S
C3193 C3190 1.403 . S
C3193 C3194 1.392 . S
C3193 C3197 1.495 . S
C3194 C3193 1.392 . S
C3194 C3195 1.385 . S
C3194 C3196 1.478 . S
C3195 H3189 0.930 . S
C3195 C3191 1.400 . S
C3195 C3194 1.385 . S
C3196 C3194 1.478 . S
C3196 C3198 1.381 . S
C3196 C3202 1.383 . S
C3197 C3193 1.495 . S
C3197 H3203 0.959 . S
C3197 H3204 0.961 . S
C3197 H3205 0.960 . S
C3198 C3196 1.381 . S
C3198 C3199 1.394 . S
C3198 H3206 0.930 . S
C3199 C3198 1.394 . S
C3199 C3200 1.383 . S
C3199 H3207 0.929 . S
C3200 C3199 1.383 . S
C3200 C3201 1.377 . S
C3201 H3185 0.930 . S
C3201 C3200 1.377 . S
C3201 C3202 1.379 . S
C3202 H3186 0.931 . S
C3202 C3196 1.383 . S
C3202 C3201 1.379 . S
H3203 C3197 0.959 . S
H3204 C3197 0.961 . S
H3205 C3197 0.960 . S
H3206 C3198 0.930 . S
H3207 C3199 0.929 . S
H3208 C3216 0.929 . S
H3209 C3218 0.930 . S
H3210 C3220 0.930 . S
H3211 C3223 0.929 . S
H3212 C3226 0.930 . S
H3213 C3228 0.960 . S
H3214 C3228 0.960 . S
H3215 C3228 0.960 . S
C3216 H3208 0.929 . S
C3216 C3217 1.377 . S
C3216 C3218 1.384 . S
C3217 C3216 1.377 . S
C3217 C3223 1.390 . S
C3218 H3209 0.930 . S
C3218 C3216 1.384 . S
C3218 C3219 1.372 . S
C3219 C3218 1.372 . S
C3219 C3220 1.400 . S
C3219 C3224 1.490 . S
C3220 H3210 0.930 . S
C3220 C3219 1.400 . S
C3220 C3223 1.386 . S
H3221 C3237 0.930 . S
H3222 C3238 0.931 . S
C3223 H3211 0.929 . S
C3223 C3217 1.390 . S
C3223 C3220 1.386 . S
C3224 C3219 1.490 . S
C3224 C3226 1.395 . S
C3224 C3227 1.403 . S
H3225 C3231 0.930 . S
C3226 H3212 0.930 . S
C3226 C3224 1.395 . S
C3226 C3229 1.403 . S
C3227 C3224 1.403 . S
C3227 C3228 1.524 . S
C3227 C3231 1.400 . S
C3228 H3213 0.960 . S
C3228 H3214 0.960 . S
C3228 H3215 0.960 . S
C3228 C3227 1.524 . S
C3229 C3226 1.403 . S
C3229 C3230 1.392 . S
C3229 C3233 1.495 . S
C3230 C3229 1.392 . S
C3230 C3231 1.385 . S
C3230 C3232 1.478 . S
C3231 H3225 0.930 . S
C3231 C3227 1.400 . S
C3231 C3230 1.385 . S
C3232 C3230 1.478 . S
C3232 C3234 1.381 . S
C3232 C3238 1.383 . S
C3233 C3229 1.495 . S
C3233 H3239 0.959 . S
C3233 H3240 0.961 . S
C3233 H3241 0.960 . S
C3234 C3232 1.381 . S
C3234 C3235 1.394 . S
C3234 H3242 0.930 . S
C3235 C3234 1.394 . S
C3235 C3236 1.383 . S
C3235 H3243 0.929 . S
C3236 C3235 1.383 . S
C3236 C3237 1.377 . S
C3237 H3221 0.930 . S
C3237 C3236 1.377 . S
C3237 C3238 1.379 . S
C3238 H3222 0.931 . S
C3238 C3232 1.383 . S
C3238 C3237 1.379 . S
H3239 C3233 0.959 . S
H3240 C3233 0.961 . S
H3241 C3233 0.960 . S
H3242 C3234 0.930 . S
H3243 C3235 0.929 . S
H3244 C3252 0.929 . S
H3245 C3254 0.930 . S
H3246 C3256 0.930 . S
H3247 C3259 0.929 1_545 S
H3248 C3262 0.930 . S
H3249 C3264 0.960 . S
H3250 C3264 0.960 . S
H3251 C3264 0.960 . S
C3252 H3244 0.929 . S
C3252 C3253 1.377 . S
C3252 C3254 1.384 . S
C3253 C3252 1.377 . S
C3253 C3259 1.390 . S
C3254 H3245 0.930 . S
C3254 C3252 1.384 . S
C3254 C3255 1.372 . S
C3255 C3254 1.372 . S
C3255 C3256 1.400 . S
C3255 C3260 1.490 . S
C3256 H3246 0.930 . S
C3256 C3255 1.400 . S
C3256 C3259 1.386 . S
H3257 C3273 0.930 . S
H3258 C3274 0.931 . S
C3259 H3247 0.929 1_565 S
C3259 C3253 1.390 . S
C3259 C3256 1.386 . S
C3260 C3255 1.490 . S
C3260 C3262 1.395 . S
C3260 C3263 1.403 . S
H3261 C3267 0.930 . S
C3262 H3248 0.930 . S
C3262 C3260 1.395 . S
C3262 C3265 1.403 1_655 S
C3263 C3260 1.403 . S
C3263 C3264 1.524 . S
C3263 C3267 1.400 . S
C3264 H3249 0.960 . S
C3264 H3250 0.960 . S
C3264 H3251 0.960 . S
C3264 C3263 1.524 . S
C3265 C3262 1.403 1_455 S
C3265 C3266 1.392 . S
C3265 C3269 1.495 . S
C3266 C3265 1.392 . S
C3266 C3267 1.385 1_455 S
C3266 C3268 1.478 . S
C3267 H3261 0.930 . S
C3267 C3263 1.400 . S
C3267 C3266 1.385 1_655 S
C3268 C3266 1.478 . S
C3268 C3270 1.381 . S
C3268 C3274 1.383 . S
C3269 C3265 1.495 . S
C3269 H3275 0.959 . S
C3269 H3276 0.961 . S
C3269 H3277 0.960 . S
C3270 C3268 1.381 . S
C3270 C3271 1.394 . S
C3270 H3278 0.930 . S
C3271 C3270 1.394 . S
C3271 C3272 1.383 . S
C3271 H3279 0.929 . S
C3272 C3271 1.383 . S
C3272 C3273 1.377 . S
C3273 H3257 0.930 . S
C3273 C3272 1.377 . S
C3273 C3274 1.379 . S
C3274 H3258 0.931 . S
C3274 C3268 1.383 . S
C3274 C3273 1.379 . S
H3275 C3269 0.959 . S
H3276 C3269 0.961 . S
H3277 C3269 0.960 . S
H3278 C3270 0.930 . S
H3279 C3271 0.929 . S
H3280 C3288 0.929 . S
H3281 C3290 0.930 . S
H3282 C3292 0.930 . S
H3283 C3295 0.929 . S
H3284 C3298 0.930 . S
H3285 C3300 0.960 . S
H3286 C3300 0.960 . S
H3287 C3300 0.960 . S
C3288 H3280 0.929 . S
C3288 C3289 1.377 . S
C3288 C3290 1.384 . S
C3289 C3288 1.377 . S
C3289 C3295 1.390 . S
C3290 H3281 0.930 . S
C3290 C3288 1.384 . S
C3290 C3291 1.372 . S
C3291 C3290 1.372 . S
C3291 C3292 1.400 . S
C3291 C3296 1.490 . S
C3292 H3282 0.930 . S
C3292 C3291 1.400 . S
C3292 C3295 1.386 . S
H3293 C3309 0.930 . S
H3294 C3310 0.931 . S
C3295 H3283 0.929 . S
C3295 C3289 1.390 . S
C3295 C3292 1.386 . S
C3296 C3291 1.490 . S
C3296 C3298 1.395 . S
C3296 C3299 1.403 . S
H3297 C3303 0.930 . S
C3298 H3284 0.930 . S
C3298 C3296 1.395 . S
C3298 C3301 1.403 . S
C3299 C3296 1.403 . S
C3299 C3300 1.524 . S
C3299 C3303 1.400 . S
C3300 H3285 0.960 . S
C3300 H3286 0.960 . S
C3300 H3287 0.960 . S
C3300 C3299 1.524 . S
C3301 C3298 1.403 . S
C3301 C3302 1.392 . S
C3301 C3305 1.495 . S
C3302 C3301 1.392 . S
C3302 C3303 1.385 . S
C3302 C3304 1.478 . S
C3303 H3297 0.930 . S
C3303 C3299 1.400 . S
C3303 C3302 1.385 . S
C3304 C3302 1.478 . S
C3304 C3306 1.381 . S
C3304 C3310 1.383 . S
C3305 C3301 1.495 . S
C3305 H3311 0.959 . S
C3305 H3312 0.961 . S
C3305 H3313 0.960 . S
C3306 C3304 1.381 . S
C3306 C3307 1.394 . S
C3306 H3314 0.930 . S
C3307 C3306 1.394 . S
C3307 C3308 1.383 . S
C3307 H3315 0.929 . S
C3308 C3307 1.383 . S
C3308 C3309 1.377 . S
C3309 H3293 0.930 . S
C3309 C3308 1.377 . S
C3309 C3310 1.379 . S
C3310 H3294 0.931 . S
C3310 C3304 1.383 . S
C3310 C3309 1.379 . S
H3311 C3305 0.959 . S
H3312 C3305 0.961 . S
H3313 C3305 0.960 . S
H3314 C3306 0.930 . S
H3315 C3307 0.929 . S
H3316 C3324 0.929 . S
H3317 C3326 0.930 . S
H3318 C3328 0.930 . S
H3319 C3331 0.929 . S
H3320 C3334 0.930 . S
H3321 C3336 0.960 1_554 S
H3322 C3336 0.960 . S
H3323 C3336 0.960 . S
C3324 H3316 0.929 . S
C3324 C3325 1.377 . S
C3324 C3326 1.384 . S
C3325 C3324 1.377 . S
C3325 C3331 1.390 . S
C3326 H3317 0.930 . S
C3326 C3324 1.384 . S
C3326 C3327 1.372 . S
C3327 C3326 1.372 . S
C3327 C3328 1.400 . S
C3327 C3332 1.490 . S
C3328 H3318 0.930 . S
C3328 C3327 1.400 . S
C3328 C3331 1.386 . S
H3329 C3345 0.930 . S
H3330 C3346 0.931 . S
C3331 H3319 0.929 . S
C3331 C3325 1.390 . S
C3331 C3328 1.386 . S
C3332 C3327 1.490 . S
C3332 C3334 1.395 . S
C3332 C3335 1.403 . S
H3333 C3339 0.930 . S
C3334 H3320 0.930 . S
C3334 C3332 1.395 . S
C3334 C3337 1.403 . S
C3335 C3332 1.403 . S
C3335 C3336 1.524 . S
C3335 C3339 1.400 1_556 S
C3336 H3321 0.960 1_556 S
C3336 H3322 0.960 . S
C3336 H3323 0.960 . S
C3336 C3335 1.524 . S
C3337 C3334 1.403 . S
C3337 C3338 1.392 1_556 S
C3337 C3341 1.495 . S
C3338 C3337 1.392 1_554 S
C3338 C3339 1.385 . S
C3338 C3340 1.478 . S
C3339 H3333 0.930 . S
C3339 C3335 1.400 1_554 S
C3339 C3338 1.385 . S
C3340 C3338 1.478 . S
C3340 C3342 1.381 . S
C3340 C3346 1.383 . S
C3341 C3337 1.495 . S
C3341 H3347 0.959 . S
C3341 H3348 0.961 . S
C3341 H3349 0.960 . S
C3342 C3340 1.381 . S
C3342 C3343 1.394 . S
C3342 H3350 0.930 . S
C3343 C3342 1.394 . S
C3343 C3344 1.383 . S
C3343 H3351 0.929 . S
C3344 C3343 1.383 . S
C3344 C3345 1.377 . S
C3345 H3329 0.930 . S
C3345 C3344 1.377 . S
C3345 C3346 1.379 . S
C3346 H3330 0.931 . S
C3346 C3340 1.383 . S
C3346 C3345 1.379 . S
H3347 C3341 0.959 . S
H3348 C3341 0.961 . S
H3349 C3341 0.960 . S
H3350 C3342 0.930 . S
H3351 C3343 0.929 . S
H3352 C3360 0.929 . S
H3353 C3362 0.930 . S
H3354 C3364 0.930 . S
H3355 C3367 0.929 . S
H3356 C3370 0.930 . S
H3357 C3372 0.960 . S
H3358 C3372 0.960 . S
H3359 C3372 0.960 . S
C3360 H3352 0.929 . S
C3360 C3361 1.377 . S
C3360 C3362 1.384 . S
C3361 C3360 1.377 . S
C3361 C3367 1.390 . S
C3362 H3353 0.930 . S
C3362 C3360 1.384 . S
C3362 C3363 1.372 . S
C3363 C3362 1.372 . S
C3363 C3364 1.400 . S
C3363 C3368 1.490 . S
C3364 H3354 0.930 . S
C3364 C3363 1.400 . S
C3364 C3367 1.386 . S
H3365 C3381 0.930 . S
H3366 C3382 0.931 . S
C3367 H3355 0.929 . S
C3367 C3361 1.390 . S
C3367 C3364 1.386 . S
C3368 C3363 1.490 . S
C3368 C3370 1.395 . S
C3368 C3371 1.403 . S
H3369 C3375 0.930 . S
C3370 H3356 0.930 . S
C3370 C3368 1.395 . S
C3370 C3373 1.403 . S
C3371 C3368 1.403 . S
C3371 C3372 1.524 . S
C3371 C3375 1.400 . S
C3372 H3357 0.960 . S
C3372 H3358 0.960 . S
C3372 H3359 0.960 . S
C3372 C3371 1.524 . S
C3373 C3370 1.403 . S
C3373 C3374 1.392 . S
C3373 C3377 1.495 . S
C3374 C3373 1.392 . S
C3374 C3375 1.385 . S
C3374 C3376 1.478 . S
C3375 H3369 0.930 . S
C3375 C3371 1.400 . S
C3375 C3374 1.385 . S
C3376 C3374 1.478 . S
C3376 C3378 1.381 . S
C3376 C3382 1.383 . S
C3377 C3373 1.495 . S
C3377 H3383 0.959 . S
C3377 H3384 0.961 . S
C3377 H3385 0.960 . S
C3378 C3376 1.381 . S
C3378 C3379 1.394 . S
C3378 H3386 0.930 . S
C3379 C3378 1.394 . S
C3379 C3380 1.383 . S
C3379 H3387 0.929 . S
C3380 C3379 1.383 . S
C3380 C3381 1.377 . S
C3381 H3365 0.930 . S
C3381 C3380 1.377 . S
C3381 C3382 1.379 . S
C3382 H3366 0.931 . S
C3382 C3376 1.383 . S
C3382 C3381 1.379 . S
H3383 C3377 0.959 . S
H3384 C3377 0.961 . S
H3385 C3377 0.960 . S
H3386 C3378 0.930 . S
H3387 C3379 0.929 . S
H3388 C3396 0.929 . S
H3389 C3398 0.930 . S
H3390 C3400 0.930 . S
H3391 C3403 0.929 . S
H3392 C3406 0.930 . S
H3393 C3408 0.960 . S
H3394 C3408 0.960 . S
H3395 C3408 0.960 . S
C3396 H3388 0.929 . S
C3396 C3397 1.377 . S
C3396 C3398 1.384 . S
C3397 C3396 1.377 . S
C3397 C3403 1.390 . S
C3398 H3389 0.930 . S
C3398 C3396 1.384 . S
C3398 C3399 1.372 . S
C3399 C3398 1.372 . S
C3399 C3400 1.400 . S
C3399 C3404 1.490 . S
C3400 H3390 0.930 . S
C3400 C3399 1.400 . S
C3400 C3403 1.386 . S
H3401 C3417 0.930 . S
H3402 C3418 0.931 . S
C3403 H3391 0.929 . S
C3403 C3397 1.390 . S
C3403 C3400 1.386 . S
C3404 C3399 1.490 . S
C3404 C3406 1.395 . S
C3404 C3407 1.403 . S
H3405 C3411 0.930 . S
C3406 H3392 0.930 . S
C3406 C3404 1.395 . S
C3406 C3409 1.403 . S
C3407 C3404 1.403 . S
C3407 C3408 1.524 . S
C3407 C3411 1.400 . S
C3408 H3393 0.960 . S
C3408 H3394 0.960 . S
C3408 H3395 0.960 . S
C3408 C3407 1.524 . S
C3409 C3406 1.403 . S
C3409 C3410 1.392 . S
C3409 C3413 1.495 . S
C3410 C3409 1.392 . S
C3410 C3411 1.385 . S
C3410 C3412 1.478 . S
C3411 H3405 0.930 . S
C3411 C3407 1.400 . S
C3411 C3410 1.385 . S
C3412 C3410 1.478 . S
C3412 C3414 1.381 . S
C3412 C3418 1.383 . S
C3413 C3409 1.495 . S
C3413 H3419 0.959 . S
C3413 H3420 0.961 . S
C3413 H3421 0.960 . S
C3414 C3412 1.381 . S
C3414 C3415 1.394 . S
C3414 H3422 0.930 . S
C3415 C3414 1.394 . S
C3415 C3416 1.383 . S
C3415 H3423 0.929 . S
C3416 C3415 1.383 . S
C3416 C3417 1.377 . S
C3417 H3401 0.930 . S
C3417 C3416 1.377 . S
C3417 C3418 1.379 . S
C3418 H3402 0.931 . S
C3418 C3412 1.383 . S
C3418 C3417 1.379 . S
H3419 C3413 0.959 . S
H3420 C3413 0.961 . S
H3421 C3413 0.960 . S
H3422 C3414 0.930 . S
H3423 C3415 0.929 . S
H3424 C3432 0.929 . S
H3425 C3434 0.930 . S
H3426 C3436 0.930 . S
H3427 C3439 0.929 . S
H3428 C3442 0.930 . S
H3429 C3444 0.960 . S
H3430 C3444 0.960 . S
H3431 C3444 0.960 . S
C3432 H3424 0.929 . S
C3432 C3433 1.377 . S
C3432 C3434 1.384 . S
C3433 C3432 1.377 . S
C3433 C3439 1.390 . S
C3434 H3425 0.930 . S
C3434 C3432 1.384 . S
C3434 C3435 1.372 . S
C3435 C3434 1.372 . S
C3435 C3436 1.400 . S
C3435 C3440 1.490 . S
C3436 H3426 0.930 . S
C3436 C3435 1.400 . S
C3436 C3439 1.386 . S
H3437 C3453 0.930 . S
H3438 C3454 0.931 . S
C3439 H3427 0.929 . S
C3439 C3433 1.390 . S
C3439 C3436 1.386 . S
C3440 C3435 1.490 . S
C3440 C3442 1.395 . S
C3440 C3443 1.403 . S
H3441 C3447 0.930 . S
C3442 H3428 0.930 . S
C3442 C3440 1.395 . S
C3442 C3445 1.403 . S
C3443 C3440 1.403 . S
C3443 C3444 1.524 . S
C3443 C3447 1.400 . S
C3444 H3429 0.960 . S
C3444 H3430 0.960 . S
C3444 H3431 0.960 . S
C3444 C3443 1.524 . S
C3445 C3442 1.403 . S
C3445 C3446 1.392 . S
C3445 C3449 1.495 . S
C3446 C3445 1.392 . S
C3446 C3447 1.385 . S
C3446 C3448 1.478 . S
C3447 H3441 0.930 . S
C3447 C3443 1.400 . S
C3447 C3446 1.385 . S
C3448 C3446 1.478 . S
C3448 C3450 1.381 . S
C3448 C3454 1.383 . S
C3449 C3445 1.495 . S
C3449 H3455 0.959 . S
C3449 H3456 0.961 . S
C3449 H3457 0.960 . S
C3450 C3448 1.381 . S
C3450 C3451 1.394 . S
C3450 H3458 0.930 . S
C3451 C3450 1.394 . S
C3451 C3452 1.383 . S
C3451 H3459 0.929 . S
C3452 C3451 1.383 . S
C3452 C3453 1.377 . S
C3453 H3437 0.930 . S
C3453 C3452 1.377 . S
C3453 C3454 1.379 . S
C3454 H3438 0.931 . S
C3454 C3448 1.383 . S
C3454 C3453 1.379 . S
H3455 C3449 0.959 . S
H3456 C3449 0.961 . S
H3457 C3449 0.960 . S
H3458 C3450 0.930 . S
H3459 C3451 0.929 . S
H3460 C3468 0.929 . S
H3461 C3470 0.930 . S
H3462 C3472 0.930 . S
H3463 C3475 0.929 . S
H3464 C3478 0.930 . S
H3465 C3480 0.960 . S
H3466 C3480 0.960 . S
H3467 C3480 0.960 . S
C3468 H3460 0.929 . S
C3468 C3469 1.377 . S
C3468 C3470 1.384 . S
C3469 C3468 1.377 . S
C3469 C3475 1.390 . S
C3470 H3461 0.930 . S
C3470 C3468 1.384 . S
C3470 C3471 1.372 . S
C3471 C3470 1.372 . S
C3471 C3472 1.400 . S
C3471 C3476 1.490 . S
C3472 H3462 0.930 . S
C3472 C3471 1.400 . S
C3472 C3475 1.386 . S
H3473 C3489 0.930 . S
H3474 C3490 0.931 . S
C3475 H3463 0.929 . S
C3475 C3469 1.390 . S
C3475 C3472 1.386 . S
C3476 C3471 1.490 . S
C3476 C3478 1.395 . S
C3476 C3479 1.403 . S
H3477 C3483 0.930 . S
C3478 H3464 0.930 . S
C3478 C3476 1.395 . S
C3478 C3481 1.403 1_554 S
C3479 C3476 1.403 . S
C3479 C3480 1.524 . S
C3479 C3483 1.400 . S
C3480 H3465 0.960 . S
C3480 H3466 0.960 . S
C3480 H3467 0.960 . S
C3480 C3479 1.524 . S
C3481 C3478 1.403 1_556 S
C3481 C3482 1.392 . S
C3481 C3485 1.495 . S
C3482 C3481 1.392 . S
C3482 C3483 1.385 1_556 S
C3482 C3484 1.478 . S
C3483 H3477 0.930 . S
C3483 C3479 1.400 . S
C3483 C3482 1.385 1_554 S
C3484 C3482 1.478 . S
C3484 C3486 1.381 . S
C3484 C3490 1.383 . S
C3485 C3481 1.495 . S
C3485 H3491 0.959 . S
C3485 H3492 0.961 . S
C3485 H3493 0.960 . S
C3486 C3484 1.381 . S
C3486 C3487 1.394 . S
C3486 H3494 0.930 . S
C3487 C3486 1.394 . S
C3487 C3488 1.383 . S
C3487 H3495 0.929 . S
C3488 C3487 1.383 . S
C3488 C3489 1.377 . S
C3489 H3473 0.930 . S
C3489 C3488 1.377 . S
C3489 C3490 1.379 . S
C3490 H3474 0.931 . S
C3490 C3484 1.383 . S
C3490 C3489 1.379 . S
H3491 C3485 0.959 . S
H3492 C3485 0.961 . S
H3493 C3485 0.960 . S
H3494 C3486 0.930 . S
H3495 C3487 0.929 . S
H3496 C3504 0.929 . S
H3497 C3506 0.930 . S
H3498 C3508 0.930 . S
H3499 C3511 0.929 . S
H3500 C3514 0.930 . S
H3501 C3516 0.960 . S
H3502 C3516 0.960 . S
H3503 C3516 0.960 . S
C3504 H3496 0.929 . S
C3504 C3505 1.377 . S
C3504 C3506 1.384 . S
C3505 C3504 1.377 . S
C3505 C3511 1.390 . S
C3506 H3497 0.930 . S
C3506 C3504 1.384 . S
C3506 C3507 1.372 . S
C3507 C3506 1.372 . S
C3507 C3508 1.400 . S
C3507 C3512 1.490 . S
C3508 H3498 0.930 . S
C3508 C3507 1.400 . S
C3508 C3511 1.386 . S
H3509 C3525 0.930 . S
H3510 C3526 0.931 . S
C3511 H3499 0.929 . S
C3511 C3505 1.390 . S
C3511 C3508 1.386 . S
C3512 C3507 1.490 . S
C3512 C3514 1.395 . S
C3512 C3515 1.403 . S
H3513 C3519 0.930 . S
C3514 H3500 0.930 . S
C3514 C3512 1.395 . S
C3514 C3517 1.403 . S
C3515 C3512 1.403 . S
C3515 C3516 1.524 . S
C3515 C3519 1.400 . S
C3516 H3501 0.960 . S
C3516 H3502 0.960 . S
C3516 H3503 0.960 . S
C3516 C3515 1.524 . S
C3517 C3514 1.403 . S
C3517 C3518 1.392 . S
C3517 C3521 1.495 . S
C3518 C3517 1.392 . S
C3518 C3519 1.385 . S
C3518 C3520 1.478 . S
C3519 H3513 0.930 . S
C3519 C3515 1.400 . S
C3519 C3518 1.385 . S
C3520 C3518 1.478 . S
C3520 C3522 1.381 . S
C3520 C3526 1.383 . S
C3521 C3517 1.495 . S
C3521 H3527 0.959 . S
C3521 H3528 0.961 . S
C3521 H3529 0.960 . S
C3522 C3520 1.381 . S
C3522 C3523 1.394 . S
C3522 H3530 0.930 . S
C3523 C3522 1.394 . S
C3523 C3524 1.383 . S
C3523 H3531 0.929 . S
C3524 C3523 1.383 . S
C3524 C3525 1.377 . S
C3525 H3509 0.930 . S
C3525 C3524 1.377 . S
C3525 C3526 1.379 . S
C3526 H3510 0.931 . S
C3526 C3520 1.383 . S
C3526 C3525 1.379 . S
H3527 C3521 0.959 . S
H3528 C3521 0.961 . S
H3529 C3521 0.960 . S
H3530 C3522 0.930 . S
H3531 C3523 0.929 . S
H3532 C3540 0.929 . S
H3533 C3542 0.930 . S
H3534 C3544 0.930 . S
H3535 C3547 0.929 . S
H3536 C3550 0.930 . S
H3537 C3552 0.960 . S
H3538 C3552 0.960 . S
H3539 C3552 0.960 . S
C3540 H3532 0.929 . S
C3540 C3541 1.377 . S
C3540 C3542 1.384 . S
C3541 C3540 1.377 . S
C3541 C3547 1.390 . S
C3542 H3533 0.930 . S
C3542 C3540 1.384 . S
C3542 C3543 1.372 . S
C3543 C3542 1.372 . S
C3543 C3544 1.400 . S
C3543 C3548 1.490 . S
C3544 H3534 0.930 . S
C3544 C3543 1.400 . S
C3544 C3547 1.386 . S
H3545 C3561 0.930 . S
H3546 C3562 0.931 . S
C3547 H3535 0.929 . S
C3547 C3541 1.390 . S
C3547 C3544 1.386 . S
C3548 C3543 1.490 . S
C3548 C3550 1.395 . S
C3548 C3551 1.403 . S
H3549 C3555 0.930 . S
C3550 H3536 0.930 . S
C3550 C3548 1.395 . S
C3550 C3553 1.403 . S
C3551 C3548 1.403 . S
C3551 C3552 1.524 . S
C3551 C3555 1.400 . S
C3552 H3537 0.960 . S
C3552 H3538 0.960 . S
C3552 H3539 0.960 . S
C3552 C3551 1.524 . S
C3553 C3550 1.403 . S
C3553 C3554 1.392 . S
C3553 C3557 1.495 . S
C3554 C3553 1.392 . S
C3554 C3555 1.385 . S
C3554 C3556 1.478 . S
C3555 H3549 0.930 . S
C3555 C3551 1.400 . S
C3555 C3554 1.385 . S
C3556 C3554 1.478 . S
C3556 C3558 1.381 . S
C3556 C3562 1.383 . S
C3557 C3553 1.495 . S
C3557 H3563 0.959 . S
C3557 H3564 0.961 . S
C3557 H3565 0.960 . S
C3558 C3556 1.381 . S
C3558 C3559 1.394 . S
C3558 H3566 0.930 . S
C3559 C3558 1.394 . S
C3559 C3560 1.383 . S
C3559 H3567 0.929 . S
C3560 C3559 1.383 . S
C3560 C3561 1.377 . S
C3561 H3545 0.930 . S
C3561 C3560 1.377 . S
C3561 C3562 1.379 . S
C3562 H3546 0.931 . S
C3562 C3556 1.383 . S
C3562 C3561 1.379 . S
H3563 C3557 0.959 . S
H3564 C3557 0.961 . S
H3565 C3557 0.960 . S
H3566 C3558 0.930 . S
H3567 C3559 0.929 . S
H3568 C3576 0.929 . S
H3569 C3578 0.930 . S
H3570 C3580 0.930 . S
H3571 C3583 0.929 . S
H3572 C3586 0.930 . S
H3573 C3588 0.960 . S
H3574 C3588 0.960 . S
H3575 C3588 0.960 . S
C3576 H3568 0.929 . S
C3576 C3577 1.377 . S
C3576 C3578 1.384 . S
C3577 C3576 1.377 . S
C3577 C3583 1.390 . S
C3578 H3569 0.930 . S
C3578 C3576 1.384 . S
C3578 C3579 1.372 . S
C3579 C3578 1.372 . S
C3579 C3580 1.400 . S
C3579 C3584 1.490 . S
C3580 H3570 0.930 . S
C3580 C3579 1.400 . S
C3580 C3583 1.386 . S
H3581 C3597 0.930 . S
H3582 C3598 0.931 . S
C3583 H3571 0.929 . S
C3583 C3577 1.390 . S
C3583 C3580 1.386 . S
C3584 C3579 1.490 . S
C3584 C3586 1.395 . S
C3584 C3587 1.403 . S
H3585 C3591 0.930 . S
C3586 H3572 0.930 . S
C3586 C3584 1.395 . S
C3586 C3589 1.403 . S
C3587 C3584 1.403 . S
C3587 C3588 1.524 . S
C3587 C3591 1.400 . S
C3588 H3573 0.960 . S
C3588 H3574 0.960 . S
C3588 H3575 0.960 . S
C3588 C3587 1.524 . S
C3589 C3586 1.403 . S
C3589 C3590 1.392 . S
C3589 C3593 1.495 . S
C3590 C3589 1.392 . S
C3590 C3591 1.385 . S
C3590 C3592 1.478 . S
C3591 H3585 0.930 . S
C3591 C3587 1.400 . S
C3591 C3590 1.385 . S
C3592 C3590 1.478 . S
C3592 C3594 1.381 . S
C3592 C3598 1.383 . S
C3593 C3589 1.495 . S
C3593 H3599 0.959 . S
C3593 H3600 0.961 . S
C3593 H3601 0.960 . S
C3594 C3592 1.381 . S
C3594 C3595 1.394 . S
C3594 H3602 0.930 . S
C3595 C3594 1.394 . S
C3595 C3596 1.383 . S
C3595 H3603 0.929 . S
C3596 C3595 1.383 . S
C3596 C3597 1.377 . S
C3597 H3581 0.930 . S
C3597 C3596 1.377 . S
C3597 C3598 1.379 . S
C3598 H3582 0.931 . S
C3598 C3592 1.383 . S
C3598 C3597 1.379 . S
H3599 C3593 0.959 . S
H3600 C3593 0.961 . S
H3601 C3593 0.960 . S
H3602 C3594 0.930 . S
H3603 C3595 0.929 . S
H3604 C3612 0.929 . S
H3605 C3614 0.930 . S
H3606 C3616 0.930 . S
H3607 C3619 0.929 . S
H3608 C3622 0.930 . S
H3609 C3624 0.960 . S
H3610 C3624 0.960 . S
H3611 C3624 0.960 . S
C3612 H3604 0.929 . S
C3612 C3613 1.377 . S
C3612 C3614 1.384 . S
C3613 C3612 1.377 . S
C3613 C3619 1.390 . S
C3614 H3605 0.930 . S
C3614 C3612 1.384 . S
C3614 C3615 1.372 . S
C3615 C3614 1.372 . S
C3615 C3616 1.400 . S
C3615 C3620 1.490 . S
C3616 H3606 0.930 . S
C3616 C3615 1.400 . S
C3616 C3619 1.386 . S
H3617 C3633 0.930 . S
H3618 C3634 0.931 . S
C3619 H3607 0.929 . S
C3619 C3613 1.390 . S
C3619 C3616 1.386 . S
C3620 C3615 1.490 . S
C3620 C3622 1.395 . S
C3620 C3623 1.403 . S
H3621 C3627 0.930 . S
C3622 H3608 0.930 . S
C3622 C3620 1.395 . S
C3622 C3625 1.403 . S
C3623 C3620 1.403 . S
C3623 C3624 1.524 . S
C3623 C3627 1.400 . S
C3624 H3609 0.960 . S
C3624 H3610 0.960 . S
C3624 H3611 0.960 . S
C3624 C3623 1.524 . S
C3625 C3622 1.403 . S
C3625 C3626 1.392 . S
C3625 C3629 1.495 . S
C3626 C3625 1.392 . S
C3626 C3627 1.385 . S
C3626 C3628 1.478 . S
C3627 H3621 0.930 . S
C3627 C3623 1.400 . S
C3627 C3626 1.385 . S
C3628 C3626 1.478 . S
C3628 C3630 1.381 . S
C3628 C3634 1.383 . S
C3629 C3625 1.495 . S
C3629 H3635 0.959 . S
C3629 H3636 0.961 . S
C3629 H3637 0.960 . S
C3630 C3628 1.381 . S
C3630 C3631 1.394 . S
C3630 H3638 0.930 . S
C3631 C3630 1.394 . S
C3631 C3632 1.383 . S
C3631 H3639 0.929 . S
C3632 C3631 1.383 . S
C3632 C3633 1.377 . S
C3633 H3617 0.930 . S
C3633 C3632 1.377 . S
C3633 C3634 1.379 . S
C3634 H3618 0.931 . S
C3634 C3628 1.383 . S
C3634 C3633 1.379 . S
H3635 C3629 0.959 . S
H3636 C3629 0.961 . S
H3637 C3629 0.960 . S
H3638 C3630 0.930 . S
H3639 C3631 0.929 . S
H3640 C3648 0.929 . S
H3641 C3650 0.930 . S
H3642 C3652 0.930 . S
H3643 C3655 0.929 . S
H3644 C3658 0.930 . S
H3645 C3660 0.960 . S
H3646 C3660 0.960 . S
H3647 C3660 0.960 . S
C3648 H3640 0.929 . S
C3648 C3649 1.377 . S
C3648 C3650 1.384 . S
C3649 C3648 1.377 . S
C3649 C3655 1.390 . S
C3650 H3641 0.930 . S
C3650 C3648 1.384 . S
C3650 C3651 1.372 . S
C3651 C3650 1.372 . S
C3651 C3652 1.400 . S
C3651 C3656 1.490 . S
C3652 H3642 0.930 . S
C3652 C3651 1.400 . S
C3652 C3655 1.386 . S
H3653 C3669 0.930 . S
H3654 C3670 0.931 . S
C3655 H3643 0.929 . S
C3655 C3649 1.390 . S
C3655 C3652 1.386 . S
C3656 C3651 1.490 . S
C3656 C3658 1.395 . S
C3656 C3659 1.403 . S
H3657 C3663 0.930 . S
C3658 H3644 0.930 . S
C3658 C3656 1.395 . S
C3658 C3661 1.403 . S
C3659 C3656 1.403 . S
C3659 C3660 1.524 . S
C3659 C3663 1.400 . S
C3660 H3645 0.960 . S
C3660 H3646 0.960 . S
C3660 H3647 0.960 . S
C3660 C3659 1.524 . S
C3661 C3658 1.403 . S
C3661 C3662 1.392 . S
C3661 C3665 1.495 . S
C3662 C3661 1.392 . S
C3662 C3663 1.385 . S
C3662 C3664 1.478 . S
C3663 H3657 0.930 . S
C3663 C3659 1.400 . S
C3663 C3662 1.385 . S
C3664 C3662 1.478 . S
C3664 C3666 1.381 . S
C3664 C3670 1.383 . S
C3665 C3661 1.495 . S
C3665 H3671 0.959 . S
C3665 H3672 0.961 . S
C3665 H3673 0.960 . S
C3666 C3664 1.381 . S
C3666 C3667 1.394 . S
C3666 H3674 0.930 . S
C3667 C3666 1.394 . S
C3667 C3668 1.383 . S
C3667 H3675 0.929 . S
C3668 C3667 1.383 . S
C3668 C3669 1.377 . S
C3669 H3653 0.930 . S
C3669 C3668 1.377 . S
C3669 C3670 1.379 . S
C3670 H3654 0.931 . S
C3670 C3664 1.383 . S
C3670 C3669 1.379 . S
H3671 C3665 0.959 . S
H3672 C3665 0.961 . S
H3673 C3665 0.960 . S
H3674 C3666 0.930 . S
H3675 C3667 0.929 . S
H3676 C3684 0.929 . S
H3677 C3686 0.930 . S
H3678 C3688 0.930 . S
H3679 C3691 0.929 . S
H3680 C3694 0.930 . S
H3681 C3696 0.960 . S
H3682 C3696 0.960 . S
H3683 C3696 0.960 . S
C3684 H3676 0.929 . S
C3684 C3685 1.377 . S
C3684 C3686 1.384 . S
C3685 C3684 1.377 . S
C3685 C3691 1.390 . S
C3686 H3677 0.930 . S
C3686 C3684 1.384 . S
C3686 C3687 1.372 . S
C3687 C3686 1.372 . S
C3687 C3688 1.400 . S
C3687 C3692 1.490 . S
C3688 H3678 0.930 . S
C3688 C3687 1.400 . S
C3688 C3691 1.386 . S
H3689 C3705 0.930 . S
H3690 C3706 0.931 . S
C3691 H3679 0.929 . S
C3691 C3685 1.390 . S
C3691 C3688 1.386 . S
C3692 C3687 1.490 . S
C3692 C3694 1.395 . S
C3692 C3695 1.403 . S
H3693 C3699 0.930 . S
C3694 H3680 0.930 . S
C3694 C3692 1.395 . S
C3694 C3697 1.403 . S
C3695 C3692 1.403 . S
C3695 C3696 1.524 . S
C3695 C3699 1.400 . S
C3696 H3681 0.960 . S
C3696 H3682 0.960 . S
C3696 H3683 0.960 . S
C3696 C3695 1.524 . S
C3697 C3694 1.403 . S
C3697 C3698 1.392 . S
C3697 C3701 1.495 . S
C3698 C3697 1.392 . S
C3698 C3699 1.385 . S
C3698 C3700 1.478 . S
C3699 H3693 0.930 . S
C3699 C3695 1.400 . S
C3699 C3698 1.385 . S
C3700 C3698 1.478 . S
C3700 C3702 1.381 . S
C3700 C3706 1.383 . S
C3701 C3697 1.495 . S
C3701 H3707 0.959 . S
C3701 H3708 0.961 . S
C3701 H3709 0.960 . S
C3702 C3700 1.381 . S
C3702 C3703 1.394 . S
C3702 H3710 0.930 . S
C3703 C3702 1.394 . S
C3703 C3704 1.383 . S
C3703 H3711 0.929 . S
C3704 C3703 1.383 . S
C3704 C3705 1.377 . S
C3705 H3689 0.930 . S
C3705 C3704 1.377 . S
C3705 C3706 1.379 . S
C3706 H3690 0.931 . S
C3706 C3700 1.383 . S
C3706 C3705 1.379 . S
H3707 C3701 0.959 . S
H3708 C3701 0.961 . S
H3709 C3701 0.960 . S
H3710 C3702 0.930 . S
H3711 C3703 0.929 . S
H3712 C3720 0.929 . S
H3713 C3722 0.930 . S
H3714 C3724 0.930 . S
H3715 C3727 0.929 . S
H3716 C3730 0.930 . S
H3717 C3732 0.960 . S
H3718 C3732 0.960 . S
H3719 C3732 0.960 . S
C3720 H3712 0.929 . S
C3720 C3721 1.377 . S
C3720 C3722 1.384 . S
C3721 C3720 1.377 . S
C3721 C3727 1.390 . S
C3722 H3713 0.930 . S
C3722 C3720 1.384 . S
C3722 C3723 1.372 . S
C3723 C3722 1.372 . S
C3723 C3724 1.400 . S
C3723 C3728 1.490 . S
C3724 H3714 0.930 . S
C3724 C3723 1.400 . S
C3724 C3727 1.386 . S
H3725 C3741 0.930 . S
H3726 C3742 0.931 . S
C3727 H3715 0.929 . S
C3727 C3721 1.390 . S
C3727 C3724 1.386 . S
C3728 C3723 1.490 . S
C3728 C3730 1.395 . S
C3728 C3731 1.403 . S
H3729 C3735 0.930 . S
C3730 H3716 0.930 . S
C3730 C3728 1.395 . S
C3730 C3733 1.403 . S
C3731 C3728 1.403 . S
C3731 C3732 1.524 . S
C3731 C3735 1.400 . S
C3732 H3717 0.960 . S
C3732 H3718 0.960 . S
C3732 H3719 0.960 . S
C3732 C3731 1.524 . S
C3733 C3730 1.403 . S
C3733 C3734 1.392 . S
C3733 C3737 1.495 . S
C3734 C3733 1.392 . S
C3734 C3735 1.385 . S
C3734 C3736 1.478 . S
C3735 H3729 0.930 . S
C3735 C3731 1.400 . S
C3735 C3734 1.385 . S
C3736 C3734 1.478 . S
C3736 C3738 1.381 . S
C3736 C3742 1.383 . S
C3737 C3733 1.495 . S
C3737 H3743 0.959 . S
C3737 H3744 0.961 . S
C3737 H3745 0.960 . S
C3738 C3736 1.381 . S
C3738 C3739 1.394 . S
C3738 H3746 0.930 . S
C3739 C3738 1.394 . S
C3739 C3740 1.383 . S
C3739 H3747 0.929 . S
C3740 C3739 1.383 . S
C3740 C3741 1.377 . S
C3741 H3725 0.930 . S
C3741 C3740 1.377 . S
C3741 C3742 1.379 . S
C3742 H3726 0.931 . S
C3742 C3736 1.383 . S
C3742 C3741 1.379 . S
H3743 C3737 0.959 . S
H3744 C3737 0.961 . S
H3745 C3737 0.960 . S
H3746 C3738 0.930 . S
H3747 C3739 0.929 . S
H3748 C3756 0.929 . S
H3749 C3758 0.930 . S
H3750 C3760 0.930 . S
H3751 C3763 0.929 . S
H3752 C3766 0.930 . S
H3753 C3768 0.960 . S
H3754 C3768 0.960 . S
H3755 C3768 0.960 . S
C3756 H3748 0.929 . S
C3756 C3757 1.377 . S
C3756 C3758 1.384 . S
C3757 C3756 1.377 . S
C3757 C3763 1.390 . S
C3758 H3749 0.930 . S
C3758 C3756 1.384 . S
C3758 C3759 1.372 . S
C3759 C3758 1.372 . S
C3759 C3760 1.400 . S
C3759 C3764 1.490 . S
C3760 H3750 0.930 . S
C3760 C3759 1.400 . S
C3760 C3763 1.386 . S
H3761 C3777 0.930 . S
H3762 C3778 0.931 . S
C3763 H3751 0.929 . S
C3763 C3757 1.390 . S
C3763 C3760 1.386 . S
C3764 C3759 1.490 . S
C3764 C3766 1.395 . S
C3764 C3767 1.403 . S
H3765 C3771 0.930 . S
C3766 H3752 0.930 . S
C3766 C3764 1.395 . S
C3766 C3769 1.403 . S
C3767 C3764 1.403 . S
C3767 C3768 1.524 . S
C3767 C3771 1.400 . S
C3768 H3753 0.960 . S
C3768 H3754 0.960 . S
C3768 H3755 0.960 . S
C3768 C3767 1.524 . S
C3769 C3766 1.403 . S
C3769 C3770 1.392 . S
C3769 C3773 1.495 . S
C3770 C3769 1.392 . S
C3770 C3771 1.385 . S
C3770 C3772 1.478 . S
C3771 H3765 0.930 . S
C3771 C3767 1.400 . S
C3771 C3770 1.385 . S
C3772 C3770 1.478 . S
C3772 C3774 1.381 . S
C3772 C3778 1.383 . S
C3773 C3769 1.495 . S
C3773 H3779 0.959 . S
C3773 H3780 0.961 . S
C3773 H3781 0.960 . S
C3774 C3772 1.381 . S
C3774 C3775 1.394 . S
C3774 H3782 0.930 . S
C3775 C3774 1.394 . S
C3775 C3776 1.383 . S
C3775 H3783 0.929 . S
C3776 C3775 1.383 . S
C3776 C3777 1.377 . S
C3777 H3761 0.930 . S
C3777 C3776 1.377 . S
C3777 C3778 1.379 . S
C3778 H3762 0.931 . S
C3778 C3772 1.383 . S
C3778 C3777 1.379 . S
H3779 C3773 0.959 . S
H3780 C3773 0.961 . S
H3781 C3773 0.960 . S
H3782 C3774 0.930 . S
H3783 C3775 0.929 . S
H3784 C3792 0.929 . S
H3785 C3794 0.930 . S
H3786 C3796 0.930 . S
H3787 C3799 0.929 . S
H3788 C3802 0.930 . S
H3789 C3804 0.960 . S
H3790 C3804 0.960 . S
H3791 C3804 0.960 . S
C3792 H3784 0.929 . S
C3792 C3793 1.377 . S
C3792 C3794 1.384 . S
C3793 C3792 1.377 . S
C3793 C3799 1.390 . S
C3794 H3785 0.930 . S
C3794 C3792 1.384 . S
C3794 C3795 1.372 . S
C3795 C3794 1.372 . S
C3795 C3796 1.400 . S
C3795 C3800 1.490 . S
C3796 H3786 0.930 . S
C3796 C3795 1.400 . S
C3796 C3799 1.386 . S
H3797 C3813 0.930 . S
H3798 C3814 0.931 . S
C3799 H3787 0.929 . S
C3799 C3793 1.390 . S
C3799 C3796 1.386 . S
C3800 C3795 1.490 . S
C3800 C3802 1.395 . S
C3800 C3803 1.403 . S
H3801 C3807 0.930 . S
C3802 H3788 0.930 . S
C3802 C3800 1.395 . S
C3802 C3805 1.403 . S
C3803 C3800 1.403 . S
C3803 C3804 1.524 . S
C3803 C3807 1.400 . S
C3804 H3789 0.960 . S
C3804 H3790 0.960 . S
C3804 H3791 0.960 . S
C3804 C3803 1.524 . S
C3805 C3802 1.403 . S
C3805 C3806 1.392 . S
C3805 C3809 1.495 . S
C3806 C3805 1.392 . S
C3806 C3807 1.385 . S
C3806 C3808 1.478 . S
C3807 H3801 0.930 . S
C3807 C3803 1.400 . S
C3807 C3806 1.385 . S
C3808 C3806 1.478 . S
C3808 C3810 1.381 . S
C3808 C3814 1.383 . S
C3809 C3805 1.495 . S
C3809 H3815 0.959 . S
C3809 H3816 0.961 . S
C3809 H3817 0.960 . S
C3810 C3808 1.381 . S
C3810 C3811 1.394 . S
C3810 H3818 0.930 . S
C3811 C3810 1.394 . S
C3811 C3812 1.383 . S
C3811 H3819 0.929 . S
C3812 C3811 1.383 . S
C3812 C3813 1.377 . S
C3813 H3797 0.930 . S
C3813 C3812 1.377 . S
C3813 C3814 1.379 . S
C3814 H3798 0.931 . S
C3814 C3808 1.383 . S
C3814 C3813 1.379 . S
H3815 C3809 0.959 . S
H3816 C3809 0.961 . S
H3817 C3809 0.960 . S
H3818 C3810 0.930 . S
H3819 C3811 0.929 . S
H3820 C3828 0.929 . S
H3821 C3830 0.930 . S
H3822 C3832 0.930 . S
H3823 C3835 0.929 . S
H3824 C3838 0.930 . S
H3825 C3840 0.960 . S
H3826 C3840 0.960 . S
H3827 C3840 0.960 . S
C3828 H3820 0.929 . S
C3828 C3829 1.377 . S
C3828 C3830 1.384 . S
C3829 C3828 1.377 . S
C3829 C3835 1.390 . S
C3830 H3821 0.930 . S
C3830 C3828 1.384 . S
C3830 C3831 1.372 . S
C3831 C3830 1.372 . S
C3831 C3832 1.400 . S
C3831 C3836 1.490 . S
C3832 H3822 0.930 . S
C3832 C3831 1.400 . S
C3832 C3835 1.386 . S
H3833 C3849 0.930 . S
H3834 C3850 0.931 . S
C3835 H3823 0.929 . S
C3835 C3829 1.390 . S
C3835 C3832 1.386 . S
C3836 C3831 1.490 . S
C3836 C3838 1.395 . S
C3836 C3839 1.403 . S
H3837 C3843 0.930 . S
C3838 H3824 0.930 . S
C3838 C3836 1.395 . S
C3838 C3841 1.403 . S
C3839 C3836 1.403 . S
C3839 C3840 1.524 . S
C3839 C3843 1.400 . S
C3840 H3825 0.960 . S
C3840 H3826 0.960 . S
C3840 H3827 0.960 . S
C3840 C3839 1.524 . S
C3841 C3838 1.403 . S
C3841 C3842 1.392 . S
C3841 C3845 1.495 . S
C3842 C3841 1.392 . S
C3842 C3843 1.385 . S
C3842 C3844 1.478 . S
C3843 H3837 0.930 . S
C3843 C3839 1.400 . S
C3843 C3842 1.385 . S
C3844 C3842 1.478 . S
C3844 C3846 1.381 . S
C3844 C3850 1.383 . S
C3845 C3841 1.495 . S
C3845 H3851 0.959 . S
C3845 H3852 0.961 . S
C3845 H3853 0.960 . S
C3846 C3844 1.381 . S
C3846 C3847 1.394 . S
C3846 H3854 0.930 . S
C3847 C3846 1.394 . S
C3847 C3848 1.383 . S
C3847 H3855 0.929 . S
C3848 C3847 1.383 . S
C3848 C3849 1.377 . S
C3849 H3833 0.930 . S
C3849 C3848 1.377 . S
C3849 C3850 1.379 . S
C3850 H3834 0.931 . S
C3850 C3844 1.383 . S
C3850 C3849 1.379 . S
H3851 C3845 0.959 . S
H3852 C3845 0.961 . S
H3853 C3845 0.960 . S
H3854 C3846 0.930 . S
H3855 C3847 0.929 . S
H3856 C3864 0.929 . S
H3857 C3866 0.930 . S
H3858 C3868 0.930 . S
H3859 C3871 0.929 . S
H3860 C3874 0.930 . S
H3861 C3876 0.960 . S
H3862 C3876 0.960 . S
H3863 C3876 0.960 . S
C3864 H3856 0.929 . S
C3864 C3865 1.377 . S
C3864 C3866 1.384 . S
C3865 C3864 1.377 . S
C3865 C3871 1.390 . S
C3866 H3857 0.930 . S
C3866 C3864 1.384 . S
C3866 C3867 1.372 . S
C3867 C3866 1.372 . S
C3867 C3868 1.400 . S
C3867 C3872 1.490 . S
C3868 H3858 0.930 . S
C3868 C3867 1.400 . S
C3868 C3871 1.386 . S
H3869 C3885 0.930 . S
H3870 C3886 0.931 . S
C3871 H3859 0.929 . S
C3871 C3865 1.390 . S
C3871 C3868 1.386 . S
C3872 C3867 1.490 . S
C3872 C3874 1.395 . S
C3872 C3875 1.403 . S
H3873 C3879 0.930 . S
C3874 H3860 0.930 . S
C3874 C3872 1.395 . S
C3874 C3877 1.403 . S
C3875 C3872 1.403 . S
C3875 C3876 1.524 . S
C3875 C3879 1.400 . S
C3876 H3861 0.960 . S
C3876 H3862 0.960 . S
C3876 H3863 0.960 . S
C3876 C3875 1.524 . S
C3877 C3874 1.403 . S
C3877 C3878 1.392 . S
C3877 C3881 1.495 . S
C3878 C3877 1.392 . S
C3878 C3879 1.385 . S
C3878 C3880 1.478 . S
C3879 H3873 0.930 . S
C3879 C3875 1.400 . S
C3879 C3878 1.385 . S
C3880 C3878 1.478 . S
C3880 C3882 1.381 . S
C3880 C3886 1.383 . S
C3881 C3877 1.495 . S
C3881 H3887 0.959 . S
C3881 H3888 0.961 . S
C3881 H3889 0.960 . S
C3882 C3880 1.381 . S
C3882 C3883 1.394 . S
C3882 H3890 0.930 . S
C3883 C3882 1.394 . S
C3883 C3884 1.383 . S
C3883 H3891 0.929 . S
C3884 C3883 1.383 . S
C3884 C3885 1.377 . S
C3885 H3869 0.930 . S
C3885 C3884 1.377 . S
C3885 C3886 1.379 . S
C3886 H3870 0.931 . S
C3886 C3880 1.383 . S
C3886 C3885 1.379 . S
H3887 C3881 0.959 . S
H3888 C3881 0.961 . S
H3889 C3881 0.960 . S
H3890 C3882 0.930 . S
H3891 C3883 0.929 . S
H3892 C3900 0.929 . S
H3893 C3902 0.930 . S
H3894 C3904 0.930 . S
H3895 C3907 0.929 . S
H3896 C3910 0.930 . S
H3897 C3912 0.960 . S
H3898 C3912 0.960 . S
H3899 C3912 0.960 . S
C3900 H3892 0.929 . S
C3900 C3901 1.377 . S
C3900 C3902 1.384 . S
C3901 C3900 1.377 . S
C3901 C3907 1.390 . S
C3902 H3893 0.930 . S
C3902 C3900 1.384 . S
C3902 C3903 1.372 . S
C3903 C3902 1.372 . S
C3903 C3904 1.400 . S
C3903 C3908 1.490 . S
C3904 H3894 0.930 . S
C3904 C3903 1.400 . S
C3904 C3907 1.386 . S
H3905 C3921 0.930 . S
H3906 C3922 0.931 . S
C3907 H3895 0.929 . S
C3907 C3901 1.390 . S
C3907 C3904 1.386 . S
C3908 C3903 1.490 . S
C3908 C3910 1.395 . S
C3908 C3911 1.403 . S
H3909 C3915 0.930 . S
C3910 H3896 0.930 . S
C3910 C3908 1.395 . S
C3910 C3913 1.403 . S
C3911 C3908 1.403 . S
C3911 C3912 1.524 . S
C3911 C3915 1.400 . S
C3912 H3897 0.960 . S
C3912 H3898 0.960 . S
C3912 H3899 0.960 . S
C3912 C3911 1.524 . S
C3913 C3910 1.403 . S
C3913 C3914 1.392 . S
C3913 C3917 1.495 . S
C3914 C3913 1.392 . S
C3914 C3915 1.385 . S
C3914 C3916 1.478 . S
C3915 H3909 0.930 . S
C3915 C3911 1.400 . S
C3915 C3914 1.385 . S
C3916 C3914 1.478 . S
C3916 C3918 1.381 . S
C3916 C3922 1.383 . S
C3917 C3913 1.495 . S
C3917 H3923 0.959 . S
C3917 H3924 0.961 . S
C3917 H3925 0.960 . S
C3918 C3916 1.381 . S
C3918 C3919 1.394 . S
C3918 H3926 0.930 . S
C3919 C3918 1.394 . S
C3919 C3920 1.383 . S
C3919 H3927 0.929 . S
C3920 C3919 1.383 . S
C3920 C3921 1.377 . S
C3921 H3905 0.930 . S
C3921 C3920 1.377 . S
C3921 C3922 1.379 . S
C3922 H3906 0.931 . S
C3922 C3916 1.383 . S
C3922 C3921 1.379 . S
H3923 C3917 0.959 . S
H3924 C3917 0.961 . S
H3925 C3917 0.960 . S
H3926 C3918 0.930 . S
H3927 C3919 0.929 . S
H3928 C3936 0.929 . S
H3929 C3938 0.930 . S
H3930 C3940 0.930 . S
H3931 C3943 0.929 . S
H3932 C3946 0.930 . S
H3933 C3948 0.960 . S
H3934 C3948 0.960 . S
H3935 C3948 0.960 . S
C3936 H3928 0.929 . S
C3936 C3937 1.377 . S
C3936 C3938 1.384 . S
C3937 C3936 1.377 . S
C3937 C3943 1.390 . S
C3938 H3929 0.930 . S
C3938 C3936 1.384 . S
C3938 C3939 1.372 . S
C3939 C3938 1.372 . S
C3939 C3940 1.400 . S
C3939 C3944 1.490 . S
C3940 H3930 0.930 . S
C3940 C3939 1.400 . S
C3940 C3943 1.386 . S
H3941 C3957 0.930 . S
H3942 C3958 0.931 . S
C3943 H3931 0.929 . S
C3943 C3937 1.390 . S
C3943 C3940 1.386 . S
C3944 C3939 1.490 . S
C3944 C3946 1.395 . S
C3944 C3947 1.403 . S
H3945 C3951 0.930 . S
C3946 H3932 0.930 . S
C3946 C3944 1.395 . S
C3946 C3949 1.403 . S
C3947 C3944 1.403 . S
C3947 C3948 1.524 . S
C3947 C3951 1.400 . S
C3948 H3933 0.960 . S
C3948 H3934 0.960 . S
C3948 H3935 0.960 . S
C3948 C3947 1.524 . S
C3949 C3946 1.403 . S
C3949 C3950 1.392 . S
C3949 C3953 1.495 . S
C3950 C3949 1.392 . S
C3950 C3951 1.385 . S
C3950 C3952 1.478 . S
C3951 H3945 0.930 . S
C3951 C3947 1.400 . S
C3951 C3950 1.385 . S
C3952 C3950 1.478 . S
C3952 C3954 1.381 . S
C3952 C3958 1.383 . S
C3953 C3949 1.495 . S
C3953 H3959 0.959 . S
C3953 H3960 0.961 . S
C3953 H3961 0.960 . S
C3954 C3952 1.381 . S
C3954 C3955 1.394 . S
C3954 H3962 0.930 . S
C3955 C3954 1.394 . S
C3955 C3956 1.383 . S
C3955 H3963 0.929 . S
C3956 C3955 1.383 . S
C3956 C3957 1.377 . S
C3957 H3941 0.930 . S
C3957 C3956 1.377 . S
C3957 C3958 1.379 . S
C3958 H3942 0.931 . S
C3958 C3952 1.383 . S
C3958 C3957 1.379 . S
H3959 C3953 0.959 . S
H3960 C3953 0.961 . S
H3961 C3953 0.960 . S
H3962 C3954 0.930 . S
H3963 C3955 0.929 . S
H3964 C3972 0.929 . S
H3965 C3974 0.930 . S
H3966 C3976 0.930 . S
H3967 C3979 0.929 . S
H3968 C3982 0.930 . S
H3969 C3984 0.960 . S
H3970 C3984 0.960 . S
H3971 C3984 0.960 . S
C3972 H3964 0.929 . S
C3972 C3973 1.377 . S
C3972 C3974 1.384 . S
C3973 C3972 1.377 . S
C3973 C3979 1.390 . S
C3974 H3965 0.930 . S
C3974 C3972 1.384 . S
C3974 C3975 1.372 . S
C3975 C3974 1.372 . S
C3975 C3976 1.400 . S
C3975 C3980 1.490 . S
C3976 H3966 0.930 . S
C3976 C3975 1.400 . S
C3976 C3979 1.386 . S
H3977 C3993 0.930 . S
H3978 C3994 0.931 . S
C3979 H3967 0.929 . S
C3979 C3973 1.390 . S
C3979 C3976 1.386 . S
C3980 C3975 1.490 . S
C3980 C3982 1.395 . S
C3980 C3983 1.403 . S
H3981 C3987 0.930 . S
C3982 H3968 0.930 . S
C3982 C3980 1.395 . S
C3982 C3985 1.403 . S
C3983 C3980 1.403 . S
C3983 C3984 1.524 . S
C3983 C3987 1.400 . S
C3984 H3969 0.960 . S
C3984 H3970 0.960 . S
C3984 H3971 0.960 . S
C3984 C3983 1.524 . S
C3985 C3982 1.403 . S
C3985 C3986 1.392 . S
C3985 C3989 1.495 . S
C3986 C3985 1.392 . S
C3986 C3987 1.385 . S
C3986 C3988 1.478 . S
C3987 H3981 0.930 . S
C3987 C3983 1.400 . S
C3987 C3986 1.385 . S
C3988 C3986 1.478 . S
C3988 C3990 1.381 . S
C3988 C3994 1.383 . S
C3989 C3985 1.495 . S
C3989 H3995 0.959 . S
C3989 H3996 0.961 . S
C3989 H3997 0.960 . S
C3990 C3988 1.381 . S
C3990 C3991 1.394 . S
C3990 H3998 0.930 . S
C3991 C3990 1.394 . S
C3991 C3992 1.383 . S
C3991 H3999 0.929 . S
C3992 C3991 1.383 . S
C3992 C3993 1.377 . S
C3993 H3977 0.930 . S
C3993 C3992 1.377 . S
C3993 C3994 1.379 . S
C3994 H3978 0.931 . S
C3994 C3988 1.383 . S
C3994 C3993 1.379 . S
H3995 C3989 0.959 . S
H3996 C3989 0.961 . S
H3997 C3989 0.960 . S
H3998 C3990 0.930 . S
H3999 C3991 0.929 . S
H4000 C4008 0.929 . S
H4001 C4010 0.930 . S
H4002 C4012 0.930 . S
H4003 C4015 0.929 . S
H4004 C4018 0.930 . S
H4005 C4020 0.960 . S
H4006 C4020 0.960 . S
H4007 C4020 0.960 . S
C4008 H4000 0.929 . S
C4008 C4009 1.377 . S
C4008 C4010 1.384 . S
C4009 C4008 1.377 . S
C4009 C4015 1.390 . S
C4010 H4001 0.930 . S
C4010 C4008 1.384 . S
C4010 C4011 1.372 . S
C4011 C4010 1.372 . S
C4011 C4012 1.400 . S
C4011 C4016 1.490 . S
C4012 H4002 0.930 . S
C4012 C4011 1.400 . S
C4012 C4015 1.386 . S
H4013 C4029 0.930 . S
H4014 C4030 0.931 . S
C4015 H4003 0.929 . S
C4015 C4009 1.390 . S
C4015 C4012 1.386 . S
C4016 C4011 1.490 . S
C4016 C4018 1.395 . S
C4016 C4019 1.403 . S
H4017 C4023 0.930 . S
C4018 H4004 0.930 . S
C4018 C4016 1.395 . S
C4018 C4021 1.403 . S
C4019 C4016 1.403 . S
C4019 C4020 1.524 . S
C4019 C4023 1.400 . S
C4020 H4005 0.960 . S
C4020 H4006 0.960 . S
C4020 H4007 0.960 . S
C4020 C4019 1.524 . S
C4021 C4018 1.403 . S
C4021 C4022 1.392 . S
C4021 C4025 1.495 . S
C4022 C4021 1.392 . S
C4022 C4023 1.385 . S
C4022 C4024 1.478 . S
C4023 H4017 0.930 . S
C4023 C4019 1.400 . S
C4023 C4022 1.385 . S
C4024 C4022 1.478 . S
C4024 C4026 1.381 . S
C4024 C4030 1.383 . S
C4025 C4021 1.495 . S
C4025 H4031 0.959 . S
C4025 H4032 0.961 . S
C4025 H4033 0.960 . S
C4026 C4024 1.381 . S
C4026 C4027 1.394 . S
C4026 H4034 0.930 . S
C4027 C4026 1.394 . S
C4027 C4028 1.383 . S
C4027 H4035 0.929 . S
C4028 C4027 1.383 . S
C4028 C4029 1.377 . S
C4029 H4013 0.930 . S
C4029 C4028 1.377 . S
C4029 C4030 1.379 . S
C4030 H4014 0.931 . S
C4030 C4024 1.383 . S
C4030 C4029 1.379 . S
H4031 C4025 0.959 . S
H4032 C4025 0.961 . S
H4033 C4025 0.960 . S
H4034 C4026 0.930 . S
H4035 C4027 0.929 . S
H4036 C4044 0.929 . S
H4037 C4046 0.930 . S
H4038 C4048 0.930 . S
H4039 C4051 0.929 . S
H4040 C4054 0.930 . S
H4041 C4056 0.960 . S
H4042 C4056 0.960 . S
H4043 C4056 0.960 . S
C4044 H4036 0.929 . S
C4044 C4045 1.377 . S
C4044 C4046 1.384 . S
C4045 C4044 1.377 . S
C4045 C4051 1.390 . S
C4046 H4037 0.930 . S
C4046 C4044 1.384 . S
C4046 C4047 1.372 . S
C4047 C4046 1.372 . S
C4047 C4048 1.400 . S
C4047 C4052 1.490 . S
C4048 H4038 0.930 . S
C4048 C4047 1.400 . S
C4048 C4051 1.386 . S
H4049 C4065 0.930 . S
H4050 C4066 0.931 . S
C4051 H4039 0.929 . S
C4051 C4045 1.390 . S
C4051 C4048 1.386 . S
C4052 C4047 1.490 . S
C4052 C4054 1.395 . S
C4052 C4055 1.403 . S
H4053 C4059 0.930 . S
C4054 H4040 0.930 . S
C4054 C4052 1.395 . S
C4054 C4057 1.403 . S
C4055 C4052 1.403 . S
C4055 C4056 1.524 . S
C4055 C4059 1.400 . S
C4056 H4041 0.960 . S
C4056 H4042 0.960 . S
C4056 H4043 0.960 . S
C4056 C4055 1.524 . S
C4057 C4054 1.403 . S
C4057 C4058 1.392 . S
C4057 C4061 1.495 . S
C4058 C4057 1.392 . S
C4058 C4059 1.385 . S
C4058 C4060 1.478 . S
C4059 H4053 0.930 . S
C4059 C4055 1.400 . S
C4059 C4058 1.385 . S
C4060 C4058 1.478 . S
C4060 C4062 1.381 . S
C4060 C4066 1.383 . S
C4061 C4057 1.495 . S
C4061 H4067 0.959 . S
C4061 H4068 0.961 . S
C4061 H4069 0.960 . S
C4062 C4060 1.381 . S
C4062 C4063 1.394 . S
C4062 H4070 0.930 . S
C4063 C4062 1.394 . S
C4063 C4064 1.383 . S
C4063 H4071 0.929 . S
C4064 C4063 1.383 . S
C4064 C4065 1.377 . S
C4065 H4049 0.930 . S
C4065 C4064 1.377 . S
C4065 C4066 1.379 . S
C4066 H4050 0.931 . S
C4066 C4060 1.383 . S
C4066 C4065 1.379 . S
H4067 C4061 0.959 . S
H4068 C4061 0.961 . S
H4069 C4061 0.960 . S
H4070 C4062 0.930 . S
H4071 C4063 0.929 . S
H4072 C4080 0.929 . S
H4073 C4082 0.930 . S
H4074 C4084 0.930 . S
H4075 C4087 0.929 . S
H4076 C4090 0.930 . S
H4077 C4092 0.960 . S
H4078 C4092 0.960 . S
H4079 C4092 0.960 . S
C4080 H4072 0.929 . S
C4080 C4081 1.377 . S
C4080 C4082 1.384 . S
C4081 C4080 1.377 . S
C4081 C4087 1.390 . S
C4082 H4073 0.930 . S
C4082 C4080 1.384 . S
C4082 C4083 1.372 . S
C4083 C4082 1.372 . S
C4083 C4084 1.400 . S
C4083 C4088 1.490 . S
C4084 H4074 0.930 . S
C4084 C4083 1.400 . S
C4084 C4087 1.386 . S
H4085 C4101 0.930 . S
H4086 C4102 0.931 . S
C4087 H4075 0.929 . S
C4087 C4081 1.390 . S
C4087 C4084 1.386 . S
C4088 C4083 1.490 . S
C4088 C4090 1.395 . S
C4088 C4091 1.403 . S
H4089 C4095 0.930 . S
C4090 H4076 0.930 . S
C4090 C4088 1.395 . S
C4090 C4093 1.403 . S
C4091 C4088 1.403 . S
C4091 C4092 1.524 . S
C4091 C4095 1.400 . S
C4092 H4077 0.960 . S
C4092 H4078 0.960 . S
C4092 H4079 0.960 . S
C4092 C4091 1.524 . S
C4093 C4090 1.403 . S
C4093 C4094 1.392 . S
C4093 C4097 1.495 . S
C4094 C4093 1.392 . S
C4094 C4095 1.385 . S
C4094 C4096 1.478 . S
C4095 H4089 0.930 . S
C4095 C4091 1.400 . S
C4095 C4094 1.385 . S
C4096 C4094 1.478 . S
C4096 C4098 1.381 . S
C4096 C4102 1.383 . S
C4097 C4093 1.495 . S
C4097 H4103 0.959 . S
C4097 H4104 0.961 . S
C4097 H4105 0.960 . S
C4098 C4096 1.381 . S
C4098 C4099 1.394 . S
C4098 H4106 0.930 . S
C4099 C4098 1.394 . S
C4099 C4100 1.383 . S
C4099 H4107 0.929 . S
C4100 C4099 1.383 . S
C4100 C4101 1.377 . S
C4101 H4085 0.930 . S
C4101 C4100 1.377 . S
C4101 C4102 1.379 . S
C4102 H4086 0.931 . S
C4102 C4096 1.383 . S
C4102 C4101 1.379 . S
H4103 C4097 0.959 . S
H4104 C4097 0.961 . S
H4105 C4097 0.960 . S
H4106 C4098 0.930 . S
H4107 C4099 0.929 . S
H4108 C4116 0.929 . S
H4109 C4118 0.930 . S
H4110 C4120 0.930 . S
H4111 C4123 0.929 . S
H4112 C4126 0.930 . S
H4113 C4128 0.960 . S
H4114 C4128 0.960 . S
H4115 C4128 0.960 . S
C4116 H4108 0.929 . S
C4116 C4117 1.377 . S
C4116 C4118 1.384 . S
C4117 C4116 1.377 . S
C4117 C4123 1.390 . S
C4118 H4109 0.930 . S
C4118 C4116 1.384 . S
C4118 C4119 1.372 . S
C4119 C4118 1.372 . S
C4119 C4120 1.400 . S
C4119 C4124 1.490 . S
C4120 H4110 0.930 . S
C4120 C4119 1.400 . S
C4120 C4123 1.386 . S
H4121 C4137 0.930 . S
H4122 C4138 0.931 . S
C4123 H4111 0.929 . S
C4123 C4117 1.390 . S
C4123 C4120 1.386 . S
C4124 C4119 1.490 . S
C4124 C4126 1.395 . S
C4124 C4127 1.403 . S
H4125 C4131 0.930 . S
C4126 H4112 0.930 . S
C4126 C4124 1.395 . S
C4126 C4129 1.403 . S
C4127 C4124 1.403 . S
C4127 C4128 1.524 . S
C4127 C4131 1.400 . S
C4128 H4113 0.960 . S
C4128 H4114 0.960 . S
C4128 H4115 0.960 . S
C4128 C4127 1.524 . S
C4129 C4126 1.403 . S
C4129 C4130 1.392 1_455 S
C4129 C4133 1.495 1_455 S
C4130 C4129 1.392 1_655 S
C4130 C4131 1.385 1_655 S
C4130 C4132 1.478 . S
C4131 H4125 0.930 . S
C4131 C4127 1.400 . S
C4131 C4130 1.385 1_455 S
C4132 C4130 1.478 . S
C4132 C4134 1.381 . S
C4132 C4138 1.383 . S
C4133 C4129 1.495 1_655 S
C4133 H4139 0.959 . S
C4133 H4140 0.961 . S
C4133 H4141 0.960 . S
C4134 C4132 1.381 . S
C4134 C4135 1.394 . S
C4134 H4142 0.930 . S
C4135 C4134 1.394 . S
C4135 C4136 1.383 . S
C4135 H4143 0.929 . S
C4136 C4135 1.383 . S
C4136 C4137 1.377 . S
C4137 H4121 0.930 . S
C4137 C4136 1.377 . S
C4137 C4138 1.379 . S
C4138 H4122 0.931 . S
C4138 C4132 1.383 . S
C4138 C4137 1.379 . S
H4139 C4133 0.959 . S
H4140 C4133 0.961 . S
H4141 C4133 0.960 . S
H4142 C4134 0.930 . S
H4143 C4135 0.929 . S
C716 C354 0.856 . S
C697 C11 0.845 . S
C733 C21 0.966 . S
C752 C366 0.998 . S
C788 C401 1.002 . S
C769 C41 1.028 . S
C824 C410 1.001 . S
C805 C50 0.977 . S
C860 C365 1.036 . S
C841 C64 1.013 . S
C877 C83 0.978 . S
C896 C390 0.970 . S
C932 C409 0.993 . S
C913 C91 0.995 . S
C949 C109 0.913 . S
C968 C351 0.860 . S
C985 C123 0.875 . S
C1004 C344 0.841 . S
C1040 C368 0.975 . S
C1021 C134 0.995 . S
C1076 C387 0.990 . S
C1057 C147 1.028 . S
C1112 C412 0.973 . S
C1093 C167 0.986 . S
C1148 C373 1.002 . S
C1129 C125 0.999 . S
C1184 C398 0.989 . S
C1165 C133 0.969 . S
C1201 C148 0.996 . S
C1220 C417 0.950 . S
C1256 C357 0.874 . S
C1237 C165 0.877 . S
C1273 C179 0.863 . S
C1292 C346 0.845 . S
C1309 C189 0.997 . S
C1328 C445 1.028 . S
C1364 C461 1.003 . S
C1345 C204 0.987 . S
C1400 C475 1.011 . S
C1381 C223 1.001 . S
C1417 C235 0.892 . S
C1436 C343 0.890 . S
C1453 C246 1.018 . S
C1472 C395 1.044 . S
C1508 C478 1.015 . S
C1489 C203 0.990 . S
C1544 C442 1.001 . S
C1525 C265 1.016 . S
C1580 C498 0.989 . S
C1561 C27 0.961 . S
C1616 C522 0.875 . S
C1597 C7 0.906 . S
C1633 C53 0.926 . S
C1652 C555 0.947 . S
C1669 C36 1.023 . S
C1688 C563 1.031 . S
C1705 C106 1.023 . S
C1724 C533 1.047 . S
C1741 C95 0.907 . S
C1760 C544 0.878 . S
C1796 C564 0.907 . S
C1777 C77 0.929 . S
C1813 C69 1.024 . S
C1832 C497 0.997 . S
C1849 C279 0.958 . S
C1868 C500 0.977 . S
C1904 C530 0.997 . S
C1885 C218 0.982 . S
C1940 C541 0.974 . S
C1921 C231 0.944 . S
C1976 C571 0.903 . S
C1957 C193 0.935 . S
C2012 C519 0.905 . S
C1993 C277 0.929 . S
C2048 C552 0.934 . S
C2029 C217 0.913 . S
C2084 C566 1.024 . S
C2065 C232 0.998 . S
C2101 C195 1.019 . S
C2120 C505 1.032 . S
C2156 C508 0.935 . S
C2137 C293 0.965 . S
C2173 C161 0.930 . S
C2192 C596 0.959 . S
C2228 C608 1.033 . S
C2209 C302 1.010 . S
C2245 C137 0.946 . S
C2264 C629 0.934 . S
C2300 C511 1.022 . S
C2281 C153 1.034 . S
C2336 C549 1.011 . S
C2317 C316 0.997 . S
C2372 C632 0.878 . S
C2353 C301 0.873 . S
C2389 C333 0.919 . S
C2408 C599 0.924 . S
C2425 C39 0.862 . S
C2444 C654 0.882 . S
C2461 C49 0.977 . S
C2480 C432 0.950 . S
C2516 C456 0.987 . S
C2497 C13 0.970 . S
C2533 C22 0.983 . S
C2552 C486 0.972 . S
C2569 C92 0.999 . S
C2588 C431 0.984 . S
C2605 C111 1.014 . S
C2624 C467 0.996 . S
C2660 C483 0.985 . S
C2641 C63 1.025 . S
C2696 C665 0.916 . S
C2677 C81 0.884 . S
C2732 C662 0.880 . S
C2713 C305 0.852 . S
C2768 C434 0.993 . S
C2749 C288 0.991 . S
C2804 C464 0.973 . S
C2785 C329 1.003 . S
C2821 C321 1.023 . S
C2840 C476 1.039 . S
C2876 C439 1.023 . S
C2857 C307 0.999 . S
C2893 C287 0.977 . S
C2912 C453 0.931 . S
C2948 C489 1.015 . S
C2929 C330 0.996 . S
C2965 C319 0.900 . S
C2984 C651 0.897 . S
C3020 C652 0.860 . S
C3001 C221 0.877 . S
C3037 C245 0.994 . S
C3056 C379 0.966 . S
C3092 C388 0.943 . S
C3073 C274 0.962 . S
C3109 C181 0.991 . S
C3128 C423 0.981 . S
C3164 C659 0.858 . S
C3145 C263 0.882 . S
C3200 C454 1.004 . S
C3181 C190 0.991 . S
C3236 C420 0.966 . S
C3217 C273 0.984 . S
C3272 C376 0.978 . S
C3253 C237 0.993 . S
C3289 C55 1.016 . S
C3308 C673 0.976 . S
C3325 C35 0.933 . S
C3344 C585 0.940 . S
C3361 C25 0.921 . S
C3380 C621 0.917 . S
C3416 C640 0.964 . S
C3397 C8 0.962 . S
C3452 C586 0.969 . S
C3433 C78 0.970 . S
C3469 C67 0.918 . S
C3488 C610 0.893 . S
C3524 C637 0.928 . S
C3505 C105 0.967 . S
C3541 C97 1.001 . S
C3560 C674 0.989 . S
C3596 C681 0.967 . S
C3577 C209 1.010 . S
C3613 C176 0.992 . S
C3632 C593 0.995 . S
C3649 C259 0.942 . S
C3668 C607 0.970 . S
C3704 C630 0.891 . S
C3685 C249 0.897 . S
C3740 C588 0.895 . S
C3721 C207 0.904 . S
C3757 C175 0.917 . S
C3776 C618 0.897 . S
C3812 C643 0.988 . S
C3793 C260 1.008 . S
C3848 C676 1.022 . S
C3829 C251 1.005 . S
C3884 C687 1.011 . S
C3865 C139 0.990 . S
C3920 C527 0.952 . S
C3901 C315 0.990 . S
C3937 C120 1.004 . S
C3956 C542 1.022 . S
C3973 C291 0.916 . S
C3992 C574 0.890 . S
C4028 C684 0.982 . S
C4009 C335 1.008 . S
C4064 C615 0.958 . S
C4045 C162 0.978 . S
C4100 C577 0.915 . S
C4081 C119 0.928 . S
C4136 C520 0.901 . S
C4117 C151 0.902 . S
