# Generated by pormake.
# Topology gar, (4,6)-cn, num edge types: 1
# Building blocks:
#     Node 0, Type 0, BuildingBlock: GALJAG_clean_sbu_0, # of connection points: 4
#     Node 1, Type 0, BuildingBlock: GALJAG_clean_sbu_0, # of connection points: 4
#     Node 2, Type 0, BuildingBlock: GALJAG_clean_sbu_0, # of connection points: 4
#     Node 3, Type 0, BuildingBlock: GALJAG_clean_sbu_0, # of connection points: 4
#     Node 4, Type 0, BuildingBlock: GALJAG_clean_sbu_0, # of connection points: 4
#     Node 5, Type 0, BuildingBlock: GALJAG_clean_sbu_0, # of connection points: 4
#     Node 6, Type 0, BuildingBlock: GALJAG_clean_sbu_0, # of connection points: 4
#     Node 7, Type 0, BuildingBlock: GALJAG_clean_sbu_0, # of connection points: 4
#     Node 8, Type 0, BuildingBlock: GALJAG_clean_sbu_0, # of connection points: 4
#     Node 9, Type 0, BuildingBlock: GALJAG_clean_sbu_0, # of connection points: 4
#     Node 10, Type 0, BuildingBlock: GALJAG_clean_sbu_0, # of connection points: 4
#     Node 11, Type 0, BuildingBlock: GALJAG_clean_sbu_0, # of connection points: 4
#     Node 12, Type 0, BuildingBlock: GALJAG_clean_sbu_0, # of connection points: 4
#     Node 13, Type 0, BuildingBlock: GALJAG_clean_sbu_0, # of connection points: 4
#     Node 14, Type 0, BuildingBlock: GALJAG_clean_sbu_0, # of connection points: 4
#     Node 15, Type 0, BuildingBlock: GALJAG_clean_sbu_0, # of connection points: 4
#     Node 16, Type 0, BuildingBlock: GALJAG_clean_sbu_0, # of connection points: 4
#     Node 17, Type 0, BuildingBlock: GALJAG_clean_sbu_0, # of connection points: 4
#     Node 18, Type 0, BuildingBlock: GALJAG_clean_sbu_0, # of connection points: 4
#     Node 19, Type 0, BuildingBlock: GALJAG_clean_sbu_0, # of connection points: 4
#     Node 20, Type 0, BuildingBlock: GALJAG_clean_sbu_0, # of connection points: 4
#     Node 21, Type 0, BuildingBlock: GALJAG_clean_sbu_0, # of connection points: 4
#     Node 22, Type 0, BuildingBlock: GALJAG_clean_sbu_0, # of connection points: 4
#     Node 23, Type 0, BuildingBlock: GALJAG_clean_sbu_0, # of connection points: 4
#     Node 24, Type 1, BuildingBlock: KUMBOL_clean_sbu_0, # of connection points: 6
#     Node 25, Type 1, BuildingBlock: KUMBOL_clean_sbu_0, # of connection points: 6
#     Node 26, Type 1, BuildingBlock: KUMBOL_clean_sbu_0, # of connection points: 6
#     Node 27, Type 1, BuildingBlock: KUMBOL_clean_sbu_0, # of connection points: 6
#     Node 28, Type 1, BuildingBlock: KUMBOL_clean_sbu_0, # of connection points: 6
#     Node 29, Type 1, BuildingBlock: KUMBOL_clean_sbu_0, # of connection points: 6
#     Node 30, Type 1, BuildingBlock: KUMBOL_clean_sbu_0, # of connection points: 6
#     Node 31, Type 1, BuildingBlock: KUMBOL_clean_sbu_0, # of connection points: 6
#     Node 32, Type 1, BuildingBlock: KUMBOL_clean_sbu_0, # of connection points: 6
#     Node 33, Type 1, BuildingBlock: KUMBOL_clean_sbu_0, # of connection points: 6
#     Node 34, Type 1, BuildingBlock: KUMBOL_clean_sbu_0, # of connection points: 6
#     Node 35, Type 1, BuildingBlock: KUMBOL_clean_sbu_0, # of connection points: 6
#     Node 36, Type 1, BuildingBlock: KUMBOL_clean_sbu_0, # of connection points: 6
#     Node 37, Type 1, BuildingBlock: KUMBOL_clean_sbu_0, # of connection points: 6
#     Node 38, Type 1, BuildingBlock: KUMBOL_clean_sbu_0, # of connection points: 6
#     Node 39, Type 1, BuildingBlock: KUMBOL_clean_sbu_0, # of connection points: 6
#     Edge 40, Type (0, 1), BuildingBlock: AJUNOK_clean_linker_0, # of connection points: 2
#     Edge 41, Type (0, 1), BuildingBlock: AJUNOK_clean_linker_0, # of connection points: 2
#     Edge 42, Type (0, 1), BuildingBlock: AJUNOK_clean_linker_0, # of connection points: 2
#     Edge 43, Type (0, 1), BuildingBlock: AJUNOK_clean_linker_0, # of connection points: 2
#     Edge 44, Type (0, 1), BuildingBlock: AJUNOK_clean_linker_0, # of connection points: 2
#     Edge 45, Type (0, 1), BuildingBlock: AJUNOK_clean_linker_0, # of connection points: 2
#     Edge 46, Type (0, 1), BuildingBlock: AJUNOK_clean_linker_0, # of connection points: 2
#     Edge 47, Type (0, 1), BuildingBlock: AJUNOK_clean_linker_0, # of connection points: 2
#     Edge 48, Type (0, 1), BuildingBlock: AJUNOK_clean_linker_0, # of connection points: 2
#     Edge 49, Type (0, 1), BuildingBlock: AJUNOK_clean_linker_0, # of connection points: 2
#     Edge 50, Type (0, 1), BuildingBlock: AJUNOK_clean_linker_0, # of connection points: 2
#     Edge 51, Type (0, 1), BuildingBlock: AJUNOK_clean_linker_0, # of connection points: 2
#     Edge 52, Type (0, 1), BuildingBlock: AJUNOK_clean_linker_0, # of connection points: 2
#     Edge 53, Type (0, 1), BuildingBlock: AJUNOK_clean_linker_0, # of connection points: 2
#     Edge 54, Type (0, 1), BuildingBlock: AJUNOK_clean_linker_0, # of connection points: 2
#     Edge 55, Type (0, 1), BuildingBlock: AJUNOK_clean_linker_0, # of connection points: 2
#     Edge 56, Type (0, 1), BuildingBlock: AJUNOK_clean_linker_0, # of connection points: 2
#     Edge 57, Type (0, 1), BuildingBlock: AJUNOK_clean_linker_0, # of connection points: 2
#     Edge 58, Type (0, 1), BuildingBlock: AJUNOK_clean_linker_0, # of connection points: 2
#     Edge 59, Type (0, 1), BuildingBlock: AJUNOK_clean_linker_0, # of connection points: 2
#     Edge 60, Type (0, 1), BuildingBlock: AJUNOK_clean_linker_0, # of connection points: 2
#     Edge 61, Type (0, 1), BuildingBlock: AJUNOK_clean_linker_0, # of connection points: 2
#     Edge 62, Type (0, 1), BuildingBlock: AJUNOK_clean_linker_0, # of connection points: 2
#     Edge 63, Type (0, 1), BuildingBlock: AJUNOK_clean_linker_0, # of connection points: 2
#     Edge 64, Type (0, 1), BuildingBlock: AJUNOK_clean_linker_0, # of connection points: 2
#     Edge 65, Type (0, 1), BuildingBlock: AJUNOK_clean_linker_0, # of connection points: 2
#     Edge 66, Type (0, 1), BuildingBlock: AJUNOK_clean_linker_0, # of connection points: 2
#     Edge 67, Type (0, 1), BuildingBlock: AJUNOK_clean_linker_0, # of connection points: 2
#     Edge 68, Type (0, 1), BuildingBlock: AJUNOK_clean_linker_0, # of connection points: 2
#     Edge 69, Type (0, 1), BuildingBlock: AJUNOK_clean_linker_0, # of connection points: 2
#     Edge 70, Type (0, 1), BuildingBlock: AJUNOK_clean_linker_0, # of connection points: 2
#     Edge 71, Type (0, 1), BuildingBlock: AJUNOK_clean_linker_0, # of connection points: 2
#     Edge 72, Type (0, 1), BuildingBlock: AJUNOK_clean_linker_0, # of connection points: 2
#     Edge 73, Type (0, 1), BuildingBlock: AJUNOK_clean_linker_0, # of connection points: 2
#     Edge 74, Type (0, 1), BuildingBlock: AJUNOK_clean_linker_0, # of connection points: 2
#     Edge 75, Type (0, 1), BuildingBlock: AJUNOK_clean_linker_0, # of connection points: 2
#     Edge 76, Type (0, 1), BuildingBlock: AJUNOK_clean_linker_0, # of connection points: 2
#     Edge 77, Type (0, 1), BuildingBlock: AJUNOK_clean_linker_0, # of connection points: 2
#     Edge 78, Type (0, 1), BuildingBlock: AJUNOK_clean_linker_0, # of connection points: 2
#     Edge 79, Type (0, 1), BuildingBlock: AJUNOK_clean_linker_0, # of connection points: 2
#     Edge 80, Type (0, 1), BuildingBlock: AJUNOK_clean_linker_0, # of connection points: 2
#     Edge 81, Type (0, 1), BuildingBlock: AJUNOK_clean_linker_0, # of connection points: 2
#     Edge 82, Type (0, 1), BuildingBlock: AJUNOK_clean_linker_0, # of connection points: 2
#     Edge 83, Type (0, 1), BuildingBlock: AJUNOK_clean_linker_0, # of connection points: 2
#     Edge 84, Type (0, 1), BuildingBlock: AJUNOK_clean_linker_0, # of connection points: 2
#     Edge 85, Type (0, 1), BuildingBlock: AJUNOK_clean_linker_0, # of connection points: 2
#     Edge 86, Type (0, 1), BuildingBlock: AJUNOK_clean_linker_0, # of connection points: 2
#     Edge 87, Type (0, 1), BuildingBlock: AJUNOK_clean_linker_0, # of connection points: 2
#     Edge 88, Type (0, 1), BuildingBlock: AJUNOK_clean_linker_0, # of connection points: 2
#     Edge 89, Type (0, 1), BuildingBlock: AJUNOK_clean_linker_0, # of connection points: 2
#     Edge 90, Type (0, 1), BuildingBlock: AJUNOK_clean_linker_0, # of connection points: 2
#     Edge 91, Type (0, 1), BuildingBlock: AJUNOK_clean_linker_0, # of connection points: 2
#     Edge 92, Type (0, 1), BuildingBlock: AJUNOK_clean_linker_0, # of connection points: 2
#     Edge 93, Type (0, 1), BuildingBlock: AJUNOK_clean_linker_0, # of connection points: 2
#     Edge 94, Type (0, 1), BuildingBlock: AJUNOK_clean_linker_0, # of connection points: 2
#     Edge 95, Type (0, 1), BuildingBlock: AJUNOK_clean_linker_0, # of connection points: 2
#     Edge 96, Type (0, 1), BuildingBlock: AJUNOK_clean_linker_0, # of connection points: 2
#     Edge 97, Type (0, 1), BuildingBlock: AJUNOK_clean_linker_0, # of connection points: 2
#     Edge 98, Type (0, 1), BuildingBlock: AJUNOK_clean_linker_0, # of connection points: 2
#     Edge 99, Type (0, 1), BuildingBlock: AJUNOK_clean_linker_0, # of connection points: 2
#     Edge 100, Type (0, 1), BuildingBlock: AJUNOK_clean_linker_0, # of connection points: 2
#     Edge 101, Type (0, 1), BuildingBlock: AJUNOK_clean_linker_0, # of connection points: 2
#     Edge 102, Type (0, 1), BuildingBlock: AJUNOK_clean_linker_0, # of connection points: 2
#     Edge 103, Type (0, 1), BuildingBlock: AJUNOK_clean_linker_0, # of connection points: 2
#     Edge 104, Type (0, 1), BuildingBlock: AJUNOK_clean_linker_0, # of connection points: 2
#     Edge 105, Type (0, 1), BuildingBlock: AJUNOK_clean_linker_0, # of connection points: 2
#     Edge 106, Type (0, 1), BuildingBlock: AJUNOK_clean_linker_0, # of connection points: 2
#     Edge 107, Type (0, 1), BuildingBlock: AJUNOK_clean_linker_0, # of connection points: 2
#     Edge 108, Type (0, 1), BuildingBlock: AJUNOK_clean_linker_0, # of connection points: 2
#     Edge 109, Type (0, 1), BuildingBlock: AJUNOK_clean_linker_0, # of connection points: 2
#     Edge 110, Type (0, 1), BuildingBlock: AJUNOK_clean_linker_0, # of connection points: 2
#     Edge 111, Type (0, 1), BuildingBlock: AJUNOK_clean_linker_0, # of connection points: 2
#     Edge 112, Type (0, 1), BuildingBlock: AJUNOK_clean_linker_0, # of connection points: 2
#     Edge 113, Type (0, 1), BuildingBlock: AJUNOK_clean_linker_0, # of connection points: 2
#     Edge 114, Type (0, 1), BuildingBlock: AJUNOK_clean_linker_0, # of connection points: 2
#     Edge 115, Type (0, 1), BuildingBlock: AJUNOK_clean_linker_0, # of connection points: 2
#     Edge 116, Type (0, 1), BuildingBlock: AJUNOK_clean_linker_0, # of connection points: 2
#     Edge 117, Type (0, 1), BuildingBlock: AJUNOK_clean_linker_0, # of connection points: 2
#     Edge 118, Type (0, 1), BuildingBlock: AJUNOK_clean_linker_0, # of connection points: 2
#     Edge 119, Type (0, 1), BuildingBlock: AJUNOK_clean_linker_0, # of connection points: 2
#     Edge 120, Type (0, 1), BuildingBlock: AJUNOK_clean_linker_0, # of connection points: 2
#     Edge 121, Type (0, 1), BuildingBlock: AJUNOK_clean_linker_0, # of connection points: 2
#     Edge 122, Type (0, 1), BuildingBlock: AJUNOK_clean_linker_0, # of connection points: 2
#     Edge 123, Type (0, 1), BuildingBlock: AJUNOK_clean_linker_0, # of connection points: 2
#     Edge 124, Type (0, 1), BuildingBlock: AJUNOK_clean_linker_0, # of connection points: 2
#     Edge 125, Type (0, 1), BuildingBlock: AJUNOK_clean_linker_0, # of connection points: 2
#     Edge 126, Type (0, 1), BuildingBlock: AJUNOK_clean_linker_0, # of connection points: 2
#     Edge 127, Type (0, 1), BuildingBlock: AJUNOK_clean_linker_0, # of connection points: 2
#     Edge 128, Type (0, 1), BuildingBlock: AJUNOK_clean_linker_0, # of connection points: 2
#     Edge 129, Type (0, 1), BuildingBlock: AJUNOK_clean_linker_0, # of connection points: 2
#     Edge 130, Type (0, 1), BuildingBlock: AJUNOK_clean_linker_0, # of connection points: 2
#     Edge 131, Type (0, 1), BuildingBlock: AJUNOK_clean_linker_0, # of connection points: 2
#     Edge 132, Type (0, 1), BuildingBlock: AJUNOK_clean_linker_0, # of connection points: 2
#     Edge 133, Type (0, 1), BuildingBlock: AJUNOK_clean_linker_0, # of connection points: 2
#     Edge 134, Type (0, 1), BuildingBlock: AJUNOK_clean_linker_0, # of connection points: 2
#     Edge 135, Type (0, 1), BuildingBlock: AJUNOK_clean_linker_0, # of connection points: 2
# Relax obj value: 0.156
# Max RMSD: 0.346
# Mean RMSD: 0.173
data_MOF--net-gar--node1-GALJAG_clean_sbu_0--node2-KUMBOL_clean_sbu_0--edge1-AJUNOK_clean_linker_0
_symmetry_space_group_name_H-M    P1
_symmetry_Int_Tables_number       1
_symmetry_cell_setting            triclinic
loop_
_symmetry_equiv_pos_as_xyz
'x, y, z'
_cell_length_a     47.528404
_cell_length_b     42.459273
_cell_length_c     42.411142
_cell_angle_alpha  101.34534
_cell_angle_beta   94.173977
_cell_angle_gamma 102.21851
loop_
_atom_site_label
_atom_site_type_symbol
_atom_site_fract_x
_atom_site_fract_y
_atom_site_fract_z
_atom_type_partial_charge
In0 In 0.14369 0.33825 0.38503 0.0
O1 O 0.16484 0.3132 0.34418 0.0
O2 O 0.19103 0.35315 0.37992 0.0
C3 C 0.09683 0.33669 0.34642 0.0
C4 C 0.13904 0.29216 0.41989 0.0
C5 C 0.13862 0.39505 0.42212 0.0
O6 O 0.12197 0.34847 0.34038 0.0
O7 O 0.09554 0.32371 0.3707 0.0
O8 O 0.13298 0.36784 0.43055 0.0
O9 O 0.15004 0.39452 0.39616 0.0
C10 C 0.18954 0.33204 0.35394 0.0
O11 O 0.15756 0.31935 0.42814 0.0
O12 O 0.12404 0.2875 0.3928 0.0
In13 In 1.01089 0.75922 0.67372 0.0
O14 O 1.00665 0.77123 0.62526 0.0
O15 O 0.02975 0.81008 0.66409 0.0
C16 C 1.00804 0.69913 0.63832 0.0
C17 C 0.05986 0.76006 0.70862 0.0
C18 C 0.96371 0.76666 0.70166 0.0
O19 O 1.00218 0.72195 0.626 0.0
O20 O 0.0138 0.70609 0.66866 0.0
O21 O 0.98847 0.78286 0.71487 0.0
O22 O 0.96301 0.74742 0.67492 0.0
C23 C 0.0209 0.80064 0.63412 0.0
O24 O 0.03531 0.74431 0.71291 0.0
O25 O 0.05971 0.77769 0.68786 0.0
In26 In 0.6456 0.83962 0.8912 0.0
O27 O 0.6629 0.81829 0.84569 0.0
O28 O 0.69349 0.84659 0.88554 0.0
C29 C 0.60159 0.84427 0.85166 0.0
C30 C 0.63581 0.7918 0.92369 0.0
C31 C 0.64193 0.89368 0.93371 0.0
O32 O 0.62427 0.86703 0.85999 0.0
O33 O 0.60184 0.81849 0.86214 0.0
O34 O 0.62857 0.86505 0.93482 0.0
O35 O 0.65911 0.89493 0.91238 0.0
C36 C 0.68911 0.83023 0.85664 0.0
O37 O 0.65776 0.81572 0.93171 0.0
O38 O 0.62004 0.79144 0.89836 0.0
In39 In 0.51049 0.25987 0.17357 0.0
O40 O 0.51466 0.23675 0.12243 0.0
O41 O 0.50247 0.20464 0.15421 0.0
C42 C 0.52453 0.30976 0.14394 0.0
C43 C 0.46346 0.26136 0.20427 0.0
C44 C 0.55864 0.25583 0.20725 0.0
O45 O 0.5008 0.28853 0.13597 0.0
O46 O 0.53961 0.30736 0.16866 0.0
O47 O 0.55344 0.28321 0.20466 0.0
O48 O 0.53858 0.23085 0.19477 0.0
C49 C 0.50875 0.20761 0.12637 0.0
O50 O 0.48863 0.27222 0.21915 0.0
O51 O 0.46239 0.25073 0.17433 0.0
In52 In 0.12701 0.82744 0.12239 0.0
O53 O 0.12488 0.77917 0.08006 0.0
O54 O 0.11407 0.77232 0.12576 0.0
C55 C 0.11906 0.88378 0.09583 0.0
C56 C 0.07805 0.82203 0.15225 0.0
C57 C 0.18044 0.83467 0.16065 0.0
O58 O 0.11892 0.85565 0.07838 0.0
O59 O 0.1253 0.88387 0.12534 0.0
O60 O 0.15797 0.84166 0.17154 0.0
O61 O 0.17706 0.82638 0.12994 0.0
C62 C 0.11702 0.7583 0.09748 0.0
O63 O 0.10287 0.83675 0.16686 0.0
O64 O 0.07788 0.81007 0.1225 0.0
In65 In 0.5275 0.77548 0.44602 0.0
O66 O 0.55144 0.76618 0.40065 0.0
O67 O 0.57662 0.79332 0.44459 0.0
C68 C 0.47383 0.77202 0.40856 0.0
C69 C 0.53619 0.71792 0.47081 0.0
C70 C 0.53762 0.84365 0.47639 0.0
O71 O 0.49783 0.77173 0.39771 0.0
O72 O 0.47573 0.77119 0.43841 0.0
O73 O 0.528 0.82074 0.49093 0.0
O74 O 0.54256 0.83206 0.44818 0.0
C75 C 0.57635 0.78147 0.41477 0.0
O76 O 0.53587 0.74562 0.48878 0.0
O77 O 0.53018 0.7187 0.44143 0.0
In78 In 0.62689 0.32365 0.62189 0.0
O79 O 0.62506 0.27514 0.57949 0.0
O80 O 0.61537 0.26862 0.62557 0.0
C81 C 0.61975 0.38038 0.59527 0.0
C82 C 0.57735 0.31736 0.65058 0.0
C83 C 0.6796 0.33012 0.66105 0.0
O84 O 0.61777 0.35167 0.57796 0.0
O85 O 0.6272 0.38071 0.62461 0.0
O86 O 0.656 0.3332 0.67174 0.0
O87 O 0.67759 0.32636 0.63042 0.0
C88 C 0.61807 0.25439 0.59729 0.0
O89 O 0.60134 0.33507 0.66507 0.0
O90 O 0.5782 0.30375 0.62153 0.0
In91 In 0.02915 0.27727 0.94611 0.0
O92 O 0.0395 0.24843 0.98896 0.0
O93 O 0.02716 0.21903 0.94282 0.0
C94 C 0.04043 0.34674 0.97385 0.0
C95 C 0.07721 0.28071 0.91342 0.0
C96 C 0.97455 0.2731 0.91028 0.0
O97 O 0.03196 0.32504 0.9902 0.0
O98 O 0.04367 0.33334 0.9455 0.0
O99 O 0.99781 0.27131 0.89814 0.0
O100 O 0.9778 0.27443 0.94058 0.0
C101 C 0.03598 0.21934 0.97185 0.0
O102 O 0.05161 0.26918 0.89947 0.0
O103 O 0.07859 0.28997 0.94379 0.0
In104 In 0.43748 0.04628 0.32697 0.0
O105 O 0.46373 0.05814 0.28746 0.0
O106 O 0.43367 1.01158 0.27825 0.0
C107 C 0.47874 0.06083 0.37507 0.0
C108 C 0.41385 0.09613 0.32304 0.0
C109 C 0.40332 0.98892 0.3293 0.0
O110 O 0.48357 0.05235 0.34629 0.0
O111 O 0.45307 0.06256 0.37942 0.0
O112 O 0.39337 1.01224 0.322 0.0
O113 O 0.43046 0.99546 0.33701 0.0
C114 C 0.45279 0.03108 0.26806 0.0
O115 O 0.40169 0.07284 0.33537 0.0
O116 O 0.43899 0.09547 0.3161 0.0
In117 In 0.30179 0.20281 0.51715 0.0
O118 O 0.30862 0.24806 0.56254 0.0
O119 O 0.30146 0.1997 0.57051 0.0
C120 C 0.30989 0.22681 0.46065 0.0
C121 C 0.34701 0.17401 0.5226 0.0
C122 C 0.24609 0.16491 0.50788 0.0
O123 O 0.30663 0.24487 0.48715 0.0
O124 O 0.3088 0.19745 0.46283 0.0
O125 O 0.26773 0.15351 0.50055 0.0
O126 O 0.25218 0.19585 0.51846 0.0
C127 C 0.30593 0.23001 0.58328 0.0
O128 O 0.32113 0.15821 0.51368 0.0
O129 O 0.35055 0.20506 0.52822 0.0
In130 In 0.20089 0.02175 0.77979 0.0
O131 O 0.15648 0.01718 0.74003 0.0
O132 O 0.19497 0.02606 0.72166 0.0
C133 C 0.17034 0.02613 0.84187 0.0
C134 C 0.23433 0.96567 0.7782 0.0
C135 C 0.23756 0.08799 0.78649 0.0
O136 O 0.16565 1.0015 0.81781 0.0
O137 O 0.19017 0.04821 0.83507 0.0
O138 O 0.24606 0.06139 0.77861 0.0
O139 O 0.21158 0.08145 0.79277 0.0
C140 C 0.16799 0.02332 0.71499 0.0
O141 O 0.24527 0.9967 0.78421 0.0
O142 O 0.20693 0.96265 0.77306 0.0
In143 In 0.35687 0.9538 0.01877 0.0
O144 O 0.34079 0.91267 0.04388 0.0
O145 O 0.36931 0.95722 0.07117 0.0
C146 C 0.34745 0.90853 0.96514 0.0
C147 C 0.31679 0.98699 0.03128 0.0
C148 C 0.40958 0.98228 1.0081 0.0
O149 O 0.35861 0.90399 0.99127 0.0
O150 O 0.34002 0.93561 0.96651 0.0
O151 O 0.38828 0.99454 1.00233 0.0
O152 O 0.40423 0.95771 0.02087 0.0
C153 C 0.35493 0.9285 0.07067 0.0
O154 O 0.34203 0.99627 0.04625 0.0
O155 O 0.31193 0.96163 1.00865 0.0
In156 In 0.3536 0.3903 0.04323 0.0
O157 O 0.34204 0.34623 0.0707 0.0
O158 O 0.35235 0.39464 0.09866 0.0
C159 C 0.34844 0.36048 0.97782 0.0
C160 C 0.30605 0.41647 0.04148 0.0
C161 C 0.40915 0.42977 0.04878 0.0
O162 O 0.35228 0.3451 0.99999 0.0
O163 O 0.34703 0.38982 0.98878 0.0
O164 O 0.38635 0.44049 0.04914 0.0
O165 O 0.40434 0.39897 0.04729 0.0
C166 C 0.34424 0.36437 0.09875 0.0
O167 O 0.33141 0.43391 0.05073 0.0
O168 O 0.30467 0.38587 0.0336 0.0
In169 In 0.79946 0.14029 0.03846 0.0
O170 O 0.81265 0.09169 0.0269 0.0
O171 O 0.84481 0.13467 0.05022 0.0
C172 C 0.74259 0.12319 0.04216 0.0
C173 C 0.81024 0.18501 0.09245 0.0
C174 C 0.80558 0.16141 0.98441 0.0
O175 O 0.75873 0.10328 0.04407 0.0
O176 O 0.7552 0.1509 0.03779 0.0
O177 O 0.82117 0.17566 0.01067 0.0
O178 O 0.78831 0.13452 0.98498 0.0
C179 C 0.83892 0.10419 0.03798 0.0
O180 O 0.80904 0.19303 0.06544 0.0
O181 O 0.80605 0.15446 0.09186 0.0
In182 In 0.22623 0.55242 0.24666 0.0
O183 O 0.26361 0.53202 0.22962 0.0
O184 O 0.22963 0.50131 0.24713 0.0
C185 C 0.25232 0.61539 0.25062 0.0
C186 C 0.18597 0.53887 0.19764 0.0
C187 C 0.20412 0.55397 0.30185 0.0
O188 O 0.26527 0.59591 0.2614 0.0
O189 O 0.22672 0.60273 0.23736 0.0
O190 O 0.19243 0.53376 0.2761 0.0
O191 O 0.22901 0.57107 0.3006 0.0
C192 C 0.25347 0.50419 0.23565 0.0
O193 O 0.18047 0.54773 0.22615 0.0
O194 O 0.21183 0.53723 0.19428 0.0
In195 In 0.85288 0.89121 0.54281 0.0
O196 O 0.83966 0.84703 0.56911 0.0
O197 O 0.85015 0.89492 0.5983 0.0
C198 C 0.84759 0.86114 0.47732 0.0
C199 C 0.80719 0.91982 0.542 0.0
C200 C 0.90856 0.93019 0.54896 0.0
O201 O 0.85194 0.846 0.49956 0.0
O202 O 0.84573 0.89033 0.48826 0.0
O203 O 0.88593 0.94103 0.54707 0.0
O204 O 0.90337 0.89967 0.54897 0.0
C205 C 0.8413 0.86454 0.59736 0.0
O206 O 0.83266 0.93552 0.55347 0.0
O207 O 0.80458 0.88928 0.5313 0.0
In208 In 0.95385 0.07265 0.28145 0.0
O209 O 0.99518 0.08871 0.24902 0.0
O210 O 0.96079 0.05307 0.22325 0.0
C211 C 0.98814 0.06866 0.34425 0.0
C212 C 0.92265 0.13072 0.28221 0.0
C213 C 0.91591 1.00648 0.27715 0.0
O214 O 0.99831 0.07015 0.31735 0.0
O215 O 0.96208 0.07137 0.34014 0.0
O216 O 0.91357 0.03294 0.29561 0.0
O217 O 0.93583 1.01338 0.25963 0.0
C218 C 0.98573 0.07018 0.22093 0.0
O219 O 0.9165 0.10252 0.26274 0.0
O220 O 0.94453 0.13033 0.3014 0.0
In221 In 0.29746 0.63821 0.5441 0.0
O222 O 0.31111 0.59013 0.53124 0.0
O223 O 0.34133 0.63218 0.56054 0.0
C224 C 0.24007 0.61997 0.54145 0.0
C225 C 0.3027 0.68512 0.59623 0.0
C226 C 0.30803 0.66172 0.49213 0.0
O227 O 0.25619 0.60131 0.54809 0.0
O228 O 0.25301 0.64683 0.53544 0.0
O229 O 0.32419 0.67225 0.51859 0.0
O230 O 0.28828 0.63624 0.49086 0.0
C231 C 0.33655 0.60271 0.54517 0.0
O232 O 0.30789 0.69125 0.56914 0.0
O233 O 0.29616 0.6549 0.59735 0.0
In234 In 0.45527 0.57289 0.78204 0.0
O235 O 0.41266 0.60145 0.78141 0.0
O236 O 0.45189 0.63303 0.786 0.0
C237 C 0.41831 0.50599 0.77624 0.0
C238 C 0.486 0.56916 0.72053 0.0
C239 C 0.48873 0.56964 0.84576 0.0
O240 O 0.41258 0.53278 0.79016 0.0
O241 O 0.44143 0.51263 0.7632 0.0
O242 O 0.50003 0.57799 0.82136 0.0
O243 O 0.46157 0.56565 0.83916 0.0
C244 C 0.42466 0.63183 0.78386 0.0
O245 O 0.4981 0.57881 0.74976 0.0
O246 O 0.45873 0.56136 0.72197 0.0
In247 In 0.73426 0.0627 0.7326 0.0
O248 O 0.76504 0.02906 0.72343 0.0
O249 O 0.72554 1.01242 0.7424 0.0
C250 C 0.77633 0.11495 0.73461 0.0
C251 C 0.68758 0.04918 0.69034 0.0
C252 C 0.71551 0.08503 0.7881 0.0
O253 O 0.77705 0.0964 0.75434 0.0
O254 O 0.75657 0.10404 0.71093 0.0
O255 O 0.72142 0.05703 0.78158 0.0
O256 O 0.72039 0.10211 0.76714 0.0
C257 C 0.74935 1.00685 0.73463 0.0
O258 O 0.68906 0.06502 0.71886 0.0
O259 O 0.71056 0.04114 0.68205 0.0
In260 In 0.80311 0.7011 0.01604 0.0
O261 O 0.82258 0.65611 0.01094 0.0
O262 O 0.85166 0.7021 0.03049 0.0
C263 C 0.7485 0.65978 1.00685 0.0
C264 C 0.80417 0.72961 0.08191 0.0
C265 C 0.80988 0.72525 0.95881 0.0
O266 O 0.77181 0.65009 1.00739 0.0
O267 O 0.75237 0.69068 1.00905 0.0
O268 O 0.80571 0.7429 0.98513 0.0
O269 O 0.81037 0.69637 0.9616 0.0
C270 C 0.84802 0.67107 0.02295 0.0
O271 O 0.81635 0.74616 0.0627 0.0
O272 O 0.79133 0.70077 0.06753 0.0
In273 In 0.93839 0.54353 0.83108 0.0
O274 O 0.90071 0.56507 0.84277 0.0
O275 O 0.93468 0.59185 0.82147 0.0
C276 C 0.90617 0.4858 0.83423 0.0
C277 C 0.95274 0.53486 0.77139 0.0
C278 C 0.98161 0.55828 0.87665 0.0
O279 O 0.89524 0.50947 0.82999 0.0
O280 O 0.9335 0.49205 0.83833 0.0
O281 O 0.98254 0.54208 0.84878 0.0
O282 O 0.95834 0.56714 0.88185 0.0
C283 C 0.90937 0.58882 0.82936 0.0
O284 O 0.96339 0.56064 0.7927 0.0
O285 O 0.93406 0.51346 0.77999 0.0
In286 In 0.85268 0.44932 0.51922 0.0
O287 O 0.8354 0.41548 0.55173 0.0
O288 O 0.86802 0.45897 0.5721 0.0
C289 C 0.84297 0.40518 0.46462 0.0
C290 C 0.81428 0.48624 0.51926 0.0
C291 C 0.90836 0.4725 0.51418 0.0
O292 O 0.84528 0.3971 0.49158 0.0
O293 O 0.84362 0.43527 0.4656 0.0
O294 O 0.89213 0.49126 0.52446 0.0
O295 O 0.89668 0.4421 0.50723 0.0
C296 C 0.85157 0.43319 0.57648 0.0
O297 O 0.84093 0.49741 0.51885 0.0
O298 O 0.80676 0.45569 0.51812 0.0
In299 In 0.70238 0.52024 0.28102 0.0
O300 O 0.74514 0.4922 0.27583 0.0
O301 O 0.70739 0.4615 0.28054 0.0
C302 C 0.73708 0.58785 0.28761 0.0
C303 C 0.66995 0.52062 0.21574 0.0
C304 C 0.67197 0.52418 0.34305 0.0
O305 O 0.74753 0.56364 0.29198 0.0
O306 O 0.70984 0.57847 0.28152 0.0
O307 O 0.66047 0.50943 0.31432 0.0
O308 O 0.69846 0.53663 0.34084 0.0
C309 C 0.73422 0.46259 0.27781 0.0
O310 O 0.65915 0.52022 0.24236 0.0
O311 O 0.69594 0.51784 0.22101 0.0
Gd312 Gd 0.11158 0.07602 0.05146 0.0
Gd313 Gd 0.04599 0.02817 0.0114 0.0
C314 C 0.02207 0.92055 0.02078 0.0
C315 C 0.01661 0.89091 0.96491 0.0
C316 C 0.03288 0.95101 0.97855 0.0
C317 C 0.03084 0.95094 0.01119 0.0
C318 C 0.02534 0.9208 0.95518 0.0
C319 C 0.01506 0.89078 0.99757 0.0
C320 C 0.02046 0.92069 0.05352 0.0
C321 C 0.02771 0.95047 0.07605 0.0
N322 N 0.03732 0.98012 0.03349 0.0
C323 C 0.03608 0.97987 0.06569 0.0
H324 H 0.04323 1.00165 0.08437 0.0
C325 C 0.03965 0.98056 0.93685 0.0
N326 N 0.04099 0.98028 0.96938 0.0
C327 C 0.03283 0.95136 0.91322 0.0
C328 C 0.02585 0.92132 0.92241 0.0
H329 H 0.04326 1.00343 0.92853 0.0
H330 H 1.00822 0.86743 1.00466 0.0
H331 H 0.11288 0.10396 0.98051 0.0
H332 H 0.01397 0.8979 0.06171 0.0
H333 H 0.02727 0.95084 0.1016 0.0
H334 H 1.01072 0.86768 0.94725 0.0
H335 H 0.11764 0.09766 0.13303 0.0
H336 H 0.14349 0.20802 1.00452 0.0
H337 H 0.12918 0.15555 0.96377 0.0
H338 H 0.14792 0.23565 0.11966 0.0
H339 H 0.03226 0.95214 0.88783 0.0
H340 H 0.02003 0.89867 0.90393 0.0
H341 H 0.14989 0.23754 0.06237 0.0
H342 H 0.12788 0.14767 0.17568 0.0
N343 N 0.11915 0.1252 0.03125 0.0
C344 C 0.13662 0.18503 0.01226 0.0
C345 C 0.12873 0.15552 0.98924 0.0
C346 C 0.13523 0.18461 0.04496 0.0
C347 C 0.12622 0.15397 0.05389 0.0
C348 C 0.12003 0.12587 0.99913 0.0
N349 N 0.11758 0.12307 0.09428 0.0
C350 C 0.12488 0.15293 0.08619 0.0
C351 C 0.12701 0.14981 0.15073 0.0
C352 C 0.13302 0.1806 0.1428 0.0
C353 C 0.12011 0.12133 0.12631 0.0
C354 C 0.13286 0.18246 0.1103 0.0
H355 H 0.13888 0.20268 0.16196 0.0
O356 O 0.15075 0.09496 0.08388 0.0
O357 O 0.08674 0.02316 0.03838 0.0
O358 O 0.03274 0.04479 0.06384 0.0
O359 O 0.07698 0.075 0.0913 0.0
O360 O 0.11759 0.035 0.07708 0.0
O361 O 0.15282 0.0665 0.03552 0.0
O362 O 0.01878 0.03209 0.97004 0.0
O363 O 0.07498 0.07935 0.01597 0.0
O364 O 0.12424 0.0591 0.99879 0.0
O365 O 0.08009 0.02897 0.9717 0.0
O366 O 0.03331 0.0781 0.0236 0.0
O367 O 0.99935 1.00909 1.0074 0.0
C368 C 0.09908 1.01016 0.05934 0.0
C369 C 0.14157 0.21285 0.10143 0.0
C370 C 0.14281 0.21391 0.06885 0.0
C371 C 0.16664 0.08319 0.06346 0.0
C372 C 0.1978 0.09021 0.07227 0.0
C373 C 0.21167 0.1187 0.09563 0.0
C374 C 0.21323 0.06694 0.06014 0.0
C375 C 0.24223 0.07149 0.07225 0.0
C376 C 0.24087 0.1237 0.1069 0.0
C377 C 0.25614 0.10002 0.0955 0.0
C378 C 0.04826 0.0624 0.09195 0.0
C379 C 0.05706 0.09829 0.02131 0.0
C380 C 0.99513 0.017 0.97946 0.0
C381 C 0.96847 0.02693 0.97079 0.0
C382 C 0.95959 0.02283 0.93765 0.0
C383 C 0.95092 0.03799 0.99382 0.0
C384 C 0.92433 0.04413 0.98323 0.0
C385 C 0.9334 0.02939 0.92734 0.0
C386 C 0.91577 0.03989 0.94998 0.0
C387 C 0.10867 0.0412 0.97095 0.0
H388 H 0.19986 0.13687 0.10545 0.0
H389 H 0.20238 0.04457 0.04265 0.0
H390 H 0.25149 0.14577 0.1247 0.0
H391 H 0.27875 0.1039 0.10476 0.0
H392 H 0.97283 1.01406 0.91965 0.0
H393 H 0.95749 0.04119 0.01949 0.0
H394 H 0.92667 0.02609 0.90174 0.0
H395 H 0.89541 0.04491 0.94158 0.0
Gd396 Gd 0.30849 0.8172 0.32297 0.0
Gd397 Gd 0.34184 0.7916 0.25177 0.0
C398 C 0.29974 0.69392 0.17882 0.0
C399 C 0.34057 0.66828 0.17289 0.0
C400 C 0.3454 0.72006 0.21201 0.0
C401 C 0.31718 0.72064 0.20234 0.0
C402 C 0.35746 0.69394 0.19719 0.0
C403 C 0.3117 0.66813 0.1639 0.0
C404 C 0.27056 0.69334 0.17137 0.0
C405 C 0.2591 0.71829 0.18796 0.0
N406 N 0.3064 0.74635 0.21689 0.0
C407 C 0.2771 0.74423 0.21084 0.0
H408 H 0.26632 0.76085 0.22486 0.0
C409 C 0.38961 0.74558 0.24493 0.0
N410 N 0.36118 0.74491 0.23589 0.0
C411 C 0.40245 0.72048 0.23091 0.0
C412 C 0.3863 0.69445 0.20693 0.0
H413 H 0.40327 0.76626 0.26178 0.0
H414 H 0.29869 0.64775 0.14558 0.0
H415 H 0.37865 0.85201 0.35512 0.0
H416 H 0.25649 0.67313 0.15375 0.0
H417 H 0.23614 0.71724 0.18371 0.0
H418 H 0.34955 0.64822 0.16115 0.0
H419 H 0.24092 0.82607 0.31563 0.0
H420 H 0.38253 0.94767 0.41173 0.0
H421 H 0.40626 0.90234 0.39196 0.0
H422 H 0.2849 0.95979 0.39742 0.0
H423 H 0.42503 0.72166 0.23814 0.0
H424 H 0.39637 0.67509 0.19584 0.0
H425 H 0.33734 0.9691 0.41313 0.0
H426 H 0.21299 0.86676 0.33643 0.0
N427 N 0.33857 0.86712 0.3539 0.0
C428 C 0.37001 0.92524 0.39559 0.0
C429 C 0.38343 0.89968 0.38463 0.0
C430 C 0.34056 0.92146 0.38577 0.0
C431 C 0.32525 0.89179 0.36461 0.0
C432 C 0.36735 0.8707 0.36383 0.0
N433 N 0.28199 0.85801 0.33512 0.0
C434 C 0.29602 0.887 0.35504 0.0
C435 C 0.23639 0.87307 0.3414 0.0
C436 C 0.25079 0.90398 0.35988 0.0
C437 C 0.25237 0.85019 0.32946 0.0
C438 C 0.28091 0.91111 0.36738 0.0
H439 H 0.23837 0.92169 0.36913 0.0
O440 O 0.27055 0.79254 0.34093 0.0
O441 O 0.3182 0.77419 0.29 0.0
O442 O 0.302 0.80854 0.23255 0.0
O443 O 0.28238 0.82934 0.27952 0.0
O444 O 0.27488 0.77345 0.29586 0.0
O445 O 0.31206 0.81145 0.37285 0.0
O446 O 0.38696 0.81556 0.25306 0.0
O447 O 0.34237 0.83172 0.29355 0.0
O448 O 0.34765 0.79858 0.34223 0.0
O449 O 0.37044 0.78588 0.29616 0.0
O450 O 0.34149 0.84391 0.24849 0.0
O451 O 0.36017 0.79399 0.2069 0.0
C452 C 0.29274 0.75677 0.28405 0.0
C453 C 0.29611 0.94092 0.3879 0.0
C454 C 0.32592 0.94616 0.39693 0.0
C455 C 0.28441 0.79783 0.36958 0.0
C456 C 0.26974 0.78792 0.39562 0.0
C457 C 0.24463 0.79808 0.40436 0.0
C458 C 0.27955 0.76487 0.40946 0.0
C459 C 0.26439 0.75143 0.43209 0.0
C460 C 0.22976 0.78518 0.42798 0.0
C461 C 0.23969 0.76176 0.44203 0.0
C462 C 0.28194 0.82219 0.24709 0.0
C463 C 0.34256 0.85498 0.27924 0.0
C464 C 0.38535 0.81151 0.22171 0.0
C465 C 0.39873 0.84047 0.20978 0.0
C466 C 0.42765 0.85682 0.22121 0.0
C467 C 0.3832 0.85167 0.18672 0.0
C468 C 0.39664 0.8786 0.17476 0.0
C469 C 0.44093 0.88406 0.20948 0.0
C470 C 0.42549 0.8949 0.18618 0.0
C471 C 0.36985 0.78962 0.32811 0.0
H472 H 0.23661 0.81567 0.39293 0.0
H473 H 0.29876 0.75673 0.40208 0.0
H474 H 0.21052 0.79306 0.43515 0.0
H475 H 0.22821 0.75166 0.46026 0.0
H476 H 0.43995 0.84838 0.23905 0.0
H477 H 0.36079 0.83945 0.1778 0.0
H478 H 0.46327 0.89652 0.21816 0.0
H479 H 0.43606 0.91554 0.17656 0.0
Gd480 Gd 0.54317 0.04984 0.55609 0.0
Gd481 Gd 0.61085 0.04713 0.52522 0.0
C482 C 0.66768 0.14895 0.52748 0.0
C483 C 0.66844 0.14854 0.47028 0.0
C484 C 0.64215 0.10023 0.48742 0.0
C485 C 0.65006 0.11652 0.51963 0.0
C486 C 0.6527 0.11555 0.46257 0.0
C487 C 0.67569 0.1653 0.50268 0.0
C488 C 0.67812 0.1634 0.5599 0.0
C489 C 0.67271 0.14483 0.58335 0.0
N490 N 0.643 0.09967 0.54313 0.0
C491 C 0.65559 0.11267 0.57446 0.0
H492 H 0.65261 0.09893 0.59322 0.0
C493 C 0.6244 0.04937 0.44984 0.0
N494 N 0.62681 0.06835 0.48052 0.0
C495 C 0.63518 0.06326 0.42466 0.0
C496 C 0.64866 0.09674 0.43087 0.0
H497 H 0.61384 0.0234 0.44471 0.0
H498 H 0.68884 0.19033 0.50832 0.0
H499 H 0.51397 0.99207 0.48926 0.0
H500 H 0.69157 0.18826 0.56686 0.0
H501 H 0.68177 0.15523 0.60834 0.0
H502 H 0.67618 0.16086 0.45144 0.0
H503 H 0.54495 0.07577 0.6359 0.0
H504 H 0.46059 0.9104 0.51748 0.0
H505 H 0.48034 0.93728 0.47448 0.0
H506 H 0.46951 0.94487 0.63317 0.0
H507 H 0.63276 0.04822 0.40043 0.0
H508 H 0.6568 0.10753 0.41125 0.0
H509 H 0.45712 0.91323 0.57682 0.0
H510 H 0.52525 0.0543 0.68195 0.0
N511 N 0.51214 0.99711 0.53976 0.0
C512 C 0.47489 0.9348 0.524 0.0
C513 C 0.48581 0.94996 0.49965 0.0
C514 C 0.48242 0.95141 0.55647 0.0
C515 C 0.50126 0.98304 0.56366 0.0
C516 C 0.50442 0.98135 0.50804 0.0
N517 N 0.52629 0.03128 0.60128 0.0
C518 C 0.50846 1.00069 0.59539 0.0
C519 C 0.52056 0.03889 0.65777 0.0
C520 C 0.50326 1.00686 0.65235 0.0
C521 C 0.5317 0.05095 0.63174 0.0
C522 C 0.49676 0.98744 0.62082 0.0
H523 H 0.49461 0.9976 0.67256 0.0
O524 O 0.52424 0.09068 0.57541 0.0
O525 O 0.58328 0.08283 0.54396 0.0
O526 O 0.61337 0.05544 0.57889 0.0
O527 O 0.56856 0.03028 0.59065 0.0
O528 O 0.57044 0.09635 0.58918 0.0
O529 O 0.50132 0.05307 0.53429 0.0
O530 O 0.62754 1.0078 0.4984 0.0
O531 O 0.5657 0.01559 0.52465 0.0
O532 O 0.53957 0.05623 0.50619 0.0
O533 O 0.57917 0.04385 0.48167 0.0
O534 O 0.5997 0.99597 0.53553 0.0
O535 O 0.65317 0.04023 0.542 0.0
C536 C 0.58818 0.10614 0.56954 0.0
C537 C 0.47854 0.9556 0.61392 0.0
C538 C 0.47145 0.9376 0.58182 0.0
C539 C 0.50111 0.08035 0.55447 0.0
C540 C 0.47365 0.08323 0.56682 0.0
C541 C 0.46468 0.06905 0.59265 0.0
C542 C 0.45645 0.10119 0.55288 0.0
C543 C 0.43022 0.10476 0.56464 0.0
C544 C 0.43875 0.07284 0.60458 0.0
C545 C 0.42153 0.0905 0.59062 0.0
C546 C 0.59677 0.03938 0.59664 0.0
C547 C 0.57201 0.98924 0.5308 0.0
C548 C 0.6513 1.01464 0.5184 0.0
C549 C 0.67774 1.00931 0.5045 0.0
C550 C 0.68367 0.01669 0.4745 0.0
C551 C 0.69587 0.9934 0.52009 0.0
C552 C 0.7194 0.98459 0.50541 0.0
C553 C 0.70704 1.00785 0.45993 0.0
C554 C 0.72482 0.99177 0.47524 0.0
C555 C 0.55347 0.05092 0.48099 0.0
H556 H 0.47765 0.05517 0.60364 0.0
H557 H 0.46326 0.112 0.53273 0.0
H558 H 0.43195 0.062 0.62464 0.0
H559 H 0.40141 0.09313 0.60014 0.0
H560 H 0.67013 0.02875 0.46201 0.0
H561 H 0.69144 0.98741 0.54321 0.0
H562 H 0.71128 1.01329 0.43661 0.0
H563 H 0.7429 0.98499 0.46362 0.0
Gd564 Gd 0.36241 0.28867 0.7795 0.0
Gd565 Gd 0.29266 0.30497 0.78362 0.0
C566 C 0.24596 0.28135 0.68043 0.0
C567 C 0.24718 0.33615 0.67117 0.0
C568 C 0.26696 0.32936 0.72336 0.0
C569 C 0.25995 0.29534 0.71224 0.0
C570 C 0.25953 0.34995 0.70327 0.0
C571 C 0.24053 0.30193 0.65973 0.0
C572 C 0.23703 0.24705 0.67051 0.0
C573 C 0.24064 0.22755 0.69255 0.0
N574 N 0.26522 0.27594 0.73294 0.0
C575 C 0.25429 0.24235 0.72384 0.0
H576 H 0.25574 0.22595 0.73981 0.0
C577 C 0.28025 0.37461 0.76811 0.0
N578 N 0.27885 0.34221 0.7545 0.0
C579 C 0.27335 0.39596 0.7492 0.0
C580 C 0.26359 0.38372 0.7164 0.0
H581 H 0.287 0.38426 0.79369 0.0
H582 H 0.23024 0.29157 0.63514 0.0
H583 H 0.39003 0.36434 0.82656 0.0
H584 H 0.22643 0.23545 0.64626 0.0
H585 H 0.23292 0.20099 0.68547 0.0
H586 H 0.2418 0.35168 0.65529 0.0
H587 H 0.37496 0.21335 0.76258 0.0
H588 H 0.42634 0.35364 0.91783 0.0
H589 H 0.41426 0.38929 0.88169 0.0
H590 H 0.42183 0.23757 0.90032 0.0
H591 H 0.27537 0.42176 0.76003 0.0
H592 H 0.25806 0.40027 0.70178 0.0
H593 H 0.4283 0.29662 0.92488 0.0
H594 H 0.39235 0.17445 0.79145 0.0
N595 N 0.3873 0.31485 0.83132 0.0
C596 C 0.41558 0.34253 0.89356 0.0
C597 C 0.4089 0.36272 0.87322 0.0
C598 C 0.40937 0.3083 0.88183 0.0
C599 C 0.39524 0.29511 0.8501 0.0
C600 C 0.39497 0.34841 0.8419 0.0
N601 N 0.37977 0.25104 0.8051 0.0
C602 C 0.39117 0.26197 0.83655 0.0
C603 C 0.39171 0.19882 0.80458 0.0
C604 C 0.40102 0.2087 0.83776 0.0
C605 C 0.38178 0.22075 0.78837 0.0
C606 C 0.40168 0.24098 0.85397 0.0
H607 H 0.40897 0.19179 0.85025 0.0
O608 O 0.38664 0.27146 0.74047 0.0
O609 O 0.32411 0.29338 0.74783 0.0
O610 O 0.28618 0.24993 0.78484 0.0
O611 O 0.33199 0.23894 0.78616 0.0
O612 O 0.33943 0.25042 0.73649 0.0
O613 O 0.40507 0.31706 0.77414 0.0
O614 O 0.27448 0.33502 0.82099 0.0
O615 O 0.33547 0.3129 0.81339 0.0
O616 O 0.36642 0.34078 0.76885 0.0
O617 O 0.32653 0.35642 0.78921 0.0
O618 O 0.29983 0.28779 0.82997 0.0
O619 O 0.24787 0.28875 0.79287 0.0
C620 C 0.32176 0.26657 0.72657 0.0
C621 C 0.41403 0.25343 0.88634 0.0
C622 C 0.4178 0.28707 0.90029 0.0
C623 C 0.40908 0.29593 0.74935 0.0
C624 C 0.43763 0.28759 0.74987 0.0
C625 C 0.44634 0.27076 0.77279 0.0
C626 C 0.45632 0.29612 0.72703 0.0
C627 C 0.48311 0.28699 0.72677 0.0
C628 C 0.47264 0.2612 0.77214 0.0
C629 C 0.49089 0.26909 0.74916 0.0
C630 C 0.30314 0.22887 0.78595 0.0
C631 C 0.32687 0.30135 0.83752 0.0
C632 C 0.24951 0.31377 0.81681 0.0
C633 C 0.22292 0.32598 0.82279 0.0
C634 C 0.21979 0.35566 0.81488 0.0
C635 C 0.20091 0.30854 0.83802 0.0
C636 C 0.17596 0.32074 0.8447 0.0
C637 C 0.19532 0.36778 0.82158 0.0
C638 C 0.17357 0.35049 0.83623 0.0
C639 C 0.35245 0.36439 0.77826 0.0
H640 H 0.43298 0.26509 0.79128 0.0
H641 H 0.45005 0.30962 0.70953 0.0
H642 H 0.47899 0.24783 0.78966 0.0
H643 H 0.51136 0.26169 0.74914 0.0
H644 H 0.23631 0.36977 0.80382 0.0
H645 H 0.20318 0.28572 0.84462 0.0
H646 H 0.19326 0.39086 0.81554 0.0
H647 H 0.15491 0.36065 0.84139 0.0
Gd648 Gd 0.08726 1.00809 0.51169 0.0
Gd649 Gd 0.07027 0.0825 0.54649 0.0
C650 C 0.10336 0.11749 0.65419 0.0
C651 C 0.05888 0.11986 0.6782 0.0
C652 C 0.05715 0.09995 0.61999 0.0
C653 C 0.08715 0.10469 0.6233 0.0
C654 C 0.04284 0.10811 0.64745 0.0
C655 C 0.08903 0.12451 0.68155 0.0
C656 C 0.13362 0.12408 0.65667 0.0
C657 C 0.14715 0.11865 0.62879 0.0
N658 N 0.10064 0.09868 0.59634 0.0
C659 C 0.13035 0.10619 0.59877 0.0
H660 H 0.14169 0.10153 0.57806 0.0
C661 C 0.01318 0.08931 0.58551 0.0
N662 N 0.04218 0.08983 0.58984 0.0
C663 C 0.9981 0.09649 0.61201 0.0
C664 C 0.01294 0.10564 0.64316 0.0
H665 H 1.00177 0.0843 0.56139 0.0
H666 H 0.10116 0.13437 0.70536 0.0
H667 H 0.01745 0.98797 0.47909 0.0
H668 H 0.14674 0.1339 0.67993 0.0
H669 H 0.17058 0.12382 0.63036 0.0
H670 H 0.04821 0.12627 0.69948 0.0
H671 H 0.15534 1.00131 0.50041 0.0
H672 H 0.01406 0.95592 0.37686 0.0
H673 H 0.98914 0.9669 0.42561 0.0
H674 H 0.11287 0.95799 0.36106 0.0
H675 H 0.97518 0.09574 0.60833 0.0
H676 H 1.00128 0.11187 0.66365 0.0
H677 H 0.0603 0.95317 0.35302 0.0
H678 H 0.18226 0.98337 0.45528 0.0
N679 N 0.05845 0.99093 0.46126 0.0
C680 C 0.02672 0.96561 0.4004 0.0
C681 C 0.01257 0.9717 0.42783 0.0
C682 C 0.05695 0.97093 0.40379 0.0
C683 C 0.0725 0.98371 0.43498 0.0
C684 C 0.02881 0.98383 0.45824 0.0
N685 N 0.11641 0.99724 0.46997 0.0
C686 C 0.10228 0.9869 0.43945 0.0
C687 C 0.15991 0.98467 0.4504 0.0
C688 C 0.14628 0.97632 0.41871 0.0
C689 C 0.1446 0.99494 0.47585 0.0
C690 C 0.11703 0.97675 0.41292 0.0
H691 H 0.15823 0.96838 0.399 0.0
O692 O 0.10893 0.96911 0.51622 0.0
O693 O 0.093 0.04372 0.56091 0.0
O694 O 0.11393 0.09561 0.52893 0.0
O695 O 0.12625 0.04731 0.50515 0.0
O696 O 0.11583 1.00842 0.55796 0.0
O697 O 0.06107 0.95887 0.50975 0.0
O698 O 0.05476 0.12765 0.55792 0.0
O699 O 0.06368 0.04661 0.49739 0.0
O700 O 0.04532 0.99555 0.53408 0.0
O701 O 0.02848 0.04322 0.54233 0.0
O702 O 0.04082 0.08221 0.50118 0.0
O703 O 0.09247 0.12587 0.53109 0.0
C704 C 0.10935 0.031 0.57929 0.0
C705 C 0.10182 0.96558 0.3817 0.0
C706 C 0.07187 0.96274 0.37714 0.0
C707 C 0.08444 0.94779 0.51349 0.0
C708 C 0.08353 0.91362 0.51367 0.0
C709 C 0.10015 0.8963 0.494 0.0
C710 C 0.06882 0.8996 0.53658 0.0
C711 C 0.07018 0.86787 0.53953 0.0
C712 C 0.10146 0.86446 0.49688 0.0
C713 C 0.08645 0.85017 0.51955 0.0
C714 C 0.13198 0.07988 0.51408 0.0
C715 C 0.04706 0.05962 0.47949 0.0
C716 C 0.07449 0.14296 0.54303 0.0
C717 C 0.07714 0.17725 0.54066 0.0
C718 C 0.06296 0.1975 0.56088 0.0
C719 C 0.09256 0.18945 0.51695 0.0
C720 C 0.09385 0.2218 0.51373 0.0
C721 C 0.06429 0.22977 0.55757 0.0
C722 C 0.07969 0.24195 0.5341 0.0
C723 C 0.02472 1.01134 0.54132 0.0
H724 H 0.1123 0.90754 0.47681 0.0
H725 H 0.05706 0.91365 0.55267 0.0
H726 H 0.11433 0.85101 0.4818 0.0
H727 H 0.0878 0.82555 0.52183 0.0
H728 H 0.05075 0.18834 0.5791 0.0
H729 H 0.10329 0.17387 0.50089 0.0
H730 H 0.05324 0.24531 0.57309 0.0
H731 H 0.08038 0.26699 0.53159 0.0
Gd732 Gd 0.29937 0.77772 0.78906 0.0
Gd733 Gd 0.36443 0.82342 0.7704 0.0
C734 C 0.37669 0.92346 0.74309 0.0
C735 C 0.39074 0.91136 0.68894 0.0
C736 C 0.37756 0.86722 0.71782 0.0
C737 C 0.3718 0.8896 0.74373 0.0
C738 C 0.3882 0.87823 0.69072 0.0
C739 C 0.38513 0.93395 0.71515 0.0
C740 C 0.3748 0.94614 0.77124 0.0
C741 C 0.36815 0.93497 0.79916 0.0
N742 N 0.36475 0.87902 0.77091 0.0
C743 C 0.36262 0.9012 0.79841 0.0
H744 H 0.3573 0.89355 0.82038 0.0
C745 C 0.38899 0.81546 0.7 0.0
N746 N 0.37684 0.83591 0.72114 0.0
C747 C 0.39944 0.82516 0.67262 0.0
C748 C 0.39839 0.85641 0.66755 0.0
H749 H 0.39019 0.79144 0.70425 0.0
H750 H 0.38868 0.95978 0.71414 0.0
H751 H 0.31478 0.71638 0.73365 0.0
H752 H 0.37897 0.97235 0.77184 0.0
H753 H 0.36684 0.95227 0.82116 0.0
H754 H 0.39863 0.92017 0.66819 0.0
H755 H 0.28021 0.8027 0.86266 0.0
H756 H 0.29187 0.62777 0.76817 0.0
H757 H 0.30789 0.65637 0.72487 0.0
H758 H 0.27008 0.66502 0.87572 0.0
H759 H 0.40837 0.80859 0.65552 0.0
H760 H 0.40686 0.86404 0.64651 0.0
H761 H 0.27897 0.63149 0.82482 0.0
H762 H 0.26693 0.77866 0.90962 0.0
N763 N 0.30075 0.72205 0.78061 0.0
C764 C 0.29435 0.65424 0.77195 0.0
C765 C 0.30329 0.67023 0.74741 0.0
C766 C 0.28947 0.67271 0.80142 0.0
C767 C 0.29291 0.70712 0.80514 0.0
C768 C 0.30673 0.70436 0.75233 0.0
N769 N 0.28983 0.75897 0.83632 0.0
C770 C 0.28789 0.72616 0.83396 0.0
C771 C 0.27315 0.76376 0.88871 0.0
C772 C 0.2726 0.73053 0.88748 0.0
C773 C 0.28103 0.77742 0.86237 0.0
C774 C 0.2793 0.7111 0.85961 0.0
H775 H 0.26599 0.71984 0.90772 0.0
O776 O 0.25777 0.78682 0.79771 0.0
O777 O 0.31804 0.8296 0.77913 0.0
O778 O 0.35598 0.83946 0.82144 0.0
O779 O 0.32881 0.79404 0.83505 0.0
O780 O 0.27961 0.82271 0.79482 0.0
O781 O 0.26037 0.74446 0.76026 0.0
O782 O 0.40798 0.81604 0.77144 0.0
O783 O 0.34563 0.77153 0.78 0.0
O784 O 0.29948 0.76672 0.73636 0.0
O785 O 0.33752 0.80279 0.72193 0.0
O786 O 0.38465 0.77846 0.76562 0.0
O787 O 0.39981 0.85869 0.80325 0.0
C788 C 0.296 0.84464 0.78305 0.0
C789 C 0.27658 0.67698 0.85622 0.0
C790 C 0.28151 0.65784 0.82718 0.0
C791 C 0.24368 0.76191 0.7751 0.0
C792 C 0.21546 0.74576 0.78243 0.0
C793 C 0.21246 0.73472 0.81132 0.0
C794 C 0.19093 0.74821 0.76361 0.0
C795 C 0.16349 0.74052 0.77397 0.0
C796 C 0.1852 0.72701 0.82174 0.0
C797 C 0.16085 0.73029 0.80342 0.0
C798 C 0.34631 0.82315 0.84301 0.0
C799 C 0.36735 0.75601 0.77589 0.0
C800 C 0.41918 0.84305 0.79274 0.0
C801 C 0.44658 0.86186 0.78565 0.0
C802 C 0.44799 0.88022 0.76148 0.0
C803 C 0.47201 0.8569 0.80025 0.0
C804 C 0.49872 0.86853 0.78971 0.0
C805 C 0.47466 0.89283 0.75155 0.0
C806 C 0.49999 0.88684 0.76543 0.0
C807 C 0.3138 0.77896 0.71473 0.0
H808 H 0.23116 0.73336 0.82648 0.0
H809 H 0.19335 0.75734 0.74155 0.0
H810 H 0.18304 0.71935 0.84449 0.0
H811 H 0.14002 0.72536 0.81254 0.0
H812 H 0.42871 0.88443 0.74998 0.0
H813 H 0.47083 0.84302 0.81923 0.0
H814 H 0.47561 0.90666 0.73261 0.0
H815 H 0.52043 0.896 0.75688 0.0
Gd816 Gd 0.57197 0.06782 0.98314 0.0
Gd817 Gd 0.57889 0.04308 0.06022 0.0
C818 C 0.66339 0.09123 0.12866 0.0
C819 C 0.68308 0.04378 0.13257 0.0
C820 C 0.63764 0.03686 0.09858 0.0
C821 C 0.63931 0.0705 0.10743 0.0
C822 C 0.65945 0.02321 0.11138 0.0
C823 C 0.68511 0.07769 0.14108 0.0
C824 C 0.6652 0.1251 0.13687 0.0
C825 C 0.64342 0.13779 0.12416 0.0
N826 N 0.61783 0.08304 0.09519 0.0
C827 C 0.61991 0.11659 0.10354 0.0
H828 H 0.60459 0.12853 0.09395 0.0
C829 C 0.61167 0.98376 0.07049 0.0
N830 N 0.61479 0.01735 0.07768 0.0
C831 C 0.63275 0.96932 0.08237 0.0
C832 C 0.65686 0.98914 0.10276 0.0
H833 H 0.59236 0.96749 0.05651 0.0
H834 H 0.70358 0.09329 0.15742 0.0
H835 H 0.54819 0.98646 0.94968 0.0
H836 H 0.6834 0.1417 0.15289 0.0
H837 H 0.6448 0.16411 0.13003 0.0
H838 H 0.69995 0.03366 0.14255 0.0
H839 H 0.56676 0.14256 0.97554 0.0
H840 H 0.46272 0.97054 0.90161 0.0
H841 H 0.50452 0.94875 0.91801 0.0
H842 H 0.44817 0.08011 0.91076 0.0
H843 H 0.63003 0.94278 0.07631 0.0
H844 H 0.6731 0.97783 0.1122 0.0
H845 H 0.44157 0.01971 0.89974 0.0
H846 H 0.52987 0.16992 0.95582 0.0
N847 N 0.53158 0.02956 0.95193 0.0
C848 C 0.48197 0.98733 0.91554 0.0
C849 C 0.50553 0.97495 0.92466 0.0
C850 C 0.48387 0.02135 0.9237 0.0
C851 C 0.50939 0.04212 0.94194 0.0
C852 C 0.53036 0.99654 0.94277 0.0
N853 N 0.53821 0.09512 0.96494 0.0
C854 C 0.51277 0.07599 0.94882 0.0
C855 C 0.52454 0.14355 0.95428 0.0
C856 C 0.49712 0.12456 0.94044 0.0
C857 C 0.5452 0.12817 0.96572 0.0
C858 C 0.49121 0.0902 0.93671 0.0
H859 H 0.48119 0.13646 0.93134 0.0
O860 O 0.60337 0.10027 0.96318 0.0
O861 O 0.60191 0.06491 0.02408 0.0
O862 O 0.56557 0.09121 0.06833 0.0
O863 O 0.55263 0.10228 0.01781 0.0
O864 O 0.60675 0.1105 0.01211 0.0
O865 O 0.58206 0.05126 0.93467 0.0
O866 O 0.55355 0.99813 0.07012 0.0
O867 O 0.55156 0.03465 0.01299 0.0
O868 O 0.5938 0.02558 0.97648 0.0
O869 O 0.58541 1.00201 0.02094 0.0
O870 O 0.53233 0.04487 0.05534 0.0
O871 O 0.56257 0.04508 0.10618 0.0
C872 C 0.61782 0.0935 0.02972 0.0
C873 C 0.46517 0.06965 0.91988 0.0
C874 C 0.46146 0.03527 0.91349 0.0
C875 C 0.60012 0.07925 0.93574 0.0
C876 C 0.59934 0.09307 0.90746 0.0
C877 C 0.57527 0.10293 0.89501 0.0
C878 C 0.62443 0.09654 0.89283 0.0
C879 C 0.62563 0.10838 0.86466 0.0
C880 C 0.57701 0.11684 0.86773 0.0
C881 C 0.60218 0.11939 0.85227 0.0
C882 C 0.55466 0.10845 0.0498 0.0
C883 C 0.52821 0.03772 0.02432 0.0
C884 C 0.54935 1.01384 0.09841 0.0
C885 C 0.54638 0.99672 0.12453 0.0
C886 C 0.56631 0.97941 0.1341 0.0
C887 C 0.52365 1.00112 0.14228 0.0
C888 C 0.52161 0.99033 0.17101 0.0
C889 C 0.56319 0.96655 0.16186 0.0
C890 C 0.541 0.97223 0.18056 0.0
C891 C 0.59466 1.00207 0.99239 0.0
H892 H 0.55534 0.09959 0.90588 0.0
H893 H 0.64284 0.08845 0.90258 0.0
H894 H 0.55858 0.12465 0.85801 0.0
H895 H 0.60289 0.12847 0.83014 0.0
H896 H 0.58431 0.97629 0.12079 0.0
H897 H 0.50834 1.01469 0.13465 0.0
H898 H 0.57854 0.9532 0.16948 0.0
H899 H 0.53963 0.96364 0.20294 0.0
Gd900 Gd 0.30195 0.25188 0.25793 0.0
Gd901 Gd 0.34855 0.33004 0.29648 0.0
C902 C 0.44446 0.34491 0.28173 0.0
C903 C 0.46723 0.35045 0.33609 0.0
C904 C 0.41443 0.33669 0.32473 0.0
C905 C 0.41672 0.33798 0.29247 0.0
C906 C 0.43989 0.34387 0.34693 0.0
C907 C 0.46951 0.35084 0.30359 0.0
C908 C 0.44644 0.34592 0.24927 0.0
C909 C 0.42128 0.34023 0.22822 0.0
N910 N 0.39216 0.333 0.27171 0.0
C911 C 0.39441 0.33403 0.23982 0.0
H912 H 0.37602 0.32932 0.22226 0.0
C913 C 0.38566 0.3355 0.36769 0.0
N914 N 0.3877 0.3308 0.33497 0.0
C915 C 0.41011 0.34214 0.39025 0.0
C916 C 0.43736 0.3459 0.37981 0.0
H917 H 0.36537 0.3362 0.3772 0.0
H918 H 0.49083 0.35622 0.29566 0.0
H919 H 0.27396 0.26889 0.33241 0.0
H920 H 0.46729 0.35085 0.24017 0.0
H921 H 0.42251 0.34052 0.20289 0.0
H922 H 0.48684 0.35581 0.3528 0.0
H923 H 0.28301 0.24502 0.17717 0.0
H924 H 0.18816 0.20923 0.31658 0.0
H925 H 0.23025 0.24485 0.35384 0.0
H926 H 0.1687 0.1777 0.20158 0.0
H927 H 0.40793 0.3456 0.41587 0.0
H928 H 0.45638 0.35184 0.39748 0.0
H929 H 0.16548 0.18391 0.25965 0.0
H930 H 0.24124 0.21711 0.13787 0.0
N931 N 0.25864 0.24557 0.28299 0.0
C932 C 0.20763 0.21969 0.30693 0.0
C933 C 0.23138 0.23952 0.328 0.0
C934 C 0.20888 0.21472 0.27357 0.0
C935 C 0.23467 0.22904 0.26215 0.0
C936 C 0.2567 0.25246 0.31561 0.0
N937 N 0.26081 0.24147 0.21902 0.0
C938 C 0.23577 0.227 0.22922 0.0
C939 C 0.23911 0.22043 0.16349 0.0
C940 C 0.21352 0.20555 0.17377 0.0
C941 C 0.26268 0.23776 0.18634 0.0
C942 C 0.21165 0.2086 0.20691 0.0
H943 H 0.19567 0.19108 0.15594 0.0
O944 O 0.30866 0.21748 0.21564 0.0
O945 O 0.34647 0.28327 0.26264 0.0
O946 O 0.33575 0.33777 0.2468 0.0
O947 O 0.30927 0.28531 0.22017 0.0
O948 O 0.34329 0.23669 0.2707 0.0
O949 O 0.28444 0.19967 0.25266 0.0
O950 O 0.34641 0.3669 0.33878 0.0
O951 O 0.30305 0.29975 0.29098 0.0
O952 O 0.31324 0.24432 0.30855 0.0
O953 O 0.33634 0.29831 0.33412 0.0
O954 O 0.30804 0.34679 0.28381 0.0
O955 O 0.3714 0.38059 0.3008 0.0
C956 C 0.36114 0.26327 0.26848 0.0
C957 C 0.18678 0.19266 0.21826 0.0
C958 C 0.18517 0.19595 0.25142 0.0
C959 C 0.29361 0.19199 0.22453 0.0
C960 C 0.30452 0.16231 0.21867 0.0
C961 C 0.29532 0.13891 0.18951 0.0
C962 C 0.32356 0.15682 0.24231 0.0
C963 C 0.33375 0.12814 0.23682 0.0
C964 C 0.30552 0.11004 0.18398 0.0
C965 C 0.32489 0.10464 0.20756 0.0
C966 C 0.32183 0.31663 0.22015 0.0
C967 C 0.28903 0.32057 0.28506 0.0
C968 C 0.36222 0.39078 0.32838 0.0
C969 C 0.35125 0.42032 0.33093 0.0
C970 C 0.35717 0.44436 0.35989 0.0
C971 C 0.33483 0.42464 0.30426 0.0
C972 C 0.32476 0.45311 0.30627 0.0
C973 C 0.34679 0.47301 0.36189 0.0
C974 C 0.33059 0.47749 0.33501 0.0
C975 C 0.32549 0.26693 0.33498 0.0
H976 H 0.28029 0.143 0.1712 0.0
H977 H 0.33068 0.17489 0.26488 0.0
H978 H 0.29856 0.09204 0.16143 0.0
H979 H 0.33293 0.08231 0.20307 0.0
H980 H 0.36981 0.44098 0.38075 0.0
H981 H 0.33021 0.40622 0.28177 0.0
H982 H 0.35133 0.4917 0.38416 0.0
H983 H 0.32255 0.49973 0.33658 0.0
Gd984 Gd 0.5875 0.50544 0.01212 0.0
Gd985 Gd 0.57331 0.58059 0.04539 0.0
C986 C 0.61001 0.61649 0.15189 0.0
C987 C 0.56669 0.61937 0.17817 0.0
C988 C 0.56276 0.59884 0.11978 0.0
C989 C 0.5927 0.6034 0.12167 0.0
C990 C 0.54957 0.60735 0.14808 0.0
C991 C 0.59682 0.62397 0.18006 0.0
C992 C 0.64017 0.62256 0.15289 0.0
C993 C 0.65251 0.6168 0.12416 0.0
N994 N 0.60505 0.59668 0.09399 0.0
C995 C 0.63459 0.6045 0.09483 0.0
H996 H 0.64475 0.60145 0.07316 0.0
C997 C 0.51785 0.58869 0.08731 0.0
N998 N 0.54675 0.58849 0.09021 0.0
C999 C 0.5038 0.596 0.11464 0.0
C1000 C 0.51966 0.60498 0.14523 0.0
H1001 H 0.5058 0.58457 0.06372 0.0
H1002 H 0.60979 0.6339 0.2034 0.0
H1003 H 0.5179 0.48292 0.98067 0.0
H1004 H 0.65413 0.63247 0.17561 0.0
H1005 H 0.67585 0.62227 0.12451 0.0
H1006 H 0.55689 0.62596 0.20007 0.0
H1007 H 0.65618 0.50115 0.99828 0.0
H1008 H 0.51378 0.45782 0.87797 0.0
H1009 H 0.48921 0.46292 0.92743 0.0
H1010 H 0.61282 0.46841 0.85975 0.0
H1011 H 0.48091 0.59567 0.11201 0.0
H1012 H 0.50883 0.61137 0.16638 0.0
H1013 H 0.55988 0.46009 0.85307 0.0
H1014 H 0.6839 0.49242 0.95187 0.0
N1015 N 0.55858 0.49232 0.96215 0.0
C1016 C 0.52657 0.46748 0.90143 0.0
C1017 C 0.51262 0.47025 0.92924 0.0
C1018 C 0.55689 0.47551 0.90427 0.0
C1019 C 0.57266 0.48787 0.93542 0.0
C1020 C 0.52905 0.48208 0.95954 0.0
N1021 N 0.61715 0.50056 0.96971 0.0
C1022 C 0.60273 0.49243 0.93926 0.0
C1023 C 0.66128 0.49304 0.94793 0.0
C1024 C 0.64716 0.48633 0.91661 0.0
C1025 C 0.64573 0.49905 0.97422 0.0
C1026 C 0.61744 0.48494 0.91193 0.0
H1027 H 0.65908 0.48062 0.89622 0.0
O1028 O 0.60259 0.46096 0.99744 0.0
O1029 O 0.59551 0.54143 0.0615 0.0
O1030 O 0.61309 0.59081 0.01918 0.0
O1031 O 0.63016 0.54393 0.01696 0.0
O1032 O 0.61478 0.5025 0.05797 0.0
O1033 O 0.56108 0.45814 0.01631 0.0
O1034 O 0.55542 0.62402 0.05365 0.0
O1035 O 0.56488 0.54417 0.99645 0.0
O1036 O 0.54625 0.49455 0.03601 0.0
O1037 O 0.53043 0.54268 0.04117 0.0
O1038 O 0.54496 0.58265 1.0001 0.0
O1039 O 0.59905 0.62683 0.03831 0.0
C1040 C 0.61075 0.52694 0.07936 0.0
C1041 C 0.60185 0.47432 0.8809 0.0
C1042 C 0.57169 0.46958 0.87709 0.0
C1043 C 0.57933 0.44196 1.00334 0.0
C1044 C 0.5821 0.41102 0.01183 0.0
C1045 C 0.59603 0.39061 0.99139 0.0
C1046 C 0.56921 0.40007 0.03757 0.0
C1047 C 0.57059 0.36887 0.04279 0.0
C1048 C 0.59698 0.35941 0.99639 0.0
C1049 C 0.58424 0.34846 0.02198 0.0
C1050 C 0.63395 0.57501 0.01444 0.0
C1051 C 0.54956 0.5587 0.97874 0.0
C1052 C 0.57846 0.64192 0.04584 0.0
C1053 C 0.58138 0.67672 0.04611 0.0
C1054 C 0.56792 0.69597 0.06825 0.0
C1055 C 0.59528 0.69003 0.02216 0.0
C1056 C 0.59522 0.72236 0.02005 0.0
C1057 C 0.56845 0.72854 0.06647 0.0
C1058 C 0.58194 0.74172 0.04229 0.0
C1059 C 0.52574 0.5109 0.04123 0.0
H1060 H 0.60572 0.3986 0.97109 0.0
H1061 H 0.55845 0.41565 0.05357 0.0
H1062 H 0.60752 0.34369 0.98036 0.0
H1063 H 0.58518 0.32417 0.02574 0.0
H1064 H 0.55675 0.68571 0.08661 0.0
H1065 H 0.60495 0.67491 1.00435 0.0
H1066 H 0.55792 0.74335 0.08342 0.0
H1067 H 0.58156 0.76674 0.04049 0.0
Gd1068 Gd 0.79878 0.27295 0.28524 0.0
Gd1069 Gd 0.86352 0.32177 0.26867 0.0
C1070 C 0.87459 0.41983 0.23824 0.0
C1071 C 0.8907 0.407 0.18512 0.0
C1072 C 0.87743 0.36378 0.21496 0.0
C1073 C 0.87055 0.38632 0.23979 0.0
C1074 C 0.88776 0.37392 0.18741 0.0
C1075 C 0.88434 0.42995 0.21059 0.0
C1076 C 0.86971 0.44237 0.26501 0.0
C1077 C 0.86055 0.43119 0.29219 0.0
N1078 N 0.86174 0.37593 0.26641 0.0
C1079 C 0.85616 0.39761 0.29219 0.0
H1080 H 0.84794 0.3891 0.31264 0.0
C1081 C 0.88552 0.31042 0.1966 0.0
N1082 N 0.87572 0.33242 0.21866 0.0
C1083 C 0.89497 0.31897 0.16832 0.0
C1084 C 0.89593 0.35082 0.1636 0.0
H1085 H 0.88566 0.28614 0.20084 0.0
H1086 H 0.88752 0.45556 0.2089 0.0
H1087 H 0.80796 0.201 0.24301 0.0
H1088 H 0.87299 0.46839 0.26495 0.0
H1089 H 0.85636 0.44825 0.3129 0.0
H1090 H 0.89866 0.4153 0.16416 0.0
H1091 H 0.76833 0.30786 0.34808 0.0
H1092 H 0.80551 0.13385 0.30566 0.0
H1093 H 0.81201 0.14683 0.25194 0.0
H1094 H 0.77715 0.19172 0.4023 0.0
H1095 H 0.90201 0.30122 0.1505 0.0
H1096 H 0.90385 0.35762 0.14199 0.0
H1097 H 0.79329 0.15123 0.36204 0.0
H1098 H 0.75358 0.29579 0.39994 0.0
N1099 N 0.80266 0.22038 0.29173 0.0
C1100 C 0.80459 0.15816 0.302 0.0
C1101 C 0.80843 0.16539 0.27173 0.0
C1102 C 0.7983 0.1819 0.32674 0.0
C1103 C 0.79722 0.21317 0.32072 0.0
C1104 C 0.80705 0.1966 0.26695 0.0
N1105 N 0.78499 0.26487 0.33566 0.0
C1106 C 0.78801 0.236 0.34333 0.0
C1107 C 0.76335 0.27887 0.38429 0.0
C1108 C 0.76768 0.25017 0.3933 0.0
C1109 C 0.77173 0.28565 0.35495 0.0
C1110 C 0.77982 0.22811 0.37259 0.0
H1111 H 0.76109 0.24495 0.41601 0.0
O1112 O 0.7585 0.27752 0.25979 0.0
O1113 O 0.81655 0.3259 0.27782 0.0
O1114 O 0.85722 0.33706 0.32028 0.0
O1115 O 0.82419 0.29493 0.33385 0.0
O1116 O 0.77725 0.317 0.29258 0.0
O1117 O 0.764 0.23002 0.26482 0.0
O1118 O 0.90774 0.31694 0.26946 0.0
O1119 O 0.84574 0.2702 0.27851 0.0
O1120 O 0.81362 0.25661 0.23732 0.0
O1121 O 0.83445 0.30394 0.22222 0.0
O1122 O 0.88435 0.27639 0.2627 0.0
O1123 O 0.89757 0.35865 0.3015 0.0
C1124 C 0.79438 0.34047 0.28312 0.0
C1125 C 0.78286 0.19795 0.37966 0.0
C1126 C 0.79204 0.17488 0.35675 0.0
C1127 C 0.74586 0.24683 0.25722 0.0
C1128 C 0.71777 0.24015 0.27003 0.0
C1129 C 0.71504 0.22698 0.29792 0.0
C1130 C 0.69333 0.24646 0.25415 0.0
C1131 C 0.66634 0.23902 0.26576 0.0
C1132 C 0.68831 0.22 0.30963 0.0
C1133 C 0.66398 0.22576 0.29352 0.0
C1134 C 0.8445 0.32236 0.34162 0.0
C1135 C 0.86722 0.25471 0.27418 0.0
C1136 C 0.91774 0.34416 0.29104 0.0
C1137 C 0.94505 0.36422 0.28536 0.0
C1138 C 0.94674 0.38981 0.26866 0.0
C1139 C 0.97024 0.35554 0.29567 0.0
C1140 C 0.99742 0.37269 0.29046 0.0
C1141 C 0.97378 0.40675 0.26277 0.0
C1142 C 0.99913 0.39845 0.27383 0.0
C1143 C 0.82063 0.27298 0.21482 0.0
H1144 H 0.73338 0.22153 0.31048 0.0
H1145 H 0.69515 0.25638 0.23249 0.0
H1146 H 0.68639 0.20977 0.33103 0.0
H1147 H 0.64326 0.21991 0.30273 0.0
H1148 H 0.92746 0.39673 0.26027 0.0
H1149 H 0.96861 0.33506 0.30779 0.0
H1150 H 0.97512 0.42655 0.24991 0.0
H1151 H 0.01992 0.41249 0.26994 0.0
Gd1152 Gd 0.06456 0.56916 0.48452 0.0
Gd1153 Gd 0.07932 0.53616 0.5556 0.0
C1154 C 0.16649 0.5769 0.62071 0.0
C1155 C 0.18305 0.5268 0.6217 0.0
C1156 C 0.13712 0.52427 0.59089 0.0
C1157 C 0.1412 0.55804 0.6004 0.0
C1158 C 0.15782 0.50817 0.60172 0.0
C1159 C 0.18741 0.56112 0.63111 0.0
C1160 C 0.1701 0.61106 0.63003 0.0
C1161 C 0.14879 0.62567 0.61927 0.0
N1162 N 0.1206 0.57245 0.58964 0.0
C1163 C 0.12417 0.60609 0.59922 0.0
H1164 H 0.10934 0.61904 0.59029 0.0
C1165 C 0.10685 0.47331 0.56313 0.0
N1166 N 0.11279 0.50701 0.5712 0.0
C1167 C 0.12669 0.45622 0.57314 0.0
C1168 C 0.15244 0.47376 0.59233 0.0
H1169 H 0.08661 0.45956 0.54898 0.0
H1170 H 0.20696 0.57522 0.64661 0.0
H1171 H 0.04707 0.48906 0.43809 0.0
H1172 H 0.18927 0.62636 0.64543 0.0
H1173 H 0.15148 0.65219 0.62598 0.0
H1174 H 0.19926 0.51489 0.63013 0.0
H1175 H 0.04853 0.6432 0.49424 0.0
H1176 H 0.96136 0.47072 0.3917 0.0
H1177 H 1.00634 0.45238 0.40233 0.0
H1178 H 0.93493 0.57401 0.42041 0.0
H1179 H 0.122 0.42955 0.56625 0.0
H1180 H 0.16781 0.46049 0.60014 0.0
H1181 H 0.93466 0.51575 0.39946 0.0
H1182 H 1.00799 0.66708 0.47899 0.0
N1183 N 0.02667 0.52985 0.44889 0.0
C1184 C 0.97949 0.48748 0.40769 0.0
C1185 C 1.00486 0.47711 0.4135 0.0
C1186 C 0.97806 0.51963 0.42186 0.0
C1187 C 1.0023 0.54062 0.44249 0.0
C1188 C 0.02827 0.49855 0.43417 0.0
N1189 N 0.02607 0.5935 0.47338 0.0
C1190 C 1.00211 0.57336 0.45488 0.0
C1191 C 1.00592 0.64067 0.47227 0.0
C1192 C 0.98021 0.62 0.45553 0.0
C1193 C 0.02886 0.62701 0.48075 0.0
C1194 C 0.9782 0.58603 0.44613 0.0
H1195 H 0.96237 0.63063 0.4491 0.0
O1196 O 0.08559 0.61449 0.47216 0.0
O1197 O 0.09812 0.56223 0.51959 0.0
O1198 O 0.06625 0.58431 0.56982 0.0
O1199 O 0.04221 0.59325 0.52395 0.0
O1200 O 0.1025 0.60926 0.51212 0.0
O1201 O 0.077 0.56663 0.43627 0.0
O1202 O 0.05294 0.49787 0.57414 0.0
O1203 O 0.04622 0.54098 0.51897 0.0
O1204 O 0.08569 0.52601 0.46909 0.0
O1205 O 0.09323 0.50377 0.51478 0.0
O1206 O 0.04439 0.49418 0.52589 0.0
O1207 O 0.05907 0.54937 0.59878 0.0
C1208 C 0.11474 0.59033 0.52585 0.0
C1209 C 0.95362 0.56478 0.42698 0.0
C1210 C 0.9535 0.53163 0.41499 0.0
C1211 C 0.08698 0.59875 0.44294 0.0
C1212 C 0.09947 0.61597 0.4195 0.0
C1213 C 0.09392 0.64644 0.4165 0.0
C1214 C 0.11942 0.603 0.4021 0.0
C1215 C 0.13425 0.62034 0.38155 0.0
C1216 C 0.10824 0.66352 0.39513 0.0
C1217 C 0.12839 0.65042 0.37746 0.0
C1218 C 0.04982 0.60001 0.55547 0.0
C1219 C 0.03123 0.51187 0.51137 0.0
C1220 C 0.04777 0.51859 0.59862 0.0
C1221 C 0.04941 0.50904 0.62928 0.0
C1222 C 0.07068 0.49343 0.63913 0.0
C1223 C 0.02785 0.51461 0.6484 0.0
C1224 C 0.02723 0.50475 0.67766 0.0
C1225 C 0.06979 0.48296 0.66832 0.0
C1226 C 0.04796 0.48847 0.68763 0.0
C1227 C 0.09332 0.50354 0.48363 0.0
H1228 H 0.07864 0.65686 0.43057 0.0
H1229 H 0.12362 0.5794 0.40472 0.0
H1230 H 0.10382 0.68686 0.39235 0.0
H1231 H 0.13935 0.6636 0.36074 0.0
H1232 H 0.0876 0.48905 0.62431 0.0
H1233 H 0.01137 0.52657 0.64044 0.0
H1234 H 0.08599 0.47068 0.67599 0.0
H1235 H 0.04754 0.48067 0.71044 0.0
Gd1236 Gd 0.86031 0.78867 0.27812 0.0
Gd1237 Gd 0.79112 0.80568 0.28322 0.0
C1238 C 0.74377 0.78828 0.18101 0.0
C1239 C 0.74642 0.84423 0.17452 0.0
C1240 C 0.76655 0.8344 0.22523 0.0
C1241 C 0.75866 0.80064 0.21264 0.0
C1242 C 0.75942 0.85641 0.20661 0.0
C1243 C 0.73867 0.81023 0.16173 0.0
C1244 C 0.73314 0.75427 0.17011 0.0
C1245 C 0.73613 0.73351 0.19104 0.0
N1246 N 0.76335 0.77988 0.23207 0.0
C1247 C 0.75107 0.74671 0.222 0.0
H1248 H 0.75269 0.72953 0.23689 0.0
C1249 C 0.78065 0.87784 0.27161 0.0
N1250 N 0.77858 0.84559 0.25655 0.0
C1251 C 0.77423 0.90051 0.2541 0.0
C1252 C 0.76417 0.88989 0.22124 0.0
H1253 H 0.78767 0.88641 0.2973 0.0
H1254 H 0.72762 0.80112 0.13732 0.0
H1255 H 0.88714 0.86319 0.32738 0.0
H1256 H 0.72162 0.74391 0.14606 0.0
H1257 H 0.7272 0.70718 0.18326 0.0
H1258 H 0.74117 0.86084 0.15981 0.0
H1259 H 0.87081 0.71279 0.25759 0.0
H1260 H 0.9271 0.84946 0.41559 0.0
H1261 H 0.91265 0.88646 0.38229 0.0
H1262 H 0.92567 0.73401 0.39208 0.0
H1263 H 0.77677 0.9261 0.26606 0.0
H1264 H 0.75888 0.90747 0.20776 0.0
H1265 H 0.93126 0.79219 0.41929 0.0
H1266 H 0.89216 0.67399 0.2828 0.0
N1267 N 0.88581 0.81333 0.32979 0.0
C1268 C 0.91567 0.83909 0.3915 0.0
C1269 C 0.90767 0.86006 0.37275 0.0
C1270 C 0.90995 0.80512 0.37837 0.0
C1271 C 0.89485 0.79285 0.34698 0.0
C1272 C 0.89306 0.84672 0.34159 0.0
N1273 N 0.87811 0.74978 0.30106 0.0
C1274 C 0.891 0.76 0.33205 0.0
C1275 C 0.89162 0.69793 0.29706 0.0
C1276 C 0.90277 0.70705 0.32979 0.0
C1277 C 0.87944 0.7198 0.28292 0.0
C1278 C 0.9031 0.73866 0.34756 0.0
H1279 H 0.9121 0.69001 0.34073 0.0
O1280 O 0.88388 0.77293 0.23784 0.0
O1281 O 0.82184 0.79343 0.2467 0.0
O1282 O 0.78432 0.74982 0.28183 0.0
O1283 O 0.83036 0.74006 0.28812 0.0
O1284 O 0.83689 0.75033 0.2353 0.0
O1285 O 0.90344 0.81664 0.27368 0.0
O1286 O 0.77231 0.83455 0.32082 0.0
O1287 O 0.83401 0.81317 0.31265 0.0
O1288 O 0.86424 0.84106 0.26801 0.0
O1289 O 0.82539 0.85688 0.29056 0.0
O1290 O 0.79847 0.78851 0.32961 0.0
O1291 O 0.7465 0.78804 0.29232 0.0
C1292 C 0.81912 0.76644 0.22554 0.0
C1293 C 0.91664 0.75019 0.37955 0.0
C1294 C 0.9199 0.78334 0.39501 0.0
C1295 C 0.90681 0.79667 0.24763 0.0
C1296 C 0.93508 0.78753 0.24657 0.0
C1297 C 0.94337 0.76824 0.26727 0.0
C1298 C 0.95414 0.79821 0.2248 0.0
C1299 C 0.9809 0.78897 0.22364 0.0
C1300 C 0.96939 0.75824 0.26536 0.0
C1301 C 0.98807 0.76847 0.24363 0.0
C1302 C 0.80134 0.72935 0.28578 0.0
C1303 C 0.82559 0.80173 0.33692 0.0
C1304 C 0.74762 0.81282 0.31636 0.0
C1305 C 0.7208 0.82458 0.32179 0.0
C1306 C 0.7166 0.85294 0.31177 0.0
C1307 C 0.69975 0.80824 0.33884 0.0
C1308 C 0.67507 0.82071 0.34597 0.0
C1309 C 0.69226 0.86523 0.31881 0.0
C1310 C 0.67171 0.84936 0.33585 0.0
C1311 C 0.85066 0.86478 0.27847 0.0
H1312 H 0.93003 0.76119 0.28523 0.0
H1313 H 0.94843 0.81392 0.20929 0.0
H1314 H 0.97533 0.74297 0.28118 0.0
H1315 H 1.00849 0.76102 0.24292 0.0
H1316 H 0.73222 0.86589 0.29881 0.0
H1317 H 0.70276 0.78635 0.34689 0.0
H1318 H 0.68939 0.88733 0.31117 0.0
H1319 H 0.65307 0.85949 0.34121 0.0
Gd1320 Gd 0.80696 0.31393 0.82615 0.0
Gd1321 Gd 0.84141 0.29115 0.75415 0.0
C1322 C 0.8044 0.19007 0.68554 0.0
C1323 C 0.8455 0.16474 0.68646 0.0
C1324 C 0.84841 0.21878 0.72101 0.0
C1325 C 0.82046 0.21804 0.70868 0.0
C1326 C 0.86134 0.19226 0.70956 0.0
C1327 C 0.81708 0.1636 0.67455 0.0
C1328 C 0.77575 0.18898 0.67458 0.0
C1329 C 0.76332 0.21468 0.68754 0.0
N1330 N 0.80862 0.24395 0.72003 0.0
C1331 C 0.77986 0.24163 0.71055 0.0
H1332 H 0.76832 0.25891 0.72164 0.0
C1333 C 0.89195 0.24822 0.75335 0.0
N1334 N 0.86316 0.24546 0.74375 0.0
C1335 C 0.90557 0.22269 0.74284 0.0
C1336 C 0.8901 0.19436 0.72111 0.0
H1337 H 0.9053 0.27074 0.76792 0.0
H1338 H 0.80499 0.14201 0.65693 0.0
H1339 H 0.87291 0.34206 0.87843 0.0
H1340 H 0.76272 0.16787 0.65708 0.0
H1341 H 0.74068 0.21339 0.68047 0.0
H1342 H 0.85509 0.1442 0.67759 0.0
H1343 H 0.74218 0.33125 0.8131 0.0
H1344 H 0.88366 0.44394 0.91613 0.0
H1345 H 0.90111 0.39281 0.91119 0.0
H1346 H 0.79599 0.4684 0.87775 0.0
H1347 H 0.92825 0.22532 0.75089 0.0
H1348 H 0.90078 0.17466 0.71271 0.0
H1349 H 0.8448 0.47178 0.90327 0.0
H1350 H 0.72004 0.37873 0.82028 0.0
N1351 N 0.83825 0.3621 0.8608 0.0
C1352 C 0.87073 0.42126 0.90076 0.0
C1353 C 0.88061 0.39249 0.89803 0.0
C1354 C 0.84396 0.42029 0.88437 0.0
C1355 C 0.82795 0.39013 0.8643 0.0
C1356 C 0.86403 0.36312 0.87845 0.0
N1357 N 0.78521 0.35947 0.83057 0.0
C1358 C 0.80079 0.38871 0.84883 0.0
C1359 C 0.74299 0.38225 0.82757 0.0
C1360 C 0.75963 0.4133 0.84276 0.0
C1361 C 0.75595 0.35544 0.82274 0.0
C1362 C 0.78859 0.41669 0.85456 0.0
H1363 H 0.74947 0.43408 0.84698 0.0
O1364 O 0.76329 0.2898 0.83152 0.0
O1365 O 0.80714 0.27492 0.78327 0.0
O1366 O 0.80356 0.30894 0.73353 0.0
O1367 O 0.77946 0.31873 0.7793 0.0
O1368 O 0.80587 0.26101 0.82796 0.0
O1369 O 0.79306 0.31866 0.87382 0.0
O1370 O 0.88576 0.3138 0.75057 0.0
O1371 O 0.84185 0.32944 0.79793 0.0
O1372 O 0.84622 0.29643 0.84585 0.0
O1373 O 0.87 0.28727 0.79974 0.0
O1374 O 0.84213 0.34423 0.75407 0.0
O1375 O 0.85505 0.29327 0.70686 0.0
C1376 C 0.80651 0.25134 0.79729 0.0
C1377 C 0.80495 0.4467 0.87347 0.0
C1378 C 0.83264 0.44855 0.88816 0.0
C1379 C 0.7668 0.30132 0.86275 0.0
C1380 C 0.75341 0.27895 0.88184 0.0
C1381 C 0.7252 0.2789 0.88949 0.0
C1382 C 0.76875 0.2581 0.89298 0.0
C1383 C 0.75605 0.23728 0.91205 0.0
C1384 C 0.71237 0.25774 0.90845 0.0
C1385 C 0.72778 0.23683 0.91977 0.0
C1386 C 0.78128 0.31743 0.7476 0.0
C1387 C 0.84273 0.35366 0.78495 0.0
C1388 C 0.88156 0.30893 0.71914 0.0
C1389 C 0.89552 0.33646 0.70581 0.0
C1390 C 0.9259 0.34561 0.70927 0.0
C1391 C 0.87922 0.3535 0.68965 0.0
C1392 C 0.89329 0.37915 0.67624 0.0
C1393 C 0.93997 0.3714 0.69614 0.0
C1394 C 0.92377 0.38795 0.67937 0.0
C1395 C 0.86898 0.28928 0.8315 0.0
H1396 H 0.71325 0.29529 0.88097 0.0
H1397 H 0.79074 0.25848 0.88741 0.0
H1398 H 0.69068 0.25778 0.91461 0.0
H1399 H 0.71802 0.22094 0.93505 0.0
H1400 H 0.9387 0.33261 0.72192 0.0
H1401 H 0.85571 0.34659 0.68707 0.0
H1402 H 0.96341 0.37818 0.69847 0.0
H1403 H 0.93505 0.40702 0.66817 0.0
Gd1404 Gd 0.79775 0.75188 0.75535 0.0
Gd1405 Gd 0.84441 0.83131 0.79543 0.0
C1406 C 0.93973 0.84719 0.77617 0.0
C1407 C 0.96322 0.83901 0.82553 0.0
C1408 C 0.91077 0.83294 0.81836 0.0
C1409 C 0.91244 0.84043 0.78799 0.0
C1410 C 0.93652 0.83394 0.83798 0.0
C1411 C 0.96478 0.84531 0.79458 0.0
C1412 C 0.94138 0.8567 0.74656 0.0
C1413 C 0.91677 0.86186 0.73062 0.0
N1414 N 0.88797 0.84307 0.77084 0.0
C1415 C 0.89056 0.85617 0.7437 0.0
H1416 H 0.87319 0.86374 0.73204 0.0
C1417 C 0.88424 0.83071 0.86298 0.0
N1418 N 0.88474 0.82843 0.83023 0.0
C1419 C 0.909 0.83154 0.88315 0.0
C1420 C 0.93514 0.83218 0.87039 0.0
H1421 H 0.86516 0.83342 0.87454 0.0
H1422 H 0.9857 0.85009 0.78563 0.0
H1423 H 0.76947 0.766 0.82735 0.0
H1424 H 0.9618 0.86162 0.73659 0.0
H1425 H 0.91809 0.87107 0.70859 0.0
H1426 H 0.98301 0.83943 0.84018 0.0
H1427 H 0.78203 0.73125 0.67555 0.0
H1428 H 0.68093 0.7144 0.81161 0.0
H1429 H 0.72425 0.74711 0.84875 0.0
H1430 H 0.66329 0.67558 0.69679 0.0
H1431 H 0.90804 0.83274 0.90877 0.0
H1432 H 0.95449 0.83351 0.88627 0.0
H1433 H 0.65851 0.68717 0.75484 0.0
H1434 H 0.74083 0.7033 0.63416 0.0
N1435 N 0.75302 0.74519 0.77786 0.0
C1436 C 0.70091 0.72302 0.80192 0.0
C1437 C 0.72531 0.74131 0.8229 0.0
C1438 C 0.7026 0.71619 0.76865 0.0
C1439 C 0.7291 0.72823 0.75725 0.0
C1440 C 0.75127 0.75182 0.81048 0.0
N1441 N 0.75719 0.73425 0.71494 0.0
C1442 C 0.73124 0.72273 0.72461 0.0
C1443 C 0.7375 0.70934 0.65942 0.0
C1444 C 0.71061 0.69776 0.66915 0.0
C1445 C 0.76067 0.72687 0.68277 0.0
C1446 C 0.70734 0.70401 0.70214 0.0
H1447 H 0.69288 0.68316 0.65119 0.0
O1448 O 0.79726 0.70649 0.72179 0.0
O1449 O 0.84403 0.78017 0.77028 0.0
O1450 O 0.83181 0.83468 0.74324 0.0
O1451 O 0.79954 0.78498 0.7174 0.0
O1452 O 0.83184 0.75362 0.72234 0.0
O1453 O 0.80194 0.70838 0.77386 0.0
O1454 O 0.83894 0.86427 0.83947 0.0
O1455 O 0.79983 0.79969 0.78784 0.0
O1456 O 0.81276 0.74725 0.80645 0.0
O1457 O 0.8306 0.80155 0.834 0.0
O1458 O 0.80328 0.84672 0.78172 0.0
O1459 O 0.86513 0.88309 0.8046 0.0
C1460 C 0.85285 0.7718 0.74309 0.0
C1461 C 0.68136 0.69097 0.71341 0.0
C1462 C 0.67882 0.69729 0.74655 0.0
C1463 C 0.79881 0.69065 0.74458 0.0
C1464 C 0.79857 0.6559 0.7371 0.0
C1465 C 0.78483 0.63541 0.70757 0.0
C1466 C 0.81495 0.64404 0.75822 0.0
C1467 C 0.81922 0.61237 0.74928 0.0
C1468 C 0.78807 0.60293 0.69917 0.0
C1469 C 0.80581 0.59147 0.71985 0.0
C1470 C 0.81556 0.81491 0.71699 0.0
C1471 C 0.78499 0.81969 0.7823 0.0
C1472 C 0.85464 0.89013 0.83194 0.0
C1473 C 0.84315 0.91952 0.83682 0.0
C1474 C 0.85075 0.94274 0.86629 0.0
C1475 C 0.82532 0.92505 0.81185 0.0
C1476 C 0.8146 0.9534 0.81649 0.0
C1477 C 0.84027 0.97142 0.87081 0.0
C1478 C 0.82205 0.97671 0.84603 0.0
C1479 C 0.82257 0.76957 0.8338 0.0
H1480 H 0.77237 0.64502 0.69102 0.0
H1481 H 0.82656 0.66039 0.78046 0.0
H1482 H 0.77778 0.58712 0.67625 0.0
H1483 H 0.80978 0.56702 0.71261 0.0
H1484 H 0.86488 0.93876 0.88561 0.0
H1485 H 0.81981 0.90751 0.7888 0.0
H1486 H 0.84624 0.9895 0.89347 0.0
H1487 H 0.81396 0.99902 0.84973 0.0
Gd1488 Gd 0.60992 0.57133 0.55322 0.0
Gd1489 Gd 0.5481 0.52734 0.51089 0.0
C1490 C 0.51518 0.41901 0.51613 0.0
C1491 C 0.5064 0.39133 0.45944 0.0
C1492 C 0.52705 0.45061 0.47516 0.0
C1493 C 0.52617 0.44941 0.50744 0.0
C1494 C 0.51692 0.4215 0.45081 0.0
C1495 C 0.50546 0.3901 0.49201 0.0
C1496 C 0.5139 0.41846 0.54879 0.0
C1497 C 0.52308 0.44771 0.57196 0.0
N1498 N 0.53549 0.47783 0.53032 0.0
C1499 C 0.53341 0.47715 0.56229 0.0
H1500 H 0.54075 0.49875 0.58111 0.0
C1501 C 0.5349 0.48243 0.43544 0.0
N1502 N 0.53657 0.48026 0.4674 0.0
C1503 C 0.52572 0.45425 0.41063 0.0
C1504 C 0.51683 0.4236 0.41834 0.0
H1505 H 0.54013 0.50617 0.42888 0.0
H1506 H 0.49695 0.36667 0.4983 0.0
H1507 H 0.62046 0.59822 0.48168 0.0
H1508 H 0.50568 0.39565 0.55635 0.0
H1509 H 0.52219 0.44768 0.59739 0.0
H1510 H 0.49858 0.36882 0.44107 0.0
H1511 H 0.61211 0.59684 0.63573 0.0
H1512 H 0.65049 0.70193 0.50463 0.0
H1513 H 0.6389 0.6488 0.46498 0.0
H1514 H 0.64558 0.73254 0.6179 0.0
H1515 H 0.52489 0.45632 0.38557 0.0
H1516 H 0.50921 0.40183 0.39906 0.0
H1517 H 0.65285 0.73267 0.56128 0.0
H1518 H 0.61629 0.64769 0.67554 0.0
N1519 N 0.62209 0.62011 0.53207 0.0
C1520 C 0.64257 0.67926 0.51257 0.0
C1521 C 0.63621 0.64938 0.49021 0.0
C1522 C 0.6385 0.6796 0.54486 0.0
C1523 C 0.62815 0.64933 0.55412 0.0
C1524 C 0.62613 0.62013 0.50031 0.0
N1525 N 0.61591 0.61991 0.59495 0.0
C1526 C 0.62439 0.64926 0.58618 0.0
C1527 C 0.61857 0.64867 0.65053 0.0
C1528 C 0.62652 0.67883 0.64168 0.0
C1529 C 0.61489 0.61958 0.62727 0.0
C1530 C 0.63041 0.67943 0.60949 0.0
H1531 H 0.6305 0.70146 0.66006 0.0
O1532 O 0.64618 0.58424 0.59029 0.0
O1533 O 0.58925 0.51656 0.53355 0.0
O1534 O 0.5341 0.54692 0.56287 0.0
O1535 O 0.57781 0.56692 0.59361 0.0
O1536 O 0.60423 0.53194 0.58236 0.0
O1537 O 0.65249 0.56494 0.54021 0.0
O1538 O 0.51334 0.52832 0.47613 0.0
O1539 O 0.56888 0.58198 0.53096 0.0
O1540 O 0.62386 0.55227 0.50095 0.0
O1541 O 0.58072 0.52464 0.47074 0.0
O1542 O 0.55547 0.56713 0.48192 0.0
O1543 O 0.50459 0.52554 0.52567 0.0
C1544 C 0.59438 0.506 0.55969 0.0
C1545 C 0.64059 0.70932 0.60023 0.0
C1546 C 0.64475 0.70939 0.56804 0.0
C1547 C 0.664 0.57664 0.57015 0.0
C1548 C 0.69447 0.58076 0.58128 0.0
C1549 C 0.70612 0.59995 0.61214 0.0
C1550 C 0.71181 0.56466 0.56179 0.0
C1551 C 0.74061 0.56702 0.5734 0.0
C1552 C 0.7348 0.60243 0.62359 0.0
C1553 C 0.75203 0.58581 0.60455 0.0
C1554 C 0.54892 0.55952 0.59242 0.0
C1555 C 0.56457 0.59291 0.50493 0.0
C1556 C 0.49463 0.52735 0.49683 0.0
C1557 C 0.46393 0.51969 0.48534 0.0
C1558 C 0.45236 0.49881 0.45515 0.0
C1559 C 0.44649 0.53652 0.50388 0.0
C1560 C 0.41758 0.53275 0.49233 0.0
C1561 C 0.42321 0.49487 0.44376 0.0
C1562 C 0.40579 0.51184 0.46231 0.0
C1563 C 0.60943 0.53598 0.47179 0.0
H1564 H 0.69302 0.61279 0.62755 0.0
H1565 H 0.70283 0.5498 0.53791 0.0
H1566 H 0.74341 0.61684 0.64744 0.0
H1567 H 0.77403 0.58711 0.61439 0.0
H1568 H 0.46587 0.48605 0.44032 0.0
H1569 H 0.45561 0.55337 0.52683 0.0
H1570 H 0.41424 0.47909 0.42037 0.0
H1571 H 0.38337 0.50925 0.45304 0.0
Gd1572 Gd 0.04743 0.55021 0.05713 0.0
Gd1573 Gd 0.11513 0.55453 0.02375 0.0
C1574 C 0.16822 0.65594 0.01922 0.0
C1575 C 0.16697 0.6518 0.96122 0.0
C1576 C 0.14384 0.60452 0.98204 0.0
C1577 C 0.15172 0.62308 0.01365 0.0
C1578 C 0.15219 0.61854 0.95566 0.0
C1579 C 0.17499 0.67042 0.9929 0.0
C1580 C 0.17818 0.67314 0.05106 0.0
C1581 C 0.17266 0.65725 0.07643 0.0
N1582 N 0.1448 0.60862 0.03887 0.0
C1583 C 0.15623 0.62482 0.06992 0.0
H1584 H 0.15244 0.61386 0.09042 0.0
C1585 C 0.12561 0.55202 0.94691 0.0
N1586 N 0.12953 0.5723 0.9771 0.0
C1587 C 0.13344 0.56493 0.92014 0.0
C1588 C 0.1463 0.59845 0.92444 0.0
H1589 H 0.11489 0.52626 0.94324 0.0
H1590 H 0.18717 0.69578 0.99681 0.0
H1591 H 1.01048 0.49827 0.98835 0.0
H1592 H 0.19086 0.69837 0.05625 0.0
H1593 H 0.18091 0.67005 0.10113 0.0
H1594 H 0.17312 0.66309 0.9412 0.0
H1595 H 0.05063 0.57166 0.13728 0.0
H1596 H 0.96522 0.41063 0.01381 0.0
H1597 H 0.97889 0.44281 0.97237 0.0
H1598 H 0.98115 0.43661 0.12979 0.0
H1599 H 0.12938 0.54906 0.89617 0.0
H1600 H 0.15236 0.60839 0.90361 0.0
H1601 H 0.96648 0.40841 0.07262 0.0
H1602 H 0.03406 0.54616 0.18246 0.0
N1603 N 0.01571 0.49795 0.03876 0.0
C1604 C 0.97922 0.43517 0.0211 0.0
C1605 C 0.98678 0.45328 0.99767 0.0
C1606 C 0.989 0.44938 0.05378 0.0
C1607 C 1.0073 0.48134 0.06197 0.0
C1608 C 1.00482 0.48494 1.00698 0.0
N1609 N 0.0323 0.52832 0.10112 0.0
C1610 C 0.01571 0.49709 0.09415 0.0
C1611 C 0.02892 0.53202 0.15776 0.0
C1612 C 0.01302 0.49928 0.15117 0.0
C1613 C 0.0382 0.54639 0.13224 0.0
C1614 C 1.00589 0.48151 0.11902 0.0
H1615 H 1.00581 0.4882 0.17098 0.0
O1616 O 0.02765 0.5885 0.08082 0.0
O1617 O 0.08487 0.58646 0.04414 0.0
O1618 O 0.11684 0.56671 0.077 0.0
O1619 O 0.07761 0.53342 0.09047 0.0
O1620 O 0.07147 0.59909 0.08926 0.0
O1621 O 1.00597 0.55589 0.03583 0.0
O1622 O 0.16057 0.55455 0.02084 0.0
O1623 O 0.07641 0.51836 0.03386 0.0
O1624 O 0.04166 0.55106 1.00491 0.0
O1625 O 0.0863 0.56276 0.98505 0.0
O1626 O 0.09109 0.50655 0.9895 0.0
O1627 O 0.13297 0.51409 0.03523 0.0
C1628 C 0.08805 0.61025 0.06917 0.0
C1629 C 0.98867 0.44915 0.11101 0.0
C1630 C 0.98031 0.43308 0.07845 0.0
C1631 C 1.00526 0.58097 0.05887 0.0
C1632 C 0.97726 0.58336 0.07066 0.0
C1633 C 0.96978 0.5722 0.09861 0.0
C1634 C 0.95891 0.59949 0.0554 0.0
C1635 C 0.93317 0.60428 0.06809 0.0
C1636 C 0.94461 0.57746 0.11154 0.0
C1637 C 0.9265 0.59348 0.09654 0.0
C1638 C 0.10565 0.54653 0.09457 0.0
C1639 C 0.07228 0.49568 1.00778 0.0
C1640 C 0.15861 0.52598 0.02815 0.0
C1641 C 0.1731 0.50313 1.00867 0.0
C1642 C 0.16557 0.49288 0.97508 0.0
C1643 C 0.19556 0.49239 0.02376 0.0
C1644 C 0.21032 0.47146 1.00519 0.0
C1645 C 0.1805 0.47246 0.95656 0.0
C1646 C 0.20275 0.46174 0.97151 0.0
C1647 C 0.05821 0.55832 0.98273 0.0
H1648 H 0.98365 0.56 0.11078 0.0
H1649 H 0.9646 0.60819 0.0338 0.0
H1650 H 0.93916 0.56924 0.13338 0.0
H1651 H 0.90715 0.59743 0.10717 0.0
H1652 H 0.14828 0.50073 0.96319 0.0
H1653 H 0.20138 0.50003 0.04977 0.0
H1654 H 0.17477 0.46483 0.93059 0.0
H1655 H 0.21404 0.44574 0.95681 0.0
C1656 C 0.05454 0.19027 0.01635 0.0
C1657 C 0.04254 0.1885 0.98405 0.0
C1658 C 0.06021 0.16203 0.02776 0.0
C1659 C 0.0553 0.12979 1.00763 0.0
H1660 H 0.05926 0.21382 0.03343 0.0
H1661 H 0.06815 0.16555 0.05307 0.0
S1662 S 0.02353 0.10987 0.9212 0.0
N1663 N 0.02553 0.1499 0.93242 0.0
N1664 N 0.03668 0.09861 0.95326 0.0
C1665 C 0.04357 0.12775 0.97531 0.0
C1666 C 0.03734 0.15629 0.96379 0.0
C1667 C 0.22694 0.81446 0.17129 0.0
C1668 C 0.20733 0.83376 0.18246 0.0
C1669 C 0.25094 0.81165 0.1919 0.0
C1670 C 0.25699 0.8279 0.22514 0.0
H1671 H 0.22341 0.80069 0.14642 0.0
H1672 H 0.26464 0.79598 0.18153 0.0
S1673 S 0.21458 0.88507 0.26574 0.0
N1674 N 0.19707 0.87124 0.22888 0.0
N1675 N 0.24211 0.86705 0.26662 0.0
C1676 C 0.23808 0.84824 0.23617 0.0
C1677 C 0.21344 0.85082 0.21528 0.0
C1678 C 0.54393 0.89496 0.52356 0.0
C1679 C 0.54297 0.8811 0.49015 0.0
C1680 C 0.55126 0.92987 0.53627 0.0
C1681 C 0.55708 0.95309 0.51629 0.0
H1682 H 0.54008 0.87873 0.54032 0.0
H1683 H 0.55323 0.93879 0.56226 0.0
S1684 S 0.55668 0.93073 0.42711 0.0
N1685 N 0.54813 0.89465 0.4374 0.0
N1686 N 0.56105 0.95895 0.46107 0.0
C1687 C 0.55533 0.93959 0.48286 0.0
C1688 C 0.54841 0.90421 0.46996 0.0
C1689 C 0.54649 0.33442 0.69335 0.0
C1690 C 0.55105 0.31067 0.66719 0.0
C1691 C 0.52306 0.32737 0.71123 0.0
C1692 C 0.50372 0.29619 0.70382 0.0
H1693 H 0.56146 0.35838 0.70044 0.0
H1694 H 0.52081 0.34587 0.73188 0.0
S1695 S 0.50612 0.22537 0.63814 0.0
N1696 N 0.53392 0.2548 0.63469 0.0
N1697 N 0.49034 0.24156 0.66876 0.0
C1698 C 0.50764 0.27251 0.67742 0.0
C1699 C 0.53119 0.27976 0.65895 0.0
C1700 C 0.05001 0.85087 0.61987 0.0
C1701 C 0.02967 0.82044 0.61023 0.0
C1702 C 0.06228 0.86714 0.59675 0.0
C1703 C 0.05465 0.85317 0.56355 0.0
H1704 H 0.05745 0.86143 0.64527 0.0
H1705 H 0.07873 0.88992 0.60481 0.0
S1706 S 0.9997 0.77689 0.52573 0.0
N1707 N 1.00031 0.77895 0.56505 0.0
N1708 N 0.02357 0.80993 0.52198 0.0
C1709 C 0.03309 0.82412 0.55364 0.0
C1710 C 0.02051 0.8076 0.57695 0.0
C1711 C 0.57502 0.88061 0.8291 0.0
C1712 C 0.5758 0.84893 0.83379 0.0
C1713 C 0.55006 0.88661 0.81445 0.0
C1714 C 0.52511 0.86111 0.80387 0.0
H1715 H 0.59359 0.90118 0.83751 0.0
H1716 H 0.55007 0.91156 0.81208 0.0
S1717 S 0.51638 0.77342 0.8094 0.0
N1718 N 0.54973 0.79158 0.82638 0.0
N1719 N 0.5029 0.80266 0.79779 0.0
C1720 C 0.52573 0.82912 0.80786 0.0
C1721 C 0.55109 0.82307 0.82308 0.0
C1722 C 0.5143 0.15018 0.11177 0.0
C1723 C 0.5151 0.18051 0.103 0.0
C1724 C 0.52663 0.12668 0.09375 0.0
C1725 C 0.54021 0.13283 0.06648 0.0
H1726 H 0.50542 0.14514 0.13356 0.0
H1727 H 0.5261 0.10386 0.10175 0.0
S1728 S 0.54663 0.20754 0.03251 0.0
N1729 N 0.52851 0.21447 0.0639 0.0
N1730 N 0.55321 0.17073 0.03121 0.0
C1731 C 0.54006 0.16233 0.05667 0.0
C1732 C 0.52703 0.18609 0.07464 0.0
C1733 C 0.21133 0.30877 0.30515 0.0
C1734 C 0.21461 0.33024 0.33577 0.0
C1735 C 0.23513 0.30709 0.28762 0.0
C1736 C 0.26311 0.32516 0.30105 0.0
H1737 H 0.19027 0.29336 0.29453 0.0
H1738 H 0.23169 0.29133 0.2637 0.0
S1739 S 0.28201 0.38987 0.37708 0.0
N1740 N 0.24708 0.37406 0.37604 0.0
N1741 N 0.29167 0.36917 0.34416 0.0
C1742 C 0.26615 0.34812 0.33063 0.0
C1743 C 0.24198 0.35078 0.34791 0.0
C1744 C 0.99083 0.04589 0.15782 0.0
C1745 C 1.00197 0.06854 0.18828 0.0
C1746 C 1.00528 0.04445 0.12828 0.0
C1747 C 0.0327 0.06539 0.12546 0.0
H1748 H 0.97027 0.02857 0.15655 0.0
H1749 H 0.99452 0.02601 0.10705 0.0
S1750 S 0.0715 0.13136 0.19683 0.0
N1751 N 0.04288 0.11352 0.21191 0.0
N1752 N 0.06867 0.1115 0.15868 0.0
C1753 C 0.04373 0.08841 0.15582 0.0
C1754 C 0.02905 0.08978 0.18591 0.0
C1755 C 0.30704 0.71817 0.48897 0.0
C1756 C 0.30341 0.68504 0.47262 0.0
C1757 C 0.29325 0.73921 0.47597 0.0
C1758 C 0.27618 0.72792 0.44606 0.0
H1759 H 0.31866 0.72732 0.51311 0.0
H1760 H 0.29576 0.76436 0.48942 0.0
S1761 S 0.26584 0.64648 0.39027 0.0
N1762 N 0.28497 0.6434 0.42323 0.0
N1763 N 0.2605 0.68432 0.39753 0.0
C1764 C 0.27471 0.69611 0.42794 0.0
C1765 C 0.2881 0.67428 0.44156 0.0
C1766 C 0.6411 0.06207 0.67493 0.0
C1767 C 0.66083 0.04177 0.66869 0.0
C1768 C 0.61678 0.05808 0.65293 0.0
C1769 C 0.61152 0.03333 0.62472 0.0
H1770 H 0.64547 0.08255 0.69577 0.0
H1771 H 0.6037 0.07627 0.65645 0.0
S1772 S 0.65385 0.97084 0.59978 0.0
N1773 N 0.67181 0.99398 0.63424 0.0
N1774 N 0.62532 0.98605 0.59313 0.0
C1775 C 0.62944 1.01103 0.61973 0.0
C1776 C 0.65452 0.01545 0.64168 0.0
C1777 C 0.34212 0.31175 0.92966 0.0
C1778 C 0.34541 0.34592 0.94183 0.0
C1779 C 0.33751 0.29782 0.89593 0.0
C1780 C 0.33668 0.3174 0.87269 0.0
H1781 H 0.34231 0.29545 0.94632 0.0
H1782 H 0.33408 0.2713 0.88792 0.0
S1783 S 0.34407 0.4081 0.89122 0.0
N1784 N 0.34762 0.39896 0.92716 0.0
N1785 N 0.3389 0.37278 0.86455 0.0
C1786 C 0.34019 0.35155 0.88447 0.0
C1787 C 0.3447 0.36575 0.9187 0.0
C1788 C 0.99029 0.0635 0.40628 0.0
C1789 C 1.00416 0.06352 0.37746 0.0
C1790 C 1.00372 0.0597 0.43687 0.0
C1791 C 0.03249 0.05475 0.44258 0.0
H1792 H 0.96843 0.0672 0.40559 0.0
H1793 H 0.9911 0.06157 0.45712 0.0
S1794 S 0.08032 0.05269 0.37633 0.0
N1795 N 0.05005 0.0575 0.35808 0.0
N1796 N 0.07463 0.05143 0.41412 0.0
C1797 C 0.0468 0.05445 0.41389 0.0
C1798 C 0.03302 0.05834 0.38238 0.0
C1799 C 0.28761 0.70308 0.64952 0.0
C1800 C 0.30262 0.71128 0.6241 0.0
C1801 C 0.28835 0.72678 0.6773 0.0
C1802 C 0.30565 0.75909 0.6815 0.0
H1803 H 0.27551 0.67807 0.64823 0.0
H1804 H 0.27667 0.71871 0.69633 0.0
S1805 S 0.34023 0.79515 0.6173 0.0
N1806 N 0.32869 0.75539 0.60088 0.0
N1807 N 0.33114 0.80008 0.65453 0.0
C1808 C 0.31781 0.76854 0.65475 0.0
C1809 C 0.31627 0.74446 0.62576 0.0
C1810 C 0.67866 0.06701 0.82232 0.0
C1811 C 0.69687 0.0931 0.81272 0.0
C1812 C 0.65537 0.07242 0.83877 0.0
C1813 C 0.64994 0.10414 0.84663 0.0
H1814 H 0.68123 0.0419 0.81538 0.0
H1815 H 0.64111 0.0515 0.84489 0.0
S1816 S 0.69404 0.18135 0.83171 0.0
N1817 N 0.70986 0.1522 0.81488 0.0
N1818 N 0.66614 0.16243 0.84736 0.0
C1819 C 0.66893 0.13076 0.83909 0.0
C1820 C 0.69255 0.12523 0.82187 0.0
C1821 C 0.32766 0.31795 0.12915 0.0
C1822 C 0.33722 0.35192 0.12931 0.0
C1823 C 0.32147 0.30656 0.15792 0.0
C1824 C 0.32425 0.3285 0.18844 0.0
H1825 H 0.32536 0.29986 0.10666 0.0
H1826 H 0.31549 0.28024 0.15621 0.0
S1827 S 0.34738 0.42005 0.20225 0.0
N1828 N 0.34837 0.40727 0.16311 0.0
N1829 N 0.33647 0.38636 0.21603 0.0
C1830 C 0.33312 0.36252 0.18857 0.0
C1831 C 0.3396 0.37402 0.15951 0.0
C1832 C 0.27931 0.01611 0.01813 0.0
C1833 C 0.29448 1.00408 0.04087 0.0
C1834 C 0.2612 0.03712 0.02829 0.0
C1835 C 0.25788 0.04605 0.06128 0.0
H1836 H 0.28269 1.01073 0.99282 0.0
H1837 H 0.25084 0.04759 0.01059 0.0
S1838 S 0.28815 0.0147 0.12858 0.0
N1839 N 0.30221 0.9984 0.09655 0.0
N1840 N 0.26713 0.03701 0.11552 0.0
C1841 C 0.27101 0.03173 0.08364 0.0
C1842 C 0.2897 1.01088 0.07342 0.0
C1843 C 0.6934 0.64664 1.00056 0.0
C1844 C 0.71947 0.63696 1.00675 0.0
C1845 C 0.66612 0.62613 1.00219 0.0
C1846 C 0.66343 0.59497 0.01043 0.0
H1847 H 0.69402 0.67042 0.99459 0.0
H1848 H 0.64692 0.63511 0.99728 0.0
S1849 S 0.72532 0.55899 0.03134 0.0
N1850 N 0.7408 0.59417 0.02227 0.0
N1851 N 0.69013 0.55676 0.02675 0.0
C1852 C 0.68946 0.5852 0.01697 0.0
C1853 C 0.7172 0.60583 0.01479 0.0
C1854 C 0.7778 0.42901 0.26527 0.0
C1855 C 0.75103 0.43245 0.27851 0.0
C1856 C 0.79186 0.40097 0.2657 0.0
C1857 C 0.78207 0.37405 0.2815 0.0
H1858 H 0.78785 0.44788 0.25314 0.0
H1859 H 0.81019 0.40021 0.25226 0.0
S1860 S 0.71185 0.36808 0.31838 0.0
N1861 N 0.71489 0.40274 0.3056 0.0
N1862 N 0.74079 0.35433 0.30907 0.0
C1863 C 0.75516 0.37759 0.29442 0.0
C1864 C 0.74032 0.40504 0.29258 0.0
C1865 C 0.95296 0.46668 0.48893 0.0
C1866 C 0.93902 0.48481 0.51163 0.0
C1867 C 0.98288 0.47625 0.48826 0.0
C1868 C 0.99951 0.50475 0.50949 0.0
H1869 H 0.94079 0.44445 0.4722 0.0
H1870 H 0.99317 0.46064 0.47181 0.0
S1871 S 0.9738 0.55635 0.57767 0.0
N1872 N 0.9442 0.52997 0.55819 0.0
N1873 N 1.00042 0.5477 0.55716 0.0
C1874 C 0.98579 0.52254 0.53281 0.0
C1875 C 0.95543 0.51276 0.53362 0.0
C1876 C 0.40296 0.11606 0.27447 0.0
C1877 C 0.39648 0.11294 0.30572 0.0
C1878 C 0.38238 0.12119 0.25233 0.0
C1879 C 0.35511 0.12407 0.26109 0.0
H1880 H 0.42312 0.11184 0.26605 0.0
H1881 H 0.38753 0.1221 0.228 0.0
S1882 S 0.32938 0.123 0.34138 0.0
N1883 N 0.36225 0.11608 0.34535 0.0
N1884 N 0.32362 0.12763 0.30383 0.0
C1885 C 0.34918 0.12384 0.29301 0.0
C1886 C 0.36995 0.11781 0.31539 0.0
C1887 C 0.36249 0.12259 0.52731 0.0
C1888 C 0.37023 0.15687 0.52916 0.0
C1889 C 0.3825 0.10578 0.53754 0.0
C1890 C 0.41115 0.12243 0.54962 0.0
H1891 H 0.34042 0.10869 0.51914 0.0
H1892 H 0.37526 0.07966 0.53689 0.0
S1893 S 0.44366 0.21123 0.55636 0.0
N1894 N 0.4094 0.20645 0.5419 0.0
N1895 N 0.44724 0.17436 0.56057 0.0
C1896 C 0.41986 0.15621 0.54978 0.0
C1897 C 0.39932 0.17358 0.53973 0.0
C1898 C 0.74062 0.6474 0.27841 0.0
C1899 C 0.75453 0.62378 0.28816 0.0
C1900 C 0.75562 0.68048 0.27825 0.0
C1901 C 0.78606 0.69296 0.28723 0.0
H1902 H 0.71751 0.64032 0.27073 0.0
H1903 H 0.74266 0.69647 0.27109 0.0
S1904 S 0.83304 0.64346 0.31903 0.0
N1905 N 0.80109 0.61717 0.30976 0.0
N1906 N 0.82861 0.67818 0.30959 0.0
C1907 C 0.80012 0.66986 0.29794 0.0
C1908 C 0.78476 0.63601 0.29827 0.0
C1909 C 0.86006 0.44542 0.81249 0.0
C1910 C 0.88875 0.45203 0.82743 0.0
C1911 C 0.84491 0.41315 0.79892 0.0
C1912 C 0.85771 0.3868 0.8011 0.0
H1913 H 0.84973 0.46531 0.80976 0.0
H1914 H 0.8232 0.40874 0.78659 0.0
S1915 S 0.93171 0.39055 0.83805 0.0
N1916 N 0.92908 0.42939 0.84403 0.0
N1917 N 0.90016 0.36849 0.81868 0.0
C1918 C 0.88595 0.3928 0.81661 0.0
C1919 C 0.90154 0.42558 0.83009 0.0
C1920 C 0.11133 0.94337 0.10699 0.0
C1921 C 0.11158 0.91418 0.08415 0.0
C1922 C 0.10528 0.97224 0.09808 0.0
C1923 C 0.09869 0.97485 0.06555 0.0
H1924 H 0.1164 0.9443 0.13252 0.0
H1925 H 0.10658 0.99357 0.11743 0.0
S1926 S 0.09642 0.9059 0.99504 0.0
N1927 N 0.10369 0.88998 0.02643 0.0
N1928 N 0.09398 0.94415 0.00991 0.0
C1929 C 0.0986 0.94572 0.04216 0.0
C1930 C 0.10447 0.91579 0.05134 0.0
C1931 C 0.94771 0.28268 0.85917 0.0
C1932 C 0.94687 0.27596 0.89059 0.0
C1933 C 0.92299 0.28701 0.84077 0.0
C1934 C 0.89534 0.28422 0.852 0.0
H1935 H 0.96801 0.28542 0.84878 0.0
H1936 H 0.92607 0.29365 0.81778 0.0
S1937 S 0.8806 0.26683 0.9325 0.0
N1938 N 0.91537 0.26723 0.93204 0.0
N1939 N 0.86936 0.27425 0.89753 0.0
C1940 C 0.8942 0.27751 0.88338 0.0
C1941 C 0.91956 0.27358 0.9024 0.0
C1942 C 0.60505 0.19707 0.55586 0.0
C1943 C 0.6138 0.21651 0.58784 0.0
C1944 C 0.59837 0.16151 0.54898 0.0
C1945 C 0.60037 0.14352 0.57369 0.0
H1946 H 0.60224 0.20931 0.53614 0.0
H1947 H 0.59048 0.14811 0.52437 0.0
S1948 S 0.62546 0.18183 0.66053 0.0
N1949 N 0.62622 0.21377 0.64361 0.0
N1950 N 0.61396 0.14885 0.63094 0.0
C1951 C 0.61025 0.16285 0.6052 0.0
C1952 C 0.6169 0.19853 0.61215 0.0
C1953 C 0.62854 0.80949 0.41382 0.0
C1954 C 0.60279 0.78732 0.39757 0.0
C1955 C 0.65277 0.81836 0.39746 0.0
C1956 C 0.65246 0.80509 0.3643 0.0
H1957 H 0.62962 0.82122 0.43912 0.0
H1958 H 0.67142 0.8369 0.41052 0.0
S1959 S 0.59176 0.74427 0.31086 0.0
N1960 N 0.57944 0.75094 0.34644 0.0
N1961 N 0.62507 0.76749 0.31611 0.0
C1962 C 0.62754 0.78178 0.34809 0.0
C1963 C 0.60273 0.77292 0.3646 0.0
C1964 C 0.10861 0.24226 0.43336 0.0
C1965 C 0.13194 0.27018 0.44249 0.0
C1966 C 0.09755 0.22483 0.45626 0.0
C1967 C 0.10947 0.23497 0.48886 0.0
H1968 H 0.09777 0.2349 0.40879 0.0
H1969 H 0.07852 0.20468 0.44886 0.0
S1970 S 0.17253 0.30348 0.52466 0.0
N1971 N 0.16808 0.30507 0.48607 0.0
N1972 N 0.14717 0.27188 0.52881 0.0
C1973 C 0.13391 0.26116 0.49789 0.0
C1974 C 0.14521 0.27893 0.47473 0.0
C1975 C 0.58994 0.22131 0.22514 0.0
C1976 C 0.58668 0.25264 0.22169 0.0
C1977 C 0.61617 0.21705 0.23853 0.0
C1978 C 0.64011 0.24391 0.2487 0.0
H1979 H 0.57201 0.19986 0.21776 0.0
H1980 H 0.61767 0.19261 0.24131 0.0
S1981 S 0.64379 0.33056 0.24283 0.0
N1982 N 0.61021 0.31077 0.22789 0.0
N1983 N 0.65976 0.3025 0.2532 0.0
C1984 C 0.63765 0.27517 0.24438 0.0
C1985 C 0.6108 0.27963 0.2309 0.0
C1986 C 0.61195 0.91845 0.97247 0.0
C1987 C 0.63337 0.92288 0.95148 0.0
C1988 C 0.59946 0.94422 0.98555 0.0
C1989 C 0.60803 0.97536 0.97822 0.0
H1990 H 0.60396 0.89454 0.978 0.0
H1991 H 0.58239 0.9394 1.00073 0.0
S1992 S 0.66458 1.00062 0.92636 0.0
N1993 N 0.66355 0.96128 0.92509 0.0
N1994 N 0.64018 1.01003 0.95005 0.0
C1995 C 0.62996 0.98052 0.95798 0.0
C1996 C 0.64275 0.95424 0.94467 0.0
C1997 C 0.93155 0.76759 0.74536 0.0
C1998 C 0.93707 0.77181 0.71421 0.0
C1999 C 0.90426 0.76868 0.75555 0.0
C2000 C 0.8826 0.77532 0.73518 0.0
H2001 H 0.94791 0.7622 0.76129 0.0
H2002 H 0.89992 0.76381 0.77907 0.0
S2003 S 0.88726 0.78813 0.65151 0.0
N2004 N 0.91927 0.7823 0.66315 0.0
N2005 N 0.86856 0.78559 0.68257 0.0
C2006 C 0.88832 0.7798 0.70416 0.0
C2007 C 0.91558 0.77801 0.69367 0.0
C2008 C 0.15036 0.0599 0.89323 0.0
C2009 C 0.15419 0.02924 0.87466 0.0
C2010 C 0.13606 0.06336 0.9228 0.0
C2011 C 0.12378 0.03658 0.93748 0.0
H2012 H 0.15846 0.08211 0.88464 0.0
H2013 H 0.13459 0.08796 0.9342 0.0
S2014 S 0.12999 0.95062 0.90268 0.0
N2015 N 0.1452 0.97129 0.87671 0.0
N2016 N 0.11939 0.9776 0.9302 0.0
C2017 C 0.1279 1.00583 0.91953 0.0
C2018 C 0.14248 1.00228 0.88933 0.0
C2019 C 0.84557 0.38788 0.60582 0.0
C2020 C 0.85515 0.42166 0.6064 0.0
C2021 C 0.85619 0.37441 0.63033 0.0
C2022 C 0.87639 0.39453 0.65606 0.0
H2023 H 0.83189 0.37127 0.58503 0.0
H2024 H 0.85045 0.34785 0.62766 0.0
S2025 S 0.9022 0.48538 0.67261 0.0
N2026 N 0.88168 0.47567 0.63741 0.0
N2027 N 0.90097 0.45021 0.68411 0.0
C2028 C 0.88317 0.42876 0.6589 0.0
C2029 C 0.87265 0.44244 0.63384 0.0
C2030 C 0.48795 0.04355 0.42486 0.0
C2031 C 0.49906 0.05963 0.40129 0.0
C2032 C 0.50636 0.03881 0.44908 0.0
C2033 C 0.53659 0.05045 0.45098 0.0
H2034 H 0.46481 0.03417 0.42446 0.0
H2035 H 0.49638 0.02732 0.46732 0.0
S2036 S 0.5759 0.0956 0.39525 0.0
N2037 N 0.54145 0.08703 0.38007 0.0
N2038 N 0.57661 0.08008 0.42802 0.0
C2039 C 0.54804 0.06651 0.42739 0.0
C2040 C 0.52907 0.0707 0.40192 0.0
C2041 C 0.81642 0.77409 0.13562 0.0
C2042 C 0.80578 0.74086 0.11858 0.0
C2043 C 0.8187 0.78336 0.17019 0.0
C2044 C 0.81076 0.75972 0.18925 0.0
H2045 H 0.82348 0.79301 0.12225 0.0
H2046 H 0.828 0.80887 0.18206 0.0
S2047 S 0.78227 0.66969 0.15733 0.0
N2048 N 0.78698 0.68469 0.12458 0.0
N2049 N 0.79255 0.70172 0.18808 0.0
C2050 C 0.80021 0.72671 0.1724 0.0
C2051 C 0.7973 0.71743 0.13765 0.0
C2052 C 0.12161 0.02436 0.67347 0.0
C2053 C 0.15231 0.02805 0.68136 0.0
C2054 C 0.1079 0.02813 0.64262 0.0
C2055 C 0.12343 0.03668 0.61647 0.0
H2056 H 0.10756 0.01762 0.69122 0.0
H2057 H 0.08447 0.02291 0.63887 0.0
S2058 S 0.20414 0.05007 0.62265 0.0
N2059 N 0.19722 0.04179 0.65812 0.0
N2060 N 0.1725 0.04806 0.60255 0.0
C2061 C 0.154 0.04058 0.62433 0.0
C2062 C 0.1679 0.03684 0.65553 0.0
C2063 C 0.85446 0.39651 0.40878 0.0
C2064 C 0.84465 0.38278 0.43449 0.0
C2065 C 0.85716 0.37643 0.37979 0.0
C2066 C 0.84863 0.34188 0.37481 0.0
H2067 H 0.8604 0.42303 0.41103 0.0
H2068 H 0.86515 0.38846 0.36103 0.0
S2069 S 0.83034 0.29434 0.43782 0.0
N2070 N 0.83292 0.33314 0.45606 0.0
N2071 N 0.83663 0.29492 0.40011 0.0
C2072 C 0.8414 0.32782 0.40122 0.0
C2073 C 0.83953 0.34844 0.43139 0.0
C2074 C 0.46422 0.98726 0.2272 0.0
C2075 C 0.46528 0.02092 0.23858 0.0
C2076 C 0.48213 0.97741 0.2045 0.0
C2077 C 0.50093 1.00085 0.19223 0.0
H2078 H 0.45107 0.96861 0.23749 0.0
H2079 H 0.48212 0.95149 0.19734 0.0
S2080 S 0.50859 0.09172 0.21126 0.0
N2081 N 0.48419 0.07745 0.23386 0.0
N2082 N 0.51782 0.05893 0.19071 0.0
C2083 C 0.50056 0.03445 0.20163 0.0
C2084 C 0.48259 0.04448 0.22495 0.0
C2085 C 0.81507 0.76976 0.92472 0.0
C2086 C 0.81378 0.7367 0.92704 0.0
C2087 C 0.81848 0.78034 0.89505 0.0
C2088 C 0.82062 0.75843 0.86589 0.0
H2089 H 0.81332 0.78773 0.94602 0.0
H2090 H 0.81885 0.80589 0.89491 0.0
S2091 S 0.81955 0.66943 0.8584 0.0
N2092 N 0.8158 0.68236 0.89686 0.0
N2093 N 0.82191 0.70197 0.84209 0.0
C2094 C 0.81961 0.72543 0.86801 0.0
C2095 C 0.81634 0.71472 0.89814 0.0
C2096 C 0.89099 0.10372 0.03618 0.0
C2097 C 0.86183 0.08609 0.03211 0.0
C2098 C 0.91237 0.08874 0.02322 0.0
C2099 C 0.90511 0.05579 1.00605 0.0
H2100 H 0.897 0.12988 0.04716 0.0
H2101 H 0.93406 0.10373 0.02418 0.0
S2102 S 0.83333 0.99753 0.9939 0.0
N2103 N 0.82778 0.03284 0.01367 0.0
N2104 N 0.86819 1.00474 0.98951 0.0
C2105 C 0.8768 0.0371 1.00475 0.0
C2106 C 0.85502 0.05228 0.01774 0.0
C2107 C 0.46423 0.4403 0.05347 0.0
C2108 C 0.43871 0.4514 0.04815 0.0
C2109 C 0.49198 0.45984 0.05181 0.0
C2110 C 0.49576 0.49151 0.04454 0.0
H2111 H 0.4628 0.41618 0.05893 0.0
H2112 H 0.51068 0.4498 0.05612 0.0
S2113 S 0.43571 0.53107 0.02562 0.0
N2114 N 0.41913 0.4959 0.03394 0.0
N2115 N 0.47064 0.53174 0.02978 0.0
C2116 C 0.4703 0.50265 0.03867 0.0
C2117 C 0.44207 0.48291 0.04072 0.0
C2118 C 0.38106 0.6661 0.79365 0.0
C2119 C 0.40868 0.66266 0.78259 0.0
C2120 C 0.36764 0.69457 0.79263 0.0
C2121 C 0.37919 0.72225 0.77855 0.0
H2122 H 0.36966 0.64675 0.8044 0.0
H2123 H 0.34815 0.69491 0.80395 0.0
S2124 S 0.45168 0.72796 0.74655 0.0
N2125 N 0.44711 0.69279 0.75859 0.0
N2126 N 0.42266 0.74217 0.75434 0.0
C2127 C 0.40689 0.71864 0.76765 0.0
C2128 C 0.42095 0.69064 0.76998 0.0
C2129 C 0.19319 0.63683 0.54324 0.0
C2130 C 0.20838 0.61153 0.5403 0.0
C2131 C 0.1629 0.62958 0.53962 0.0
C2132 C 0.14669 0.5968 0.5328 0.0
H2133 H 0.20479 0.66247 0.54798 0.0
H2134 H 0.15207 0.64981 0.54167 0.0
S2135 S 0.17661 0.52164 0.52213 0.0
N2136 N 0.20542 0.55266 0.53052 0.0
N2137 N 0.14856 0.53883 0.52274 0.0
C2138 C 0.1618 0.57133 0.53019 0.0
C2139 C 0.19266 0.57876 0.53431 0.0
C2140 C 0.7507 0.97384 0.77581 0.0
C2141 C 0.76159 0.98295 0.7481 0.0
C2142 C 0.76753 0.96227 0.79706 0.0
C2143 C 0.79525 0.95864 0.79069 0.0
H2144 H 0.73038 0.97882 0.78301 0.0
H2145 H 0.75957 0.95803 0.81953 0.0
S2146 S 0.8302 0.97059 0.71729 0.0
N2147 N 0.79937 0.98214 0.7125 0.0
N2148 N 0.83071 0.95859 0.75208 0.0
C2149 C 0.80479 0.96334 0.76104 0.0
C2150 C 0.78791 0.97593 0.73969 0.0
C2151 C 0.75569 0.91801 0.52255 0.0
C2152 C 0.78309 0.93645 0.53822 0.0
C2153 C 0.73401 0.93373 0.51404 0.0
C2154 C 0.73902 0.96829 0.52117 0.0
H2155 H 0.75142 0.89134 0.51538 0.0
H2156 H 0.71383 0.9189 0.50033 0.0
S2157 S 0.80539 0.02782 0.56449 0.0
N2158 N 0.81286 0.9913 0.56265 0.0
N2159 N 0.7719 0.02044 0.54663 0.0
C2160 C 0.76541 0.98691 0.53852 0.0
C2161 C 0.78752 0.97106 0.54711 0.0
C2162 C 0.40833 0.44111 0.76038 0.0
C2163 C 0.40044 0.47015 0.77645 0.0
C2164 C 0.39289 0.40814 0.761 0.0
C2165 C 0.36802 0.40103 0.77765 0.0
H2166 H 0.427 0.44378 0.7471 0.0
H2167 H 0.4008 0.38776 0.74805 0.0
S2168 S 0.33843 0.46726 0.82583 0.0
N2169 N 0.36571 0.48829 0.81091 0.0
N2170 N 0.33761 0.42783 0.81219 0.0
C2171 C 0.36007 0.42983 0.79414 0.0
C2172 C 0.37582 0.46351 0.79353 0.0
C2173 C 0.245 0.67181 0.2555 0.0
C2174 C 0.26432 0.65111 0.25665 0.0
C2175 C 0.25474 0.70592 0.26432 0.0
C2176 C 0.28426 0.72069 0.27377 0.0
H2177 H 0.22195 0.66165 0.24875 0.0
H2178 H 0.23894 0.72089 0.26362 0.0
S2179 S 0.3437 0.67753 0.28106 0.0
N2180 N 0.31436 0.64757 0.26797 0.0
N2181 N 0.33273 0.71234 0.2848 0.0
C2182 C 0.30396 0.70045 0.27486 0.0
C2183 C 0.29397 0.66545 0.26608 0.0
C2184 C 0.54667 0.65937 0.45868 0.0
C2185 C 0.54413 0.68731 0.48194 0.0
C2186 C 0.55393 0.63073 0.46702 0.0
C2187 C 0.55925 0.62693 0.49942 0.0
H2188 H 0.54295 0.65945 0.4332 0.0
H2189 H 0.55514 0.6108 0.44722 0.0
S2190 S 0.55648 0.69264 0.57096 0.0
N2191 N 0.5488 0.70906 0.54005 0.0
N2192 N 0.56141 0.65559 0.55538 0.0
C2193 C 0.55715 0.65482 0.52325 0.0
C2194 C 0.54994 0.68448 0.51468 0.0
C2195 C 0.70594 0.3311 0.71653 0.0
C2196 C 0.70636 0.32856 0.68277 0.0
C2197 C 0.7298 0.3279 0.73708 0.0
C2198 C 0.75593 0.3223 0.72548 0.0
H2199 H 0.68667 0.33507 0.72733 0.0
H2200 H 0.72716 0.3292 0.7622 0.0
S2201 S 0.76828 0.31224 0.63856 0.0
N2202 N 0.73531 0.31892 0.63866 0.0
N2203 N 0.77969 0.31355 0.67658 0.0
C2204 C 0.75651 0.31965 0.6916 0.0
C2205 C 0.73209 0.32264 0.67063 0.0
C2206 C 0.05381 0.40299 0.01733 0.0
C2207 C 0.04531 0.38473 0.98483 0.0
C2208 C 0.06094 0.43862 0.02565 0.0
C2209 C 0.05969 0.458 1.00197 0.0
H2210 H 0.05606 0.38975 0.03637 0.0
H2211 H 0.06855 0.45098 0.05061 0.0
S2212 S 0.03483 0.42313 0.91445 0.0
N2213 N 0.03351 0.39013 0.92983 0.0
N2214 N 0.04659 0.45509 0.94508 0.0
C2215 C 0.04992 0.43983 0.96996 0.0
C2216 C 0.04281 0.40406 0.96157 0.0
C2217 C 0.0271 0.79178 0.15477 0.0
C2218 C 0.05165 0.81701 0.16908 0.0
C2219 C 1.00312 0.78409 0.17175 0.0
C2220 C 1.00272 0.80173 0.20335 0.0
H2221 H 0.02692 0.77684 0.13087 0.0
H2222 H 0.98539 0.7633 0.16068 0.0
S2223 S 0.05996 0.87177 0.25067 0.0
N2224 N 0.07298 0.86089 0.21613 0.0
N2225 N 0.02776 0.84655 0.2476 0.0
C2226 C 0.02635 0.82795 0.21729 0.0
C2227 C 0.05086 0.83559 0.20026 0.0
C2228 C 0.51807 0.33669 0.09779 0.0
C2229 C 0.53665 0.32999 0.12169 0.0
C2230 C 0.52922 0.3508 0.07282 0.0
C2231 C 0.55916 0.35791 0.07088 0.0
H2232 H 0.49477 0.33 0.09781 0.0
H2233 H 0.51436 0.35485 0.05422 0.0
S2234 S 0.61696 0.34537 0.12707 0.0
N2235 N 0.58657 0.33206 0.14186 0.0
N2236 N 0.60722 0.35845 0.09471 0.0
C2237 C 0.57797 0.35219 0.09492 0.0
C2238 C 0.56678 0.33824 0.12047 0.0
C2239 C 0.04816 0.3478 0.34837 0.0
C2240 C 0.07122 0.34342 0.33043 0.0
C2241 C 0.02487 0.35816 0.3354 0.0
C2242 C 0.02348 0.36382 0.30378 0.0
H2243 H 0.04855 0.34431 0.37303 0.0
H2244 H 1.00787 0.362 0.35041 0.0
S2245 S 0.07819 0.35447 0.24671 0.0
N2246 N 0.09168 0.34531 0.27984 0.0
N2247 N 0.04683 0.36324 0.25452 0.0
C2248 C 0.04631 0.35914 0.28546 0.0
C2249 C 0.07041 0.3492 0.299 0.0
C2250 C 0.03967 0.66032 0.62908 0.0
C2251 C 0.01509 0.67044 0.61851 0.0
C2252 C 0.05059 0.63736 0.60842 0.0
C2253 C 0.03717 0.62362 0.5766 0.0
H2254 H 0.05143 0.67142 0.65291 0.0
H2255 H 0.07004 0.63096 0.61744 0.0
S2256 S 0.96847 0.63719 0.54029 0.0
N2257 N 0.97555 0.66275 0.57615 0.0
N2258 N 0.99515 0.61779 0.53757 0.0
C2259 C 0.01137 0.63199 0.56655 0.0
C2260 C 1.00053 0.65587 0.58751 0.0
C2261 C 0.74153 0.83668 0.85162 0.0
C2262 C 0.7128 0.82648 0.83679 0.0
C2263 C 0.76457 0.83456 0.8334 0.0
C2264 C 0.75978 0.82253 0.79967 0.0
H2265 H 0.74634 0.84623 0.87754 0.0
H2266 H 0.78633 0.84201 0.84595 0.0
S2267 S 0.68868 0.79177 0.7492 0.0
N2268 N 0.68062 0.80278 0.7864 0.0
N2269 N 0.72447 0.80001 0.75201 0.0
C2270 C 0.73126 0.81229 0.78438 0.0
C2271 C 0.70761 0.81385 0.80304 0.0
C2272 C 0.53257 0.569 0.68687 0.0
C2273 C 0.50207 0.56714 0.68773 0.0
C2274 C 0.54705 0.56683 0.65736 0.0
C2275 C 0.53277 0.56266 0.62518 0.0
H2276 H 0.54581 0.57191 0.70959 0.0
H2277 H 0.57011 0.56814 0.66005 0.0
S2278 S 0.45336 0.55896 0.61173 0.0
N2279 N 0.45889 0.56236 0.65131 0.0
N2280 N 0.48501 0.55858 0.59812 0.0
C2281 C 0.50239 0.56132 0.62581 0.0
C2282 C 0.48766 0.56346 0.65582 0.0
C2283 C 0.77874 0.16448 0.93375 0.0
C2284 C 0.80067 0.17974 0.95961 0.0
C2285 C 0.765 0.18339 0.91724 0.0
C2286 C 0.77333 0.21784 0.92584 0.0
H2287 H 0.7703 0.13797 0.92817 0.0
H2288 H 0.74685 0.17115 0.89886 0.0
S2289 S 0.83163 0.26979 0.98878 0.0
N2290 N 0.83211 0.23143 0.99062 0.0
N2291 N 0.80618 0.26681 0.959 0.0
C2292 C 0.79702 0.23343 0.9493 0.0
C2293 C 0.81096 0.2143 0.96625 0.0
C2294 C 0.13526 0.52943 0.17268 0.0
C2295 C 0.16519 0.53643 0.17017 0.0
C2296 C 0.11549 0.53132 0.14745 0.0
C2297 C 0.12551 0.54142 0.11995 0.0
H2298 H 0.12721 0.52306 0.1944 0.0
H2299 H 0.09258 0.52617 0.15006 0.0
S2300 S 0.20249 0.56422 0.1035 0.0
N2301 N 0.20401 0.55342 0.13861 0.0
N2302 N 0.16768 0.5596 0.09267 0.0
C2303 C 0.1556 0.54853 0.11763 0.0
C2304 C 0.17532 0.54534 0.14244 0.0
C2305 C 0.84211 0.81248 0.42908 0.0
C2306 C 0.84452 0.84651 0.44128 0.0
C2307 C 0.83746 0.7985 0.39532 0.0
C2308 C 0.8357 0.81791 0.37206 0.0
H2309 H 0.843 0.7963 0.44575 0.0
H2310 H 0.83467 0.77206 0.38733 0.0
S2311 S 0.84071 0.90819 0.39066 0.0
N2312 N 0.84495 0.8992 0.42659 0.0
N2313 N 0.83633 0.873 0.36399 0.0
C2314 C 0.83845 0.85194 0.38389 0.0
C2315 C 0.84295 0.86616 0.41813 0.0
C2316 C 0.53576 0.56903 0.88629 0.0
C2317 C 0.5049 0.56386 0.87858 0.0
C2318 C 0.54998 0.56442 0.91644 0.0
C2319 C 0.53494 0.55336 0.94192 0.0
H2320 H 0.54951 0.57768 0.86904 0.0
H2321 H 0.57344 0.57099 0.92028 0.0
S2322 S 0.45405 0.53525 0.93584 0.0
N2323 N 0.46035 0.54592 0.90115 0.0
N2324 N 0.48607 0.53813 0.95555 0.0
C2325 C 0.5042 0.54793 0.93424 0.0
C2326 C 0.48975 0.55255 0.90373 0.0
C2327 C 0.80879 0.2401 0.12479 0.0
C2328 C 0.81609 0.20938 0.1227 0.0
C2329 C 0.81163 0.26194 0.15483 0.0
C2330 C 0.822 0.25335 0.18297 0.0
H2331 H 0.79965 0.24656 0.10346 0.0
H2332 H 0.8045 0.28473 0.15627 0.0
S2333 S 0.84817 0.17797 0.18855 0.0
N2334 N 0.83657 0.17293 0.15005 0.0
N2335 N 0.84351 0.21451 0.206 0.0
C2336 C 0.83145 0.22387 0.18044 0.0
C2337 C 0.82803 0.20161 0.15032 0.0
C2338 C 0.16172 0.57668 0.30971 0.0
C2339 C 0.18565 0.56751 0.32367 0.0
C2340 C 0.14597 0.59521 0.32877 0.0
C2341 C 0.15353 0.60464 0.36227 0.0
H2342 H 0.15572 0.57053 0.2837 0.0
H2343 H 0.12749 0.6017 0.31734 0.0
S2344 S 0.21242 0.58362 0.41054 0.0
N2345 N 0.21552 0.56757 0.3725 0.0
N2346 N 0.18478 0.60151 0.40922 0.0
C2347 C 0.17679 0.59464 0.37673 0.0
C2348 C 0.19325 0.57631 0.35711 0.0
C2349 C 0.83488 0.87261 0.65752 0.0
C2350 C 0.83286 0.85115 0.62696 0.0
C2351 C 0.82773 0.8608 0.68567 0.0
C2352 C 0.81815 0.82675 0.68518 0.0
H2353 H 0.84243 0.89898 0.65994 0.0
H2354 H 0.83033 0.87873 0.70833 0.0
S2355 S 0.80823 0.75988 0.61092 0.0
N2356 N 0.8194 0.79398 0.59783 0.0
N2357 N 0.80681 0.77199 0.65007 0.0
C2358 C 0.81521 0.80519 0.6544 0.0
C2359 C 0.82244 0.81723 0.62569 0.0
C2360 C 0.76513 0.49419 0.52813 0.0
C2361 C 0.79442 0.50801 0.52643 0.0
C2362 C 0.7472 0.5139 0.54175 0.0
C2363 C 0.75813 0.54792 0.55405 0.0
H2364 H 0.75639 0.46779 0.52056 0.0
H2365 H 0.72519 0.50213 0.5444 0.0
S2366 S 0.83194 0.59666 0.55116 0.0
N2367 N 0.83274 0.5582 0.53517 0.0
N2368 N 0.79858 0.59526 0.56019 0.0
C2369 C 0.78664 0.56237 0.5502 0.0
C2370 C 0.80494 0.54238 0.53645 0.0
C2371 C 0.19691 0.15432 0.52728 0.0
C2372 C 0.21664 0.1433 0.50713 0.0
C2373 C 0.16984 0.13376 0.52883 0.0
C2374 C 0.16088 0.10103 0.51019 0.0
H2375 H 0.20268 0.17887 0.54268 0.0
H2376 H 0.15601 0.14376 0.54537 0.0
S2377 S 0.20341 0.06174 0.45038 0.0
N2378 N 0.22485 0.09825 0.46655 0.0
N2379 N 0.17362 0.06031 0.46834 0.0
C2380 C 0.18014 0.09021 0.48903 0.0
C2381 C 0.208 0.11107 0.48781 0.0
C2382 C 0.28135 0.93655 0.77312 0.0
C2383 C 0.25138 0.93566 0.77825 0.0
C2384 C 0.29576 0.9087 0.77276 0.0
C2385 C 0.2827 0.87723 0.77966 0.0
H2386 H 0.29403 0.95906 0.76826 0.0
H2387 H 0.31722 0.912 0.76586 0.0
S2388 S 0.20327 0.85848 0.79059 0.0
N2389 N 0.20899 0.89707 0.78658 0.0
N2390 N 0.23471 0.84821 0.78808 0.0
C2391 C 0.25243 0.87625 0.78373 0.0
C2392 C 0.23761 0.90385 0.78276 0.0
C2393 C 0.44931 0.03016 1.00653 0.0
C2394 C 0.43909 0.99592 1.00224 0.0
C2395 C 0.4791 0.04395 0.01 0.0
C2396 C 0.49903 0.02369 1.00829 0.0
H2397 H 0.43455 0.04645 0.01021 0.0
H2398 H 0.48669 0.07058 0.01649 0.0
S2399 S 0.48263 0.93254 0.99313 0.0
N2400 N 0.45065 0.94191 0.99255 0.0
N2401 N 0.50671 0.96812 0.99989 0.0
C2402 C 0.48888 0.98941 1.00124 0.0
C2403 C 0.45874 0.97539 0.99779 0.0
C2404 C 0.85968 0.59584 0.82038 0.0
C2405 C 0.88817 0.60151 0.81224 0.0
C2406 C 0.83685 0.59769 0.79889 0.0
C2407 C 0.84202 0.60479 0.76872 0.0
H2408 H 0.85485 0.58853 0.84284 0.0
H2409 H 0.8151 0.59364 0.80583 0.0
S2410 S 0.91262 0.62552 0.73721 0.0
N2411 N 0.92049 0.6173 0.77283 0.0
N2412 N 0.8771 0.621 0.73268 0.0
C2413 C 0.87036 0.61219 0.76085 0.0
C2414 C 0.89367 0.61067 0.78271 0.0
C2415 C 0.90013 0.66888 0.03752 0.0
C2416 C 0.87043 0.65303 0.03076 0.0
C2417 C 0.92088 0.65244 0.04772 0.0
C2418 C 0.91251 0.61982 0.05199 0.0
H2419 H 0.9073 0.69432 0.03557 0.0
H2420 H 0.94334 0.66579 0.0537 0.0
S2421 S 0.83802 0.56684 0.0362 0.0
N2422 N 0.83424 0.60221 0.02794 0.0
N2423 N 0.87301 0.57179 0.04693 0.0
C2424 C 0.88317 0.60343 0.04412 0.0
C2425 C 0.8622 0.61991 0.0336 0.0
C2426 C 0.24418 0.15196 0.79681 0.0
C2427 C 0.25558 0.12365 0.78714 0.0
C2428 C 0.25962 0.1849 0.79667 0.0
C2429 C 0.28794 0.19254 0.78703 0.0
H2430 H 0.2227 0.14871 0.80446 0.0
H2431 H 0.24895 0.20479 0.80429 0.0
S2432 S 0.32773 0.12804 0.75693 0.0
N2433 N 0.29742 0.10647 0.76615 0.0
N2434 N 0.32563 0.16707 0.7656 0.0
C2435 C 0.29951 0.16445 0.77697 0.0
C2436 C 0.28374 0.13076 0.77708 0.0
C2437 C 0.40089 0.92911 0.31807 0.0
C2438 C 0.38616 0.9548 0.32143 0.0
C2439 C 0.38631 0.89674 0.30426 0.0
C2440 C 0.35651 0.88898 0.29413 0.0
H2441 H 0.42408 0.93411 0.32484 0.0
H2442 H 0.39844 0.87761 0.30135 0.0
S2443 S 0.30751 0.94626 0.29917 0.0
N2444 N 0.33974 0.96993 0.31468 0.0
N2445 N 0.31233 0.90836 0.28866 0.0
C2446 C 0.34125 0.91393 0.29785 0.0
C2447 C 0.35608 0.94708 0.31188 0.0
C2448 C 0.61622 0.44157 0.60614 0.0
C2449 C 0.61298 0.41119 0.58364 0.0
C2450 C 0.60981 0.47043 0.59753 0.0
C2451 C 0.59977 0.47209 0.5655 0.0
H2452 H 0.62382 0.44326 0.63125 0.0
H2453 H 0.61302 0.49217 0.61686 0.0
S2454 S 0.58678 0.39955 0.4961 0.0
N2455 N 0.59775 0.38479 0.52693 0.0
N2456 N 0.58738 0.43882 0.51069 0.0
C2457 C 0.59649 0.44188 0.54241 0.0
C2458 C 0.60259 0.41192 0.5514 0.0
C2459 C 0.4187 0.7708 0.39797 0.0
C2460 C 0.44695 0.77585 0.38811 0.0
C2461 C 0.39413 0.77517 0.37894 0.0
C2462 C 0.39622 0.78503 0.3489 0.0
H2463 H 0.41543 0.76324 0.42061 0.0
H2464 H 0.3732 0.77055 0.38787 0.0
S2465 S 0.46572 0.80665 0.31416 0.0
N2466 N 0.47523 0.79397 0.34686 0.0
N2467 N 0.43047 0.80366 0.31294 0.0
C2468 C 0.42457 0.79142 0.3396 0.0
C2469 C 0.44934 0.78647 0.35856 0.0
C2470 C 0.11031 0.70216 0.11207 0.0
C2471 C 0.11199 0.7205 0.08754 0.0
C2472 C 0.10411 0.66723 0.10527 0.0
C2473 C 0.09892 0.6477 0.0734 0.0
H2474 H 0.11351 0.71497 0.13726 0.0
H2475 H 0.10275 0.65526 0.12561 0.0
S2476 S 0.10005 0.68223 0.99934 0.0
N2477 N 0.10811 0.71548 0.02916 0.0
N2478 N 0.09547 0.65006 0.01654 0.0
C2479 C 0.10074 0.66542 0.04831 0.0
C2480 C 0.10751 0.70147 0.0553 0.0
C2481 C 0.0996 0.28533 0.86198 0.0
C2482 C 0.10318 0.28588 0.89538 0.0
C2483 C 0.12351 0.29444 0.84526 0.0
C2484 C 0.15211 0.30388 0.86099 0.0
H2485 H 0.07805 0.27939 0.84891 0.0
H2486 H 0.11951 0.29545 0.82004 0.0
S2487 S 0.17377 0.30582 0.94717 0.0
N2488 N 0.13801 0.2943 0.94294 0.0
N2489 N 0.18279 0.31073 0.91126 0.0
C2490 C 0.15618 0.30254 0.89381 0.0
C2491 C 0.13179 0.29377 0.91104 0.0
C2492 C 0.64524 0.77068 0.97305 0.0
C2493 C 0.62679 0.76914 0.94503 0.0
C2494 C 0.63533 0.7539 0.99678 0.0
C2495 C 0.60679 0.73518 0.993 0.0
H2496 H 0.66704 0.78608 0.97738 0.0
H2497 H 0.6496 0.75667 0.01876 0.0
S2498 S 0.55053 0.72082 0.92345 0.0
N2499 N 0.57897 0.74565 0.91423 0.0
N2500 N 0.5608 0.71369 0.95891 0.0
C2501 C 0.58864 0.73176 0.96447 0.0
C2502 C 0.59855 0.7489 0.94037 0.0
C2503 C 0.11272 0.77859 0.72829 0.0
C2504 C 0.08656 0.75464 0.72387 0.0
C2505 C 0.13797 0.77362 0.74381 0.0
C2506 C 0.1377 0.74438 0.7549 0.0
H2507 H 0.1135 0.80156 0.72051 0.0
H2508 H 0.15752 0.79312 0.74798 0.0
S2509 S 0.07599 0.67175 0.74326 0.0
N2510 N 0.0627 0.69919 0.72807 0.0
N2511 N 0.1103 0.68961 0.75634 0.0
C2512 C 0.11211 0.71953 0.74863 0.0
C2513 C 0.08647 0.72472 0.73333 0.0
C2514 C 0.13799 0.45499 0.43272 0.0
C2515 C 0.12732 0.42306 0.43786 0.0
C2516 C 0.126 0.48132 0.44626 0.0
C2517 C 0.10292 0.47607 0.46484 0.0
H2518 H 0.15588 0.45969 0.41856 0.0
H2519 H 0.1354 0.50594 0.44315 0.0
S2520 S 0.0645 0.39685 0.48168 0.0
N2521 N 0.09065 0.38755 0.4607 0.0
N2522 N 0.06791 0.43687 0.4851 0.0
C2523 C 0.09125 0.4442 0.46886 0.0
C2524 C 0.10356 0.41767 0.45567 0.0
C2525 C 0.43849 0.26303 0.25406 0.0
C2526 C 0.43714 0.26045 0.22037 0.0
C2527 C 0.41344 0.26239 0.26966 0.0
C2528 C 0.38675 0.26027 0.25205 0.0
H2529 H 0.45899 0.26576 0.26846 0.0
H2530 H 0.41516 0.26497 0.2957 0.0
S2531 S 0.37152 0.25146 0.16333 0.0
N2532 N 0.40662 0.25383 0.16975 0.0
N2533 N 0.35996 0.25396 0.19928 0.0
C2534 C 0.385 0.25668 0.2183 0.0
C2535 C 0.4102 0.25665 0.20239 0.0
C2536 C 0.62533 0.51754 0.37696 0.0
C2537 C 0.65615 0.52682 0.37612 0.0
C2538 C 0.61099 0.52018 0.4066 0.0
C2539 C 0.62571 0.53226 0.43903 0.0
H2540 H 0.61165 0.50816 0.35406 0.0
H2541 H 0.58758 0.51266 0.40372 0.0
S2542 S 0.70672 0.55903 0.45309 0.0
N2543 N 0.7005 0.54827 0.41315 0.0
N2544 N 0.67469 0.5529 0.46655 0.0
C2545 C 0.65655 0.54136 0.43851 0.0
C2546 C 0.67113 0.53876 0.40834 0.0
C2547 C 0.36661 0.9335 0.12907 0.0
C2548 C 0.35875 0.91318 0.09796 0.0
C2549 C 0.37761 0.92153 0.15446 0.0
C2550 C 0.38094 0.88899 0.14929 0.0
H2551 H 0.3657 0.95927 0.13338 0.0
H2552 H 0.38468 0.93815 0.17791 0.0
S2553 S 0.3622 0.82555 0.07269 0.0
N2554 N 0.35368 0.85868 0.06354 0.0
N2555 N 0.37434 0.83604 0.11168 0.0
C2556 C 0.37152 0.86779 0.11882 0.0
C2557 C 0.36031 0.87996 0.09294 0.0
C2558 C 0.02125 0.53844 0.89978 0.0
C2559 C 1.00463 0.56237 0.90206 0.0
C2560 C 0.04073 0.53859 0.92574 0.0
C2561 C 0.04379 0.56273 0.95405 0.0
H2562 H 0.01798 0.5184 0.87864 0.0
H2563 H 0.052 0.51876 0.92445 0.0
S2564 S 1.00811 0.6325 0.97078 0.0
N2565 N 0.99435 0.61225 0.9336 0.0
N2566 N 0.03138 0.61223 0.98295 0.0
C2567 C 0.02873 0.58776 0.95612 0.0
C2568 C 1.00887 0.58765 0.9298 0.0
C2569 C 0.3046 0.21804 0.63907 0.0
C2570 C 0.30795 0.24182 0.61976 0.0
C2571 C 0.30749 0.22682 0.67311 0.0
C2572 C 0.31365 0.25996 0.69031 0.0
H2573 H 0.30024 0.192 0.62783 0.0
H2574 H 0.30549 0.20717 0.68628 0.0
S2575 S 0.32426 0.33254 0.65219 0.0
N2576 N 0.31732 0.30066 0.62097 0.0
N2577 N 0.32323 0.31708 0.68506 0.0
C2578 C 0.31667 0.28428 0.67158 0.0
C2579 C 0.31365 0.27526 0.63646 0.0
C2580 C 0.66797 0.52357 0.15279 0.0
C2581 C 0.65436 0.525 0.18191 0.0
C2582 C 0.65446 0.52672 0.12189 0.0
C2583 C 0.62592 0.53243 0.11618 0.0
H2584 H 0.6896 0.51918 0.15351 0.0
H2585 H 0.66677 0.52375 0.10145 0.0
S2586 S 0.57895 0.53814 0.18315 0.0
N2587 N 0.60913 0.53326 0.20151 0.0
N2588 N 0.58433 0.53781 0.14502 0.0
C2589 C 0.61197 0.53412 0.14517 0.0
C2590 C 0.62583 0.53099 0.17693 0.0
C2591 C 0.36533 0.86456 0.93078 0.0
C2592 C 0.34553 0.88505 0.93473 0.0
C2593 C 0.36532 0.84368 0.90089 0.0
C2594 C 0.34543 0.84293 0.87467 0.0
H2595 H 0.38144 0.8654 0.95056 0.0
H2596 H 0.38118 0.82869 0.89809 0.0
S2597 S 0.28906 0.89122 0.87291 0.0
N2598 N 0.30534 0.90277 0.9104 0.0
N2599 N 0.3057 0.86392 0.85415 0.0
C2600 C 0.32555 0.86312 0.87845 0.0
C2601 C 0.32546 0.88414 0.90865 0.0
C2602 C 0.96627 0.49454 0.72864 0.0
C2603 C 0.9661 0.52753 0.74192 0.0
C2604 C 0.98578 0.48717 0.70696 0.0
C2605 C 1.00522 0.51262 0.69796 0.0
H2606 H 0.95279 0.47442 0.73674 0.0
H2607 H 0.98634 0.46161 0.69801 0.0
S2608 S 1.00975 0.60252 0.72167 0.0
N2609 N 0.98424 0.5855 0.74159 0.0
N2610 N 0.02096 0.57156 0.70035 0.0
C2611 C 1.00351 0.54551 0.7088 0.0
C2612 C 0.98381 0.553 0.73097 0.0
C2613 C 0.3187 0.21599 0.40131 0.0
C2614 C 0.31452 0.23823 0.42924 0.0
C2615 C 0.32251 0.22545 0.37137 0.0
C2616 C 0.32266 0.25779 0.36766 0.0
H2617 H 0.31888 0.19077 0.40244 0.0
H2618 H 0.32541 0.20717 0.35089 0.0
S2619 S 0.31047 0.32513 0.43222 0.0
N2620 N 0.30982 0.29403 0.45042 0.0
N2621 N 0.31615 0.31148 0.39455 0.0
C2622 C 0.31816 0.28019 0.39527 0.0
C2623 C 0.31434 0.27055 0.4258 0.0
C2624 C 0.35788 0.55416 0.53911 0.0
C2625 C 0.36022 0.58714 0.53728 0.0
C2626 C 0.37781 0.537 0.52605 0.0
C2627 C 0.40012 0.55244 0.51054 0.0
H2628 H 0.33999 0.54132 0.54962 0.0
H2629 H 0.3751 0.5112 0.52682 0.0
S2630 S 0.41518 0.63838 0.49916 0.0
N2631 N 0.38642 0.63484 0.51903 0.0
N2632 N 0.42414 0.60235 0.49458 0.0
C2633 C 0.40341 0.58581 0.50968 0.0
C2634 C 0.38323 0.6033 0.52302 0.0
C2635 C 0.94205 0.98285 0.54162 0.0
C2636 C 0.93842 0.95137 0.5492 0.0
C2637 C 0.96981 1.00236 0.5399 0.0
C2638 C 0.99539 0.9914 0.5457 0.0
H2639 H 0.92322 0.99231 0.53626 0.0
H2640 H 0.97111 0.02587 0.53312 0.0
S2641 S 0.99808 0.91245 0.57008 0.0
N2642 N 0.96313 0.91138 0.56478 0.0
N2643 N 0.01485 0.94769 0.56197 0.0
C2644 C 0.992 0.96042 0.55435 0.0
C2645 C 0.96376 0.94059 0.55601 0.0
C2646 C 0.90667 0.17774 0.25466 0.0
C2647 C 0.90673 0.16146 0.28121 0.0
C2648 C 0.89381 0.20601 0.25337 0.0
C2649 C 0.87689 0.22021 0.27683 0.0
H2650 H 0.91799 0.16939 0.23455 0.0
H2651 H 0.89781 0.21749 0.23301 0.0
S2652 S 0.87301 0.19209 0.35508 0.0
N2653 N 0.8905 0.16653 0.33465 0.0
N2654 N 0.86591 0.21656 0.33117 0.0
C2655 C 0.87744 0.20487 0.30423 0.0
C2656 C 0.89178 0.17673 0.30634 0.0
C2657 C 0.69592 0.14025 0.04655 0.0
C2658 C 0.71111 0.11492 0.04343 0.0
C2659 C 0.66566 0.13306 0.04394 0.0
C2660 C 0.64952 0.10034 0.03807 0.0
H2661 H 0.70742 0.16583 0.05011 0.0
H2662 H 0.65477 0.15321 0.04542 0.0
S2663 S 0.67921 0.02516 0.02923 0.0
N2664 N 0.70807 0.05607 0.03586 0.0
N2665 N 0.65115 0.04235 0.02983 0.0
C2666 C 0.66455 0.07485 0.03605 0.0
C2667 C 0.6954 0.08222 0.0391 0.0
C2668 C 0.25996 0.45429 0.25289 0.0
C2669 C 0.27144 0.48098 0.23894 0.0
C2670 C 0.27805 0.4428 0.2729 0.0
C2671 C 0.30777 0.45723 0.2783 0.0
H2672 H 0.23673 0.44542 0.25211 0.0
H2673 H 0.26852 0.42504 0.28658 0.0
S2674 S 0.34908 0.51804 0.23752 0.0
N2675 N 0.31474 0.51462 0.22446 0.0
N2676 N 0.34888 0.49218 0.26199 0.0
C2677 C 0.31993 0.47923 0.25983 0.0
C2678 C 0.30158 0.49109 0.2396 0.0
C2679 C 0.28437 0.46519 0.03919 0.0
C2680 C 0.28049 0.43094 0.03724 0.0
C2681 C 0.2611 0.4788 0.0308 0.0
C2682 C 0.23322 0.45861 0.02034 0.0
H2683 H 0.30577 0.48141 0.0458 0.0
H2684 H 0.26522 0.50492 0.03093 0.0
S2685 S 0.21033 0.36886 0.01582 0.0
N2686 N 0.24557 0.378 0.0274 0.0
N2687 N 0.20211 0.40387 0.01189 0.0
C2688 C 0.2286 0.42494 0.02039 0.0
C2689 C 0.25217 0.41102 0.02878 0.0
C2690 C 0.88085 0.96267 0.30172 0.0
C2691 C 0.89798 0.97054 0.2768 0.0
C2692 C 0.86524 0.9295 0.30198 0.0
C2693 C 0.8657 0.90137 0.27747 0.0
H2694 H 0.87972 0.98239 0.32176 0.0
H2695 H 0.8532 0.92586 0.32217 0.0
S2696 S 0.90489 0.9072 0.20505 0.0
N2697 N 0.91239 0.94582 0.22577 0.0
N2698 N 0.88427 0.88528 0.22647 0.0
C2699 C 0.88239 0.90904 0.2523 0.0
C2700 C 0.89801 0.94268 0.2519 0.0
C2701 C 0.76631 0.16998 0.7464 0.0
C2702 C 0.78673 0.15042 0.74686 0.0
C2703 C 0.77283 0.20257 0.76369 0.0
C2704 C 0.80023 0.21684 0.78098 0.0
H2705 H 0.74467 0.15968 0.7337 0.0
H2706 H 0.75641 0.21681 0.76333 0.0
S2707 S 0.85984 0.17537 0.79326 0.0
N2708 N 0.83425 0.14663 0.76882 0.0
N2709 N 0.84691 0.20894 0.80059 0.0
C2710 C 0.82045 0.19748 0.78285 0.0
C2711 C 0.81367 0.16399 0.76564 0.0
loop_
_geom_bond_atom_site_label_1
_geom_bond_atom_site_label_2
_geom_bond_distance
_geom_bond_site_symmetry_2
_ccdc_geom_bond_type
In0 O1 2.294 . S
In0 O2 2.326 . S
In0 O6 2.266 . S
In0 O7 2.326 . S
In0 O8 2.266 . S
In0 O9 2.326 . S
In0 O11 2.294 . S
In0 O12 2.326 . S
O1 In0 2.294 . S
O1 C10 1.240 . S
O2 In0 2.326 . S
O2 C10 1.252 . S
C3 O6 1.252 . S
C3 O7 1.260 . S
C4 O11 1.240 . S
C4 O12 1.252 . S
C5 O8 1.252 . S
C5 O9 1.260 . S
O6 In0 2.266 . S
O6 C3 1.252 . S
O7 In0 2.326 . S
O7 C3 1.260 . S
O8 In0 2.266 . S
O8 C5 1.252 . S
O9 In0 2.326 . S
O9 C5 1.260 . S
C10 O1 1.240 . S
C10 O2 1.252 . S
O11 In0 2.294 . S
O11 C4 1.240 . S
O12 In0 2.326 . S
O12 C4 1.252 . S
In13 O14 2.294 . S
In13 O15 2.326 . S
In13 O19 2.266 1_455 S
In13 O20 2.326 1_455 S
In13 O21 2.264 1_455 S
In13 O22 2.322 1_455 S
In13 O24 2.296 . S
In13 O25 2.330 . S
O14 In13 2.294 . S
O14 C23 1.240 . S
O15 In13 2.326 . S
O15 C23 1.252 . S
C16 O19 1.252 . S
C16 O20 1.260 . S
C17 O24 1.240 . S
C17 O25 1.252 . S
C18 O21 1.252 . S
C18 O22 1.260 . S
O19 In13 2.266 1_655 S
O19 C16 1.252 . S
O20 In13 2.326 1_655 S
O20 C16 1.260 . S
O21 In13 2.264 1_655 S
O21 C18 1.252 . S
O22 In13 2.322 1_655 S
O22 C18 1.260 . S
C23 O14 1.240 . S
C23 O15 1.252 . S
O24 In13 2.296 . S
O24 C17 1.240 . S
O25 In13 2.330 . S
O25 C17 1.252 . S
In26 O27 2.294 . S
In26 O28 2.326 . S
In26 O32 2.266 . S
In26 O33 2.326 . S
In26 O34 2.266 . S
In26 O35 2.326 . S
In26 O37 2.294 . S
In26 O38 2.326 . S
O27 In26 2.294 . S
O27 C36 1.240 . S
O28 In26 2.326 . S
O28 C36 1.252 . S
C29 O32 1.252 . S
C29 O33 1.260 . S
C30 O37 1.240 . S
C30 O38 1.252 . S
C31 O34 1.252 . S
C31 O35 1.260 . S
O32 In26 2.266 . S
O32 C29 1.252 . S
O33 In26 2.326 . S
O33 C29 1.260 . S
O34 In26 2.266 . S
O34 C31 1.252 . S
O35 In26 2.326 . S
O35 C31 1.260 . S
C36 O27 1.240 . S
C36 O28 1.252 . S
O37 In26 2.294 . S
O37 C30 1.240 . S
O38 In26 2.326 . S
O38 C30 1.252 . S
In39 O40 2.294 . S
In39 O41 2.326 . S
In39 O45 2.266 . S
In39 O46 2.326 . S
In39 O47 2.266 . S
In39 O48 2.326 . S
In39 O50 2.294 . S
In39 O51 2.326 . S
O40 In39 2.294 . S
O40 C49 1.240 . S
O41 In39 2.326 . S
O41 C49 1.252 . S
C42 O45 1.252 . S
C42 O46 1.260 . S
C43 O50 1.240 . S
C43 O51 1.252 . S
C44 O47 1.252 . S
C44 O48 1.260 . S
O45 In39 2.266 . S
O45 C42 1.252 . S
O46 In39 2.326 . S
O46 C42 1.260 . S
O47 In39 2.266 . S
O47 C44 1.252 . S
O48 In39 2.326 . S
O48 C44 1.260 . S
C49 O40 1.240 . S
C49 O41 1.252 . S
O50 In39 2.294 . S
O50 C43 1.240 . S
O51 In39 2.326 . S
O51 C43 1.252 . S
In52 O53 2.294 . S
In52 O54 2.326 . S
In52 O58 2.266 . S
In52 O59 2.326 . S
In52 O60 2.266 . S
In52 O61 2.326 . S
In52 O63 2.294 . S
In52 O64 2.326 . S
O53 In52 2.294 . S
O53 C62 1.240 . S
O54 In52 2.326 . S
O54 C62 1.252 . S
C55 O58 1.252 . S
C55 O59 1.260 . S
C56 O63 1.240 . S
C56 O64 1.252 . S
C57 O60 1.252 . S
C57 O61 1.260 . S
O58 In52 2.266 . S
O58 C55 1.252 . S
O59 In52 2.326 . S
O59 C55 1.260 . S
O60 In52 2.266 . S
O60 C57 1.252 . S
O61 In52 2.326 . S
O61 C57 1.260 . S
C62 O53 1.240 . S
C62 O54 1.252 . S
O63 In52 2.294 . S
O63 C56 1.240 . S
O64 In52 2.326 . S
O64 C56 1.252 . S
In65 O66 2.294 . S
In65 O67 2.326 . S
In65 O71 2.266 . S
In65 O72 2.326 . S
In65 O73 2.266 . S
In65 O74 2.326 . S
In65 O76 2.294 . S
In65 O77 2.326 . S
O66 In65 2.294 . S
O66 C75 1.240 . S
O67 In65 2.326 . S
O67 C75 1.252 . S
C68 O71 1.252 . S
C68 O72 1.260 . S
C69 O76 1.240 . S
C69 O77 1.252 . S
C70 O73 1.252 . S
C70 O74 1.260 . S
O71 In65 2.266 . S
O71 C68 1.252 . S
O72 In65 2.326 . S
O72 C68 1.260 . S
O73 In65 2.266 . S
O73 C70 1.252 . S
O74 In65 2.326 . S
O74 C70 1.260 . S
C75 O66 1.240 . S
C75 O67 1.252 . S
O76 In65 2.294 . S
O76 C69 1.240 . S
O77 In65 2.326 . S
O77 C69 1.252 . S
In78 O79 2.294 . S
In78 O80 2.326 . S
In78 O84 2.266 . S
In78 O85 2.326 . S
In78 O86 2.266 . S
In78 O87 2.326 . S
In78 O89 2.294 . S
In78 O90 2.326 . S
O79 In78 2.294 . S
O79 C88 1.240 . S
O80 In78 2.326 . S
O80 C88 1.252 . S
C81 O84 1.252 . S
C81 O85 1.260 . S
C82 O89 1.240 . S
C82 O90 1.252 . S
C83 O86 1.252 . S
C83 O87 1.260 . S
O84 In78 2.266 . S
O84 C81 1.252 . S
O85 In78 2.326 . S
O85 C81 1.260 . S
O86 In78 2.266 . S
O86 C83 1.252 . S
O87 In78 2.326 . S
O87 C83 1.260 . S
C88 O79 1.240 . S
C88 O80 1.252 . S
O89 In78 2.294 . S
O89 C82 1.240 . S
O90 In78 2.326 . S
O90 C82 1.252 . S
In91 O92 2.294 . S
In91 O93 2.326 . S
In91 O97 2.266 . S
In91 O98 2.326 . S
In91 O99 2.266 1_455 S
In91 O100 2.326 1_455 S
In91 O102 2.294 . S
In91 O103 2.326 . S
O92 In91 2.294 . S
O92 C101 1.240 . S
O93 In91 2.326 . S
O93 C101 1.252 . S
C94 O97 1.252 . S
C94 O98 1.260 . S
C95 O102 1.240 . S
C95 O103 1.252 . S
C96 O99 1.252 . S
C96 O100 1.260 . S
O97 In91 2.266 . S
O97 C94 1.252 . S
O98 In91 2.326 . S
O98 C94 1.260 . S
O99 In91 2.266 1_655 S
O99 C96 1.252 . S
O100 In91 2.326 1_655 S
O100 C96 1.260 . S
C101 O92 1.240 . S
C101 O93 1.252 . S
O102 In91 2.294 . S
O102 C95 1.240 . S
O103 In91 2.326 . S
O103 C95 1.252 . S
In104 O105 2.294 . S
In104 O106 2.326 1_545 S
In104 O110 2.266 . S
In104 O111 2.326 . S
In104 O112 2.266 1_545 S
In104 O113 2.326 1_545 S
In104 O115 2.294 . S
In104 O116 2.326 . S
O105 In104 2.294 . S
O105 C114 1.240 . S
O106 In104 2.326 1_565 S
O106 C114 1.252 1_565 S
C107 O110 1.252 . S
C107 O111 1.260 . S
C108 O115 1.240 . S
C108 O116 1.252 . S
C109 O112 1.252 . S
C109 O113 1.260 . S
O110 In104 2.266 . S
O110 C107 1.252 . S
O111 In104 2.326 . S
O111 C107 1.260 . S
O112 In104 2.266 1_565 S
O112 C109 1.252 . S
O113 In104 2.326 1_565 S
O113 C109 1.260 . S
C114 O105 1.240 . S
C114 O106 1.252 1_545 S
O115 In104 2.294 . S
O115 C108 1.240 . S
O116 In104 2.326 . S
O116 C108 1.252 . S
In117 O118 2.294 . S
In117 O119 2.326 . S
In117 O123 2.266 . S
In117 O124 2.326 . S
In117 O125 2.266 . S
In117 O126 2.326 . S
In117 O128 2.294 . S
In117 O129 2.326 . S
O118 In117 2.294 . S
O118 C127 1.240 . S
O119 In117 2.326 . S
O119 C127 1.252 . S
C120 O123 1.252 . S
C120 O124 1.260 . S
C121 O128 1.240 . S
C121 O129 1.252 . S
C122 O125 1.252 . S
C122 O126 1.260 . S
O123 In117 2.266 . S
O123 C120 1.252 . S
O124 In117 2.326 . S
O124 C120 1.260 . S
O125 In117 2.266 . S
O125 C122 1.252 . S
O126 In117 2.326 . S
O126 C122 1.260 . S
C127 O118 1.240 . S
C127 O119 1.252 . S
O128 In117 2.294 . S
O128 C121 1.240 . S
O129 In117 2.326 . S
O129 C121 1.252 . S
In130 O131 2.294 1_545 S
In130 O132 2.326 1_545 S
In130 O136 2.266 . S
In130 O137 2.326 . S
In130 O138 2.266 . S
In130 O139 2.326 . S
In130 O141 2.294 1_545 S
In130 O142 2.326 1_545 S
O131 In130 2.294 1_565 S
O131 C140 1.240 . S
O132 In130 2.326 1_565 S
O132 C140 1.252 . S
C133 O136 1.252 . S
C133 O137 1.260 . S
C134 O141 1.240 . S
C134 O142 1.252 . S
C135 O138 1.252 . S
C135 O139 1.260 . S
O136 In130 2.266 . S
O136 C133 1.252 . S
O137 In130 2.326 . S
O137 C133 1.260 . S
O138 In130 2.266 . S
O138 C135 1.252 . S
O139 In130 2.326 . S
O139 C135 1.260 . S
C140 O131 1.240 . S
C140 O132 1.252 . S
O141 In130 2.294 1_565 S
O141 C134 1.240 . S
O142 In130 2.326 1_565 S
O142 C134 1.252 . S
In143 O144 2.294 . S
In143 O145 2.326 . S
In143 O149 2.266 1_554 S
In143 O150 2.326 1_554 S
In143 O151 2.266 . S
In143 O152 2.326 . S
In143 O154 2.294 . S
In143 O155 2.326 . S
O144 In143 2.294 . S
O144 C153 1.240 . S
O145 In143 2.326 . S
O145 C153 1.252 . S
C146 O149 1.252 . S
C146 O150 1.260 . S
C147 O154 1.240 . S
C147 O155 1.252 . S
C148 O151 1.252 . S
C148 O152 1.260 . S
O149 In143 2.266 1_556 S
O149 C146 1.252 . S
O150 In143 2.326 1_556 S
O150 C146 1.260 . S
O151 In143 2.266 . S
O151 C148 1.252 . S
O152 In143 2.326 . S
O152 C148 1.260 . S
C153 O144 1.240 . S
C153 O145 1.252 . S
O154 In143 2.294 . S
O154 C147 1.240 . S
O155 In143 2.326 . S
O155 C147 1.252 . S
In156 O157 2.294 . S
In156 O158 2.326 . S
In156 O162 2.266 1_554 S
In156 O163 2.326 1_554 S
In156 O164 2.266 . S
In156 O165 2.326 . S
In156 O167 2.294 . S
In156 O168 2.326 . S
O157 In156 2.294 . S
O157 C166 1.240 . S
O158 In156 2.326 . S
O158 C166 1.252 . S
C159 O162 1.252 . S
C159 O163 1.260 . S
C160 O167 1.240 . S
C160 O168 1.252 . S
C161 O164 1.252 . S
C161 O165 1.260 . S
O162 In156 2.266 1_556 S
O162 C159 1.252 . S
O163 In156 2.326 1_556 S
O163 C159 1.260 . S
O164 In156 2.266 . S
O164 C161 1.252 . S
O165 In156 2.326 . S
O165 C161 1.260 . S
C166 O157 1.240 . S
C166 O158 1.252 . S
O167 In156 2.294 . S
O167 C160 1.240 . S
O168 In156 2.326 . S
O168 C160 1.252 . S
In169 O170 2.294 . S
In169 O171 2.326 . S
In169 O175 2.266 . S
In169 O176 2.326 . S
In169 O177 2.266 . S
In169 O178 2.326 1_554 S
In169 O180 2.294 . S
In169 O181 2.326 . S
O170 In169 2.294 . S
O170 C179 1.240 . S
O171 In169 2.326 . S
O171 C179 1.252 . S
C172 O175 1.252 . S
C172 O176 1.260 . S
C173 O180 1.240 . S
C173 O181 1.252 . S
C174 O177 1.252 1_556 S
C174 O178 1.260 . S
O175 In169 2.266 . S
O175 C172 1.252 . S
O176 In169 2.326 . S
O176 C172 1.260 . S
O177 In169 2.266 . S
O177 C174 1.252 1_554 S
O178 In169 2.326 1_556 S
O178 C174 1.260 . S
C179 O170 1.240 . S
C179 O171 1.252 . S
O180 In169 2.294 . S
O180 C173 1.240 . S
O181 In169 2.326 . S
O181 C173 1.252 . S
In182 O183 2.294 . S
In182 O184 2.326 . S
In182 O188 2.266 . S
In182 O189 2.326 . S
In182 O190 2.266 . S
In182 O191 2.326 . S
In182 O193 2.294 . S
In182 O194 2.326 . S
O183 In182 2.294 . S
O183 C192 1.240 . S
O184 In182 2.326 . S
O184 C192 1.252 . S
C185 O188 1.252 . S
C185 O189 1.260 . S
C186 O193 1.240 . S
C186 O194 1.252 . S
C187 O190 1.252 . S
C187 O191 1.260 . S
O188 In182 2.266 . S
O188 C185 1.252 . S
O189 In182 2.326 . S
O189 C185 1.260 . S
O190 In182 2.266 . S
O190 C187 1.252 . S
O191 In182 2.326 . S
O191 C187 1.260 . S
C192 O183 1.240 . S
C192 O184 1.252 . S
O193 In182 2.294 . S
O193 C186 1.240 . S
O194 In182 2.326 . S
O194 C186 1.252 . S
In195 O196 2.294 . S
In195 O197 2.326 . S
In195 O201 2.266 . S
In195 O202 2.326 . S
In195 O203 2.266 . S
In195 O204 2.326 . S
In195 O206 2.294 . S
In195 O207 2.326 . S
O196 In195 2.294 . S
O196 C205 1.240 . S
O197 In195 2.326 . S
O197 C205 1.252 . S
C198 O201 1.252 . S
C198 O202 1.260 . S
C199 O206 1.240 . S
C199 O207 1.252 . S
C200 O203 1.252 . S
C200 O204 1.260 . S
O201 In195 2.266 . S
O201 C198 1.252 . S
O202 In195 2.326 . S
O202 C198 1.260 . S
O203 In195 2.266 . S
O203 C200 1.252 . S
O204 In195 2.326 . S
O204 C200 1.260 . S
C205 O196 1.240 . S
C205 O197 1.252 . S
O206 In195 2.294 . S
O206 C199 1.240 . S
O207 In195 2.326 . S
O207 C199 1.252 . S
In208 O209 2.294 . S
In208 O210 2.326 . S
In208 O214 2.266 . S
In208 O215 2.326 . S
In208 O216 2.266 . S
In208 O217 2.326 . S
In208 O219 2.294 . S
In208 O220 2.326 . S
O209 In208 2.294 . S
O209 C218 1.240 . S
O210 In208 2.326 . S
O210 C218 1.252 . S
C211 O214 1.252 . S
C211 O215 1.260 . S
C212 O219 1.240 . S
C212 O220 1.252 . S
C213 O216 1.252 . S
C213 O217 1.260 . S
O214 In208 2.266 . S
O214 C211 1.252 . S
O215 In208 2.326 . S
O215 C211 1.260 . S
O216 In208 2.266 . S
O216 C213 1.252 . S
O217 In208 2.326 . S
O217 C213 1.260 . S
C218 O209 1.240 . S
C218 O210 1.252 . S
O219 In208 2.294 . S
O219 C212 1.240 . S
O220 In208 2.326 . S
O220 C212 1.252 . S
In221 O222 2.294 . S
In221 O223 2.326 . S
In221 O227 2.266 . S
In221 O228 2.326 . S
In221 O229 2.266 . S
In221 O230 2.326 . S
In221 O232 2.294 . S
In221 O233 2.326 . S
O222 In221 2.294 . S
O222 C231 1.240 . S
O223 In221 2.326 . S
O223 C231 1.252 . S
C224 O227 1.252 . S
C224 O228 1.260 . S
C225 O232 1.240 . S
C225 O233 1.252 . S
C226 O229 1.252 . S
C226 O230 1.260 . S
O227 In221 2.266 . S
O227 C224 1.252 . S
O228 In221 2.326 . S
O228 C224 1.260 . S
O229 In221 2.266 . S
O229 C226 1.252 . S
O230 In221 2.326 . S
O230 C226 1.260 . S
C231 O222 1.240 . S
C231 O223 1.252 . S
O232 In221 2.294 . S
O232 C225 1.240 . S
O233 In221 2.326 . S
O233 C225 1.252 . S
In234 O235 2.294 . S
In234 O236 2.326 . S
In234 O240 2.266 . S
In234 O241 2.326 . S
In234 O242 2.266 . S
In234 O243 2.326 . S
In234 O245 2.294 . S
In234 O246 2.326 . S
O235 In234 2.294 . S
O235 C244 1.240 . S
O236 In234 2.326 . S
O236 C244 1.252 . S
C237 O240 1.252 . S
C237 O241 1.260 . S
C238 O245 1.240 . S
C238 O246 1.252 . S
C239 O242 1.252 . S
C239 O243 1.260 . S
O240 In234 2.266 . S
O240 C237 1.252 . S
O241 In234 2.326 . S
O241 C237 1.260 . S
O242 In234 2.266 . S
O242 C239 1.252 . S
O243 In234 2.326 . S
O243 C239 1.260 . S
C244 O235 1.240 . S
C244 O236 1.252 . S
O245 In234 2.294 . S
O245 C238 1.240 . S
O246 In234 2.326 . S
O246 C238 1.252 . S
In247 O248 2.294 . S
In247 O249 2.326 . S
In247 O253 2.266 . S
In247 O254 2.326 . S
In247 O255 2.266 . S
In247 O256 2.326 . S
In247 O258 2.294 . S
In247 O259 2.326 . S
O248 In247 2.294 . S
O248 C257 1.240 . S
O249 In247 2.326 . S
O249 C257 1.252 . S
C250 O253 1.252 . S
C250 O254 1.260 . S
C251 O258 1.240 . S
C251 O259 1.252 . S
C252 O255 1.252 . S
C252 O256 1.260 . S
O253 In247 2.266 . S
O253 C250 1.252 . S
O254 In247 2.326 . S
O254 C250 1.260 . S
O255 In247 2.266 . S
O255 C252 1.252 . S
O256 In247 2.326 . S
O256 C252 1.260 . S
C257 O248 1.240 . S
C257 O249 1.252 . S
O258 In247 2.294 . S
O258 C251 1.240 . S
O259 In247 2.326 . S
O259 C251 1.252 . S
In260 O261 2.300 . S
In260 O262 2.328 . S
In260 O266 2.265 1_554 S
In260 O267 2.325 1_554 S
In260 O268 2.240 1_554 S
In260 O269 2.289 1_554 S
In260 O271 2.315 . S
In260 O272 2.363 . S
O261 In260 2.300 . S
O261 C270 1.240 . S
O262 In260 2.328 . S
O262 C270 1.252 . S
C263 O266 1.252 . S
C263 O267 1.260 . S
C264 O271 1.240 . S
C264 O272 1.252 . S
C265 O268 1.252 . S
C265 O269 1.260 . S
O266 In260 2.265 1_556 S
O266 C263 1.252 . S
O267 In260 2.325 1_556 S
O267 C263 1.260 . S
O268 In260 2.240 1_556 S
O268 C265 1.252 . S
O269 In260 2.289 1_556 S
O269 C265 1.260 . S
C270 O261 1.240 . S
C270 O262 1.252 . S
O271 In260 2.315 . S
O271 C264 1.240 . S
O272 In260 2.363 . S
O272 C264 1.252 . S
In273 O274 2.294 . S
In273 O275 2.326 . S
In273 O279 2.266 . S
In273 O280 2.326 . S
In273 O281 2.266 . S
In273 O282 2.326 . S
In273 O284 2.294 . S
In273 O285 2.326 . S
O274 In273 2.294 . S
O274 C283 1.240 . S
O275 In273 2.326 . S
O275 C283 1.252 . S
C276 O279 1.252 . S
C276 O280 1.260 . S
C277 O284 1.240 . S
C277 O285 1.252 . S
C278 O281 1.252 . S
C278 O282 1.260 . S
O279 In273 2.266 . S
O279 C276 1.252 . S
O280 In273 2.326 . S
O280 C276 1.260 . S
O281 In273 2.266 . S
O281 C278 1.252 . S
O282 In273 2.326 . S
O282 C278 1.260 . S
C283 O274 1.240 . S
C283 O275 1.252 . S
O284 In273 2.294 . S
O284 C277 1.240 . S
O285 In273 2.326 . S
O285 C277 1.252 . S
In286 O287 2.294 . S
In286 O288 2.326 . S
In286 O292 2.266 . S
In286 O293 2.326 . S
In286 O294 2.266 . S
In286 O295 2.326 . S
In286 O297 2.294 . S
In286 O298 2.326 . S
O287 In286 2.294 . S
O287 C296 1.240 . S
O288 In286 2.326 . S
O288 C296 1.252 . S
C289 O292 1.252 . S
C289 O293 1.260 . S
C290 O297 1.240 . S
C290 O298 1.252 . S
C291 O294 1.252 . S
C291 O295 1.260 . S
O292 In286 2.266 . S
O292 C289 1.252 . S
O293 In286 2.326 . S
O293 C289 1.260 . S
O294 In286 2.266 . S
O294 C291 1.252 . S
O295 In286 2.326 . S
O295 C291 1.260 . S
C296 O287 1.240 . S
C296 O288 1.252 . S
O297 In286 2.294 . S
O297 C290 1.240 . S
O298 In286 2.326 . S
O298 C290 1.252 . S
In299 O300 2.294 . S
In299 O301 2.326 . S
In299 O305 2.266 . S
In299 O306 2.326 . S
In299 O307 2.266 . S
In299 O308 2.326 . S
In299 O310 2.294 . S
In299 O311 2.326 . S
O300 In299 2.294 . S
O300 C309 1.240 . S
O301 In299 2.326 . S
O301 C309 1.252 . S
C302 O305 1.252 . S
C302 O306 1.260 . S
C303 O310 1.240 . S
C303 O311 1.252 . S
C304 O307 1.252 . S
C304 O308 1.260 . S
O305 In299 2.266 . S
O305 C302 1.252 . S
O306 In299 2.326 . S
O306 C302 1.260 . S
O307 In299 2.266 . S
O307 C304 1.252 . S
O308 In299 2.326 . S
O308 C304 1.260 . S
C309 O300 1.240 . S
C309 O301 1.252 . S
O310 In299 2.294 . S
O310 C303 1.240 . S
O311 In299 2.326 . S
O311 C303 1.252 . S
Gd312 N343 2.661 . S
Gd312 N349 2.601 . S
Gd312 O356 2.545 . S
Gd312 O357 2.606 . S
Gd312 O359 2.429 . S
Gd312 O360 2.545 . S
Gd312 O361 2.412 . S
Gd312 O363 2.362 . S
Gd312 O364 2.301 1_554 S
Gd312 C371 2.828 . S
Gd313 N322 2.661 1_545 S
Gd313 N326 2.601 1_544 S
Gd313 O357 2.362 . S
Gd313 O358 2.324 . S
Gd313 O362 2.545 1_454 S
Gd313 O363 2.606 . S
Gd313 O365 2.429 1_554 S
Gd313 O366 2.545 . S
Gd313 O367 2.412 1_455 S
Gd313 C380 2.828 1_454 S
C314 C317 1.417 1_655 S
C314 C319 1.431 . S
C314 C320 1.412 . S
C315 C318 1.437 . S
C315 C319 1.317 1_556 S
C315 H334 0.929 . S
C316 C317 1.426 1_556 S
C316 C318 1.413 1_455 S
C316 N326 1.359 . S
C317 C314 1.417 1_455 S
C317 C316 1.426 1_554 S
C317 N322 1.350 . S
C318 C315 1.437 . S
C318 C316 1.413 1_655 S
C318 C328 1.391 . S
C319 C314 1.431 . S
C319 C315 1.317 1_554 S
C319 H330 0.930 . S
C320 C314 1.412 . S
C320 C321 1.355 1_655 S
C320 H332 0.930 . S
C321 C320 1.355 1_455 S
C321 C323 1.402 . S
C321 H333 0.930 . S
N322 Gd313 2.661 1_565 S
N322 C317 1.350 . S
N322 C323 1.307 . S
C323 C321 1.402 . S
C323 N322 1.307 . S
C323 H324 0.930 . S
H324 C323 0.930 . S
C325 N326 1.334 . S
C325 C327 1.394 . S
C325 H329 0.930 . S
N326 Gd313 2.601 1_566 S
N326 C316 1.359 . S
N326 C325 1.334 . S
C327 C325 1.394 . S
C327 C328 1.359 1_455 S
C327 H339 0.930 1_455 S
C328 C318 1.391 . S
C328 C327 1.359 1_655 S
C328 H340 0.929 . S
H329 C325 0.930 . S
H330 C319 0.930 . S
H331 C348 0.930 1_556 S
H332 C320 0.930 . S
H333 C321 0.930 . S
H334 C315 0.929 . S
H335 C353 0.930 . S
H336 C344 0.951 . S
H337 C345 0.930 . S
H338 C369 0.929 . S
H339 C327 0.930 1_655 S
H340 C328 0.929 . S
H341 C370 0.930 . S
H342 C351 0.930 . S
N343 Gd312 2.661 . S
N343 C347 1.350 . S
N343 C348 1.307 . S
C344 H336 0.951 . S
C344 C345 1.355 1_554 S
C344 C346 1.412 . S
C345 H337 0.930 . S
C345 C344 1.355 1_556 S
C345 C348 1.402 1_556 S
C346 C344 1.412 . S
C346 C347 1.417 . S
C346 C370 1.431 . S
C347 N343 1.350 . S
C347 C346 1.417 . S
C347 C350 1.426 . S
C348 H331 0.930 1_554 S
C348 N343 1.307 . S
C348 C345 1.402 1_554 S
N349 Gd312 2.601 . S
N349 C350 1.359 . S
N349 C353 1.334 . S
C350 C347 1.426 . S
C350 N349 1.359 . S
C350 C354 1.413 . S
C351 H342 0.930 . S
C351 C352 1.359 . S
C351 C353 1.394 . S
C352 C351 1.359 . S
C352 C354 1.391 . S
C352 H355 0.929 . S
C353 H335 0.930 . S
C353 N349 1.334 . S
C353 C351 1.394 . S
C354 C350 1.413 . S
C354 C352 1.391 . S
C354 C369 1.437 . S
H355 C352 0.929 . S
O356 Gd312 2.545 . S
O356 C371 1.258 . S
O357 Gd312 2.606 . S
O357 Gd313 2.362 . S
O357 C368 1.284 1_545 S
O358 Gd313 2.324 . S
O358 C378 1.254 . S
O359 Gd312 2.429 . S
O359 C378 1.268 . S
O360 Gd312 2.545 . S
O360 C368 1.250 1_545 S
O361 Gd312 2.412 . S
O361 C371 1.252 . S
O362 Gd313 2.545 1_656 S
O362 C380 1.258 . S
O363 Gd312 2.362 . S
O363 Gd313 2.606 . S
O363 C379 1.284 . S
O364 Gd312 2.301 1_556 S
O364 C387 1.269 . S
O365 Gd313 2.429 1_556 S
O365 C387 1.268 . S
O366 Gd313 2.545 . S
O366 C379 1.250 . S
O367 Gd313 2.412 1_655 S
O367 C380 1.252 1_554 S
C368 O357 1.284 1_565 S
C368 O360 1.250 1_565 S
C369 H338 0.929 . S
C369 C354 1.437 . S
C369 C370 1.317 . S
C370 H341 0.930 . S
C370 C346 1.431 . S
C370 C369 1.317 . S
C371 Gd312 2.828 . S
C371 O356 1.258 . S
C371 O361 1.252 . S
C371 C372 1.497 . S
C372 C371 1.497 . S
C372 C373 1.395 . S
C372 C374 1.380 . S
C373 C372 1.395 . S
C373 C376 1.398 . S
C373 H388 0.930 . S
C374 C372 1.380 . S
C374 C375 1.391 . S
C374 H389 0.930 . S
C375 C374 1.391 . S
C375 C377 1.387 . S
C376 C373 1.398 . S
C376 C377 1.380 . S
C376 H390 0.930 . S
C377 C375 1.387 . S
C377 C376 1.380 . S
C377 H391 0.930 . S
C378 O358 1.254 . S
C378 O359 1.268 . S
C379 O363 1.284 . S
C379 O366 1.250 . S
C380 Gd313 2.828 1_656 S
C380 O362 1.258 . S
C380 O367 1.252 1_556 S
C380 C381 1.497 . S
C381 C380 1.497 . S
C381 C382 1.395 . S
C381 C383 1.380 1_556 S
C382 C381 1.395 . S
C382 C385 1.398 . S
C382 H392 0.930 . S
C383 C381 1.380 1_554 S
C383 C384 1.391 . S
C383 H393 0.930 . S
C384 C383 1.391 . S
C384 C386 1.387 1_554 S
C385 C382 1.398 . S
C385 C386 1.380 . S
C385 H394 0.930 . S
C386 C384 1.387 1_556 S
C386 C385 1.380 . S
C386 H395 0.930 . S
C387 O364 1.269 . S
C387 O365 1.268 . S
H388 C373 0.930 . S
H389 C374 0.930 . S
H390 C376 0.930 . S
H391 C377 0.930 . S
H392 C382 0.930 . S
H393 C383 0.930 . S
H394 C385 0.930 . S
H395 C386 0.930 . S
Gd396 N427 2.661 . S
Gd396 N433 2.601 . S
Gd396 O440 2.545 . S
Gd396 O441 2.606 . S
Gd396 O443 2.429 . S
Gd396 O444 2.545 . S
Gd396 O445 2.412 . S
Gd396 O447 2.362 . S
Gd396 O448 2.324 . S
Gd396 C455 2.828 . S
Gd397 N406 2.661 . S
Gd397 N410 2.601 . S
Gd397 O441 2.362 . S
Gd397 O442 2.324 . S
Gd397 O446 2.545 . S
Gd397 O447 2.606 . S
Gd397 O449 2.429 . S
Gd397 O450 2.545 . S
Gd397 O451 2.412 . S
Gd397 C464 2.828 . S
C398 C401 1.417 . S
C398 C403 1.431 . S
C398 C404 1.412 . S
C399 C402 1.437 . S
C399 C403 1.317 . S
C399 H418 0.929 . S
C400 C401 1.426 . S
C400 C402 1.413 . S
C400 N410 1.359 . S
C401 C398 1.417 . S
C401 C400 1.426 . S
C401 N406 1.350 . S
C402 C399 1.437 . S
C402 C400 1.413 . S
C402 C412 1.391 . S
C403 C398 1.431 . S
C403 C399 1.317 . S
C403 H414 0.930 . S
C404 C398 1.412 . S
C404 C405 1.355 . S
C404 H416 0.930 . S
C405 C404 1.355 . S
C405 C407 1.402 . S
C405 H417 0.930 . S
N406 Gd397 2.661 . S
N406 C401 1.350 . S
N406 C407 1.307 . S
C407 C405 1.402 . S
C407 N406 1.307 . S
C407 H408 0.930 . S
H408 C407 0.930 . S
C409 N410 1.334 . S
C409 C411 1.394 . S
C409 H413 0.930 . S
N410 Gd397 2.601 . S
N410 C400 1.359 . S
N410 C409 1.334 . S
C411 C409 1.394 . S
C411 C412 1.359 . S
C411 H423 0.930 . S
C412 C402 1.391 . S
C412 C411 1.359 . S
C412 H424 0.929 . S
H413 C409 0.930 . S
H414 C403 0.930 . S
H415 C432 0.930 . S
H416 C404 0.930 . S
H417 C405 0.930 . S
H418 C399 0.929 . S
H419 C437 0.930 . S
H420 C428 0.930 . S
H421 C429 0.930 . S
H422 C453 0.929 . S
H423 C411 0.930 . S
H424 C412 0.929 . S
H425 C454 0.930 . S
H426 C435 0.930 . S
N427 Gd396 2.661 . S
N427 C431 1.350 . S
N427 C432 1.307 . S
C428 H420 0.930 . S
C428 C429 1.355 . S
C428 C430 1.412 . S
C429 H421 0.930 . S
C429 C428 1.355 . S
C429 C432 1.402 . S
C430 C428 1.412 . S
C430 C431 1.417 . S
C430 C454 1.431 . S
C431 N427 1.350 . S
C431 C430 1.417 . S
C431 C434 1.426 . S
C432 H415 0.930 . S
C432 N427 1.307 . S
C432 C429 1.402 . S
N433 Gd396 2.601 . S
N433 C434 1.359 . S
N433 C437 1.334 . S
C434 C431 1.426 . S
C434 N433 1.359 . S
C434 C438 1.413 . S
C435 H426 0.930 . S
C435 C436 1.359 . S
C435 C437 1.394 . S
C436 C435 1.359 . S
C436 C438 1.391 . S
C436 H439 0.929 . S
C437 H419 0.930 . S
C437 N433 1.334 . S
C437 C435 1.394 . S
C438 C434 1.413 . S
C438 C436 1.391 . S
C438 C453 1.437 . S
H439 C436 0.929 . S
O440 Gd396 2.545 . S
O440 C455 1.258 . S
O441 Gd396 2.606 . S
O441 Gd397 2.362 . S
O441 C452 1.284 . S
O442 Gd397 2.324 . S
O442 C462 1.254 . S
O443 Gd396 2.429 . S
O443 C462 1.268 . S
O444 Gd396 2.545 . S
O444 C452 1.250 . S
O445 Gd396 2.412 . S
O445 C455 1.252 . S
O446 Gd397 2.545 . S
O446 C464 1.258 . S
O447 Gd396 2.362 . S
O447 Gd397 2.606 . S
O447 C463 1.284 . S
O448 Gd396 2.324 . S
O448 C471 1.254 . S
O449 Gd397 2.429 . S
O449 C471 1.268 . S
O450 Gd397 2.545 . S
O450 C463 1.250 . S
O451 Gd397 2.412 . S
O451 C464 1.252 . S
C452 O441 1.284 . S
C452 O444 1.250 . S
C453 H422 0.929 . S
C453 C438 1.437 . S
C453 C454 1.317 . S
C454 H425 0.930 . S
C454 C430 1.431 . S
C454 C453 1.317 . S
C455 Gd396 2.828 . S
C455 O440 1.258 . S
C455 O445 1.252 . S
C455 C456 1.497 . S
C456 C455 1.497 . S
C456 C457 1.395 . S
C456 C458 1.380 . S
C457 C456 1.395 . S
C457 C460 1.398 . S
C457 H472 0.930 . S
C458 C456 1.380 . S
C458 C459 1.391 . S
C458 H473 0.930 . S
C459 C458 1.391 . S
C459 C461 1.387 . S
C460 C457 1.398 . S
C460 C461 1.380 . S
C460 H474 0.930 . S
C461 C459 1.387 . S
C461 C460 1.380 . S
C461 H475 0.930 . S
C462 O442 1.254 . S
C462 O443 1.268 . S
C463 O447 1.284 . S
C463 O450 1.250 . S
C464 Gd397 2.828 . S
C464 O446 1.258 . S
C464 O451 1.252 . S
C464 C465 1.497 . S
C465 C464 1.497 . S
C465 C466 1.395 . S
C465 C467 1.380 . S
C466 C465 1.395 . S
C466 C469 1.398 . S
C466 H476 0.930 . S
C467 C465 1.380 . S
C467 C468 1.391 . S
C467 H477 0.930 . S
C468 C467 1.391 . S
C468 C470 1.387 . S
C469 C466 1.398 . S
C469 C470 1.380 . S
C469 H478 0.930 . S
C470 C468 1.387 . S
C470 C469 1.380 . S
C470 H479 0.930 . S
C471 O448 1.254 . S
C471 O449 1.268 . S
H472 C457 0.930 . S
H473 C458 0.930 . S
H474 C460 0.930 . S
H475 C461 0.930 . S
H476 C466 0.930 . S
H477 C467 0.930 . S
H478 C469 0.930 . S
H479 C470 0.930 . S
Gd480 N511 2.661 1_545 S
Gd480 N517 2.601 1_545 S
Gd480 O524 2.545 . S
Gd480 O525 2.606 . S
Gd480 O527 2.429 . S
Gd480 O528 2.545 . S
Gd480 O529 2.412 . S
Gd480 O531 2.362 1_545 S
Gd480 O532 2.324 . S
Gd480 C539 2.828 . S
Gd481 N490 2.661 . S
Gd481 N494 2.601 . S
Gd481 O525 2.362 . S
Gd481 O526 2.324 . S
Gd481 O530 2.545 1_545 S
Gd481 O531 2.606 1_545 S
Gd481 O533 2.429 . S
Gd481 O534 2.545 1_545 S
Gd481 O535 2.412 . S
Gd481 C548 2.811 1_545 S
C482 C485 1.417 . S
C482 C487 1.431 . S
C482 C488 1.412 . S
C483 C486 1.437 . S
C483 C487 1.317 . S
C483 H502 0.929 . S
C484 C485 1.426 . S
C484 C486 1.413 . S
C484 N494 1.359 . S
C485 C482 1.417 . S
C485 C484 1.426 . S
C485 N490 1.350 . S
C486 C483 1.437 . S
C486 C484 1.413 . S
C486 C496 1.391 . S
C487 C482 1.431 . S
C487 C483 1.317 . S
C487 H498 0.930 . S
C488 C482 1.412 . S
C488 C489 1.355 . S
C488 H500 0.930 . S
C489 C488 1.355 . S
C489 C491 1.402 . S
C489 H501 0.930 . S
N490 Gd481 2.661 . S
N490 C485 1.350 . S
N490 C491 1.307 . S
C491 C489 1.402 . S
C491 N490 1.307 . S
C491 H492 0.930 . S
H492 C491 0.930 . S
C493 N494 1.334 . S
C493 C495 1.394 . S
C493 H497 0.930 . S
N494 Gd481 2.601 . S
N494 C484 1.359 . S
N494 C493 1.334 . S
C495 C493 1.394 . S
C495 C496 1.359 . S
C495 H507 0.930 . S
C496 C486 1.391 . S
C496 C495 1.359 . S
C496 H508 0.929 . S
H497 C493 0.930 . S
H498 C487 0.930 . S
H499 C516 0.930 . S
H500 C488 0.930 . S
H501 C489 0.930 . S
H502 C483 0.929 . S
H503 C521 0.930 . S
H504 C512 0.930 . S
H505 C513 0.930 . S
H506 C537 0.929 . S
H507 C495 0.930 . S
H508 C496 0.929 . S
H509 C538 0.930 . S
H510 C519 0.930 . S
N511 Gd480 2.661 1_565 S
N511 C515 1.350 . S
N511 C516 1.307 . S
C512 H504 0.930 . S
C512 C513 1.355 . S
C512 C514 1.412 . S
C513 H505 0.930 . S
C513 C512 1.355 . S
C513 C516 1.402 . S
C514 C512 1.412 . S
C514 C515 1.417 . S
C514 C538 1.431 . S
C515 N511 1.350 . S
C515 C514 1.417 . S
C515 C518 1.426 . S
C516 H499 0.930 . S
C516 N511 1.307 . S
C516 C513 1.402 . S
N517 Gd480 2.601 1_565 S
N517 C518 1.359 . S
N517 C521 1.334 1_565 S
C518 C515 1.426 . S
C518 N517 1.359 . S
C518 C522 1.413 . S
C519 H510 0.930 . S
C519 C520 1.359 . S
C519 C521 1.394 1_565 S
C520 C519 1.359 . S
C520 C522 1.391 . S
C520 H523 0.929 . S
C521 H503 0.930 . S
C521 N517 1.334 1_545 S
C521 C519 1.394 1_545 S
C522 C518 1.413 . S
C522 C520 1.391 . S
C522 C537 1.437 . S
H523 C520 0.929 . S
O524 Gd480 2.545 . S
O524 C539 1.258 . S
O525 Gd480 2.606 . S
O525 Gd481 2.362 . S
O525 C536 1.284 . S
O526 Gd481 2.324 . S
O526 C546 1.254 . S
O527 Gd480 2.429 . S
O527 C546 1.268 . S
O528 Gd480 2.545 . S
O528 C536 1.250 . S
O529 Gd480 2.412 . S
O529 C539 1.252 . S
O530 Gd481 2.545 1_565 S
O530 C548 1.249 . S
O531 Gd480 2.362 1_565 S
O531 Gd481 2.606 1_565 S
O531 C547 1.284 . S
O532 Gd480 2.324 . S
O532 C555 1.254 . S
O533 Gd481 2.429 . S
O533 C555 1.268 . S
O534 Gd481 2.545 1_565 S
O534 C547 1.250 . S
O535 Gd481 2.412 . S
O535 C548 1.243 1_545 S
C536 O525 1.284 . S
C536 O528 1.250 . S
C537 H506 0.929 . S
C537 C522 1.437 . S
C537 C538 1.317 . S
C538 H509 0.930 . S
C538 C514 1.431 . S
C538 C537 1.317 . S
C539 Gd480 2.828 . S
C539 O524 1.258 . S
C539 O529 1.252 . S
C539 C540 1.497 . S
C540 C539 1.497 . S
C540 C541 1.395 . S
C540 C542 1.380 . S
C541 C540 1.395 . S
C541 C544 1.398 . S
C541 H556 0.930 . S
C542 C540 1.380 . S
C542 C543 1.391 . S
C542 H557 0.930 . S
C543 C542 1.391 . S
C543 C545 1.387 . S
C544 C541 1.398 . S
C544 C545 1.380 . S
C544 H558 0.930 . S
C545 C543 1.387 . S
C545 C544 1.380 . S
C545 H559 0.930 . S
C546 O526 1.254 . S
C546 O527 1.268 . S
C547 O531 1.284 . S
C547 O534 1.250 . S
C548 Gd481 2.811 1_565 S
C548 O530 1.249 . S
C548 O535 1.243 1_565 S
C548 C549 1.516 . S
C549 C548 1.516 . S
C549 C550 1.395 . S
C549 C551 1.380 . S
C550 C549 1.395 . S
C550 C553 1.398 . S
C550 H560 0.930 . S
C551 C549 1.380 . S
C551 C552 1.391 . S
C551 H561 0.930 . S
C552 C551 1.391 . S
C552 C554 1.387 . S
C553 C550 1.398 . S
C553 C554 1.380 . S
C553 H562 0.930 . S
C554 C552 1.387 . S
C554 C553 1.380 . S
C554 H563 0.930 . S
C555 O532 1.254 . S
C555 O533 1.268 . S
H556 C541 0.930 . S
H557 C542 0.930 . S
H558 C544 0.930 . S
H559 C545 0.930 . S
H560 C550 0.930 . S
H561 C551 0.930 . S
H562 C553 0.930 . S
H563 C554 0.930 . S
Gd564 N595 2.661 . S
Gd564 N601 2.601 . S
Gd564 O608 2.545 . S
Gd564 O609 2.606 . S
Gd564 O611 2.429 . S
Gd564 O612 2.545 . S
Gd564 O613 2.412 . S
Gd564 O615 2.362 . S
Gd564 O616 2.324 . S
Gd564 C623 2.828 . S
Gd565 N574 2.661 . S
Gd565 N578 2.601 . S
Gd565 O609 2.362 . S
Gd565 O610 2.324 . S
Gd565 O614 2.545 . S
Gd565 O615 2.606 . S
Gd565 O617 2.429 . S
Gd565 O618 2.545 . S
Gd565 O619 2.412 . S
Gd565 C632 2.828 . S
C566 C569 1.417 . S
C566 C571 1.431 . S
C566 C572 1.412 . S
C567 C570 1.437 . S
C567 C571 1.317 . S
C567 H586 0.929 . S
C568 C569 1.426 . S
C568 C570 1.413 . S
C568 N578 1.359 . S
C569 C566 1.417 . S
C569 C568 1.426 . S
C569 N574 1.350 . S
C570 C567 1.437 . S
C570 C568 1.413 . S
C570 C580 1.391 . S
C571 C566 1.431 . S
C571 C567 1.317 . S
C571 H582 0.930 . S
C572 C566 1.412 . S
C572 C573 1.355 . S
C572 H584 0.930 . S
C573 C572 1.355 . S
C573 C575 1.402 . S
C573 H585 0.930 . S
N574 Gd565 2.661 . S
N574 C569 1.350 . S
N574 C575 1.307 . S
C575 C573 1.402 . S
C575 N574 1.307 . S
C575 H576 0.930 . S
H576 C575 0.930 . S
C577 N578 1.334 . S
C577 C579 1.394 . S
C577 H581 0.930 . S
N578 Gd565 2.601 . S
N578 C568 1.359 . S
N578 C577 1.334 . S
C579 C577 1.394 . S
C579 C580 1.359 . S
C579 H591 0.930 . S
C580 C570 1.391 . S
C580 C579 1.359 . S
C580 H592 0.929 . S
H581 C577 0.930 . S
H582 C571 0.930 . S
H583 C600 0.930 . S
H584 C572 0.930 . S
H585 C573 0.930 . S
H586 C567 0.929 . S
H587 C605 0.930 . S
H588 C596 0.930 . S
H589 C597 0.930 . S
H590 C621 0.929 . S
H591 C579 0.930 . S
H592 C580 0.929 . S
H593 C622 0.930 . S
H594 C603 0.930 . S
N595 Gd564 2.661 . S
N595 C599 1.350 . S
N595 C600 1.307 . S
C596 H588 0.930 . S
C596 C597 1.355 . S
C596 C598 1.412 . S
C597 H589 0.930 . S
C597 C596 1.355 . S
C597 C600 1.402 . S
C598 C596 1.412 . S
C598 C599 1.417 . S
C598 C622 1.431 . S
C599 N595 1.350 . S
C599 C598 1.417 . S
C599 C602 1.426 . S
C600 H583 0.930 . S
C600 N595 1.307 . S
C600 C597 1.402 . S
N601 Gd564 2.601 . S
N601 C602 1.359 . S
N601 C605 1.334 . S
C602 C599 1.426 . S
C602 N601 1.359 . S
C602 C606 1.413 . S
C603 H594 0.930 . S
C603 C604 1.359 . S
C603 C605 1.394 . S
C604 C603 1.359 . S
C604 C606 1.391 . S
C604 H607 0.929 . S
C605 H587 0.930 . S
C605 N601 1.334 . S
C605 C603 1.394 . S
C606 C602 1.413 . S
C606 C604 1.391 . S
C606 C621 1.437 . S
H607 C604 0.929 . S
O608 Gd564 2.545 . S
O608 C623 1.258 . S
O609 Gd564 2.606 . S
O609 Gd565 2.362 . S
O609 C620 1.284 . S
O610 Gd565 2.324 . S
O610 C630 1.254 . S
O611 Gd564 2.429 . S
O611 C630 1.268 . S
O612 Gd564 2.545 . S
O612 C620 1.250 . S
O613 Gd564 2.412 . S
O613 C623 1.252 . S
O614 Gd565 2.545 . S
O614 C632 1.258 . S
O615 Gd564 2.362 . S
O615 Gd565 2.606 . S
O615 C631 1.284 . S
O616 Gd564 2.324 . S
O616 C639 1.254 . S
O617 Gd565 2.429 . S
O617 C639 1.268 . S
O618 Gd565 2.545 . S
O618 C631 1.250 . S
O619 Gd565 2.412 . S
O619 C632 1.252 . S
C620 O609 1.284 . S
C620 O612 1.250 . S
C621 H590 0.929 . S
C621 C606 1.437 . S
C621 C622 1.317 . S
C622 H593 0.930 . S
C622 C598 1.431 . S
C622 C621 1.317 . S
C623 Gd564 2.828 . S
C623 O608 1.258 . S
C623 O613 1.252 . S
C623 C624 1.497 . S
C624 C623 1.497 . S
C624 C625 1.395 . S
C624 C626 1.380 . S
C625 C624 1.395 . S
C625 C628 1.398 . S
C625 H640 0.930 . S
C626 C624 1.380 . S
C626 C627 1.391 . S
C626 H641 0.930 . S
C627 C626 1.391 . S
C627 C629 1.387 . S
C628 C625 1.398 . S
C628 C629 1.380 . S
C628 H642 0.930 . S
C629 C627 1.387 . S
C629 C628 1.380 . S
C629 H643 0.930 . S
C630 O610 1.254 . S
C630 O611 1.268 . S
C631 O615 1.284 . S
C631 O618 1.250 . S
C632 Gd565 2.828 . S
C632 O614 1.258 . S
C632 O619 1.252 . S
C632 C633 1.497 . S
C633 C632 1.497 . S
C633 C634 1.395 . S
C633 C635 1.380 . S
C634 C633 1.395 . S
C634 C637 1.398 . S
C634 H644 0.930 . S
C635 C633 1.380 . S
C635 C636 1.391 . S
C635 H645 0.930 . S
C636 C635 1.391 . S
C636 C638 1.387 . S
C637 C634 1.398 . S
C637 C638 1.380 . S
C637 H646 0.930 . S
C638 C636 1.387 . S
C638 C637 1.380 . S
C638 H647 0.930 . S
C639 O616 1.254 . S
C639 O617 1.268 . S
H640 C625 0.930 . S
H641 C626 0.930 . S
H642 C628 0.930 . S
H643 C629 0.930 . S
H644 C634 0.930 . S
H645 C635 0.930 . S
H646 C637 0.930 . S
H647 C638 0.930 . S
Gd648 N679 2.661 . S
Gd648 N685 2.601 . S
Gd648 O692 2.545 . S
Gd648 O693 2.606 1_565 S
Gd648 O695 2.429 1_565 S
Gd648 O696 2.545 . S
Gd648 O697 2.412 . S
Gd648 O699 2.362 1_565 S
Gd648 O700 2.324 . S
Gd648 C707 2.828 . S
Gd649 N658 2.661 . S
Gd649 N662 2.601 . S
Gd649 O693 2.362 . S
Gd649 O694 2.324 . S
Gd649 O698 2.545 . S
Gd649 O699 2.606 . S
Gd649 O701 2.429 . S
Gd649 O702 2.545 . S
Gd649 O703 2.412 . S
Gd649 C716 2.828 . S
C650 C653 1.417 . S
C650 C655 1.431 . S
C650 C656 1.412 . S
C651 C654 1.437 . S
C651 C655 1.317 . S
C651 H670 0.929 . S
C652 C653 1.426 . S
C652 C654 1.413 . S
C652 N662 1.359 . S
C653 C650 1.417 . S
C653 C652 1.426 . S
C653 N658 1.350 . S
C654 C651 1.437 . S
C654 C652 1.413 . S
C654 C664 1.391 . S
C655 C650 1.431 . S
C655 C651 1.317 . S
C655 H666 0.930 . S
C656 C650 1.412 . S
C656 C657 1.355 . S
C656 H668 0.930 . S
C657 C656 1.355 . S
C657 C659 1.402 . S
C657 H669 0.930 . S
N658 Gd649 2.661 . S
N658 C653 1.350 . S
N658 C659 1.307 . S
C659 C657 1.402 . S
C659 N658 1.307 . S
C659 H660 0.930 . S
H660 C659 0.930 . S
C661 N662 1.334 . S
C661 C663 1.394 . S
C661 H665 0.930 . S
N662 Gd649 2.601 . S
N662 C652 1.359 . S
N662 C661 1.334 . S
C663 C661 1.394 . S
C663 C664 1.359 . S
C663 H675 0.930 1_455 S
C664 C654 1.391 . S
C664 C663 1.359 . S
C664 H676 0.929 . S
H665 C661 0.930 . S
H666 C655 0.930 . S
H667 C684 0.930 . S
H668 C656 0.930 . S
H669 C657 0.930 . S
H670 C651 0.929 . S
H671 C689 0.930 . S
H672 C680 0.930 1_655 S
H673 C681 0.936 . S
H674 C705 0.929 . S
H675 C663 0.930 1_655 S
H676 C664 0.929 . S
H677 C706 0.930 . S
H678 C687 0.930 . S
N679 Gd648 2.661 . S
N679 C683 1.350 . S
N679 C684 1.307 . S
C680 H672 0.930 1_455 S
C680 C681 1.351 1_455 S
C680 C682 1.412 . S
C681 H673 0.936 . S
C681 C680 1.351 1_655 S
C681 C684 1.399 1_655 S
C682 C680 1.412 . S
C682 C683 1.417 . S
C682 C706 1.431 . S
C683 N679 1.350 . S
C683 C682 1.417 . S
C683 C686 1.426 . S
C684 H667 0.930 . S
C684 N679 1.307 . S
C684 C681 1.399 1_455 S
N685 Gd648 2.601 . S
N685 C686 1.359 . S
N685 C689 1.334 . S
C686 C683 1.426 . S
C686 N685 1.359 . S
C686 C690 1.413 . S
C687 H678 0.930 . S
C687 C688 1.359 . S
C687 C689 1.394 . S
C688 C687 1.359 . S
C688 C690 1.391 . S
C688 H691 0.929 . S
C689 H671 0.930 . S
C689 N685 1.334 . S
C689 C687 1.394 . S
C690 C686 1.413 . S
C690 C688 1.391 . S
C690 C705 1.437 . S
H691 C688 0.929 . S
O692 Gd648 2.545 . S
O692 C707 1.258 . S
O693 Gd648 2.606 1_545 S
O693 Gd649 2.362 . S
O693 C704 1.284 . S
O694 Gd649 2.324 . S
O694 C714 1.254 . S
O695 Gd648 2.429 1_545 S
O695 C714 1.268 . S
O696 Gd648 2.545 . S
O696 C704 1.250 1_565 S
O697 Gd648 2.412 . S
O697 C707 1.252 . S
O698 Gd649 2.545 . S
O698 C716 1.258 . S
O699 Gd648 2.362 1_545 S
O699 Gd649 2.606 . S
O699 C715 1.284 . S
O700 Gd648 2.324 . S
O700 C723 1.262 . S
O701 Gd649 2.429 . S
O701 C723 1.254 1_545 S
O702 Gd649 2.545 . S
O702 C715 1.250 . S
O703 Gd649 2.412 . S
O703 C716 1.252 . S
C704 O693 1.284 . S
C704 O696 1.250 1_545 S
C705 H674 0.929 . S
C705 C690 1.437 . S
C705 C706 1.317 . S
C706 H677 0.930 . S
C706 C682 1.431 . S
C706 C705 1.317 . S
C707 Gd648 2.828 . S
C707 O692 1.258 . S
C707 O697 1.252 . S
C707 C708 1.497 . S
C708 C707 1.497 . S
C708 C709 1.395 . S
C708 C710 1.380 . S
C709 C708 1.395 . S
C709 C712 1.398 . S
C709 H724 0.930 . S
C710 C708 1.380 . S
C710 C711 1.391 . S
C710 H725 0.930 . S
C711 C710 1.391 . S
C711 C713 1.387 . S
C712 C709 1.398 . S
C712 C713 1.380 . S
C712 H726 0.930 . S
C713 C711 1.387 . S
C713 C712 1.380 . S
C713 H727 0.930 . S
C714 O694 1.254 . S
C714 O695 1.268 . S
C715 O699 1.284 . S
C715 O702 1.250 . S
C716 Gd649 2.828 . S
C716 O698 1.258 . S
C716 O703 1.252 . S
C716 C717 1.497 . S
C717 C716 1.497 . S
C717 C718 1.395 . S
C717 C719 1.380 . S
C718 C717 1.395 . S
C718 C721 1.398 . S
C718 H728 0.930 . S
C719 C717 1.380 . S
C719 C720 1.391 . S
C719 H729 0.930 . S
C720 C719 1.391 . S
C720 C722 1.387 . S
C721 C718 1.398 . S
C721 C722 1.380 . S
C721 H730 0.930 . S
C722 C720 1.387 . S
C722 C721 1.380 . S
C722 H731 0.930 . S
C723 O700 1.262 . S
C723 O701 1.254 1_565 S
H724 C709 0.930 . S
H725 C710 0.930 . S
H726 C712 0.930 . S
H727 C713 0.930 . S
H728 C718 0.930 . S
H729 C719 0.930 . S
H730 C721 0.930 . S
H731 C722 0.930 . S
Gd732 N763 2.661 . S
Gd732 N769 2.601 . S
Gd732 O776 2.545 . S
Gd732 O777 2.606 . S
Gd732 O779 2.429 . S
Gd732 O780 2.545 . S
Gd732 O781 2.412 . S
Gd732 O783 2.362 . S
Gd732 O784 2.324 . S
Gd732 C791 2.828 . S
Gd733 N742 2.661 . S
Gd733 N746 2.601 . S
Gd733 O777 2.362 . S
Gd733 O778 2.324 . S
Gd733 O782 2.545 . S
Gd733 O783 2.606 . S
Gd733 O785 2.429 . S
Gd733 O786 2.545 . S
Gd733 O787 2.412 . S
Gd733 C800 2.828 . S
C734 C737 1.417 . S
C734 C739 1.431 . S
C734 C740 1.412 . S
C735 C738 1.437 . S
C735 C739 1.317 . S
C735 H754 0.929 . S
C736 C737 1.426 . S
C736 C738 1.413 . S
C736 N746 1.359 . S
C737 C734 1.417 . S
C737 C736 1.426 . S
C737 N742 1.350 . S
C738 C735 1.437 . S
C738 C736 1.413 . S
C738 C748 1.391 . S
C739 C734 1.431 . S
C739 C735 1.317 . S
C739 H750 0.930 . S
C740 C734 1.412 . S
C740 C741 1.355 . S
C740 H752 0.930 . S
C741 C740 1.355 . S
C741 C743 1.402 . S
C741 H753 0.930 . S
N742 Gd733 2.661 . S
N742 C737 1.350 . S
N742 C743 1.307 . S
C743 C741 1.402 . S
C743 N742 1.307 . S
C743 H744 0.930 . S
H744 C743 0.930 . S
C745 N746 1.334 . S
C745 C747 1.394 . S
C745 H749 0.930 . S
N746 Gd733 2.601 . S
N746 C736 1.359 . S
N746 C745 1.334 . S
C747 C745 1.394 . S
C747 C748 1.359 . S
C747 H759 0.930 . S
C748 C738 1.391 . S
C748 C747 1.359 . S
C748 H760 0.929 . S
H749 C745 0.930 . S
H750 C739 0.930 . S
H751 C768 0.930 . S
H752 C740 0.930 . S
H753 C741 0.930 . S
H754 C735 0.929 . S
H755 C773 0.930 . S
H756 C764 0.930 . S
H757 C765 0.930 . S
H758 C789 0.929 . S
H759 C747 0.930 . S
H760 C748 0.929 . S
H761 C790 0.930 . S
H762 C771 0.930 . S
N763 Gd732 2.661 . S
N763 C767 1.350 . S
N763 C768 1.307 . S
C764 H756 0.930 . S
C764 C765 1.355 . S
C764 C766 1.412 . S
C765 H757 0.930 . S
C765 C764 1.355 . S
C765 C768 1.402 . S
C766 C764 1.412 . S
C766 C767 1.417 . S
C766 C790 1.431 . S
C767 N763 1.350 . S
C767 C766 1.417 . S
C767 C770 1.426 . S
C768 H751 0.930 . S
C768 N763 1.307 . S
C768 C765 1.402 . S
N769 Gd732 2.601 . S
N769 C770 1.359 . S
N769 C773 1.334 . S
C770 C767 1.426 . S
C770 N769 1.359 . S
C770 C774 1.413 . S
C771 H762 0.930 . S
C771 C772 1.359 . S
C771 C773 1.394 . S
C772 C771 1.359 . S
C772 C774 1.391 . S
C772 H775 0.929 . S
C773 H755 0.930 . S
C773 N769 1.334 . S
C773 C771 1.394 . S
C774 C770 1.413 . S
C774 C772 1.391 . S
C774 C789 1.437 . S
H775 C772 0.929 . S
O776 Gd732 2.545 . S
O776 C791 1.258 . S
O777 Gd732 2.606 . S
O777 Gd733 2.362 . S
O777 C788 1.284 . S
O778 Gd733 2.324 . S
O778 C798 1.254 . S
O779 Gd732 2.429 . S
O779 C798 1.268 . S
O780 Gd732 2.545 . S
O780 C788 1.250 . S
O781 Gd732 2.412 . S
O781 C791 1.252 . S
O782 Gd733 2.545 . S
O782 C800 1.258 . S
O783 Gd732 2.362 . S
O783 Gd733 2.606 . S
O783 C799 1.284 . S
O784 Gd732 2.324 . S
O784 C807 1.254 . S
O785 Gd733 2.429 . S
O785 C807 1.268 . S
O786 Gd733 2.545 . S
O786 C799 1.250 . S
O787 Gd733 2.412 . S
O787 C800 1.252 . S
C788 O777 1.284 . S
C788 O780 1.250 . S
C789 H758 0.929 . S
C789 C774 1.437 . S
C789 C790 1.317 . S
C790 H761 0.930 . S
C790 C766 1.431 . S
C790 C789 1.317 . S
C791 Gd732 2.828 . S
C791 O776 1.258 . S
C791 O781 1.252 . S
C791 C792 1.497 . S
C792 C791 1.497 . S
C792 C793 1.395 . S
C792 C794 1.380 . S
C793 C792 1.395 . S
C793 C796 1.398 . S
C793 H808 0.930 . S
C794 C792 1.380 . S
C794 C795 1.391 . S
C794 H809 0.930 . S
C795 C794 1.391 . S
C795 C797 1.387 . S
C796 C793 1.398 . S
C796 C797 1.380 . S
C796 H810 0.930 . S
C797 C795 1.387 . S
C797 C796 1.380 . S
C797 H811 0.930 . S
C798 O778 1.254 . S
C798 O779 1.268 . S
C799 O783 1.284 . S
C799 O786 1.250 . S
C800 Gd733 2.828 . S
C800 O782 1.258 . S
C800 O787 1.252 . S
C800 C801 1.497 . S
C801 C800 1.497 . S
C801 C802 1.395 . S
C801 C803 1.380 . S
C802 C801 1.395 . S
C802 C805 1.398 . S
C802 H812 0.930 . S
C803 C801 1.380 . S
C803 C804 1.391 . S
C803 H813 0.930 . S
C804 C803 1.391 . S
C804 C806 1.387 . S
C805 C802 1.398 . S
C805 C806 1.380 . S
C805 H814 0.930 . S
C806 C804 1.387 . S
C806 C805 1.380 . S
C806 H815 0.930 . S
C807 O784 1.254 . S
C807 O785 1.268 . S
H808 C793 0.930 . S
H809 C794 0.930 . S
H810 C796 0.930 . S
H811 C797 0.930 . S
H812 C802 0.930 . S
H813 C803 0.930 . S
H814 C805 0.930 . S
H815 C806 0.930 . S
Gd816 N847 2.661 . S
Gd816 N853 2.601 . S
Gd816 O860 2.545 . S
Gd816 O861 2.606 1_556 S
Gd816 O863 2.429 1_556 S
Gd816 O864 2.545 . S
Gd816 O865 2.412 . S
Gd816 O867 2.362 1_556 S
Gd816 O868 2.324 . S
Gd816 C875 2.828 . S
Gd817 N826 2.661 . S
Gd817 N830 2.601 . S
Gd817 O861 2.362 . S
Gd817 O862 2.324 . S
Gd817 O866 2.545 1_545 S
Gd817 O867 2.606 . S
Gd817 O869 2.429 1_545 S
Gd817 O870 2.545 . S
Gd817 O871 2.412 . S
Gd817 C884 2.828 . S
C818 C821 1.417 . S
C818 C823 1.431 . S
C818 C824 1.412 . S
C819 C822 1.437 . S
C819 C823 1.317 . S
C819 H838 0.929 . S
C820 C821 1.426 . S
C820 C822 1.413 . S
C820 N830 1.359 . S
C821 C818 1.417 . S
C821 C820 1.426 . S
C821 N826 1.350 . S
C822 C819 1.437 . S
C822 C820 1.413 . S
C822 C832 1.391 1_545 S
C823 C818 1.431 . S
C823 C819 1.317 . S
C823 H834 0.930 . S
C824 C818 1.412 . S
C824 C825 1.355 . S
C824 H836 0.930 . S
C825 C824 1.355 . S
C825 C827 1.402 . S
C825 H837 0.930 . S
N826 Gd817 2.661 . S
N826 C821 1.350 . S
N826 C827 1.307 . S
C827 C825 1.402 . S
C827 N826 1.307 . S
C827 H828 0.930 . S
H828 C827 0.930 . S
C829 N830 1.334 1_565 S
C829 C831 1.394 . S
C829 H833 0.930 . S
N830 Gd817 2.601 . S
N830 C820 1.359 . S
N830 C829 1.334 1_545 S
C831 C829 1.394 . S
C831 C832 1.359 . S
C831 H843 0.930 . S
C832 C822 1.391 1_565 S
C832 C831 1.359 . S
C832 H844 0.929 . S
H833 C829 0.930 . S
H834 C823 0.930 . S
H835 C852 0.930 . S
H836 C824 0.930 . S
H837 C825 0.930 . S
H838 C819 0.929 . S
H839 C857 0.930 . S
H840 C848 0.930 . S
H841 C849 0.930 . S
H842 C873 0.929 . S
H843 C831 0.930 . S
H844 C832 0.929 . S
H845 C874 0.930 . S
H846 C855 0.930 . S
N847 Gd816 2.661 . S
N847 C851 1.350 . S
N847 C852 1.307 1_545 S
C848 H840 0.930 . S
C848 C849 1.355 . S
C848 C850 1.412 1_565 S
C849 H841 0.930 . S
C849 C848 1.355 . S
C849 C852 1.402 . S
C850 C848 1.412 1_545 S
C850 C851 1.417 . S
C850 C874 1.431 . S
C851 N847 1.350 . S
C851 C850 1.417 . S
C851 C854 1.426 . S
C852 H835 0.930 . S
C852 N847 1.307 1_565 S
C852 C849 1.402 . S
N853 Gd816 2.601 . S
N853 C854 1.359 . S
N853 C857 1.334 . S
C854 C851 1.426 . S
C854 N853 1.359 . S
C854 C858 1.413 . S
C855 H846 0.930 . S
C855 C856 1.359 . S
C855 C857 1.394 . S
C856 C855 1.359 . S
C856 C858 1.391 . S
C856 H859 0.929 . S
C857 H839 0.930 . S
C857 N853 1.334 . S
C857 C855 1.394 . S
C858 C854 1.413 . S
C858 C856 1.391 . S
C858 C873 1.437 . S
H859 C856 0.929 . S
O860 Gd816 2.545 . S
O860 C875 1.258 . S
O861 Gd816 2.606 1_554 S
O861 Gd817 2.362 . S
O861 C872 1.284 . S
O862 Gd817 2.324 . S
O862 C882 1.254 . S
O863 Gd816 2.429 1_554 S
O863 C882 1.268 . S
O864 Gd816 2.545 . S
O864 C872 1.250 1_556 S
O865 Gd816 2.412 . S
O865 C875 1.252 . S
O866 Gd817 2.545 1_565 S
O866 C884 1.258 1_565 S
O867 Gd816 2.362 1_554 S
O867 Gd817 2.606 . S
O867 C883 1.284 . S
O868 Gd816 2.324 . S
O868 C891 1.254 1_545 S
O869 Gd817 2.429 1_565 S
O869 C891 1.268 1_554 S
O870 Gd817 2.545 . S
O870 C883 1.250 . S
O871 Gd817 2.412 . S
O871 C884 1.252 . S
C872 O861 1.284 . S
C872 O864 1.250 1_554 S
C873 H842 0.929 . S
C873 C858 1.437 . S
C873 C874 1.317 . S
C874 H845 0.930 . S
C874 C850 1.431 . S
C874 C873 1.317 . S
C875 Gd816 2.828 . S
C875 O860 1.258 . S
C875 O865 1.252 . S
C875 C876 1.497 . S
C876 C875 1.497 . S
C876 C877 1.395 . S
C876 C878 1.380 . S
C877 C876 1.395 . S
C877 C880 1.398 . S
C877 H892 0.930 . S
C878 C876 1.380 . S
C878 C879 1.391 . S
C878 H893 0.930 . S
C879 C878 1.391 . S
C879 C881 1.387 . S
C880 C877 1.398 . S
C880 C881 1.380 . S
C880 H894 0.930 . S
C881 C879 1.387 . S
C881 C880 1.380 . S
C881 H895 0.930 . S
C882 O862 1.254 . S
C882 O863 1.268 . S
C883 O867 1.284 . S
C883 O870 1.250 . S
C884 Gd817 2.828 . S
C884 O866 1.258 1_545 S
C884 O871 1.252 . S
C884 C885 1.497 1_545 S
C885 C884 1.497 1_565 S
C885 C886 1.395 . S
C885 C887 1.380 1_565 S
C886 C885 1.395 . S
C886 C889 1.398 . S
C886 H896 0.930 . S
C887 C885 1.380 1_545 S
C887 C888 1.391 . S
C887 H897 0.930 . S
C888 C887 1.391 . S
C888 C890 1.387 1_545 S
C889 C886 1.398 . S
C889 C890 1.380 . S
C889 H898 0.930 . S
C890 C888 1.387 1_565 S
C890 C889 1.380 . S
C890 H899 0.930 . S
C891 O868 1.254 1_565 S
C891 O869 1.268 1_556 S
H892 C877 0.930 . S
H893 C878 0.930 . S
H894 C880 0.930 . S
H895 C881 0.930 . S
H896 C886 0.930 . S
H897 C887 0.930 . S
H898 C889 0.930 . S
H899 C890 0.930 . S
Gd900 N931 2.661 . S
Gd900 N937 2.601 . S
Gd900 O944 2.545 . S
Gd900 O945 2.606 . S
Gd900 O947 2.429 . S
Gd900 O948 2.545 . S
Gd900 O949 2.412 . S
Gd900 O951 2.362 . S
Gd900 O952 2.324 . S
Gd900 C959 2.828 . S
Gd901 N910 2.661 . S
Gd901 N914 2.601 . S
Gd901 O945 2.362 . S
Gd901 O946 2.324 . S
Gd901 O950 2.545 . S
Gd901 O951 2.606 . S
Gd901 O953 2.429 . S
Gd901 O954 2.545 . S
Gd901 O955 2.412 . S
Gd901 C968 2.828 . S
C902 C905 1.417 . S
C902 C907 1.431 . S
C902 C908 1.412 . S
C903 C906 1.437 . S
C903 C907 1.317 . S
C903 H922 0.929 . S
C904 C905 1.426 . S
C904 C906 1.413 . S
C904 N914 1.359 . S
C905 C902 1.417 . S
C905 C904 1.426 . S
C905 N910 1.350 . S
C906 C903 1.437 . S
C906 C904 1.413 . S
C906 C916 1.391 . S
C907 C902 1.431 . S
C907 C903 1.317 . S
C907 H918 0.930 . S
C908 C902 1.412 . S
C908 C909 1.355 . S
C908 H920 0.930 . S
C909 C908 1.355 . S
C909 C911 1.402 . S
C909 H921 0.930 . S
N910 Gd901 2.661 . S
N910 C905 1.350 . S
N910 C911 1.307 . S
C911 C909 1.402 . S
C911 N910 1.307 . S
C911 H912 0.930 . S
H912 C911 0.930 . S
C913 N914 1.334 . S
C913 C915 1.394 . S
C913 H917 0.930 . S
N914 Gd901 2.601 . S
N914 C904 1.359 . S
N914 C913 1.334 . S
C915 C913 1.394 . S
C915 C916 1.359 . S
C915 H927 0.930 . S
C916 C906 1.391 . S
C916 C915 1.359 . S
C916 H928 0.929 . S
H917 C913 0.930 . S
H918 C907 0.930 . S
H919 C936 0.930 . S
H920 C908 0.930 . S
H921 C909 0.930 . S
H922 C903 0.929 . S
H923 C941 0.930 . S
H924 C932 0.930 . S
H925 C933 0.930 . S
H926 C957 0.929 . S
H927 C915 0.930 . S
H928 C916 0.929 . S
H929 C958 0.930 . S
H930 C939 0.930 . S
N931 Gd900 2.661 . S
N931 C935 1.350 . S
N931 C936 1.307 . S
C932 H924 0.930 . S
C932 C933 1.355 . S
C932 C934 1.412 . S
C933 H925 0.930 . S
C933 C932 1.355 . S
C933 C936 1.402 . S
C934 C932 1.412 . S
C934 C935 1.417 . S
C934 C958 1.431 . S
C935 N931 1.350 . S
C935 C934 1.417 . S
C935 C938 1.426 . S
C936 H919 0.930 . S
C936 N931 1.307 . S
C936 C933 1.402 . S
N937 Gd900 2.601 . S
N937 C938 1.359 . S
N937 C941 1.334 . S
C938 C935 1.426 . S
C938 N937 1.359 . S
C938 C942 1.413 . S
C939 H930 0.930 . S
C939 C940 1.359 . S
C939 C941 1.394 . S
C940 C939 1.359 . S
C940 C942 1.391 . S
C940 H943 0.929 . S
C941 H923 0.930 . S
C941 N937 1.334 . S
C941 C939 1.394 . S
C942 C938 1.413 . S
C942 C940 1.391 . S
C942 C957 1.437 . S
H943 C940 0.929 . S
O944 Gd900 2.545 . S
O944 C959 1.258 . S
O945 Gd900 2.606 . S
O945 Gd901 2.362 . S
O945 C956 1.284 . S
O946 Gd901 2.324 . S
O946 C966 1.254 . S
O947 Gd900 2.429 . S
O947 C966 1.268 . S
O948 Gd900 2.545 . S
O948 C956 1.250 . S
O949 Gd900 2.412 . S
O949 C959 1.252 . S
O950 Gd901 2.545 . S
O950 C968 1.258 . S
O951 Gd900 2.362 . S
O951 Gd901 2.606 . S
O951 C967 1.284 . S
O952 Gd900 2.324 . S
O952 C975 1.254 . S
O953 Gd901 2.429 . S
O953 C975 1.268 . S
O954 Gd901 2.545 . S
O954 C967 1.250 . S
O955 Gd901 2.412 . S
O955 C968 1.252 . S
C956 O945 1.284 . S
C956 O948 1.250 . S
C957 H926 0.929 . S
C957 C942 1.437 . S
C957 C958 1.317 . S
C958 H929 0.930 . S
C958 C934 1.431 . S
C958 C957 1.317 . S
C959 Gd900 2.828 . S
C959 O944 1.258 . S
C959 O949 1.252 . S
C959 C960 1.497 . S
C960 C959 1.497 . S
C960 C961 1.395 . S
C960 C962 1.380 . S
C961 C960 1.395 . S
C961 C964 1.398 . S
C961 H976 0.930 . S
C962 C960 1.380 . S
C962 C963 1.391 . S
C962 H977 0.930 . S
C963 C962 1.391 . S
C963 C965 1.387 . S
C964 C961 1.398 . S
C964 C965 1.380 . S
C964 H978 0.930 . S
C965 C963 1.387 . S
C965 C964 1.380 . S
C965 H979 0.930 . S
C966 O946 1.254 . S
C966 O947 1.268 . S
C967 O951 1.284 . S
C967 O954 1.250 . S
C968 Gd901 2.828 . S
C968 O950 1.258 . S
C968 O955 1.252 . S
C968 C969 1.497 . S
C969 C968 1.497 . S
C969 C970 1.395 . S
C969 C971 1.380 . S
C970 C969 1.395 . S
C970 C973 1.398 . S
C970 H980 0.930 . S
C971 C969 1.380 . S
C971 C972 1.391 . S
C971 H981 0.930 . S
C972 C971 1.391 . S
C972 C974 1.387 . S
C973 C970 1.398 . S
C973 C974 1.380 . S
C973 H982 0.930 . S
C974 C972 1.387 . S
C974 C973 1.380 . S
C974 H983 0.930 . S
C975 O952 1.254 . S
C975 O953 1.268 . S
H976 C961 0.930 . S
H977 C962 0.930 . S
H978 C964 0.930 . S
H979 C965 0.930 . S
H980 C970 0.930 . S
H981 C971 0.930 . S
H982 C973 0.930 . S
H983 C974 0.930 . S
Gd984 N1015 2.661 . S
Gd984 N1021 2.601 . S
Gd984 O1028 2.545 1_556 S
Gd984 O1029 2.606 1_556 S
Gd984 O1031 2.425 . S
Gd984 O1032 2.545 1_556 S
Gd984 O1033 2.412 1_556 S
Gd984 O1035 2.362 . S
Gd984 O1036 2.324 1_556 S
Gd984 C1043 2.828 1_556 S
Gd985 N994 2.661 . S
Gd985 N998 2.601 . S
Gd985 O1029 2.362 . S
Gd985 O1030 2.324 . S
Gd985 O1034 2.545 . S
Gd985 O1035 2.606 1_554 S
Gd985 O1037 2.429 . S
Gd985 O1038 2.545 1_554 S
Gd985 O1039 2.412 . S
Gd985 C1052 2.828 . S
C986 C989 1.417 . S
C986 C991 1.431 . S
C986 C992 1.412 . S
C987 C990 1.437 . S
C987 C991 1.317 . S
C987 H1006 0.929 . S
C988 C989 1.426 . S
C988 C990 1.413 . S
C988 N998 1.359 . S
C989 C986 1.417 . S
C989 C988 1.426 . S
C989 N994 1.350 . S
C990 C987 1.437 . S
C990 C988 1.413 . S
C990 C1000 1.391 . S
C991 C986 1.431 . S
C991 C987 1.317 . S
C991 H1002 0.930 . S
C992 C986 1.412 . S
C992 C993 1.355 . S
C992 H1004 0.930 . S
C993 C992 1.355 . S
C993 C995 1.402 . S
C993 H1005 0.930 . S
N994 Gd985 2.661 . S
N994 C989 1.350 . S
N994 C995 1.307 . S
C995 C993 1.402 . S
C995 N994 1.307 . S
C995 H996 0.930 . S
H996 C995 0.930 . S
C997 N998 1.334 . S
C997 C999 1.394 . S
C997 H1001 0.930 . S
N998 Gd985 2.601 . S
N998 C988 1.359 . S
N998 C997 1.334 . S
C999 C997 1.394 . S
C999 C1000 1.359 . S
C999 H1011 0.930 . S
C1000 C990 1.391 . S
C1000 C999 1.359 . S
C1000 H1012 0.929 . S
H1001 C997 0.930 . S
H1002 C991 0.930 . S
H1003 C1020 0.930 . S
H1004 C992 0.930 . S
H1005 C993 0.930 . S
H1006 C987 0.929 . S
H1007 C1025 0.930 . S
H1008 C1016 0.930 . S
H1009 C1017 0.930 . S
H1010 C1041 0.929 . S
H1011 C999 0.930 . S
H1012 C1000 0.929 . S
H1013 C1042 0.930 . S
H1014 C1023 0.930 . S
N1015 Gd984 2.661 . S
N1015 C1019 1.350 . S
N1015 C1020 1.307 . S
C1016 H1008 0.930 . S
C1016 C1017 1.355 . S
C1016 C1018 1.412 . S
C1017 H1009 0.930 . S
C1017 C1016 1.355 . S
C1017 C1020 1.402 . S
C1018 C1016 1.412 . S
C1018 C1019 1.417 . S
C1018 C1042 1.431 . S
C1019 N1015 1.350 . S
C1019 C1018 1.417 . S
C1019 C1022 1.426 . S
C1020 H1003 0.930 . S
C1020 N1015 1.307 . S
C1020 C1017 1.402 . S
N1021 Gd984 2.601 . S
N1021 C1022 1.359 . S
N1021 C1025 1.334 . S
C1022 C1019 1.426 . S
C1022 N1021 1.359 . S
C1022 C1026 1.413 . S
C1023 H1014 0.930 . S
C1023 C1024 1.359 . S
C1023 C1025 1.394 . S
C1024 C1023 1.359 . S
C1024 C1026 1.391 . S
C1024 H1027 0.929 . S
C1025 H1007 0.930 . S
C1025 N1021 1.334 . S
C1025 C1023 1.394 . S
C1026 C1022 1.413 . S
C1026 C1024 1.391 . S
C1026 C1041 1.437 . S
H1027 C1024 0.929 . S
O1028 Gd984 2.545 1_554 S
O1028 C1043 1.258 . S
O1029 Gd984 2.606 1_554 S
O1029 Gd985 2.362 . S
O1029 C1040 1.284 . S
O1030 Gd985 2.324 . S
O1030 C1050 1.243 1_554 S
O1031 Gd984 2.425 . S
O1031 C1050 1.267 . S
O1032 Gd984 2.545 1_554 S
O1032 C1040 1.250 . S
O1033 Gd984 2.412 1_554 S
O1033 C1043 1.252 . S
O1034 Gd985 2.545 . S
O1034 C1052 1.258 . S
O1035 Gd984 2.362 . S
O1035 Gd985 2.606 1_556 S
O1035 C1051 1.284 . S
O1036 Gd984 2.324 1_554 S
O1036 C1059 1.254 . S
O1037 Gd985 2.429 . S
O1037 C1059 1.268 . S
O1038 Gd985 2.545 1_556 S
O1038 C1051 1.250 . S
O1039 Gd985 2.412 . S
O1039 C1052 1.252 . S
C1040 O1029 1.284 . S
C1040 O1032 1.250 . S
C1041 H1010 0.929 . S
C1041 C1026 1.437 . S
C1041 C1042 1.317 . S
C1042 H1013 0.930 . S
C1042 C1018 1.431 . S
C1042 C1041 1.317 . S
C1043 Gd984 2.828 1_554 S
C1043 O1028 1.258 . S
C1043 O1033 1.252 . S
C1043 C1044 1.497 . S
C1044 C1043 1.497 . S
C1044 C1045 1.395 . S
C1044 C1046 1.380 . S
C1045 C1044 1.395 . S
C1045 C1048 1.398 . S
C1045 H1060 0.930 1_554 S
C1046 C1044 1.380 . S
C1046 C1047 1.391 . S
C1046 H1061 0.930 . S
C1047 C1046 1.391 . S
C1047 C1049 1.387 . S
C1048 C1045 1.398 . S
C1048 C1049 1.380 . S
C1048 H1062 0.930 . S
C1049 C1047 1.387 . S
C1049 C1048 1.380 . S
C1049 H1063 0.930 . S
C1050 O1030 1.243 1_556 S
C1050 O1031 1.267 . S
C1051 O1035 1.284 . S
C1051 O1038 1.250 . S
C1052 Gd985 2.828 . S
C1052 O1034 1.258 . S
C1052 O1039 1.252 . S
C1052 C1053 1.497 . S
C1053 C1052 1.497 . S
C1053 C1054 1.395 . S
C1053 C1055 1.380 1_554 S
C1054 C1053 1.395 . S
C1054 C1057 1.398 . S
C1054 H1064 0.930 . S
C1055 C1053 1.380 1_556 S
C1055 C1056 1.391 . S
C1055 H1065 0.930 . S
C1056 C1055 1.391 . S
C1056 C1058 1.387 . S
C1057 C1054 1.398 . S
C1057 C1058 1.380 1_554 S
C1057 H1066 0.930 . S
C1058 C1056 1.387 . S
C1058 C1057 1.380 1_556 S
C1058 H1067 0.930 . S
C1059 O1036 1.254 . S
C1059 O1037 1.268 . S
H1060 C1045 0.930 1_556 S
H1061 C1046 0.930 . S
H1062 C1048 0.930 . S
H1063 C1049 0.930 . S
H1064 C1054 0.930 . S
H1065 C1055 0.930 . S
H1066 C1057 0.930 . S
H1067 C1058 0.930 . S
Gd1068 N1099 2.661 . S
Gd1068 N1105 2.601 . S
Gd1068 O1112 2.545 . S
Gd1068 O1113 2.606 . S
Gd1068 O1115 2.429 . S
Gd1068 O1116 2.545 . S
Gd1068 O1117 2.412 . S
Gd1068 O1119 2.362 . S
Gd1068 O1120 2.324 . S
Gd1068 C1127 2.828 . S
Gd1069 N1078 2.661 . S
Gd1069 N1082 2.601 . S
Gd1069 O1113 2.362 . S
Gd1069 O1114 2.324 . S
Gd1069 O1118 2.545 . S
Gd1069 O1119 2.606 . S
Gd1069 O1121 2.429 . S
Gd1069 O1122 2.545 . S
Gd1069 O1123 2.412 . S
Gd1069 C1136 2.828 . S
C1070 C1073 1.417 . S
C1070 C1075 1.431 . S
C1070 C1076 1.412 . S
C1071 C1074 1.437 . S
C1071 C1075 1.317 . S
C1071 H1090 0.929 . S
C1072 C1073 1.426 . S
C1072 C1074 1.413 . S
C1072 N1082 1.359 . S
C1073 C1070 1.417 . S
C1073 C1072 1.426 . S
C1073 N1078 1.350 . S
C1074 C1071 1.437 . S
C1074 C1072 1.413 . S
C1074 C1084 1.391 . S
C1075 C1070 1.431 . S
C1075 C1071 1.317 . S
C1075 H1086 0.930 . S
C1076 C1070 1.412 . S
C1076 C1077 1.355 . S
C1076 H1088 0.930 . S
C1077 C1076 1.355 . S
C1077 C1079 1.402 . S
C1077 H1089 0.930 . S
N1078 Gd1069 2.661 . S
N1078 C1073 1.350 . S
N1078 C1079 1.307 . S
C1079 C1077 1.402 . S
C1079 N1078 1.307 . S
C1079 H1080 0.930 . S
H1080 C1079 0.930 . S
C1081 N1082 1.334 . S
C1081 C1083 1.394 . S
C1081 H1085 0.930 . S
N1082 Gd1069 2.601 . S
N1082 C1072 1.359 . S
N1082 C1081 1.334 . S
C1083 C1081 1.394 . S
C1083 C1084 1.359 . S
C1083 H1095 0.930 . S
C1084 C1074 1.391 . S
C1084 C1083 1.359 . S
C1084 H1096 0.929 . S
H1085 C1081 0.930 . S
H1086 C1075 0.930 . S
H1087 C1104 0.930 . S
H1088 C1076 0.930 . S
H1089 C1077 0.930 . S
H1090 C1071 0.929 . S
H1091 C1109 0.930 . S
H1092 C1100 0.930 . S
H1093 C1101 0.930 . S
H1094 C1125 0.929 . S
H1095 C1083 0.930 . S
H1096 C1084 0.929 . S
H1097 C1126 0.930 . S
H1098 C1107 0.930 . S
N1099 Gd1068 2.661 . S
N1099 C1103 1.350 . S
N1099 C1104 1.307 . S
C1100 H1092 0.930 . S
C1100 C1101 1.355 . S
C1100 C1102 1.412 . S
C1101 H1093 0.930 . S
C1101 C1100 1.355 . S
C1101 C1104 1.402 . S
C1102 C1100 1.412 . S
C1102 C1103 1.417 . S
C1102 C1126 1.431 . S
C1103 N1099 1.350 . S
C1103 C1102 1.417 . S
C1103 C1106 1.426 . S
C1104 H1087 0.930 . S
C1104 N1099 1.307 . S
C1104 C1101 1.402 . S
N1105 Gd1068 2.601 . S
N1105 C1106 1.359 . S
N1105 C1109 1.334 . S
C1106 C1103 1.426 . S
C1106 N1105 1.359 . S
C1106 C1110 1.413 . S
C1107 H1098 0.930 . S
C1107 C1108 1.359 . S
C1107 C1109 1.394 . S
C1108 C1107 1.359 . S
C1108 C1110 1.391 . S
C1108 H1111 0.929 . S
C1109 H1091 0.930 . S
C1109 N1105 1.334 . S
C1109 C1107 1.394 . S
C1110 C1106 1.413 . S
C1110 C1108 1.391 . S
C1110 C1125 1.437 . S
H1111 C1108 0.929 . S
O1112 Gd1068 2.545 . S
O1112 C1127 1.258 . S
O1113 Gd1068 2.606 . S
O1113 Gd1069 2.362 . S
O1113 C1124 1.284 . S
O1114 Gd1069 2.324 . S
O1114 C1134 1.254 . S
O1115 Gd1068 2.429 . S
O1115 C1134 1.268 . S
O1116 Gd1068 2.545 . S
O1116 C1124 1.250 . S
O1117 Gd1068 2.412 . S
O1117 C1127 1.252 . S
O1118 Gd1069 2.545 . S
O1118 C1136 1.258 . S
O1119 Gd1068 2.362 . S
O1119 Gd1069 2.606 . S
O1119 C1135 1.284 . S
O1120 Gd1068 2.324 . S
O1120 C1143 1.254 . S
O1121 Gd1069 2.429 . S
O1121 C1143 1.268 . S
O1122 Gd1069 2.545 . S
O1122 C1135 1.250 . S
O1123 Gd1069 2.412 . S
O1123 C1136 1.252 . S
C1124 O1113 1.284 . S
C1124 O1116 1.250 . S
C1125 H1094 0.929 . S
C1125 C1110 1.437 . S
C1125 C1126 1.317 . S
C1126 H1097 0.930 . S
C1126 C1102 1.431 . S
C1126 C1125 1.317 . S
C1127 Gd1068 2.828 . S
C1127 O1112 1.258 . S
C1127 O1117 1.252 . S
C1127 C1128 1.497 . S
C1128 C1127 1.497 . S
C1128 C1129 1.395 . S
C1128 C1130 1.380 . S
C1129 C1128 1.395 . S
C1129 C1132 1.398 . S
C1129 H1144 0.930 . S
C1130 C1128 1.380 . S
C1130 C1131 1.391 . S
C1130 H1145 0.930 . S
C1131 C1130 1.391 . S
C1131 C1133 1.387 . S
C1132 C1129 1.398 . S
C1132 C1133 1.380 . S
C1132 H1146 0.930 . S
C1133 C1131 1.387 . S
C1133 C1132 1.380 . S
C1133 H1147 0.930 . S
C1134 O1114 1.254 . S
C1134 O1115 1.268 . S
C1135 O1119 1.284 . S
C1135 O1122 1.250 . S
C1136 Gd1069 2.828 . S
C1136 O1118 1.258 . S
C1136 O1123 1.252 . S
C1136 C1137 1.497 . S
C1137 C1136 1.497 . S
C1137 C1138 1.395 . S
C1137 C1139 1.380 . S
C1138 C1137 1.395 . S
C1138 C1141 1.398 1_655 S
C1138 H1148 0.930 . S
C1139 C1137 1.380 . S
C1139 C1140 1.391 1_655 S
C1139 H1149 0.930 . S
C1140 C1139 1.391 1_455 S
C1140 C1142 1.387 . S
C1141 C1138 1.398 1_455 S
C1141 C1142 1.380 . S
C1141 H1150 0.930 . S
C1142 C1140 1.387 . S
C1142 C1141 1.380 . S
C1142 H1151 0.930 . S
C1143 O1120 1.254 . S
C1143 O1121 1.268 . S
H1144 C1129 0.930 . S
H1145 C1130 0.930 . S
H1146 C1132 0.930 . S
H1147 C1133 0.930 . S
H1148 C1138 0.930 . S
H1149 C1139 0.930 . S
H1150 C1141 0.930 . S
H1151 C1142 0.930 . S
Gd1152 N1183 2.661 . S
Gd1152 N1189 2.601 . S
Gd1152 O1196 2.545 . S
Gd1152 O1197 2.606 . S
Gd1152 O1199 2.429 . S
Gd1152 O1200 2.545 . S
Gd1152 O1201 2.412 . S
Gd1152 O1203 2.362 . S
Gd1152 O1204 2.324 . S
Gd1152 C1211 2.828 . S
Gd1153 N1162 2.661 . S
Gd1153 N1166 2.601 . S
Gd1153 O1197 2.362 . S
Gd1153 O1198 2.324 . S
Gd1153 O1202 2.545 . S
Gd1153 O1203 2.606 . S
Gd1153 O1205 2.429 . S
Gd1153 O1206 2.545 . S
Gd1153 O1207 2.412 . S
Gd1153 C1220 2.828 . S
C1154 C1157 1.417 . S
C1154 C1159 1.431 . S
C1154 C1160 1.412 . S
C1155 C1158 1.437 . S
C1155 C1159 1.317 . S
C1155 H1174 0.929 . S
C1156 C1157 1.426 . S
C1156 C1158 1.413 . S
C1156 N1166 1.359 . S
C1157 C1154 1.417 . S
C1157 C1156 1.426 . S
C1157 N1162 1.350 . S
C1158 C1155 1.437 . S
C1158 C1156 1.413 . S
C1158 C1168 1.391 . S
C1159 C1154 1.431 . S
C1159 C1155 1.317 . S
C1159 H1170 0.930 . S
C1160 C1154 1.412 . S
C1160 C1161 1.355 . S
C1160 H1172 0.930 . S
C1161 C1160 1.355 . S
C1161 C1163 1.402 . S
C1161 H1173 0.930 . S
N1162 Gd1153 2.661 . S
N1162 C1157 1.350 . S
N1162 C1163 1.307 . S
C1163 C1161 1.402 . S
C1163 N1162 1.307 . S
C1163 H1164 0.930 . S
H1164 C1163 0.930 . S
C1165 N1166 1.334 . S
C1165 C1167 1.394 . S
C1165 H1169 0.930 . S
N1166 Gd1153 2.601 . S
N1166 C1156 1.359 . S
N1166 C1165 1.334 . S
C1167 C1165 1.394 . S
C1167 C1168 1.359 . S
C1167 H1179 0.930 . S
C1168 C1158 1.391 . S
C1168 C1167 1.359 . S
C1168 H1180 0.929 . S
H1169 C1165 0.930 . S
H1170 C1159 0.930 . S
H1171 C1188 0.930 . S
H1172 C1160 0.930 . S
H1173 C1161 0.930 . S
H1174 C1155 0.929 . S
H1175 C1193 0.930 . S
H1176 C1184 0.930 . S
H1177 C1185 0.930 . S
H1178 C1209 0.929 . S
H1179 C1167 0.930 . S
H1180 C1168 0.929 . S
H1181 C1210 0.930 . S
H1182 C1191 0.927 . S
N1183 Gd1152 2.661 . S
N1183 C1187 1.350 1_455 S
N1183 C1188 1.307 . S
C1184 H1176 0.930 . S
C1184 C1185 1.355 . S
C1184 C1186 1.412 . S
C1185 H1177 0.930 . S
C1185 C1184 1.355 . S
C1185 C1188 1.402 1_655 S
C1186 C1184 1.412 . S
C1186 C1187 1.417 . S
C1186 C1210 1.431 . S
C1187 N1183 1.350 1_655 S
C1187 C1186 1.417 . S
C1187 C1190 1.426 . S
C1188 H1171 0.930 . S
C1188 N1183 1.307 . S
C1188 C1185 1.402 1_455 S
N1189 Gd1152 2.601 . S
N1189 C1190 1.359 1_455 S
N1189 C1193 1.334 . S
C1190 C1187 1.426 . S
C1190 N1189 1.359 1_655 S
C1190 C1194 1.413 . S
C1191 H1182 0.927 . S
C1191 C1192 1.359 . S
C1191 C1193 1.394 1_655 S
C1192 C1191 1.359 . S
C1192 C1194 1.391 . S
C1192 H1195 0.929 . S
C1193 H1175 0.930 . S
C1193 N1189 1.334 . S
C1193 C1191 1.394 1_455 S
C1194 C1190 1.413 . S
C1194 C1192 1.391 . S
C1194 C1209 1.437 . S
H1195 C1192 0.929 . S
O1196 Gd1152 2.545 . S
O1196 C1211 1.258 . S
O1197 Gd1152 2.606 . S
O1197 Gd1153 2.362 . S
O1197 C1208 1.284 . S
O1198 Gd1153 2.324 . S
O1198 C1218 1.254 . S
O1199 Gd1152 2.429 . S
O1199 C1218 1.268 . S
O1200 Gd1152 2.545 . S
O1200 C1208 1.250 . S
O1201 Gd1152 2.412 . S
O1201 C1211 1.252 . S
O1202 Gd1153 2.545 . S
O1202 C1220 1.258 . S
O1203 Gd1152 2.362 . S
O1203 Gd1153 2.606 . S
O1203 C1219 1.284 . S
O1204 Gd1152 2.324 . S
O1204 C1227 1.254 . S
O1205 Gd1153 2.429 . S
O1205 C1227 1.268 . S
O1206 Gd1153 2.545 . S
O1206 C1219 1.250 . S
O1207 Gd1153 2.412 . S
O1207 C1220 1.252 . S
C1208 O1197 1.284 . S
C1208 O1200 1.250 . S
C1209 H1178 0.929 . S
C1209 C1194 1.437 . S
C1209 C1210 1.317 . S
C1210 H1181 0.930 . S
C1210 C1186 1.431 . S
C1210 C1209 1.317 . S
C1211 Gd1152 2.828 . S
C1211 O1196 1.258 . S
C1211 O1201 1.252 . S
C1211 C1212 1.497 . S
C1212 C1211 1.497 . S
C1212 C1213 1.395 . S
C1212 C1214 1.380 . S
C1213 C1212 1.395 . S
C1213 C1216 1.398 . S
C1213 H1228 0.930 . S
C1214 C1212 1.380 . S
C1214 C1215 1.391 . S
C1214 H1229 0.930 . S
C1215 C1214 1.391 . S
C1215 C1217 1.387 . S
C1216 C1213 1.398 . S
C1216 C1217 1.380 . S
C1216 H1230 0.930 . S
C1217 C1215 1.387 . S
C1217 C1216 1.380 . S
C1217 H1231 0.930 . S
C1218 O1198 1.254 . S
C1218 O1199 1.268 . S
C1219 O1203 1.284 . S
C1219 O1206 1.250 . S
C1220 Gd1153 2.828 . S
C1220 O1202 1.258 . S
C1220 O1207 1.252 . S
C1220 C1221 1.497 . S
C1221 C1220 1.497 . S
C1221 C1222 1.395 . S
C1221 C1223 1.380 . S
C1222 C1221 1.395 . S
C1222 C1225 1.398 . S
C1222 H1232 0.930 . S
C1223 C1221 1.380 . S
C1223 C1224 1.391 1_455 S
C1223 H1233 0.930 . S
C1224 C1223 1.391 1_655 S
C1224 C1226 1.387 . S
C1225 C1222 1.398 . S
C1225 C1226 1.380 1_455 S
C1225 H1234 0.930 . S
C1226 C1224 1.387 . S
C1226 C1225 1.380 1_655 S
C1226 H1235 0.930 . S
C1227 O1204 1.254 . S
C1227 O1205 1.268 . S
H1228 C1213 0.930 . S
H1229 C1214 0.930 . S
H1230 C1216 0.930 . S
H1231 C1217 0.930 . S
H1232 C1222 0.930 . S
H1233 C1223 0.930 . S
H1234 C1225 0.930 . S
H1235 C1226 0.930 . S
Gd1236 N1267 2.661 . S
Gd1236 N1273 2.601 . S
Gd1236 O1280 2.545 . S
Gd1236 O1281 2.606 . S
Gd1236 O1283 2.429 . S
Gd1236 O1284 2.545 . S
Gd1236 O1285 2.412 . S
Gd1236 O1287 2.362 . S
Gd1236 O1288 2.324 . S
Gd1236 C1295 2.828 . S
Gd1237 N1246 2.661 . S
Gd1237 N1250 2.601 . S
Gd1237 O1281 2.362 . S
Gd1237 O1282 2.324 . S
Gd1237 O1286 2.545 . S
Gd1237 O1287 2.606 . S
Gd1237 O1289 2.429 . S
Gd1237 O1290 2.545 . S
Gd1237 O1291 2.412 . S
Gd1237 C1304 2.828 . S
C1238 C1241 1.417 . S
C1238 C1243 1.431 . S
C1238 C1244 1.412 . S
C1239 C1242 1.437 . S
C1239 C1243 1.317 . S
C1239 H1258 0.929 . S
C1240 C1241 1.426 . S
C1240 C1242 1.413 . S
C1240 N1250 1.359 . S
C1241 C1238 1.417 . S
C1241 C1240 1.426 . S
C1241 N1246 1.350 . S
C1242 C1239 1.437 . S
C1242 C1240 1.413 . S
C1242 C1252 1.391 . S
C1243 C1238 1.431 . S
C1243 C1239 1.317 . S
C1243 H1254 0.930 . S
C1244 C1238 1.412 . S
C1244 C1245 1.355 . S
C1244 H1256 0.930 . S
C1245 C1244 1.355 . S
C1245 C1247 1.402 . S
C1245 H1257 0.930 . S
N1246 Gd1237 2.661 . S
N1246 C1241 1.350 . S
N1246 C1247 1.307 . S
C1247 C1245 1.402 . S
C1247 N1246 1.307 . S
C1247 H1248 0.930 . S
H1248 C1247 0.930 . S
C1249 N1250 1.334 . S
C1249 C1251 1.394 . S
C1249 H1253 0.930 . S
N1250 Gd1237 2.601 . S
N1250 C1240 1.359 . S
N1250 C1249 1.334 . S
C1251 C1249 1.394 . S
C1251 C1252 1.359 . S
C1251 H1263 0.930 . S
C1252 C1242 1.391 . S
C1252 C1251 1.359 . S
C1252 H1264 0.929 . S
H1253 C1249 0.930 . S
H1254 C1243 0.930 . S
H1255 C1272 0.930 . S
H1256 C1244 0.930 . S
H1257 C1245 0.930 . S
H1258 C1239 0.929 . S
H1259 C1277 0.930 . S
H1260 C1268 0.930 . S
H1261 C1269 0.930 . S
H1262 C1293 0.929 . S
H1263 C1251 0.930 . S
H1264 C1252 0.929 . S
H1265 C1294 0.930 . S
H1266 C1275 0.930 . S
N1267 Gd1236 2.661 . S
N1267 C1271 1.350 . S
N1267 C1272 1.307 . S
C1268 H1260 0.930 . S
C1268 C1269 1.355 . S
C1268 C1270 1.412 . S
C1269 H1261 0.930 . S
C1269 C1268 1.355 . S
C1269 C1272 1.402 . S
C1270 C1268 1.412 . S
C1270 C1271 1.417 . S
C1270 C1294 1.431 . S
C1271 N1267 1.350 . S
C1271 C1270 1.417 . S
C1271 C1274 1.426 . S
C1272 H1255 0.930 . S
C1272 N1267 1.307 . S
C1272 C1269 1.402 . S
N1273 Gd1236 2.601 . S
N1273 C1274 1.359 . S
N1273 C1277 1.334 . S
C1274 C1271 1.426 . S
C1274 N1273 1.359 . S
C1274 C1278 1.413 . S
C1275 H1266 0.930 . S
C1275 C1276 1.359 . S
C1275 C1277 1.394 . S
C1276 C1275 1.359 . S
C1276 C1278 1.391 . S
C1276 H1279 0.929 . S
C1277 H1259 0.930 . S
C1277 N1273 1.334 . S
C1277 C1275 1.394 . S
C1278 C1274 1.413 . S
C1278 C1276 1.391 . S
C1278 C1293 1.437 . S
H1279 C1276 0.929 . S
O1280 Gd1236 2.545 . S
O1280 C1295 1.258 . S
O1281 Gd1236 2.606 . S
O1281 Gd1237 2.362 . S
O1281 C1292 1.284 . S
O1282 Gd1237 2.324 . S
O1282 C1302 1.254 . S
O1283 Gd1236 2.429 . S
O1283 C1302 1.268 . S
O1284 Gd1236 2.545 . S
O1284 C1292 1.250 . S
O1285 Gd1236 2.412 . S
O1285 C1295 1.252 . S
O1286 Gd1237 2.545 . S
O1286 C1304 1.258 . S
O1287 Gd1236 2.362 . S
O1287 Gd1237 2.606 . S
O1287 C1303 1.284 . S
O1288 Gd1236 2.324 . S
O1288 C1311 1.254 . S
O1289 Gd1237 2.429 . S
O1289 C1311 1.268 . S
O1290 Gd1237 2.545 . S
O1290 C1303 1.250 . S
O1291 Gd1237 2.412 . S
O1291 C1304 1.252 . S
C1292 O1281 1.284 . S
C1292 O1284 1.250 . S
C1293 H1262 0.929 . S
C1293 C1278 1.437 . S
C1293 C1294 1.317 . S
C1294 H1265 0.930 . S
C1294 C1270 1.431 . S
C1294 C1293 1.317 . S
C1295 Gd1236 2.828 . S
C1295 O1280 1.258 . S
C1295 O1285 1.252 . S
C1295 C1296 1.497 . S
C1296 C1295 1.497 . S
C1296 C1297 1.395 . S
C1296 C1298 1.380 . S
C1297 C1296 1.395 . S
C1297 C1300 1.398 . S
C1297 H1312 0.930 . S
C1298 C1296 1.380 . S
C1298 C1299 1.391 . S
C1298 H1313 0.930 . S
C1299 C1298 1.391 . S
C1299 C1301 1.387 . S
C1300 C1297 1.398 . S
C1300 C1301 1.380 . S
C1300 H1314 0.930 . S
C1301 C1299 1.387 . S
C1301 C1300 1.380 . S
C1301 H1315 0.929 1_655 S
C1302 O1282 1.254 . S
C1302 O1283 1.268 . S
C1303 O1287 1.284 . S
C1303 O1290 1.250 . S
C1304 Gd1237 2.828 . S
C1304 O1286 1.258 . S
C1304 O1291 1.252 . S
C1304 C1305 1.497 . S
C1305 C1304 1.497 . S
C1305 C1306 1.395 . S
C1305 C1307 1.380 . S
C1306 C1305 1.395 . S
C1306 C1309 1.398 . S
C1306 H1316 0.930 . S
C1307 C1305 1.380 . S
C1307 C1308 1.391 . S
C1307 H1317 0.930 . S
C1308 C1307 1.391 . S
C1308 C1310 1.387 . S
C1309 C1306 1.398 . S
C1309 C1310 1.380 . S
C1309 H1318 0.930 . S
C1310 C1308 1.387 . S
C1310 C1309 1.380 . S
C1310 H1319 0.930 . S
C1311 O1288 1.254 . S
C1311 O1289 1.268 . S
H1312 C1297 0.930 . S
H1313 C1298 0.930 . S
H1314 C1300 0.930 . S
H1315 C1301 0.929 1_455 S
H1316 C1306 0.930 . S
H1317 C1307 0.930 . S
H1318 C1309 0.930 . S
H1319 C1310 0.930 . S
Gd1320 N1351 2.661 . S
Gd1320 N1357 2.601 . S
Gd1320 O1364 2.545 . S
Gd1320 O1365 2.606 . S
Gd1320 O1367 2.429 . S
Gd1320 O1368 2.545 . S
Gd1320 O1369 2.412 . S
Gd1320 O1371 2.362 . S
Gd1320 O1372 2.324 . S
Gd1320 C1379 2.828 . S
Gd1321 N1330 2.661 . S
Gd1321 N1334 2.601 . S
Gd1321 O1365 2.362 . S
Gd1321 O1366 2.324 . S
Gd1321 O1370 2.545 . S
Gd1321 O1371 2.606 . S
Gd1321 O1373 2.429 . S
Gd1321 O1374 2.545 . S
Gd1321 O1375 2.412 . S
Gd1321 C1388 2.828 . S
C1322 C1325 1.417 . S
C1322 C1327 1.431 . S
C1322 C1328 1.412 . S
C1323 C1326 1.437 . S
C1323 C1327 1.317 . S
C1323 H1342 0.929 . S
C1324 C1325 1.426 . S
C1324 C1326 1.413 . S
C1324 N1334 1.359 . S
C1325 C1322 1.417 . S
C1325 C1324 1.426 . S
C1325 N1330 1.350 . S
C1326 C1323 1.437 . S
C1326 C1324 1.413 . S
C1326 C1336 1.391 . S
C1327 C1322 1.431 . S
C1327 C1323 1.317 . S
C1327 H1338 0.930 . S
C1328 C1322 1.412 . S
C1328 C1329 1.355 . S
C1328 H1340 0.930 . S
C1329 C1328 1.355 . S
C1329 C1331 1.402 . S
C1329 H1341 0.930 . S
N1330 Gd1321 2.661 . S
N1330 C1325 1.350 . S
N1330 C1331 1.307 . S
C1331 C1329 1.402 . S
C1331 N1330 1.307 . S
C1331 H1332 0.930 . S
H1332 C1331 0.930 . S
C1333 N1334 1.334 . S
C1333 C1335 1.394 . S
C1333 H1337 0.930 . S
N1334 Gd1321 2.601 . S
N1334 C1324 1.359 . S
N1334 C1333 1.334 . S
C1335 C1333 1.394 . S
C1335 C1336 1.359 . S
C1335 H1347 0.930 . S
C1336 C1326 1.391 . S
C1336 C1335 1.359 . S
C1336 H1348 0.929 . S
H1337 C1333 0.930 . S
H1338 C1327 0.930 . S
H1339 C1356 0.930 . S
H1340 C1328 0.930 . S
H1341 C1329 0.930 . S
H1342 C1323 0.929 . S
H1343 C1361 0.930 . S
H1344 C1352 0.930 . S
H1345 C1353 0.930 . S
H1346 C1377 0.929 . S
H1347 C1335 0.930 . S
H1348 C1336 0.929 . S
H1349 C1378 0.930 . S
H1350 C1359 0.930 . S
N1351 Gd1320 2.661 . S
N1351 C1355 1.350 . S
N1351 C1356 1.307 . S
C1352 H1344 0.930 . S
C1352 C1353 1.355 . S
C1352 C1354 1.412 . S
C1353 H1345 0.930 . S
C1353 C1352 1.355 . S
C1353 C1356 1.402 . S
C1354 C1352 1.412 . S
C1354 C1355 1.417 . S
C1354 C1378 1.431 . S
C1355 N1351 1.350 . S
C1355 C1354 1.417 . S
C1355 C1358 1.426 . S
C1356 H1339 0.930 . S
C1356 N1351 1.307 . S
C1356 C1353 1.402 . S
N1357 Gd1320 2.601 . S
N1357 C1358 1.359 . S
N1357 C1361 1.334 . S
C1358 C1355 1.426 . S
C1358 N1357 1.359 . S
C1358 C1362 1.413 . S
C1359 H1350 0.930 . S
C1359 C1360 1.359 . S
C1359 C1361 1.394 . S
C1360 C1359 1.359 . S
C1360 C1362 1.391 . S
C1360 H1363 0.929 . S
C1361 H1343 0.930 . S
C1361 N1357 1.334 . S
C1361 C1359 1.394 . S
C1362 C1358 1.413 . S
C1362 C1360 1.391 . S
C1362 C1377 1.437 . S
H1363 C1360 0.929 . S
O1364 Gd1320 2.545 . S
O1364 C1379 1.258 . S
O1365 Gd1320 2.606 . S
O1365 Gd1321 2.362 . S
O1365 C1376 1.284 . S
O1366 Gd1321 2.324 . S
O1366 C1386 1.254 . S
O1367 Gd1320 2.429 . S
O1367 C1386 1.268 . S
O1368 Gd1320 2.545 . S
O1368 C1376 1.250 . S
O1369 Gd1320 2.412 . S
O1369 C1379 1.252 . S
O1370 Gd1321 2.545 . S
O1370 C1388 1.258 . S
O1371 Gd1320 2.362 . S
O1371 Gd1321 2.606 . S
O1371 C1387 1.284 . S
O1372 Gd1320 2.324 . S
O1372 C1395 1.254 . S
O1373 Gd1321 2.429 . S
O1373 C1395 1.268 . S
O1374 Gd1321 2.545 . S
O1374 C1387 1.250 . S
O1375 Gd1321 2.412 . S
O1375 C1388 1.252 . S
C1376 O1365 1.284 . S
C1376 O1368 1.250 . S
C1377 H1346 0.929 . S
C1377 C1362 1.437 . S
C1377 C1378 1.317 . S
C1378 H1349 0.930 . S
C1378 C1354 1.431 . S
C1378 C1377 1.317 . S
C1379 Gd1320 2.828 . S
C1379 O1364 1.258 . S
C1379 O1369 1.252 . S
C1379 C1380 1.497 . S
C1380 C1379 1.497 . S
C1380 C1381 1.395 . S
C1380 C1382 1.380 . S
C1381 C1380 1.395 . S
C1381 C1384 1.398 . S
C1381 H1396 0.930 . S
C1382 C1380 1.380 . S
C1382 C1383 1.391 . S
C1382 H1397 0.930 . S
C1383 C1382 1.391 . S
C1383 C1385 1.387 . S
C1384 C1381 1.398 . S
C1384 C1385 1.380 . S
C1384 H1398 0.930 . S
C1385 C1383 1.387 . S
C1385 C1384 1.380 . S
C1385 H1399 0.930 . S
C1386 O1366 1.254 . S
C1386 O1367 1.268 . S
C1387 O1371 1.284 . S
C1387 O1374 1.250 . S
C1388 Gd1321 2.828 . S
C1388 O1370 1.258 . S
C1388 O1375 1.252 . S
C1388 C1389 1.497 . S
C1389 C1388 1.497 . S
C1389 C1390 1.395 . S
C1389 C1391 1.380 . S
C1390 C1389 1.395 . S
C1390 C1393 1.398 . S
C1390 H1400 0.930 . S
C1391 C1389 1.380 . S
C1391 C1392 1.391 . S
C1391 H1401 0.930 . S
C1392 C1391 1.391 . S
C1392 C1394 1.387 . S
C1393 C1390 1.398 . S
C1393 C1394 1.380 . S
C1393 H1402 0.930 . S
C1394 C1392 1.387 . S
C1394 C1393 1.380 . S
C1394 H1403 0.930 . S
C1395 O1372 1.254 . S
C1395 O1373 1.268 . S
H1396 C1381 0.930 . S
H1397 C1382 0.930 . S
H1398 C1384 0.930 . S
H1399 C1385 0.930 . S
H1400 C1390 0.930 . S
H1401 C1391 0.930 . S
H1402 C1393 0.930 . S
H1403 C1394 0.930 . S
Gd1404 N1435 2.661 . S
Gd1404 N1441 2.601 . S
Gd1404 O1448 2.545 . S
Gd1404 O1449 2.606 . S
Gd1404 O1451 2.429 . S
Gd1404 O1452 2.545 . S
Gd1404 O1453 2.412 . S
Gd1404 O1455 2.362 . S
Gd1404 O1456 2.324 . S
Gd1404 C1463 2.828 . S
Gd1405 N1414 2.661 . S
Gd1405 N1418 2.601 . S
Gd1405 O1449 2.362 . S
Gd1405 O1450 2.324 . S
Gd1405 O1454 2.545 . S
Gd1405 O1455 2.606 . S
Gd1405 O1457 2.429 . S
Gd1405 O1458 2.545 . S
Gd1405 O1459 2.412 . S
Gd1405 C1472 2.828 . S
C1406 C1409 1.417 . S
C1406 C1411 1.431 . S
C1406 C1412 1.412 . S
C1407 C1410 1.437 . S
C1407 C1411 1.317 . S
C1407 H1426 0.929 . S
C1408 C1409 1.426 . S
C1408 C1410 1.413 . S
C1408 N1418 1.359 . S
C1409 C1406 1.417 . S
C1409 C1408 1.426 . S
C1409 N1414 1.350 . S
C1410 C1407 1.437 . S
C1410 C1408 1.413 . S
C1410 C1420 1.391 . S
C1411 C1406 1.431 . S
C1411 C1407 1.317 . S
C1411 H1422 0.930 . S
C1412 C1406 1.412 . S
C1412 C1413 1.355 . S
C1412 H1424 0.930 . S
C1413 C1412 1.355 . S
C1413 C1415 1.402 . S
C1413 H1425 0.930 . S
N1414 Gd1405 2.661 . S
N1414 C1409 1.350 . S
N1414 C1415 1.307 . S
C1415 C1413 1.402 . S
C1415 N1414 1.307 . S
C1415 H1416 0.930 . S
H1416 C1415 0.930 . S
C1417 N1418 1.334 . S
C1417 C1419 1.394 . S
C1417 H1421 0.930 . S
N1418 Gd1405 2.601 . S
N1418 C1408 1.359 . S
N1418 C1417 1.334 . S
C1419 C1417 1.394 . S
C1419 C1420 1.359 . S
C1419 H1431 0.930 . S
C1420 C1410 1.391 . S
C1420 C1419 1.359 . S
C1420 H1432 0.929 . S
H1421 C1417 0.930 . S
H1422 C1411 0.930 . S
H1423 C1440 0.930 . S
H1424 C1412 0.930 . S
H1425 C1413 0.930 . S
H1426 C1407 0.929 . S
H1427 C1445 0.930 . S
H1428 C1436 0.930 . S
H1429 C1437 0.930 . S
H1430 C1461 0.929 . S
H1431 C1419 0.930 . S
H1432 C1420 0.929 . S
H1433 C1462 0.930 . S
H1434 C1443 0.930 . S
N1435 Gd1404 2.661 . S
N1435 C1439 1.350 . S
N1435 C1440 1.307 . S
C1436 H1428 0.930 . S
C1436 C1437 1.355 . S
C1436 C1438 1.412 . S
C1437 H1429 0.930 . S
C1437 C1436 1.355 . S
C1437 C1440 1.402 . S
C1438 C1436 1.412 . S
C1438 C1439 1.417 . S
C1438 C1462 1.431 . S
C1439 N1435 1.350 . S
C1439 C1438 1.417 . S
C1439 C1442 1.426 . S
C1440 H1423 0.930 . S
C1440 N1435 1.307 . S
C1440 C1437 1.402 . S
N1441 Gd1404 2.601 . S
N1441 C1442 1.359 . S
N1441 C1445 1.334 . S
C1442 C1439 1.426 . S
C1442 N1441 1.359 . S
C1442 C1446 1.413 . S
C1443 H1434 0.930 . S
C1443 C1444 1.359 . S
C1443 C1445 1.394 . S
C1444 C1443 1.359 . S
C1444 C1446 1.391 . S
C1444 H1447 0.929 . S
C1445 H1427 0.930 . S
C1445 N1441 1.334 . S
C1445 C1443 1.394 . S
C1446 C1442 1.413 . S
C1446 C1444 1.391 . S
C1446 C1461 1.437 . S
H1447 C1444 0.929 . S
O1448 Gd1404 2.545 . S
O1448 C1463 1.258 . S
O1449 Gd1404 2.606 . S
O1449 Gd1405 2.362 . S
O1449 C1460 1.284 . S
O1450 Gd1405 2.324 . S
O1450 C1470 1.254 . S
O1451 Gd1404 2.429 . S
O1451 C1470 1.268 . S
O1452 Gd1404 2.545 . S
O1452 C1460 1.250 . S
O1453 Gd1404 2.412 . S
O1453 C1463 1.252 . S
O1454 Gd1405 2.545 . S
O1454 C1472 1.258 . S
O1455 Gd1404 2.362 . S
O1455 Gd1405 2.606 . S
O1455 C1471 1.284 . S
O1456 Gd1404 2.324 . S
O1456 C1479 1.254 . S
O1457 Gd1405 2.429 . S
O1457 C1479 1.268 . S
O1458 Gd1405 2.545 . S
O1458 C1471 1.250 . S
O1459 Gd1405 2.412 . S
O1459 C1472 1.252 . S
C1460 O1449 1.284 . S
C1460 O1452 1.250 . S
C1461 H1430 0.929 . S
C1461 C1446 1.437 . S
C1461 C1462 1.317 . S
C1462 H1433 0.930 . S
C1462 C1438 1.431 . S
C1462 C1461 1.317 . S
C1463 Gd1404 2.828 . S
C1463 O1448 1.258 . S
C1463 O1453 1.252 . S
C1463 C1464 1.497 . S
C1464 C1463 1.497 . S
C1464 C1465 1.395 . S
C1464 C1466 1.380 . S
C1465 C1464 1.395 . S
C1465 C1468 1.398 . S
C1465 H1480 0.930 . S
C1466 C1464 1.380 . S
C1466 C1467 1.391 . S
C1466 H1481 0.930 . S
C1467 C1466 1.391 . S
C1467 C1469 1.387 . S
C1468 C1465 1.398 . S
C1468 C1469 1.380 . S
C1468 H1482 0.930 . S
C1469 C1467 1.387 . S
C1469 C1468 1.380 . S
C1469 H1483 0.930 . S
C1470 O1450 1.254 . S
C1470 O1451 1.268 . S
C1471 O1455 1.284 . S
C1471 O1458 1.250 . S
C1472 Gd1405 2.828 . S
C1472 O1454 1.258 . S
C1472 O1459 1.252 . S
C1472 C1473 1.497 . S
C1473 C1472 1.497 . S
C1473 C1474 1.395 . S
C1473 C1475 1.380 . S
C1474 C1473 1.395 . S
C1474 C1477 1.398 . S
C1474 H1484 0.930 . S
C1475 C1473 1.380 . S
C1475 C1476 1.391 . S
C1475 H1485 0.930 . S
C1476 C1475 1.391 . S
C1476 C1478 1.387 . S
C1477 C1474 1.398 . S
C1477 C1478 1.380 . S
C1477 H1486 0.930 . S
C1478 C1476 1.387 . S
C1478 C1477 1.380 . S
C1478 H1487 0.930 . S
C1479 O1456 1.254 . S
C1479 O1457 1.268 . S
H1480 C1465 0.930 . S
H1481 C1466 0.930 . S
H1482 C1468 0.930 . S
H1483 C1469 0.930 . S
H1484 C1474 0.930 . S
H1485 C1475 0.930 . S
H1486 C1477 0.930 . S
H1487 C1478 0.930 . S
Gd1488 N1519 2.661 . S
Gd1488 N1525 2.601 . S
Gd1488 O1532 2.545 . S
Gd1488 O1533 2.606 . S
Gd1488 O1535 2.429 . S
Gd1488 O1536 2.545 . S
Gd1488 O1537 2.412 . S
Gd1488 O1539 2.362 . S
Gd1488 O1540 2.324 . S
Gd1488 C1547 2.828 . S
Gd1489 N1498 2.661 . S
Gd1489 N1502 2.601 . S
Gd1489 O1533 2.362 . S
Gd1489 O1534 2.324 . S
Gd1489 O1538 2.545 . S
Gd1489 O1539 2.606 . S
Gd1489 O1541 2.429 . S
Gd1489 O1542 2.545 . S
Gd1489 O1543 2.412 . S
Gd1489 C1556 2.828 . S
C1490 C1493 1.417 . S
C1490 C1495 1.431 . S
C1490 C1496 1.412 . S
C1491 C1494 1.437 . S
C1491 C1495 1.317 . S
C1491 H1510 0.929 . S
C1492 C1493 1.426 . S
C1492 C1494 1.413 . S
C1492 N1502 1.359 . S
C1493 C1490 1.417 . S
C1493 C1492 1.426 . S
C1493 N1498 1.350 . S
C1494 C1491 1.437 . S
C1494 C1492 1.413 . S
C1494 C1504 1.391 . S
C1495 C1490 1.431 . S
C1495 C1491 1.317 . S
C1495 H1506 0.930 . S
C1496 C1490 1.412 . S
C1496 C1497 1.355 . S
C1496 H1508 0.930 . S
C1497 C1496 1.355 . S
C1497 C1499 1.402 . S
C1497 H1509 0.930 . S
N1498 Gd1489 2.661 . S
N1498 C1493 1.350 . S
N1498 C1499 1.307 . S
C1499 C1497 1.402 . S
C1499 N1498 1.307 . S
C1499 H1500 0.930 . S
H1500 C1499 0.930 . S
C1501 N1502 1.334 . S
C1501 C1503 1.394 . S
C1501 H1505 0.930 . S
N1502 Gd1489 2.601 . S
N1502 C1492 1.359 . S
N1502 C1501 1.334 . S
C1503 C1501 1.394 . S
C1503 C1504 1.359 . S
C1503 H1515 0.930 . S
C1504 C1494 1.391 . S
C1504 C1503 1.359 . S
C1504 H1516 0.929 . S
H1505 C1501 0.930 . S
H1506 C1495 0.930 . S
H1507 C1524 0.930 . S
H1508 C1496 0.930 . S
H1509 C1497 0.930 . S
H1510 C1491 0.929 . S
H1511 C1529 0.930 . S
H1512 C1520 0.930 . S
H1513 C1521 0.930 . S
H1514 C1545 0.929 . S
H1515 C1503 0.930 . S
H1516 C1504 0.929 . S
H1517 C1546 0.930 . S
H1518 C1527 0.930 . S
N1519 Gd1488 2.661 . S
N1519 C1523 1.350 . S
N1519 C1524 1.307 . S
C1520 H1512 0.930 . S
C1520 C1521 1.355 . S
C1520 C1522 1.412 . S
C1521 H1513 0.930 . S
C1521 C1520 1.355 . S
C1521 C1524 1.402 . S
C1522 C1520 1.412 . S
C1522 C1523 1.417 . S
C1522 C1546 1.431 . S
C1523 N1519 1.350 . S
C1523 C1522 1.417 . S
C1523 C1526 1.426 . S
C1524 H1507 0.930 . S
C1524 N1519 1.307 . S
C1524 C1521 1.402 . S
N1525 Gd1488 2.601 . S
N1525 C1526 1.359 . S
N1525 C1529 1.334 . S
C1526 C1523 1.426 . S
C1526 N1525 1.359 . S
C1526 C1530 1.413 . S
C1527 H1518 0.930 . S
C1527 C1528 1.359 . S
C1527 C1529 1.394 . S
C1528 C1527 1.359 . S
C1528 C1530 1.391 . S
C1528 H1531 0.929 . S
C1529 H1511 0.930 . S
C1529 N1525 1.334 . S
C1529 C1527 1.394 . S
C1530 C1526 1.413 . S
C1530 C1528 1.391 . S
C1530 C1545 1.437 . S
H1531 C1528 0.929 . S
O1532 Gd1488 2.545 . S
O1532 C1547 1.258 . S
O1533 Gd1488 2.606 . S
O1533 Gd1489 2.362 . S
O1533 C1544 1.284 . S
O1534 Gd1489 2.324 . S
O1534 C1554 1.254 . S
O1535 Gd1488 2.429 . S
O1535 C1554 1.268 . S
O1536 Gd1488 2.545 . S
O1536 C1544 1.250 . S
O1537 Gd1488 2.412 . S
O1537 C1547 1.252 . S
O1538 Gd1489 2.545 . S
O1538 C1556 1.258 . S
O1539 Gd1488 2.362 . S
O1539 Gd1489 2.606 . S
O1539 C1555 1.284 . S
O1540 Gd1488 2.324 . S
O1540 C1563 1.254 . S
O1541 Gd1489 2.429 . S
O1541 C1563 1.268 . S
O1542 Gd1489 2.545 . S
O1542 C1555 1.250 . S
O1543 Gd1489 2.412 . S
O1543 C1556 1.252 . S
C1544 O1533 1.284 . S
C1544 O1536 1.250 . S
C1545 H1514 0.929 . S
C1545 C1530 1.437 . S
C1545 C1546 1.317 . S
C1546 H1517 0.930 . S
C1546 C1522 1.431 . S
C1546 C1545 1.317 . S
C1547 Gd1488 2.828 . S
C1547 O1532 1.258 . S
C1547 O1537 1.252 . S
C1547 C1548 1.497 . S
C1548 C1547 1.497 . S
C1548 C1549 1.395 . S
C1548 C1550 1.380 . S
C1549 C1548 1.395 . S
C1549 C1552 1.398 . S
C1549 H1564 0.930 . S
C1550 C1548 1.380 . S
C1550 C1551 1.391 . S
C1550 H1565 0.930 . S
C1551 C1550 1.391 . S
C1551 C1553 1.387 . S
C1552 C1549 1.398 . S
C1552 C1553 1.380 . S
C1552 H1566 0.930 . S
C1553 C1551 1.387 . S
C1553 C1552 1.380 . S
C1553 H1567 0.930 . S
C1554 O1534 1.254 . S
C1554 O1535 1.268 . S
C1555 O1539 1.284 . S
C1555 O1542 1.250 . S
C1556 Gd1489 2.828 . S
C1556 O1538 1.258 . S
C1556 O1543 1.252 . S
C1556 C1557 1.497 . S
C1557 C1556 1.497 . S
C1557 C1558 1.395 . S
C1557 C1559 1.380 . S
C1558 C1557 1.395 . S
C1558 C1561 1.398 . S
C1558 H1568 0.930 . S
C1559 C1557 1.380 . S
C1559 C1560 1.391 . S
C1559 H1569 0.930 . S
C1560 C1559 1.391 . S
C1560 C1562 1.387 . S
C1561 C1558 1.398 . S
C1561 C1562 1.380 . S
C1561 H1570 0.930 . S
C1562 C1560 1.387 . S
C1562 C1561 1.380 . S
C1562 H1571 0.930 . S
C1563 O1540 1.254 . S
C1563 O1541 1.268 . S
H1564 C1549 0.930 . S
H1565 C1550 0.930 . S
H1566 C1552 0.930 . S
H1567 C1553 0.930 . S
H1568 C1558 0.930 . S
H1569 C1559 0.930 . S
H1570 C1561 0.930 . S
H1571 C1562 0.930 . S
Gd1572 N1603 2.661 1_455 S
Gd1572 N1609 2.601 . S
Gd1572 O1616 2.545 1_455 S
Gd1572 O1617 2.606 . S
Gd1572 O1619 2.429 . S
Gd1572 O1620 2.545 . S
Gd1572 O1621 2.412 1_455 S
Gd1572 O1623 2.362 . S
Gd1572 O1624 2.349 . S
Gd1572 C1631 2.828 1_455 S
Gd1573 N1582 2.661 . S
Gd1573 N1586 2.601 1_554 S
Gd1573 O1617 2.362 . S
Gd1573 O1618 2.324 . S
Gd1573 O1622 2.545 1_554 S
Gd1573 O1623 2.606 . S
Gd1573 O1625 2.429 1_554 S
Gd1573 O1626 2.545 . S
Gd1573 O1627 2.412 . S
Gd1573 C1640 2.828 1_554 S
C1574 C1577 1.417 . S
C1574 C1579 1.431 . S
C1574 C1580 1.412 . S
C1575 C1578 1.437 . S
C1575 C1579 1.317 1_556 S
C1575 H1594 0.929 . S
C1576 C1577 1.426 1_556 S
C1576 C1578 1.413 . S
C1576 N1586 1.359 . S
C1577 C1574 1.417 . S
C1577 C1576 1.426 1_554 S
C1577 N1582 1.350 . S
C1578 C1575 1.437 . S
C1578 C1576 1.413 . S
C1578 C1588 1.391 . S
C1579 C1574 1.431 . S
C1579 C1575 1.317 1_554 S
C1579 H1590 0.930 . S
C1580 C1574 1.412 . S
C1580 C1581 1.355 . S
C1580 H1592 0.930 . S
C1581 C1580 1.355 . S
C1581 C1583 1.402 . S
C1581 H1593 0.930 . S
N1582 Gd1573 2.661 . S
N1582 C1577 1.350 . S
N1582 C1583 1.307 . S
C1583 C1581 1.402 . S
C1583 N1582 1.307 . S
C1583 H1584 0.930 . S
H1584 C1583 0.930 . S
C1585 N1586 1.334 . S
C1585 C1587 1.394 . S
C1585 H1589 0.930 . S
N1586 Gd1573 2.601 1_556 S
N1586 C1576 1.359 . S
N1586 C1585 1.334 . S
C1587 C1585 1.394 . S
C1587 C1588 1.359 . S
C1587 H1599 0.930 . S
C1588 C1578 1.391 . S
C1588 C1587 1.359 . S
C1588 H1600 0.929 . S
H1589 C1585 0.930 . S
H1590 C1579 0.930 . S
H1591 C1608 0.904 1_556 S
H1592 C1580 0.930 . S
H1593 C1581 0.930 . S
H1594 C1575 0.929 . S
H1595 C1613 0.930 . S
H1596 C1604 0.930 1_556 S
H1597 C1605 0.930 . S
H1598 C1629 0.929 . S
H1599 C1587 0.930 . S
H1600 C1588 0.929 . S
H1601 C1630 0.930 . S
H1602 C1611 0.930 1_455 S
N1603 Gd1572 2.661 1_655 S
N1603 C1607 1.350 . S
N1603 C1608 1.337 . S
C1604 H1596 0.930 1_554 S
C1604 C1605 1.355 1_554 S
C1604 C1606 1.412 . S
C1605 H1597 0.930 . S
C1605 C1604 1.355 1_556 S
C1605 C1608 1.397 1_556 S
C1606 C1604 1.412 . S
C1606 C1607 1.417 . S
C1606 C1630 1.431 . S
C1607 N1603 1.350 . S
C1607 C1606 1.417 . S
C1607 C1610 1.426 . S
C1608 H1591 0.904 1_554 S
C1608 N1603 1.337 . S
C1608 C1605 1.397 1_554 S
N1609 Gd1572 2.601 . S
N1609 C1610 1.359 1_455 S
N1609 C1613 1.334 . S
C1610 C1607 1.426 . S
C1610 N1609 1.359 1_655 S
C1610 C1614 1.413 . S
C1611 H1602 0.930 1_655 S
C1611 C1612 1.359 . S
C1611 C1613 1.394 1_655 S
C1612 C1611 1.359 . S
C1612 C1614 1.391 . S
C1612 H1615 0.929 . S
C1613 H1595 0.930 . S
C1613 N1609 1.334 . S
C1613 C1611 1.394 1_455 S
C1614 C1610 1.413 . S
C1614 C1612 1.391 . S
C1614 C1629 1.437 . S
H1615 C1612 0.929 . S
O1616 Gd1572 2.545 1_655 S
O1616 C1631 1.258 . S
O1617 Gd1572 2.606 . S
O1617 Gd1573 2.362 . S
O1617 C1628 1.284 . S
O1618 Gd1573 2.324 . S
O1618 C1638 1.254 . S
O1619 Gd1572 2.429 . S
O1619 C1638 1.268 . S
O1620 Gd1572 2.545 . S
O1620 C1628 1.250 . S
O1621 Gd1572 2.412 1_655 S
O1621 C1631 1.252 . S
O1622 Gd1573 2.545 1_556 S
O1622 C1640 1.258 . S
O1623 Gd1572 2.362 . S
O1623 Gd1573 2.606 . S
O1623 C1639 1.284 . S
O1624 Gd1572 2.349 . S
O1624 C1647 1.231 1_554 S
O1625 Gd1573 2.429 1_556 S
O1625 C1647 1.268 . S
O1626 Gd1573 2.545 . S
O1626 C1639 1.250 . S
O1627 Gd1573 2.412 . S
O1627 C1640 1.252 1_554 S
C1628 O1617 1.284 . S
C1628 O1620 1.250 . S
C1629 H1598 0.929 . S
C1629 C1614 1.437 . S
C1629 C1630 1.317 . S
C1630 H1601 0.930 . S
C1630 C1606 1.431 . S
C1630 C1629 1.317 . S
C1631 Gd1572 2.828 1_655 S
C1631 O1616 1.258 . S
C1631 O1621 1.252 . S
C1631 C1632 1.497 . S
C1632 C1631 1.497 . S
C1632 C1633 1.395 . S
C1632 C1634 1.380 . S
C1633 C1632 1.395 . S
C1633 C1636 1.398 . S
C1633 H1648 0.930 . S
C1634 C1632 1.380 . S
C1634 C1635 1.391 . S
C1634 H1649 0.930 . S
C1635 C1634 1.391 . S
C1635 C1637 1.387 . S
C1636 C1633 1.398 . S
C1636 C1637 1.380 . S
C1636 H1650 0.930 . S
C1637 C1635 1.387 . S
C1637 C1636 1.380 . S
C1637 H1651 0.930 . S
C1638 O1618 1.254 . S
C1638 O1619 1.268 . S
C1639 O1623 1.284 . S
C1639 O1626 1.250 . S
C1640 Gd1573 2.828 1_556 S
C1640 O1622 1.258 . S
C1640 O1627 1.252 1_556 S
C1640 C1641 1.497 . S
C1641 C1640 1.497 . S
C1641 C1642 1.395 . S
C1641 C1643 1.380 1_556 S
C1642 C1641 1.395 . S
C1642 C1645 1.398 . S
C1642 H1652 0.930 . S
C1643 C1641 1.380 1_554 S
C1643 C1644 1.391 . S
C1643 H1653 0.930 . S
C1644 C1643 1.391 . S
C1644 C1646 1.387 1_554 S
C1645 C1642 1.398 . S
C1645 C1646 1.380 . S
C1645 H1654 0.930 . S
C1646 C1644 1.387 1_556 S
C1646 C1645 1.380 . S
C1646 H1655 0.930 . S
C1647 O1624 1.231 1_556 S
C1647 O1625 1.268 . S
H1648 C1633 0.930 . S
H1649 C1634 0.930 . S
H1650 C1636 0.930 . S
H1651 C1637 0.930 . S
H1652 C1642 0.930 . S
H1653 C1643 0.930 . S
H1654 C1645 0.930 . S
H1655 C1646 0.930 . S
C1656 C1657 1.369 1_554 S
C1656 C1658 1.419 . S
C1656 H1660 0.930 . S
C1657 C1656 1.369 1_556 S
C1657 C1666 1.429 . S
C1658 C1656 1.419 . S
C1658 C1659 1.363 . S
C1658 H1661 0.929 . S
C1659 C1658 1.363 . S
C1659 C1665 1.428 1_554 S
H1660 C1656 0.930 . S
H1661 C1658 0.929 . S
S1662 N1663 1.613 . S
S1662 N1664 1.610 . S
N1663 S1662 1.613 . S
N1663 C1666 1.350 . S
N1664 S1662 1.610 . S
N1664 C1665 1.351 . S
C1665 C1659 1.428 1_556 S
C1665 N1664 1.351 . S
C1665 C1666 1.434 . S
C1666 C1657 1.429 . S
C1666 N1663 1.350 . S
C1666 C1665 1.434 . S
C1667 C1668 1.369 . S
C1667 C1669 1.419 . S
C1667 H1671 0.930 . S
C1668 C1667 1.369 . S
C1668 C1677 1.429 . S
C1669 C1667 1.419 . S
C1669 C1670 1.363 . S
C1669 H1672 0.929 . S
C1670 C1669 1.363 . S
C1670 C1676 1.428 . S
H1671 C1667 0.930 . S
H1672 C1669 0.929 . S
S1673 N1674 1.613 . S
S1673 N1675 1.610 . S
N1674 S1673 1.613 . S
N1674 C1677 1.350 . S
N1675 S1673 1.610 . S
N1675 C1676 1.351 . S
C1676 C1670 1.428 . S
C1676 N1675 1.351 . S
C1676 C1677 1.434 . S
C1677 C1668 1.429 . S
C1677 N1674 1.350 . S
C1677 C1676 1.434 . S
C1678 C1679 1.369 . S
C1678 C1680 1.419 . S
C1678 H1682 0.930 . S
C1679 C1678 1.369 . S
C1679 C1688 1.429 . S
C1680 C1678 1.419 . S
C1680 C1681 1.363 . S
C1680 H1683 0.929 . S
C1681 C1680 1.363 . S
C1681 C1687 1.428 . S
H1682 C1678 0.930 . S
H1683 C1680 0.929 . S
S1684 N1685 1.613 . S
S1684 N1686 1.610 . S
N1685 S1684 1.613 . S
N1685 C1688 1.350 . S
N1686 S1684 1.610 . S
N1686 C1687 1.351 . S
C1687 C1681 1.428 . S
C1687 N1686 1.351 . S
C1687 C1688 1.434 . S
C1688 C1679 1.429 . S
C1688 N1685 1.350 . S
C1688 C1687 1.434 . S
C1689 C1690 1.369 . S
C1689 C1691 1.419 . S
C1689 H1693 0.930 . S
C1690 C1689 1.369 . S
C1690 C1699 1.429 . S
C1691 C1689 1.419 . S
C1691 C1692 1.363 . S
C1691 H1694 0.929 . S
C1692 C1691 1.363 . S
C1692 C1698 1.428 . S
H1693 C1689 0.930 . S
H1694 C1691 0.929 . S
S1695 N1696 1.613 . S
S1695 N1697 1.610 . S
N1696 S1695 1.613 . S
N1696 C1699 1.350 . S
N1697 S1695 1.610 . S
N1697 C1698 1.351 . S
C1698 C1692 1.428 . S
C1698 N1697 1.351 . S
C1698 C1699 1.434 . S
C1699 C1690 1.429 . S
C1699 N1696 1.350 . S
C1699 C1698 1.434 . S
C1700 C1701 1.369 . S
C1700 C1702 1.419 . S
C1700 H1704 0.930 . S
C1701 C1700 1.369 . S
C1701 C1710 1.429 . S
C1702 C1700 1.419 . S
C1702 C1703 1.363 . S
C1702 H1705 0.929 . S
C1703 C1702 1.363 . S
C1703 C1709 1.428 . S
H1704 C1700 0.930 . S
H1705 C1702 0.929 . S
S1706 N1707 1.613 . S
S1706 N1708 1.610 1_655 S
N1707 S1706 1.613 . S
N1707 C1710 1.350 1_655 S
N1708 S1706 1.610 1_455 S
N1708 C1709 1.351 . S
C1709 C1703 1.428 . S
C1709 N1708 1.351 . S
C1709 C1710 1.434 . S
C1710 C1701 1.429 . S
C1710 N1707 1.350 1_455 S
C1710 C1709 1.434 . S
C1711 C1712 1.369 . S
C1711 C1713 1.419 . S
C1711 H1715 0.930 . S
C1712 C1711 1.369 . S
C1712 C1721 1.429 . S
C1713 C1711 1.419 . S
C1713 C1714 1.363 . S
C1713 H1716 0.929 . S
C1714 C1713 1.363 . S
C1714 C1720 1.428 . S
H1715 C1711 0.930 . S
H1716 C1713 0.929 . S
S1717 N1718 1.613 . S
S1717 N1719 1.610 . S
N1718 S1717 1.613 . S
N1718 C1721 1.350 . S
N1719 S1717 1.610 . S
N1719 C1720 1.351 . S
C1720 C1714 1.428 . S
C1720 N1719 1.351 . S
C1720 C1721 1.434 . S
C1721 C1712 1.429 . S
C1721 N1718 1.350 . S
C1721 C1720 1.434 . S
C1722 C1723 1.369 . S
C1722 C1724 1.419 . S
C1722 H1726 0.930 . S
C1723 C1722 1.369 . S
C1723 C1732 1.429 . S
C1724 C1722 1.419 . S
C1724 C1725 1.363 . S
C1724 H1727 0.929 . S
C1725 C1724 1.363 . S
C1725 C1731 1.428 . S
H1726 C1722 0.930 . S
H1727 C1724 0.929 . S
S1728 N1729 1.613 . S
S1728 N1730 1.610 . S
N1729 S1728 1.613 . S
N1729 C1732 1.350 . S
N1730 S1728 1.610 . S
N1730 C1731 1.351 . S
C1731 C1725 1.428 . S
C1731 N1730 1.351 . S
C1731 C1732 1.434 . S
C1732 C1723 1.429 . S
C1732 N1729 1.350 . S
C1732 C1731 1.434 . S
C1733 C1734 1.369 . S
C1733 C1735 1.419 . S
C1733 H1737 0.930 . S
C1734 C1733 1.369 . S
C1734 C1743 1.429 . S
C1735 C1733 1.419 . S
C1735 C1736 1.363 . S
C1735 H1738 0.929 . S
C1736 C1735 1.363 . S
C1736 C1742 1.428 . S
H1737 C1733 0.930 . S
H1738 C1735 0.929 . S
S1739 N1740 1.613 . S
S1739 N1741 1.610 . S
N1740 S1739 1.613 . S
N1740 C1743 1.350 . S
N1741 S1739 1.610 . S
N1741 C1742 1.351 . S
C1742 C1736 1.428 . S
C1742 N1741 1.351 . S
C1742 C1743 1.434 . S
C1743 C1734 1.429 . S
C1743 N1740 1.350 . S
C1743 C1742 1.434 . S
C1744 C1745 1.369 . S
C1744 C1746 1.419 1_655 S
C1744 H1748 0.930 . S
C1745 C1744 1.369 . S
C1745 C1754 1.428 1_655 S
C1746 C1744 1.419 1_455 S
C1746 C1747 1.363 . S
C1746 H1749 0.929 . S
C1747 C1746 1.363 . S
C1747 C1753 1.428 . S
H1748 C1744 0.930 . S
H1749 C1746 0.929 . S
S1750 N1751 1.613 . S
S1750 N1752 1.610 . S
N1751 S1750 1.613 . S
N1751 C1754 1.350 . S
N1752 S1750 1.610 . S
N1752 C1753 1.351 . S
C1753 C1747 1.428 . S
C1753 N1752 1.351 . S
C1753 C1754 1.434 . S
C1754 C1745 1.428 1_455 S
C1754 N1751 1.350 . S
C1754 C1753 1.434 . S
C1755 C1756 1.369 . S
C1755 C1757 1.419 . S
C1755 H1759 0.930 . S
C1756 C1755 1.369 . S
C1756 C1765 1.429 . S
C1757 C1755 1.419 . S
C1757 C1758 1.363 . S
C1757 H1760 0.929 . S
C1758 C1757 1.363 . S
C1758 C1764 1.428 . S
H1759 C1755 0.930 . S
H1760 C1757 0.929 . S
S1761 N1762 1.613 . S
S1761 N1763 1.610 . S
N1762 S1761 1.613 . S
N1762 C1765 1.350 . S
N1763 S1761 1.610 . S
N1763 C1764 1.351 . S
C1764 C1758 1.428 . S
C1764 N1763 1.351 . S
C1764 C1765 1.434 . S
C1765 C1756 1.429 . S
C1765 N1762 1.350 . S
C1765 C1764 1.434 . S
C1766 C1767 1.369 . S
C1766 C1768 1.419 . S
C1766 H1770 0.930 . S
C1767 C1766 1.369 . S
C1767 C1776 1.429 . S
C1768 C1766 1.419 . S
C1768 C1769 1.363 . S
C1768 H1771 0.929 . S
C1769 C1768 1.363 . S
C1769 C1775 1.428 . S
H1770 C1766 0.930 . S
H1771 C1768 0.929 . S
S1772 N1773 1.613 1_565 S
S1772 N1774 1.610 . S
N1773 S1772 1.613 1_545 S
N1773 C1776 1.350 . S
N1774 S1772 1.610 . S
N1774 C1775 1.351 1_565 S
C1775 C1769 1.428 . S
C1775 N1774 1.351 1_545 S
C1775 C1776 1.434 . S
C1776 C1767 1.429 . S
C1776 N1773 1.350 . S
C1776 C1775 1.434 . S
C1777 C1778 1.369 . S
C1777 C1779 1.419 . S
C1777 H1781 0.930 . S
C1778 C1777 1.369 . S
C1778 C1787 1.429 . S
C1779 C1777 1.419 . S
C1779 C1780 1.363 . S
C1779 H1782 0.929 . S
C1780 C1779 1.363 . S
C1780 C1786 1.428 . S
H1781 C1777 0.930 . S
H1782 C1779 0.929 . S
S1783 N1784 1.613 . S
S1783 N1785 1.610 . S
N1784 S1783 1.613 . S
N1784 C1787 1.350 . S
N1785 S1783 1.610 . S
N1785 C1786 1.351 . S
C1786 C1780 1.428 . S
C1786 N1785 1.351 . S
C1786 C1787 1.434 . S
C1787 C1778 1.429 . S
C1787 N1784 1.350 . S
C1787 C1786 1.434 . S
C1788 C1789 1.369 1_655 S
C1788 C1790 1.419 1_655 S
C1788 H1792 0.930 . S
C1789 C1788 1.369 1_455 S
C1789 C1798 1.429 . S
C1790 C1788 1.419 1_455 S
C1790 C1791 1.363 . S
C1790 H1793 0.929 . S
C1791 C1790 1.363 . S
C1791 C1797 1.428 . S
H1792 C1788 0.930 . S
H1793 C1790 0.929 . S
S1794 N1795 1.613 . S
S1794 N1796 1.610 . S
N1795 S1794 1.613 . S
N1795 C1798 1.350 . S
N1796 S1794 1.610 . S
N1796 C1797 1.351 . S
C1797 C1791 1.428 . S
C1797 N1796 1.351 . S
C1797 C1798 1.434 . S
C1798 C1789 1.429 . S
C1798 N1795 1.350 . S
C1798 C1797 1.434 . S
C1799 C1800 1.369 . S
C1799 C1801 1.419 . S
C1799 H1803 0.930 . S
C1800 C1799 1.369 . S
C1800 C1809 1.429 . S
C1801 C1799 1.419 . S
C1801 C1802 1.363 . S
C1801 H1804 0.929 . S
C1802 C1801 1.363 . S
C1802 C1808 1.428 . S
H1803 C1799 0.930 . S
H1804 C1801 0.929 . S
S1805 N1806 1.613 . S
S1805 N1807 1.610 . S
N1806 S1805 1.613 . S
N1806 C1809 1.350 . S
N1807 S1805 1.610 . S
N1807 C1808 1.351 . S
C1808 C1802 1.428 . S
C1808 N1807 1.351 . S
C1808 C1809 1.434 . S
C1809 C1800 1.429 . S
C1809 N1806 1.350 . S
C1809 C1808 1.434 . S
C1810 C1811 1.369 . S
C1810 C1812 1.419 . S
C1810 H1814 0.930 . S
C1811 C1810 1.369 . S
C1811 C1820 1.429 . S
C1812 C1810 1.419 . S
C1812 C1813 1.363 . S
C1812 H1815 0.929 . S
C1813 C1812 1.363 . S
C1813 C1819 1.428 . S
H1814 C1810 0.930 . S
H1815 C1812 0.929 . S
S1816 N1817 1.613 . S
S1816 N1818 1.610 . S
N1817 S1816 1.613 . S
N1817 C1820 1.350 . S
N1818 S1816 1.610 . S
N1818 C1819 1.351 . S
C1819 C1813 1.428 . S
C1819 N1818 1.351 . S
C1819 C1820 1.434 . S
C1820 C1811 1.429 . S
C1820 N1817 1.350 . S
C1820 C1819 1.434 . S
C1821 C1822 1.369 . S
C1821 C1823 1.419 . S
C1821 H1825 0.930 . S
C1822 C1821 1.369 . S
C1822 C1831 1.429 . S
C1823 C1821 1.419 . S
C1823 C1824 1.363 . S
C1823 H1826 0.929 . S
C1824 C1823 1.363 . S
C1824 C1830 1.428 . S
H1825 C1821 0.930 . S
H1826 C1823 0.929 . S
S1827 N1828 1.613 . S
S1827 N1829 1.610 . S
N1828 S1827 1.613 . S
N1828 C1831 1.350 . S
N1829 S1827 1.610 . S
N1829 C1830 1.351 . S
C1830 C1824 1.428 . S
C1830 N1829 1.351 . S
C1830 C1831 1.434 . S
C1831 C1822 1.429 . S
C1831 N1828 1.350 . S
C1831 C1830 1.434 . S
C1832 C1833 1.357 1_556 S
C1832 C1834 1.413 1_566 S
C1832 H1836 0.949 . S
C1833 C1832 1.357 1_554 S
C1833 C1842 1.429 . S
C1834 C1832 1.413 1_544 S
C1834 C1835 1.363 . S
C1834 H1837 0.929 1_554 S
C1835 C1834 1.363 . S
C1835 C1841 1.428 . S
H1836 C1832 0.949 . S
H1837 C1834 0.929 1_556 S
S1838 N1839 1.613 . S
S1838 N1840 1.610 1_565 S
N1839 S1838 1.613 . S
N1839 C1842 1.350 . S
N1840 S1838 1.610 1_545 S
N1840 C1841 1.351 . S
C1841 C1835 1.428 . S
C1841 N1840 1.351 . S
C1841 C1842 1.434 1_545 S
C1842 C1833 1.429 . S
C1842 N1839 1.350 . S
C1842 C1841 1.434 1_565 S
C1843 C1844 1.369 . S
C1843 C1845 1.419 . S
C1843 H1847 0.930 . S
C1844 C1843 1.369 . S
C1844 C1853 1.429 1_556 S
C1845 C1843 1.419 . S
C1845 C1846 1.363 . S
C1845 H1848 0.929 . S
C1846 C1845 1.363 . S
C1846 C1852 1.428 1_556 S
H1847 C1843 0.930 . S
H1848 C1845 0.929 . S
S1849 N1850 1.613 . S
S1849 N1851 1.610 . S
N1850 S1849 1.613 . S
N1850 C1853 1.350 . S
N1851 S1849 1.610 . S
N1851 C1852 1.351 . S
C1852 C1846 1.428 1_554 S
C1852 N1851 1.351 . S
C1852 C1853 1.434 . S
C1853 C1844 1.429 1_554 S
C1853 N1850 1.350 . S
C1853 C1852 1.434 . S
C1854 C1855 1.369 . S
C1854 C1856 1.419 . S
C1854 H1858 0.930 . S
C1855 C1854 1.369 . S
C1855 C1864 1.429 . S
C1856 C1854 1.419 . S
C1856 C1857 1.363 . S
C1856 H1859 0.929 . S
C1857 C1856 1.363 . S
C1857 C1863 1.428 . S
H1858 C1854 0.930 . S
H1859 C1856 0.929 . S
S1860 N1861 1.613 . S
S1860 N1862 1.610 . S
N1861 S1860 1.613 . S
N1861 C1864 1.350 . S
N1862 S1860 1.610 . S
N1862 C1863 1.351 . S
C1863 C1857 1.428 . S
C1863 N1862 1.351 . S
C1863 C1864 1.434 . S
C1864 C1855 1.429 . S
C1864 N1861 1.350 . S
C1864 C1863 1.434 . S
C1865 C1866 1.369 . S
C1865 C1867 1.419 . S
C1865 H1869 0.930 . S
C1866 C1865 1.369 . S
C1866 C1875 1.429 . S
C1867 C1865 1.419 . S
C1867 C1868 1.363 . S
C1867 H1870 0.929 . S
C1868 C1867 1.363 . S
C1868 C1874 1.428 . S
H1869 C1865 0.930 . S
H1870 C1867 0.929 . S
S1871 N1872 1.613 . S
S1871 N1873 1.610 . S
N1872 S1871 1.613 . S
N1872 C1875 1.350 . S
N1873 S1871 1.610 . S
N1873 C1874 1.351 . S
C1874 C1868 1.428 . S
C1874 N1873 1.351 . S
C1874 C1875 1.434 . S
C1875 C1866 1.429 . S
C1875 N1872 1.350 . S
C1875 C1874 1.434 . S
C1876 C1877 1.369 . S
C1876 C1878 1.419 . S
C1876 H1880 0.930 . S
C1877 C1876 1.369 . S
C1877 C1886 1.429 . S
C1878 C1876 1.419 . S
C1878 C1879 1.363 . S
C1878 H1881 0.929 . S
C1879 C1878 1.363 . S
C1879 C1885 1.428 . S
H1880 C1876 0.930 . S
H1881 C1878 0.929 . S
S1882 N1883 1.613 . S
S1882 N1884 1.610 . S
N1883 S1882 1.613 . S
N1883 C1886 1.350 . S
N1884 S1882 1.610 . S
N1884 C1885 1.351 . S
C1885 C1879 1.428 . S
C1885 N1884 1.351 . S
C1885 C1886 1.434 . S
C1886 C1877 1.429 . S
C1886 N1883 1.350 . S
C1886 C1885 1.434 . S
C1887 C1888 1.369 . S
C1887 C1889 1.419 . S
C1887 H1891 0.930 . S
C1888 C1887 1.369 . S
C1888 C1897 1.429 . S
C1889 C1887 1.419 . S
C1889 C1890 1.363 . S
C1889 H1892 0.929 . S
C1890 C1889 1.363 . S
C1890 C1896 1.428 . S
H1891 C1887 0.930 . S
H1892 C1889 0.929 . S
S1893 N1894 1.613 . S
S1893 N1895 1.610 . S
N1894 S1893 1.613 . S
N1894 C1897 1.350 . S
N1895 S1893 1.610 . S
N1895 C1896 1.351 . S
C1896 C1890 1.428 . S
C1896 N1895 1.351 . S
C1896 C1897 1.434 . S
C1897 C1888 1.429 . S
C1897 N1894 1.350 . S
C1897 C1896 1.434 . S
C1898 C1899 1.369 . S
C1898 C1900 1.419 . S
C1898 H1902 0.930 . S
C1899 C1898 1.369 . S
C1899 C1908 1.429 . S
C1900 C1898 1.419 . S
C1900 C1901 1.363 . S
C1900 H1903 0.929 . S
C1901 C1900 1.363 . S
C1901 C1907 1.428 . S
H1902 C1898 0.930 . S
H1903 C1900 0.929 . S
S1904 N1905 1.613 . S
S1904 N1906 1.610 . S
N1905 S1904 1.613 . S
N1905 C1908 1.350 . S
N1906 S1904 1.610 . S
N1906 C1907 1.351 . S
C1907 C1901 1.428 . S
C1907 N1906 1.351 . S
C1907 C1908 1.434 . S
C1908 C1899 1.429 . S
C1908 N1905 1.350 . S
C1908 C1907 1.434 . S
C1909 C1910 1.369 . S
C1909 C1911 1.419 . S
C1909 H1913 0.930 . S
C1910 C1909 1.369 . S
C1910 C1919 1.429 . S
C1911 C1909 1.419 . S
C1911 C1912 1.363 . S
C1911 H1914 0.929 . S
C1912 C1911 1.363 . S
C1912 C1918 1.428 . S
H1913 C1909 0.930 . S
H1914 C1911 0.929 . S
S1915 N1916 1.613 . S
S1915 N1917 1.610 . S
N1916 S1915 1.613 . S
N1916 C1919 1.350 . S
N1917 S1915 1.610 . S
N1917 C1918 1.351 . S
C1918 C1912 1.428 . S
C1918 N1917 1.351 . S
C1918 C1919 1.434 . S
C1919 C1910 1.429 . S
C1919 N1916 1.350 . S
C1919 C1918 1.434 . S
C1920 C1921 1.369 . S
C1920 C1922 1.419 . S
C1920 H1924 0.930 . S
C1921 C1920 1.369 . S
C1921 C1930 1.429 . S
C1922 C1920 1.419 . S
C1922 C1923 1.363 . S
C1922 H1925 0.929 . S
C1923 C1922 1.363 . S
C1923 C1929 1.428 . S
H1924 C1920 0.930 . S
H1925 C1922 0.929 . S
S1926 N1927 1.613 1_556 S
S1926 N1928 1.610 . S
N1927 S1926 1.613 1_554 S
N1927 C1930 1.350 . S
N1928 S1926 1.610 . S
N1928 C1929 1.351 1_556 S
C1929 C1923 1.428 . S
C1929 N1928 1.351 1_554 S
C1929 C1930 1.434 . S
C1930 C1921 1.429 . S
C1930 N1927 1.350 . S
C1930 C1929 1.434 . S
C1931 C1932 1.369 . S
C1931 C1933 1.419 . S
C1931 H1935 0.930 . S
C1932 C1931 1.369 . S
C1932 C1941 1.429 . S
C1933 C1931 1.419 . S
C1933 C1934 1.363 . S
C1933 H1936 0.929 . S
C1934 C1933 1.363 . S
C1934 C1940 1.428 . S
H1935 C1931 0.930 . S
H1936 C1933 0.929 . S
S1937 N1938 1.613 . S
S1937 N1939 1.610 . S
N1938 S1937 1.613 . S
N1938 C1941 1.350 . S
N1939 S1937 1.610 . S
N1939 C1940 1.351 . S
C1940 C1934 1.428 . S
C1940 N1939 1.351 . S
C1940 C1941 1.434 . S
C1941 C1932 1.429 . S
C1941 N1938 1.350 . S
C1941 C1940 1.434 . S
C1942 C1943 1.369 . S
C1942 C1944 1.419 . S
C1942 H1946 0.930 . S
C1943 C1942 1.369 . S
C1943 C1952 1.429 . S
C1944 C1942 1.419 . S
C1944 C1945 1.363 . S
C1944 H1947 0.929 . S
C1945 C1944 1.363 . S
C1945 C1951 1.428 . S
H1946 C1942 0.930 . S
H1947 C1944 0.929 . S
S1948 N1949 1.613 . S
S1948 N1950 1.610 . S
N1949 S1948 1.613 . S
N1949 C1952 1.350 . S
N1950 S1948 1.610 . S
N1950 C1951 1.351 . S
C1951 C1945 1.428 . S
C1951 N1950 1.351 . S
C1951 C1952 1.434 . S
C1952 C1943 1.429 . S
C1952 N1949 1.350 . S
C1952 C1951 1.434 . S
C1953 C1954 1.369 . S
C1953 C1955 1.419 . S
C1953 H1957 0.930 . S
C1954 C1953 1.369 . S
C1954 C1963 1.429 . S
C1955 C1953 1.419 . S
C1955 C1956 1.363 . S
C1955 H1958 0.929 . S
C1956 C1955 1.363 . S
C1956 C1962 1.428 . S
H1957 C1953 0.930 . S
H1958 C1955 0.929 . S
S1959 N1960 1.613 . S
S1959 N1961 1.610 . S
N1960 S1959 1.613 . S
N1960 C1963 1.350 . S
N1961 S1959 1.610 . S
N1961 C1962 1.351 . S
C1962 C1956 1.428 . S
C1962 N1961 1.351 . S
C1962 C1963 1.434 . S
C1963 C1954 1.429 . S
C1963 N1960 1.350 . S
C1963 C1962 1.434 . S
C1964 C1965 1.369 . S
C1964 C1966 1.419 . S
C1964 H1968 0.930 . S
C1965 C1964 1.369 . S
C1965 C1974 1.429 . S
C1966 C1964 1.419 . S
C1966 C1967 1.363 . S
C1966 H1969 0.929 . S
C1967 C1966 1.363 . S
C1967 C1973 1.428 . S
H1968 C1964 0.930 . S
H1969 C1966 0.929 . S
S1970 N1971 1.613 . S
S1970 N1972 1.610 . S
N1971 S1970 1.613 . S
N1971 C1974 1.350 . S
N1972 S1970 1.610 . S
N1972 C1973 1.351 . S
C1973 C1967 1.428 . S
C1973 N1972 1.351 . S
C1973 C1974 1.434 . S
C1974 C1965 1.429 . S
C1974 N1971 1.350 . S
C1974 C1973 1.434 . S
C1975 C1976 1.369 . S
C1975 C1977 1.419 . S
C1975 H1979 0.930 . S
C1976 C1975 1.369 . S
C1976 C1985 1.429 . S
C1977 C1975 1.419 . S
C1977 C1978 1.363 . S
C1977 H1980 0.929 . S
C1978 C1977 1.363 . S
C1978 C1984 1.428 . S
H1979 C1975 0.930 . S
H1980 C1977 0.929 . S
S1981 N1982 1.613 . S
S1981 N1983 1.610 . S
N1982 S1981 1.613 . S
N1982 C1985 1.350 . S
N1983 S1981 1.610 . S
N1983 C1984 1.351 . S
C1984 C1978 1.428 . S
C1984 N1983 1.351 . S
C1984 C1985 1.434 . S
C1985 C1976 1.429 . S
C1985 N1982 1.350 . S
C1985 C1984 1.434 . S
C1986 C1987 1.369 . S
C1986 C1988 1.419 . S
C1986 H1990 0.930 . S
C1987 C1986 1.369 . S
C1987 C1996 1.429 . S
C1988 C1986 1.419 . S
C1988 C1989 1.363 . S
C1988 H1991 0.929 . S
C1989 C1988 1.363 . S
C1989 C1995 1.428 . S
H1990 C1986 0.930 . S
H1991 C1988 0.929 . S
S1992 N1993 1.613 1_545 S
S1992 N1994 1.610 . S
N1993 S1992 1.613 1_565 S
N1993 C1996 1.350 . S
N1994 S1992 1.610 . S
N1994 C1995 1.351 1_545 S
C1995 C1989 1.428 . S
C1995 N1994 1.351 1_565 S
C1995 C1996 1.434 . S
C1996 C1987 1.429 . S
C1996 N1993 1.350 . S
C1996 C1995 1.434 . S
C1997 C1998 1.369 . S
C1997 C1999 1.419 . S
C1997 H2001 0.930 . S
C1998 C1997 1.369 . S
C1998 C2007 1.429 . S
C1999 C1997 1.419 . S
C1999 C2000 1.363 . S
C1999 H2002 0.929 . S
C2000 C1999 1.363 . S
C2000 C2006 1.428 . S
H2001 C1997 0.930 . S
H2002 C1999 0.929 . S
S2003 N2004 1.613 . S
S2003 N2005 1.610 . S
N2004 S2003 1.613 . S
N2004 C2007 1.350 . S
N2005 S2003 1.610 . S
N2005 C2006 1.351 . S
C2006 C2000 1.428 . S
C2006 N2005 1.351 . S
C2006 C2007 1.434 . S
C2007 C1998 1.429 . S
C2007 N2004 1.350 . S
C2007 C2006 1.434 . S
C2008 C2009 1.369 . S
C2008 C2010 1.419 . S
C2008 H2012 0.930 . S
C2009 C2008 1.369 . S
C2009 C2018 1.429 1_545 S
C2010 C2008 1.419 . S
C2010 C2011 1.363 . S
C2010 H2013 0.929 . S
C2011 C2010 1.363 . S
C2011 C2017 1.428 1_545 S
H2012 C2008 0.930 . S
H2013 C2010 0.929 . S
S2014 N2015 1.613 . S
S2014 N2016 1.610 . S
N2015 S2014 1.613 . S
N2015 C2018 1.350 . S
N2016 S2014 1.610 . S
N2016 C2017 1.351 . S
C2017 C2011 1.428 1_565 S
C2017 N2016 1.351 . S
C2017 C2018 1.434 . S
C2018 C2009 1.429 1_565 S
C2018 N2015 1.350 . S
C2018 C2017 1.434 . S
C2019 C2020 1.369 . S
C2019 C2021 1.419 . S
C2019 H2023 0.930 . S
C2020 C2019 1.369 . S
C2020 C2029 1.429 . S
C2021 C2019 1.419 . S
C2021 C2022 1.363 . S
C2021 H2024 0.929 . S
C2022 C2021 1.363 . S
C2022 C2028 1.428 . S
H2023 C2019 0.930 . S
H2024 C2021 0.929 . S
S2025 N2026 1.613 . S
S2025 N2027 1.610 . S
N2026 S2025 1.613 . S
N2026 C2029 1.350 . S
N2027 S2025 1.610 . S
N2027 C2028 1.351 . S
C2028 C2022 1.428 . S
C2028 N2027 1.351 . S
C2028 C2029 1.434 . S
C2029 C2020 1.429 . S
C2029 N2026 1.350 . S
C2029 C2028 1.434 . S
C2030 C2031 1.369 . S
C2030 C2032 1.419 . S
C2030 H2034 0.930 1_545 S
C2031 C2030 1.369 . S
C2031 C2040 1.429 . S
C2032 C2030 1.419 . S
C2032 C2033 1.363 . S
C2032 H2035 0.929 . S
C2033 C2032 1.363 . S
C2033 C2039 1.428 . S
H2034 C2030 0.930 1_565 S
H2035 C2032 0.929 . S
S2036 N2037 1.613 . S
S2036 N2038 1.610 . S
N2037 S2036 1.613 . S
N2037 C2040 1.350 . S
N2038 S2036 1.610 . S
N2038 C2039 1.351 . S
C2039 C2033 1.428 . S
C2039 N2038 1.351 . S
C2039 C2040 1.434 . S
C2040 C2031 1.429 . S
C2040 N2037 1.350 . S
C2040 C2039 1.434 . S
C2041 C2042 1.369 . S
C2041 C2043 1.419 . S
C2041 H2045 0.930 . S
C2042 C2041 1.369 . S
C2042 C2051 1.429 . S
C2043 C2041 1.419 . S
C2043 C2044 1.363 . S
C2043 H2046 0.929 . S
C2044 C2043 1.363 . S
C2044 C2050 1.428 . S
H2045 C2041 0.930 . S
H2046 C2043 0.929 . S
S2047 N2048 1.613 . S
S2047 N2049 1.610 . S
N2048 S2047 1.613 . S
N2048 C2051 1.350 . S
N2049 S2047 1.610 . S
N2049 C2050 1.351 . S
C2050 C2044 1.428 . S
C2050 N2049 1.351 . S
C2050 C2051 1.434 . S
C2051 C2042 1.429 . S
C2051 N2048 1.350 . S
C2051 C2050 1.434 . S
C2052 C2053 1.369 . S
C2052 C2054 1.419 . S
C2052 H2056 0.930 . S
C2053 C2052 1.369 . S
C2053 C2062 1.429 1_565 S
C2054 C2052 1.419 . S
C2054 C2055 1.363 1_565 S
C2054 H2057 0.929 . S
C2055 C2054 1.363 1_545 S
C2055 C2061 1.428 . S
H2056 C2052 0.930 . S
H2057 C2054 0.929 . S
S2058 N2059 1.613 . S
S2058 N2060 1.610 . S
N2059 S2058 1.613 . S
N2059 C2062 1.350 . S
N2060 S2058 1.610 . S
N2060 C2061 1.351 . S
C2061 C2055 1.428 . S
C2061 N2060 1.351 . S
C2061 C2062 1.434 . S
C2062 C2053 1.429 1_545 S
C2062 N2059 1.350 . S
C2062 C2061 1.434 . S
C2063 C2064 1.369 . S
C2063 C2065 1.419 . S
C2063 H2067 0.930 . S
C2064 C2063 1.369 . S
C2064 C2073 1.429 . S
C2065 C2063 1.419 . S
C2065 C2066 1.363 . S
C2065 H2068 0.929 . S
C2066 C2065 1.363 . S
C2066 C2072 1.428 . S
H2067 C2063 0.930 . S
H2068 C2065 0.929 . S
S2069 N2070 1.613 . S
S2069 N2071 1.610 . S
N2070 S2069 1.613 . S
N2070 C2073 1.350 . S
N2071 S2069 1.610 . S
N2071 C2072 1.351 . S
C2072 C2066 1.428 . S
C2072 N2071 1.351 . S
C2072 C2073 1.434 . S
C2073 C2064 1.429 . S
C2073 N2070 1.350 . S
C2073 C2072 1.434 . S
C2074 C2075 1.369 1_565 S
C2074 C2076 1.419 . S
C2074 H2078 0.930 . S
C2075 C2074 1.369 1_545 S
C2075 C2084 1.429 . S
C2076 C2074 1.419 . S
C2076 C2077 1.363 1_565 S
C2076 H2079 0.929 . S
C2077 C2076 1.363 1_545 S
C2077 C2083 1.428 . S
H2078 C2074 0.930 . S
H2079 C2076 0.929 . S
S2080 N2081 1.613 . S
S2080 N2082 1.610 . S
N2081 S2080 1.613 . S
N2081 C2084 1.350 . S
N2082 S2080 1.610 . S
N2082 C2083 1.351 . S
C2083 C2077 1.428 . S
C2083 N2082 1.351 . S
C2083 C2084 1.434 . S
C2084 C2075 1.429 . S
C2084 N2081 1.350 . S
C2084 C2083 1.434 . S
C2085 C2086 1.369 . S
C2085 C2087 1.419 . S
C2085 H2089 0.930 . S
C2086 C2085 1.369 . S
C2086 C2095 1.429 . S
C2087 C2085 1.419 . S
C2087 C2088 1.363 . S
C2087 H2090 0.929 . S
C2088 C2087 1.363 . S
C2088 C2094 1.428 . S
H2089 C2085 0.930 . S
H2090 C2087 0.929 . S
S2091 N2092 1.613 . S
S2091 N2093 1.610 . S
N2092 S2091 1.613 . S
N2092 C2095 1.350 . S
N2093 S2091 1.610 . S
N2093 C2094 1.351 . S
C2094 C2088 1.428 . S
C2094 N2093 1.351 . S
C2094 C2095 1.434 . S
C2095 C2086 1.429 . S
C2095 N2092 1.350 . S
C2095 C2094 1.434 . S
C2096 C2097 1.369 . S
C2096 C2098 1.419 . S
C2096 H2100 0.930 . S
C2097 C2096 1.369 . S
C2097 C2106 1.429 . S
C2098 C2096 1.419 . S
C2098 C2099 1.363 . S
C2098 H2101 0.929 . S
C2099 C2098 1.363 . S
C2099 C2105 1.428 . S
H2100 C2096 0.930 . S
H2101 C2098 0.929 . S
S2102 N2103 1.613 1_556 S
S2102 N2104 1.610 . S
N2103 S2102 1.613 1_554 S
N2103 C2106 1.350 . S
N2104 S2102 1.610 . S
N2104 C2105 1.351 1_556 S
C2105 C2099 1.428 . S
C2105 N2104 1.351 1_554 S
C2105 C2106 1.434 . S
C2106 C2097 1.429 . S
C2106 N2103 1.350 . S
C2106 C2105 1.434 . S
C2107 C2108 1.369 . S
C2107 C2109 1.419 . S
C2107 H2111 0.930 . S
C2108 C2107 1.369 . S
C2108 C2117 1.429 . S
C2109 C2107 1.419 . S
C2109 C2110 1.363 . S
C2109 H2112 0.929 . S
C2110 C2109 1.363 . S
C2110 C2116 1.428 . S
H2111 C2107 0.930 . S
H2112 C2109 0.929 . S
S2113 N2114 1.613 . S
S2113 N2115 1.610 . S
N2114 S2113 1.613 . S
N2114 C2117 1.350 1_556 S
N2115 S2113 1.610 . S
N2115 C2116 1.351 1_556 S
C2116 C2110 1.428 . S
C2116 N2115 1.351 1_554 S
C2116 C2117 1.434 . S
C2117 C2108 1.429 . S
C2117 N2114 1.350 1_554 S
C2117 C2116 1.434 . S
C2118 C2119 1.369 . S
C2118 C2120 1.419 . S
C2118 H2122 0.930 . S
C2119 C2118 1.369 . S
C2119 C2128 1.429 . S
C2120 C2118 1.419 . S
C2120 C2121 1.363 . S
C2120 H2123 0.929 . S
C2121 C2120 1.363 . S
C2121 C2127 1.428 . S
H2122 C2118 0.930 . S
H2123 C2120 0.929 . S
S2124 N2125 1.613 . S
S2124 N2126 1.610 . S
N2125 S2124 1.613 . S
N2125 C2128 1.350 . S
N2126 S2124 1.610 . S
N2126 C2127 1.351 . S
C2127 C2121 1.428 . S
C2127 N2126 1.351 . S
C2127 C2128 1.434 . S
C2128 C2119 1.429 . S
C2128 N2125 1.350 . S
C2128 C2127 1.434 . S
C2129 C2130 1.369 . S
C2129 C2131 1.419 . S
C2129 H2133 0.930 . S
C2130 C2129 1.369 . S
C2130 C2139 1.429 . S
C2131 C2129 1.419 . S
C2131 C2132 1.363 . S
C2131 H2134 0.929 . S
C2132 C2131 1.363 . S
C2132 C2138 1.428 . S
H2133 C2129 0.930 . S
H2134 C2131 0.929 . S
S2135 N2136 1.613 . S
S2135 N2137 1.610 . S
N2136 S2135 1.613 . S
N2136 C2139 1.350 . S
N2137 S2135 1.610 . S
N2137 C2138 1.351 . S
C2138 C2132 1.428 . S
C2138 N2137 1.351 . S
C2138 C2139 1.434 . S
C2139 C2130 1.429 . S
C2139 N2136 1.350 . S
C2139 C2138 1.434 . S
C2140 C2141 1.369 . S
C2140 C2142 1.419 . S
C2140 H2144 0.930 1_565 S
C2141 C2140 1.369 . S
C2141 C2150 1.429 . S
C2142 C2140 1.419 . S
C2142 C2143 1.363 . S
C2142 H2145 0.929 . S
C2143 C2142 1.363 . S
C2143 C2149 1.428 . S
H2144 C2140 0.930 1_545 S
H2145 C2142 0.929 . S
S2146 N2147 1.613 . S
S2146 N2148 1.610 . S
N2147 S2146 1.613 . S
N2147 C2150 1.350 . S
N2148 S2146 1.610 . S
N2148 C2149 1.351 . S
C2149 C2143 1.428 . S
C2149 N2148 1.351 . S
C2149 C2150 1.434 . S
C2150 C2141 1.429 . S
C2150 N2147 1.350 . S
C2150 C2149 1.434 . S
C2151 C2152 1.369 . S
C2151 C2153 1.419 . S
C2151 H2155 0.930 . S
C2152 C2151 1.369 . S
C2152 C2161 1.429 . S
C2153 C2151 1.419 . S
C2153 C2154 1.363 . S
C2153 H2156 0.929 . S
C2154 C2153 1.363 . S
C2154 C2160 1.428 . S
H2155 C2151 0.930 . S
H2156 C2153 0.929 . S
S2157 N2158 1.613 . S
S2157 N2159 1.610 . S
N2158 S2157 1.613 . S
N2158 C2161 1.350 . S
N2159 S2157 1.610 . S
N2159 C2160 1.351 . S
C2160 C2154 1.428 . S
C2160 N2159 1.351 . S
C2160 C2161 1.434 . S
C2161 C2152 1.429 . S
C2161 N2158 1.350 . S
C2161 C2160 1.434 . S
C2162 C2163 1.369 . S
C2162 C2164 1.419 . S
C2162 H2166 0.930 . S
C2163 C2162 1.369 . S
C2163 C2172 1.429 . S
C2164 C2162 1.419 . S
C2164 C2165 1.363 . S
C2164 H2167 0.929 . S
C2165 C2164 1.363 . S
C2165 C2171 1.428 . S
H2166 C2162 0.930 . S
H2167 C2164 0.929 . S
S2168 N2169 1.613 . S
S2168 N2170 1.610 . S
N2169 S2168 1.613 . S
N2169 C2172 1.350 . S
N2170 S2168 1.610 . S
N2170 C2171 1.351 . S
C2171 C2165 1.428 . S
C2171 N2170 1.351 . S
C2171 C2172 1.434 . S
C2172 C2163 1.429 . S
C2172 N2169 1.350 . S
C2172 C2171 1.434 . S
C2173 C2174 1.369 . S
C2173 C2175 1.419 . S
C2173 H2177 0.930 . S
C2174 C2173 1.369 . S
C2174 C2183 1.429 . S
C2175 C2173 1.419 . S
C2175 C2176 1.363 . S
C2175 H2178 0.929 . S
C2176 C2175 1.363 . S
C2176 C2182 1.428 . S
H2177 C2173 0.930 . S
H2178 C2175 0.929 . S
S2179 N2180 1.613 . S
S2179 N2181 1.610 . S
N2180 S2179 1.613 . S
N2180 C2183 1.350 . S
N2181 S2179 1.610 . S
N2181 C2182 1.351 . S
C2182 C2176 1.428 . S
C2182 N2181 1.351 . S
C2182 C2183 1.434 . S
C2183 C2174 1.429 . S
C2183 N2180 1.350 . S
C2183 C2182 1.434 . S
C2184 C2185 1.369 . S
C2184 C2186 1.419 . S
C2184 H2188 0.930 . S
C2185 C2184 1.369 . S
C2185 C2194 1.429 . S
C2186 C2184 1.419 . S
C2186 C2187 1.363 . S
C2186 H2189 0.929 . S
C2187 C2186 1.363 . S
C2187 C2193 1.428 . S
H2188 C2184 0.930 . S
H2189 C2186 0.929 . S
S2190 N2191 1.613 . S
S2190 N2192 1.610 . S
N2191 S2190 1.613 . S
N2191 C2194 1.350 . S
N2192 S2190 1.610 . S
N2192 C2193 1.351 . S
C2193 C2187 1.428 . S
C2193 N2192 1.351 . S
C2193 C2194 1.434 . S
C2194 C2185 1.429 . S
C2194 N2191 1.350 . S
C2194 C2193 1.434 . S
C2195 C2196 1.369 . S
C2195 C2197 1.419 . S
C2195 H2199 0.930 . S
C2196 C2195 1.369 . S
C2196 C2205 1.429 . S
C2197 C2195 1.419 . S
C2197 C2198 1.363 . S
C2197 H2200 0.929 . S
C2198 C2197 1.363 . S
C2198 C2204 1.428 . S
H2199 C2195 0.930 . S
H2200 C2197 0.929 . S
S2201 N2202 1.613 . S
S2201 N2203 1.610 . S
N2202 S2201 1.613 . S
N2202 C2205 1.350 . S
N2203 S2201 1.610 . S
N2203 C2204 1.351 . S
C2204 C2198 1.428 . S
C2204 N2203 1.351 . S
C2204 C2205 1.434 . S
C2205 C2196 1.429 . S
C2205 N2202 1.350 . S
C2205 C2204 1.434 . S
C2206 C2207 1.369 1_554 S
C2206 C2208 1.419 . S
C2206 H2210 0.930 . S
C2207 C2206 1.369 1_556 S
C2207 C2216 1.429 . S
C2208 C2206 1.419 . S
C2208 C2209 1.363 . S
C2208 H2211 0.929 . S
C2209 C2208 1.363 . S
C2209 C2215 1.428 1_554 S
H2210 C2206 0.930 . S
H2211 C2208 0.929 . S
S2212 N2213 1.613 1_655 S
S2212 N2214 1.610 1_655 S
N2213 S2212 1.613 1_455 S
N2213 C2216 1.350 . S
N2214 S2212 1.610 1_455 S
N2214 C2215 1.351 . S
C2215 C2209 1.428 1_556 S
C2215 N2214 1.351 . S
C2215 C2216 1.434 . S
C2216 C2207 1.429 . S
C2216 N2213 1.350 . S
C2216 C2215 1.434 . S
C2217 C2218 1.369 . S
C2217 C2219 1.419 1_455 S
C2217 H2221 0.930 . S
C2218 C2217 1.369 . S
C2218 C2227 1.429 . S
C2219 C2217 1.419 1_655 S
C2219 C2220 1.363 . S
C2219 H2222 0.929 . S
C2220 C2219 1.363 . S
C2220 C2226 1.428 1_655 S
H2221 C2217 0.930 . S
H2222 C2219 0.929 . S
S2223 N2224 1.613 . S
S2223 N2225 1.610 . S
N2224 S2223 1.613 . S
N2224 C2227 1.350 . S
N2225 S2223 1.610 . S
N2225 C2226 1.351 . S
C2226 C2220 1.428 1_455 S
C2226 N2225 1.351 . S
C2226 C2227 1.434 . S
C2227 C2218 1.429 . S
C2227 N2224 1.350 . S
C2227 C2226 1.434 . S
C2228 C2229 1.369 . S
C2228 C2230 1.419 . S
C2228 H2232 0.930 . S
C2229 C2228 1.369 . S
C2229 C2238 1.429 . S
C2230 C2228 1.419 . S
C2230 C2231 1.363 . S
C2230 H2233 0.929 . S
C2231 C2230 1.363 . S
C2231 C2237 1.428 . S
H2232 C2228 0.930 . S
H2233 C2230 0.929 . S
S2234 N2235 1.613 . S
S2234 N2236 1.610 . S
N2235 S2234 1.613 . S
N2235 C2238 1.350 . S
N2236 S2234 1.610 . S
N2236 C2237 1.351 . S
C2237 C2231 1.428 . S
C2237 N2236 1.351 . S
C2237 C2238 1.434 . S
C2238 C2229 1.429 . S
C2238 N2235 1.350 . S
C2238 C2237 1.434 . S
C2239 C2240 1.369 . S
C2239 C2241 1.419 . S
C2239 H2243 0.930 . S
C2240 C2239 1.369 . S
C2240 C2249 1.429 . S
C2241 C2239 1.419 . S
C2241 C2242 1.363 . S
C2241 H2244 0.929 1_455 S
C2242 C2241 1.363 . S
C2242 C2248 1.428 . S
H2243 C2239 0.930 . S
H2244 C2241 0.929 1_655 S
S2245 N2246 1.613 . S
S2245 N2247 1.610 . S
N2246 S2245 1.613 . S
N2246 C2249 1.350 . S
N2247 S2245 1.610 . S
N2247 C2248 1.351 . S
C2248 C2242 1.428 . S
C2248 N2247 1.351 . S
C2248 C2249 1.434 . S
C2249 C2240 1.429 . S
C2249 N2246 1.350 . S
C2249 C2248 1.434 . S
C2250 C2251 1.369 1_455 S
C2250 C2252 1.419 . S
C2250 H2254 0.930 . S
C2251 C2250 1.369 1_655 S
C2251 C2260 1.429 . S
C2252 C2250 1.419 . S
C2252 C2253 1.363 . S
C2252 H2255 0.929 . S
C2253 C2252 1.363 . S
C2253 C2259 1.428 1_455 S
H2254 C2250 0.930 . S
H2255 C2252 0.929 . S
S2256 N2257 1.613 . S
S2256 N2258 1.610 . S
N2257 S2256 1.613 . S
N2257 C2260 1.350 . S
N2258 S2256 1.610 . S
N2258 C2259 1.351 . S
C2259 C2253 1.428 1_655 S
C2259 N2258 1.351 . S
C2259 C2260 1.434 . S
C2260 C2251 1.429 . S
C2260 N2257 1.350 . S
C2260 C2259 1.434 . S
C2261 C2262 1.369 . S
C2261 C2263 1.419 . S
C2261 H2265 0.930 . S
C2262 C2261 1.369 . S
C2262 C2271 1.429 . S
C2263 C2261 1.419 . S
C2263 C2264 1.363 . S
C2263 H2266 0.929 . S
C2264 C2263 1.363 . S
C2264 C2270 1.428 . S
H2265 C2261 0.930 . S
H2266 C2263 0.929 . S
S2267 N2268 1.613 . S
S2267 N2269 1.610 . S
N2268 S2267 1.613 . S
N2268 C2271 1.350 . S
N2269 S2267 1.610 . S
N2269 C2270 1.351 . S
C2270 C2264 1.428 . S
C2270 N2269 1.351 . S
C2270 C2271 1.434 . S
C2271 C2262 1.429 . S
C2271 N2268 1.350 . S
C2271 C2270 1.434 . S
C2272 C2273 1.369 . S
C2272 C2274 1.419 . S
C2272 H2276 0.930 . S
C2273 C2272 1.369 . S
C2273 C2282 1.429 . S
C2274 C2272 1.419 . S
C2274 C2275 1.363 . S
C2274 H2277 0.929 . S
C2275 C2274 1.363 . S
C2275 C2281 1.428 . S
H2276 C2272 0.930 . S
H2277 C2274 0.929 . S
S2278 N2279 1.613 . S
S2278 N2280 1.610 . S
N2279 S2278 1.613 . S
N2279 C2282 1.350 . S
N2280 S2278 1.610 . S
N2280 C2281 1.351 . S
C2281 C2275 1.428 . S
C2281 N2280 1.351 . S
C2281 C2282 1.434 . S
C2282 C2273 1.429 . S
C2282 N2279 1.350 . S
C2282 C2281 1.434 . S
C2283 C2284 1.369 . S
C2283 C2285 1.419 . S
C2283 H2287 0.930 . S
C2284 C2283 1.369 . S
C2284 C2293 1.429 . S
C2285 C2283 1.419 . S
C2285 C2286 1.363 . S
C2285 H2288 0.929 . S
C2286 C2285 1.363 . S
C2286 C2292 1.428 . S
H2287 C2283 0.930 . S
H2288 C2285 0.929 . S
S2289 N2290 1.613 . S
S2289 N2291 1.610 . S
N2290 S2289 1.613 . S
N2290 C2293 1.350 1_554 S
N2291 S2289 1.610 . S
N2291 C2292 1.351 1_554 S
C2292 C2286 1.428 . S
C2292 N2291 1.351 1_556 S
C2292 C2293 1.434 . S
C2293 C2284 1.429 . S
C2293 N2290 1.350 1_556 S
C2293 C2292 1.434 . S
C2294 C2295 1.369 . S
C2294 C2296 1.419 . S
C2294 H2298 0.930 . S
C2295 C2294 1.369 . S
C2295 C2304 1.429 . S
C2296 C2294 1.419 . S
C2296 C2297 1.363 . S
C2296 H2299 0.929 . S
C2297 C2296 1.363 . S
C2297 C2303 1.428 . S
H2298 C2294 0.930 . S
H2299 C2296 0.929 . S
S2300 N2301 1.613 . S
S2300 N2302 1.610 . S
N2301 S2300 1.613 . S
N2301 C2304 1.350 . S
N2302 S2300 1.610 . S
N2302 C2303 1.351 . S
C2303 C2297 1.428 . S
C2303 N2302 1.351 . S
C2303 C2304 1.434 . S
C2304 C2295 1.429 . S
C2304 N2301 1.350 . S
C2304 C2303 1.434 . S
C2305 C2306 1.369 . S
C2305 C2307 1.419 . S
C2305 H2309 0.930 . S
C2306 C2305 1.369 . S
C2306 C2315 1.429 . S
C2307 C2305 1.419 . S
C2307 C2308 1.363 . S
C2307 H2310 0.929 . S
C2308 C2307 1.363 . S
C2308 C2314 1.428 . S
H2309 C2305 0.930 . S
H2310 C2307 0.929 . S
S2311 N2312 1.613 . S
S2311 N2313 1.610 . S
N2312 S2311 1.613 . S
N2312 C2315 1.350 . S
N2313 S2311 1.610 . S
N2313 C2314 1.351 . S
C2314 C2308 1.428 . S
C2314 N2313 1.351 . S
C2314 C2315 1.434 . S
C2315 C2306 1.429 . S
C2315 N2312 1.350 . S
C2315 C2314 1.434 . S
C2316 C2317 1.369 . S
C2316 C2318 1.419 . S
C2316 H2320 0.930 . S
C2317 C2316 1.369 . S
C2317 C2326 1.429 . S
C2318 C2316 1.419 . S
C2318 C2319 1.363 . S
C2318 H2321 0.929 . S
C2319 C2318 1.363 . S
C2319 C2325 1.428 . S
H2320 C2316 0.930 . S
H2321 C2318 0.929 . S
S2322 N2323 1.613 . S
S2322 N2324 1.610 . S
N2323 S2322 1.613 . S
N2323 C2326 1.350 . S
N2324 S2322 1.610 . S
N2324 C2325 1.351 . S
C2325 C2319 1.428 . S
C2325 N2324 1.351 . S
C2325 C2326 1.434 . S
C2326 C2317 1.429 . S
C2326 N2323 1.350 . S
C2326 C2325 1.434 . S
C2327 C2328 1.369 . S
C2327 C2329 1.419 . S
C2327 H2331 0.930 . S
C2328 C2327 1.369 . S
C2328 C2337 1.429 . S
C2329 C2327 1.419 . S
C2329 C2330 1.363 . S
C2329 H2332 0.929 . S
C2330 C2329 1.363 . S
C2330 C2336 1.428 . S
H2331 C2327 0.930 . S
H2332 C2329 0.929 . S
S2333 N2334 1.613 . S
S2333 N2335 1.610 . S
N2334 S2333 1.613 . S
N2334 C2337 1.350 . S
N2335 S2333 1.610 . S
N2335 C2336 1.351 . S
C2336 C2330 1.428 . S
C2336 N2335 1.351 . S
C2336 C2337 1.434 . S
C2337 C2328 1.429 . S
C2337 N2334 1.350 . S
C2337 C2336 1.434 . S
C2338 C2339 1.369 . S
C2338 C2340 1.419 . S
C2338 H2342 0.930 . S
C2339 C2338 1.369 . S
C2339 C2348 1.429 . S
C2340 C2338 1.419 . S
C2340 C2341 1.363 . S
C2340 H2343 0.929 . S
C2341 C2340 1.363 . S
C2341 C2347 1.428 . S
H2342 C2338 0.930 . S
H2343 C2340 0.929 . S
S2344 N2345 1.613 . S
S2344 N2346 1.610 . S
N2345 S2344 1.613 . S
N2345 C2348 1.350 . S
N2346 S2344 1.610 . S
N2346 C2347 1.351 . S
C2347 C2341 1.428 . S
C2347 N2346 1.351 . S
C2347 C2348 1.434 . S
C2348 C2339 1.429 . S
C2348 N2345 1.350 . S
C2348 C2347 1.434 . S
C2349 C2350 1.369 . S
C2349 C2351 1.419 . S
C2349 H2353 0.930 . S
C2350 C2349 1.369 . S
C2350 C2359 1.429 . S
C2351 C2349 1.419 . S
C2351 C2352 1.363 . S
C2351 H2354 0.929 . S
C2352 C2351 1.363 . S
C2352 C2358 1.428 . S
H2353 C2349 0.930 . S
H2354 C2351 0.929 . S
S2355 N2356 1.613 . S
S2355 N2357 1.610 . S
N2356 S2355 1.613 . S
N2356 C2359 1.350 . S
N2357 S2355 1.610 . S
N2357 C2358 1.351 . S
C2358 C2352 1.428 . S
C2358 N2357 1.351 . S
C2358 C2359 1.434 . S
C2359 C2350 1.429 . S
C2359 N2356 1.350 . S
C2359 C2358 1.434 . S
C2360 C2361 1.369 . S
C2360 C2362 1.419 . S
C2360 H2364 0.930 . S
C2361 C2360 1.369 . S
C2361 C2370 1.429 . S
C2362 C2360 1.419 . S
C2362 C2363 1.363 . S
C2362 H2365 0.929 . S
C2363 C2362 1.363 . S
C2363 C2369 1.428 . S
H2364 C2360 0.930 . S
H2365 C2362 0.929 . S
S2366 N2367 1.613 . S
S2366 N2368 1.610 . S
N2367 S2366 1.613 . S
N2367 C2370 1.350 . S
N2368 S2366 1.610 . S
N2368 C2369 1.351 . S
C2369 C2363 1.428 . S
C2369 N2368 1.351 . S
C2369 C2370 1.434 . S
C2370 C2361 1.429 . S
C2370 N2367 1.350 . S
C2370 C2369 1.434 . S
C2371 C2372 1.369 . S
C2371 C2373 1.419 . S
C2371 H2375 0.930 . S
C2372 C2371 1.369 . S
C2372 C2381 1.429 . S
C2373 C2371 1.419 . S
C2373 C2374 1.363 . S
C2373 H2376 0.929 . S
C2374 C2373 1.363 . S
C2374 C2380 1.428 . S
H2375 C2371 0.930 . S
H2376 C2373 0.929 . S
S2377 N2378 1.613 . S
S2377 N2379 1.610 . S
N2378 S2377 1.613 . S
N2378 C2381 1.350 . S
N2379 S2377 1.610 . S
N2379 C2380 1.351 . S
C2380 C2374 1.428 . S
C2380 N2379 1.351 . S
C2380 C2381 1.434 . S
C2381 C2372 1.429 . S
C2381 N2378 1.350 . S
C2381 C2380 1.434 . S
C2382 C2383 1.369 . S
C2382 C2384 1.419 . S
C2382 H2386 0.930 . S
C2383 C2382 1.369 . S
C2383 C2392 1.429 . S
C2384 C2382 1.419 . S
C2384 C2385 1.363 . S
C2384 H2387 0.929 . S
C2385 C2384 1.363 . S
C2385 C2391 1.428 . S
H2386 C2382 0.930 . S
H2387 C2384 0.929 . S
S2388 N2389 1.613 . S
S2388 N2390 1.610 . S
N2389 S2388 1.613 . S
N2389 C2392 1.350 . S
N2390 S2388 1.610 . S
N2390 C2391 1.351 . S
C2391 C2385 1.428 . S
C2391 N2390 1.351 . S
C2391 C2392 1.434 . S
C2392 C2383 1.429 . S
C2392 N2389 1.350 . S
C2392 C2391 1.434 . S
C2393 C2394 1.378 1_545 S
C2393 C2395 1.414 . S
C2393 H2397 0.927 1_554 S
C2394 C2393 1.378 1_565 S
C2394 C2403 1.429 . S
C2395 C2393 1.414 . S
C2395 C2396 1.363 . S
C2395 H2398 0.935 . S
C2396 C2395 1.363 . S
C2396 C2402 1.428 1_545 S
H2397 C2393 0.927 1_556 S
H2398 C2395 0.935 . S
S2399 N2400 1.613 . S
S2399 N2401 1.610 . S
N2400 S2399 1.613 . S
N2400 C2403 1.350 . S
N2401 S2399 1.610 . S
N2401 C2402 1.351 . S
C2402 C2396 1.428 1_565 S
C2402 N2401 1.351 . S
C2402 C2403 1.434 . S
C2403 C2394 1.429 . S
C2403 N2400 1.350 . S
C2403 C2402 1.434 . S
C2404 C2405 1.369 . S
C2404 C2406 1.419 . S
C2404 H2408 0.930 . S
C2405 C2404 1.369 . S
C2405 C2414 1.429 . S
C2406 C2404 1.419 . S
C2406 C2407 1.363 . S
C2406 H2409 0.929 . S
C2407 C2406 1.363 . S
C2407 C2413 1.428 . S
H2408 C2404 0.930 . S
H2409 C2406 0.929 . S
S2410 N2411 1.613 . S
S2410 N2412 1.610 . S
N2411 S2410 1.613 . S
N2411 C2414 1.350 . S
N2412 S2410 1.610 . S
N2412 C2413 1.351 . S
C2413 C2407 1.428 . S
C2413 N2412 1.351 . S
C2413 C2414 1.434 . S
C2414 C2405 1.429 . S
C2414 N2411 1.350 . S
C2414 C2413 1.434 . S
C2415 C2416 1.369 . S
C2415 C2417 1.419 . S
C2415 H2419 0.930 . S
C2416 C2415 1.369 . S
C2416 C2425 1.429 . S
C2417 C2415 1.419 . S
C2417 C2418 1.363 . S
C2417 H2420 0.929 . S
C2418 C2417 1.363 . S
C2418 C2424 1.428 . S
H2419 C2415 0.930 . S
H2420 C2417 0.929 . S
S2421 N2422 1.613 . S
S2421 N2423 1.610 . S
N2422 S2421 1.613 . S
N2422 C2425 1.350 . S
N2423 S2421 1.610 . S
N2423 C2424 1.351 . S
C2424 C2418 1.428 . S
C2424 N2423 1.351 . S
C2424 C2425 1.434 . S
C2425 C2416 1.429 . S
C2425 N2422 1.350 . S
C2425 C2424 1.434 . S
C2426 C2427 1.369 . S
C2426 C2428 1.419 . S
C2426 H2430 0.930 . S
C2427 C2426 1.369 . S
C2427 C2436 1.429 . S
C2428 C2426 1.419 . S
C2428 C2429 1.363 . S
C2428 H2431 0.929 . S
C2429 C2428 1.363 . S
C2429 C2435 1.428 . S
H2430 C2426 0.930 . S
H2431 C2428 0.929 . S
S2432 N2433 1.613 . S
S2432 N2434 1.610 . S
N2433 S2432 1.613 . S
N2433 C2436 1.350 . S
N2434 S2432 1.610 . S
N2434 C2435 1.351 . S
C2435 C2429 1.428 . S
C2435 N2434 1.351 . S
C2435 C2436 1.434 . S
C2436 C2427 1.429 . S
C2436 N2433 1.350 . S
C2436 C2435 1.434 . S
C2437 C2438 1.369 . S
C2437 C2439 1.419 . S
C2437 H2441 0.930 . S
C2438 C2437 1.369 . S
C2438 C2447 1.429 . S
C2439 C2437 1.419 . S
C2439 C2440 1.363 . S
C2439 H2442 0.929 . S
C2440 C2439 1.363 . S
C2440 C2446 1.428 . S
H2441 C2437 0.930 . S
H2442 C2439 0.929 . S
S2443 N2444 1.613 . S
S2443 N2445 1.610 . S
N2444 S2443 1.613 . S
N2444 C2447 1.350 . S
N2445 S2443 1.610 . S
N2445 C2446 1.351 . S
C2446 C2440 1.428 . S
C2446 N2445 1.351 . S
C2446 C2447 1.434 . S
C2447 C2438 1.429 . S
C2447 N2444 1.350 . S
C2447 C2446 1.434 . S
C2448 C2449 1.369 . S
C2448 C2450 1.419 . S
C2448 H2452 0.930 . S
C2449 C2448 1.369 . S
C2449 C2458 1.429 . S
C2450 C2448 1.419 . S
C2450 C2451 1.363 . S
C2450 H2453 0.929 . S
C2451 C2450 1.363 . S
C2451 C2457 1.428 . S
H2452 C2448 0.930 . S
H2453 C2450 0.929 . S
S2454 N2455 1.613 . S
S2454 N2456 1.610 . S
N2455 S2454 1.613 . S
N2455 C2458 1.350 . S
N2456 S2454 1.610 . S
N2456 C2457 1.351 . S
C2457 C2451 1.428 . S
C2457 N2456 1.351 . S
C2457 C2458 1.434 . S
C2458 C2449 1.429 . S
C2458 N2455 1.350 . S
C2458 C2457 1.434 . S
C2459 C2460 1.369 . S
C2459 C2461 1.419 . S
C2459 H2463 0.930 . S
C2460 C2459 1.369 . S
C2460 C2469 1.429 . S
C2461 C2459 1.419 . S
C2461 C2462 1.363 . S
C2461 H2464 0.929 . S
C2462 C2461 1.363 . S
C2462 C2468 1.428 . S
H2463 C2459 0.930 . S
H2464 C2461 0.929 . S
S2465 N2466 1.613 . S
S2465 N2467 1.610 . S
N2466 S2465 1.613 . S
N2466 C2469 1.350 . S
N2467 S2465 1.610 . S
N2467 C2468 1.351 . S
C2468 C2462 1.428 . S
C2468 N2467 1.351 . S
C2468 C2469 1.434 . S
C2469 C2460 1.429 . S
C2469 N2466 1.350 . S
C2469 C2468 1.434 . S
C2470 C2471 1.369 . S
C2470 C2472 1.419 . S
C2470 H2474 0.930 . S
C2471 C2470 1.369 . S
C2471 C2480 1.429 . S
C2472 C2470 1.419 . S
C2472 C2473 1.363 . S
C2472 H2475 0.929 . S
C2473 C2472 1.363 . S
C2473 C2479 1.428 . S
H2474 C2470 0.930 . S
H2475 C2472 0.929 . S
S2476 N2477 1.613 1_556 S
S2476 N2478 1.610 . S
N2477 S2476 1.613 1_554 S
N2477 C2480 1.350 . S
N2478 S2476 1.610 . S
N2478 C2479 1.351 1_556 S
C2479 C2473 1.428 . S
C2479 N2478 1.351 1_554 S
C2479 C2480 1.434 . S
C2480 C2471 1.429 . S
C2480 N2477 1.350 . S
C2480 C2479 1.434 . S
C2481 C2482 1.369 . S
C2481 C2483 1.419 . S
C2481 H2485 0.930 . S
C2482 C2481 1.369 . S
C2482 C2491 1.429 . S
C2483 C2481 1.419 . S
C2483 C2484 1.363 . S
C2483 H2486 0.929 . S
C2484 C2483 1.363 . S
C2484 C2490 1.428 . S
H2485 C2481 0.930 . S
H2486 C2483 0.929 . S
S2487 N2488 1.613 . S
S2487 N2489 1.610 . S
N2488 S2487 1.613 . S
N2488 C2491 1.350 . S
N2489 S2487 1.610 . S
N2489 C2490 1.351 . S
C2490 C2484 1.428 . S
C2490 N2489 1.351 . S
C2490 C2491 1.434 . S
C2491 C2482 1.429 . S
C2491 N2488 1.350 . S
C2491 C2490 1.434 . S
C2492 C2493 1.369 . S
C2492 C2494 1.419 . S
C2492 H2496 0.930 . S
C2493 C2492 1.369 . S
C2493 C2502 1.429 . S
C2494 C2492 1.419 . S
C2494 C2495 1.363 . S
C2494 H2497 0.929 . S
C2495 C2494 1.363 . S
C2495 C2501 1.428 . S
H2496 C2492 0.930 . S
H2497 C2494 0.929 . S
S2498 N2499 1.613 . S
S2498 N2500 1.610 . S
N2499 S2498 1.613 . S
N2499 C2502 1.350 . S
N2500 S2498 1.610 . S
N2500 C2501 1.351 . S
C2501 C2495 1.428 . S
C2501 N2500 1.351 . S
C2501 C2502 1.434 . S
C2502 C2493 1.429 . S
C2502 N2499 1.350 . S
C2502 C2501 1.434 . S
C2503 C2504 1.369 . S
C2503 C2505 1.419 . S
C2503 H2507 0.930 . S
C2504 C2503 1.369 . S
C2504 C2513 1.429 . S
C2505 C2503 1.419 . S
C2505 C2506 1.363 . S
C2505 H2508 0.929 . S
C2506 C2505 1.363 . S
C2506 C2512 1.428 . S
H2507 C2503 0.930 . S
H2508 C2505 0.929 . S
S2509 N2510 1.613 . S
S2509 N2511 1.610 . S
N2510 S2509 1.613 . S
N2510 C2513 1.350 . S
N2511 S2509 1.610 . S
N2511 C2512 1.351 . S
C2512 C2506 1.428 . S
C2512 N2511 1.351 . S
C2512 C2513 1.434 . S
C2513 C2504 1.429 . S
C2513 N2510 1.350 . S
C2513 C2512 1.434 . S
C2514 C2515 1.369 . S
C2514 C2516 1.419 . S
C2514 H2518 0.930 . S
C2515 C2514 1.369 . S
C2515 C2524 1.429 . S
C2516 C2514 1.419 . S
C2516 C2517 1.363 . S
C2516 H2519 0.929 . S
C2517 C2516 1.363 . S
C2517 C2523 1.428 . S
H2518 C2514 0.930 . S
H2519 C2516 0.929 . S
S2520 N2521 1.613 . S
S2520 N2522 1.610 . S
N2521 S2520 1.613 . S
N2521 C2524 1.350 . S
N2522 S2520 1.610 . S
N2522 C2523 1.351 . S
C2523 C2517 1.428 . S
C2523 N2522 1.351 . S
C2523 C2524 1.434 . S
C2524 C2515 1.429 . S
C2524 N2521 1.350 . S
C2524 C2523 1.434 . S
C2525 C2526 1.369 . S
C2525 C2527 1.419 . S
C2525 H2529 0.930 . S
C2526 C2525 1.369 . S
C2526 C2535 1.429 . S
C2527 C2525 1.419 . S
C2527 C2528 1.363 . S
C2527 H2530 0.929 . S
C2528 C2527 1.363 . S
C2528 C2534 1.428 . S
H2529 C2525 0.930 . S
H2530 C2527 0.929 . S
S2531 N2532 1.613 . S
S2531 N2533 1.610 . S
N2532 S2531 1.613 . S
N2532 C2535 1.350 . S
N2533 S2531 1.610 . S
N2533 C2534 1.351 . S
C2534 C2528 1.428 . S
C2534 N2533 1.351 . S
C2534 C2535 1.434 . S
C2535 C2526 1.429 . S
C2535 N2532 1.350 . S
C2535 C2534 1.434 . S
C2536 C2537 1.369 . S
C2536 C2538 1.419 . S
C2536 H2540 0.930 . S
C2537 C2536 1.369 . S
C2537 C2546 1.429 . S
C2538 C2536 1.419 . S
C2538 C2539 1.363 . S
C2538 H2541 0.929 . S
C2539 C2538 1.363 . S
C2539 C2545 1.428 . S
H2540 C2536 0.930 . S
H2541 C2538 0.929 . S
S2542 N2543 1.613 . S
S2542 N2544 1.610 . S
N2543 S2542 1.613 . S
N2543 C2546 1.350 . S
N2544 S2542 1.610 . S
N2544 C2545 1.351 . S
C2545 C2539 1.428 . S
C2545 N2544 1.351 . S
C2545 C2546 1.434 . S
C2546 C2537 1.429 . S
C2546 N2543 1.350 . S
C2546 C2545 1.434 . S
C2547 C2548 1.369 . S
C2547 C2549 1.419 . S
C2547 H2551 0.930 . S
C2548 C2547 1.369 . S
C2548 C2557 1.429 . S
C2549 C2547 1.419 . S
C2549 C2550 1.363 . S
C2549 H2552 0.929 . S
C2550 C2549 1.363 . S
C2550 C2556 1.428 . S
H2551 C2547 0.930 . S
H2552 C2549 0.929 . S
S2553 N2554 1.613 . S
S2553 N2555 1.610 . S
N2554 S2553 1.613 . S
N2554 C2557 1.350 . S
N2555 S2553 1.610 . S
N2555 C2556 1.351 . S
C2556 C2550 1.428 . S
C2556 N2555 1.351 . S
C2556 C2557 1.434 . S
C2557 C2548 1.429 . S
C2557 N2554 1.350 . S
C2557 C2556 1.434 . S
C2558 C2559 1.369 . S
C2558 C2560 1.419 . S
C2558 H2562 0.930 . S
C2559 C2558 1.369 . S
C2559 C2568 1.429 . S
C2560 C2558 1.419 . S
C2560 C2561 1.363 1_655 S
C2560 H2563 0.929 . S
C2561 C2560 1.363 1_455 S
C2561 C2567 1.428 . S
H2562 C2558 0.930 . S
H2563 C2560 0.929 . S
S2564 N2565 1.613 1_455 S
S2564 N2566 1.610 . S
N2565 S2564 1.613 1_655 S
N2565 C2568 1.350 . S
N2566 S2564 1.610 . S
N2566 C2567 1.351 . S
C2567 C2561 1.428 . S
C2567 N2566 1.351 . S
C2567 C2568 1.434 1_455 S
C2568 C2559 1.429 . S
C2568 N2565 1.350 . S
C2568 C2567 1.434 1_655 S
C2569 C2570 1.369 . S
C2569 C2571 1.419 . S
C2569 H2573 0.930 . S
C2570 C2569 1.369 . S
C2570 C2579 1.429 . S
C2571 C2569 1.419 . S
C2571 C2572 1.363 . S
C2571 H2574 0.929 . S
C2572 C2571 1.363 . S
C2572 C2578 1.428 . S
H2573 C2569 0.930 . S
H2574 C2571 0.929 . S
S2575 N2576 1.613 . S
S2575 N2577 1.610 . S
N2576 S2575 1.613 . S
N2576 C2579 1.350 . S
N2577 S2575 1.610 . S
N2577 C2578 1.351 . S
C2578 C2572 1.428 . S
C2578 N2577 1.351 . S
C2578 C2579 1.434 . S
C2579 C2570 1.429 . S
C2579 N2576 1.350 . S
C2579 C2578 1.434 . S
C2580 C2581 1.369 . S
C2580 C2582 1.419 . S
C2580 H2584 0.930 . S
C2581 C2580 1.369 . S
C2581 C2590 1.429 . S
C2582 C2580 1.419 . S
C2582 C2583 1.363 . S
C2582 H2585 0.929 . S
C2583 C2582 1.363 . S
C2583 C2589 1.428 . S
H2584 C2580 0.930 . S
H2585 C2582 0.929 . S
S2586 N2587 1.613 . S
S2586 N2588 1.610 . S
N2587 S2586 1.613 . S
N2587 C2590 1.350 . S
N2588 S2586 1.610 . S
N2588 C2589 1.351 . S
C2589 C2583 1.428 . S
C2589 N2588 1.351 . S
C2589 C2590 1.434 . S
C2590 C2581 1.429 . S
C2590 N2587 1.350 . S
C2590 C2589 1.434 . S
C2591 C2592 1.369 . S
C2591 C2593 1.419 . S
C2591 H2595 0.930 . S
C2592 C2591 1.369 . S
C2592 C2601 1.429 . S
C2593 C2591 1.419 . S
C2593 C2594 1.363 . S
C2593 H2596 0.929 . S
C2594 C2593 1.363 . S
C2594 C2600 1.428 . S
H2595 C2591 0.930 . S
H2596 C2593 0.929 . S
S2597 N2598 1.613 . S
S2597 N2599 1.610 . S
N2598 S2597 1.613 . S
N2598 C2601 1.350 . S
N2599 S2597 1.610 . S
N2599 C2600 1.351 . S
C2600 C2594 1.428 . S
C2600 N2599 1.351 . S
C2600 C2601 1.434 . S
C2601 C2592 1.429 . S
C2601 N2598 1.350 . S
C2601 C2600 1.434 . S
C2602 C2603 1.369 . S
C2602 C2604 1.419 . S
C2602 H2606 0.930 . S
C2603 C2602 1.369 . S
C2603 C2612 1.429 . S
C2604 C2602 1.419 . S
C2604 C2605 1.363 . S
C2604 H2607 0.929 . S
C2605 C2604 1.363 . S
C2605 C2611 1.428 . S
H2606 C2602 0.930 . S
H2607 C2604 0.929 . S
S2608 N2609 1.613 . S
S2608 N2610 1.610 . S
N2609 S2608 1.613 . S
N2609 C2612 1.350 . S
N2610 S2608 1.610 . S
N2610 C2611 1.351 . S
C2611 C2605 1.428 . S
C2611 N2610 1.351 . S
C2611 C2612 1.434 . S
C2612 C2603 1.429 . S
C2612 N2609 1.350 . S
C2612 C2611 1.434 . S
C2613 C2614 1.369 . S
C2613 C2615 1.419 . S
C2613 H2617 0.930 . S
C2614 C2613 1.369 . S
C2614 C2623 1.429 . S
C2615 C2613 1.419 . S
C2615 C2616 1.363 . S
C2615 H2618 0.929 . S
C2616 C2615 1.363 . S
C2616 C2622 1.428 . S
H2617 C2613 0.930 . S
H2618 C2615 0.929 . S
S2619 N2620 1.613 . S
S2619 N2621 1.610 . S
N2620 S2619 1.613 . S
N2620 C2623 1.350 . S
N2621 S2619 1.610 . S
N2621 C2622 1.351 . S
C2622 C2616 1.428 . S
C2622 N2621 1.351 . S
C2622 C2623 1.434 . S
C2623 C2614 1.429 . S
C2623 N2620 1.350 . S
C2623 C2622 1.434 . S
C2624 C2625 1.369 . S
C2624 C2626 1.419 . S
C2624 H2628 0.930 . S
C2625 C2624 1.369 . S
C2625 C2634 1.429 . S
C2626 C2624 1.419 . S
C2626 C2627 1.363 . S
C2626 H2629 0.929 . S
C2627 C2626 1.363 . S
C2627 C2633 1.428 . S
H2628 C2624 0.930 . S
H2629 C2626 0.929 . S
S2630 N2631 1.613 . S
S2630 N2632 1.610 . S
N2631 S2630 1.613 . S
N2631 C2634 1.350 . S
N2632 S2630 1.610 . S
N2632 C2633 1.351 . S
C2633 C2627 1.428 . S
C2633 N2632 1.351 . S
C2633 C2634 1.434 . S
C2634 C2625 1.429 . S
C2634 N2631 1.350 . S
C2634 C2633 1.434 . S
C2635 C2636 1.369 . S
C2635 C2637 1.419 . S
C2635 H2639 0.930 . S
C2636 C2635 1.369 . S
C2636 C2645 1.429 . S
C2637 C2635 1.419 . S
C2637 C2638 1.363 . S
C2637 H2640 0.929 . S
C2638 C2637 1.363 . S
C2638 C2644 1.428 . S
H2639 C2635 0.930 . S
H2640 C2637 0.929 . S
S2641 N2642 1.613 . S
S2641 N2643 1.610 1_655 S
N2642 S2641 1.613 . S
N2642 C2645 1.350 . S
N2643 S2641 1.610 1_455 S
N2643 C2644 1.351 1_455 S
C2644 C2638 1.428 . S
C2644 N2643 1.351 1_655 S
C2644 C2645 1.434 . S
C2645 C2636 1.429 . S
C2645 N2642 1.350 . S
C2645 C2644 1.434 . S
C2646 C2647 1.369 . S
C2646 C2648 1.419 . S
C2646 H2650 0.930 . S
C2647 C2646 1.369 . S
C2647 C2656 1.429 . S
C2648 C2646 1.419 . S
C2648 C2649 1.363 . S
C2648 H2651 0.929 . S
C2649 C2648 1.363 . S
C2649 C2655 1.428 . S
H2650 C2646 0.930 . S
H2651 C2648 0.929 . S
S2652 N2653 1.613 . S
S2652 N2654 1.610 . S
N2653 S2652 1.613 . S
N2653 C2656 1.350 . S
N2654 S2652 1.610 . S
N2654 C2655 1.351 . S
C2655 C2649 1.428 . S
C2655 N2654 1.351 . S
C2655 C2656 1.434 . S
C2656 C2647 1.429 . S
C2656 N2653 1.350 . S
C2656 C2655 1.434 . S
C2657 C2658 1.369 . S
C2657 C2659 1.419 1_554 S
C2657 H2661 0.930 1_554 S
C2658 C2657 1.369 . S
C2658 C2667 1.429 . S
C2659 C2657 1.419 1_556 S
C2659 C2660 1.363 1_556 S
C2659 H2662 0.929 . S
C2660 C2659 1.363 1_554 S
C2660 C2666 1.428 . S
H2661 C2657 0.930 1_556 S
H2662 C2659 0.929 . S
S2663 N2664 1.613 . S
S2663 N2665 1.610 . S
N2664 S2663 1.613 . S
N2664 C2667 1.350 . S
N2665 S2663 1.610 . S
N2665 C2666 1.351 . S
C2666 C2660 1.428 . S
C2666 N2665 1.351 . S
C2666 C2667 1.434 . S
C2667 C2658 1.429 . S
C2667 N2664 1.350 . S
C2667 C2666 1.434 . S
C2668 C2669 1.369 . S
C2668 C2670 1.419 . S
C2668 H2672 0.930 . S
C2669 C2668 1.369 . S
C2669 C2678 1.429 . S
C2670 C2668 1.419 . S
C2670 C2671 1.363 . S
C2670 H2673 0.929 . S
C2671 C2670 1.363 . S
C2671 C2677 1.428 . S
H2672 C2668 0.930 . S
H2673 C2670 0.929 . S
S2674 N2675 1.613 . S
S2674 N2676 1.610 . S
N2675 S2674 1.613 . S
N2675 C2678 1.350 . S
N2676 S2674 1.610 . S
N2676 C2677 1.351 . S
C2677 C2671 1.428 . S
C2677 N2676 1.351 . S
C2677 C2678 1.434 . S
C2678 C2669 1.429 . S
C2678 N2675 1.350 . S
C2678 C2677 1.434 . S
C2679 C2680 1.369 . S
C2679 C2681 1.419 . S
C2679 H2683 0.930 . S
C2680 C2679 1.369 . S
C2680 C2689 1.429 . S
C2681 C2679 1.419 . S
C2681 C2682 1.363 . S
C2681 H2684 0.929 . S
C2682 C2681 1.363 . S
C2682 C2688 1.428 . S
H2683 C2679 0.930 . S
H2684 C2681 0.929 . S
S2685 N2686 1.613 . S
S2685 N2687 1.610 . S
N2686 S2685 1.613 . S
N2686 C2689 1.350 . S
N2687 S2685 1.610 . S
N2687 C2688 1.351 . S
C2688 C2682 1.428 . S
C2688 N2687 1.351 . S
C2688 C2689 1.434 . S
C2689 C2680 1.429 . S
C2689 N2686 1.350 . S
C2689 C2688 1.434 . S
C2690 C2691 1.369 . S
C2690 C2692 1.419 . S
C2690 H2694 0.930 . S
C2691 C2690 1.369 . S
C2691 C2700 1.429 . S
C2692 C2690 1.419 . S
C2692 C2693 1.363 . S
C2692 H2695 0.929 . S
C2693 C2692 1.363 . S
C2693 C2699 1.428 . S
H2694 C2690 0.930 . S
H2695 C2692 0.929 . S
S2696 N2697 1.613 . S
S2696 N2698 1.610 . S
N2697 S2696 1.613 . S
N2697 C2700 1.350 . S
N2698 S2696 1.610 . S
N2698 C2699 1.351 . S
C2699 C2693 1.428 . S
C2699 N2698 1.351 . S
C2699 C2700 1.434 . S
C2700 C2691 1.429 . S
C2700 N2697 1.350 . S
C2700 C2699 1.434 . S
C2701 C2702 1.369 . S
C2701 C2703 1.419 . S
C2701 H2705 0.930 . S
C2702 C2701 1.369 . S
C2702 C2711 1.429 . S
C2703 C2701 1.419 . S
C2703 C2704 1.363 . S
C2703 H2706 0.929 . S
C2704 C2703 1.363 . S
C2704 C2710 1.428 . S
H2705 C2701 0.930 . S
H2706 C2703 0.929 . S
S2707 N2708 1.613 . S
S2707 N2709 1.610 . S
N2708 S2707 1.613 . S
N2708 C2711 1.350 . S
N2709 S2707 1.610 . S
N2709 C2710 1.351 . S
C2710 C2704 1.428 . S
C2710 N2709 1.351 . S
C2710 C2711 1.434 . S
C2711 C2702 1.429 . S
C2711 N2708 1.350 . S
C2711 C2710 1.434 . S
C1657 C101 1.969 . S
C1659 C379 1.763 . S
C1668 C57 2.223 . S
C1670 C462 2.210 . S
C1679 C70 1.571 . S
C1681 C547 1.450 . S
C1692 C627 1.371 . S
C1690 C82 1.449 . S
C1701 C23 1.670 . S
C1703 C711 1.764 . S
C1714 C804 1.010 . S
C1712 C29 1.047 . S
C1725 C882 1.269 . S
C1723 C49 1.121 . S
C1734 C10 1.882 . S
C1736 C967 1.562 . S
C1747 C378 2.052 . S
C1745 C218 2.144 . S
C1756 C226 0.972 . S
C1758 C459 0.980 . S
C1769 C546 1.326 . S
C1767 C251 1.366 . S
C1780 C631 1.524 . S
C1778 C159 1.644 . S
C1789 C211 2.216 1_455 S
C1791 C715 1.988 . S
C1802 C807 1.259 . S
C1800 C225 1.392 . S
C1813 C879 0.908 . S
C1811 C252 0.916 . S
C1824 C966 1.664 . S
C1822 C166 1.877 . S
C1835 C375 1.492 . S
C1833 C147 1.503 . S
C1844 C263 1.875 . S
C1846 C1050 1.852 . S
C1857 C1124 2.237 . S
C1855 C309 2.475 . S
C1868 C1219 0.648 1_655 S
C1866 C291 0.550 . S
C1877 C108 1.571 . S
C1879 C963 1.771 . S
C1888 C121 1.588 . S
C1890 C543 1.647 . S
C1899 C302 2.125 . S
C1901 C1302 2.062 . S
C1912 C1387 0.815 . S
C1910 C276 0.893 . S
C1923 C368 1.960 . S
C1921 C55 2.086 . S
C1934 C1395 2.345 . S
C1932 C96 2.381 . S
C1943 C88 1.829 . S
C1945 C536 1.758 . S
C1954 C75 1.618 . S
C1956 C1308 1.505 . S
C1967 C720 1.690 . S
C1965 C4 1.649 . S
C1976 C44 1.184 . S
C1978 C1131 1.091 . S
C1989 C891 1.558 . S
C1987 C31 1.447 . S
C2000 C1460 1.639 . S
C1998 C18 1.808 . S
C2011 C387 2.229 . S
C2009 C133 2.337 . S
C2022 C1392 0.913 . S
C2020 C296 0.966 . S
C2031 C107 1.424 . S
C2033 C555 1.374 . S
C2042 C264 1.872 . S
C2044 C1292 1.779 . S
C2053 C140 2.325 . S
C2055 C704 2.164 . S
C2066 C1134 1.325 . S
C2064 C289 1.425 . S
C2075 C114 1.018 . S
C2077 C888 0.940 . S
C2086 C265 1.994 . S
C2088 C1479 1.838 . S
C2097 C179 1.537 . S
C2099 C384 1.485 . S
C2108 C161 2.053 . S
C2110 C1059 1.976 . S
C2119 C244 2.645 . S
C2121 C799 2.457 . S
C2130 C224 0.985 . S
C2132 C1208 0.972 . S
C2143 C1476 1.311 . S
C2141 C257 1.236 1_565 S
C2152 C199 1.582 . S
C2154 C552 1.568 . S
C2165 C639 2.219 . S
C2163 C237 2.322 . S
C2176 C452 0.979 . S
C2174 C185 1.016 . S
C2185 C69 1.967 . S
C2187 C1555 1.772 . S
C2198 C1386 2.204 . S
C2196 C83 2.222 . S
C2207 C94 1.573 . S
C2209 C1639 1.454 . S
C2218 C56 1.447 . S
C2220 C1299 1.376 . S
C2229 C42 1.689 . S
C2231 C1047 1.771 . S
C2242 C1140 1.011 . S
C2240 C3 1.046 . S
C2253 C1218 1.272 . S
C2251 C16 1.133 . S
C2264 C1471 1.570 . S
C2262 C36 1.876 . S
C2275 C1554 2.051 . S
C2273 C238 2.146 . S
C2284 C174 0.954 . S
C2286 C1383 0.978 . S
C2297 C1638 1.322 . S
C2295 C186 1.365 . S
C2308 C1303 1.523 . S
C2306 C198 1.643 . S
C2319 C1051 1.982 . S
C2317 C239 2.222 . S
C2328 C173 1.405 . S
C2330 C1143 1.248 . S
C2341 C1215 0.920 . S
C2339 C187 0.922 . S
C2350 C205 1.873 . S
C2352 C1470 1.669 . S
C2363 C1551 1.490 . S
C2361 C290 1.500 . S
C2372 C122 1.880 . S
C2374 C714 1.844 . S
C2385 C788 2.243 . S
C2383 C134 2.481 . S
C2396 C883 0.633 . S
C2394 C148 0.558 . S
C2407 C1467 1.769 . S
C2405 C283 1.568 . S
C2416 C270 1.577 . S
C2418 C1635 1.643 . S
C2429 C630 2.058 . S
C2427 C135 2.122 . S
C2440 C463 0.830 . S
C2438 C109 0.881 . S
C2449 C81 2.083 . S
C2451 C1544 1.963 . S
C2462 C471 2.342 . S
C2460 C68 2.377 . S
C2471 C62 1.830 . S
C2473 C1628 1.759 . S
C2482 C95 1.620 . S
C2484 C636 1.505 . S
C2493 C30 1.642 . S
C2495 C1056 1.686 . S
C2506 C795 1.075 . S
C2504 C17 1.175 . S
C2515 C5 1.436 . S
C2517 C1227 1.558 . S
C2526 C43 1.805 . S
C2528 C956 1.626 . S
C2539 C1563 2.228 . S
C2537 C304 2.337 . S
C2548 C153 0.960 . S
C2550 C468 0.907 . S
C2561 C1647 1.377 . S
C2559 C278 1.425 . S
C2570 C127 1.874 . S
C2572 C620 1.779 . S
C2581 C303 2.319 . S
C2583 C1040 2.161 . S
C2594 C798 1.315 . S
C2592 C146 1.425 . S
C2603 C277 1.016 . S
C2605 C1224 0.938 . S
C2616 C975 1.829 . S
C2614 C120 1.995 . S
C2627 C1560 1.486 . S
C2625 C231 1.535 . S
C2638 C723 1.987 1_655 S
C2636 C200 2.053 . S
C2647 C212 2.646 . S
C2649 C1135 2.466 . S
C2660 C872 0.972 . S
C2658 C172 0.983 . S
C2669 C192 1.233 . S
C2671 C972 1.310 . S
C2680 C160 1.582 . S
C2682 C1644 1.569 . S
C2693 C1311 2.226 . S
C2691 C213 2.324 1_565 S
C2704 C1376 0.982 . S
C2702 C250 1.015 . S
