# Generated by pormake.
# Topology gar, (4,6)-cn, num edge types: 1
# Building blocks:
#     Node 0, Type 0, BuildingBlock: QUQFOY_clean_sbu_1, # of connection points: 4
#     Node 1, Type 0, BuildingBlock: QUQFOY_clean_sbu_1, # of connection points: 4
#     Node 2, Type 0, BuildingBlock: QUQFOY_clean_sbu_1, # of connection points: 4
#     Node 3, Type 0, BuildingBlock: QUQFOY_clean_sbu_1, # of connection points: 4
#     Node 4, Type 0, BuildingBlock: QUQFOY_clean_sbu_1, # of connection points: 4
#     Node 5, Type 0, BuildingBlock: QUQFOY_clean_sbu_1, # of connection points: 4
#     Node 6, Type 0, BuildingBlock: QUQFOY_clean_sbu_1, # of connection points: 4
#     Node 7, Type 0, BuildingBlock: QUQFOY_clean_sbu_1, # of connection points: 4
#     Node 8, Type 0, BuildingBlock: QUQFOY_clean_sbu_1, # of connection points: 4
#     Node 9, Type 0, BuildingBlock: QUQFOY_clean_sbu_1, # of connection points: 4
#     Node 10, Type 0, BuildingBlock: QUQFOY_clean_sbu_1, # of connection points: 4
#     Node 11, Type 0, BuildingBlock: QUQFOY_clean_sbu_1, # of connection points: 4
#     Node 12, Type 0, BuildingBlock: QUQFOY_clean_sbu_1, # of connection points: 4
#     Node 13, Type 0, BuildingBlock: QUQFOY_clean_sbu_1, # of connection points: 4
#     Node 14, Type 0, BuildingBlock: QUQFOY_clean_sbu_1, # of connection points: 4
#     Node 15, Type 0, BuildingBlock: QUQFOY_clean_sbu_1, # of connection points: 4
#     Node 16, Type 0, BuildingBlock: QUQFOY_clean_sbu_1, # of connection points: 4
#     Node 17, Type 0, BuildingBlock: QUQFOY_clean_sbu_1, # of connection points: 4
#     Node 18, Type 0, BuildingBlock: QUQFOY_clean_sbu_1, # of connection points: 4
#     Node 19, Type 0, BuildingBlock: QUQFOY_clean_sbu_1, # of connection points: 4
#     Node 20, Type 0, BuildingBlock: QUQFOY_clean_sbu_1, # of connection points: 4
#     Node 21, Type 0, BuildingBlock: QUQFOY_clean_sbu_1, # of connection points: 4
#     Node 22, Type 0, BuildingBlock: QUQFOY_clean_sbu_1, # of connection points: 4
#     Node 23, Type 0, BuildingBlock: QUQFOY_clean_sbu_1, # of connection points: 4
#     Node 24, Type 1, BuildingBlock: BETGAK_clean_sbu_0, # of connection points: 6
#     Node 25, Type 1, BuildingBlock: BETGAK_clean_sbu_0, # of connection points: 6
#     Node 26, Type 1, BuildingBlock: BETGAK_clean_sbu_0, # of connection points: 6
#     Node 27, Type 1, BuildingBlock: BETGAK_clean_sbu_0, # of connection points: 6
#     Node 28, Type 1, BuildingBlock: BETGAK_clean_sbu_0, # of connection points: 6
#     Node 29, Type 1, BuildingBlock: BETGAK_clean_sbu_0, # of connection points: 6
#     Node 30, Type 1, BuildingBlock: BETGAK_clean_sbu_0, # of connection points: 6
#     Node 31, Type 1, BuildingBlock: BETGAK_clean_sbu_0, # of connection points: 6
#     Node 32, Type 1, BuildingBlock: BETGAK_clean_sbu_0, # of connection points: 6
#     Node 33, Type 1, BuildingBlock: BETGAK_clean_sbu_0, # of connection points: 6
#     Node 34, Type 1, BuildingBlock: BETGAK_clean_sbu_0, # of connection points: 6
#     Node 35, Type 1, BuildingBlock: BETGAK_clean_sbu_0, # of connection points: 6
#     Node 36, Type 1, BuildingBlock: BETGAK_clean_sbu_0, # of connection points: 6
#     Node 37, Type 1, BuildingBlock: BETGAK_clean_sbu_0, # of connection points: 6
#     Node 38, Type 1, BuildingBlock: BETGAK_clean_sbu_0, # of connection points: 6
#     Node 39, Type 1, BuildingBlock: BETGAK_clean_sbu_0, # of connection points: 6
#     Edge 40, Type (0, 1), BuildingBlock: UVAHIK_clean_linker_0, # of connection points: 2
#     Edge 41, Type (0, 1), BuildingBlock: UVAHIK_clean_linker_0, # of connection points: 2
#     Edge 42, Type (0, 1), BuildingBlock: UVAHIK_clean_linker_0, # of connection points: 2
#     Edge 43, Type (0, 1), BuildingBlock: UVAHIK_clean_linker_0, # of connection points: 2
#     Edge 44, Type (0, 1), BuildingBlock: UVAHIK_clean_linker_0, # of connection points: 2
#     Edge 45, Type (0, 1), BuildingBlock: UVAHIK_clean_linker_0, # of connection points: 2
#     Edge 46, Type (0, 1), BuildingBlock: UVAHIK_clean_linker_0, # of connection points: 2
#     Edge 47, Type (0, 1), BuildingBlock: UVAHIK_clean_linker_0, # of connection points: 2
#     Edge 48, Type (0, 1), BuildingBlock: UVAHIK_clean_linker_0, # of connection points: 2
#     Edge 49, Type (0, 1), BuildingBlock: UVAHIK_clean_linker_0, # of connection points: 2
#     Edge 50, Type (0, 1), BuildingBlock: UVAHIK_clean_linker_0, # of connection points: 2
#     Edge 51, Type (0, 1), BuildingBlock: UVAHIK_clean_linker_0, # of connection points: 2
#     Edge 52, Type (0, 1), BuildingBlock: UVAHIK_clean_linker_0, # of connection points: 2
#     Edge 53, Type (0, 1), BuildingBlock: UVAHIK_clean_linker_0, # of connection points: 2
#     Edge 54, Type (0, 1), BuildingBlock: UVAHIK_clean_linker_0, # of connection points: 2
#     Edge 55, Type (0, 1), BuildingBlock: UVAHIK_clean_linker_0, # of connection points: 2
#     Edge 56, Type (0, 1), BuildingBlock: UVAHIK_clean_linker_0, # of connection points: 2
#     Edge 57, Type (0, 1), BuildingBlock: UVAHIK_clean_linker_0, # of connection points: 2
#     Edge 58, Type (0, 1), BuildingBlock: UVAHIK_clean_linker_0, # of connection points: 2
#     Edge 59, Type (0, 1), BuildingBlock: UVAHIK_clean_linker_0, # of connection points: 2
#     Edge 60, Type (0, 1), BuildingBlock: UVAHIK_clean_linker_0, # of connection points: 2
#     Edge 61, Type (0, 1), BuildingBlock: UVAHIK_clean_linker_0, # of connection points: 2
#     Edge 62, Type (0, 1), BuildingBlock: UVAHIK_clean_linker_0, # of connection points: 2
#     Edge 63, Type (0, 1), BuildingBlock: UVAHIK_clean_linker_0, # of connection points: 2
#     Edge 64, Type (0, 1), BuildingBlock: UVAHIK_clean_linker_0, # of connection points: 2
#     Edge 65, Type (0, 1), BuildingBlock: UVAHIK_clean_linker_0, # of connection points: 2
#     Edge 66, Type (0, 1), BuildingBlock: UVAHIK_clean_linker_0, # of connection points: 2
#     Edge 67, Type (0, 1), BuildingBlock: UVAHIK_clean_linker_0, # of connection points: 2
#     Edge 68, Type (0, 1), BuildingBlock: UVAHIK_clean_linker_0, # of connection points: 2
#     Edge 69, Type (0, 1), BuildingBlock: UVAHIK_clean_linker_0, # of connection points: 2
#     Edge 70, Type (0, 1), BuildingBlock: UVAHIK_clean_linker_0, # of connection points: 2
#     Edge 71, Type (0, 1), BuildingBlock: UVAHIK_clean_linker_0, # of connection points: 2
#     Edge 72, Type (0, 1), BuildingBlock: UVAHIK_clean_linker_0, # of connection points: 2
#     Edge 73, Type (0, 1), BuildingBlock: UVAHIK_clean_linker_0, # of connection points: 2
#     Edge 74, Type (0, 1), BuildingBlock: UVAHIK_clean_linker_0, # of connection points: 2
#     Edge 75, Type (0, 1), BuildingBlock: UVAHIK_clean_linker_0, # of connection points: 2
#     Edge 76, Type (0, 1), BuildingBlock: UVAHIK_clean_linker_0, # of connection points: 2
#     Edge 77, Type (0, 1), BuildingBlock: UVAHIK_clean_linker_0, # of connection points: 2
#     Edge 78, Type (0, 1), BuildingBlock: UVAHIK_clean_linker_0, # of connection points: 2
#     Edge 79, Type (0, 1), BuildingBlock: UVAHIK_clean_linker_0, # of connection points: 2
#     Edge 80, Type (0, 1), BuildingBlock: UVAHIK_clean_linker_0, # of connection points: 2
#     Edge 81, Type (0, 1), BuildingBlock: UVAHIK_clean_linker_0, # of connection points: 2
#     Edge 82, Type (0, 1), BuildingBlock: UVAHIK_clean_linker_0, # of connection points: 2
#     Edge 83, Type (0, 1), BuildingBlock: UVAHIK_clean_linker_0, # of connection points: 2
#     Edge 84, Type (0, 1), BuildingBlock: UVAHIK_clean_linker_0, # of connection points: 2
#     Edge 85, Type (0, 1), BuildingBlock: UVAHIK_clean_linker_0, # of connection points: 2
#     Edge 86, Type (0, 1), BuildingBlock: UVAHIK_clean_linker_0, # of connection points: 2
#     Edge 87, Type (0, 1), BuildingBlock: UVAHIK_clean_linker_0, # of connection points: 2
#     Edge 88, Type (0, 1), BuildingBlock: UVAHIK_clean_linker_0, # of connection points: 2
#     Edge 89, Type (0, 1), BuildingBlock: UVAHIK_clean_linker_0, # of connection points: 2
#     Edge 90, Type (0, 1), BuildingBlock: UVAHIK_clean_linker_0, # of connection points: 2
#     Edge 91, Type (0, 1), BuildingBlock: UVAHIK_clean_linker_0, # of connection points: 2
#     Edge 92, Type (0, 1), BuildingBlock: UVAHIK_clean_linker_0, # of connection points: 2
#     Edge 93, Type (0, 1), BuildingBlock: UVAHIK_clean_linker_0, # of connection points: 2
#     Edge 94, Type (0, 1), BuildingBlock: UVAHIK_clean_linker_0, # of connection points: 2
#     Edge 95, Type (0, 1), BuildingBlock: UVAHIK_clean_linker_0, # of connection points: 2
#     Edge 96, Type (0, 1), BuildingBlock: UVAHIK_clean_linker_0, # of connection points: 2
#     Edge 97, Type (0, 1), BuildingBlock: UVAHIK_clean_linker_0, # of connection points: 2
#     Edge 98, Type (0, 1), BuildingBlock: UVAHIK_clean_linker_0, # of connection points: 2
#     Edge 99, Type (0, 1), BuildingBlock: UVAHIK_clean_linker_0, # of connection points: 2
#     Edge 100, Type (0, 1), BuildingBlock: UVAHIK_clean_linker_0, # of connection points: 2
#     Edge 101, Type (0, 1), BuildingBlock: UVAHIK_clean_linker_0, # of connection points: 2
#     Edge 102, Type (0, 1), BuildingBlock: UVAHIK_clean_linker_0, # of connection points: 2
#     Edge 103, Type (0, 1), BuildingBlock: UVAHIK_clean_linker_0, # of connection points: 2
#     Edge 104, Type (0, 1), BuildingBlock: UVAHIK_clean_linker_0, # of connection points: 2
#     Edge 105, Type (0, 1), BuildingBlock: UVAHIK_clean_linker_0, # of connection points: 2
#     Edge 106, Type (0, 1), BuildingBlock: UVAHIK_clean_linker_0, # of connection points: 2
#     Edge 107, Type (0, 1), BuildingBlock: UVAHIK_clean_linker_0, # of connection points: 2
#     Edge 108, Type (0, 1), BuildingBlock: UVAHIK_clean_linker_0, # of connection points: 2
#     Edge 109, Type (0, 1), BuildingBlock: UVAHIK_clean_linker_0, # of connection points: 2
#     Edge 110, Type (0, 1), BuildingBlock: UVAHIK_clean_linker_0, # of connection points: 2
#     Edge 111, Type (0, 1), BuildingBlock: UVAHIK_clean_linker_0, # of connection points: 2
#     Edge 112, Type (0, 1), BuildingBlock: UVAHIK_clean_linker_0, # of connection points: 2
#     Edge 113, Type (0, 1), BuildingBlock: UVAHIK_clean_linker_0, # of connection points: 2
#     Edge 114, Type (0, 1), BuildingBlock: UVAHIK_clean_linker_0, # of connection points: 2
#     Edge 115, Type (0, 1), BuildingBlock: UVAHIK_clean_linker_0, # of connection points: 2
#     Edge 116, Type (0, 1), BuildingBlock: UVAHIK_clean_linker_0, # of connection points: 2
#     Edge 117, Type (0, 1), BuildingBlock: UVAHIK_clean_linker_0, # of connection points: 2
#     Edge 118, Type (0, 1), BuildingBlock: UVAHIK_clean_linker_0, # of connection points: 2
#     Edge 119, Type (0, 1), BuildingBlock: UVAHIK_clean_linker_0, # of connection points: 2
#     Edge 120, Type (0, 1), BuildingBlock: UVAHIK_clean_linker_0, # of connection points: 2
#     Edge 121, Type (0, 1), BuildingBlock: UVAHIK_clean_linker_0, # of connection points: 2
#     Edge 122, Type (0, 1), BuildingBlock: UVAHIK_clean_linker_0, # of connection points: 2
#     Edge 123, Type (0, 1), BuildingBlock: UVAHIK_clean_linker_0, # of connection points: 2
#     Edge 124, Type (0, 1), BuildingBlock: UVAHIK_clean_linker_0, # of connection points: 2
#     Edge 125, Type (0, 1), BuildingBlock: UVAHIK_clean_linker_0, # of connection points: 2
#     Edge 126, Type (0, 1), BuildingBlock: UVAHIK_clean_linker_0, # of connection points: 2
#     Edge 127, Type (0, 1), BuildingBlock: UVAHIK_clean_linker_0, # of connection points: 2
#     Edge 128, Type (0, 1), BuildingBlock: UVAHIK_clean_linker_0, # of connection points: 2
#     Edge 129, Type (0, 1), BuildingBlock: UVAHIK_clean_linker_0, # of connection points: 2
#     Edge 130, Type (0, 1), BuildingBlock: UVAHIK_clean_linker_0, # of connection points: 2
#     Edge 131, Type (0, 1), BuildingBlock: UVAHIK_clean_linker_0, # of connection points: 2
#     Edge 132, Type (0, 1), BuildingBlock: UVAHIK_clean_linker_0, # of connection points: 2
#     Edge 133, Type (0, 1), BuildingBlock: UVAHIK_clean_linker_0, # of connection points: 2
#     Edge 134, Type (0, 1), BuildingBlock: UVAHIK_clean_linker_0, # of connection points: 2
#     Edge 135, Type (0, 1), BuildingBlock: UVAHIK_clean_linker_0, # of connection points: 2
# Relax obj value: 0.182
# Max RMSD: 0.298
# Mean RMSD: 0.180
data_MOF--net-gar--node1-QUQFOY_clean_sbu_1--node2-BETGAK_clean_sbu_0--edge1-UVAHIK_clean_linker_0
_symmetry_space_group_name_H-M    P1
_symmetry_Int_Tables_number       1
_symmetry_cell_setting            triclinic
loop_
_symmetry_equiv_pos_as_xyz
'x, y, z'
_cell_length_a     79.772388
_cell_length_b     74.098254
_cell_length_c     74.399146
_cell_angle_alpha  98.705434
_cell_angle_beta   95.353608
_cell_angle_gamma 104.96032
loop_
_atom_site_label
_atom_site_type_symbol
_atom_site_fract_x
_atom_site_fract_y
_atom_site_fract_z
_atom_type_partial_charge
O0 O 0.09577 0.28062 0.38837 0.0
Cd1 Cd 0.09311 0.29623 0.36803 0.0
Cd2 Cd 0.07742 0.31349 0.3925 0.0
O3 O 0.08557 0.29724 0.40969 0.0
O4 O 0.10934 0.29117 0.35066 0.0
O5 O 0.11194 0.31979 0.36656 0.0
C6 C 0.11744 0.30904 0.3545 0.0
C7 C 0.08103 0.34565 0.40266 0.0
C8 C 0.09225 0.28379 0.40468 0.0
C9 C 0.05549 0.29214 0.35696 0.0
O10 O 0.05579 0.30061 0.37318 0.0
O11 O 0.06943 0.28955 0.35154 0.0
O12 O 0.06924 0.33283 0.40792 0.0
O13 O 0.09147 0.34023 0.39213 0.0
O14 O 0.99389 0.70781 0.65877 0.0
Cd15 Cd 0.99602 0.73154 0.67811 0.0
Cd16 Cd 0.01074 0.75111 0.65277 0.0
O17 O 1.00608 0.72373 0.63839 0.0
O18 O 0.97765 0.72535 0.69411 0.0
O19 O 0.97926 0.74728 0.67652 0.0
C20 C 0.97157 0.73838 0.68848 0.0
C21 C 0.00845 0.77467 0.63565 0.0
C22 C 0.99927 0.70803 0.64325 0.0
C23 C 0.0322 0.7557 0.69003 0.0
O24 O 0.03084 0.7605 0.67439 0.0
O25 O 0.01963 0.74359 0.69452 0.0
O26 O 0.02086 0.76657 0.63474 0.0
O27 O 0.99679 0.76903 0.64603 0.0
O28 O 0.62391 0.81476 0.87969 0.0
Cd29 Cd 0.60575 0.81428 0.89761 0.0
Cd30 Cd 0.58538 0.81954 0.86948 0.0
O31 O 0.60707 0.81957 0.8567 0.0
O32 O 0.61092 0.80034 0.91732 0.0
O33 O 0.58675 0.79048 0.89708 0.0
C34 C 0.59603 0.78799 0.9112 0.0
C35 C 0.55841 0.80124 0.85355 0.0
C36 C 0.62156 0.81746 0.86329 0.0
C37 C 0.59407 0.8496 0.90332 0.0
O38 O 0.58558 0.84376 0.88727 0.0
O39 O 0.60321 0.83994 0.91013 0.0
O40 O 0.56665 0.81687 0.84895 0.0
O41 O 0.56557 0.79585 0.8673 0.0
O42 O 0.48893 0.20592 0.15677 0.0
Cd43 Cd 0.49142 0.22907 0.17684 0.0
Cd44 Cd 0.50566 0.24993 0.15171 0.0
O45 O 0.49931 0.22286 0.13631 0.0
O46 O 0.47331 0.22202 0.19295 0.0
O47 O 0.47432 0.24443 0.17599 0.0
C48 C 0.46677 0.23486 0.18761 0.0
C49 C 0.50436 0.27403 0.13497 0.0
C50 C 0.49307 0.20684 0.14081 0.0
C51 C 0.5281 0.25246 0.18795 0.0
O52 O 0.52656 0.25761 0.17248 0.0
O53 O 0.51536 0.24081 0.19274 0.0
O54 O 0.51578 0.26466 0.13318 0.0
O55 O 0.49332 0.2697 0.1463 0.0
O56 O 0.07175 0.78234 0.12255 0.0
Cd57 Cd 0.07731 0.80683 0.14226 0.0
Cd58 Cd 0.09455 0.82224 0.11427 0.0
O59 O 0.08508 0.79393 0.10031 0.0
O60 O 0.06216 0.79845 0.16134 0.0
O61 O 0.05866 0.82086 0.14625 0.0
C62 C 0.05347 0.81031 0.1581 0.0
C63 C 0.08807 0.84818 0.10199 0.0
C64 C 0.07634 0.77985 0.10664 0.0
C65 C 0.11729 0.82244 0.14959 0.0
O66 O 0.11683 0.82651 0.1335 0.0
O67 O 0.10306 0.81562 0.15582 0.0
O68 O 0.09942 0.84003 0.09584 0.0
O69 O 0.08027 0.84161 0.11509 0.0
O70 O 0.55072 0.76878 0.4047 0.0
Cd71 Cd 0.53441 0.76685 0.4251 0.0
Cd72 Cd 0.51297 0.77877 0.39216 0.0
O73 O 0.53527 0.77491 0.381 0.0
O74 O 0.54535 0.75508 0.44456 0.0
O75 O 0.52014 0.7402 0.42744 0.0
C76 C 0.53237 0.73996 0.44001 0.0
C77 C 0.48672 0.77641 0.37253 0.0
C78 C 0.54917 0.77174 0.38822 0.0
C79 C 0.5241 0.80425 0.43137 0.0
O80 O 0.51704 0.80026 0.41468 0.0
O81 O 0.53125 0.79284 0.43835 0.0
O82 O 0.50069 0.79013 0.37365 0.0
O83 O 0.48775 0.76323 0.38176 0.0
O84 O 0.57541 0.27974 0.62683 0.0
Cd85 Cd 0.58044 0.30298 0.64802 0.0
Cd86 Cd 0.59915 0.32056 0.62144 0.0
O87 O 0.59038 0.29273 0.6062 0.0
O88 O 0.56415 0.29345 0.66585 0.0
O89 O 0.56181 0.31707 0.652 0.0
C90 C 0.55584 0.30574 0.66295 0.0
C91 C 0.59323 0.34685 0.60917 0.0
C92 C 0.5809 0.27819 0.61129 0.0
C93 C 0.62038 0.31875 0.65737 0.0
O94 O 0.6205 0.32416 0.64185 0.0
O95 O 0.60584 0.311 0.66259 0.0
O96 O 0.60578 0.33983 0.60459 0.0
O97 O 0.58399 0.33906 0.62079 0.0
O98 O 0.0177 0.23286 0.90884 0.0
Cd99 Cd 0.0186 0.25319 0.89181 0.0
Cd100 Cd 0.00671 0.27091 0.92338 0.0
O101 O 0.01169 0.24791 0.93437 0.0
O102 O 0.03177 0.24528 0.87152 0.0
O103 O 0.04232 0.27186 0.89167 0.0
C104 C 0.04445 0.2604 0.8777 0.0
C105 C 0.01719 0.30286 0.93894 0.0
C106 C 0.01539 0.23353 0.92565 0.0
C107 C 0.98295 0.26176 0.88683 0.0
O108 O 0.98454 0.26618 0.90425 0.0
O109 O 0.99531 0.25717 0.87917 0.0
O110 O 1.0044 0.29088 0.94389 0.0
O111 O 0.02476 0.29645 0.92574 0.0
O112 O 0.4288 0.05516 0.27145 0.0
Cd113 Cd 0.42197 0.06054 0.29736 0.0
Cd114 Cd 0.454 0.05778 0.30596 0.0
O115 O 0.45716 0.06077 0.27953 0.0
O116 O 0.39876 0.06472 0.29124 0.0
O117 O 0.42113 0.08705 0.3077 0.0
C118 C 0.40508 0.08193 0.29983 0.0
C119 C 0.47499 0.07476 0.33054 0.0
C120 C 0.44409 0.05701 0.26712 0.0
C121 C 0.42452 0.02628 0.31162 0.0
O122 O 0.4404 0.03099 0.30887 0.0
O123 O 0.41522 0.03769 0.31034 0.0
O124 O 0.47786 0.06162 0.31878 0.0
O125 O 0.46027 0.0789 0.32789 0.0
O126 O 0.29775 0.19227 0.53542 0.0
Cd127 Cd 0.29404 0.17046 0.513 0.0
Cd128 Cd 0.27777 0.19676 0.49659 0.0
O129 O 0.28517 0.21215 0.52372 0.0
O130 O 0.30774 0.15333 0.52198 0.0
O131 O 0.31418 0.16764 0.49869 0.0
C132 C 0.31772 0.15665 0.50953 0.0
C133 C 0.28311 0.21109 0.4701 0.0
C134 C 0.29294 0.2075 0.5374 0.0
C135 C 0.25478 0.15707 0.49844 0.0
O136 O 0.2561 0.17312 0.4936 0.0
O137 O 0.26827 0.15322 0.50571 0.0
O138 O 0.27086 0.21349 0.47958 0.0
O139 O 0.29277 0.201 0.47589 0.0
O140 O 0.16659 0.0101 0.74468 0.0
Cd141 Cd 0.18898 0.01146 0.76446 0.0
Cd142 Cd 0.15889 0.03188 0.78838 0.0
O143 O 0.14699 0.02187 0.75921 0.0
O144 O 0.20616 0.99622 0.75273 0.0
O145 O 0.19311 0.9874 0.77539 0.0
C146 C 0.2036 0.98419 0.76381 0.0
C147 C 0.14342 0.03133 0.81713 0.0
C148 C 0.15211 0.01502 0.74418 0.0
C149 C 0.19742 0.05638 0.7824 0.0
O150 O 0.18263 0.05409 0.78876 0.0
O151 O 0.20194 0.04195 0.77418 0.0
O152 O 0.14243 0.0428 0.80582 0.0
O153 O 0.15256 0.01979 0.8122 0.0
O154 O 0.29006 0.93959 0.02175 0.0
Cd155 Cd 0.29354 0.95406 1.00033 0.0
Cd156 Cd 0.29197 0.9171 0.98119 0.0
O157 O 0.28363 0.91073 0.00531 0.0
O158 O 0.2889 0.97844 0.00997 0.0
O159 O 0.27288 0.95825 0.98566 0.0
C160 C 0.2757 0.97397 0.99719 0.0
C161 C 0.28336 0.89123 0.95668 0.0
C162 C 0.28519 0.9217 0.02058 0.0
C163 C 0.32601 0.94939 0.98668 0.0
O164 O 0.31781 0.93191 0.98192 0.0
O165 O 0.31831 0.96131 0.9934 0.0
O166 O 0.29402 0.89158 0.97082 0.0
O167 O 0.27704 0.90557 0.95645 0.0
O168 O 0.30794 0.39637 0.07224 0.0
Cd169 Cd 0.31102 0.41371 0.05228 0.0
Cd170 Cd 0.3206 0.38114 0.03436 0.0
O171 O 0.31272 0.37018 0.0577 0.0
O172 O 0.30021 0.43465 0.06134 0.0
O173 O 0.28914 0.41396 0.03582 0.0
C174 C 0.28805 0.42832 0.04744 0.0
C175 C 0.31174 0.36553 1.00326 0.0
C176 C 0.30883 0.37938 0.07193 0.0
C177 C 0.3485 0.41906 0.04317 0.0
O178 O 0.34477 0.40107 0.03856 0.0
O179 O 0.33672 0.42701 0.0478 0.0
O180 O 0.32208 0.36007 0.01429 0.0
O181 O 0.30545 0.37908 0.01014 0.0
O182 O 0.81715 0.1558 0.06943 0.0
Cd183 Cd 0.80426 0.13251 0.04951 0.0
Cd184 Cd 0.79589 0.15809 0.0328 0.0
O185 O 0.81501 0.17684 0.05203 0.0
O186 O 0.81665 0.11247 0.04891 0.0
O187 O 0.81425 0.12833 0.02619 0.0
C188 C 0.82002 0.11558 0.03281 0.0
C189 C 0.79223 0.16406 1.00306 0.0
C190 C 0.82073 0.17295 0.06706 0.0
C191 C 0.76726 0.13111 0.047 0.0
O192 O 0.7724 0.14672 0.04143 0.0
O193 O 0.77788 0.12139 0.04988 0.0
O194 O 0.78894 0.17475 0.0168 0.0
O195 O 0.79843 0.15024 0.00625 0.0
O196 O 0.1555 0.51041 0.20626 0.0
Cd197 Cd 0.17806 0.52338 0.2245 0.0
Cd198 Cd 0.15691 0.53815 0.24359 0.0
O199 O 0.13767 0.52023 0.22386 0.0
O200 O 0.19451 0.50742 0.22406 0.0
O201 O 0.18148 0.51455 0.2482 0.0
C202 C 0.19229 0.50633 0.24089 0.0
C203 C 0.15182 0.54408 0.2738 0.0
C204 C 0.14009 0.51072 0.2091 0.0
C205 C 0.18603 0.56478 0.22926 0.0
O206 O 0.17219 0.5622 0.23676 0.0
O207 O 0.19167 0.55078 0.22341 0.0
O208 O 0.14433 0.55054 0.26113 0.0
O209 O 0.16144 0.53304 0.2692 0.0
O210 O 0.8105 0.90006 0.5748 0.0
Cd211 Cd 0.81182 0.91616 0.55387 0.0
Cd212 Cd 0.81978 0.88356 0.53592 0.0
O213 O 0.81089 0.87243 0.55893 0.0
O214 O 0.80055 0.93696 0.562 0.0
O215 O 0.78934 0.91478 0.53753 0.0
C216 C 0.78817 0.92963 0.54841 0.0
C217 C 0.81141 0.86817 0.50469 0.0
C218 C 0.80946 0.88247 0.57398 0.0
C219 C 0.84853 0.92092 0.54417 0.0
O220 O 0.8445 0.90285 0.54043 0.0
O221 O 0.83692 0.92932 0.54822 0.0
O222 O 0.82136 0.86248 0.51595 0.0
O223 O 0.80516 0.8818 0.51142 0.0
O224 O 0.93331 0.06277 0.2267 0.0
Cd225 Cd 0.91248 0.06433 0.24426 0.0
Cd226 Cd 0.94643 0.04768 0.26803 0.0
O227 O 0.95511 0.05402 0.2415 0.0
O228 O 0.89427 0.07806 0.23303 0.0
O229 O 0.91057 0.09097 0.25897 0.0
C230 C 0.89864 0.09229 0.2466 0.0
C231 C 0.96402 0.04912 0.2985 0.0
C232 C 0.94824 0.0587 0.22691 0.0
C233 C 0.90549 0.02351 0.25802 0.0
O234 O 0.92181 0.0271 0.2641 0.0
O235 O 0.89956 0.03606 0.25097 0.0
O236 O 0.96296 0.0363 0.28424 0.0
O237 O 0.95633 0.06195 0.29545 0.0
O238 O 0.30607 0.65618 0.56924 0.0
Cd239 Cd 0.29684 0.63298 0.54842 0.0
Cd240 Cd 0.29109 0.65922 0.5284 0.0
O241 O 0.30681 0.677 0.55093 0.0
O242 O 0.30968 0.61436 0.55309 0.0
O243 O 0.31207 0.62917 0.52921 0.0
C244 C 0.31679 0.61751 0.53856 0.0
C245 C 0.29013 0.67308 0.50237 0.0
C246 C 0.31033 0.67324 0.56668 0.0
C247 C 0.26016 0.62821 0.53591 0.0
O248 O 0.26621 0.64373 0.53049 0.0
O249 O 0.27046 0.62001 0.54314 0.0
O250 O 0.28387 0.67874 0.51677 0.0
O251 O 0.29771 0.65971 0.50281 0.0
O252 O 0.43574 0.56339 0.72594 0.0
Cd253 Cd 0.41435 0.56466 0.74287 0.0
Cd254 Cd 0.4477 0.54787 0.76765 0.0
O255 O 0.45681 0.55396 0.74126 0.0
O256 O 0.39629 0.57846 0.73138 0.0
O257 O 0.41196 0.59105 0.75771 0.0
C258 C 0.40025 0.59248 0.74514 0.0
C259 C 0.46498 0.54934 0.79825 0.0
C260 C 0.45053 0.55897 0.72658 0.0
C261 C 0.40685 0.52385 0.75689 0.0
O262 O 0.42301 0.52747 0.76364 0.0
O263 O 0.40127 0.53624 0.74918 0.0
O264 O 0.46398 0.53646 0.78407 0.0
O265 O 0.4574 0.56222 0.79504 0.0
O266 O 0.63957 0.01444 0.70796 0.0
Cd267 Cd 0.66231 0.02494 0.7264 0.0
Cd268 Cd 0.64279 0.04329 0.74358 0.0
O269 O 0.62229 0.02612 0.72492 0.0
O270 O 0.67655 1.00696 0.72136 0.0
O271 O 0.66611 0.01213 0.74766 0.0
C272 C 0.67504 1.00341 0.73767 0.0
C273 C 0.64182 0.04806 0.77481 0.0
C274 C 0.62439 0.01598 0.7104 0.0
C275 C 0.67354 0.06674 0.72995 0.0
O276 O 0.65889 0.06605 0.73554 0.0
O277 O 0.67833 0.05169 0.72636 0.0
O278 O 0.63321 0.05569 0.76408 0.0
O279 O 0.65016 0.03663 0.76759 0.0
O280 O 0.79782 0.69252 0.03618 0.0
Cd281 Cd 0.79411 0.67156 0.01316 0.0
Cd282 Cd 0.77923 0.69953 0.99801 0.0
O283 O 0.78793 0.71457 0.02522 0.0
O284 O 0.80658 0.65347 0.02227 0.0
O285 O 0.81464 0.66821 0.99968 0.0
C286 C 0.81726 0.65679 0.01045 0.0
C287 C 0.78507 0.71359 0.97141 0.0
C288 C 0.7945 0.70857 0.03872 0.0
C289 C 0.75482 0.66027 0.99912 0.0
O290 O 0.7566 0.67688 0.99541 0.0
O291 O 0.76814 0.65533 0.00523 0.0
O292 O 0.77396 0.71773 0.98174 0.0
O293 O 0.7933 0.70184 0.97636 0.0
O294 O 0.93956 0.55862 0.7769 0.0
Cd295 Cd 0.92812 0.55828 0.80065 0.0
Cd296 Cd 0.95946 0.5557 0.81339 0.0
O297 O 0.96667 0.56226 0.78906 0.0
O298 O 0.9053 0.56162 0.79144 0.0
O299 O 0.92387 0.58226 0.8137 0.0
C300 C 0.90917 0.57739 0.80292 0.0
C301 C 0.9758 0.57349 0.84056 0.0
C302 C 0.95568 0.56134 0.77529 0.0
C303 C 0.92972 0.52225 0.81298 0.0
O304 O 0.94621 0.52787 0.81345 0.0
O305 O 0.92027 0.53312 0.80983 0.0
O306 O 0.98153 0.56148 0.83019 0.0
O307 O 0.96064 0.57564 0.8353 0.0
O308 O 0.78946 0.42996 0.52646 0.0
Cd309 Cd 0.79319 0.43733 0.50113 0.0
Cd310 Cd 0.7886 0.40134 0.49228 0.0
O311 O 0.77585 0.40011 0.51487 0.0
O312 O 0.78951 0.4629 0.50227 0.0
O313 O 0.7719 0.43694 0.4844 0.0
C314 C 0.7755 0.45497 0.49069 0.0
C315 C 0.77737 0.38184 0.46405 0.0
C316 C 0.78048 0.41373 0.52851 0.0
C317 C 0.82458 0.42561 0.49462 0.0
O318 O 0.81554 0.40961 0.4971 0.0
O319 O 0.81733 0.43874 0.49289 0.0
O320 O 0.78256 0.37514 0.47792 0.0
O321 O 0.77753 0.39953 0.46657 0.0
O322 O 0.66709 0.51045 0.24484 0.0
Cd323 Cd 0.68963 0.5122 0.26452 0.0
Cd324 Cd 0.6605 0.5326 0.28894 0.0
O325 O 0.64827 0.523 0.25989 0.0
O326 O 0.70654 0.49676 0.25269 0.0
O327 O 0.69381 0.48835 0.27569 0.0
C328 C 0.70409 0.48491 0.26394 0.0
C329 C 0.64567 0.5317 0.31802 0.0
C330 C 0.65286 0.51581 0.24468 0.0
C331 C 0.69852 0.55718 0.2825 0.0
O332 O 0.68393 0.55497 0.28923 0.0
O333 O 0.70278 0.5427 0.27401 0.0
O334 O 0.64379 0.54273 0.30652 0.0
O335 O 0.65534 0.52074 0.31311 0.0
La336 La 0.03139 0.03217 0.01177 0.0
La337 La 0.0607 0.05392 0.03234 0.0
C338 C 1.00044 0.01736 0.99542 0.0
C339 C 0.98509 0.0245 0.99233 0.0
C340 C 0.97301 0.01679 0.97636 0.0
C341 C 0.95854 0.02378 0.97308 0.0
C342 C 0.95595 0.03861 0.98577 0.0
C343 C 0.96822 0.04635 1.00171 0.0
C344 C 0.98268 0.03942 0.00491 0.0
C345 C 0.0584 0.03291 0.99148 0.0
C346 C 0.03994 0.07594 0.01209 0.0
C347 C 0.09221 0.06872 0.04699 0.0
C348 C 0.10832 0.06568 0.04077 0.0
C349 C 0.12477 0.07693 0.04962 0.0
C350 C 0.14001 0.07372 0.04355 0.0
C351 C 0.13897 0.05912 0.0286 0.0
C352 C 0.12235 0.04803 0.01973 0.0
C353 C 0.1072 0.05139 0.02567 0.0
C354 C 0.03409 0.05332 0.05321 0.0
C355 C 0.053 0.00956 0.02986 0.0
O356 O 0.01365 0.02469 0.98733 0.0
O357 O 1.0055 0.01642 0.01234 0.0
O358 O 0.04605 0.01814 0.99288 0.0
O359 O 0.05586 0.04681 1.00233 0.0
O360 O 0.02719 0.06053 0.01191 0.0
O361 O 0.05596 0.0759 0.01784 0.0
O362 O 0.08179 0.05403 0.0516 0.0
O363 O 0.08361 0.07668 0.03639 0.0
O364 O 0.04693 0.06774 0.05225 0.0
O365 O 0.03626 0.03942 0.04199 0.0
O366 O 0.06533 0.02562 0.03106 0.0
O367 O 0.03686 0.00887 0.02367 0.0
H368 H 0.9748 1.0054 0.9664 0.0
H369 H 0.94946 0.01766 0.96058 0.0
H370 H 0.96649 0.05754 0.01193 0.0
H371 H 0.99194 0.04566 0.01729 0.0
H372 H 0.12582 0.08815 0.0612 0.0
H373 H 0.15259 0.0827 0.05053 0.0
H374 H 0.12096 0.03645 0.00842 0.0
H375 H 0.09458 0.04269 0.01854 0.0
La376 La 0.30633 0.79465 0.24331 0.0
La377 La 0.29717 0.80221 0.28252 0.0
C378 C 0.31138 0.79332 0.2104 0.0
C379 C 0.31238 0.80615 0.19725 0.0
C380 C 0.31948 0.80219 0.18112 0.0
C381 C 0.31968 0.81375 0.16796 0.0
C382 C 0.31271 0.82939 0.17079 0.0
C383 C 0.30612 0.83366 0.18731 0.0
C384 C 0.30598 0.8221 0.20048 0.0
C385 C 0.32676 0.787 0.26961 0.0
C386 C 0.31627 0.83678 0.26562 0.0
C387 C 0.29957 0.80555 0.31676 0.0
C388 C 0.28991 0.7963 0.33016 0.0
C389 C 0.29164 0.80633 0.34805 0.0
C390 C 0.28552 0.79677 0.36194 0.0
C391 C 0.27781 0.77701 0.3581 0.0
C392 C 0.27468 0.76738 0.33979 0.0
C393 C 0.28065 0.77699 0.32589 0.0
C394 C 0.27092 0.8042 0.25846 0.0
C395 C 0.2826 0.76118 0.25812 0.0
O396 O 0.32407 0.79851 0.22422 0.0
O397 O 0.29593 0.78721 0.2155 0.0
O398 O 0.32207 0.77698 0.25323 0.0
O399 O 0.32036 0.80096 0.27056 0.0
O400 O 0.31366 0.82569 0.24932 0.0
O401 O 0.31235 0.83031 0.28069 0.0
O402 O 0.29188 0.81558 0.30749 0.0
O403 O 0.30723 0.79502 0.30646 0.0
O404 O 0.27082 0.80587 0.27605 0.0
O405 O 0.28525 0.80096 0.25542 0.0
O406 O 0.287 0.77133 0.27497 0.0
O407 O 0.28691 0.76832 0.24341 0.0
H408 H 0.32461 0.78998 0.17857 0.0
H409 H 0.32505 0.8103 0.15545 0.0
H410 H 0.30051 0.84549 0.18977 0.0
H411 H 0.30051 0.82536 0.21296 0.0
H412 H 0.29859 0.8213 0.35149 0.0
H413 H 0.28776 0.80463 0.37587 0.0
H414 H 0.26887 0.75216 0.33637 0.0
H415 H 0.27904 0.76908 0.31205 0.0
La416 La 0.57175 0.04452 0.52378 0.0
La417 La 0.53244 0.03943 0.5123 0.0
C418 C 0.60116 0.04201 0.53768 0.0
C419 C 0.6145 0.03126 0.53578 0.0
C420 C 0.63215 0.04154 0.537 0.0
C421 C 0.64543 0.03233 0.53684 0.0
C422 C 0.6415 0.01248 0.53549 0.0
C423 C 0.62373 1.00207 0.53377 0.0
C424 C 0.61037 0.01136 0.534 0.0
C425 C 0.56317 0.05279 0.49164 0.0
C426 C 0.5465 1.00365 0.50319 0.0
C427 C 0.50327 0.04247 0.49832 0.0
C428 C 0.49099 0.05451 0.50006 0.0
C429 C 0.48628 0.06112 0.51707 0.0
C430 C 0.47325 0.07077 0.51793 0.0
C431 C 0.46456 0.07398 0.50181 0.0
C432 C 0.46976 0.06782 0.48489 0.0
C433 C 0.48277 0.05823 0.48405 0.0
C434 C 0.54086 0.03066 0.54408 0.0
C435 C 0.55761 0.08014 0.53355 0.0
O436 O 0.59924 0.05238 0.5253 0.0
O437 O 0.58617 0.03386 0.54278 0.0
O438 O 0.57792 0.06112 0.50204 0.0
O439 O 0.55465 0.03953 0.49864 0.0
O440 O 0.56148 0.01362 0.51357 0.0
O441 O 0.53403 0.01171 0.49856 0.0
O442 O 0.50507 0.03269 0.51129 0.0
O443 O 0.5182 0.04951 0.49259 0.0
O444 O 0.5261 0.02247 0.5336 0.0
O445 O 0.54947 0.04424 0.53747 0.0
O446 O 0.54253 0.07023 0.52331 0.0
O447 O 0.57024 0.07216 0.53769 0.0
H448 H 0.63573 0.05687 0.53841 0.0
H449 H 0.65885 0.04084 0.53784 0.0
H450 H 0.62016 0.98679 0.5328 0.0
H451 H 0.5969 1.00302 0.53311 0.0
H452 H 0.49237 0.05847 0.52966 0.0
H453 H 0.46958 0.07516 0.53121 0.0
H454 H 0.4637 0.07032 0.47221 0.0
H455 H 0.48616 0.05332 0.47076 0.0
La456 La 0.28288 0.29273 0.76629 0.0
La457 La 0.31729 0.2883 0.77193 0.0
C458 C 0.25087 0.29194 0.767 0.0
C459 C 0.23678 0.28972 0.77902 0.0
C460 C 0.2307 0.3054 0.7854 0.0
C461 C 0.21606 0.30326 0.7948 0.0
C462 C 0.20695 0.2853 0.798 0.0
C463 C 0.2133 0.26966 0.79198 0.0
C464 C 0.22799 0.27182 0.7826 0.0
C465 C 0.3074 0.32375 0.76116 0.0
C466 C 0.3024 0.30055 0.80718 0.0
C467 C 0.34939 0.28932 0.77145 0.0
C468 C 0.36342 0.2911 0.75933 0.0
C469 C 0.36895 0.27511 0.75263 0.0
C470 C 0.38359 0.27691 0.74323 0.0
C471 C 0.39326 0.2948 0.74037 0.0
C472 C 0.38746 0.31074 0.74671 0.0
C473 C 0.37279 0.30893 0.75608 0.0
C474 C 0.29261 0.25736 0.77702 0.0
C475 C 0.2978 0.28066 0.7309 0.0
O476 O 0.26386 0.30743 0.77105 0.0
O477 O 0.25626 0.27713 0.76124 0.0
O478 O 0.2921 0.31625 0.75154 0.0
O479 O 0.30854 0.31379 0.77358 0.0
O480 O 0.28722 0.29472 0.79634 0.0
O481 O 0.31709 0.30133 0.80017 0.0
O482 O 0.33656 0.27369 0.76815 0.0
O483 O 0.3438 0.30417 0.77639 0.0
O484 O 0.30778 0.26498 0.78693 0.0
O485 O 0.29167 0.26721 0.76449 0.0
O486 O 0.3129 0.28549 0.74185 0.0
O487 O 0.28315 0.2807 0.73775 0.0
H488 H 0.23696 0.31932 0.78262 0.0
H489 H 0.21151 0.31561 0.79896 0.0
H490 H 0.20682 0.25565 0.79438 0.0
H491 H 0.23217 0.25937 0.77781 0.0
H492 H 0.36227 0.26121 0.75515 0.0
H493 H 0.38771 0.26431 0.73881 0.0
H494 H 0.39437 0.32472 0.74458 0.0
H495 H 0.36907 0.32163 0.76116 0.0
La496 La 0.05559 0.05143 0.53054 0.0
La497 La 0.05384 0.01189 0.51541 0.0
C498 C 0.06195 0.08709 0.53722 0.0
C499 C 0.06498 0.10262 0.52667 0.0
C500 C 0.05692 0.1172 0.53058 0.0
C501 C 0.06018 0.13251 0.52129 0.0
C502 C 0.07169 0.13355 0.50805 0.0
C503 C 0.07961 0.11881 0.504 0.0
C504 C 0.07621 0.10341 0.51315 0.0
C505 C 0.02742 0.02606 0.53627 0.0
C506 C 0.04176 0.03511 0.48663 0.0
C507 C 0.04631 0.97611 0.5093 0.0
C508 C 0.04194 0.96132 0.52054 0.0
C509 C 0.04173 0.94266 0.51339 0.0
C510 C 0.03697 0.92832 0.52369 0.0
C511 C 0.03238 0.93245 0.54136 0.0
C512 C 0.03273 0.95125 0.54851 0.0
C513 C 0.03742 0.96556 0.53816 0.0
C514 C 0.08197 0.03712 0.50943 0.0
C515 C 0.06853 0.02851 0.55903 0.0
O516 O 0.04611 0.07555 0.53456 0.0
O517 O 0.07399 0.07804 0.53807 0.0
O518 O 0.03567 0.04134 0.54794 0.0
O519 O 0.03457 0.02601 0.52188 0.0
O520 O 0.04813 0.0502 0.50019 0.0
O521 O 0.04164 0.01793 0.48986 0.0
O522 O 0.06239 0.98713 0.51262 0.0
O523 O 0.03482 0.98572 0.50745 0.0
O524 O 0.07405 0.02143 0.49812 0.0
O525 O 0.07483 0.03735 0.52384 0.0
O526 O 0.06128 0.01333 0.5458 0.0
O527 O 0.06911 0.0457 0.55554 0.0
H528 H 0.04825 0.11684 0.54097 0.0
H529 H 0.054 0.14375 0.52476 0.0
H530 H 0.08836 0.11917 0.49369 0.0
H531 H 0.08249 0.09223 0.50977 0.0
H532 H 0.04516 0.93916 0.49979 0.0
H533 H 0.03707 0.91403 0.51791 0.0
H534 H 0.0291 0.95485 0.56199 0.0
H535 H 0.0373 0.97987 0.54383 0.0
La536 La 0.31899 0.80267 0.76441 0.0
La537 La 0.28476 0.77483 0.74974 0.0
C538 C 0.34745 0.81841 0.78481 0.0
C539 C 0.36339 0.81212 0.78723 0.0
C540 C 0.36894 0.80245 0.77218 0.0
C541 C 0.38286 0.79453 0.77487 0.0
C542 C 0.39124 0.79587 0.79266 0.0
C543 C 0.38575 0.80566 0.80767 0.0
C544 C 0.37195 0.81377 0.80496 0.0
C545 C 0.31283 0.79392 0.72847 0.0
C546 C 0.31691 0.75672 0.75616 0.0
C547 C 0.256 0.7577 0.73025 0.0
C548 C 0.23857 0.76105 0.72961 0.0
C549 C 0.22422 0.74651 0.73203 0.0
C550 C 0.20804 0.75005 0.73382 0.0
C551 C 0.20594 0.76823 0.73322 0.0
C552 C 0.22019 0.78262 0.73022 0.0
C553 C 0.23636 0.77906 0.72841 0.0
C554 C 0.29091 0.78369 0.78574 0.0
C555 C 0.28711 0.82093 0.75737 0.0
O556 O 0.34354 0.82286 0.76884 0.0
O557 O 0.33382 0.80774 0.79035 0.0
O558 O 0.32203 0.81049 0.73742 0.0
O559 O 0.30891 0.78297 0.73968 0.0
O560 O 0.32589 0.77458 0.76408 0.0
O561 O 0.30049 0.75368 0.74808 0.0
O562 O 0.26147 0.75277 0.74543 0.0
O563 O 0.26837 0.77028 0.72477 0.0
O564 O 0.28177 0.76714 0.7768 0.0
O565 O 0.29478 0.79459 0.7745 0.0
O566 O 0.27791 0.80294 0.75007 0.0
O567 O 0.30368 0.82417 0.7651 0.0
H568 H 0.36226 0.8006 0.75839 0.0
H569 H 0.38676 0.78692 0.7631 0.0
H570 H 0.39215 0.80706 0.82151 0.0
H571 H 0.36768 0.82092 0.81675 0.0
H572 H 0.22564 0.73252 0.73299 0.0
H573 H 0.1972 0.73857 0.73573 0.0
H574 H 0.219 0.79679 0.72977 0.0
H575 H 0.2472 0.79056 0.72652 0.0
La576 La 0.54924 0.02592 0.04154 0.0
La577 La 0.54626 0.03544 1.00389 0.0
C578 C 0.54424 0.01946 0.07301 0.0
C579 C 0.52879 0.01422 0.08239 0.0
C580 C 0.52663 0.99876 0.09153 0.0
C581 C 0.51259 0.99414 0.10142 0.0
C582 C 0.50061 1.00512 0.10254 0.0
C583 C 0.50233 0.02004 0.09258 0.0
C584 C 0.51625 0.02449 0.0825 0.0
C585 C 0.56286 1.00655 0.01736 0.0
C586 C 0.51341 0.00925 0.01395 0.0
C587 C 0.5514 0.04176 0.97238 0.0
C588 C 0.56717 0.04836 0.96389 0.0
C589 C 0.56694 0.06025 0.95102 0.0
C590 C 0.58178 0.06672 0.94276 0.0
C591 C 0.59712 0.06137 0.94726 0.0
C592 C 0.59744 0.04977 0.9605 0.0
C593 C 0.58258 0.04336 0.96883 0.0
C594 C 0.53257 0.05473 0.02813 0.0
C595 C 0.58207 0.0524 0.03151 0.0
O596 O 0.54554 1.0065 0.05958 0.0
O597 O 0.54827 0.03655 0.06901 0.0
O598 O 0.56917 0.01169 0.03459 0.0
O599 O 0.54887 0.01114 0.01449 0.0
O600 O 0.52112 0.0148 0.0312 0.0
O601 O 0.52186 0.01355 1.00009 0.0
O602 O 0.54861 0.05428 0.98529 0.0
O603 O 0.54871 0.02489 0.9768 0.0
O604 O 0.52622 0.04955 0.01089 0.0
O605 O 0.54661 0.05022 0.03092 0.0
O606 O 0.57423 0.04717 0.01432 0.0
O607 O 0.57385 0.04761 0.04539 0.0
H608 H 0.53602 0.99048 0.09133 0.0
H609 H 0.51144 0.98234 0.10865 0.0
H610 H 0.49345 0.02891 0.09328 0.0
H611 H 0.51746 0.03631 0.07527 0.0
H612 H 0.55519 0.06433 0.94718 0.0
H613 H 0.58102 0.07534 0.93235 0.0
H614 H 0.6091 0.04549 0.96423 0.0
H615 H 0.58308 0.03437 0.97896 0.0
La616 La 0.30889 0.31901 0.28261 0.0
La617 La 0.28528 0.28241 0.26546 0.0
C618 C 0.32299 0.35402 0.29311 0.0
C619 C 0.31476 0.36969 0.29501 0.0
C620 C 0.31945 0.38383 0.31085 0.0
C621 C 0.30998 0.39725 0.31379 0.0
C622 C 0.2956 0.39655 0.30099 0.0
C623 C 0.29128 0.38267 0.28492 0.0
C624 C 0.30073 0.36938 0.28197 0.0
C625 C 0.305 0.2934 0.30449 0.0
C626 C 0.26755 0.31266 0.2798 0.0
C627 C 0.2718 0.24718 0.25703 0.0
C628 C 0.27991 0.23226 0.26089 0.0
C629 C 0.27776 0.21594 0.24764 0.0
C630 C 0.28761 0.2032 0.25034 0.0
C631 C 0.29982 0.20677 0.26627 0.0
C632 C 0.30149 0.22282 0.27974 0.0
C633 C 0.29169 0.23546 0.27706 0.0
C634 C 0.28929 0.30757 0.2431 0.0
C635 C 0.32645 0.2894 0.26702 0.0
O636 O 0.3188 0.3422 0.30437 0.0
O637 O 0.32233 0.34512 0.27636 0.0
O638 O 0.31965 0.30567 0.30362 0.0
O639 O 0.29311 0.29604 0.29357 0.0
O640 O 0.28322 0.32475 0.28143 0.0
O641 O 0.26513 0.29423 0.27515 0.0
O642 O 0.2792 0.25744 0.24558 0.0
O643 O 0.26874 0.25771 0.27144 0.0
O644 O 0.27479 0.29487 0.24358 0.0
O645 O 0.30107 0.30522 0.25438 0.0
O646 O 0.31127 0.27717 0.26765 0.0
O647 O 0.32835 0.3078 0.27049 0.0
H648 H 0.3301 0.38414 0.32117 0.0
H649 H 0.31359 0.40783 0.32628 0.0
H650 H 0.28051 0.38202 0.27461 0.0
H651 H 0.29673 0.35856 0.26966 0.0
H652 H 0.26893 0.2134 0.23498 0.0
H653 H 0.28614 0.19097 0.2397 0.0
H654 H 0.31058 0.22578 0.29228 0.0
H655 H 0.29377 0.24808 0.28742 0.0
La656 La 0.55476 0.55226 0.03093 0.0
La657 La 0.55472 0.51352 0.01574 0.0
C658 C 0.55962 0.58779 0.03741 0.0
C659 C 0.55826 0.60262 0.02676 0.0
C660 C 0.55663 0.61995 0.0358 0.0
C661 C 0.55613 0.63458 0.02609 0.0
C662 C 0.55719 0.63205 0.00715 0.0
C663 C 0.55839 0.61445 0.99805 0.0
C664 C 0.55899 0.59987 0.0078 0.0
C665 C 0.52712 0.52588 0.03609 0.0
C666 C 0.54115 0.53574 0.98691 0.0
C667 C 0.54887 0.47793 0.0099 0.0
C668 C 0.54507 0.46294 0.02113 0.0
C669 C 0.55504 0.44989 0.02078 0.0
C670 C 0.55126 0.43519 0.03081 0.0
C671 C 0.53727 0.43311 0.04127 0.0
C672 C 0.52746 0.44642 0.0418 0.0
C673 C 0.53136 0.46123 0.03192 0.0
C674 C 0.58232 0.53981 0.01043 0.0
C675 C 0.56872 0.53005 0.05947 0.0
O676 O 0.5449 0.57558 0.03872 0.0
O677 O 0.57195 0.57955 0.03411 0.0
O678 O 0.53501 0.54108 0.04802 0.0
O679 O 0.5344 0.52629 0.02176 0.0
O680 O 0.54605 0.55062 1.00078 0.0
O681 O 0.54258 0.51893 0.98986 0.0
O682 O 0.56465 0.48966 0.01329 0.0
O683 O 0.5368 0.4867 0.00735 0.0
O684 O 0.57481 0.52422 0.99883 0.0
O685 O 0.57503 0.53951 0.02476 0.0
O686 O 0.56203 0.51488 0.0461 0.0
O687 O 0.56868 0.54714 0.05605 0.0
H688 H 0.55599 0.62227 0.05042 0.0
H689 H 0.55502 0.64791 0.03343 0.0
H690 H 0.55944 0.61215 0.98352 0.0
H691 H 0.5604 0.58663 1.00059 0.0
H692 H 0.56573 0.45101 0.01265 0.0
H693 H 0.55934 0.42547 0.03037 0.0
H694 H 0.51648 0.44518 0.04951 0.0
H695 H 0.52347 0.47116 0.03255 0.0
La696 La 0.81888 0.30342 0.26243 0.0
La697 La 0.78453 0.2753 0.25237 0.0
C698 C 0.84881 0.32154 0.27878 0.0
C699 C 0.8656 0.31668 0.28016 0.0
C700 C 0.88005 0.32796 0.27387 0.0
C701 C 0.89564 0.3227 0.2737 0.0
C702 C 0.89707 0.30607 0.27989 0.0
C703 C 0.88264 0.29494 0.2864 0.0
C704 C 0.86707 0.30015 0.2865 0.0
C705 C 0.80943 0.29192 0.22688 0.0
C706 C 0.81706 0.25763 0.25712 0.0
C707 C 0.75462 0.25652 0.23624 0.0
C708 C 0.73707 0.2595 0.23583 0.0
C709 C 0.72294 0.24472 0.23825 0.0
C710 C 0.70641 0.24762 0.23915 0.0
C711 C 0.70373 0.26541 0.2377 0.0
C712 C 0.7179 0.28015 0.23508 0.0
C713 C 0.73441 0.27721 0.23411 0.0
C714 C 0.794 0.28701 0.28801 0.0
C715 C 0.78649 0.32113 0.25722 0.0
O716 O 0.84285 0.32349 0.2624 0.0
O717 O 0.83646 0.31189 0.28687 0.0
O718 O 0.81859 0.309 0.23437 0.0
O719 O 0.80703 0.282 0.23917 0.0
O720 O 0.82633 0.27578 0.26348 0.0
O721 O 0.8002 0.25417 0.2504 0.0
O722 O 0.76135 0.25391 0.25204 0.0
O723 O 0.76609 0.26795 0.22859 0.0
O724 O 0.78509 0.26985 0.2805 0.0
O725 O 0.79627 0.29682 0.27563 0.0
O726 O 0.77707 0.30293 0.25153 0.0
O727 O 0.80347 0.32474 0.26349 0.0
H728 H 0.87916 0.34068 0.26878 0.0
H729 H 0.90648 0.33151 0.26847 0.0
H730 H 0.88342 0.28226 0.29162 0.0
H731 H 0.85615 0.29109 0.29139 0.0
H732 H 0.72475 0.23097 0.23962 0.0
H733 H 0.69569 0.23588 0.24084 0.0
H734 H 0.7163 0.29406 0.23405 0.0
H735 H 0.74508 0.28884 0.2322 0.0
La736 La 0.04603 0.523 0.53 0.0
La737 La 0.03526 0.53488 0.49535 0.0
C738 C 0.04865 0.51503 0.56164 0.0
C739 C 0.03752 0.51457 0.57614 0.0
C740 C 0.04217 0.5082 0.59214 0.0
C741 C 0.03307 0.51029 0.6071 0.0
C742 C 0.01931 0.51892 0.60625 0.0
C743 C 0.01416 0.52441 0.58979 0.0
C744 C 0.0232 0.52222 0.57483 0.0
C745 C 0.05754 0.50773 0.50109 0.0
C746 C 0.00763 0.50455 0.50836 0.0
C747 C 0.0336 0.54446 0.46445 0.0
C748 C 0.04702 0.5507 0.45287 0.0
C749 C 0.04502 0.56357 0.44145 0.0
C750 C 0.05788 0.56982 0.43057 0.0
C751 C 0.07292 0.5632 0.43094 0.0
C752 C 0.07505 0.55064 0.44279 0.0
C753 C 0.06222 0.54448 0.45371 0.0
C754 C 0.02401 0.55022 0.52459 0.0
C755 C 0.07368 0.55296 0.5165 0.0
O756 O 0.04252 0.50222 0.54674 0.0
O757 O 0.05513 0.53195 0.55801 0.0
O758 O 0.06585 0.51171 0.51757 0.0
O759 O 0.04273 0.51065 0.50151 0.0
O760 O 0.01753 0.51008 0.5246 0.0
O761 O 0.01309 0.51068 0.49363 0.0
O762 O 0.03483 0.55618 0.47984 0.0
O763 O 0.03062 0.52677 0.46673 0.0
O764 O 0.01537 0.54575 0.50821 0.0
O765 O 0.03877 0.54726 0.52387 0.0
O766 O 0.06368 0.54739 0.50041 0.0
O767 O 0.06806 0.54743 0.53139 0.0
H768 H 0.0532 0.50225 0.59329 0.0
H769 H 0.03714 0.50567 0.61952 0.0
H770 H 1.00375 0.53128 0.58878 0.0
H771 H 0.01953 0.52727 0.56252 0.0
H772 H 0.03348 0.56874 0.44092 0.0
H773 H 0.056 0.5797 0.42175 0.0
H774 H 0.08636 0.54511 0.44323 0.0
H775 H 0.06409 0.53469 0.46265 0.0
La776 La 0.78032 0.79102 0.26732 0.0
La777 La 0.81811 0.78935 0.27307 0.0
C778 C 0.74749 0.77964 0.26705 0.0
C779 C 0.73273 0.78157 0.27733 0.0
C780 C 0.72774 0.79851 0.28074 0.0
C781 C 0.71289 0.79908 0.28945 0.0
C782 C 0.70266 0.78268 0.29478 0.0
C783 C 0.70797 0.76592 0.29158 0.0
C784 C 0.72272 0.76538 0.28297 0.0
C785 C 0.80182 0.82621 0.26739 0.0
C786 C 0.80221 0.80361 0.30773 0.0
C787 C 0.85027 0.7916 0.27204 0.0
C788 C 0.86416 0.79415 0.25979 0.0
C789 C 0.86871 0.77822 0.25108 0.0
C790 C 0.88325 0.78037 0.24158 0.0
C791 C 0.8938 0.79854 0.24058 0.0
C792 C 0.88893 0.8145 0.24879 0.0
C793 C 0.87435 0.81234 0.25835 0.0
C794 C 0.79392 0.75802 0.27784 0.0
C795 C 0.79782 0.78198 0.23216 0.0
O796 O 0.75505 0.79327 0.25862 0.0
O797 O 0.75879 0.77207 0.2747 0.0
O798 O 0.78479 0.8215 0.26527 0.0
O799 O 0.80579 0.811 0.26947 0.0
O800 O 0.78667 0.79771 0.29739 0.0
O801 O 0.81686 0.8035 0.30072 0.0
O802 O 0.83771 0.77567 0.26825 0.0
O803 O 0.8444 0.80611 0.27782 0.0
O804 O 0.80912 0.76561 0.28773 0.0
O805 O 0.79284 0.7682 0.26563 0.0
O806 O 0.813 0.78683 0.2431 0.0
O807 O 0.78281 0.78097 0.23878 0.0
H808 H 0.73512 0.81122 0.27649 0.0
H809 H 0.70918 0.81221 0.29159 0.0
H810 H 0.7007 0.75311 0.29577 0.0
H811 H 0.7262 0.7521 0.28047 0.0
H812 H 0.86131 0.76399 0.25204 0.0
H813 H 0.88637 0.76773 0.2352 0.0
H814 H 0.89678 0.82871 0.24846 0.0
H815 H 0.87141 0.82495 0.26508 0.0
La816 La 0.80968 0.29159 0.7513 0.0
La817 La 0.80021 0.29654 0.79071 0.0
C818 C 0.81485 0.29337 0.71878 0.0
C819 C 0.81515 0.30732 0.70682 0.0
C820 C 0.82215 0.30501 0.69036 0.0
C821 C 0.82131 0.31732 0.6781 0.0
C822 C 0.81336 0.33207 0.68211 0.0
C823 C 0.80706 0.33485 0.69904 0.0
C824 C 0.80795 0.32253 0.71134 0.0
C825 C 0.83014 0.28247 0.77653 0.0
C826 C 0.81927 0.33274 0.7762 0.0
C827 C 0.80236 0.29612 0.82452 0.0
C828 C 0.79387 0.28291 0.83578 0.0
C829 C 0.7809 0.26616 0.82762 0.0
C830 C 0.77573 0.25161 0.8376 0.0
C831 C 0.78357 0.2537 0.85578 0.0
C832 C 0.79558 0.27109 0.86424 0.0
C833 C 0.80074 0.28556 0.85426 0.0
C834 C 0.77412 0.29986 0.76712 0.0
C835 C 0.78606 0.2566 0.76397 0.0
O836 O 0.82747 0.29815 0.73263 0.0
O837 O 0.79951 0.28577 0.72346 0.0
O838 O 0.82582 0.27362 0.75966 0.0
O839 O 0.82348 0.29625 0.77848 0.0
O840 O 0.81661 0.32245 0.75947 0.0
O841 O 0.81505 0.32538 0.7908 0.0
O842 O 0.79263 0.30504 0.81625 0.0
O843 O 0.81216 0.28933 0.81368 0.0
O844 O 0.77397 0.30073 0.78465 0.0
O845 O 0.78853 0.29691 0.76393 0.0
O846 O 0.79027 0.26587 0.78116 0.0
O847 O 0.79052 0.26466 0.7498 0.0
H848 H 0.82789 0.29342 0.68681 0.0
H849 H 0.82653 0.31506 0.66527 0.0
H850 H 0.80077 0.34601 0.70243 0.0
H851 H 0.80259 0.32454 0.7241 0.0
H852 H 0.77552 0.26394 0.8133 0.0
H853 H 0.76647 0.23836 0.83077 0.0
H854 H 0.80155 0.27318 0.87836 0.0
H855 H 0.8108 0.2984 0.8607 0.0
La856 La 0.80889 0.81825 0.78134 0.0
La857 La 0.78977 0.77901 0.76544 0.0
C858 C 0.81881 0.8539 0.78991 0.0
C859 C 0.80922 0.86784 0.78682 0.0
C860 C 0.81116 0.88393 0.80029 0.0
C861 C 0.80034 0.89588 0.79841 0.0
C862 C 0.78742 0.89183 0.78301 0.0
C863 C 0.78577 0.87584 0.76943 0.0
C864 C 0.79655 0.86398 0.7713 0.0
C865 C 0.80763 0.79459 0.80518 0.0
C866 C 0.76737 0.80587 0.7756 0.0
C867 C 0.77903 0.7433 0.75925 0.0
C868 C 0.78722 0.72936 0.76535 0.0
C869 C 0.78155 0.71027 0.75667 0.0
C870 C 0.79034 0.69739 0.76184 0.0
C871 C 0.805 0.70363 0.77553 0.0
C872 C 0.81034 0.72266 0.78447 0.0
C873 C 0.80144 0.7354 0.77951 0.0
C874 C 0.79088 0.80213 0.74114 0.0
C875 C 0.83128 0.79209 0.76926 0.0
O876 O 0.81252 0.84282 0.80119 0.0
O877 O 0.82242 0.84438 0.77518 0.0
O878 O 0.82089 0.80882 0.80465 0.0
O879 O 0.79543 0.79447 0.79299 0.0
O880 O 0.78182 0.81967 0.77639 0.0
O881 O 0.76754 0.78799 0.77332 0.0
O882 O 0.78724 0.7531 0.74792 0.0
O883 O 0.77452 0.75415 0.77238 0.0
O884 O 0.77806 0.78732 0.74134 0.0
O885 O 0.80305 0.80275 0.75363 0.0
O886 O 0.81717 0.77821 0.76968 0.0
O887 O 0.83082 0.8099 0.77157 0.0
H888 H 0.82072 0.88698 0.81247 0.0
H889 H 0.80199 0.90818 0.80902 0.0
H890 H 0.77573 0.87209 0.75759 0.0
H891 H 0.79459 0.85145 0.76086 0.0
H892 H 0.77058 0.70544 0.74573 0.0
H893 H 0.78609 0.68276 0.75474 0.0
H894 H 0.82151 0.7277 0.79519 0.0
H895 H 0.80584 0.75004 0.78655 0.0
La896 La 0.53521 0.52943 0.51479 0.0
La897 La 0.57051 0.55212 0.53536 0.0
C898 C 0.50277 0.51427 0.50625 0.0
C899 C 0.48724 0.52051 0.50969 0.0
C900 C 0.47148 0.51199 0.49795 0.0
C901 C 0.45719 0.51944 0.49954 0.0
C902 C 0.4585 0.53545 0.51297 0.0
C903 C 0.4742 0.54364 0.52502 0.0
C904 C 0.48853 0.53632 0.52329 0.0
C905 C 0.55887 0.52995 0.49018 0.0
C906 C 0.54738 0.57386 0.51568 0.0
C907 C 0.60316 0.56632 0.54267 0.0
C908 C 0.61729 0.56044 0.53434 0.0
C909 C 0.63487 0.5696 0.54121 0.0
C910 C 0.64816 0.56308 0.53374 0.0
C911 C 0.64403 0.54737 0.5192 0.0
C912 C 0.62631 0.53855 0.51217 0.0
C913 C 0.6131 0.54487 0.51984 0.0
C914 C 0.54659 0.55246 0.55973 0.0
C915 C 0.55885 0.50726 0.53321 0.0
O916 O 0.51257 0.52396 0.49593 0.0
O917 O 0.51204 0.51144 0.52049 0.0
O918 O 0.54246 0.52075 0.48745 0.0
O919 O 0.56168 0.5375 0.50731 0.0
O920 O 0.53388 0.55876 0.51473 0.0
O921 O 0.56342 0.57385 0.52194 0.0
O922 O 0.59411 0.55405 0.55149 0.0
O923 O 0.59302 0.57276 0.53192 0.0
O924 O 0.56313 0.56128 0.56264 0.0
O925 O 0.54399 0.54455 0.54273 0.0
O926 O 0.57199 0.52283 0.535 0.0
O927 O 0.54277 0.50688 0.52663 0.0
H928 H 0.47039 0.49993 0.48723 0.0
H929 H 0.44517 0.51281 0.49018 0.0
H930 H 0.4756 0.55614 0.53534 0.0
H931 H 0.50077 0.54333 0.53217 0.0
H932 H 0.63829 0.58152 0.55256 0.0
H933 H 0.66163 0.57004 0.5397 0.0
H934 H 0.6226 0.52666 0.5008 0.0
H935 H 0.59955 0.53747 0.51456 0.0
La936 La 0.07214 0.545 0.03034 0.0
La937 La 0.03231 0.53893 0.02141 0.0
C938 C 0.10243 0.54276 0.04155 0.0
C939 C 0.11401 0.52982 0.04101 0.0
C940 C 0.11857 0.52181 0.02441 0.0
C941 C 0.13151 0.51202 0.02443 0.0
C942 C 0.1403 0.51002 0.04105 0.0
C943 C 0.13518 0.51743 0.05759 0.0
C944 C 0.12227 0.52721 0.05755 0.0
C945 C 0.06144 0.55512 1.00002 0.0
C946 C 0.04684 0.5042 0.00963 0.0
C947 C 1.00204 0.54109 0.00996 0.0
C948 C 0.98947 0.55275 0.0125 0.0
C949 C 0.9729 0.54434 0.01706 0.0
C950 C 0.95999 0.55407 0.0177 0.0
C951 C 0.96323 0.57255 0.01373 0.0
C952 C 0.97996 0.58112 0.00944 0.0
C953 C 0.99292 0.57134 0.00881 0.0
C954 C 0.04305 0.52923 0.05199 0.0
C955 C 0.05764 0.58008 0.04157 0.0
O956 O 0.0984 0.54855 0.02637 0.0
O957 O 0.08923 0.53947 0.051 0.0
O958 O 0.07632 0.56369 0.01015 0.0
O959 O 0.05381 0.54083 0.00632 0.0
O960 O 0.06186 0.51409 0.01998 0.0
O961 O 0.03405 0.51211 0.00595 0.0
O962 O 1.00522 0.53199 0.02308 0.0
O963 O 0.01615 0.54789 1.00271 0.0
O964 O 0.02811 0.52064 0.042 0.0
O965 O 0.05067 0.54338 0.04552 0.0
O966 O 0.04208 0.56961 0.03273 0.0
O967 O 0.07109 0.57284 0.04421 0.0
H968 H 0.11256 0.52361 0.01138 0.0
H969 H 0.13509 0.5067 0.0114 0.0
H970 H 0.14132 0.51591 0.07067 0.0
H971 H 0.11912 0.53328 0.07057 0.0
H972 H 0.96973 0.52993 0.01969 0.0
H973 H 0.94725 0.54679 0.02075 0.0
H974 H 0.98307 0.59539 0.0065 0.0
H975 H 1.00551 0.57824 0.00513 0.0
C976 C 0.01341 0.21666 0.95309 0.0
C977 C 0.01723 0.21738 0.93504 0.0
C978 C 0.01527 0.20149 0.96175 0.0
C979 C 0.03788 0.16296 0.95949 0.0
H980 H 1.00451 0.14156 0.99056 0.0
C981 C 0.05069 0.10827 1.00354 0.0
C982 C 0.0366 0.09268 0.00473 0.0
C983 C 0.04795 0.12348 0.99558 0.0
C984 C 0.01393 0.14727 0.98186 0.0
H985 H 0.02599 0.20229 0.91208 0.0
H986 H 0.02923 0.1761 0.92705 0.0
H987 H 1.0004 0.16765 0.97562 0.0
H988 H 0.00839 0.08125 0.99858 0.0
H989 H 1.00358 0.10782 0.98477 0.0
H990 H 0.05133 0.14255 0.96553 0.0
C991 C 0.02491 0.18733 0.93465 0.0
C992 C 0.01166 0.16243 0.97341 0.0
C993 C 0.02294 0.20239 0.92597 0.0
C994 C 0.01959 0.09299 0.998 0.0
C995 C 0.01682 0.10831 0.99011 0.0
C996 C 0.04021 0.14794 0.96803 0.0
C997 C 0.02116 0.1866 0.95271 0.0
C998 C 0.02358 0.17051 0.96202 0.0
C999 C 0.03099 0.12373 0.98855 0.0
C1000 C 0.02829 0.1398 0.97938 0.0
H1001 H 0.00898 0.22786 0.96058 0.0
H1002 H 0.01238 0.20162 0.97569 0.0
H1003 H 0.04748 0.16882 0.95102 0.0
H1004 H 0.06399 0.10865 0.00856 0.0
H1005 H 0.0592 0.13513 0.99499 0.0
C1006 C 0.13531 0.82093 0.17885 0.0
C1007 C 0.13448 0.82369 0.16051 0.0
C1008 C 0.15097 0.82009 0.18856 0.0
C1009 C 0.19345 0.80974 0.18206 0.0
H1010 H 0.2059 0.83258 0.23358 0.0
C1011 C 0.25764 0.80744 0.22695 0.0
C1012 C 0.25618 0.80559 0.24532 0.0
C1013 C 0.24362 0.81022 0.21563 0.0
C1014 C 0.20258 0.82586 0.21926 0.0
H1015 H 0.14985 0.82793 0.13817 0.0
H1016 H 0.17715 0.82646 0.15511 0.0
H1017 H 0.18025 0.83672 0.21617 0.0
H1018 H 0.23862 0.80451 0.26591 0.0
H1019 H 0.21442 0.80875 0.24641 0.0
H1020 H 0.21569 0.79859 0.18531 0.0
C1021 C 0.16559 0.82487 0.16196 0.0
C1022 C 0.1878 0.82831 0.20922 0.0
C1023 C 0.14994 0.82591 0.15229 0.0
C1024 C 0.24031 0.80606 0.25189 0.0
C1025 C 0.2264 0.80869 0.24068 0.0
C1026 C 0.20824 0.80718 0.19218 0.0
C1027 C 0.16632 0.82181 0.18022 0.0
C1028 C 0.18282 0.82008 0.19053 0.0
C1029 C 0.22784 0.81119 0.22246 0.0
C1030 C 0.21288 0.81494 0.21104 0.0
H1031 H 0.12372 0.81905 0.18567 0.0
H1032 H 0.15089 0.81753 0.2025 0.0
H1033 H 0.19001 0.80307 0.16773 0.0
H1034 H 0.26972 0.80723 0.22149 0.0
H1035 H 0.24532 0.81211 0.2017 0.0
C1036 C 0.51291 0.83302 0.43617 0.0
C1037 C 0.52486 0.82332 0.44197 0.0
C1038 C 0.5148 0.85197 0.44397 0.0
C1039 C 0.53813 0.8912 0.48314 0.0
H1040 H 0.52719 0.92281 0.44924 0.0
C1041 C 0.55626 0.97378 0.50251 0.0
C1042 C 0.54394 0.98293 0.49638 0.0
C1043 C 0.5538 0.95427 0.4965 0.0
C1044 C 0.53012 0.9142 0.45898 0.0
H1045 H 0.5479 0.82598 0.46112 0.0
H1046 H 0.55142 0.85927 0.47463 0.0
H1047 H 0.52321 0.88917 0.43825 0.0
H1048 H 0.5193 0.97843 0.47903 0.0
H1049 H 0.51506 0.94449 0.46851 0.0
H1050 H 0.54533 0.91648 0.5038 0.0
C1051 C 0.54039 0.85208 0.46414 0.0
C1052 C 0.5278 0.89478 0.45268 0.0
C1053 C 0.53838 0.83294 0.45641 0.0
C1054 C 0.52911 0.97197 0.48402 0.0
C1055 C 0.52672 0.95246 0.47791 0.0
C1056 C 0.54056 0.9107 0.48943 0.0
C1057 C 0.52885 0.86203 0.45771 0.0
C1058 C 0.53164 0.88289 0.46465 0.0
C1059 C 0.53901 0.9433 0.48408 0.0
C1060 C 0.53651 0.92248 0.47745 0.0
H1061 H 0.50221 0.82606 0.42523 0.0
H1062 H 0.50529 0.8588 0.43898 0.0
H1063 H 0.54108 0.88259 0.49287 0.0
H1064 H 0.56783 0.98166 0.51206 0.0
H1065 H 0.56367 0.94783 0.50141 0.0
C1066 C 0.53366 0.29362 0.68337 0.0
C1067 C 0.5396 0.30611 0.67136 0.0
C1068 C 0.51795 0.29305 0.69058 0.0
C1069 C 0.48498 0.32014 0.69855 0.0
H1070 H 0.45573 0.27111 0.70384 0.0
C1071 C 0.42448 0.31244 0.73793 0.0
C1072 C 0.40964 0.29686 0.73147 0.0
C1073 C 0.44005 0.31399 0.73015 0.0
C1074 C 0.4636 0.28493 0.70232 0.0
H1075 H 0.53357 0.32799 0.65775 0.0
H1076 H 0.50608 0.32691 0.67019 0.0
H1077 H 0.48303 0.2731 0.69114 0.0
H1078 H 0.39964 0.27097 0.71119 0.0
H1079 H 0.42664 0.27369 0.69761 0.0
H1080 H 0.46533 0.33191 0.70943 0.0
C1081 C 0.5137 0.31766 0.67421 0.0
C1082 C 0.47947 0.28611 0.69524 0.0
C1083 C 0.52947 0.31824 0.667 0.0
C1084 C 0.41082 0.28302 0.71678 0.0
C1085 C 0.42638 0.28458 0.70898 0.0
C1086 C 0.46909 0.31896 0.70566 0.0
C1087 C 0.5076 0.30491 0.68599 0.0
C1088 C 0.49047 0.30374 0.69331 0.0
C1089 C 0.4413 0.30002 0.71562 0.0
C1090 C 0.45816 0.30133 0.70771 0.0
H1091 H 0.5411 0.28411 0.68713 0.0
H1092 H 0.51396 0.2833 0.69985 0.0
H1093 H 0.49309 0.334 0.69744 0.0
H1094 H 0.42426 0.32325 0.74939 0.0
H1095 H 0.45127 0.32594 0.73588 0.0
C1096 C 0.99534 0.80017 0.62695 0.0
C1097 C 0.00835 0.79052 0.62573 0.0
C1098 C 0.99625 0.816 0.61847 0.0
C1099 C 0.02847 0.85337 0.60281 0.0
H1100 H 0.98889 0.86005 0.57277 0.0
C1101 C 0.03394 0.92043 0.57108 0.0
C1102 C 0.02743 0.9172 0.55232 0.0
C1103 C 0.03002 0.90579 0.58117 0.0
C1104 C 1.00004 0.85836 0.58115 0.0
H1105 H 0.03221 0.78958 0.61421 0.0
H1106 H 0.03375 0.81698 0.59956 0.0
H1107 H 0.98503 0.83242 0.58798 0.0
H1108 H 0.01109 0.8963 0.52962 0.0
H1109 H 1.00445 0.87066 0.54719 0.0
H1110 H 0.04362 0.87893 0.59574 0.0
C1111 C 0.02297 0.81252 0.60721 0.0
C1112 C 0.99779 0.84265 0.58995 0.0
C1113 C 0.02201 0.79673 0.61553 0.0
C1114 C 0.01649 0.89916 0.544 0.0
C1115 C 0.01251 0.88454 0.55411 0.0
C1116 C 0.03068 0.86908 0.59415 0.0
C1117 C 0.01027 0.8225 0.60879 0.0
C1118 C 0.01208 0.83984 0.6006 0.0
C1119 C 0.01945 0.88762 0.57274 0.0
C1120 C 0.01657 0.87164 0.58301 0.0
H1121 H 0.98465 0.79572 0.6347 0.0
H1122 H 0.98629 0.82345 0.6199 0.0
H1123 H 0.03967 0.85168 0.61112 0.0
H1124 H 0.04247 0.93413 0.57786 0.0
H1125 H 0.03543 0.90865 0.59555 0.0
C1126 C 0.52949 0.77721 0.85191 0.0
C1127 C 0.54083 0.79059 0.84391 0.0
C1128 C 0.51196 0.76946 0.84408 0.0
C1129 C 0.48006 0.76556 0.80292 0.0
H1130 H 0.45017 0.77676 0.83875 0.0
C1131 C 0.41972 0.79072 0.78518 0.0
C1132 C 0.40583 0.7873 0.7956 0.0
C1133 C 0.43434 0.78423 0.78915 0.0
C1134 C 0.4581 0.773 0.82853 0.0
H1135 H 0.54323 0.80515 0.82068 0.0
H1136 H 0.51279 0.79171 0.80709 0.0
H1137 H 0.47988 0.77672 0.84908 0.0
H1138 H 0.39562 0.77323 0.81736 0.0
H1139 H 0.42105 0.76156 0.82416 0.0
H1140 H 0.45845 0.76265 0.78233 0.0
C1141 C 0.51732 0.78714 0.81935 0.0
C1142 C 0.47519 0.77298 0.83449 0.0
C1143 C 0.53474 0.795 0.82726 0.0
C1144 C 0.40635 0.77635 0.80938 0.0
C1145 C 0.42089 0.76968 0.81323 0.0
C1146 C 0.4629 0.76545 0.79694 0.0
C1147 C 0.50561 0.77482 0.82801 0.0
C1148 C 0.48657 0.77007 0.82173 0.0
C1149 C 0.43528 0.77402 0.80353 0.0
C1150 C 0.45198 0.76999 0.80967 0.0
H1151 H 0.53388 0.77348 0.86472 0.0
H1152 H 0.50321 0.75989 0.85096 0.0
H1153 H 0.48851 0.76302 0.7928 0.0
H1154 H 0.41965 0.79919 0.77453 0.0
H1155 H 0.44527 0.78811 0.78158 0.0
C1156 C 0.4994 0.19043 0.1114 0.0
C1157 C 0.49247 0.18927 0.12801 0.0
C1158 C 0.50149 0.17425 0.10063 0.0
C1159 C 0.51807 0.1422 0.09151 0.0
H1160 H 0.48329 0.09332 0.07715 0.0
C1161 C 0.53633 0.07625 0.05829 0.0
C1162 C 0.526 0.06697 0.04151 0.0
C1163 C 0.53084 0.08944 0.07008 0.0
C1164 C 0.49311 0.1069 0.08114 0.0
H1165 H 0.48112 0.16995 0.14566 0.0
H1166 H 0.48466 0.1416 0.12663 0.0
H1167 H 0.47543 0.12026 0.09429 0.0
H1168 H 0.50143 0.06313 0.02431 0.0
H1169 H 0.49177 0.08616 0.04499 0.0
H1170 H 0.53574 0.12904 0.0784 0.0
C1171 C 0.48857 0.1551 0.1221 0.0
C1172 C 0.48864 0.12224 0.09096 0.0
C1173 C 0.48659 0.17134 0.13299 0.0
C1174 C 0.50968 0.07026 0.03714 0.0
C1175 C 0.5041 0.08331 0.049 0.0
C1176 C 0.52259 0.12687 0.08195 0.0
C1177 C 0.49656 0.15656 0.10614 0.0
C1178 C 0.50105 0.14007 0.09601 0.0
C1179 C 0.51485 0.09338 0.06535 0.0
C1180 C 0.51013 0.10911 0.07656 0.0
H1181 H 0.50394 0.20396 0.10706 0.0
H1182 H 0.50743 0.17567 0.08821 0.0
H1183 H 0.52795 0.15574 0.09547 0.0
H1184 H 0.54894 0.07387 0.062 0.0
H1185 H 0.53928 0.09689 0.08271 0.0
C1186 C 0.13521 0.30559 0.32917 0.0
C1187 C 0.13241 0.31672 0.34501 0.0
C1188 C 0.14958 0.31215 0.3203 0.0
C1189 C 0.19423 0.34152 0.3296 0.0
H1190 H 0.19114 0.32829 0.27667 0.0
C1191 C 0.25497 0.33807 0.29433 0.0
C1192 C 0.25246 0.31988 0.28382 0.0
C1193 C 0.24063 0.34394 0.29984 0.0
C1194 C 0.19222 0.33231 0.29145 0.0
H1195 H 0.14222 0.34368 0.3638 0.0
H1196 H 0.1678 0.35508 0.34837 0.0
H1197 H 0.16453 0.32756 0.29064 0.0
H1198 H 0.233 0.29411 0.26988 0.0
H1199 H 0.20808 0.30434 0.27936 0.0
H1200 H 0.22182 0.34515 0.33046 0.0
C1201 C 0.1587 0.34131 0.34282 0.0
C1202 C 0.17702 0.33188 0.29943 0.0
C1203 C 0.1441 0.3348 0.35162 0.0
C1204 C 0.23536 0.30814 0.27808 0.0
C1205 C 0.22106 0.31409 0.28336 0.0
C1206 C 0.20947 0.34199 0.32159 0.0
C1207 C 0.16159 0.32997 0.32712 0.0
C1208 C 0.17779 0.3355 0.31863 0.0
C1209 C 0.22356 0.33184 0.29465 0.0
C1210 C 0.20846 0.33643 0.30251 0.0
H1211 H 0.12639 0.29164 0.32366 0.0
H1212 H 0.15162 0.30291 0.30846 0.0
H1213 H 0.19522 0.34432 0.34444 0.0
H1214 H 0.26803 0.34745 0.29894 0.0
H1215 H 0.24289 0.3577 0.30852 0.0
C1216 C 0.94838 0.05857 0.19175 0.0
C1217 C 0.95732 0.05837 0.20914 0.0
C1218 C 0.95627 0.0574 0.17522 0.0
C1219 C 1.00061 0.06324 0.15661 0.0
H1220 H 0.97245 0.03777 0.11002 0.0
C1221 C 0.02983 0.06795 0.08577 0.0
C1222 C 0.02465 0.05254 0.07066 0.0
C1223 C 0.02175 0.06803 0.10212 0.0
C1224 C 0.98074 0.04495 0.12279 0.0
H1225 H 0.98242 0.05681 0.22159 0.0
H1226 H 0.99613 0.05533 0.19338 0.0
H1227 H 0.95886 0.03932 0.13828 0.0
H1228 H 1.00586 0.02496 0.06195 0.0
H1229 H 0.99154 0.02522 0.09002 0.0
H1230 H 0.02243 0.06909 0.14115 0.0
C1231 C 0.98279 0.05632 0.1924 0.0
C1232 C 0.97277 0.04601 0.13931 0.0
C1233 C 0.97478 0.05713 0.20889 0.0
C1234 C 0.01057 0.03719 0.07292 0.0
C1235 C 1.00219 0.03742 0.08926 0.0
C1236 C 0.0085 0.0625 0.14007 0.0
C1237 C 0.97378 0.05628 0.17494 0.0
C1238 C 0.98244 0.05515 0.15683 0.0
C1239 C 0.00762 0.05283 0.10449 0.0
C1240 C 0.99887 0.05331 0.12256 0.0
H1241 H 0.93498 0.05939 0.19077 0.0
H1242 H 0.94854 0.05763 0.16255 0.0
H1243 H 0.0089 0.07057 0.16933 0.0
H1244 H 0.04044 0.08024 0.08506 0.0
H1245 H 0.02654 0.08042 0.1129 0.0
C1246 C 0.29448 0.67568 0.46976 0.0
C1247 C 0.28783 0.68138 0.48584 0.0
C1248 C 0.29169 0.68352 0.45415 0.0
C1249 C 0.26361 0.7096 0.43319 0.0
H1250 H 0.30397 0.73002 0.40979 0.0
C1251 C 0.26174 0.74974 0.37191 0.0
C1252 C 0.27583 0.76606 0.3732 0.0
C1253 C 0.26167 0.73775 0.38472 0.0
C1254 C 0.29259 0.72437 0.41621 0.0
H1255 H 0.273 0.69964 0.49818 0.0
H1256 H 0.26838 0.7133 0.47122 0.0
H1257 H 0.30673 0.711 0.43334 0.0
H1258 H 0.30056 0.78291 0.3893 0.0
H1259 H 0.30012 0.76238 0.41181 0.0
H1260 H 0.24967 0.72365 0.41654 0.0
C1261 C 0.27548 0.70263 0.47049 0.0
C1262 C 0.29411 0.7133 0.42949 0.0
C1263 C 0.27832 0.69492 0.48602 0.0
C1264 C 0.28938 0.77062 0.38801 0.0
C1265 C 0.28931 0.75867 0.40074 0.0
C1266 C 0.26207 0.72066 0.41986 0.0
C1267 C 0.28211 0.69702 0.45441 0.0
C1268 C 0.27977 0.70623 0.43845 0.0
C1269 C 0.27573 0.74187 0.39893 0.0
C1270 C 0.27669 0.72857 0.41163 0.0
H1271 H 0.30179 0.6652 0.46924 0.0
H1272 H 0.29694 0.67897 0.44188 0.0
H1273 H 0.25228 0.70411 0.43976 0.0
H1274 H 0.25106 0.74596 0.3607 0.0
H1275 H 0.251 0.7249 0.3831 0.0
C1276 C 0.61258 0.99938 0.67816 0.0
C1277 C 0.60975 0.00834 0.69521 0.0
C1278 C 0.60032 0.9964 0.66259 0.0
C1279 C 0.571 0.99008 0.63104 0.0
H1280 H 0.56145 0.03852 0.62885 0.0
C1281 C 0.53707 0.00828 0.56614 0.0
C1282 C 0.5462 0.0255 0.56156 0.0
C1283 C 0.54197 1.00346 0.58289 0.0
C1284 C 0.56392 0.02487 0.62931 0.0
H1285 H 0.59089 0.01899 0.70974 0.0
H1286 H 0.56949 0.0137 0.68253 0.0
H1287 H 0.57361 0.03264 0.6579 0.0
H1288 H 0.56754 0.05114 0.57061 0.0
H1289 H 0.57603 0.04282 0.60001 0.0
H1290 H 0.56195 0.98276 0.60212 0.0
C1291 C 0.58135 0.00937 0.68117 0.0
C1292 C 0.57066 0.02138 0.64597 0.0
C1293 C 0.5936 0.01235 0.69675 0.0
C1294 C 0.56031 0.0378 0.57388 0.0
C1295 C 0.56507 0.03309 0.59069 0.0
C1296 C 0.56409 0.99353 0.61434 0.0
C1297 C 0.58502 1.0023 0.66381 0.0
C1298 C 0.57473 1.00417 0.64693 0.0
C1299 C 0.5559 0.01593 0.59537 0.0
C1300 C 0.56102 0.01119 0.61327 0.0
H1301 H 0.6248 0.9959 0.67655 0.0
H1302 H 0.60355 0.99095 0.6494 0.0
H1303 H 0.57398 0.97667 0.63142 0.0
H1304 H 0.52616 0.99855 0.55676 0.0
H1305 H 0.53471 0.99016 0.58622 0.0
C1306 C 0.31238 0.34052 0.97637 0.0
C1307 C 0.30838 0.3575 0.98313 0.0
C1308 C 0.31068 0.3338 0.95739 0.0
C1309 C 0.31188 0.35028 0.91313 0.0
H1310 H 0.29007 0.29741 0.8913 0.0
C1311 C 0.31841 0.31761 0.83854 0.0
C1312 C 0.30286 0.30637 0.82742 0.0
C1313 C 0.31867 0.32369 0.85743 0.0
C1314 C 0.29618 0.31223 0.89717 0.0
H1315 H 0.29934 0.38064 0.975 0.0
H1316 H 0.29672 0.36912 0.94192 0.0
H1317 H 0.29085 0.30814 0.92429 0.0
H1318 H 0.27543 0.29249 0.82774 0.0
H1319 H 0.27603 0.30265 0.86074 0.0
H1320 H 0.31752 0.35431 0.8861 0.0
C1321 C 0.30106 0.36093 0.95136 0.0
C1322 C 0.29671 0.31836 0.91611 0.0
C1323 C 0.30243 0.36745 0.97034 0.0
C1324 C 0.28765 0.30113 0.83582 0.0
C1325 C 0.288 0.3069 0.85478 0.0
C1326 C 0.31166 0.34408 0.89428 0.0
C1327 C 0.30527 0.34407 0.9446 0.0
C1328 C 0.30451 0.3375 0.92436 0.0
C1329 C 0.30348 0.3184 0.86584 0.0
C1330 C 0.30376 0.32497 0.886 0.0
H1331 H 0.31705 0.3325 0.98578 0.0
H1332 H 0.31413 0.32083 0.95272 0.0
H1333 H 0.31812 0.36508 0.91901 0.0
H1334 H 0.33036 0.322 0.83259 0.0
H1335 H 0.33085 0.33241 0.86552 0.0
C1336 C 0.97499 0.06315 0.33305 0.0
C1337 C 0.97292 0.0485 0.31771 0.0
C1338 C 0.98263 0.06217 0.35091 0.0
C1339 C 0.0072 0.03269 0.37705 0.0
H1340 H 0.99871 0.06369 0.4201 0.0
C1341 C 0.02935 0.02178 0.4524 0.0
C1342 C 0.0344 0.03731 0.46732 0.0
C1343 C 0.02231 0.02346 0.43459 0.0
C1344 C 1.00149 0.05495 0.40836 0.0
H1345 H 0.97754 0.02101 0.31016 0.0
H1346 H 0.99018 0.019 0.34064 0.0
H1347 H 0.986 0.06579 0.38969 0.0
H1348 H 0.0355 0.06709 0.47418 0.0
H1349 H 0.02326 0.07 0.44357 0.0
H1350 H 0.02247 0.02165 0.39586 0.0
C1351 C 0.98638 0.03172 0.33911 0.0
C1352 C 0.99408 0.05619 0.3905 0.0
C1353 C 0.97889 0.0328 0.32125 0.0
C1354 C 0.03193 0.05465 0.46339 0.0
C1355 C 0.02469 0.05629 0.44559 0.0
C1356 C 0.01445 0.03133 0.3949 0.0
C1357 C 0.98853 0.04636 0.3546 0.0
C1358 C 0.99667 0.0451 0.37418 0.0
C1359 C 0.01969 0.04074 0.4306 0.0
C1360 C 0.01184 0.0424 0.41115 0.0
H1361 H 0.97068 0.07556 0.3313 0.0
H1362 H 0.98399 0.07411 0.36179 0.0
H1363 H 0.01021 0.024 0.36545 0.0
H1364 H 0.03082 0.00808 0.45443 0.0
H1365 H 0.01861 0.0109 0.42396 0.0
C1366 C 0.32284 0.70789 0.57937 0.0
C1367 C 0.31788 0.68904 0.5823 0.0
C1368 C 0.3274 0.72304 0.59418 0.0
C1369 C 0.33717 0.73508 0.64513 0.0
H1370 H 0.31078 0.77172 0.63982 0.0
C1371 C 0.30604 0.76729 0.70214 0.0
C1372 C 0.31391 0.78662 0.70925 0.0
C1373 C 0.30953 0.75907 0.68535 0.0
C1374 C 0.31854 0.76186 0.64134 0.0
H1375 H 0.31497 0.67127 0.60308 0.0
H1376 H 0.32258 0.69759 0.62887 0.0
H1377 H 0.31323 0.74982 0.61273 0.0
H1378 H 0.33059 0.81286 0.70392 0.0
H1379 H 0.33641 0.79829 0.67397 0.0
H1380 H 0.3412 0.74622 0.67397 0.0
C1381 C 0.32317 0.70075 0.61516 0.0
C1382 C 0.32001 0.74935 0.62589 0.0
C1383 C 0.31868 0.68562 0.60036 0.0
C1384 C 0.32439 0.79791 0.69869 0.0
C1385 C 0.32777 0.78964 0.68169 0.0
C1386 C 0.33555 0.74744 0.66053 0.0
C1387 C 0.32707 0.71962 0.61221 0.0
C1388 C 0.32876 0.73534 0.62776 0.0
C1389 C 0.32077 0.77007 0.6753 0.0
C1390 C 0.32574 0.76044 0.65877 0.0
H1391 H 0.32256 0.71101 0.56559 0.0
H1392 H 0.33061 0.73741 0.5915 0.0
H1393 H 0.34426 0.72468 0.64695 0.0
H1394 H 0.29781 0.75829 0.70993 0.0
H1395 H 0.30388 0.74396 0.68046 0.0
C1396 C 0.64699 0.04143 0.80654 0.0
C1397 C 0.64292 0.05331 0.79483 0.0
C1398 C 0.64778 0.0466 0.82553 0.0
C1399 C 0.63109 0.07739 0.85889 0.0
H1400 H 0.65945 0.06042 0.8944 0.0
C1401 C 0.61684 0.0843 0.93171 0.0
C1402 C 0.61184 0.06627 0.93656 0.0
C1403 C 0.6272 0.08736 0.91777 0.0
C1404 C 0.65163 0.06545 0.88464 0.0
H1405 H 0.63761 0.08041 0.79369 0.0
H1406 H 0.63966 0.08978 0.8267 0.0
H1407 H 0.66455 0.0567 0.86228 0.0
H1408 H 0.61539 0.03796 0.93218 0.0
H1409 H 0.63337 0.04325 0.90779 0.0
H1410 H 0.61787 0.08566 0.88096 0.0
C1411 C 0.64154 0.07612 0.82134 0.0
C1412 C 0.65441 0.06317 0.86624 0.0
C1413 C 0.64037 0.07077 0.8024 0.0
C1414 C 0.61904 0.05201 0.92873 0.0
C1415 C 0.62939 0.05507 0.91478 0.0
C1416 C 0.62848 0.07986 0.87722 0.0
C1417 C 0.64485 0.06394 0.83314 0.0
C1418 C 0.64379 0.0686 0.85306 0.0
C1419 C 0.63268 0.07241 0.90845 0.0
C1420 C 0.63835 0.07342 0.89018 0.0
H1421 H 0.64912 0.02794 0.801 0.0
H1422 H 0.65012 0.03673 0.83415 0.0
H1423 H 0.6224 0.08142 0.84917 0.0
H1424 H 0.61177 0.09566 0.93784 0.0
H1425 H 0.62982 0.10097 0.91336 0.0
C1426 C 0.31485 0.35745 0.09325 0.0
C1427 C 0.3061 0.37078 0.08879 0.0
C1428 C 0.31341 0.35071 0.10992 0.0
C1429 C 0.2848 0.34151 0.14509 0.0
H1430 H 0.32667 0.34796 0.17904 0.0
C1431 C 0.27893 0.32231 0.21754 0.0
C1432 C 0.29242 0.31678 0.22674 0.0
C1433 C 0.28101 0.32942 0.20117 0.0
C1434 C 0.31476 0.3456 0.16972 0.0
H1435 H 0.28857 0.387 0.09832 0.0
H1436 H 0.28541 0.37455 0.12689 0.0
H1437 H 0.32915 0.35793 0.1494 0.0
H1438 H 0.31879 0.31438 0.22588 0.0
H1439 H 0.32222 0.32571 0.19696 0.0
H1440 H 0.2703 0.32837 0.1646 0.0
C1441 C 0.29366 0.3696 0.11764 0.0
C1442 C 0.31625 0.3515 0.15266 0.0
C1443 C 0.29549 0.37675 0.10125 0.0
C1444 C 0.30819 0.31873 0.21925 0.0
C1445 C 0.31014 0.32536 0.20257 0.0
C1446 C 0.2833 0.33516 0.1619 0.0
C1447 C 0.30278 0.35669 0.12234 0.0
C1448 C 0.30128 0.3497 0.14019 0.0
C1449 C 0.2965 0.33071 0.19305 0.0
C1450 C 0.29823 0.33725 0.17473 0.0
H1451 H 0.32325 0.35266 0.08411 0.0
H1452 H 0.32055 0.34071 0.11309 0.0
H1453 H 0.273 0.33974 0.13573 0.0
H1454 H 0.26664 0.32108 0.22301 0.0
H1455 H 0.2703 0.33387 0.19496 0.0
C1456 C 0.2649 1.00058 0.01168 0.0
C1457 C 0.26363 0.98606 0.99668 0.0
C1458 C 0.25264 0.01098 0.01227 0.0
C1459 C 0.20736 0.00745 0.99293 0.0
H1460 H 0.21915 0.05923 0.01975 0.0
C1461 C 0.15567 0.04844 1.00396 0.0
C1462 C 0.15502 0.05482 0.02263 0.0
C1463 C 0.1699 0.04236 0.99856 0.0
C1464 C 0.21573 0.0448 0.01217 0.0
H1465 H 0.249 0.9716 0.97013 0.0
H1466 H 0.22783 0.99026 0.97083 0.0
H1467 H 0.24249 0.04443 0.01334 0.0
H1468 H 0.16926 0.06047 0.05014 0.0
H1469 H 0.19435 0.05045 0.04056 0.0
H1470 H 0.18057 0.00797 0.99176 0.0
C1471 C 0.23805 0.99325 0.98239 0.0
C1472 C 0.22904 0.03626 0.00856 0.0
C1473 C 0.25023 0.98264 0.98192 0.0
C1474 C 0.16938 0.0559 0.03564 0.0
C1475 C 0.18374 0.0501 0.03018 0.0
C1476 C 0.19408 0.01611 0.99627 0.0
C1477 C 0.23892 1.00732 0.99775 0.0
C1478 C 0.225 0.01729 0.99934 0.0
C1479 C 0.18393 0.04289 0.01166 0.0
C1480 C 0.19813 0.03469 0.00629 0.0
H1481 H 0.27503 1.0035 0.02334 0.0
H1482 H 0.25359 0.02139 0.02448 0.0
H1483 H 0.20368 0.99275 0.98606 0.0
H1484 H 0.14505 0.04784 0.9935 0.0
H1485 H 0.16987 0.03702 0.98416 0.0
C1486 C 0.73445 0.63002 0.00478 0.0
C1487 C 0.73686 0.64711 0.99797 0.0
C1488 C 0.71759 0.61859 0.0055 0.0
C1489 C 0.68132 0.60408 0.01676 0.0
H1490 H 0.64329 0.59528 0.97719 0.0
C1491 C 0.60914 0.56678 0.02387 0.0
C1492 C 0.59935 0.55317 0.00877 0.0
C1493 C 0.62562 0.57867 0.02236 0.0
C1494 C 0.65376 0.59752 0.98836 0.0
H1495 H 0.72312 0.66516 0.98609 0.0
H1496 H 0.69378 0.64517 0.98722 0.0
H1497 H 0.67255 0.61441 0.9744 0.0
H1498 H 0.59904 0.54162 0.98016 0.0
H1499 H 0.62765 0.5623 0.9775 0.0
H1500 H 0.6626 0.58707 0.03065 0.0
C1501 C 0.70497 0.64059 0.992 0.0
C1502 C 0.67054 0.60866 0.98682 0.0
C1503 C 0.72186 0.65211 0.99138 0.0
C1504 C 0.60625 0.55196 0.99206 0.0
C1505 C 0.62264 0.56392 0.99051 0.0
C1506 C 0.66452 0.59308 0.01836 0.0
C1507 C 0.70259 0.62381 0.99934 0.0
C1508 C 0.68461 0.61202 1.00095 0.0
C1509 C 0.63266 0.57734 0.00568 0.0
C1510 C 0.65049 0.58956 1.00415 0.0
H1511 H 0.74562 0.62563 0.00999 0.0
H1512 H 0.71632 0.60563 0.01097 0.0
H1513 H 0.69173 0.60652 0.02804 0.0
H1514 H 0.6042 0.56807 0.03694 0.0
H1515 H 0.63283 0.58896 0.03428 0.0
C1516 C 0.70827 0.45399 0.27439 0.0
C1517 C 0.71256 0.46806 0.26329 0.0
C1518 C 0.71589 0.43839 0.27362 0.0
C1519 C 0.75392 0.42004 0.25604 0.0
H1520 H 0.72842 0.37237 0.26797 0.0
C1521 C 0.78778 0.35712 0.26138 0.0
C1522 C 0.77777 0.33778 0.25758 0.0
C1523 C 0.77995 0.37253 0.26189 0.0
C1524 C 0.73594 0.38543 0.26445 0.0
H1525 H 0.72896 0.47571 0.24251 0.0
H1526 H 0.74214 0.44918 0.24125 0.0
H1527 H 0.7152 0.39876 0.26903 0.0
H1528 H 0.75081 0.32052 0.25162 0.0
H1529 H 0.73735 0.34683 0.25253 0.0
H1530 H 0.77463 0.40671 0.25139 0.0
C1531 C 0.73282 0.45009 0.25079 0.0
C1532 C 0.72825 0.40098 0.26526 0.0
C1533 C 0.72506 0.46557 0.25144 0.0
C1534 C 0.75935 0.33487 0.25447 0.0
C1535 C 0.75148 0.35029 0.25517 0.0
C1536 C 0.76168 0.40456 0.25543 0.0
C1537 C 0.72849 0.43589 0.26182 0.0
C1538 C 0.73694 0.41885 0.26104 0.0
C1539 C 0.76151 0.3697 0.25886 0.0
C1540 C 0.75297 0.38666 0.25957 0.0
H1541 H 0.69883 0.45494 0.28379 0.0
H1542 H 0.71197 0.42838 0.28265 0.0
H1543 H 0.76155 0.43317 0.25278 0.0
H1544 H 0.80193 0.3605 0.26398 0.0
H1545 H 0.78858 0.38683 0.26503 0.0
C1546 C 0.85269 0.44323 0.48562 0.0
C1547 C 0.84361 0.42926 0.4947 0.0
C1548 C 0.87085 0.44733 0.48646 0.0
C1549 C 0.90922 0.45126 0.51614 0.0
H1550 H 0.93244 0.44921 0.47266 0.0
C1551 C 0.98409 0.48211 0.52059 0.0
C1552 C 0.98961 0.49223 0.50671 0.0
C1553 C 0.9668 0.47086 0.51896 0.0
C1554 C 0.92617 0.45002 0.48495 0.0
H1555 H 0.84626 0.40854 0.51171 0.0
H1556 H 0.87826 0.41631 0.51372 0.0
H1557 H 0.9007 0.43633 0.46975 0.0
H1558 H 0.9814 0.49862 0.48031 0.0
H1559 H 0.95134 0.47982 0.47783 0.0
H1560 H 0.93434 0.46616 0.53128 0.0
C1561 C 0.87119 0.42374 0.50571 0.0
C1562 C 0.90806 0.4425 0.48324 0.0
C1563 C 0.85297 0.41931 0.5045 0.0
C1564 C 0.97761 0.49084 0.49118 0.0
C1565 C 0.96035 0.47987 0.48967 0.0
C1566 C 0.92732 0.45916 0.51783 0.0
C1567 C 0.88021 0.4378 0.49673 0.0
C1568 C 0.89946 0.44342 0.49878 0.0
C1569 C 0.95468 0.46975 0.50353 0.0
C1570 C 0.93595 0.45906 0.50217 0.0
H1571 H 0.84576 0.45105 0.47793 0.0
H1572 H 0.87765 0.45833 0.47955 0.0
H1573 H 0.90273 0.45218 0.52828 0.0
H1574 H 0.99311 0.48286 0.53268 0.0
H1575 H 0.96294 0.46309 0.5298 0.0
C1576 C 0.37648 0.08861 0.29259 0.0
C1577 C 0.39442 0.09544 0.29936 0.0
C1578 C 0.3666 0.10116 0.28974 0.0
C1579 C 0.36552 0.15091 0.30089 0.0
H1580 H 0.3341 0.13744 0.25489 0.0
C1581 C 0.32909 0.20205 0.27559 0.0
C1582 C 0.3112 0.19419 0.26881 0.0
C1583 C 0.33972 0.19034 0.27902 0.0
C1584 C 0.3427 0.14131 0.26785 0.0
H1585 H 0.41596 0.12079 0.30921 0.0
H1586 H 0.39864 0.14287 0.30407 0.0
H1587 H 0.35175 0.11656 0.26242 0.0
H1588 H 0.2905 0.16794 0.25991 0.0
H1589 H 0.30912 0.1474 0.26588 0.0
H1590 H 0.35641 0.17569 0.30629 0.0
C1591 C 0.39223 0.12776 0.30108 0.0
C1592 C 0.35279 0.12936 0.27218 0.0
C1593 C 0.40214 0.11514 0.30402 0.0
C1594 C 0.30426 0.17436 0.26502 0.0
C1595 C 0.31492 0.16263 0.26844 0.0
C1596 C 0.35542 0.1629 0.29654 0.0
C1597 C 0.37446 0.12084 0.2935 0.0
C1598 C 0.36418 0.13393 0.28883 0.0
C1599 C 0.3327 0.17053 0.27567 0.0
C1600 C 0.34382 0.15814 0.28003 0.0
H1601 H 0.3701 0.0735 0.28906 0.0
H1602 H 0.35284 0.09542 0.28431 0.0
H1603 H 0.37408 0.15472 0.31387 0.0
H1604 H 0.33487 0.21729 0.27826 0.0
H1605 H 0.35345 0.1968 0.28425 0.0
C1606 C 0.33608 0.13621 0.52006 0.0
C1607 C 0.33285 0.14834 0.50812 0.0
C1608 C 0.35047 0.12867 0.5192 0.0
C1609 C 0.38313 0.11923 0.48883 0.0
H1610 H 0.40781 0.11336 0.53405 0.0
C1611 C 0.43499 0.07672 0.48895 0.0
C1612 C 0.44984 0.08317 0.50249 0.0
C1613 C 0.42112 0.08511 0.48955 0.0
C1614 C 0.40122 0.11503 0.52126 0.0
H1615 H 0.34238 0.16194 0.48581 0.0
H1616 H 0.36757 0.14894 0.48439 0.0
H1617 H 0.38339 0.12736 0.53517 0.0
H1618 H 0.4616 0.10386 0.52723 0.0
H1619 H 0.4375 0.11851 0.52826 0.0
H1620 H 0.40119 0.10722 0.47496 0.0
C1621 C 0.35883 0.14505 0.49433 0.0
C1622 C 0.38699 0.12287 0.52189 0.0
C1623 C 0.34439 0.15261 0.49518 0.0
C1624 C 0.45034 0.0983 0.51668 0.0
C1625 C 0.43645 0.10672 0.51727 0.0
C1626 C 0.39737 0.11138 0.48821 0.0
C1627 C 0.36214 0.13302 0.50639 0.0
C1628 C 0.37764 0.12502 0.50568 0.0
C1629 C 0.4216 0.10026 0.50372 0.0
C1630 C 0.40661 0.10906 0.50441 0.0
H1631 H 0.32748 0.13251 0.53016 0.0
H1632 H 0.3523 0.11921 0.52851 0.0
H1633 H 0.37625 0.12046 0.47603 0.0
H1634 H 0.43389 0.06488 0.47799 0.0
H1635 H 0.40983 0.07942 0.47905 0.0
C1636 C 0.70662 0.59328 0.2943 0.0
C1637 C 0.70975 0.57761 0.28303 0.0
C1638 C 0.71561 0.61237 0.29369 0.0
C1639 C 0.74201 0.64366 0.26407 0.0
H1640 H 0.75314 0.68188 0.30834 0.0
C1641 C 0.77036 0.72649 0.26317 0.0
C1642 C 0.78297 0.73772 0.27796 0.0
C1643 C 0.76136 0.7072 0.26342 0.0
C1644 C 0.75028 0.67154 0.29573 0.0
H1645 H 0.72533 0.57078 0.26203 0.0
H1646 H 0.74085 0.60377 0.2609 0.0
H1647 H 0.7388 0.64887 0.30962 0.0
H1648 H 0.79548 0.73675 0.30476 0.0
H1649 H 0.77991 0.7039 0.30536 0.0
H1650 H 0.75353 0.66647 0.25019 0.0
C1651 C 0.73133 0.60128 0.27036 0.0
C1652 C 0.74177 0.65233 0.29645 0.0
C1653 C 0.72248 0.58211 0.27115 0.0
C1654 C 0.7859 0.72887 0.29306 0.0
C1655 C 0.7768 0.7098 0.29343 0.0
C1656 C 0.75033 0.66297 0.2633 0.0
C1657 C 0.72809 0.61696 0.28157 0.0
C1658 C 0.73744 0.6378 0.28067 0.0
C1659 C 0.76435 0.69833 0.2786 0.0
C1660 C 0.7548 0.67744 0.27914 0.0
H1661 H 0.69692 0.59083 0.30358 0.0
H1662 H 0.71234 0.62361 0.3025 0.0
H1663 H 0.73892 0.63331 0.25145 0.0
H1664 H 0.76763 0.73251 0.2512 0.0
H1665 H 0.75188 0.69927 0.25168 0.0
C1666 C 0.90469 0.49787 0.82028 0.0
C1667 C 0.92102 0.50242 0.81389 0.0
C1668 C 0.89482 0.47898 0.81808 0.0
C1669 C 0.88416 0.43687 0.78527 0.0
H1670 H 0.86514 0.40986 0.8228 0.0
C1671 C 0.84181 0.35907 0.76786 0.0
C1672 C 0.82911 0.3529 0.77909 0.0
C1673 C 0.85316 0.37739 0.77233 0.0
C1674 C 0.87005 0.41731 0.8121 0.0
H1675 H 0.94022 0.49092 0.80095 0.0
H1676 H 0.92256 0.45776 0.79654 0.0
H1677 H 0.8858 0.44141 0.83172 0.0
H1678 H 0.81746 0.36126 0.80303 0.0
H1679 H 0.83652 0.39363 0.81023 0.0
H1680 H 0.86784 0.41354 0.76555 0.0
C1681 C 0.91764 0.46886 0.8035 0.0
C1682 C 0.88204 0.43524 0.81728 0.0
C1683 C 0.92772 0.48774 0.80611 0.0
C1684 C 0.82727 0.36566 0.79425 0.0
C1685 C 0.83835 0.38412 0.79848 0.0
C1686 C 0.87188 0.41916 0.78006 0.0
C1687 C 0.90097 0.46445 0.8091 0.0
C1688 C 0.8892 0.44507 0.80389 0.0
C1689 C 0.85179 0.39006 0.78789 0.0
C1690 C 0.86466 0.40911 0.7934 0.0
H1691 H 0.89928 0.50897 0.82634 0.0
H1692 H 0.88194 0.47582 0.82241 0.0
H1693 H 0.88934 0.44445 0.77474 0.0
H1694 H 0.84362 0.34942 0.75619 0.0
H1695 H 0.86345 0.38128 0.76396 0.0
C1696 C 0.08961 0.86862 0.07747 0.0
C1697 C 0.08426 0.86455 0.09429 0.0
C1698 C 0.08613 0.88397 0.07021 0.0
C1699 C 0.07722 0.93058 0.08329 0.0
H1700 H 0.05932 0.92414 0.03176 0.0
C1701 C 0.07298 0.99457 0.0473 0.0
C1702 C 0.05718 0.99263 0.03603 0.0
C1703 C 0.07636 0.97898 0.0542 0.0
C1704 C 0.0643 0.92622 0.04619 0.0
H1705 H 0.07111 0.8738 0.11666 0.0
H1706 H 0.06542 0.9008 0.10424 0.0
H1707 H 0.06486 0.89713 0.04423 0.0
H1708 H 0.03273 0.9724 0.02294 0.0
H1709 H 0.03883 0.94518 0.0345 0.0
H1710 H 0.07688 0.95973 0.0852 0.0
C1711 C 0.07222 0.89199 0.09659 0.0
C1712 C 0.06759 0.91072 0.05334 0.0
C1713 C 0.07541 0.87641 0.10368 0.0
C1714 C 0.04505 0.9745 0.03153 0.0
C1715 C 0.04857 0.95883 0.03815 0.0
C1716 C 0.07425 0.94617 0.07607 0.0
C1717 C 0.07747 0.89599 0.0797 0.0
C1718 C 0.07402 0.91261 0.07203 0.0
C1719 C 0.06419 0.96086 0.04977 0.0
C1720 C 0.06766 0.94423 0.05742 0.0
H1721 H 0.09643 0.85985 0.0698 0.0
H1722 H 0.0905 0.88662 0.05727 0.0
H1723 H 0.08228 0.93268 0.0977 0.0
H1724 H 0.08263 0.00828 0.05116 0.0
H1725 H 0.0886 0.98111 0.06296 0.0
C1726 C 0.95192 0.26451 0.88376 0.0
C1727 C 0.96674 0.26275 0.8755 0.0
C1728 C 0.93694 0.26626 0.87343 0.0
C1729 C 0.90978 0.27966 0.85148 0.0
H1730 H 0.89749 0.25591 0.80022 0.0
C1731 C 0.85377 0.29414 0.80412 0.0
C1732 C 0.84447 0.27977 0.78936 0.0
C1733 C 0.8683 0.29198 0.81499 0.0
C1734 C 0.90047 0.26248 0.81458 0.0
H1735 H 0.97722 0.26154 0.84965 0.0
H1736 H 0.95146 0.26513 0.83176 0.0
H1737 H 0.92275 0.25166 0.81804 0.0
H1738 H 0.84273 0.25157 0.77495 0.0
H1739 H 0.86736 0.24741 0.79416 0.0
H1740 H 0.88705 0.28983 0.84819 0.0
C1741 C 0.95113 0.26468 0.8462 0.0
C1742 C 0.91531 0.2603 0.82482 0.0
C1743 C 0.96606 0.2627 0.85651 0.0
C1744 C 0.84969 0.26299 0.78612 0.0
C1745 C 0.86402 0.26071 0.79709 0.0
C1746 C 0.89482 0.28168 0.84128 0.0
C1747 C 0.93629 0.26656 0.85447 0.0
C1748 C 0.92029 0.26887 0.84348 0.0
C1749 C 0.87384 0.27528 0.81154 0.0
C1750 C 0.88986 0.27313 0.82262 0.0
H1751 H 0.95184 0.26451 0.89831 0.0
H1752 H 0.92579 0.26721 0.88039 0.0
H1753 H 0.91316 0.28681 0.86567 0.0
H1754 H 0.85015 0.30731 0.80692 0.0
H1755 H 0.87548 0.30369 0.82577 0.0
C1756 C 0.56243 0.24436 0.6014 0.0
C1757 C 0.57743 0.25882 0.60004 0.0
C1758 C 0.5601 0.22554 0.59268 0.0
C1759 C 0.58438 0.19175 0.57926 0.0
H1760 H 0.54192 0.16189 0.54751 0.0
C1761 C 0.57687 0.11345 0.54537 0.0
C1762 C 0.56005 0.10064 0.54103 0.0
C1763 C 0.5791 0.13289 0.5517 0.0
C1764 C 0.55377 0.16977 0.55663 0.0
H1765 H 0.60169 0.26472 0.5883 0.0
H1766 H 0.59785 0.23167 0.57353 0.0
H1767 H 0.54527 0.19521 0.55984 0.0
H1768 H 0.53235 0.09824 0.54039 0.0
H1769 H 0.53614 0.13163 0.55238 0.0
H1770 H 0.59263 0.16637 0.57707 0.0
C1771 C 0.58778 0.23505 0.58113 0.0
C1772 C 0.55572 0.18902 0.56354 0.0
C1773 C 0.5899 0.254 0.58946 0.0
C1774 C 0.54551 0.10772 0.54347 0.0
C1775 C 0.54773 0.12705 0.55021 0.0
C1776 C 0.58227 0.17239 0.57273 0.0
C1777 C 0.57292 0.22058 0.58278 0.0
C1778 C 0.57106 0.20026 0.57491 0.0
C1779 C 0.56457 0.1401 0.55431 0.0
C1780 C 0.56692 0.16097 0.56126 0.0
H1781 H 0.55261 0.24755 0.6095 0.0
H1782 H 0.54855 0.21472 0.59427 0.0
H1783 H 0.59626 0.19998 0.58819 0.0
H1784 H 0.58835 0.10853 0.54345 0.0
H1785 H 0.59228 0.14225 0.55421 0.0
C1786 C 0.57988 0.76941 0.3856 0.0
C1787 C 0.56431 0.77237 0.37764 0.0
C1788 C 0.59448 0.77099 0.3762 0.0
C1789 C 0.60811 0.77094 0.32966 0.0
H1790 H 0.65443 0.79408 0.35719 0.0
C1791 C 0.67145 0.767 0.2987 0.0
C1792 C 0.6864 0.78274 0.30339 0.0
C1793 C 0.65644 0.76651 0.30721 0.0
C1794 C 0.64161 0.78774 0.34921 0.0
H1795 H 0.55204 0.77913 0.35325 0.0
H1796 H 0.57747 0.78195 0.33687 0.0
H1797 H 0.62866 0.79174 0.37285 0.0
H1798 H 0.69697 0.81049 0.32071 0.0
H1799 H 0.67068 0.80976 0.33538 0.0
H1800 H 0.62107 0.76716 0.30597 0.0
C1801 C 0.57834 0.77824 0.3504 0.0
C1802 C 0.62678 0.78616 0.35828 0.0
C1803 C 0.56371 0.77668 0.35983 0.0
C1804 C 0.68572 0.79816 0.31665 0.0
C1805 C 0.67068 0.79765 0.32523 0.0
C1806 C 0.62295 0.77247 0.3206 0.0
C1807 C 0.594 0.77558 0.3585 0.0
C1808 C 0.6098 0.77763 0.34867 0.0
C1809 C 0.65584 0.78175 0.32071 0.0
C1810 C 0.63994 0.7808 0.33025 0.0
H1811 H 0.5809 0.766 0.39926 0.0
H1812 H 0.60613 0.76849 0.38279 0.0
H1813 H 0.59531 0.76416 0.32178 0.0
H1814 H 0.67133 0.75496 0.28838 0.0
H1815 H 0.6454 0.75394 0.30344 0.0
C1816 C 0.09756 0.2533 0.41076 0.0
C1817 C 0.09453 0.2708 0.41738 0.0
C1818 C 0.09754 0.23998 0.42217 0.0
C1819 C 0.10293 0.21604 0.45053 0.0
H1820 H 0.06707 0.21061 0.48264 0.0
C1821 C 0.09295 0.15933 0.49696 0.0
C1822 C 0.07559 0.15011 0.49867 0.0
C1823 C 0.09665 0.17513 0.48835 0.0
C1824 C 0.07706 0.21183 0.47366 0.0
H1825 H 0.09018 0.28852 0.44151 0.0
H1826 H 0.09065 0.26551 0.46159 0.0
H1827 H 0.07163 0.23629 0.46529 0.0
H1828 H 0.04846 0.14991 0.49248 0.0
H1829 H 0.0548 0.17716 0.47704 0.0
H1830 H 0.10771 0.19095 0.45818 0.0
C1831 C 0.09252 0.26183 0.44741 0.0
C1832 C 0.0799 0.22678 0.46391 0.0
C1833 C 0.09237 0.27509 0.43593 0.0
C1834 C 0.06198 0.15691 0.49153 0.0
C1835 C 0.06565 0.17258 0.48277 0.0
C1836 C 0.09999 0.20098 0.46017 0.0
C1837 C 0.09466 0.24392 0.44055 0.0
C1838 C 0.09273 0.22895 0.45206 0.0
C1839 C 0.08304 0.18194 0.48113 0.0
C1840 C 0.08686 0.19855 0.47166 0.0
H1841 H 0.09923 0.24952 0.39651 0.0
H1842 H 0.09901 0.22627 0.41633 0.0
H1843 H 0.11309 0.21742 0.44173 0.0
H1844 H 0.10371 0.15451 0.50256 0.0
H1845 H 0.1102 0.18215 0.48757 0.0
C1846 C 0.54811 0.25186 0.21582 0.0
C1847 C 0.54528 0.25907 0.19973 0.0
C1848 C 0.56495 0.25623 0.22552 0.0
C1849 C 0.61053 0.28732 0.22912 0.0
H1850 H 0.62342 0.24223 0.23842 0.0
C1851 C 0.67962 0.27863 0.22644 0.0
C1852 C 0.68613 0.26842 0.23855 0.0
C1853 C 0.66264 0.28044 0.2264 0.0
C1854 C 0.62002 0.25508 0.23631 0.0
H1855 H 0.55773 0.27757 0.18192 0.0
H1856 H 0.58698 0.28489 0.19854 0.0
H1857 H 0.59275 0.2405 0.2304 0.0
H1858 H 0.68024 0.25299 0.26079 0.0
H1859 H 0.65044 0.25596 0.26054 0.0
H1860 H 0.63798 0.30161 0.23416 0.0
C1861 C 0.57624 0.27601 0.20384 0.0
C1862 C 0.60241 0.25409 0.23174 0.0
C1863 C 0.55944 0.27166 0.19417 0.0
C1864 C 0.67548 0.26061 0.25104 0.0
C1865 C 0.65846 0.26238 0.25097 0.0
C1866 C 0.62817 0.28828 0.23363 0.0
C1867 C 0.57927 0.26793 0.21932 0.0
C1868 C 0.59751 0.27004 0.22751 0.0
C1869 C 0.65178 0.27206 0.23845 0.0
C1870 C 0.63311 0.27201 0.23671 0.0
H1871 H 0.53744 0.24224 0.22057 0.0
H1872 H 0.56685 0.25 0.23754 0.0
H1873 H 0.60714 0.29994 0.22626 0.0
H1874 H 0.68741 0.28463 0.2165 0.0
H1875 H 0.65777 0.28771 0.21638 0.0
C1876 C 0.60457 0.8758 0.93066 0.0
C1877 C 0.59328 0.86772 0.91413 0.0
C1878 C 0.60363 0.89276 0.94103 0.0
C1879 C 0.58596 0.93419 0.93879 0.0
H1880 H 0.58842 0.93692 0.99147 0.0
C1881 C 0.55946 0.98586 0.98677 0.0
C1882 C 0.56919 0.99393 1.00413 0.0
C1883 C 0.5647 0.97252 0.97491 0.0
C1884 C 0.58799 0.93651 0.97681 0.0
H1885 H 0.57226 0.87119 0.89542 0.0
H1886 H 0.5703 0.9005 0.91377 0.0
H1887 H 0.59308 0.9094 0.97249 0.0
H1888 H 0.59239 0.99521 0.02248 0.0
H1889 H 0.60152 0.97178 1.00179 0.0
H1890 H 0.58025 0.96111 0.94319 0.0
C1891 C 0.58014 0.89396 0.91853 0.0
C1892 C 0.59068 0.92075 0.96592 0.0
C1893 C 0.58117 0.87707 0.90808 0.0
C1894 C 0.58459 0.98904 0.0092 0.0
C1895 C 0.58979 0.97564 0.9974 0.0
C1896 C 0.58315 0.94993 0.94969 0.0
C1897 C 0.59129 0.90194 0.93518 0.0
C1898 C 0.58951 0.9193 0.94677 0.0
C1899 C 0.5797 0.96697 0.98031 0.0
C1900 C 0.58399 0.95114 0.96879 0.0
H1901 H 0.61416 0.86904 0.93561 0.0
H1902 H 0.61259 0.89869 0.95365 0.0
H1903 H 0.58526 0.93364 0.9241 0.0
H1904 H 0.54747 0.98932 0.9826 0.0
H1905 H 0.55659 0.96592 0.96189 0.0
C1906 C 0.9463 0.73131 0.70617 0.0
C1907 C 0.95667 0.74343 0.69621 0.0
C1908 C 0.93288 0.73654 0.7145 0.0
C1909 C 0.90569 0.7704 0.71471 0.0
H1910 H 0.89756 0.75724 0.76231 0.0
C1911 C 0.8606 0.80096 0.7587 0.0
C1912 C 0.84734 0.78735 0.76436 0.0
C1913 C 0.87462 0.79587 0.75154 0.0
C1914 C 0.89968 0.76093 0.74899 0.0
H1915 H 0.9611 0.77046 0.68704 0.0
H1916 H 0.93802 0.77991 0.70203 0.0
H1917 H 0.92048 0.74778 0.74691 0.0
H1918 H 0.83887 0.75798 0.76794 0.0
H1919 H 0.86364 0.7492 0.7557 0.0
H1920 H 0.8851 0.78392 0.71708 0.0
C1921 C 0.93993 0.76614 0.70307 0.0
C1922 C 0.91271 0.75543 0.74009 0.0
C1923 C 0.95322 0.76077 0.69452 0.0
C1924 C 0.84886 0.76878 0.76364 0.0
C1925 C 0.86304 0.76375 0.75668 0.0
C1926 C 0.89283 0.77611 0.72373 0.0
C1927 C 0.92967 0.75414 0.71328 0.0
C1928 C 0.91584 0.76004 0.72279 0.0
C1929 C 0.87578 0.77714 0.75014 0.0
C1930 C 0.8897 0.77139 0.74092 0.0
H1931 H 0.94859 0.71777 0.70759 0.0
H1932 H 0.925 0.72675 0.72188 0.0
H1933 H 0.90747 0.77389 0.70127 0.0
H1934 H 0.85981 0.81539 0.75907 0.0
H1935 H 0.88441 0.80649 0.74678 0.0
C1936 C 0.12508 0.04472 0.84048 0.0
C1937 C 0.13474 0.03166 0.8351 0.0
C1938 C 0.11734 0.04521 0.85713 0.0
C1939 C 0.10604 0.01723 0.89683 0.0
H1940 H 0.09528 0.06279 0.9192 0.0
C1941 C 0.06712 0.01694 0.96173 0.0
C1942 C 0.06816 0.03375 0.97429 0.0
C1943 C 0.0753 0.01703 0.94544 0.0
C1944 C 0.09819 0.04982 0.91347 0.0
H1945 H 0.14341 0.00882 0.84432 0.0
H1946 H 0.13036 0.00968 0.8728 0.0
H1947 H 0.10882 0.06233 0.89112 0.0
H1948 H 0.07939 0.06418 0.97849 0.0
H1949 H 0.09366 0.06447 0.95056 0.0
H1950 H 0.09576 1.00481 0.9193 0.0
C1951 C 0.12839 0.01959 0.86408 0.0
C1952 C 0.10596 0.04946 0.89682 0.0
C1953 C 0.13614 0.01913 0.84745 0.0
C1954 C 0.07804 0.05078 0.96954 0.0
C1955 C 0.08625 0.05091 0.95313 0.0
C1956 C 0.09824 0.01757 0.91342 0.0
C1957 C 0.11869 0.03266 0.86958 0.0
C1958 C 0.11018 0.03314 0.88785 0.0
C1959 C 0.08516 0.03399 0.94045 0.0
C1960 C 0.09397 0.03385 0.92237 0.0
H1961 H 0.12344 0.05474 0.83174 0.0
H1962 H 0.11002 0.05548 0.86003 0.0
H1963 H 0.10859 1.00411 0.89095 0.0
H1964 H 0.05972 1.00338 0.9644 0.0
H1965 H 0.07348 1.00352 0.93654 0.0
C1966 C 0.77008 0.39103 0.54924 0.0
C1967 C 0.77844 0.4096 0.54711 0.0
C1968 C 0.77238 0.38547 0.56614 0.0
C1969 C 0.78554 0.397 0.61482 0.0
H1970 H 0.81138 0.35947 0.60605 0.0
C1971 C 0.81303 0.36314 0.6726 0.0
C1972 C 0.81037 0.3434 0.66802 0.0
C1973 C 0.8096 0.37347 0.6591 0.0
C1974 C 0.80408 0.36982 0.60873 0.0
H1975 H 0.79391 0.43752 0.56156 0.0
H1976 H 0.79776 0.42765 0.59127 0.0
H1977 H 0.802 0.37352 0.58077 0.0
H1978 H 0.8015 0.31891 0.64597 0.0
H1979 H 0.79549 0.33676 0.6226 0.0
H1980 H 0.78709 0.39274 0.64275 0.0
C1981 C 0.78962 0.41748 0.57973 0.0
C1982 C 0.79876 0.37786 0.59429 0.0
C1983 C 0.78742 0.42306 0.56273 0.0
C1984 C 0.80412 0.33418 0.64982 0.0
C1985 C 0.80066 0.34442 0.63643 0.0
C1986 C 0.7907 0.38873 0.62935 0.0
C1987 C 0.78287 0.39842 0.58123 0.0
C1988 C 0.78915 0.39118 0.59713 0.0
C1989 C 0.80344 0.36418 0.64086 0.0
C1990 C 0.79967 0.37472 0.6263 0.0
H1991 H 0.76288 0.38037 0.53756 0.0
H1992 H 0.76696 0.37071 0.56714 0.0
H1993 H 0.77824 0.4074 0.61723 0.0
H1994 H 0.81788 0.37059 0.68655 0.0
H1995 H 0.81195 0.3887 0.66288 0.0
C1996 C 0.50394 0.07957 0.34907 0.0
C1997 C 0.48739 0.08299 0.34757 0.0
C1998 C 0.5142 0.08324 0.36614 0.0
C1999 C 0.50676 0.0816 0.41313 0.0
H2000 H 0.55741 0.09284 0.42185 0.0
C2001 C 0.56395 0.078 0.4727 0.0
C2002 C 0.55625 0.05963 0.47576 0.0
C2003 C 0.55653 0.08491 0.45835 0.0
C2004 C 0.54328 0.08993 0.41974 0.0
H2005 H 0.46933 0.09465 0.36245 0.0
H2006 H 0.48733 0.10112 0.39239 0.0
H2007 H 0.54334 0.10062 0.39454 0.0
H2008 H 0.5354 0.03372 0.4659 0.0
H2009 H 0.5224 0.04573 0.44087 0.0
H2010 H 0.50664 0.07039 0.438 0.0
C2011 C 0.49224 0.09537 0.38036 0.0
C2012 C 0.53523 0.09429 0.40409 0.0
C2013 C 0.48199 0.09177 0.36321 0.0
C2014 C 0.5414 0.04805 0.46396 0.0
C2015 C 0.53392 0.05497 0.44974 0.0
C2016 C 0.51479 0.07719 0.42871 0.0
C2017 C 0.50809 0.09036 0.38208 0.0
C2018 C 0.51685 0.08962 0.40033 0.0
C2019 C 0.54128 0.07355 0.44692 0.0
C2020 C 0.53308 0.08072 0.43184 0.0
H2021 H 0.50853 0.07296 0.33722 0.0
H2022 H 0.52628 0.07911 0.36697 0.0
H2023 H 0.49258 0.07764 0.41059 0.0
H2024 H 0.57545 0.08718 0.48164 0.0
H2025 H 0.56248 0.09926 0.45645 0.0
C2026 C 0.79094 0.73543 0.06245 0.0
C2027 C 0.79695 0.71924 0.05803 0.0
C2028 C 0.79173 0.74397 0.0809 0.0
C2029 C 0.81248 0.74518 0.12882 0.0
H2030 H 0.77412 0.76447 0.14353 0.0
C2031 C 0.81362 0.78007 0.20435 0.0
C2032 C 0.79778 0.77691 0.21187 0.0
C2033 C 0.81378 0.7746 0.18547 0.0
C2034 C 0.78491 0.75902 0.13975 0.0
H2035 H 0.80883 0.6997 0.0699 0.0
H2036 H 0.80997 0.71422 0.10156 0.0
H2037 H 0.77419 0.75217 0.11122 0.0
H2038 H 0.7696 0.76553 0.20507 0.0
H2039 H 0.76988 0.75561 0.17231 0.0
H2040 H 0.82287 0.75124 0.15731 0.0
C2041 C 0.80488 0.72064 0.09092 0.0
C2042 C 0.78507 0.75219 0.12107 0.0
C2043 C 0.80413 0.71217 0.07259 0.0
C2044 C 0.78207 0.76831 0.19984 0.0
C2045 C 0.78224 0.76269 0.18094 0.0
C2046 C 0.81227 0.7519 0.14746 0.0
C2047 C 0.79856 0.73659 0.09547 0.0
C2048 C 0.7988 0.74499 0.11529 0.0
C2049 C 0.79812 0.7656 0.17343 0.0
C2050 C 0.79844 0.75886 0.15331 0.0
H2051 H 0.78527 0.74128 0.05169 0.0
H2052 H 0.78693 0.75637 0.08372 0.0
H2053 H 0.82345 0.74008 0.12506 0.0
H2054 H 0.826 0.78677 0.21307 0.0
H2055 H 0.82628 0.77753 0.18034 0.0
C2056 C 0.15047 0.01359 0.70911 0.0
C2057 C 0.14217 0.01467 0.72514 0.0
C2058 C 0.14225 0.0148 0.69166 0.0
C2059 C 0.09842 0.00943 0.66324 0.0
H2060 H 0.12635 0.03854 0.63204 0.0
C2061 C 0.07216 0.00907 0.58481 0.0
C2062 C 0.07644 0.02639 0.57813 0.0
C2063 C 0.07953 0.00744 0.60258 0.0
C2064 C 0.11818 0.03031 0.64043 0.0
H2065 H 0.11788 0.01773 0.73425 0.0
H2066 H 0.10338 0.01904 0.70393 0.0
H2067 H 0.13976 0.03603 0.66222 0.0
H2068 H 0.09249 0.05553 0.58583 0.0
H2069 H 0.10554 0.05258 0.61601 0.0
H2070 H 0.07693 1.00339 0.6412 0.0
C2071 C 0.11652 0.01743 0.70495 0.0
C2072 C 0.12601 0.02874 0.65795 0.0
C2073 C 0.12494 0.01667 0.72257 0.0
C2074 C 0.08862 0.04189 0.5901 0.0
C2075 C 0.09628 0.04015 0.60762 0.0
C2076 C 0.09068 0.01061 0.64549 0.0
C2077 C 0.12504 0.01677 0.68902 0.0
C2078 C 0.11637 0.01835 0.66995 0.0
C2079 C 0.09192 0.02291 0.61445 0.0
C2080 C 0.10031 0.0212 0.6336 0.0
H2081 H 0.1637 0.01222 0.71006 0.0
H2082 H 0.14948 0.01402 0.68009 0.0
H2083 H 0.09031 1.00117 0.67165 0.0
H2084 H 0.06292 0.99667 0.57634 0.0
H2085 H 0.07568 0.99382 0.60687 0.0
C2086 C 0.77135 0.35042 0.44329 0.0
C2087 C 0.77356 0.37009 0.44549 0.0
C2088 C 0.77111 0.33978 0.42604 0.0
C2089 C 0.76939 0.34204 0.37613 0.0
H2090 H 0.79665 0.30558 0.37623 0.0
C2091 C 0.79735 0.31519 0.31235 0.0
C2092 C 0.79345 0.29537 0.30714 0.0
C2093 C 0.79427 0.32321 0.32949 0.0
C2094 C 0.78888 0.31559 0.37602 0.0
H2095 H 0.77633 0.39391 0.43124 0.0
H2096 H 0.77639 0.37555 0.40127 0.0
H2097 H 0.79078 0.32128 0.40526 0.0
H2098 H 0.78431 0.26845 0.31607 0.0
H2099 H 0.77932 0.28261 0.3464 0.0
H2100 H 0.76817 0.33683 0.34686 0.0
C2101 C 0.7745 0.36816 0.41273 0.0
C2102 C 0.78539 0.32452 0.39263 0.0
C2103 C 0.7745 0.37874 0.42995 0.0
C2104 C 0.78738 0.28377 0.31977 0.0
C2105 C 0.78452 0.29184 0.33706 0.0
C2106 C 0.77309 0.33331 0.35957 0.0
C2107 C 0.77333 0.34865 0.41066 0.0
C2108 C 0.77574 0.33801 0.3929 0.0
C2109 C 0.78749 0.3116 0.34185 0.0
C2110 C 0.78303 0.32017 0.35939 0.0
H2111 H 0.77044 0.34333 0.45502 0.0
H2112 H 0.76971 0.32471 0.42488 0.0
H2113 H 0.76165 0.35205 0.37576 0.0
H2114 H 0.80212 0.32449 0.30292 0.0
H2115 H 0.79695 0.33851 0.33299 0.0
C2116 C 0.43231 0.04919 0.23363 0.0
C2117 C 0.44625 0.05182 0.24772 0.0
C2118 C 0.43337 0.04121 0.21565 0.0
C2119 C 0.4477 0.03447 0.17793 0.0
H2120 H 0.46116 0.98742 0.17333 0.0
C2121 C 0.49311 0.9996 0.1334 0.0
C2122 C 0.48784 1.00268 0.11584 0.0
C2123 C 0.48261 1.00074 0.14719 0.0
C2124 C 0.45726 1.00046 0.17434 0.0
H2125 H 0.47246 0.04887 0.25387 0.0
H2126 H 0.47414 0.03478 0.22256 0.0
H2127 H 0.45405 1.00104 0.20264 0.0
H2128 H 0.4667 0.00774 0.09855 0.0
H2129 H 0.44832 0.00996 0.1229 0.0
H2130 H 0.45222 0.03476 0.15009 0.0
C2131 C 0.46242 0.03884 0.2255 0.0
C2132 C 0.4532 0.00821 0.19107 0.0
C2133 C 0.46152 0.04708 0.24335 0.0
C2134 C 0.47125 1.00564 0.11205 0.0
C2135 C 0.46072 1.00686 0.12594 0.0
C2136 C 0.45199 0.02683 0.1612 0.0
C2137 C 0.44822 0.03546 0.21163 0.0
C2138 C 0.4491 0.02564 0.19316 0.0
C2139 C 0.46658 1.00504 0.14381 0.0
C2140 C 0.45758 0.0102 0.15952 0.0
H2141 H 0.42039 0.05275 0.23661 0.0
H2142 H 0.42235 0.03884 0.20506 0.0
H2143 H 0.44451 0.04792 0.1793 0.0
H2144 H 0.50591 0.99762 0.13694 0.0
H2145 H 0.4877 0.9996 0.16086 0.0
C2146 C 0.78163 0.73729 0.95113 0.0
C2147 C 0.78787 0.72174 0.95426 0.0
C2148 C 0.78385 0.74474 0.93492 0.0
C2149 C 0.79087 0.73265 0.8864 0.0
H2150 H 0.80629 0.7872 0.8892 0.0
C2151 C 0.79047 0.76996 0.8219 0.0
C2152 C 0.80539 0.78493 0.82146 0.0
C2153 C 0.78835 0.76158 0.83766 0.0
C2154 C 0.802 0.77192 0.88812 0.0
H2155 H 0.80125 0.7018 0.94243 0.0
H2156 H 0.80482 0.71455 0.91404 0.0
H2157 H 0.80274 0.77413 0.91732 0.0
H2158 H 0.82982 0.80259 0.83736 0.0
H2159 H 0.82596 0.78836 0.86476 0.0
H2160 H 0.78997 0.73051 0.85712 0.0
C2161 C 0.79827 0.72106 0.92422 0.0
C2162 C 0.79984 0.76441 0.90429 0.0
C2163 C 0.79633 0.71381 0.9406 0.0
C2164 C 0.81814 0.79115 0.83715 0.0
C2165 C 0.81588 0.78303 0.85296 0.0
C2166 C 0.79273 0.74019 0.87016 0.0
C2167 C 0.79211 0.73669 0.92113 0.0
C2168 C 0.79433 0.74465 0.90373 0.0
C2169 C 0.80092 0.76817 0.85354 0.0
C2170 C 0.79845 0.75996 0.87077 0.0
H2171 H 0.77503 0.74379 0.96126 0.0
H2172 H 0.7788 0.75667 0.93305 0.0
H2173 H 0.78648 0.71738 0.88535 0.0
H2174 H 0.78038 0.76481 0.81011 0.0
H2175 H 0.77663 0.75023 0.83757 0.0
C2176 C 0.8346 0.10867 0.00513 0.0
C2177 C 0.83067 0.10517 0.02253 0.0
C2178 C 0.84557 0.09959 0.996 0.0
C2179 C 0.86585 0.0597 0.99664 0.0
H2180 H 0.90314 0.09173 0.97638 0.0
C2181 C 0.92368 0.03273 0.97613 0.0
C2182 C 0.9402 0.04555 0.9829 0.0
C2183 C 0.90859 0.03899 0.97558 0.0
C2184 C 0.89279 0.08257 0.98194 0.0
H2185 H 0.83476 0.08907 0.04378 0.0
H2186 H 0.85405 0.07358 0.02812 0.0
H2187 H 0.87935 0.10404 0.98632 0.0
H2188 H 0.95392 0.07525 0.99298 0.0
H2189 H 0.92765 0.08601 0.99281 0.0
H2190 H 0.87984 0.03874 0.99354 0.0
C2191 C 0.84847 0.08304 0.0213 0.0
C2192 C 0.87903 0.08955 0.98743 0.0
C2193 C 0.83752 0.09207 0.03039 0.0
C2194 C 0.94137 0.06492 0.98808 0.0
C2195 C 0.92628 0.07115 0.98769 0.0
C2196 C 0.87965 0.05279 0.9913 0.0
C2197 C 0.85279 0.08683 1.0041 0.0
C2198 C 0.86571 0.07841 0.99542 0.0
C2199 C 0.90966 0.05818 0.98191 0.0
C2200 C 0.89359 0.06436 0.98444 0.0
H2201 H 0.82944 0.11864 0.99868 0.0
H2202 H 0.84851 0.10267 0.98269 0.0
H2203 H 0.8556 0.05062 1.00239 0.0
H2204 H 0.92229 0.0177 0.97205 0.0
H2205 H 0.89602 0.02867 0.97075 0.0
C2206 C 0.38063 0.42186 0.04356 0.0
C2207 C 0.36689 0.43057 0.04314 0.0
C2208 C 0.39793 0.43228 0.04325 0.0
C2209 C 0.42451 0.47424 0.02837 0.0
H2210 H 0.46213 0.46918 0.06253 0.0
C2211 C 0.49839 0.50278 0.02105 0.0
C2212 C 0.50931 0.5137 0.03703 0.0
C2213 C 0.48108 0.49257 0.02186 0.0
C2214 C 0.45178 0.47076 0.05291 0.0
H2215 H 0.36074 0.45723 0.04197 0.0
H2216 H 0.39102 0.4754 0.041 0.0
H2217 H 0.43177 0.4521 0.06408 0.0
H2218 H 0.51079 0.52196 0.06644 0.0
H2219 H 0.48077 0.50372 0.06795 0.0
H2220 H 0.44459 0.49267 0.01701 0.0
C2221 C 0.3883 0.46045 0.0417 0.0
C2222 C 0.43439 0.46091 0.05374 0.0
C2223 C 0.37097 0.45006 0.04236 0.0
C2224 C 0.5027 0.5137 0.0539 0.0
C2225 C 0.48551 0.50322 0.05476 0.0
C2226 C 0.44195 0.48382 0.02732 0.0
C2227 C 0.40201 0.45168 0.0422 0.0
C2228 C 0.42051 0.46255 0.04152 0.0
C2229 C 0.47438 0.49273 0.03873 0.0
C2230 C 0.45582 0.48225 0.03961 0.0
H2231 H 0.37805 0.4069 0.0442 0.0
H2232 H 0.40812 0.42504 0.04351 0.0
H2233 H 0.41416 0.4757 0.01867 0.0
H2234 H 0.50309 0.50249 0.00784 0.0
H2235 H 0.47292 0.48448 0.00929 0.0
C2236 C 0.39591 0.62446 0.7618 0.0
C2237 C 0.39179 0.60943 0.74639 0.0
C2238 C 0.38815 0.64 0.76292 0.0
C2239 C 0.3514 0.65801 0.73862 0.0
H2240 H 0.37304 0.70455 0.77335 0.0
C2241 C 0.31642 0.72103 0.74714 0.0
C2242 C 0.32567 0.74002 0.75535 0.0
C2243 C 0.32434 0.70565 0.74617 0.0
C2244 C 0.36659 0.69188 0.76334 0.0
H2245 H 0.37561 0.60015 0.71989 0.0
H2246 H 0.36255 0.62667 0.72156 0.0
H2247 H 0.38646 0.67849 0.77126 0.0
H2248 H 0.3514 0.75667 0.76894 0.0
H2249 H 0.36507 0.73057 0.76711 0.0
H2250 H 0.33177 0.67152 0.73036 0.0
C2251 C 0.37165 0.62657 0.73323 0.0
C2252 C 0.37441 0.67638 0.76226 0.0
C2253 C 0.37939 0.61102 0.73215 0.0
C2254 C 0.34343 0.74258 0.76252 0.0
C2255 C 0.3514 0.72719 0.76151 0.0
C2256 C 0.3436 0.6735 0.73967 0.0
C2257 C 0.3757 0.6417 0.74867 0.0
C2258 C 0.36713 0.65879 0.74986 0.0
C2259 C 0.34217 0.70808 0.75328 0.0
C2260 C 0.35085 0.69107 0.75209 0.0
H2261 H 0.40523 0.62424 0.77326 0.0
H2262 H 0.39192 0.65062 0.77532 0.0
H2263 H 0.34473 0.64521 0.72888 0.0
H2264 H 0.3028 0.7179 0.74138 0.0
H2265 H 0.31613 0.69166 0.7399 0.0
C2266 C 0.22994 0.63049 0.52754 0.0
C2267 C 0.241 0.61992 0.53346 0.0
C2268 C 0.21184 0.6229 0.52486 0.0
C2269 C 0.17674 0.58656 0.53798 0.0
H2270 H 0.14887 0.59743 0.49753 0.0
C2271 C 0.1024 0.57161 0.53461 0.0
C2272 C 0.09227 0.56325 0.51749 0.0
C2273 C 0.12049 0.57899 0.53587 0.0
C2274 C 0.15646 0.59412 0.50879 0.0
H2275 H 0.24175 0.59302 0.54114 0.0
H2276 H 0.20993 0.57956 0.5362 0.0
H2277 H 0.18071 0.60785 0.50041 0.0
H2278 H 0.09296 0.55665 0.48818 0.0
H2279 H 0.12459 0.56926 0.49042 0.0
H2280 H 0.15253 0.57241 0.5461 0.0
C2281 C 0.21535 0.59387 0.53387 0.0
C2282 C 0.1747 0.60026 0.51056 0.0
C2283 C 0.23355 0.60154 0.53666 0.0
C2284 C 0.10043 0.56312 0.50156 0.0
C2285 C 0.11856 0.57035 0.50284 0.0
C2286 C 0.15852 0.58032 0.53615 0.0
C2287 C 0.20433 0.60449 0.52792 0.0
C2288 C 0.18503 0.59676 0.52531 0.0
C2289 C 0.12882 0.57797 0.52006 0.0
C2290 C 0.14818 0.58426 0.52168 0.0
H2291 H 0.23523 0.64476 0.52505 0.0
H2292 H 0.20372 0.63161 0.52066 0.0
H2293 H 0.18432 0.58376 0.54956 0.0
H2294 H 0.09643 0.57206 0.5471 0.0
H2295 H 0.12798 0.58522 0.54928 0.0
C2296 C 0.69137 0.97908 0.73271 0.0
C2297 C 0.68362 0.98997 0.74467 0.0
C2298 C 0.70021 0.96694 0.73921 0.0
C2299 C 0.72452 0.96028 0.78038 0.0
H2300 H 0.7215 0.91183 0.75001 0.0
C2301 C 0.76757 0.91014 0.79631 0.0
C2302 C 0.77523 0.90373 0.78119 0.0
C2303 C 0.75492 0.91994 0.79404 0.0
C2304 C 0.72245 0.92531 0.75865 0.0
H2305 H 0.6788 0.99651 0.77282 0.0
H2306 H 0.69446 0.97519 0.78427 0.0
H2307 H 0.70088 0.92955 0.74217 0.0
H2308 H 0.77632 0.90343 0.75212 0.0
H2309 H 0.75417 0.92025 0.74817 0.0
H2310 H 0.74646 0.95613 0.79658 0.0
C2311 C 0.69365 0.97614 0.76985 0.0
C2312 C 0.71066 0.93543 0.75418 0.0
C2313 C 0.68466 0.98826 0.76328 0.0
C2314 C 0.7704 0.90781 0.76394 0.0
C2315 C 0.75771 0.91742 0.76167 0.0
C2316 C 0.73631 0.95006 0.78491 0.0
C2317 C 0.70155 0.96542 0.75785 0.0
C2318 C 0.71197 0.95332 0.7646 0.0
C2319 C 0.74965 0.92331 0.77661 0.0
C2320 C 0.73573 0.93282 0.77368 0.0
H2321 H 0.69081 0.98007 0.7183 0.0
H2322 H 0.70642 0.95911 0.72969 0.0
H2323 H 0.72587 0.97407 0.78861 0.0
H2324 H 0.77092 0.90705 0.80973 0.0
H2325 H 0.74889 0.92437 0.80577 0.0
C2326 C 0.75849 0.92877 0.53227 0.0
C2327 C 0.77303 0.93784 0.54578 0.0
C2328 C 0.74408 0.93632 0.53036 0.0
C2329 C 0.73115 0.9812 0.54187 0.0
H2330 H 0.68375 0.94803 0.53353 0.0
C2331 C 0.67166 0.01163 0.54846 0.0
C2332 C 0.65602 1.00298 0.53634 0.0
C2333 C 0.68554 1.00326 0.54902 0.0
C2334 C 0.69688 0.95754 0.53561 0.0
H2335 H 0.7837 0.96211 0.5678 0.0
H2336 H 0.75879 0.97522 0.56446 0.0
H2337 H 0.70857 0.93444 0.53522 0.0
H2338 H 0.64285 0.97842 0.51538 0.0
H2339 H 0.66709 0.96386 0.51624 0.0
H2340 H 0.7196 1.00428 0.54218 0.0
C2341 C 0.7585 0.96233 0.55521 0.0
C2342 C 0.71116 0.9497 0.5366 0.0
C2343 C 0.77281 0.95473 0.55719 0.0
C2344 C 0.6546 0.98546 0.52499 0.0
C2345 C 0.66856 0.97709 0.52551 0.0
C2346 C 0.71691 0.98901 0.54081 0.0
C2347 C 0.74387 0.95325 0.5418 0.0
C2348 C 0.72853 0.96144 0.53993 0.0
C2349 C 0.68433 0.98594 0.53745 0.0
C2350 C 0.69951 0.97735 0.53787 0.0
H2351 H 0.75816 0.91572 0.52324 0.0
H2352 H 0.73317 0.92899 0.51976 0.0
H2353 H 0.74428 0.99072 0.54408 0.0
H2354 H 0.67317 0.02488 0.55772 0.0
H2355 H 0.6972 0.01035 0.55876 0.0
C2356 C 0.40099 0.49282 0.7695 0.0
C2357 C 0.39501 0.50407 0.75792 0.0
C2358 C 0.39132 0.474 0.77002 0.0
C2359 C 0.35444 0.4319 0.74367 0.0
H2360 H 0.35842 0.41216 0.78872 0.0
C2361 C 0.31254 0.3546 0.74841 0.0
C2362 C 0.31806 0.34422 0.76115 0.0
C2363 C 0.32165 0.3737 0.74814 0.0
C2364 C 0.3572 0.41708 0.77582 0.0
H2365 H 0.37334 0.50319 0.73769 0.0
H2366 H 0.35645 0.47048 0.73857 0.0
H2367 H 0.3736 0.44502 0.78805 0.0
H2368 H 0.33824 0.3467 0.78364 0.0
H2369 H 0.35433 0.37966 0.78303 0.0
H2370 H 0.33824 0.40396 0.73135 0.0
C2371 C 0.3689 0.47634 0.74734 0.0
C2372 C 0.36605 0.43631 0.77544 0.0
C2373 C 0.37859 0.4954 0.74693 0.0
C2374 C 0.33335 0.35394 0.77359 0.0
C2375 C 0.34259 0.37315 0.77328 0.0
C2376 C 0.34567 0.41263 0.74402 0.0
C2377 C 0.37505 0.46509 0.75889 0.0
C2378 C 0.36496 0.44431 0.75935 0.0
C2379 C 0.33698 0.38364 0.76054 0.0
C2380 C 0.34675 0.40459 0.76012 0.0
H2381 H 0.41348 0.49851 0.77823 0.0
H2382 H 0.39699 0.46625 0.77897 0.0
H2383 H 0.35323 0.43693 0.73082 0.0
H2384 H 0.30087 0.34795 0.73857 0.0
H2385 H 0.3163 0.38074 0.73824 0.0
C2386 C 0.18819 0.59922 0.23255 0.0
C2387 C 0.19612 0.58442 0.22903 0.0
C2388 C 0.19809 0.61809 0.23509 0.0
C2389 C 0.22371 0.65519 0.25336 0.0
H2390 H 0.25938 0.6737 0.22346 0.0
C2391 C 0.26987 0.73161 0.27039 0.0
C2392 C 0.27282 0.74091 0.25539 0.0
C2393 C 0.26117 0.71223 0.2675 0.0
C2394 C 0.24941 0.66873 0.23189 0.0
H2395 H 0.22048 0.57773 0.22458 0.0
H2396 H 0.23792 0.6109 0.22918 0.0
H2397 H 0.24255 0.64033 0.21665 0.0
H2398 H 0.26864 0.73725 0.22561 0.0
H2399 H 0.25332 0.70371 0.22068 0.0
H2400 H 0.23017 0.68367 0.26826 0.0
C2401 C 0.22399 0.60782 0.22986 0.0
C2402 C 0.23991 0.6496 0.22809 0.0
C2403 C 0.21402 0.58886 0.22721 0.0
C2404 C 0.26672 0.73052 0.2375 0.0
C2405 C 0.25804 0.71123 0.23464 0.0
C2406 C 0.23318 0.6743 0.25714 0.0
C2407 C 0.21617 0.62261 0.23428 0.0
C2408 C 0.2268 0.6427 0.23865 0.0
C2409 C 0.25527 0.70184 0.24957 0.0
C2410 C 0.24598 0.68132 0.24631 0.0
H2411 H 0.17436 0.59626 0.23382 0.0
H2412 H 0.19161 0.62917 0.238 0.0
H2413 H 0.2139 0.6502 0.26196 0.0
H2414 H 0.27446 0.7392 0.28433 0.0
H2415 H 0.25931 0.70532 0.27928 0.0
C2416 C 0.5227 0.70441 0.43895 0.0
C2417 C 0.53201 0.72273 0.44844 0.0
C2418 C 0.52344 0.68815 0.44632 0.0
C2419 C 0.53042 0.67039 0.48908 0.0
H2420 H 0.546 0.6313 0.46014 0.0
C2421 C 0.52847 0.59525 0.50792 0.0
C2422 C 0.54474 0.59104 0.50871 0.0
C2423 C 0.5262 0.61128 0.50096 0.0
C2424 C 0.54155 0.64204 0.46836 0.0
H2425 H 0.54901 0.73817 0.47345 0.0
H2426 H 0.54965 0.70989 0.48661 0.0
H2427 H 0.54289 0.65907 0.44726 0.0
H2428 H 0.57125 0.60038 0.50237 0.0
H2429 H 0.56706 0.62773 0.48966 0.0
H2430 H 0.52873 0.65312 0.51003 0.0
C2431 C 0.54202 0.70811 0.47332 0.0
C2432 C 0.53971 0.65793 0.46096 0.0
C2433 C 0.54167 0.72433 0.46574 0.0
C2434 C 0.55857 0.60319 0.50215 0.0
C2435 C 0.55616 0.61885 0.49475 0.0
C2436 C 0.5318 0.65423 0.49629 0.0
C2437 C 0.53311 0.68977 0.46361 0.0
C2438 C 0.53431 0.67244 0.47128 0.0
C2439 C 0.53998 0.62317 0.49409 0.0
C2440 C 0.53758 0.63994 0.48611 0.0
H2441 H 0.51521 0.70258 0.42557 0.0
H2442 H 0.51639 0.67426 0.43849 0.0
H2443 H 0.52619 0.68127 0.49738 0.0
H2444 H 0.51751 0.58623 0.5128 0.0
H2445 H 0.51355 0.61417 0.5006 0.0
C2446 C 0.63756 0.31556 0.68658 0.0
C2447 C 0.63732 0.31965 0.66868 0.0
C2448 C 0.65307 0.31457 0.69655 0.0
C2449 C 0.69665 0.3064 0.69089 0.0
H2450 H 0.70714 0.32648 0.74307 0.0
C2451 C 0.76076 0.30405 0.73593 0.0
C2452 C 0.75933 0.30162 0.75418 0.0
C2453 C 0.74662 0.30683 0.72476 0.0
C2454 C 0.70439 0.32048 0.72856 0.0
H2455 H 0.65362 0.32603 0.64744 0.0
H2456 H 0.68059 0.32424 0.66479 0.0
H2457 H 0.68143 0.33034 0.72554 0.0
H2458 H 0.74167 0.29961 0.77467 0.0
H2459 H 0.71727 0.30375 0.75542 0.0
H2460 H 0.71947 0.2962 0.69401 0.0
C2461 C 0.66871 0.32175 0.6711 0.0
C2462 C 0.68955 0.32279 0.71844 0.0
C2463 C 0.65321 0.32297 0.6612 0.0
C2464 C 0.74337 0.30161 0.76076 0.0
C2465 C 0.72931 0.3042 0.74967 0.0
C2466 C 0.71146 0.30392 0.70107 0.0
C2467 C 0.66888 0.31742 0.68892 0.0
C2468 C 0.68529 0.31563 0.69947 0.0
C2469 C 0.73068 0.30719 0.73155 0.0
C2470 C 0.71548 0.3107 0.72017 0.0
H2471 H 0.62565 0.31279 0.69284 0.0
H2472 H 0.65254 0.31102 0.71012 0.0
H2473 H 0.6938 0.30055 0.67634 0.0
H2474 H 0.77288 0.30419 0.73043 0.0
H2475 H 0.74835 0.30914 0.71095 0.0
C2476 C 0.03418 0.33703 0.9402 0.0
C2477 C 0.02208 0.32346 0.94733 0.0
C2478 C 0.03752 0.35655 0.94709 0.0
C2479 C 0.0177 0.39104 0.97322 0.0
H2480 H 0.06384 0.426 0.97675 0.0
C2481 C 0.02901 0.47276 0.99044 0.0
C2482 C 0.04444 0.48371 1.00191 0.0
C2483 C 0.02663 0.45341 0.98361 0.0
C2484 C 0.05088 0.41646 0.97601 0.0
H2485 H 1.0044 0.31994 0.96777 0.0
H2486 H 0.01043 0.35371 0.97999 0.0
H2487 H 0.05948 0.39212 0.96607 0.0
H2488 H 0.06951 0.48262 0.0151 0.0
H2489 H 0.06528 0.449 1.00346 0.0
H2490 H 0.00917 0.41526 0.98355 0.0
C2491 C 0.01711 0.34939 0.96878 0.0
C2492 C 0.04832 0.39697 0.96964 0.0
C2493 C 0.01375 0.32993 0.96186 0.0
C2494 C 0.05747 0.47475 0.00625 0.0
C2495 C 0.05508 0.45539 0.99945 0.0
C2496 C 0.02026 0.4105 0.97959 0.0
C2497 C 0.02885 0.36306 0.96134 0.0
C2498 C 0.03169 0.38393 0.96817 0.0
C2499 C 0.03959 0.44437 0.98807 0.0
C2500 C 0.03688 0.42355 0.9811 0.0
H2501 H 0.04078 0.33262 0.92894 0.0
H2502 H 0.04652 0.36654 0.94085 0.0
H2503 H 1.00464 0.38159 0.97206 0.0
H2504 H 0.01869 0.47912 0.98672 0.0
H2505 H 0.01464 0.44556 0.97468 0.0
C2506 C 0.03201 0.79848 0.17921 0.0
C2507 C 0.03762 0.81094 0.16709 0.0
C2508 C 0.01655 0.79799 0.18687 0.0
C2509 C 0.98424 0.82512 0.19683 0.0
H2510 H 0.95439 0.77558 0.19983 0.0
C2511 C 0.91527 0.81468 0.22093 0.0
C2512 C 0.91018 0.80069 0.23175 0.0
C2513 C 0.93063 0.81648 0.21268 0.0
C2514 C 0.96263 0.78958 0.19935 0.0
H2515 H 0.03138 0.83298 0.15386 0.0
H2516 H 1.00435 0.83216 0.16729 0.0
H2517 H 0.98139 0.77795 0.18649 0.0
H2518 H 0.91781 0.7781 0.24283 0.0
H2519 H 0.94441 0.78126 0.22867 0.0
H2520 H 0.96547 0.83674 0.20985 0.0
C2521 C 0.01201 0.82279 0.17092 0.0
C2522 C 0.97817 0.79093 0.19164 0.0
C2523 C 0.0275 0.82323 0.16316 0.0
C2524 C 0.92102 0.78874 0.23426 0.0
C2525 C 0.93635 0.79056 0.22609 0.0
C2526 C 0.96867 0.82377 0.20462 0.0
C2527 C 0.0062 0.80997 0.1827 0.0
C2528 C 0.98931 0.80871 0.19041 0.0
C2529 C 0.94137 0.80437 0.21507 0.0
C2530 C 0.9577 0.80597 0.20616 0.0
H2531 H 0.03945 0.78885 0.18264 0.0
H2532 H 0.01273 0.78818 0.19614 0.0
H2533 H 0.99253 0.83906 0.19626 0.0
H2534 H 0.90721 0.82405 0.21855 0.0
H2535 H 0.9339 0.82715 0.20415 0.0
C2536 C 0.51246 0.28965 0.10851 0.0
C2537 C 0.5046 0.28956 0.12461 0.0
C2538 C 0.51454 0.30509 0.0995 0.0
C2539 C 0.50114 0.34917 0.09642 0.0
H2540 H 0.54481 0.3629 0.07616 0.0
C2541 C 0.52683 0.41916 0.06849 0.0
C2542 C 0.53273 0.4169 0.05124 0.0
C2543 C 0.52256 0.40384 0.07773 0.0
C2544 C 0.53252 0.35917 0.08166 0.0
H2545 H 0.49221 0.30526 0.14364 0.0
H2546 H 0.49634 0.3327 0.12818 0.0
H2547 H 0.53864 0.33587 0.09177 0.0
H2548 H 0.53822 0.39648 0.03004 0.0
H2549 H 0.5313 0.37004 0.04644 0.0
H2550 H 0.49538 0.37298 0.08656 0.0
C2551 C 0.50061 0.32064 0.12231 0.0
C2552 C 0.5289 0.3436 0.09053 0.0
C2553 C 0.49827 0.30496 0.1312 0.0
C2554 C 0.53414 0.39892 0.04347 0.0
C2555 C 0.53008 0.38371 0.0528 0.0
C2556 C 0.50489 0.36495 0.08771 0.0
C2557 C 0.50913 0.32105 0.10655 0.0
C2558 C 0.51305 0.33818 0.09778 0.0
C2559 C 0.5243 0.38603 0.07004 0.0
C2560 C 0.52051 0.36991 0.08003 0.0
H2561 H 0.51724 0.27784 0.10296 0.0
H2562 H 0.52063 0.30458 0.08709 0.0
H2563 H 0.48877 0.34535 0.10173 0.0
H2564 H 0.52579 0.43284 0.07502 0.0
H2565 H 0.51828 0.40603 0.09109 0.0
C2566 C 0.03917 0.28337 0.32506 0.0
C2567 C 0.039 0.28635 0.34415 0.0
C2568 C 0.02372 0.28024 0.31305 0.0
C2569 C 0.9755 0.26796 0.31015 0.0
H2570 H 0.97852 0.30546 0.27854 0.0
C2571 C 0.91358 0.28143 0.276 0.0
C2572 C 0.91372 0.30063 0.28024 0.0
C2573 C 0.92911 0.27616 0.27843 0.0
C2574 C 0.9775 0.29474 0.28711 0.0
H2575 H 0.02244 0.2872 0.36561 0.0
H2576 H 0.99555 0.2816 0.34472 0.0
H2577 H 1.00534 0.30106 0.29363 0.0
H2578 H 0.93038 0.3294 0.28949 0.0
H2579 H 0.95742 0.32023 0.29357 0.0
H2580 H 0.9477 0.26245 0.30458 0.0
C2581 C 0.00757 0.28169 0.339 0.0
C2582 C 0.99283 0.2921 0.29561 0.0
C2583 C 0.02299 0.28507 0.35097 0.0
C2584 C 0.92982 0.31452 0.28592 0.0
C2585 C 0.94534 0.30926 0.28823 0.0
C2586 C 0.96019 0.2705 0.30157 0.0
C2587 C 0.00785 0.27971 0.31996 0.0
C2588 C 0.99194 0.27925 0.3078 0.0
C2589 C 0.94508 0.29 0.28498 0.0
C2590 C 0.96106 0.28447 0.29058 0.0
H2591 H 0.05134 0.28427 0.31942 0.0
H2592 H 0.02424 0.27871 0.29842 0.0
H2593 H 0.97449 0.25785 0.31938 0.0
H2594 H 0.90141 0.27042 0.27121 0.0
H2595 H 0.92857 0.26122 0.27565 0.0
C2596 C 0.99208 0.6724 0.6367 0.0
C2597 C 0.99902 0.68996 0.6314 0.0
C2598 C 0.99358 0.65556 0.62646 0.0
C2599 C 0.99138 0.62148 0.59608 0.0
H2600 H 0.03672 0.62356 0.58027 0.0
C2601 C 1.00351 0.56683 0.53831 0.0
C2602 C 0.01956 0.56233 0.53996 0.0
C2603 C 1.00013 0.58026 0.55174 0.0
C2604 C 0.02406 0.62264 0.58479 0.0
H2605 H 0.01235 0.70348 0.61075 0.0
H2606 H 0.01489 0.67416 0.59294 0.0
H2607 H 0.03224 0.65158 0.59865 0.0
H2608 H 0.04417 0.56723 0.55746 0.0
H2609 H 0.03828 0.59077 0.581 0.0
H2610 H 0.98318 0.59252 0.58196 0.0
C2611 C 0.00851 0.67345 0.60515 0.0
C2612 C 0.02142 0.63877 0.59511 0.0
C2613 C 0.00693 0.69023 0.61529 0.0
C2614 C 0.03177 0.57062 0.55578 0.0
C2615 C 0.02842 0.58412 0.5692 0.0
C2616 C 0.99399 0.60532 0.58561 0.0
C2617 C 1.00215 0.65599 0.6108 0.0
C2618 C 1.005 0.63846 0.60063 0.0
C2619 C 0.01277 0.58947 0.56705 0.0
C2620 C 0.01031 0.60582 0.57969 0.0
H2621 H 0.98589 0.67168 0.64903 0.0
H2622 H 0.98858 0.6423 0.63114 0.0
H2623 H 0.97858 0.62084 0.60015 0.0
H2624 H 0.99382 0.56051 0.52628 0.0
H2625 H 0.988 0.58415 0.54964 0.0
C2626 C 0.65239 0.81773 0.8592 0.0
C2627 C 0.63588 0.81883 0.85191 0.0
C2628 C 0.66602 0.81955 0.84855 0.0
C2629 C 0.67446 0.81354 0.80088 0.0
H2630 H 0.72199 0.84084 0.82296 0.0
C2631 C 0.73523 0.79608 0.77679 0.0
C2632 C 0.75089 0.81063 0.77856 0.0
C2633 C 0.7202 0.80015 0.7823 0.0
C2634 C 0.70876 0.83348 0.81644 0.0
H2635 H 0.62071 0.82275 0.82771 0.0
H2636 H 0.64455 0.8259 0.80915 0.0
H2637 H 0.69778 0.84235 0.84027 0.0
H2638 H 0.76276 0.84108 0.7862 0.0
H2639 H 0.73638 0.84816 0.79587 0.0
H2640 H 0.68551 0.80433 0.77721 0.0
C2641 C 0.64689 0.82354 0.82307 0.0
C2642 C 0.69494 0.83413 0.82645 0.0
C2643 C 0.63327 0.82176 0.83373 0.0
C2644 C 0.75091 0.82953 0.7848 0.0
C2645 C 0.73585 0.83359 0.79039 0.0
C2646 C 0.6883 0.81286 0.79087 0.0
C2647 C 0.6634 0.82249 0.83039 0.0
C2648 C 0.67772 0.82372 0.81897 0.0
C2649 C 0.72052 0.81885 0.78973 0.0
C2650 C 0.70563 0.82238 0.79876 0.0
H2651 H 0.65483 0.81549 0.87314 0.0
H2652 H 0.67854 0.81835 0.85444 0.0
H2653 H 0.66132 0.80534 0.79478 0.0
H2654 H 0.73475 0.7814 0.77189 0.0
H2655 H 0.70863 0.78846 0.78178 0.0
C2656 C 0.45309 0.56203 0.69222 0.0
C2657 C 0.46022 0.55862 0.70921 0.0
C2658 C 0.46154 0.5609 0.67605 0.0
C2659 C 0.50557 0.55802 0.65888 0.0
H2660 H 0.47883 0.54717 0.61043 0.0
C2661 C 0.54217 0.5631 0.59299 0.0
C2662 C 0.53472 0.55226 0.5753 0.0
C2663 C 0.53276 0.56337 0.60834 0.0
C2664 C 0.48674 0.55013 0.62373 0.0
H2665 H 0.48267 0.55112 0.72127 0.0
H2666 H 0.49717 0.54923 0.69377 0.0
H2667 H 0.46398 0.54859 0.63778 0.0
H2668 H 0.51037 0.53291 0.56095 0.0
H2669 H 0.49385 0.53347 0.5875 0.0
H2670 H 0.52825 0.55933 0.64498 0.0
C2671 C 0.48496 0.55305 0.69278 0.0
C2672 C 0.47806 0.55118 0.6398 0.0
C2673 C 0.47645 0.55407 0.70891 0.0
C2674 C 0.51691 0.54168 0.57395 0.0
C2675 C 0.50733 0.54204 0.58948 0.0
C2676 C 0.51422 0.55711 0.64288 0.0
C2677 C 0.47781 0.55636 0.6757 0.0
C2678 C 0.48718 0.55517 0.658 0.0
C2679 C 0.51503 0.5528 0.60731 0.0
C2680 C 0.50518 0.55321 0.62469 0.0
H2681 H 0.4407 0.56551 0.69128 0.0
H2682 H 0.45524 0.56386 0.66375 0.0
H2683 H 0.51361 0.56129 0.67211 0.0
H2684 H 0.55569 0.57161 0.59515 0.0
H2685 H 0.5396 0.57229 0.62115 0.0
C2686 C 0.78227 0.18306 0.98163 0.0
C2687 C 0.78816 0.16724 0.98425 0.0
C2688 C 0.7777 0.18598 0.96402 0.0
C2689 C 0.78664 0.17564 0.91705 0.0
H2690 H 0.75114 0.20185 0.90877 0.0
C2691 C 0.79509 0.2335 0.8747 0.0
C2692 C 0.78065 0.23737 0.86543 0.0
C2693 C 0.7927 0.21883 0.88467 0.0
C2694 C 0.7608 0.1941 0.91054 0.0
H2695 H 0.79371 0.1419 0.97047 0.0
H2696 H 0.7857 0.14706 0.93945 0.0
H2697 H 0.75223 0.18676 0.93552 0.0
H2698 H 0.7524 0.22831 0.85842 0.0
H2699 H 0.74813 0.20243 0.87604 0.0
H2700 H 0.79545 0.18336 0.89227 0.0
C2701 C 0.78471 0.15722 0.95111 0.0
C2702 C 0.76158 0.18568 0.92602 0.0
C2703 C 0.78934 0.15431 0.96884 0.0
C2704 C 0.76374 0.22567 0.86558 0.0
C2705 C 0.76132 0.21092 0.87566 0.0
C2706 C 0.78575 0.18391 0.90146 0.0
C2707 C 0.77881 0.1731 0.94855 0.0
C2708 C 0.77515 0.17736 0.92999 0.0
C2709 C 0.77579 0.20758 0.88557 0.0
C2710 C 0.77348 0.1942 0.89865 0.0
H2711 H 0.78125 0.19332 0.99321 0.0
H2712 H 0.7737 0.19864 0.96256 0.0
H2713 H 0.79719 0.16924 0.91963 0.0
H2714 H 0.80831 0.24203 0.87447 0.0
H2715 H 0.80413 0.21691 0.89236 0.0
C2716 C 0.10841 0.50397 0.19692 0.0
C2717 C 0.12526 0.5026 0.19413 0.0
C2718 C 0.09545 0.50099 0.18198 0.0
C2719 C 0.08112 0.51479 0.14942 0.0
H2720 H 0.07391 0.48052 0.10275 0.0
C2721 C 0.06363 0.53619 0.08098 0.0
C2722 C 0.04997 0.52338 0.06847 0.0
C2723 C 0.07012 0.53072 0.09673 0.0
C2724 C 0.07563 0.49003 0.11577 0.0
H2725 H 0.14108 0.49481 0.17368 0.0
H2726 H 0.11853 0.48982 0.14763 0.0
H2727 H 0.08897 0.47353 0.13003 0.0
H2728 H 0.03241 0.49486 0.06231 0.0
H2729 H 0.04402 0.48516 0.08989 0.0
H2730 H 0.06844 0.53166 0.13511 0.0
C2731 C 0.11532 0.49321 0.16134 0.0
C2732 C 0.08428 0.48609 0.13132 0.0
C2733 C 0.12829 0.49617 0.17629 0.0
C2734 C 0.04294 0.50498 0.07185 0.0
C2735 C 0.0496 0.49942 0.08752 0.0
C2736 C 0.07266 0.5188 0.1339 0.0
C2737 C 0.0991 0.49658 0.16399 0.0
C2738 C 0.08743 0.49866 0.14821 0.0
C2739 C 0.06316 0.51231 0.10015 0.0
C2740 C 0.07023 0.50672 0.11686 0.0
H2741 H 0.10554 0.50859 0.21053 0.0
H2742 H 0.08293 0.50331 0.18444 0.0
H2743 H 0.08355 0.52491 0.16216 0.0
H2744 H 0.0692 0.55047 0.07867 0.0
H2745 H 0.08073 0.54085 0.10617 0.0
C2746 C 0.81453 0.84468 0.47772 0.0
C2747 C 0.8085 0.86029 0.48453 0.0
C2748 C 0.81328 0.83828 0.45875 0.0
C2749 C 0.81894 0.834 0.41855 0.0
H2750 H 0.7806 0.83765 0.3846 0.0
C2751 C 0.81907 0.81882 0.33934 0.0
C2752 C 0.80298 0.81029 0.32794 0.0
C2753 C 0.81964 0.82499 0.35829 0.0
C2754 C 0.79136 0.8363 0.39381 0.0
H2755 H 0.79622 0.88126 0.47644 0.0
H2756 H 0.79432 0.87041 0.44348 0.0
H2757 H 0.78108 0.8472 0.41742 0.0
H2758 H 0.77484 0.80146 0.32788 0.0
H2759 H 0.77583 0.8117 0.36068 0.0
H2760 H 0.82893 0.82251 0.395 0.0
C2761 C 0.79974 0.86279 0.45277 0.0
C2762 C 0.79176 0.84209 0.41278 0.0
C2763 C 0.80088 0.8691 0.47177 0.0
C2764 C 0.7875 0.80807 0.33609 0.0
C2765 C 0.78807 0.8141 0.35503 0.0
C2766 C 0.81849 0.82811 0.3996 0.0
C2767 C 0.80611 0.84738 0.44589 0.0
C2768 C 0.80556 0.84105 0.42552 0.0
C2769 C 0.80414 0.82271 0.3665 0.0
C2770 C 0.80469 0.82915 0.38686 0.0
H2771 H 0.82044 0.83748 0.48708 0.0
H2772 H 0.81799 0.82614 0.4542 0.0
H2773 H 0.82998 0.83319 0.42772 0.0
H2774 H 0.83127 0.82089 0.33363 0.0
H2775 H 0.83229 0.83179 0.36645 0.0
C2776 C 0.47989 0.53323 0.82113 0.0
C2777 C 0.47368 0.54876 0.81753 0.0
C2778 C 0.48721 0.53217 0.83905 0.0
C2779 C 0.49334 0.5558 0.89042 0.0
H2780 H 0.52369 0.52331 0.89612 0.0
C2781 C 0.53022 0.55476 0.96387 0.0
C2782 C 0.53373 0.5378 0.9676 0.0
C2783 C 0.52312 0.55635 0.946 0.0
C2784 C 0.51511 0.53238 0.89507 0.0
H2785 H 0.47081 0.57555 0.83109 0.0
H2786 H 0.48379 0.57411 0.86174 0.0
H2787 H 0.51169 0.52562 0.86558 0.0
H2788 H 0.53217 0.50919 0.95433 0.0
H2789 H 0.52011 0.51189 0.92377 0.0
H2790 H 0.49707 0.56273 0.92003 0.0
C2791 C 0.48276 0.5623 0.85081 0.0
C2792 C 0.50802 0.53372 0.87715 0.0
C2793 C 0.47533 0.56327 0.83288 0.0
C2794 C 0.52985 0.52258 0.95244 0.0
C2795 C 0.52291 0.52421 0.93459 0.0
C2796 C 0.50055 0.55457 0.90835 0.0
C2797 C 0.48889 0.54666 0.85455 0.0
C2798 C 0.49682 0.54541 0.87418 0.0
C2799 C 0.51928 0.54112 0.93077 0.0
C2800 C 0.51161 0.54274 0.91126 0.0
H2801 H 0.47887 0.52155 0.81002 0.0
H2802 H 0.49124 0.51959 0.84066 0.0
H2803 H 0.4847 0.56481 0.88948 0.0
H2804 H 0.53288 0.56695 0.97484 0.0
H2805 H 0.52089 0.56978 0.94414 0.0
C2806 C 0.83103 0.20761 0.08053 0.0
C2807 C 0.8281 0.1886 0.0829 0.0
C2808 C 0.83246 0.22201 0.09555 0.0
C2809 C 0.80963 0.22729 0.13147 0.0
H2810 H 0.84593 0.26986 0.16036 0.0
C2811 C 0.80133 0.26392 0.20175 0.0
C2812 C 0.80944 0.28337 0.20771 0.0
C2813 C 0.80376 0.2547 0.18488 0.0
C2814 C 0.83558 0.25827 0.15216 0.0
H2815 H 0.82661 0.17018 0.10314 0.0
H2816 H 0.82884 0.19534 0.12924 0.0
H2817 H 0.85316 0.2496 0.13462 0.0
H2818 H 0.8256 0.30878 0.20035 0.0
H2819 H 0.82967 0.29263 0.17048 0.0
H2820 H 0.79195 0.2357 0.14863 0.0
C2821 C 0.83 0.19898 0.11576 0.0
C2822 C 0.83979 0.24665 0.13761 0.0
C2823 C 0.82873 0.18462 0.1008 0.0
C2824 C 0.81922 0.29373 0.19604 0.0
C2825 C 0.82168 0.28447 0.17906 0.0
C2826 C 0.80537 0.23895 0.14579 0.0
C2827 C 0.83101 0.21753 0.11306 0.0
C2828 C 0.82688 0.23086 0.12753 0.0
C2829 C 0.8143 0.26476 0.17351 0.0
C2830 C 0.81838 0.25426 0.15663 0.0
H2831 H 0.83077 0.21116 0.06692 0.0
H2832 H 0.83319 0.23627 0.09327 0.0
H2833 H 0.79946 0.21527 0.12359 0.0
H2834 H 0.79374 0.2556 0.21051 0.0
H2835 H 0.79807 0.23947 0.18118 0.0
C2836 C 0.15024 0.56924 0.29893 0.0
C2837 C 0.15021 0.55035 0.29304 0.0
C2838 C 0.14754 0.57532 0.31678 0.0
C2839 C 0.14144 0.56012 0.36206 0.0
H2840 H 0.10933 0.5915 0.36278 0.0
C2841 C 0.10372 0.57163 0.42337 0.0
C2842 C 0.08562 0.56814 0.41798 0.0
C2843 C 0.11538 0.57417 0.41046 0.0
C2844 C 0.11836 0.58281 0.36285 0.0
H2845 H 0.14824 0.52314 0.30115 0.0
H2846 H 0.14221 0.53331 0.33212 0.0
H2847 H 0.12329 0.58608 0.33579 0.0
H2848 H 0.06563 0.56497 0.39496 0.0
H2849 H 0.08579 0.56937 0.3726 0.0
H2850 H 0.13514 0.55561 0.38866 0.0
C2851 C 0.14494 0.5437 0.32324 0.0
C2852 C 0.1266 0.57988 0.34743 0.0
C2853 C 0.14819 0.53776 0.30546 0.0
C2854 C 0.07951 0.56798 0.39964 0.0
C2855 C 0.09111 0.57053 0.3868 0.0
C2856 C 0.13297 0.56287 0.37744 0.0
C2857 C 0.14413 0.56246 0.32895 0.0
C2858 C 0.13781 0.56798 0.34657 0.0
C2859 C 0.10912 0.57333 0.39198 0.0
C2860 C 0.12083 0.57366 0.37766 0.0
H2861 H 0.15222 0.57931 0.28964 0.0
H2862 H 0.1476 0.59001 0.32083 0.0
H2863 H 0.1503 0.55123 0.36204 0.0
H2864 H 0.10882 0.57207 0.43749 0.0
H2865 H 0.12921 0.57648 0.41486 0.0
C2866 C 0.80054 0.85448 0.59039 0.0
C2867 C 0.80743 0.8741 0.59107 0.0
C2868 C 0.79879 0.84693 0.60664 0.0
C2869 C 0.8012 0.86187 0.65838 0.0
H2870 H 0.80102 0.80951 0.65818 0.0
C2871 C 0.80633 0.82814 0.72486 0.0
C2872 C 0.79323 0.81117 0.72452 0.0
C2873 C 0.80829 0.83625 0.70893 0.0
C2874 C 0.80103 0.82418 0.65847 0.0
H2875 H 0.81833 0.90104 0.60963 0.0
H2876 H 0.81627 0.88804 0.63759 0.0
H2877 H 0.80422 0.82246 0.6301 0.0
H2878 H 0.77203 0.78941 0.70699 0.0
H2879 H 0.77591 0.80311 0.67928 0.0
H2880 H 0.79872 0.86355 0.68711 0.0
C2881 C 0.81139 0.87833 0.62467 0.0
C2882 C 0.8027 0.83165 0.64222 0.0
C2883 C 0.81273 0.88588 0.60847 0.0
C2884 C 0.78227 0.80249 0.70783 0.0
C2885 C 0.78452 0.8103 0.69187 0.0
C2886 C 0.79996 0.85449 0.67472 0.0
C2887 C 0.80428 0.85869 0.62417 0.0
C2888 C 0.80269 0.85065 0.64175 0.0
C2889 C 0.79752 0.8273 0.69216 0.0
C2890 C 0.7997 0.8355 0.67497 0.0
H2891 H 0.79623 0.84495 0.57727 0.0
H2892 H 0.79289 0.83183 0.60531 0.0
H2893 H 0.80066 0.87636 0.65887 0.0
H2894 H 0.81498 0.8352 0.73745 0.0
H2895 H 0.81846 0.84935 0.70964 0.0
C2896 C 0.76877 0.48592 0.49001 0.0
C2897 C 0.76317 0.46598 0.48633 0.0
C2898 C 0.75663 0.49646 0.48905 0.0
C2899 C 0.70932 0.49267 0.47544 0.0
H2900 H 0.71809 0.53402 0.51698 0.0
C2901 C 0.65515 0.51992 0.5067 0.0
C2902 C 0.658 0.53966 0.51188 0.0
C2903 C 0.66836 0.51252 0.50037 0.0
C2904 C 0.71558 0.52273 0.50513 0.0
H2905 H 0.74065 0.44142 0.47774 0.0
H2906 H 0.71938 0.45972 0.47666 0.0
H2907 H 0.74066 0.51816 0.51106 0.0
H2908 H 0.67695 0.56709 0.51397 0.0
H2909 H 0.70024 0.55402 0.50344 0.0
H2910 H 0.68377 0.49674 0.47025 0.0
C2911 C 0.73314 0.46733 0.47991 0.0
C2912 C 0.72854 0.51365 0.50165 0.0
C2913 C 0.74534 0.45679 0.48059 0.0
C2914 C 0.67438 0.55181 0.51039 0.0
C2915 C 0.68769 0.54436 0.50426 0.0
C2916 C 0.69626 0.50164 0.47906 0.0
C2917 C 0.7386 0.48729 0.48471 0.0
C2918 C 0.72549 0.49828 0.48695 0.0
C2919 C 0.68481 0.52464 0.49928 0.0
C2920 C 0.69918 0.51654 0.49413 0.0
H2921 H 0.78249 0.49338 0.49426 0.0
H2922 H 0.76136 0.51181 0.49233 0.0
H2923 H 0.70661 0.48113 0.46381 0.0
H2924 H 0.64287 0.51008 0.50802 0.0
H2925 H 0.6659 0.49724 0.49695 0.0
C2926 C 0.22195 0.14748 0.48934 0.0
C2927 C 0.23704 0.14343 0.49713 0.0
C2928 C 0.20515 0.13569 0.48977 0.0
C2929 C 0.17114 0.10348 0.48498 0.0
H2930 H 0.16234 0.08408 0.52977 0.0
C2931 C 0.1062 0.04806 0.49094 0.0
C2932 C 0.09917 0.05001 0.50753 0.0
C2933 C 0.12274 0.05963 0.48928 0.0
C2934 C 0.16449 0.08948 0.51719 0.0
H2935 H 0.24607 0.12331 0.51111 0.0
H2936 H 0.21688 0.10275 0.51173 0.0
H2937 H 0.19153 0.1034 0.52727 0.0
H2938 H 0.10394 0.06582 0.53535 0.0
H2939 H 0.13271 0.08612 0.53245 0.0
H2940 H 0.14402 0.08974 0.47499 0.0
C2941 C 0.21802 0.11522 0.50547 0.0
C2942 C 0.18135 0.10039 0.51567 0.0
C2943 C 0.23482 0.12695 0.50495 0.0
C2944 C 0.10896 0.06398 0.52236 0.0
C2945 C 0.12555 0.07551 0.52074 0.0
C2946 C 0.1543 0.09247 0.48647 0.0
C2947 C 0.20291 0.11954 0.4981 0.0
C2948 C 0.18494 0.10758 0.49954 0.0
C2949 C 0.13275 0.07343 0.5042 0.0
C2950 C 0.1507 0.08533 0.50261 0.0
H2951 H 0.22306 0.16004 0.48324 0.0
H2952 H 0.19389 0.13962 0.48408 0.0
H2953 H 0.17338 0.10862 0.47229 0.0
H2954 H 0.09898 0.03742 0.47926 0.0
H2955 H 0.12786 0.05744 0.47639 0.0
C2956 C 0.20752 0.9529 0.77374 0.0
C2957 C 0.21222 0.96741 0.76317 0.0
C2958 C 0.21527 0.93738 0.77298 0.0
C2959 C 0.25441 0.92005 0.757 0.0
H2960 H 0.2282 0.87141 0.76631 0.0
C2961 C 0.28828 0.857 0.76271 0.0
C2962 C 0.27841 0.83763 0.75776 0.0
C2963 C 0.28038 0.87238 0.76318 0.0
C2964 C 0.23594 0.88475 0.76354 0.0
H2965 H 0.22954 0.97591 0.74338 0.0
H2966 H 0.24298 0.94956 0.74222 0.0
H2967 H 0.21479 0.89767 0.76734 0.0
H2968 H 0.25162 0.82032 0.74968 0.0
H2969 H 0.23805 0.84655 0.75057 0.0
H2970 H 0.27555 0.90715 0.75322 0.0
C2971 C 0.2332 0.95004 0.75129 0.0
C2972 C 0.22813 0.90023 0.76433 0.0
C2973 C 0.22528 0.96542 0.75188 0.0
C2974 C 0.26006 0.83469 0.75346 0.0
C2975 C 0.25212 0.85006 0.75414 0.0
C2976 C 0.2623 0.90466 0.75646 0.0
C2977 C 0.22845 0.9354 0.76177 0.0
C2978 C 0.23705 0.91845 0.76103 0.0
C2979 C 0.262 0.8695 0.75897 0.0
C2980 C 0.25335 0.8864 0.75965 0.0
H2981 H 0.19765 0.95343 0.78269 0.0
H2982 H 0.21099 0.927 0.78157 0.0
H2983 H 0.26222 0.93346 0.75447 0.0
H2984 H 0.30235 0.86042 0.76625 0.0
H2985 H 0.28888 0.88671 0.76721 0.0
C2986 C 0.35464 0.97461 0.99171 0.0
C2987 C 0.34506 0.95547 0.98604 0.0
C2988 C 0.3729 0.97989 0.99327 0.0
C2989 C 0.41048 0.98431 0.00848 0.0
H2990 H 0.43601 0.96082 0.97448 0.0
C2991 C 0.4847 0.99599 0.02463 0.0
C2992 C 0.49442 0.99987 0.01018 0.0
C2993 C 0.46646 0.98914 0.02121 0.0
C2994 C 0.42907 0.96758 0.98405 0.0
H2995 H 0.3471 0.92698 0.97676 0.0
H2996 H 0.37886 0.93614 0.97978 0.0
H2997 H 0.40419 0.95311 0.96809 0.0
H2998 H 0.4927 0.99889 0.98072 0.0
H2999 H 0.46098 0.98729 0.97486 0.0
H3000 H 0.43535 0.99921 0.02415 0.0
C3001 C 0.37231 0.94712 0.98284 0.0
C3002 C 0.41084 0.96305 0.98047 0.0
C3003 C 0.35407 0.94185 0.98118 0.0
C3004 C 0.48561 0.99605 0.99218 0.0
C3005 C 0.4674 0.98929 0.98878 0.0
C3006 C 0.4287 0.98891 0.01201 0.0
C3007 C 0.38194 0.96613 0.98926 0.0
C3008 C 0.40134 0.97137 0.99265 0.0
C3009 C 0.4576 0.98611 1.0033 0.0
C3010 C 0.4382 0.9806 0.99984 0.0
H3011 H 0.34808 0.98547 0.99543 0.0
H3012 H 0.37996 0.99472 0.99791 0.0
H3013 H 0.40354 0.99074 0.0183 0.0
H3014 H 0.4911 0.99867 0.03865 0.0
H3015 H 0.45928 0.98648 0.03264 0.0
C3016 C 0.90008 0.60597 0.81636 0.0
C3017 C 0.89744 0.5898 0.8027 0.0
C3018 C 0.88949 0.61825 0.81509 0.0
C3019 C 0.86627 0.63568 0.78116 0.0
H3020 H 0.83832 0.64971 0.81805 0.0
C3021 C 0.83351 0.69597 0.77932 0.0
C3022 C 0.81538 0.69069 0.77988 0.0
C3023 C 0.8435 0.6838 0.78321 0.0
C3024 C 0.84609 0.64585 0.8077 0.0
H3025 H 0.88142 0.57353 0.77728 0.0
H3026 H 0.86334 0.59517 0.77496 0.0
H3027 H 0.85612 0.62792 0.8234 0.0
H3028 H 0.79343 0.6689 0.78516 0.0
H3029 H 0.81111 0.64757 0.79234 0.0
H3030 H 0.85649 0.65367 0.76553 0.0
C3031 C 0.87348 0.59825 0.78664 0.0
C3032 C 0.85629 0.63357 0.8108 0.0
C3033 C 0.88381 0.58588 0.78804 0.0
C3034 C 0.80739 0.67316 0.7846 0.0
C3035 C 0.81747 0.6611 0.78881 0.0
C3036 C 0.85637 0.64818 0.77822 0.0
C3037 C 0.87638 0.61462 0.80001 0.0
C3038 C 0.86629 0.62829 0.79745 0.0
C3039 C 0.83556 0.6663 0.78799 0.0
C3040 C 0.84612 0.65325 0.7914 0.0
H3041 H 0.91046 0.60928 0.82782 0.0
H3042 H 0.89191 0.63088 0.82551 0.0
H3043 H 0.87396 0.63179 0.77073 0.0
H3044 H 0.8399 0.7094 0.77559 0.0
H3045 H 0.85744 0.68807 0.78252 0.0
C3046 C 0.83489 0.63632 0.02231 0.0
C3047 C 0.83219 0.64808 0.00978 0.0
C3048 C 0.84909 0.62845 0.02222 0.0
C3049 C 0.89286 0.63383 0.00626 0.0
H3050 H 0.88677 0.58317 0.01708 0.0
C3051 C 0.94683 0.59369 1.00032 0.0
C3052 C 0.94898 0.58247 0.01359 0.0
C3053 C 0.93292 0.60207 0.99963 0.0
C3054 C 0.88881 0.59742 0.01424 0.0
H3055 H 0.84246 0.66066 0.98721 0.0
H3056 H 0.86712 0.64671 0.98685 0.0
H3057 H 0.86197 0.59659 0.01583 0.0
H3058 H 0.93831 0.57205 0.03704 0.0
H3059 H 0.91418 0.58652 0.03579 0.0
H3060 H 0.91974 0.63455 0.00459 0.0
C3061 C 0.85835 0.64377 0.99696 0.0
C3062 C 0.87452 0.60517 0.01352 0.0
C3063 C 0.8441 0.65169 0.99707 0.0
C3064 C 0.93696 0.58023 0.02636 0.0
C3065 C 0.92305 0.58855 0.02564 0.0
C3066 C 0.90717 0.62604 0.00693 0.0
C3067 C 0.86108 0.63202 0.00956 0.0
C3068 C 0.87631 0.62356 0.00966 0.0
C3069 C 0.92069 0.59946 0.01216 0.0
C3070 C 0.90539 0.60776 0.01107 0.0
H3071 H 0.8261 0.63329 0.03239 0.0
H3072 H 0.85082 0.6198 0.03236 0.0
H3073 H 0.8949 0.64811 1.00348 0.0
H3074 H 0.95562 0.59558 0.99008 0.0
H3075 H 0.93148 0.61019 0.98893 0.0
C3076 C 0.22162 0.08134 0.77136 0.0
C3077 C 0.20862 0.07686 0.78295 0.0
C3078 C 0.23047 0.10049 0.7705 0.0
C3079 C 0.24032 0.15175 0.79601 0.0
H3080 H 0.25306 0.16539 0.74988 0.0
C3081 C 0.28449 0.22834 0.7925 0.0
C3082 C 0.28182 0.23697 0.77717 0.0
C3083 C 0.27542 0.20926 0.79296 0.0
C3084 C 0.24959 0.16203 0.76295 0.0
H3085 H 0.19529 0.09015 0.80292 0.0
H3086 H 0.21072 0.12293 0.80176 0.0
H3087 H 0.23844 0.13229 0.7513 0.0
H3088 H 0.26699 0.23131 0.75008 0.0
H3089 H 0.25135 0.19808 0.75072 0.0
H3090 H 0.25146 0.18139 0.8077 0.0
C3091 C 0.21421 0.11166 0.79322 0.0
C3092 C 0.24125 0.14275 0.76382 0.0
C3093 C 0.20521 0.09257 0.79388 0.0
C3094 C 0.26953 0.22549 0.76222 0.0
C3095 C 0.26058 0.20619 0.76257 0.0
C3096 C 0.24886 0.17093 0.79519 0.0
C3097 C 0.22697 0.11621 0.78137 0.0
C3098 C 0.23632 0.13706 0.78037 0.0
C3099 C 0.26328 0.19755 0.77799 0.0
C3100 C 0.25373 0.17667 0.77865 0.0
H3101 H 0.2247 0.06998 0.76249 0.0
H3102 H 0.2402 0.10295 0.76127 0.0
H3103 H 0.23707 0.14842 0.80915 0.0
H3104 H 0.2938 0.23641 0.80432 0.0
H3105 H 0.27831 0.20357 0.80508 0.0
C3106 C 0.42317 0.9919 0.3056 0.0
C3107 C 0.41589 1.0064 0.31269 0.0
C3108 C 0.41313 0.97299 0.30206 0.0
C3109 C 0.37431 0.93899 0.31092 0.0
H3110 H 0.36854 0.91775 0.259 0.0
C3111 C 0.32121 0.87016 0.28087 0.0
C3112 C 0.32551 0.85699 0.26779 0.0
C3113 C 0.33198 0.8887 0.28581 0.0
C3114 C 0.37018 0.92328 0.27357 0.0
H3115 H 0.3931 0.01235 0.32334 0.0
H3116 H 0.37574 0.97913 0.31763 0.0
H3117 H 0.38947 0.94857 0.27107 0.0
H3118 H 0.34389 0.85281 0.24901 0.0
H3119 H 0.36319 0.88504 0.25811 0.0
H3120 H 0.35546 0.91364 0.31369 0.0
C3121 C 0.38908 0.98251 0.31455 0.0
C3122 C 0.38215 0.94092 0.28046 0.0
C3123 C 0.399 1.00148 0.31779 0.0
C3124 C 0.34025 0.86284 0.259 0.0
C3125 C 0.35129 0.88131 0.26426 0.0
C3126 C 0.36256 0.92118 0.30412 0.0
C3127 C 0.39582 0.96826 0.30592 0.0
C3128 C 0.38419 0.94896 0.29914 0.0
C3129 C 0.34754 0.89429 0.27813 0.0
C3130 C 0.36018 0.91319 0.28531 0.0
H3131 H 0.43614 0.99524 0.30151 0.0
H3132 H 0.4186 0.96213 0.29555 0.0
H3133 H 0.37574 0.94494 0.32539 0.0
H3134 H 0.30979 0.86593 0.28771 0.0
H3135 H 0.32834 0.89846 0.29606 0.0
C3136 C 0.57366 0.36791 0.60257 0.0
C3137 C 0.5896 0.36322 0.60129 0.0
C3138 C 0.57021 0.38306 0.59484 0.0
C3139 C 0.59198 0.42818 0.58022 0.0
H3140 H 0.54714 0.42156 0.55133 0.0
C3141 C 0.57934 0.48815 0.54263 0.0
C3142 C 0.56222 0.49 0.53956 0.0
C3143 C 0.58258 0.4725 0.54955 0.0
C3144 C 0.55967 0.42397 0.5596 0.0
H3145 H 0.61447 0.37122 0.59093 0.0
H3146 H 0.60865 0.39779 0.57795 0.0
H3147 H 0.55275 0.39543 0.56497 0.0
H3148 H 0.5351 0.47658 0.54163 0.0
H3149 H 0.54069 0.44993 0.55426 0.0
H3150 H 0.59883 0.45681 0.57554 0.0
C3151 C 0.59873 0.38967 0.58482 0.0
C3152 C 0.56291 0.40879 0.5674 0.0
C3153 C 0.60204 0.37431 0.59222 0.0
C3154 C 0.54845 0.47563 0.54358 0.0
C3155 C 0.55172 0.46015 0.5508 0.0
C3156 C 0.58866 0.44348 0.57271 0.0
C3157 C 0.58273 0.39425 0.58591 0.0
C3158 C 0.57915 0.4106 0.57777 0.0
C3159 C 0.56887 0.45824 0.55402 0.0
C3160 C 0.57244 0.44172 0.56215 0.0
H3161 H 0.56373 0.35974 0.60939 0.0
H3162 H 0.55779 0.38618 0.59611 0.0
H3163 H 0.60458 0.43028 0.58829 0.0
H3164 H 0.59032 0.49882 0.53966 0.0
H3165 H 0.59595 0.47163 0.55127 0.0
C3166 C 0.46782 0.79383 0.35761 0.0
C3167 C 0.46996 0.77666 0.36193 0.0
C3168 C 0.45194 0.79466 0.34845 0.0
C3169 C 0.40445 0.76665 0.33435 0.0
H3170 H 0.40505 0.80522 0.30434 0.0
C3171 C 0.3457 0.76802 0.28163 0.0
C3172 C 0.34152 0.78542 0.28249 0.0
C3173 C 0.36058 0.7667 0.29243 0.0
C3174 C 0.40464 0.79447 0.3128 0.0
H3175 H 0.45698 0.74676 0.3597 0.0
H3176 H 0.42959 0.74785 0.34282 0.0
H3177 H 0.43246 0.80284 0.31966 0.0
H3178 H 0.34957 0.81505 0.29558 0.0
H3179 H 0.37595 0.81289 0.31403 0.0
H3180 H 0.3765 0.75779 0.32645 0.0
C3181 C 0.43995 0.76096 0.34706 0.0
C3182 C 0.42043 0.79312 0.32176 0.0
C3183 C 0.45579 0.76023 0.35662 0.0
C3184 C 0.3524 0.80143 0.29466 0.0
C3185 C 0.36755 0.80021 0.30514 0.0
C3186 C 0.38869 0.76775 0.32501 0.0
C3187 C 0.43768 0.77824 0.34287 0.0
C3188 C 0.42067 0.77928 0.33286 0.0
C3189 C 0.3719 0.78286 0.30403 0.0
C3190 C 0.38858 0.78177 0.31423 0.0
H3191 H 0.47833 0.80686 0.36171 0.0
H3192 H 0.45084 0.80839 0.34611 0.0
H3193 H 0.40379 0.75601 0.34293 0.0
H3194 H 0.33757 0.75545 0.27237 0.0
H3195 H 0.3636 0.75316 0.2912 0.0
C3196 C 0.0588 0.74551 0.09961 0.0
C3197 C 0.073 0.76 0.09653 0.0
C3198 C 0.05689 0.7264 0.0922 0.0
C3199 C 0.08235 0.69344 0.0795 0.0
H3200 H 0.03883 0.65979 0.05258 0.0
C3201 C 0.07631 0.61404 0.05067 0.0
C3202 C 0.05984 0.60064 0.04849 0.0
C3203 C 0.07805 0.63356 0.05585 0.0
C3204 C 0.05103 0.66877 0.06039 0.0
H3205 H 0.09625 0.76563 0.08306 0.0
H3206 H 0.09317 0.73214 0.07054 0.0
H3207 H 0.04125 0.69334 0.06243 0.0
H3208 H 0.03235 0.5973 0.05062 0.0
H3209 H 0.03543 0.63088 0.06064 0.0
H3210 H 0.09198 0.66897 0.07843 0.0
C3211 C 0.08339 0.73569 0.07849 0.0
C3212 C 0.05242 0.68814 0.06587 0.0
C3213 C 0.08505 0.75488 0.08552 0.0
C3214 C 0.04524 0.60722 0.05205 0.0
C3215 C 0.04702 0.62665 0.05762 0.0
C3216 C 0.08085 0.67399 0.0744 0.0
C3217 C 0.06938 0.72121 0.08191 0.0
C3218 C 0.0681 0.70072 0.07548 0.0
C3219 C 0.06341 0.64027 0.05938 0.0
C3220 C 0.06514 0.66123 0.06476 0.0
H3221 H 0.04932 0.74893 0.10809 0.0
H3222 H 0.046 0.7156 0.09514 0.0
H3223 H 0.09454 0.70274 0.0871 0.0
H3224 H 0.0878 0.6095 0.04781 0.0
H3225 H 0.09088 0.64336 0.05664 0.0
C3226 C 0.07519 0.28014 0.87632 0.0
C3227 C 0.06103 0.26401 0.86931 0.0
C3228 C 0.09097 0.28299 0.86875 0.0
C3229 C 0.10996 0.26738 0.82692 0.0
H3230 H 0.15424 0.28767 0.85894 0.0
C3231 C 0.17606 0.26685 0.80057 0.0
C3232 C 0.19055 0.28283 0.80689 0.0
C3233 C 0.16046 0.26487 0.80833 0.0
C3234 C 0.14201 0.28218 0.84974 0.0
H3235 H 0.0525 0.23826 0.84871 0.0
H3236 H 0.07985 0.24309 0.8357 0.0
H3237 H 0.12684 0.28399 0.87193 0.0
H3238 H 0.19989 0.30908 0.82679 0.0
H3239 H 0.17269 0.30575 0.84014 0.0
H3240 H 0.1251 0.26548 0.80474 0.0
C3241 C 0.07877 0.25375 0.84688 0.0
C3242 C 0.12623 0.28008 0.85722 0.0
C3243 C 0.06304 0.25091 0.85444 0.0
C3244 C 0.18901 0.29666 0.82139 0.0
C3245 C 0.17341 0.29465 0.82921 0.0
C3246 C 0.12572 0.26944 0.81946 0.0
C3247 C 0.09303 0.2698 0.85393 0.0
C3248 C 0.10994 0.27256 0.84593 0.0
C3249 C 0.15884 0.27878 0.82272 0.0
C3250 C 0.14201 0.2768 0.83075 0.0
H3251 H 0.07414 0.29054 0.88776 0.0
H3252 H 0.10151 0.29565 0.87443 0.0
H3253 H 0.09775 0.26189 0.81768 0.0
H3254 H 0.1766 0.25599 0.78931 0.0
H3255 H 0.14966 0.25233 0.80308 0.0
C3256 C 0.57514 0.75648 0.91215 0.0
C3257 C 0.5897 0.77169 0.92041 0.0
C3258 C 0.56924 0.74115 0.92103 0.0
C3259 C 0.5698 0.72799 0.96663 0.0
H3260 H 0.56334 0.67661 0.94083 0.0
C3261 C 0.56881 0.66625 0.00494 0.0
C3262 C 0.558 0.64803 0.99714 0.0
C3263 C 0.57037 0.68119 0.99527 0.0
C3264 C 0.56474 0.69082 0.94816 0.0
H3265 H 0.60936 0.78285 0.94447 0.0
H3266 H 0.59895 0.75623 0.95998 0.0
H3267 H 0.57016 0.70307 0.92428 0.0
H3268 H 0.53996 0.63127 0.97328 0.0
H3269 H 0.54246 0.6575 0.95642 0.0
H3270 H 0.56444 0.71591 0.99051 0.0
C3271 C 0.59211 0.75617 0.94668 0.0
C3272 C 0.56869 0.70596 0.93867 0.0
C3273 C 0.59814 0.77133 0.93773 0.0
C3274 C 0.54853 0.64513 0.97955 0.0
C3275 C 0.55 0.66014 0.9699 0.0
C3276 C 0.56569 0.71287 0.97607 0.0
C3277 C 0.57763 0.74092 0.93843 0.0
C3278 C 0.57165 0.72472 0.94793 0.0
C3279 C 0.56106 0.67833 0.97759 0.0
C3280 C 0.56352 0.69414 0.96706 0.0
H3281 H 0.56837 0.75637 0.8988 0.0
H3282 H 0.55801 0.72958 0.91441 0.0
H3283 H 0.57173 0.7423 0.97401 0.0
H3284 H 0.57651 0.66885 0.01833 0.0
H3285 H 0.5793 0.69487 1.00148 0.0
C3286 C 0.05189 0.75632 0.71859 0.0
C3287 C 0.04906 0.76322 0.70231 0.0
C3288 C 0.06864 0.76138 0.72864 0.0
C3289 C 0.11412 0.79293 0.732 0.0
H3290 H 0.12727 0.7477 0.74029 0.0
C3291 C 0.182 0.7828 0.72448 0.0
C3292 C 0.1889 0.77209 0.73572 0.0
C3293 C 0.16541 0.78531 0.72599 0.0
C3294 C 0.12382 0.7606 0.7385 0.0
H3295 H 0.06125 0.78207 0.68466 0.0
H3296 H 0.09034 0.7905 0.70183 0.0
H3297 H 0.09654 0.74614 0.73356 0.0
H3298 H 0.18432 0.75667 0.75818 0.0
H3299 H 0.15522 0.76089 0.76067 0.0
H3300 H 0.1416 0.80705 0.73591 0.0
C3301 C 0.0797 0.78135 0.70703 0.0
C3302 C 0.10616 0.75972 0.73468 0.0
C3303 C 0.063 0.77634 0.69703 0.0
C3304 C 0.17918 0.76463 0.74904 0.0
C3305 C 0.16258 0.76713 0.75054 0.0
C3306 C 0.13183 0.79379 0.73576 0.0
C3307 C 0.08284 0.77342 0.72258 0.0
C3308 C 0.10113 0.77567 0.73068 0.0
C3309 C 0.15538 0.77717 0.73878 0.0
C3310 C 0.13685 0.77744 0.73837 0.0
H3311 H 0.04136 0.74636 0.72315 0.0
H3312 H 0.07061 0.75527 0.74073 0.0
H3313 H 0.11064 0.80556 0.72931 0.0
H3314 H 0.18912 0.78859 0.714 0.0
H3315 H 0.16012 0.79286 0.71652 0.0
C3316 C 0.06646 0.37077 0.4118 0.0
C3317 C 0.08179 0.36585 0.40799 0.0
C3318 C 0.06682 0.38971 0.41717 0.0
C3319 C 0.09346 0.4328 0.44379 0.0
H3320 H 0.05902 0.45517 0.42291 0.0
C3321 C 0.08076 0.49811 0.48526 0.0
C3322 C 0.06301 0.49723 0.48539 0.0
C3323 C 0.08588 0.48618 0.47178 0.0
C3324 C 0.06869 0.44915 0.42898 0.0
H3325 H 0.10948 0.37682 0.40654 0.0
H3326 H 0.11027 0.41025 0.41693 0.0
H3327 H 0.06272 0.42563 0.4065 0.0
H3328 H 0.03676 0.48433 0.47103 0.0
H3329 H 0.04542 0.46273 0.44808 0.0
H3330 H 0.09843 0.45506 0.467 0.0
C3331 C 0.09795 0.39932 0.4153 0.0
C3332 C 0.07091 0.43235 0.41946 0.0
C3333 C 0.0975 0.38029 0.40943 0.0
C3334 C 0.05053 0.48515 0.47122 0.0
C3335 C 0.05558 0.47289 0.45797 0.0
C3336 C 0.09102 0.44937 0.45348 0.0
C3337 C 0.08258 0.40412 0.41922 0.0
C3338 C 0.08293 0.42376 0.42708 0.0
C3339 C 0.07328 0.4728 0.45842 0.0
C3340 C 0.07816 0.45742 0.44651 0.0
H3341 H 0.05414 0.35993 0.41063 0.0
H3342 H 0.05486 0.39306 0.42036 0.0
H3343 H 0.10268 0.42629 0.45001 0.0
H3344 H 0.09064 0.50765 0.4959 0.0
H3345 H 0.09966 0.48698 0.47226 0.0
C3346 C 0.44672 0.25544 0.19303 0.0
C3347 C 0.45122 0.23867 0.19492 0.0
C3348 C 0.43245 0.2594 0.20067 0.0
C3349 C 0.40366 0.24619 0.23576 0.0
H3350 H 0.37602 0.27396 0.21167 0.0
C3351 C 0.34052 0.26311 0.2593 0.0
C3352 C 0.34104 0.28241 0.26083 0.0
C3353 C 0.35363 0.25638 0.25167 0.0
C3354 C 0.38366 0.26619 0.21852 0.0
H3355 H 0.44407 0.21261 0.20582 0.0
H3356 H 0.41881 0.21917 0.21861 0.0
H3357 H 0.39896 0.26429 0.19662 0.0
H3358 H 0.35587 0.30983 0.256 0.0
H3359 H 0.37848 0.298 0.2425 0.0
H3360 H 0.38796 0.24793 0.25754 0.0
C3361 C 0.42656 0.22956 0.21171 0.0
C3362 C 0.39687 0.26075 0.20999 0.0
C3363 C 0.44098 0.22574 0.20428 0.0
C3364 C 0.3551 0.2949 0.25505 0.0
C3365 C 0.36798 0.28814 0.24721 0.0
C3366 C 0.39023 0.2514 0.24418 0.0
C3367 C 0.4222 0.24652 0.21014 0.0
C3368 C 0.40728 0.25102 0.21865 0.0
C3369 C 0.36722 0.26881 0.2452 0.0
C3370 C 0.38038 0.26177 0.23577 0.0
H3371 H 0.45446 0.26574 0.18601 0.0
H3372 H 0.42971 0.27277 0.19949 0.0
H3373 H 0.41154 0.2389 0.24295 0.0
H3374 H 0.32985 0.25316 0.26366 0.0
H3375 H 0.35284 0.2414 0.25026 0.0
C3376 C 0.6242 0.54117 0.33968 0.0
C3377 C 0.63738 0.5319 0.33619 0.0
C3378 C 0.61661 0.54143 0.35639 0.0
C3379 C 0.62318 0.53398 0.40653 0.0
H3380 H 0.57412 0.53193 0.40516 0.0
C3381 C 0.58762 0.54261 0.47503 0.0
C3382 C 0.57015 0.53124 0.47415 0.0
C3383 C 0.59659 0.54312 0.45907 0.0
C3384 C 0.58787 0.53251 0.40609 0.0
H3385 H 0.65267 0.51579 0.34892 0.0
H3386 H 0.63995 0.51661 0.37778 0.0
H3387 H 0.58746 0.53173 0.3769 0.0
H3388 H 0.54894 0.5118 0.45458 0.0
H3389 H 0.56392 0.51306 0.42769 0.0
H3390 H 0.62353 0.53496 0.43588 0.0
C3391 C 0.63528 0.52368 0.36746 0.0
C3392 C 0.59571 0.53254 0.38956 0.0
C3393 C 0.64263 0.5231 0.35059 0.0
C3394 C 0.56228 0.52077 0.45643 0.0
C3395 C 0.57099 0.52158 0.44061 0.0
C3396 C 0.61541 0.53434 0.42318 0.0
C3397 C 0.62194 0.53278 0.3709 0.0
C3398 C 0.61359 0.53311 0.38915 0.0
C3399 C 0.58842 0.53275 0.44128 0.0
C3400 C 0.59742 0.53341 0.42347 0.0
H3401 H 0.61958 0.54824 0.32934 0.0
H3402 H 0.60663 0.54882 0.358 0.0
H3403 H 0.63695 0.53461 0.4074 0.0
H3404 H 0.59432 0.5514 0.48794 0.0
H3405 H 0.60988 0.55212 0.46064 0.0
C3406 C 0.28972 0.92501 0.0548 0.0
C3407 C 0.28378 0.91342 0.03739 0.0
C3408 C 0.29189 0.91687 0.07031 0.0
C3409 C 0.3022 0.87455 0.08132 0.0
H3410 H 0.28996 0.88938 0.12952 0.0
C3411 C 0.30519 0.83079 0.13787 0.0
C3412 C 0.31115 0.84037 0.15602 0.0
C3413 C 0.30257 0.84083 0.12399 0.0
C3414 C 0.29369 0.88532 0.11619 0.0
H3415 H 0.27384 0.88425 0.02286 0.0
H3416 H 0.2775 0.87015 0.04991 0.0
H3417 H 0.28222 0.90471 0.10426 0.0
H3418 H 0.31947 0.86798 0.17387 0.0
H3419 H 0.31493 0.88565 0.14946 0.0
H3420 H 0.31375 0.85529 0.0931 0.0
C3421 C 0.28087 0.8855 0.05148 0.0
C3422 C 0.28918 0.894 0.10176 0.0
C3423 C 0.27869 0.89358 0.03602 0.0
C3424 C 0.3147 0.86025 0.16 0.0
C3425 C 0.31209 0.87033 0.14607 0.0
C3426 C 0.30678 0.86597 0.0957 0.0
C3427 C 0.28813 0.89706 0.0686 0.0
C3428 C 0.29314 0.88843 0.08415 0.0
C3429 C 0.30587 0.86068 0.12796 0.0
C3430 C 0.30232 0.87103 0.1132 0.0
H3431 H 0.2937 0.94035 0.05632 0.0
H3432 H 0.29747 0.92608 0.0834 0.0
H3433 H 0.30582 0.87035 0.06796 0.0
H3434 H 0.302 0.81545 0.13445 0.0
H3435 H 0.29746 0.83297 0.11023 0.0
C3436 C 1.00349 0.58326 0.86226 0.0
C3437 C 0.98588 0.58314 0.85859 0.0
C3438 C 0.01223 0.58868 0.88013 0.0
C3439 C 1.00111 0.58469 0.92545 0.0
H3440 H 0.0516 0.60288 0.93825 0.0
C3441 C 0.05915 0.58254 0.98519 0.0
C3442 C 0.05314 0.56315 0.98594 0.0
C3443 C 0.05066 0.59031 0.97232 0.0
C3444 C 0.03746 0.5981 0.9351 0.0
H3445 H 0.96407 0.59029 0.87038 0.0
H3446 H 0.9794 0.59972 0.90185 0.0
H3447 H 0.03763 0.61013 0.91069 0.0
H3448 H 0.03404 0.53654 0.97374 0.0
H3449 H 0.0193 0.54998 0.95114 0.0
H3450 H 1.001 0.57207 0.94947 0.0
C3451 C 0.98637 0.59546 0.89087 0.0
C3452 C 0.02947 0.60216 0.91927 0.0
C3453 C 0.97762 0.59013 0.87287 0.0
C3454 C 0.03876 0.55158 0.97351 0.0
C3455 C 0.03025 0.55932 0.96073 0.0
C3456 C 0.00909 0.58067 0.94127 0.0
C3457 C 1.00352 0.59401 0.89475 0.0
C3458 C 0.01131 0.59468 0.91381 0.0
C3459 C 0.03605 0.57878 0.96004 0.0
C3460 C 0.02741 0.58653 0.94574 0.0
H3461 H 0.01025 0.57814 0.85147 0.0
H3462 H 0.02537 0.58722 0.88261 0.0
H3463 H 0.98711 0.57864 0.92163 0.0
H3464 H 0.07021 0.59175 0.99472 0.0
H3465 H 0.05542 0.60534 0.97208 0.0
C3466 C 0.30758 0.21713 0.57024 0.0
C3467 C 0.29507 0.21876 0.55636 0.0
C3468 C 0.30832 0.22572 0.58856 0.0
C3469 C 0.28072 0.24095 0.6213 0.0
H3470 H 0.32474 0.26801 0.65182 0.0
C3471 C 0.28285 0.27401 0.69809 0.0
C3472 C 0.29749 0.27494 0.71067 0.0
C3473 C 0.28264 0.26847 0.6791 0.0
C3474 C 0.3123 0.26023 0.64369 0.0
H3475 H 0.27362 0.23101 0.55106 0.0
H3476 H 0.2747 0.24575 0.58315 0.0
H3477 H 0.32445 0.25625 0.61937 0.0
H3478 H 0.32332 0.27042 0.71296 0.0
H3479 H 0.32274 0.26009 0.68027 0.0
H3480 H 0.26856 0.24413 0.64559 0.0
C3481 C 0.28404 0.23789 0.57975 0.0
C3482 C 0.31216 0.25359 0.62494 0.0
C3483 C 0.28353 0.22959 0.56131 0.0
C3484 C 0.31186 0.27008 0.70372 0.0
C3485 C 0.31156 0.26425 0.68481 0.0
C3486 C 0.28087 0.2473 0.64012 0.0
C3487 C 0.29635 0.23592 0.59366 0.0
C3488 C 0.29638 0.2438 0.61348 0.0
C3489 C 0.29697 0.26338 0.67208 0.0
C3490 C 0.29669 0.257 0.65173 0.0
H3491 H 0.31665 0.20886 0.56699 0.0
H3492 H 0.3179 0.2238 0.59888 0.0
H3493 H 0.26835 0.23326 0.61295 0.0
H3494 H 0.27157 0.27776 0.70288 0.0
H3495 H 0.27125 0.2684 0.66995 0.0
C3496 C 0.62855 0.52391 0.22403 0.0
C3497 C 0.6425 0.51543 0.22585 0.0
C3498 C 0.62022 0.52504 0.20652 0.0
C3499 C 0.61604 0.50616 0.15434 0.0
H3500 H 0.59517 0.54721 0.14972 0.0
C3501 C 0.57747 0.51019 0.08291 0.0
C3502 C 0.57659 0.52795 0.07862 0.0
C3503 C 0.58504 0.50844 0.10052 0.0
C3504 C 0.60099 0.53562 0.15043 0.0
H3505 H 0.65815 0.50145 0.20941 0.0
H3506 H 0.64396 0.50332 0.17954 0.0
H3507 H 0.60873 0.54473 0.17965 0.0
H3508 H 0.58349 0.55785 0.09064 0.0
H3509 H 0.59652 0.55493 0.12072 0.0
H3510 H 0.60857 0.49723 0.12508 0.0
C3511 C 0.63912 0.50901 0.19163 0.0
C3512 C 0.60872 0.53403 0.16802 0.0
C3513 C 0.64746 0.50795 0.2091 0.0
C3514 C 0.58366 0.54382 0.09299 0.0
C3515 C 0.59117 0.54208 0.11059 0.0
C3516 C 0.60824 0.5077 0.13677 0.0
C3517 C 0.62531 0.51772 0.18972 0.0
C3518 C 0.61657 0.51928 0.17057 0.0
C3519 C 0.59215 0.52434 0.11497 0.0
C3520 C 0.60049 0.52252 0.1342 0.0
H3521 H 0.62416 0.53005 0.23625 0.0
H3522 H 0.60963 0.53167 0.20626 0.0
H3523 H 0.62153 0.49435 0.15511 0.0
H3524 H 0.57229 0.49746 0.07257 0.0
H3525 H 0.58505 0.49437 0.1028 0.0
C3526 C 0.28743 0.86047 0.94196 0.0
C3527 C 0.27982 0.87547 0.94086 0.0
C3528 C 0.28659 0.84699 0.92643 0.0
C3529 C 0.26513 0.82631 0.87938 0.0
H3530 H 0.31164 0.82375 0.87012 0.0
C3531 C 0.27924 0.77967 0.81539 0.0
C3532 C 0.29037 0.79073 0.80519 0.0
C3533 C 0.27726 0.78744 0.83315 0.0
C3534 C 0.29857 0.82418 0.87265 0.0
H3535 H 0.26425 0.88731 0.92293 0.0
H3536 H 0.26271 0.86352 0.89562 0.0
H3537 H 0.30792 0.84172 0.89908 0.0
H3538 H 0.30839 0.8183 0.80557 0.0
H3539 H 0.30551 0.83152 0.83679 0.0
H3540 H 0.25591 0.809 0.85266 0.0
C3541 C 0.26935 0.86233 0.90858 0.0
C3542 C 0.29642 0.83437 0.8892 0.0
C3543 C 0.2703 0.87596 0.92416 0.0
C3544 C 0.29994 0.80937 0.81322 0.0
C3545 C 0.29825 0.81696 0.83104 0.0
C3546 C 0.26726 0.81583 0.86289 0.0
C3547 C 0.278 0.84812 0.90949 0.0
C3548 C 0.27973 0.83581 0.89259 0.0
C3549 C 0.28669 0.80618 0.84103 0.0
C3550 C 0.28406 0.81503 0.85929 0.0
H3551 H 0.29471 0.85954 0.95467 0.0
H3552 H 0.29316 0.83602 0.92752 0.0
H3553 H 0.25215 0.8272 0.88173 0.0
H3554 H 0.27163 0.76529 0.80944 0.0
H3555 H 0.2683 0.7789 0.84068 0.0
C3556 C 0.94901 0.55759 0.7412 0.0
C3557 C 0.9614 0.56177 0.75704 0.0
C3558 C 0.95425 0.55555 0.72381 0.0
C3559 C 0.99267 0.56476 0.69903 0.0
H3560 H 0.96696 0.51783 0.66628 0.0
C3561 C 0.02219 0.53148 0.63979 0.0
C3562 C 0.01141 0.52374 0.6229 0.0
C3563 C 0.0151 0.53737 0.65529 0.0
C3564 C 0.9741 0.53114 0.67513 0.0
H3565 H 0.98911 0.56818 0.76707 0.0
H3566 H 0.99823 0.56456 0.73675 0.0
H3567 H 0.95625 0.52733 0.69486 0.0
H3568 H 0.9847 0.51576 0.60907 0.0
H3569 H 0.9723 0.52631 0.63624 0.0
H3570 H 0.01071 0.56839 0.67947 0.0
C3571 C 0.98447 0.56291 0.73777 0.0
C3572 C 0.96796 0.53659 0.69146 0.0
C3573 C 0.97924 0.56487 0.75515 0.0
C3574 C 0.99333 0.52178 0.62189 0.0
C3575 C 0.98622 0.5277 0.63745 0.0
C3576 C 0.99879 0.55934 0.68268 0.0
C3577 C 0.97199 0.55777 0.72195 0.0
C3578 C 0.97738 0.55327 0.70372 0.0
C3579 C 0.99709 0.53573 0.65425 0.0
C3580 C 0.98976 0.54227 0.67076 0.0
H3581 H 0.93516 0.55521 0.7422 0.0
H3582 H 0.9444 0.55181 0.71181 0.0
H3583 H 1.00005 0.57782 0.70813 0.0
H3584 H 0.0362 0.53344 0.64095 0.0
H3585 H 0.02375 0.54321 0.66814 0.0
C3586 C 0.30073 0.21987 0.44445 0.0
C3587 C 0.28555 0.2192 0.4529 0.0
C3588 C 0.3028 0.22732 0.4282 0.0
C3589 C 0.27782 0.23692 0.38768 0.0
H3590 H 0.32177 0.27223 0.38323 0.0
C3591 C 0.28548 0.27678 0.32547 0.0
C3592 C 0.30214 0.28281 0.32003 0.0
C3593 C 0.28331 0.26838 0.34119 0.0
C3594 C 0.30946 0.2621 0.38391 0.0
H3595 H 0.26057 0.22577 0.45054 0.0
H3596 H 0.26404 0.23835 0.42215 0.0
H3597 H 0.31852 0.25882 0.41102 0.0
H3598 H 0.32943 0.28386 0.32641 0.0
H3599 H 0.32565 0.26851 0.35304 0.0
H3600 H 0.26882 0.23969 0.36046 0.0
C3601 C 0.27441 0.2332 0.42813 0.0
C3602 C 0.30759 0.25446 0.40005 0.0
C3603 C 0.27247 0.22608 0.44452 0.0
C3604 C 0.31643 0.27957 0.33031 0.0
C3605 C 0.31424 0.2709 0.3458 0.0
C3606 C 0.27977 0.24431 0.37139 0.0
C3607 C 0.28962 0.234 0.41971 0.0
C3608 C 0.29172 0.24183 0.40225 0.0
C3609 C 0.2977 0.26545 0.35182 0.0
C3610 C 0.29561 0.25714 0.36918 0.0
H3611 H 0.31108 0.2147 0.45044 0.0
H3612 H 0.31465 0.22757 0.4221 0.0
H3613 H 0.26545 0.22706 0.38873 0.0
H3614 H 0.27419 0.27912 0.31791 0.0
H3615 H 0.27036 0.26471 0.34524 0.0
C3616 C 0.33854 0.60015 0.54625 0.0
C3617 C 0.33072 0.60875 0.53351 0.0
C3618 C 0.35259 0.59308 0.54231 0.0
C3619 C 0.37347 0.57363 0.50635 0.0
H3620 H 0.41495 0.59071 0.54288 0.0
C3621 C 0.43533 0.54767 0.49806 0.0
C3622 C 0.44378 0.54405 0.514 0.0
C3623 C 0.42188 0.55652 0.49915 0.0
C3624 C 0.40341 0.58564 0.53263 0.0
H3625 H 0.33108 0.61616 0.5064 0.0
H3626 H 0.35561 0.60322 0.49933 0.0
H3627 H 0.39044 0.60419 0.54685 0.0
H3628 H 0.44462 0.54633 0.54345 0.0
H3629 H 0.42086 0.56129 0.54537 0.0
H3630 H 0.38609 0.55447 0.4925 0.0
C3631 C 0.35086 0.60224 0.51242 0.0
C3632 C 0.38947 0.59346 0.53486 0.0
C3633 C 0.3369 0.60963 0.51648 0.0
C3634 C 0.43843 0.54918 0.531 0.0
C3635 C 0.4249 0.55784 0.53208 0.0
C3636 C 0.38737 0.56559 0.50422 0.0
C3637 C 0.35897 0.59422 0.52547 0.0
C3638 C 0.37428 0.58727 0.52192 0.0
C3639 C 0.41657 0.56178 0.5162 0.0
C3640 C 0.40236 0.57126 0.51755 0.0
H3641 H 0.3341 0.59928 0.5595 0.0
H3642 H 0.35855 0.58674 0.55249 0.0
H3643 H 0.36181 0.56862 0.49625 0.0
H3644 H 0.43939 0.54405 0.48481 0.0
H3645 H 0.41589 0.55954 0.4867 0.0
C3646 C 0.87123 0.95144 0.54265 0.0
C3647 C 0.86698 0.93205 0.54387 0.0
C3648 C 0.88861 0.96159 0.54195 0.0
C3649 C 0.93454 0.96201 0.5546 0.0
H3650 H 0.94498 0.993 0.51731 0.0
C3651 C 1.00296 0.0146 0.55433 0.0
C3652 C 0.00957 0.01418 0.53745 0.0
C3653 C 0.98576 1.00423 0.55532 0.0
C3654 C 0.94228 0.98437 0.52778 0.0
H3655 H 0.87788 0.9083 0.54564 0.0
H3656 H 0.90809 0.92608 0.54485 0.0
H3657 H 0.91454 0.9761 0.51889 0.0
H3658 H 1.00334 1.00234 0.50838 0.0
H3659 H 0.9732 0.98454 0.51004 0.0
H3660 H 0.96226 0.97045 0.56363 0.0
C3661 C 0.89797 0.9334 0.54429 0.0
C3662 C 0.92483 0.97482 0.52878 0.0
C3663 C 0.8806 0.92318 0.54464 0.0
C3664 C 0.99865 1.00296 0.5216 0.0
C3665 C 0.98134 0.99286 0.52253 0.0
C3666 C 0.95196 0.97184 0.55382 0.0
C3667 C 0.90221 0.95271 0.54283 0.0
C3668 C 0.92074 0.9634 0.54213 0.0
C3669 C 0.97464 0.99343 0.53939 0.0
C3670 C 0.95607 0.98305 0.54032 0.0
H3671 H 0.8611 0.95872 0.54199 0.0
H3672 H 0.89144 0.97648 0.54093 0.0
H3673 H 0.93185 0.95342 0.56511 0.0
H3674 H 0.01107 0.02309 0.56678 0.0
H3675 H 0.98101 1.00504 0.5685 0.0
C3676 C 0.89515 0.12481 0.2629 0.0
C3677 C 0.89038 0.10938 0.24783 0.0
C3678 C 0.8876 0.1405 0.26398 0.0
C3679 C 0.85012 0.15809 0.24079 0.0
H3680 H 0.87377 0.20579 0.27302 0.0
C3681 C 0.81604 0.22171 0.24982 0.0
C3682 C 0.82578 0.24092 0.25644 0.0
C3683 C 0.82383 0.20625 0.2489 0.0
C3684 C 0.86676 0.19277 0.26373 0.0
H3685 H 0.87328 0.09952 0.22192 0.0
H3686 H 0.86052 0.12628 0.22354 0.0
H3687 H 0.88687 0.17944 0.27101 0.0
H3688 H 0.85223 0.25786 0.26722 0.0
H3689 H 0.86567 0.23154 0.26552 0.0
H3690 H 0.83021 0.17151 0.23318 0.0
C3691 C 0.87001 0.12639 0.23495 0.0
C3692 C 0.87439 0.17714 0.26271 0.0
C3693 C 0.87755 0.11071 0.2339 0.0
C3694 C 0.84389 0.24361 0.2621 0.0
C3695 C 0.85172 0.22811 0.26116 0.0
C3696 C 0.8425 0.17371 0.24181 0.0
C3697 C 0.87472 0.14193 0.25004 0.0
C3698 C 0.86637 0.15916 0.25119 0.0
C3699 C 0.84199 0.2088 0.25449 0.0
C3700 C 0.85049 0.19168 0.25334 0.0
H3701 H 0.90484 0.12481 0.2741 0.0
H3702 H 0.89188 0.15147 0.2761 0.0
H3703 H 0.8429 0.14497 0.23177 0.0
H3704 H 0.80213 0.21847 0.24527 0.0
H3705 H 0.81527 0.1921 0.24391 0.0
C3706 C 0.7411 0.10515 0.05034 0.0
C3707 C 0.74868 0.12426 0.0494 0.0
C3708 C 0.72309 0.09852 0.05076 0.0
C3709 C 0.68231 0.11017 0.03685 0.0
H3710 H 0.66157 0.07174 0.06443 0.0
C3711 C 0.6101 0.06701 0.02036 0.0
C3712 C 0.60085 0.06279 0.03506 0.0
C3713 C 0.62808 0.0757 0.0235 0.0
C3714 C 0.66718 0.08264 0.05681 0.0
H3715 H 0.74362 0.15167 0.04935 0.0
H3716 H 0.7124 0.14021 0.05046 0.0
H3717 H 0.69337 0.0848 0.06843 0.0
H3718 H 0.60313 0.06483 0.06465 0.0
H3719 H 0.63455 0.08028 0.07014 0.0
H3720 H 0.6562 0.10819 0.02534 0.0
C3721 C 0.72021 0.13022 0.05034 0.0
C3722 C 0.68538 0.08995 0.05895 0.0
C3723 C 0.73811 0.13679 0.04978 0.0
C3724 C 0.60989 0.06783 0.05302 0.0
C3725 C 0.6279 0.07656 0.05617 0.0
C3726 C 0.66416 0.10291 0.03474 0.0
C3727 C 0.71242 0.11094 0.05037 0.0
C3728 C 0.69313 0.10369 0.04888 0.0
C3729 C 0.6372 0.08043 0.04142 0.0
C3730 C 0.65641 0.08893 0.04455 0.0
H3731 H 0.74894 0.09518 0.05006 0.0
H3732 H 0.71744 0.08355 0.05065 0.0
H3733 H 0.68788 0.12057 0.0287 0.0
H3734 H 0.60356 0.06329 0.00635 0.0
H3735 H 0.63492 0.07827 0.01182 0.0
C3736 C 0.21506 0.48901 0.24379 0.0
C3737 C 0.20251 0.49666 0.25169 0.0
C3738 C 0.2255 0.48081 0.25413 0.0
C3739 C 0.22767 0.45788 0.29399 0.0
H3740 H 0.27644 0.46709 0.28662 0.0
C3741 C 0.26679 0.40403 0.29963 0.0
C3742 C 0.28512 0.41028 0.30394 0.0
C3743 C 0.257 0.4171 0.29928 0.0
C3744 C 0.26298 0.46464 0.28925 0.0
H3745 H 0.19084 0.50142 0.27657 0.0
H3746 H 0.20914 0.48686 0.29468 0.0
H3747 H 0.25881 0.4855 0.27375 0.0
H3748 H 0.30744 0.435 0.31287 0.0
H3749 H 0.29028 0.45794 0.31257 0.0
H3750 H 0.23179 0.43667 0.30917 0.0
C3751 C 0.21085 0.4873 0.28046 0.0
C3752 C 0.25281 0.47502 0.28162 0.0
C3753 C 0.20041 0.49563 0.2701 0.0
C3754 C 0.29334 0.42981 0.30941 0.0
C3755 C 0.28352 0.44292 0.3091 0.0
C3756 C 0.23788 0.44747 0.30166 0.0
C3757 C 0.22364 0.48003 0.27261 0.0
C3758 C 0.23491 0.47125 0.28331 0.0
C3759 C 0.26534 0.43671 0.30331 0.0
C3760 C 0.25549 0.45028 0.2988 0.0
H3761 H 0.21697 0.48951 0.22963 0.0
H3762 H 0.23498 0.47493 0.24758 0.0
H3763 H 0.21391 0.45472 0.29555 0.0
H3764 H 0.26008 0.38902 0.29573 0.0
H3765 H 0.24305 0.41178 0.29465 0.0
C3766 C 0.27248 0.45265 0.05831 0.0
C3767 C 0.2731 0.43692 0.04542 0.0
C3768 C 0.25821 0.4604 0.05703 0.0
C3769 C 0.21137 0.44907 0.03654 0.0
H3770 H 0.21922 0.50355 0.04939 0.0
C3771 C 0.15499 0.48538 0.02769 0.0
C3772 C 0.1552 0.50102 0.04119 0.0
C3773 C 0.16917 0.47737 0.02767 0.0
C3774 C 0.2167 0.48828 0.04596 0.0
H3775 H 0.25902 0.41712 0.02092 0.0
H3776 H 0.23417 0.4307 0.01856 0.0
H3777 H 0.24409 0.49023 0.05006 0.0
H3778 H 0.17091 0.52049 0.06519 0.0
H3779 H 0.19524 0.50636 0.0654 0.0
H3780 H 0.18394 0.44715 0.03252 0.0
C3781 C 0.24469 0.43696 0.02983 0.0
C3782 C 0.23105 0.4806 0.04633 0.0
C3783 C 0.25903 0.42923 0.03109 0.0
C3784 C 0.17004 0.50832 0.05469 0.0
C3785 C 0.1842 0.50035 0.05465 0.0
C3786 C 0.197 0.45676 0.03618 0.0
C3787 C 0.24403 0.45265 0.04281 0.0
C3788 C 0.22864 0.46085 0.04175 0.0
C3789 C 0.18406 0.48479 0.04111 0.0
C3790 C 0.19941 0.4765 0.04102 0.0
H3791 H 0.28299 0.45894 0.0696 0.0
H3792 H 0.25815 0.47226 0.06747 0.0
H3793 H 0.2089 0.43379 0.03315 0.0
H3794 H 0.14379 0.4792 0.01714 0.0
H3795 H 0.16856 0.46553 0.0169 0.0
C3796 C 0.87555 0.99717 0.25325 0.0
C3797 C 0.89387 1.00354 0.25889 0.0
C3798 C 0.8656 0.9783 0.25405 0.0
C3799 C 0.87069 0.92886 0.25859 0.0
H3800 H 0.82304 0.91851 0.26936 0.0
C3801 C 0.83181 0.85176 0.26967 0.0
C3802 C 0.8133 0.84606 0.26641 0.0
C3803 C 0.84163 0.87063 0.26876 0.0
C3804 C 0.83623 0.92076 0.26602 0.0
H3805 H 0.91556 0.99392 0.26991 0.0
H3806 H 0.89867 0.96202 0.27124 0.0
H3807 H 0.83902 0.95068 0.26717 0.0
H3808 H 0.79103 0.85648 0.2593 0.0
H3809 H 0.80762 0.8883 0.25724 0.0
H3810 H 0.86792 0.89898 0.25723 0.0
C3811 C 0.89178 0.97135 0.26597 0.0
C3812 C 0.84556 0.93961 0.26479 0.0
C3813 C 0.90161 0.99007 0.26533 0.0
C3814 C 0.80518 0.86002 0.26207 0.0
C3815 C 0.81489 0.87868 0.26105 0.0
C3816 C 0.86133 0.90998 0.25968 0.0
C3817 C 0.87351 0.96481 0.26032 0.0
C3818 C 0.8631 0.94424 0.26112 0.0
C3819 C 0.83342 0.88471 0.26446 0.0
C3820 C 0.84379 0.90531 0.26345 0.0
H3821 H 0.86884 1.00672 0.24814 0.0
H3822 H 0.85166 0.97421 0.2494 0.0
H3823 H 0.88397 0.93127 0.25542 0.0
H3824 H 0.83875 0.8417 0.27309 0.0
H3825 H 0.85575 0.87418 0.27173 0.0
C3826 C 0.70359 0.08768 0.72941 0.0
C3827 C 0.68558 0.08547 0.7296 0.0
C3828 C 0.71526 0.10584 0.73209 0.0
C3829 C 0.71855 0.15479 0.75374 0.0
H3830 H 0.75863 0.16834 0.72782 0.0
C3831 C 0.77108 0.22636 0.74215 0.0
C3832 C 0.77589 0.2364 0.7603 0.0
C3833 C 0.76113 0.20743 0.7385 0.0
C3834 C 0.74745 0.16475 0.73513 0.0
H3835 H 0.66552 0.1004 0.7314 0.0
H3836 H 0.68579 0.13194 0.73569 0.0
H3837 H 0.73862 0.13632 0.71983 0.0
H3838 H 0.77431 0.23426 0.78891 0.0
H3839 H 0.75694 0.20111 0.7825 0.0
H3840 H 0.72707 0.18327 0.76873 0.0
C3841 C 0.69097 0.11973 0.73401 0.0
C3842 C 0.7361 0.1464 0.73065 0.0
C3843 C 0.67935 0.10165 0.73141 0.0
C3844 C 0.77073 0.22699 0.77477 0.0
C3845 C 0.76074 0.20802 0.7711 0.0
C3846 C 0.72989 0.17309 0.75822 0.0
C3847 C 0.70908 0.12204 0.73494 0.0
C3848 C 0.72143 0.14132 0.73979 0.0
C3849 C 0.75575 0.1981 0.75291 0.0
C3850 C 0.74437 0.17832 0.74886 0.0
H3851 H 0.70878 0.07547 0.72808 0.0
H3852 H 0.72917 0.10721 0.73278 0.0
H3853 H 0.70753 0.15118 0.76126 0.0
H3854 H 0.77482 0.23315 0.73066 0.0
H3855 H 0.75728 0.20025 0.72434 0.0
loop_
_geom_bond_atom_site_label_1
_geom_bond_atom_site_label_2
_geom_bond_distance
_geom_bond_site_symmetry_2
_ccdc_geom_bond_type
O0 Cd1 2.223 . S
O0 C8 1.315 . S
Cd1 O0 2.223 . S
Cd1 O4 2.297 . S
Cd1 O5 2.439 . S
Cd1 O11 2.240 . S
Cd2 O3 2.240 . S
Cd2 O10 2.223 . S
Cd2 O12 2.297 . S
Cd2 O13 2.439 . S
O3 Cd2 2.240 . S
O3 C8 1.279 . S
O4 Cd1 2.297 . S
O4 C6 1.247 . S
O5 Cd1 2.439 . S
O5 C6 1.208 . S
C6 O4 1.247 . S
C6 O5 1.208 . S
C7 O12 1.247 . S
C7 O13 1.208 . S
C8 O0 1.315 . S
C8 O3 1.279 . S
C9 O10 1.315 . S
C9 O11 1.279 . S
O10 Cd2 2.223 . S
O10 C9 1.315 . S
O11 Cd1 2.240 . S
O11 C9 1.279 . S
O12 Cd2 2.297 . S
O12 C7 1.247 . S
O13 Cd2 2.439 . S
O13 C7 1.208 . S
O14 Cd15 2.248 . S
O14 C22 1.322 . S
Cd15 O14 2.248 . S
Cd15 O18 2.297 . S
Cd15 O19 2.439 . S
Cd15 O25 2.240 1_655 S
Cd16 O17 2.240 1_455 S
Cd16 O24 2.223 . S
Cd16 O26 2.297 . S
Cd16 O27 2.444 . S
O17 Cd16 2.240 1_655 S
O17 C22 1.279 . S
O18 Cd15 2.297 . S
O18 C20 1.247 . S
O19 Cd15 2.439 . S
O19 C20 1.208 . S
C20 O18 1.247 . S
C20 O19 1.208 . S
C21 O26 1.247 . S
C21 O27 1.214 . S
C22 O14 1.322 . S
C22 O17 1.279 . S
C23 O24 1.315 . S
C23 O25 1.279 . S
O24 Cd16 2.223 . S
O24 C23 1.315 . S
O25 Cd15 2.240 1_455 S
O25 C23 1.279 . S
O26 Cd16 2.297 . S
O26 C21 1.247 . S
O27 Cd16 2.444 . S
O27 C21 1.214 . S
O28 Cd29 2.223 . S
O28 C36 1.315 . S
Cd29 O28 2.223 . S
Cd29 O32 2.297 . S
Cd29 O33 2.439 . S
Cd29 O39 2.240 . S
Cd30 O31 2.240 . S
Cd30 O38 2.223 . S
Cd30 O40 2.297 . S
Cd30 O41 2.439 . S
O31 Cd30 2.240 . S
O31 C36 1.279 . S
O32 Cd29 2.297 . S
O32 C34 1.247 . S
O33 Cd29 2.439 . S
O33 C34 1.208 . S
C34 O32 1.247 . S
C34 O33 1.208 . S
C35 O40 1.247 . S
C35 O41 1.208 . S
C36 O28 1.315 . S
C36 O31 1.279 . S
C37 O38 1.315 . S
C37 O39 1.279 . S
O38 Cd30 2.223 . S
O38 C37 1.315 . S
O39 Cd29 2.240 . S
O39 C37 1.279 . S
O40 Cd30 2.297 . S
O40 C35 1.247 . S
O41 Cd30 2.439 . S
O41 C35 1.208 . S
O42 Cd43 2.223 . S
O42 C50 1.315 . S
Cd43 O42 2.223 . S
Cd43 O46 2.297 . S
Cd43 O47 2.439 . S
Cd43 O53 2.240 . S
Cd44 O45 2.240 . S
Cd44 O52 2.223 . S
Cd44 O54 2.297 . S
Cd44 O55 2.439 . S
O45 Cd44 2.240 . S
O45 C50 1.279 . S
O46 Cd43 2.297 . S
O46 C48 1.247 . S
O47 Cd43 2.439 . S
O47 C48 1.208 . S
C48 O46 1.247 . S
C48 O47 1.208 . S
C49 O54 1.247 . S
C49 O55 1.208 . S
C50 O42 1.315 . S
C50 O45 1.279 . S
C51 O52 1.315 . S
C51 O53 1.279 . S
O52 Cd44 2.223 . S
O52 C51 1.315 . S
O53 Cd43 2.240 . S
O53 C51 1.279 . S
O54 Cd44 2.297 . S
O54 C49 1.247 . S
O55 Cd44 2.439 . S
O55 C49 1.208 . S
O56 Cd57 2.223 . S
O56 C64 1.315 . S
Cd57 O56 2.223 . S
Cd57 O60 2.297 . S
Cd57 O61 2.439 . S
Cd57 O67 2.240 . S
Cd58 O59 2.240 . S
Cd58 O66 2.223 . S
Cd58 O68 2.297 . S
Cd58 O69 2.439 . S
O59 Cd58 2.240 . S
O59 C64 1.279 . S
O60 Cd57 2.297 . S
O60 C62 1.247 . S
O61 Cd57 2.439 . S
O61 C62 1.208 . S
C62 O60 1.247 . S
C62 O61 1.208 . S
C63 O68 1.247 . S
C63 O69 1.208 . S
C64 O56 1.315 . S
C64 O59 1.279 . S
C65 O66 1.315 . S
C65 O67 1.279 . S
O66 Cd58 2.223 . S
O66 C65 1.315 . S
O67 Cd57 2.240 . S
O67 C65 1.279 . S
O68 Cd58 2.297 . S
O68 C63 1.247 . S
O69 Cd58 2.439 . S
O69 C63 1.208 . S
O70 Cd71 2.223 . S
O70 C78 1.315 . S
Cd71 O70 2.223 . S
Cd71 O74 2.297 . S
Cd71 O75 2.439 . S
Cd71 O81 2.240 . S
Cd72 O73 2.240 . S
Cd72 O80 2.223 . S
Cd72 O82 2.297 . S
Cd72 O83 2.439 . S
O73 Cd72 2.240 . S
O73 C78 1.279 . S
O74 Cd71 2.297 . S
O74 C76 1.247 . S
O75 Cd71 2.439 . S
O75 C76 1.208 . S
C76 O74 1.247 . S
C76 O75 1.208 . S
C77 O82 1.247 . S
C77 O83 1.208 . S
C78 O70 1.315 . S
C78 O73 1.279 . S
C79 O80 1.315 . S
C79 O81 1.279 . S
O80 Cd72 2.223 . S
O80 C79 1.315 . S
O81 Cd71 2.240 . S
O81 C79 1.279 . S
O82 Cd72 2.297 . S
O82 C77 1.247 . S
O83 Cd72 2.439 . S
O83 C77 1.208 . S
O84 Cd85 2.223 . S
O84 C92 1.315 . S
Cd85 O84 2.223 . S
Cd85 O88 2.297 . S
Cd85 O89 2.439 . S
Cd85 O95 2.240 . S
Cd86 O87 2.240 . S
Cd86 O94 2.223 . S
Cd86 O96 2.297 . S
Cd86 O97 2.439 . S
O87 Cd86 2.240 . S
O87 C92 1.279 . S
O88 Cd85 2.297 . S
O88 C90 1.247 . S
O89 Cd85 2.439 . S
O89 C90 1.208 . S
C90 O88 1.247 . S
C90 O89 1.208 . S
C91 O96 1.247 . S
C91 O97 1.208 . S
C92 O84 1.315 . S
C92 O87 1.279 . S
C93 O94 1.315 . S
C93 O95 1.279 . S
O94 Cd86 2.223 . S
O94 C93 1.315 . S
O95 Cd85 2.240 . S
O95 C93 1.279 . S
O96 Cd86 2.297 . S
O96 C91 1.247 . S
O97 Cd86 2.439 . S
O97 C91 1.208 . S
O98 Cd99 2.223 . S
O98 C106 1.315 . S
Cd99 O98 2.223 . S
Cd99 O102 2.297 . S
Cd99 O103 2.439 . S
Cd99 O109 2.240 . S
Cd100 O101 2.240 . S
Cd100 O108 2.223 1_455 S
Cd100 O110 2.297 . S
Cd100 O111 2.439 . S
O101 Cd100 2.240 . S
O101 C106 1.279 . S
O102 Cd99 2.297 . S
O102 C104 1.247 . S
O103 Cd99 2.439 . S
O103 C104 1.208 . S
C104 O102 1.247 . S
C104 O103 1.208 . S
C105 O110 1.247 . S
C105 O111 1.208 . S
C106 O98 1.315 . S
C106 O101 1.279 . S
C107 O108 1.315 . S
C107 O109 1.279 1_655 S
O108 Cd100 2.223 1_655 S
O108 C107 1.315 . S
O109 Cd99 2.240 . S
O109 C107 1.279 1_455 S
O110 Cd100 2.297 . S
O110 C105 1.247 . S
O111 Cd100 2.439 . S
O111 C105 1.208 . S
O112 Cd113 2.223 . S
O112 C120 1.315 . S
Cd113 O112 2.223 . S
Cd113 O116 2.297 . S
Cd113 O117 2.439 . S
Cd113 O123 2.240 1_545 S
Cd114 O115 2.240 . S
Cd114 O122 2.223 1_545 S
Cd114 O124 2.297 . S
Cd114 O125 2.439 . S
O115 Cd114 2.240 . S
O115 C120 1.279 . S
O116 Cd113 2.297 . S
O116 C118 1.247 . S
O117 Cd113 2.439 . S
O117 C118 1.208 . S
C118 O116 1.247 . S
C118 O117 1.208 . S
C119 O124 1.247 . S
C119 O125 1.208 . S
C120 O112 1.315 . S
C120 O115 1.279 . S
C121 O122 1.315 . S
C121 O123 1.279 . S
O122 Cd114 2.223 1_565 S
O122 C121 1.315 . S
O123 Cd113 2.240 1_565 S
O123 C121 1.279 . S
O124 Cd114 2.297 . S
O124 C119 1.247 . S
O125 Cd114 2.439 . S
O125 C119 1.208 . S
O126 Cd127 2.223 . S
O126 C134 1.315 . S
Cd127 O126 2.223 . S
Cd127 O130 2.297 . S
Cd127 O131 2.439 . S
Cd127 O137 2.240 . S
Cd128 O129 2.240 . S
Cd128 O136 2.223 . S
Cd128 O138 2.297 . S
Cd128 O139 2.439 . S
O129 Cd128 2.240 . S
O129 C134 1.279 . S
O130 Cd127 2.297 . S
O130 C132 1.247 . S
O131 Cd127 2.439 . S
O131 C132 1.208 . S
C132 O130 1.247 . S
C132 O131 1.208 . S
C133 O138 1.247 . S
C133 O139 1.208 . S
C134 O126 1.315 . S
C134 O129 1.279 . S
C135 O136 1.315 . S
C135 O137 1.279 . S
O136 Cd128 2.223 . S
O136 C135 1.315 . S
O137 Cd127 2.240 . S
O137 C135 1.279 . S
O138 Cd128 2.297 . S
O138 C133 1.247 . S
O139 Cd128 2.439 . S
O139 C133 1.208 . S
O140 Cd141 2.223 1_545 S
O140 C148 1.315 1_545 S
Cd141 O140 2.223 1_565 S
Cd141 O144 2.297 . S
Cd141 O145 2.439 . S
Cd141 O151 2.240 1_565 S
Cd142 O143 2.240 1_545 S
Cd142 O150 2.223 . S
Cd142 O152 2.297 . S
Cd142 O153 2.439 1_545 S
O143 Cd142 2.240 1_565 S
O143 C148 1.279 . S
O144 Cd141 2.297 . S
O144 C146 1.247 . S
O145 Cd141 2.439 . S
O145 C146 1.208 . S
C146 O144 1.247 . S
C146 O145 1.208 . S
C147 O152 1.247 . S
C147 O153 1.208 1_545 S
C148 O140 1.315 1_565 S
C148 O143 1.279 . S
C149 O150 1.315 . S
C149 O151 1.279 . S
O150 Cd142 2.223 . S
O150 C149 1.315 . S
O151 Cd141 2.240 1_545 S
O151 C149 1.279 . S
O152 Cd142 2.297 . S
O152 C147 1.247 . S
O153 Cd142 2.439 1_565 S
O153 C147 1.208 1_565 S
O154 Cd155 2.223 . S
O154 C162 1.315 . S
Cd155 O154 2.223 . S
Cd155 O158 2.297 . S
Cd155 O159 2.439 1_554 S
Cd155 O165 2.272 . S
Cd156 O157 2.240 1_556 S
Cd156 O164 2.223 1_556 S
Cd156 O166 2.297 . S
Cd156 O167 2.439 . S
O157 Cd156 2.240 1_554 S
O157 C162 1.279 . S
O158 Cd155 2.297 . S
O158 C160 1.247 . S
O159 Cd155 2.439 1_556 S
O159 C160 1.208 1_556 S
C160 O158 1.247 . S
C160 O159 1.208 1_554 S
C161 O166 1.247 . S
C161 O167 1.208 . S
C162 O154 1.315 . S
C162 O157 1.279 . S
C163 O164 1.315 . S
C163 O165 1.299 . S
O164 Cd156 2.223 1_554 S
O164 C163 1.315 . S
O165 Cd155 2.272 . S
O165 C163 1.299 . S
O166 Cd156 2.297 . S
O166 C161 1.247 . S
O167 Cd156 2.439 . S
O167 C161 1.208 . S
O168 Cd169 2.223 . S
O168 C176 1.315 . S
Cd169 O168 2.223 . S
Cd169 O172 2.297 . S
Cd169 O173 2.439 . S
Cd169 O179 2.240 . S
Cd170 O171 2.240 . S
Cd170 O178 2.223 . S
Cd170 O180 2.297 1_554 S
Cd170 O181 2.439 1_554 S
O171 Cd170 2.240 . S
O171 C176 1.279 . S
O172 Cd169 2.297 . S
O172 C174 1.247 . S
O173 Cd169 2.439 . S
O173 C174 1.208 . S
C174 O172 1.247 . S
C174 O173 1.208 . S
C175 O180 1.247 . S
C175 O181 1.208 . S
C176 O168 1.315 . S
C176 O171 1.279 . S
C177 O178 1.315 . S
C177 O179 1.279 . S
O178 Cd170 2.223 . S
O178 C177 1.315 . S
O179 Cd169 2.240 . S
O179 C177 1.279 . S
O180 Cd170 2.297 1_556 S
O180 C175 1.247 . S
O181 Cd170 2.439 1_556 S
O181 C175 1.208 . S
O182 Cd183 2.223 . S
O182 C190 1.315 . S
Cd183 O182 2.223 . S
Cd183 O186 2.297 . S
Cd183 O187 2.439 . S
Cd183 O193 2.240 . S
Cd184 O185 2.240 . S
Cd184 O192 2.223 . S
Cd184 O194 2.297 1_554 S
Cd184 O195 2.439 1_554 S
O185 Cd184 2.240 . S
O185 C190 1.279 . S
O186 Cd183 2.297 . S
O186 C188 1.247 . S
O187 Cd183 2.439 . S
O187 C188 1.208 . S
C188 O186 1.247 . S
C188 O187 1.208 . S
C189 O194 1.247 . S
C189 O195 1.208 . S
C190 O182 1.315 . S
C190 O185 1.279 . S
C191 O192 1.315 . S
C191 O193 1.279 . S
O192 Cd184 2.223 . S
O192 C191 1.315 . S
O193 Cd183 2.240 . S
O193 C191 1.279 . S
O194 Cd184 2.297 1_556 S
O194 C189 1.247 . S
O195 Cd184 2.439 1_556 S
O195 C189 1.208 . S
O196 Cd197 2.223 . S
O196 C204 1.315 . S
Cd197 O196 2.223 . S
Cd197 O200 2.297 . S
Cd197 O201 2.439 . S
Cd197 O207 2.240 . S
Cd198 O199 2.240 . S
Cd198 O206 2.223 . S
Cd198 O208 2.297 . S
Cd198 O209 2.439 . S
O199 Cd198 2.240 . S
O199 C204 1.279 . S
O200 Cd197 2.297 . S
O200 C202 1.247 . S
O201 Cd197 2.439 . S
O201 C202 1.208 . S
C202 O200 1.247 . S
C202 O201 1.208 . S
C203 O208 1.247 . S
C203 O209 1.208 . S
C204 O196 1.315 . S
C204 O199 1.279 . S
C205 O206 1.315 . S
C205 O207 1.279 . S
O206 Cd198 2.223 . S
O206 C205 1.315 . S
O207 Cd197 2.240 . S
O207 C205 1.279 . S
O208 Cd198 2.297 . S
O208 C203 1.247 . S
O209 Cd198 2.439 . S
O209 C203 1.208 . S
O210 Cd211 2.223 . S
O210 C218 1.315 . S
Cd211 O210 2.223 . S
Cd211 O214 2.297 . S
Cd211 O215 2.439 . S
Cd211 O221 2.240 . S
Cd212 O213 2.240 . S
Cd212 O220 2.223 . S
Cd212 O222 2.297 . S
Cd212 O223 2.439 . S
O213 Cd212 2.240 . S
O213 C218 1.279 . S
O214 Cd211 2.297 . S
O214 C216 1.247 . S
O215 Cd211 2.439 . S
O215 C216 1.208 . S
C216 O214 1.247 . S
C216 O215 1.208 . S
C217 O222 1.247 . S
C217 O223 1.208 . S
C218 O210 1.315 . S
C218 O213 1.279 . S
C219 O220 1.315 . S
C219 O221 1.279 . S
O220 Cd212 2.223 . S
O220 C219 1.315 . S
O221 Cd211 2.240 . S
O221 C219 1.279 . S
O222 Cd212 2.297 . S
O222 C217 1.247 . S
O223 Cd212 2.439 . S
O223 C217 1.208 . S
O224 Cd225 2.223 . S
O224 C232 1.315 . S
Cd225 O224 2.223 . S
Cd225 O228 2.297 . S
Cd225 O229 2.439 . S
Cd225 O235 2.240 . S
Cd226 O227 2.240 . S
Cd226 O234 2.223 . S
Cd226 O236 2.297 . S
Cd226 O237 2.439 . S
O227 Cd226 2.240 . S
O227 C232 1.279 . S
O228 Cd225 2.297 . S
O228 C230 1.247 . S
O229 Cd225 2.439 . S
O229 C230 1.208 . S
C230 O228 1.247 . S
C230 O229 1.208 . S
C231 O236 1.247 . S
C231 O237 1.208 . S
C232 O224 1.315 . S
C232 O227 1.279 . S
C233 O234 1.315 . S
C233 O235 1.279 . S
O234 Cd226 2.223 . S
O234 C233 1.315 . S
O235 Cd225 2.240 . S
O235 C233 1.279 . S
O236 Cd226 2.297 . S
O236 C231 1.247 . S
O237 Cd226 2.439 . S
O237 C231 1.208 . S
O238 Cd239 2.223 . S
O238 C246 1.315 . S
Cd239 O238 2.223 . S
Cd239 O242 2.297 . S
Cd239 O243 2.439 . S
Cd239 O249 2.240 . S
Cd240 O241 2.240 . S
Cd240 O248 2.223 . S
Cd240 O250 2.297 . S
Cd240 O251 2.439 . S
O241 Cd240 2.240 . S
O241 C246 1.279 . S
O242 Cd239 2.297 . S
O242 C244 1.247 . S
O243 Cd239 2.439 . S
O243 C244 1.208 . S
C244 O242 1.247 . S
C244 O243 1.208 . S
C245 O250 1.247 . S
C245 O251 1.208 . S
C246 O238 1.315 . S
C246 O241 1.279 . S
C247 O248 1.315 . S
C247 O249 1.279 . S
O248 Cd240 2.223 . S
O248 C247 1.315 . S
O249 Cd239 2.240 . S
O249 C247 1.279 . S
O250 Cd240 2.297 . S
O250 C245 1.247 . S
O251 Cd240 2.439 . S
O251 C245 1.208 . S
O252 Cd253 2.223 . S
O252 C260 1.315 . S
Cd253 O252 2.223 . S
Cd253 O256 2.297 . S
Cd253 O257 2.439 . S
Cd253 O263 2.240 . S
Cd254 O255 2.240 . S
Cd254 O262 2.223 . S
Cd254 O264 2.297 . S
Cd254 O265 2.439 . S
O255 Cd254 2.240 . S
O255 C260 1.279 . S
O256 Cd253 2.297 . S
O256 C258 1.247 . S
O257 Cd253 2.439 . S
O257 C258 1.208 . S
C258 O256 1.247 . S
C258 O257 1.208 . S
C259 O264 1.247 . S
C259 O265 1.208 . S
C260 O252 1.315 . S
C260 O255 1.279 . S
C261 O262 1.315 . S
C261 O263 1.279 . S
O262 Cd254 2.223 . S
O262 C261 1.315 . S
O263 Cd253 2.240 . S
O263 C261 1.279 . S
O264 Cd254 2.297 . S
O264 C259 1.247 . S
O265 Cd254 2.439 . S
O265 C259 1.208 . S
O266 Cd267 2.223 . S
O266 C274 1.315 . S
Cd267 O266 2.223 . S
Cd267 O270 2.297 . S
Cd267 O271 2.439 . S
Cd267 O277 2.240 . S
Cd268 O269 2.240 . S
Cd268 O276 2.223 . S
Cd268 O278 2.297 . S
Cd268 O279 2.439 . S
O269 Cd268 2.240 . S
O269 C274 1.279 . S
O270 Cd267 2.297 . S
O270 C272 1.247 . S
O271 Cd267 2.439 . S
O271 C272 1.208 . S
C272 O270 1.247 . S
C272 O271 1.208 . S
C273 O278 1.247 . S
C273 O279 1.208 . S
C274 O266 1.315 . S
C274 O269 1.279 . S
C275 O276 1.315 . S
C275 O277 1.279 . S
O276 Cd268 2.223 . S
O276 C275 1.315 . S
O277 Cd267 2.240 . S
O277 C275 1.279 . S
O278 Cd268 2.297 . S
O278 C273 1.247 . S
O279 Cd268 2.439 . S
O279 C273 1.208 . S
O280 Cd281 2.223 . S
O280 C288 1.315 . S
Cd281 O280 2.223 . S
Cd281 O284 2.297 . S
Cd281 O285 2.439 . S
Cd281 O291 2.240 . S
Cd282 O283 2.240 . S
Cd282 O290 2.223 . S
Cd282 O292 2.297 1_554 S
Cd282 O293 2.439 1_554 S
O283 Cd282 2.240 . S
O283 C288 1.279 . S
O284 Cd281 2.297 . S
O284 C286 1.247 . S
O285 Cd281 2.439 . S
O285 C286 1.208 . S
C286 O284 1.247 . S
C286 O285 1.208 . S
C287 O292 1.247 . S
C287 O293 1.208 . S
C288 O280 1.315 . S
C288 O283 1.279 . S
C289 O290 1.315 . S
C289 O291 1.279 . S
O290 Cd282 2.223 . S
O290 C289 1.315 . S
O291 Cd281 2.240 . S
O291 C289 1.279 . S
O292 Cd282 2.297 1_556 S
O292 C287 1.247 . S
O293 Cd282 2.439 1_556 S
O293 C287 1.208 . S
O294 Cd295 2.223 . S
O294 C302 1.315 . S
Cd295 O294 2.223 . S
Cd295 O298 2.297 . S
Cd295 O299 2.439 . S
Cd295 O305 2.240 . S
Cd296 O297 2.240 . S
Cd296 O304 2.223 . S
Cd296 O306 2.297 . S
Cd296 O307 2.439 . S
O297 Cd296 2.240 . S
O297 C302 1.279 . S
O298 Cd295 2.297 . S
O298 C300 1.247 . S
O299 Cd295 2.439 . S
O299 C300 1.208 . S
C300 O298 1.247 . S
C300 O299 1.208 . S
C301 O306 1.247 . S
C301 O307 1.208 . S
C302 O294 1.315 . S
C302 O297 1.279 . S
C303 O304 1.315 . S
C303 O305 1.279 . S
O304 Cd296 2.223 . S
O304 C303 1.315 . S
O305 Cd295 2.240 . S
O305 C303 1.279 . S
O306 Cd296 2.297 . S
O306 C301 1.247 . S
O307 Cd296 2.439 . S
O307 C301 1.208 . S
O308 Cd309 2.223 . S
O308 C316 1.315 . S
Cd309 O308 2.223 . S
Cd309 O312 2.297 . S
Cd309 O313 2.439 . S
Cd309 O319 2.240 . S
Cd310 O311 2.240 . S
Cd310 O318 2.223 . S
Cd310 O320 2.297 . S
Cd310 O321 2.439 . S
O311 Cd310 2.240 . S
O311 C316 1.279 . S
O312 Cd309 2.297 . S
O312 C314 1.247 . S
O313 Cd309 2.439 . S
O313 C314 1.208 . S
C314 O312 1.247 . S
C314 O313 1.208 . S
C315 O320 1.247 . S
C315 O321 1.208 . S
C316 O308 1.315 . S
C316 O311 1.279 . S
C317 O318 1.315 . S
C317 O319 1.279 . S
O318 Cd310 2.223 . S
O318 C317 1.315 . S
O319 Cd309 2.240 . S
O319 C317 1.279 . S
O320 Cd310 2.297 . S
O320 C315 1.247 . S
O321 Cd310 2.439 . S
O321 C315 1.208 . S
O322 Cd323 2.223 . S
O322 C330 1.315 . S
Cd323 O322 2.223 . S
Cd323 O326 2.297 . S
Cd323 O327 2.439 . S
Cd323 O333 2.240 . S
Cd324 O325 2.240 . S
Cd324 O332 2.223 . S
Cd324 O334 2.297 . S
Cd324 O335 2.439 . S
O325 Cd324 2.240 . S
O325 C330 1.279 . S
O326 Cd323 2.297 . S
O326 C328 1.247 . S
O327 Cd323 2.439 . S
O327 C328 1.208 . S
C328 O326 1.247 . S
C328 O327 1.208 . S
C329 O334 1.247 . S
C329 O335 1.208 . S
C330 O322 1.315 . S
C330 O325 1.279 . S
C331 O332 1.315 . S
C331 O333 1.279 . S
O332 Cd324 2.223 . S
O332 C331 1.315 . S
O333 Cd323 2.240 . S
O333 C331 1.279 . S
O334 Cd324 2.297 . S
O334 C329 1.247 . S
O335 Cd324 2.439 . S
O335 C329 1.208 . S
La336 C338 2.928 1_455 S
La336 O356 2.521 1_454 S
La336 O357 2.628 1_455 S
La336 O358 2.554 1_554 S
La336 O359 2.755 1_554 S
La336 O360 2.470 . S
La336 O365 2.482 . S
La336 O367 2.503 . S
La337 C347 2.928 . S
La337 O359 2.478 1_554 S
La337 O361 2.503 . S
La337 O362 2.521 . S
La337 O363 2.628 . S
La337 O364 2.554 . S
La337 O365 2.757 . S
La337 O366 2.470 . S
C338 La336 2.928 1_655 S
C338 C339 1.503 1_554 S
C338 O356 1.261 1_554 S
C338 O357 1.243 . S
C339 C338 1.503 1_556 S
C339 C340 1.394 . S
C339 C344 1.373 1_556 S
C340 C339 1.394 . S
C340 C341 1.380 . S
C340 H368 0.930 . S
C341 C340 1.380 . S
C341 C342 1.376 . S
C341 H369 0.930 . S
C342 C341 1.376 . S
C342 C343 1.370 1_556 S
C343 C342 1.370 1_554 S
C343 C344 1.396 . S
C343 H370 0.929 . S
C344 C339 1.373 1_554 S
C344 C343 1.396 . S
C344 H371 0.929 . S
C345 O358 1.240 . S
C345 O359 1.295 . S
C346 O360 1.258 . S
C346 O361 1.256 . S
C347 La337 2.928 . S
C347 C348 1.503 . S
C347 O362 1.261 . S
C347 O363 1.243 . S
C348 C347 1.503 . S
C348 C349 1.394 . S
C348 C353 1.373 . S
C349 C348 1.394 . S
C349 C350 1.380 . S
C349 H372 0.930 . S
C350 C349 1.380 . S
C350 C351 1.376 . S
C350 H373 0.930 . S
C351 C350 1.376 . S
C351 C352 1.370 . S
C352 C351 1.370 . S
C352 C353 1.396 . S
C352 H374 0.929 1_545 S
C353 C348 1.373 . S
C353 C352 1.396 . S
C353 H375 0.929 . S
C354 O364 1.240 . S
C354 O365 1.289 . S
C355 O366 1.258 . S
C355 O367 1.256 . S
O356 La336 2.521 1_656 S
O356 C338 1.261 1_556 S
O357 La336 2.628 1_655 S
O357 C338 1.243 . S
O358 La336 2.554 1_556 S
O358 C345 1.240 . S
O359 La336 2.755 1_556 S
O359 La337 2.478 1_556 S
O359 C345 1.295 . S
O360 La336 2.470 . S
O360 C346 1.258 . S
O361 La337 2.503 . S
O361 C346 1.256 . S
O362 La337 2.521 . S
O362 C347 1.261 . S
O363 La337 2.628 . S
O363 C347 1.243 . S
O364 La337 2.554 . S
O364 C354 1.240 . S
O365 La336 2.482 . S
O365 La337 2.757 . S
O365 C354 1.289 . S
O366 La337 2.470 . S
O366 C355 1.258 . S
O367 La336 2.503 . S
O367 C355 1.256 . S
H368 C340 0.930 . S
H369 C341 0.930 . S
H370 C343 0.929 . S
H371 C344 0.929 . S
H372 C349 0.930 . S
H373 C350 0.930 . S
H374 C352 0.929 1_565 S
H375 C353 0.929 . S
La376 C378 2.928 . S
La376 O396 2.521 . S
La376 O397 2.628 . S
La376 O398 2.554 . S
La376 O399 2.757 . S
La376 O400 2.470 . S
La376 O405 2.482 . S
La376 O407 2.503 . S
La377 C387 2.928 . S
La377 O399 2.482 . S
La377 O401 2.503 . S
La377 O402 2.521 . S
La377 O403 2.628 . S
La377 O404 2.554 . S
La377 O405 2.757 . S
La377 O406 2.470 . S
C378 La376 2.928 . S
C378 C379 1.503 . S
C378 O396 1.261 . S
C378 O397 1.243 . S
C379 C378 1.503 . S
C379 C380 1.394 . S
C379 C384 1.373 . S
C380 C379 1.394 . S
C380 C381 1.380 . S
C380 H408 0.930 . S
C381 C380 1.380 . S
C381 C382 1.376 . S
C381 H409 0.930 . S
C382 C381 1.376 . S
C382 C383 1.370 . S
C383 C382 1.370 . S
C383 C384 1.396 . S
C383 H410 0.929 . S
C384 C379 1.373 . S
C384 C383 1.396 . S
C384 H411 0.929 . S
C385 O398 1.240 . S
C385 O399 1.289 . S
C386 O400 1.258 . S
C386 O401 1.256 . S
C387 La377 2.928 . S
C387 C388 1.503 . S
C387 O402 1.261 . S
C387 O403 1.243 . S
C388 C387 1.503 . S
C388 C389 1.394 . S
C388 C393 1.373 . S
C389 C388 1.394 . S
C389 C390 1.380 . S
C389 H412 0.930 . S
C390 C389 1.380 . S
C390 C391 1.376 . S
C390 H413 0.930 . S
C391 C390 1.376 . S
C391 C392 1.370 . S
C392 C391 1.370 . S
C392 C393 1.396 . S
C392 H414 0.929 . S
C393 C388 1.373 . S
C393 C392 1.396 . S
C393 H415 0.929 . S
C394 O404 1.240 . S
C394 O405 1.289 . S
C395 O406 1.258 . S
C395 O407 1.256 . S
O396 La376 2.521 . S
O396 C378 1.261 . S
O397 La376 2.628 . S
O397 C378 1.243 . S
O398 La376 2.554 . S
O398 C385 1.240 . S
O399 La376 2.757 . S
O399 La377 2.482 . S
O399 C385 1.289 . S
O400 La376 2.470 . S
O400 C386 1.258 . S
O401 La377 2.503 . S
O401 C386 1.256 . S
O402 La377 2.521 . S
O402 C387 1.261 . S
O403 La377 2.628 . S
O403 C387 1.243 . S
O404 La377 2.554 . S
O404 C394 1.240 . S
O405 La376 2.482 . S
O405 La377 2.757 . S
O405 C394 1.289 . S
O406 La377 2.470 . S
O406 C395 1.258 . S
O407 La376 2.503 . S
O407 C395 1.256 . S
H408 C380 0.930 . S
H409 C381 0.930 . S
H410 C383 0.929 . S
H411 C384 0.929 . S
H412 C389 0.930 . S
H413 C390 0.930 . S
H414 C392 0.929 . S
H415 C393 0.929 . S
La416 C418 2.928 . S
La416 O436 2.521 . S
La416 O437 2.628 . S
La416 O438 2.554 . S
La416 O439 2.757 . S
La416 O440 2.470 . S
La416 O445 2.482 . S
La416 O447 2.503 . S
La417 C427 2.928 . S
La417 O439 2.482 . S
La417 O441 2.503 1_545 S
La417 O442 2.521 . S
La417 O443 2.628 . S
La417 O444 2.554 . S
La417 O445 2.757 . S
La417 O446 2.470 . S
C418 La416 2.928 . S
C418 C419 1.503 . S
C418 O436 1.261 . S
C418 O437 1.243 . S
C419 C418 1.503 . S
C419 C420 1.394 . S
C419 C424 1.373 1_545 S
C420 C419 1.394 . S
C420 C421 1.380 1_545 S
C420 H448 0.930 . S
C421 C420 1.380 1_565 S
C421 C422 1.376 . S
C421 H449 0.930 . S
C422 C421 1.376 . S
C422 C423 1.370 . S
C423 C422 1.370 . S
C423 C424 1.396 . S
C423 H450 0.929 . S
C424 C419 1.373 1_565 S
C424 C423 1.396 . S
C424 H451 0.929 . S
C425 O438 1.240 . S
C425 O439 1.289 . S
C426 O440 1.258 1_565 S
C426 O441 1.256 . S
C427 La417 2.928 . S
C427 C428 1.503 . S
C427 O442 1.261 . S
C427 O443 1.243 . S
C428 C427 1.503 . S
C428 C429 1.394 . S
C428 C433 1.373 . S
C429 C428 1.394 . S
C429 C430 1.380 . S
C429 H452 0.930 . S
C430 C429 1.380 . S
C430 C431 1.376 . S
C430 H453 0.930 . S
C431 C430 1.376 . S
C431 C432 1.370 . S
C432 C431 1.370 . S
C432 C433 1.396 . S
C432 H454 0.929 . S
C433 C428 1.373 . S
C433 C432 1.396 . S
C433 H455 0.929 . S
C434 O444 1.240 . S
C434 O445 1.289 . S
C435 O446 1.258 . S
C435 O447 1.256 . S
O436 La416 2.521 . S
O436 C418 1.261 . S
O437 La416 2.628 . S
O437 C418 1.243 . S
O438 La416 2.554 . S
O438 C425 1.240 . S
O439 La416 2.757 . S
O439 La417 2.482 . S
O439 C425 1.289 . S
O440 La416 2.470 . S
O440 C426 1.258 1_545 S
O441 La417 2.503 1_565 S
O441 C426 1.256 . S
O442 La417 2.521 . S
O442 C427 1.261 . S
O443 La417 2.628 . S
O443 C427 1.243 . S
O444 La417 2.554 . S
O444 C434 1.240 . S
O445 La416 2.482 . S
O445 La417 2.757 . S
O445 C434 1.289 . S
O446 La417 2.470 . S
O446 C435 1.258 . S
O447 La416 2.503 . S
O447 C435 1.256 . S
H448 C420 0.930 . S
H449 C421 0.930 . S
H450 C423 0.929 . S
H451 C424 0.929 . S
H452 C429 0.930 . S
H453 C430 0.930 . S
H454 C432 0.929 . S
H455 C433 0.929 . S
La456 C458 2.928 . S
La456 O476 2.521 . S
La456 O477 2.628 . S
La456 O478 2.554 . S
La456 O479 2.757 . S
La456 O480 2.470 . S
La456 O485 2.482 . S
La456 O487 2.503 . S
La457 C467 2.928 . S
La457 O479 2.482 . S
La457 O481 2.503 . S
La457 O482 2.521 . S
La457 O483 2.628 . S
La457 O484 2.554 . S
La457 O485 2.757 . S
La457 O486 2.470 . S
C458 La456 2.928 . S
C458 C459 1.503 . S
C458 O476 1.261 . S
C458 O477 1.243 . S
C459 C458 1.503 . S
C459 C460 1.394 . S
C459 C464 1.373 . S
C460 C459 1.394 . S
C460 C461 1.380 . S
C460 H488 0.930 . S
C461 C460 1.380 . S
C461 C462 1.376 . S
C461 H489 0.930 . S
C462 C461 1.376 . S
C462 C463 1.370 . S
C463 C462 1.370 . S
C463 C464 1.396 . S
C463 H490 0.929 . S
C464 C459 1.373 . S
C464 C463 1.396 . S
C464 H491 0.929 . S
C465 O478 1.240 . S
C465 O479 1.289 . S
C466 O480 1.258 . S
C466 O481 1.256 . S
C467 La457 2.928 . S
C467 C468 1.503 . S
C467 O482 1.261 . S
C467 O483 1.243 . S
C468 C467 1.503 . S
C468 C469 1.394 . S
C468 C473 1.373 . S
C469 C468 1.394 . S
C469 C470 1.380 . S
C469 H492 0.930 . S
C470 C469 1.380 . S
C470 C471 1.376 . S
C470 H493 0.930 . S
C471 C470 1.376 . S
C471 C472 1.370 . S
C472 C471 1.370 . S
C472 C473 1.396 . S
C472 H494 0.929 . S
C473 C468 1.373 . S
C473 C472 1.396 . S
C473 H495 0.929 . S
C474 O484 1.240 . S
C474 O485 1.289 . S
C475 O486 1.258 . S
C475 O487 1.256 . S
O476 La456 2.521 . S
O476 C458 1.261 . S
O477 La456 2.628 . S
O477 C458 1.243 . S
O478 La456 2.554 . S
O478 C465 1.240 . S
O479 La456 2.757 . S
O479 La457 2.482 . S
O479 C465 1.289 . S
O480 La456 2.470 . S
O480 C466 1.258 . S
O481 La457 2.503 . S
O481 C466 1.256 . S
O482 La457 2.521 . S
O482 C467 1.261 . S
O483 La457 2.628 . S
O483 C467 1.243 . S
O484 La457 2.554 . S
O484 C474 1.240 . S
O485 La456 2.482 . S
O485 La457 2.757 . S
O485 C474 1.289 . S
O486 La457 2.470 . S
O486 C475 1.258 . S
O487 La456 2.503 . S
O487 C475 1.256 . S
H488 C460 0.930 . S
H489 C461 0.930 . S
H490 C463 0.929 . S
H491 C464 0.929 . S
H492 C469 0.930 . S
H493 C470 0.930 . S
H494 C472 0.929 . S
H495 C473 0.929 . S
La496 C498 2.928 . S
La496 O516 2.521 . S
La496 O517 2.628 . S
La496 O518 2.554 . S
La496 O519 2.757 . S
La496 O520 2.470 . S
La496 O525 2.482 . S
La496 O527 2.503 . S
La497 C507 2.928 1_545 S
La497 O519 2.482 . S
La497 O521 2.503 . S
La497 O522 2.521 1_545 S
La497 O523 2.628 1_545 S
La497 O524 2.554 . S
La497 O525 2.757 . S
La497 O526 2.470 . S
C498 La496 2.928 . S
C498 C499 1.503 . S
C498 O516 1.261 . S
C498 O517 1.243 . S
C499 C498 1.503 . S
C499 C500 1.394 . S
C499 C504 1.373 . S
C500 C499 1.394 . S
C500 C501 1.380 . S
C500 H528 0.930 . S
C501 C500 1.380 . S
C501 C502 1.376 . S
C501 H529 0.930 . S
C502 C501 1.376 . S
C502 C503 1.370 . S
C503 C502 1.370 . S
C503 C504 1.396 . S
C503 H530 0.929 . S
C504 C499 1.373 . S
C504 C503 1.396 . S
C504 H531 0.929 . S
C505 O518 1.240 . S
C505 O519 1.289 . S
C506 O520 1.258 . S
C506 O521 1.256 . S
C507 La497 2.928 1_565 S
C507 C508 1.503 . S
C507 O522 1.261 . S
C507 O523 1.243 . S
C508 C507 1.503 . S
C508 C509 1.394 . S
C508 C513 1.373 . S
C509 C508 1.394 . S
C509 C510 1.380 . S
C509 H532 0.930 . S
C510 C509 1.380 . S
C510 C511 1.376 . S
C510 H533 0.930 . S
C511 C510 1.376 . S
C511 C512 1.370 . S
C512 C511 1.370 . S
C512 C513 1.396 . S
C512 H534 0.929 . S
C513 C508 1.373 . S
C513 C512 1.396 . S
C513 H535 0.929 . S
C514 O524 1.240 . S
C514 O525 1.289 . S
C515 O526 1.258 . S
C515 O527 1.256 . S
O516 La496 2.521 . S
O516 C498 1.261 . S
O517 La496 2.628 . S
O517 C498 1.243 . S
O518 La496 2.554 . S
O518 C505 1.240 . S
O519 La496 2.757 . S
O519 La497 2.482 . S
O519 C505 1.289 . S
O520 La496 2.470 . S
O520 C506 1.258 . S
O521 La497 2.503 . S
O521 C506 1.256 . S
O522 La497 2.521 1_565 S
O522 C507 1.261 . S
O523 La497 2.628 1_565 S
O523 C507 1.243 . S
O524 La497 2.554 . S
O524 C514 1.240 . S
O525 La496 2.482 . S
O525 La497 2.757 . S
O525 C514 1.289 . S
O526 La497 2.470 . S
O526 C515 1.258 . S
O527 La496 2.503 . S
O527 C515 1.256 . S
H528 C500 0.930 . S
H529 C501 0.930 . S
H530 C503 0.929 . S
H531 C504 0.929 . S
H532 C509 0.930 . S
H533 C510 0.930 . S
H534 C512 0.929 . S
H535 C513 0.929 . S
La536 C538 2.928 . S
La536 O556 2.521 . S
La536 O557 2.628 . S
La536 O558 2.554 . S
La536 O559 2.757 . S
La536 O560 2.470 . S
La536 O565 2.482 . S
La536 O567 2.503 . S
La537 C547 2.928 . S
La537 O559 2.482 . S
La537 O561 2.503 . S
La537 O562 2.521 . S
La537 O563 2.628 . S
La537 O564 2.554 . S
La537 O565 2.757 . S
La537 O566 2.470 . S
C538 La536 2.928 . S
C538 C539 1.503 . S
C538 O556 1.261 . S
C538 O557 1.243 . S
C539 C538 1.503 . S
C539 C540 1.394 . S
C539 C544 1.373 . S
C540 C539 1.394 . S
C540 C541 1.380 . S
C540 H568 0.930 . S
C541 C540 1.380 . S
C541 C542 1.376 . S
C541 H569 0.930 . S
C542 C541 1.376 . S
C542 C543 1.370 . S
C543 C542 1.370 . S
C543 C544 1.396 . S
C543 H570 0.929 . S
C544 C539 1.373 . S
C544 C543 1.396 . S
C544 H571 0.929 . S
C545 O558 1.240 . S
C545 O559 1.289 . S
C546 O560 1.258 . S
C546 O561 1.256 . S
C547 La537 2.928 . S
C547 C548 1.503 . S
C547 O562 1.261 . S
C547 O563 1.243 . S
C548 C547 1.503 . S
C548 C549 1.394 . S
C548 C553 1.373 . S
C549 C548 1.394 . S
C549 C550 1.380 . S
C549 H572 0.930 . S
C550 C549 1.380 . S
C550 C551 1.376 . S
C550 H573 0.930 . S
C551 C550 1.376 . S
C551 C552 1.370 . S
C552 C551 1.370 . S
C552 C553 1.396 . S
C552 H574 0.929 . S
C553 C548 1.373 . S
C553 C552 1.396 . S
C553 H575 0.929 . S
C554 O564 1.240 . S
C554 O565 1.289 . S
C555 O566 1.258 . S
C555 O567 1.256 . S
O556 La536 2.521 . S
O556 C538 1.261 . S
O557 La536 2.628 . S
O557 C538 1.243 . S
O558 La536 2.554 . S
O558 C545 1.240 . S
O559 La536 2.757 . S
O559 La537 2.482 . S
O559 C545 1.289 . S
O560 La536 2.470 . S
O560 C546 1.258 . S
O561 La537 2.503 . S
O561 C546 1.256 . S
O562 La537 2.521 . S
O562 C547 1.261 . S
O563 La537 2.628 . S
O563 C547 1.243 . S
O564 La537 2.554 . S
O564 C554 1.240 . S
O565 La536 2.482 . S
O565 La537 2.757 . S
O565 C554 1.289 . S
O566 La537 2.470 . S
O566 C555 1.258 . S
O567 La536 2.503 . S
O567 C555 1.256 . S
H568 C540 0.930 . S
H569 C541 0.930 . S
H570 C543 0.929 . S
H571 C544 0.929 . S
H572 C549 0.930 . S
H573 C550 0.930 . S
H574 C552 0.929 . S
H575 C553 0.929 . S
La576 C578 2.928 . S
La576 O596 2.521 . S
La576 O597 2.628 . S
La576 O598 2.554 1_545 S
La576 O599 2.757 . S
La576 O600 2.470 . S
La576 O605 2.482 . S
La576 O607 2.503 . S
La577 C587 2.928 . S
La577 O599 2.482 1_556 S
La577 O601 2.503 1_556 S
La577 O602 2.521 . S
La577 O603 2.628 . S
La577 O604 2.554 1_556 S
La577 O605 2.757 1_556 S
La577 O606 2.470 1_556 S
C578 La576 2.928 . S
C578 C579 1.503 . S
C578 O596 1.261 . S
C578 O597 1.243 . S
C579 C578 1.503 . S
C579 C580 1.394 1_545 S
C579 C584 1.373 . S
C580 C579 1.394 1_565 S
C580 C581 1.380 . S
C580 H608 0.930 . S
C581 C580 1.380 . S
C581 C582 1.376 . S
C581 H609 0.930 . S
C582 C581 1.376 . S
C582 C583 1.370 1_565 S
C583 C582 1.370 1_545 S
C583 C584 1.396 . S
C583 H610 0.929 . S
C584 C579 1.373 . S
C584 C583 1.396 . S
C584 H611 0.929 . S
C585 O598 1.242 . S
C585 O599 1.284 1_565 S
C586 O600 1.258 . S
C586 O601 1.256 . S
C587 La577 2.928 . S
C587 C588 1.503 . S
C587 O602 1.261 . S
C587 O603 1.243 . S
C588 C587 1.503 . S
C588 C589 1.394 . S
C588 C593 1.373 . S
C589 C588 1.394 . S
C589 C590 1.380 . S
C589 H612 0.930 . S
C590 C589 1.380 . S
C590 C591 1.376 . S
C590 H613 0.930 . S
C591 C590 1.376 . S
C591 C592 1.370 . S
C592 C591 1.370 . S
C592 C593 1.396 . S
C592 H614 0.929 . S
C593 C588 1.373 . S
C593 C592 1.396 . S
C593 H615 0.929 . S
C594 O604 1.240 . S
C594 O605 1.289 . S
C595 O606 1.258 . S
C595 O607 1.256 . S
O596 La576 2.521 . S
O596 C578 1.261 . S
O597 La576 2.628 . S
O597 C578 1.243 . S
O598 La576 2.554 1_565 S
O598 C585 1.242 . S
O599 La576 2.757 . S
O599 La577 2.482 1_554 S
O599 C585 1.284 1_545 S
O600 La576 2.470 . S
O600 C586 1.258 . S
O601 La577 2.503 1_554 S
O601 C586 1.256 . S
O602 La577 2.521 . S
O602 C587 1.261 . S
O603 La577 2.628 . S
O603 C587 1.243 . S
O604 La577 2.554 1_554 S
O604 C594 1.240 . S
O605 La576 2.482 . S
O605 La577 2.757 1_554 S
O605 C594 1.289 . S
O606 La577 2.470 1_554 S
O606 C595 1.258 . S
O607 La576 2.503 . S
O607 C595 1.256 . S
H608 C580 0.930 . S
H609 C581 0.930 . S
H610 C583 0.929 . S
H611 C584 0.929 . S
H612 C589 0.930 . S
H613 C590 0.930 . S
H614 C592 0.929 . S
H615 C593 0.929 . S
La616 C618 2.928 . S
La616 O636 2.521 . S
La616 O637 2.628 . S
La616 O638 2.554 . S
La616 O639 2.757 . S
La616 O640 2.470 . S
La616 O645 2.482 . S
La616 O647 2.503 . S
La617 C627 2.928 . S
La617 O639 2.482 . S
La617 O641 2.503 . S
La617 O642 2.521 . S
La617 O643 2.628 . S
La617 O644 2.554 . S
La617 O645 2.757 . S
La617 O646 2.470 . S
C618 La616 2.928 . S
C618 C619 1.503 . S
C618 O636 1.261 . S
C618 O637 1.243 . S
C619 C618 1.503 . S
C619 C620 1.394 . S
C619 C624 1.373 . S
C620 C619 1.394 . S
C620 C621 1.380 . S
C620 H648 0.930 . S
C621 C620 1.380 . S
C621 C622 1.376 . S
C621 H649 0.930 . S
C622 C621 1.376 . S
C622 C623 1.370 . S
C623 C622 1.370 . S
C623 C624 1.396 . S
C623 H650 0.929 . S
C624 C619 1.373 . S
C624 C623 1.396 . S
C624 H651 0.929 . S
C625 O638 1.240 . S
C625 O639 1.289 . S
C626 O640 1.258 . S
C626 O641 1.256 . S
C627 La617 2.928 . S
C627 C628 1.503 . S
C627 O642 1.261 . S
C627 O643 1.243 . S
C628 C627 1.503 . S
C628 C629 1.394 . S
C628 C633 1.373 . S
C629 C628 1.394 . S
C629 C630 1.380 . S
C629 H652 0.930 . S
C630 C629 1.380 . S
C630 C631 1.376 . S
C630 H653 0.930 . S
C631 C630 1.376 . S
C631 C632 1.370 . S
C632 C631 1.370 . S
C632 C633 1.396 . S
C632 H654 0.929 . S
C633 C628 1.373 . S
C633 C632 1.396 . S
C633 H655 0.929 . S
C634 O644 1.240 . S
C634 O645 1.289 . S
C635 O646 1.258 . S
C635 O647 1.256 . S
O636 La616 2.521 . S
O636 C618 1.261 . S
O637 La616 2.628 . S
O637 C618 1.243 . S
O638 La616 2.554 . S
O638 C625 1.240 . S
O639 La616 2.757 . S
O639 La617 2.482 . S
O639 C625 1.289 . S
O640 La616 2.470 . S
O640 C626 1.258 . S
O641 La617 2.503 . S
O641 C626 1.256 . S
O642 La617 2.521 . S
O642 C627 1.261 . S
O643 La617 2.628 . S
O643 C627 1.243 . S
O644 La617 2.554 . S
O644 C634 1.240 . S
O645 La616 2.482 . S
O645 La617 2.757 . S
O645 C634 1.289 . S
O646 La617 2.470 . S
O646 C635 1.258 . S
O647 La616 2.503 . S
O647 C635 1.256 . S
H648 C620 0.930 . S
H649 C621 0.930 . S
H650 C623 0.929 . S
H651 C624 0.929 . S
H652 C629 0.930 . S
H653 C630 0.930 . S
H654 C632 0.929 . S
H655 C633 0.929 . S
La656 C658 2.928 . S
La656 O676 2.521 . S
La656 O677 2.628 . S
La656 O678 2.554 . S
La656 O679 2.757 . S
La656 O680 2.470 1_554 S
La656 O685 2.482 . S
La656 O687 2.503 . S
La657 C667 2.928 . S
La657 O679 2.482 . S
La657 O681 2.503 1_554 S
La657 O682 2.521 . S
La657 O683 2.628 . S
La657 O684 2.554 . S
La657 O685 2.757 . S
La657 O686 2.470 . S
C658 La656 2.928 . S
C658 C659 1.470 1_554 S
C658 O676 1.261 . S
C658 O677 1.243 . S
C659 C658 1.470 1_556 S
C659 C660 1.384 1_556 S
C659 C664 1.418 . S
C660 C659 1.384 1_554 S
C660 C661 1.380 1_554 S
C660 H688 0.930 . S
C661 C660 1.380 1_556 S
C661 C662 1.376 . S
C661 H689 0.930 . S
C662 C661 1.376 . S
C662 C663 1.370 . S
C663 C662 1.370 . S
C663 C664 1.396 . S
C663 H690 0.929 . S
C664 C659 1.418 . S
C664 C663 1.396 . S
C664 H691 0.929 . S
C665 O678 1.240 . S
C665 O679 1.289 . S
C666 O680 1.258 . S
C666 O681 1.256 . S
C667 La657 2.928 . S
C667 C668 1.503 . S
C667 O682 1.261 . S
C667 O683 1.243 . S
C668 C667 1.503 . S
C668 C669 1.394 . S
C668 C673 1.373 . S
C669 C668 1.394 . S
C669 C670 1.380 . S
C669 H692 0.930 . S
C670 C669 1.380 . S
C670 C671 1.376 . S
C670 H693 0.930 . S
C671 C670 1.376 . S
C671 C672 1.370 . S
C672 C671 1.370 . S
C672 C673 1.396 . S
C672 H694 0.929 . S
C673 C668 1.373 . S
C673 C672 1.396 . S
C673 H695 0.929 . S
C674 O684 1.240 . S
C674 O685 1.289 . S
C675 O686 1.258 . S
C675 O687 1.256 . S
O676 La656 2.521 . S
O676 C658 1.261 . S
O677 La656 2.628 . S
O677 C658 1.243 . S
O678 La656 2.554 . S
O678 C665 1.240 . S
O679 La656 2.757 . S
O679 La657 2.482 . S
O679 C665 1.289 . S
O680 La656 2.470 1_556 S
O680 C666 1.258 . S
O681 La657 2.503 1_556 S
O681 C666 1.256 . S
O682 La657 2.521 . S
O682 C667 1.261 . S
O683 La657 2.628 . S
O683 C667 1.243 . S
O684 La657 2.554 . S
O684 C674 1.240 . S
O685 La656 2.482 . S
O685 La657 2.757 . S
O685 C674 1.289 . S
O686 La657 2.470 . S
O686 C675 1.258 . S
O687 La656 2.503 . S
O687 C675 1.256 . S
H688 C660 0.930 . S
H689 C661 0.930 . S
H690 C663 0.929 . S
H691 C664 0.929 . S
H692 C669 0.930 . S
H693 C670 0.930 . S
H694 C672 0.929 . S
H695 C673 0.929 . S
La696 C698 2.928 . S
La696 O716 2.521 . S
La696 O717 2.628 . S
La696 O718 2.554 . S
La696 O719 2.757 . S
La696 O720 2.470 . S
La696 O725 2.482 . S
La696 O727 2.503 . S
La697 C707 2.928 . S
La697 O719 2.482 . S
La697 O721 2.503 . S
La697 O722 2.521 . S
La697 O723 2.628 . S
La697 O724 2.554 . S
La697 O725 2.757 . S
La697 O726 2.470 . S
C698 La696 2.928 . S
C698 C699 1.503 . S
C698 O716 1.261 . S
C698 O717 1.243 . S
C699 C698 1.503 . S
C699 C700 1.394 . S
C699 C704 1.373 . S
C700 C699 1.394 . S
C700 C701 1.380 . S
C700 H728 0.930 . S
C701 C700 1.380 . S
C701 C702 1.376 . S
C701 H729 0.930 . S
C702 C701 1.376 . S
C702 C703 1.370 . S
C703 C702 1.370 . S
C703 C704 1.396 . S
C703 H730 0.929 . S
C704 C699 1.373 . S
C704 C703 1.396 . S
C704 H731 0.929 . S
C705 O718 1.240 . S
C705 O719 1.289 . S
C706 O720 1.258 . S
C706 O721 1.256 . S
C707 La697 2.928 . S
C707 C708 1.503 . S
C707 O722 1.261 . S
C707 O723 1.243 . S
C708 C707 1.503 . S
C708 C709 1.394 . S
C708 C713 1.373 . S
C709 C708 1.394 . S
C709 C710 1.380 . S
C709 H732 0.930 . S
C710 C709 1.380 . S
C710 C711 1.376 . S
C710 H733 0.930 . S
C711 C710 1.376 . S
C711 C712 1.370 . S
C712 C711 1.370 . S
C712 C713 1.396 . S
C712 H734 0.929 . S
C713 C708 1.373 . S
C713 C712 1.396 . S
C713 H735 0.929 . S
C714 O724 1.240 . S
C714 O725 1.289 . S
C715 O726 1.258 . S
C715 O727 1.256 . S
O716 La696 2.521 . S
O716 C698 1.261 . S
O717 La696 2.628 . S
O717 C698 1.243 . S
O718 La696 2.554 . S
O718 C705 1.240 . S
O719 La696 2.757 . S
O719 La697 2.482 . S
O719 C705 1.289 . S
O720 La696 2.470 . S
O720 C706 1.258 . S
O721 La697 2.503 . S
O721 C706 1.256 . S
O722 La697 2.521 . S
O722 C707 1.261 . S
O723 La697 2.628 . S
O723 C707 1.243 . S
O724 La697 2.554 . S
O724 C714 1.240 . S
O725 La696 2.482 . S
O725 La697 2.757 . S
O725 C714 1.289 . S
O726 La697 2.470 . S
O726 C715 1.258 . S
O727 La696 2.503 . S
O727 C715 1.256 . S
H728 C700 0.930 . S
H729 C701 0.930 . S
H730 C703 0.929 . S
H731 C704 0.929 . S
H732 C709 0.930 . S
H733 C710 0.930 . S
H734 C712 0.929 . S
H735 C713 0.929 . S
La736 C738 2.928 . S
La736 O756 2.521 . S
La736 O757 2.628 . S
La736 O758 2.554 . S
La736 O759 2.757 . S
La736 O760 2.470 . S
La736 O765 2.482 . S
La736 O767 2.503 . S
La737 C747 2.928 . S
La737 O759 2.482 . S
La737 O761 2.503 . S
La737 O762 2.521 . S
La737 O763 2.628 . S
La737 O764 2.554 . S
La737 O765 2.757 . S
La737 O766 2.470 . S
C738 La736 2.928 . S
C738 C739 1.503 . S
C738 O756 1.261 . S
C738 O757 1.243 . S
C739 C738 1.503 . S
C739 C740 1.394 . S
C739 C744 1.373 . S
C740 C739 1.394 . S
C740 C741 1.380 . S
C740 H768 0.930 . S
C741 C740 1.380 . S
C741 C742 1.376 1_455 S
C741 H769 0.930 . S
C742 C741 1.376 1_655 S
C742 C743 1.370 . S
C743 C742 1.370 . S
C743 C744 1.396 1_655 S
C743 H770 0.929 . S
C744 C739 1.373 . S
C744 C743 1.396 1_455 S
C744 H771 0.929 . S
C745 O758 1.240 . S
C745 O759 1.289 . S
C746 O760 1.258 . S
C746 O761 1.256 . S
C747 La737 2.928 . S
C747 C748 1.503 . S
C747 O762 1.261 . S
C747 O763 1.243 . S
C748 C747 1.503 . S
C748 C749 1.394 . S
C748 C753 1.373 . S
C749 C748 1.394 . S
C749 C750 1.380 . S
C749 H772 0.930 . S
C750 C749 1.380 . S
C750 C751 1.376 . S
C750 H773 0.930 . S
C751 C750 1.376 . S
C751 C752 1.370 . S
C752 C751 1.370 . S
C752 C753 1.396 . S
C752 H774 0.929 . S
C753 C748 1.373 . S
C753 C752 1.396 . S
C753 H775 0.929 . S
C754 O764 1.240 . S
C754 O765 1.289 . S
C755 O766 1.258 . S
C755 O767 1.256 . S
O756 La736 2.521 . S
O756 C738 1.261 . S
O757 La736 2.628 . S
O757 C738 1.243 . S
O758 La736 2.554 . S
O758 C745 1.240 . S
O759 La736 2.757 . S
O759 La737 2.482 . S
O759 C745 1.289 . S
O760 La736 2.470 . S
O760 C746 1.258 . S
O761 La737 2.503 . S
O761 C746 1.256 . S
O762 La737 2.521 . S
O762 C747 1.261 . S
O763 La737 2.628 . S
O763 C747 1.243 . S
O764 La737 2.554 . S
O764 C754 1.240 . S
O765 La736 2.482 . S
O765 La737 2.757 . S
O765 C754 1.289 . S
O766 La737 2.470 . S
O766 C755 1.258 . S
O767 La736 2.503 . S
O767 C755 1.256 . S
H768 C740 0.930 . S
H769 C741 0.930 . S
H770 C743 0.929 . S
H771 C744 0.929 . S
H772 C749 0.930 . S
H773 C750 0.930 . S
H774 C752 0.929 . S
H775 C753 0.929 . S
La776 C778 2.928 . S
La776 O796 2.521 . S
La776 O797 2.628 . S
La776 O798 2.554 . S
La776 O799 2.757 . S
La776 O800 2.470 . S
La776 O805 2.482 . S
La776 O807 2.503 . S
La777 C787 2.928 . S
La777 O799 2.482 . S
La777 O801 2.503 . S
La777 O802 2.521 . S
La777 O803 2.628 . S
La777 O804 2.554 . S
La777 O805 2.757 . S
La777 O806 2.470 . S
C778 La776 2.928 . S
C778 C779 1.503 . S
C778 O796 1.261 . S
C778 O797 1.243 . S
C779 C778 1.503 . S
C779 C780 1.394 . S
C779 C784 1.373 . S
C780 C779 1.394 . S
C780 C781 1.380 . S
C780 H808 0.930 . S
C781 C780 1.380 . S
C781 C782 1.376 . S
C781 H809 0.930 . S
C782 C781 1.376 . S
C782 C783 1.370 . S
C783 C782 1.370 . S
C783 C784 1.396 . S
C783 H810 0.929 . S
C784 C779 1.373 . S
C784 C783 1.396 . S
C784 H811 0.929 . S
C785 O798 1.240 . S
C785 O799 1.289 . S
C786 O800 1.258 . S
C786 O801 1.256 . S
C787 La777 2.928 . S
C787 C788 1.503 . S
C787 O802 1.261 . S
C787 O803 1.243 . S
C788 C787 1.503 . S
C788 C789 1.394 . S
C788 C793 1.373 . S
C789 C788 1.394 . S
C789 C790 1.380 . S
C789 H812 0.930 . S
C790 C789 1.380 . S
C790 C791 1.376 . S
C790 H813 0.930 . S
C791 C790 1.376 . S
C791 C792 1.370 . S
C792 C791 1.370 . S
C792 C793 1.396 . S
C792 H814 0.929 . S
C793 C788 1.373 . S
C793 C792 1.396 . S
C793 H815 0.929 . S
C794 O804 1.240 . S
C794 O805 1.289 . S
C795 O806 1.258 . S
C795 O807 1.256 . S
O796 La776 2.521 . S
O796 C778 1.261 . S
O797 La776 2.628 . S
O797 C778 1.243 . S
O798 La776 2.554 . S
O798 C785 1.240 . S
O799 La776 2.757 . S
O799 La777 2.482 . S
O799 C785 1.289 . S
O800 La776 2.470 . S
O800 C786 1.258 . S
O801 La777 2.503 . S
O801 C786 1.256 . S
O802 La777 2.521 . S
O802 C787 1.261 . S
O803 La777 2.628 . S
O803 C787 1.243 . S
O804 La777 2.554 . S
O804 C794 1.240 . S
O805 La776 2.482 . S
O805 La777 2.757 . S
O805 C794 1.289 . S
O806 La777 2.470 . S
O806 C795 1.258 . S
O807 La776 2.503 . S
O807 C795 1.256 . S
H808 C780 0.930 . S
H809 C781 0.930 . S
H810 C783 0.929 . S
H811 C784 0.929 . S
H812 C789 0.930 . S
H813 C790 0.930 . S
H814 C792 0.929 . S
H815 C793 0.929 . S
La816 C818 2.928 . S
La816 O836 2.521 . S
La816 O837 2.628 . S
La816 O838 2.554 . S
La816 O839 2.757 . S
La816 O840 2.470 . S
La816 O845 2.482 . S
La816 O847 2.503 . S
La817 C827 2.928 . S
La817 O839 2.482 . S
La817 O841 2.503 . S
La817 O842 2.521 . S
La817 O843 2.628 . S
La817 O844 2.554 . S
La817 O845 2.757 . S
La817 O846 2.470 . S
C818 La816 2.928 . S
C818 C819 1.503 . S
C818 O836 1.261 . S
C818 O837 1.243 . S
C819 C818 1.503 . S
C819 C820 1.394 . S
C819 C824 1.373 . S
C820 C819 1.394 . S
C820 C821 1.380 . S
C820 H848 0.930 . S
C821 C820 1.380 . S
C821 C822 1.376 . S
C821 H849 0.930 . S
C822 C821 1.376 . S
C822 C823 1.370 . S
C823 C822 1.370 . S
C823 C824 1.396 . S
C823 H850 0.929 . S
C824 C819 1.373 . S
C824 C823 1.396 . S
C824 H851 0.929 . S
C825 O838 1.240 . S
C825 O839 1.289 . S
C826 O840 1.258 . S
C826 O841 1.256 . S
C827 La817 2.928 . S
C827 C828 1.503 . S
C827 O842 1.261 . S
C827 O843 1.243 . S
C828 C827 1.503 . S
C828 C829 1.394 . S
C828 C833 1.373 . S
C829 C828 1.394 . S
C829 C830 1.380 . S
C829 H852 0.930 . S
C830 C829 1.380 . S
C830 C831 1.376 . S
C830 H853 0.930 . S
C831 C830 1.376 . S
C831 C832 1.370 . S
C832 C831 1.370 . S
C832 C833 1.396 . S
C832 H854 0.929 . S
C833 C828 1.373 . S
C833 C832 1.396 . S
C833 H855 0.929 . S
C834 O844 1.240 . S
C834 O845 1.289 . S
C835 O846 1.258 . S
C835 O847 1.256 . S
O836 La816 2.521 . S
O836 C818 1.261 . S
O837 La816 2.628 . S
O837 C818 1.243 . S
O838 La816 2.554 . S
O838 C825 1.240 . S
O839 La816 2.757 . S
O839 La817 2.482 . S
O839 C825 1.289 . S
O840 La816 2.470 . S
O840 C826 1.258 . S
O841 La817 2.503 . S
O841 C826 1.256 . S
O842 La817 2.521 . S
O842 C827 1.261 . S
O843 La817 2.628 . S
O843 C827 1.243 . S
O844 La817 2.554 . S
O844 C834 1.240 . S
O845 La816 2.482 . S
O845 La817 2.757 . S
O845 C834 1.289 . S
O846 La817 2.470 . S
O846 C835 1.258 . S
O847 La816 2.503 . S
O847 C835 1.256 . S
H848 C820 0.930 . S
H849 C821 0.930 . S
H850 C823 0.929 . S
H851 C824 0.929 . S
H852 C829 0.930 . S
H853 C830 0.930 . S
H854 C832 0.929 . S
H855 C833 0.929 . S
La856 C858 2.928 . S
La856 O876 2.521 . S
La856 O877 2.628 . S
La856 O878 2.554 . S
La856 O879 2.757 . S
La856 O880 2.470 . S
La856 O885 2.482 . S
La856 O887 2.503 . S
La857 C867 2.928 . S
La857 O879 2.482 . S
La857 O881 2.503 . S
La857 O882 2.521 . S
La857 O883 2.628 . S
La857 O884 2.554 . S
La857 O885 2.757 . S
La857 O886 2.470 . S
C858 La856 2.928 . S
C858 C859 1.503 . S
C858 O876 1.261 . S
C858 O877 1.243 . S
C859 C858 1.503 . S
C859 C860 1.394 . S
C859 C864 1.373 . S
C860 C859 1.394 . S
C860 C861 1.380 . S
C860 H888 0.930 . S
C861 C860 1.380 . S
C861 C862 1.376 . S
C861 H889 0.930 . S
C862 C861 1.376 . S
C862 C863 1.370 . S
C863 C862 1.370 . S
C863 C864 1.396 . S
C863 H890 0.929 . S
C864 C859 1.373 . S
C864 C863 1.396 . S
C864 H891 0.929 . S
C865 O878 1.240 . S
C865 O879 1.289 . S
C866 O880 1.258 . S
C866 O881 1.256 . S
C867 La857 2.928 . S
C867 C868 1.503 . S
C867 O882 1.261 . S
C867 O883 1.243 . S
C868 C867 1.503 . S
C868 C869 1.394 . S
C868 C873 1.373 . S
C869 C868 1.394 . S
C869 C870 1.380 . S
C869 H892 0.930 . S
C870 C869 1.380 . S
C870 C871 1.376 . S
C870 H893 0.930 . S
C871 C870 1.376 . S
C871 C872 1.370 . S
C872 C871 1.370 . S
C872 C873 1.396 . S
C872 H894 0.929 . S
C873 C868 1.373 . S
C873 C872 1.396 . S
C873 H895 0.929 . S
C874 O884 1.240 . S
C874 O885 1.289 . S
C875 O886 1.258 . S
C875 O887 1.256 . S
O876 La856 2.521 . S
O876 C858 1.261 . S
O877 La856 2.628 . S
O877 C858 1.243 . S
O878 La856 2.554 . S
O878 C865 1.240 . S
O879 La856 2.757 . S
O879 La857 2.482 . S
O879 C865 1.289 . S
O880 La856 2.470 . S
O880 C866 1.258 . S
O881 La857 2.503 . S
O881 C866 1.256 . S
O882 La857 2.521 . S
O882 C867 1.261 . S
O883 La857 2.628 . S
O883 C867 1.243 . S
O884 La857 2.554 . S
O884 C874 1.240 . S
O885 La856 2.482 . S
O885 La857 2.757 . S
O885 C874 1.289 . S
O886 La857 2.470 . S
O886 C875 1.258 . S
O887 La856 2.503 . S
O887 C875 1.256 . S
H888 C860 0.930 . S
H889 C861 0.930 . S
H890 C863 0.929 . S
H891 C864 0.929 . S
H892 C869 0.930 . S
H893 C870 0.930 . S
H894 C872 0.929 . S
H895 C873 0.929 . S
La896 C898 2.928 . S
La896 O916 2.521 . S
La896 O917 2.628 . S
La896 O918 2.554 . S
La896 O919 2.757 . S
La896 O920 2.470 . S
La896 O925 2.482 . S
La896 O927 2.503 . S
La897 C907 2.928 . S
La897 O919 2.482 . S
La897 O921 2.503 . S
La897 O922 2.521 . S
La897 O923 2.628 . S
La897 O924 2.554 . S
La897 O925 2.757 . S
La897 O926 2.470 . S
C898 La896 2.928 . S
C898 C899 1.503 . S
C898 O916 1.261 . S
C898 O917 1.243 . S
C899 C898 1.503 . S
C899 C900 1.394 . S
C899 C904 1.373 . S
C900 C899 1.394 . S
C900 C901 1.380 . S
C900 H928 0.930 . S
C901 C900 1.380 . S
C901 C902 1.376 . S
C901 H929 0.930 . S
C902 C901 1.376 . S
C902 C903 1.370 . S
C903 C902 1.370 . S
C903 C904 1.396 . S
C903 H930 0.929 . S
C904 C899 1.373 . S
C904 C903 1.396 . S
C904 H931 0.929 . S
C905 O918 1.240 . S
C905 O919 1.289 . S
C906 O920 1.258 . S
C906 O921 1.256 . S
C907 La897 2.928 . S
C907 C908 1.503 . S
C907 O922 1.261 . S
C907 O923 1.243 . S
C908 C907 1.503 . S
C908 C909 1.394 . S
C908 C913 1.373 . S
C909 C908 1.394 . S
C909 C910 1.380 . S
C909 H932 0.930 . S
C910 C909 1.380 . S
C910 C911 1.376 . S
C910 H933 0.930 . S
C911 C910 1.376 . S
C911 C912 1.370 . S
C912 C911 1.370 . S
C912 C913 1.396 . S
C912 H934 0.929 . S
C913 C908 1.373 . S
C913 C912 1.396 . S
C913 H935 0.929 . S
C914 O924 1.240 . S
C914 O925 1.289 . S
C915 O926 1.258 . S
C915 O927 1.256 . S
O916 La896 2.521 . S
O916 C898 1.261 . S
O917 La896 2.628 . S
O917 C898 1.243 . S
O918 La896 2.554 . S
O918 C905 1.240 . S
O919 La896 2.757 . S
O919 La897 2.482 . S
O919 C905 1.289 . S
O920 La896 2.470 . S
O920 C906 1.258 . S
O921 La897 2.503 . S
O921 C906 1.256 . S
O922 La897 2.521 . S
O922 C907 1.261 . S
O923 La897 2.628 . S
O923 C907 1.243 . S
O924 La897 2.554 . S
O924 C914 1.240 . S
O925 La896 2.482 . S
O925 La897 2.757 . S
O925 C914 1.289 . S
O926 La897 2.470 . S
O926 C915 1.258 . S
O927 La896 2.503 . S
O927 C915 1.256 . S
H928 C900 0.930 . S
H929 C901 0.930 . S
H930 C903 0.929 . S
H931 C904 0.929 . S
H932 C909 0.930 . S
H933 C910 0.930 . S
H934 C912 0.929 . S
H935 C913 0.929 . S
La936 C938 2.928 . S
La936 O956 2.521 . S
La936 O957 2.628 . S
La936 O958 2.554 1_554 S
La936 O959 2.757 . S
La936 O960 2.470 . S
La936 O965 2.482 . S
La936 O967 2.503 . S
La937 C947 2.928 1_455 S
La937 O959 2.482 . S
La937 O961 2.503 . S
La937 O962 2.521 1_455 S
La937 O963 2.608 1_455 S
La937 O964 2.554 . S
La937 O965 2.757 . S
La937 O966 2.470 . S
C938 La936 2.928 . S
C938 C939 1.503 . S
C938 O956 1.261 . S
C938 O957 1.243 . S
C939 C938 1.503 . S
C939 C940 1.394 . S
C939 C944 1.373 . S
C940 C939 1.394 . S
C940 C941 1.380 1_554 S
C940 H968 0.930 1_554 S
C941 C940 1.380 1_556 S
C941 C942 1.376 1_556 S
C941 H969 0.930 . S
C942 C941 1.376 1_554 S
C942 C943 1.370 . S
C943 C942 1.370 . S
C943 C944 1.396 . S
C943 H970 0.929 . S
C944 C939 1.373 . S
C944 C943 1.396 . S
C944 H971 0.929 . S
C945 O958 1.231 1_554 S
C945 O959 1.320 . S
C946 O960 1.258 . S
C946 O961 1.256 . S
C947 La937 2.928 1_655 S
C947 C948 1.503 . S
C947 O962 1.261 . S
C947 O963 1.256 . S
C948 C947 1.503 . S
C948 C949 1.394 . S
C948 C953 1.373 . S
C949 C948 1.394 . S
C949 C950 1.380 . S
C949 H972 0.930 . S
C950 C949 1.380 . S
C950 C951 1.376 . S
C950 H973 0.930 . S
C951 C950 1.376 . S
C951 C952 1.370 . S
C952 C951 1.370 . S
C952 C953 1.396 . S
C952 H974 0.929 . S
C953 C948 1.373 . S
C953 C952 1.396 . S
C953 H975 0.929 . S
C954 O964 1.240 . S
C954 O965 1.289 . S
C955 O966 1.258 . S
C955 O967 1.256 . S
O956 La936 2.521 . S
O956 C938 1.261 . S
O957 La936 2.628 . S
O957 C938 1.243 . S
O958 La936 2.554 1_556 S
O958 C945 1.231 1_556 S
O959 La936 2.757 . S
O959 La937 2.482 . S
O959 C945 1.320 . S
O960 La936 2.470 . S
O960 C946 1.258 . S
O961 La937 2.503 . S
O961 C946 1.256 . S
O962 La937 2.521 1_655 S
O962 C947 1.261 . S
O963 La937 2.608 1_655 S
O963 C947 1.256 . S
O964 La937 2.554 . S
O964 C954 1.240 . S
O965 La936 2.482 . S
O965 La937 2.757 . S
O965 C954 1.289 . S
O966 La937 2.470 . S
O966 C955 1.258 . S
O967 La936 2.503 . S
O967 C955 1.256 . S
H968 C940 0.930 1_556 S
H969 C941 0.930 . S
H970 C943 0.929 . S
H971 C944 0.929 . S
H972 C949 0.930 . S
H973 C950 0.930 . S
H974 C952 0.929 . S
H975 C953 0.929 . S
C976 C977 1.349 . S
C976 C978 1.327 . S
C976 H1001 0.998 . S
C977 C976 1.349 . S
C977 C993 1.349 . S
C978 C976 1.327 . S
C978 C997 1.429 . S
C978 H1002 0.950 . S
C979 C996 1.574 . S
C979 C998 1.368 . S
C979 H1003 0.949 . S
H980 C984 0.949 . S
C981 C982 1.349 1_556 S
C981 C983 1.327 . S
C981 H1004 0.950 . S
C982 C981 1.349 1_554 S
C982 C994 1.349 . S
C983 C981 1.327 . S
C983 C999 1.429 . S
C983 H1005 0.950 . S
C984 H980 0.949 . S
C984 C992 1.574 . S
C984 C1000 1.368 . S
H985 C993 0.950 . S
H986 C991 0.950 . S
H987 C992 0.949 . S
H988 C994 0.950 . S
H989 C995 0.957 . S
H990 C996 0.949 . S
C991 H986 0.950 . S
C991 C993 1.327 . S
C991 C997 1.429 . S
C992 C984 1.574 . S
C992 H987 0.949 . S
C992 C998 1.368 . S
C993 C977 1.349 . S
C993 H985 0.950 . S
C993 C991 1.327 . S
C994 C982 1.349 . S
C994 H988 0.950 . S
C994 C995 1.339 . S
C995 H989 0.957 . S
C995 C994 1.339 . S
C995 C999 1.410 1_554 S
C996 C979 1.574 . S
C996 H990 0.949 . S
C996 C1000 1.368 . S
C997 C978 1.429 . S
C997 C991 1.429 . S
C997 C998 1.523 . S
C998 C979 1.368 . S
C998 C992 1.368 . S
C998 C997 1.523 . S
C999 C983 1.429 . S
C999 C995 1.410 1_556 S
C999 C1000 1.523 . S
C1000 C984 1.368 . S
C1000 C996 1.368 . S
C1000 C999 1.523 . S
H1001 C976 0.998 . S
H1002 C978 0.950 . S
H1003 C979 0.949 . S
H1004 C981 0.950 . S
H1005 C983 0.950 . S
C1006 C1007 1.349 . S
C1006 C1008 1.327 . S
C1006 H1031 0.950 . S
C1007 C1006 1.349 . S
C1007 C1023 1.349 . S
C1008 C1006 1.327 . S
C1008 C1027 1.429 . S
C1008 H1032 0.950 . S
C1009 C1026 1.574 . S
C1009 C1028 1.368 . S
C1009 H1033 0.949 . S
H1010 C1014 0.949 . S
C1011 C1012 1.349 . S
C1011 C1013 1.327 . S
C1011 H1034 0.950 . S
C1012 C1011 1.349 . S
C1012 C1024 1.349 . S
C1013 C1011 1.327 . S
C1013 C1029 1.429 . S
C1013 H1035 0.950 . S
C1014 H1010 0.949 . S
C1014 C1022 1.574 . S
C1014 C1030 1.368 . S
H1015 C1023 0.950 . S
H1016 C1021 0.950 . S
H1017 C1022 0.949 . S
H1018 C1024 0.950 . S
H1019 C1025 0.950 . S
H1020 C1026 0.949 . S
C1021 H1016 0.950 . S
C1021 C1023 1.327 . S
C1021 C1027 1.429 . S
C1022 C1014 1.574 . S
C1022 H1017 0.949 . S
C1022 C1028 1.368 . S
C1023 C1007 1.349 . S
C1023 H1015 0.950 . S
C1023 C1021 1.327 . S
C1024 C1012 1.349 . S
C1024 H1018 0.950 . S
C1024 C1025 1.327 . S
C1025 H1019 0.950 . S
C1025 C1024 1.327 . S
C1025 C1029 1.429 . S
C1026 C1009 1.574 . S
C1026 H1020 0.949 . S
C1026 C1030 1.368 . S
C1027 C1008 1.429 . S
C1027 C1021 1.429 . S
C1027 C1028 1.523 . S
C1028 C1009 1.368 . S
C1028 C1022 1.368 . S
C1028 C1027 1.523 . S
C1029 C1013 1.429 . S
C1029 C1025 1.429 . S
C1029 C1030 1.523 . S
C1030 C1014 1.368 . S
C1030 C1026 1.368 . S
C1030 C1029 1.523 . S
H1031 C1006 0.950 . S
H1032 C1008 0.950 . S
H1033 C1009 0.949 . S
H1034 C1011 0.950 . S
H1035 C1013 0.950 . S
C1036 C1037 1.349 . S
C1036 C1038 1.327 . S
C1036 H1061 0.950 . S
C1037 C1036 1.349 . S
C1037 C1053 1.349 . S
C1038 C1036 1.327 . S
C1038 C1057 1.429 . S
C1038 H1062 0.950 . S
C1039 C1056 1.574 . S
C1039 C1058 1.368 . S
C1039 H1063 0.949 . S
H1040 C1044 0.949 . S
C1041 C1042 1.349 . S
C1041 C1043 1.327 . S
C1041 H1064 0.950 . S
C1042 C1041 1.349 . S
C1042 C1054 1.349 . S
C1043 C1041 1.327 . S
C1043 C1059 1.429 . S
C1043 H1065 0.950 . S
C1044 H1040 0.949 . S
C1044 C1052 1.574 . S
C1044 C1060 1.368 . S
H1045 C1053 0.950 . S
H1046 C1051 0.950 . S
H1047 C1052 0.949 . S
H1048 C1054 0.950 . S
H1049 C1055 0.950 . S
H1050 C1056 0.949 . S
C1051 H1046 0.950 . S
C1051 C1053 1.327 . S
C1051 C1057 1.429 . S
C1052 C1044 1.574 . S
C1052 H1047 0.949 . S
C1052 C1058 1.368 . S
C1053 C1037 1.349 . S
C1053 H1045 0.950 . S
C1053 C1051 1.327 . S
C1054 C1042 1.349 . S
C1054 H1048 0.950 . S
C1054 C1055 1.327 . S
C1055 H1049 0.950 . S
C1055 C1054 1.327 . S
C1055 C1059 1.429 . S
C1056 C1039 1.574 . S
C1056 H1050 0.949 . S
C1056 C1060 1.368 . S
C1057 C1038 1.429 . S
C1057 C1051 1.429 . S
C1057 C1058 1.523 . S
C1058 C1039 1.368 . S
C1058 C1052 1.368 . S
C1058 C1057 1.523 . S
C1059 C1043 1.429 . S
C1059 C1055 1.429 . S
C1059 C1060 1.523 . S
C1060 C1044 1.368 . S
C1060 C1056 1.368 . S
C1060 C1059 1.523 . S
H1061 C1036 0.950 . S
H1062 C1038 0.950 . S
H1063 C1039 0.949 . S
H1064 C1041 0.950 . S
H1065 C1043 0.950 . S
C1066 C1067 1.349 . S
C1066 C1068 1.327 . S
C1066 H1091 0.950 . S
C1067 C1066 1.349 . S
C1067 C1083 1.349 . S
C1068 C1066 1.327 . S
C1068 C1087 1.429 . S
C1068 H1092 0.950 . S
C1069 C1086 1.574 . S
C1069 C1088 1.368 . S
C1069 H1093 0.949 . S
H1070 C1074 0.949 . S
C1071 C1072 1.349 . S
C1071 C1073 1.327 . S
C1071 H1094 0.950 . S
C1072 C1071 1.349 . S
C1072 C1084 1.349 . S
C1073 C1071 1.327 . S
C1073 C1089 1.429 . S
C1073 H1095 0.950 . S
C1074 H1070 0.949 . S
C1074 C1082 1.574 . S
C1074 C1090 1.368 . S
H1075 C1083 0.950 . S
H1076 C1081 0.950 . S
H1077 C1082 0.949 . S
H1078 C1084 0.950 . S
H1079 C1085 0.950 . S
H1080 C1086 0.949 . S
C1081 H1076 0.950 . S
C1081 C1083 1.327 . S
C1081 C1087 1.429 . S
C1082 C1074 1.574 . S
C1082 H1077 0.949 . S
C1082 C1088 1.368 . S
C1083 C1067 1.349 . S
C1083 H1075 0.950 . S
C1083 C1081 1.327 . S
C1084 C1072 1.349 . S
C1084 H1078 0.950 . S
C1084 C1085 1.327 . S
C1085 H1079 0.950 . S
C1085 C1084 1.327 . S
C1085 C1089 1.429 . S
C1086 C1069 1.574 . S
C1086 H1080 0.949 . S
C1086 C1090 1.368 . S
C1087 C1068 1.429 . S
C1087 C1081 1.429 . S
C1087 C1088 1.523 . S
C1088 C1069 1.368 . S
C1088 C1082 1.368 . S
C1088 C1087 1.523 . S
C1089 C1073 1.429 . S
C1089 C1085 1.429 . S
C1089 C1090 1.523 . S
C1090 C1074 1.368 . S
C1090 C1086 1.368 . S
C1090 C1089 1.523 . S
H1091 C1066 0.950 . S
H1092 C1068 0.950 . S
H1093 C1069 0.949 . S
H1094 C1071 0.950 . S
H1095 C1073 0.950 . S
C1096 C1097 1.349 . S
C1096 C1098 1.327 . S
C1096 H1121 0.950 1_455 S
C1097 C1096 1.349 . S
C1097 C1113 1.349 . S
C1098 C1096 1.327 . S
C1098 C1117 1.429 . S
C1098 H1122 0.950 . S
C1099 C1116 1.574 . S
C1099 C1118 1.368 . S
C1099 H1123 0.949 . S
H1100 C1104 0.949 . S
C1101 C1102 1.349 . S
C1101 C1103 1.327 . S
C1101 H1124 0.950 . S
C1102 C1101 1.349 . S
C1102 C1114 1.349 . S
C1103 C1101 1.327 . S
C1103 C1119 1.429 . S
C1103 H1125 0.950 . S
C1104 H1100 0.949 . S
C1104 C1112 1.574 . S
C1104 C1120 1.368 . S
H1105 C1113 0.950 . S
H1106 C1111 0.950 . S
H1107 C1112 0.949 . S
H1108 C1114 0.950 . S
H1109 C1115 0.950 . S
H1110 C1116 0.949 . S
C1111 H1106 0.950 . S
C1111 C1113 1.327 . S
C1111 C1117 1.429 . S
C1112 C1104 1.574 . S
C1112 H1107 0.949 . S
C1112 C1118 1.368 . S
C1113 C1097 1.349 . S
C1113 H1105 0.950 . S
C1113 C1111 1.327 . S
C1114 C1102 1.349 . S
C1114 H1108 0.950 . S
C1114 C1115 1.327 . S
C1115 H1109 0.950 . S
C1115 C1114 1.327 . S
C1115 C1119 1.429 . S
C1116 C1099 1.574 . S
C1116 H1110 0.949 . S
C1116 C1120 1.368 . S
C1117 C1098 1.429 . S
C1117 C1111 1.429 . S
C1117 C1118 1.523 . S
C1118 C1099 1.368 . S
C1118 C1112 1.368 . S
C1118 C1117 1.523 . S
C1119 C1103 1.429 . S
C1119 C1115 1.429 . S
C1119 C1120 1.523 . S
C1120 C1104 1.368 . S
C1120 C1116 1.368 . S
C1120 C1119 1.523 . S
H1121 C1096 0.950 1_655 S
H1122 C1098 0.950 . S
H1123 C1099 0.949 . S
H1124 C1101 0.950 . S
H1125 C1103 0.950 . S
C1126 C1127 1.349 . S
C1126 C1128 1.327 . S
C1126 H1151 0.950 . S
C1127 C1126 1.349 . S
C1127 C1143 1.349 . S
C1128 C1126 1.327 . S
C1128 C1147 1.429 . S
C1128 H1152 0.950 . S
C1129 C1146 1.574 . S
C1129 C1148 1.368 . S
C1129 H1153 0.949 . S
H1130 C1134 0.949 . S
C1131 C1132 1.349 . S
C1131 C1133 1.327 . S
C1131 H1154 0.950 . S
C1132 C1131 1.349 . S
C1132 C1144 1.349 . S
C1133 C1131 1.327 . S
C1133 C1149 1.429 . S
C1133 H1155 0.950 . S
C1134 H1130 0.949 . S
C1134 C1142 1.574 . S
C1134 C1150 1.368 . S
H1135 C1143 0.950 . S
H1136 C1141 0.950 . S
H1137 C1142 0.949 . S
H1138 C1144 0.950 . S
H1139 C1145 0.950 . S
H1140 C1146 0.949 . S
C1141 H1136 0.950 . S
C1141 C1143 1.327 . S
C1141 C1147 1.429 . S
C1142 C1134 1.574 . S
C1142 H1137 0.949 . S
C1142 C1148 1.368 . S
C1143 C1127 1.349 . S
C1143 H1135 0.950 . S
C1143 C1141 1.327 . S
C1144 C1132 1.349 . S
C1144 H1138 0.950 . S
C1144 C1145 1.327 . S
C1145 H1139 0.950 . S
C1145 C1144 1.327 . S
C1145 C1149 1.429 . S
C1146 C1129 1.574 . S
C1146 H1140 0.949 . S
C1146 C1150 1.368 . S
C1147 C1128 1.429 . S
C1147 C1141 1.429 . S
C1147 C1148 1.523 . S
C1148 C1129 1.368 . S
C1148 C1142 1.368 . S
C1148 C1147 1.523 . S
C1149 C1133 1.429 . S
C1149 C1145 1.429 . S
C1149 C1150 1.523 . S
C1150 C1134 1.368 . S
C1150 C1146 1.368 . S
C1150 C1149 1.523 . S
H1151 C1126 0.950 . S
H1152 C1128 0.950 . S
H1153 C1129 0.949 . S
H1154 C1131 0.950 . S
H1155 C1133 0.950 . S
C1156 C1157 1.349 . S
C1156 C1158 1.327 . S
C1156 H1181 0.950 . S
C1157 C1156 1.349 . S
C1157 C1173 1.349 . S
C1158 C1156 1.327 . S
C1158 C1177 1.429 . S
C1158 H1182 0.950 . S
C1159 C1176 1.574 . S
C1159 C1178 1.368 . S
C1159 H1183 0.949 . S
H1160 C1164 0.949 . S
C1161 C1162 1.349 . S
C1161 C1163 1.327 . S
C1161 H1184 0.950 . S
C1162 C1161 1.349 . S
C1162 C1174 1.349 . S
C1163 C1161 1.327 . S
C1163 C1179 1.429 . S
C1163 H1185 0.950 . S
C1164 H1160 0.949 . S
C1164 C1172 1.574 . S
C1164 C1180 1.368 . S
H1165 C1173 0.950 . S
H1166 C1171 0.950 . S
H1167 C1172 0.949 . S
H1168 C1174 0.950 . S
H1169 C1175 0.950 . S
H1170 C1176 0.949 . S
C1171 H1166 0.950 . S
C1171 C1173 1.327 . S
C1171 C1177 1.429 . S
C1172 C1164 1.574 . S
C1172 H1167 0.949 . S
C1172 C1178 1.368 . S
C1173 C1157 1.349 . S
C1173 H1165 0.950 . S
C1173 C1171 1.327 . S
C1174 C1162 1.349 . S
C1174 H1168 0.950 . S
C1174 C1175 1.327 . S
C1175 H1169 0.950 . S
C1175 C1174 1.327 . S
C1175 C1179 1.429 . S
C1176 C1159 1.574 . S
C1176 H1170 0.949 . S
C1176 C1180 1.368 . S
C1177 C1158 1.429 . S
C1177 C1171 1.429 . S
C1177 C1178 1.523 . S
C1178 C1159 1.368 . S
C1178 C1172 1.368 . S
C1178 C1177 1.523 . S
C1179 C1163 1.429 . S
C1179 C1175 1.429 . S
C1179 C1180 1.523 . S
C1180 C1164 1.368 . S
C1180 C1176 1.368 . S
C1180 C1179 1.523 . S
H1181 C1156 0.950 . S
H1182 C1158 0.950 . S
H1183 C1159 0.949 . S
H1184 C1161 0.950 . S
H1185 C1163 0.950 . S
C1186 C1187 1.349 . S
C1186 C1188 1.327 . S
C1186 H1211 0.950 . S
C1187 C1186 1.349 . S
C1187 C1203 1.349 . S
C1188 C1186 1.327 . S
C1188 C1207 1.429 . S
C1188 H1212 0.950 . S
C1189 C1206 1.574 . S
C1189 C1208 1.368 . S
C1189 H1213 0.949 . S
H1190 C1194 0.949 . S
C1191 C1192 1.349 . S
C1191 C1193 1.327 . S
C1191 H1214 0.950 . S
C1192 C1191 1.349 . S
C1192 C1204 1.349 . S
C1193 C1191 1.327 . S
C1193 C1209 1.429 . S
C1193 H1215 0.950 . S
C1194 H1190 0.949 . S
C1194 C1202 1.574 . S
C1194 C1210 1.368 . S
H1195 C1203 0.950 . S
H1196 C1201 0.950 . S
H1197 C1202 0.949 . S
H1198 C1204 0.950 . S
H1199 C1205 0.950 . S
H1200 C1206 0.949 . S
C1201 H1196 0.950 . S
C1201 C1203 1.327 . S
C1201 C1207 1.429 . S
C1202 C1194 1.574 . S
C1202 H1197 0.949 . S
C1202 C1208 1.368 . S
C1203 C1187 1.349 . S
C1203 H1195 0.950 . S
C1203 C1201 1.327 . S
C1204 C1192 1.349 . S
C1204 H1198 0.950 . S
C1204 C1205 1.327 . S
C1205 H1199 0.950 . S
C1205 C1204 1.327 . S
C1205 C1209 1.429 . S
C1206 C1189 1.574 . S
C1206 H1200 0.949 . S
C1206 C1210 1.368 . S
C1207 C1188 1.429 . S
C1207 C1201 1.429 . S
C1207 C1208 1.523 . S
C1208 C1189 1.368 . S
C1208 C1202 1.368 . S
C1208 C1207 1.523 . S
C1209 C1193 1.429 . S
C1209 C1205 1.429 . S
C1209 C1210 1.523 . S
C1210 C1194 1.368 . S
C1210 C1206 1.368 . S
C1210 C1209 1.523 . S
H1211 C1186 0.950 . S
H1212 C1188 0.950 . S
H1213 C1189 0.949 . S
H1214 C1191 0.950 . S
H1215 C1193 0.950 . S
C1216 C1217 1.349 . S
C1216 C1218 1.327 . S
C1216 H1241 0.950 . S
C1217 C1216 1.349 . S
C1217 C1233 1.349 . S
C1218 C1216 1.327 . S
C1218 C1237 1.429 . S
C1218 H1242 0.950 . S
C1219 C1236 1.574 1_655 S
C1219 C1238 1.368 . S
C1219 H1243 0.949 . S
H1220 C1224 0.949 . S
C1221 C1222 1.349 . S
C1221 C1223 1.327 . S
C1221 H1244 0.950 . S
C1222 C1221 1.349 . S
C1222 C1234 1.349 . S
C1223 C1221 1.327 . S
C1223 C1239 1.429 . S
C1223 H1245 0.950 . S
C1224 H1220 0.949 . S
C1224 C1232 1.574 . S
C1224 C1240 1.368 . S
H1225 C1233 0.950 . S
H1226 C1231 0.950 . S
H1227 C1232 0.949 . S
H1228 C1234 0.950 . S
H1229 C1235 0.950 1_655 S
H1230 C1236 0.949 . S
C1231 H1226 0.950 . S
C1231 C1233 1.327 . S
C1231 C1237 1.429 . S
C1232 C1224 1.574 . S
C1232 H1227 0.949 . S
C1232 C1238 1.368 . S
C1233 C1217 1.349 . S
C1233 H1225 0.950 . S
C1233 C1231 1.327 . S
C1234 C1222 1.349 . S
C1234 H1228 0.950 . S
C1234 C1235 1.327 . S
C1235 H1229 0.950 1_455 S
C1235 C1234 1.327 . S
C1235 C1239 1.429 . S
C1236 C1219 1.574 1_455 S
C1236 H1230 0.949 . S
C1236 C1240 1.368 1_455 S
C1237 C1218 1.429 . S
C1237 C1231 1.429 . S
C1237 C1238 1.523 . S
C1238 C1219 1.368 . S
C1238 C1232 1.368 . S
C1238 C1237 1.523 . S
C1239 C1223 1.429 . S
C1239 C1235 1.429 . S
C1239 C1240 1.523 1_455 S
C1240 C1224 1.368 . S
C1240 C1236 1.368 1_655 S
C1240 C1239 1.523 1_655 S
H1241 C1216 0.950 . S
H1242 C1218 0.950 . S
H1243 C1219 0.949 . S
H1244 C1221 0.950 . S
H1245 C1223 0.950 . S
C1246 C1247 1.349 . S
C1246 C1248 1.327 . S
C1246 H1271 0.950 . S
C1247 C1246 1.349 . S
C1247 C1263 1.349 . S
C1248 C1246 1.327 . S
C1248 C1267 1.429 . S
C1248 H1272 0.950 . S
C1249 C1266 1.574 . S
C1249 C1268 1.368 . S
C1249 H1273 0.949 . S
H1250 C1254 0.949 . S
C1251 C1252 1.349 . S
C1251 C1253 1.327 . S
C1251 H1274 0.950 . S
C1252 C1251 1.349 . S
C1252 C1264 1.349 . S
C1253 C1251 1.327 . S
C1253 C1269 1.429 . S
C1253 H1275 0.950 . S
C1254 H1250 0.949 . S
C1254 C1262 1.574 . S
C1254 C1270 1.368 . S
H1255 C1263 0.950 . S
H1256 C1261 0.950 . S
H1257 C1262 0.949 . S
H1258 C1264 0.950 . S
H1259 C1265 0.950 . S
H1260 C1266 0.949 . S
C1261 H1256 0.950 . S
C1261 C1263 1.327 . S
C1261 C1267 1.429 . S
C1262 C1254 1.574 . S
C1262 H1257 0.949 . S
C1262 C1268 1.368 . S
C1263 C1247 1.349 . S
C1263 H1255 0.950 . S
C1263 C1261 1.327 . S
C1264 C1252 1.349 . S
C1264 H1258 0.950 . S
C1264 C1265 1.327 . S
C1265 H1259 0.950 . S
C1265 C1264 1.327 . S
C1265 C1269 1.429 . S
C1266 C1249 1.574 . S
C1266 H1260 0.949 . S
C1266 C1270 1.368 . S
C1267 C1248 1.429 . S
C1267 C1261 1.429 . S
C1267 C1268 1.523 . S
C1268 C1249 1.368 . S
C1268 C1262 1.368 . S
C1268 C1267 1.523 . S
C1269 C1253 1.429 . S
C1269 C1265 1.429 . S
C1269 C1270 1.523 . S
C1270 C1254 1.368 . S
C1270 C1266 1.368 . S
C1270 C1269 1.523 . S
H1271 C1246 0.950 . S
H1272 C1248 0.950 . S
H1273 C1249 0.949 . S
H1274 C1251 0.950 . S
H1275 C1253 0.950 . S
C1276 C1277 1.349 . S
C1276 C1278 1.327 . S
C1276 H1301 0.950 . S
C1277 C1276 1.349 . S
C1277 C1293 1.349 . S
C1278 C1276 1.327 . S
C1278 C1297 1.429 . S
C1278 H1302 0.950 . S
C1279 C1296 1.574 . S
C1279 C1298 1.368 . S
C1279 H1303 0.949 . S
H1280 C1284 0.949 . S
C1281 C1282 1.349 . S
C1281 C1283 1.327 . S
C1281 H1304 0.950 . S
C1282 C1281 1.349 . S
C1282 C1294 1.349 . S
C1283 C1281 1.327 . S
C1283 C1299 1.429 . S
C1283 H1305 0.950 . S
C1284 H1280 0.949 . S
C1284 C1292 1.574 . S
C1284 C1300 1.368 . S
H1285 C1293 0.950 . S
H1286 C1291 0.950 . S
H1287 C1292 0.949 . S
H1288 C1294 0.950 . S
H1289 C1295 0.950 . S
H1290 C1296 0.949 . S
C1291 H1286 0.950 . S
C1291 C1293 1.327 . S
C1291 C1297 1.429 . S
C1292 C1284 1.574 . S
C1292 H1287 0.949 . S
C1292 C1298 1.368 . S
C1293 C1277 1.349 . S
C1293 H1285 0.950 . S
C1293 C1291 1.327 . S
C1294 C1282 1.349 . S
C1294 H1288 0.950 . S
C1294 C1295 1.327 . S
C1295 H1289 0.950 . S
C1295 C1294 1.327 . S
C1295 C1299 1.429 . S
C1296 C1279 1.574 . S
C1296 H1290 0.949 . S
C1296 C1300 1.368 . S
C1297 C1278 1.429 . S
C1297 C1291 1.429 . S
C1297 C1298 1.523 . S
C1298 C1279 1.368 . S
C1298 C1292 1.368 . S
C1298 C1297 1.523 . S
C1299 C1283 1.429 . S
C1299 C1295 1.429 . S
C1299 C1300 1.523 . S
C1300 C1284 1.368 . S
C1300 C1296 1.368 . S
C1300 C1299 1.523 . S
H1301 C1276 0.950 . S
H1302 C1278 0.950 . S
H1303 C1279 0.949 . S
H1304 C1281 0.950 . S
H1305 C1283 0.950 . S
C1306 C1307 1.349 . S
C1306 C1308 1.327 . S
C1306 H1331 0.950 . S
C1307 C1306 1.349 . S
C1307 C1323 1.349 . S
C1308 C1306 1.327 . S
C1308 C1327 1.429 . S
C1308 H1332 0.950 . S
C1309 C1326 1.574 . S
C1309 C1328 1.368 . S
C1309 H1333 0.949 . S
H1310 C1314 0.949 . S
C1311 C1312 1.349 . S
C1311 C1313 1.327 . S
C1311 H1334 0.950 . S
C1312 C1311 1.349 . S
C1312 C1324 1.349 . S
C1313 C1311 1.327 . S
C1313 C1329 1.429 . S
C1313 H1335 0.950 . S
C1314 H1310 0.949 . S
C1314 C1322 1.574 . S
C1314 C1330 1.368 . S
H1315 C1323 0.950 . S
H1316 C1321 0.950 . S
H1317 C1322 0.949 . S
H1318 C1324 0.950 . S
H1319 C1325 0.950 . S
H1320 C1326 0.949 . S
C1321 H1316 0.950 . S
C1321 C1323 1.327 . S
C1321 C1327 1.429 . S
C1322 C1314 1.574 . S
C1322 H1317 0.949 . S
C1322 C1328 1.368 . S
C1323 C1307 1.349 . S
C1323 H1315 0.950 . S
C1323 C1321 1.327 . S
C1324 C1312 1.349 . S
C1324 H1318 0.950 . S
C1324 C1325 1.327 . S
C1325 H1319 0.950 . S
C1325 C1324 1.327 . S
C1325 C1329 1.429 . S
C1326 C1309 1.574 . S
C1326 H1320 0.949 . S
C1326 C1330 1.368 . S
C1327 C1308 1.429 . S
C1327 C1321 1.429 . S
C1327 C1328 1.523 . S
C1328 C1309 1.368 . S
C1328 C1322 1.368 . S
C1328 C1327 1.523 . S
C1329 C1313 1.429 . S
C1329 C1325 1.429 . S
C1329 C1330 1.523 . S
C1330 C1314 1.368 . S
C1330 C1326 1.368 . S
C1330 C1329 1.523 . S
H1331 C1306 0.950 . S
H1332 C1308 0.950 . S
H1333 C1309 0.949 . S
H1334 C1311 0.950 . S
H1335 C1313 0.950 . S
C1336 C1337 1.349 . S
C1336 C1338 1.327 . S
C1336 H1361 0.950 . S
C1337 C1336 1.349 . S
C1337 C1353 1.349 . S
C1338 C1336 1.327 . S
C1338 C1357 1.429 . S
C1338 H1362 0.950 . S
C1339 C1356 1.553 1_655 S
C1339 C1358 1.406 . S
C1339 H1363 0.932 1_655 S
H1340 C1344 0.949 . S
C1341 C1342 1.349 . S
C1341 C1343 1.327 . S
C1341 H1364 0.950 . S
C1342 C1341 1.349 . S
C1342 C1354 1.349 . S
C1343 C1341 1.327 . S
C1343 C1359 1.429 . S
C1343 H1365 0.950 . S
C1344 H1340 0.949 . S
C1344 C1352 1.574 . S
C1344 C1360 1.368 1_655 S
H1345 C1353 0.950 . S
H1346 C1351 0.950 . S
H1347 C1352 0.949 . S
H1348 C1354 0.950 . S
H1349 C1355 0.950 . S
H1350 C1356 0.949 . S
C1351 H1346 0.950 . S
C1351 C1353 1.327 . S
C1351 C1357 1.429 . S
C1352 C1344 1.574 . S
C1352 H1347 0.949 . S
C1352 C1358 1.368 . S
C1353 C1337 1.349 . S
C1353 H1345 0.950 . S
C1353 C1351 1.327 . S
C1354 C1342 1.349 . S
C1354 H1348 0.950 . S
C1354 C1355 1.327 . S
C1355 H1349 0.950 . S
C1355 C1354 1.327 . S
C1355 C1359 1.429 . S
C1356 C1339 1.553 1_455 S
C1356 H1350 0.949 . S
C1356 C1360 1.368 . S
C1357 C1338 1.429 . S
C1357 C1351 1.429 . S
C1357 C1358 1.523 . S
C1358 C1339 1.406 . S
C1358 C1352 1.368 . S
C1358 C1357 1.523 . S
C1359 C1343 1.429 . S
C1359 C1355 1.429 . S
C1359 C1360 1.523 . S
C1360 C1344 1.368 1_455 S
C1360 C1356 1.368 . S
C1360 C1359 1.523 . S
H1361 C1336 0.950 . S
H1362 C1338 0.950 . S
H1363 C1339 0.932 1_455 S
H1364 C1341 0.950 . S
H1365 C1343 0.950 . S
C1366 C1367 1.349 . S
C1366 C1368 1.327 . S
C1366 H1391 0.950 . S
C1367 C1366 1.349 . S
C1367 C1383 1.349 . S
C1368 C1366 1.327 . S
C1368 C1387 1.429 . S
C1368 H1392 0.950 . S
C1369 C1386 1.574 . S
C1369 C1388 1.368 . S
C1369 H1393 0.949 . S
H1370 C1374 0.949 . S
C1371 C1372 1.349 . S
C1371 C1373 1.327 . S
C1371 H1394 0.950 . S
C1372 C1371 1.349 . S
C1372 C1384 1.349 . S
C1373 C1371 1.327 . S
C1373 C1389 1.429 . S
C1373 H1395 0.950 . S
C1374 H1370 0.949 . S
C1374 C1382 1.574 . S
C1374 C1390 1.368 . S
H1375 C1383 0.950 . S
H1376 C1381 0.950 . S
H1377 C1382 0.949 . S
H1378 C1384 0.950 . S
H1379 C1385 0.950 . S
H1380 C1386 0.949 . S
C1381 H1376 0.950 . S
C1381 C1383 1.327 . S
C1381 C1387 1.429 . S
C1382 C1374 1.574 . S
C1382 H1377 0.949 . S
C1382 C1388 1.368 . S
C1383 C1367 1.349 . S
C1383 H1375 0.950 . S
C1383 C1381 1.327 . S
C1384 C1372 1.349 . S
C1384 H1378 0.950 . S
C1384 C1385 1.327 . S
C1385 H1379 0.950 . S
C1385 C1384 1.327 . S
C1385 C1389 1.429 . S
C1386 C1369 1.574 . S
C1386 H1380 0.949 . S
C1386 C1390 1.368 . S
C1387 C1368 1.429 . S
C1387 C1381 1.429 . S
C1387 C1388 1.523 . S
C1388 C1369 1.368 . S
C1388 C1382 1.368 . S
C1388 C1387 1.523 . S
C1389 C1373 1.429 . S
C1389 C1385 1.429 . S
C1389 C1390 1.523 . S
C1390 C1374 1.368 . S
C1390 C1386 1.368 . S
C1390 C1389 1.523 . S
H1391 C1366 0.950 . S
H1392 C1368 0.950 . S
H1393 C1369 0.949 . S
H1394 C1371 0.950 . S
H1395 C1373 0.950 . S
C1396 C1397 1.349 . S
C1396 C1398 1.327 . S
C1396 H1421 0.950 . S
C1397 C1396 1.349 . S
C1397 C1413 1.349 . S
C1398 C1396 1.327 . S
C1398 C1417 1.429 . S
C1398 H1422 0.950 . S
C1399 C1416 1.574 . S
C1399 C1418 1.368 . S
C1399 H1423 0.949 . S
H1400 C1404 0.949 . S
C1401 C1402 1.349 . S
C1401 C1403 1.327 . S
C1401 H1424 0.950 . S
C1402 C1401 1.349 . S
C1402 C1414 1.349 . S
C1403 C1401 1.327 . S
C1403 C1419 1.429 . S
C1403 H1425 0.950 . S
C1404 H1400 0.949 . S
C1404 C1412 1.574 . S
C1404 C1420 1.368 . S
H1405 C1413 0.950 . S
H1406 C1411 0.950 . S
H1407 C1412 0.949 . S
H1408 C1414 0.950 . S
H1409 C1415 0.950 . S
H1410 C1416 0.949 . S
C1411 H1406 0.950 . S
C1411 C1413 1.327 . S
C1411 C1417 1.429 . S
C1412 C1404 1.574 . S
C1412 H1407 0.949 . S
C1412 C1418 1.368 . S
C1413 C1397 1.349 . S
C1413 H1405 0.950 . S
C1413 C1411 1.327 . S
C1414 C1402 1.349 . S
C1414 H1408 0.950 . S
C1414 C1415 1.327 . S
C1415 H1409 0.950 . S
C1415 C1414 1.327 . S
C1415 C1419 1.429 . S
C1416 C1399 1.574 . S
C1416 H1410 0.949 . S
C1416 C1420 1.368 . S
C1417 C1398 1.429 . S
C1417 C1411 1.429 . S
C1417 C1418 1.523 . S
C1418 C1399 1.368 . S
C1418 C1412 1.368 . S
C1418 C1417 1.523 . S
C1419 C1403 1.429 . S
C1419 C1415 1.429 . S
C1419 C1420 1.523 . S
C1420 C1404 1.368 . S
C1420 C1416 1.368 . S
C1420 C1419 1.523 . S
H1421 C1396 0.950 . S
H1422 C1398 0.950 . S
H1423 C1399 0.949 . S
H1424 C1401 0.950 . S
H1425 C1403 0.950 . S
C1426 C1427 1.349 . S
C1426 C1428 1.327 . S
C1426 H1451 0.950 . S
C1427 C1426 1.349 . S
C1427 C1443 1.349 . S
C1428 C1426 1.327 . S
C1428 C1447 1.429 . S
C1428 H1452 0.950 . S
C1429 C1446 1.574 . S
C1429 C1448 1.368 . S
C1429 H1453 0.949 . S
H1430 C1434 0.949 . S
C1431 C1432 1.349 . S
C1431 C1433 1.327 . S
C1431 H1454 0.950 . S
C1432 C1431 1.349 . S
C1432 C1444 1.349 . S
C1433 C1431 1.327 . S
C1433 C1449 1.429 . S
C1433 H1455 0.950 . S
C1434 H1430 0.949 . S
C1434 C1442 1.574 . S
C1434 C1450 1.368 . S
H1435 C1443 0.950 . S
H1436 C1441 0.950 . S
H1437 C1442 0.949 . S
H1438 C1444 0.950 . S
H1439 C1445 0.950 . S
H1440 C1446 0.949 . S
C1441 H1436 0.950 . S
C1441 C1443 1.327 . S
C1441 C1447 1.429 . S
C1442 C1434 1.574 . S
C1442 H1437 0.949 . S
C1442 C1448 1.368 . S
C1443 C1427 1.349 . S
C1443 H1435 0.950 . S
C1443 C1441 1.327 . S
C1444 C1432 1.349 . S
C1444 H1438 0.950 . S
C1444 C1445 1.327 . S
C1445 H1439 0.950 . S
C1445 C1444 1.327 . S
C1445 C1449 1.429 . S
C1446 C1429 1.574 . S
C1446 H1440 0.949 . S
C1446 C1450 1.368 . S
C1447 C1428 1.429 . S
C1447 C1441 1.429 . S
C1447 C1448 1.523 . S
C1448 C1429 1.368 . S
C1448 C1442 1.368 . S
C1448 C1447 1.523 . S
C1449 C1433 1.429 . S
C1449 C1445 1.429 . S
C1449 C1450 1.523 . S
C1450 C1434 1.368 . S
C1450 C1446 1.368 . S
C1450 C1449 1.523 . S
H1451 C1426 0.950 . S
H1452 C1428 0.950 . S
H1453 C1429 0.949 . S
H1454 C1431 0.950 . S
H1455 C1433 0.950 . S
C1456 C1457 1.349 . S
C1456 C1458 1.327 . S
C1456 H1481 0.950 . S
C1457 C1456 1.349 . S
C1457 C1473 1.349 1_554 S
C1458 C1456 1.327 . S
C1458 C1477 1.429 . S
C1458 H1482 0.950 . S
C1459 C1476 1.574 . S
C1459 C1478 1.368 . S
C1459 H1483 0.949 1_554 S
H1460 C1464 0.949 . S
C1461 C1462 1.349 1_565 S
C1461 C1463 1.327 . S
C1461 H1484 0.942 1_565 S
C1462 C1461 1.349 1_545 S
C1462 C1474 1.349 . S
C1463 C1461 1.327 . S
C1463 C1479 1.429 . S
C1463 H1485 0.950 . S
C1464 H1460 0.949 . S
C1464 C1472 1.574 . S
C1464 C1480 1.368 . S
H1465 C1473 0.950 . S
H1466 C1471 0.950 1_556 S
H1467 C1472 0.949 . S
H1468 C1474 0.950 . S
H1469 C1475 0.950 . S
H1470 C1476 0.949 . S
C1471 H1466 0.950 1_554 S
C1471 C1473 1.327 1_554 S
C1471 C1477 1.429 . S
C1472 C1464 1.574 . S
C1472 H1467 0.949 . S
C1472 C1478 1.368 . S
C1473 C1457 1.349 1_556 S
C1473 H1465 0.950 . S
C1473 C1471 1.327 1_556 S
C1474 C1462 1.349 . S
C1474 H1468 0.950 . S
C1474 C1475 1.327 1_545 S
C1475 H1469 0.950 . S
C1475 C1474 1.327 1_565 S
C1475 C1479 1.429 . S
C1476 C1459 1.574 . S
C1476 H1470 0.949 . S
C1476 C1480 1.368 . S
C1477 C1458 1.429 . S
C1477 C1471 1.429 . S
C1477 C1478 1.523 . S
C1478 C1459 1.368 . S
C1478 C1472 1.368 . S
C1478 C1477 1.523 . S
C1479 C1463 1.429 . S
C1479 C1475 1.429 . S
C1479 C1480 1.523 . S
C1480 C1464 1.368 . S
C1480 C1476 1.368 . S
C1480 C1479 1.523 . S
H1481 C1456 0.950 . S
H1482 C1458 0.950 . S
H1483 C1459 0.949 1_556 S
H1484 C1461 0.942 1_545 S
H1485 C1463 0.950 . S
C1486 C1487 1.349 1_556 S
C1486 C1488 1.327 . S
C1486 H1511 0.950 . S
C1487 C1486 1.349 1_554 S
C1487 C1503 1.349 . S
C1488 C1486 1.327 . S
C1488 C1507 1.429 1_556 S
C1488 H1512 0.950 . S
C1489 C1506 1.574 . S
C1489 C1508 1.368 . S
C1489 H1513 0.949 . S
H1490 C1494 0.949 . S
C1491 C1492 1.349 . S
C1491 C1493 1.327 . S
C1491 H1514 0.950 . S
C1492 C1491 1.349 . S
C1492 C1504 1.326 1_554 S
C1493 C1491 1.327 . S
C1493 C1509 1.429 . S
C1493 H1515 0.950 . S
C1494 H1490 0.949 . S
C1494 C1502 1.574 . S
C1494 C1510 1.368 1_556 S
H1495 C1503 0.950 . S
H1496 C1501 0.950 . S
H1497 C1502 0.949 . S
H1498 C1504 0.966 . S
H1499 C1505 0.950 . S
H1500 C1506 0.949 . S
C1501 H1496 0.950 . S
C1501 C1503 1.327 . S
C1501 C1507 1.429 . S
C1502 C1494 1.574 . S
C1502 H1497 0.949 . S
C1502 C1508 1.368 1_556 S
C1503 C1487 1.349 . S
C1503 H1495 0.950 . S
C1503 C1501 1.327 . S
C1504 C1492 1.326 1_556 S
C1504 H1498 0.966 . S
C1504 C1505 1.334 . S
C1505 H1499 0.950 . S
C1505 C1504 1.334 . S
C1505 C1509 1.429 1_556 S
C1506 C1489 1.574 . S
C1506 H1500 0.949 . S
C1506 C1510 1.368 . S
C1507 C1488 1.429 1_554 S
C1507 C1501 1.429 . S
C1507 C1508 1.523 . S
C1508 C1489 1.368 . S
C1508 C1502 1.368 1_554 S
C1508 C1507 1.523 . S
C1509 C1493 1.429 . S
C1509 C1505 1.429 1_554 S
C1509 C1510 1.523 . S
C1510 C1494 1.368 1_554 S
C1510 C1506 1.368 . S
C1510 C1509 1.523 . S
H1511 C1486 0.950 . S
H1512 C1488 0.950 . S
H1513 C1489 0.949 . S
H1514 C1491 0.950 . S
H1515 C1493 0.950 . S
C1516 C1517 1.349 . S
C1516 C1518 1.327 . S
C1516 H1541 0.950 . S
C1517 C1516 1.349 . S
C1517 C1533 1.349 . S
C1518 C1516 1.327 . S
C1518 C1537 1.429 . S
C1518 H1542 0.950 . S
C1519 C1536 1.574 . S
C1519 C1538 1.368 . S
C1519 H1543 0.949 . S
H1520 C1524 0.949 . S
C1521 C1522 1.349 . S
C1521 C1523 1.327 . S
C1521 H1544 0.950 . S
C1522 C1521 1.349 . S
C1522 C1534 1.349 . S
C1523 C1521 1.327 . S
C1523 C1539 1.429 . S
C1523 H1545 0.950 . S
C1524 H1520 0.949 . S
C1524 C1532 1.574 . S
C1524 C1540 1.368 . S
H1525 C1533 0.950 . S
H1526 C1531 0.950 . S
H1527 C1532 0.949 . S
H1528 C1534 0.950 . S
H1529 C1535 0.950 . S
H1530 C1536 0.949 . S
C1531 H1526 0.950 . S
C1531 C1533 1.327 . S
C1531 C1537 1.429 . S
C1532 C1524 1.574 . S
C1532 H1527 0.949 . S
C1532 C1538 1.368 . S
C1533 C1517 1.349 . S
C1533 H1525 0.950 . S
C1533 C1531 1.327 . S
C1534 C1522 1.349 . S
C1534 H1528 0.950 . S
C1534 C1535 1.327 . S
C1535 H1529 0.950 . S
C1535 C1534 1.327 . S
C1535 C1539 1.429 . S
C1536 C1519 1.574 . S
C1536 H1530 0.949 . S
C1536 C1540 1.368 . S
C1537 C1518 1.429 . S
C1537 C1531 1.429 . S
C1537 C1538 1.523 . S
C1538 C1519 1.368 . S
C1538 C1532 1.368 . S
C1538 C1537 1.523 . S
C1539 C1523 1.429 . S
C1539 C1535 1.429 . S
C1539 C1540 1.523 . S
C1540 C1524 1.368 . S
C1540 C1536 1.368 . S
C1540 C1539 1.523 . S
H1541 C1516 0.950 . S
H1542 C1518 0.950 . S
H1543 C1519 0.949 . S
H1544 C1521 0.950 . S
H1545 C1523 0.950 . S
C1546 C1547 1.349 . S
C1546 C1548 1.327 . S
C1546 H1571 0.950 . S
C1547 C1546 1.349 . S
C1547 C1563 1.349 . S
C1548 C1546 1.327 . S
C1548 C1567 1.429 . S
C1548 H1572 0.950 . S
C1549 C1566 1.574 . S
C1549 C1568 1.368 . S
C1549 H1573 0.949 . S
H1550 C1554 0.949 . S
C1551 C1552 1.349 . S
C1551 C1553 1.327 . S
C1551 H1574 0.982 . S
C1552 C1551 1.349 . S
C1552 C1564 1.349 . S
C1553 C1551 1.327 . S
C1553 C1569 1.429 . S
C1553 H1575 0.950 . S
C1554 H1550 0.949 . S
C1554 C1562 1.574 . S
C1554 C1570 1.368 . S
H1555 C1563 0.950 . S
H1556 C1561 0.950 . S
H1557 C1562 0.949 . S
H1558 C1564 0.950 . S
H1559 C1565 0.950 . S
H1560 C1566 0.949 . S
C1561 H1556 0.950 . S
C1561 C1563 1.327 . S
C1561 C1567 1.429 . S
C1562 C1554 1.574 . S
C1562 H1557 0.949 . S
C1562 C1568 1.368 . S
C1563 C1547 1.349 . S
C1563 H1555 0.950 . S
C1563 C1561 1.327 . S
C1564 C1552 1.349 . S
C1564 H1558 0.950 . S
C1564 C1565 1.327 . S
C1565 H1559 0.950 . S
C1565 C1564 1.327 . S
C1565 C1569 1.429 . S
C1566 C1549 1.574 . S
C1566 H1560 0.949 . S
C1566 C1570 1.368 . S
C1567 C1548 1.429 . S
C1567 C1561 1.429 . S
C1567 C1568 1.523 . S
C1568 C1549 1.368 . S
C1568 C1562 1.368 . S
C1568 C1567 1.523 . S
C1569 C1553 1.429 . S
C1569 C1565 1.429 . S
C1569 C1570 1.523 . S
C1570 C1554 1.368 . S
C1570 C1566 1.368 . S
C1570 C1569 1.523 . S
H1571 C1546 0.950 . S
H1572 C1548 0.950 . S
H1573 C1549 0.949 . S
H1574 C1551 0.982 . S
H1575 C1553 0.950 . S
C1576 C1577 1.349 . S
C1576 C1578 1.327 . S
C1576 H1601 0.950 . S
C1577 C1576 1.349 . S
C1577 C1593 1.349 . S
C1578 C1576 1.327 . S
C1578 C1597 1.429 . S
C1578 H1602 0.950 . S
C1579 C1596 1.574 . S
C1579 C1598 1.368 . S
C1579 H1603 0.949 . S
H1580 C1584 0.949 . S
C1581 C1582 1.349 . S
C1581 C1583 1.327 . S
C1581 H1604 0.950 . S
C1582 C1581 1.349 . S
C1582 C1594 1.349 . S
C1583 C1581 1.327 . S
C1583 C1599 1.429 . S
C1583 H1605 0.950 . S
C1584 H1580 0.949 . S
C1584 C1592 1.574 . S
C1584 C1600 1.368 . S
H1585 C1593 0.950 . S
H1586 C1591 0.950 . S
H1587 C1592 0.949 . S
H1588 C1594 0.950 . S
H1589 C1595 0.950 . S
H1590 C1596 0.949 . S
C1591 H1586 0.950 . S
C1591 C1593 1.327 . S
C1591 C1597 1.429 . S
C1592 C1584 1.574 . S
C1592 H1587 0.949 . S
C1592 C1598 1.368 . S
C1593 C1577 1.349 . S
C1593 H1585 0.950 . S
C1593 C1591 1.327 . S
C1594 C1582 1.349 . S
C1594 H1588 0.950 . S
C1594 C1595 1.327 . S
C1595 H1589 0.950 . S
C1595 C1594 1.327 . S
C1595 C1599 1.429 . S
C1596 C1579 1.574 . S
C1596 H1590 0.949 . S
C1596 C1600 1.368 . S
C1597 C1578 1.429 . S
C1597 C1591 1.429 . S
C1597 C1598 1.523 . S
C1598 C1579 1.368 . S
C1598 C1592 1.368 . S
C1598 C1597 1.523 . S
C1599 C1583 1.429 . S
C1599 C1595 1.429 . S
C1599 C1600 1.523 . S
C1600 C1584 1.368 . S
C1600 C1596 1.368 . S
C1600 C1599 1.523 . S
H1601 C1576 0.950 . S
H1602 C1578 0.950 . S
H1603 C1579 0.949 . S
H1604 C1581 0.950 . S
H1605 C1583 0.950 . S
C1606 C1607 1.349 . S
C1606 C1608 1.327 . S
C1606 H1631 0.950 . S
C1607 C1606 1.349 . S
C1607 C1623 1.349 . S
C1608 C1606 1.327 . S
C1608 C1627 1.429 . S
C1608 H1632 0.950 . S
C1609 C1626 1.574 . S
C1609 C1628 1.368 . S
C1609 H1633 0.949 . S
H1610 C1614 0.949 . S
C1611 C1612 1.349 . S
C1611 C1613 1.327 . S
C1611 H1634 0.950 . S
C1612 C1611 1.349 . S
C1612 C1624 1.349 . S
C1613 C1611 1.327 . S
C1613 C1629 1.429 . S
C1613 H1635 0.950 . S
C1614 H1610 0.949 . S
C1614 C1622 1.574 . S
C1614 C1630 1.368 . S
H1615 C1623 0.950 . S
H1616 C1621 0.950 . S
H1617 C1622 0.949 . S
H1618 C1624 0.950 . S
H1619 C1625 0.950 . S
H1620 C1626 0.949 . S
C1621 H1616 0.950 . S
C1621 C1623 1.327 . S
C1621 C1627 1.429 . S
C1622 C1614 1.574 . S
C1622 H1617 0.949 . S
C1622 C1628 1.368 . S
C1623 C1607 1.349 . S
C1623 H1615 0.950 . S
C1623 C1621 1.327 . S
C1624 C1612 1.349 . S
C1624 H1618 0.950 . S
C1624 C1625 1.327 . S
C1625 H1619 0.950 . S
C1625 C1624 1.327 . S
C1625 C1629 1.429 . S
C1626 C1609 1.574 . S
C1626 H1620 0.949 . S
C1626 C1630 1.368 . S
C1627 C1608 1.429 . S
C1627 C1621 1.429 . S
C1627 C1628 1.523 . S
C1628 C1609 1.368 . S
C1628 C1622 1.368 . S
C1628 C1627 1.523 . S
C1629 C1613 1.429 . S
C1629 C1625 1.429 . S
C1629 C1630 1.523 . S
C1630 C1614 1.368 . S
C1630 C1626 1.368 . S
C1630 C1629 1.523 . S
H1631 C1606 0.950 . S
H1632 C1608 0.950 . S
H1633 C1609 0.949 . S
H1634 C1611 0.950 . S
H1635 C1613 0.950 . S
C1636 C1637 1.349 . S
C1636 C1638 1.327 . S
C1636 H1661 0.950 . S
C1637 C1636 1.349 . S
C1637 C1653 1.349 . S
C1638 C1636 1.327 . S
C1638 C1657 1.429 . S
C1638 H1662 0.950 . S
C1639 C1656 1.574 . S
C1639 C1658 1.368 . S
C1639 H1663 0.949 . S
H1640 C1644 0.949 . S
C1641 C1642 1.349 . S
C1641 C1643 1.327 . S
C1641 H1664 0.950 . S
C1642 C1641 1.349 . S
C1642 C1654 1.349 . S
C1643 C1641 1.327 . S
C1643 C1659 1.429 . S
C1643 H1665 0.950 . S
C1644 H1640 0.949 . S
C1644 C1652 1.574 . S
C1644 C1660 1.368 . S
H1645 C1653 0.950 . S
H1646 C1651 0.950 . S
H1647 C1652 0.949 . S
H1648 C1654 0.950 . S
H1649 C1655 0.950 . S
H1650 C1656 0.949 . S
C1651 H1646 0.950 . S
C1651 C1653 1.327 . S
C1651 C1657 1.429 . S
C1652 C1644 1.574 . S
C1652 H1647 0.949 . S
C1652 C1658 1.368 . S
C1653 C1637 1.349 . S
C1653 H1645 0.950 . S
C1653 C1651 1.327 . S
C1654 C1642 1.349 . S
C1654 H1648 0.950 . S
C1654 C1655 1.327 . S
C1655 H1649 0.950 . S
C1655 C1654 1.327 . S
C1655 C1659 1.429 . S
C1656 C1639 1.574 . S
C1656 H1650 0.949 . S
C1656 C1660 1.368 . S
C1657 C1638 1.429 . S
C1657 C1651 1.429 . S
C1657 C1658 1.523 . S
C1658 C1639 1.368 . S
C1658 C1652 1.368 . S
C1658 C1657 1.523 . S
C1659 C1643 1.429 . S
C1659 C1655 1.429 . S
C1659 C1660 1.523 . S
C1660 C1644 1.368 . S
C1660 C1656 1.368 . S
C1660 C1659 1.523 . S
H1661 C1636 0.950 . S
H1662 C1638 0.950 . S
H1663 C1639 0.949 . S
H1664 C1641 0.950 . S
H1665 C1643 0.950 . S
C1666 C1667 1.349 . S
C1666 C1668 1.327 . S
C1666 H1691 0.950 . S
C1667 C1666 1.349 . S
C1667 C1683 1.349 . S
C1668 C1666 1.327 . S
C1668 C1687 1.429 . S
C1668 H1692 0.950 . S
C1669 C1686 1.574 . S
C1669 C1688 1.368 . S
C1669 H1693 0.949 . S
H1670 C1674 0.949 . S
C1671 C1672 1.349 . S
C1671 C1673 1.327 . S
C1671 H1694 0.950 . S
C1672 C1671 1.349 . S
C1672 C1684 1.349 . S
C1673 C1671 1.327 . S
C1673 C1689 1.429 . S
C1673 H1695 0.950 . S
C1674 H1670 0.949 . S
C1674 C1682 1.574 . S
C1674 C1690 1.368 . S
H1675 C1683 0.950 . S
H1676 C1681 0.950 . S
H1677 C1682 0.949 . S
H1678 C1684 0.950 . S
H1679 C1685 0.950 . S
H1680 C1686 0.949 . S
C1681 H1676 0.950 . S
C1681 C1683 1.327 . S
C1681 C1687 1.429 . S
C1682 C1674 1.574 . S
C1682 H1677 0.949 . S
C1682 C1688 1.368 . S
C1683 C1667 1.349 . S
C1683 H1675 0.950 . S
C1683 C1681 1.327 . S
C1684 C1672 1.349 . S
C1684 H1678 0.950 . S
C1684 C1685 1.327 . S
C1685 H1679 0.950 . S
C1685 C1684 1.327 . S
C1685 C1689 1.429 . S
C1686 C1669 1.574 . S
C1686 H1680 0.949 . S
C1686 C1690 1.368 . S
C1687 C1668 1.429 . S
C1687 C1681 1.429 . S
C1687 C1688 1.523 . S
C1688 C1669 1.368 . S
C1688 C1682 1.368 . S
C1688 C1687 1.523 . S
C1689 C1673 1.429 . S
C1689 C1685 1.429 . S
C1689 C1690 1.523 . S
C1690 C1674 1.368 . S
C1690 C1686 1.368 . S
C1690 C1689 1.523 . S
H1691 C1666 0.950 . S
H1692 C1668 0.950 . S
H1693 C1669 0.949 . S
H1694 C1671 0.950 . S
H1695 C1673 0.950 . S
C1696 C1697 1.349 . S
C1696 C1698 1.327 . S
C1696 H1721 0.950 . S
C1697 C1696 1.349 . S
C1697 C1713 1.349 . S
C1698 C1696 1.327 . S
C1698 C1717 1.429 . S
C1698 H1722 0.950 . S
C1699 C1716 1.574 . S
C1699 C1718 1.368 . S
C1699 H1723 0.949 . S
H1700 C1704 0.949 . S
C1701 C1702 1.349 . S
C1701 C1703 1.327 . S
C1701 H1724 0.950 . S
C1702 C1701 1.349 . S
C1702 C1714 1.349 . S
C1703 C1701 1.327 . S
C1703 C1719 1.429 . S
C1703 H1725 0.950 . S
C1704 H1700 0.949 . S
C1704 C1712 1.574 . S
C1704 C1720 1.368 . S
H1705 C1713 0.950 . S
H1706 C1711 0.950 . S
H1707 C1712 0.949 . S
H1708 C1714 0.950 . S
H1709 C1715 0.950 . S
H1710 C1716 0.949 . S
C1711 H1706 0.950 . S
C1711 C1713 1.327 . S
C1711 C1717 1.429 . S
C1712 C1704 1.574 . S
C1712 H1707 0.949 . S
C1712 C1718 1.368 . S
C1713 C1697 1.349 . S
C1713 H1705 0.950 . S
C1713 C1711 1.327 . S
C1714 C1702 1.349 . S
C1714 H1708 0.950 . S
C1714 C1715 1.327 . S
C1715 H1709 0.950 . S
C1715 C1714 1.327 . S
C1715 C1719 1.429 . S
C1716 C1699 1.574 . S
C1716 H1710 0.949 . S
C1716 C1720 1.368 . S
C1717 C1698 1.429 . S
C1717 C1711 1.429 . S
C1717 C1718 1.523 . S
C1718 C1699 1.368 . S
C1718 C1712 1.368 . S
C1718 C1717 1.523 . S
C1719 C1703 1.429 . S
C1719 C1715 1.429 . S
C1719 C1720 1.523 . S
C1720 C1704 1.368 . S
C1720 C1716 1.368 . S
C1720 C1719 1.523 . S
H1721 C1696 0.950 . S
H1722 C1698 0.950 . S
H1723 C1699 0.949 . S
H1724 C1701 0.950 . S
H1725 C1703 0.950 . S
C1726 C1727 1.349 . S
C1726 C1728 1.327 . S
C1726 H1751 0.950 . S
C1727 C1726 1.349 . S
C1727 C1743 1.349 . S
C1728 C1726 1.327 . S
C1728 C1747 1.429 . S
C1728 H1752 0.950 . S
C1729 C1746 1.574 . S
C1729 C1748 1.368 . S
C1729 H1753 0.949 . S
H1730 C1734 0.949 . S
C1731 C1732 1.349 . S
C1731 C1733 1.327 . S
C1731 H1754 0.950 . S
C1732 C1731 1.349 . S
C1732 C1744 1.349 . S
C1733 C1731 1.327 . S
C1733 C1749 1.429 . S
C1733 H1755 0.950 . S
C1734 H1730 0.949 . S
C1734 C1742 1.574 . S
C1734 C1750 1.368 . S
H1735 C1743 0.950 . S
H1736 C1741 0.950 . S
H1737 C1742 0.949 . S
H1738 C1744 0.950 . S
H1739 C1745 0.950 . S
H1740 C1746 0.949 . S
C1741 H1736 0.950 . S
C1741 C1743 1.327 . S
C1741 C1747 1.429 . S
C1742 C1734 1.574 . S
C1742 H1737 0.949 . S
C1742 C1748 1.368 . S
C1743 C1727 1.349 . S
C1743 H1735 0.950 . S
C1743 C1741 1.327 . S
C1744 C1732 1.349 . S
C1744 H1738 0.950 . S
C1744 C1745 1.327 . S
C1745 H1739 0.950 . S
C1745 C1744 1.327 . S
C1745 C1749 1.429 . S
C1746 C1729 1.574 . S
C1746 H1740 0.949 . S
C1746 C1750 1.368 . S
C1747 C1728 1.429 . S
C1747 C1741 1.429 . S
C1747 C1748 1.523 . S
C1748 C1729 1.368 . S
C1748 C1742 1.368 . S
C1748 C1747 1.523 . S
C1749 C1733 1.429 . S
C1749 C1745 1.429 . S
C1749 C1750 1.523 . S
C1750 C1734 1.368 . S
C1750 C1746 1.368 . S
C1750 C1749 1.523 . S
H1751 C1726 0.950 . S
H1752 C1728 0.950 . S
H1753 C1729 0.949 . S
H1754 C1731 0.950 . S
H1755 C1733 0.950 . S
C1756 C1757 1.349 . S
C1756 C1758 1.327 . S
C1756 H1781 0.950 . S
C1757 C1756 1.349 . S
C1757 C1773 1.349 . S
C1758 C1756 1.327 . S
C1758 C1777 1.429 . S
C1758 H1782 0.950 . S
C1759 C1776 1.574 . S
C1759 C1778 1.368 . S
C1759 H1783 0.949 . S
H1760 C1764 0.949 . S
C1761 C1762 1.349 . S
C1761 C1763 1.327 . S
C1761 H1784 0.950 . S
C1762 C1761 1.349 . S
C1762 C1774 1.349 . S
C1763 C1761 1.327 . S
C1763 C1779 1.429 . S
C1763 H1785 0.950 . S
C1764 H1760 0.949 . S
C1764 C1772 1.574 . S
C1764 C1780 1.368 . S
H1765 C1773 0.950 . S
H1766 C1771 0.950 . S
H1767 C1772 0.949 . S
H1768 C1774 0.950 . S
H1769 C1775 0.950 . S
H1770 C1776 0.949 . S
C1771 H1766 0.950 . S
C1771 C1773 1.327 . S
C1771 C1777 1.429 . S
C1772 C1764 1.574 . S
C1772 H1767 0.949 . S
C1772 C1778 1.368 . S
C1773 C1757 1.349 . S
C1773 H1765 0.950 . S
C1773 C1771 1.327 . S
C1774 C1762 1.349 . S
C1774 H1768 0.950 . S
C1774 C1775 1.327 . S
C1775 H1769 0.950 . S
C1775 C1774 1.327 . S
C1775 C1779 1.429 . S
C1776 C1759 1.574 . S
C1776 H1770 0.949 . S
C1776 C1780 1.368 . S
C1777 C1758 1.429 . S
C1777 C1771 1.429 . S
C1777 C1778 1.523 . S
C1778 C1759 1.368 . S
C1778 C1772 1.368 . S
C1778 C1777 1.523 . S
C1779 C1763 1.429 . S
C1779 C1775 1.429 . S
C1779 C1780 1.523 . S
C1780 C1764 1.368 . S
C1780 C1776 1.368 . S
C1780 C1779 1.523 . S
H1781 C1756 0.950 . S
H1782 C1758 0.950 . S
H1783 C1759 0.949 . S
H1784 C1761 0.950 . S
H1785 C1763 0.950 . S
C1786 C1787 1.349 . S
C1786 C1788 1.327 . S
C1786 H1811 0.950 . S
C1787 C1786 1.349 . S
C1787 C1803 1.349 . S
C1788 C1786 1.327 . S
C1788 C1807 1.429 . S
C1788 H1812 0.950 . S
C1789 C1806 1.574 . S
C1789 C1808 1.368 . S
C1789 H1813 0.949 . S
H1790 C1794 0.949 . S
C1791 C1792 1.349 . S
C1791 C1793 1.327 . S
C1791 H1814 0.950 . S
C1792 C1791 1.349 . S
C1792 C1804 1.349 . S
C1793 C1791 1.327 . S
C1793 C1809 1.429 . S
C1793 H1815 0.950 . S
C1794 H1790 0.949 . S
C1794 C1802 1.574 . S
C1794 C1810 1.368 . S
H1795 C1803 0.950 . S
H1796 C1801 0.950 . S
H1797 C1802 0.949 . S
H1798 C1804 0.950 . S
H1799 C1805 0.950 . S
H1800 C1806 0.949 . S
C1801 H1796 0.950 . S
C1801 C1803 1.327 . S
C1801 C1807 1.429 . S
C1802 C1794 1.574 . S
C1802 H1797 0.949 . S
C1802 C1808 1.368 . S
C1803 C1787 1.349 . S
C1803 H1795 0.950 . S
C1803 C1801 1.327 . S
C1804 C1792 1.349 . S
C1804 H1798 0.950 . S
C1804 C1805 1.327 . S
C1805 H1799 0.950 . S
C1805 C1804 1.327 . S
C1805 C1809 1.429 . S
C1806 C1789 1.574 . S
C1806 H1800 0.949 . S
C1806 C1810 1.368 . S
C1807 C1788 1.429 . S
C1807 C1801 1.429 . S
C1807 C1808 1.523 . S
C1808 C1789 1.368 . S
C1808 C1802 1.368 . S
C1808 C1807 1.523 . S
C1809 C1793 1.429 . S
C1809 C1805 1.429 . S
C1809 C1810 1.523 . S
C1810 C1794 1.368 . S
C1810 C1806 1.368 . S
C1810 C1809 1.523 . S
H1811 C1786 0.950 . S
H1812 C1788 0.950 . S
H1813 C1789 0.949 . S
H1814 C1791 0.950 . S
H1815 C1793 0.950 . S
C1816 C1817 1.349 . S
C1816 C1818 1.327 . S
C1816 H1841 0.950 . S
C1817 C1816 1.349 . S
C1817 C1833 1.349 . S
C1818 C1816 1.327 . S
C1818 C1837 1.429 . S
C1818 H1842 0.950 . S
C1819 C1836 1.574 . S
C1819 C1838 1.368 . S
C1819 H1843 0.949 . S
H1820 C1824 0.949 . S
C1821 C1822 1.349 . S
C1821 C1823 1.327 . S
C1821 H1844 0.950 . S
C1822 C1821 1.349 . S
C1822 C1834 1.349 . S
C1823 C1821 1.327 . S
C1823 C1839 1.429 . S
C1823 H1845 0.950 . S
C1824 H1820 0.949 . S
C1824 C1832 1.574 . S
C1824 C1840 1.368 . S
H1825 C1833 0.950 . S
H1826 C1831 0.950 . S
H1827 C1832 0.949 . S
H1828 C1834 0.950 . S
H1829 C1835 0.950 . S
H1830 C1836 0.949 . S
C1831 H1826 0.950 . S
C1831 C1833 1.327 . S
C1831 C1837 1.429 . S
C1832 C1824 1.574 . S
C1832 H1827 0.949 . S
C1832 C1838 1.368 . S
C1833 C1817 1.349 . S
C1833 H1825 0.950 . S
C1833 C1831 1.327 . S
C1834 C1822 1.349 . S
C1834 H1828 0.950 . S
C1834 C1835 1.327 . S
C1835 H1829 0.950 . S
C1835 C1834 1.327 . S
C1835 C1839 1.429 . S
C1836 C1819 1.574 . S
C1836 H1830 0.949 . S
C1836 C1840 1.368 . S
C1837 C1818 1.429 . S
C1837 C1831 1.429 . S
C1837 C1838 1.523 . S
C1838 C1819 1.368 . S
C1838 C1832 1.368 . S
C1838 C1837 1.523 . S
C1839 C1823 1.429 . S
C1839 C1835 1.429 . S
C1839 C1840 1.523 . S
C1840 C1824 1.368 . S
C1840 C1836 1.368 . S
C1840 C1839 1.523 . S
H1841 C1816 0.950 . S
H1842 C1818 0.950 . S
H1843 C1819 0.949 . S
H1844 C1821 0.950 . S
H1845 C1823 0.950 . S
C1846 C1847 1.349 . S
C1846 C1848 1.327 . S
C1846 H1871 0.950 . S
C1847 C1846 1.349 . S
C1847 C1863 1.349 . S
C1848 C1846 1.327 . S
C1848 C1867 1.429 . S
C1848 H1872 0.950 . S
C1849 C1866 1.574 . S
C1849 C1868 1.368 . S
C1849 H1873 0.949 . S
H1850 C1854 0.949 . S
C1851 C1852 1.349 . S
C1851 C1853 1.327 . S
C1851 H1874 0.950 . S
C1852 C1851 1.349 . S
C1852 C1864 1.349 . S
C1853 C1851 1.327 . S
C1853 C1869 1.429 . S
C1853 H1875 0.950 . S
C1854 H1850 0.949 . S
C1854 C1862 1.574 . S
C1854 C1870 1.368 . S
H1855 C1863 0.950 . S
H1856 C1861 0.950 . S
H1857 C1862 0.949 . S
H1858 C1864 0.950 . S
H1859 C1865 0.950 . S
H1860 C1866 0.949 . S
C1861 H1856 0.950 . S
C1861 C1863 1.327 . S
C1861 C1867 1.429 . S
C1862 C1854 1.574 . S
C1862 H1857 0.949 . S
C1862 C1868 1.368 . S
C1863 C1847 1.349 . S
C1863 H1855 0.950 . S
C1863 C1861 1.327 . S
C1864 C1852 1.349 . S
C1864 H1858 0.950 . S
C1864 C1865 1.327 . S
C1865 H1859 0.950 . S
C1865 C1864 1.327 . S
C1865 C1869 1.429 . S
C1866 C1849 1.574 . S
C1866 H1860 0.949 . S
C1866 C1870 1.368 . S
C1867 C1848 1.429 . S
C1867 C1861 1.429 . S
C1867 C1868 1.523 . S
C1868 C1849 1.368 . S
C1868 C1862 1.368 . S
C1868 C1867 1.523 . S
C1869 C1853 1.429 . S
C1869 C1865 1.429 . S
C1869 C1870 1.523 . S
C1870 C1854 1.368 . S
C1870 C1866 1.368 . S
C1870 C1869 1.523 . S
H1871 C1846 0.950 . S
H1872 C1848 0.950 . S
H1873 C1849 0.949 . S
H1874 C1851 0.950 . S
H1875 C1853 0.950 . S
C1876 C1877 1.349 . S
C1876 C1878 1.327 . S
C1876 H1901 0.950 . S
C1877 C1876 1.349 . S
C1877 C1893 1.349 . S
C1878 C1876 1.327 . S
C1878 C1897 1.429 . S
C1878 H1902 0.950 . S
C1879 C1896 1.574 . S
C1879 C1898 1.368 . S
C1879 H1903 0.949 . S
H1880 C1884 0.949 . S
C1881 C1882 1.349 . S
C1881 C1883 1.327 . S
C1881 H1904 0.950 . S
C1882 C1881 1.349 . S
C1882 C1894 1.349 1_556 S
C1883 C1881 1.327 . S
C1883 C1899 1.429 . S
C1883 H1905 0.950 . S
C1884 H1880 0.949 . S
C1884 C1892 1.574 . S
C1884 C1900 1.368 . S
H1885 C1893 0.950 . S
H1886 C1891 0.950 . S
H1887 C1892 0.949 . S
H1888 C1894 0.950 . S
H1889 C1895 0.970 . S
H1890 C1896 0.949 . S
C1891 H1886 0.950 . S
C1891 C1893 1.327 . S
C1891 C1897 1.429 . S
C1892 C1884 1.574 . S
C1892 H1887 0.949 . S
C1892 C1898 1.368 . S
C1893 C1877 1.349 . S
C1893 H1885 0.950 . S
C1893 C1891 1.327 . S
C1894 C1882 1.349 1_554 S
C1894 H1888 0.950 . S
C1894 C1895 1.327 1_554 S
C1895 H1889 0.970 . S
C1895 C1894 1.327 1_556 S
C1895 C1899 1.429 . S
C1896 C1879 1.574 . S
C1896 H1890 0.949 . S
C1896 C1900 1.368 . S
C1897 C1878 1.429 . S
C1897 C1891 1.429 . S
C1897 C1898 1.523 . S
C1898 C1879 1.368 . S
C1898 C1892 1.368 . S
C1898 C1897 1.523 . S
C1899 C1883 1.429 . S
C1899 C1895 1.429 . S
C1899 C1900 1.523 . S
C1900 C1884 1.368 . S
C1900 C1896 1.368 . S
C1900 C1899 1.523 . S
H1901 C1876 0.950 . S
H1902 C1878 0.950 . S
H1903 C1879 0.949 . S
H1904 C1881 0.950 . S
H1905 C1883 0.950 . S
C1906 C1907 1.349 . S
C1906 C1908 1.327 . S
C1906 H1931 0.950 . S
C1907 C1906 1.349 . S
C1907 C1923 1.349 . S
C1908 C1906 1.327 . S
C1908 C1927 1.429 . S
C1908 H1932 0.950 . S
C1909 C1926 1.574 . S
C1909 C1928 1.368 . S
C1909 H1933 0.949 . S
H1910 C1914 0.949 . S
C1911 C1912 1.349 . S
C1911 C1913 1.327 . S
C1911 H1934 0.950 . S
C1912 C1911 1.349 . S
C1912 C1924 1.349 . S
C1913 C1911 1.327 . S
C1913 C1929 1.429 . S
C1913 H1935 0.950 . S
C1914 H1910 0.949 . S
C1914 C1922 1.574 . S
C1914 C1930 1.368 . S
H1915 C1923 0.950 . S
H1916 C1921 0.950 . S
H1917 C1922 0.949 . S
H1918 C1924 0.950 . S
H1919 C1925 0.950 . S
H1920 C1926 0.949 . S
C1921 H1916 0.950 . S
C1921 C1923 1.327 . S
C1921 C1927 1.429 . S
C1922 C1914 1.574 . S
C1922 H1917 0.949 . S
C1922 C1928 1.368 . S
C1923 C1907 1.349 . S
C1923 H1915 0.950 . S
C1923 C1921 1.327 . S
C1924 C1912 1.349 . S
C1924 H1918 0.950 . S
C1924 C1925 1.327 . S
C1925 H1919 0.950 . S
C1925 C1924 1.327 . S
C1925 C1929 1.429 . S
C1926 C1909 1.574 . S
C1926 H1920 0.949 . S
C1926 C1930 1.368 . S
C1927 C1908 1.429 . S
C1927 C1921 1.429 . S
C1927 C1928 1.523 . S
C1928 C1909 1.368 . S
C1928 C1922 1.368 . S
C1928 C1927 1.523 . S
C1929 C1913 1.429 . S
C1929 C1925 1.429 . S
C1929 C1930 1.523 . S
C1930 C1914 1.368 . S
C1930 C1926 1.368 . S
C1930 C1929 1.523 . S
H1931 C1906 0.950 . S
H1932 C1908 0.950 . S
H1933 C1909 0.949 . S
H1934 C1911 0.950 . S
H1935 C1913 0.950 . S
C1936 C1937 1.349 . S
C1936 C1938 1.327 . S
C1936 H1961 0.950 . S
C1937 C1936 1.349 . S
C1937 C1953 1.349 1_545 S
C1938 C1936 1.327 . S
C1938 C1957 1.429 . S
C1938 H1962 0.950 . S
C1939 C1956 1.579 . S
C1939 C1958 1.415 . S
C1939 H1963 0.904 1_545 S
H1940 C1944 0.949 . S
C1941 C1942 1.349 . S
C1941 C1943 1.327 . S
C1941 H1964 0.963 . S
C1942 C1941 1.349 . S
C1942 C1954 1.349 . S
C1943 C1941 1.327 . S
C1943 C1959 1.429 . S
C1943 H1965 0.950 1_545 S
C1944 H1940 0.949 . S
C1944 C1952 1.574 . S
C1944 C1960 1.368 . S
H1945 C1953 0.950 . S
H1946 C1951 0.950 . S
H1947 C1952 0.949 . S
H1948 C1954 0.950 . S
H1949 C1955 0.950 . S
H1950 C1956 0.949 1_565 S
C1951 H1946 0.950 . S
C1951 C1953 1.327 . S
C1951 C1957 1.429 1_565 S
C1952 C1944 1.574 . S
C1952 H1947 0.949 . S
C1952 C1958 1.368 . S
C1953 C1937 1.349 1_565 S
C1953 H1945 0.950 . S
C1953 C1951 1.327 . S
C1954 C1942 1.349 . S
C1954 H1948 0.950 . S
C1954 C1955 1.327 . S
C1955 H1949 0.950 . S
C1955 C1954 1.327 . S
C1955 C1959 1.429 . S
C1956 C1939 1.579 . S
C1956 H1950 0.949 1_545 S
C1956 C1960 1.368 . S
C1957 C1938 1.429 . S
C1957 C1951 1.429 1_545 S
C1957 C1958 1.523 . S
C1958 C1939 1.415 . S
C1958 C1952 1.368 . S
C1958 C1957 1.523 . S
C1959 C1943 1.429 . S
C1959 C1955 1.429 . S
C1959 C1960 1.523 . S
C1960 C1944 1.368 . S
C1960 C1956 1.368 . S
C1960 C1959 1.523 . S
H1961 C1936 0.950 . S
H1962 C1938 0.950 . S
H1963 C1939 0.904 1_565 S
H1964 C1941 0.963 . S
H1965 C1943 0.950 1_565 S
C1966 C1967 1.349 . S
C1966 C1968 1.327 . S
C1966 H1991 0.950 . S
C1967 C1966 1.349 . S
C1967 C1983 1.349 . S
C1968 C1966 1.327 . S
C1968 C1987 1.429 . S
C1968 H1992 0.950 . S
C1969 C1986 1.574 . S
C1969 C1988 1.368 . S
C1969 H1993 0.949 . S
H1970 C1974 0.949 . S
C1971 C1972 1.349 . S
C1971 C1973 1.327 . S
C1971 H1994 0.950 . S
C1972 C1971 1.349 . S
C1972 C1984 1.349 . S
C1973 C1971 1.327 . S
C1973 C1989 1.429 . S
C1973 H1995 0.950 . S
C1974 H1970 0.949 . S
C1974 C1982 1.574 . S
C1974 C1990 1.368 . S
H1975 C1983 0.950 . S
H1976 C1981 0.950 . S
H1977 C1982 0.949 . S
H1978 C1984 0.950 . S
H1979 C1985 0.950 . S
H1980 C1986 0.949 . S
C1981 H1976 0.950 . S
C1981 C1983 1.327 . S
C1981 C1987 1.429 . S
C1982 C1974 1.574 . S
C1982 H1977 0.949 . S
C1982 C1988 1.368 . S
C1983 C1967 1.349 . S
C1983 H1975 0.950 . S
C1983 C1981 1.327 . S
C1984 C1972 1.349 . S
C1984 H1978 0.950 . S
C1984 C1985 1.327 . S
C1985 H1979 0.950 . S
C1985 C1984 1.327 . S
C1985 C1989 1.429 . S
C1986 C1969 1.574 . S
C1986 H1980 0.949 . S
C1986 C1990 1.368 . S
C1987 C1968 1.429 . S
C1987 C1981 1.429 . S
C1987 C1988 1.523 . S
C1988 C1969 1.368 . S
C1988 C1982 1.368 . S
C1988 C1987 1.523 . S
C1989 C1973 1.429 . S
C1989 C1985 1.429 . S
C1989 C1990 1.523 . S
C1990 C1974 1.368 . S
C1990 C1986 1.368 . S
C1990 C1989 1.523 . S
H1991 C1966 0.950 . S
H1992 C1968 0.950 . S
H1993 C1969 0.949 . S
H1994 C1971 0.950 . S
H1995 C1973 0.950 . S
C1996 C1997 1.349 . S
C1996 C1998 1.327 . S
C1996 H2021 0.927 1_545 S
C1997 C1996 1.349 . S
C1997 C2013 1.349 . S
C1998 C1996 1.327 . S
C1998 C2017 1.429 . S
C1998 H2022 0.950 . S
C1999 C2016 1.574 . S
C1999 C2018 1.368 . S
C1999 H2023 0.949 . S
H2000 C2004 0.949 . S
C2001 C2002 1.349 . S
C2001 C2003 1.327 . S
C2001 H2024 0.950 . S
C2002 C2001 1.349 . S
C2002 C2014 1.349 . S
C2003 C2001 1.327 . S
C2003 C2019 1.429 . S
C2003 H2025 0.950 . S
C2004 H2000 0.949 . S
C2004 C2012 1.574 . S
C2004 C2020 1.368 . S
H2005 C2013 0.950 . S
H2006 C2011 0.950 . S
H2007 C2012 0.949 . S
H2008 C2014 0.950 . S
H2009 C2015 0.950 . S
H2010 C2016 0.949 . S
C2011 H2006 0.950 . S
C2011 C2013 1.327 . S
C2011 C2017 1.429 . S
C2012 C2004 1.574 . S
C2012 H2007 0.949 . S
C2012 C2018 1.368 . S
C2013 C1997 1.349 . S
C2013 H2005 0.950 . S
C2013 C2011 1.327 . S
C2014 C2002 1.349 . S
C2014 H2008 0.950 . S
C2014 C2015 1.327 . S
C2015 H2009 0.950 . S
C2015 C2014 1.327 . S
C2015 C2019 1.429 . S
C2016 C1999 1.574 . S
C2016 H2010 0.949 . S
C2016 C2020 1.368 . S
C2017 C1998 1.429 . S
C2017 C2011 1.429 . S
C2017 C2018 1.523 . S
C2018 C1999 1.368 . S
C2018 C2012 1.368 . S
C2018 C2017 1.523 . S
C2019 C2003 1.429 . S
C2019 C2015 1.429 . S
C2019 C2020 1.523 . S
C2020 C2004 1.368 . S
C2020 C2016 1.368 . S
C2020 C2019 1.523 . S
H2021 C1996 0.927 1_565 S
H2022 C1998 0.950 . S
H2023 C1999 0.949 . S
H2024 C2001 0.950 . S
H2025 C2003 0.950 . S
C2026 C2027 1.349 . S
C2026 C2028 1.327 . S
C2026 H2051 0.950 . S
C2027 C2026 1.349 . S
C2027 C2043 1.349 . S
C2028 C2026 1.327 . S
C2028 C2047 1.429 . S
C2028 H2052 0.950 . S
C2029 C2046 1.574 . S
C2029 C2048 1.368 . S
C2029 H2053 0.949 . S
H2030 C2034 0.949 . S
C2031 C2032 1.349 . S
C2031 C2033 1.327 . S
C2031 H2054 0.950 . S
C2032 C2031 1.349 . S
C2032 C2044 1.349 . S
C2033 C2031 1.327 . S
C2033 C2049 1.429 . S
C2033 H2055 0.950 . S
C2034 H2030 0.949 . S
C2034 C2042 1.574 . S
C2034 C2050 1.368 . S
H2035 C2043 0.950 . S
H2036 C2041 0.950 . S
H2037 C2042 0.949 . S
H2038 C2044 0.950 . S
H2039 C2045 0.950 . S
H2040 C2046 0.949 . S
C2041 H2036 0.950 . S
C2041 C2043 1.327 . S
C2041 C2047 1.429 . S
C2042 C2034 1.574 . S
C2042 H2037 0.949 . S
C2042 C2048 1.368 . S
C2043 C2027 1.349 . S
C2043 H2035 0.950 . S
C2043 C2041 1.327 . S
C2044 C2032 1.349 . S
C2044 H2038 0.950 . S
C2044 C2045 1.327 . S
C2045 H2039 0.950 . S
C2045 C2044 1.327 . S
C2045 C2049 1.429 . S
C2046 C2029 1.574 . S
C2046 H2040 0.949 . S
C2046 C2050 1.368 . S
C2047 C2028 1.429 . S
C2047 C2041 1.429 . S
C2047 C2048 1.523 . S
C2048 C2029 1.368 . S
C2048 C2042 1.368 . S
C2048 C2047 1.523 . S
C2049 C2033 1.429 . S
C2049 C2045 1.429 . S
C2049 C2050 1.523 . S
C2050 C2034 1.368 . S
C2050 C2046 1.368 . S
C2050 C2049 1.523 . S
H2051 C2026 0.950 . S
H2052 C2028 0.950 . S
H2053 C2029 0.949 . S
H2054 C2031 0.950 . S
H2055 C2033 0.950 . S
C2056 C2057 1.399 . S
C2056 C2058 1.327 . S
C2056 H2081 0.950 . S
C2057 C2056 1.399 . S
C2057 C2073 1.326 1_545 S
C2058 C2056 1.327 . S
C2058 C2077 1.429 . S
C2058 H2082 0.950 . S
C2059 C2076 1.551 1_565 S
C2059 C2078 1.368 1_565 S
C2059 H2083 0.949 . S
H2060 C2064 0.949 . S
C2061 C2062 1.349 . S
C2061 C2063 1.327 . S
C2061 H2084 0.950 . S
C2062 C2061 1.349 . S
C2062 C2074 1.349 . S
C2063 C2061 1.327 . S
C2063 C2079 1.429 . S
C2063 H2085 0.950 1_545 S
C2064 H2060 0.949 . S
C2064 C2072 1.574 . S
C2064 C2080 1.368 . S
H2065 C2073 0.950 . S
H2066 C2071 0.950 . S
H2067 C2072 0.949 . S
H2068 C2074 0.950 . S
H2069 C2075 0.950 . S
H2070 C2076 0.932 1_565 S
C2071 H2066 0.950 . S
C2071 C2073 1.327 . S
C2071 C2077 1.429 1_565 S
C2072 C2064 1.574 . S
C2072 H2067 0.949 . S
C2072 C2078 1.368 . S
C2073 C2057 1.326 1_565 S
C2073 H2065 0.950 . S
C2073 C2071 1.327 . S
C2074 C2062 1.349 . S
C2074 H2068 0.950 . S
C2074 C2075 1.327 . S
C2075 H2069 0.950 . S
C2075 C2074 1.327 . S
C2075 C2079 1.429 . S
C2076 C2059 1.551 1_545 S
C2076 H2070 0.932 1_545 S
C2076 C2080 1.413 . S
C2077 C2058 1.429 . S
C2077 C2071 1.429 1_545 S
C2077 C2078 1.523 . S
C2078 C2059 1.368 1_545 S
C2078 C2072 1.368 . S
C2078 C2077 1.523 . S
C2079 C2063 1.429 . S
C2079 C2075 1.429 . S
C2079 C2080 1.523 . S
C2080 C2064 1.368 . S
C2080 C2076 1.413 . S
C2080 C2079 1.523 . S
H2081 C2056 0.950 . S
H2082 C2058 0.950 . S
H2083 C2059 0.949 . S
H2084 C2061 0.950 . S
H2085 C2063 0.950 1_565 S
C2086 C2087 1.349 . S
C2086 C2088 1.327 . S
C2086 H2111 0.950 . S
C2087 C2086 1.349 . S
C2087 C2103 1.349 . S
C2088 C2086 1.327 . S
C2088 C2107 1.429 . S
C2088 H2112 0.950 . S
C2089 C2106 1.574 . S
C2089 C2108 1.368 . S
C2089 H2113 0.949 . S
H2090 C2094 0.949 . S
C2091 C2092 1.349 . S
C2091 C2093 1.327 . S
C2091 H2114 0.950 . S
C2092 C2091 1.349 . S
C2092 C2104 1.349 . S
C2093 C2091 1.327 . S
C2093 C2109 1.429 . S
C2093 H2115 0.950 . S
C2094 H2090 0.949 . S
C2094 C2102 1.574 . S
C2094 C2110 1.368 . S
H2095 C2103 0.950 . S
H2096 C2101 0.950 . S
H2097 C2102 0.949 . S
H2098 C2104 0.950 . S
H2099 C2105 0.950 . S
H2100 C2106 0.949 . S
C2101 H2096 0.950 . S
C2101 C2103 1.327 . S
C2101 C2107 1.429 . S
C2102 C2094 1.574 . S
C2102 H2097 0.949 . S
C2102 C2108 1.368 . S
C2103 C2087 1.349 . S
C2103 H2095 0.950 . S
C2103 C2101 1.327 . S
C2104 C2092 1.349 . S
C2104 H2098 0.950 . S
C2104 C2105 1.327 . S
C2105 H2099 0.950 . S
C2105 C2104 1.327 . S
C2105 C2109 1.429 . S
C2106 C2089 1.574 . S
C2106 H2100 0.949 . S
C2106 C2110 1.368 . S
C2107 C2088 1.429 . S
C2107 C2101 1.429 . S
C2107 C2108 1.523 . S
C2108 C2089 1.368 . S
C2108 C2102 1.368 . S
C2108 C2107 1.523 . S
C2109 C2093 1.429 . S
C2109 C2105 1.429 . S
C2109 C2110 1.523 . S
C2110 C2094 1.368 . S
C2110 C2106 1.368 . S
C2110 C2109 1.523 . S
H2111 C2086 0.950 . S
H2112 C2088 0.950 . S
H2113 C2089 0.949 . S
H2114 C2091 0.950 . S
H2115 C2093 0.950 . S
C2116 C2117 1.349 1_565 S
C2116 C2118 1.327 . S
C2116 H2141 0.950 . S
C2117 C2116 1.349 1_545 S
C2117 C2133 1.349 . S
C2118 C2116 1.327 . S
C2118 C2137 1.429 1_565 S
C2118 H2142 0.950 . S
C2119 C2136 1.574 . S
C2119 C2138 1.368 . S
C2119 H2143 0.949 . S
H2120 C2124 0.949 . S
C2121 C2122 1.349 1_545 S
C2121 C2123 1.327 . S
C2121 H2144 0.950 . S
C2122 C2121 1.349 1_565 S
C2122 C2134 1.349 . S
C2123 C2121 1.327 . S
C2123 C2139 1.393 1_545 S
C2123 H2145 0.950 . S
C2124 H2120 0.949 . S
C2124 C2132 1.574 . S
C2124 C2140 1.368 1_565 S
H2125 C2133 0.950 . S
H2126 C2131 0.950 . S
H2127 C2132 0.949 . S
H2128 C2134 0.950 . S
H2129 C2135 0.950 . S
H2130 C2136 0.949 . S
C2131 H2126 0.950 . S
C2131 C2133 1.327 . S
C2131 C2137 1.429 . S
C2132 C2124 1.574 . S
C2132 H2127 0.949 . S
C2132 C2138 1.368 1_565 S
C2133 C2117 1.349 . S
C2133 H2125 0.950 . S
C2133 C2131 1.327 . S
C2134 C2122 1.349 . S
C2134 H2128 0.950 . S
C2134 C2135 1.327 . S
C2135 H2129 0.950 . S
C2135 C2134 1.327 . S
C2135 C2139 1.470 . S
C2136 C2119 1.574 . S
C2136 H2130 0.949 . S
C2136 C2140 1.368 . S
C2137 C2118 1.429 1_545 S
C2137 C2131 1.429 . S
C2137 C2138 1.523 . S
C2138 C2119 1.368 . S
C2138 C2132 1.368 1_545 S
C2138 C2137 1.523 . S
C2139 C2123 1.393 1_565 S
C2139 C2135 1.470 . S
C2139 C2140 1.519 1_565 S
C2140 C2124 1.368 1_545 S
C2140 C2136 1.368 . S
C2140 C2139 1.519 1_545 S
H2141 C2116 0.950 . S
H2142 C2118 0.950 . S
H2143 C2119 0.949 . S
H2144 C2121 0.950 . S
H2145 C2123 0.950 . S
C2146 C2147 1.349 . S
C2146 C2148 1.327 . S
C2146 H2171 0.950 . S
C2147 C2146 1.349 . S
C2147 C2163 1.349 . S
C2148 C2146 1.327 . S
C2148 C2167 1.429 . S
C2148 H2172 0.950 . S
C2149 C2166 1.574 . S
C2149 C2168 1.368 . S
C2149 H2173 0.949 . S
H2150 C2154 0.949 . S
C2151 C2152 1.349 . S
C2151 C2153 1.327 . S
C2151 H2174 0.950 . S
C2152 C2151 1.349 . S
C2152 C2164 1.349 . S
C2153 C2151 1.327 . S
C2153 C2169 1.429 . S
C2153 H2175 0.950 . S
C2154 H2150 0.949 . S
C2154 C2162 1.574 . S
C2154 C2170 1.368 . S
H2155 C2163 0.950 . S
H2156 C2161 0.950 . S
H2157 C2162 0.949 . S
H2158 C2164 0.950 . S
H2159 C2165 0.950 . S
H2160 C2166 0.949 . S
C2161 H2156 0.950 . S
C2161 C2163 1.327 . S
C2161 C2167 1.429 . S
C2162 C2154 1.574 . S
C2162 H2157 0.949 . S
C2162 C2168 1.368 . S
C2163 C2147 1.349 . S
C2163 H2155 0.950 . S
C2163 C2161 1.327 . S
C2164 C2152 1.349 . S
C2164 H2158 0.950 . S
C2164 C2165 1.327 . S
C2165 H2159 0.950 . S
C2165 C2164 1.327 . S
C2165 C2169 1.429 . S
C2166 C2149 1.574 . S
C2166 H2160 0.949 . S
C2166 C2170 1.368 . S
C2167 C2148 1.429 . S
C2167 C2161 1.429 . S
C2167 C2168 1.523 . S
C2168 C2149 1.368 . S
C2168 C2162 1.368 . S
C2168 C2167 1.523 . S
C2169 C2153 1.429 . S
C2169 C2165 1.429 . S
C2169 C2170 1.523 . S
C2170 C2154 1.368 . S
C2170 C2166 1.368 . S
C2170 C2169 1.523 . S
H2171 C2146 0.950 . S
H2172 C2148 0.950 . S
H2173 C2149 0.949 . S
H2174 C2151 0.950 . S
H2175 C2153 0.950 . S
C2176 C2177 1.349 . S
C2176 C2178 1.327 . S
C2176 H2201 0.950 . S
C2177 C2176 1.349 . S
C2177 C2193 1.349 . S
C2178 C2176 1.327 . S
C2178 C2197 1.429 . S
C2178 H2202 0.950 . S
C2179 C2196 1.574 . S
C2179 C2198 1.368 . S
C2179 H2203 0.949 . S
H2180 C2184 0.949 . S
C2181 C2182 1.349 . S
C2181 C2183 1.327 . S
C2181 H2204 0.950 . S
C2182 C2181 1.349 . S
C2182 C2194 1.349 . S
C2183 C2181 1.327 . S
C2183 C2199 1.429 . S
C2183 H2205 0.950 . S
C2184 H2180 0.949 . S
C2184 C2192 1.580 . S
C2184 C2200 1.368 . S
H2185 C2193 0.950 . S
H2186 C2191 0.950 . S
H2187 C2192 0.955 . S
H2188 C2194 0.950 . S
H2189 C2195 0.950 . S
H2190 C2196 0.949 . S
C2191 H2186 0.950 . S
C2191 C2193 1.327 . S
C2191 C2197 1.429 . S
C2192 C2184 1.580 . S
C2192 H2187 0.955 . S
C2192 C2198 1.356 1_556 S
C2193 C2177 1.349 . S
C2193 H2185 0.950 . S
C2193 C2191 1.327 . S
C2194 C2182 1.349 . S
C2194 H2188 0.950 . S
C2194 C2195 1.327 . S
C2195 H2189 0.950 . S
C2195 C2194 1.327 . S
C2195 C2199 1.429 . S
C2196 C2179 1.574 . S
C2196 H2190 0.949 . S
C2196 C2200 1.368 1_554 S
C2197 C2178 1.429 . S
C2197 C2191 1.429 . S
C2197 C2198 1.523 . S
C2198 C2179 1.368 . S
C2198 C2192 1.356 1_554 S
C2198 C2197 1.523 . S
C2199 C2183 1.429 . S
C2199 C2195 1.429 . S
C2199 C2200 1.523 . S
C2200 C2184 1.368 . S
C2200 C2196 1.368 1_556 S
C2200 C2199 1.523 . S
H2201 C2176 0.950 . S
H2202 C2178 0.950 . S
H2203 C2179 0.949 . S
H2204 C2181 0.950 . S
H2205 C2183 0.950 . S
C2206 C2207 1.349 . S
C2206 C2208 1.327 . S
C2206 H2231 0.950 . S
C2207 C2206 1.349 . S
C2207 C2223 1.349 . S
C2208 C2206 1.327 . S
C2208 C2227 1.429 . S
C2208 H2232 0.950 . S
C2209 C2226 1.574 . S
C2209 C2228 1.368 . S
C2209 H2233 0.945 . S
H2210 C2214 0.949 . S
C2211 C2212 1.349 . S
C2211 C2213 1.327 . S
C2211 H2234 0.926 1_554 S
C2212 C2211 1.349 . S
C2212 C2224 1.349 . S
C2213 C2211 1.327 . S
C2213 C2229 1.429 . S
C2213 H2235 0.920 1_554 S
C2214 H2210 0.949 . S
C2214 C2222 1.574 . S
C2214 C2230 1.368 . S
H2215 C2223 0.950 . S
H2216 C2221 0.978 . S
H2217 C2222 0.949 . S
H2218 C2224 0.950 . S
H2219 C2225 0.950 . S
H2220 C2226 0.924 1_556 S
C2221 H2216 0.978 . S
C2221 C2223 1.327 . S
C2221 C2227 1.429 . S
C2222 C2214 1.574 . S
C2222 H2217 0.949 . S
C2222 C2228 1.368 . S
C2223 C2207 1.349 . S
C2223 H2215 0.950 . S
C2223 C2221 1.327 . S
C2224 C2212 1.349 . S
C2224 H2218 0.950 . S
C2224 C2225 1.327 . S
C2225 H2219 0.950 . S
C2225 C2224 1.327 . S
C2225 C2229 1.429 . S
C2226 C2209 1.574 . S
C2226 H2220 0.924 1_554 S
C2226 C2230 1.368 . S
C2227 C2208 1.429 . S
C2227 C2221 1.429 . S
C2227 C2228 1.523 . S
C2228 C2209 1.368 . S
C2228 C2222 1.368 . S
C2228 C2227 1.523 . S
C2229 C2213 1.429 . S
C2229 C2225 1.429 . S
C2229 C2230 1.523 . S
C2230 C2214 1.368 . S
C2230 C2226 1.368 . S
C2230 C2229 1.523 . S
H2231 C2206 0.950 . S
H2232 C2208 0.950 . S
H2233 C2209 0.945 . S
H2234 C2211 0.926 1_556 S
H2235 C2213 0.920 1_556 S
C2236 C2237 1.349 . S
C2236 C2238 1.327 . S
C2236 H2261 0.950 . S
C2237 C2236 1.349 . S
C2237 C2253 1.349 . S
C2238 C2236 1.327 . S
C2238 C2257 1.429 . S
C2238 H2262 0.950 . S
C2239 C2256 1.574 . S
C2239 C2258 1.368 . S
C2239 H2263 0.949 . S
H2240 C2244 0.949 . S
C2241 C2242 1.349 . S
C2241 C2243 1.327 . S
C2241 H2264 0.950 . S
C2242 C2241 1.349 . S
C2242 C2254 1.349 . S
C2243 C2241 1.327 . S
C2243 C2259 1.429 . S
C2243 H2265 0.950 . S
C2244 H2240 0.949 . S
C2244 C2252 1.574 . S
C2244 C2260 1.368 . S
H2245 C2253 0.950 . S
H2246 C2251 0.950 . S
H2247 C2252 0.949 . S
H2248 C2254 0.950 . S
H2249 C2255 0.950 . S
H2250 C2256 0.949 . S
C2251 H2246 0.950 . S
C2251 C2253 1.327 . S
C2251 C2257 1.429 . S
C2252 C2244 1.574 . S
C2252 H2247 0.949 . S
C2252 C2258 1.368 . S
C2253 C2237 1.349 . S
C2253 H2245 0.950 . S
C2253 C2251 1.327 . S
C2254 C2242 1.349 . S
C2254 H2248 0.950 . S
C2254 C2255 1.327 . S
C2255 H2249 0.950 . S
C2255 C2254 1.327 . S
C2255 C2259 1.429 . S
C2256 C2239 1.574 . S
C2256 H2250 0.949 . S
C2256 C2260 1.368 . S
C2257 C2238 1.429 . S
C2257 C2251 1.429 . S
C2257 C2258 1.523 . S
C2258 C2239 1.368 . S
C2258 C2252 1.368 . S
C2258 C2257 1.523 . S
C2259 C2243 1.429 . S
C2259 C2255 1.429 . S
C2259 C2260 1.523 . S
C2260 C2244 1.368 . S
C2260 C2256 1.368 . S
C2260 C2259 1.523 . S
H2261 C2236 0.950 . S
H2262 C2238 0.950 . S
H2263 C2239 0.949 . S
H2264 C2241 0.950 . S
H2265 C2243 0.950 . S
C2266 C2267 1.349 . S
C2266 C2268 1.327 . S
C2266 H2291 0.950 . S
C2267 C2266 1.349 . S
C2267 C2283 1.349 . S
C2268 C2266 1.327 . S
C2268 C2287 1.429 . S
C2268 H2292 0.950 . S
C2269 C2286 1.574 . S
C2269 C2288 1.368 . S
C2269 H2293 0.949 . S
H2270 C2274 0.949 . S
C2271 C2272 1.349 . S
C2271 C2273 1.327 . S
C2271 H2294 0.950 . S
C2272 C2271 1.349 . S
C2272 C2284 1.349 . S
C2273 C2271 1.327 . S
C2273 C2289 1.429 . S
C2273 H2295 0.950 . S
C2274 H2270 0.949 . S
C2274 C2282 1.574 . S
C2274 C2290 1.368 . S
H2275 C2283 0.950 . S
H2276 C2281 0.950 . S
H2277 C2282 0.949 . S
H2278 C2284 0.950 . S
H2279 C2285 0.950 . S
H2280 C2286 0.949 . S
C2281 H2276 0.950 . S
C2281 C2283 1.327 . S
C2281 C2287 1.429 . S
C2282 C2274 1.574 . S
C2282 H2277 0.949 . S
C2282 C2288 1.368 . S
C2283 C2267 1.349 . S
C2283 H2275 0.950 . S
C2283 C2281 1.327 . S
C2284 C2272 1.349 . S
C2284 H2278 0.950 . S
C2284 C2285 1.327 . S
C2285 H2279 0.950 . S
C2285 C2284 1.327 . S
C2285 C2289 1.429 . S
C2286 C2269 1.574 . S
C2286 H2280 0.949 . S
C2286 C2290 1.368 . S
C2287 C2268 1.429 . S
C2287 C2281 1.429 . S
C2287 C2288 1.523 . S
C2288 C2269 1.368 . S
C2288 C2282 1.368 . S
C2288 C2287 1.523 . S
C2289 C2273 1.429 . S
C2289 C2285 1.429 . S
C2289 C2290 1.523 . S
C2290 C2274 1.368 . S
C2290 C2286 1.368 . S
C2290 C2289 1.523 . S
H2291 C2266 0.950 . S
H2292 C2268 0.950 . S
H2293 C2269 0.949 . S
H2294 C2271 0.950 . S
H2295 C2273 0.950 . S
C2296 C2297 1.349 1_565 S
C2296 C2298 1.327 . S
C2296 H2321 0.950 . S
C2297 C2296 1.349 1_545 S
C2297 C2313 1.349 . S
C2298 C2296 1.327 . S
C2298 C2317 1.429 . S
C2298 H2322 0.950 . S
C2299 C2316 1.574 . S
C2299 C2318 1.368 . S
C2299 H2323 0.949 . S
H2300 C2304 0.949 . S
C2301 C2302 1.349 . S
C2301 C2303 1.327 . S
C2301 H2324 0.950 . S
C2302 C2301 1.349 . S
C2302 C2314 1.349 . S
C2303 C2301 1.327 . S
C2303 C2319 1.429 . S
C2303 H2325 0.950 . S
C2304 H2300 0.949 . S
C2304 C2312 1.574 . S
C2304 C2320 1.368 . S
H2305 C2313 0.950 . S
H2306 C2311 0.950 . S
H2307 C2312 0.949 . S
H2308 C2314 0.950 . S
H2309 C2315 0.950 . S
H2310 C2316 0.949 . S
C2311 H2306 0.950 . S
C2311 C2313 1.327 1_565 S
C2311 C2317 1.429 . S
C2312 C2304 1.574 . S
C2312 H2307 0.949 . S
C2312 C2318 1.368 . S
C2313 C2297 1.349 . S
C2313 H2305 0.950 . S
C2313 C2311 1.327 1_545 S
C2314 C2302 1.349 . S
C2314 H2308 0.950 . S
C2314 C2315 1.327 . S
C2315 H2309 0.950 . S
C2315 C2314 1.327 . S
C2315 C2319 1.429 . S
C2316 C2299 1.574 . S
C2316 H2310 0.949 . S
C2316 C2320 1.368 . S
C2317 C2298 1.429 . S
C2317 C2311 1.429 . S
C2317 C2318 1.523 . S
C2318 C2299 1.368 . S
C2318 C2312 1.368 . S
C2318 C2317 1.523 . S
C2319 C2303 1.429 . S
C2319 C2315 1.429 . S
C2319 C2320 1.523 . S
C2320 C2304 1.368 . S
C2320 C2316 1.368 . S
C2320 C2319 1.523 . S
H2321 C2296 0.950 . S
H2322 C2298 0.950 . S
H2323 C2299 0.949 . S
H2324 C2301 0.950 . S
H2325 C2303 0.950 . S
C2326 C2327 1.349 . S
C2326 C2328 1.327 . S
C2326 H2351 0.950 . S
C2327 C2326 1.349 . S
C2327 C2343 1.349 . S
C2328 C2326 1.327 . S
C2328 C2347 1.429 . S
C2328 H2352 0.950 . S
C2329 C2346 1.574 . S
C2329 C2348 1.368 . S
C2329 H2353 0.949 . S
H2330 C2334 0.949 . S
C2331 C2332 1.349 . S
C2331 C2333 1.327 . S
C2331 H2354 0.950 . S
C2332 C2331 1.349 . S
C2332 C2344 1.349 . S
C2333 C2331 1.327 . S
C2333 C2349 1.429 . S
C2333 H2355 0.950 . S
C2334 H2330 0.949 . S
C2334 C2342 1.574 . S
C2334 C2350 1.368 . S
H2335 C2343 0.950 . S
H2336 C2341 0.950 . S
H2337 C2342 0.949 . S
H2338 C2344 0.950 . S
H2339 C2345 0.950 . S
H2340 C2346 0.949 . S
C2341 H2336 0.950 . S
C2341 C2343 1.327 . S
C2341 C2347 1.429 . S
C2342 C2334 1.574 . S
C2342 H2337 0.949 . S
C2342 C2348 1.368 . S
C2343 C2327 1.349 . S
C2343 H2335 0.950 . S
C2343 C2341 1.327 . S
C2344 C2332 1.349 . S
C2344 H2338 0.950 . S
C2344 C2345 1.327 . S
C2345 H2339 0.950 . S
C2345 C2344 1.327 . S
C2345 C2349 1.429 . S
C2346 C2329 1.574 . S
C2346 H2340 0.949 . S
C2346 C2350 1.368 . S
C2347 C2328 1.429 . S
C2347 C2341 1.429 . S
C2347 C2348 1.523 . S
C2348 C2329 1.368 . S
C2348 C2342 1.368 . S
C2348 C2347 1.523 . S
C2349 C2333 1.429 . S
C2349 C2345 1.429 . S
C2349 C2350 1.523 . S
C2350 C2334 1.368 . S
C2350 C2346 1.368 . S
C2350 C2349 1.523 . S
H2351 C2326 0.950 . S
H2352 C2328 0.950 . S
H2353 C2329 0.949 . S
H2354 C2331 0.950 . S
H2355 C2333 0.950 . S
C2356 C2357 1.349 . S
C2356 C2358 1.327 . S
C2356 H2381 0.950 . S
C2357 C2356 1.349 . S
C2357 C2373 1.349 . S
C2358 C2356 1.327 . S
C2358 C2377 1.429 . S
C2358 H2382 0.950 . S
C2359 C2376 1.574 . S
C2359 C2378 1.368 . S
C2359 H2383 0.949 . S
H2360 C2364 0.949 . S
C2361 C2362 1.349 . S
C2361 C2363 1.327 . S
C2361 H2384 0.950 . S
C2362 C2361 1.349 . S
C2362 C2374 1.349 . S
C2363 C2361 1.327 . S
C2363 C2379 1.429 . S
C2363 H2385 0.950 . S
C2364 H2360 0.949 . S
C2364 C2372 1.574 . S
C2364 C2380 1.368 . S
H2365 C2373 0.950 . S
H2366 C2371 0.950 . S
H2367 C2372 0.949 . S
H2368 C2374 0.950 . S
H2369 C2375 0.950 . S
H2370 C2376 0.949 . S
C2371 H2366 0.950 . S
C2371 C2373 1.327 . S
C2371 C2377 1.429 . S
C2372 C2364 1.574 . S
C2372 H2367 0.949 . S
C2372 C2378 1.368 . S
C2373 C2357 1.349 . S
C2373 H2365 0.950 . S
C2373 C2371 1.327 . S
C2374 C2362 1.349 . S
C2374 H2368 0.950 . S
C2374 C2375 1.327 . S
C2375 H2369 0.950 . S
C2375 C2374 1.327 . S
C2375 C2379 1.429 . S
C2376 C2359 1.574 . S
C2376 H2370 0.949 . S
C2376 C2380 1.368 . S
C2377 C2358 1.429 . S
C2377 C2371 1.429 . S
C2377 C2378 1.523 . S
C2378 C2359 1.368 . S
C2378 C2372 1.368 . S
C2378 C2377 1.523 . S
C2379 C2363 1.429 . S
C2379 C2375 1.429 . S
C2379 C2380 1.523 . S
C2380 C2364 1.368 . S
C2380 C2376 1.368 . S
C2380 C2379 1.523 . S
H2381 C2356 0.950 . S
H2382 C2358 0.950 . S
H2383 C2359 0.949 . S
H2384 C2361 0.950 . S
H2385 C2363 0.950 . S
C2386 C2387 1.349 . S
C2386 C2388 1.327 . S
C2386 H2411 0.950 . S
C2387 C2386 1.349 . S
C2387 C2403 1.349 . S
C2388 C2386 1.327 . S
C2388 C2407 1.429 . S
C2388 H2412 0.950 . S
C2389 C2406 1.574 . S
C2389 C2408 1.368 . S
C2389 H2413 0.949 . S
H2390 C2394 0.949 . S
C2391 C2392 1.349 . S
C2391 C2393 1.327 . S
C2391 H2414 0.950 . S
C2392 C2391 1.349 . S
C2392 C2404 1.349 . S
C2393 C2391 1.327 . S
C2393 C2409 1.429 . S
C2393 H2415 0.950 . S
C2394 H2390 0.949 . S
C2394 C2402 1.574 . S
C2394 C2410 1.368 . S
H2395 C2403 0.950 . S
H2396 C2401 0.950 . S
H2397 C2402 0.949 . S
H2398 C2404 0.950 . S
H2399 C2405 0.950 . S
H2400 C2406 0.949 . S
C2401 H2396 0.950 . S
C2401 C2403 1.327 . S
C2401 C2407 1.429 . S
C2402 C2394 1.574 . S
C2402 H2397 0.949 . S
C2402 C2408 1.368 . S
C2403 C2387 1.349 . S
C2403 H2395 0.950 . S
C2403 C2401 1.327 . S
C2404 C2392 1.349 . S
C2404 H2398 0.950 . S
C2404 C2405 1.327 . S
C2405 H2399 0.950 . S
C2405 C2404 1.327 . S
C2405 C2409 1.429 . S
C2406 C2389 1.574 . S
C2406 H2400 0.949 . S
C2406 C2410 1.368 . S
C2407 C2388 1.429 . S
C2407 C2401 1.429 . S
C2407 C2408 1.523 . S
C2408 C2389 1.368 . S
C2408 C2402 1.368 . S
C2408 C2407 1.523 . S
C2409 C2393 1.429 . S
C2409 C2405 1.429 . S
C2409 C2410 1.523 . S
C2410 C2394 1.368 . S
C2410 C2406 1.368 . S
C2410 C2409 1.523 . S
H2411 C2386 0.950 . S
H2412 C2388 0.950 . S
H2413 C2389 0.949 . S
H2414 C2391 0.950 . S
H2415 C2393 0.950 . S
C2416 C2417 1.349 . S
C2416 C2418 1.327 . S
C2416 H2441 0.950 . S
C2417 C2416 1.349 . S
C2417 C2433 1.349 . S
C2418 C2416 1.327 . S
C2418 C2437 1.429 . S
C2418 H2442 0.950 . S
C2419 C2436 1.574 . S
C2419 C2438 1.368 . S
C2419 H2443 0.949 . S
H2420 C2424 0.949 . S
C2421 C2422 1.349 . S
C2421 C2423 1.327 . S
C2421 H2444 0.950 . S
C2422 C2421 1.349 . S
C2422 C2434 1.349 . S
C2423 C2421 1.327 . S
C2423 C2439 1.429 . S
C2423 H2445 0.950 . S
C2424 H2420 0.949 . S
C2424 C2432 1.574 . S
C2424 C2440 1.368 . S
H2425 C2433 0.950 . S
H2426 C2431 0.950 . S
H2427 C2432 0.949 . S
H2428 C2434 0.950 . S
H2429 C2435 0.950 . S
H2430 C2436 0.949 . S
C2431 H2426 0.950 . S
C2431 C2433 1.327 . S
C2431 C2437 1.429 . S
C2432 C2424 1.574 . S
C2432 H2427 0.949 . S
C2432 C2438 1.368 . S
C2433 C2417 1.349 . S
C2433 H2425 0.950 . S
C2433 C2431 1.327 . S
C2434 C2422 1.349 . S
C2434 H2428 0.950 . S
C2434 C2435 1.327 . S
C2435 H2429 0.950 . S
C2435 C2434 1.327 . S
C2435 C2439 1.429 . S
C2436 C2419 1.574 . S
C2436 H2430 0.949 . S
C2436 C2440 1.368 . S
C2437 C2418 1.429 . S
C2437 C2431 1.429 . S
C2437 C2438 1.523 . S
C2438 C2419 1.368 . S
C2438 C2432 1.368 . S
C2438 C2437 1.523 . S
C2439 C2423 1.429 . S
C2439 C2435 1.429 . S
C2439 C2440 1.523 . S
C2440 C2424 1.368 . S
C2440 C2436 1.368 . S
C2440 C2439 1.523 . S
H2441 C2416 0.950 . S
H2442 C2418 0.950 . S
H2443 C2419 0.949 . S
H2444 C2421 0.950 . S
H2445 C2423 0.950 . S
C2446 C2447 1.349 . S
C2446 C2448 1.327 . S
C2446 H2471 0.950 . S
C2447 C2446 1.349 . S
C2447 C2463 1.349 . S
C2448 C2446 1.327 . S
C2448 C2467 1.429 . S
C2448 H2472 0.950 . S
C2449 C2466 1.574 . S
C2449 C2468 1.368 . S
C2449 H2473 0.949 . S
H2450 C2454 0.949 . S
C2451 C2452 1.349 . S
C2451 C2453 1.327 . S
C2451 H2474 0.950 . S
C2452 C2451 1.349 . S
C2452 C2464 1.349 . S
C2453 C2451 1.327 . S
C2453 C2469 1.429 . S
C2453 H2475 0.950 . S
C2454 H2450 0.949 . S
C2454 C2462 1.574 . S
C2454 C2470 1.368 . S
H2455 C2463 0.950 . S
H2456 C2461 0.950 . S
H2457 C2462 0.949 . S
H2458 C2464 0.950 . S
H2459 C2465 0.950 . S
H2460 C2466 0.949 . S
C2461 H2456 0.950 . S
C2461 C2463 1.327 . S
C2461 C2467 1.429 . S
C2462 C2454 1.574 . S
C2462 H2457 0.949 . S
C2462 C2468 1.368 . S
C2463 C2447 1.349 . S
C2463 H2455 0.950 . S
C2463 C2461 1.327 . S
C2464 C2452 1.349 . S
C2464 H2458 0.950 . S
C2464 C2465 1.327 . S
C2465 H2459 0.950 . S
C2465 C2464 1.327 . S
C2465 C2469 1.429 . S
C2466 C2449 1.574 . S
C2466 H2460 0.949 . S
C2466 C2470 1.368 . S
C2467 C2448 1.429 . S
C2467 C2461 1.429 . S
C2467 C2468 1.523 . S
C2468 C2449 1.368 . S
C2468 C2462 1.368 . S
C2468 C2467 1.523 . S
C2469 C2453 1.429 . S
C2469 C2465 1.429 . S
C2469 C2470 1.523 . S
C2470 C2454 1.368 . S
C2470 C2466 1.368 . S
C2470 C2469 1.523 . S
H2471 C2446 0.950 . S
H2472 C2448 0.950 . S
H2473 C2449 0.949 . S
H2474 C2451 0.950 . S
H2475 C2453 0.950 . S
C2476 C2477 1.349 . S
C2476 C2478 1.327 . S
C2476 H2501 0.950 . S
C2477 C2476 1.349 . S
C2477 C2493 1.349 . S
C2478 C2476 1.327 . S
C2478 C2497 1.429 . S
C2478 H2502 0.950 . S
C2479 C2496 1.574 . S
C2479 C2498 1.368 . S
C2479 H2503 0.949 . S
H2480 C2484 0.949 1_554 S
C2481 C2482 1.349 . S
C2481 C2483 1.327 . S
C2481 H2504 0.950 . S
C2482 C2481 1.349 . S
C2482 C2494 1.349 . S
C2483 C2481 1.327 . S
C2483 C2499 1.429 . S
C2483 H2505 0.950 1_554 S
C2484 H2480 0.949 1_556 S
C2484 C2492 1.574 . S
C2484 C2500 1.368 . S
H2485 C2493 0.950 . S
H2486 C2491 0.950 . S
H2487 C2492 0.949 . S
H2488 C2494 0.950 . S
H2489 C2495 0.950 . S
H2490 C2496 0.949 . S
C2491 H2486 0.950 . S
C2491 C2493 1.327 . S
C2491 C2497 1.429 . S
C2492 C2484 1.574 . S
C2492 H2487 0.949 . S
C2492 C2498 1.368 . S
C2493 C2477 1.349 . S
C2493 H2485 0.950 . S
C2493 C2491 1.327 . S
C2494 C2482 1.349 . S
C2494 H2488 0.950 . S
C2494 C2495 1.327 . S
C2495 H2489 0.950 . S
C2495 C2494 1.327 . S
C2495 C2499 1.429 . S
C2496 C2479 1.574 . S
C2496 H2490 0.949 . S
C2496 C2500 1.368 . S
C2497 C2478 1.429 . S
C2497 C2491 1.429 . S
C2497 C2498 1.523 . S
C2498 C2479 1.368 . S
C2498 C2492 1.368 . S
C2498 C2497 1.523 . S
C2499 C2483 1.429 . S
C2499 C2495 1.429 . S
C2499 C2500 1.523 1_554 S
C2500 C2484 1.368 . S
C2500 C2496 1.368 . S
C2500 C2499 1.523 1_556 S
H2501 C2476 0.950 . S
H2502 C2478 0.950 . S
H2503 C2479 0.949 . S
H2504 C2481 0.950 . S
H2505 C2483 0.950 1_556 S
C2506 C2507 1.349 . S
C2506 C2508 1.327 1_455 S
C2506 H2531 0.950 . S
C2507 C2506 1.349 . S
C2507 C2523 1.349 . S
C2508 C2506 1.327 1_655 S
C2508 C2527 1.429 . S
C2508 H2532 0.950 . S
C2509 C2526 1.574 . S
C2509 C2528 1.368 . S
C2509 H2533 0.949 . S
H2510 C2514 0.949 . S
C2511 C2512 1.349 . S
C2511 C2513 1.327 . S
C2511 H2534 0.950 . S
C2512 C2511 1.349 . S
C2512 C2524 1.349 . S
C2513 C2511 1.327 . S
C2513 C2529 1.429 . S
C2513 H2535 0.950 . S
C2514 H2510 0.949 . S
C2514 C2522 1.574 . S
C2514 C2530 1.368 . S
H2515 C2523 0.950 . S
H2516 C2521 0.950 . S
H2517 C2522 0.949 . S
H2518 C2524 0.950 . S
H2519 C2525 0.950 . S
H2520 C2526 0.949 . S
C2521 H2516 0.950 . S
C2521 C2523 1.327 1_655 S
C2521 C2527 1.429 . S
C2522 C2514 1.574 . S
C2522 H2517 0.949 . S
C2522 C2528 1.368 . S
C2523 C2507 1.349 . S
C2523 H2515 0.950 . S
C2523 C2521 1.327 1_455 S
C2524 C2512 1.349 . S
C2524 H2518 0.950 . S
C2524 C2525 1.327 . S
C2525 H2519 0.950 . S
C2525 C2524 1.327 . S
C2525 C2529 1.429 . S
C2526 C2509 1.574 . S
C2526 H2520 0.949 . S
C2526 C2530 1.368 . S
C2527 C2508 1.429 . S
C2527 C2521 1.429 . S
C2527 C2528 1.523 . S
C2528 C2509 1.368 . S
C2528 C2522 1.368 . S
C2528 C2527 1.523 . S
C2529 C2513 1.429 . S
C2529 C2525 1.429 . S
C2529 C2530 1.523 . S
C2530 C2514 1.368 . S
C2530 C2526 1.368 . S
C2530 C2529 1.523 . S
H2531 C2506 0.950 . S
H2532 C2508 0.950 . S
H2533 C2509 0.949 . S
H2534 C2511 0.950 . S
H2535 C2513 0.950 . S
C2536 C2537 1.349 . S
C2536 C2538 1.327 . S
C2536 H2561 0.950 . S
C2537 C2536 1.349 . S
C2537 C2553 1.349 . S
C2538 C2536 1.327 . S
C2538 C2557 1.429 . S
C2538 H2562 0.950 . S
C2539 C2556 1.574 . S
C2539 C2558 1.368 . S
C2539 H2563 0.949 . S
H2540 C2544 0.949 . S
C2541 C2542 1.349 . S
C2541 C2543 1.327 . S
C2541 H2564 0.950 . S
C2542 C2541 1.349 . S
C2542 C2554 1.349 . S
C2543 C2541 1.327 . S
C2543 C2559 1.429 . S
C2543 H2565 0.950 . S
C2544 H2540 0.949 . S
C2544 C2552 1.574 . S
C2544 C2560 1.368 . S
H2545 C2553 0.950 . S
H2546 C2551 0.950 . S
H2547 C2552 0.949 . S
H2548 C2554 0.950 . S
H2549 C2555 0.950 . S
H2550 C2556 0.949 . S
C2551 H2546 0.950 . S
C2551 C2553 1.327 . S
C2551 C2557 1.429 . S
C2552 C2544 1.574 . S
C2552 H2547 0.949 . S
C2552 C2558 1.368 . S
C2553 C2537 1.349 . S
C2553 H2545 0.950 . S
C2553 C2551 1.327 . S
C2554 C2542 1.349 . S
C2554 H2548 0.950 . S
C2554 C2555 1.327 . S
C2555 H2549 0.950 . S
C2555 C2554 1.327 . S
C2555 C2559 1.429 . S
C2556 C2539 1.574 . S
C2556 H2550 0.949 . S
C2556 C2560 1.368 . S
C2557 C2538 1.429 . S
C2557 C2551 1.429 . S
C2557 C2558 1.523 . S
C2558 C2539 1.368 . S
C2558 C2552 1.368 . S
C2558 C2557 1.523 . S
C2559 C2543 1.429 . S
C2559 C2555 1.429 . S
C2559 C2560 1.523 . S
C2560 C2544 1.368 . S
C2560 C2556 1.368 . S
C2560 C2559 1.523 . S
H2561 C2536 0.950 . S
H2562 C2538 0.950 . S
H2563 C2539 0.949 . S
H2564 C2541 0.950 . S
H2565 C2543 0.950 . S
C2566 C2567 1.349 . S
C2566 C2568 1.327 . S
C2566 H2591 0.950 . S
C2567 C2566 1.349 . S
C2567 C2583 1.349 . S
C2568 C2566 1.327 . S
C2568 C2587 1.429 . S
C2568 H2592 0.950 . S
C2569 C2586 1.574 . S
C2569 C2588 1.368 . S
C2569 H2593 0.949 . S
H2570 C2574 0.949 . S
C2571 C2572 1.349 . S
C2571 C2573 1.327 . S
C2571 H2594 0.950 . S
C2572 C2571 1.349 . S
C2572 C2584 1.349 . S
C2573 C2571 1.327 . S
C2573 C2589 1.429 . S
C2573 H2595 0.950 . S
C2574 H2570 0.949 . S
C2574 C2582 1.574 . S
C2574 C2590 1.368 . S
H2575 C2583 0.950 . S
H2576 C2581 0.950 . S
H2577 C2582 0.949 1_455 S
H2578 C2584 0.950 . S
H2579 C2585 0.950 . S
H2580 C2586 0.949 . S
C2581 H2576 0.950 . S
C2581 C2583 1.327 . S
C2581 C2587 1.429 . S
C2582 C2574 1.574 . S
C2582 H2577 0.949 1_655 S
C2582 C2588 1.368 . S
C2583 C2567 1.349 . S
C2583 H2575 0.950 . S
C2583 C2581 1.327 . S
C2584 C2572 1.349 . S
C2584 H2578 0.950 . S
C2584 C2585 1.327 . S
C2585 H2579 0.950 . S
C2585 C2584 1.327 . S
C2585 C2589 1.429 . S
C2586 C2569 1.574 . S
C2586 H2580 0.949 . S
C2586 C2590 1.368 . S
C2587 C2568 1.429 . S
C2587 C2581 1.429 . S
C2587 C2588 1.523 1_455 S
C2588 C2569 1.368 . S
C2588 C2582 1.368 . S
C2588 C2587 1.523 1_655 S
C2589 C2573 1.429 . S
C2589 C2585 1.429 . S
C2589 C2590 1.523 . S
C2590 C2574 1.368 . S
C2590 C2586 1.368 . S
C2590 C2589 1.523 . S
H2591 C2566 0.950 . S
H2592 C2568 0.950 . S
H2593 C2569 0.949 . S
H2594 C2571 0.950 . S
H2595 C2573 0.950 . S
C2596 C2597 1.349 1_455 S
C2596 C2598 1.327 . S
C2596 H2621 0.950 . S
C2597 C2596 1.349 1_655 S
C2597 C2613 1.349 . S
C2598 C2596 1.327 . S
C2598 C2617 1.429 . S
C2598 H2622 0.950 . S
C2599 C2616 1.574 1_655 S
C2599 C2618 1.368 1_655 S
C2599 H2623 0.949 . S
H2600 C2604 0.949 . S
C2601 C2602 1.349 . S
C2601 C2603 1.327 . S
C2601 H2624 0.950 . S
C2602 C2601 1.349 . S
C2602 C2614 1.349 . S
C2603 C2601 1.327 . S
C2603 C2619 1.429 . S
C2603 H2625 0.914 1_455 S
C2604 H2600 0.949 . S
C2604 C2612 1.574 . S
C2604 C2620 1.368 . S
H2605 C2613 0.950 . S
H2606 C2611 0.950 . S
H2607 C2612 0.949 . S
H2608 C2614 0.950 . S
H2609 C2615 0.950 . S
H2610 C2616 0.949 1_655 S
C2611 H2606 0.950 . S
C2611 C2613 1.327 . S
C2611 C2617 1.429 1_655 S
C2612 C2604 1.574 . S
C2612 H2607 0.949 . S
C2612 C2618 1.368 . S
C2613 C2597 1.349 . S
C2613 H2605 0.950 . S
C2613 C2611 1.327 . S
C2614 C2602 1.349 . S
C2614 H2608 0.950 . S
C2614 C2615 1.327 . S
C2615 H2609 0.950 . S
C2615 C2614 1.327 . S
C2615 C2619 1.429 . S
C2616 C2599 1.574 1_455 S
C2616 H2610 0.949 1_455 S
C2616 C2620 1.368 . S
C2617 C2598 1.429 . S
C2617 C2611 1.429 1_455 S
C2617 C2618 1.523 . S
C2618 C2599 1.368 1_455 S
C2618 C2612 1.368 . S
C2618 C2617 1.523 . S
C2619 C2603 1.429 . S
C2619 C2615 1.429 . S
C2619 C2620 1.523 . S
C2620 C2604 1.368 . S
C2620 C2616 1.368 . S
C2620 C2619 1.523 . S
H2621 C2596 0.950 . S
H2622 C2598 0.950 . S
H2623 C2599 0.949 . S
H2624 C2601 0.950 . S
H2625 C2603 0.914 1_655 S
C2626 C2627 1.349 . S
C2626 C2628 1.327 . S
C2626 H2651 0.950 . S
C2627 C2626 1.349 . S
C2627 C2643 1.349 . S
C2628 C2626 1.327 . S
C2628 C2647 1.429 . S
C2628 H2652 0.950 . S
C2629 C2646 1.574 . S
C2629 C2648 1.368 . S
C2629 H2653 0.949 . S
H2630 C2634 0.949 . S
C2631 C2632 1.349 . S
C2631 C2633 1.327 . S
C2631 H2654 0.950 . S
C2632 C2631 1.349 . S
C2632 C2644 1.349 . S
C2633 C2631 1.327 . S
C2633 C2649 1.429 . S
C2633 H2655 0.950 . S
C2634 H2630 0.949 . S
C2634 C2642 1.574 . S
C2634 C2650 1.368 . S
H2635 C2643 0.950 . S
H2636 C2641 0.950 . S
H2637 C2642 0.949 . S
H2638 C2644 0.950 . S
H2639 C2645 0.950 . S
H2640 C2646 0.949 . S
C2641 H2636 0.950 . S
C2641 C2643 1.327 . S
C2641 C2647 1.429 . S
C2642 C2634 1.574 . S
C2642 H2637 0.949 . S
C2642 C2648 1.368 . S
C2643 C2627 1.349 . S
C2643 H2635 0.950 . S
C2643 C2641 1.327 . S
C2644 C2632 1.349 . S
C2644 H2638 0.950 . S
C2644 C2645 1.327 . S
C2645 H2639 0.950 . S
C2645 C2644 1.327 . S
C2645 C2649 1.429 . S
C2646 C2629 1.574 . S
C2646 H2640 0.949 . S
C2646 C2650 1.368 . S
C2647 C2628 1.429 . S
C2647 C2641 1.429 . S
C2647 C2648 1.523 . S
C2648 C2629 1.368 . S
C2648 C2642 1.368 . S
C2648 C2647 1.523 . S
C2649 C2633 1.429 . S
C2649 C2645 1.429 . S
C2649 C2650 1.523 . S
C2650 C2634 1.368 . S
C2650 C2646 1.368 . S
C2650 C2649 1.523 . S
H2651 C2626 0.950 . S
H2652 C2628 0.950 . S
H2653 C2629 0.949 . S
H2654 C2631 0.950 . S
H2655 C2633 0.950 . S
C2656 C2657 1.349 . S
C2656 C2658 1.327 . S
C2656 H2681 0.950 . S
C2657 C2656 1.349 . S
C2657 C2673 1.349 . S
C2658 C2656 1.327 . S
C2658 C2677 1.429 . S
C2658 H2682 0.950 . S
C2659 C2676 1.574 . S
C2659 C2678 1.368 . S
C2659 H2683 0.949 . S
H2660 C2664 0.949 . S
C2661 C2662 1.349 . S
C2661 C2663 1.327 . S
C2661 H2684 0.950 . S
C2662 C2661 1.349 . S
C2662 C2674 1.349 . S
C2663 C2661 1.327 . S
C2663 C2679 1.429 . S
C2663 H2685 0.950 . S
C2664 H2660 0.949 . S
C2664 C2672 1.574 . S
C2664 C2680 1.368 . S
H2665 C2673 0.950 . S
H2666 C2671 0.950 . S
H2667 C2672 0.949 . S
H2668 C2674 0.950 . S
H2669 C2675 0.950 . S
H2670 C2676 0.949 . S
C2671 H2666 0.950 . S
C2671 C2673 1.327 . S
C2671 C2677 1.429 . S
C2672 C2664 1.574 . S
C2672 H2667 0.949 . S
C2672 C2678 1.368 . S
C2673 C2657 1.349 . S
C2673 H2665 0.950 . S
C2673 C2671 1.327 . S
C2674 C2662 1.349 . S
C2674 H2668 0.950 . S
C2674 C2675 1.327 . S
C2675 H2669 0.950 . S
C2675 C2674 1.327 . S
C2675 C2679 1.429 . S
C2676 C2659 1.574 . S
C2676 H2670 0.949 . S
C2676 C2680 1.368 . S
C2677 C2658 1.429 . S
C2677 C2671 1.429 . S
C2677 C2678 1.523 . S
C2678 C2659 1.368 . S
C2678 C2672 1.368 . S
C2678 C2677 1.523 . S
C2679 C2663 1.429 . S
C2679 C2675 1.429 . S
C2679 C2680 1.523 . S
C2680 C2664 1.368 . S
C2680 C2676 1.368 . S
C2680 C2679 1.523 . S
H2681 C2656 0.950 . S
H2682 C2658 0.950 . S
H2683 C2659 0.949 . S
H2684 C2661 0.950 . S
H2685 C2663 0.950 . S
C2686 C2687 1.349 . S
C2686 C2688 1.327 . S
C2686 H2711 0.950 . S
C2687 C2686 1.349 . S
C2687 C2703 1.349 . S
C2688 C2686 1.327 . S
C2688 C2707 1.429 . S
C2688 H2712 0.950 . S
C2689 C2706 1.574 . S
C2689 C2708 1.368 . S
C2689 H2713 0.949 . S
H2690 C2694 0.949 . S
C2691 C2692 1.349 . S
C2691 C2693 1.327 . S
C2691 H2714 0.950 . S
C2692 C2691 1.349 . S
C2692 C2704 1.349 . S
C2693 C2691 1.327 . S
C2693 C2709 1.429 . S
C2693 H2715 0.950 . S
C2694 H2690 0.949 . S
C2694 C2702 1.574 . S
C2694 C2710 1.368 . S
H2695 C2703 0.950 . S
H2696 C2701 0.950 . S
H2697 C2702 0.949 . S
H2698 C2704 0.950 . S
H2699 C2705 0.950 . S
H2700 C2706 0.949 . S
C2701 H2696 0.950 . S
C2701 C2703 1.327 . S
C2701 C2707 1.429 . S
C2702 C2694 1.574 . S
C2702 H2697 0.949 . S
C2702 C2708 1.368 . S
C2703 C2687 1.349 . S
C2703 H2695 0.950 . S
C2703 C2701 1.327 . S
C2704 C2692 1.349 . S
C2704 H2698 0.950 . S
C2704 C2705 1.327 . S
C2705 H2699 0.950 . S
C2705 C2704 1.327 . S
C2705 C2709 1.429 . S
C2706 C2689 1.574 . S
C2706 H2700 0.949 . S
C2706 C2710 1.368 . S
C2707 C2688 1.429 . S
C2707 C2701 1.429 . S
C2707 C2708 1.523 . S
C2708 C2689 1.368 . S
C2708 C2702 1.368 . S
C2708 C2707 1.523 . S
C2709 C2693 1.429 . S
C2709 C2705 1.429 . S
C2709 C2710 1.523 . S
C2710 C2694 1.368 . S
C2710 C2706 1.368 . S
C2710 C2709 1.523 . S
H2711 C2686 0.950 . S
H2712 C2688 0.950 . S
H2713 C2689 0.949 . S
H2714 C2691 0.950 . S
H2715 C2693 0.950 . S
C2716 C2717 1.349 . S
C2716 C2718 1.327 . S
C2716 H2741 0.950 . S
C2717 C2716 1.349 . S
C2717 C2733 1.349 . S
C2718 C2716 1.327 . S
C2718 C2737 1.429 . S
C2718 H2742 0.950 . S
C2719 C2736 1.574 . S
C2719 C2738 1.368 . S
C2719 H2743 0.949 . S
H2720 C2724 0.949 . S
C2721 C2722 1.349 . S
C2721 C2723 1.327 . S
C2721 H2744 0.950 . S
C2722 C2721 1.349 . S
C2722 C2734 1.349 . S
C2723 C2721 1.327 . S
C2723 C2739 1.429 . S
C2723 H2745 0.950 . S
C2724 H2720 0.949 . S
C2724 C2732 1.574 . S
C2724 C2740 1.368 . S
H2725 C2733 0.950 . S
H2726 C2731 0.950 . S
H2727 C2732 0.949 . S
H2728 C2734 0.950 . S
H2729 C2735 0.950 . S
H2730 C2736 0.949 . S
C2731 H2726 0.950 . S
C2731 C2733 1.327 . S
C2731 C2737 1.429 . S
C2732 C2724 1.574 . S
C2732 H2727 0.949 . S
C2732 C2738 1.368 . S
C2733 C2717 1.349 . S
C2733 H2725 0.950 . S
C2733 C2731 1.327 . S
C2734 C2722 1.349 . S
C2734 H2728 0.950 . S
C2734 C2735 1.327 . S
C2735 H2729 0.950 . S
C2735 C2734 1.327 . S
C2735 C2739 1.429 . S
C2736 C2719 1.574 . S
C2736 H2730 0.949 . S
C2736 C2740 1.368 . S
C2737 C2718 1.429 . S
C2737 C2731 1.429 . S
C2737 C2738 1.523 . S
C2738 C2719 1.368 . S
C2738 C2732 1.368 . S
C2738 C2737 1.523 . S
C2739 C2723 1.429 . S
C2739 C2735 1.429 . S
C2739 C2740 1.523 . S
C2740 C2724 1.368 . S
C2740 C2736 1.368 . S
C2740 C2739 1.523 . S
H2741 C2716 0.950 . S
H2742 C2718 0.950 . S
H2743 C2719 0.949 . S
H2744 C2721 0.950 . S
H2745 C2723 0.950 . S
C2746 C2747 1.349 . S
C2746 C2748 1.327 . S
C2746 H2771 0.950 . S
C2747 C2746 1.349 . S
C2747 C2763 1.349 . S
C2748 C2746 1.327 . S
C2748 C2767 1.429 . S
C2748 H2772 0.950 . S
C2749 C2766 1.574 . S
C2749 C2768 1.368 . S
C2749 H2773 0.949 . S
H2750 C2754 0.949 . S
C2751 C2752 1.349 . S
C2751 C2753 1.327 . S
C2751 H2774 0.950 . S
C2752 C2751 1.349 . S
C2752 C2764 1.349 . S
C2753 C2751 1.327 . S
C2753 C2769 1.429 . S
C2753 H2775 0.950 . S
C2754 H2750 0.949 . S
C2754 C2762 1.574 . S
C2754 C2770 1.368 . S
H2755 C2763 0.950 . S
H2756 C2761 0.950 . S
H2757 C2762 0.949 . S
H2758 C2764 0.950 . S
H2759 C2765 0.950 . S
H2760 C2766 0.949 . S
C2761 H2756 0.950 . S
C2761 C2763 1.327 . S
C2761 C2767 1.429 . S
C2762 C2754 1.574 . S
C2762 H2757 0.949 . S
C2762 C2768 1.368 . S
C2763 C2747 1.349 . S
C2763 H2755 0.950 . S
C2763 C2761 1.327 . S
C2764 C2752 1.349 . S
C2764 H2758 0.950 . S
C2764 C2765 1.327 . S
C2765 H2759 0.950 . S
C2765 C2764 1.327 . S
C2765 C2769 1.429 . S
C2766 C2749 1.574 . S
C2766 H2760 0.949 . S
C2766 C2770 1.368 . S
C2767 C2748 1.429 . S
C2767 C2761 1.429 . S
C2767 C2768 1.523 . S
C2768 C2749 1.368 . S
C2768 C2762 1.368 . S
C2768 C2767 1.523 . S
C2769 C2753 1.429 . S
C2769 C2765 1.429 . S
C2769 C2770 1.523 . S
C2770 C2754 1.368 . S
C2770 C2766 1.368 . S
C2770 C2769 1.523 . S
H2771 C2746 0.950 . S
H2772 C2748 0.950 . S
H2773 C2749 0.949 . S
H2774 C2751 0.950 . S
H2775 C2753 0.950 . S
C2776 C2777 1.349 . S
C2776 C2778 1.327 . S
C2776 H2801 0.950 . S
C2777 C2776 1.349 . S
C2777 C2793 1.349 . S
C2778 C2776 1.327 . S
C2778 C2797 1.429 . S
C2778 H2802 0.950 . S
C2779 C2796 1.574 . S
C2779 C2798 1.368 . S
C2779 H2803 0.949 . S
H2780 C2784 0.949 . S
C2781 C2782 1.349 . S
C2781 C2783 1.327 . S
C2781 H2804 0.950 . S
C2782 C2781 1.349 . S
C2782 C2794 1.349 . S
C2783 C2781 1.327 . S
C2783 C2799 1.429 . S
C2783 H2805 0.950 . S
C2784 H2780 0.949 . S
C2784 C2792 1.574 . S
C2784 C2800 1.368 . S
H2785 C2793 0.950 . S
H2786 C2791 0.950 . S
H2787 C2792 0.949 . S
H2788 C2794 0.950 . S
H2789 C2795 0.950 . S
H2790 C2796 0.949 . S
C2791 H2786 0.950 . S
C2791 C2793 1.327 . S
C2791 C2797 1.429 . S
C2792 C2784 1.574 . S
C2792 H2787 0.949 . S
C2792 C2798 1.368 . S
C2793 C2777 1.349 . S
C2793 H2785 0.950 . S
C2793 C2791 1.327 . S
C2794 C2782 1.349 . S
C2794 H2788 0.950 . S
C2794 C2795 1.327 . S
C2795 H2789 0.950 . S
C2795 C2794 1.327 . S
C2795 C2799 1.429 . S
C2796 C2779 1.574 . S
C2796 H2790 0.949 . S
C2796 C2800 1.368 . S
C2797 C2778 1.429 . S
C2797 C2791 1.429 . S
C2797 C2798 1.523 . S
C2798 C2779 1.368 . S
C2798 C2792 1.368 . S
C2798 C2797 1.523 . S
C2799 C2783 1.429 . S
C2799 C2795 1.429 . S
C2799 C2800 1.523 . S
C2800 C2784 1.368 . S
C2800 C2796 1.368 . S
C2800 C2799 1.523 . S
H2801 C2776 0.950 . S
H2802 C2778 0.950 . S
H2803 C2779 0.949 . S
H2804 C2781 0.950 . S
H2805 C2783 0.950 . S
C2806 C2807 1.349 . S
C2806 C2808 1.327 . S
C2806 H2831 0.950 . S
C2807 C2806 1.349 . S
C2807 C2823 1.349 . S
C2808 C2806 1.327 . S
C2808 C2827 1.429 . S
C2808 H2832 0.950 . S
C2809 C2826 1.574 . S
C2809 C2828 1.368 . S
C2809 H2833 0.949 . S
H2810 C2814 0.949 . S
C2811 C2812 1.349 . S
C2811 C2813 1.327 . S
C2811 H2834 0.950 . S
C2812 C2811 1.349 . S
C2812 C2824 1.349 . S
C2813 C2811 1.327 . S
C2813 C2829 1.429 . S
C2813 H2835 0.950 . S
C2814 H2810 0.949 . S
C2814 C2822 1.574 . S
C2814 C2830 1.368 . S
H2815 C2823 0.950 . S
H2816 C2821 0.950 . S
H2817 C2822 0.949 . S
H2818 C2824 0.950 . S
H2819 C2825 0.950 . S
H2820 C2826 0.949 . S
C2821 H2816 0.950 . S
C2821 C2823 1.327 . S
C2821 C2827 1.429 . S
C2822 C2814 1.574 . S
C2822 H2817 0.949 . S
C2822 C2828 1.368 . S
C2823 C2807 1.349 . S
C2823 H2815 0.950 . S
C2823 C2821 1.327 . S
C2824 C2812 1.349 . S
C2824 H2818 0.950 . S
C2824 C2825 1.327 . S
C2825 H2819 0.950 . S
C2825 C2824 1.327 . S
C2825 C2829 1.429 . S
C2826 C2809 1.574 . S
C2826 H2820 0.949 . S
C2826 C2830 1.368 . S
C2827 C2808 1.429 . S
C2827 C2821 1.429 . S
C2827 C2828 1.523 . S
C2828 C2809 1.368 . S
C2828 C2822 1.368 . S
C2828 C2827 1.523 . S
C2829 C2813 1.429 . S
C2829 C2825 1.429 . S
C2829 C2830 1.523 . S
C2830 C2814 1.368 . S
C2830 C2826 1.368 . S
C2830 C2829 1.523 . S
H2831 C2806 0.950 . S
H2832 C2808 0.950 . S
H2833 C2809 0.949 . S
H2834 C2811 0.950 . S
H2835 C2813 0.950 . S
C2836 C2837 1.349 . S
C2836 C2838 1.327 . S
C2836 H2861 0.950 . S
C2837 C2836 1.349 . S
C2837 C2853 1.349 . S
C2838 C2836 1.327 . S
C2838 C2857 1.429 . S
C2838 H2862 0.950 . S
C2839 C2856 1.574 . S
C2839 C2858 1.368 . S
C2839 H2863 0.949 . S
H2840 C2844 0.949 . S
C2841 C2842 1.349 . S
C2841 C2843 1.327 . S
C2841 H2864 0.950 . S
C2842 C2841 1.349 . S
C2842 C2854 1.349 . S
C2843 C2841 1.327 . S
C2843 C2859 1.429 . S
C2843 H2865 0.950 . S
C2844 H2840 0.949 . S
C2844 C2852 1.574 . S
C2844 C2860 1.368 . S
H2845 C2853 0.950 . S
H2846 C2851 0.950 . S
H2847 C2852 0.949 . S
H2848 C2854 0.950 . S
H2849 C2855 0.950 . S
H2850 C2856 0.949 . S
C2851 H2846 0.950 . S
C2851 C2853 1.327 . S
C2851 C2857 1.429 . S
C2852 C2844 1.574 . S
C2852 H2847 0.949 . S
C2852 C2858 1.368 . S
C2853 C2837 1.349 . S
C2853 H2845 0.950 . S
C2853 C2851 1.327 . S
C2854 C2842 1.349 . S
C2854 H2848 0.950 . S
C2854 C2855 1.327 . S
C2855 H2849 0.950 . S
C2855 C2854 1.327 . S
C2855 C2859 1.429 . S
C2856 C2839 1.574 . S
C2856 H2850 0.949 . S
C2856 C2860 1.368 . S
C2857 C2838 1.429 . S
C2857 C2851 1.429 . S
C2857 C2858 1.523 . S
C2858 C2839 1.368 . S
C2858 C2852 1.368 . S
C2858 C2857 1.523 . S
C2859 C2843 1.429 . S
C2859 C2855 1.429 . S
C2859 C2860 1.523 . S
C2860 C2844 1.368 . S
C2860 C2856 1.368 . S
C2860 C2859 1.523 . S
H2861 C2836 0.950 . S
H2862 C2838 0.950 . S
H2863 C2839 0.949 . S
H2864 C2841 0.950 . S
H2865 C2843 0.950 . S
C2866 C2867 1.349 . S
C2866 C2868 1.327 . S
C2866 H2891 0.950 . S
C2867 C2866 1.349 . S
C2867 C2883 1.349 . S
C2868 C2866 1.327 . S
C2868 C2887 1.429 . S
C2868 H2892 0.950 . S
C2869 C2886 1.574 . S
C2869 C2888 1.368 . S
C2869 H2893 0.949 . S
H2870 C2874 0.949 . S
C2871 C2872 1.349 . S
C2871 C2873 1.327 . S
C2871 H2894 0.950 . S
C2872 C2871 1.349 . S
C2872 C2884 1.349 . S
C2873 C2871 1.327 . S
C2873 C2889 1.429 . S
C2873 H2895 0.950 . S
C2874 H2870 0.949 . S
C2874 C2882 1.574 . S
C2874 C2890 1.368 . S
H2875 C2883 0.950 . S
H2876 C2881 0.950 . S
H2877 C2882 0.949 . S
H2878 C2884 0.950 . S
H2879 C2885 0.950 . S
H2880 C2886 0.949 . S
C2881 H2876 0.950 . S
C2881 C2883 1.327 . S
C2881 C2887 1.429 . S
C2882 C2874 1.574 . S
C2882 H2877 0.949 . S
C2882 C2888 1.368 . S
C2883 C2867 1.349 . S
C2883 H2875 0.950 . S
C2883 C2881 1.327 . S
C2884 C2872 1.349 . S
C2884 H2878 0.950 . S
C2884 C2885 1.327 . S
C2885 H2879 0.950 . S
C2885 C2884 1.327 . S
C2885 C2889 1.429 . S
C2886 C2869 1.574 . S
C2886 H2880 0.949 . S
C2886 C2890 1.368 . S
C2887 C2868 1.429 . S
C2887 C2881 1.429 . S
C2887 C2888 1.523 . S
C2888 C2869 1.368 . S
C2888 C2882 1.368 . S
C2888 C2887 1.523 . S
C2889 C2873 1.429 . S
C2889 C2885 1.429 . S
C2889 C2890 1.523 . S
C2890 C2874 1.368 . S
C2890 C2886 1.368 . S
C2890 C2889 1.523 . S
H2891 C2866 0.950 . S
H2892 C2868 0.950 . S
H2893 C2869 0.949 . S
H2894 C2871 0.950 . S
H2895 C2873 0.950 . S
C2896 C2897 1.349 . S
C2896 C2898 1.327 . S
C2896 H2921 0.950 . S
C2897 C2896 1.349 . S
C2897 C2913 1.349 . S
C2898 C2896 1.327 . S
C2898 C2917 1.429 . S
C2898 H2922 0.950 . S
C2899 C2916 1.574 . S
C2899 C2918 1.368 . S
C2899 H2923 0.949 . S
H2900 C2904 0.949 . S
C2901 C2902 1.349 . S
C2901 C2903 1.327 . S
C2901 H2924 0.950 . S
C2902 C2901 1.349 . S
C2902 C2914 1.349 . S
C2903 C2901 1.327 . S
C2903 C2919 1.429 . S
C2903 H2925 0.950 . S
C2904 H2900 0.949 . S
C2904 C2912 1.574 . S
C2904 C2920 1.368 . S
H2905 C2913 0.950 . S
H2906 C2911 0.950 . S
H2907 C2912 0.949 . S
H2908 C2914 0.950 . S
H2909 C2915 0.950 . S
H2910 C2916 0.949 . S
C2911 H2906 0.950 . S
C2911 C2913 1.327 . S
C2911 C2917 1.429 . S
C2912 C2904 1.574 . S
C2912 H2907 0.949 . S
C2912 C2918 1.368 . S
C2913 C2897 1.349 . S
C2913 H2905 0.950 . S
C2913 C2911 1.327 . S
C2914 C2902 1.349 . S
C2914 H2908 0.950 . S
C2914 C2915 1.327 . S
C2915 H2909 0.950 . S
C2915 C2914 1.327 . S
C2915 C2919 1.429 . S
C2916 C2899 1.574 . S
C2916 H2910 0.949 . S
C2916 C2920 1.368 . S
C2917 C2898 1.429 . S
C2917 C2911 1.429 . S
C2917 C2918 1.523 . S
C2918 C2899 1.368 . S
C2918 C2912 1.368 . S
C2918 C2917 1.523 . S
C2919 C2903 1.429 . S
C2919 C2915 1.429 . S
C2919 C2920 1.523 . S
C2920 C2904 1.368 . S
C2920 C2916 1.368 . S
C2920 C2919 1.523 . S
H2921 C2896 0.950 . S
H2922 C2898 0.950 . S
H2923 C2899 0.949 . S
H2924 C2901 0.950 . S
H2925 C2903 0.950 . S
C2926 C2927 1.349 . S
C2926 C2928 1.327 . S
C2926 H2951 0.950 . S
C2927 C2926 1.349 . S
C2927 C2943 1.349 . S
C2928 C2926 1.327 . S
C2928 C2947 1.429 . S
C2928 H2952 0.950 . S
C2929 C2946 1.574 . S
C2929 C2948 1.368 . S
C2929 H2953 0.949 . S
H2930 C2934 0.949 . S
C2931 C2932 1.349 . S
C2931 C2933 1.327 . S
C2931 H2954 0.950 . S
C2932 C2931 1.349 . S
C2932 C2944 1.349 . S
C2933 C2931 1.327 . S
C2933 C2949 1.429 . S
C2933 H2955 0.950 . S
C2934 H2930 0.949 . S
C2934 C2942 1.574 . S
C2934 C2950 1.368 . S
H2935 C2943 0.950 . S
H2936 C2941 0.950 . S
H2937 C2942 0.949 . S
H2938 C2944 0.950 . S
H2939 C2945 0.950 . S
H2940 C2946 0.949 . S
C2941 H2936 0.950 . S
C2941 C2943 1.327 . S
C2941 C2947 1.429 . S
C2942 C2934 1.574 . S
C2942 H2937 0.949 . S
C2942 C2948 1.368 . S
C2943 C2927 1.349 . S
C2943 H2935 0.950 . S
C2943 C2941 1.327 . S
C2944 C2932 1.349 . S
C2944 H2938 0.950 . S
C2944 C2945 1.327 . S
C2945 H2939 0.950 . S
C2945 C2944 1.327 . S
C2945 C2949 1.429 . S
C2946 C2929 1.574 . S
C2946 H2940 0.949 . S
C2946 C2950 1.368 . S
C2947 C2928 1.429 . S
C2947 C2941 1.429 . S
C2947 C2948 1.523 . S
C2948 C2929 1.368 . S
C2948 C2942 1.368 . S
C2948 C2947 1.523 . S
C2949 C2933 1.429 . S
C2949 C2945 1.429 . S
C2949 C2950 1.523 . S
C2950 C2934 1.368 . S
C2950 C2946 1.368 . S
C2950 C2949 1.523 . S
H2951 C2926 0.950 . S
H2952 C2928 0.950 . S
H2953 C2929 0.949 . S
H2954 C2931 0.950 . S
H2955 C2933 0.950 . S
C2956 C2957 1.349 . S
C2956 C2958 1.327 . S
C2956 H2981 0.950 . S
C2957 C2956 1.349 . S
C2957 C2973 1.349 . S
C2958 C2956 1.327 . S
C2958 C2977 1.429 . S
C2958 H2982 0.950 . S
C2959 C2976 1.574 . S
C2959 C2978 1.368 . S
C2959 H2983 0.949 . S
H2960 C2964 0.949 . S
C2961 C2962 1.349 . S
C2961 C2963 1.327 . S
C2961 H2984 0.950 . S
C2962 C2961 1.349 . S
C2962 C2974 1.349 . S
C2963 C2961 1.327 . S
C2963 C2979 1.429 . S
C2963 H2985 0.950 . S
C2964 H2960 0.949 . S
C2964 C2972 1.574 . S
C2964 C2980 1.368 . S
H2965 C2973 0.950 . S
H2966 C2971 0.950 . S
H2967 C2972 0.949 . S
H2968 C2974 0.950 . S
H2969 C2975 0.950 . S
H2970 C2976 0.949 . S
C2971 H2966 0.950 . S
C2971 C2973 1.327 . S
C2971 C2977 1.429 . S
C2972 C2964 1.574 . S
C2972 H2967 0.949 . S
C2972 C2978 1.368 . S
C2973 C2957 1.349 . S
C2973 H2965 0.950 . S
C2973 C2971 1.327 . S
C2974 C2962 1.349 . S
C2974 H2968 0.950 . S
C2974 C2975 1.327 . S
C2975 H2969 0.950 . S
C2975 C2974 1.327 . S
C2975 C2979 1.429 . S
C2976 C2959 1.574 . S
C2976 H2970 0.949 . S
C2976 C2980 1.368 . S
C2977 C2958 1.429 . S
C2977 C2971 1.429 . S
C2977 C2978 1.523 . S
C2978 C2959 1.368 . S
C2978 C2972 1.368 . S
C2978 C2977 1.523 . S
C2979 C2963 1.429 . S
C2979 C2975 1.429 . S
C2979 C2980 1.523 . S
C2980 C2964 1.368 . S
C2980 C2976 1.368 . S
C2980 C2979 1.523 . S
H2981 C2956 0.950 . S
H2982 C2958 0.950 . S
H2983 C2959 0.949 . S
H2984 C2961 0.950 . S
H2985 C2963 0.950 . S
C2986 C2987 1.349 1_556 S
C2986 C2988 1.321 . S
C2986 H3011 0.950 . S
C2987 C2986 1.349 1_554 S
C2987 C3003 1.349 . S
C2988 C2986 1.321 . S
C2988 C3007 1.387 1_556 S
C2988 H3012 1.002 . S
C2989 C3006 1.574 . S
C2989 C3008 1.368 . S
C2989 H3013 0.949 . S
H2990 C2994 0.949 1_556 S
C2991 C2992 1.349 . S
C2991 C2993 1.327 1_545 S
C2991 H3014 0.950 . S
C2992 C2991 1.349 . S
C2992 C3004 1.349 . S
C2993 C2991 1.327 1_565 S
C2993 C3009 1.429 . S
C2993 H3015 0.950 . S
C2994 H2990 0.949 1_554 S
C2994 C3002 1.574 . S
C2994 C3010 1.368 . S
H2995 C3003 0.950 . S
H2996 C3001 0.950 . S
H2997 C3002 0.949 1_556 S
H2998 C3004 0.933 1_556 S
H2999 C3005 0.950 1_556 S
H3000 C3006 0.949 . S
C3001 H2996 0.950 . S
C3001 C3003 1.327 . S
C3001 C3007 1.429 . S
C3002 C2994 1.574 . S
C3002 H2997 0.949 1_554 S
C3002 C3008 1.368 . S
C3003 C2987 1.349 . S
C3003 H2995 0.950 . S
C3003 C3001 1.327 . S
C3004 C2992 1.349 . S
C3004 H2998 0.933 1_554 S
C3004 C3005 1.327 . S
C3005 H2999 0.950 1_554 S
C3005 C3004 1.327 . S
C3005 C3009 1.429 1_545 S
C3006 C2989 1.574 . S
C3006 H3000 0.949 . S
C3006 C3010 1.368 . S
C3007 C2988 1.387 1_554 S
C3007 C3001 1.429 . S
C3007 C3008 1.523 . S
C3008 C2989 1.368 . S
C3008 C3002 1.368 . S
C3008 C3007 1.523 . S
C3009 C2993 1.429 . S
C3009 C3005 1.429 1_565 S
C3009 C3010 1.523 . S
C3010 C2994 1.368 . S
C3010 C3006 1.368 . S
C3010 C3009 1.523 . S
H3011 C2986 0.950 . S
H3012 C2988 1.002 . S
H3013 C2989 0.949 . S
H3014 C2991 0.950 . S
H3015 C2993 0.950 . S
C3016 C3017 1.349 . S
C3016 C3018 1.327 . S
C3016 H3041 0.950 . S
C3017 C3016 1.349 . S
C3017 C3033 1.349 . S
C3018 C3016 1.327 . S
C3018 C3037 1.429 . S
C3018 H3042 0.950 . S
C3019 C3036 1.574 . S
C3019 C3038 1.368 . S
C3019 H3043 0.949 . S
H3020 C3024 0.949 . S
C3021 C3022 1.349 . S
C3021 C3023 1.327 . S
C3021 H3044 0.950 . S
C3022 C3021 1.349 . S
C3022 C3034 1.349 . S
C3023 C3021 1.327 . S
C3023 C3039 1.429 . S
C3023 H3045 0.950 . S
C3024 H3020 0.949 . S
C3024 C3032 1.574 . S
C3024 C3040 1.368 . S
H3025 C3033 0.950 . S
H3026 C3031 0.950 . S
H3027 C3032 0.949 . S
H3028 C3034 0.950 . S
H3029 C3035 0.950 . S
H3030 C3036 0.949 . S
C3031 H3026 0.950 . S
C3031 C3033 1.327 . S
C3031 C3037 1.429 . S
C3032 C3024 1.574 . S
C3032 H3027 0.949 . S
C3032 C3038 1.368 . S
C3033 C3017 1.349 . S
C3033 H3025 0.950 . S
C3033 C3031 1.327 . S
C3034 C3022 1.349 . S
C3034 H3028 0.950 . S
C3034 C3035 1.327 . S
C3035 H3029 0.950 . S
C3035 C3034 1.327 . S
C3035 C3039 1.429 . S
C3036 C3019 1.574 . S
C3036 H3030 0.949 . S
C3036 C3040 1.368 . S
C3037 C3018 1.429 . S
C3037 C3031 1.429 . S
C3037 C3038 1.523 . S
C3038 C3019 1.368 . S
C3038 C3032 1.368 . S
C3038 C3037 1.523 . S
C3039 C3023 1.429 . S
C3039 C3035 1.429 . S
C3039 C3040 1.523 . S
C3040 C3024 1.368 . S
C3040 C3036 1.368 . S
C3040 C3039 1.523 . S
H3041 C3016 0.950 . S
H3042 C3018 0.950 . S
H3043 C3019 0.949 . S
H3044 C3021 0.950 . S
H3045 C3023 0.950 . S
C3046 C3047 1.349 . S
C3046 C3048 1.327 . S
C3046 H3071 0.950 . S
C3047 C3046 1.349 . S
C3047 C3063 1.349 . S
C3048 C3046 1.327 . S
C3048 C3067 1.429 . S
C3048 H3072 0.950 . S
C3049 C3066 1.574 . S
C3049 C3068 1.368 . S
C3049 H3073 0.949 . S
H3050 C3054 0.949 . S
C3051 C3052 1.349 . S
C3051 C3053 1.327 . S
C3051 H3074 0.950 . S
C3052 C3051 1.349 . S
C3052 C3064 1.349 . S
C3053 C3051 1.327 . S
C3053 C3069 1.429 . S
C3053 H3075 0.950 . S
C3054 H3050 0.949 . S
C3054 C3062 1.574 . S
C3054 C3070 1.368 . S
H3055 C3063 0.950 1_556 S
H3056 C3061 0.950 . S
H3057 C3062 0.949 . S
H3058 C3064 0.950 . S
H3059 C3065 0.950 . S
H3060 C3066 0.949 . S
C3061 H3056 0.950 . S
C3061 C3063 1.327 . S
C3061 C3067 1.429 . S
C3062 C3054 1.574 . S
C3062 H3057 0.949 . S
C3062 C3068 1.368 . S
C3063 C3047 1.349 . S
C3063 H3055 0.950 1_554 S
C3063 C3061 1.327 . S
C3064 C3052 1.349 . S
C3064 H3058 0.950 . S
C3064 C3065 1.327 . S
C3065 H3059 0.950 . S
C3065 C3064 1.327 . S
C3065 C3069 1.429 . S
C3066 C3049 1.574 . S
C3066 H3060 0.949 . S
C3066 C3070 1.368 . S
C3067 C3048 1.429 . S
C3067 C3061 1.429 . S
C3067 C3068 1.523 . S
C3068 C3049 1.368 . S
C3068 C3062 1.368 . S
C3068 C3067 1.523 . S
C3069 C3053 1.429 . S
C3069 C3065 1.429 . S
C3069 C3070 1.523 . S
C3070 C3054 1.368 . S
C3070 C3066 1.368 . S
C3070 C3069 1.523 . S
H3071 C3046 0.950 . S
H3072 C3048 0.950 . S
H3073 C3049 0.949 . S
H3074 C3051 0.950 . S
H3075 C3053 0.950 . S
C3076 C3077 1.349 . S
C3076 C3078 1.327 . S
C3076 H3101 0.950 . S
C3077 C3076 1.349 . S
C3077 C3093 1.349 . S
C3078 C3076 1.327 . S
C3078 C3097 1.429 . S
C3078 H3102 0.950 . S
C3079 C3096 1.574 . S
C3079 C3098 1.368 . S
C3079 H3103 0.949 . S
H3080 C3084 0.949 . S
C3081 C3082 1.349 . S
C3081 C3083 1.327 . S
C3081 H3104 0.950 . S
C3082 C3081 1.349 . S
C3082 C3094 1.349 . S
C3083 C3081 1.327 . S
C3083 C3099 1.429 . S
C3083 H3105 0.950 . S
C3084 H3080 0.949 . S
C3084 C3092 1.574 . S
C3084 C3100 1.368 . S
H3085 C3093 0.950 . S
H3086 C3091 0.950 . S
H3087 C3092 0.949 . S
H3088 C3094 0.950 . S
H3089 C3095 0.950 . S
H3090 C3096 0.949 . S
C3091 H3086 0.950 . S
C3091 C3093 1.327 . S
C3091 C3097 1.429 . S
C3092 C3084 1.574 . S
C3092 H3087 0.949 . S
C3092 C3098 1.368 . S
C3093 C3077 1.349 . S
C3093 H3085 0.950 . S
C3093 C3091 1.327 . S
C3094 C3082 1.349 . S
C3094 H3088 0.950 . S
C3094 C3095 1.327 . S
C3095 H3089 0.950 . S
C3095 C3094 1.327 . S
C3095 C3099 1.429 . S
C3096 C3079 1.574 . S
C3096 H3090 0.949 . S
C3096 C3100 1.368 . S
C3097 C3078 1.429 . S
C3097 C3091 1.429 . S
C3097 C3098 1.523 . S
C3098 C3079 1.368 . S
C3098 C3092 1.368 . S
C3098 C3097 1.523 . S
C3099 C3083 1.429 . S
C3099 C3095 1.429 . S
C3099 C3100 1.523 . S
C3100 C3084 1.368 . S
C3100 C3096 1.368 . S
C3100 C3099 1.523 . S
H3101 C3076 0.950 . S
H3102 C3078 0.950 . S
H3103 C3079 0.949 . S
H3104 C3081 0.950 . S
H3105 C3083 0.950 . S
C3106 C3107 1.349 . S
C3106 C3108 1.327 . S
C3106 H3131 0.950 . S
C3107 C3106 1.349 . S
C3107 C3123 1.349 . S
C3108 C3106 1.327 . S
C3108 C3127 1.429 . S
C3108 H3132 0.950 . S
C3109 C3126 1.574 . S
C3109 C3128 1.368 . S
C3109 H3133 0.949 . S
H3110 C3114 0.949 . S
C3111 C3112 1.349 . S
C3111 C3113 1.327 . S
C3111 H3134 0.950 . S
C3112 C3111 1.349 . S
C3112 C3124 1.349 . S
C3113 C3111 1.327 . S
C3113 C3129 1.429 . S
C3113 H3135 0.950 . S
C3114 H3110 0.949 . S
C3114 C3122 1.574 . S
C3114 C3130 1.368 . S
H3115 C3123 0.950 . S
H3116 C3121 0.950 . S
H3117 C3122 0.949 . S
H3118 C3124 0.950 . S
H3119 C3125 0.950 . S
H3120 C3126 0.949 . S
C3121 H3116 0.950 . S
C3121 C3123 1.327 . S
C3121 C3127 1.429 . S
C3122 C3114 1.574 . S
C3122 H3117 0.949 . S
C3122 C3128 1.368 . S
C3123 C3107 1.349 . S
C3123 H3115 0.950 . S
C3123 C3121 1.327 . S
C3124 C3112 1.349 . S
C3124 H3118 0.950 . S
C3124 C3125 1.327 . S
C3125 H3119 0.950 . S
C3125 C3124 1.327 . S
C3125 C3129 1.429 . S
C3126 C3109 1.574 . S
C3126 H3120 0.949 . S
C3126 C3130 1.368 . S
C3127 C3108 1.429 . S
C3127 C3121 1.429 . S
C3127 C3128 1.523 . S
C3128 C3109 1.368 . S
C3128 C3122 1.368 . S
C3128 C3127 1.523 . S
C3129 C3113 1.429 . S
C3129 C3125 1.429 . S
C3129 C3130 1.523 . S
C3130 C3114 1.368 . S
C3130 C3126 1.368 . S
C3130 C3129 1.523 . S
H3131 C3106 0.950 . S
H3132 C3108 0.950 . S
H3133 C3109 0.949 . S
H3134 C3111 0.950 . S
H3135 C3113 0.950 . S
C3136 C3137 1.349 . S
C3136 C3138 1.327 . S
C3136 H3161 0.950 . S
C3137 C3136 1.349 . S
C3137 C3153 1.349 . S
C3138 C3136 1.327 . S
C3138 C3157 1.429 . S
C3138 H3162 0.950 . S
C3139 C3156 1.574 . S
C3139 C3158 1.368 . S
C3139 H3163 0.949 . S
H3140 C3144 0.949 . S
C3141 C3142 1.349 . S
C3141 C3143 1.327 . S
C3141 H3164 0.950 . S
C3142 C3141 1.349 . S
C3142 C3154 1.349 . S
C3143 C3141 1.327 . S
C3143 C3159 1.429 . S
C3143 H3165 0.950 . S
C3144 H3140 0.949 . S
C3144 C3152 1.574 . S
C3144 C3160 1.368 . S
H3145 C3153 0.950 . S
H3146 C3151 0.950 . S
H3147 C3152 0.949 . S
H3148 C3154 0.950 . S
H3149 C3155 0.950 . S
H3150 C3156 0.949 . S
C3151 H3146 0.950 . S
C3151 C3153 1.327 . S
C3151 C3157 1.429 . S
C3152 C3144 1.574 . S
C3152 H3147 0.949 . S
C3152 C3158 1.368 . S
C3153 C3137 1.349 . S
C3153 H3145 0.950 . S
C3153 C3151 1.327 . S
C3154 C3142 1.349 . S
C3154 H3148 0.950 . S
C3154 C3155 1.327 . S
C3155 H3149 0.950 . S
C3155 C3154 1.327 . S
C3155 C3159 1.429 . S
C3156 C3139 1.574 . S
C3156 H3150 0.949 . S
C3156 C3160 1.368 . S
C3157 C3138 1.429 . S
C3157 C3151 1.429 . S
C3157 C3158 1.523 . S
C3158 C3139 1.368 . S
C3158 C3152 1.368 . S
C3158 C3157 1.523 . S
C3159 C3143 1.429 . S
C3159 C3155 1.429 . S
C3159 C3160 1.523 . S
C3160 C3144 1.368 . S
C3160 C3156 1.368 . S
C3160 C3159 1.523 . S
H3161 C3136 0.950 . S
H3162 C3138 0.950 . S
H3163 C3139 0.949 . S
H3164 C3141 0.950 . S
H3165 C3143 0.950 . S
C3166 C3167 1.349 . S
C3166 C3168 1.327 . S
C3166 H3191 0.950 . S
C3167 C3166 1.349 . S
C3167 C3183 1.349 . S
C3168 C3166 1.327 . S
C3168 C3187 1.429 . S
C3168 H3192 0.950 . S
C3169 C3186 1.574 . S
C3169 C3188 1.368 . S
C3169 H3193 0.949 . S
H3170 C3174 0.949 . S
C3171 C3172 1.349 . S
C3171 C3173 1.327 . S
C3171 H3194 0.950 . S
C3172 C3171 1.349 . S
C3172 C3184 1.349 . S
C3173 C3171 1.327 . S
C3173 C3189 1.429 . S
C3173 H3195 0.950 . S
C3174 H3170 0.949 . S
C3174 C3182 1.574 . S
C3174 C3190 1.368 . S
H3175 C3183 0.950 . S
H3176 C3181 0.950 . S
H3177 C3182 0.949 . S
H3178 C3184 0.950 . S
H3179 C3185 0.950 . S
H3180 C3186 0.949 . S
C3181 H3176 0.950 . S
C3181 C3183 1.327 . S
C3181 C3187 1.429 . S
C3182 C3174 1.574 . S
C3182 H3177 0.949 . S
C3182 C3188 1.368 . S
C3183 C3167 1.349 . S
C3183 H3175 0.950 . S
C3183 C3181 1.327 . S
C3184 C3172 1.349 . S
C3184 H3178 0.950 . S
C3184 C3185 1.327 . S
C3185 H3179 0.950 . S
C3185 C3184 1.327 . S
C3185 C3189 1.429 . S
C3186 C3169 1.574 . S
C3186 H3180 0.949 . S
C3186 C3190 1.368 . S
C3187 C3168 1.429 . S
C3187 C3181 1.429 . S
C3187 C3188 1.523 . S
C3188 C3169 1.368 . S
C3188 C3182 1.368 . S
C3188 C3187 1.523 . S
C3189 C3173 1.429 . S
C3189 C3185 1.429 . S
C3189 C3190 1.523 . S
C3190 C3174 1.368 . S
C3190 C3186 1.368 . S
C3190 C3189 1.523 . S
H3191 C3166 0.950 . S
H3192 C3168 0.950 . S
H3193 C3169 0.949 . S
H3194 C3171 0.950 . S
H3195 C3173 0.950 . S
C3196 C3197 1.349 . S
C3196 C3198 1.327 . S
C3196 H3221 0.950 . S
C3197 C3196 1.349 . S
C3197 C3213 1.349 . S
C3198 C3196 1.327 . S
C3198 C3217 1.429 . S
C3198 H3222 0.950 . S
C3199 C3216 1.574 . S
C3199 C3218 1.368 . S
C3199 H3223 0.949 . S
H3200 C3204 0.949 . S
C3201 C3202 1.349 . S
C3201 C3203 1.327 . S
C3201 H3224 0.950 . S
C3202 C3201 1.349 . S
C3202 C3214 1.349 . S
C3203 C3201 1.327 . S
C3203 C3219 1.429 . S
C3203 H3225 0.950 . S
C3204 H3200 0.949 . S
C3204 C3212 1.574 . S
C3204 C3220 1.368 . S
H3205 C3213 0.950 . S
H3206 C3211 0.950 . S
H3207 C3212 0.949 . S
H3208 C3214 0.950 . S
H3209 C3215 0.950 . S
H3210 C3216 0.949 . S
C3211 H3206 0.950 . S
C3211 C3213 1.327 . S
C3211 C3217 1.429 . S
C3212 C3204 1.574 . S
C3212 H3207 0.949 . S
C3212 C3218 1.368 . S
C3213 C3197 1.349 . S
C3213 H3205 0.950 . S
C3213 C3211 1.327 . S
C3214 C3202 1.349 . S
C3214 H3208 0.950 . S
C3214 C3215 1.327 . S
C3215 H3209 0.950 . S
C3215 C3214 1.327 . S
C3215 C3219 1.429 . S
C3216 C3199 1.574 . S
C3216 H3210 0.949 . S
C3216 C3220 1.368 . S
C3217 C3198 1.429 . S
C3217 C3211 1.429 . S
C3217 C3218 1.523 . S
C3218 C3199 1.368 . S
C3218 C3212 1.368 . S
C3218 C3217 1.523 . S
C3219 C3203 1.429 . S
C3219 C3215 1.429 . S
C3219 C3220 1.523 . S
C3220 C3204 1.368 . S
C3220 C3216 1.368 . S
C3220 C3219 1.523 . S
H3221 C3196 0.950 . S
H3222 C3198 0.950 . S
H3223 C3199 0.949 . S
H3224 C3201 0.950 . S
H3225 C3203 0.950 . S
C3226 C3227 1.349 . S
C3226 C3228 1.327 . S
C3226 H3251 0.950 . S
C3227 C3226 1.349 . S
C3227 C3243 1.349 . S
C3228 C3226 1.327 . S
C3228 C3247 1.429 . S
C3228 H3252 0.950 . S
C3229 C3246 1.574 . S
C3229 C3248 1.368 . S
C3229 H3253 0.949 . S
H3230 C3234 0.949 . S
C3231 C3232 1.349 . S
C3231 C3233 1.327 . S
C3231 H3254 0.950 . S
C3232 C3231 1.349 . S
C3232 C3244 1.349 . S
C3233 C3231 1.327 . S
C3233 C3249 1.429 . S
C3233 H3255 0.950 . S
C3234 H3230 0.949 . S
C3234 C3242 1.574 . S
C3234 C3250 1.368 . S
H3235 C3243 0.950 . S
H3236 C3241 0.950 . S
H3237 C3242 0.949 . S
H3238 C3244 0.950 . S
H3239 C3245 0.950 . S
H3240 C3246 0.949 . S
C3241 H3236 0.950 . S
C3241 C3243 1.327 . S
C3241 C3247 1.429 . S
C3242 C3234 1.574 . S
C3242 H3237 0.949 . S
C3242 C3248 1.368 . S
C3243 C3227 1.349 . S
C3243 H3235 0.950 . S
C3243 C3241 1.327 . S
C3244 C3232 1.349 . S
C3244 H3238 0.950 . S
C3244 C3245 1.327 . S
C3245 H3239 0.950 . S
C3245 C3244 1.327 . S
C3245 C3249 1.429 . S
C3246 C3229 1.574 . S
C3246 H3240 0.949 . S
C3246 C3250 1.368 . S
C3247 C3228 1.429 . S
C3247 C3241 1.429 . S
C3247 C3248 1.523 . S
C3248 C3229 1.368 . S
C3248 C3242 1.368 . S
C3248 C3247 1.523 . S
C3249 C3233 1.429 . S
C3249 C3245 1.429 . S
C3249 C3250 1.523 . S
C3250 C3234 1.368 . S
C3250 C3246 1.368 . S
C3250 C3249 1.523 . S
H3251 C3226 0.950 . S
H3252 C3228 0.950 . S
H3253 C3229 0.949 . S
H3254 C3231 0.950 . S
H3255 C3233 0.950 . S
C3256 C3257 1.349 . S
C3256 C3258 1.327 . S
C3256 H3281 0.950 . S
C3257 C3256 1.349 . S
C3257 C3273 1.349 . S
C3258 C3256 1.327 . S
C3258 C3277 1.429 . S
C3258 H3282 0.950 . S
C3259 C3276 1.574 . S
C3259 C3278 1.368 . S
C3259 H3283 0.949 . S
H3260 C3264 0.949 . S
C3261 C3262 1.349 . S
C3261 C3263 1.327 . S
C3261 H3284 0.950 . S
C3262 C3261 1.349 . S
C3262 C3274 1.349 . S
C3263 C3261 1.327 . S
C3263 C3279 1.429 . S
C3263 H3285 0.950 . S
C3264 H3260 0.949 . S
C3264 C3272 1.574 . S
C3264 C3280 1.368 . S
H3265 C3273 0.950 . S
H3266 C3271 0.950 . S
H3267 C3272 0.949 . S
H3268 C3274 0.950 . S
H3269 C3275 0.950 . S
H3270 C3276 0.949 . S
C3271 H3266 0.950 . S
C3271 C3273 1.327 . S
C3271 C3277 1.429 . S
C3272 C3264 1.574 . S
C3272 H3267 0.949 . S
C3272 C3278 1.368 . S
C3273 C3257 1.349 . S
C3273 H3265 0.950 . S
C3273 C3271 1.327 . S
C3274 C3262 1.349 . S
C3274 H3268 0.950 . S
C3274 C3275 1.327 . S
C3275 H3269 0.950 . S
C3275 C3274 1.327 . S
C3275 C3279 1.429 . S
C3276 C3259 1.574 . S
C3276 H3270 0.949 . S
C3276 C3280 1.368 . S
C3277 C3258 1.429 . S
C3277 C3271 1.429 . S
C3277 C3278 1.523 . S
C3278 C3259 1.368 . S
C3278 C3272 1.368 . S
C3278 C3277 1.523 . S
C3279 C3263 1.429 . S
C3279 C3275 1.429 . S
C3279 C3280 1.523 . S
C3280 C3264 1.368 . S
C3280 C3276 1.368 . S
C3280 C3279 1.523 . S
H3281 C3256 0.950 . S
H3282 C3258 0.950 . S
H3283 C3259 0.949 . S
H3284 C3261 0.950 . S
H3285 C3263 0.950 . S
C3286 C3287 1.349 . S
C3286 C3288 1.327 . S
C3286 H3311 0.950 . S
C3287 C3286 1.349 . S
C3287 C3303 1.349 . S
C3288 C3286 1.327 . S
C3288 C3307 1.429 . S
C3288 H3312 0.950 . S
C3289 C3306 1.574 . S
C3289 C3308 1.368 . S
C3289 H3313 0.949 . S
H3290 C3294 0.949 . S
C3291 C3292 1.349 . S
C3291 C3293 1.327 . S
C3291 H3314 0.950 . S
C3292 C3291 1.349 . S
C3292 C3304 1.349 . S
C3293 C3291 1.327 . S
C3293 C3309 1.429 . S
C3293 H3315 0.950 . S
C3294 H3290 0.949 . S
C3294 C3302 1.574 . S
C3294 C3310 1.368 . S
H3295 C3303 0.950 . S
H3296 C3301 0.950 . S
H3297 C3302 0.949 . S
H3298 C3304 0.950 . S
H3299 C3305 0.950 . S
H3300 C3306 0.949 . S
C3301 H3296 0.950 . S
C3301 C3303 1.327 . S
C3301 C3307 1.429 . S
C3302 C3294 1.574 . S
C3302 H3297 0.949 . S
C3302 C3308 1.368 . S
C3303 C3287 1.349 . S
C3303 H3295 0.950 . S
C3303 C3301 1.327 . S
C3304 C3292 1.349 . S
C3304 H3298 0.950 . S
C3304 C3305 1.327 . S
C3305 H3299 0.950 . S
C3305 C3304 1.327 . S
C3305 C3309 1.429 . S
C3306 C3289 1.574 . S
C3306 H3300 0.949 . S
C3306 C3310 1.368 . S
C3307 C3288 1.429 . S
C3307 C3301 1.429 . S
C3307 C3308 1.523 . S
C3308 C3289 1.368 . S
C3308 C3302 1.368 . S
C3308 C3307 1.523 . S
C3309 C3293 1.429 . S
C3309 C3305 1.429 . S
C3309 C3310 1.523 . S
C3310 C3294 1.368 . S
C3310 C3306 1.368 . S
C3310 C3309 1.523 . S
H3311 C3286 0.950 . S
H3312 C3288 0.950 . S
H3313 C3289 0.949 . S
H3314 C3291 0.950 . S
H3315 C3293 0.950 . S
C3316 C3317 1.349 . S
C3316 C3318 1.327 . S
C3316 H3341 0.950 . S
C3317 C3316 1.349 . S
C3317 C3333 1.349 . S
C3318 C3316 1.327 . S
C3318 C3337 1.429 . S
C3318 H3342 0.950 . S
C3319 C3336 1.574 . S
C3319 C3338 1.368 . S
C3319 H3343 0.949 . S
H3320 C3324 0.949 . S
C3321 C3322 1.349 . S
C3321 C3323 1.327 . S
C3321 H3344 0.950 . S
C3322 C3321 1.349 . S
C3322 C3334 1.349 . S
C3323 C3321 1.327 . S
C3323 C3339 1.429 . S
C3323 H3345 0.950 . S
C3324 H3320 0.949 . S
C3324 C3332 1.574 . S
C3324 C3340 1.368 . S
H3325 C3333 0.950 . S
H3326 C3331 0.950 . S
H3327 C3332 0.949 . S
H3328 C3334 0.950 . S
H3329 C3335 0.950 . S
H3330 C3336 0.949 . S
C3331 H3326 0.950 . S
C3331 C3333 1.327 . S
C3331 C3337 1.429 . S
C3332 C3324 1.574 . S
C3332 H3327 0.949 . S
C3332 C3338 1.368 . S
C3333 C3317 1.349 . S
C3333 H3325 0.950 . S
C3333 C3331 1.327 . S
C3334 C3322 1.349 . S
C3334 H3328 0.950 . S
C3334 C3335 1.327 . S
C3335 H3329 0.950 . S
C3335 C3334 1.327 . S
C3335 C3339 1.429 . S
C3336 C3319 1.574 . S
C3336 H3330 0.949 . S
C3336 C3340 1.368 . S
C3337 C3318 1.429 . S
C3337 C3331 1.429 . S
C3337 C3338 1.523 . S
C3338 C3319 1.368 . S
C3338 C3332 1.368 . S
C3338 C3337 1.523 . S
C3339 C3323 1.429 . S
C3339 C3335 1.429 . S
C3339 C3340 1.523 . S
C3340 C3324 1.368 . S
C3340 C3336 1.368 . S
C3340 C3339 1.523 . S
H3341 C3316 0.950 . S
H3342 C3318 0.950 . S
H3343 C3319 0.949 . S
H3344 C3321 0.950 . S
H3345 C3323 0.950 . S
C3346 C3347 1.349 . S
C3346 C3348 1.327 . S
C3346 H3371 0.950 . S
C3347 C3346 1.349 . S
C3347 C3363 1.349 . S
C3348 C3346 1.327 . S
C3348 C3367 1.429 . S
C3348 H3372 0.950 . S
C3349 C3366 1.574 . S
C3349 C3368 1.368 . S
C3349 H3373 0.949 . S
H3350 C3354 0.949 . S
C3351 C3352 1.349 . S
C3351 C3353 1.327 . S
C3351 H3374 0.950 . S
C3352 C3351 1.349 . S
C3352 C3364 1.349 . S
C3353 C3351 1.327 . S
C3353 C3369 1.429 . S
C3353 H3375 0.950 . S
C3354 H3350 0.949 . S
C3354 C3362 1.574 . S
C3354 C3370 1.368 . S
H3355 C3363 0.950 . S
H3356 C3361 0.950 . S
H3357 C3362 0.949 . S
H3358 C3364 0.950 . S
H3359 C3365 0.950 . S
H3360 C3366 0.949 . S
C3361 H3356 0.950 . S
C3361 C3363 1.327 . S
C3361 C3367 1.429 . S
C3362 C3354 1.574 . S
C3362 H3357 0.949 . S
C3362 C3368 1.368 . S
C3363 C3347 1.349 . S
C3363 H3355 0.950 . S
C3363 C3361 1.327 . S
C3364 C3352 1.349 . S
C3364 H3358 0.950 . S
C3364 C3365 1.327 . S
C3365 H3359 0.950 . S
C3365 C3364 1.327 . S
C3365 C3369 1.429 . S
C3366 C3349 1.574 . S
C3366 H3360 0.949 . S
C3366 C3370 1.368 . S
C3367 C3348 1.429 . S
C3367 C3361 1.429 . S
C3367 C3368 1.523 . S
C3368 C3349 1.368 . S
C3368 C3362 1.368 . S
C3368 C3367 1.523 . S
C3369 C3353 1.429 . S
C3369 C3365 1.429 . S
C3369 C3370 1.523 . S
C3370 C3354 1.368 . S
C3370 C3366 1.368 . S
C3370 C3369 1.523 . S
H3371 C3346 0.950 . S
H3372 C3348 0.950 . S
H3373 C3349 0.949 . S
H3374 C3351 0.950 . S
H3375 C3353 0.950 . S
C3376 C3377 1.349 . S
C3376 C3378 1.327 . S
C3376 H3401 0.950 . S
C3377 C3376 1.349 . S
C3377 C3393 1.349 . S
C3378 C3376 1.327 . S
C3378 C3397 1.429 . S
C3378 H3402 0.950 . S
C3379 C3396 1.574 . S
C3379 C3398 1.368 . S
C3379 H3403 0.949 . S
H3380 C3384 0.949 . S
C3381 C3382 1.349 . S
C3381 C3383 1.327 . S
C3381 H3404 0.950 . S
C3382 C3381 1.349 . S
C3382 C3394 1.349 . S
C3383 C3381 1.327 . S
C3383 C3399 1.429 . S
C3383 H3405 0.950 . S
C3384 H3380 0.949 . S
C3384 C3392 1.574 . S
C3384 C3400 1.368 . S
H3385 C3393 0.950 . S
H3386 C3391 0.950 . S
H3387 C3392 0.949 . S
H3388 C3394 0.950 . S
H3389 C3395 0.950 . S
H3390 C3396 0.949 . S
C3391 H3386 0.950 . S
C3391 C3393 1.327 . S
C3391 C3397 1.429 . S
C3392 C3384 1.574 . S
C3392 H3387 0.949 . S
C3392 C3398 1.368 . S
C3393 C3377 1.349 . S
C3393 H3385 0.950 . S
C3393 C3391 1.327 . S
C3394 C3382 1.349 . S
C3394 H3388 0.950 . S
C3394 C3395 1.327 . S
C3395 H3389 0.950 . S
C3395 C3394 1.327 . S
C3395 C3399 1.429 . S
C3396 C3379 1.574 . S
C3396 H3390 0.949 . S
C3396 C3400 1.368 . S
C3397 C3378 1.429 . S
C3397 C3391 1.429 . S
C3397 C3398 1.523 . S
C3398 C3379 1.368 . S
C3398 C3392 1.368 . S
C3398 C3397 1.523 . S
C3399 C3383 1.429 . S
C3399 C3395 1.429 . S
C3399 C3400 1.523 . S
C3400 C3384 1.368 . S
C3400 C3396 1.368 . S
C3400 C3399 1.523 . S
H3401 C3376 0.950 . S
H3402 C3378 0.950 . S
H3403 C3379 0.949 . S
H3404 C3381 0.950 . S
H3405 C3383 0.950 . S
C3406 C3407 1.349 . S
C3406 C3408 1.327 . S
C3406 H3431 0.950 . S
C3407 C3406 1.349 . S
C3407 C3423 1.349 . S
C3408 C3406 1.327 . S
C3408 C3427 1.429 . S
C3408 H3432 0.950 . S
C3409 C3426 1.574 . S
C3409 C3428 1.368 . S
C3409 H3433 0.949 . S
H3410 C3414 0.949 . S
C3411 C3412 1.349 . S
C3411 C3413 1.327 . S
C3411 H3434 0.950 . S
C3412 C3411 1.349 . S
C3412 C3424 1.349 . S
C3413 C3411 1.327 . S
C3413 C3429 1.429 . S
C3413 H3435 0.950 . S
C3414 H3410 0.949 . S
C3414 C3422 1.574 . S
C3414 C3430 1.368 . S
H3415 C3423 0.950 . S
H3416 C3421 0.950 . S
H3417 C3422 0.949 . S
H3418 C3424 0.950 . S
H3419 C3425 0.950 . S
H3420 C3426 0.949 . S
C3421 H3416 0.950 . S
C3421 C3423 1.327 . S
C3421 C3427 1.429 . S
C3422 C3414 1.574 . S
C3422 H3417 0.949 . S
C3422 C3428 1.368 . S
C3423 C3407 1.349 . S
C3423 H3415 0.950 . S
C3423 C3421 1.327 . S
C3424 C3412 1.349 . S
C3424 H3418 0.950 . S
C3424 C3425 1.327 . S
C3425 H3419 0.950 . S
C3425 C3424 1.327 . S
C3425 C3429 1.429 . S
C3426 C3409 1.574 . S
C3426 H3420 0.949 . S
C3426 C3430 1.368 . S
C3427 C3408 1.429 . S
C3427 C3421 1.429 . S
C3427 C3428 1.523 . S
C3428 C3409 1.368 . S
C3428 C3422 1.368 . S
C3428 C3427 1.523 . S
C3429 C3413 1.429 . S
C3429 C3425 1.429 . S
C3429 C3430 1.523 . S
C3430 C3414 1.368 . S
C3430 C3426 1.368 . S
C3430 C3429 1.523 . S
H3431 C3406 0.950 . S
H3432 C3408 0.950 . S
H3433 C3409 0.949 . S
H3434 C3411 0.950 . S
H3435 C3413 0.950 . S
C3436 C3437 1.349 . S
C3436 C3438 1.327 . S
C3436 H3461 0.950 . S
C3437 C3436 1.349 . S
C3437 C3453 1.349 . S
C3438 C3436 1.327 . S
C3438 C3457 1.429 . S
C3438 H3462 0.950 . S
C3439 C3456 1.574 . S
C3439 C3458 1.368 . S
C3439 H3463 0.949 . S
H3440 C3444 0.949 . S
C3441 C3442 1.349 . S
C3441 C3443 1.327 . S
C3441 H3464 0.950 . S
C3442 C3441 1.349 . S
C3442 C3454 1.349 . S
C3443 C3441 1.327 . S
C3443 C3459 1.429 . S
C3443 H3465 0.950 1_455 S
C3444 H3440 0.949 . S
C3444 C3452 1.574 1_455 S
C3444 C3460 1.368 1_455 S
H3445 C3453 0.950 . S
H3446 C3451 0.950 . S
H3447 C3452 0.949 . S
H3448 C3454 0.950 . S
H3449 C3455 0.950 . S
H3450 C3456 0.949 . S
C3451 H3446 0.950 . S
C3451 C3453 1.327 . S
C3451 C3457 1.429 . S
C3452 C3444 1.574 1_655 S
C3452 H3447 0.949 . S
C3452 C3458 1.368 . S
C3453 C3437 1.349 . S
C3453 H3445 0.950 . S
C3453 C3451 1.327 . S
C3454 C3442 1.349 . S
C3454 H3448 0.950 . S
C3454 C3455 1.327 . S
C3455 H3449 0.950 . S
C3455 C3454 1.327 . S
C3455 C3459 1.429 . S
C3456 C3439 1.574 . S
C3456 H3450 0.949 . S
C3456 C3460 1.368 . S
C3457 C3438 1.429 . S
C3457 C3451 1.429 . S
C3457 C3458 1.523 . S
C3458 C3439 1.368 . S
C3458 C3452 1.368 . S
C3458 C3457 1.523 . S
C3459 C3443 1.429 . S
C3459 C3455 1.429 . S
C3459 C3460 1.523 1_455 S
C3460 C3444 1.368 1_655 S
C3460 C3456 1.368 . S
C3460 C3459 1.523 1_655 S
H3461 C3436 0.950 . S
H3462 C3438 0.950 . S
H3463 C3439 0.949 . S
H3464 C3441 0.950 . S
H3465 C3443 0.950 1_655 S
C3466 C3467 1.349 . S
C3466 C3468 1.327 . S
C3466 H3491 0.950 . S
C3467 C3466 1.349 . S
C3467 C3483 1.349 . S
C3468 C3466 1.327 . S
C3468 C3487 1.429 . S
C3468 H3492 0.950 . S
C3469 C3486 1.574 . S
C3469 C3488 1.368 . S
C3469 H3493 0.949 . S
H3470 C3474 0.949 . S
C3471 C3472 1.349 . S
C3471 C3473 1.327 . S
C3471 H3494 0.950 . S
C3472 C3471 1.349 . S
C3472 C3484 1.349 . S
C3473 C3471 1.327 . S
C3473 C3489 1.429 . S
C3473 H3495 0.950 . S
C3474 H3470 0.949 . S
C3474 C3482 1.574 . S
C3474 C3490 1.368 . S
H3475 C3483 0.950 . S
H3476 C3481 0.950 . S
H3477 C3482 0.949 . S
H3478 C3484 0.950 . S
H3479 C3485 0.950 . S
H3480 C3486 0.949 . S
C3481 H3476 0.950 . S
C3481 C3483 1.327 . S
C3481 C3487 1.429 . S
C3482 C3474 1.574 . S
C3482 H3477 0.949 . S
C3482 C3488 1.368 . S
C3483 C3467 1.349 . S
C3483 H3475 0.950 . S
C3483 C3481 1.327 . S
C3484 C3472 1.349 . S
C3484 H3478 0.950 . S
C3484 C3485 1.327 . S
C3485 H3479 0.950 . S
C3485 C3484 1.327 . S
C3485 C3489 1.429 . S
C3486 C3469 1.574 . S
C3486 H3480 0.949 . S
C3486 C3490 1.368 . S
C3487 C3468 1.429 . S
C3487 C3481 1.429 . S
C3487 C3488 1.523 . S
C3488 C3469 1.368 . S
C3488 C3482 1.368 . S
C3488 C3487 1.523 . S
C3489 C3473 1.429 . S
C3489 C3485 1.429 . S
C3489 C3490 1.523 . S
C3490 C3474 1.368 . S
C3490 C3486 1.368 . S
C3490 C3489 1.523 . S
H3491 C3466 0.950 . S
H3492 C3468 0.950 . S
H3493 C3469 0.949 . S
H3494 C3471 0.950 . S
H3495 C3473 0.950 . S
C3496 C3497 1.349 . S
C3496 C3498 1.327 . S
C3496 H3521 0.950 . S
C3497 C3496 1.349 . S
C3497 C3513 1.349 . S
C3498 C3496 1.327 . S
C3498 C3517 1.429 . S
C3498 H3522 0.950 . S
C3499 C3516 1.574 . S
C3499 C3518 1.368 . S
C3499 H3523 0.949 . S
H3500 C3504 0.949 . S
C3501 C3502 1.349 . S
C3501 C3503 1.327 . S
C3501 H3524 0.950 . S
C3502 C3501 1.349 . S
C3502 C3514 1.349 . S
C3503 C3501 1.327 . S
C3503 C3519 1.429 . S
C3503 H3525 0.950 . S
C3504 H3500 0.949 . S
C3504 C3512 1.574 . S
C3504 C3520 1.368 . S
H3505 C3513 0.950 . S
H3506 C3511 0.950 . S
H3507 C3512 0.949 . S
H3508 C3514 0.950 . S
H3509 C3515 0.950 . S
H3510 C3516 0.949 . S
C3511 H3506 0.950 . S
C3511 C3513 1.327 . S
C3511 C3517 1.429 . S
C3512 C3504 1.574 . S
C3512 H3507 0.949 . S
C3512 C3518 1.368 . S
C3513 C3497 1.349 . S
C3513 H3505 0.950 . S
C3513 C3511 1.327 . S
C3514 C3502 1.349 . S
C3514 H3508 0.950 . S
C3514 C3515 1.327 . S
C3515 H3509 0.950 . S
C3515 C3514 1.327 . S
C3515 C3519 1.429 . S
C3516 C3499 1.574 . S
C3516 H3510 0.949 . S
C3516 C3520 1.368 . S
C3517 C3498 1.429 . S
C3517 C3511 1.429 . S
C3517 C3518 1.523 . S
C3518 C3499 1.368 . S
C3518 C3512 1.368 . S
C3518 C3517 1.523 . S
C3519 C3503 1.429 . S
C3519 C3515 1.429 . S
C3519 C3520 1.523 . S
C3520 C3504 1.368 . S
C3520 C3516 1.368 . S
C3520 C3519 1.523 . S
H3521 C3496 0.950 . S
H3522 C3498 0.950 . S
H3523 C3499 0.949 . S
H3524 C3501 0.950 . S
H3525 C3503 0.950 . S
C3526 C3527 1.349 . S
C3526 C3528 1.327 . S
C3526 H3551 0.950 . S
C3527 C3526 1.349 . S
C3527 C3543 1.349 . S
C3528 C3526 1.327 . S
C3528 C3547 1.429 . S
C3528 H3552 0.950 . S
C3529 C3546 1.574 . S
C3529 C3548 1.368 . S
C3529 H3553 0.949 . S
H3530 C3534 0.949 . S
C3531 C3532 1.349 . S
C3531 C3533 1.327 . S
C3531 H3554 0.950 . S
C3532 C3531 1.349 . S
C3532 C3544 1.349 . S
C3533 C3531 1.327 . S
C3533 C3549 1.429 . S
C3533 H3555 0.950 . S
C3534 H3530 0.949 . S
C3534 C3542 1.574 . S
C3534 C3550 1.368 . S
H3535 C3543 0.950 . S
H3536 C3541 0.950 . S
H3537 C3542 0.949 . S
H3538 C3544 0.950 . S
H3539 C3545 0.950 . S
H3540 C3546 0.949 . S
C3541 H3536 0.950 . S
C3541 C3543 1.327 . S
C3541 C3547 1.429 . S
C3542 C3534 1.574 . S
C3542 H3537 0.949 . S
C3542 C3548 1.368 . S
C3543 C3527 1.349 . S
C3543 H3535 0.950 . S
C3543 C3541 1.327 . S
C3544 C3532 1.349 . S
C3544 H3538 0.950 . S
C3544 C3545 1.327 . S
C3545 H3539 0.950 . S
C3545 C3544 1.327 . S
C3545 C3549 1.429 . S
C3546 C3529 1.574 . S
C3546 H3540 0.949 . S
C3546 C3550 1.368 . S
C3547 C3528 1.429 . S
C3547 C3541 1.429 . S
C3547 C3548 1.523 . S
C3548 C3529 1.368 . S
C3548 C3542 1.368 . S
C3548 C3547 1.523 . S
C3549 C3533 1.429 . S
C3549 C3545 1.429 . S
C3549 C3550 1.523 . S
C3550 C3534 1.368 . S
C3550 C3546 1.368 . S
C3550 C3549 1.523 . S
H3551 C3526 0.950 . S
H3552 C3528 0.950 . S
H3553 C3529 0.949 . S
H3554 C3531 0.950 . S
H3555 C3533 0.950 . S
C3556 C3557 1.349 . S
C3556 C3558 1.327 . S
C3556 H3581 0.950 . S
C3557 C3556 1.349 . S
C3557 C3573 1.349 . S
C3558 C3556 1.327 . S
C3558 C3577 1.429 . S
C3558 H3582 0.950 . S
C3559 C3576 1.574 . S
C3559 C3578 1.368 . S
C3559 H3583 0.949 . S
H3560 C3564 0.949 . S
C3561 C3562 1.348 1_455 S
C3561 C3563 1.324 1_455 S
C3561 H3584 0.953 . S
C3562 C3561 1.348 1_655 S
C3562 C3574 1.349 . S
C3563 C3561 1.324 1_655 S
C3563 C3579 1.429 . S
C3563 H3585 0.950 . S
C3564 H3560 0.949 . S
C3564 C3572 1.574 . S
C3564 C3580 1.368 . S
H3565 C3573 0.950 . S
H3566 C3571 0.950 . S
H3567 C3572 0.949 . S
H3568 C3574 0.950 . S
H3569 C3575 0.950 . S
H3570 C3576 0.949 . S
C3571 H3566 0.950 . S
C3571 C3573 1.327 . S
C3571 C3577 1.429 . S
C3572 C3564 1.574 . S
C3572 H3567 0.949 . S
C3572 C3578 1.368 . S
C3573 C3557 1.349 . S
C3573 H3565 0.950 . S
C3573 C3571 1.327 . S
C3574 C3562 1.349 . S
C3574 H3568 0.950 . S
C3574 C3575 1.327 . S
C3575 H3569 0.950 . S
C3575 C3574 1.327 . S
C3575 C3579 1.429 . S
C3576 C3559 1.574 . S
C3576 H3570 0.949 . S
C3576 C3580 1.368 . S
C3577 C3558 1.429 . S
C3577 C3571 1.429 . S
C3577 C3578 1.523 . S
C3578 C3559 1.368 . S
C3578 C3572 1.368 . S
C3578 C3577 1.523 . S
C3579 C3563 1.429 . S
C3579 C3575 1.429 . S
C3579 C3580 1.523 . S
C3580 C3564 1.368 . S
C3580 C3576 1.368 . S
C3580 C3579 1.523 . S
H3581 C3556 0.950 . S
H3582 C3558 0.950 . S
H3583 C3559 0.949 . S
H3584 C3561 0.953 . S
H3585 C3563 0.950 . S
C3586 C3587 1.349 . S
C3586 C3588 1.327 . S
C3586 H3611 0.950 . S
C3587 C3586 1.349 . S
C3587 C3603 1.349 . S
C3588 C3586 1.327 . S
C3588 C3607 1.429 . S
C3588 H3612 0.950 . S
C3589 C3606 1.574 . S
C3589 C3608 1.368 . S
C3589 H3613 0.949 . S
H3590 C3594 0.949 . S
C3591 C3592 1.349 . S
C3591 C3593 1.327 . S
C3591 H3614 0.950 . S
C3592 C3591 1.349 . S
C3592 C3604 1.349 . S
C3593 C3591 1.327 . S
C3593 C3609 1.429 . S
C3593 H3615 0.950 . S
C3594 H3590 0.949 . S
C3594 C3602 1.574 . S
C3594 C3610 1.368 . S
H3595 C3603 0.950 . S
H3596 C3601 0.950 . S
H3597 C3602 0.949 . S
H3598 C3604 0.950 . S
H3599 C3605 0.950 . S
H3600 C3606 0.949 . S
C3601 H3596 0.950 . S
C3601 C3603 1.327 . S
C3601 C3607 1.429 . S
C3602 C3594 1.574 . S
C3602 H3597 0.949 . S
C3602 C3608 1.368 . S
C3603 C3587 1.349 . S
C3603 H3595 0.950 . S
C3603 C3601 1.327 . S
C3604 C3592 1.349 . S
C3604 H3598 0.950 . S
C3604 C3605 1.327 . S
C3605 H3599 0.950 . S
C3605 C3604 1.327 . S
C3605 C3609 1.429 . S
C3606 C3589 1.574 . S
C3606 H3600 0.949 . S
C3606 C3610 1.368 . S
C3607 C3588 1.429 . S
C3607 C3601 1.429 . S
C3607 C3608 1.523 . S
C3608 C3589 1.368 . S
C3608 C3602 1.368 . S
C3608 C3607 1.523 . S
C3609 C3593 1.429 . S
C3609 C3605 1.429 . S
C3609 C3610 1.523 . S
C3610 C3594 1.368 . S
C3610 C3606 1.368 . S
C3610 C3609 1.523 . S
H3611 C3586 0.950 . S
H3612 C3588 0.950 . S
H3613 C3589 0.949 . S
H3614 C3591 0.950 . S
H3615 C3593 0.950 . S
C3616 C3617 1.349 . S
C3616 C3618 1.327 . S
C3616 H3641 0.950 . S
C3617 C3616 1.349 . S
C3617 C3633 1.349 . S
C3618 C3616 1.327 . S
C3618 C3637 1.429 . S
C3618 H3642 0.950 . S
C3619 C3636 1.574 . S
C3619 C3638 1.368 . S
C3619 H3643 0.949 . S
H3620 C3624 0.949 . S
C3621 C3622 1.349 . S
C3621 C3623 1.327 . S
C3621 H3644 0.950 . S
C3622 C3621 1.349 . S
C3622 C3634 1.349 . S
C3623 C3621 1.327 . S
C3623 C3639 1.429 . S
C3623 H3645 0.950 . S
C3624 H3620 0.949 . S
C3624 C3632 1.574 . S
C3624 C3640 1.368 . S
H3625 C3633 0.950 . S
H3626 C3631 0.950 . S
H3627 C3632 0.949 . S
H3628 C3634 0.950 . S
H3629 C3635 0.950 . S
H3630 C3636 0.949 . S
C3631 H3626 0.950 . S
C3631 C3633 1.327 . S
C3631 C3637 1.429 . S
C3632 C3624 1.574 . S
C3632 H3627 0.949 . S
C3632 C3638 1.368 . S
C3633 C3617 1.349 . S
C3633 H3625 0.950 . S
C3633 C3631 1.327 . S
C3634 C3622 1.349 . S
C3634 H3628 0.950 . S
C3634 C3635 1.327 . S
C3635 H3629 0.950 . S
C3635 C3634 1.327 . S
C3635 C3639 1.429 . S
C3636 C3619 1.574 . S
C3636 H3630 0.949 . S
C3636 C3640 1.368 . S
C3637 C3618 1.429 . S
C3637 C3631 1.429 . S
C3637 C3638 1.523 . S
C3638 C3619 1.368 . S
C3638 C3632 1.368 . S
C3638 C3637 1.523 . S
C3639 C3623 1.429 . S
C3639 C3635 1.429 . S
C3639 C3640 1.523 . S
C3640 C3624 1.368 . S
C3640 C3636 1.368 . S
C3640 C3639 1.523 . S
H3641 C3616 0.950 . S
H3642 C3618 0.950 . S
H3643 C3619 0.949 . S
H3644 C3621 0.950 . S
H3645 C3623 0.950 . S
C3646 C3647 1.349 . S
C3646 C3648 1.327 . S
C3646 H3671 0.950 . S
C3647 C3646 1.349 . S
C3647 C3663 1.349 . S
C3648 C3646 1.327 . S
C3648 C3667 1.429 . S
C3648 H3672 0.950 . S
C3649 C3666 1.574 . S
C3649 C3668 1.368 . S
C3649 H3673 0.949 . S
H3650 C3654 0.949 . S
C3651 C3652 1.349 1_565 S
C3651 C3653 1.327 . S
C3651 H3674 0.950 . S
C3652 C3651 1.349 1_545 S
C3652 C3664 1.349 . S
C3653 C3651 1.327 . S
C3653 C3669 1.429 . S
C3653 H3675 0.950 . S
C3654 H3650 0.949 . S
C3654 C3662 1.574 . S
C3654 C3670 1.368 . S
H3655 C3663 0.950 . S
H3656 C3661 0.950 . S
H3657 C3662 0.949 . S
H3658 C3664 0.950 . S
H3659 C3665 0.950 . S
H3660 C3666 0.949 . S
C3661 H3656 0.950 . S
C3661 C3663 1.327 . S
C3661 C3667 1.429 . S
C3662 C3654 1.574 . S
C3662 H3657 0.949 . S
C3662 C3668 1.368 . S
C3663 C3647 1.349 . S
C3663 H3655 0.950 . S
C3663 C3661 1.327 . S
C3664 C3652 1.349 . S
C3664 H3658 0.950 . S
C3664 C3665 1.327 1_545 S
C3665 H3659 0.950 . S
C3665 C3664 1.327 1_565 S
C3665 C3669 1.429 . S
C3666 C3649 1.574 . S
C3666 H3660 0.949 . S
C3666 C3670 1.368 . S
C3667 C3648 1.429 . S
C3667 C3661 1.429 . S
C3667 C3668 1.523 . S
C3668 C3649 1.368 . S
C3668 C3662 1.368 . S
C3668 C3667 1.523 . S
C3669 C3653 1.429 . S
C3669 C3665 1.429 . S
C3669 C3670 1.523 . S
C3670 C3654 1.368 . S
C3670 C3666 1.368 . S
C3670 C3669 1.523 . S
H3671 C3646 0.950 . S
H3672 C3648 0.950 . S
H3673 C3649 0.949 . S
H3674 C3651 0.950 . S
H3675 C3653 0.950 . S
C3676 C3677 1.349 . S
C3676 C3678 1.327 . S
C3676 H3701 0.950 . S
C3677 C3676 1.349 . S
C3677 C3693 1.349 . S
C3678 C3676 1.327 . S
C3678 C3697 1.429 . S
C3678 H3702 0.950 . S
C3679 C3696 1.574 . S
C3679 C3698 1.368 . S
C3679 H3703 0.949 . S
H3680 C3684 0.949 . S
C3681 C3682 1.349 . S
C3681 C3683 1.327 . S
C3681 H3704 0.950 . S
C3682 C3681 1.349 . S
C3682 C3694 1.349 . S
C3683 C3681 1.327 . S
C3683 C3699 1.429 . S
C3683 H3705 0.950 . S
C3684 H3680 0.949 . S
C3684 C3692 1.574 . S
C3684 C3700 1.368 . S
H3685 C3693 0.950 . S
H3686 C3691 0.950 . S
H3687 C3692 0.949 . S
H3688 C3694 0.950 . S
H3689 C3695 0.950 . S
H3690 C3696 0.949 . S
C3691 H3686 0.950 . S
C3691 C3693 1.327 . S
C3691 C3697 1.429 . S
C3692 C3684 1.574 . S
C3692 H3687 0.949 . S
C3692 C3698 1.368 . S
C3693 C3677 1.349 . S
C3693 H3685 0.950 . S
C3693 C3691 1.327 . S
C3694 C3682 1.349 . S
C3694 H3688 0.950 . S
C3694 C3695 1.327 . S
C3695 H3689 0.950 . S
C3695 C3694 1.327 . S
C3695 C3699 1.429 . S
C3696 C3679 1.574 . S
C3696 H3690 0.949 . S
C3696 C3700 1.368 . S
C3697 C3678 1.429 . S
C3697 C3691 1.429 . S
C3697 C3698 1.523 . S
C3698 C3679 1.368 . S
C3698 C3692 1.368 . S
C3698 C3697 1.523 . S
C3699 C3683 1.429 . S
C3699 C3695 1.429 . S
C3699 C3700 1.523 . S
C3700 C3684 1.368 . S
C3700 C3696 1.368 . S
C3700 C3699 1.523 . S
H3701 C3676 0.950 . S
H3702 C3678 0.950 . S
H3703 C3679 0.949 . S
H3704 C3681 0.950 . S
H3705 C3683 0.950 . S
C3706 C3707 1.349 . S
C3706 C3708 1.327 . S
C3706 H3731 0.950 . S
C3707 C3706 1.349 . S
C3707 C3723 1.349 1_554 S
C3708 C3706 1.327 . S
C3708 C3727 1.429 . S
C3708 H3732 0.950 . S
C3709 C3726 1.574 . S
C3709 C3728 1.368 1_556 S
C3709 H3733 0.949 . S
H3710 C3714 0.949 . S
C3711 C3712 1.349 . S
C3711 C3713 1.327 . S
C3711 H3734 0.950 1_554 S
C3712 C3711 1.349 . S
C3712 C3724 1.349 . S
C3713 C3711 1.327 . S
C3713 C3729 1.429 . S
C3713 H3735 0.950 1_554 S
C3714 H3710 0.949 . S
C3714 C3722 1.574 . S
C3714 C3730 1.368 . S
H3715 C3723 0.950 . S
H3716 C3721 0.950 . S
H3717 C3722 0.949 . S
H3718 C3724 0.950 . S
H3719 C3725 0.950 . S
H3720 C3726 0.949 . S
C3721 H3716 0.950 . S
C3721 C3723 1.327 . S
C3721 C3727 1.429 1_556 S
C3722 C3714 1.574 . S
C3722 H3717 0.949 . S
C3722 C3728 1.368 . S
C3723 C3707 1.349 1_556 S
C3723 H3715 0.950 . S
C3723 C3721 1.327 . S
C3724 C3712 1.349 . S
C3724 H3718 0.950 . S
C3724 C3725 1.327 . S
C3725 H3719 0.950 . S
C3725 C3724 1.327 . S
C3725 C3729 1.429 . S
C3726 C3709 1.574 . S
C3726 H3720 0.949 . S
C3726 C3730 1.368 1_556 S
C3727 C3708 1.429 . S
C3727 C3721 1.429 1_554 S
C3727 C3728 1.523 . S
C3728 C3709 1.368 1_554 S
C3728 C3722 1.368 . S
C3728 C3727 1.523 . S
C3729 C3713 1.429 . S
C3729 C3725 1.429 . S
C3729 C3730 1.523 . S
C3730 C3714 1.368 . S
C3730 C3726 1.368 1_554 S
C3730 C3729 1.523 . S
H3731 C3706 0.950 . S
H3732 C3708 0.950 . S
H3733 C3709 0.949 . S
H3734 C3711 0.950 1_556 S
H3735 C3713 0.950 1_556 S
C3736 C3737 1.349 . S
C3736 C3738 1.327 . S
C3736 H3761 0.950 . S
C3737 C3736 1.349 . S
C3737 C3753 1.349 . S
C3738 C3736 1.327 . S
C3738 C3757 1.429 . S
C3738 H3762 0.950 . S
C3739 C3756 1.574 . S
C3739 C3758 1.368 . S
C3739 H3763 0.949 . S
H3740 C3744 0.949 . S
C3741 C3742 1.349 . S
C3741 C3743 1.327 . S
C3741 H3764 0.950 . S
C3742 C3741 1.349 . S
C3742 C3754 1.349 . S
C3743 C3741 1.327 . S
C3743 C3759 1.429 . S
C3743 H3765 0.950 . S
C3744 H3740 0.949 . S
C3744 C3752 1.574 . S
C3744 C3760 1.368 . S
H3745 C3753 0.950 . S
H3746 C3751 0.950 . S
H3747 C3752 0.949 . S
H3748 C3754 0.950 . S
H3749 C3755 0.950 . S
H3750 C3756 0.949 . S
C3751 H3746 0.950 . S
C3751 C3753 1.327 . S
C3751 C3757 1.429 . S
C3752 C3744 1.574 . S
C3752 H3747 0.949 . S
C3752 C3758 1.368 . S
C3753 C3737 1.349 . S
C3753 H3745 0.950 . S
C3753 C3751 1.327 . S
C3754 C3742 1.349 . S
C3754 H3748 0.950 . S
C3754 C3755 1.327 . S
C3755 H3749 0.950 . S
C3755 C3754 1.327 . S
C3755 C3759 1.429 . S
C3756 C3739 1.574 . S
C3756 H3750 0.949 . S
C3756 C3760 1.368 . S
C3757 C3738 1.429 . S
C3757 C3751 1.429 . S
C3757 C3758 1.523 . S
C3758 C3739 1.368 . S
C3758 C3752 1.368 . S
C3758 C3757 1.523 . S
C3759 C3743 1.429 . S
C3759 C3755 1.429 . S
C3759 C3760 1.523 . S
C3760 C3744 1.368 . S
C3760 C3756 1.368 . S
C3760 C3759 1.523 . S
H3761 C3736 0.950 . S
H3762 C3738 0.950 . S
H3763 C3739 0.949 . S
H3764 C3741 0.950 . S
H3765 C3743 0.950 . S
C3766 C3767 1.349 . S
C3766 C3768 1.327 . S
C3766 H3791 0.950 . S
C3767 C3766 1.349 . S
C3767 C3783 1.349 . S
C3768 C3766 1.327 . S
C3768 C3787 1.429 . S
C3768 H3792 0.950 . S
C3769 C3786 1.574 . S
C3769 C3788 1.368 . S
C3769 H3793 0.964 . S
H3770 C3774 0.949 . S
C3771 C3772 1.350 . S
C3771 C3773 1.328 . S
C3771 H3794 0.948 1_554 S
C3772 C3771 1.350 . S
C3772 C3784 1.349 . S
C3773 C3771 1.328 . S
C3773 C3789 1.429 . S
C3773 H3795 0.950 1_554 S
C3774 H3770 0.949 . S
C3774 C3782 1.574 . S
C3774 C3790 1.368 . S
H3775 C3783 0.950 . S
H3776 C3781 0.950 . S
H3777 C3782 0.949 . S
H3778 C3784 0.950 . S
H3779 C3785 0.950 . S
H3780 C3786 0.949 1_556 S
C3781 H3776 0.950 . S
C3781 C3783 1.327 . S
C3781 C3787 1.429 . S
C3782 C3774 1.574 . S
C3782 H3777 0.949 . S
C3782 C3788 1.368 . S
C3783 C3767 1.349 . S
C3783 H3775 0.950 . S
C3783 C3781 1.327 . S
C3784 C3772 1.349 . S
C3784 H3778 0.950 . S
C3784 C3785 1.327 . S
C3785 H3779 0.950 . S
C3785 C3784 1.327 . S
C3785 C3789 1.429 . S
C3786 C3769 1.574 . S
C3786 H3780 0.949 1_554 S
C3786 C3790 1.368 . S
C3787 C3768 1.429 . S
C3787 C3781 1.429 . S
C3787 C3788 1.523 . S
C3788 C3769 1.368 . S
C3788 C3782 1.368 . S
C3788 C3787 1.523 . S
C3789 C3773 1.429 . S
C3789 C3785 1.429 . S
C3789 C3790 1.523 . S
C3790 C3774 1.368 . S
C3790 C3786 1.368 . S
C3790 C3789 1.523 . S
H3791 C3766 0.950 . S
H3792 C3768 0.950 . S
H3793 C3769 0.964 . S
H3794 C3771 0.948 1_556 S
H3795 C3773 0.950 1_556 S
C3796 C3797 1.349 . S
C3796 C3798 1.327 . S
C3796 H3821 0.950 . S
C3797 C3796 1.349 . S
C3797 C3813 1.349 . S
C3798 C3796 1.327 . S
C3798 C3817 1.429 . S
C3798 H3822 0.950 . S
C3799 C3816 1.574 . S
C3799 C3818 1.368 . S
C3799 H3823 0.949 . S
H3800 C3804 0.949 . S
C3801 C3802 1.349 . S
C3801 C3803 1.327 . S
C3801 H3824 0.950 . S
C3802 C3801 1.349 . S
C3802 C3814 1.349 . S
C3803 C3801 1.327 . S
C3803 C3819 1.429 . S
C3803 H3825 0.950 . S
C3804 H3800 0.949 . S
C3804 C3812 1.574 . S
C3804 C3820 1.368 . S
H3805 C3813 0.950 . S
H3806 C3811 0.950 . S
H3807 C3812 0.949 . S
H3808 C3814 0.950 . S
H3809 C3815 0.950 . S
H3810 C3816 0.949 . S
C3811 H3806 0.950 . S
C3811 C3813 1.327 . S
C3811 C3817 1.429 . S
C3812 C3804 1.574 . S
C3812 H3807 0.949 . S
C3812 C3818 1.368 . S
C3813 C3797 1.349 . S
C3813 H3805 0.950 . S
C3813 C3811 1.327 . S
C3814 C3802 1.349 . S
C3814 H3808 0.950 . S
C3814 C3815 1.327 . S
C3815 H3809 0.950 . S
C3815 C3814 1.327 . S
C3815 C3819 1.429 . S
C3816 C3799 1.574 . S
C3816 H3810 0.949 . S
C3816 C3820 1.368 . S
C3817 C3798 1.429 . S
C3817 C3811 1.429 . S
C3817 C3818 1.523 . S
C3818 C3799 1.368 . S
C3818 C3812 1.368 . S
C3818 C3817 1.523 . S
C3819 C3803 1.429 . S
C3819 C3815 1.429 . S
C3819 C3820 1.523 . S
C3820 C3804 1.368 . S
C3820 C3816 1.368 . S
C3820 C3819 1.523 . S
H3821 C3796 0.950 . S
H3822 C3798 0.950 . S
H3823 C3799 0.949 . S
H3824 C3801 0.950 . S
H3825 C3803 0.950 . S
C3826 C3827 1.349 . S
C3826 C3828 1.327 . S
C3826 H3851 0.950 . S
C3827 C3826 1.349 . S
C3827 C3843 1.349 . S
C3828 C3826 1.327 . S
C3828 C3847 1.429 . S
C3828 H3852 0.950 . S
C3829 C3846 1.574 . S
C3829 C3848 1.368 . S
C3829 H3853 0.949 . S
H3830 C3834 0.949 . S
C3831 C3832 1.349 . S
C3831 C3833 1.327 . S
C3831 H3854 0.950 . S
C3832 C3831 1.349 . S
C3832 C3844 1.349 . S
C3833 C3831 1.327 . S
C3833 C3849 1.429 . S
C3833 H3855 0.950 . S
C3834 H3830 0.949 . S
C3834 C3842 1.574 . S
C3834 C3850 1.368 . S
H3835 C3843 0.950 . S
H3836 C3841 0.950 . S
H3837 C3842 0.949 . S
H3838 C3844 0.950 . S
H3839 C3845 0.950 . S
H3840 C3846 0.949 . S
C3841 H3836 0.950 . S
C3841 C3843 1.327 . S
C3841 C3847 1.429 . S
C3842 C3834 1.574 . S
C3842 H3837 0.949 . S
C3842 C3848 1.368 . S
C3843 C3827 1.349 . S
C3843 H3835 0.950 . S
C3843 C3841 1.327 . S
C3844 C3832 1.349 . S
C3844 H3838 0.950 . S
C3844 C3845 1.327 . S
C3845 H3839 0.950 . S
C3845 C3844 1.327 . S
C3845 C3849 1.429 . S
C3846 C3829 1.574 . S
C3846 H3840 0.949 . S
C3846 C3850 1.368 . S
C3847 C3828 1.429 . S
C3847 C3841 1.429 . S
C3847 C3848 1.523 . S
C3848 C3829 1.368 . S
C3848 C3842 1.368 . S
C3848 C3847 1.523 . S
C3849 C3833 1.429 . S
C3849 C3845 1.429 . S
C3849 C3850 1.523 . S
C3850 C3834 1.368 . S
C3850 C3846 1.368 . S
C3850 C3849 1.523 . S
H3851 C3826 0.950 . S
H3852 C3828 0.950 . S
H3853 C3829 0.949 . S
H3854 C3831 0.950 . S
H3855 C3833 0.950 . S
C977 C106 2.562 . S
C982 C346 2.535 . S
C1007 C65 2.006 . S
C1012 C394 1.995 . S
C1037 C79 1.449 . S
C1042 C426 1.405 . S
C1072 C471 1.145 . S
C1067 C90 1.129 . S
C1097 C21 0.950 . S
C1102 C511 0.961 . S
C1132 C542 0.387 . S
C1127 C35 0.441 . S
C1162 C594 1.165 . S
C1157 C50 1.171 . S
C1187 C6 1.759 . S
C1192 C626 1.746 . S
C1222 C354 2.662 . S
C1217 C232 2.664 . S
C1247 C245 0.457 . S
C1252 C391 0.382 . S
C1282 C434 1.380 . S
C1277 C274 1.385 . S
C1312 C466 1.170 . S
C1307 C175 1.182 . S
C1337 C231 1.502 . S
C1342 C506 1.512 . S
C1372 C545 1.394 . S
C1367 C246 1.415 . S
C1402 C591 0.288 . S
C1397 C273 0.379 . S
C1432 C634 2.166 . S
C1427 C176 2.155 . S
C1462 C351 1.437 . S
C1457 C160 1.431 . S
C1487 C289 1.966 . S
C1492 C674 1.960 . S
C1522 C715 2.667 . S
C1517 C328 2.663 . S
C1552 C746 0.756 1_655 S
C1547 C317 0.757 . S
C1577 C118 1.363 . S
C1582 C631 1.397 . S
C1607 C132 1.532 . S
C1612 C431 1.565 . S
C1637 C331 2.377 . S
C1642 C794 2.358 . S
C1672 C826 0.721 . S
C1667 C303 0.715 . S
C1702 C355 2.062 1_565 S
C1697 C63 2.091 . S
C1732 C825 2.496 . S
C1727 C107 2.460 . S
C1757 C92 1.207 . S
C1762 C435 1.197 . S
C1787 C78 1.715 . S
C1792 C782 1.718 . S
C1822 C502 1.436 . S
C1817 C8 1.465 . S
C1847 C51 0.506 . S
C1852 C711 0.504 . S
C1882 C585 1.675 1_556 S
C1877 C37 1.616 . S
C1912 C875 1.606 . S
C1907 C20 1.643 . S
C1942 C345 2.477 . S
C1937 C147 2.442 . S
C1972 C822 0.470 . S
C1967 C316 0.421 . S
C1997 C119 1.272 . S
C2002 C425 1.299 . S
C2027 C288 1.332 . S
C2032 C795 1.327 . S
C2057 C148 1.949 1_545 S
C2062 C515 1.930 . S
C2092 C714 1.397 . S
C2087 C315 1.382 . S
C2117 C120 0.302 . S
C2122 C582 0.362 . S
C2147 C287 2.005 . S
C2152 C865 2.011 . S
C2177 C188 1.301 . S
C2182 C342 1.289 . S
C2207 C177 2.326 . S
C2212 C665 2.339 . S
C2237 C258 2.772 . S
C2242 C546 2.793 . S
C2267 C247 0.785 . S
C2272 C755 0.785 . S
C2302 C862 1.154 . S
C2297 C272 1.150 . S
C2327 C216 1.312 . S
C2332 C422 1.332 . S
C2362 C465 2.617 . S
C2357 C261 2.618 . S
C2392 C395 0.691 . S
C2387 C205 0.683 . S
C2417 C76 2.145 . S
C2422 C906 2.139 . S
C2452 C834 2.103 . S
C2447 C93 2.113 . S
C2477 C105 1.005 . S
C2482 C946 0.987 . S
C2507 C62 1.159 . S
C2512 C791 1.178 . S
C2537 C49 0.943 . S
C2542 C671 0.951 . S
C2572 C702 0.737 . S
C2567 C9 0.736 . S
C2602 C754 1.067 . S
C2597 C22 1.070 . S
C2632 C866 2.118 . S
C2627 C36 2.182 . S
C2662 C914 2.587 . S
C2657 C260 2.589 . S
C2687 C189 0.411 . S
C2692 C831 0.320 . S
C2722 C954 1.249 . S
C2717 C204 1.253 . S
C2752 C786 0.985 . S
C2747 C217 0.996 . S
C2782 C666 1.812 . S
C2777 C259 1.793 . S
C2807 C190 1.527 . S
C2812 C705 1.509 . S
C2842 C751 0.298 . S
C2837 C203 0.381 . S
C2867 C218 2.258 . S
C2872 C874 2.268 . S
C2902 C911 1.408 . S
C2897 C314 1.400 . S
C2927 C135 2.059 . S
C2932 C514 2.049 . S
C2962 C555 2.540 . S
C2957 C146 2.537 . S
C2992 C586 0.779 . S
C2987 C163 0.781 . S
C3022 C871 1.411 . S
C3017 C300 1.379 . S
C3047 C286 1.479 . S
C3052 C951 1.517 . S
C3082 C474 2.257 . S
C3077 C149 2.267 . S
C3112 C386 0.682 . S
C3107 C121 0.663 . S
C3137 C91 2.073 . S
C3142 C915 2.052 . S
C3172 C385 2.072 . S
C3167 C77 1.984 . S
C3197 C64 1.174 . S
C3202 C955 1.172 . S
C3227 C104 1.334 . S
C3232 C462 1.362 . S
C3257 C34 1.046 . S
C3262 C662 1.056 . S
C3292 C551 0.462 . S
C3287 C23 0.476 . S
C3317 C7 1.174 . S
C3322 C745 1.251 . S
C3347 C48 1.620 . S
C3352 C635 1.596 . S
C3382 C905 2.440 . S
C3377 C329 2.410 . S
C3407 C162 0.435 . S
C3412 C382 0.472 . S
C3442 C945 1.279 1_556 S
C3437 C301 1.282 . S
C3467 C134 1.347 . S
C3472 C475 1.343 . S
C3497 C330 1.929 . S
C3502 C675 1.894 . S
C3532 C554 1.416 . S
C3527 C161 1.409 . S
C3557 C302 0.307 . S
C3562 C742 0.346 . S
C3592 C625 1.982 . S
C3587 C133 1.981 . S
C3622 C902 1.487 . S
C3617 C244 1.497 . S
C3652 C505 2.272 1_655 S
C3647 C219 2.250 . S
C3677 C230 2.407 . S
C3682 C706 2.416 . S
C3712 C595 0.774 . S
C3707 C191 0.775 . S
C3737 C202 1.328 . S
C3742 C622 1.335 . S
C3767 C174 1.542 . S
C3772 C942 1.569 . S
C3802 C785 2.587 . S
C3797 C233 2.578 1_565 S
C3832 C835 0.688 . S
C3827 C275 0.677 . S
