# Generated by pormake.
# Topology ibd, (4,6)-cn, num edge types: 1
# Building blocks:
#     Node 0, Type 0, BuildingBlock: GALJAG_clean_sbu_0, # of connection points: 4
#     Node 1, Type 0, BuildingBlock: GALJAG_clean_sbu_0, # of connection points: 4
#     Node 2, Type 0, BuildingBlock: GALJAG_clean_sbu_0, # of connection points: 4
#     Node 3, Type 0, BuildingBlock: GALJAG_clean_sbu_0, # of connection points: 4
#     Node 4, Type 0, BuildingBlock: GALJAG_clean_sbu_0, # of connection points: 4
#     Node 5, Type 0, BuildingBlock: GALJAG_clean_sbu_0, # of connection points: 4
#     Node 6, Type 0, BuildingBlock: GALJAG_clean_sbu_0, # of connection points: 4
#     Node 7, Type 0, BuildingBlock: GALJAG_clean_sbu_0, # of connection points: 4
#     Node 8, Type 0, BuildingBlock: GALJAG_clean_sbu_0, # of connection points: 4
#     Node 9, Type 0, BuildingBlock: GALJAG_clean_sbu_0, # of connection points: 4
#     Node 10, Type 0, BuildingBlock: GALJAG_clean_sbu_0, # of connection points: 4
#     Node 11, Type 0, BuildingBlock: GALJAG_clean_sbu_0, # of connection points: 4
#     Node 12, Type 0, BuildingBlock: GALJAG_clean_sbu_0, # of connection points: 4
#     Node 13, Type 0, BuildingBlock: GALJAG_clean_sbu_0, # of connection points: 4
#     Node 14, Type 0, BuildingBlock: GALJAG_clean_sbu_0, # of connection points: 4
#     Node 15, Type 0, BuildingBlock: GALJAG_clean_sbu_0, # of connection points: 4
#     Node 16, Type 0, BuildingBlock: GALJAG_clean_sbu_0, # of connection points: 4
#     Node 17, Type 0, BuildingBlock: GALJAG_clean_sbu_0, # of connection points: 4
#     Node 18, Type 0, BuildingBlock: GALJAG_clean_sbu_0, # of connection points: 4
#     Node 19, Type 0, BuildingBlock: GALJAG_clean_sbu_0, # of connection points: 4
#     Node 20, Type 0, BuildingBlock: GALJAG_clean_sbu_0, # of connection points: 4
#     Node 21, Type 0, BuildingBlock: GALJAG_clean_sbu_0, # of connection points: 4
#     Node 22, Type 0, BuildingBlock: GALJAG_clean_sbu_0, # of connection points: 4
#     Node 23, Type 0, BuildingBlock: GALJAG_clean_sbu_0, # of connection points: 4
#     Node 24, Type 1, BuildingBlock: OJICUG_clean_sbu_0, # of connection points: 6
#     Node 25, Type 1, BuildingBlock: OJICUG_clean_sbu_0, # of connection points: 6
#     Node 26, Type 1, BuildingBlock: OJICUG_clean_sbu_0, # of connection points: 6
#     Node 27, Type 1, BuildingBlock: OJICUG_clean_sbu_0, # of connection points: 6
#     Node 28, Type 1, BuildingBlock: OJICUG_clean_sbu_0, # of connection points: 6
#     Node 29, Type 1, BuildingBlock: OJICUG_clean_sbu_0, # of connection points: 6
#     Node 30, Type 1, BuildingBlock: OJICUG_clean_sbu_0, # of connection points: 6
#     Node 31, Type 1, BuildingBlock: OJICUG_clean_sbu_0, # of connection points: 6
#     Node 32, Type 1, BuildingBlock: OJICUG_clean_sbu_0, # of connection points: 6
#     Node 33, Type 1, BuildingBlock: OJICUG_clean_sbu_0, # of connection points: 6
#     Node 34, Type 1, BuildingBlock: OJICUG_clean_sbu_0, # of connection points: 6
#     Node 35, Type 1, BuildingBlock: OJICUG_clean_sbu_0, # of connection points: 6
#     Node 36, Type 1, BuildingBlock: OJICUG_clean_sbu_0, # of connection points: 6
#     Node 37, Type 1, BuildingBlock: OJICUG_clean_sbu_0, # of connection points: 6
#     Node 38, Type 1, BuildingBlock: OJICUG_clean_sbu_0, # of connection points: 6
#     Node 39, Type 1, BuildingBlock: OJICUG_clean_sbu_0, # of connection points: 6
#     Edge 40, Type (0, 1), BuildingBlock: AJUNOK_clean_linker_0, # of connection points: 2
#     Edge 41, Type (0, 1), BuildingBlock: AJUNOK_clean_linker_0, # of connection points: 2
#     Edge 42, Type (0, 1), BuildingBlock: AJUNOK_clean_linker_0, # of connection points: 2
#     Edge 43, Type (0, 1), BuildingBlock: AJUNOK_clean_linker_0, # of connection points: 2
#     Edge 44, Type (0, 1), BuildingBlock: AJUNOK_clean_linker_0, # of connection points: 2
#     Edge 45, Type (0, 1), BuildingBlock: AJUNOK_clean_linker_0, # of connection points: 2
#     Edge 46, Type (0, 1), BuildingBlock: AJUNOK_clean_linker_0, # of connection points: 2
#     Edge 47, Type (0, 1), BuildingBlock: AJUNOK_clean_linker_0, # of connection points: 2
#     Edge 48, Type (0, 1), BuildingBlock: AJUNOK_clean_linker_0, # of connection points: 2
#     Edge 49, Type (0, 1), BuildingBlock: AJUNOK_clean_linker_0, # of connection points: 2
#     Edge 50, Type (0, 1), BuildingBlock: AJUNOK_clean_linker_0, # of connection points: 2
#     Edge 51, Type (0, 1), BuildingBlock: AJUNOK_clean_linker_0, # of connection points: 2
#     Edge 52, Type (0, 1), BuildingBlock: AJUNOK_clean_linker_0, # of connection points: 2
#     Edge 53, Type (0, 1), BuildingBlock: AJUNOK_clean_linker_0, # of connection points: 2
#     Edge 54, Type (0, 1), BuildingBlock: AJUNOK_clean_linker_0, # of connection points: 2
#     Edge 55, Type (0, 1), BuildingBlock: AJUNOK_clean_linker_0, # of connection points: 2
#     Edge 56, Type (0, 1), BuildingBlock: AJUNOK_clean_linker_0, # of connection points: 2
#     Edge 57, Type (0, 1), BuildingBlock: AJUNOK_clean_linker_0, # of connection points: 2
#     Edge 58, Type (0, 1), BuildingBlock: AJUNOK_clean_linker_0, # of connection points: 2
#     Edge 59, Type (0, 1), BuildingBlock: AJUNOK_clean_linker_0, # of connection points: 2
#     Edge 60, Type (0, 1), BuildingBlock: AJUNOK_clean_linker_0, # of connection points: 2
#     Edge 61, Type (0, 1), BuildingBlock: AJUNOK_clean_linker_0, # of connection points: 2
#     Edge 62, Type (0, 1), BuildingBlock: AJUNOK_clean_linker_0, # of connection points: 2
#     Edge 63, Type (0, 1), BuildingBlock: AJUNOK_clean_linker_0, # of connection points: 2
#     Edge 64, Type (0, 1), BuildingBlock: AJUNOK_clean_linker_0, # of connection points: 2
#     Edge 65, Type (0, 1), BuildingBlock: AJUNOK_clean_linker_0, # of connection points: 2
#     Edge 66, Type (0, 1), BuildingBlock: AJUNOK_clean_linker_0, # of connection points: 2
#     Edge 67, Type (0, 1), BuildingBlock: AJUNOK_clean_linker_0, # of connection points: 2
#     Edge 68, Type (0, 1), BuildingBlock: AJUNOK_clean_linker_0, # of connection points: 2
#     Edge 69, Type (0, 1), BuildingBlock: AJUNOK_clean_linker_0, # of connection points: 2
#     Edge 70, Type (0, 1), BuildingBlock: AJUNOK_clean_linker_0, # of connection points: 2
#     Edge 71, Type (0, 1), BuildingBlock: AJUNOK_clean_linker_0, # of connection points: 2
#     Edge 72, Type (0, 1), BuildingBlock: AJUNOK_clean_linker_0, # of connection points: 2
#     Edge 73, Type (0, 1), BuildingBlock: AJUNOK_clean_linker_0, # of connection points: 2
#     Edge 74, Type (0, 1), BuildingBlock: AJUNOK_clean_linker_0, # of connection points: 2
#     Edge 75, Type (0, 1), BuildingBlock: AJUNOK_clean_linker_0, # of connection points: 2
#     Edge 76, Type (0, 1), BuildingBlock: AJUNOK_clean_linker_0, # of connection points: 2
#     Edge 77, Type (0, 1), BuildingBlock: AJUNOK_clean_linker_0, # of connection points: 2
#     Edge 78, Type (0, 1), BuildingBlock: AJUNOK_clean_linker_0, # of connection points: 2
#     Edge 79, Type (0, 1), BuildingBlock: AJUNOK_clean_linker_0, # of connection points: 2
#     Edge 80, Type (0, 1), BuildingBlock: AJUNOK_clean_linker_0, # of connection points: 2
#     Edge 81, Type (0, 1), BuildingBlock: AJUNOK_clean_linker_0, # of connection points: 2
#     Edge 82, Type (0, 1), BuildingBlock: AJUNOK_clean_linker_0, # of connection points: 2
#     Edge 83, Type (0, 1), BuildingBlock: AJUNOK_clean_linker_0, # of connection points: 2
#     Edge 84, Type (0, 1), BuildingBlock: AJUNOK_clean_linker_0, # of connection points: 2
#     Edge 85, Type (0, 1), BuildingBlock: AJUNOK_clean_linker_0, # of connection points: 2
#     Edge 86, Type (0, 1), BuildingBlock: AJUNOK_clean_linker_0, # of connection points: 2
#     Edge 87, Type (0, 1), BuildingBlock: AJUNOK_clean_linker_0, # of connection points: 2
#     Edge 88, Type (0, 1), BuildingBlock: AJUNOK_clean_linker_0, # of connection points: 2
#     Edge 89, Type (0, 1), BuildingBlock: AJUNOK_clean_linker_0, # of connection points: 2
#     Edge 90, Type (0, 1), BuildingBlock: AJUNOK_clean_linker_0, # of connection points: 2
#     Edge 91, Type (0, 1), BuildingBlock: AJUNOK_clean_linker_0, # of connection points: 2
#     Edge 92, Type (0, 1), BuildingBlock: AJUNOK_clean_linker_0, # of connection points: 2
#     Edge 93, Type (0, 1), BuildingBlock: AJUNOK_clean_linker_0, # of connection points: 2
#     Edge 94, Type (0, 1), BuildingBlock: AJUNOK_clean_linker_0, # of connection points: 2
#     Edge 95, Type (0, 1), BuildingBlock: AJUNOK_clean_linker_0, # of connection points: 2
#     Edge 96, Type (0, 1), BuildingBlock: AJUNOK_clean_linker_0, # of connection points: 2
#     Edge 97, Type (0, 1), BuildingBlock: AJUNOK_clean_linker_0, # of connection points: 2
#     Edge 98, Type (0, 1), BuildingBlock: AJUNOK_clean_linker_0, # of connection points: 2
#     Edge 99, Type (0, 1), BuildingBlock: AJUNOK_clean_linker_0, # of connection points: 2
#     Edge 100, Type (0, 1), BuildingBlock: AJUNOK_clean_linker_0, # of connection points: 2
#     Edge 101, Type (0, 1), BuildingBlock: AJUNOK_clean_linker_0, # of connection points: 2
#     Edge 102, Type (0, 1), BuildingBlock: AJUNOK_clean_linker_0, # of connection points: 2
#     Edge 103, Type (0, 1), BuildingBlock: AJUNOK_clean_linker_0, # of connection points: 2
#     Edge 104, Type (0, 1), BuildingBlock: AJUNOK_clean_linker_0, # of connection points: 2
#     Edge 105, Type (0, 1), BuildingBlock: AJUNOK_clean_linker_0, # of connection points: 2
#     Edge 106, Type (0, 1), BuildingBlock: AJUNOK_clean_linker_0, # of connection points: 2
#     Edge 107, Type (0, 1), BuildingBlock: AJUNOK_clean_linker_0, # of connection points: 2
#     Edge 108, Type (0, 1), BuildingBlock: AJUNOK_clean_linker_0, # of connection points: 2
#     Edge 109, Type (0, 1), BuildingBlock: AJUNOK_clean_linker_0, # of connection points: 2
#     Edge 110, Type (0, 1), BuildingBlock: AJUNOK_clean_linker_0, # of connection points: 2
#     Edge 111, Type (0, 1), BuildingBlock: AJUNOK_clean_linker_0, # of connection points: 2
#     Edge 112, Type (0, 1), BuildingBlock: AJUNOK_clean_linker_0, # of connection points: 2
#     Edge 113, Type (0, 1), BuildingBlock: AJUNOK_clean_linker_0, # of connection points: 2
#     Edge 114, Type (0, 1), BuildingBlock: AJUNOK_clean_linker_0, # of connection points: 2
#     Edge 115, Type (0, 1), BuildingBlock: AJUNOK_clean_linker_0, # of connection points: 2
#     Edge 116, Type (0, 1), BuildingBlock: AJUNOK_clean_linker_0, # of connection points: 2
#     Edge 117, Type (0, 1), BuildingBlock: AJUNOK_clean_linker_0, # of connection points: 2
#     Edge 118, Type (0, 1), BuildingBlock: AJUNOK_clean_linker_0, # of connection points: 2
#     Edge 119, Type (0, 1), BuildingBlock: AJUNOK_clean_linker_0, # of connection points: 2
#     Edge 120, Type (0, 1), BuildingBlock: AJUNOK_clean_linker_0, # of connection points: 2
#     Edge 121, Type (0, 1), BuildingBlock: AJUNOK_clean_linker_0, # of connection points: 2
#     Edge 122, Type (0, 1), BuildingBlock: AJUNOK_clean_linker_0, # of connection points: 2
#     Edge 123, Type (0, 1), BuildingBlock: AJUNOK_clean_linker_0, # of connection points: 2
#     Edge 124, Type (0, 1), BuildingBlock: AJUNOK_clean_linker_0, # of connection points: 2
#     Edge 125, Type (0, 1), BuildingBlock: AJUNOK_clean_linker_0, # of connection points: 2
#     Edge 126, Type (0, 1), BuildingBlock: AJUNOK_clean_linker_0, # of connection points: 2
#     Edge 127, Type (0, 1), BuildingBlock: AJUNOK_clean_linker_0, # of connection points: 2
#     Edge 128, Type (0, 1), BuildingBlock: AJUNOK_clean_linker_0, # of connection points: 2
#     Edge 129, Type (0, 1), BuildingBlock: AJUNOK_clean_linker_0, # of connection points: 2
#     Edge 130, Type (0, 1), BuildingBlock: AJUNOK_clean_linker_0, # of connection points: 2
#     Edge 131, Type (0, 1), BuildingBlock: AJUNOK_clean_linker_0, # of connection points: 2
#     Edge 132, Type (0, 1), BuildingBlock: AJUNOK_clean_linker_0, # of connection points: 2
#     Edge 133, Type (0, 1), BuildingBlock: AJUNOK_clean_linker_0, # of connection points: 2
#     Edge 134, Type (0, 1), BuildingBlock: AJUNOK_clean_linker_0, # of connection points: 2
#     Edge 135, Type (0, 1), BuildingBlock: AJUNOK_clean_linker_0, # of connection points: 2
# Relax obj value: 0.277
# Max RMSD: 0.280
# Mean RMSD: 0.234
data_MOF--net-ibd--node1-GALJAG_clean_sbu_0--node2-OJICUG_clean_sbu_0--edge1-AJUNOK_clean_linker_0
_symmetry_space_group_name_H-M    P1
_symmetry_Int_Tables_number       1
_symmetry_cell_setting            triclinic
loop_
_symmetry_equiv_pos_as_xyz
'x, y, z'
_cell_length_a     37.598671
_cell_length_b     37.543045
_cell_length_c     37.513944
_cell_angle_alpha  90.160807
_cell_angle_beta   89.962926
_cell_angle_gamma 90.067252
loop_
_atom_site_label
_atom_site_type_symbol
_atom_site_fract_x
_atom_site_fract_y
_atom_site_fract_z
_atom_type_partial_charge
In0 In 0.97559 0.25719 0.36654 0.0
O1 O 0.01016 0.26752 0.31793 0.0
O2 O 0.00769 0.21464 0.33776 0.0
C3 C 0.00597 0.30386 0.411 0.0
C4 C 0.92227 0.28572 0.3291 0.0
C5 C 0.95576 0.20724 0.41388 0.0
O6 O 0.02332 0.28722 0.38749 0.0
O7 O 0.97296 0.29787 0.41098 0.0
O8 O 0.93427 0.22082 0.39197 0.0
O9 O 0.9874 0.21781 0.41074 0.0
C10 C 0.02019 0.23569 0.31476 0.0
O11 O 0.92885 0.25274 0.32878 0.0
O12 O 0.94186 0.30387 0.34952 0.0
In13 In 0.0038 0.76291 0.61545 0.0
O14 O 0.97268 0.81022 0.63632 0.0
O15 O 0.96037 0.75874 0.65657 0.0
C16 C 0.02896 0.80896 0.56726 0.0
C17 C 0.05155 0.74125 0.66394 0.0
C18 C 0.97576 0.70986 0.57609 0.0
O19 O 0.04887 0.79295 0.58898 0.0
O20 O -0.00367 0.80182 0.57019 0.0
O21 O 0.00804 0.71881 0.57386 0.0
O22 O 0.95788 0.7276 0.59828 0.0
C23 C 0.95404 0.79173 0.65727 0.0
O24 O 0.04008 0.72122 0.63948 0.0
O25 O 0.03971 0.77259 0.66315 0.0
In26 In 0.48993 0.74435 0.86242 0.0
O27 O 0.53762 0.74311 0.82528 0.0
O28 O 0.52259 0.69504 0.85099 0.0
C29 C 0.5136 0.78991 0.91305 0.0
C30 C 0.44941 0.7683 0.80826 0.0
C31 C 0.45278 0.69672 0.89991 0.0
O32 O 0.53303 0.77882 0.88802 0.0
O33 O 0.48196 0.77905 0.91169 0.0
O34 O 0.43793 0.72209 0.88367 0.0
O35 O 0.48622 0.69595 0.89745 0.0
C36 C 0.5434 0.71024 0.82955 0.0
O37 O 0.46382 0.78914 0.83042 0.0
O38 O 0.45579 0.73585 0.81345 0.0
In39 In 0.47966 0.22374 0.12315 0.0
O40 O 0.5017 0.17375 0.14869 0.0
O41 O 0.52805 0.22299 0.15862 0.0
C42 C 0.45557 0.18056 0.07147 0.0
C43 C 0.43508 0.25286 0.17135 0.0
C44 C 0.50943 0.27659 0.08583 0.0
O45 O 0.48792 0.18842 0.07504 0.0
O46 O 0.43521 0.19406 0.0946 0.0
O47 O 0.52718 0.25685 0.10636 0.0
O48 O 0.47664 0.2695 0.08426 0.0
C49 C 0.52677 0.1899 0.16425 0.0
O50 O 0.44638 0.26941 0.14455 0.0
O51 O 0.44498 0.22087 0.17303 0.0
In52 In 0.95964 0.73307 0.11478 0.0
O53 O 0.9119 0.7582 0.08741 0.0
O54 O 0.96339 0.77793 0.07491 0.0
C55 C 0.91407 0.71028 0.16474 0.0
C56 C 0.98964 0.68434 0.07123 0.0
C57 C 0.00933 0.76267 0.15673 0.0
O58 O 0.92258 0.74254 0.16132 0.0
O59 O 0.92759 0.68955 0.14194 0.0
O60 O -0.0078 0.7803 0.13387 0.0
O61 O 0.00152 0.72999 0.15808 0.0
C62 C 0.93035 0.77997 0.06969 0.0
O63 O 0.0068 0.70115 0.09466 0.0
O64 O 0.95691 0.69146 0.07033 0.0
In65 In 0.48396 0.73969 0.36434 0.0
O66 O 0.50675 0.69091 0.3925 0.0
O67 O 0.50302 0.73959 0.42131 0.0
C68 C 0.4475 0.70714 0.31254 0.0
C69 C 0.43233 0.77781 0.39549 0.0
C70 C 0.53938 0.76736 0.32822 0.0
O71 O 0.45832 0.69073 0.33975 0.0
O72 O 0.45467 0.73997 0.312 0.0
O73 O 0.51558 0.78639 0.34232 0.0
O74 O 0.53587 0.73444 0.33355 0.0
C75 C 0.51107 0.70708 0.42165 0.0
O76 O 0.4617 0.79129 0.38624 0.0
O77 O 0.42871 0.74524 0.38782 0.0
In78 In 0.52031 0.25299 0.62433 0.0
O79 O 0.56818 0.22689 0.59748 0.0
O80 O 0.51606 0.2118 0.58113 0.0
C81 C 0.56055 0.28277 0.67577 0.0
C82 C 0.49433 0.302 0.57939 0.0
C83 C 0.47142 0.21647 0.66181 0.0
O84 O 0.55735 0.24954 0.6723 0.0
O85 O 0.54456 0.3007 0.65251 0.0
O86 O 0.49737 0.20176 0.64646 0.0
O87 O 0.46995 0.24983 0.65801 0.0
C88 C 0.54911 0.20769 0.57737 0.0
O89 O 0.4753 0.28678 0.60255 0.0
O90 O 0.52653 0.29258 0.57915 0.0
In91 In 0.00344 0.2117 0.87154 0.0
O92 O 0.008 0.16246 0.906 0.0
O93 O 0.0557 0.18701 0.88786 0.0
C94 C 0.94549 0.19342 0.8328 0.0
C95 C 0.98632 0.25549 0.92576 0.0
C96 C 0.04968 0.2396 0.8253 0.0
O97 O 0.96634 0.1707 0.84587 0.0
O98 O 0.95325 0.22517 0.8402 0.0
O99 O 0.04019 0.25554 0.85333 0.0
O100 O 0.03644 0.20896 0.82103 0.0
C101 C 0.04163 0.16306 0.90676 0.0
O102 O 0.98682 0.26583 0.89387 0.0
O103 O -0.00744 0.22288 0.92998 0.0
In104 In 0.37137 -0.00674 0.25037 0.0
O105 O 0.34577 0.95347 0.28771 0.0
O106 O 0.32529 0.95797 0.23497 0.0
C107 C 0.41683 0.96629 0.2019 0.0
C108 C 0.32996 0.04759 0.22962 0.0
C109 C 0.4127 0.01363 0.30545 0.0
O110 O 0.39227 0.94835 0.21586 0.0
O111 O 0.41783 -0.00149 0.21156 0.0
O112 O 0.39215 0.03464 0.28946 0.0
O113 O 0.41191 0.98204 0.29403 0.0
C114 C 0.32354 0.94273 0.26484 0.0
O115 O 0.32634 0.03219 0.25924 0.0
O116 O 0.35481 0.03559 0.21034 0.0
In117 In 0.24743 0.11658 0.47501 0.0
O118 O 0.19795 0.14611 0.49349 0.0
O119 O 0.24444 0.15007 0.52544 0.0
C120 C 0.20407 0.07528 0.43587 0.0
C121 C 0.28789 0.16529 0.442 0.0
C122 C 0.28411 0.06324 0.50458 0.0
O123 O 0.20027 0.07977 0.46898 0.0
O124 O 0.22911 0.09297 0.42208 0.0
O125 O 0.26509 0.08427 0.52264 0.0
O126 O 0.28546 0.06989 0.4717 0.0
C127 C 0.21243 0.15899 0.521 0.0
O128 O 0.30056 0.14299 0.46354 0.0
O129 O 0.25497 0.16219 0.43633 0.0
In130 In 0.10758 -0.00527 0.74769 0.0
O131 O 0.08128 0.95128 0.78014 0.0
O132 O 0.06699 0.00475 0.7916 0.0
C133 C 0.15065 0.9549 0.70718 0.0
C134 C 0.06461 0.02474 0.69959 0.0
C135 C 0.15969 0.02849 0.78179 0.0
O136 O 0.12825 0.94092 0.72799 0.0
O137 O 0.14967 0.98842 0.70565 0.0
O138 O 0.13561 0.04525 0.76564 0.0
O139 O 0.15577 -0.00482 0.78304 0.0
C140 C 0.06229 0.97222 0.79828 0.0
O141 O 0.08595 0.0425 0.71845 0.0
O142 O 0.06541 -0.00847 0.70466 0.0
In143 In 0.24626 0.87244 0.00677 0.0
O144 O 0.19968 0.90861 0.01915 0.0
O145 O 0.24213 0.90697 0.05636 0.0
C146 C 0.2118 0.82546 0.96563 0.0
C147 C 0.28375 0.91491 0.96286 0.0
C148 C 0.27621 0.82351 0.04875 0.0
O149 O 0.19567 0.84602 0.9869 0.0
O150 O 0.24514 0.82932 0.9648 0.0
O151 O 0.29434 0.84371 0.02891 0.0
O152 O 0.24309 0.82863 0.04788 0.0
C153 C 0.21238 0.9199 0.04814 0.0
O154 O 0.29545 0.90515 -0.00723 0.0
O155 O 0.25329 0.90321 0.95526 0.0
In156 In 0.25364 0.36694 0.95538 0.0
O157 O 0.25483 0.32592 0.91073 0.0
O158 O 0.30408 0.34376 0.93167 0.0
C159 C 0.20621 0.41406 0.93036 0.0
C160 C 0.22196 0.32058 -0.0005 0.0
C161 C 0.29785 0.41127 0.98949 0.0
O162 O 0.22763 0.39774 0.91019 0.0
O163 O 0.20885 0.40641 0.96293 0.0
O164 O 0.28007 0.3876 0.00529 0.0
O165 O 0.29338 0.41247 0.95616 0.0
C166 C 0.28825 0.32346 0.91014 0.0
O167 O 0.25437 0.3288 0.00209 0.0
O168 O 0.20573 0.33529 0.97411 0.0
In169 In 0.7358 0.12159 0.00772 0.0
O170 O 0.71234 0.09468 0.05635 0.0
O171 O 0.68569 0.08826 0.00679 0.0
C172 C 0.7846 0.16491 0.03587 0.0
C173 C 0.77355 0.07166 0.97374 0.0
C174 C 0.69911 0.17475 0.97902 0.0
O175 O 0.7637 0.14713 0.05533 0.0
O176 O 0.78217 0.1589 0.00289 0.0
O177 O 0.71165 0.14988 0.96012 0.0
O178 O 0.70305 0.17132 0.01221 0.0
C179 C 0.68704 0.08042 0.0394 0.0
O180 O 0.75488 0.09426 0.95745 0.0
O181 O 0.77395 0.07504 0.00719 0.0
In182 In 0.12842 0.49737 0.26709 0.0
O183 O 0.16017 0.47668 0.31381 0.0
O184 O 0.16434 0.44904 0.26439 0.0
C185 C 0.08573 0.53738 0.30858 0.0
C186 C 0.1762 0.53597 0.23074 0.0
C187 C 0.08001 0.46094 0.22888 0.0
O188 O 0.09326 0.50549 0.31544 0.0
O189 O 0.10061 0.54952 0.28108 0.0
O190 O 0.09273 0.49032 0.21881 0.0
O191 O 0.09189 0.44988 0.25822 0.0
C192 C 0.17389 0.45127 0.29655 0.0
O193 O 0.15096 0.51959 0.21586 0.0
O194 O 0.17706 0.53339 0.26428 0.0
In195 In 0.73808 0.86283 0.51784 0.0
O196 O 0.76066 0.84015 0.4658 0.0
O197 O 0.75187 0.80495 0.509 0.0
C198 C 0.69513 0.91186 0.48932 0.0
C199 C 0.69865 0.82858 0.56616 0.0
C200 C 0.79469 0.90098 0.53907 0.0
O201 O 0.70079 0.88216 0.47458 0.0
O202 O 0.70992 0.91598 0.51922 0.0
O203 O 0.77265 0.88778 0.56065 0.0
O204 O 0.78887 0.89374 0.50681 0.0
C205 C 0.76212 0.80873 0.47735 0.0
O206 O 0.73161 0.83385 0.57012 0.0
O207 O 0.68535 0.84217 0.53842 0.0
In208 In 0.87251 0.00116 0.22159 0.0
O209 O 0.91382 0.00872 0.26487 0.0
O210 O 0.89509 0.95622 0.25425 0.0
C211 C 0.82337 0.045 0.24932 0.0
C212 C 0.9211 0.02864 0.17729 0.0
C213 C 0.83179 0.94976 0.1936 0.0
O214 O 0.84862 0.03239 0.26732 0.0
O215 O 0.82373 0.03658 0.21679 0.0
O216 O 0.84795 0.97214 0.17441 0.0
O217 O 0.8369 0.95318 0.22662 0.0
C218 C 0.91566 0.97597 0.27208 0.0
O219 O 0.89645 0.04713 0.19064 0.0
O220 O 0.91998 -0.00401 0.1849 0.0
In221 In 0.20891 0.60387 0.485 0.0
O222 O 0.23193 0.57325 0.43786 0.0
O223 O 0.25875 0.56984 0.48749 0.0
C224 C 0.18652 0.65248 0.43763 0.0
C225 C 0.16272 0.56024 0.51809 0.0
C226 C 0.23607 0.64798 0.53395 0.0
O227 O 0.21884 0.64738 0.44473 0.0
O228 O 0.1652 0.63228 0.45398 0.0
O229 O 0.25439 0.6243 0.51863 0.0
O230 O 0.20391 0.64934 0.52442 0.0
C231 C 0.25809 0.56117 0.45502 0.0
O232 O 0.18133 0.58293 0.53422 0.0
O233 O 0.16701 0.55975 0.48475 0.0
In234 In 0.35472 0.48794 0.756 0.0
O235 O 0.39375 0.49259 0.80133 0.0
O236 O 0.378 0.44053 0.78517 0.0
C237 C 0.31432 0.53851 0.7864 0.0
C238 C 0.40533 0.51192 0.71158 0.0
C239 C 0.30779 0.44371 0.72449 0.0
O240 O 0.32992 0.51471 0.80402 0.0
O241 O 0.31869 0.53651 0.75311 0.0
O242 O 0.32875 0.46324 0.70707 0.0
O243 O 0.3105 0.4466 0.75784 0.0
C244 C 0.3966 0.45946 0.80589 0.0
O245 O 0.38184 0.53198 0.72478 0.0
O246 O 0.40275 0.47964 0.72032 0.0
In247 In 0.60497 0.96331 0.70714 0.0
O248 O 0.62376 0.92831 0.7524 0.0
O249 O 0.65392 0.92816 0.70457 0.0
C250 C 0.5632 -0.00645 0.75675 0.0
C251 C 0.65015 0.0131 0.68357 0.0
C252 C 0.56069 0.93652 0.6576 0.0
O253 O 0.5624 0.96052 0.75043 0.0
O254 O 0.58423 0.01104 0.7374 0.0
O255 O 0.56227 0.96924 0.66498 0.0
O256 O 0.58196 0.91729 0.67497 0.0
C257 C 0.65106 0.91737 0.73624 0.0
O258 O 0.63189 -0.00579 0.66249 0.0
O259 O 0.64535 0.00668 0.71617 0.0
In260 In 0.75607 0.62055 -0.00119 0.0
O261 O 0.7172 0.63665 0.04232 0.0
O262 O 0.76101 0.67078 0.03276 0.0
C263 C 0.70012 0.58106 0.97942 0.0
C264 C 0.77767 0.66077 0.9439 0.0
C265 C 0.80803 0.5744 0.0153 0.0
O266 O 0.7141 0.6037 0.95894 0.0
O267 O 0.71499 0.57793 0.00941 0.0
O268 O 0.80042 0.60055 0.03512 0.0
O269 O 0.78922 0.57164 0.98765 0.0
C270 C 0.73259 0.66545 0.0498 0.0
O271 O 0.79881 0.64195 0.96184 0.0
O272 O 0.74566 0.65928 0.95387 0.0
In273 In 0.85935 0.4893 0.74677 0.0
O274 O 0.8124 0.45196 0.75405 0.0
O275 O 0.83462 0.4755 0.80043 0.0
C276 C 0.90058 0.44756 0.70546 0.0
C277 C 0.81701 0.53363 0.71019 0.0
C278 C 0.90905 0.52536 0.78341 0.0
O279 O 0.88265 0.43538 0.73113 0.0
O280 O 0.89706 0.48057 0.70043 0.0
O281 O 0.88722 0.54042 0.76298 0.0
O282 O 0.90578 0.49199 0.78541 0.0
C283 C 0.81099 0.45551 0.78745 0.0
O284 O 0.8236 0.53744 0.7429 0.0
O285 O 0.83196 0.5072 0.6957 0.0
In286 In 0.73552 0.36599 0.48542 0.0
O287 O 0.70038 0.41488 0.47924 0.0
O288 O 0.70109 0.3892 0.52949 0.0
C289 C 0.71002 0.32379 0.43347 0.0
C290 C 0.79032 0.40579 0.46272 0.0
C291 C 0.75661 0.31816 0.5342 0.0
O292 O 0.69046 0.34484 0.45095 0.0
O293 O 0.74245 0.32464 0.44193 0.0
O294 O 0.77686 0.34205 0.52218 0.0
O295 O 0.72542 0.31874 0.52191 0.0
C296 C 0.68932 0.4145 0.51095 0.0
O297 O 0.78208 0.40314 0.49519 0.0
O298 O 0.77075 0.38828 0.44169 0.0
In299 In 0.63186 0.49649 0.22485 0.0
O300 O 0.60318 0.45055 0.25171 0.0
O301 O 0.5862 0.50341 0.26349 0.0
C302 C 0.67804 0.46164 0.18284 0.0
C303 C 0.58711 0.5236 0.17659 0.0
C304 C 0.67534 0.52896 0.27172 0.0
O305 O 0.66024 0.44611 0.20676 0.0
O306 O 0.67272 0.49468 0.1805 0.0
O307 O 0.66216 0.54515 0.24538 0.0
O308 O 0.66683 0.4966 0.27398 0.0
C309 C 0.58196 0.47048 0.26867 0.0
O310 O 0.60628 0.54316 0.19625 0.0
O311 O 0.59096 0.49056 0.18125 0.0
Sc312 Sc 0.09359 0.16661 0.11463 0.0
Sc313 Sc 0.13197 0.10223 0.16848 0.0
Sc314 Sc 0.17473 0.1298 0.09132 0.0
O315 O 0.13372 0.13328 0.12516 0.0
C316 C 0.10872 0.13681 0.03885 0.0
C317 C 0.05288 0.09855 0.14397 0.0
C318 C 0.16329 0.05017 0.10961 0.0
C319 C 0.09862 0.17611 0.19632 0.0
C320 C 0.16186 0.21038 0.08792 0.0
C321 C 0.21216 0.12048 0.1678 0.0
O322 O 0.08626 0.14277 0.06342 0.0
O323 O 0.08079 0.08198 0.15336 0.0
O324 O 0.1665 0.07397 0.08592 0.0
O325 O 0.09808 0.19129 0.16605 0.0
O326 O 0.18421 0.18586 0.09431 0.0
O327 O 0.18335 0.12021 0.18558 0.0
O328 O 0.1285 0.20613 0.09176 0.0
O329 O 0.10744 0.14358 0.20013 0.0
O330 O 0.21255 0.12104 0.13385 0.0
O331 O 0.05342 0.13099 0.13451 0.0
O332 O 0.1421 0.13677 0.04435 0.0
O333 O 0.15591 0.05692 0.142 0.0
Sc334 Sc 0.15411 0.8664 0.38602 0.0
Sc335 Sc 0.07302 0.83418 0.35543 0.0
Sc336 Sc 0.11771 0.9005 0.30819 0.0
O337 O 0.11494 0.86687 0.34977 0.0
C338 C 0.14785 0.94776 0.37228 0.0
C339 C 0.08556 0.85594 0.43474 0.0
C340 C 0.03762 0.9069 0.32938 0.0
C341 C 0.13877 0.78502 0.37802 0.0
C342 C 0.19646 0.87733 0.31285 0.0
C343 C 0.08282 0.83098 0.27288 0.0
O344 O 0.14867 0.9224 0.3946 0.0
O345 O 0.06418 0.85131 0.40903 0.0
O346 O 0.06661 0.92196 0.32071 0.0
O347 O 0.16128 0.81026 0.37952 0.0
O348 O 0.16909 0.88103 0.29339 0.0
O349 O 0.07817 0.81467 0.30212 0.0
O350 O 0.19463 0.87537 0.34661 0.0
O351 O 0.10567 0.79022 0.37303 0.0
O352 O 0.09407 0.8629 0.27143 0.0
O353 O 0.11901 0.85784 0.43045 0.0
O354 O 0.14143 0.94306 0.3393 0.0
O355 O 0.03577 0.87437 0.33867 0.0
Sc356 Sc 0.3796 0.8106 0.59891 0.0
Sc357 Sc 0.30047 0.85064 0.57228 0.0
Sc358 Sc 0.35266 0.88996 0.63867 0.0
O359 O 0.34405 0.85028 0.60363 0.0
C360 C 0.37898 0.82079 0.68158 0.0
C361 C 0.30468 0.7704 0.59112 0.0
C362 C 0.27046 0.88168 0.64579 0.0
C363 C 0.3603 0.82382 0.51915 0.0
C364 C 0.4301 0.87783 0.61026 0.0
C365 C 0.32305 0.93076 0.57027 0.0
O366 O 0.37829 0.79993 0.65485 0.0
O367 O 0.28596 0.79842 0.58907 0.0
O368 O 0.30047 0.88524 0.6609 0.0
O369 O 0.38385 0.81984 0.54297 0.0
O370 O 0.40514 0.8989 0.61876 0.0
O371 O 0.31273 0.90304 0.55374 0.0
O372 O 0.42535 0.84459 0.60596 0.0
O373 O 0.32776 0.82964 0.52602 0.0
O374 O 0.33433 0.93026 0.60223 0.0
O375 O 0.33854 0.77105 0.59113 0.0
O376 O 0.37269 0.85406 0.6791 0.0
O377 O 0.26685 0.87216 0.61351 0.0
Sc378 Sc 0.37223 0.07167 0.81432 0.0
Sc379 Sc 0.41774 0.14071 0.85668 0.0
Sc380 Sc 0.33651 0.11303 0.88842 0.0
O381 O 0.37579 0.1082 0.85303 0.0
C382 C 0.29351 0.0914 0.8189 0.0
C383 C 0.40443 0.13967 0.77451 0.0
C384 C 0.35149 0.19154 0.87067 0.0
C385 C 0.45291 0.0668 0.83197 0.0
C386 C 0.34404 0.03161 0.88447 0.0
C387 C 0.40431 0.1289 0.93645 0.0
O388 O 0.32065 0.08957 0.79897 0.0
O389 O 0.41072 0.15695 0.80292 0.0
O390 O 0.32864 0.16662 0.87192 0.0
O391 O 0.42348 0.05109 0.82674 0.0
O392 O 0.34419 0.05913 0.90431 0.0
O393 O 0.42667 0.12633 0.91119 0.0
O394 O 0.34923 0.03272 0.8508 0.0
O395 O 0.45493 0.0997 0.8402 0.0
O396 O 0.37109 0.13011 0.93075 0.0
O397 O 0.39466 0.10711 0.77421 0.0
O398 O 0.29564 0.09607 0.85228 0.0
O399 O 0.38492 0.18588 0.8721 0.0
Sc400 Sc 0.64207 0.38555 0.932 0.0
Sc401 Sc 0.57251 0.34016 0.89133 0.0
Sc402 Sc 0.60251 0.41959 0.85608 0.0
O403 O 0.60589 0.38163 0.89315 0.0
C404 C 0.62046 0.46464 0.9261 0.0
C405 C 0.57356 0.35504 0.97247 0.0
C406 C 0.52286 0.40498 0.86915 0.0
C407 C 0.64443 0.30455 0.91922 0.0
C408 C 0.68433 0.41195 0.86277 0.0
C409 C 0.59021 0.3482 0.81131 0.0
O410 O 0.62399 0.43754 0.94586 0.0
O411 O 0.55501 0.35081 0.94445 0.0
O412 O 0.54771 0.42787 0.86835 0.0
O413 O 0.66186 0.33344 0.9213 0.0
O414 O 0.65713 0.4127 0.84274 0.0
O415 O 0.58911 0.32778 0.83822 0.0
O416 O 0.68246 0.4069 0.89634 0.0
O417 O 0.61156 0.30329 0.91143 0.0
O418 O 0.58947 0.38199 0.81424 0.0
O419 O 0.60621 0.3641 0.97165 0.0
O420 O 0.61622 0.46202 0.89257 0.0
O421 O 0.52867 0.3717 0.87169 0.0
Sc422 Sc 0.91747 0.33092 0.12454 0.0
Sc423 Sc 0.88305 0.4134 0.14584 0.0
Sc424 Sc 0.86015 0.3737 0.06577 0.0
O425 O 0.88712 0.37269 0.11168 0.0
C426 C 0.93461 0.33756 0.04403 0.0
C427 C 0.9624 0.39781 0.153 0.0
C428 C 0.8796 0.45305 0.07044 0.0
C429 C 0.8845 0.34683 0.19796 0.0
C430 C 0.85192 0.29369 0.08546 0.0
C431 C 0.80481 0.40444 0.12248 0.0
O432 O 0.94661 0.33476 0.07561 0.0
O433 O 0.93927 0.42102 0.14484 0.0
O434 O 0.88131 0.42469 0.05209 0.0
O435 O 0.88888 0.32419 0.1732 0.0
O436 O 0.83739 0.32253 0.07556 0.0
O437 O 0.82701 0.40611 0.14789 0.0
O438 O 0.88221 0.29243 0.1004 0.0
O439 O 0.88753 0.38012 0.1926 0.0
O440 O 0.81357 0.39817 0.09021 0.0
O441 O 0.95663 0.36439 0.15105 0.0
O442 O 0.90341 0.3489 0.03716 0.0
O443 O 0.87684 0.45264 0.10422 0.0
Sc444 Sc 0.87554 0.57752 0.343 0.0
Sc445 Sc 0.90117 0.65775 0.37976 0.0
Sc446 Sc 0.83758 0.60514 0.42235 0.0
O447 O 0.87123 0.61366 0.38189 0.0
C448 C 0.79406 0.58063 0.35287 0.0
C449 C 0.88171 0.65031 0.30044 0.0
C450 C 0.82772 0.68683 0.41152 0.0
C451 C 0.95429 0.59647 0.35561 0.0
C452 C 0.8623 0.52776 0.41045 0.0
C453 C 0.90619 0.63885 0.46056 0.0
O454 O 0.82038 0.58263 0.33173 0.0
O455 O 0.88176 0.67019 0.3278 0.0
O456 O 0.81385 0.65635 0.41615 0.0
O457 O 0.93081 0.57215 0.35431 0.0
O458 O 0.85906 0.55342 0.4322 0.0
O459 O 0.92155 0.64775 0.43175 0.0
O460 O 0.8646 0.53262 0.37704 0.0
O461 O 0.94675 0.62947 0.35807 0.0
O462 O 0.87466 0.62629 0.46153 0.0
O463 O 0.88588 0.61679 0.30242 0.0
O464 O 0.79692 0.58336 0.38673 0.0
O465 O 0.85978 0.69116 0.40154 0.0
Sc466 Sc 0.89323 0.83721 0.86321 0.0
Sc467 Sc 0.80991 0.86377 0.89257 0.0
Sc468 Sc 0.85439 0.91301 0.82727 0.0
O469 O 0.85249 0.87153 0.8611 0.0
C470 C 0.93357 0.9113 0.85084 0.0
C471 C 0.87559 0.84534 0.9436 0.0
C472 C 0.81966 0.94671 0.8972 0.0
C473 C 0.82684 0.78514 0.87405 0.0
C474 C 0.88634 0.8488 0.78144 0.0
C475 C 0.77504 0.88775 0.81908 0.0
O476 O 0.9328 0.8776 0.85385 0.0
O477 O 0.84234 0.84749 0.93741 0.0
O478 O 0.83116 0.94928 0.8654 0.0
O479 O 0.86002 0.79144 0.87325 0.0
O480 O 0.87808 0.88144 0.78536 0.0
O481 O 0.77252 0.87808 0.85145 0.0
O482 O 0.88885 0.82723 0.80737 0.0
O483 O 0.80397 0.80989 0.87529 0.0
O484 O 0.80372 0.89928 0.80553 0.0
O485 O 0.89894 0.84599 0.91911 0.0
O486 O 0.90566 0.92958 0.84591 0.0
O487 O 0.81288 0.91713 0.91204 0.0
Sc488 Sc 0.82713 0.11276 0.57695 0.0
Sc489 Sc 0.89325 0.15925 0.62434 0.0
Sc490 Sc 0.85612 0.08091 0.65875 0.0
O491 O 0.85886 0.11798 0.62008 0.0
C492 C 0.77599 0.08813 0.64067 0.0
C493 C 0.8215 0.19502 0.59585 0.0
C494 C 0.87391 0.14954 0.70597 0.0
C495 C 0.89664 0.14511 0.54087 0.0
C496 C 0.84735 0.03324 0.58866 0.0
C497 C 0.93872 0.09127 0.64733 0.0
O498 O 0.78289 0.09386 0.60804 0.0
O499 O 0.8523 0.19699 0.61002 0.0
O500 O 0.86483 0.1173 0.70195 0.0
O501 O 0.8663 0.13046 0.53942 0.0
O502 O 0.8479 0.03779 0.62214 0.0
O503 O 0.93641 0.1239 0.63827 0.0
O504 O 0.84428 0.05905 0.56706 0.0
O505 O 0.91046 0.15547 0.56991 0.0
O506 O 0.91186 0.0719 0.65434 0.0
O507 O 0.80828 0.16616 0.58382 0.0
O508 O 0.79992 0.08784 0.6646 0.0
O509 O 0.88192 0.16931 0.67975 0.0
Sc510 Sc 0.61811 0.06678 0.33711 0.0
Sc511 Sc 0.66565 0.11686 0.39979 0.0
Sc512 Sc 0.58346 0.14614 0.36975 0.0
O513 O 0.62249 0.1098 0.36893 0.0
C514 C 0.58999 0.13038 0.28858 0.0
C515 C 0.69869 0.08671 0.32729 0.0
C516 C 0.65249 0.1953 0.37752 0.0
C517 C 0.65178 0.03467 0.40826 0.0
C518 C 0.53942 0.07357 0.36133 0.0
C519 C 0.60133 0.14083 0.45032 0.0
O520 O 0.59568 0.09735 0.29369 0.0
O521 O 0.70177 0.0985 0.35898 0.0
O522 O 0.619 0.1907 0.37736 0.0
O523 O 0.63955 0.03139 0.37682 0.0
O524 O 0.54157 0.10734 0.36233 0.0
O525 O 0.63441 0.1368 0.44413 0.0
O526 O 0.56657 0.05399 0.35732 0.0
O527 O 0.66031 0.0646 0.42161 0.0
O528 O 0.57784 0.1404 0.42597 0.0
O529 O 0.6693 0.0762 0.3144 0.0
O530 O 0.58836 0.15314 0.31364 0.0
O531 O 0.67417 0.16963 0.38032 0.0
Sc532 Sc 0.65079 0.86964 0.07914 0.0
Sc533 Sc 0.58264 0.82467 0.12432 0.0
Sc534 Sc 0.62408 0.89906 0.16266 0.0
O535 O 0.61891 0.86424 0.12201 0.0
C536 C 0.70316 0.88695 0.14397 0.0
C537 C 0.6539 0.78718 0.09629 0.0
C538 C 0.60358 0.82906 0.2058 0.0
C539 C 0.5798 0.84188 0.04169 0.0
C540 C 0.63515 0.94894 0.09469 0.0
C541 C 0.54119 0.89485 0.15025 0.0
O542 O 0.69594 0.88564 0.11089 0.0
O543 O 0.62232 0.78538 0.10885 0.0
O544 O 0.61287 0.86146 0.20429 0.0
O545 O 0.61107 0.85452 0.04068 0.0
O546 O 0.63587 0.94323 0.12804 0.0
O547 O 0.54135 0.86225 0.14017 0.0
O548 O 0.63522 0.92392 0.07187 0.0
O549 O 0.56538 0.83162 0.07041 0.0
O550 O 0.56919 0.91206 0.15841 0.0
O551 O 0.6678 0.81585 0.08489 0.0
O552 O 0.67932 0.88701 0.16796 0.0
O553 O 0.59431 0.81147 0.17851 0.0
Sc554 Sc 0.32896 0.61079 0.07387 0.0
Sc555 Sc 0.40983 0.64582 0.10009 0.0
Sc556 Sc 0.37913 0.56796 0.13964 0.0
O557 O 0.37252 0.60799 0.1048 0.0
C558 C 0.29671 0.58122 0.14684 0.0
C559 C 0.33839 0.69064 0.09049 0.0
C560 C 0.40274 0.63816 0.18256 0.0
C561 C 0.39153 0.63238 0.02111 0.0
C562 C 0.3495 0.5297 0.06961 0.0
C563 C 0.45842 0.57849 0.11716 0.0
O564 O 0.29352 0.59213 0.11499 0.0
O565 O 0.37195 0.68733 0.08858 0.0
O566 O 0.39703 0.60466 0.18069 0.0
O567 O 0.35853 0.63013 0.02831 0.0
O568 O 0.36169 0.52838 0.10128 0.0
O569 O 0.45395 0.6114 0.11141 0.0
O570 O 0.3382 0.55805 0.05513 0.0
O571 O 0.41551 0.63357 0.04489 0.0
O572 O 0.43259 0.55752 0.12284 0.0
O573 O 0.31773 0.66391 0.09106 0.0
O574 O 0.3266 0.57387 0.16059 0.0
O575 O 0.40495 0.65803 0.15525 0.0
Sc576 Sc 0.11633 0.59769 0.82637 0.0
Sc577 Sc 0.14177 0.61928 0.9122 0.0
Sc578 Sc 0.07237 0.66572 0.87124 0.0
O579 O 0.10995 0.62769 0.87011 0.0
C580 C 0.09632 0.6725 0.79195 0.0
C581 C 0.19461 0.61031 0.84553 0.0
C582 C 0.13957 0.70278 0.90801 0.0
C583 C 0.13286 0.54156 0.88828 0.0
C584 C 0.03388 0.59874 0.83464 0.0
C585 C 0.06729 0.63686 0.94954 0.0
O586 O 0.10261 0.63938 0.78986 0.0
O587 O 0.18752 0.60812 0.87868 0.0
O588 O 0.10754 0.7038 0.8969 0.0
O589 O 0.1321 0.55111 0.85585 0.0
O590 O 0.03375 0.63092 0.84573 0.0
O591 O 0.10017 0.62899 0.95096 0.0
O592 O 0.06226 0.58104 0.82954 0.0
O593 O 0.12901 0.56368 0.91367 0.0
O594 O 0.05233 0.64759 0.92126 0.0
O595 O 0.17051 0.61374 0.8221 0.0
O596 O 0.08882 0.68767 0.82122 0.0
O597 O 0.1567 0.67403 0.91263 0.0
Sc598 Sc 0.14523 0.35614 0.58534 0.0
Sc599 Sc 0.07149 0.31343 0.62024 0.0
Sc600 Sc 0.1043 0.38941 0.66156 0.0
O601 O 0.10728 0.35304 0.62264 0.0
C602 C 0.18683 0.38025 0.65573 0.0
C603 C 0.14232 0.27485 0.59313 0.0
C604 C 0.09137 0.31435 0.70029 0.0
C605 C 0.0751 0.33719 0.54171 0.0
C606 C 0.12133 0.43576 0.59256 0.0
C607 C 0.02368 0.37711 0.64918 0.0
O608 O 0.18589 0.37367 0.62243 0.0
O609 O 0.10867 0.27584 0.59672 0.0
O610 O 0.09307 0.34835 0.70066 0.0
O611 O 0.10886 0.33995 0.54352 0.0
O612 O 0.11523 0.43354 0.6259 0.0
O613 O 0.02806 0.3441 0.64307 0.0
O614 O 0.13063 0.40938 0.57357 0.0
O615 O 0.05571 0.33106 0.56875 0.0
O616 O 0.04941 0.39874 0.65144 0.0
O617 O 0.16149 0.30259 0.59491 0.0
O618 O 0.15906 0.38354 0.67459 0.0
O619 O 0.08714 0.29627 0.67189 0.0
Sc620 Sc 0.56922 0.64892 0.63062 0.0
Sc621 Sc 0.61449 0.57309 0.65798 0.0
Sc622 Sc 0.64341 0.62028 0.58351 0.0
O623 O 0.60877 0.61376 0.6238 0.0
C624 C 0.56921 0.64425 0.54878 0.0
C625 C 0.53187 0.57507 0.65177 0.0
C626 C 0.63207 0.53822 0.58137 0.0
C627 C 0.59498 0.63807 0.70905 0.0
C628 C 0.63409 0.69871 0.60857 0.0
C629 C 0.6939 0.59344 0.64585 0.0
O630 O 0.55121 0.64201 0.57728 0.0
O631 O 0.56033 0.55695 0.65193 0.0
O632 O 0.63346 0.56753 0.56456 0.0
O633 O 0.58582 0.65851 0.68384 0.0
O634 O 0.65517 0.6733 0.60114 0.0
O635 O 0.66872 0.58654 0.66719 0.0
O636 O 0.60123 0.69397 0.61497 0.0
O637 O 0.60159 0.6051 0.70454 0.0
O638 O 0.68897 0.60145 0.61334 0.0
O639 O 0.53175 0.60868 0.64749 0.0
O640 O 0.6028 0.64007 0.54775 0.0
O641 O 0.6286 0.53665 0.6152 0.0
Sc642 Sc 0.35314 0.37837 0.41803 0.0
Sc643 Sc 0.37859 0.40615 0.33418 0.0
Sc644 Sc 0.42621 0.3395 0.37688 0.0
O645 O 0.38636 0.37483 0.37653 0.0
C646 C 0.42744 0.36222 0.45648 0.0
C647 C 0.35653 0.45691 0.39983 0.0
C648 C 0.46088 0.40909 0.34106 0.0
C649 C 0.30097 0.3888 0.35175 0.0
C650 C 0.36078 0.29619 0.4091 0.0
C651 C 0.40214 0.33328 0.29753 0.0
O652 O 0.39392 0.36662 0.45679 0.0
O653 O 0.35886 0.44972 0.3667 0.0
O654 O 0.46232 0.37679 0.35152 0.0
O655 O 0.30761 0.39044 0.38498 0.0
O656 O 0.39371 0.29841 0.40127 0.0
O657 O 0.39503 0.36633 0.29588 0.0
O658 O 0.34084 0.32324 0.41285 0.0
O659 O 0.32539 0.38704 0.32845 0.0
O660 O 0.41034 0.31813 0.32654 0.0
O661 O 0.36376 0.43405 0.42366 0.0
O662 O 0.44474 0.3577 0.42774 0.0
O663 O 0.43179 0.42609 0.33792 0.0
C664 C 0.06058 0.19037 0.28856 0.0
C665 C 0.04374 0.22355 0.28578 0.0
C666 C 0.08036 0.17645 0.26026 0.0
C667 C 0.0837 0.19495 0.22777 0.0
H668 H 0.05781 0.17455 0.31252 0.0
H669 H 0.09178 0.15019 0.26354 0.0
S670 S 0.04705 0.2847 0.20829 0.0
N671 N 0.03365 0.27601 0.24926 0.0
N672 N 0.07061 0.24979 0.19571 0.0
C673 C 0.0685 0.22916 0.22537 0.0
C674 C 0.04853 0.24345 0.25443 0.0
C675 C 0.08015 0.83009 0.53131 0.0
C676 C 0.04327 0.82974 0.53732 0.0
C677 C 0.09405 0.84172 0.49885 0.0
C678 C 0.07147 0.85325 0.47131 0.0
H679 H 0.09831 0.81903 0.55076 0.0
H680 H 0.12241 0.83903 0.49449 0.0
S681 S 0.97382 0.86611 0.47742 0.0
N682 N 0.98504 0.84825 0.51597 0.0
N683 N 0.01123 0.87015 0.45472 0.0
C684 C 0.03496 0.85686 0.47856 0.0
C685 C 0.02081 0.84509 0.51169 0.0
C686 C 0.42297 0.81751 0.77237 0.0
C687 C 0.42791 0.78083 0.77781 0.0
C688 C 0.40528 0.83015 0.74211 0.0
C689 C 0.39198 0.80658 0.71603 0.0
H690 H 0.43372 0.83673 0.79108 0.0
H691 H 0.40345 0.8587 0.73849 0.0
S692 S 0.39441 0.70773 0.7199 0.0
N693 N 0.41543 0.72088 0.75623 0.0
N694 N 0.38218 0.74457 0.69942 0.0
C695 C 0.39513 0.76972 0.72214 0.0
C696 C 0.41311 0.75687 0.75298 0.0
C697 C 0.46619 0.15297 0.01215 0.0
C698 C 0.44244 0.16104 0.04001 0.0
C699 C 0.45382 0.14047 0.97931 0.0
C700 C 0.41727 0.13551 0.97312 0.0
H701 H 0.49438 0.15803 0.01502 0.0
H702 H 0.47305 0.13637 0.95813 0.0
S703 S 0.34482 0.14697 0.03971 0.0
N704 N 0.38129 0.15907 0.06099 0.0
N705 N 0.35788 0.13509 -0.00058 0.0
C706 C 0.39353 0.14064 0.00185 0.0
C707 C 0.40619 0.15356 0.03526 0.0
C708 C 0.04537 0.75985 0.21217 0.0
C709 C 0.03366 0.77951 0.18261 0.0
C710 C 0.06337 0.77639 0.24027 0.0
C711 C 0.07053 0.8132 0.23983 0.0
H712 H 0.03907 0.73179 0.21455 0.0
H713 H 0.07036 0.76038 0.2632 0.0
S714 S 0.05012 0.87547 0.1658 0.0
N715 N 0.03394 0.83678 0.15246 0.0
N716 N 0.06791 0.86804 0.2053 0.0
C717 C 0.0614 0.83262 0.20908 0.0
C718 C 0.04287 0.81574 0.18049 0.0
C719 C 0.37724 0.77785 0.43229 0.0
C720 C 0.40763 0.79607 0.41999 0.0
C721 C 0.35932 0.78917 0.46301 0.0
C722 C 0.37148 0.81885 0.4822 0.0
H723 H 0.36888 0.75317 0.4198 0.0
H724 H 0.33789 0.77291 0.47343 0.0
S725 S 0.44428 0.88021 0.45707 0.0
N726 N 0.44481 0.84899 0.42597 0.0
N727 N 0.41145 0.86951 0.48429 0.0
C728 C 0.39922 0.83941 0.46821 0.0
C729 C 0.41718 0.82826 0.43675 0.0
C730 C 0.45064 0.1591 0.68791 0.0
C731 C 0.44747 0.19643 0.68566 0.0
C732 C 0.43365 0.14 0.71506 0.0
C733 C 0.41327 0.15772 0.74093 0.0
H734 H 0.46792 0.14473 0.6698 0.0
H735 H 0.43878 0.1117 0.71738 0.0
S736 S 0.39145 0.25399 0.74334 0.0
N737 N 0.41829 0.24956 0.70876 0.0
N738 N 0.38676 0.21361 0.76003 0.0
C739 C 0.40737 0.19448 0.73717 0.0
C740 C 0.42437 0.21388 0.7094 0.0
C741 C 0.04297 0.12972 0.96362 0.0
C742 C 0.0618 0.14504 0.93514 0.0
C743 C 0.05931 0.12443 -0.00341 0.0
C744 C 0.09512 0.13384 0.00207 0.0
H745 H 0.01464 0.12482 0.96158 0.0
H746 H 0.0431 0.11507 0.01856 0.0
S747 S 0.15817 0.16637 0.93327 0.0
N748 N 0.11967 0.16313 0.91236 0.0
N749 N 0.15055 0.15304 0.97448 0.0
C750 C 0.11539 0.14479 0.97252 0.0
C751 C 0.09865 0.15035 0.93892 0.0
C752 C 0.27264 0.07991 0.23649 0.0
C753 C 0.304 0.07414 0.2169 0.0
C754 C 0.24403 0.09846 0.22172 0.0
C755 C 0.24569 0.11184 0.18671 0.0
H756 H 0.26914 0.06798 0.26252 0.0
H757 H 0.21958 0.09976 0.23694 0.0
S758 S 0.3255 0.11195 0.12831 0.0
N759 N 0.33775 0.0891 0.16373 0.0
N760 N 0.28401 0.12423 0.1358 0.0
C761 C 0.2785 0.10994 0.1686 0.0
C762 C 0.30764 0.09093 0.1837 0.0
C763 C 0.16195 0.02434 0.43578 0.0
C764 C 0.18453 0.04714 0.41648 0.0
C765 C 0.14873 -0.00694 0.42055 0.0
C766 C 0.15712 0.98364 0.38529 0.0
H767 H 0.15593 0.02961 0.46355 0.0
H768 H 0.13281 0.97546 0.43696 0.0
S769 S 0.21154 0.03629 0.32187 0.0
N770 N 0.2121 0.05981 0.35914 0.0
N771 N 0.18673 0.00097 0.33031 0.0
C772 C 0.17744 0.00744 0.36475 0.0
C773 C 0.19129 0.03924 0.38042 0.0
C774 C 0.21206 0.95258 0.68421 0.0
C775 C 0.17982 0.93476 0.69063 0.0
C776 C 0.24164 0.9344 0.67126 0.0
C777 C 0.23974 0.89798 0.6632 0.0
H778 H 0.21477 0.98078 0.68976 0.0
H779 H 0.26596 0.94922 0.66655 0.0
S780 S 0.16125 0.83923 0.67339 0.0
N781 N 0.14756 0.87857 0.68778 0.0
N782 N 0.20315 0.84465 0.6611 0.0
C783 C 0.20758 0.8798 0.66858 0.0
C784 C 0.17758 0.89815 0.68295 0.0
C785 C 0.33014 0.96153 0.95477 0.0
C786 C 0.30267 0.94071 0.94011 0.0
C787 C 0.34486 0.98991 0.9357 0.0
C788 C 0.33318 -0.0021 0.90107 0.0
H789 H 0.3391 0.95709 0.98184 0.0
H790 H 0.36468 0.00649 0.9486 0.0
S791 S 0.26423 0.94958 0.84945 0.0
N792 N 0.26597 0.92855 0.88801 0.0
N793 N 0.29421 0.98166 0.85198 0.0
C794 C 0.30734 0.97598 0.88524 0.0
C795 C 0.2919 0.94742 0.90485 0.0
C796 C 0.26489 0.91579 0.25124 0.0
C797 C 0.29487 0.91761 0.27349 0.0
C798 C 0.23382 0.89893 0.26261 0.0
C799 C 0.23175 0.88339 0.29665 0.0
H800 H 0.26442 0.92973 0.22601 0.0
H801 H 0.21051 0.90084 0.24575 0.0
S802 S 0.3066 0.87198 0.3602 0.0
N803 N 0.32331 0.89616 0.32752 0.0
N804 N 0.26491 0.86391 0.34891 0.0
C805 C 0.26312 0.88092 0.31701 0.0
C806 C 0.29471 0.89832 0.30548 0.0
C807 C 0.30148 0.0279 0.55757 0.0
C808 C 0.29987 0.03108 0.5203 0.0
C809 C 0.31094 -0.00428 0.57354 0.0
C810 C 0.31863 0.96548 0.55275 0.0
H811 H 0.29417 0.05006 0.57462 0.0
H812 H 0.31041 -0.0059 0.60237 0.0
S813 S 0.3223 0.96099 0.45402 0.0
N814 N 0.30997 0.00227 0.46293 0.0
N815 N 0.32742 0.94151 0.49307 0.0
C816 C 0.31907 0.96881 0.51545 0.0
C817 C 0.30983 0.00174 0.49916 0.0
C818 C 0.19481 0.07852 0.80767 0.0
C819 C 0.19359 0.0452 0.79067 0.0
C820 C 0.22755 0.09455 0.81554 0.0
C821 C 0.25961 0.07835 0.80506 0.0
H822 H 0.17045 0.09166 0.81577 0.0
H823 H 0.22789 0.11938 0.83033 0.0
S824 S 0.26999 -0.0076 0.75723 0.0
N825 N 0.22667 -0.0028 0.76241 0.0
N826 N 0.28806 0.02808 0.7756 0.0
C827 C 0.25848 0.04582 0.7866 0.0
C828 C 0.22541 0.029 0.77981 0.0
C829 C 0.16802 0.96847 0.05238 0.0
C830 C 0.19584 0.94921 0.06826 0.0
C831 C 0.15611 0.00037 0.06726 0.0
C832 C 0.17102 0.01357 0.09889 0.0
H833 H 0.15673 0.96001 0.02717 0.0
H834 H 0.13607 0.01558 0.05318 0.0
S835 S 0.24159 0.97154 0.15315 0.0
N836 N 0.23601 0.94422 0.11899 0.0
N837 N 0.21282 0.00422 0.14728 0.0
C838 C 0.19695 -0.00654 0.11653 0.0
C839 C 0.20958 0.96117 0.10109 0.0
C840 C 0.22495 0.27941 0.05131 0.0
C841 C 0.20478 0.29527 0.02408 0.0
C842 C 0.21024 0.2533 0.07337 0.0
C843 C 0.17473 0.24239 0.06924 0.0
H844 H 0.25266 0.28642 0.05503 0.0
H845 H 0.22713 0.2408 0.0931 0.0
S846 S 0.11009 0.27682 0.00284 0.0
N847 N 0.14705 0.29925 -0.00497 0.0
N848 N 0.11929 0.25025 0.03655 0.0
C849 C 0.15377 0.25914 0.04308 0.0
C850 C 0.16885 0.28554 0.02043 0.0
C851 C 0.66608 0.20717 0.93163 0.0
C852 C 0.68565 0.20778 0.96349 0.0
C853 C 0.65341 0.23885 0.91667 0.0
C854 C 0.66115 0.27194 0.93249 0.0
H855 H 0.65989 0.18207 0.91871 0.0
H856 H 0.63733 0.23748 0.89274 0.0
S857 S 0.71322 0.28754 0.01511 0.0
N858 N 0.71313 0.24389 0.00985 0.0
N859 N 0.69022 0.30346 0.98126 0.0
C860 C 0.68165 0.27284 0.96378 0.0
C861 C 0.69368 0.24067 0.97944 0.0
C862 C 0.04147 0.45542 0.1752 0.0
C863 C 0.05227 0.44201 0.20848 0.0
C864 C 0.01312 0.44004 0.15657 0.0
C865 C -0.00495 0.41039 0.1703 0.0
H866 H 0.05437 0.47858 0.16384 0.0
H867 H 0.00482 0.45183 0.13159 0.0
S868 S 0.01197 0.36563 0.25658 0.0
N869 N 0.04224 0.39747 0.25453 0.0
N870 N 0.98916 0.36837 0.2191 0.0
C871 C 0.00602 0.39608 0.20303 0.0
C872 C 0.03463 0.41196 0.22225 0.0
C873 C 0.76715 0.74379 0.4675 0.0
C874 C 0.77565 0.77848 0.45646 0.0
C875 C 0.78251 0.7142 0.45111 0.0
C876 C 0.80741 0.71822 0.42343 0.0
H877 H 0.74916 0.73941 0.48965 0.0
H878 H 0.77617 0.68809 0.46159 0.0
S879 S 0.83584 0.80335 0.38225 0.0
N880 N 0.80803 0.81534 0.4142 0.0
N881 N 0.83763 0.75941 0.3836 0.0
C882 C 0.81484 0.75271 0.41091 0.0
C883 C 0.79872 0.78295 0.42736 0.0
C884 C 0.9851 0.02625 0.16175 0.0
C885 C 0.95273 0.0449 0.16098 0.0
C886 C 0.01724 0.04352 0.1547 0.0
C887 C 0.01819 0.08002 0.14633 0.0
H888 H 0.98596 -0.00135 0.17005 0.0
H889 H 0.04159 0.02833 0.15725 0.0
S890 S 0.93963 0.13897 0.13436 0.0
N891 N 0.92274 0.10032 0.1467 0.0
N892 N 0.98311 0.13301 0.13287 0.0
C893 C 0.98558 0.09819 0.14244 0.0
C894 C 0.95285 0.08056 0.14992 0.0
C895 C 0.28954 0.67637 0.5603 0.0
C896 C 0.25232 0.67501 0.55727 0.0
C897 C 0.3064 0.7062 0.57476 0.0
C898 C 0.28659 0.73575 0.58658 0.0
H899 H 0.30596 0.65541 0.54916 0.0
H900 H 0.33519 0.7071 0.57397 0.0
S901 S 0.18819 0.74083 0.59354 0.0
N902 N 0.19594 0.70226 0.57378 0.0
N903 N 0.22768 0.75853 0.60123 0.0
C904 C 0.24927 0.73275 0.58777 0.0
C905 C 0.23209 0.70231 0.57298 0.0
C906 C 0.0448 0.58925 0.31364 0.0
C907 C 0.05705 0.55659 0.32726 0.0
C908 C 0.01244 0.60375 0.32507 0.0
C909 C -0.00862 0.58579 0.35016 0.0
H910 H 0.05906 0.60258 0.29241 0.0
H911 H 0.00271 0.62769 0.31231 0.0
S912 S 0.01503 0.50389 0.39955 0.0
N913 N 0.04842 0.51007 0.37162 0.0
N914 N 0.98718 0.53708 0.39239 0.0
C915 C 0.00481 0.55501 0.36635 0.0
C916 C 0.03789 0.54048 0.35512 0.0
C917 C 0.43268 0.40802 0.82613 0.0
C918 C 0.42366 0.44417 0.82961 0.0
C919 C 0.46366 0.39466 0.84165 0.0
C920 C 0.4866 0.41711 0.861 0.0
H921 H 0.41711 0.39043 0.80931 0.0
H922 H 0.47092 0.36727 0.83616 0.0
S923 S 0.47016 0.51149 0.88531 0.0
N924 N 0.43641 0.5005 0.85935 0.0
N925 N 0.49496 0.47535 0.88834 0.0
C926 C 0.47589 0.45231 0.86785 0.0
C927 C 0.44425 0.46586 0.85221 0.0
C928 C 0.91363 0.78505 0.70896 0.0
C929 C 0.93029 0.80753 0.68415 0.0
C930 C 0.89731 0.79893 0.73932 0.0
C931 C 0.89689 0.8358 0.74589 0.0
H932 H 0.91489 0.75636 0.70604 0.0
H933 H 0.8864 0.78045 0.75861 0.0
S934 S 0.93163 0.90635 0.68597 0.0
N935 N 0.94146 0.8686 0.66557 0.0
N936 N 0.91063 0.89489 0.72286 0.0
C937 C 0.91058 0.8588 0.71965 0.0
C938 C 0.92737 0.84459 0.68869 0.0
C939 C 0.90849 0.17263 0.44477 0.0
C940 C 0.94373 0.18505 0.44399 0.0
C941 C 0.8942 0.15742 0.47561 0.0
C942 C 0.91451 0.15447 0.50699 0.0
H943 H 0.89126 0.1761 0.4219 0.0
H944 H 0.86638 0.14989 0.47535 0.0
S945 S 0.00982 0.17836 0.51719 0.0
N946 N -7e-05 0.18977 0.47591 0.0
N947 N 0.97294 0.16144 0.53405 0.0
C948 C 0.95057 0.16448 0.50577 0.0
C949 C 0.96523 0.17968 0.4742 0.0
C950 C 0.54237 0.13698 0.20086 0.0
C951 C 0.54947 0.17242 0.19093 0.0
C952 C 0.558 0.12225 0.23126 0.0
C953 C 0.58093 0.14266 0.25266 0.0
H954 H 0.52301 0.1212 0.18638 0.0
H955 H 0.55005 0.09574 0.23941 0.0
S956 S 0.61399 0.23374 0.23408 0.0
N957 N 0.58551 0.22534 0.20163 0.0
N958 N 0.61442 0.19766 0.25913 0.0
C959 C 0.5908 0.17681 0.24123 0.0
C960 C 0.57519 0.19171 0.21017 0.0
C961 C 0.56437 0.8188 0.94467 0.0
C962 C 0.52811 0.80958 0.944 0.0
C963 C 0.58043 0.83146 0.97589 0.0
C964 C 0.56089 0.83511 0.0077 0.0
H965 H 0.58092 0.81467 0.92138 0.0
H966 H 0.60881 0.83649 0.97548 0.0
S967 S 0.46386 0.82006 0.01844 0.0
N968 N 0.47215 0.80909 0.97663 0.0
N969 N 0.50236 0.83274 0.03538 0.0
C970 C 0.52404 0.82847 0.00667 0.0
C971 C 0.50764 0.81578 0.97479 0.0
C972 C 0.91048 0.20881 0.77876 0.0
C973 C 0.9187 0.18409 0.80561 0.0
C974 C 0.89273 0.19816 0.74769 0.0
C975 C 0.88223 0.16249 0.74253 0.0
H976 H 0.92027 0.23592 0.78039 0.0
H977 H 0.88946 0.21754 0.72661 0.0
S978 S 0.89001 0.08976 0.80927 0.0
N979 N 0.90991 0.1242 0.82811 0.0
N980 N 0.87569 0.10407 0.77027 0.0
C981 C 0.88659 0.1386 0.77124 0.0
C982 C 0.90517 0.14941 0.80261 0.0
C983 C 0.59972 0.18826 0.53902 0.0
C984 C 0.56387 0.18478 0.5491 0.0
C985 C 0.61256 0.17161 0.50816 0.0
C986 C 0.58987 0.15112 0.48643 0.0
H987 H 0.61748 0.20552 0.55387 0.0
H988 H 0.63976 0.17679 0.50012 0.0
S989 S 0.49574 0.1281 0.50508 0.0
N990 N 0.50732 0.15506 0.53791 0.0
N991 N 0.53148 0.12399 0.47984 0.0
C992 C 0.55485 0.14499 0.49792 0.0
C993 C 0.54182 0.16179 0.52931 0.0
C994 C 0.56849 0.81919 0.29907 0.0
C995 C 0.56487 0.78205 0.30217 0.0
C996 C 0.58461 0.83436 0.2691 0.0
C997 C 0.59715 0.81286 0.24102 0.0
H998 H 0.55672 0.83677 0.31875 0.0
H999 H 0.58441 0.86311 0.26663 0.0
S1000 S 0.6007 0.71417 0.23965 0.0
N1001 N 0.58044 0.72407 0.27747 0.0
N1002 N 0.61018 0.75272 0.22078 0.0
C1003 C 0.59699 0.77572 0.24551 0.0
C1004 C 0.58101 0.76025 0.27625 0.0
C1005 C 0.87905 0.79881 0.03229 0.0
C1006 C 0.91494 0.80302 0.04199 0.0
C1007 C 0.86552 0.81516 0.00172 0.0
C1008 C 0.88751 0.83612 0.97982 0.0
H1009 H 0.86178 0.78114 0.04717 0.0
H1010 H 0.8384 0.80925 -0.00607 0.0
S1011 S 0.98117 0.86151 -0.00225 0.0
N1012 N 0.9706 0.83419 0.03051 0.0
N1013 N 0.94512 0.86477 0.97288 0.0
C1014 C 0.92245 0.84319 0.99105 0.0
C1015 C 0.9362 0.82666 0.02223 0.0
C1016 C 0.67866 0.89678 0.79262 0.0
C1017 C 0.6808 0.90058 0.75539 0.0
C1018 C 0.7091 0.8905 0.81298 0.0
C1019 C 0.74273 0.8879 0.79679 0.0
H1020 H 0.65372 0.90105 0.80646 0.0
H1021 H 0.70648 0.88992 0.84174 0.0
S1022 S 0.76124 0.88746 0.69954 0.0
N1023 N 0.71813 0.89515 0.70262 0.0
N1024 N 0.7755 0.88329 0.74093 0.0
C1025 C 0.74468 0.88803 0.75931 0.0
C1026 C 0.71362 0.89428 0.73857 0.0
C1027 C 0.82581 0.95758 0.52601 0.0
C1028 C 0.81907 0.9296 0.54988 0.0
C1029 C 0.83823 0.9905 0.53832 0.0
C1030 C 0.84458 -0.00368 0.57485 0.0
H1031 H 0.81832 0.95526 0.49821 0.0
H1032 H 0.84021 0.01217 0.51941 0.0
S1033 S 0.84078 0.92765 0.64609 0.0
N1034 N 0.82627 0.90705 0.60998 0.0
N1035 N 0.85073 0.96852 0.63335 0.0
C1036 C 0.8426 0.96683 0.59807 0.0
C1037 C 0.82949 0.93351 0.58551 0.0
C1038 C 0.79489 0.07113 0.30302 0.0
C1039 C 0.79303 0.06291 0.2665 0.0
C1040 C 0.7645 0.08084 0.32212 0.0
C1041 C 0.73108 0.08241 0.3054 0.0
H1042 H 0.81969 0.06833 0.31746 0.0
H1043 H 0.76701 0.08519 0.35056 0.0
S1044 S 0.71315 0.06944 0.20883 0.0
N1045 N 0.75608 0.06147 0.21325 0.0
N1046 N 0.69877 0.07976 0.24914 0.0
C1047 C 0.72937 0.07707 0.26825 0.0
C1048 C 0.76043 0.06737 0.24876 0.0
C1049 C 0.66989 0.04291 0.09101 0.0
C1050 C 0.66535 0.05167 0.05492 0.0
C1051 C 0.65734 0.01061 0.10446 0.0
C1052 C 0.64012 0.9858 0.08216 0.0
H1053 H 0.68523 0.06003 0.10852 0.0
H1054 H 0.66356 0.00406 0.13186 0.0
S1055 S 0.61471 -0.00047 0.9877 0.0
N1056 N 0.63716 0.03577 -0.00138 0.0
N1057 N 0.61386 0.9747 0.02394 0.0
C1058 C 0.63224 -0.00419 0.04699 0.0
C1059 C 0.64474 0.02891 0.03335 0.0
C1060 C 0.70051 0.05369 0.69701 0.0
C1061 C 0.67786 0.03807 0.67157 0.0
C1062 C 0.73096 0.07226 0.68666 0.0
C1063 C 0.73983 0.07607 0.65046 0.0
H1064 H 0.69581 0.04999 0.72525 0.0
H1065 H 0.74856 0.08213 0.70732 0.0
S1066 S 0.68553 0.04553 0.57331 0.0
N1067 N 0.66353 0.03154 0.60869 0.0
N1068 N 0.72073 0.06672 0.58894 0.0
C1069 C 0.71559 0.06336 0.62466 0.0
C1070 C 0.68462 0.04421 0.6353 0.0
C1071 C 0.68072 0.97614 0.48489 0.0
C1072 C 0.67779 0.94162 0.47067 0.0
C1073 C 0.671 0.00589 0.46494 0.0
C1074 C 0.65783 0.00232 0.42996 0.0
H1075 H 0.69226 0.98048 0.51102 0.0
H1076 H 0.67503 0.03193 0.47677 0.0
S1077 S 0.63969 0.91699 0.38279 0.0
N1078 N 0.65701 0.90498 0.42134 0.0
N1079 N 0.63843 0.96093 0.38363 0.0
C1080 C 0.65234 0.96768 0.41641 0.0
C1081 C 0.66238 0.93732 0.43682 0.0
C1082 C 0.794 0.9289 0.14342 0.0
C1083 C 0.80434 0.9257 0.17924 0.0
C1084 C 0.76239 0.91351 0.13129 0.0
C1085 C 0.74005 0.89462 0.15468 0.0
H1086 H 0.80904 0.94544 0.12518 0.0
H1087 H 0.75419 0.91884 0.10414 0.0
S1088 S 0.7597 0.87122 0.24857 0.0
N1089 N 0.79333 0.89667 0.23619 0.0
N1090 N 0.73359 0.86798 0.21334 0.0
C1091 C 0.75205 0.88796 0.18946 0.0
C1092 C 0.78436 0.90344 0.20177 0.0
C1093 C 0.79131 0.041 0.9177 0.0
C1094 C 0.79023 0.04141 0.95516 0.0
C1095 C 0.80236 0.01066 0.89909 0.0
C1096 C 0.81223 0.97957 0.91734 0.0
H1097 H 0.78256 0.06389 0.90255 0.0
H1098 H 0.80166 0.01112 0.87022 0.0
S1099 S 0.81786 0.96826 0.01544 0.0
N1100 N 0.80291 0.0092 0.00994 0.0
N1101 N 0.82343 0.952 0.9749 0.0
C1102 C 0.81298 0.98021 0.95482 0.0
C1103 C 0.80209 0.01123 0.97377 0.0
C1104 C 0.7658 0.7119 0.90397 0.0
C1105 C 0.78991 0.68661 0.91711 0.0
C1106 C 0.77783 0.74223 0.88623 0.0
C1107 C 0.81444 0.7484 0.88116 0.0
H1108 H 0.73763 0.70973 0.90971 0.0
H1109 H 0.75838 0.76224 0.87907 0.0
S1110 S 0.88726 0.68467 0.90115 0.0
N1111 N 0.85106 0.66549 0.91704 0.0
N1112 N 0.87391 0.72261 0.88352 0.0
C1113 C 0.83834 0.72085 0.88979 0.0
C1114 C 0.826 0.68991 0.90796 0.0
C1115 C 0.27044 0.76266 0.07352 0.0
C1116 C 0.29183 0.79259 0.06681 0.0
C1117 C 0.28558 0.73022 0.08344 0.0
C1118 C 0.32266 0.72662 0.08719 0.0
H1119 H 0.24201 0.76358 0.06889 0.0
H1120 H 0.26812 0.70743 0.0863 0.0
S1121 S 0.38914 0.79968 0.08049 0.0
N1122 N 0.35094 0.81851 0.06991 0.0
N1123 N 0.3797 0.75766 0.08924 0.0
C1124 C 0.34393 0.75741 0.08393 0.0
C1125 C 0.32844 0.79038 0.0735 0.0
C1126 C 0.96833 0.5258 0.81231 0.0
C1127 C 0.93834 0.54475 0.80079 0.0
C1128 C -0.0014 0.54362 0.82442 0.0
C1129 C -9e-05 0.58107 0.82584 0.0
H1130 H 0.96906 0.49699 0.81059 0.0
H1131 H 0.02148 0.52782 0.83196 0.0
S1132 S 0.92642 0.64284 0.80292 0.0
N1133 N 0.91029 0.60277 0.79448 0.0
N1134 N 0.96729 0.63646 0.81765 0.0
C1135 C 0.96924 0.60032 0.81646 0.0
C1136 C 0.93844 0.5821 0.80376 0.0
C1137 C 0.1574 0.19068 0.54013 0.0
C1138 C 0.19411 0.18488 0.54431 0.0
C1139 C 0.14019 0.21841 0.55818 0.0
C1140 C 0.15921 0.24162 0.58067 0.0
H1141 H 0.14204 0.17451 0.52177 0.0
H1142 H 0.11226 0.22293 0.55276 0.0
S1143 S 0.25473 0.23499 0.60437 0.0
N1144 N 0.24816 0.20229 0.57559 0.0
N1145 N 0.21582 0.25478 0.60912 0.0
C1146 C 0.19543 0.23475 0.58683 0.0
C1147 C 0.21288 0.20625 0.56876 0.0
C1148 C 0.03035 0.92243 0.82753 0.0
C1149 C 0.03293 0.95909 0.82074 0.0
C1150 C -0.00111 0.90757 0.84055 0.0
C1151 C 0.96866 0.9288 0.84687 0.0
H1152 H 0.05201 0.90468 0.82065 0.0
H1153 H -0.00235 0.87886 0.84309 0.0
S1154 S 0.96458 0.02744 0.84102 0.0
N1155 N 0.00495 0.0172 0.82707 0.0
N1156 N 0.94548 0.98922 0.85139 0.0
C1157 C 0.9722 0.96602 0.84386 0.0
C1158 C 0.00446 0.9812 0.83082 0.0
C1159 C 0.65834 0.2902 0.40932 0.0
C1160 C 0.69526 0.29602 0.40985 0.0
C1161 C 0.64417 0.25868 0.39535 0.0
C1162 C 0.6665 0.2319 0.38156 0.0
H1163 H 0.6404 0.30877 0.4222 0.0
H1164 H 0.61584 0.25419 0.39817 0.0
S1165 S 0.76403 0.23878 0.36791 0.0
N1166 N 0.75315 0.27593 0.38888 0.0
N1167 N 0.72649 0.21654 0.36257 0.0
C1168 C 0.70298 0.23941 0.37794 0.0
C1169 C 0.7174 0.27155 0.39213 0.0
C1170 C 0.95003 0.4436 0.66171 0.0
C1171 C 0.92722 0.42627 0.68581 0.0
C1172 C 0.97999 0.42643 0.64795 0.0
C1173 C 0.98803 0.39116 0.65737 0.0
H1174 H 0.94594 0.47132 0.65491 0.0
H1175 H -0.00207 0.44148 0.63108 0.0
S1176 S 0.93416 0.33223 0.71537 0.0
N1177 N 0.91257 0.37054 0.71551 0.0
N1178 N 0.96901 0.33814 0.68921 0.0
C1179 C 0.96393 0.37246 0.679 0.0
C1180 C 0.93347 0.39009 0.69337 0.0
C1181 C 0.5318 0.51479 0.14149 0.0
C1182 C 0.55865 0.53786 0.15372 0.0
C1183 C 0.50044 0.52813 0.12672 0.0
C1184 C 0.49489 0.56502 0.12339 0.0
H1185 H 0.53387 0.48631 0.14549 0.0
H1186 H 0.47958 0.50939 0.11985 0.0
S1187 S 0.56071 0.63611 0.14416 0.0
N1188 N 0.5804 0.5988 0.15632 0.0
N1189 N 0.52157 0.62413 0.12819 0.0
C1190 C 0.52324 0.58816 0.13194 0.0
C1191 C 0.5551 0.5745 0.14729 0.0
C1192 C 0.58571 0.70838 0.77899 0.0
C1193 C 0.56734 0.69004 0.80587 0.0
C1194 C 0.59852 0.69033 0.7491 0.0
C1195 C 0.59342 0.6534 0.74516 0.0
H1196 H 0.58743 0.73719 0.77939 0.0
H1197 H 0.60977 0.70589 0.72755 0.0
S1198 S 0.55622 0.59201 0.81282 0.0
N1199 N 0.55175 0.63207 0.83054 0.0
N1200 N 0.57566 0.59815 0.77382 0.0
C1201 C 0.57984 0.63411 0.77413 0.0
C1202 C 0.56677 0.65252 0.80474 0.0
C1203 C 0.50506 0.32063 0.03679 0.0
C1204 C 0.52607 0.30316 0.06229 0.0
C1205 C 0.52067 0.34019 0.00932 0.0
C1206 C 0.55785 0.34312 0.00646 0.0
H1207 H 0.47641 0.31748 0.03671 0.0
H1208 H 0.50352 0.35134 0.98902 0.0
S1209 S 0.62434 0.30769 0.07036 0.0
N1210 N 0.5856 0.29411 0.08601 0.0
N1211 N 0.61512 0.33092 0.03425 0.0
C1212 C 0.57902 0.32873 0.03381 0.0
C1213 C 0.56306 0.30865 0.06177 0.0
C1214 C 0.88743 0.28127 0.27328 0.0
C1215 C 0.90028 0.30247 0.30137 0.0
C1216 C 0.87862 0.29646 0.24054 0.0
C1217 C 0.88232 0.33334 0.23489 0.0
H1218 H 0.88738 0.25249 0.27532 0.0
H1219 H 0.87172 0.27875 0.21876 0.0
S1220 S 0.90379 0.40119 0.30387 0.0
N1221 N 0.90798 0.36262 0.32446 0.0
N1222 N 0.89144 0.39139 0.26278 0.0
C1223 C 0.88982 0.35525 0.26448 0.0
C1224 C 0.8988 0.33971 0.29787 0.0
C1225 C 0.97847 0.67248 0.52141 0.0
C1226 C 0.95919 0.68425 0.55125 0.0
C1227 C 0.96148 0.65486 0.49333 0.0
C1228 C 0.9246 0.64827 0.49412 0.0
H1229 H 0.00643 0.67889 0.51856 0.0
H1230 H 0.97705 0.64827 0.46991 0.0
S1231 S 0.86369 0.66719 0.56971 0.0
N1232 N 0.90253 0.68318 0.58265 0.0
N1233 N 0.87045 0.65005 0.5297 0.0
C1234 C 0.90577 0.65656 0.52546 0.0
C1235 C 0.92311 0.67466 0.55407 0.0
C1236 C 0.58036 0.27863 0.73874 0.0
C1237 C 0.57577 0.29931 0.70797 0.0
C1238 C 0.58682 0.29461 0.77179 0.0
C1239 C 0.58907 0.33193 0.77527 0.0
H1240 H 0.5768 0.24998 0.73779 0.0
H1241 H 0.58843 0.27756 0.79494 0.0
S1242 S 0.58595 0.39734 0.7011 0.0
N1243 N 0.57885 0.35841 0.68181 0.0
N1244 N 0.59136 0.38871 0.74387 0.0
C1245 C 0.58765 0.35268 0.74404 0.0
C1246 C 0.5809 0.33631 0.71038 0.0
C1247 C 0.95805 0.31018 0.95023 0.0
C1248 C 0.97835 0.27937 0.95581 0.0
C1249 C 0.94624 0.33073 0.97904 0.0
C1250 C 0.9548 0.32141 0.01434 0.0
H1251 H 0.9496 0.31744 0.92361 0.0
H1252 H 0.92885 0.35307 0.97369 0.0
S1253 S 0.01279 0.24642 0.04226 0.0
N1254 N 0.01045 0.24287 -0.00154 0.0
N1255 N 0.98864 0.28162 0.05277 0.0
C1256 C 0.97776 0.29234 0.01995 0.0
C1257 C 0.98935 0.27118 0.99061 0.0
C1258 C 0.89742 0.71815 0.22817 0.0
C1259 C 0.89653 0.69706 0.19715 0.0
C1260 C 0.89015 0.70338 0.26151 0.0
C1261 C 0.88157 0.66707 0.26489 0.0
H1262 H 0.90643 0.74555 0.22713 0.0
H1263 H 0.89359 0.72005 0.28488 0.0
S1264 S 0.86612 0.60337 0.19071 0.0
N1265 N 0.87989 0.64016 0.17097 0.0
N1266 N 0.86545 0.61239 0.23377 0.0
C1267 C 0.87657 0.64685 0.23365 0.0
C1268 C 0.88424 0.66187 0.19969 0.0
C1269 C 0.54738 0.6606 0.45186 0.0
C1270 C 0.52368 0.68943 0.4541 0.0
C1271 C 0.56147 0.64523 0.48277 0.0
C1272 C 0.55134 0.65756 0.51669 0.0
H1273 H 0.55603 0.65072 0.42611 0.0
H1274 H 0.58069 0.6239 0.48014 0.0
S1275 S 0.48845 0.73112 0.53659 0.0
N1276 N 0.4897 0.72893 0.49266 0.0
N1277 N 0.51547 0.69956 0.55073 0.0
C1278 C 0.5266 0.6855 0.51919 0.0
C1279 C 0.51294 0.70159 0.48784 0.0
C1280 C 0.78224 0.54842 0.65559 0.0
C1281 C 0.79057 0.55573 0.69146 0.0
C1282 C 0.75244 0.5638 0.63941 0.0
C1283 C 0.73002 0.58662 0.65878 0.0
H1284 H 0.79754 0.52911 0.64054 0.0
H1285 H 0.74535 0.55549 0.61265 0.0
S1286 S 0.74378 0.61966 0.75084 0.0
N1287 N 0.77698 0.59173 0.7439 0.0
N1288 N 0.72052 0.61983 0.71353 0.0
C1289 C 0.7398 0.59665 0.69343 0.0
C1290 C 0.77028 0.5814 0.70979 0.0
C1291 C 0.66057 0.52945 0.99062 0.0
C1292 C 0.67132 0.5571 0.96793 0.0
C1293 C 0.63998 0.50129 0.9778 0.0
C1294 C 0.62978 0.49965 0.9417 0.0
H1295 H 0.67017 0.52811 0.01783 0.0
H1296 H 0.63474 0.47929 -0.00434 0.0
S1297 S 0.64203 0.57121 0.87461 0.0
N1298 N 0.66359 0.58552 0.91021 0.0
N1299 N 0.62486 0.53233 0.88584 0.0
C1300 C 0.63611 0.52967 0.92017 0.0
C1301 C 0.65708 0.55846 0.93333 0.0
C1302 C 0.72058 0.4117 0.1752 0.0
C1303 C 0.70588 0.44345 0.16205 0.0
C1304 C 0.75152 0.39748 0.16026 0.0
C1305 C 0.76812 0.41401 0.13114 0.0
H1306 H 0.70957 0.39904 0.19867 0.0
H1307 H 0.76361 0.37445 0.1727 0.0
S1308 S 0.73772 0.49482 0.0838 0.0
N1309 N 0.70833 0.48912 0.11607 0.0
N1310 N 0.7663 0.46165 0.08756 0.0
C1311 C 0.75218 0.44401 0.11584 0.0
C1312 C 0.72102 0.45896 0.13145 0.0
C1313 C 0.82087 0.43693 0.413 0.0
C1314 C 0.81728 0.43121 0.44982 0.0
C1315 C 0.83929 0.46654 0.40007 0.0
C1316 C 0.8545 0.49154 0.42359 0.0
H1317 H 0.80723 0.41995 0.39401 0.0
H1318 H 0.83876 0.47136 0.37161 0.0
S1319 S 0.86082 0.48321 0.52189 0.0
N1320 N 0.83658 0.44871 0.50929 0.0
N1321 N 0.87111 0.50465 0.48492 0.0
C1322 C 0.8549 0.48365 0.4602 0.0
C1323 C 0.83623 0.45338 0.47337 0.0
C1324 C 0.75449 0.42141 0.79147 0.0
C1325 C 0.78165 0.44044 0.80883 0.0
C1326 C 0.72379 0.41105 0.80965 0.0
C1327 C 0.71913 0.41904 0.846 0.0
H1328 H 0.75626 0.41555 0.76323 0.0
H1329 H 0.70311 0.39741 0.79481 0.0
S1330 S 0.78356 0.46592 0.90456 0.0
N1331 N 0.80299 0.465 0.86507 0.0
N1332 N 0.74509 0.44529 0.89935 0.0
C1333 C 0.74685 0.43639 0.86425 0.0
C1334 C 0.77816 0.44719 0.84562 0.0
C1335 C 0.83412 0.51434 0.00637 0.0
C1336 C 0.83385 0.54667 0.02535 0.0
C1337 C 0.85254 0.4848 0.01928 0.0
C1338 C 0.87117 0.48653 0.05176 0.0
H1339 H 0.8181 0.51097 0.9826 0.0
H1340 H 0.84951 0.45975 0.00519 0.0
S1341 S 0.8871 0.56773 0.10579 0.0
N1342 N 0.85981 0.58087 0.07397 0.0
N1343 N 0.89435 0.52495 0.09854 0.0
C1344 C 0.87451 0.51978 0.06872 0.0
C1345 C 0.85581 0.54998 0.05546 0.0
C1346 C 0.72087 0.5753 0.28472 0.0
C1347 C 0.70138 0.54547 0.29608 0.0
C1348 C 0.74975 0.58793 0.30456 0.0
C1349 C 0.75955 0.5717 0.33682 0.0
H1350 H 0.71512 0.58775 0.25935 0.0
H1351 H 0.76542 0.60969 0.29391 0.0
S1352 S 0.7147 0.49536 0.38023 0.0
N1353 N 0.69208 0.50176 0.34305 0.0
N1354 N 0.74612 0.52615 0.38067 0.0
C1355 C 0.73882 0.54348 0.34977 0.0
C1356 C 0.70977 0.53015 0.32925 0.0
C1357 C 0.66028 0.44324 0.56323 0.0
C1358 C 0.66808 0.44367 0.52658 0.0
C1359 C 0.6462 0.47322 0.58031 0.0
C1360 C 0.63946 0.50485 0.56142 0.0
H1361 H 0.66675 0.42023 0.57929 0.0
H1362 H 0.64248 0.47205 0.60893 0.0
S1363 S 0.64909 0.51724 0.46355 0.0
N1364 N 0.66355 0.47643 0.47092 0.0
N1365 N 0.63689 0.53285 0.50287 0.0
C1366 C 0.64423 0.50451 0.52411 0.0
C1367 C 0.65861 0.4739 0.50673 0.0
C1368 C 0.69975 0.77418 0.6032 0.0
C1369 C 0.67973 0.80098 0.5865 0.0
C1370 C 0.68414 0.74175 0.61249 0.0
C1371 C 0.64788 0.73535 0.60611 0.0
H1372 H 0.72827 0.77693 0.60629 0.0
H1373 H 0.701 0.72086 0.62297 0.0
S1374 S 0.58245 0.80005 0.57043 0.0
N1375 N 0.62089 0.82137 0.56919 0.0
N1376 N 0.59119 0.76048 0.5874 0.0
C1377 C 0.62675 0.76344 0.59329 0.0
C1378 C 0.6428 0.79633 0.58331 0.0
C1379 C 0.13814 0.69118 0.41425 0.0
C1380 C 0.17454 0.68289 0.41592 0.0
C1381 C 0.12655 0.72343 0.39974 0.0
C1382 C 0.15098 0.7486 0.38654 0.0
H1383 H 0.11852 0.67352 0.42588 0.0
H1384 H 0.09839 0.72943 0.40083 0.0
S1385 S 0.24871 0.73672 0.37885 0.0
N1386 N 0.23458 0.70019 0.39876 0.0
N1387 N 0.2128 0.76086 0.37156 0.0
C1388 C 0.18721 0.73934 0.38543 0.0
C1389 C 0.19899 0.70644 0.40009 0.0
C1390 C 0.52656 0.88421 0.63531 0.0
C1391 C 0.53201 0.92129 0.63551 0.0
C1392 C 0.49439 0.86967 0.62345 0.0
C1393 C 0.46671 0.89182 0.61157 0.0
H1394 H 0.54604 0.86648 0.64696 0.0
H1395 H 0.49018 0.8413 0.6266 0.0
S1396 S 0.47171 0.9894 0.59734 0.0
N1397 N 0.51018 0.97898 0.61575 0.0
N1398 N 0.44958 0.95157 0.59358 0.0
C1399 C 0.47362 0.92836 0.60737 0.0
C1400 C 0.50639 0.94315 0.61932 0.0
C1401 C 0.3424 0.28688 0.90039 0.0
C1402 C 0.30686 0.29443 0.89143 0.0
C1403 C 0.35789 0.25433 0.89106 0.0
C1404 C 0.33825 0.22836 0.87256 0.0
H1405 H 0.35757 0.30504 0.91697 0.0
H1406 H 0.38439 0.24853 0.90075 0.0
S1407 S 0.24769 0.23897 0.8349 0.0
N1408 N 0.25495 0.27627 0.85718 0.0
N1409 N 0.28412 0.21494 0.8396 0.0
C1410 C 0.30419 0.23723 0.85996 0.0
C1411 C 0.28846 0.2704 0.86938 0.0
C1412 C 0.43706 0.56254 0.68309 0.0
C1413 C 0.43551 0.52599 0.69078 0.0
C1414 C 0.46762 0.57781 0.66841 0.0
C1415 C 0.49798 0.55709 0.66099 0.0
H1416 H 0.415 0.57991 0.68978 0.0
H1417 H 0.4679 0.60634 0.66448 0.0
S1418 S 0.50549 0.45895 0.67154 0.0
N1419 N 0.46533 0.46864 0.68643 0.0
N1420 N 0.52293 0.49719 0.65876 0.0
C1421 C 0.49583 0.51999 0.66626 0.0
C1422 C 0.46458 0.50445 0.68118 0.0
C1423 C 0.80569 0.22638 0.02753 0.0
C1424 C 0.80416 0.19598 0.04921 0.0
C1425 C 0.82051 0.25803 0.04005 0.0
C1426 C 0.83514 0.26018 0.07439 0.0
H1427 H 0.79434 0.22612 0.00097 0.0
H1428 H 0.82094 0.28088 0.02245 0.0
S1429 S 0.83893 0.18771 0.14117 0.0
N1430 N 0.81852 0.16965 0.10652 0.0
N1431 N 0.84817 0.22919 0.1297 0.0
C1432 C 0.83462 0.22978 0.09615 0.0
C1433 C 0.81857 0.19765 0.08366 0.0
C1434 C 0.50972 -0.00751 0.79578 0.0
C1435 C 0.53939 0.01097 0.78265 0.0
C1436 C 0.48323 0.01026 0.81495 0.0
C1437 C 0.48547 0.04717 0.82167 0.0
H1438 H 0.50579 0.9646 0.7894 0.0
H1439 H 0.45976 -0.00468 0.82257 0.0
S1440 S 0.562 0.10576 0.79961 0.0
N1441 N 0.57266 0.0666 0.78263 0.0
N1442 N 0.52278 0.10019 0.81861 0.0
C1443 C 0.51691 0.06507 0.81192 0.0
C1444 C 0.54385 0.04693 0.79227 0.0
C1445 C 0.94296 0.9243 0.30248 0.0
C1446 C 0.94341 0.96097 0.29516 0.0
C1447 C 0.97281 0.90737 0.31655 0.0
C1448 C 0.00423 0.92653 0.32346 0.0
H1449 H 0.92018 0.90809 0.29527 0.0
H1450 H 0.97197 0.87868 0.3195 0.0
S1451 S 0.01625 0.02438 0.31619 0.0
N1452 N 0.9756 0.01696 0.30128 0.0
N1453 N 0.03198 0.98502 0.3277 0.0
C1454 C 0.00374 0.9638 0.31972 0.0
C1455 C 0.97319 0.98109 0.30559 0.0
C1456 C 0.41895 0.25547 0.23545 0.0
C1457 C 0.41836 0.27142 0.20167 0.0
C1458 C 0.41183 0.27532 0.26618 0.0
C1459 C 0.4037 0.31192 0.26427 0.0
H1460 H 0.42723 0.22798 0.23852 0.0
H1461 H 0.41436 0.26213 0.29166 0.0
S1462 S 0.39159 0.36421 0.1812 0.0
N1463 N 0.40388 0.3243 0.16736 0.0
N1464 N 0.39018 0.36183 0.22511 0.0
C1465 C 0.39975 0.32731 0.2303 0.0
C1466 C 0.40715 0.30702 0.19898 0.0
C1467 C 0.39887 0.68235 0.93537 0.0
C1468 C 0.43335 0.67305 0.92422 0.0
C1469 C 0.38353 0.66616 0.96517 0.0
C1470 C 0.4024 0.64042 0.98455 0.0
H1471 H 0.38478 0.70414 0.92286 0.0
H1472 H 0.35827 0.67614 0.97486 0.0
S1473 S 0.48893 0.60001 0.96037 0.0
N1474 N 0.48254 0.63133 0.93022 0.0
N1475 N 0.45376 0.60135 0.98675 0.0
C1476 C 0.4349 0.62795 0.97117 0.0
C1477 C 0.4504 0.64419 0.94073 0.0
C1478 C 0.08156 0.6911 0.69439 0.0
C1479 C 0.07171 0.72714 0.69444 0.0
C1480 C 0.0922 0.67427 0.72572 0.0
C1481 C 0.09316 0.69287 0.75838 0.0
H1482 H 0.07891 0.67507 0.67043 0.0
H1483 H 0.09741 0.64596 0.72458 0.0
S1484 S 0.07801 0.78985 0.77085 0.0
N1485 N 0.0696 0.78254 0.72826 0.0
N1486 N 0.08953 0.75087 0.78748 0.0
C1487 C 0.08707 0.72986 0.758 0.0
C1488 C 0.07639 0.74706 0.72591 0.0
C1489 C 0.06096 0.31946 0.44394 0.0
C1490 C 0.0238 0.3221 0.44077 0.0
C1491 C 0.07786 0.32683 0.47626 0.0
C1492 C 0.05808 0.33702 0.5064 0.0
H1493 H 0.07689 0.30911 0.4222 0.0
H1494 H 0.10621 0.32207 0.4782 0.0
S1495 S 0.96145 0.35687 0.50915 0.0
N1496 N 0.96867 0.34218 0.46826 0.0
N1497 N 0.00052 0.35615 0.5292 0.0
C1498 C 0.0215 0.34368 0.5024 0.0
C1499 C 0.00432 0.33627 0.46944 0.0
C1500 C 0.42392 0.70887 0.25101 0.0
C1501 C 0.43102 0.68909 0.28185 0.0
C1502 C 0.41328 0.69219 0.21958 0.0
C1503 C 0.40929 0.65492 0.21767 0.0
H1504 H 0.4279 0.7375 0.2506 0.0
H1505 H 0.40927 0.70871 0.19635 0.0
S1506 S 0.41962 0.59153 0.2928 0.0
N1507 N 0.42972 0.63078 0.31001 0.0
N1508 N 0.4096 0.59907 0.25066 0.0
C1509 C 0.41402 0.63499 0.24904 0.0
C1510 C 0.42494 0.65212 0.28121 0.0
C1511 C 0.04501 0.65958 0.04469 0.0
C1512 C 0.00777 0.66305 0.04352 0.0
C1513 C 0.06413 0.64773 0.01495 0.0
C1514 C 0.04662 0.63916 0.98296 0.0
H1515 H 0.05981 0.66833 0.0679 0.0
H1516 H 0.09291 0.64806 0.01625 0.0
S1517 S 0.94896 0.63549 0.96898 0.0
N1518 N 0.95369 0.65084 0.01 0.0
N1519 N 0.98967 0.6287 0.95391 0.0
C1520 C 0.00918 0.63878 0.98274 0.0
C1521 C 0.9897 0.65067 0.01312 0.0
C1522 C 0.06931 0.29537 0.79622 0.0
C1523 C 0.06925 0.25794 0.7969 0.0
C1524 C 0.07924 0.31375 0.76548 0.0
C1525 C 0.08953 0.29524 0.73452 0.0
H1526 H 0.05909 0.31058 0.81856 0.0
H1527 H 0.07636 0.34246 0.76533 0.0
S1528 S 0.1034 0.19763 0.72651 0.0
N1529 N 0.08686 0.2033 0.7669 0.0
N1530 N 0.10618 0.23785 0.709 0.0
C1531 C 0.09358 0.25801 0.73638 0.0
C1532 C 0.08325 0.23931 0.76766 0.0
C1533 C 0.4986 0.33124 0.52016 0.0
C1534 C 0.47921 0.32516 0.55159 0.0
C1535 C 0.48239 0.34629 0.49026 0.0
C1536 C 0.44616 0.35588 0.4907 0.0
H1537 H 0.52585 0.32218 0.51774 0.0
H1538 H 0.49789 0.34822 0.46599 0.0
S1539 S 0.38646 0.35338 0.5697 0.0
N1540 N 0.42402 0.33553 0.5837 0.0
N1541 N 0.39338 0.36419 0.52764 0.0
C1542 C 0.42768 0.35359 0.52335 0.0
C1543 C 0.44423 0.33804 0.55375 0.0
C1544 C 0.21171 0.4335 0.34772 0.0
C1545 C 0.20199 0.4287 0.31186 0.0
C1546 C 0.2424 0.41776 0.36139 0.0
C1547 C 0.26462 0.39687 0.33957 0.0
H1548 H 0.19662 0.45113 0.36492 0.0
H1549 H 0.25002 0.42423 0.3885 0.0
S1550 S 0.24741 0.37075 0.24573 0.0
N1551 N 0.21414 0.39749 0.25619 0.0
N1552 N 0.27218 0.36803 0.28194 0.0
C1553 C 0.25354 0.38931 0.30459 0.0
C1554 C 0.2221 0.40519 0.2907 0.0
C1555 C 0.31844 0.43741 0.04681 0.0
C1556 C 0.31858 0.43808 0.00928 0.0
C1557 C 0.33142 0.46622 0.0666 0.0
C1558 C 0.34471 0.49656 0.0494 0.0
H1559 H 0.30635 0.41546 0.06107 0.0
H1560 H 0.32862 0.46576 0.09535 0.0
S1561 S 0.35839 0.50818 0.95222 0.0
N1562 N 0.33868 0.46903 0.95595 0.0
N1563 N 0.3628 0.52341 -0.00668 0.0
C1564 C 0.34816 0.49615 0.0121 0.0
C1565 C 0.33517 0.46677 -0.00805 0.0
C1566 C 0.26703 0.58438 0.78143 0.0
C1567 C 0.28959 0.564 0.80307 0.0
C1568 C 0.23815 0.60266 0.79604 0.0
C1569 C 0.23073 0.60108 0.83283 0.0
H1570 H 0.27021 0.58435 0.75272 0.0
H1571 H 0.22011 0.61596 0.77794 0.0
S1572 S 0.28731 0.55864 0.90181 0.0
N1573 N 0.30684 0.54871 0.86365 0.0
N1574 N 0.25241 0.58304 0.89128 0.0
C1575 C 0.25565 0.58433 0.85521 0.0
C1576 C 0.28508 0.56565 0.84025 0.0
C1577 C 0.1458 0.53094 0.57494 0.0
C1578 C 0.14271 0.53272 0.53755 0.0
C1579 C 0.1355 0.50038 0.59351 0.0
C1580 C 0.12186 0.47077 0.57518 0.0
H1581 H 0.1587 0.55214 0.58973 0.0
H1582 H 0.14106 0.49889 0.6218 0.0
S1583 S 0.09958 0.46574 0.47895 0.0
N1584 N 0.11858 0.50512 0.48399 0.0
N1585 N 0.09911 0.44758 0.51899 0.0
C1586 C 0.11465 0.47389 0.53853 0.0
C1587 C 0.1251 0.50498 0.51963 0.0
C1588 C 0.23855 0.55734 0.22572 0.0
C1589 C 0.20488 0.55298 0.21016 0.0
C1590 C 0.26778 0.56786 0.20525 0.0
C1591 C 0.26438 0.57472 0.16849 0.0
H1592 H 0.24281 0.55093 0.25354 0.0
H1593 H 0.29346 0.56959 0.21825 0.0
S1594 S 0.1804 0.57196 0.11637 0.0
N1595 N 0.16871 0.55968 0.15694 0.0
N1596 N 0.22356 0.57981 0.11829 0.0
C1597 C 0.23023 0.57273 0.15317 0.0
C1598 C 0.20051 0.56172 0.17405 0.0
C1599 C 0.16325 0.46287 0.94276 0.0
C1600 C 0.1823 0.44246 0.91773 0.0
C1601 C 0.14499 0.49358 0.93254 0.0
C1602 C 0.14495 0.50502 0.89687 0.0
H1603 H 0.16384 0.45613 0.9708 0.0
H1604 H 0.13229 0.50938 0.95314 0.0
S1605 S 0.18631 0.45757 0.82014 0.0
N1606 N 0.19668 0.43325 0.85519 0.0
N1607 N 0.16223 0.49089 0.8357 0.0
C1608 C 0.16149 0.48313 0.87108 0.0
C1609 C 0.18027 0.4519 0.8816 0.0
C1610 C 0.27661 0.42267 0.66974 0.0
C1611 C 0.28025 0.42173 0.70706 0.0
C1612 C 0.24754 0.40663 0.65282 0.0
C1613 C 0.22103 0.38928 0.67271 0.0
H1614 H 0.29543 0.43734 0.65354 0.0
H1615 H 0.2447 0.40987 0.62428 0.0
S1616 S 0.22152 0.37365 0.77036 0.0
N1617 N 0.25746 0.39781 0.76287 0.0
N1618 N 0.20271 0.36775 0.73103 0.0
C1619 C 0.22584 0.38567 0.70971 0.0
C1620 C 0.2555 0.40189 0.72692 0.0
C1621 C 0.31351 0.52511 0.46004 0.0
C1622 C 0.28564 0.53821 0.4388 0.0
C1623 C 0.33822 0.50077 0.4464 0.0
C1624 C 0.33618 0.48881 0.41091 0.0
H1625 H 0.31561 0.5327 0.48784 0.0
H1626 H 0.35815 0.49008 0.46425 0.0
S1627 S 0.26976 0.5174 0.34333 0.0
N1628 N 0.25872 0.53935 0.37986 0.0
N1629 N 0.30514 0.49377 0.35404 0.0
C1630 C 0.30962 0.50337 0.38874 0.0
C1631 C 0.28429 0.52796 0.40276 0.0
C1632 C 0.29024 0.225 0.41423 0.0
C1633 C 0.30852 0.19589 0.42879 0.0
C1634 C 0.30777 0.25694 0.40711 0.0
C1635 C 0.34435 0.26089 0.41386 0.0
H1636 H 0.26179 0.22377 0.40976 0.0
H1637 H 0.29228 0.27898 0.39687 0.0
S1638 S 0.40527 0.19118 0.44788 0.0
N1639 N 0.36582 0.1718 0.44691 0.0
N1640 N 0.399 0.23208 0.43306 0.0
C1641 C 0.36349 0.2313 0.42631 0.0
C1642 C 0.3455 0.19872 0.43393 0.0
C1643 C 0.8055 0.29016 0.56874 0.0
C1644 C 0.76995 0.2893 0.55714 0.0
C1645 C 0.82128 0.26027 0.58418 0.0
C1646 C 0.80212 0.22836 0.58832 0.0
H1647 H 0.82192 0.31343 0.56409 0.0
H1648 H 0.84936 0.26152 0.59055 0.0
S1649 S 0.70622 0.21468 0.56889 0.0
N1650 N 0.71449 0.25579 0.55575 0.0
N1651 N 0.7442 0.19944 0.58476 0.0
C1652 C 0.76562 0.22824 0.57993 0.0
C1653 C 0.7495 0.25879 0.56433 0.0
C1654 C 0.47054 0.00521 0.33605 0.0
C1655 C 0.44044 0.02646 0.33007 0.0
C1656 C 0.50176 0.02001 0.34983 0.0
C1657 C 0.50394 0.0566 0.35807 0.0
H1658 H 0.4711 0.9777 0.32726 0.0
H1659 H 0.52506 0.00313 0.35125 0.0
S1660 S 0.42869 0.12065 0.35768 0.0
N1661 N 0.41191 0.08358 0.34087 0.0
N1662 N 0.47059 0.11156 0.36711 0.0
C1663 C 0.47243 0.07683 0.35692 0.0
C1664 C 0.44063 0.06171 0.34274 0.0
C1665 C 0.67792 0.69141 0.07675 0.0
C1666 C 0.71481 0.69369 0.07053 0.0
C1667 C 0.65842 0.72131 0.08757 0.0
C1668 C 0.67525 0.75437 0.09256 0.0
H1669 H 0.66351 0.66712 0.07076 0.0
H1670 H 0.62977 0.71901 0.08967 0.0
S1671 S 0.77248 0.77186 0.08838 0.0
N1672 N 0.76821 0.72979 0.07618 0.0
N1673 N 0.73178 0.78593 0.09702 0.0
C1674 C 0.71264 0.75593 0.09017 0.0
C1675 C 0.7324 0.72555 0.07905 0.0
C1676 C 0.55086 0.41933 0.29721 0.0
C1677 C 0.55308 0.45619 0.29117 0.0
C1678 C 0.52187 0.40454 0.31529 0.0
C1679 C 0.4938 0.42605 0.32771 0.0
H1680 H 0.57116 0.40155 0.28702 0.0
H1681 H 0.52072 0.37584 0.31798 0.0
S1682 S 0.48896 0.52465 0.32244 0.0
N1683 N 0.52639 0.5143 0.30188 0.0
N1684 N 0.47171 0.48646 0.33568 0.0
C1685 C 0.49662 0.46317 0.32351 0.0
C1686 C 0.5263 0.47826 0.3053 0.0
C1687 C 0.15615 0.79377 0.94795 0.0
C1688 C 0.19343 0.79671 0.94608 0.0
C1689 C 0.13848 0.76408 0.93378 0.0
C1690 C 0.15762 0.73623 0.91771 0.0
H1691 H 0.14056 0.81392 0.96152 0.0
H1692 H 0.10991 0.76212 0.93705 0.0
S1693 S 0.255 0.7331 0.90193 0.0
N1694 N 0.24847 0.77084 0.92363 0.0
N1695 N 0.21526 0.71495 0.89738 0.0
C1696 C 0.19464 0.73978 0.91386 0.0
C1697 C 0.21257 0.77009 0.92793 0.0
C1698 C 0.44622 0.91181 0.17801 0.0
C1699 C 0.44534 0.94923 0.18093 0.0
C1700 C 0.47657 0.89418 0.16551 0.0
C1701 C 0.50702 0.91343 0.15557 0.0
H1702 H 0.42417 0.89583 0.18749 0.0
H1703 H 0.47693 0.86533 0.1659 0.0
S1704 S 0.51538 0.01194 0.1508 0.0
N1705 N 0.47537 0.00503 0.16757 0.0
N1706 N 0.53236 0.972 0.14376 0.0
C1707 C 0.50517 0.95092 0.15507 0.0
C1708 C 0.47431 0.96883 0.16781 0.0
C1709 C 0.00762 0.02139 0.66676 0.0
C1710 C 0.03677 0.04183 0.67812 0.0
C1711 C 0.97676 0.03774 0.65435 0.0
C1712 C 0.97402 0.0751 0.65271 0.0
H1713 H 0.0076 -0.00732 0.66967 0.0
H1714 H 0.95425 0.02092 0.64776 0.0
S1715 S 0.04595 0.14003 0.672 0.0
N1716 N 0.0634 0.10088 0.68155 0.0
N1717 N 0.00512 0.13177 0.65809 0.0
C1718 C 0.00434 0.09566 0.66042 0.0
C1719 C 0.03582 0.07895 0.67322 0.0
loop_
_geom_bond_atom_site_label_1
_geom_bond_atom_site_label_2
_geom_bond_distance
_geom_bond_site_symmetry_2
_ccdc_geom_bond_type
In0 O1 2.315 . S
In0 O2 2.323 1_455 S
In0 O6 2.287 . S
In0 O7 2.322 1_455 S
In0 O8 2.245 1_455 S
In0 O9 2.329 . S
In0 O11 2.273 1_455 S
In0 O12 2.329 . S
O1 In0 2.315 . S
O1 C10 1.240 . S
O2 In0 2.323 1_655 S
O2 C10 1.252 1_655 S
C3 O6 1.252 . S
C3 O7 1.260 1_455 S
C4 O11 1.240 . S
C4 O12 1.252 1_655 S
C5 O8 1.252 . S
C5 O9 1.260 1_655 S
O6 In0 2.287 . S
O6 C3 1.252 . S
O7 In0 2.322 1_655 S
O7 C3 1.260 1_655 S
O8 In0 2.245 1_655 S
O8 C5 1.252 . S
O9 In0 2.329 . S
O9 C5 1.260 1_455 S
C10 O1 1.240 . S
C10 O2 1.252 1_455 S
O11 In0 2.273 1_655 S
O11 C4 1.240 . S
O12 In0 2.329 . S
O12 C4 1.252 1_455 S
In13 O14 2.282 1_455 S
In13 O15 2.305 1_455 S
In13 O19 2.278 . S
In13 O20 2.347 . S
In13 O21 2.255 1_455 S
In13 O22 2.304 1_455 S
In13 O24 2.306 . S
In13 O25 2.347 . S
O14 In13 2.282 1_655 S
O14 C23 1.240 . S
O15 In13 2.305 1_655 S
O15 C23 1.252 . S
C16 O19 1.252 . S
C16 O20 1.260 . S
C17 O24 1.240 . S
C17 O25 1.252 . S
C18 O21 1.252 . S
C18 O22 1.260 . S
O19 In13 2.278 . S
O19 C16 1.252 . S
O20 In13 2.347 . S
O20 C16 1.260 . S
O21 In13 2.255 1_655 S
O21 C18 1.252 . S
O22 In13 2.304 1_655 S
O22 C18 1.260 . S
C23 O14 1.240 . S
C23 O15 1.252 . S
O24 In13 2.306 . S
O24 C17 1.240 . S
O25 In13 2.347 . S
O25 C17 1.252 . S
In26 O27 2.294 . S
In26 O28 2.326 . S
In26 O32 2.266 . S
In26 O33 2.326 . S
In26 O34 2.266 . S
In26 O35 2.326 . S
In26 O37 2.294 . S
In26 O38 2.326 . S
O27 In26 2.294 . S
O27 C36 1.240 . S
O28 In26 2.326 . S
O28 C36 1.252 . S
C29 O32 1.252 . S
C29 O33 1.260 . S
C30 O37 1.240 . S
C30 O38 1.252 . S
C31 O34 1.252 . S
C31 O35 1.260 . S
O32 In26 2.266 . S
O32 C29 1.252 . S
O33 In26 2.326 . S
O33 C29 1.260 . S
O34 In26 2.266 . S
O34 C31 1.252 . S
O35 In26 2.326 . S
O35 C31 1.260 . S
C36 O27 1.240 . S
C36 O28 1.252 . S
O37 In26 2.294 . S
O37 C30 1.240 . S
O38 In26 2.326 . S
O38 C30 1.252 . S
In39 O40 2.294 . S
In39 O41 2.326 . S
In39 O45 2.266 . S
In39 O46 2.326 . S
In39 O47 2.266 . S
In39 O48 2.326 . S
In39 O50 2.294 . S
In39 O51 2.326 . S
O40 In39 2.294 . S
O40 C49 1.240 . S
O41 In39 2.326 . S
O41 C49 1.252 . S
C42 O45 1.252 . S
C42 O46 1.260 . S
C43 O50 1.240 . S
C43 O51 1.252 . S
C44 O47 1.252 . S
C44 O48 1.260 . S
O45 In39 2.266 . S
O45 C42 1.252 . S
O46 In39 2.326 . S
O46 C42 1.260 . S
O47 In39 2.266 . S
O47 C44 1.252 . S
O48 In39 2.326 . S
O48 C44 1.260 . S
C49 O40 1.240 . S
C49 O41 1.252 . S
O50 In39 2.294 . S
O50 C43 1.240 . S
O51 In39 2.326 . S
O51 C43 1.252 . S
In52 O53 2.294 1_455 S
In52 O54 2.326 . S
In52 O58 2.266 1_455 S
In52 O59 2.326 . S
In52 O60 2.266 . S
In52 O61 2.326 1_455 S
In52 O63 2.294 . S
In52 O64 2.326 1_455 S
O53 In52 2.294 1_655 S
O53 C62 1.240 . S
O54 In52 2.326 . S
O54 C62 1.252 1_455 S
C55 O58 1.252 . S
C55 O59 1.260 1_655 S
C56 O63 1.240 . S
C56 O64 1.252 1_455 S
C57 O60 1.252 . S
C57 O61 1.260 1_455 S
O58 In52 2.266 1_655 S
O58 C55 1.252 . S
O59 In52 2.326 . S
O59 C55 1.260 1_455 S
O60 In52 2.266 . S
O60 C57 1.252 . S
O61 In52 2.326 1_655 S
O61 C57 1.260 1_655 S
C62 O53 1.240 . S
C62 O54 1.252 1_655 S
O63 In52 2.294 . S
O63 C56 1.240 . S
O64 In52 2.326 1_655 S
O64 C56 1.252 1_655 S
In65 O66 2.294 . S
In65 O67 2.326 . S
In65 O71 2.266 . S
In65 O72 2.326 . S
In65 O73 2.266 . S
In65 O74 2.326 . S
In65 O76 2.294 . S
In65 O77 2.326 . S
O66 In65 2.294 . S
O66 C75 1.240 . S
O67 In65 2.326 . S
O67 C75 1.252 . S
C68 O71 1.252 . S
C68 O72 1.260 . S
C69 O76 1.240 . S
C69 O77 1.252 . S
C70 O73 1.252 . S
C70 O74 1.260 . S
O71 In65 2.266 . S
O71 C68 1.252 . S
O72 In65 2.326 . S
O72 C68 1.260 . S
O73 In65 2.266 . S
O73 C70 1.252 . S
O74 In65 2.326 . S
O74 C70 1.260 . S
C75 O66 1.240 . S
C75 O67 1.252 . S
O76 In65 2.294 . S
O76 C69 1.240 . S
O77 In65 2.326 . S
O77 C69 1.252 . S
In78 O79 2.294 . S
In78 O80 2.326 . S
In78 O84 2.266 . S
In78 O85 2.326 . S
In78 O86 2.266 . S
In78 O87 2.326 . S
In78 O89 2.294 . S
In78 O90 2.326 . S
O79 In78 2.294 . S
O79 C88 1.240 . S
O80 In78 2.326 . S
O80 C88 1.252 . S
C81 O84 1.252 . S
C81 O85 1.260 . S
C82 O89 1.240 . S
C82 O90 1.252 . S
C83 O86 1.252 . S
C83 O87 1.260 . S
O84 In78 2.266 . S
O84 C81 1.252 . S
O85 In78 2.326 . S
O85 C81 1.260 . S
O86 In78 2.266 . S
O86 C83 1.252 . S
O87 In78 2.326 . S
O87 C83 1.260 . S
C88 O79 1.240 . S
C88 O80 1.252 . S
O89 In78 2.294 . S
O89 C82 1.240 . S
O90 In78 2.326 . S
O90 C82 1.252 . S
In91 O92 2.301 . S
In91 O93 2.338 . S
In91 O97 2.260 1_455 S
In91 O98 2.314 1_455 S
In91 O99 2.273 . S
In91 O100 2.337 . S
In91 O102 2.287 1_455 S
In91 O103 2.315 1_455 S
O92 In91 2.301 . S
O92 C101 1.240 . S
O93 In91 2.338 . S
O93 C101 1.252 . S
C94 O97 1.252 . S
C94 O98 1.260 . S
C95 O102 1.240 . S
C95 O103 1.252 . S
C96 O99 1.252 . S
C96 O100 1.260 . S
O97 In91 2.260 1_655 S
O97 C94 1.252 . S
O98 In91 2.314 1_655 S
O98 C94 1.260 . S
O99 In91 2.273 . S
O99 C96 1.252 . S
O100 In91 2.337 . S
O100 C96 1.260 . S
C101 O92 1.240 . S
C101 O93 1.252 . S
O102 In91 2.287 1_655 S
O102 C95 1.240 . S
O103 In91 2.315 1_655 S
O103 C95 1.252 . S
In104 O105 2.273 1_545 S
In104 O106 2.329 . S
In104 O110 2.245 1_545 S
In104 O111 2.329 . S
In104 O112 2.287 . S
In104 O113 2.322 1_545 S
In104 O115 2.315 . S
In104 O116 2.323 1_545 S
O105 In104 2.273 1_565 S
O105 C114 1.240 . S
O106 In104 2.329 . S
O106 C114 1.252 1_545 S
C107 O110 1.252 . S
C107 O111 1.260 1_565 S
C108 O115 1.240 . S
C108 O116 1.252 1_545 S
C109 O112 1.252 . S
C109 O113 1.260 1_545 S
O110 In104 2.245 1_565 S
O110 C107 1.252 . S
O111 In104 2.329 . S
O111 C107 1.260 1_545 S
O112 In104 2.287 . S
O112 C109 1.252 . S
O113 In104 2.322 1_565 S
O113 C109 1.260 1_565 S
C114 O105 1.240 . S
C114 O106 1.252 1_565 S
O115 In104 2.315 . S
O115 C108 1.240 . S
O116 In104 2.323 1_565 S
O116 C108 1.252 1_565 S
In117 O118 2.294 . S
In117 O119 2.326 . S
In117 O123 2.266 . S
In117 O124 2.326 . S
In117 O125 2.266 . S
In117 O126 2.326 . S
In117 O128 2.294 . S
In117 O129 2.326 . S
O118 In117 2.294 . S
O118 C127 1.240 . S
O119 In117 2.326 . S
O119 C127 1.252 . S
C120 O123 1.252 . S
C120 O124 1.260 . S
C121 O128 1.240 . S
C121 O129 1.252 . S
C122 O125 1.252 . S
C122 O126 1.260 . S
O123 In117 2.266 . S
O123 C120 1.252 . S
O124 In117 2.326 . S
O124 C120 1.260 . S
O125 In117 2.266 . S
O125 C122 1.252 . S
O126 In117 2.326 . S
O126 C122 1.260 . S
C127 O118 1.240 . S
C127 O119 1.252 . S
O128 In117 2.294 . S
O128 C121 1.240 . S
O129 In117 2.326 . S
O129 C121 1.252 . S
In130 O131 2.294 1_545 S
In130 O132 2.326 . S
In130 O136 2.266 1_545 S
In130 O137 2.326 . S
In130 O138 2.266 . S
In130 O139 2.326 1_545 S
In130 O141 2.294 . S
In130 O142 2.326 1_545 S
O131 In130 2.294 1_565 S
O131 C140 1.240 . S
O132 In130 2.326 . S
O132 C140 1.252 1_545 S
C133 O136 1.252 . S
C133 O137 1.260 1_565 S
C134 O141 1.240 . S
C134 O142 1.252 1_545 S
C135 O138 1.252 . S
C135 O139 1.260 1_545 S
O136 In130 2.266 1_565 S
O136 C133 1.252 . S
O137 In130 2.326 . S
O137 C133 1.260 1_545 S
O138 In130 2.266 . S
O138 C135 1.252 . S
O139 In130 2.326 1_565 S
O139 C135 1.260 1_565 S
C140 O131 1.240 . S
C140 O132 1.252 1_565 S
O141 In130 2.294 . S
O141 C134 1.240 . S
O142 In130 2.326 1_565 S
O142 C134 1.252 1_565 S
In143 O144 2.301 . S
In143 O145 2.338 . S
In143 O149 2.260 1_554 S
In143 O150 2.314 1_554 S
In143 O151 2.273 . S
In143 O152 2.337 . S
In143 O154 2.287 1_554 S
In143 O155 2.315 1_554 S
O144 In143 2.301 . S
O144 C153 1.240 . S
O145 In143 2.338 . S
O145 C153 1.252 . S
C146 O149 1.252 . S
C146 O150 1.260 . S
C147 O154 1.240 . S
C147 O155 1.252 . S
C148 O151 1.252 . S
C148 O152 1.260 . S
O149 In143 2.260 1_556 S
O149 C146 1.252 . S
O150 In143 2.314 1_556 S
O150 C146 1.260 . S
O151 In143 2.273 . S
O151 C148 1.252 . S
O152 In143 2.337 . S
O152 C148 1.260 . S
C153 O144 1.240 . S
C153 O145 1.252 . S
O154 In143 2.287 1_556 S
O154 C147 1.240 . S
O155 In143 2.315 1_556 S
O155 C147 1.252 . S
In156 O157 2.273 1_554 S
In156 O158 2.329 . S
In156 O162 2.245 1_554 S
In156 O163 2.329 . S
In156 O164 2.287 . S
In156 O165 2.322 1_554 S
In156 O167 2.315 . S
In156 O168 2.323 1_554 S
O157 In156 2.273 1_556 S
O157 C166 1.240 . S
O158 In156 2.329 . S
O158 C166 1.252 1_554 S
C159 O162 1.252 . S
C159 O163 1.260 1_556 S
C160 O167 1.240 . S
C160 O168 1.252 1_554 S
C161 O164 1.252 . S
C161 O165 1.260 1_554 S
O162 In156 2.245 1_556 S
O162 C159 1.252 . S
O163 In156 2.329 . S
O163 C159 1.260 1_554 S
O164 In156 2.287 . S
O164 C161 1.252 . S
O165 In156 2.322 1_556 S
O165 C161 1.260 1_556 S
C166 O157 1.240 . S
C166 O158 1.252 1_556 S
O167 In156 2.315 . S
O167 C160 1.240 . S
O168 In156 2.323 1_556 S
O168 C160 1.252 1_556 S
In169 O170 2.294 . S
In169 O171 2.326 1_554 S
In169 O175 2.266 . S
In169 O176 2.326 1_554 S
In169 O177 2.266 1_554 S
In169 O178 2.326 . S
In169 O180 2.294 1_554 S
In169 O181 2.326 . S
O170 In169 2.294 . S
O170 C179 1.240 . S
O171 In169 2.326 1_556 S
O171 C179 1.252 1_556 S
C172 O175 1.252 . S
C172 O176 1.260 1_554 S
C173 O180 1.240 . S
C173 O181 1.252 1_556 S
C174 O177 1.252 . S
C174 O178 1.260 1_556 S
O175 In169 2.266 . S
O175 C172 1.252 . S
O176 In169 2.326 1_556 S
O176 C172 1.260 1_556 S
O177 In169 2.266 1_556 S
O177 C174 1.252 . S
O178 In169 2.326 . S
O178 C174 1.260 1_554 S
C179 O170 1.240 . S
C179 O171 1.252 1_554 S
O180 In169 2.294 1_556 S
O180 C173 1.240 . S
O181 In169 2.326 . S
O181 C173 1.252 1_554 S
In182 O183 2.294 . S
In182 O184 2.326 . S
In182 O188 2.266 . S
In182 O189 2.326 . S
In182 O190 2.266 . S
In182 O191 2.326 . S
In182 O193 2.294 . S
In182 O194 2.326 . S
O183 In182 2.294 . S
O183 C192 1.240 . S
O184 In182 2.326 . S
O184 C192 1.252 . S
C185 O188 1.252 . S
C185 O189 1.260 . S
C186 O193 1.240 . S
C186 O194 1.252 . S
C187 O190 1.252 . S
C187 O191 1.260 . S
O188 In182 2.266 . S
O188 C185 1.252 . S
O189 In182 2.326 . S
O189 C185 1.260 . S
O190 In182 2.266 . S
O190 C187 1.252 . S
O191 In182 2.326 . S
O191 C187 1.260 . S
C192 O183 1.240 . S
C192 O184 1.252 . S
O193 In182 2.294 . S
O193 C186 1.240 . S
O194 In182 2.326 . S
O194 C186 1.252 . S
In195 O196 2.294 . S
In195 O197 2.326 . S
In195 O201 2.266 . S
In195 O202 2.326 . S
In195 O203 2.266 . S
In195 O204 2.326 . S
In195 O206 2.294 . S
In195 O207 2.326 . S
O196 In195 2.294 . S
O196 C205 1.240 . S
O197 In195 2.326 . S
O197 C205 1.252 . S
C198 O201 1.252 . S
C198 O202 1.260 . S
C199 O206 1.240 . S
C199 O207 1.252 . S
C200 O203 1.252 . S
C200 O204 1.260 . S
O201 In195 2.266 . S
O201 C198 1.252 . S
O202 In195 2.326 . S
O202 C198 1.260 . S
O203 In195 2.266 . S
O203 C200 1.252 . S
O204 In195 2.326 . S
O204 C200 1.260 . S
C205 O196 1.240 . S
C205 O197 1.252 . S
O206 In195 2.294 . S
O206 C199 1.240 . S
O207 In195 2.326 . S
O207 C199 1.252 . S
In208 O209 2.287 1_545 S
In208 O210 2.315 1_545 S
In208 O214 2.273 . S
In208 O215 2.337 . S
In208 O216 2.260 1_545 S
In208 O217 2.314 1_545 S
In208 O219 2.301 . S
In208 O220 2.338 . S
O209 In208 2.287 1_565 S
O209 C218 1.240 . S
O210 In208 2.315 1_565 S
O210 C218 1.252 . S
C211 O214 1.252 . S
C211 O215 1.260 . S
C212 O219 1.240 . S
C212 O220 1.252 . S
C213 O216 1.252 . S
C213 O217 1.260 . S
O214 In208 2.273 . S
O214 C211 1.252 . S
O215 In208 2.337 . S
O215 C211 1.260 . S
O216 In208 2.260 1_565 S
O216 C213 1.252 . S
O217 In208 2.314 1_565 S
O217 C213 1.260 . S
C218 O209 1.240 . S
C218 O210 1.252 . S
O219 In208 2.301 . S
O219 C212 1.240 . S
O220 In208 2.338 . S
O220 C212 1.252 . S
In221 O222 2.294 . S
In221 O223 2.326 . S
In221 O227 2.266 . S
In221 O228 2.326 . S
In221 O229 2.266 . S
In221 O230 2.326 . S
In221 O232 2.294 . S
In221 O233 2.326 . S
O222 In221 2.294 . S
O222 C231 1.240 . S
O223 In221 2.326 . S
O223 C231 1.252 . S
C224 O227 1.252 . S
C224 O228 1.260 . S
C225 O232 1.240 . S
C225 O233 1.252 . S
C226 O229 1.252 . S
C226 O230 1.260 . S
O227 In221 2.266 . S
O227 C224 1.252 . S
O228 In221 2.326 . S
O228 C224 1.260 . S
O229 In221 2.266 . S
O229 C226 1.252 . S
O230 In221 2.326 . S
O230 C226 1.260 . S
C231 O222 1.240 . S
C231 O223 1.252 . S
O232 In221 2.294 . S
O232 C225 1.240 . S
O233 In221 2.326 . S
O233 C225 1.252 . S
In234 O235 2.294 . S
In234 O236 2.326 . S
In234 O240 2.266 . S
In234 O241 2.326 . S
In234 O242 2.266 . S
In234 O243 2.326 . S
In234 O245 2.294 . S
In234 O246 2.326 . S
O235 In234 2.294 . S
O235 C244 1.240 . S
O236 In234 2.326 . S
O236 C244 1.252 . S
C237 O240 1.252 . S
C237 O241 1.260 . S
C238 O245 1.240 . S
C238 O246 1.252 . S
C239 O242 1.252 . S
C239 O243 1.260 . S
O240 In234 2.266 . S
O240 C237 1.252 . S
O241 In234 2.326 . S
O241 C237 1.260 . S
O242 In234 2.266 . S
O242 C239 1.252 . S
O243 In234 2.326 . S
O243 C239 1.260 . S
C244 O235 1.240 . S
C244 O236 1.252 . S
O245 In234 2.294 . S
O245 C238 1.240 . S
O246 In234 2.326 . S
O246 C238 1.252 . S
In247 O248 2.282 1_545 S
In247 O249 2.305 1_545 S
In247 O253 2.278 . S
In247 O254 2.347 . S
In247 O255 2.255 1_545 S
In247 O256 2.304 1_545 S
In247 O258 2.306 . S
In247 O259 2.347 . S
O248 In247 2.282 1_565 S
O248 C257 1.240 . S
O249 In247 2.305 1_565 S
O249 C257 1.252 . S
C250 O253 1.252 . S
C250 O254 1.260 . S
C251 O258 1.240 . S
C251 O259 1.252 . S
C252 O255 1.252 . S
C252 O256 1.260 . S
O253 In247 2.278 . S
O253 C250 1.252 . S
O254 In247 2.347 . S
O254 C250 1.260 . S
O255 In247 2.255 1_565 S
O255 C252 1.252 . S
O256 In247 2.304 1_565 S
O256 C252 1.260 . S
C257 O248 1.240 . S
C257 O249 1.252 . S
O258 In247 2.306 . S
O258 C251 1.240 . S
O259 In247 2.347 . S
O259 C251 1.252 . S
In260 O261 2.306 . S
In260 O262 2.347 . S
In260 O266 2.255 1_554 S
In260 O267 2.304 1_554 S
In260 O268 2.278 . S
In260 O269 2.347 . S
In260 O271 2.282 1_554 S
In260 O272 2.305 1_554 S
O261 In260 2.306 . S
O261 C270 1.240 . S
O262 In260 2.347 . S
O262 C270 1.252 . S
C263 O266 1.252 . S
C263 O267 1.260 . S
C264 O271 1.240 . S
C264 O272 1.252 . S
C265 O268 1.252 . S
C265 O269 1.260 . S
O266 In260 2.255 1_556 S
O266 C263 1.252 . S
O267 In260 2.304 1_556 S
O267 C263 1.260 . S
O268 In260 2.278 . S
O268 C265 1.252 . S
O269 In260 2.347 . S
O269 C265 1.260 . S
C270 O261 1.240 . S
C270 O262 1.252 . S
O271 In260 2.282 1_556 S
O271 C264 1.240 . S
O272 In260 2.305 1_556 S
O272 C264 1.252 . S
In273 O274 2.294 . S
In273 O275 2.326 . S
In273 O279 2.266 . S
In273 O280 2.326 . S
In273 O281 2.266 . S
In273 O282 2.326 . S
In273 O284 2.294 . S
In273 O285 2.326 . S
O274 In273 2.294 . S
O274 C283 1.240 . S
O275 In273 2.326 . S
O275 C283 1.252 . S
C276 O279 1.252 . S
C276 O280 1.260 . S
C277 O284 1.240 . S
C277 O285 1.252 . S
C278 O281 1.252 . S
C278 O282 1.260 . S
O279 In273 2.266 . S
O279 C276 1.252 . S
O280 In273 2.326 . S
O280 C276 1.260 . S
O281 In273 2.266 . S
O281 C278 1.252 . S
O282 In273 2.326 . S
O282 C278 1.260 . S
C283 O274 1.240 . S
C283 O275 1.252 . S
O284 In273 2.294 . S
O284 C277 1.240 . S
O285 In273 2.326 . S
O285 C277 1.252 . S
In286 O287 2.294 . S
In286 O288 2.326 . S
In286 O292 2.266 . S
In286 O293 2.326 . S
In286 O294 2.266 . S
In286 O295 2.326 . S
In286 O297 2.294 . S
In286 O298 2.326 . S
O287 In286 2.294 . S
O287 C296 1.240 . S
O288 In286 2.326 . S
O288 C296 1.252 . S
C289 O292 1.252 . S
C289 O293 1.260 . S
C290 O297 1.240 . S
C290 O298 1.252 . S
C291 O294 1.252 . S
C291 O295 1.260 . S
O292 In286 2.266 . S
O292 C289 1.252 . S
O293 In286 2.326 . S
O293 C289 1.260 . S
O294 In286 2.266 . S
O294 C291 1.252 . S
O295 In286 2.326 . S
O295 C291 1.260 . S
C296 O287 1.240 . S
C296 O288 1.252 . S
O297 In286 2.294 . S
O297 C290 1.240 . S
O298 In286 2.326 . S
O298 C290 1.252 . S
In299 O300 2.294 . S
In299 O301 2.326 . S
In299 O305 2.266 . S
In299 O306 2.326 . S
In299 O307 2.266 . S
In299 O308 2.326 . S
In299 O310 2.294 . S
In299 O311 2.326 . S
O300 In299 2.294 . S
O300 C309 1.240 . S
O301 In299 2.326 . S
O301 C309 1.252 . S
C302 O305 1.252 . S
C302 O306 1.260 . S
C303 O310 1.240 . S
C303 O311 1.252 . S
C304 O307 1.252 . S
C304 O308 1.260 . S
O305 In299 2.266 . S
O305 C302 1.252 . S
O306 In299 2.326 . S
O306 C302 1.260 . S
O307 In299 2.266 . S
O307 C304 1.252 . S
O308 In299 2.326 . S
O308 C304 1.260 . S
C309 O300 1.240 . S
C309 O301 1.252 . S
O310 In299 2.294 . S
O310 C303 1.240 . S
O311 In299 2.326 . S
O311 C303 1.252 . S
Sc312 O315 2.025 . S
Sc312 O322 2.105 . S
Sc312 O325 2.105 . S
Sc312 O328 2.105 . S
Sc312 O331 2.105 . S
Sc313 O315 2.025 . S
Sc313 O323 2.105 . S
Sc313 O327 2.105 . S
Sc313 O329 2.105 . S
Sc313 O333 2.105 . S
Sc314 O315 2.025 . S
Sc314 O324 2.105 . S
Sc314 O326 2.105 . S
Sc314 O330 2.105 . S
Sc314 O332 2.105 . S
O315 Sc312 2.025 . S
O315 Sc313 2.025 . S
O315 Sc314 2.025 . S
C316 O322 1.268 . S
C316 O332 1.268 . S
C317 O323 1.268 . S
C317 O331 1.268 . S
C318 O324 1.268 . S
C318 O333 1.268 . S
C319 O325 1.268 . S
C319 O329 1.268 . S
C320 O326 1.268 . S
C320 O328 1.268 . S
C321 O327 1.268 . S
C321 O330 1.268 . S
O322 Sc312 2.105 . S
O322 C316 1.268 . S
O323 Sc313 2.105 . S
O323 C317 1.268 . S
O324 Sc314 2.105 . S
O324 C318 1.268 . S
O325 Sc312 2.105 . S
O325 C319 1.268 . S
O326 Sc314 2.105 . S
O326 C320 1.268 . S
O327 Sc313 2.105 . S
O327 C321 1.268 . S
O328 Sc312 2.105 . S
O328 C320 1.268 . S
O329 Sc313 2.105 . S
O329 C319 1.268 . S
O330 Sc314 2.105 . S
O330 C321 1.268 . S
O331 Sc312 2.105 . S
O331 C317 1.268 . S
O332 Sc314 2.105 . S
O332 C316 1.268 . S
O333 Sc313 2.105 . S
O333 C318 1.268 . S
Sc334 O337 2.025 . S
Sc334 O344 2.105 . S
Sc334 O347 2.105 . S
Sc334 O350 2.105 . S
Sc334 O353 2.105 . S
Sc335 O337 2.025 . S
Sc335 O345 2.105 . S
Sc335 O349 2.105 . S
Sc335 O351 2.105 . S
Sc335 O355 2.105 . S
Sc336 O337 2.025 . S
Sc336 O346 2.105 . S
Sc336 O348 2.105 . S
Sc336 O352 2.105 . S
Sc336 O354 2.105 . S
O337 Sc334 2.025 . S
O337 Sc335 2.025 . S
O337 Sc336 2.025 . S
C338 O344 1.268 . S
C338 O354 1.268 . S
C339 O345 1.268 . S
C339 O353 1.268 . S
C340 O346 1.268 . S
C340 O355 1.268 . S
C341 O347 1.268 . S
C341 O351 1.268 . S
C342 O348 1.268 . S
C342 O350 1.268 . S
C343 O349 1.268 . S
C343 O352 1.268 . S
O344 Sc334 2.105 . S
O344 C338 1.268 . S
O345 Sc335 2.105 . S
O345 C339 1.268 . S
O346 Sc336 2.105 . S
O346 C340 1.268 . S
O347 Sc334 2.105 . S
O347 C341 1.268 . S
O348 Sc336 2.105 . S
O348 C342 1.268 . S
O349 Sc335 2.105 . S
O349 C343 1.268 . S
O350 Sc334 2.105 . S
O350 C342 1.268 . S
O351 Sc335 2.105 . S
O351 C341 1.268 . S
O352 Sc336 2.105 . S
O352 C343 1.268 . S
O353 Sc334 2.105 . S
O353 C339 1.268 . S
O354 Sc336 2.105 . S
O354 C338 1.268 . S
O355 Sc335 2.105 . S
O355 C340 1.268 . S
Sc356 O359 2.025 . S
Sc356 O366 2.105 . S
Sc356 O369 2.105 . S
Sc356 O372 2.105 . S
Sc356 O375 2.105 . S
Sc357 O359 2.025 . S
Sc357 O367 2.105 . S
Sc357 O371 2.105 . S
Sc357 O373 2.105 . S
Sc357 O377 2.105 . S
Sc358 O359 2.025 . S
Sc358 O368 2.105 . S
Sc358 O370 2.105 . S
Sc358 O374 2.105 . S
Sc358 O376 2.105 . S
O359 Sc356 2.025 . S
O359 Sc357 2.025 . S
O359 Sc358 2.025 . S
C360 O366 1.268 . S
C360 O376 1.268 . S
C361 O367 1.268 . S
C361 O375 1.268 . S
C362 O368 1.268 . S
C362 O377 1.268 . S
C363 O369 1.268 . S
C363 O373 1.268 . S
C364 O370 1.268 . S
C364 O372 1.268 . S
C365 O371 1.268 . S
C365 O374 1.268 . S
O366 Sc356 2.105 . S
O366 C360 1.268 . S
O367 Sc357 2.105 . S
O367 C361 1.268 . S
O368 Sc358 2.105 . S
O368 C362 1.268 . S
O369 Sc356 2.105 . S
O369 C363 1.268 . S
O370 Sc358 2.105 . S
O370 C364 1.268 . S
O371 Sc357 2.105 . S
O371 C365 1.268 . S
O372 Sc356 2.105 . S
O372 C364 1.268 . S
O373 Sc357 2.105 . S
O373 C363 1.268 . S
O374 Sc358 2.105 . S
O374 C365 1.268 . S
O375 Sc356 2.105 . S
O375 C361 1.268 . S
O376 Sc358 2.105 . S
O376 C360 1.268 . S
O377 Sc357 2.105 . S
O377 C362 1.268 . S
Sc378 O381 2.025 . S
Sc378 O388 2.105 . S
Sc378 O391 2.105 . S
Sc378 O394 2.105 . S
Sc378 O397 2.105 . S
Sc379 O381 2.025 . S
Sc379 O389 2.105 . S
Sc379 O393 2.105 . S
Sc379 O395 2.105 . S
Sc379 O399 2.105 . S
Sc380 O381 2.025 . S
Sc380 O390 2.105 . S
Sc380 O392 2.105 . S
Sc380 O396 2.105 . S
Sc380 O398 2.105 . S
O381 Sc378 2.025 . S
O381 Sc379 2.025 . S
O381 Sc380 2.025 . S
C382 O388 1.268 . S
C382 O398 1.268 . S
C383 O389 1.268 . S
C383 O397 1.268 . S
C384 O390 1.268 . S
C384 O399 1.268 . S
C385 O391 1.268 . S
C385 O395 1.268 . S
C386 O392 1.268 . S
C386 O394 1.268 . S
C387 O393 1.268 . S
C387 O396 1.268 . S
O388 Sc378 2.105 . S
O388 C382 1.268 . S
O389 Sc379 2.105 . S
O389 C383 1.268 . S
O390 Sc380 2.105 . S
O390 C384 1.268 . S
O391 Sc378 2.105 . S
O391 C385 1.268 . S
O392 Sc380 2.105 . S
O392 C386 1.268 . S
O393 Sc379 2.105 . S
O393 C387 1.268 . S
O394 Sc378 2.105 . S
O394 C386 1.268 . S
O395 Sc379 2.105 . S
O395 C385 1.268 . S
O396 Sc380 2.105 . S
O396 C387 1.268 . S
O397 Sc378 2.105 . S
O397 C383 1.268 . S
O398 Sc380 2.105 . S
O398 C382 1.268 . S
O399 Sc379 2.105 . S
O399 C384 1.268 . S
Sc400 O403 2.025 . S
Sc400 O410 2.105 . S
Sc400 O413 2.105 . S
Sc400 O416 2.105 . S
Sc400 O419 2.105 . S
Sc401 O403 2.025 . S
Sc401 O411 2.105 . S
Sc401 O415 2.105 . S
Sc401 O417 2.105 . S
Sc401 O421 2.105 . S
Sc402 O403 2.025 . S
Sc402 O412 2.105 . S
Sc402 O414 2.105 . S
Sc402 O418 2.105 . S
Sc402 O420 2.105 . S
O403 Sc400 2.025 . S
O403 Sc401 2.025 . S
O403 Sc402 2.025 . S
C404 O410 1.268 . S
C404 O420 1.268 . S
C405 O411 1.268 . S
C405 O419 1.268 . S
C406 O412 1.268 . S
C406 O421 1.268 . S
C407 O413 1.268 . S
C407 O417 1.268 . S
C408 O414 1.268 . S
C408 O416 1.268 . S
C409 O415 1.268 . S
C409 O418 1.268 . S
O410 Sc400 2.105 . S
O410 C404 1.268 . S
O411 Sc401 2.105 . S
O411 C405 1.268 . S
O412 Sc402 2.105 . S
O412 C406 1.268 . S
O413 Sc400 2.105 . S
O413 C407 1.268 . S
O414 Sc402 2.105 . S
O414 C408 1.268 . S
O415 Sc401 2.105 . S
O415 C409 1.268 . S
O416 Sc400 2.105 . S
O416 C408 1.268 . S
O417 Sc401 2.105 . S
O417 C407 1.268 . S
O418 Sc402 2.105 . S
O418 C409 1.268 . S
O419 Sc400 2.105 . S
O419 C405 1.268 . S
O420 Sc402 2.105 . S
O420 C404 1.268 . S
O421 Sc401 2.105 . S
O421 C406 1.268 . S
Sc422 O425 2.025 . S
Sc422 O432 2.105 . S
Sc422 O435 2.105 . S
Sc422 O438 2.105 . S
Sc422 O441 2.105 . S
Sc423 O425 2.025 . S
Sc423 O433 2.105 . S
Sc423 O437 2.105 . S
Sc423 O439 2.105 . S
Sc423 O443 2.105 . S
Sc424 O425 2.025 . S
Sc424 O434 2.105 . S
Sc424 O436 2.105 . S
Sc424 O440 2.105 . S
Sc424 O442 2.105 . S
O425 Sc422 2.025 . S
O425 Sc423 2.025 . S
O425 Sc424 2.025 . S
C426 O432 1.268 . S
C426 O442 1.268 . S
C427 O433 1.268 . S
C427 O441 1.268 . S
C428 O434 1.268 . S
C428 O443 1.268 . S
C429 O435 1.268 . S
C429 O439 1.268 . S
C430 O436 1.268 . S
C430 O438 1.268 . S
C431 O437 1.268 . S
C431 O440 1.268 . S
O432 Sc422 2.105 . S
O432 C426 1.268 . S
O433 Sc423 2.105 . S
O433 C427 1.268 . S
O434 Sc424 2.105 . S
O434 C428 1.268 . S
O435 Sc422 2.105 . S
O435 C429 1.268 . S
O436 Sc424 2.105 . S
O436 C430 1.268 . S
O437 Sc423 2.105 . S
O437 C431 1.268 . S
O438 Sc422 2.105 . S
O438 C430 1.268 . S
O439 Sc423 2.105 . S
O439 C429 1.268 . S
O440 Sc424 2.105 . S
O440 C431 1.268 . S
O441 Sc422 2.105 . S
O441 C427 1.268 . S
O442 Sc424 2.105 . S
O442 C426 1.268 . S
O443 Sc423 2.105 . S
O443 C428 1.268 . S
Sc444 O447 2.025 . S
Sc444 O454 2.105 . S
Sc444 O457 2.105 . S
Sc444 O460 2.105 . S
Sc444 O463 2.105 . S
Sc445 O447 2.025 . S
Sc445 O455 2.105 . S
Sc445 O459 2.105 . S
Sc445 O461 2.105 . S
Sc445 O465 2.105 . S
Sc446 O447 2.025 . S
Sc446 O456 2.105 . S
Sc446 O458 2.105 . S
Sc446 O462 2.105 . S
Sc446 O464 2.105 . S
O447 Sc444 2.025 . S
O447 Sc445 2.025 . S
O447 Sc446 2.025 . S
C448 O454 1.268 . S
C448 O464 1.268 . S
C449 O455 1.268 . S
C449 O463 1.268 . S
C450 O456 1.268 . S
C450 O465 1.268 . S
C451 O457 1.268 . S
C451 O461 1.268 . S
C452 O458 1.268 . S
C452 O460 1.268 . S
C453 O459 1.268 . S
C453 O462 1.268 . S
O454 Sc444 2.105 . S
O454 C448 1.268 . S
O455 Sc445 2.105 . S
O455 C449 1.268 . S
O456 Sc446 2.105 . S
O456 C450 1.268 . S
O457 Sc444 2.105 . S
O457 C451 1.268 . S
O458 Sc446 2.105 . S
O458 C452 1.268 . S
O459 Sc445 2.105 . S
O459 C453 1.268 . S
O460 Sc444 2.105 . S
O460 C452 1.268 . S
O461 Sc445 2.105 . S
O461 C451 1.268 . S
O462 Sc446 2.105 . S
O462 C453 1.268 . S
O463 Sc444 2.105 . S
O463 C449 1.268 . S
O464 Sc446 2.105 . S
O464 C448 1.268 . S
O465 Sc445 2.105 . S
O465 C450 1.268 . S
Sc466 O469 2.025 . S
Sc466 O476 2.105 . S
Sc466 O479 2.105 . S
Sc466 O482 2.105 . S
Sc466 O485 2.105 . S
Sc467 O469 2.025 . S
Sc467 O477 2.105 . S
Sc467 O481 2.105 . S
Sc467 O483 2.105 . S
Sc467 O487 2.105 . S
Sc468 O469 2.025 . S
Sc468 O478 2.105 . S
Sc468 O480 2.105 . S
Sc468 O484 2.105 . S
Sc468 O486 2.105 . S
O469 Sc466 2.025 . S
O469 Sc467 2.025 . S
O469 Sc468 2.025 . S
C470 O476 1.268 . S
C470 O486 1.268 . S
C471 O477 1.268 . S
C471 O485 1.268 . S
C472 O478 1.268 . S
C472 O487 1.268 . S
C473 O479 1.268 . S
C473 O483 1.268 . S
C474 O480 1.268 . S
C474 O482 1.268 . S
C475 O481 1.268 . S
C475 O484 1.268 . S
O476 Sc466 2.105 . S
O476 C470 1.268 . S
O477 Sc467 2.105 . S
O477 C471 1.268 . S
O478 Sc468 2.105 . S
O478 C472 1.268 . S
O479 Sc466 2.105 . S
O479 C473 1.268 . S
O480 Sc468 2.105 . S
O480 C474 1.268 . S
O481 Sc467 2.105 . S
O481 C475 1.268 . S
O482 Sc466 2.105 . S
O482 C474 1.268 . S
O483 Sc467 2.105 . S
O483 C473 1.268 . S
O484 Sc468 2.105 . S
O484 C475 1.268 . S
O485 Sc466 2.105 . S
O485 C471 1.268 . S
O486 Sc468 2.105 . S
O486 C470 1.268 . S
O487 Sc467 2.105 . S
O487 C472 1.268 . S
Sc488 O491 2.025 . S
Sc488 O498 2.105 . S
Sc488 O501 2.105 . S
Sc488 O504 2.105 . S
Sc488 O507 2.105 . S
Sc489 O491 2.025 . S
Sc489 O499 2.105 . S
Sc489 O503 2.105 . S
Sc489 O505 2.105 . S
Sc489 O509 2.105 . S
Sc490 O491 2.025 . S
Sc490 O500 2.105 . S
Sc490 O502 2.105 . S
Sc490 O506 2.105 . S
Sc490 O508 2.105 . S
O491 Sc488 2.025 . S
O491 Sc489 2.025 . S
O491 Sc490 2.025 . S
C492 O498 1.268 . S
C492 O508 1.268 . S
C493 O499 1.268 . S
C493 O507 1.268 . S
C494 O500 1.268 . S
C494 O509 1.268 . S
C495 O501 1.268 . S
C495 O505 1.268 . S
C496 O502 1.268 . S
C496 O504 1.268 . S
C497 O503 1.268 . S
C497 O506 1.268 . S
O498 Sc488 2.105 . S
O498 C492 1.268 . S
O499 Sc489 2.105 . S
O499 C493 1.268 . S
O500 Sc490 2.105 . S
O500 C494 1.268 . S
O501 Sc488 2.105 . S
O501 C495 1.268 . S
O502 Sc490 2.105 . S
O502 C496 1.268 . S
O503 Sc489 2.105 . S
O503 C497 1.268 . S
O504 Sc488 2.105 . S
O504 C496 1.268 . S
O505 Sc489 2.105 . S
O505 C495 1.268 . S
O506 Sc490 2.105 . S
O506 C497 1.268 . S
O507 Sc488 2.105 . S
O507 C493 1.268 . S
O508 Sc490 2.105 . S
O508 C492 1.268 . S
O509 Sc489 2.105 . S
O509 C494 1.268 . S
Sc510 O513 2.025 . S
Sc510 O520 2.105 . S
Sc510 O523 2.105 . S
Sc510 O526 2.105 . S
Sc510 O529 2.105 . S
Sc511 O513 2.025 . S
Sc511 O521 2.105 . S
Sc511 O525 2.105 . S
Sc511 O527 2.105 . S
Sc511 O531 2.105 . S
Sc512 O513 2.025 . S
Sc512 O522 2.105 . S
Sc512 O524 2.105 . S
Sc512 O528 2.105 . S
Sc512 O530 2.105 . S
O513 Sc510 2.025 . S
O513 Sc511 2.025 . S
O513 Sc512 2.025 . S
C514 O520 1.268 . S
C514 O530 1.268 . S
C515 O521 1.268 . S
C515 O529 1.268 . S
C516 O522 1.268 . S
C516 O531 1.268 . S
C517 O523 1.268 . S
C517 O527 1.268 . S
C518 O524 1.268 . S
C518 O526 1.268 . S
C519 O525 1.268 . S
C519 O528 1.268 . S
O520 Sc510 2.105 . S
O520 C514 1.268 . S
O521 Sc511 2.105 . S
O521 C515 1.268 . S
O522 Sc512 2.105 . S
O522 C516 1.268 . S
O523 Sc510 2.105 . S
O523 C517 1.268 . S
O524 Sc512 2.105 . S
O524 C518 1.268 . S
O525 Sc511 2.105 . S
O525 C519 1.268 . S
O526 Sc510 2.105 . S
O526 C518 1.268 . S
O527 Sc511 2.105 . S
O527 C517 1.268 . S
O528 Sc512 2.105 . S
O528 C519 1.268 . S
O529 Sc510 2.105 . S
O529 C515 1.268 . S
O530 Sc512 2.105 . S
O530 C514 1.268 . S
O531 Sc511 2.105 . S
O531 C516 1.268 . S
Sc532 O535 2.025 . S
Sc532 O542 2.105 . S
Sc532 O545 2.105 . S
Sc532 O548 2.105 . S
Sc532 O551 2.105 . S
Sc533 O535 2.025 . S
Sc533 O543 2.105 . S
Sc533 O547 2.105 . S
Sc533 O549 2.105 . S
Sc533 O553 2.105 . S
Sc534 O535 2.025 . S
Sc534 O544 2.105 . S
Sc534 O546 2.105 . S
Sc534 O550 2.105 . S
Sc534 O552 2.105 . S
O535 Sc532 2.025 . S
O535 Sc533 2.025 . S
O535 Sc534 2.025 . S
C536 O542 1.268 . S
C536 O552 1.268 . S
C537 O543 1.268 . S
C537 O551 1.268 . S
C538 O544 1.268 . S
C538 O553 1.268 . S
C539 O545 1.268 . S
C539 O549 1.268 . S
C540 O546 1.268 . S
C540 O548 1.268 . S
C541 O547 1.268 . S
C541 O550 1.268 . S
O542 Sc532 2.105 . S
O542 C536 1.268 . S
O543 Sc533 2.105 . S
O543 C537 1.268 . S
O544 Sc534 2.105 . S
O544 C538 1.268 . S
O545 Sc532 2.105 . S
O545 C539 1.268 . S
O546 Sc534 2.105 . S
O546 C540 1.268 . S
O547 Sc533 2.105 . S
O547 C541 1.268 . S
O548 Sc532 2.105 . S
O548 C540 1.268 . S
O549 Sc533 2.105 . S
O549 C539 1.268 . S
O550 Sc534 2.105 . S
O550 C541 1.268 . S
O551 Sc532 2.105 . S
O551 C537 1.268 . S
O552 Sc534 2.105 . S
O552 C536 1.268 . S
O553 Sc533 2.105 . S
O553 C538 1.268 . S
Sc554 O557 2.025 . S
Sc554 O564 2.105 . S
Sc554 O567 2.105 . S
Sc554 O570 2.105 . S
Sc554 O573 2.105 . S
Sc555 O557 2.025 . S
Sc555 O565 2.105 . S
Sc555 O569 2.105 . S
Sc555 O571 2.105 . S
Sc555 O575 2.105 . S
Sc556 O557 2.025 . S
Sc556 O566 2.105 . S
Sc556 O568 2.105 . S
Sc556 O572 2.105 . S
Sc556 O574 2.105 . S
O557 Sc554 2.025 . S
O557 Sc555 2.025 . S
O557 Sc556 2.025 . S
C558 O564 1.268 . S
C558 O574 1.268 . S
C559 O565 1.268 . S
C559 O573 1.268 . S
C560 O566 1.268 . S
C560 O575 1.268 . S
C561 O567 1.268 . S
C561 O571 1.268 . S
C562 O568 1.268 . S
C562 O570 1.268 . S
C563 O569 1.268 . S
C563 O572 1.268 . S
O564 Sc554 2.105 . S
O564 C558 1.268 . S
O565 Sc555 2.105 . S
O565 C559 1.268 . S
O566 Sc556 2.105 . S
O566 C560 1.268 . S
O567 Sc554 2.105 . S
O567 C561 1.268 . S
O568 Sc556 2.105 . S
O568 C562 1.268 . S
O569 Sc555 2.105 . S
O569 C563 1.268 . S
O570 Sc554 2.105 . S
O570 C562 1.268 . S
O571 Sc555 2.105 . S
O571 C561 1.268 . S
O572 Sc556 2.105 . S
O572 C563 1.268 . S
O573 Sc554 2.105 . S
O573 C559 1.268 . S
O574 Sc556 2.105 . S
O574 C558 1.268 . S
O575 Sc555 2.105 . S
O575 C560 1.268 . S
Sc576 O579 2.025 . S
Sc576 O586 2.105 . S
Sc576 O589 2.105 . S
Sc576 O592 2.105 . S
Sc576 O595 2.105 . S
Sc577 O579 2.025 . S
Sc577 O587 2.105 . S
Sc577 O591 2.105 . S
Sc577 O593 2.105 . S
Sc577 O597 2.105 . S
Sc578 O579 2.025 . S
Sc578 O588 2.105 . S
Sc578 O590 2.105 . S
Sc578 O594 2.105 . S
Sc578 O596 2.105 . S
O579 Sc576 2.025 . S
O579 Sc577 2.025 . S
O579 Sc578 2.025 . S
C580 O586 1.268 . S
C580 O596 1.268 . S
C581 O587 1.268 . S
C581 O595 1.268 . S
C582 O588 1.268 . S
C582 O597 1.268 . S
C583 O589 1.268 . S
C583 O593 1.268 . S
C584 O590 1.268 . S
C584 O592 1.268 . S
C585 O591 1.268 . S
C585 O594 1.268 . S
O586 Sc576 2.105 . S
O586 C580 1.268 . S
O587 Sc577 2.105 . S
O587 C581 1.268 . S
O588 Sc578 2.105 . S
O588 C582 1.268 . S
O589 Sc576 2.105 . S
O589 C583 1.268 . S
O590 Sc578 2.105 . S
O590 C584 1.268 . S
O591 Sc577 2.105 . S
O591 C585 1.268 . S
O592 Sc576 2.105 . S
O592 C584 1.268 . S
O593 Sc577 2.105 . S
O593 C583 1.268 . S
O594 Sc578 2.105 . S
O594 C585 1.268 . S
O595 Sc576 2.105 . S
O595 C581 1.268 . S
O596 Sc578 2.105 . S
O596 C580 1.268 . S
O597 Sc577 2.105 . S
O597 C582 1.268 . S
Sc598 O601 2.025 . S
Sc598 O608 2.105 . S
Sc598 O611 2.105 . S
Sc598 O614 2.105 . S
Sc598 O617 2.105 . S
Sc599 O601 2.025 . S
Sc599 O609 2.105 . S
Sc599 O613 2.105 . S
Sc599 O615 2.105 . S
Sc599 O619 2.105 . S
Sc600 O601 2.025 . S
Sc600 O610 2.105 . S
Sc600 O612 2.105 . S
Sc600 O616 2.105 . S
Sc600 O618 2.105 . S
O601 Sc598 2.025 . S
O601 Sc599 2.025 . S
O601 Sc600 2.025 . S
C602 O608 1.268 . S
C602 O618 1.268 . S
C603 O609 1.268 . S
C603 O617 1.268 . S
C604 O610 1.268 . S
C604 O619 1.268 . S
C605 O611 1.268 . S
C605 O615 1.268 . S
C606 O612 1.268 . S
C606 O614 1.268 . S
C607 O613 1.268 . S
C607 O616 1.268 . S
O608 Sc598 2.105 . S
O608 C602 1.268 . S
O609 Sc599 2.105 . S
O609 C603 1.268 . S
O610 Sc600 2.105 . S
O610 C604 1.268 . S
O611 Sc598 2.105 . S
O611 C605 1.268 . S
O612 Sc600 2.105 . S
O612 C606 1.268 . S
O613 Sc599 2.105 . S
O613 C607 1.268 . S
O614 Sc598 2.105 . S
O614 C606 1.268 . S
O615 Sc599 2.105 . S
O615 C605 1.268 . S
O616 Sc600 2.105 . S
O616 C607 1.268 . S
O617 Sc598 2.105 . S
O617 C603 1.268 . S
O618 Sc600 2.105 . S
O618 C602 1.268 . S
O619 Sc599 2.105 . S
O619 C604 1.268 . S
Sc620 O623 2.025 . S
Sc620 O630 2.105 . S
Sc620 O633 2.105 . S
Sc620 O636 2.105 . S
Sc620 O639 2.105 . S
Sc621 O623 2.025 . S
Sc621 O631 2.105 . S
Sc621 O635 2.105 . S
Sc621 O637 2.105 . S
Sc621 O641 2.105 . S
Sc622 O623 2.025 . S
Sc622 O632 2.105 . S
Sc622 O634 2.105 . S
Sc622 O638 2.105 . S
Sc622 O640 2.105 . S
O623 Sc620 2.025 . S
O623 Sc621 2.025 . S
O623 Sc622 2.025 . S
C624 O630 1.268 . S
C624 O640 1.268 . S
C625 O631 1.268 . S
C625 O639 1.268 . S
C626 O632 1.268 . S
C626 O641 1.268 . S
C627 O633 1.268 . S
C627 O637 1.268 . S
C628 O634 1.268 . S
C628 O636 1.268 . S
C629 O635 1.268 . S
C629 O638 1.268 . S
O630 Sc620 2.105 . S
O630 C624 1.268 . S
O631 Sc621 2.105 . S
O631 C625 1.268 . S
O632 Sc622 2.105 . S
O632 C626 1.268 . S
O633 Sc620 2.105 . S
O633 C627 1.268 . S
O634 Sc622 2.105 . S
O634 C628 1.268 . S
O635 Sc621 2.105 . S
O635 C629 1.268 . S
O636 Sc620 2.105 . S
O636 C628 1.268 . S
O637 Sc621 2.105 . S
O637 C627 1.268 . S
O638 Sc622 2.105 . S
O638 C629 1.268 . S
O639 Sc620 2.105 . S
O639 C625 1.268 . S
O640 Sc622 2.105 . S
O640 C624 1.268 . S
O641 Sc621 2.105 . S
O641 C626 1.268 . S
Sc642 O645 2.025 . S
Sc642 O652 2.105 . S
Sc642 O655 2.105 . S
Sc642 O658 2.105 . S
Sc642 O661 2.105 . S
Sc643 O645 2.025 . S
Sc643 O653 2.105 . S
Sc643 O657 2.105 . S
Sc643 O659 2.105 . S
Sc643 O663 2.105 . S
Sc644 O645 2.025 . S
Sc644 O654 2.105 . S
Sc644 O656 2.105 . S
Sc644 O660 2.105 . S
Sc644 O662 2.105 . S
O645 Sc642 2.025 . S
O645 Sc643 2.025 . S
O645 Sc644 2.025 . S
C646 O652 1.268 . S
C646 O662 1.268 . S
C647 O653 1.268 . S
C647 O661 1.268 . S
C648 O654 1.268 . S
C648 O663 1.268 . S
C649 O655 1.268 . S
C649 O659 1.268 . S
C650 O656 1.268 . S
C650 O658 1.268 . S
C651 O657 1.268 . S
C651 O660 1.268 . S
O652 Sc642 2.105 . S
O652 C646 1.268 . S
O653 Sc643 2.105 . S
O653 C647 1.268 . S
O654 Sc644 2.105 . S
O654 C648 1.268 . S
O655 Sc642 2.105 . S
O655 C649 1.268 . S
O656 Sc644 2.105 . S
O656 C650 1.268 . S
O657 Sc643 2.105 . S
O657 C651 1.268 . S
O658 Sc642 2.105 . S
O658 C650 1.268 . S
O659 Sc643 2.105 . S
O659 C649 1.268 . S
O660 Sc644 2.105 . S
O660 C651 1.268 . S
O661 Sc642 2.105 . S
O661 C647 1.268 . S
O662 Sc644 2.105 . S
O662 C646 1.268 . S
O663 Sc643 2.105 . S
O663 C648 1.268 . S
C664 C665 1.369 . S
C664 C666 1.419 . S
C664 H668 0.930 . S
C665 C664 1.369 . S
C665 C674 1.429 . S
C666 C664 1.419 . S
C666 C667 1.363 . S
C666 H669 0.929 . S
C667 C666 1.363 . S
C667 C673 1.428 . S
H668 C664 0.930 . S
H669 C666 0.929 . S
S670 N671 1.613 . S
S670 N672 1.610 . S
N671 S670 1.613 . S
N671 C674 1.350 . S
N672 S670 1.610 . S
N672 C673 1.351 . S
C673 C667 1.428 . S
C673 N672 1.351 . S
C673 C674 1.434 . S
C674 C665 1.429 . S
C674 N671 1.350 . S
C674 C673 1.434 . S
C675 C676 1.369 . S
C675 C677 1.419 . S
C675 H679 0.930 . S
C676 C675 1.369 . S
C676 C685 1.429 . S
C677 C675 1.419 . S
C677 C678 1.363 . S
C677 H680 0.929 . S
C678 C677 1.363 . S
C678 C684 1.428 . S
H679 C675 0.930 . S
H680 C677 0.929 . S
S681 N682 1.613 . S
S681 N683 1.610 . S
N682 S681 1.613 . S
N682 C685 1.350 . S
N683 S681 1.610 . S
N683 C684 1.351 . S
C684 C678 1.428 . S
C684 N683 1.351 . S
C684 C685 1.434 . S
C685 C676 1.429 . S
C685 N682 1.350 . S
C685 C684 1.434 . S
C686 C687 1.369 . S
C686 C688 1.419 . S
C686 H690 0.930 . S
C687 C686 1.369 . S
C687 C696 1.429 . S
C688 C686 1.419 . S
C688 C689 1.363 . S
C688 H691 0.929 . S
C689 C688 1.363 . S
C689 C695 1.428 . S
H690 C686 0.930 . S
H691 C688 0.929 . S
S692 N693 1.613 . S
S692 N694 1.610 . S
N693 S692 1.613 . S
N693 C696 1.350 . S
N694 S692 1.610 . S
N694 C695 1.351 . S
C695 C689 1.428 . S
C695 N694 1.351 . S
C695 C696 1.434 . S
C696 C687 1.429 . S
C696 N693 1.350 . S
C696 C695 1.434 . S
C697 C698 1.369 . S
C697 C699 1.419 . S
C697 H701 0.930 . S
C698 C697 1.369 . S
C698 C707 1.429 . S
C699 C697 1.419 . S
C699 C700 1.363 1_554 S
C699 H702 0.929 . S
C700 C699 1.363 1_556 S
C700 C706 1.428 . S
H701 C697 0.930 . S
H702 C699 0.929 . S
S703 N704 1.599 1_556 S
S703 N705 1.610 . S
N704 S703 1.599 1_554 S
N704 C707 1.354 . S
N705 S703 1.610 . S
N705 C706 1.351 . S
C706 C700 1.428 . S
C706 N705 1.351 . S
C706 C707 1.434 1_556 S
C707 C698 1.429 . S
C707 N704 1.354 . S
C707 C706 1.434 1_554 S
C708 C709 1.369 . S
C708 C710 1.419 . S
C708 H712 0.930 . S
C709 C708 1.369 . S
C709 C718 1.429 . S
C710 C708 1.419 . S
C710 C711 1.363 . S
C710 H713 0.929 . S
C711 C710 1.363 . S
C711 C717 1.428 . S
H712 C708 0.930 . S
H713 C710 0.929 . S
S714 N715 1.613 . S
S714 N716 1.610 . S
N715 S714 1.613 . S
N715 C718 1.350 . S
N716 S714 1.610 . S
N716 C717 1.351 . S
C717 C711 1.428 . S
C717 N716 1.351 . S
C717 C718 1.434 . S
C718 C709 1.429 . S
C718 N715 1.350 . S
C718 C717 1.434 . S
C719 C720 1.369 . S
C719 C721 1.419 . S
C719 H723 0.930 . S
C720 C719 1.369 . S
C720 C729 1.429 . S
C721 C719 1.419 . S
C721 C722 1.363 . S
C721 H724 0.929 . S
C722 C721 1.363 . S
C722 C728 1.428 . S
H723 C719 0.930 . S
H724 C721 0.929 . S
S725 N726 1.613 . S
S725 N727 1.610 . S
N726 S725 1.613 . S
N726 C729 1.350 . S
N727 S725 1.610 . S
N727 C728 1.351 . S
C728 C722 1.428 . S
C728 N727 1.351 . S
C728 C729 1.434 . S
C729 C720 1.429 . S
C729 N726 1.350 . S
C729 C728 1.434 . S
C730 C731 1.369 . S
C730 C732 1.419 . S
C730 H734 0.930 . S
C731 C730 1.369 . S
C731 C740 1.429 . S
C732 C730 1.419 . S
C732 C733 1.363 . S
C732 H735 0.929 . S
C733 C732 1.363 . S
C733 C739 1.428 . S
H734 C730 0.930 . S
H735 C732 0.929 . S
S736 N737 1.613 . S
S736 N738 1.610 . S
N737 S736 1.613 . S
N737 C740 1.350 . S
N738 S736 1.610 . S
N738 C739 1.351 . S
C739 C733 1.428 . S
C739 N738 1.351 . S
C739 C740 1.434 . S
C740 C731 1.429 . S
C740 N737 1.350 . S
C740 C739 1.434 . S
C741 C742 1.369 . S
C741 C743 1.419 1_556 S
C741 H745 0.930 . S
C742 C741 1.369 . S
C742 C751 1.429 . S
C743 C741 1.419 1_554 S
C743 C744 1.363 . S
C743 H746 0.929 . S
C744 C743 1.363 . S
C744 C750 1.428 1_554 S
H745 C741 0.930 . S
H746 C743 0.929 . S
S747 N748 1.613 . S
S747 N749 1.610 . S
N748 S747 1.613 . S
N748 C751 1.350 . S
N749 S747 1.610 . S
N749 C750 1.351 . S
C750 C744 1.428 1_556 S
C750 N749 1.351 . S
C750 C751 1.434 . S
C751 C742 1.429 . S
C751 N748 1.350 . S
C751 C750 1.434 . S
C752 C753 1.369 . S
C752 C754 1.419 . S
C752 H756 0.930 . S
C753 C752 1.369 . S
C753 C762 1.429 . S
C754 C752 1.419 . S
C754 C755 1.363 . S
C754 H757 0.929 . S
C755 C754 1.363 . S
C755 C761 1.428 . S
H756 C752 0.930 . S
H757 C754 0.929 . S
S758 N759 1.613 . S
S758 N760 1.610 . S
N759 S758 1.613 . S
N759 C762 1.350 . S
N760 S758 1.610 . S
N760 C761 1.351 . S
C761 C755 1.428 . S
C761 N760 1.351 . S
C761 C762 1.434 . S
C762 C753 1.429 . S
C762 N759 1.350 . S
C762 C761 1.434 . S
C763 C764 1.369 . S
C763 C765 1.419 . S
C763 H767 0.930 . S
C764 C763 1.369 . S
C764 C773 1.429 . S
C765 C763 1.419 . S
C765 C766 1.363 1_545 S
C765 H768 0.929 . S
C766 C765 1.363 1_565 S
C766 C772 1.428 . S
H767 C763 0.930 . S
H768 C765 0.929 . S
S769 N770 1.613 1_565 S
S769 N771 1.610 . S
N770 S769 1.613 1_545 S
N770 C773 1.350 . S
N771 S769 1.610 . S
N771 C772 1.351 . S
C772 C766 1.428 . S
C772 N771 1.351 . S
C772 C773 1.434 1_565 S
C773 C764 1.429 . S
C773 N770 1.350 . S
C773 C772 1.434 1_545 S
C774 C775 1.369 . S
C774 C776 1.419 . S
C774 H778 0.930 . S
C775 C774 1.369 . S
C775 C784 1.429 . S
C776 C774 1.419 . S
C776 C777 1.363 . S
C776 H779 0.929 . S
C777 C776 1.363 . S
C777 C783 1.428 . S
H778 C774 0.930 . S
H779 C776 0.929 . S
S780 N781 1.613 . S
S780 N782 1.610 . S
N781 S780 1.613 . S
N781 C784 1.350 . S
N782 S780 1.610 . S
N782 C783 1.351 . S
C783 C777 1.428 . S
C783 N782 1.351 . S
C783 C784 1.434 . S
C784 C775 1.429 . S
C784 N781 1.350 . S
C784 C783 1.434 . S
C785 C786 1.369 . S
C785 C787 1.419 . S
C785 H789 0.930 . S
C786 C785 1.369 . S
C786 C795 1.429 . S
C787 C785 1.419 . S
C787 C788 1.363 1_565 S
C787 H790 0.929 . S
C788 C787 1.363 1_545 S
C788 C794 1.428 . S
H789 C785 0.930 . S
H790 C787 0.929 . S
S791 N792 1.613 1_545 S
S791 N793 1.610 . S
N792 S791 1.613 1_565 S
N792 C795 1.350 . S
N793 S791 1.610 . S
N793 C794 1.351 . S
C794 C788 1.428 . S
C794 N793 1.351 . S
C794 C795 1.434 1_545 S
C795 C786 1.429 . S
C795 N792 1.350 . S
C795 C794 1.434 1_565 S
C796 C797 1.369 . S
C796 C798 1.419 . S
C796 H800 0.930 . S
C797 C796 1.369 . S
C797 C806 1.429 . S
C798 C796 1.419 . S
C798 C799 1.363 . S
C798 H801 0.929 . S
C799 C798 1.363 . S
C799 C805 1.428 . S
H800 C796 0.930 . S
H801 C798 0.929 . S
S802 N803 1.613 . S
S802 N804 1.610 . S
N803 S802 1.613 . S
N803 C806 1.350 . S
N804 S802 1.610 . S
N804 C805 1.351 . S
C805 C799 1.428 . S
C805 N804 1.351 . S
C805 C806 1.434 . S
C806 C797 1.429 . S
C806 N803 1.350 . S
C806 C805 1.434 . S
C807 C808 1.369 . S
C807 C809 1.419 . S
C807 H811 0.930 . S
C808 C807 1.369 . S
C808 C817 1.429 . S
C809 C807 1.419 . S
C809 C810 1.363 1_545 S
C809 H812 0.929 . S
C810 C809 1.363 1_565 S
C810 C816 1.428 . S
H811 C807 0.930 . S
H812 C809 0.929 . S
S813 N814 1.613 1_565 S
S813 N815 1.610 . S
N814 S813 1.613 1_545 S
N814 C817 1.350 . S
N815 S813 1.610 . S
N815 C816 1.351 . S
C816 C810 1.428 . S
C816 N815 1.351 . S
C816 C817 1.434 1_565 S
C817 C808 1.429 . S
C817 N814 1.350 . S
C817 C816 1.434 1_545 S
C818 C819 1.369 . S
C818 C820 1.419 . S
C818 H822 0.930 . S
C819 C818 1.369 . S
C819 C828 1.429 . S
C820 C818 1.419 . S
C820 C821 1.363 . S
C820 H823 0.929 . S
C821 C820 1.363 . S
C821 C827 1.428 . S
H822 C818 0.930 . S
H823 C820 0.929 . S
S824 N825 1.613 . S
S824 N826 1.610 . S
N825 S824 1.613 . S
N825 C828 1.350 . S
N826 S824 1.610 . S
N826 C827 1.351 . S
C827 C821 1.428 . S
C827 N826 1.351 . S
C827 C828 1.434 . S
C828 C819 1.429 . S
C828 N825 1.350 . S
C828 C827 1.434 . S
C829 C830 1.369 . S
C829 C831 1.419 . S
C829 H833 0.930 . S
C830 C829 1.369 . S
C830 C839 1.429 . S
C831 C829 1.419 . S
C831 C832 1.363 1_565 S
C831 H834 0.929 . S
C832 C831 1.363 1_545 S
C832 C838 1.428 . S
H833 C829 0.930 . S
H834 C831 0.929 . S
S835 N836 1.613 1_545 S
S835 N837 1.610 . S
N836 S835 1.613 1_565 S
N836 C839 1.350 . S
N837 S835 1.610 . S
N837 C838 1.351 . S
C838 C832 1.428 . S
C838 N837 1.351 . S
C838 C839 1.434 1_545 S
C839 C830 1.429 . S
C839 N836 1.350 . S
C839 C838 1.434 1_565 S
C840 C841 1.369 . S
C840 C842 1.419 . S
C840 H844 0.930 . S
C841 C840 1.369 . S
C841 C850 1.429 . S
C842 C840 1.419 . S
C842 C843 1.363 . S
C842 H845 0.929 . S
C843 C842 1.363 . S
C843 C849 1.428 . S
H844 C840 0.930 . S
H845 C842 0.929 . S
S846 N847 1.613 . S
S846 N848 1.610 . S
N847 S846 1.613 . S
N847 C850 1.350 . S
N848 S846 1.610 . S
N848 C849 1.351 . S
C849 C843 1.428 . S
C849 N848 1.351 . S
C849 C850 1.434 . S
C850 C841 1.429 . S
C850 N847 1.350 . S
C850 C849 1.434 . S
C851 C852 1.369 . S
C851 C853 1.419 . S
C851 H855 0.930 . S
C852 C851 1.369 . S
C852 C861 1.429 . S
C853 C851 1.419 . S
C853 C854 1.363 . S
C853 H856 0.929 . S
C854 C853 1.363 . S
C854 C860 1.428 . S
H855 C851 0.930 . S
H856 C853 0.929 . S
S857 N858 1.613 . S
S857 N859 1.610 . S
N858 S857 1.613 . S
N858 C861 1.350 . S
N859 S857 1.610 . S
N859 C860 1.351 . S
C860 C854 1.428 . S
C860 N859 1.351 . S
C860 C861 1.434 . S
C861 C852 1.429 . S
C861 N858 1.350 . S
C861 C860 1.434 . S
C862 C863 1.369 . S
C862 C864 1.419 . S
C862 H866 0.930 . S
C863 C862 1.369 . S
C863 C872 1.429 . S
C864 C862 1.419 . S
C864 C865 1.363 1_455 S
C864 H867 0.929 . S
C865 C864 1.363 1_655 S
C865 C871 1.428 . S
H866 C862 0.930 . S
H867 C864 0.929 . S
S868 N869 1.613 1_655 S
S868 N870 1.610 . S
N869 S868 1.613 1_455 S
N869 C872 1.350 . S
N870 S868 1.610 . S
N870 C871 1.351 . S
C871 C865 1.428 . S
C871 N870 1.351 . S
C871 C872 1.434 1_655 S
C872 C863 1.429 . S
C872 N869 1.350 . S
C872 C871 1.434 1_455 S
C873 C874 1.369 . S
C873 C875 1.419 . S
C873 H877 0.930 . S
C874 C873 1.369 . S
C874 C883 1.429 . S
C875 C873 1.419 . S
C875 C876 1.363 . S
C875 H878 0.929 . S
C876 C875 1.363 . S
C876 C882 1.428 . S
H877 C873 0.930 . S
H878 C875 0.929 . S
S879 N880 1.613 . S
S879 N881 1.610 . S
N880 S879 1.613 . S
N880 C883 1.350 . S
N881 S879 1.610 . S
N881 C882 1.351 . S
C882 C876 1.428 . S
C882 N881 1.351 . S
C882 C883 1.434 . S
C883 C874 1.429 . S
C883 N880 1.350 . S
C883 C882 1.434 . S
C884 C885 1.369 . S
C884 C886 1.419 1_655 S
C884 H888 0.930 . S
C885 C884 1.369 . S
C885 C894 1.429 . S
C886 C884 1.419 1_455 S
C886 C887 1.363 . S
C886 H889 0.929 . S
C887 C886 1.363 . S
C887 C893 1.428 1_455 S
H888 C884 0.930 . S
H889 C886 0.929 . S
S890 N891 1.613 . S
S890 N892 1.610 . S
N891 S890 1.613 . S
N891 C894 1.350 . S
N892 S890 1.610 . S
N892 C893 1.351 . S
C893 C887 1.428 1_655 S
C893 N892 1.351 . S
C893 C894 1.434 . S
C894 C885 1.429 . S
C894 N891 1.350 . S
C894 C893 1.434 . S
C895 C896 1.369 . S
C895 C897 1.419 . S
C895 H899 0.930 . S
C896 C895 1.369 . S
C896 C905 1.429 . S
C897 C895 1.419 . S
C897 C898 1.363 . S
C897 H900 0.929 . S
C898 C897 1.363 . S
C898 C904 1.428 . S
H899 C895 0.930 . S
H900 C897 0.929 . S
S901 N902 1.613 . S
S901 N903 1.610 . S
N902 S901 1.613 . S
N902 C905 1.350 . S
N903 S901 1.610 . S
N903 C904 1.351 . S
C904 C898 1.428 . S
C904 N903 1.351 . S
C904 C905 1.434 . S
C905 C896 1.429 . S
C905 N902 1.350 . S
C905 C904 1.434 . S
C906 C907 1.369 . S
C906 C908 1.419 . S
C906 H910 0.930 . S
C907 C906 1.369 . S
C907 C916 1.429 . S
C908 C906 1.419 . S
C908 C909 1.363 1_455 S
C908 H911 0.929 1_455 S
C909 C908 1.363 1_655 S
C909 C915 1.428 1_655 S
H910 C906 0.930 . S
H911 C908 0.929 1_655 S
S912 N913 1.613 . S
S912 N914 1.610 1_455 S
N913 S912 1.613 . S
N913 C916 1.350 . S
N914 S912 1.610 1_655 S
N914 C915 1.351 1_655 S
C915 C909 1.428 1_455 S
C915 N914 1.351 1_455 S
C915 C916 1.434 . S
C916 C907 1.429 . S
C916 N913 1.350 . S
C916 C915 1.434 . S
C917 C918 1.369 . S
C917 C919 1.419 . S
C917 H921 0.930 . S
C918 C917 1.369 . S
C918 C927 1.429 . S
C919 C917 1.419 . S
C919 C920 1.363 . S
C919 H922 0.929 . S
C920 C919 1.363 . S
C920 C926 1.428 . S
H921 C917 0.930 . S
H922 C919 0.929 . S
S923 N924 1.613 . S
S923 N925 1.610 . S
N924 S923 1.613 . S
N924 C927 1.350 . S
N925 S923 1.610 . S
N925 C926 1.351 . S
C926 C920 1.428 . S
C926 N925 1.351 . S
C926 C927 1.434 . S
C927 C918 1.429 . S
C927 N924 1.350 . S
C927 C926 1.434 . S
C928 C929 1.369 . S
C928 C930 1.419 . S
C928 H932 0.930 . S
C929 C928 1.369 . S
C929 C938 1.429 . S
C930 C928 1.419 . S
C930 C931 1.363 . S
C930 H933 0.929 . S
C931 C930 1.363 . S
C931 C937 1.428 . S
H932 C928 0.930 . S
H933 C930 0.929 . S
S934 N935 1.613 . S
S934 N936 1.610 . S
N935 S934 1.613 . S
N935 C938 1.350 . S
N936 S934 1.610 . S
N936 C937 1.351 . S
C937 C931 1.428 . S
C937 N936 1.351 . S
C937 C938 1.434 . S
C938 C929 1.429 . S
C938 N935 1.350 . S
C938 C937 1.434 . S
C939 C940 1.369 . S
C939 C941 1.419 . S
C939 H943 0.930 . S
C940 C939 1.369 . S
C940 C949 1.429 . S
C941 C939 1.419 . S
C941 C942 1.363 . S
C941 H944 0.929 . S
C942 C941 1.363 . S
C942 C948 1.428 . S
H943 C939 0.930 . S
H944 C941 0.929 . S
S945 N946 1.613 . S
S945 N947 1.610 1_455 S
N946 S945 1.613 . S
N946 C949 1.350 1_455 S
N947 S945 1.610 1_655 S
N947 C948 1.351 . S
C948 C942 1.428 . S
C948 N947 1.351 . S
C948 C949 1.434 . S
C949 C940 1.429 . S
C949 N946 1.350 1_655 S
C949 C948 1.434 . S
C950 C951 1.369 . S
C950 C952 1.419 . S
C950 H954 0.930 . S
C951 C950 1.369 . S
C951 C960 1.429 . S
C952 C950 1.419 . S
C952 C953 1.363 . S
C952 H955 0.929 . S
C953 C952 1.363 . S
C953 C959 1.428 . S
H954 C950 0.930 . S
H955 C952 0.929 . S
S956 N957 1.613 . S
S956 N958 1.610 . S
N957 S956 1.613 . S
N957 C960 1.350 . S
N958 S956 1.610 . S
N958 C959 1.351 . S
C959 C953 1.428 . S
C959 N958 1.351 . S
C959 C960 1.434 . S
C960 C951 1.429 . S
C960 N957 1.350 . S
C960 C959 1.434 . S
C961 C962 1.369 . S
C961 C963 1.419 . S
C961 H965 0.930 . S
C962 C961 1.369 . S
C962 C971 1.429 . S
C963 C961 1.419 . S
C963 C964 1.363 1_556 S
C963 H966 0.929 . S
C964 C963 1.363 1_554 S
C964 C970 1.428 . S
H965 C961 0.930 . S
H966 C963 0.929 . S
S967 N968 1.613 1_554 S
S967 N969 1.610 . S
N968 S967 1.613 1_556 S
N968 C971 1.350 . S
N969 S967 1.610 . S
N969 C970 1.351 . S
C970 C964 1.428 . S
C970 N969 1.351 . S
C970 C971 1.434 1_554 S
C971 C962 1.429 . S
C971 N968 1.350 . S
C971 C970 1.434 1_556 S
C972 C973 1.369 . S
C972 C974 1.419 . S
C972 H976 0.930 . S
C973 C972 1.369 . S
C973 C982 1.429 . S
C974 C972 1.419 . S
C974 C975 1.363 . S
C974 H977 0.929 . S
C975 C974 1.363 . S
C975 C981 1.428 . S
H976 C972 0.930 . S
H977 C974 0.929 . S
S978 N979 1.613 . S
S978 N980 1.610 . S
N979 S978 1.613 . S
N979 C982 1.350 . S
N980 S978 1.610 . S
N980 C981 1.351 . S
C981 C975 1.428 . S
C981 N980 1.351 . S
C981 C982 1.434 . S
C982 C973 1.429 . S
C982 N979 1.350 . S
C982 C981 1.434 . S
C983 C984 1.369 . S
C983 C985 1.419 . S
C983 H987 0.930 . S
C984 C983 1.369 . S
C984 C993 1.429 . S
C985 C983 1.419 . S
C985 C986 1.363 . S
C985 H988 0.929 . S
C986 C985 1.363 . S
C986 C992 1.428 . S
H987 C983 0.930 . S
H988 C985 0.929 . S
S989 N990 1.613 . S
S989 N991 1.610 . S
N990 S989 1.613 . S
N990 C993 1.350 . S
N991 S989 1.610 . S
N991 C992 1.351 . S
C992 C986 1.428 . S
C992 N991 1.351 . S
C992 C993 1.434 . S
C993 C984 1.429 . S
C993 N990 1.350 . S
C993 C992 1.434 . S
C994 C995 1.369 . S
C994 C996 1.419 . S
C994 H998 0.930 . S
C995 C994 1.369 . S
C995 C1004 1.429 . S
C996 C994 1.419 . S
C996 C997 1.363 . S
C996 H999 0.929 . S
C997 C996 1.363 . S
C997 C1003 1.428 . S
H998 C994 0.930 . S
H999 C996 0.929 . S
S1000 N1001 1.613 . S
S1000 N1002 1.610 . S
N1001 S1000 1.613 . S
N1001 C1004 1.350 . S
N1002 S1000 1.610 . S
N1002 C1003 1.351 . S
C1003 C997 1.428 . S
C1003 N1002 1.351 . S
C1003 C1004 1.434 . S
C1004 C995 1.429 . S
C1004 N1001 1.350 . S
C1004 C1003 1.434 . S
C1005 C1006 1.369 . S
C1005 C1007 1.419 . S
C1005 H1009 0.930 . S
C1006 C1005 1.369 . S
C1006 C1015 1.429 . S
C1007 C1005 1.419 . S
C1007 C1008 1.363 1_554 S
C1007 H1010 0.929 . S
C1008 C1007 1.363 1_556 S
C1008 C1014 1.428 . S
H1009 C1005 0.930 . S
H1010 C1007 0.929 . S
S1011 N1012 1.613 1_556 S
S1011 N1013 1.610 1_455 S
N1012 S1011 1.613 1_554 S
N1012 C1015 1.350 1_455 S
N1013 S1011 1.610 1_655 S
N1013 C1014 1.351 . S
C1014 C1008 1.428 . S
C1014 N1013 1.351 . S
C1014 C1015 1.434 1_556 S
C1015 C1006 1.429 . S
C1015 N1012 1.350 1_655 S
C1015 C1014 1.434 1_554 S
C1016 C1017 1.369 . S
C1016 C1018 1.419 . S
C1016 H1020 0.930 . S
C1017 C1016 1.369 . S
C1017 C1026 1.429 . S
C1018 C1016 1.419 . S
C1018 C1019 1.363 . S
C1018 H1021 0.929 . S
C1019 C1018 1.363 . S
C1019 C1025 1.428 . S
H1020 C1016 0.930 . S
H1021 C1018 0.929 . S
S1022 N1023 1.613 . S
S1022 N1024 1.610 . S
N1023 S1022 1.613 . S
N1023 C1026 1.350 . S
N1024 S1022 1.610 . S
N1024 C1025 1.351 . S
C1025 C1019 1.428 . S
C1025 N1024 1.351 . S
C1025 C1026 1.434 . S
C1026 C1017 1.429 . S
C1026 N1023 1.350 . S
C1026 C1025 1.434 . S
C1027 C1028 1.369 . S
C1027 C1029 1.419 1_565 S
C1027 H1031 0.930 . S
C1028 C1027 1.369 . S
C1028 C1037 1.429 . S
C1029 C1027 1.419 1_545 S
C1029 C1030 1.363 . S
C1029 H1032 0.929 . S
C1030 C1029 1.363 . S
C1030 C1036 1.428 1_545 S
H1031 C1027 0.930 . S
H1032 C1029 0.929 . S
S1033 N1034 1.613 . S
S1033 N1035 1.610 . S
N1034 S1033 1.613 . S
N1034 C1037 1.350 . S
N1035 S1033 1.610 . S
N1035 C1036 1.351 . S
C1036 C1030 1.428 1_565 S
C1036 N1035 1.351 . S
C1036 C1037 1.434 . S
C1037 C1028 1.429 . S
C1037 N1034 1.350 . S
C1037 C1036 1.434 . S
C1038 C1039 1.369 . S
C1038 C1040 1.419 . S
C1038 H1042 0.930 . S
C1039 C1038 1.369 . S
C1039 C1048 1.429 . S
C1040 C1038 1.419 . S
C1040 C1041 1.363 . S
C1040 H1043 0.929 . S
C1041 C1040 1.363 . S
C1041 C1047 1.428 . S
H1042 C1038 0.930 . S
H1043 C1040 0.929 . S
S1044 N1045 1.613 . S
S1044 N1046 1.610 . S
N1045 S1044 1.613 . S
N1045 C1048 1.350 . S
N1046 S1044 1.610 . S
N1046 C1047 1.351 . S
C1047 C1041 1.428 . S
C1047 N1046 1.351 . S
C1047 C1048 1.434 . S
C1048 C1039 1.429 . S
C1048 N1045 1.350 . S
C1048 C1047 1.434 . S
C1049 C1050 1.369 . S
C1049 C1051 1.419 1_545 S
C1049 H1053 0.930 . S
C1050 C1049 1.369 . S
C1050 C1059 1.429 . S
C1051 C1049 1.419 1_565 S
C1051 C1052 1.363 . S
C1051 H1054 0.929 . S
C1052 C1051 1.363 . S
C1052 C1058 1.428 1_565 S
H1053 C1049 0.930 . S
H1054 C1051 0.929 . S
S1055 N1056 1.613 . S
S1055 N1057 1.610 . S
N1056 S1055 1.613 . S
N1056 C1059 1.350 . S
N1057 S1055 1.610 . S
N1057 C1058 1.351 . S
C1058 C1052 1.428 1_545 S
C1058 N1057 1.351 . S
C1058 C1059 1.434 . S
C1059 C1050 1.429 . S
C1059 N1056 1.350 . S
C1059 C1058 1.434 . S
C1060 C1061 1.369 . S
C1060 C1062 1.419 . S
C1060 H1064 0.930 . S
C1061 C1060 1.369 . S
C1061 C1070 1.429 . S
C1062 C1060 1.419 . S
C1062 C1063 1.363 . S
C1062 H1065 0.929 . S
C1063 C1062 1.363 . S
C1063 C1069 1.428 . S
H1064 C1060 0.930 . S
H1065 C1062 0.929 . S
S1066 N1067 1.617 . S
S1066 N1068 1.631 . S
N1067 S1066 1.617 . S
N1067 C1070 1.350 . S
N1068 S1066 1.631 . S
N1068 C1069 1.351 . S
C1069 C1063 1.428 . S
C1069 N1068 1.351 . S
C1069 C1070 1.434 . S
C1070 C1061 1.429 . S
C1070 N1067 1.350 . S
C1070 C1069 1.434 . S
C1071 C1072 1.369 . S
C1071 C1073 1.419 1_565 S
C1071 H1075 0.930 . S
C1072 C1071 1.369 . S
C1072 C1081 1.429 . S
C1073 C1071 1.419 1_545 S
C1073 C1074 1.363 . S
C1073 H1076 0.929 . S
C1074 C1073 1.363 . S
C1074 C1080 1.428 1_545 S
H1075 C1071 0.930 . S
H1076 C1073 0.929 . S
S1077 N1078 1.613 . S
S1077 N1079 1.610 . S
N1078 S1077 1.613 . S
N1078 C1081 1.350 . S
N1079 S1077 1.610 . S
N1079 C1080 1.351 . S
C1080 C1074 1.428 1_565 S
C1080 N1079 1.351 . S
C1080 C1081 1.434 . S
C1081 C1072 1.429 . S
C1081 N1078 1.350 . S
C1081 C1080 1.434 . S
C1082 C1083 1.369 . S
C1082 C1084 1.419 . S
C1082 H1086 0.930 . S
C1083 C1082 1.369 . S
C1083 C1092 1.429 . S
C1084 C1082 1.419 . S
C1084 C1085 1.363 . S
C1084 H1087 0.929 . S
C1085 C1084 1.363 . S
C1085 C1091 1.428 . S
H1086 C1082 0.930 . S
H1087 C1084 0.929 . S
S1088 N1089 1.613 . S
S1088 N1090 1.610 . S
N1089 S1088 1.613 . S
N1089 C1092 1.350 . S
N1090 S1088 1.610 . S
N1090 C1091 1.351 . S
C1091 C1085 1.428 . S
C1091 N1090 1.351 . S
C1091 C1092 1.434 . S
C1092 C1083 1.429 . S
C1092 N1089 1.350 . S
C1092 C1091 1.434 . S
C1093 C1094 1.369 . S
C1093 C1095 1.419 1_545 S
C1093 H1097 0.930 . S
C1094 C1093 1.369 . S
C1094 C1103 1.429 . S
C1095 C1093 1.419 1_565 S
C1095 C1096 1.363 . S
C1095 H1098 0.929 . S
C1096 C1095 1.363 . S
C1096 C1102 1.428 1_565 S
H1097 C1093 0.930 . S
H1098 C1095 0.929 . S
S1099 N1100 1.613 . S
S1099 N1101 1.610 . S
N1100 S1099 1.613 . S
N1100 C1103 1.350 . S
N1101 S1099 1.610 . S
N1101 C1102 1.351 . S
C1102 C1096 1.428 1_545 S
C1102 N1101 1.351 . S
C1102 C1103 1.434 . S
C1103 C1094 1.429 . S
C1103 N1100 1.350 . S
C1103 C1102 1.434 . S
C1104 C1105 1.369 . S
C1104 C1106 1.419 . S
C1104 H1108 0.930 . S
C1105 C1104 1.369 . S
C1105 C1114 1.429 . S
C1106 C1104 1.419 . S
C1106 C1107 1.363 . S
C1106 H1109 0.929 . S
C1107 C1106 1.363 . S
C1107 C1113 1.428 . S
H1108 C1104 0.930 . S
H1109 C1106 0.929 . S
S1110 N1111 1.613 1_554 S
S1110 N1112 1.610 1_554 S
N1111 S1110 1.613 1_556 S
N1111 C1114 1.350 . S
N1112 S1110 1.610 1_556 S
N1112 C1113 1.351 . S
C1113 C1107 1.428 . S
C1113 N1112 1.351 . S
C1113 C1114 1.434 . S
C1114 C1105 1.429 . S
C1114 N1111 1.350 . S
C1114 C1113 1.434 . S
C1115 C1116 1.369 . S
C1115 C1117 1.419 . S
C1115 H1119 0.930 . S
C1116 C1115 1.369 . S
C1116 C1125 1.429 . S
C1117 C1115 1.419 . S
C1117 C1118 1.363 . S
C1117 H1120 0.929 . S
C1118 C1117 1.363 . S
C1118 C1124 1.428 . S
H1119 C1115 0.930 . S
H1120 C1117 0.929 . S
S1121 N1122 1.613 . S
S1121 N1123 1.610 . S
N1122 S1121 1.613 . S
N1122 C1125 1.350 . S
N1123 S1121 1.610 . S
N1123 C1124 1.351 . S
C1124 C1118 1.428 . S
C1124 N1123 1.351 . S
C1124 C1125 1.434 . S
C1125 C1116 1.429 . S
C1125 N1122 1.350 . S
C1125 C1124 1.434 . S
C1126 C1127 1.369 . S
C1126 C1128 1.419 . S
C1126 H1130 0.930 . S
C1127 C1126 1.369 . S
C1127 C1136 1.429 . S
C1128 C1126 1.419 . S
C1128 C1129 1.363 1_655 S
C1128 H1131 0.929 . S
C1129 C1128 1.363 1_455 S
C1129 C1135 1.428 . S
H1130 C1126 0.930 . S
H1131 C1128 0.929 . S
S1132 N1133 1.613 1_455 S
S1132 N1134 1.610 . S
N1133 S1132 1.613 1_655 S
N1133 C1136 1.350 . S
N1134 S1132 1.610 . S
N1134 C1135 1.351 . S
C1135 C1129 1.428 . S
C1135 N1134 1.351 . S
C1135 C1136 1.434 1_455 S
C1136 C1127 1.429 . S
C1136 N1133 1.350 . S
C1136 C1135 1.434 1_655 S
C1137 C1138 1.369 . S
C1137 C1139 1.419 . S
C1137 H1141 0.930 . S
C1138 C1137 1.369 . S
C1138 C1147 1.429 . S
C1139 C1137 1.419 . S
C1139 C1140 1.363 . S
C1139 H1142 0.929 . S
C1140 C1139 1.363 . S
C1140 C1146 1.428 . S
H1141 C1137 0.930 . S
H1142 C1139 0.929 . S
S1143 N1144 1.613 . S
S1143 N1145 1.610 . S
N1144 S1143 1.613 . S
N1144 C1147 1.350 . S
N1145 S1143 1.610 . S
N1145 C1146 1.351 . S
C1146 C1140 1.428 . S
C1146 N1145 1.351 . S
C1146 C1147 1.434 . S
C1147 C1138 1.429 . S
C1147 N1144 1.350 . S
C1147 C1146 1.434 . S
C1148 C1149 1.369 . S
C1148 C1150 1.419 . S
C1148 H1152 0.930 . S
C1149 C1148 1.369 . S
C1149 C1158 1.429 . S
C1150 C1148 1.419 . S
C1150 C1151 1.363 1_455 S
C1150 H1153 0.929 . S
C1151 C1150 1.363 1_655 S
C1151 C1157 1.428 . S
H1152 C1148 0.930 . S
H1153 C1150 0.929 . S
S1154 N1155 1.637 . S
S1154 N1156 1.610 . S
N1155 S1154 1.637 . S
N1155 C1158 1.343 1_655 S
N1156 S1154 1.610 . S
N1156 C1157 1.351 . S
C1157 C1151 1.428 . S
C1157 N1156 1.351 . S
C1157 C1158 1.434 1_655 S
C1158 C1149 1.429 . S
C1158 N1155 1.343 1_455 S
C1158 C1157 1.434 1_455 S
C1159 C1160 1.369 . S
C1159 C1161 1.419 . S
C1159 H1163 0.930 . S
C1160 C1159 1.369 . S
C1160 C1169 1.429 . S
C1161 C1159 1.419 . S
C1161 C1162 1.363 . S
C1161 H1164 0.929 . S
C1162 C1161 1.363 . S
C1162 C1168 1.428 . S
H1163 C1159 0.930 . S
H1164 C1161 0.929 . S
S1165 N1166 1.613 . S
S1165 N1167 1.610 . S
N1166 S1165 1.613 . S
N1166 C1169 1.350 . S
N1167 S1165 1.610 . S
N1167 C1168 1.351 . S
C1168 C1162 1.428 . S
C1168 N1167 1.351 . S
C1168 C1169 1.434 . S
C1169 C1160 1.429 . S
C1169 N1166 1.350 . S
C1169 C1168 1.434 . S
C1170 C1171 1.369 . S
C1170 C1172 1.419 1_655 S
C1170 H1174 0.930 . S
C1171 C1170 1.369 . S
C1171 C1180 1.429 . S
C1172 C1170 1.419 1_455 S
C1172 C1173 1.363 . S
C1172 H1175 0.929 . S
C1173 C1172 1.363 . S
C1173 C1179 1.428 1_455 S
H1174 C1170 0.930 . S
H1175 C1172 0.929 . S
S1176 N1177 1.613 . S
S1176 N1178 1.610 . S
N1177 S1176 1.613 . S
N1177 C1180 1.350 . S
N1178 S1176 1.610 . S
N1178 C1179 1.351 . S
C1179 C1173 1.428 1_655 S
C1179 N1178 1.351 . S
C1179 C1180 1.434 . S
C1180 C1171 1.429 . S
C1180 N1177 1.350 . S
C1180 C1179 1.434 . S
C1181 C1182 1.369 . S
C1181 C1183 1.419 . S
C1181 H1185 0.930 . S
C1182 C1181 1.369 . S
C1182 C1191 1.429 . S
C1183 C1181 1.419 . S
C1183 C1184 1.363 . S
C1183 H1186 0.929 . S
C1184 C1183 1.363 . S
C1184 C1190 1.428 . S
H1185 C1181 0.930 . S
H1186 C1183 0.929 . S
S1187 N1188 1.613 . S
S1187 N1189 1.610 . S
N1188 S1187 1.613 . S
N1188 C1191 1.350 . S
N1189 S1187 1.610 . S
N1189 C1190 1.351 . S
C1190 C1184 1.428 . S
C1190 N1189 1.351 . S
C1190 C1191 1.434 . S
C1191 C1182 1.429 . S
C1191 N1188 1.350 . S
C1191 C1190 1.434 . S
C1192 C1193 1.369 . S
C1192 C1194 1.419 . S
C1192 H1196 0.930 . S
C1193 C1192 1.369 . S
C1193 C1202 1.429 . S
C1194 C1192 1.419 . S
C1194 C1195 1.363 . S
C1194 H1197 0.929 . S
C1195 C1194 1.363 . S
C1195 C1201 1.428 . S
H1196 C1192 0.930 . S
H1197 C1194 0.929 . S
S1198 N1199 1.613 . S
S1198 N1200 1.610 . S
N1199 S1198 1.613 . S
N1199 C1202 1.350 . S
N1200 S1198 1.610 . S
N1200 C1201 1.351 . S
C1201 C1195 1.428 . S
C1201 N1200 1.351 . S
C1201 C1202 1.434 . S
C1202 C1193 1.429 . S
C1202 N1199 1.350 . S
C1202 C1201 1.434 . S
C1203 C1204 1.369 . S
C1203 C1205 1.419 1_554 S
C1203 H1207 0.930 . S
C1204 C1203 1.369 . S
C1204 C1213 1.429 . S
C1205 C1203 1.419 1_556 S
C1205 C1206 1.363 . S
C1205 H1208 0.929 . S
C1206 C1205 1.363 . S
C1206 C1212 1.428 1_556 S
H1207 C1203 0.930 . S
H1208 C1205 0.929 . S
S1209 N1210 1.613 . S
S1209 N1211 1.610 . S
N1210 S1209 1.613 . S
N1210 C1213 1.350 . S
N1211 S1209 1.610 . S
N1211 C1212 1.351 . S
C1212 C1206 1.428 1_554 S
C1212 N1211 1.351 . S
C1212 C1213 1.434 . S
C1213 C1204 1.429 . S
C1213 N1210 1.350 . S
C1213 C1212 1.434 . S
C1214 C1215 1.369 . S
C1214 C1216 1.419 . S
C1214 H1218 0.930 . S
C1215 C1214 1.369 . S
C1215 C1224 1.429 . S
C1216 C1214 1.419 . S
C1216 C1217 1.363 . S
C1216 H1219 0.929 . S
C1217 C1216 1.363 . S
C1217 C1223 1.428 . S
H1218 C1214 0.930 . S
H1219 C1216 0.929 . S
S1220 N1221 1.613 . S
S1220 N1222 1.610 . S
N1221 S1220 1.613 . S
N1221 C1224 1.350 . S
N1222 S1220 1.610 . S
N1222 C1223 1.351 . S
C1223 C1217 1.428 . S
C1223 N1222 1.351 . S
C1223 C1224 1.434 . S
C1224 C1215 1.429 . S
C1224 N1221 1.350 . S
C1224 C1223 1.434 . S
C1225 C1226 1.369 . S
C1225 C1227 1.419 . S
C1225 H1229 0.930 . S
C1226 C1225 1.369 . S
C1226 C1235 1.429 . S
C1227 C1225 1.419 . S
C1227 C1228 1.363 . S
C1227 H1230 0.929 . S
C1228 C1227 1.363 . S
C1228 C1234 1.428 . S
H1229 C1225 0.930 . S
H1230 C1227 0.929 . S
S1231 N1232 1.613 . S
S1231 N1233 1.610 . S
N1232 S1231 1.613 . S
N1232 C1235 1.350 . S
N1233 S1231 1.610 . S
N1233 C1234 1.351 . S
C1234 C1228 1.428 . S
C1234 N1233 1.351 . S
C1234 C1235 1.434 . S
C1235 C1226 1.429 . S
C1235 N1232 1.350 . S
C1235 C1234 1.434 . S
C1236 C1237 1.369 . S
C1236 C1238 1.419 . S
C1236 H1240 0.930 . S
C1237 C1236 1.369 . S
C1237 C1246 1.429 . S
C1238 C1236 1.419 . S
C1238 C1239 1.363 . S
C1238 H1241 0.929 . S
C1239 C1238 1.363 . S
C1239 C1245 1.428 . S
H1240 C1236 0.930 . S
H1241 C1238 0.929 . S
S1242 N1243 1.613 . S
S1242 N1244 1.610 . S
N1243 S1242 1.613 . S
N1243 C1246 1.350 . S
N1244 S1242 1.610 . S
N1244 C1245 1.351 . S
C1245 C1239 1.428 . S
C1245 N1244 1.351 . S
C1245 C1246 1.434 . S
C1246 C1237 1.429 . S
C1246 N1243 1.350 . S
C1246 C1245 1.434 . S
C1247 C1248 1.369 . S
C1247 C1249 1.419 . S
C1247 H1251 0.930 . S
C1248 C1247 1.369 . S
C1248 C1257 1.429 . S
C1249 C1247 1.419 . S
C1249 C1250 1.363 1_556 S
C1249 H1252 0.929 . S
C1250 C1249 1.363 1_554 S
C1250 C1256 1.428 . S
H1251 C1247 0.930 . S
H1252 C1249 0.929 . S
S1253 N1254 1.613 1_554 S
S1253 N1255 1.610 . S
N1254 S1253 1.613 1_556 S
N1254 C1257 1.350 . S
N1255 S1253 1.610 . S
N1255 C1256 1.351 . S
C1256 C1250 1.428 . S
C1256 N1255 1.351 . S
C1256 C1257 1.434 1_554 S
C1257 C1248 1.429 . S
C1257 N1254 1.350 . S
C1257 C1256 1.434 1_556 S
C1258 C1259 1.369 . S
C1258 C1260 1.419 . S
C1258 H1262 0.930 . S
C1259 C1258 1.369 . S
C1259 C1268 1.429 . S
C1260 C1258 1.419 . S
C1260 C1261 1.363 . S
C1260 H1263 0.929 . S
C1261 C1260 1.363 . S
C1261 C1267 1.428 . S
H1262 C1258 0.930 . S
H1263 C1260 0.929 . S
S1264 N1265 1.613 . S
S1264 N1266 1.610 . S
N1265 S1264 1.613 . S
N1265 C1268 1.350 . S
N1266 S1264 1.610 . S
N1266 C1267 1.351 . S
C1267 C1261 1.428 . S
C1267 N1266 1.351 . S
C1267 C1268 1.434 . S
C1268 C1259 1.429 . S
C1268 N1265 1.350 . S
C1268 C1267 1.434 . S
C1269 C1270 1.369 . S
C1269 C1271 1.419 . S
C1269 H1273 0.930 . S
C1270 C1269 1.369 . S
C1270 C1279 1.429 . S
C1271 C1269 1.419 . S
C1271 C1272 1.363 . S
C1271 H1274 0.929 . S
C1272 C1271 1.363 . S
C1272 C1278 1.428 . S
H1273 C1269 0.930 . S
H1274 C1271 0.929 . S
S1275 N1276 1.613 . S
S1275 N1277 1.610 . S
N1276 S1275 1.613 . S
N1276 C1279 1.350 . S
N1277 S1275 1.610 . S
N1277 C1278 1.351 . S
C1278 C1272 1.428 . S
C1278 N1277 1.351 . S
C1278 C1279 1.434 . S
C1279 C1270 1.429 . S
C1279 N1276 1.350 . S
C1279 C1278 1.434 . S
C1280 C1281 1.369 . S
C1280 C1282 1.419 . S
C1280 H1284 0.930 . S
C1281 C1280 1.369 . S
C1281 C1290 1.429 . S
C1282 C1280 1.419 . S
C1282 C1283 1.363 . S
C1282 H1285 0.929 . S
C1283 C1282 1.363 . S
C1283 C1289 1.428 . S
H1284 C1280 0.930 . S
H1285 C1282 0.929 . S
S1286 N1287 1.613 . S
S1286 N1288 1.610 . S
N1287 S1286 1.613 . S
N1287 C1290 1.350 . S
N1288 S1286 1.610 . S
N1288 C1289 1.351 . S
C1289 C1283 1.428 . S
C1289 N1288 1.351 . S
C1289 C1290 1.434 . S
C1290 C1281 1.429 . S
C1290 N1287 1.350 . S
C1290 C1289 1.434 . S
C1291 C1292 1.369 . S
C1291 C1293 1.419 . S
C1291 H1295 0.930 . S
C1292 C1291 1.369 . S
C1292 C1301 1.429 . S
C1293 C1291 1.419 . S
C1293 C1294 1.363 . S
C1293 H1296 0.929 . S
C1294 C1293 1.363 . S
C1294 C1300 1.428 . S
H1295 C1291 0.930 . S
H1296 C1293 0.929 . S
S1297 N1298 1.613 . S
S1297 N1299 1.610 . S
N1298 S1297 1.613 . S
N1298 C1301 1.350 . S
N1299 S1297 1.610 . S
N1299 C1300 1.351 . S
C1300 C1294 1.428 . S
C1300 N1299 1.351 . S
C1300 C1301 1.434 . S
C1301 C1292 1.429 . S
C1301 N1298 1.350 . S
C1301 C1300 1.434 . S
C1302 C1303 1.369 . S
C1302 C1304 1.419 . S
C1302 H1306 0.930 . S
C1303 C1302 1.369 . S
C1303 C1312 1.429 . S
C1304 C1302 1.419 . S
C1304 C1305 1.363 . S
C1304 H1307 0.929 . S
C1305 C1304 1.363 . S
C1305 C1311 1.428 . S
H1306 C1302 0.930 . S
H1307 C1304 0.929 . S
S1308 N1309 1.613 . S
S1308 N1310 1.610 . S
N1309 S1308 1.613 . S
N1309 C1312 1.350 . S
N1310 S1308 1.610 . S
N1310 C1311 1.351 . S
C1311 C1305 1.428 . S
C1311 N1310 1.351 . S
C1311 C1312 1.434 . S
C1312 C1303 1.429 . S
C1312 N1309 1.350 . S
C1312 C1311 1.434 . S
C1313 C1314 1.369 . S
C1313 C1315 1.419 . S
C1313 H1317 0.930 . S
C1314 C1313 1.369 . S
C1314 C1323 1.429 . S
C1315 C1313 1.419 . S
C1315 C1316 1.363 . S
C1315 H1318 0.929 . S
C1316 C1315 1.363 . S
C1316 C1322 1.428 . S
H1317 C1313 0.930 . S
H1318 C1315 0.929 . S
S1319 N1320 1.613 . S
S1319 N1321 1.610 . S
N1320 S1319 1.613 . S
N1320 C1323 1.350 . S
N1321 S1319 1.610 . S
N1321 C1322 1.351 . S
C1322 C1316 1.428 . S
C1322 N1321 1.351 . S
C1322 C1323 1.434 . S
C1323 C1314 1.429 . S
C1323 N1320 1.350 . S
C1323 C1322 1.434 . S
C1324 C1325 1.369 . S
C1324 C1326 1.419 . S
C1324 H1328 0.930 . S
C1325 C1324 1.369 . S
C1325 C1334 1.429 . S
C1326 C1324 1.419 . S
C1326 C1327 1.363 . S
C1326 H1329 0.929 . S
C1327 C1326 1.363 . S
C1327 C1333 1.428 . S
H1328 C1324 0.930 . S
H1329 C1326 0.929 . S
S1330 N1331 1.613 . S
S1330 N1332 1.610 . S
N1331 S1330 1.613 . S
N1331 C1334 1.350 . S
N1332 S1330 1.610 . S
N1332 C1333 1.351 . S
C1333 C1327 1.428 . S
C1333 N1332 1.351 . S
C1333 C1334 1.434 . S
C1334 C1325 1.429 . S
C1334 N1331 1.350 . S
C1334 C1333 1.434 . S
C1335 C1336 1.369 . S
C1335 C1337 1.419 . S
C1335 H1339 0.930 . S
C1336 C1335 1.369 . S
C1336 C1345 1.429 . S
C1337 C1335 1.419 . S
C1337 C1338 1.363 . S
C1337 H1340 0.929 . S
C1338 C1337 1.363 . S
C1338 C1344 1.428 . S
H1339 C1335 0.930 . S
H1340 C1337 0.929 . S
S1341 N1342 1.613 . S
S1341 N1343 1.610 . S
N1342 S1341 1.613 . S
N1342 C1345 1.350 . S
N1343 S1341 1.610 . S
N1343 C1344 1.351 . S
C1344 C1338 1.428 . S
C1344 N1343 1.351 . S
C1344 C1345 1.434 . S
C1345 C1336 1.429 . S
C1345 N1342 1.350 . S
C1345 C1344 1.434 . S
C1346 C1347 1.369 . S
C1346 C1348 1.419 . S
C1346 H1350 0.930 . S
C1347 C1346 1.369 . S
C1347 C1356 1.429 . S
C1348 C1346 1.419 . S
C1348 C1349 1.363 . S
C1348 H1351 0.929 . S
C1349 C1348 1.363 . S
C1349 C1355 1.428 . S
H1350 C1346 0.930 . S
H1351 C1348 0.929 . S
S1352 N1353 1.613 . S
S1352 N1354 1.610 . S
N1353 S1352 1.613 . S
N1353 C1356 1.350 . S
N1354 S1352 1.610 . S
N1354 C1355 1.351 . S
C1355 C1349 1.428 . S
C1355 N1354 1.351 . S
C1355 C1356 1.434 . S
C1356 C1347 1.429 . S
C1356 N1353 1.350 . S
C1356 C1355 1.434 . S
C1357 C1358 1.369 . S
C1357 C1359 1.419 . S
C1357 H1361 0.930 . S
C1358 C1357 1.369 . S
C1358 C1367 1.429 . S
C1359 C1357 1.419 . S
C1359 C1360 1.363 . S
C1359 H1362 0.929 . S
C1360 C1359 1.363 . S
C1360 C1366 1.428 . S
H1361 C1357 0.930 . S
H1362 C1359 0.929 . S
S1363 N1364 1.613 . S
S1363 N1365 1.610 . S
N1364 S1363 1.613 . S
N1364 C1367 1.350 . S
N1365 S1363 1.610 . S
N1365 C1366 1.351 . S
C1366 C1360 1.428 . S
C1366 N1365 1.351 . S
C1366 C1367 1.434 . S
C1367 C1358 1.429 . S
C1367 N1364 1.350 . S
C1367 C1366 1.434 . S
C1368 C1369 1.369 . S
C1368 C1370 1.419 . S
C1368 H1372 0.930 . S
C1369 C1368 1.369 . S
C1369 C1378 1.429 . S
C1370 C1368 1.419 . S
C1370 C1371 1.363 . S
C1370 H1373 0.929 . S
C1371 C1370 1.363 . S
C1371 C1377 1.428 . S
H1372 C1368 0.930 . S
H1373 C1370 0.929 . S
S1374 N1375 1.613 . S
S1374 N1376 1.610 . S
N1375 S1374 1.613 . S
N1375 C1378 1.350 . S
N1376 S1374 1.610 . S
N1376 C1377 1.351 . S
C1377 C1371 1.428 . S
C1377 N1376 1.351 . S
C1377 C1378 1.434 . S
C1378 C1369 1.429 . S
C1378 N1375 1.350 . S
C1378 C1377 1.434 . S
C1379 C1380 1.369 . S
C1379 C1381 1.419 . S
C1379 H1383 0.930 . S
C1380 C1379 1.369 . S
C1380 C1389 1.429 . S
C1381 C1379 1.419 . S
C1381 C1382 1.363 . S
C1381 H1384 0.929 . S
C1382 C1381 1.363 . S
C1382 C1388 1.428 . S
H1383 C1379 0.930 . S
H1384 C1381 0.929 . S
S1385 N1386 1.613 . S
S1385 N1387 1.610 . S
N1386 S1385 1.613 . S
N1386 C1389 1.350 . S
N1387 S1385 1.610 . S
N1387 C1388 1.351 . S
C1388 C1382 1.428 . S
C1388 N1387 1.351 . S
C1388 C1389 1.434 . S
C1389 C1380 1.429 . S
C1389 N1386 1.350 . S
C1389 C1388 1.434 . S
C1390 C1391 1.369 . S
C1390 C1392 1.419 . S
C1390 H1394 0.930 . S
C1391 C1390 1.369 . S
C1391 C1400 1.429 . S
C1392 C1390 1.419 . S
C1392 C1393 1.363 . S
C1392 H1395 0.929 . S
C1393 C1392 1.363 . S
C1393 C1399 1.428 . S
H1394 C1390 0.930 . S
H1395 C1392 0.929 . S
S1396 N1397 1.613 . S
S1396 N1398 1.610 . S
N1397 S1396 1.613 . S
N1397 C1400 1.350 . S
N1398 S1396 1.610 . S
N1398 C1399 1.351 . S
C1399 C1393 1.428 . S
C1399 N1398 1.351 . S
C1399 C1400 1.434 . S
C1400 C1391 1.429 . S
C1400 N1397 1.350 . S
C1400 C1399 1.434 . S
C1401 C1402 1.369 . S
C1401 C1403 1.419 . S
C1401 H1405 0.930 . S
C1402 C1401 1.369 . S
C1402 C1411 1.429 . S
C1403 C1401 1.419 . S
C1403 C1404 1.363 . S
C1403 H1406 0.929 . S
C1404 C1403 1.363 . S
C1404 C1410 1.428 . S
H1405 C1401 0.930 . S
H1406 C1403 0.929 . S
S1407 N1408 1.613 . S
S1407 N1409 1.610 . S
N1408 S1407 1.613 . S
N1408 C1411 1.350 . S
N1409 S1407 1.610 . S
N1409 C1410 1.351 . S
C1410 C1404 1.428 . S
C1410 N1409 1.351 . S
C1410 C1411 1.434 . S
C1411 C1402 1.429 . S
C1411 N1408 1.350 . S
C1411 C1410 1.434 . S
C1412 C1413 1.369 . S
C1412 C1414 1.419 . S
C1412 H1416 0.930 . S
C1413 C1412 1.369 . S
C1413 C1422 1.429 . S
C1414 C1412 1.419 . S
C1414 C1415 1.363 . S
C1414 H1417 0.929 . S
C1415 C1414 1.363 . S
C1415 C1421 1.428 . S
H1416 C1412 0.930 . S
H1417 C1414 0.929 . S
S1418 N1419 1.613 . S
S1418 N1420 1.610 . S
N1419 S1418 1.613 . S
N1419 C1422 1.350 . S
N1420 S1418 1.610 . S
N1420 C1421 1.351 . S
C1421 C1415 1.428 . S
C1421 N1420 1.351 . S
C1421 C1422 1.434 . S
C1422 C1413 1.429 . S
C1422 N1419 1.350 . S
C1422 C1421 1.434 . S
C1423 C1424 1.369 . S
C1423 C1425 1.419 . S
C1423 H1427 0.930 . S
C1424 C1423 1.369 . S
C1424 C1433 1.429 . S
C1425 C1423 1.419 . S
C1425 C1426 1.363 . S
C1425 H1428 0.929 . S
C1426 C1425 1.363 . S
C1426 C1432 1.428 . S
H1427 C1423 0.930 . S
H1428 C1425 0.929 . S
S1429 N1430 1.613 . S
S1429 N1431 1.610 . S
N1430 S1429 1.613 . S
N1430 C1433 1.350 . S
N1431 S1429 1.610 . S
N1431 C1432 1.351 . S
C1432 C1426 1.428 . S
C1432 N1431 1.351 . S
C1432 C1433 1.434 . S
C1433 C1424 1.429 . S
C1433 N1430 1.350 . S
C1433 C1432 1.434 . S
C1434 C1435 1.369 . S
C1434 C1436 1.419 . S
C1434 H1438 0.930 . S
C1435 C1434 1.369 . S
C1435 C1444 1.429 . S
C1436 C1434 1.419 . S
C1436 C1437 1.363 . S
C1436 H1439 0.929 . S
C1437 C1436 1.363 . S
C1437 C1443 1.428 . S
H1438 C1434 0.930 . S
H1439 C1436 0.929 . S
S1440 N1441 1.613 . S
S1440 N1442 1.610 . S
N1441 S1440 1.613 . S
N1441 C1444 1.350 . S
N1442 S1440 1.610 . S
N1442 C1443 1.351 . S
C1443 C1437 1.428 . S
C1443 N1442 1.351 . S
C1443 C1444 1.434 . S
C1444 C1435 1.429 . S
C1444 N1441 1.350 . S
C1444 C1443 1.434 . S
C1445 C1446 1.369 . S
C1445 C1447 1.419 1_655 S
C1445 H1449 0.930 . S
C1446 C1445 1.369 . S
C1446 C1455 1.429 . S
C1447 C1445 1.419 1_455 S
C1447 C1448 1.363 . S
C1447 H1450 0.929 . S
C1448 C1447 1.363 . S
C1448 C1454 1.428 1_455 S
H1449 C1445 0.930 . S
H1450 C1447 0.929 . S
S1451 N1452 1.613 1_545 S
S1451 N1453 1.610 1_545 S
N1452 S1451 1.613 1_565 S
N1452 C1455 1.350 . S
N1453 S1451 1.610 1_565 S
N1453 C1454 1.351 . S
C1454 C1448 1.428 1_655 S
C1454 N1453 1.351 . S
C1454 C1455 1.434 . S
C1455 C1446 1.429 . S
C1455 N1452 1.350 . S
C1455 C1454 1.434 . S
C1456 C1457 1.369 . S
C1456 C1458 1.419 . S
C1456 H1460 0.930 . S
C1457 C1456 1.369 . S
C1457 C1466 1.429 . S
C1458 C1456 1.419 . S
C1458 C1459 1.363 . S
C1458 H1461 0.929 . S
C1459 C1458 1.363 . S
C1459 C1465 1.428 . S
H1460 C1456 0.930 . S
H1461 C1458 0.929 . S
S1462 N1463 1.613 . S
S1462 N1464 1.610 . S
N1463 S1462 1.613 . S
N1463 C1466 1.350 . S
N1464 S1462 1.610 . S
N1464 C1465 1.351 . S
C1465 C1459 1.428 . S
C1465 N1464 1.351 . S
C1465 C1466 1.434 . S
C1466 C1457 1.429 . S
C1466 N1463 1.350 . S
C1466 C1465 1.434 . S
C1467 C1468 1.369 . S
C1467 C1469 1.419 1_556 S
C1467 H1471 0.930 . S
C1468 C1467 1.369 . S
C1468 C1477 1.429 . S
C1469 C1467 1.419 1_554 S
C1469 C1470 1.363 . S
C1469 H1472 0.929 . S
C1470 C1469 1.363 . S
C1470 C1476 1.428 1_554 S
H1471 C1467 0.930 . S
H1472 C1469 0.929 . S
S1473 N1474 1.613 . S
S1473 N1475 1.610 . S
N1474 S1473 1.613 . S
N1474 C1477 1.350 . S
N1475 S1473 1.610 . S
N1475 C1476 1.351 . S
C1476 C1470 1.428 1_556 S
C1476 N1475 1.351 . S
C1476 C1477 1.434 . S
C1477 C1468 1.429 . S
C1477 N1474 1.350 . S
C1477 C1476 1.434 . S
C1478 C1479 1.369 . S
C1478 C1480 1.419 . S
C1478 H1482 0.930 . S
C1479 C1478 1.369 . S
C1479 C1488 1.429 . S
C1480 C1478 1.419 . S
C1480 C1481 1.363 . S
C1480 H1483 0.929 . S
C1481 C1480 1.363 . S
C1481 C1487 1.428 . S
H1482 C1478 0.930 . S
H1483 C1480 0.929 . S
S1484 N1485 1.613 . S
S1484 N1486 1.610 . S
N1485 S1484 1.613 . S
N1485 C1488 1.350 . S
N1486 S1484 1.610 . S
N1486 C1487 1.351 . S
C1487 C1481 1.428 . S
C1487 N1486 1.351 . S
C1487 C1488 1.434 . S
C1488 C1479 1.429 . S
C1488 N1485 1.350 . S
C1488 C1487 1.434 . S
C1489 C1490 1.369 . S
C1489 C1491 1.419 . S
C1489 H1493 0.930 . S
C1490 C1489 1.369 . S
C1490 C1499 1.429 . S
C1491 C1489 1.419 . S
C1491 C1492 1.363 . S
C1491 H1494 0.929 . S
C1492 C1491 1.363 . S
C1492 C1498 1.428 . S
H1493 C1489 0.930 . S
H1494 C1491 0.929 . S
S1495 N1496 1.613 . S
S1495 N1497 1.610 . S
N1496 S1495 1.613 . S
N1496 C1499 1.350 . S
N1497 S1495 1.610 . S
N1497 C1498 1.351 . S
C1498 C1492 1.428 . S
C1498 N1497 1.351 . S
C1498 C1499 1.434 . S
C1499 C1490 1.429 . S
C1499 N1496 1.350 . S
C1499 C1498 1.434 . S
C1500 C1501 1.369 . S
C1500 C1502 1.419 . S
C1500 H1504 0.930 . S
C1501 C1500 1.369 . S
C1501 C1510 1.429 . S
C1502 C1500 1.419 . S
C1502 C1503 1.363 . S
C1502 H1505 0.929 . S
C1503 C1502 1.363 . S
C1503 C1509 1.428 . S
H1504 C1500 0.930 . S
H1505 C1502 0.929 . S
S1506 N1507 1.613 . S
S1506 N1508 1.610 . S
N1507 S1506 1.613 . S
N1507 C1510 1.350 . S
N1508 S1506 1.610 . S
N1508 C1509 1.351 . S
C1509 C1503 1.428 . S
C1509 N1508 1.351 . S
C1509 C1510 1.434 . S
C1510 C1501 1.429 . S
C1510 N1507 1.350 . S
C1510 C1509 1.434 . S
C1511 C1512 1.369 . S
C1511 C1513 1.431 . S
C1511 H1515 0.930 . S
C1512 C1511 1.369 . S
C1512 C1521 1.429 . S
C1513 C1511 1.431 . S
C1513 C1514 1.357 1_554 S
C1513 H1516 0.922 1_554 S
C1514 C1513 1.357 1_556 S
C1514 C1520 1.428 1_556 S
H1515 C1511 0.930 . S
H1516 C1513 0.922 1_556 S
S1517 N1518 1.613 1_655 S
S1517 N1519 1.591 1_654 S
N1518 S1517 1.613 1_455 S
N1518 C1521 1.350 . S
N1519 S1517 1.591 1_456 S
N1519 C1520 1.346 1_556 S
C1520 C1514 1.428 1_554 S
C1520 N1519 1.346 1_554 S
C1520 C1521 1.434 . S
C1521 C1512 1.429 . S
C1521 N1518 1.350 . S
C1521 C1520 1.434 . S
C1522 C1523 1.369 . S
C1522 C1524 1.419 . S
C1522 H1526 0.930 . S
C1523 C1522 1.369 . S
C1523 C1532 1.429 . S
C1524 C1522 1.419 . S
C1524 C1525 1.363 . S
C1524 H1527 0.929 . S
C1525 C1524 1.363 . S
C1525 C1531 1.428 . S
H1526 C1522 0.930 . S
H1527 C1524 0.929 . S
S1528 N1529 1.613 . S
S1528 N1530 1.610 . S
N1529 S1528 1.613 . S
N1529 C1532 1.350 . S
N1530 S1528 1.610 . S
N1530 C1531 1.351 . S
C1531 C1525 1.428 . S
C1531 N1530 1.351 . S
C1531 C1532 1.434 . S
C1532 C1523 1.429 . S
C1532 N1529 1.350 . S
C1532 C1531 1.434 . S
C1533 C1534 1.369 . S
C1533 C1535 1.419 . S
C1533 H1537 0.930 . S
C1534 C1533 1.369 . S
C1534 C1543 1.429 . S
C1535 C1533 1.419 . S
C1535 C1536 1.363 . S
C1535 H1538 0.929 . S
C1536 C1535 1.363 . S
C1536 C1542 1.428 . S
H1537 C1533 0.930 . S
H1538 C1535 0.929 . S
S1539 N1540 1.613 . S
S1539 N1541 1.610 . S
N1540 S1539 1.613 . S
N1540 C1543 1.350 . S
N1541 S1539 1.610 . S
N1541 C1542 1.351 . S
C1542 C1536 1.428 . S
C1542 N1541 1.351 . S
C1542 C1543 1.434 . S
C1543 C1534 1.429 . S
C1543 N1540 1.350 . S
C1543 C1542 1.434 . S
C1544 C1545 1.369 . S
C1544 C1546 1.419 . S
C1544 H1548 0.930 . S
C1545 C1544 1.369 . S
C1545 C1554 1.429 . S
C1546 C1544 1.419 . S
C1546 C1547 1.363 . S
C1546 H1549 0.929 . S
C1547 C1546 1.363 . S
C1547 C1553 1.428 . S
H1548 C1544 0.930 . S
H1549 C1546 0.929 . S
S1550 N1551 1.613 . S
S1550 N1552 1.610 . S
N1551 S1550 1.613 . S
N1551 C1554 1.350 . S
N1552 S1550 1.610 . S
N1552 C1553 1.351 . S
C1553 C1547 1.428 . S
C1553 N1552 1.351 . S
C1553 C1554 1.434 . S
C1554 C1545 1.429 . S
C1554 N1551 1.350 . S
C1554 C1553 1.434 . S
C1555 C1556 1.369 . S
C1555 C1557 1.419 . S
C1555 H1559 0.930 . S
C1556 C1555 1.369 . S
C1556 C1565 1.429 . S
C1557 C1555 1.419 . S
C1557 C1558 1.363 . S
C1557 H1560 0.929 . S
C1558 C1557 1.363 . S
C1558 C1564 1.428 . S
H1559 C1555 0.930 . S
H1560 C1557 0.929 . S
S1561 N1562 1.613 . S
S1561 N1563 1.610 1_556 S
N1562 S1561 1.613 . S
N1562 C1565 1.350 1_556 S
N1563 S1561 1.610 1_554 S
N1563 C1564 1.351 . S
C1564 C1558 1.428 . S
C1564 N1563 1.351 . S
C1564 C1565 1.434 . S
C1565 C1556 1.429 . S
C1565 N1562 1.350 1_554 S
C1565 C1564 1.434 . S
C1566 C1567 1.369 . S
C1566 C1568 1.419 . S
C1566 H1570 0.930 . S
C1567 C1566 1.369 . S
C1567 C1576 1.429 . S
C1568 C1566 1.419 . S
C1568 C1569 1.363 . S
C1568 H1571 0.929 . S
C1569 C1568 1.363 . S
C1569 C1575 1.428 . S
H1570 C1566 0.930 . S
H1571 C1568 0.929 . S
S1572 N1573 1.613 . S
S1572 N1574 1.610 . S
N1573 S1572 1.613 . S
N1573 C1576 1.350 . S
N1574 S1572 1.610 . S
N1574 C1575 1.351 . S
C1575 C1569 1.428 . S
C1575 N1574 1.351 . S
C1575 C1576 1.434 . S
C1576 C1567 1.429 . S
C1576 N1573 1.350 . S
C1576 C1575 1.434 . S
C1577 C1578 1.369 . S
C1577 C1579 1.419 . S
C1577 H1581 0.930 . S
C1578 C1577 1.369 . S
C1578 C1587 1.429 . S
C1579 C1577 1.419 . S
C1579 C1580 1.363 . S
C1579 H1582 0.929 . S
C1580 C1579 1.363 . S
C1580 C1586 1.428 . S
H1581 C1577 0.930 . S
H1582 C1579 0.929 . S
S1583 N1584 1.613 . S
S1583 N1585 1.610 . S
N1584 S1583 1.613 . S
N1584 C1587 1.350 . S
N1585 S1583 1.610 . S
N1585 C1586 1.351 . S
C1586 C1580 1.428 . S
C1586 N1585 1.351 . S
C1586 C1587 1.434 . S
C1587 C1578 1.429 . S
C1587 N1584 1.350 . S
C1587 C1586 1.434 . S
C1588 C1589 1.369 . S
C1588 C1590 1.419 . S
C1588 H1592 0.930 . S
C1589 C1588 1.369 . S
C1589 C1598 1.429 . S
C1590 C1588 1.419 . S
C1590 C1591 1.363 . S
C1590 H1593 0.929 . S
C1591 C1590 1.363 . S
C1591 C1597 1.428 . S
H1592 C1588 0.930 . S
H1593 C1590 0.929 . S
S1594 N1595 1.613 . S
S1594 N1596 1.610 . S
N1595 S1594 1.613 . S
N1595 C1598 1.350 . S
N1596 S1594 1.610 . S
N1596 C1597 1.351 . S
C1597 C1591 1.428 . S
C1597 N1596 1.351 . S
C1597 C1598 1.434 . S
C1598 C1589 1.429 . S
C1598 N1595 1.350 . S
C1598 C1597 1.434 . S
C1599 C1600 1.369 . S
C1599 C1601 1.419 . S
C1599 H1603 0.930 . S
C1600 C1599 1.369 . S
C1600 C1609 1.429 . S
C1601 C1599 1.419 . S
C1601 C1602 1.363 . S
C1601 H1604 0.929 . S
C1602 C1601 1.363 . S
C1602 C1608 1.428 . S
H1603 C1599 0.930 . S
H1604 C1601 0.929 . S
S1605 N1606 1.613 . S
S1605 N1607 1.610 . S
N1606 S1605 1.613 . S
N1606 C1609 1.350 . S
N1607 S1605 1.610 . S
N1607 C1608 1.351 . S
C1608 C1602 1.428 . S
C1608 N1607 1.351 . S
C1608 C1609 1.434 . S
C1609 C1600 1.429 . S
C1609 N1606 1.350 . S
C1609 C1608 1.434 . S
C1610 C1611 1.369 . S
C1610 C1612 1.419 . S
C1610 H1614 0.930 . S
C1611 C1610 1.369 . S
C1611 C1620 1.429 . S
C1612 C1610 1.419 . S
C1612 C1613 1.363 . S
C1612 H1615 0.929 . S
C1613 C1612 1.363 . S
C1613 C1619 1.428 . S
H1614 C1610 0.930 . S
H1615 C1612 0.929 . S
S1616 N1617 1.613 . S
S1616 N1618 1.610 . S
N1617 S1616 1.613 . S
N1617 C1620 1.350 . S
N1618 S1616 1.610 . S
N1618 C1619 1.351 . S
C1619 C1613 1.428 . S
C1619 N1618 1.351 . S
C1619 C1620 1.434 . S
C1620 C1611 1.429 . S
C1620 N1617 1.350 . S
C1620 C1619 1.434 . S
C1621 C1622 1.369 . S
C1621 C1623 1.419 . S
C1621 H1625 0.930 . S
C1622 C1621 1.369 . S
C1622 C1631 1.429 . S
C1623 C1621 1.419 . S
C1623 C1624 1.363 . S
C1623 H1626 0.929 . S
C1624 C1623 1.363 . S
C1624 C1630 1.428 . S
H1625 C1621 0.930 . S
H1626 C1623 0.929 . S
S1627 N1628 1.613 . S
S1627 N1629 1.610 . S
N1628 S1627 1.613 . S
N1628 C1631 1.350 . S
N1629 S1627 1.610 . S
N1629 C1630 1.351 . S
C1630 C1624 1.428 . S
C1630 N1629 1.351 . S
C1630 C1631 1.434 . S
C1631 C1622 1.429 . S
C1631 N1628 1.350 . S
C1631 C1630 1.434 . S
C1632 C1633 1.369 . S
C1632 C1634 1.419 . S
C1632 H1636 0.930 . S
C1633 C1632 1.369 . S
C1633 C1642 1.429 . S
C1634 C1632 1.419 . S
C1634 C1635 1.363 . S
C1634 H1637 0.929 . S
C1635 C1634 1.363 . S
C1635 C1641 1.428 . S
H1636 C1632 0.930 . S
H1637 C1634 0.929 . S
S1638 N1639 1.613 . S
S1638 N1640 1.610 . S
N1639 S1638 1.613 . S
N1639 C1642 1.350 . S
N1640 S1638 1.610 . S
N1640 C1641 1.351 . S
C1641 C1635 1.428 . S
C1641 N1640 1.351 . S
C1641 C1642 1.434 . S
C1642 C1633 1.429 . S
C1642 N1639 1.350 . S
C1642 C1641 1.434 . S
C1643 C1644 1.369 . S
C1643 C1645 1.419 . S
C1643 H1647 0.930 . S
C1644 C1643 1.369 . S
C1644 C1653 1.429 . S
C1645 C1643 1.419 . S
C1645 C1646 1.363 . S
C1645 H1648 0.929 . S
C1646 C1645 1.363 . S
C1646 C1652 1.428 . S
H1647 C1643 0.930 . S
H1648 C1645 0.929 . S
S1649 N1650 1.613 . S
S1649 N1651 1.610 . S
N1650 S1649 1.613 . S
N1650 C1653 1.350 . S
N1651 S1649 1.610 . S
N1651 C1652 1.351 . S
C1652 C1646 1.428 . S
C1652 N1651 1.351 . S
C1652 C1653 1.434 . S
C1653 C1644 1.429 . S
C1653 N1650 1.350 . S
C1653 C1652 1.434 . S
C1654 C1655 1.369 . S
C1654 C1656 1.419 . S
C1654 H1658 0.930 . S
C1655 C1654 1.369 . S
C1655 C1664 1.429 . S
C1656 C1654 1.419 . S
C1656 C1657 1.363 . S
C1656 H1659 0.929 . S
C1657 C1656 1.363 . S
C1657 C1663 1.428 . S
H1658 C1654 0.930 . S
H1659 C1656 0.929 . S
S1660 N1661 1.613 . S
S1660 N1662 1.610 . S
N1661 S1660 1.613 . S
N1661 C1664 1.350 . S
N1662 S1660 1.610 . S
N1662 C1663 1.351 . S
C1663 C1657 1.428 . S
C1663 N1662 1.351 . S
C1663 C1664 1.434 . S
C1664 C1655 1.429 . S
C1664 N1661 1.350 . S
C1664 C1663 1.434 . S
C1665 C1666 1.369 . S
C1665 C1667 1.419 . S
C1665 H1669 0.930 . S
C1666 C1665 1.369 . S
C1666 C1675 1.429 . S
C1667 C1665 1.419 . S
C1667 C1668 1.363 . S
C1667 H1670 0.929 . S
C1668 C1667 1.363 . S
C1668 C1674 1.428 . S
H1669 C1665 0.930 . S
H1670 C1667 0.929 . S
S1671 N1672 1.613 . S
S1671 N1673 1.610 . S
N1672 S1671 1.613 . S
N1672 C1675 1.350 . S
N1673 S1671 1.610 . S
N1673 C1674 1.351 . S
C1674 C1668 1.428 . S
C1674 N1673 1.351 . S
C1674 C1675 1.434 . S
C1675 C1666 1.429 . S
C1675 N1672 1.350 . S
C1675 C1674 1.434 . S
C1676 C1677 1.369 . S
C1676 C1678 1.419 . S
C1676 H1680 0.930 . S
C1677 C1676 1.369 . S
C1677 C1686 1.429 . S
C1678 C1676 1.419 . S
C1678 C1679 1.363 . S
C1678 H1681 0.929 . S
C1679 C1678 1.363 . S
C1679 C1685 1.428 . S
H1680 C1676 0.930 . S
H1681 C1678 0.929 . S
S1682 N1683 1.613 . S
S1682 N1684 1.610 . S
N1683 S1682 1.613 . S
N1683 C1686 1.350 . S
N1684 S1682 1.610 . S
N1684 C1685 1.351 . S
C1685 C1679 1.428 . S
C1685 N1684 1.351 . S
C1685 C1686 1.434 . S
C1686 C1677 1.429 . S
C1686 N1683 1.350 . S
C1686 C1685 1.434 . S
C1687 C1688 1.369 . S
C1687 C1689 1.419 . S
C1687 H1691 0.930 . S
C1688 C1687 1.369 . S
C1688 C1697 1.429 . S
C1689 C1687 1.419 . S
C1689 C1690 1.363 . S
C1689 H1692 0.929 . S
C1690 C1689 1.363 . S
C1690 C1696 1.428 . S
H1691 C1687 0.930 . S
H1692 C1689 0.929 . S
S1693 N1694 1.613 1_554 S
S1693 N1695 1.610 1_554 S
N1694 S1693 1.613 1_556 S
N1694 C1697 1.350 . S
N1695 S1693 1.610 1_556 S
N1695 C1696 1.351 . S
C1696 C1690 1.428 . S
C1696 N1695 1.351 . S
C1696 C1697 1.434 . S
C1697 C1688 1.429 . S
C1697 N1694 1.350 . S
C1697 C1696 1.434 . S
C1698 C1699 1.369 . S
C1698 C1700 1.419 . S
C1698 H1702 0.930 . S
C1699 C1698 1.369 . S
C1699 C1708 1.429 . S
C1700 C1698 1.419 . S
C1700 C1701 1.363 . S
C1700 H1703 0.929 . S
C1701 C1700 1.363 . S
C1701 C1707 1.428 . S
H1702 C1698 0.930 . S
H1703 C1700 0.929 . S
S1704 N1705 1.613 . S
S1704 N1706 1.610 1_545 S
N1705 S1704 1.613 . S
N1705 C1708 1.350 1_545 S
N1706 S1704 1.610 1_565 S
N1706 C1707 1.351 . S
C1707 C1701 1.428 . S
C1707 N1706 1.351 . S
C1707 C1708 1.434 . S
C1708 C1699 1.429 . S
C1708 N1705 1.350 1_565 S
C1708 C1707 1.434 . S
C1709 C1710 1.369 . S
C1709 C1711 1.419 . S
C1709 H1713 0.930 . S
C1710 C1709 1.369 . S
C1710 C1719 1.429 . S
C1711 C1709 1.419 . S
C1711 C1712 1.363 1_455 S
C1711 H1714 0.929 . S
C1712 C1711 1.363 1_655 S
C1712 C1718 1.428 . S
H1713 C1709 0.930 . S
H1714 C1711 0.929 . S
S1715 N1716 1.615 . S
S1715 N1717 1.609 1_455 S
N1716 S1715 1.615 . S
N1716 C1719 1.350 . S
N1717 S1715 1.609 1_655 S
N1717 C1718 1.351 . S
C1718 C1712 1.428 . S
C1718 N1717 1.351 . S
C1718 C1719 1.434 1_655 S
C1719 C1710 1.429 . S
C1719 N1716 1.350 . S
C1719 C1718 1.434 1_455 S
C667 C319 1.300 . S
C665 C10 1.388 . S
C676 C16 1.400 . S
C678 C339 1.293 . S
C689 C360 1.292 . S
C687 C30 1.396 . S
C700 C387 1.292 . S
C698 C42 1.403 . S
C711 C343 1.304 . S
C709 C57 1.398 . S
C720 C69 1.390 . S
C722 C363 1.303 . S
C733 C383 1.291 . S
C731 C83 1.403 . S
C742 C101 1.395 . S
C744 C316 1.296 . S
C753 C108 1.395 . S
C755 C321 1.297 . S
C766 C338 1.293 . S
C764 C120 1.404 . S
C777 C362 1.303 . S
C775 C133 1.398 . S
C788 C386 1.292 . S
C786 C147 1.397 . S
C799 C342 1.302 . S
C797 C114 1.392 . S
C810 C365 1.295 . S
C808 C122 1.399 . S
C819 C135 1.402 . S
C821 C382 1.293 . S
C832 C318 1.291 . S
C830 C153 1.396 . S
C841 C160 1.396 . S
C843 C320 1.292 . S
C852 C174 1.401 . S
C854 C407 1.293 . S
C865 C427 1.293 . S
C863 C187 1.404 . S
C876 C450 1.302 . S
C874 C205 1.389 . S
C885 C212 1.392 . S
C887 C317 1.301 . S
C896 C226 1.400 . S
C898 C361 1.295 . S
C909 C451 1.300 . S
C907 C185 1.396 . S
C920 C406 1.302 . S
C918 C244 1.389 . S
C931 C474 1.271 . S
C929 C23 1.342 . S
C942 C495 1.278 . S
C940 C5 1.347 . S
C951 C49 1.345 . S
C953 C514 1.279 . S
C962 C29 1.347 . S
C964 C539 1.277 . S
C973 C94 1.346 . S
C975 C494 1.274 . S
C984 C88 1.345 . S
C986 C519 1.280 . S
C997 C538 1.275 . S
C995 C70 1.347 . S
C1006 C62 1.344 . S
C1008 C471 1.276 . S
C1017 C257 1.344 . S
C1019 C475 1.276 . S
C1030 C496 1.280 . S
C1028 C200 1.348 . S
C1041 C515 1.271 . S
C1039 C211 1.346 . S
C1052 C540 1.280 . S
C1050 C179 1.345 . S
C1063 C492 1.270 . S
C1061 C251 1.342 . S
C1074 C517 1.278 . S
C1072 C198 1.347 . S
C1085 C536 1.281 . S
C1083 C213 1.348 . S
C1094 C173 1.345 . S
C1096 C472 1.280 . S
C1107 C473 1.271 . S
C1105 C264 1.342 . S
C1116 C148 1.346 . S
C1118 C559 1.273 . S
C1129 C584 1.271 . S
C1127 C278 1.346 . S
C1138 C127 1.345 . S
C1140 C603 1.280 . S
C1151 C470 1.273 . S
C1149 C140 1.343 . S
C1162 C516 1.280 . S
C1160 C289 1.347 . S
C1173 C607 1.272 . S
C1171 C276 1.346 . S
C1182 C303 1.343 . S
C1184 C563 1.273 . S
C1193 C36 1.397 . S
C1195 C627 1.292 . S
C1204 C44 1.399 . S
C1206 C405 1.302 . S
C1217 C429 1.293 . S
C1215 C4 1.397 . S
C1226 C18 1.403 . S
C1228 C453 1.297 . S
C1237 C81 1.402 . S
C1239 C409 1.298 . S
C1248 C95 1.396 . S
C1250 C426 1.292 . S
C1261 C449 1.295 . S
C1259 C55 1.403 . S
C1272 C624 1.292 . S
C1270 C75 1.394 . S
C1283 C629 1.302 . S
C1281 C277 1.388 . S
C1294 C404 1.302 . S
C1292 C263 1.399 . S
C1305 C431 1.292 . S
C1303 C302 1.403 . S
C1314 C290 1.389 . S
C1316 C452 1.302 . S
C1327 C408 1.296 . S
C1325 C283 1.396 . S
C1336 C265 1.401 . S
C1338 C428 1.299 . S
C1349 C448 1.294 . S
C1347 C304 1.404 . S
C1358 C296 1.389 . S
C1360 C626 1.299 . S
C1371 C628 1.295 . S
C1369 C199 1.396 . S
C1380 C224 1.399 . S
C1382 C341 1.296 . S
C1393 C364 1.304 . S
C1391 C252 1.396 . S
C1402 C166 1.390 . S
C1404 C384 1.299 . S
C1415 C625 1.291 . S
C1413 C238 1.396 . S
C1426 C430 1.303 . S
C1424 C172 1.399 . S
C1437 C385 1.292 . S
C1435 C250 1.404 . S
C1448 C340 1.301 . S
C1446 C218 1.389 . S
C1457 C43 1.342 . S
C1459 C651 1.270 . S
C1468 C31 1.348 . S
C1470 C561 1.280 . S
C1479 C17 1.344 . S
C1481 C580 1.277 . S
C1492 C605 1.274 . S
C1490 C3 1.346 . S
C1503 C560 1.280 . S
C1501 C68 1.348 . S
C1512 C56 1.345 . S
C1514 C585 1.280 . S
C1525 C604 1.278 . S
C1523 C96 1.347 . S
C1534 C82 1.344 . S
C1536 C646 1.276 . S
C1547 C649 1.273 . S
C1545 C192 1.343 . S
C1556 C161 1.348 . S
C1558 C562 1.280 . S
C1567 C237 1.347 . S
C1569 C581 1.277 . S
C1580 C606 1.274 . S
C1578 C225 1.343 . S
C1591 C558 1.272 . S
C1589 C186 1.343 . S
C1600 C159 1.346 . S
C1602 C583 1.274 . S
C1613 C602 1.275 . S
C1611 C239 1.346 . S
C1624 C647 1.271 . S
C1622 C231 1.343 . S
C1635 C650 1.271 . S
C1633 C121 1.342 . S
C1646 C493 1.275 . S
C1644 C291 1.347 . S
C1655 C109 1.347 . S
C1657 C518 1.277 . S
C1666 C270 1.345 . S
C1668 C537 1.279 . S
C1679 C648 1.274 . S
C1677 C309 1.343 . S
C1690 C582 1.271 . S
C1688 C146 1.345 . S
C1701 C541 1.279 . S
C1699 C107 1.347 . S
C1712 C497 1.270 . S
C1710 C134 1.342 . S
