# Generated by pormake.
# Topology nia, (6,6)-cn, num edge types: 1
# Building blocks:
#     Node 0, Type 0, BuildingBlock: NUHQIS_clean_sbu_0, # of connection points: 6
#     Node 1, Type 0, BuildingBlock: NUHQIS_clean_sbu_0, # of connection points: 6
#     Node 2, Type 1, BuildingBlock: MIDCAF_clean_sbu_0, # of connection points: 6
#     Node 3, Type 1, BuildingBlock: MIDCAF_clean_sbu_0, # of connection points: 6
#     Edge 4, Type (0, 1), BuildingBlock: UKIBUN_clean_linker_0, # of connection points: 2
#     Edge 5, Type (0, 1), BuildingBlock: UKIBUN_clean_linker_0, # of connection points: 2
#     Edge 6, Type (0, 1), BuildingBlock: UKIBUN_clean_linker_0, # of connection points: 2
#     Edge 7, Type (0, 1), BuildingBlock: UKIBUN_clean_linker_0, # of connection points: 2
#     Edge 8, Type (0, 1), BuildingBlock: UKIBUN_clean_linker_0, # of connection points: 2
#     Edge 9, Type (0, 1), BuildingBlock: UKIBUN_clean_linker_0, # of connection points: 2
#     Edge 10, Type (0, 1), BuildingBlock: UKIBUN_clean_linker_0, # of connection points: 2
#     Edge 11, Type (0, 1), BuildingBlock: UKIBUN_clean_linker_0, # of connection points: 2
#     Edge 12, Type (0, 1), BuildingBlock: UKIBUN_clean_linker_0, # of connection points: 2
#     Edge 13, Type (0, 1), BuildingBlock: UKIBUN_clean_linker_0, # of connection points: 2
#     Edge 14, Type (0, 1), BuildingBlock: UKIBUN_clean_linker_0, # of connection points: 2
#     Edge 15, Type (0, 1), BuildingBlock: UKIBUN_clean_linker_0, # of connection points: 2
# Relax obj value: 0.199
# Max RMSD: 0.267
# Mean RMSD: 0.209
data_MOF--net-nia--node1-NUHQIS_clean_sbu_0--node2-MIDCAF_clean_sbu_0--edge1-UKIBUN_clean_linker_0
_symmetry_space_group_name_H-M    P1
_symmetry_Int_Tables_number       1
_symmetry_cell_setting            triclinic
loop_
_symmetry_equiv_pos_as_xyz
'x, y, z'
_cell_length_a     43.06799
_cell_length_b     42.91539
_cell_length_c     52.168431
_cell_angle_alpha  90.979219
_cell_angle_beta   90.82924
_cell_angle_gamma 131.76815
loop_
_atom_site_label
_atom_site_type_symbol
_atom_site_fract_x
_atom_site_fract_y
_atom_site_fract_z
_atom_type_partial_charge
Tb0 Tb 0.98254 0.01481 0.97629 0.0
Eu1 Eu 0.01818 0.98549 0.01982 0.0
C2 C 0.06898 0.03946 0.96906 0.0
C3 C 0.95831 0.92769 0.97105 0.0
C4 C 0.951 0.07419 0.95115 0.0
C5 C 0.95722 0.12724 0.92796 0.0
C6 C 0.96592 0.10111 0.93048 0.0
C7 C 0.92961 0.07642 0.97027 0.0
C8 C 0.92052 0.10222 0.96759 0.0
C9 C 0.9329 0.12672 0.94592 0.0
C10 C 0.95307 0.04058 0.95039 0.0
O11 O 0.93242 0.97121 0.00235 0.0
O12 O 0.96359 0.9711 0.0389 0.0
O13 O 0.04 0.04501 0.03768 0.0
O14 O 0.024 0.06676 0.00354 0.0
C15 C 0.93199 0.96329 0.02668 0.0
O16 O 0.02074 0.95533 0.05268 0.0
O17 O 0.06515 0.98056 0.0226 0.0
O18 O 0.06921 0.03193 0.99327 0.0
O19 O 0.03609 0.02995 0.95743 0.0
O20 O 0.96615 0.95867 0.95858 0.0
O21 O 0.96737 0.9303 0.9954 0.0
C22 C 0.04062 0.07264 0.02646 0.0
O23 O 0.98867 0.05111 0.9462 0.0
O24 O 0.93262 0.01168 0.96725 0.0
C25 C 0.05056 0.92401 0.04462 0.0
C26 C 0.06627 0.87027 0.05482 0.0
C27 C 0.03712 0.86822 0.0689 0.0
C28 C 0.0302 0.89533 0.06427 0.0
C29 C 0.07547 0.92249 0.02844 0.0
C30 C 0.08333 0.89624 0.03348 0.0
C31 C 0.05113 0.95918 0.04335 0.0
H32 H 0.96699 0.14563 0.91101 0.0
H33 H 0.98239 0.10023 0.91542 0.0
H34 H 0.91791 0.0566 0.98664 0.0
H35 H 0.90197 0.10149 0.98181 0.0
H36 H 0.02067 0.84706 0.08441 0.0
H37 H 0.01031 0.89509 0.0769 0.0
H38 H 0.09132 0.94364 0.01278 0.0
H39 H 0.10522 0.89899 0.02148 0.0
Tb40 Tb 0.99459 0.02665 0.52131 0.0
Eu41 Eu 0.02688 0.99082 0.47841 0.0
C42 C 0.96953 0.93917 0.52806 0.0
C43 C 0.08184 0.04981 0.5279 0.0
C44 C 0.93658 0.05871 0.54669 0.0
C45 C 0.88037 0.04611 0.56962 0.0
C46 C 0.90686 0.03835 0.56575 0.0
C47 C 0.93627 0.08399 0.52995 0.0
C48 C 0.91043 0.09258 0.53421 0.0
C49 C 0.88396 0.07593 0.55526 0.0
C50 C 0.97112 0.05837 0.54695 0.0
O51 O 0.02855 0.07225 0.49178 0.0
O52 O 0.05364 0.05254 0.46282 0.0
O53 O 0.96612 0.96753 0.46199 0.0
O54 O 0.94452 0.98882 0.49309 0.0
C55 C 0.04945 0.07842 0.47151 0.0
O56 O 0.06092 0.9934 0.44619 0.0
O57 O 0.02631 0.94038 0.47064 0.0
O58 O -0.00197 0.94915 0.51214 0.0
O59 O 0.9601 0.96233 0.53229 0.0
O60 O 0.05104 0.04401 0.53904 0.0
O61 O 0.08039 0.03815 0.50434 0.0
C62 C 0.93944 0.96966 0.47149 0.0
O63 O 0.96324 0.02449 0.55321 0.0
O64 O -0.0031 0.07648 0.52835 0.0
C65 C 0.08725 0.95919 0.45253 0.0
C66 C 0.14125 0.94391 0.44656 0.0
C67 C 0.13951 0.96632 0.42828 0.0
C68 C 0.11281 0.97394 0.43126 0.0
C69 C 0.09159 0.93958 0.47187 0.0
C70 C 0.11836 0.93196 0.46884 0.0
C71 C 0.05277 0.95934 0.45235 0.0
H72 H 0.85871 0.03026 0.58498 0.0
H73 H 0.90559 0.01807 0.57868 0.0
H74 H 0.95802 0.09957 0.51459 0.0
H75 H 0.91398 0.11492 0.52211 0.0
H76 H 0.15666 0.97538 0.41083 0.0
H77 H 0.1102 0.98908 0.41609 0.0
H78 H 0.07257 0.92792 0.4886 0.0
H79 H 0.119 0.91421 0.48302 0.0
Zn80 Zn 0.33594 0.64822 0.17281 0.0
Zn81 Zn 0.35316 0.65838 0.31135 0.0
Zn82 Zn 0.351 0.65411 0.25341 0.0
C83 C 0.42702 0.68774 0.28698 0.0
C84 C 0.2957 0.57598 0.28948 0.0
O85 O 0.31491 0.67167 0.24434 0.0
O86 O 0.32171 0.65297 0.20817 0.0
C87 C 0.42123 0.70372 0.20308 0.0
O88 O 0.41268 0.68788 0.26537 0.0
O89 O 0.40641 0.67431 0.30718 0.0
O90 O 0.30294 0.59933 0.30817 0.0
O91 O 0.31426 0.5908 0.26808 0.0
O92 O 0.3978 0.69097 0.18278 0.0
O93 O 0.40724 0.69124 0.22621 0.0
O94 O 0.31683 0.58961 0.24149 0.0
O95 O 0.32397 0.6197 0.20676 0.0
C96 C 0.31435 0.58791 0.21707 0.0
O97 O 0.33332 0.68849 0.26808 0.0
O98 O 0.35271 0.70262 0.30949 0.0
C99 C 0.30724 0.66637 0.22023 0.0
C100 C 0.34191 0.70916 0.28922 0.0
Zn101 Zn 0.66853 0.35946 0.81634 0.0
Zn102 Zn 0.65329 0.34506 0.68737 0.0
Zn103 Zn 0.65925 0.35692 0.74766 0.0
C104 C 0.6932 0.42899 0.70653 0.0
C105 C 0.57701 0.29322 0.7132 0.0
O106 O 0.68299 0.32843 0.76544 0.0
O107 O 0.66167 0.31098 0.80612 0.0
C108 C 0.71105 0.42632 0.77851 0.0
O109 O 0.68985 0.41751 0.72975 0.0
O110 O 0.68081 0.4044 0.6874 0.0
O111 O 0.59696 0.30319 0.69303 0.0
O112 O 0.59429 0.31259 0.73502 0.0
O113 O 0.68874 0.39105 0.78745 0.0
O114 O 0.70425 0.42602 0.75479 0.0
O115 O 0.59754 0.32408 0.7679 0.0
O116 O 0.61339 0.34011 0.81018 0.0
C117 C 0.58735 0.32412 0.79133 0.0
O118 O 0.69426 0.33838 0.73844 0.0
O119 O 0.68023 0.32614 0.69637 0.0
C120 C 0.67499 0.30741 0.78578 0.0
C121 C 0.69873 0.32866 0.71618 0.0
C122 C 0.10667 0.84618 0.04874 0.0
C123 C 0.08281 0.85034 0.06432 0.0
C124 C 0.12846 0.83533 0.0593 0.0
C125 C 0.21821 0.80021 0.11202 0.0
C126 C 0.26159 0.68277 0.22021 0.0
C127 C 0.28824 0.68051 0.20705 0.0
C128 C 0.2472 0.70057 0.20894 0.0
C129 C 0.19928 0.77986 0.16353 0.0
H130 H 0.10965 0.8522 0.02851 0.0
H131 H 0.14789 0.83415 0.04715 0.0
H132 H 0.22533 0.80743 0.09201 0.0
H133 H 0.25194 0.67083 0.23918 0.0
H134 H 0.22768 0.70319 0.21975 0.0
H135 H 0.19129 0.7715 0.18335 0.0
C136 C 0.07906 0.83966 0.0903 0.0
C137 C 0.10015 0.82812 0.10058 0.0
C138 C 0.18284 0.79417 0.14993 0.0
C139 C 0.29752 0.69316 0.18156 0.0
C140 C 0.2829 0.71075 0.17019 0.0
C141 C 0.23465 0.78595 0.12561 0.0
C142 C 0.12608 0.82734 0.08544 0.0
C143 C 0.15106 0.81985 0.09733 0.0
C144 C 0.17053 0.81331 0.10909 0.0
C145 C 0.19141 0.8034 0.12393 0.0
H146 H 0.0618 0.84224 0.10353 0.0
H147 H 0.09748 0.82144 0.12077 0.0
H148 H 0.16239 0.79672 0.15947 0.0
H149 H 0.31733 0.69102 0.17075 0.0
H150 H 0.2914 0.72158 0.15079 0.0
H151 H 0.25421 0.78233 0.11589 0.0
C152 C 0.25875 0.71564 0.18415 0.0
C153 C 0.24682 0.7371 0.17335 0.0
C154 C 0.23717 0.75518 0.16393 0.0
C155 C 0.22442 0.77477 0.15119 0.0
C156 C 0.12615 0.03896 0.54688 0.0
C157 C 0.11964 0.06642 0.54223 0.0
C158 C 0.16591 0.05454 0.55337 0.0
C159 C 0.31975 0.12058 0.59066 0.0
C160 C 0.51908 0.28491 0.69873 0.0
C161 C 0.53282 0.26523 0.70781 0.0
C162 C 0.48863 0.26592 0.67919 0.0
C163 C 0.37928 0.20675 0.60185 0.0
H164 H 0.10075 0.00545 0.5443 0.0
H165 H 0.17046 0.03293 0.55671 0.0
H166 H 0.29633 0.08706 0.58705 0.0
H167 H 0.53581 0.31726 0.70424 0.0
H168 H 0.4806 0.28294 0.67109 0.0
H169 H 0.4016 0.23997 0.60669 0.0
C170 C 0.15338 0.10966 0.54396 0.0
C171 C 0.1932 0.12527 0.55052 0.0
C172 C 0.34367 0.18991 0.58694 0.0
C173 C 0.5132 0.22462 0.69856 0.0
C174 C 0.48192 0.20515 0.67935 0.0
C175 C 0.35533 0.1374 0.60554 0.0
C176 C 0.19948 0.09773 0.55515 0.0
C177 C 0.23995 0.11396 0.56318 0.0
C178 C 0.27431 0.12872 0.56987 0.0
C179 C 0.31358 0.14672 0.58168 0.0
H180 H 0.14929 0.13119 0.53903 0.0
H181 H 0.21917 0.15878 0.55164 0.0
H182 H 0.33884 0.2103 0.58042 0.0
H183 H 0.52518 0.21 0.70411 0.0
H184 H 0.46825 0.17463 0.67155 0.0
H185 H 0.35903 0.11672 0.61327 0.0
C186 C 0.47074 0.22653 0.66909 0.0
C187 C 0.44155 0.20885 0.64787 0.0
C188 C 0.41735 0.19626 0.63013 0.0
C189 C 0.3847 0.18034 0.61153 0.0
C190 C 0.08229 0.12359 0.0636 0.0
C191 C 0.06302 0.11392 0.03922 0.0
C192 C 0.10636 0.16395 0.07438 0.0
C193 C 0.20603 0.31222 0.1197 0.0
C194 C 0.29217 0.54752 0.17553 0.0
C195 C 0.30368 0.55263 0.20164 0.0
C196 C 0.28104 0.51362 0.16096 0.0
C197 C 0.22001 0.38183 0.10223 0.0
H198 H 0.07959 0.10038 0.07411 0.0
H199 H 0.12181 0.17122 0.09296 0.0
H200 H 0.20021 0.2852 0.12678 0.0
H201 H 0.29085 0.56915 0.16648 0.0
H202 H 0.27113 0.50955 0.14103 0.0
H203 H 0.22468 0.4084 0.09549 0.0
C204 C 0.0667 0.14487 0.0264 0.0
C205 C 0.09089 0.18517 0.03717 0.0
C206 C 0.1973 0.34535 0.08677 0.0
C207 C 0.3054 0.52413 0.21268 0.0
C208 C 0.29461 0.49037 0.19797 0.0
C209 C 0.22868 0.34866 0.13516 0.0
C210 C 0.11147 0.19496 0.0609 0.0
C211 C 0.13905 0.23704 0.07119 0.0
C212 C 0.16273 0.27136 0.08128 0.0
C213 C 0.18969 0.31029 0.0957 0.0
H214 H 0.05182 0.13844 0.00772 0.0
H215 H 0.09424 0.20882 0.0267 0.0
H216 H 0.18473 0.34413 0.06825 0.0
H217 H 0.31496 0.52785 0.23264 0.0
H218 H 0.29551 0.46832 0.20683 0.0
H219 H 0.24006 0.34936 0.15402 0.0
C220 C 0.28183 0.48479 0.17218 0.0
C221 C 0.26728 0.44846 0.15739 0.0
C222 C 0.2545 0.41912 0.1435 0.0
C223 C 0.23519 0.3833 0.12661 0.0
C224 C 0.85927 0.09467 0.59104 0.0
C225 C 0.86575 0.09416 0.5646 0.0
C226 C 0.84976 0.11778 0.60093 0.0
C227 C 0.82797 0.211 0.64863 0.0
C228 C 0.7481 0.34146 0.68577 0.0
C229 C 0.73117 0.32792 0.71033 0.0
C230 C 0.76739 0.32907 0.67467 0.0
C231 C 0.81861 0.26166 0.62366 0.0
H232 H 0.86396 0.0794 0.60471 0.0
H233 H 0.8465 0.11862 0.62144 0.0
H234 H 0.83111 0.19115 0.65848 0.0
H235 H 0.74301 0.35848 0.67406 0.0
H236 H 0.77661 0.33651 0.6549 0.0
H237 H 0.81452 0.28081 0.61382 0.0
C238 C 0.85962 0.11578 0.54826 0.0
C239 C 0.85062 0.13948 0.55835 0.0
C240 C 0.82782 0.24084 0.60958 0.0
C241 C 0.73914 0.30696 0.72503 0.0
C242 C 0.76007 0.29572 0.71408 0.0
C243 C 0.81878 0.23181 0.66269 0.0
C244 C 0.84682 0.1414 0.58482 0.0
C245 C 0.84195 0.16886 0.596 0.0
C246 C 0.8379 0.1907 0.60728 0.0
C247 C 0.83187 0.21492 0.62197 0.0
H248 H 0.86288 0.11554 0.52776 0.0
H249 H 0.8478 0.1572 0.54557 0.0
H250 H 0.83084 0.24422 0.58901 0.0
H251 H 0.72643 0.29633 0.74379 0.0
H252 H 0.7643 0.27744 0.72492 0.0
H253 H 0.81482 0.22776 0.68319 0.0
C254 C 0.77252 0.30534 0.68858 0.0
C255 C 0.78789 0.28857 0.67585 0.0
C256 C 0.80094 0.2752 0.66431 0.0
C257 C 0.81363 0.25672 0.65016 0.0
C258 C 0.89227 0.9673 0.05877 0.0
C259 C 0.8933 0.94395 0.04023 0.0
C260 C 0.85436 0.95117 0.06909 0.0
C261 C 0.71143 0.89398 0.11184 0.0
C262 C 0.47462 0.71138 0.17923 0.0
C263 C 0.46576 0.7291 0.19725 0.0
C264 C 0.51144 0.7362 0.16583 0.0
C265 C 0.63584 0.81189 0.10349 0.0
H266 H 0.92054 -0.00142 0.06457 0.0
H267 H 0.85411 0.97003 0.08301 0.0
H268 H 0.74065 0.92566 0.11553 0.0
H269 H 0.45144 0.67829 0.17413 0.0
H270 H 0.51623 0.7216 0.15124 0.0
H271 H 0.6069 0.77986 0.10029 0.0
C272 C 0.85598 0.90399 0.03242 0.0
C273 C 0.81817 0.88764 0.04301 0.0
C274 C 0.6704 0.82695 0.08901 0.0
C275 C 0.496 0.77256 0.20252 0.0
C276 C 0.53353 0.79762 0.18917 0.0
C277 C 0.67695 0.87895 0.1263 0.0
C278 C 0.81708 0.91135 0.06117 0.0
C279 C 0.77789 0.89501 0.07163 0.0
C280 C 0.74567 0.88228 0.08074 0.0
C281 C 0.70863 0.86784 0.09351 0.0
H282 H 0.85605 0.8857 0.01788 0.0
H283 H 0.78972 0.85678 0.03671 0.0
H284 H 0.66758 0.80633 0.07486 0.0
H285 H 0.48957 0.78739 0.21561 0.0
H286 H 0.55599 0.83116 0.19284 0.0
H287 H 0.68013 0.89926 0.1409 0.0
C288 C 0.54072 0.7795 0.1702 0.0
C289 C 0.5769 0.80432 0.1543 0.0
C290 C 0.60525 0.82071 0.13966 0.0
C291 C 0.63923 0.83758 0.12261 0.0
C292 C 0.90385 0.87195 0.54428 0.0
C293 C 0.9471 0.89924 0.54119 0.0
C294 C 0.88234 0.83205 0.55387 0.0
C295 C 0.79848 0.67708 0.593 0.0
C296 C 0.75584 0.50103 0.69794 0.0
C297 C 0.71272 0.47162 0.70092 0.0
C298 C 0.77328 0.53488 0.68227 0.0
C299 C 0.84301 0.65695 0.61428 0.0
H300 H 0.8865 0.88082 0.53841 0.0
H301 H 0.84887 0.81107 0.55565 0.0
H302 H 0.78103 0.68489 0.58521 0.0
H303 H 0.77537 0.49564 0.70565 0.0
H304 H 0.80628 0.55588 0.6787 0.0
H305 H 0.86063 0.64978 0.62284 0.0
C306 C 0.96846 0.8862 0.54833 0.0
C307 C 0.94707 0.84666 0.55822 0.0
C308 C 0.86376 0.69339 0.60051 0.0
C309 C 0.68763 0.47832 0.69012 0.0
C310 C 0.7051 0.51231 0.67458 0.0
C311 C 0.77775 0.64066 0.60678 0.0
C312 C 0.90388 0.81926 0.56077 0.0
C313 C 0.88188 0.77822 0.5706 0.0
C314 C 0.86362 0.74392 0.57882 0.0
C315 C 0.84169 0.70404 0.59031 0.0
H316 H 0.00176 0.90654 0.54605 0.0
H317 H 0.96421 0.83734 0.56359 0.0
H318 H 0.89715 0.71389 0.59858 0.0
H319 H 0.6541 0.45531 0.69184 0.0
H320 H 0.68503 0.51578 0.66511 0.0
H321 H 0.74459 0.62084 0.60948 0.0
C322 C 0.74767 0.53957 0.66977 0.0
C323 C 0.76471 0.57068 0.65083 0.0
C324 C 0.7801 0.59712 0.63509 0.0
C325 C 0.80016 0.63108 0.61794 0.0
C326 C 0.19974 0.94389 0.44718 0.0
C327 C 0.15898 0.9252 0.43963 0.0
C328 C 0.21549 0.92532 0.43962 0.0
C329 C 0.27022 0.84677 0.40242 0.0
C330 C 0.29014 0.71559 0.29032 0.0
C331 C 0.33211 0.73522 0.29233 0.0
C332 C 0.27562 0.73026 0.30537 0.0
C333 C 0.21551 0.77677 0.36925 0.0
H334 H 0.21928 0.97273 0.45869 0.0
H335 H 0.24705 0.94001 0.44536 0.0
H336 H 0.29182 0.87433 0.41483 0.0
H337 H 0.26767 0.68558 0.28041 0.0
H338 H 0.24249 0.71286 0.30534 0.0
H339 H 0.19457 0.75037 0.35589 0.0
C340 C 0.13427 0.88793 0.42463 0.0
C341 C 0.14991 0.86948 0.41716 0.0
C342 C 0.20178 0.79448 0.38171 0.0
C343 C 0.36048 0.77249 0.30707 0.0
C344 C 0.34582 0.78663 0.32256 0.0
C345 C 0.28393 0.82907 0.38997 0.0
C346 C 0.19048 0.88809 0.42459 0.0
C347 C 0.20608 0.86884 0.41633 0.0
C348 C 0.2168 0.85082 0.40863 0.0
C349 C 0.2294 0.82997 0.39793 0.0
H350 H 0.1028 0.87318 0.41863 0.0
H351 H 0.13036 0.84077 0.40549 0.0
H352 H 0.17019 0.78139 0.37801 0.0
H353 H 0.39292 0.78737 0.30918 0.0
H354 H 0.36722 0.813 0.33584 0.0
H355 H 0.31607 0.84328 0.39269 0.0
C356 C 0.30313 0.76424 0.32248 0.0
C357 C 0.28701 0.77397 0.34125 0.0
C358 C 0.27283 0.78167 0.3569 0.0
C359 C 0.25678 0.79467 0.37304 0.0
C360 C 0.14591 0.08069 0.96899 0.0
C361 C 0.10788 0.05915 0.95505 0.0
C362 C 0.18227 0.09642 0.95662 0.0
C363 C 0.32689 0.16291 0.90391 0.0
C364 C 0.50802 0.27217 0.78379 0.0
C365 C 0.5439 0.30163 0.79944 0.0
C366 C 0.46824 0.24635 0.79457 0.0
C367 C 0.31785 0.14947 0.85057 0.0
H368 H 0.14761 0.08519 0.98963 0.0
H369 H 0.21096 0.11272 0.96788 0.0
H370 H 0.33084 0.16875 0.9245 0.0
H371 H 0.51072 0.26791 0.7637 0.0
H372 H 0.44091 0.22306 0.78247 0.0
H373 H 0.31387 0.14437 0.82993 0.0
C374 C 0.1074 0.05428 0.92827 0.0
C375 C 0.1439 0.06984 0.91589 0.0
C376 C 0.28268 0.12991 0.86539 0.0
C377 C 0.53848 0.30631 0.82556 0.0
C378 C 0.49945 0.28029 0.83619 0.0
C379 C 0.3622 0.18253 0.88902 0.0
C380 C 0.18146 0.0908 0.93005 0.0
C381 C 0.2192 0.10685 0.91742 0.0
C382 C 0.25051 0.12009 0.90663 0.0
C383 C 0.28696 0.13712 0.89204 0.0
H384 H 0.07867 0.03748 0.917 0.0
H385 H 0.14271 0.0652 0.8953 0.0
H386 H 0.25214 0.11004 0.85592 0.0
H387 H 0.56479 0.32901 0.83851 0.0
H388 H 0.49706 0.28362 0.85655 0.0
H389 H 0.39287 0.20321 0.89837 0.0
C390 C 0.46415 0.24952 0.82103 0.0
C391 C 0.42462 0.22112 0.83346 0.0
C392 C 0.394 0.19985 0.84636 0.0
C393 C 0.35781 0.17652 0.86219 0.0
C394 C 0.04466 0.12726 0.45173 0.0
C395 C 0.06887 0.11732 0.45825 0.0
C396 C 0.06324 0.1662 0.442 0.0
C397 C 0.1306 0.31372 0.40046 0.0
C398 C 0.29426 0.52212 0.30529 0.0
C399 C 0.27187 0.53261 0.29549 0.0
C400 C 0.2758 0.48984 0.32239 0.0
C401 C 0.21604 0.37396 0.39189 0.0
H402 H 0.01135 0.10499 0.45445 0.0
H403 H 0.044 0.17323 0.43701 0.0
H404 H 0.09739 0.29025 0.40329 0.0
H405 H 0.3272 0.54158 0.30186 0.0
H406 H 0.29421 0.4837 0.33106 0.0
H407 H 0.24903 0.39671 0.38821 0.0
C408 C 0.11206 0.14698 0.45504 0.0
C409 C 0.13077 0.18628 0.44563 0.0
C410 C 0.20017 0.33865 0.40567 0.0
C411 C 0.22994 0.50857 0.3014 0.0
C412 C 0.21133 0.47597 0.3183 0.0
C413 C 0.14648 0.34903 0.38669 0.0
C414 C 0.10637 0.19595 0.43914 0.0
C415 C 0.12533 0.23617 0.42937 0.0
C416 C 0.14033 0.26958 0.42114 0.0
C417 C 0.1573 0.30807 0.40955 0.0
H418 H 0.13141 0.14035 0.46069 0.0
H419 H 0.16423 0.20919 0.44366 0.0
H420 H 0.2211 0.33459 0.41255 0.0
H421 H 0.21284 0.51739 0.29475 0.0
H422 H 0.17949 0.45886 0.32367 0.0
H423 H 0.12538 0.35238 0.37897 0.0
C424 C 0.23473 0.46756 0.32944 0.0
C425 C 0.21723 0.43688 0.34861 0.0
C426 C 0.20433 0.41156 0.36478 0.0
C427 C 0.18907 0.37872 0.38198 0.0
C428 C 0.87138 0.11919 0.9354 0.0
C429 C 0.91465 0.14563 0.93987 0.0
C430 C 0.85331 0.13532 0.92785 0.0
C431 C 0.77449 0.18329 0.89157 0.0
C432 C 0.73502 0.31599 0.79752 0.0
C433 C 0.69269 0.28856 0.79018 0.0
C434 C 0.75006 0.30294 0.81384 0.0
C435 C 0.81561 0.26635 0.88099 0.0
H436 H 0.85157 0.08571 0.9371 0.0
H437 H 0.81997 0.11405 0.92401 0.0
H438 H 0.75833 0.15092 0.89516 0.0
H439 H 0.75548 0.3487 0.79289 0.0
H440 H 0.7823 0.32535 0.82065 0.0
H441 H 0.83206 0.29852 0.87652 0.0
C442 C 0.93955 0.18892 0.93694 0.0
C443 C 0.92127 0.2052 0.92971 0.0
C444 C 0.83716 0.25674 0.89353 0.0
C445 C 0.66615 0.24684 0.79769 0.0
C446 C 0.68136 0.23361 0.81382 0.0
C447 C 0.75296 0.19291 0.87906 0.0
C448 C 0.87804 0.17833 0.92491 0.0
C449 C 0.85872 0.19405 0.91619 0.0
C450 C 0.84014 0.20454 0.90885 0.0
C451 C 0.81692 0.21506 0.89841 0.0
H452 H 0.97299 0.21001 0.94018 0.0
H453 H 0.94088 0.23857 0.9275 0.0
H454 H 0.8699 0.28164 0.89868 0.0
H455 H 0.63303 0.22569 0.79302 0.0
H456 H 0.66017 0.20192 0.82046 0.0
H457 H 0.72059 0.16789 0.87308 0.0
C458 C 0.72305 0.26218 0.82266 0.0
C459 C 0.73829 0.25057 0.84135 0.0
C460 C 0.75335 0.24321 0.85696 0.0
C461 C 0.7737 0.23432 0.87324 0.0
C462 C 0.89399 0.97496 0.44696 0.0
C463 C 0.90114 0.95005 0.45697 0.0
C464 C 0.85759 0.95641 0.43258 0.0
C465 C 0.72067 0.87557 0.36573 0.0
C466 C 0.47813 0.68283 0.30008 0.0
C467 C 0.46951 0.70653 0.29001 0.0
C468 C 0.51793 0.70288 0.30968 0.0
C469 C 0.66773 0.7884 0.36055 0.0
H470 H 0.91704 0.00869 0.44967 0.0
H471 H 0.85297 0.97593 0.42395 0.0
H472 H 0.74087 0.90925 0.36784 0.0
H473 H 0.45362 0.64927 0.30172 0.0
H474 H 0.52427 0.6847 0.31826 0.0
H475 H 0.64704 0.75462 0.35885 0.0
C476 C 0.87081 0.90648 0.45405 0.0
C477 C 0.83416 0.88791 0.43996 0.0
C478 C 0.70359 0.81076 0.37619 0.0
C479 C 0.50049 0.7499 0.28902 0.0
C480 C 0.54009 0.76996 0.29895 0.0
C481 C 0.68479 0.85319 0.35009 0.0
C482 C 0.82827 0.91299 0.42858 0.0
C483 C 0.79405 0.89427 0.41095 0.0
C484 C 0.76472 0.87667 0.39636 0.0
C485 C 0.72964 0.85423 0.37903 0.0
H486 H 0.87559 0.88701 0.46249 0.0
H487 H 0.81114 0.85419 0.43723 0.0
H488 H 0.71052 0.79413 0.38642 0.0
H489 H 0.49326 0.7683 0.28236 0.0
H490 H 0.56354 0.80381 0.2994 0.0
H491 H 0.67733 0.86967 0.34027 0.0
C492 C 0.54846 0.74647 0.30962 0.0
C493 C 0.58725 0.76756 0.32259 0.0
C494 C 0.6203 0.78658 0.33331 0.0
C495 C 0.65832 0.80966 0.34773 0.0
C496 C 0.96425 0.89083 0.93711 0.0
C497 C 0.94274 0.88903 0.9578 0.0
C498 C 0.95578 0.85474 0.92835 0.0
C499 C 0.90699 0.7123 0.88455 0.0
C500 C 0.72611 0.46242 0.8206 0.0
C501 C 0.73803 0.46401 0.79538 0.0
C502 C 0.75151 0.49742 0.83723 0.0
C503 C 0.83509 0.6342 0.90026 0.0
H504 H 0.98883 0.92039 0.92854 0.0
H505 H 0.97277 0.85658 0.91243 0.0
H506 H 0.93427 0.74249 0.878 0.0
H507 H 0.6967 0.43432 0.82733 0.0
H508 H 0.74113 0.49592 0.85634 0.0
H509 H 0.80682 0.60421 0.90628 0.0
C510 C 0.9129 0.8508 0.96971 0.0
C511 C 0.90421 0.81478 0.96083 0.0
C512 C 0.85285 0.67019 0.91538 0.0
C513 C 0.77661 0.50059 0.78735 0.0
C514 C 0.80242 0.53553 0.80422 0.0
C515 C 0.88924 0.67639 0.86945 0.0
C516 C 0.92553 0.81662 0.94009 0.0
C517 C 0.91381 0.77875 0.92963 0.0
C518 C 0.9039 0.74695 0.92091 0.0
C519 C 0.88864 0.70937 0.9074 0.0
H520 H 0.89701 0.84907 0.98631 0.0
H521 H 0.88085 0.78553 0.97012 0.0
H522 H 0.838 0.66757 0.93282 0.0
H523 H 0.7869 0.50194 0.76824 0.0
H524 H 0.83201 0.56373 0.79775 0.0
H525 H 0.90315 0.6793 0.85148 0.0
C526 C 0.78953 0.5342 0.82904 0.0
C527 C 0.81373 0.57106 0.84568 0.0
C528 C 0.83275 0.60099 0.86036 0.0
C529 C 0.85302 0.6373 0.87711 0.0
loop_
_geom_bond_atom_site_label_1
_geom_bond_atom_site_label_2
_geom_bond_distance
_geom_bond_site_symmetry_2
_ccdc_geom_bond_type
Tb0 C10 2.825 . S
Tb0 O11 2.347 1_546 S
Tb0 O14 2.379 1_655 S
Tb0 O19 2.418 1_655 S
Tb0 O20 2.384 1_545 S
Tb0 O23 2.479 . S
Tb0 O24 2.471 . S
Eu1 O12 2.418 1_455 S
Eu1 O13 2.384 1_565 S
Eu1 O16 2.479 . S
Eu1 O17 2.471 . S
Eu1 O18 2.347 1_564 S
Eu1 O21 2.366 1_455 S
Eu1 C31 2.825 . S
C2 O18 1.259 . S
C2 O19 1.265 . S
C3 O20 1.255 . S
C3 O21 1.265 1_556 S
C4 C6 1.380 . S
C4 C7 1.374 . S
C4 C10 1.507 . S
C5 C6 1.384 . S
C5 C9 1.387 . S
C5 H32 0.930 . S
C6 C4 1.380 . S
C6 C5 1.384 . S
C6 H33 0.931 . S
C7 C4 1.374 . S
C7 C8 1.390 . S
C7 H34 0.930 . S
C8 C7 1.390 . S
C8 C9 1.391 . S
C8 H35 0.930 . S
C9 C5 1.387 . S
C9 C8 1.391 . S
C10 Tb0 2.825 . S
C10 C4 1.507 . S
C10 O23 1.238 . S
C10 O24 1.247 . S
O11 Tb0 2.347 1_564 S
O11 C15 1.259 . S
O12 Eu1 2.418 1_655 S
O12 C15 1.265 . S
O13 Eu1 2.384 1_545 S
O13 C22 1.255 . S
O14 Tb0 2.379 1_455 S
O14 C22 1.245 1_556 S
C15 O11 1.259 . S
C15 O12 1.265 . S
O16 Eu1 2.479 . S
O16 C31 1.238 . S
O17 Eu1 2.471 . S
O17 C31 1.247 . S
O18 Eu1 2.347 1_546 S
O18 C2 1.259 . S
O19 Tb0 2.418 1_455 S
O19 C2 1.265 . S
O20 Tb0 2.384 1_565 S
O20 C3 1.255 . S
O21 Eu1 2.366 1_655 S
O21 C3 1.265 1_554 S
C22 O13 1.255 . S
C22 O14 1.245 1_554 S
O23 Tb0 2.479 . S
O23 C10 1.238 . S
O24 Tb0 2.471 . S
O24 C10 1.247 . S
C25 C28 1.380 . S
C25 C29 1.374 . S
C25 C31 1.507 . S
C26 C27 1.387 . S
C26 C30 1.391 . S
C27 C26 1.387 . S
C27 C28 1.384 . S
C27 H36 0.930 . S
C28 C25 1.380 . S
C28 C27 1.384 . S
C28 H37 0.931 . S
C29 C25 1.374 . S
C29 C30 1.390 . S
C29 H38 0.930 . S
C30 C26 1.391 . S
C30 C29 1.390 . S
C30 H39 0.930 . S
C31 Eu1 2.825 . S
C31 O16 1.238 . S
C31 O17 1.247 . S
C31 C25 1.507 . S
H32 C5 0.930 . S
H33 C6 0.931 . S
H34 C7 0.930 . S
H35 C8 0.930 . S
H36 C27 0.930 . S
H37 C28 0.931 . S
H38 C29 0.930 . S
H39 C30 0.930 . S
Tb40 C50 2.825 1_455 S
Tb40 O51 2.347 . S
Tb40 O54 2.366 1_445 S
Tb40 O59 2.418 1_445 S
Tb40 O60 2.384 . S
Tb40 O63 2.479 1_455 S
Tb40 O64 2.471 1_455 S
Eu41 O52 2.418 1_565 S
Eu41 O53 2.384 1_455 S
Eu41 O56 2.479 . S
Eu41 O57 2.471 . S
Eu41 O58 2.347 1_455 S
Eu41 O61 2.366 1_565 S
Eu41 C71 2.825 . S
C42 O58 1.259 . S
C42 O59 1.265 . S
C43 O60 1.255 . S
C43 O61 1.265 . S
C44 C46 1.380 . S
C44 C47 1.374 . S
C44 C50 1.507 . S
C45 C46 1.384 . S
C45 C49 1.387 . S
C45 H72 0.930 . S
C46 C44 1.380 . S
C46 C45 1.384 . S
C46 H73 0.931 . S
C47 C44 1.374 . S
C47 C48 1.390 . S
C47 H74 0.930 . S
C48 C47 1.390 . S
C48 C49 1.391 . S
C48 H75 0.930 . S
C49 C45 1.387 . S
C49 C48 1.391 . S
C50 Tb40 2.825 1_655 S
C50 C44 1.507 . S
C50 O63 1.238 . S
C50 O64 1.247 . S
O51 Tb40 2.347 . S
O51 C55 1.259 . S
O52 Eu41 2.418 1_545 S
O52 C55 1.265 . S
O53 Eu41 2.384 1_655 S
O53 C62 1.255 . S
O54 Tb40 2.366 1_665 S
O54 C62 1.265 . S
C55 O51 1.259 . S
C55 O52 1.265 . S
O56 Eu41 2.479 . S
O56 C71 1.238 . S
O57 Eu41 2.471 . S
O57 C71 1.247 . S
O58 Eu41 2.347 1_655 S
O58 C42 1.259 . S
O59 Tb40 2.418 1_665 S
O59 C42 1.265 . S
O60 Tb40 2.384 . S
O60 C43 1.255 . S
O61 Eu41 2.366 1_545 S
O61 C43 1.265 . S
C62 O53 1.255 . S
C62 O54 1.265 . S
O63 Tb40 2.479 1_655 S
O63 C50 1.238 . S
O64 Tb40 2.471 1_655 S
O64 C50 1.247 . S
C65 C68 1.380 . S
C65 C69 1.374 . S
C65 C71 1.507 . S
C66 C67 1.387 . S
C66 C70 1.391 . S
C67 C66 1.387 . S
C67 C68 1.384 . S
C67 H76 0.930 . S
C68 C65 1.380 . S
C68 C67 1.384 . S
C68 H77 0.931 . S
C69 C65 1.374 . S
C69 C70 1.390 . S
C69 H78 0.930 . S
C70 C66 1.391 . S
C70 C69 1.390 . S
C70 H79 0.930 . S
C71 Eu41 2.825 . S
C71 O56 1.238 . S
C71 O57 1.247 . S
C71 C65 1.507 . S
H72 C45 0.930 . S
H73 C46 0.931 . S
H74 C47 0.930 . S
H75 C48 0.930 . S
H76 C67 0.930 . S
H77 C68 0.931 . S
H78 C69 0.930 . S
H79 C70 0.930 . S
Zn80 O86 1.920 . S
Zn80 O92 1.898 . S
Zn80 O95 1.905 . S
Zn81 O89 1.905 . S
Zn81 O90 1.898 . S
Zn81 O98 1.920 . S
Zn82 O85 2.080 . S
Zn82 O88 2.114 . S
Zn82 O91 2.120 . S
Zn82 O93 2.120 . S
Zn82 O94 2.114 . S
Zn82 O97 2.080 . S
C83 O88 1.166 . S
C83 O89 1.182 . S
C84 O90 1.167 . S
C84 O91 1.299 . S
O85 Zn82 2.080 . S
O85 C99 1.305 . S
O86 Zn80 1.920 . S
O86 C99 1.234 . S
C87 O92 1.167 . S
C87 O93 1.299 . S
O88 Zn82 2.114 . S
O88 C83 1.166 . S
O89 Zn81 1.905 . S
O89 C83 1.182 . S
O90 Zn81 1.898 . S
O90 C84 1.167 . S
O91 Zn82 2.120 . S
O91 C84 1.299 . S
O92 Zn80 1.898 . S
O92 C87 1.167 . S
O93 Zn82 2.120 . S
O93 C87 1.299 . S
O94 Zn82 2.114 . S
O94 C96 1.166 . S
O95 Zn80 1.905 . S
O95 C96 1.182 . S
C96 O94 1.166 . S
C96 O95 1.182 . S
O97 Zn82 2.080 . S
O97 C100 1.305 . S
O98 Zn81 1.920 . S
O98 C100 1.234 . S
C99 O85 1.305 . S
C99 O86 1.234 . S
C100 O97 1.305 . S
C100 O98 1.234 . S
Zn101 O107 1.920 . S
Zn101 O113 1.898 . S
Zn101 O116 1.905 . S
Zn102 O110 1.905 . S
Zn102 O111 1.898 . S
Zn102 O119 1.920 . S
Zn103 O106 2.080 . S
Zn103 O109 2.114 . S
Zn103 O112 2.120 . S
Zn103 O114 2.120 . S
Zn103 O115 2.114 . S
Zn103 O118 2.080 . S
C104 O109 1.166 . S
C104 O110 1.182 . S
C105 O111 1.167 . S
C105 O112 1.299 . S
O106 Zn103 2.080 . S
O106 C120 1.305 . S
O107 Zn101 1.920 . S
O107 C120 1.234 . S
C108 O113 1.167 . S
C108 O114 1.299 . S
O109 Zn103 2.114 . S
O109 C104 1.166 . S
O110 Zn102 1.905 . S
O110 C104 1.182 . S
O111 Zn102 1.898 . S
O111 C105 1.167 . S
O112 Zn103 2.120 . S
O112 C105 1.299 . S
O113 Zn101 1.898 . S
O113 C108 1.167 . S
O114 Zn103 2.120 . S
O114 C108 1.299 . S
O115 Zn103 2.114 . S
O115 C117 1.166 . S
O116 Zn101 1.905 . S
O116 C117 1.182 . S
C117 O115 1.166 . S
C117 O116 1.182 . S
O118 Zn103 2.080 . S
O118 C121 1.305 . S
O119 Zn102 1.920 . S
O119 C121 1.234 . S
C120 O106 1.305 . S
C120 O107 1.234 . S
C121 O118 1.305 . S
C121 O119 1.234 . S
C122 C123 1.420 . S
C122 C124 1.385 . S
C122 H130 0.928 . S
C123 C122 1.420 . S
C123 C136 1.420 . S
C124 C122 1.385 . S
C124 H131 0.929 . S
C124 C142 1.407 . S
C125 H132 0.928 . S
C125 C141 1.374 . S
C125 C145 1.388 . S
C126 C127 1.420 . S
C126 C128 1.385 . S
C126 H133 0.928 . S
C127 C126 1.420 . S
C127 C139 1.420 . S
C128 C126 1.385 . S
C128 H134 0.929 . S
C128 C152 1.407 . S
C129 H135 0.928 . S
C129 C138 1.374 . S
C129 C155 1.388 . S
H130 C122 0.928 . S
H131 C124 0.929 . S
H132 C125 0.928 . S
H133 C126 0.928 . S
H134 C128 0.929 . S
H135 C129 0.928 . S
C136 C123 1.420 . S
C136 C137 1.385 . S
C136 H146 0.928 . S
C137 C136 1.385 . S
C137 C142 1.407 . S
C137 H147 0.929 . S
C138 C129 1.374 . S
C138 C145 1.388 . S
C138 H148 0.928 . S
C139 C127 1.420 . S
C139 C140 1.385 . S
C139 H149 0.928 . S
C140 C139 1.385 . S
C140 H150 0.929 . S
C140 C152 1.407 . S
C141 C125 1.374 . S
C141 H151 0.928 . S
C141 C155 1.388 . S
C142 C124 1.407 . S
C142 C137 1.407 . S
C142 C143 1.428 . S
C143 C142 1.428 . S
C143 C144 1.230 . S
C144 C143 1.230 . S
C144 C145 1.405 . S
C145 C125 1.388 . S
C145 C138 1.388 . S
C145 C144 1.405 . S
H146 C136 0.928 . S
H147 C137 0.929 . S
H148 C138 0.928 . S
H149 C139 0.928 . S
H150 C140 0.929 . S
H151 C141 0.928 . S
C152 C128 1.407 . S
C152 C140 1.407 . S
C152 C153 1.428 . S
C153 C152 1.428 . S
C153 C154 1.230 . S
C154 C153 1.230 . S
C154 C155 1.405 . S
C155 C129 1.388 . S
C155 C141 1.388 . S
C155 C154 1.405 . S
C156 C157 1.420 . S
C156 C158 1.385 . S
C156 H164 0.928 . S
C157 C156 1.420 . S
C157 C170 1.420 . S
C158 C156 1.385 . S
C158 H165 0.929 . S
C158 C176 1.407 . S
C159 H166 0.928 . S
C159 C175 1.374 . S
C159 C179 1.388 . S
C160 C161 1.420 . S
C160 C162 1.385 . S
C160 H167 0.928 . S
C161 C160 1.420 . S
C161 C173 1.420 . S
C162 C160 1.385 . S
C162 H168 0.929 . S
C162 C186 1.407 . S
C163 H169 0.928 . S
C163 C172 1.374 . S
C163 C189 1.388 . S
H164 C156 0.928 . S
H165 C158 0.929 . S
H166 C159 0.928 . S
H167 C160 0.928 . S
H168 C162 0.929 . S
H169 C163 0.928 . S
C170 C157 1.420 . S
C170 C171 1.385 . S
C170 H180 0.928 . S
C171 C170 1.385 . S
C171 C176 1.407 . S
C171 H181 0.929 . S
C172 C163 1.374 . S
C172 C179 1.388 . S
C172 H182 0.928 . S
C173 C161 1.420 . S
C173 C174 1.385 . S
C173 H183 0.928 . S
C174 C173 1.385 . S
C174 H184 0.929 . S
C174 C186 1.407 . S
C175 C159 1.374 . S
C175 H185 0.928 . S
C175 C189 1.388 . S
C176 C158 1.407 . S
C176 C171 1.407 . S
C176 C177 1.428 . S
C177 C176 1.428 . S
C177 C178 1.230 . S
C178 C177 1.230 . S
C178 C179 1.405 . S
C179 C159 1.388 . S
C179 C172 1.388 . S
C179 C178 1.405 . S
H180 C170 0.928 . S
H181 C171 0.929 . S
H182 C172 0.928 . S
H183 C173 0.928 . S
H184 C174 0.929 . S
H185 C175 0.928 . S
C186 C162 1.407 . S
C186 C174 1.407 . S
C186 C187 1.428 . S
C187 C186 1.428 . S
C187 C188 1.230 . S
C188 C187 1.230 . S
C188 C189 1.405 . S
C189 C163 1.388 . S
C189 C175 1.388 . S
C189 C188 1.405 . S
C190 C191 1.420 . S
C190 C192 1.385 . S
C190 H198 0.928 . S
C191 C190 1.420 . S
C191 C204 1.420 . S
C192 C190 1.385 . S
C192 H199 0.929 . S
C192 C210 1.407 . S
C193 H200 0.928 . S
C193 C209 1.374 . S
C193 C213 1.388 . S
C194 C195 1.420 . S
C194 C196 1.385 . S
C194 H201 0.928 . S
C195 C194 1.420 . S
C195 C207 1.420 . S
C196 C194 1.385 . S
C196 H202 0.929 . S
C196 C220 1.407 . S
C197 H203 0.928 . S
C197 C206 1.374 . S
C197 C223 1.388 . S
H198 C190 0.928 . S
H199 C192 0.929 . S
H200 C193 0.928 . S
H201 C194 0.928 . S
H202 C196 0.929 . S
H203 C197 0.928 . S
C204 C191 1.420 . S
C204 C205 1.385 . S
C204 H214 0.928 . S
C205 C204 1.385 . S
C205 C210 1.407 . S
C205 H215 0.929 . S
C206 C197 1.374 . S
C206 C213 1.388 . S
C206 H216 0.928 . S
C207 C195 1.420 . S
C207 C208 1.385 . S
C207 H217 0.928 . S
C208 C207 1.385 . S
C208 H218 0.929 . S
C208 C220 1.407 . S
C209 C193 1.374 . S
C209 H219 0.928 . S
C209 C223 1.388 . S
C210 C192 1.407 . S
C210 C205 1.407 . S
C210 C211 1.428 . S
C211 C210 1.428 . S
C211 C212 1.230 . S
C212 C211 1.230 . S
C212 C213 1.405 . S
C213 C193 1.388 . S
C213 C206 1.388 . S
C213 C212 1.405 . S
H214 C204 0.928 . S
H215 C205 0.929 . S
H216 C206 0.928 . S
H217 C207 0.928 . S
H218 C208 0.929 . S
H219 C209 0.928 . S
C220 C196 1.407 . S
C220 C208 1.407 . S
C220 C221 1.428 . S
C221 C220 1.428 . S
C221 C222 1.230 . S
C222 C221 1.230 . S
C222 C223 1.405 . S
C223 C197 1.388 . S
C223 C209 1.388 . S
C223 C222 1.405 . S
C224 C225 1.420 . S
C224 C226 1.385 . S
C224 H232 0.928 . S
C225 C224 1.420 . S
C225 C238 1.420 . S
C226 C224 1.385 . S
C226 H233 0.929 . S
C226 C244 1.407 . S
C227 H234 0.928 . S
C227 C243 1.374 . S
C227 C247 1.388 . S
C228 C229 1.420 . S
C228 C230 1.385 . S
C228 H235 0.928 . S
C229 C228 1.420 . S
C229 C241 1.420 . S
C230 C228 1.385 . S
C230 H236 0.929 . S
C230 C254 1.407 . S
C231 H237 0.928 . S
C231 C240 1.374 . S
C231 C257 1.388 . S
H232 C224 0.928 . S
H233 C226 0.929 . S
H234 C227 0.928 . S
H235 C228 0.928 . S
H236 C230 0.929 . S
H237 C231 0.928 . S
C238 C225 1.420 . S
C238 C239 1.385 . S
C238 H248 0.928 . S
C239 C238 1.385 . S
C239 C244 1.407 . S
C239 H249 0.929 . S
C240 C231 1.374 . S
C240 C247 1.388 . S
C240 H250 0.928 . S
C241 C229 1.420 . S
C241 C242 1.385 . S
C241 H251 0.928 . S
C242 C241 1.385 . S
C242 H252 0.929 . S
C242 C254 1.407 . S
C243 C227 1.374 . S
C243 H253 0.928 . S
C243 C257 1.388 . S
C244 C226 1.407 . S
C244 C239 1.407 . S
C244 C245 1.428 . S
C245 C244 1.428 . S
C245 C246 1.230 . S
C246 C245 1.230 . S
C246 C247 1.405 . S
C247 C227 1.388 . S
C247 C240 1.388 . S
C247 C246 1.405 . S
H248 C238 0.928 . S
H249 C239 0.929 . S
H250 C240 0.928 . S
H251 C241 0.928 . S
H252 C242 0.929 . S
H253 C243 0.928 . S
C254 C230 1.407 . S
C254 C242 1.407 . S
C254 C255 1.428 . S
C255 C254 1.428 . S
C255 C256 1.230 . S
C256 C255 1.230 . S
C256 C257 1.405 . S
C257 C231 1.388 . S
C257 C243 1.388 . S
C257 C256 1.405 . S
C258 C259 1.420 . S
C258 C260 1.385 . S
C258 H266 0.928 . S
C259 C258 1.420 . S
C259 C272 1.420 . S
C260 C258 1.385 . S
C260 H267 0.929 . S
C260 C278 1.407 . S
C261 H268 0.928 . S
C261 C277 1.374 . S
C261 C281 1.388 . S
C262 C263 1.420 . S
C262 C264 1.385 . S
C262 H269 0.928 . S
C263 C262 1.420 . S
C263 C275 1.420 . S
C264 C262 1.385 . S
C264 H270 0.929 . S
C264 C288 1.407 . S
C265 H271 0.928 . S
C265 C274 1.374 . S
C265 C291 1.388 . S
H266 C258 0.928 . S
H267 C260 0.929 . S
H268 C261 0.928 . S
H269 C262 0.928 . S
H270 C264 0.929 . S
H271 C265 0.928 . S
C272 C259 1.420 . S
C272 C273 1.385 . S
C272 H282 0.928 . S
C273 C272 1.385 . S
C273 C278 1.407 . S
C273 H283 0.929 . S
C274 C265 1.374 . S
C274 C281 1.388 . S
C274 H284 0.928 . S
C275 C263 1.420 . S
C275 C276 1.385 . S
C275 H285 0.928 . S
C276 C275 1.385 . S
C276 H286 0.929 . S
C276 C288 1.407 . S
C277 C261 1.374 . S
C277 H287 0.928 . S
C277 C291 1.388 . S
C278 C260 1.407 . S
C278 C273 1.407 . S
C278 C279 1.428 . S
C279 C278 1.428 . S
C279 C280 1.230 . S
C280 C279 1.230 . S
C280 C281 1.405 . S
C281 C261 1.388 . S
C281 C274 1.388 . S
C281 C280 1.405 . S
H282 C272 0.928 . S
H283 C273 0.929 . S
H284 C274 0.928 . S
H285 C275 0.928 . S
H286 C276 0.929 . S
H287 C277 0.928 . S
C288 C264 1.407 . S
C288 C276 1.407 . S
C288 C289 1.428 . S
C289 C288 1.428 . S
C289 C290 1.230 . S
C290 C289 1.230 . S
C290 C291 1.405 . S
C291 C265 1.388 . S
C291 C277 1.388 . S
C291 C290 1.405 . S
C292 C293 1.420 . S
C292 C294 1.385 . S
C292 H300 0.928 . S
C293 C292 1.420 . S
C293 C306 1.420 . S
C294 C292 1.385 . S
C294 H301 0.929 . S
C294 C312 1.407 . S
C295 H302 0.928 . S
C295 C311 1.374 . S
C295 C315 1.388 . S
C296 C297 1.420 . S
C296 C298 1.385 . S
C296 H303 0.928 . S
C297 C296 1.420 . S
C297 C309 1.420 . S
C298 C296 1.385 . S
C298 H304 0.929 . S
C298 C322 1.407 . S
C299 H305 0.928 . S
C299 C308 1.374 . S
C299 C325 1.388 . S
H300 C292 0.928 . S
H301 C294 0.929 . S
H302 C295 0.928 . S
H303 C296 0.928 . S
H304 C298 0.929 . S
H305 C299 0.928 . S
C306 C293 1.420 . S
C306 C307 1.385 . S
C306 H316 0.957 . S
C307 C306 1.385 . S
C307 C312 1.407 . S
C307 H317 0.929 . S
C308 C299 1.374 . S
C308 C315 1.388 . S
C308 H318 0.928 . S
C309 C297 1.420 . S
C309 C310 1.385 . S
C309 H319 0.928 . S
C310 C309 1.385 . S
C310 H320 0.929 . S
C310 C322 1.407 . S
C311 C295 1.374 . S
C311 H321 0.928 . S
C311 C325 1.388 . S
C312 C294 1.407 . S
C312 C307 1.407 . S
C312 C313 1.428 . S
C313 C312 1.428 . S
C313 C314 1.230 . S
C314 C313 1.230 . S
C314 C315 1.405 . S
C315 C295 1.388 . S
C315 C308 1.388 . S
C315 C314 1.405 . S
H316 C306 0.957 . S
H317 C307 0.929 . S
H318 C308 0.928 . S
H319 C309 0.928 . S
H320 C310 0.929 . S
H321 C311 0.928 . S
C322 C298 1.407 . S
C322 C310 1.407 . S
C322 C323 1.428 . S
C323 C322 1.428 . S
C323 C324 1.230 . S
C324 C323 1.230 . S
C324 C325 1.405 . S
C325 C299 1.388 . S
C325 C311 1.388 . S
C325 C324 1.405 . S
C326 C327 1.420 . S
C326 C328 1.385 . S
C326 H334 0.928 . S
C327 C326 1.420 . S
C327 C340 1.420 . S
C328 C326 1.385 . S
C328 H335 0.929 . S
C328 C346 1.407 . S
C329 H336 0.928 . S
C329 C345 1.374 . S
C329 C349 1.388 . S
C330 C331 1.420 . S
C330 C332 1.385 . S
C330 H337 0.928 . S
C331 C330 1.420 . S
C331 C343 1.420 . S
C332 C330 1.385 . S
C332 H338 0.929 . S
C332 C356 1.407 . S
C333 H339 0.928 . S
C333 C342 1.374 . S
C333 C359 1.388 . S
H334 C326 0.928 . S
H335 C328 0.929 . S
H336 C329 0.928 . S
H337 C330 0.928 . S
H338 C332 0.929 . S
H339 C333 0.928 . S
C340 C327 1.420 . S
C340 C341 1.385 . S
C340 H350 0.928 . S
C341 C340 1.385 . S
C341 C346 1.407 . S
C341 H351 0.929 . S
C342 C333 1.374 . S
C342 C349 1.388 . S
C342 H352 0.928 . S
C343 C331 1.420 . S
C343 C344 1.385 . S
C343 H353 0.928 . S
C344 C343 1.385 . S
C344 H354 0.929 . S
C344 C356 1.407 . S
C345 C329 1.374 . S
C345 H355 0.928 . S
C345 C359 1.388 . S
C346 C328 1.407 . S
C346 C341 1.407 . S
C346 C347 1.428 . S
C347 C346 1.428 . S
C347 C348 1.230 . S
C348 C347 1.230 . S
C348 C349 1.405 . S
C349 C329 1.388 . S
C349 C342 1.388 . S
C349 C348 1.405 . S
H350 C340 0.928 . S
H351 C341 0.929 . S
H352 C342 0.928 . S
H353 C343 0.928 . S
H354 C344 0.929 . S
H355 C345 0.928 . S
C356 C332 1.407 . S
C356 C344 1.407 . S
C356 C357 1.428 . S
C357 C356 1.428 . S
C357 C358 1.230 . S
C358 C357 1.230 . S
C358 C359 1.405 . S
C359 C333 1.388 . S
C359 C345 1.388 . S
C359 C358 1.405 . S
C360 C361 1.420 . S
C360 C362 1.385 . S
C360 H368 0.928 . S
C361 C360 1.420 . S
C361 C374 1.420 . S
C362 C360 1.385 . S
C362 H369 0.929 . S
C362 C380 1.407 . S
C363 H370 0.928 . S
C363 C379 1.374 . S
C363 C383 1.388 . S
C364 C365 1.420 . S
C364 C366 1.385 . S
C364 H371 0.928 . S
C365 C364 1.420 . S
C365 C377 1.420 . S
C366 C364 1.385 . S
C366 H372 0.929 . S
C366 C390 1.407 . S
C367 H373 0.928 . S
C367 C376 1.374 . S
C367 C393 1.388 . S
H368 C360 0.928 . S
H369 C362 0.929 . S
H370 C363 0.928 . S
H371 C364 0.928 . S
H372 C366 0.929 . S
H373 C367 0.928 . S
C374 C361 1.420 . S
C374 C375 1.385 . S
C374 H384 0.928 . S
C375 C374 1.385 . S
C375 C380 1.407 . S
C375 H385 0.929 . S
C376 C367 1.374 . S
C376 C383 1.388 . S
C376 H386 0.928 . S
C377 C365 1.420 . S
C377 C378 1.385 . S
C377 H387 0.928 . S
C378 C377 1.385 . S
C378 H388 0.929 . S
C378 C390 1.407 . S
C379 C363 1.374 . S
C379 H389 0.928 . S
C379 C393 1.388 . S
C380 C362 1.407 . S
C380 C375 1.407 . S
C380 C381 1.428 . S
C381 C380 1.428 . S
C381 C382 1.230 . S
C382 C381 1.230 . S
C382 C383 1.405 . S
C383 C363 1.388 . S
C383 C376 1.388 . S
C383 C382 1.405 . S
H384 C374 0.928 . S
H385 C375 0.929 . S
H386 C376 0.928 . S
H387 C377 0.928 . S
H388 C378 0.929 . S
H389 C379 0.928 . S
C390 C366 1.407 . S
C390 C378 1.407 . S
C390 C391 1.428 . S
C391 C390 1.428 . S
C391 C392 1.230 . S
C392 C391 1.230 . S
C392 C393 1.405 . S
C393 C367 1.388 . S
C393 C379 1.388 . S
C393 C392 1.405 . S
C394 C395 1.420 . S
C394 C396 1.385 . S
C394 H402 0.928 . S
C395 C394 1.420 . S
C395 C408 1.420 . S
C396 C394 1.385 . S
C396 H403 0.929 . S
C396 C414 1.407 . S
C397 H404 0.928 . S
C397 C413 1.374 . S
C397 C417 1.388 . S
C398 C399 1.420 . S
C398 C400 1.385 . S
C398 H405 0.928 . S
C399 C398 1.420 . S
C399 C411 1.420 . S
C400 C398 1.385 . S
C400 H406 0.929 . S
C400 C424 1.407 . S
C401 H407 0.928 . S
C401 C410 1.374 . S
C401 C427 1.388 . S
H402 C394 0.928 . S
H403 C396 0.929 . S
H404 C397 0.928 . S
H405 C398 0.928 . S
H406 C400 0.929 . S
H407 C401 0.928 . S
C408 C395 1.420 . S
C408 C409 1.385 . S
C408 H418 0.928 . S
C409 C408 1.385 . S
C409 C414 1.407 . S
C409 H419 0.929 . S
C410 C401 1.374 . S
C410 C417 1.388 . S
C410 H420 0.928 . S
C411 C399 1.420 . S
C411 C412 1.385 . S
C411 H421 0.928 . S
C412 C411 1.385 . S
C412 H422 0.929 . S
C412 C424 1.407 . S
C413 C397 1.374 . S
C413 H423 0.928 . S
C413 C427 1.388 . S
C414 C396 1.407 . S
C414 C409 1.407 . S
C414 C415 1.428 . S
C415 C414 1.428 . S
C415 C416 1.230 . S
C416 C415 1.230 . S
C416 C417 1.405 . S
C417 C397 1.388 . S
C417 C410 1.388 . S
C417 C416 1.405 . S
H418 C408 0.928 . S
H419 C409 0.929 . S
H420 C410 0.928 . S
H421 C411 0.928 . S
H422 C412 0.929 . S
H423 C413 0.928 . S
C424 C400 1.407 . S
C424 C412 1.407 . S
C424 C425 1.428 . S
C425 C424 1.428 . S
C425 C426 1.230 . S
C426 C425 1.230 . S
C426 C427 1.405 . S
C427 C401 1.388 . S
C427 C413 1.388 . S
C427 C426 1.405 . S
C428 C429 1.420 . S
C428 C430 1.385 . S
C428 H436 0.928 . S
C429 C428 1.420 . S
C429 C442 1.420 . S
C430 C428 1.385 . S
C430 H437 0.929 . S
C430 C448 1.407 . S
C431 H438 0.928 . S
C431 C447 1.374 . S
C431 C451 1.388 . S
C432 C433 1.420 . S
C432 C434 1.385 . S
C432 H439 0.928 . S
C433 C432 1.420 . S
C433 C445 1.420 . S
C434 C432 1.385 . S
C434 H440 0.929 . S
C434 C458 1.407 . S
C435 H441 0.928 . S
C435 C444 1.374 . S
C435 C461 1.388 . S
H436 C428 0.928 . S
H437 C430 0.929 . S
H438 C431 0.928 . S
H439 C432 0.928 . S
H440 C434 0.929 . S
H441 C435 0.928 . S
C442 C429 1.420 . S
C442 C443 1.385 . S
C442 H452 0.928 . S
C443 C442 1.385 . S
C443 C448 1.407 . S
C443 H453 0.929 . S
C444 C435 1.374 . S
C444 C451 1.388 . S
C444 H454 0.928 . S
C445 C433 1.420 . S
C445 C446 1.385 . S
C445 H455 0.928 . S
C446 C445 1.385 . S
C446 H456 0.929 . S
C446 C458 1.407 . S
C447 C431 1.374 . S
C447 H457 0.928 . S
C447 C461 1.388 . S
C448 C430 1.407 . S
C448 C443 1.407 . S
C448 C449 1.428 . S
C449 C448 1.428 . S
C449 C450 1.230 . S
C450 C449 1.230 . S
C450 C451 1.405 . S
C451 C431 1.388 . S
C451 C444 1.388 . S
C451 C450 1.405 . S
H452 C442 0.928 . S
H453 C443 0.929 . S
H454 C444 0.928 . S
H455 C445 0.928 . S
H456 C446 0.929 . S
H457 C447 0.928 . S
C458 C434 1.407 . S
C458 C446 1.407 . S
C458 C459 1.428 . S
C459 C458 1.428 . S
C459 C460 1.230 . S
C460 C459 1.230 . S
C460 C461 1.405 . S
C461 C435 1.388 . S
C461 C447 1.388 . S
C461 C460 1.405 . S
C462 C463 1.420 . S
C462 C464 1.385 . S
C462 H470 0.928 1_565 S
C463 C462 1.420 . S
C463 C476 1.420 . S
C464 C462 1.385 . S
C464 H471 0.929 . S
C464 C482 1.407 . S
C465 H472 0.928 . S
C465 C481 1.374 . S
C465 C485 1.388 . S
C466 C467 1.420 . S
C466 C468 1.385 . S
C466 H473 0.928 . S
C467 C466 1.420 . S
C467 C479 1.420 . S
C468 C466 1.385 . S
C468 H474 0.929 . S
C468 C492 1.407 . S
C469 H475 0.928 . S
C469 C478 1.374 . S
C469 C495 1.388 . S
H470 C462 0.928 1_545 S
H471 C464 0.929 . S
H472 C465 0.928 . S
H473 C466 0.928 . S
H474 C468 0.929 . S
H475 C469 0.928 . S
C476 C463 1.420 . S
C476 C477 1.385 . S
C476 H486 0.928 . S
C477 C476 1.385 . S
C477 C482 1.407 . S
C477 H487 0.929 . S
C478 C469 1.374 . S
C478 C485 1.388 . S
C478 H488 0.928 . S
C479 C467 1.420 . S
C479 C480 1.385 . S
C479 H489 0.928 . S
C480 C479 1.385 . S
C480 H490 0.929 . S
C480 C492 1.407 . S
C481 C465 1.374 . S
C481 H491 0.928 . S
C481 C495 1.388 . S
C482 C464 1.407 . S
C482 C477 1.407 . S
C482 C483 1.428 . S
C483 C482 1.428 . S
C483 C484 1.230 . S
C484 C483 1.230 . S
C484 C485 1.405 . S
C485 C465 1.388 . S
C485 C478 1.388 . S
C485 C484 1.405 . S
H486 C476 0.928 . S
H487 C477 0.929 . S
H488 C478 0.928 . S
H489 C479 0.928 . S
H490 C480 0.929 . S
H491 C481 0.928 . S
C492 C468 1.407 . S
C492 C480 1.407 . S
C492 C493 1.428 . S
C493 C492 1.428 . S
C493 C494 1.230 . S
C494 C493 1.230 . S
C494 C495 1.405 . S
C495 C469 1.388 . S
C495 C481 1.388 . S
C495 C494 1.405 . S
C496 C497 1.420 . S
C496 C498 1.385 . S
C496 H504 0.928 1_655 S
C497 C496 1.420 . S
C497 C510 1.420 . S
C498 C496 1.385 . S
C498 H505 0.929 . S
C498 C516 1.407 . S
C499 H506 0.928 . S
C499 C515 1.374 . S
C499 C519 1.388 . S
C500 C501 1.420 . S
C500 C502 1.385 . S
C500 H507 0.928 . S
C501 C500 1.420 . S
C501 C513 1.420 . S
C502 C500 1.385 . S
C502 H508 0.929 . S
C502 C526 1.407 . S
C503 H509 0.928 . S
C503 C512 1.374 . S
C503 C529 1.388 . S
H504 C496 0.928 1_455 S
H505 C498 0.929 . S
H506 C499 0.928 . S
H507 C500 0.928 . S
H508 C502 0.929 . S
H509 C503 0.928 . S
C510 C497 1.420 . S
C510 C511 1.385 . S
C510 H520 0.928 . S
C511 C510 1.385 . S
C511 C516 1.407 . S
C511 H521 0.929 . S
C512 C503 1.374 . S
C512 C519 1.388 . S
C512 H522 0.928 . S
C513 C501 1.420 . S
C513 C514 1.385 . S
C513 H523 0.928 . S
C514 C513 1.385 . S
C514 H524 0.929 . S
C514 C526 1.407 . S
C515 C499 1.374 . S
C515 H525 0.928 . S
C515 C529 1.388 . S
C516 C498 1.407 . S
C516 C511 1.407 . S
C516 C517 1.428 . S
C517 C516 1.428 . S
C517 C518 1.230 . S
C518 C517 1.230 . S
C518 C519 1.405 . S
C519 C499 1.388 . S
C519 C512 1.388 . S
C519 C518 1.405 . S
H520 C510 0.928 . S
H521 C511 0.929 . S
H522 C512 0.928 . S
H523 C513 0.928 . S
H524 C514 0.929 . S
H525 C515 0.928 . S
C526 C502 1.407 . S
C526 C514 1.407 . S
C526 C527 1.428 . S
C527 C526 1.428 . S
C527 C528 1.230 . S
C528 C527 1.230 . S
C528 C529 1.405 . S
C529 C503 1.388 . S
C529 C515 1.388 . S
C529 C528 1.405 . S
C123 C26 1.288 . S
C127 C99 1.229 . S
C157 C43 1.101 . S
C161 C105 0.985 . S
C191 C22 1.195 . S
C195 C96 1.109 . S
C225 C49 1.311 . S
C229 C121 1.264 . S
C259 C15 1.921 . S
C263 C87 1.764 . S
C297 C104 1.871 . S
C293 C42 2.013 . S
C327 C66 1.302 . S
C331 C100 1.207 . S
C365 C117 1.881 . S
C361 C2 2.011 . S
C399 C84 1.758 . S
C395 C55 1.921 . S
C433 C120 1.231 . S
C429 C9 1.331 . S
C467 C83 1.140 . S
C463 C62 1.192 . S
C501 C108 1.005 . S
C497 C3 1.101 . S
