# Generated by pormake.
# Topology nia, (6,6)-cn, num edge types: 1
# Building blocks:
#     Node 0, Type 0, BuildingBlock: KUMBUR_clean_sbu_1, # of connection points: 6
#     Node 1, Type 0, BuildingBlock: KUMBUR_clean_sbu_1, # of connection points: 6
#     Node 2, Type 1, BuildingBlock: MIDCAF_clean_sbu_0, # of connection points: 6
#     Node 3, Type 1, BuildingBlock: MIDCAF_clean_sbu_0, # of connection points: 6
#     Edge 4, Type (0, 1), BuildingBlock: ZUJKAS_clean_linker_0, # of connection points: 2
#     Edge 5, Type (0, 1), BuildingBlock: ZUJKAS_clean_linker_0, # of connection points: 2
#     Edge 6, Type (0, 1), BuildingBlock: ZUJKAS_clean_linker_0, # of connection points: 2
#     Edge 7, Type (0, 1), BuildingBlock: ZUJKAS_clean_linker_0, # of connection points: 2
#     Edge 8, Type (0, 1), BuildingBlock: ZUJKAS_clean_linker_0, # of connection points: 2
#     Edge 9, Type (0, 1), BuildingBlock: ZUJKAS_clean_linker_0, # of connection points: 2
#     Edge 10, Type (0, 1), BuildingBlock: ZUJKAS_clean_linker_0, # of connection points: 2
#     Edge 11, Type (0, 1), BuildingBlock: ZUJKAS_clean_linker_0, # of connection points: 2
#     Edge 12, Type (0, 1), BuildingBlock: ZUJKAS_clean_linker_0, # of connection points: 2
#     Edge 13, Type (0, 1), BuildingBlock: ZUJKAS_clean_linker_0, # of connection points: 2
#     Edge 14, Type (0, 1), BuildingBlock: ZUJKAS_clean_linker_0, # of connection points: 2
#     Edge 15, Type (0, 1), BuildingBlock: ZUJKAS_clean_linker_0, # of connection points: 2
# Relax obj value: 0.166
# Max RMSD: 0.273
# Mean RMSD: 0.198
data_MOF--net-nia--node1-KUMBUR_clean_sbu_1--node2-MIDCAF_clean_sbu_0--edge1-ZUJKAS_clean_linker_0
_symmetry_space_group_name_H-M    P1
_symmetry_Int_Tables_number       1
_symmetry_cell_setting            triclinic
loop_
_symmetry_equiv_pos_as_xyz
'x, y, z'
_cell_length_a     35.210804
_cell_length_b     35.207374
_cell_length_c     40.409681
_cell_angle_alpha  90.045141
_cell_angle_beta   89.907686
_cell_angle_gamma 133.9026
loop_
_atom_site_label
_atom_site_type_symbol
_atom_site_fract_x
_atom_site_fract_y
_atom_site_fract_z
_atom_type_partial_charge
Tb0 Tb 0.02772 0.98914 0.04214 0.0
C1 C 0.93603 0.95374 0.9063 0.0
N2 N 0.98198 0.00053 0.91772 0.0
C3 C 0.02573 0.0134 0.8673 0.0
C4 C 0.93359 0.9342 0.87511 0.0
C5 C 0.02639 0.03091 0.89856 0.0
C6 C 0.9792 0.96473 0.85557 0.0
C7 C 0.84416 0.87498 0.91617 0.0
C8 C 0.89216 0.92431 0.92689 0.0
C9 C 0.84163 0.85498 0.88527 0.0
C10 C 0.88621 0.88451 0.86479 0.0
Tb11 Tb 0.97879 0.02515 0.96908 0.0
N12 N 0.89637 0.94436 0.95708 0.0
C13 C 0.7998 0.84773 0.93649 0.0
C14 C 0.85174 0.92025 0.97519 0.0
C15 C 0.80338 0.87104 0.96577 0.0
H16 H 0.06214 0.06887 0.9073 0.0
H17 H 0.76859 0.85168 0.98074 0.0
H18 H 0.93083 0.90971 0.09621 0.0
H19 H 0.22611 0.1817 0.05543 0.0
H20 H 0.85209 0.93914 0.99629 0.0
H21 H 0.76218 0.80977 0.92915 0.0
H22 H 0.15315 0.10071 0.02589 0.0
H23 H 0.0611 0.03744 0.85229 0.0
H24 H 0.8052 0.81692 0.87682 0.0
H25 H 0.88363 0.86857 0.84103 0.0
H26 H 0.91254 0.91389 0.15449 0.0
H27 H 0.97895 0.95104 0.83147 0.0
H28 H 0.21586 0.19276 0.1142 0.0
N29 N 0.00757 0.9869 0.09624 0.0
C30 C 0.04651 0.02997 0.1146 0.0
C31 C 0.95026 0.947 0.14351 0.0
C32 C 0.03842 0.03367 0.14814 0.0
C33 C 0.96029 0.9451 0.11035 0.0
C34 C 0.9894 0.99161 0.16246 0.0
N35 N 0.09968 0.06673 0.06652 0.0
C36 C 0.14692 0.10517 0.05104 0.0
C37 C 0.13554 0.11662 0.11741 0.0
C38 C 0.09437 0.07099 0.09937 0.0
C39 C 0.18317 0.15709 0.10121 0.0
C40 C 0.189 0.15111 0.06797 0.0
H41 H 0.98155 0.99296 0.18816 0.0
H42 H 0.07385 0.0828 0.19201 0.0
H43 H 0.159 0.15518 0.16519 0.0
O44 O 0.07935 0.97891 0.03526 0.0
O45 O 0.02755 0.05021 0.05232 0.0
O46 O 0.03807 0.09005 1.0028 0.0
O47 O 0.01899 0.93501 0.07254 0.0
O48 O 0.07454 0.0243 0.99626 0.0
O49 O 0.0642 0.07701 0.97269 0.0
O50 O 0.93376 0.04418 0.9664 0.0
O51 O 0.99051 0.97242 0.9603 0.0
O52 O 0.96606 0.92612 0.0085 0.0
O53 O 0.99695 0.07784 0.93237 0.0
O54 O 0.93938 0.0002 0.01755 0.0
O55 O 0.94329 0.94118 0.03656 0.0
C56 C 0.04197 0.09019 0.03524 0.0
C57 C 0.04511 0.89501 0.04934 0.0
C58 C 0.05303 0.83319 0.06268 0.0
C59 C 0.02403 0.80428 0.034 0.0
C60 C 0.01668 0.86604 0.02077 0.0
C61 C 0.00599 0.8207 0.01322 0.0
C62 C 0.06312 0.87852 0.07019 0.0
C63 C 0.08944 0.06197 0.97585 0.0
C64 C 0.05661 0.94261 0.05796 0.0
C65 C 0.0793 0.07917 0.1662 0.0
C66 C 0.12779 0.12044 0.15091 0.0
C67 C 0.96948 0.92915 0.97608 0.0
C68 C 0.97764 0.12804 0.94448 0.0
C69 C 0.96598 0.18572 0.92682 0.0
C70 C 0.01059 0.22682 0.94557 0.0
C71 C 0.02184 0.16931 0.96305 0.0
C72 C 0.94969 0.1362 0.92672 0.0
C73 C 0.03808 0.21846 0.96366 0.0
C74 C 0.92306 0.96154 0.0374 0.0
C75 C 0.96114 0.07679 0.94195 0.0
H76 H 0.01515 0.76892 0.02769 0.0
H77 H 0.00312 0.87866 0.00434 0.0
H78 H 0.98385 0.79836 0.99115 0.0
H79 H 0.08601 0.90177 0.09191 0.0
H80 H 0.02478 0.26566 0.94592 0.0
H81 H 0.04399 0.16367 0.97667 0.0
H82 H 0.91505 0.10367 0.91289 0.0
H83 H 0.07241 0.25033 0.9779 0.0
Tb84 Tb 0.02871 0.98673 0.46537 0.0
C85 C 0.06065 0.07142 0.60366 0.0
N86 N 0.01432 0.03067 0.58859 0.0
C87 C 0.98682 0.97706 0.63687 0.0
C88 C 0.07306 0.06573 0.63528 0.0
C89 C 0.97601 0.98525 0.60582 0.0
C90 C 0.03604 0.01712 0.65139 0.0
C91 C 0.14117 0.16438 0.60367 0.0
C92 C 0.09428 0.12 0.58816 0.0
C93 C 0.15483 0.15852 0.63457 0.0
C94 C 0.12095 0.1092 0.65028 0.0
Tb95 Tb 0.00321 0.04807 0.53664 0.0
N96 N 0.08056 0.12376 0.55785 0.0
C97 C 0.1727 0.21321 0.58762 0.0
C98 C 0.10961 0.17165 0.54282 0.0
C99 C 0.1565 0.21695 0.55724 0.0
H100 H 0.9366 0.95562 0.59612 0.0
H101 H 0.18007 0.2547 0.54496 0.0
H102 H 0.04283 0.04854 0.39854 0.0
H103 H 0.89864 0.77749 0.48985 0.0
H104 H 0.09691 0.1747 0.51951 0.0
H105 H 0.20911 0.2483 0.59867 0.0
H106 H 0.9793 0.87142 0.49641 0.0
H107 H 0.95677 0.94029 0.6499 0.0
H108 H 0.19111 0.19196 0.64671 0.0
H109 H 0.13145 0.10546 0.67441 0.0
H110 H 0.99245 0.02765 0.34751 0.0
H111 H 0.04407 0.01101 0.67567 0.0
H112 H 0.83471 0.74908 0.4458 0.0
N113 N 0.98523 0.97064 0.41755 0.0
C114 C 0.94013 0.91994 0.41156 0.0
C115 C 0.97705 0.99705 0.36547 0.0
C116 C 0.91009 0.90597 0.38291 0.0
C117 C 0.0054 0.00884 0.39435 0.0
C118 C 0.92873 0.9455 0.35996 0.0
N119 N 0.95815 0.89735 0.45961 0.0
C120 C 0.95039 0.86016 0.47842 0.0
C121 C 0.88006 0.82845 0.428 0.0
C122 C 0.92551 0.88202 0.43378 0.0
C123 C 0.86927 0.79067 0.44932 0.0
C124 C 0.90519 0.80656 0.47425 0.0
H125 H 0.90681 0.93643 0.3376 0.0
H126 H 0.83929 0.84143 0.35613 0.0
H127 H 0.81288 0.77339 0.39569 0.0
O128 O 0.05257 0.95151 0.44356 0.0
O129 O 0.97351 0.9957 0.45863 0.0
O130 O 0.9351 0.97907 0.50918 0.0
O131 O 0.10019 0.03467 0.43942 0.0
O132 O 0.00751 0.95195 0.51532 0.0
O133 O 0.95472 0.96244 0.53806 0.0
O134 O 0.97682 0.0848 0.52499 0.0
O135 O 0.08157 0.0789 0.52558 0.0
O136 O 0.06974 0.00813 0.5125 0.0
O137 O 0.96679 0.05546 0.57387 0.0
O138 O 0.02711 0.08651 0.48791 0.0
O139 O 0.07525 0.07158 0.46236 0.0
C140 C 0.93211 0.97472 0.47679 0.0
C141 C 0.14487 0.00708 0.44112 0.0
C142 C 0.20209 0.99318 0.4271 0.0
C143 C 0.2385 0.03133 0.45093 0.0
C144 C 0.18117 0.04408 0.46521 0.0
C145 C 0.22773 0.05606 0.47001 0.0
C146 C 0.15508 0.98128 0.42261 0.0
C147 C 0.96969 0.93702 0.53553 0.0
C148 C 0.09732 0.99644 0.43376 0.0
C149 C 0.86338 0.85301 0.37779 0.0
C150 C 0.84829 0.81429 0.40037 0.0
C151 C 0.09446 0.05203 0.52895 0.0
C152 C 0.90303 0.05453 0.55547 0.0
C153 C 0.84152 0.05967 0.5761 0.0
C154 C 0.80074 0.01348 0.5584 0.0
C155 C 0.86187 0.0084 0.53814 0.0
C156 C 0.89269 0.07986 0.57452 0.0
C157 C 0.81096 0.98803 0.53962 0.0
C158 C 0.06121 0.09783 0.46551 0.0
C159 C 0.95692 0.07678 0.55421 0.0
H160 H 0.27564 0.04262 0.45472 0.0
H161 H 0.17394 0.06423 0.47997 0.0
H162 H 0.25589 0.08505 0.48836 0.0
H163 H 0.12593 0.95167 0.40483 0.0
H164 H 0.76086 0.99676 0.55933 0.0
H165 H 0.86909 0.98824 0.5235 0.0
H166 H 0.92474 0.11579 0.58764 0.0
H167 H 0.77933 0.95242 0.52617 0.0
Zn168 Zn 0.38142 0.6897 0.19018 0.0
Zn169 Zn 0.33222 0.64855 0.31675 0.0
Zn170 Zn 0.36018 0.6673 0.25409 0.0
C171 C 0.44235 0.71105 0.3128 0.0
C172 C 0.27915 0.55147 0.28845 0.0
O173 O 0.3291 0.70052 0.23443 0.0
O174 O 0.34901 0.71711 0.18114 0.0
C175 C 0.47719 0.74473 0.22184 0.0
O176 O 0.43438 0.7102 0.28157 0.0
O177 O 0.40425 0.68638 0.33294 0.0
O178 O 0.28047 0.57133 0.31493 0.0
O179 O 0.3072 0.58105 0.26332 0.0
O180 O 0.45844 0.74048 0.194 0.0
O181 O 0.44683 0.71967 0.24723 0.0
O182 O 0.31761 0.59144 0.22905 0.0
O183 O 0.34307 0.61614 0.17698 0.0
C184 C 0.31712 0.58018 0.19862 0.0
O185 O 0.32591 0.69936 0.26902 0.0
O186 O 0.30495 0.6815 0.32218 0.0
C187 C 0.32749 0.71672 0.20629 0.0
C188 C 0.3075 0.70194 0.29565 0.0
Zn189 Zn 0.65751 0.35121 0.81596 0.0
Zn190 Zn 0.65636 0.35968 0.68677 0.0
Zn191 Zn 0.65775 0.36003 0.75326 0.0
C192 C 0.72365 0.46499 0.7087 0.0
C193 C 0.55356 0.30204 0.70897 0.0
O194 O 0.68871 0.3247 0.76786 0.0
O195 O 0.66645 0.30183 0.82043 0.0
C196 C 0.73219 0.4588 0.80137 0.0
O197 O 0.70722 0.44297 0.73744 0.0
O198 O 0.70977 0.43779 0.68289 0.0
O199 O 0.5806 0.32044 0.68274 0.0
O200 O 0.57531 0.31163 0.73736 0.0
O201 O 0.7198 0.42699 0.82387 0.0
O202 O 0.71033 0.4413 0.77267 0.0
O203 O 0.57607 0.3136 0.77183 0.0
O204 O 0.58826 0.32592 0.82587 0.0
C205 C 0.55842 0.30851 0.80112 0.0
O206 O 0.68862 0.32698 0.73316 0.0
O207 O 0.67741 0.32079 0.67881 0.0
C208 C 0.68607 0.30223 0.79417 0.0
C209 C 0.69196 0.31341 0.70446 0.0
H210 H 0.05559 0.83232 0.13054 0.0
H211 H 0.09561 0.81105 0.16544 0.0
H212 H 0.13869 0.77731 0.07827 0.0
H213 H 0.09921 0.79874 0.04327 0.0
H214 H 0.09326 0.70158 0.12898 0.0
H215 H 0.25576 0.90594 0.17589 0.0
H216 H 0.18969 0.87739 0.18166 0.0
H217 H 0.21618 0.89157 0.1406 0.0
C218 C 0.0738 0.82057 0.11882 0.0
C219 C 0.07444 0.81745 0.0841 0.0
C220 C 0.09662 0.80845 0.13879 0.0
C221 C 0.12069 0.7933 0.12439 0.0
C222 C 0.12029 0.78896 0.08985 0.0
H223 H 0.35392 0.79434 0.1669 0.0
H224 H 0.30052 0.81322 0.15421 0.0
C225 C 0.09748 0.80097 0.06989 0.0
C226 C 0.14703 0.78239 0.14492 0.0
H227 H 0.2563 0.84232 0.19219 0.0
C228 C 0.12845 0.73204 0.14325 0.0
C229 C 0.19299 0.82241 0.16341 0.0
C230 C 0.21527 0.87753 0.16546 0.0
C231 C 0.1558 0.72111 0.15842 0.0
C232 C 0.20262 0.76154 0.17613 0.0
C233 C 0.22009 0.81134 0.1789 0.0
C234 C 0.2374 0.75478 0.18794 0.0
C235 C 0.13606 0.66732 0.15373 0.0
C236 C 0.22025 0.71669 0.21182 0.0
C237 C 0.25054 0.70549 0.21883 0.0
C238 C 0.29876 0.73292 0.20253 0.0
C239 C 0.31693 0.77273 0.17986 0.0
C240 C 0.28662 0.78372 0.17274 0.0
H241 H 0.10434 0.64359 0.13486 0.0
H242 H 0.16877 0.67095 0.14609 0.0
H243 H 0.12001 0.64548 0.17751 0.0
H244 H 0.18256 0.69425 0.22403 0.0
H245 H 0.23504 0.67364 0.23571 0.0
H246 H 0.18672 0.15314 0.53971 0.0
H247 H 0.25505 0.1845 0.58033 0.0
H248 H 0.16595 0.02418 0.61011 0.0
H249 H 0.09713 0.9927 0.56979 0.0
H250 H 0.22987 0.1471 0.65822 0.0
H251 H 0.32825 0.10717 0.57822 0.0
H252 H 0.29327 0.12259 0.56036 0.0
H253 H 0.25726 0.06025 0.58018 0.0
C254 C 0.18178 0.12474 0.55503 0.0
C255 C 0.13676 0.07068 0.55194 0.0
C256 C 0.22061 0.14259 0.57815 0.0
C257 C 0.21509 0.10656 0.59823 0.0
C258 C 0.17055 0.05245 0.59486 0.0
H259 H 0.47725 0.19559 0.71173 0.0
H260 H 0.386 0.13951 0.69244 0.0
C261 C 0.13166 0.03457 0.57172 0.0
C262 C 0.25713 0.12582 0.62185 0.0
H263 H 0.36926 0.15097 0.6285 0.0
C264 C 0.2601 0.14749 0.65201 0.0
C265 C 0.29591 0.12558 0.61367 0.0
C266 C 0.29402 0.10278 0.58137 0.0
C267 C 0.30219 0.1706 0.67392 0.0
C268 C 0.34255 0.17283 0.66497 0.0
C269 C 0.33818 0.14905 0.63539 0.0
C270 C 0.39248 0.20449 0.68372 0.0
C271 C 0.30344 0.19292 0.70623 0.0
C272 C 0.42575 0.25933 0.68607 0.0
C273 C 0.47759 0.29113 0.69705 0.0
C274 C 0.49666 0.26849 0.70603 0.0
C275 C 0.46271 0.21355 0.70552 0.0
C276 C 0.41085 0.18167 0.69442 0.0
H277 H 0.26313 0.17323 0.71426 0.0
H278 H 0.32207 0.18869 0.7261 0.0
H279 H 0.32677 0.23549 0.70297 0.0
H280 H 0.4129 0.27791 0.67719 0.0
H281 H 0.5037 0.3336 0.69663 0.0
H282 H 0.11428 0.1927 0.01423 0.0
H283 H 0.15515 0.27156 0.04718 0.0
H284 H 0.06244 0.1738 0.13186 0.0
H285 H 0.02124 0.09507 0.09909 0.0
H286 H 0.10903 0.30073 0.08115 0.0
H287 H 0.21312 0.27557 0.16749 0.0
H288 H 0.18441 0.2396 0.12912 0.0
H289 H 0.14319 0.21993 0.16447 0.0
C290 C 0.10209 0.18808 0.03971 0.0
C291 C 0.06462 0.13784 0.05409 0.0
C292 C 0.12569 0.23307 0.05856 0.0
C293 C 0.11238 0.22848 0.09208 0.0
C294 C 0.07407 0.17827 0.10625 0.0
H295 H 0.22188 0.48922 0.2224 0.0
H296 H 0.16846 0.39946 0.2006 0.0
C297 C 0.0505 0.13336 0.08745 0.0
C298 C 0.13861 0.27634 0.11214 0.0
H299 H 0.22101 0.34692 0.17798 0.0
C300 C 0.13321 0.31065 0.10244 0.0
C301 C 0.17009 0.28907 0.13995 0.0
C302 C 0.17856 0.25442 0.15082 0.0
C303 C 0.15914 0.35781 0.11955 0.0
C304 C 0.19124 0.37087 0.1469 0.0
C305 C 0.19583 0.33621 0.15713 0.0
C306 C 0.22474 0.42314 0.16263 0.0
C307 C 0.15345 0.39433 0.10787 0.0
C308 C 0.27411 0.46539 0.1488 0.0
C309 C 0.30464 0.51613 0.16133 0.0
C310 C 0.28643 0.52546 0.18805 0.0
C311 C 0.23746 0.48282 0.20246 0.0
C312 C 0.20677 0.43179 0.18985 0.0
H313 H 0.1236 0.37649 0.08794 0.0
H314 H 0.14202 0.40499 0.12891 0.0
H315 H 0.19196 0.43134 0.09837 0.0
H316 H 0.2884 0.45924 0.12773 0.0
H317 H 0.34223 0.54831 0.14974 0.0
H318 H 0.87633 0.10155 0.63847 0.0
H319 H 0.85971 0.1486 0.66987 0.0
H320 H 0.76645 0.12718 0.58918 0.0
H321 H 0.78319 0.08073 0.55758 0.0
H322 H 0.85219 0.23681 0.61771 0.0
H323 H 0.7103 0.07907 0.70966 0.0
H324 H 0.77075 0.09581 0.7013 0.0
H325 H 0.72101 0.0641 0.66997 0.0
C326 C 0.85241 0.10703 0.62742 0.0
C327 C 0.83093 0.08732 0.59557 0.0
C328 C 0.84272 0.13357 0.64545 0.0
C329 C 0.81164 0.14098 0.63185 0.0
C330 C 0.79036 0.12158 0.6001 0.0
H331 H 0.64224 0.2206 0.67445 0.0
H332 H 0.67711 0.18108 0.66347 0.0
C333 C 0.7997 0.0948 0.58218 0.0
C334 C 0.80171 0.16979 0.65014 0.0
H335 H 0.72342 0.15433 0.71008 0.0
C336 C 0.8248 0.21933 0.63831 0.0
C337 C 0.766 0.14666 0.67697 0.0
C338 C 0.74024 0.09339 0.69036 0.0
C339 C 0.81134 0.24547 0.65171 0.0
C340 C 0.77383 0.22129 0.67757 0.0
C341 C 0.75235 0.17273 0.69035 0.0
C342 C 0.75138 0.24249 0.68825 0.0
C343 C 0.83503 0.29739 0.63697 0.0
C344 C 0.78138 0.28964 0.7063 0.0
C345 C 0.76137 0.31212 0.71264 0.0
C346 C 0.71124 0.28762 0.70109 0.0
C347 C 0.6809 0.23991 0.68375 0.0
C348 C 0.70064 0.21728 0.67763 0.0
H349 H 0.86016 0.3086 0.61508 0.0
H350 H 0.80336 0.29539 0.62945 0.0
H351 H 0.85956 0.32891 0.65586 0.0
H352 H 0.82073 0.30974 0.71456 0.0
H353 H 0.78581 0.34965 0.72532 0.0
H354 H 0.8473 0.86183 0.06257 0.0
H355 H 0.77991 0.83076 0.10415 0.0
H356 H 0.83872 0.98631 0.10899 0.0
H357 H 0.9064 0.01769 0.06786 0.0
H358 H 0.79424 0.87663 0.17273 0.0
H359 H 0.67753 0.88005 0.08231 0.0
H360 H 0.72551 0.87834 0.06958 0.0
H361 H 0.74682 0.93857 0.0846 0.0
C362 C 0.846 0.88939 0.07276 0.0
C363 C 0.88201 0.94212 0.06211 0.0
C364 C 0.80772 0.87169 0.09651 0.0
C365 C 0.80454 0.90632 0.1096 0.0
C366 C 0.84058 0.95902 0.0991 0.0
H367 H 0.55637 0.84975 0.21357 0.0
H368 H 0.64496 0.89542 0.19402 0.0
C369 C 0.8789 0.97675 0.07547 0.0
C370 C 0.76161 0.88681 0.13276 0.0
H371 H 0.64809 0.85945 0.1374 0.0
C372 C 0.76222 0.87287 0.16517 0.0
C373 C 0.72012 0.88209 0.1227 0.0
C374 C 0.71691 0.89513 0.08786 0.0
C375 C 0.72241 0.85483 0.18803 0.0
C376 C 0.68068 0.84987 0.17787 0.0
C377 C 0.68038 0.86388 0.14538 0.0
C378 C 0.63506 0.8278 0.19943 0.0
C379 C 0.7258 0.84204 0.22285 0.0
C380 C 0.6013 0.77567 0.2111 0.0
C381 C 0.55105 0.74999 0.2231 0.0
C382 C 0.53385 0.77593 0.22304 0.0
C383 C 0.56924 0.82934 0.21426 0.0
C384 C 0.61965 0.85524 0.20285 0.0
H385 H 0.76703 0.86336 0.22958 0.0
H386 H 0.71031 0.85218 0.24105 0.0
H387 H 0.70188 0.79916 0.22472 0.0
H388 H 0.61173 0.75328 0.20815 0.0
H389 H 0.52384 0.7084 0.22906 0.0
H390 H 0.87073 0.87022 0.56232 0.0
H391 H 0.83084 0.79629 0.60008 0.0
H392 H 0.97126 0.82488 0.59443 0.0
H393 H 0.01188 0.89973 0.55766 0.0
H394 H 0.80829 0.70684 0.5894 0.0
H395 H 0.94927 0.81561 0.69341 0.0
H396 H 0.9471 0.84842 0.66027 0.0
H397 H 0.98122 0.8277 0.65476 0.0
C398 C 0.89326 0.86104 0.56945 0.0
C399 C 0.94465 0.89113 0.55736 0.0
C400 C 0.87043 0.81879 0.59097 0.0
C401 C 0.89853 0.80581 0.60074 0.0
C402 C 0.94941 0.83511 0.58807 0.0
H403 H 0.82313 0.53816 0.68488 0.0
H404 H 0.86701 0.6257 0.66352 0.0
C405 C 0.97234 0.87749 0.56672 0.0
C406 C 0.87361 0.75986 0.62268 0.0
H407 H 0.89187 0.72151 0.69376 0.0
C408 C 0.82618 0.71019 0.61245 0.0
C409 C 0.89695 0.7643 0.65283 0.0
C410 C 0.94615 0.81697 0.66616 0.0
C411 C 0.80251 0.66459 0.63084 0.0
C412 C 0.82671 0.66883 0.66039 0.0
C413 C 0.87352 0.71852 0.67107 0.0
C414 C 0.80523 0.62128 0.67909 0.0
C415 C 0.75269 0.61185 0.618 0.0
C416 C 0.75705 0.59092 0.69602 0.0
C417 C 0.73226 0.5412 0.70843 0.0
C418 C 0.75561 0.52156 0.70433 0.0
C419 C 0.80511 0.55318 0.68897 0.0
C420 C 0.83001 0.60295 0.67671 0.0
H421 H 0.74303 0.61456 0.59248 0.0
H422 H 0.75648 0.58305 0.61811 0.0
H423 H 0.71925 0.59631 0.63444 0.0
H424 H 0.73733 0.60444 0.698 0.0
H425 H 0.69338 0.51676 0.71934 0.0
H426 H 0.17279 0.95694 0.36276 0.0
H427 H 0.18259 0.90393 0.33297 0.0
H428 H 0.27012 0.91825 0.41492 0.0
H429 H 0.25589 0.96631 0.44626 0.0
H430 H 0.25953 0.91699 0.30971 0.0
H431 H 0.16116 0.76329 0.40593 0.0
H432 H 0.162 0.815 0.40735 0.0
H433 H 0.21673 0.82588 0.42336 0.0
C434 C 0.19312 0.94789 0.37488 0.0
C435 C 0.21244 0.9652 0.40742 0.0
C436 C 0.19935 0.91813 0.35751 0.0
C437 C 0.22575 0.90569 0.37203 0.0
C438 C 0.24794 0.92566 0.4036 0.0
H439 H 0.36494 0.80517 0.2829 0.0
H440 H 0.33914 0.85278 0.2954 0.0
C441 C 0.24058 0.95419 0.42132 0.0
C442 C 0.22944 0.87114 0.35465 0.0
H443 H 0.21475 0.76595 0.36731 0.0
C444 C 0.24908 0.88348 0.3221 0.0
C445 C 0.21404 0.82621 0.37023 0.0
C446 C 0.18672 0.80649 0.40346 0.0
C447 C 0.25612 0.85363 0.30542 0.0
C448 C 0.24544 0.81184 0.32231 0.0
C449 C 0.2237 0.79831 0.35429 0.0
C450 C 0.25848 0.78283 0.30852 0.0
C451 C 0.27421 0.86688 0.26984 0.0
C452 C 0.22199 0.72765 0.3115 0.0
C453 C 0.23753 0.701 0.30584 0.0
C454 C 0.28922 0.72874 0.29589 0.0
C455 C 0.32469 0.78315 0.29028 0.0
C456 C 0.3097 0.81021 0.29709 0.0
H457 H 0.26001 0.88303 0.25708 0.0
H458 H 0.31793 0.89765 0.26908 0.0
H459 H 0.26004 0.83183 0.25594 0.0
H460 H 0.18219 0.70547 0.32003 0.0
H461 H 0.20963 0.65888 0.31019 0.0
H462 H 0.15565 0.15851 0.94558 0.0
H463 H 0.22686 0.1936 0.90646 0.0
H464 H 0.19126 0.04937 0.91392 0.0
H465 H 0.12131 0.01486 0.95365 0.0
H466 H 0.2927 0.13136 0.9202 0.0
H467 H 0.22437 0.16316 0.81016 0.0
H468 H 0.22875 0.19616 0.84596 0.0
H469 H 0.18235 0.12527 0.84546 0.0
C470 C 0.16308 0.13437 0.93879 0.0
C471 C 0.13327 0.08418 0.95282 0.0
C472 C 0.20329 0.15414 0.91612 0.0
C473 C 0.2137 0.12367 0.90665 0.0
C474 C 0.18378 0.07348 0.92067 0.0
H475 H 0.46725 0.21578 0.77537 0.0
H476 H 0.37697 0.16663 0.79478 0.0
C477 C 0.14409 0.05399 0.94358 0.0
C478 C 0.25854 0.14565 0.88435 0.0
H479 H 0.31624 0.20854 0.8104 0.0
C480 C 0.29722 0.14732 0.89596 0.0
C481 C 0.26433 0.16607 0.85251 0.0
C482 C 0.22242 0.16208 0.83764 0.0
C483 C 0.3426 0.17102 0.87739 0.0
C484 C 0.34992 0.19431 0.8466 0.0
C485 C 0.31046 0.19083 0.83417 0.0
C486 C 0.40105 0.22703 0.82928 0.0
C487 C 0.38356 0.17279 0.89131 0.0
C488 C 0.44364 0.2776 0.84146 0.0
C489 C 0.49461 0.30533 0.8305 0.0
C490 C 0.50383 0.2832 0.8069 0.0
C491 C 0.46084 0.23404 0.79297 0.0
C492 C 0.4095 0.20593 0.80418 0.0
H493 H 0.36826 0.14563 0.91266 0.0
H494 H 0.39734 0.16226 0.87194 0.0
H495 H 0.41815 0.21347 0.89973 0.0
H496 H 0.43777 0.29431 0.86092 0.0
H497 H 0.5272 0.3432 0.84159 0.0
H498 H 0.13875 0.13995 0.41913 0.0
H499 H 0.17517 0.21144 0.38009 0.0
H500 H 0.07149 0.22558 0.41926 0.0
H501 H 0.03495 0.15452 0.45842 0.0
H502 H 0.12266 0.22163 0.33052 0.0
H503 H 0.22141 0.37461 0.42844 0.0
H504 H 0.19781 0.31053 0.43537 0.0
H505 H 0.15267 0.31858 0.4362 0.0
C506 C 0.12366 0.15826 0.41951 0.0
C507 C 0.08412 0.14167 0.44214 0.0
C508 C 0.14439 0.19892 0.39705 0.0
C509 C 0.12627 0.22395 0.397 0.0
C510 C 0.08642 0.2071 0.41921 0.0
H511 H 0.17964 0.47413 0.31042 0.0
H512 H 0.13965 0.38717 0.32927 0.0
C513 C 0.06565 0.1665 0.44162 0.0
C514 C 0.14994 0.2689 0.37457 0.0
H515 H 0.21473 0.39862 0.37532 0.0
C516 C 0.14333 0.26054 0.34017 0.0
C517 C 0.1774 0.31965 0.3873 0.0
C518 C 0.18828 0.33169 0.42382 0.0
C519 C 0.16139 0.30134 0.31829 0.0
C520 C 0.18651 0.35123 0.33131 0.0
C521 C 0.19486 0.35997 0.36552 0.0
C522 C 0.20234 0.3949 0.31065 0.0
C523 C 0.15204 0.29078 0.28164 0.0
C524 C 0.24935 0.42665 0.29224 0.0
C525 C 0.27206 0.47638 0.28107 0.0
C526 C 0.24815 0.49471 0.2887 0.0
C527 C 0.19865 0.46068 0.30423 0.0
C528 C 0.17585 0.41109 0.31502 0.0
H529 H 0.12956 0.24904 0.27553 0.0
H530 H 0.13007 0.30062 0.27229 0.0
H531 H 0.19046 0.31656 0.26848 0.0
H532 H 0.27058 0.41495 0.28896 0.0
H533 H 0.31053 0.50228 0.26942 0.0
H534 H 0.94528 0.24534 0.94394 0.0
H535 H 0.89436 0.25677 0.9131 0.0
H536 H 0.86562 0.15444 0.8362 0.0
H537 H 0.91956 0.14556 0.86578 0.0
H538 H 0.88506 0.2357 0.80987 0.0
H539 H 0.73666 0.1492 0.90901 0.0
H540 H 0.80149 0.20423 0.9242 0.0
H541 H 0.78577 0.14623 0.90975 0.0
C542 C 0.92891 0.22585 0.92024 0.0
C543 C 0.93617 0.19403 0.9076 0.0
C544 C 0.89905 0.23179 0.90285 0.0
C545 C 0.87488 0.20523 0.87279 0.0
C546 C 0.88329 0.17473 0.85957 0.0
H547 H 0.63648 0.20076 0.80508 0.0
H548 H 0.67843 0.16849 0.81682 0.0
C549 C 0.91372 0.16928 0.87673 0.0
C550 C 0.84084 0.20939 0.85534 0.0
H551 H 0.73889 0.20007 0.86801 0.0
C552 C 0.85266 0.2273 0.82242 0.0
C553 C 0.79742 0.19674 0.87125 0.0
C554 C 0.77921 0.17244 0.90535 0.0
C555 C 0.8241 0.2358 0.80573 0.0
C556 C 0.78385 0.2277 0.82279 0.0
C557 C 0.77022 0.20701 0.85501 0.0
C558 C 0.75803 0.24415 0.80909 0.0
C559 C 0.83724 0.25327 0.77005 0.0
C560 C 0.78867 0.297 0.80009 0.0
C561 C 0.76467 0.31511 0.79307 0.0
C562 C 0.70979 0.28075 0.79505 0.0
C563 C 0.6789 0.22759 0.80293 0.0
C564 C 0.70283 0.2093 0.80965 0.0
H565 H 0.85373 0.23925 0.75748 0.0
H566 H 0.80192 0.23842 0.75622 0.0
H567 H 0.86748 0.29698 0.76897 0.0
H568 H 0.83129 0.32506 0.80047 0.0
H569 H 0.78915 0.35661 0.78794 0.0
H570 H 0.83149 0.89239 0.49819 0.0
H571 H 0.74955 0.84901 0.46801 0.0
H572 H 0.83982 0.95872 0.38734 0.0
H573 H 0.9213 0.00288 0.41772 0.0
H574 H 0.75176 0.94178 0.40595 0.0
H575 H 0.69973 0.75433 0.38596 0.0
H576 H 0.70881 0.77338 0.42864 0.0
H577 H 0.76364 0.81351 0.40059 0.0
C578 C 0.83361 0.90734 0.47414 0.0
C579 C 0.88255 0.95035 0.45998 0.0
C580 C 0.78699 0.88238 0.45684 0.0
C581 C 0.7888 0.90014 0.4252 0.0
C582 C 0.83762 0.94415 0.41158 0.0
H583 H 0.53912 0.7987 0.28772 0.0
H584 H 0.62598 0.84528 0.31158 0.0
C585 C 0.88408 0.96905 0.42883 0.0
C586 C 0.73987 0.87301 0.4062 0.0
H587 H 0.63514 0.75528 0.37079 0.0
C588 C 0.7263 0.90109 0.39806 0.0
C589 C 0.70706 0.82007 0.39586 0.0
C590 C 0.72064 0.78858 0.40291 0.0
C591 C 0.67966 0.87699 0.38082 0.0
C592 C 0.64649 0.82378 0.37079 0.0
C593 C 0.6607 0.79611 0.3784 0.0
C594 C 0.59488 0.7947 0.35466 0.0
C595 C 0.66538 0.90808 0.37465 0.0
C596 C 0.54887 0.74987 0.37024 0.0
C597 C 0.49969 0.72256 0.35616 0.0
C598 C 0.49533 0.73936 0.3261 0.0
C599 C 0.5414 0.78393 0.31026 0.0
C600 C 0.59092 0.81117 0.32428 0.0
H601 H 0.68846 0.94374 0.39055 0.0
H602 H 0.67391 0.92115 0.34845 0.0
H603 H 0.62277 0.88351 0.37923 0.0
H604 H 0.55095 0.73639 0.39364 0.0
H605 H 0.46493 0.68828 0.36899 0.0
H606 H 0.89071 0.82436 0.99112 0.0
H607 H 0.8575 0.7496 0.95608 0.0
H608 H 0.97149 0.85768 0.88086 0.0
H609 H 0.00657 0.93189 0.91641 0.0
H610 H 0.81315 0.72314 0.89544 0.0
H611 H 0.9943 0.76105 0.88858 0.0
H612 H 0.98679 0.79424 0.91777 0.0
H613 H 0.00443 0.81618 0.87545 0.0
C614 C 0.9091 0.83192 0.96733 0.0
C615 C 0.95087 0.88374 0.95632 0.0
C616 C 0.88997 0.78937 0.94727 0.0
C617 C 0.91241 0.7981 0.91598 0.0
C618 C 0.95429 0.84992 0.90513 0.0
H619 H 0.7377 0.53411 0.77484 0.0
H620 H 0.78779 0.62298 0.79653 0.0
C621 C 0.97382 0.89229 0.92531 0.0
C622 C 0.89106 0.75305 0.89431 0.0
H623 H 0.92447 0.69539 0.85259 0.0
C624 C 0.83739 0.71693 0.88608 0.0
C625 C 0.92287 0.74514 0.88221 0.0
C626 C 0.98016 0.7809 0.89169 0.0
C627 C 0.81428 0.6724 0.86662 0.0
C628 C 0.84624 0.66483 0.85408 0.0
C629 C 0.9002 0.70165 0.86179 0.0
C630 C 0.82337 0.61579 0.83656 0.0
C631 C 0.75546 0.6328 0.86105 0.0
C632 C 0.82982 0.58397 0.85021 0.0
C633 C 0.80286 0.5343 0.83708 0.0
C634 C 0.76862 0.5152 0.81007 0.0
C635 C 0.7647 0.5483 0.79506 0.0
C636 C 0.79239 0.59857 0.80797 0.0
H637 H 0.73541 0.63843 0.87863 0.0
H638 H 0.74743 0.6375 0.83561 0.0
H639 H 0.73782 0.59187 0.86377 0.0
H640 H 0.85372 0.59643 0.87212 0.0
H641 H 0.80693 0.50979 0.84911 0.0
loop_
_geom_bond_atom_site_label_1
_geom_bond_atom_site_label_2
_geom_bond_distance
_geom_bond_site_symmetry_2
_ccdc_geom_bond_type
Tb0 N29 2.617 . S
Tb0 N35 2.572 1_565 S
Tb0 O44 2.465 . S
Tb0 O45 2.387 1_565 S
Tb0 O47 2.428 . S
Tb0 O48 2.307 1_564 S
Tb0 O52 2.366 1_455 S
Tb0 O55 2.393 1_455 S
Tb0 C64 2.802 . S
C1 N2 1.379 1_665 S
C1 C4 1.416 . S
C1 C8 1.424 . S
N2 C1 1.379 1_445 S
N2 C5 1.334 . S
N2 Tb11 2.617 1_455 S
C3 C5 1.390 . S
C3 C6 1.339 . S
C3 H23 0.930 . S
C4 C1 1.416 . S
C4 C6 1.416 1_665 S
C4 C10 1.448 . S
C5 N2 1.334 . S
C5 C3 1.390 . S
C5 H16 0.930 . S
C6 C3 1.339 . S
C6 C4 1.416 1_445 S
C6 H27 0.930 1_545 S
C7 C8 1.413 . S
C7 C9 1.427 . S
C7 C13 1.416 . S
C8 C1 1.424 . S
C8 C7 1.413 . S
C8 N12 1.361 . S
C9 C7 1.427 . S
C9 C10 1.328 . S
C9 H24 0.929 . S
C10 C4 1.448 . S
C10 C9 1.328 . S
C10 H25 0.930 . S
Tb11 N2 2.617 1_655 S
Tb11 N12 2.572 1_545 S
Tb11 O46 2.349 1_656 S
Tb11 O49 2.393 1_655 S
Tb11 O50 2.465 . S
Tb11 O51 2.387 1_545 S
Tb11 O53 2.428 1_655 S
Tb11 O54 2.308 1_546 S
Tb11 C75 2.802 . S
N12 C8 1.361 . S
N12 Tb11 2.572 1_565 S
N12 C14 1.340 . S
C13 C7 1.416 . S
C13 C15 1.332 . S
C13 H21 0.931 . S
C14 N12 1.340 . S
C14 C15 1.407 . S
C14 H20 0.930 . S
C15 C13 1.332 . S
C15 C14 1.407 . S
C15 H17 0.929 . S
H16 C5 0.930 . S
H17 C15 0.929 . S
H18 C33 0.930 . S
H19 C40 0.929 . S
H20 C14 0.930 . S
H21 C13 0.931 . S
H22 C36 0.930 . S
H23 C3 0.930 . S
H24 C9 0.929 . S
H25 C10 0.930 . S
H26 C31 0.930 . S
H27 C6 0.930 1_565 S
H28 C39 0.931 . S
N29 Tb0 2.617 . S
N29 C30 1.379 1_565 S
N29 C33 1.334 1_455 S
C30 N29 1.379 1_545 S
C30 C32 1.416 . S
C30 C38 1.424 . S
C31 H26 0.930 . S
C31 C33 1.390 . S
C31 C34 1.339 1_565 S
C32 C30 1.416 . S
C32 C34 1.416 1_455 S
C32 C65 1.448 . S
C33 H18 0.930 . S
C33 N29 1.334 1_655 S
C33 C31 1.390 . S
C34 C31 1.339 1_545 S
C34 C32 1.416 1_655 S
C34 H41 0.930 . S
N35 Tb0 2.572 1_545 S
N35 C36 1.340 . S
N35 C38 1.361 . S
C36 H22 0.930 . S
C36 N35 1.340 . S
C36 C40 1.407 . S
C37 C38 1.413 . S
C37 C39 1.416 . S
C37 C66 1.427 . S
C38 C30 1.424 . S
C38 N35 1.361 . S
C38 C37 1.413 . S
C39 H28 0.931 . S
C39 C37 1.416 . S
C39 C40 1.332 . S
C40 H19 0.929 . S
C40 C36 1.407 . S
C40 C39 1.332 . S
H41 C34 0.930 . S
H42 C65 0.930 . S
H43 C66 0.929 . S
O44 Tb0 2.465 . S
O44 C64 1.264 . S
O45 Tb0 2.387 1_545 S
O45 C56 1.264 . S
O46 Tb11 2.349 1_454 S
O46 C56 1.243 . S
O47 Tb0 2.428 . S
O47 C64 1.256 . S
O48 Tb0 2.307 1_546 S
O48 C63 1.267 . S
O49 Tb11 2.393 1_455 S
O49 C63 1.248 . S
O50 Tb11 2.465 . S
O50 C75 1.264 . S
O51 Tb11 2.387 1_565 S
O51 C67 1.264 . S
O52 Tb0 2.366 1_655 S
O52 C67 1.222 1_554 S
O53 Tb11 2.428 1_455 S
O53 C75 1.256 1_455 S
O54 Tb11 2.308 1_564 S
O54 C74 1.266 . S
O55 Tb0 2.393 1_655 S
O55 C74 1.248 . S
C56 O45 1.264 . S
C56 O46 1.243 . S
C57 C60 1.399 . S
C57 C62 1.383 . S
C57 C64 1.496 . S
C58 C59 1.399 . S
C58 C62 1.389 . S
C59 C58 1.399 . S
C59 C61 1.380 . S
C59 H76 0.929 . S
C60 C57 1.399 . S
C60 C61 1.392 . S
C60 H77 0.929 1_455 S
C61 C59 1.380 . S
C61 C60 1.392 . S
C61 H78 0.929 . S
C62 C57 1.383 . S
C62 C58 1.389 . S
C62 H79 0.931 . S
C63 O48 1.267 . S
C63 O49 1.248 . S
C64 Tb0 2.802 . S
C64 O44 1.264 . S
C64 O47 1.256 . S
C64 C57 1.496 . S
C65 C32 1.448 . S
C65 H42 0.930 . S
C65 C66 1.328 . S
C66 C37 1.427 . S
C66 H43 0.929 . S
C66 C65 1.328 . S
C67 O51 1.264 . S
C67 O52 1.222 1_556 S
C68 C71 1.399 . S
C68 C72 1.383 . S
C68 C75 1.496 . S
C69 C70 1.399 . S
C69 C72 1.389 . S
C70 C69 1.399 . S
C70 C73 1.380 . S
C70 H80 0.929 . S
C71 C68 1.399 . S
C71 C73 1.392 . S
C71 H81 0.929 1_655 S
C72 C68 1.383 . S
C72 C69 1.389 . S
C72 H82 0.931 . S
C73 C70 1.380 . S
C73 C71 1.392 . S
C73 H83 0.929 . S
C74 O54 1.266 . S
C74 O55 1.248 . S
C75 Tb11 2.802 . S
C75 O50 1.264 . S
C75 O53 1.256 1_655 S
C75 C68 1.496 . S
H76 C59 0.929 . S
H77 C60 0.929 1_655 S
H78 C61 0.929 . S
H79 C62 0.931 . S
H80 C70 0.929 . S
H81 C71 0.929 1_455 S
H82 C72 0.931 . S
H83 C73 0.929 . S
Tb84 N113 2.617 1_565 S
Tb84 N119 2.572 1_455 S
Tb84 O128 2.465 . S
Tb84 O129 2.387 1_455 S
Tb84 O131 2.428 1_565 S
Tb84 O132 2.308 1_455 S
Tb84 O136 2.349 1_565 S
Tb84 O139 2.393 1_565 S
Tb84 C148 2.802 . S
C85 N86 1.381 . S
C85 C88 1.416 . S
C85 C92 1.424 . S
N86 C85 1.381 . S
N86 C89 1.335 1_445 S
N86 Tb95 2.616 1_455 S
C87 C89 1.390 . S
C87 C90 1.339 1_665 S
C87 H107 0.930 . S
C88 C85 1.416 . S
C88 C90 1.416 . S
C88 C94 1.448 . S
C89 N86 1.335 1_665 S
C89 C87 1.390 . S
C89 H100 0.930 . S
C90 C87 1.339 1_445 S
C90 C88 1.416 . S
C90 H111 0.932 . S
C91 C92 1.413 . S
C91 C93 1.427 . S
C91 C97 1.416 . S
C92 C85 1.424 . S
C92 C91 1.413 . S
C92 N96 1.361 . S
C93 C91 1.427 . S
C93 C94 1.328 . S
C93 H108 0.929 . S
C94 C88 1.448 . S
C94 C93 1.328 . S
C94 H109 0.930 . S
Tb95 N86 2.616 1_655 S
Tb95 N96 2.572 1_655 S
Tb95 O130 2.349 1_545 S
Tb95 O133 2.393 1_545 S
Tb95 O134 2.465 . S
Tb95 O135 2.387 1_655 S
Tb95 O137 2.428 . S
Tb95 O138 2.308 1_655 S
Tb95 C159 2.802 . S
N96 C92 1.361 . S
N96 Tb95 2.572 1_455 S
N96 C98 1.340 . S
C97 C91 1.416 . S
C97 C99 1.332 . S
C97 H105 0.931 . S
C98 N96 1.340 . S
C98 C99 1.407 . S
C98 H104 0.930 . S
C99 C97 1.332 . S
C99 C98 1.407 . S
C99 H101 0.929 . S
H100 C89 0.930 . S
H101 C99 0.929 . S
H102 C117 0.930 . S
H103 C124 0.929 . S
H104 C98 0.930 . S
H105 C97 0.931 . S
H106 C120 0.930 . S
H107 C87 0.930 . S
H108 C93 0.929 . S
H109 C94 0.930 . S
H110 C115 0.930 . S
H111 C90 0.932 . S
H112 C123 0.931 . S
N113 Tb84 2.617 1_545 S
N113 C114 1.379 1_445 S
N113 C117 1.334 . S
C114 N113 1.379 1_665 S
C114 C116 1.416 . S
C114 C122 1.424 . S
C115 H110 0.930 . S
C115 C117 1.390 . S
C115 C118 1.339 . S
C116 C114 1.416 . S
C116 C118 1.416 1_665 S
C116 C149 1.448 . S
C117 H102 0.930 . S
C117 N113 1.334 . S
C117 C115 1.390 . S
C118 C115 1.339 . S
C118 C116 1.416 1_445 S
C118 H125 0.930 . S
N119 Tb84 2.572 1_655 S
N119 C120 1.340 . S
N119 C122 1.361 . S
C120 H106 0.930 . S
C120 N119 1.340 . S
C120 C124 1.407 . S
C121 C122 1.413 . S
C121 C123 1.416 . S
C121 C150 1.427 . S
C122 C114 1.424 . S
C122 N119 1.361 . S
C122 C121 1.413 . S
C123 H112 0.931 . S
C123 C121 1.416 . S
C123 C124 1.332 . S
C124 H103 0.929 . S
C124 C120 1.407 . S
C124 C123 1.332 . S
H125 C118 0.930 . S
H126 C149 0.930 . S
H127 C150 0.929 . S
O128 Tb84 2.465 . S
O128 C148 1.264 . S
O129 Tb84 2.387 1_655 S
O129 C140 1.264 . S
O130 Tb95 2.349 1_565 S
O130 C140 1.243 . S
O131 Tb84 2.428 1_545 S
O131 C148 1.256 1_545 S
O132 Tb84 2.308 1_655 S
O132 C147 1.266 . S
O133 Tb95 2.393 1_565 S
O133 C147 1.248 . S
O134 Tb95 2.465 . S
O134 C159 1.264 . S
O135 Tb95 2.387 1_455 S
O135 C151 1.264 . S
O136 Tb84 2.349 1_545 S
O136 C151 1.243 . S
O137 Tb95 2.428 . S
O137 C159 1.256 . S
O138 Tb95 2.308 1_455 S
O138 C158 1.266 . S
O139 Tb84 2.393 1_545 S
O139 C158 1.248 . S
C140 O129 1.264 . S
C140 O130 1.243 . S
C141 C144 1.399 . S
C141 C146 1.383 . S
C141 C148 1.496 . S
C142 C143 1.399 . S
C142 C146 1.389 . S
C143 C142 1.399 . S
C143 C145 1.380 . S
C143 H160 0.929 . S
C144 C141 1.399 . S
C144 C145 1.392 . S
C144 H161 0.929 1_565 S
C145 C143 1.380 . S
C145 C144 1.392 . S
C145 H162 0.929 1_565 S
C146 C141 1.383 . S
C146 C142 1.389 . S
C146 H163 0.931 . S
C147 O132 1.266 . S
C147 O133 1.248 . S
C148 Tb84 2.802 . S
C148 O128 1.264 . S
C148 O131 1.256 1_565 S
C148 C141 1.496 . S
C149 C116 1.448 . S
C149 H126 0.930 . S
C149 C150 1.328 . S
C150 C121 1.427 . S
C150 H127 0.929 . S
C150 C149 1.328 . S
C151 O135 1.264 . S
C151 O136 1.243 . S
C152 C155 1.399 . S
C152 C156 1.383 . S
C152 C159 1.496 . S
C153 C154 1.399 . S
C153 C156 1.389 . S
C154 C153 1.399 . S
C154 C157 1.380 . S
C154 H164 0.929 . S
C155 C152 1.399 . S
C155 C157 1.392 . S
C155 H165 0.929 . S
C156 C152 1.383 . S
C156 C153 1.389 . S
C156 H166 0.931 . S
C157 C154 1.380 . S
C157 C155 1.392 . S
C157 H167 0.929 . S
C158 O138 1.266 . S
C158 O139 1.248 . S
C159 Tb95 2.802 . S
C159 O134 1.264 . S
C159 O137 1.256 . S
C159 C152 1.496 . S
H160 C143 0.929 . S
H161 C144 0.929 1_545 S
H162 C145 0.929 1_545 S
H163 C146 0.931 . S
H164 C154 0.929 . S
H165 C155 0.929 . S
H166 C156 0.931 . S
H167 C157 0.929 . S
Zn168 O174 1.920 . S
Zn168 O180 1.898 . S
Zn168 O183 1.905 . S
Zn169 O177 1.905 . S
Zn169 O178 1.898 . S
Zn169 O186 1.920 . S
Zn170 O173 2.080 . S
Zn170 O176 2.114 . S
Zn170 O179 2.120 . S
Zn170 O181 2.120 . S
Zn170 O182 2.114 . S
Zn170 O185 2.080 . S
C171 O176 1.166 . S
C171 O177 1.182 . S
C172 O178 1.167 . S
C172 O179 1.299 . S
O173 Zn170 2.080 . S
O173 C187 1.305 . S
O174 Zn168 1.920 . S
O174 C187 1.234 . S
C175 O180 1.167 . S
C175 O181 1.299 . S
O176 Zn170 2.114 . S
O176 C171 1.166 . S
O177 Zn169 1.905 . S
O177 C171 1.182 . S
O178 Zn169 1.898 . S
O178 C172 1.167 . S
O179 Zn170 2.120 . S
O179 C172 1.299 . S
O180 Zn168 1.898 . S
O180 C175 1.167 . S
O181 Zn170 2.120 . S
O181 C175 1.299 . S
O182 Zn170 2.114 . S
O182 C184 1.166 . S
O183 Zn168 1.905 . S
O183 C184 1.182 . S
C184 O182 1.166 . S
C184 O183 1.182 . S
O185 Zn170 2.080 . S
O185 C188 1.305 . S
O186 Zn169 1.920 . S
O186 C188 1.234 . S
C187 O173 1.305 . S
C187 O174 1.234 . S
C188 O185 1.305 . S
C188 O186 1.234 . S
Zn189 O195 1.920 . S
Zn189 O201 1.898 . S
Zn189 O204 1.905 . S
Zn190 O198 1.905 . S
Zn190 O199 1.898 . S
Zn190 O207 1.920 . S
Zn191 O194 2.080 . S
Zn191 O197 2.114 . S
Zn191 O200 2.120 . S
Zn191 O202 2.120 . S
Zn191 O203 2.114 . S
Zn191 O206 2.080 . S
C192 O197 1.166 . S
C192 O198 1.182 . S
C193 O199 1.167 . S
C193 O200 1.299 . S
O194 Zn191 2.080 . S
O194 C208 1.305 . S
O195 Zn189 1.920 . S
O195 C208 1.234 . S
C196 O201 1.167 . S
C196 O202 1.299 . S
O197 Zn191 2.114 . S
O197 C192 1.166 . S
O198 Zn190 1.905 . S
O198 C192 1.182 . S
O199 Zn190 1.898 . S
O199 C193 1.167 . S
O200 Zn191 2.120 . S
O200 C193 1.299 . S
O201 Zn189 1.898 . S
O201 C196 1.167 . S
O202 Zn191 2.120 . S
O202 C196 1.299 . S
O203 Zn191 2.114 . S
O203 C205 1.166 . S
O204 Zn189 1.905 . S
O204 C205 1.182 . S
C205 O203 1.166 . S
C205 O204 1.182 . S
O206 Zn191 2.080 . S
O206 C209 1.305 . S
O207 Zn190 1.920 . S
O207 C209 1.234 . S
C208 O194 1.305 . S
C208 O195 1.234 . S
C209 O206 1.305 . S
C209 O207 1.234 . S
H210 C218 0.929 . S
H211 C220 0.930 . S
H212 C222 0.930 . S
H213 C225 0.929 . S
H214 C228 0.930 . S
H215 C230 0.960 . S
H216 C230 0.960 . S
H217 C230 0.960 . S
C218 H210 0.929 . S
C218 C219 1.377 . S
C218 C220 1.384 . S
C219 C218 1.377 . S
C219 C225 1.390 . S
C220 H211 0.930 . S
C220 C218 1.384 . S
C220 C221 1.372 . S
C221 C220 1.372 . S
C221 C222 1.400 . S
C221 C226 1.490 . S
C222 H212 0.930 . S
C222 C221 1.400 . S
C222 C225 1.386 . S
H223 C239 0.930 . S
H224 C240 0.931 . S
C225 H213 0.929 . S
C225 C219 1.390 . S
C225 C222 1.386 . S
C226 C221 1.490 . S
C226 C228 1.395 . S
C226 C229 1.403 . S
H227 C233 0.930 . S
C228 H214 0.930 . S
C228 C226 1.395 . S
C228 C231 1.403 . S
C229 C226 1.403 . S
C229 C230 1.524 . S
C229 C233 1.400 . S
C230 H215 0.960 . S
C230 H216 0.960 . S
C230 H217 0.960 . S
C230 C229 1.524 . S
C231 C228 1.403 . S
C231 C232 1.392 . S
C231 C235 1.495 . S
C232 C231 1.392 . S
C232 C233 1.385 . S
C232 C234 1.478 . S
C233 H227 0.930 . S
C233 C229 1.400 . S
C233 C232 1.385 . S
C234 C232 1.478 . S
C234 C236 1.381 . S
C234 C240 1.383 . S
C235 C231 1.495 . S
C235 H241 0.959 . S
C235 H242 0.961 . S
C235 H243 0.960 . S
C236 C234 1.381 . S
C236 C237 1.394 . S
C236 H244 0.930 . S
C237 C236 1.394 . S
C237 C238 1.383 . S
C237 H245 0.929 . S
C238 C237 1.383 . S
C238 C239 1.377 . S
C239 H223 0.930 . S
C239 C238 1.377 . S
C239 C240 1.379 . S
C240 H224 0.931 . S
C240 C234 1.383 . S
C240 C239 1.379 . S
H241 C235 0.959 . S
H242 C235 0.961 . S
H243 C235 0.960 . S
H244 C236 0.930 . S
H245 C237 0.929 . S
H246 C254 0.929 . S
H247 C256 0.930 . S
H248 C258 0.930 . S
H249 C261 0.929 . S
H250 C264 0.930 . S
H251 C266 0.960 . S
H252 C266 0.960 . S
H253 C266 0.960 . S
C254 H246 0.929 . S
C254 C255 1.377 . S
C254 C256 1.384 . S
C255 C254 1.377 . S
C255 C261 1.390 . S
C256 H247 0.930 . S
C256 C254 1.384 . S
C256 C257 1.372 . S
C257 C256 1.372 . S
C257 C258 1.400 . S
C257 C262 1.490 . S
C258 H248 0.930 . S
C258 C257 1.400 . S
C258 C261 1.386 . S
H259 C275 0.930 . S
H260 C276 0.931 . S
C261 H249 0.929 . S
C261 C255 1.390 . S
C261 C258 1.386 . S
C262 C257 1.490 . S
C262 C264 1.395 . S
C262 C265 1.403 . S
H263 C269 0.930 . S
C264 H250 0.930 . S
C264 C262 1.395 . S
C264 C267 1.403 . S
C265 C262 1.403 . S
C265 C266 1.524 . S
C265 C269 1.400 . S
C266 H251 0.960 . S
C266 H252 0.960 . S
C266 H253 0.960 . S
C266 C265 1.524 . S
C267 C264 1.403 . S
C267 C268 1.392 . S
C267 C271 1.495 . S
C268 C267 1.392 . S
C268 C269 1.385 . S
C268 C270 1.478 . S
C269 H263 0.930 . S
C269 C265 1.400 . S
C269 C268 1.385 . S
C270 C268 1.478 . S
C270 C272 1.381 . S
C270 C276 1.383 . S
C271 C267 1.495 . S
C271 H277 0.959 . S
C271 H278 0.961 . S
C271 H279 0.960 . S
C272 C270 1.381 . S
C272 C273 1.394 . S
C272 H280 0.930 . S
C273 C272 1.394 . S
C273 C274 1.383 . S
C273 H281 0.929 . S
C274 C273 1.383 . S
C274 C275 1.377 . S
C275 H259 0.930 . S
C275 C274 1.377 . S
C275 C276 1.379 . S
C276 H260 0.931 . S
C276 C270 1.383 . S
C276 C275 1.379 . S
H277 C271 0.959 . S
H278 C271 0.961 . S
H279 C271 0.960 . S
H280 C272 0.930 . S
H281 C273 0.929 . S
H282 C290 0.929 . S
H283 C292 0.930 . S
H284 C294 0.930 . S
H285 C297 0.929 . S
H286 C300 0.930 . S
H287 C302 0.960 . S
H288 C302 0.960 . S
H289 C302 0.960 . S
C290 H282 0.929 . S
C290 C291 1.377 . S
C290 C292 1.384 . S
C291 C290 1.377 . S
C291 C297 1.390 . S
C292 H283 0.930 . S
C292 C290 1.384 . S
C292 C293 1.372 . S
C293 C292 1.372 . S
C293 C294 1.400 . S
C293 C298 1.490 . S
C294 H284 0.930 . S
C294 C293 1.400 . S
C294 C297 1.386 . S
H295 C311 0.930 . S
H296 C312 0.931 . S
C297 H285 0.929 . S
C297 C291 1.390 . S
C297 C294 1.386 . S
C298 C293 1.490 . S
C298 C300 1.395 . S
C298 C301 1.403 . S
H299 C305 0.930 . S
C300 H286 0.930 . S
C300 C298 1.395 . S
C300 C303 1.403 . S
C301 C298 1.403 . S
C301 C302 1.524 . S
C301 C305 1.400 . S
C302 H287 0.960 . S
C302 H288 0.960 . S
C302 H289 0.960 . S
C302 C301 1.524 . S
C303 C300 1.403 . S
C303 C304 1.392 . S
C303 C307 1.495 . S
C304 C303 1.392 . S
C304 C305 1.385 . S
C304 C306 1.478 . S
C305 H299 0.930 . S
C305 C301 1.400 . S
C305 C304 1.385 . S
C306 C304 1.478 . S
C306 C308 1.381 . S
C306 C312 1.383 . S
C307 C303 1.495 . S
C307 H313 0.959 . S
C307 H314 0.961 . S
C307 H315 0.960 . S
C308 C306 1.381 . S
C308 C309 1.394 . S
C308 H316 0.930 . S
C309 C308 1.394 . S
C309 C310 1.383 . S
C309 H317 0.929 . S
C310 C309 1.383 . S
C310 C311 1.377 . S
C311 H295 0.930 . S
C311 C310 1.377 . S
C311 C312 1.379 . S
C312 H296 0.931 . S
C312 C306 1.383 . S
C312 C311 1.379 . S
H313 C307 0.959 . S
H314 C307 0.961 . S
H315 C307 0.960 . S
H316 C308 0.930 . S
H317 C309 0.929 . S
H318 C326 0.929 . S
H319 C328 0.930 . S
H320 C330 0.930 . S
H321 C333 0.929 . S
H322 C336 0.930 . S
H323 C338 0.960 . S
H324 C338 0.960 . S
H325 C338 0.960 . S
C326 H318 0.929 . S
C326 C327 1.377 . S
C326 C328 1.384 . S
C327 C326 1.377 . S
C327 C333 1.390 . S
C328 H319 0.930 . S
C328 C326 1.384 . S
C328 C329 1.372 . S
C329 C328 1.372 . S
C329 C330 1.400 . S
C329 C334 1.490 . S
C330 H320 0.930 . S
C330 C329 1.400 . S
C330 C333 1.386 . S
H331 C347 0.930 . S
H332 C348 0.931 . S
C333 H321 0.929 . S
C333 C327 1.390 . S
C333 C330 1.386 . S
C334 C329 1.490 . S
C334 C336 1.395 . S
C334 C337 1.403 . S
H335 C341 0.930 . S
C336 H322 0.930 . S
C336 C334 1.395 . S
C336 C339 1.403 . S
C337 C334 1.403 . S
C337 C338 1.524 . S
C337 C341 1.400 . S
C338 H323 0.960 . S
C338 H324 0.960 . S
C338 H325 0.960 . S
C338 C337 1.524 . S
C339 C336 1.403 . S
C339 C340 1.392 . S
C339 C343 1.495 . S
C340 C339 1.392 . S
C340 C341 1.385 . S
C340 C342 1.478 . S
C341 H335 0.930 . S
C341 C337 1.400 . S
C341 C340 1.385 . S
C342 C340 1.478 . S
C342 C344 1.381 . S
C342 C348 1.383 . S
C343 C339 1.495 . S
C343 H349 0.959 . S
C343 H350 0.961 . S
C343 H351 0.960 . S
C344 C342 1.381 . S
C344 C345 1.394 . S
C344 H352 0.930 . S
C345 C344 1.394 . S
C345 C346 1.383 . S
C345 H353 0.929 . S
C346 C345 1.383 . S
C346 C347 1.377 . S
C347 H331 0.930 . S
C347 C346 1.377 . S
C347 C348 1.379 . S
C348 H332 0.931 . S
C348 C342 1.383 . S
C348 C347 1.379 . S
H349 C343 0.959 . S
H350 C343 0.961 . S
H351 C343 0.960 . S
H352 C344 0.930 . S
H353 C345 0.929 . S
H354 C362 0.929 . S
H355 C364 0.930 . S
H356 C366 0.930 . S
H357 C369 0.929 1_545 S
H358 C372 0.930 . S
H359 C374 0.960 . S
H360 C374 0.960 . S
H361 C374 0.960 . S
C362 H354 0.929 . S
C362 C363 1.377 . S
C362 C364 1.384 . S
C363 C362 1.377 . S
C363 C369 1.390 . S
C364 H355 0.930 . S
C364 C362 1.384 . S
C364 C365 1.372 . S
C365 C364 1.372 . S
C365 C366 1.400 . S
C365 C370 1.490 . S
C366 H356 0.930 . S
C366 C365 1.400 . S
C366 C369 1.386 . S
H367 C383 0.930 . S
H368 C384 0.931 . S
C369 H357 0.929 1_565 S
C369 C363 1.390 . S
C369 C366 1.386 . S
C370 C365 1.490 . S
C370 C372 1.395 . S
C370 C373 1.403 . S
H371 C377 0.930 . S
C372 H358 0.930 . S
C372 C370 1.395 . S
C372 C375 1.403 . S
C373 C370 1.403 . S
C373 C374 1.524 . S
C373 C377 1.400 . S
C374 H359 0.960 . S
C374 H360 0.960 . S
C374 H361 0.960 . S
C374 C373 1.524 . S
C375 C372 1.403 . S
C375 C376 1.392 . S
C375 C379 1.495 . S
C376 C375 1.392 . S
C376 C377 1.385 . S
C376 C378 1.478 . S
C377 H371 0.930 . S
C377 C373 1.400 . S
C377 C376 1.385 . S
C378 C376 1.478 . S
C378 C380 1.381 . S
C378 C384 1.383 . S
C379 C375 1.495 . S
C379 H385 0.959 . S
C379 H386 0.961 . S
C379 H387 0.960 . S
C380 C378 1.381 . S
C380 C381 1.394 . S
C380 H388 0.930 . S
C381 C380 1.394 . S
C381 C382 1.383 . S
C381 H389 0.929 . S
C382 C381 1.383 . S
C382 C383 1.377 . S
C383 H367 0.930 . S
C383 C382 1.377 . S
C383 C384 1.379 . S
C384 H368 0.931 . S
C384 C378 1.383 . S
C384 C383 1.379 . S
H385 C379 0.959 . S
H386 C379 0.961 . S
H387 C379 0.960 . S
H388 C380 0.930 . S
H389 C381 0.929 . S
H390 C398 0.929 . S
H391 C400 0.930 . S
H392 C402 0.930 . S
H393 C405 0.929 . S
H394 C408 0.930 . S
H395 C410 0.960 . S
H396 C410 0.960 . S
H397 C410 0.960 . S
C398 H390 0.929 . S
C398 C399 1.377 . S
C398 C400 1.384 . S
C399 C398 1.377 . S
C399 C405 1.390 . S
C400 H391 0.930 . S
C400 C398 1.384 . S
C400 C401 1.372 . S
C401 C400 1.372 . S
C401 C402 1.400 . S
C401 C406 1.490 . S
C402 H392 0.930 . S
C402 C401 1.400 . S
C402 C405 1.386 . S
H403 C419 0.930 . S
H404 C420 0.931 . S
C405 H393 0.929 . S
C405 C399 1.390 . S
C405 C402 1.386 . S
C406 C401 1.490 . S
C406 C408 1.395 . S
C406 C409 1.403 . S
H407 C413 0.930 . S
C408 H394 0.930 . S
C408 C406 1.395 . S
C408 C411 1.403 . S
C409 C406 1.403 . S
C409 C410 1.524 . S
C409 C413 1.400 . S
C410 H395 0.960 . S
C410 H396 0.960 . S
C410 H397 0.960 . S
C410 C409 1.524 . S
C411 C408 1.403 . S
C411 C412 1.392 . S
C411 C415 1.495 . S
C412 C411 1.392 . S
C412 C413 1.385 . S
C412 C414 1.478 . S
C413 H407 0.930 . S
C413 C409 1.400 . S
C413 C412 1.385 . S
C414 C412 1.478 . S
C414 C416 1.381 . S
C414 C420 1.383 . S
C415 C411 1.495 . S
C415 H421 0.959 . S
C415 H422 0.961 . S
C415 H423 0.960 . S
C416 C414 1.381 . S
C416 C417 1.394 . S
C416 H424 0.930 . S
C417 C416 1.394 . S
C417 C418 1.383 . S
C417 H425 0.929 . S
C418 C417 1.383 . S
C418 C419 1.377 . S
C419 H403 0.930 . S
C419 C418 1.377 . S
C419 C420 1.379 . S
C420 H404 0.931 . S
C420 C414 1.383 . S
C420 C419 1.379 . S
H421 C415 0.959 . S
H422 C415 0.961 . S
H423 C415 0.960 . S
H424 C416 0.930 . S
H425 C417 0.929 . S
H426 C434 0.929 . S
H427 C436 0.930 . S
H428 C438 0.930 . S
H429 C441 0.929 . S
H430 C444 0.930 . S
H431 C446 0.960 . S
H432 C446 0.960 . S
H433 C446 0.960 . S
C434 H426 0.929 . S
C434 C435 1.377 . S
C434 C436 1.384 . S
C435 C434 1.377 . S
C435 C441 1.390 . S
C436 H427 0.930 . S
C436 C434 1.384 . S
C436 C437 1.372 . S
C437 C436 1.372 . S
C437 C438 1.400 . S
C437 C442 1.490 . S
C438 H428 0.930 . S
C438 C437 1.400 . S
C438 C441 1.386 . S
H439 C455 0.930 . S
H440 C456 0.931 . S
C441 H429 0.929 . S
C441 C435 1.390 . S
C441 C438 1.386 . S
C442 C437 1.490 . S
C442 C444 1.395 . S
C442 C445 1.403 . S
H443 C449 0.930 . S
C444 H430 0.930 . S
C444 C442 1.395 . S
C444 C447 1.403 . S
C445 C442 1.403 . S
C445 C446 1.524 . S
C445 C449 1.400 . S
C446 H431 0.960 . S
C446 H432 0.960 . S
C446 H433 0.960 . S
C446 C445 1.524 . S
C447 C444 1.403 . S
C447 C448 1.392 . S
C447 C451 1.495 . S
C448 C447 1.392 . S
C448 C449 1.385 . S
C448 C450 1.478 . S
C449 H443 0.930 . S
C449 C445 1.400 . S
C449 C448 1.385 . S
C450 C448 1.478 . S
C450 C452 1.381 . S
C450 C456 1.383 . S
C451 C447 1.495 . S
C451 H457 0.959 . S
C451 H458 0.961 . S
C451 H459 0.960 . S
C452 C450 1.381 . S
C452 C453 1.394 . S
C452 H460 0.930 . S
C453 C452 1.394 . S
C453 C454 1.383 . S
C453 H461 0.929 . S
C454 C453 1.383 . S
C454 C455 1.377 . S
C455 H439 0.930 . S
C455 C454 1.377 . S
C455 C456 1.379 . S
C456 H440 0.931 . S
C456 C450 1.383 . S
C456 C455 1.379 . S
H457 C451 0.959 . S
H458 C451 0.961 . S
H459 C451 0.960 . S
H460 C452 0.930 . S
H461 C453 0.929 . S
H462 C470 0.929 . S
H463 C472 0.930 . S
H464 C474 0.930 . S
H465 C477 0.929 . S
H466 C480 0.930 . S
H467 C482 0.960 . S
H468 C482 0.960 . S
H469 C482 0.960 . S
C470 H462 0.929 . S
C470 C471 1.377 . S
C470 C472 1.384 . S
C471 C470 1.377 . S
C471 C477 1.390 . S
C472 H463 0.930 . S
C472 C470 1.384 . S
C472 C473 1.372 . S
C473 C472 1.372 . S
C473 C474 1.400 . S
C473 C478 1.490 . S
C474 H464 0.930 . S
C474 C473 1.400 . S
C474 C477 1.386 . S
H475 C491 0.930 . S
H476 C492 0.931 . S
C477 H465 0.929 . S
C477 C471 1.390 . S
C477 C474 1.386 . S
C478 C473 1.490 . S
C478 C480 1.395 . S
C478 C481 1.403 . S
H479 C485 0.930 . S
C480 H466 0.930 . S
C480 C478 1.395 . S
C480 C483 1.403 . S
C481 C478 1.403 . S
C481 C482 1.524 . S
C481 C485 1.400 . S
C482 H467 0.960 . S
C482 H468 0.960 . S
C482 H469 0.960 . S
C482 C481 1.524 . S
C483 C480 1.403 . S
C483 C484 1.392 . S
C483 C487 1.495 . S
C484 C483 1.392 . S
C484 C485 1.385 . S
C484 C486 1.478 . S
C485 H479 0.930 . S
C485 C481 1.400 . S
C485 C484 1.385 . S
C486 C484 1.478 . S
C486 C488 1.381 . S
C486 C492 1.383 . S
C487 C483 1.495 . S
C487 H493 0.959 . S
C487 H494 0.961 . S
C487 H495 0.960 . S
C488 C486 1.381 . S
C488 C489 1.394 . S
C488 H496 0.930 . S
C489 C488 1.394 . S
C489 C490 1.383 . S
C489 H497 0.929 . S
C490 C489 1.383 . S
C490 C491 1.377 . S
C491 H475 0.930 . S
C491 C490 1.377 . S
C491 C492 1.379 . S
C492 H476 0.931 . S
C492 C486 1.383 . S
C492 C491 1.379 . S
H493 C487 0.959 . S
H494 C487 0.961 . S
H495 C487 0.960 . S
H496 C488 0.930 . S
H497 C489 0.929 . S
H498 C506 0.929 . S
H499 C508 0.930 . S
H500 C510 0.930 . S
H501 C513 0.929 . S
H502 C516 0.930 . S
H503 C518 0.960 . S
H504 C518 0.960 . S
H505 C518 0.960 . S
C506 H498 0.929 . S
C506 C507 1.377 . S
C506 C508 1.384 . S
C507 C506 1.377 . S
C507 C513 1.390 . S
C508 H499 0.930 . S
C508 C506 1.384 . S
C508 C509 1.372 . S
C509 C508 1.372 . S
C509 C510 1.400 . S
C509 C514 1.490 . S
C510 H500 0.930 . S
C510 C509 1.400 . S
C510 C513 1.386 . S
H511 C527 0.930 . S
H512 C528 0.931 . S
C513 H501 0.929 . S
C513 C507 1.390 . S
C513 C510 1.386 . S
C514 C509 1.490 . S
C514 C516 1.395 . S
C514 C517 1.403 . S
H515 C521 0.930 . S
C516 H502 0.930 . S
C516 C514 1.395 . S
C516 C519 1.403 . S
C517 C514 1.403 . S
C517 C518 1.524 . S
C517 C521 1.400 . S
C518 H503 0.960 . S
C518 H504 0.960 . S
C518 H505 0.960 . S
C518 C517 1.524 . S
C519 C516 1.403 . S
C519 C520 1.392 . S
C519 C523 1.495 . S
C520 C519 1.392 . S
C520 C521 1.385 . S
C520 C522 1.478 . S
C521 H515 0.930 . S
C521 C517 1.400 . S
C521 C520 1.385 . S
C522 C520 1.478 . S
C522 C524 1.381 . S
C522 C528 1.383 . S
C523 C519 1.495 . S
C523 H529 0.959 . S
C523 H530 0.961 . S
C523 H531 0.960 . S
C524 C522 1.381 . S
C524 C525 1.394 . S
C524 H532 0.930 . S
C525 C524 1.394 . S
C525 C526 1.383 . S
C525 H533 0.929 . S
C526 C525 1.383 . S
C526 C527 1.377 . S
C527 H511 0.930 . S
C527 C526 1.377 . S
C527 C528 1.379 . S
C528 H512 0.931 . S
C528 C522 1.383 . S
C528 C527 1.379 . S
H529 C523 0.959 . S
H530 C523 0.961 . S
H531 C523 0.960 . S
H532 C524 0.930 . S
H533 C525 0.929 . S
H534 C542 0.929 . S
H535 C544 0.930 . S
H536 C546 0.930 . S
H537 C549 0.929 . S
H538 C552 0.930 . S
H539 C554 0.960 . S
H540 C554 0.960 . S
H541 C554 0.960 . S
C542 H534 0.929 . S
C542 C543 1.377 . S
C542 C544 1.384 . S
C543 C542 1.377 . S
C543 C549 1.390 . S
C544 H535 0.930 . S
C544 C542 1.384 . S
C544 C545 1.372 . S
C545 C544 1.372 . S
C545 C546 1.400 . S
C545 C550 1.490 . S
C546 H536 0.930 . S
C546 C545 1.400 . S
C546 C549 1.386 . S
H547 C563 0.930 . S
H548 C564 0.931 . S
C549 H537 0.929 . S
C549 C543 1.390 . S
C549 C546 1.386 . S
C550 C545 1.490 . S
C550 C552 1.395 . S
C550 C553 1.403 . S
H551 C557 0.930 . S
C552 H538 0.930 . S
C552 C550 1.395 . S
C552 C555 1.403 . S
C553 C550 1.403 . S
C553 C554 1.524 . S
C553 C557 1.400 . S
C554 H539 0.960 . S
C554 H540 0.960 . S
C554 H541 0.960 . S
C554 C553 1.524 . S
C555 C552 1.403 . S
C555 C556 1.392 . S
C555 C559 1.495 . S
C556 C555 1.392 . S
C556 C557 1.385 . S
C556 C558 1.478 . S
C557 H551 0.930 . S
C557 C553 1.400 . S
C557 C556 1.385 . S
C558 C556 1.478 . S
C558 C560 1.381 . S
C558 C564 1.383 . S
C559 C555 1.495 . S
C559 H565 0.959 . S
C559 H566 0.961 . S
C559 H567 0.960 . S
C560 C558 1.381 . S
C560 C561 1.394 . S
C560 H568 0.930 . S
C561 C560 1.394 . S
C561 C562 1.383 . S
C561 H569 0.929 . S
C562 C561 1.383 . S
C562 C563 1.377 . S
C563 H547 0.930 . S
C563 C562 1.377 . S
C563 C564 1.379 . S
C564 H548 0.931 . S
C564 C558 1.383 . S
C564 C563 1.379 . S
H565 C559 0.959 . S
H566 C559 0.961 . S
H567 C559 0.960 . S
H568 C560 0.930 . S
H569 C561 0.929 . S
H570 C578 0.929 . S
H571 C580 0.930 . S
H572 C582 0.930 . S
H573 C585 0.929 . S
H574 C588 0.930 . S
H575 C590 0.960 . S
H576 C590 0.960 . S
H577 C590 0.960 . S
C578 H570 0.929 . S
C578 C579 1.377 . S
C578 C580 1.384 . S
C579 C578 1.377 . S
C579 C585 1.390 . S
C580 H571 0.930 . S
C580 C578 1.384 . S
C580 C581 1.372 . S
C581 C580 1.372 . S
C581 C582 1.400 . S
C581 C586 1.490 . S
C582 H572 0.930 . S
C582 C581 1.400 . S
C582 C585 1.386 . S
H583 C599 0.930 . S
H584 C600 0.931 . S
C585 H573 0.929 . S
C585 C579 1.390 . S
C585 C582 1.386 . S
C586 C581 1.490 . S
C586 C588 1.395 . S
C586 C589 1.403 . S
H587 C593 0.930 . S
C588 H574 0.930 . S
C588 C586 1.395 . S
C588 C591 1.403 . S
C589 C586 1.403 . S
C589 C590 1.524 . S
C589 C593 1.400 . S
C590 H575 0.960 . S
C590 H576 0.960 . S
C590 H577 0.960 . S
C590 C589 1.524 . S
C591 C588 1.403 . S
C591 C592 1.392 . S
C591 C595 1.495 . S
C592 C591 1.392 . S
C592 C593 1.385 . S
C592 C594 1.478 . S
C593 H587 0.930 . S
C593 C589 1.400 . S
C593 C592 1.385 . S
C594 C592 1.478 . S
C594 C596 1.381 . S
C594 C600 1.383 . S
C595 C591 1.495 . S
C595 H601 0.959 . S
C595 H602 0.961 . S
C595 H603 0.960 . S
C596 C594 1.381 . S
C596 C597 1.394 . S
C596 H604 0.930 . S
C597 C596 1.394 . S
C597 C598 1.383 . S
C597 H605 0.929 . S
C598 C597 1.383 . S
C598 C599 1.377 . S
C599 H583 0.930 . S
C599 C598 1.377 . S
C599 C600 1.379 . S
C600 H584 0.931 . S
C600 C594 1.383 . S
C600 C599 1.379 . S
H601 C595 0.959 . S
H602 C595 0.961 . S
H603 C595 0.960 . S
H604 C596 0.930 . S
H605 C597 0.929 . S
H606 C614 0.929 . S
H607 C616 0.930 . S
H608 C618 0.930 . S
H609 C621 0.929 . S
H610 C624 0.930 . S
H611 C626 0.960 . S
H612 C626 0.960 . S
H613 C626 0.960 . S
C614 H606 0.929 . S
C614 C615 1.377 . S
C614 C616 1.384 . S
C615 C614 1.377 . S
C615 C621 1.390 . S
C616 H607 0.930 . S
C616 C614 1.384 . S
C616 C617 1.372 . S
C617 C616 1.372 . S
C617 C618 1.400 . S
C617 C622 1.490 . S
C618 H608 0.930 . S
C618 C617 1.400 . S
C618 C621 1.386 . S
H619 C635 0.930 . S
H620 C636 0.931 . S
C621 H609 0.929 . S
C621 C615 1.390 . S
C621 C618 1.386 . S
C622 C617 1.490 . S
C622 C624 1.395 . S
C622 C625 1.403 . S
H623 C629 0.930 . S
C624 H610 0.930 . S
C624 C622 1.395 . S
C624 C627 1.403 . S
C625 C622 1.403 . S
C625 C626 1.524 . S
C625 C629 1.400 . S
C626 H611 0.960 . S
C626 H612 0.960 . S
C626 H613 0.960 . S
C626 C625 1.524 . S
C627 C624 1.403 . S
C627 C628 1.392 . S
C627 C631 1.495 . S
C628 C627 1.392 . S
C628 C629 1.385 . S
C628 C630 1.478 . S
C629 H623 0.930 . S
C629 C625 1.400 . S
C629 C628 1.385 . S
C630 C628 1.478 . S
C630 C632 1.381 . S
C630 C636 1.383 . S
C631 C627 1.495 . S
C631 H637 0.959 . S
C631 H638 0.961 . S
C631 H639 0.960 . S
C632 C630 1.381 . S
C632 C633 1.394 . S
C632 H640 0.930 . S
C633 C632 1.394 . S
C633 C634 1.383 . S
C633 H641 0.929 . S
C634 C633 1.383 . S
C634 C635 1.377 . S
C635 H619 0.930 . S
C635 C634 1.377 . S
C635 C636 1.379 . S
C636 H620 0.931 . S
C636 C630 1.383 . S
C636 C635 1.379 . S
H637 C631 0.959 . S
H638 C631 0.961 . S
H639 C631 0.960 . S
H640 C632 0.930 . S
H641 C633 0.929 . S
C219 C58 1.159 . S
C238 C187 1.257 . S
C255 C151 1.520 . S
C274 C193 1.406 . S
C291 C56 1.587 . S
C310 C184 1.426 . S
C327 C153 1.183 . S
C346 C209 1.250 . S
C363 C74 1.564 . S
C382 C175 1.440 . S
C418 C192 1.509 . S
C399 C147 1.604 . S
C435 C142 1.173 . S
C454 C188 1.287 . S
C490 C205 1.482 . S
C471 C63 1.602 . S
C526 C172 1.458 . S
C507 C158 1.563 . S
C562 C208 1.281 . S
C543 C69 1.196 . S
C598 C171 1.447 . S
C579 C140 1.590 . S
C634 C196 1.348 . S
C615 C67 1.518 . S
