# Generated by pormake.
# Topology ocu, (6,8)-cn, num edge types: 1
# Building blocks:
#     Node 0, Type 0, BuildingBlock: MIFKUJ_clean_sbu_0, # of connection points: 6
#     Node 1, Type 0, BuildingBlock: MIFKUJ_clean_sbu_0, # of connection points: 6
#     Node 2, Type 0, BuildingBlock: MIFKUJ_clean_sbu_0, # of connection points: 6
#     Node 3, Type 0, BuildingBlock: MIFKUJ_clean_sbu_0, # of connection points: 6
#     Node 4, Type 0, BuildingBlock: MIFKUJ_clean_sbu_0, # of connection points: 6
#     Node 5, Type 0, BuildingBlock: MIFKUJ_clean_sbu_0, # of connection points: 6
#     Node 6, Type 0, BuildingBlock: MIFKUJ_clean_sbu_0, # of connection points: 6
#     Node 7, Type 0, BuildingBlock: MIFKUJ_clean_sbu_0, # of connection points: 6
#     Node 8, Type 1, BuildingBlock: GIZVER_clean_sbu_0, # of connection points: 8
#     Node 9, Type 1, BuildingBlock: GIZVER_clean_sbu_0, # of connection points: 8
#     Node 10, Type 1, BuildingBlock: GIZVER_clean_sbu_0, # of connection points: 8
#     Node 11, Type 1, BuildingBlock: GIZVER_clean_sbu_0, # of connection points: 8
#     Node 12, Type 1, BuildingBlock: GIZVER_clean_sbu_0, # of connection points: 8
#     Node 13, Type 1, BuildingBlock: GIZVER_clean_sbu_0, # of connection points: 8
#     Edge 14, Type (0, 1), BuildingBlock: EZIPEK_clean_linker_0, # of connection points: 2
#     Edge 15, Type (0, 1), BuildingBlock: EZIPEK_clean_linker_0, # of connection points: 2
#     Edge 16, Type (0, 1), BuildingBlock: EZIPEK_clean_linker_0, # of connection points: 2
#     Edge 17, Type (0, 1), BuildingBlock: EZIPEK_clean_linker_0, # of connection points: 2
#     Edge 18, Type (0, 1), BuildingBlock: EZIPEK_clean_linker_0, # of connection points: 2
#     Edge 19, Type (0, 1), BuildingBlock: EZIPEK_clean_linker_0, # of connection points: 2
#     Edge 20, Type (0, 1), BuildingBlock: EZIPEK_clean_linker_0, # of connection points: 2
#     Edge 21, Type (0, 1), BuildingBlock: EZIPEK_clean_linker_0, # of connection points: 2
#     Edge 22, Type (0, 1), BuildingBlock: EZIPEK_clean_linker_0, # of connection points: 2
#     Edge 23, Type (0, 1), BuildingBlock: EZIPEK_clean_linker_0, # of connection points: 2
#     Edge 24, Type (0, 1), BuildingBlock: EZIPEK_clean_linker_0, # of connection points: 2
#     Edge 25, Type (0, 1), BuildingBlock: EZIPEK_clean_linker_0, # of connection points: 2
#     Edge 26, Type (0, 1), BuildingBlock: EZIPEK_clean_linker_0, # of connection points: 2
#     Edge 27, Type (0, 1), BuildingBlock: EZIPEK_clean_linker_0, # of connection points: 2
#     Edge 28, Type (0, 1), BuildingBlock: EZIPEK_clean_linker_0, # of connection points: 2
#     Edge 29, Type (0, 1), BuildingBlock: EZIPEK_clean_linker_0, # of connection points: 2
#     Edge 30, Type (0, 1), BuildingBlock: EZIPEK_clean_linker_0, # of connection points: 2
#     Edge 31, Type (0, 1), BuildingBlock: EZIPEK_clean_linker_0, # of connection points: 2
#     Edge 32, Type (0, 1), BuildingBlock: EZIPEK_clean_linker_0, # of connection points: 2
#     Edge 33, Type (0, 1), BuildingBlock: EZIPEK_clean_linker_0, # of connection points: 2
#     Edge 34, Type (0, 1), BuildingBlock: EZIPEK_clean_linker_0, # of connection points: 2
#     Edge 35, Type (0, 1), BuildingBlock: EZIPEK_clean_linker_0, # of connection points: 2
#     Edge 36, Type (0, 1), BuildingBlock: EZIPEK_clean_linker_0, # of connection points: 2
#     Edge 37, Type (0, 1), BuildingBlock: EZIPEK_clean_linker_0, # of connection points: 2
#     Edge 38, Type (0, 1), BuildingBlock: EZIPEK_clean_linker_0, # of connection points: 2
#     Edge 39, Type (0, 1), BuildingBlock: EZIPEK_clean_linker_0, # of connection points: 2
#     Edge 40, Type (0, 1), BuildingBlock: EZIPEK_clean_linker_0, # of connection points: 2
#     Edge 41, Type (0, 1), BuildingBlock: EZIPEK_clean_linker_0, # of connection points: 2
#     Edge 42, Type (0, 1), BuildingBlock: EZIPEK_clean_linker_0, # of connection points: 2
#     Edge 43, Type (0, 1), BuildingBlock: EZIPEK_clean_linker_0, # of connection points: 2
#     Edge 44, Type (0, 1), BuildingBlock: EZIPEK_clean_linker_0, # of connection points: 2
#     Edge 45, Type (0, 1), BuildingBlock: EZIPEK_clean_linker_0, # of connection points: 2
#     Edge 46, Type (0, 1), BuildingBlock: EZIPEK_clean_linker_0, # of connection points: 2
#     Edge 47, Type (0, 1), BuildingBlock: EZIPEK_clean_linker_0, # of connection points: 2
#     Edge 48, Type (0, 1), BuildingBlock: EZIPEK_clean_linker_0, # of connection points: 2
#     Edge 49, Type (0, 1), BuildingBlock: EZIPEK_clean_linker_0, # of connection points: 2
#     Edge 50, Type (0, 1), BuildingBlock: EZIPEK_clean_linker_0, # of connection points: 2
#     Edge 51, Type (0, 1), BuildingBlock: EZIPEK_clean_linker_0, # of connection points: 2
#     Edge 52, Type (0, 1), BuildingBlock: EZIPEK_clean_linker_0, # of connection points: 2
#     Edge 53, Type (0, 1), BuildingBlock: EZIPEK_clean_linker_0, # of connection points: 2
#     Edge 54, Type (0, 1), BuildingBlock: EZIPEK_clean_linker_0, # of connection points: 2
#     Edge 55, Type (0, 1), BuildingBlock: EZIPEK_clean_linker_0, # of connection points: 2
#     Edge 56, Type (0, 1), BuildingBlock: EZIPEK_clean_linker_0, # of connection points: 2
#     Edge 57, Type (0, 1), BuildingBlock: EZIPEK_clean_linker_0, # of connection points: 2
#     Edge 58, Type (0, 1), BuildingBlock: EZIPEK_clean_linker_0, # of connection points: 2
#     Edge 59, Type (0, 1), BuildingBlock: EZIPEK_clean_linker_0, # of connection points: 2
#     Edge 60, Type (0, 1), BuildingBlock: EZIPEK_clean_linker_0, # of connection points: 2
#     Edge 61, Type (0, 1), BuildingBlock: EZIPEK_clean_linker_0, # of connection points: 2
# Relax obj value: 0.110
# Max RMSD: 0.215
# Mean RMSD: 0.161
data_MOF--net-ocu--node1-MIFKUJ_clean_sbu_0--node2-GIZVER_clean_sbu_0--edge1-EZIPEK_clean_linker_0
_symmetry_space_group_name_H-M    P1
_symmetry_Int_Tables_number       1
_symmetry_cell_setting            triclinic
loop_
_symmetry_equiv_pos_as_xyz
'x, y, z'
_cell_length_a     33.0762
_cell_length_b     35.241969
_cell_length_c     23.455338
_cell_angle_alpha  91.651568
_cell_angle_beta   95.883759
_cell_angle_gamma 111.94427
loop_
_atom_site_label
_atom_site_type_symbol
_atom_site_fract_x
_atom_site_fract_y
_atom_site_fract_z
_atom_type_partial_charge
Zn0 Zn 0.21665 0.28883 0.24812 0.0
Zn1 Zn 0.28783 0.21914 0.24446 0.0
C2 C 0.17245 0.33029 0.30817 0.0
O3 O 0.13891 0.29872 0.28298 0.0
C4 C 0.32732 0.18465 0.16644 0.0
O5 O 0.35665 0.22232 0.1748 0.0
O6 O 0.17137 0.28649 0.18098 0.0
O7 O 0.27813 0.31632 0.21471 0.0
O8 O 0.31671 0.27721 0.20882 0.0
C9 C 0.18144 0.31735 0.15083 0.0
O10 O 0.22132 0.34542 0.16213 0.0
O11 O 0.21129 0.33306 0.30203 0.0
C12 C 0.32446 0.19516 0.34977 0.0
O13 O 0.28459 0.18371 0.36427 0.0
O14 O 0.33387 0.21533 0.3056 0.0
O15 O 0.22737 0.1925 0.28047 0.0
O16 O 0.18989 0.23255 0.28874 0.0
O17 O 0.29105 0.17597 0.18721 0.0
C18 C 0.31203 0.31116 0.19976 0.0
C19 C 0.19445 0.1985 0.29745 0.0
Zn20 Zn 0.74152 0.29251 0.206 0.0
Zn21 Zn 0.748 0.21821 0.31643 0.0
C22 C 0.65829 0.30024 0.1815 0.0
O23 O 0.64643 0.26285 0.15803 0.0
C24 C 0.81572 0.19617 0.38738 0.0
O25 O 0.80776 0.21609 0.43024 0.0
O26 O 0.78016 0.32875 0.15603 0.0
O27 O 0.78758 0.30067 0.27339 0.0
O28 O 0.76651 0.27541 0.35287 0.0
C29 C 0.79691 0.36484 0.18003 0.0
O30 O 0.78248 0.3739 0.22651 0.0
O31 O 0.69561 0.31705 0.21151 0.0
C32 C 0.68376 0.1548 0.34098 0.0
O33 O 0.70753 0.13996 0.31295 0.0
O34 O 0.69858 0.19215 0.35777 0.0
O35 O 0.71669 0.19635 0.23306 0.0
O36 O 0.71367 0.23723 0.16551 0.0
O37 O 0.79542 0.19394 0.33732 0.0
C38 C 0.78403 0.30641 0.32567 0.0
C39 C 0.70485 0.20125 0.18117 0.0
Zn40 Zn 0.79586 0.72589 0.24175 0.0
Zn41 Zn 0.71041 0.7904 0.25521 0.0
C42 C 0.84039 0.71028 0.34526 0.0
O43 O 0.85967 0.75037 0.35264 0.0
C44 C 0.65807 0.80449 0.1635 0.0
O45 O 0.63374 0.7665 0.17211 0.0
O46 O 0.83353 0.71829 0.1835 0.0
O47 O 0.733 0.6991 0.2093 0.0
O48 O 0.68868 0.73263 0.22067 0.0
C49 C 0.82369 0.68114 0.16553 0.0
O50 O 0.78798 0.65274 0.17985 0.0
O51 O 0.80933 0.69383 0.30475 0.0
C52 C 0.6896 0.8274 0.35508 0.0
O53 O 0.73234 0.84306 0.369 0.0
O54 O 0.67297 0.80038 0.31311 0.0
O55 O 0.77415 0.81805 0.28453 0.0
O56 O 0.81759 0.78358 0.27352 0.0
O57 O 0.69607 0.8216 0.19156 0.0
C58 C 0.69538 0.70122 0.20363 0.0
C59 C 0.81163 0.81556 0.28923 0.0
Zn60 Zn 0.2108 0.77096 0.27425 0.0
Zn61 Zn 0.29297 0.74452 0.21632 0.0
C62 C 0.15345 0.6992 0.31335 0.0
O63 O 0.12788 0.70689 0.27252 0.0
C64 C 0.33418 0.80191 0.14574 0.0
O65 O 0.3649 0.7936 0.17655 0.0
O66 O 0.17326 0.80405 0.28572 0.0
O67 O 0.27166 0.80802 0.30285 0.0
O68 O 0.32307 0.78342 0.28839 0.0
C69 C 0.18281 0.82746 0.33155 0.0
O70 O 0.21642 0.82978 0.36848 0.0
O71 O 0.19276 0.72443 0.3257 0.0
C72 C 0.31401 0.68401 0.14935 0.0
O73 O 0.27629 0.67921 0.11979 0.0
O74 O 0.3284 0.70983 0.19325 0.0
O75 O 0.23132 0.70462 0.21728 0.0
O76 O 0.19708 0.74505 0.19361 0.0
O77 O 0.29441 0.78252 0.1529 0.0
C78 C 0.31086 0.81006 0.31141 0.0
C79 C 0.20047 0.71046 0.18708 0.0
Zn80 Zn 0.24609 0.78081 0.66888 0.0
Zn81 Zn 0.25648 0.70678 0.78942 0.0
C82 C 0.19851 0.83428 0.6526 0.0
O83 O 0.23788 0.86219 0.66839 0.0
C84 C 0.31719 0.67921 0.84015 0.0
O85 O 0.30628 0.69693 0.88273 0.0
O86 O 0.29459 0.81995 0.62602 0.0
O87 O 0.27768 0.7886 0.75162 0.0
O88 O 0.2891 0.76198 0.8313 0.0
C89 C 0.31682 0.83945 0.67215 0.0
O90 O 0.29626 0.82119 0.62184 0.0
O91 O 0.19278 0.79658 0.65372 0.0
C92 C 0.19353 0.63802 0.80826 0.0
O93 O 0.2086 0.62797 0.7631 0.0
O94 O 0.21219 0.67348 0.8337 0.0
O95 O 0.21818 0.70597 0.71519 0.0
O96 O 0.23239 0.72523 0.63089 0.0
O97 O 0.29988 0.67912 0.78901 0.0
C98 C 0.29701 0.79319 0.80268 0.0
C99 C 0.22016 0.69614 0.66337 0.0
Zn100 Zn 0.29299 0.221 0.73421 0.0
Zn101 Zn 0.21639 0.28847 0.75762 0.0
C102 C 0.34399 0.20028 0.82165 0.0
O103 O 0.37378 0.23419 0.80716 0.0
C104 C 0.16781 0.31311 0.67158 0.0
O105 O 0.1359 0.28662 0.69583 0.0
O106 O 0.32545 0.20661 0.67216 0.0
O107 O 0.22706 0.19556 0.7185 0.0
O108 O 0.18424 0.22881 0.7362 0.0
C109 C 0.31113 0.17 0.64963 0.0
O110 O 0.27174 0.14495 0.6577 0.0
O111 O 0.30449 0.18984 0.79928 0.0
C112 C 0.19531 0.34408 0.82677 0.0
O113 O 0.22048 0.36883 0.7929 0.0
O114 O 0.18929 0.30627 0.82173 0.0
O115 O 0.27947 0.30909 0.78522 0.0
O116 O 0.32492 0.27837 0.7675 0.0
O117 O 0.20718 0.31816 0.68902 0.0
C118 C 0.18907 0.19603 0.72135 0.0
C119 C 0.31745 0.3082 0.78855 0.0
Zn120 Zn 0.71617 0.2683 0.76719 0.0
Zn121 Zn 0.79796 0.24145 0.71852 0.0
C122 C 0.66305 0.20868 0.83332 0.0
O123 O 0.63765 0.22899 0.82059 0.0
C124 C 0.83852 0.29511 0.63278 0.0
O125 O 0.86383 0.27396 0.63838 0.0
O126 O 0.6818 0.3051 0.78341 0.0
O127 O 0.77974 0.30764 0.78485 0.0
O128 O 0.81765 0.26781 0.7981 0.0
C129 C 0.68441 0.31973 0.83482 0.0
O130 O 0.70767 0.30965 0.87613 0.0
O131 O 0.70226 0.22297 0.82117 0.0
C132 C 0.8186 0.17017 0.68984 0.0
O133 O 0.77843 0.14872 0.70013 0.0
O134 O 0.83439 0.20909 0.69862 0.0
O135 O 0.73878 0.20046 0.70617 0.0
O136 O 0.69321 0.23272 0.69059 0.0
O137 O 0.80634 0.28571 0.66219 0.0
C138 C 0.81164 0.30045 0.81038 0.0
C139 C 0.70227 0.20062 0.68501 0.0
Zn140 Zn 0.72477 0.78662 0.76121 0.0
Zn141 Zn 0.78498 0.71494 0.7345 0.0
C142 C 0.71072 0.85569 0.80651 0.0
O143 O 0.71481 0.86621 0.75352 0.0
C144 C 0.82909 0.67941 0.66665 0.0
O145 O 0.86164 0.71129 0.69314 0.0
O146 O 0.67741 0.78827 0.7004 0.0
O147 O 0.78424 0.81766 0.72513 0.0
O148 O 0.81455 0.77416 0.70209 0.0
C149 C 0.68477 0.80031 0.65055 0.0
O150 O 0.72366 0.8064 0.63531 0.0
O151 O 0.72055 0.82575 0.82275 0.0
C152 C 0.81745 0.67654 0.82019 0.0
O153 O 0.7798 0.64761 0.79956 0.0
O154 O 0.82786 0.71164 0.80018 0.0
O155 O 0.7245 0.68464 0.76812 0.0
O156 O 0.69636 0.72866 0.79662 0.0
O157 O 0.78988 0.67469 0.67381 0.0
C158 C 0.81408 0.81043 0.70138 0.0
C159 C 0.69619 0.69225 0.79471 0.0
Co160 Co 0.04128 0.93427 0.46146 0.0
Co161 Co 0.04321 0.94744 0.56874 0.0
Co162 Co 0.00399 0.00713 0.50073 0.0
O163 O 0.04865 0.98159 0.50953 0.0
H164 H 0.07825 1.0016 0.51174 0.0
O165 O 0.95915 0.0324 0.49082 0.0
Co166 Co 0.96389 0.07959 0.53738 0.0
Co167 Co 0.96474 0.06598 0.42996 0.0
H168 H 0.92977 0.01169 0.48707 0.0
O169 O 0.0928 0.94612 0.60733 0.0
O170 O 0.0493 0.9037 0.53131 0.0
O171 O 0.98934 0.92695 0.60168 0.0
O172 O 0.95816 0.96318 0.54952 0.0
O173 O 0.03366 0.04242 0.57198 0.0
O174 O 0.96379 0.1213 0.58097 0.0
O175 O 0.90619 0.06547 0.54139 0.0
O176 O 0.02612 0.09925 0.54315 0.0
O177 O 0.05031 0.05078 0.4528 0.0
O178 O 0.01904 0.0854 0.39741 0.0
O179 O 0.95852 0.10989 0.46686 0.0
O180 O 0.91534 0.06857 0.39032 0.0
C181 C 0.08066 0.9117 0.42218 0.0
C182 C 0.95915 0.93315 0.43015 0.0
C183 C 0.95581 0.93491 0.58599 0.0
C184 C 0.08279 0.914 0.572 0.0
C185 C 0.92193 0.09985 0.57356 0.0
C186 C 0.04587 0.0813 0.57534 0.0
C187 C 0.0526 0.07788 0.41468 0.0
C188 C 0.92497 0.10019 0.42649 0.0
O189 O 0.03834 0.89245 0.41562 0.0
O190 O 0.09818 0.94669 0.453 0.0
O191 O 0.97376 0.97194 0.42946 0.0
O192 O 0.97982 0.91554 0.46104 0.0
Co193 Co 0.54749 0.93315 0.94274 0.0
Co194 Co 0.54842 0.94812 0.05082 0.0
Co195 Co 0.50118 1.00076 0.98549 0.0
O196 O 0.54728 0.9777 0.9892 0.0
H197 H 0.57592 0.99954 0.99264 0.0
O198 O 0.45499 0.02466 0.98287 0.0
Co199 Co 0.45485 0.06803 0.03469 0.0
Co200 Co 0.46178 0.06284 0.9312 0.0
H201 H 0.42586 0.00377 0.9746 0.0
O202 O 0.59965 0.94744 0.08491 0.0
O203 O 0.55194 0.90283 0.01371 0.0
O204 O 0.49796 0.93002 0.09066 0.0
O205 O 0.46212 0.96004 0.0347 0.0
O206 O 0.53765 0.03972 0.0529 0.0
O207 O 0.45016 0.10567 0.08163 0.0
O208 O 0.39555 0.05019 0.03655 0.0
O209 O 0.51703 0.09266 0.04245 0.0
O210 O 0.54064 0.03876 0.93386 0.0
O211 O 0.51515 0.08484 0.90096 0.0
O212 O 0.44961 0.10171 0.96926 0.0
O213 O 0.41516 0.06212 0.8866 0.0
C214 C 0.59497 0.91725 0.912 0.0
C215 C 0.45614 0.92362 0.91235 0.0
C216 C 0.46295 0.93451 0.07183 0.0
C217 C 0.5853 0.91263 0.05433 0.0
C218 C 0.40845 0.08366 0.07068 0.0
C219 C 0.54608 0.07833 0.05876 0.0
C220 C 0.54457 0.07012 0.90609 0.0
C221 C 0.42111 0.09298 0.92286 0.0
O222 O 0.55363 0.89415 0.89914 0.0
O223 O 0.6062 0.95102 0.94473 0.0
O224 O 0.46492 0.96223 0.91757 0.0
O225 O 0.48428 0.90876 0.93141 0.0
Co226 Co 0.04734 0.43393 0.97529 0.0
Co227 Co 0.03773 0.44325 0.07869 0.0
Co228 Co 0.00449 0.50699 0.00892 0.0
O229 O 0.04786 0.47964 0.02308 0.0
H230 H 0.0774 0.49994 0.03114 0.0
O231 O 0.96239 0.53489 0.99566 0.0
Co232 Co 0.97581 0.59049 0.02024 0.0
Co233 Co 0.95459 0.55073 0.92343 0.0
H234 H 0.93374 0.51812 0.00522 0.0
O235 O 0.08413 0.43819 0.12454 0.0
O236 O 0.04645 0.40065 0.04254 0.0
O237 O 0.98058 0.42767 0.10121 0.0
O238 O 0.96988 0.48355 0.07275 0.0
O239 O 0.04541 0.55322 0.06224 0.0
O240 O 0.97972 0.64129 0.04864 0.0
O241 O 0.92362 0.58139 0.04713 0.0
O242 O 1.00146 0.58219 0.09257 0.0
O243 O 0.03846 0.53129 0.94592 0.0
O244 O 0.00453 0.56039 0.88398 0.0
O245 O 0.95343 0.60137 0.94398 0.0
O246 O 0.90003 0.54876 0.89062 0.0
C247 C 0.09347 0.41545 0.94534 0.0
C248 C 0.95706 0.42407 0.94887 0.0
C249 C 0.95786 0.4498 0.09629 0.0
C250 C 0.07656 0.40803 0.08648 0.0
C251 C 0.94023 0.6205 0.05999 0.0
C252 C 0.03868 0.57891 0.09538 0.0
C253 C 0.03703 0.55118 0.90199 0.0
C254 C 0.91513 0.58611 0.91362 0.0
O255 O 0.05177 0.3949 0.93088 0.0
O256 O 0.10614 0.44923 0.97861 0.0
O257 O 0.96307 0.46182 0.95409 0.0
O258 O 0.98644 0.41071 0.9654 0.0
Co259 Co 0.54781 0.43135 0.96541 0.0
Co260 Co 0.54287 0.44188 0.06811 0.0
Co261 Co 0.50546 0.50285 -0.00018 0.0
O262 O 0.55104 0.47822 0.01283 0.0
H263 H 0.58043 0.49896 0.01832 0.0
O264 O 0.4597 0.52736 0.98657 0.0
Co265 Co 0.46159 0.57566 0.03007 0.0
Co266 Co 0.46788 0.56062 0.92648 0.0
H267 H 0.43041 0.50646 0.98188 0.0
O268 O 0.5897 0.44319 0.11518 0.0
O269 O 0.55477 0.40023 0.03491 0.0
O270 O 0.48728 0.42117 0.09636 0.0
O271 O 0.4598 0.4632 0.05269 0.0
O272 O 0.53584 0.54286 0.06657 0.0
O273 O 0.4595 0.61813 0.07063 0.0
O274 O 0.40256 0.56212 0.03133 0.0
O275 O 0.52354 0.59672 0.03688 0.0
O276 O 0.55138 0.54236 0.94715 0.0
O277 O 0.52268 0.58093 0.897 0.0
O278 O 0.45744 0.60348 0.95708 0.0
O279 O 0.42007 0.55792 0.8806 0.0
C280 C 0.59109 0.41373 0.9235 0.0
C281 C 0.46077 0.42473 0.93799 0.0
C282 C 0.4558 0.43304 0.08609 0.0
C283 C 0.58209 0.4101 0.08274 0.0
C284 C 0.4174 0.59786 0.06067 0.0
C285 C 0.54942 0.58126 0.06131 0.0
C286 C 0.55488 0.57066 0.91068 0.0
C287 C 0.42666 0.59082 0.91289 0.0
O288 O 0.54953 0.39088 0.92019 0.0
O289 O 0.60584 0.44726 0.95769 0.0
O290 O 0.4751 0.46312 0.93286 0.0
O291 O 0.48608 0.40894 0.9631 0.0
Co292 Co 0.07881 0.46328 0.51801 0.0
Co293 Co 0.05136 0.46234 0.41312 0.0
Co294 Co 1.0004 0.50311 0.4907 0.0
O295 O 0.02527 0.46073 0.47835 0.0
H296 H 0.00316 0.43367 0.47958 0.0
O297 O 0.97469 0.54505 0.50257 0.0
Co298 Co 0.92095 0.54298 0.46136 0.0
Co299 Co 0.94603 0.54033 0.56656 0.0
H300 H 0.99643 0.57249 0.50412 0.0
O301 O 0.05361 0.41612 0.37806 0.0
O302 O 0.10489 0.46098 0.44417 0.0
O303 O 0.06256 0.51109 0.37324 0.0
O304 O 0.03793 0.54158 0.43866 0.0
O305 O 0.95361 0.47489 0.42522 0.0
O306 O 0.8733 0.5472 0.42242 0.0
O307 O 0.93783 0.597 0.45766 0.0
O308 O 0.89699 0.48388 0.45749 0.0
O309 O 0.96353 0.46333 0.54293 0.0
O310 O 0.92966 0.48922 0.6001 0.0
O311 O 0.89615 0.54697 0.53514 0.0
O312 O 0.94789 0.58636 0.60645 0.0
C313 C 0.10045 0.42091 0.55179 0.0
C314 C 0.08907 0.54383 0.55145 0.0
C315 C 0.05904 0.5427 0.39571 0.0
C316 C 0.09358 0.43116 0.40401 0.0
C317 C 0.89827 0.58592 0.43088 0.0
C318 C 0.91244 0.46234 0.42828 0.0
C319 C 0.93938 0.45965 0.58326 0.0
C320 C 0.9105 0.57752 0.5748 0.0
O321 O 0.12544 0.45971 0.55659 0.0
O322 O 0.06162 0.40878 0.52257 0.0
O323 O 0.04799 0.53279 0.55583 0.0
O324 O 0.10297 0.52168 0.52134 0.0
Co325 Co 0.58383 0.95735 0.5487 0.0
Co326 Co 0.54231 0.94237 0.44509 0.0
Co327 Co 0.50604 0.99939 0.51263 0.0
O328 O 0.52813 0.9543 0.51507 0.0
H329 H 0.50627 0.92924 0.52513 0.0
O330 O 0.48306 0.04454 0.51084 0.0
Co331 Co 0.43219 0.04545 0.46421 0.0
Co332 Co 0.45201 0.04728 0.56983 0.0
H333 H 0.50706 0.07071 0.51107 0.0
O334 O 0.53907 0.89132 0.42245 0.0
O335 O 0.59785 0.94369 0.46987 0.0
O336 O 0.54602 0.98067 0.38767 0.0
O337 O 0.54016 0.0263 0.45056 0.0
O338 O 0.45815 0.96432 0.45499 0.0
O339 O 0.38893 0.0523 0.42053 0.0
O340 O 0.45302 0.10047 0.45975 0.0
O341 O 0.40381 0.98702 0.46041 0.0
O342 O 0.47398 0.97149 0.57514 0.0
O343 O 0.43446 1.00148 0.61438 0.0
O344 O 0.40217 0.05046 0.53328 0.0
O345 O 0.45344 0.09634 0.59835 0.0
C346 C 0.60827 0.91546 0.57965 0.0
C347 C 0.59488 0.04329 0.5657 0.0
C348 C 0.5505 0.01685 0.40301 0.0
C349 C 0.58083 0.90787 0.44029 0.0
C350 C 0.41479 0.09084 0.42948 0.0
C351 C 0.41787 0.95928 0.44698 0.0
C352 C 0.44731 0.97212 0.60945 0.0
C353 C 0.4137 0.08157 0.57148 0.0
O354 O 0.63376 0.9541 0.58179 0.0
O355 O 0.56683 0.90399 0.56016 0.0
O356 O 0.55447 0.03425 0.56999 0.0
O357 O 0.60905 0.01717 0.54464 0.0
C358 C 0.12712 0.12998 0.2982 0.0
C359 C 0.16079 0.165 0.32908 0.0
C360 C 0.12793 0.13921 0.41908 0.0
C361 C 0.09489 0.10357 0.38845 0.0
N362 N 0.06866 0.0623 0.29926 0.0
N363 N 0.19733 0.19804 0.42145 0.0
C364 C 0.09646 0.09834 0.32812 0.0
C365 C 0.16231 0.16794 0.39028 0.0
N366 N 0.12326 0.12765 0.23954 0.0
N367 N 0.12526 0.14693 0.4756 0.0
H368 H 0.22214 0.21978 0.40227 0.0
H369 H 0.20371 0.19953 0.46603 0.0
H370 H 0.1018 0.12651 0.49791 0.0
H371 H 0.1443 0.17437 0.49932 0.0
H372 H 0.09686 0.10606 0.21345 0.0
H373 H 0.14515 0.14933 0.21658 0.0
H374 H 0.0701 0.05397 0.25682 0.0
H375 H 0.04656 0.03886 0.31969 0.0
C376 C 0.82796 0.13444 0.42426 0.0
C377 C 0.84452 0.17245 0.39881 0.0
C378 C 0.91607 0.16572 0.39869 0.0
C379 C 0.89804 0.12595 0.41915 0.0
N380 N 0.83465 0.06974 0.44316 0.0
N381 N 0.9028 0.22292 0.35653 0.0
C382 C 0.85336 0.10956 0.42956 0.0
C383 C 0.88823 0.18777 0.38464 0.0
N384 N 0.78802 0.12229 0.44429 0.0
N385 N 0.95981 0.18245 0.39273 0.0
H386 H 0.88366 0.24012 0.34667 0.0
H387 H 0.93252 0.23366 0.33939 0.0
H388 H 0.98065 0.16652 0.39951 0.0
H389 H 0.97622 0.21294 0.38457 0.0
H390 H 0.7765 0.0978 0.46998 0.0
H391 H 0.76776 0.13878 0.43901 0.0
H392 H 0.80106 0.05458 0.44441 0.0
H393 H 0.85199 0.05054 0.44891 0.0
C394 C 0.84628 0.8556 0.38205 0.0
C395 C 0.84855 0.84826 0.32307 0.0
C396 C 0.92412 0.89835 0.3331 0.0
C397 C 0.92005 0.90786 0.39087 0.0
N398 N 0.87219 0.90579 0.46255 0.0
N399 N 0.88643 0.86653 0.23937 0.0
C400 C 0.87959 0.8896 0.4131 0.0
C401 C 0.88657 0.87087 0.29749 0.0
N402 N 0.81369 0.82906 0.40934 0.0
N403 N 0.96394 0.91468 0.31288 0.0
H404 H 0.85935 0.8465 0.21229 0.0
H405 H 0.91165 0.88504 0.21753 0.0
H406 H 0.99173 0.93599 0.33731 0.0
H407 H 0.97006 0.90534 0.27324 0.0
H408 H 0.81357 0.83127 0.45375 0.0
H409 H 0.78933 0.80255 0.38868 0.0
H410 H 0.84194 0.89501 0.47854 0.0
H411 H 0.89425 0.93352 0.4825 0.0
C412 C 0.17051 0.89292 0.34886 0.0
C413 C 0.15458 0.84945 0.34668 0.0
C414 C 0.09555 0.84841 0.40139 0.0
C415 C 0.10799 0.89144 0.39808 0.0
N416 N 0.15218 0.95317 0.35663 0.0
N417 N 0.09412 0.78593 0.35514 0.0
C418 C 0.1442 0.91349 0.3686 0.0
C419 C 0.11448 0.82722 0.36763 0.0
N420 N 0.21055 0.91452 0.33186 0.0
N421 N 0.0677 0.82787 0.43928 0.0
H422 H 0.10606 0.7697 0.32814 0.0
H423 H 0.06287 0.76901 0.36583 0.0
H424 H 0.05586 0.84248 0.46884 0.0
H425 H 0.06097 0.79715 0.44638 0.0
H426 H 0.22599 0.9463 0.33863 0.0
H427 H 0.22941 0.90035 0.31394 0.0
H428 H 0.17563 0.96926 0.33056 0.0
H429 H 0.13249 0.96874 0.36764 0.0
C430 C 0.17498 0.87378 0.57889 0.0
C431 C 0.16396 0.84716 0.62384 0.0
C432 C 0.09268 0.85446 0.61934 0.0
C433 C 0.10797 0.88726 0.58317 0.0
N434 N 0.16845 0.93354 0.53853 0.0
N435 N 0.1125 0.81281 0.68923 0.0
C436 C 0.15026 0.89821 0.56512 0.0
C437 C 0.12245 0.837 0.64416 0.0
N438 N 0.20895 0.87559 0.54906 0.0
N439 N 0.05013 0.84072 0.63099 0.0
H440 H 0.13339 0.79955 0.70832 0.0
H441 H 0.08498 0.80816 0.71026 0.0
H442 H 0.02798 0.85353 0.61454 0.0
H443 H 0.03588 0.81461 0.65286 0.0
H444 H 0.21563 0.89178 0.51238 0.0
H445 H 0.227 0.8571 0.55701 0.0
H446 H 0.2007 0.94432 0.52875 0.0
H447 H 0.15336 0.95451 0.53263 0.0
C448 C 0.15455 0.12542 0.67129 0.0
C449 C 0.1493 0.15841 0.70104 0.0
C450 C 0.07087 0.12772 0.66562 0.0
C451 C 0.08077 0.10548 0.62141 0.0
N452 N 0.13387 0.08286 0.58298 0.0
N453 N 0.09787 0.18243 0.74132 0.0
C454 C 0.12303 0.10379 0.62472 0.0
C455 C 0.10594 0.15717 0.70276 0.0
N456 N 0.18731 0.11261 0.69027 0.0
N457 N 0.02823 0.11806 0.67504 0.0
H458 H 0.12018 0.1975 0.77715 0.0
H459 H 0.06862 0.18739 0.73843 0.0
H460 H 0.0027 0.093 0.65294 0.0
H461 H 0.01878 0.13113 0.70905 0.0
H462 H 0.19009 0.08649 0.67197 0.0
H463 H 0.20729 0.1245 0.72912 0.0
H464 H 0.16574 0.08385 0.58226 0.0
H465 H 0.11227 0.06809 0.54657 0.0
C466 C 0.85105 0.11637 0.68128 0.0
C467 C 0.8425 0.14992 0.6587 0.0
C468 C 0.88749 0.15152 0.58213 0.0
C469 C 0.89276 0.11563 0.6011 0.0
N470 N 0.87509 0.06031 0.66428 0.0
N471 N 0.84014 0.18956 0.57695 0.0
C472 C 0.87271 0.09663 0.64899 0.0
C473 C 0.85703 0.16464 0.60593 0.0
N474 N 0.8406 0.10479 0.73469 0.0
N475 N 0.91226 0.17393 0.54267 0.0
H476 H 0.81529 0.19758 0.59102 0.0
H477 H 0.84702 0.1981 0.53576 0.0
H478 H 0.9358 0.1661 0.52465 0.0
H479 H 0.91224 0.20242 0.53192 0.0
H480 H 0.85021 0.08344 0.75597 0.0
H481 H 0.82548 0.11904 0.76003 0.0
H482 H 0.85718 0.0429 0.69491 0.0
H483 H 0.89263 0.04604 0.64357 0.0
C484 C 0.86848 0.88634 0.691 0.0
C485 C 0.84728 0.8442 0.66873 0.0
C486 C 0.89371 0.86325 0.5882 0.0
C487 C 0.91287 0.90582 0.6081 0.0
N488 N 0.91107 0.95798 0.67444 0.0
N489 N 0.83206 0.79793 0.58439 0.0
C490 C 0.89751 0.91725 0.65799 0.0
C491 C 0.85779 0.83439 0.61398 0.0
N492 N 0.86342 0.89675 0.74557 0.0
N493 N 0.91063 0.84948 0.54514 0.0
H494 H 0.80417 0.77705 0.59917 0.0
H495 H 0.83517 0.79067 0.5421 0.0
H496 H 0.93539 0.86895 0.52377 0.0
H497 H 0.90238 0.81846 0.53376 0.0
H498 H 0.88109 0.9255 0.76674 0.0
H499 H 0.8449 0.87552 0.77209 0.0
H500 H 0.89814 0.96933 0.70648 0.0
H501 H 0.93232 0.98064 0.65198 0.0
C502 C 0.32174 0.12919 0.09186 0.0
C503 C 0.34106 0.15155 0.14546 0.0
C504 C 0.39099 0.11458 0.15646 0.0
C505 C 0.37768 0.09833 0.09859 0.0
N506 N 0.32929 0.08944 0.01057 0.0
N507 N 0.3951 0.16638 0.22917 0.0
C508 C 0.34206 0.10465 0.06641 0.0
C509 C 0.37583 0.14428 0.17804 0.0
N510 N 0.28437 0.13191 0.06489 0.0
N511 N 0.41814 0.10111 0.1908 0.0
H512 H 0.38326 0.18632 0.24881 0.0
H513 H 0.42415 0.16653 0.25113 0.0
H514 H 0.42724 0.07732 0.17702 0.0
H515 H 0.42846 0.11048 0.23406 0.0
H516 H 0.26595 0.11321 0.0288 0.0
H517 H 0.26977 0.15082 0.08118 0.0
H518 H 0.30841 0.09804 0.98226 0.0
H519 H 0.34085 0.06916 0.99166 0.0
C520 C 0.87791 0.40206 0.19786 0.0
C521 C 0.83753 0.39359 0.1627 0.0
C522 C 0.876 0.42826 0.08523 0.0
C523 C 0.91643 0.43679 0.12083 0.0
N524 N 0.95504 0.44489 0.21593 0.0
N525 N 0.79716 0.40766 0.08033 0.0
C526 C 0.91706 0.42819 0.17899 0.0
C527 C 0.83626 0.40985 0.10876 0.0
N528 N 0.87944 0.38271 0.24697 0.0
N529 N 0.87519 0.43522 0.02834 0.0
H530 H 0.76754 0.3946 0.09744 0.0
H531 H 0.79457 0.42231 0.04298 0.0
H532 H 0.90328 0.44936 0.00926 0.0
H533 H 0.84678 0.42425 -0.00094 0.0
H534 H 0.90864 0.38413 0.27017 0.0
H535 H 0.85153 0.36193 0.26105 0.0
H536 H 0.9562 0.44239 0.2602 0.0
H537 H 0.98434 0.46493 0.20302 0.0
C538 C 0.65863 0.85265 0.08674 0.0
C539 C 0.63789 0.82962 0.13137 0.0
C540 C 0.57771 0.8538 0.11406 0.0
C541 C 0.60142 0.88113 0.07515 0.0
N542 N 0.66873 0.91231 0.03289 0.0
N543 N 0.5832 0.81659 0.19727 0.0
C544 C 0.64313 0.88221 0.06371 0.0
C545 C 0.59867 0.83207 0.14749 0.0
N546 N 0.6925 0.8458 0.0657 0.0
N547 N 0.53557 0.84925 0.12033 0.0
H548 H 0.59903 0.80287 0.2256 0.0
H549 H 0.55746 0.8216 0.21394 0.0
H550 H 0.51943 0.8657 0.09823 0.0
H551 H 0.5154 0.82651 0.14363 0.0
H552 H 0.70586 0.85885 0.02924 0.0
H553 H 0.70433 0.824 0.08134 0.0
H554 H 0.70109 0.91671 0.02791 0.0
H555 H 0.65895 0.93511 0.01657 0.0
C556 C 0.15057 0.63487 0.17599 0.0
C557 C 0.16232 0.67509 0.15651 0.0
C558 C 0.0939 0.65006 0.09012 0.0
C559 C 0.07848 0.61385 0.12022 0.0
N560 N 0.09088 0.57393 0.19677 0.0
N561 N 0.14693 0.71907 0.08746 0.0
C562 C 0.10632 0.60718 0.16513 0.0
C563 C 0.13418 0.68227 0.11173 0.0
N564 N 0.18169 0.62121 0.19938 0.0
N565 N 0.07224 0.65231 0.03824 0.0
H566 H 0.17928 0.74022 0.09296 0.0
H567 H 0.12525 0.72853 0.06192 0.0
H568 H 0.0448 0.62812 0.01827 0.0
H569 H 0.08422 0.67606 0.01152 0.0
H570 H 0.17417 0.59106 0.21024 0.0
H571 H 0.21517 0.63714 0.19899 0.0
H572 H 0.10913 0.56987 0.2334 0.0
H573 H 0.05851 0.55276 0.18953 0.0
C574 C 0.37786 0.83636 0.80675 0.0
C575 C 0.33621 0.83086 0.82414 0.0
C576 C 0.37217 0.88864 0.89712 0.0
C577 C 0.41385 0.89497 0.87855 0.0
N578 N 0.4535 0.88221 0.80451 0.0
N579 N 0.2925 0.85614 0.8781 0.0
C580 C 0.41576 0.87098 0.82995 0.0
C581 C 0.33307 0.85845 0.86694 0.0
N582 N 0.38168 0.80761 0.76962 0.0
N583 N 0.36992 0.91001 0.94523 0.0
H584 H 0.2635 0.83425 0.85692 0.0
H585 H 0.28745 0.8779 0.90432 0.0
H586 H 0.39702 0.93349 0.9667 0.0
H587 H 0.34184 0.90291 0.96584 0.0
H588 H 0.4118 0.80743 0.76061 0.0
H589 H 0.35482 0.78226 0.75066 0.0
H590 H 0.45551 0.86871 0.76535 0.0
H591 H 0.48142 0.90803 0.81929 0.0
C592 C 0.19277 0.40227 0.88923 0.0
C593 C 0.17267 0.36053 0.86712 0.0
C594 C 0.11067 0.35435 0.91928 0.0
C595 C 0.1248 0.39775 0.92626 0.0
N596 N 0.17974 0.46384 0.91001 0.0
N597 N 0.10566 0.29892 0.85366 0.0
C598 C 0.16626 0.42218 0.90972 0.0
C599 C 0.12989 0.33677 0.88049 0.0
N600 N 0.23714 0.42269 0.89211 0.0
N601 N 0.07916 0.32973 0.9498 0.0
H602 H 0.11523 0.28575 0.81998 0.0
H603 H 0.07305 0.2828 0.86003 0.0
H604 H 0.06603 0.34137 0.98136 0.0
H605 H 0.07053 0.29804 0.94875 0.0
H606 H 0.25331 0.45224 0.91171 0.0
H607 H 0.25809 0.40819 0.88202 0.0
H608 H 0.20814 0.48187 0.8931 0.0
H609 H 0.16084 0.48009 0.92125 0.0
C610 C 0.60555 0.13937 0.80485 0.0
C611 C 0.64192 0.16496 0.84422 0.0
C612 C 0.6255 0.11189 0.91285 0.0
C613 C 0.58451 0.09131 0.87875 0.0
N614 N 0.54414 0.07373 0.785 0.0
N615 N 0.69441 0.17157 0.92682 0.0
C616 C 0.57782 0.10112 0.82177 0.0
C617 C 0.655 0.14953 0.89505 0.0
N618 N 0.59698 0.15239 0.75226 0.0
N619 N 0.63497 0.09628 0.9628 0.0
H620 H 0.71592 0.19958 0.91519 0.0
H621 H 0.70687 0.16207 0.96375 0.0
H622 H 0.61463 0.06804 0.97497 0.0
H623 H 0.66317 0.11021 0.99168 0.0
H624 H 0.56858 0.13747 0.724 0.0
H625 H 0.61859 0.17878 0.73666 0.0
H626 H 0.53814 0.0772 0.74144 0.0
H627 H 0.52418 0.04537 0.79794 0.0
C628 C 0.89216 0.67461 0.84873 0.0
C629 C 0.8483 0.66492 0.85995 0.0
C630 C 0.85198 0.60884 0.91739 0.0
C631 C 0.89254 0.61396 0.89704 0.0
N632 N 0.94999 0.64937 0.83944 0.0
N633 N 0.79253 0.63367 0.92053 0.0
C634 C 0.91266 0.64659 0.86238 0.0
C635 C 0.83012 0.63526 0.89941 0.0
N636 N 0.91486 0.7111 0.82722 0.0
N637 N 0.83414 0.57817 0.95256 0.0
H638 H 0.77795 0.65463 0.91001 0.0
H639 H 0.7776 0.61433 0.95132 0.0
H640 H 0.84994 0.55906 0.9674 0.0
H641 H 0.8033 0.57055 0.96609 0.0
H642 H 0.94813 0.72106 0.82256 0.0
H643 H 0.90259 0.73416 0.82215 0.0
H644 H 0.96302 0.66942 0.80832 0.0
H645 H 0.96582 0.62907 0.84722 0.0
C646 C 0.16367 0.36276 0.08255 0.0
C647 C 0.14756 0.32862 0.11564 0.0
C648 C 0.07871 0.34043 0.11514 0.0
C649 C 0.10019 0.37992 0.09532 0.0
N650 N 0.16626 0.43087 0.06774 0.0
N651 N 0.08453 0.27819 0.1503 0.0
C652 C 0.14342 0.39163 0.08058 0.0
C653 C 0.10314 0.31499 0.12739 0.0
N654 N 0.19853 0.36739 0.05318 0.0
N655 N 0.03524 0.32753 0.12244 0.0
H656 H 0.09767 0.25559 0.14871 0.0
H657 H 0.05541 0.26934 0.1688 0.0
H658 H 0.01714 0.34611 0.11648 0.0
H659 H 0.01632 0.29792 0.13177 0.0
H660 H 0.20979 0.39024 0.02481 0.0
H661 H 0.21215 0.34505 0.05223 0.0
H662 H 0.19921 0.44138 0.06099 0.0
H663 H 0.15378 0.45393 0.0699 0.0
C664 C 0.15717 0.60307 0.8881 0.0
C665 C 0.15484 0.60898 0.82901 0.0
C666 C 0.07682 0.56674 0.81609 0.0
C667 C 0.07773 0.56868 0.87642 0.0
N668 N 0.11875 0.59784 0.97011 0.0
N669 N 0.11094 0.60218 0.73714 0.0
C670 C 0.11795 0.58882 0.91286 0.0
C671 C 0.11441 0.59193 0.79256 0.0
N672 N 0.19673 0.61205 0.92071 0.0
N673 N 0.04048 0.541 0.78155 0.0
H674 H 0.13711 0.62297 0.71942 0.0
H675 H 0.08106 0.59342 0.71092 0.0
H676 H 0.01265 0.52114 0.79782 0.0
H677 H 0.03994 0.53632 0.73734 0.0
H678 H 0.19942 0.60475 0.96335 0.0
H679 H 0.2265 0.62274 0.90347 0.0
H680 H 0.1473 0.61577 0.99656 0.0
H681 H 0.09059 0.5924 0.98964 0.0
C682 C 0.34057 0.12881 0.84008 0.0
C683 C 0.35817 0.17171 0.85565 0.0
C684 C 0.4179 0.16383 0.91792 0.0
C685 C 0.39769 0.12045 0.90683 0.0
N686 N 0.33053 0.06236 0.87337 0.0
N687 N 0.40485 0.22664 0.92492 0.0
C688 C 0.35582 0.10318 0.87359 0.0
C689 C 0.39373 0.18802 0.90011 0.0
N690 N 0.31237 0.11231 0.791 0.0
N691 N 0.461 0.18279 0.9403 0.0
H692 H 0.38697 0.24478 0.91402 0.0
H693 H 0.42847 0.23839 0.96065 0.0
H694 H 0.48254 0.16777 0.94771 0.0
H695 H 0.47706 0.21461 0.9442 0.0
H696 H 0.30271 0.08161 0.77637 0.0
H697 H 0.30306 0.12938 0.76081 0.0
H698 H 0.29837 0.04965 0.85298 0.0
H699 H 0.3394 0.04243 0.89913 0.0
C700 C 0.84926 0.33374 0.90679 0.0
C701 C 0.84688 0.33382 0.84629 0.0
C702 C 0.91188 0.39762 0.85429 0.0
C703 C 0.91713 0.395 0.9146 0.0
N704 N 0.89507 0.35711 -0.00216 0.0
N705 N 0.87935 0.36171 0.76193 0.0
C706 C 0.88697 0.36211 0.94085 0.0
C707 C 0.8789 0.36485 0.81987 0.0
N708 N 0.81524 0.30695 0.93164 0.0
N709 N 0.93883 0.43094 0.82953 0.0
H710 H 0.85513 0.33855 0.73549 0.0
H711 H 0.90548 0.37967 0.74101 0.0
H712 H 0.96574 0.4544 0.85213 0.0
H713 H 0.93281 0.43672 0.78683 0.0
H714 H 0.81293 0.30851 0.97554 0.0
H715 H 0.78739 0.28529 0.90774 0.0
H716 H 0.87683 0.3313 0.01788 0.0
H717 H 0.92207 0.37743 0.0244 0.0
C718 C 0.69577 0.91506 0.84729 0.0
C719 C 0.6851 0.87213 0.84131 0.0
C720 C 0.62292 0.86142 0.8956 0.0
C721 C 0.62863 0.90322 0.89202 0.0
N722 N 0.66776 0.96902 0.85594 0.0
N723 N 0.63098 0.8037 0.84824 0.0
C724 C 0.66462 0.93009 0.86613 0.0
C725 C 0.64687 0.84497 0.86273 0.0
N726 N 0.73576 0.94149 0.83536 0.0
N727 N 0.59509 0.83731 0.93089 0.0
H728 H 0.64478 0.78987 0.82033 0.0
H729 H 0.60076 0.78368 0.85852 0.0
H730 H 0.57761 0.84821 0.95707 0.0
H731 H 0.59339 0.80784 0.939 0.0
H732 H 0.74687 0.97314 0.84407 0.0
H733 H 0.75955 0.93143 0.82236 0.0
H734 H 0.69089 0.98818 0.83183 0.0
H735 H 0.64472 0.98087 0.86629 0.0
C736 C 0.86832 0.68075 0.08499 0.0
C737 C 0.85638 0.66864 0.13994 0.0
C738 C 0.90155 0.62685 0.14372 0.0
C739 C 0.91468 0.64006 0.08951 0.0
N740 N 0.91679 0.68458 0.01257 0.0
N741 N 0.86685 0.63618 0.22633 0.0
C742 C 0.90021 0.66879 0.06155 0.0
C743 C 0.87442 0.64328 0.1706 0.0
N744 N 0.84737 0.70173 0.05389 0.0
N745 N 0.91533 0.59874 0.16966 0.0
H746 H 0.84898 0.64922 0.24857 0.0
H747 H 0.88065 0.61975 0.25238 0.0
H748 H 0.93894 0.58932 0.15473 0.0
H749 H 0.9023 0.58331 0.20476 0.0
H750 H 0.85043 0.70713 0.01084 0.0
H751 H 0.82402 0.71112 0.06981 0.0
H752 H 0.91107 0.70868 0.99345 0.0
H753 H 0.93891 0.67559 0.99282 0.0
C754 C 0.35243 0.87485 0.12379 0.0
C755 C 0.34807 0.83469 0.10598 0.0
C756 C 0.41169 0.8608 0.05485 0.0
C757 C 0.42078 0.90113 0.07964 0.0
N758 N 0.3953 0.94842 0.12611 0.0
N759 N 0.35865 0.79089 0.03486 0.0
C760 C 0.38913 0.90895 0.10955 0.0
C761 C 0.3726 0.82847 0.06414 0.0
N762 N 0.32224 0.87964 0.1558 0.0
N763 N 0.44134 0.85273 0.02524 0.0
H764 H 0.3298 0.76712 0.04262 0.0
H765 H 0.37276 0.78463 -0.00012 0.0
H766 H 0.47063 0.87511 0.01738 0.0
H767 H 0.43863 0.82329 0.01228 0.0
H768 H 0.32364 0.90763 0.17317 0.0
H769 H 0.2949 0.85458 0.16445 0.0
H770 H 0.37342 0.9567 0.14732 0.0
H771 H 0.42242 0.97356 0.11724 0.0
C772 C 0.65507 0.17283 0.08695 0.0
C773 C 0.67274 0.16554 0.14134 0.0
C774 C 0.61173 0.09838 0.13694 0.0
C775 C 0.59068 0.10774 0.08611 0.0
N776 N 0.59329 0.15607 0.01331 0.0
N777 N 0.68078 0.11186 0.19603 0.0
C778 C 0.61262 0.14562 0.06138 0.0
C779 C 0.6549 0.12546 0.1601 0.0
N780 N 0.68098 0.20332 0.0568 0.0
N781 N 0.58957 0.06543 0.16615 0.0
H782 H 0.71429 0.12906 0.20641 0.0
H783 H 0.67092 0.08176 0.20791 0.0
H784 H 0.55687 0.0464 0.15405 0.0
H785 H 0.60205 0.05993 0.20632 0.0
H786 H 0.6715 0.20934 0.01548 0.0
H787 H 0.7145 0.21877 0.0697 0.0
H788 H 0.60384 0.18568 -0.00039 0.0
H789 H 0.56589 0.13581 0.9875 0.0
C790 C 0.66774 0.65408 0.8851 0.0
C791 C 0.66219 0.65761 0.82433 0.0
C792 C 0.59112 0.59706 0.81959 0.0
C793 C 0.59617 0.59393 0.88059 0.0
N794 N 0.64631 0.61317 0.96753 0.0
N795 N 0.62158 0.62666 0.73296 0.0
C796 C 0.63673 0.62054 0.91202 0.0
C797 C 0.6248 0.62716 0.79155 0.0
N798 N 0.70246 0.68351 0.91776 0.0
N799 N 0.55322 0.57114 0.78804 0.0
H800 H 0.64412 0.64877 0.71127 0.0
H801 H 0.59846 0.60309 0.70554 0.0
H802 H 0.53058 0.54609 0.80515 0.0
H803 H 0.54348 0.57488 0.74567 0.0
H804 H 0.70612 0.68617 0.96248 0.0
H805 H 0.72635 0.7071 0.89988 0.0
H806 H 0.67652 0.62857 0.99207 0.0
H807 H 0.62522 0.58873 0.98732 0.0
C808 C 0.32664 0.61416 0.86258 0.0
C809 C 0.34597 0.65647 0.85382 0.0
C810 C 0.41917 0.656 0.88206 0.0
C811 C 0.3994 0.61471 0.89634 0.0
N812 N 0.33401 0.55683 0.91043 0.0
N813 N 0.40967 0.7196 0.86268 0.0
C814 C 0.35301 0.59441 0.88939 0.0
C815 C 0.392 0.67803 0.86594 0.0
N816 N 0.2831 0.59267 0.84466 0.0
N817 N 0.4636 0.67359 0.88126 0.0
H818 H 0.39103 0.73645 0.84826 0.0
H819 H 0.44221 0.73767 0.87772 0.0
H820 H 0.48466 0.65836 0.89175 0.0
H821 H 0.47922 0.70205 0.86543 0.0
H822 H 0.26811 0.56088 0.84436 0.0
H823 H 0.26275 0.6062 0.82506 0.0
H824 H 0.3004 0.54265 0.91246 0.0
H825 H 0.35208 0.54136 0.93099 0.0
C826 C 0.3702 0.37976 0.81478 0.0
C827 C 0.352 0.33861 0.82863 0.0
C828 C 0.39739 0.35573 0.92185 0.0
C829 C 0.41724 0.39707 0.90698 0.0
N830 N 0.40296 0.44986 0.8535 0.0
N831 N 0.33699 0.29002 0.90166 0.0
C832 C 0.39802 0.40984 0.85767 0.0
C833 C 0.36233 0.32723 0.88401 0.0
N834 N 0.36103 0.39022 0.76072 0.0
N835 N 0.41107 0.34373 0.97268 0.0
H836 H 0.31106 0.26804 0.87518 0.0
H837 H 0.33915 0.28212 0.94398 0.0
H838 H 0.42951 0.36436 0.00699 0.0
H839 H 0.40361 0.31314 0.98106 0.0
H840 H 0.3772 0.41928 0.74682 0.0
H841 H 0.34009 0.36891 0.72839 0.0
H842 H 0.38717 0.45964 0.81968 0.0
H843 H 0.41579 0.47185 0.88789 0.0
C844 C 0.61803 0.33987 0.82981 0.0
C845 C 0.663 0.349 0.84891 0.0
C846 C 0.66604 0.4108 0.90522 0.0
C847 C 0.61992 0.39905 0.88975 0.0
N848 N 0.56153 0.36744 0.81248 0.0
N849 N 0.73275 0.39941 0.89081 0.0
C850 C 0.59886 0.36821 0.84428 0.0
C851 C 0.68791 0.38635 0.88278 0.0
N852 N 0.59256 0.30334 0.80029 0.0
N853 N 0.68934 0.44581 0.93932 0.0
H854 H 0.74984 0.38378 0.87199 0.0
H855 H 0.75364 0.42733 0.9117 0.0
H856 H 0.67784 0.46911 0.94565 0.0
H857 H 0.72082 0.45264 0.96011 0.0
H858 H 0.55852 0.29362 0.79164 0.0
H859 H 0.60446 0.28113 0.78876 0.0
H860 H 0.54671 0.34765 0.77589 0.0
H861 H 0.54925 0.39046 0.81786 0.0
C862 C 0.60086 0.33108 0.17791 0.0
C863 C 0.63726 0.32696 0.15552 0.0
C864 C 0.63858 0.37844 0.08728 0.0
C865 C 0.59998 0.3802 0.10594 0.0
N866 N 0.54046 0.35453 0.16381 0.0
N867 N 0.68394 0.33893 0.0797 0.0
C868 C 0.57988 0.35536 0.14979 0.0
C869 C 0.65399 0.3482 0.10731 0.0
N870 N 0.587 0.3125 0.22657 0.0
N871 N 0.66216 0.40722 0.05319 0.0
H872 H 0.69683 0.3174 0.09335 0.0
H873 H 0.69304 0.35008 0.04033 0.0
H874 H 0.65285 0.431 0.03979 0.0
H875 H 0.69324 0.41003 0.04384 0.0
H876 H 0.56366 0.31775 0.24872 0.0
H877 H 0.60116 0.29379 0.24714 0.0
H878 H 0.522 0.33418 0.19131 0.0
H879 H 0.52443 0.37216 0.14444 0.0
C880 C 0.64786 0.68012 0.10983 0.0
C881 C 0.66038 0.6698 0.16502 0.0
C882 C 0.61424 0.59798 0.13931 0.0
C883 C 0.59344 0.60961 0.09035 0.0
N884 N 0.59683 0.66153 0.02311 0.0
N885 N 0.65373 0.6196 0.2347 0.0
C886 C 0.61217 0.6507 0.07388 0.0
C887 C 0.64307 0.62892 0.18049 0.0
N888 N 0.67168 0.71727 0.09049 0.0
N889 N 0.60959 0.55813 0.14482 0.0
H890 H 0.67519 0.64154 0.26595 0.0
H891 H 0.63822 0.59088 0.24998 0.0
H892 H 0.5957 0.53535 0.11156 0.0
H893 H 0.62646 0.54912 0.1783 0.0
H894 H 0.66743 0.72489 0.04836 0.0
H895 H 0.69858 0.73954 0.11509 0.0
H896 H 0.60305 0.6918 0.01393 0.0
H897 H 0.57823 0.64021 0.98956 0.0
C898 C 0.37678 0.68233 0.0982 0.0
C899 C 0.3406 0.66148 0.12817 0.0
C900 C 0.3535 0.59745 0.11336 0.0
C901 C 0.38777 0.61786 0.0799 0.0
N902 N 0.42394 0.67743 0.02865 0.0
N903 N 0.2898 0.59764 0.15639 0.0
C904 C 0.39712 0.65967 0.06909 0.0
C905 C 0.32738 0.61848 0.13299 0.0
N906 N 0.39211 0.72403 0.09756 0.0
N907 N 0.34742 0.5589 0.12934 0.0
H908 H 0.27137 0.61221 0.17433 0.0
H909 H 0.27541 0.56575 0.15467 0.0
H910 H 0.36618 0.54273 0.11701 0.0
H911 H 0.3263 0.54423 0.15885 0.0
H912 H 0.42168 0.74145 0.08281 0.0
H913 H 0.37698 0.74157 0.11591 0.0
H914 H 0.42774 0.70602 0.0139 0.0
H915 H 0.43879 0.66197 0.00512 0.0
C916 C 0.33794 0.35698 0.11425 0.0
C917 C 0.3471 0.34573 0.1711 0.0
C918 C 0.42175 0.40132 0.17564 0.0
C919 C 0.4148 0.40936 0.11666 0.0
N920 N 0.36406 0.39511 0.03059 0.0
N921 N 0.40057 0.3564 0.2537 0.0
C922 C 0.37194 0.38755 0.08654 0.0
C923 C 0.38984 0.36782 0.2009 0.0
N924 N 0.29653 0.33777 0.08613 0.0
N925 N 0.45872 0.42739 0.20881 0.0
H926 H 0.37802 0.3341 0.27509 0.0
H927 H 0.43249 0.36696 0.27466 0.0
H928 H 0.48143 0.45304 0.19291 0.0
H929 H 0.46451 0.42653 0.25313 0.0
H930 H 0.28547 0.34598 0.04714 0.0
H931 H 0.2722 0.31401 0.10304 0.0
H932 H 0.33615 0.37781 0.00285 0.0
H933 H 0.38662 0.41853 0.01091 0.0
C934 C 0.87009 0.66491 0.59127 0.0
C935 C 0.83968 0.64936 0.63124 0.0
C936 C 0.84619 0.58241 0.61859 0.0
C937 C 0.88288 0.60076 0.58823 0.0
N938 N 0.9332 0.66156 0.55133 0.0
N939 N 0.79991 0.59303 0.68582 0.0
C940 C 0.89562 0.64253 0.57569 0.0
C941 C 0.82723 0.60773 0.64484 0.0
N942 N 0.87436 0.70112 0.56805 0.0
N943 N 0.83012 0.54102 0.62372 0.0
H944 H 0.78421 0.60971 0.70503 0.0
H945 H 0.79481 0.56504 0.70339 0.0
H946 H 0.84435 0.52173 0.60766 0.0
H947 H 0.80064 0.52536 0.6399 0.0
H948 H 0.89289 0.71209 0.53444 0.0
H949 H 0.85534 0.71772 0.57813 0.0
H950 H 0.94603 0.69296 0.54625 0.0
H951 H 0.95381 0.64684 0.54101 0.0
C952 C 0.389 0.86135 0.63829 0.0
C953 C 0.36159 0.86856 0.6752 0.0
C954 C 0.4114 0.93919 0.69225 0.0
C955 C 0.42666 0.93501 0.63905 0.0
N956 N 0.42394 0.88831 0.55708 0.0
N957 N 0.34871 0.91305 0.74489 0.0
C958 C 0.41564 0.89493 0.61157 0.0
C959 C 0.37413 0.90681 0.70621 0.0
N960 N 0.38595 0.82241 0.62465 0.0
N961 N 0.43157 0.97403 0.72775 0.0
H962 H 0.32055 0.88954 0.75491 0.0
H963 H 0.35443 0.94184 0.76436 0.0
H964 H 0.46003 0.9976 0.71853 0.0
H965 H 0.42291 0.9772 0.7686 0.0
H966 H 0.40749 0.81618 0.59983 0.0
H967 H 0.36503 0.79726 0.64367 0.0
H968 H 0.41301 0.85915 0.53601 0.0
H969 H 0.43466 0.91085 0.5288 0.0
C970 C 0.12497 0.32496 0.58386 0.0
C971 C 0.1575 0.34112 0.63202 0.0
C972 C 0.14601 0.40511 0.63167 0.0
C973 C 0.11728 0.39148 0.57963 0.0
N974 N 0.08793 0.34033 0.49868 0.0
N975 N 0.21115 0.40273 0.68385 0.0
C976 C 0.10891 0.35183 0.55333 0.0
C977 C 0.17222 0.3832 0.65003 0.0
N978 N 0.10977 0.28414 0.56695 0.0
N979 N 0.14665 0.43751 0.66567 0.0
H980 H 0.23406 0.38932 0.69262 0.0
H981 H 0.22335 0.43415 0.69541 0.0
H982 H 0.12407 0.45148 0.65763 0.0
H983 H 0.16531 0.44635 0.70591 0.0
H984 H 0.0824 0.26978 0.53663 0.0
H985 H 0.12348 0.26439 0.58534 0.0
H986 H 0.08521 0.31339 0.47618 0.0
H987 H 0.07751 0.35933 0.47312 0.0
C988 C 0.65269 0.15944 0.59732 0.0
C989 C 0.67121 0.16117 0.65493 0.0
C990 C 0.64787 0.08585 0.64821 0.0
C991 C 0.62555 0.08391 0.59275 0.0
N992 N 0.60034 0.11898 0.51854 0.0
N993 N 0.67958 0.12511 0.73891 0.0
C994 C 0.62592 0.12073 0.56868 0.0
C995 C 0.66687 0.12404 0.68133 0.0
N996 N 0.66271 0.19429 0.56837 0.0
N997 N 0.65076 0.05114 0.66964 0.0
H998 H 0.69311 0.15214 0.76533 0.0
H999 H 0.67259 0.09905 0.76195 0.0
H1000 H 0.63556 0.02217 0.64812 0.0
H1001 H 0.67121 0.05147 0.70667 0.0
H1002 H 0.65457 0.19393 0.52419 0.0
H1003 H 0.68264 0.22332 0.58705 0.0
H1004 H 0.59471 0.14421 0.50306 0.0
H1005 H 0.5828 0.0918 0.49404 0.0
C1006 C 0.80466 0.3799 0.35901 0.0
C1007 C 0.81541 0.3447 0.35803 0.0
C1008 C 0.89231 0.38702 0.39305 0.0
C1009 C 0.8813 0.4225 0.39675 0.0
N1010 N 0.83144 0.4538 0.3602 0.0
N1011 N 0.86695 0.31282 0.38378 0.0
C1012 C 0.83843 0.41918 0.37395 0.0
C1013 C 0.85837 0.34769 0.3787 0.0
N1014 N 0.76183 0.3756 0.34647 0.0
N1015 N 0.93515 0.39083 0.39602 0.0
H1016 H 0.84373 0.28373 0.37048 0.0
H1017 H 0.89569 0.31224 0.40571 0.0
H1018 H 0.9608 0.41828 0.39207 0.0
H1019 H 0.945 0.36627 0.39101 0.0
H1020 H 0.75097 0.39948 0.35217 0.0
H1021 H 0.73646 0.34714 0.3352 0.0
H1022 H 0.80215 0.45359 0.33888 0.0
H1023 H 0.85714 0.48231 0.36234 0.0
C1024 C 0.62763 0.82608 0.41025 0.0
C1025 C 0.66227 0.84799 0.37843 0.0
C1026 C 0.64166 0.9081 0.38425 0.0
C1027 C 0.60955 0.88754 0.42034 0.0
N1028 N 0.57361 0.82815 0.47168 0.0
N1029 N 0.7046 0.9109 0.33781 0.0
C1030 C 0.60274 0.84669 0.43406 0.0
C1031 C 0.67024 0.88944 0.36682 0.0
N1032 N 0.61847 0.78547 0.41751 0.0
N1033 N 0.64249 0.94401 0.36263 0.0
H1034 H 0.72303 0.89754 0.31735 0.0
H1035 H 0.71626 0.94264 0.33614 0.0
H1036 H 0.62046 0.95752 0.37136 0.0
H1037 H 0.66176 0.95835 0.33117 0.0
H1038 H 0.59059 0.76628 0.43414 0.0
H1039 H 0.63769 0.7701 0.40393 0.0
H1040 H 0.57096 0.8007 0.48932 0.0
H1041 H 0.5541 0.84171 0.48907 0.0
C1042 C 0.15348 0.63166 0.34698 0.0
C1043 C 0.13516 0.66216 0.34511 0.0
C1044 C 0.06747 0.61442 0.37513 0.0
C1045 C 0.0853 0.58358 0.3774 0.0
N1046 N 0.15185 0.56925 0.38852 0.0
N1047 N 0.08454 0.68747 0.38269 0.0
C1048 C 0.1303 0.59388 0.37001 0.0
C1049 C 0.09514 0.65505 0.36726 0.0
N1050 N 0.19243 0.63819 0.32629 0.0
N1051 N 0.02395 0.60502 0.37857 0.0
H1052 H 0.10672 0.71753 0.38184 0.0
H1053 H 0.05747 0.68467 0.40386 0.0
H1054 H 1.00111 0.57511 0.37869 0.0
H1055 H 0.01014 0.62699 0.37543 0.0
H1056 H 0.20443 0.61505 0.32069 0.0
H1057 H 0.21148 0.66592 0.31127 0.0
H1058 H 0.18557 0.57747 0.38878 0.0
H1059 H 0.13753 0.54317 0.41041 0.0
C1060 C 0.34363 0.1336 0.33804 0.0
C1061 C 0.35117 0.17126 0.36888 0.0
C1062 C 0.40464 0.15944 0.43915 0.0
C1063 C 0.39886 0.12255 0.40618 0.0
N1064 N 0.37348 0.08298 0.31475 0.0
N1065 N 0.39444 0.22428 0.44165 0.0
C1066 C 0.37156 0.11227 0.35269 0.0
C1067 C 0.38361 0.1856 0.41706 0.0
N1068 N 0.30942 0.11781 0.295 0.0
N1069 N 0.42764 0.16867 0.49286 0.0
H1070 H 0.3787 0.24362 0.42741 0.0
H1071 H 0.42129 0.23838 0.47278 0.0
H1072 H 0.44475 0.15194 0.51157 0.0
H1073 H 0.42706 0.19164 0.52132 0.0
H1074 H 0.29948 0.0883 0.2755 0.0
H1075 H 0.28858 0.13277 0.28179 0.0
H1076 H 0.35631 0.07598 0.27359 0.0
H1077 H 0.39647 0.06931 0.32155 0.0
C1078 C 0.6191 0.82106 0.64335 0.0
C1079 C 0.65662 0.82023 0.61996 0.0
C1080 C 0.66036 0.87967 0.56592 0.0
C1081 C 0.62633 0.88381 0.59512 0.0
N1082 N 0.57661 0.86109 0.66678 0.0
N1083 N 0.69533 0.83407 0.53692 0.0
C1084 C 0.60612 0.85485 0.63466 0.0
C1085 C 0.67229 0.84533 0.57469 0.0
N1086 N 0.59417 0.78811 0.67038 0.0
N1087 N 0.68172 0.90847 0.53012 0.0
H1088 H 0.69868 0.80579 0.53747 0.0
H1089 H 0.70538 0.84941 0.50048 0.0
H1090 H 0.67267 0.93271 0.51856 0.0
H1091 H 0.71034 0.90962 0.51405 0.0
H1092 H 0.56436 0.78518 0.68443 0.0
H1093 H 0.60034 0.76116 0.6714 0.0
H1094 H 0.56456 0.84364 0.7008 0.0
H1095 H 0.56745 0.8863 0.6634 0.0
C1096 C 0.65306 0.1063 0.40904 0.0
C1097 C 0.64515 0.12666 0.36177 0.0
C1098 C 0.57166 0.0744 0.33853 0.0
C1099 C 0.58362 0.05059 0.37946 0.0
N1100 N 0.6413 0.04003 0.44076 0.0
N1101 N 0.59836 0.1319 0.27922 0.0
C1102 C 0.62608 0.06538 0.41087 0.0
C1103 C 0.60463 0.11144 0.32569 0.0
N1104 N 0.68668 0.12585 0.45146 0.0
N1105 N 0.52946 0.06178 0.31268 0.0
H1106 H 0.62176 0.16004 0.27078 0.0
H1107 H 0.57096 0.12031 0.24833 0.0
H1108 H 0.50546 0.03371 0.31995 0.0
H1109 H 0.51804 0.07988 0.28637 0.0
H1110 H 0.69174 0.11231 0.48909 0.0
H1111 H 0.70617 0.15697 0.45142 0.0
H1112 H 0.67346 0.04913 0.46079 0.0
H1113 H 0.6231 0.00894 0.43918 0.0
C1114 C 0.82993 0.65209 0.40796 0.0
C1115 C 0.85819 0.68345 0.37757 0.0
C1116 C 0.90821 0.64745 0.37631 0.0
C1117 C 0.88223 0.61772 0.41045 0.0
N1118 N 0.82079 0.59417 0.46574 0.0
N1119 N 0.93034 0.71646 0.34704 0.0
C1120 C 0.84365 0.62062 0.42833 0.0
C1121 C 0.8996 0.68327 0.36718 0.0
N1122 N 0.78979 0.65228 0.41674 0.0
N1123 N 0.93833 0.63944 0.34765 0.0
H1124 H 0.92552 0.74332 0.33821 0.0
H1125 H 0.96247 0.71871 0.34469 0.0
H1126 H 0.94006 0.61048 0.34628 0.0
H1127 H 0.9562 0.65871 0.31853 0.0
H1128 H 0.76525 0.6277 0.43176 0.0
H1129 H 0.78037 0.67669 0.40668 0.0
H1130 H 0.79557 0.59781 0.48553 0.0
H1131 H 0.82903 0.57014 0.4806 0.0
C1132 C 0.33434 0.85162 0.40565 0.0
C1133 C 0.34233 0.84607 0.34821 0.0
C1134 C 0.39823 0.91594 0.35541 0.0
C1135 C 0.38841 0.92212 0.41156 0.0
N1136 N 0.34348 0.8989 0.48789 0.0
N1137 N 0.378 0.87426 0.26604 0.0
C1138 C 0.35521 0.89089 0.436 0.0
C1139 C 0.37366 0.87845 0.32273 0.0
N1140 N 0.30784 0.81878 0.4316 0.0
N1141 N 0.43088 0.94637 0.33299 0.0
H1142 H 0.36055 0.84727 0.24121 0.0
H1143 H 0.39639 0.89789 0.24261 0.0
H1144 H 0.44545 0.97625 0.35188 0.0
H1145 H 0.44478 0.94194 0.29678 0.0
H1146 H 0.30376 0.81947 0.47498 0.0
H1147 H 0.29284 0.78951 0.41068 0.0
H1148 H 0.31659 0.87891 0.50557 0.0
H1149 H 0.35902 0.92693 0.51193 0.0
C1150 C 0.14726 0.38853 0.29687 0.0
C1151 C 0.164 0.36526 0.33371 0.0
C1152 C 0.1552 0.40407 0.41635 0.0
C1153 C 0.12691 0.41766 0.38035 0.0
N1154 N 0.10367 0.43039 0.28445 0.0
N1155 N 0.18514 0.35137 0.42984 0.0
C1156 C 0.12552 0.41236 0.31985 0.0
C1157 C 0.16876 0.3734 0.39397 0.0
N1158 N 0.15386 0.38906 0.24041 0.0
N1159 N 0.17156 0.42224 0.47013 0.0
H1160 H 0.19653 0.32953 0.41468 0.0
H1161 H 0.1848 0.35316 0.47423 0.0
H1162 H 0.16837 0.44929 0.4832 0.0
H1163 H 0.19399 0.41471 0.49726 0.0
H1164 H 0.14613 0.40824 0.21212 0.0
H1165 H 0.17203 0.37373 0.2239 0.0
H1166 H 0.09583 0.42293 0.24036 0.0
H1167 H 0.09274 0.45254 0.29973 0.0
C1168 C 0.37289 0.14512 0.6638 0.0
C1169 C 0.34068 0.1521 0.6257 0.0
C1170 C 0.3482 0.10462 0.55203 0.0
C1171 C 0.38154 0.09889 0.59036 0.0
N1172 N 0.40722 0.09764 0.68995 0.0
N1173 N 0.30199 0.14383 0.53102 0.0
C1174 C 0.38855 0.11454 0.64839 0.0
C1175 C 0.32946 0.13318 0.56903 0.0
N1176 N 0.38991 0.16856 0.71422 0.0
N1177 N 0.33157 0.08046 0.50206 0.0
H1178 H 0.28841 0.16492 0.54255 0.0
H1179 H 0.29592 0.13515 0.48723 0.0
H1180 H 0.3387 0.05489 0.49268 0.0
H1181 H 0.30601 0.08176 0.47347 0.0
H1182 H 0.4161 0.16683 0.74131 0.0
H1183 H 0.38204 0.19342 0.72505 0.0
H1184 H 0.40917 0.10502 0.73378 0.0
H1185 H 0.41497 0.07213 0.68107 0.0
C1186 C 0.89243 0.34396 0.57646 0.0
C1187 C 0.85596 0.33579 0.60742 0.0
C1188 C 0.87854 0.40925 0.6326 0.0
C1189 C 0.91589 0.41753 0.6026 0.0
N1190 N 0.96664 0.38971 0.56964 0.0
N1191 N 0.80454 0.36253 0.64069 0.0
C1192 C 0.92511 0.38403 0.58057 0.0
C1193 C 0.84581 0.36899 0.62788 0.0
N1194 N 0.89503 0.31346 0.54162 0.0
N1195 N 0.87642 0.4383 0.67069 0.0
H1196 H 0.77851 0.33434 0.63119 0.0
H1197 H 0.79482 0.38635 0.65214 0.0
H1198 H 0.90321 0.46536 0.6839 0.0
H1199 H 0.85133 0.43251 0.69667 0.0
H1200 H 0.91921 0.31849 0.51433 0.0
H1201 H 0.86973 0.28451 0.53503 0.0
H1202 H 0.97581 0.3657 0.55739 0.0
H1203 H 0.99319 0.41726 0.58161 0.0
C1204 C 0.19511 0.62052 0.63511 0.0
C1205 C 0.18669 0.65704 0.63573 0.0
C1206 C 0.11659 0.62078 0.57593 0.0
C1207 C 0.12189 0.58287 0.58209 0.0
N1208 N 0.16209 0.5466 0.63239 0.0
N1209 N 0.13387 0.68911 0.61797 0.0
C1210 C 0.16019 0.58269 0.61567 0.0
C1211 C 0.14566 0.65629 0.60975 0.0
N1212 N 0.23621 0.62182 0.65311 0.0
N1213 N 0.08598 0.62396 0.53499 0.0
H1214 H 0.15366 0.7155 0.64351 0.0
H1215 H 0.1025 0.68823 0.60429 0.0
H1216 H 0.06744 0.59981 0.5055 0.0
H1217 H 0.08355 0.65178 0.52533 0.0
H1218 H 0.24491 0.59644 0.64875 0.0
H1219 H 0.26223 0.64902 0.66849 0.0
H1220 H 0.18778 0.54503 0.66066 0.0
H1221 H 0.13519 0.51898 0.62416 0.0
loop_
_geom_bond_atom_site_label_1
_geom_bond_atom_site_label_2
_geom_bond_distance
_geom_bond_site_symmetry_2
_ccdc_geom_bond_type
Zn0 O6 1.969 . S
Zn0 O7 1.965 . S
Zn0 O11 2.024 . S
Zn0 O16 1.969 . S
Zn1 O8 1.969 . S
Zn1 O14 1.969 . S
Zn1 O15 1.965 . S
Zn1 O17 2.024 . S
C2 O3 1.229 . S
C2 O11 1.058 . S
O3 C2 1.229 . S
C4 O5 1.229 . S
C4 O17 1.058 . S
O5 C4 1.229 . S
O6 Zn0 1.969 . S
O6 C9 1.267 . S
O7 Zn0 1.965 . S
O7 C18 1.260 . S
O8 Zn1 1.969 . S
O8 C18 1.258 . S
C9 O6 1.267 . S
C9 O10 1.228 . S
O10 C9 1.228 . S
O11 Zn0 2.024 . S
O11 C2 1.058 . S
C12 O13 1.228 . S
C12 O14 1.267 . S
O13 C12 1.228 . S
O14 Zn1 1.969 . S
O14 C12 1.267 . S
O15 Zn1 1.965 . S
O15 C19 1.260 . S
O16 Zn0 1.969 . S
O16 C19 1.258 . S
O17 Zn1 2.024 . S
O17 C4 1.058 . S
C18 O7 1.260 . S
C18 O8 1.258 . S
C19 O15 1.260 . S
C19 O16 1.258 . S
Zn20 O26 1.969 . S
Zn20 O27 1.965 . S
Zn20 O31 2.024 . S
Zn20 O36 1.969 . S
Zn21 O28 1.969 . S
Zn21 O34 1.969 . S
Zn21 O35 1.965 . S
Zn21 O37 2.024 . S
C22 O23 1.229 . S
C22 O31 1.058 . S
O23 C22 1.229 . S
C24 O25 1.229 . S
C24 O37 1.058 . S
O25 C24 1.229 . S
O26 Zn20 1.969 . S
O26 C29 1.267 . S
O27 Zn20 1.965 . S
O27 C38 1.260 . S
O28 Zn21 1.969 . S
O28 C38 1.258 . S
C29 O26 1.267 . S
C29 O30 1.228 . S
O30 C29 1.228 . S
O31 Zn20 2.024 . S
O31 C22 1.058 . S
C32 O33 1.228 . S
C32 O34 1.267 . S
O33 C32 1.228 . S
O34 Zn21 1.969 . S
O34 C32 1.267 . S
O35 Zn21 1.965 . S
O35 C39 1.260 . S
O36 Zn20 1.969 . S
O36 C39 1.258 . S
O37 Zn21 2.024 . S
O37 C24 1.058 . S
C38 O27 1.260 . S
C38 O28 1.258 . S
C39 O35 1.260 . S
C39 O36 1.258 . S
Zn40 O46 1.969 . S
Zn40 O47 1.965 . S
Zn40 O51 2.024 . S
Zn40 O56 1.969 . S
Zn41 O48 1.969 . S
Zn41 O54 1.969 . S
Zn41 O55 1.965 . S
Zn41 O57 2.024 . S
C42 O43 1.229 . S
C42 O51 1.058 . S
O43 C42 1.229 . S
C44 O45 1.229 . S
C44 O57 1.058 . S
O45 C44 1.229 . S
O46 Zn40 1.969 . S
O46 C49 1.267 . S
O47 Zn40 1.965 . S
O47 C58 1.260 . S
O48 Zn41 1.969 . S
O48 C58 1.258 . S
C49 O46 1.267 . S
C49 O50 1.228 . S
O50 C49 1.228 . S
O51 Zn40 2.024 . S
O51 C42 1.058 . S
C52 O53 1.228 . S
C52 O54 1.267 . S
O53 C52 1.228 . S
O54 Zn41 1.969 . S
O54 C52 1.267 . S
O55 Zn41 1.965 . S
O55 C59 1.260 . S
O56 Zn40 1.969 . S
O56 C59 1.258 . S
O57 Zn41 2.024 . S
O57 C44 1.058 . S
C58 O47 1.260 . S
C58 O48 1.258 . S
C59 O55 1.260 . S
C59 O56 1.258 . S
Zn60 O66 1.969 . S
Zn60 O67 1.965 . S
Zn60 O71 2.024 . S
Zn60 O76 1.969 . S
Zn61 O68 1.969 . S
Zn61 O74 1.969 . S
Zn61 O75 1.965 . S
Zn61 O77 2.024 . S
C62 O63 1.229 . S
C62 O71 1.058 . S
O63 C62 1.229 . S
C64 O65 1.229 . S
C64 O77 1.058 . S
O65 C64 1.229 . S
O66 Zn60 1.969 . S
O66 C69 1.267 . S
O67 Zn60 1.965 . S
O67 C78 1.260 . S
O68 Zn61 1.969 . S
O68 C78 1.258 . S
C69 O66 1.267 . S
C69 O70 1.228 . S
O70 C69 1.228 . S
O71 Zn60 2.024 . S
O71 C62 1.058 . S
C72 O73 1.228 . S
C72 O74 1.267 . S
O73 C72 1.228 . S
O74 Zn61 1.969 . S
O74 C72 1.267 . S
O75 Zn61 1.965 . S
O75 C79 1.260 . S
O76 Zn60 1.969 . S
O76 C79 1.258 . S
O77 Zn61 2.024 . S
O77 C64 1.058 . S
C78 O67 1.260 . S
C78 O68 1.258 . S
C79 O75 1.260 . S
C79 O76 1.258 . S
Zn80 O86 1.969 . S
Zn80 O87 1.965 . S
Zn80 O91 2.024 . S
Zn80 O96 1.969 . S
Zn81 O88 1.969 . S
Zn81 O94 1.969 . S
Zn81 O95 1.965 . S
Zn81 O97 2.024 . S
C82 O83 1.229 . S
C82 O91 1.058 . S
O83 C82 1.229 . S
C84 O85 1.229 . S
C84 O97 1.058 . S
O85 C84 1.229 . S
O86 Zn80 1.969 . S
O86 C89 1.267 . S
O87 Zn80 1.965 . S
O87 C98 1.260 . S
O88 Zn81 1.969 . S
O88 C98 1.258 . S
C89 O86 1.267 . S
C89 O90 1.228 . S
O90 C89 1.228 . S
O91 Zn80 2.024 . S
O91 C82 1.058 . S
C92 O93 1.228 . S
C92 O94 1.267 . S
O93 C92 1.228 . S
O94 Zn81 1.969 . S
O94 C92 1.267 . S
O95 Zn81 1.965 . S
O95 C99 1.260 . S
O96 Zn80 1.969 . S
O96 C99 1.258 . S
O97 Zn81 2.024 . S
O97 C84 1.058 . S
C98 O87 1.260 . S
C98 O88 1.258 . S
C99 O95 1.260 . S
C99 O96 1.258 . S
Zn100 O106 1.969 . S
Zn100 O107 1.965 . S
Zn100 O111 2.024 . S
Zn100 O116 1.969 . S
Zn101 O108 1.969 . S
Zn101 O114 1.969 . S
Zn101 O115 1.965 . S
Zn101 O117 2.024 . S
C102 O103 1.229 . S
C102 O111 1.058 . S
O103 C102 1.229 . S
C104 O105 1.229 . S
C104 O117 1.058 . S
O105 C104 1.229 . S
O106 Zn100 1.969 . S
O106 C109 1.267 . S
O107 Zn100 1.965 . S
O107 C118 1.260 . S
O108 Zn101 1.969 . S
O108 C118 1.258 . S
C109 O106 1.267 . S
C109 O110 1.228 . S
O110 C109 1.228 . S
O111 Zn100 2.024 . S
O111 C102 1.058 . S
C112 O113 1.228 . S
C112 O114 1.267 . S
O113 C112 1.228 . S
O114 Zn101 1.969 . S
O114 C112 1.267 . S
O115 Zn101 1.965 . S
O115 C119 1.260 . S
O116 Zn100 1.969 . S
O116 C119 1.258 . S
O117 Zn101 2.024 . S
O117 C104 1.058 . S
C118 O107 1.260 . S
C118 O108 1.258 . S
C119 O115 1.260 . S
C119 O116 1.258 . S
Zn120 O126 1.969 . S
Zn120 O127 1.965 . S
Zn120 O131 2.024 . S
Zn120 O136 1.969 . S
Zn121 O128 1.969 . S
Zn121 O134 1.969 . S
Zn121 O135 1.965 . S
Zn121 O137 2.024 . S
C122 O123 1.229 . S
C122 O131 1.058 . S
O123 C122 1.229 . S
C124 O125 1.229 . S
C124 O137 1.058 . S
O125 C124 1.229 . S
O126 Zn120 1.969 . S
O126 C129 1.267 . S
O127 Zn120 1.965 . S
O127 C138 1.260 . S
O128 Zn121 1.969 . S
O128 C138 1.258 . S
C129 O126 1.267 . S
C129 O130 1.228 . S
O130 C129 1.228 . S
O131 Zn120 2.024 . S
O131 C122 1.058 . S
C132 O133 1.228 . S
C132 O134 1.267 . S
O133 C132 1.228 . S
O134 Zn121 1.969 . S
O134 C132 1.267 . S
O135 Zn121 1.965 . S
O135 C139 1.260 . S
O136 Zn120 1.969 . S
O136 C139 1.258 . S
O137 Zn121 2.024 . S
O137 C124 1.058 . S
C138 O127 1.260 . S
C138 O128 1.258 . S
C139 O135 1.260 . S
C139 O136 1.258 . S
Zn140 O146 1.969 . S
Zn140 O147 1.965 . S
Zn140 O151 2.024 . S
Zn140 O156 1.969 . S
Zn141 O148 1.969 . S
Zn141 O154 1.969 . S
Zn141 O155 1.965 . S
Zn141 O157 2.024 . S
C142 O143 1.229 . S
C142 O151 1.058 . S
O143 C142 1.229 . S
C144 O145 1.229 . S
C144 O157 1.058 . S
O145 C144 1.229 . S
O146 Zn140 1.969 . S
O146 C149 1.267 . S
O147 Zn140 1.965 . S
O147 C158 1.260 . S
O148 Zn141 1.969 . S
O148 C158 1.258 . S
C149 O146 1.267 . S
C149 O150 1.228 . S
O150 C149 1.228 . S
O151 Zn140 2.024 . S
O151 C142 1.058 . S
C152 O153 1.228 . S
C152 O154 1.267 . S
O153 C152 1.228 . S
O154 Zn141 1.969 . S
O154 C152 1.267 . S
O155 Zn141 1.965 . S
O155 C159 1.260 . S
O156 Zn140 1.969 . S
O156 C159 1.258 . S
O157 Zn141 2.024 . S
O157 C144 1.058 . S
C158 O147 1.260 . S
C158 O148 1.258 . S
C159 O155 1.260 . S
C159 O156 1.258 . S
Co160 O163 2.042 . S
Co160 O170 2.264 . S
Co160 O189 2.286 . S
Co160 O190 2.069 . S
Co160 O192 2.015 1_455 S
Co161 O163 2.122 . S
Co161 O169 2.073 . S
Co161 O170 2.327 . S
Co161 O171 1.976 1_455 S
Co162 O163 2.086 1_545 S
Co162 O165 2.088 1_455 S
Co162 O172 2.111 1_445 S
Co162 O173 2.144 . S
Co162 O177 2.112 . S
Co162 O191 2.143 1_445 S
O163 Co160 2.042 . S
O163 Co161 2.122 . S
O163 Co162 2.086 1_565 S
O163 H164 0.980 . S
H164 O163 0.980 . S
O165 Co162 2.088 1_655 S
O165 Co166 2.042 . S
O165 Co167 2.122 . S
O165 H168 0.980 . S
Co166 O165 2.042 . S
Co166 O174 2.286 . S
Co166 O175 2.069 . S
Co166 O176 2.015 1_655 S
Co166 O179 2.264 . S
Co167 O165 2.122 . S
Co167 O178 1.976 1_655 S
Co167 O179 2.327 . S
Co167 O180 2.073 . S
H168 O165 0.980 . S
O169 Co161 2.073 . S
O169 C184 1.245 . S
O170 Co160 2.264 . S
O170 Co161 2.327 . S
O170 C184 1.257 . S
O171 Co161 1.976 1_655 S
O171 C183 1.251 . S
O172 Co162 2.111 1_665 S
O172 C183 1.274 . S
O173 Co162 2.144 . S
O173 C186 1.246 . S
O174 Co166 2.286 . S
O174 C185 1.259 . S
O175 Co166 2.069 . S
O175 C185 1.289 . S
O176 Co166 2.015 1_455 S
O176 C186 1.257 . S
O177 Co162 2.112 . S
O177 C187 1.274 . S
O178 Co167 1.976 1_455 S
O178 C187 1.251 . S
O179 Co166 2.264 . S
O179 Co167 2.327 . S
O179 C188 1.257 . S
O180 Co167 2.073 . S
O180 C188 1.245 . S
C181 O189 1.259 . S
C181 O190 1.289 . S
C182 O191 1.246 . S
C182 O192 1.257 . S
C183 O171 1.251 . S
C183 O172 1.274 . S
C184 O169 1.245 . S
C184 O170 1.257 . S
C185 O174 1.259 . S
C185 O175 1.289 . S
C186 O173 1.246 . S
C186 O176 1.257 . S
C187 O177 1.274 . S
C187 O178 1.251 . S
C188 O179 1.257 . S
C188 O180 1.245 . S
O189 Co160 2.286 . S
O189 C181 1.259 . S
O190 Co160 2.069 . S
O190 C181 1.289 . S
O191 Co162 2.143 1_665 S
O191 C182 1.246 . S
O192 Co160 2.015 1_655 S
O192 C182 1.257 . S
Co193 O196 2.042 1_556 S
Co193 O203 2.264 1_556 S
Co193 O222 2.286 . S
Co193 O223 2.069 . S
Co193 O225 2.015 . S
Co194 O196 2.122 . S
Co194 O202 2.073 . S
Co194 O203 2.327 . S
Co194 O204 1.976 . S
Co195 O196 2.086 1_545 S
Co195 O198 2.088 1_554 S
Co195 O205 2.111 1_545 S
Co195 O206 2.144 . S
Co195 O210 2.112 1_554 S
Co195 O224 2.143 1_544 S
O196 Co193 2.042 1_554 S
O196 Co194 2.122 . S
O196 Co195 2.086 1_565 S
O196 H197 0.980 . S
H197 O196 0.980 . S
O198 Co195 2.088 1_556 S
O198 Co199 2.042 1_556 S
O198 Co200 2.122 . S
O198 H201 0.980 . S
Co199 O198 2.042 1_554 S
Co199 O207 2.286 . S
Co199 O208 2.069 . S
Co199 O209 2.015 . S
Co199 O212 2.264 1_554 S
Co200 O198 2.122 . S
Co200 O211 1.976 . S
Co200 O212 2.327 . S
Co200 O213 2.073 . S
H201 O198 0.980 . S
O202 Co194 2.073 . S
O202 C217 1.245 . S
O203 Co193 2.264 1_554 S
O203 Co194 2.327 . S
O203 C217 1.257 . S
O204 Co194 1.976 . S
O204 C216 1.251 . S
O205 Co195 2.111 1_565 S
O205 C216 1.274 . S
O206 Co195 2.144 . S
O206 C219 1.246 . S
O207 Co199 2.286 . S
O207 C218 1.259 . S
O208 Co199 2.069 . S
O208 C218 1.289 . S
O209 Co199 2.015 . S
O209 C219 1.257 . S
O210 Co195 2.112 1_556 S
O210 C220 1.274 . S
O211 Co200 1.976 . S
O211 C220 1.251 . S
O212 Co199 2.264 1_556 S
O212 Co200 2.327 . S
O212 C221 1.257 . S
O213 Co200 2.073 . S
O213 C221 1.245 . S
C214 O222 1.259 . S
C214 O223 1.289 . S
C215 O224 1.246 . S
C215 O225 1.257 . S
C216 O204 1.251 . S
C216 O205 1.274 . S
C217 O202 1.245 . S
C217 O203 1.257 . S
C218 O207 1.259 . S
C218 O208 1.289 . S
C219 O206 1.246 . S
C219 O209 1.257 . S
C220 O210 1.274 . S
C220 O211 1.251 . S
C221 O212 1.257 . S
C221 O213 1.245 . S
O222 Co193 2.286 . S
O222 C214 1.259 . S
O223 Co193 2.069 . S
O223 C214 1.289 . S
O224 Co195 2.143 1_566 S
O224 C215 1.246 . S
O225 Co193 2.015 . S
O225 C215 1.257 . S
Co226 O229 2.042 1_556 S
Co226 O236 2.264 1_556 S
Co226 O255 2.286 . S
Co226 O256 2.069 . S
Co226 O258 2.015 1_455 S
Co227 O229 2.122 . S
Co227 O235 2.073 . S
Co227 O236 2.327 . S
Co227 O237 1.976 1_455 S
Co228 O229 2.087 . S
Co228 O231 2.087 1_454 S
Co228 O238 2.111 1_455 S
Co228 O239 2.144 . S
Co228 O243 2.111 1_554 S
Co228 O257 2.143 1_454 S
O229 Co226 2.042 1_554 S
O229 Co227 2.122 . S
O229 Co228 2.087 . S
O229 H230 0.980 . S
H230 O229 0.980 . S
O231 Co228 2.087 1_656 S
O231 Co232 2.042 1_556 S
O231 Co233 2.122 . S
O231 H234 0.980 . S
Co232 O231 2.042 1_554 S
Co232 O240 2.286 . S
Co232 O241 2.069 . S
Co232 O242 2.015 1_655 S
Co232 O245 2.264 1_554 S
Co233 O231 2.122 . S
Co233 O244 1.976 1_655 S
Co233 O245 2.327 . S
Co233 O246 2.073 . S
H234 O231 0.980 . S
O235 Co227 2.073 . S
O235 C250 1.245 . S
O236 Co226 2.264 1_554 S
O236 Co227 2.327 . S
O236 C250 1.257 . S
O237 Co227 1.976 1_655 S
O237 C249 1.251 . S
O238 Co228 2.111 1_655 S
O238 C249 1.274 . S
O239 Co228 2.144 . S
O239 C252 1.246 . S
O240 Co232 2.286 . S
O240 C251 1.259 . S
O241 Co232 2.069 . S
O241 C251 1.289 . S
O242 Co232 2.015 1_455 S
O242 C252 1.257 . S
O243 Co228 2.111 1_556 S
O243 C253 1.274 . S
O244 Co233 1.976 1_455 S
O244 C253 1.251 . S
O245 Co232 2.264 1_556 S
O245 Co233 2.327 . S
O245 C254 1.257 . S
O246 Co233 2.073 . S
O246 C254 1.245 . S
C247 O255 1.259 . S
C247 O256 1.289 . S
C248 O257 1.246 . S
C248 O258 1.257 . S
C249 O237 1.251 . S
C249 O238 1.274 . S
C250 O235 1.245 . S
C250 O236 1.257 . S
C251 O240 1.259 . S
C251 O241 1.289 . S
C252 O239 1.246 . S
C252 O242 1.257 . S
C253 O243 1.274 . S
C253 O244 1.251 . S
C254 O245 1.257 . S
C254 O246 1.245 . S
O255 Co226 2.286 . S
O255 C247 1.259 . S
O256 Co226 2.069 . S
O256 C247 1.289 . S
O257 Co228 2.143 1_656 S
O257 C248 1.246 . S
O258 Co226 2.015 1_655 S
O258 C248 1.257 . S
Co259 O262 2.042 1_556 S
Co259 O269 2.264 1_556 S
Co259 O288 2.286 . S
Co259 O289 2.069 . S
Co259 O291 2.015 . S
Co260 O262 2.122 . S
Co260 O268 2.073 . S
Co260 O269 2.327 . S
Co260 O270 1.976 . S
Co261 O262 2.087 . S
Co261 O264 2.087 1_554 S
Co261 O271 2.111 . S
Co261 O272 2.143 . S
Co261 O276 2.111 1_554 S
Co261 O290 2.143 1_554 S
O262 Co259 2.042 1_554 S
O262 Co260 2.122 . S
O262 Co261 2.087 . S
O262 H263 0.980 . S
H263 O262 0.980 . S
O264 Co261 2.087 1_556 S
O264 Co265 2.042 1_556 S
O264 Co266 2.122 . S
O264 H267 0.980 . S
Co265 O264 2.042 1_554 S
Co265 O273 2.286 . S
Co265 O274 2.069 . S
Co265 O275 2.015 . S
Co265 O278 2.264 1_554 S
Co266 O264 2.122 . S
Co266 O277 1.976 . S
Co266 O278 2.327 . S
Co266 O279 2.073 . S
H267 O264 0.980 . S
O268 Co260 2.073 . S
O268 C283 1.245 . S
O269 Co259 2.264 1_554 S
O269 Co260 2.327 . S
O269 C283 1.257 . S
O270 Co260 1.976 . S
O270 C282 1.251 . S
O271 Co261 2.111 . S
O271 C282 1.274 . S
O272 Co261 2.143 . S
O272 C285 1.246 . S
O273 Co265 2.286 . S
O273 C284 1.259 . S
O274 Co265 2.069 . S
O274 C284 1.289 . S
O275 Co265 2.015 . S
O275 C285 1.257 . S
O276 Co261 2.111 1_556 S
O276 C286 1.274 . S
O277 Co266 1.976 . S
O277 C286 1.251 . S
O278 Co265 2.264 1_556 S
O278 Co266 2.327 . S
O278 C287 1.257 . S
O279 Co266 2.073 . S
O279 C287 1.245 . S
C280 O288 1.259 . S
C280 O289 1.289 . S
C281 O290 1.246 . S
C281 O291 1.257 . S
C282 O270 1.251 . S
C282 O271 1.274 . S
C283 O268 1.245 . S
C283 O269 1.257 . S
C284 O273 1.259 . S
C284 O274 1.289 . S
C285 O272 1.246 . S
C285 O275 1.257 . S
C286 O276 1.274 . S
C286 O277 1.251 . S
C287 O278 1.257 . S
C287 O279 1.245 . S
O288 Co259 2.286 . S
O288 C280 1.259 . S
O289 Co259 2.069 . S
O289 C280 1.289 . S
O290 Co261 2.143 1_556 S
O290 C281 1.246 . S
O291 Co259 2.015 . S
O291 C281 1.257 . S
Co292 O295 2.042 . S
Co292 O302 2.264 . S
Co292 O321 2.286 . S
Co292 O322 2.069 . S
Co292 O324 2.015 . S
Co293 O295 2.122 . S
Co293 O301 2.073 . S
Co293 O302 2.327 . S
Co293 O303 1.976 . S
Co294 O295 2.087 . S
Co294 O297 2.087 1_455 S
Co294 O304 2.111 . S
Co294 O305 2.143 1_455 S
Co294 O309 2.111 1_455 S
Co294 O323 2.144 . S
O295 Co292 2.042 . S
O295 Co293 2.122 . S
O295 Co294 2.087 . S
O295 H296 0.980 . S
H296 O295 0.980 . S
O297 Co294 2.087 1_655 S
O297 Co298 2.042 . S
O297 Co299 2.122 . S
O297 H300 0.980 . S
Co298 O297 2.042 . S
Co298 O306 2.286 . S
Co298 O307 2.069 . S
Co298 O308 2.015 . S
Co298 O311 2.264 . S
Co299 O297 2.122 . S
Co299 O310 1.976 . S
Co299 O311 2.327 . S
Co299 O312 2.073 . S
H300 O297 0.980 . S
O301 Co293 2.073 . S
O301 C316 1.245 . S
O302 Co292 2.264 . S
O302 Co293 2.327 . S
O302 C316 1.257 . S
O303 Co293 1.976 . S
O303 C315 1.251 . S
O304 Co294 2.111 . S
O304 C315 1.274 . S
O305 Co294 2.143 1_655 S
O305 C318 1.246 . S
O306 Co298 2.286 . S
O306 C317 1.259 . S
O307 Co298 2.069 . S
O307 C317 1.289 . S
O308 Co298 2.015 . S
O308 C318 1.257 . S
O309 Co294 2.111 1_655 S
O309 C319 1.274 . S
O310 Co299 1.976 . S
O310 C319 1.251 . S
O311 Co298 2.264 . S
O311 Co299 2.327 . S
O311 C320 1.257 . S
O312 Co299 2.073 . S
O312 C320 1.245 . S
C313 O321 1.259 . S
C313 O322 1.289 . S
C314 O323 1.246 . S
C314 O324 1.257 . S
C315 O303 1.251 . S
C315 O304 1.274 . S
C316 O301 1.245 . S
C316 O302 1.257 . S
C317 O306 1.259 . S
C317 O307 1.289 . S
C318 O305 1.246 . S
C318 O308 1.257 . S
C319 O309 1.274 . S
C319 O310 1.251 . S
C320 O311 1.257 . S
C320 O312 1.245 . S
O321 Co292 2.286 . S
O321 C313 1.259 . S
O322 Co292 2.069 . S
O322 C313 1.289 . S
O323 Co294 2.144 . S
O323 C314 1.246 . S
O324 Co292 2.015 . S
O324 C314 1.257 . S
Co325 O328 2.042 . S
Co325 O335 2.264 . S
Co325 O354 2.286 . S
Co325 O355 2.069 . S
Co325 O357 2.015 1_565 S
Co326 O328 2.122 . S
Co326 O334 2.073 . S
Co326 O335 2.327 . S
Co326 O336 1.976 1_565 S
Co327 O328 2.086 1_545 S
Co327 O330 2.088 . S
Co327 O337 2.112 . S
Co327 O338 2.143 1_545 S
Co327 O342 2.110 1_545 S
Co327 O356 2.144 . S
O328 Co325 2.042 . S
O328 Co326 2.122 . S
O328 Co327 2.086 1_565 S
O328 H329 0.980 . S
H329 O328 0.980 . S
O330 Co327 2.088 . S
O330 Co331 2.042 . S
O330 Co332 2.122 . S
O330 H333 0.980 . S
Co331 O330 2.042 . S
Co331 O339 2.286 . S
Co331 O340 2.069 . S
Co331 O341 2.015 1_545 S
Co331 O344 2.264 . S
Co332 O330 2.122 . S
Co332 O343 1.976 1_545 S
Co332 O344 2.327 . S
Co332 O345 2.073 . S
H333 O330 0.980 . S
O334 Co326 2.073 . S
O334 C349 1.245 . S
O335 Co325 2.264 . S
O335 Co326 2.327 . S
O335 C349 1.257 . S
O336 Co326 1.976 1_545 S
O336 C348 1.251 . S
O337 Co327 2.112 . S
O337 C348 1.274 . S
O338 Co327 2.143 1_565 S
O338 C351 1.246 . S
O339 Co331 2.286 . S
O339 C350 1.259 . S
O340 Co331 2.069 . S
O340 C350 1.289 . S
O341 Co331 2.015 1_565 S
O341 C351 1.257 . S
O342 Co327 2.110 1_565 S
O342 C352 1.274 . S
O343 Co332 1.976 1_565 S
O343 C352 1.251 . S
O344 Co331 2.264 . S
O344 Co332 2.327 . S
O344 C353 1.257 . S
O345 Co332 2.073 . S
O345 C353 1.245 . S
C346 O354 1.259 . S
C346 O355 1.289 . S
C347 O356 1.246 . S
C347 O357 1.257 . S
C348 O336 1.251 . S
C348 O337 1.274 . S
C349 O334 1.245 . S
C349 O335 1.257 . S
C350 O339 1.259 . S
C350 O340 1.289 . S
C351 O338 1.246 . S
C351 O341 1.257 . S
C352 O342 1.274 . S
C352 O343 1.251 . S
C353 O344 1.257 . S
C353 O345 1.245 . S
O354 Co325 2.286 . S
O354 C346 1.259 . S
O355 Co325 2.069 . S
O355 C346 1.289 . S
O356 Co327 2.144 . S
O356 C347 1.246 . S
O357 Co325 2.015 1_545 S
O357 C347 1.257 . S
C358 C359 1.363 . S
C358 C364 1.379 . S
C358 N366 1.356 . S
C359 C358 1.363 . S
C359 C365 1.363 . S
C360 C361 1.363 . S
C360 C365 1.379 . S
C360 N367 1.356 . S
C361 C360 1.363 . S
C361 C364 1.363 . S
N362 C364 1.356 . S
N362 H374 0.984 . S
N362 H375 0.985 . S
N363 C365 1.356 . S
N363 H368 0.984 . S
N363 H369 0.985 . S
C364 C358 1.379 . S
C364 C361 1.363 . S
C364 N362 1.356 . S
C365 C359 1.363 . S
C365 C360 1.379 . S
C365 N363 1.356 . S
N366 C358 1.356 . S
N366 H372 0.984 . S
N366 H373 0.984 . S
N367 C360 1.356 . S
N367 H370 0.984 . S
N367 H371 0.985 . S
H368 N363 0.984 . S
H369 N363 0.985 . S
H370 N367 0.984 . S
H371 N367 0.985 . S
H372 N366 0.984 . S
H373 N366 0.984 . S
H374 N362 0.984 . S
H375 N362 0.985 . S
C376 C377 1.363 . S
C376 C382 1.379 . S
C376 N384 1.356 . S
C377 C376 1.363 . S
C377 C383 1.363 . S
C378 C379 1.363 . S
C378 C383 1.379 . S
C378 N385 1.356 . S
C379 C378 1.363 . S
C379 C382 1.363 . S
N380 C382 1.356 . S
N380 H392 0.984 . S
N380 H393 0.985 . S
N381 C383 1.356 . S
N381 H386 0.984 . S
N381 H387 0.985 . S
C382 C376 1.379 . S
C382 C379 1.363 . S
C382 N380 1.356 . S
C383 C377 1.363 . S
C383 C378 1.379 . S
C383 N381 1.356 . S
N384 C376 1.356 . S
N384 H390 0.984 . S
N384 H391 0.984 . S
N385 C378 1.356 . S
N385 H388 0.984 . S
N385 H389 0.985 . S
H386 N381 0.984 . S
H387 N381 0.985 . S
H388 N385 0.984 . S
H389 N385 0.985 . S
H390 N384 0.984 . S
H391 N384 0.984 . S
H392 N380 0.984 . S
H393 N380 0.985 . S
C394 C395 1.363 . S
C394 C400 1.379 . S
C394 N402 1.356 . S
C395 C394 1.363 . S
C395 C401 1.363 . S
C396 C397 1.363 . S
C396 C401 1.379 . S
C396 N403 1.356 . S
C397 C396 1.363 . S
C397 C400 1.363 . S
N398 C400 1.356 . S
N398 H410 0.984 . S
N398 H411 0.985 . S
N399 C401 1.356 . S
N399 H404 0.984 . S
N399 H405 0.985 . S
C400 C394 1.379 . S
C400 C397 1.363 . S
C400 N398 1.356 . S
C401 C395 1.363 . S
C401 C396 1.379 . S
C401 N399 1.356 . S
N402 C394 1.356 . S
N402 H408 0.984 . S
N402 H409 0.984 . S
N403 C396 1.356 . S
N403 H406 0.984 . S
N403 H407 0.985 . S
H404 N399 0.984 . S
H405 N399 0.985 . S
H406 N403 0.984 . S
H407 N403 0.985 . S
H408 N402 0.984 . S
H409 N402 0.984 . S
H410 N398 0.984 . S
H411 N398 0.985 . S
C412 C413 1.363 . S
C412 C418 1.379 . S
C412 N420 1.356 . S
C413 C412 1.363 . S
C413 C419 1.363 . S
C414 C415 1.363 . S
C414 C419 1.379 . S
C414 N421 1.356 . S
C415 C414 1.363 . S
C415 C418 1.363 . S
N416 C418 1.356 . S
N416 H428 0.984 . S
N416 H429 0.985 . S
N417 C419 1.356 . S
N417 H422 0.984 . S
N417 H423 0.985 . S
C418 C412 1.379 . S
C418 C415 1.363 . S
C418 N416 1.356 . S
C419 C413 1.363 . S
C419 C414 1.379 . S
C419 N417 1.356 . S
N420 C412 1.356 . S
N420 H426 0.984 . S
N420 H427 0.984 . S
N421 C414 1.356 . S
N421 H424 0.984 . S
N421 H425 0.985 . S
H422 N417 0.984 . S
H423 N417 0.985 . S
H424 N421 0.984 . S
H425 N421 0.985 . S
H426 N420 0.984 . S
H427 N420 0.984 . S
H428 N416 0.984 . S
H429 N416 0.985 . S
C430 C431 1.363 . S
C430 C436 1.379 . S
C430 N438 1.356 . S
C431 C430 1.363 . S
C431 C437 1.363 . S
C432 C433 1.363 . S
C432 C437 1.379 . S
C432 N439 1.356 . S
C433 C432 1.363 . S
C433 C436 1.363 . S
N434 C436 1.356 . S
N434 H446 0.984 . S
N434 H447 0.985 . S
N435 C437 1.356 . S
N435 H440 0.984 . S
N435 H441 0.985 . S
C436 C430 1.379 . S
C436 C433 1.363 . S
C436 N434 1.356 . S
C437 C431 1.363 . S
C437 C432 1.379 . S
C437 N435 1.356 . S
N438 C430 1.356 . S
N438 H444 0.984 . S
N438 H445 0.984 . S
N439 C432 1.356 . S
N439 H442 0.984 . S
N439 H443 0.985 . S
H440 N435 0.984 . S
H441 N435 0.985 . S
H442 N439 0.984 . S
H443 N439 0.985 . S
H444 N438 0.984 . S
H445 N438 0.984 . S
H446 N434 0.984 . S
H447 N434 0.985 . S
C448 C449 1.363 . S
C448 C454 1.379 . S
C448 N456 1.356 . S
C449 C448 1.363 . S
C449 C455 1.363 . S
C450 C451 1.363 . S
C450 C455 1.379 . S
C450 N457 1.356 . S
C451 C450 1.363 . S
C451 C454 1.363 . S
N452 C454 1.356 . S
N452 H464 0.984 . S
N452 H465 0.985 . S
N453 C455 1.356 . S
N453 H458 0.984 . S
N453 H459 0.985 . S
C454 C448 1.379 . S
C454 C451 1.363 . S
C454 N452 1.356 . S
C455 C449 1.363 . S
C455 C450 1.379 . S
C455 N453 1.356 . S
N456 C448 1.356 . S
N456 H462 0.984 . S
N456 H463 0.984 . S
N457 C450 1.356 . S
N457 H460 0.984 . S
N457 H461 0.985 . S
H458 N453 0.984 . S
H459 N453 0.985 . S
H460 N457 0.984 . S
H461 N457 0.985 . S
H462 N456 0.984 . S
H463 N456 0.984 . S
H464 N452 0.984 . S
H465 N452 0.985 . S
C466 C467 1.363 . S
C466 C472 1.379 . S
C466 N474 1.356 . S
C467 C466 1.363 . S
C467 C473 1.363 . S
C468 C469 1.363 . S
C468 C473 1.379 . S
C468 N475 1.356 . S
C469 C468 1.363 . S
C469 C472 1.363 . S
N470 C472 1.356 . S
N470 H482 0.984 . S
N470 H483 0.985 . S
N471 C473 1.356 . S
N471 H476 0.984 . S
N471 H477 0.985 . S
C472 C466 1.379 . S
C472 C469 1.363 . S
C472 N470 1.356 . S
C473 C467 1.363 . S
C473 C468 1.379 . S
C473 N471 1.356 . S
N474 C466 1.356 . S
N474 H480 0.984 . S
N474 H481 0.984 . S
N475 C468 1.356 . S
N475 H478 0.984 . S
N475 H479 0.985 . S
H476 N471 0.984 . S
H477 N471 0.985 . S
H478 N475 0.984 . S
H479 N475 0.985 . S
H480 N474 0.984 . S
H481 N474 0.984 . S
H482 N470 0.984 . S
H483 N470 0.985 . S
C484 C485 1.363 . S
C484 C490 1.379 . S
C484 N492 1.356 . S
C485 C484 1.363 . S
C485 C491 1.363 . S
C486 C487 1.363 . S
C486 C491 1.379 . S
C486 N493 1.356 . S
C487 C486 1.363 . S
C487 C490 1.363 . S
N488 C490 1.356 . S
N488 H500 0.984 . S
N488 H501 0.985 . S
N489 C491 1.356 . S
N489 H494 0.984 . S
N489 H495 0.985 . S
C490 C484 1.379 . S
C490 C487 1.363 . S
C490 N488 1.356 . S
C491 C485 1.363 . S
C491 C486 1.379 . S
C491 N489 1.356 . S
N492 C484 1.356 . S
N492 H498 0.984 . S
N492 H499 0.984 . S
N493 C486 1.356 . S
N493 H496 0.984 . S
N493 H497 0.985 . S
H494 N489 0.984 . S
H495 N489 0.985 . S
H496 N493 0.984 . S
H497 N493 0.985 . S
H498 N492 0.984 . S
H499 N492 0.984 . S
H500 N488 0.984 . S
H501 N488 0.985 . S
C502 C503 1.363 . S
C502 C508 1.379 . S
C502 N510 1.356 . S
C503 C502 1.363 . S
C503 C509 1.363 . S
C504 C505 1.363 . S
C504 C509 1.379 . S
C504 N511 1.356 . S
C505 C504 1.363 . S
C505 C508 1.363 . S
N506 C508 1.356 . S
N506 H518 0.984 1_554 S
N506 H519 0.985 . S
N507 C509 1.356 . S
N507 H512 0.984 . S
N507 H513 0.985 . S
C508 C502 1.379 . S
C508 C505 1.363 . S
C508 N506 1.356 . S
C509 C503 1.363 . S
C509 C504 1.379 . S
C509 N507 1.356 . S
N510 C502 1.356 . S
N510 H516 0.984 . S
N510 H517 0.984 . S
N511 C504 1.356 . S
N511 H514 0.984 . S
N511 H515 0.985 . S
H512 N507 0.984 . S
H513 N507 0.985 . S
H514 N511 0.984 . S
H515 N511 0.985 . S
H516 N510 0.984 . S
H517 N510 0.984 . S
H518 N506 0.984 1_556 S
H519 N506 0.985 . S
C520 C521 1.363 . S
C520 C526 1.379 . S
C520 N528 1.356 . S
C521 C520 1.363 . S
C521 C527 1.363 . S
C522 C523 1.363 . S
C522 C527 1.379 . S
C522 N529 1.356 1_554 S
C523 C522 1.363 . S
C523 C526 1.363 . S
N524 C526 1.356 . S
N524 H536 0.984 . S
N524 H537 0.985 . S
N525 C527 1.356 . S
N525 H530 0.984 . S
N525 H531 0.985 . S
C526 C520 1.379 . S
C526 C523 1.363 . S
C526 N524 1.356 . S
C527 C521 1.363 . S
C527 C522 1.379 . S
C527 N525 1.356 . S
N528 C520 1.356 . S
N528 H534 0.984 . S
N528 H535 0.984 . S
N529 C522 1.356 1_556 S
N529 H532 0.984 . S
N529 H533 0.985 . S
H530 N525 0.984 . S
H531 N525 0.985 . S
H532 N529 0.984 . S
H533 N529 0.985 . S
H534 N528 0.984 . S
H535 N528 0.984 . S
H536 N524 0.984 . S
H537 N524 0.985 . S
C538 C539 1.363 . S
C538 C544 1.379 . S
C538 N546 1.356 . S
C539 C538 1.363 . S
C539 C545 1.363 . S
C540 C541 1.363 . S
C540 C545 1.379 . S
C540 N547 1.356 . S
C541 C540 1.363 . S
C541 C544 1.363 . S
N542 C544 1.348 1_556 S
N542 H554 0.993 . S
N542 H555 0.985 . S
N543 C545 1.356 . S
N543 H548 0.984 . S
N543 H549 0.985 . S
C544 C538 1.379 . S
C544 C541 1.363 . S
C544 N542 1.348 1_554 S
C545 C539 1.363 . S
C545 C540 1.379 . S
C545 N543 1.356 . S
N546 C538 1.356 . S
N546 H552 0.984 . S
N546 H553 0.984 . S
N547 C540 1.356 . S
N547 H550 0.984 . S
N547 H551 0.985 . S
H548 N543 0.984 . S
H549 N543 0.985 . S
H550 N547 0.984 . S
H551 N547 0.985 . S
H552 N546 0.984 . S
H553 N546 0.984 . S
H554 N542 0.993 . S
H555 N542 0.985 . S
C556 C557 1.363 . S
C556 C562 1.379 . S
C556 N564 1.356 . S
C557 C556 1.363 . S
C557 C563 1.363 . S
C558 C559 1.363 . S
C558 C563 1.379 . S
C558 N565 1.356 . S
C559 C558 1.363 . S
C559 C562 1.363 . S
N560 C562 1.356 . S
N560 H572 0.984 . S
N560 H573 0.985 . S
N561 C563 1.356 . S
N561 H566 0.984 . S
N561 H567 0.985 . S
C562 C556 1.379 . S
C562 C559 1.363 . S
C562 N560 1.356 . S
C563 C557 1.363 . S
C563 C558 1.379 . S
C563 N561 1.356 . S
N564 C556 1.356 . S
N564 H570 0.984 . S
N564 H571 0.984 . S
N565 C558 1.356 . S
N565 H568 0.984 . S
N565 H569 0.985 . S
H566 N561 0.984 . S
H567 N561 0.985 . S
H568 N565 0.984 . S
H569 N565 0.985 . S
H570 N564 0.984 . S
H571 N564 0.984 . S
H572 N560 0.984 . S
H573 N560 0.985 . S
C574 C575 1.363 . S
C574 C580 1.379 . S
C574 N582 1.356 . S
C575 C574 1.363 . S
C575 C581 1.363 . S
C576 C577 1.363 . S
C576 C581 1.379 . S
C576 N583 1.356 . S
C577 C576 1.363 . S
C577 C580 1.363 . S
N578 C580 1.356 . S
N578 H590 0.984 . S
N578 H591 0.985 . S
N579 C581 1.356 . S
N579 H584 0.984 . S
N579 H585 0.985 . S
C580 C574 1.379 . S
C580 C577 1.363 . S
C580 N578 1.356 . S
C581 C575 1.363 . S
C581 C576 1.379 . S
C581 N579 1.356 . S
N582 C574 1.356 . S
N582 H588 0.984 . S
N582 H589 0.984 . S
N583 C576 1.356 . S
N583 H586 0.984 . S
N583 H587 0.985 1_556 S
H584 N579 0.984 . S
H585 N579 0.985 . S
H586 N583 0.984 . S
H587 N583 0.985 1_554 S
H588 N582 0.984 . S
H589 N582 0.984 . S
H590 N578 0.984 . S
H591 N578 0.985 . S
C592 C593 1.363 . S
C592 C598 1.379 . S
C592 N600 1.356 . S
C593 C592 1.363 . S
C593 C599 1.363 . S
C594 C595 1.363 . S
C594 C599 1.379 . S
C594 N601 1.356 . S
C595 C594 1.363 . S
C595 C598 1.363 . S
N596 C598 1.356 . S
N596 H608 0.984 . S
N596 H609 0.985 . S
N597 C599 1.356 . S
N597 H602 0.984 . S
N597 H603 0.985 . S
C598 C592 1.379 . S
C598 C595 1.363 . S
C598 N596 1.356 . S
C599 C593 1.363 . S
C599 C594 1.379 . S
C599 N597 1.356 . S
N600 C592 1.356 . S
N600 H606 0.984 . S
N600 H607 0.984 . S
N601 C594 1.356 . S
N601 H604 0.984 . S
N601 H605 0.985 . S
H602 N597 0.984 . S
H603 N597 0.985 . S
H604 N601 0.984 . S
H605 N601 0.985 . S
H606 N600 0.984 . S
H607 N600 0.984 . S
H608 N596 0.984 . S
H609 N596 0.985 . S
C610 C611 1.363 . S
C610 C616 1.379 . S
C610 N618 1.356 . S
C611 C610 1.363 . S
C611 C617 1.363 . S
C612 C613 1.363 . S
C612 C617 1.379 . S
C612 N619 1.356 1_556 S
C613 C612 1.363 . S
C613 C616 1.363 . S
N614 C616 1.356 . S
N614 H626 0.984 . S
N614 H627 0.985 . S
N615 C617 1.356 . S
N615 H620 0.984 . S
N615 H621 0.985 1_556 S
C616 C610 1.379 . S
C616 C613 1.363 . S
C616 N614 1.356 . S
C617 C611 1.363 . S
C617 C612 1.379 . S
C617 N615 1.356 . S
N618 C610 1.356 . S
N618 H624 0.984 . S
N618 H625 0.984 . S
N619 C612 1.356 1_554 S
N619 H622 0.984 . S
N619 H623 0.985 . S
H620 N615 0.984 . S
H621 N615 0.985 1_554 S
H622 N619 0.984 . S
H623 N619 0.985 . S
H624 N618 0.984 . S
H625 N618 0.984 . S
H626 N614 0.984 . S
H627 N614 0.985 . S
C628 C629 1.363 . S
C628 C634 1.379 . S
C628 N636 1.356 . S
C629 C628 1.363 . S
C629 C635 1.363 . S
C630 C631 1.363 . S
C630 C635 1.379 . S
C630 N637 1.356 . S
C631 C630 1.363 . S
C631 C634 1.363 . S
N632 C634 1.356 . S
N632 H644 0.984 . S
N632 H645 0.985 . S
N633 C635 1.356 . S
N633 H638 0.984 . S
N633 H639 0.985 . S
C634 C628 1.379 . S
C634 C631 1.363 . S
C634 N632 1.356 . S
C635 C629 1.363 . S
C635 C630 1.379 . S
C635 N633 1.356 . S
N636 C628 1.356 . S
N636 H642 0.984 . S
N636 H643 0.984 . S
N637 C630 1.356 . S
N637 H640 0.984 . S
N637 H641 0.985 . S
H638 N633 0.984 . S
H639 N633 0.985 . S
H640 N637 0.984 . S
H641 N637 0.985 . S
H642 N636 0.984 . S
H643 N636 0.984 . S
H644 N632 0.984 . S
H645 N632 0.985 . S
C646 C647 1.363 . S
C646 C652 1.379 . S
C646 N654 1.356 . S
C647 C646 1.363 . S
C647 C653 1.363 . S
C648 C649 1.363 . S
C648 C653 1.379 . S
C648 N655 1.356 . S
C649 C648 1.363 . S
C649 C652 1.363 . S
N650 C652 1.356 . S
N650 H662 0.984 1_554 S
N650 H663 0.985 . S
N651 C653 1.356 . S
N651 H656 0.984 . S
N651 H657 0.985 . S
C652 C646 1.379 . S
C652 C649 1.363 . S
C652 N650 1.356 . S
C653 C647 1.363 . S
C653 C648 1.379 . S
C653 N651 1.356 . S
N654 C646 1.356 . S
N654 H660 0.984 . S
N654 H661 0.984 . S
N655 C648 1.356 . S
N655 H658 0.984 . S
N655 H659 0.985 . S
H656 N651 0.984 . S
H657 N651 0.985 . S
H658 N655 0.984 . S
H659 N655 0.985 . S
H660 N654 0.984 . S
H661 N654 0.984 . S
H662 N650 0.984 1_556 S
H663 N650 0.985 . S
C664 C665 1.363 . S
C664 C670 1.379 . S
C664 N672 1.356 . S
C665 C664 1.363 . S
C665 C671 1.363 . S
C666 C667 1.363 . S
C666 C671 1.379 . S
C666 N673 1.356 . S
C667 C666 1.363 . S
C667 C670 1.363 . S
N668 C670 1.356 1_554 S
N668 H680 0.984 . S
N668 H681 0.985 . S
N669 C671 1.356 . S
N669 H674 0.984 . S
N669 H675 0.985 . S
C670 C664 1.379 . S
C670 C667 1.363 . S
C670 N668 1.356 1_556 S
C671 C665 1.363 . S
C671 C666 1.379 . S
C671 N669 1.356 . S
N672 C664 1.356 . S
N672 H678 1.004 . S
N672 H679 0.984 . S
N673 C666 1.356 . S
N673 H676 0.984 . S
N673 H677 0.985 . S
H674 N669 0.984 . S
H675 N669 0.985 . S
H676 N673 0.984 . S
H677 N673 0.985 . S
H678 N672 1.004 . S
H679 N672 0.984 . S
H680 N668 0.984 . S
H681 N668 0.985 . S
C682 C683 1.363 . S
C682 C688 1.379 . S
C682 N690 1.356 . S
C683 C682 1.363 . S
C683 C689 1.363 . S
C684 C685 1.363 . S
C684 C689 1.379 . S
C684 N691 1.356 . S
C685 C684 1.363 . S
C685 C688 1.363 . S
N686 C688 1.356 . S
N686 H698 0.984 . S
N686 H699 0.985 . S
N687 C689 1.356 . S
N687 H692 0.984 . S
N687 H693 0.985 . S
C688 C682 1.379 . S
C688 C685 1.363 . S
C688 N686 1.356 . S
C689 C683 1.363 . S
C689 C684 1.379 . S
C689 N687 1.356 . S
N690 C682 1.356 . S
N690 H696 0.984 . S
N690 H697 0.984 . S
N691 C684 1.356 . S
N691 H694 0.984 . S
N691 H695 0.985 . S
H692 N687 0.984 . S
H693 N687 0.985 . S
H694 N691 0.984 . S
H695 N691 0.985 . S
H696 N690 0.984 . S
H697 N690 0.984 . S
H698 N686 0.984 . S
H699 N686 0.985 . S
C700 C701 1.363 . S
C700 C706 1.379 . S
C700 N708 1.356 . S
C701 C700 1.363 . S
C701 C707 1.363 . S
C702 C703 1.363 . S
C702 C707 1.379 . S
C702 N709 1.356 . S
C703 C702 1.363 . S
C703 C706 1.363 . S
N704 C706 1.348 1_554 S
N704 H716 0.993 . S
N704 H717 0.984 . S
N705 C707 1.356 . S
N705 H710 0.984 . S
N705 H711 0.985 . S
C706 C700 1.379 . S
C706 C703 1.363 . S
C706 N704 1.348 1_556 S
C707 C701 1.363 . S
C707 C702 1.379 . S
C707 N705 1.356 . S
N708 C700 1.356 . S
N708 H714 0.984 . S
N708 H715 0.984 . S
N709 C702 1.356 . S
N709 H712 0.984 . S
N709 H713 0.985 . S
H710 N705 0.984 . S
H711 N705 0.985 . S
H712 N709 0.984 . S
H713 N709 0.985 . S
H714 N708 0.984 . S
H715 N708 0.984 . S
H716 N704 0.993 . S
H717 N704 0.984 . S
C718 C719 1.363 . S
C718 C724 1.379 . S
C718 N726 1.356 . S
C719 C718 1.363 . S
C719 C725 1.363 . S
C720 C721 1.363 . S
C720 C725 1.379 . S
C720 N727 1.356 . S
C721 C720 1.363 . S
C721 C724 1.363 . S
N722 C724 1.356 . S
N722 H734 0.984 . S
N722 H735 0.985 . S
N723 C725 1.356 . S
N723 H728 0.984 . S
N723 H729 0.985 . S
C724 C718 1.379 . S
C724 C721 1.363 . S
C724 N722 1.356 . S
C725 C719 1.363 . S
C725 C720 1.379 . S
C725 N723 1.356 . S
N726 C718 1.356 . S
N726 H732 0.984 . S
N726 H733 0.984 . S
N727 C720 1.356 . S
N727 H730 0.984 . S
N727 H731 0.985 . S
H728 N723 0.984 . S
H729 N723 0.985 . S
H730 N727 0.984 . S
H731 N727 0.985 . S
H732 N726 0.984 . S
H733 N726 0.984 . S
H734 N722 0.984 . S
H735 N722 0.985 . S
C736 C737 1.363 . S
C736 C742 1.379 . S
C736 N744 1.356 . S
C737 C736 1.363 . S
C737 C743 1.363 . S
C738 C739 1.363 . S
C738 C743 1.379 . S
C738 N745 1.356 . S
C739 C738 1.363 . S
C739 C742 1.363 . S
N740 C742 1.356 . S
N740 H752 0.984 1_554 S
N740 H753 0.985 . S
N741 C743 1.356 . S
N741 H746 0.984 . S
N741 H747 0.985 . S
C742 C736 1.379 . S
C742 C739 1.363 . S
C742 N740 1.356 . S
C743 C737 1.363 . S
C743 C738 1.379 . S
C743 N741 1.356 . S
N744 C736 1.356 . S
N744 H750 0.984 . S
N744 H751 0.984 . S
N745 C738 1.356 . S
N745 H748 0.984 . S
N745 H749 0.985 . S
H746 N741 0.984 . S
H747 N741 0.985 . S
H748 N745 0.984 . S
H749 N745 0.985 . S
H750 N744 0.984 . S
H751 N744 0.984 . S
H752 N740 0.984 1_556 S
H753 N740 0.985 . S
C754 C755 1.363 . S
C754 C760 1.379 . S
C754 N762 1.356 . S
C755 C754 1.363 . S
C755 C761 1.363 . S
C756 C757 1.363 . S
C756 C761 1.379 . S
C756 N763 1.356 . S
C757 C756 1.363 . S
C757 C760 1.363 . S
N758 C760 1.356 . S
N758 H770 0.984 . S
N758 H771 0.985 . S
N759 C761 1.356 . S
N759 H764 0.984 . S
N759 H765 0.985 . S
C760 C754 1.379 . S
C760 C757 1.363 . S
C760 N758 1.356 . S
C761 C755 1.363 . S
C761 C756 1.379 . S
C761 N759 1.356 . S
N762 C754 1.356 . S
N762 H768 0.984 . S
N762 H769 0.984 . S
N763 C756 1.356 . S
N763 H766 0.984 . S
N763 H767 0.985 . S
H764 N759 0.984 . S
H765 N759 0.985 . S
H766 N763 0.984 . S
H767 N763 0.985 . S
H768 N762 0.984 . S
H769 N762 0.984 . S
H770 N758 0.984 . S
H771 N758 0.985 . S
C772 C773 1.363 . S
C772 C778 1.379 . S
C772 N780 1.356 . S
C773 C772 1.363 . S
C773 C779 1.363 . S
C774 C775 1.363 . S
C774 C779 1.379 . S
C774 N781 1.356 . S
C775 C774 1.363 . S
C775 C778 1.363 . S
N776 C778 1.356 . S
N776 H788 0.984 1_554 S
N776 H789 0.985 . S
N777 C779 1.356 . S
N777 H782 0.984 . S
N777 H783 0.985 . S
C778 C772 1.379 . S
C778 C775 1.363 . S
C778 N776 1.356 . S
C779 C773 1.363 . S
C779 C774 1.379 . S
C779 N777 1.356 . S
N780 C772 1.356 . S
N780 H786 0.984 . S
N780 H787 0.984 . S
N781 C774 1.356 . S
N781 H784 0.984 . S
N781 H785 0.985 . S
H782 N777 0.984 . S
H783 N777 0.985 . S
H784 N781 0.984 . S
H785 N781 0.985 . S
H786 N780 0.984 . S
H787 N780 0.984 . S
H788 N776 0.984 1_556 S
H789 N776 0.985 . S
C790 C791 1.363 . S
C790 C796 1.379 . S
C790 N798 1.356 . S
C791 C790 1.363 . S
C791 C797 1.363 . S
C792 C793 1.363 . S
C792 C797 1.379 . S
C792 N799 1.356 . S
C793 C792 1.363 . S
C793 C796 1.363 . S
N794 C796 1.356 . S
N794 H806 0.984 1_556 S
N794 H807 0.985 . S
N795 C797 1.356 . S
N795 H800 0.984 . S
N795 H801 0.985 . S
C796 C790 1.379 . S
C796 C793 1.363 . S
C796 N794 1.356 . S
C797 C791 1.363 . S
C797 C792 1.379 . S
C797 N795 1.356 . S
N798 C790 1.356 . S
N798 H804 0.984 . S
N798 H805 0.984 . S
N799 C792 1.356 . S
N799 H802 0.984 . S
N799 H803 0.985 . S
H800 N795 0.984 . S
H801 N795 0.985 . S
H802 N799 0.984 . S
H803 N799 0.985 . S
H804 N798 0.984 . S
H805 N798 0.984 . S
H806 N794 0.984 1_554 S
H807 N794 0.985 . S
C808 C809 1.363 . S
C808 C814 1.379 . S
C808 N816 1.356 . S
C809 C808 1.363 . S
C809 C815 1.363 . S
C810 C811 1.363 . S
C810 C815 1.379 . S
C810 N817 1.356 . S
C811 C810 1.363 . S
C811 C814 1.363 . S
N812 C814 1.356 . S
N812 H824 0.984 . S
N812 H825 0.985 . S
N813 C815 1.356 . S
N813 H818 0.984 . S
N813 H819 0.985 . S
C814 C808 1.379 . S
C814 C811 1.363 . S
C814 N812 1.356 . S
C815 C809 1.363 . S
C815 C810 1.379 . S
C815 N813 1.356 . S
N816 C808 1.356 . S
N816 H822 0.984 . S
N816 H823 0.984 . S
N817 C810 1.356 . S
N817 H820 0.984 . S
N817 H821 0.985 . S
H818 N813 0.984 . S
H819 N813 0.985 . S
H820 N817 0.984 . S
H821 N817 0.985 . S
H822 N816 0.984 . S
H823 N816 0.984 . S
H824 N812 0.984 . S
H825 N812 0.985 . S
C826 C827 1.363 . S
C826 C832 1.379 . S
C826 N834 1.356 . S
C827 C826 1.363 . S
C827 C833 1.363 . S
C828 C829 1.363 . S
C828 C833 1.379 . S
C828 N835 1.356 . S
C829 C828 1.363 . S
C829 C832 1.363 . S
N830 C832 1.356 . S
N830 H842 0.984 . S
N830 H843 0.985 . S
N831 C833 1.356 . S
N831 H836 0.984 . S
N831 H837 0.985 . S
C832 C826 1.379 . S
C832 C829 1.363 . S
C832 N830 1.356 . S
C833 C827 1.363 . S
C833 C828 1.379 . S
C833 N831 1.356 . S
N834 C826 1.356 . S
N834 H840 0.984 . S
N834 H841 0.984 . S
N835 C828 1.356 . S
N835 H838 0.984 . S
N835 H839 0.985 . S
H836 N831 0.984 . S
H837 N831 0.985 . S
H838 N835 0.984 . S
H839 N835 0.985 . S
H840 N834 0.984 . S
H841 N834 0.984 . S
H842 N830 0.984 . S
H843 N830 0.985 . S
C844 C845 1.363 . S
C844 C850 1.379 . S
C844 N852 1.356 . S
C845 C844 1.363 . S
C845 C851 1.363 . S
C846 C847 1.363 . S
C846 C851 1.379 . S
C846 N853 1.356 . S
C847 C846 1.363 . S
C847 C850 1.363 . S
N848 C850 1.356 . S
N848 H860 0.984 . S
N848 H861 0.985 . S
N849 C851 1.356 . S
N849 H854 0.984 . S
N849 H855 0.985 . S
C850 C844 1.379 . S
C850 C847 1.363 . S
C850 N848 1.356 . S
C851 C845 1.363 . S
C851 C846 1.379 . S
C851 N849 1.356 . S
N852 C844 1.356 . S
N852 H858 0.984 . S
N852 H859 0.984 . S
N853 C846 1.356 . S
N853 H856 0.984 . S
N853 H857 0.985 . S
H854 N849 0.984 . S
H855 N849 0.985 . S
H856 N853 0.984 . S
H857 N853 0.985 . S
H858 N852 0.984 . S
H859 N852 0.984 . S
H860 N848 0.984 . S
H861 N848 0.985 . S
C862 C863 1.363 . S
C862 C868 1.379 . S
C862 N870 1.356 . S
C863 C862 1.363 . S
C863 C869 1.363 . S
C864 C865 1.363 . S
C864 C869 1.379 . S
C864 N871 1.356 . S
C865 C864 1.363 . S
C865 C868 1.363 . S
N866 C868 1.356 . S
N866 H878 0.984 . S
N866 H879 0.985 . S
N867 C869 1.356 . S
N867 H872 0.984 . S
N867 H873 0.985 . S
C868 C862 1.379 . S
C868 C865 1.363 . S
C868 N866 1.356 . S
C869 C863 1.363 . S
C869 C864 1.379 . S
C869 N867 1.356 . S
N870 C862 1.356 . S
N870 H876 0.984 . S
N870 H877 0.984 . S
N871 C864 1.356 . S
N871 H874 0.984 . S
N871 H875 0.985 . S
H872 N867 0.984 . S
H873 N867 0.985 . S
H874 N871 0.984 . S
H875 N871 0.985 . S
H876 N870 0.984 . S
H877 N870 0.984 . S
H878 N866 0.984 . S
H879 N866 0.985 . S
C880 C881 1.363 . S
C880 C886 1.379 . S
C880 N888 1.356 . S
C881 C880 1.363 . S
C881 C887 1.363 . S
C882 C883 1.363 . S
C882 C887 1.379 . S
C882 N889 1.356 . S
C883 C882 1.363 . S
C883 C886 1.363 . S
N884 C886 1.356 . S
N884 H896 0.984 . S
N884 H897 0.985 . S
N885 C887 1.356 . S
N885 H890 0.984 . S
N885 H891 0.985 . S
C886 C880 1.379 . S
C886 C883 1.363 . S
C886 N884 1.356 . S
C887 C881 1.363 . S
C887 C882 1.379 . S
C887 N885 1.356 . S
N888 C880 1.356 . S
N888 H894 0.984 . S
N888 H895 0.984 . S
N889 C882 1.356 . S
N889 H892 0.984 . S
N889 H893 0.985 . S
H890 N885 0.984 . S
H891 N885 0.985 . S
H892 N889 0.984 . S
H893 N889 0.985 . S
H894 N888 0.984 . S
H895 N888 0.984 . S
H896 N884 0.984 . S
H897 N884 0.985 . S
C898 C899 1.363 . S
C898 C904 1.379 . S
C898 N906 1.356 . S
C899 C898 1.363 . S
C899 C905 1.363 . S
C900 C901 1.363 . S
C900 C905 1.379 . S
C900 N907 1.356 . S
C901 C900 1.363 . S
C901 C904 1.363 . S
N902 C904 1.356 . S
N902 H914 0.984 . S
N902 H915 0.985 . S
N903 C905 1.356 . S
N903 H908 0.984 . S
N903 H909 0.985 . S
C904 C898 1.379 . S
C904 C901 1.363 . S
C904 N902 1.356 . S
C905 C899 1.363 . S
C905 C900 1.379 . S
C905 N903 1.356 . S
N906 C898 1.356 . S
N906 H912 0.984 . S
N906 H913 0.984 . S
N907 C900 1.356 . S
N907 H910 0.984 . S
N907 H911 0.985 . S
H908 N903 0.984 . S
H909 N903 0.985 . S
H910 N907 0.984 . S
H911 N907 0.985 . S
H912 N906 0.984 . S
H913 N906 0.984 . S
H914 N902 0.984 . S
H915 N902 0.985 . S
C916 C917 1.363 . S
C916 C922 1.379 . S
C916 N924 1.356 . S
C917 C916 1.363 . S
C917 C923 1.363 . S
C918 C919 1.363 . S
C918 C923 1.379 . S
C918 N925 1.356 . S
C919 C918 1.363 . S
C919 C922 1.363 . S
N920 C922 1.356 . S
N920 H932 0.984 . S
N920 H933 0.985 . S
N921 C923 1.356 . S
N921 H926 0.984 . S
N921 H927 0.985 . S
C922 C916 1.379 . S
C922 C919 1.363 . S
C922 N920 1.356 . S
C923 C917 1.363 . S
C923 C918 1.379 . S
C923 N921 1.356 . S
N924 C916 1.356 . S
N924 H930 0.984 . S
N924 H931 0.984 . S
N925 C918 1.356 . S
N925 H928 0.984 . S
N925 H929 0.985 . S
H926 N921 0.984 . S
H927 N921 0.985 . S
H928 N925 0.984 . S
H929 N925 0.985 . S
H930 N924 0.984 . S
H931 N924 0.984 . S
H932 N920 0.984 . S
H933 N920 0.985 . S
C934 C935 1.363 . S
C934 C940 1.379 . S
C934 N942 1.356 . S
C935 C934 1.363 . S
C935 C941 1.363 . S
C936 C937 1.363 . S
C936 C941 1.379 . S
C936 N943 1.356 . S
C937 C936 1.363 . S
C937 C940 1.363 . S
N938 C940 1.356 . S
N938 H950 0.984 . S
N938 H951 0.985 . S
N939 C941 1.356 . S
N939 H944 0.984 . S
N939 H945 0.985 . S
C940 C934 1.379 . S
C940 C937 1.363 . S
C940 N938 1.356 . S
C941 C935 1.363 . S
C941 C936 1.379 . S
C941 N939 1.356 . S
N942 C934 1.356 . S
N942 H948 0.984 . S
N942 H949 0.984 . S
N943 C936 1.356 . S
N943 H946 0.984 . S
N943 H947 0.985 . S
H944 N939 0.984 . S
H945 N939 0.985 . S
H946 N943 0.984 . S
H947 N943 0.985 . S
H948 N942 0.984 . S
H949 N942 0.984 . S
H950 N938 0.984 . S
H951 N938 0.985 . S
C952 C953 1.363 . S
C952 C958 1.379 . S
C952 N960 1.356 . S
C953 C952 1.363 . S
C953 C959 1.363 . S
C954 C955 1.363 . S
C954 C959 1.379 . S
C954 N961 1.356 . S
C955 C954 1.363 . S
C955 C958 1.363 . S
N956 C958 1.356 . S
N956 H968 0.984 . S
N956 H969 0.985 . S
N957 C959 1.356 . S
N957 H962 0.984 . S
N957 H963 0.985 . S
C958 C952 1.379 . S
C958 C955 1.363 . S
C958 N956 1.356 . S
C959 C953 1.363 . S
C959 C954 1.379 . S
C959 N957 1.356 . S
N960 C952 1.356 . S
N960 H966 0.984 . S
N960 H967 0.984 . S
N961 C954 1.356 . S
N961 H964 0.984 . S
N961 H965 0.985 . S
H962 N957 0.984 . S
H963 N957 0.985 . S
H964 N961 0.984 . S
H965 N961 0.985 . S
H966 N960 0.984 . S
H967 N960 0.984 . S
H968 N956 0.984 . S
H969 N956 0.985 . S
C970 C971 1.363 . S
C970 C976 1.379 . S
C970 N978 1.356 . S
C971 C970 1.363 . S
C971 C977 1.363 . S
C972 C973 1.363 . S
C972 C977 1.379 . S
C972 N979 1.356 . S
C973 C972 1.363 . S
C973 C976 1.363 . S
N974 C976 1.356 . S
N974 H986 0.984 . S
N974 H987 0.985 . S
N975 C977 1.356 . S
N975 H980 0.984 . S
N975 H981 0.985 . S
C976 C970 1.379 . S
C976 C973 1.363 . S
C976 N974 1.356 . S
C977 C971 1.363 . S
C977 C972 1.379 . S
C977 N975 1.356 . S
N978 C970 1.356 . S
N978 H984 0.984 . S
N978 H985 0.984 . S
N979 C972 1.356 . S
N979 H982 0.984 . S
N979 H983 0.985 . S
H980 N975 0.984 . S
H981 N975 0.985 . S
H982 N979 0.984 . S
H983 N979 0.985 . S
H984 N978 0.984 . S
H985 N978 0.984 . S
H986 N974 0.984 . S
H987 N974 0.985 . S
C988 C989 1.363 . S
C988 C994 1.379 . S
C988 N996 1.356 . S
C989 C988 1.363 . S
C989 C995 1.363 . S
C990 C991 1.363 . S
C990 C995 1.379 . S
C990 N997 1.356 . S
C991 C990 1.363 . S
C991 C994 1.363 . S
N992 C994 1.356 . S
N992 H1004 0.984 . S
N992 H1005 0.985 . S
N993 C995 1.356 . S
N993 H998 0.984 . S
N993 H999 0.985 . S
C994 C988 1.379 . S
C994 C991 1.363 . S
C994 N992 1.356 . S
C995 C989 1.363 . S
C995 C990 1.379 . S
C995 N993 1.356 . S
N996 C988 1.356 . S
N996 H1002 0.984 . S
N996 H1003 0.984 . S
N997 C990 1.356 . S
N997 H1000 0.984 . S
N997 H1001 0.985 . S
H998 N993 0.984 . S
H999 N993 0.985 . S
H1000 N997 0.984 . S
H1001 N997 0.985 . S
H1002 N996 0.984 . S
H1003 N996 0.984 . S
H1004 N992 0.984 . S
H1005 N992 0.985 . S
C1006 C1007 1.363 . S
C1006 C1012 1.379 . S
C1006 N1014 1.356 . S
C1007 C1006 1.363 . S
C1007 C1013 1.363 . S
C1008 C1009 1.363 . S
C1008 C1013 1.379 . S
C1008 N1015 1.356 . S
C1009 C1008 1.363 . S
C1009 C1012 1.363 . S
N1010 C1012 1.356 . S
N1010 H1022 0.984 . S
N1010 H1023 0.985 . S
N1011 C1013 1.356 . S
N1011 H1016 0.984 . S
N1011 H1017 0.985 . S
C1012 C1006 1.379 . S
C1012 C1009 1.363 . S
C1012 N1010 1.356 . S
C1013 C1007 1.363 . S
C1013 C1008 1.379 . S
C1013 N1011 1.356 . S
N1014 C1006 1.356 . S
N1014 H1020 0.984 . S
N1014 H1021 0.984 . S
N1015 C1008 1.356 . S
N1015 H1018 0.984 . S
N1015 H1019 0.985 . S
H1016 N1011 0.984 . S
H1017 N1011 0.985 . S
H1018 N1015 0.984 . S
H1019 N1015 0.985 . S
H1020 N1014 0.984 . S
H1021 N1014 0.984 . S
H1022 N1010 0.984 . S
H1023 N1010 0.985 . S
C1024 C1025 1.363 . S
C1024 C1030 1.379 . S
C1024 N1032 1.356 . S
C1025 C1024 1.363 . S
C1025 C1031 1.363 . S
C1026 C1027 1.363 . S
C1026 C1031 1.379 . S
C1026 N1033 1.356 . S
C1027 C1026 1.363 . S
C1027 C1030 1.363 . S
N1028 C1030 1.356 . S
N1028 H1040 0.984 . S
N1028 H1041 0.985 . S
N1029 C1031 1.356 . S
N1029 H1034 0.984 . S
N1029 H1035 0.985 . S
C1030 C1024 1.379 . S
C1030 C1027 1.363 . S
C1030 N1028 1.356 . S
C1031 C1025 1.363 . S
C1031 C1026 1.379 . S
C1031 N1029 1.356 . S
N1032 C1024 1.356 . S
N1032 H1038 0.984 . S
N1032 H1039 0.984 . S
N1033 C1026 1.356 . S
N1033 H1036 0.984 . S
N1033 H1037 0.985 . S
H1034 N1029 0.984 . S
H1035 N1029 0.985 . S
H1036 N1033 0.984 . S
H1037 N1033 0.985 . S
H1038 N1032 0.984 . S
H1039 N1032 0.984 . S
H1040 N1028 0.984 . S
H1041 N1028 0.985 . S
C1042 C1043 1.363 . S
C1042 C1048 1.379 . S
C1042 N1050 1.356 . S
C1043 C1042 1.363 . S
C1043 C1049 1.363 . S
C1044 C1045 1.363 . S
C1044 C1049 1.379 . S
C1044 N1051 1.356 . S
C1045 C1044 1.363 . S
C1045 C1048 1.363 . S
N1046 C1048 1.356 . S
N1046 H1058 0.984 . S
N1046 H1059 0.985 . S
N1047 C1049 1.356 . S
N1047 H1052 0.984 . S
N1047 H1053 0.985 . S
C1048 C1042 1.379 . S
C1048 C1045 1.363 . S
C1048 N1046 1.356 . S
C1049 C1043 1.363 . S
C1049 C1044 1.379 . S
C1049 N1047 1.356 . S
N1050 C1042 1.356 . S
N1050 H1056 0.984 . S
N1050 H1057 0.984 . S
N1051 C1044 1.356 . S
N1051 H1054 0.984 . S
N1051 H1055 0.985 . S
H1052 N1047 0.984 . S
H1053 N1047 0.985 . S
H1054 N1051 0.984 . S
H1055 N1051 0.985 . S
H1056 N1050 0.984 . S
H1057 N1050 0.984 . S
H1058 N1046 0.984 . S
H1059 N1046 0.985 . S
C1060 C1061 1.363 . S
C1060 C1066 1.379 . S
C1060 N1068 1.356 . S
C1061 C1060 1.363 . S
C1061 C1067 1.363 . S
C1062 C1063 1.363 . S
C1062 C1067 1.379 . S
C1062 N1069 1.356 . S
C1063 C1062 1.363 . S
C1063 C1066 1.363 . S
N1064 C1066 1.356 . S
N1064 H1076 0.984 . S
N1064 H1077 0.985 . S
N1065 C1067 1.356 . S
N1065 H1070 0.984 . S
N1065 H1071 0.985 . S
C1066 C1060 1.379 . S
C1066 C1063 1.363 . S
C1066 N1064 1.356 . S
C1067 C1061 1.363 . S
C1067 C1062 1.379 . S
C1067 N1065 1.356 . S
N1068 C1060 1.356 . S
N1068 H1074 0.984 . S
N1068 H1075 0.984 . S
N1069 C1062 1.356 . S
N1069 H1072 0.984 . S
N1069 H1073 0.985 . S
H1070 N1065 0.984 . S
H1071 N1065 0.985 . S
H1072 N1069 0.984 . S
H1073 N1069 0.985 . S
H1074 N1068 0.984 . S
H1075 N1068 0.984 . S
H1076 N1064 0.984 . S
H1077 N1064 0.985 . S
C1078 C1079 1.363 . S
C1078 C1084 1.379 . S
C1078 N1086 1.356 . S
C1079 C1078 1.363 . S
C1079 C1085 1.363 . S
C1080 C1081 1.363 . S
C1080 C1085 1.379 . S
C1080 N1087 1.356 . S
C1081 C1080 1.363 . S
C1081 C1084 1.363 . S
N1082 C1084 1.356 . S
N1082 H1094 0.984 . S
N1082 H1095 0.985 . S
N1083 C1085 1.356 . S
N1083 H1088 0.984 . S
N1083 H1089 0.985 . S
C1084 C1078 1.379 . S
C1084 C1081 1.363 . S
C1084 N1082 1.356 . S
C1085 C1079 1.363 . S
C1085 C1080 1.379 . S
C1085 N1083 1.356 . S
N1086 C1078 1.356 . S
N1086 H1092 0.984 . S
N1086 H1093 0.984 . S
N1087 C1080 1.356 . S
N1087 H1090 0.984 . S
N1087 H1091 0.985 . S
H1088 N1083 0.984 . S
H1089 N1083 0.985 . S
H1090 N1087 0.984 . S
H1091 N1087 0.985 . S
H1092 N1086 0.984 . S
H1093 N1086 0.984 . S
H1094 N1082 0.984 . S
H1095 N1082 0.985 . S
C1096 C1097 1.363 . S
C1096 C1102 1.379 . S
C1096 N1104 1.356 . S
C1097 C1096 1.363 . S
C1097 C1103 1.363 . S
C1098 C1099 1.363 . S
C1098 C1103 1.379 . S
C1098 N1105 1.356 . S
C1099 C1098 1.363 . S
C1099 C1102 1.363 . S
N1100 C1102 1.356 . S
N1100 H1112 0.984 . S
N1100 H1113 0.985 . S
N1101 C1103 1.356 . S
N1101 H1106 0.984 . S
N1101 H1107 0.985 . S
C1102 C1096 1.379 . S
C1102 C1099 1.363 . S
C1102 N1100 1.356 . S
C1103 C1097 1.363 . S
C1103 C1098 1.379 . S
C1103 N1101 1.356 . S
N1104 C1096 1.356 . S
N1104 H1110 0.984 . S
N1104 H1111 0.984 . S
N1105 C1098 1.356 . S
N1105 H1108 0.984 . S
N1105 H1109 0.985 . S
H1106 N1101 0.984 . S
H1107 N1101 0.985 . S
H1108 N1105 0.984 . S
H1109 N1105 0.985 . S
H1110 N1104 0.984 . S
H1111 N1104 0.984 . S
H1112 N1100 0.984 . S
H1113 N1100 0.985 . S
C1114 C1115 1.363 . S
C1114 C1120 1.379 . S
C1114 N1122 1.356 . S
C1115 C1114 1.363 . S
C1115 C1121 1.363 . S
C1116 C1117 1.363 . S
C1116 C1121 1.379 . S
C1116 N1123 1.356 . S
C1117 C1116 1.363 . S
C1117 C1120 1.363 . S
N1118 C1120 1.356 . S
N1118 H1130 0.984 . S
N1118 H1131 0.985 . S
N1119 C1121 1.356 . S
N1119 H1124 0.984 . S
N1119 H1125 0.985 . S
C1120 C1114 1.379 . S
C1120 C1117 1.363 . S
C1120 N1118 1.356 . S
C1121 C1115 1.363 . S
C1121 C1116 1.379 . S
C1121 N1119 1.356 . S
N1122 C1114 1.356 . S
N1122 H1128 0.984 . S
N1122 H1129 0.984 . S
N1123 C1116 1.356 . S
N1123 H1126 0.984 . S
N1123 H1127 0.985 . S
H1124 N1119 0.984 . S
H1125 N1119 0.985 . S
H1126 N1123 0.984 . S
H1127 N1123 0.985 . S
H1128 N1122 0.984 . S
H1129 N1122 0.984 . S
H1130 N1118 0.984 . S
H1131 N1118 0.985 . S
C1132 C1133 1.363 . S
C1132 C1138 1.379 . S
C1132 N1140 1.356 . S
C1133 C1132 1.363 . S
C1133 C1139 1.363 . S
C1134 C1135 1.363 . S
C1134 C1139 1.379 . S
C1134 N1141 1.356 . S
C1135 C1134 1.363 . S
C1135 C1138 1.363 . S
N1136 C1138 1.356 . S
N1136 H1148 0.984 . S
N1136 H1149 0.985 . S
N1137 C1139 1.356 . S
N1137 H1142 0.984 . S
N1137 H1143 0.985 . S
C1138 C1132 1.379 . S
C1138 C1135 1.363 . S
C1138 N1136 1.356 . S
C1139 C1133 1.363 . S
C1139 C1134 1.379 . S
C1139 N1137 1.356 . S
N1140 C1132 1.356 . S
N1140 H1146 0.984 . S
N1140 H1147 0.984 . S
N1141 C1134 1.356 . S
N1141 H1144 0.984 . S
N1141 H1145 0.985 . S
H1142 N1137 0.984 . S
H1143 N1137 0.985 . S
H1144 N1141 0.984 . S
H1145 N1141 0.985 . S
H1146 N1140 0.984 . S
H1147 N1140 0.984 . S
H1148 N1136 0.984 . S
H1149 N1136 0.985 . S
C1150 C1151 1.363 . S
C1150 C1156 1.379 . S
C1150 N1158 1.356 . S
C1151 C1150 1.363 . S
C1151 C1157 1.363 . S
C1152 C1153 1.363 . S
C1152 C1157 1.379 . S
C1152 N1159 1.356 . S
C1153 C1152 1.363 . S
C1153 C1156 1.363 . S
N1154 C1156 1.356 . S
N1154 H1166 0.984 . S
N1154 H1167 0.985 . S
N1155 C1157 1.356 . S
N1155 H1160 0.984 . S
N1155 H1161 0.985 . S
C1156 C1150 1.379 . S
C1156 C1153 1.363 . S
C1156 N1154 1.356 . S
C1157 C1151 1.363 . S
C1157 C1152 1.379 . S
C1157 N1155 1.356 . S
N1158 C1150 1.356 . S
N1158 H1164 0.984 . S
N1158 H1165 0.984 . S
N1159 C1152 1.356 . S
N1159 H1162 0.984 . S
N1159 H1163 0.985 . S
H1160 N1155 0.984 . S
H1161 N1155 0.985 . S
H1162 N1159 0.984 . S
H1163 N1159 0.985 . S
H1164 N1158 0.984 . S
H1165 N1158 0.984 . S
H1166 N1154 0.984 . S
H1167 N1154 0.985 . S
C1168 C1169 1.363 . S
C1168 C1174 1.379 . S
C1168 N1176 1.356 . S
C1169 C1168 1.363 . S
C1169 C1175 1.363 . S
C1170 C1171 1.363 . S
C1170 C1175 1.379 . S
C1170 N1177 1.356 . S
C1171 C1170 1.363 . S
C1171 C1174 1.363 . S
N1172 C1174 1.356 . S
N1172 H1184 0.984 . S
N1172 H1185 0.985 . S
N1173 C1175 1.356 . S
N1173 H1178 0.984 . S
N1173 H1179 0.985 . S
C1174 C1168 1.379 . S
C1174 C1171 1.363 . S
C1174 N1172 1.356 . S
C1175 C1169 1.363 . S
C1175 C1170 1.379 . S
C1175 N1173 1.356 . S
N1176 C1168 1.356 . S
N1176 H1182 0.984 . S
N1176 H1183 0.984 . S
N1177 C1170 1.356 . S
N1177 H1180 0.984 . S
N1177 H1181 0.985 . S
H1178 N1173 0.984 . S
H1179 N1173 0.985 . S
H1180 N1177 0.984 . S
H1181 N1177 0.985 . S
H1182 N1176 0.984 . S
H1183 N1176 0.984 . S
H1184 N1172 0.984 . S
H1185 N1172 0.985 . S
C1186 C1187 1.363 . S
C1186 C1192 1.379 . S
C1186 N1194 1.356 . S
C1187 C1186 1.363 . S
C1187 C1193 1.363 . S
C1188 C1189 1.363 . S
C1188 C1193 1.379 . S
C1188 N1195 1.356 . S
C1189 C1188 1.363 . S
C1189 C1192 1.363 . S
N1190 C1192 1.356 . S
N1190 H1202 0.984 . S
N1190 H1203 0.985 . S
N1191 C1193 1.356 . S
N1191 H1196 0.984 . S
N1191 H1197 0.985 . S
C1192 C1186 1.379 . S
C1192 C1189 1.363 . S
C1192 N1190 1.356 . S
C1193 C1187 1.363 . S
C1193 C1188 1.379 . S
C1193 N1191 1.356 . S
N1194 C1186 1.356 . S
N1194 H1200 0.984 . S
N1194 H1201 0.984 . S
N1195 C1188 1.356 . S
N1195 H1198 0.984 . S
N1195 H1199 0.985 . S
H1196 N1191 0.984 . S
H1197 N1191 0.985 . S
H1198 N1195 0.984 . S
H1199 N1195 0.985 . S
H1200 N1194 0.984 . S
H1201 N1194 0.984 . S
H1202 N1190 0.984 . S
H1203 N1190 0.985 . S
C1204 C1205 1.363 . S
C1204 C1210 1.379 . S
C1204 N1212 1.356 . S
C1205 C1204 1.363 . S
C1205 C1211 1.363 . S
C1206 C1207 1.363 . S
C1206 C1211 1.379 . S
C1206 N1213 1.356 . S
C1207 C1206 1.363 . S
C1207 C1210 1.363 . S
N1208 C1210 1.356 . S
N1208 H1220 0.984 . S
N1208 H1221 0.985 . S
N1209 C1211 1.356 . S
N1209 H1214 0.984 . S
N1209 H1215 0.985 . S
C1210 C1204 1.379 . S
C1210 C1207 1.363 . S
C1210 N1208 1.356 . S
C1211 C1205 1.363 . S
C1211 C1206 1.379 . S
C1211 N1209 1.356 . S
N1212 C1204 1.356 . S
N1212 H1218 0.984 . S
N1212 H1219 0.984 . S
N1213 C1206 1.356 . S
N1213 H1216 0.984 . S
N1213 H1217 0.985 . S
H1214 N1209 0.984 . S
H1215 N1209 0.985 . S
H1216 N1213 0.984 . S
H1217 N1213 0.985 . S
H1218 N1212 0.984 . S
H1219 N1212 0.984 . S
H1220 N1208 0.984 . S
H1221 N1208 0.985 . S
C361 C187 1.972 . S
C359 C19 2.076 . S
C379 C188 1.756 . S
C377 C24 1.753 . S
C397 C182 1.397 . S
C395 C59 1.376 . S
C413 C69 1.129 . S
C415 C181 1.171 . S
C431 C82 1.753 . S
C433 C184 1.756 . S
C451 C186 1.397 . S
C449 C118 1.376 . S
C467 C132 1.129 . S
C469 C185 1.171 . S
C485 C158 2.076 . S
C487 C183 1.972 . S
C505 C218 1.832 . S
C503 C4 1.568 . S
C521 C29 1.076 . S
C523 C249 1.065 . S
C541 C217 1.546 . S
C539 C44 1.422 . S
C559 C252 1.315 . S
C557 C79 1.276 . S
C575 C98 1.502 . S
C577 C215 1.492 . S
C595 C247 1.464 . S
C593 C112 1.376 . S
C611 C122 1.167 . S
C613 C220 1.237 . S
C629 C152 1.242 . S
C631 C254 1.304 . S
C647 C9 1.242 . S
C649 C250 1.304 . S
C665 C92 1.076 . S
C667 C253 1.066 . S
C685 C221 1.546 . S
C683 C102 1.424 . S
C703 C248 1.315 . S
C701 C138 1.278 . S
C719 C142 1.569 . S
C721 C214 1.833 . S
C737 C49 1.375 . S
C739 C251 1.464 . S
C757 C216 1.236 . S
C755 C64 1.166 . S
C773 C39 1.502 . S
C775 C219 1.491 . S
C791 C159 2.065 . S
C793 C286 1.982 . S
C809 C84 1.486 . S
C811 C287 1.511 . S
C829 C281 1.396 . S
C827 C119 1.397 . S
C847 C280 1.430 . S
C845 C129 1.402 . S
C863 C22 1.486 . S
C865 C283 1.511 . S
C883 C285 1.396 . S
C881 C58 1.395 . S
C899 C72 1.402 . S
C901 C284 1.429 . S
C917 C18 2.065 . S
C919 C282 1.980 . S
C935 C144 1.691 . S
C937 C320 1.795 . S
C955 C352 0.921 . S
C953 C89 0.900 . S
C971 C104 1.377 . S
C973 C313 1.518 . S
C989 C139 1.536 . S
C991 C347 1.592 . S
C1009 C318 1.351 . S
C1007 C38 1.353 . S
C1025 C52 1.513 . S
C1027 C349 1.594 . S
C1045 C315 1.410 . S
C1043 C62 1.388 . S
C1063 C350 1.429 . S
C1061 C12 1.236 . S
C1081 C346 1.429 . S
C1079 C149 1.236 . S
C1097 C32 0.900 . S
C1099 C348 0.921 . S
C1115 C42 1.378 . S
C1117 C317 1.518 . S
C1135 C351 1.592 . S
C1133 C78 1.536 . S
C1151 C2 1.691 . S
C1153 C316 1.795 . S
C1169 C109 1.513 . S
C1171 C353 1.594 . S
C1189 C319 1.410 . S
C1187 C124 1.388 . S
C1207 C314 1.351 . S
C1205 C99 1.353 . S
