# Generated by pormake.
# Topology anh, (6,3)-cn, num edge types: 1
# Building blocks:
#     Node 0, Type 0, BuildingBlock: VOLQOD_clean_sbu_1, # of connection points: 6
#     Node 1, Type 0, BuildingBlock: VOLQOD_clean_sbu_1, # of connection points: 6
#     Node 2, Type 0, BuildingBlock: VOLQOD_clean_sbu_1, # of connection points: 6
#     Node 3, Type 1, BuildingBlock: WUSLED_clean_sbu_0, # of connection points: 3
#     Node 4, Type 1, BuildingBlock: WUSLED_clean_sbu_0, # of connection points: 3
#     Node 5, Type 1, BuildingBlock: WUSLED_clean_sbu_0, # of connection points: 3
#     Node 6, Type 1, BuildingBlock: WUSLED_clean_sbu_0, # of connection points: 3
#     Node 7, Type 1, BuildingBlock: WUSLED_clean_sbu_0, # of connection points: 3
#     Node 8, Type 1, BuildingBlock: WUSLED_clean_sbu_0, # of connection points: 3
#     Edge 9, Type (0, 1), BuildingBlock: OJICUG_clean_linker_0, # of connection points: 2
#     Edge 10, Type (0, 1), BuildingBlock: OJICUG_clean_linker_0, # of connection points: 2
#     Edge 11, Type (0, 1), BuildingBlock: OJICUG_clean_linker_0, # of connection points: 2
#     Edge 12, Type (0, 1), BuildingBlock: OJICUG_clean_linker_0, # of connection points: 2
#     Edge 13, Type (0, 1), BuildingBlock: OJICUG_clean_linker_0, # of connection points: 2
#     Edge 14, Type (0, 1), BuildingBlock: OJICUG_clean_linker_0, # of connection points: 2
#     Edge 15, Type (0, 1), BuildingBlock: OJICUG_clean_linker_0, # of connection points: 2
#     Edge 16, Type (0, 1), BuildingBlock: OJICUG_clean_linker_0, # of connection points: 2
#     Edge 17, Type (0, 1), BuildingBlock: OJICUG_clean_linker_0, # of connection points: 2
#     Edge 18, Type (0, 1), BuildingBlock: OJICUG_clean_linker_0, # of connection points: 2
#     Edge 19, Type (0, 1), BuildingBlock: OJICUG_clean_linker_0, # of connection points: 2
#     Edge 20, Type (0, 1), BuildingBlock: OJICUG_clean_linker_0, # of connection points: 2
#     Edge 21, Type (0, 1), BuildingBlock: OJICUG_clean_linker_0, # of connection points: 2
#     Edge 22, Type (0, 1), BuildingBlock: OJICUG_clean_linker_0, # of connection points: 2
#     Edge 23, Type (0, 1), BuildingBlock: OJICUG_clean_linker_0, # of connection points: 2
#     Edge 24, Type (0, 1), BuildingBlock: OJICUG_clean_linker_0, # of connection points: 2
#     Edge 25, Type (0, 1), BuildingBlock: OJICUG_clean_linker_0, # of connection points: 2
#     Edge 26, Type (0, 1), BuildingBlock: OJICUG_clean_linker_0, # of connection points: 2
# Relax obj value: 0.164
# Max RMSD: 0.228
# Mean RMSD: 0.110
data_MOF--net-anh--node1-VOLQOD_clean_sbu_1--node2-WUSLED_clean_sbu_0--edge1-OJICUG_clean_linker_0
_symmetry_space_group_name_H-M    P1
_symmetry_Int_Tables_number       1
_symmetry_cell_setting            triclinic
loop_
_symmetry_equiv_pos_as_xyz
'x, y, z'
_cell_length_a     29.680291
_cell_length_b     29.671517
_cell_length_c     61.856731
_cell_angle_alpha  89.294522
_cell_angle_beta   90.419588
_cell_angle_gamma 119.99011
loop_
_atom_site_label
_atom_site_type_symbol
_atom_site_fract_x
_atom_site_fract_y
_atom_site_fract_z
_atom_type_partial_charge
O0 O 0.98223 0.52387 0.22654 0.0
Zn1 Zn 0.98719 0.55039 0.19591 0.0
O2 O 0.99655 0.50498 0.17583 0.0
Zn3 Zn 0.9372 0.47147 0.15675 0.0
Zn4 Zn 0.00324 0.45085 0.19187 0.0
Zn5 Zn 0.05702 0.54678 0.15762 0.0
O6 O 0.95733 0.47877 0.12549 0.0
O7 O 0.03841 0.54486 0.12564 0.0
O8 O 0.92239 0.55548 0.18844 0.0
O9 O 0.89401 0.50512 0.15943 0.0
O10 O 0.89101 0.39625 0.1648 0.0
O11 O 0.93704 0.38021 0.18891 0.0
O12 O 0.06764 0.44807 0.18172 0.0
O13 O 0.05166 0.62232 0.19572 0.0
O14 O 0.10431 0.51735 0.15984 0.0
O15 O 0.09905 0.62036 0.16853 0.0
C16 C 0.99496 0.49277 0.2354 0.0
C17 C -0.00231 0.5124 0.1154 0.0
C18 C 0.89556 0.36526 0.17786 0.0
C19 C 0.89078 0.53588 0.17263 0.0
C20 C 0.10469 0.47917 0.16926 0.0
C21 C 0.09273 0.64424 0.18416 0.0
O22 O 0.00805 0.46545 0.22408 0.0
O23 O 0.47749 0.02873 0.46328 0.0
Zn24 Zn 0.45333 0.01569 0.49465 0.0
O25 O 0.50187 0.0035 0.51217 0.0
Zn26 Zn 0.53825 0.05813 0.5329 0.0
Zn27 Zn 0.5531 -0.00047 0.49372 0.0
Zn28 Zn 0.46329 0.94039 0.52908 0.0
O29 O 0.53393 0.03122 0.56343 0.0
O30 O 0.46283 0.95369 0.56103 0.0
O31 O 0.44675 0.07683 0.50674 0.0
O32 O 0.50339 0.10007 0.53392 0.0
O33 O 0.61235 0.10672 0.52385 0.0
O34 O 0.62374 0.06613 0.49635 0.0
O35 O 0.55905 0.93503 0.50124 0.0
O36 O 0.38236 0.94882 0.49383 0.0
O37 O 0.49879 0.89887 0.52694 0.0
O38 O 0.3908 0.89618 0.51726 0.0
C39 C 0.50554 0.015 0.45279 0.0
C40 C 0.49768 0.99027 0.57237 0.0
C41 C 0.6408 0.10523 0.50887 0.0
C42 C 0.46945 0.10507 0.52318 0.0
C43 C 0.53463 0.89969 0.51552 0.0
C44 C 0.36406 0.90452 0.50324 0.0
O45 O 0.53238 -0.00191 0.46247 0.0
O46 O 0.45946 0.48038 0.79597 0.0
Zn47 Zn 0.44522 0.45436 0.82712 0.0
O48 O 0.50532 0.50045 0.84539 0.0
Zn49 Zn 0.48585 0.53489 0.86669 0.0
Zn50 Zn 0.56191 0.55431 0.82782 0.0
Zn51 Zn 0.5287 0.45906 0.86132 0.0
O52 O 0.5056 0.52655 0.8971 0.0
O53 O 0.51945 0.46011 0.89376 0.0
O54 O 0.37767 0.44976 0.83838 0.0
O55 O 0.40903 0.50142 0.86696 0.0
O56 O 0.5129 0.6104 0.85907 0.0
O57 O 0.56649 0.62468 0.83171 0.0
O58 O 0.63161 0.55791 0.83467 0.0
O59 O 0.43746 0.38183 0.82615 0.0
O60 O 0.60447 0.48845 0.85616 0.0
O61 O 0.49485 0.38578 0.85036 0.0
C62 C 0.50152 0.51114 0.78597 0.0
C63 C 0.5139 0.49197 0.90554 0.0
C64 C 0.54394 0.64048 0.84454 0.0
C65 C 0.37104 0.47032 0.85522 0.0
C66 C 0.64059 0.52682 0.84593 0.0
C67 C 0.46029 0.36084 0.83611 0.0
O68 O 0.54418 0.53839 0.79614 0.0
C69 C 0.60592 0.09261 0.2115 0.0
C70 C 0.64075 0.12563 0.22721 0.0
C71 C 0.70527 0.17463 0.19931 0.0
C72 C 0.68999 0.16625 0.22118 0.0
C73 C 0.67049 0.14052 0.18373 0.0
C74 C 0.62132 0.09996 0.18978 0.0
U75 U 0.50216 0.01506 0.25395 0.0
O76 O 0.44509 0.93148 0.25636 0.0
O77 O 0.41819 0.98817 0.25402 0.0
C78 C 0.40499 0.93876 0.25442 0.0
C79 C 0.55311 0.05131 0.21745 0.0
C80 C 0.36224 0.90372 0.23976 0.0
C81 C 0.32118 0.82801 0.21637 0.0
C82 C 0.36483 0.86522 0.22768 0.0
C83 C 0.2721 0.86812 0.22829 0.0
C84 C 0.27388 0.8283 0.2169 0.0
C85 C 0.31567 0.90521 0.23963 0.0
C86 C 0.53587 0.04691 0.31408 0.0
C87 C 0.5085 0.99133 0.34619 0.0
C88 C 0.53698 0.08299 0.34935 0.0
C89 C 0.54548 0.08936 0.32701 0.0
C90 C 0.51917 0.03405 0.35923 0.0
C91 C 0.51655 -0.00239 0.32384 0.0
C92 C 0.54869 0.0555 0.29077 0.0
O93 O 0.55025 0.01113 0.2279 0.0
O94 O 0.52307 0.06749 0.22572 0.0
O95 O 0.52433 0.07433 0.27926 0.0
O96 O 0.5527 0.01877 0.28079 0.0
H97 H 0.62949 0.12052 0.24408 0.0
H98 H 0.7154 0.19207 0.23358 0.0
H99 H 0.68116 0.14535 0.16681 0.0
H100 H 0.59504 0.07468 0.17745 0.0
H101 H 0.32394 0.79762 0.20802 0.0
H102 H 0.39997 0.86266 0.22753 0.0
H103 H 0.23666 0.87008 0.22882 0.0
H104 H 0.31242 0.9342 0.2489 0.0
H105 H 0.49414 0.95302 0.3533 0.0
H106 H 0.54598 0.11673 0.35898 0.0
H107 H 0.56054 0.12776 0.31988 0.0
H108 H 0.50839 0.964 0.31429 0.0
C109 C 0.51951 0.61059 0.54514 0.0
C110 C 0.49841 0.63433 0.55783 0.0
C111 C 0.53755 0.71123 0.5344 0.0
C112 C 0.50693 0.68377 0.55243 0.0
C113 C 0.55879 0.68732 0.52172 0.0
C114 C 0.54981 0.63741 0.52706 0.0
U115 U 0.49816 0.51044 0.58831 0.0
O116 O 0.44521 0.42577 0.5898 0.0
O117 O 0.52972 0.45768 0.59229 0.0
C118 C 0.48361 0.4157 0.59086 0.0
C119 C 0.51099 0.5586 0.55105 0.0
C120 C 0.48 0.37346 0.57719 0.0
C121 C 0.43571 0.30503 0.55048 0.0
C122 C 0.44168 0.34931 0.56109 0.0
C123 C 0.50724 0.30985 0.57139 0.0
C124 C 0.46759 0.28409 0.556 0.0
C125 C 0.51323 0.35381 0.58188 0.0
C126 C 0.50004 0.55046 0.64741 0.0
C127 C 0.47532 0.49226 0.67864 0.0
C128 C 0.5231 0.58561 0.68365 0.0
C129 C 0.52344 0.59314 0.66129 0.0
C130 C 0.49922 0.53511 0.69262 0.0
C131 C 0.47594 0.49987 0.65619 0.0
C132 C 0.50254 0.56 0.6239 0.0
O133 O 0.54937 0.55838 0.56168 0.0
O134 O 0.465 0.52602 0.55921 0.0
O135 O 0.45934 0.53211 0.61292 0.0
O136 O 0.54386 0.56447 0.61424 0.0
H137 H 0.47513 0.61457 0.57194 0.0
H138 H 0.48882 0.70015 0.56231 0.0
H139 H 0.58286 0.70737 0.50784 0.0
H140 H 0.56676 0.61987 0.51716 0.0
H141 H 0.4049 0.28599 0.53867 0.0
H142 H 0.41542 0.36362 0.55713 0.0
H143 H 0.53307 0.29522 0.5757 0.0
H144 H 0.54299 0.37158 0.59421 0.0
H145 H 0.45704 0.45288 0.68501 0.0
H146 H 0.54123 0.61944 0.69394 0.0
H147 H 0.54224 0.63247 0.65481 0.0
H148 H 0.458 0.46637 0.64571 0.0
C149 C 0.93081 0.54034 0.87228 0.0
C150 C 0.91694 0.57339 0.88281 0.0
C151 C 0.84228 0.54542 0.85885 0.0
C152 C 0.87321 0.57617 0.87603 0.0
C153 C 0.85725 0.51364 0.84798 0.0
C154 C 0.90117 0.5113 0.85459 0.0
U155 U 0.00917 0.52505 0.91818 0.0
O156 O 0.03837 0.47034 0.92168 0.0
O157 O 0.09327 0.55462 0.92176 0.0
C158 C 0.08732 0.50763 0.92204 0.0
C159 C 0.97389 0.53309 0.88013 0.0
C160 C 0.12445 0.5 0.90907 0.0
C161 C 0.14541 0.45868 0.88002 0.0
C162 C 0.10957 0.46881 0.89049 0.0
C163 C 0.2112 0.51192 0.90621 0.0
C164 C 0.19629 0.47922 0.88812 0.0
C165 C 0.17569 0.52205 0.91655 0.0
C166 C 0.97214 0.53063 0.97684 0.0
C167 C 0.02431 0.53314 1.00784 0.0
C168 C 0.93746 0.51922 0.01318 0.0
C169 C 0.9318 0.5223 0.99085 0.0
C170 C 0.9837 0.52443 0.02198 0.0
C171 C 0.01849 0.53599 0.98544 0.0
C172 C 0.96486 0.53324 0.95337 0.0
O173 O 0.01247 0.57275 0.89003 0.0
O174 O 0.95947 0.48825 0.88983 0.0
O175 O 0.94799 0.48931 0.94298 0.0
O176 O 0.00236 0.57347 0.94314 0.0
H177 H 0.93897 0.59594 0.89661 0.0
H178 H 0.86221 0.60049 0.88486 0.0
H179 H 0.83424 0.48968 0.83464 0.0
H180 H 0.91118 0.48561 0.84624 0.0
H181 H 0.13291 0.43353 0.86608 0.0
H182 H 0.07015 0.45143 0.88438 0.0
H183 H 0.25043 0.52935 0.91257 0.0
H184 H 0.18803 0.54631 0.93079 0.0
H185 H 0.06019 0.53683 0.01407 0.0
H186 H 0.90571 0.51323 0.0236 0.0
H187 H 0.89581 0.51818 0.98451 0.0
H188 H 0.05001 0.54218 0.97483 0.0
C189 C 0.91537 0.3962 0.47624 0.0
C190 C 0.88206 0.3623 0.46035 0.0
C191 C 0.83138 0.2972 0.48799 0.0
C192 C 0.84049 0.31334 0.46616 0.0
C193 C 0.86565 0.33109 0.50378 0.0
C194 C 0.90716 0.38008 0.49794 0.0
U195 U 0.99744 0.49533 0.43319 0.0
O196 O 0.08127 0.55184 0.43139 0.0
O197 O 0.02493 0.57923 0.43002 0.0
C198 C 0.07424 0.59217 0.43025 0.0
C199 C 0.95799 0.44861 0.47032 0.0
C200 C 0.1098 0.63791 0.44316 0.0
C201 C 0.14975 0.67981 0.47716 0.0
C202 C 0.11322 0.63577 0.46575 0.0
C203 C 0.17892 0.72839 0.44352 0.0
C204 C 0.18345 0.72667 0.46614 0.0
C205 C 0.14252 0.68459 0.43222 0.0
C206 C 0.96731 0.45221 0.374 0.0
C207 C 0.00074 0.51057 0.34289 0.0
C208 C 0.95535 0.41724 0.33776 0.0
C209 C 0.94836 0.40958 0.36011 0.0
C210 C 0.98137 0.46782 0.32885 0.0
C211 C 0.99391 0.50282 0.36529 0.0
C212 C 0.95836 0.44286 0.39741 0.0
O213 O -0.00099 0.45032 0.46152 0.0
O214 O 0.94348 0.47859 0.46027 0.0
O215 O 0.93927 0.46884 0.40711 0.0
O216 O 0.99578 0.44175 0.40845 0.0
H217 H 0.88779 0.37404 0.44348 0.0
H218 H 0.81466 0.28877 0.45357 0.0
H219 H 0.86041 0.31981 0.52069 0.0
H220 H 0.93261 0.40559 0.51043 0.0
H221 H 0.1517 0.67709 0.49457 0.0
H222 H 0.08818 0.60002 0.47449 0.0
H223 H 0.20466 0.76314 0.43436 0.0
H224 H 0.14064 0.68694 0.41476 0.0
H225 H 0.02146 0.55 0.33658 0.0
H226 H 0.93936 0.38349 0.32743 0.0
H227 H 0.9277 0.37023 0.36656 0.0
H228 H 0.00913 0.53626 0.37579 0.0
C229 C 0.5184 0.91135 0.81374 0.0
C230 C 0.56331 0.91092 0.8069 0.0
C231 C 0.5356 0.82853 0.82595 0.0
C232 C 0.57185 0.87012 0.81298 0.0
C233 C 0.49094 0.82944 0.83289 0.0
C234 C 0.48263 0.87039 0.82694 0.0
U235 U 0.49587 0.98904 0.76963 0.0
O236 O 0.52283 0.07263 0.76594 0.0
O237 O 0.43915 0.01615 0.76709 0.0
C238 C 0.47538 0.06542 0.76574 0.0
C239 C 0.50758 0.95328 0.80703 0.0
C240 C 0.46681 0.10263 0.7781 0.0
C241 C 0.46008 0.14058 0.81173 0.0
C242 C 0.46706 0.10329 0.80078 0.0
C243 C 0.45205 0.17616 0.77743 0.0
C244 C 0.45273 0.17773 0.80016 0.0
C245 C 0.45894 0.13905 0.76658 0.0
C246 C 0.50145 0.95329 0.71079 0.0
C247 C 0.50483 0.00615 0.67982 0.0
C248 C 0.49118 0.91944 0.67444 0.0
C249 C 0.4934 0.91319 0.69678 0.0
C250 C 0.49711 0.96609 0.66566 0.0
C251 C 0.50679 -0.00027 0.70221 0.0
C252 C 0.50462 0.94605 0.73422 0.0
O253 O 0.54546 0.99416 0.79722 0.0
O254 O 0.46186 0.93759 0.79806 0.0
O255 O 0.46078 0.92813 0.74491 0.0
O256 O 0.5445 0.98414 0.74418 0.0
H257 H 0.5918 0.94189 0.79672 0.0
H258 H 0.60703 0.87132 0.80754 0.0
H259 H 0.46158 0.79784 0.84254 0.0
H260 H 0.44768 0.86966 0.83243 0.0
H261 H 0.46047 0.14032 0.82923 0.0
H262 H 0.473 0.07535 0.80995 0.0
H263 H 0.44765 0.2046 0.7679 0.0
H264 H 0.45882 0.13926 0.74905 0.0
H265 H 0.50894 0.04229 0.6736 0.0
H266 H 0.48582 0.88809 0.664 0.0
H267 H 0.48924 0.8771 0.70313 0.0
H268 H 0.5127 0.03103 0.71281 0.0
C269 C 0.59685 0.51117 0.14584 0.0
C270 C 0.62297 0.49448 0.13217 0.0
C271 C 0.69897 0.53322 0.1558 0.0
C272 C 0.67317 0.50496 0.13717 0.0
C273 C 0.67272 0.55022 0.16942 0.0
C274 C 0.62204 0.53925 0.16446 0.0
U275 U 0.49433 0.48198 0.10338 0.0
O276 O 0.41025 0.42509 0.10295 0.0
O277 O 0.43787 0.5085 0.09863 0.0
C278 C 0.39753 0.46153 0.10125 0.0
C279 C 0.54382 0.49991 0.1404 0.0
C280 C 0.35662 0.45693 0.11604 0.0
C281 C 0.3284 0.48909 0.14599 0.0
C282 C 0.36841 0.48994 0.13384 0.0
C283 C 0.26442 0.41999 0.12361 0.0
C284 C 0.27593 0.45501 0.14067 0.0
C285 C 0.30444 0.42111 0.11137 0.0
C286 C 0.53543 0.48107 0.04452 0.0
C287 C 0.4894 0.48531 0.01259 0.0
C288 C 0.56401 0.47349 1.00872 0.0
C289 C 0.56953 0.4743 0.03121 0.0
C290 C 0.52427 0.47962 0.99911 0.0
C291 C 0.49489 0.48595 0.03511 0.0
C292 C 0.54472 0.48585 0.068 0.0
O293 O 0.54119 0.53637 0.12913 0.0
O294 O 0.51263 0.45285 0.13306 0.0
O295 O 0.51824 0.44316 0.07959 0.0
O296 O 0.5469 0.52696 0.07681 0.0
H297 H 0.60438 0.47296 0.11764 0.0
H298 H 0.69138 0.49007 0.12653 0.0
H299 H 0.69145 0.57239 0.18378 0.0
H300 H 0.60259 0.5528 0.17512 0.0
H301 H 0.33848 0.51618 0.15918 0.0
H302 H 0.40844 0.51756 0.1379 0.0
H303 H 0.22448 0.39368 0.11895 0.0
H304 H 0.29455 0.39525 0.09773 0.0
H305 H 0.45796 0.48942 1.00573 0.0
H306 H 0.59188 0.46965 0.99886 0.0
H307 H 0.6012 0.47072 0.0382 0.0
H308 H 0.46808 0.4911 0.04516 0.0
C309 C 0.19804 0.51565 0.16005 0.0
C310 C 0.14968 0.4719 0.16507 0.0
H311 H 0.27552 0.5445 0.14867 0.0
C312 C 0.14437 0.4222 0.16404 0.0
H313 H 0.20344 0.55451 0.16082 0.0
C314 C 0.18595 0.41639 0.15684 0.0
C315 C 0.23371 0.46027 0.151 0.0
H316 H 0.10749 0.38782 0.16775 0.0
H317 H 0.18042 0.37761 0.15536 0.0
C318 C 0.23956 0.50995 0.15324 0.0
C319 C 0.72238 0.15533 0.4866 0.0
C320 C 0.69256 0.15214 0.50475 0.0
H321 H 0.78969 0.20304 0.46722 0.0
C322 C 0.71064 0.1961 0.518 0.0
H323 H 0.70979 0.12234 0.47602 0.0
C324 C 0.75617 0.24248 0.51285 0.0
C325 C 0.78509 0.24634 0.4943 0.0
H326 H 0.6888 0.19532 0.53209 0.0
H327 H 0.76759 0.27593 0.52303 0.0
C328 C 0.76803 0.20184 0.48144 0.0
C329 C 0.56774 0.71948 0.82131 0.0
C330 C 0.54868 0.69239 0.84099 0.0
H331 H 0.57755 0.78254 0.80091 0.0
C332 C 0.52907 0.71279 0.85632 0.0
H333 H 0.58276 0.70477 0.80904 0.0
C334 C 0.52661 0.75784 0.85176 0.0
C335 C 0.54318 0.78355 0.83164 0.0
H336 H 0.51438 0.69321 0.87171 0.0
H337 H 0.51092 0.77205 0.86395 0.0
C338 C 0.56481 0.76431 0.81666 0.0
C339 C 0.8148 0.54185 0.18655 0.0
C340 C 0.84757 0.54634 0.16942 0.0
H341 H 0.74122 0.53297 0.19571 0.0
C342 C 0.83427 0.55303 0.14829 0.0
H343 H 0.82407 0.53614 0.20297 0.0
C344 C 0.78765 0.55221 0.14414 0.0
C345 C 0.7524 0.54327 0.16096 0.0
H346 H 0.85918 0.557 0.13482 0.0
H347 H 0.77842 0.5567 0.12757 0.0
C348 C 0.76735 0.53999 0.18235 0.0
C349 C 0.28352 0.86686 0.47995 0.0
C350 C 0.31338 0.86004 0.49603 0.0
H351 H 0.21851 0.83061 0.45837 0.0
C352 C 0.29689 0.80923 0.50368 0.0
H353 H 0.2947 0.90534 0.47375 0.0
C354 C 0.25353 0.76622 0.49464 0.0
C355 C 0.22525 0.77278 0.47776 0.0
H356 H 0.31879 0.80228 0.51605 0.0
H357 H 0.24382 0.72767 0.50021 0.0
C358 C 0.23997 0.82384 0.47099 0.0
C359 C 0.48176 0.28895 0.83817 0.0
C360 C 0.45172 0.30921 0.82918 0.0
H361 H 0.50612 0.23236 0.83604 0.0
C362 C 0.41785 0.28239 0.81201 0.0
H363 H 0.50831 0.3084 0.85141 0.0
C364 C 0.41629 0.23826 0.80329 0.0
C365 C 0.44871 0.2199 0.81143 0.0
H366 H 0.39388 0.29653 0.80475 0.0
H367 H 0.39054 0.21928 0.78977 0.0
C368 C 0.48034 0.24498 0.82939 0.0
C369 C 0.55033 0.8439 0.54089 0.0
C370 C 0.54666 0.85776 0.51947 0.0
H371 H 0.55283 0.78835 0.56233 0.0
C372 C 0.5463 0.82635 0.50262 0.0
H373 H 0.55095 0.86775 0.55416 0.0
C374 C 0.54567 0.77961 0.50731 0.0
C375 C 0.54602 0.76404 0.52892 0.0
H376 H 0.54288 0.83605 0.48597 0.0
H377 H 0.54195 0.75443 0.49407 0.0
C378 C 0.55071 0.79803 0.54556 0.0
C379 C 0.73842 0.58251 0.84753 0.0
C380 C 0.6933 0.53322 0.84712 0.0
H381 H 0.82149 0.62525 0.85195 0.0
C382 C 0.69815 0.48865 0.84941 0.0
H383 H 0.7357 0.61746 0.84592 0.0
C384 C 0.74671 0.49301 0.85251 0.0
C385 C 0.79174 0.54209 0.85374 0.0
H386 H 0.66409 0.45011 0.84908 0.0
H387 H 0.74878 0.4578 0.85469 0.0
C388 C 0.78729 0.58692 0.8511 0.0
C389 C 0.18412 0.71872 0.17932 0.0
C390 C 0.13674 0.69572 0.1907 0.0
H391 H 0.26415 0.77885 0.17837 0.0
C392 C 0.13384 0.71961 0.20973 0.0
H393 H 0.18787 0.70162 0.16455 0.0
C394 C 0.1778 0.76367 0.21776 0.0
C395 C 0.22585 0.78516 0.20695 0.0
H396 H 0.09814 0.70304 0.21899 0.0
H397 H 0.17457 0.77936 0.23301 0.0
C398 C 0.22809 0.76284 0.18734 0.0
C399 C 0.45295 0.17977 0.51656 0.0
C400 C 0.4575 0.14495 0.5308 0.0
H401 H 0.45296 0.25219 0.51342 0.0
C402 C 0.4585 0.15301 0.55316 0.0
H403 H 0.4524 0.17452 0.49925 0.0
C404 C 0.4588 0.19675 0.56116 0.0
C405 C 0.45856 0.23399 0.54703 0.0
H406 H 0.46136 0.12644 0.56452 0.0
H407 H 0.46127 0.20246 0.57849 0.0
C408 C 0.4535 0.22418 0.52466 0.0
C409 C 0.30703 0.45174 0.88414 0.0
C410 C 0.31899 0.45948 0.86202 0.0
H411 H 0.25808 0.45042 0.90953 0.0
C412 C 0.28567 0.4664 0.84785 0.0
H413 H 0.33201 0.4461 0.89538 0.0
C414 C 0.24341 0.46983 0.85606 0.0
C415 C 0.23418 0.46628 0.8785 0.0
H416 H 0.2945 0.47303 0.83075 0.0
H417 H 0.22017 0.47857 0.84508 0.0
C418 C 0.26499 0.45473 0.89225 0.0
C419 C 0.84747 0.28241 0.19977 0.0
C420 C 0.84942 0.31298 0.18184 0.0
H421 H 0.80071 0.21464 0.2193 0.0
C422 C 0.80467 0.2955 0.1689 0.0
H423 H 0.88112 0.29465 0.21013 0.0
C424 C 0.75862 0.2499 0.17423 0.0
C425 C 0.7559 0.22046 0.19267 0.0
H426 H 0.8046 0.31794 0.15497 0.0
H427 H 0.72449 0.23895 0.16433 0.0
C428 C 0.8012 0.23677 0.20516 0.0
C429 C 0.0384 0.55189 0.0793 0.0
C430 C 0.99585 0.51439 0.09138 0.0
H431 H 0.06797 0.58469 0.04792 0.0
C432 C 0.95029 0.47919 0.0803 0.0
H433 H 0.07409 0.57958 0.08727 0.0
C434 C 0.94687 0.48209 0.05786 0.0
C435 C 0.98887 0.52021 0.04579 0.0
H436 H 0.91678 0.44952 0.08898 0.0
H437 H 0.91112 0.45432 0.04993 0.0
C438 C 0.03498 0.55468 0.05673 0.0
C439 C 0.48735 0.04653 0.41758 0.0
C440 C 0.50757 0.01899 0.42881 0.0
H441 H 0.47513 0.0729 0.38679 0.0
C442 C 0.53053 0.99565 0.41689 0.0
H443 H 0.46942 0.06499 0.42623 0.0
C444 C 0.53348 -7e-05 0.39436 0.0
C445 C 0.51397 0.02804 0.38315 0.0
H446 H 0.54642 0.97405 0.42496 0.0
H447 H 0.55208 0.98209 0.38572 0.0
C448 C 0.49082 0.05127 0.395 0.0
C449 C 0.45567 0.48447 0.74997 0.0
C450 C 0.50093 0.51607 0.76201 0.0
H451 H 0.41955 0.46568 0.71869 0.0
C452 C 0.54577 0.55303 0.75093 0.0
H453 H 0.42043 0.45555 0.75793 0.0
C454 C 0.54521 0.55875 0.72848 0.0
C455 C 0.49988 0.52758 0.71646 0.0
H456 H 0.58142 0.57796 0.7596 0.0
H457 H 0.58052 0.58752 0.72051 0.0
C458 C 0.45522 0.49005 0.72745 0.0
C459 C 0.53259 0.02572 0.60926 0.0
C460 C 0.49649 0.9847 0.59629 0.0
H461 H 0.56122 0.05197 0.64122 0.0
C462 C 0.45974 0.93802 0.60641 0.0
H463 H 0.56142 0.06224 0.60204 0.0
C464 C 0.4596 0.93222 0.62889 0.0
C465 C 0.49605 0.97301 0.64182 0.0
H466 H 0.43124 0.90564 0.59697 0.0
H467 H 0.43076 0.89577 0.63616 0.0
C468 C 0.53228 0.01997 0.63175 0.0
C469 C 0.52643 0.45147 0.93937 0.0
C470 C 0.5163 0.48844 0.92947 0.0
H471 H 0.53615 0.41916 0.96901 0.0
C472 C 0.50798 0.52183 0.9427 0.0
H473 H 0.5328 0.42497 0.92972 0.0
C474 C 0.50996 0.51852 0.96523 0.0
C475 C 0.52041 0.4818 0.97513 0.0
H476 H 0.50006 0.5508 0.93568 0.0
H477 H 0.50426 0.54546 0.97488 0.0
C478 C 0.52853 0.44825 0.96192 0.0
C479 C 0.00273 0.45048 0.26966 0.0
C480 C 0.9935 0.48765 0.25937 0.0
H481 H 0.00674 0.41548 0.29957 0.0
C482 C 0.98183 0.5193 0.27221 0.0
H483 H 0.01198 0.42552 0.26032 0.0
C484 C 0.97877 0.51346 0.29473 0.0
C485 C 0.9871 0.47569 0.30498 0.0
H486 H 0.97452 0.54838 0.26489 0.0
H487 H 0.96862 0.53774 0.30407 0.0
C488 C -0.00054 0.44451 0.29217 0.0
loop_
_geom_bond_atom_site_label_1
_geom_bond_atom_site_label_2
_geom_bond_distance
_geom_bond_site_symmetry_2
_ccdc_geom_bond_type
O0 Zn1 1.953 . S
O0 C16 1.225 1_655 S
Zn1 O0 1.953 . S
Zn1 O2 1.949 1_655 S
Zn1 O8 1.919 . S
Zn1 O13 1.924 1_655 S
O2 Zn1 1.949 1_455 S
O2 Zn3 1.923 1_455 S
O2 Zn4 1.950 . S
O2 Zn5 1.945 . S
Zn3 O2 1.923 1_655 S
Zn3 O6 1.933 . S
Zn3 O9 1.941 . S
Zn3 O10 1.965 . S
Zn4 O2 1.950 . S
Zn4 O11 1.938 1_455 S
Zn4 O12 1.906 . S
Zn4 O22 1.953 . S
Zn5 O2 1.945 . S
Zn5 O7 1.932 . S
Zn5 O14 1.977 . S
Zn5 O15 1.910 . S
O6 Zn3 1.933 . S
O6 C17 1.226 1_655 S
O7 Zn5 1.932 . S
O7 C17 1.307 . S
O8 Zn1 1.919 . S
O8 C19 1.253 . S
O9 Zn3 1.941 . S
O9 C19 1.283 . S
O10 Zn3 1.965 . S
O10 C18 1.303 . S
O11 Zn4 1.938 1_655 S
O11 C18 1.247 . S
O12 Zn4 1.906 . S
O12 C20 1.304 . S
O13 Zn1 1.924 1_455 S
O13 C21 1.311 . S
O14 Zn5 1.977 . S
O14 C20 1.272 . S
O15 Zn5 1.910 . S
O15 C21 1.231 . S
C16 O0 1.225 1_455 S
C16 O22 1.298 . S
C17 O6 1.226 1_455 S
C17 O7 1.307 . S
C18 O10 1.303 . S
C18 O11 1.247 . S
C19 O8 1.253 . S
C19 O9 1.283 . S
C20 O12 1.304 . S
C20 O14 1.272 . S
C21 O13 1.311 . S
C21 O15 1.231 . S
O22 Zn4 1.953 . S
O22 C16 1.298 . S
O23 Zn24 1.953 . S
O23 C39 1.225 . S
Zn24 O23 1.953 . S
Zn24 O25 1.949 . S
Zn24 O31 1.919 . S
Zn24 O36 1.924 1_545 S
O25 Zn24 1.949 . S
O25 Zn26 1.923 . S
O25 Zn27 1.950 1_545 S
O25 Zn28 1.945 1_545 S
Zn26 O25 1.923 . S
Zn26 O29 1.933 . S
Zn26 O32 1.941 . S
Zn26 O33 1.965 . S
Zn27 O25 1.950 1_565 S
Zn27 O34 1.938 1_565 S
Zn27 O35 1.906 . S
Zn27 O45 1.953 . S
Zn28 O25 1.945 1_565 S
Zn28 O30 1.932 . S
Zn28 O37 1.977 . S
Zn28 O38 1.910 . S
O29 Zn26 1.933 . S
O29 C40 1.226 . S
O30 Zn28 1.932 . S
O30 C40 1.307 1_565 S
O31 Zn24 1.919 . S
O31 C42 1.253 . S
O32 Zn26 1.941 . S
O32 C42 1.283 . S
O33 Zn26 1.965 . S
O33 C41 1.303 . S
O34 Zn27 1.938 1_545 S
O34 C41 1.247 . S
O35 Zn27 1.906 . S
O35 C43 1.304 . S
O36 Zn24 1.924 1_565 S
O36 C44 1.311 . S
O37 Zn28 1.977 . S
O37 C43 1.272 . S
O38 Zn28 1.910 . S
O38 C44 1.231 . S
C39 O23 1.225 . S
C39 O45 1.298 1_545 S
C40 O29 1.226 . S
C40 O30 1.307 1_545 S
C41 O33 1.303 . S
C41 O34 1.247 . S
C42 O31 1.253 . S
C42 O32 1.283 . S
C43 O35 1.304 . S
C43 O37 1.272 . S
C44 O36 1.311 . S
C44 O38 1.231 . S
O45 Zn27 1.953 . S
O45 C39 1.298 1_565 S
O46 Zn47 1.953 . S
O46 C62 1.225 . S
Zn47 O46 1.953 . S
Zn47 O48 1.949 . S
Zn47 O54 1.919 . S
Zn47 O59 1.924 . S
O48 Zn47 1.949 . S
O48 Zn49 1.923 . S
O48 Zn50 1.950 . S
O48 Zn51 1.945 . S
Zn49 O48 1.923 . S
Zn49 O52 1.933 . S
Zn49 O55 1.941 . S
Zn49 O56 1.965 . S
Zn50 O48 1.950 . S
Zn50 O57 1.938 . S
Zn50 O58 1.906 . S
Zn50 O68 1.953 . S
Zn51 O48 1.945 . S
Zn51 O53 1.932 . S
Zn51 O60 1.977 . S
Zn51 O61 1.910 . S
O52 Zn49 1.933 . S
O52 C63 1.226 . S
O53 Zn51 1.932 . S
O53 C63 1.307 . S
O54 Zn47 1.919 . S
O54 C65 1.253 . S
O55 Zn49 1.941 . S
O55 C65 1.283 . S
O56 Zn49 1.965 . S
O56 C64 1.303 . S
O57 Zn50 1.938 . S
O57 C64 1.247 . S
O58 Zn50 1.906 . S
O58 C66 1.304 . S
O59 Zn47 1.924 . S
O59 C67 1.311 . S
O60 Zn51 1.977 . S
O60 C66 1.272 . S
O61 Zn51 1.910 . S
O61 C67 1.231 . S
C62 O46 1.225 . S
C62 O68 1.298 . S
C63 O52 1.226 . S
C63 O53 1.307 . S
C64 O56 1.303 . S
C64 O57 1.247 . S
C65 O54 1.253 . S
C65 O55 1.283 . S
C66 O58 1.304 . S
C66 O60 1.272 . S
C67 O59 1.311 . S
C67 O61 1.231 . S
O68 Zn50 1.953 . S
O68 C62 1.298 . S
C69 C70 1.264 . S
C69 C74 1.479 . S
C69 C79 1.465 . S
C70 C69 1.264 . S
C70 C72 1.339 . S
C70 H97 0.931 . S
C71 C72 1.395 . S
C71 C73 1.320 . S
C72 C70 1.339 . S
C72 C71 1.395 . S
C72 H98 0.929 . S
C73 C71 1.320 . S
C73 C74 1.405 . S
C73 H99 0.930 . S
C74 C69 1.479 . S
C74 C73 1.405 . S
C74 H100 0.931 . S
U75 O76 2.454 1_545 S
U75 O77 2.458 1_545 S
U75 C78 2.984 1_545 S
U75 C79 2.847 . S
U75 C92 2.882 . S
U75 O93 2.441 . S
U75 O94 2.420 . S
U75 O95 2.455 1_545 S
U75 O96 2.449 . S
O76 U75 2.454 1_565 S
O76 C78 1.353 . S
O77 U75 2.458 1_565 S
O77 C78 1.286 . S
C78 U75 2.984 1_565 S
C78 O76 1.353 . S
C78 O77 1.286 . S
C78 C80 1.363 . S
C79 C69 1.465 . S
C79 U75 2.847 . S
C79 O93 1.249 . S
C79 O94 1.202 . S
C80 C78 1.363 . S
C80 C82 1.408 . S
C80 C85 1.342 . S
C81 C82 1.310 . S
C81 C84 1.461 . S
C81 H101 0.932 . S
C82 C80 1.408 . S
C82 C81 1.310 . S
C82 H102 0.930 . S
C83 C84 1.474 . S
C83 C85 1.285 . S
C83 H103 0.929 . S
C84 C81 1.461 . S
C84 C83 1.474 . S
C85 C80 1.342 . S
C85 C83 1.285 . S
C85 H104 0.930 . S
C86 C89 1.424 . S
C86 C91 1.245 1_545 S
C86 C92 1.428 . S
C87 C90 1.260 1_565 S
C87 C91 1.477 . S
C87 H105 0.932 . S
C88 C89 1.384 . S
C88 C90 1.479 . S
C88 H106 0.929 . S
C89 C86 1.424 . S
C89 C88 1.384 . S
C89 H107 0.928 . S
C90 C87 1.260 1_545 S
C90 C88 1.479 . S
C91 C86 1.245 1_565 S
C91 C87 1.477 . S
C91 H108 0.932 . S
C92 U75 2.882 . S
C92 C86 1.428 . S
C92 O95 1.301 1_545 S
C92 O96 1.282 . S
O93 U75 2.441 . S
O93 C79 1.249 . S
O94 U75 2.420 . S
O94 C79 1.202 . S
O95 U75 2.455 1_565 S
O95 C92 1.301 1_565 S
O96 U75 2.449 . S
O96 C92 1.282 . S
H97 C70 0.931 . S
H98 C72 0.929 . S
H99 C73 0.930 . S
H100 C74 0.931 . S
H101 C81 0.932 . S
H102 C82 0.930 . S
H103 C83 0.929 . S
H104 C85 0.930 . S
H105 C87 0.932 . S
H106 C88 0.929 . S
H107 C89 0.928 . S
H108 C91 0.932 . S
C109 C110 1.264 . S
C109 C114 1.479 . S
C109 C119 1.465 . S
C110 C109 1.264 . S
C110 C112 1.339 . S
C110 H137 0.931 . S
C111 C112 1.395 . S
C111 C113 1.320 . S
C112 C110 1.339 . S
C112 C111 1.395 . S
C112 H138 0.929 . S
C113 C111 1.320 . S
C113 C114 1.405 . S
C113 H139 0.930 . S
C114 C109 1.479 . S
C114 C113 1.405 . S
C114 H140 0.931 . S
U115 O116 2.454 . S
U115 O117 2.458 . S
U115 C118 2.984 . S
U115 C119 2.847 . S
U115 C132 2.882 . S
U115 O133 2.441 . S
U115 O134 2.420 . S
U115 O135 2.455 . S
U115 O136 2.449 . S
O116 U115 2.454 . S
O116 C118 1.353 . S
O117 U115 2.458 . S
O117 C118 1.286 . S
C118 U115 2.984 . S
C118 O116 1.353 . S
C118 O117 1.286 . S
C118 C120 1.363 . S
C119 C109 1.465 . S
C119 U115 2.847 . S
C119 O133 1.249 . S
C119 O134 1.202 . S
C120 C118 1.363 . S
C120 C122 1.408 . S
C120 C125 1.342 . S
C121 C122 1.310 . S
C121 C124 1.461 . S
C121 H141 0.932 . S
C122 C120 1.408 . S
C122 C121 1.310 . S
C122 H142 0.930 . S
C123 C124 1.474 . S
C123 C125 1.285 . S
C123 H143 0.929 . S
C124 C121 1.461 . S
C124 C123 1.474 . S
C125 C120 1.342 . S
C125 C123 1.285 . S
C125 H144 0.930 . S
C126 C129 1.424 . S
C126 C131 1.245 . S
C126 C132 1.428 . S
C127 C130 1.260 . S
C127 C131 1.477 . S
C127 H145 0.932 . S
C128 C129 1.384 . S
C128 C130 1.479 . S
C128 H146 0.929 . S
C129 C126 1.424 . S
C129 C128 1.384 . S
C129 H147 0.928 . S
C130 C127 1.260 . S
C130 C128 1.479 . S
C131 C126 1.245 . S
C131 C127 1.477 . S
C131 H148 0.932 . S
C132 U115 2.882 . S
C132 C126 1.428 . S
C132 O135 1.301 . S
C132 O136 1.282 . S
O133 U115 2.441 . S
O133 C119 1.249 . S
O134 U115 2.420 . S
O134 C119 1.202 . S
O135 U115 2.455 . S
O135 C132 1.301 . S
O136 U115 2.449 . S
O136 C132 1.282 . S
H137 C110 0.931 . S
H138 C112 0.929 . S
H139 C113 0.930 . S
H140 C114 0.931 . S
H141 C121 0.932 . S
H142 C122 0.930 . S
H143 C123 0.929 . S
H144 C125 0.930 . S
H145 C127 0.932 . S
H146 C128 0.929 . S
H147 C129 0.928 . S
H148 C131 0.932 . S
C149 C150 1.264 . S
C149 C154 1.479 . S
C149 C159 1.465 . S
C150 C149 1.264 . S
C150 C152 1.339 . S
C150 H177 0.931 . S
C151 C152 1.395 . S
C151 C153 1.320 . S
C152 C150 1.339 . S
C152 C151 1.395 . S
C152 H178 0.929 . S
C153 C151 1.320 . S
C153 C154 1.405 . S
C153 H179 0.930 . S
C154 C149 1.479 . S
C154 C153 1.405 . S
C154 H180 0.931 . S
U155 O156 2.454 . S
U155 O157 2.458 . S
U155 C158 2.984 . S
U155 C159 2.847 1_455 S
U155 C172 2.882 . S
U155 O173 2.441 1_455 S
U155 O174 2.420 1_455 S
U155 O175 2.455 . S
U155 O176 2.449 1_455 S
O156 U155 2.454 . S
O156 C158 1.353 . S
O157 U155 2.458 . S
O157 C158 1.286 . S
C158 U155 2.984 . S
C158 O156 1.353 . S
C158 O157 1.286 . S
C158 C160 1.363 . S
C159 C149 1.465 . S
C159 U155 2.847 1_655 S
C159 O173 1.249 . S
C159 O174 1.202 . S
C160 C158 1.363 . S
C160 C162 1.408 . S
C160 C165 1.342 . S
C161 C162 1.310 . S
C161 C164 1.461 . S
C161 H181 0.932 . S
C162 C160 1.408 . S
C162 C161 1.310 . S
C162 H182 0.930 . S
C163 C164 1.474 . S
C163 C165 1.285 . S
C163 H183 0.929 . S
C164 C161 1.461 . S
C164 C163 1.474 . S
C165 C160 1.342 . S
C165 C163 1.285 . S
C165 H184 0.930 . S
C166 C169 1.424 1_455 S
C166 C171 1.245 . S
C166 C172 1.428 . S
C167 C170 1.260 . S
C167 C171 1.477 1_554 S
C167 H185 0.932 . S
C168 C169 1.384 1_554 S
C168 C170 1.479 1_655 S
C168 H186 0.929 . S
C169 C166 1.424 1_655 S
C169 C168 1.384 1_556 S
C169 H187 0.928 . S
C170 C167 1.260 . S
C170 C168 1.479 1_455 S
C171 C166 1.245 . S
C171 C167 1.477 1_556 S
C171 H188 0.932 . S
C172 U155 2.882 . S
C172 C166 1.428 . S
C172 O175 1.301 . S
C172 O176 1.282 1_455 S
O173 U155 2.441 1_655 S
O173 C159 1.249 . S
O174 U155 2.420 1_655 S
O174 C159 1.202 . S
O175 U155 2.455 . S
O175 C172 1.301 . S
O176 U155 2.449 1_655 S
O176 C172 1.282 1_655 S
H177 C150 0.931 . S
H178 C152 0.929 . S
H179 C153 0.930 . S
H180 C154 0.931 . S
H181 C161 0.932 . S
H182 C162 0.930 . S
H183 C163 0.929 . S
H184 C165 0.930 . S
H185 C167 0.932 . S
H186 C168 0.929 . S
H187 C169 0.928 . S
H188 C171 0.932 . S
C189 C190 1.264 . S
C189 C194 1.479 . S
C189 C199 1.465 . S
C190 C189 1.264 . S
C190 C192 1.339 . S
C190 H217 0.931 . S
C191 C192 1.395 . S
C191 C193 1.320 . S
C192 C190 1.339 . S
C192 C191 1.395 . S
C192 H218 0.929 . S
C193 C191 1.320 . S
C193 C194 1.405 . S
C193 H219 0.930 . S
C194 C189 1.479 . S
C194 C193 1.405 . S
C194 H220 0.931 . S
U195 O196 2.454 1_655 S
U195 O197 2.458 1_655 S
U195 C198 2.984 1_655 S
U195 C199 2.847 . S
U195 C212 2.882 . S
U195 O213 2.441 . S
U195 O214 2.420 . S
U195 O215 2.455 1_655 S
U195 O216 2.449 . S
O196 U195 2.454 1_455 S
O196 C198 1.353 . S
O197 U195 2.458 1_455 S
O197 C198 1.286 . S
C198 U195 2.984 1_455 S
C198 O196 1.353 . S
C198 O197 1.286 . S
C198 C200 1.363 . S
C199 C189 1.465 . S
C199 U195 2.847 . S
C199 O213 1.249 . S
C199 O214 1.202 . S
C200 C198 1.363 . S
C200 C202 1.408 . S
C200 C205 1.342 . S
C201 C202 1.310 . S
C201 C204 1.461 . S
C201 H221 0.932 . S
C202 C200 1.408 . S
C202 C201 1.310 . S
C202 H222 0.930 . S
C203 C204 1.474 . S
C203 C205 1.285 . S
C203 H223 0.929 . S
C204 C201 1.461 . S
C204 C203 1.474 . S
C205 C200 1.342 . S
C205 C203 1.285 . S
C205 H224 0.930 . S
C206 C209 1.424 . S
C206 C211 1.245 1_655 S
C206 C212 1.428 . S
C207 C210 1.260 1_455 S
C207 C211 1.477 . S
C207 H225 0.932 . S
C208 C209 1.384 . S
C208 C210 1.479 . S
C208 H226 0.929 . S
C209 C206 1.424 . S
C209 C208 1.384 . S
C209 H227 0.928 . S
C210 C207 1.260 1_655 S
C210 C208 1.479 . S
C211 C206 1.245 1_455 S
C211 C207 1.477 . S
C211 H228 0.932 . S
C212 U195 2.882 . S
C212 C206 1.428 . S
C212 O215 1.301 1_655 S
C212 O216 1.282 . S
O213 U195 2.441 . S
O213 C199 1.249 . S
O214 U195 2.420 . S
O214 C199 1.202 . S
O215 U195 2.455 1_455 S
O215 C212 1.301 1_455 S
O216 U195 2.449 . S
O216 C212 1.282 . S
H217 C190 0.931 . S
H218 C192 0.929 . S
H219 C193 0.930 . S
H220 C194 0.931 . S
H221 C201 0.932 . S
H222 C202 0.930 . S
H223 C203 0.929 . S
H224 C205 0.930 . S
H225 C207 0.932 . S
H226 C208 0.929 . S
H227 C209 0.928 . S
H228 C211 0.932 . S
C229 C230 1.264 . S
C229 C234 1.479 . S
C229 C239 1.465 . S
C230 C229 1.264 . S
C230 C232 1.339 . S
C230 H257 0.931 . S
C231 C232 1.395 . S
C231 C233 1.320 . S
C232 C230 1.339 . S
C232 C231 1.395 . S
C232 H258 0.929 . S
C233 C231 1.320 . S
C233 C234 1.405 . S
C233 H259 0.930 . S
C234 C229 1.479 . S
C234 C233 1.405 . S
C234 H260 0.931 . S
U235 O236 2.454 1_565 S
U235 O237 2.458 1_565 S
U235 C238 2.984 1_565 S
U235 C239 2.847 . S
U235 C252 2.882 . S
U235 O253 2.441 . S
U235 O254 2.420 . S
U235 O255 2.455 1_565 S
U235 O256 2.449 . S
O236 U235 2.454 1_545 S
O236 C238 1.353 . S
O237 U235 2.458 1_545 S
O237 C238 1.286 . S
C238 U235 2.984 1_545 S
C238 O236 1.353 . S
C238 O237 1.286 . S
C238 C240 1.363 . S
C239 C229 1.465 . S
C239 U235 2.847 . S
C239 O253 1.249 . S
C239 O254 1.202 . S
C240 C238 1.363 . S
C240 C242 1.408 . S
C240 C245 1.342 . S
C241 C242 1.310 . S
C241 C244 1.461 . S
C241 H261 0.932 . S
C242 C240 1.408 . S
C242 C241 1.310 . S
C242 H262 0.930 . S
C243 C244 1.474 . S
C243 C245 1.285 . S
C243 H263 0.929 . S
C244 C241 1.461 . S
C244 C243 1.474 . S
C245 C240 1.342 . S
C245 C243 1.285 . S
C245 H264 0.930 . S
C246 C249 1.424 . S
C246 C251 1.245 1_565 S
C246 C252 1.428 . S
C247 C250 1.260 1_545 S
C247 C251 1.477 . S
C247 H265 0.932 . S
C248 C249 1.384 . S
C248 C250 1.479 . S
C248 H266 0.929 . S
C249 C246 1.424 . S
C249 C248 1.384 . S
C249 H267 0.928 . S
C250 C247 1.260 1_565 S
C250 C248 1.479 . S
C251 C246 1.245 1_545 S
C251 C247 1.477 . S
C251 H268 0.932 . S
C252 U235 2.882 . S
C252 C246 1.428 . S
C252 O255 1.301 1_565 S
C252 O256 1.282 . S
O253 U235 2.441 . S
O253 C239 1.249 . S
O254 U235 2.420 . S
O254 C239 1.202 . S
O255 U235 2.455 1_545 S
O255 C252 1.301 1_545 S
O256 U235 2.449 . S
O256 C252 1.282 . S
H257 C230 0.931 . S
H258 C232 0.929 . S
H259 C233 0.930 . S
H260 C234 0.931 . S
H261 C241 0.932 . S
H262 C242 0.930 . S
H263 C243 0.929 . S
H264 C245 0.930 . S
H265 C247 0.932 . S
H266 C248 0.929 . S
H267 C249 0.928 . S
H268 C251 0.932 . S
C269 C270 1.264 . S
C269 C274 1.479 . S
C269 C279 1.465 . S
C270 C269 1.264 . S
C270 C272 1.339 . S
C270 H297 0.931 . S
C271 C272 1.395 . S
C271 C273 1.320 . S
C272 C270 1.339 . S
C272 C271 1.395 . S
C272 H298 0.929 . S
C273 C271 1.320 . S
C273 C274 1.405 . S
C273 H299 0.930 . S
C274 C269 1.479 . S
C274 C273 1.405 . S
C274 H300 0.931 . S
U275 O276 2.454 . S
U275 O277 2.458 . S
U275 C278 2.984 . S
U275 C279 2.847 . S
U275 C292 2.882 . S
U275 O293 2.441 . S
U275 O294 2.420 . S
U275 O295 2.455 . S
U275 O296 2.449 . S
O276 U275 2.454 . S
O276 C278 1.353 . S
O277 U275 2.458 . S
O277 C278 1.286 . S
C278 U275 2.984 . S
C278 O276 1.353 . S
C278 O277 1.286 . S
C278 C280 1.363 . S
C279 C269 1.465 . S
C279 U275 2.847 . S
C279 O293 1.249 . S
C279 O294 1.202 . S
C280 C278 1.363 . S
C280 C282 1.408 . S
C280 C285 1.342 . S
C281 C282 1.310 . S
C281 C284 1.461 . S
C281 H301 0.932 . S
C282 C280 1.408 . S
C282 C281 1.310 . S
C282 H302 0.930 . S
C283 C284 1.474 . S
C283 C285 1.285 . S
C283 H303 0.929 . S
C284 C281 1.461 . S
C284 C283 1.474 . S
C285 C280 1.342 . S
C285 C283 1.285 . S
C285 H304 0.930 . S
C286 C289 1.424 . S
C286 C291 1.245 . S
C286 C292 1.428 . S
C287 C290 1.260 . S
C287 C291 1.477 1_556 S
C287 H305 0.932 . S
C288 C289 1.384 1_556 S
C288 C290 1.479 . S
C288 H306 0.929 . S
C289 C286 1.424 . S
C289 C288 1.384 1_554 S
C289 H307 0.928 . S
C290 C287 1.260 . S
C290 C288 1.479 . S
C291 C286 1.245 . S
C291 C287 1.477 1_554 S
C291 H308 0.932 . S
C292 U275 2.882 . S
C292 C286 1.428 . S
C292 O295 1.301 . S
C292 O296 1.282 . S
O293 U275 2.441 . S
O293 C279 1.249 . S
O294 U275 2.420 . S
O294 C279 1.202 . S
O295 U275 2.455 . S
O295 C292 1.301 . S
O296 U275 2.449 . S
O296 C292 1.282 . S
H297 C270 0.931 . S
H298 C272 0.929 . S
H299 C273 0.930 . S
H300 C274 0.931 . S
H301 C281 0.932 . S
H302 C282 0.930 . S
H303 C283 0.929 . S
H304 C285 0.930 . S
H305 C287 0.932 . S
H306 C288 0.929 . S
H307 C289 0.928 . S
H308 C291 0.932 . S
C309 C310 1.387 . S
C309 H313 0.950 . S
C309 C318 1.390 . S
C310 C309 1.387 . S
C310 C312 1.387 . S
H311 C318 0.950 . S
C312 C310 1.387 . S
C312 C314 1.390 . S
C312 H316 0.950 . S
H313 C309 0.950 . S
C314 C312 1.390 . S
C314 C315 1.387 . S
C314 H317 0.950 . S
C315 C314 1.387 . S
C315 C318 1.387 . S
H316 C312 0.950 . S
H317 C314 0.950 . S
C318 C309 1.390 . S
C318 H311 0.950 . S
C318 C315 1.387 . S
C319 C320 1.387 . S
C319 H323 0.950 . S
C319 C328 1.390 . S
C320 C319 1.387 . S
C320 C322 1.387 . S
H321 C328 0.950 . S
C322 C320 1.387 . S
C322 C324 1.390 . S
C322 H326 0.950 . S
H323 C319 0.950 . S
C324 C322 1.390 . S
C324 C325 1.387 . S
C324 H327 0.950 . S
C325 C324 1.387 . S
C325 C328 1.387 . S
H326 C322 0.950 . S
H327 C324 0.950 . S
C328 C319 1.390 . S
C328 H321 0.950 . S
C328 C325 1.387 . S
C329 C330 1.387 . S
C329 H333 0.950 . S
C329 C338 1.390 . S
C330 C329 1.387 . S
C330 C332 1.387 . S
H331 C338 0.950 . S
C332 C330 1.387 . S
C332 C334 1.390 . S
C332 H336 0.950 . S
H333 C329 0.950 . S
C334 C332 1.390 . S
C334 C335 1.387 . S
C334 H337 0.950 . S
C335 C334 1.387 . S
C335 C338 1.387 . S
H336 C332 0.950 . S
H337 C334 0.950 . S
C338 C329 1.390 . S
C338 H331 0.950 . S
C338 C335 1.387 . S
C339 C340 1.387 . S
C339 H343 0.950 . S
C339 C348 1.390 . S
C340 C339 1.387 . S
C340 C342 1.387 . S
H341 C348 0.950 . S
C342 C340 1.387 . S
C342 C344 1.390 . S
C342 H346 0.950 . S
H343 C339 0.950 . S
C344 C342 1.390 . S
C344 C345 1.387 . S
C344 H347 0.950 . S
C345 C344 1.387 . S
C345 C348 1.387 . S
H346 C342 0.950 . S
H347 C344 0.950 . S
C348 C339 1.390 . S
C348 H341 0.950 . S
C348 C345 1.387 . S
C349 C350 1.387 . S
C349 H353 0.950 . S
C349 C358 1.390 . S
C350 C349 1.387 . S
C350 C352 1.387 . S
H351 C358 0.950 . S
C352 C350 1.387 . S
C352 C354 1.390 . S
C352 H356 0.950 . S
H353 C349 0.950 . S
C354 C352 1.390 . S
C354 C355 1.387 . S
C354 H357 0.950 . S
C355 C354 1.387 . S
C355 C358 1.387 . S
H356 C352 0.950 . S
H357 C354 0.950 . S
C358 C349 1.390 . S
C358 H351 0.950 . S
C358 C355 1.387 . S
C359 C360 1.387 . S
C359 H363 0.950 . S
C359 C368 1.390 . S
C360 C359 1.387 . S
C360 C362 1.387 . S
H361 C368 0.950 . S
C362 C360 1.387 . S
C362 C364 1.390 . S
C362 H366 0.950 . S
H363 C359 0.950 . S
C364 C362 1.390 . S
C364 C365 1.387 . S
C364 H367 0.950 . S
C365 C364 1.387 . S
C365 C368 1.387 . S
H366 C362 0.950 . S
H367 C364 0.950 . S
C368 C359 1.390 . S
C368 H361 0.950 . S
C368 C365 1.387 . S
C369 C370 1.387 . S
C369 H373 0.950 . S
C369 C378 1.390 . S
C370 C369 1.387 . S
C370 C372 1.387 . S
H371 C378 0.950 . S
C372 C370 1.387 . S
C372 C374 1.390 . S
C372 H376 0.950 . S
H373 C369 0.950 . S
C374 C372 1.390 . S
C374 C375 1.387 . S
C374 H377 0.950 . S
C375 C374 1.387 . S
C375 C378 1.387 . S
H376 C372 0.950 . S
H377 C374 0.950 . S
C378 C369 1.390 . S
C378 H371 0.950 . S
C378 C375 1.387 . S
C379 C380 1.387 . S
C379 H383 0.950 . S
C379 C388 1.390 . S
C380 C379 1.387 . S
C380 C382 1.387 . S
H381 C388 0.950 . S
C382 C380 1.387 . S
C382 C384 1.390 . S
C382 H386 0.950 . S
H383 C379 0.950 . S
C384 C382 1.390 . S
C384 C385 1.387 . S
C384 H387 0.950 . S
C385 C384 1.387 . S
C385 C388 1.387 . S
H386 C382 0.950 . S
H387 C384 0.950 . S
C388 C379 1.390 . S
C388 H381 0.950 . S
C388 C385 1.387 . S
C389 C390 1.387 . S
C389 H393 0.950 . S
C389 C398 1.390 . S
C390 C389 1.387 . S
C390 C392 1.387 . S
H391 C398 0.950 . S
C392 C390 1.387 . S
C392 C394 1.390 . S
C392 H396 0.950 . S
H393 C389 0.950 . S
C394 C392 1.390 . S
C394 C395 1.387 . S
C394 H397 0.950 . S
C395 C394 1.387 . S
C395 C398 1.387 . S
H396 C392 0.950 . S
H397 C394 0.950 . S
C398 C389 1.390 . S
C398 H391 0.950 . S
C398 C395 1.387 . S
C399 C400 1.387 . S
C399 H403 0.950 . S
C399 C408 1.390 . S
C400 C399 1.387 . S
C400 C402 1.387 . S
H401 C408 0.950 . S
C402 C400 1.387 . S
C402 C404 1.390 . S
C402 H406 0.950 . S
H403 C399 0.950 . S
C404 C402 1.390 . S
C404 C405 1.387 . S
C404 H407 0.950 . S
C405 C404 1.387 . S
C405 C408 1.387 . S
H406 C402 0.950 . S
H407 C404 0.950 . S
C408 C399 1.390 . S
C408 H401 0.950 . S
C408 C405 1.387 . S
C409 C410 1.387 . S
C409 H413 0.950 . S
C409 C418 1.390 . S
C410 C409 1.387 . S
C410 C412 1.387 . S
H411 C418 0.950 . S
C412 C410 1.387 . S
C412 C414 1.390 . S
C412 H416 0.950 . S
H413 C409 0.950 . S
C414 C412 1.390 . S
C414 C415 1.387 . S
C414 H417 0.950 . S
C415 C414 1.387 . S
C415 C418 1.387 . S
H416 C412 0.950 . S
H417 C414 0.950 . S
C418 C409 1.390 . S
C418 H411 0.950 . S
C418 C415 1.387 . S
C419 C420 1.387 . S
C419 H423 0.950 . S
C419 C428 1.390 . S
C420 C419 1.387 . S
C420 C422 1.387 . S
H421 C428 0.950 . S
C422 C420 1.387 . S
C422 C424 1.390 . S
C422 H426 0.950 . S
H423 C419 0.950 . S
C424 C422 1.390 . S
C424 C425 1.387 . S
C424 H427 0.950 . S
C425 C424 1.387 . S
C425 C428 1.387 . S
H426 C422 0.950 . S
H427 C424 0.950 . S
C428 C419 1.390 . S
C428 H421 0.950 . S
C428 C425 1.387 . S
C429 C430 1.387 . S
C429 H433 0.950 . S
C429 C438 1.390 . S
C430 C429 1.387 . S
C430 C432 1.387 1_455 S
H431 C438 0.950 . S
C432 C430 1.387 1_655 S
C432 C434 1.390 . S
C432 H436 0.950 . S
H433 C429 0.950 . S
C434 C432 1.390 . S
C434 C435 1.387 1_655 S
C434 H437 0.950 . S
C435 C434 1.387 1_455 S
C435 C438 1.387 . S
H436 C432 0.950 . S
H437 C434 0.950 . S
C438 C429 1.390 . S
C438 H431 0.950 . S
C438 C435 1.387 . S
C439 C440 1.387 . S
C439 H443 0.950 . S
C439 C448 1.390 . S
C440 C439 1.387 . S
C440 C442 1.387 1_545 S
H441 C448 0.950 . S
C442 C440 1.387 1_565 S
C442 C444 1.390 . S
C442 H446 0.950 . S
H443 C439 0.950 . S
C444 C442 1.390 . S
C444 C445 1.387 1_565 S
C444 H447 0.950 . S
C445 C444 1.387 1_545 S
C445 C448 1.387 . S
H446 C442 0.950 . S
H447 C444 0.950 . S
C448 C439 1.390 . S
C448 H441 0.950 . S
C448 C445 1.387 . S
C449 C450 1.387 . S
C449 H453 0.950 . S
C449 C458 1.390 . S
C450 C449 1.387 . S
C450 C452 1.387 . S
H451 C458 0.950 . S
C452 C450 1.387 . S
C452 C454 1.390 . S
C452 H456 0.950 . S
H453 C449 0.950 . S
C454 C452 1.390 . S
C454 C455 1.387 . S
C454 H457 0.950 . S
C455 C454 1.387 . S
C455 C458 1.387 . S
H456 C452 0.950 . S
H457 C454 0.950 . S
C458 C449 1.390 . S
C458 H451 0.950 . S
C458 C455 1.387 . S
C459 C460 1.387 . S
C459 H463 0.950 . S
C459 C468 1.390 . S
C460 C459 1.387 . S
C460 C462 1.387 1_545 S
H461 C468 0.950 . S
C462 C460 1.387 1_565 S
C462 C464 1.390 . S
C462 H466 0.950 . S
H463 C459 0.950 . S
C464 C462 1.390 . S
C464 C465 1.394 . S
C464 H467 0.950 . S
C465 C464 1.394 . S
C465 C468 1.381 1_565 S
H466 C462 0.950 . S
H467 C464 0.950 . S
C468 C459 1.390 . S
C468 H461 0.950 . S
C468 C465 1.381 1_545 S
C469 C470 1.387 . S
C469 H473 0.950 . S
C469 C478 1.390 . S
C470 C469 1.387 . S
C470 C472 1.387 . S
H471 C478 0.950 . S
C472 C470 1.387 . S
C472 C474 1.390 . S
C472 H476 0.950 . S
H473 C469 0.950 . S
C474 C472 1.390 . S
C474 C475 1.387 . S
C474 H477 0.950 . S
C475 C474 1.387 . S
C475 C478 1.387 . S
H476 C472 0.950 . S
H477 C474 0.950 . S
C478 C469 1.390 . S
C478 H471 0.950 . S
C478 C475 1.387 . S
C479 C480 1.387 1_655 S
C479 H483 0.950 . S
C479 C488 1.390 . S
C480 C479 1.387 1_455 S
C480 C482 1.387 . S
H481 C488 0.950 . S
C482 C480 1.387 . S
C482 C484 1.390 . S
C482 H486 0.950 . S
H483 C479 0.950 . S
C484 C482 1.390 . S
C484 C485 1.387 . S
C484 H487 0.950 . S
C485 C484 1.387 . S
C485 C488 1.388 1_455 S
H486 C482 0.950 . S
H487 C484 0.950 . S
C488 C479 1.390 . S
C488 H481 0.950 . S
C488 C485 1.388 1_655 S
C310 C20 1.273 . S
C315 C284 1.312 . S
C320 C41 1.366 . S
C325 C191 1.373 . S
C330 C64 1.401 . S
C335 C231 1.411 . S
C340 C19 1.315 . S
C345 C271 1.417 . S
C355 C204 1.343 . S
C350 C44 1.346 . S
C365 C244 1.327 . S
C360 C67 1.331 . S
C370 C43 1.262 . S
C375 C111 1.332 . S
C380 C66 1.261 . S
C385 C151 1.324 . S
C390 C21 1.344 . S
C395 C84 1.343 . S
C405 C124 1.363 . S
C400 C42 1.307 . S
C415 C164 1.384 . S
C410 C65 1.325 . S
C420 C18 1.365 . S
C425 C71 1.371 . S
C435 C170 1.452 . S
C430 C17 1.469 . S
C440 C39 1.464 . S
C445 C90 1.457 . S
C450 C62 1.481 . S
C455 C130 1.465 . S
C465 C250 1.447 . S
C460 C40 1.453 . S
C475 C290 1.469 . S
C470 C63 1.473 . S
C480 C16 1.464 . S
C485 C210 1.455 1_455 S
