# Generated by pormake.
# Topology iac, (4,6)-cn, num edge types: 1
# Building blocks:
#     Node 0, Type 0, BuildingBlock: KUFVIS_clean_sbu_0, # of connection points: 4
#     Node 1, Type 0, BuildingBlock: KUFVIS_clean_sbu_0, # of connection points: 4
#     Node 2, Type 0, BuildingBlock: KUFVIS_clean_sbu_0, # of connection points: 4
#     Node 3, Type 0, BuildingBlock: KUFVIS_clean_sbu_0, # of connection points: 4
#     Node 4, Type 0, BuildingBlock: KUFVIS_clean_sbu_0, # of connection points: 4
#     Node 5, Type 0, BuildingBlock: KUFVIS_clean_sbu_0, # of connection points: 4
#     Node 6, Type 0, BuildingBlock: KUFVIS_clean_sbu_0, # of connection points: 4
#     Node 7, Type 0, BuildingBlock: KUFVIS_clean_sbu_0, # of connection points: 4
#     Node 8, Type 0, BuildingBlock: KUFVIS_clean_sbu_0, # of connection points: 4
#     Node 9, Type 0, BuildingBlock: KUFVIS_clean_sbu_0, # of connection points: 4
#     Node 10, Type 0, BuildingBlock: KUFVIS_clean_sbu_0, # of connection points: 4
#     Node 11, Type 0, BuildingBlock: KUFVIS_clean_sbu_0, # of connection points: 4
#     Node 12, Type 0, BuildingBlock: KUFVIS_clean_sbu_0, # of connection points: 4
#     Node 13, Type 0, BuildingBlock: KUFVIS_clean_sbu_0, # of connection points: 4
#     Node 14, Type 0, BuildingBlock: KUFVIS_clean_sbu_0, # of connection points: 4
#     Node 15, Type 0, BuildingBlock: KUFVIS_clean_sbu_0, # of connection points: 4
#     Node 16, Type 0, BuildingBlock: KUFVIS_clean_sbu_0, # of connection points: 4
#     Node 17, Type 0, BuildingBlock: KUFVIS_clean_sbu_0, # of connection points: 4
#     Node 18, Type 0, BuildingBlock: KUFVIS_clean_sbu_0, # of connection points: 4
#     Node 19, Type 0, BuildingBlock: KUFVIS_clean_sbu_0, # of connection points: 4
#     Node 20, Type 0, BuildingBlock: KUFVIS_clean_sbu_0, # of connection points: 4
#     Node 21, Type 0, BuildingBlock: KUFVIS_clean_sbu_0, # of connection points: 4
#     Node 22, Type 0, BuildingBlock: KUFVIS_clean_sbu_0, # of connection points: 4
#     Node 23, Type 0, BuildingBlock: KUFVIS_clean_sbu_0, # of connection points: 4
#     Node 24, Type 1, BuildingBlock: JUFBIX_clean_sbu_0, # of connection points: 6
#     Node 25, Type 1, BuildingBlock: JUFBIX_clean_sbu_0, # of connection points: 6
#     Node 26, Type 1, BuildingBlock: JUFBIX_clean_sbu_0, # of connection points: 6
#     Node 27, Type 1, BuildingBlock: JUFBIX_clean_sbu_0, # of connection points: 6
#     Node 28, Type 1, BuildingBlock: JUFBIX_clean_sbu_0, # of connection points: 6
#     Node 29, Type 1, BuildingBlock: JUFBIX_clean_sbu_0, # of connection points: 6
#     Node 30, Type 1, BuildingBlock: JUFBIX_clean_sbu_0, # of connection points: 6
#     Node 31, Type 1, BuildingBlock: JUFBIX_clean_sbu_0, # of connection points: 6
#     Node 32, Type 1, BuildingBlock: JUFBIX_clean_sbu_0, # of connection points: 6
#     Node 33, Type 1, BuildingBlock: JUFBIX_clean_sbu_0, # of connection points: 6
#     Node 34, Type 1, BuildingBlock: JUFBIX_clean_sbu_0, # of connection points: 6
#     Node 35, Type 1, BuildingBlock: JUFBIX_clean_sbu_0, # of connection points: 6
#     Node 36, Type 1, BuildingBlock: JUFBIX_clean_sbu_0, # of connection points: 6
#     Node 37, Type 1, BuildingBlock: JUFBIX_clean_sbu_0, # of connection points: 6
#     Node 38, Type 1, BuildingBlock: JUFBIX_clean_sbu_0, # of connection points: 6
#     Node 39, Type 1, BuildingBlock: JUFBIX_clean_sbu_0, # of connection points: 6
#     Edge 40, Type (0, 1), BuildingBlock: XIVTED_clean_linker_0, # of connection points: 2
#     Edge 41, Type (0, 1), BuildingBlock: XIVTED_clean_linker_0, # of connection points: 2
#     Edge 42, Type (0, 1), BuildingBlock: XIVTED_clean_linker_0, # of connection points: 2
#     Edge 43, Type (0, 1), BuildingBlock: XIVTED_clean_linker_0, # of connection points: 2
#     Edge 44, Type (0, 1), BuildingBlock: XIVTED_clean_linker_0, # of connection points: 2
#     Edge 45, Type (0, 1), BuildingBlock: XIVTED_clean_linker_0, # of connection points: 2
#     Edge 46, Type (0, 1), BuildingBlock: XIVTED_clean_linker_0, # of connection points: 2
#     Edge 47, Type (0, 1), BuildingBlock: XIVTED_clean_linker_0, # of connection points: 2
#     Edge 48, Type (0, 1), BuildingBlock: XIVTED_clean_linker_0, # of connection points: 2
#     Edge 49, Type (0, 1), BuildingBlock: XIVTED_clean_linker_0, # of connection points: 2
#     Edge 50, Type (0, 1), BuildingBlock: XIVTED_clean_linker_0, # of connection points: 2
#     Edge 51, Type (0, 1), BuildingBlock: XIVTED_clean_linker_0, # of connection points: 2
#     Edge 52, Type (0, 1), BuildingBlock: XIVTED_clean_linker_0, # of connection points: 2
#     Edge 53, Type (0, 1), BuildingBlock: XIVTED_clean_linker_0, # of connection points: 2
#     Edge 54, Type (0, 1), BuildingBlock: XIVTED_clean_linker_0, # of connection points: 2
#     Edge 55, Type (0, 1), BuildingBlock: XIVTED_clean_linker_0, # of connection points: 2
#     Edge 56, Type (0, 1), BuildingBlock: XIVTED_clean_linker_0, # of connection points: 2
#     Edge 57, Type (0, 1), BuildingBlock: XIVTED_clean_linker_0, # of connection points: 2
#     Edge 58, Type (0, 1), BuildingBlock: XIVTED_clean_linker_0, # of connection points: 2
#     Edge 59, Type (0, 1), BuildingBlock: XIVTED_clean_linker_0, # of connection points: 2
#     Edge 60, Type (0, 1), BuildingBlock: XIVTED_clean_linker_0, # of connection points: 2
#     Edge 61, Type (0, 1), BuildingBlock: XIVTED_clean_linker_0, # of connection points: 2
#     Edge 62, Type (0, 1), BuildingBlock: XIVTED_clean_linker_0, # of connection points: 2
#     Edge 63, Type (0, 1), BuildingBlock: XIVTED_clean_linker_0, # of connection points: 2
#     Edge 64, Type (0, 1), BuildingBlock: XIVTED_clean_linker_0, # of connection points: 2
#     Edge 65, Type (0, 1), BuildingBlock: XIVTED_clean_linker_0, # of connection points: 2
#     Edge 66, Type (0, 1), BuildingBlock: XIVTED_clean_linker_0, # of connection points: 2
#     Edge 67, Type (0, 1), BuildingBlock: XIVTED_clean_linker_0, # of connection points: 2
#     Edge 68, Type (0, 1), BuildingBlock: XIVTED_clean_linker_0, # of connection points: 2
#     Edge 69, Type (0, 1), BuildingBlock: XIVTED_clean_linker_0, # of connection points: 2
#     Edge 70, Type (0, 1), BuildingBlock: XIVTED_clean_linker_0, # of connection points: 2
#     Edge 71, Type (0, 1), BuildingBlock: XIVTED_clean_linker_0, # of connection points: 2
#     Edge 72, Type (0, 1), BuildingBlock: XIVTED_clean_linker_0, # of connection points: 2
#     Edge 73, Type (0, 1), BuildingBlock: XIVTED_clean_linker_0, # of connection points: 2
#     Edge 74, Type (0, 1), BuildingBlock: XIVTED_clean_linker_0, # of connection points: 2
#     Edge 75, Type (0, 1), BuildingBlock: XIVTED_clean_linker_0, # of connection points: 2
#     Edge 76, Type (0, 1), BuildingBlock: XIVTED_clean_linker_0, # of connection points: 2
#     Edge 77, Type (0, 1), BuildingBlock: XIVTED_clean_linker_0, # of connection points: 2
#     Edge 78, Type (0, 1), BuildingBlock: XIVTED_clean_linker_0, # of connection points: 2
#     Edge 79, Type (0, 1), BuildingBlock: XIVTED_clean_linker_0, # of connection points: 2
#     Edge 80, Type (0, 1), BuildingBlock: XIVTED_clean_linker_0, # of connection points: 2
#     Edge 81, Type (0, 1), BuildingBlock: XIVTED_clean_linker_0, # of connection points: 2
#     Edge 82, Type (0, 1), BuildingBlock: XIVTED_clean_linker_0, # of connection points: 2
#     Edge 83, Type (0, 1), BuildingBlock: XIVTED_clean_linker_0, # of connection points: 2
#     Edge 84, Type (0, 1), BuildingBlock: XIVTED_clean_linker_0, # of connection points: 2
#     Edge 85, Type (0, 1), BuildingBlock: XIVTED_clean_linker_0, # of connection points: 2
#     Edge 86, Type (0, 1), BuildingBlock: XIVTED_clean_linker_0, # of connection points: 2
#     Edge 87, Type (0, 1), BuildingBlock: XIVTED_clean_linker_0, # of connection points: 2
#     Edge 88, Type (0, 1), BuildingBlock: XIVTED_clean_linker_0, # of connection points: 2
#     Edge 89, Type (0, 1), BuildingBlock: XIVTED_clean_linker_0, # of connection points: 2
#     Edge 90, Type (0, 1), BuildingBlock: XIVTED_clean_linker_0, # of connection points: 2
#     Edge 91, Type (0, 1), BuildingBlock: XIVTED_clean_linker_0, # of connection points: 2
#     Edge 92, Type (0, 1), BuildingBlock: XIVTED_clean_linker_0, # of connection points: 2
#     Edge 93, Type (0, 1), BuildingBlock: XIVTED_clean_linker_0, # of connection points: 2
#     Edge 94, Type (0, 1), BuildingBlock: XIVTED_clean_linker_0, # of connection points: 2
#     Edge 95, Type (0, 1), BuildingBlock: XIVTED_clean_linker_0, # of connection points: 2
#     Edge 96, Type (0, 1), BuildingBlock: XIVTED_clean_linker_0, # of connection points: 2
#     Edge 97, Type (0, 1), BuildingBlock: XIVTED_clean_linker_0, # of connection points: 2
#     Edge 98, Type (0, 1), BuildingBlock: XIVTED_clean_linker_0, # of connection points: 2
#     Edge 99, Type (0, 1), BuildingBlock: XIVTED_clean_linker_0, # of connection points: 2
#     Edge 100, Type (0, 1), BuildingBlock: XIVTED_clean_linker_0, # of connection points: 2
#     Edge 101, Type (0, 1), BuildingBlock: XIVTED_clean_linker_0, # of connection points: 2
#     Edge 102, Type (0, 1), BuildingBlock: XIVTED_clean_linker_0, # of connection points: 2
#     Edge 103, Type (0, 1), BuildingBlock: XIVTED_clean_linker_0, # of connection points: 2
#     Edge 104, Type (0, 1), BuildingBlock: XIVTED_clean_linker_0, # of connection points: 2
#     Edge 105, Type (0, 1), BuildingBlock: XIVTED_clean_linker_0, # of connection points: 2
#     Edge 106, Type (0, 1), BuildingBlock: XIVTED_clean_linker_0, # of connection points: 2
#     Edge 107, Type (0, 1), BuildingBlock: XIVTED_clean_linker_0, # of connection points: 2
#     Edge 108, Type (0, 1), BuildingBlock: XIVTED_clean_linker_0, # of connection points: 2
#     Edge 109, Type (0, 1), BuildingBlock: XIVTED_clean_linker_0, # of connection points: 2
#     Edge 110, Type (0, 1), BuildingBlock: XIVTED_clean_linker_0, # of connection points: 2
#     Edge 111, Type (0, 1), BuildingBlock: XIVTED_clean_linker_0, # of connection points: 2
#     Edge 112, Type (0, 1), BuildingBlock: XIVTED_clean_linker_0, # of connection points: 2
#     Edge 113, Type (0, 1), BuildingBlock: XIVTED_clean_linker_0, # of connection points: 2
#     Edge 114, Type (0, 1), BuildingBlock: XIVTED_clean_linker_0, # of connection points: 2
#     Edge 115, Type (0, 1), BuildingBlock: XIVTED_clean_linker_0, # of connection points: 2
#     Edge 116, Type (0, 1), BuildingBlock: XIVTED_clean_linker_0, # of connection points: 2
#     Edge 117, Type (0, 1), BuildingBlock: XIVTED_clean_linker_0, # of connection points: 2
#     Edge 118, Type (0, 1), BuildingBlock: XIVTED_clean_linker_0, # of connection points: 2
#     Edge 119, Type (0, 1), BuildingBlock: XIVTED_clean_linker_0, # of connection points: 2
#     Edge 120, Type (0, 1), BuildingBlock: XIVTED_clean_linker_0, # of connection points: 2
#     Edge 121, Type (0, 1), BuildingBlock: XIVTED_clean_linker_0, # of connection points: 2
#     Edge 122, Type (0, 1), BuildingBlock: XIVTED_clean_linker_0, # of connection points: 2
#     Edge 123, Type (0, 1), BuildingBlock: XIVTED_clean_linker_0, # of connection points: 2
#     Edge 124, Type (0, 1), BuildingBlock: XIVTED_clean_linker_0, # of connection points: 2
#     Edge 125, Type (0, 1), BuildingBlock: XIVTED_clean_linker_0, # of connection points: 2
#     Edge 126, Type (0, 1), BuildingBlock: XIVTED_clean_linker_0, # of connection points: 2
#     Edge 127, Type (0, 1), BuildingBlock: XIVTED_clean_linker_0, # of connection points: 2
#     Edge 128, Type (0, 1), BuildingBlock: XIVTED_clean_linker_0, # of connection points: 2
#     Edge 129, Type (0, 1), BuildingBlock: XIVTED_clean_linker_0, # of connection points: 2
#     Edge 130, Type (0, 1), BuildingBlock: XIVTED_clean_linker_0, # of connection points: 2
#     Edge 131, Type (0, 1), BuildingBlock: XIVTED_clean_linker_0, # of connection points: 2
#     Edge 132, Type (0, 1), BuildingBlock: XIVTED_clean_linker_0, # of connection points: 2
#     Edge 133, Type (0, 1), BuildingBlock: XIVTED_clean_linker_0, # of connection points: 2
#     Edge 134, Type (0, 1), BuildingBlock: XIVTED_clean_linker_0, # of connection points: 2
#     Edge 135, Type (0, 1), BuildingBlock: XIVTED_clean_linker_0, # of connection points: 2
# Relax obj value: 0.225
# Max RMSD: 0.236
# Mean RMSD: 0.107
data_MOF--net-iac--node1-KUFVIS_clean_sbu_0--node2-JUFBIX_clean_sbu_0--edge1-XIVTED_clean_linker_0
_symmetry_space_group_name_H-M    P1
_symmetry_Int_Tables_number       1
_symmetry_cell_setting            triclinic
loop_
_symmetry_equiv_pos_as_xyz
'x, y, z'
_cell_length_a     54.336453
_cell_length_b     54.748731
_cell_length_c     56.168311
_cell_angle_alpha  89.416894
_cell_angle_beta   88.139753
_cell_angle_gamma 88.975284
loop_
_atom_site_label
_atom_site_type_symbol
_atom_site_fract_x
_atom_site_fract_y
_atom_site_fract_z
_atom_type_partial_charge
Mn0 Mn 0.03217 0.27967 0.15509 0.0
Mn1 Mn 0.99598 0.27591 0.10706 0.0
C2 C 0.0248 0.24107 0.13794 0.0
C3 C 0.07055 0.28526 0.17395 0.0
C4 C 0.97509 0.28307 0.15739 0.0
O5 O 0.03115 0.3156 0.14201 0.0
O6 O 0.00845 0.30977 0.10983 0.0
C7 C 0.03419 0.28383 0.06913 0.0
N8 N 0.01587 0.26998 0.07898 0.0
C9 C 0.01969 0.24105 0.04706 0.0
C10 C 0.0385 0.25508 0.03648 0.0
C11 C 0.04584 0.27651 0.04761 0.0
C12 C 0.00876 0.24927 0.06849 0.0
H13 H 0.03984 0.30033 0.07763 0.0
C14 C 0.02087 0.32361 0.12307 0.0
O15 O 0.0495 0.28999 0.1845 0.0
O16 O 0.06956 0.27786 0.15208 0.0
N17 N 0.98247 0.24448 0.10168 0.0
C18 C 0.9651 0.23228 0.11493 0.0
C19 C 0.95629 0.21006 0.10665 0.0
C20 C 0.96517 0.20078 0.08473 0.0
C21 C 0.98282 0.21381 0.07127 0.0
C22 C 0.99087 0.23588 0.0804 0.0
H23 H 0.95812 0.23938 0.13174 0.0
O24 O 0.03168 0.2429 0.15976 0.0
O25 O 0.02259 0.26188 0.12659 0.0
O26 O 0.9958 0.28232 0.16759 0.0
O27 O 0.9732 0.28163 0.13486 0.0
C28 C 0.99311 0.20551 0.04941 0.0
C29 C 0.01162 0.21906 0.03736 0.0
H30 H 0.04757 0.24947 0.01991 0.0
H31 H 0.06041 0.28737 0.03961 0.0
H32 H 0.94269 0.2001 0.11715 0.0
H33 H 0.95848 0.18353 0.0785 0.0
H34 H 0.98722 0.18852 0.0419 0.0
H35 H 0.01968 0.21227 0.02077 0.0
Mn36 Mn 0.048 0.77409 0.41878 0.0
Mn37 Mn 0.00833 0.7841 0.46539 0.0
C38 C 0.03859 0.81343 0.42978 0.0
C39 C 0.08665 0.76353 0.40359 0.0
C40 C 0.99249 0.77007 0.41624 0.0
O41 O 0.04575 0.74116 0.43509 0.0
O42 O 0.02306 0.75077 0.46797 0.0
C43 C 0.04428 0.78356 0.50391 0.0
N44 N 0.02581 0.79508 0.49213 0.0
C45 C 0.02594 0.82916 0.51884 0.0
C46 C 0.04484 0.81758 0.53137 0.0
C47 C 0.05412 0.79472 0.5238 0.0
C48 C 0.01695 0.8172 0.49909 0.0
H49 H 0.05146 0.766 0.49814 0.0
C50 C 0.03623 0.73583 0.45541 0.0
O51 O 0.06692 0.75921 0.39209 0.0
O52 O 0.08403 0.77457 0.42395 0.0
N53 N 0.99259 0.81568 0.46582 0.0
C54 C 0.9747 0.82467 0.45151 0.0
C55 C 0.9635 0.84741 0.45663 0.0
C56 C 0.97054 0.86054 0.47658 0.0
C57 C 0.98868 0.85076 0.49127 0.0
C58 C 0.99907 0.82793 0.48538 0.0
H59 H 0.96902 0.8146 0.43628 0.0
O60 O 0.04811 0.80904 0.40872 0.0
O61 O 0.03581 0.79482 0.44416 0.0
O62 O 0.01385 0.7706 0.40642 0.0
O63 O 0.98832 0.7736 0.43848 0.0
C64 C 0.99712 0.86293 0.51135 0.0
C65 C 0.01585 0.85222 0.52503 0.0
H66 H 0.05248 0.82612 0.54673 0.0
H67 H 0.06878 0.78572 0.5333 0.0
H68 H 0.94947 0.85481 0.44522 0.0
H69 H 0.96202 0.87818 0.48034 0.0
H70 H 0.98955 0.88069 0.51624 0.0
H71 H 0.02242 0.86191 0.54023 0.0
Mn72 Mn 0.5366 0.78122 0.65407 0.0
Mn73 Mn 0.49928 0.77625 0.60696 0.0
C74 C 0.52874 0.74212 0.63796 0.0
C75 C 0.5753 0.78751 0.67228 0.0
C76 C 0.47957 0.78512 0.65744 0.0
O77 O 0.5354 0.8168 0.63998 0.0
O78 O 0.5121 0.81004 0.60839 0.0
C79 C 0.53662 0.78265 0.56794 0.0
N80 N 0.5184 0.76929 0.57863 0.0
C81 C 0.52087 0.73953 0.54737 0.0
C82 C 0.53957 0.75304 0.53594 0.0
C83 C 0.54754 0.77464 0.54632 0.0
C84 C 0.51069 0.74841 0.56888 0.0
H85 H 0.54273 0.7993 0.57584 0.0
C86 C 0.52481 0.82425 0.62098 0.0
O87 O 0.55435 0.79246 0.6829 0.0
O88 O 0.57406 0.77934 0.65069 0.0
N89 N 0.48535 0.74478 0.60287 0.0
C90 C 0.46822 0.73313 0.6169 0.0
C91 C 0.45885 0.71082 0.60945 0.0
C92 C 0.46692 0.7009 0.58753 0.0
C93 C 0.48433 0.71337 0.57326 0.0
C94 C 0.49299 0.73554 0.58161 0.0
H95 H 0.46183 0.74074 0.6337 0.0
O96 O 0.53608 0.74448 0.65959 0.0
O97 O 0.52634 0.76268 0.62623 0.0
O98 O 0.5005 0.78436 0.66721 0.0
O99 O 0.47717 0.78307 0.63503 0.0
C100 C 0.49381 0.70444 0.55133 0.0
C101 C 0.51216 0.71743 0.53845 0.0
H102 H 0.54806 0.74691 0.51929 0.0
H103 H 0.56203 0.78512 0.53766 0.0
H104 H 0.44543 0.7013 0.62056 0.0
H105 H 0.45979 0.6836 0.58192 0.0
H106 H 0.48742 0.68737 0.54439 0.0
H107 H 0.51961 0.71015 0.52182 0.0
Mn108 Mn 0.52569 0.28158 0.92144 0.0
Mn109 Mn 0.49845 0.29095 0.97567 0.0
C110 C 0.51575 0.32045 0.93345 0.0
C111 C 0.55981 0.27542 0.89655 0.0
C112 C 0.47103 0.27377 0.93327 0.0
O113 O 0.53224 0.24973 0.93846 0.0
O114 O 0.51363 0.25759 0.97401 0.0
C115 C 0.54404 0.28998 0.00326 0.0
N116 N 0.52289 0.30165 0.9968 0.0
C117 C 0.53083 0.33561 0.02216 0.0
C118 C 0.55258 0.32386 0.0292 0.0
C119 C 0.55925 0.30098 0.01965 0.0
C120 C 0.51642 0.32376 0.00575 0.0
H121 H 0.54929 0.27242 0.99594 0.0
C122 C 0.52613 0.24369 0.95973 0.0
O123 O 0.53832 0.26769 0.89102 0.0
O124 O 0.56149 0.28676 0.91664 0.0
N125 N 0.48338 0.32251 0.98048 0.0
C126 C 0.46241 0.33195 0.97111 0.0
C127 C 0.4533 0.35485 0.97867 0.0
C128 C 0.46577 0.36778 0.99591 0.0
C129 C 0.48723 0.35766 0.00544 0.0
C130 C 0.49529 0.33465 0.99737 0.0
H131 H 0.45294 0.32228 0.95768 0.0
O132 O 0.51871 0.31569 0.91094 0.0
O133 O 0.519 0.30243 0.94837 0.0
O134 O 0.48981 0.27312 0.91919 0.0
O135 O 0.47163 0.28071 0.9549 0.0
C136 C 0.50122 0.36973 0.02227 0.0
C137 C 0.52306 0.35876 0.03055 0.0
H138 H 0.56439 0.3323 0.04181 0.0
H139 H 0.57607 0.29184 0.02491 0.0
H140 H 0.43681 0.3626 0.97111 0.0
H141 H 0.45887 0.38557 1.00149 0.0
H142 H 0.49554 0.38761 0.02869 0.0
H143 H 0.53383 0.36835 0.04324 0.0
Mn144 Mn 0.16688 0.00411 0.29028 0.0
Mn145 Mn 0.21862 0.01472 0.32018 0.0
C146 C 0.18015 0.04329 0.2938 0.0
C147 C 0.14734 0.99447 0.25565 0.0
C148 C 0.16917 0.00612 0.34464 0.0
O149 O 0.18271 0.97061 0.29234 0.0
O150 O 0.21691 0.97966 0.31167 0.0
C151 C 0.25444 0.00487 0.28042 0.0
N152 N 0.24524 0.02 0.29776 0.0
C153 C 0.27601 0.04998 0.28836 0.0
C154 C 0.28591 0.03465 0.27048 0.0
C155 C 0.275 0.01205 0.26644 0.0
C156 C 0.25543 0.04189 0.30164 0.0
H157 H 0.24615 0.98746 0.2773 0.0
C158 C 0.20308 0.96455 0.30144 0.0
O159 O 0.13705 0.99032 0.27646 0.0
O160 O 0.16928 0.00349 0.25504 0.0
N161 N 0.2235 0.0477 0.32973 0.0
C162 C 0.21109 0.06078 0.34696 0.0
C163 C 0.21949 0.08394 0.35304 0.0
C164 C 0.24074 0.09327 0.34162 0.0
C165 C 0.25334 0.07939 0.32411 0.0
C166 C 0.24417 0.05638 0.31887 0.0
H167 H 0.19483 0.05368 0.35589 0.0
O168 O 0.15743 0.03915 0.28898 0.0
O169 O 0.19486 0.02436 0.29586 0.0
O170 O 0.15727 0.00288 0.32575 0.0
O171 O 0.1922 0.01032 0.3446 0.0
C172 C 0.27435 0.08769 0.31131 0.0
C173 C 0.28559 0.07305 0.29336 0.0
H174 H 0.30178 0.04011 0.25968 0.0
H175 H 0.28248 1.00017 0.25262 0.0
H176 H 0.20962 0.09456 0.36652 0.0
H177 H 0.24708 0.11119 0.34628 0.0
H178 H 0.28181 0.10545 0.31489 0.0
H179 H 0.30153 0.07977 0.28341 0.0
Mn180 Mn 0.25979 0.90251 0.54543 0.0
Mn181 Mn 0.26829 0.94776 0.50493 0.0
C182 C 0.29874 0.91662 0.53746 0.0
C183 C 0.24901 0.89076 0.58391 0.0
C184 C 0.26047 0.89485 0.49191 0.0
O185 O 0.22535 0.91582 0.54086 0.0
O186 O 0.23377 0.94843 0.51755 0.0
C187 C 0.26156 0.98953 0.53776 0.0
N188 N 0.27531 0.97746 0.52077 0.0
C189 C 0.30636 0.00826 0.52057 0.0
C190 C 0.29232 0.02123 0.53778 0.0
C191 C 0.26991 0.01173 0.54652 0.0
C192 C 0.29715 0.98616 0.51262 0.0
H193 H 0.24443 0.98219 0.54467 0.0
C194 C 0.21897 0.93547 0.53034 0.0
O195 O 0.24647 0.8761 0.56614 0.0
O196 O 0.25789 0.91219 0.57928 0.0
N197 N 0.30096 0.95002 0.49126 0.0
C198 C 0.31289 0.93472 0.47557 0.0
C199 C 0.33566 0.94146 0.46521 0.0
C200 C 0.34587 0.96395 0.47092 0.0
C201 C 0.33331 0.97941 0.48711 0.0
C202 C 0.31054 0.97182 0.49668 0.0
H203 H 0.30521 0.91743 0.47108 0.0
O204 O 0.2958 0.8955 0.54775 0.0
O205 O 0.27891 0.92913 0.53288 0.0
O206 O 0.25981 0.8863 0.51309 0.0
O207 O 0.26217 0.91763 0.48694 0.0
C208 C 0.34265 0.00189 0.49439 0.0
C209 C 0.32927 0.01621 0.51125 0.0
H210 H 0.2987 0.03837 0.54457 0.0
H211 H 0.25909 0.0215 0.55998 0.0
H212 H 0.34532 0.92935 0.45284 0.0
H213 H 0.36347 0.96906 0.46294 0.0
H214 H 0.36031 0.00812 0.48744 0.0
H215 H 0.33684 0.03325 0.51703 0.0
Mn216 Mn 0.40542 0.05326 0.75132 0.0
Mn217 Mn 0.35766 0.03984 0.78859 0.0
C218 C 0.39822 0.01328 0.76107 0.0
C219 C 0.41954 0.06361 0.7136 0.0
C220 C 0.40614 0.05957 0.80473 0.0
O221 O 0.38525 0.08448 0.75267 0.0
O222 O 0.35147 0.072 0.77314 0.0
C223 C 0.3193 0.03428 0.75289 0.0
N224 N 0.3322 0.02499 0.7714 0.0
C225 C 0.30876 0.98811 0.77202 0.0
C226 C 0.29512 0.99733 0.75305 0.0
C227 C 0.3005 0.02046 0.74337 0.0
C228 C 0.32746 0.00259 0.78057 0.0
H229 H 0.32332 0.0521 0.74546 0.0
C230 C 0.36335 0.08786 0.76073 0.0
O231 O 0.43124 0.07004 0.73227 0.0
O232 O 0.39982 0.05079 0.71689 0.0
N233 N 0.36058 0.00907 0.80486 0.0
C234 C 0.3756 0.00272 0.82297 0.0
C235 C 0.37244 0.98022 0.8348 0.0
C236 C 0.35364 0.96465 0.82817 0.0
C237 C 0.33823 0.97166 0.80966 0.0
C238 C 0.34222 0.99433 0.79857 0.0
H239 H 0.38982 0.01475 0.82847 0.0
O240 O 0.41952 0.01941 0.75198 0.0
O241 O 0.38154 0.03051 0.76316 0.0
O242 O 0.41726 0.05903 0.78447 0.0
O243 O 0.38342 0.05431 0.80803 0.0
C244 C 0.31912 0.95701 0.80174 0.0
C245 C 0.30458 0.96511 0.78275 0.0
H246 H 0.28053 0.98677 0.74574 0.0
H247 H 0.29011 0.02767 0.72867 0.0
H248 H 0.38438 0.97496 0.8491 0.0
H249 H 0.35122 0.94735 0.83739 0.0
H250 H 0.31562 0.93937 0.80994 0.0
H251 H 0.2902 0.95352 0.77659 0.0
Mn252 Mn 0.26355 0.16757 0.03803 0.0
Mn253 Mn 0.26052 0.11947 1.0004 0.0
C254 C 0.22559 0.14768 0.03239 0.0
C255 C 0.2696 0.18436 0.07707 0.0
C256 C 0.26375 0.17219 0.98224 0.0
O257 O 0.30013 0.15586 0.03458 0.0
O258 O 0.29509 0.12416 0.01004 0.0
C259 C 0.27383 0.08028 0.03464 0.0
N260 N 0.25794 0.0899 0.01863 0.0
C261 C 0.23108 0.05562 0.0236 0.0
C262 C 0.24724 0.04528 0.04003 0.0
C263 C 0.26866 0.05771 0.04562 0.0
C264 C 0.23719 0.07817 0.01325 0.0
H265 H 0.29032 0.08977 0.03901 0.0
C266 C 0.30869 0.13753 0.02262 0.0
O267 O 0.27245 0.19708 0.05759 0.0
O268 O 0.26365 0.16179 0.07395 0.0
N269 N 0.2284 0.1122 0.98965 0.0
C270 C 0.21416 0.12514 0.97427 0.0
C271 C 0.1919 0.11537 0.96707 0.0
C272 C 0.18456 0.09234 0.97563 0.0
C273 C 0.1996 0.07926 0.99127 0.0
C274 C 0.2217 0.08984 0.99766 0.0
H275 H 0.21959 0.1429 0.96776 0.0
O276 O 0.22608 0.16999 0.03996 0.0
O277 O 0.24716 0.13779 0.02804 0.0
O278 O 0.26458 0.18209 0.00291 0.0
O279 O 0.26243 0.14906 0.97973 0.0
C280 C 0.1933 0.05636 1.00114 0.0
C281 C 0.20898 0.04459 0.01736 0.0
H282 H 0.24329 0.02789 0.04857 0.0
H283 H 0.28117 0.0499 0.05836 0.0
H284 H 0.18035 0.12562 0.95506 0.0
H285 H 0.16724 0.08499 0.97025 0.0
H286 H 0.17625 0.04781 0.99665 0.0
H287 H 0.20377 0.02715 0.02508 0.0
Mn288 Mn 0.75814 0.39969 0.04195 0.0
Mn289 Mn 0.76777 0.44296 0.99987 0.0
C290 C 0.79752 0.41261 0.03349 0.0
C291 C 0.74686 0.38997 0.08085 0.0
C292 C 0.75746 0.38994 0.98906 0.0
O293 O 0.724 0.41393 0.03668 0.0
O294 O 0.73375 0.44627 0.01343 0.0
C295 C 0.76474 0.48659 0.03066 0.0
N296 N 0.77725 0.4728 0.01408 0.0
C297 C 0.81056 0.5012 0.01197 0.0
C298 C 0.79783 0.51593 0.02871 0.0
C299 C 0.7749 0.50849 0.03822 0.0
C300 C 0.79957 0.47951 0.00521 0.0
H301 H 0.74723 0.48083 0.03817 0.0
C302 C 0.71847 0.43401 0.02637 0.0
O303 O 0.744 0.37463 0.0637 0.0
O304 O 0.75639 0.41093 0.07537 0.0
N305 N 0.80022 0.44232 0.98547 0.0
C306 C 0.81069 0.42549 0.97036 0.0
C307 C 0.83395 0.42989 0.9597 0.0
C308 C 0.84607 0.45168 0.96441 0.0
C309 C 0.83485 0.46884 0.97981 0.0
C310 C 0.81161 0.46349 0.98986 0.0
H311 H 0.80139 0.40884 0.9664 0.0
O312 O 0.79411 0.39203 0.04469 0.0
O313 O 0.77791 0.42514 0.02834 0.0
O314 O 0.75786 0.38199 0.01042 0.0
O315 O 0.759 0.41258 0.98343 0.0
C316 C 0.84594 0.49093 0.9858 0.0
C317 C 0.8339 0.507 1.00202 0.0
H318 H 0.80561 0.53282 0.0346 0.0
H319 H 0.76508 0.51962 0.05135 0.0
H320 H 0.84247 0.41656 0.94781 0.0
H321 H 0.86403 0.45498 0.95619 0.0
H322 H 0.86394 0.49552 0.97837 0.0
H323 H 0.84284 0.52368 0.00686 0.0
Mn324 Mn 0.89565 0.55408 0.25804 0.0
Mn325 Mn 0.8472 0.54054 0.29452 0.0
C326 C 0.88771 0.51411 0.26722 0.0
C327 C 0.91094 0.56431 0.22063 0.0
C328 C 0.89554 0.55955 0.31165 0.0
O329 O 0.87549 0.58531 0.25902 0.0
O330 O 0.84159 0.57291 0.27942 0.0
C331 C 0.80918 0.5361 0.25827 0.0
N332 N 0.82175 0.52634 0.27678 0.0
C333 C 0.7976 0.48994 0.27681 0.0
C334 C 0.78429 0.49964 0.25783 0.0
C335 C 0.79021 0.52277 0.24844 0.0
C336 C 0.81651 0.50393 0.28566 0.0
H337 H 0.81359 0.55392 0.25109 0.0
C338 C 0.85349 0.58865 0.26687 0.0
O339 O 0.9221 0.57067 0.23964 0.0
O340 O 0.89095 0.55178 0.2234 0.0
N341 N 0.84961 0.50942 0.31024 0.0
C342 C 0.86462 0.50237 0.32813 0.0
C343 C 0.86119 0.47961 0.3394 0.0
C344 C 0.8421 0.46453 0.33247 0.0
C345 C 0.82668 0.47229 0.31425 0.0
C346 C 0.83103 0.49512 0.30361 0.0
H347 H 0.87907 0.51401 0.33383 0.0
O348 O 0.90935 0.52004 0.25881 0.0
O349 O 0.87129 0.53154 0.26918 0.0
O350 O 0.90681 0.55955 0.29146 0.0
O351 O 0.8728 0.55429 0.31461 0.0
C352 C 0.80726 0.45819 0.3061 0.0
C353 C 0.79291 0.46689 0.28722 0.0
H354 H 0.76956 0.48947 0.25028 0.0
H355 H 0.78008 0.53035 0.23374 0.0
H356 H 0.87314 0.47377 0.35349 0.0
H357 H 0.83951 0.44699 0.34121 0.0
H358 H 0.80348 0.44045 0.31396 0.0
H359 H 0.77834 0.45567 0.28081 0.0
Mn360 Mn 0.7634 0.66795 0.53928 0.0
Mn361 Mn 0.75936 0.62073 0.5007 0.0
C362 C 0.72485 0.6494 0.53276 0.0
C363 C 0.76966 0.68404 0.57864 0.0
C364 C 0.76465 0.67362 0.48351 0.0
O365 O 0.79961 0.65501 0.53617 0.0
O366 O 0.79387 0.62391 0.51109 0.0
C367 C 0.77059 0.58042 0.53445 0.0
N368 N 0.75538 0.59091 0.51831 0.0
C369 C 0.72722 0.55756 0.52213 0.0
C370 C 0.74267 0.54632 0.53867 0.0
C371 C 0.76441 0.55785 0.5449 0.0
C372 C 0.73435 0.58005 0.51229 0.0
H373 H 0.7873 0.58921 0.53932 0.0
C374 C 0.80772 0.63651 0.52415 0.0
O375 O 0.77313 0.69684 0.55931 0.0
O376 O 0.76288 0.66176 0.57523 0.0
N377 N 0.7272 0.61485 0.48923 0.0
C378 C 0.71371 0.62862 0.47388 0.0
C379 C 0.69129 0.6198 0.46604 0.0
C380 C 0.683 0.59688 0.47398 0.0
C381 C 0.69724 0.58297 0.48967 0.0
C382 C 0.71958 0.59258 0.49665 0.0
H383 H 0.71986 0.64632 0.46785 0.0
O384 O 0.72596 0.67152 0.54075 0.0
O385 O 0.74618 0.63893 0.52853 0.0
O386 O 0.76541 0.68304 0.5044 0.0
O387 O 0.7627 0.65061 0.48055 0.0
C388 C 0.68991 0.56015 0.49902 0.0
C389 C 0.70484 0.5475 0.51531 0.0
H390 H 0.73793 0.52894 0.54682 0.0
H391 H 0.77637 0.54934 0.55773 0.0
H392 H 0.68035 0.6307 0.45402 0.0
H393 H 0.66554 0.59027 0.46813 0.0
H394 H 0.67264 0.55235 0.49408 0.0
H395 H 0.69884 0.53014 0.52264 0.0
Mn396 Mn 0.66223 0.5102 0.79149 0.0
Mn397 Mn 0.71546 0.52099 0.81869 0.0
C398 C 0.67246 0.54938 0.7993 0.0
C399 C 0.64185 0.50279 0.75691 0.0
C400 C 0.6689 0.50516 0.84511 0.0
O401 O 0.68077 0.4783 0.78853 0.0
O402 O 0.71641 0.48744 0.80534 0.0
C403 C 0.74817 0.52064 0.77549 0.0
N404 N 0.7391 0.53223 0.79533 0.0
C405 C 0.76443 0.56712 0.78707 0.0
C406 C 0.77417 0.55548 0.76664 0.0
C407 C 0.76594 0.53218 0.76079 0.0
C408 C 0.74672 0.55475 0.801 0.0
H409 H 0.74186 0.50276 0.77089 0.0
C410 C 0.70254 0.47284 0.79449 0.0
O411 O 0.63286 0.49559 0.77749 0.0
O412 O 0.66269 0.51398 0.75655 0.0
N413 N 0.71788 0.55269 0.83247 0.0
C414 C 0.70644 0.56157 0.85263 0.0
C415 C 0.7127 0.58465 0.86101 0.0
C416 C 0.73083 0.59826 0.84875 0.0
C417 C 0.74258 0.58864 0.82825 0.0
C418 C 0.73578 0.56541 0.82089 0.0
H419 H 0.69254 0.55121 0.86218 0.0
O420 O 0.64983 0.54419 0.79505 0.0
O421 O 0.68873 0.53163 0.79795 0.0
O422 O 0.6555 0.50398 0.82693 0.0
O423 O 0.69173 0.51048 0.84394 0.0
C424 C 0.76058 0.6013 0.81466 0.0
C425 C 0.77141 0.5906 0.79403 0.0
H426 H 0.78788 0.56432 0.75525 0.0
H427 H 0.77329 0.52313 0.74499 0.0
H428 H 0.70353 0.59195 0.87685 0.0
H429 H 0.73547 0.61614 0.85517 0.0
H430 H 0.76605 0.61939 0.8198 0.0
H431 H 0.78506 0.60061 0.7836 0.0
Mn432 Mn 0.0282 0.79523 0.90483 0.0
Mn433 Mn 0.98639 0.80048 0.95051 0.0
C434 C 0.01985 0.83378 0.92233 0.0
C435 C 0.06849 0.78914 0.88775 0.0
C436 C 0.97153 0.79333 0.89914 0.0
O437 O 0.02612 0.75959 0.9182 0.0
O438 O 0.99865 0.76579 0.94868 0.0
C439 C 0.01892 0.7907 0.99094 0.0
N440 N 1.00269 0.8057 0.97963 0.0
C441 C 0.00471 0.83585 0.01036 0.0
C442 C 0.02131 0.82065 0.02241 0.0
C443 C 0.02847 0.798 0.01263 0.0
C444 C 0.99564 0.82752 0.9889 0.0
H445 H 0.02456 0.77332 0.98344 0.0
C446 C 0.01333 0.75184 0.93636 0.0
O447 O 0.04878 0.78487 0.87625 0.0
O448 O 0.06498 0.79603 0.9097 0.0
N449 N 0.97339 0.83297 0.95449 0.0
C450 C 0.95871 0.84623 0.93977 0.0
C451 C 0.95067 0.86976 0.94649 0.0
C452 C 0.95774 0.87938 0.96827 0.0
C453 C 0.97279 0.86536 0.98316 0.0
C454 C 0.98008 0.84195 0.97561 0.0
H455 H 0.95331 0.83897 0.92295 0.0
O456 O 0.02828 0.83203 0.9005 0.0
O457 O 0.01581 0.81289 0.93298 0.0
O458 O 0.99351 0.79326 0.8903 0.0
O459 O 0.96696 0.79555 0.92149 0.0
C460 C 0.98131 0.87393 0.00493 0.0
C461 C 0.99726 0.85918 0.01852 0.0
H462 H 0.02887 0.82628 0.03906 0.0
H463 H 0.04138 0.78622 0.02176 0.0
H464 H 0.93914 0.8805 0.93486 0.0
H465 H 0.9517 0.89764 0.97328 0.0
H466 H 0.97604 0.89198 0.01119 0.0
H467 H 0.00399 0.86612 0.03504 0.0
Mn468 Mn 0.00342 0.30042 0.66226 0.0
Mn469 Mn 0.98234 0.27394 0.61313 0.0
C470 C 0.01812 0.26259 0.65117 0.0
C471 C 0.03125 0.32425 0.68134 0.0
C472 C 0.95318 0.27724 0.65989 0.0
O473 O 0.98754 0.32869 0.64462 0.0
O474 O 0.97726 0.30996 0.61079 0.0
C475 C 0.01806 0.29352 0.57719 0.0
N476 N 0.00724 0.27406 0.58829 0.0
C477 C 0.03103 0.24572 0.56402 0.0
C478 C 0.04229 0.26547 0.5522 0.0
C479 C 0.03582 0.28946 0.55886 0.0
C480 C 0.01341 0.25089 0.58209 0.0
H481 H 0.01321 0.31199 0.58232 0.0
C482 C 0.979 0.32901 0.62369 0.0
O483 O 0.00943 0.32045 0.69062 0.0
O484 O 0.03599 0.31595 0.66008 0.0
N485 N 0.9866 0.23913 0.6131 0.0
C486 C 0.97507 0.22212 0.62715 0.0
C487 C 0.98001 0.19719 0.62323 0.0
C488 C 0.9966 0.19 0.60481 0.0
C489 C 0.0081 0.20782 0.59046 0.0
C490 C 1.00236 0.23239 0.59513 0.0
H491 H 0.96226 0.22752 0.64131 0.0
O492 O 0.01961 0.26952 0.67306 0.0
O493 O 0.00797 0.27794 0.6365 0.0
O494 O 0.96992 0.28718 0.67152 0.0
O495 O 0.95546 0.27226 0.63776 0.0
C496 C 0.02539 0.20218 0.572 0.0
C497 C 0.03692 0.22112 0.55886 0.0
H498 H 0.05608 0.26242 0.53813 0.0
H499 H 0.04453 0.30479 0.54992 0.0
H500 H 0.97109 0.18354 0.63441 0.0
H501 H 1.00054 0.17076 0.60198 0.0
H502 H 0.03027 0.18335 0.56805 0.0
H503 H 0.0505 0.21656 0.54499 0.0
Mn504 Mn 0.51275 0.28734 0.40512 0.0
Mn505 Mn 0.50759 0.32517 0.35732 0.0
C506 C 0.47391 0.29467 0.3877 0.0
C507 C 0.51958 0.24763 0.42251 0.0
C508 C 0.51628 0.34377 0.40764 0.0
O509 O 0.54874 0.2893 0.39124 0.0
O510 O 0.54152 0.31079 0.35752 0.0
C511 C 0.51241 0.28835 0.31909 0.0
N512 N 0.49958 0.30704 0.32978 0.0
C513 C 0.46779 0.30524 0.301 0.0
C514 C 0.48096 0.28633 0.28939 0.0
C515 C 0.50329 0.27775 0.29857 0.0
C516 C 0.47782 0.3151 0.32137 0.0
H517 H 0.52934 0.28142 0.32632 0.0
C518 C 0.55587 0.2984 0.37098 0.0
O519 O 0.52328 0.26765 0.43388 0.0
O520 O 0.51252 0.25055 0.40078 0.0
N521 N 0.47558 0.34003 0.3547 0.0
C522 C 0.46441 0.35736 0.36879 0.0
C523 C 0.44154 0.3674 0.36247 0.0
C524 C 0.43044 0.35965 0.34169 0.0
C525 C 0.44234 0.34193 0.32737 0.0
C526 C 0.46522 0.33274 0.33445 0.0
H527 H 0.47287 0.36353 0.38472 0.0
O528 O 0.47526 0.28704 0.4096 0.0
O529 O 0.49509 0.29815 0.3771 0.0
O530 O 0.5146 0.3229 0.41809 0.0
O531 O 0.5151 0.34613 0.38498 0.0
C532 C 0.4322 0.33275 0.30656 0.0
C533 C 0.44486 0.31432 0.29346 0.0
H534 H 0.47393 0.27803 0.27361 0.0
H535 H 0.51338 0.26292 0.2899 0.0
H536 H 0.43247 0.38107 0.37361 0.0
H537 H 0.41269 0.36727 0.33701 0.0
H538 H 0.4145 0.33945 0.3007 0.0
H539 H 0.43666 0.30707 0.27775 0.0
Mn540 Mn 0.51675 0.81191 0.15394 0.0
Mn541 Mn 0.49125 0.78216 0.10891 0.0
C542 C 0.53132 0.77388 0.14339 0.0
C543 C 0.54597 0.83746 0.16869 0.0
C544 C 0.46688 0.78779 0.15788 0.0
O545 O 0.49821 0.83864 0.13666 0.0
O546 O 0.48484 0.81787 0.10512 0.0
C547 C 0.52252 0.80043 0.06865 0.0
N548 N 0.51347 0.78139 0.08182 0.0
C549 C 0.53551 0.75221 0.05703 0.0
C550 C 0.54491 0.7715 0.04308 0.0
C551 C 0.53843 0.79571 0.04897 0.0
C552 C 0.51968 0.75803 0.0764 0.0
H553 H 0.51767 0.81906 0.07317 0.0
C554 C 0.48731 0.83759 0.1169 0.0
O555 O 0.52521 0.83385 0.18019 0.0
O556 O 0.54864 0.82799 0.14764 0.0
N557 N 0.49653 0.7475 0.11042 0.0
C558 C 0.48707 0.73109 0.1265 0.0
C559 C 0.49242 0.70608 0.1236 0.0
C560 C 0.50728 0.69819 0.10414 0.0
C561 C 0.51665 0.71539 0.08772 0.0
C562 C 0.51061 0.74007 0.09148 0.0
H563 H 0.4756 0.73704 0.14147 0.0
O564 O 0.53491 0.78202 0.16458 0.0
O565 O 0.51914 0.78814 0.1292 0.0
O566 O 0.48464 0.79858 0.16721 0.0
O567 O 0.46705 0.7814 0.13606 0.0
C568 C 0.53211 0.70907 0.06803 0.0
C569 C 0.5416 0.72747 0.05274 0.0
H570 H 0.55728 0.76795 0.02795 0.0
H571 H 0.54573 0.8107 0.03837 0.0
H572 H 0.48514 0.69291 0.13636 0.0
H573 H 0.51154 0.6789 0.10207 0.0
H574 H 0.53717 0.69014 0.06473 0.0
H575 H 0.55382 0.72241 0.03792 0.0
Mn576 Mn 0.90713 0.03736 0.75135 0.0
Mn577 Mn 0.8675 0.00444 0.78535 0.0
C578 C 0.91059 0.99523 0.75249 0.0
C579 C 0.91754 0.05589 0.71524 0.0
C580 C 0.90866 0.0338 0.8053 0.0
O581 O 0.87872 0.06116 0.75779 0.0
O582 O 0.85218 0.03654 0.77791 0.0
C583 C 0.82894 0.99706 0.7502 0.0
N584 N 0.84558 0.98762 0.76556 0.0
C585 C 0.83169 0.94678 0.75938 0.0
C586 C 0.81434 0.95603 0.74353 0.0
C587 C 0.81312 0.98127 0.73875 0.0
C588 C 0.84742 0.96332 0.76971 0.0
H589 H 0.82767 0.01649 0.74684 0.0
C590 C 0.85789 0.05693 0.76805 0.0
O591 O 0.92717 0.06286 0.73487 0.0
O592 O 0.90131 0.03883 0.71682 0.0
N593 N 0.87993 0.97272 0.79377 0.0
C594 C 0.89812 0.96669 0.80901 0.0
C595 C 0.90217 0.94206 0.81522 0.0
C596 C 0.88714 0.92398 0.80613 0.0
C597 C 0.86831 0.93068 0.79075 0.0
C598 C 0.86545 0.95545 0.78483 0.0
H599 H 0.90933 0.98057 0.8165 0.0
O600 O 0.92945 0.00822 0.74602 0.0
O601 O 0.89079 0.0075 0.75842 0.0
O602 O 0.91815 0.04079 0.78541 0.0
O603 O 0.88952 0.02064 0.80721 0.0
C604 C 0.85206 0.91381 0.78129 0.0
C605 C 0.83378 0.92186 0.76559 0.0
H606 H 0.80188 0.94394 0.73494 0.0
H607 H 0.7998 0.98855 0.72652 0.0
H608 H 0.91665 0.93705 0.82722 0.0
H609 H 0.89015 0.90503 0.81115 0.0
H610 H 0.85352 0.89459 0.78589 0.0
H611 H 0.82138 0.90875 0.75843 0.0
Mn612 Mn 0.80436 0.1652 0.5032 0.0
Mn613 Mn 0.80377 0.11178 0.47383 0.0
C614 C 0.76936 0.14261 0.50339 0.0
C615 C 0.81 0.18683 0.53771 0.0
C616 C 0.79956 0.16071 0.44927 0.0
O617 O 0.84063 0.15819 0.4974 0.0
O618 O 0.83807 0.12282 0.47744 0.0
C619 C 0.82627 0.08149 0.51155 0.0
N620 N 0.80723 0.08616 0.49691 0.0
C621 C 0.7846 0.05215 0.51321 0.0
C622 C 0.80404 0.04688 0.52837 0.0
C623 C 0.82495 0.06164 0.52755 0.0
C624 C 0.78698 0.07214 0.49761 0.0
H625 H 0.8423 0.09289 0.51108 0.0
C626 C 0.85035 0.14032 0.48594 0.0
O627 O 0.81048 0.19785 0.51708 0.0
O628 O 0.80788 0.1633 0.53794 0.0
N629 N 0.77183 0.09891 0.46896 0.0
C630 C 0.75481 0.10635 0.45301 0.0
C631 C 0.73278 0.09349 0.45151 0.0
C632 C 0.7286 0.073 0.46625 0.0
C633 C 0.74666 0.06534 0.48211 0.0
C634 C 0.76836 0.07872 0.48261 0.0
H635 H 0.75793 0.12211 0.44166 0.0
O636 O 0.76806 0.16574 0.50789 0.0
O637 O 0.79118 0.1332 0.49919 0.0
O638 O 0.80129 0.17359 0.46796 0.0
O639 O 0.79955 0.13737 0.44937 0.0
C640 C 0.74391 0.04507 0.49755 0.0
C641 C 0.76284 0.03851 0.51313 0.0
H642 H 0.80306 0.03163 0.54078 0.0
H643 H 0.83998 0.05775 0.53927 0.0
H644 H 0.71899 0.09944 0.43913 0.0
H645 H 0.71148 0.06328 0.46522 0.0
H646 H 0.72726 0.03447 0.49768 0.0
H647 H 0.76045 0.02297 0.52503 0.0
Mn648 Mn 0.64749 0.0217 0.2846 0.0
Mn649 Mn 0.69385 0.05116 0.30958 0.0
C650 C 0.65405 0.06176 0.27521 0.0
C651 C 0.63311 0.99824 0.25423 0.0
C652 C 0.64626 0.03815 0.33588 0.0
O653 O 0.66852 0.99461 0.29796 0.0
O654 O 0.7011 0.01544 0.31059 0.0
C655 C 0.73379 0.04044 0.27396 0.0
N656 N 0.71953 0.057 0.28628 0.0
C657 C 0.74063 0.09064 0.26736 0.0
C658 C 0.75565 0.07394 0.25455 0.0
C659 C 0.75216 0.04874 0.25782 0.0
C660 C 0.72264 0.08128 0.28319 0.0
H661 H 0.73113 0.02107 0.27642 0.0
C662 C 0.68964 0.99556 0.30714 0.0
O663 O 0.62182 0.99872 0.27498 0.0
O664 O 0.65354 0.01003 0.25185 0.0
N665 N 0.68905 0.08589 0.30961 0.0
C666 C 0.67223 0.09952 0.32244 0.0
C667 C 0.6728 0.12513 0.32076 0.0
C668 C 0.69075 0.13643 0.30607 0.0
C669 C 0.70801 0.12201 0.29321 0.0
C670 C 0.7066 0.09659 0.29566 0.0
H671 H 0.65845 0.09092 0.33381 0.0
O672 O 0.6327 0.05242 0.2718 0.0
O673 O 0.67078 0.0473 0.28392 0.0
O674 O 0.63537 0.02994 0.318 0.0
O675 O 0.66819 0.04622 0.33483 0.0
C676 C 0.72632 0.13185 0.27776 0.0
C677 C 0.74255 0.11618 0.26477 0.0
H678 H 0.76978 0.08027 0.24204 0.0
H679 H 0.7636 0.03575 0.24793 0.0
H680 H 0.65941 0.13613 0.33073 0.0
H681 H 0.69101 0.15617 0.30467 0.0
H682 H 0.72781 0.15145 0.27543 0.0
H683 H 0.75627 0.12395 0.25264 0.0
Mn684 Mn 0.78062 0.90691 0.0348 0.0
Mn685 Mn 0.78433 0.95616 0.99771 0.0
C686 C 0.81893 0.92609 0.02664 0.0
C687 C 0.77558 0.88958 0.07447 0.0
C688 C 0.77865 0.90436 0.97895 0.0
O689 O 0.74431 0.91972 0.03432 0.0
O690 O 0.74968 0.95227 0.00984 0.0
C691 C 0.77321 0.99437 0.03361 0.0
N692 N 0.78856 0.98469 0.01639 0.0
C693 C 0.81788 0.01655 0.02125 0.0
C694 C 0.8023 0.02695 0.03892 0.0
C695 C 0.77989 0.01577 0.04516 0.0
C696 C 0.81023 0.99522 0.01034 0.0
H697 H 0.75602 0.98579 0.03853 0.0
C698 C 0.73597 0.9386 0.02316 0.0
O699 O 0.77143 0.87724 0.05543 0.0
O700 O 0.78185 0.91202 0.07055 0.0
N701 N 0.81666 0.9624 0.98474 0.0
C702 C 0.82983 0.94978 0.96769 0.0
C703 C 0.85276 0.95852 0.95949 0.0
C704 C 0.86184 0.98018 0.96878 0.0
C705 C 0.84783 0.993 0.98611 0.0
C706 C 0.82498 0.98357 0.99339 0.0
H707 H 0.82294 0.93314 0.96046 0.0
O708 O 0.81805 0.90349 0.03379 0.0
O709 O 0.7975 0.93644 0.02392 0.0
O710 O 0.77835 0.89363 0.99953 0.0
O711 O 0.78067 0.92753 0.97675 0.0
C712 C 0.85578 0.01462 0.99663 0.0
C713 C 0.84085 0.02633 0.01425 0.0
H714 H 0.80742 0.04341 0.04793 0.0
H715 H 0.76783 0.02362 0.05886 0.0
H716 H 0.86345 0.94852 0.9461 0.0
H717 H 0.87965 0.98673 0.96259 0.0
H718 H 0.87344 0.02224 0.99148 0.0
H719 H 0.84727 0.04279 0.02239 0.0
Mn720 Mn 0.30182 0.66443 0.01011 0.0
Mn721 Mn 0.29933 0.61376 0.97681 0.0
C722 C 0.26582 0.64356 0.00839 0.0
C723 C 0.30878 0.68225 0.04639 0.0
C724 C 0.29805 0.66481 0.95599 0.0
O725 O 0.33774 0.65625 0.00378 0.0
O726 O 0.33426 0.62209 0.98211 0.0
C727 C 0.31893 0.57863 0.01212 0.0
N728 N 0.30055 0.58597 0.99762 0.0
C729 C 0.27541 0.55224 0.01038 0.0
C730 C 0.29414 0.54422 0.02534 0.0
C731 C 0.31599 0.55749 0.02622 0.0
C732 C 0.27947 0.57334 0.99663 0.0
H733 H 0.33567 0.58889 0.01296 0.0
C734 C 0.34704 0.63857 0.99176 0.0
O735 O 0.30952 0.69523 0.02687 0.0
O736 O 0.30524 0.65904 0.04454 0.0
N737 N 0.26668 0.60374 0.97032 0.0
C738 C 0.25021 0.61428 0.9554 0.0
C739 C 0.22721 0.60348 0.95276 0.0
C740 C 0.22147 0.58192 0.96535 0.0
C741 C 0.23889 0.5712 0.9803 0.0
C742 C 0.2616 0.58265 0.98203 0.0
H743 H 0.2545 0.63091 0.94576 0.0
O744 O 0.26555 0.66624 0.01474 0.0
O745 O 0.28728 0.63359 0.00355 0.0
O746 O 0.29932 0.67618 0.97564 0.0
O747 O 0.29746 0.64156 0.95445 0.0
C748 C 0.23449 0.54981 0.99381 0.0
C749 C 0.25273 0.54034 0.00885 0.0
H750 H 0.29189 0.528 0.03634 0.0
H751 H 0.33048 0.55148 0.03781 0.0
H752 H 0.21389 0.61184 0.94115 0.0
H753 H 0.20362 0.57378 0.96346 0.0
H754 H 0.21707 0.5406 0.99292 0.0
H755 H 0.24905 0.524 0.01931 0.0
Mn756 Mn 0.14181 0.52537 0.79379 0.0
Mn757 Mn 0.19321 0.54663 0.81777 0.0
C758 C 0.15318 0.56453 0.78587 0.0
C759 C 0.12229 0.505 0.76427 0.0
C760 C 0.14543 0.53862 0.84564 0.0
O761 O 0.15964 0.49507 0.80494 0.0
O762 O 0.1957 0.51038 0.81629 0.0
C763 C 0.22995 0.53351 0.7798 0.0
N764 N 0.21854 0.55076 0.79376 0.0
C765 C 0.2436 0.58251 0.77639 0.0
C766 C 0.25571 0.56506 0.7619 0.0
C767 C 0.24881 0.54047 0.76358 0.0
C768 C 0.22501 0.57447 0.79228 0.0
H769 H 0.22465 0.51461 0.78105 0.0
C770 C 0.18135 0.49254 0.81263 0.0
O771 O 0.11261 0.50654 0.78565 0.0
O772 O 0.14388 0.51434 0.76038 0.0
N773 N 0.19314 0.58148 0.82018 0.0
C774 C 0.17868 0.59618 0.83443 0.0
C775 C 0.1827 0.62145 0.83439 0.0
C776 C 0.20165 0.63131 0.81986 0.0
C777 C 0.21644 0.61578 0.80551 0.0
C778 C 0.21165 0.59073 0.80639 0.0
H779 H 0.16413 0.58869 0.84568 0.0
O780 O 0.13058 0.55819 0.78304 0.0
O781 O 0.16853 0.54764 0.79292 0.0
O782 O 0.13269 0.5335 0.82787 0.0
O783 O 0.16837 0.54327 0.84406 0.0
C784 C 0.23539 0.62423 0.78998 0.0
C785 C 0.24892 0.60761 0.77539 0.0
H786 H 0.2702 0.57037 0.74929 0.0
H787 H 0.25801 0.52692 0.75238 0.0
H788 H 0.17118 0.63332 0.8455 0.0
H789 H 0.20454 0.65083 0.81971 0.0
H790 H 0.23943 0.64352 0.78882 0.0
H791 H 0.26318 0.61438 0.76325 0.0
Mn792 Mn 0.27995 0.40646 0.53415 0.0
Mn793 Mn 0.28229 0.45508 0.49613 0.0
C794 C 0.31773 0.42685 0.52618 0.0
C795 C 0.27499 0.38878 0.57365 0.0
C796 C 0.27798 0.40275 0.47845 0.0
O797 O 0.24336 0.41828 0.53349 0.0
O798 O 0.24774 0.45056 0.50844 0.0
C799 C 0.26963 0.49474 0.53007 0.0
N800 N 0.28534 0.48474 0.51334 0.0
C801 C 0.31239 0.51897 0.51503 0.0
C802 C 0.29642 0.52971 0.53218 0.0
C803 C 0.27499 0.51751 0.53978 0.0
C804 C 0.30601 0.49632 0.50588 0.0
H805 H 0.25314 0.48542 0.53595 0.0
C806 C 0.23448 0.43675 0.52208 0.0
O807 O 0.27141 0.37652 0.55445 0.0
O808 O 0.28078 0.41143 0.57003 0.0
N809 N 0.31446 0.46175 0.48309 0.0
C810 C 0.32894 0.44792 0.46804 0.0
C811 C 0.35169 0.45693 0.45965 0.0
C812 C 0.35919 0.48013 0.46666 0.0
C813 C 0.34391 0.49407 0.48208 0.0
C814 C 0.32143 0.48416 0.48982 0.0
H815 H 0.32326 0.43007 0.4626 0.0
O816 O 0.31738 0.40419 0.53326 0.0
O817 O 0.29602 0.43662 0.52314 0.0
O818 O 0.27806 0.39243 0.49917 0.0
O819 O 0.2795 0.42588 0.47592 0.0
C820 C 0.35036 0.51716 0.49051 0.0
C821 C 0.33465 0.52958 0.50702 0.0
H822 H 0.30056 0.5472 0.53982 0.0
H823 H 0.26264 0.52563 0.5531 0.0
H824 H 0.36342 0.44602 0.44783 0.0
H825 H 0.37683 0.48695 0.46029 0.0
H826 H 0.36759 0.52534 0.48475 0.0
H827 H 0.34005 0.5471 0.51373 0.0
Mn828 Mn 0.42902 0.51861 0.24984 0.0
Mn829 Mn 0.38425 0.48997 0.28067 0.0
C830 C 0.42322 0.47753 0.24378 0.0
C831 C 0.43997 0.54257 0.21723 0.0
C832 C 0.43108 0.50842 0.30198 0.0
O833 O 0.40702 0.54572 0.2635 0.0
O834 O 0.37359 0.52438 0.27559 0.0
C835 C 0.34353 0.49077 0.24695 0.0
N836 N 0.35944 0.47797 0.26079 0.0
C837 C 0.33866 0.44041 0.25396 0.0
C838 C 0.32199 0.45315 0.23965 0.0
C839 C 0.32462 0.47841 0.23591 0.0
C840 C 0.35758 0.45356 0.26385 0.0
H841 H 0.34516 0.51029 0.24457 0.0
C842 C 0.38463 0.54446 0.27102 0.0
O843 O 0.45277 0.5426 0.23638 0.0
O844 O 0.42085 0.52873 0.21719 0.0
N845 N 0.39253 0.45634 0.28644 0.0
C846 C 0.41081 0.44656 0.2998 0.0
C847 C 0.41163 0.42125 0.30417 0.0
C848 C 0.39331 0.40636 0.29529 0.0
C849 C 0.37454 0.41689 0.28181 0.0
C850 C 0.37508 0.4421 0.27747 0.0
H851 H 0.42454 0.45799 0.30722 0.0
O852 O 0.44401 0.48728 0.23723 0.0
O853 O 0.40698 0.49226 0.25336 0.0
O854 O 0.44286 0.51257 0.28247 0.0
O855 O 0.4088 0.50132 0.30307 0.0
C856 C 0.35509 0.40343 0.27283 0.0
C857 C 0.33705 0.41525 0.25908 0.0
H858 H 0.30715 0.44373 0.23143 0.0
H859 H 0.31186 0.48838 0.22487 0.0
H860 H 0.42612 0.41328 0.31469 0.0
H861 H 0.39379 0.3869 0.29897 0.0
H862 H 0.35382 0.384 0.27639 0.0
H863 H 0.322 0.40483 0.25254 0.0
Co864 Co 0.01797 0.04643 0.01516 0.0
C865 C 0.0138 0.07634 0.05615 0.0
Co866 Co 0.02596 0.02702 0.0483 0.0
C867 C 0.99655 0.05639 0.97061 0.0
C868 C 0.01914 0.08587 0.98081 0.0
N869 N 0.01117 0.06368 0.98791 0.0
N870 N 0.9949 0.07311 0.95298 0.0
C871 C 0.00922 0.0917 0.95917 0.0
H872 H 0.98755 0.0389 0.9708 0.0
H873 H 0.03129 0.09709 0.99076 0.0
C874 C 0.03015 0.99723 0.007 0.0
N875 N 0.03255 0.00929 0.07548 0.0
C876 C 0.04818 0.01425 0.09286 0.0
C877 C 0.02298 0.98743 0.08154 0.0
N878 N 0.0487 0.99634 0.10955 0.0
C879 C 0.03281 0.97947 0.10252 0.0
C880 C 0.97653 0.02258 0.03511 0.0
O881 O 0.02498 0.01733 0.99654 0.0
O882 O 0.03269 0.99759 0.02949 0.0
O883 O 0.99159 0.01744 0.05139 0.0
O884 O 0.9839 0.03621 0.01793 0.0
O885 O 0.0192 0.05645 0.067 0.0
H886 H 0.01001 0.97767 0.07114 0.0
H887 H 0.05894 0.03068 0.09324 0.0
O888 O 0.01105 0.07557 0.03372 0.0
O889 O 0.05177 0.05645 0.01226 0.0
O890 O 0.06044 0.03697 0.04515 0.0
C891 C 0.06728 0.05114 0.02808 0.0
H892 H 0.01203 0.10835 0.94897 0.0
H893 H 0.02906 0.9623 0.11152 0.0
Co894 Co 0.29274 0.75187 0.30613 0.0
C895 C 0.29798 0.70492 0.29115 0.0
Co896 Co 0.27097 0.74494 0.27459 0.0
C897 C 0.29735 0.76829 0.35317 0.0
C898 C 0.33291 0.75887 0.33819 0.0
N899 N 0.30864 0.75854 0.33373 0.0
N900 N 0.3134 0.77496 0.36943 0.0
C901 C 0.33591 0.76938 0.36013 0.0
H902 H 0.27779 0.77244 0.35456 0.0
H903 H 0.34749 0.75326 0.32574 0.0
C904 C 0.26617 0.79219 0.28997 0.0
N905 N 0.25521 0.73893 0.24677 0.0
C906 C 0.26611 0.72803 0.22774 0.0
C907 C 0.23363 0.74796 0.23894 0.0
N908 N 0.25269 0.73037 0.20812 0.0
C909 C 0.23211 0.74283 0.21502 0.0
C910 C 0.2444 0.73645 0.31538 0.0
O911 O 0.28071 0.78427 0.30558 0.0
O912 O 0.25933 0.77786 0.27394 0.0
O913 O 0.24282 0.73614 0.29288 0.0
O914 O 0.26457 0.74224 0.32438 0.0
O915 O 0.28283 0.71197 0.27561 0.0
H916 H 0.22069 0.75892 0.24948 0.0
H917 H 0.28461 0.72034 0.22781 0.0
O918 O 0.30483 0.71982 0.30666 0.0
O919 O 0.32064 0.76132 0.28765 0.0
O920 O 0.29929 0.75397 0.25625 0.0
C921 C 0.31923 0.76045 0.26519 0.0
H922 H 0.35317 0.77367 0.36809 0.0
H923 H 0.21758 0.74875 0.20343 0.0
Co924 Co 0.51423 0.03291 0.51574 0.0
C925 C 0.52916 0.08024 0.50384 0.0
Co926 Co 0.54687 0.04281 0.53503 0.0
C927 C 0.46692 0.0135 0.51232 0.0
C928 C 0.4814 0.02303 0.47764 0.0
N929 N 0.48628 0.02388 0.50103 0.0
N930 N 0.45024 0.00589 0.49705 0.0
C931 C 0.45917 0.0117 0.47512 0.0
H932 H 0.46575 0.01027 0.53137 0.0
H933 H 0.49363 0.02931 0.46337 0.0
C934 C 0.53146 0.99533 0.54675 0.0
N935 N 0.57516 0.0512 0.54958 0.0
C936 C 0.59447 0.06141 0.53805 0.0
C937 C 0.58295 0.04602 0.57164 0.0
N938 N 0.61436 0.06232 0.55164 0.0
C939 C 0.60717 0.05293 0.57299 0.0
C940 C 0.5046 0.05547 0.55922 0.0
O941 O 0.51515 0.00137 0.53191 0.0
O942 O 0.5479 0.01087 0.55101 0.0
O943 O 0.52786 0.05559 0.56042 0.0
O944 O 0.49489 0.04624 0.54123 0.0
O945 O 0.54553 0.07491 0.51896 0.0
H946 H 0.57213 0.03685 0.58542 0.0
H947 H 0.594 0.06741 0.51967 0.0
O948 O 0.51328 0.06416 0.49953 0.0
O949 O 0.53346 0.01997 0.4904 0.0
O950 O 0.56617 0.03014 0.50931 0.0
C951 C 0.55666 0.02119 0.49114 0.0
H952 H 0.45053 0.00758 0.45857 0.0
H953 H 0.6188 0.05024 0.58811 0.0
Co954 Co 0.28621 0.2951 0.78499 0.0
C955 C 0.2702 0.31029 0.7402 0.0
Co956 Co 0.24901 0.28213 0.77904 0.0
C957 C 0.3335 0.29011 0.80398 0.0
C958 C 0.32779 0.32619 0.78993 0.0
N959 N 0.31783 0.3038 0.79119 0.0
N960 N 0.35229 0.3032 0.81171 0.0
C961 C 0.34895 0.32592 0.80281 0.0
H962 H 0.32973 0.2716 0.80982 0.0
H963 H 0.31903 0.34214 0.78217 0.0
C964 C 0.2651 0.26681 0.82379 0.0
N965 N 0.21703 0.27418 0.77344 0.0
C966 C 0.20065 0.28979 0.76381 0.0
C967 C 0.20413 0.25404 0.77923 0.0
N968 N 0.17799 0.28042 0.76337 0.0
C969 C 0.17995 0.25789 0.77309 0.0
C970 C 0.28385 0.24967 0.76334 0.0
O971 O 0.2837 0.27896 0.81648 0.0
O972 O 0.24704 0.26547 0.80996 0.0
O973 O 0.26071 0.25314 0.76492 0.0
O974 O 0.29809 0.26572 0.77111 0.0
O975 O 0.25129 0.29867 0.74773 0.0
H976 H 0.21168 0.2379 0.78777 0.0
H977 H 0.20511 0.30814 0.75801 0.0
O978 O 0.28844 0.31128 0.75388 0.0
O979 O 0.27441 0.32426 0.79874 0.0
O980 O 0.23721 0.31119 0.79355 0.0
C981 C 0.25134 0.32735 0.80107 0.0
H982 H 0.35993 0.34157 0.80684 0.0
H983 H 0.16505 0.24514 0.77552 0.0
Co984 Co 0.02647 0.03837 0.52119 0.0
C985 C 0.00969 0.06015 0.56206 0.0
Co986 Co 0.05069 0.06794 0.53156 0.0
C987 C 0.01636 0.99129 0.50511 0.0
C988 C 0.98322 0.01295 0.50574 0.0
N989 N 0.00728 0.01349 0.51095 0.0
N990 N 0.99916 0.97682 0.49643 0.0
C991 C 0.97819 0.99031 0.49657 0.0
H992 H 0.03564 0.98617 0.50615 0.0
H993 H 0.97041 0.02818 0.50786 0.0
C994 C 0.06693 0.04557 0.49043 0.0
N995 N 0.07064 0.09236 0.54177 0.0
C996 C 0.06341 0.11068 0.55628 0.0
C997 C 0.0953 0.09461 0.53905 0.0
N998 N 0.08245 0.12391 0.56316 0.0
C999 C 0.10264 0.11424 0.55217 0.0
C1000 C 0.06385 0.02271 0.54981 0.0
O1001 O 0.0481 0.03286 0.49502 0.0
O1002 O 0.07182 0.06303 0.50414 0.0
O1003 O 0.06954 0.04505 0.5485 0.0
O1004 O 0.04481 0.01568 0.53957 0.0
O1005 O 0.02926 0.07224 0.55888 0.0
H1006 H 0.10729 0.0822 0.52905 0.0
H1007 H 0.04453 0.11401 0.5623 0.0
O1008 O 0.0046 0.04384 0.54722 0.0
O1009 O 0.00873 0.06107 0.50294 0.0
O1010 O 0.03164 0.0911 0.51456 0.0
C1011 C 0.01384 0.08361 0.50266 0.0
H1012 H 0.96067 0.98434 0.49031 0.0
H1013 H 0.12132 0.12016 0.55441 0.0
Co1014 Co 0.28074 0.80716 0.78404 0.0
C1015 C 0.2338 0.79165 0.79815 0.0
Co1016 Co 0.27047 0.7742 0.76521 0.0
C1017 C 0.31372 0.84299 0.80032 0.0
C1018 C 0.2762 0.85307 0.80828 0.0
N1019 N 0.29058 0.8346 0.79979 0.0
N1020 N 0.31438 0.86622 0.8077 0.0
C1021 C 0.2908 0.8726 0.81295 0.0
H1022 H 0.32965 0.83353 0.79258 0.0
H1023 H 0.25629 0.85339 0.80848 0.0
C1024 C 0.31738 0.7892 0.75114 0.0
N1025 N 0.26061 0.74732 0.74918 0.0
C1026 C 0.24579 0.7299 0.75812 0.0
C1027 C 0.26394 0.74201 0.72588 0.0
N1028 N 0.23923 0.71416 0.74132 0.0
C1029 C 0.25082 0.72146 0.72099 0.0
C1030 C 0.2575 0.81723 0.74236 0.0
O1031 O 0.31152 0.80647 0.76531 0.0
O1032 O 0.30204 0.77227 0.74855 0.0
O1033 O 0.25795 0.79414 0.741 0.0
O1034 O 0.26647 0.82733 0.7603 0.0
O1035 O 0.23875 0.77593 0.78208 0.0
H1036 H 0.27441 0.75292 0.71313 0.0
H1037 H 0.23955 0.72911 0.7766 0.0
O1038 O 0.24997 0.80742 0.80236 0.0
O1039 O 0.29484 0.7871 0.80773 0.0
O1040 O 0.28283 0.75428 0.78959 0.0
C1041 C 0.29305 0.76401 0.80706 0.0
H1042 H 0.28431 0.89103 0.81669 0.0
H1043 H 0.24909 0.71321 0.70371 0.0
Co1044 Co 0.51944 0.03152 0.01454 0.0
C1045 C 0.56391 0.01427 0.03211 0.0
Co1046 Co 0.52368 0.04269 0.05141 0.0
C1047 C 0.5039 0.0384 0.96741 0.0
C1048 C 0.52226 0.00371 0.97109 0.0
N1049 N 0.51535 0.02397 0.98325 0.0
N1050 N 0.50309 0.02798 0.94592 0.0
C1051 C 0.51476 0.00618 0.94797 0.0
H1052 H 0.49619 0.05627 0.97157 0.0
H1053 H 0.53173 0.98807 0.97865 0.0
C1054 C 0.47931 0.06002 0.03353 0.0
N1055 N 0.52778 0.05016 0.08273 0.0
C1056 C 0.53472 0.03403 0.09956 0.0
C1057 C 0.52778 0.07216 0.09332 0.0
N1058 N 0.53944 0.04502 0.12011 0.0
C1059 C 0.53535 0.06906 0.11635 0.0
C1060 C 0.54218 0.07616 0.01964 0.0
O1061 O 0.48755 0.04799 0.01562 0.0
O1062 O 0.49241 0.06052 0.05191 0.0
O1063 O 0.5399 0.07141 0.04173 0.0
O1064 O 0.53446 0.06101 0.00478 0.0
O1065 O 0.55534 0.02472 0.05089 0.0
H1066 H 0.52393 0.08939 0.08448 0.0
H1067 H 0.53816 0.0148 0.09624 0.0
O1068 O 0.55107 0.01529 0.01359 0.0
O1069 O 0.50426 0.00202 0.02418 0.0
O1070 O 0.50712 0.01418 0.06098 0.0
C1071 C 0.50011 0.99853 0.0463 0.0
H1072 H 0.5169 0.99272 0.93404 0.0
H1073 H 0.53883 0.08335 0.12893 0.0
Co1074 Co 0.26909 0.2717 0.28906 0.0
C1075 C 0.31832 0.28471 0.29311 0.0
Co1076 Co 0.27707 0.30616 0.2706 0.0
C1077 C 0.2466 0.2262 0.29933 0.0
C1078 C 0.27137 0.23579 0.32649 0.0
N1079 N 0.2616 0.24396 0.30602 0.0
N1080 N 0.24685 0.20721 0.31461 0.0
C1081 C 0.26252 0.21288 0.33165 0.0
H1082 H 0.23673 0.22656 0.28288 0.0
H1083 H 0.28475 0.24546 0.33648 0.0
C1084 C 0.2277 0.29294 0.26692 0.0
N1085 N 0.28512 0.33332 0.25197 0.0
C1086 C 0.30761 0.34322 0.24942 0.0
C1087 C 0.27312 0.3411 0.23249 0.0
N1088 N 0.31043 0.35586 0.22884 0.0
C1089 C 0.28857 0.35507 0.21835 0.0
C1090 C 0.28062 0.2637 0.24087 0.0
O1091 O 0.2349 0.27512 0.27985 0.0
O1092 O 0.24296 0.30967 0.26181 0.0
O1093 O 0.28334 0.2867 0.24201 0.0
O1094 O 0.27528 0.25233 0.26022 0.0
O1095 O 0.31108 0.30247 0.28021 0.0
H1096 H 0.25515 0.33518 0.22751 0.0
H1097 H 0.32218 0.34029 0.26182 0.0
O1098 O 0.30314 0.26788 0.29805 0.0
O1099 O 0.263 0.29124 0.31795 0.0
O1100 O 0.27094 0.32562 0.29915 0.0
C1101 C 0.26586 0.31436 0.31873 0.0
H1102 H 0.26765 0.20103 0.34629 0.0
H1103 H 0.28453 0.36262 0.201 0.0
Co1104 Co 0.52985 0.54757 0.0202 0.0
C1105 C 0.51626 0.57088 0.0615 0.0
Co1106 Co 0.55485 0.57721 0.02845 0.0
C1107 C 0.51598 0.50085 0.00507 0.0
C1108 C 0.48413 0.5238 0.01094 0.0
N1109 N 0.50889 0.52329 0.01224 0.0
N1110 N 0.49677 0.48724 0.9992 0.0
C1111 C 0.4766 0.50157 1.00275 0.0
H1112 H 0.53506 0.49492 0.00338 0.0
H1113 H 0.47243 0.53943 0.01524 0.0
C1114 C 0.56833 0.55304 0.98728 0.0
N1115 N 0.57616 0.6014 0.03658 0.0
C1116 C 0.57045 0.62012 0.05117 0.0
C1117 C 0.60068 0.60304 0.03214 0.0
N1118 N 0.59031 0.63299 0.05645 0.0
C1119 C 0.60946 0.62269 0.04432 0.0
C1120 C 0.56867 0.53187 0.04664 0.0
O1121 O 0.54961 0.54059 0.99307 0.0
O1122 O 0.5738 0.57113 0.99995 0.0
O1123 O 0.57453 0.55414 0.0445 0.0
O1124 O 0.54876 0.52485 0.03792 0.0
O1125 O 0.53582 0.58257 0.05701 0.0
H1126 H 0.61165 0.59016 0.02164 0.0
H1127 H 0.55212 0.62396 0.05847 0.0
O1128 O 0.50994 0.55446 0.04731 0.0
O1129 O 0.51155 0.57004 1.00249 0.0
O1130 O 0.5348 0.6005 0.01229 0.0
C1131 C 0.5164 0.5926 1.0015 0.0
H1132 H 0.45786 0.4964 0.99959 0.0
H1133 H 0.62845 0.62818 0.04522 0.0
Co1134 Co 0.77287 0.30108 0.27877 0.0
C1135 C 0.72552 0.28631 0.29135 0.0
Co1136 Co 0.76231 0.26958 0.25809 0.0
C1137 C 0.79491 0.34587 0.28593 0.0
C1138 C 0.78582 0.32959 0.31976 0.0
N1139 N 0.78365 0.32665 0.29609 0.0
N1140 N 0.80433 0.3607 0.30205 0.0
C1141 C 0.79877 0.35063 0.32349 0.0
H1142 H 0.79749 0.34814 0.26685 0.0
H1143 H 0.77941 0.31677 0.33327 0.0
C1144 C 0.80988 0.28446 0.24584 0.0
N1145 N 0.75204 0.24445 0.23977 0.0
C1146 C 0.73549 0.22743 0.24605 0.0
C1147 C 0.75757 0.24046 0.21652 0.0
N1148 N 0.73027 0.2131 0.22762 0.0
C1149 C 0.74429 0.22098 0.20901 0.0
C1150 C 0.75051 0.3144 0.23764 0.0
O1151 O 0.80394 0.30093 0.26082 0.0
O1152 O 0.79439 0.26795 0.24198 0.0
O1153 O 0.75081 0.29147 0.23494 0.0
O1154 O 0.75928 0.32326 0.25624 0.0
O1155 O 0.73031 0.27135 0.27452 0.0
H1156 H 0.76996 0.2514 0.20557 0.0
H1157 H 0.72739 0.22561 0.26382 0.0
O1158 O 0.74204 0.30131 0.29677 0.0
O1159 O 0.78619 0.27903 0.30097 0.0
O1160 O 0.77354 0.24741 0.28139 0.0
C1161 C 0.78405 0.25608 0.29923 0.0
H1162 H 0.80409 0.35767 0.34048 0.0
H1163 H 0.74448 0.21358 0.19121 0.0
Co1164 Co 0.01521 0.52319 0.51639 0.0
C1165 C 0.06039 0.50727 0.53326 0.0
Co1166 Co 0.01987 0.5351 0.55297 0.0
C1167 C 0.99887 0.52991 0.46961 0.0
C1168 C 0.01746 0.4953 0.47284 0.0
N1169 N 0.01079 0.51553 0.48516 0.0
N1170 N 0.99745 0.51948 0.4482 0.0
C1171 C 0.00928 0.49773 0.44993 0.0
H1172 H 0.99118 0.54775 0.47396 0.0
H1173 H 0.02714 0.47967 0.48018 0.0
C1174 C 0.9749 0.55141 0.53548 0.0
N1175 N 0.02394 0.54259 0.58425 0.0
C1176 C 0.03332 0.52705 0.60041 0.0
C1177 C 0.01762 0.56294 0.59649 0.0
N1178 N 0.03318 0.53673 0.62228 0.0
C1179 C 0.02327 0.55935 0.62004 0.0
C1180 C 0.03724 0.5685 0.52102 0.0
O1181 O 0.98312 0.53918 0.51771 0.0
O1182 O 0.98811 0.55223 0.55375 0.0
O1183 O 0.03515 0.56416 0.5432 0.0
O1184 O 0.02972 0.55294 0.50643 0.0
O1185 O 0.05203 0.51798 0.55197 0.0
H1186 H 0.00936 0.57921 0.58881 0.0
H1187 H 0.03972 0.5087 0.59625 0.0
O1188 O 0.04707 0.50748 0.51506 0.0
O1189 O 1.00065 0.4934 0.52636 0.0
O1190 O 0.00429 0.50612 0.56286 0.0
C1191 C 0.9973 0.49005 0.54861 0.0
H1192 H 0.01104 0.48428 0.43596 0.0
H1193 H 0.02073 0.57243 0.63427 0.0
Co1194 Co 0.78826 0.79592 0.28564 0.0
C1195 C 0.77052 0.81277 0.24179 0.0
Co1196 Co 0.74955 0.78654 0.28182 0.0
C1197 C 0.83641 0.78796 0.30266 0.0
C1198 C 0.83463 0.8207 0.2816 0.0
N1199 N 0.82111 0.80161 0.2894 0.0
N1200 N 0.85875 0.79791 0.30386 0.0
C1201 C 0.85792 0.81842 0.29046 0.0
H1202 H 0.83114 0.77128 0.31181 0.0
H1203 H 0.82772 0.83578 0.27101 0.0
C1204 C 0.7669 0.76916 0.32543 0.0
N1205 N 0.71663 0.78135 0.27794 0.0
C1206 C 0.70049 0.79869 0.27089 0.0
C1207 C 0.70417 0.76027 0.27771 0.0
N1208 N 0.6786 0.78936 0.26599 0.0
C1209 C 0.68075 0.76514 0.26993 0.0
C1210 C 0.78048 0.75152 0.26387 0.0
O1211 O 0.78627 0.77963 0.31729 0.0
O1212 O 0.748 0.76979 0.31255 0.0
O1213 O 0.75779 0.75678 0.2669 0.0
O1214 O 0.79651 0.76605 0.27107 0.0
O1215 O 0.75108 0.803 0.25058 0.0
H1216 H 0.71208 0.74241 0.28139 0.0
H1217 H 0.70533 0.81753 0.26741 0.0
O1218 O 0.78969 0.81208 0.25432 0.0
O1219 O 0.78036 0.82572 0.30005 0.0
O1220 O 0.74157 0.81648 0.29708 0.0
C1221 C 0.75783 0.83106 0.30373 0.0
H1222 H 0.8726 0.83146 0.28833 0.0
H1223 H 0.66695 0.75186 0.26606 0.0
Co1224 Co 0.76327 0.25352 0.7901 0.0
C1225 C 0.75754 0.20683 0.77546 0.0
Co1226 Co 0.74342 0.25195 0.75662 0.0
C1227 C 0.76893 0.27363 0.83535 0.0
C1228 C 0.79534 0.24461 0.83022 0.0
N1229 N 0.77674 0.25664 0.81958 0.0
N1230 N 0.78197 0.27312 0.85525 0.0
C1231 C 0.79856 0.25471 0.85236 0.0
H1232 H 0.75378 0.28626 0.83228 0.0
H1233 H 0.80604 0.22976 0.82229 0.0
C1234 C 0.74974 0.29877 0.77102 0.0
N1235 N 0.73006 0.24967 0.72699 0.0
C1236 C 0.74087 0.23687 0.70909 0.0
C1237 C 0.71257 0.26356 0.71666 0.0
N1238 N 0.73159 0.24268 0.68781 0.0
C1239 C 0.71359 0.25941 0.69242 0.0
C1240 C 0.71171 0.25111 0.79455 0.0
O1241 O 0.76108 0.28791 0.78751 0.0
O1242 O 0.73988 0.28627 0.75516 0.0
O1243 O 0.71182 0.24991 0.77195 0.0
O1244 O 0.73194 0.25281 0.80498 0.0
O1245 O 0.74722 0.2175 0.75815 0.0
H1246 H 0.70127 0.27722 0.72579 0.0
H1247 H 0.75703 0.22534 0.71135 0.0
O1248 O 0.76554 0.21937 0.79235 0.0
O1249 O 0.79462 0.25418 0.7752 0.0
O1250 O 0.77527 0.25419 0.7416 0.0
C1251 C 0.79529 0.25453 0.75262 0.0
H1252 H 0.81237 0.24944 0.86499 0.0
H1253 H 0.70297 0.26898 0.67916 0.0
Co1254 Co 0.7717 0.77297 0.79019 0.0
C1255 C 0.82148 0.78336 0.79562 0.0
Co1256 Co 0.78234 0.80605 0.77093 0.0
C1257 C 0.74782 0.72838 0.8002 0.0
C1258 C 0.76672 0.74076 0.83054 0.0
N1259 N 0.76201 0.74639 0.80768 0.0
N1260 N 0.74342 0.71163 0.81741 0.0
C1261 C 0.7552 0.7193 0.83662 0.0
H1262 H 0.74057 0.72779 0.78249 0.0
H1263 H 0.7778 0.75155 0.84199 0.0
C1264 C 0.73237 0.79515 0.76579 0.0
N1265 N 0.79234 0.8322 0.75228 0.0
C1266 C 0.81371 0.84421 0.75313 0.0
C1267 C 0.78327 0.83821 0.73086 0.0
N1268 N 0.81869 0.85685 0.73285 0.0
C1269 C 0.79935 0.85341 0.71894 0.0
C1270 C 0.78445 0.7629 0.7424 0.0
O1271 O 0.73842 0.77742 0.77932 0.0
O1272 O 0.74842 0.81131 0.76102 0.0
O1273 O 0.78809 0.78576 0.74297 0.0
O1274 O 0.7784 0.75232 0.76203 0.0
O1275 O 0.81617 0.80057 0.78115 0.0
H1276 H 0.76705 0.83044 0.72348 0.0
H1277 H 0.82589 0.84289 0.76795 0.0
O1278 O 0.80477 0.76816 0.80113 0.0
O1279 O 0.76499 0.79355 0.8181 0.0
O1280 O 0.77667 0.82662 0.79907 0.0
C1281 C 0.76961 0.81631 0.81861 0.0
H1282 H 0.75583 0.70986 0.85363 0.0
H1283 H 0.79753 0.86024 0.70093 0.0
Co1284 Co 0.51625 0.54899 0.51504 0.0
C1285 C 0.51315 0.57764 0.55623 0.0
Co1286 Co 0.52562 0.52802 0.54681 0.0
C1287 C 0.49467 0.55808 0.47091 0.0
C1288 C 0.51767 0.58777 0.47963 0.0
N1289 N 0.50885 0.56637 0.48809 0.0
N1290 N 0.49442 0.57313 0.45188 0.0
C1291 C 0.50896 0.59187 0.45711 0.0
H1292 H 0.48595 0.54044 0.47172 0.0
H1293 H 0.53041 0.59906 0.48879 0.0
C1294 C 0.52917 0.49966 0.50512 0.0
N1295 N 0.53272 0.50991 0.57348 0.0
C1296 C 0.54738 0.5156 0.59138 0.0
C1297 C 0.52441 0.48739 0.57893 0.0
N1298 N 0.54853 0.49753 0.60782 0.0
C1299 C 0.53403 0.47976 0.60011 0.0
C1300 C 0.47569 0.52367 0.53494 0.0
O1301 O 0.52286 0.52 0.49573 0.0
O1302 O 0.5328 0.49925 0.52741 0.0
O1303 O 0.4918 0.51734 0.54982 0.0
O1304 O 0.48182 0.53899 0.51869 0.0
O1305 O 0.51846 0.55727 0.56635 0.0
H1306 H 0.51231 0.47707 0.56806 0.0
H1307 H 0.5569 0.53275 0.59236 0.0
O1308 O 0.50996 0.57768 0.53387 0.0
O1309 O 0.55029 0.55907 0.51155 0.0
O1310 O 0.55969 0.5386 0.54368 0.0
C1311 C 0.56614 0.55334 0.52698 0.0
H1312 H 0.51354 0.60695 0.44526 0.0
H1313 H 0.53105 0.46231 0.60887 0.0
Co1314 Co 0.01095 0.53502 0.02389 0.0
C1315 C 0.02553 0.58245 0.01249 0.0
Co1316 Co 0.04347 0.54471 0.04352 0.0
C1317 C 0.96456 0.51372 0.0187 0.0
C1318 C 0.97937 0.52545 0.98481 0.0
N1319 N 0.98364 0.52548 0.00834 0.0
N1320 N 0.94869 0.506 1.00267 0.0
C1321 C 0.95784 0.51324 0.98123 0.0
H1322 H 0.96307 0.50965 0.0376 0.0
H1323 H 0.99161 0.5329 0.97111 0.0
C1324 C 0.0284 0.49707 0.05452 0.0
N1325 N 0.07121 0.55375 0.05872 0.0
C1326 C 0.08989 0.56574 0.04792 0.0
C1327 C 0.07883 0.54869 0.08088 0.0
N1328 N 0.10899 0.56833 0.06222 0.0
C1329 C 0.10228 0.55758 0.08306 0.0
C1330 C 1.00025 0.55654 0.06733 0.0
O1331 O 0.01249 0.5032 0.0393 0.0
O1332 O 0.04443 0.51276 0.05961 0.0
O1333 O 0.0235 0.55737 0.06851 0.0
O1334 O 0.99082 0.54711 0.04929 0.0
O1335 O 0.04224 0.57673 0.02712 0.0
H1336 H 0.06833 0.53864 0.09429 0.0
H1337 H 0.08992 0.57144 0.02941 0.0
O1338 O 0.00928 0.56666 0.00848 0.0
O1339 O 0.03113 0.52319 0.99861 0.0
O1340 O 0.06359 0.53221 0.0185 0.0
C1341 C 0.05434 0.52388 0.99993 0.0
H1342 H 0.9498 0.50956 0.96428 0.0
H1343 H 0.11355 0.55602 0.09856 0.0
H1344 H 1.00154 0.20009 0.15554 0.0
H1345 H 0.02083 0.1218 0.03635 0.0
H1346 H 0.04554 0.22504 0.09536 0.0
H1347 H 0.0077 0.08666 0.10448 0.0
H1348 H 0.02433 0.16098 0.05651 0.0
H1349 H 0.99855 0.15986 0.13655 0.0
C1350 C 0.01044 0.19718 0.13824 0.0
C1351 C 0.02289 0.21643 0.12657 0.0
C1352 C 0.02044 0.14479 0.06708 0.0
C1353 C 0.01977 0.17013 0.10473 0.0
C1354 C 0.01827 0.1223 0.05555 0.0
C1355 C 0.01377 0.10064 0.06861 0.0
C1356 C 0.01751 0.14612 0.092 0.0
C1357 C 0.01108 0.10273 0.09357 0.0
C1358 C 0.00877 0.17416 0.12742 0.0
C1359 C 0.03475 0.2112 0.10453 0.0
N1360 N 0.01276 0.12498 0.10437 0.0
N1361 N 0.03261 0.18882 0.09422 0.0
H1362 H 0.13208 0.77179 0.42146 0.0
H1363 H 0.24167 0.73654 0.36405 0.0
H1364 H 0.09629 0.73759 0.36326 0.0
H1365 H 0.19697 0.72976 0.30234 0.0
H1366 H 0.2044 0.73885 0.3892 0.0
H1367 H 0.17194 0.7605 0.40322 0.0
C1368 C 0.13265 0.76161 0.40501 0.0
C1369 C 0.11092 0.75581 0.39374 0.0
C1370 C 0.20266 0.73704 0.37018 0.0
C1371 C 0.15636 0.74214 0.37303 0.0
C1372 C 0.22399 0.73537 0.3558 0.0
C1373 C 0.22238 0.73344 0.331 0.0
C1374 C 0.17962 0.73703 0.35959 0.0
C1375 C 0.19905 0.73156 0.32134 0.0
C1376 C 0.15544 0.75487 0.3947 0.0
C1377 C 0.11262 0.74262 0.37246 0.0
N1378 N 0.17856 0.73368 0.33566 0.0
N1379 N 0.13496 0.73643 0.3627 0.0
H1380 H 0.55548 0.86209 0.63503 0.0
H1381 H 0.49951 0.95801 0.53976 0.0
H1382 H 0.4982 0.84667 0.5862 0.0
H1383 H 0.56209 0.97556 0.58124 0.0
H1384 H 0.49836 0.91778 0.55871 0.0
H1385 H 0.55779 0.9039 0.61798 0.0
C1386 C 0.54333 0.86737 0.6209 0.0
C1387 C 0.52665 0.85042 0.61218 0.0
C1388 C 0.51242 0.93031 0.56377 0.0
C1389 C 0.52921 0.89851 0.59248 0.0
C1390 C 0.51309 0.95348 0.55287 0.0
C1391 C 0.53098 0.97049 0.5587 0.0
C1392 C 0.52971 0.92363 0.58094 0.0
C1393 C 0.54797 0.96317 0.57602 0.0
C1394 C 0.54472 0.89129 0.61109 0.0
C1395 C 0.5115 0.85866 0.59367 0.0
N1396 N 0.54692 0.94042 0.58648 0.0
N1397 N 0.51315 0.88178 0.58463 0.0
H1398 H 0.42585 0.29519 0.94388 0.0
H1399 H 0.37501 0.25951 0.81737 0.0
H1400 H 0.46222 0.24289 0.89713 0.0
H1401 H 0.36291 0.32965 0.85026 0.0
H1402 H 0.39843 0.24601 0.85194 0.0
H1403 H 0.39258 0.29935 0.91569 0.0
C1404 C 0.42656 0.28411 0.92805 0.0
C1405 C 0.44729 0.2695 0.92226 0.0
C1406 C 0.39056 0.26432 0.85157 0.0
C1407 C 0.40939 0.2739 0.89034 0.0
C1408 C 0.37746 0.27204 0.83186 0.0
C1409 C 0.36762 0.29584 0.83087 0.0
C1410 C 0.39339 0.28042 0.87052 0.0
C1411 C 0.37084 0.31139 0.85015 0.0
C1412 C 0.40764 0.28658 0.91194 0.0
C1413 C 0.44683 0.25492 0.90187 0.0
N1414 N 0.38348 0.3034 0.86924 0.0
N1415 N 0.42839 0.25781 0.88637 0.0
H1416 H 0.01055 0.84858 0.40872 0.0
H1417 H 0.03049 0.94299 0.51369 0.0
H1418 H 0.05849 0.83535 0.46721 0.0
H1419 H 0.97876 0.95616 0.4582 0.0
H1420 H 0.04236 0.90425 0.49546 0.0
H1421 H 1.00128 0.88972 0.42408 0.0
C1422 C 0.01919 0.85453 0.42472 0.0
C1423 C 0.03439 0.83857 0.43744 0.0
C1424 C 0.02841 0.91554 0.48719 0.0
C1425 C 0.02439 0.88514 0.45477 0.0
C1426 C 0.02159 0.9376 0.49764 0.0
C1427 C 0.00376 0.95276 0.4873 0.0
C1428 C 0.01736 0.90854 0.46615 0.0
C1429 C 0.99247 0.94483 0.46675 0.0
C1430 C 0.01393 0.87787 0.43348 0.0
C1431 C 0.04589 0.84702 0.45756 0.0
N1432 N 0.99956 0.92322 0.45671 0.0
N1433 N 0.04045 0.86972 0.46579 0.0
H1434 H 0.44012 0.81615 0.65132 0.0
H1435 H 0.3457 0.74935 0.73759 0.0
H1436 H 0.46631 0.75883 0.69763 0.0
H1437 H 0.34473 0.82806 0.7347 0.0
H1438 H 0.38605 0.74909 0.71626 0.0
H1439 H 0.40117 0.81794 0.67504 0.0
C1440 C 0.43772 0.80404 0.66656 0.0
C1441 C 0.45663 0.78751 0.67267 0.0
C1442 C 0.37696 0.76638 0.72033 0.0
C1443 C 0.41173 0.78884 0.69929 0.0
C1444 C 0.3539 0.76657 0.73238 0.0
C1445 C 0.34177 0.78877 0.738 0.0
C1446 C 0.38769 0.78852 0.71307 0.0
C1447 C 0.35342 0.81053 0.73085 0.0
C1448 C 0.41552 0.80509 0.68006 0.0
C1449 C 0.45238 0.77208 0.6925 0.0
N1450 N 0.3755 0.80986 0.71848 0.0
N1451 N 0.43029 0.77284 0.70485 0.0
H1452 H 0.54585 0.20559 0.93381 0.0
H1453 H 0.55004 0.11634 0.04668 0.0
H1454 H 0.5258 0.22696 0.00581 0.0
H1455 H 0.55113 0.09164 0.97386 0.0
H1456 H 0.55259 0.15844 0.03218 0.0
H1457 H 0.55805 0.16528 0.94873 0.0
C1458 C 0.54411 0.20187 0.95276 0.0
C1459 C 0.53436 0.21954 0.96854 0.0
C1460 C 0.5527 0.14375 0.01941 0.0
C1461 C 0.54855 0.17359 0.98567 0.0
C1462 C 0.55141 0.11972 0.02765 0.0
C1463 C 0.54983 0.10055 0.01142 0.0
C1464 C 0.55247 0.14853 0.99482 0.0
C1465 C 0.55187 0.10595 0.98697 0.0
C1466 C 0.55116 0.17889 0.96124 0.0
C1467 C 0.53278 0.21376 0.99294 0.0
N1468 N 0.55271 0.12952 0.97939 0.0
N1469 N 0.53966 0.19121 1.00074 0.0
H1470 H 0.1133 0.25767 0.16823 0.0
H1471 H 0.1979 0.3318 0.25351 0.0
H1472 H 0.08178 0.31694 0.2096 0.0
H1473 H 0.20226 0.25317 0.25223 0.0
H1474 H 0.15967 0.33042 0.23104 0.0
H1475 H 0.15075 0.25937 0.1918 0.0
C1476 C 0.11434 0.27124 0.18204 0.0
C1477 C 0.09425 0.2872 0.18685 0.0
C1478 C 0.16895 0.31348 0.23583 0.0
C1479 C 0.13739 0.2895 0.21371 0.0
C1480 C 0.19074 0.31424 0.24871 0.0
C1481 C 0.20323 0.29256 0.25518 0.0
C1482 C 0.15995 0.29093 0.22846 0.0
C1483 C 0.19313 0.27035 0.24806 0.0
C1484 C 0.13566 0.27207 0.19561 0.0
C1485 C 0.09671 0.30424 0.20523 0.0
N1486 N 0.17241 0.27012 0.23486 0.0
N1487 N 0.11787 0.30513 0.21774 0.0
H1488 H 0.10176 0.975 0.25089 0.0
H1489 H 0.0937 0.0159 0.11453 0.0
H1490 H 0.1622 0.00674 0.2103 0.0
H1491 H 0.03801 0.97344 0.15147 0.0
H1492 H 0.1189 0.01315 0.14971 0.0
H1493 H 0.07814 0.97384 0.21464 0.0
C1494 C 0.11015 0.98149 0.23431 0.0
C1495 C 0.13391 0.9911 0.2336 0.0
C1496 C 0.10121 0.00435 0.15009 0.0
C1497 C 0.10694 0.99011 0.19219 0.0
C1498 C 0.08673 0.00611 0.13009 0.0
C1499 C 0.0637 0.99496 0.13014 0.0
C1500 C 0.09249 0.99151 0.17034 0.0
C1501 C 0.05574 0.98212 0.15063 0.0
C1502 C 0.09665 0.98087 0.21363 0.0
C1503 C 0.14391 0.99924 0.21165 0.0
N1504 N 0.07007 0.98084 0.16997 0.0
N1505 N 0.13029 0.99875 0.19184 0.0
H1506 H 0.27356 0.90391 0.44508 0.0
H1507 H 0.27902 0.76616 0.40363 0.0
H1508 H 0.25377 0.84535 0.49383 0.0
H1509 H 0.33211 0.81886 0.3789 0.0
H1510 H 0.26297 0.79562 0.4333 0.0
H1511 H 0.28703 0.87355 0.41565 0.0
C1512 C 0.27169 0.88472 0.44953 0.0
C1513 C 0.26311 0.87718 0.47224 0.0
C1514 C 0.27833 0.80058 0.42157 0.0
C1515 C 0.27824 0.84256 0.43855 0.0
C1516 C 0.28754 0.78382 0.4049 0.0
C1517 C 0.30708 0.79015 0.38931 0.0
C1518 C 0.28833 0.82398 0.42202 0.0
C1519 C 0.31734 0.8133 0.39105 0.0
C1520 C 0.27957 0.86747 0.43277 0.0
C1521 C 0.26067 0.85202 0.47672 0.0
N1522 N 0.30762 0.82959 0.40698 0.0
N1523 N 0.26833 0.83556 0.46004 0.0
H1524 H 0.46017 0.09 0.70127 0.0
H1525 H 0.45469 0.05202 0.56545 0.0
H1526 H 0.39963 0.05203 0.67129 0.0
H1527 H 0.51921 0.07972 0.59832 0.0
H1528 H 0.4304 0.06179 0.60154 0.0
H1529 H 0.47785 0.09609 0.66125 0.0
C1530 C 0.45048 0.08316 0.68623 0.0
C1531 C 0.42876 0.06997 0.68955 0.0
C1532 C 0.4498 0.06605 0.60069 0.0
C1533 C 0.44884 0.07681 0.64388 0.0
C1534 C 0.46367 0.06049 0.58013 0.0
C1535 C 0.48909 0.06454 0.5792 0.0
C1536 C 0.46153 0.07565 0.62035 0.0
C1537 C 0.49974 0.07582 0.59854 0.0
C1538 C 0.46055 0.08669 0.66341 0.0
C1539 C 0.4167 0.06189 0.66949 0.0
N1540 N 0.48594 0.08069 0.61849 0.0
N1541 N 0.42711 0.06514 0.64746 0.0
H1542 H 0.24827 0.15899 0.93819 0.0
H1543 H 0.29428 0.27484 0.8625 0.0
H1544 H 0.27902 0.22043 0.9735 0.0
H1545 H 0.23518 0.22961 0.84057 0.0
H1546 H 0.29354 0.25358 0.90143 0.0
H1547 H 0.24798 0.18251 0.90116 0.0
C1548 C 0.25494 0.17749 0.93835 0.0
C1549 C 0.26351 0.18755 0.95953 0.0
C1550 C 0.28067 0.24838 0.88814 0.0
C1551 C 0.26373 0.21487 0.91601 0.0
C1552 C 0.28111 0.26048 0.86578 0.0
C1553 C 0.26471 0.25419 0.84794 0.0
C1554 C 0.2641 0.2293 0.89278 0.0
C1555 C 0.24814 0.23531 0.85356 0.0
C1556 C 0.25473 0.19098 0.91696 0.0
C1557 C 0.27205 0.21176 0.95793 0.0
N1558 N 0.24845 0.2235 0.87518 0.0
N1559 N 0.27218 0.22441 0.93662 0.0
H1560 H 0.12096 0.99444 0.35398 0.0
H1561 H 0.11358 0.06157 0.47914 0.0
H1562 H 0.18515 0.02205 0.38753 0.0
H1563 H 0.05659 0.01492 0.45452 0.0
H1564 H 0.1397 0.04933 0.44468 0.0
H1565 H 0.09666 0.00298 0.39028 0.0
C1566 C 0.13003 0.00205 0.36903 0.0
C1567 C 0.1551 0.00776 0.36756 0.0
C1568 C 0.12149 0.04176 0.44694 0.0
C1569 C 0.12728 0.01795 0.40905 0.0
C1570 C 0.10655 0.04887 0.46646 0.0
C1571 C 0.08289 0.03932 0.46961 0.0
C1572 C 0.11252 0.02525 0.43043 0.0
C1573 C 0.07472 0.02276 0.45278 0.0
C1574 C 0.11612 0.00697 0.38975 0.0
C1575 C 0.16585 0.0175 0.38775 0.0
N1576 N 0.08946 0.01635 0.43388 0.0
N1577 N 0.1518 0.02258 0.40757 0.0
H1578 H 0.22606 0.84918 0.59883 0.0
H1579 H 0.26403 0.86598 0.7329 0.0
H1580 H 0.25831 0.91483 0.62492 0.0
H1581 H 0.23049 0.80139 0.70589 0.0
H1582 H 0.25506 0.88733 0.69558 0.0
H1583 H 0.22067 0.83447 0.63972 0.0
C1584 C 0.23181 0.86059 0.6132 0.0
C1585 C 0.24307 0.88301 0.60852 0.0
C1586 C 0.24931 0.86861 0.69801 0.0
C1587 C 0.23716 0.86628 0.65532 0.0
C1588 C 0.25437 0.85646 0.71931 0.0
C1589 C 0.24846 0.83177 0.72221 0.0
C1590 C 0.23835 0.85587 0.67963 0.0
C1591 C 0.23583 0.82031 0.70416 0.0
C1592 C 0.22868 0.85223 0.63656 0.0
C1593 C 0.24983 0.89726 0.62779 0.0
N1594 N 0.2315 0.83236 0.68351 0.0
N1595 N 0.24711 0.88847 0.65039 0.0
H1596 H 0.45618 0.06338 0.80574 0.0
H1597 H 0.46053 0.05418 0.94701 0.0
H1598 H 0.39071 0.06366 0.85161 0.0
H1599 H 0.51635 0.02325 0.89939 0.0
H1600 H 0.43778 0.06873 0.91261 0.0
H1601 H 0.48131 0.06062 0.84079 0.0
C1602 C 0.44703 0.06335 0.82316 0.0
C1603 C 0.42121 0.06325 0.82572 0.0
C1604 C 0.45512 0.05896 0.90974 0.0
C1605 C 0.45001 0.06008 0.86575 0.0
C1606 C 0.46813 0.05075 0.92927 0.0
C1607 C 0.49024 0.03742 0.92587 0.0
C1608 C 0.46449 0.05404 0.88673 0.0
C1609 C 0.4992 0.03321 0.90262 0.0
C1610 C 0.46145 0.06165 0.84312 0.0
C1611 C 0.41052 0.06342 0.84879 0.0
N1612 N 0.48625 0.0415 0.88384 0.0
N1613 N 0.425 0.06156 0.86799 0.0
H1614 H 0.26337 0.16227 0.12148 0.0
H1615 H 0.29121 0.28352 0.19642 0.0
H1616 H 0.28212 0.23141 0.08905 0.0
H1617 H 0.27107 0.21526 0.22993 0.0
H1618 H 0.28932 0.26422 0.15739 0.0
H1619 H 0.26717 0.18056 0.161 0.0
C1620 C 0.26836 0.18128 0.12256 0.0
C1621 C 0.27241 0.19518 0.10156 0.0
C1622 C 0.28542 0.25334 0.17322 0.0
C1623 C 0.27683 0.2165 0.14735 0.0
C1624 C 0.2866 0.26438 0.1957 0.0
C1625 C 0.28144 0.25113 0.21689 0.0
C1626 C 0.27896 0.22864 0.17144 0.0
C1627 C 0.27538 0.22634 0.21433 0.0
C1628 C 0.27052 0.19176 0.14527 0.0
C1629 C 0.27879 0.21981 0.10449 0.0
N1630 N 0.27427 0.21602 0.19221 0.0
N1631 N 0.28076 0.22955 0.12672 0.0
H1632 H 0.21553 0.10463 0.05588 0.0
H1633 H 0.08374 0.08762 0.99789 0.0
H1634 H 0.18173 0.15906 0.01116 0.0
H1635 H 0.10652 0.04469 0.05836 0.0
H1636 H 0.12142 0.11121 0.99988 0.0
H1637 H 0.17759 0.08073 0.05542 0.0
C1638 C 0.20013 0.11152 0.04588 0.0
C1639 C 0.20215 0.13355 0.03291 0.0
C1640 C 0.11827 0.09661 0.01271 0.0
C1641 C 0.15839 0.1062 0.03233 0.0
C1642 C 0.09674 0.08289 0.01148 0.0
C1643 C 0.0917 0.06388 0.02793 0.0
C1644 C 0.13534 0.0914 0.03042 0.0
C1645 C 0.10946 0.05901 0.0452 0.0
C1646 C 0.17839 0.0979 0.04572 0.0
C1647 C 0.18124 0.14195 0.02098 0.0
N1648 N 0.13039 0.07257 0.04594 0.0
N1649 N 0.1605 0.12814 0.02063 0.0
H1650 H 0.67617 0.41221 0.04397 0.0
H1651 H 0.61172 0.54103 0.06798 0.0
H1652 H 0.70581 0.48205 0.02241 0.0
H1653 H 0.5685 0.48195 0.04217 0.0
H1654 H 0.64771 0.51382 0.0678 0.0
H1655 H 0.63742 0.43323 0.05652 0.0
C1656 C 0.67455 0.43185 0.04185 0.0
C1657 C 0.69423 0.4454 0.03207 0.0
C1658 C 0.63016 0.5067 0.06278 0.0
C1659 C 0.65087 0.46924 0.04728 0.0
C1660 C 0.6096 0.52213 0.06298 0.0
C1661 C 0.5873 0.51391 0.0544 0.0
C1662 C 0.62833 0.48294 0.05409 0.0
C1663 C 0.58551 0.48911 0.04853 0.0
C1664 C 0.6526 0.44373 0.04913 0.0
C1665 C 0.69121 0.4708 0.02977 0.0
N1666 N 0.60602 0.4745 0.04797 0.0
N1667 N 0.67005 0.48188 0.03753 0.0
H1668 H 0.85392 0.4931 0.24108 0.0
H1669 H 0.8429 0.37772 0.32631 0.0
H1670 H 0.90645 0.47767 0.29527 0.0
H1671 H 0.79949 0.39071 0.26432 0.0
H1672 H 0.86917 0.41198 0.31393 0.0
H1673 H 0.83782 0.4522 0.24621 0.0
C1674 C 0.86214 0.48081 0.25394 0.0
C1675 C 0.88073 0.48865 0.26845 0.0
C1676 C 0.85408 0.40701 0.30292 0.0
C1677 C 0.8624 0.44215 0.27479 0.0
C1678 C 0.83889 0.38783 0.3102 0.0
C1679 C 0.81903 0.38151 0.29632 0.0
C1680 C 0.8491 0.41988 0.28179 0.0
C1681 C 0.81477 0.39482 0.27539 0.0
C1682 C 0.85309 0.45746 0.25685 0.0
C1683 C 0.89154 0.47214 0.28431 0.0
N1684 N 0.82963 0.41337 0.26882 0.0
N1685 N 0.88173 0.44965 0.28759 0.0
H1686 H 0.84183 0.6443 0.55941 0.0
H1687 H 0.94254 0.55197 0.49904 0.0
H1688 H 0.83365 0.60733 0.49276 0.0
H1689 H 0.95168 0.58214 0.56876 0.0
H1690 H 0.90356 0.57434 0.49627 0.0
H1691 H 0.88288 0.62461 0.56276 0.0
C1692 C 0.8487 0.63239 0.54533 0.0
C1693 C 0.834 0.62757 0.52577 0.0
C1694 C 0.91397 0.57615 0.51225 0.0
C1695 C 0.88101 0.6047 0.52962 0.0
C1696 C 0.93637 0.56326 0.51387 0.0
C1697 C 0.95061 0.56493 0.53424 0.0
C1698 C 0.90535 0.59112 0.53108 0.0
C1699 C 0.94139 0.58011 0.55275 0.0
C1700 C 0.8721 0.62098 0.54735 0.0
C1701 C 0.84401 0.61166 0.50827 0.0
N1702 N 0.91943 0.59257 0.55074 0.0
N1703 N 0.8666 0.60091 0.51064 0.0
H1704 H 0.21957 0.0619 0.2695 0.0
H1705 H 0.19865 0.19892 0.31078 0.0
H1706 H 0.15837 0.08171 0.31651 0.0
H1707 H 0.27033 0.1641 0.30898 0.0
H1708 H 0.18009 0.15925 0.3023 0.0
H1709 H 0.23478 0.1038 0.27199 0.0
C1710 C 0.2095 0.07513 0.28042 0.0
C1711 C 0.18862 0.06838 0.29393 0.0
C1712 C 0.19987 0.16042 0.30374 0.0
C1713 C 0.20501 0.11586 0.296 0.0
C1714 C 0.21031 0.18279 0.30864 0.0
C1715 C 0.2358 0.18425 0.31091 0.0
C1716 C 0.21527 0.13987 0.30034 0.0
C1717 C 0.25053 0.16328 0.30773 0.0
C1718 C 0.21797 0.0989 0.28164 0.0
C1719 C 0.17513 0.08627 0.30662 0.0
N1720 N 0.24004 0.14184 0.30237 0.0
N1721 N 0.18376 0.1093 0.30765 0.0
H1722 H 0.3136 0.95802 0.55754 0.0
H1723 H 0.4328 0.96704 0.47398 0.0
H1724 H 0.33901 0.89832 0.51327 0.0
H1725 H 0.41994 0.0129 0.5352 0.0
H1726 H 0.3981 0.94174 0.48742 0.0
H1727 H 0.35302 0.97805 0.55042 0.0
C1728 C 0.3277 0.94915 0.54642 0.0
C1729 C 0.3231 0.92715 0.53517 0.0
C1730 C 0.403 0.95727 0.49797 0.0
C1731 C 0.36785 0.94967 0.52688 0.0
C1732 C 0.42246 0.97184 0.4901 0.0
C1733 C 0.42894 0.99204 0.50348 0.0
C1734 C 0.38979 0.96333 0.51906 0.0
C1735 C 0.4154 0.9974 0.52448 0.0
C1736 C 0.35018 0.96043 0.54248 0.0
C1737 C 0.34194 0.91572 0.52164 0.0
N1738 N 0.39631 0.98322 0.53155 0.0
N1739 N 0.36346 0.92744 0.51734 0.0
H1740 H 0.80463 0.60034 0.27367 0.0
H1741 H 0.82525 0.73933 0.24419 0.0
H1742 H 0.8731 0.6289 0.24476 0.0
H1743 H 0.754 0.70969 0.26272 0.0
H1744 H 0.84133 0.69811 0.23753 0.0
H1745 H 0.78425 0.63905 0.26428 0.0
C1746 C 0.81539 0.61473 0.26533 0.0
C1747 C 0.84074 0.6116 0.26052 0.0
C1748 C 0.82205 0.70058 0.24261 0.0
C1749 C 0.81747 0.65581 0.24954 0.0
C1750 C 0.81289 0.7241 0.24642 0.0
C1751 C 0.78848 0.72771 0.25456 0.0
C1752 C 0.80678 0.68062 0.24748 0.0
C1753 C 0.77306 0.70754 0.25675 0.0
C1754 C 0.80367 0.63675 0.25975 0.0
C1755 C 0.85361 0.63066 0.24918 0.0
N1756 N 0.78264 0.68469 0.25376 0.0
N1757 N 0.84187 0.65208 0.24435 0.0
H1758 H 0.68402 0.44112 0.76283 0.0
H1759 H 0.77092 0.33063 0.80092 0.0
H1760 H 0.74311 0.44889 0.81172 0.0
H1761 H 0.72184 0.32766 0.74207 0.0
H1762 H 0.76242 0.37436 0.80407 0.0
H1763 H 0.69875 0.3999 0.75408 0.0
C1764 C 0.70014 0.43417 0.77172 0.0
C1765 C 0.71218 0.44835 0.78829 0.0
C1766 C 0.75375 0.36421 0.79029 0.0
C1767 C 0.72914 0.40112 0.77827 0.0
C1768 C 0.75855 0.33924 0.78849 0.0
C1769 C 0.74685 0.32549 0.77135 0.0
C1770 C 0.73695 0.37541 0.77499 0.0
C1771 C 0.73112 0.33757 0.75564 0.0
C1772 C 0.70862 0.41066 0.76658 0.0
C1773 C 0.73319 0.43852 0.79895 0.0
N1774 N 0.72642 0.36184 0.75801 0.0
N1775 N 0.74087 0.41535 0.79393 0.0
H1776 H 0.04067 0.84293 0.96519 0.0
H1777 H 0.01785 0.98891 0.96046 0.0
H1778 H 0.00371 0.87955 0.90803 0.0
H1779 H 0.04235 0.95064 0.02308 0.0
H1780 H 0.01522 0.94967 0.94004 0.0
H1781 H 0.04378 0.88221 0.98559 0.0
C1782 C 0.0328 0.85919 0.9571 0.0
C1783 C 0.02099 0.85766 0.93526 0.0
C1784 C 0.0213 0.94981 0.95821 0.0
C1785 C 0.02547 0.90329 0.95816 0.0
C1786 C 0.02298 0.97233 0.9699 0.0
C1787 C 0.03055 0.9734 0.99363 0.0
C1788 C 0.02736 0.92785 0.97009 0.0
C1789 C 0.03658 0.95099 0.00481 0.0
C1790 C 0.03481 0.88173 0.96867 0.0
C1791 C 0.0124 0.87968 0.92509 0.0
N1792 N 0.03491 0.92933 0.99301 0.0
N1793 N 0.01467 0.90143 0.93661 0.0
H1794 H 0.90945 0.2624 0.64188 0.0
H1795 H 0.84127 0.2585 0.77027 0.0
H1796 H 0.94421 0.27848 0.70791 0.0
H1797 H 0.8031 0.25275 0.70433 0.0
H1798 H 0.88009 0.26156 0.74753 0.0
H1799 H 0.87104 0.25453 0.66443 0.0
C1800 C 0.90906 0.26418 0.66107 0.0
C1801 C 0.93002 0.27135 0.67298 0.0
C1802 C 0.86323 0.25959 0.73802 0.0
C1803 C 0.88631 0.26232 0.69879 0.0
C1804 C 0.84107 0.25782 0.75101 0.0
C1805 C 0.81894 0.25558 0.73916 0.0
C1806 C 0.86326 0.25906 0.71302 0.0
C1807 C 0.81976 0.25466 0.71417 0.0
C1808 C 0.88714 0.25973 0.67392 0.0
C1809 C 0.92848 0.27327 0.6979 0.0
N1810 N 0.84159 0.25648 0.7019 0.0
N1811 N 0.907 0.26885 0.70993 0.0
H1812 H 0.54053 0.23565 0.4653 0.0
H1813 H 0.50206 0.09441 0.46525 0.0
H1814 H 0.50472 0.20272 0.4066 0.0
H1815 H 0.55443 0.12239 0.51366 0.0
H1816 H 0.50056 0.13439 0.44521 0.0
H1817 H 0.54364 0.19531 0.48464 0.0
C1818 C 0.53336 0.21997 0.45639 0.0
C1819 C 0.52238 0.22282 0.43413 0.0
C1820 C 0.51243 0.13184 0.46019 0.0
C1821 C 0.52563 0.17617 0.45657 0.0
C1822 C 0.51326 0.10893 0.47175 0.0
C1823 C 0.5284 0.10476 0.49133 0.0
C1824 C 0.52657 0.15118 0.4683 0.0
C1825 C 0.5425 0.12453 0.49869 0.0
C1826 C 0.53518 0.19685 0.46749 0.0
C1827 C 0.51343 0.2016 0.42364 0.0
N1828 N 0.54112 0.14676 0.48734 0.0
N1829 N 0.5151 0.17938 0.43495 0.0
H1830 H 0.59342 0.83965 0.15151 0.0
H1831 H 0.64812 0.8258 0.28091 0.0
H1832 H 0.5484 0.85168 0.21522 0.0
H1833 H 0.66925 0.78199 0.22021 0.0
H1834 H 0.61822 0.84836 0.25629 0.0
H1835 H 0.62937 0.83439 0.17605 0.0
C1836 C 0.5912 0.84213 0.17058 0.0
C1837 C 0.56775 0.84517 0.18145 0.0
C1838 C 0.62956 0.83391 0.24842 0.0
C1839 C 0.60866 0.83895 0.20944 0.0
C1840 C 0.64626 0.821 0.2624 0.0
C1841 C 0.66034 0.80176 0.25249 0.0
C1842 C 0.62776 0.82789 0.22431 0.0
C1843 C 0.65807 0.79635 0.22842 0.0
C1844 C 0.61171 0.83889 0.18456 0.0
C1845 C 0.56609 0.8487 0.20618 0.0
N1846 N 0.64205 0.80938 0.21509 0.0
N1847 N 0.58625 0.84484 0.21951 0.0
H1848 H 0.01766 0.21605 0.66841 0.0
H1849 H 0.10442 0.1678 0.56101 0.0
H1850 H 0.05359 0.26281 0.61641 0.0
H1851 H 0.05683 0.12257 0.60475 0.0
H1852 H 0.09519 0.20218 0.5879 0.0
H1853 H 0.04116 0.18102 0.6521 0.0
C1854 C 0.03063 0.21882 0.65361 0.0
C1855 C 0.03296 0.24177 0.64279 0.0
C1856 C 0.0872 0.18457 0.59187 0.0
C1857 C 0.06014 0.20245 0.62454 0.0
C1858 C 0.09253 0.16507 0.57662 0.0
C1859 C 0.08097 0.14272 0.58062 0.0
C1860 C 0.07037 0.18139 0.61117 0.0
C1861 C 0.06565 0.13981 0.60095 0.0
C1862 C 0.0441 0.19899 0.6444 0.0
C1863 C 0.05059 0.24496 0.62437 0.0
N1864 N 0.06055 0.15902 0.61535 0.0
N1865 N 0.0633 0.22538 0.61549 0.0
H1866 H 0.59991 0.29325 0.39498 0.0
H1867 H 0.68229 0.26711 0.27675 0.0
H1868 H 0.57085 0.29428 0.32443 0.0
H1869 H 0.71253 0.30536 0.33551 0.0
H1870 H 0.64185 0.26826 0.29738 0.0
H1871 H 0.64194 0.28933 0.37682 0.0
C1872 C 0.60225 0.29233 0.37579 0.0
C1873 C 0.58164 0.29409 0.3613 0.0
C1874 C 0.65735 0.27632 0.30581 0.0
C1875 C 0.62955 0.28924 0.34047 0.0
C1876 C 0.6805 0.27565 0.29405 0.0
C1877 C 0.70093 0.28635 0.30424 0.0
C1878 C 0.65447 0.28729 0.32829 0.0
C1879 C 0.69731 0.29708 0.32683 0.0
C1880 C 0.62623 0.29026 0.36544 0.0
C1881 C 0.58597 0.29301 0.33646 0.0
N1882 N 0.67461 0.29719 0.33813 0.0
N1883 N 0.60922 0.2905 0.32695 0.0
H1884 H 0.4769 0.84683 0.0702 0.0
H1885 H 0.48157 0.9898 0.09104 0.0
H1886 H 0.47881 0.88125 0.13896 0.0
H1887 H 0.49232 0.95621 0.02217 0.0
H1888 H 0.46866 0.95072 0.10768 0.0
H1889 H 0.47082 0.88701 0.05173 0.0
C1890 C 0.47556 0.86276 0.08148 0.0
C1891 C 0.479 0.8608 0.10609 0.0
C1892 C 0.47352 0.95192 0.08886 0.0
C1893 C 0.47207 0.90662 0.0851 0.0
C1894 C 0.48094 0.97422 0.07934 0.0
C1895 C 0.4886 0.97603 0.05532 0.0
C1896 C 0.47406 0.93122 0.07433 0.0
C1897 C 0.48691 0.95544 0.04088 0.0
C1898 C 0.47214 0.88567 0.0709 0.0
C1899 C 0.47685 0.88199 0.11985 0.0
N1900 N 0.48023 0.93368 0.05073 0.0
N1901 N 0.47385 0.90406 0.10911 0.0
H1902 H 0.92459 0.77813 0.9107 0.0
H1903 H 0.86426 0.80912 0.78553 0.0
H1904 H 0.96903 0.80291 0.85054 0.0
H1905 H 0.83321 0.75742 0.836 0.0
H1906 H 0.90134 0.81078 0.80959 0.0
H1907 H 0.88957 0.77452 0.88467 0.0
C1908 C 0.92707 0.78286 0.89202 0.0
C1909 C 0.95008 0.79079 0.88296 0.0
C1910 C 0.88649 0.79891 0.81525 0.0
C1911 C 0.90941 0.78697 0.85279 0.0
C1912 C 0.86527 0.79789 0.80147 0.0
C1913 C 0.84544 0.78291 0.80848 0.0
C1914 C 0.88782 0.78531 0.83662 0.0
C1915 C 0.84795 0.76906 0.82959 0.0
C1916 C 0.90697 0.78069 0.87709 0.0
C1917 C 0.95184 0.79657 0.85843 0.0
N1918 N 0.86844 0.7708 0.8429 0.0
N1919 N 0.93183 0.79477 0.84432 0.0
H1920 H 0.89459 0.02241 0.8512 0.0
H1921 H 0.00574 0.09189 0.90909 0.0
H1922 H 0.94906 0.0626 0.80982 0.0
H1923 H 0.95226 0.04922 0.94887 0.0
H1924 H 0.98338 0.08456 0.87273 0.0
H1925 H 0.91402 0.03475 0.88742 0.0
C1926 C 0.91063 0.03386 0.84969 0.0
C1927 C 0.92027 0.04136 0.82737 0.0
C1928 C 0.9765 0.07692 0.88946 0.0
C1929 C 0.94265 0.05559 0.86891 0.0
C1930 C 0.98915 0.08123 0.91018 0.0
C1931 C 0.98098 0.07087 0.93188 0.0
C1932 C 0.95554 0.06223 0.89059 0.0
C1933 C 0.95948 0.05708 0.93239 0.0
C1934 C 0.92171 0.04094 0.87042 0.0
C1935 C 0.94106 0.05627 0.82661 0.0
N1936 N 0.94757 0.05306 0.91202 0.0
N1937 N 0.95162 0.06284 0.84711 0.0
H1938 H 0.82108 0.17063 0.58187 0.0
H1939 H 0.73405 0.27018 0.64711 0.0
H1940 H 0.78992 0.2325 0.5446 0.0
H1941 H 0.75574 0.20056 0.67722 0.0
H1942 H 0.75826 0.26025 0.61073 0.0
H1943 H 0.80368 0.18653 0.61919 0.0
C1944 C 0.8111 0.18794 0.58168 0.0
C1945 C 0.80666 0.20015 0.56018 0.0
C1946 C 0.75767 0.24721 0.62535 0.0
C1947 C 0.78591 0.21802 0.60265 0.0
C1948 C 0.7436 0.2527 0.64595 0.0
C1949 C 0.74291 0.23615 0.66522 0.0
C1950 C 0.77114 0.22509 0.62415 0.0
C1951 C 0.756 0.21396 0.66292 0.0
C1952 C 0.80092 0.19688 0.60294 0.0
C1953 C 0.79372 0.22255 0.56087 0.0
N1954 N 0.76961 0.20914 0.64285 0.0
N1955 N 0.78333 0.23059 0.58178 0.0
H1956 H 0.66447 0.04729 0.37985 0.0
H1957 H 0.54221 0.00322 0.44877 0.0
H1958 H 0.59944 0.02272 0.34545 0.0
H1959 H 0.60574 0.02974 0.48422 0.0
H1960 H 0.56521 0.00549 0.41091 0.0
H1961 H 0.64458 0.03838 0.41848 0.0
C1962 C 0.64596 0.04026 0.38039 0.0
C1963 C 0.63362 0.03576 0.35935 0.0
C1964 C 0.57423 0.01054 0.427 0.0
C1965 C 0.611 0.02515 0.4034 0.0
C1966 C 0.56117 0.00906 0.44865 0.0
C1967 C 0.57196 0.0167 0.46956 0.0
C1968 C 0.59815 0.01987 0.42633 0.0
C1969 C 0.59663 0.02392 0.46843 0.0
C1970 C 0.63471 0.03496 0.40244 0.0
C1971 C 0.60971 0.02648 0.36116 0.0
N1972 N 0.60881 0.0257 0.44706 0.0
N1973 N 0.59922 0.02145 0.38279 0.0
H1974 H 0.79579 0.90664 0.11541 0.0
H1975 H 0.73796 0.80647 0.2056 0.0
H1976 H 0.75281 0.84716 0.09072 0.0
H1977 H 0.8037 0.84537 0.22111 0.0
H1978 H 0.739 0.82462 0.16534 0.0
H1979 H 0.79478 0.88822 0.15552 0.0
C1980 C 0.78599 0.88977 0.11837 0.0
C1981 C 0.77437 0.87856 0.09934 0.0
C1982 C 0.75321 0.82921 0.17752 0.0
C1983 C 0.77288 0.85731 0.14591 0.0
C1984 C 0.7526 0.8189 0.20066 0.0
C1985 C 0.77081 0.82423 0.21709 0.0
C1986 C 0.77186 0.84559 0.17055 0.0
C1987 C 0.78928 0.84052 0.20927 0.0
C1988 C 0.78553 0.87918 0.14137 0.0
C1989 C 0.7621 0.85656 0.10461 0.0
N1990 N 0.7892 0.85068 0.18683 0.0
N1991 N 0.76151 0.84685 0.12725 0.0
H1992 H 0.9567 0.08557 0.70516 0.0
H1993 H 0.96358 0.04255 0.57055 0.0
H1994 H 0.89981 0.04526 0.67183 0.0
H1995 H 0.018 0.08851 0.60083 0.0
H1996 H 0.93754 0.04795 0.60625 0.0
H1997 H 0.9766 0.09213 0.66597 0.0
C1998 C 0.94813 0.07854 0.68956 0.0
C1999 C 0.92685 0.06447 0.69175 0.0
C2000 C 0.95507 0.05706 0.60506 0.0
C2001 C 0.94961 0.07159 0.64706 0.0
C2002 C 0.97001 0.05387 0.5847 0.0
C2003 C 0.99316 0.06475 0.58291 0.0
C2004 C 0.96344 0.071 0.62393 0.0
C2005 C 1.00038 0.07955 0.60162 0.0
C2006 C 0.95954 0.08221 0.66721 0.0
C2007 C 0.91643 0.05589 0.67098 0.0
N2008 N 0.98569 0.08199 0.62153 0.0
N2009 N 0.92812 0.05928 0.64954 0.0
H2010 H 0.78878 0.14175 0.40588 0.0
H2011 H 0.80947 0.26883 0.33799 0.0
H2012 H 0.80884 0.20871 0.43983 0.0
H2013 H 0.77508 0.20733 0.30579 0.0
H2014 H 0.81583 0.2443 0.37365 0.0
H2015 H 0.78889 0.16336 0.36757 0.0
C2016 C 0.79318 0.16097 0.4053 0.0
C2017 C 0.79866 0.17349 0.42612 0.0
C2018 C 0.80706 0.23608 0.35873 0.0
C2019 C 0.79909 0.1981 0.38244 0.0
C2020 C 0.80351 0.25004 0.33832 0.0
C2021 C 0.79142 0.24017 0.31906 0.0
C2022 C 0.79838 0.21212 0.35994 0.0
C2023 C 0.78433 0.21567 0.32035 0.0
C2024 C 0.79329 0.17324 0.38344 0.0
C2025 C 0.80428 0.19835 0.42431 0.0
N2026 N 0.78769 0.20249 0.34063 0.0
N2027 N 0.80436 0.20982 0.40284 0.0
H2028 H 0.58512 0.98429 0.25071 0.0
H2029 H 0.58242 0.05924 0.13686 0.0
H2030 H 0.652 0.99598 0.20885 0.0
H2031 H 0.52653 0.00477 0.14523 0.0
H2032 H 0.60669 0.03774 0.16677 0.0
H2033 H 0.56148 0.98972 0.21458 0.0
C2034 C 0.59493 0.98699 0.23381 0.0
C2035 C 0.62046 0.99061 0.23284 0.0
C2036 C 0.58915 0.03043 0.16199 0.0
C2037 C 0.59363 0.99739 0.19206 0.0
C2038 C 0.57522 0.0429 0.14534 0.0
C2039 C 0.55247 0.03383 0.13911 0.0
C2040 C 0.57996 0.00909 0.1728 0.0
C2041 C 0.54397 0.01227 0.15001 0.0
C2042 C 0.5814 0.99021 0.21327 0.0
C2043 C 0.63225 0.9938 0.21048 0.0
N2044 N 0.55758 0.00072 0.16676 0.0
N2045 N 0.61865 0.99801 0.19103 0.0
H2046 H 0.77007 0.85442 0.97168 0.0
H2047 H 0.77882 0.86512 0.82744 0.0
H2048 H 0.78304 0.9215 0.93273 0.0
H2049 H 0.76004 0.79824 0.86427 0.0
H2050 H 0.7807 0.88556 0.86604 0.0
H2051 H 0.76693 0.83313 0.93333 0.0
C2052 C 0.7723 0.86475 0.95524 0.0
C2053 C 0.77681 0.89004 0.95592 0.0
C2054 C 0.77603 0.86643 0.86576 0.0
C2055 C 0.77323 0.86548 0.91142 0.0
C2056 C 0.77486 0.85469 0.84355 0.0
C2057 C 0.76905 0.82978 0.84219 0.0
C2058 C 0.77156 0.85334 0.88722 0.0
C2059 C 0.7644 0.81745 0.8641 0.0
C2060 C 0.77045 0.85253 0.93322 0.0
C2061 C 0.77947 0.90213 0.9336 0.0
N2062 N 0.76582 0.82922 0.88547 0.0
N2063 N 0.77769 0.88988 0.91263 0.0
H2064 H 0.86318 0.91844 1.00202 0.0
H2065 H 0.94539 0.00893 0.07269 0.0
H2066 H 0.82833 0.96523 0.05471 0.0
H2067 H 0.95233 0.00675 0.99611 0.0
H2068 H 0.9069 0.9858 0.07088 0.0
H2069 H 0.90095 0.94276 0.00397 0.0
C2070 C 0.86349 0.93377 0.01403 0.0
C2071 C 0.84229 0.94022 0.02771 0.0
C2072 C 0.91684 0.99051 0.0545 0.0
C2073 C 0.88582 0.96749 0.03081 0.0
C2074 C 0.93878 0.00375 0.0555 0.0
C2075 C 0.95207 0.01018 0.03451 0.0
C2076 C 0.90851 0.98266 0.03243 0.0
C2077 C 0.94261 0.0026 0.01275 0.0
C2078 C 0.88501 0.94766 0.01511 0.0
C2079 C 0.84401 0.95997 0.04341 0.0
N2080 N 0.92173 0.98901 0.01229 0.0
N2081 N 0.86532 0.97278 0.04463 0.0
H2082 H 0.37353 0.61175 0.95888 0.0
H2083 H 0.50023 0.63681 0.01832 0.0
H2084 H 0.38198 0.66348 0.01548 0.0
H2085 H 0.49016 0.58505 0.96229 0.0
H2086 H 0.45983 0.65506 0.01025 0.0
H2087 H 0.41807 0.60897 0.95365 0.0
C2088 C 0.38476 0.62252 0.97025 0.0
C2089 C 0.37402 0.63742 0.98804 0.0
C2090 C 0.46678 0.6402 0.99922 0.0
C2091 C 0.42517 0.63439 0.98207 0.0
C2092 C 0.48995 0.63001 0.00363 0.0
C2093 C 0.49811 0.60919 0.9912 0.0
C2094 C 0.45196 0.6293 0.98237 0.0
C2095 C 0.48417 0.60089 0.97249 0.0
C2096 C 0.41023 0.62111 0.9671 0.0
C2097 C 0.38951 0.65145 1.0018 0.0
N2098 N 0.46151 0.61066 0.96895 0.0
N2099 N 0.41435 0.6493 0.99878 0.0
H2100 H 0.13316 0.60915 0.79552 0.0
H2101 H 0.20109 0.71216 0.77333 0.0
H2102 H 0.18972 0.57249 0.75318 0.0
H2103 H 0.23822 0.6719 0.7167 0.0
H2104 H 0.17514 0.67758 0.78174 0.0
H2105 H 0.14798 0.64842 0.78049 0.0
C2106 C 0.14893 0.60958 0.78323 0.0
C2107 C 0.16133 0.58803 0.77658 0.0
C2108 C 0.18833 0.67635 0.76697 0.0
C2109 C 0.17865 0.63242 0.75956 0.0
C2110 C 0.20358 0.69604 0.76248 0.0
C2111 C 0.22212 0.6947 0.74456 0.0
C2112 C 0.19149 0.65515 0.75327 0.0
C2113 C 0.22413 0.67363 0.73067 0.0
C2114 C 0.15755 0.63193 0.77476 0.0
C2115 C 0.1807 0.58904 0.75966 0.0
N2116 N 0.20918 0.6545 0.73554 0.0
N2117 N 0.18908 0.61099 0.75196 0.0
H2118 H 0.2021 0.43239 0.56132 0.0
H2119 H 0.08708 0.49206 0.49373 0.0
H2120 H 0.20559 0.45766 0.48839 0.0
H2121 H 0.09115 0.49458 0.57021 0.0
H2122 H 0.12814 0.47309 0.49157 0.0
H2123 H 0.15934 0.44851 0.56497 0.0
C2124 C 0.19382 0.44093 0.54599 0.0
C2125 C 0.20761 0.44358 0.52449 0.0
C2126 C 0.1201 0.47772 0.50886 0.0
C2127 C 0.15861 0.46205 0.52853 0.0
C2128 C 0.09652 0.48855 0.51014 0.0
C2129 C 0.08546 0.49515 0.53219 0.0
C2130 C 0.13293 0.47291 0.52979 0.0
C2131 C 0.09888 0.49 0.55278 0.0
C2132 C 0.16948 0.45034 0.54815 0.0
C2133 C 0.19586 0.45519 0.50535 0.0
N2134 N 0.1218 0.47914 0.5511 0.0
N2135 N 0.17223 0.46381 0.50779 0.0
H2136 H 0.88722 0.98689 0.71265 0.0
H2137 H 0.864 0.85222 0.75223 0.0
H2138 H 0.92823 0.9501 0.76713 0.0
H2139 H 0.8233 0.89316 0.69994 0.0
H2140 H 0.89683 0.88198 0.74853 0.0
H2141 H 0.87441 0.9477 0.69804 0.0
C2142 C 0.8938 0.97033 0.72129 0.0
C2143 C 0.90786 0.97143 0.74161 0.0
C2144 C 0.88099 0.88404 0.73742 0.0
C2145 C 0.89273 0.92661 0.7256 0.0
C2146 C 0.86205 0.86724 0.73974 0.0
C2147 C 0.84028 0.87085 0.7272 0.0
C2148 C 0.87796 0.90456 0.72259 0.0
C2149 C 0.83938 0.8899 0.71042 0.0
C2150 C 0.88654 0.94796 0.71295 0.0
C2151 C 0.91662 0.94974 0.75186 0.0
N2152 N 0.8577 0.90633 0.709 0.0
N2153 N 0.90823 0.92801 0.74417 0.0
H2154 H 0.72504 0.14766 0.48343 0.0
H2155 H 0.63315 0.06424 0.50625 0.0
H2156 H 0.76443 0.10612 0.536 0.0
H2157 H 0.6511 0.07797 0.57927 0.0
H2158 H 0.67204 0.08192 0.49309 0.0
H2159 H 0.68768 0.12501 0.49428 0.0
C2160 C 0.72577 0.13348 0.497 0.0
C2161 C 0.74772 0.12786 0.50825 0.0
C2162 C 0.66734 0.08103 0.51197 0.0
C2163 C 0.70548 0.10279 0.52121 0.0
C2164 C 0.6451 0.07111 0.51957 0.0
C2165 C 0.63839 0.07038 0.54395 0.0
C2166 C 0.68315 0.08999 0.52883 0.0
C2167 C 0.65538 0.07843 0.56034 0.0
C2168 C 0.70464 0.12061 0.50312 0.0
C2169 C 0.74784 0.11013 0.52641 0.0
N2170 N 0.67707 0.08806 0.55245 0.0
N2171 N 0.72684 0.09822 0.53254 0.0
H2172 H 0.15521 0.45055 0.81154 0.0
H2173 H 0.20471 0.33541 0.81864 0.0
H2174 H 0.22791 0.47736 0.8243 0.0
H2175 H 0.27433 0.37081 0.80597 0.0
H2176 H 0.18601 0.37459 0.82943 0.0
H2177 H 0.17069 0.40925 0.81565 0.0
C2178 C 0.17442 0.44775 0.81558 0.0
C2179 C 0.19037 0.46748 0.81723 0.0
C2180 C 0.20528 0.37397 0.82401 0.0
C2181 C 0.20823 0.41984 0.82287 0.0
C2182 C 0.21602 0.35152 0.81811 0.0
C2183 C 0.24088 0.35011 0.81079 0.0
C2184 C 0.21941 0.39517 0.82186 0.0
C2185 C 0.25495 0.37127 0.81113 0.0
C2186 C 0.18324 0.42399 0.81834 0.0
C2187 C 0.215 0.46268 0.82268 0.0
N2188 N 0.24389 0.39308 0.81615 0.0
N2189 N 0.22327 0.43927 0.82499 0.0
H2190 H 0.3349 0.55201 0.26886 0.0
H2191 H 0.33888 0.68873 0.31346 0.0
H2192 H 0.40273 0.58894 0.2816 0.0
H2193 H 0.28252 0.66524 0.26668 0.0
H2194 H 0.35918 0.64885 0.30949 0.0
H2195 H 0.31224 0.5907 0.27503 0.0
C2196 C 0.34498 0.56823 0.27304 0.0
C2197 C 0.3707 0.56741 0.27467 0.0
C2198 C 0.34231 0.65243 0.3002 0.0
C2199 C 0.345 0.61121 0.28202 0.0
C2200 C 0.33062 0.67509 0.30255 0.0
C2201 C 0.30905 0.68027 0.29027 0.0
C2202 C 0.33217 0.63475 0.28578 0.0
C2203 C 0.29921 0.66195 0.27632 0.0
C2204 C 0.33208 0.59021 0.27644 0.0
C2205 C 0.38293 0.58889 0.28001 0.0
N2206 N 0.31087 0.63987 0.27446 0.0
N2207 N 0.36992 0.60994 0.28366 0.0
H2208 H 0.50561 0.70132 0.65651 0.0
H2209 H 0.52152 0.62299 0.53704 0.0
H2210 H 0.54869 0.72537 0.59537 0.0
H2211 H 0.50804 0.58754 0.60497 0.0
H2212 H 0.52649 0.66173 0.55741 0.0
H2213 H 0.50179 0.66096 0.63787 0.0
C2214 C 0.51417 0.69817 0.63911 0.0
C2215 C 0.52658 0.71724 0.62706 0.0
C2216 C 0.52216 0.64561 0.56793 0.0
C2217 C 0.52249 0.67079 0.60561 0.0
C2218 C 0.51916 0.62333 0.55626 0.0
C2219 C 0.5141 0.60168 0.56915 0.0
C2220 C 0.51949 0.64684 0.59286 0.0
C2221 C 0.51179 0.60361 0.59416 0.0
C2222 C 0.51202 0.67508 0.62848 0.0
C2223 C 0.53797 0.7117 0.60487 0.0
N2224 N 0.51424 0.62572 0.60512 0.0
N2225 N 0.53536 0.68928 0.59478 0.0
H2226 H 0.56098 0.25849 0.85088 0.0
H2227 H 0.70742 0.25283 0.84272 0.0
H2228 H 0.60788 0.28237 0.9064 0.0
H2229 H 0.66373 0.25148 0.77981 0.0
H2230 H 0.67013 0.25768 0.86709 0.0
H2231 H 0.59762 0.25079 0.82526 0.0
C2232 C 0.57898 0.2621 0.85766 0.0
C2233 C 0.58149 0.27107 0.88077 0.0
C2234 C 0.66862 0.2563 0.84797 0.0
C2235 C 0.62317 0.26214 0.85177 0.0
C2236 C 0.68993 0.25342 0.83397 0.0
C2237 C 0.6887 0.25194 0.80911 0.0
C2238 C 0.64578 0.25764 0.83714 0.0
C2239 C 0.66547 0.25264 0.79891 0.0
C2240 C 0.5998 0.25775 0.84303 0.0
C2241 C 0.60514 0.27551 0.88869 0.0
N2242 N 0.6448 0.25553 0.81302 0.0
N2243 N 0.62508 0.27089 0.87422 0.0
H2244 H 0.05082 0.36104 0.13924 0.0
H2245 H 0.99704 0.45984 0.04559 0.0
H2246 H 0.99529 0.34707 0.08814 0.0
H2247 H 0.05822 0.4764 0.08933 0.0
H2248 H 0.9957 0.41904 0.06318 0.0
H2249 H 0.05338 0.40342 0.12366 0.0
C2250 C 0.0391 0.36675 0.12491 0.0
C2251 C 0.02283 0.35005 0.11512 0.0
C2252 C 0.0095 0.43147 0.06905 0.0
C2253 C 0.02568 0.39879 0.09712 0.0
C2254 C 0.01028 0.45497 0.05893 0.0
C2255 C 0.02784 0.4719 0.06578 0.0
C2256 C 0.02633 0.42432 0.08645 0.0
C2257 C 0.04437 0.46412 0.08333 0.0
C2258 C 0.04064 0.391 0.11594 0.0
C2259 C 0.00824 0.35885 0.09642 0.0
N2260 N 0.04322 0.44101 0.09303 0.0
N2261 N 0.01002 0.38228 0.08822 0.0
H2262 H 0.9428 0.77217 0.42772 0.0
H2263 H 0.90775 0.80025 0.29492 0.0
H2264 H 0.99452 0.7632 0.36818 0.0
H2265 H 0.85321 0.77832 0.34799 0.0
H2266 H 0.94017 0.78864 0.32241 0.0
H2267 H 0.90934 0.7753 0.39959 0.0
C2268 C 0.94711 0.77047 0.40884 0.0
C2269 C 0.97157 0.76781 0.40032 0.0
C2270 C 0.9211 0.78611 0.32792 0.0
C2271 C 0.93358 0.77175 0.36823 0.0
C2272 C 0.9027 0.79288 0.31233 0.0
C2273 C 0.87795 0.79015 0.31926 0.0
C2274 C 0.91456 0.77705 0.35072 0.0
C2275 C 0.87217 0.78041 0.34194 0.0
C2276 C 0.92803 0.77229 0.39282 0.0
C2277 C 0.97602 0.76562 0.37563 0.0
N2278 N 0.89037 0.77445 0.35702 0.0
N2279 N 0.95726 0.76803 0.36045 0.0
H2280 H 0.54583 0.34255 0.96334 0.0
H2281 H 0.46652 0.46693 0.96765 0.0
H2282 H 0.48304 0.35575 0.91983 0.0
H2283 H 0.53077 0.45243 0.00905 0.0
H2284 H 0.47203 0.42664 0.94937 0.0
H2285 H 0.54181 0.38414 0.97837 0.0
C2286 C 0.53113 0.35436 0.95707 0.0
C2287 C 0.51407 0.34575 0.94124 0.0
C2288 C 0.48493 0.43236 0.96242 0.0
C2289 C 0.50935 0.39314 0.95802 0.0
C2290 C 0.48163 0.45518 0.97301 0.0
C2291 C 0.49835 0.46303 0.9897 0.0
C2292 C 0.50502 0.41741 0.96868 0.0
C2293 C 0.51775 0.44726 0.99592 0.0
C2294 C 0.52888 0.37807 0.96551 0.0
C2295 C 0.49604 0.36179 0.93265 0.0
N2296 N 0.52057 0.42523 0.98538 0.0
N2297 N 0.49381 0.38474 0.94151 0.0
H2298 H 0.96187 0.25557 0.19677 0.0
H2299 H 0.83662 0.3242 0.23129 0.0
H2300 H 0.93482 0.31307 0.15113 0.0
H2301 H 0.83935 0.24548 0.23154 0.0
H2302 H 0.87712 0.3245 0.21027 0.0
H2303 H 0.92162 0.25556 0.21846 0.0
C2304 C 0.94763 0.26847 0.19158 0.0
C2305 C 0.95178 0.28446 0.1722 0.0
C2306 C 0.86883 0.30719 0.215 0.0
C2307 C 0.90589 0.28475 0.19713 0.0
C2308 C 0.84577 0.30698 0.22702 0.0
C2309 C 0.83446 0.28477 0.23309 0.0
C2310 C 0.88118 0.28506 0.2097 0.0
C2311 C 0.84726 0.26301 0.22706 0.0
C2312 C 0.92464 0.26829 0.20382 0.0
C2313 C 0.93245 0.3005 0.166 0.0
N2314 N 0.87003 0.26369 0.21599 0.0
N2315 N 0.91051 0.30045 0.17856 0.0
H2316 H 0.05463 0.69561 0.43183 0.0
H2317 H 0.04455 0.60946 0.54707 0.0
H2318 H 0.02955 0.72019 0.5015 0.0
H2319 H 0.04755 0.58245 0.47502 0.0
H2320 H 0.04966 0.65092 0.53144 0.0
H2321 H 0.06167 0.65477 0.44848 0.0
C2322 C 0.0507 0.69246 0.45064 0.0
C2323 C 0.04113 0.71124 0.46524 0.0
C2324 C 0.04954 0.63584 0.51911 0.0
C2325 C 0.04943 0.66474 0.48434 0.0
C2326 C 0.04678 0.61218 0.52799 0.0
C2327 C 0.04521 0.59259 0.51227 0.0
C2328 C 0.05083 0.63982 0.49438 0.0
C2329 C 0.04831 0.59713 0.48774 0.0
C2330 C 0.05477 0.66918 0.4601 0.0
C2331 C 0.03655 0.70616 0.4895 0.0
N2332 N 0.05071 0.62036 0.47951 0.0
N2333 N 0.04067 0.68335 0.49828 0.0
H2334 H 0.5869 0.82183 0.70529 0.0
H2335 H 0.70632 0.7553 0.75288 0.0
H2336 H 0.61787 0.75914 0.6687 0.0
H2337 H 0.70411 0.83393 0.74853 0.0
H2338 H 0.66922 0.75412 0.72908 0.0
H2339 H 0.62497 0.82475 0.72771 0.0
C2340 C 0.60173 0.80872 0.70187 0.0
C2341 C 0.59912 0.7903 0.68486 0.0
C2342 C 0.67676 0.77164 0.73345 0.0
C2343 C 0.64259 0.79309 0.71123 0.0
C2344 C 0.69785 0.77238 0.74727 0.0
C2345 C 0.70842 0.79479 0.75302 0.0
C2346 C 0.66544 0.79347 0.72574 0.0
C2347 C 0.69666 0.81624 0.74472 0.0
C2348 C 0.62347 0.81045 0.71468 0.0
C2349 C 0.61905 0.77379 0.68139 0.0
N2350 N 0.67571 0.81507 0.73183 0.0
N2351 N 0.63968 0.77533 0.69467 0.0
H2352 H 0.5977 0.48044 0.75123 0.0
H2353 H 0.59176 0.51985 0.61425 0.0
H2354 H 0.65602 0.51758 0.71227 0.0
H2355 H 0.53768 0.47404 0.64942 0.0
H2356 H 0.61532 0.51942 0.65044 0.0
H2357 H 0.57524 0.47757 0.7143 0.0
C2358 C 0.60582 0.48785 0.7349 0.0
C2359 C 0.62865 0.49939 0.73479 0.0
C2360 C 0.59834 0.50938 0.65026 0.0
C2361 C 0.60313 0.4963 0.69271 0.0
C2362 C 0.5848 0.5098 0.62966 0.0
C2363 C 0.5627 0.49708 0.62893 0.0
C2364 C 0.58961 0.49628 0.67034 0.0
C2365 C 0.55474 0.48394 0.64923 0.0
C2366 C 0.59302 0.48621 0.71386 0.0
C2367 C 0.6384 0.50862 0.71318 0.0
N2368 N 0.56814 0.48398 0.66921 0.0
N2369 N 0.62552 0.507 0.69303 0.0
H2370 H 0.76189 0.34006 0.99278 0.0
H2371 H 0.76902 0.32075 0.85204 0.0
H2372 H 0.75462 0.39851 0.94106 0.0
H2373 H 0.78799 0.26401 0.90235 0.0
H2374 H 0.76087 0.34873 0.88482 0.0
H2375 H 0.76782 0.31109 0.96028 0.0
C2376 C 0.76122 0.34681 0.97462 0.0
C2377 C 0.75783 0.37185 0.96968 0.0
C2378 C 0.76684 0.33019 0.88879 0.0
C2379 C 0.76487 0.33873 0.93245 0.0
C2380 C 0.77141 0.31418 0.87008 0.0
C2381 C 0.77897 0.28999 0.87457 0.0
C2382 C 0.76977 0.32199 0.91227 0.0
C2383 C 0.78229 0.28256 0.89821 0.0
C2384 C 0.7648 0.33024 0.95608 0.0
C2385 C 0.75724 0.37944 0.94577 0.0
N2386 N 0.77752 0.29851 0.91627 0.0
N2387 N 0.76082 0.36296 0.92807 0.0
H2388 H 0.95259 0.58959 0.20943 0.0
H2389 H 0.95033 0.5526 0.07294 0.0
H2390 H 0.89232 0.55278 0.1777 0.0
H2391 H 0.0142 0.57972 0.10735 0.0
H2392 H 0.92546 0.56156 0.10886 0.0
H2393 H 0.97178 0.59499 0.16992 0.0
C2394 C 0.94328 0.58286 0.19411 0.0
C2395 C 0.92113 0.57025 0.19681 0.0
C2396 C 0.94485 0.56584 0.10841 0.0
C2397 C 0.94295 0.57631 0.1517 0.0
C2398 C 0.95905 0.56075 0.08794 0.0
C2399 C 0.98444 0.56496 0.08741 0.0
C2400 C 0.95619 0.57513 0.12843 0.0
C2401 C 0.99475 0.57578 0.10719 0.0
C2402 C 0.95422 0.58598 0.17157 0.0
C2403 C 0.90964 0.56225 0.17639 0.0
N2404 N 0.98062 0.58022 0.12704 0.0
N2405 N 0.92087 0.56513 0.15466 0.0
H2406 H 0.78149 0.72147 0.47615 0.0
H2407 H 0.73511 0.73366 0.34195 0.0
H2408 H 0.74934 0.66207 0.43887 0.0
H2409 H 0.7975 0.77434 0.36386 0.0
H2410 H 0.73476 0.71175 0.38031 0.0
H2411 H 0.78257 0.74534 0.43844 0.0
C2412 C 0.77449 0.71343 0.46025 0.0
C2413 C 0.76523 0.6895 0.46111 0.0
C2414 C 0.74851 0.72552 0.37682 0.0
C2415 C 0.76603 0.71712 0.41767 0.0
C2416 C 0.74869 0.73816 0.35483 0.0
C2417 C 0.7664 0.756 0.34934 0.0
C2418 C 0.7658 0.73093 0.39408 0.0
C2419 C 0.78352 0.76075 0.36706 0.0
C2420 C 0.77522 0.72708 0.43863 0.0
C2421 C 0.7566 0.68031 0.43954 0.0
N2422 N 0.78268 0.74852 0.38856 0.0
N2423 N 0.757 0.69405 0.41908 0.0
H2424 H 0.68907 0.51255 0.88862 0.0
H2425 H 0.61493 0.56819 0.97525 0.0
H2426 H 0.62016 0.49706 0.856 0.0
H2427 H 0.55852 0.51903 0.95403 0.0
H2428 H 0.64204 0.55225 0.94328 0.0
H2429 H 0.66645 0.52239 0.92555 0.0
C2430 C 0.66922 0.5109 0.88925 0.0
C2431 C 0.65645 0.50468 0.86888 0.0
C2432 C 0.62391 0.54463 0.9459 0.0
C2433 C 0.63048 0.51661 0.91089 0.0
C2434 C 0.60827 0.55406 0.96386 0.0
C2435 C 0.58445 0.54496 0.96723 0.0
C2436 C 0.61556 0.52604 0.93124 0.0
C2437 C 0.57676 0.52657 0.95205 0.0
C2438 C 0.65631 0.51692 0.91028 0.0
C2439 C 0.63078 0.50229 0.87104 0.0
N2440 N 0.59222 0.51784 0.9346 0.0
N2441 N 0.61861 0.50855 0.89161 0.0
H2442 H 0.75737 0.4149 0.12113 0.0
H2443 H 0.7188 0.30235 0.2036 0.0
H2444 H 0.72166 0.35026 0.09702 0.0
H2445 H 0.76234 0.36194 0.22758 0.0
H2446 H 0.71063 0.32516 0.16723 0.0
H2447 H 0.7509 0.40088 0.16233 0.0
C2448 C 0.74788 0.39792 0.12453 0.0
C2449 C 0.74047 0.38342 0.10569 0.0
C2450 C 0.72169 0.33346 0.18054 0.0
C2451 C 0.73297 0.36743 0.15256 0.0
C2452 C 0.72635 0.32045 0.20131 0.0
C2453 C 0.7417 0.33013 0.21828 0.0
C2454 C 0.73281 0.35613 0.17654 0.0
C2455 C 0.75062 0.35378 0.21473 0.0
C2456 C 0.74418 0.38997 0.14802 0.0
C2457 C 0.72806 0.36176 0.11103 0.0
N2458 N 0.74645 0.36585 0.19394 0.0
N2459 N 0.72493 0.35429 0.13398 0.0
H2460 H 0.88012 0.56057 0.35874 0.0
H2461 H 0.00956 0.51563 0.40136 0.0
H2462 H 0.94554 0.56333 0.31293 0.0
H2463 H 0.9544 0.54472 0.45074 0.0
H2464 H 0.98545 0.53156 0.36824 0.0
H2465 H 0.9063 0.55483 0.393 0.0
C2466 C 0.89994 0.5605 0.3559 0.0
C2467 C 0.9106 0.56198 0.33286 0.0
C2468 C 0.9788 0.53469 0.38636 0.0
C2469 C 0.94046 0.55492 0.37178 0.0
C2470 C 0.9924 0.52541 0.40513 0.0
C2471 C 0.98387 0.52893 0.42862 0.0
C2472 C 0.95635 0.54706 0.39125 0.0
C2473 C 0.96165 0.54187 0.43279 0.0
C2474 C 0.91485 0.55715 0.37545 0.0
C2475 C 0.93643 0.56192 0.3303 0.0
N2476 N 0.94846 0.55026 0.41425 0.0
N2477 N 0.95047 0.5579 0.34949 0.0
H2478 H 0.76184 0.66213 0.62306 0.0
H2479 H 0.79717 0.78126 0.69794 0.0
H2480 H 0.78475 0.73014 0.59091 0.0
H2481 H 0.77162 0.71502 0.73185 0.0
H2482 H 0.79428 0.76193 0.65909 0.0
H2483 H 0.76651 0.68002 0.6627 0.0
C2484 C 0.76791 0.6808 0.62423 0.0
C2485 C 0.77287 0.69451 0.60326 0.0
C2486 C 0.78942 0.75146 0.67496 0.0
C2487 C 0.77833 0.71534 0.64917 0.0
C2488 C 0.79118 0.76252 0.69736 0.0
C2489 C 0.78481 0.74988 0.71863 0.0
C2490 C 0.78114 0.72733 0.67328 0.0
C2491 C 0.77697 0.72559 0.7162 0.0
C2492 C 0.77057 0.69105 0.647 0.0
C2493 C 0.78066 0.71869 0.6063 0.0
N2494 N 0.77531 0.71524 0.69412 0.0
N2495 N 0.78311 0.7282 0.62857 0.0
H2496 H 0.68156 0.6629 0.51149 0.0
H2497 H 0.60641 0.54365 0.5549 0.0
H2498 H 0.71314 0.60597 0.55483 0.0
H2499 H 0.58161 0.5929 0.49995 0.0
H2500 H 0.64441 0.56713 0.55704 0.0
H2501 H 0.64339 0.63941 0.50991 0.0
C2502 C 0.68043 0.64548 0.52074 0.0
C2503 C 0.70095 0.63602 0.53259 0.0
C2504 C 0.63071 0.57276 0.54444 0.0
C2505 C 0.65693 0.60907 0.53134 0.0
C2506 C 0.60896 0.55924 0.54312 0.0
C2507 C 0.59059 0.56603 0.52708 0.0
C2508 C 0.63419 0.59365 0.52994 0.0
C2509 C 0.59515 0.58668 0.51247 0.0
C2510 C 0.65864 0.63199 0.51979 0.0
C2511 C 0.69811 0.61361 0.5448 0.0
N2512 N 0.61624 0.59973 0.51436 0.0
N2513 N 0.67671 0.60091 0.54377 0.0
H2514 H 0.20371 0.98276 0.52606 0.0
H2515 H 0.06546 0.97314 0.54286 0.0
H2516 H 0.17787 0.91131 0.54727 0.0
H2517 H 0.10461 0.03171 0.57491 0.0
H2518 H 0.10327 0.94804 0.54299 0.0
H2519 H 0.16435 0.00039 0.53928 0.0
C2520 C 0.18971 0.97071 0.53332 0.0
C2521 C 0.19412 0.94552 0.53566 0.0
C2522 C 0.10321 0.96608 0.55073 0.0
C2523 C 0.14906 0.96571 0.55085 0.0
C2524 C 0.08168 0.98039 0.55077 0.0
C2525 C 0.08222 0.00482 0.55816 0.0
C2526 C 0.12509 0.97657 0.55784 0.0
C2527 C 0.10363 0.01321 0.56841 0.0
C2528 C 0.16739 0.98085 0.54115 0.0
C2529 C 0.17517 0.93085 0.54524 0.0
N2530 N 0.12449 0.99936 0.56726 0.0
N2531 N 0.15319 0.94116 0.5523 0.0
H2532 H 0.4198 0.97986 0.79041 0.0
H2533 H 0.31759 0.88238 0.76296 0.0
H2534 H 0.36423 0.98866 0.73787 0.0
H2535 H 0.3512 0.8872 0.83102 0.0
H2536 H 0.34558 0.91341 0.74689 0.0
H2537 H 0.40551 0.93801 0.79854 0.0
C2538 C 0.40488 0.97271 0.78038 0.0
C2539 C 0.39232 0.98762 0.76426 0.0
C2540 C 0.34717 0.90744 0.76523 0.0
C2541 C 0.3767 0.94033 0.77266 0.0
C2542 C 0.3312 0.88996 0.77434 0.0
C2543 C 0.33207 0.88292 0.79829 0.0
C2544 C 0.36402 0.91795 0.78029 0.0
C2545 C 0.34997 0.89269 0.81253 0.0
C2546 C 0.39684 0.94899 0.78492 0.0
C2547 C 0.37365 0.97774 0.75107 0.0
N2548 N 0.36524 0.91006 0.80334 0.0
N2549 N 0.36616 0.95472 0.75576 0.0
H2550 H 0.33549 0.11114 0.98967 0.0
H2551 H 0.45544 0.0889 0.06786 0.0
H2552 H 0.34286 0.14532 0.05783 0.0
H2553 H 0.44711 0.06163 0.99686 0.0
H2554 H 0.41516 0.11003 0.06524 0.0
H2555 H 0.37684 0.09389 0.99248 0.0
C2556 C 0.34587 0.11525 0.00523 0.0
C2557 C 0.33538 0.12983 0.02354 0.0
C2558 C 0.4222 0.09946 0.05024 0.0
C2559 C 0.38346 0.10949 0.02706 0.0
C2560 C 0.44522 0.08731 0.05173 0.0
C2561 C 0.45485 0.07326 0.03259 0.0
C2562 C 0.40853 0.09757 0.02948 0.0
C2563 C 0.44062 0.07208 0.01215 0.0
C2564 C 0.36964 0.10527 0.00684 0.0
C2565 C 0.35009 0.13439 0.04317 0.0
N2566 N 0.41837 0.08392 0.01121 0.0
N2567 N 0.37324 0.12411 0.04451 0.0
H2568 H 0.6529 0.5822 0.83064 0.0
H2569 H 0.71747 0.6878 0.85216 0.0
H2570 H 0.70518 0.57424 0.77183 0.0
H2571 H 0.73845 0.68547 0.77744 0.0
H2572 H 0.69551 0.64964 0.84788 0.0
H2573 H 0.66546 0.62468 0.8351 0.0
C2574 C 0.66715 0.58952 0.81882 0.0
C2575 C 0.67911 0.57477 0.80172 0.0
C2576 C 0.70431 0.65784 0.83228 0.0
C2577 C 0.6934 0.62269 0.80646 0.0
C2578 C 0.71721 0.67935 0.83484 0.0
C2579 C 0.72969 0.68976 0.81512 0.0
C2580 C 0.70408 0.64675 0.80985 0.0
C2581 C 0.72875 0.67824 0.79301 0.0
C2582 C 0.6744 0.61358 0.82142 0.0
C2583 C 0.69653 0.58499 0.78596 0.0
N2584 N 0.71636 0.65718 0.79103 0.0
N2585 N 0.70337 0.60839 0.78884 0.0
H2586 H 0.81076 0.45367 0.05494 0.0
H2587 H 0.93274 0.4683 0.97679 0.0
H2588 H 0.83907 0.39563 0.01007 0.0
H2589 H 0.91757 0.50957 0.04071 0.0
H2590 H 0.89802 0.44182 0.98752 0.0
H2591 H 0.84998 0.47448 0.05002 0.0
C2592 C 0.82546 0.44531 0.04417 0.0
C2593 C 0.82179 0.42349 0.03224 0.0
C2594 C 0.90245 0.45658 0.99925 0.0
C2595 C 0.86637 0.44696 0.02642 0.0
C2596 C 0.92195 0.47183 0.99296 0.0
C2597 C 0.92776 0.49112 0.00786 0.0
C2598 C 0.88853 0.46108 0.02029 0.0
C2599 C 0.91361 0.4948 0.02884 0.0
C2600 C 0.84783 0.45704 0.04147 0.0
C2601 C 0.84133 0.41281 0.01904 0.0
N2602 N 0.89448 0.48004 0.03434 0.0
N2603 N 0.86279 0.42498 0.01599 0.0
H2604 H 0.38407 0.12928 0.74201 0.0
H2605 H 0.25937 0.20745 0.75577 0.0
H2606 H 0.31443 0.09969 0.76661 0.0
H2607 H 0.33186 0.23866 0.75188 0.0
H2608 H 0.27802 0.1671 0.74879 0.0
H2609 H 0.36359 0.16864 0.73528 0.0
C2610 C 0.36445 0.131 0.74586 0.0
C2611 C 0.35101 0.11131 0.75534 0.0
C2612 C 0.28976 0.18287 0.74912 0.0
C2613 C 0.32755 0.15615 0.74746 0.0
C2614 C 0.27915 0.20587 0.75299 0.0
C2615 C 0.29418 0.22627 0.75487 0.0
C2616 C 0.31548 0.1804 0.74701 0.0
C2617 C 0.31967 0.22328 0.75098 0.0
C2618 C 0.3528 0.15344 0.74196 0.0
C2619 C 0.3256 0.11452 0.75973 0.0
N2620 N 0.32958 0.20067 0.7475 0.0
N2621 N 0.3147 0.13661 0.75591 0.0
H2622 H 0.18305 0.9276 0.27611 0.0
H2623 H 0.28096 0.82774 0.31953 0.0
H2624 H 0.24268 0.94295 0.32249 0.0
H2625 H 0.2307 0.81456 0.26321 0.0
H2626 H 0.26528 0.8695 0.32229 0.0
H2627 H 0.19832 0.88548 0.27276 0.0
C2628 C 0.19928 0.92213 0.28565 0.0
C2629 C 0.21159 0.93887 0.29963 0.0
C2630 C 0.25771 0.85754 0.30926 0.0
C2631 C 0.22911 0.89078 0.2958 0.0
C2632 C 0.26664 0.83366 0.30767 0.0
C2633 C 0.25713 0.81767 0.29107 0.0
C2634 C 0.239 0.86552 0.29425 0.0
C2635 C 0.23859 0.82634 0.2762 0.0
C2636 C 0.20803 0.89811 0.28364 0.0
C2637 C 0.23259 0.93075 0.31149 0.0
N2638 N 0.23004 0.84974 0.27819 0.0
N2639 N 0.24064 0.90728 0.30933 0.0
H2640 H 0.51623 0.39179 0.39217 0.0
H2641 H 0.53627 0.45191 0.52059 0.0
H2642 H 0.52301 0.34873 0.45643 0.0
H2643 H 0.5226 0.49384 0.45686 0.0
H2644 H 0.53379 0.41419 0.49748 0.0
H2645 H 0.52054 0.42889 0.41538 0.0
C2646 C 0.5187 0.38998 0.41117 0.0
C2647 C 0.51925 0.36669 0.42214 0.0
C2648 C 0.53147 0.43162 0.48849 0.0
C2649 C 0.5243 0.40992 0.44923 0.0
C2650 C 0.53302 0.4533 0.5017 0.0
C2651 C 0.52982 0.4764 0.49079 0.0
C2652 C 0.52671 0.43275 0.464 0.0
C2653 C 0.52536 0.47667 0.46619 0.0
C2654 C 0.52114 0.41137 0.42449 0.0
C2655 C 0.52243 0.36605 0.44698 0.0
N2656 N 0.52395 0.45537 0.45378 0.0
N2657 N 0.52485 0.38718 0.45957 0.0
H2658 H 0.42251 0.76918 0.14525 0.0
H2659 H 0.36453 0.77586 0.27789 0.0
H2660 H 0.46116 0.79552 0.2057 0.0
H2661 H 0.323 0.75641 0.21679 0.0
H2662 H 0.40053 0.78223 0.2516 0.0
H2663 H 0.38616 0.76293 0.17128 0.0
C2664 C 0.42341 0.77358 0.16396 0.0
C2665 C 0.44491 0.78297 0.17325 0.0
C2666 C 0.38352 0.77665 0.24393 0.0
C2667 C 0.40346 0.77591 0.20305 0.0
C2668 C 0.36296 0.77305 0.25894 0.0
C2669 C 0.34078 0.76561 0.24951 0.0
C2670 C 0.38187 0.77267 0.21936 0.0
C2671 C 0.33976 0.76219 0.22482 0.0
C2672 C 0.40264 0.77008 0.17878 0.0
C2673 C 0.44499 0.78834 0.19766 0.0
N2674 N 0.36007 0.76568 0.21059 0.0
N2675 N 0.4246 0.78474 0.21167 0.0
H2676 H 0.9768 0.72305 0.95507 0.0
H2677 H 0.06292 0.61591 0.0055 0.0
H2678 H 0.0546 0.72092 0.93763 0.0
H2679 H 0.98635 0.60555 0.99133 0.0
H2680 H 0.06077 0.65599 0.98509 0.0
H2681 H 0.98025 0.68193 0.97238 0.0
C2682 C 0.99464 0.71386 0.95468 0.0
C2683 C 0.01538 0.7256 0.94457 0.0
C2684 C 0.04448 0.64489 0.9864 0.0
C2685 C 0.01961 0.67824 0.96527 0.0
C2686 C 0.04563 0.62202 0.99819 0.0
C2687 C 0.02477 0.60711 1.00027 0.0
C2688 C 0.02213 0.65339 0.97702 0.0
C2689 C 0.00295 0.61618 0.99023 0.0
C2690 C 0.99658 0.6903 0.96463 0.0
C2691 C 0.03801 0.7126 0.94487 0.0
N2692 N 1.00217 0.63864 0.97937 0.0
N2693 N 0.03958 0.68985 0.95528 0.0
H2694 H 0.077 0.33929 0.66688 0.0
H2695 H 0.13071 0.27553 0.77938 0.0
H2696 H 0.03223 0.32353 0.72983 0.0
H2697 H 0.17636 0.31326 0.7272 0.0
H2698 H 0.09434 0.29579 0.76299 0.0
H2699 H 0.11377 0.33508 0.69047 0.0
C2700 C 0.07488 0.33577 0.68585 0.0
C2701 C 0.05163 0.3312 0.69633 0.0
C2702 C 0.11237 0.29991 0.75537 0.0
C2703 C 0.09353 0.32547 0.72318 0.0
C2704 C 0.13303 0.2881 0.76451 0.0
C2705 C 0.15647 0.29256 0.75446 0.0
C2706 C 0.1152 0.31593 0.73578 0.0
C2707 C 0.1586 0.30937 0.7355 0.0
C2708 C 0.09588 0.33318 0.6993 0.0
C2709 C 0.04987 0.32688 0.72099 0.0
N2710 N 0.1382 0.3202 0.72656 0.0
N2711 N 0.07063 0.32338 0.73349 0.0
H2712 H 0.56327 0.77443 0.10566 0.0
H2713 H 0.56976 0.63149 0.1004 0.0
H2714 H 0.53475 0.72789 0.16193 0.0
H2715 H 0.61071 0.67743 0.05135 0.0
H2716 H 0.56253 0.66625 0.12666 0.0
H2717 H 0.58649 0.73967 0.08889 0.0
C2718 C 0.562 0.75676 0.11443 0.0
C2719 C 0.54632 0.75343 0.1344 0.0
C2720 C 0.5736 0.66875 0.11047 0.0
C2721 C 0.57293 0.7139 0.11578 0.0
C2722 C 0.57763 0.64895 0.0955 0.0
C2723 C 0.59052 0.65194 0.07372 0.0
C2724 C 0.5821 0.6918 0.10328 0.0
C2725 C 0.60062 0.67464 0.06806 0.0
C2726 C 0.57545 0.73703 0.10508 0.0
C2727 C 0.54606 0.73073 0.14595 0.0
N2728 N 0.59575 0.69396 0.08257 0.0
N2729 N 0.55875 0.71157 0.13613 0.0
H2730 H 0.08135 0.7681 0.84493 0.0
H2731 H 0.21937 0.81825 0.83787 0.0
H2732 H 0.11263 0.80737 0.90246 0.0
H2733 H 0.19311 0.76387 0.79029 0.0
H2734 H 0.17997 0.81668 0.86049 0.0
H2735 H 0.12142 0.76824 0.82373 0.0
C2736 C 0.09667 0.77665 0.85322 0.0
C2737 C 0.09347 0.78768 0.87564 0.0
C2738 C 0.18284 0.80507 0.84512 0.0
C2739 C 0.13972 0.78824 0.85107 0.0
C2740 C 0.20534 0.80602 0.83209 0.0
C2741 C 0.20972 0.79122 0.812 0.0
C2742 C 0.16427 0.78941 0.83795 0.0
C2743 C 0.19072 0.77567 0.80557 0.0
C2744 C 0.11963 0.77673 0.84104 0.0
C2745 C 0.11416 0.7985 0.88533 0.0
N2746 N 0.16892 0.77528 0.81837 0.0
N2747 N 0.13627 0.79868 0.87295 0.0
H2748 H 0.97288 0.373 0.64603 0.0
H2749 H 0.98712 0.44799 0.52481 0.0
H2750 H 0.97169 0.33975 0.57665 0.0
H2751 H 0.9835 0.48037 0.59466 0.0
H2752 H 0.97496 0.40892 0.54284 0.0
H2753 H 0.96994 0.41309 0.6271 0.0
C2754 C 0.9717 0.3741 0.62683 0.0
C2755 C 0.97303 0.35299 0.61289 0.0
C2756 C 0.97649 0.42469 0.55414 0.0
C2757 C 0.96996 0.39889 0.59104 0.0
C2758 C 0.98343 0.44696 0.54386 0.0
C2759 C 0.98677 0.46729 0.55832 0.0
C2760 C 0.973 0.42284 0.57901 0.0
C2761 C 0.98157 0.46504 0.58287 0.0
C2762 C 0.96999 0.39703 0.61601 0.0
C2763 C 0.97101 0.35554 0.58811 0.0
N2764 N 0.97524 0.44315 0.59245 0.0
N2765 N 0.97001 0.37812 0.57793 0.0
H2766 H 0.42982 0.31995 0.39493 0.0
H2767 H 0.34868 0.24632 0.30671 0.0
H2768 H 0.4646 0.26496 0.35042 0.0
H2769 H 0.34279 0.32489 0.30822 0.0
H2770 H 0.38656 0.24838 0.32966 0.0
H2771 H 0.39252 0.31765 0.37101 0.0
C2772 C 0.42956 0.3073 0.38024 0.0
C2773 C 0.45058 0.29304 0.37433 0.0
C2774 C 0.37699 0.26514 0.32484 0.0
C2775 C 0.40766 0.28961 0.34748 0.0
C2776 C 0.35541 0.26399 0.31169 0.0
C2777 C 0.3426 0.28546 0.30515 0.0
C2778 C 0.38537 0.28784 0.33247 0.0
C2779 C 0.35217 0.30786 0.31247 0.0
C2780 C 0.40832 0.30604 0.36658 0.0
C2781 C 0.44899 0.27663 0.35532 0.0
N2782 N 0.37265 0.30844 0.32598 0.0
N2783 N 0.42797 0.27525 0.34271 0.0
H2784 H 0.41402 0.49926 0.3474 0.0
H2785 H 0.51377 0.58233 0.40768 0.0
H2786 H 0.47356 0.5337 0.30761 0.0
H2787 H 0.45201 0.54993 0.44546 0.0
H2788 H 0.49927 0.5655 0.37047 0.0
H2789 H 0.42892 0.5167 0.38375 0.0
C2790 C 0.43041 0.51025 0.34633 0.0
C2791 C 0.44243 0.51519 0.32438 0.0
C2792 C 0.4888 0.56225 0.38689 0.0
C2793 C 0.45938 0.53554 0.36593 0.0
C2794 C 0.4969 0.5721 0.40801 0.0
C2795 C 0.48409 0.56731 0.42955 0.0
C2796 C 0.46781 0.5476 0.3875 0.0
C2797 C 0.46253 0.55371 0.42919 0.0
C2798 C 0.43882 0.52035 0.36709 0.0
C2799 C 0.46369 0.52943 0.32413 0.0
N2800 N 0.45514 0.54418 0.40852 0.0
N2801 N 0.47138 0.5393 0.34461 0.0
H2802 H 0.32295 0.66126 0.08768 0.0
H2803 H 0.24305 0.75504 0.16712 0.0
H2804 H 0.29099 0.72749 0.059 0.0
H2805 H 0.28255 0.69264 0.19514 0.0
H2806 H 0.26123 0.74641 0.12749 0.0
H2807 H 0.3111 0.67466 0.1277 0.0
C2808 C 0.31394 0.67894 0.08992 0.0
C2809 C 0.30781 0.69327 0.07012 0.0
C2810 C 0.26595 0.73466 0.14235 0.0
C2811 C 0.29339 0.70839 0.11576 0.0
C2812 C 0.25532 0.73938 0.16486 0.0
C2813 C 0.26127 0.72446 0.18437 0.0
C2814 C 0.28248 0.71481 0.13941 0.0
C2815 C 0.27762 0.70469 0.18059 0.0
C2816 C 0.30698 0.68652 0.11275 0.0
C2817 C 0.29612 0.716 0.0739 0.0
N2818 N 0.28761 0.70043 0.15858 0.0
N2819 N 0.28885 0.7227 0.09633 0.0
H2820 H 0.16596 0.54268 0.88955 0.0
H2821 H 0.04076 0.50531 0.95761 0.0
H2822 H 0.09726 0.52882 0.85575 0.0
H2823 H 0.1036 0.53211 0.99395 0.0
H2824 H 0.06466 0.50658 0.92025 0.0
H2825 H 0.14579 0.53404 0.92828 0.0
C2826 C 0.14665 0.53806 0.89025 0.0
C2827 C 0.1333 0.53647 0.86936 0.0
C2828 C 0.07332 0.51195 0.93643 0.0
C2829 C 0.11045 0.52609 0.91331 0.0
C2830 C 0.05974 0.51104 0.95778 0.0
C2831 C 0.07009 0.51906 0.97876 0.0
C2832 C 0.09732 0.52108 0.9361 0.0
C2833 C 0.09485 0.52604 0.97806 0.0
C2834 C 0.13524 0.53293 0.9123 0.0
C2835 C 0.10836 0.53026 0.87131 0.0
N2836 N 0.10757 0.52726 0.95692 0.0
N2837 N 0.09781 0.52522 0.89288 0.0
H2838 H 0.25352 0.34534 0.5881 0.0
H2839 H 0.30186 0.34556 0.72207 0.0
H2840 H 0.29318 0.40568 0.61582 0.0
H2841 H 0.24023 0.30268 0.70207 0.0
H2842 H 0.30256 0.36483 0.68228 0.0
H2843 H 0.25195 0.32671 0.62819 0.0
C2844 C 0.26191 0.35474 0.60256 0.0
C2845 C 0.27342 0.3773 0.59831 0.0
C2846 C 0.28886 0.35121 0.68657 0.0
C2847 C 0.27207 0.3556 0.64467 0.0
C2848 C 0.28849 0.34009 0.70936 0.0
C2849 C 0.27093 0.32233 0.71576 0.0
C2850 C 0.27189 0.34434 0.66951 0.0
C2851 C 0.25409 0.31624 0.69823 0.0
C2852 C 0.26096 0.34405 0.62555 0.0
C2853 C 0.28396 0.3884 0.61803 0.0
N2854 N 0.25513 0.32699 0.67606 0.0
N2855 N 0.28321 0.37742 0.6401 0.0
H2856 H 0.48227 0.56836 0.20926 0.0
H2857 H 0.46852 0.55909 0.07074 0.0
H2858 H 0.41545 0.54735 0.17594 0.0
H2859 H 0.53075 0.59274 0.10222 0.0
H2860 H 0.44634 0.56088 0.10903 0.0
H2861 H 0.49796 0.58376 0.17076 0.0
C2862 C 0.47073 0.5674 0.19394 0.0
C2863 C 0.44782 0.55602 0.19559 0.0
C2864 C 0.46471 0.56822 0.10758 0.0
C2865 C 0.46562 0.57338 0.15166 0.0
C2866 C 0.47741 0.56708 0.08572 0.0
C2867 C 0.50165 0.57525 0.08354 0.0
C2868 C 0.47656 0.5771 0.1275 0.0
C2869 C 0.51216 0.58592 0.10332 0.0
C2870 C 0.47967 0.57621 0.17198 0.0
C2871 C 0.43347 0.55551 0.17532 0.0
N2872 N 0.49971 0.58608 0.12468 0.0
N2873 N 0.44278 0.56367 0.15411 0.0
H2874 H 0.2926 0.64812 0.91076 0.0
H2875 H 0.30951 0.77934 0.84981 0.0
H2876 H 0.30528 0.71397 0.95003 0.0
H2877 H 0.29102 0.71441 0.81165 0.0
H2878 H 0.31312 0.75474 0.88605 0.0
H2879 H 0.29576 0.67153 0.8738 0.0
C2880 C 0.29598 0.66752 0.91166 0.0
C2881 C 0.29858 0.67911 0.93359 0.0
C2882 C 0.30852 0.74585 0.86968 0.0
C2883 C 0.30241 0.70598 0.89122 0.0
C2884 C 0.30661 0.75985 0.84896 0.0
C2885 C 0.29966 0.74893 0.82777 0.0
C2886 C 0.30343 0.72082 0.86915 0.0
C2887 C 0.2962 0.72361 0.82766 0.0
C2888 C 0.29788 0.68086 0.8905 0.0
C2889 C 0.30299 0.70429 0.93357 0.0
N2890 N 0.29788 0.71044 0.84812 0.0
N2891 N 0.30475 0.7169 0.91268 0.0
H2892 H 0.1386 0.49262 0.71952 0.0
H2893 H 0.01672 0.54238 0.66791 0.0
H2894 H 0.07243 0.50125 0.76345 0.0
H2895 H 0.07186 0.50519 0.62402 0.0
H2896 H 0.03566 0.52491 0.70337 0.0
H2897 H 0.11354 0.49275 0.68425 0.0
C2898 C 0.11873 0.49385 0.72175 0.0
C2899 C 0.10755 0.49747 0.74428 0.0
C2900 C 0.04332 0.52021 0.68594 0.0
C2901 C 0.07894 0.49835 0.70418 0.0
C2902 C 0.03271 0.53042 0.6658 0.0
C2903 C 0.04295 0.52542 0.64315 0.0
C2904 C 0.06458 0.50536 0.68331 0.0
C2905 C 0.0634 0.50946 0.64121 0.0
C2906 C 0.10443 0.49397 0.70164 0.0
C2907 C 0.08177 0.49873 0.74631 0.0
N2908 N 0.07381 0.5003 0.66107 0.0
N2909 N 0.06831 0.49987 0.7264 0.0
H2910 H 0.27029 0.35249 0.47184 0.0
H2911 H 0.2725 0.36347 0.32761 0.0
H2912 H 0.28101 0.4195 0.43211 0.0
H2913 H 0.25974 0.2953 0.36461 0.0
H2914 H 0.27524 0.38378 0.3661 0.0
H2915 H 0.26641 0.33083 0.43374 0.0
C2916 C 0.27189 0.36272 0.45529 0.0
C2917 C 0.27598 0.3881 0.45566 0.0
C2918 C 0.27171 0.36438 0.36593 0.0
C2919 C 0.27145 0.36317 0.4115 0.0
C2920 C 0.27003 0.35271 0.34377 0.0
C2921 C 0.26567 0.32748 0.34247 0.0
C2922 C 0.26917 0.35095 0.38742 0.0
C2923 C 0.26293 0.31476 0.36443 0.0
C2924 C 0.26961 0.35029 0.43342 0.0
C2925 C 0.2778 0.40006 0.43323 0.0
N2926 N 0.26476 0.32651 0.38578 0.0
N2927 N 0.27555 0.38764 0.41244 0.0
H2928 H 0.36476 0.4137 0.51064 0.0
H2929 H 0.42878 0.54196 0.52595 0.0
H2930 H 0.32443 0.47217 0.54561 0.0
H2931 H 0.46771 0.47496 0.54225 0.0
H2932 H 0.3902 0.51881 0.52451 0.0
H2933 H 0.40278 0.4374 0.51327 0.0
C2934 C 0.36379 0.43167 0.51855 0.0
C2935 C 0.34101 0.44137 0.52691 0.0
C2936 C 0.40722 0.50921 0.52832 0.0
C2937 C 0.38467 0.46871 0.52999 0.0
C2938 C 0.42925 0.52243 0.5292 0.0
C2939 C 0.45159 0.51052 0.53456 0.0
C2940 C 0.40759 0.48367 0.53171 0.0
C2941 C 0.45095 0.48505 0.53842 0.0
C2942 C 0.38553 0.44517 0.52008 0.0
C2943 C 0.34123 0.46448 0.53773 0.0
N2944 N 0.42955 0.47251 0.53659 0.0
N2945 N 0.36248 0.47748 0.5386 0.0
H2946 H 0.87628 0.11634 0.45092 0.0
H2947 H 1.00136 0.12988 0.51677 0.0
H2948 H 0.88551 0.16326 0.51119 0.0
H2949 H 0.98712 0.07606 0.46363 0.0
H2950 H 0.96386 0.15217 0.50576 0.0
H2951 H 0.92076 0.11139 0.44676 0.0
C2952 C 0.88771 0.12569 0.46325 0.0
C2953 C 0.87723 0.13958 0.48192 0.0
C2954 C 0.96935 0.13588 0.49604 0.0
C2955 C 0.92817 0.13392 0.47731 0.0
C2956 C 0.99081 0.12328 0.50218 0.0
C2957 C 0.99681 0.10087 0.49143 0.0
C2958 C 0.9541 0.12587 0.47906 0.0
C2959 C 0.98269 0.09303 0.47266 0.0
C2960 C 0.91312 0.12302 0.46074 0.0
C2961 C 0.8929 0.15196 0.49685 0.0
N2962 N 0.96171 0.1053 0.46735 0.0
N2963 N 0.91767 0.14841 0.49455 0.0
H2964 H 0.68935 0.06744 0.24115 0.0
H2965 H 0.68805 0.20969 0.25405 0.0
H2966 H 0.63213 0.10656 0.28049 0.0
H2967 H 0.73452 0.17122 0.20268 0.0
H2968 H 0.66348 0.17313 0.25979 0.0
H2969 H 0.70225 0.10563 0.22225 0.0
C2970 C 0.67955 0.08425 0.24571 0.0
C2971 C 0.66054 0.08442 0.26307 0.0
C2972 C 0.67872 0.1728 0.24688 0.0
C2973 C 0.67476 0.12789 0.24153 0.0
C2974 C 0.69286 0.19356 0.24379 0.0
C2975 C 0.7136 0.19315 0.22828 0.0
C2976 C 0.68562 0.15146 0.23459 0.0
C2977 C 0.71874 0.17214 0.21491 0.0
C2978 C 0.68666 0.10595 0.23476 0.0
C2979 C 0.6475 0.10614 0.26772 0.0
N2980 N 0.70509 0.15191 0.21871 0.0
N2981 N 0.65526 0.12729 0.25741 0.0
H2982 H 0.70306 0.93531 0.06218 0.0
H2983 H 0.59087 0.99857 0.99292 0.0
H2984 H 0.70797 0.9599 0.98907 0.0
H2985 H 0.59361 0.00034 0.06952 0.0
H2986 H 0.6313 0.97829 0.99133 0.0
H2987 H 0.66073 0.95269 0.0653 0.0
C2988 C 0.69517 0.94396 0.0467 0.0
C2989 C 0.70924 0.94605 0.0253 0.0
C2990 C 0.62311 0.98304 0.00853 0.0
C2991 C 0.66075 0.96597 0.02874 0.0
C2992 C 0.59989 0.99464 0.00948 0.0
C2993 C 0.58863 0.00141 0.03139 0.0
C2994 C 0.63541 0.97765 0.02966 0.0
C2995 C 0.60151 0.99566 0.05219 0.0
C2996 C 0.67108 0.95409 0.04855 0.0
C2997 C 0.69801 0.95783 0.00596 0.0
N2998 N 0.62409 0.98408 0.05083 0.0
N2999 N 0.67463 0.96716 0.00812 0.0
H3000 H 0.39235 0.47722 0.20793 0.0
H3001 H 0.35767 0.34304 0.2388 0.0
H3002 H 0.43568 0.42934 0.25194 0.0
H3003 H 0.31427 0.39365 0.19746 0.0
H3004 H 0.39345 0.36862 0.23179 0.0
H3005 H 0.3719 0.44203 0.1921 0.0
C3006 C 0.39778 0.45907 0.21391 0.0
C3007 C 0.41496 0.45591 0.2317 0.0
C3008 C 0.37627 0.37379 0.22372 0.0
C3009 C 0.39139 0.41569 0.21422 0.0
C3010 C 0.35572 0.35936 0.22796 0.0
C3011 C 0.33262 0.367 0.2198 0.0
C3012 C 0.37353 0.39602 0.21141 0.0
C3013 C 0.33151 0.38745 0.20469 0.0
C3014 C 0.38621 0.439 0.20483 0.0
C3015 C 0.42199 0.43229 0.23858 0.0
N3016 N 0.35156 0.40163 0.20149 0.0
N3017 N 0.4096 0.41293 0.23028 0.0
H3018 H 0.22067 0.65341 0.99173 0.0
H3019 H 0.15439 0.55495 0.0771 0.0
H3020 H 0.26051 0.60354 0.0368 0.0
H3021 H 0.11627 0.60549 0.03115 0.0
H3022 H 0.19375 0.57125 0.062 0.0
H3023 H 0.18223 0.63395 0.00438 0.0
C3024 C 0.22122 0.63798 0.00395 0.0
C3025 C 0.24357 0.62947 0.01275 0.0
C3026 C 0.17674 0.57874 0.05526 0.0
C3027 C 0.1999 0.60779 0.02812 0.0
C3028 C 0.15434 0.56963 0.06404 0.0
C3029 C 0.13214 0.57888 0.05528 0.0
C3030 C 0.17677 0.59728 0.03775 0.0
C3031 C 0.133 0.59765 0.03813 0.0
C3032 C 0.19937 0.62697 0.0113 0.0
C3033 C 0.24354 0.60998 0.02909 0.0
N3034 N 0.15493 0.60621 0.02993 0.0
N3035 N 0.22195 0.59977 0.03635 0.0
H3036 H 0.73732 0.98713 0.32044 0.0
H3037 H 0.78685 0.87048 0.31037 0.0
H3038 H 0.66838 0.95101 0.31052 0.0
H3039 H 0.7121 0.84575 0.31947 0.0
H3040 H 0.77276 0.91184 0.31901 0.0
H3041 H 0.75657 0.94762 0.32905 0.0
C3042 C 0.72626 0.97088 0.32005 0.0
C3043 C 0.7014 0.97227 0.31404 0.0
C3044 C 0.75943 0.89742 0.31989 0.0
C3045 C 0.72333 0.92697 0.3234 0.0
C3046 C 0.76752 0.87371 0.3148 0.0
C3047 C 0.75048 0.85487 0.31361 0.0
C3048 C 0.73412 0.90212 0.32387 0.0
C3049 C 0.72575 0.85991 0.31967 0.0
C3050 C 0.73731 0.94824 0.32484 0.0
C3051 C 0.68778 0.95078 0.31437 0.0
N3052 N 0.71827 0.88316 0.32418 0.0
N3053 N 0.699 0.92904 0.31872 0.0
H3054 H 0.8219 0.06465 0.8021 0.0
H3055 H 0.76312 0.17938 0.7355 0.0
H3056 H 0.85084 0.09315 0.73513 0.0
H3057 H 0.76759 0.17548 0.81206 0.0
H3058 H 0.78363 0.13931 0.73273 0.0
H3059 H 0.79107 0.09789 0.80324 0.0
C3060 C 0.82161 0.0778 0.78756 0.0
C3061 C 0.83905 0.07646 0.76863 0.0
C3062 C 0.77959 0.14708 0.75011 0.0
C3063 C 0.8037 0.11378 0.76959 0.0
C3064 C 0.76774 0.16977 0.75175 0.0
C3065 C 0.764 0.18076 0.77405 0.0
C3066 C 0.78726 0.13529 0.77092 0.0
C3067 C 0.77044 0.16765 0.79454 0.0
C3068 C 0.80406 0.09663 0.78824 0.0
C3069 C 0.83792 0.09384 0.75021 0.0
N3070 N 0.78199 0.14557 0.79249 0.0
N3071 N 0.82046 0.11186 0.75113 0.0
loop_
_geom_bond_atom_site_label_1
_geom_bond_atom_site_label_2
_geom_bond_distance
_geom_bond_site_symmetry_2
_ccdc_geom_bond_type
Mn0 O5 2.095 . S
Mn0 O15 2.162 . S
Mn0 O16 2.297 . S
Mn0 O24 2.385 . S
Mn0 O25 2.209 . S
Mn0 O26 2.094 1_455 S
Mn1 O6 2.121 1_655 S
Mn1 N8 2.257 . S
Mn1 N17 2.282 . S
Mn1 O25 2.215 1_655 S
Mn1 O27 2.117 . S
C2 O24 1.234 . S
C2 O25 1.283 . S
C3 O15 1.281 . S
C3 O16 1.236 . S
C4 O26 1.240 . S
C4 O27 1.264 . S
O5 Mn0 2.095 . S
O5 C14 1.250 . S
O6 Mn1 2.121 1_455 S
O6 C14 1.258 . S
C7 N8 1.326 1_455 S
C7 C11 1.460 . S
C7 H13 0.929 . S
N8 Mn1 2.257 . S
N8 C7 1.326 1_655 S
N8 C12 1.362 . S
C9 C10 1.258 . S
C9 C12 1.431 . S
C9 C29 1.449 . S
C10 C9 1.258 . S
C10 C11 1.477 1_655 S
C10 H30 0.931 . S
C11 C7 1.460 . S
C11 C10 1.477 1_455 S
C11 H31 0.930 . S
C12 N8 1.362 . S
C12 C9 1.431 . S
C12 C22 1.476 . S
H13 C7 0.929 . S
C14 O5 1.250 . S
C14 O6 1.258 . S
O15 Mn0 2.162 . S
O15 C3 1.281 . S
O16 Mn0 2.297 . S
O16 C3 1.236 . S
N17 Mn1 2.282 . S
N17 C18 1.328 . S
N17 C22 1.318 . S
C18 N17 1.328 . S
C18 C19 1.457 . S
C18 H23 0.929 . S
C19 C18 1.457 . S
C19 C20 1.291 . S
C19 H32 0.931 . S
C20 C19 1.291 . S
C20 C21 1.373 . S
C20 H33 0.929 . S
C21 C20 1.373 . S
C21 C22 1.396 . S
C21 C28 1.403 . S
C22 C12 1.476 . S
C22 N17 1.318 . S
C22 C21 1.396 . S
H23 C18 0.929 . S
O24 Mn0 2.385 . S
O24 C2 1.234 . S
O25 Mn0 2.209 . S
O25 Mn1 2.215 1_455 S
O25 C2 1.283 . S
O26 Mn0 2.094 1_655 S
O26 C4 1.240 . S
O27 Mn1 2.117 . S
O27 C4 1.264 . S
C28 C21 1.403 . S
C28 C29 1.399 . S
C28 H34 0.929 . S
C29 C9 1.449 . S
C29 C28 1.399 . S
C29 H35 0.930 . S
H30 C10 0.931 . S
H31 C11 0.930 . S
H32 C19 0.931 . S
H33 C20 0.929 . S
H34 C28 0.929 . S
H35 C29 0.930 . S
Mn36 O41 2.095 . S
Mn36 O51 2.162 . S
Mn36 O52 2.297 . S
Mn36 O60 2.385 . S
Mn36 O61 2.209 . S
Mn36 O62 2.094 . S
Mn37 O42 2.121 . S
Mn37 N44 2.257 . S
Mn37 N53 2.282 1_455 S
Mn37 O61 2.215 . S
Mn37 O63 2.117 1_455 S
C38 O60 1.234 . S
C38 O61 1.283 . S
C39 O51 1.281 . S
C39 O52 1.236 . S
C40 O62 1.278 . S
C40 O63 1.259 1_455 S
O41 Mn36 2.095 . S
O41 C50 1.250 . S
O42 Mn37 2.121 . S
O42 C50 1.258 . S
C43 N44 1.326 . S
C43 C47 1.460 . S
C43 H49 0.929 . S
N44 Mn37 2.257 . S
N44 C43 1.326 . S
N44 C48 1.362 . S
C45 C46 1.258 . S
C45 C48 1.431 . S
C45 C65 1.449 1_455 S
C46 C45 1.258 . S
C46 C47 1.477 . S
C46 H66 0.931 . S
C47 C43 1.460 . S
C47 C46 1.477 . S
C47 H67 0.930 . S
C48 N44 1.362 . S
C48 C45 1.431 . S
C48 C58 1.476 1_455 S
H49 C43 0.929 . S
C50 O41 1.250 . S
C50 O42 1.258 . S
O51 Mn36 2.162 . S
O51 C39 1.281 . S
O52 Mn36 2.297 . S
O52 C39 1.236 . S
N53 Mn37 2.282 1_655 S
N53 C54 1.328 . S
N53 C58 1.318 . S
C54 N53 1.328 . S
C54 C55 1.457 . S
C54 H59 0.929 . S
C55 C54 1.457 . S
C55 C56 1.291 . S
C55 H68 0.931 . S
C56 C55 1.291 . S
C56 C57 1.373 . S
C56 H69 0.929 . S
C57 C56 1.373 . S
C57 C58 1.396 . S
C57 C64 1.403 . S
C58 C48 1.476 1_655 S
C58 N53 1.318 . S
C58 C57 1.396 . S
H59 C54 0.929 . S
O60 Mn36 2.385 . S
O60 C38 1.234 . S
O61 Mn36 2.209 . S
O61 Mn37 2.215 . S
O61 C38 1.283 . S
O62 Mn36 2.094 . S
O62 C40 1.278 . S
O63 Mn37 2.117 1_655 S
O63 C40 1.259 1_655 S
C64 C57 1.403 . S
C64 C65 1.399 . S
C64 H70 0.929 . S
C65 C45 1.449 1_655 S
C65 C64 1.399 . S
C65 H71 0.930 . S
H66 C46 0.931 . S
H67 C47 0.930 . S
H68 C55 0.931 . S
H69 C56 0.929 . S
H70 C64 0.929 . S
H71 C65 0.930 . S
Mn72 O77 2.095 . S
Mn72 O87 2.162 . S
Mn72 O88 2.297 . S
Mn72 O96 2.385 . S
Mn72 O97 2.209 . S
Mn72 O98 2.094 . S
Mn73 O78 2.121 . S
Mn73 N80 2.257 . S
Mn73 N89 2.282 . S
Mn73 O97 2.215 . S
Mn73 O99 2.117 . S
C74 O96 1.234 . S
C74 O97 1.283 . S
C75 O87 1.281 . S
C75 O88 1.236 . S
C76 O98 1.240 . S
C76 O99 1.264 . S
O77 Mn72 2.095 . S
O77 C86 1.250 . S
O78 Mn73 2.121 . S
O78 C86 1.258 . S
C79 N80 1.326 . S
C79 C83 1.460 . S
C79 H85 0.929 . S
N80 Mn73 2.257 . S
N80 C79 1.326 . S
N80 C84 1.362 . S
C81 C82 1.258 . S
C81 C84 1.431 . S
C81 C101 1.449 . S
C82 C81 1.258 . S
C82 C83 1.477 . S
C82 H102 0.931 . S
C83 C79 1.460 . S
C83 C82 1.477 . S
C83 H103 0.930 . S
C84 N80 1.362 . S
C84 C81 1.431 . S
C84 C94 1.476 . S
H85 C79 0.929 . S
C86 O77 1.250 . S
C86 O78 1.258 . S
O87 Mn72 2.162 . S
O87 C75 1.281 . S
O88 Mn72 2.297 . S
O88 C75 1.236 . S
N89 Mn73 2.282 . S
N89 C90 1.328 . S
N89 C94 1.318 . S
C90 N89 1.328 . S
C90 C91 1.457 . S
C90 H95 0.929 . S
C91 C90 1.457 . S
C91 C92 1.291 . S
C91 H104 0.931 . S
C92 C91 1.291 . S
C92 C93 1.373 . S
C92 H105 0.929 . S
C93 C92 1.373 . S
C93 C94 1.396 . S
C93 C100 1.403 . S
C94 C84 1.476 . S
C94 N89 1.318 . S
C94 C93 1.396 . S
H95 C90 0.929 . S
O96 Mn72 2.385 . S
O96 C74 1.234 . S
O97 Mn72 2.209 . S
O97 Mn73 2.215 . S
O97 C74 1.283 . S
O98 Mn72 2.094 . S
O98 C76 1.240 . S
O99 Mn73 2.117 . S
O99 C76 1.264 . S
C100 C93 1.403 . S
C100 C101 1.399 . S
C100 H106 0.929 . S
C101 C81 1.449 . S
C101 C100 1.399 . S
C101 H107 0.930 . S
H102 C82 0.931 . S
H103 C83 0.930 . S
H104 C91 0.931 . S
H105 C92 0.929 . S
H106 C100 0.929 . S
H107 C101 0.930 . S
Mn108 O113 2.095 . S
Mn108 O123 2.162 . S
Mn108 O124 2.297 . S
Mn108 O132 2.385 . S
Mn108 O133 2.209 . S
Mn108 O134 2.094 . S
Mn109 O114 2.121 . S
Mn109 N116 2.257 . S
Mn109 N125 2.282 . S
Mn109 O133 2.215 . S
Mn109 O135 2.117 . S
C110 O132 1.234 . S
C110 O133 1.283 . S
C111 O123 1.281 . S
C111 O124 1.236 . S
C112 O134 1.240 . S
C112 O135 1.264 . S
O113 Mn108 2.095 . S
O113 C122 1.250 . S
O114 Mn109 2.121 . S
O114 C122 1.258 . S
C115 N116 1.326 . S
C115 C119 1.460 1_556 S
C115 H121 0.929 . S
N116 Mn109 2.257 . S
N116 C115 1.326 . S
N116 C120 1.362 . S
C117 C118 1.258 . S
C117 C120 1.431 1_554 S
C117 C137 1.449 . S
C118 C117 1.258 . S
C118 C119 1.477 . S
C118 H138 0.931 . S
C119 C115 1.460 1_554 S
C119 C118 1.477 . S
C119 H139 0.930 . S
C120 N116 1.362 . S
C120 C117 1.431 1_556 S
C120 C130 1.476 . S
H121 C115 0.929 . S
C122 O113 1.250 . S
C122 O114 1.258 . S
O123 Mn108 2.162 . S
O123 C111 1.281 . S
O124 Mn108 2.297 . S
O124 C111 1.236 . S
N125 Mn109 2.282 . S
N125 C126 1.328 . S
N125 C130 1.318 . S
C126 N125 1.328 . S
C126 C127 1.457 . S
C126 H131 0.929 . S
C127 C126 1.457 . S
C127 C128 1.291 . S
C127 H140 0.931 . S
C128 C127 1.291 . S
C128 C129 1.373 . S
C128 H141 0.929 . S
C129 C128 1.373 . S
C129 C130 1.396 . S
C129 C136 1.403 . S
C130 C120 1.476 . S
C130 N125 1.318 . S
C130 C129 1.396 . S
H131 C126 0.929 . S
O132 Mn108 2.385 . S
O132 C110 1.234 . S
O133 Mn108 2.209 . S
O133 Mn109 2.215 . S
O133 C110 1.283 . S
O134 Mn108 2.094 . S
O134 C112 1.240 . S
O135 Mn109 2.117 . S
O135 C112 1.264 . S
C136 C129 1.403 . S
C136 C137 1.399 1_556 S
C136 H142 0.927 1_556 S
C137 C117 1.449 . S
C137 C136 1.399 1_554 S
C137 H143 0.930 . S
H138 C118 0.931 . S
H139 C119 0.930 . S
H140 C127 0.931 . S
H141 C128 0.929 . S
H142 C136 0.927 1_554 S
H143 C137 0.930 . S
Mn144 O149 2.095 1_545 S
Mn144 O159 2.162 . S
Mn144 O160 2.297 . S
Mn144 O168 2.385 . S
Mn144 O169 2.209 . S
Mn144 O170 2.094 . S
Mn145 O150 2.121 1_545 S
Mn145 N152 2.257 . S
Mn145 N161 2.282 . S
Mn145 O169 2.215 . S
Mn145 O171 2.117 . S
C146 O168 1.234 . S
C146 O169 1.283 . S
C147 O159 1.281 . S
C147 O160 1.236 . S
C148 O170 1.240 . S
C148 O171 1.264 . S
O149 Mn144 2.095 1_565 S
O149 C158 1.250 . S
O150 Mn145 2.121 1_565 S
O150 C158 1.258 . S
C151 N152 1.326 . S
C151 C155 1.460 . S
C151 H157 0.929 1_545 S
N152 Mn145 2.257 . S
N152 C151 1.326 . S
N152 C156 1.362 . S
C153 C154 1.258 . S
C153 C156 1.431 . S
C153 C173 1.449 . S
C154 C153 1.258 . S
C154 C155 1.477 . S
C154 H174 0.931 . S
C155 C151 1.460 . S
C155 C154 1.477 . S
C155 H175 0.930 . S
C156 N152 1.362 . S
C156 C153 1.431 . S
C156 C166 1.476 . S
H157 C151 0.929 1_565 S
C158 O149 1.250 . S
C158 O150 1.258 . S
O159 Mn144 2.162 . S
O159 C147 1.281 . S
O160 Mn144 2.297 . S
O160 C147 1.236 . S
N161 Mn145 2.282 . S
N161 C162 1.328 . S
N161 C166 1.318 . S
C162 N161 1.328 . S
C162 C163 1.457 . S
C162 H167 0.929 . S
C163 C162 1.457 . S
C163 C164 1.291 . S
C163 H176 0.931 . S
C164 C163 1.291 . S
C164 C165 1.373 . S
C164 H177 0.929 . S
C165 C164 1.373 . S
C165 C166 1.396 . S
C165 C172 1.403 . S
C166 C156 1.476 . S
C166 N161 1.318 . S
C166 C165 1.396 . S
H167 C162 0.929 . S
O168 Mn144 2.385 . S
O168 C146 1.234 . S
O169 Mn144 2.209 . S
O169 Mn145 2.215 . S
O169 C146 1.283 . S
O170 Mn144 2.094 . S
O170 C148 1.240 . S
O171 Mn145 2.117 . S
O171 C148 1.264 . S
C172 C165 1.403 . S
C172 C173 1.399 . S
C172 H178 0.929 . S
C173 C153 1.449 . S
C173 C172 1.399 . S
C173 H179 0.930 . S
H174 C154 0.931 . S
H175 C155 0.930 . S
H176 C163 0.931 . S
H177 C164 0.929 . S
H178 C172 0.929 . S
H179 C173 0.930 . S
Mn180 O185 2.095 . S
Mn180 O195 2.162 . S
Mn180 O196 2.297 . S
Mn180 O204 2.385 . S
Mn180 O205 2.209 . S
Mn180 O206 2.094 . S
Mn181 O186 2.121 . S
Mn181 N188 2.257 . S
Mn181 N197 2.282 . S
Mn181 O205 2.215 . S
Mn181 O207 2.117 . S
C182 O204 1.234 . S
C182 O205 1.283 . S
C183 O195 1.281 . S
C183 O196 1.236 . S
C184 O206 1.240 . S
C184 O207 1.264 . S
O185 Mn180 2.095 . S
O185 C194 1.250 . S
O186 Mn181 2.121 . S
O186 C194 1.258 . S
C187 N188 1.326 1_545 S
C187 C191 1.460 . S
C187 H193 0.929 1_545 S
N188 Mn181 2.257 . S
N188 C187 1.326 1_565 S
N188 C192 1.362 . S
C189 C190 1.258 . S
C189 C192 1.431 1_545 S
C189 C209 1.449 . S
C190 C189 1.258 . S
C190 C191 1.477 . S
C190 H210 0.931 . S
C191 C187 1.460 . S
C191 C190 1.477 . S
C191 H211 0.930 . S
C192 N188 1.362 . S
C192 C189 1.431 1_565 S
C192 C202 1.476 . S
H193 C187 0.929 1_565 S
C194 O185 1.250 . S
C194 O186 1.258 . S
O195 Mn180 2.162 . S
O195 C183 1.281 . S
O196 Mn180 2.297 . S
O196 C183 1.236 . S
N197 Mn181 2.282 . S
N197 C198 1.328 . S
N197 C202 1.318 . S
C198 N197 1.328 . S
C198 C199 1.457 . S
C198 H203 0.929 . S
C199 C198 1.457 . S
C199 C200 1.291 . S
C199 H212 0.931 . S
C200 C199 1.291 . S
C200 C201 1.373 . S
C200 H213 0.929 . S
C201 C200 1.373 . S
C201 C202 1.396 . S
C201 C208 1.403 1_565 S
C202 C192 1.476 . S
C202 N197 1.318 . S
C202 C201 1.396 . S
H203 C198 0.929 . S
O204 Mn180 2.385 . S
O204 C182 1.234 . S
O205 Mn180 2.209 . S
O205 Mn181 2.215 . S
O205 C182 1.283 . S
O206 Mn180 2.094 . S
O206 C184 1.240 . S
O207 Mn181 2.117 . S
O207 C184 1.264 . S
C208 C201 1.403 1_545 S
C208 C209 1.399 . S
C208 H214 0.929 . S
C209 C189 1.449 . S
C209 C208 1.399 . S
C209 H215 0.930 . S
H210 C190 0.931 . S
H211 C191 0.930 . S
H212 C199 0.931 . S
H213 C200 0.929 . S
H214 C208 0.929 . S
H215 C209 0.930 . S
Mn216 O221 2.095 . S
Mn216 O231 2.162 . S
Mn216 O232 2.297 . S
Mn216 O240 2.385 . S
Mn216 O241 2.209 . S
Mn216 O242 2.094 . S
Mn217 O222 2.121 . S
Mn217 N224 2.257 . S
Mn217 N233 2.282 . S
Mn217 O241 2.215 . S
Mn217 O243 2.117 . S
C218 O240 1.234 . S
C218 O241 1.283 . S
C219 O231 1.281 . S
C219 O232 1.236 . S
C220 O242 1.240 . S
C220 O243 1.264 . S
O221 Mn216 2.095 . S
O221 C230 1.250 . S
O222 Mn217 2.121 . S
O222 C230 1.258 . S
C223 N224 1.326 . S
C223 C227 1.460 . S
C223 H229 0.929 . S
N224 Mn217 2.257 . S
N224 C223 1.326 . S
N224 C228 1.362 . S
C225 C226 1.258 . S
C225 C228 1.431 . S
C225 C245 1.449 1_545 S
C226 C225 1.258 . S
C226 C227 1.477 . S
C226 H246 0.931 . S
C227 C223 1.460 . S
C227 C226 1.477 . S
C227 H247 0.930 . S
C228 N224 1.362 . S
C228 C225 1.431 . S
C228 C238 1.476 . S
H229 C223 0.929 . S
C230 O221 1.250 . S
C230 O222 1.258 . S
O231 Mn216 2.162 . S
O231 C219 1.281 . S
O232 Mn216 2.297 . S
O232 C219 1.236 . S
N233 Mn217 2.282 . S
N233 C234 1.328 . S
N233 C238 1.318 . S
C234 N233 1.328 . S
C234 C235 1.457 1_545 S
C234 H239 0.929 . S
C235 C234 1.457 1_565 S
C235 C236 1.291 . S
C235 H248 0.931 . S
C236 C235 1.291 . S
C236 C237 1.373 . S
C236 H249 0.929 . S
C237 C236 1.373 . S
C237 C238 1.396 1_565 S
C237 C244 1.403 . S
C238 C228 1.476 . S
C238 N233 1.318 . S
C238 C237 1.396 1_545 S
H239 C234 0.929 . S
O240 Mn216 2.385 . S
O240 C218 1.234 . S
O241 Mn216 2.209 . S
O241 Mn217 2.215 . S
O241 C218 1.283 . S
O242 Mn216 2.094 . S
O242 C220 1.240 . S
O243 Mn217 2.117 . S
O243 C220 1.264 . S
C244 C237 1.403 . S
C244 C245 1.399 . S
C244 H250 0.929 . S
C245 C225 1.449 1_565 S
C245 C244 1.399 . S
C245 H251 0.930 . S
H246 C226 0.931 . S
H247 C227 0.930 . S
H248 C235 0.931 . S
H249 C236 0.929 . S
H250 C244 0.929 . S
H251 C245 0.930 . S
Mn252 O257 2.095 . S
Mn252 O267 2.162 . S
Mn252 O268 2.297 . S
Mn252 O276 2.385 . S
Mn252 O277 2.209 . S
Mn252 O278 2.098 1_554 S
Mn253 O258 2.121 1_556 S
Mn253 N260 2.257 . S
Mn253 N269 2.282 . S
Mn253 O277 2.215 1_556 S
Mn253 O279 2.117 . S
C254 O276 1.234 . S
C254 O277 1.283 . S
C255 O267 1.281 . S
C255 O268 1.236 . S
C256 O278 1.235 . S
C256 O279 1.264 . S
O257 Mn252 2.095 . S
O257 C266 1.250 . S
O258 Mn253 2.121 1_554 S
O258 C266 1.258 . S
C259 N260 1.326 1_554 S
C259 C263 1.460 . S
C259 H265 0.929 . S
N260 Mn253 2.257 . S
N260 C259 1.326 1_556 S
N260 C264 1.362 . S
C261 C262 1.258 . S
C261 C264 1.431 . S
C261 C281 1.449 . S
C262 C261 1.258 . S
C262 C263 1.477 1_556 S
C262 H282 0.931 . S
C263 C259 1.460 . S
C263 C262 1.477 1_554 S
C263 H283 0.930 . S
C264 N260 1.362 . S
C264 C261 1.431 . S
C264 C274 1.476 . S
H265 C259 0.929 . S
C266 O257 1.250 . S
C266 O258 1.258 . S
O267 Mn252 2.162 . S
O267 C255 1.281 . S
O268 Mn252 2.297 . S
O268 C255 1.236 . S
N269 Mn253 2.282 . S
N269 C270 1.328 . S
N269 C274 1.318 . S
C270 N269 1.328 . S
C270 C271 1.457 . S
C270 H275 0.929 . S
C271 C270 1.457 . S
C271 C272 1.291 . S
C271 H284 0.931 . S
C272 C271 1.291 . S
C272 C273 1.373 . S
C272 H285 0.929 . S
C273 C272 1.373 . S
C273 C274 1.396 . S
C273 C280 1.403 . S
C274 C264 1.476 . S
C274 N269 1.318 . S
C274 C273 1.396 . S
H275 C270 0.929 . S
O276 Mn252 2.385 . S
O276 C254 1.234 . S
O277 Mn252 2.209 . S
O277 Mn253 2.215 1_554 S
O277 C254 1.283 . S
O278 Mn252 2.098 1_556 S
O278 C256 1.235 . S
O279 Mn253 2.117 . S
O279 C256 1.264 . S
C280 C273 1.403 . S
C280 C281 1.399 . S
C280 H286 0.929 . S
C281 C261 1.449 . S
C281 C280 1.399 . S
C281 H287 0.930 . S
H282 C262 0.931 . S
H283 C263 0.930 . S
H284 C271 0.931 . S
H285 C272 0.929 . S
H286 C280 0.929 . S
H287 C281 0.930 . S
Mn288 O293 2.095 . S
Mn288 O303 2.162 . S
Mn288 O304 2.297 . S
Mn288 O312 2.385 . S
Mn288 O313 2.209 . S
Mn288 O314 2.094 . S
Mn289 O294 2.121 . S
Mn289 N296 2.257 . S
Mn289 N305 2.282 1_554 S
Mn289 O313 2.215 . S
Mn289 O315 2.117 1_554 S
C290 O312 1.234 . S
C290 O313 1.283 . S
C291 O303 1.281 . S
C291 O304 1.236 . S
C292 O314 1.240 . S
C292 O315 1.264 1_554 S
O293 Mn288 2.095 . S
O293 C302 1.250 . S
O294 Mn289 2.121 . S
O294 C302 1.258 . S
C295 N296 1.326 . S
C295 C299 1.460 . S
C295 H301 0.929 . S
N296 Mn289 2.257 . S
N296 C295 1.326 . S
N296 C300 1.362 . S
C297 C298 1.258 . S
C297 C300 1.431 . S
C297 C317 1.449 1_554 S
C298 C297 1.258 . S
C298 C299 1.477 . S
C298 H318 0.931 . S
C299 C295 1.460 . S
C299 C298 1.477 . S
C299 H319 0.930 . S
C300 N296 1.362 . S
C300 C297 1.431 . S
C300 C310 1.476 1_554 S
H301 C295 0.929 . S
C302 O293 1.250 . S
C302 O294 1.258 . S
O303 Mn288 2.162 . S
O303 C291 1.281 . S
O304 Mn288 2.297 . S
O304 C291 1.236 . S
N305 Mn289 2.282 1_556 S
N305 C306 1.328 . S
N305 C310 1.318 . S
C306 N305 1.328 . S
C306 C307 1.457 . S
C306 H311 0.929 . S
C307 C306 1.457 . S
C307 C308 1.291 . S
C307 H320 0.931 . S
C308 C307 1.291 . S
C308 C309 1.373 . S
C308 H321 0.929 . S
C309 C308 1.373 . S
C309 C310 1.396 . S
C309 C316 1.403 . S
C310 C300 1.476 1_556 S
C310 N305 1.318 . S
C310 C309 1.396 . S
H311 C306 0.929 . S
O312 Mn288 2.385 . S
O312 C290 1.234 . S
O313 Mn288 2.209 . S
O313 Mn289 2.215 . S
O313 C290 1.283 . S
O314 Mn288 2.094 . S
O314 C292 1.240 . S
O315 Mn289 2.117 1_556 S
O315 C292 1.264 1_556 S
C316 C309 1.403 . S
C316 C317 1.399 . S
C316 H322 0.929 . S
C317 C297 1.449 1_556 S
C317 C316 1.399 . S
C317 H323 0.930 . S
H318 C298 0.931 . S
H319 C299 0.930 . S
H320 C307 0.931 . S
H321 C308 0.929 . S
H322 C316 0.929 . S
H323 C317 0.930 . S
Mn324 O329 2.095 . S
Mn324 O339 2.162 . S
Mn324 O340 2.297 . S
Mn324 O348 2.385 . S
Mn324 O349 2.209 . S
Mn324 O350 2.094 . S
Mn325 O330 2.121 . S
Mn325 N332 2.257 . S
Mn325 N341 2.282 . S
Mn325 O349 2.215 . S
Mn325 O351 2.117 . S
C326 O348 1.234 . S
C326 O349 1.283 . S
C327 O339 1.281 . S
C327 O340 1.236 . S
C328 O350 1.240 . S
C328 O351 1.264 . S
O329 Mn324 2.095 . S
O329 C338 1.250 . S
O330 Mn325 2.121 . S
O330 C338 1.258 . S
C331 N332 1.326 . S
C331 C335 1.460 . S
C331 H337 0.929 . S
N332 Mn325 2.257 . S
N332 C331 1.326 . S
N332 C336 1.362 . S
C333 C334 1.258 . S
C333 C336 1.431 . S
C333 C353 1.449 . S
C334 C333 1.258 . S
C334 C335 1.477 . S
C334 H354 0.931 . S
C335 C331 1.460 . S
C335 C334 1.477 . S
C335 H355 0.930 . S
C336 N332 1.362 . S
C336 C333 1.431 . S
C336 C346 1.476 . S
H337 C331 0.929 . S
C338 O329 1.250 . S
C338 O330 1.258 . S
O339 Mn324 2.162 . S
O339 C327 1.281 . S
O340 Mn324 2.297 . S
O340 C327 1.236 . S
N341 Mn325 2.282 . S
N341 C342 1.328 . S
N341 C346 1.318 . S
C342 N341 1.328 . S
C342 C343 1.457 . S
C342 H347 0.929 . S
C343 C342 1.457 . S
C343 C344 1.291 . S
C343 H356 0.931 . S
C344 C343 1.291 . S
C344 C345 1.373 . S
C344 H357 0.929 . S
C345 C344 1.373 . S
C345 C346 1.396 . S
C345 C352 1.403 . S
C346 C336 1.476 . S
C346 N341 1.318 . S
C346 C345 1.396 . S
H347 C342 0.929 . S
O348 Mn324 2.385 . S
O348 C326 1.234 . S
O349 Mn324 2.209 . S
O349 Mn325 2.215 . S
O349 C326 1.283 . S
O350 Mn324 2.094 . S
O350 C328 1.240 . S
O351 Mn325 2.117 . S
O351 C328 1.264 . S
C352 C345 1.403 . S
C352 C353 1.399 . S
C352 H358 0.929 . S
C353 C333 1.449 . S
C353 C352 1.399 . S
C353 H359 0.930 . S
H354 C334 0.931 . S
H355 C335 0.930 . S
H356 C343 0.931 . S
H357 C344 0.929 . S
H358 C352 0.929 . S
H359 C353 0.930 . S
Mn360 O365 2.095 . S
Mn360 O375 2.162 . S
Mn360 O376 2.297 . S
Mn360 O384 2.385 . S
Mn360 O385 2.209 . S
Mn360 O386 2.094 . S
Mn361 O366 2.121 . S
Mn361 N368 2.257 . S
Mn361 N377 2.282 . S
Mn361 O385 2.215 . S
Mn361 O387 2.117 . S
C362 O384 1.234 . S
C362 O385 1.283 . S
C363 O375 1.281 . S
C363 O376 1.236 . S
C364 O386 1.240 . S
C364 O387 1.264 . S
O365 Mn360 2.095 . S
O365 C374 1.250 . S
O366 Mn361 2.121 . S
O366 C374 1.258 . S
C367 N368 1.326 . S
C367 C371 1.460 . S
C367 H373 0.929 . S
N368 Mn361 2.257 . S
N368 C367 1.326 . S
N368 C372 1.362 . S
C369 C370 1.258 . S
C369 C372 1.431 . S
C369 C389 1.449 . S
C370 C369 1.258 . S
C370 C371 1.477 . S
C370 H390 0.931 . S
C371 C367 1.460 . S
C371 C370 1.477 . S
C371 H391 0.930 . S
C372 N368 1.362 . S
C372 C369 1.431 . S
C372 C382 1.476 . S
H373 C367 0.929 . S
C374 O365 1.250 . S
C374 O366 1.258 . S
O375 Mn360 2.162 . S
O375 C363 1.281 . S
O376 Mn360 2.297 . S
O376 C363 1.236 . S
N377 Mn361 2.282 . S
N377 C378 1.328 . S
N377 C382 1.318 . S
C378 N377 1.328 . S
C378 C379 1.457 . S
C378 H383 0.929 . S
C379 C378 1.457 . S
C379 C380 1.291 . S
C379 H392 0.931 . S
C380 C379 1.291 . S
C380 C381 1.373 . S
C380 H393 0.929 . S
C381 C380 1.373 . S
C381 C382 1.396 . S
C381 C388 1.403 . S
C382 C372 1.476 . S
C382 N377 1.318 . S
C382 C381 1.396 . S
H383 C378 0.929 . S
O384 Mn360 2.385 . S
O384 C362 1.234 . S
O385 Mn360 2.209 . S
O385 Mn361 2.215 . S
O385 C362 1.283 . S
O386 Mn360 2.094 . S
O386 C364 1.240 . S
O387 Mn361 2.117 . S
O387 C364 1.264 . S
C388 C381 1.403 . S
C388 C389 1.399 . S
C388 H394 0.929 . S
C389 C369 1.449 . S
C389 C388 1.399 . S
C389 H395 0.930 . S
H390 C370 0.931 . S
H391 C371 0.930 . S
H392 C379 0.931 . S
H393 C380 0.929 . S
H394 C388 0.929 . S
H395 C389 0.930 . S
Mn396 O401 2.095 . S
Mn396 O411 2.162 . S
Mn396 O412 2.297 . S
Mn396 O420 2.385 . S
Mn396 O421 2.209 . S
Mn396 O422 2.094 . S
Mn397 O402 2.121 . S
Mn397 N404 2.257 . S
Mn397 N413 2.282 . S
Mn397 O421 2.215 . S
Mn397 O423 2.117 . S
C398 O420 1.234 . S
C398 O421 1.283 . S
C399 O411 1.281 . S
C399 O412 1.236 . S
C400 O422 1.240 . S
C400 O423 1.264 . S
O401 Mn396 2.095 . S
O401 C410 1.250 . S
O402 Mn397 2.121 . S
O402 C410 1.258 . S
C403 N404 1.326 . S
C403 C407 1.460 . S
C403 H409 0.929 . S
N404 Mn397 2.257 . S
N404 C403 1.326 . S
N404 C408 1.362 . S
C405 C406 1.258 . S
C405 C408 1.431 . S
C405 C425 1.449 . S
C406 C405 1.258 . S
C406 C407 1.477 . S
C406 H426 0.931 . S
C407 C403 1.460 . S
C407 C406 1.477 . S
C407 H427 0.930 . S
C408 N404 1.362 . S
C408 C405 1.431 . S
C408 C418 1.476 . S
H409 C403 0.929 . S
C410 O401 1.250 . S
C410 O402 1.258 . S
O411 Mn396 2.162 . S
O411 C399 1.281 . S
O412 Mn396 2.297 . S
O412 C399 1.236 . S
N413 Mn397 2.282 . S
N413 C414 1.328 . S
N413 C418 1.318 . S
C414 N413 1.328 . S
C414 C415 1.457 . S
C414 H419 0.929 . S
C415 C414 1.457 . S
C415 C416 1.291 . S
C415 H428 0.931 . S
C416 C415 1.291 . S
C416 C417 1.373 . S
C416 H429 0.929 . S
C417 C416 1.373 . S
C417 C418 1.396 . S
C417 C424 1.403 . S
C418 C408 1.476 . S
C418 N413 1.318 . S
C418 C417 1.396 . S
H419 C414 0.929 . S
O420 Mn396 2.385 . S
O420 C398 1.234 . S
O421 Mn396 2.209 . S
O421 Mn397 2.215 . S
O421 C398 1.283 . S
O422 Mn396 2.094 . S
O422 C400 1.240 . S
O423 Mn397 2.117 . S
O423 C400 1.264 . S
C424 C417 1.403 . S
C424 C425 1.399 . S
C424 H430 0.929 . S
C425 C405 1.449 . S
C425 C424 1.399 . S
C425 H431 0.930 . S
H426 C406 0.931 . S
H427 C407 0.930 . S
H428 C415 0.931 . S
H429 C416 0.929 . S
H430 C424 0.929 . S
H431 C425 0.930 . S
Mn432 O437 2.095 . S
Mn432 O447 2.162 . S
Mn432 O448 2.297 . S
Mn432 O456 2.385 . S
Mn432 O457 2.209 . S
Mn432 O458 2.094 1_455 S
Mn433 O438 2.121 1_655 S
Mn433 N440 2.257 . S
Mn433 N449 2.282 . S
Mn433 O457 2.215 1_655 S
Mn433 O459 2.117 . S
C434 O456 1.234 . S
C434 O457 1.283 . S
C435 O447 1.281 . S
C435 O448 1.236 . S
C436 O458 1.240 . S
C436 O459 1.264 . S
O437 Mn432 2.095 . S
O437 C446 1.250 . S
O438 Mn433 2.121 1_455 S
O438 C446 1.258 . S
C439 N440 1.348 . S
C439 C443 1.459 1_556 S
C439 H445 0.911 1_655 S
N440 Mn433 2.257 . S
N440 C439 1.348 . S
N440 C444 1.362 . S
C441 C442 1.258 . S
C441 C444 1.431 1_554 S
C441 C461 1.449 . S
C442 C441 1.258 . S
C442 C443 1.495 . S
C442 H462 0.931 . S
C443 C439 1.459 1_554 S
C443 C442 1.495 . S
C443 H463 0.912 1_655 S
C444 N440 1.362 . S
C444 C441 1.431 1_556 S
C444 C454 1.476 . S
H445 C439 0.911 1_455 S
C446 O437 1.250 . S
C446 O438 1.258 . S
O447 Mn432 2.162 . S
O447 C435 1.281 . S
O448 Mn432 2.297 . S
O448 C435 1.236 . S
N449 Mn433 2.282 . S
N449 C450 1.328 . S
N449 C454 1.318 . S
C450 N449 1.328 . S
C450 C451 1.457 . S
C450 H455 0.929 . S
C451 C450 1.457 . S
C451 C452 1.291 . S
C451 H464 0.931 . S
C452 C451 1.291 . S
C452 C453 1.373 . S
C452 H465 0.929 . S
C453 C452 1.373 . S
C453 C454 1.396 . S
C453 C460 1.403 . S
C454 C444 1.476 . S
C454 N449 1.318 . S
C454 C453 1.396 . S
H455 C450 0.929 . S
O456 Mn432 2.385 . S
O456 C434 1.234 . S
O457 Mn432 2.209 . S
O457 Mn433 2.215 1_455 S
O457 C434 1.283 . S
O458 Mn432 2.094 1_655 S
O458 C436 1.240 . S
O459 Mn433 2.117 . S
O459 C436 1.264 . S
C460 C453 1.403 . S
C460 C461 1.399 1_556 S
C460 H466 0.929 1_556 S
C461 C441 1.449 . S
C461 C460 1.399 1_554 S
C461 H467 0.930 . S
H462 C442 0.931 . S
H463 C443 0.912 1_455 S
H464 C451 0.931 . S
H465 C452 0.929 . S
H466 C460 0.929 1_554 S
H467 C461 0.930 . S
Mn468 O473 2.095 1_455 S
Mn468 O483 2.162 . S
Mn468 O484 2.297 . S
Mn468 O492 2.385 . S
Mn468 O493 2.209 1_455 S
Mn468 O494 2.094 1_455 S
Mn469 O474 2.121 . S
Mn469 N476 2.257 . S
Mn469 N485 2.282 . S
Mn469 O493 2.215 . S
Mn469 O495 2.117 . S
C470 O492 1.234 . S
C470 O493 1.283 1_455 S
C471 O483 1.281 . S
C471 O484 1.236 . S
C472 O494 1.240 . S
C472 O495 1.264 . S
O473 Mn468 2.095 1_655 S
O473 C482 1.250 . S
O474 Mn469 2.121 . S
O474 C482 1.258 . S
C475 N476 1.326 . S
C475 C479 1.460 . S
C475 H481 0.929 . S
N476 Mn469 2.257 . S
N476 C475 1.326 . S
N476 C480 1.362 . S
C477 C478 1.258 . S
C477 C480 1.431 . S
C477 C497 1.449 . S
C478 C477 1.258 . S
C478 C479 1.477 . S
C478 H498 0.931 . S
C479 C475 1.460 . S
C479 C478 1.477 . S
C479 H499 0.930 . S
C480 N476 1.362 . S
C480 C477 1.431 . S
C480 C490 1.476 . S
H481 C475 0.929 . S
C482 O473 1.250 . S
C482 O474 1.258 . S
O483 Mn468 2.162 . S
O483 C471 1.281 . S
O484 Mn468 2.297 . S
O484 C471 1.236 . S
N485 Mn469 2.282 . S
N485 C486 1.328 . S
N485 C490 1.318 . S
C486 N485 1.328 . S
C486 C487 1.457 . S
C486 H491 0.929 . S
C487 C486 1.457 . S
C487 C488 1.291 . S
C487 H500 0.931 . S
C488 C487 1.291 . S
C488 C489 1.373 . S
C488 H501 0.929 . S
C489 C488 1.373 . S
C489 C490 1.396 . S
C489 C496 1.403 . S
C490 C480 1.476 . S
C490 N485 1.318 . S
C490 C489 1.396 . S
H491 C486 0.929 . S
O492 Mn468 2.385 . S
O492 C470 1.234 . S
O493 Mn468 2.209 1_655 S
O493 Mn469 2.215 . S
O493 C470 1.283 1_655 S
O494 Mn468 2.094 1_655 S
O494 C472 1.240 . S
O495 Mn469 2.117 . S
O495 C472 1.264 . S
C496 C489 1.403 . S
C496 C497 1.399 . S
C496 H502 0.929 . S
C497 C477 1.449 . S
C497 C496 1.399 . S
C497 H503 0.930 . S
H498 C478 0.931 . S
H499 C479 0.930 . S
H500 C487 0.931 . S
H501 C488 0.929 . S
H502 C496 0.929 . S
H503 C497 0.930 . S
Mn504 O509 2.095 . S
Mn504 O519 2.162 . S
Mn504 O520 2.297 . S
Mn504 O528 2.385 . S
Mn504 O529 2.209 . S
Mn504 O530 2.094 . S
Mn505 O510 2.121 . S
Mn505 N512 2.257 . S
Mn505 N521 2.282 . S
Mn505 O529 2.215 . S
Mn505 O531 2.117 . S
C506 O528 1.234 . S
C506 O529 1.283 . S
C507 O519 1.281 . S
C507 O520 1.236 . S
C508 O530 1.240 . S
C508 O531 1.264 . S
O509 Mn504 2.095 . S
O509 C518 1.250 . S
O510 Mn505 2.121 . S
O510 C518 1.258 . S
C511 N512 1.326 . S
C511 C515 1.460 . S
C511 H517 0.929 . S
N512 Mn505 2.257 . S
N512 C511 1.326 . S
N512 C516 1.362 . S
C513 C514 1.258 . S
C513 C516 1.431 . S
C513 C533 1.449 . S
C514 C513 1.258 . S
C514 C515 1.477 . S
C514 H534 0.931 . S
C515 C511 1.460 . S
C515 C514 1.477 . S
C515 H535 0.930 . S
C516 N512 1.362 . S
C516 C513 1.431 . S
C516 C526 1.476 . S
H517 C511 0.929 . S
C518 O509 1.250 . S
C518 O510 1.258 . S
O519 Mn504 2.162 . S
O519 C507 1.281 . S
O520 Mn504 2.297 . S
O520 C507 1.236 . S
N521 Mn505 2.282 . S
N521 C522 1.328 . S
N521 C526 1.318 . S
C522 N521 1.328 . S
C522 C523 1.457 . S
C522 H527 0.929 . S
C523 C522 1.457 . S
C523 C524 1.291 . S
C523 H536 0.931 . S
C524 C523 1.291 . S
C524 C525 1.373 . S
C524 H537 0.929 . S
C525 C524 1.373 . S
C525 C526 1.396 . S
C525 C532 1.403 . S
C526 C516 1.476 . S
C526 N521 1.318 . S
C526 C525 1.396 . S
H527 C522 0.929 . S
O528 Mn504 2.385 . S
O528 C506 1.234 . S
O529 Mn504 2.209 . S
O529 Mn505 2.215 . S
O529 C506 1.283 . S
O530 Mn504 2.094 . S
O530 C508 1.240 . S
O531 Mn505 2.117 . S
O531 C508 1.264 . S
C532 C525 1.403 . S
C532 C533 1.399 . S
C532 H538 0.929 . S
C533 C513 1.449 . S
C533 C532 1.399 . S
C533 H539 0.930 . S
H534 C514 0.931 . S
H535 C515 0.930 . S
H536 C523 0.931 . S
H537 C524 0.929 . S
H538 C532 0.929 . S
H539 C533 0.930 . S
Mn540 O545 2.095 . S
Mn540 O555 2.162 . S
Mn540 O556 2.297 . S
Mn540 O564 2.385 . S
Mn540 O565 2.209 . S
Mn540 O566 2.094 . S
Mn541 O546 2.121 . S
Mn541 N548 2.257 . S
Mn541 N557 2.282 . S
Mn541 O565 2.215 . S
Mn541 O567 2.117 . S
C542 O564 1.234 . S
C542 O565 1.283 . S
C543 O555 1.281 . S
C543 O556 1.236 . S
C544 O566 1.240 . S
C544 O567 1.264 . S
O545 Mn540 2.095 . S
O545 C554 1.250 . S
O546 Mn541 2.121 . S
O546 C554 1.258 . S
C547 N548 1.326 . S
C547 C551 1.460 . S
C547 H553 0.929 . S
N548 Mn541 2.257 . S
N548 C547 1.326 . S
N548 C552 1.362 . S
C549 C550 1.258 . S
C549 C552 1.431 . S
C549 C569 1.449 . S
C550 C549 1.258 . S
C550 C551 1.477 . S
C550 H570 0.931 . S
C551 C547 1.460 . S
C551 C550 1.477 . S
C551 H571 0.930 . S
C552 N548 1.362 . S
C552 C549 1.431 . S
C552 C562 1.476 . S
H553 C547 0.929 . S
C554 O545 1.250 . S
C554 O546 1.258 . S
O555 Mn540 2.162 . S
O555 C543 1.281 . S
O556 Mn540 2.297 . S
O556 C543 1.236 . S
N557 Mn541 2.282 . S
N557 C558 1.328 . S
N557 C562 1.318 . S
C558 N557 1.328 . S
C558 C559 1.457 . S
C558 H563 0.929 . S
C559 C558 1.457 . S
C559 C560 1.291 . S
C559 H572 0.931 . S
C560 C559 1.291 . S
C560 C561 1.373 . S
C560 H573 0.929 . S
C561 C560 1.373 . S
C561 C562 1.396 . S
C561 C568 1.403 . S
C562 C552 1.476 . S
C562 N557 1.318 . S
C562 C561 1.396 . S
H563 C558 0.929 . S
O564 Mn540 2.385 . S
O564 C542 1.234 . S
O565 Mn540 2.209 . S
O565 Mn541 2.215 . S
O565 C542 1.283 . S
O566 Mn540 2.094 . S
O566 C544 1.240 . S
O567 Mn541 2.117 . S
O567 C544 1.264 . S
C568 C561 1.403 . S
C568 C569 1.399 . S
C568 H574 0.929 . S
C569 C549 1.449 . S
C569 C568 1.399 . S
C569 H575 0.930 . S
H570 C550 0.931 . S
H571 C551 0.930 . S
H572 C559 0.931 . S
H573 C560 0.929 . S
H574 C568 0.929 . S
H575 C569 0.930 . S
Mn576 O581 2.095 . S
Mn576 O591 2.162 . S
Mn576 O592 2.297 . S
Mn576 O600 2.385 . S
Mn576 O601 2.209 . S
Mn576 O602 2.094 . S
Mn577 O582 2.121 . S
Mn577 N584 2.257 . S
Mn577 N593 2.282 . S
Mn577 O601 2.215 . S
Mn577 O603 2.117 . S
C578 O600 1.234 . S
C578 O601 1.283 . S
C579 O591 1.281 . S
C579 O592 1.236 . S
C580 O602 1.240 . S
C580 O603 1.264 . S
O581 Mn576 2.095 . S
O581 C590 1.250 . S
O582 Mn577 2.121 . S
O582 C590 1.258 . S
C583 N584 1.326 . S
C583 C587 1.460 . S
C583 H589 0.929 . S
N584 Mn577 2.257 . S
N584 C583 1.326 . S
N584 C588 1.362 . S
C585 C586 1.258 . S
C585 C588 1.431 . S
C585 C605 1.449 1_545 S
C586 C585 1.258 . S
C586 C587 1.477 . S
C586 H606 0.931 . S
C587 C583 1.460 . S
C587 C586 1.477 . S
C587 H607 0.930 . S
C588 N584 1.362 . S
C588 C585 1.431 . S
C588 C598 1.476 . S
H589 C583 0.929 . S
C590 O581 1.250 . S
C590 O582 1.258 . S
O591 Mn576 2.162 . S
O591 C579 1.281 . S
O592 Mn576 2.297 . S
O592 C579 1.236 . S
N593 Mn577 2.282 . S
N593 C594 1.328 . S
N593 C598 1.318 . S
C594 N593 1.328 . S
C594 C595 1.457 1_545 S
C594 H599 0.929 . S
C595 C594 1.457 1_565 S
C595 C596 1.291 . S
C595 H608 0.931 . S
C596 C595 1.291 . S
C596 C597 1.373 . S
C596 H609 0.929 . S
C597 C596 1.373 . S
C597 C598 1.396 1_565 S
C597 C604 1.403 . S
C598 C588 1.476 . S
C598 N593 1.318 . S
C598 C597 1.396 1_545 S
H599 C594 0.929 . S
O600 Mn576 2.385 . S
O600 C578 1.234 . S
O601 Mn576 2.209 . S
O601 Mn577 2.215 . S
O601 C578 1.283 . S
O602 Mn576 2.094 . S
O602 C580 1.240 . S
O603 Mn577 2.117 . S
O603 C580 1.264 . S
C604 C597 1.403 . S
C604 C605 1.399 . S
C604 H610 0.929 . S
C605 C585 1.449 1_565 S
C605 C604 1.399 . S
C605 H611 0.930 . S
H606 C586 0.931 . S
H607 C587 0.930 . S
H608 C595 0.931 . S
H609 C596 0.929 . S
H610 C604 0.929 . S
H611 C605 0.930 . S
Mn612 O617 2.095 . S
Mn612 O627 2.162 . S
Mn612 O628 2.297 . S
Mn612 O636 2.385 . S
Mn612 O637 2.209 . S
Mn612 O638 2.094 . S
Mn613 O618 2.121 . S
Mn613 N620 2.257 . S
Mn613 N629 2.282 . S
Mn613 O637 2.215 . S
Mn613 O639 2.117 . S
C614 O636 1.234 . S
C614 O637 1.283 . S
C615 O627 1.281 . S
C615 O628 1.236 . S
C616 O638 1.240 . S
C616 O639 1.264 . S
O617 Mn612 2.095 . S
O617 C626 1.250 . S
O618 Mn613 2.121 . S
O618 C626 1.258 . S
C619 N620 1.326 . S
C619 C623 1.460 . S
C619 H625 0.929 . S
N620 Mn613 2.257 . S
N620 C619 1.326 . S
N620 C624 1.362 . S
C621 C622 1.258 . S
C621 C624 1.431 . S
C621 C641 1.449 . S
C622 C621 1.258 . S
C622 C623 1.477 . S
C622 H642 0.931 . S
C623 C619 1.460 . S
C623 C622 1.477 . S
C623 H643 0.930 . S
C624 N620 1.362 . S
C624 C621 1.431 . S
C624 C634 1.476 . S
H625 C619 0.929 . S
C626 O617 1.250 . S
C626 O618 1.258 . S
O627 Mn612 2.162 . S
O627 C615 1.281 . S
O628 Mn612 2.297 . S
O628 C615 1.236 . S
N629 Mn613 2.282 . S
N629 C630 1.328 . S
N629 C634 1.318 . S
C630 N629 1.328 . S
C630 C631 1.457 . S
C630 H635 0.929 . S
C631 C630 1.457 . S
C631 C632 1.291 . S
C631 H644 0.931 . S
C632 C631 1.291 . S
C632 C633 1.373 . S
C632 H645 0.929 . S
C633 C632 1.373 . S
C633 C634 1.396 . S
C633 C640 1.403 . S
C634 C624 1.476 . S
C634 N629 1.318 . S
C634 C633 1.396 . S
H635 C630 0.929 . S
O636 Mn612 2.385 . S
O636 C614 1.234 . S
O637 Mn612 2.209 . S
O637 Mn613 2.215 . S
O637 C614 1.283 . S
O638 Mn612 2.094 . S
O638 C616 1.240 . S
O639 Mn613 2.117 . S
O639 C616 1.264 . S
C640 C633 1.403 . S
C640 C641 1.399 . S
C640 H646 0.929 . S
C641 C621 1.449 . S
C641 C640 1.399 . S
C641 H647 0.930 . S
H642 C622 0.931 . S
H643 C623 0.930 . S
H644 C631 0.931 . S
H645 C632 0.929 . S
H646 C640 0.929 . S
H647 C641 0.930 . S
Mn648 O653 2.095 1_545 S
Mn648 O663 2.162 . S
Mn648 O664 2.297 . S
Mn648 O672 2.385 . S
Mn648 O673 2.209 . S
Mn648 O674 2.094 . S
Mn649 O654 2.121 1_545 S
Mn649 N656 2.257 . S
Mn649 N665 2.282 . S
Mn649 O673 2.215 . S
Mn649 O675 2.117 . S
C650 O672 1.234 . S
C650 O673 1.283 . S
C651 O663 1.281 . S
C651 O664 1.236 . S
C652 O674 1.240 . S
C652 O675 1.264 . S
O653 Mn648 2.095 1_565 S
O653 C662 1.250 . S
O654 Mn649 2.121 1_565 S
O654 C662 1.258 . S
C655 N656 1.326 . S
C655 C659 1.460 . S
C655 H661 0.929 1_545 S
N656 Mn649 2.257 . S
N656 C655 1.326 . S
N656 C660 1.362 . S
C657 C658 1.258 . S
C657 C660 1.431 . S
C657 C677 1.449 . S
C658 C657 1.258 . S
C658 C659 1.477 . S
C658 H678 0.931 . S
C659 C655 1.460 . S
C659 C658 1.477 . S
C659 H679 0.930 . S
C660 N656 1.362 . S
C660 C657 1.431 . S
C660 C670 1.476 . S
H661 C655 0.929 1_565 S
C662 O653 1.250 . S
C662 O654 1.258 . S
O663 Mn648 2.162 . S
O663 C651 1.281 . S
O664 Mn648 2.297 . S
O664 C651 1.236 . S
N665 Mn649 2.282 . S
N665 C666 1.328 . S
N665 C670 1.318 . S
C666 N665 1.328 . S
C666 C667 1.457 . S
C666 H671 0.929 . S
C667 C666 1.457 . S
C667 C668 1.291 . S
C667 H680 0.931 . S
C668 C667 1.291 . S
C668 C669 1.373 . S
C668 H681 0.929 . S
C669 C668 1.373 . S
C669 C670 1.396 . S
C669 C676 1.403 . S
C670 C660 1.476 . S
C670 N665 1.318 . S
C670 C669 1.396 . S
H671 C666 0.929 . S
O672 Mn648 2.385 . S
O672 C650 1.234 . S
O673 Mn648 2.209 . S
O673 Mn649 2.215 . S
O673 C650 1.283 . S
O674 Mn648 2.094 . S
O674 C652 1.240 . S
O675 Mn649 2.117 . S
O675 C652 1.264 . S
C676 C669 1.403 . S
C676 C677 1.399 . S
C676 H682 0.929 . S
C677 C657 1.449 . S
C677 C676 1.399 . S
C677 H683 0.930 . S
H678 C658 0.931 . S
H679 C659 0.930 . S
H680 C667 0.931 . S
H681 C668 0.929 . S
H682 C676 0.929 . S
H683 C677 0.930 . S
Mn684 O689 2.095 . S
Mn684 O699 2.162 . S
Mn684 O700 2.297 . S
Mn684 O708 2.385 . S
Mn684 O709 2.209 . S
Mn684 O710 2.094 1_554 S
Mn685 O690 2.121 1_556 S
Mn685 N692 2.257 . S
Mn685 N701 2.282 . S
Mn685 O709 2.215 1_556 S
Mn685 O711 2.117 . S
C686 O708 1.234 . S
C686 O709 1.283 . S
C687 O699 1.281 . S
C687 O700 1.236 . S
C688 O710 1.240 . S
C688 O711 1.264 . S
O689 Mn684 2.095 . S
O689 C698 1.250 . S
O690 Mn685 2.121 1_554 S
O690 C698 1.258 . S
C691 N692 1.311 1_544 S
C691 C695 1.462 . S
C691 H697 0.956 . S
N692 Mn685 2.257 . S
N692 C691 1.311 1_566 S
N692 C696 1.362 . S
C693 C694 1.258 . S
C693 C696 1.431 1_545 S
C693 C713 1.449 . S
C694 C693 1.258 . S
C694 C695 1.477 1_556 S
C694 H714 0.931 . S
C695 C691 1.462 . S
C695 C694 1.477 1_554 S
C695 H715 0.930 . S
C696 N692 1.362 . S
C696 C693 1.431 1_565 S
C696 C706 1.476 . S
H697 C691 0.956 . S
C698 O689 1.250 . S
C698 O690 1.258 . S
O699 Mn684 2.162 . S
O699 C687 1.281 . S
O700 Mn684 2.297 . S
O700 C687 1.236 . S
N701 Mn685 2.282 . S
N701 C702 1.328 . S
N701 C706 1.318 . S
C702 N701 1.328 . S
C702 C703 1.457 . S
C702 H707 0.929 . S
C703 C702 1.457 . S
C703 C704 1.291 . S
C703 H716 0.931 . S
C704 C703 1.291 . S
C704 C705 1.373 . S
C704 H717 0.929 . S
C705 C704 1.373 . S
C705 C706 1.396 . S
C705 C712 1.403 1_565 S
C706 C696 1.476 . S
C706 N701 1.318 . S
C706 C705 1.396 . S
H707 C702 0.929 . S
O708 Mn684 2.385 . S
O708 C686 1.234 . S
O709 Mn684 2.209 . S
O709 Mn685 2.215 1_554 S
O709 C686 1.283 . S
O710 Mn684 2.094 1_556 S
O710 C688 1.240 . S
O711 Mn685 2.117 . S
O711 C688 1.264 . S
C712 C705 1.403 1_545 S
C712 C713 1.399 . S
C712 H718 0.929 . S
C713 C693 1.449 . S
C713 C712 1.399 . S
C713 H719 0.930 . S
H714 C694 0.931 . S
H715 C695 0.930 . S
H716 C703 0.931 . S
H717 C704 0.929 . S
H718 C712 0.929 . S
H719 C713 0.930 . S
Mn720 O725 2.095 1_554 S
Mn720 O735 2.162 . S
Mn720 O736 2.297 . S
Mn720 O744 2.385 . S
Mn720 O745 2.209 1_554 S
Mn720 O746 2.094 1_554 S
Mn721 O726 2.121 . S
Mn721 N728 2.257 . S
Mn721 N737 2.282 . S
Mn721 O745 2.215 . S
Mn721 O747 2.117 . S
C722 O744 1.234 . S
C722 O745 1.283 1_554 S
C723 O735 1.281 . S
C723 O736 1.236 . S
C724 O746 1.240 . S
C724 O747 1.264 . S
O725 Mn720 2.095 1_556 S
O725 C734 1.250 . S
O726 Mn721 2.121 . S
O726 C734 1.258 . S
C727 N728 1.326 . S
C727 C731 1.460 . S
C727 H733 0.929 . S
N728 Mn721 2.257 . S
N728 C727 1.326 . S
N728 C732 1.362 . S
C729 C730 1.258 . S
C729 C732 1.431 . S
C729 C749 1.449 . S
C730 C729 1.258 . S
C730 C731 1.477 . S
C730 H750 0.931 . S
C731 C727 1.460 . S
C731 C730 1.477 . S
C731 H751 0.930 . S
C732 N728 1.362 . S
C732 C729 1.431 . S
C732 C742 1.476 . S
H733 C727 0.929 . S
C734 O725 1.250 . S
C734 O726 1.258 . S
O735 Mn720 2.162 . S
O735 C723 1.281 . S
O736 Mn720 2.297 . S
O736 C723 1.236 . S
N737 Mn721 2.282 . S
N737 C738 1.328 . S
N737 C742 1.318 . S
C738 N737 1.328 . S
C738 C739 1.457 . S
C738 H743 0.929 . S
C739 C738 1.457 . S
C739 C740 1.291 . S
C739 H752 0.931 . S
C740 C739 1.291 . S
C740 C741 1.373 . S
C740 H753 0.929 . S
C741 C740 1.373 . S
C741 C742 1.396 . S
C741 C748 1.403 . S
C742 C732 1.476 . S
C742 N737 1.318 . S
C742 C741 1.396 . S
H743 C738 0.929 . S
O744 Mn720 2.385 . S
O744 C722 1.234 . S
O745 Mn720 2.209 1_556 S
O745 Mn721 2.215 . S
O745 C722 1.283 1_556 S
O746 Mn720 2.094 1_556 S
O746 C724 1.240 . S
O747 Mn721 2.117 . S
O747 C724 1.264 . S
C748 C741 1.403 . S
C748 C749 1.399 . S
C748 H754 0.929 . S
C749 C729 1.449 . S
C749 C748 1.399 . S
C749 H755 0.930 . S
H750 C730 0.931 . S
H751 C731 0.930 . S
H752 C739 0.931 . S
H753 C740 0.929 . S
H754 C748 0.929 . S
H755 C749 0.930 . S
Mn756 O761 2.095 . S
Mn756 O771 2.162 . S
Mn756 O772 2.297 . S
Mn756 O780 2.385 . S
Mn756 O781 2.209 . S
Mn756 O782 2.094 . S
Mn757 O762 2.121 . S
Mn757 N764 2.257 . S
Mn757 N773 2.282 . S
Mn757 O781 2.215 . S
Mn757 O783 2.117 . S
C758 O780 1.234 . S
C758 O781 1.283 . S
C759 O771 1.281 . S
C759 O772 1.236 . S
C760 O782 1.240 . S
C760 O783 1.264 . S
O761 Mn756 2.095 . S
O761 C770 1.250 . S
O762 Mn757 2.121 . S
O762 C770 1.258 . S
C763 N764 1.326 . S
C763 C767 1.460 . S
C763 H769 0.929 . S
N764 Mn757 2.257 . S
N764 C763 1.326 . S
N764 C768 1.362 . S
C765 C766 1.258 . S
C765 C768 1.431 . S
C765 C785 1.449 . S
C766 C765 1.258 . S
C766 C767 1.477 . S
C766 H786 0.931 . S
C767 C763 1.460 . S
C767 C766 1.477 . S
C767 H787 0.930 . S
C768 N764 1.362 . S
C768 C765 1.431 . S
C768 C778 1.476 . S
H769 C763 0.929 . S
C770 O761 1.250 . S
C770 O762 1.258 . S
O771 Mn756 2.162 . S
O771 C759 1.281 . S
O772 Mn756 2.297 . S
O772 C759 1.236 . S
N773 Mn757 2.282 . S
N773 C774 1.328 . S
N773 C778 1.318 . S
C774 N773 1.328 . S
C774 C775 1.457 . S
C774 H779 0.929 . S
C775 C774 1.457 . S
C775 C776 1.291 . S
C775 H788 0.931 . S
C776 C775 1.291 . S
C776 C777 1.373 . S
C776 H789 0.929 . S
C777 C776 1.373 . S
C777 C778 1.396 . S
C777 C784 1.403 . S
C778 C768 1.476 . S
C778 N773 1.318 . S
C778 C777 1.396 . S
H779 C774 0.929 . S
O780 Mn756 2.385 . S
O780 C758 1.234 . S
O781 Mn756 2.209 . S
O781 Mn757 2.215 . S
O781 C758 1.283 . S
O782 Mn756 2.094 . S
O782 C760 1.240 . S
O783 Mn757 2.117 . S
O783 C760 1.264 . S
C784 C777 1.403 . S
C784 C785 1.399 . S
C784 H790 0.929 . S
C785 C765 1.449 . S
C785 C784 1.399 . S
C785 H791 0.930 . S
H786 C766 0.931 . S
H787 C767 0.930 . S
H788 C775 0.931 . S
H789 C776 0.929 . S
H790 C784 0.929 . S
H791 C785 0.930 . S
Mn792 O797 2.095 . S
Mn792 O807 2.162 . S
Mn792 O808 2.297 . S
Mn792 O816 2.385 . S
Mn792 O817 2.209 . S
Mn792 O818 2.094 . S
Mn793 O798 2.121 . S
Mn793 N800 2.257 . S
Mn793 N809 2.282 . S
Mn793 O817 2.215 . S
Mn793 O819 2.117 . S
C794 O816 1.234 . S
C794 O817 1.283 . S
C795 O807 1.281 . S
C795 O808 1.236 . S
C796 O818 1.240 . S
C796 O819 1.264 . S
O797 Mn792 2.095 . S
O797 C806 1.250 . S
O798 Mn793 2.121 . S
O798 C806 1.258 . S
C799 N800 1.326 . S
C799 C803 1.460 . S
C799 H805 0.929 . S
N800 Mn793 2.257 . S
N800 C799 1.326 . S
N800 C804 1.362 . S
C801 C802 1.258 . S
C801 C804 1.431 . S
C801 C821 1.449 . S
C802 C801 1.258 . S
C802 C803 1.477 . S
C802 H822 0.931 . S
C803 C799 1.460 . S
C803 C802 1.477 . S
C803 H823 0.930 . S
C804 N800 1.362 . S
C804 C801 1.431 . S
C804 C814 1.476 . S
H805 C799 0.929 . S
C806 O797 1.250 . S
C806 O798 1.258 . S
O807 Mn792 2.162 . S
O807 C795 1.281 . S
O808 Mn792 2.297 . S
O808 C795 1.236 . S
N809 Mn793 2.282 . S
N809 C810 1.328 . S
N809 C814 1.318 . S
C810 N809 1.328 . S
C810 C811 1.457 . S
C810 H815 0.929 . S
C811 C810 1.457 . S
C811 C812 1.291 . S
C811 H824 0.931 . S
C812 C811 1.291 . S
C812 C813 1.373 . S
C812 H825 0.929 . S
C813 C812 1.373 . S
C813 C814 1.396 . S
C813 C820 1.403 . S
C814 C804 1.476 . S
C814 N809 1.318 . S
C814 C813 1.396 . S
H815 C810 0.929 . S
O816 Mn792 2.385 . S
O816 C794 1.234 . S
O817 Mn792 2.209 . S
O817 Mn793 2.215 . S
O817 C794 1.283 . S
O818 Mn792 2.094 . S
O818 C796 1.240 . S
O819 Mn793 2.117 . S
O819 C796 1.264 . S
C820 C813 1.403 . S
C820 C821 1.399 . S
C820 H826 0.929 . S
C821 C801 1.449 . S
C821 C820 1.399 . S
C821 H827 0.930 . S
H822 C802 0.931 . S
H823 C803 0.930 . S
H824 C811 0.931 . S
H825 C812 0.929 . S
H826 C820 0.929 . S
H827 C821 0.930 . S
Mn828 O833 2.095 . S
Mn828 O843 2.162 . S
Mn828 O844 2.297 . S
Mn828 O852 2.385 . S
Mn828 O853 2.209 . S
Mn828 O854 2.094 . S
Mn829 O834 2.121 . S
Mn829 N836 2.257 . S
Mn829 N845 2.282 . S
Mn829 O853 2.215 . S
Mn829 O855 2.117 . S
C830 O852 1.234 . S
C830 O853 1.283 . S
C831 O843 1.281 . S
C831 O844 1.236 . S
C832 O854 1.240 . S
C832 O855 1.264 . S
O833 Mn828 2.095 . S
O833 C842 1.250 . S
O834 Mn829 2.121 . S
O834 C842 1.258 . S
C835 N836 1.326 . S
C835 C839 1.460 . S
C835 H841 0.929 . S
N836 Mn829 2.257 . S
N836 C835 1.326 . S
N836 C840 1.362 . S
C837 C838 1.258 . S
C837 C840 1.431 . S
C837 C857 1.449 . S
C838 C837 1.258 . S
C838 C839 1.477 . S
C838 H858 0.931 . S
C839 C835 1.460 . S
C839 C838 1.477 . S
C839 H859 0.930 . S
C840 N836 1.362 . S
C840 C837 1.431 . S
C840 C850 1.476 . S
H841 C835 0.929 . S
C842 O833 1.250 . S
C842 O834 1.258 . S
O843 Mn828 2.162 . S
O843 C831 1.281 . S
O844 Mn828 2.297 . S
O844 C831 1.236 . S
N845 Mn829 2.282 . S
N845 C846 1.328 . S
N845 C850 1.318 . S
C846 N845 1.328 . S
C846 C847 1.457 . S
C846 H851 0.929 . S
C847 C846 1.457 . S
C847 C848 1.291 . S
C847 H860 0.931 . S
C848 C847 1.291 . S
C848 C849 1.373 . S
C848 H861 0.929 . S
C849 C848 1.373 . S
C849 C850 1.396 . S
C849 C856 1.403 . S
C850 C840 1.476 . S
C850 N845 1.318 . S
C850 C849 1.396 . S
H851 C846 0.929 . S
O852 Mn828 2.385 . S
O852 C830 1.234 . S
O853 Mn828 2.209 . S
O853 Mn829 2.215 . S
O853 C830 1.283 . S
O854 Mn828 2.094 . S
O854 C832 1.240 . S
O855 Mn829 2.117 . S
O855 C832 1.264 . S
C856 C849 1.403 . S
C856 C857 1.399 . S
C856 H862 0.929 . S
C857 C837 1.449 . S
C857 C856 1.399 . S
C857 H863 0.930 . S
H858 C838 0.931 . S
H859 C839 0.930 . S
H860 C847 0.931 . S
H861 C848 0.929 . S
H862 C856 0.929 . S
H863 C857 0.930 . S
Co864 N869 2.057 1_554 S
Co864 O881 2.021 1_554 S
Co864 O884 2.062 1_455 S
Co864 O888 2.117 . S
Co864 O889 2.020 . S
C865 O885 1.259 . S
C865 O888 1.258 . S
Co866 N875 2.057 . S
Co866 O882 2.117 1_545 S
Co866 O883 2.020 1_455 S
Co866 O885 2.021 . S
Co866 O890 2.062 . S
C867 N869 1.316 . S
C867 N870 1.347 1_455 S
C867 H872 0.931 . S
C868 N869 1.372 1_655 S
C868 C871 1.354 . S
C868 H873 0.929 1_655 S
N869 Co864 2.057 1_556 S
N869 C867 1.316 . S
N869 C868 1.372 1_455 S
N870 C867 1.347 1_655 S
N870 C871 1.373 . S
C871 C868 1.354 . S
C871 N870 1.373 . S
C871 H892 0.931 . S
H872 C867 0.931 . S
H873 C868 0.929 1_455 S
C874 O881 1.259 1_564 S
C874 O882 1.258 . S
N875 Co866 2.057 . S
N875 C876 1.316 . S
N875 C877 1.375 1_545 S
C876 N875 1.316 . S
C876 N878 1.347 . S
C876 H887 0.931 . S
C877 N875 1.375 1_565 S
C877 C879 1.350 . S
C877 H886 0.930 . S
N878 C876 1.347 . S
N878 C879 1.373 1_545 S
C879 C877 1.350 . S
C879 N878 1.373 1_565 S
C879 H893 0.931 . S
C880 O883 1.256 . S
C880 O884 1.255 . S
O881 Co864 2.021 1_556 S
O881 C874 1.259 1_546 S
O882 Co866 2.117 1_565 S
O882 C874 1.258 . S
O883 Co866 2.020 1_655 S
O883 C880 1.256 . S
O884 Co864 2.062 1_655 S
O884 C880 1.255 . S
O885 C865 1.259 . S
O885 Co866 2.021 . S
H886 C877 0.930 . S
H887 C876 0.931 . S
O888 Co864 2.117 . S
O888 C865 1.258 . S
O889 Co864 2.020 . S
O889 C891 1.256 . S
O890 Co866 2.062 . S
O890 C891 1.255 . S
C891 O889 1.256 . S
C891 O890 1.255 . S
H892 C871 0.931 . S
H893 C879 0.931 . S
Co894 N899 2.057 . S
Co894 O911 2.021 . S
Co894 O914 2.062 . S
Co894 O918 2.117 . S
Co894 O919 2.020 . S
C895 O915 1.259 . S
C895 O918 1.258 . S
Co896 N905 2.057 . S
Co896 O912 2.117 . S
Co896 O913 2.020 . S
Co896 O915 2.021 . S
Co896 O920 2.062 . S
C897 N899 1.316 . S
C897 N900 1.347 . S
C897 H902 0.931 . S
C898 N899 1.375 . S
C898 C901 1.350 . S
C898 H903 0.930 . S
N899 Co894 2.057 . S
N899 C897 1.316 . S
N899 C898 1.375 . S
N900 C897 1.347 . S
N900 C901 1.373 . S
C901 C898 1.350 . S
C901 N900 1.373 . S
C901 H922 0.931 . S
H902 C897 0.931 . S
H903 C898 0.930 . S
C904 O911 1.259 . S
C904 O912 1.258 . S
N905 Co896 2.057 . S
N905 C906 1.316 . S
N905 C907 1.375 . S
C906 N905 1.316 . S
C906 N908 1.347 . S
C906 H917 0.931 . S
C907 N905 1.375 . S
C907 C909 1.350 . S
C907 H916 0.930 . S
N908 C906 1.347 . S
N908 C909 1.373 . S
C909 C907 1.350 . S
C909 N908 1.373 . S
C909 H923 0.931 . S
C910 O913 1.256 . S
C910 O914 1.255 . S
O911 Co894 2.021 . S
O911 C904 1.259 . S
O912 Co896 2.117 . S
O912 C904 1.258 . S
O913 Co896 2.020 . S
O913 C910 1.256 . S
O914 Co894 2.062 . S
O914 C910 1.255 . S
O915 C895 1.259 . S
O915 Co896 2.021 . S
H916 C907 0.930 . S
H917 C906 0.931 . S
O918 Co894 2.117 . S
O918 C895 1.258 . S
O919 Co894 2.020 . S
O919 C921 1.256 . S
O920 Co896 2.062 . S
O920 C921 1.255 . S
C921 O919 1.256 . S
C921 O920 1.255 . S
H922 C901 0.931 . S
H923 C909 0.931 . S
Co924 N929 2.057 . S
Co924 O941 2.021 1_545 S
Co924 O944 2.062 . S
Co924 O948 2.117 . S
Co924 O949 2.020 . S
C925 O945 1.259 . S
C925 O948 1.258 . S
Co926 N935 2.057 . S
Co926 O942 2.117 . S
Co926 O943 2.020 . S
Co926 O945 2.021 . S
Co926 O950 2.062 . S
C927 N929 1.316 1_565 S
C927 N930 1.347 1_565 S
C927 H932 0.931 . S
C928 N929 1.375 . S
C928 C931 1.350 . S
C928 H933 0.930 . S
N929 Co924 2.057 . S
N929 C927 1.316 1_545 S
N929 C928 1.375 . S
N930 C927 1.347 1_545 S
N930 C931 1.373 . S
C931 C928 1.350 . S
C931 N930 1.373 . S
C931 H952 0.931 . S
H932 C927 0.931 . S
H933 C928 0.930 . S
C934 O941 1.259 . S
C934 O942 1.258 1_565 S
N935 Co926 2.057 . S
N935 C936 1.316 . S
N935 C937 1.375 . S
C936 N935 1.316 . S
C936 N938 1.347 . S
C936 H947 0.931 . S
C937 N935 1.375 . S
C937 C939 1.350 . S
C937 H946 0.930 . S
N938 C936 1.347 . S
N938 C939 1.373 . S
C939 C937 1.350 . S
C939 N938 1.373 . S
C939 H953 0.931 . S
C940 O943 1.256 . S
C940 O944 1.255 . S
O941 Co924 2.021 1_565 S
O941 C934 1.259 . S
O942 Co926 2.117 . S
O942 C934 1.258 1_545 S
O943 Co926 2.020 . S
O943 C940 1.256 . S
O944 Co924 2.062 . S
O944 C940 1.255 . S
O945 C925 1.259 . S
O945 Co926 2.021 . S
H946 C937 0.930 . S
H947 C936 0.931 . S
O948 Co924 2.117 . S
O948 C925 1.258 . S
O949 Co924 2.020 . S
O949 C951 1.256 . S
O950 Co926 2.062 . S
O950 C951 1.255 . S
C951 O949 1.256 . S
C951 O950 1.255 . S
H952 C931 0.931 . S
H953 C939 0.931 . S
Co954 N959 2.057 . S
Co954 O971 2.021 . S
Co954 O974 2.062 . S
Co954 O978 2.117 . S
Co954 O979 2.020 . S
C955 O975 1.259 . S
C955 O978 1.258 . S
Co956 N965 2.057 . S
Co956 O972 2.117 . S
Co956 O973 2.020 . S
Co956 O975 2.021 . S
Co956 O980 2.062 . S
C957 N959 1.316 . S
C957 N960 1.347 . S
C957 H962 0.931 . S
C958 N959 1.375 . S
C958 C961 1.350 . S
C958 H963 0.930 . S
N959 Co954 2.057 . S
N959 C957 1.316 . S
N959 C958 1.375 . S
N960 C957 1.347 . S
N960 C961 1.373 . S
C961 C958 1.350 . S
C961 N960 1.373 . S
C961 H982 0.931 . S
H962 C957 0.931 . S
H963 C958 0.930 . S
C964 O971 1.259 . S
C964 O972 1.258 . S
N965 Co956 2.057 . S
N965 C966 1.316 . S
N965 C967 1.375 . S
C966 N965 1.316 . S
C966 N968 1.347 . S
C966 H977 0.931 . S
C967 N965 1.375 . S
C967 C969 1.350 . S
C967 H976 0.930 . S
N968 C966 1.347 . S
N968 C969 1.373 . S
C969 C967 1.350 . S
C969 N968 1.373 . S
C969 H983 0.931 . S
C970 O973 1.256 . S
C970 O974 1.255 . S
O971 Co954 2.021 . S
O971 C964 1.259 . S
O972 Co956 2.117 . S
O972 C964 1.258 . S
O973 Co956 2.020 . S
O973 C970 1.256 . S
O974 Co954 2.062 . S
O974 C970 1.255 . S
O975 C955 1.259 . S
O975 Co956 2.021 . S
H976 C967 0.930 . S
H977 C966 0.931 . S
O978 Co954 2.117 . S
O978 C955 1.258 . S
O979 Co954 2.020 . S
O979 C981 1.256 . S
O980 Co956 2.062 . S
O980 C981 1.255 . S
C981 O979 1.256 . S
C981 O980 1.255 . S
H982 C961 0.931 . S
H983 C969 0.931 . S
Co984 N989 2.057 1_545 S
Co984 O1001 2.021 . S
Co984 O1004 2.062 . S
Co984 O1008 2.117 . S
Co984 O1009 2.020 1_455 S
C985 O1005 1.259 . S
C985 O1008 1.258 . S
Co986 N995 2.057 . S
Co986 O1002 2.117 . S
Co986 O1003 2.020 . S
Co986 O1005 2.021 . S
Co986 O1010 2.062 1_455 S
C987 N989 1.316 . S
C987 N990 1.347 . S
C987 H992 0.931 . S
C988 N989 1.375 1_655 S
C988 C991 1.350 . S
C988 H993 0.930 . S
N989 Co984 2.057 1_565 S
N989 C987 1.316 . S
N989 C988 1.375 1_455 S
N990 C987 1.347 . S
N990 C991 1.373 1_455 S
C991 C988 1.350 . S
C991 N990 1.373 1_655 S
C991 H1012 0.931 . S
H992 C987 0.931 . S
H993 C988 0.930 . S
C994 O1001 1.259 . S
C994 O1002 1.258 . S
N995 Co986 2.057 . S
N995 C996 1.316 . S
N995 C997 1.375 . S
C996 N995 1.316 . S
C996 N998 1.347 . S
C996 H1007 0.931 . S
C997 N995 1.375 . S
C997 C999 1.350 . S
C997 H1006 0.930 . S
N998 C996 1.347 . S
N998 C999 1.373 . S
C999 C997 1.350 . S
C999 N998 1.373 . S
C999 H1013 0.931 . S
C1000 O1003 1.256 . S
C1000 O1004 1.255 . S
O1001 Co984 2.021 . S
O1001 C994 1.259 . S
O1002 Co986 2.117 . S
O1002 C994 1.258 . S
O1003 Co986 2.020 . S
O1003 C1000 1.256 . S
O1004 Co984 2.062 . S
O1004 C1000 1.255 . S
O1005 C985 1.259 . S
O1005 Co986 2.021 . S
H1006 C997 0.930 . S
H1007 C996 0.931 . S
O1008 Co984 2.117 . S
O1008 C985 1.258 . S
O1009 Co984 2.020 1_655 S
O1009 C1011 1.256 . S
O1010 Co986 2.062 1_655 S
O1010 C1011 1.255 . S
C1011 O1009 1.256 . S
C1011 O1010 1.255 . S
H1012 C991 0.931 . S
H1013 C999 0.931 . S
Co1014 N1019 2.057 . S
Co1014 O1031 2.021 . S
Co1014 O1034 2.062 . S
Co1014 O1038 2.117 . S
Co1014 O1039 2.020 . S
C1015 O1035 1.259 . S
C1015 O1038 1.258 . S
Co1016 N1025 2.057 . S
Co1016 O1032 2.117 . S
Co1016 O1033 2.020 . S
Co1016 O1035 2.021 . S
Co1016 O1040 2.062 . S
C1017 N1019 1.316 . S
C1017 N1020 1.347 . S
C1017 H1022 0.931 . S
C1018 N1019 1.375 . S
C1018 C1021 1.350 . S
C1018 H1023 0.930 . S
N1019 Co1014 2.057 . S
N1019 C1017 1.316 . S
N1019 C1018 1.375 . S
N1020 C1017 1.347 . S
N1020 C1021 1.373 . S
C1021 C1018 1.350 . S
C1021 N1020 1.373 . S
C1021 H1042 0.931 . S
H1022 C1017 0.931 . S
H1023 C1018 0.930 . S
C1024 O1031 1.259 . S
C1024 O1032 1.258 . S
N1025 Co1016 2.057 . S
N1025 C1026 1.316 . S
N1025 C1027 1.375 . S
C1026 N1025 1.316 . S
C1026 N1028 1.347 . S
C1026 H1037 0.931 . S
C1027 N1025 1.375 . S
C1027 C1029 1.350 . S
C1027 H1036 0.930 . S
N1028 C1026 1.347 . S
N1028 C1029 1.373 . S
C1029 C1027 1.350 . S
C1029 N1028 1.373 . S
C1029 H1043 0.931 . S
C1030 O1033 1.256 . S
C1030 O1034 1.255 . S
O1031 Co1014 2.021 . S
O1031 C1024 1.259 . S
O1032 Co1016 2.117 . S
O1032 C1024 1.258 . S
O1033 Co1016 2.020 . S
O1033 C1030 1.256 . S
O1034 Co1014 2.062 . S
O1034 C1030 1.255 . S
O1035 C1015 1.259 . S
O1035 Co1016 2.021 . S
H1036 C1027 0.930 . S
H1037 C1026 0.931 . S
O1038 Co1014 2.117 . S
O1038 C1015 1.258 . S
O1039 Co1014 2.020 . S
O1039 C1041 1.256 . S
O1040 Co1016 2.062 . S
O1040 C1041 1.255 . S
C1041 O1039 1.256 . S
C1041 O1040 1.255 . S
H1042 C1021 0.931 . S
H1043 C1029 0.931 . S
Co1044 N1049 2.057 1_554 S
Co1044 O1061 2.021 . S
Co1044 O1064 2.062 1_554 S
Co1044 O1068 2.117 . S
Co1044 O1069 2.020 1_545 S
C1045 O1065 1.259 . S
C1045 O1068 1.258 . S
Co1046 N1055 2.057 . S
Co1046 O1062 2.117 . S
Co1046 O1063 2.020 . S
Co1046 O1065 2.021 . S
Co1046 O1070 2.062 . S
C1047 N1049 1.316 . S
C1047 N1050 1.347 . S
C1047 H1052 0.931 . S
C1048 N1049 1.375 . S
C1048 C1051 1.350 . S
C1048 H1053 0.930 1_545 S
N1049 Co1044 2.057 1_556 S
N1049 C1047 1.316 . S
N1049 C1048 1.375 . S
N1050 C1047 1.347 . S
N1050 C1051 1.373 . S
C1051 C1048 1.350 . S
C1051 N1050 1.373 . S
C1051 H1072 0.931 1_545 S
H1052 C1047 0.931 . S
H1053 C1048 0.930 1_565 S
C1054 O1061 1.259 . S
C1054 O1062 1.258 . S
N1055 Co1046 2.057 . S
N1055 C1056 1.316 . S
N1055 C1057 1.375 . S
C1056 N1055 1.316 . S
C1056 N1058 1.347 . S
C1056 H1067 0.931 . S
C1057 N1055 1.375 . S
C1057 C1059 1.350 . S
C1057 H1066 0.930 . S
N1058 C1056 1.347 . S
N1058 C1059 1.373 . S
C1059 C1057 1.350 . S
C1059 N1058 1.373 . S
C1059 H1073 0.931 . S
C1060 O1063 1.256 . S
C1060 O1064 1.255 1_554 S
O1061 Co1044 2.021 . S
O1061 C1054 1.259 . S
O1062 Co1046 2.117 . S
O1062 C1054 1.258 . S
O1063 Co1046 2.020 . S
O1063 C1060 1.256 . S
O1064 Co1044 2.062 1_556 S
O1064 C1060 1.255 1_556 S
O1065 C1045 1.259 . S
O1065 Co1046 2.021 . S
H1066 C1057 0.930 . S
H1067 C1056 0.931 . S
O1068 Co1044 2.117 . S
O1068 C1045 1.258 . S
O1069 Co1044 2.020 1_565 S
O1069 C1071 1.256 . S
O1070 Co1046 2.062 . S
O1070 C1071 1.255 1_545 S
C1071 O1069 1.256 . S
C1071 O1070 1.255 1_565 S
H1072 C1051 0.931 1_565 S
H1073 C1059 0.931 . S
Co1074 N1079 2.057 . S
Co1074 O1091 2.021 . S
Co1074 O1094 2.062 . S
Co1074 O1098 2.117 . S
Co1074 O1099 2.020 . S
C1075 O1095 1.259 . S
C1075 O1098 1.258 . S
Co1076 N1085 2.057 . S
Co1076 O1092 2.117 . S
Co1076 O1093 2.020 . S
Co1076 O1095 2.021 . S
Co1076 O1100 2.062 . S
C1077 N1079 1.316 . S
C1077 N1080 1.347 . S
C1077 H1082 0.931 . S
C1078 N1079 1.375 . S
C1078 C1081 1.350 . S
C1078 H1083 0.930 . S
N1079 Co1074 2.057 . S
N1079 C1077 1.316 . S
N1079 C1078 1.375 . S
N1080 C1077 1.347 . S
N1080 C1081 1.373 . S
C1081 C1078 1.350 . S
C1081 N1080 1.373 . S
C1081 H1102 0.931 . S
H1082 C1077 0.931 . S
H1083 C1078 0.930 . S
C1084 O1091 1.259 . S
C1084 O1092 1.258 . S
N1085 Co1076 2.057 . S
N1085 C1086 1.316 . S
N1085 C1087 1.375 . S
C1086 N1085 1.316 . S
C1086 N1088 1.347 . S
C1086 H1097 0.931 . S
C1087 N1085 1.375 . S
C1087 C1089 1.350 . S
C1087 H1096 0.930 . S
N1088 C1086 1.347 . S
N1088 C1089 1.373 . S
C1089 C1087 1.350 . S
C1089 N1088 1.373 . S
C1089 H1103 0.931 . S
C1090 O1093 1.256 . S
C1090 O1094 1.255 . S
O1091 Co1074 2.021 . S
O1091 C1084 1.259 . S
O1092 Co1076 2.117 . S
O1092 C1084 1.258 . S
O1093 Co1076 2.020 . S
O1093 C1090 1.256 . S
O1094 Co1074 2.062 . S
O1094 C1090 1.255 . S
O1095 C1075 1.259 . S
O1095 Co1076 2.021 . S
H1096 C1087 0.930 . S
H1097 C1086 0.931 . S
O1098 Co1074 2.117 . S
O1098 C1075 1.258 . S
O1099 Co1074 2.020 . S
O1099 C1101 1.256 . S
O1100 Co1076 2.062 . S
O1100 C1101 1.255 . S
C1101 O1099 1.256 . S
C1101 O1100 1.255 . S
H1102 C1081 0.931 . S
H1103 C1089 0.931 . S
Co1104 N1109 2.057 . S
Co1104 O1121 2.021 1_554 S
Co1104 O1124 2.062 . S
Co1104 O1128 2.117 . S
Co1104 O1129 2.020 . S
C1105 O1125 1.259 . S
C1105 O1128 1.258 . S
Co1106 N1115 2.057 . S
Co1106 O1122 2.117 1_554 S
Co1106 O1123 2.020 . S
Co1106 O1125 2.021 . S
Co1106 O1130 2.062 . S
C1107 N1109 1.316 1_556 S
C1107 N1110 1.346 . S
C1107 H1112 0.931 . S
C1108 N1109 1.375 . S
C1108 C1111 1.350 . S
C1108 H1113 0.930 . S
N1109 Co1104 2.057 . S
N1109 C1107 1.316 1_554 S
N1109 C1108 1.375 . S
N1110 C1107 1.346 . S
N1110 C1111 1.376 1_556 S
C1111 C1108 1.350 . S
C1111 N1110 1.376 1_554 S
C1111 H1132 0.931 . S
H1112 C1107 0.931 . S
H1113 C1108 0.930 . S
C1114 O1121 1.259 . S
C1114 O1122 1.258 . S
N1115 Co1106 2.057 . S
N1115 C1116 1.316 . S
N1115 C1117 1.375 . S
C1116 N1115 1.316 . S
C1116 N1118 1.347 . S
C1116 H1127 0.931 . S
C1117 N1115 1.375 . S
C1117 C1119 1.350 . S
C1117 H1126 0.930 . S
N1118 C1116 1.347 . S
N1118 C1119 1.373 . S
C1119 C1117 1.350 . S
C1119 N1118 1.373 . S
C1119 H1133 0.931 . S
C1120 O1123 1.256 . S
C1120 O1124 1.255 . S
O1121 Co1104 2.021 1_556 S
O1121 C1114 1.259 . S
O1122 Co1106 2.117 1_556 S
O1122 C1114 1.258 . S
O1123 Co1106 2.020 . S
O1123 C1120 1.256 . S
O1124 Co1104 2.062 . S
O1124 C1120 1.255 . S
O1125 C1105 1.259 . S
O1125 Co1106 2.021 . S
H1126 C1117 0.930 . S
H1127 C1116 0.931 . S
O1128 Co1104 2.117 . S
O1128 C1105 1.258 . S
O1129 Co1104 2.020 . S
O1129 C1131 1.256 . S
O1130 Co1106 2.062 . S
O1130 C1131 1.255 . S
C1131 O1129 1.256 . S
C1131 O1130 1.255 . S
H1132 C1111 0.931 . S
H1133 C1119 0.931 . S
Co1134 N1139 2.057 . S
Co1134 O1151 2.021 . S
Co1134 O1154 2.062 . S
Co1134 O1158 2.117 . S
Co1134 O1159 2.020 . S
C1135 O1155 1.259 . S
C1135 O1158 1.258 . S
Co1136 N1145 2.057 . S
Co1136 O1152 2.117 . S
Co1136 O1153 2.020 . S
Co1136 O1155 2.021 . S
Co1136 O1160 2.062 . S
C1137 N1139 1.316 . S
C1137 N1140 1.347 . S
C1137 H1142 0.931 . S
C1138 N1139 1.375 . S
C1138 C1141 1.350 . S
C1138 H1143 0.930 . S
N1139 Co1134 2.057 . S
N1139 C1137 1.316 . S
N1139 C1138 1.375 . S
N1140 C1137 1.347 . S
N1140 C1141 1.373 . S
C1141 C1138 1.350 . S
C1141 N1140 1.373 . S
C1141 H1162 0.931 . S
H1142 C1137 0.931 . S
H1143 C1138 0.930 . S
C1144 O1151 1.259 . S
C1144 O1152 1.258 . S
N1145 Co1136 2.057 . S
N1145 C1146 1.316 . S
N1145 C1147 1.375 . S
C1146 N1145 1.316 . S
C1146 N1148 1.347 . S
C1146 H1157 0.931 . S
C1147 N1145 1.375 . S
C1147 C1149 1.350 . S
C1147 H1156 0.930 . S
N1148 C1146 1.347 . S
N1148 C1149 1.373 . S
C1149 C1147 1.350 . S
C1149 N1148 1.373 . S
C1149 H1163 0.931 . S
C1150 O1153 1.256 . S
C1150 O1154 1.255 . S
O1151 Co1134 2.021 . S
O1151 C1144 1.259 . S
O1152 Co1136 2.117 . S
O1152 C1144 1.258 . S
O1153 Co1136 2.020 . S
O1153 C1150 1.256 . S
O1154 Co1134 2.062 . S
O1154 C1150 1.255 . S
O1155 C1135 1.259 . S
O1155 Co1136 2.021 . S
H1156 C1147 0.930 . S
H1157 C1146 0.931 . S
O1158 Co1134 2.117 . S
O1158 C1135 1.258 . S
O1159 Co1134 2.020 . S
O1159 C1161 1.256 . S
O1160 Co1136 2.062 . S
O1160 C1161 1.255 . S
C1161 O1159 1.256 . S
C1161 O1160 1.255 . S
H1162 C1141 0.931 . S
H1163 C1149 0.931 . S
Co1164 N1169 2.057 . S
Co1164 O1181 2.021 1_455 S
Co1164 O1184 2.062 . S
Co1164 O1188 2.117 . S
Co1164 O1189 2.020 . S
C1165 O1185 1.259 . S
C1165 O1188 1.258 . S
Co1166 N1175 2.057 . S
Co1166 O1182 2.117 1_455 S
Co1166 O1183 2.020 . S
Co1166 O1185 2.021 . S
Co1166 O1190 2.062 . S
C1167 N1169 1.316 1_655 S
C1167 N1170 1.347 . S
C1167 H1172 0.931 . S
C1168 N1169 1.375 . S
C1168 C1171 1.350 . S
C1168 H1173 0.930 . S
N1169 Co1164 2.057 . S
N1169 C1167 1.316 1_455 S
N1169 C1168 1.375 . S
N1170 C1167 1.347 . S
N1170 C1171 1.373 1_655 S
C1171 C1168 1.350 . S
C1171 N1170 1.373 1_455 S
C1171 H1192 0.931 . S
H1172 C1167 0.931 . S
H1173 C1168 0.930 . S
C1174 O1181 1.259 . S
C1174 O1182 1.258 . S
N1175 Co1166 2.057 . S
N1175 C1176 1.316 . S
N1175 C1177 1.375 . S
C1176 N1175 1.316 . S
C1176 N1178 1.347 . S
C1176 H1187 0.931 . S
C1177 N1175 1.375 . S
C1177 C1179 1.350 . S
C1177 H1186 0.930 . S
N1178 C1176 1.347 . S
N1178 C1179 1.373 . S
C1179 C1177 1.350 . S
C1179 N1178 1.373 . S
C1179 H1193 0.931 . S
C1180 O1183 1.256 . S
C1180 O1184 1.255 . S
O1181 Co1164 2.021 1_655 S
O1181 C1174 1.259 . S
O1182 Co1166 2.117 1_655 S
O1182 C1174 1.258 . S
O1183 Co1166 2.020 . S
O1183 C1180 1.256 . S
O1184 Co1164 2.062 . S
O1184 C1180 1.255 . S
O1185 C1165 1.259 . S
O1185 Co1166 2.021 . S
H1186 C1177 0.930 . S
H1187 C1176 0.931 . S
O1188 Co1164 2.117 . S
O1188 C1165 1.258 . S
O1189 Co1164 2.020 . S
O1189 C1191 1.256 . S
O1190 Co1166 2.062 . S
O1190 C1191 1.255 . S
C1191 O1189 1.256 . S
C1191 O1190 1.255 . S
H1192 C1171 0.931 . S
H1193 C1179 0.931 . S
Co1194 N1199 2.057 . S
Co1194 O1211 2.021 . S
Co1194 O1214 2.062 . S
Co1194 O1218 2.117 . S
Co1194 O1219 2.020 . S
C1195 O1215 1.259 . S
C1195 O1218 1.258 . S
Co1196 N1205 2.057 . S
Co1196 O1212 2.117 . S
Co1196 O1213 2.020 . S
Co1196 O1215 2.021 . S
Co1196 O1220 2.062 . S
C1197 N1199 1.316 . S
C1197 N1200 1.347 . S
C1197 H1202 0.931 . S
C1198 N1199 1.375 . S
C1198 C1201 1.350 . S
C1198 H1203 0.930 . S
N1199 Co1194 2.057 . S
N1199 C1197 1.316 . S
N1199 C1198 1.375 . S
N1200 C1197 1.347 . S
N1200 C1201 1.373 . S
C1201 C1198 1.350 . S
C1201 N1200 1.373 . S
C1201 H1222 0.931 . S
H1202 C1197 0.931 . S
H1203 C1198 0.930 . S
C1204 O1211 1.259 . S
C1204 O1212 1.258 . S
N1205 Co1196 2.057 . S
N1205 C1206 1.316 . S
N1205 C1207 1.375 . S
C1206 N1205 1.316 . S
C1206 N1208 1.347 . S
C1206 H1217 0.931 . S
C1207 N1205 1.375 . S
C1207 C1209 1.350 . S
C1207 H1216 0.930 . S
N1208 C1206 1.347 . S
N1208 C1209 1.373 . S
C1209 C1207 1.350 . S
C1209 N1208 1.373 . S
C1209 H1223 0.931 . S
C1210 O1213 1.256 . S
C1210 O1214 1.255 . S
O1211 Co1194 2.021 . S
O1211 C1204 1.259 . S
O1212 Co1196 2.117 . S
O1212 C1204 1.258 . S
O1213 Co1196 2.020 . S
O1213 C1210 1.256 . S
O1214 Co1194 2.062 . S
O1214 C1210 1.255 . S
O1215 C1195 1.259 . S
O1215 Co1196 2.021 . S
H1216 C1207 0.930 . S
H1217 C1206 0.931 . S
O1218 Co1194 2.117 . S
O1218 C1195 1.258 . S
O1219 Co1194 2.020 . S
O1219 C1221 1.256 . S
O1220 Co1196 2.062 . S
O1220 C1221 1.255 . S
C1221 O1219 1.256 . S
C1221 O1220 1.255 . S
H1222 C1201 0.931 . S
H1223 C1209 0.931 . S
Co1224 N1229 2.057 . S
Co1224 O1241 2.021 . S
Co1224 O1244 2.062 . S
Co1224 O1248 2.117 . S
Co1224 O1249 2.020 . S
C1225 O1245 1.259 . S
C1225 O1248 1.258 . S
Co1226 N1235 2.057 . S
Co1226 O1242 2.117 . S
Co1226 O1243 2.020 . S
Co1226 O1245 2.021 . S
Co1226 O1250 2.062 . S
C1227 N1229 1.316 . S
C1227 N1230 1.347 . S
C1227 H1232 0.931 . S
C1228 N1229 1.375 . S
C1228 C1231 1.350 . S
C1228 H1233 0.930 . S
N1229 Co1224 2.057 . S
N1229 C1227 1.316 . S
N1229 C1228 1.375 . S
N1230 C1227 1.347 . S
N1230 C1231 1.373 . S
C1231 C1228 1.350 . S
C1231 N1230 1.373 . S
C1231 H1252 0.931 . S
H1232 C1227 0.931 . S
H1233 C1228 0.930 . S
C1234 O1241 1.259 . S
C1234 O1242 1.258 . S
N1235 Co1226 2.057 . S
N1235 C1236 1.316 . S
N1235 C1237 1.375 . S
C1236 N1235 1.316 . S
C1236 N1238 1.347 . S
C1236 H1247 0.931 . S
C1237 N1235 1.375 . S
C1237 C1239 1.350 . S
C1237 H1246 0.930 . S
N1238 C1236 1.347 . S
N1238 C1239 1.373 . S
C1239 C1237 1.350 . S
C1239 N1238 1.373 . S
C1239 H1253 0.931 . S
C1240 O1243 1.256 . S
C1240 O1244 1.255 . S
O1241 Co1224 2.021 . S
O1241 C1234 1.259 . S
O1242 Co1226 2.117 . S
O1242 C1234 1.258 . S
O1243 Co1226 2.020 . S
O1243 C1240 1.256 . S
O1244 Co1224 2.062 . S
O1244 C1240 1.255 . S
O1245 C1225 1.259 . S
O1245 Co1226 2.021 . S
H1246 C1237 0.930 . S
H1247 C1236 0.931 . S
O1248 Co1224 2.117 . S
O1248 C1225 1.258 . S
O1249 Co1224 2.020 . S
O1249 C1251 1.256 . S
O1250 Co1226 2.062 . S
O1250 C1251 1.255 . S
C1251 O1249 1.256 . S
C1251 O1250 1.255 . S
H1252 C1231 0.931 . S
H1253 C1239 0.931 . S
Co1254 N1259 2.057 . S
Co1254 O1271 2.021 . S
Co1254 O1274 2.062 . S
Co1254 O1278 2.117 . S
Co1254 O1279 2.020 . S
C1255 O1275 1.259 . S
C1255 O1278 1.258 . S
Co1256 N1265 2.057 . S
Co1256 O1272 2.117 . S
Co1256 O1273 2.020 . S
Co1256 O1275 2.021 . S
Co1256 O1280 2.062 . S
C1257 N1259 1.316 . S
C1257 N1260 1.347 . S
C1257 H1262 0.931 . S
C1258 N1259 1.375 . S
C1258 C1261 1.350 . S
C1258 H1263 0.930 . S
N1259 Co1254 2.057 . S
N1259 C1257 1.316 . S
N1259 C1258 1.375 . S
N1260 C1257 1.347 . S
N1260 C1261 1.373 . S
C1261 C1258 1.350 . S
C1261 N1260 1.373 . S
C1261 H1282 0.931 . S
H1262 C1257 0.931 . S
H1263 C1258 0.930 . S
C1264 O1271 1.259 . S
C1264 O1272 1.258 . S
N1265 Co1256 2.057 . S
N1265 C1266 1.316 . S
N1265 C1267 1.375 . S
C1266 N1265 1.316 . S
C1266 N1268 1.347 . S
C1266 H1277 0.931 . S
C1267 N1265 1.375 . S
C1267 C1269 1.350 . S
C1267 H1276 0.930 . S
N1268 C1266 1.347 . S
N1268 C1269 1.373 . S
C1269 C1267 1.350 . S
C1269 N1268 1.373 . S
C1269 H1283 0.931 . S
C1270 O1273 1.256 . S
C1270 O1274 1.255 . S
O1271 Co1254 2.021 . S
O1271 C1264 1.259 . S
O1272 Co1256 2.117 . S
O1272 C1264 1.258 . S
O1273 Co1256 2.020 . S
O1273 C1270 1.256 . S
O1274 Co1254 2.062 . S
O1274 C1270 1.255 . S
O1275 C1255 1.259 . S
O1275 Co1256 2.021 . S
H1276 C1267 0.930 . S
H1277 C1266 0.931 . S
O1278 Co1254 2.117 . S
O1278 C1255 1.258 . S
O1279 Co1254 2.020 . S
O1279 C1281 1.256 . S
O1280 Co1256 2.062 . S
O1280 C1281 1.255 . S
C1281 O1279 1.256 . S
C1281 O1280 1.255 . S
H1282 C1261 0.931 . S
H1283 C1269 0.931 . S
Co1284 N1289 2.057 . S
Co1284 O1301 2.021 . S
Co1284 O1304 2.062 . S
Co1284 O1308 2.117 . S
Co1284 O1309 2.020 . S
C1285 O1305 1.259 . S
C1285 O1308 1.258 . S
Co1286 N1295 2.057 . S
Co1286 O1302 2.117 . S
Co1286 O1303 2.020 . S
Co1286 O1305 2.021 . S
Co1286 O1310 2.062 . S
C1287 N1289 1.316 . S
C1287 N1290 1.347 . S
C1287 H1292 0.931 . S
C1288 N1289 1.375 . S
C1288 C1291 1.350 . S
C1288 H1293 0.930 . S
N1289 Co1284 2.057 . S
N1289 C1287 1.316 . S
N1289 C1288 1.375 . S
N1290 C1287 1.347 . S
N1290 C1291 1.373 . S
C1291 C1288 1.350 . S
C1291 N1290 1.373 . S
C1291 H1312 0.931 . S
H1292 C1287 0.931 . S
H1293 C1288 0.930 . S
C1294 O1301 1.259 . S
C1294 O1302 1.258 . S
N1295 Co1286 2.057 . S
N1295 C1296 1.316 . S
N1295 C1297 1.375 . S
C1296 N1295 1.316 . S
C1296 N1298 1.347 . S
C1296 H1307 0.931 . S
C1297 N1295 1.375 . S
C1297 C1299 1.350 . S
C1297 H1306 0.930 . S
N1298 C1296 1.347 . S
N1298 C1299 1.373 . S
C1299 C1297 1.350 . S
C1299 N1298 1.373 . S
C1299 H1313 0.931 . S
C1300 O1303 1.256 . S
C1300 O1304 1.255 . S
O1301 Co1284 2.021 . S
O1301 C1294 1.259 . S
O1302 Co1286 2.117 . S
O1302 C1294 1.258 . S
O1303 Co1286 2.020 . S
O1303 C1300 1.256 . S
O1304 Co1284 2.062 . S
O1304 C1300 1.255 . S
O1305 C1285 1.259 . S
O1305 Co1286 2.021 . S
H1306 C1297 0.930 . S
H1307 C1296 0.931 . S
O1308 Co1284 2.117 . S
O1308 C1285 1.258 . S
O1309 Co1284 2.020 . S
O1309 C1311 1.256 . S
O1310 Co1286 2.062 . S
O1310 C1311 1.255 . S
C1311 O1309 1.256 . S
C1311 O1310 1.255 . S
H1312 C1291 0.931 . S
H1313 C1299 0.931 . S
Co1314 N1319 2.057 1_455 S
Co1314 O1331 2.021 . S
Co1314 O1334 2.062 1_455 S
Co1314 O1338 2.117 . S
Co1314 O1339 2.020 1_554 S
C1315 O1335 1.259 . S
C1315 O1338 1.258 . S
Co1316 N1325 2.057 . S
Co1316 O1332 2.117 . S
Co1316 O1333 2.020 . S
Co1316 O1335 2.021 . S
Co1316 O1340 2.062 1_554 S
C1317 N1319 1.316 . S
C1317 N1320 1.347 . S
C1317 H1322 0.931 . S
C1318 N1319 1.384 . S
C1318 C1321 1.350 . S
C1318 H1323 0.922 1_554 S
N1319 Co1314 2.057 1_655 S
N1319 C1317 1.316 . S
N1319 C1318 1.384 . S
N1320 C1317 1.347 . S
N1320 C1321 1.381 . S
C1321 C1318 1.350 . S
C1321 N1320 1.381 . S
C1321 H1342 0.924 1_554 S
H1322 C1317 0.931 . S
H1323 C1318 0.922 1_556 S
C1324 O1331 1.259 . S
C1324 O1332 1.258 . S
N1325 Co1316 2.057 . S
N1325 C1326 1.316 . S
N1325 C1327 1.375 . S
C1326 N1325 1.316 . S
C1326 N1328 1.347 . S
C1326 H1337 0.931 . S
C1327 N1325 1.375 . S
C1327 C1329 1.350 . S
C1327 H1336 0.930 . S
N1328 C1326 1.347 . S
N1328 C1329 1.373 . S
C1329 C1327 1.350 . S
C1329 N1328 1.373 . S
C1329 H1343 0.931 . S
C1330 O1333 1.256 . S
C1330 O1334 1.255 1_455 S
O1331 Co1314 2.021 . S
O1331 C1324 1.259 . S
O1332 Co1316 2.117 . S
O1332 C1324 1.258 . S
O1333 Co1316 2.020 . S
O1333 C1330 1.256 . S
O1334 Co1314 2.062 1_655 S
O1334 C1330 1.255 1_655 S
O1335 C1315 1.259 . S
O1335 Co1316 2.021 . S
H1336 C1327 0.930 . S
H1337 C1326 0.931 . S
O1338 Co1314 2.117 . S
O1338 C1315 1.258 . S
O1339 Co1314 2.020 1_556 S
O1339 C1341 1.256 . S
O1340 Co1316 2.062 1_556 S
O1340 C1341 1.255 . S
C1341 O1339 1.256 . S
C1341 O1340 1.255 . S
H1342 C1321 0.924 1_556 S
H1343 C1329 0.931 . S
H1344 C1350 0.930 . S
H1345 C1354 0.930 . S
H1346 C1359 0.929 . S
H1347 C1357 0.941 . S
H1348 C1352 0.929 . S
H1349 C1358 0.929 . S
C1350 H1344 0.930 . S
C1350 C1351 1.367 . S
C1350 C1358 1.378 . S
C1351 C1350 1.367 . S
C1351 C1359 1.433 . S
C1352 H1348 0.929 . S
C1352 C1354 1.378 . S
C1352 C1356 1.350 . S
C1353 C1356 1.463 . S
C1353 C1358 1.350 . S
C1353 N1361 1.427 . S
C1354 H1345 0.930 . S
C1354 C1352 1.378 . S
C1354 C1355 1.367 . S
C1355 C1354 1.367 . S
C1355 C1357 1.433 . S
C1356 C1352 1.350 . S
C1356 C1353 1.463 . S
C1356 N1360 1.427 . S
C1357 H1347 0.941 . S
C1357 C1355 1.433 . S
C1357 N1360 1.384 . S
C1358 H1349 0.929 . S
C1358 C1350 1.378 . S
C1358 C1353 1.350 . S
C1359 H1346 0.929 . S
C1359 C1351 1.433 . S
C1359 N1361 1.384 . S
N1360 C1356 1.427 . S
N1360 C1357 1.384 . S
N1361 C1353 1.427 . S
N1361 C1359 1.384 . S
H1362 C1368 0.930 . S
H1363 C1372 0.930 . S
H1364 C1377 0.929 . S
H1365 C1375 0.929 . S
H1366 C1370 0.929 . S
H1367 C1376 0.929 . S
C1368 H1362 0.930 . S
C1368 C1369 1.367 . S
C1368 C1376 1.378 . S
C1369 C1368 1.367 . S
C1369 C1377 1.433 . S
C1370 H1366 0.929 . S
C1370 C1372 1.378 . S
C1370 C1374 1.350 . S
C1371 C1374 1.463 . S
C1371 C1376 1.350 . S
C1371 N1379 1.427 . S
C1372 H1363 0.930 . S
C1372 C1370 1.378 . S
C1372 C1373 1.367 . S
C1373 C1372 1.367 . S
C1373 C1375 1.433 . S
C1374 C1370 1.350 . S
C1374 C1371 1.463 . S
C1374 N1378 1.427 . S
C1375 H1365 0.929 . S
C1375 C1373 1.433 . S
C1375 N1378 1.384 . S
C1376 H1367 0.929 . S
C1376 C1368 1.378 . S
C1376 C1371 1.350 . S
C1377 H1364 0.929 . S
C1377 C1369 1.433 . S
C1377 N1379 1.384 . S
N1378 C1374 1.427 . S
N1378 C1375 1.384 . S
N1379 C1371 1.427 . S
N1379 C1377 1.384 . S
H1380 C1386 0.930 . S
H1381 C1390 0.930 . S
H1382 C1395 0.929 . S
H1383 C1393 0.929 . S
H1384 C1388 0.929 . S
H1385 C1394 0.929 . S
C1386 H1380 0.930 . S
C1386 C1387 1.367 . S
C1386 C1394 1.378 . S
C1387 C1386 1.367 . S
C1387 C1395 1.433 . S
C1388 H1384 0.929 . S
C1388 C1390 1.378 . S
C1388 C1392 1.350 . S
C1389 C1392 1.463 . S
C1389 C1394 1.350 . S
C1389 N1397 1.427 . S
C1390 H1381 0.930 . S
C1390 C1388 1.378 . S
C1390 C1391 1.367 . S
C1391 C1390 1.367 . S
C1391 C1393 1.433 . S
C1392 C1388 1.350 . S
C1392 C1389 1.463 . S
C1392 N1396 1.427 . S
C1393 H1383 0.929 . S
C1393 C1391 1.433 . S
C1393 N1396 1.384 . S
C1394 H1385 0.929 . S
C1394 C1386 1.378 . S
C1394 C1389 1.350 . S
C1395 H1382 0.929 . S
C1395 C1387 1.433 . S
C1395 N1397 1.384 . S
N1396 C1392 1.427 . S
N1396 C1393 1.384 . S
N1397 C1389 1.427 . S
N1397 C1395 1.384 . S
H1398 C1404 0.930 . S
H1399 C1408 0.930 . S
H1400 C1413 0.929 . S
H1401 C1411 0.929 . S
H1402 C1406 0.929 . S
H1403 C1412 0.929 . S
C1404 H1398 0.930 . S
C1404 C1405 1.367 . S
C1404 C1412 1.378 . S
C1405 C1404 1.367 . S
C1405 C1413 1.433 . S
C1406 H1402 0.929 . S
C1406 C1408 1.378 . S
C1406 C1410 1.350 . S
C1407 C1410 1.463 . S
C1407 C1412 1.350 . S
C1407 N1415 1.427 . S
C1408 H1399 0.930 . S
C1408 C1406 1.378 . S
C1408 C1409 1.367 . S
C1409 C1408 1.367 . S
C1409 C1411 1.433 . S
C1410 C1406 1.350 . S
C1410 C1407 1.463 . S
C1410 N1414 1.427 . S
C1411 H1401 0.929 . S
C1411 C1409 1.433 . S
C1411 N1414 1.384 . S
C1412 H1403 0.929 . S
C1412 C1404 1.378 . S
C1412 C1407 1.350 . S
C1413 H1400 0.929 . S
C1413 C1405 1.433 . S
C1413 N1415 1.384 . S
N1414 C1410 1.427 . S
N1414 C1411 1.384 . S
N1415 C1407 1.427 . S
N1415 C1413 1.384 . S
H1416 C1422 0.930 . S
H1417 C1426 0.930 . S
H1418 C1431 0.929 . S
H1419 C1429 0.929 . S
H1420 C1424 0.929 . S
H1421 C1430 0.964 . S
C1422 H1416 0.930 . S
C1422 C1423 1.367 . S
C1422 C1430 1.378 . S
C1423 C1422 1.367 . S
C1423 C1431 1.433 . S
C1424 H1420 0.929 . S
C1424 C1426 1.378 . S
C1424 C1428 1.350 . S
C1425 C1428 1.463 . S
C1425 C1430 1.350 . S
C1425 N1433 1.427 . S
C1426 H1417 0.930 . S
C1426 C1424 1.378 . S
C1426 C1427 1.367 . S
C1427 C1426 1.367 . S
C1427 C1429 1.433 1_455 S
C1428 C1424 1.350 . S
C1428 C1425 1.463 . S
C1428 N1432 1.427 . S
C1429 H1419 0.929 . S
C1429 C1427 1.433 1_655 S
C1429 N1432 1.384 1_655 S
C1430 H1421 0.964 . S
C1430 C1422 1.378 . S
C1430 C1425 1.350 . S
C1431 H1418 0.929 . S
C1431 C1423 1.433 . S
C1431 N1433 1.384 . S
N1432 C1428 1.427 . S
N1432 C1429 1.384 1_455 S
N1433 C1425 1.427 . S
N1433 C1431 1.384 . S
H1434 C1440 0.930 . S
H1435 C1444 0.930 . S
H1436 C1449 0.929 . S
H1437 C1447 0.929 . S
H1438 C1442 0.929 . S
H1439 C1448 0.929 . S
C1440 H1434 0.930 . S
C1440 C1441 1.367 . S
C1440 C1448 1.378 . S
C1441 C1440 1.367 . S
C1441 C1449 1.433 . S
C1442 H1438 0.929 . S
C1442 C1444 1.378 . S
C1442 C1446 1.350 . S
C1443 C1446 1.463 . S
C1443 C1448 1.350 . S
C1443 N1451 1.427 . S
C1444 H1435 0.930 . S
C1444 C1442 1.378 . S
C1444 C1445 1.367 . S
C1445 C1444 1.367 . S
C1445 C1447 1.433 . S
C1446 C1442 1.350 . S
C1446 C1443 1.463 . S
C1446 N1450 1.427 . S
C1447 H1437 0.929 . S
C1447 C1445 1.433 . S
C1447 N1450 1.384 . S
C1448 H1439 0.929 . S
C1448 C1440 1.378 . S
C1448 C1443 1.350 . S
C1449 H1436 0.929 . S
C1449 C1441 1.433 . S
C1449 N1451 1.384 . S
N1450 C1446 1.427 . S
N1450 C1447 1.384 . S
N1451 C1443 1.427 . S
N1451 C1449 1.384 . S
H1452 C1458 0.930 . S
H1453 C1462 0.930 . S
H1454 C1467 0.929 . S
H1455 C1465 0.929 . S
H1456 C1460 0.912 1_554 S
H1457 C1466 0.929 . S
C1458 H1452 0.930 . S
C1458 C1459 1.367 . S
C1458 C1466 1.378 . S
C1459 C1458 1.367 . S
C1459 C1467 1.433 . S
C1460 H1456 0.912 1_556 S
C1460 C1462 1.378 1_556 S
C1460 C1464 1.350 . S
C1461 C1464 1.463 . S
C1461 C1466 1.350 . S
C1461 N1469 1.427 . S
C1462 H1453 0.930 . S
C1462 C1460 1.378 1_554 S
C1462 C1463 1.350 1_554 S
C1463 C1462 1.350 1_556 S
C1463 C1465 1.477 . S
C1464 C1460 1.350 . S
C1464 C1461 1.463 . S
C1464 N1468 1.427 . S
C1465 H1455 0.929 . S
C1465 C1463 1.477 . S
C1465 N1468 1.384 . S
C1466 H1457 0.929 . S
C1466 C1458 1.378 . S
C1466 C1461 1.350 . S
C1467 H1454 0.929 . S
C1467 C1459 1.433 . S
C1467 N1469 1.384 . S
N1468 C1464 1.427 . S
N1468 C1465 1.384 . S
N1469 C1461 1.427 . S
N1469 C1467 1.384 . S
H1470 C1476 0.930 . S
H1471 C1480 0.930 . S
H1472 C1485 0.929 . S
H1473 C1483 0.929 . S
H1474 C1478 0.929 . S
H1475 C1484 0.929 . S
C1476 H1470 0.930 . S
C1476 C1477 1.367 . S
C1476 C1484 1.378 . S
C1477 C1476 1.367 . S
C1477 C1485 1.433 . S
C1478 H1474 0.929 . S
C1478 C1480 1.378 . S
C1478 C1482 1.350 . S
C1479 C1482 1.463 . S
C1479 C1484 1.350 . S
C1479 N1487 1.427 . S
C1480 H1471 0.930 . S
C1480 C1478 1.378 . S
C1480 C1481 1.367 . S
C1481 C1480 1.367 . S
C1481 C1483 1.433 . S
C1482 C1478 1.350 . S
C1482 C1479 1.463 . S
C1482 N1486 1.427 . S
C1483 H1473 0.929 . S
C1483 C1481 1.433 . S
C1483 N1486 1.384 . S
C1484 H1475 0.929 . S
C1484 C1476 1.378 . S
C1484 C1479 1.350 . S
C1485 H1472 0.929 . S
C1485 C1477 1.433 . S
C1485 N1487 1.384 . S
N1486 C1482 1.427 . S
N1486 C1483 1.384 . S
N1487 C1479 1.427 . S
N1487 C1485 1.384 . S
H1488 C1494 0.930 . S
H1489 C1498 0.930 . S
H1490 C1503 0.929 . S
H1491 C1501 0.929 . S
H1492 C1496 0.929 . S
H1493 C1502 0.929 . S
C1494 H1488 0.930 . S
C1494 C1495 1.367 1_565 S
C1494 C1502 1.378 . S
C1495 C1494 1.367 1_545 S
C1495 C1503 1.433 . S
C1496 H1492 0.929 . S
C1496 C1498 1.378 . S
C1496 C1500 1.350 . S
C1497 C1500 1.463 . S
C1497 C1502 1.350 1_545 S
C1497 N1505 1.427 . S
C1498 H1489 0.930 . S
C1498 C1496 1.378 . S
C1498 C1499 1.367 . S
C1499 C1498 1.367 . S
C1499 C1501 1.433 1_545 S
C1500 C1496 1.350 . S
C1500 C1497 1.463 . S
C1500 N1504 1.427 1_545 S
C1501 H1491 0.929 . S
C1501 C1499 1.433 1_565 S
C1501 N1504 1.384 . S
C1502 H1493 0.929 . S
C1502 C1494 1.378 . S
C1502 C1497 1.350 1_565 S
C1503 H1490 0.929 . S
C1503 C1495 1.433 . S
C1503 N1505 1.384 . S
N1504 C1500 1.427 1_565 S
N1504 C1501 1.384 . S
N1505 C1497 1.427 . S
N1505 C1503 1.384 . S
H1506 C1512 0.930 . S
H1507 C1516 0.930 . S
H1508 C1521 0.929 . S
H1509 C1519 0.929 . S
H1510 C1514 0.929 . S
H1511 C1520 0.929 . S
C1512 H1506 0.930 . S
C1512 C1513 1.367 . S
C1512 C1520 1.378 . S
C1513 C1512 1.367 . S
C1513 C1521 1.433 . S
C1514 H1510 0.929 . S
C1514 C1516 1.378 . S
C1514 C1518 1.350 . S
C1515 C1518 1.463 . S
C1515 C1520 1.350 . S
C1515 N1523 1.427 . S
C1516 H1507 0.930 . S
C1516 C1514 1.378 . S
C1516 C1517 1.367 . S
C1517 C1516 1.367 . S
C1517 C1519 1.433 . S
C1518 C1514 1.350 . S
C1518 C1515 1.463 . S
C1518 N1522 1.427 . S
C1519 H1509 0.929 . S
C1519 C1517 1.433 . S
C1519 N1522 1.384 . S
C1520 H1511 0.929 . S
C1520 C1512 1.378 . S
C1520 C1515 1.350 . S
C1521 H1508 0.929 . S
C1521 C1513 1.433 . S
C1521 N1523 1.384 . S
N1522 C1518 1.427 . S
N1522 C1519 1.384 . S
N1523 C1515 1.427 . S
N1523 C1521 1.384 . S
H1524 C1530 0.930 . S
H1525 C1534 0.930 . S
H1526 C1539 0.929 . S
H1527 C1537 0.929 . S
H1528 C1532 0.929 . S
H1529 C1538 0.929 . S
C1530 H1524 0.930 . S
C1530 C1531 1.367 . S
C1530 C1538 1.378 . S
C1531 C1530 1.367 . S
C1531 C1539 1.433 . S
C1532 H1528 0.929 . S
C1532 C1534 1.378 . S
C1532 C1536 1.350 . S
C1533 C1536 1.463 . S
C1533 C1538 1.350 . S
C1533 N1541 1.427 . S
C1534 H1525 0.930 . S
C1534 C1532 1.378 . S
C1534 C1535 1.367 . S
C1535 C1534 1.367 . S
C1535 C1537 1.433 . S
C1536 C1532 1.350 . S
C1536 C1533 1.463 . S
C1536 N1540 1.427 . S
C1537 H1527 0.929 . S
C1537 C1535 1.433 . S
C1537 N1540 1.384 . S
C1538 H1529 0.929 . S
C1538 C1530 1.378 . S
C1538 C1533 1.350 . S
C1539 H1526 0.929 . S
C1539 C1531 1.433 . S
C1539 N1541 1.384 . S
N1540 C1536 1.427 . S
N1540 C1537 1.384 . S
N1541 C1533 1.427 . S
N1541 C1539 1.384 . S
H1542 C1548 0.930 . S
H1543 C1552 0.930 . S
H1544 C1557 0.929 . S
H1545 C1555 0.929 . S
H1546 C1550 0.929 . S
H1547 C1556 0.929 . S
C1548 H1542 0.930 . S
C1548 C1549 1.367 . S
C1548 C1556 1.378 . S
C1549 C1548 1.367 . S
C1549 C1557 1.433 . S
C1550 H1546 0.929 . S
C1550 C1552 1.378 . S
C1550 C1554 1.350 . S
C1551 C1554 1.463 . S
C1551 C1556 1.350 . S
C1551 N1559 1.427 . S
C1552 H1543 0.930 . S
C1552 C1550 1.378 . S
C1552 C1553 1.367 . S
C1553 C1552 1.367 . S
C1553 C1555 1.433 . S
C1554 C1550 1.350 . S
C1554 C1551 1.463 . S
C1554 N1558 1.427 . S
C1555 H1545 0.929 . S
C1555 C1553 1.433 . S
C1555 N1558 1.384 . S
C1556 H1547 0.929 . S
C1556 C1548 1.378 . S
C1556 C1551 1.350 . S
C1557 H1544 0.929 . S
C1557 C1549 1.433 . S
C1557 N1559 1.384 . S
N1558 C1554 1.427 . S
N1558 C1555 1.384 . S
N1559 C1551 1.427 . S
N1559 C1557 1.384 . S
H1560 C1566 0.913 1_565 S
H1561 C1570 0.930 . S
H1562 C1575 0.929 . S
H1563 C1573 0.929 . S
H1564 C1568 0.929 . S
H1565 C1574 0.929 . S
C1566 H1560 0.913 1_545 S
C1566 C1567 1.367 . S
C1566 C1574 1.378 . S
C1567 C1566 1.367 . S
C1567 C1575 1.433 . S
C1568 H1564 0.929 . S
C1568 C1570 1.378 . S
C1568 C1572 1.350 . S
C1569 C1572 1.463 . S
C1569 C1574 1.350 . S
C1569 N1577 1.427 . S
C1570 H1561 0.930 . S
C1570 C1568 1.378 . S
C1570 C1571 1.367 . S
C1571 C1570 1.367 . S
C1571 C1573 1.433 . S
C1572 C1568 1.350 . S
C1572 C1569 1.463 . S
C1572 N1576 1.427 . S
C1573 H1563 0.929 . S
C1573 C1571 1.433 . S
C1573 N1576 1.384 . S
C1574 H1565 0.929 . S
C1574 C1566 1.378 . S
C1574 C1569 1.350 . S
C1575 H1562 0.929 . S
C1575 C1567 1.433 . S
C1575 N1577 1.384 . S
N1576 C1572 1.427 . S
N1576 C1573 1.384 . S
N1577 C1569 1.427 . S
N1577 C1575 1.384 . S
H1578 C1584 0.930 . S
H1579 C1588 0.930 . S
H1580 C1593 0.929 . S
H1581 C1591 0.929 . S
H1582 C1586 0.929 . S
H1583 C1592 0.929 . S
C1584 H1578 0.930 . S
C1584 C1585 1.367 . S
C1584 C1592 1.378 . S
C1585 C1584 1.367 . S
C1585 C1593 1.433 . S
C1586 H1582 0.929 . S
C1586 C1588 1.378 . S
C1586 C1590 1.350 . S
C1587 C1590 1.463 . S
C1587 C1592 1.350 . S
C1587 N1595 1.427 . S
C1588 H1579 0.930 . S
C1588 C1586 1.378 . S
C1588 C1589 1.367 . S
C1589 C1588 1.367 . S
C1589 C1591 1.433 . S
C1590 C1586 1.350 . S
C1590 C1587 1.463 . S
C1590 N1594 1.427 . S
C1591 H1581 0.929 . S
C1591 C1589 1.433 . S
C1591 N1594 1.384 . S
C1592 H1583 0.929 . S
C1592 C1584 1.378 . S
C1592 C1587 1.350 . S
C1593 H1580 0.929 . S
C1593 C1585 1.433 . S
C1593 N1595 1.384 . S
N1594 C1590 1.427 . S
N1594 C1591 1.384 . S
N1595 C1587 1.427 . S
N1595 C1593 1.384 . S
H1596 C1602 0.930 . S
H1597 C1606 0.930 . S
H1598 C1611 0.929 . S
H1599 C1609 0.929 . S
H1600 C1604 0.929 . S
H1601 C1610 0.929 . S
C1602 H1596 0.930 . S
C1602 C1603 1.367 . S
C1602 C1610 1.378 . S
C1603 C1602 1.367 . S
C1603 C1611 1.433 . S
C1604 H1600 0.929 . S
C1604 C1606 1.378 . S
C1604 C1608 1.350 . S
C1605 C1608 1.463 . S
C1605 C1610 1.350 . S
C1605 N1613 1.427 . S
C1606 H1597 0.930 . S
C1606 C1604 1.378 . S
C1606 C1607 1.367 . S
C1607 C1606 1.367 . S
C1607 C1609 1.433 . S
C1608 C1604 1.350 . S
C1608 C1605 1.463 . S
C1608 N1612 1.427 . S
C1609 H1599 0.929 . S
C1609 C1607 1.433 . S
C1609 N1612 1.384 . S
C1610 H1601 0.929 . S
C1610 C1602 1.378 . S
C1610 C1605 1.350 . S
C1611 H1598 0.929 . S
C1611 C1603 1.433 . S
C1611 N1613 1.384 . S
N1612 C1608 1.427 . S
N1612 C1609 1.384 . S
N1613 C1605 1.427 . S
N1613 C1611 1.384 . S
H1614 C1620 0.930 . S
H1615 C1624 0.930 . S
H1616 C1629 0.929 . S
H1617 C1627 0.929 . S
H1618 C1622 0.929 . S
H1619 C1628 0.929 . S
C1620 H1614 0.930 . S
C1620 C1621 1.367 . S
C1620 C1628 1.378 . S
C1621 C1620 1.367 . S
C1621 C1629 1.433 . S
C1622 H1618 0.929 . S
C1622 C1624 1.378 . S
C1622 C1626 1.350 . S
C1623 C1626 1.463 . S
C1623 C1628 1.350 . S
C1623 N1631 1.427 . S
C1624 H1615 0.930 . S
C1624 C1622 1.378 . S
C1624 C1625 1.367 . S
C1625 C1624 1.367 . S
C1625 C1627 1.433 . S
C1626 C1622 1.350 . S
C1626 C1623 1.463 . S
C1626 N1630 1.427 . S
C1627 H1617 0.929 . S
C1627 C1625 1.433 . S
C1627 N1630 1.384 . S
C1628 H1619 0.929 . S
C1628 C1620 1.378 . S
C1628 C1623 1.350 . S
C1629 H1616 0.929 . S
C1629 C1621 1.433 . S
C1629 N1631 1.384 . S
N1630 C1626 1.427 . S
N1630 C1627 1.384 . S
N1631 C1623 1.427 . S
N1631 C1629 1.384 . S
H1632 C1638 0.930 . S
H1633 C1642 0.930 1_556 S
H1634 C1647 0.929 . S
H1635 C1645 0.929 . S
H1636 C1640 0.929 . S
H1637 C1646 0.929 . S
C1638 H1632 0.930 . S
C1638 C1639 1.367 . S
C1638 C1646 1.378 . S
C1639 C1638 1.367 . S
C1639 C1647 1.433 . S
C1640 H1636 0.929 . S
C1640 C1642 1.378 . S
C1640 C1644 1.350 . S
C1641 C1644 1.463 . S
C1641 C1646 1.350 . S
C1641 N1649 1.427 . S
C1642 H1633 0.930 1_554 S
C1642 C1640 1.378 . S
C1642 C1643 1.367 . S
C1643 C1642 1.367 . S
C1643 C1645 1.433 . S
C1644 C1640 1.350 . S
C1644 C1641 1.463 . S
C1644 N1648 1.427 . S
C1645 H1635 0.929 . S
C1645 C1643 1.433 . S
C1645 N1648 1.384 . S
C1646 H1637 0.929 . S
C1646 C1638 1.378 . S
C1646 C1641 1.350 . S
C1647 H1634 0.929 . S
C1647 C1639 1.433 . S
C1647 N1649 1.384 . S
N1648 C1644 1.427 . S
N1648 C1645 1.384 . S
N1649 C1641 1.427 . S
N1649 C1647 1.384 . S
H1650 C1656 0.930 . S
H1651 C1660 0.930 . S
H1652 C1665 0.929 . S
H1653 C1663 0.929 . S
H1654 C1658 0.929 . S
H1655 C1664 0.929 . S
C1656 H1650 0.930 . S
C1656 C1657 1.367 . S
C1656 C1664 1.378 . S
C1657 C1656 1.367 . S
C1657 C1665 1.433 . S
C1658 H1654 0.929 . S
C1658 C1660 1.378 . S
C1658 C1662 1.350 . S
C1659 C1662 1.463 . S
C1659 C1664 1.350 . S
C1659 N1667 1.427 . S
C1660 H1651 0.930 . S
C1660 C1658 1.378 . S
C1660 C1661 1.367 . S
C1661 C1660 1.367 . S
C1661 C1663 1.433 . S
C1662 C1658 1.350 . S
C1662 C1659 1.463 . S
C1662 N1666 1.427 . S
C1663 H1653 0.929 . S
C1663 C1661 1.433 . S
C1663 N1666 1.384 . S
C1664 H1655 0.929 . S
C1664 C1656 1.378 . S
C1664 C1659 1.350 . S
C1665 H1652 0.929 . S
C1665 C1657 1.433 . S
C1665 N1667 1.384 . S
N1666 C1662 1.427 . S
N1666 C1663 1.384 . S
N1667 C1659 1.427 . S
N1667 C1665 1.384 . S
H1668 C1674 0.930 . S
H1669 C1678 0.930 . S
H1670 C1683 0.929 . S
H1671 C1681 0.929 . S
H1672 C1676 0.929 . S
H1673 C1682 0.929 . S
C1674 H1668 0.930 . S
C1674 C1675 1.367 . S
C1674 C1682 1.378 . S
C1675 C1674 1.367 . S
C1675 C1683 1.433 . S
C1676 H1672 0.929 . S
C1676 C1678 1.378 . S
C1676 C1680 1.350 . S
C1677 C1680 1.463 . S
C1677 C1682 1.350 . S
C1677 N1685 1.427 . S
C1678 H1669 0.930 . S
C1678 C1676 1.378 . S
C1678 C1679 1.367 . S
C1679 C1678 1.367 . S
C1679 C1681 1.433 . S
C1680 C1676 1.350 . S
C1680 C1677 1.463 . S
C1680 N1684 1.427 . S
C1681 H1671 0.929 . S
C1681 C1679 1.433 . S
C1681 N1684 1.384 . S
C1682 H1673 0.929 . S
C1682 C1674 1.378 . S
C1682 C1677 1.350 . S
C1683 H1670 0.929 . S
C1683 C1675 1.433 . S
C1683 N1685 1.384 . S
N1684 C1680 1.427 . S
N1684 C1681 1.384 . S
N1685 C1677 1.427 . S
N1685 C1683 1.384 . S
H1686 C1692 0.930 . S
H1687 C1696 0.930 . S
H1688 C1701 0.929 . S
H1689 C1699 0.929 . S
H1690 C1694 0.929 . S
H1691 C1700 0.929 . S
C1692 H1686 0.930 . S
C1692 C1693 1.367 . S
C1692 C1700 1.378 . S
C1693 C1692 1.367 . S
C1693 C1701 1.433 . S
C1694 H1690 0.929 . S
C1694 C1696 1.378 . S
C1694 C1698 1.350 . S
C1695 C1698 1.463 . S
C1695 C1700 1.350 . S
C1695 N1703 1.427 . S
C1696 H1687 0.930 . S
C1696 C1694 1.378 . S
C1696 C1697 1.367 . S
C1697 C1696 1.367 . S
C1697 C1699 1.433 . S
C1698 C1694 1.350 . S
C1698 C1695 1.463 . S
C1698 N1702 1.427 . S
C1699 H1689 0.929 . S
C1699 C1697 1.433 . S
C1699 N1702 1.384 . S
C1700 H1691 0.929 . S
C1700 C1692 1.378 . S
C1700 C1695 1.350 . S
C1701 H1688 0.929 . S
C1701 C1693 1.433 . S
C1701 N1703 1.384 . S
N1702 C1698 1.427 . S
N1702 C1699 1.384 . S
N1703 C1695 1.427 . S
N1703 C1701 1.384 . S
H1704 C1710 0.930 . S
H1705 C1714 0.930 . S
H1706 C1719 0.929 . S
H1707 C1717 0.929 . S
H1708 C1712 0.929 . S
H1709 C1718 0.929 . S
C1710 H1704 0.930 . S
C1710 C1711 1.367 . S
C1710 C1718 1.378 . S
C1711 C1710 1.367 . S
C1711 C1719 1.433 . S
C1712 H1708 0.929 . S
C1712 C1714 1.378 . S
C1712 C1716 1.350 . S
C1713 C1716 1.463 . S
C1713 C1718 1.350 . S
C1713 N1721 1.427 . S
C1714 H1705 0.930 . S
C1714 C1712 1.378 . S
C1714 C1715 1.367 . S
C1715 C1714 1.367 . S
C1715 C1717 1.433 . S
C1716 C1712 1.350 . S
C1716 C1713 1.463 . S
C1716 N1720 1.427 . S
C1717 H1707 0.929 . S
C1717 C1715 1.433 . S
C1717 N1720 1.384 . S
C1718 H1709 0.929 . S
C1718 C1710 1.378 . S
C1718 C1713 1.350 . S
C1719 H1706 0.929 . S
C1719 C1711 1.433 . S
C1719 N1721 1.384 . S
N1720 C1716 1.427 . S
N1720 C1717 1.384 . S
N1721 C1713 1.427 . S
N1721 C1719 1.384 . S
H1722 C1728 0.930 . S
H1723 C1732 0.930 . S
H1724 C1737 0.929 . S
H1725 C1735 0.929 . S
H1726 C1730 0.929 . S
H1727 C1736 0.929 . S
C1728 H1722 0.930 . S
C1728 C1729 1.367 . S
C1728 C1736 1.378 . S
C1729 C1728 1.367 . S
C1729 C1737 1.433 . S
C1730 H1726 0.929 . S
C1730 C1732 1.378 . S
C1730 C1734 1.350 . S
C1731 C1734 1.463 . S
C1731 C1736 1.350 . S
C1731 N1739 1.427 . S
C1732 H1723 0.930 . S
C1732 C1730 1.378 . S
C1732 C1733 1.367 . S
C1733 C1732 1.367 . S
C1733 C1735 1.433 . S
C1734 C1730 1.350 . S
C1734 C1731 1.463 . S
C1734 N1738 1.427 . S
C1735 H1725 0.929 . S
C1735 C1733 1.433 . S
C1735 N1738 1.384 . S
C1736 H1727 0.929 . S
C1736 C1728 1.378 . S
C1736 C1731 1.350 . S
C1737 H1724 0.929 . S
C1737 C1729 1.433 . S
C1737 N1739 1.384 . S
N1738 C1734 1.427 . S
N1738 C1735 1.384 . S
N1739 C1731 1.427 . S
N1739 C1737 1.384 . S
H1740 C1746 0.930 . S
H1741 C1750 0.930 . S
H1742 C1755 0.929 . S
H1743 C1753 0.929 . S
H1744 C1748 0.929 . S
H1745 C1754 0.929 . S
C1746 H1740 0.930 . S
C1746 C1747 1.367 . S
C1746 C1754 1.378 . S
C1747 C1746 1.367 . S
C1747 C1755 1.433 . S
C1748 H1744 0.929 . S
C1748 C1750 1.378 . S
C1748 C1752 1.350 . S
C1749 C1752 1.463 . S
C1749 C1754 1.350 . S
C1749 N1757 1.427 . S
C1750 H1741 0.930 . S
C1750 C1748 1.378 . S
C1750 C1751 1.367 . S
C1751 C1750 1.367 . S
C1751 C1753 1.433 . S
C1752 C1748 1.350 . S
C1752 C1749 1.463 . S
C1752 N1756 1.427 . S
C1753 H1743 0.929 . S
C1753 C1751 1.433 . S
C1753 N1756 1.384 . S
C1754 H1745 0.929 . S
C1754 C1746 1.378 . S
C1754 C1749 1.350 . S
C1755 H1742 0.929 . S
C1755 C1747 1.433 . S
C1755 N1757 1.384 . S
N1756 C1752 1.427 . S
N1756 C1753 1.384 . S
N1757 C1749 1.427 . S
N1757 C1755 1.384 . S
H1758 C1764 0.930 . S
H1759 C1768 0.930 . S
H1760 C1773 0.929 . S
H1761 C1771 0.929 . S
H1762 C1766 0.929 . S
H1763 C1772 0.929 . S
C1764 H1758 0.930 . S
C1764 C1765 1.367 . S
C1764 C1772 1.378 . S
C1765 C1764 1.367 . S
C1765 C1773 1.433 . S
C1766 H1762 0.929 . S
C1766 C1768 1.378 . S
C1766 C1770 1.350 . S
C1767 C1770 1.463 . S
C1767 C1772 1.350 . S
C1767 N1775 1.427 . S
C1768 H1759 0.930 . S
C1768 C1766 1.378 . S
C1768 C1769 1.367 . S
C1769 C1768 1.367 . S
C1769 C1771 1.433 . S
C1770 C1766 1.350 . S
C1770 C1767 1.463 . S
C1770 N1774 1.427 . S
C1771 H1761 0.929 . S
C1771 C1769 1.433 . S
C1771 N1774 1.384 . S
C1772 H1763 0.929 . S
C1772 C1764 1.378 . S
C1772 C1767 1.350 . S
C1773 H1760 0.929 . S
C1773 C1765 1.433 . S
C1773 N1775 1.384 . S
N1774 C1770 1.427 . S
N1774 C1771 1.384 . S
N1775 C1767 1.427 . S
N1775 C1773 1.384 . S
H1776 C1782 0.930 . S
H1777 C1786 0.930 . S
H1778 C1791 0.929 . S
H1779 C1789 0.929 . S
H1780 C1784 0.929 . S
H1781 C1790 0.929 . S
C1782 H1776 0.930 . S
C1782 C1783 1.367 . S
C1782 C1790 1.378 . S
C1783 C1782 1.367 . S
C1783 C1791 1.433 . S
C1784 H1780 0.929 . S
C1784 C1786 1.378 . S
C1784 C1788 1.350 . S
C1785 C1788 1.463 . S
C1785 C1790 1.350 . S
C1785 N1793 1.427 . S
C1786 H1777 0.930 . S
C1786 C1784 1.378 . S
C1786 C1787 1.367 . S
C1787 C1786 1.367 . S
C1787 C1789 1.433 1_556 S
C1788 C1784 1.350 . S
C1788 C1785 1.463 . S
C1788 N1792 1.427 . S
C1789 H1779 0.929 . S
C1789 C1787 1.433 1_554 S
C1789 N1792 1.384 1_554 S
C1790 H1781 0.929 . S
C1790 C1782 1.378 . S
C1790 C1785 1.350 . S
C1791 H1778 0.929 . S
C1791 C1783 1.433 . S
C1791 N1793 1.384 . S
N1792 C1788 1.427 . S
N1792 C1789 1.384 1_556 S
N1793 C1785 1.427 . S
N1793 C1791 1.384 . S
H1794 C1800 0.930 . S
H1795 C1804 0.930 . S
H1796 C1809 0.929 . S
H1797 C1807 0.929 . S
H1798 C1802 0.929 . S
H1799 C1808 0.929 . S
C1800 H1794 0.930 . S
C1800 C1801 1.367 . S
C1800 C1808 1.378 . S
C1801 C1800 1.367 . S
C1801 C1809 1.433 . S
C1802 H1798 0.929 . S
C1802 C1804 1.378 . S
C1802 C1806 1.350 . S
C1803 C1806 1.463 . S
C1803 C1808 1.350 . S
C1803 N1811 1.427 . S
C1804 H1795 0.930 . S
C1804 C1802 1.378 . S
C1804 C1805 1.367 . S
C1805 C1804 1.367 . S
C1805 C1807 1.433 . S
C1806 C1802 1.350 . S
C1806 C1803 1.463 . S
C1806 N1810 1.427 . S
C1807 H1797 0.929 . S
C1807 C1805 1.433 . S
C1807 N1810 1.384 . S
C1808 H1799 0.929 . S
C1808 C1800 1.378 . S
C1808 C1803 1.350 . S
C1809 H1796 0.929 . S
C1809 C1801 1.433 . S
C1809 N1811 1.384 . S
N1810 C1806 1.427 . S
N1810 C1807 1.384 . S
N1811 C1803 1.427 . S
N1811 C1809 1.384 . S
H1812 C1818 0.930 . S
H1813 C1822 0.930 . S
H1814 C1827 0.929 . S
H1815 C1825 0.929 . S
H1816 C1820 0.929 . S
H1817 C1826 0.929 . S
C1818 H1812 0.930 . S
C1818 C1819 1.367 . S
C1818 C1826 1.378 . S
C1819 C1818 1.367 . S
C1819 C1827 1.433 . S
C1820 H1816 0.929 . S
C1820 C1822 1.378 . S
C1820 C1824 1.350 . S
C1821 C1824 1.463 . S
C1821 C1826 1.350 . S
C1821 N1829 1.427 . S
C1822 H1813 0.930 . S
C1822 C1820 1.378 . S
C1822 C1823 1.367 . S
C1823 C1822 1.367 . S
C1823 C1825 1.433 . S
C1824 C1820 1.350 . S
C1824 C1821 1.463 . S
C1824 N1828 1.427 . S
C1825 H1815 0.929 . S
C1825 C1823 1.433 . S
C1825 N1828 1.384 . S
C1826 H1817 0.929 . S
C1826 C1818 1.378 . S
C1826 C1821 1.350 . S
C1827 H1814 0.929 . S
C1827 C1819 1.433 . S
C1827 N1829 1.384 . S
N1828 C1824 1.427 . S
N1828 C1825 1.384 . S
N1829 C1821 1.427 . S
N1829 C1827 1.384 . S
H1830 C1836 0.930 . S
H1831 C1840 0.930 . S
H1832 C1845 0.929 . S
H1833 C1843 0.929 . S
H1834 C1838 0.929 . S
H1835 C1844 0.929 . S
C1836 H1830 0.930 . S
C1836 C1837 1.367 . S
C1836 C1844 1.378 . S
C1837 C1836 1.367 . S
C1837 C1845 1.433 . S
C1838 H1834 0.929 . S
C1838 C1840 1.378 . S
C1838 C1842 1.350 . S
C1839 C1842 1.463 . S
C1839 C1844 1.350 . S
C1839 N1847 1.427 . S
C1840 H1831 0.930 . S
C1840 C1838 1.378 . S
C1840 C1841 1.367 . S
C1841 C1840 1.367 . S
C1841 C1843 1.433 . S
C1842 C1838 1.350 . S
C1842 C1839 1.463 . S
C1842 N1846 1.427 . S
C1843 H1833 0.929 . S
C1843 C1841 1.433 . S
C1843 N1846 1.384 . S
C1844 H1835 0.929 . S
C1844 C1836 1.378 . S
C1844 C1839 1.350 . S
C1845 H1832 0.929 . S
C1845 C1837 1.433 . S
C1845 N1847 1.384 . S
N1846 C1842 1.427 . S
N1846 C1843 1.384 . S
N1847 C1839 1.427 . S
N1847 C1845 1.384 . S
H1848 C1854 0.930 . S
H1849 C1858 0.930 . S
H1850 C1863 0.929 . S
H1851 C1861 0.929 . S
H1852 C1856 0.929 . S
H1853 C1862 0.929 . S
C1854 H1848 0.930 . S
C1854 C1855 1.367 1_655 S
C1854 C1862 1.378 . S
C1855 C1854 1.367 1_455 S
C1855 C1863 1.433 . S
C1856 H1852 0.929 . S
C1856 C1858 1.378 . S
C1856 C1860 1.350 . S
C1857 C1860 1.463 . S
C1857 C1862 1.350 1_455 S
C1857 N1865 1.427 . S
C1858 H1849 0.930 . S
C1858 C1856 1.378 . S
C1858 C1859 1.367 . S
C1859 C1858 1.367 . S
C1859 C1861 1.433 . S
C1860 C1856 1.350 . S
C1860 C1857 1.463 . S
C1860 N1864 1.427 . S
C1861 H1851 0.929 . S
C1861 C1859 1.433 . S
C1861 N1864 1.384 . S
C1862 H1853 0.929 . S
C1862 C1854 1.378 . S
C1862 C1857 1.350 1_655 S
C1863 H1850 0.929 . S
C1863 C1855 1.433 . S
C1863 N1865 1.384 . S
N1864 C1860 1.427 . S
N1864 C1861 1.384 . S
N1865 C1857 1.427 . S
N1865 C1863 1.384 . S
H1866 C1872 0.930 . S
H1867 C1876 0.930 . S
H1868 C1881 0.929 . S
H1869 C1879 0.929 . S
H1870 C1874 0.929 . S
H1871 C1880 0.929 . S
C1872 H1866 0.930 . S
C1872 C1873 1.367 . S
C1872 C1880 1.378 . S
C1873 C1872 1.367 . S
C1873 C1881 1.433 . S
C1874 H1870 0.929 . S
C1874 C1876 1.378 . S
C1874 C1878 1.350 . S
C1875 C1878 1.463 . S
C1875 C1880 1.350 . S
C1875 N1883 1.427 . S
C1876 H1867 0.930 . S
C1876 C1874 1.378 . S
C1876 C1877 1.367 . S
C1877 C1876 1.367 . S
C1877 C1879 1.433 . S
C1878 C1874 1.350 . S
C1878 C1875 1.463 . S
C1878 N1882 1.427 . S
C1879 H1869 0.929 . S
C1879 C1877 1.433 . S
C1879 N1882 1.384 . S
C1880 H1871 0.929 . S
C1880 C1872 1.378 . S
C1880 C1875 1.350 . S
C1881 H1868 0.929 . S
C1881 C1873 1.433 . S
C1881 N1883 1.384 . S
N1882 C1878 1.427 . S
N1882 C1879 1.384 . S
N1883 C1875 1.427 . S
N1883 C1881 1.384 . S
H1884 C1890 0.930 . S
H1885 C1894 0.930 . S
H1886 C1899 0.929 . S
H1887 C1897 0.929 . S
H1888 C1892 0.929 . S
H1889 C1898 0.929 . S
C1890 H1884 0.930 . S
C1890 C1891 1.367 . S
C1890 C1898 1.378 . S
C1891 C1890 1.367 . S
C1891 C1899 1.433 . S
C1892 H1888 0.929 . S
C1892 C1894 1.378 . S
C1892 C1896 1.350 . S
C1893 C1896 1.463 . S
C1893 C1898 1.350 . S
C1893 N1901 1.427 . S
C1894 H1885 0.930 . S
C1894 C1892 1.378 . S
C1894 C1895 1.367 . S
C1895 C1894 1.367 . S
C1895 C1897 1.433 . S
C1896 C1892 1.350 . S
C1896 C1893 1.463 . S
C1896 N1900 1.427 . S
C1897 H1887 0.929 . S
C1897 C1895 1.433 . S
C1897 N1900 1.384 . S
C1898 H1889 0.929 . S
C1898 C1890 1.378 . S
C1898 C1893 1.350 . S
C1899 H1886 0.929 . S
C1899 C1891 1.433 . S
C1899 N1901 1.384 . S
N1900 C1896 1.427 . S
N1900 C1897 1.384 . S
N1901 C1893 1.427 . S
N1901 C1899 1.384 . S
H1902 C1908 0.930 . S
H1903 C1912 0.930 . S
H1904 C1917 0.929 . S
H1905 C1915 0.929 . S
H1906 C1910 0.929 . S
H1907 C1916 0.929 . S
C1908 H1902 0.930 . S
C1908 C1909 1.367 . S
C1908 C1916 1.378 . S
C1909 C1908 1.367 . S
C1909 C1917 1.433 . S
C1910 H1906 0.929 . S
C1910 C1912 1.378 . S
C1910 C1914 1.350 . S
C1911 C1914 1.463 . S
C1911 C1916 1.350 . S
C1911 N1919 1.427 . S
C1912 H1903 0.930 . S
C1912 C1910 1.378 . S
C1912 C1913 1.367 . S
C1913 C1912 1.367 . S
C1913 C1915 1.433 . S
C1914 C1910 1.350 . S
C1914 C1911 1.463 . S
C1914 N1918 1.427 . S
C1915 H1905 0.929 . S
C1915 C1913 1.433 . S
C1915 N1918 1.384 . S
C1916 H1907 0.929 . S
C1916 C1908 1.378 . S
C1916 C1911 1.350 . S
C1917 H1904 0.929 . S
C1917 C1909 1.433 . S
C1917 N1919 1.384 . S
N1918 C1914 1.427 . S
N1918 C1915 1.384 . S
N1919 C1911 1.427 . S
N1919 C1917 1.384 . S
H1920 C1926 0.930 . S
H1921 C1930 0.930 . S
H1922 C1935 0.929 . S
H1923 C1933 0.929 . S
H1924 C1928 0.929 . S
H1925 C1934 0.929 . S
C1926 H1920 0.930 . S
C1926 C1927 1.367 . S
C1926 C1934 1.378 . S
C1927 C1926 1.367 . S
C1927 C1935 1.433 . S
C1928 H1924 0.929 . S
C1928 C1930 1.378 . S
C1928 C1932 1.350 . S
C1929 C1932 1.463 . S
C1929 C1934 1.350 . S
C1929 N1937 1.427 . S
C1930 H1921 0.930 . S
C1930 C1928 1.378 . S
C1930 C1931 1.367 . S
C1931 C1930 1.367 . S
C1931 C1933 1.433 . S
C1932 C1928 1.350 . S
C1932 C1929 1.463 . S
C1932 N1936 1.427 . S
C1933 H1923 0.929 . S
C1933 C1931 1.433 . S
C1933 N1936 1.384 . S
C1934 H1925 0.929 . S
C1934 C1926 1.378 . S
C1934 C1929 1.350 . S
C1935 H1922 0.929 . S
C1935 C1927 1.433 . S
C1935 N1937 1.384 . S
N1936 C1932 1.427 . S
N1936 C1933 1.384 . S
N1937 C1929 1.427 . S
N1937 C1935 1.384 . S
H1938 C1944 0.930 . S
H1939 C1948 0.930 . S
H1940 C1953 0.929 . S
H1941 C1951 0.929 . S
H1942 C1946 0.929 . S
H1943 C1952 0.929 . S
C1944 H1938 0.930 . S
C1944 C1945 1.367 . S
C1944 C1952 1.378 . S
C1945 C1944 1.367 . S
C1945 C1953 1.433 . S
C1946 H1942 0.929 . S
C1946 C1948 1.378 . S
C1946 C1950 1.350 . S
C1947 C1950 1.463 . S
C1947 C1952 1.350 . S
C1947 N1955 1.427 . S
C1948 H1939 0.930 . S
C1948 C1946 1.378 . S
C1948 C1949 1.367 . S
C1949 C1948 1.367 . S
C1949 C1951 1.433 . S
C1950 C1946 1.350 . S
C1950 C1947 1.463 . S
C1950 N1954 1.427 . S
C1951 H1941 0.929 . S
C1951 C1949 1.433 . S
C1951 N1954 1.384 . S
C1952 H1943 0.929 . S
C1952 C1944 1.378 . S
C1952 C1947 1.350 . S
C1953 H1940 0.929 . S
C1953 C1945 1.433 . S
C1953 N1955 1.384 . S
N1954 C1950 1.427 . S
N1954 C1951 1.384 . S
N1955 C1947 1.427 . S
N1955 C1953 1.384 . S
H1956 C1962 0.930 . S
H1957 C1966 0.930 . S
H1958 C1971 0.929 . S
H1959 C1969 0.929 . S
H1960 C1964 0.929 . S
H1961 C1970 0.929 . S
C1962 H1956 0.930 . S
C1962 C1963 1.367 1_565 S
C1962 C1970 1.378 . S
C1963 C1962 1.367 1_545 S
C1963 C1971 1.433 . S
C1964 H1960 0.929 . S
C1964 C1966 1.378 . S
C1964 C1968 1.350 . S
C1965 C1968 1.463 . S
C1965 C1970 1.350 1_545 S
C1965 N1973 1.427 . S
C1966 H1957 0.930 . S
C1966 C1964 1.378 . S
C1966 C1967 1.367 . S
C1967 C1966 1.367 . S
C1967 C1969 1.433 1_545 S
C1968 C1964 1.350 . S
C1968 C1965 1.463 . S
C1968 N1972 1.427 1_545 S
C1969 H1959 0.929 . S
C1969 C1967 1.433 1_565 S
C1969 N1972 1.384 . S
C1970 H1961 0.929 . S
C1970 C1962 1.378 . S
C1970 C1965 1.350 1_565 S
C1971 H1958 0.929 . S
C1971 C1963 1.433 . S
C1971 N1973 1.384 . S
N1972 C1968 1.427 1_565 S
N1972 C1969 1.384 . S
N1973 C1965 1.427 . S
N1973 C1971 1.384 . S
H1974 C1980 0.930 . S
H1975 C1984 0.930 . S
H1976 C1989 0.929 . S
H1977 C1987 0.929 . S
H1978 C1982 0.929 . S
H1979 C1988 0.929 . S
C1980 H1974 0.930 . S
C1980 C1981 1.367 . S
C1980 C1988 1.378 . S
C1981 C1980 1.367 . S
C1981 C1989 1.433 . S
C1982 H1978 0.929 . S
C1982 C1984 1.378 . S
C1982 C1986 1.350 . S
C1983 C1986 1.463 . S
C1983 C1988 1.350 . S
C1983 N1991 1.427 . S
C1984 H1975 0.930 . S
C1984 C1982 1.378 . S
C1984 C1985 1.367 . S
C1985 C1984 1.367 . S
C1985 C1987 1.433 . S
C1986 C1982 1.350 . S
C1986 C1983 1.463 . S
C1986 N1990 1.427 . S
C1987 H1977 0.929 . S
C1987 C1985 1.433 . S
C1987 N1990 1.384 . S
C1988 H1979 0.929 . S
C1988 C1980 1.378 . S
C1988 C1983 1.350 . S
C1989 H1976 0.929 . S
C1989 C1981 1.433 . S
C1989 N1991 1.384 . S
N1990 C1986 1.427 . S
N1990 C1987 1.384 . S
N1991 C1983 1.427 . S
N1991 C1989 1.384 . S
H1992 C1998 0.930 . S
H1993 C2002 0.930 1_565 S
H1994 C2007 0.929 . S
H1995 C2005 0.910 1_455 S
H1996 C2000 0.948 . S
H1997 C2006 0.929 . S
C1998 H1992 0.930 . S
C1998 C1999 1.367 . S
C1998 C2006 1.378 . S
C1999 C1998 1.367 . S
C1999 C2007 1.433 . S
C2000 H1996 0.948 . S
C2000 C2002 1.378 . S
C2000 C2004 1.350 . S
C2001 C2004 1.463 . S
C2001 C2006 1.350 . S
C2001 N2009 1.427 . S
C2002 H1993 0.930 1_545 S
C2002 C2000 1.378 . S
C2002 C2003 1.367 . S
C2003 C2002 1.367 . S
C2003 C2005 1.433 . S
C2004 C2000 1.350 . S
C2004 C2001 1.463 . S
C2004 N2008 1.427 . S
C2005 H1995 0.910 1_655 S
C2005 C2003 1.433 . S
C2005 N2008 1.384 . S
C2006 H1997 0.929 . S
C2006 C1998 1.378 . S
C2006 C2001 1.350 . S
C2007 H1994 0.929 . S
C2007 C1999 1.433 . S
C2007 N2009 1.384 . S
N2008 C2004 1.427 . S
N2008 C2005 1.384 . S
N2009 C2001 1.427 . S
N2009 C2007 1.384 . S
H2010 C2016 0.930 . S
H2011 C2020 0.930 . S
H2012 C2025 0.929 . S
H2013 C2023 0.929 . S
H2014 C2018 0.929 . S
H2015 C2024 0.929 . S
C2016 H2010 0.930 . S
C2016 C2017 1.367 . S
C2016 C2024 1.378 . S
C2017 C2016 1.367 . S
C2017 C2025 1.433 . S
C2018 H2014 0.929 . S
C2018 C2020 1.378 . S
C2018 C2022 1.350 . S
C2019 C2022 1.463 . S
C2019 C2024 1.350 . S
C2019 N2027 1.427 . S
C2020 H2011 0.930 . S
C2020 C2018 1.378 . S
C2020 C2021 1.367 . S
C2021 C2020 1.367 . S
C2021 C2023 1.433 . S
C2022 C2018 1.350 . S
C2022 C2019 1.463 . S
C2022 N2026 1.427 . S
C2023 H2013 0.929 . S
C2023 C2021 1.433 . S
C2023 N2026 1.384 . S
C2024 H2015 0.929 . S
C2024 C2016 1.378 . S
C2024 C2019 1.350 . S
C2025 H2012 0.929 . S
C2025 C2017 1.433 . S
C2025 N2027 1.384 . S
N2026 C2022 1.427 . S
N2026 C2023 1.384 . S
N2027 C2019 1.427 . S
N2027 C2025 1.384 . S
H2028 C2034 0.930 . S
H2029 C2038 0.930 . S
H2030 C2043 0.929 . S
H2031 C2041 0.929 . S
H2032 C2036 0.929 . S
H2033 C2042 0.929 1_565 S
C2034 H2028 0.930 . S
C2034 C2035 1.367 1_565 S
C2034 C2042 1.378 1_565 S
C2035 C2034 1.367 1_545 S
C2035 C2043 1.433 . S
C2036 H2032 0.929 . S
C2036 C2038 1.378 . S
C2036 C2040 1.350 . S
C2037 C2040 1.463 . S
C2037 C2042 1.350 . S
C2037 N2045 1.427 . S
C2038 H2029 0.930 . S
C2038 C2036 1.378 . S
C2038 C2039 1.367 . S
C2039 C2038 1.367 . S
C2039 C2041 1.433 . S
C2040 C2036 1.350 . S
C2040 C2037 1.463 . S
C2040 N2044 1.427 . S
C2041 H2031 0.929 . S
C2041 C2039 1.433 . S
C2041 N2044 1.384 . S
C2042 H2033 0.929 1_545 S
C2042 C2034 1.378 1_545 S
C2042 C2037 1.350 . S
C2043 H2030 0.929 . S
C2043 C2035 1.433 . S
C2043 N2045 1.384 . S
N2044 C2040 1.427 . S
N2044 C2041 1.384 . S
N2045 C2037 1.427 . S
N2045 C2043 1.384 . S
H2046 C2052 0.930 . S
H2047 C2056 0.930 . S
H2048 C2061 0.929 . S
H2049 C2059 0.929 . S
H2050 C2054 0.929 . S
H2051 C2060 0.929 . S
C2052 H2046 0.930 . S
C2052 C2053 1.367 . S
C2052 C2060 1.378 . S
C2053 C2052 1.367 . S
C2053 C2061 1.433 . S
C2054 H2050 0.929 . S
C2054 C2056 1.378 . S
C2054 C2058 1.350 . S
C2055 C2058 1.463 . S
C2055 C2060 1.350 . S
C2055 N2063 1.427 . S
C2056 H2047 0.930 . S
C2056 C2054 1.378 . S
C2056 C2057 1.367 . S
C2057 C2056 1.367 . S
C2057 C2059 1.433 . S
C2058 C2054 1.350 . S
C2058 C2055 1.463 . S
C2058 N2062 1.427 . S
C2059 H2049 0.929 . S
C2059 C2057 1.433 . S
C2059 N2062 1.384 . S
C2060 H2051 0.929 . S
C2060 C2052 1.378 . S
C2060 C2055 1.350 . S
C2061 H2048 0.929 . S
C2061 C2053 1.433 . S
C2061 N2063 1.384 . S
N2062 C2058 1.427 . S
N2062 C2059 1.384 . S
N2063 C2055 1.427 . S
N2063 C2061 1.384 . S
H2064 C2070 0.930 1_556 S
H2065 C2074 0.930 . S
H2066 C2079 0.929 . S
H2067 C2077 0.929 . S
H2068 C2072 0.940 . S
H2069 C2078 0.938 . S
C2070 H2064 0.930 1_554 S
C2070 C2071 1.367 . S
C2070 C2078 1.378 . S
C2071 C2070 1.367 . S
C2071 C2079 1.433 . S
C2072 H2068 0.940 . S
C2072 C2074 1.401 . S
C2072 C2076 1.318 1_545 S
C2073 C2076 1.463 . S
C2073 C2078 1.350 . S
C2073 N2081 1.427 . S
C2074 H2065 0.930 . S
C2074 C2072 1.401 . S
C2074 C2075 1.367 . S
C2075 C2074 1.367 . S
C2075 C2077 1.433 1_545 S
C2076 C2072 1.318 1_565 S
C2076 C2073 1.463 . S
C2076 N2080 1.427 . S
C2077 H2067 0.929 . S
C2077 C2075 1.433 1_565 S
C2077 N2080 1.384 . S
C2078 H2069 0.938 . S
C2078 C2070 1.378 . S
C2078 C2073 1.350 . S
C2079 H2066 0.929 . S
C2079 C2071 1.433 . S
C2079 N2081 1.384 . S
N2080 C2076 1.427 . S
N2080 C2077 1.384 . S
N2081 C2073 1.427 . S
N2081 C2079 1.384 . S
H2082 C2088 0.930 . S
H2083 C2092 0.930 . S
H2084 C2097 0.929 . S
H2085 C2095 0.929 . S
H2086 C2090 0.929 . S
H2087 C2096 0.929 . S
C2088 H2082 0.930 . S
C2088 C2089 1.367 . S
C2088 C2096 1.378 . S
C2089 C2088 1.367 . S
C2089 C2097 1.433 1_556 S
C2090 H2086 0.929 . S
C2090 C2092 1.378 . S
C2090 C2094 1.350 . S
C2091 C2094 1.463 . S
C2091 C2096 1.350 1_554 S
C2091 N2099 1.427 . S
C2092 H2083 0.930 . S
C2092 C2090 1.378 . S
C2092 C2093 1.367 . S
C2093 C2092 1.367 . S
C2093 C2095 1.433 1_554 S
C2094 C2090 1.350 . S
C2094 C2091 1.463 . S
C2094 N2098 1.427 1_554 S
C2095 H2085 0.929 . S
C2095 C2093 1.433 1_556 S
C2095 N2098 1.384 . S
C2096 H2087 0.929 . S
C2096 C2088 1.378 . S
C2096 C2091 1.350 1_556 S
C2097 H2084 0.929 . S
C2097 C2089 1.433 1_554 S
C2097 N2099 1.384 . S
N2098 C2094 1.427 1_556 S
N2098 C2095 1.384 . S
N2099 C2091 1.427 . S
N2099 C2097 1.384 . S
H2100 C2106 0.930 . S
H2101 C2110 0.930 . S
H2102 C2115 0.929 . S
H2103 C2113 0.929 . S
H2104 C2108 0.929 . S
H2105 C2114 0.929 . S
C2106 H2100 0.930 . S
C2106 C2107 1.367 . S
C2106 C2114 1.378 . S
C2107 C2106 1.367 . S
C2107 C2115 1.433 . S
C2108 H2104 0.929 . S
C2108 C2110 1.378 . S
C2108 C2112 1.350 . S
C2109 C2112 1.463 . S
C2109 C2114 1.350 . S
C2109 N2117 1.427 . S
C2110 H2101 0.930 . S
C2110 C2108 1.378 . S
C2110 C2111 1.367 . S
C2111 C2110 1.367 . S
C2111 C2113 1.433 . S
C2112 C2108 1.350 . S
C2112 C2109 1.463 . S
C2112 N2116 1.427 . S
C2113 H2103 0.929 . S
C2113 C2111 1.433 . S
C2113 N2116 1.384 . S
C2114 H2105 0.929 . S
C2114 C2106 1.378 . S
C2114 C2109 1.350 . S
C2115 H2102 0.929 . S
C2115 C2107 1.433 . S
C2115 N2117 1.384 . S
N2116 C2112 1.427 . S
N2116 C2113 1.384 . S
N2117 C2109 1.427 . S
N2117 C2115 1.384 . S
H2118 C2124 0.930 . S
H2119 C2128 0.930 . S
H2120 C2133 0.929 . S
H2121 C2131 0.929 . S
H2122 C2126 0.929 . S
H2123 C2132 0.929 . S
C2124 H2118 0.930 . S
C2124 C2125 1.367 . S
C2124 C2132 1.378 . S
C2125 C2124 1.367 . S
C2125 C2133 1.433 . S
C2126 H2122 0.929 . S
C2126 C2128 1.378 . S
C2126 C2130 1.350 . S
C2127 C2130 1.463 . S
C2127 C2132 1.350 . S
C2127 N2135 1.427 . S
C2128 H2119 0.930 . S
C2128 C2126 1.378 . S
C2128 C2129 1.367 . S
C2129 C2128 1.367 . S
C2129 C2131 1.433 . S
C2130 C2126 1.350 . S
C2130 C2127 1.463 . S
C2130 N2134 1.427 . S
C2131 H2121 0.929 . S
C2131 C2129 1.433 . S
C2131 N2134 1.384 . S
C2132 H2123 0.929 . S
C2132 C2124 1.378 . S
C2132 C2127 1.350 . S
C2133 H2120 0.929 . S
C2133 C2125 1.433 . S
C2133 N2135 1.384 . S
N2134 C2130 1.427 . S
N2134 C2131 1.384 . S
N2135 C2127 1.427 . S
N2135 C2133 1.384 . S
H2136 C2142 0.930 1_545 S
H2137 C2146 0.930 . S
H2138 C2151 0.929 . S
H2139 C2149 0.929 . S
H2140 C2144 0.929 . S
H2141 C2150 0.929 . S
C2142 H2136 0.930 1_565 S
C2142 C2143 1.367 1_565 S
C2142 C2150 1.378 . S
C2143 C2142 1.367 1_545 S
C2143 C2151 1.433 1_545 S
C2144 H2140 0.929 . S
C2144 C2146 1.378 . S
C2144 C2148 1.350 . S
C2145 C2148 1.463 . S
C2145 C2150 1.350 . S
C2145 N2153 1.427 . S
C2146 H2137 0.930 . S
C2146 C2144 1.378 . S
C2146 C2147 1.367 . S
C2147 C2146 1.367 . S
C2147 C2149 1.433 . S
C2148 C2144 1.350 . S
C2148 C2145 1.463 . S
C2148 N2152 1.427 . S
C2149 H2139 0.929 . S
C2149 C2147 1.433 . S
C2149 N2152 1.384 . S
C2150 H2141 0.929 . S
C2150 C2142 1.378 . S
C2150 C2145 1.350 . S
C2151 H2138 0.929 . S
C2151 C2143 1.433 1_565 S
C2151 N2153 1.384 . S
N2152 C2148 1.427 . S
N2152 C2149 1.384 . S
N2153 C2145 1.427 . S
N2153 C2151 1.384 . S
H2154 C2160 0.930 . S
H2155 C2164 0.930 . S
H2156 C2169 0.929 . S
H2157 C2167 0.929 . S
H2158 C2162 0.929 . S
H2159 C2168 0.929 . S
C2160 H2154 0.930 . S
C2160 C2161 1.367 . S
C2160 C2168 1.378 . S
C2161 C2160 1.367 . S
C2161 C2169 1.433 . S
C2162 H2158 0.929 . S
C2162 C2164 1.378 . S
C2162 C2166 1.350 . S
C2163 C2166 1.463 . S
C2163 C2168 1.350 . S
C2163 N2171 1.427 . S
C2164 H2155 0.930 . S
C2164 C2162 1.378 . S
C2164 C2165 1.367 . S
C2165 C2164 1.367 . S
C2165 C2167 1.433 . S
C2166 C2162 1.350 . S
C2166 C2163 1.463 . S
C2166 N2170 1.427 . S
C2167 H2157 0.929 . S
C2167 C2165 1.433 . S
C2167 N2170 1.384 . S
C2168 H2159 0.929 . S
C2168 C2160 1.378 . S
C2168 C2163 1.350 . S
C2169 H2156 0.929 . S
C2169 C2161 1.433 . S
C2169 N2171 1.384 . S
N2170 C2166 1.427 . S
N2170 C2167 1.384 . S
N2171 C2163 1.427 . S
N2171 C2169 1.384 . S
H2172 C2178 0.930 . S
H2173 C2182 0.930 . S
H2174 C2187 0.929 . S
H2175 C2185 0.929 . S
H2176 C2180 0.929 . S
H2177 C2186 0.929 . S
C2178 H2172 0.930 . S
C2178 C2179 1.367 . S
C2178 C2186 1.378 . S
C2179 C2178 1.367 . S
C2179 C2187 1.433 . S
C2180 H2176 0.929 . S
C2180 C2182 1.378 . S
C2180 C2184 1.350 . S
C2181 C2184 1.463 . S
C2181 C2186 1.350 . S
C2181 N2189 1.427 . S
C2182 H2173 0.930 . S
C2182 C2180 1.378 . S
C2182 C2183 1.367 . S
C2183 C2182 1.367 . S
C2183 C2185 1.433 . S
C2184 C2180 1.350 . S
C2184 C2181 1.463 . S
C2184 N2188 1.427 . S
C2185 H2175 0.929 . S
C2185 C2183 1.433 . S
C2185 N2188 1.384 . S
C2186 H2177 0.929 . S
C2186 C2178 1.378 . S
C2186 C2181 1.350 . S
C2187 H2174 0.929 . S
C2187 C2179 1.433 . S
C2187 N2189 1.384 . S
N2188 C2184 1.427 . S
N2188 C2185 1.384 . S
N2189 C2181 1.427 . S
N2189 C2187 1.384 . S
H2190 C2196 0.930 . S
H2191 C2200 0.930 . S
H2192 C2205 0.929 . S
H2193 C2203 0.929 . S
H2194 C2198 0.929 . S
H2195 C2204 0.929 . S
C2196 H2190 0.930 . S
C2196 C2197 1.367 . S
C2196 C2204 1.378 . S
C2197 C2196 1.367 . S
C2197 C2205 1.433 . S
C2198 H2194 0.929 . S
C2198 C2200 1.378 . S
C2198 C2202 1.350 . S
C2199 C2202 1.463 . S
C2199 C2204 1.350 . S
C2199 N2207 1.427 . S
C2200 H2191 0.930 . S
C2200 C2198 1.378 . S
C2200 C2201 1.367 . S
C2201 C2200 1.367 . S
C2201 C2203 1.433 . S
C2202 C2198 1.350 . S
C2202 C2199 1.463 . S
C2202 N2206 1.427 . S
C2203 H2193 0.929 . S
C2203 C2201 1.433 . S
C2203 N2206 1.384 . S
C2204 H2195 0.929 . S
C2204 C2196 1.378 . S
C2204 C2199 1.350 . S
C2205 H2192 0.929 . S
C2205 C2197 1.433 . S
C2205 N2207 1.384 . S
N2206 C2202 1.427 . S
N2206 C2203 1.384 . S
N2207 C2199 1.427 . S
N2207 C2205 1.384 . S
H2208 C2214 0.930 . S
H2209 C2218 0.930 . S
H2210 C2223 0.929 . S
H2211 C2221 0.929 . S
H2212 C2216 0.929 . S
H2213 C2222 0.929 . S
C2214 H2208 0.930 . S
C2214 C2215 1.367 . S
C2214 C2222 1.378 . S
C2215 C2214 1.367 . S
C2215 C2223 1.433 . S
C2216 H2212 0.929 . S
C2216 C2218 1.378 . S
C2216 C2220 1.350 . S
C2217 C2220 1.463 . S
C2217 C2222 1.350 . S
C2217 N2225 1.427 . S
C2218 H2209 0.930 . S
C2218 C2216 1.378 . S
C2218 C2219 1.367 . S
C2219 C2218 1.367 . S
C2219 C2221 1.433 . S
C2220 C2216 1.350 . S
C2220 C2217 1.463 . S
C2220 N2224 1.427 . S
C2221 H2211 0.929 . S
C2221 C2219 1.433 . S
C2221 N2224 1.384 . S
C2222 H2213 0.929 . S
C2222 C2214 1.378 . S
C2222 C2217 1.350 . S
C2223 H2210 0.929 . S
C2223 C2215 1.433 . S
C2223 N2225 1.384 . S
N2224 C2220 1.427 . S
N2224 C2221 1.384 . S
N2225 C2217 1.427 . S
N2225 C2223 1.384 . S
H2226 C2232 0.930 . S
H2227 C2236 0.930 . S
H2228 C2241 0.929 . S
H2229 C2239 0.929 . S
H2230 C2234 0.929 . S
H2231 C2240 0.929 . S
C2232 H2226 0.930 . S
C2232 C2233 1.367 . S
C2232 C2240 1.378 . S
C2233 C2232 1.367 . S
C2233 C2241 1.433 . S
C2234 H2230 0.929 . S
C2234 C2236 1.378 . S
C2234 C2238 1.350 . S
C2235 C2238 1.463 . S
C2235 C2240 1.350 . S
C2235 N2243 1.427 . S
C2236 H2227 0.930 . S
C2236 C2234 1.378 . S
C2236 C2237 1.367 . S
C2237 C2236 1.367 . S
C2237 C2239 1.433 . S
C2238 C2234 1.350 . S
C2238 C2235 1.463 . S
C2238 N2242 1.427 . S
C2239 H2229 0.929 . S
C2239 C2237 1.433 . S
C2239 N2242 1.384 . S
C2240 H2231 0.929 . S
C2240 C2232 1.378 . S
C2240 C2235 1.350 . S
C2241 H2228 0.929 . S
C2241 C2233 1.433 . S
C2241 N2243 1.384 . S
N2242 C2238 1.427 . S
N2242 C2239 1.384 . S
N2243 C2235 1.427 . S
N2243 C2241 1.384 . S
H2244 C2250 0.930 . S
H2245 C2254 0.930 . S
H2246 C2259 0.929 . S
H2247 C2257 0.929 . S
H2248 C2252 0.929 . S
H2249 C2258 0.929 . S
C2250 H2244 0.930 . S
C2250 C2251 1.367 . S
C2250 C2258 1.378 . S
C2251 C2250 1.367 . S
C2251 C2259 1.433 . S
C2252 H2248 0.929 . S
C2252 C2254 1.378 . S
C2252 C2256 1.350 . S
C2253 C2256 1.463 . S
C2253 C2258 1.350 . S
C2253 N2261 1.427 . S
C2254 H2245 0.930 . S
C2254 C2252 1.378 . S
C2254 C2255 1.367 . S
C2255 C2254 1.367 . S
C2255 C2257 1.433 . S
C2256 C2252 1.350 . S
C2256 C2253 1.463 . S
C2256 N2260 1.427 . S
C2257 H2247 0.929 . S
C2257 C2255 1.433 . S
C2257 N2260 1.384 . S
C2258 H2249 0.929 . S
C2258 C2250 1.378 . S
C2258 C2253 1.350 . S
C2259 H2246 0.929 . S
C2259 C2251 1.433 . S
C2259 N2261 1.384 . S
N2260 C2256 1.427 . S
N2260 C2257 1.384 . S
N2261 C2253 1.427 . S
N2261 C2259 1.384 . S
H2262 C2268 0.930 . S
H2263 C2272 0.930 . S
H2264 C2277 0.914 1_455 S
H2265 C2275 0.929 . S
H2266 C2270 0.929 . S
H2267 C2276 0.929 . S
C2268 H2262 0.930 . S
C2268 C2269 1.367 . S
C2268 C2276 1.378 . S
C2269 C2268 1.367 . S
C2269 C2277 1.433 . S
C2270 H2266 0.929 . S
C2270 C2272 1.378 . S
C2270 C2274 1.350 . S
C2271 C2274 1.463 . S
C2271 C2276 1.350 . S
C2271 N2279 1.427 . S
C2272 H2263 0.930 . S
C2272 C2270 1.378 . S
C2272 C2273 1.367 . S
C2273 C2272 1.367 . S
C2273 C2275 1.433 . S
C2274 C2270 1.350 . S
C2274 C2271 1.463 . S
C2274 N2278 1.427 . S
C2275 H2265 0.929 . S
C2275 C2273 1.433 . S
C2275 N2278 1.384 . S
C2276 H2267 0.929 . S
C2276 C2268 1.378 . S
C2276 C2271 1.350 . S
C2277 H2264 0.914 1_655 S
C2277 C2269 1.433 . S
C2277 N2279 1.384 . S
N2278 C2274 1.427 . S
N2278 C2275 1.384 . S
N2279 C2271 1.427 . S
N2279 C2277 1.384 . S
H2280 C2286 0.930 . S
H2281 C2290 0.930 . S
H2282 C2295 0.929 . S
H2283 C2293 0.928 . S
H2284 C2288 0.929 . S
H2285 C2294 0.929 . S
C2286 H2280 0.930 . S
C2286 C2287 1.367 . S
C2286 C2294 1.378 . S
C2287 C2286 1.367 . S
C2287 C2295 1.433 . S
C2288 H2284 0.929 . S
C2288 C2290 1.378 . S
C2288 C2292 1.350 . S
C2289 C2292 1.463 . S
C2289 C2294 1.350 . S
C2289 N2297 1.427 . S
C2290 H2281 0.930 . S
C2290 C2288 1.378 . S
C2290 C2291 1.367 . S
C2291 C2290 1.367 . S
C2291 C2293 1.434 1_556 S
C2292 C2288 1.350 . S
C2292 C2289 1.463 . S
C2292 N2296 1.427 . S
C2293 H2283 0.928 . S
C2293 C2291 1.434 1_554 S
C2293 N2296 1.384 1_554 S
C2294 H2285 0.929 . S
C2294 C2286 1.378 . S
C2294 C2289 1.350 . S
C2295 H2282 0.929 . S
C2295 C2287 1.433 . S
C2295 N2297 1.384 . S
N2296 C2292 1.427 . S
N2296 C2293 1.384 1_556 S
N2297 C2289 1.427 . S
N2297 C2295 1.384 . S
H2298 C2304 0.930 . S
H2299 C2308 0.930 . S
H2300 C2313 0.929 . S
H2301 C2311 0.929 . S
H2302 C2306 0.929 . S
H2303 C2312 0.929 . S
C2304 H2298 0.930 . S
C2304 C2305 1.367 . S
C2304 C2312 1.378 . S
C2305 C2304 1.367 . S
C2305 C2313 1.433 . S
C2306 H2302 0.929 . S
C2306 C2308 1.378 . S
C2306 C2310 1.350 . S
C2307 C2310 1.463 . S
C2307 C2312 1.350 . S
C2307 N2315 1.427 . S
C2308 H2299 0.930 . S
C2308 C2306 1.378 . S
C2308 C2309 1.367 . S
C2309 C2308 1.367 . S
C2309 C2311 1.433 . S
C2310 C2306 1.350 . S
C2310 C2307 1.463 . S
C2310 N2314 1.427 . S
C2311 H2301 0.929 . S
C2311 C2309 1.433 . S
C2311 N2314 1.384 . S
C2312 H2303 0.929 . S
C2312 C2304 1.378 . S
C2312 C2307 1.350 . S
C2313 H2300 0.929 . S
C2313 C2305 1.433 . S
C2313 N2315 1.384 . S
N2314 C2310 1.427 . S
N2314 C2311 1.384 . S
N2315 C2307 1.427 . S
N2315 C2313 1.384 . S
H2316 C2322 0.930 . S
H2317 C2326 0.930 . S
H2318 C2331 0.929 . S
H2319 C2329 0.929 . S
H2320 C2324 0.929 . S
H2321 C2330 0.929 . S
C2322 H2316 0.930 . S
C2322 C2323 1.367 . S
C2322 C2330 1.378 . S
C2323 C2322 1.367 . S
C2323 C2331 1.433 . S
C2324 H2320 0.929 . S
C2324 C2326 1.378 . S
C2324 C2328 1.350 . S
C2325 C2328 1.463 . S
C2325 C2330 1.350 . S
C2325 N2333 1.427 . S
C2326 H2317 0.930 . S
C2326 C2324 1.378 . S
C2326 C2327 1.367 . S
C2327 C2326 1.367 . S
C2327 C2329 1.433 . S
C2328 C2324 1.350 . S
C2328 C2325 1.463 . S
C2328 N2332 1.427 . S
C2329 H2319 0.929 . S
C2329 C2327 1.433 . S
C2329 N2332 1.384 . S
C2330 H2321 0.929 . S
C2330 C2322 1.378 . S
C2330 C2325 1.350 . S
C2331 H2318 0.929 . S
C2331 C2323 1.433 . S
C2331 N2333 1.384 . S
N2332 C2328 1.427 . S
N2332 C2329 1.384 . S
N2333 C2325 1.427 . S
N2333 C2331 1.384 . S
H2334 C2340 0.930 . S
H2335 C2344 0.930 . S
H2336 C2349 0.929 . S
H2337 C2347 0.929 . S
H2338 C2342 0.929 . S
H2339 C2348 0.929 . S
C2340 H2334 0.930 . S
C2340 C2341 1.367 . S
C2340 C2348 1.378 . S
C2341 C2340 1.367 . S
C2341 C2349 1.433 . S
C2342 H2338 0.929 . S
C2342 C2344 1.378 . S
C2342 C2346 1.350 . S
C2343 C2346 1.463 . S
C2343 C2348 1.350 . S
C2343 N2351 1.427 . S
C2344 H2335 0.930 . S
C2344 C2342 1.378 . S
C2344 C2345 1.367 . S
C2345 C2344 1.367 . S
C2345 C2347 1.433 . S
C2346 C2342 1.350 . S
C2346 C2343 1.463 . S
C2346 N2350 1.427 . S
C2347 H2337 0.929 . S
C2347 C2345 1.433 . S
C2347 N2350 1.384 . S
C2348 H2339 0.929 . S
C2348 C2340 1.378 . S
C2348 C2343 1.350 . S
C2349 H2336 0.929 . S
C2349 C2341 1.433 . S
C2349 N2351 1.384 . S
N2350 C2346 1.427 . S
N2350 C2347 1.384 . S
N2351 C2343 1.427 . S
N2351 C2349 1.384 . S
H2352 C2358 0.930 . S
H2353 C2362 0.930 . S
H2354 C2367 0.929 . S
H2355 C2365 0.929 . S
H2356 C2360 0.929 . S
H2357 C2366 0.929 . S
C2358 H2352 0.930 . S
C2358 C2359 1.367 . S
C2358 C2366 1.378 . S
C2359 C2358 1.367 . S
C2359 C2367 1.433 . S
C2360 H2356 0.929 . S
C2360 C2362 1.378 . S
C2360 C2364 1.350 . S
C2361 C2364 1.463 . S
C2361 C2366 1.350 . S
C2361 N2369 1.427 . S
C2362 H2353 0.930 . S
C2362 C2360 1.378 . S
C2362 C2363 1.367 . S
C2363 C2362 1.367 . S
C2363 C2365 1.433 . S
C2364 C2360 1.350 . S
C2364 C2361 1.463 . S
C2364 N2368 1.427 . S
C2365 H2355 0.929 . S
C2365 C2363 1.433 . S
C2365 N2368 1.384 . S
C2366 H2357 0.929 . S
C2366 C2358 1.378 . S
C2366 C2361 1.350 . S
C2367 H2354 0.929 . S
C2367 C2359 1.433 . S
C2367 N2369 1.384 . S
N2368 C2364 1.427 . S
N2368 C2365 1.384 . S
N2369 C2361 1.427 . S
N2369 C2367 1.384 . S
H2370 C2376 0.930 . S
H2371 C2380 0.930 . S
H2372 C2385 0.929 . S
H2373 C2383 0.929 . S
H2374 C2378 0.929 . S
H2375 C2384 0.929 . S
C2376 H2370 0.930 . S
C2376 C2377 1.367 . S
C2376 C2384 1.378 . S
C2377 C2376 1.367 . S
C2377 C2385 1.433 . S
C2378 H2374 0.929 . S
C2378 C2380 1.378 . S
C2378 C2382 1.350 . S
C2379 C2382 1.463 . S
C2379 C2384 1.350 . S
C2379 N2387 1.427 . S
C2380 H2371 0.930 . S
C2380 C2378 1.378 . S
C2380 C2381 1.367 . S
C2381 C2380 1.367 . S
C2381 C2383 1.433 . S
C2382 C2378 1.350 . S
C2382 C2379 1.463 . S
C2382 N2386 1.427 . S
C2383 H2373 0.929 . S
C2383 C2381 1.433 . S
C2383 N2386 1.384 . S
C2384 H2375 0.929 . S
C2384 C2376 1.378 . S
C2384 C2379 1.350 . S
C2385 H2372 0.929 . S
C2385 C2377 1.433 . S
C2385 N2387 1.384 . S
N2386 C2382 1.427 . S
N2386 C2383 1.384 . S
N2387 C2379 1.427 . S
N2387 C2385 1.384 . S
H2388 C2394 0.930 . S
H2389 C2398 0.925 1_455 S
H2390 C2403 0.929 . S
H2391 C2401 0.929 . S
H2392 C2396 0.929 . S
H2393 C2402 0.929 . S
C2394 H2388 0.930 . S
C2394 C2395 1.367 . S
C2394 C2402 1.378 . S
C2395 C2394 1.367 . S
C2395 C2403 1.433 . S
C2396 H2392 0.929 . S
C2396 C2398 1.378 . S
C2396 C2400 1.350 . S
C2397 C2400 1.463 . S
C2397 C2402 1.350 . S
C2397 N2405 1.427 . S
C2398 H2389 0.925 1_655 S
C2398 C2396 1.378 . S
C2398 C2399 1.367 . S
C2399 C2398 1.367 . S
C2399 C2401 1.433 . S
C2400 C2396 1.350 . S
C2400 C2397 1.463 . S
C2400 N2404 1.427 . S
C2401 H2391 0.929 . S
C2401 C2399 1.433 . S
C2401 N2404 1.384 . S
C2402 H2393 0.929 . S
C2402 C2394 1.378 . S
C2402 C2397 1.350 . S
C2403 H2390 0.929 . S
C2403 C2395 1.433 . S
C2403 N2405 1.384 . S
N2404 C2400 1.427 . S
N2404 C2401 1.384 . S
N2405 C2397 1.427 . S
N2405 C2403 1.384 . S
H2406 C2412 0.930 . S
H2407 C2416 0.930 . S
H2408 C2421 0.929 . S
H2409 C2419 0.929 . S
H2410 C2414 0.929 . S
H2411 C2420 0.929 . S
C2412 H2406 0.930 . S
C2412 C2413 1.367 . S
C2412 C2420 1.378 . S
C2413 C2412 1.367 . S
C2413 C2421 1.433 . S
C2414 H2410 0.929 . S
C2414 C2416 1.378 . S
C2414 C2418 1.350 . S
C2415 C2418 1.463 . S
C2415 C2420 1.350 . S
C2415 N2423 1.427 . S
C2416 H2407 0.930 . S
C2416 C2414 1.378 . S
C2416 C2417 1.367 . S
C2417 C2416 1.367 . S
C2417 C2419 1.433 . S
C2418 C2414 1.350 . S
C2418 C2415 1.463 . S
C2418 N2422 1.427 . S
C2419 H2409 0.929 . S
C2419 C2417 1.433 . S
C2419 N2422 1.384 . S
C2420 H2411 0.929 . S
C2420 C2412 1.378 . S
C2420 C2415 1.350 . S
C2421 H2408 0.929 . S
C2421 C2413 1.433 . S
C2421 N2423 1.384 . S
N2422 C2418 1.427 . S
N2422 C2419 1.384 . S
N2423 C2415 1.427 . S
N2423 C2421 1.384 . S
H2424 C2430 0.930 . S
H2425 C2434 0.930 . S
H2426 C2439 0.929 . S
H2427 C2437 0.929 . S
H2428 C2432 0.929 . S
H2429 C2438 0.929 . S
C2430 H2424 0.930 . S
C2430 C2431 1.367 . S
C2430 C2438 1.378 . S
C2431 C2430 1.367 . S
C2431 C2439 1.433 . S
C2432 H2428 0.929 . S
C2432 C2434 1.378 . S
C2432 C2436 1.350 . S
C2433 C2436 1.463 . S
C2433 C2438 1.350 . S
C2433 N2441 1.427 . S
C2434 H2425 0.930 . S
C2434 C2432 1.378 . S
C2434 C2435 1.367 . S
C2435 C2434 1.367 . S
C2435 C2437 1.433 . S
C2436 C2432 1.350 . S
C2436 C2433 1.463 . S
C2436 N2440 1.427 . S
C2437 H2427 0.929 . S
C2437 C2435 1.433 . S
C2437 N2440 1.384 . S
C2438 H2429 0.929 . S
C2438 C2430 1.378 . S
C2438 C2433 1.350 . S
C2439 H2426 0.929 . S
C2439 C2431 1.433 . S
C2439 N2441 1.384 . S
N2440 C2436 1.427 . S
N2440 C2437 1.384 . S
N2441 C2433 1.427 . S
N2441 C2439 1.384 . S
H2442 C2448 0.930 . S
H2443 C2452 0.930 . S
H2444 C2457 0.929 . S
H2445 C2455 0.929 . S
H2446 C2450 0.929 . S
H2447 C2456 0.929 . S
C2448 H2442 0.930 . S
C2448 C2449 1.367 . S
C2448 C2456 1.378 . S
C2449 C2448 1.367 . S
C2449 C2457 1.433 . S
C2450 H2446 0.929 . S
C2450 C2452 1.378 . S
C2450 C2454 1.350 . S
C2451 C2454 1.463 . S
C2451 C2456 1.350 . S
C2451 N2459 1.427 . S
C2452 H2443 0.930 . S
C2452 C2450 1.378 . S
C2452 C2453 1.367 . S
C2453 C2452 1.367 . S
C2453 C2455 1.433 . S
C2454 C2450 1.350 . S
C2454 C2451 1.463 . S
C2454 N2458 1.427 . S
C2455 H2445 0.929 . S
C2455 C2453 1.433 . S
C2455 N2458 1.384 . S
C2456 H2447 0.929 . S
C2456 C2448 1.378 . S
C2456 C2451 1.350 . S
C2457 H2444 0.929 . S
C2457 C2449 1.433 . S
C2457 N2459 1.384 . S
N2458 C2454 1.427 . S
N2458 C2455 1.384 . S
N2459 C2451 1.427 . S
N2459 C2457 1.384 . S
H2460 C2466 0.930 . S
H2461 C2470 0.945 . S
H2462 C2475 0.929 . S
H2463 C2473 0.929 . S
H2464 C2468 0.929 . S
H2465 C2474 0.929 . S
C2466 H2460 0.930 . S
C2466 C2467 1.367 . S
C2466 C2474 1.378 . S
C2467 C2466 1.367 . S
C2467 C2475 1.433 . S
C2468 H2464 0.929 . S
C2468 C2470 1.370 1_655 S
C2468 C2472 1.350 . S
C2469 C2472 1.463 . S
C2469 C2474 1.350 . S
C2469 N2477 1.427 . S
C2470 H2461 0.945 . S
C2470 C2468 1.370 1_455 S
C2470 C2471 1.359 1_455 S
C2471 C2470 1.359 1_655 S
C2471 C2473 1.433 . S
C2472 C2468 1.350 . S
C2472 C2469 1.463 . S
C2472 N2476 1.427 . S
C2473 H2463 0.929 . S
C2473 C2471 1.433 . S
C2473 N2476 1.384 . S
C2474 H2465 0.929 . S
C2474 C2466 1.378 . S
C2474 C2469 1.350 . S
C2475 H2462 0.929 . S
C2475 C2467 1.433 . S
C2475 N2477 1.384 . S
N2476 C2472 1.427 . S
N2476 C2473 1.384 . S
N2477 C2469 1.427 . S
N2477 C2475 1.384 . S
H2478 C2484 0.930 . S
H2479 C2488 0.930 . S
H2480 C2493 0.929 . S
H2481 C2491 0.929 . S
H2482 C2486 0.929 . S
H2483 C2492 0.929 . S
C2484 H2478 0.930 . S
C2484 C2485 1.367 . S
C2484 C2492 1.378 . S
C2485 C2484 1.367 . S
C2485 C2493 1.433 . S
C2486 H2482 0.929 . S
C2486 C2488 1.378 . S
C2486 C2490 1.350 . S
C2487 C2490 1.463 . S
C2487 C2492 1.350 . S
C2487 N2495 1.427 . S
C2488 H2479 0.930 . S
C2488 C2486 1.378 . S
C2488 C2489 1.367 . S
C2489 C2488 1.367 . S
C2489 C2491 1.433 . S
C2490 C2486 1.350 . S
C2490 C2487 1.463 . S
C2490 N2494 1.427 . S
C2491 H2481 0.929 . S
C2491 C2489 1.433 . S
C2491 N2494 1.384 . S
C2492 H2483 0.929 . S
C2492 C2484 1.378 . S
C2492 C2487 1.350 . S
C2493 H2480 0.929 . S
C2493 C2485 1.433 . S
C2493 N2495 1.384 . S
N2494 C2490 1.427 . S
N2494 C2491 1.384 . S
N2495 C2487 1.427 . S
N2495 C2493 1.384 . S
H2496 C2502 0.930 . S
H2497 C2506 0.930 . S
H2498 C2511 0.929 . S
H2499 C2509 0.929 . S
H2500 C2504 0.929 . S
H2501 C2510 0.929 . S
C2502 H2496 0.930 . S
C2502 C2503 1.367 . S
C2502 C2510 1.378 . S
C2503 C2502 1.367 . S
C2503 C2511 1.433 . S
C2504 H2500 0.929 . S
C2504 C2506 1.378 . S
C2504 C2508 1.350 . S
C2505 C2508 1.463 . S
C2505 C2510 1.350 . S
C2505 N2513 1.427 . S
C2506 H2497 0.930 . S
C2506 C2504 1.378 . S
C2506 C2507 1.367 . S
C2507 C2506 1.367 . S
C2507 C2509 1.433 . S
C2508 C2504 1.350 . S
C2508 C2505 1.463 . S
C2508 N2512 1.427 . S
C2509 H2499 0.929 . S
C2509 C2507 1.433 . S
C2509 N2512 1.384 . S
C2510 H2501 0.929 . S
C2510 C2502 1.378 . S
C2510 C2505 1.350 . S
C2511 H2498 0.929 . S
C2511 C2503 1.433 . S
C2511 N2513 1.384 . S
N2512 C2508 1.427 . S
N2512 C2509 1.384 . S
N2513 C2505 1.427 . S
N2513 C2511 1.384 . S
H2514 C2520 0.930 . S
H2515 C2524 0.930 . S
H2516 C2529 0.929 . S
H2517 C2527 0.929 . S
H2518 C2522 0.929 . S
H2519 C2528 0.929 . S
C2520 H2514 0.930 . S
C2520 C2521 1.367 . S
C2520 C2528 1.378 . S
C2521 C2520 1.367 . S
C2521 C2529 1.433 . S
C2522 H2518 0.929 . S
C2522 C2524 1.378 . S
C2522 C2526 1.350 . S
C2523 C2526 1.463 . S
C2523 C2528 1.350 . S
C2523 N2531 1.427 . S
C2524 H2515 0.930 . S
C2524 C2522 1.378 . S
C2524 C2525 1.367 1_565 S
C2525 C2524 1.367 1_545 S
C2525 C2527 1.433 . S
C2526 C2522 1.350 . S
C2526 C2523 1.463 . S
C2526 N2530 1.427 1_565 S
C2527 H2517 0.929 . S
C2527 C2525 1.433 . S
C2527 N2530 1.384 . S
C2528 H2519 0.929 . S
C2528 C2520 1.378 . S
C2528 C2523 1.350 . S
C2529 H2516 0.929 . S
C2529 C2521 1.433 . S
C2529 N2531 1.384 . S
N2530 C2526 1.427 1_545 S
N2530 C2527 1.384 . S
N2531 C2523 1.427 . S
N2531 C2529 1.384 . S
H2532 C2538 0.930 . S
H2533 C2542 0.930 . S
H2534 C2547 0.929 . S
H2535 C2545 0.929 . S
H2536 C2540 0.929 . S
H2537 C2546 0.929 . S
C2538 H2532 0.930 . S
C2538 C2539 1.367 1_565 S
C2538 C2546 1.378 . S
C2539 C2538 1.367 1_545 S
C2539 C2547 1.433 . S
C2540 H2536 0.929 . S
C2540 C2542 1.378 . S
C2540 C2544 1.350 . S
C2541 C2544 1.463 . S
C2541 C2546 1.350 . S
C2541 N2549 1.427 . S
C2542 H2533 0.930 . S
C2542 C2540 1.378 . S
C2542 C2543 1.367 . S
C2543 C2542 1.367 . S
C2543 C2545 1.433 . S
C2544 C2540 1.350 . S
C2544 C2541 1.463 . S
C2544 N2548 1.427 . S
C2545 H2535 0.929 . S
C2545 C2543 1.433 . S
C2545 N2548 1.384 . S
C2546 H2537 0.929 . S
C2546 C2538 1.378 . S
C2546 C2541 1.350 . S
C2547 H2534 0.929 . S
C2547 C2539 1.433 . S
C2547 N2549 1.384 1_545 S
N2548 C2544 1.427 . S
N2548 C2545 1.384 . S
N2549 C2541 1.427 . S
N2549 C2547 1.384 1_565 S
H2550 C2556 0.930 . S
H2551 C2560 0.930 . S
H2552 C2565 0.929 . S
H2553 C2563 0.929 . S
H2554 C2558 0.929 . S
H2555 C2564 0.929 . S
C2556 H2550 0.930 . S
C2556 C2557 1.367 . S
C2556 C2564 1.378 . S
C2557 C2556 1.367 . S
C2557 C2565 1.433 . S
C2558 H2554 0.929 . S
C2558 C2560 1.378 . S
C2558 C2562 1.350 . S
C2559 C2562 1.463 . S
C2559 C2564 1.350 . S
C2559 N2567 1.427 . S
C2560 H2551 0.930 . S
C2560 C2558 1.378 . S
C2560 C2561 1.367 . S
C2561 C2560 1.367 . S
C2561 C2563 1.433 . S
C2562 C2558 1.350 . S
C2562 C2559 1.463 . S
C2562 N2566 1.427 . S
C2563 H2553 0.929 . S
C2563 C2561 1.433 . S
C2563 N2566 1.384 . S
C2564 H2555 0.929 . S
C2564 C2556 1.378 . S
C2564 C2559 1.350 . S
C2565 H2552 0.929 . S
C2565 C2557 1.433 . S
C2565 N2567 1.384 . S
N2566 C2562 1.427 . S
N2566 C2563 1.384 . S
N2567 C2559 1.427 . S
N2567 C2565 1.384 . S
H2568 C2574 0.930 . S
H2569 C2578 0.930 . S
H2570 C2583 0.929 . S
H2571 C2581 0.929 . S
H2572 C2576 0.929 . S
H2573 C2582 0.929 . S
C2574 H2568 0.930 . S
C2574 C2575 1.367 . S
C2574 C2582 1.378 . S
C2575 C2574 1.367 . S
C2575 C2583 1.433 . S
C2576 H2572 0.929 . S
C2576 C2578 1.378 . S
C2576 C2580 1.350 . S
C2577 C2580 1.463 . S
C2577 C2582 1.350 . S
C2577 N2585 1.427 . S
C2578 H2569 0.930 . S
C2578 C2576 1.378 . S
C2578 C2579 1.367 . S
C2579 C2578 1.367 . S
C2579 C2581 1.433 . S
C2580 C2576 1.350 . S
C2580 C2577 1.463 . S
C2580 N2584 1.427 . S
C2581 H2571 0.929 . S
C2581 C2579 1.433 . S
C2581 N2584 1.384 . S
C2582 H2573 0.929 . S
C2582 C2574 1.378 . S
C2582 C2577 1.350 . S
C2583 H2570 0.929 . S
C2583 C2575 1.433 . S
C2583 N2585 1.384 . S
N2584 C2580 1.427 . S
N2584 C2581 1.384 . S
N2585 C2577 1.427 . S
N2585 C2583 1.384 . S
H2586 C2592 0.930 . S
H2587 C2596 0.930 . S
H2588 C2601 0.929 . S
H2589 C2599 0.929 . S
H2590 C2594 0.929 1_556 S
H2591 C2600 0.929 . S
C2592 H2586 0.930 . S
C2592 C2593 1.367 . S
C2592 C2600 1.378 . S
C2593 C2592 1.367 . S
C2593 C2601 1.433 . S
C2594 H2590 0.929 1_554 S
C2594 C2596 1.378 1_554 S
C2594 C2598 1.350 . S
C2595 C2598 1.463 . S
C2595 C2600 1.350 . S
C2595 N2603 1.427 . S
C2596 H2587 0.930 . S
C2596 C2594 1.378 1_556 S
C2596 C2597 1.367 1_556 S
C2597 C2596 1.367 1_554 S
C2597 C2599 1.433 . S
C2598 C2594 1.350 . S
C2598 C2595 1.463 . S
C2598 N2602 1.427 . S
C2599 H2589 0.929 . S
C2599 C2597 1.433 . S
C2599 N2602 1.384 . S
C2600 H2591 0.929 . S
C2600 C2592 1.378 . S
C2600 C2595 1.350 . S
C2601 H2588 0.929 . S
C2601 C2593 1.433 . S
C2601 N2603 1.384 . S
N2602 C2598 1.427 . S
N2602 C2599 1.384 . S
N2603 C2595 1.427 . S
N2603 C2601 1.384 . S
H2604 C2610 0.930 . S
H2605 C2614 0.930 . S
H2606 C2619 0.929 . S
H2607 C2617 0.929 . S
H2608 C2612 0.929 . S
H2609 C2618 0.929 . S
C2610 H2604 0.930 . S
C2610 C2611 1.367 . S
C2610 C2618 1.378 . S
C2611 C2610 1.367 . S
C2611 C2619 1.433 . S
C2612 H2608 0.929 . S
C2612 C2614 1.378 . S
C2612 C2616 1.350 . S
C2613 C2616 1.463 . S
C2613 C2618 1.350 . S
C2613 N2621 1.427 . S
C2614 H2605 0.930 . S
C2614 C2612 1.378 . S
C2614 C2615 1.367 . S
C2615 C2614 1.367 . S
C2615 C2617 1.433 . S
C2616 C2612 1.350 . S
C2616 C2613 1.463 . S
C2616 N2620 1.427 . S
C2617 H2607 0.929 . S
C2617 C2615 1.433 . S
C2617 N2620 1.384 . S
C2618 H2609 0.929 . S
C2618 C2610 1.378 . S
C2618 C2613 1.350 . S
C2619 H2606 0.929 . S
C2619 C2611 1.433 . S
C2619 N2621 1.384 . S
N2620 C2616 1.427 . S
N2620 C2617 1.384 . S
N2621 C2613 1.427 . S
N2621 C2619 1.384 . S
H2622 C2628 0.930 . S
H2623 C2632 0.930 . S
H2624 C2637 0.929 . S
H2625 C2635 0.929 . S
H2626 C2630 0.929 . S
H2627 C2636 0.929 . S
C2628 H2622 0.930 . S
C2628 C2629 1.367 . S
C2628 C2636 1.378 . S
C2629 C2628 1.367 . S
C2629 C2637 1.433 . S
C2630 H2626 0.929 . S
C2630 C2632 1.378 . S
C2630 C2634 1.350 . S
C2631 C2634 1.463 . S
C2631 C2636 1.350 . S
C2631 N2639 1.427 . S
C2632 H2623 0.930 . S
C2632 C2630 1.378 . S
C2632 C2633 1.367 . S
C2633 C2632 1.367 . S
C2633 C2635 1.433 . S
C2634 C2630 1.350 . S
C2634 C2631 1.463 . S
C2634 N2638 1.427 . S
C2635 H2625 0.929 . S
C2635 C2633 1.433 . S
C2635 N2638 1.384 . S
C2636 H2627 0.929 . S
C2636 C2628 1.378 . S
C2636 C2631 1.350 . S
C2637 H2624 0.929 . S
C2637 C2629 1.433 . S
C2637 N2639 1.384 . S
N2638 C2634 1.427 . S
N2638 C2635 1.384 . S
N2639 C2631 1.427 . S
N2639 C2637 1.384 . S
H2640 C2646 0.930 . S
H2641 C2650 0.930 . S
H2642 C2655 0.929 . S
H2643 C2653 0.929 . S
H2644 C2648 0.929 . S
H2645 C2654 0.929 . S
C2646 H2640 0.930 . S
C2646 C2647 1.367 . S
C2646 C2654 1.378 . S
C2647 C2646 1.367 . S
C2647 C2655 1.433 . S
C2648 H2644 0.929 . S
C2648 C2650 1.378 . S
C2648 C2652 1.350 . S
C2649 C2652 1.463 . S
C2649 C2654 1.350 . S
C2649 N2657 1.427 . S
C2650 H2641 0.930 . S
C2650 C2648 1.378 . S
C2650 C2651 1.367 . S
C2651 C2650 1.367 . S
C2651 C2653 1.433 . S
C2652 C2648 1.350 . S
C2652 C2649 1.463 . S
C2652 N2656 1.427 . S
C2653 H2643 0.929 . S
C2653 C2651 1.433 . S
C2653 N2656 1.384 . S
C2654 H2645 0.929 . S
C2654 C2646 1.378 . S
C2654 C2649 1.350 . S
C2655 H2642 0.929 . S
C2655 C2647 1.433 . S
C2655 N2657 1.384 . S
N2656 C2652 1.427 . S
N2656 C2653 1.384 . S
N2657 C2649 1.427 . S
N2657 C2655 1.384 . S
H2658 C2664 0.930 . S
H2659 C2668 0.930 . S
H2660 C2673 0.929 . S
H2661 C2671 0.929 . S
H2662 C2666 0.929 . S
H2663 C2672 0.929 . S
C2664 H2658 0.930 . S
C2664 C2665 1.367 . S
C2664 C2672 1.378 . S
C2665 C2664 1.367 . S
C2665 C2673 1.433 . S
C2666 H2662 0.929 . S
C2666 C2668 1.378 . S
C2666 C2670 1.350 . S
C2667 C2670 1.463 . S
C2667 C2672 1.350 . S
C2667 N2675 1.427 . S
C2668 H2659 0.930 . S
C2668 C2666 1.378 . S
C2668 C2669 1.367 . S
C2669 C2668 1.367 . S
C2669 C2671 1.433 . S
C2670 C2666 1.350 . S
C2670 C2667 1.463 . S
C2670 N2674 1.427 . S
C2671 H2661 0.929 . S
C2671 C2669 1.433 . S
C2671 N2674 1.384 . S
C2672 H2663 0.929 . S
C2672 C2664 1.378 . S
C2672 C2667 1.350 . S
C2673 H2660 0.929 . S
C2673 C2665 1.433 . S
C2673 N2675 1.384 . S
N2674 C2670 1.427 . S
N2674 C2671 1.384 . S
N2675 C2667 1.427 . S
N2675 C2673 1.384 . S
H2676 C2682 0.930 . S
H2677 C2686 0.930 . S
H2678 C2691 0.929 . S
H2679 C2689 0.929 1_655 S
H2680 C2684 0.929 . S
H2681 C2690 0.931 . S
C2682 H2676 0.930 . S
C2682 C2683 1.367 . S
C2682 C2690 1.378 . S
C2683 C2682 1.367 . S
C2683 C2691 1.433 . S
C2684 H2680 0.929 . S
C2684 C2686 1.378 . S
C2684 C2688 1.350 . S
C2685 C2688 1.463 . S
C2685 C2690 1.350 . S
C2685 N2693 1.427 . S
C2686 H2677 0.930 . S
C2686 C2684 1.378 . S
C2686 C2687 1.367 . S
C2687 C2686 1.367 . S
C2687 C2689 1.433 1_556 S
C2688 C2684 1.350 . S
C2688 C2685 1.463 . S
C2688 N2692 1.427 . S
C2689 H2679 0.929 1_455 S
C2689 C2687 1.433 1_554 S
C2689 N2692 1.384 1_554 S
C2690 H2681 0.931 . S
C2690 C2682 1.378 . S
C2690 C2685 1.350 . S
C2691 H2678 0.929 . S
C2691 C2683 1.433 . S
C2691 N2693 1.384 . S
N2692 C2688 1.427 . S
N2692 C2689 1.384 1_556 S
N2693 C2685 1.427 . S
N2693 C2691 1.384 . S
H2694 C2700 0.930 . S
H2695 C2704 0.930 . S
H2696 C2709 0.929 . S
H2697 C2707 0.929 . S
H2698 C2702 0.929 . S
H2699 C2708 0.929 . S
C2700 H2694 0.930 . S
C2700 C2701 1.367 . S
C2700 C2708 1.378 . S
C2701 C2700 1.367 . S
C2701 C2709 1.433 . S
C2702 H2698 0.929 . S
C2702 C2704 1.378 . S
C2702 C2706 1.350 . S
C2703 C2706 1.463 . S
C2703 C2708 1.350 . S
C2703 N2711 1.427 . S
C2704 H2695 0.930 . S
C2704 C2702 1.378 . S
C2704 C2705 1.367 . S
C2705 C2704 1.367 . S
C2705 C2707 1.433 . S
C2706 C2702 1.350 . S
C2706 C2703 1.463 . S
C2706 N2710 1.427 . S
C2707 H2697 0.929 . S
C2707 C2705 1.433 . S
C2707 N2710 1.384 . S
C2708 H2699 0.929 . S
C2708 C2700 1.378 . S
C2708 C2703 1.350 . S
C2709 H2696 0.929 . S
C2709 C2701 1.433 . S
C2709 N2711 1.384 . S
N2710 C2706 1.427 . S
N2710 C2707 1.384 . S
N2711 C2703 1.427 . S
N2711 C2709 1.384 . S
H2712 C2718 0.930 . S
H2713 C2722 0.930 . S
H2714 C2727 0.929 . S
H2715 C2725 0.929 . S
H2716 C2720 0.929 . S
H2717 C2726 0.929 . S
C2718 H2712 0.930 . S
C2718 C2719 1.367 . S
C2718 C2726 1.378 . S
C2719 C2718 1.367 . S
C2719 C2727 1.433 . S
C2720 H2716 0.929 . S
C2720 C2722 1.378 . S
C2720 C2724 1.350 . S
C2721 C2724 1.463 . S
C2721 C2726 1.350 . S
C2721 N2729 1.427 . S
C2722 H2713 0.930 . S
C2722 C2720 1.378 . S
C2722 C2723 1.367 . S
C2723 C2722 1.367 . S
C2723 C2725 1.433 . S
C2724 C2720 1.350 . S
C2724 C2721 1.463 . S
C2724 N2728 1.427 . S
C2725 H2715 0.929 . S
C2725 C2723 1.433 . S
C2725 N2728 1.384 . S
C2726 H2717 0.929 . S
C2726 C2718 1.378 . S
C2726 C2721 1.350 . S
C2727 H2714 0.929 . S
C2727 C2719 1.433 . S
C2727 N2729 1.384 . S
N2728 C2724 1.427 . S
N2728 C2725 1.384 . S
N2729 C2721 1.427 . S
N2729 C2727 1.384 . S
H2730 C2736 0.930 . S
H2731 C2740 0.930 . S
H2732 C2745 0.929 . S
H2733 C2743 0.929 . S
H2734 C2738 0.929 . S
H2735 C2744 0.929 . S
C2736 H2730 0.930 . S
C2736 C2737 1.367 . S
C2736 C2744 1.378 . S
C2737 C2736 1.367 . S
C2737 C2745 1.433 . S
C2738 H2734 0.929 . S
C2738 C2740 1.378 . S
C2738 C2742 1.350 . S
C2739 C2742 1.463 . S
C2739 C2744 1.350 . S
C2739 N2747 1.427 . S
C2740 H2731 0.930 . S
C2740 C2738 1.378 . S
C2740 C2741 1.367 . S
C2741 C2740 1.367 . S
C2741 C2743 1.433 . S
C2742 C2738 1.350 . S
C2742 C2739 1.463 . S
C2742 N2746 1.427 . S
C2743 H2733 0.929 . S
C2743 C2741 1.433 . S
C2743 N2746 1.384 . S
C2744 H2735 0.929 . S
C2744 C2736 1.378 . S
C2744 C2739 1.350 . S
C2745 H2732 0.929 . S
C2745 C2737 1.433 . S
C2745 N2747 1.384 . S
N2746 C2742 1.427 . S
N2746 C2743 1.384 . S
N2747 C2739 1.427 . S
N2747 C2745 1.384 . S
H2748 C2754 0.930 . S
H2749 C2758 0.922 1_655 S
H2750 C2763 0.929 . S
H2751 C2761 0.929 . S
H2752 C2756 0.929 . S
H2753 C2762 0.929 . S
C2754 H2748 0.930 . S
C2754 C2755 1.370 . S
C2754 C2762 1.378 . S
C2755 C2754 1.370 . S
C2755 C2763 1.431 1_455 S
C2756 H2752 0.929 . S
C2756 C2758 1.376 1_655 S
C2756 C2760 1.350 1_655 S
C2757 C2760 1.463 . S
C2757 C2762 1.350 . S
C2757 N2765 1.427 1_455 S
C2758 H2749 0.922 1_455 S
C2758 C2756 1.376 1_455 S
C2758 C2759 1.378 . S
C2759 C2758 1.378 . S
C2759 C2761 1.433 . S
C2760 C2756 1.350 1_455 S
C2760 C2757 1.463 . S
C2760 N2764 1.427 . S
C2761 H2751 0.929 . S
C2761 C2759 1.433 . S
C2761 N2764 1.384 . S
C2762 H2753 0.929 . S
C2762 C2754 1.378 . S
C2762 C2757 1.350 . S
C2763 H2750 0.929 . S
C2763 C2755 1.431 1_655 S
C2763 N2765 1.384 . S
N2764 C2760 1.427 . S
N2764 C2761 1.384 . S
N2765 C2757 1.427 1_655 S
N2765 C2763 1.384 . S
H2766 C2772 0.930 . S
H2767 C2776 0.930 . S
H2768 C2781 0.929 . S
H2769 C2779 0.929 . S
H2770 C2774 0.929 . S
H2771 C2780 0.929 . S
C2772 H2766 0.930 . S
C2772 C2773 1.367 . S
C2772 C2780 1.378 . S
C2773 C2772 1.367 . S
C2773 C2781 1.433 . S
C2774 H2770 0.929 . S
C2774 C2776 1.378 . S
C2774 C2778 1.350 . S
C2775 C2778 1.463 . S
C2775 C2780 1.350 . S
C2775 N2783 1.427 . S
C2776 H2767 0.930 . S
C2776 C2774 1.378 . S
C2776 C2777 1.367 . S
C2777 C2776 1.367 . S
C2777 C2779 1.433 . S
C2778 C2774 1.350 . S
C2778 C2775 1.463 . S
C2778 N2782 1.427 . S
C2779 H2769 0.929 . S
C2779 C2777 1.433 . S
C2779 N2782 1.384 . S
C2780 H2771 0.929 . S
C2780 C2772 1.378 . S
C2780 C2775 1.350 . S
C2781 H2768 0.929 . S
C2781 C2773 1.433 . S
C2781 N2783 1.384 . S
N2782 C2778 1.427 . S
N2782 C2779 1.384 . S
N2783 C2775 1.427 . S
N2783 C2781 1.384 . S
H2784 C2790 0.930 . S
H2785 C2794 0.930 . S
H2786 C2799 0.929 . S
H2787 C2797 0.929 . S
H2788 C2792 0.929 . S
H2789 C2798 0.929 . S
C2790 H2784 0.930 . S
C2790 C2791 1.367 . S
C2790 C2798 1.378 . S
C2791 C2790 1.367 . S
C2791 C2799 1.433 . S
C2792 H2788 0.929 . S
C2792 C2794 1.378 . S
C2792 C2796 1.350 . S
C2793 C2796 1.463 . S
C2793 C2798 1.350 . S
C2793 N2801 1.427 . S
C2794 H2785 0.930 . S
C2794 C2792 1.378 . S
C2794 C2795 1.367 . S
C2795 C2794 1.367 . S
C2795 C2797 1.433 . S
C2796 C2792 1.350 . S
C2796 C2793 1.463 . S
C2796 N2800 1.427 . S
C2797 H2787 0.929 . S
C2797 C2795 1.433 . S
C2797 N2800 1.384 . S
C2798 H2789 0.929 . S
C2798 C2790 1.378 . S
C2798 C2793 1.350 . S
C2799 H2786 0.929 . S
C2799 C2791 1.433 . S
C2799 N2801 1.384 . S
N2800 C2796 1.427 . S
N2800 C2797 1.384 . S
N2801 C2793 1.427 . S
N2801 C2799 1.384 . S
H2802 C2808 0.930 . S
H2803 C2812 0.930 . S
H2804 C2817 0.929 . S
H2805 C2815 0.929 . S
H2806 C2810 0.929 . S
H2807 C2816 0.929 . S
C2808 H2802 0.930 . S
C2808 C2809 1.367 . S
C2808 C2816 1.378 . S
C2809 C2808 1.367 . S
C2809 C2817 1.433 . S
C2810 H2806 0.929 . S
C2810 C2812 1.378 . S
C2810 C2814 1.350 . S
C2811 C2814 1.463 . S
C2811 C2816 1.350 . S
C2811 N2819 1.427 . S
C2812 H2803 0.930 . S
C2812 C2810 1.378 . S
C2812 C2813 1.367 . S
C2813 C2812 1.367 . S
C2813 C2815 1.433 . S
C2814 C2810 1.350 . S
C2814 C2811 1.463 . S
C2814 N2818 1.427 . S
C2815 H2805 0.929 . S
C2815 C2813 1.433 . S
C2815 N2818 1.384 . S
C2816 H2807 0.929 . S
C2816 C2808 1.378 . S
C2816 C2811 1.350 . S
C2817 H2804 0.929 . S
C2817 C2809 1.433 . S
C2817 N2819 1.384 . S
N2818 C2814 1.427 . S
N2818 C2815 1.384 . S
N2819 C2811 1.427 . S
N2819 C2817 1.384 . S
H2820 C2826 0.930 . S
H2821 C2830 0.930 . S
H2822 C2835 0.929 . S
H2823 C2833 0.929 . S
H2824 C2828 0.929 . S
H2825 C2834 0.929 . S
C2826 H2820 0.930 . S
C2826 C2827 1.367 . S
C2826 C2834 1.378 . S
C2827 C2826 1.367 . S
C2827 C2835 1.433 . S
C2828 H2824 0.929 . S
C2828 C2830 1.378 . S
C2828 C2832 1.350 . S
C2829 C2832 1.463 . S
C2829 C2834 1.350 . S
C2829 N2837 1.427 . S
C2830 H2821 0.930 . S
C2830 C2828 1.378 . S
C2830 C2831 1.367 . S
C2831 C2830 1.367 . S
C2831 C2833 1.433 . S
C2832 C2828 1.350 . S
C2832 C2829 1.463 . S
C2832 N2836 1.427 . S
C2833 H2823 0.929 . S
C2833 C2831 1.433 . S
C2833 N2836 1.384 . S
C2834 H2825 0.929 . S
C2834 C2826 1.378 . S
C2834 C2829 1.350 . S
C2835 H2822 0.929 . S
C2835 C2827 1.433 . S
C2835 N2837 1.384 . S
N2836 C2832 1.427 . S
N2836 C2833 1.384 . S
N2837 C2829 1.427 . S
N2837 C2835 1.384 . S
H2838 C2844 0.930 . S
H2839 C2848 0.930 . S
H2840 C2853 0.929 . S
H2841 C2851 0.929 . S
H2842 C2846 0.929 . S
H2843 C2852 0.929 . S
C2844 H2838 0.930 . S
C2844 C2845 1.367 . S
C2844 C2852 1.378 . S
C2845 C2844 1.367 . S
C2845 C2853 1.433 . S
C2846 H2842 0.929 . S
C2846 C2848 1.378 . S
C2846 C2850 1.350 . S
C2847 C2850 1.463 . S
C2847 C2852 1.350 . S
C2847 N2855 1.427 . S
C2848 H2839 0.930 . S
C2848 C2846 1.378 . S
C2848 C2849 1.367 . S
C2849 C2848 1.367 . S
C2849 C2851 1.433 . S
C2850 C2846 1.350 . S
C2850 C2847 1.463 . S
C2850 N2854 1.427 . S
C2851 H2841 0.929 . S
C2851 C2849 1.433 . S
C2851 N2854 1.384 . S
C2852 H2843 0.929 . S
C2852 C2844 1.378 . S
C2852 C2847 1.350 . S
C2853 H2840 0.929 . S
C2853 C2845 1.433 . S
C2853 N2855 1.384 . S
N2854 C2850 1.427 . S
N2854 C2851 1.384 . S
N2855 C2847 1.427 . S
N2855 C2853 1.384 . S
H2856 C2862 0.930 . S
H2857 C2866 0.930 . S
H2858 C2871 0.929 . S
H2859 C2869 0.929 . S
H2860 C2864 0.929 . S
H2861 C2870 0.929 . S
C2862 H2856 0.930 . S
C2862 C2863 1.367 . S
C2862 C2870 1.378 . S
C2863 C2862 1.367 . S
C2863 C2871 1.433 . S
C2864 H2860 0.929 . S
C2864 C2866 1.378 . S
C2864 C2868 1.350 . S
C2865 C2868 1.463 . S
C2865 C2870 1.350 . S
C2865 N2873 1.427 . S
C2866 H2857 0.930 . S
C2866 C2864 1.378 . S
C2866 C2867 1.367 . S
C2867 C2866 1.367 . S
C2867 C2869 1.433 . S
C2868 C2864 1.350 . S
C2868 C2865 1.463 . S
C2868 N2872 1.427 . S
C2869 H2859 0.929 . S
C2869 C2867 1.433 . S
C2869 N2872 1.384 . S
C2870 H2861 0.929 . S
C2870 C2862 1.378 . S
C2870 C2865 1.350 . S
C2871 H2858 0.929 . S
C2871 C2863 1.433 . S
C2871 N2873 1.384 . S
N2872 C2868 1.427 . S
N2872 C2869 1.384 . S
N2873 C2865 1.427 . S
N2873 C2871 1.384 . S
H2874 C2880 0.930 . S
H2875 C2884 0.930 . S
H2876 C2889 0.929 . S
H2877 C2887 0.929 . S
H2878 C2882 0.929 . S
H2879 C2888 0.929 . S
C2880 H2874 0.930 . S
C2880 C2881 1.367 . S
C2880 C2888 1.378 . S
C2881 C2880 1.367 . S
C2881 C2889 1.433 . S
C2882 H2878 0.929 . S
C2882 C2884 1.378 . S
C2882 C2886 1.350 . S
C2883 C2886 1.463 . S
C2883 C2888 1.350 . S
C2883 N2891 1.427 . S
C2884 H2875 0.930 . S
C2884 C2882 1.378 . S
C2884 C2885 1.367 . S
C2885 C2884 1.367 . S
C2885 C2887 1.433 . S
C2886 C2882 1.350 . S
C2886 C2883 1.463 . S
C2886 N2890 1.427 . S
C2887 H2877 0.929 . S
C2887 C2885 1.433 . S
C2887 N2890 1.384 . S
C2888 H2879 0.929 . S
C2888 C2880 1.378 . S
C2888 C2883 1.350 . S
C2889 H2876 0.929 . S
C2889 C2881 1.433 . S
C2889 N2891 1.384 . S
N2890 C2886 1.427 . S
N2890 C2887 1.384 . S
N2891 C2883 1.427 . S
N2891 C2889 1.384 . S
H2892 C2898 0.930 . S
H2893 C2902 0.930 . S
H2894 C2907 0.929 . S
H2895 C2905 0.929 . S
H2896 C2900 0.929 . S
H2897 C2906 0.929 . S
C2898 H2892 0.930 . S
C2898 C2899 1.367 . S
C2898 C2906 1.378 . S
C2899 C2898 1.367 . S
C2899 C2907 1.433 . S
C2900 H2896 0.929 . S
C2900 C2902 1.378 . S
C2900 C2904 1.350 . S
C2901 C2904 1.463 . S
C2901 C2906 1.350 . S
C2901 N2909 1.427 . S
C2902 H2893 0.930 . S
C2902 C2900 1.378 . S
C2902 C2903 1.367 . S
C2903 C2902 1.367 . S
C2903 C2905 1.433 . S
C2904 C2900 1.350 . S
C2904 C2901 1.463 . S
C2904 N2908 1.427 . S
C2905 H2895 0.929 . S
C2905 C2903 1.433 . S
C2905 N2908 1.384 . S
C2906 H2897 0.929 . S
C2906 C2898 1.378 . S
C2906 C2901 1.350 . S
C2907 H2894 0.929 . S
C2907 C2899 1.433 . S
C2907 N2909 1.384 . S
N2908 C2904 1.427 . S
N2908 C2905 1.384 . S
N2909 C2901 1.427 . S
N2909 C2907 1.384 . S
H2910 C2916 0.930 . S
H2911 C2920 0.930 . S
H2912 C2925 0.929 . S
H2913 C2923 0.929 . S
H2914 C2918 0.929 . S
H2915 C2924 0.929 . S
C2916 H2910 0.930 . S
C2916 C2917 1.367 . S
C2916 C2924 1.378 . S
C2917 C2916 1.367 . S
C2917 C2925 1.433 . S
C2918 H2914 0.929 . S
C2918 C2920 1.378 . S
C2918 C2922 1.350 . S
C2919 C2922 1.463 . S
C2919 C2924 1.350 . S
C2919 N2927 1.427 . S
C2920 H2911 0.930 . S
C2920 C2918 1.378 . S
C2920 C2921 1.367 . S
C2921 C2920 1.367 . S
C2921 C2923 1.433 . S
C2922 C2918 1.350 . S
C2922 C2919 1.463 . S
C2922 N2926 1.427 . S
C2923 H2913 0.929 . S
C2923 C2921 1.433 . S
C2923 N2926 1.384 . S
C2924 H2915 0.929 . S
C2924 C2916 1.378 . S
C2924 C2919 1.350 . S
C2925 H2912 0.929 . S
C2925 C2917 1.433 . S
C2925 N2927 1.384 . S
N2926 C2922 1.427 . S
N2926 C2923 1.384 . S
N2927 C2919 1.427 . S
N2927 C2925 1.384 . S
H2928 C2934 0.930 . S
H2929 C2938 0.930 . S
H2930 C2943 0.929 . S
H2931 C2941 0.929 . S
H2932 C2936 0.929 . S
H2933 C2942 0.929 . S
C2934 H2928 0.930 . S
C2934 C2935 1.367 . S
C2934 C2942 1.378 . S
C2935 C2934 1.367 . S
C2935 C2943 1.433 . S
C2936 H2932 0.929 . S
C2936 C2938 1.378 . S
C2936 C2940 1.350 . S
C2937 C2940 1.463 . S
C2937 C2942 1.350 . S
C2937 N2945 1.427 . S
C2938 H2929 0.930 . S
C2938 C2936 1.378 . S
C2938 C2939 1.367 . S
C2939 C2938 1.367 . S
C2939 C2941 1.433 . S
C2940 C2936 1.350 . S
C2940 C2937 1.463 . S
C2940 N2944 1.427 . S
C2941 H2931 0.929 . S
C2941 C2939 1.433 . S
C2941 N2944 1.384 . S
C2942 H2933 0.929 . S
C2942 C2934 1.378 . S
C2942 C2937 1.350 . S
C2943 H2930 0.929 . S
C2943 C2935 1.433 . S
C2943 N2945 1.384 . S
N2944 C2940 1.427 . S
N2944 C2941 1.384 . S
N2945 C2937 1.427 . S
N2945 C2943 1.384 . S
H2946 C2952 0.930 . S
H2947 C2956 0.930 . S
H2948 C2961 0.929 . S
H2949 C2959 0.929 . S
H2950 C2954 0.929 . S
H2951 C2960 0.929 . S
C2952 H2946 0.930 . S
C2952 C2953 1.367 . S
C2952 C2960 1.378 . S
C2953 C2952 1.367 . S
C2953 C2961 1.433 . S
C2954 H2950 0.929 . S
C2954 C2956 1.378 . S
C2954 C2958 1.350 . S
C2955 C2958 1.463 . S
C2955 C2960 1.350 . S
C2955 N2963 1.427 . S
C2956 H2947 0.930 . S
C2956 C2954 1.378 . S
C2956 C2957 1.367 . S
C2957 C2956 1.367 . S
C2957 C2959 1.433 . S
C2958 C2954 1.350 . S
C2958 C2955 1.463 . S
C2958 N2962 1.427 . S
C2959 H2949 0.929 . S
C2959 C2957 1.433 . S
C2959 N2962 1.384 . S
C2960 H2951 0.929 . S
C2960 C2952 1.378 . S
C2960 C2955 1.350 . S
C2961 H2948 0.929 . S
C2961 C2953 1.433 . S
C2961 N2963 1.384 . S
N2962 C2958 1.427 . S
N2962 C2959 1.384 . S
N2963 C2955 1.427 . S
N2963 C2961 1.384 . S
H2964 C2970 0.930 . S
H2965 C2974 0.930 . S
H2966 C2979 0.929 . S
H2967 C2977 0.929 . S
H2968 C2972 0.929 . S
H2969 C2978 0.929 . S
C2970 H2964 0.930 . S
C2970 C2971 1.367 . S
C2970 C2978 1.378 . S
C2971 C2970 1.367 . S
C2971 C2979 1.433 . S
C2972 H2968 0.929 . S
C2972 C2974 1.378 . S
C2972 C2976 1.350 . S
C2973 C2976 1.463 . S
C2973 C2978 1.350 . S
C2973 N2981 1.427 . S
C2974 H2965 0.930 . S
C2974 C2972 1.378 . S
C2974 C2975 1.367 . S
C2975 C2974 1.367 . S
C2975 C2977 1.433 . S
C2976 C2972 1.350 . S
C2976 C2973 1.463 . S
C2976 N2980 1.427 . S
C2977 H2967 0.929 . S
C2977 C2975 1.433 . S
C2977 N2980 1.384 . S
C2978 H2969 0.929 . S
C2978 C2970 1.378 . S
C2978 C2973 1.350 . S
C2979 H2966 0.929 . S
C2979 C2971 1.433 . S
C2979 N2981 1.384 . S
N2980 C2976 1.427 . S
N2980 C2977 1.384 . S
N2981 C2973 1.427 . S
N2981 C2979 1.384 . S
H2982 C2988 0.930 . S
H2983 C2992 0.930 1_545 S
H2984 C2997 0.929 . S
H2985 C2995 0.927 1_545 S
H2986 C2990 0.929 . S
H2987 C2996 0.929 . S
C2988 H2982 0.930 . S
C2988 C2989 1.367 . S
C2988 C2996 1.378 . S
C2989 C2988 1.367 . S
C2989 C2997 1.433 1_554 S
C2990 H2986 0.929 . S
C2990 C2992 1.378 . S
C2990 C2994 1.350 1_556 S
C2991 C2994 1.463 . S
C2991 C2996 1.350 . S
C2991 N2999 1.427 1_554 S
C2992 H2983 0.930 1_565 S
C2992 C2990 1.378 . S
C2992 C2993 1.367 1_566 S
C2993 C2992 1.367 1_544 S
C2993 C2995 1.433 1_545 S
C2994 C2990 1.350 1_554 S
C2994 C2991 1.463 . S
C2994 N2998 1.427 . S
C2995 H2985 0.927 1_565 S
C2995 C2993 1.433 1_565 S
C2995 N2998 1.384 . S
C2996 H2987 0.929 . S
C2996 C2988 1.378 . S
C2996 C2991 1.350 . S
C2997 H2984 0.929 . S
C2997 C2989 1.433 1_556 S
C2997 N2999 1.384 . S
N2998 C2994 1.427 . S
N2998 C2995 1.384 . S
N2999 C2991 1.427 1_556 S
N2999 C2997 1.384 . S
H3000 C3006 0.930 . S
H3001 C3010 0.930 . S
H3002 C3015 0.929 . S
H3003 C3013 0.929 . S
H3004 C3008 0.929 . S
H3005 C3014 0.929 . S
C3006 H3000 0.930 . S
C3006 C3007 1.367 . S
C3006 C3014 1.378 . S
C3007 C3006 1.367 . S
C3007 C3015 1.433 . S
C3008 H3004 0.929 . S
C3008 C3010 1.378 . S
C3008 C3012 1.350 . S
C3009 C3012 1.463 . S
C3009 C3014 1.350 . S
C3009 N3017 1.427 . S
C3010 H3001 0.930 . S
C3010 C3008 1.378 . S
C3010 C3011 1.367 . S
C3011 C3010 1.367 . S
C3011 C3013 1.433 . S
C3012 C3008 1.350 . S
C3012 C3009 1.463 . S
C3012 N3016 1.427 . S
C3013 H3003 0.929 . S
C3013 C3011 1.433 . S
C3013 N3016 1.384 . S
C3014 H3005 0.929 . S
C3014 C3006 1.378 . S
C3014 C3009 1.350 . S
C3015 H3002 0.929 . S
C3015 C3007 1.433 . S
C3015 N3017 1.384 . S
N3016 C3012 1.427 . S
N3016 C3013 1.384 . S
N3017 C3009 1.427 . S
N3017 C3015 1.384 . S
H3018 C3024 0.930 . S
H3019 C3028 0.930 . S
H3020 C3033 0.929 . S
H3021 C3031 0.929 . S
H3022 C3026 0.929 . S
H3023 C3032 0.929 . S
C3024 H3018 0.930 . S
C3024 C3025 1.367 1_556 S
C3024 C3032 1.378 . S
C3025 C3024 1.367 1_554 S
C3025 C3033 1.433 . S
C3026 H3022 0.929 . S
C3026 C3028 1.378 . S
C3026 C3030 1.350 . S
C3027 C3030 1.463 . S
C3027 C3032 1.350 1_554 S
C3027 N3035 1.427 . S
C3028 H3019 0.930 . S
C3028 C3026 1.378 . S
C3028 C3029 1.367 . S
C3029 C3028 1.367 . S
C3029 C3031 1.433 . S
C3030 C3026 1.350 . S
C3030 C3027 1.463 . S
C3030 N3034 1.427 . S
C3031 H3021 0.929 . S
C3031 C3029 1.433 . S
C3031 N3034 1.384 . S
C3032 H3023 0.929 . S
C3032 C3024 1.378 . S
C3032 C3027 1.350 1_556 S
C3033 H3020 0.929 . S
C3033 C3025 1.433 . S
C3033 N3035 1.384 . S
N3034 C3030 1.427 . S
N3034 C3031 1.384 . S
N3035 C3027 1.427 . S
N3035 C3033 1.384 . S
H3036 C3042 0.930 . S
H3037 C3046 0.930 . S
H3038 C3051 0.929 . S
H3039 C3049 0.929 . S
H3040 C3044 0.929 . S
H3041 C3050 0.929 . S
C3042 H3036 0.930 . S
C3042 C3043 1.367 . S
C3042 C3050 1.378 . S
C3043 C3042 1.367 . S
C3043 C3051 1.433 . S
C3044 H3040 0.929 . S
C3044 C3046 1.378 . S
C3044 C3048 1.350 . S
C3045 C3048 1.463 . S
C3045 C3050 1.350 . S
C3045 N3053 1.427 . S
C3046 H3037 0.930 . S
C3046 C3044 1.378 . S
C3046 C3047 1.367 . S
C3047 C3046 1.367 . S
C3047 C3049 1.433 . S
C3048 C3044 1.350 . S
C3048 C3045 1.463 . S
C3048 N3052 1.427 . S
C3049 H3039 0.929 . S
C3049 C3047 1.433 . S
C3049 N3052 1.384 . S
C3050 H3041 0.929 . S
C3050 C3042 1.378 . S
C3050 C3045 1.350 . S
C3051 H3038 0.929 . S
C3051 C3043 1.433 . S
C3051 N3053 1.384 . S
N3052 C3048 1.427 . S
N3052 C3049 1.384 . S
N3053 C3045 1.427 . S
N3053 C3051 1.384 . S
H3054 C3060 0.930 . S
H3055 C3064 0.930 . S
H3056 C3069 0.929 . S
H3057 C3067 0.929 . S
H3058 C3062 0.929 . S
H3059 C3068 0.929 . S
C3060 H3054 0.930 . S
C3060 C3061 1.367 . S
C3060 C3068 1.378 . S
C3061 C3060 1.367 . S
C3061 C3069 1.433 . S
C3062 H3058 0.929 . S
C3062 C3064 1.378 . S
C3062 C3066 1.350 . S
C3063 C3066 1.463 . S
C3063 C3068 1.350 . S
C3063 N3071 1.427 . S
C3064 H3055 0.930 . S
C3064 C3062 1.378 . S
C3064 C3065 1.367 . S
C3065 C3064 1.367 . S
C3065 C3067 1.433 . S
C3066 C3062 1.350 . S
C3066 C3063 1.463 . S
C3066 N3070 1.427 . S
C3067 H3057 0.929 . S
C3067 C3065 1.433 . S
C3067 N3070 1.384 . S
C3068 H3059 0.929 . S
C3068 C3060 1.378 . S
C3068 C3063 1.350 . S
C3069 H3056 0.929 . S
C3069 C3061 1.433 . S
C3069 N3071 1.384 . S
N3070 C3066 1.427 . S
N3070 C3067 1.384 . S
N3071 C3063 1.427 . S
N3071 C3069 1.384 . S
C1355 C865 1.757 . S
C1351 C2 1.773 . S
C1369 C39 0.889 . S
C1373 C910 0.892 . S
C1387 C86 1.556 . S
C1391 C934 1.553 . S
C1409 N960 0.960 . S
C1405 C112 0.946 . S
C1423 C38 1.076 . S
C1427 N990 1.095 . S
C1445 C1024 1.474 . S
C1441 C76 1.493 . S
C1463 C1060 1.065 1_556 S
C1459 C122 1.060 . S
C1477 C3 1.715 . S
C1481 C1084 1.695 . S
C1495 C147 0.937 . S
C1499 N878 0.944 . S
C1513 C184 1.032 . S
C1517 N900 1.050 . S
C1535 C940 1.000 . S
C1531 C219 1.006 . S
C1553 C964 1.722 . S
C1549 C256 1.751 . S
C1567 C148 1.176 . S
C1571 C994 1.154 . S
C1589 C1030 1.065 . S
C1585 C183 1.065 . S
C1607 N1050 1.058 . S
C1603 C220 1.044 . S
C1625 C1090 1.672 . S
C1621 C255 1.688 . S
C1643 C891 1.687 . S
C1639 C254 1.698 . S
C1661 C1120 0.991 . S
C1657 C302 0.954 . S
C1675 C326 1.083 . S
C1679 N1140 1.092 . S
C1697 C1174 1.583 . S
C1693 C374 1.587 . S
C1711 C146 0.937 . S
C1715 N1080 0.940 . S
C1733 N930 1.058 1_565 S
C1729 C182 1.050 . S
C1747 C338 0.987 . S
C1751 C1210 1.022 . S
C1769 C1234 0.997 . S
C1765 C410 1.025 . S
C1783 C434 1.823 . S
C1787 C874 1.797 1_556 S
C1805 C1251 0.940 . S
C1801 C472 0.942 . S
C1819 C507 1.609 . S
C1823 C925 1.584 . S
C1837 C543 0.986 . S
C1841 N1208 0.992 . S
C1859 N998 1.122 . S
C1855 C470 1.112 . S
C1877 C1135 1.592 . S
C1873 C518 1.561 . S
C1895 C1071 1.119 . S
C1891 C554 1.094 . S
C1913 C1255 1.662 . S
C1909 C436 1.699 . S
C1931 N870 0.969 . S
C1927 C580 0.965 . S
C1945 C615 1.082 . S
C1949 N1238 1.086 . S
C1967 C951 1.014 . S
C1963 C652 1.023 . S
C1981 C687 1.798 . S
C1985 C1195 1.767 . S
C1999 C579 1.222 . S
C2003 C985 1.198 1_655 S
C2017 C616 1.124 . S
C2021 C1161 1.127 . S
C2039 N1058 1.079 . S
C2035 C651 1.076 . S
C2053 C688 1.723 . S
C2057 C1281 1.700 . S
C2071 C686 1.731 . S
C2075 C880 1.725 . S
C2089 C734 1.022 . S
C2093 C1131 1.036 . S
C2107 C758 1.086 . S
C2111 N1028 1.102 . S
C2125 C806 1.607 . S
C2129 C1165 1.637 . S
C2147 N1268 0.947 . S
C2143 C578 0.948 . S
C2165 N938 1.100 . S
C2161 C614 1.085 . S
C2183 C981 1.070 . S
C2179 C770 1.053 . S
C2201 C895 1.037 . S
C2197 C842 1.008 . S
C2215 C74 1.709 . S
C2219 C1285 1.691 . S
C2237 C1240 0.885 . S
C2233 C111 0.892 . S
C2255 C1324 1.623 . S
C2251 C14 1.614 . S
C2269 C40 0.914 1_655 S
C2273 N1200 0.961 . S
C2287 C110 1.084 . S
C2291 N1110 1.095 . S
C2309 C1144 1.524 . S
C2305 C4 1.551 . S
C2327 C1180 1.082 . S
C2323 C50 1.061 . S
C2345 C1264 1.625 . S
C2341 C75 1.648 . S
C2363 N1298 0.936 . S
C2359 C399 0.931 . S
C2377 C292 1.042 1_556 S
C2381 N1230 1.052 . S
C2395 C327 0.996 . S
C2399 C1330 0.989 1_655 S
C2417 C1204 1.725 . S
C2413 C364 1.752 . S
C2435 C1114 1.154 . S
C2431 C400 1.173 . S
C2449 C291 1.059 . S
C2453 C1150 1.054 . S
C2471 N1170 1.056 . S
C2467 C328 1.044 . S
C2485 C363 1.683 . S
C2489 C1270 1.667 . S
C2507 C1311 1.677 . S
C2503 C362 1.676 . S
C2525 C1000 0.990 . S
C2521 C194 0.969 . S
C2543 N1020 1.072 . S
C2539 C218 1.061 . S
C2557 C266 1.569 . S
C2561 C1054 1.574 . S
C2579 N1260 0.916 . S
C2575 C398 0.915 . S
C2593 C290 1.068 . S
C2597 N1320 1.076 . S
C2615 C970 1.026 . S
C2611 C230 1.011 . S
C2633 C904 0.983 . S
C2629 C158 1.010 . S
C2647 C508 1.716 . S
C2651 C1294 1.689 . S
C2669 C921 0.942 . S
C2665 C544 0.944 . S
C2687 C1315 1.661 1_556 S
C2683 C446 1.627 . S
C2701 C471 0.994 . S
C2705 N968 0.990 . S
C2719 C542 1.109 . S
C2723 N1118 1.119 . S
C2737 C435 1.538 . S
C2741 C1015 1.519 . S
C2755 C482 1.103 1_455 S
C2759 C1191 1.122 . S
C2773 C506 1.802 . S
C2777 C1075 1.776 . S
C2795 N1290 0.956 . S
C2791 C832 0.952 . S
C2809 C723 1.076 . S
C2813 N908 1.074 . S
C2831 C1341 1.043 . S
C2827 C760 1.040 . S
C2845 C795 1.802 . S
C2849 C955 1.769 . S
C2863 C831 1.214 . S
C2867 C1105 1.190 . S
C2885 C1041 1.099 . S
C2881 C724 1.111 . S
C2899 C759 1.084 . S
C2903 N1178 1.085 . S
C2921 C1101 1.724 . S
C2917 C796 1.745 . S
C2939 C1300 1.720 . S
C2935 C794 1.728 . S
C2957 C1011 1.051 . S
C2953 C626 1.035 . S
C2971 C650 1.085 . S
C2975 N1148 1.099 . S
C2993 C1045 1.624 . S
C2989 C698 1.594 . S
C3011 N1088 0.951 . S
C3007 C830 0.952 . S
C3025 C722 1.090 . S
C3029 N1328 1.097 . S
C3047 C1221 1.047 . S
C3043 C662 1.026 . S
C3065 C1225 1.036 . S
C3061 C590 1.007 . S
