# Generated by pormake.
# Topology gar, (4,6)-cn, num edge types: 1
# Building blocks:
#     Node 0, Type 0, BuildingBlock: AZAVOO_clean_sbu_0, # of connection points: 4
#     Node 1, Type 0, BuildingBlock: AZAVOO_clean_sbu_0, # of connection points: 4
#     Node 2, Type 0, BuildingBlock: AZAVOO_clean_sbu_0, # of connection points: 4
#     Node 3, Type 0, BuildingBlock: AZAVOO_clean_sbu_0, # of connection points: 4
#     Node 4, Type 0, BuildingBlock: AZAVOO_clean_sbu_0, # of connection points: 4
#     Node 5, Type 0, BuildingBlock: AZAVOO_clean_sbu_0, # of connection points: 4
#     Node 6, Type 0, BuildingBlock: AZAVOO_clean_sbu_0, # of connection points: 4
#     Node 7, Type 0, BuildingBlock: AZAVOO_clean_sbu_0, # of connection points: 4
#     Node 8, Type 0, BuildingBlock: AZAVOO_clean_sbu_0, # of connection points: 4
#     Node 9, Type 0, BuildingBlock: AZAVOO_clean_sbu_0, # of connection points: 4
#     Node 10, Type 0, BuildingBlock: AZAVOO_clean_sbu_0, # of connection points: 4
#     Node 11, Type 0, BuildingBlock: AZAVOO_clean_sbu_0, # of connection points: 4
#     Node 12, Type 0, BuildingBlock: AZAVOO_clean_sbu_0, # of connection points: 4
#     Node 13, Type 0, BuildingBlock: AZAVOO_clean_sbu_0, # of connection points: 4
#     Node 14, Type 0, BuildingBlock: AZAVOO_clean_sbu_0, # of connection points: 4
#     Node 15, Type 0, BuildingBlock: AZAVOO_clean_sbu_0, # of connection points: 4
#     Node 16, Type 0, BuildingBlock: AZAVOO_clean_sbu_0, # of connection points: 4
#     Node 17, Type 0, BuildingBlock: AZAVOO_clean_sbu_0, # of connection points: 4
#     Node 18, Type 0, BuildingBlock: AZAVOO_clean_sbu_0, # of connection points: 4
#     Node 19, Type 0, BuildingBlock: AZAVOO_clean_sbu_0, # of connection points: 4
#     Node 20, Type 0, BuildingBlock: AZAVOO_clean_sbu_0, # of connection points: 4
#     Node 21, Type 0, BuildingBlock: AZAVOO_clean_sbu_0, # of connection points: 4
#     Node 22, Type 0, BuildingBlock: AZAVOO_clean_sbu_0, # of connection points: 4
#     Node 23, Type 0, BuildingBlock: AZAVOO_clean_sbu_0, # of connection points: 4
#     Node 24, Type 1, BuildingBlock: KUMBUR_clean_sbu_1, # of connection points: 6
#     Node 25, Type 1, BuildingBlock: KUMBUR_clean_sbu_1, # of connection points: 6
#     Node 26, Type 1, BuildingBlock: KUMBUR_clean_sbu_1, # of connection points: 6
#     Node 27, Type 1, BuildingBlock: KUMBUR_clean_sbu_1, # of connection points: 6
#     Node 28, Type 1, BuildingBlock: KUMBUR_clean_sbu_1, # of connection points: 6
#     Node 29, Type 1, BuildingBlock: KUMBUR_clean_sbu_1, # of connection points: 6
#     Node 30, Type 1, BuildingBlock: KUMBUR_clean_sbu_1, # of connection points: 6
#     Node 31, Type 1, BuildingBlock: KUMBUR_clean_sbu_1, # of connection points: 6
#     Node 32, Type 1, BuildingBlock: KUMBUR_clean_sbu_1, # of connection points: 6
#     Node 33, Type 1, BuildingBlock: KUMBUR_clean_sbu_1, # of connection points: 6
#     Node 34, Type 1, BuildingBlock: KUMBUR_clean_sbu_1, # of connection points: 6
#     Node 35, Type 1, BuildingBlock: KUMBUR_clean_sbu_1, # of connection points: 6
#     Node 36, Type 1, BuildingBlock: KUMBUR_clean_sbu_1, # of connection points: 6
#     Node 37, Type 1, BuildingBlock: KUMBUR_clean_sbu_1, # of connection points: 6
#     Node 38, Type 1, BuildingBlock: KUMBUR_clean_sbu_1, # of connection points: 6
#     Node 39, Type 1, BuildingBlock: KUMBUR_clean_sbu_1, # of connection points: 6
#     Edge 40, Type (0, 1), BuildingBlock: TEMPAE_clean_linker_10, # of connection points: 2
#     Edge 41, Type (0, 1), BuildingBlock: TEMPAE_clean_linker_10, # of connection points: 2
#     Edge 42, Type (0, 1), BuildingBlock: TEMPAE_clean_linker_10, # of connection points: 2
#     Edge 43, Type (0, 1), BuildingBlock: TEMPAE_clean_linker_10, # of connection points: 2
#     Edge 44, Type (0, 1), BuildingBlock: TEMPAE_clean_linker_10, # of connection points: 2
#     Edge 45, Type (0, 1), BuildingBlock: TEMPAE_clean_linker_10, # of connection points: 2
#     Edge 46, Type (0, 1), BuildingBlock: TEMPAE_clean_linker_10, # of connection points: 2
#     Edge 47, Type (0, 1), BuildingBlock: TEMPAE_clean_linker_10, # of connection points: 2
#     Edge 48, Type (0, 1), BuildingBlock: TEMPAE_clean_linker_10, # of connection points: 2
#     Edge 49, Type (0, 1), BuildingBlock: TEMPAE_clean_linker_10, # of connection points: 2
#     Edge 50, Type (0, 1), BuildingBlock: TEMPAE_clean_linker_10, # of connection points: 2
#     Edge 51, Type (0, 1), BuildingBlock: TEMPAE_clean_linker_10, # of connection points: 2
#     Edge 52, Type (0, 1), BuildingBlock: TEMPAE_clean_linker_10, # of connection points: 2
#     Edge 53, Type (0, 1), BuildingBlock: TEMPAE_clean_linker_10, # of connection points: 2
#     Edge 54, Type (0, 1), BuildingBlock: TEMPAE_clean_linker_10, # of connection points: 2
#     Edge 55, Type (0, 1), BuildingBlock: TEMPAE_clean_linker_10, # of connection points: 2
#     Edge 56, Type (0, 1), BuildingBlock: TEMPAE_clean_linker_10, # of connection points: 2
#     Edge 57, Type (0, 1), BuildingBlock: TEMPAE_clean_linker_10, # of connection points: 2
#     Edge 58, Type (0, 1), BuildingBlock: TEMPAE_clean_linker_10, # of connection points: 2
#     Edge 59, Type (0, 1), BuildingBlock: TEMPAE_clean_linker_10, # of connection points: 2
#     Edge 60, Type (0, 1), BuildingBlock: TEMPAE_clean_linker_10, # of connection points: 2
#     Edge 61, Type (0, 1), BuildingBlock: TEMPAE_clean_linker_10, # of connection points: 2
#     Edge 62, Type (0, 1), BuildingBlock: TEMPAE_clean_linker_10, # of connection points: 2
#     Edge 63, Type (0, 1), BuildingBlock: TEMPAE_clean_linker_10, # of connection points: 2
#     Edge 64, Type (0, 1), BuildingBlock: TEMPAE_clean_linker_10, # of connection points: 2
#     Edge 65, Type (0, 1), BuildingBlock: TEMPAE_clean_linker_10, # of connection points: 2
#     Edge 66, Type (0, 1), BuildingBlock: TEMPAE_clean_linker_10, # of connection points: 2
#     Edge 67, Type (0, 1), BuildingBlock: TEMPAE_clean_linker_10, # of connection points: 2
#     Edge 68, Type (0, 1), BuildingBlock: TEMPAE_clean_linker_10, # of connection points: 2
#     Edge 69, Type (0, 1), BuildingBlock: TEMPAE_clean_linker_10, # of connection points: 2
#     Edge 70, Type (0, 1), BuildingBlock: TEMPAE_clean_linker_10, # of connection points: 2
#     Edge 71, Type (0, 1), BuildingBlock: TEMPAE_clean_linker_10, # of connection points: 2
#     Edge 72, Type (0, 1), BuildingBlock: TEMPAE_clean_linker_10, # of connection points: 2
#     Edge 73, Type (0, 1), BuildingBlock: TEMPAE_clean_linker_10, # of connection points: 2
#     Edge 74, Type (0, 1), BuildingBlock: TEMPAE_clean_linker_10, # of connection points: 2
#     Edge 75, Type (0, 1), BuildingBlock: TEMPAE_clean_linker_10, # of connection points: 2
#     Edge 76, Type (0, 1), BuildingBlock: TEMPAE_clean_linker_10, # of connection points: 2
#     Edge 77, Type (0, 1), BuildingBlock: TEMPAE_clean_linker_10, # of connection points: 2
#     Edge 78, Type (0, 1), BuildingBlock: TEMPAE_clean_linker_10, # of connection points: 2
#     Edge 79, Type (0, 1), BuildingBlock: TEMPAE_clean_linker_10, # of connection points: 2
#     Edge 80, Type (0, 1), BuildingBlock: TEMPAE_clean_linker_10, # of connection points: 2
#     Edge 81, Type (0, 1), BuildingBlock: TEMPAE_clean_linker_10, # of connection points: 2
#     Edge 82, Type (0, 1), BuildingBlock: TEMPAE_clean_linker_10, # of connection points: 2
#     Edge 83, Type (0, 1), BuildingBlock: TEMPAE_clean_linker_10, # of connection points: 2
#     Edge 84, Type (0, 1), BuildingBlock: TEMPAE_clean_linker_10, # of connection points: 2
#     Edge 85, Type (0, 1), BuildingBlock: TEMPAE_clean_linker_10, # of connection points: 2
#     Edge 86, Type (0, 1), BuildingBlock: TEMPAE_clean_linker_10, # of connection points: 2
#     Edge 87, Type (0, 1), BuildingBlock: TEMPAE_clean_linker_10, # of connection points: 2
#     Edge 88, Type (0, 1), BuildingBlock: TEMPAE_clean_linker_10, # of connection points: 2
#     Edge 89, Type (0, 1), BuildingBlock: TEMPAE_clean_linker_10, # of connection points: 2
#     Edge 90, Type (0, 1), BuildingBlock: TEMPAE_clean_linker_10, # of connection points: 2
#     Edge 91, Type (0, 1), BuildingBlock: TEMPAE_clean_linker_10, # of connection points: 2
#     Edge 92, Type (0, 1), BuildingBlock: TEMPAE_clean_linker_10, # of connection points: 2
#     Edge 93, Type (0, 1), BuildingBlock: TEMPAE_clean_linker_10, # of connection points: 2
#     Edge 94, Type (0, 1), BuildingBlock: TEMPAE_clean_linker_10, # of connection points: 2
#     Edge 95, Type (0, 1), BuildingBlock: TEMPAE_clean_linker_10, # of connection points: 2
#     Edge 96, Type (0, 1), BuildingBlock: TEMPAE_clean_linker_10, # of connection points: 2
#     Edge 97, Type (0, 1), BuildingBlock: TEMPAE_clean_linker_10, # of connection points: 2
#     Edge 98, Type (0, 1), BuildingBlock: TEMPAE_clean_linker_10, # of connection points: 2
#     Edge 99, Type (0, 1), BuildingBlock: TEMPAE_clean_linker_10, # of connection points: 2
#     Edge 100, Type (0, 1), BuildingBlock: TEMPAE_clean_linker_10, # of connection points: 2
#     Edge 101, Type (0, 1), BuildingBlock: TEMPAE_clean_linker_10, # of connection points: 2
#     Edge 102, Type (0, 1), BuildingBlock: TEMPAE_clean_linker_10, # of connection points: 2
#     Edge 103, Type (0, 1), BuildingBlock: TEMPAE_clean_linker_10, # of connection points: 2
#     Edge 104, Type (0, 1), BuildingBlock: TEMPAE_clean_linker_10, # of connection points: 2
#     Edge 105, Type (0, 1), BuildingBlock: TEMPAE_clean_linker_10, # of connection points: 2
#     Edge 106, Type (0, 1), BuildingBlock: TEMPAE_clean_linker_10, # of connection points: 2
#     Edge 107, Type (0, 1), BuildingBlock: TEMPAE_clean_linker_10, # of connection points: 2
#     Edge 108, Type (0, 1), BuildingBlock: TEMPAE_clean_linker_10, # of connection points: 2
#     Edge 109, Type (0, 1), BuildingBlock: TEMPAE_clean_linker_10, # of connection points: 2
#     Edge 110, Type (0, 1), BuildingBlock: TEMPAE_clean_linker_10, # of connection points: 2
#     Edge 111, Type (0, 1), BuildingBlock: TEMPAE_clean_linker_10, # of connection points: 2
#     Edge 112, Type (0, 1), BuildingBlock: TEMPAE_clean_linker_10, # of connection points: 2
#     Edge 113, Type (0, 1), BuildingBlock: TEMPAE_clean_linker_10, # of connection points: 2
#     Edge 114, Type (0, 1), BuildingBlock: TEMPAE_clean_linker_10, # of connection points: 2
#     Edge 115, Type (0, 1), BuildingBlock: TEMPAE_clean_linker_10, # of connection points: 2
#     Edge 116, Type (0, 1), BuildingBlock: TEMPAE_clean_linker_10, # of connection points: 2
#     Edge 117, Type (0, 1), BuildingBlock: TEMPAE_clean_linker_10, # of connection points: 2
#     Edge 118, Type (0, 1), BuildingBlock: TEMPAE_clean_linker_10, # of connection points: 2
#     Edge 119, Type (0, 1), BuildingBlock: TEMPAE_clean_linker_10, # of connection points: 2
#     Edge 120, Type (0, 1), BuildingBlock: TEMPAE_clean_linker_10, # of connection points: 2
#     Edge 121, Type (0, 1), BuildingBlock: TEMPAE_clean_linker_10, # of connection points: 2
#     Edge 122, Type (0, 1), BuildingBlock: TEMPAE_clean_linker_10, # of connection points: 2
#     Edge 123, Type (0, 1), BuildingBlock: TEMPAE_clean_linker_10, # of connection points: 2
#     Edge 124, Type (0, 1), BuildingBlock: TEMPAE_clean_linker_10, # of connection points: 2
#     Edge 125, Type (0, 1), BuildingBlock: TEMPAE_clean_linker_10, # of connection points: 2
#     Edge 126, Type (0, 1), BuildingBlock: TEMPAE_clean_linker_10, # of connection points: 2
#     Edge 127, Type (0, 1), BuildingBlock: TEMPAE_clean_linker_10, # of connection points: 2
#     Edge 128, Type (0, 1), BuildingBlock: TEMPAE_clean_linker_10, # of connection points: 2
#     Edge 129, Type (0, 1), BuildingBlock: TEMPAE_clean_linker_10, # of connection points: 2
#     Edge 130, Type (0, 1), BuildingBlock: TEMPAE_clean_linker_10, # of connection points: 2
#     Edge 131, Type (0, 1), BuildingBlock: TEMPAE_clean_linker_10, # of connection points: 2
#     Edge 132, Type (0, 1), BuildingBlock: TEMPAE_clean_linker_10, # of connection points: 2
#     Edge 133, Type (0, 1), BuildingBlock: TEMPAE_clean_linker_10, # of connection points: 2
#     Edge 134, Type (0, 1), BuildingBlock: TEMPAE_clean_linker_10, # of connection points: 2
#     Edge 135, Type (0, 1), BuildingBlock: TEMPAE_clean_linker_10, # of connection points: 2
# Relax obj value: 0.100
# Max RMSD: 0.211
# Mean RMSD: 0.152
data_MOF--net-gar--node1-AZAVOO_clean_sbu_0--node2-KUMBUR_clean_sbu_1--edge1-TEMPAE_clean_linker_10
_symmetry_space_group_name_H-M    P1
_symmetry_Int_Tables_number       1
_symmetry_cell_setting            triclinic
loop_
_symmetry_equiv_pos_as_xyz
'x, y, z'
_cell_length_a     61.713408
_cell_length_b     59.612681
_cell_length_c     56.718584
_cell_angle_alpha  98.721109
_cell_angle_beta   95.882063
_cell_angle_gamma 102.45182
loop_
_atom_site_label
_atom_site_type_symbol
_atom_site_fract_x
_atom_site_fract_y
_atom_site_fract_z
_atom_type_partial_charge
Mg0 Mg 0.041 0.30358 0.33998 0.0
O1 O 0.04508 0.33762 0.36943 0.0
O2 O 0.01375 0.33156 0.38663 0.0
Mg3 Mg 0.98992 0.29591 0.37221 0.0
C4 C 0.03255 0.34452 0.38441 0.0
C5 C 0.08819 0.30148 0.31634 0.0
O6 O 0.07335 0.28591 0.3004 0.0
O7 O 0.04792 0.28041 0.36923 0.0
O8 O 0.01539 0.2762 0.38411 0.0
O9 O 0.01576 0.31706 0.31322 0.0
O10 O 1.00446 0.2959 0.33905 0.0
C11 C 0.03442 0.27132 0.38292 0.0
C12 C 0.99905 0.30658 0.32249 0.0
O13 O 0.08083 0.31241 0.33409 0.0
Mg14 Mg 0.01805 0.75295 0.70804 0.0
O15 O 0.02203 0.72455 0.67634 0.0
O16 O 0.98851 0.715 0.65365 0.0
Mg17 Mg 0.96448 0.73795 0.66593 0.0
C18 C 0.00828 0.71194 0.65829 0.0
C19 C 0.06992 0.75509 0.73407 0.0
O20 O 0.05857 0.74083 0.7464 0.0
O21 O 0.01935 0.78134 0.6832 0.0
O22 O 0.98758 0.77068 0.65729 0.0
O23 O 0.99796 0.77167 0.73517 0.0
O24 O 0.98119 0.74645 0.70368 0.0
C25 C 0.00665 0.7846 0.66526 0.0
C26 C 0.97912 0.76044 0.72241 0.0
O27 O 0.05875 0.76348 0.71854 0.0
Mg28 Mg 0.54044 0.80514 0.83998 0.0
O29 O 0.54579 0.84025 0.8688 0.0
O30 O 0.51709 0.83448 0.8902 0.0
Mg31 Mg 0.49106 0.80054 0.87548 0.0
C32 C 0.53536 0.847 0.8861 0.0
C33 C 0.58726 0.79926 0.81607 0.0
O34 O 0.57211 0.7832 0.80096 0.0
O35 O 0.54713 0.78251 0.86967 0.0
O36 O 0.51531 0.77926 0.88591 0.0
O37 O 0.51399 0.816 0.81192 0.0
O38 O 0.504 0.79915 0.84106 0.0
C39 C 0.53395 0.77379 0.88381 0.0
C40 C 0.49773 0.80735 0.82284 0.0
O41 O 0.58022 0.81165 0.83307 0.0
Mg42 Mg 0.51963 0.25617 0.2097 0.0
O43 O 0.52313 0.22644 0.17876 0.0
O44 O 0.48954 0.21726 0.15627 0.0
Mg45 Mg 0.4654 0.24027 0.16853 0.0
C46 C 0.50919 0.21383 0.16082 0.0
C47 C 0.5723 0.2598 0.23566 0.0
O48 O 0.56134 0.24627 0.24891 0.0
O49 O 0.5206 0.28313 0.18343 0.0
O50 O 0.48777 0.27321 0.15932 0.0
O51 O 0.49961 0.27688 0.23554 0.0
O52 O 0.48251 0.24945 0.20608 0.0
C53 C 0.50724 0.28669 0.16627 0.0
C54 C 0.48063 0.26486 0.22367 0.0
O55 O 0.5607 0.26717 0.21955 0.0
Mg56 Mg 0.06937 0.80807 0.1214 0.0
O57 O 0.06473 0.7709 0.0962 0.0
O58 O 0.03055 0.76309 0.07544 0.0
Mg59 Mg 0.0126 0.79298 0.08658 0.0
C60 C 0.04877 0.75697 0.08108 0.0
C61 C 0.11096 0.79429 0.14668 0.0
O62 O 0.09328 0.77827 0.14867 0.0
O63 O 0.07155 0.83517 0.09283 0.0
O64 O 0.03527 0.82622 0.07772 0.0
O65 O 0.05283 0.79023 0.15003 0.0
O66 O 0.03373 0.80197 0.12184 0.0
C67 C 0.05478 0.83989 0.08041 0.0
C68 C 0.03365 0.79214 0.14041 0.0
O69 O 0.10793 0.80986 0.13415 0.0
Mg70 Mg 0.50053 0.76302 0.43118 0.0
O71 O 0.50566 0.79941 0.45743 0.0
O72 O 0.47548 0.79543 0.47615 0.0
Mg73 Mg 0.45311 0.75746 0.4633 0.0
C74 C 0.49365 0.80816 0.47181 0.0
C75 C 0.53832 0.76876 0.4007 0.0
O76 O 0.51969 0.75962 0.38577 0.0
O77 O 0.50887 0.73941 0.45934 0.0
O78 O 0.4765 0.73261 0.47403 0.0
O79 O 0.48217 0.77763 0.40318 0.0
O80 O 0.46439 0.75695 0.42723 0.0
C81 C 0.49559 0.72789 0.47164 0.0
C82 C 0.46334 0.76881 0.41001 0.0
O83 O 0.53707 0.7726 0.42319 0.0
Mg84 Mg 0.56631 0.30403 0.62138 0.0
O85 O 0.56209 0.26739 0.59563 0.0
O86 O 0.52856 0.25984 0.57362 0.0
Mg87 Mg 0.5106 0.28989 0.58477 0.0
C88 C 0.54664 0.25367 0.57979 0.0
C89 C 0.6088 0.30065 0.65539 0.0
O90 O 0.592 0.29738 0.66792 0.0
O91 O 0.56987 0.33145 0.59324 0.0
O92 O 0.53393 0.32313 0.57673 0.0
O93 O 0.54784 0.285 0.64846 0.0
O94 O 0.53062 0.29908 0.62077 0.0
C95 C 0.55365 0.33648 0.58022 0.0
C96 C 0.52934 0.28858 0.63883 0.0
O97 O 0.60478 0.30501 0.6341 0.0
Mg98 Mg 1.00153 0.26392 0.92748 0.0
O99 O 0.00798 0.30046 0.9541 0.0
O100 O 0.97779 0.29779 0.97273 0.0
Mg101 Mg 0.95512 0.25988 0.96107 0.0
C102 C 0.99617 0.30992 0.96819 0.0
C103 C 0.04141 0.26615 0.89818 0.0
O104 O 0.02393 0.25459 0.88249 0.0
O105 O 0.00863 0.23871 0.9544 0.0
O106 O 0.97776 0.23432 0.97206 0.0
O107 O 0.98319 0.2798 0.90066 0.0
O108 O 0.96555 0.25849 0.92439 0.0
C109 C 0.99611 0.22851 0.96825 0.0
C110 C 0.96445 0.27102 0.90778 0.0
O111 O 0.03832 0.27277 0.91978 0.0
Mg112 Mg 0.38827 0.03773 0.30699 0.0
O113 O 0.36557 1.00181 0.30272 0.0
O114 O 0.35185 0.99751 0.33716 0.0
Mg115 Mg 0.3701 0.02981 0.3652 0.0
C116 C 0.35315 0.98994 0.31518 0.0
C117 C 0.39079 0.01638 0.25647 0.0
O118 O 0.39113 0.99946 0.26875 0.0
O119 O 0.35852 0.05307 0.30861 0.0
O120 O 0.35264 0.05437 0.3471 0.0
O121 O 0.41778 0.02427 0.31568 0.0
O122 O 0.39688 0.03632 0.34239 0.0
C123 C 0.34893 0.05968 0.32634 0.0
C124 C 0.41331 0.02701 0.33758 0.0
O125 O 0.38732 0.03543 0.26686 0.0
Mg126 Mg 0.27034 0.16936 0.50238 0.0
O127 O 0.27432 0.19381 0.53967 0.0
O128 O 0.30941 0.21537 0.546 0.0
Mg129 Mg 0.32791 0.20478 0.51433 0.0
C130 C 0.29024 0.20948 0.55288 0.0
C131 C 0.22447 0.13659 0.4938 0.0
O132 O 0.23814 0.12435 0.48515 0.0
O133 O 0.26934 0.19844 0.47954 0.0
O134 O 0.30571 0.2163 0.48529 0.0
O135 O 0.28234 0.14223 0.51999 0.0
O136 O 0.30476 0.17007 0.50659 0.0
C137 C 0.28579 0.21328 0.47446 0.0
C138 C 0.30243 0.15216 0.51704 0.0
O139 O 0.23227 0.15828 0.50195 0.0
Mg140 Mg 0.13259 0.04427 0.79197 0.0
O141 O 0.15781 0.07971 0.79757 0.0
O142 O 0.18074 0.08403 0.83177 0.0
Mg143 Mg 0.16877 0.05208 0.84946 0.0
C144 C 0.17461 0.09142 0.81277 0.0
C145 C 0.10404 0.03471 0.74144 0.0
O146 O 0.0925 0.01894 0.75208 0.0
O147 O 0.16001 0.02491 0.78257 0.0
O148 O 0.17922 0.02837 0.81917 0.0
O149 O 0.10859 0.05921 0.81374 0.0
O150 O 0.13503 0.04362 0.82875 0.0
C151 C 0.17545 0.0202 0.79657 0.0
C152 C 0.11857 0.05311 0.8321 0.0
O153 O 0.12222 0.04799 0.75291 0.0
Mg154 Mg 0.3028 0.95267 0.00739 0.0
O155 O 0.3067 0.92481 0.97701 0.0
O156 O 0.34174 0.91995 0.98297 0.0
Mg157 Mg 0.35941 0.94308 0.01865 0.0
C158 C 0.32226 0.91518 0.97074 0.0
C159 C 0.2609 0.96608 0.99533 0.0
O160 O 0.27749 0.98477 0.99936 0.0
O161 O 0.29818 0.92553 0.03188 0.0
O162 O 0.334 0.92319 0.03914 0.0
O163 O 0.31848 0.98122 0.98817 0.0
O164 O 0.33675 0.96591 0.01478 0.0
C165 C 0.3135 0.91774 0.0425 0.0
C166 C 0.33712 0.98037 0.00024 0.0
O167 O 0.26555 0.94637 0.99549 0.0
Mg168 Mg 0.3007 0.39523 0.04347 0.0
O169 O 0.29732 0.3691 0.00735 0.0
O170 O 0.32758 0.35439 0.0105 0.0
Mg171 Mg 0.35031 0.3713 0.04662 0.0
C172 C 0.30943 0.3559 0.99845 0.0
C173 C 0.26292 0.41951 0.04319 0.0
O174 O 0.28115 0.43506 0.05374 0.0
O175 O 0.29225 0.36699 0.06735 0.0
O176 O 0.32576 0.35853 0.07273 0.0
O177 O 0.31946 0.4239 0.02678 0.0
O178 O 0.33588 0.4019 0.0469 0.0
C179 C 0.30606 0.3575 0.07833 0.0
C180 C 0.33776 0.41854 0.03465 0.0
O181 O 0.26444 0.39862 0.03627 0.0
Mg182 Mg 0.7826 0.12188 0.03798 0.0
O183 O 0.78616 0.14749 0.07267 0.0
O184 O 0.82047 0.1709 0.0778 0.0
Mg185 Mg 0.84 0.15631 0.04902 0.0
C186 C 0.80104 0.16509 0.08414 0.0
C187 C 0.73467 0.09394 0.03385 0.0
O188 O 0.74586 0.0775 0.03353 0.0
O189 O 0.78271 0.15121 0.01742 0.0
O190 O 0.81891 0.16926 0.0201 0.0
O191 O 0.79252 0.09515 0.05735 0.0
O192 O 0.81592 0.12215 0.04355 0.0
C193 C 0.79826 0.16641 0.01178 0.0
C194 C 0.81286 0.10489 0.05496 0.0
O195 O 0.74528 0.11496 0.0357 0.0
Mg196 Mg 0.188 0.52914 0.24352 0.0
O197 O 0.19702 0.56939 0.25332 0.0
O198 O 0.21015 0.58129 0.29276 0.0
Mg199 Mg 0.22163 0.54988 0.30299 0.0
C200 C 0.20302 0.58524 0.2722 0.0
C201 C 0.15479 0.51884 0.20079 0.0
O202 O 0.14711 0.50461 0.21517 0.0
O203 O 0.22277 0.52824 0.2333 0.0
O204 O 0.23499 0.55109 0.26733 0.0
O205 O 0.15776 0.52841 0.26122 0.0
O206 O 0.19024 0.52781 0.28131 0.0
C207 C 0.23711 0.53405 0.25213 0.0
C208 C 0.16964 0.52915 0.2815 0.0
O209 O 0.17466 0.53124 0.20599 0.0
Mg210 Mg 0.80285 0.89346 0.54397 0.0
O211 O 0.79959 0.86751 0.50791 0.0
O212 O 0.82867 0.85099 0.51161 0.0
Mg213 Mg 0.85158 0.86817 0.54769 0.0
C214 C 0.81103 0.85344 0.49932 0.0
C215 C 0.76682 0.91904 0.54164 0.0
O216 O 0.78572 0.93389 0.55151 0.0
O217 O 0.79354 0.86551 0.56792 0.0
O218 O 0.82686 0.85683 0.57421 0.0
O219 O 0.82223 0.9221 0.52784 0.0
O220 O 0.83791 0.89921 0.54752 0.0
C221 C 0.80716 0.85634 0.57962 0.0
C222 C 0.84019 0.91612 0.53565 0.0
O223 O 0.76695 0.89758 0.53611 0.0
Mg224 Mg 0.94314 0.02271 0.26792 0.0
O225 O 0.91677 0.98764 0.26517 0.0
O226 O 0.90199 0.99015 0.29975 0.0
Mg227 Mg 0.91821 0.02509 0.3242 0.0
C228 C 0.90325 0.97914 0.27901 0.0
C229 C 0.96217 0.03194 0.22222 0.0
O230 O 0.97323 0.04898 0.23958 0.0
O231 O 0.9156 0.04261 0.26163 0.0
O232 O 0.9026 0.04393 0.29713 0.0
O233 O 0.96962 0.00805 0.28683 0.0
O234 O 0.94753 0.0272 0.30536 0.0
C235 C 0.90253 0.049 0.27604 0.0
C236 C 0.96308 0.01608 0.3067 0.0
O237 O 0.94686 0.0162 0.22752 0.0
Mg238 Mg 0.27143 0.61645 0.53607 0.0
O239 O 0.2528 0.62908 0.56781 0.0
O240 O 0.28718 0.64731 0.57006 0.0
Mg241 Mg 0.32281 0.66459 0.56804 0.0
C242 C 0.26887 0.64579 0.57861 0.0
C243 C 0.22055 0.59412 0.50413 0.0
O244 O 0.21 0.58338 0.48277 0.0
O245 O 0.27193 0.65002 0.52207 0.0
O246 O 0.30545 0.67527 0.53455 0.0
O247 O 0.28392 0.58971 0.55332 0.0
O248 O 0.30188 0.62689 0.55981 0.0
C249 C 0.28611 0.66898 0.52164 0.0
C250 C 0.30214 0.60561 0.5617 0.0
O251 O 0.24172 0.59805 0.50773 0.0
Mg252 Mg 0.44546 0.52629 0.77095 0.0
O253 O 0.42138 0.48974 0.76811 0.0
O254 O 0.40751 0.4903 0.80323 0.0
Mg255 Mg 0.42005 0.52606 0.82706 0.0
C256 C 0.40921 0.47986 0.78237 0.0
C257 C 0.46936 0.52741 0.72605 0.0
O258 O 0.48524 0.53731 0.74419 0.0
O259 O 0.4154 0.54257 0.76369 0.0
O260 O 0.40222 0.54245 0.79898 0.0
O261 O 0.47421 0.51508 0.7905 0.0
O262 O 0.44943 0.53029 0.80854 0.0
C263 C 0.40143 0.54731 0.77776 0.0
C264 C 0.46644 0.52121 0.81019 0.0
O265 O 0.4496 0.51981 0.73066 0.0
Mg266 Mg 0.67678 0.03191 0.7504 0.0
O267 O 0.6963 0.0697 0.76203 0.0
O268 O 0.71318 0.07449 0.79997 0.0
Mg269 Mg 0.70611 0.039 0.8112 0.0
C270 C 0.7083 0.08241 0.78098 0.0
C271 C 0.64955 0.02896 0.70607 0.0
O272 O 0.63843 0.01556 0.71933 0.0
O273 O 0.70832 0.02133 0.74362 0.0
O274 O 0.72489 0.02446 0.78125 0.0
O275 O 0.64774 0.04077 0.76543 0.0
O276 O 0.67457 0.02929 0.78623 0.0
C277 C 0.72443 0.0194 0.75842 0.0
C278 C 0.65671 0.03726 0.7857 0.0
O279 O 0.67018 0.03806 0.71278 0.0
Mg280 Mg 0.7693 0.67306 0.00517 0.0
O281 O 0.77239 0.69772 0.04203 0.0
O282 O 0.80634 0.72168 0.04806 0.0
Mg283 Mg 0.82526 0.71188 0.01645 0.0
C284 C 0.78743 0.71447 0.05502 0.0
C285 C 0.72517 0.6381 0.00211 0.0
O286 O 0.74002 0.62586 0.99728 0.0
O287 O 0.76644 0.70094 0.98144 0.0
O288 O 0.80199 0.7217 0.9869 0.0
O289 O 0.78329 0.64761 0.02339 0.0
O290 O 0.80413 0.67588 0.00894 0.0
C291 C 0.78182 0.71687 0.97625 0.0
C292 C 0.80292 0.65822 0.01973 0.0
O293 O 0.73144 0.66028 0.0054 0.0
Mg294 Mg 0.89244 0.53925 0.80765 0.0
O295 O 0.87187 0.50159 0.79886 0.0
O296 O 0.85606 0.49533 0.83196 0.0
Mg297 Mg 0.86495 0.52869 0.86003 0.0
C298 C 0.85976 0.48843 0.81064 0.0
C299 C 0.91771 0.54958 0.76872 0.0
O300 O 0.93017 0.56065 0.78907 0.0
O301 O 0.86135 0.55116 0.80242 0.0
O302 O 0.84482 0.54721 0.83527 0.0
O303 O 0.92091 0.52698 0.82091 0.0
O304 O 0.89599 0.53693 0.84367 0.0
C305 C 0.84554 0.55323 0.81462 0.0
C306 C 0.91291 0.52756 0.84114 0.0
O307 O 0.89761 0.53909 0.76922 0.0
Mg308 Mg 0.80554 0.45648 0.51513 0.0
O309 O 0.80551 0.43367 0.47923 0.0
O310 O 0.83792 0.42276 0.47924 0.0
Mg311 Mg 0.8585 0.43806 0.51608 0.0
C312 C 0.81851 0.42266 0.46893 0.0
C313 C 0.76107 0.46469 0.49038 0.0
O314 O 0.77505 0.47757 0.47903 0.0
O315 O 0.79846 0.42391 0.53182 0.0
O316 O 0.83172 0.41463 0.53215 0.0
O317 O 0.82322 0.48827 0.50204 0.0
O318 O 0.83986 0.46526 0.52096 0.0
C319 C 0.81147 0.41072 0.53657 0.0
C320 C 0.8414 0.48282 0.51022 0.0
O321 O 0.76865 0.45367 0.50554 0.0
Mg322 Mg 0.63073 0.5389 0.29268 0.0
O323 O 0.65524 0.57489 0.29703 0.0
O324 O 0.67691 0.58102 0.33255 0.0
Mg325 Mg 0.66508 0.55044 0.35212 0.0
C326 C 0.6714 0.58735 0.31269 0.0
C327 C 0.6015 0.53877 0.24436 0.0
O328 O 0.58706 0.53921 0.25981 0.0
O329 O 0.65949 0.52089 0.28652 0.0
O330 O 0.6769 0.5252 0.32416 0.0
O331 O 0.60448 0.55311 0.31142 0.0
O332 O 0.63205 0.54174 0.33011 0.0
C333 C 0.67422 0.5166 0.3017 0.0
C334 C 0.61451 0.54989 0.33138 0.0
O335 O 0.62157 0.53862 0.2521 0.0
Tb336 Tb 0.06195 0.05449 0.04115 0.0
C337 C 0.99403 0.96386 0.9946 0.0
N338 N 1.00493 0.9821 0.98528 0.0
C339 C 0.01226 0.95563 0.95247 0.0
C340 C 0.99272 0.94063 0.98376 0.0
C341 C 0.01327 0.97838 0.964 0.0
C342 C 1.00213 0.93666 0.9625 0.0
C343 C 0.97226 0.95021 0.02497 0.0
C344 C 0.98387 0.96865 0.01485 0.0
C345 C 0.97189 0.92702 0.01502 0.0
C346 C 0.98199 0.92224 0.99436 0.0
Tb347 Tb 1.00407 0.01829 0.00429 0.0
N348 N 0.98402 0.99128 0.02351 0.0
C349 C 0.96058 0.95557 0.04414 0.0
C350 C 0.97068 0.99624 0.04044 0.0
C351 C 0.95943 0.97865 0.05159 0.0
H352 H 0.02074 0.99296 0.95597 0.0
H353 H 0.94945 0.98285 0.06551 0.0
H354 H 0.04865 0.06272 0.09769 0.0
H355 H 0.10498 0.11733 0.99287 0.0
H356 H 0.96814 0.01362 0.04503 0.0
H357 H 0.95152 0.94192 0.05249 0.0
H358 H 0.09067 0.0779 0.00191 0.0
H359 H 0.01918 0.95272 0.9358 0.0
H360 H 0.96325 0.91263 0.0227 0.0
H361 H 0.9811 0.90426 0.98653 0.0
H362 H 0.04039 0.09448 0.12551 0.0
H363 H 1.00143 0.91907 0.95356 0.0
H364 H 0.09726 0.15187 0.01775 0.0
N365 N 0.05557 0.08295 0.07014 0.0
C366 C 0.0609 0.10509 0.06557 0.0
C367 C 0.04567 0.09763 0.10844 0.0
C368 C 0.05766 0.12419 0.08166 0.0
C369 C 0.0497 0.0794 0.09215 0.0
C370 C 0.04919 0.12006 0.10294 0.0
N371 N 0.07464 0.09006 0.03098 0.0
C372 C 0.08718 0.09288 0.01268 0.0
C373 C 0.07896 0.13163 0.04114 0.0
C374 C 0.07137 0.10886 0.04565 0.0
C375 C 0.09101 0.13463 0.02176 0.0
C376 C 0.09538 0.11518 0.00765 0.0
H377 H 0.04645 0.13423 0.11579 0.0
H378 H 0.06138 0.16172 0.08855 0.0
H379 H 0.08005 0.16822 0.05299 0.0
O380 O 0.09344 0.04937 0.03483 0.0
O381 O 0.04309 0.07135 0.01621 0.0
O382 O 1.00616 0.0559 0.01799 0.0
O383 O 0.08837 0.06451 0.07009 0.0
O384 O 0.06332 0.03565 0.00508 0.0
O385 O 0.02905 0.03347 0.9832 0.0
O386 O 0.96972 0.00774 0.99135 0.0
O387 O 0.0311 0.99912 0.01146 0.0
O388 O 0.05164 0.01821 0.04774 0.0
O389 O 0.99274 0.02599 0.97081 0.0
O390 O 1.00348 0.03769 0.04025 0.0
O391 O 0.03697 0.03615 0.06077 0.0
C392 C 0.02216 0.07343 0.01475 0.0
C393 C 0.11494 0.04115 0.06799 0.0
C394 C 0.13646 0.01124 0.06209 0.0
C395 C 0.1455 0.01764 0.08673 0.0
C396 C 0.12409 0.04707 0.09239 0.0
C397 C 0.13894 0.03501 0.10177 0.0
C398 C 0.1203 0.02249 0.05332 0.0
C399 C 0.05071 0.03505 0.98468 0.0
C400 C 0.1021 0.0562 0.05732 0.0
C401 C 0.06397 0.14686 0.07654 0.0
C402 C 0.07468 0.15059 0.05635 0.0
C403 C 0.04322 0.99869 0.03202 0.0
C404 C 0.95712 0.03408 0.96952 0.0
C405 C 0.93187 0.05724 0.98515 0.0
C406 C 0.92687 0.06193 0.96181 0.0
C407 C 0.95209 0.03914 0.94656 0.0
C408 C 0.9476 0.0438 0.98889 0.0
C409 C 0.93719 0.05324 0.94282 0.0
C410 C 0.01564 0.03613 0.06005 0.0
C411 C 0.97183 0.01818 0.97293 0.0
H412 H 0.15844 0.01014 0.09441 0.0
H413 H 0.12025 0.06144 0.10403 0.0
H414 H 0.14622 0.03989 0.12054 0.0
H415 H 0.11255 0.01747 0.03474 0.0
H416 H 0.91447 0.0717 0.9579 0.0
H417 H 0.95949 0.03198 0.9315 0.0
H418 H 0.95221 0.04052 0.00677 0.0
H419 H 0.93317 0.05693 0.925 0.0
Tb420 Tb 0.26925 0.78326 0.30787 0.0
C421 C 0.32332 0.73208 0.22966 0.0
N422 N 0.32905 0.75057 0.24826 0.0
C423 C 0.36057 0.73633 0.26288 0.0
C424 C 0.3354 0.71447 0.22758 0.0
C425 C 0.3483 0.75355 0.26389 0.0
C426 C 0.35387 0.71649 0.2449 0.0
C427 C 0.30006 0.71335 0.19167 0.0
C428 C 0.30603 0.7315 0.21186 0.0
C429 C 0.31149 0.69533 0.18995 0.0
C430 C 0.32912 0.69587 0.20788 0.0
Tb431 Tb 0.30671 0.77693 0.24801 0.0
N432 N 0.29517 0.74905 0.2143 0.0
C433 C 0.28306 0.71415 0.17367 0.0
C434 C 0.27952 0.75068 0.19623 0.0
C435 C 0.27295 0.73308 0.17583 0.0
H436 H 0.35493 0.76944 0.27675 0.0
H437 H 0.26027 0.73424 0.16169 0.0
H438 H 0.21975 0.79379 0.29461 0.0
H439 H 0.33611 0.82554 0.38133 0.0
H440 H 0.27232 0.7657 0.19741 0.0
H441 H 0.278 0.70058 0.15782 0.0
H442 H 0.31344 0.79243 0.35174 0.0
H443 H 0.37549 0.73863 0.27568 0.0
H444 H 0.3071 0.68113 0.17464 0.0
H445 H 0.33811 0.68211 0.20607 0.0
H446 H 0.2014 0.8265 0.3035 0.0
H447 H 0.3636 0.70334 0.24397 0.0
H448 H 0.32377 0.86252 0.38869 0.0
N449 N 0.2502 0.81139 0.31715 0.0
C450 C 0.26118 0.83052 0.33346 0.0
C451 C 0.21829 0.82793 0.31196 0.0
C452 C 0.2515 0.84965 0.33909 0.0
C453 C 0.22875 0.80947 0.30691 0.0
C454 C 0.22982 0.84825 0.32791 0.0
N455 N 0.29008 0.81114 0.3393 0.0
C456 C 0.30856 0.80876 0.35327 0.0
C457 C 0.29391 0.84969 0.36241 0.0
C458 C 0.28204 0.83053 0.34475 0.0
C459 C 0.3141 0.84819 0.37498 0.0
C460 C 0.32116 0.8274 0.37079 0.0
H461 H 0.22172 0.86255 0.33176 0.0
H462 H 0.25663 0.88431 0.36027 0.0
H463 H 0.29384 0.88434 0.38078 0.0
O464 O 0.26332 0.76738 0.33759 0.0
O465 O 0.27835 0.8146 0.29259 0.0
O466 O 0.30827 0.80403 0.27912 0.0
O467 O 0.23809 0.75867 0.30562 0.0
O468 O 0.30074 0.77027 0.31296 0.0
O469 O 0.32458 0.78496 0.28608 0.0
O470 O 0.30661 0.80175 0.22526 0.0
O471 O 0.28256 0.74385 0.24711 0.0
O472 O 0.28187 0.76445 0.2807 0.0
O473 O 0.33676 0.78944 0.23457 0.0
O474 O 0.27222 0.78306 0.24033 0.0
O475 O 0.24951 0.78098 0.27217 0.0
C476 C 0.29512 0.81854 0.28026 0.0
C477 C 0.22975 0.73871 0.33961 0.0
C478 C 0.22641 0.718 0.37334 0.0
C479 C 0.20447 0.70624 0.36313 0.0
C480 C 0.20773 0.72704 0.32958 0.0
C481 C 0.1951 0.71103 0.34148 0.0
C482 C 0.23889 0.73421 0.36158 0.0
C483 C 0.32093 0.77575 0.30581 0.0
C484 C 0.24372 0.75508 0.32723 0.0
C485 C 0.26365 0.86928 0.35585 0.0
C486 C 0.28485 0.86932 0.36747 0.0
C487 C 0.27384 0.74466 0.26664 0.0
C488 C 0.33948 0.81757 0.20768 0.0
C489 C 0.3392 0.83506 0.17174 0.0
C490 C 0.36266 0.84294 0.17666 0.0
C491 C 0.36289 0.82544 0.21241 0.0
C492 C 0.32768 0.82264 0.18752 0.0
C493 C 0.3744 0.83824 0.197 0.0
C494 C 0.25306 0.78303 0.2496 0.0
C495 C 0.32744 0.80259 0.22258 0.0
H496 H 0.19457 0.69362 0.37202 0.0
H497 H 0.20035 0.7302 0.3126 0.0
H498 H 0.17808 0.70212 0.33377 0.0
H499 H 0.25596 0.74297 0.36944 0.0
H500 H 0.37187 0.85291 0.1649 0.0
H501 H 0.37226 0.82158 0.2279 0.0
H502 H 0.30963 0.81619 0.1836 0.0
H503 H 0.39244 0.84437 0.20071 0.0
Tb504 Tb 0.50012 0.02783 0.54036 0.0
C505 C 0.57811 0.07237 0.48316 0.0
N506 N 0.56312 0.05134 0.47861 0.0
C507 C 0.55643 0.05436 0.43694 0.0
C508 C 0.58246 0.08557 0.46486 0.0
C509 C 0.5529 0.04181 0.4557 0.0
C510 C 0.57111 0.07644 0.44157 0.0
C511 C 0.60579 0.10168 0.51176 0.0
C512 C 0.58963 0.08034 0.5062 0.0
C513 C 0.60986 0.11522 0.49375 0.0
C514 C 0.5982 0.10719 0.47035 0.0
Tb515 Tb 0.55824 0.03305 0.51093 0.0
N516 N 0.5848 0.067 0.52323 0.0
C517 C 0.61744 0.10857 0.53519 0.0
C518 C 0.59694 0.07289 0.54564 0.0
C519 C 0.61319 0.09394 0.55212 0.0
H520 H 0.54226 0.02439 0.45177 0.0
H521 H 0.62256 0.09876 0.57006 0.0
H522 H 0.51639 0.01804 0.5946 0.0
H523 H 0.44357 0.97384 0.46334 0.0
H524 H 0.59427 0.06121 0.55836 0.0
H525 H 0.63005 0.12485 0.54023 0.0
H526 H 0.46717 0.0106 0.48677 0.0
H527 H 0.54801 0.04688 0.41886 0.0
H528 H 0.62212 0.13178 0.49766 0.0
H529 H 0.6017 0.11768 0.45656 0.0
H530 H 0.50962 0.98505 0.61669 0.0
H531 H 0.57393 0.08604 0.42697 0.0
H532 H 0.43666 0.9383 0.48169 0.0
N533 N 0.49535 0.99893 0.56266 0.0
C534 C 0.48077 0.97856 0.55172 0.0
C535 C 0.50151 0.98298 0.59839 0.0
C536 C 0.47659 0.95925 0.56355 0.0
C537 C 0.50544 1.00157 0.5858 0.0
C538 C 0.4871 0.9617 0.58719 0.0
N539 N 0.47655 0.9955 0.51674 0.0
C540 C 0.46576 0.99498 0.49436 0.0
C541 C 0.45715 0.95547 0.51557 0.0
C542 C 0.47139 0.97668 0.52789 0.0
C543 C 0.44763 0.9543 0.49181 0.0
C544 C 0.45166 0.97427 0.48132 0.0
H545 H 0.4843 0.94727 0.59692 0.0
H546 H 0.45912 0.92298 0.55999 0.0
H547 H 0.44193 0.91974 0.51813 0.0
O548 O 0.46856 0.03602 0.53456 0.0
O549 O 0.51778 0.99846 0.53646 0.0
O550 O 0.53255 0.99971 0.5012 0.0
O551 O 0.48453 0.03735 0.57028 0.0
O552 O 0.50136 0.03993 0.50588 0.0
O553 O 0.52577 0.02029 0.48975 0.0
O554 O 0.5832 0.01775 0.52552 0.0
O555 O 0.55071 0.06767 0.5233 0.0
O556 O 0.51858 0.06454 0.54265 0.0
O557 O 0.57626 0.01664 0.48727 0.0
O558 O 0.555 0.02726 0.5474 0.0
O559 O 0.53006 0.04509 0.56564 0.0
C560 C 0.52331 0.98757 0.51671 0.0
C561 C 0.46338 0.06546 0.56507 0.0
C562 C 0.43819 0.09195 0.56388 0.0
C563 C 0.45366 0.10867 0.58119 0.0
C564 C 0.4786 0.08256 0.58238 0.0
C565 C 0.47373 0.104 0.59029 0.0
C566 C 0.44321 0.07038 0.55564 0.0
C567 C 0.51106 0.03279 0.4876 0.0
C568 C 0.46812 0.04232 0.55743 0.0
C569 C 0.4625 0.93807 0.55124 0.0
C570 C 0.4528 0.93619 0.52735 0.0
C571 C 0.5362 0.07694 0.53496 0.0
C572 C 0.61303 0.01621 0.50244 0.0
C573 C 0.64733 1.00217 0.50286 0.0
C574 C 0.6576 0.0218 0.49369 0.0
C575 C 0.62362 0.03582 0.49346 0.0
C576 C 0.62506 0.99959 0.50746 0.0
C577 C 0.64584 0.03861 0.48923 0.0
C578 C 0.55019 0.04126 0.56517 0.0
C579 C 0.58898 0.0116 0.50445 0.0
H580 H 0.45014 0.12538 0.58773 0.0
H581 H 0.4942 0.07934 0.59006 0.0
H582 H 0.4854 0.11692 0.60382 0.0
H583 H 0.43121 0.05729 0.54247 0.0
H584 H 0.6748 0.02419 0.49015 0.0
H585 H 0.6146 0.04867 0.48917 0.0
H586 H 0.61689 0.98428 0.51414 0.0
H587 H 0.65387 0.05369 0.48216 0.0
Tb588 Tb 0.31565 0.27128 0.77873 0.0
C589 C 0.24185 0.30815 0.7211 0.0
N590 N 0.2539 0.31849 0.74293 0.0
C591 C 0.25899 0.35593 0.73087 0.0
C592 C 0.23829 0.3213 0.70303 0.0
C593 C 0.26215 0.34211 0.74818 0.0
C594 C 0.24712 0.34548 0.70814 0.0
C595 C 0.22132 0.27263 0.69417 0.0
C596 C 0.23348 0.28414 0.71672 0.0
C597 C 0.21779 0.28563 0.67605 0.0
C598 C 0.22625 0.30991 0.68047 0.0
Tb599 Tb 0.25905 0.29399 0.76915 0.0
N600 N 0.23822 0.272 0.73431 0.0
C601 C 0.21328 0.24838 0.69047 0.0
C602 C 0.22943 0.24852 0.7312 0.0
C603 C 0.21712 0.23633 0.70918 0.0
H604 H 0.27076 0.35036 0.7659 0.0
H605 H 0.21052 0.21764 0.70669 0.0
H606 H 0.30197 0.21969 0.79532 0.0
H607 H 0.37209 0.3528 0.82401 0.0
H608 H 0.23165 0.23905 0.74557 0.0
H609 H 0.20388 0.23885 0.67339 0.0
H610 H 0.35013 0.32479 0.78911 0.0
H611 H 0.26564 0.37464 0.7351 0.0
H612 H 0.2086 0.27708 0.65854 0.0
H613 H 0.22344 0.3197 0.6663 0.0
H614 H 0.30696 0.20324 0.83233 0.0
H615 H 0.24477 0.35622 0.69474 0.0
H616 H 0.37639 0.34076 0.86378 0.0
N617 N 0.32066 0.2538 0.81141 0.0
C618 C 0.33357 0.26762 0.8314 0.0
C619 C 0.31441 0.22143 0.83237 0.0
C620 C 0.33694 0.25901 0.85295 0.0
C621 C 0.31139 0.23085 0.81147 0.0
C622 C 0.32712 0.2356 0.85325 0.0
N623 N 0.33868 0.29838 0.80923 0.0
C624 C 0.35021 0.31989 0.80651 0.0
C625 C 0.35609 0.30576 0.85069 0.0
C626 C 0.34273 0.29074 0.83033 0.0
C627 C 0.36602 0.32864 0.84857 0.0
C628 C 0.36346 0.33557 0.82622 0.0
H629 H 0.32933 0.22828 0.86945 0.0
H630 H 0.35256 0.26779 0.89021 0.0
H631 H 0.36959 0.30864 0.88813 0.0
O632 O 0.34498 0.27848 0.76136 0.0
O633 O 0.29744 0.27855 0.80976 0.0
O634 O 0.28199 0.30914 0.8028 0.0
O635 O 0.33326 0.24509 0.77228 0.0
O636 O 0.31597 0.30274 0.76242 0.0
O637 O 0.2903 0.32073 0.77963 0.0
O638 O 0.23058 0.28079 0.78489 0.0
O639 O 0.27493 0.28446 0.73692 0.0
O640 O 0.29329 0.25601 0.74488 0.0
O641 O 0.23765 0.31603 0.77854 0.0
O642 O 0.25776 0.26155 0.78339 0.0
O643 O 0.28476 0.24353 0.76897 0.0
C644 C 0.29041 0.29727 0.81764 0.0
C645 C 0.36704 0.24868 0.75312 0.0
C646 C 0.39789 0.24967 0.72875 0.0
C647 C 0.40058 0.22846 0.73508 0.0
C648 C 0.37042 0.22752 0.7591 0.0
C649 C 0.38706 0.21759 0.7502 0.0
C650 C 0.38115 0.26001 0.73806 0.0
C651 C 0.30832 0.32148 0.76888 0.0
C652 C 0.34819 0.25773 0.7622 0.0
C653 C 0.34983 0.27403 0.87343 0.0
C654 C 0.35943 0.29734 0.87228 0.0
C655 C 0.28393 0.26692 0.7297 0.0
C656 C 0.21985 0.30868 0.81256 0.0
C657 C 0.19333 0.30886 0.84182 0.0
C658 C 0.21026 0.3242 0.85878 0.0
C659 C 0.23655 0.32394 0.82987 0.0
C660 C 0.1982 0.30106 0.81866 0.0
C661 C 0.23173 0.33165 0.8528 0.0
C662 C 0.26575 0.24291 0.77794 0.0
C663 C 0.22484 0.30067 0.78819 0.0
H664 H 0.41335 0.2203 0.72833 0.0
H665 H 0.36006 0.21845 0.77064 0.0
H666 H 0.3894 0.20128 0.75495 0.0
H667 H 0.37881 0.27628 0.73315 0.0
H668 H 0.20683 0.33044 0.87665 0.0
H669 H 0.25329 0.33004 0.82564 0.0
H670 H 0.18519 0.28926 0.80545 0.0
H671 H 0.24467 0.34357 0.86591 0.0
Tb672 Tb 0.0421 0.9984 0.5208 0.0
C673 C 0.01555 0.08405 0.57835 0.0
N674 N 1.00401 0.06887 0.55844 0.0
C675 C 0.96998 0.06619 0.57598 0.0
C676 C 1.00475 0.09061 0.59811 0.0
C677 C 0.98143 0.06012 0.55685 0.0
C678 C 0.98168 0.08144 0.59673 0.0
C679 C 0.05117 0.10768 0.59976 0.0
C680 C 0.0385 0.09239 0.57919 0.0
C681 C 0.04047 0.11433 0.61948 0.0
C682 C 0.01732 0.10583 0.61865 0.0
Tb683 Tb 0.02466 0.06069 0.52851 0.0
N684 N 0.04845 0.08495 0.56009 0.0
C685 C 0.07421 0.11581 0.59987 0.0
C686 C 0.07065 0.09387 0.55959 0.0
C687 C 0.08393 0.10908 0.57958 0.0
H688 H 0.97205 0.04887 0.54066 0.0
H689 H 0.10161 0.11586 0.57918 0.0
H690 H 0.09568 0.00782 0.51228 0.0
H691 H 0.96639 0.9445 0.46656 0.0
H692 H 0.07814 0.08994 0.54369 0.0
H693 H 0.08455 0.1276 0.61532 0.0
H694 H 0.98935 0.96822 0.5037 0.0
H695 H 0.9521 0.05919 0.57465 0.0
H696 H 0.04994 0.12601 0.63547 0.0
H697 H 0.00933 0.11104 0.63404 0.0
H698 H 0.11696 0.99868 0.47902 0.0
H699 H 0.97276 0.08606 0.61153 0.0
H700 H 0.98443 0.93494 0.43049 0.0
N701 N 0.06404 0.9895 0.49237 0.0
C702 C 0.05299 0.97559 0.47147 0.0
C703 C 0.09895 0.99216 0.47663 0.0
C704 C 0.06448 0.96983 0.45205 0.0
C705 C 0.0868 0.99752 0.49537 0.0
C706 C 0.08774 0.97838 0.45483 0.0
N707 N 0.01935 0.9746 0.48815 0.0
C708 C 0.99709 0.96541 0.48779 0.0
C709 C 0.01768 0.95365 0.44786 0.0
C710 C 0.02989 0.96772 0.46934 0.0
C711 C 0.99446 0.94578 0.44668 0.0
C712 C 0.98418 0.95132 0.46691 0.0
H713 H 0.0972 0.97439 0.44032 0.0
H714 H 0.06087 0.95156 0.41527 0.0
H715 H 0.01992 0.93735 0.41163 0.0
O716 O 0.0293 0.97202 0.54032 0.0
O717 O 0.0347 0.01292 0.48811 0.0
O718 O 0.00944 0.03579 0.49551 0.0
O719 O 0.06132 0.97447 0.52814 0.0
O720 O 0.01152 1.0021 0.53659 0.0
O721 O 0.99732 0.02952 0.519 0.0
O722 O 0.03601 0.08987 0.51121 0.0
O723 O 0.03212 0.04558 0.56106 0.0
O724 O 0.05839 0.02439 0.55242 0.0
O725 O 1.0022 0.08094 0.52027 0.0
O726 O 0.05449 0.05716 0.51151 0.0
O727 O 0.06961 0.02994 0.5287 0.0
C728 C 0.01898 0.02307 0.48071 0.0
C729 C 0.05607 0.95704 0.56284 0.0
C730 C 0.05551 0.92891 0.59048 0.0
C731 C 0.07566 0.94297 0.60346 0.0
C732 C 0.07625 0.97066 0.57625 0.0
C733 C 0.08588 0.96368 0.59642 0.0
C734 C 0.04561 0.93611 0.57017 0.0
C735 C 0.99476 0.01096 0.52927 0.0
C736 C 0.04696 0.96341 0.54014 0.0
C737 C 0.05236 0.95604 0.43046 0.0
C738 C 0.02903 0.94797 0.42837 0.0
C739 C 0.04856 0.03601 0.56792 0.0
C740 C 0.01023 0.11489 0.50102 0.0
C741 C 0.0181 0.14936 0.48154 0.0
C742 C 0.99635 0.15216 0.48392 0.0
C743 C 0.98859 0.11837 0.503 0.0
C744 C 0.02503 0.13044 0.48994 0.0
C745 C 0.98175 0.13677 0.49447 0.0
C746 C 0.07146 0.04802 0.51748 0.0
C747 C 0.01653 0.09505 0.5109 0.0
H748 H 0.08363 0.93776 0.619 0.0
H749 H 0.0849 0.98642 0.57075 0.0
H750 H 0.10161 0.97411 0.60639 0.0
H751 H 0.03025 0.92517 0.55976 0.0
H752 H 0.99055 0.16631 0.47738 0.0
H753 H 0.97679 0.10684 0.51126 0.0
H754 H 0.04174 0.12807 0.48816 0.0
H755 H 0.96503 0.13915 0.4961 0.0
Tb756 Tb 0.28838 0.81231 0.75954 0.0
C757 C 0.23467 0.73608 0.80298 0.0
N758 N 0.2547 0.75171 0.81087 0.0
C759 C 0.24232 0.76159 0.84914 0.0
C760 C 0.21718 0.7339 0.8173 0.0
C761 C 0.25917 0.76296 0.83436 0.0
C762 C 0.22106 0.74741 0.84039 0.0
C763 C 0.21157 0.70494 0.77209 0.0
C764 C 0.23194 0.72146 0.78082 0.0
C765 C 0.19386 0.70339 0.7859 0.0
C766 C 0.19667 0.71781 0.80846 0.0
Tb767 Tb 0.2806 0.752 0.78437 0.0
N768 N 0.24913 0.72403 0.76746 0.0
C769 C 0.20957 0.69062 0.74961 0.0
C770 C 0.24751 0.70966 0.74588 0.0
C771 C 0.22769 0.69289 0.73654 0.0
H772 H 0.27585 0.7723 0.84232 0.0
H773 H 0.22642 0.68168 0.7193 0.0
H774 H 0.29815 0.78974 0.70407 0.0
H775 H 0.33785 0.88395 0.82655 0.0
H776 H 0.26161 0.71094 0.73608 0.0
H777 H 0.19418 0.67772 0.74226 0.0
H778 H 0.30373 0.85399 0.80765 0.0
H779 H 0.24593 0.77102 0.86751 0.0
H780 H 0.178 0.69095 0.7794 0.0
H781 H 0.183 0.7161 0.81912 0.0
H782 H 0.33034 0.79117 0.68219 0.0
H783 H 0.20811 0.74619 0.85199 0.0
H784 H 0.37194 0.88857 0.80651 0.0
N785 N 0.31657 0.81261 0.73584 0.0
C786 C 0.33592 0.82911 0.74461 0.0
C787 C 0.33233 0.80151 0.70003 0.0
C788 C 0.35472 0.83118 0.73218 0.0
C789 C 0.31415 0.80014 0.71302 0.0
C790 C 0.35285 0.81672 0.70987 0.0
N791 N 0.31857 0.84133 0.77785 0.0
C792 C 0.31861 0.85564 0.79906 0.0
C793 C 0.35667 0.86107 0.77611 0.0
C794 C 0.33684 0.8442 0.76608 0.0
C795 C 0.357 0.87543 0.79817 0.0
C796 C 0.33783 0.87278 0.80962 0.0
H797 H 0.36687 0.81782 0.69971 0.0
H798 H 0.38927 0.84949 0.73298 0.0
H799 H 0.39106 0.87544 0.77161 0.0
O800 O 0.27994 0.84524 0.76296 0.0
O801 O 0.318 0.80599 0.78128 0.0
O802 O 0.3143 0.76619 0.77468 0.0
O803 O 0.27546 0.8225 0.7281 0.0
O804 O 0.27643 0.81136 0.79435 0.0
O805 O 0.2934 0.78486 0.80991 0.0
O806 O 0.2885 0.71882 0.77882 0.0
O807 O 0.25052 0.75872 0.76345 0.0
O808 O 0.25511 0.7987 0.76999 0.0
O809 O 0.29472 0.74065 0.81445 0.0
O810 O 0.2929 0.75404 0.75015 0.0
O811 O 0.27531 0.77936 0.73364 0.0
C812 C 0.32697 0.78772 0.77976 0.0
C813 C 0.26515 0.85965 0.728 0.0
C814 C 0.24979 0.89427 0.7295 0.0
C815 C 0.25043 0.89307 0.70467 0.0
C816 C 0.26536 0.85865 0.70313 0.0
C817 C 0.25805 0.87529 0.69159 0.0
C818 C 0.25712 0.87744 0.74115 0.0
C819 C 0.2861 0.80416 0.81256 0.0
C820 C 0.27366 0.84231 0.73996 0.0
C821 C 0.3746 0.84785 0.74217 0.0
C822 C 0.37559 0.86272 0.7641 0.0
C823 C 0.24206 0.77741 0.76468 0.0
C824 C 0.30482 0.70325 0.81205 0.0
C825 C 0.32435 0.67161 0.80892 0.0
C826 C 0.32391 0.67147 0.83365 0.0
C827 C 0.3047 0.70282 0.83671 0.0
C828 C 0.31438 0.68733 0.79805 0.0
C829 C 0.31406 0.68689 0.84737 0.0
C830 C 0.28217 0.75977 0.73175 0.0
C831 C 0.29595 0.72113 0.80151 0.0
H832 H 0.24474 0.90577 0.69533 0.0
H833 H 0.27142 0.84515 0.69261 0.0
H834 H 0.25835 0.87443 0.67243 0.0
H835 H 0.25676 0.87835 0.76034 0.0
H836 H 0.33119 0.65933 0.84239 0.0
H837 H 0.29741 0.71487 0.8478 0.0
H838 H 0.31484 0.68776 0.77906 0.0
H839 H 0.31386 0.68663 0.86639 0.0
Tb840 Tb 0.54448 0.05621 0.99564 0.0
C841 C 0.56347 0.98522 0.07144 0.0
N842 N 0.54938 0.98335 0.05074 0.0
C843 C 0.55652 0.94598 0.03619 0.0
C844 C 0.57516 0.96786 0.07497 0.0
C845 C 0.54506 0.96352 0.03367 0.0
C846 C 0.57182 0.94826 0.05681 0.0
C847 C 0.57998 0.00705 0.11125 0.0
C848 C 0.56577 1.00444 0.08944 0.0
C849 C 0.59188 0.98995 0.11473 0.0
C850 C 0.58949 0.9704 0.09662 0.0
Tb851 Tb 0.5313 0.0131 0.04932 0.0
N852 N 0.55448 0.02097 0.08514 0.0
C853 C 0.58179 0.02678 0.12887 0.0
C854 C 0.55566 0.03989 0.10254 0.0
C855 C 0.56947 0.0432 0.12454 0.0
H856 H 0.53221 0.96054 0.01845 0.0
H857 H 0.57052 0.05836 0.13818 0.0
H858 H 0.53263 0.10684 0.01153 0.0
H859 H 0.5175 0.9925 0.91253 0.0
H860 H 0.54595 0.05246 0.09963 0.0
H861 H 0.5925 0.02943 0.14592 0.0
H862 H 0.5437 0.01328 0.94833 0.0
H863 H 0.55318 0.93048 0.02244 0.0
H864 H 0.60292 0.99163 0.13136 0.0
H865 H 0.59865 0.95726 0.09962 0.0
H866 H 0.50403 0.12769 0.99906 0.0
H867 H 0.58049 0.93453 0.05881 0.0
H868 H 0.48414 0.00689 0.90006 0.0
N869 N 0.52027 0.07755 0.98344 0.0
C870 C 0.50527 0.06788 0.96344 0.0
C871 C 0.50413 0.11081 0.98891 0.0
C872 C 0.48845 0.07886 0.95576 0.0
C873 C 0.52031 0.09901 0.99594 0.0
C874 C 0.48795 0.10058 0.96887 0.0
N875 N 0.52395 0.03753 0.95884 0.0
C876 C 0.52859 0.01907 0.94439 0.0
C877 C 0.49191 0.03609 0.92978 0.0
C878 C 0.5069 0.04682 0.95092 0.0
C879 C 0.49529 0.01574 0.91639 0.0
C880 C 0.51403 0.00752 0.92344 0.0
H881 H 0.4753 0.10964 0.96359 0.0
H882 H 0.45954 0.07577 0.92927 0.0
H883 H 0.46265 0.03827 0.90635 0.0
O884 O 0.57021 0.06091 0.97446 0.0
O885 O 0.51112 0.05165 0.00552 0.0
O886 O 0.51163 0.01689 0.01624 0.0
O887 O 0.5682 0.0886 0.00247 0.0
O888 O 0.55197 0.02074 0.98998 0.0
O889 O 0.52755 0.99721 0.01026 0.0
O890 O 0.50636 0.01622 0.07144 0.0
O891 O 0.56732 0.0293 0.05432 0.0
O892 O 0.55324 0.03973 0.02365 0.0
O893 O 0.5094 0.98255 0.05411 0.0
O894 O 0.52907 0.05049 0.05843 0.0
O895 O 0.5461 0.07542 0.03287 0.0
C896 C 0.50118 0.0336 0.01413 0.0
C897 C 0.58179 0.09878 0.96681 0.0
C898 C 0.59529 0.10577 0.92906 0.0
C899 C 0.58973 0.12759 0.93229 0.0
C900 C 0.57641 0.12066 0.96999 0.0
C901 C 0.58034 0.13494 0.95269 0.0
C902 C 0.59108 0.09155 0.94637 0.0
C903 C 0.54173 0.99989 0.99412 0.0
C904 C 0.57796 0.08276 0.98407 0.0
C905 C 0.4728 0.0678 0.93535 0.0
C906 C 0.47452 0.04641 0.92237 0.0
C907 C 0.57144 0.04103 0.03762 0.0
C908 C 0.50094 0.9857 0.09377 0.0
C909 C 0.48869 0.98767 0.13328 0.0
C910 C 0.50039 0.97072 0.13824 0.0
C911 C 0.51255 0.96874 0.09895 0.0
C912 C 0.48951 0.99536 0.11114 0.0
C913 C 0.5124 0.96149 0.1212 0.0
C914 C 0.53691 0.07152 0.05273 0.0
C915 C 0.50057 0.99373 0.07052 0.0
H916 H 0.59288 0.13904 0.91929 0.0
H917 H 0.56914 0.12666 0.98565 0.0
H918 H 0.57616 0.15179 0.95514 0.0
H919 H 0.59472 0.07441 0.94378 0.0
H920 H 0.49982 0.96411 0.15498 0.0
H921 H 0.52165 0.961 0.08588 0.0
H922 H 0.48111 0.00885 0.10722 0.0
H923 H 0.52128 0.94838 0.12507 0.0
Tb924 Tb 0.2712 0.25624 0.25888 0.0
C925 C 0.3543 0.3296 0.30301 0.0
N926 N 0.33654 0.31954 0.31317 0.0
C927 C 0.36147 0.31248 0.34505 0.0
C928 C 0.37641 0.33031 0.31273 0.0
C929 C 0.33979 0.31197 0.33455 0.0
C930 C 0.37984 0.32137 0.3339 0.0
C931 C 0.36793 0.34958 0.27146 0.0
C932 C 0.35003 0.33899 0.28266 0.0
C933 C 0.39002 0.34965 0.28051 0.0
C934 C 0.39426 0.34012 0.30118 0.0
Tb935 Tb 0.30181 0.31889 0.29434 0.0
N936 N 0.32842 0.3387 0.2746 0.0
C937 C 0.36311 0.36038 0.25197 0.0
C938 C 0.32398 0.35127 0.2572 0.0
C939 C 0.34107 0.36164 0.24513 0.0
H940 H 0.32565 0.30518 0.34326 0.0
H941 H 0.33729 0.37096 0.23086 0.0
H942 H 0.2601 0.26677 0.20272 0.0
H943 H 0.2161 0.21134 0.31331 0.0
H944 H 0.30736 0.35379 0.25283 0.0
H945 H 0.37635 0.36863 0.24277 0.0
H946 H 0.25262 0.22816 0.3012 0.0
H947 H 0.36398 0.306 0.3617 0.0
H948 H 0.40398 0.35752 0.27202 0.0
H949 H 0.4114 0.34074 0.30828 0.0
H950 H 0.2275 0.27059 0.17643 0.0
H951 H 0.3966 0.32164 0.34201 0.0
H952 H 0.1809 0.2137 0.28964 0.0
N953 N 0.24188 0.25848 0.23143 0.0
C954 C 0.22102 0.25081 0.23721 0.0
C955 C 0.22545 0.26554 0.19377 0.0
C956 C 0.20161 0.25145 0.22211 0.0
C957 C 0.24413 0.26416 0.20919 0.0
C958 C 0.20411 0.25964 0.20049 0.0
N959 N 0.23822 0.24051 0.27149 0.0
C960 C 0.23737 0.22944 0.29089 0.0
C961 C 0.1979 0.23167 0.26385 0.0
C962 C 0.2191 0.24094 0.25763 0.0
C963 C 0.19688 0.22107 0.28425 0.0
C964 C 0.21671 0.21976 0.2977 0.0
H965 H 0.18964 0.2604 0.18835 0.0
H966 H 0.16528 0.24365 0.21741 0.0
H967 H 0.16205 0.22635 0.25404 0.0
O968 O 0.27751 0.22436 0.26453 0.0
O969 O 0.2525 0.27563 0.28287 0.0
O970 O 0.26561 0.31404 0.28074 0.0
O971 O 0.26518 0.22876 0.22906 0.0
O972 O 0.28857 0.25783 0.29545 0.0
O973 O 0.28677 0.29381 0.31584 0.0
O974 O 0.30824 0.35522 0.30574 0.0
O975 O 0.32117 0.29134 0.28824 0.0
O976 O 0.30605 0.26938 0.25156 0.0
O977 O 0.2951 0.33168 0.32868 0.0
O978 O 0.28442 0.31742 0.25784 0.0
O979 O 0.28697 0.2817 0.23804 0.0
C980 C 0.24932 0.2969 0.28413 0.0
C981 C 0.29211 0.20623 0.23311 0.0
C982 C 0.31825 0.18306 0.24323 0.0
C983 C 0.33335 0.19439 0.22947 0.0
C984 C 0.3073 0.21795 0.21965 0.0
C985 C 0.32765 0.21156 0.21735 0.0
C986 C 0.29718 0.18803 0.24353 0.0
C987 C 0.2873 0.27183 0.31545 0.0
C988 C 0.27372 0.21555 0.24169 0.0
C989 C 0.18038 0.24308 0.22864 0.0
C990 C 0.17852 0.23314 0.24944 0.0
C991 C 0.32386 0.28009 0.26732 0.0
C992 C 0.28072 0.36516 0.32887 0.0
C993 C 0.26079 0.39454 0.31932 0.0
C994 C 0.24546 0.38742 0.33501 0.0
C995 C 0.26534 0.35842 0.34461 0.0
C996 C 0.2782 0.38309 0.31621 0.0
C997 C 0.24772 0.3694 0.34747 0.0
C998 C 0.28576 0.30341 0.23798 0.0
C999 C 0.29895 0.3531 0.32511 0.0
H1000 H 0.34975 0.1907 0.22892 0.0
H1001 H 0.3039 0.23253 0.21181 0.0
H1002 H 0.33949 0.22076 0.20724 0.0
H1003 H 0.28539 0.1792 0.25404 0.0
H1004 H 0.23199 0.39604 0.33807 0.0
H1005 H 0.26682 0.34458 0.3546 0.0
H1006 H 0.28972 0.388 0.30367 0.0
H1007 H 0.23588 0.36406 0.35954 0.0
Tb1008 Tb 0.54074 0.50134 0.02733 0.0
C1009 C 0.51355 0.58594 0.08147 0.0
N1010 N 0.50307 0.57148 0.06059 0.0
C1011 C 0.46773 0.56841 0.07568 0.0
C1012 C 0.50161 0.5914 0.10062 0.0
C1013 C 0.48021 0.56388 0.05701 0.0
C1014 C 0.47852 0.58189 0.09772 0.0
C1015 C 0.54737 0.6127 0.10373 0.0
C1016 C 0.53613 0.5965 0.08311 0.0
C1017 C 0.53574 0.61749 0.12319 0.0
C1018 C 0.51293 0.60681 0.12167 0.0
Tb1019 Tb 0.52589 0.56574 0.03182 0.0
N1020 N 0.54706 0.59097 0.06424 0.0
C1021 C 0.56987 0.6238 0.10397 0.0
C1022 C 0.56858 0.60269 0.06374 0.0
C1023 C 0.58044 0.61896 0.08377 0.0
H1024 H 0.47125 0.55479 0.03969 0.0
H1025 H 0.59766 0.62785 0.08355 0.0
H1026 H 0.59362 0.51412 0.01582 0.0
H1027 H 0.46885 0.43311 0.98359 0.0
H1028 H 0.57654 0.59935 0.04791 0.0
H1029 H 0.5791 0.6364 0.11947 0.0
H1030 H 0.49053 0.46374 0.01674 0.0
H1031 H 0.44971 0.56186 0.07286 0.0
H1032 H 0.54412 0.62971 0.13933 0.0
H1033 H 0.50405 0.61107 0.13663 0.0
H1034 H 0.61423 0.50382 0.98262 0.0
H1035 H 0.46874 0.58564 0.11201 0.0
H1036 H 0.48617 0.42169 0.94756 0.0
N1037 N 0.56217 0.49244 0.99836 0.0
C1038 C 0.55168 0.47515 0.97968 0.0
C1039 C 0.59655 0.49584 0.98139 0.0
C1040 C 0.56302 0.46824 0.9605 0.0
C1041 C 0.58461 0.50202 3e-05 0.0
C1042 C 0.58565 0.47909 0.96137 0.0
N1043 N 0.51917 0.47148 0.99879 0.0
C1044 C 0.49798 0.45983 0.00071 0.0
C1045 C 0.51786 0.44649 0.96071 0.0
C1046 C 0.5294 0.46445 0.97981 0.0
C1047 C 0.49564 0.43555 0.96188 0.0
C1048 C 0.48578 0.44202 0.98213 0.0
H1049 H 0.59496 0.4743 0.94698 0.0
H1050 H 0.55985 0.44523 0.92622 0.0
H1051 H 0.5203 0.42621 0.92638 0.0
O1052 O 0.53671 0.46851 0.03889 0.0
O1053 O 0.53561 0.51486 0.9932 0.0
O1054 O 0.51149 0.53974 0.99927 0.0
O1055 O 0.56711 0.496 0.05089 0.0
O1056 O 0.50718 0.50327 0.03635 0.0
O1057 O 0.49669 0.53535 0.02284 0.0
O1058 O 0.53921 0.59074 0.01114 0.0
O1059 O 0.54622 0.55727 0.06206 0.0
O1060 O 0.52921 0.51924 0.0581 0.0
O1061 O 0.50886 0.59181 0.026 0.0
O1062 O 0.5548 0.55933 0.01519 0.0
O1063 O 0.56829 0.53311 0.03545 0.0
C1064 C 0.52105 0.52631 0.98503 0.0
C1065 C 0.56596 0.45973 0.0665 0.0
C1066 C 0.56248 0.42665 0.08815 0.0
C1067 C 0.58581 0.43248 0.09461 0.0
C1068 C 0.58926 0.46511 0.07346 0.0
C1069 C 0.59906 0.45154 0.08731 0.0
C1070 C 0.55248 0.44029 0.07392 0.0
C1071 C 0.49206 0.51438 0.02895 0.0
C1072 C 0.55628 0.47493 0.05199 0.0
C1073 C 0.55147 0.45066 0.94122 0.0
C1074 C 0.52894 0.43985 0.9413 0.0
C1075 C 0.54183 0.53823 0.07131 0.0
C1076 C 0.51401 0.60917 0.99134 0.0
C1077 C 0.518 0.63672 0.96327 0.0
C1078 C 0.49623 0.6258 0.9517 0.0
C1079 C 0.4922 0.59869 0.97961 0.0
C1080 C 0.52679 0.62842 0.98326 0.0
C1081 C 0.48338 0.60711 0.96 0.0
C1082 C 0.57129 0.55113 0.02419 0.0
C1083 C 0.5231 0.60146 0.01304 0.0
H1084 H 0.59381 0.42226 0.10547 0.0
H1085 H 0.60001 0.47983 0.06809 0.0
H1086 H 0.61705 0.45586 0.09247 0.0
H1087 H 0.53446 0.43598 0.06894 0.0
H1088 H 0.48898 0.63213 0.93653 0.0
H1089 H 0.48189 0.58417 0.98573 0.0
H1090 H 0.54344 0.637 0.99255 0.0
H1091 H 0.46645 0.59917 0.95123 0.0
Tb1092 Tb 0.79324 0.31674 0.25673 0.0
C1093 C 0.74953 0.23973 0.32155 0.0
N1094 N 0.76993 0.2548 0.32511 0.0
C1095 C 0.77041 0.25861 0.36792 0.0
C1096 C 0.7384 0.23393 0.34107 0.0
C1097 C 0.78084 0.26361 0.34793 0.0
C1098 C 0.74894 0.24398 0.36448 0.0
C1099 C 0.72073 0.21095 0.29385 0.0
C1100 C 0.74083 0.22842 0.29836 0.0
C1101 C 0.70885 0.20604 0.31302 0.0
C1102 C 0.71769 0.21751 0.33662 0.0
Tb1103 Tb 0.78557 0.26168 0.29129 0.0
N1104 N 0.75313 0.23326 0.28048 0.0
C1105 C 0.71384 0.1982 0.27045 0.0
C1106 C 0.74745 0.21958 0.25812 0.0
C1107 C 0.72751 0.20222 0.25262 0.0
H1108 H 0.79756 0.27476 0.35067 0.0
H1109 H 0.72279 0.19184 0.2347 0.0
H1110 H 0.7993 0.29136 0.20202 0.0
H1111 H 0.85273 0.3759 0.32853 0.0
H1112 H 0.75822 0.22212 0.24453 0.0
H1113 H 0.69851 0.18459 0.26621 0.0
H1114 H 0.8163 0.35064 0.31045 0.0
H1115 H 0.77898 0.26598 0.38596 0.0
H1116 H 0.69327 0.1928 0.30992 0.0
H1117 H 0.70877 0.21294 0.35136 0.0
H1118 H 0.82941 0.29244 0.17664 0.0
H1119 H 0.741 0.23995 0.37999 0.0
H1120 H 0.88423 0.38072 0.30466 0.0
N1121 N 0.8197 0.31556 0.23156 0.0
C1122 C 0.83997 0.33066 0.23969 0.0
C1123 C 0.83267 0.30308 0.19444 0.0
C1124 C 0.85767 0.33186 0.22572 0.0
C1125 C 0.8157 0.30222 0.20907 0.0
C1126 C 0.85376 0.31788 0.20283 0.0
N1127 N 0.82626 0.341 0.27643 0.0
C1128 C 0.82948 0.35254 0.29965 0.0
C1129 C 0.86476 0.35795 0.27264 0.0
C1130 C 0.84339 0.34371 0.26288 0.0
C1131 C 0.86804 0.36972 0.29647 0.0
C1132 C 0.85032 0.36698 0.31002 0.0
H1133 H 0.86692 0.31836 0.19151 0.0
H1134 H 0.89258 0.34763 0.22474 0.0
H1135 H 0.89883 0.37032 0.26583 0.0
O1136 O 0.78904 0.35123 0.25867 0.0
O1137 O 0.82071 0.299 0.26504 0.0
O1138 O 0.81612 0.29005 0.302 0.0
O1139 O 0.78385 0.32791 0.2248 0.0
O1140 O 0.78115 0.32277 0.29137 0.0
O1141 O 0.79016 0.29588 0.31446 0.0
O1142 O 0.80263 0.2376 0.27509 0.0
O1143 O 0.7528 0.26664 0.275 0.0
O1144 O 0.75785 0.30255 0.26152 0.0
O1145 O 0.80226 0.24351 0.31322 0.0
O1146 O 0.79316 0.26109 0.25455 0.0
O1147 O 0.77558 0.28369 0.2342 0.0
C1148 C 0.82945 0.29623 0.28627 0.0
C1149 C 0.76045 0.3545 0.22854 0.0
C1150 C 0.73458 0.38022 0.2344 0.0
C1151 C 0.72091 0.36747 0.21313 0.0
C1152 C 0.74632 0.34213 0.2074 0.0
C1153 C 0.72673 0.34857 0.19986 0.0
C1154 C 0.75448 0.37364 0.24197 0.0
C1155 C 0.7826 0.31463 0.31167 0.0
C1156 C 0.78171 0.34792 0.23576 0.0
C1157 C 0.87877 0.34651 0.2352 0.0
C1158 C 0.88232 0.35946 0.2586 0.0
C1159 C 0.74497 0.28349 0.26671 0.0
C1160 C 0.80301 0.20556 0.29506 0.0
C1161 C 0.81358 0.16834 0.28692 0.0
C1162 C 0.79431 0.1575 0.29571 0.0
C1163 C 0.78392 0.19443 0.30404 0.0
C1164 C 0.81795 0.19243 0.28665 0.0
C1165 C 0.77961 0.17054 0.3043 0.0
C1166 C 0.78053 0.26359 0.23559 0.0
C1167 C 0.80791 0.2309 0.29525 0.0
H1168 H 0.70584 0.37236 0.20642 0.0
H1169 H 0.75046 0.32753 0.19645 0.0
H1170 H 0.7161 0.33901 0.18348 0.0
H1171 H 0.76523 0.3833 0.25826 0.0
H1172 H 0.79086 0.139 0.2963 0.0
H1173 H 0.77249 0.20419 0.31116 0.0
H1174 H 0.83292 0.20089 0.28004 0.0
H1175 H 0.76494 0.16214 0.31139 0.0
Tb1176 Tb 0.04934 0.55438 0.49746 0.0
C1177 C 0.06666 0.48899 0.58373 0.0
N1178 N 0.05277 0.48404 0.56249 0.0
C1179 C 0.05765 0.44474 0.55642 0.0
C1180 C 0.07741 0.47229 0.59164 0.0
C1181 C 0.04738 0.46189 0.5494 0.0
C1182 C 0.07302 0.45006 0.57745 0.0
C1183 C 0.08358 0.51651 0.62032 0.0
C1184 C 0.0695 0.51063 0.59801 0.0
C1185 C 0.09487 0.50023 0.62796 0.0
C1186 C 0.09175 0.47814 0.61367 0.0
Tb1187 Tb 0.03678 0.5134 0.55273 0.0
N1188 N 0.05863 0.52607 0.58975 0.0
C1189 C 0.08584 0.53854 0.6343 0.0
C1190 C 0.06015 0.54728 0.60382 0.0
C1191 C 0.07392 0.55391 0.62608 0.0
H1192 H 0.03464 0.45718 0.5338 0.0
H1193 H 0.0753 0.57088 0.6369 0.0
H1194 H 0.05355 0.6108 0.51194 0.0
H1195 H 0.99055 0.48724 0.43137 0.0
H1196 H 0.05106 0.55933 0.598 0.0
H1197 H 0.09652 0.54376 0.65153 0.0
H1198 H 0.02015 0.50181 0.46541 0.0
H1199 H 0.05344 0.42732 0.54579 0.0
H1200 H 0.10585 0.50446 0.64499 0.0
H1201 H 0.10029 0.46561 0.61995 0.0
H1202 H 0.03525 0.64043 0.49842 0.0
H1203 H 0.08087 0.43672 0.58291 0.0
H1204 H 0.9723 0.51462 0.41287 0.0
N1205 N 0.03342 0.5828 0.48586 0.0
C1206 C 0.01715 0.5763 0.46655 0.0
C1207 C 0.02988 0.62242 0.48935 0.0
C1208 C 1.00618 0.59259 0.45811 0.0
C1209 C 0.04007 0.60553 0.49717 0.0
C1210 C 0.01279 0.61591 0.46977 0.0
N1211 N 0.02125 0.53787 0.46549 0.0
C1212 C 0.01369 0.51439 0.45707 0.0
C1213 C 0.993 0.54522 0.43675 0.0
C1214 C 0.01087 0.55303 0.4559 0.0
C1215 C 0.98601 0.52134 0.4275 0.0
C1216 C 0.9963 0.50586 0.43786 0.0
H1217 H 1.0048 0.62898 0.46384 0.0
H1218 H 0.98012 0.59727 0.43192 0.0
H1219 H 0.96844 0.55569 0.41331 0.0
O1220 O 0.07142 0.55247 0.47209 0.0
O1221 O 0.01544 0.54821 0.50528 0.0
O1222 O 0.0183 0.51459 0.5177 0.0
O1223 O 0.07739 0.58255 0.50053 0.0
O1224 O 0.05515 0.51862 0.48939 0.0
O1225 O 0.04411 0.49439 0.51801 0.0
O1226 O 0.01162 0.51675 0.57459 0.0
O1227 O 0.07243 0.53094 0.55888 0.0
O1228 O 0.05867 0.5392 0.52653 0.0
O1229 O 0.01184 0.48362 0.55386 0.0
O1230 O 0.0313 0.54984 0.5578 0.0
O1231 O 0.05123 0.57467 0.53411 0.0
C1232 C 1.00631 0.52984 0.51393 0.0
C1233 C 0.08906 0.58848 0.46262 0.0
C1234 C 0.10322 0.5922 0.42437 0.0
C1235 C 0.10352 0.61616 0.42881 0.0
C1236 C 0.08964 0.61243 0.46687 0.0
C1237 C 0.09656 0.62609 0.44983 0.0
C1238 C 0.09541 0.57852 0.44121 0.0
C1239 C 0.05183 0.49826 0.4973 0.0
C1240 C 0.08341 0.57352 0.48057 0.0
C1241 C 0.98879 0.58503 0.43864 0.0
C1242 C 0.98218 0.56138 0.428 0.0
C1243 C 0.07658 0.5421 0.54169 0.0
C1244 C 1.00102 0.48357 0.59251 0.0
C1245 C 0.98851 0.48442 0.63187 0.0
C1246 C 0.9981 0.46559 0.6353 0.0
C1247 C 0.01018 0.46446 0.59603 0.0
C1248 C 0.98988 0.49312 0.61029 0.0
C1249 C 0.00875 0.4556 0.61735 0.0
C1250 C 0.04005 0.57089 0.55269 0.0
C1251 C 1.00337 0.49431 0.57092 0.0
H1252 H 0.10967 0.62739 0.41645 0.0
H1253 H 0.08503 0.62066 0.48335 0.0
H1254 H 0.09703 0.64457 0.45318 0.0
H1255 H 0.09451 0.55993 0.43789 0.0
H1256 H 0.99761 0.45876 0.65192 0.0
H1257 H 0.0185 0.45635 0.58247 0.0
H1258 H 0.98232 0.50744 0.60726 0.0
H1259 H 0.01606 0.44108 0.62005 0.0
Tb1260 Tb 0.81628 0.77022 0.27584 0.0
C1261 C 0.73961 0.81543 0.2347 0.0
N1262 N 0.75348 0.82171 0.25605 0.0
C1263 C 0.75931 0.86206 0.25217 0.0
C1264 C 0.73572 0.83225 0.22081 0.0
C1265 C 0.7626 0.84477 0.26535 0.0
C1266 C 0.746 0.85577 0.2297 0.0
C1267 C 0.71483 0.7848 0.20464 0.0
C1268 C 0.72902 0.79203 0.22686 0.0
C1269 C 0.7112 0.80147 0.19058 0.0
C1270 C 0.72157 0.82513 0.19867 0.0
Tb1271 Tb 0.75733 0.79165 0.27553 0.0
N1272 N 0.73333 0.77627 0.24064 0.0
C1273 C 0.70492 0.76101 0.19709 0.0
C1274 C 0.72341 0.75305 0.23353 0.0
C1275 C 0.70918 0.74509 0.21164 0.0
H1276 H 0.77217 0.85006 0.28313 0.0
H1277 H 0.70154 0.72666 0.20597 0.0
H1278 H 0.81271 0.71482 0.28139 0.0
H1279 H 0.87822 0.84691 0.32201 0.0
H1280 H 0.72651 0.74049 0.24444 0.0
H1281 H 0.69397 0.75474 0.18009 0.0
H1282 H 0.85079 0.82266 0.28803 0.0
H1283 H 0.76686 0.88026 0.25948 0.0
H1284 H 0.7004 0.79624 0.17342 0.0
H1285 H 0.71847 0.8378 0.18771 0.0
H1286 H 0.82229 0.69313 0.31326 0.0
H1287 H 0.74342 0.86922 0.21957 0.0
H1288 H 0.88763 0.83026 0.35813 0.0
N1289 N 0.82662 0.74818 0.30298 0.0
C1290 C 0.84054 0.76002 0.32319 0.0
C1291 C 0.82714 0.71201 0.31654 0.0
C1292 C 0.84737 0.74849 0.34154 0.0
C1293 C 0.82116 0.72434 0.29877 0.0
C1294 C 0.83989 0.72419 0.3383 0.0
N1295 N 0.84342 0.79335 0.30549 0.0
C1296 C 0.85431 0.8155 0.30394 0.0
C1297 C 0.86546 0.79636 0.34397 0.0
C1298 C 0.84963 0.78344 0.32433 0.0
C1299 C 0.87538 0.81968 0.34338 0.0
C1300 C 0.87008 0.82916 0.32305 0.0
H1301 H 0.84478 0.71461 0.35191 0.0
H1302 H 0.86749 0.75295 0.37634 0.0
H1303 H 0.88322 0.79502 0.37856 0.0
O1304 O 0.83971 0.78179 0.25287 0.0
O1305 O 0.8109 0.79276 0.30837 0.0
O1306 O 0.7731 0.78071 0.307 0.0
O1307 O 0.83378 0.74689 0.25952 0.0
O1308 O 0.81175 0.80124 0.26109 0.0
O1309 O 0.7893 0.81761 0.28521 0.0
O1310 O 0.72475 0.78229 0.28445 0.0
O1311 O 0.76992 0.78379 0.2407 0.0
O1312 O 0.78799 0.75508 0.24726 0.0
O1313 O 0.74691 0.81521 0.30111 0.0
O1314 O 0.75396 0.75533 0.27965 0.0
O1315 O 0.7868 0.74145 0.27787 0.0
C1316 C 0.79293 0.79048 0.31919 0.0
C1317 C 0.87046 0.76376 0.25332 0.0
C1318 C 0.90616 0.7663 0.23749 0.0
C1319 C 0.91619 0.76368 0.25993 0.0
C1320 C 0.88096 0.76129 0.27564 0.0
C1321 C 0.90366 0.76129 0.27889 0.0
C1322 C 0.88323 0.76645 0.23422 0.0
C1323 C 0.80582 0.81957 0.27214 0.0
C1324 C 0.84608 0.76231 0.24963 0.0
C1325 C 0.86226 0.76143 0.36188 0.0
C1326 C 0.87127 0.78536 0.36311 0.0
C1327 C 0.779 0.76657 0.2325 0.0
C1328 C 0.70763 0.81209 0.29994 0.0
C1329 C 0.67306 0.81553 0.31648 0.0
C1330 C 0.66987 0.83111 0.30081 0.0
C1331 C 0.70407 0.82764 0.28456 0.0
C1332 C 0.69212 0.8061 0.31584 0.0
C1333 C 0.68527 0.8371 0.28506 0.0
C1334 C 0.76506 0.7387 0.28 0.0
C1335 C 0.7271 0.80153 0.29973 0.0
H1336 H 0.93379 0.76352 0.26276 0.0
H1337 H 0.87156 0.75894 0.29048 0.0
H1338 H 0.91153 0.75923 0.29613 0.0
H1339 H 0.87533 0.76826 0.21686 0.0
H1340 H 0.65523 0.83839 0.30039 0.0
H1341 H 0.71568 0.83242 0.27216 0.0
H1342 H 0.69504 0.79419 0.32784 0.0
H1343 H 0.68254 0.84902 0.27305 0.0
Tb1344 Tb 0.76755 0.27964 0.80315 0.0
C1345 C 0.82364 0.23487 0.71749 0.0
N1346 N 0.83052 0.25229 0.73702 0.0
C1347 C 0.86444 0.23945 0.74514 0.0
C1348 C 0.83668 0.21868 0.71138 0.0
C1349 C 0.85101 0.25518 0.75039 0.0
C1350 C 0.85718 0.22101 0.72568 0.0
C1351 C 0.79571 0.21562 0.68301 0.0
C1352 C 0.80344 0.23335 0.70346 0.0
C1353 C 0.80852 0.19932 0.677 0.0
C1354 C 0.82895 0.20083 0.69116 0.0
Tb1355 Tb 0.80674 0.27661 0.74384 0.0
N1356 N 0.79116 0.24903 0.71025 0.0
C1357 C 0.77535 0.21486 0.66919 0.0
C1358 C 0.77181 0.24897 0.69616 0.0
C1359 C 0.76348 0.23175 0.67568 0.0
H1360 H 0.85743 0.26991 0.76485 0.0
H1361 H 0.74799 0.23167 0.66477 0.0
H1362 H 0.72445 0.29822 0.78102 0.0
H1363 H 0.8151 0.30223 0.89273 0.0
H1364 H 0.76283 0.26232 0.70019 0.0
H1365 H 0.76884 0.20154 0.65331 0.0
H1366 H 0.79883 0.27642 0.85402 0.0
H1367 H 0.88051 0.24174 0.75598 0.0
H1368 H 0.80283 0.18552 0.66139 0.0
H1369 H 0.8387 0.18819 0.68624 0.0
H1370 H 0.70856 0.33271 0.78965 0.0
H1371 H 0.86767 0.20891 0.72161 0.0
H1372 H 0.80553 0.34047 0.90283 0.0
N1373 N 0.74983 0.3092 0.81143 0.0
C1374 C 0.7582 0.32499 0.83186 0.0
C1375 C 0.72263 0.33084 0.80162 0.0
C1376 C 0.74957 0.34484 0.83775 0.0
C1377 C 0.73177 0.31138 0.79669 0.0
C1378 C 0.73176 0.34783 0.8221 0.0
N1379 N 0.78187 0.30073 0.84099 0.0
C1380 C 0.79507 0.29339 0.85769 0.0
C1381 C 0.7834 0.33576 0.86937 0.0
C1382 C 0.77499 0.32067 0.84716 0.0
C1383 C 0.79864 0.32938 0.88556 0.0
C1384 C 0.80409 0.30783 0.87992 0.0
H1385 H 0.72465 0.36287 0.82592 0.0
H1386 H 0.75257 0.37627 0.86394 0.0
H1387 H 0.78212 0.36819 0.89183 0.0
O1388 O 0.76296 0.25079 0.82071 0.0
O1389 O 0.77826 0.31242 0.7907 0.0
O1390 O 0.80883 0.30366 0.7757 0.0
O1391 O 0.73465 0.26092 0.80408 0.0
O1392 O 0.80257 0.27626 0.8125 0.0
O1393 O 0.8248 0.27734 0.78046 0.0
O1394 O 0.80588 0.2986 0.71832 0.0
O1395 O 0.78904 0.24142 0.74642 0.0
O1396 O 0.78138 0.26443 0.77494 0.0
O1397 O 0.83767 0.29379 0.73494 0.0
O1398 O 0.77352 0.28628 0.73874 0.0
O1399 O 0.74903 0.27283 0.76606 0.0
C1400 C 0.79545 0.31797 0.77905 0.0
C1401 C 0.73158 0.24759 0.84121 0.0
C1402 C 0.7336 0.23867 0.88172 0.0
C1403 C 0.71642 0.25002 0.88635 0.0
C1404 C 0.71415 0.2587 0.84594 0.0
C1405 C 0.70657 0.25977 0.86839 0.0
C1406 C 0.74086 0.23713 0.85909 0.0
C1407 C 0.82161 0.27593 0.80327 0.0
C1408 C 0.74135 0.24808 0.81856 0.0
C1409 C 0.75877 0.36074 0.85917 0.0
C1410 C 0.77564 0.35618 0.875 0.0
C1411 C 0.77872 0.24304 0.76473 0.0
C1412 C 0.83957 0.31916 0.70518 0.0
C1413 C 0.8384 0.34192 0.67323 0.0
C1414 C 0.8619 0.34958 0.67775 0.0
C1415 C 0.86302 0.32675 0.70946 0.0
C1416 C 0.82738 0.32684 0.68713 0.0
C1417 C 0.8741 0.342 0.69581 0.0
C1418 C 0.75338 0.28121 0.74608 0.0
C1419 C 0.82759 0.30346 0.71952 0.0
H1420 H 0.7107 0.25134 0.90384 0.0
H1421 H 0.70662 0.26691 0.83253 0.0
H1422 H 0.69328 0.2685 0.87199 0.0
H1423 H 0.75432 0.2285 0.85575 0.0
H1424 H 0.87084 0.36106 0.66706 0.0
H1425 H 0.87274 0.32105 0.72341 0.0
H1426 H 0.80925 0.32115 0.6839 0.0
H1427 H 0.89218 0.34787 0.69915 0.0
Tb1428 Tb 0.77068 0.75699 0.7587 0.0
C1429 C 0.85489 0.83281 0.81619 0.0
N1430 N 0.83529 0.82324 0.82365 0.0
C1431 C 0.85545 0.82196 0.86187 0.0
C1432 C 0.87566 0.836 0.83074 0.0
C1433 C 0.83529 0.81931 0.84684 0.0
C1434 C 0.87576 0.82988 0.8536 0.0
C1435 C 0.87388 0.85193 0.78664 0.0
C1436 C 0.85403 0.84097 0.79461 0.0
C1437 C 0.89468 0.85388 0.80038 0.0
C1438 C 0.89557 0.84599 0.82242 0.0
Tb1439 Tb 0.80353 0.81864 0.79657 0.0
N1440 N 0.83361 0.83876 0.78178 0.0
C1441 C 0.87218 0.86098 0.76534 0.0
C1442 C 0.83186 0.84871 0.76169 0.0
C1443 C 0.85105 0.85963 0.75299 0.0
H1444 H 0.8197 0.81377 0.85376 0.0
H1445 H 0.84952 0.86717 0.73687 0.0
H1446 H 0.75403 0.77235 0.70718 0.0
H1447 H 0.7244 0.69909 0.81162 0.0
H1448 H 0.81573 0.8487 0.75256 0.0
H1449 H 0.88703 0.8695 0.7586 0.0
H1450 H 0.7584 0.71935 0.79749 0.0
H1451 H 0.85528 0.81807 0.87989 0.0
H1452 H 0.91012 0.862 0.79442 0.0
H1453 H 0.91169 0.84829 0.83321 0.0
H1454 H 0.71835 0.77267 0.6836 0.0
H1455 H 0.89135 0.8321 0.86534 0.0
H1456 H 0.68701 0.7011 0.79299 0.0
N1457 N 0.73868 0.75671 0.73445 0.0
C1458 C 0.71916 0.74567 0.74103 0.0
C1459 C 0.71833 0.76534 0.69993 0.0
C1460 C 0.69831 0.74525 0.72801 0.0
C1461 C 0.73858 0.76544 0.71353 0.0
C1462 C 0.69809 0.75556 0.70743 0.0
N1463 N 0.7407 0.73462 0.77224 0.0
C1464 C 0.74224 0.72101 0.78955 0.0
C1465 C 0.7003 0.72267 0.76791 0.0
C1466 C 0.72021 0.73456 0.76075 0.0
C1467 C 0.70191 0.71035 0.78688 0.0
C1468 C 0.72298 0.70921 0.79746 0.0
H1469 H 0.68242 0.75552 0.69686 0.0
H1470 H 0.66226 0.73398 0.7261 0.0
H1471 H 0.66399 0.71426 0.7611 0.0
O1472 O 0.767 0.72085 0.75091 0.0
O1473 O 0.75091 0.78375 0.76401 0.0
O1474 O 0.76769 0.80501 0.80093 0.0
O1475 O 0.77807 0.74213 0.72521 0.0
O1476 O 0.77368 0.76023 0.79798 0.0
O1477 O 0.80548 0.78853 0.81391 0.0
O1478 O 0.80503 0.85443 0.8003 0.0
O1479 O 0.82248 0.80073 0.77211 0.0
O1480 O 0.80744 0.7618 0.77186 0.0
O1481 O 0.79668 0.83598 0.82908 0.0
O1482 O 0.785 0.81847 0.76074 0.0
O1483 O 0.78769 0.78324 0.73983 0.0
C1484 C 0.74958 0.79608 0.78488 0.0
C1485 C 0.79422 0.70992 0.72867 0.0
C1486 C 0.81253 0.67983 0.73948 0.0
C1487 C 0.83016 0.6881 0.72682 0.0
C1488 C 0.81187 0.71794 0.71595 0.0
C1489 C 0.82973 0.70701 0.71506 0.0
C1490 C 0.79467 0.69081 0.74017 0.0
C1491 C 0.78897 0.7714 0.81613 0.0
C1492 C 0.77557 0.72155 0.731 0.0
C1493 C 0.67846 0.73425 0.73569 0.0
C1494 C 0.67945 0.72303 0.75563 0.0
C1495 C 0.82439 0.77891 0.7691 0.0
C1496 C 0.77719 0.86476 0.82184 0.0
C1497 C 0.75527 0.88994 0.80621 0.0
C1498 C 0.73738 0.88018 0.81781 0.0
C1499 C 0.75926 0.85513 0.83346 0.0
C1500 C 0.77529 0.88265 0.80907 0.0
C1501 C 0.73953 0.86304 0.83161 0.0
C1502 C 0.78598 0.80485 0.74032 0.0
C1503 C 0.7972 0.8552 0.82077 0.0
H1504 H 0.84413 0.67985 0.72582 0.0
H1505 H 0.81201 0.73273 0.70693 0.0
H1506 H 0.84332 0.71329 0.70533 0.0
H1507 H 0.78126 0.68483 0.75031 0.0
H1508 H 0.72168 0.88549 0.81594 0.0
H1509 H 0.76024 0.84123 0.8435 0.0
H1510 H 0.78943 0.8906 0.80082 0.0
H1511 H 0.72567 0.85544 0.84035 0.0
Tb1512 Tb 0.56113 0.55189 0.54226 0.0
C1513 C 0.49438 0.46596 0.47474 0.0
N1514 N 0.50223 0.4883 0.47157 0.0
C1515 C 0.50661 0.47429 0.43077 0.0
C1516 C 0.49277 0.44685 0.45614 0.0
C1517 C 0.50776 0.49271 0.44971 0.0
C1518 C 0.49922 0.45127 0.43402 0.0
C1519 C 0.4797 0.43945 0.50093 0.0
C1520 C 0.48798 0.46227 0.49684 0.0
C1521 C 0.47817 0.42034 0.48249 0.0
C1522 C 0.48472 0.42403 0.46017 0.0
Tb1523 Tb 0.50343 0.51662 0.50414 0.0
N1524 N 0.49044 0.48115 0.51453 0.0
C1525 C 0.47321 0.43657 0.52343 0.0
C1526 C 0.48272 0.47851 0.53586 0.0
C1527 C 0.47445 0.45623 0.54085 0.0
H1528 H 0.51258 0.51036 0.44649 0.0
H1529 H 0.4687 0.45426 0.55799 0.0
H1530 H 0.54651 0.56529 0.59673 0.0
H1531 H 0.60023 0.60572 0.48246 0.0
H1532 H 0.48219 0.49348 0.54874 0.0
H1533 H 0.46679 0.41932 0.52732 0.0
H1534 H 0.58782 0.56907 0.49743 0.0
H1535 H 0.51121 0.47789 0.41357 0.0
H1536 H 0.47195 0.40265 0.48532 0.0
H1537 H 0.48342 0.40912 0.44611 0.0
H1538 H 0.54474 0.60088 0.6241 0.0
H1539 H 0.49826 0.43706 0.41927 0.0
H1540 H 0.59701 0.64309 0.50598 0.0
N1541 N 0.55896 0.58345 0.56954 0.0
C1542 C 0.56681 0.60465 0.56345 0.0
C1543 C 0.55081 0.60217 0.607 0.0
C1544 C 0.5664 0.62548 0.57871 0.0
C1545 C 0.55148 0.58196 0.59123 0.0
C1546 C 0.55818 0.62402 0.60067 0.0
N1547 N 0.57434 0.58474 0.52693 0.0
C1548 C 0.58474 0.58489 0.50685 0.0
C1549 C 0.5823 0.62687 0.5341 0.0
C1550 C 0.57447 0.60528 0.5413 0.0
C1551 C 0.59086 0.62689 0.5122 0.0
C1552 C 0.59253 0.60582 0.49877 0.0
H1553 H 0.55755 0.63964 0.6129 0.0
H1554 H 0.57351 0.66321 0.58281 0.0
H1555 H 0.58748 0.66443 0.54381 0.0
O1556 O 0.59456 0.55146 0.53864 0.0
O1557 O 0.53408 0.57094 0.53556 0.0
O1558 O 0.51453 0.55318 0.49855 0.0
O1559 O 0.58455 0.55878 0.5736 0.0
O1560 O 0.56135 0.53408 0.50505 0.0
O1561 O 0.52764 0.53542 0.48464 0.0
O1562 O 0.47265 0.52115 0.51406 0.0
O1563 O 0.52697 0.49434 0.51334 0.0
O1564 O 0.55329 0.51461 0.54599 0.0
O1565 O 0.47642 0.51207 0.4767 0.0
O1566 O 0.50454 0.53323 0.5419 0.0
O1567 O 0.53826 0.53225 0.5626 0.0
C1568 C 0.52268 0.57221 0.51497 0.0
C1569 C 0.61143 0.53608 0.56969 0.0
C1570 C 0.63597 0.50962 0.56202 0.0
C1571 C 0.63248 0.50196 0.58384 0.0
C1572 C 0.60805 0.52822 0.59152 0.0
C1573 C 0.61851 0.51121 0.59846 0.0
C1574 C 0.62545 0.52665 0.55507 0.0
C1575 C 0.54864 0.5345 0.48507 0.0
C1576 C 0.60031 0.55376 0.56176 0.0
C1577 C 0.57384 0.647 0.57141 0.0
C1578 C 0.58171 0.64769 0.54914 0.0
C1579 C 0.5425 0.4949 0.53155 0.0
C1580 C 0.45401 0.5387 0.48678 0.0
C1581 C 0.42942 0.56418 0.49803 0.0
C1582 C 0.43715 0.57795 0.48119 0.0
C1583 C 0.46178 0.55271 0.47012 0.0
C1584 C 0.43775 0.54445 0.50047 0.0
C1585 C 0.45325 0.57218 0.46731 0.0
C1586 C 0.51665 0.53057 0.56127 0.0
C1587 C 0.4638 0.51923 0.49178 0.0
H1588 H 0.64055 0.48886 0.58951 0.0
H1589 H 0.5973 0.53511 0.6032 0.0
H1590 H 0.61582 0.50523 0.61525 0.0
H1591 H 0.62849 0.5328 0.53838 0.0
H1592 H 0.43101 0.59334 0.47906 0.0
H1593 H 0.47463 0.54887 0.45957 0.0
H1594 H 0.43175 0.53363 0.5133 0.0
H1595 H 0.45936 0.583 0.45457 0.0
Tb1596 Tb 1.0034 0.53132 0.03929 0.0
C1597 C 0.08016 0.58314 0.98871 0.0
N1598 N 0.0658 0.56184 0.98085 0.0
C1599 C 0.06058 0.57064 0.94106 0.0
C1600 C 0.08491 0.59921 0.97302 0.0
C1601 C 0.05634 0.55524 0.95726 0.0
C1602 C 0.07483 0.59274 0.94898 0.0
C1603 C 0.10443 0.61105 0.02165 0.0
C1604 C 0.0898 0.58904 0.01278 0.0
C1605 C 0.10915 0.62711 0.00606 0.0
C1606 C 0.09944 0.62121 0.98183 0.0
Tb1607 Tb 0.06081 0.53877 0.00939 0.0
N1608 N 0.08419 0.57343 0.02764 0.0
C1609 C 0.11383 0.61624 0.04594 0.0
C1610 C 0.09438 0.57783 0.05089 0.0
C1611 C 0.109 0.59943 0.06053 0.0
H1612 H 0.04584 0.53799 0.95062 0.0
H1613 H 0.1168 0.60296 0.07912 0.0
H1614 H 0.01829 0.5365 0.09904 0.0
H1615 H 0.94388 0.46448 0.97566 0.0
H1616 H 0.09186 0.56454 0.06182 0.0
H1617 H 0.12516 0.63297 0.05347 0.0
H1618 H 0.96757 0.5042 0.9911 0.0
H1619 H 0.05297 0.56538 0.92242 0.0
H1620 H 0.12028 0.64416 0.01258 0.0
H1621 H 0.10323 0.63381 0.97006 0.0
H1622 H 0.01528 0.51032 0.12877 0.0
H1623 H 0.07806 0.6046 0.93636 0.0
H1624 H 0.94079 0.43463 0.00197 0.0
N1625 N 1.00017 0.51009 0.06976 0.0
C1626 C 0.98726 0.4879 0.06321 0.0
C1627 C 0.00752 0.50373 0.11031 0.0
C1628 C 0.98475 0.47245 0.07977 0.0
C1629 C 0.00949 0.51844 0.09323 0.0
C1630 C 0.99535 0.48056 0.10349 0.0
N1631 N 0.97971 0.49594 0.02414 0.0
C1632 C 0.96726 0.49088 0.00195 0.0
C1633 C 0.96271 0.45801 0.03217 0.0
C1634 C 0.97634 0.4807 0.03975 0.0
C1635 C 0.95147 0.4519 0.00853 0.0
C1636 C 0.95335 0.46862 0.99354 0.0
H1637 H 0.99387 0.46924 0.11678 0.0
H1638 H 0.96971 0.43734 0.08457 0.0
H1639 H 0.95045 0.42471 0.04288 0.0
O1640 O 0.97711 0.54535 0.02544 0.0
O1641 O 0.01533 0.49877 0.02795 0.0
O1642 O 0.04008 0.50255 0.99958 0.0
O1643 O 0.9799 0.53867 0.06166 0.0
O1644 O 0.00761 0.54098 0.00416 0.0
O1645 O 0.03094 0.52293 0.98383 0.0
O1646 O 0.08896 0.52744 0.0229 0.0
O1647 O 0.0471 0.57064 0.0185 0.0
O1648 O 0.02569 0.56681 0.04979 0.0
O1649 O 0.08262 0.52982 0.98544 0.0
O1650 O 0.05612 0.52686 0.04336 0.0
O1651 O 0.03398 0.54642 0.06412 0.0
C1652 C 0.02649 0.48972 0.01164 0.0
C1653 C 0.9654 0.5709 0.05506 0.0
C1654 C 0.94077 0.59798 0.057 0.0
C1655 C 0.95658 0.61346 0.07506 0.0
C1656 C 0.98085 0.58661 0.07325 0.0
C1657 C 0.97649 0.60781 0.08304 0.0
C1658 C 0.94541 0.57677 0.04673 0.0
C1659 C 0.01126 0.52743 0.98538 0.0
C1660 C 0.96942 0.54783 0.04598 0.0
C1661 C 0.97165 0.44954 0.07216 0.0
C1662 C 0.96066 0.44234 0.04842 0.0
C1663 C 0.03781 0.57985 0.03661 0.0
C1664 C 0.09795 0.49867 0.99467 0.0
C1665 C 0.12132 0.47062 0.99669 0.0
C1666 C 0.10464 0.45364 0.98097 0.0
C1667 C 0.08139 0.48137 0.97899 0.0
C1668 C 0.11786 0.4931 0.00371 0.0
C1669 C 0.08471 0.45898 0.97233 0.0
C1670 C 0.05217 0.5386 0.06317 0.0
C1671 C 0.09458 0.52245 0.00154 0.0
H1672 H 0.95339 0.62989 0.08315 0.0
H1673 H 0.99606 0.58221 0.0803 0.0
H1674 H 0.98835 0.61967 0.09726 0.0
H1675 H 0.93318 0.56455 0.03302 0.0
H1676 H 0.10705 0.43624 0.97543 0.0
H1677 H 0.06596 0.48518 0.97169 0.0
H1678 H 0.13075 0.5063 0.01578 0.0
H1679 H 0.07186 0.44577 0.96027 0.0
C1680 C 0.00785 0.20485 0.99967 0.0
C1681 C 1.00025 0.20618 0.97576 0.0
C1682 C 0.01077 0.18343 0.0064 0.0
C1683 C 1.0053 0.1623 0.98912 0.0
C1684 C 0.99722 0.16362 0.96507 0.0
C1685 C 0.99507 0.18531 0.95874 0.0
C1686 C 0.01998 0.18345 0.03207 0.0
C1687 C 0.99083 0.14197 0.94584 0.0
C1688 C 0.03291 0.11103 0.99803 0.0
C1689 C 0.01691 0.09564 0.00767 0.0
C1690 C 0.02953 0.13254 0.99244 0.0
C1691 C 0.00913 0.13922 0.99571 0.0
C1692 C 0.99242 0.12337 0.00459 0.0
C1693 C 0.9965 0.10203 0.01051 0.0
C1694 C 0.04818 0.14837 0.98339 0.0
C1695 C 0.97001 0.1288 0.00759 0.0
H1696 H 0.01176 0.22065 0.01313 0.0
H1697 H 0.98888 0.18587 0.94029 0.0
H1698 H 0.00793 0.1711 0.04001 0.0
H1699 H 0.03575 0.17732 0.03247 0.0
H1700 H 0.02344 0.20104 0.04348 0.0
H1701 H 0.98359 0.14541 0.92837 0.0
H1702 H 1.0058 0.13496 0.94301 0.0
H1703 H 0.97843 0.12821 0.95169 0.0
H1704 H 0.04833 0.10619 0.99461 0.0
H1705 H 0.98368 0.09041 0.0175 0.0
H1706 H 0.05555 0.16393 0.99758 0.0
H1707 H 0.04171 0.15464 0.96726 0.0
H1708 H 0.06169 0.13956 0.9787 0.0
H1709 H 0.97233 0.14638 0.01866 0.0
H1710 H 0.95936 0.11577 0.01619 0.0
H1711 H 0.96102 0.12903 0.98969 0.0
C1712 C 0.13369 0.7791 0.17729 0.0
C1713 C 0.13319 0.79423 0.16051 0.0
C1714 C 0.15375 0.77831 0.1911 0.0
C1715 C 0.17435 0.79282 0.18817 0.0
C1716 C 0.17414 0.80815 0.17122 0.0
C1717 C 0.15362 0.80879 0.15774 0.0
C1718 C 0.15282 0.76191 0.20904 0.0
C1719 C 0.19565 0.82382 0.1673 0.0
C1720 C 0.22185 0.80301 0.24088 0.0
C1721 C 0.23367 0.78619 0.2333 0.0
C1722 C 0.2031 0.80591 0.22615 0.0
C1723 C 0.19585 0.79174 0.20301 0.0
C1724 C 0.20808 0.77505 0.19508 0.0
C1725 C 0.22669 0.77243 0.21029 0.0
C1726 C 0.19073 0.82383 0.23568 0.0
C1727 C 0.20112 0.7594 0.17074 0.0
H1728 H 0.11818 0.76781 0.17995 0.0
H1729 H 0.15361 0.82057 0.14495 0.0
H1730 H 0.16332 0.74935 0.20456 0.0
H1731 H 0.15973 0.77191 0.22738 0.0
H1732 H 0.13549 0.7519 0.20942 0.0
H1733 H 0.19287 0.83462 0.15345 0.0
H1734 H 0.2038 0.83558 0.18444 0.0
H1735 H 0.20748 0.81313 0.16158 0.0
H1736 H 0.22737 0.81407 0.25837 0.0
H1737 H 0.2353 0.75903 0.20445 0.0
H1738 H 0.17346 0.81495 0.23774 0.0
H1739 H 0.1893 0.83578 0.2227 0.0
H1740 H 0.19915 0.83436 0.2534 0.0
H1741 H 0.18469 0.74724 0.17052 0.0
H1742 H 0.2135 0.74896 0.16621 0.0
H1743 H 0.199 0.76995 0.15651 0.0
C1744 C 0.48234 0.84526 0.48909 0.0
C1745 C 0.49911 0.83434 0.48122 0.0
C1746 C 0.48608 0.86988 0.4955 0.0
C1747 C 0.50739 0.88451 0.49481 0.0
C1748 C 0.52463 0.8736 0.48763 0.0
C1749 C 0.52024 0.84891 0.48065 0.0
C1750 C 0.46687 0.88029 0.50232 0.0
C1751 C 0.54779 0.8881 0.4871 0.0
C1752 C 0.51275 0.94895 0.4876 0.0
C1753 C 0.51882 0.96123 0.51141 0.0
C1754 C 0.5086 0.92425 0.48211 0.0
C1755 C 0.51131 0.9111 0.50068 0.0
C1756 C 0.51754 0.9235 0.5248 0.0
C1757 C 0.52081 0.94818 0.52986 0.0
C1758 C 0.50104 0.9122 0.45628 0.0
C1759 C 0.52113 0.91073 0.54533 0.0
H1760 H 0.46582 0.83455 0.48944 0.0
H1761 H 0.53343 0.84102 0.47462 0.0
H1762 H 0.47112 0.89035 0.52095 0.0
H1763 H 0.46388 0.89267 0.49026 0.0
H1764 H 0.4511 0.86679 0.50122 0.0
H1765 H 0.55986 0.87715 0.48302 0.0
H1766 H 0.54713 0.8993 0.47323 0.0
H1767 H 0.55413 0.89985 0.50472 0.0
H1768 H 0.51083 0.95869 0.47318 0.0
H1769 H 0.52552 0.95737 0.54832 0.0
H1770 H 0.48508 0.89894 0.45496 0.0
H1771 H 0.51365 0.90288 0.44988 0.0
H1772 H 0.4985 0.92463 0.44409 0.0
H1773 H 0.50526 0.89848 0.54689 0.0
H1774 H 0.52706 0.92283 0.56283 0.0
H1775 H 0.53361 0.90019 0.54173 0.0
C1776 C 0.49041 0.29343 0.64335 0.0
C1777 C 0.50809 0.283 0.64945 0.0
C1778 C 0.47111 0.29032 0.65495 0.0
C1779 C 0.46916 0.27611 0.67287 0.0
C1780 C 0.48677 0.26515 0.67872 0.0
C1781 C 0.50604 0.26889 0.66713 0.0
C1782 C 0.45299 0.30261 0.64834 0.0
C1783 C 0.48531 0.24954 0.69741 0.0
C1784 C 0.43017 0.28004 0.72089 0.0
C1785 C 0.41292 0.26003 0.71227 0.0
C1786 C 0.44802 0.2863 0.70763 0.0
C1787 C 0.44863 0.27218 0.68527 0.0
C1788 C 0.43036 0.25293 0.6758 0.0
C1789 C 0.41284 0.24706 0.68943 0.0
C1790 C 0.46694 0.30714 0.71832 0.0
C1791 C 0.43003 0.23752 0.65198 0.0
H1792 H 0.49191 0.30462 0.62993 0.0
H1793 H 0.5196 0.26083 0.67204 0.0
H1794 H 0.43677 0.28971 0.6422 0.0
H1795 H 0.45075 0.31456 0.66444 0.0
H1796 H 0.45691 0.31291 0.63391 0.0
H1797 H 0.5002 0.24201 0.69966 0.0
H1798 H 0.48375 0.25958 0.71504 0.0
H1799 H 0.47011 0.23502 0.69223 0.0
H1800 H 0.43046 0.28992 0.73867 0.0
H1801 H 0.3996 0.23147 0.68281 0.0
H1802 H 0.47128 0.31822 0.70464 0.0
H1803 H 0.48208 0.30109 0.72417 0.0
H1804 H 0.46271 0.31798 0.73413 0.0
H1805 H 0.43375 0.24822 0.63787 0.0
H1806 H 0.41361 0.22486 0.6459 0.0
H1807 H 0.44324 0.22761 0.65372 0.0
C1808 C 1.00258 0.80622 0.63072 0.0
C1809 C 0.01381 0.80528 0.65331 0.0
C1810 C 0.00852 0.82566 0.61931 0.0
C1811 C 0.02596 0.84501 0.63079 0.0
C1812 C 0.0374 0.84422 0.65358 0.0
C1813 C 0.03133 0.82437 0.66445 0.0
C1814 C 0.99609 0.82544 0.59489 0.0
C1815 C 0.05596 0.86449 0.66662 0.0
C1816 C 0.05615 0.88767 0.59394 0.0
C1817 C 0.04584 0.90642 0.59809 0.0
C1818 C 0.04949 0.86742 0.60393 0.0
C1819 C 0.03235 0.86598 0.61889 0.0
C1820 C 0.02162 0.88479 0.62276 0.0
C1821 C 0.02845 0.90473 0.61226 0.0
C1822 C 0.06118 0.84779 0.59891 0.0
C1823 C 1.00342 0.88418 0.63866 0.0
H1824 H 0.98912 0.79161 0.62176 0.0
H1825 H 0.04008 0.824 0.6819 0.0
H1826 H 0.98782 0.84027 0.59579 0.0
H1827 H 0.00806 0.82772 0.58164 0.0
H1828 H 0.98315 0.80896 0.58817 0.0
H1829 H 0.06301 0.8614 0.68434 0.0
H1830 H 0.06968 0.86772 0.65546 0.0
H1831 H 0.04958 0.88058 0.66953 0.0
H1832 H 0.06982 0.8891 0.58325 0.0
H1833 H 0.02076 0.91939 0.61586 0.0
H1834 H 0.0487 0.8311 0.59173 0.0
H1835 H 0.07045 0.84561 0.61591 0.0
H1836 H 0.0732 0.85097 0.5858 0.0
H1837 H 0.98971 0.86833 0.63211 0.0
H1838 H 0.99625 0.8998 0.63929 0.0
H1839 H 0.01028 0.88324 0.65725 0.0
C1840 C 0.45673 0.79469 0.82799 0.0
C1841 C 0.47303 0.80643 0.81553 0.0
C1842 C 0.4335 0.79275 0.82182 0.0
C1843 C 0.42557 0.80215 0.80201 0.0
C1844 C 0.4418 0.81387 0.78907 0.0
C1845 C 0.46516 0.81595 0.79598 0.0
C1846 C 0.41735 0.78037 0.83658 0.0
C1847 C 0.43441 0.82393 0.76762 0.0
C1848 C 0.36345 0.775 0.77499 0.0
C1849 C 0.35225 0.79164 0.78484 0.0
C1850 C 0.38714 0.7786 0.77961 0.0
C1851 C 0.40037 0.7992 0.79491 0.0
C1852 C 0.3891 0.81609 0.8048 0.0
C1853 C 0.36544 0.81218 0.79961 0.0
C1854 C 0.39802 0.76012 0.7682 0.0
C1855 C 0.40198 0.83815 0.82149 0.0
H1856 H 0.46204 0.78651 0.8426 0.0
H1857 H 0.47724 0.82483 0.78587 0.0
H1858 H 0.40657 0.79188 0.84338 0.0
H1859 H 0.40617 0.76453 0.82515 0.0
H1860 H 0.42607 0.77507 0.85219 0.0
H1861 H 0.44882 0.83275 0.75952 0.0
H1862 H 0.42349 0.80981 0.75369 0.0
H1863 H 0.42432 0.83668 0.77297 0.0
H1864 H 0.35367 0.75913 0.76342 0.0
H1865 H 0.35717 0.82509 0.8077 0.0
H1866 H 0.4057 0.75217 0.78237 0.0
H1867 H 0.41167 0.7681 0.75861 0.0
H1868 H 0.38587 0.74605 0.75526 0.0
H1869 H 0.41024 0.83367 0.83787 0.0
H1870 H 0.39104 0.84999 0.82704 0.0
H1871 H 0.41537 0.84769 0.8126 0.0
C1872 C 0.50019 0.18108 0.12473 0.0
C1873 C 0.51516 0.19386 0.14516 0.0
C1874 C 0.50462 0.16157 0.1103 0.0
C1875 C 0.52454 0.15422 0.11622 0.0
C1876 C 0.53988 0.16709 0.13666 0.0
C1877 C 0.53507 0.1867 0.15078 0.0
C1878 C 0.48779 0.1487 0.08868 0.0
C1879 C 0.56127 0.15994 0.14382 0.0
C1880 C 0.52343 0.09051 0.08997 0.0
C1881 C 0.53488 0.09272 0.0699 0.0
C1882 C 0.5207 0.11027 0.1056 0.0
C1883 C 0.52911 0.13306 0.10097 0.0
C1884 C 0.54084 0.13545 0.08091 0.0
C1885 C 0.54383 0.11543 0.06594 0.0
C1886 C 0.50839 0.10668 0.12689 0.0
C1887 C 0.54981 0.1592 0.07485 0.0
H1888 H 0.48475 0.18624 0.11998 0.0
H1889 H 0.54679 0.19621 0.16647 0.0
H1890 H 0.49599 0.14821 0.07215 0.0
H1891 H 0.48131 0.13036 0.09079 0.0
H1892 H 0.47337 0.15689 0.08607 0.0
H1893 H 0.57156 0.17172 0.16003 0.0
H1894 H 0.55728 0.14187 0.14756 0.0
H1895 H 0.57142 0.15993 0.12877 0.0
H1896 H 0.51626 0.07326 0.0934 0.0
H1897 H 0.55305 0.11771 0.05089 0.0
H1898 H 0.49242 0.11229 0.12443 0.0
H1899 H 0.51851 0.1176 0.14364 0.0
H1900 H 0.50455 0.08815 0.12929 0.0
H1901 H 0.53578 0.16767 0.07113 0.0
H1902 H 0.55884 0.15825 0.0589 0.0
H1903 H 0.56138 0.17059 0.09041 0.0
C1904 C 0.11883 0.2949 0.29115 0.0
C1905 C 0.11295 0.30492 0.31309 0.0
C1906 C 0.14139 0.29596 0.28743 0.0
C1907 C 0.15932 0.30725 0.30604 0.0
C1908 C 0.15367 0.31786 0.32815 0.0
C1909 C 0.13077 0.31666 0.33138 0.0
C1910 C 0.14601 0.28431 0.26353 0.0
C1911 C 0.17186 0.32991 0.34877 0.0
C1912 C 0.21361 0.28499 0.30253 0.0
C1913 C 0.22726 0.30127 0.29145 0.0
C1914 C 0.19214 0.28712 0.30795 0.0
C1915 C 0.18354 0.30634 0.30265 0.0
C1916 C 0.19769 0.32357 0.29256 0.0
C1917 C 0.21919 0.32087 0.28713 0.0
C1918 C 0.17834 0.26817 0.31874 0.0
C1919 C 0.18987 0.34465 0.28684 0.0
H1920 H 0.1056 0.28579 0.27664 0.0
H1921 H 0.12685 0.32443 0.34847 0.0
H1922 H 0.15829 0.29673 0.25591 0.0
H1923 H 0.15352 0.26943 0.26622 0.0
H1924 H 0.13058 0.27768 0.2502 0.0
H1925 H 0.1652 0.33877 0.36412 0.0
H1926 H 0.18037 0.31691 0.3552 0.0
H1927 H 0.18473 0.34299 0.34264 0.0
H1928 H 0.2197 0.27023 0.30696 0.0
H1929 H 0.22944 0.33388 0.27896 0.0
H1930 H 0.16457 0.25737 0.30483 0.0
H1931 H 0.17059 0.2758 0.33386 0.0
H1932 H 0.18847 0.25654 0.32544 0.0
H1933 H 0.17542 0.33905 0.27221 0.0
H1934 H 0.20329 0.35747 0.28109 0.0
H1935 H 0.18403 0.35345 0.30282 0.0
C1936 C 0.98553 0.04888 0.1928 0.0
C1937 C 0.96798 0.03141 0.19731 0.0
C1938 C 0.9918 0.04886 0.16969 0.0
C1939 C 0.98025 0.03096 0.1504 0.0
C1940 C 0.96237 0.01335 0.15468 0.0
C1941 C 0.95644 0.01376 0.17809 0.0
C1942 C 0.01103 0.06792 0.16601 0.0
C1943 C 0.94967 0.99396 0.13456 0.0
C1944 C 0.98778 0.04421 0.08763 0.0
C1945 C 1.00526 0.03357 0.08224 0.0
C1946 C 0.97883 0.04277 0.10936 0.0
C1947 C 0.98762 0.03041 0.12606 0.0
C1948 C 1.00483 0.01907 0.12029 0.0
C1949 C 0.01347 0.02086 0.09853 0.0
C1950 C 0.96052 0.05513 0.11478 0.0
C1951 C 0.01465 0.00563 0.13744 0.0
H1952 H 0.9946 0.06262 0.20743 0.0
H1953 H 0.94286 1.00021 0.18134 0.0
H1954 H 0.02468 0.06017 0.15965 0.0
H1955 H 1.00541 0.07723 0.15189 0.0
H1956 H 0.01801 0.08087 0.18276 0.0
H1957 H 0.93578 0.98197 0.14061 0.0
H1958 H 0.94264 1.00141 0.11956 0.0
H1959 H 0.96125 0.98368 0.12725 0.0
H1960 H 0.98147 0.05412 0.07511 0.0
H1961 H 0.02685 0.01241 0.09431 0.0
H1962 H 0.96703 0.06986 0.13008 0.0
H1963 H 0.94634 0.04308 0.12026 0.0
H1964 H 0.9541 0.06211 0.09907 0.0
H1965 H 0.02352 0.0178 0.15407 0.0
H1966 H 0.02669 0.99632 0.12946 0.0
H1967 H 1.00113 0.99269 0.14281 0.0
C1968 C 0.25741 0.68328 0.49849 0.0
C1969 C 0.27997 0.6829 0.5039 0.0
C1970 C 0.25003 0.69198 0.47839 0.0
C1971 C 0.26558 0.70017 0.46317 0.0
C1972 C 0.28866 0.70128 0.46943 0.0
C1973 C 0.29565 0.69274 0.48996 0.0
C1974 C 0.22535 0.69095 0.4726 0.0
C1975 C 0.3057 0.70979 0.45354 0.0
C1976 C 0.23914 0.69107 0.39821 0.0
C1977 C 0.23663 0.71349 0.39624 0.0
C1978 C 0.24956 0.68676 0.41964 0.0
C1979 C 0.25713 0.70526 0.43963 0.0
C1980 C 0.25485 0.72801 0.43758 0.0
C1981 C 0.24478 0.7319 0.41576 0.0
C1982 C 0.25214 0.66235 0.42104 0.0
C1983 C 0.26242 0.74804 0.45862 0.0
H1984 H 0.24533 0.67582 0.50946 0.0
H1985 H 0.31308 0.69227 0.4941 0.0
H1986 H 0.22285 0.7079 0.46848 0.0
H1987 H 0.21804 0.67745 0.45638 0.0
H1988 H 0.21596 0.68659 0.48765 0.0
H1989 H 0.32315 0.71287 0.4627 0.0
H1990 H 0.30353 0.6965 0.43697 0.0
H1991 H 0.30321 0.72617 0.4479 0.0
H1992 H 0.23317 0.677 0.38286 0.0
H1993 H 0.24289 0.74927 0.41403 0.0
H1994 H 0.24168 0.65503 0.43411 0.0
H1995 H 0.2698 0.66273 0.42761 0.0
H1996 H 0.24708 0.65044 0.40333 0.0
H1997 H 0.25204 0.74475 0.47315 0.0
H1998 H 0.26103 0.76499 0.4535 0.0
H1999 H 0.28006 0.74942 0.46618 0.0
C2000 C 0.64557 0.04008 0.66565 0.0
C2001 C 0.63718 0.0372 0.68723 0.0
C2002 C 0.63234 0.04563 0.64682 0.0
C2003 C 0.61068 0.04874 0.65021 0.0
C2004 C 0.6032 0.04811 0.67285 0.0
C2005 C 0.61648 0.04199 0.69106 0.0
C2006 C 0.64069 0.04615 0.62276 0.0
C2007 C 0.58039 0.05182 0.6772 0.0
C2008 C 0.57514 0.06593 0.60079 0.0
C2009 C 0.56366 0.04385 0.58829 0.0
C2010 C 0.59078 0.06803 0.62119 0.0
C2011 C 0.59422 0.04752 0.62915 0.0
C2012 C 0.58168 0.02526 0.61707 0.0
C2013 C 0.56669 0.02372 0.59653 0.0
C2014 C 0.60417 0.09195 0.63353 0.0
C2015 C 0.58441 1.003 0.62546 0.0
H2016 H 0.66181 0.03669 0.66304 0.0
H2017 H 0.61042 0.04043 0.70816 0.0
H2018 H 0.63175 0.03004 0.60994 0.0
H2019 H 0.63715 0.06123 0.61508 0.0
H2020 H 0.65897 0.04711 0.62414 0.0
H2021 H 0.57881 0.05482 0.69671 0.0
H2022 H 0.57696 0.06693 0.66948 0.0
H2023 H 0.56732 0.03614 0.66816 0.0
H2024 H 0.57271 0.08136 0.59391 0.0
H2025 H 0.55752 0.00672 0.58661 0.0
H2026 H 0.62178 0.09412 0.62998 0.0
H2027 H 0.6044 0.09398 0.65333 0.0
H2028 H 0.59743 0.10609 0.62701 0.0
H2029 H 0.60187 1.00117 0.62484 0.0
H2030 H 0.57284 0.98722 0.61424 0.0
H2031 H 0.58119 1.0036 0.6444 0.0
C2032 C 0.28542 0.34695 0.95752 0.0
C2033 C 0.30407 0.34434 0.97238 0.0
C2034 C 0.2819 0.33851 0.93242 0.0
C2035 C 0.29751 0.32738 0.92162 0.0
C2036 C 0.31599 0.32411 0.9366 0.0
C2037 C 0.31897 0.33246 0.96163 0.0
C2038 C 0.26179 0.34218 0.91736 0.0
C2039 C 0.33324 0.31264 0.92606 0.0
C2040 C 0.28292 0.28937 0.8586 0.0
C2041 C 0.29185 0.30505 0.84404 0.0
C2042 C 0.28394 0.29657 0.88365 0.0
C2043 C 0.29502 0.31979 0.89467 0.0
C2044 C 0.30441 0.33555 0.87994 0.0
C2045 C 0.30232 0.32812 0.8548 0.0
C2046 C 0.27309 0.27933 0.89833 0.0
C2047 C 0.31711 0.36015 0.8908 0.0
H2048 H 0.27378 0.35611 0.96539 0.0
H2049 H 0.33352 0.33031 0.97268 0.0
H2050 H 0.26742 0.35552 0.90624 0.0
H2051 H 0.253 0.32578 0.90491 0.0
H2052 H 0.24971 0.3482 0.92859 0.0
H2053 H 0.34592 0.31008 0.94015 0.0
H2054 H 0.32503 0.29542 0.91477 0.0
H2055 H 0.34201 0.32365 0.91421 0.0
H2056 H 0.27473 0.27154 0.85027 0.0
H2057 H 0.30946 0.34019 0.84359 0.0
H2058 H 0.26105 0.28665 0.90857 0.0
H2059 H 0.286 0.27609 0.91165 0.0
H2060 H 0.26406 0.26238 0.88694 0.0
H2061 H 0.30604 0.36957 0.90045 0.0
H2062 H 0.32373 0.37012 0.87701 0.0
H2063 H 0.33137 0.35976 0.90423 0.0
C2064 C 0.98641 0.03447 0.3456 0.0
C2065 C 0.97371 0.01416 0.33046 0.0
C2066 C 0.99463 0.03416 0.36949 0.0
C2067 C 0.98953 0.01309 0.37862 0.0
C2068 C 0.977 0.99234 0.36319 0.0
C2069 C 0.96931 0.9931 0.33912 0.0
C2070 C 0.00814 0.05661 0.38517 0.0
C2071 C 0.97091 0.96966 0.37239 0.0
C2072 C 0.02447 0.01242 0.43765 0.0
C2073 C 0.01095 0.01911 0.45456 0.0
C2074 C 0.01737 0.00946 0.41281 0.0
C2075 C 0.99624 0.01335 0.40468 0.0
C2076 C 0.98225 0.01946 0.42168 0.0
C2077 C 0.9898 0.02234 0.44639 0.0
C2078 C 0.03279 1.00296 0.39531 0.0
C2079 C 0.95953 0.0236 0.41378 0.0
H2080 H 0.98956 0.05076 0.3388 0.0
H2081 H 0.9591 0.97752 0.32741 0.0
H2082 H 0.99871 0.06203 0.39981 0.0
H2083 H 0.02413 0.05393 0.39379 0.0
H2084 H 0.01199 0.07105 0.37484 0.0
H2085 H 0.96265 0.95477 0.35772 0.0
H2086 H 0.98606 0.96571 0.38152 0.0
H2087 H 0.95933 0.97126 0.38596 0.0
H2088 H 0.04092 0.01012 0.44381 0.0
H2089 H 0.97914 0.02726 0.45934 0.0
H2090 H 0.03777 0.01733 0.38517 0.0
H2091 H 0.02397 0.9872 0.38198 0.0
H2092 H 0.04819 0.99946 0.40449 0.0
H2093 H 0.9616 0.03923 0.40507 0.0
H2094 H 0.94997 0.02634 0.42911 0.0
H2095 H 0.94951 0.00855 0.40025 0.0
C2096 C 0.25076 0.65825 0.61455 0.0
C2097 C 0.26686 0.66327 0.5992 0.0
C2098 C 0.25076 0.67429 0.63552 0.0
C2099 C 0.26698 0.69586 0.64084 0.0
C2100 C 0.28239 0.70144 0.62461 0.0
C2101 C 0.28224 0.68502 0.60413 0.0
C2102 C 0.23424 0.66766 0.65259 0.0
C2103 C 0.29977 0.72435 0.62942 0.0
C2104 C 0.26266 0.7458 0.68927 0.0
C2105 C 0.2781 0.74371 0.70827 0.0
C2106 C 0.2584 0.73003 0.66729 0.0
C2107 C 0.26963 0.71163 0.66445 0.0
C2108 C 0.28501 0.70932 0.6837 0.0
C2109 C 0.28931 0.72557 0.70517 0.0
C2110 C 0.2422 0.73327 0.64699 0.0
C2111 C 0.29721 0.68983 0.68154 0.0
H2112 H 0.23884 0.64144 0.61074 0.0
H2113 H 0.29452 0.68912 0.5921 0.0
H2114 H 0.24331 0.66498 0.66948 0.0
H2115 H 0.22573 0.68195 0.65753 0.0
H2116 H 0.22135 0.6514 0.64477 0.0
H2117 H 0.30892 0.727 0.61381 0.0
H2118 H 0.29179 0.73917 0.63377 0.0
H2119 H 0.31213 0.7248 0.64523 0.0
H2120 H 0.25391 0.75975 0.69156 0.0
H2121 H 0.30135 0.72385 0.71971 0.0
H2122 H 0.22896 0.717 0.64064 0.0
H2123 H 0.25117 0.73694 0.63151 0.0
H2124 H 0.23411 0.74783 0.65241 0.0
H2125 H 0.28507 0.67272 0.67556 0.0
H2126 H 0.30726 0.68942 0.69882 0.0
H2127 H 0.30864 0.692 0.66774 0.0
C2128 C 0.65976 0.06812 0.82072 0.0
C2129 C 0.64876 0.04613 0.80765 0.0
C2130 C 0.65075 0.07853 0.83995 0.0
C2131 C 0.63044 0.06636 0.84624 0.0
C2132 C 0.61937 0.04396 0.83311 0.0
C2133 C 0.6286 0.03419 0.81363 0.0
C2134 C 0.66277 0.10262 0.85331 0.0
C2135 C 0.59789 0.03035 0.83963 0.0
C2136 C 0.62139 0.08404 0.91042 0.0
C2137 C 0.60523 0.09718 0.90776 0.0
C2138 C 0.62914 0.07332 0.89043 0.0
C2139 C 0.62141 0.07676 0.86726 0.0
C2140 C 0.60576 0.09068 0.86437 0.0
C2141 C 0.59761 0.10055 0.8847 0.0
C2142 C 0.64547 0.05813 0.8941 0.0
C2143 C 0.59759 0.09506 0.83985 0.0
H2144 H 0.67499 0.07751 0.81538 0.0
H2145 H 0.62002 0.01734 0.80295 0.0
H2146 H 0.65134 0.11464 0.85287 0.0
H2147 H 0.66781 0.102 0.87249 0.0
H2148 H 0.67798 0.10999 0.84555 0.0
H2149 H 0.59155 0.01308 0.82764 0.0
H2150 H 0.60062 0.02756 0.85851 0.0
H2151 H 0.58476 0.04041 0.83849 0.0
H2152 H 0.62783 0.08183 0.92822 0.0
H2153 H 0.58497 0.11045 0.88247 0.0
H2154 H 0.66167 0.06586 0.88838 0.0
H2155 H 0.63894 0.04057 0.88278 0.0
H2156 H 0.64865 0.05602 0.91318 0.0
H2157 H 0.61203 0.1034 0.83151 0.0
H2158 H 0.58553 0.10647 0.84073 0.0
H2159 H 0.58933 0.07827 0.82779 0.0
C2160 C 0.31801 0.35593 0.12127 0.0
C2161 C 0.30119 0.34921 0.1012 0.0
C2162 C 0.31421 0.34963 0.14366 0.0
C2163 C 0.29327 0.33544 0.14606 0.0
C2164 C 0.27617 0.32845 0.12583 0.0
C2165 C 0.28016 0.33584 0.10377 0.0
C2166 C 0.33274 0.35815 0.16478 0.0
C2167 C 0.25386 0.31269 0.12735 0.0
C2168 C 0.29637 0.29994 0.19632 0.0
C2169 C 0.28737 0.31209 0.21465 0.0
C2170 C 0.29746 0.3068 0.17375 0.0
C2171 C 0.29005 0.32686 0.16935 0.0
C2172 C 0.28113 0.33941 0.18782 0.0
C2173 C 0.27961 0.3317 0.2101 0.0
C2174 C 0.30681 0.2926 0.15466 0.0
C2175 C 0.2736 0.36125 0.18422 0.0
H2176 H 0.33416 0.36669 0.11961 0.0
H2177 H 0.26707 0.33069 0.0884 0.0
H2178 H 0.32641 0.3669 0.18043 0.0
H2179 H 0.33851 0.34313 0.17036 0.0
H2180 H 0.34737 0.37057 0.16049 0.0
H2181 H 0.24222 0.309 0.11021 0.0
H2182 H 0.25644 0.29589 0.13187 0.0
H2183 H 0.24586 0.32075 0.14199 0.0
H2184 H 0.30255 0.28483 0.19954 0.0
H2185 H 0.27242 0.34108 0.22398 0.0
H2186 H 0.32283 0.30311 0.15097 0.0
H2187 H 0.29504 0.28787 0.13757 0.0
H2188 H 0.30994 0.27632 0.16012 0.0
H2189 H 0.28797 0.37454 0.18075 0.0
H2190 H 0.26672 0.36882 0.20011 0.0
H2191 H 0.2606 0.35741 0.1682 0.0
C2192 C 0.2193 0.94982 0.98957 0.0
C2193 C 0.23787 0.96884 0.99646 0.0
C2194 C 0.19788 0.95206 0.99426 0.0
C2195 C 0.19541 0.97345 0.00713 0.0
C2196 C 0.21395 0.993 0.01287 0.0
C2197 C 0.2348 0.99054 0.00696 0.0
C2198 C 0.17829 0.93127 0.98624 0.0
C2199 C 0.21227 0.0162 0.02674 0.0
C2200 C 0.1468 0.99841 0.021 0.0
C2201 C 0.1461 0.99548 0.04516 0.0
C2202 C 0.16026 0.98779 0.00669 0.0
C2203 C 0.17452 0.97534 0.01719 0.0
C2204 C 0.17202 0.96999 0.04038 0.0
C2205 C 0.15723 0.97948 0.05374 0.0
C2206 C 0.16094 0.99205 0.98117 0.0
C2207 C 0.18682 0.95653 0.0522 0.0
H2208 H 0.22157 0.9331 0.98102 0.0
H2209 H 0.24905 0.00538 0.01211 0.0
H2210 H 0.17747 0.91982 0.99997 0.0
H2211 H 0.16214 0.93654 0.98372 0.0
H2212 H 0.18043 0.92078 0.96907 0.0
H2213 H 0.22867 0.02914 0.03096 0.0
H2214 H 0.20042 0.0237 0.01615 0.0
H2215 H 0.20576 0.01376 0.04393 0.0
H2216 H 0.13829 0.01033 0.01348 0.0
H2217 H 0.15576 0.97566 0.07165 0.0
H2218 H 0.16527 0.97736 0.96958 0.0
H2219 H 0.17379 0.00821 0.98108 0.0
H2220 H 0.14454 0.99445 0.97324 0.0
H2221 H 0.18595 0.93971 0.04033 0.0
H2222 H 0.18204 0.9529 0.06985 0.0
H2223 H 0.20451 0.96668 0.05515 0.0
C2224 C 0.69704 0.60163 0.00403 0.0
C2225 C 0.70223 0.62593 0.0052 0.0
C2226 C 0.67582 0.58956 0.00762 0.0
C2227 C 0.65923 0.60203 0.01244 0.0
C2228 C 0.66425 0.62656 0.01359 0.0
C2229 C 0.68573 0.63825 0.00999 0.0
C2230 C 0.67114 0.5634 0.00618 0.0
C2231 C 0.64693 0.64042 0.01864 0.0
C2232 C 0.59852 0.56782 0.9986 0.0
C2233 C 0.59407 0.563 0.02124 0.0
C2234 C 0.61967 0.58045 0.99547 0.0
C2235 C 0.63651 0.58913 0.01568 0.0
C2236 C 0.63191 0.58455 0.03872 0.0
C2237 C 0.61081 0.57113 0.04115 0.0
C2238 C 0.62403 0.58436 0.97052 0.0
C2239 C 0.6492 0.59402 0.0608 0.0
H2240 H 0.70965 0.5919 0.00046 0.0
H2241 H 0.68959 0.65701 0.01097 0.0
H2242 H 0.66631 0.55879 0.02345 0.0
H2243 H 0.65683 0.5547 0.99192 0.0
H2244 H 0.68585 0.55628 0.00222 0.0
H2245 H 0.65362 0.65944 0.01957 0.0
H2246 H 0.63225 0.63433 0.00431 0.0
H2247 H 0.64083 0.63756 0.03593 0.0
H2248 H 0.58544 0.56147 0.98325 0.0
H2249 H 0.60708 0.56772 0.05872 0.0
H2250 H 0.63813 0.57672 0.96541 0.0
H2251 H 0.62902 0.60333 0.97026 0.0
H2252 H 0.60912 0.57643 0.95673 0.0
H2253 H 0.66405 0.58658 0.05886 0.0
H2254 H 0.64259 0.58993 0.07754 0.0
H2255 H 0.65498 0.61325 0.0627 0.0
C2256 C 0.69038 0.49432 0.26952 0.0
C2257 C 0.68699 0.49915 0.29364 0.0
C2258 C 0.7005 0.47614 0.26143 0.0
C2259 C 0.70687 0.4621 0.27772 0.0
C2260 C 0.7041 0.46736 0.30224 0.0
C2261 C 0.69442 0.48596 0.30994 0.0
C2262 C 0.7036 0.47137 0.23523 0.0
C2263 C 0.71029 0.45262 0.32011 0.0
C2264 C 0.7054 0.39965 0.25001 0.0
C2265 C 0.72806 0.40063 0.24795 0.0
C2266 C 0.6984 0.41942 0.26001 0.0
C2267 C 0.71447 0.44071 0.26863 0.0
C2268 C 0.7375 0.44157 0.26785 0.0
C2269 C 0.74402 0.42154 0.25739 0.0
C2270 C 0.67369 0.41766 0.26069 0.0
C2271 C 0.75515 0.46386 0.27727 0.0
H2272 H 0.68482 0.50456 0.25689 0.0
H2273 H 0.69171 0.48944 0.32859 0.0
H2274 H 0.72112 0.47026 0.23362 0.0
H2275 H 0.69252 0.4543 0.22635 0.0
H2276 H 0.69965 0.48509 0.22541 0.0
H2277 H 0.7089 0.4602 0.33888 0.0
H2278 H 0.69903 0.43488 0.31545 0.0
H2279 H 0.72766 0.45059 0.31932 0.0
H2280 H 0.69299 0.38342 0.24337 0.0
H2281 H 0.76154 0.42255 0.25583 0.0
H2282 H 0.66778 0.42932 0.2493 0.0
H2283 H 0.67068 0.42354 0.27933 0.0
H2284 H 0.66345 0.3996 0.25415 0.0
H2285 H 0.75317 0.47702 0.26584 0.0
H2286 H 0.7724 0.46112 0.27741 0.0
H2287 H 0.75308 0.47125 0.29583 0.0
C2288 C 0.87267 0.48701 0.48629 0.0
C2289 C 0.86357 0.495 0.5066 0.0
C2290 C 0.89583 0.49341 0.48576 0.0
C2291 C 0.90992 0.5078 0.5062 0.0
C2292 C 0.90053 0.51676 0.52628 0.0
C2293 C 0.87736 0.51014 0.52624 0.0
C2294 C 0.90531 0.48367 0.464 0.0
C2295 C 0.91506 0.53209 0.54841 0.0
C2296 C 0.97018 0.50314 0.51839 0.0
C2297 C 0.98165 0.52372 0.51191 0.0
C2298 C 0.94673 0.49762 0.5165 0.0
C2299 C 0.93456 0.51272 0.50718 0.0
C2300 C 0.946 0.53309 0.49983 0.0
C2301 C 0.96939 0.53851 0.5026 0.0
C2302 C 0.93501 0.47583 0.52479 0.0
C2303 C 0.93355 0.54931 0.48931 0.0
H2304 H 0.86187 0.47468 0.47148 0.0
H2305 H 0.87015 0.51565 0.54217 0.0
H2306 H 0.91721 0.49777 0.45804 0.0
H2307 H 0.91478 0.47078 0.4688 0.0
H2308 H 0.89198 0.47489 0.44869 0.0
H2309 H 0.905 0.53862 0.5619 0.0
H2310 H 0.92588 0.52207 0.55698 0.0
H2311 H 0.92628 0.54728 0.54336 0.0
H2312 H 0.97947 0.49138 0.52496 0.0
H2313 H 0.97803 0.55439 0.49725 0.0
H2314 H 0.92293 0.46423 0.50975 0.0
H2315 H 0.92529 0.48056 0.53942 0.0
H2316 H 0.94695 0.46594 0.53154 0.0
H2317 H 0.92062 0.53938 0.47411 0.0
H2318 H 0.9449 0.56344 0.48271 0.0
H2319 H 0.92475 0.55741 0.50316 0.0
C2320 C 0.31941 0.07754 0.31033 0.0
C2321 C 0.33993 0.07994 0.32445 0.0
C2322 C 0.31475 0.09647 0.30058 0.0
C2323 C 0.33159 0.11746 0.30411 0.0
C2324 C 0.35158 0.12041 0.32 0.0
C2325 C 0.35527 0.10161 0.33045 0.0
C2326 C 0.29268 0.09337 0.28487 0.0
C2327 C 0.37017 0.14227 0.32366 0.0
C2328 C 0.33351 0.14899 0.2511 0.0
C2329 C 0.3245 0.16776 0.25948 0.0
C2330 C 0.33632 0.13263 0.26577 0.0
C2331 C 0.32956 0.13511 0.28901 0.0
C2332 C 0.32109 0.15443 0.29776 0.0
C2333 C 0.31922 0.17087 0.28309 0.0
C2334 C 0.34596 0.1124 0.25619 0.0
C2335 C 0.31353 0.15755 0.32233 0.0
H2336 H 0.30779 0.06056 0.30559 0.0
H2337 H 0.37134 0.10304 0.34106 0.0
H2338 H 0.28582 0.10907 0.28882 0.0
H2339 H 0.29526 0.09113 0.26566 0.0
H2340 H 0.28012 0.07784 0.28745 0.0
H2341 H 0.38354 0.14269 0.33853 0.0
H2342 H 0.37781 0.14311 0.30683 0.0
H2343 H 0.36356 0.1581 0.32762 0.0
H2344 H 0.33758 0.14667 0.23288 0.0
H2345 H 0.31281 0.18583 0.2898 0.0
H2346 H 0.33315 0.09577 0.25424 0.0
H2347 H 0.36038 0.11141 0.26907 0.0
H2348 H 0.35164 0.11385 0.2384 0.0
H2349 H 0.30366 0.14078 0.32582 0.0
H2350 H 0.30314 0.17062 0.3242 0.0
H2351 H 0.32838 0.16358 0.33643 0.0
C2352 C 0.31861 0.11812 0.52249 0.0
C2353 C 0.32169 0.14232 0.52393 0.0
C2354 C 0.33687 0.10814 0.52734 0.0
C2355 C 0.35862 0.12279 0.53447 0.0
C2356 C 0.36175 0.14728 0.5362 0.0
C2357 C 0.34328 0.15672 0.53058 0.0
C2358 C 0.33289 0.08194 0.52474 0.0
C2359 C 0.3846 0.16355 0.54422 0.0
C2360 C 0.4026 0.10266 0.57232 0.0
C2361 C 0.41658 0.09713 0.55548 0.0
C2362 C 0.38328 0.11023 0.5655 0.0
C2363 C 0.37797 0.11268 0.54128 0.0
C2364 C 0.3917 0.10644 0.52401 0.0
C2365 C 0.41084 0.09858 0.53131 0.0
C2366 C 0.36895 0.11636 0.58441 0.0
C2367 C 0.38663 0.10887 0.49804 0.0
H2368 H 0.30196 0.10691 0.51695 0.0
H2369 H 0.34569 0.17542 0.53176 0.0
H2370 H 0.34352 0.07534 0.51199 0.0
H2371 H 0.33774 0.07715 0.54235 0.0
H2372 H 0.31509 0.07295 0.51814 0.0
H2373 H 0.38423 0.18214 0.54451 0.0
H2374 H 0.39117 0.16157 0.56256 0.0
H2375 H 0.39652 0.15895 0.532 0.0
H2376 H 0.40707 0.10144 0.591 0.0
H2377 H 0.42179 0.09447 0.51835 0.0
H2378 H 0.35127 0.10663 0.57861 0.0
H2379 H 0.36925 0.13525 0.58667 0.0
H2380 H 0.37474 0.11234 0.60215 0.0
H2381 H 0.36906 0.09969 0.4907 0.0
H2382 H 0.39799 0.10177 0.48654 0.0
H2383 H 0.38839 0.12757 0.49685 0.0
C2384 C 0.68602 0.61255 0.28343 0.0
C2385 C 0.68477 0.60943 0.30733 0.0
C2386 C 0.69941 0.63293 0.27811 0.0
C2387 C 0.71151 0.65087 0.29715 0.0
C2388 C 0.71005 0.64796 0.32131 0.0
C2389 C 0.69691 0.6272 0.3261 0.0
C2390 C 0.70067 0.63525 0.25212 0.0
C2391 C 0.72231 0.66685 0.34214 0.0
C2392 C 0.7609 0.6964 0.28496 0.0
C2393 C 0.75148 0.71561 0.28332 0.0
C2394 C 0.74818 0.67525 0.28947 0.0
C2395 C 0.72521 0.67296 0.29185 0.0
C2396 C 0.71536 0.69198 0.28955 0.0
C2397 C 0.72856 0.71299 0.28553 0.0
C2398 C 0.75939 0.65543 0.29197 0.0
C2399 C 0.69087 0.69027 0.29166 0.0
H2400 H 0.67687 0.59881 0.26881 0.0
H2401 H 0.69594 0.625 0.34462 0.0
H2402 H 0.69455 0.65068 0.24826 0.0
H2403 H 0.71834 0.63811 0.24866 0.0
H2404 H 0.69061 0.61955 0.23941 0.0
H2405 H 0.71947 0.66188 0.35987 0.0
H2406 H 0.74057 0.67072 0.34117 0.0
H2407 H 0.7167 0.68318 0.34104 0.0
H2408 H 0.7782 0.69774 0.28289 0.0
H2409 H 0.72074 0.72746 0.28428 0.0
H2410 H 0.75071 0.63977 0.27843 0.0
H2411 H 0.75813 0.65065 0.31002 0.0
H2412 H 0.77738 0.65994 0.28961 0.0
H2413 H 0.68032 0.67537 0.27834 0.0
H2414 H 0.68557 0.70641 0.28871 0.0
H2415 H 0.68752 0.68692 0.30982 0.0
C2416 C 0.8361 0.45578 0.77988 0.0
C2417 C 0.85188 0.46361 0.80063 0.0
C2418 C 0.82685 0.43179 0.77208 0.0
C2419 C 0.83395 0.41566 0.78525 0.0
C2420 C 0.85106 0.42364 0.80525 0.0
C2421 C 0.85963 0.44761 0.81289 0.0
C2422 C 0.8088 0.42375 0.75053 0.0
C2423 C 0.8595 0.40693 0.81935 0.0
C2424 C 0.79431 0.35964 0.79073 0.0
C2425 C 0.80364 0.3429 0.77793 0.0
C2426 C 0.80353 0.38348 0.79245 0.0
C2427 C 0.8219 0.39079 0.78016 0.0
C2428 C 0.83028 0.37405 0.76568 0.0
C2429 C 0.82144 0.35026 0.76532 0.0
C2430 C 0.79453 0.40076 0.80871 0.0
C2431 C 0.84937 0.3811 0.75164 0.0
H2432 H 0.83033 0.46839 0.77047 0.0
H2433 H 0.87214 0.45395 0.82875 0.0
H2434 H 0.81255 0.40938 0.73793 0.0
H2435 H 0.79252 0.41678 0.75653 0.0
H2436 H 0.80699 0.43815 0.7407 0.0
H2437 H 0.87398 0.41593 0.83334 0.0
H2438 H 0.84584 0.39792 0.8283 0.0
H2439 H 0.86468 0.39335 0.80706 0.0
H2440 H 0.78049 0.35423 0.80049 0.0
H2441 H 0.8289 0.33754 0.75567 0.0
H2442 H 0.79047 0.41442 0.79894 0.0
H2443 H 0.80753 0.40963 0.82427 0.0
H2444 H 0.77927 0.39228 0.81577 0.0
H2445 H 0.84887 0.39758 0.74498 0.0
H2446 H 0.84899 0.36728 0.736 0.0
H2447 H 0.86551 0.38388 0.7635 0.0
C2448 C 0.03631 0.87239 0.07149 0.0
C2449 C 0.05581 0.8635 0.07237 0.0
C2450 C 0.03569 0.89427 0.06486 0.0
C2451 C 0.05493 0.90826 0.05815 0.0
C2452 C 0.07476 0.89948 0.05874 0.0
C2453 C 0.07509 0.87757 0.06614 0.0
C2454 C 0.01423 0.90255 0.06531 0.0
C2455 C 0.09565 0.9132 0.05129 0.0
C2456 C 0.04356 0.95527 0.02074 0.0
C2457 C 0.04753 0.97576 0.03817 0.0
C2458 C 0.04636 0.93359 0.02675 0.0
C2459 C 0.05397 0.93194 0.05086 0.0
C2460 C 0.05891 0.95283 0.06836 0.0
C2461 C 0.05562 0.97416 0.06191 0.0
C2462 C 0.0406 0.91223 0.0072 0.0
C2463 C 0.06715 0.95257 0.09426 0.0
H2464 H 0.02125 0.8623 0.07656 0.0
H2465 H 0.09034 0.87133 0.06663 0.0
H2466 H 0.01738 0.91964 0.07758 0.0
H2467 H 0.00812 0.9052 0.04708 0.0
H2468 H 1.00078 0.89003 0.07136 0.0
H2469 H 0.10959 0.90415 0.0522 0.0
H2470 H 0.09199 0.91617 0.0326 0.0
H2471 H 0.10121 0.93062 0.06307 0.0
H2472 H 0.03833 0.95614 0.00221 0.0
H2473 H 0.05908 0.98963 0.07576 0.0
H2474 H 0.02519 0.90015 0.01028 0.0
H2475 H 0.05423 0.90277 0.00767 0.0
H2476 H 0.03765 0.91664 0.98898 0.0
H2477 H 0.05386 0.94155 0.10207 0.0
H2478 H 0.07186 0.97035 0.10542 0.0
H2479 H 0.08191 0.94476 0.09534 0.0
C2480 C 0.94266 0.2871 0.87708 0.0
C2481 C 0.94266 0.27345 0.89525 0.0
C2482 C 0.92262 0.28789 0.86318 0.0
C2483 C 0.90179 0.27469 0.86735 0.0
C2484 C 0.90158 0.26137 0.88611 0.0
C2485 C 0.92194 0.26091 0.89981 0.0
C2486 C 0.92384 0.30244 0.84355 0.0
C2487 C 0.87985 0.24708 0.89131 0.0
C2488 C 0.84844 0.29118 0.84177 0.0
C2489 C 0.84151 0.27507 0.82014 0.0
C2490 C 0.86769 0.29101 0.85749 0.0
C2491 C 0.88045 0.27432 0.85151 0.0
C2492 C 0.87329 0.25783 0.82975 0.0
C2493 C 0.85398 0.25842 0.81441 0.0
C2494 C 0.87463 0.30906 0.88026 0.0
C2495 C 0.88616 0.23965 0.82252 0.0
H2496 H 0.95847 0.2969 0.8733 0.0
H2497 H 0.92165 0.25024 0.91368 0.0
H2498 H 0.91761 0.29098 0.82575 0.0
H2499 H 0.9129 0.31489 0.84607 0.0
H2500 H 0.94118 0.31246 0.84318 0.0
H2501 H 0.88229 0.23852 0.90715 0.0
H2502 H 0.86789 0.2583 0.89466 0.0
H2503 H 0.87201 0.23338 0.8754 0.0
H2504 H 0.83916 0.30439 0.84608 0.0
H2505 H 0.84849 0.24566 0.79796 0.0
H2506 H 0.89117 0.3206 0.87954 0.0
H2507 H 0.87653 0.30043 0.89611 0.0
H2508 H 0.86233 0.32003 0.883 0.0
H2509 H 0.90347 0.2483 0.82035 0.0
H2510 H 0.87816 0.22774 0.80537 0.0
H2511 H 0.88748 0.22908 0.83688 0.0
C2512 C 0.53042 0.2131 0.55452 0.0
C2513 C 0.54815 0.22874 0.57055 0.0
C2514 C 0.52997 0.18904 0.54792 0.0
C2515 C 0.54769 0.17976 0.55734 0.0
C2516 C 0.566 0.19552 0.57293 0.0
C2517 C 0.56601 0.21957 0.57932 0.0
C2518 C 0.50999 0.17331 0.5314 0.0
C2519 C 0.58525 0.18677 0.58374 0.0
C2520 C 0.53237 0.11408 0.56118 0.0
C2521 C 0.54031 0.10336 0.54103 0.0
C2522 C 0.53534 0.13864 0.56703 0.0
C2523 C 0.54617 0.15345 0.5522 0.0
C2524 C 0.55461 0.14279 0.53202 0.0
C2525 C 0.55171 0.11811 0.5268 0.0
C2526 C 0.5263 0.14858 0.589 0.0
C2527 C 0.56638 0.15743 0.51557 0.0
H2528 H 0.51638 0.21953 0.54751 0.0
H2529 H 0.5798 0.23107 0.59181 0.0
H2530 H 0.51559 0.16323 0.51605 0.0
H2531 H 0.50074 0.16054 0.54134 0.0
H2532 H 0.49827 0.18321 0.52419 0.0
H2533 H 0.59901 0.20122 0.59402 0.0
H2534 H 0.57917 0.17475 0.59606 0.0
H2535 H 0.59207 0.1767 0.56939 0.0
H2536 H 0.5239 0.10321 0.57268 0.0
H2537 H 0.55785 0.11033 0.51109 0.0
H2538 H 0.50981 0.15214 0.58332 0.0
H2539 H 0.5376 0.16525 0.5986 0.0
H2540 H 0.52399 0.13623 0.60186 0.0
H2541 H 0.55451 0.16615 0.50662 0.0
H2542 H 0.57312 0.14689 0.50148 0.0
H2543 H 0.58039 0.17136 0.52616 0.0
C2544 C 0.58063 0.7817 0.40578 0.0
C2545 C 0.55986 0.77514 0.39088 0.0
C2546 C 0.60081 0.78785 0.39609 0.0
C2547 C 0.60017 0.78779 0.371 0.0
C2548 C 0.57925 0.78109 0.35596 0.0
C2549 C 0.55947 0.77474 0.36603 0.0
C2550 C 0.6228 0.79454 0.41268 0.0
C2551 C 0.57767 0.78095 0.32917 0.0
C2552 C 0.64585 0.82545 0.34427 0.0
C2553 C 0.65619 0.80881 0.33287 0.0
C2554 C 0.62839 0.81905 0.3578 0.0
C2555 C 0.62109 0.79541 0.36023 0.0
C2556 C 0.63226 0.77873 0.3499 0.0
C2557 C 0.64958 0.78559 0.33628 0.0
C2558 C 0.61701 0.83744 0.36849 0.0
C2559 C 0.62519 0.75338 0.35222 0.0
H2560 H 0.58112 0.78195 0.42498 0.0
H2561 H 0.54356 0.76978 0.3543 0.0
H2562 H 0.6343 0.78383 0.40599 0.0
H2563 H 0.63103 0.81306 0.4129 0.0
H2564 H 0.6206 0.79222 0.43143 0.0
H2565 H 0.56012 0.77512 0.31993 0.0
H2566 H 0.58485 0.79874 0.32584 0.0
H2567 H 0.5876 0.7692 0.32089 0.0
H2568 H 0.65114 0.84353 0.34226 0.0
H2569 H 0.65731 0.77252 0.3275 0.0
H2570 H 0.61607 0.83691 0.38782 0.0
H2571 H 0.59957 0.83383 0.35921 0.0
H2572 H 0.62584 0.85531 0.36676 0.0
H2573 H 0.62339 0.75179 0.3712 0.0
H2574 H 0.63734 0.74327 0.34602 0.0
H2575 H 0.6086 0.74539 0.34126 0.0
C2576 C 0.06025 0.2508 0.40529 0.0
C2577 C 0.03876 0.25248 0.39612 0.0
C2578 C 0.06304 0.23364 0.41942 0.0
C2579 C 0.04393 0.21779 0.42428 0.0
C2580 C 0.02237 0.2189 0.41408 0.0
C2581 C 0.02012 0.23605 0.40028 0.0
C2582 C 0.08633 0.23291 0.42975 0.0
C2583 C 1.00139 0.20245 0.41842 0.0
C2584 C 0.03771 0.1602 0.44675 0.0
C2585 C 0.03256 0.16666 0.46995 0.0
C2586 C 0.04434 0.17717 0.43237 0.0
C2587 C 0.04558 0.20106 0.44134 0.0
C2588 C 0.04283 0.20774 0.46572 0.0
C2589 C 0.03636 0.19049 0.47967 0.0
C2590 C 0.04755 0.16921 0.40671 0.0
C2591 C 0.04391 0.23283 0.47626 0.0
H2592 H 0.07476 0.26328 0.40211 0.0
H2593 H 1.0034 0.23671 0.39287 0.0
H2594 H 0.08889 0.239 0.44952 0.0
H2595 H 0.08849 0.21475 0.42656 0.0
H2596 H 0.09944 0.24416 0.42188 0.0
H2597 H 0.98593 0.20512 0.40852 0.0
H2598 H 1.00227 0.18406 0.41274 0.0
H2599 H 0.99993 0.20502 0.43793 0.0
H2600 H 0.03467 0.14182 0.43908 0.0
H2601 H 0.03235 0.19554 0.49759 0.0
H2602 H 0.06125 0.18181 0.40117 0.0
H2603 H 0.03193 0.16813 0.39457 0.0
H2604 H 0.05137 0.15169 0.40422 0.0
H2605 H 0.05822 0.24476 0.47088 0.0
H2606 H 0.0455 0.23575 0.49625 0.0
H2607 H 0.02833 0.23754 0.46928 0.0
C2608 C 0.61115 0.27314 0.22238 0.0
C2609 C 0.59788 0.26535 0.23968 0.0
C2610 C 0.63496 0.27643 0.22594 0.0
C2611 C 0.64625 0.27232 0.24754 0.0
C2612 C 0.63293 0.26499 0.2652 0.0
C2613 C 0.60927 0.26143 0.26101 0.0
C2614 C 0.64802 0.28378 0.20623 0.0
C2615 C 0.64371 0.26081 0.28875 0.0
C2616 C 0.70525 0.2588 0.25182 0.0
C2617 C 0.71975 0.28059 0.26181 0.0
C2618 C 0.6817 0.25605 0.24641 0.0
C2619 C 0.67179 0.27538 0.25175 0.0
C2620 C 0.68639 0.2974 0.26212 0.0
C2621 C 0.70997 0.29979 0.26653 0.0
C2622 C 0.66741 0.23234 0.2347 0.0
C2623 C 0.67707 0.31848 0.26908 0.0
H2624 H 0.60288 0.2761 0.20573 0.0
H2625 H 0.59957 0.2555 0.27471 0.0
H2626 H 0.66068 0.30038 0.2132 0.0
H2627 H 0.65725 0.27041 0.20013 0.0
H2628 H 0.63706 0.2862 0.19048 0.0
H2629 H 0.63135 0.25637 0.30124 0.0
H2630 H 0.65225 0.2463 0.28536 0.0
H2631 H 0.65667 0.27659 0.29777 0.0
H2632 H 0.71241 0.24389 0.24756 0.0
H2633 H 0.7208 0.31675 0.27426 0.0
H2634 H 0.65725 0.23372 0.2179 0.0
H2635 H 0.65557 0.22567 0.24687 0.0
H2636 H 0.6776 0.21941 0.23028 0.0
H2637 H 0.6677 0.32231 0.25301 0.0
H2638 H 0.69039 0.33426 0.27735 0.0
H2639 H 0.66505 0.31484 0.28209 0.0
C2640 C 0.54654 0.89093 0.89171 0.0
C2641 C 0.54328 0.87052 0.90168 0.0
C2642 C 0.54841 0.91299 0.90618 0.0
C2643 C 0.54747 0.91477 0.93132 0.0
C2644 C 0.5457 0.89433 0.94161 0.0
C2645 C 0.54329 0.87253 0.92668 0.0
C2646 C 0.54988 0.93416 0.89431 0.0
C2647 C 0.54523 0.89528 0.96831 0.0
C2648 C 0.56432 0.97464 0.97313 0.0
C2649 C 0.5434 0.97875 0.97735 0.0
C2650 C 0.56599 0.954 0.95822 0.0
C2651 C 0.54626 0.93741 0.94653 0.0
C2652 C 0.5251 0.94198 0.95025 0.0
C2653 C 0.52394 0.96231 0.96589 0.0
C2654 C 0.58887 0.9496 0.95557 0.0
C2655 C 0.50358 0.92524 0.93784 0.0
H2656 H 0.54607 0.88948 0.87237 0.0
H2657 H 0.5406 0.85681 0.93449 0.0
H2658 H 0.5342 0.94032 0.89525 0.0
H2659 H 0.56387 0.94865 0.90396 0.0
H2660 H 0.55234 0.93038 0.87511 0.0
H2661 H 0.5463 0.87843 0.9739 0.0
H2662 H 0.55933 0.90923 0.97873 0.0
H2663 H 0.52946 0.89959 0.97317 0.0
H2664 H 0.57939 0.98725 0.98213 0.0
H2665 H 0.50774 0.96553 0.96899 0.0
H2666 H 0.59101 0.94643 0.93627 0.0
H2667 H 0.5905 0.93366 0.96279 0.0
H2668 H 0.60258 0.96444 0.96524 0.0
H2669 H 0.50395 0.92155 0.91813 0.0
H2670 H 0.4886 0.93216 0.9411 0.0
H2671 H 0.50179 0.90841 0.94438 0.0
C2672 C 0.93649 0.75416 0.71262 0.0
C2673 C 0.95631 0.76311 0.72912 0.0
C2674 C 0.91502 0.75584 0.7188 0.0
C2675 C 0.91266 0.76615 0.74245 0.0
C2676 C 0.93259 0.77503 0.75928 0.0
C2677 C 0.95394 0.77362 0.75243 0.0
C2678 C 0.89477 0.74656 0.69981 0.0
C2679 C 0.93138 0.78595 0.78475 0.0
C2680 C 0.86103 0.79179 0.75271 0.0
C2681 C 0.84645 0.77445 0.76174 0.0
C2682 C 0.88216 0.78928 0.74646 0.0
C2683 C 0.88965 0.76876 0.74912 0.0
C2684 C 0.87495 0.75094 0.75794 0.0
C2685 C 0.85367 0.75391 0.76398 0.0
C2686 C 0.89655 0.80883 0.73698 0.0
C2687 C 0.88178 0.7287 0.76122 0.0
H2688 H 0.93768 0.7459 0.69461 0.0
H2689 H 0.96882 0.78044 0.76561 0.0
H2690 H 0.8836 0.73144 0.70499 0.0
H2691 H 0.88508 0.7601 0.69844 0.0
H2692 H 0.89937 0.74089 0.6818 0.0
H2693 H 0.94803 0.791 0.79613 0.0
H2694 H 0.92461 0.80174 0.7847 0.0
H2695 H 0.91973 0.77356 0.79308 0.0
H2696 H 0.85583 0.80759 0.75023 0.0
H2697 H 0.84284 0.74021 0.77077 0.0
H2698 H 0.90192 0.80195 0.7198 0.0
H2699 H 0.9119 0.81686 0.75006 0.0
H2700 H 0.88768 0.8227 0.73385 0.0
H2701 H 0.88368 0.71909 0.74351 0.0
H2702 H 0.86933 0.71708 0.76951 0.0
H2703 H 0.89828 0.73281 0.77274 0.0
C2704 C 0.1023 0.03018 0.86137 0.0
C2705 C 0.10877 0.05202 0.85461 0.0
C2706 C 0.09294 0.02787 0.8826 0.0
C2707 C 0.09073 0.04806 0.89794 0.0
C2708 C 0.09751 0.0703 0.89132 0.0
C2709 C 0.10613 0.07198 0.86941 0.0
C2710 C 0.08516 1.00377 0.88842 0.0
C2711 C 0.09584 0.09224 0.90749 0.0
C2712 C 0.04793 0.03898 0.94123 0.0
C2713 C 0.06122 0.03801 0.96255 0.0
C2714 C 0.05737 0.04259 0.92026 0.0
C2715 C 0.08076 0.04559 0.92054 0.0
C2716 C 0.09433 0.04472 0.94196 0.0
C2717 C 0.08438 0.0407 0.96264 0.0
C2718 C 0.04219 0.04281 0.89766 0.0
C2719 C 0.11937 0.04795 0.943 0.0
H2720 H 0.10422 0.01474 0.84971 0.0
H2721 H 0.11129 0.08886 0.86414 0.0
H2722 H 0.09446 1.00251 0.90578 0.0
H2723 H 0.06712 1.00046 0.89051 0.0
H2724 H 0.08755 0.98983 0.87424 0.0
H2725 H 0.10262 0.10822 0.90024 0.0
H2726 H 0.07809 0.09157 0.90977 0.0
H2727 H 0.10516 0.09355 0.92565 0.0
H2728 H 0.03001 0.03689 0.9408 0.0
H2729 H 0.0948 0.03988 0.97892 0.0
H2730 H 0.04348 0.02862 0.88314 0.0
H2731 H 0.04751 0.05953 0.89121 0.0
H2732 H 0.02436 0.04048 0.90052 0.0
H2733 H 0.12315 0.0336 0.93042 0.0
H2734 H 0.12773 0.04818 0.96138 0.0
H2735 H 0.1267 0.06455 0.93715 0.0
C2736 C 0.78667 0.39243 0.56414 0.0
C2737 C 0.80436 0.39213 0.5505 0.0
C2738 C 0.78449 0.37958 0.5829 0.0
C2739 C 0.80063 0.36677 0.58813 0.0
C2740 C 0.81631 0.36371 0.5721 0.0
C2741 C 0.81782 0.37629 0.55328 0.0
C2742 C 0.76649 0.38181 0.59858 0.0
C2743 C 0.83353 0.34969 0.57665 0.0
C2744 C 0.8305 0.37233 0.65032 0.0
C2745 C 0.82541 0.34911 0.65358 0.0
C2746 C 0.82057 0.37885 0.62999 0.0
C2747 C 0.80515 0.36164 0.61259 0.0
C2748 C 0.79816 0.33869 0.61708 0.0
C2749 C 0.80859 0.33259 0.63749 0.0
C2750 C 0.82808 0.40374 0.62618 0.0
C2751 C 0.78101 0.32013 0.59959 0.0
H2752 H 0.77574 0.40412 0.5616 0.0
H2753 H 0.83096 0.3753 0.54212 0.0
H2754 H 0.76141 0.36598 0.60667 0.0
H2755 H 0.77293 0.39698 0.61343 0.0
H2756 H 0.7515 0.38485 0.58811 0.0
H2757 H 0.84305 0.34725 0.56124 0.0
H2758 H 0.84562 0.35883 0.59288 0.0
H2759 H 0.82538 0.33227 0.58011 0.0
H2760 H 0.84292 0.38523 0.66324 0.0
H2761 H 0.80439 0.3146 0.64012 0.0
H2762 H 0.81336 0.41102 0.62193 0.0
H2763 H 0.83767 0.40416 0.61066 0.0
H2764 H 0.83888 0.41524 0.64225 0.0
H2765 H 0.76881 0.32771 0.58957 0.0
H2766 H 0.77174 0.30691 0.60908 0.0
H2767 H 0.78963 0.31095 0.58633 0.0
C2768 C 0.4507 0.02451 0.35512 0.0
C2769 C 0.42782 0.02163 0.35675 0.0
C2770 C 0.46574 0.02431 0.37515 0.0
C2771 C 0.45738 0.02062 0.39686 0.0
C2772 C 0.43408 0.01555 0.3979 0.0
C2773 C 0.41949 0.01636 0.37775 0.0
C2774 C 0.49057 0.02987 0.37364 0.0
C2775 C 0.4247 0.01077 0.42071 0.0
C2776 C 0.49425 0.00891 0.44811 0.0
C2777 C 0.49911 0.03055 0.46363 0.0
C2778 C 0.48094 0.00546 0.42593 0.0
C2779 C 0.47298 0.02433 0.41911 0.0
C2780 C 0.47877 0.04655 0.43426 0.0
C2781 C 0.49157 0.0493 0.45671 0.0
C2782 C 0.47449 0.98141 0.41048 0.0
C2783 C 0.47089 0.06715 0.42705 0.0
H2784 H 0.45704 0.02857 0.33874 0.0
H2785 H 0.4017 0.01359 0.37869 0.0
H2786 H 0.49848 0.0475 0.38427 0.0
H2787 H 0.49868 0.01728 0.38149 0.0
H2788 H 0.49408 0.02962 0.35479 0.0
H2789 H 0.40618 1.00426 0.41757 0.0
H2790 H 0.43223 0.99773 0.42846 0.0
H2791 H 0.42899 0.02707 0.43434 0.0
H2792 H 0.49996 0.99435 0.45382 0.0
H2793 H 0.49561 0.06597 0.46889 0.0
H2794 H 0.47753 0.98235 0.39169 0.0
H2795 H 0.45631 0.97396 0.40996 0.0
H2796 H 0.48387 0.96927 0.41745 0.0
H2797 H 0.47503 0.06953 0.40887 0.0
H2798 H 0.47856 0.08362 0.43996 0.0
H2799 H 0.45241 0.06387 0.42615 0.0
C2800 C 0.80104 0.74137 0.09512 0.0
C2801 C 0.78388 0.72432 0.07992 0.0
C2802 C 0.79915 0.74903 0.11941 0.0
C2803 C 0.77958 0.73958 0.12903 0.0
C2804 C 0.76184 0.72302 0.11362 0.0
C2805 C 0.7642 0.71558 0.08936 0.0
C2806 C 0.8185 0.76672 0.13504 0.0
C2807 C 0.74062 0.71255 0.12299 0.0
C2808 C 0.78643 0.73991 0.19689 0.0
C2809 C 0.77832 0.75932 0.20593 0.0
C2810 C 0.78653 0.73313 0.172 0.0
C2811 C 0.77835 0.74601 0.15549 0.0
C2812 C 0.76985 0.76545 0.16445 0.0
C2813 C 0.77001 0.77189 0.18948 0.0
C2814 C 0.79572 0.71229 0.16342 0.0
C2815 C 0.76093 0.77972 0.14764 0.0
H2816 H 0.81635 0.74835 0.08823 0.0
H2817 H 0.75079 0.70244 0.07795 0.0
H2818 H 0.81259 0.78171 0.14398 0.0
H2819 H 0.82568 0.75867 0.14945 0.0
H2820 H 0.83203 0.77339 0.12461 0.0
H2821 H 0.72773 0.70125 0.10843 0.0
H2822 H 0.74448 0.70194 0.13663 0.0
H2823 H 0.73348 0.72656 0.13206 0.0
H2824 H 0.7929 0.73 0.2093 0.0
H2825 H 0.76388 0.78703 0.19613 0.0
H2826 H 0.81052 0.71783 0.15427 0.0
H2827 H 0.78297 0.6993 0.15005 0.0
H2828 H 0.8008 0.70365 0.17841 0.0
H2829 H 0.77469 0.78842 0.13862 0.0
H2830 H 0.75352 0.79329 0.15721 0.0
H2831 H 0.74796 0.76822 0.13332 0.0
C2832 C 0.10458 0.05679 0.70696 0.0
C2833 C 0.09571 0.03697 0.71658 0.0
C2834 C 0.0966 0.05898 0.68346 0.0
C2835 C 0.07968 0.04072 0.66906 0.0
C2836 C 0.07059 0.02075 0.67875 0.0
C2837 C 0.07856 0.01923 0.70241 0.0
C2838 C 0.10649 0.08069 0.67391 0.0
C2839 C 0.05286 1.00067 0.66387 0.0
C2840 C 0.04564 0.04802 0.61187 0.0
C2841 C 0.05707 0.0389 0.59396 0.0
C2842 C 0.05337 0.0498 0.63647 0.0
C2843 C 0.07256 0.04154 0.64331 0.0
C2844 C 0.08435 0.03272 0.62533 0.0
C2845 C 0.07669 0.03187 0.601 0.0
C2846 C 0.04081 0.06014 0.65511 0.0
C2847 C 0.10469 0.02343 0.63172 0.0
H2848 H 0.11768 0.07068 0.71785 0.0
H2849 H 0.07161 1.00384 0.70966 0.0
H2850 H 0.11573 0.07613 0.65881 0.0
H2851 H 0.09294 0.08841 0.6667 0.0
H2852 H 0.11818 0.09408 0.68797 0.0
H2853 H 0.04703 0.9867 0.67427 0.0
H2854 H 0.0382 0.00699 0.65703 0.0
H2855 H 0.05962 0.99297 0.64796 0.0
H2856 H 0.03043 0.05339 0.60673 0.0
H2857 H 0.08601 0.02535 0.58743 0.0
H2858 H 0.05248 0.07455 0.66809 0.0
H2859 H 0.03358 0.0467 0.66549 0.0
H2860 H 0.02703 0.06702 0.64691 0.0
H2861 H 0.1173 0.03665 0.64499 0.0
H2862 H 0.11273 0.01842 0.61571 0.0
H2863 H 0.09972 0.00788 0.64025 0.0
C2864 C 0.82475 0.39785 0.43182 0.0
C2865 C 0.81019 0.40806 0.4449 0.0
C2866 C 0.81682 0.38286 0.40969 0.0
C2867 C 0.79375 0.37788 0.4005 0.0
C2868 C 0.77896 0.38817 0.41349 0.0
C2869 C 0.78738 0.40328 0.43551 0.0
C2870 C 0.8331 0.37212 0.39627 0.0
C2871 C 0.75419 0.38281 0.40442 0.0
C2872 C 0.78221 0.35436 0.33371 0.0
C2873 C 0.78 0.33038 0.33359 0.0
C2874 C 0.78553 0.37017 0.35545 0.0
C2875 C 0.78535 0.3616 0.37736 0.0
C2876 C 0.77978 0.33728 0.37702 0.0
C2877 C 0.77716 0.32202 0.35507 0.0
C2878 C 0.79127 0.39603 0.35505 0.0
C2879 C 0.77835 0.3273 0.3999 0.0
H2880 H 0.84237 0.40143 0.43895 0.0
H2881 H 0.77596 0.41092 0.44561 0.0
H2882 H 0.8283 0.35284 0.39451 0.0
H2883 H 0.83246 0.37618 0.37778 0.0
H2884 H 0.85063 0.37844 0.40549 0.0
H2885 H 0.74497 0.39246 0.41661 0.0
H2886 H 0.7515 0.38736 0.38627 0.0
H2887 H 0.74687 0.36382 0.40262 0.0
H2888 H 0.78312 0.36108 0.31703 0.0
H2889 H 0.77339 0.3036 0.35488 0.0
H2890 H 0.80935 0.40329 0.36179 0.0
H2891 H 0.78171 0.40527 0.36711 0.0
H2892 H 0.78785 0.3998 0.33662 0.0
H2893 H 0.79553 0.32836 0.40871 0.0
H2894 H 0.76902 0.3087 0.39625 0.0
H2895 H 0.77008 0.33736 0.41279 0.0
C2896 C 0.41363 0.03556 0.22826 0.0
C2897 C 0.40061 0.01529 0.234 0.0
C2898 C 0.42793 0.03403 0.21074 0.0
C2899 C 0.42889 0.01175 0.19872 0.0
C2900 C 0.41453 0.99138 0.20321 0.0
C2901 C 0.40053 0.99342 0.22086 0.0
C2902 C 0.44301 0.05607 0.20625 0.0
C2903 C 0.41496 0.96732 0.1905 0.0
C2904 C 0.45392 1.00062 0.14165 0.0
C2905 C 0.47454 0.99642 0.15039 0.0
C2906 C 0.4396 0.00747 0.15737 0.0
C2907 C 0.44567 0.00932 0.18237 0.0
C2908 C 0.46676 0.00596 0.19146 0.0
C2909 C 0.48108 0.99978 0.17531 0.0
C2910 C 0.41744 0.01142 0.14713 0.0
C2911 C 0.47368 0.00767 0.21812 0.0
H2912 H 0.41385 0.05249 0.23861 0.0
H2913 H 0.39039 0.97778 0.2253 0.0
H2914 H 0.46056 0.057 0.2138 0.0
H2915 H 0.44263 0.05601 0.18664 0.0
H2916 H 0.4382 0.07201 0.21472 0.0
H2917 H 0.40182 0.95341 0.19514 0.0
H2918 H 0.41254 0.96637 0.17069 0.0
H2919 H 0.43156 0.9637 0.19553 0.0
H2920 H 0.44845 0.99771 0.12244 0.0
H2921 H 0.49719 0.99711 0.18222 0.0
H2922 H 0.41427 0.02759 0.15721 0.0
H2923 H 0.40368 0.99666 0.14901 0.0
H2924 H 0.41677 0.0128 0.12777 0.0
H2925 H 0.47155 0.02431 0.22826 0.0
H2926 H 0.49137 0.0066 0.22235 0.0
H2927 H 0.46273 0.99324 0.22467 0.0
C2928 C 0.77565 0.70996 0.93156 0.0
C2929 C 0.77812 0.72557 0.95334 0.0
C2930 C 0.77683 0.7179 0.90948 0.0
C2931 C 0.77981 0.74207 0.90893 0.0
C2932 C 0.78118 0.75781 0.93081 0.0
C2933 C 0.78091 0.74944 0.95283 0.0
C2934 C 0.77604 0.70052 0.88688 0.0
C2935 C 0.78348 0.78355 0.93103 0.0
C2936 C 0.80592 0.7647 0.85609 0.0
C2937 C 0.78695 0.76438 0.84006 0.0
C2938 C 0.80387 0.75786 0.87867 0.0
C2939 C 0.78231 0.75076 0.88558 0.0
C2940 C 0.76312 0.75084 0.86956 0.0
C2941 C 0.76568 0.75743 0.847 0.0
C2942 C 0.82479 0.75769 0.89486 0.0
C2943 C 0.73985 0.74391 0.8762 0.0
H2944 H 0.77411 0.69156 0.93198 0.0
H2945 H 0.7832 0.76159 0.96967 0.0
H2946 H 0.76238 0.7014 0.87299 0.0
H2947 H 0.792 0.70493 0.87932 0.0
H2948 H 0.77339 0.68232 0.89025 0.0
H2949 H 0.78191 0.79305 0.94897 0.0
H2950 H 0.80005 0.7913 0.92613 0.0
H2951 H 0.77049 0.78628 0.91743 0.0
H2952 H 0.82239 0.76978 0.85074 0.0
H2953 H 0.75094 0.75745 0.83485 0.0
H2954 H 0.82442 0.73961 0.89774 0.0
H2955 H 0.82552 0.76852 0.91277 0.0
H2956 H 0.8403 0.76437 0.88724 0.0
H2957 H 0.73605 0.7253 0.87818 0.0
H2958 H 0.72679 0.74638 0.86246 0.0
H2959 H 0.73883 0.75437 0.89382 0.0
C2960 C 0.85118 0.10335 0.07185 0.0
C2961 C 0.83063 0.09245 0.05769 0.0
C2962 C 0.87036 0.09501 0.06796 0.0
C2963 C 0.86897 0.07685 0.04824 0.0
C2964 C 0.84771 0.0643 0.03575 0.0
C2965 C 0.82865 0.07198 0.04114 0.0
C2966 C 0.89234 0.10696 0.08347 0.0
C2967 C 0.84532 0.04475 0.01461 0.0
C2968 C 0.91152 0.08516 0.00538 0.0
C2969 C 0.9194 0.06476 0.00491 0.0
C2970 C 0.89603 0.09006 0.02058 0.0
C2971 C 0.88916 0.07484 0.03676 0.0
C2972 C 0.89914 0.05583 0.03854 0.0
C2973 C 0.9137 0.05065 0.02219 0.0
C2974 C 0.88574 0.11053 0.01785 0.0
C2975 C 0.8936 0.04 0.05657 0.0
H2976 H 0.85252 0.11907 0.08489 0.0
H2977 H 0.81258 0.06367 0.03029 0.0
H2978 H 0.90342 0.09467 0.0849 0.0
H2979 H 0.90109 0.12161 0.07544 0.0
H2980 H 0.88962 0.11428 0.10184 0.0
H2981 H 0.82751 0.03659 0.00718 0.0
H2982 H 0.85399 0.05156 4e-05 0.0
H2983 H 0.85326 0.03101 0.0201 0.0
H2984 H 0.91662 0.09681 0.993 0.0
H2985 H 0.91961 0.03483 0.02231 0.0
H2986 H 0.88911 0.12304 0.0351 0.0
H2987 H 0.86728 0.1044 0.01305 0.0
H2988 H 0.89238 0.12005 0.00375 0.0
H2989 H 0.88629 0.04822 0.07174 0.0
H2990 H 0.90892 0.03503 0.06398 0.0
H2991 H 0.88152 0.02364 0.0474 0.0
C2992 C 0.36175 0.45277 0.0218 0.0
C2993 C 0.35997 0.43197 0.03099 0.0
C2994 C 0.38277 0.46701 0.0205 0.0
C2995 C 0.4025 0.46012 0.0282 0.0
C2996 C 0.4008 0.43879 0.03682 0.0
C2997 C 0.37957 0.42508 0.0383 0.0
C2998 C 0.38388 0.48981 0.01162 0.0
C2999 C 0.42144 0.43063 0.04485 0.0
C3000 C 0.45692 0.4876 0.00699 0.0
C3001 C 0.46844 0.50256 0.02803 0.0
C3002 C 0.43548 0.47351 0.0068 0.0
C3003 C 0.42494 0.47545 0.02782 0.0
C3004 C 0.43614 0.49159 0.04874 0.0
C3005 C 0.45805 0.50451 0.04877 0.0
C3006 C 0.42455 0.45588 0.98447 0.0
C3007 C 0.42521 0.49488 0.07123 0.0
H3008 H 0.3467 0.45832 0.01628 0.0
H3009 H 0.37839 0.40912 0.04551 0.0
H3010 H 0.39304 0.50455 0.02601 0.0
H3011 H 0.39332 0.49031 0.99601 0.0
H3012 H 0.36699 0.49258 0.00613 0.0
H3013 H 0.41723 0.41293 0.04957 0.0
H3014 H 0.43228 0.43037 0.03041 0.0
H3015 H 0.43137 0.44298 0.06085 0.0
H3016 H 0.46512 0.4862 0.991 0.0
H3017 H 0.46718 0.51595 0.06509 0.0
H3018 H 0.40786 0.45862 0.9782 0.0
H3019 H 0.42186 0.438 0.98876 0.0
H3020 H 0.43485 0.45682 0.96954 0.0
H3021 H 0.40822 0.49779 0.06674 0.0
H3022 H 0.43518 0.50987 0.08492 0.0
H3023 H 0.42322 0.47886 0.0793 0.0
C3024 C 0.39036 0.57737 0.75539 0.0
C3025 C 0.38547 0.56143 0.77106 0.0
C3026 C 0.37862 0.59509 0.75428 0.0
C3027 C 0.36182 0.59686 0.76927 0.0
C3028 C 0.35514 0.57911 0.78283 0.0
C3029 C 0.36702 0.56164 0.78353 0.0
C3030 C 0.38564 0.61307 0.73877 0.0
C3031 C 0.33701 0.57993 0.79872 0.0
C3032 C 0.35714 0.65404 0.80461 0.0
C3033 C 0.33572 0.65549 0.79513 0.0
C3034 C 0.3667 0.6361 0.79481 0.0
C3035 C 0.35452 0.6191 0.77499 0.0
C3036 C 0.33383 0.62179 0.76386 0.0
C3037 C 0.32459 0.64 0.77414 0.0
C3038 C 0.38903 0.63428 0.80703 0.0
C3039 C 0.32064 0.60457 0.74224 0.0
H3040 H 0.40442 0.57718 0.74543 0.0
H3041 H 0.36279 0.54901 0.79522 0.0
H3042 H 0.37113 0.61937 0.73144 0.0
H3043 H 0.39802 0.6283 0.74982 0.0
H3044 H 0.39364 0.60593 0.72357 0.0
H3045 H 0.33202 0.56349 0.80584 0.0
H3046 H 0.34316 0.59455 0.81422 0.0
H3047 H 0.32195 0.58316 0.78865 0.0
H3048 H 0.36599 0.66637 0.8205 0.0
H3049 H 0.3081 0.64123 0.76663 0.0
H3050 H 0.40052 0.63181 0.79357 0.0
H3051 H 0.38658 0.61885 0.81609 0.0
H3052 H 0.39723 0.65002 0.82074 0.0
H3053 H 0.3319 0.5982 0.73012 0.0
H3054 H 0.30887 0.6124 0.73186 0.0
H3055 H 0.31066 0.58926 0.74836 0.0
C3056 C 0.20288 0.58361 0.53887 0.0
C3057 C 0.20724 0.59942 0.52315 0.0
C3058 C 0.18252 0.58 0.54826 0.0
C3059 C 0.16666 0.5928 0.54183 0.0
C3060 C 0.17297 0.61175 0.52973 0.0
C3061 C 0.19317 0.61458 0.52003 0.0
C3062 C 0.17662 0.56003 0.5617 0.0
C3063 C 0.15705 0.62675 0.52395 0.0
C3064 C 0.10907 0.55353 0.52072 0.0
C3065 C 0.09839 0.55721 0.54092 0.0
C3066 C 0.13097 0.56598 0.52048 0.0
C3067 C 0.14252 0.5822 0.54126 0.0
C3068 C 0.13144 0.58647 0.56154 0.0
C3069 C 0.10948 0.57359 0.56124 0.0
C3070 C 0.14197 0.56102 0.49825 0.0
C3071 C 0.14282 0.60385 0.58386 0.0
H3072 H 0.21388 0.57192 0.54117 0.0
H3073 H 0.19675 0.62692 0.50791 0.0
H3074 H 0.16788 0.56501 0.57709 0.0
H3075 H 0.16509 0.54495 0.54941 0.0
H3076 H 0.19172 0.55435 0.56854 0.0
H3077 H 0.16615 0.64377 0.52018 0.0
H3078 H 0.14496 0.61762 0.50772 0.0
H3079 H 0.14735 0.62999 0.53903 0.0
H3080 H 0.10054 0.54026 0.50541 0.0
H3081 H 0.10108 0.57609 0.57699 0.0
H3082 H 0.15695 0.55422 0.50285 0.0
H3083 H 0.14763 0.57735 0.49119 0.0
H3084 H 0.13046 0.54809 0.48363 0.0
H3085 H 0.15137 0.59485 0.59638 0.0
H3086 H 0.1304 0.61126 0.59341 0.0
H3087 H 0.15555 0.61837 0.57965 0.0
C3088 C 0.72867 0.98369 0.7335 0.0
C3089 C 0.73896 1.00445 0.74959 0.0
C3090 C 0.73602 0.96333 0.7353 0.0
C3091 C 0.75457 0.96457 0.75265 0.0
C3092 C 0.76837 0.98659 0.76367 0.0
C3093 C 0.75998 0.0065 0.76269 0.0
C3094 C 0.72151 0.9402 0.72222 0.0
C3095 C 0.7898 0.98858 0.78 0.0
C3096 C 0.7434 0.92594 0.79907 0.0
C3097 C 0.75362 0.90795 0.7913 0.0
C3098 C 0.74332 0.94415 0.78626 0.0
C3099 C 0.75436 0.94473 0.76547 0.0
C3100 C 0.76456 0.92648 0.75735 0.0
C3101 C 0.7636 0.90802 0.77009 0.0
C3102 C 0.73168 0.96297 0.79539 0.0
C3103 C 0.77654 0.92612 0.73544 0.0
H3104 H 0.71276 0.98229 0.72264 0.0
H3105 H 0.76843 0.02284 0.7744 0.0
H3106 H 0.732 0.9287 0.71477 0.0
H3107 H 0.71189 0.93133 0.73508 0.0
H3108 H 0.70942 0.94234 0.70729 0.0
H3109 H 0.80145 0.00587 0.78116 0.0
H3110 H 0.78595 0.98673 0.7984 0.0
H3111 H 0.79821 0.97459 0.77349 0.0
H3112 H 0.73594 0.92612 0.81557 0.0
H3113 H 0.77106 0.89378 0.7636 0.0
H3114 H 0.72011 0.96605 0.78057 0.0
H3115 H 0.74429 0.97957 0.80249 0.0
H3116 H 0.72188 0.95841 0.81008 0.0
H3117 H 0.76522 0.91441 0.71989 0.0
H3118 H 0.79156 0.91889 0.73834 0.0
H3119 H 0.78184 0.94367 0.73067 0.0
C3120 C 0.74892 0.95194 0.5367 0.0
C3121 C 0.74659 0.92789 0.53589 0.0
C3122 C 0.73043 0.96114 0.53092 0.0
C3123 C 0.70888 0.94598 0.52439 0.0
C3124 C 0.70626 0.92167 0.52375 0.0
C3125 C 0.72522 0.91285 0.52935 0.0
C3126 C 0.73406 0.98714 0.53155 0.0
C3127 C 0.6835 0.90504 0.51702 0.0
C3128 C 0.6633 0.97923 0.53064 0.0
C3129 C 0.66003 0.98452 0.50751 0.0
C3130 C 0.67805 0.96518 0.53609 0.0
C3131 C 0.68945 0.956 0.51784 0.0
C3132 C 0.68475 0.95982 0.494 0.0
C3133 C 0.67026 0.97427 0.48918 0.0
C3134 C 0.68268 0.96165 0.56175 0.0
C3135 C 0.6962 0.95004 0.47392 0.0
H3136 H 0.76537 0.9637 0.54154 0.0
H3137 H 0.72331 0.89426 0.52873 0.0
H3138 H 0.7287 0.99055 0.51342 0.0
H3139 H 0.7237 0.99455 0.54411 0.0
H3140 H 0.75187 0.99655 0.5373 0.0
H3141 H 0.68413 0.8868 0.51843 0.0
H3142 H 0.67166 0.91055 0.52887 0.0
H3143 H 0.67663 0.90544 0.49827 0.0
H3144 H 0.65534 0.98717 0.54479 0.0
H3145 H 0.66743 0.97813 0.4712 0.0
H3146 H 0.69957 0.97232 0.56994 0.0
H3147 H 0.68265 0.94313 0.56232 0.0
H3148 H 0.6702 0.96689 0.5729 0.0
H3149 H 0.71401 0.95976 0.47644 0.0
H3150 H 0.68818 0.95146 0.45593 0.0
H3151 H 0.69598 0.93143 0.47423 0.0
C3152 C 0.38013 0.44843 0.7549 0.0
C3153 C 0.39662 0.45535 0.77514 0.0
C3154 C 0.36532 0.42621 0.75063 0.0
C3155 C 0.36753 0.41052 0.7667 0.0
C3156 C 0.38512 0.41706 0.78632 0.0
C3157 C 0.3992 0.43954 0.79052 0.0
C3158 C 0.3465 0.42009 0.72986 0.0
C3159 C 0.38848 0.4007 0.80354 0.0
C3160 C 0.31857 0.36523 0.77897 0.0
C3161 C 0.32174 0.34453 0.7659 0.0
C3162 C 0.33248 0.38697 0.77808 0.0
C3163 C 0.35055 0.38805 0.76444 0.0
C3164 C 0.35351 0.36732 0.75068 0.0
C3165 C 0.33888 0.34586 0.7513 0.0
C3166 C 0.32843 0.4087 0.79265 0.0
C3167 C 0.37285 0.36762 0.73636 0.0
H3168 H 0.37799 0.46086 0.74325 0.0
H3169 H 0.41197 0.44501 0.80621 0.0
H3170 H 0.34569 0.40266 0.71918 0.0
H3171 H 0.33029 0.4192 0.73696 0.0
H3172 H 0.34835 0.43316 0.71772 0.0
H3173 H 0.40435 0.40744 0.81619 0.0
H3174 H 0.37435 0.39823 0.81423 0.0
H3175 H 0.38866 0.38329 0.79344 0.0
H3176 H 0.30569 0.36445 0.79065 0.0
H3177 H 0.34146 0.32997 0.7411 0.0
H3178 H 0.32876 0.42254 0.78154 0.0
H3179 H 0.34197 0.41554 0.80814 0.0
H3180 H 0.31211 0.40529 0.7997 0.0
H3181 H 0.37363 0.38104 0.7247 0.0
H3182 H 0.37164 0.35042 0.7249 0.0
H3183 H 0.38882 0.37233 0.74889 0.0
C3184 C 0.2221 0.61861 0.25566 0.0
C3185 C 0.20595 0.60959 0.26941 0.0
C3186 C 0.22874 0.64265 0.25627 0.0
C3187 C 0.21814 0.65784 0.27018 0.0
C3188 C 0.20052 0.64847 0.28261 0.0
C3189 C 0.19504 0.62438 0.28263 0.0
C3190 C 0.24813 0.65182 0.24334 0.0
C3191 C 0.18798 0.66358 0.29681 0.0
C3192 C 0.25892 0.71571 0.29101 0.0
C3193 C 0.25583 0.7261 0.27086 0.0
C3194 C 0.24487 0.6943 0.29249 0.0
C3195 C 0.22747 0.68334 0.2733 0.0
C3196 C 0.22266 0.69536 0.25448 0.0
C3197 C 0.23735 0.71645 0.2531 0.0
C3198 C 0.24994 0.68249 0.31344 0.0
C3199 C 0.20306 0.68508 0.23486 0.0
H3200 H 0.23063 0.60695 0.24571 0.0
H3201 H 0.18253 0.61718 0.29329 0.0
H3202 H 0.24276 0.66177 0.22973 0.0
H3203 H 0.26186 0.66394 0.25639 0.0
H3204 H 0.25495 0.63762 0.23406 0.0
H3205 H 0.1698 0.65509 0.29389 0.0
H3206 H 0.19391 0.6653 0.31628 0.0
H3207 H 0.19019 0.68121 0.292 0.0
H3208 H 0.27329 0.72344 0.30471 0.0
H3209 H 0.23496 0.72486 0.23768 0.0
H3210 H 0.25499 0.66611 0.30689 0.0
H3211 H 0.23472 0.67776 0.32216 0.0
H3212 H 0.26356 0.6938 0.32725 0.0
H3213 H 0.20741 0.67163 0.22162 0.0
H3214 H 0.19854 0.69863 0.22513 0.0
H3215 H 0.18824 0.6765 0.24249 0.0
C3216 C 0.52238 0.70174 0.48134 0.0
C3217 C 0.50091 0.7065 0.48069 0.0
C3218 C 0.5267 0.68074 0.4878 0.0
C3219 C 0.50914 0.66335 0.49331 0.0
C3220 C 0.48751 0.66813 0.49282 0.0
C3221 C 0.48377 0.68943 0.48684 0.0
C3222 C 0.55015 0.67701 0.48843 0.0
C3223 C 0.46802 0.65035 0.49808 0.0
C3224 C 0.51374 0.59873 0.4858 0.0
C3225 C 0.51922 0.59559 0.50963 0.0
C3226 C 0.51063 0.62043 0.48032 0.0
C3227 C 0.5131 0.64004 0.49898 0.0
C3228 C 0.51864 0.63696 0.52309 0.0
C3229 C 0.52142 0.61498 0.52806 0.0
C3230 C 0.50452 0.62227 0.45436 0.0
C3231 C 0.52172 0.65701 0.54379 0.0
H3232 H 0.53589 0.71443 0.47662 0.0
H3233 H 0.46701 0.69236 0.48625 0.0
H3234 H 0.55583 0.67292 0.50615 0.0
H3235 H 0.5503 0.66181 0.47452 0.0
H3236 H 0.56231 0.69252 0.48517 0.0
H3237 H 0.45228 0.65656 0.49733 0.0
H3238 H 0.4652 0.63391 0.48483 0.0
H3239 H 0.47184 0.64609 0.51619 0.0
H3240 H 0.51196 0.58414 0.47122 0.0
H3241 H 0.52504 0.61291 0.54656 0.0
H3242 H 0.51717 0.63628 0.44926 0.0
H3243 H 0.48814 0.62708 0.45201 0.0
H3244 H 0.5034 0.60567 0.44185 0.0
H3245 H 0.53599 0.67124 0.54191 0.0
H3246 H 0.52505 0.65175 0.56153 0.0
H3247 H 0.50658 0.66422 0.54348 0.0
C3248 C 0.63317 0.29123 0.68908 0.0
C3249 C 0.63136 0.29847 0.66657 0.0
C3250 C 0.65366 0.28884 0.70064 0.0
C3251 C 0.67335 0.2938 0.68969 0.0
C3252 C 0.67181 0.30112 0.66695 0.0
C3253 C 0.65089 0.30332 0.65565 0.0
C3254 C 0.65419 0.28097 0.72475 0.0
C3255 C 0.69229 0.30661 0.65454 0.0
C3256 C 0.72879 0.30673 0.73256 0.0
C3257 C 0.73394 0.28478 0.73037 0.0
C3258 C 0.70955 0.31009 0.71905 0.0
C3259 C 0.6953 0.29119 0.7023 0.0
C3260 C 0.70103 0.26917 0.69945 0.0
C3261 C 0.71998 0.26615 0.71377 0.0
C3262 C 0.70402 0.33368 0.7234 0.0
C3263 C 0.68676 0.24855 0.6817 0.0
H3264 H 0.61838 0.28726 0.69788 0.0
H3265 H 0.64989 0.30891 0.63834 0.0
H3266 H 0.65987 0.26445 0.72353 0.0
H3267 H 0.66636 0.2942 0.73848 0.0
H3268 H 0.63754 0.27809 0.7311 0.0
H3269 H 0.68847 0.31194 0.63694 0.0
H3270 H 0.70528 0.32088 0.66621 0.0
H3271 H 0.69955 0.2911 0.65155 0.0
H3272 H 0.7395 0.32116 0.74545 0.0
H3273 H 0.72384 0.24913 0.71207 0.0
H3274 H 0.68807 0.33218 0.73112 0.0
H3275 H 0.70155 0.34 0.70613 0.0
H3276 H 0.71733 0.3469 0.73598 0.0
H3277 H 0.6703 0.24292 0.68791 0.0
H3278 H 0.69477 0.2335 0.67957 0.0
H3279 H 0.68351 0.25352 0.66383 0.0
C3280 C 0.02392 0.3501 0.97926 0.0
C3281 C 1.00191 0.33627 0.97667 0.0
C3282 C 0.02876 0.37489 0.98586 0.0
C3283 C 0.01117 0.38664 0.98904 0.0
C3284 C 0.98893 0.37274 0.98615 0.0
C3285 C 0.98469 0.34803 0.98052 0.0
C3286 C 0.05283 0.38854 0.98948 0.0
C3287 C 0.96936 0.38403 0.98817 0.0
C3288 C 0.02056 0.44987 0.02411 0.0
C3289 C 0.0228 0.46344 0.00588 0.0
C3290 C 0.01763 0.42524 0.01907 0.0
C3291 C 0.01577 0.41331 0.99495 0.0
C3292 C 0.01755 0.42699 0.97642 0.0
C3293 C 0.02156 0.4517 0.98214 0.0
C3294 C 0.01671 0.41202 0.03976 0.0
C3295 C 0.01483 0.41554 0.95034 0.0
H3296 H 0.03746 0.34154 0.97631 0.0
H3297 H 0.96755 0.33787 0.9782 0.0
H3298 H 0.05562 0.39895 0.97497 0.0
H3299 H 0.05666 0.40099 0.00685 0.0
H3300 H 0.06476 0.37699 0.98932 0.0
H3301 H 0.95301 0.37102 0.98443 0.0
H3302 H 0.97087 0.39435 0.00649 0.0
H3303 H 0.96942 0.39634 0.9753 0.0
H3304 H 0.02163 0.45861 0.04255 0.0
H3305 H 0.02313 0.46184 0.96781 0.0
H3306 H 0.02797 0.3998 0.03826 0.0
H3307 H 0.99946 0.40147 0.03919 0.0
H3308 H 0.02162 0.42389 0.0575 0.0
H3309 H 0.02936 0.40795 0.94703 0.0
H3310 H 0.01365 0.4281 0.93792 0.0
H3311 H 0.99954 0.40107 0.94592 0.0
C3312 C 0.99168 0.78359 0.13896 0.0
C3313 C 0.01295 0.78524 0.15153 0.0
C3314 C 0.97226 0.77926 0.15024 0.0
C3315 C 0.97417 0.7771 0.17486 0.0
C3316 C 0.99558 0.77843 0.18751 0.0
C3317 C 0.01461 0.7822 0.17564 0.0
C3318 C 0.94974 0.77741 0.13593 0.0
C3319 C 0.99849 0.7766 0.21387 0.0
C3320 C 0.93094 0.79109 0.21464 0.0
C3321 C 0.92018 0.76883 0.21794 0.0
C3322 C 0.94784 0.79401 0.19972 0.0
C3323 C 0.95405 0.77414 0.18778 0.0
C3324 C 0.94228 0.75154 0.19008 0.0
C3325 C 0.92563 0.74918 0.20534 0.0
C3326 C 0.95999 0.81842 0.19796 0.0
C3327 C 0.94805 0.7299 0.17742 0.0
H3328 H 0.99019 0.7859 0.12035 0.0
H3329 H 0.03096 0.78366 0.18559 0.0
H3330 H 0.93797 0.76086 0.13726 0.0
H3331 H 0.94245 0.79192 0.14351 0.0
H3332 H 0.9509 0.77803 0.11661 0.0
H3333 H 0.01623 0.77793 0.22111 0.0
H3334 H 0.99252 0.7907 0.2245 0.0
H3335 H 0.98821 0.75973 0.21659 0.0
H3336 H 0.92692 0.80627 0.22471 0.0
H3337 H 0.91746 0.73197 0.20818 0.0
H3338 H 0.96067 0.82016 0.17885 0.0
H3339 H 0.97753 0.82197 0.20696 0.0
H3340 H 0.95189 0.83187 0.20655 0.0
H3341 H 0.94904 0.73081 0.15816 0.0
H3342 H 0.93559 0.71374 0.1786 0.0
H3343 H 0.96475 0.72867 0.18568 0.0
C3344 C 0.49797 0.31491 0.14004 0.0
C3345 C 0.51411 0.30733 0.15421 0.0
C3346 C 0.50392 0.33436 0.12866 0.0
C3347 C 0.52667 0.34656 0.13108 0.0
C3348 C 0.54307 0.33896 0.14525 0.0
C3349 C 0.5366 0.31963 0.15674 0.0
C3350 C 0.4858 0.34192 0.11407 0.0
C3351 C 0.56754 0.3512 0.14815 0.0
C3352 C 0.54723 0.38362 0.08463 0.0
C3353 C 0.54932 0.40637 0.09699 0.0
C3354 C 0.53921 0.36401 0.09516 0.0
C3355 C 0.53334 0.36718 0.11879 0.0
C3356 C 0.53471 0.39018 0.13097 0.0
C3357 C 0.54277 0.40946 0.11998 0.0
C3358 C 0.53799 0.33993 0.08139 0.0
C3359 C 0.52858 0.39451 0.15606 0.0
H3360 H 0.48051 0.30576 0.13802 0.0
H3361 H 0.54926 0.31398 0.16752 0.0
H3362 H 0.48593 0.36034 0.12123 0.0
H3363 H 0.48907 0.34107 0.09512 0.0
H3364 H 0.46885 0.3309 0.11425 0.0
H3365 H 0.57828 0.34315 0.15959 0.0
H3366 H 0.57333 0.35073 0.13023 0.0
H3367 H 0.56992 0.36984 0.15636 0.0
H3368 H 0.55276 0.38123 0.06708 0.0
H3369 H 0.54486 0.42706 0.12978 0.0
H3370 H 0.52107 0.32852 0.08067 0.0
H3371 H 0.55017 0.3319 0.09083 0.0
H3372 H 0.54173 0.34028 0.06268 0.0
H3373 H 0.5116 0.38383 0.15669 0.0
H3374 H 0.52892 0.41318 0.16236 0.0
H3375 H 0.54051 0.38912 0.1688 0.0
C3376 C 0.96742 0.32484 0.30657 0.0
C3377 C 0.97459 0.30653 0.31561 0.0
C3378 C 0.94419 0.32463 0.30186 0.0
C3379 C 0.92745 0.30532 0.30547 0.0
C3380 C 0.93473 0.28662 0.314 0.0
C3381 C 0.95789 0.28763 0.31924 0.0
C3382 C 0.93754 0.34532 0.29344 0.0
C3383 C 0.91798 0.26526 0.31751 0.0
C3384 C 0.86652 0.3079 0.31457 0.0
C3385 C 0.8545 0.29887 0.29143 0.0
C3386 C 0.89018 0.3111 0.31911 0.0
C3387 C 0.9024 0.30434 0.30034 0.0
C3388 C 0.89022 0.29517 0.27694 0.0
C3389 C 0.86674 0.293 0.27274 0.0
C3390 C 0.90216 0.32183 0.34412 0.0
C3391 C 0.9019 0.28696 0.25634 0.0
H3392 H 0.97995 0.33966 0.30383 0.0
H3393 H 0.96297 0.27324 0.32606 0.0
H3394 H 0.9276 0.33984 0.27525 0.0
H3395 H 0.9267 0.35233 0.30568 0.0
H3396 H 0.95231 0.35951 0.29272 0.0
H3397 H 0.92618 0.25164 0.323 0.0
H3398 H 0.90775 0.27019 0.33153 0.0
H3399 H 0.90634 0.25764 0.30056 0.0
H3400 H 0.85746 0.31296 0.3291 0.0
H3401 H 0.85779 0.2861 0.25474 0.0
H3402 H 0.91638 0.33656 0.34328 0.0
H3403 H 0.90922 0.30872 0.35226 0.0
H3404 H 0.89086 0.32836 0.35611 0.0
H3405 H 0.91523 0.30153 0.25328 0.0
H3406 H 0.89017 0.28004 0.23931 0.0
H3407 H 0.9101 0.27303 0.26091 0.0
C3408 C 1.00005 0.67962 0.62198 0.0
C3409 C 0.01464 0.6923 0.6427 0.0
C3410 C 1.00483 0.66026 0.6077 0.0
C3411 C 0.02467 0.65299 0.61416 0.0
C3412 C 0.03964 0.66579 0.63488 0.0
C3413 C 0.03452 0.68528 0.64879 0.0
C3414 C 0.98849 0.64749 0.58566 0.0
C3415 C 0.06088 0.65861 0.64264 0.0
C3416 C 0.02392 0.58952 0.58804 0.0
C3417 C 0.03677 0.59195 0.56905 0.0
C3418 C 0.0207 0.60914 0.60342 0.0
C3419 C 0.02958 0.63197 0.59921 0.0
C3420 C 0.04238 0.63457 0.58 0.0
C3421 C 0.04632 0.61471 0.56573 0.0
C3422 C 0.0076 0.60538 0.62412 0.0
C3423 C 0.05159 0.65838 0.57417 0.0
H3424 H 0.98465 0.68473 0.61689 0.0
H3425 H 0.04593 0.69474 0.66473 0.0
H3426 H 0.9972 0.64693 0.56948 0.0
H3427 H 0.9817 0.62918 0.58765 0.0
H3428 H 0.97423 0.6558 0.58251 0.0
H3429 H 0.07077 0.67024 0.65915 0.0
H3430 H 0.05673 0.64045 0.6461 0.0
H3431 H 0.07152 0.65884 0.62801 0.0
H3432 H 0.01635 0.57221 0.59105 0.0
H3433 H 0.05689 0.61716 0.55187 0.0
H3434 H 0.99163 0.61085 0.62102 0.0
H3435 H 0.01719 0.61628 0.64114 0.0
H3436 H 1.00369 0.58682 0.62646 0.0
H3437 H 0.03776 0.66719 0.57079 0.0
H3438 H 0.06045 0.65744 0.55808 0.0
H3439 H 0.06341 0.66946 0.58972 0.0
C3440 C 0.61748 0.79063 0.79103 0.0
C3441 C 0.61197 0.80158 0.81276 0.0
C3442 C 0.63992 0.79075 0.78724 0.0
C3443 C 0.6581 0.80192 0.80563 0.0
C3444 C 0.6528 0.81325 0.82761 0.0
C3445 C 0.63005 0.81308 0.83086 0.0
C3446 C 0.64412 0.77855 0.76341 0.0
C3447 C 0.67125 0.82533 0.84794 0.0
C3448 C 0.71364 0.78135 0.80196 0.0
C3449 C 0.72673 0.79827 0.79121 0.0
C3450 C 0.69176 0.78252 0.80709 0.0
C3451 C 0.68233 0.8013 0.80172 0.0
C3452 C 0.69576 0.81867 0.7912 0.0
C3453 C 0.71752 0.8169 0.78602 0.0
C3454 C 0.67853 0.76322 0.81785 0.0
C3455 C 0.68702 0.83913 0.7851 0.0
H3456 H 0.60406 0.78168 0.77667 0.0
H3457 H 0.62644 0.82152 0.84781 0.0
H3458 H 0.65601 0.79079 0.75518 0.0
H3459 H 0.65196 0.76392 0.7663 0.0
H3460 H 0.62848 0.77148 0.75046 0.0
H3461 H 0.66471 0.8329 0.86408 0.0
H3462 H 0.68102 0.8128 0.8531 0.0
H3463 H 0.68299 0.83952 0.84193 0.0
H3464 H 0.72046 0.7669 0.80616 0.0
H3465 H 0.72738 0.83016 0.7778 0.0
H3466 H 0.66402 0.753 0.8045 0.0
H3467 H 0.67179 0.77063 0.83389 0.0
H3468 H 0.68877 0.75111 0.82318 0.0
H3469 H 0.67113 0.83284 0.77248 0.0
H3470 H 0.69918 0.85105 0.7768 0.0
H3471 H 0.68325 0.84919 0.80167 0.0
C3472 C 0.49669 0.53468 0.69678 0.0
C3473 C 0.47459 0.52618 0.70089 0.0
C3474 C 0.50215 0.53462 0.67334 0.0
C3475 C 0.48516 0.52571 0.65332 0.0
C3476 C 0.46285 0.51679 0.65724 0.0
C3477 C 0.45781 0.51718 0.68098 0.0
C3478 C 0.52615 0.54434 0.67004 0.0
C3479 C 0.44433 0.50686 0.63636 0.0
C3480 C 0.49722 0.54606 0.59439 0.0
C3481 C 0.50657 0.52842 0.58354 0.0
C3482 C 0.48987 0.54528 0.617 0.0
C3483 C 0.49097 0.52585 0.62839 0.0
C3484 C 0.49936 0.50741 0.61671 0.0
C3485 C 0.50768 0.50927 0.59477 0.0
C3486 C 0.48196 0.56575 0.62921 0.0
C3487 C 0.5001 0.48598 0.62765 0.0
H3488 H 0.50983 0.54161 0.71195 0.0
H3489 H 0.44071 0.51057 0.68392 0.0
H3490 H 0.53274 0.53056 0.65972 0.0
H3491 H 0.52698 0.55865 0.65947 0.0
H3492 H 0.53728 0.55118 0.68748 0.0
H3493 H 0.42803 0.49989 0.64236 0.0
H3494 H 0.4423 0.52057 0.62567 0.0
H3495 H 0.44876 0.49263 0.62419 0.0
H3496 H 0.49673 0.56102 0.58577 0.0
H3497 H 0.51494 0.49564 0.58624 0.0
H3498 H 0.49339 0.57406 0.64615 0.0
H3499 H 0.46501 0.55975 0.63415 0.0
H3500 H 0.48143 0.57914 0.61765 0.0
H3501 H 0.51289 0.49067 0.64391 0.0
H3502 H 0.50427 0.472 0.61486 0.0
H3503 H 0.4837 0.47896 0.6334 0.0
C3504 C 0.8038 0.18363 0.97489 0.0
C3505 C 0.79185 0.18043 0.99427 0.0
C3506 C 0.79582 0.19404 0.95624 0.0
C3507 C 0.77581 0.2019 0.95753 0.0
C3508 C 0.7644 0.19977 0.97777 0.0
C3509 C 0.7724 0.18872 0.99575 0.0
C3510 C 0.80818 0.19564 0.93469 0.0
C3511 C 0.74331 0.20844 0.98006 0.0
C3512 C 0.76077 0.24425 0.91871 0.0
C3513 C 0.7447 0.22922 0.90076 0.0
C3514 C 0.77165 0.2355 0.93695 0.0
C3515 C 0.76602 0.21124 0.93722 0.0
C3516 C 0.75 0.19598 0.91879 0.0
C3517 C 0.7396 0.2052 0.90062 0.0
C3518 C 0.78881 0.25222 0.95615 0.0
C3519 C 0.74352 0.17002 0.91855 0.0
H3520 H 0.81872 0.17691 0.9737 0.0
H3521 H 0.76327 0.18628 0.01088 0.0
H3522 H 0.79747 0.18442 0.91844 0.0
H3523 H 0.81185 0.21379 0.9312 0.0
H3524 H 0.82417 0.19001 0.93714 0.0
H3525 H 0.73741 0.20697 0.99775 0.0
H3526 H 0.74623 0.22697 0.9778 0.0
H3527 H 0.72977 0.1982 0.9656 0.0
H3528 H 0.76479 0.26283 0.9184 0.0
H3529 H 0.72725 0.19372 0.88647 0.0
H3530 H 0.80478 0.24651 0.95746 0.0
H3531 H 0.78279 0.25221 0.97392 0.0
H3532 H 0.79221 0.27036 0.95252 0.0
H3533 H 0.75867 0.16282 0.91931 0.0
H3534 H 0.73168 0.16047 0.90226 0.0
H3535 H 0.73551 0.16666 0.93471 0.0
C3536 C 0.14715 0.53218 0.16199 0.0
C3537 C 0.13929 0.52359 0.18192 0.0
C3538 C 0.13227 0.53682 0.14406 0.0
C3539 C 0.10925 0.53318 0.14659 0.0
C3540 C 0.10146 0.5256 0.16726 0.0
C3541 C 0.11659 0.52061 0.1846 0.0
C3542 C 0.14097 0.54467 0.12198 0.0
C3543 C 0.07705 0.52203 0.17065 0.0
C3544 C 0.07224 0.55651 0.10391 0.0
C3545 C 0.06463 0.53688 0.08573 0.0
C3546 C 0.08674 0.55563 0.12423 0.0
C3547 C 0.09297 0.53444 0.12631 0.0
C3548 C 0.08416 0.51425 0.10852 0.0
C3549 C 0.07021 0.51581 0.08824 0.0
C3550 C 0.0961 0.5775 0.1428 0.0
C3551 C 0.09 0.49119 0.11052 0.0
H3552 H 0.16479 0.5347 0.16015 0.0
H3553 H 0.11065 0.51454 0.20039 0.0
H3554 H 0.13407 0.53077 0.10599 0.0
H3555 H 0.13532 0.56047 0.11854 0.0
H3556 H 0.15956 0.54858 0.12376 0.0
H3557 H 0.07419 0.5184 0.18886 0.0
H3558 H 0.07085 0.53771 0.16786 0.0
H3559 H 0.06687 0.50715 0.15703 0.0
H3560 H 0.0678 0.57276 0.10161 0.0
H3561 H 0.06385 0.5006 0.07415 0.0
H3562 H 0.11426 0.58372 0.14207 0.0
H3563 H 0.09432 0.57385 0.1612 0.0
H3564 H 0.08771 0.59175 0.13977 0.0
H3565 H 0.10825 0.49298 0.11032 0.0
H3566 H 0.08081 0.47697 0.09557 0.0
H3567 H 0.08603 0.48598 0.12784 0.0
C3568 C 0.793 0.85105 0.45664 0.0
C3569 C 0.80566 0.84199 0.47328 0.0
C3570 C 0.79048 0.84259 0.43162 0.0
C3571 C 0.80048 0.82425 0.42282 0.0
C3572 C 0.81259 0.81447 0.43956 0.0
C3573 C 0.81521 0.82355 0.46443 0.0
C3574 C 0.77773 0.85386 0.41454 0.0
C3575 C 0.82315 0.7946 0.43116 0.0
C3576 C 0.77835 0.78979 0.35901 0.0
C3577 C 0.79503 0.79898 0.34569 0.0
C3578 C 0.78002 0.79762 0.38403 0.0
C3579 C 0.79858 0.81554 0.39613 0.0
C3580 C 0.81537 0.82503 0.38268 0.0
C3581 C 0.8135 0.81651 0.35776 0.0
C3582 C 0.76197 0.78655 0.39757 0.0
C3583 C 0.83525 0.84443 0.39454 0.0
H3584 H 0.78577 0.86546 0.46308 0.0
H3585 H 0.82504 0.81636 0.47698 0.0
H3586 H 0.78905 0.86178 0.40248 0.0
H3587 H 0.76387 0.84052 0.40293 0.0
H3588 H 0.77061 0.86764 0.42415 0.0
H3589 H 0.831 0.78806 0.44643 0.0
H3590 H 0.81034 0.77993 0.41981 0.0
H3591 H 0.83618 0.8004 0.41985 0.0
H3592 H 0.76405 0.77617 0.34992 0.0
H3593 H 0.82632 0.82396 0.34761 0.0
H3594 H 0.75378 0.79996 0.40601 0.0
H3595 H 0.76951 0.77914 0.41231 0.0
H3596 H 0.74891 0.77244 0.38571 0.0
H3597 H 0.82939 0.8596 0.40317 0.0
H3598 H 0.8466 0.85027 0.38153 0.0
H3599 H 0.84498 0.83853 0.40894 0.0
C3600 C 0.49841 0.52948 0.84329 0.0
C3601 C 0.47629 0.51788 0.83385 0.0
C3602 C 0.50686 0.52978 0.86738 0.0
C3603 C 0.49307 0.51751 0.88203 0.0
C3604 C 0.47108 0.50468 0.87201 0.0
C3605 C 0.46281 0.50543 0.84818 0.0
C3606 C 0.53006 0.54432 0.87753 0.0
C3607 C 0.45591 0.49116 0.88686 0.0
C3608 C 0.52023 0.50714 0.94181 0.0
C3609 C 0.51453 0.52405 0.95852 0.0
C3610 C 0.51331 0.50466 0.9169 0.0
C3611 C 0.50078 0.51982 0.90834 0.0
C3612 C 0.49534 0.53722 0.92504 0.0
C3613 C 0.50221 0.53906 0.94979 0.0
C3614 C 0.51888 0.48541 0.8998 0.0
C3615 C 0.48257 0.55426 0.91688 0.0
H3616 H 0.50866 0.53943 0.83225 0.0
H3617 H 0.44566 0.49655 0.84083 0.0
H3618 H 0.52882 0.55894 0.89159 0.0
H3619 H 0.54009 0.5337 0.88626 0.0
H3620 H 0.53914 0.55171 0.86348 0.0
H3621 H 0.44033 0.48007 0.87574 0.0
H3622 H 0.46479 0.47988 0.89606 0.0
H3623 H 0.45119 0.50349 0.90102 0.0
H3624 H 0.52989 0.49564 0.94808 0.0
H3625 H 0.49794 0.55248 0.96232 0.0
H3626 H 0.52622 0.49227 0.88454 0.0
H3627 H 0.50324 0.47205 0.89213 0.0
H3628 H 0.53079 0.47681 0.90885 0.0
H3629 H 0.49411 0.56786 0.90983 0.0
H3630 H 0.4754 0.5629 0.93187 0.0
H3631 H 0.46864 0.54558 0.90224 0.0
C3632 C 0.80761 0.20238 0.11358 0.0
C3633 C 0.79525 0.1794 0.10512 0.0
C3634 C 0.80235 0.21604 0.13357 0.0
C3635 C 0.78454 0.20632 0.14556 0.0
C3636 C 0.77159 0.18338 0.13673 0.0
C3637 C 0.77703 0.17022 0.11651 0.0
C3638 C 0.81631 0.24061 0.14236 0.0
C3639 C 0.75261 0.17242 0.14922 0.0
C3640 C 0.79267 0.23092 0.21196 0.0
C3641 C 0.77933 0.24725 0.21286 0.0
C3642 C 0.79381 0.21692 0.19025 0.0
C3643 C 0.78126 0.21924 0.16885 0.0
C3644 C 0.76688 0.23483 0.16972 0.0
C3645 C 0.76606 0.24869 0.1918 0.0
C3646 C 0.80924 0.20036 0.19012 0.0
C3647 C 0.75309 0.23756 0.14723 0.0
H3648 H 0.82144 0.20971 0.1046 0.0
H3649 H 0.76734 0.15248 0.11 0.0
H3650 H 0.80533 0.25305 0.14455 0.0
H3651 H 0.82596 0.24171 0.16028 0.0
H3652 H 0.82828 0.24624 0.12985 0.0
H3653 H 0.74274 0.15538 0.13869 0.0
H3654 H 0.75946 0.16957 0.1671 0.0
H3655 H 0.74117 0.18426 0.15239 0.0
H3656 H 0.80296 0.22954 0.22807 0.0
H3657 H 0.75552 0.2611 0.19246 0.0
H3658 H 0.8231 0.20611 0.17977 0.0
H3659 H 0.80004 0.18252 0.18109 0.0
H3660 H 0.81663 0.19949 0.20857 0.0
H3661 H 0.76436 0.24617 0.13553 0.0
H3662 H 0.7408 0.24823 0.15137 0.0
H3663 H 0.74394 0.22024 0.13679 0.0
C3664 C 0.13761 0.5257 0.30479 0.0
C3665 C 0.16032 0.53498 0.30383 0.0
C3666 C 0.12738 0.53344 0.3244 0.0
C3667 C 0.13996 0.55168 0.3428 0.0
C3668 C 0.16296 0.56093 0.34201 0.0
C3669 C 0.17302 0.55196 0.32283 0.0
C3670 C 0.10309 0.52237 0.32521 0.0
C3671 C 0.17673 0.58094 0.36091 0.0
C3672 C 0.10938 0.58912 0.38087 0.0
C3673 C 0.11192 0.58143 0.40297 0.0
C3674 C 0.11826 0.57945 0.36098 0.0
C3675 C 0.12923 0.56114 0.36303 0.0
C3676 C 0.13111 0.5527 0.38492 0.0
C3677 C 0.12301 0.56334 0.40475 0.0
C3678 C 0.11639 0.58921 0.33798 0.0
C3679 C 0.14201 0.53264 0.38753 0.0
H3680 H 0.12781 0.51249 0.29004 0.0
H3681 H 0.1905 0.55917 0.32214 0.0
H3682 H 0.10108 0.51703 0.34293 0.0
H3683 H 0.09276 0.5352 0.32309 0.0
H3684 H 0.09643 0.50681 0.31079 0.0
H3685 H 0.19418 0.5867 0.35714 0.0
H3686 H 0.16879 0.59603 0.36183 0.0
H3687 H 0.1773 0.57579 0.3789 0.0
H3688 H 0.10054 0.60275 0.37908 0.0
H3689 H 0.12575 0.5576 0.4218 0.0
H3690 H 0.10739 0.57523 0.32281 0.0
H3691 H 0.13339 0.596 0.33348 0.0
H3692 H 0.10742 0.60354 0.33937 0.0
H3693 H 0.1349 0.51781 0.37246 0.0
H3694 H 0.13974 0.5264 0.4048 0.0
H3695 H 0.16023 0.53818 0.38674 0.0
C3696 C 0.81928 0.85425 0.62248 0.0
C3697 C 0.80201 0.84901 0.60289 0.0
C3698 C 0.81526 0.84903 0.64523 0.0
C3699 C 0.79351 0.83749 0.64857 0.0
C3700 C 0.7759 0.83216 0.6289 0.0
C3701 C 0.78026 0.8384 0.60644 0.0
C3702 C 0.83447 0.85562 0.66567 0.0
C3703 C 0.75261 0.8193 0.63143 0.0
C3704 C 0.79363 0.80032 0.69752 0.0
C3705 C 0.78725 0.81381 0.71704 0.0
C3706 C 0.79479 0.80743 0.67511 0.0
C3707 C 0.79 0.82901 0.67187 0.0
C3708 C 0.7835 0.84284 0.6914 0.0
C3709 C 0.78203 0.835 0.71367 0.0
C3710 C 0.80157 0.79188 0.65496 0.0
C3711 C 0.77872 0.86621 0.689 0.0
H3712 H 0.83605 0.86298 0.62016 0.0
H3713 H 0.76678 0.83449 0.59151 0.0
H3714 H 0.82962 0.86524 0.68184 0.0
H3715 H 0.83866 0.83961 0.67065 0.0
H3716 H 0.84977 0.86662 0.66088 0.0
H3717 H 0.74054 0.81726 0.61488 0.0
H3718 H 0.75301 0.80169 0.63535 0.0
H3719 H 0.74644 0.82867 0.64681 0.0
H3720 H 0.79782 0.78393 0.69966 0.0
H3721 H 0.77701 0.84556 0.72848 0.0
H3722 H 0.81806 0.80062 0.6506 0.0
H3723 H 0.78924 0.78872 0.63843 0.0
H3724 H 0.80286 0.77475 0.65969 0.0
H3725 H 0.79452 0.87865 0.68755 0.0
H3726 H 0.77146 0.87358 0.70469 0.0
H3727 H 0.76699 0.86469 0.67235 0.0
C3728 C 0.72224 0.45045 0.4986 0.0
C3729 C 0.73782 0.46708 0.49018 0.0
C3730 C 0.70232 0.45538 0.50524 0.0
C3731 C 0.69818 0.47758 0.50369 0.0
C3732 C 0.71258 0.49331 0.49253 0.0
C3733 C 0.73227 0.48777 0.48572 0.0
C3734 C 0.68705 0.43788 0.51643 0.0
C3735 C 0.70867 0.5171 0.49039 0.0
C3736 C 0.64448 0.49125 0.52254 0.0
C3737 C 0.65149 0.50083 0.54698 0.0
C3738 C 0.65947 0.48358 0.50799 0.0
C3739 C 0.68193 0.486 0.51817 0.0
C3740 C 0.68907 0.496 0.54281 0.0
C3741 C 0.67366 0.50308 0.55697 0.0
C3742 C 0.65125 0.47266 0.48192 0.0
C3743 C 0.71303 0.49929 0.55425 0.0
H3744 H 0.72633 0.43421 0.50159 0.0
H3745 H 0.74422 0.5006 0.47901 0.0
H3746 H 0.69002 0.44337 0.53631 0.0
H3747 H 0.6692 0.43704 0.51027 0.0
H3748 H 0.69013 0.42012 0.51207 0.0
H3749 H 0.71829 0.52497 0.47694 0.0
H3750 H 0.69064 0.51619 0.48524 0.0
H3751 H 0.71417 0.52886 0.50812 0.0
H3752 H 0.62724 0.48958 0.51493 0.0
H3753 H 0.67904 0.51085 0.5758 0.0
H3754 H 0.65209 0.45406 0.479 0.0
H3755 H 0.66217 0.48143 0.47004 0.0
H3756 H 0.63371 0.47359 0.47637 0.0
H3757 H 0.71729 0.48207 0.5536 0.0
H3758 H 0.71601 0.50829 0.57334 0.0
H3759 H 0.72464 0.50967 0.54408 0.0
C3760 C 0.18737 0.13609 0.50886 0.0
C3761 C 0.20119 0.12455 0.49589 0.0
C3762 C 0.16601 0.12402 0.51238 0.0
C3763 C 0.15826 0.09991 0.50259 0.0
C3764 C 0.17194 0.08834 0.48906 0.0
C3765 C 0.19319 0.10075 0.48592 0.0
C3766 C 0.15188 0.13696 0.52693 0.0
C3767 C 0.16424 0.06271 0.47815 0.0
C3768 C 0.11301 0.06135 0.5292 0.0
C3769 C 0.09384 0.06017 0.51311 0.0
C3770 C 0.13402 0.07466 0.52631 0.0
C3771 C 0.13593 0.0866 0.50654 0.0
C3772 C 0.11662 0.08511 0.49004 0.0
C3773 C 0.09578 0.07211 0.49367 0.0
C3774 C 0.15412 0.07614 0.54454 0.0
C3775 C 0.11797 0.09718 0.46848 0.0
H3776 H 0.19343 0.15443 0.5167 0.0
H3777 H 0.20366 0.09165 0.47581 0.0
H3778 H 0.13549 0.13557 0.51605 0.0
H3779 H 0.14838 0.1289 0.54295 0.0
H3780 H 0.16017 0.15573 0.53307 0.0
H3781 H 0.17663 0.05642 0.46758 0.0
H3782 H 0.16132 0.05222 0.49258 0.0
H3783 H 0.14808 0.0594 0.46616 0.0
H3784 H 0.11147 0.05245 0.54448 0.0
H3785 H 0.08095 0.0712 0.48119 0.0
H3786 H 0.16193 0.09467 0.5525 0.0
H3787 H 0.1669 0.06891 0.53555 0.0
H3788 H 0.14969 0.06648 0.55931 0.0
H3789 H 0.12479 0.11623 0.47449 0.0
H3790 H 0.10138 0.0943 0.45737 0.0
H3791 H 0.12962 0.09068 0.45699 0.0
C3792 C 0.18334 0.99139 0.76318 0.0
C3793 C 0.1883 1.00318 0.78714 0.0
C3794 C 0.19409 0.97376 0.75493 0.0
C3795 C 0.21019 0.96778 0.77099 0.0
C3796 C 0.21556 0.97988 0.79505 0.0
C3797 C 0.20462 0.99741 0.8028 0.0
C3798 C 0.18796 0.96126 0.72909 0.0
C3799 C 0.23265 0.97409 0.81273 0.0
C3800 C 0.22229 0.90779 0.75441 0.0
C3801 C 0.24121 0.91313 0.74277 0.0
C3802 C 0.21221 0.92547 0.76414 0.0
C3803 C 0.22155 0.949 0.76247 0.0
C3804 C 0.24135 0.95452 0.75183 0.0
C3805 C 0.2508 0.93648 0.74188 0.0
C3806 C 0.1911 0.91888 0.77532 0.0
C3807 C 0.25218 0.97941 0.75029 0.0
H3808 H 0.17075 0.9956 0.75095 0.0
H3809 H 0.20864 0.00634 0.82138 0.0
H3810 H 0.20311 0.96316 0.7199 0.0
H3811 H 0.1813 0.94232 0.72854 0.0
H3812 H 0.17521 0.96803 0.71885 0.0
H3813 H 0.23536 0.98556 0.83066 0.0
H3814 H 0.22708 0.95569 0.81511 0.0
H3815 H 0.24892 0.97581 0.80565 0.0
H3816 H 0.21482 0.88969 0.75494 0.0
H3817 H 0.26554 0.94057 0.73299 0.0
H3818 H 0.17694 0.92303 0.76449 0.0
H3819 H 0.19305 0.92921 0.79372 0.0
H3820 H 0.18667 0.90002 0.7764 0.0
H3821 H 0.24077 0.98636 0.73847 0.0
H3822 H 0.26839 0.98092 0.74304 0.0
H3823 H 0.25518 0.99061 0.76837 0.0
C3824 C 0.36932 0.9895 0.97803 0.0
C3825 C 0.35865 0.99494 0.99794 0.0
C3826 C 0.39251 0.99803 0.97921 0.0
C3827 C 0.40486 0.01211 0.00082 0.0
C3828 C 0.3937 0.01899 0.02025 0.0
C3829 C 0.37063 0.01017 0.01858 0.0
C3830 C 0.404 0.99057 0.95814 0.0
C3831 C 0.40633 0.03392 0.04359 0.0
C3832 C 0.4645 0.00772 0.01742 0.0
C3833 C 0.4766 0.02861 0.01212 0.0
C3834 C 0.44104 1.00212 0.01377 0.0
C3835 C 0.42957 0.01765 0.00421 0.0
C3836 C 0.44168 0.03881 0.99897 0.0
C3837 C 0.46506 0.04423 0.00339 0.0
C3838 C 0.42855 0.97958 0.02008 0.0
C3839 C 0.42996 0.05566 0.98862 0.0
H3840 H 0.35991 0.97721 0.96237 0.0
H3841 H 0.36217 0.01387 0.03406 0.0
H3842 H 0.41471 0.00606 0.95302 0.0
H3843 H 0.41513 0.97926 0.96333 0.0
H3844 H 0.39184 0.9808 0.94218 0.0
H3845 H 0.39489 0.03974 0.05584 0.0
H3846 H 0.41645 0.02378 0.05299 0.0
H3847 H 0.41809 0.04955 0.04005 0.0
H3848 H 0.47333 0.99564 0.02421 0.0
H3849 H 0.47427 0.06058 0.99956 0.0
H3850 H 0.4177 0.96849 0.00385 0.0
H3851 H 0.41747 0.98334 0.03364 0.0
H3852 H 0.44004 0.96952 0.02743 0.0
H3853 H 0.41898 0.0467 0.97159 0.0
H3854 H 0.44195 0.07108 0.98489 0.0
H3855 H 0.41908 0.06184 0.00132 0.0
C3856 C 0.82616 0.56472 0.78001 0.0
C3857 C 0.82945 0.56559 0.80498 0.0
C3858 C 0.81874 0.58232 0.77035 0.0
C3859 C 0.81374 0.60072 0.78606 0.0
C3860 C 0.81371 0.59971 0.81085 0.0
C3861 C 0.82184 0.58211 0.82018 0.0
C3862 C 0.81916 0.58274 0.74381 0.0
C3863 C 0.80736 0.61843 0.8279 0.0
C3864 C 0.83242 0.6583 0.76566 0.0
C3865 C 0.81262 0.66005 0.75242 0.0
C3866 C 0.8327 0.63962 0.77787 0.0
C3867 C 0.8126 0.62249 0.77704 0.0
C3868 C 0.79236 0.62475 0.7647 0.0
C3869 C 0.79267 0.64331 0.7522 0.0
C3870 C 0.85471 0.63772 0.79082 0.0
C3871 C 0.77056 0.60712 0.76392 0.0
H3872 H 0.83161 0.55155 0.76822 0.0
H3873 H 0.82416 0.58263 0.83948 0.0
H3874 H 0.80362 0.58659 0.73556 0.0
H3875 H 0.83345 0.59679 0.74155 0.0
H3876 H 0.82108 0.56594 0.73376 0.0
H3877 H 0.80243 0.61207 0.84445 0.0
H3878 H 0.82194 0.63361 0.83333 0.0
H3879 H 0.79335 0.62458 0.81915 0.0
H3880 H 0.84774 0.67149 0.76641 0.0
H3881 H 0.77729 0.64443 0.74185 0.0
H3882 H 0.85934 0.62177 0.78216 0.0
H3883 H 0.85308 0.6361 0.80981 0.0
H3884 H 0.86856 0.65306 0.79065 0.0
H3885 H 0.77038 0.59088 0.75136 0.0
H3886 H 0.75585 0.61373 0.7577 0.0
H3887 H 0.76875 0.60247 0.78195 0.0
C3888 C 0.82 0.62454 0.02363 0.0
C3889 C 0.82269 0.64872 0.02527 0.0
C3890 C 0.83858 0.61475 0.02704 0.0
C3891 C 0.86034 0.62958 0.03298 0.0
C3892 C 0.86312 0.65406 0.03487 0.0
C3893 C 0.84426 0.66332 0.03063 0.0
C3894 C 0.83493 0.58855 0.02423 0.0
C3895 C 0.886 0.67049 0.04166 0.0
C3896 C 0.90607 0.60935 0.06791 0.0
C3897 C 0.91913 0.60384 0.05006 0.0
C3898 C 0.88657 0.61708 0.06241 0.0
C3899 C 0.88008 0.61965 0.03848 0.0
C3900 C 0.89286 0.61345 0.02019 0.0
C3901 C 0.91222 0.60545 0.02619 0.0
C3902 C 0.87322 0.62308 0.08235 0.0
C3903 C 0.88644 0.6159 0.99447 0.0
H3904 H 0.80334 0.61316 0.019 0.0
H3905 H 0.84637 0.68199 0.03184 0.0
H3906 H 0.84512 0.58213 0.01085 0.0
H3907 H 0.84054 0.58375 0.0416 0.0
H3908 H 0.81707 0.57941 0.01832 0.0
H3909 H 0.88534 0.68903 0.04215 0.0
H3910 H 0.89355 0.66862 0.05967 0.0
H3911 H 0.89727 0.66596 0.02862 0.0
H3912 H 0.91134 0.60786 0.08633 0.0
H3913 H 0.92239 0.60126 0.01242 0.0
H3914 H 0.85553 0.6131 0.07755 0.0
H3915 H 0.87322 0.6419 0.08474 0.0
H3916 H 0.88006 0.61926 0.0998 0.0
H3917 H 0.86874 0.60656 0.98801 0.0
H3918 H 0.89729 0.60898 0.98214 0.0
H3919 H 0.8878 0.63458 0.99347 0.0
C3920 C 0.2067 0.12698 0.82375 0.0
C3921 C 0.18783 0.1138 0.8077 0.0
C3922 C 0.21967 0.14775 0.81879 0.0
C3923 C 0.21368 0.15564 0.79725 0.0
C3924 C 0.19463 0.14252 0.78102 0.0
C3925 C 0.18197 0.1218 0.78641 0.0
C3926 C 0.23982 0.16129 0.8366 0.0
C3927 C 0.18758 0.15041 0.75794 0.0
C3928 C 0.23433 0.2202 0.79562 0.0
C3929 C 0.2525 0.22037 0.78253 0.0
C3930 C 0.2215 0.1993 0.80032 0.0
C3931 C 0.22703 0.17792 0.792 0.0
C3932 C 0.2453 0.1779 0.77874 0.0
C3933 C 0.25766 0.19908 0.77396 0.0
C3934 C 0.20201 0.20014 0.81426 0.0
C3935 C 0.25182 0.15548 0.76968 0.0
H3936 H 0.21144 0.12103 0.84023 0.0
H3937 H 0.16748 0.11182 0.77382 0.0
H3938 H 0.2551 0.16342 0.82762 0.0
H3939 H 0.23769 0.17905 0.84331 0.0
H3940 H 0.24253 0.1526 0.85229 0.0
H3941 H 0.17244 0.13817 0.74714 0.0
H3942 H 0.18403 0.16794 0.7621 0.0
H3943 H 0.20141 0.15197 0.74679 0.0
H3944 H 0.23008 0.23648 0.80234 0.0
H3945 H 0.2714 0.19893 0.76351 0.0
H3946 H 0.20472 0.19316 0.83109 0.0
H3947 H 0.18634 0.18893 0.8035 0.0
H3948 H 0.19962 0.21814 0.81903 0.0
H3949 H 0.25569 0.14677 0.78502 0.0
H3950 H 0.26663 0.15844 0.75996 0.0
H3951 H 0.2376 0.1433 0.75737 0.0
C3952 C 0.35466 0.9524 0.29082 0.0
C3953 C 0.34264 0.96547 0.30475 0.0
C3954 C 0.34671 0.92829 0.28345 0.0
C3955 C 0.32599 0.91722 0.28969 0.0
C3956 C 0.31302 0.9306 0.30229 0.0
C3957 C 0.32173 0.95463 0.31011 0.0
C3958 C 0.36129 0.9145 0.27065 0.0
C3959 C 0.29051 0.91932 0.30859 0.0
C3960 C 0.29891 0.85413 0.26219 0.0
C3961 C 0.30503 0.84304 0.28092 0.0
C3962 C 0.30618 0.8784 0.26439 0.0
C3963 C 0.31937 0.89149 0.28601 0.0
C3964 C 0.32593 0.88004 0.30471 0.0
C3965 C 0.3187 0.85583 0.30185 0.0
C3966 C 0.29904 0.89007 0.24406 0.0
C3967 C 0.33996 0.89338 0.32806 0.0
H3968 H 0.37099 0.96078 0.28695 0.0
H3969 H 0.31242 0.96487 0.32073 0.0
H3970 H 0.36811 0.90418 0.28304 0.0
H3971 H 0.35134 0.90198 0.25477 0.0
H3972 H 0.37557 0.92597 0.26461 0.0
H3973 H 0.28128 0.93244 0.31546 0.0
H3974 H 0.28005 0.90742 0.29258 0.0
H3975 H 0.29289 0.90863 0.32263 0.0
H3976 H 0.28807 0.8439 0.24617 0.0
H3977 H 0.32306 0.84691 0.31633 0.0
H3978 H 0.31363 0.90238 0.23962 0.0
H3979 H 0.28692 0.90039 0.24976 0.0
H3980 H 0.29104 0.87721 0.22753 0.0
H3981 H 0.34464 0.88161 0.34012 0.0
H3982 H 0.33051 0.9048 0.33777 0.0
H3983 H 0.35551 0.90479 0.32436 0.0
C3984 C 0.53755 0.37156 0.57667 0.0
C3985 C 0.55529 0.36044 0.57306 0.0
C3986 C 0.53702 0.39337 0.56984 0.0
C3987 C 0.55442 0.40488 0.55831 0.0
C3988 C 0.57251 0.39387 0.55455 0.0
C3989 C 0.57292 0.37211 0.56222 0.0
C3990 C 0.51764 0.40416 0.57509 0.0
C3991 C 0.59125 0.40489 0.5419 0.0
C3992 C 0.53839 0.45049 0.52163 0.0
C3993 C 0.54691 0.47195 0.5375 0.0
C3994 C 0.54129 0.4289 0.52773 0.0
C3995 C 0.55328 0.42821 0.55035 0.0
C3996 C 0.56253 0.44992 0.56614 0.0
C3997 C 0.55933 0.47123 0.55959 0.0
C3998 C 0.53085 0.40667 0.51004 0.0
C3999 C 0.57554 0.45066 0.59037 0.0
H4000 H 0.52386 0.36315 0.58522 0.0
H4001 H 0.58669 0.36396 0.55907 0.0
H4002 H 0.52399 0.42192 0.58606 0.0
H4003 H 0.5083 0.40606 0.55801 0.0
H4004 H 0.50578 0.39359 0.58492 0.0
H4005 H 0.60396 0.39433 0.53993 0.0
H4006 H 0.58432 0.407 0.52374 0.0
H4007 H 0.59964 0.42258 0.55203 0.0
H4008 H 0.52934 0.45044 0.50426 0.0
H4009 H 0.56627 0.4874 0.57217 0.0
H4010 H 0.51578 0.39714 0.51656 0.0
H4011 H 0.54268 0.39508 0.5085 0.0
H4012 H 0.52566 0.41014 0.49186 0.0
H4013 H 0.56543 0.43886 0.60063 0.0
H4014 H 0.58043 0.46853 0.60131 0.0
H4015 H 0.59095 0.44439 0.58783 0.0
C4016 C 0.44128 0.77404 0.3724 0.0
C4017 C 0.44171 0.77018 0.39628 0.0
C4018 C 0.42125 0.77438 0.35825 0.0
C4019 C 0.40093 0.77155 0.36829 0.0
C4020 C 0.40126 0.76804 0.39256 0.0
C4021 C 0.42152 0.767 0.40612 0.0
C4022 C 0.42182 0.77745 0.33235 0.0
C4023 C 0.38022 0.76562 0.40429 0.0
C4024 C 0.35562 0.79502 0.33516 0.0
C4025 C 0.34084 0.77451 0.32239 0.0
C4026 C 0.37447 0.79423 0.35108 0.0
C4027 C 0.37956 0.77245 0.35327 0.0
C4028 C 0.36487 0.75169 0.33988 0.0
C4029 C 0.34544 0.75295 0.32509 0.0
C4030 C 0.389 0.81679 0.3655 0.0
C4031 C 0.37006 0.72818 0.34053 0.0
H4032 H 0.45667 0.77624 0.36443 0.0
H4033 H 0.42162 0.76404 0.42451 0.0
H4034 H 0.40948 0.7629 0.32023 0.0
H4035 H 0.41701 0.79387 0.3297 0.0
H4036 H 0.43865 0.77804 0.3268 0.0
H4037 H 0.38334 0.76397 0.42352 0.0
H4038 H 0.37306 0.78104 0.40312 0.0
H4039 H 0.36743 0.75002 0.3946 0.0
H4040 H 0.35216 0.81173 0.33302 0.0
H4041 H 0.33422 0.73709 0.31495 0.0
H4042 H 0.40561 0.82035 0.35916 0.0
H4043 H 0.39187 0.81538 0.3848 0.0
H4044 H 0.3814 0.83188 0.36392 0.0
H4045 H 0.38645 0.728 0.33415 0.0
H4046 H 0.35704 0.71371 0.32909 0.0
H4047 H 0.3715 0.72487 0.35927 0.0
C4048 C 0.06813 0.72276 0.07962 0.0
C4049 C 0.04975 0.7318 0.07219 0.0
C4050 C 0.06781 0.69861 0.07341 0.0
C4051 C 0.04856 0.68261 0.0596 0.0
C4052 C 0.03018 0.69172 0.0517 0.0
C4053 C 0.03104 0.71589 0.05789 0.0
C4054 C 0.08796 0.69008 0.08217 0.0
C4055 C 0.00916 0.67574 0.0372 0.0
C4056 C 0.04978 0.62094 0.02683 0.0
C4057 C 0.04142 0.60628 0.04276 0.0
C4058 C 0.0529 0.64559 0.03234 0.0
C4059 C 0.04709 0.65635 0.05418 0.0
C4060 C 0.03886 0.64167 0.07043 0.0
C4061 C 0.03637 0.61715 0.06469 0.0
C4062 C 0.06248 0.66017 0.01466 0.0
C4063 C 0.03209 0.65181 0.0938 0.0
H4064 H 0.08269 0.73449 0.09077 0.0
H4065 H 0.01657 0.72221 0.05198 0.0
H4066 H 0.08339 0.67816 0.09504 0.0
H4067 H 0.09355 0.67996 0.06684 0.0
H4068 H 0.10219 0.70466 0.09126 0.0
H4069 H 0.99649 0.68539 0.03181 0.0
H4070 H 0.01328 0.6659 0.0207 0.0
H4071 H 1.00159 0.66275 0.04791 0.0
H4072 H 0.05365 0.61314 0.00976 0.0
H4073 H 0.03046 0.60646 0.07757 0.0
H4074 H 0.07866 0.67212 0.02329 0.0
H4075 H 0.05104 0.67118 0.00949 0.0
H4076 H 0.06537 0.64933 0.99809 0.0
H4077 H 0.04517 0.66721 0.10339 0.0
H4078 H 0.02905 0.63888 0.10599 0.0
H4079 H 0.0165 0.65781 0.08988 0.0
C4080 C 0.06662 0.26371 0.86632 0.0
C4081 C 0.064 0.27171 0.89024 0.0
C4082 C 0.08751 0.26913 0.85803 0.0
C4083 C 0.10643 0.28295 0.87399 0.0
C4084 C 0.104 0.29093 0.89823 0.0
C4085 C 0.08285 0.28523 0.90606 0.0
C4086 C 0.08925 0.26024 0.83207 0.0
C4087 C 0.12374 0.30569 0.91584 0.0
C4088 C 0.1647 0.28086 0.85787 0.0
C4089 C 0.17062 0.30143 0.84853 0.0
C4090 C 0.14389 0.27462 0.86622 0.0
C4091 C 0.12864 0.2893 0.86516 0.0
C4092 C 0.13456 0.30998 0.85541 0.0
C4093 C 0.15554 0.31585 0.84734 0.0
C4094 C 0.13833 0.25247 0.87647 0.0
C4095 C 0.11881 0.32602 0.85369 0.0
H4096 H 0.05224 0.25323 0.85388 0.0
H4097 H 0.08106 0.29152 0.92455 0.0
H4098 H 0.09484 0.27518 0.82285 0.0
H4099 H 0.10202 0.24969 0.83116 0.0
H4100 H 0.07307 0.24936 0.82205 0.0
H4101 H 0.11926 0.3101 0.93417 0.0
H4102 H 0.13744 0.29636 0.917 0.0
H4103 H 0.13039 0.32216 0.90941 0.0
H4104 H 0.17654 0.26989 0.859 0.0
H4105 H 0.16029 0.33186 0.8403 0.0
H4106 H 0.1226 0.2408 0.86631 0.0
H4107 H 0.13546 0.25666 0.89546 0.0
H4108 H 0.15187 0.24286 0.87583 0.0
H4109 H 0.10258 0.31628 0.8429 0.0
H4110 H 0.12575 0.34121 0.84531 0.0
H4111 H 0.11528 0.33258 0.87193 0.0
C4112 C 0.55929 0.75196 0.90468 0.0
C4113 C 0.53792 0.75433 0.89604 0.0
C4114 C 0.56176 0.73365 0.91727 0.0
C4115 C 0.54244 0.71736 0.92094 0.0
C4116 C 0.52097 0.71952 0.91169 0.0
C4117 C 0.51904 0.73783 0.89951 0.0
C4118 C 0.58492 0.73203 0.92703 0.0
C4119 C 0.4998 0.7025 0.91469 0.0
C4120 C 0.53556 0.65531 0.93112 0.0
C4121 C 0.53058 0.65743 0.95479 0.0
C4122 C 0.54248 0.67515 0.9207 0.0
C4123 C 0.54384 0.69764 0.93407 0.0
C4124 C 0.54084 0.69989 0.95873 0.0
C4125 C 0.53431 0.67972 0.96883 0.0
C4126 C 0.54592 0.67182 0.89457 0.0
C4127 C 0.5421 0.72344 0.97371 0.0
H4128 H 0.57394 0.76462 0.90212 0.0
H4129 H 0.50242 0.73915 0.89252 0.0
H4130 H 0.58733 0.73649 0.94698 0.0
H4131 H 0.58696 0.71394 0.92219 0.0
H4132 H 0.59821 0.7441 0.92022 0.0
H4133 H 0.4844 0.70667 0.90635 0.0
H4134 H 0.50012 0.68451 0.90635 0.0
H4135 H 0.4987 0.7026 0.9341 0.0
H4136 H 0.53277 0.63804 0.9203 0.0
H4137 H 0.53038 0.68137 0.98713 0.0
H4138 H 0.56021 0.68543 0.89153 0.0
H4139 H 0.53068 0.6734 0.88336 0.0
H4140 H 0.54904 0.65435 0.88835 0.0
H4141 H 0.55652 0.73667 0.97031 0.0
H4142 H 0.54364 0.72282 0.99328 0.0
H4143 H 0.52662 0.72925 0.96861 0.0
C4144 C 0.10877 0.76907 0.72146 0.0
C4145 C 0.0954 0.76013 0.73814 0.0
C4146 C 0.1325 0.77206 0.72489 0.0
C4147 C 0.14356 0.76637 0.74572 0.0
C4148 C 0.13014 0.75774 0.76276 0.0
C4149 C 0.10654 0.75462 0.75872 0.0
C4150 C 0.14577 0.78096 0.70595 0.0
C4151 C 0.14075 0.75168 0.78541 0.0
C4152 C 0.20263 0.7535 0.74698 0.0
C4153 C 0.21689 0.77457 0.75952 0.0
C4154 C 0.17905 0.75068 0.74216 0.0
C4155 C 0.169 0.7694 0.74986 0.0
C4156 C 0.18336 0.79079 0.76234 0.0
C4157 C 0.20688 0.79312 0.76689 0.0
C4158 C 0.16486 0.72749 0.72884 0.0
C4159 C 0.17383 0.81127 0.77127 0.0
H4160 H 0.10065 0.77325 0.70538 0.0
H4161 H 0.09671 0.74775 0.77192 0.0
H4162 H 0.15852 0.79721 0.71406 0.0
H4163 H 0.1549 0.76791 0.69871 0.0
H4164 H 0.13496 0.7846 0.69077 0.0
H4165 H 0.12823 0.74564 0.79721 0.0
H4166 H 0.14973 0.73774 0.7807 0.0
H4167 H 0.15334 0.76714 0.79576 0.0
H4168 H 0.20994 0.73918 0.74057 0.0
H4169 H 0.21746 0.80955 0.77656 0.0
H4170 H 0.15421 0.73006 0.71296 0.0
H4171 H 0.1535 0.7194 0.74074 0.0
H4172 H 0.17515 0.71516 0.72268 0.0
H4173 H 0.16409 0.81602 0.75603 0.0
H4174 H 0.18707 0.82685 0.78026 0.0
H4175 H 0.16211 0.8064 0.78423 0.0
C4176 C 0.02167 0.37892 0.40699 0.0
C4177 C 0.03876 0.36871 0.39902 0.0
C4178 C 0.02643 0.40109 0.42169 0.0
C4179 C 0.04896 0.41361 0.42908 0.0
C4180 C 0.06638 0.40375 0.42067 0.0
C4181 C 0.06108 0.3815 0.4056 0.0
C4182 C 0.00723 0.41086 0.42977 0.0
C4183 C 0.09062 0.41646 0.42805 0.0
C4184 C 0.05457 0.47801 0.45534 0.0
C4185 C 0.05485 0.47759 0.48014 0.0
C4186 C 0.05414 0.45772 0.43861 0.0
C4187 C 0.05389 0.43629 0.44668 0.0
C4188 C 0.05584 0.43618 0.47176 0.0
C4189 C 0.05677 0.45682 0.48804 0.0
C4190 C 0.05273 0.45902 0.41216 0.0
C4191 C 0.05574 0.41391 0.48142 0.0
H4192 H 1.00433 0.36949 0.40174 0.0
H4193 H 0.07442 0.37386 0.39955 0.0
H4194 H 0.00827 0.413 0.44967 0.0
H4195 H 0.0083 0.42838 0.42493 0.0
H4196 H 0.99062 0.39945 0.42159 0.0
H4197 H 0.10208 0.40753 0.41844 0.0
H4198 H 0.09325 0.43458 0.42448 0.0
H4199 H 0.09523 0.41766 0.4477 0.0
H4200 H 0.05385 0.494 0.44875 0.0
H4201 H 0.05887 0.45654 0.50697 0.0
H4202 H 0.03549 0.4505 0.40309 0.0
H4203 H 0.0643 0.44954 0.40351 0.0
H4204 H 0.05682 0.47734 0.40909 0.0
H4205 H 0.03906 0.40168 0.47578 0.0
H4206 H 0.05934 0.41703 0.50139 0.0
H4207 H 0.0683 0.40518 0.47386 0.0
C4208 C 0.43767 0.25233 0.21884 0.0
C4209 C 0.45781 0.2683 0.22992 0.0
C4210 C 0.41631 0.25448 0.22511 0.0
C4211 C 0.41435 0.27332 0.24285 0.0
C4212 C 0.43461 0.28966 0.25393 0.0
C4213 C 0.45581 0.28691 0.24754 0.0
C4214 C 0.3957 0.23624 0.21287 0.0
C4215 C 0.43389 0.31033 0.27252 0.0
C4216 C 0.35576 0.28825 0.24219 0.0
C4217 C 0.34714 0.27875 0.26151 0.0
C4218 C 0.37757 0.28734 0.23653 0.0
C4219 C 0.39128 0.27575 0.24974 0.0
C4220 C 0.38247 0.26598 0.26921 0.0
C4221 C 0.36095 0.26799 0.27509 0.0
C4222 C 0.38602 0.29902 0.21636 0.0
C4223 C 0.39567 0.25292 0.28367 0.0
H4224 H 0.43858 0.23772 0.20537 0.0
H4225 H 0.47093 0.29948 0.25642 0.0
H4226 H 0.38685 0.22794 0.22656 0.0
H4227 H 0.38391 0.24454 0.20321 0.0
H4228 H 0.39976 0.22241 0.19979 0.0
H4229 H 0.45088 0.32117 0.28012 0.0
H4230 H 0.4241 0.32141 0.26422 0.0
H4231 H 0.42526 0.30437 0.28745 0.0
H4232 H 0.34551 0.29689 0.2317 0.0
H4233 H 0.35465 0.26055 0.29004 0.0
H4234 H 0.38891 0.28579 0.20179 0.0
H4235 H 0.40232 0.31165 0.22304 0.0
H4236 H 0.37408 0.30842 0.20866 0.0
H4237 H 0.39911 0.23801 0.27158 0.0
H4238 H 0.38667 0.24614 0.29807 0.0
H4239 H 0.41208 0.2645 0.29208 0.0
C4240 C 0.61859 0.55716 0.37644 0.0
C4241 C 0.60477 0.55237 0.3542 0.0
C4242 C 0.60945 0.55581 0.39803 0.0
C4243 C 0.58592 0.54875 0.39732 0.0
C4244 C 0.57184 0.54457 0.37496 0.0
C4245 C 0.58144 0.54679 0.35371 0.0
C4246 C 0.62503 0.56135 0.42155 0.0
C4247 C 0.54671 0.53644 0.37326 0.0
C4248 C 0.56671 0.52046 0.45 0.0
C4249 C 0.55875 0.53806 0.46306 0.0
C4250 C 0.57481 0.52338 0.42807 0.0
C4251 C 0.57616 0.54493 0.41985 0.0
C4252 C 0.56838 0.56285 0.43333 0.0
C4253 C 0.55889 0.55878 0.45418 0.0
C4254 C 0.5816 0.50329 0.41352 0.0
C4255 C 0.5705 0.58648 0.42605 0.0
H4256 H 0.63662 0.56165 0.37694 0.0
H4257 H 0.57069 0.54276 0.33653 0.0
H4258 H 0.61948 0.57378 0.4349 0.0
H4259 H 0.6246 0.54518 0.42912 0.0
H4260 H 0.64263 0.56897 0.41934 0.0
H4261 H 0.53807 0.53488 0.35471 0.0
H4262 H 0.54248 0.51915 0.37887 0.0
H4263 H 0.54005 0.54867 0.38566 0.0
H4264 H 0.56584 0.50414 0.45651 0.0
H4265 H 0.55218 0.57216 0.46407 0.0
H4266 H 0.59985 0.50794 0.41264 0.0
H4267 H 0.57285 0.49965 0.39476 0.0
H4268 H 0.57765 0.4871 0.42129 0.0
H4269 H 0.58832 0.59421 0.42484 0.0
H4270 H 0.56439 0.59879 0.43904 0.0
H4271 H 0.56089 0.5847 0.40798 0.0
C4272 C 0.2921 0.88294 0.05683 0.0
C4273 C 0.30852 0.9039 0.06132 0.0
C4274 C 0.29077 0.86784 0.07373 0.0
C4275 C 0.30604 0.87431 0.0954 0.0
C4276 C 0.32139 0.89639 0.1006 0.0
C4277 C 0.3225 0.91081 0.08339 0.0
C4278 C 0.27397 0.8446 0.06793 0.0
C4279 C 0.33787 0.90417 0.12358 0.0
C4280 C 0.30825 0.84991 0.15236 0.0
C4281 C 0.3268 0.84006 0.15026 0.0
C4282 C 0.29894 0.85859 0.13308 0.0
C4283 C 0.30857 0.85741 0.11148 0.0
C4284 C 0.32545 0.84488 0.1084 0.0
C4285 C 0.33448 0.83646 0.12795 0.0
C4286 C 0.28062 0.87136 0.13689 0.0
C4287 C 0.33592 0.84282 0.08548 0.0
H4288 H 0.2813 0.87777 0.03966 0.0
H4289 H 0.33501 0.92724 0.08679 0.0
H4290 H 0.28277 0.83018 0.06734 0.0
H4291 H 0.26313 0.84297 0.08231 0.0
H4292 H 0.26319 0.8423 0.0504 0.0
H4293 H 0.34749 0.92255 0.1255 0.0
H4294 H 0.32899 0.90255 0.1395 0.0
H4295 H 0.34996 0.89283 0.12379 0.0
H4296 H 0.30208 0.85238 0.16957 0.0
H4297 H 0.34836 0.82814 0.12617 0.0
H4298 H 0.26875 0.86869 0.1201 0.0
H4299 H 0.2882 0.89036 0.1422 0.0
H4300 H 0.27117 0.8656 0.15141 0.0
H4301 H 0.32297 0.83891 0.06942 0.0
H4302 H 0.3455 0.82899 0.08426 0.0
H4303 H 0.34762 0.85969 0.08502 0.0
C4304 C 0.91349 0.5147 0.88111 0.0
C4305 C 0.92345 0.51799 0.86043 0.0
C4306 C 0.92549 0.50915 0.90086 0.0
C4307 C 0.94804 0.50798 0.89996 0.0
C4308 C 0.95715 0.50855 0.87818 0.0
C4309 C 0.94458 0.51331 0.85851 0.0
C4310 C 0.9148 0.50655 0.92336 0.0
C4311 C 0.98102 0.50682 0.87642 0.0
C4312 C 0.98762 0.54039 0.95529 0.0
C4313 C 0.99558 0.52236 0.96336 0.0
C4314 C 0.9721 0.53575 0.93451 0.0
C4315 C 0.9635 0.51231 0.92254 0.0
C4316 C 0.9711 0.49392 0.93119 0.0
C4317 C 0.98786 0.49935 0.95109 0.0
C4318 C 0.96533 0.55605 0.92515 0.0
C4319 C 0.96183 0.46861 0.91978 0.0
H4320 H 0.89681 0.51736 0.8823 0.0
H4321 H 0.95209 0.5151 0.84223 0.0
H4322 H 0.92024 0.49282 0.93207 0.0
H4323 H 0.92012 0.52323 0.93642 0.0
H4324 H 0.89622 0.50209 0.91938 0.0
H4325 H 0.98505 0.50626 0.85772 0.0
H4326 H 0.99275 0.5221 0.8882 0.0
H4327 H 0.984 0.4909 0.88272 0.0
H4328 H 0.99399 0.55816 0.96493 0.0
H4329 H 0.99409 0.4855 0.9578 0.0
H4330 H 0.94729 0.555 0.92612 0.0
H4331 H 0.96785 0.55541 0.90598 0.0
H4332 H 0.97506 0.5732 0.93557 0.0
H4333 H 0.94506 0.46553 0.90904 0.0
H4334 H 0.96059 0.45744 0.93382 0.0
H4335 H 0.97352 0.46289 0.90784 0.0
C4336 C 0.30608 0.23262 0.5943 0.0
C4337 C 0.28732 0.21963 0.5779 0.0
C4338 C 0.30431 0.2406 0.61854 0.0
C4339 C 0.2832 0.2358 0.62684 0.0
C4340 C 0.26404 0.22332 0.6103 0.0
C4341 C 0.26633 0.21527 0.58613 0.0
C4342 C 0.32524 0.25369 0.63545 0.0
C4343 C 0.24117 0.21801 0.61827 0.0
C4344 C 0.28549 0.2362 0.69455 0.0
C4345 C 0.28256 0.25852 0.70327 0.0
C4346 C 0.28489 0.22831 0.66972 0.0
C4347 C 0.28154 0.24314 0.65304 0.0
C4348 C 0.27808 0.26552 0.66171 0.0
C4349 C 0.2786 0.2729 0.68662 0.0
C4350 C 0.28833 0.20421 0.66139 0.0
C4351 C 0.27447 0.28199 0.64474 0.0
H4352 H 0.32244 0.23607 0.5884 0.0
H4353 H 0.25169 0.2053 0.57375 0.0
H4354 H 0.323 0.27082 0.64424 0.0
H4355 H 0.32836 0.2437 0.64993 0.0
H4356 H 0.34028 0.25671 0.62609 0.0
H4357 H 0.22773 0.20955 0.60299 0.0
H4358 H 0.24099 0.20626 0.6317 0.0
H4359 H 0.23731 0.23429 0.62722 0.0
H4360 H 0.28832 0.22482 0.70716 0.0
H4361 H 0.27644 0.29022 0.6931 0.0
H4362 H 0.30409 0.2056 0.65331 0.0
H4363 H 0.27443 0.19418 0.64722 0.0
H4364 H 0.28925 0.19424 0.67635 0.0
H4365 H 0.28989 0.28728 0.63649 0.0
H4366 H 0.27024 0.29796 0.65401 0.0
H4367 H 0.26077 0.27313 0.62987 0.0
C4368 C 0.60858 0.5357 0.20109 0.0
C4369 C 0.59417 0.53831 0.21841 0.0
C4370 C 0.60145 0.53503 0.17653 0.0
C4371 C 0.57946 0.53719 0.16912 0.0
C4372 C 0.56491 0.53991 0.18654 0.0
C4373 C 0.57239 0.54035 0.21087 0.0
C4374 C 0.61741 0.53196 0.15848 0.0
C4375 C 0.54142 0.54249 0.17948 0.0
C4376 C 0.56557 0.55817 0.11055 0.0
C4377 C 0.55273 0.53763 0.09576 0.0
C4378 C 0.57467 0.55824 0.1343 0.0
C4379 C 0.5716 0.53703 0.14329 0.0
C4380 C 0.5597 0.51597 0.128 0.0
C4381 C 0.55009 0.51658 0.1046 0.0
C4382 C 0.5869 0.58117 0.15 0.0
C4383 C 0.55662 0.49285 0.13654 0.0
H4384 H 0.62541 0.53407 0.2067 0.0
H4385 H 0.56111 0.54242 0.22404 0.0
H4386 H 0.60991 0.51624 0.14452 0.0
H4387 H 0.62038 0.54716 0.14913 0.0
H4388 H 0.6338 0.53013 0.16704 0.0
H4389 H 0.53225 0.5447 0.19522 0.0
H4390 H 0.54199 0.55783 0.17044 0.0
H4391 H 0.53178 0.52688 0.16641 0.0
H4392 H 0.56821 0.57436 0.10377 0.0
H4393 H 0.54039 0.50053 0.09329 0.0
H4394 H 0.60371 0.58001 0.15796 0.0
H4395 H 0.57747 0.58517 0.16513 0.0
H4396 H 0.58893 0.5959 0.1399 0.0
H4397 H 0.57296 0.49049 0.14459 0.0
H4398 H 0.5491 0.47785 0.12171 0.0
H4399 H 0.54555 0.49254 0.15077 0.0
C4400 C 0.33098 0.90064 0.9303 0.0
C4401 C 0.31745 0.89788 0.94846 0.0
C4402 C 0.32568 0.885 0.9083 0.0
C4403 C 0.30692 0.86576 0.90494 0.0
C4404 C 0.29369 0.86251 0.92366 0.0
C4405 C 0.29887 0.87894 0.94509 0.0
C4406 C 0.33973 0.88941 0.88843 0.0
C4407 C 0.27409 0.84173 0.92103 0.0
C4408 C 0.27989 0.83761 0.84129 0.0
C4409 C 0.29055 0.81921 0.83661 0.0
C4410 C 0.28518 0.853 0.86343 0.0
C4411 C 0.30086 0.84934 0.88161 0.0
C4412 C 0.31103 0.83027 0.87736 0.0
C4413 C 0.30601 0.81564 0.85476 0.0
C4414 C 0.2744 0.8735 0.86714 0.0
C4415 C 0.32735 0.82544 0.89658 0.0
H4416 H 0.34524 0.91549 0.93303 0.0
H4417 H 0.28857 0.87688 0.95936 0.0
H4418 H 0.34682 0.87417 0.88283 0.0
H4419 H 0.32904 0.89168 0.8724 0.0
H4420 H 0.35372 0.90519 0.89397 0.0
H4421 H 0.26643 0.84099 0.93788 0.0
H4422 H 0.26104 0.84245 0.90638 0.0
H4423 H 0.27957 0.82532 0.91596 0.0
H4424 H 0.26781 0.84037 0.8274 0.0
H4425 H 0.31436 0.80148 0.8513 0.0
H4426 H 0.28754 0.89004 0.87144 0.0
H4427 H 0.26487 0.87267 0.88266 0.0
H4428 H 0.26283 0.87406 0.85101 0.0
H4429 H 0.34258 0.83996 0.90084 0.0
H4430 H 0.33249 0.8089 0.89097 0.0
H4431 H 0.31975 0.82443 0.91341 0.0
C4432 C 0.91574 0.53861 0.72433 0.0
C4433 C 0.92833 0.54433 0.74727 0.0
C4434 C 0.9251 0.53046 0.70419 0.0
C4435 C 0.94723 0.52733 0.70743 0.0
C4436 C 0.96017 0.53365 0.7305 0.0
C4437 C 0.95064 0.54245 0.75013 0.0
C4438 C 0.91113 0.52449 0.67966 0.0
C4439 C 0.98363 0.52994 0.73469 0.0
C4440 C 0.96359 0.48149 0.66383 0.0
C4441 C 0.97739 0.49535 0.65082 0.0
C4442 C 0.95326 0.4917 0.68206 0.0
C4443 C 0.95659 0.51629 0.68704 0.0
C4444 C 0.97002 0.53034 0.67358 0.0
C4445 C 0.98051 0.5197 0.65581 0.0
C4446 C 0.93926 0.47622 0.69636 0.0
C4447 C 0.9737 0.55661 0.6783 0.0
H4448 H 0.89848 0.54013 0.72222 0.0
H4449 H 0.96029 0.54658 0.76796 0.0
H4450 H 0.9206 0.53292 0.66647 0.0
H4451 H 0.90727 0.50535 0.67319 0.0
H4452 H 0.89508 0.53006 0.6799 0.0
H4453 H 0.99162 0.53636 0.75368 0.0
H4454 H 0.98314 0.51105 0.73007 0.0
H4455 H 0.99434 0.53901 0.72283 0.0
H4456 H 0.96085 0.46265 0.65976 0.0
H4457 H 0.99145 0.53054 0.64607 0.0
H4458 H 0.92217 0.47941 0.69556 0.0
H4459 H 0.94684 0.48048 0.71558 0.0
H4460 H 0.93782 0.45738 0.6897 0.0
H4461 H 0.9574 0.56162 0.67833 0.0
H4462 H 0.98279 0.56477 0.66467 0.0
H4463 H 0.98356 0.56391 0.69635 0.0
C4464 C 0.30062 0.24189 0.44827 0.0
C4465 C 0.28292 0.22456 0.45282 0.0
C4466 C 0.30034 0.24973 0.42607 0.0
C4467 C 0.28187 0.24013 0.40769 0.0
C4468 C 0.26343 0.22347 0.4125 0.0
C4469 C 0.26416 0.2159 0.43495 0.0
C4470 C 0.32028 0.26768 0.42195 0.0
C4471 C 0.24326 0.213 0.3936 0.0
C4472 C 0.27586 0.27457 0.35678 0.0
C4473 C 0.28513 0.26273 0.33845 0.0
C4474 C 0.27414 0.26706 0.37901 0.0
C4475 C 0.28216 0.24733 0.3834 0.0
C4476 C 0.29137 0.23515 0.36491 0.0
C4477 C 0.29251 0.24282 0.34259 0.0
C4478 C 0.264 0.2805 0.39796 0.0
C4479 C 0.30034 0.21418 0.36882 0.0
H4480 H 0.31521 0.24884 0.46185 0.0
H4481 H 0.25042 0.20243 0.43805 0.0
H4482 H 0.32839 0.25997 0.40718 0.0
H4483 H 0.31479 0.28282 0.41628 0.0
H4484 H 0.33296 0.2741 0.43831 0.0
H4485 H 0.22966 0.20151 0.4006 0.0
H4486 H 0.23659 0.22701 0.38678 0.0
H4487 H 0.24826 0.20258 0.37805 0.0
H4488 H 0.26983 0.28982 0.35375 0.0
H4489 H 0.29967 0.23355 0.32859 0.0
H4490 H 0.27677 0.28826 0.414 0.0
H4491 H 0.25006 0.26856 0.40393 0.0
H4492 H 0.25752 0.29474 0.39133 0.0
H4493 H 0.31276 0.21859 0.38539 0.0
H4494 H 0.30845 0.20771 0.35343 0.0
H4495 H 0.28645 0.19988 0.3714 0.0
C4496 C 0.32408 0.57532 0.56304 0.0
C4497 C 0.32355 0.59899 0.56724 0.0
C4498 C 0.34366 0.56861 0.55758 0.0
C4499 C 0.36293 0.58604 0.55644 0.0
C4500 C 0.36344 0.6098 0.56459 0.0
C4501 C 0.3437 0.616 0.57017 0.0
C4502 C 0.34265 0.54301 0.5498 0.0
C4503 C 0.3838 0.62892 0.56404 0.0
C4504 C 0.41582 0.57 0.53802 0.0
C4505 C 0.4127 0.5702 0.51319 0.0
C4506 C 0.39969 0.57487 0.55247 0.0
C4507 C 0.38009 0.58008 0.54175 0.0
C4508 C 0.37686 0.5802 0.51665 0.0
C4509 C 0.39328 0.57533 0.5027 0.0
C4510 C 0.40367 0.57458 0.57912 0.0
C4511 C 0.35601 0.58541 0.50445 0.0
H4512 H 0.30867 0.56201 0.56137 0.0
H4513 H 0.3436 0.63431 0.57415 0.0
H4514 H 0.33906 0.53851 0.52985 0.0
H4515 H 0.35884 0.53881 0.55542 0.0
H4516 H 0.32917 0.53188 0.55731 0.0
H4517 H 0.38318 0.64565 0.57534 0.0
H4518 H 0.39944 0.62399 0.57032 0.0
H4519 H 0.38451 0.63179 0.54522 0.0
H4520 H 0.43098 0.56618 0.54616 0.0
H4521 H 0.39074 0.57513 0.48345 0.0
H4522 H 0.38912 0.56302 0.58456 0.0
H4523 H 0.40539 0.59238 0.58945 0.0
H4524 H 0.41902 0.56856 0.58431 0.0
H4525 H 0.34092 0.57271 0.50731 0.0
H4526 H 0.35606 0.58459 0.48476 0.0
H4527 H 0.35452 0.60308 0.51248 0.0
C4528 C 0.88021 0.91889 0.52971 0.0
C4529 C 0.86249 0.92972 0.53306 0.0
C4530 C 0.90172 0.93214 0.52847 0.0
C4531 C 0.9057 0.95681 0.53171 0.0
C4532 C 0.88783 0.96778 0.53535 0.0
C4533 C 0.86633 0.95404 0.53549 0.0
C4534 C 0.92017 0.91977 0.52365 0.0
C4535 C 0.89153 0.99405 0.53976 0.0
C4536 C 0.96608 0.99077 0.55169 0.0
C4537 C 0.97181 0.99819 0.53044 0.0
C4538 C 0.94437 0.97783 0.55256 0.0
C4539 C 0.92853 0.9712 0.53133 0.0
C4540 C 0.93445 0.97849 0.50974 0.0
C4541 C 0.95585 0.9925 0.50976 0.0
C4542 C 0.93836 0.97137 0.57619 0.0
C4543 C 0.91843 0.97097 0.48649 0.0
H4544 H 0.87717 0.90006 0.52776 0.0
H4545 H 0.85265 0.96243 0.53845 0.0
H4546 H 0.92797 0.92531 0.50804 0.0
H4547 H 0.9335 0.9246 0.53943 0.0
H4548 H 0.91396 0.90047 0.51988 0.0
H4549 H 0.87603 0.99985 0.54326 0.0
H4550 H 0.9047 1.00187 0.55544 0.0
H4551 H 0.89753 1.00105 0.52395 0.0
H4552 H 0.97849 0.99543 0.56768 0.0
H4553 H 0.96051 0.99809 0.49327 0.0
H4554 H 0.93446 0.95213 0.5748 0.0
H4555 H 0.92313 0.97728 0.58051 0.0
H4556 H 0.95212 0.97922 0.59133 0.0
H4557 H 0.91295 0.95163 0.48231 0.0
H4558 H 0.92607 0.97719 0.47105 0.0
H4559 H 0.90322 0.97778 0.48835 0.0
C4560 C 0.86841 0.0642 0.28 0.0
C4561 C 0.88814 0.06466 0.26965 0.0
C4562 C 0.85675 0.08177 0.27867 0.0
C4563 C 0.8651 0.10045 0.26685 0.0
C4564 C 0.88419 0.10024 0.25497 0.0
C4565 C 0.89548 0.08222 0.25643 0.0
C4566 C 0.83625 0.08106 0.29127 0.0
C4567 C 0.89354 0.11976 0.24209 0.0
C4568 C 0.82302 0.13729 0.25807 0.0
C4569 C 0.8293 0.15425 0.27903 0.0
C4570 C 0.83572 0.12075 0.25265 0.0
C4571 C 0.85475 0.12092 0.26896 0.0
C4572 C 0.86187 0.13897 0.28943 0.0
C4573 C 0.84906 0.15553 0.29417 0.0
C4574 C 0.82783 0.10215 0.23041 0.0
C4575 C 0.882 0.13973 0.30734 0.0
H4576 H 0.86259 0.05051 0.29005 0.0
H4577 H 0.91082 0.08273 0.24854 0.0
H4578 H 0.83987 0.09566 0.30686 0.0
H4579 H 0.82206 0.08334 0.27892 0.0
H4580 H 0.83092 0.0644 0.29792 0.0
H4581 H 0.90568 0.11497 0.2302 0.0
H4582 H 0.87991 0.12462 0.23113 0.0
H4583 H 0.90231 0.13543 0.25558 0.0
H4584 H 0.80766 0.1364 0.24645 0.0
H4585 H 0.85371 0.16861 0.31048 0.0
H4586 H 0.81985 0.08546 0.23568 0.0
H4587 H 0.84218 0.09915 0.22108 0.0
H4588 H 0.81542 0.10684 0.21757 0.0
H4589 H 0.87823 0.12483 0.31706 0.0
H4590 H 0.88672 0.15618 0.32081 0.0
H4591 H 0.89659 0.13794 0.29792 0.0
C4592 C 0.69785 0.1046 0.0279 0.0
C4593 C 0.71016 0.0882 0.03278 0.0
C4594 C 0.67455 0.0995 0.0274 0.0
C4595 C 0.66356 0.07769 0.03228 0.0
C4596 C 0.67587 0.06102 0.03703 0.0
C4597 C 0.69907 0.06644 0.03705 0.0
C4598 C 0.66173 0.11738 0.02171 0.0
C4599 C 0.66459 0.03753 0.04233 0.0
C4600 C 0.60788 0.0673 0.0556 0.0
C4601 C 0.59388 0.05372 0.0352 0.0
C4602 C 0.63054 0.07661 0.05456 0.0
C4603 C 0.63913 0.07204 0.03258 0.0
C4604 C 0.62471 0.05929 0.01166 0.0
C4605 C 0.60233 0.04977 0.01342 0.0
C4606 C 0.64553 0.09 0.07729 0.0
C4607 C 0.63318 0.05427 0.9878 0.0
H4608 H 0.7064 0.12139 0.02436 0.0
H4609 H 0.70856 0.05376 0.04087 0.0
H4610 H 0.64838 0.10963 0.00618 0.0
H4611 H 0.65336 0.12279 0.03729 0.0
H4612 H 0.67274 0.13316 0.01741 0.0
H4613 H 0.67667 0.02667 0.04589 0.0
H4614 H 0.65574 0.03998 0.05826 0.0
H4615 H 0.65183 0.02782 0.02689 0.0
H4616 H 0.60127 0.0699 0.07255 0.0
H4617 H 0.59193 0.03814 0.99804 0.0
H4618 H 0.65594 0.10651 0.07384 0.0
H4619 H 0.65711 0.07946 0.08331 0.0
H4620 H 0.63582 0.09419 0.09213 0.0
H4621 H 0.6446 0.07008 0.98417 0.0
H4622 H 0.61923 0.04801 0.97261 0.0
H4623 H 0.64281 0.0406 0.98837 0.0
C4624 C 0.24678 0.49542 0.24376 0.0
C4625 C 0.2456 0.51488 0.26051 0.0
C4626 C 0.25148 0.47551 0.2514 0.0
C4627 C 0.25444 0.47492 0.27632 0.0
C4628 C 0.25458 0.49497 0.2933 0.0
C4629 C 0.25075 0.51496 0.28516 0.0
C4630 C 0.25231 0.45481 0.2328 0.0
C4631 C 0.25748 0.49489 0.32007 0.0
C4632 C 0.23809 0.41755 0.29805 0.0
C4633 C 0.25909 0.41424 0.30662 0.0
C4634 C 0.23634 0.43694 0.28745 0.0
C4635 C 0.25609 0.45303 0.28482 0.0
C4636 C 0.27732 0.44913 0.29217 0.0
C4637 C 0.27858 0.43004 0.30341 0.0
C4638 C 0.21338 0.44068 0.2799 0.0
C4639 C 0.29871 0.46553 0.28887 0.0
H4640 H 0.24343 0.49553 0.22464 0.0
H4641 H 0.2508 0.53022 0.29819 0.0
H4642 H 0.26691 0.44763 0.23798 0.0
H4643 H 0.23699 0.44077 0.2317 0.0
H4644 H 0.25335 0.45944 0.21463 0.0
H4645 H 0.25745 0.51206 0.33088 0.0
H4646 H 0.24368 0.48147 0.32435 0.0
H4647 H 0.27342 0.49023 0.32572 0.0
H4648 H 0.22297 0.40513 0.29987 0.0
H4649 H 0.29492 0.42789 0.31023 0.0
H4650 H 0.21141 0.44241 0.26065 0.0
H4651 H 0.21144 0.4572 0.29053 0.0
H4652 H 0.1997 0.42616 0.28255 0.0
H4653 H 0.29763 0.46943 0.27033 0.0
H4654 H 0.3136 0.4582 0.29229 0.0
H4655 H 0.30129 0.48232 0.30149 0.0
C4656 C 0.22149 0.41057 0.02887 0.0
C4657 C 0.24164 0.4269 0.03838 0.0
C4658 C 0.20159 0.41782 0.02344 0.0
C4659 C 0.20193 0.44197 0.02734 0.0
C4660 C 0.22215 0.45847 0.03731 0.0
C4661 C 0.24167 0.45074 0.04282 0.0
C4662 C 0.18028 0.39968 0.01314 0.0
C4663 C 0.22333 0.48437 0.04149 0.0
C4664 C 0.1575 0.46104 0.98884 0.0
C4665 C 0.14251 0.46474 0.00511 0.0
C4666 C 0.17709 0.45401 0.99598 0.0
C4667 C 0.18147 0.45007 0.01984 0.0
C4668 C 0.16635 0.45393 0.03639 0.0
C4669 C 0.14709 0.46144 0.02885 0.0
C4670 C 0.19302 0.45067 0.97796 0.0
C4671 C 0.17029 0.44968 0.06187 0.0
H4672 H 0.22128 0.39213 0.0255 0.0
H4673 H 0.25714 0.46353 0.05016 0.0
H4674 H 0.16671 0.40218 0.02395 0.0
H4675 H 0.17473 0.40173 0.99452 0.0
H4676 H 0.18244 0.3816 0.0127 0.0
H4677 H 0.24011 0.49488 0.05032 0.0
H4678 H 0.21945 0.4899 0.02402 0.0
H4679 H 0.21062 0.48842 0.05289 0.0
H4680 H 0.15382 0.46362 0.97047 0.0
H4681 H 0.1353 0.46414 0.0413 0.0
H4682 H 0.19429 0.43221 0.97476 0.0
H4683 H 0.21005 0.46157 0.98519 0.0
H4684 H 0.18759 0.45534 0.96042 0.0
H4685 H 0.17063 0.43111 0.06163 0.0
H4686 H 0.15713 0.45384 0.0726 0.0
H4687 H 0.18682 0.46041 0.07106 0.0
C4688 C 0.86642 0.95132 0.26392 0.0
C4689 C 0.88936 0.95516 0.2719 0.0
C4690 C 0.85216 0.92897 0.26133 0.0
C4691 C 0.86103 0.91026 0.26751 0.0
C4692 C 0.88439 0.91401 0.27486 0.0
C4693 C 0.89829 0.93644 0.27687 0.0
C4694 C 0.82746 0.92562 0.25302 0.0
C4695 C 0.8945 0.89466 0.28192 0.0
C4696 C 0.82261 0.86144 0.29001 0.0
C4697 C 0.8187 0.84309 0.27035 0.0
C4698 C 0.83624 0.8834 0.28924 0.0
C4699 C 0.84577 0.88726 0.26807 0.0
C4700 C 0.84127 0.86894 0.24788 0.0
C4701 C 0.82804 0.84696 0.24938 0.0
C4702 C 0.84096 0.90228 0.31136 0.0
C4703 C 0.85064 0.87247 0.2248 0.0
H4704 H 0.85954 0.96596 0.26044 0.0
H4705 H 0.916 0.93963 0.2835 0.0
H4706 H 0.82145 0.91017 0.2384 0.0
H4707 H 0.81788 0.92231 0.26815 0.0
H4708 H 0.82363 0.94115 0.2464 0.0
H4709 H 0.91307 0.90007 0.28597 0.0
H4710 H 0.88776 0.8892 0.29811 0.0
H4711 H 0.88982 0.87915 0.26728 0.0
H4712 H 0.81562 0.85838 0.30634 0.0
H4713 H 0.82493 0.83279 0.23411 0.0
H4714 H 0.83564 0.91794 0.30691 0.0
H4715 H 0.85925 0.90761 0.31769 0.0
H4716 H 0.83222 0.8965 0.32633 0.0
H4717 H 0.84609 0.8878 0.21848 0.0
H4718 H 0.8444 0.85695 0.21026 0.0
H4719 H 0.8692 0.87616 0.22805 0.0
C4720 C 0.71335 0.12397 0.7994 0.0
C4721 C 0.71678 0.10722 0.78094 0.0
C4722 C 0.72127 0.14783 0.79936 0.0
C4723 C 0.73355 0.15473 0.78089 0.0
C4724 C 0.7372 0.13774 0.76234 0.0
C4725 C 0.72835 0.1141 0.76236 0.0
C4726 C 0.71652 0.16559 0.81892 0.0
C4727 C 0.75082 0.14448 0.74274 0.0
C4728 C 0.7434 0.21366 0.76227 0.0
C4729 C 0.76567 0.22295 0.77253 0.0
C4730 C 0.73189 0.19206 0.76656 0.0
C4731 C 0.74329 0.17963 0.78101 0.0
C4732 C 0.76543 0.18983 0.79258 0.0
C4733 C 0.77645 0.21147 0.78805 0.0
C4734 C 0.70818 0.18183 0.75423 0.0
C4735 C 0.77812 0.1771 0.80807 0.0
H4736 H 0.70413 0.11839 0.81359 0.0
H4737 H 0.73099 0.10093 0.74822 0.0
H4738 H 0.73245 0.17631 0.82958 0.0
H4739 H 0.70794 0.1777 0.81076 0.0
H4740 H 0.70589 0.15728 0.83136 0.0
H4741 H 0.75249 0.12903 0.73001 0.0
H4742 H 0.74289 0.15566 0.73237 0.0
H4743 H 0.76786 0.1548 0.75086 0.0
H4744 H 0.73536 0.22277 0.75012 0.0
H4745 H 0.79382 0.21896 0.79575 0.0
H4746 H 0.69754 0.17388 0.76683 0.0
H4747 H 0.70814 0.16781 0.73893 0.0
H4748 H 0.70058 0.19518 0.74714 0.0
H4749 H 0.76771 0.16965 0.82108 0.0
H4750 H 0.79394 0.18869 0.81822 0.0
H4751 H 0.78234 0.16236 0.79645 0.0
loop_
_geom_bond_atom_site_label_1
_geom_bond_atom_site_label_2
_geom_bond_distance
_geom_bond_site_symmetry_2
_ccdc_geom_bond_type
Mg0 O1 2.028 . S
Mg0 O7 1.986 . S
Mg0 O9 2.114 . S
Mg0 O10 2.251 . S
Mg0 O13 2.010 . S
O1 Mg0 2.028 . S
O1 C4 1.250 . S
O2 Mg3 2.028 1_455 S
O2 C4 1.248 . S
Mg3 O2 2.028 1_655 S
Mg3 O8 2.032 1_655 S
Mg3 O10 2.079 1_655 S
C4 O1 1.250 . S
C4 O2 1.248 . S
C5 O6 1.264 . S
C5 O13 1.249 . S
O6 C5 1.264 . S
O7 Mg0 1.986 . S
O7 C11 1.246 . S
O8 Mg3 2.032 1_455 S
O8 C11 1.259 . S
O9 Mg0 2.114 . S
O9 C12 1.260 . S
O10 Mg0 2.251 . S
O10 Mg3 2.079 1_455 S
O10 C12 1.273 . S
C11 O7 1.246 . S
C11 O8 1.259 . S
C12 O9 1.260 . S
C12 O10 1.273 . S
O13 Mg0 2.010 . S
O13 C5 1.249 . S
Mg14 O15 2.028 . S
Mg14 O21 1.986 . S
Mg14 O23 2.114 . S
Mg14 O24 2.251 1_455 S
Mg14 O27 2.010 . S
O15 Mg14 2.028 . S
O15 C18 1.250 . S
O16 Mg17 2.028 . S
O16 C18 1.248 1_655 S
Mg17 O16 2.028 . S
Mg17 O22 2.032 . S
Mg17 O24 2.079 . S
C18 O15 1.250 . S
C18 O16 1.248 1_455 S
C19 O20 1.264 . S
C19 O27 1.249 . S
O20 C19 1.264 . S
O21 Mg14 1.986 . S
O21 C25 1.246 . S
O22 Mg17 2.032 . S
O22 C25 1.259 1_655 S
O23 Mg14 2.114 . S
O23 C26 1.252 1_455 S
O24 Mg14 2.251 1_655 S
O24 Mg17 2.079 . S
O24 C26 1.273 . S
C25 O21 1.246 . S
C25 O22 1.259 1_455 S
C26 O23 1.252 1_655 S
C26 O24 1.273 . S
O27 Mg14 2.010 . S
O27 C19 1.249 . S
Mg28 O29 2.028 . S
Mg28 O35 1.986 . S
Mg28 O37 2.114 . S
Mg28 O38 2.251 . S
Mg28 O41 2.010 . S
O29 Mg28 2.028 . S
O29 C32 1.250 . S
O30 Mg31 2.028 . S
O30 C32 1.248 . S
Mg31 O30 2.028 . S
Mg31 O36 2.032 . S
Mg31 O38 2.079 . S
C32 O29 1.250 . S
C32 O30 1.248 . S
C33 O34 1.264 . S
C33 O41 1.249 . S
O34 C33 1.264 . S
O35 Mg28 1.986 . S
O35 C39 1.246 . S
O36 Mg31 2.032 . S
O36 C39 1.259 . S
O37 Mg28 2.114 . S
O37 C40 1.252 . S
O38 Mg28 2.251 . S
O38 Mg31 2.079 . S
O38 C40 1.273 . S
C39 O35 1.246 . S
C39 O36 1.259 . S
C40 O37 1.252 . S
C40 O38 1.273 . S
O41 Mg28 2.010 . S
O41 C33 1.249 . S
Mg42 O43 2.028 . S
Mg42 O49 1.986 . S
Mg42 O51 2.114 . S
Mg42 O52 2.251 . S
Mg42 O55 2.010 . S
O43 Mg42 2.028 . S
O43 C46 1.250 . S
O44 Mg45 2.028 . S
O44 C46 1.248 . S
Mg45 O44 2.028 . S
Mg45 O50 2.032 . S
Mg45 O52 2.079 . S
C46 O43 1.250 . S
C46 O44 1.248 . S
C47 O48 1.264 . S
C47 O55 1.249 . S
O48 C47 1.264 . S
O49 Mg42 1.986 . S
O49 C53 1.246 . S
O50 Mg45 2.032 . S
O50 C53 1.259 . S
O51 Mg42 2.114 . S
O51 C54 1.252 . S
O52 Mg42 2.251 . S
O52 Mg45 2.079 . S
O52 C54 1.273 . S
C53 O49 1.246 . S
C53 O50 1.259 . S
C54 O51 1.252 . S
C54 O52 1.273 . S
O55 Mg42 2.010 . S
O55 C47 1.249 . S
Mg56 O57 2.028 . S
Mg56 O63 1.986 . S
Mg56 O65 2.114 . S
Mg56 O66 2.251 . S
Mg56 O69 2.010 . S
O57 Mg56 2.028 . S
O57 C60 1.250 . S
O58 Mg59 2.028 . S
O58 C60 1.248 . S
Mg59 O58 2.028 . S
Mg59 O64 2.032 . S
Mg59 O66 2.079 . S
C60 O57 1.250 . S
C60 O58 1.248 . S
C61 O62 1.264 . S
C61 O69 1.249 . S
O62 C61 1.264 . S
O63 Mg56 1.986 . S
O63 C67 1.246 . S
O64 Mg59 2.032 . S
O64 C67 1.259 . S
O65 Mg56 2.114 . S
O65 C68 1.252 . S
O66 Mg56 2.251 . S
O66 Mg59 2.079 . S
O66 C68 1.273 . S
C67 O63 1.246 . S
C67 O64 1.259 . S
C68 O65 1.252 . S
C68 O66 1.273 . S
O69 Mg56 2.010 . S
O69 C61 1.249 . S
Mg70 O71 2.028 . S
Mg70 O77 1.986 . S
Mg70 O79 2.114 . S
Mg70 O80 2.251 . S
Mg70 O83 2.010 . S
O71 Mg70 2.028 . S
O71 C74 1.250 . S
O72 Mg73 2.028 . S
O72 C74 1.248 . S
Mg73 O72 2.028 . S
Mg73 O78 2.032 . S
Mg73 O80 2.079 . S
C74 O71 1.250 . S
C74 O72 1.248 . S
C75 O76 1.264 . S
C75 O83 1.249 . S
O76 C75 1.264 . S
O77 Mg70 1.986 . S
O77 C81 1.246 . S
O78 Mg73 2.032 . S
O78 C81 1.259 . S
O79 Mg70 2.114 . S
O79 C82 1.252 . S
O80 Mg70 2.251 . S
O80 Mg73 2.079 . S
O80 C82 1.273 . S
C81 O77 1.246 . S
C81 O78 1.259 . S
C82 O79 1.252 . S
C82 O80 1.273 . S
O83 Mg70 2.010 . S
O83 C75 1.249 . S
Mg84 O85 2.028 . S
Mg84 O91 1.986 . S
Mg84 O93 2.114 . S
Mg84 O94 2.251 . S
Mg84 O97 2.010 . S
O85 Mg84 2.028 . S
O85 C88 1.250 . S
O86 Mg87 2.028 . S
O86 C88 1.248 . S
Mg87 O86 2.028 . S
Mg87 O92 2.032 . S
Mg87 O94 2.079 . S
C88 O85 1.250 . S
C88 O86 1.248 . S
C89 O90 1.264 . S
C89 O97 1.249 . S
O90 C89 1.264 . S
O91 Mg84 1.986 . S
O91 C95 1.246 . S
O92 Mg87 2.032 . S
O92 C95 1.259 . S
O93 Mg84 2.114 . S
O93 C96 1.252 . S
O94 Mg84 2.251 . S
O94 Mg87 2.079 . S
O94 C96 1.273 . S
C95 O91 1.246 . S
C95 O92 1.259 . S
C96 O93 1.252 . S
C96 O94 1.273 . S
O97 Mg84 2.010 . S
O97 C89 1.249 . S
Mg98 O99 2.028 1_655 S
Mg98 O105 1.986 1_655 S
Mg98 O107 2.114 . S
Mg98 O108 2.251 . S
Mg98 O111 2.010 1_655 S
O99 Mg98 2.028 1_455 S
O99 C102 1.253 . S
O100 Mg101 2.028 . S
O100 C102 1.244 1_655 S
Mg101 O100 2.028 . S
Mg101 O106 2.032 . S
Mg101 O108 2.079 . S
C102 O99 1.253 . S
C102 O100 1.244 1_455 S
C103 O104 1.264 . S
C103 O111 1.249 . S
O104 C103 1.264 . S
O105 Mg98 1.986 1_455 S
O105 C109 1.246 1_455 S
O106 Mg101 2.032 . S
O106 C109 1.259 . S
O107 Mg98 2.114 . S
O107 C110 1.252 . S
O108 Mg98 2.251 . S
O108 Mg101 2.079 . S
O108 C110 1.273 . S
C109 O105 1.246 1_655 S
C109 O106 1.259 . S
C110 O107 1.252 . S
C110 O108 1.273 . S
O111 Mg98 2.010 1_455 S
O111 C103 1.249 . S
Mg112 O113 2.028 1_545 S
Mg112 O119 1.986 . S
Mg112 O121 2.114 . S
Mg112 O122 2.251 . S
Mg112 O125 2.010 . S
O113 Mg112 2.028 1_565 S
O113 C116 1.250 . S
O114 Mg115 2.028 1_565 S
O114 C116 1.248 . S
Mg115 O114 2.028 1_545 S
Mg115 O120 2.032 . S
Mg115 O122 2.079 . S
C116 O113 1.250 . S
C116 O114 1.248 . S
C117 O118 1.264 . S
C117 O125 1.249 . S
O118 C117 1.264 . S
O119 Mg112 1.986 . S
O119 C123 1.246 . S
O120 Mg115 2.032 . S
O120 C123 1.259 . S
O121 Mg112 2.114 . S
O121 C124 1.252 . S
O122 Mg112 2.251 . S
O122 Mg115 2.079 . S
O122 C124 1.273 . S
C123 O119 1.246 . S
C123 O120 1.259 . S
C124 O121 1.252 . S
C124 O122 1.273 . S
O125 Mg112 2.010 . S
O125 C117 1.249 . S
Mg126 O127 2.028 . S
Mg126 O133 1.986 . S
Mg126 O135 2.114 . S
Mg126 O136 2.251 . S
Mg126 O139 2.010 . S
O127 Mg126 2.028 . S
O127 C130 1.250 . S
O128 Mg129 2.028 . S
O128 C130 1.248 . S
Mg129 O128 2.028 . S
Mg129 O134 2.032 . S
Mg129 O136 2.079 . S
C130 O127 1.250 . S
C130 O128 1.248 . S
C131 O132 1.264 . S
C131 O139 1.249 . S
O132 C131 1.264 . S
O133 Mg126 1.986 . S
O133 C137 1.246 . S
O134 Mg129 2.032 . S
O134 C137 1.259 . S
O135 Mg126 2.114 . S
O135 C138 1.252 . S
O136 Mg126 2.251 . S
O136 Mg129 2.079 . S
O136 C138 1.273 . S
C137 O133 1.246 . S
C137 O134 1.259 . S
C138 O135 1.252 . S
C138 O136 1.273 . S
O139 Mg126 2.010 . S
O139 C131 1.249 . S
Mg140 O141 2.028 . S
Mg140 O147 1.986 . S
Mg140 O149 2.114 . S
Mg140 O150 2.251 . S
Mg140 O153 2.010 . S
O141 Mg140 2.028 . S
O141 C144 1.250 . S
O142 Mg143 2.028 . S
O142 C144 1.248 . S
Mg143 O142 2.028 . S
Mg143 O148 2.032 . S
Mg143 O150 2.079 . S
C144 O141 1.250 . S
C144 O142 1.248 . S
C145 O146 1.264 . S
C145 O153 1.249 . S
O146 C145 1.264 . S
O147 Mg140 1.986 . S
O147 C151 1.246 . S
O148 Mg143 2.032 . S
O148 C151 1.259 . S
O149 Mg140 2.114 . S
O149 C152 1.252 . S
O150 Mg140 2.251 . S
O150 Mg143 2.079 . S
O150 C152 1.273 . S
C151 O147 1.246 . S
C151 O148 1.259 . S
C152 O149 1.252 . S
C152 O150 1.273 . S
O153 Mg140 2.010 . S
O153 C145 1.249 . S
Mg154 O155 2.028 1_554 S
Mg154 O161 1.986 . S
Mg154 O163 2.114 1_554 S
Mg154 O164 2.251 . S
Mg154 O167 2.010 . S
O155 Mg154 2.028 1_556 S
O155 C158 1.250 . S
O156 Mg157 2.028 1_556 S
O156 C158 1.248 . S
Mg157 O156 2.028 1_554 S
Mg157 O162 2.032 . S
Mg157 O164 2.079 . S
C158 O155 1.250 . S
C158 O156 1.248 . S
C159 O160 1.264 . S
C159 O167 1.249 . S
O160 C159 1.264 . S
O161 Mg154 1.986 . S
O161 C165 1.246 . S
O162 Mg157 2.032 . S
O162 C165 1.259 . S
O163 Mg154 2.114 1_556 S
O163 C166 1.252 1_556 S
O164 Mg154 2.251 . S
O164 Mg157 2.079 . S
O164 C166 1.273 . S
C165 O161 1.246 . S
C165 O162 1.259 . S
C166 O163 1.252 1_554 S
C166 O164 1.273 . S
O167 Mg154 2.010 . S
O167 C159 1.249 . S
Mg168 O169 2.028 . S
Mg168 O175 1.986 . S
Mg168 O177 2.114 . S
Mg168 O178 2.251 . S
Mg168 O181 2.010 . S
O169 Mg168 2.028 . S
O169 C172 1.250 . S
O170 Mg171 2.028 . S
O170 C172 1.248 . S
Mg171 O170 2.028 . S
Mg171 O176 2.032 . S
Mg171 O178 2.079 . S
C172 O169 1.250 . S
C172 O170 1.248 . S
C173 O174 1.264 . S
C173 O181 1.249 . S
O174 C173 1.264 . S
O175 Mg168 1.986 . S
O175 C179 1.246 . S
O176 Mg171 2.032 . S
O176 C179 1.259 . S
O177 Mg168 2.114 . S
O177 C180 1.252 . S
O178 Mg168 2.251 . S
O178 Mg171 2.079 . S
O178 C180 1.273 . S
C179 O175 1.246 . S
C179 O176 1.259 . S
C180 O177 1.252 . S
C180 O178 1.273 . S
O181 Mg168 2.010 . S
O181 C173 1.249 . S
Mg182 O183 2.028 . S
Mg182 O189 1.986 . S
Mg182 O191 2.114 . S
Mg182 O192 2.251 . S
Mg182 O195 2.010 . S
O183 Mg182 2.028 . S
O183 C186 1.250 . S
O184 Mg185 2.028 . S
O184 C186 1.248 . S
Mg185 O184 2.028 . S
Mg185 O190 2.032 . S
Mg185 O192 2.079 . S
C186 O183 1.250 . S
C186 O184 1.248 . S
C187 O188 1.264 . S
C187 O195 1.249 . S
O188 C187 1.264 . S
O189 Mg182 1.986 . S
O189 C193 1.246 . S
O190 Mg185 2.032 . S
O190 C193 1.259 . S
O191 Mg182 2.114 . S
O191 C194 1.252 . S
O192 Mg182 2.251 . S
O192 Mg185 2.079 . S
O192 C194 1.273 . S
C193 O189 1.246 . S
C193 O190 1.259 . S
C194 O191 1.252 . S
C194 O192 1.273 . S
O195 Mg182 2.010 . S
O195 C187 1.249 . S
Mg196 O197 2.028 . S
Mg196 O203 1.986 . S
Mg196 O205 2.114 . S
Mg196 O206 2.251 . S
Mg196 O209 2.010 . S
O197 Mg196 2.028 . S
O197 C200 1.250 . S
O198 Mg199 2.028 . S
O198 C200 1.248 . S
Mg199 O198 2.028 . S
Mg199 O204 2.032 . S
Mg199 O206 2.079 . S
C200 O197 1.250 . S
C200 O198 1.248 . S
C201 O202 1.264 . S
C201 O209 1.249 . S
O202 C201 1.264 . S
O203 Mg196 1.986 . S
O203 C207 1.246 . S
O204 Mg199 2.032 . S
O204 C207 1.259 . S
O205 Mg196 2.114 . S
O205 C208 1.252 . S
O206 Mg196 2.251 . S
O206 Mg199 2.079 . S
O206 C208 1.273 . S
C207 O203 1.246 . S
C207 O204 1.259 . S
C208 O205 1.252 . S
C208 O206 1.273 . S
O209 Mg196 2.010 . S
O209 C201 1.249 . S
Mg210 O211 2.028 . S
Mg210 O217 1.986 . S
Mg210 O219 2.114 . S
Mg210 O220 2.251 . S
Mg210 O223 2.010 . S
O211 Mg210 2.028 . S
O211 C214 1.250 . S
O212 Mg213 2.028 . S
O212 C214 1.248 . S
Mg213 O212 2.028 . S
Mg213 O218 2.032 . S
Mg213 O220 2.079 . S
C214 O211 1.250 . S
C214 O212 1.248 . S
C215 O216 1.264 . S
C215 O223 1.249 . S
O216 C215 1.264 . S
O217 Mg210 1.986 . S
O217 C221 1.246 . S
O218 Mg213 2.032 . S
O218 C221 1.259 . S
O219 Mg210 2.114 . S
O219 C222 1.252 . S
O220 Mg210 2.251 . S
O220 Mg213 2.079 . S
O220 C222 1.273 . S
C221 O217 1.246 . S
C221 O218 1.259 . S
C222 O219 1.252 . S
C222 O220 1.273 . S
O223 Mg210 2.010 . S
O223 C215 1.249 . S
Mg224 O225 2.028 1_545 S
Mg224 O231 1.986 . S
Mg224 O233 2.114 . S
Mg224 O234 2.251 . S
Mg224 O237 2.010 . S
O225 Mg224 2.028 1_565 S
O225 C228 1.250 . S
O226 Mg227 2.028 1_565 S
O226 C228 1.248 . S
Mg227 O226 2.028 1_545 S
Mg227 O232 2.032 . S
Mg227 O234 2.079 . S
C228 O225 1.250 . S
C228 O226 1.248 . S
C229 O230 1.264 . S
C229 O237 1.249 . S
O230 C229 1.264 . S
O231 Mg224 1.986 . S
O231 C235 1.246 . S
O232 Mg227 2.032 . S
O232 C235 1.259 . S
O233 Mg224 2.114 . S
O233 C236 1.252 . S
O234 Mg224 2.251 . S
O234 Mg227 2.079 . S
O234 C236 1.273 . S
C235 O231 1.246 . S
C235 O232 1.259 . S
C236 O233 1.252 . S
C236 O234 1.273 . S
O237 Mg224 2.010 . S
O237 C229 1.249 . S
Mg238 O239 2.028 . S
Mg238 O245 1.986 . S
Mg238 O247 2.114 . S
Mg238 O248 2.251 . S
Mg238 O251 2.010 . S
O239 Mg238 2.028 . S
O239 C242 1.250 . S
O240 Mg241 2.028 . S
O240 C242 1.248 . S
Mg241 O240 2.028 . S
Mg241 O246 2.032 . S
Mg241 O248 2.079 . S
C242 O239 1.250 . S
C242 O240 1.248 . S
C243 O244 1.264 . S
C243 O251 1.249 . S
O244 C243 1.264 . S
O245 Mg238 1.986 . S
O245 C249 1.246 . S
O246 Mg241 2.032 . S
O246 C249 1.259 . S
O247 Mg238 2.114 . S
O247 C250 1.252 . S
O248 Mg238 2.251 . S
O248 Mg241 2.079 . S
O248 C250 1.273 . S
C249 O245 1.246 . S
C249 O246 1.259 . S
C250 O247 1.252 . S
C250 O248 1.273 . S
O251 Mg238 2.010 . S
O251 C243 1.249 . S
Mg252 O253 2.028 . S
Mg252 O259 1.986 . S
Mg252 O261 2.114 . S
Mg252 O262 2.251 . S
Mg252 O265 2.010 . S
O253 Mg252 2.028 . S
O253 C256 1.250 . S
O254 Mg255 2.028 . S
O254 C256 1.248 . S
Mg255 O254 2.028 . S
Mg255 O260 2.032 . S
Mg255 O262 2.079 . S
C256 O253 1.250 . S
C256 O254 1.248 . S
C257 O258 1.264 . S
C257 O265 1.249 . S
O258 C257 1.264 . S
O259 Mg252 1.986 . S
O259 C263 1.246 . S
O260 Mg255 2.032 . S
O260 C263 1.259 . S
O261 Mg252 2.114 . S
O261 C264 1.252 . S
O262 Mg252 2.251 . S
O262 Mg255 2.079 . S
O262 C264 1.273 . S
C263 O259 1.246 . S
C263 O260 1.259 . S
C264 O261 1.252 . S
C264 O262 1.273 . S
O265 Mg252 2.010 . S
O265 C257 1.249 . S
Mg266 O267 2.028 . S
Mg266 O273 1.986 . S
Mg266 O275 2.114 . S
Mg266 O276 2.251 . S
Mg266 O279 2.010 . S
O267 Mg266 2.028 . S
O267 C270 1.250 . S
O268 Mg269 2.028 . S
O268 C270 1.248 . S
Mg269 O268 2.028 . S
Mg269 O274 2.032 . S
Mg269 O276 2.079 . S
C270 O267 1.250 . S
C270 O268 1.248 . S
C271 O272 1.264 . S
C271 O279 1.249 . S
O272 C271 1.264 . S
O273 Mg266 1.986 . S
O273 C277 1.246 . S
O274 Mg269 2.032 . S
O274 C277 1.259 . S
O275 Mg266 2.114 . S
O275 C278 1.252 . S
O276 Mg266 2.251 . S
O276 Mg269 2.079 . S
O276 C278 1.273 . S
C277 O273 1.246 . S
C277 O274 1.259 . S
C278 O275 1.252 . S
C278 O276 1.273 . S
O279 Mg266 2.010 . S
O279 C271 1.249 . S
Mg280 O281 2.049 . S
Mg280 O287 1.969 1_554 S
Mg280 O289 2.125 . S
Mg280 O290 2.252 . S
Mg280 O293 2.011 1_554 S
O281 Mg280 2.049 . S
O281 C284 1.250 . S
O282 Mg283 2.028 . S
O282 C284 1.248 . S
Mg283 O282 2.028 . S
Mg283 O288 2.032 1_554 S
Mg283 O290 2.079 . S
C284 O281 1.250 . S
C284 O282 1.248 . S
C285 O286 1.264 . S
C285 O293 1.249 . S
O286 C285 1.264 . S
O287 Mg280 1.969 1_556 S
O287 C291 1.246 . S
O288 Mg283 2.032 1_556 S
O288 C291 1.259 . S
O289 Mg280 2.125 . S
O289 C292 1.252 . S
O290 Mg280 2.252 . S
O290 Mg283 2.079 . S
O290 C292 1.273 . S
C291 O287 1.246 . S
C291 O288 1.259 . S
C292 O289 1.252 . S
C292 O290 1.273 . S
O293 Mg280 2.011 1_556 S
O293 C285 1.249 . S
Mg294 O295 2.028 . S
Mg294 O301 1.986 . S
Mg294 O303 2.114 . S
Mg294 O304 2.251 . S
Mg294 O307 2.010 . S
O295 Mg294 2.028 . S
O295 C298 1.250 . S
O296 Mg297 2.028 . S
O296 C298 1.248 . S
Mg297 O296 2.028 . S
Mg297 O302 2.032 . S
Mg297 O304 2.079 . S
C298 O295 1.250 . S
C298 O296 1.248 . S
C299 O300 1.264 . S
C299 O307 1.249 . S
O300 C299 1.264 . S
O301 Mg294 1.986 . S
O301 C305 1.246 . S
O302 Mg297 2.032 . S
O302 C305 1.259 . S
O303 Mg294 2.114 . S
O303 C306 1.252 . S
O304 Mg294 2.251 . S
O304 Mg297 2.079 . S
O304 C306 1.273 . S
C305 O301 1.246 . S
C305 O302 1.259 . S
C306 O303 1.252 . S
C306 O304 1.273 . S
O307 Mg294 2.010 . S
O307 C299 1.249 . S
Mg308 O309 2.028 . S
Mg308 O315 1.986 . S
Mg308 O317 2.114 . S
Mg308 O318 2.251 . S
Mg308 O321 2.010 . S
O309 Mg308 2.028 . S
O309 C312 1.250 . S
O310 Mg311 2.028 . S
O310 C312 1.248 . S
Mg311 O310 2.028 . S
Mg311 O316 2.032 . S
Mg311 O318 2.079 . S
C312 O309 1.250 . S
C312 O310 1.248 . S
C313 O314 1.264 . S
C313 O321 1.249 . S
O314 C313 1.264 . S
O315 Mg308 1.986 . S
O315 C319 1.246 . S
O316 Mg311 2.032 . S
O316 C319 1.259 . S
O317 Mg308 2.114 . S
O317 C320 1.252 . S
O318 Mg308 2.251 . S
O318 Mg311 2.079 . S
O318 C320 1.273 . S
C319 O315 1.246 . S
C319 O316 1.259 . S
C320 O317 1.252 . S
C320 O318 1.273 . S
O321 Mg308 2.010 . S
O321 C313 1.249 . S
Mg322 O323 2.028 . S
Mg322 O329 1.986 . S
Mg322 O331 2.114 . S
Mg322 O332 2.251 . S
Mg322 O335 2.010 . S
O323 Mg322 2.028 . S
O323 C326 1.250 . S
O324 Mg325 2.028 . S
O324 C326 1.248 . S
Mg325 O324 2.028 . S
Mg325 O330 2.032 . S
Mg325 O332 2.079 . S
C326 O323 1.250 . S
C326 O324 1.248 . S
C327 O328 1.264 . S
C327 O335 1.249 . S
O328 C327 1.264 . S
O329 Mg322 1.986 . S
O329 C333 1.246 . S
O330 Mg325 2.032 . S
O330 C333 1.259 . S
O331 Mg322 2.114 . S
O331 C334 1.252 . S
O332 Mg322 2.251 . S
O332 Mg325 2.079 . S
O332 C334 1.273 . S
C333 O329 1.246 . S
C333 O330 1.259 . S
C334 O331 1.252 . S
C334 O332 1.273 . S
O335 Mg322 2.010 . S
O335 C327 1.249 . S
Tb336 N365 2.617 . S
Tb336 N371 2.572 . S
Tb336 O380 2.465 . S
Tb336 O381 2.387 . S
Tb336 O383 2.428 . S
Tb336 O384 2.308 1_554 S
Tb336 O388 2.358 . S
Tb336 O391 2.393 . S
Tb336 C400 2.802 . S
C337 N338 1.379 . S
C337 C340 1.416 . S
C337 C344 1.424 . S
N338 C337 1.379 . S
N338 C341 1.334 . S
N338 Tb347 2.617 1_566 S
C339 C341 1.390 . S
C339 C342 1.339 . S
C339 H359 0.930 . S
C340 C337 1.416 . S
C340 C342 1.416 . S
C340 C346 1.448 . S
C341 N338 1.334 . S
C341 C339 1.390 . S
C341 H352 0.930 . S
C342 C339 1.339 . S
C342 C340 1.416 . S
C342 H363 0.930 . S
C343 C344 1.413 1_554 S
C343 C345 1.427 1_554 S
C343 C349 1.416 . S
C344 C337 1.424 . S
C344 C343 1.413 1_556 S
C344 N348 1.361 1_556 S
C345 C343 1.427 1_556 S
C345 C346 1.328 . S
C345 H360 0.929 . S
C346 C340 1.448 . S
C346 C345 1.328 . S
C346 H361 0.930 . S
Tb347 N338 2.617 1_544 S
Tb347 N348 2.572 1_545 S
Tb347 O382 2.349 1_655 S
Tb347 O385 2.393 1_654 S
Tb347 O386 2.465 . S
Tb347 O387 2.387 1_645 S
Tb347 O389 2.428 1_554 S
Tb347 O390 2.308 1_655 S
Tb347 C411 2.802 1_554 S
N348 C344 1.361 1_554 S
N348 Tb347 2.572 1_565 S
N348 C350 1.340 . S
C349 C343 1.416 . S
C349 C351 1.332 . S
C349 H357 0.931 . S
C350 N348 1.340 . S
C350 C351 1.407 . S
C350 H356 0.930 . S
C351 C349 1.332 . S
C351 C350 1.407 . S
C351 H353 0.929 . S
H352 C341 0.930 . S
H353 C351 0.929 . S
H354 C369 0.930 . S
H355 C376 0.962 . S
H356 C350 0.930 . S
H357 C349 0.931 . S
H358 C372 0.930 1_556 S
H359 C339 0.930 . S
H360 C345 0.929 . S
H361 C346 0.930 . S
H362 C367 0.930 . S
H363 C342 0.930 . S
H364 C375 0.931 . S
N365 Tb336 2.617 . S
N365 C366 1.379 . S
N365 C369 1.334 . S
C366 N365 1.379 . S
C366 C368 1.416 . S
C366 C374 1.424 . S
C367 H362 0.930 . S
C367 C369 1.390 . S
C367 C370 1.339 . S
C368 C366 1.416 . S
C368 C370 1.416 . S
C368 C401 1.448 . S
C369 H354 0.930 . S
C369 N365 1.334 . S
C369 C367 1.390 . S
C370 C367 1.339 . S
C370 C368 1.416 . S
C370 H377 0.930 . S
N371 Tb336 2.572 . S
N371 C372 1.340 . S
N371 C374 1.361 . S
C372 H358 0.930 1_554 S
C372 N371 1.340 . S
C372 C376 1.392 1_554 S
C373 C374 1.413 . S
C373 C375 1.416 . S
C373 C402 1.427 . S
C374 C366 1.424 . S
C374 N371 1.361 . S
C374 C373 1.413 . S
C375 H364 0.931 . S
C375 C373 1.416 . S
C375 C376 1.315 1_554 S
C376 H355 0.962 . S
C376 C372 1.392 1_556 S
C376 C375 1.315 1_556 S
H377 C370 0.930 . S
H378 C401 0.930 . S
H379 C402 0.929 . S
O380 Tb336 2.465 . S
O380 C400 1.264 . S
O381 Tb336 2.387 . S
O381 C392 1.264 . S
O382 Tb347 2.349 1_455 S
O382 C392 1.243 . S
O383 Tb336 2.428 . S
O383 C400 1.256 . S
O384 Tb336 2.308 1_556 S
O384 C399 1.266 . S
O385 Tb347 2.393 1_456 S
O385 C399 1.248 . S
O386 Tb347 2.465 . S
O386 C411 1.264 1_554 S
O387 Tb347 2.387 1_465 S
O387 C403 1.264 . S
O388 Tb336 2.358 . S
O388 C403 1.239 1_545 S
O389 Tb347 2.428 1_556 S
O389 C411 1.256 . S
O390 Tb347 2.308 1_455 S
O390 C410 1.266 . S
O391 Tb336 2.393 . S
O391 C410 1.248 . S
C392 O381 1.264 . S
C392 O382 1.243 . S
C393 C396 1.399 . S
C393 C398 1.383 . S
C393 C400 1.496 . S
C394 C395 1.399 . S
C394 C398 1.389 . S
C395 C394 1.399 . S
C395 C397 1.380 . S
C395 H412 0.929 . S
C396 C393 1.399 . S
C396 C397 1.392 . S
C396 H413 0.929 . S
C397 C395 1.380 . S
C397 C396 1.392 . S
C397 H414 0.929 . S
C398 C393 1.383 . S
C398 C394 1.389 . S
C398 H415 0.931 . S
C399 O384 1.266 . S
C399 O385 1.248 . S
C400 Tb336 2.802 . S
C400 O380 1.264 . S
C400 O383 1.256 . S
C400 C393 1.496 . S
C401 C368 1.448 . S
C401 H378 0.930 . S
C401 C402 1.328 . S
C402 C373 1.427 . S
C402 H379 0.929 . S
C402 C401 1.328 . S
C403 O387 1.264 . S
C403 O388 1.239 1_565 S
C404 C407 1.399 . S
C404 C408 1.383 1_556 S
C404 C411 1.496 . S
C405 C406 1.399 1_554 S
C405 C408 1.389 . S
C406 C405 1.399 1_556 S
C406 C409 1.380 . S
C406 H416 0.929 . S
C407 C404 1.399 . S
C407 C409 1.392 . S
C407 H417 0.929 . S
C408 C404 1.383 1_554 S
C408 C405 1.389 . S
C408 H418 0.931 . S
C409 C406 1.380 . S
C409 C407 1.392 . S
C409 H419 0.929 . S
C410 O390 1.266 . S
C410 O391 1.248 . S
C411 Tb347 2.802 1_556 S
C411 O386 1.264 1_556 S
C411 O389 1.256 . S
C411 C404 1.496 . S
H412 C395 0.929 . S
H413 C396 0.929 . S
H414 C397 0.929 . S
H415 C398 0.931 . S
H416 C406 0.929 . S
H417 C407 0.929 . S
H418 C408 0.931 . S
H419 C409 0.929 . S
Tb420 N449 2.617 . S
Tb420 N455 2.572 . S
Tb420 O464 2.465 . S
Tb420 O465 2.387 . S
Tb420 O467 2.428 . S
Tb420 O468 2.308 . S
Tb420 O472 2.349 . S
Tb420 O475 2.393 . S
Tb420 C484 2.802 . S
C421 N422 1.379 . S
C421 C424 1.416 . S
C421 C428 1.424 . S
N422 C421 1.379 . S
N422 C425 1.334 . S
N422 Tb431 2.617 . S
C423 C425 1.390 . S
C423 C426 1.339 . S
C423 H443 0.930 . S
C424 C421 1.416 . S
C424 C426 1.416 . S
C424 C430 1.448 . S
C425 N422 1.334 . S
C425 C423 1.390 . S
C425 H436 0.930 . S
C426 C423 1.339 . S
C426 C424 1.416 . S
C426 H447 0.930 . S
C427 C428 1.413 . S
C427 C429 1.427 . S
C427 C433 1.416 . S
C428 C421 1.424 . S
C428 C427 1.413 . S
C428 N432 1.361 . S
C429 C427 1.427 . S
C429 C430 1.328 . S
C429 H444 0.929 . S
C430 C424 1.448 . S
C430 C429 1.328 . S
C430 H445 0.930 . S
Tb431 N422 2.617 . S
Tb431 N432 2.572 . S
Tb431 O466 2.349 . S
Tb431 O469 2.393 . S
Tb431 O470 2.465 . S
Tb431 O471 2.387 . S
Tb431 O473 2.428 . S
Tb431 O474 2.308 . S
Tb431 C495 2.802 . S
N432 C428 1.361 . S
N432 Tb431 2.572 . S
N432 C434 1.340 . S
C433 C427 1.416 . S
C433 C435 1.332 . S
C433 H441 0.931 . S
C434 N432 1.340 . S
C434 C435 1.407 . S
C434 H440 0.930 . S
C435 C433 1.332 . S
C435 C434 1.407 . S
C435 H437 0.929 . S
H436 C425 0.930 . S
H437 C435 0.929 . S
H438 C453 0.930 . S
H439 C460 0.929 . S
H440 C434 0.930 . S
H441 C433 0.931 . S
H442 C456 0.930 . S
H443 C423 0.930 . S
H444 C429 0.929 . S
H445 C430 0.930 . S
H446 C451 0.930 . S
H447 C426 0.930 . S
H448 C459 0.931 . S
N449 Tb420 2.617 . S
N449 C450 1.379 . S
N449 C453 1.334 . S
C450 N449 1.379 . S
C450 C452 1.416 . S
C450 C458 1.424 . S
C451 H446 0.930 . S
C451 C453 1.390 . S
C451 C454 1.339 . S
C452 C450 1.416 . S
C452 C454 1.416 . S
C452 C485 1.448 . S
C453 H438 0.930 . S
C453 N449 1.334 . S
C453 C451 1.390 . S
C454 C451 1.339 . S
C454 C452 1.416 . S
C454 H461 0.930 . S
N455 Tb420 2.572 . S
N455 C456 1.340 . S
N455 C458 1.361 . S
C456 H442 0.930 . S
C456 N455 1.340 . S
C456 C460 1.407 . S
C457 C458 1.413 . S
C457 C459 1.416 . S
C457 C486 1.427 . S
C458 C450 1.424 . S
C458 N455 1.361 . S
C458 C457 1.413 . S
C459 H448 0.931 . S
C459 C457 1.416 . S
C459 C460 1.332 . S
C460 H439 0.929 . S
C460 C456 1.407 . S
C460 C459 1.332 . S
H461 C454 0.930 . S
H462 C485 0.930 . S
H463 C486 0.929 . S
O464 Tb420 2.465 . S
O464 C484 1.264 . S
O465 Tb420 2.387 . S
O465 C476 1.264 . S
O466 Tb431 2.349 . S
O466 C476 1.243 . S
O467 Tb420 2.428 . S
O467 C484 1.256 . S
O468 Tb420 2.308 . S
O468 C483 1.266 . S
O469 Tb431 2.393 . S
O469 C483 1.248 . S
O470 Tb431 2.465 . S
O470 C495 1.264 . S
O471 Tb431 2.387 . S
O471 C487 1.264 . S
O472 Tb420 2.349 . S
O472 C487 1.243 . S
O473 Tb431 2.428 . S
O473 C495 1.256 . S
O474 Tb431 2.308 . S
O474 C494 1.266 . S
O475 Tb420 2.393 . S
O475 C494 1.248 . S
C476 O465 1.264 . S
C476 O466 1.243 . S
C477 C480 1.399 . S
C477 C482 1.383 . S
C477 C484 1.496 . S
C478 C479 1.399 . S
C478 C482 1.389 . S
C479 C478 1.399 . S
C479 C481 1.380 . S
C479 H496 0.929 . S
C480 C477 1.399 . S
C480 C481 1.392 . S
C480 H497 0.929 . S
C481 C479 1.380 . S
C481 C480 1.392 . S
C481 H498 0.929 . S
C482 C477 1.383 . S
C482 C478 1.389 . S
C482 H499 0.931 . S
C483 O468 1.266 . S
C483 O469 1.248 . S
C484 Tb420 2.802 . S
C484 O464 1.264 . S
C484 O467 1.256 . S
C484 C477 1.496 . S
C485 C452 1.448 . S
C485 H462 0.930 . S
C485 C486 1.328 . S
C486 C457 1.427 . S
C486 H463 0.929 . S
C486 C485 1.328 . S
C487 O471 1.264 . S
C487 O472 1.243 . S
C488 C491 1.399 . S
C488 C492 1.383 . S
C488 C495 1.496 . S
C489 C490 1.399 . S
C489 C492 1.389 . S
C490 C489 1.399 . S
C490 C493 1.380 . S
C490 H500 0.929 . S
C491 C488 1.399 . S
C491 C493 1.392 . S
C491 H501 0.929 . S
C492 C488 1.383 . S
C492 C489 1.389 . S
C492 H502 0.931 . S
C493 C490 1.380 . S
C493 C491 1.392 . S
C493 H503 0.929 . S
C494 O474 1.266 . S
C494 O475 1.248 . S
C495 Tb431 2.802 . S
C495 O470 1.264 . S
C495 O473 1.256 . S
C495 C488 1.496 . S
H496 C479 0.929 . S
H497 C480 0.929 . S
H498 C481 0.929 . S
H499 C482 0.931 . S
H500 C490 0.929 . S
H501 C491 0.929 . S
H502 C492 0.931 . S
H503 C493 0.929 . S
Tb504 N533 2.617 . S
Tb504 N539 2.572 1_545 S
Tb504 O548 2.465 . S
Tb504 O549 2.387 1_545 S
Tb504 O551 2.428 . S
Tb504 O552 2.308 . S
Tb504 O556 2.349 . S
Tb504 O559 2.393 . S
Tb504 C568 2.802 . S
C505 N506 1.379 . S
C505 C508 1.416 . S
C505 C512 1.424 . S
N506 C505 1.379 . S
N506 C509 1.334 . S
N506 Tb515 2.617 . S
C507 C509 1.390 . S
C507 C510 1.339 . S
C507 H527 0.930 . S
C508 C505 1.416 . S
C508 C510 1.416 . S
C508 C514 1.448 . S
C509 N506 1.334 . S
C509 C507 1.390 . S
C509 H520 0.930 . S
C510 C507 1.339 . S
C510 C508 1.416 . S
C510 H531 0.930 . S
C511 C512 1.413 . S
C511 C513 1.427 . S
C511 C517 1.416 . S
C512 C505 1.424 . S
C512 C511 1.413 . S
C512 N516 1.361 . S
C513 C511 1.427 . S
C513 C514 1.328 . S
C513 H528 0.929 . S
C514 C508 1.448 . S
C514 C513 1.328 . S
C514 H529 0.930 . S
Tb515 N506 2.617 . S
Tb515 N516 2.572 . S
Tb515 O550 2.349 1_545 S
Tb515 O553 2.393 . S
Tb515 O554 2.465 . S
Tb515 O555 2.387 . S
Tb515 O557 2.428 . S
Tb515 O558 2.308 . S
Tb515 C579 2.802 . S
N516 C512 1.361 . S
N516 Tb515 2.572 . S
N516 C518 1.340 . S
C517 C511 1.416 . S
C517 C519 1.332 . S
C517 H525 0.931 . S
C518 N516 1.340 . S
C518 C519 1.407 . S
C518 H524 0.930 . S
C519 C517 1.332 . S
C519 C518 1.407 . S
C519 H521 0.929 . S
H520 C509 0.930 . S
H521 C519 0.929 . S
H522 C537 0.930 . S
H523 C544 0.929 . S
H524 C518 0.930 . S
H525 C517 0.931 . S
H526 C540 0.930 . S
H527 C507 0.930 . S
H528 C513 0.929 . S
H529 C514 0.930 . S
H530 C535 0.930 . S
H531 C510 0.930 . S
H532 C543 0.931 . S
N533 Tb504 2.617 . S
N533 C534 1.379 1_545 S
N533 C537 1.334 . S
C534 N533 1.379 1_565 S
C534 C536 1.416 . S
C534 C542 1.424 . S
C535 H530 0.930 . S
C535 C537 1.390 1_565 S
C535 C538 1.339 . S
C536 C534 1.416 . S
C536 C538 1.416 . S
C536 C569 1.448 . S
C537 H522 0.930 . S
C537 N533 1.334 . S
C537 C535 1.390 1_545 S
C538 C535 1.339 . S
C538 C536 1.416 . S
C538 H545 0.930 . S
N539 Tb504 2.572 1_565 S
N539 C540 1.340 . S
N539 C542 1.361 . S
C540 H526 0.930 . S
C540 N539 1.340 . S
C540 C544 1.407 . S
C541 C542 1.413 . S
C541 C543 1.416 . S
C541 C570 1.427 . S
C542 C534 1.424 . S
C542 N539 1.361 . S
C542 C541 1.413 . S
C543 H532 0.931 . S
C543 C541 1.416 . S
C543 C544 1.332 . S
C544 H523 0.929 . S
C544 C540 1.407 . S
C544 C543 1.332 . S
H545 C538 0.930 . S
H546 C569 0.930 . S
H547 C570 0.929 . S
O548 Tb504 2.465 . S
O548 C568 1.264 . S
O549 Tb504 2.387 1_565 S
O549 C560 1.264 . S
O550 Tb515 2.349 1_565 S
O550 C560 1.243 . S
O551 Tb504 2.428 . S
O551 C568 1.256 . S
O552 Tb504 2.308 . S
O552 C567 1.266 . S
O553 Tb515 2.393 . S
O553 C567 1.248 . S
O554 Tb515 2.465 . S
O554 C579 1.264 . S
O555 Tb515 2.387 . S
O555 C571 1.264 . S
O556 Tb504 2.349 . S
O556 C571 1.243 . S
O557 Tb515 2.428 . S
O557 C579 1.256 . S
O558 Tb515 2.308 . S
O558 C578 1.266 . S
O559 Tb504 2.393 . S
O559 C578 1.248 . S
C560 O549 1.264 . S
C560 O550 1.243 . S
C561 C564 1.399 . S
C561 C566 1.383 . S
C561 C568 1.496 . S
C562 C563 1.399 . S
C562 C566 1.389 . S
C563 C562 1.399 . S
C563 C565 1.380 . S
C563 H580 0.929 . S
C564 C561 1.399 . S
C564 C565 1.392 . S
C564 H581 0.929 . S
C565 C563 1.380 . S
C565 C564 1.392 . S
C565 H582 0.929 . S
C566 C561 1.383 . S
C566 C562 1.389 . S
C566 H583 0.931 . S
C567 O552 1.266 . S
C567 O553 1.248 . S
C568 Tb504 2.802 . S
C568 O548 1.264 . S
C568 O551 1.256 . S
C568 C561 1.496 . S
C569 C536 1.448 . S
C569 H546 0.930 . S
C569 C570 1.328 . S
C570 C541 1.427 . S
C570 H547 0.929 . S
C570 C569 1.328 . S
C571 O555 1.264 . S
C571 O556 1.243 . S
C572 C575 1.399 . S
C572 C576 1.383 . S
C572 C579 1.496 1_565 S
C573 C574 1.399 . S
C573 C576 1.389 . S
C574 C573 1.399 . S
C574 C577 1.380 . S
C574 H584 0.929 . S
C575 C572 1.399 . S
C575 C577 1.392 . S
C575 H585 0.929 . S
C576 C572 1.383 . S
C576 C573 1.389 . S
C576 H586 0.931 . S
C577 C574 1.380 . S
C577 C575 1.392 . S
C577 H587 0.929 . S
C578 O558 1.266 . S
C578 O559 1.248 . S
C579 Tb515 2.802 . S
C579 O554 1.264 . S
C579 O557 1.256 . S
C579 C572 1.496 1_545 S
H580 C563 0.929 . S
H581 C564 0.929 . S
H582 C565 0.929 . S
H583 C566 0.931 . S
H584 C574 0.929 . S
H585 C575 0.929 . S
H586 C576 0.931 . S
H587 C577 0.929 . S
Tb588 N617 2.617 . S
Tb588 N623 2.572 . S
Tb588 O632 2.465 . S
Tb588 O633 2.387 . S
Tb588 O635 2.428 . S
Tb588 O636 2.308 . S
Tb588 O640 2.349 . S
Tb588 O643 2.393 . S
Tb588 C652 2.802 . S
C589 N590 1.379 . S
C589 C592 1.416 . S
C589 C596 1.424 . S
N590 C589 1.379 . S
N590 C593 1.334 . S
N590 Tb599 2.617 . S
C591 C593 1.390 . S
C591 C594 1.339 . S
C591 H611 0.930 . S
C592 C589 1.416 . S
C592 C594 1.416 . S
C592 C598 1.448 . S
C593 N590 1.334 . S
C593 C591 1.390 . S
C593 H604 0.930 . S
C594 C591 1.339 . S
C594 C592 1.416 . S
C594 H615 0.930 . S
C595 C596 1.413 . S
C595 C597 1.427 . S
C595 C601 1.416 . S
C596 C589 1.424 . S
C596 C595 1.413 . S
C596 N600 1.361 . S
C597 C595 1.427 . S
C597 C598 1.328 . S
C597 H612 0.929 . S
C598 C592 1.448 . S
C598 C597 1.328 . S
C598 H613 0.930 . S
Tb599 N590 2.617 . S
Tb599 N600 2.572 . S
Tb599 O634 2.349 . S
Tb599 O637 2.393 . S
Tb599 O638 2.465 . S
Tb599 O639 2.387 . S
Tb599 O641 2.428 . S
Tb599 O642 2.308 . S
Tb599 C663 2.802 . S
N600 C596 1.361 . S
N600 Tb599 2.572 . S
N600 C602 1.340 . S
C601 C595 1.416 . S
C601 C603 1.332 . S
C601 H609 0.931 . S
C602 N600 1.340 . S
C602 C603 1.407 . S
C602 H608 0.930 . S
C603 C601 1.332 . S
C603 C602 1.407 . S
C603 H605 0.929 . S
H604 C593 0.930 . S
H605 C603 0.929 . S
H606 C621 0.930 . S
H607 C628 0.929 . S
H608 C602 0.930 . S
H609 C601 0.931 . S
H610 C624 0.930 . S
H611 C591 0.930 . S
H612 C597 0.929 . S
H613 C598 0.930 . S
H614 C619 0.930 . S
H615 C594 0.930 . S
H616 C627 0.931 . S
N617 Tb588 2.617 . S
N617 C618 1.379 . S
N617 C621 1.334 . S
C618 N617 1.379 . S
C618 C620 1.416 . S
C618 C626 1.424 . S
C619 H614 0.930 . S
C619 C621 1.390 . S
C619 C622 1.339 . S
C620 C618 1.416 . S
C620 C622 1.416 . S
C620 C653 1.448 . S
C621 H606 0.930 . S
C621 N617 1.334 . S
C621 C619 1.390 . S
C622 C619 1.339 . S
C622 C620 1.416 . S
C622 H629 0.930 . S
N623 Tb588 2.572 . S
N623 C624 1.340 . S
N623 C626 1.361 . S
C624 H610 0.930 . S
C624 N623 1.340 . S
C624 C628 1.407 . S
C625 C626 1.413 . S
C625 C627 1.416 . S
C625 C654 1.427 . S
C626 C618 1.424 . S
C626 N623 1.361 . S
C626 C625 1.413 . S
C627 H616 0.931 . S
C627 C625 1.416 . S
C627 C628 1.332 . S
C628 H607 0.929 . S
C628 C624 1.407 . S
C628 C627 1.332 . S
H629 C622 0.930 . S
H630 C653 0.930 . S
H631 C654 0.929 . S
O632 Tb588 2.465 . S
O632 C652 1.264 . S
O633 Tb588 2.387 . S
O633 C644 1.264 . S
O634 Tb599 2.349 . S
O634 C644 1.243 . S
O635 Tb588 2.428 . S
O635 C652 1.256 . S
O636 Tb588 2.308 . S
O636 C651 1.266 . S
O637 Tb599 2.393 . S
O637 C651 1.248 . S
O638 Tb599 2.465 . S
O638 C663 1.264 . S
O639 Tb599 2.387 . S
O639 C655 1.264 . S
O640 Tb588 2.349 . S
O640 C655 1.243 . S
O641 Tb599 2.428 . S
O641 C663 1.256 . S
O642 Tb599 2.308 . S
O642 C662 1.266 . S
O643 Tb588 2.393 . S
O643 C662 1.248 . S
C644 O633 1.264 . S
C644 O634 1.243 . S
C645 C648 1.399 . S
C645 C650 1.383 . S
C645 C652 1.496 . S
C646 C647 1.399 . S
C646 C650 1.389 . S
C647 C646 1.399 . S
C647 C649 1.380 . S
C647 H664 0.929 . S
C648 C645 1.399 . S
C648 C649 1.392 . S
C648 H665 0.929 . S
C649 C647 1.380 . S
C649 C648 1.392 . S
C649 H666 0.929 . S
C650 C645 1.383 . S
C650 C646 1.389 . S
C650 H667 0.931 . S
C651 O636 1.266 . S
C651 O637 1.248 . S
C652 Tb588 2.802 . S
C652 O632 1.264 . S
C652 O635 1.256 . S
C652 C645 1.496 . S
C653 C620 1.448 . S
C653 H630 0.930 . S
C653 C654 1.328 . S
C654 C625 1.427 . S
C654 H631 0.929 . S
C654 C653 1.328 . S
C655 O639 1.264 . S
C655 O640 1.243 . S
C656 C659 1.399 . S
C656 C660 1.383 . S
C656 C663 1.496 . S
C657 C658 1.399 . S
C657 C660 1.389 . S
C658 C657 1.399 . S
C658 C661 1.380 . S
C658 H668 0.929 . S
C659 C656 1.399 . S
C659 C661 1.392 . S
C659 H669 0.929 . S
C660 C656 1.383 . S
C660 C657 1.389 . S
C660 H670 0.931 . S
C661 C658 1.380 . S
C661 C659 1.392 . S
C661 H671 0.929 . S
C662 O642 1.266 . S
C662 O643 1.248 . S
C663 Tb599 2.802 . S
C663 O638 1.264 . S
C663 O641 1.256 . S
C663 C656 1.496 . S
H664 C647 0.929 . S
H665 C648 0.929 . S
H666 C649 0.929 . S
H667 C650 0.931 . S
H668 C658 0.929 . S
H669 C659 0.929 . S
H670 C660 0.931 . S
H671 C661 0.929 . S
Tb672 N701 2.617 . S
Tb672 N707 2.572 . S
Tb672 O716 2.465 . S
Tb672 O717 2.387 1_565 S
Tb672 O719 2.428 . S
Tb672 O720 2.272 1_465 S
Tb672 O724 2.349 1_565 S
Tb672 O727 2.393 1_565 S
Tb672 C736 2.802 . S
C673 N674 1.376 1_455 S
C673 C676 1.409 1_455 S
C673 C680 1.434 . S
N674 C673 1.376 1_655 S
N674 C677 1.334 . S
N674 Tb683 2.617 1_655 S
C675 C677 1.390 . S
C675 C678 1.339 . S
C675 H695 0.930 . S
C676 C673 1.409 1_655 S
C676 C678 1.416 . S
C676 C682 1.448 1_655 S
C677 N674 1.334 . S
C677 C675 1.390 . S
C677 H688 0.930 . S
C678 C675 1.339 . S
C678 C676 1.416 . S
C678 H699 0.930 . S
C679 C680 1.413 . S
C679 C681 1.427 . S
C679 C685 1.416 . S
C680 C673 1.434 . S
C680 C679 1.413 . S
C680 N684 1.361 . S
C681 C679 1.427 . S
C681 C682 1.328 . S
C681 H696 0.929 . S
C682 C676 1.448 1_455 S
C682 C681 1.328 . S
C682 H697 0.930 1_455 S
Tb683 N674 2.617 1_455 S
Tb683 N684 2.572 . S
Tb683 O718 2.349 . S
Tb683 O721 2.393 1_455 S
Tb683 O722 2.465 . S
Tb683 O723 2.387 . S
Tb683 O725 2.428 1_455 S
Tb683 O726 2.308 . S
Tb683 C747 2.802 . S
N684 C680 1.361 . S
N684 Tb683 2.572 . S
N684 C686 1.340 . S
C685 C679 1.416 . S
C685 C687 1.332 . S
C685 H693 0.931 . S
C686 N684 1.340 . S
C686 C687 1.407 . S
C686 H692 0.930 . S
C687 C685 1.332 . S
C687 C686 1.407 . S
C687 H689 0.929 . S
H688 C677 0.930 . S
H689 C687 0.929 . S
H690 C705 0.930 1_545 S
H691 C712 0.929 . S
H692 C686 0.930 . S
H693 C685 0.931 . S
H694 C708 0.930 . S
H695 C675 0.930 . S
H696 C681 0.929 . S
H697 C682 0.930 1_655 S
H698 C703 0.930 . S
H699 C678 0.930 . S
H700 C711 0.931 . S
N701 Tb672 2.617 . S
N701 C702 1.379 . S
N701 C705 1.334 . S
C702 N701 1.379 . S
C702 C704 1.416 . S
C702 C710 1.424 . S
C703 H698 0.930 . S
C703 C705 1.390 . S
C703 C706 1.339 . S
C704 C702 1.416 . S
C704 C706 1.416 . S
C704 C737 1.448 . S
C705 H690 0.930 1_565 S
C705 N701 1.334 . S
C705 C703 1.390 . S
C706 C703 1.339 . S
C706 C704 1.416 . S
C706 H713 0.930 . S
N707 Tb672 2.572 . S
N707 C708 1.340 1_455 S
N707 C710 1.361 . S
C708 H694 0.930 . S
C708 N707 1.340 1_655 S
C708 C712 1.407 . S
C709 C710 1.413 . S
C709 C711 1.416 1_455 S
C709 C738 1.427 . S
C710 C702 1.424 . S
C710 N707 1.361 . S
C710 C709 1.413 . S
C711 H700 0.931 . S
C711 C709 1.416 1_655 S
C711 C712 1.332 . S
C712 H691 0.929 . S
C712 C708 1.407 . S
C712 C711 1.332 . S
H713 C706 0.930 . S
H714 C737 0.930 . S
H715 C738 0.929 . S
O716 Tb672 2.465 . S
O716 C736 1.264 . S
O717 Tb672 2.387 1_545 S
O717 C728 1.264 . S
O718 Tb683 2.349 . S
O718 C728 1.243 . S
O719 Tb672 2.428 . S
O719 C736 1.256 . S
O720 Tb672 2.272 1_645 S
O720 C735 1.300 . S
O721 Tb683 2.393 1_655 S
O721 C735 1.248 . S
O722 Tb683 2.465 . S
O722 C747 1.264 . S
O723 Tb683 2.387 . S
O723 C739 1.264 . S
O724 Tb672 2.349 1_545 S
O724 C739 1.243 . S
O725 Tb683 2.428 1_655 S
O725 C747 1.256 1_655 S
O726 Tb683 2.308 . S
O726 C746 1.266 . S
O727 Tb672 2.393 1_545 S
O727 C746 1.248 . S
C728 O717 1.264 . S
C728 O718 1.243 . S
C729 C732 1.399 . S
C729 C734 1.383 . S
C729 C736 1.496 . S
C730 C731 1.399 . S
C730 C734 1.389 . S
C731 C730 1.399 . S
C731 C733 1.380 . S
C731 H748 0.929 . S
C732 C729 1.399 . S
C732 C733 1.392 . S
C732 H749 0.929 . S
C733 C731 1.380 . S
C733 C732 1.392 . S
C733 H750 0.929 . S
C734 C729 1.383 . S
C734 C730 1.389 . S
C734 H751 0.931 . S
C735 O720 1.300 . S
C735 O721 1.248 . S
C736 Tb672 2.802 . S
C736 O716 1.264 . S
C736 O719 1.256 . S
C736 C729 1.496 . S
C737 C704 1.448 . S
C737 H714 0.930 . S
C737 C738 1.328 . S
C738 C709 1.427 . S
C738 H715 0.929 . S
C738 C737 1.328 . S
C739 O723 1.264 . S
C739 O724 1.243 . S
C740 C743 1.399 1_455 S
C740 C744 1.383 . S
C740 C747 1.496 . S
C741 C742 1.399 1_455 S
C741 C744 1.389 . S
C742 C741 1.399 1_655 S
C742 C745 1.380 . S
C742 H752 0.929 . S
C743 C740 1.399 1_655 S
C743 C745 1.392 . S
C743 H753 0.929 . S
C744 C740 1.383 . S
C744 C741 1.389 . S
C744 H754 0.931 . S
C745 C742 1.380 . S
C745 C743 1.392 . S
C745 H755 0.929 . S
C746 O726 1.266 . S
C746 O727 1.248 . S
C747 Tb683 2.802 . S
C747 O722 1.264 . S
C747 O725 1.256 1_455 S
C747 C740 1.496 . S
H748 C731 0.929 . S
H749 C732 0.929 . S
H750 C733 0.929 . S
H751 C734 0.931 . S
H752 C742 0.929 . S
H753 C743 0.929 . S
H754 C744 0.931 . S
H755 C745 0.929 . S
Tb756 N785 2.617 . S
Tb756 N791 2.572 . S
Tb756 O800 2.465 . S
Tb756 O801 2.387 . S
Tb756 O803 2.428 . S
Tb756 O804 2.308 . S
Tb756 O808 2.349 . S
Tb756 O811 2.393 . S
Tb756 C820 2.802 . S
C757 N758 1.379 . S
C757 C760 1.416 . S
C757 C764 1.424 . S
N758 C757 1.379 . S
N758 C761 1.334 . S
N758 Tb767 2.617 . S
C759 C761 1.390 . S
C759 C762 1.339 . S
C759 H779 0.930 . S
C760 C757 1.416 . S
C760 C762 1.416 . S
C760 C766 1.448 . S
C761 N758 1.334 . S
C761 C759 1.390 . S
C761 H772 0.930 . S
C762 C759 1.339 . S
C762 C760 1.416 . S
C762 H783 0.930 . S
C763 C764 1.413 . S
C763 C765 1.427 . S
C763 C769 1.416 . S
C764 C757 1.424 . S
C764 C763 1.413 . S
C764 N768 1.361 . S
C765 C763 1.427 . S
C765 C766 1.328 . S
C765 H780 0.929 . S
C766 C760 1.448 . S
C766 C765 1.328 . S
C766 H781 0.930 . S
Tb767 N758 2.617 . S
Tb767 N768 2.572 . S
Tb767 O802 2.349 . S
Tb767 O805 2.393 . S
Tb767 O806 2.465 . S
Tb767 O807 2.387 . S
Tb767 O809 2.428 . S
Tb767 O810 2.308 . S
Tb767 C831 2.802 . S
N768 C764 1.361 . S
N768 Tb767 2.572 . S
N768 C770 1.340 . S
C769 C763 1.416 . S
C769 C771 1.332 . S
C769 H777 0.931 . S
C770 N768 1.340 . S
C770 C771 1.407 . S
C770 H776 0.930 . S
C771 C769 1.332 . S
C771 C770 1.407 . S
C771 H773 0.929 . S
H772 C761 0.930 . S
H773 C771 0.929 . S
H774 C789 0.930 . S
H775 C796 0.929 . S
H776 C770 0.930 . S
H777 C769 0.931 . S
H778 C792 0.930 . S
H779 C759 0.930 . S
H780 C765 0.929 . S
H781 C766 0.930 . S
H782 C787 0.930 . S
H783 C762 0.930 . S
H784 C795 0.931 . S
N785 Tb756 2.617 . S
N785 C786 1.379 . S
N785 C789 1.334 . S
C786 N785 1.379 . S
C786 C788 1.416 . S
C786 C794 1.424 . S
C787 H782 0.930 . S
C787 C789 1.390 . S
C787 C790 1.339 . S
C788 C786 1.416 . S
C788 C790 1.416 . S
C788 C821 1.448 . S
C789 H774 0.930 . S
C789 N785 1.334 . S
C789 C787 1.390 . S
C790 C787 1.339 . S
C790 C788 1.416 . S
C790 H797 0.930 . S
N791 Tb756 2.572 . S
N791 C792 1.340 . S
N791 C794 1.361 . S
C792 H778 0.930 . S
C792 N791 1.340 . S
C792 C796 1.407 . S
C793 C794 1.413 . S
C793 C795 1.416 . S
C793 C822 1.427 . S
C794 C786 1.424 . S
C794 N791 1.361 . S
C794 C793 1.413 . S
C795 H784 0.931 . S
C795 C793 1.416 . S
C795 C796 1.332 . S
C796 H775 0.929 . S
C796 C792 1.407 . S
C796 C795 1.332 . S
H797 C790 0.930 . S
H798 C821 0.930 . S
H799 C822 0.929 . S
O800 Tb756 2.465 . S
O800 C820 1.264 . S
O801 Tb756 2.387 . S
O801 C812 1.264 . S
O802 Tb767 2.349 . S
O802 C812 1.243 . S
O803 Tb756 2.428 . S
O803 C820 1.256 . S
O804 Tb756 2.308 . S
O804 C819 1.266 . S
O805 Tb767 2.393 . S
O805 C819 1.248 . S
O806 Tb767 2.465 . S
O806 C831 1.264 . S
O807 Tb767 2.387 . S
O807 C823 1.264 . S
O808 Tb756 2.349 . S
O808 C823 1.243 . S
O809 Tb767 2.428 . S
O809 C831 1.256 . S
O810 Tb767 2.308 . S
O810 C830 1.266 . S
O811 Tb756 2.393 . S
O811 C830 1.248 . S
C812 O801 1.264 . S
C812 O802 1.243 . S
C813 C816 1.399 . S
C813 C818 1.383 . S
C813 C820 1.496 . S
C814 C815 1.399 . S
C814 C818 1.389 . S
C815 C814 1.399 . S
C815 C817 1.380 . S
C815 H832 0.929 . S
C816 C813 1.399 . S
C816 C817 1.392 . S
C816 H833 0.929 . S
C817 C815 1.380 . S
C817 C816 1.392 . S
C817 H834 0.929 . S
C818 C813 1.383 . S
C818 C814 1.389 . S
C818 H835 0.931 . S
C819 O804 1.266 . S
C819 O805 1.248 . S
C820 Tb756 2.802 . S
C820 O800 1.264 . S
C820 O803 1.256 . S
C820 C813 1.496 . S
C821 C788 1.448 . S
C821 H798 0.930 . S
C821 C822 1.328 . S
C822 C793 1.427 . S
C822 H799 0.929 . S
C822 C821 1.328 . S
C823 O807 1.264 . S
C823 O808 1.243 . S
C824 C827 1.399 . S
C824 C828 1.383 . S
C824 C831 1.496 . S
C825 C826 1.399 . S
C825 C828 1.389 . S
C826 C825 1.399 . S
C826 C829 1.380 . S
C826 H836 0.929 . S
C827 C824 1.399 . S
C827 C829 1.392 . S
C827 H837 0.929 . S
C828 C824 1.383 . S
C828 C825 1.389 . S
C828 H838 0.931 . S
C829 C826 1.380 . S
C829 C827 1.392 . S
C829 H839 0.929 . S
C830 O810 1.266 . S
C830 O811 1.248 . S
C831 Tb767 2.802 . S
C831 O806 1.264 . S
C831 O809 1.256 . S
C831 C824 1.496 . S
H832 C815 0.929 . S
H833 C816 0.929 . S
H834 C817 0.929 . S
H835 C818 0.931 . S
H836 C826 0.929 . S
H837 C827 0.929 . S
H838 C828 0.931 . S
H839 C829 0.929 . S
Tb840 N869 2.617 . S
Tb840 N875 2.572 . S
Tb840 O884 2.465 . S
Tb840 O885 2.387 1_556 S
Tb840 O887 2.428 . S
Tb840 O888 2.308 . S
Tb840 O892 2.349 1_556 S
Tb840 O895 2.393 1_556 S
Tb840 C904 2.802 . S
C841 N842 1.379 . S
C841 C844 1.416 . S
C841 C848 1.424 1_565 S
N842 C841 1.379 . S
N842 C845 1.334 . S
N842 Tb851 2.617 1_565 S
C843 C845 1.390 . S
C843 C846 1.339 . S
C843 H863 0.930 . S
C844 C841 1.416 . S
C844 C846 1.416 . S
C844 C850 1.448 . S
C845 N842 1.334 . S
C845 C843 1.390 . S
C845 H856 0.930 . S
C846 C843 1.339 . S
C846 C844 1.416 . S
C846 H867 0.930 . S
C847 C848 1.413 . S
C847 C849 1.427 . S
C847 C853 1.416 . S
C848 C841 1.424 1_545 S
C848 C847 1.413 . S
C848 N852 1.361 . S
C849 C847 1.427 . S
C849 C850 1.328 1_545 S
C849 H864 0.929 . S
C850 C844 1.448 . S
C850 C849 1.328 1_565 S
C850 H865 0.930 . S
Tb851 N842 2.617 1_545 S
Tb851 N852 2.572 . S
Tb851 O886 2.349 . S
Tb851 O889 2.393 1_545 S
Tb851 O890 2.465 . S
Tb851 O891 2.387 . S
Tb851 O893 2.428 1_545 S
Tb851 O894 2.308 . S
Tb851 C915 2.802 1_545 S
N852 C848 1.361 . S
N852 Tb851 2.572 . S
N852 C854 1.340 . S
C853 C847 1.416 . S
C853 C855 1.332 . S
C853 H861 0.931 . S
C854 N852 1.340 . S
C854 C855 1.407 . S
C854 H860 0.930 . S
C855 C853 1.332 . S
C855 C854 1.407 . S
C855 H857 0.929 . S
H856 C845 0.930 . S
H857 C855 0.929 . S
H858 C873 0.930 1_554 S
H859 C880 0.929 . S
H860 C854 0.930 . S
H861 C853 0.931 . S
H862 C876 0.930 1_565 S
H863 C843 0.930 . S
H864 C849 0.929 . S
H865 C850 0.930 . S
H866 C871 0.930 . S
H867 C846 0.930 . S
H868 C879 0.931 1_565 S
N869 Tb840 2.617 . S
N869 C870 1.379 . S
N869 C873 1.334 . S
C870 N869 1.379 . S
C870 C872 1.416 . S
C870 C878 1.424 . S
C871 H866 0.930 . S
C871 C873 1.390 . S
C871 C874 1.339 . S
C872 C870 1.416 . S
C872 C874 1.416 . S
C872 C905 1.448 . S
C873 H858 0.930 1_556 S
C873 N869 1.334 . S
C873 C871 1.390 . S
C874 C871 1.339 . S
C874 C872 1.416 . S
C874 H881 0.930 . S
N875 Tb840 2.572 . S
N875 C876 1.340 . S
N875 C878 1.361 . S
C876 H862 0.930 1_545 S
C876 N875 1.340 . S
C876 C880 1.407 1_545 S
C877 C878 1.413 . S
C877 C879 1.416 . S
C877 C906 1.427 . S
C878 C870 1.424 . S
C878 N875 1.361 . S
C878 C877 1.413 . S
C879 H868 0.931 1_545 S
C879 C877 1.416 . S
C879 C880 1.332 1_545 S
C880 H859 0.929 . S
C880 C876 1.407 1_565 S
C880 C879 1.332 1_565 S
H881 C874 0.930 . S
H882 C905 0.930 . S
H883 C906 0.929 . S
O884 Tb840 2.465 . S
O884 C904 1.264 . S
O885 Tb840 2.387 1_554 S
O885 C896 1.264 . S
O886 Tb851 2.349 . S
O886 C896 1.243 . S
O887 Tb840 2.428 . S
O887 C904 1.256 . S
O888 Tb840 2.308 . S
O888 C903 1.250 1_546 S
O889 Tb851 2.393 1_565 S
O889 C903 1.292 . S
O890 Tb851 2.465 . S
O890 C915 1.264 1_545 S
O891 Tb851 2.387 . S
O891 C907 1.264 . S
O892 Tb840 2.349 1_554 S
O892 C907 1.243 . S
O893 Tb851 2.428 1_565 S
O893 C915 1.256 . S
O894 Tb851 2.308 . S
O894 C914 1.266 . S
O895 Tb840 2.393 1_554 S
O895 C914 1.248 . S
C896 O885 1.264 . S
C896 O886 1.243 . S
C897 C900 1.399 . S
C897 C902 1.383 . S
C897 C904 1.496 . S
C898 C899 1.399 . S
C898 C902 1.389 . S
C899 C898 1.399 . S
C899 C901 1.380 . S
C899 H916 0.929 . S
C900 C897 1.399 . S
C900 C901 1.392 . S
C900 H917 0.929 . S
C901 C899 1.380 . S
C901 C900 1.392 . S
C901 H918 0.929 . S
C902 C897 1.383 . S
C902 C898 1.389 . S
C902 H919 0.931 . S
C903 O888 1.250 1_564 S
C903 O889 1.292 . S
C904 Tb840 2.802 . S
C904 O884 1.264 . S
C904 O887 1.256 . S
C904 C897 1.496 . S
C905 C872 1.448 . S
C905 H882 0.930 . S
C905 C906 1.328 . S
C906 C877 1.427 . S
C906 H883 0.929 . S
C906 C905 1.328 . S
C907 O891 1.264 . S
C907 O892 1.243 . S
C908 C911 1.399 . S
C908 C912 1.383 1_565 S
C908 C915 1.496 . S
C909 C910 1.429 . S
C909 C912 1.381 1_565 S
C910 C909 1.429 . S
C910 C913 1.380 . S
C910 H920 0.929 . S
C911 C908 1.399 . S
C911 C913 1.392 . S
C911 H921 0.929 . S
C912 C908 1.383 1_545 S
C912 C909 1.381 1_545 S
C912 H922 0.931 . S
C913 C910 1.380 . S
C913 C911 1.392 . S
C913 H923 0.929 . S
C914 O894 1.266 . S
C914 O895 1.248 . S
C915 Tb851 2.802 1_565 S
C915 O890 1.264 1_565 S
C915 O893 1.256 . S
C915 C908 1.496 . S
H916 C899 0.929 . S
H917 C900 0.929 . S
H918 C901 0.929 . S
H919 C902 0.931 . S
H920 C910 0.929 . S
H921 C911 0.929 . S
H922 C912 0.931 . S
H923 C913 0.929 . S
Tb924 N953 2.617 . S
Tb924 N959 2.572 . S
Tb924 O968 2.465 . S
Tb924 O969 2.387 . S
Tb924 O971 2.428 . S
Tb924 O972 2.308 . S
Tb924 O976 2.349 . S
Tb924 O979 2.393 . S
Tb924 C988 2.802 . S
C925 N926 1.379 . S
C925 C928 1.416 . S
C925 C932 1.424 . S
N926 C925 1.379 . S
N926 C929 1.334 . S
N926 Tb935 2.617 . S
C927 C929 1.390 . S
C927 C930 1.339 . S
C927 H947 0.930 . S
C928 C925 1.416 . S
C928 C930 1.416 . S
C928 C934 1.448 . S
C929 N926 1.334 . S
C929 C927 1.390 . S
C929 H940 0.930 . S
C930 C927 1.339 . S
C930 C928 1.416 . S
C930 H951 0.930 . S
C931 C932 1.413 . S
C931 C933 1.427 . S
C931 C937 1.416 . S
C932 C925 1.424 . S
C932 C931 1.413 . S
C932 N936 1.361 . S
C933 C931 1.427 . S
C933 C934 1.328 . S
C933 H948 0.929 . S
C934 C928 1.448 . S
C934 C933 1.328 . S
C934 H949 0.930 . S
Tb935 N926 2.617 . S
Tb935 N936 2.572 . S
Tb935 O970 2.349 . S
Tb935 O973 2.393 . S
Tb935 O974 2.465 . S
Tb935 O975 2.387 . S
Tb935 O977 2.428 . S
Tb935 O978 2.308 . S
Tb935 C999 2.802 . S
N936 C932 1.361 . S
N936 Tb935 2.572 . S
N936 C938 1.340 . S
C937 C931 1.416 . S
C937 C939 1.332 . S
C937 H945 0.931 . S
C938 N936 1.340 . S
C938 C939 1.407 . S
C938 H944 0.930 . S
C939 C937 1.332 . S
C939 C938 1.407 . S
C939 H941 0.929 . S
H940 C929 0.930 . S
H941 C939 0.929 . S
H942 C957 0.930 . S
H943 C964 0.929 . S
H944 C938 0.930 . S
H945 C937 0.931 . S
H946 C960 0.930 . S
H947 C927 0.930 . S
H948 C933 0.929 . S
H949 C934 0.930 . S
H950 C955 0.930 . S
H951 C930 0.930 . S
H952 C963 0.931 . S
N953 Tb924 2.617 . S
N953 C954 1.379 . S
N953 C957 1.334 . S
C954 N953 1.379 . S
C954 C956 1.416 . S
C954 C962 1.424 . S
C955 H950 0.930 . S
C955 C957 1.390 . S
C955 C958 1.339 . S
C956 C954 1.416 . S
C956 C958 1.416 . S
C956 C989 1.448 . S
C957 H942 0.930 . S
C957 N953 1.334 . S
C957 C955 1.390 . S
C958 C955 1.339 . S
C958 C956 1.416 . S
C958 H965 0.930 . S
N959 Tb924 2.572 . S
N959 C960 1.340 . S
N959 C962 1.361 . S
C960 H946 0.930 . S
C960 N959 1.340 . S
C960 C964 1.407 . S
C961 C962 1.413 . S
C961 C963 1.416 . S
C961 C990 1.427 . S
C962 C954 1.424 . S
C962 N959 1.361 . S
C962 C961 1.413 . S
C963 H952 0.931 . S
C963 C961 1.416 . S
C963 C964 1.332 . S
C964 H943 0.929 . S
C964 C960 1.407 . S
C964 C963 1.332 . S
H965 C958 0.930 . S
H966 C989 0.930 . S
H967 C990 0.929 . S
O968 Tb924 2.465 . S
O968 C988 1.264 . S
O969 Tb924 2.387 . S
O969 C980 1.264 . S
O970 Tb935 2.349 . S
O970 C980 1.243 . S
O971 Tb924 2.428 . S
O971 C988 1.256 . S
O972 Tb924 2.308 . S
O972 C987 1.266 . S
O973 Tb935 2.393 . S
O973 C987 1.248 . S
O974 Tb935 2.465 . S
O974 C999 1.264 . S
O975 Tb935 2.387 . S
O975 C991 1.264 . S
O976 Tb924 2.349 . S
O976 C991 1.243 . S
O977 Tb935 2.428 . S
O977 C999 1.256 . S
O978 Tb935 2.308 . S
O978 C998 1.266 . S
O979 Tb924 2.393 . S
O979 C998 1.248 . S
C980 O969 1.264 . S
C980 O970 1.243 . S
C981 C984 1.399 . S
C981 C986 1.383 . S
C981 C988 1.496 . S
C982 C983 1.399 . S
C982 C986 1.389 . S
C983 C982 1.399 . S
C983 C985 1.380 . S
C983 H1000 0.929 . S
C984 C981 1.399 . S
C984 C985 1.392 . S
C984 H1001 0.929 . S
C985 C983 1.380 . S
C985 C984 1.392 . S
C985 H1002 0.929 . S
C986 C981 1.383 . S
C986 C982 1.389 . S
C986 H1003 0.931 . S
C987 O972 1.266 . S
C987 O973 1.248 . S
C988 Tb924 2.802 . S
C988 O968 1.264 . S
C988 O971 1.256 . S
C988 C981 1.496 . S
C989 C956 1.448 . S
C989 H966 0.930 . S
C989 C990 1.328 . S
C990 C961 1.427 . S
C990 H967 0.929 . S
C990 C989 1.328 . S
C991 O975 1.264 . S
C991 O976 1.243 . S
C992 C995 1.399 . S
C992 C996 1.383 . S
C992 C999 1.496 . S
C993 C994 1.399 . S
C993 C996 1.389 . S
C994 C993 1.399 . S
C994 C997 1.380 . S
C994 H1004 0.929 . S
C995 C992 1.399 . S
C995 C997 1.392 . S
C995 H1005 0.929 . S
C996 C992 1.383 . S
C996 C993 1.389 . S
C996 H1006 0.931 . S
C997 C994 1.380 . S
C997 C995 1.392 . S
C997 H1007 0.929 . S
C998 O978 1.266 . S
C998 O979 1.248 . S
C999 Tb935 2.802 . S
C999 O974 1.264 . S
C999 O977 1.256 . S
C999 C992 1.496 . S
H1000 C983 0.929 . S
H1001 C984 0.929 . S
H1002 C985 0.929 . S
H1003 C986 0.931 . S
H1004 C994 0.929 . S
H1005 C995 0.929 . S
H1006 C996 0.931 . S
H1007 C997 0.929 . S
Tb1008 N1037 2.617 1_554 S
Tb1008 N1043 2.572 1_554 S
Tb1008 O1052 2.465 . S
Tb1008 O1053 2.387 1_554 S
Tb1008 O1055 2.428 . S
Tb1008 O1056 2.308 . S
Tb1008 O1060 2.349 . S
Tb1008 O1063 2.393 . S
Tb1008 C1072 2.802 . S
C1009 N1010 1.379 . S
C1009 C1012 1.416 . S
C1009 C1016 1.424 . S
N1010 C1009 1.379 . S
N1010 C1013 1.334 . S
N1010 Tb1019 2.617 . S
C1011 C1013 1.390 . S
C1011 C1014 1.339 . S
C1011 H1031 0.930 . S
C1012 C1009 1.416 . S
C1012 C1014 1.416 . S
C1012 C1018 1.448 . S
C1013 N1010 1.334 . S
C1013 C1011 1.390 . S
C1013 H1024 0.930 . S
C1014 C1011 1.339 . S
C1014 C1012 1.416 . S
C1014 H1035 0.930 . S
C1015 C1016 1.413 . S
C1015 C1017 1.427 . S
C1015 C1021 1.416 . S
C1016 C1009 1.424 . S
C1016 C1015 1.413 . S
C1016 N1020 1.361 . S
C1017 C1015 1.427 . S
C1017 C1018 1.328 . S
C1017 H1032 0.929 . S
C1018 C1012 1.448 . S
C1018 C1017 1.328 . S
C1018 H1033 0.930 . S
Tb1019 N1010 2.617 . S
Tb1019 N1020 2.572 . S
Tb1019 O1054 2.349 1_554 S
Tb1019 O1057 2.393 . S
Tb1019 O1058 2.465 . S
Tb1019 O1059 2.387 . S
Tb1019 O1061 2.428 . S
Tb1019 O1062 2.308 . S
Tb1019 C1083 2.802 . S
N1020 C1016 1.361 . S
N1020 Tb1019 2.572 . S
N1020 C1022 1.340 . S
C1021 C1015 1.416 . S
C1021 C1023 1.332 . S
C1021 H1029 0.931 . S
C1022 N1020 1.340 . S
C1022 C1023 1.407 . S
C1022 H1028 0.930 . S
C1023 C1021 1.332 . S
C1023 C1022 1.407 . S
C1023 H1025 0.929 . S
H1024 C1013 0.930 . S
H1025 C1023 0.929 . S
H1026 C1041 0.943 . S
H1027 C1048 0.929 . S
H1028 C1022 0.930 . S
H1029 C1021 0.931 . S
H1030 C1044 0.930 . S
H1031 C1011 0.930 . S
H1032 C1017 0.929 . S
H1033 C1018 0.930 . S
H1034 C1039 0.930 . S
H1035 C1014 0.930 . S
H1036 C1047 0.931 . S
N1037 Tb1008 2.617 1_556 S
N1037 C1038 1.379 . S
N1037 C1041 1.334 . S
C1038 N1037 1.379 . S
C1038 C1040 1.416 . S
C1038 C1046 1.424 . S
C1039 H1034 0.930 . S
C1039 C1041 1.390 . S
C1039 C1042 1.339 . S
C1040 C1038 1.416 . S
C1040 C1042 1.416 . S
C1040 C1073 1.448 . S
C1041 H1026 0.943 . S
C1041 N1037 1.334 . S
C1041 C1039 1.390 . S
C1042 C1039 1.339 . S
C1042 C1040 1.416 . S
C1042 H1049 0.930 . S
N1043 Tb1008 2.572 1_556 S
N1043 C1044 1.340 . S
N1043 C1046 1.361 . S
C1044 H1030 0.930 . S
C1044 N1043 1.340 . S
C1044 C1048 1.407 . S
C1045 C1046 1.413 . S
C1045 C1047 1.416 . S
C1045 C1074 1.427 . S
C1046 C1038 1.424 . S
C1046 N1043 1.361 . S
C1046 C1045 1.413 . S
C1047 H1036 0.931 . S
C1047 C1045 1.416 . S
C1047 C1048 1.332 . S
C1048 H1027 0.929 . S
C1048 C1044 1.407 . S
C1048 C1047 1.332 . S
H1049 C1042 0.930 . S
H1050 C1073 0.930 . S
H1051 C1074 0.929 . S
O1052 Tb1008 2.465 . S
O1052 C1072 1.264 . S
O1053 Tb1008 2.387 1_556 S
O1053 C1064 1.264 . S
O1054 Tb1019 2.349 1_556 S
O1054 C1064 1.243 . S
O1055 Tb1008 2.428 . S
O1055 C1072 1.256 . S
O1056 Tb1008 2.308 . S
O1056 C1071 1.266 . S
O1057 Tb1019 2.393 . S
O1057 C1071 1.248 . S
O1058 Tb1019 2.465 . S
O1058 C1083 1.264 . S
O1059 Tb1019 2.387 . S
O1059 C1075 1.264 . S
O1060 Tb1008 2.349 . S
O1060 C1075 1.243 . S
O1061 Tb1019 2.428 . S
O1061 C1083 1.256 . S
O1062 Tb1019 2.308 . S
O1062 C1082 1.266 . S
O1063 Tb1008 2.393 . S
O1063 C1082 1.248 . S
C1064 O1053 1.264 . S
C1064 O1054 1.243 . S
C1065 C1068 1.399 . S
C1065 C1070 1.383 . S
C1065 C1072 1.496 . S
C1066 C1067 1.399 . S
C1066 C1070 1.389 . S
C1067 C1066 1.399 . S
C1067 C1069 1.380 . S
C1067 H1084 0.929 . S
C1068 C1065 1.399 . S
C1068 C1069 1.392 . S
C1068 H1085 0.929 . S
C1069 C1067 1.380 . S
C1069 C1068 1.392 . S
C1069 H1086 0.929 . S
C1070 C1065 1.383 . S
C1070 C1066 1.389 . S
C1070 H1087 0.931 . S
C1071 O1056 1.266 . S
C1071 O1057 1.248 . S
C1072 Tb1008 2.802 . S
C1072 O1052 1.264 . S
C1072 O1055 1.256 . S
C1072 C1065 1.496 . S
C1073 C1040 1.448 . S
C1073 H1050 0.930 . S
C1073 C1074 1.328 . S
C1074 C1045 1.427 . S
C1074 H1051 0.929 . S
C1074 C1073 1.328 . S
C1075 O1059 1.264 . S
C1075 O1060 1.243 . S
C1076 C1079 1.399 . S
C1076 C1080 1.383 . S
C1076 C1083 1.496 1_556 S
C1077 C1078 1.399 . S
C1077 C1080 1.389 . S
C1078 C1077 1.399 . S
C1078 C1081 1.380 . S
C1078 H1088 0.929 . S
C1079 C1076 1.399 . S
C1079 C1081 1.392 . S
C1079 H1089 0.929 . S
C1080 C1076 1.383 . S
C1080 C1077 1.389 . S
C1080 H1090 0.931 . S
C1081 C1078 1.380 . S
C1081 C1079 1.392 . S
C1081 H1091 0.929 . S
C1082 O1062 1.266 . S
C1082 O1063 1.248 . S
C1083 Tb1019 2.802 . S
C1083 O1058 1.264 . S
C1083 O1061 1.256 . S
C1083 C1076 1.496 1_554 S
H1084 C1067 0.929 . S
H1085 C1068 0.929 . S
H1086 C1069 0.929 . S
H1087 C1070 0.931 . S
H1088 C1078 0.929 . S
H1089 C1079 0.929 . S
H1090 C1080 0.931 . S
H1091 C1081 0.929 . S
Tb1092 N1121 2.617 . S
Tb1092 N1127 2.572 . S
Tb1092 O1136 2.465 . S
Tb1092 O1137 2.387 . S
Tb1092 O1139 2.428 . S
Tb1092 O1140 2.308 . S
Tb1092 O1144 2.349 . S
Tb1092 O1147 2.393 . S
Tb1092 C1156 2.802 . S
C1093 N1094 1.379 . S
C1093 C1096 1.416 . S
C1093 C1100 1.424 . S
N1094 C1093 1.379 . S
N1094 C1097 1.334 . S
N1094 Tb1103 2.617 . S
C1095 C1097 1.390 . S
C1095 C1098 1.339 . S
C1095 H1115 0.930 . S
C1096 C1093 1.416 . S
C1096 C1098 1.416 . S
C1096 C1102 1.448 . S
C1097 N1094 1.334 . S
C1097 C1095 1.390 . S
C1097 H1108 0.930 . S
C1098 C1095 1.339 . S
C1098 C1096 1.416 . S
C1098 H1119 0.930 . S
C1099 C1100 1.413 . S
C1099 C1101 1.427 . S
C1099 C1105 1.416 . S
C1100 C1093 1.424 . S
C1100 C1099 1.413 . S
C1100 N1104 1.361 . S
C1101 C1099 1.427 . S
C1101 C1102 1.328 . S
C1101 H1116 0.929 . S
C1102 C1096 1.448 . S
C1102 C1101 1.328 . S
C1102 H1117 0.930 . S
Tb1103 N1094 2.617 . S
Tb1103 N1104 2.572 . S
Tb1103 O1138 2.349 . S
Tb1103 O1141 2.393 . S
Tb1103 O1142 2.465 . S
Tb1103 O1143 2.387 . S
Tb1103 O1145 2.428 . S
Tb1103 O1146 2.308 . S
Tb1103 C1167 2.802 . S
N1104 C1100 1.361 . S
N1104 Tb1103 2.572 . S
N1104 C1106 1.340 . S
C1105 C1099 1.416 . S
C1105 C1107 1.332 . S
C1105 H1113 0.931 . S
C1106 N1104 1.340 . S
C1106 C1107 1.407 . S
C1106 H1112 0.930 . S
C1107 C1105 1.332 . S
C1107 C1106 1.407 . S
C1107 H1109 0.929 . S
H1108 C1097 0.930 . S
H1109 C1107 0.929 . S
H1110 C1125 0.930 . S
H1111 C1132 0.929 . S
H1112 C1106 0.930 . S
H1113 C1105 0.931 . S
H1114 C1128 0.930 . S
H1115 C1095 0.930 . S
H1116 C1101 0.929 . S
H1117 C1102 0.930 . S
H1118 C1123 0.930 . S
H1119 C1098 0.930 . S
H1120 C1131 0.931 . S
N1121 Tb1092 2.617 . S
N1121 C1122 1.379 . S
N1121 C1125 1.334 . S
C1122 N1121 1.379 . S
C1122 C1124 1.416 . S
C1122 C1130 1.424 . S
C1123 H1118 0.930 . S
C1123 C1125 1.390 . S
C1123 C1126 1.339 . S
C1124 C1122 1.416 . S
C1124 C1126 1.416 . S
C1124 C1157 1.448 . S
C1125 H1110 0.930 . S
C1125 N1121 1.334 . S
C1125 C1123 1.390 . S
C1126 C1123 1.339 . S
C1126 C1124 1.416 . S
C1126 H1133 0.930 . S
N1127 Tb1092 2.572 . S
N1127 C1128 1.340 . S
N1127 C1130 1.361 . S
C1128 H1114 0.930 . S
C1128 N1127 1.340 . S
C1128 C1132 1.407 . S
C1129 C1130 1.413 . S
C1129 C1131 1.416 . S
C1129 C1158 1.427 . S
C1130 C1122 1.424 . S
C1130 N1127 1.361 . S
C1130 C1129 1.413 . S
C1131 H1120 0.931 . S
C1131 C1129 1.416 . S
C1131 C1132 1.332 . S
C1132 H1111 0.929 . S
C1132 C1128 1.407 . S
C1132 C1131 1.332 . S
H1133 C1126 0.930 . S
H1134 C1157 0.930 . S
H1135 C1158 0.929 . S
O1136 Tb1092 2.465 . S
O1136 C1156 1.264 . S
O1137 Tb1092 2.387 . S
O1137 C1148 1.264 . S
O1138 Tb1103 2.349 . S
O1138 C1148 1.243 . S
O1139 Tb1092 2.428 . S
O1139 C1156 1.256 . S
O1140 Tb1092 2.308 . S
O1140 C1155 1.266 . S
O1141 Tb1103 2.393 . S
O1141 C1155 1.248 . S
O1142 Tb1103 2.465 . S
O1142 C1167 1.264 . S
O1143 Tb1103 2.387 . S
O1143 C1159 1.264 . S
O1144 Tb1092 2.349 . S
O1144 C1159 1.243 . S
O1145 Tb1103 2.428 . S
O1145 C1167 1.256 . S
O1146 Tb1103 2.308 . S
O1146 C1166 1.266 . S
O1147 Tb1092 2.393 . S
O1147 C1166 1.248 . S
C1148 O1137 1.264 . S
C1148 O1138 1.243 . S
C1149 C1152 1.399 . S
C1149 C1154 1.383 . S
C1149 C1156 1.496 . S
C1150 C1151 1.399 . S
C1150 C1154 1.389 . S
C1151 C1150 1.399 . S
C1151 C1153 1.380 . S
C1151 H1168 0.929 . S
C1152 C1149 1.399 . S
C1152 C1153 1.392 . S
C1152 H1169 0.929 . S
C1153 C1151 1.380 . S
C1153 C1152 1.392 . S
C1153 H1170 0.929 . S
C1154 C1149 1.383 . S
C1154 C1150 1.389 . S
C1154 H1171 0.931 . S
C1155 O1140 1.266 . S
C1155 O1141 1.248 . S
C1156 Tb1092 2.802 . S
C1156 O1136 1.264 . S
C1156 O1139 1.256 . S
C1156 C1149 1.496 . S
C1157 C1124 1.448 . S
C1157 H1134 0.930 . S
C1157 C1158 1.328 . S
C1158 C1129 1.427 . S
C1158 H1135 0.929 . S
C1158 C1157 1.328 . S
C1159 O1143 1.264 . S
C1159 O1144 1.243 . S
C1160 C1163 1.399 . S
C1160 C1164 1.383 . S
C1160 C1167 1.496 . S
C1161 C1162 1.399 . S
C1161 C1164 1.389 . S
C1162 C1161 1.399 . S
C1162 C1165 1.380 . S
C1162 H1172 0.929 . S
C1163 C1160 1.399 . S
C1163 C1165 1.392 . S
C1163 H1173 0.929 . S
C1164 C1160 1.383 . S
C1164 C1161 1.389 . S
C1164 H1174 0.931 . S
C1165 C1162 1.380 . S
C1165 C1163 1.392 . S
C1165 H1175 0.929 . S
C1166 O1146 1.266 . S
C1166 O1147 1.248 . S
C1167 Tb1103 2.802 . S
C1167 O1142 1.264 . S
C1167 O1145 1.256 . S
C1167 C1160 1.496 . S
H1168 C1151 0.929 . S
H1169 C1152 0.929 . S
H1170 C1153 0.929 . S
H1171 C1154 0.931 . S
H1172 C1162 0.929 . S
H1173 C1163 0.929 . S
H1174 C1164 0.931 . S
H1175 C1165 0.929 . S
Tb1176 N1205 2.578 1_455 S
Tb1176 N1211 2.572 1_455 S
Tb1176 O1220 2.465 . S
Tb1176 O1221 2.387 1_455 S
Tb1176 O1223 2.428 . S
Tb1176 O1224 2.308 . S
Tb1176 O1228 2.349 . S
Tb1176 O1231 2.393 . S
Tb1176 C1240 2.802 . S
C1177 N1178 1.379 . S
C1177 C1180 1.416 . S
C1177 C1184 1.424 . S
N1178 C1177 1.379 . S
N1178 C1181 1.334 . S
N1178 Tb1187 2.617 . S
C1179 C1181 1.390 . S
C1179 C1182 1.339 . S
C1179 H1199 0.930 . S
C1180 C1177 1.416 . S
C1180 C1182 1.416 . S
C1180 C1186 1.448 . S
C1181 N1178 1.334 . S
C1181 C1179 1.390 . S
C1181 H1192 0.930 . S
C1182 C1179 1.339 . S
C1182 C1180 1.416 . S
C1182 H1203 0.930 . S
C1183 C1184 1.413 . S
C1183 C1185 1.427 . S
C1183 C1189 1.416 . S
C1184 C1177 1.424 . S
C1184 C1183 1.413 . S
C1184 N1188 1.361 . S
C1185 C1183 1.427 . S
C1185 C1186 1.328 . S
C1185 H1200 0.929 . S
C1186 C1180 1.448 . S
C1186 C1185 1.328 . S
C1186 H1201 0.930 . S
Tb1187 N1178 2.617 . S
Tb1187 N1188 2.572 . S
Tb1187 O1222 2.349 1_455 S
Tb1187 O1225 2.393 . S
Tb1187 O1226 2.465 . S
Tb1187 O1227 2.387 . S
Tb1187 O1229 2.428 . S
Tb1187 O1230 2.308 . S
Tb1187 C1251 2.802 . S
N1188 C1184 1.361 . S
N1188 Tb1187 2.572 . S
N1188 C1190 1.340 . S
C1189 C1183 1.416 . S
C1189 C1191 1.332 . S
C1189 H1197 0.931 . S
C1190 N1188 1.340 . S
C1190 C1191 1.407 . S
C1190 H1196 0.930 . S
C1191 C1189 1.332 . S
C1191 C1190 1.407 . S
C1191 H1193 0.929 . S
H1192 C1181 0.930 . S
H1193 C1191 0.929 . S
H1194 C1209 0.962 . S
H1195 C1216 0.929 . S
H1196 C1190 0.930 . S
H1197 C1189 0.931 . S
H1198 C1212 0.930 1_455 S
H1199 C1179 0.930 . S
H1200 C1185 0.929 . S
H1201 C1186 0.930 . S
H1202 C1207 0.930 . S
H1203 C1182 0.930 . S
H1204 C1215 0.931 . S
N1205 Tb1176 2.578 1_655 S
N1205 C1206 1.414 . S
N1205 C1209 1.356 1_655 S
C1206 N1205 1.414 . S
C1206 C1208 1.416 . S
C1206 C1214 1.424 . S
C1207 H1202 0.930 . S
C1207 C1209 1.352 1_655 S
C1207 C1210 1.339 . S
C1208 C1206 1.416 . S
C1208 C1210 1.416 . S
C1208 C1241 1.448 . S
C1209 H1194 0.962 . S
C1209 N1205 1.356 1_455 S
C1209 C1207 1.352 1_455 S
C1210 C1207 1.339 . S
C1210 C1208 1.416 . S
C1210 H1217 0.930 . S
N1211 Tb1176 2.572 1_655 S
N1211 C1212 1.340 . S
N1211 C1214 1.361 . S
C1212 H1198 0.930 1_655 S
C1212 N1211 1.340 . S
C1212 C1216 1.407 . S
C1213 C1214 1.413 . S
C1213 C1215 1.416 . S
C1213 C1242 1.427 . S
C1214 C1206 1.424 . S
C1214 N1211 1.361 . S
C1214 C1213 1.413 . S
C1215 H1204 0.931 . S
C1215 C1213 1.416 . S
C1215 C1216 1.332 . S
C1216 H1195 0.929 . S
C1216 C1212 1.407 . S
C1216 C1215 1.332 . S
H1217 C1210 0.930 . S
H1218 C1241 0.930 . S
H1219 C1242 0.929 . S
O1220 Tb1176 2.465 . S
O1220 C1240 1.264 . S
O1221 Tb1176 2.387 1_655 S
O1221 C1232 1.264 . S
O1222 Tb1187 2.349 1_655 S
O1222 C1232 1.243 . S
O1223 Tb1176 2.428 . S
O1223 C1240 1.256 . S
O1224 Tb1176 2.308 . S
O1224 C1239 1.266 . S
O1225 Tb1187 2.393 . S
O1225 C1239 1.248 . S
O1226 Tb1187 2.465 . S
O1226 C1251 1.264 . S
O1227 Tb1187 2.387 . S
O1227 C1243 1.264 . S
O1228 Tb1176 2.349 . S
O1228 C1243 1.243 . S
O1229 Tb1187 2.428 . S
O1229 C1251 1.256 . S
O1230 Tb1187 2.308 . S
O1230 C1250 1.266 . S
O1231 Tb1176 2.393 . S
O1231 C1250 1.248 . S
C1232 O1221 1.264 . S
C1232 O1222 1.243 . S
C1233 C1236 1.399 . S
C1233 C1238 1.383 . S
C1233 C1240 1.496 . S
C1234 C1235 1.399 . S
C1234 C1238 1.389 . S
C1235 C1234 1.399 . S
C1235 C1237 1.380 . S
C1235 H1252 0.929 . S
C1236 C1233 1.399 . S
C1236 C1237 1.392 . S
C1236 H1253 0.929 . S
C1237 C1235 1.380 . S
C1237 C1236 1.392 . S
C1237 H1254 0.929 . S
C1238 C1233 1.383 . S
C1238 C1234 1.389 . S
C1238 H1255 0.931 . S
C1239 O1224 1.266 . S
C1239 O1225 1.248 . S
C1240 Tb1176 2.802 . S
C1240 O1220 1.264 . S
C1240 O1223 1.256 . S
C1240 C1233 1.496 . S
C1241 C1208 1.448 . S
C1241 H1218 0.930 . S
C1241 C1242 1.328 . S
C1242 C1213 1.427 . S
C1242 H1219 0.929 . S
C1242 C1241 1.328 . S
C1243 O1227 1.264 . S
C1243 O1228 1.243 . S
C1244 C1247 1.399 . S
C1244 C1248 1.383 . S
C1244 C1251 1.496 1_655 S
C1245 C1246 1.399 . S
C1245 C1248 1.389 . S
C1246 C1245 1.399 . S
C1246 C1249 1.380 . S
C1246 H1256 0.929 . S
C1247 C1244 1.399 . S
C1247 C1249 1.392 . S
C1247 H1257 0.929 . S
C1248 C1244 1.383 . S
C1248 C1245 1.389 . S
C1248 H1258 0.931 . S
C1249 C1246 1.380 . S
C1249 C1247 1.392 . S
C1249 H1259 0.929 . S
C1250 O1230 1.266 . S
C1250 O1231 1.248 . S
C1251 Tb1187 2.802 . S
C1251 O1226 1.264 . S
C1251 O1229 1.256 . S
C1251 C1244 1.496 1_455 S
H1252 C1235 0.929 . S
H1253 C1236 0.929 . S
H1254 C1237 0.929 . S
H1255 C1238 0.931 . S
H1256 C1246 0.929 . S
H1257 C1247 0.929 . S
H1258 C1248 0.931 . S
H1259 C1249 0.929 . S
Tb1260 N1289 2.617 . S
Tb1260 N1295 2.572 . S
Tb1260 O1304 2.465 . S
Tb1260 O1305 2.387 . S
Tb1260 O1307 2.428 . S
Tb1260 O1308 2.308 . S
Tb1260 O1312 2.349 . S
Tb1260 O1315 2.393 . S
Tb1260 C1324 2.802 . S
C1261 N1262 1.379 . S
C1261 C1264 1.416 . S
C1261 C1268 1.424 . S
N1262 C1261 1.379 . S
N1262 C1265 1.334 . S
N1262 Tb1271 2.617 . S
C1263 C1265 1.390 . S
C1263 C1266 1.339 . S
C1263 H1283 0.930 . S
C1264 C1261 1.416 . S
C1264 C1266 1.416 . S
C1264 C1270 1.448 . S
C1265 N1262 1.334 . S
C1265 C1263 1.390 . S
C1265 H1276 0.930 . S
C1266 C1263 1.339 . S
C1266 C1264 1.416 . S
C1266 H1287 0.930 . S
C1267 C1268 1.413 . S
C1267 C1269 1.427 . S
C1267 C1273 1.416 . S
C1268 C1261 1.424 . S
C1268 C1267 1.413 . S
C1268 N1272 1.361 . S
C1269 C1267 1.427 . S
C1269 C1270 1.328 . S
C1269 H1284 0.929 . S
C1270 C1264 1.448 . S
C1270 C1269 1.328 . S
C1270 H1285 0.930 . S
Tb1271 N1262 2.617 . S
Tb1271 N1272 2.572 . S
Tb1271 O1306 2.349 . S
Tb1271 O1309 2.393 . S
Tb1271 O1310 2.465 . S
Tb1271 O1311 2.387 . S
Tb1271 O1313 2.428 . S
Tb1271 O1314 2.308 . S
Tb1271 C1335 2.802 . S
N1272 C1268 1.361 . S
N1272 Tb1271 2.572 . S
N1272 C1274 1.340 . S
C1273 C1267 1.416 . S
C1273 C1275 1.332 . S
C1273 H1281 0.931 . S
C1274 N1272 1.340 . S
C1274 C1275 1.407 . S
C1274 H1280 0.930 . S
C1275 C1273 1.332 . S
C1275 C1274 1.407 . S
C1275 H1277 0.929 . S
H1276 C1265 0.930 . S
H1277 C1275 0.929 . S
H1278 C1293 0.930 . S
H1279 C1300 0.929 . S
H1280 C1274 0.930 . S
H1281 C1273 0.931 . S
H1282 C1296 0.930 . S
H1283 C1263 0.930 . S
H1284 C1269 0.929 . S
H1285 C1270 0.930 . S
H1286 C1291 0.930 . S
H1287 C1266 0.930 . S
H1288 C1299 0.931 . S
N1289 Tb1260 2.617 . S
N1289 C1290 1.379 . S
N1289 C1293 1.334 . S
C1290 N1289 1.379 . S
C1290 C1292 1.416 . S
C1290 C1298 1.424 . S
C1291 H1286 0.930 . S
C1291 C1293 1.390 . S
C1291 C1294 1.339 . S
C1292 C1290 1.416 . S
C1292 C1294 1.416 . S
C1292 C1325 1.448 . S
C1293 H1278 0.930 . S
C1293 N1289 1.334 . S
C1293 C1291 1.390 . S
C1294 C1291 1.339 . S
C1294 C1292 1.416 . S
C1294 H1301 0.930 . S
N1295 Tb1260 2.572 . S
N1295 C1296 1.340 . S
N1295 C1298 1.361 . S
C1296 H1282 0.930 . S
C1296 N1295 1.340 . S
C1296 C1300 1.407 . S
C1297 C1298 1.413 . S
C1297 C1299 1.416 . S
C1297 C1326 1.427 . S
C1298 C1290 1.424 . S
C1298 N1295 1.361 . S
C1298 C1297 1.413 . S
C1299 H1288 0.931 . S
C1299 C1297 1.416 . S
C1299 C1300 1.332 . S
C1300 H1279 0.929 . S
C1300 C1296 1.407 . S
C1300 C1299 1.332 . S
H1301 C1294 0.930 . S
H1302 C1325 0.930 . S
H1303 C1326 0.929 . S
O1304 Tb1260 2.465 . S
O1304 C1324 1.264 . S
O1305 Tb1260 2.387 . S
O1305 C1316 1.264 . S
O1306 Tb1271 2.349 . S
O1306 C1316 1.243 . S
O1307 Tb1260 2.428 . S
O1307 C1324 1.256 . S
O1308 Tb1260 2.308 . S
O1308 C1323 1.266 . S
O1309 Tb1271 2.393 . S
O1309 C1323 1.248 . S
O1310 Tb1271 2.465 . S
O1310 C1335 1.264 . S
O1311 Tb1271 2.387 . S
O1311 C1327 1.264 . S
O1312 Tb1260 2.349 . S
O1312 C1327 1.243 . S
O1313 Tb1271 2.428 . S
O1313 C1335 1.256 . S
O1314 Tb1271 2.308 . S
O1314 C1334 1.266 . S
O1315 Tb1260 2.393 . S
O1315 C1334 1.248 . S
C1316 O1305 1.264 . S
C1316 O1306 1.243 . S
C1317 C1320 1.399 . S
C1317 C1322 1.383 . S
C1317 C1324 1.496 . S
C1318 C1319 1.399 . S
C1318 C1322 1.389 . S
C1319 C1318 1.399 . S
C1319 C1321 1.380 . S
C1319 H1336 0.929 . S
C1320 C1317 1.399 . S
C1320 C1321 1.392 . S
C1320 H1337 0.929 . S
C1321 C1319 1.380 . S
C1321 C1320 1.392 . S
C1321 H1338 0.929 . S
C1322 C1317 1.383 . S
C1322 C1318 1.389 . S
C1322 H1339 0.931 . S
C1323 O1308 1.266 . S
C1323 O1309 1.248 . S
C1324 Tb1260 2.802 . S
C1324 O1304 1.264 . S
C1324 O1307 1.256 . S
C1324 C1317 1.496 . S
C1325 C1292 1.448 . S
C1325 H1302 0.930 . S
C1325 C1326 1.328 . S
C1326 C1297 1.427 . S
C1326 H1303 0.929 . S
C1326 C1325 1.328 . S
C1327 O1311 1.264 . S
C1327 O1312 1.243 . S
C1328 C1331 1.399 . S
C1328 C1332 1.383 . S
C1328 C1335 1.496 . S
C1329 C1330 1.399 . S
C1329 C1332 1.389 . S
C1330 C1329 1.399 . S
C1330 C1333 1.380 . S
C1330 H1340 0.929 . S
C1331 C1328 1.399 . S
C1331 C1333 1.392 . S
C1331 H1341 0.929 . S
C1332 C1328 1.383 . S
C1332 C1329 1.389 . S
C1332 H1342 0.931 . S
C1333 C1330 1.380 . S
C1333 C1331 1.392 . S
C1333 H1343 0.929 . S
C1334 O1314 1.266 . S
C1334 O1315 1.248 . S
C1335 Tb1271 2.802 . S
C1335 O1310 1.264 . S
C1335 O1313 1.256 . S
C1335 C1328 1.496 . S
H1336 C1319 0.929 . S
H1337 C1320 0.929 . S
H1338 C1321 0.929 . S
H1339 C1322 0.931 . S
H1340 C1330 0.929 . S
H1341 C1331 0.929 . S
H1342 C1332 0.931 . S
H1343 C1333 0.929 . S
Tb1344 N1373 2.617 . S
Tb1344 N1379 2.572 . S
Tb1344 O1388 2.465 . S
Tb1344 O1389 2.387 . S
Tb1344 O1391 2.428 . S
Tb1344 O1392 2.308 . S
Tb1344 O1396 2.349 . S
Tb1344 O1399 2.393 . S
Tb1344 C1408 2.802 . S
C1345 N1346 1.379 . S
C1345 C1348 1.416 . S
C1345 C1352 1.424 . S
N1346 C1345 1.379 . S
N1346 C1349 1.334 . S
N1346 Tb1355 2.617 . S
C1347 C1349 1.390 . S
C1347 C1350 1.339 . S
C1347 H1367 0.930 . S
C1348 C1345 1.416 . S
C1348 C1350 1.416 . S
C1348 C1354 1.448 . S
C1349 N1346 1.334 . S
C1349 C1347 1.390 . S
C1349 H1360 0.930 . S
C1350 C1347 1.339 . S
C1350 C1348 1.416 . S
C1350 H1371 0.930 . S
C1351 C1352 1.413 . S
C1351 C1353 1.427 . S
C1351 C1357 1.416 . S
C1352 C1345 1.424 . S
C1352 C1351 1.413 . S
C1352 N1356 1.361 . S
C1353 C1351 1.427 . S
C1353 C1354 1.328 . S
C1353 H1368 0.929 . S
C1354 C1348 1.448 . S
C1354 C1353 1.328 . S
C1354 H1369 0.930 . S
Tb1355 N1346 2.617 . S
Tb1355 N1356 2.572 . S
Tb1355 O1390 2.349 . S
Tb1355 O1393 2.393 . S
Tb1355 O1394 2.465 . S
Tb1355 O1395 2.387 . S
Tb1355 O1397 2.428 . S
Tb1355 O1398 2.308 . S
Tb1355 C1419 2.802 . S
N1356 C1352 1.361 . S
N1356 Tb1355 2.572 . S
N1356 C1358 1.340 . S
C1357 C1351 1.416 . S
C1357 C1359 1.332 . S
C1357 H1365 0.931 . S
C1358 N1356 1.340 . S
C1358 C1359 1.407 . S
C1358 H1364 0.930 . S
C1359 C1357 1.332 . S
C1359 C1358 1.407 . S
C1359 H1361 0.929 . S
H1360 C1349 0.930 . S
H1361 C1359 0.929 . S
H1362 C1377 0.930 . S
H1363 C1384 0.929 . S
H1364 C1358 0.930 . S
H1365 C1357 0.931 . S
H1366 C1380 0.930 . S
H1367 C1347 0.930 . S
H1368 C1353 0.929 . S
H1369 C1354 0.930 . S
H1370 C1375 0.930 . S
H1371 C1350 0.930 . S
H1372 C1383 0.931 . S
N1373 Tb1344 2.617 . S
N1373 C1374 1.379 . S
N1373 C1377 1.334 . S
C1374 N1373 1.379 . S
C1374 C1376 1.416 . S
C1374 C1382 1.424 . S
C1375 H1370 0.930 . S
C1375 C1377 1.390 . S
C1375 C1378 1.339 . S
C1376 C1374 1.416 . S
C1376 C1378 1.416 . S
C1376 C1409 1.448 . S
C1377 H1362 0.930 . S
C1377 N1373 1.334 . S
C1377 C1375 1.390 . S
C1378 C1375 1.339 . S
C1378 C1376 1.416 . S
C1378 H1385 0.930 . S
N1379 Tb1344 2.572 . S
N1379 C1380 1.340 . S
N1379 C1382 1.361 . S
C1380 H1366 0.930 . S
C1380 N1379 1.340 . S
C1380 C1384 1.407 . S
C1381 C1382 1.413 . S
C1381 C1383 1.416 . S
C1381 C1410 1.427 . S
C1382 C1374 1.424 . S
C1382 N1379 1.361 . S
C1382 C1381 1.413 . S
C1383 H1372 0.931 . S
C1383 C1381 1.416 . S
C1383 C1384 1.332 . S
C1384 H1363 0.929 . S
C1384 C1380 1.407 . S
C1384 C1383 1.332 . S
H1385 C1378 0.930 . S
H1386 C1409 0.930 . S
H1387 C1410 0.929 . S
O1388 Tb1344 2.465 . S
O1388 C1408 1.264 . S
O1389 Tb1344 2.387 . S
O1389 C1400 1.264 . S
O1390 Tb1355 2.349 . S
O1390 C1400 1.243 . S
O1391 Tb1344 2.428 . S
O1391 C1408 1.256 . S
O1392 Tb1344 2.308 . S
O1392 C1407 1.266 . S
O1393 Tb1355 2.393 . S
O1393 C1407 1.248 . S
O1394 Tb1355 2.465 . S
O1394 C1419 1.264 . S
O1395 Tb1355 2.387 . S
O1395 C1411 1.264 . S
O1396 Tb1344 2.349 . S
O1396 C1411 1.243 . S
O1397 Tb1355 2.428 . S
O1397 C1419 1.256 . S
O1398 Tb1355 2.308 . S
O1398 C1418 1.266 . S
O1399 Tb1344 2.393 . S
O1399 C1418 1.248 . S
C1400 O1389 1.264 . S
C1400 O1390 1.243 . S
C1401 C1404 1.399 . S
C1401 C1406 1.383 . S
C1401 C1408 1.496 . S
C1402 C1403 1.399 . S
C1402 C1406 1.389 . S
C1403 C1402 1.399 . S
C1403 C1405 1.380 . S
C1403 H1420 0.929 . S
C1404 C1401 1.399 . S
C1404 C1405 1.392 . S
C1404 H1421 0.929 . S
C1405 C1403 1.380 . S
C1405 C1404 1.392 . S
C1405 H1422 0.929 . S
C1406 C1401 1.383 . S
C1406 C1402 1.389 . S
C1406 H1423 0.931 . S
C1407 O1392 1.266 . S
C1407 O1393 1.248 . S
C1408 Tb1344 2.802 . S
C1408 O1388 1.264 . S
C1408 O1391 1.256 . S
C1408 C1401 1.496 . S
C1409 C1376 1.448 . S
C1409 H1386 0.930 . S
C1409 C1410 1.328 . S
C1410 C1381 1.427 . S
C1410 H1387 0.929 . S
C1410 C1409 1.328 . S
C1411 O1395 1.264 . S
C1411 O1396 1.243 . S
C1412 C1415 1.399 . S
C1412 C1416 1.383 . S
C1412 C1419 1.496 . S
C1413 C1414 1.399 . S
C1413 C1416 1.389 . S
C1414 C1413 1.399 . S
C1414 C1417 1.380 . S
C1414 H1424 0.929 . S
C1415 C1412 1.399 . S
C1415 C1417 1.392 . S
C1415 H1425 0.929 . S
C1416 C1412 1.383 . S
C1416 C1413 1.389 . S
C1416 H1426 0.931 . S
C1417 C1414 1.380 . S
C1417 C1415 1.392 . S
C1417 H1427 0.929 . S
C1418 O1398 1.266 . S
C1418 O1399 1.248 . S
C1419 Tb1355 2.802 . S
C1419 O1394 1.264 . S
C1419 O1397 1.256 . S
C1419 C1412 1.496 . S
H1420 C1403 0.929 . S
H1421 C1404 0.929 . S
H1422 C1405 0.929 . S
H1423 C1406 0.931 . S
H1424 C1414 0.929 . S
H1425 C1415 0.929 . S
H1426 C1416 0.931 . S
H1427 C1417 0.929 . S
Tb1428 N1457 2.617 . S
Tb1428 N1463 2.572 . S
Tb1428 O1472 2.465 . S
Tb1428 O1473 2.387 . S
Tb1428 O1475 2.428 . S
Tb1428 O1476 2.308 . S
Tb1428 O1480 2.349 . S
Tb1428 O1483 2.393 . S
Tb1428 C1492 2.802 . S
C1429 N1430 1.379 . S
C1429 C1432 1.416 . S
C1429 C1436 1.424 . S
N1430 C1429 1.379 . S
N1430 C1433 1.334 . S
N1430 Tb1439 2.617 . S
C1431 C1433 1.390 . S
C1431 C1434 1.339 . S
C1431 H1451 0.930 . S
C1432 C1429 1.416 . S
C1432 C1434 1.416 . S
C1432 C1438 1.448 . S
C1433 N1430 1.334 . S
C1433 C1431 1.390 . S
C1433 H1444 0.930 . S
C1434 C1431 1.339 . S
C1434 C1432 1.416 . S
C1434 H1455 0.930 . S
C1435 C1436 1.413 . S
C1435 C1437 1.427 . S
C1435 C1441 1.416 . S
C1436 C1429 1.424 . S
C1436 C1435 1.413 . S
C1436 N1440 1.361 . S
C1437 C1435 1.427 . S
C1437 C1438 1.328 . S
C1437 H1452 0.929 . S
C1438 C1432 1.448 . S
C1438 C1437 1.328 . S
C1438 H1453 0.930 . S
Tb1439 N1430 2.617 . S
Tb1439 N1440 2.572 . S
Tb1439 O1474 2.349 . S
Tb1439 O1477 2.393 . S
Tb1439 O1478 2.465 . S
Tb1439 O1479 2.387 . S
Tb1439 O1481 2.428 . S
Tb1439 O1482 2.308 . S
Tb1439 C1503 2.802 . S
N1440 C1436 1.361 . S
N1440 Tb1439 2.572 . S
N1440 C1442 1.340 . S
C1441 C1435 1.416 . S
C1441 C1443 1.332 . S
C1441 H1449 0.931 . S
C1442 N1440 1.340 . S
C1442 C1443 1.407 . S
C1442 H1448 0.930 . S
C1443 C1441 1.332 . S
C1443 C1442 1.407 . S
C1443 H1445 0.929 . S
H1444 C1433 0.930 . S
H1445 C1443 0.929 . S
H1446 C1461 0.930 . S
H1447 C1468 0.929 . S
H1448 C1442 0.930 . S
H1449 C1441 0.931 . S
H1450 C1464 0.930 . S
H1451 C1431 0.930 . S
H1452 C1437 0.929 . S
H1453 C1438 0.930 . S
H1454 C1459 0.930 . S
H1455 C1434 0.930 . S
H1456 C1467 0.931 . S
N1457 Tb1428 2.617 . S
N1457 C1458 1.379 . S
N1457 C1461 1.334 . S
C1458 N1457 1.379 . S
C1458 C1460 1.416 . S
C1458 C1466 1.424 . S
C1459 H1454 0.930 . S
C1459 C1461 1.390 . S
C1459 C1462 1.339 . S
C1460 C1458 1.416 . S
C1460 C1462 1.416 . S
C1460 C1493 1.448 . S
C1461 H1446 0.930 . S
C1461 N1457 1.334 . S
C1461 C1459 1.390 . S
C1462 C1459 1.339 . S
C1462 C1460 1.416 . S
C1462 H1469 0.930 . S
N1463 Tb1428 2.572 . S
N1463 C1464 1.340 . S
N1463 C1466 1.361 . S
C1464 H1450 0.930 . S
C1464 N1463 1.340 . S
C1464 C1468 1.407 . S
C1465 C1466 1.413 . S
C1465 C1467 1.416 . S
C1465 C1494 1.427 . S
C1466 C1458 1.424 . S
C1466 N1463 1.361 . S
C1466 C1465 1.413 . S
C1467 H1456 0.931 . S
C1467 C1465 1.416 . S
C1467 C1468 1.332 . S
C1468 H1447 0.929 . S
C1468 C1464 1.407 . S
C1468 C1467 1.332 . S
H1469 C1462 0.930 . S
H1470 C1493 0.930 . S
H1471 C1494 0.929 . S
O1472 Tb1428 2.465 . S
O1472 C1492 1.264 . S
O1473 Tb1428 2.387 . S
O1473 C1484 1.264 . S
O1474 Tb1439 2.349 . S
O1474 C1484 1.243 . S
O1475 Tb1428 2.428 . S
O1475 C1492 1.256 . S
O1476 Tb1428 2.308 . S
O1476 C1491 1.266 . S
O1477 Tb1439 2.393 . S
O1477 C1491 1.248 . S
O1478 Tb1439 2.465 . S
O1478 C1503 1.264 . S
O1479 Tb1439 2.387 . S
O1479 C1495 1.264 . S
O1480 Tb1428 2.349 . S
O1480 C1495 1.243 . S
O1481 Tb1439 2.428 . S
O1481 C1503 1.256 . S
O1482 Tb1439 2.308 . S
O1482 C1502 1.266 . S
O1483 Tb1428 2.393 . S
O1483 C1502 1.248 . S
C1484 O1473 1.264 . S
C1484 O1474 1.243 . S
C1485 C1488 1.399 . S
C1485 C1490 1.383 . S
C1485 C1492 1.496 . S
C1486 C1487 1.399 . S
C1486 C1490 1.389 . S
C1487 C1486 1.399 . S
C1487 C1489 1.380 . S
C1487 H1504 0.929 . S
C1488 C1485 1.399 . S
C1488 C1489 1.392 . S
C1488 H1505 0.929 . S
C1489 C1487 1.380 . S
C1489 C1488 1.392 . S
C1489 H1506 0.929 . S
C1490 C1485 1.383 . S
C1490 C1486 1.389 . S
C1490 H1507 0.931 . S
C1491 O1476 1.266 . S
C1491 O1477 1.248 . S
C1492 Tb1428 2.802 . S
C1492 O1472 1.264 . S
C1492 O1475 1.256 . S
C1492 C1485 1.496 . S
C1493 C1460 1.448 . S
C1493 H1470 0.930 . S
C1493 C1494 1.328 . S
C1494 C1465 1.427 . S
C1494 H1471 0.929 . S
C1494 C1493 1.328 . S
C1495 O1479 1.264 . S
C1495 O1480 1.243 . S
C1496 C1499 1.399 . S
C1496 C1500 1.383 . S
C1496 C1503 1.496 . S
C1497 C1498 1.399 . S
C1497 C1500 1.389 . S
C1498 C1497 1.399 . S
C1498 C1501 1.380 . S
C1498 H1508 0.929 . S
C1499 C1496 1.399 . S
C1499 C1501 1.392 . S
C1499 H1509 0.929 . S
C1500 C1496 1.383 . S
C1500 C1497 1.389 . S
C1500 H1510 0.931 . S
C1501 C1498 1.380 . S
C1501 C1499 1.392 . S
C1501 H1511 0.929 . S
C1502 O1482 1.266 . S
C1502 O1483 1.248 . S
C1503 Tb1439 2.802 . S
C1503 O1478 1.264 . S
C1503 O1481 1.256 . S
C1503 C1496 1.496 . S
H1504 C1487 0.929 . S
H1505 C1488 0.929 . S
H1506 C1489 0.929 . S
H1507 C1490 0.931 . S
H1508 C1498 0.929 . S
H1509 C1499 0.929 . S
H1510 C1500 0.931 . S
H1511 C1501 0.929 . S
Tb1512 N1541 2.617 . S
Tb1512 N1547 2.572 . S
Tb1512 O1556 2.465 . S
Tb1512 O1557 2.387 . S
Tb1512 O1559 2.428 . S
Tb1512 O1560 2.308 . S
Tb1512 O1564 2.349 . S
Tb1512 O1567 2.393 . S
Tb1512 C1576 2.802 . S
C1513 N1514 1.379 . S
C1513 C1516 1.416 . S
C1513 C1520 1.424 . S
N1514 C1513 1.379 . S
N1514 C1517 1.334 . S
N1514 Tb1523 2.617 . S
C1515 C1517 1.390 . S
C1515 C1518 1.339 . S
C1515 H1535 0.930 . S
C1516 C1513 1.416 . S
C1516 C1518 1.416 . S
C1516 C1522 1.448 . S
C1517 N1514 1.334 . S
C1517 C1515 1.390 . S
C1517 H1528 0.930 . S
C1518 C1515 1.339 . S
C1518 C1516 1.416 . S
C1518 H1539 0.930 . S
C1519 C1520 1.413 . S
C1519 C1521 1.427 . S
C1519 C1525 1.416 . S
C1520 C1513 1.424 . S
C1520 C1519 1.413 . S
C1520 N1524 1.361 . S
C1521 C1519 1.427 . S
C1521 C1522 1.328 . S
C1521 H1536 0.929 . S
C1522 C1516 1.448 . S
C1522 C1521 1.328 . S
C1522 H1537 0.930 . S
Tb1523 N1514 2.617 . S
Tb1523 N1524 2.572 . S
Tb1523 O1558 2.349 . S
Tb1523 O1561 2.393 . S
Tb1523 O1562 2.465 . S
Tb1523 O1563 2.387 . S
Tb1523 O1565 2.428 . S
Tb1523 O1566 2.308 . S
Tb1523 C1587 2.802 . S
N1524 C1520 1.361 . S
N1524 Tb1523 2.572 . S
N1524 C1526 1.340 . S
C1525 C1519 1.416 . S
C1525 C1527 1.332 . S
C1525 H1533 0.931 . S
C1526 N1524 1.340 . S
C1526 C1527 1.407 . S
C1526 H1532 0.930 . S
C1527 C1525 1.332 . S
C1527 C1526 1.407 . S
C1527 H1529 0.929 . S
H1528 C1517 0.930 . S
H1529 C1527 0.929 . S
H1530 C1545 0.930 . S
H1531 C1552 0.929 . S
H1532 C1526 0.930 . S
H1533 C1525 0.931 . S
H1534 C1548 0.930 . S
H1535 C1515 0.930 . S
H1536 C1521 0.929 . S
H1537 C1522 0.930 . S
H1538 C1543 0.930 . S
H1539 C1518 0.930 . S
H1540 C1551 0.931 . S
N1541 Tb1512 2.617 . S
N1541 C1542 1.379 . S
N1541 C1545 1.334 . S
C1542 N1541 1.379 . S
C1542 C1544 1.416 . S
C1542 C1550 1.424 . S
C1543 H1538 0.930 . S
C1543 C1545 1.390 . S
C1543 C1546 1.339 . S
C1544 C1542 1.416 . S
C1544 C1546 1.416 . S
C1544 C1577 1.448 . S
C1545 H1530 0.930 . S
C1545 N1541 1.334 . S
C1545 C1543 1.390 . S
C1546 C1543 1.339 . S
C1546 C1544 1.416 . S
C1546 H1553 0.930 . S
N1547 Tb1512 2.572 . S
N1547 C1548 1.340 . S
N1547 C1550 1.361 . S
C1548 H1534 0.930 . S
C1548 N1547 1.340 . S
C1548 C1552 1.407 . S
C1549 C1550 1.413 . S
C1549 C1551 1.416 . S
C1549 C1578 1.427 . S
C1550 C1542 1.424 . S
C1550 N1547 1.361 . S
C1550 C1549 1.413 . S
C1551 H1540 0.931 . S
C1551 C1549 1.416 . S
C1551 C1552 1.332 . S
C1552 H1531 0.929 . S
C1552 C1548 1.407 . S
C1552 C1551 1.332 . S
H1553 C1546 0.930 . S
H1554 C1577 0.930 . S
H1555 C1578 0.929 . S
O1556 Tb1512 2.465 . S
O1556 C1576 1.264 . S
O1557 Tb1512 2.387 . S
O1557 C1568 1.264 . S
O1558 Tb1523 2.349 . S
O1558 C1568 1.243 . S
O1559 Tb1512 2.428 . S
O1559 C1576 1.256 . S
O1560 Tb1512 2.308 . S
O1560 C1575 1.266 . S
O1561 Tb1523 2.393 . S
O1561 C1575 1.248 . S
O1562 Tb1523 2.465 . S
O1562 C1587 1.264 . S
O1563 Tb1523 2.387 . S
O1563 C1579 1.264 . S
O1564 Tb1512 2.349 . S
O1564 C1579 1.243 . S
O1565 Tb1523 2.428 . S
O1565 C1587 1.256 . S
O1566 Tb1523 2.308 . S
O1566 C1586 1.266 . S
O1567 Tb1512 2.393 . S
O1567 C1586 1.248 . S
C1568 O1557 1.264 . S
C1568 O1558 1.243 . S
C1569 C1572 1.399 . S
C1569 C1574 1.383 . S
C1569 C1576 1.496 . S
C1570 C1571 1.399 . S
C1570 C1574 1.389 . S
C1571 C1570 1.399 . S
C1571 C1573 1.380 . S
C1571 H1588 0.929 . S
C1572 C1569 1.399 . S
C1572 C1573 1.392 . S
C1572 H1589 0.929 . S
C1573 C1571 1.380 . S
C1573 C1572 1.392 . S
C1573 H1590 0.929 . S
C1574 C1569 1.383 . S
C1574 C1570 1.389 . S
C1574 H1591 0.931 . S
C1575 O1560 1.266 . S
C1575 O1561 1.248 . S
C1576 Tb1512 2.802 . S
C1576 O1556 1.264 . S
C1576 O1559 1.256 . S
C1576 C1569 1.496 . S
C1577 C1544 1.448 . S
C1577 H1554 0.930 . S
C1577 C1578 1.328 . S
C1578 C1549 1.427 . S
C1578 H1555 0.929 . S
C1578 C1577 1.328 . S
C1579 O1563 1.264 . S
C1579 O1564 1.243 . S
C1580 C1583 1.399 . S
C1580 C1584 1.383 . S
C1580 C1587 1.496 . S
C1581 C1582 1.399 . S
C1581 C1584 1.389 . S
C1582 C1581 1.399 . S
C1582 C1585 1.380 . S
C1582 H1592 0.929 . S
C1583 C1580 1.399 . S
C1583 C1585 1.392 . S
C1583 H1593 0.929 . S
C1584 C1580 1.383 . S
C1584 C1581 1.389 . S
C1584 H1594 0.931 . S
C1585 C1582 1.380 . S
C1585 C1583 1.392 . S
C1585 H1595 0.929 . S
C1586 O1566 1.266 . S
C1586 O1567 1.248 . S
C1587 Tb1523 2.802 . S
C1587 O1562 1.264 . S
C1587 O1565 1.256 . S
C1587 C1580 1.496 . S
H1588 C1571 0.929 . S
H1589 C1572 0.929 . S
H1590 C1573 0.929 . S
H1591 C1574 0.931 . S
H1592 C1582 0.929 . S
H1593 C1583 0.929 . S
H1594 C1584 0.931 . S
H1595 C1585 0.929 . S
Tb1596 N1625 2.617 . S
Tb1596 N1631 2.572 . S
Tb1596 O1640 2.465 . S
Tb1596 O1641 2.387 1_655 S
Tb1596 O1643 2.428 . S
Tb1596 O1644 2.276 1_554 S
Tb1596 O1648 2.349 1_655 S
Tb1596 O1651 2.393 1_655 S
Tb1596 C1660 2.802 . S
C1597 N1598 1.379 . S
C1597 C1600 1.416 . S
C1597 C1604 1.424 1_556 S
N1598 C1597 1.379 . S
N1598 C1601 1.334 . S
N1598 Tb1607 2.617 1_556 S
C1599 C1601 1.390 . S
C1599 C1602 1.339 . S
C1599 H1619 0.930 . S
C1600 C1597 1.416 . S
C1600 C1602 1.416 . S
C1600 C1606 1.448 . S
C1601 N1598 1.334 . S
C1601 C1599 1.390 . S
C1601 H1612 0.930 . S
C1602 C1599 1.339 . S
C1602 C1600 1.416 . S
C1602 H1623 0.930 . S
C1603 C1604 1.413 . S
C1603 C1605 1.427 1_554 S
C1603 C1609 1.416 . S
C1604 C1597 1.424 1_554 S
C1604 C1603 1.413 . S
C1604 N1608 1.361 . S
C1605 C1603 1.427 1_556 S
C1605 C1606 1.328 . S
C1605 H1620 0.929 1_556 S
C1606 C1600 1.448 . S
C1606 C1605 1.328 . S
C1606 H1621 0.930 . S
Tb1607 N1598 2.617 1_554 S
Tb1607 N1608 2.572 . S
Tb1607 O1642 2.349 . S
Tb1607 O1645 2.393 1_554 S
Tb1607 O1646 2.465 . S
Tb1607 O1647 2.387 . S
Tb1607 O1649 2.428 1_554 S
Tb1607 O1650 2.308 . S
Tb1607 C1671 2.802 1_554 S
N1608 C1604 1.361 . S
N1608 Tb1607 2.572 . S
N1608 C1610 1.340 . S
C1609 C1603 1.416 . S
C1609 C1611 1.332 . S
C1609 H1617 0.931 . S
C1610 N1608 1.340 . S
C1610 C1611 1.407 . S
C1610 H1616 0.930 . S
C1611 C1609 1.332 . S
C1611 C1610 1.407 . S
C1611 H1613 0.929 . S
H1612 C1601 0.930 . S
H1613 C1611 0.929 . S
H1614 C1629 0.930 1_455 S
H1615 C1636 0.929 . S
H1616 C1610 0.930 . S
H1617 C1609 0.931 . S
H1618 C1632 0.930 1_556 S
H1619 C1599 0.930 . S
H1620 C1605 0.929 1_554 S
H1621 C1606 0.930 . S
H1622 C1627 0.930 . S
H1623 C1602 0.930 . S
H1624 C1635 0.940 . S
N1625 Tb1596 2.617 . S
N1625 C1626 1.379 . S
N1625 C1629 1.334 . S
C1626 N1625 1.379 . S
C1626 C1628 1.416 . S
C1626 C1634 1.424 . S
C1627 H1622 0.930 . S
C1627 C1629 1.390 . S
C1627 C1630 1.339 . S
C1628 C1626 1.416 . S
C1628 C1630 1.416 . S
C1628 C1661 1.448 . S
C1629 H1614 0.930 1_655 S
C1629 N1625 1.334 . S
C1629 C1627 1.390 . S
C1630 C1627 1.339 . S
C1630 C1628 1.416 . S
C1630 H1637 0.930 . S
N1631 Tb1596 2.572 . S
N1631 C1632 1.340 . S
N1631 C1634 1.361 . S
C1632 H1618 0.930 1_554 S
C1632 N1631 1.340 . S
C1632 C1636 1.407 1_554 S
C1633 C1634 1.413 . S
C1633 C1635 1.416 . S
C1633 C1662 1.427 . S
C1634 C1626 1.424 . S
C1634 N1631 1.361 . S
C1634 C1633 1.413 . S
C1635 H1624 0.940 . S
C1635 C1633 1.416 . S
C1635 C1636 1.332 1_554 S
C1636 H1615 0.929 . S
C1636 C1632 1.407 1_556 S
C1636 C1635 1.332 1_556 S
H1637 C1630 0.930 . S
H1638 C1661 0.930 . S
H1639 C1662 0.929 . S
O1640 Tb1596 2.465 . S
O1640 C1660 1.264 . S
O1641 Tb1596 2.387 1_455 S
O1641 C1652 1.264 . S
O1642 Tb1607 2.349 . S
O1642 C1652 1.243 . S
O1643 Tb1596 2.428 . S
O1643 C1660 1.256 . S
O1644 Tb1596 2.276 1_556 S
O1644 C1659 1.292 1_655 S
O1645 Tb1607 2.393 1_556 S
O1645 C1659 1.248 . S
O1646 Tb1607 2.465 . S
O1646 C1671 1.264 1_554 S
O1647 Tb1607 2.387 . S
O1647 C1663 1.264 . S
O1648 Tb1596 2.349 1_455 S
O1648 C1663 1.243 . S
O1649 Tb1607 2.428 1_556 S
O1649 C1671 1.256 . S
O1650 Tb1607 2.308 . S
O1650 C1670 1.266 . S
O1651 Tb1596 2.393 1_455 S
O1651 C1670 1.248 . S
C1652 O1641 1.264 . S
C1652 O1642 1.243 . S
C1653 C1656 1.399 . S
C1653 C1658 1.383 . S
C1653 C1660 1.496 . S
C1654 C1655 1.399 . S
C1654 C1658 1.389 . S
C1655 C1654 1.399 . S
C1655 C1657 1.380 . S
C1655 H1672 0.929 . S
C1656 C1653 1.399 . S
C1656 C1657 1.392 . S
C1656 H1673 0.929 . S
C1657 C1655 1.380 . S
C1657 C1656 1.392 . S
C1657 H1674 0.929 . S
C1658 C1653 1.383 . S
C1658 C1654 1.389 . S
C1658 H1675 0.931 . S
C1659 O1644 1.292 1_455 S
C1659 O1645 1.248 . S
C1660 Tb1596 2.802 . S
C1660 O1640 1.264 . S
C1660 O1643 1.256 . S
C1660 C1653 1.496 . S
C1661 C1628 1.448 . S
C1661 H1638 0.930 . S
C1661 C1662 1.328 . S
C1662 C1633 1.427 . S
C1662 H1639 0.929 . S
C1662 C1661 1.328 . S
C1663 O1647 1.264 . S
C1663 O1648 1.243 . S
C1664 C1667 1.399 . S
C1664 C1668 1.383 1_556 S
C1664 C1671 1.496 . S
C1665 C1666 1.399 1_554 S
C1665 C1668 1.389 . S
C1666 C1665 1.399 1_556 S
C1666 C1669 1.380 . S
C1666 H1676 0.929 . S
C1667 C1664 1.399 . S
C1667 C1669 1.392 . S
C1667 H1677 0.929 . S
C1668 C1664 1.383 1_554 S
C1668 C1665 1.389 . S
C1668 H1678 0.931 . S
C1669 C1666 1.380 . S
C1669 C1667 1.392 . S
C1669 H1679 0.929 . S
C1670 O1650 1.266 . S
C1670 O1651 1.248 . S
C1671 Tb1607 2.802 1_556 S
C1671 O1646 1.264 1_556 S
C1671 O1649 1.256 . S
C1671 C1664 1.496 . S
H1672 C1655 0.929 . S
H1673 C1656 0.929 . S
H1674 C1657 0.929 . S
H1675 C1658 0.931 . S
H1676 C1666 0.929 . S
H1677 C1667 0.929 . S
H1678 C1668 0.931 . S
H1679 C1669 0.929 . S
C1680 C1681 1.391 1_454 S
C1680 C1682 1.394 . S
C1680 H1696 0.931 . S
C1681 C1680 1.391 1_656 S
C1681 C1685 1.376 . S
C1682 C1680 1.394 . S
C1682 C1683 1.369 1_554 S
C1682 C1686 1.531 . S
C1683 C1682 1.369 1_556 S
C1683 C1684 1.410 1_455 S
C1683 C1691 1.497 1_556 S
C1684 C1683 1.410 1_655 S
C1684 C1685 1.392 . S
C1684 C1687 1.511 . S
C1685 C1681 1.376 . S
C1685 C1684 1.392 . S
C1685 H1697 0.929 . S
C1686 C1682 1.531 . S
C1686 H1698 0.960 . S
C1686 H1699 0.962 . S
C1686 H1700 0.960 . S
C1687 C1684 1.511 . S
C1687 H1701 0.961 . S
C1687 H1702 0.961 . S
C1687 H1703 0.961 . S
C1688 C1689 1.370 1_556 S
C1688 C1690 1.363 . S
C1688 H1704 0.931 . S
C1689 C1688 1.370 1_554 S
C1689 C1693 1.408 1_455 S
C1690 C1688 1.363 . S
C1690 C1691 1.363 1_556 S
C1690 C1694 1.524 . S
C1691 C1683 1.497 1_554 S
C1691 C1690 1.363 1_554 S
C1691 C1692 1.417 1_455 S
C1692 C1691 1.417 1_655 S
C1692 C1693 1.404 . S
C1692 C1695 1.539 . S
C1693 C1689 1.408 1_655 S
C1693 C1692 1.404 . S
C1693 H1705 0.930 . S
C1694 C1690 1.524 . S
C1694 H1706 0.956 . S
C1694 H1707 0.961 . S
C1694 H1708 0.961 . S
C1695 C1692 1.539 . S
C1695 H1709 0.958 . S
C1695 H1710 0.961 . S
C1695 H1711 0.960 . S
H1696 C1680 0.931 . S
H1697 C1685 0.929 . S
H1698 C1686 0.960 . S
H1699 C1686 0.962 . S
H1700 C1686 0.960 . S
H1701 C1687 0.961 . S
H1702 C1687 0.961 . S
H1703 C1687 0.961 . S
H1704 C1688 0.931 . S
H1705 C1693 0.930 . S
H1706 C1694 0.956 . S
H1707 C1694 0.961 . S
H1708 C1694 0.961 . S
H1709 C1695 0.958 . S
H1710 C1695 0.961 . S
H1711 C1695 0.960 . S
C1712 C1713 1.391 . S
C1712 C1714 1.394 . S
C1712 H1728 0.931 . S
C1713 C1712 1.391 . S
C1713 C1717 1.376 . S
C1714 C1712 1.394 . S
C1714 C1715 1.369 . S
C1714 C1718 1.531 . S
C1715 C1714 1.369 . S
C1715 C1716 1.410 . S
C1715 C1723 1.503 . S
C1716 C1715 1.410 . S
C1716 C1717 1.392 . S
C1716 C1719 1.511 . S
C1717 C1713 1.376 . S
C1717 C1716 1.392 . S
C1717 H1729 0.929 . S
C1718 C1714 1.531 . S
C1718 H1730 0.960 . S
C1718 H1731 0.962 . S
C1718 H1732 0.960 . S
C1719 C1716 1.511 . S
C1719 H1733 0.961 . S
C1719 H1734 0.961 . S
C1719 H1735 0.961 . S
C1720 C1721 1.370 . S
C1720 C1722 1.363 . S
C1720 H1736 0.931 . S
C1721 C1720 1.370 . S
C1721 C1725 1.408 . S
C1722 C1720 1.363 . S
C1722 C1723 1.370 . S
C1722 C1726 1.524 . S
C1723 C1715 1.503 . S
C1723 C1722 1.370 . S
C1723 C1724 1.403 . S
C1724 C1723 1.403 . S
C1724 C1725 1.404 . S
C1724 C1727 1.539 . S
C1725 C1721 1.408 . S
C1725 C1724 1.404 . S
C1725 H1737 0.930 . S
C1726 C1722 1.524 . S
C1726 H1738 0.956 . S
C1726 H1739 0.961 . S
C1726 H1740 0.961 . S
C1727 C1724 1.539 . S
C1727 H1741 0.958 . S
C1727 H1742 0.961 . S
C1727 H1743 0.960 . S
H1728 C1712 0.931 . S
H1729 C1717 0.929 . S
H1730 C1718 0.960 . S
H1731 C1718 0.962 . S
H1732 C1718 0.960 . S
H1733 C1719 0.961 . S
H1734 C1719 0.961 . S
H1735 C1719 0.961 . S
H1736 C1720 0.931 . S
H1737 C1725 0.930 . S
H1738 C1726 0.956 . S
H1739 C1726 0.961 . S
H1740 C1726 0.961 . S
H1741 C1727 0.958 . S
H1742 C1727 0.961 . S
H1743 C1727 0.960 . S
C1744 C1745 1.391 . S
C1744 C1746 1.394 . S
C1744 H1760 0.931 . S
C1745 C1744 1.391 . S
C1745 C1749 1.376 . S
C1746 C1744 1.394 . S
C1746 C1747 1.369 . S
C1746 C1750 1.531 . S
C1747 C1746 1.369 . S
C1747 C1748 1.410 . S
C1747 C1755 1.503 . S
C1748 C1747 1.410 . S
C1748 C1749 1.392 . S
C1748 C1751 1.511 . S
C1749 C1745 1.376 . S
C1749 C1748 1.392 . S
C1749 H1761 0.929 . S
C1750 C1746 1.531 . S
C1750 H1762 0.960 . S
C1750 H1763 0.962 . S
C1750 H1764 0.960 . S
C1751 C1748 1.511 . S
C1751 H1765 0.961 . S
C1751 H1766 0.961 . S
C1751 H1767 0.961 . S
C1752 C1753 1.370 . S
C1752 C1754 1.363 . S
C1752 H1768 0.931 . S
C1753 C1752 1.370 . S
C1753 C1757 1.408 . S
C1754 C1752 1.363 . S
C1754 C1755 1.370 . S
C1754 C1758 1.524 . S
C1755 C1747 1.503 . S
C1755 C1754 1.370 . S
C1755 C1756 1.403 . S
C1756 C1755 1.403 . S
C1756 C1757 1.404 . S
C1756 C1759 1.539 . S
C1757 C1753 1.408 . S
C1757 C1756 1.404 . S
C1757 H1769 0.930 . S
C1758 C1754 1.524 . S
C1758 H1770 0.956 . S
C1758 H1771 0.961 . S
C1758 H1772 0.961 . S
C1759 C1756 1.539 . S
C1759 H1773 0.958 . S
C1759 H1774 0.961 . S
C1759 H1775 0.960 . S
H1760 C1744 0.931 . S
H1761 C1749 0.929 . S
H1762 C1750 0.960 . S
H1763 C1750 0.962 . S
H1764 C1750 0.960 . S
H1765 C1751 0.961 . S
H1766 C1751 0.961 . S
H1767 C1751 0.961 . S
H1768 C1752 0.931 . S
H1769 C1757 0.930 . S
H1770 C1758 0.956 . S
H1771 C1758 0.961 . S
H1772 C1758 0.961 . S
H1773 C1759 0.958 . S
H1774 C1759 0.961 . S
H1775 C1759 0.960 . S
C1776 C1777 1.391 . S
C1776 C1778 1.394 . S
C1776 H1792 0.931 . S
C1777 C1776 1.391 . S
C1777 C1781 1.376 . S
C1778 C1776 1.394 . S
C1778 C1779 1.369 . S
C1778 C1782 1.531 . S
C1779 C1778 1.369 . S
C1779 C1780 1.410 . S
C1779 C1787 1.503 . S
C1780 C1779 1.410 . S
C1780 C1781 1.392 . S
C1780 C1783 1.511 . S
C1781 C1777 1.376 . S
C1781 C1780 1.392 . S
C1781 H1793 0.929 . S
C1782 C1778 1.531 . S
C1782 H1794 0.960 . S
C1782 H1795 0.962 . S
C1782 H1796 0.960 . S
C1783 C1780 1.511 . S
C1783 H1797 0.961 . S
C1783 H1798 0.961 . S
C1783 H1799 0.961 . S
C1784 C1785 1.370 . S
C1784 C1786 1.363 . S
C1784 H1800 0.931 . S
C1785 C1784 1.370 . S
C1785 C1789 1.408 . S
C1786 C1784 1.363 . S
C1786 C1787 1.370 . S
C1786 C1790 1.524 . S
C1787 C1779 1.503 . S
C1787 C1786 1.370 . S
C1787 C1788 1.403 . S
C1788 C1787 1.403 . S
C1788 C1789 1.404 . S
C1788 C1791 1.539 . S
C1789 C1785 1.408 . S
C1789 C1788 1.404 . S
C1789 H1801 0.930 . S
C1790 C1786 1.524 . S
C1790 H1802 0.956 . S
C1790 H1803 0.961 . S
C1790 H1804 0.961 . S
C1791 C1788 1.539 . S
C1791 H1805 0.958 . S
C1791 H1806 0.961 . S
C1791 H1807 0.960 . S
H1792 C1776 0.931 . S
H1793 C1781 0.929 . S
H1794 C1782 0.960 . S
H1795 C1782 0.962 . S
H1796 C1782 0.960 . S
H1797 C1783 0.961 . S
H1798 C1783 0.961 . S
H1799 C1783 0.961 . S
H1800 C1784 0.931 . S
H1801 C1789 0.930 . S
H1802 C1790 0.956 . S
H1803 C1790 0.961 . S
H1804 C1790 0.961 . S
H1805 C1791 0.958 . S
H1806 C1791 0.961 . S
H1807 C1791 0.960 . S
C1808 C1809 1.391 . S
C1808 C1810 1.394 . S
C1808 H1824 0.931 1_455 S
C1809 C1808 1.391 . S
C1809 C1813 1.376 . S
C1810 C1808 1.394 . S
C1810 C1811 1.369 . S
C1810 C1814 1.531 1_455 S
C1811 C1810 1.369 . S
C1811 C1812 1.410 . S
C1811 C1819 1.503 . S
C1812 C1811 1.410 . S
C1812 C1813 1.392 . S
C1812 C1815 1.511 . S
C1813 C1809 1.376 . S
C1813 C1812 1.392 . S
C1813 H1825 0.929 . S
C1814 C1810 1.531 1_655 S
C1814 H1826 0.960 . S
C1814 H1827 0.962 . S
C1814 H1828 0.960 . S
C1815 C1812 1.511 . S
C1815 H1829 0.961 . S
C1815 H1830 0.961 . S
C1815 H1831 0.961 . S
C1816 C1817 1.370 . S
C1816 C1818 1.363 . S
C1816 H1832 0.931 . S
C1817 C1816 1.370 . S
C1817 C1821 1.408 . S
C1818 C1816 1.363 . S
C1818 C1819 1.370 . S
C1818 C1822 1.524 . S
C1819 C1811 1.503 . S
C1819 C1818 1.370 . S
C1819 C1820 1.403 . S
C1820 C1819 1.403 . S
C1820 C1821 1.404 . S
C1820 C1823 1.539 1_455 S
C1821 C1817 1.408 . S
C1821 C1820 1.404 . S
C1821 H1833 0.930 1_455 S
C1822 C1818 1.524 . S
C1822 H1834 0.956 . S
C1822 H1835 0.961 . S
C1822 H1836 0.961 . S
C1823 C1820 1.539 1_655 S
C1823 H1837 0.958 . S
C1823 H1838 0.961 . S
C1823 H1839 0.960 . S
H1824 C1808 0.931 1_655 S
H1825 C1813 0.929 . S
H1826 C1814 0.960 . S
H1827 C1814 0.962 . S
H1828 C1814 0.960 . S
H1829 C1815 0.961 . S
H1830 C1815 0.961 . S
H1831 C1815 0.961 . S
H1832 C1816 0.931 . S
H1833 C1821 0.930 1_655 S
H1834 C1822 0.956 . S
H1835 C1822 0.961 . S
H1836 C1822 0.961 . S
H1837 C1823 0.958 . S
H1838 C1823 0.961 . S
H1839 C1823 0.960 . S
C1840 C1841 1.391 . S
C1840 C1842 1.394 . S
C1840 H1856 0.931 . S
C1841 C1840 1.391 . S
C1841 C1845 1.376 . S
C1842 C1840 1.394 . S
C1842 C1843 1.369 . S
C1842 C1846 1.531 . S
C1843 C1842 1.369 . S
C1843 C1844 1.410 . S
C1843 C1851 1.503 . S
C1844 C1843 1.410 . S
C1844 C1845 1.392 . S
C1844 C1847 1.511 . S
C1845 C1841 1.376 . S
C1845 C1844 1.392 . S
C1845 H1857 0.929 . S
C1846 C1842 1.531 . S
C1846 H1858 0.960 . S
C1846 H1859 0.962 . S
C1846 H1860 0.960 . S
C1847 C1844 1.511 . S
C1847 H1861 0.961 . S
C1847 H1862 0.961 . S
C1847 H1863 0.961 . S
C1848 C1849 1.370 . S
C1848 C1850 1.363 . S
C1848 H1864 0.931 . S
C1849 C1848 1.370 . S
C1849 C1853 1.408 . S
C1850 C1848 1.363 . S
C1850 C1851 1.370 . S
C1850 C1854 1.524 . S
C1851 C1843 1.503 . S
C1851 C1850 1.370 . S
C1851 C1852 1.403 . S
C1852 C1851 1.403 . S
C1852 C1853 1.404 . S
C1852 C1855 1.539 . S
C1853 C1849 1.408 . S
C1853 C1852 1.404 . S
C1853 H1865 0.930 . S
C1854 C1850 1.524 . S
C1854 H1866 0.956 . S
C1854 H1867 0.961 . S
C1854 H1868 0.961 . S
C1855 C1852 1.539 . S
C1855 H1869 0.958 . S
C1855 H1870 0.961 . S
C1855 H1871 0.960 . S
H1856 C1840 0.931 . S
H1857 C1845 0.929 . S
H1858 C1846 0.960 . S
H1859 C1846 0.962 . S
H1860 C1846 0.960 . S
H1861 C1847 0.961 . S
H1862 C1847 0.961 . S
H1863 C1847 0.961 . S
H1864 C1848 0.931 . S
H1865 C1853 0.930 . S
H1866 C1854 0.956 . S
H1867 C1854 0.961 . S
H1868 C1854 0.961 . S
H1869 C1855 0.958 . S
H1870 C1855 0.961 . S
H1871 C1855 0.960 . S
C1872 C1873 1.391 . S
C1872 C1874 1.394 . S
C1872 H1888 0.931 . S
C1873 C1872 1.391 . S
C1873 C1877 1.376 . S
C1874 C1872 1.394 . S
C1874 C1875 1.369 . S
C1874 C1878 1.531 . S
C1875 C1874 1.369 . S
C1875 C1876 1.410 . S
C1875 C1883 1.503 . S
C1876 C1875 1.410 . S
C1876 C1877 1.392 . S
C1876 C1879 1.511 . S
C1877 C1873 1.376 . S
C1877 C1876 1.392 . S
C1877 H1889 0.929 . S
C1878 C1874 1.531 . S
C1878 H1890 0.960 . S
C1878 H1891 0.962 . S
C1878 H1892 0.960 . S
C1879 C1876 1.511 . S
C1879 H1893 0.961 . S
C1879 H1894 0.961 . S
C1879 H1895 0.961 . S
C1880 C1881 1.370 . S
C1880 C1882 1.363 . S
C1880 H1896 0.931 . S
C1881 C1880 1.370 . S
C1881 C1885 1.408 . S
C1882 C1880 1.363 . S
C1882 C1883 1.370 . S
C1882 C1886 1.524 . S
C1883 C1875 1.503 . S
C1883 C1882 1.370 . S
C1883 C1884 1.403 . S
C1884 C1883 1.403 . S
C1884 C1885 1.404 . S
C1884 C1887 1.539 . S
C1885 C1881 1.408 . S
C1885 C1884 1.404 . S
C1885 H1897 0.930 . S
C1886 C1882 1.524 . S
C1886 H1898 0.956 . S
C1886 H1899 0.961 . S
C1886 H1900 0.961 . S
C1887 C1884 1.539 . S
C1887 H1901 0.958 . S
C1887 H1902 0.961 . S
C1887 H1903 0.960 . S
H1888 C1872 0.931 . S
H1889 C1877 0.929 . S
H1890 C1878 0.960 . S
H1891 C1878 0.962 . S
H1892 C1878 0.960 . S
H1893 C1879 0.961 . S
H1894 C1879 0.961 . S
H1895 C1879 0.961 . S
H1896 C1880 0.931 . S
H1897 C1885 0.930 . S
H1898 C1886 0.956 . S
H1899 C1886 0.961 . S
H1900 C1886 0.961 . S
H1901 C1887 0.958 . S
H1902 C1887 0.961 . S
H1903 C1887 0.960 . S
C1904 C1905 1.391 . S
C1904 C1906 1.394 . S
C1904 H1920 0.931 . S
C1905 C1904 1.391 . S
C1905 C1909 1.376 . S
C1906 C1904 1.394 . S
C1906 C1907 1.369 . S
C1906 C1910 1.531 . S
C1907 C1906 1.369 . S
C1907 C1908 1.410 . S
C1907 C1915 1.503 . S
C1908 C1907 1.410 . S
C1908 C1909 1.392 . S
C1908 C1911 1.511 . S
C1909 C1905 1.376 . S
C1909 C1908 1.392 . S
C1909 H1921 0.929 . S
C1910 C1906 1.531 . S
C1910 H1922 0.960 . S
C1910 H1923 0.962 . S
C1910 H1924 0.960 . S
C1911 C1908 1.511 . S
C1911 H1925 0.961 . S
C1911 H1926 0.961 . S
C1911 H1927 0.961 . S
C1912 C1913 1.370 . S
C1912 C1914 1.363 . S
C1912 H1928 0.931 . S
C1913 C1912 1.370 . S
C1913 C1917 1.408 . S
C1914 C1912 1.363 . S
C1914 C1915 1.370 . S
C1914 C1918 1.524 . S
C1915 C1907 1.503 . S
C1915 C1914 1.370 . S
C1915 C1916 1.403 . S
C1916 C1915 1.403 . S
C1916 C1917 1.404 . S
C1916 C1919 1.539 . S
C1917 C1913 1.408 . S
C1917 C1916 1.404 . S
C1917 H1929 0.930 . S
C1918 C1914 1.524 . S
C1918 H1930 0.956 . S
C1918 H1931 0.961 . S
C1918 H1932 0.961 . S
C1919 C1916 1.539 . S
C1919 H1933 0.958 . S
C1919 H1934 0.961 . S
C1919 H1935 0.960 . S
H1920 C1904 0.931 . S
H1921 C1909 0.929 . S
H1922 C1910 0.960 . S
H1923 C1910 0.962 . S
H1924 C1910 0.960 . S
H1925 C1911 0.961 . S
H1926 C1911 0.961 . S
H1927 C1911 0.961 . S
H1928 C1912 0.931 . S
H1929 C1917 0.930 . S
H1930 C1918 0.956 . S
H1931 C1918 0.961 . S
H1932 C1918 0.961 . S
H1933 C1919 0.958 . S
H1934 C1919 0.961 . S
H1935 C1919 0.960 . S
C1936 C1937 1.391 . S
C1936 C1938 1.394 . S
C1936 H1952 0.931 . S
C1937 C1936 1.391 . S
C1937 C1941 1.376 1_545 S
C1938 C1936 1.394 . S
C1938 C1939 1.369 . S
C1938 C1942 1.531 1_655 S
C1939 C1938 1.369 . S
C1939 C1940 1.410 1_545 S
C1939 C1947 1.503 . S
C1940 C1939 1.410 1_565 S
C1940 C1941 1.392 . S
C1940 C1943 1.511 . S
C1941 C1937 1.376 1_565 S
C1941 C1940 1.392 . S
C1941 H1953 0.929 . S
C1942 C1938 1.531 1_455 S
C1942 H1954 0.960 . S
C1942 H1955 0.962 . S
C1942 H1956 0.960 . S
C1943 C1940 1.511 . S
C1943 H1957 0.961 . S
C1943 H1958 0.961 . S
C1943 H1959 0.961 . S
C1944 C1945 1.370 1_655 S
C1944 C1946 1.363 . S
C1944 H1960 0.931 . S
C1945 C1944 1.370 1_455 S
C1945 C1949 1.408 . S
C1946 C1944 1.363 . S
C1946 C1947 1.370 . S
C1946 C1950 1.524 . S
C1947 C1939 1.503 . S
C1947 C1946 1.370 . S
C1947 C1948 1.403 1_655 S
C1948 C1947 1.403 1_455 S
C1948 C1949 1.404 . S
C1948 C1951 1.539 1_545 S
C1949 C1945 1.408 . S
C1949 C1948 1.404 . S
C1949 H1961 0.930 . S
C1950 C1946 1.524 . S
C1950 H1962 0.956 . S
C1950 H1963 0.961 . S
C1950 H1964 0.961 . S
C1951 C1948 1.539 1_565 S
C1951 H1965 0.958 1_565 S
C1951 H1966 0.961 . S
C1951 H1967 0.960 . S
H1952 C1936 0.931 . S
H1953 C1941 0.929 . S
H1954 C1942 0.960 . S
H1955 C1942 0.962 . S
H1956 C1942 0.960 . S
H1957 C1943 0.961 . S
H1958 C1943 0.961 . S
H1959 C1943 0.961 . S
H1960 C1944 0.931 . S
H1961 C1949 0.930 . S
H1962 C1950 0.956 . S
H1963 C1950 0.961 . S
H1964 C1950 0.961 . S
H1965 C1951 0.958 1_545 S
H1966 C1951 0.961 . S
H1967 C1951 0.960 . S
C1968 C1969 1.391 . S
C1968 C1970 1.394 . S
C1968 H1984 0.931 . S
C1969 C1968 1.391 . S
C1969 C1973 1.376 . S
C1970 C1968 1.394 . S
C1970 C1971 1.369 . S
C1970 C1974 1.531 . S
C1971 C1970 1.369 . S
C1971 C1972 1.410 . S
C1971 C1979 1.503 . S
C1972 C1971 1.410 . S
C1972 C1973 1.392 . S
C1972 C1975 1.511 . S
C1973 C1969 1.376 . S
C1973 C1972 1.392 . S
C1973 H1985 0.929 . S
C1974 C1970 1.531 . S
C1974 H1986 0.960 . S
C1974 H1987 0.962 . S
C1974 H1988 0.960 . S
C1975 C1972 1.511 . S
C1975 H1989 0.961 . S
C1975 H1990 0.961 . S
C1975 H1991 0.961 . S
C1976 C1977 1.370 . S
C1976 C1978 1.363 . S
C1976 H1992 0.931 . S
C1977 C1976 1.370 . S
C1977 C1981 1.408 . S
C1978 C1976 1.363 . S
C1978 C1979 1.370 . S
C1978 C1982 1.524 . S
C1979 C1971 1.503 . S
C1979 C1978 1.370 . S
C1979 C1980 1.403 . S
C1980 C1979 1.403 . S
C1980 C1981 1.404 . S
C1980 C1983 1.539 . S
C1981 C1977 1.408 . S
C1981 C1980 1.404 . S
C1981 H1993 0.930 . S
C1982 C1978 1.524 . S
C1982 H1994 0.956 . S
C1982 H1995 0.961 . S
C1982 H1996 0.961 . S
C1983 C1980 1.539 . S
C1983 H1997 0.958 . S
C1983 H1998 0.961 . S
C1983 H1999 0.960 . S
H1984 C1968 0.931 . S
H1985 C1973 0.929 . S
H1986 C1974 0.960 . S
H1987 C1974 0.962 . S
H1988 C1974 0.960 . S
H1989 C1975 0.961 . S
H1990 C1975 0.961 . S
H1991 C1975 0.961 . S
H1992 C1976 0.931 . S
H1993 C1981 0.930 . S
H1994 C1982 0.956 . S
H1995 C1982 0.961 . S
H1996 C1982 0.961 . S
H1997 C1983 0.958 . S
H1998 C1983 0.961 . S
H1999 C1983 0.960 . S
C2000 C2001 1.391 . S
C2000 C2002 1.394 . S
C2000 H2016 0.931 . S
C2001 C2000 1.391 . S
C2001 C2005 1.376 . S
C2002 C2000 1.394 . S
C2002 C2003 1.369 . S
C2002 C2006 1.531 . S
C2003 C2002 1.369 . S
C2003 C2004 1.410 . S
C2003 C2011 1.503 . S
C2004 C2003 1.410 . S
C2004 C2005 1.392 . S
C2004 C2007 1.511 . S
C2005 C2001 1.376 . S
C2005 C2004 1.392 . S
C2005 H2017 0.929 . S
C2006 C2002 1.531 . S
C2006 H2018 0.960 . S
C2006 H2019 0.962 . S
C2006 H2020 0.932 1_545 S
C2007 C2004 1.511 . S
C2007 H2021 0.961 . S
C2007 H2022 0.961 . S
C2007 H2023 0.961 . S
C2008 C2009 1.370 . S
C2008 C2010 1.363 . S
C2008 H2024 0.931 . S
C2009 C2008 1.370 . S
C2009 C2013 1.408 . S
C2010 C2008 1.363 . S
C2010 C2011 1.370 . S
C2010 C2014 1.524 . S
C2011 C2003 1.503 . S
C2011 C2010 1.370 . S
C2011 C2012 1.403 . S
C2012 C2011 1.403 . S
C2012 C2013 1.404 . S
C2012 C2015 1.527 1_545 S
C2013 C2009 1.408 . S
C2013 C2012 1.404 . S
C2013 H2025 0.930 . S
C2014 C2010 1.524 . S
C2014 H2026 0.956 . S
C2014 H2027 0.961 . S
C2014 H2028 0.961 . S
C2015 C2012 1.527 1_565 S
C2015 H2029 0.974 . S
C2015 H2030 0.962 . S
C2015 H2031 0.956 1_565 S
H2016 C2000 0.931 . S
H2017 C2005 0.929 . S
H2018 C2006 0.960 . S
H2019 C2006 0.962 . S
H2020 C2006 0.932 1_565 S
H2021 C2007 0.961 . S
H2022 C2007 0.961 . S
H2023 C2007 0.961 . S
H2024 C2008 0.931 . S
H2025 C2013 0.930 . S
H2026 C2014 0.956 . S
H2027 C2014 0.961 . S
H2028 C2014 0.961 . S
H2029 C2015 0.974 . S
H2030 C2015 0.962 . S
H2031 C2015 0.956 1_545 S
C2032 C2033 1.391 . S
C2032 C2034 1.394 . S
C2032 H2048 0.931 . S
C2033 C2032 1.391 . S
C2033 C2037 1.376 . S
C2034 C2032 1.394 . S
C2034 C2035 1.369 . S
C2034 C2038 1.531 . S
C2035 C2034 1.369 . S
C2035 C2036 1.410 . S
C2035 C2043 1.503 . S
C2036 C2035 1.410 . S
C2036 C2037 1.392 . S
C2036 C2039 1.511 . S
C2037 C2033 1.376 . S
C2037 C2036 1.392 . S
C2037 H2049 0.929 . S
C2038 C2034 1.531 . S
C2038 H2050 0.960 . S
C2038 H2051 0.962 . S
C2038 H2052 0.960 . S
C2039 C2036 1.511 . S
C2039 H2053 0.961 . S
C2039 H2054 0.961 . S
C2039 H2055 0.961 . S
C2040 C2041 1.370 . S
C2040 C2042 1.363 . S
C2040 H2056 0.931 . S
C2041 C2040 1.370 . S
C2041 C2045 1.408 . S
C2042 C2040 1.363 . S
C2042 C2043 1.370 . S
C2042 C2046 1.524 . S
C2043 C2035 1.503 . S
C2043 C2042 1.370 . S
C2043 C2044 1.403 . S
C2044 C2043 1.403 . S
C2044 C2045 1.404 . S
C2044 C2047 1.539 . S
C2045 C2041 1.408 . S
C2045 C2044 1.404 . S
C2045 H2057 0.930 . S
C2046 C2042 1.524 . S
C2046 H2058 0.956 . S
C2046 H2059 0.961 . S
C2046 H2060 0.961 . S
C2047 C2044 1.539 . S
C2047 H2061 0.958 . S
C2047 H2062 0.961 . S
C2047 H2063 0.960 . S
H2048 C2032 0.931 . S
H2049 C2037 0.929 . S
H2050 C2038 0.960 . S
H2051 C2038 0.962 . S
H2052 C2038 0.960 . S
H2053 C2039 0.961 . S
H2054 C2039 0.961 . S
H2055 C2039 0.961 . S
H2056 C2040 0.931 . S
H2057 C2045 0.930 . S
H2058 C2046 0.956 . S
H2059 C2046 0.961 . S
H2060 C2046 0.961 . S
H2061 C2047 0.958 . S
H2062 C2047 0.961 . S
H2063 C2047 0.960 . S
C2064 C2065 1.391 . S
C2064 C2066 1.394 . S
C2064 H2080 0.931 . S
C2065 C2064 1.391 . S
C2065 C2069 1.382 . S
C2066 C2064 1.394 . S
C2066 C2067 1.369 . S
C2066 C2070 1.531 . S
C2067 C2066 1.369 . S
C2067 C2068 1.410 . S
C2067 C2075 1.503 . S
C2068 C2067 1.410 . S
C2068 C2069 1.391 . S
C2068 C2071 1.511 1_545 S
C2069 C2065 1.382 . S
C2069 C2068 1.391 . S
C2069 H2081 0.924 1_545 S
C2070 C2066 1.531 . S
C2070 H2082 0.960 . S
C2070 H2083 0.962 1_655 S
C2070 H2084 0.960 . S
C2071 C2068 1.511 1_565 S
C2071 H2085 0.961 . S
C2071 H2086 0.961 . S
C2071 H2087 0.961 . S
C2072 C2073 1.373 . S
C2072 C2074 1.363 . S
C2072 H2088 0.931 . S
C2073 C2072 1.373 . S
C2073 C2077 1.405 1_455 S
C2074 C2072 1.363 . S
C2074 C2075 1.370 1_455 S
C2074 C2078 1.524 . S
C2075 C2067 1.503 . S
C2075 C2074 1.370 1_655 S
C2075 C2076 1.403 . S
C2076 C2075 1.403 . S
C2076 C2077 1.404 . S
C2076 C2079 1.539 . S
C2077 C2073 1.405 1_655 S
C2077 C2076 1.404 . S
C2077 H2089 0.930 . S
C2078 C2074 1.524 . S
C2078 H2090 0.956 . S
C2078 H2091 0.961 1_545 S
C2078 H2092 0.961 . S
C2079 C2076 1.539 . S
C2079 H2093 0.958 . S
C2079 H2094 0.961 . S
C2079 H2095 0.960 . S
H2080 C2064 0.931 . S
H2081 C2069 0.924 1_565 S
H2082 C2070 0.960 . S
H2083 C2070 0.962 1_455 S
H2084 C2070 0.960 . S
H2085 C2071 0.961 . S
H2086 C2071 0.961 . S
H2087 C2071 0.961 . S
H2088 C2072 0.931 . S
H2089 C2077 0.930 . S
H2090 C2078 0.956 . S
H2091 C2078 0.961 1_565 S
H2092 C2078 0.961 . S
H2093 C2079 0.958 . S
H2094 C2079 0.961 . S
H2095 C2079 0.960 . S
C2096 C2097 1.391 . S
C2096 C2098 1.394 . S
C2096 H2112 0.931 . S
C2097 C2096 1.391 . S
C2097 C2101 1.376 . S
C2098 C2096 1.394 . S
C2098 C2099 1.369 . S
C2098 C2102 1.531 . S
C2099 C2098 1.369 . S
C2099 C2100 1.410 . S
C2099 C2107 1.503 . S
C2100 C2099 1.410 . S
C2100 C2101 1.392 . S
C2100 C2103 1.511 . S
C2101 C2097 1.376 . S
C2101 C2100 1.392 . S
C2101 H2113 0.929 . S
C2102 C2098 1.531 . S
C2102 H2114 0.960 . S
C2102 H2115 0.962 . S
C2102 H2116 0.960 . S
C2103 C2100 1.511 . S
C2103 H2117 0.961 . S
C2103 H2118 0.961 . S
C2103 H2119 0.961 . S
C2104 C2105 1.370 . S
C2104 C2106 1.363 . S
C2104 H2120 0.931 . S
C2105 C2104 1.370 . S
C2105 C2109 1.408 . S
C2106 C2104 1.363 . S
C2106 C2107 1.370 . S
C2106 C2110 1.524 . S
C2107 C2099 1.503 . S
C2107 C2106 1.370 . S
C2107 C2108 1.403 . S
C2108 C2107 1.403 . S
C2108 C2109 1.404 . S
C2108 C2111 1.539 . S
C2109 C2105 1.408 . S
C2109 C2108 1.404 . S
C2109 H2121 0.930 . S
C2110 C2106 1.524 . S
C2110 H2122 0.956 . S
C2110 H2123 0.961 . S
C2110 H2124 0.961 . S
C2111 C2108 1.539 . S
C2111 H2125 0.958 . S
C2111 H2126 0.961 . S
C2111 H2127 0.960 . S
H2112 C2096 0.931 . S
H2113 C2101 0.929 . S
H2114 C2102 0.960 . S
H2115 C2102 0.962 . S
H2116 C2102 0.960 . S
H2117 C2103 0.961 . S
H2118 C2103 0.961 . S
H2119 C2103 0.961 . S
H2120 C2104 0.931 . S
H2121 C2109 0.930 . S
H2122 C2110 0.956 . S
H2123 C2110 0.961 . S
H2124 C2110 0.961 . S
H2125 C2111 0.958 . S
H2126 C2111 0.961 . S
H2127 C2111 0.960 . S
C2128 C2129 1.391 . S
C2128 C2130 1.394 . S
C2128 H2144 0.931 . S
C2129 C2128 1.391 . S
C2129 C2133 1.376 . S
C2130 C2128 1.394 . S
C2130 C2131 1.369 . S
C2130 C2134 1.531 . S
C2131 C2130 1.369 . S
C2131 C2132 1.410 . S
C2131 C2139 1.503 . S
C2132 C2131 1.410 . S
C2132 C2133 1.392 . S
C2132 C2135 1.511 . S
C2133 C2129 1.376 . S
C2133 C2132 1.392 . S
C2133 H2145 0.929 . S
C2134 C2130 1.531 . S
C2134 H2146 0.960 . S
C2134 H2147 0.962 . S
C2134 H2148 0.960 . S
C2135 C2132 1.511 . S
C2135 H2149 0.961 . S
C2135 H2150 0.961 . S
C2135 H2151 0.961 . S
C2136 C2137 1.370 . S
C2136 C2138 1.363 . S
C2136 H2152 0.931 . S
C2137 C2136 1.370 . S
C2137 C2141 1.408 . S
C2138 C2136 1.363 . S
C2138 C2139 1.370 . S
C2138 C2142 1.524 . S
C2139 C2131 1.503 . S
C2139 C2138 1.370 . S
C2139 C2140 1.403 . S
C2140 C2139 1.403 . S
C2140 C2141 1.404 . S
C2140 C2143 1.539 . S
C2141 C2137 1.408 . S
C2141 C2140 1.404 . S
C2141 H2153 0.930 . S
C2142 C2138 1.524 . S
C2142 H2154 0.956 . S
C2142 H2155 0.961 . S
C2142 H2156 0.961 . S
C2143 C2140 1.539 . S
C2143 H2157 0.958 . S
C2143 H2158 0.961 . S
C2143 H2159 0.960 . S
H2144 C2128 0.931 . S
H2145 C2133 0.929 . S
H2146 C2134 0.960 . S
H2147 C2134 0.962 . S
H2148 C2134 0.960 . S
H2149 C2135 0.961 . S
H2150 C2135 0.961 . S
H2151 C2135 0.961 . S
H2152 C2136 0.931 . S
H2153 C2141 0.930 . S
H2154 C2142 0.956 . S
H2155 C2142 0.961 . S
H2156 C2142 0.961 . S
H2157 C2143 0.958 . S
H2158 C2143 0.961 . S
H2159 C2143 0.960 . S
C2160 C2161 1.391 . S
C2160 C2162 1.394 . S
C2160 H2176 0.931 . S
C2161 C2160 1.391 . S
C2161 C2165 1.376 . S
C2162 C2160 1.394 . S
C2162 C2163 1.369 . S
C2162 C2166 1.531 . S
C2163 C2162 1.369 . S
C2163 C2164 1.410 . S
C2163 C2171 1.503 . S
C2164 C2163 1.410 . S
C2164 C2165 1.392 . S
C2164 C2167 1.511 . S
C2165 C2161 1.376 . S
C2165 C2164 1.392 . S
C2165 H2177 0.929 . S
C2166 C2162 1.531 . S
C2166 H2178 0.960 . S
C2166 H2179 0.962 . S
C2166 H2180 0.960 . S
C2167 C2164 1.511 . S
C2167 H2181 0.961 . S
C2167 H2182 0.961 . S
C2167 H2183 0.961 . S
C2168 C2169 1.370 . S
C2168 C2170 1.363 . S
C2168 H2184 0.931 . S
C2169 C2168 1.370 . S
C2169 C2173 1.408 . S
C2170 C2168 1.363 . S
C2170 C2171 1.370 . S
C2170 C2174 1.524 . S
C2171 C2163 1.503 . S
C2171 C2170 1.370 . S
C2171 C2172 1.403 . S
C2172 C2171 1.403 . S
C2172 C2173 1.404 . S
C2172 C2175 1.539 . S
C2173 C2169 1.408 . S
C2173 C2172 1.404 . S
C2173 H2185 0.930 . S
C2174 C2170 1.524 . S
C2174 H2186 0.956 . S
C2174 H2187 0.961 . S
C2174 H2188 0.961 . S
C2175 C2172 1.539 . S
C2175 H2189 0.958 . S
C2175 H2190 0.961 . S
C2175 H2191 0.960 . S
H2176 C2160 0.931 . S
H2177 C2165 0.929 . S
H2178 C2166 0.960 . S
H2179 C2166 0.962 . S
H2180 C2166 0.960 . S
H2181 C2167 0.961 . S
H2182 C2167 0.961 . S
H2183 C2167 0.961 . S
H2184 C2168 0.931 . S
H2185 C2173 0.930 . S
H2186 C2174 0.956 . S
H2187 C2174 0.961 . S
H2188 C2174 0.961 . S
H2189 C2175 0.958 . S
H2190 C2175 0.961 . S
H2191 C2175 0.960 . S
C2192 C2193 1.391 . S
C2192 C2194 1.394 1_556 S
C2192 H2208 0.931 . S
C2193 C2192 1.391 . S
C2193 C2197 1.376 1_556 S
C2194 C2192 1.394 1_554 S
C2194 C2195 1.369 . S
C2194 C2198 1.531 1_554 S
C2195 C2194 1.369 . S
C2195 C2196 1.410 . S
C2195 C2203 1.503 . S
C2196 C2195 1.410 . S
C2196 C2197 1.392 . S
C2196 C2199 1.511 1_565 S
C2197 C2193 1.376 1_554 S
C2197 C2196 1.392 . S
C2197 H2209 0.929 . S
C2198 C2194 1.531 1_556 S
C2198 H2210 0.960 1_556 S
C2198 H2211 0.962 . S
C2198 H2212 0.960 . S
C2199 C2196 1.511 1_545 S
C2199 H2213 0.961 . S
C2199 H2214 0.961 . S
C2199 H2215 0.961 . S
C2200 C2201 1.371 1_545 S
C2200 C2202 1.366 1_544 S
C2200 H2216 0.929 1_554 S
C2201 C2200 1.371 1_565 S
C2201 C2205 1.406 . S
C2202 C2200 1.366 1_566 S
C2202 C2203 1.373 1_556 S
C2202 C2206 1.520 . S
C2203 C2195 1.503 . S
C2203 C2202 1.373 1_554 S
C2203 C2204 1.403 . S
C2204 C2203 1.403 . S
C2204 C2205 1.404 . S
C2204 C2207 1.539 . S
C2205 C2201 1.406 . S
C2205 C2204 1.404 . S
C2205 H2217 0.930 . S
C2206 C2202 1.520 . S
C2206 H2218 0.956 . S
C2206 H2219 0.961 1_565 S
C2206 H2220 0.961 1_565 S
C2207 C2204 1.539 . S
C2207 H2221 0.958 . S
C2207 H2222 0.961 . S
C2207 H2223 0.960 . S
H2208 C2192 0.931 . S
H2209 C2197 0.929 . S
H2210 C2198 0.960 1_554 S
H2211 C2198 0.962 . S
H2212 C2198 0.960 . S
H2213 C2199 0.961 . S
H2214 C2199 0.961 . S
H2215 C2199 0.961 . S
H2216 C2200 0.929 1_556 S
H2217 C2205 0.930 . S
H2218 C2206 0.956 . S
H2219 C2206 0.961 1_545 S
H2220 C2206 0.961 1_545 S
H2221 C2207 0.958 . S
H2222 C2207 0.961 . S
H2223 C2207 0.960 . S
C2224 C2225 1.391 . S
C2224 C2226 1.394 . S
C2224 H2240 0.931 . S
C2225 C2224 1.391 . S
C2225 C2229 1.376 . S
C2226 C2224 1.394 . S
C2226 C2227 1.369 . S
C2226 C2230 1.531 . S
C2227 C2226 1.369 . S
C2227 C2228 1.410 . S
C2227 C2235 1.503 . S
C2228 C2227 1.410 . S
C2228 C2229 1.392 . S
C2228 C2231 1.517 . S
C2229 C2225 1.376 . S
C2229 C2228 1.392 . S
C2229 H2241 0.929 1_554 S
C2230 C2226 1.531 . S
C2230 H2242 0.960 . S
C2230 H2243 0.962 . S
C2230 H2244 0.960 . S
C2231 C2228 1.517 . S
C2231 H2245 0.941 1_554 S
C2231 H2246 0.958 1_554 S
C2231 H2247 0.978 . S
C2232 C2233 1.370 1_556 S
C2232 C2234 1.363 . S
C2232 H2248 0.931 . S
C2233 C2232 1.370 1_554 S
C2233 C2237 1.408 . S
C2234 C2232 1.363 . S
C2234 C2235 1.370 1_556 S
C2234 C2238 1.524 . S
C2235 C2227 1.503 . S
C2235 C2234 1.370 1_554 S
C2235 C2236 1.403 . S
C2236 C2235 1.403 . S
C2236 C2237 1.404 . S
C2236 C2239 1.539 . S
C2237 C2233 1.408 . S
C2237 C2236 1.404 . S
C2237 H2249 0.930 . S
C2238 C2234 1.524 . S
C2238 H2250 0.956 . S
C2238 H2251 0.961 . S
C2238 H2252 0.961 . S
C2239 C2236 1.539 . S
C2239 H2253 0.958 . S
C2239 H2254 0.961 . S
C2239 H2255 0.960 . S
H2240 C2224 0.931 . S
H2241 C2229 0.929 1_556 S
H2242 C2230 0.960 . S
H2243 C2230 0.962 . S
H2244 C2230 0.960 . S
H2245 C2231 0.941 1_556 S
H2246 C2231 0.958 1_556 S
H2247 C2231 0.978 . S
H2248 C2232 0.931 . S
H2249 C2237 0.930 . S
H2250 C2238 0.956 . S
H2251 C2238 0.961 . S
H2252 C2238 0.961 . S
H2253 C2239 0.958 . S
H2254 C2239 0.961 . S
H2255 C2239 0.960 . S
C2256 C2257 1.391 . S
C2256 C2258 1.394 . S
C2256 H2272 0.931 . S
C2257 C2256 1.391 . S
C2257 C2261 1.376 . S
C2258 C2256 1.394 . S
C2258 C2259 1.369 . S
C2258 C2262 1.531 . S
C2259 C2258 1.369 . S
C2259 C2260 1.410 . S
C2259 C2267 1.503 . S
C2260 C2259 1.410 . S
C2260 C2261 1.392 . S
C2260 C2263 1.511 . S
C2261 C2257 1.376 . S
C2261 C2260 1.392 . S
C2261 H2273 0.929 . S
C2262 C2258 1.531 . S
C2262 H2274 0.960 . S
C2262 H2275 0.962 . S
C2262 H2276 0.960 . S
C2263 C2260 1.511 . S
C2263 H2277 0.961 . S
C2263 H2278 0.961 . S
C2263 H2279 0.961 . S
C2264 C2265 1.370 . S
C2264 C2266 1.363 . S
C2264 H2280 0.931 . S
C2265 C2264 1.370 . S
C2265 C2269 1.408 . S
C2266 C2264 1.363 . S
C2266 C2267 1.370 . S
C2266 C2270 1.524 . S
C2267 C2259 1.503 . S
C2267 C2266 1.370 . S
C2267 C2268 1.403 . S
C2268 C2267 1.403 . S
C2268 C2269 1.404 . S
C2268 C2271 1.539 . S
C2269 C2265 1.408 . S
C2269 C2268 1.404 . S
C2269 H2281 0.930 . S
C2270 C2266 1.524 . S
C2270 H2282 0.956 . S
C2270 H2283 0.961 . S
C2270 H2284 0.961 . S
C2271 C2268 1.539 . S
C2271 H2285 0.958 . S
C2271 H2286 0.961 . S
C2271 H2287 0.960 . S
H2272 C2256 0.931 . S
H2273 C2261 0.929 . S
H2274 C2262 0.960 . S
H2275 C2262 0.962 . S
H2276 C2262 0.960 . S
H2277 C2263 0.961 . S
H2278 C2263 0.961 . S
H2279 C2263 0.961 . S
H2280 C2264 0.931 . S
H2281 C2269 0.930 . S
H2282 C2270 0.956 . S
H2283 C2270 0.961 . S
H2284 C2270 0.961 . S
H2285 C2271 0.958 . S
H2286 C2271 0.961 . S
H2287 C2271 0.960 . S
C2288 C2289 1.391 . S
C2288 C2290 1.394 . S
C2288 H2304 0.931 . S
C2289 C2288 1.391 . S
C2289 C2293 1.376 . S
C2290 C2288 1.394 . S
C2290 C2291 1.369 . S
C2290 C2294 1.531 . S
C2291 C2290 1.369 . S
C2291 C2292 1.410 . S
C2291 C2299 1.503 . S
C2292 C2291 1.410 . S
C2292 C2293 1.392 . S
C2292 C2295 1.511 . S
C2293 C2289 1.376 . S
C2293 C2292 1.392 . S
C2293 H2305 0.929 . S
C2294 C2290 1.531 . S
C2294 H2306 0.960 . S
C2294 H2307 0.962 . S
C2294 H2308 0.960 . S
C2295 C2292 1.511 . S
C2295 H2309 0.961 . S
C2295 H2310 0.961 . S
C2295 H2311 0.961 . S
C2296 C2297 1.370 . S
C2296 C2298 1.363 . S
C2296 H2312 0.931 . S
C2297 C2296 1.370 . S
C2297 C2301 1.408 . S
C2298 C2296 1.363 . S
C2298 C2299 1.370 . S
C2298 C2302 1.524 . S
C2299 C2291 1.503 . S
C2299 C2298 1.370 . S
C2299 C2300 1.403 . S
C2300 C2299 1.403 . S
C2300 C2301 1.404 . S
C2300 C2303 1.539 . S
C2301 C2297 1.408 . S
C2301 C2300 1.404 . S
C2301 H2313 0.930 . S
C2302 C2298 1.524 . S
C2302 H2314 0.956 . S
C2302 H2315 0.961 . S
C2302 H2316 0.961 . S
C2303 C2300 1.539 . S
C2303 H2317 0.958 . S
C2303 H2318 0.961 . S
C2303 H2319 0.960 . S
H2304 C2288 0.931 . S
H2305 C2293 0.929 . S
H2306 C2294 0.960 . S
H2307 C2294 0.962 . S
H2308 C2294 0.960 . S
H2309 C2295 0.961 . S
H2310 C2295 0.961 . S
H2311 C2295 0.961 . S
H2312 C2296 0.931 . S
H2313 C2301 0.930 . S
H2314 C2302 0.956 . S
H2315 C2302 0.961 . S
H2316 C2302 0.961 . S
H2317 C2303 0.958 . S
H2318 C2303 0.961 . S
H2319 C2303 0.960 . S
C2320 C2321 1.391 . S
C2320 C2322 1.394 . S
C2320 H2336 0.931 . S
C2321 C2320 1.391 . S
C2321 C2325 1.376 . S
C2322 C2320 1.394 . S
C2322 C2323 1.369 . S
C2322 C2326 1.531 . S
C2323 C2322 1.369 . S
C2323 C2324 1.410 . S
C2323 C2331 1.503 . S
C2324 C2323 1.410 . S
C2324 C2325 1.392 . S
C2324 C2327 1.511 . S
C2325 C2321 1.376 . S
C2325 C2324 1.392 . S
C2325 H2337 0.929 . S
C2326 C2322 1.531 . S
C2326 H2338 0.960 . S
C2326 H2339 0.962 . S
C2326 H2340 0.960 . S
C2327 C2324 1.511 . S
C2327 H2341 0.961 . S
C2327 H2342 0.961 . S
C2327 H2343 0.961 . S
C2328 C2329 1.370 . S
C2328 C2330 1.363 . S
C2328 H2344 0.931 . S
C2329 C2328 1.370 . S
C2329 C2333 1.408 . S
C2330 C2328 1.363 . S
C2330 C2331 1.370 . S
C2330 C2334 1.524 . S
C2331 C2323 1.503 . S
C2331 C2330 1.370 . S
C2331 C2332 1.403 . S
C2332 C2331 1.403 . S
C2332 C2333 1.404 . S
C2332 C2335 1.539 . S
C2333 C2329 1.408 . S
C2333 C2332 1.404 . S
C2333 H2345 0.930 . S
C2334 C2330 1.524 . S
C2334 H2346 0.956 . S
C2334 H2347 0.961 . S
C2334 H2348 0.961 . S
C2335 C2332 1.539 . S
C2335 H2349 0.958 . S
C2335 H2350 0.961 . S
C2335 H2351 0.960 . S
H2336 C2320 0.931 . S
H2337 C2325 0.929 . S
H2338 C2326 0.960 . S
H2339 C2326 0.962 . S
H2340 C2326 0.960 . S
H2341 C2327 0.961 . S
H2342 C2327 0.961 . S
H2343 C2327 0.961 . S
H2344 C2328 0.931 . S
H2345 C2333 0.930 . S
H2346 C2334 0.956 . S
H2347 C2334 0.961 . S
H2348 C2334 0.961 . S
H2349 C2335 0.958 . S
H2350 C2335 0.961 . S
H2351 C2335 0.960 . S
C2352 C2353 1.391 . S
C2352 C2354 1.394 . S
C2352 H2368 0.931 . S
C2353 C2352 1.391 . S
C2353 C2357 1.376 . S
C2354 C2352 1.394 . S
C2354 C2355 1.369 . S
C2354 C2358 1.531 . S
C2355 C2354 1.369 . S
C2355 C2356 1.410 . S
C2355 C2363 1.503 . S
C2356 C2355 1.410 . S
C2356 C2357 1.392 . S
C2356 C2359 1.511 . S
C2357 C2353 1.376 . S
C2357 C2356 1.392 . S
C2357 H2369 0.929 . S
C2358 C2354 1.531 . S
C2358 H2370 0.960 . S
C2358 H2371 0.962 . S
C2358 H2372 0.960 . S
C2359 C2356 1.511 . S
C2359 H2373 0.961 . S
C2359 H2374 0.961 . S
C2359 H2375 0.961 . S
C2360 C2361 1.370 . S
C2360 C2362 1.363 . S
C2360 H2376 0.931 . S
C2361 C2360 1.370 . S
C2361 C2365 1.408 . S
C2362 C2360 1.363 . S
C2362 C2363 1.370 . S
C2362 C2366 1.524 . S
C2363 C2355 1.503 . S
C2363 C2362 1.370 . S
C2363 C2364 1.403 . S
C2364 C2363 1.403 . S
C2364 C2365 1.404 . S
C2364 C2367 1.539 . S
C2365 C2361 1.408 . S
C2365 C2364 1.404 . S
C2365 H2377 0.930 . S
C2366 C2362 1.524 . S
C2366 H2378 0.956 . S
C2366 H2379 0.961 . S
C2366 H2380 0.961 . S
C2367 C2364 1.539 . S
C2367 H2381 0.958 . S
C2367 H2382 0.961 . S
C2367 H2383 0.960 . S
H2368 C2352 0.931 . S
H2369 C2357 0.929 . S
H2370 C2358 0.960 . S
H2371 C2358 0.962 . S
H2372 C2358 0.960 . S
H2373 C2359 0.961 . S
H2374 C2359 0.961 . S
H2375 C2359 0.961 . S
H2376 C2360 0.931 . S
H2377 C2365 0.930 . S
H2378 C2366 0.956 . S
H2379 C2366 0.961 . S
H2380 C2366 0.961 . S
H2381 C2367 0.958 . S
H2382 C2367 0.961 . S
H2383 C2367 0.960 . S
C2384 C2385 1.391 . S
C2384 C2386 1.394 . S
C2384 H2400 0.931 . S
C2385 C2384 1.391 . S
C2385 C2389 1.376 . S
C2386 C2384 1.394 . S
C2386 C2387 1.369 . S
C2386 C2390 1.531 . S
C2387 C2386 1.369 . S
C2387 C2388 1.410 . S
C2387 C2395 1.503 . S
C2388 C2387 1.410 . S
C2388 C2389 1.392 . S
C2388 C2391 1.511 . S
C2389 C2385 1.376 . S
C2389 C2388 1.392 . S
C2389 H2401 0.929 . S
C2390 C2386 1.531 . S
C2390 H2402 0.960 . S
C2390 H2403 0.962 . S
C2390 H2404 0.960 . S
C2391 C2388 1.511 . S
C2391 H2405 0.961 . S
C2391 H2406 0.961 . S
C2391 H2407 0.961 . S
C2392 C2393 1.370 . S
C2392 C2394 1.363 . S
C2392 H2408 0.931 . S
C2393 C2392 1.370 . S
C2393 C2397 1.408 . S
C2394 C2392 1.363 . S
C2394 C2395 1.370 . S
C2394 C2398 1.524 . S
C2395 C2387 1.503 . S
C2395 C2394 1.370 . S
C2395 C2396 1.403 . S
C2396 C2395 1.403 . S
C2396 C2397 1.404 . S
C2396 C2399 1.539 . S
C2397 C2393 1.408 . S
C2397 C2396 1.404 . S
C2397 H2409 0.930 . S
C2398 C2394 1.524 . S
C2398 H2410 0.956 . S
C2398 H2411 0.961 . S
C2398 H2412 0.961 . S
C2399 C2396 1.539 . S
C2399 H2413 0.958 . S
C2399 H2414 0.961 . S
C2399 H2415 0.960 . S
H2400 C2384 0.931 . S
H2401 C2389 0.929 . S
H2402 C2390 0.960 . S
H2403 C2390 0.962 . S
H2404 C2390 0.960 . S
H2405 C2391 0.961 . S
H2406 C2391 0.961 . S
H2407 C2391 0.961 . S
H2408 C2392 0.931 . S
H2409 C2397 0.930 . S
H2410 C2398 0.956 . S
H2411 C2398 0.961 . S
H2412 C2398 0.961 . S
H2413 C2399 0.958 . S
H2414 C2399 0.961 . S
H2415 C2399 0.960 . S
C2416 C2417 1.391 . S
C2416 C2418 1.394 . S
C2416 H2432 0.931 . S
C2417 C2416 1.391 . S
C2417 C2421 1.376 . S
C2418 C2416 1.394 . S
C2418 C2419 1.369 . S
C2418 C2422 1.531 . S
C2419 C2418 1.369 . S
C2419 C2420 1.410 . S
C2419 C2427 1.503 . S
C2420 C2419 1.410 . S
C2420 C2421 1.392 . S
C2420 C2423 1.511 . S
C2421 C2417 1.376 . S
C2421 C2420 1.392 . S
C2421 H2433 0.929 . S
C2422 C2418 1.531 . S
C2422 H2434 0.960 . S
C2422 H2435 0.962 . S
C2422 H2436 0.960 . S
C2423 C2420 1.511 . S
C2423 H2437 0.961 . S
C2423 H2438 0.961 . S
C2423 H2439 0.961 . S
C2424 C2425 1.370 . S
C2424 C2426 1.363 . S
C2424 H2440 0.931 . S
C2425 C2424 1.370 . S
C2425 C2429 1.408 . S
C2426 C2424 1.363 . S
C2426 C2427 1.370 . S
C2426 C2430 1.524 . S
C2427 C2419 1.503 . S
C2427 C2426 1.370 . S
C2427 C2428 1.403 . S
C2428 C2427 1.403 . S
C2428 C2429 1.404 . S
C2428 C2431 1.539 . S
C2429 C2425 1.408 . S
C2429 C2428 1.404 . S
C2429 H2441 0.930 . S
C2430 C2426 1.524 . S
C2430 H2442 0.956 . S
C2430 H2443 0.961 . S
C2430 H2444 0.961 . S
C2431 C2428 1.539 . S
C2431 H2445 0.958 . S
C2431 H2446 0.961 . S
C2431 H2447 0.960 . S
H2432 C2416 0.931 . S
H2433 C2421 0.929 . S
H2434 C2422 0.960 . S
H2435 C2422 0.962 . S
H2436 C2422 0.960 . S
H2437 C2423 0.961 . S
H2438 C2423 0.961 . S
H2439 C2423 0.961 . S
H2440 C2424 0.931 . S
H2441 C2429 0.930 . S
H2442 C2430 0.956 . S
H2443 C2430 0.961 . S
H2444 C2430 0.961 . S
H2445 C2431 0.958 . S
H2446 C2431 0.961 . S
H2447 C2431 0.960 . S
C2448 C2449 1.391 . S
C2448 C2450 1.394 . S
C2448 H2464 0.931 . S
C2449 C2448 1.391 . S
C2449 C2453 1.376 . S
C2450 C2448 1.394 . S
C2450 C2451 1.369 . S
C2450 C2454 1.531 . S
C2451 C2450 1.369 . S
C2451 C2452 1.410 . S
C2451 C2459 1.503 . S
C2452 C2451 1.410 . S
C2452 C2453 1.392 . S
C2452 C2455 1.511 . S
C2453 C2449 1.376 . S
C2453 C2452 1.392 . S
C2453 H2465 0.929 . S
C2454 C2450 1.531 . S
C2454 H2466 0.960 . S
C2454 H2467 0.962 . S
C2454 H2468 0.960 . S
C2455 C2452 1.511 . S
C2455 H2469 0.961 . S
C2455 H2470 0.961 . S
C2455 H2471 0.961 . S
C2456 C2457 1.370 . S
C2456 C2458 1.363 . S
C2456 H2472 0.931 . S
C2457 C2456 1.370 . S
C2457 C2461 1.408 . S
C2458 C2456 1.363 . S
C2458 C2459 1.370 . S
C2458 C2462 1.524 . S
C2459 C2451 1.503 . S
C2459 C2458 1.370 . S
C2459 C2460 1.403 . S
C2460 C2459 1.403 . S
C2460 C2461 1.404 . S
C2460 C2463 1.539 . S
C2461 C2457 1.408 . S
C2461 C2460 1.404 . S
C2461 H2473 0.930 . S
C2462 C2458 1.524 . S
C2462 H2474 0.956 . S
C2462 H2475 0.961 . S
C2462 H2476 1.000 . S
C2463 C2460 1.539 . S
C2463 H2477 0.958 . S
C2463 H2478 0.961 . S
C2463 H2479 0.960 . S
H2464 C2448 0.931 . S
H2465 C2453 0.929 . S
H2466 C2454 0.960 . S
H2467 C2454 0.962 . S
H2468 C2454 0.960 . S
H2469 C2455 0.961 . S
H2470 C2455 0.961 . S
H2471 C2455 0.961 . S
H2472 C2456 0.931 . S
H2473 C2461 0.930 . S
H2474 C2462 0.956 . S
H2475 C2462 0.961 . S
H2476 C2462 1.000 . S
H2477 C2463 0.958 . S
H2478 C2463 0.961 . S
H2479 C2463 0.960 . S
C2480 C2481 1.391 . S
C2480 C2482 1.394 . S
C2480 H2496 0.931 . S
C2481 C2480 1.391 . S
C2481 C2485 1.376 . S
C2482 C2480 1.394 . S
C2482 C2483 1.369 . S
C2482 C2486 1.531 . S
C2483 C2482 1.369 . S
C2483 C2484 1.410 . S
C2483 C2491 1.503 . S
C2484 C2483 1.410 . S
C2484 C2485 1.392 . S
C2484 C2487 1.511 . S
C2485 C2481 1.376 . S
C2485 C2484 1.392 . S
C2485 H2497 0.929 . S
C2486 C2482 1.531 . S
C2486 H2498 0.960 . S
C2486 H2499 0.962 . S
C2486 H2500 0.960 . S
C2487 C2484 1.511 . S
C2487 H2501 0.961 . S
C2487 H2502 0.961 . S
C2487 H2503 0.961 . S
C2488 C2489 1.370 . S
C2488 C2490 1.363 . S
C2488 H2504 0.931 . S
C2489 C2488 1.370 . S
C2489 C2493 1.408 . S
C2490 C2488 1.363 . S
C2490 C2491 1.370 . S
C2490 C2494 1.524 . S
C2491 C2483 1.503 . S
C2491 C2490 1.370 . S
C2491 C2492 1.403 . S
C2492 C2491 1.403 . S
C2492 C2493 1.404 . S
C2492 C2495 1.539 . S
C2493 C2489 1.408 . S
C2493 C2492 1.404 . S
C2493 H2505 0.930 . S
C2494 C2490 1.524 . S
C2494 H2506 0.956 . S
C2494 H2507 0.961 . S
C2494 H2508 0.961 . S
C2495 C2492 1.539 . S
C2495 H2509 0.958 . S
C2495 H2510 0.961 . S
C2495 H2511 0.960 . S
H2496 C2480 0.931 . S
H2497 C2485 0.929 . S
H2498 C2486 0.960 . S
H2499 C2486 0.962 . S
H2500 C2486 0.960 . S
H2501 C2487 0.961 . S
H2502 C2487 0.961 . S
H2503 C2487 0.961 . S
H2504 C2488 0.931 . S
H2505 C2493 0.930 . S
H2506 C2494 0.956 . S
H2507 C2494 0.961 . S
H2508 C2494 0.961 . S
H2509 C2495 0.958 . S
H2510 C2495 0.961 . S
H2511 C2495 0.960 . S
C2512 C2513 1.391 . S
C2512 C2514 1.394 . S
C2512 H2528 0.931 . S
C2513 C2512 1.391 . S
C2513 C2517 1.376 . S
C2514 C2512 1.394 . S
C2514 C2515 1.369 . S
C2514 C2518 1.531 . S
C2515 C2514 1.369 . S
C2515 C2516 1.410 . S
C2515 C2523 1.503 . S
C2516 C2515 1.410 . S
C2516 C2517 1.392 . S
C2516 C2519 1.511 . S
C2517 C2513 1.376 . S
C2517 C2516 1.392 . S
C2517 H2529 0.929 . S
C2518 C2514 1.531 . S
C2518 H2530 0.960 . S
C2518 H2531 0.962 . S
C2518 H2532 0.960 . S
C2519 C2516 1.511 . S
C2519 H2533 0.961 . S
C2519 H2534 0.961 . S
C2519 H2535 0.961 . S
C2520 C2521 1.370 . S
C2520 C2522 1.363 . S
C2520 H2536 0.931 . S
C2521 C2520 1.370 . S
C2521 C2525 1.408 . S
C2522 C2520 1.363 . S
C2522 C2523 1.370 . S
C2522 C2526 1.524 . S
C2523 C2515 1.503 . S
C2523 C2522 1.370 . S
C2523 C2524 1.403 . S
C2524 C2523 1.403 . S
C2524 C2525 1.404 . S
C2524 C2527 1.539 . S
C2525 C2521 1.408 . S
C2525 C2524 1.404 . S
C2525 H2537 0.930 . S
C2526 C2522 1.524 . S
C2526 H2538 0.956 . S
C2526 H2539 0.961 . S
C2526 H2540 0.961 . S
C2527 C2524 1.539 . S
C2527 H2541 0.958 . S
C2527 H2542 0.961 . S
C2527 H2543 0.960 . S
H2528 C2512 0.931 . S
H2529 C2517 0.929 . S
H2530 C2518 0.960 . S
H2531 C2518 0.962 . S
H2532 C2518 0.960 . S
H2533 C2519 0.961 . S
H2534 C2519 0.961 . S
H2535 C2519 0.961 . S
H2536 C2520 0.931 . S
H2537 C2525 0.930 . S
H2538 C2526 0.956 . S
H2539 C2526 0.961 . S
H2540 C2526 0.961 . S
H2541 C2527 0.958 . S
H2542 C2527 0.961 . S
H2543 C2527 0.960 . S
C2544 C2545 1.391 . S
C2544 C2546 1.394 . S
C2544 H2560 0.931 . S
C2545 C2544 1.391 . S
C2545 C2549 1.376 . S
C2546 C2544 1.394 . S
C2546 C2547 1.369 . S
C2546 C2550 1.531 . S
C2547 C2546 1.369 . S
C2547 C2548 1.410 . S
C2547 C2555 1.503 . S
C2548 C2547 1.410 . S
C2548 C2549 1.392 . S
C2548 C2551 1.511 . S
C2549 C2545 1.376 . S
C2549 C2548 1.392 . S
C2549 H2561 0.929 . S
C2550 C2546 1.531 . S
C2550 H2562 0.960 . S
C2550 H2563 0.962 . S
C2550 H2564 0.960 . S
C2551 C2548 1.511 . S
C2551 H2565 0.961 . S
C2551 H2566 0.961 . S
C2551 H2567 0.961 . S
C2552 C2553 1.370 . S
C2552 C2554 1.363 . S
C2552 H2568 0.931 . S
C2553 C2552 1.370 . S
C2553 C2557 1.408 . S
C2554 C2552 1.363 . S
C2554 C2555 1.370 . S
C2554 C2558 1.524 . S
C2555 C2547 1.503 . S
C2555 C2554 1.370 . S
C2555 C2556 1.403 . S
C2556 C2555 1.403 . S
C2556 C2557 1.404 . S
C2556 C2559 1.539 . S
C2557 C2553 1.408 . S
C2557 C2556 1.404 . S
C2557 H2569 0.930 . S
C2558 C2554 1.524 . S
C2558 H2570 0.956 . S
C2558 H2571 0.961 . S
C2558 H2572 0.961 . S
C2559 C2556 1.539 . S
C2559 H2573 0.958 . S
C2559 H2574 0.961 . S
C2559 H2575 0.960 . S
H2560 C2544 0.931 . S
H2561 C2549 0.929 . S
H2562 C2550 0.960 . S
H2563 C2550 0.962 . S
H2564 C2550 0.960 . S
H2565 C2551 0.961 . S
H2566 C2551 0.961 . S
H2567 C2551 0.961 . S
H2568 C2552 0.931 . S
H2569 C2557 0.930 . S
H2570 C2558 0.956 . S
H2571 C2558 0.961 . S
H2572 C2558 0.961 . S
H2573 C2559 0.958 . S
H2574 C2559 0.961 . S
H2575 C2559 0.960 . S
C2576 C2577 1.391 . S
C2576 C2578 1.394 . S
C2576 H2592 0.931 . S
C2577 C2576 1.391 . S
C2577 C2581 1.376 . S
C2578 C2576 1.394 . S
C2578 C2579 1.369 . S
C2578 C2582 1.531 . S
C2579 C2578 1.369 . S
C2579 C2580 1.410 . S
C2579 C2587 1.503 . S
C2580 C2579 1.410 . S
C2580 C2581 1.392 . S
C2580 C2583 1.511 1_455 S
C2581 C2577 1.376 . S
C2581 C2580 1.392 . S
C2581 H2593 0.935 . S
C2582 C2578 1.531 . S
C2582 H2594 0.960 . S
C2582 H2595 0.962 . S
C2582 H2596 0.960 . S
C2583 C2580 1.511 1_655 S
C2583 H2597 0.961 . S
C2583 H2598 0.961 . S
C2583 H2599 0.961 . S
C2584 C2585 1.370 . S
C2584 C2586 1.363 . S
C2584 H2600 0.931 . S
C2585 C2584 1.370 . S
C2585 C2589 1.408 . S
C2586 C2584 1.363 . S
C2586 C2587 1.370 . S
C2586 C2590 1.524 . S
C2587 C2579 1.503 . S
C2587 C2586 1.370 . S
C2587 C2588 1.403 . S
C2588 C2587 1.403 . S
C2588 C2589 1.404 . S
C2588 C2591 1.539 . S
C2589 C2585 1.408 . S
C2589 C2588 1.404 . S
C2589 H2601 0.930 . S
C2590 C2586 1.524 . S
C2590 H2602 0.956 . S
C2590 H2603 0.961 . S
C2590 H2604 0.961 . S
C2591 C2588 1.539 . S
C2591 H2605 0.958 . S
C2591 H2606 0.961 . S
C2591 H2607 0.960 . S
H2592 C2576 0.931 . S
H2593 C2581 0.935 . S
H2594 C2582 0.960 . S
H2595 C2582 0.962 . S
H2596 C2582 0.960 . S
H2597 C2583 0.961 . S
H2598 C2583 0.961 . S
H2599 C2583 0.961 . S
H2600 C2584 0.931 . S
H2601 C2589 0.930 . S
H2602 C2590 0.956 . S
H2603 C2590 0.961 . S
H2604 C2590 0.961 . S
H2605 C2591 0.958 . S
H2606 C2591 0.961 . S
H2607 C2591 0.960 . S
C2608 C2609 1.391 . S
C2608 C2610 1.394 . S
C2608 H2624 0.931 . S
C2609 C2608 1.391 . S
C2609 C2613 1.376 . S
C2610 C2608 1.394 . S
C2610 C2611 1.369 . S
C2610 C2614 1.531 . S
C2611 C2610 1.369 . S
C2611 C2612 1.410 . S
C2611 C2619 1.503 . S
C2612 C2611 1.410 . S
C2612 C2613 1.392 . S
C2612 C2615 1.511 . S
C2613 C2609 1.376 . S
C2613 C2612 1.392 . S
C2613 H2625 0.929 . S
C2614 C2610 1.531 . S
C2614 H2626 0.960 . S
C2614 H2627 0.962 . S
C2614 H2628 0.960 . S
C2615 C2612 1.511 . S
C2615 H2629 0.961 . S
C2615 H2630 0.961 . S
C2615 H2631 0.961 . S
C2616 C2617 1.370 . S
C2616 C2618 1.363 . S
C2616 H2632 0.931 . S
C2617 C2616 1.370 . S
C2617 C2621 1.408 . S
C2618 C2616 1.363 . S
C2618 C2619 1.370 . S
C2618 C2622 1.524 . S
C2619 C2611 1.503 . S
C2619 C2618 1.370 . S
C2619 C2620 1.403 . S
C2620 C2619 1.403 . S
C2620 C2621 1.404 . S
C2620 C2623 1.539 . S
C2621 C2617 1.408 . S
C2621 C2620 1.404 . S
C2621 H2633 0.930 . S
C2622 C2618 1.524 . S
C2622 H2634 0.956 . S
C2622 H2635 0.961 . S
C2622 H2636 0.961 . S
C2623 C2620 1.539 . S
C2623 H2637 0.958 . S
C2623 H2638 0.961 . S
C2623 H2639 0.960 . S
H2624 C2608 0.931 . S
H2625 C2613 0.929 . S
H2626 C2614 0.960 . S
H2627 C2614 0.962 . S
H2628 C2614 0.960 . S
H2629 C2615 0.961 . S
H2630 C2615 0.961 . S
H2631 C2615 0.961 . S
H2632 C2616 0.931 . S
H2633 C2621 0.930 . S
H2634 C2622 0.956 . S
H2635 C2622 0.961 . S
H2636 C2622 0.961 . S
H2637 C2623 0.958 . S
H2638 C2623 0.961 . S
H2639 C2623 0.960 . S
C2640 C2641 1.391 . S
C2640 C2642 1.394 . S
C2640 H2656 0.931 . S
C2641 C2640 1.391 . S
C2641 C2645 1.376 . S
C2642 C2640 1.394 . S
C2642 C2643 1.369 . S
C2642 C2646 1.531 . S
C2643 C2642 1.369 . S
C2643 C2644 1.410 . S
C2643 C2651 1.503 . S
C2644 C2643 1.410 . S
C2644 C2645 1.392 . S
C2644 C2647 1.511 . S
C2645 C2641 1.376 . S
C2645 C2644 1.392 . S
C2645 H2657 0.929 . S
C2646 C2642 1.531 . S
C2646 H2658 0.960 . S
C2646 H2659 0.962 . S
C2646 H2660 0.960 . S
C2647 C2644 1.511 . S
C2647 H2661 0.961 . S
C2647 H2662 0.961 . S
C2647 H2663 0.961 . S
C2648 C2649 1.370 . S
C2648 C2650 1.363 . S
C2648 H2664 0.931 . S
C2649 C2648 1.370 . S
C2649 C2653 1.408 . S
C2650 C2648 1.363 . S
C2650 C2651 1.370 . S
C2650 C2654 1.524 . S
C2651 C2643 1.503 . S
C2651 C2650 1.370 . S
C2651 C2652 1.403 . S
C2652 C2651 1.403 . S
C2652 C2653 1.404 . S
C2652 C2655 1.539 . S
C2653 C2649 1.408 . S
C2653 C2652 1.404 . S
C2653 H2665 0.930 . S
C2654 C2650 1.524 . S
C2654 H2666 0.956 . S
C2654 H2667 0.961 . S
C2654 H2668 0.961 . S
C2655 C2652 1.539 . S
C2655 H2669 0.958 . S
C2655 H2670 0.961 . S
C2655 H2671 0.960 . S
H2656 C2640 0.931 . S
H2657 C2645 0.929 . S
H2658 C2646 0.960 . S
H2659 C2646 0.962 . S
H2660 C2646 0.960 . S
H2661 C2647 0.961 . S
H2662 C2647 0.961 . S
H2663 C2647 0.961 . S
H2664 C2648 0.931 . S
H2665 C2653 0.930 . S
H2666 C2654 0.956 . S
H2667 C2654 0.961 . S
H2668 C2654 0.961 . S
H2669 C2655 0.958 . S
H2670 C2655 0.961 . S
H2671 C2655 0.960 . S
C2672 C2673 1.391 . S
C2672 C2674 1.394 . S
C2672 H2688 0.931 . S
C2673 C2672 1.391 . S
C2673 C2677 1.376 . S
C2674 C2672 1.394 . S
C2674 C2675 1.369 . S
C2674 C2678 1.531 . S
C2675 C2674 1.369 . S
C2675 C2676 1.410 . S
C2675 C2683 1.503 . S
C2676 C2675 1.410 . S
C2676 C2677 1.392 . S
C2676 C2679 1.511 . S
C2677 C2673 1.376 . S
C2677 C2676 1.392 . S
C2677 H2689 0.929 . S
C2678 C2674 1.531 . S
C2678 H2690 0.960 . S
C2678 H2691 0.962 . S
C2678 H2692 0.960 . S
C2679 C2676 1.511 . S
C2679 H2693 0.961 . S
C2679 H2694 0.961 . S
C2679 H2695 0.961 . S
C2680 C2681 1.370 . S
C2680 C2682 1.363 . S
C2680 H2696 0.931 . S
C2681 C2680 1.370 . S
C2681 C2685 1.408 . S
C2682 C2680 1.363 . S
C2682 C2683 1.370 . S
C2682 C2686 1.524 . S
C2683 C2675 1.503 . S
C2683 C2682 1.370 . S
C2683 C2684 1.403 . S
C2684 C2683 1.403 . S
C2684 C2685 1.404 . S
C2684 C2687 1.539 . S
C2685 C2681 1.408 . S
C2685 C2684 1.404 . S
C2685 H2697 0.930 . S
C2686 C2682 1.524 . S
C2686 H2698 0.956 . S
C2686 H2699 0.961 . S
C2686 H2700 0.961 . S
C2687 C2684 1.539 . S
C2687 H2701 0.958 . S
C2687 H2702 0.961 . S
C2687 H2703 0.960 . S
H2688 C2672 0.931 . S
H2689 C2677 0.929 . S
H2690 C2678 0.960 . S
H2691 C2678 0.962 . S
H2692 C2678 0.960 . S
H2693 C2679 0.961 . S
H2694 C2679 0.961 . S
H2695 C2679 0.961 . S
H2696 C2680 0.931 . S
H2697 C2685 0.930 . S
H2698 C2686 0.956 . S
H2699 C2686 0.961 . S
H2700 C2686 0.961 . S
H2701 C2687 0.958 . S
H2702 C2687 0.961 . S
H2703 C2687 0.960 . S
C2704 C2705 1.391 . S
C2704 C2706 1.394 . S
C2704 H2720 0.931 . S
C2705 C2704 1.391 . S
C2705 C2709 1.376 . S
C2706 C2704 1.394 . S
C2706 C2707 1.369 . S
C2706 C2710 1.531 1_545 S
C2707 C2706 1.369 . S
C2707 C2708 1.410 . S
C2707 C2715 1.503 . S
C2708 C2707 1.410 . S
C2708 C2709 1.392 . S
C2708 C2711 1.511 . S
C2709 C2705 1.376 . S
C2709 C2708 1.392 . S
C2709 H2721 0.929 . S
C2710 C2706 1.531 1_565 S
C2710 H2722 0.960 . S
C2710 H2723 0.962 . S
C2710 H2724 0.960 . S
C2711 C2708 1.511 . S
C2711 H2725 0.961 . S
C2711 H2726 0.961 . S
C2711 H2727 0.961 . S
C2712 C2713 1.370 . S
C2712 C2714 1.363 . S
C2712 H2728 0.931 . S
C2713 C2712 1.370 . S
C2713 C2717 1.408 . S
C2714 C2712 1.363 . S
C2714 C2715 1.370 . S
C2714 C2718 1.524 . S
C2715 C2707 1.503 . S
C2715 C2714 1.370 . S
C2715 C2716 1.403 . S
C2716 C2715 1.403 . S
C2716 C2717 1.404 . S
C2716 C2719 1.539 . S
C2717 C2713 1.408 . S
C2717 C2716 1.404 . S
C2717 H2729 0.930 . S
C2718 C2714 1.524 . S
C2718 H2730 0.956 . S
C2718 H2731 0.961 . S
C2718 H2732 0.961 . S
C2719 C2716 1.539 . S
C2719 H2733 0.958 . S
C2719 H2734 0.961 . S
C2719 H2735 0.960 . S
H2720 C2704 0.931 . S
H2721 C2709 0.929 . S
H2722 C2710 0.960 . S
H2723 C2710 0.962 . S
H2724 C2710 0.960 . S
H2725 C2711 0.961 . S
H2726 C2711 0.961 . S
H2727 C2711 0.961 . S
H2728 C2712 0.931 . S
H2729 C2717 0.930 . S
H2730 C2718 0.956 . S
H2731 C2718 0.961 . S
H2732 C2718 0.961 . S
H2733 C2719 0.958 . S
H2734 C2719 0.961 . S
H2735 C2719 0.960 . S
C2736 C2737 1.391 . S
C2736 C2738 1.394 . S
C2736 H2752 0.931 . S
C2737 C2736 1.391 . S
C2737 C2741 1.376 . S
C2738 C2736 1.394 . S
C2738 C2739 1.369 . S
C2738 C2742 1.531 . S
C2739 C2738 1.369 . S
C2739 C2740 1.410 . S
C2739 C2747 1.503 . S
C2740 C2739 1.410 . S
C2740 C2741 1.392 . S
C2740 C2743 1.511 . S
C2741 C2737 1.376 . S
C2741 C2740 1.392 . S
C2741 H2753 0.929 . S
C2742 C2738 1.531 . S
C2742 H2754 0.960 . S
C2742 H2755 0.962 . S
C2742 H2756 0.960 . S
C2743 C2740 1.511 . S
C2743 H2757 0.961 . S
C2743 H2758 0.961 . S
C2743 H2759 0.961 . S
C2744 C2745 1.370 . S
C2744 C2746 1.363 . S
C2744 H2760 0.931 . S
C2745 C2744 1.370 . S
C2745 C2749 1.408 . S
C2746 C2744 1.363 . S
C2746 C2747 1.370 . S
C2746 C2750 1.524 . S
C2747 C2739 1.503 . S
C2747 C2746 1.370 . S
C2747 C2748 1.403 . S
C2748 C2747 1.403 . S
C2748 C2749 1.404 . S
C2748 C2751 1.539 . S
C2749 C2745 1.408 . S
C2749 C2748 1.404 . S
C2749 H2761 0.930 . S
C2750 C2746 1.524 . S
C2750 H2762 0.956 . S
C2750 H2763 0.961 . S
C2750 H2764 0.961 . S
C2751 C2748 1.539 . S
C2751 H2765 0.958 . S
C2751 H2766 0.961 . S
C2751 H2767 0.960 . S
H2752 C2736 0.931 . S
H2753 C2741 0.929 . S
H2754 C2742 0.960 . S
H2755 C2742 0.962 . S
H2756 C2742 0.960 . S
H2757 C2743 0.961 . S
H2758 C2743 0.961 . S
H2759 C2743 0.961 . S
H2760 C2744 0.931 . S
H2761 C2749 0.930 . S
H2762 C2750 0.956 . S
H2763 C2750 0.961 . S
H2764 C2750 0.961 . S
H2765 C2751 0.958 . S
H2766 C2751 0.961 . S
H2767 C2751 0.960 . S
C2768 C2769 1.391 . S
C2768 C2770 1.394 . S
C2768 H2784 0.931 . S
C2769 C2768 1.391 . S
C2769 C2773 1.376 . S
C2770 C2768 1.394 . S
C2770 C2771 1.369 . S
C2770 C2774 1.531 . S
C2771 C2770 1.369 . S
C2771 C2772 1.410 . S
C2771 C2779 1.503 . S
C2772 C2771 1.410 . S
C2772 C2773 1.392 . S
C2772 C2775 1.511 . S
C2773 C2769 1.376 . S
C2773 C2772 1.392 . S
C2773 H2785 0.929 . S
C2774 C2770 1.531 . S
C2774 H2786 0.960 . S
C2774 H2787 0.962 . S
C2774 H2788 0.960 . S
C2775 C2772 1.511 . S
C2775 H2789 0.961 . S
C2775 H2790 0.961 . S
C2775 H2791 0.961 . S
C2776 C2777 1.370 . S
C2776 C2778 1.363 . S
C2776 H2792 0.931 1_545 S
C2777 C2776 1.370 . S
C2777 C2781 1.408 . S
C2778 C2776 1.363 . S
C2778 C2779 1.370 . S
C2778 C2782 1.524 1_545 S
C2779 C2771 1.503 . S
C2779 C2778 1.370 . S
C2779 C2780 1.403 . S
C2780 C2779 1.403 . S
C2780 C2781 1.404 . S
C2780 C2783 1.539 . S
C2781 C2777 1.408 . S
C2781 C2780 1.404 . S
C2781 H2793 0.930 . S
C2782 C2778 1.524 1_565 S
C2782 H2794 0.956 . S
C2782 H2795 0.961 . S
C2782 H2796 0.961 . S
C2783 C2780 1.539 . S
C2783 H2797 0.958 . S
C2783 H2798 0.961 . S
C2783 H2799 0.960 . S
H2784 C2768 0.931 . S
H2785 C2773 0.929 . S
H2786 C2774 0.960 . S
H2787 C2774 0.962 . S
H2788 C2774 0.960 . S
H2789 C2775 0.961 . S
H2790 C2775 0.961 . S
H2791 C2775 0.961 . S
H2792 C2776 0.931 1_565 S
H2793 C2781 0.930 . S
H2794 C2782 0.956 . S
H2795 C2782 0.961 . S
H2796 C2782 0.961 . S
H2797 C2783 0.958 . S
H2798 C2783 0.961 . S
H2799 C2783 0.960 . S
C2800 C2801 1.391 . S
C2800 C2802 1.394 . S
C2800 H2816 0.931 . S
C2801 C2800 1.391 . S
C2801 C2805 1.376 . S
C2802 C2800 1.394 . S
C2802 C2803 1.369 . S
C2802 C2806 1.531 . S
C2803 C2802 1.369 . S
C2803 C2804 1.410 . S
C2803 C2811 1.503 . S
C2804 C2803 1.410 . S
C2804 C2805 1.392 . S
C2804 C2807 1.511 . S
C2805 C2801 1.376 . S
C2805 C2804 1.392 . S
C2805 H2817 0.929 . S
C2806 C2802 1.531 . S
C2806 H2818 0.960 . S
C2806 H2819 0.962 . S
C2806 H2820 0.960 . S
C2807 C2804 1.511 . S
C2807 H2821 0.961 . S
C2807 H2822 0.961 . S
C2807 H2823 0.961 . S
C2808 C2809 1.370 . S
C2808 C2810 1.363 . S
C2808 H2824 0.931 . S
C2809 C2808 1.370 . S
C2809 C2813 1.408 . S
C2810 C2808 1.363 . S
C2810 C2811 1.370 . S
C2810 C2814 1.524 . S
C2811 C2803 1.503 . S
C2811 C2810 1.370 . S
C2811 C2812 1.403 . S
C2812 C2811 1.403 . S
C2812 C2813 1.404 . S
C2812 C2815 1.539 . S
C2813 C2809 1.408 . S
C2813 C2812 1.404 . S
C2813 H2825 0.930 . S
C2814 C2810 1.524 . S
C2814 H2826 0.956 . S
C2814 H2827 0.961 . S
C2814 H2828 0.961 . S
C2815 C2812 1.539 . S
C2815 H2829 0.958 . S
C2815 H2830 0.961 . S
C2815 H2831 0.960 . S
H2816 C2800 0.931 . S
H2817 C2805 0.929 . S
H2818 C2806 0.960 . S
H2819 C2806 0.962 . S
H2820 C2806 0.960 . S
H2821 C2807 0.961 . S
H2822 C2807 0.961 . S
H2823 C2807 0.961 . S
H2824 C2808 0.931 . S
H2825 C2813 0.930 . S
H2826 C2814 0.956 . S
H2827 C2814 0.961 . S
H2828 C2814 0.961 . S
H2829 C2815 0.958 . S
H2830 C2815 0.961 . S
H2831 C2815 0.960 . S
C2832 C2833 1.391 . S
C2832 C2834 1.394 . S
C2832 H2848 0.931 . S
C2833 C2832 1.391 . S
C2833 C2837 1.376 . S
C2834 C2832 1.394 . S
C2834 C2835 1.369 . S
C2834 C2838 1.531 . S
C2835 C2834 1.369 . S
C2835 C2836 1.410 . S
C2835 C2843 1.503 . S
C2836 C2835 1.410 . S
C2836 C2837 1.392 . S
C2836 C2839 1.506 1_545 S
C2837 C2833 1.376 . S
C2837 C2836 1.392 . S
C2837 H2849 0.929 . S
C2838 C2834 1.531 . S
C2838 H2850 0.960 . S
C2838 H2851 0.962 . S
C2838 H2852 0.960 . S
C2839 C2836 1.506 1_565 S
C2839 H2853 0.963 . S
C2839 H2854 0.955 1_565 S
C2839 H2855 0.969 . S
C2840 C2841 1.370 . S
C2840 C2842 1.363 . S
C2840 H2856 0.931 . S
C2841 C2840 1.370 . S
C2841 C2845 1.408 . S
C2842 C2840 1.363 . S
C2842 C2843 1.370 . S
C2842 C2846 1.524 . S
C2843 C2835 1.503 . S
C2843 C2842 1.370 . S
C2843 C2844 1.403 . S
C2844 C2843 1.403 . S
C2844 C2845 1.404 . S
C2844 C2847 1.539 . S
C2845 C2841 1.408 . S
C2845 C2844 1.404 . S
C2845 H2857 0.930 . S
C2846 C2842 1.524 . S
C2846 H2858 0.956 . S
C2846 H2859 0.961 . S
C2846 H2860 0.961 . S
C2847 C2844 1.539 . S
C2847 H2861 0.958 . S
C2847 H2862 0.961 1_545 S
C2847 H2863 0.960 . S
H2848 C2832 0.931 . S
H2849 C2837 0.929 . S
H2850 C2838 0.960 . S
H2851 C2838 0.962 . S
H2852 C2838 0.960 . S
H2853 C2839 0.963 . S
H2854 C2839 0.955 1_545 S
H2855 C2839 0.969 . S
H2856 C2840 0.931 . S
H2857 C2845 0.930 . S
H2858 C2846 0.956 . S
H2859 C2846 0.961 . S
H2860 C2846 0.961 . S
H2861 C2847 0.958 . S
H2862 C2847 0.961 1_565 S
H2863 C2847 0.960 . S
C2864 C2865 1.391 . S
C2864 C2866 1.394 . S
C2864 H2880 0.931 . S
C2865 C2864 1.391 . S
C2865 C2869 1.376 . S
C2866 C2864 1.394 . S
C2866 C2867 1.369 . S
C2866 C2870 1.531 . S
C2867 C2866 1.369 . S
C2867 C2868 1.410 . S
C2867 C2875 1.503 . S
C2868 C2867 1.410 . S
C2868 C2869 1.392 . S
C2868 C2871 1.511 . S
C2869 C2865 1.376 . S
C2869 C2868 1.392 . S
C2869 H2881 0.929 . S
C2870 C2866 1.531 . S
C2870 H2882 0.960 . S
C2870 H2883 0.962 . S
C2870 H2884 0.960 . S
C2871 C2868 1.511 . S
C2871 H2885 0.961 . S
C2871 H2886 0.961 . S
C2871 H2887 0.961 . S
C2872 C2873 1.370 . S
C2872 C2874 1.363 . S
C2872 H2888 0.931 . S
C2873 C2872 1.370 . S
C2873 C2877 1.408 . S
C2874 C2872 1.363 . S
C2874 C2875 1.370 . S
C2874 C2878 1.524 . S
C2875 C2867 1.503 . S
C2875 C2874 1.370 . S
C2875 C2876 1.403 . S
C2876 C2875 1.403 . S
C2876 C2877 1.404 . S
C2876 C2879 1.539 . S
C2877 C2873 1.408 . S
C2877 C2876 1.404 . S
C2877 H2889 0.930 . S
C2878 C2874 1.524 . S
C2878 H2890 0.956 . S
C2878 H2891 0.961 . S
C2878 H2892 0.961 . S
C2879 C2876 1.539 . S
C2879 H2893 0.958 . S
C2879 H2894 0.961 . S
C2879 H2895 0.960 . S
H2880 C2864 0.931 . S
H2881 C2869 0.929 . S
H2882 C2870 0.960 . S
H2883 C2870 0.962 . S
H2884 C2870 0.960 . S
H2885 C2871 0.961 . S
H2886 C2871 0.961 . S
H2887 C2871 0.961 . S
H2888 C2872 0.931 . S
H2889 C2877 0.930 . S
H2890 C2878 0.956 . S
H2891 C2878 0.961 . S
H2892 C2878 0.961 . S
H2893 C2879 0.958 . S
H2894 C2879 0.961 . S
H2895 C2879 0.960 . S
C2896 C2897 1.391 . S
C2896 C2898 1.394 . S
C2896 H2912 0.931 . S
C2897 C2896 1.391 . S
C2897 C2901 1.376 1_545 S
C2898 C2896 1.394 . S
C2898 C2899 1.369 . S
C2898 C2902 1.531 . S
C2899 C2898 1.369 . S
C2899 C2900 1.410 1_545 S
C2899 C2907 1.503 . S
C2900 C2899 1.410 1_565 S
C2900 C2901 1.392 . S
C2900 C2903 1.511 . S
C2901 C2897 1.376 1_565 S
C2901 C2900 1.392 . S
C2901 H2913 0.929 . S
C2902 C2898 1.531 . S
C2902 H2914 0.960 . S
C2902 H2915 0.962 . S
C2902 H2916 0.960 . S
C2903 C2900 1.511 . S
C2903 H2917 0.961 . S
C2903 H2918 0.961 . S
C2903 H2919 0.961 . S
C2904 C2905 1.370 . S
C2904 C2906 1.363 . S
C2904 H2920 0.931 . S
C2905 C2904 1.370 . S
C2905 C2909 1.418 . S
C2906 C2904 1.363 . S
C2906 C2907 1.370 . S
C2906 C2910 1.524 . S
C2907 C2899 1.503 . S
C2907 C2906 1.370 . S
C2907 C2908 1.383 1_545 S
C2908 C2907 1.383 1_565 S
C2908 C2909 1.400 1_565 S
C2908 C2911 1.567 . S
C2909 C2905 1.418 . S
C2909 C2908 1.400 1_545 S
C2909 H2921 0.922 1_545 S
C2910 C2906 1.524 . S
C2910 H2922 0.956 . S
C2910 H2923 0.961 . S
C2910 H2924 0.961 . S
C2911 C2908 1.567 . S
C2911 H2925 0.958 1_565 S
C2911 H2926 0.961 . S
C2911 H2927 0.960 . S
H2912 C2896 0.931 . S
H2913 C2901 0.929 . S
H2914 C2902 0.960 . S
H2915 C2902 0.962 . S
H2916 C2902 0.960 . S
H2917 C2903 0.961 . S
H2918 C2903 0.961 . S
H2919 C2903 0.961 . S
H2920 C2904 0.931 . S
H2921 C2909 0.922 1_565 S
H2922 C2910 0.956 . S
H2923 C2910 0.961 . S
H2924 C2910 0.961 . S
H2925 C2911 0.958 1_545 S
H2926 C2911 0.961 . S
H2927 C2911 0.960 . S
C2928 C2929 1.391 . S
C2928 C2930 1.394 . S
C2928 H2944 0.931 . S
C2929 C2928 1.391 . S
C2929 C2933 1.376 . S
C2930 C2928 1.394 . S
C2930 C2931 1.369 . S
C2930 C2934 1.531 . S
C2931 C2930 1.369 . S
C2931 C2932 1.410 . S
C2931 C2939 1.503 . S
C2932 C2931 1.410 . S
C2932 C2933 1.392 . S
C2932 C2935 1.511 . S
C2933 C2929 1.376 . S
C2933 C2932 1.392 . S
C2933 H2945 0.929 . S
C2934 C2930 1.531 . S
C2934 H2946 0.960 . S
C2934 H2947 0.962 . S
C2934 H2948 0.960 . S
C2935 C2932 1.511 . S
C2935 H2949 0.961 . S
C2935 H2950 0.961 . S
C2935 H2951 0.961 . S
C2936 C2937 1.370 . S
C2936 C2938 1.363 . S
C2936 H2952 0.931 . S
C2937 C2936 1.370 . S
C2937 C2941 1.408 . S
C2938 C2936 1.363 . S
C2938 C2939 1.370 . S
C2938 C2942 1.524 . S
C2939 C2931 1.503 . S
C2939 C2938 1.370 . S
C2939 C2940 1.403 . S
C2940 C2939 1.403 . S
C2940 C2941 1.404 . S
C2940 C2943 1.539 . S
C2941 C2937 1.408 . S
C2941 C2940 1.404 . S
C2941 H2953 0.930 . S
C2942 C2938 1.524 . S
C2942 H2954 0.956 . S
C2942 H2955 0.961 . S
C2942 H2956 0.961 . S
C2943 C2940 1.539 . S
C2943 H2957 0.958 . S
C2943 H2958 0.961 . S
C2943 H2959 0.960 . S
H2944 C2928 0.931 . S
H2945 C2933 0.929 . S
H2946 C2934 0.960 . S
H2947 C2934 0.962 . S
H2948 C2934 0.960 . S
H2949 C2935 0.961 . S
H2950 C2935 0.961 . S
H2951 C2935 0.961 . S
H2952 C2936 0.931 . S
H2953 C2941 0.930 . S
H2954 C2942 0.956 . S
H2955 C2942 0.961 . S
H2956 C2942 0.961 . S
H2957 C2943 0.958 . S
H2958 C2943 0.961 . S
H2959 C2943 0.960 . S
C2960 C2961 1.391 . S
C2960 C2962 1.394 . S
C2960 H2976 0.931 . S
C2961 C2960 1.391 . S
C2961 C2965 1.376 . S
C2962 C2960 1.394 . S
C2962 C2963 1.369 . S
C2962 C2966 1.531 . S
C2963 C2962 1.369 . S
C2963 C2964 1.410 . S
C2963 C2971 1.503 . S
C2964 C2963 1.410 . S
C2964 C2965 1.392 . S
C2964 C2967 1.511 1_554 S
C2965 C2961 1.376 . S
C2965 C2964 1.392 . S
C2965 H2977 0.929 . S
C2966 C2962 1.531 . S
C2966 H2978 0.960 . S
C2966 H2979 0.962 . S
C2966 H2980 0.960 . S
C2967 C2964 1.511 1_556 S
C2967 H2981 0.961 . S
C2967 H2982 0.961 . S
C2967 H2983 0.961 . S
C2968 C2969 1.370 . S
C2968 C2970 1.363 . S
C2968 H2984 0.931 . S
C2969 C2968 1.370 . S
C2969 C2973 1.408 . S
C2970 C2968 1.363 . S
C2970 C2971 1.370 . S
C2970 C2974 1.524 . S
C2971 C2963 1.503 . S
C2971 C2970 1.370 . S
C2971 C2972 1.403 . S
C2972 C2971 1.403 . S
C2972 C2973 1.404 . S
C2972 C2975 1.539 . S
C2973 C2969 1.408 . S
C2973 C2972 1.404 . S
C2973 H2985 0.930 . S
C2974 C2970 1.524 . S
C2974 H2986 0.956 . S
C2974 H2987 0.961 . S
C2974 H2988 0.961 . S
C2975 C2972 1.539 . S
C2975 H2989 0.958 . S
C2975 H2990 0.961 . S
C2975 H2991 0.960 . S
H2976 C2960 0.931 . S
H2977 C2965 0.929 . S
H2978 C2966 0.960 . S
H2979 C2966 0.962 . S
H2980 C2966 0.960 . S
H2981 C2967 0.961 . S
H2982 C2967 0.961 . S
H2983 C2967 0.961 . S
H2984 C2968 0.931 . S
H2985 C2973 0.930 . S
H2986 C2974 0.956 . S
H2987 C2974 0.961 . S
H2988 C2974 0.961 . S
H2989 C2975 0.958 . S
H2990 C2975 0.961 . S
H2991 C2975 0.960 . S
C2992 C2993 1.391 . S
C2992 C2994 1.394 . S
C2992 H3008 0.931 . S
C2993 C2992 1.391 . S
C2993 C2997 1.376 . S
C2994 C2992 1.394 . S
C2994 C2995 1.369 . S
C2994 C2998 1.531 . S
C2995 C2994 1.369 . S
C2995 C2996 1.410 . S
C2995 C3003 1.503 . S
C2996 C2995 1.410 . S
C2996 C2997 1.392 . S
C2996 C2999 1.511 . S
C2997 C2993 1.376 . S
C2997 C2996 1.392 . S
C2997 H3009 0.929 . S
C2998 C2994 1.531 . S
C2998 H3010 0.960 . S
C2998 H3011 0.962 1_554 S
C2998 H3012 0.960 . S
C2999 C2996 1.511 . S
C2999 H3013 0.961 . S
C2999 H3014 0.961 . S
C2999 H3015 0.961 . S
C3000 C3001 1.370 . S
C3000 C3002 1.363 . S
C3000 H3016 0.931 . S
C3001 C3000 1.370 . S
C3001 C3005 1.408 . S
C3002 C3000 1.363 . S
C3002 C3003 1.370 . S
C3002 C3006 1.524 . S
C3003 C2995 1.503 . S
C3003 C3002 1.370 . S
C3003 C3004 1.403 . S
C3004 C3003 1.403 . S
C3004 C3005 1.404 . S
C3004 C3007 1.539 . S
C3005 C3001 1.408 . S
C3005 C3004 1.404 . S
C3005 H3017 0.930 . S
C3006 C3002 1.524 . S
C3006 H3018 0.987 . S
C3006 H3019 0.961 . S
C3006 H3020 0.961 . S
C3007 C3004 1.539 . S
C3007 H3021 0.958 . S
C3007 H3022 0.961 . S
C3007 H3023 0.960 . S
H3008 C2992 0.931 . S
H3009 C2997 0.929 . S
H3010 C2998 0.960 . S
H3011 C2998 0.962 1_556 S
H3012 C2998 0.960 . S
H3013 C2999 0.961 . S
H3014 C2999 0.961 . S
H3015 C2999 0.961 . S
H3016 C3000 0.931 . S
H3017 C3005 0.930 . S
H3018 C3006 0.987 . S
H3019 C3006 0.961 . S
H3020 C3006 0.961 . S
H3021 C3007 0.958 . S
H3022 C3007 0.961 . S
H3023 C3007 0.960 . S
C3024 C3025 1.391 . S
C3024 C3026 1.394 . S
C3024 H3040 0.931 . S
C3025 C3024 1.391 . S
C3025 C3029 1.376 . S
C3026 C3024 1.394 . S
C3026 C3027 1.369 . S
C3026 C3030 1.531 . S
C3027 C3026 1.369 . S
C3027 C3028 1.410 . S
C3027 C3035 1.503 . S
C3028 C3027 1.410 . S
C3028 C3029 1.392 . S
C3028 C3031 1.511 . S
C3029 C3025 1.376 . S
C3029 C3028 1.392 . S
C3029 H3041 0.929 . S
C3030 C3026 1.531 . S
C3030 H3042 0.960 . S
C3030 H3043 0.962 . S
C3030 H3044 0.960 . S
C3031 C3028 1.511 . S
C3031 H3045 0.961 . S
C3031 H3046 0.961 . S
C3031 H3047 0.961 . S
C3032 C3033 1.370 . S
C3032 C3034 1.363 . S
C3032 H3048 0.931 . S
C3033 C3032 1.370 . S
C3033 C3037 1.408 . S
C3034 C3032 1.363 . S
C3034 C3035 1.370 . S
C3034 C3038 1.524 . S
C3035 C3027 1.503 . S
C3035 C3034 1.370 . S
C3035 C3036 1.403 . S
C3036 C3035 1.403 . S
C3036 C3037 1.404 . S
C3036 C3039 1.539 . S
C3037 C3033 1.408 . S
C3037 C3036 1.404 . S
C3037 H3049 0.930 . S
C3038 C3034 1.524 . S
C3038 H3050 0.956 . S
C3038 H3051 0.961 . S
C3038 H3052 0.961 . S
C3039 C3036 1.539 . S
C3039 H3053 0.958 . S
C3039 H3054 0.961 . S
C3039 H3055 0.960 . S
H3040 C3024 0.931 . S
H3041 C3029 0.929 . S
H3042 C3030 0.960 . S
H3043 C3030 0.962 . S
H3044 C3030 0.960 . S
H3045 C3031 0.961 . S
H3046 C3031 0.961 . S
H3047 C3031 0.961 . S
H3048 C3032 0.931 . S
H3049 C3037 0.930 . S
H3050 C3038 0.956 . S
H3051 C3038 0.961 . S
H3052 C3038 0.961 . S
H3053 C3039 0.958 . S
H3054 C3039 0.961 . S
H3055 C3039 0.960 . S
C3056 C3057 1.391 . S
C3056 C3058 1.394 . S
C3056 H3072 0.931 . S
C3057 C3056 1.391 . S
C3057 C3061 1.376 . S
C3058 C3056 1.394 . S
C3058 C3059 1.369 . S
C3058 C3062 1.531 . S
C3059 C3058 1.369 . S
C3059 C3060 1.410 . S
C3059 C3067 1.503 . S
C3060 C3059 1.410 . S
C3060 C3061 1.392 . S
C3060 C3063 1.511 . S
C3061 C3057 1.376 . S
C3061 C3060 1.392 . S
C3061 H3073 0.929 . S
C3062 C3058 1.531 . S
C3062 H3074 0.960 . S
C3062 H3075 0.962 . S
C3062 H3076 0.960 . S
C3063 C3060 1.511 . S
C3063 H3077 0.961 . S
C3063 H3078 0.961 . S
C3063 H3079 0.961 . S
C3064 C3065 1.370 . S
C3064 C3066 1.363 . S
C3064 H3080 0.931 . S
C3065 C3064 1.370 . S
C3065 C3069 1.408 . S
C3066 C3064 1.363 . S
C3066 C3067 1.370 . S
C3066 C3070 1.524 . S
C3067 C3059 1.503 . S
C3067 C3066 1.370 . S
C3067 C3068 1.403 . S
C3068 C3067 1.403 . S
C3068 C3069 1.404 . S
C3068 C3071 1.539 . S
C3069 C3065 1.408 . S
C3069 C3068 1.404 . S
C3069 H3081 0.930 . S
C3070 C3066 1.524 . S
C3070 H3082 0.956 . S
C3070 H3083 0.961 . S
C3070 H3084 0.961 . S
C3071 C3068 1.539 . S
C3071 H3085 0.958 . S
C3071 H3086 0.961 . S
C3071 H3087 0.960 . S
H3072 C3056 0.931 . S
H3073 C3061 0.929 . S
H3074 C3062 0.960 . S
H3075 C3062 0.962 . S
H3076 C3062 0.960 . S
H3077 C3063 0.961 . S
H3078 C3063 0.961 . S
H3079 C3063 0.961 . S
H3080 C3064 0.931 . S
H3081 C3069 0.930 . S
H3082 C3070 0.956 . S
H3083 C3070 0.961 . S
H3084 C3070 0.961 . S
H3085 C3071 0.958 . S
H3086 C3071 0.961 . S
H3087 C3071 0.960 . S
C3088 C3089 1.391 1_565 S
C3088 C3090 1.394 . S
C3088 H3104 0.931 . S
C3089 C3088 1.391 1_545 S
C3089 C3093 1.376 . S
C3090 C3088 1.394 . S
C3090 C3091 1.369 . S
C3090 C3094 1.531 . S
C3091 C3090 1.369 . S
C3091 C3092 1.410 . S
C3091 C3099 1.503 . S
C3092 C3091 1.410 . S
C3092 C3093 1.392 1_565 S
C3092 C3095 1.511 . S
C3093 C3089 1.376 . S
C3093 C3092 1.392 1_545 S
C3093 H3105 0.929 . S
C3094 C3090 1.531 . S
C3094 H3106 0.960 . S
C3094 H3107 0.962 . S
C3094 H3108 0.960 . S
C3095 C3092 1.511 . S
C3095 H3109 0.961 1_565 S
C3095 H3110 0.961 . S
C3095 H3111 0.961 . S
C3096 C3097 1.370 . S
C3096 C3098 1.363 . S
C3096 H3112 0.931 . S
C3097 C3096 1.370 . S
C3097 C3101 1.408 . S
C3098 C3096 1.363 . S
C3098 C3099 1.370 . S
C3098 C3102 1.524 . S
C3099 C3091 1.503 . S
C3099 C3098 1.370 . S
C3099 C3100 1.403 . S
C3100 C3099 1.403 . S
C3100 C3101 1.404 . S
C3100 C3103 1.539 . S
C3101 C3097 1.408 . S
C3101 C3100 1.404 . S
C3101 H3113 0.930 . S
C3102 C3098 1.524 . S
C3102 H3114 0.956 . S
C3102 H3115 0.961 . S
C3102 H3116 0.961 . S
C3103 C3100 1.539 . S
C3103 H3117 0.958 . S
C3103 H3118 0.961 . S
C3103 H3119 0.960 . S
H3104 C3088 0.931 . S
H3105 C3093 0.929 . S
H3106 C3094 0.960 . S
H3107 C3094 0.962 . S
H3108 C3094 0.960 . S
H3109 C3095 0.961 1_545 S
H3110 C3095 0.961 . S
H3111 C3095 0.961 . S
H3112 C3096 0.931 . S
H3113 C3101 0.930 . S
H3114 C3102 0.956 . S
H3115 C3102 0.961 . S
H3116 C3102 0.961 . S
H3117 C3103 0.958 . S
H3118 C3103 0.961 . S
H3119 C3103 0.960 . S
C3120 C3121 1.391 . S
C3120 C3122 1.394 . S
C3120 H3136 0.931 . S
C3121 C3120 1.391 . S
C3121 C3125 1.376 . S
C3122 C3120 1.394 . S
C3122 C3123 1.369 . S
C3122 C3126 1.531 . S
C3123 C3122 1.369 . S
C3123 C3124 1.410 . S
C3123 C3131 1.503 . S
C3124 C3123 1.410 . S
C3124 C3125 1.392 . S
C3124 C3127 1.511 . S
C3125 C3121 1.376 . S
C3125 C3124 1.392 . S
C3125 H3137 0.929 . S
C3126 C3122 1.531 . S
C3126 H3138 0.960 . S
C3126 H3139 0.962 . S
C3126 H3140 0.960 . S
C3127 C3124 1.511 . S
C3127 H3141 0.961 . S
C3127 H3142 0.961 . S
C3127 H3143 0.961 . S
C3128 C3129 1.370 . S
C3128 C3130 1.363 . S
C3128 H3144 0.931 . S
C3129 C3128 1.370 . S
C3129 C3133 1.408 . S
C3130 C3128 1.363 . S
C3130 C3131 1.370 . S
C3130 C3134 1.524 . S
C3131 C3123 1.503 . S
C3131 C3130 1.370 . S
C3131 C3132 1.403 . S
C3132 C3131 1.403 . S
C3132 C3133 1.404 . S
C3132 C3135 1.539 . S
C3133 C3129 1.408 . S
C3133 C3132 1.404 . S
C3133 H3145 0.930 . S
C3134 C3130 1.524 . S
C3134 H3146 0.956 . S
C3134 H3147 0.961 . S
C3134 H3148 0.961 . S
C3135 C3132 1.539 . S
C3135 H3149 0.958 . S
C3135 H3150 0.961 . S
C3135 H3151 0.960 . S
H3136 C3120 0.931 . S
H3137 C3125 0.929 . S
H3138 C3126 0.960 . S
H3139 C3126 0.962 . S
H3140 C3126 0.960 . S
H3141 C3127 0.961 . S
H3142 C3127 0.961 . S
H3143 C3127 0.961 . S
H3144 C3128 0.931 . S
H3145 C3133 0.930 . S
H3146 C3134 0.956 . S
H3147 C3134 0.961 . S
H3148 C3134 0.961 . S
H3149 C3135 0.958 . S
H3150 C3135 0.961 . S
H3151 C3135 0.960 . S
C3152 C3153 1.391 . S
C3152 C3154 1.394 . S
C3152 H3168 0.931 . S
C3153 C3152 1.391 . S
C3153 C3157 1.376 . S
C3154 C3152 1.394 . S
C3154 C3155 1.369 . S
C3154 C3158 1.531 . S
C3155 C3154 1.369 . S
C3155 C3156 1.410 . S
C3155 C3163 1.503 . S
C3156 C3155 1.410 . S
C3156 C3157 1.392 . S
C3156 C3159 1.511 . S
C3157 C3153 1.376 . S
C3157 C3156 1.392 . S
C3157 H3169 0.929 . S
C3158 C3154 1.531 . S
C3158 H3170 0.960 . S
C3158 H3171 0.962 . S
C3158 H3172 0.960 . S
C3159 C3156 1.511 . S
C3159 H3173 0.961 . S
C3159 H3174 0.961 . S
C3159 H3175 0.961 . S
C3160 C3161 1.370 . S
C3160 C3162 1.363 . S
C3160 H3176 0.931 . S
C3161 C3160 1.370 . S
C3161 C3165 1.408 . S
C3162 C3160 1.363 . S
C3162 C3163 1.370 . S
C3162 C3166 1.524 . S
C3163 C3155 1.503 . S
C3163 C3162 1.370 . S
C3163 C3164 1.403 . S
C3164 C3163 1.403 . S
C3164 C3165 1.404 . S
C3164 C3167 1.539 . S
C3165 C3161 1.408 . S
C3165 C3164 1.404 . S
C3165 H3177 0.930 . S
C3166 C3162 1.524 . S
C3166 H3178 0.956 . S
C3166 H3179 0.961 . S
C3166 H3180 0.961 . S
C3167 C3164 1.539 . S
C3167 H3181 0.958 . S
C3167 H3182 0.961 . S
C3167 H3183 0.960 . S
H3168 C3152 0.931 . S
H3169 C3157 0.929 . S
H3170 C3158 0.960 . S
H3171 C3158 0.962 . S
H3172 C3158 0.960 . S
H3173 C3159 0.961 . S
H3174 C3159 0.961 . S
H3175 C3159 0.961 . S
H3176 C3160 0.931 . S
H3177 C3165 0.930 . S
H3178 C3166 0.956 . S
H3179 C3166 0.961 . S
H3180 C3166 0.961 . S
H3181 C3167 0.958 . S
H3182 C3167 0.961 . S
H3183 C3167 0.960 . S
C3184 C3185 1.391 . S
C3184 C3186 1.394 . S
C3184 H3200 0.931 . S
C3185 C3184 1.391 . S
C3185 C3189 1.376 . S
C3186 C3184 1.394 . S
C3186 C3187 1.369 . S
C3186 C3190 1.531 . S
C3187 C3186 1.369 . S
C3187 C3188 1.410 . S
C3187 C3195 1.503 . S
C3188 C3187 1.410 . S
C3188 C3189 1.392 . S
C3188 C3191 1.511 . S
C3189 C3185 1.376 . S
C3189 C3188 1.392 . S
C3189 H3201 0.929 . S
C3190 C3186 1.531 . S
C3190 H3202 0.960 . S
C3190 H3203 0.962 . S
C3190 H3204 0.960 . S
C3191 C3188 1.511 . S
C3191 H3205 0.961 . S
C3191 H3206 0.961 . S
C3191 H3207 0.961 . S
C3192 C3193 1.370 . S
C3192 C3194 1.363 . S
C3192 H3208 0.931 . S
C3193 C3192 1.370 . S
C3193 C3197 1.408 . S
C3194 C3192 1.363 . S
C3194 C3195 1.370 . S
C3194 C3198 1.524 . S
C3195 C3187 1.503 . S
C3195 C3194 1.370 . S
C3195 C3196 1.403 . S
C3196 C3195 1.403 . S
C3196 C3197 1.404 . S
C3196 C3199 1.539 . S
C3197 C3193 1.408 . S
C3197 C3196 1.404 . S
C3197 H3209 0.930 . S
C3198 C3194 1.524 . S
C3198 H3210 0.956 . S
C3198 H3211 0.961 . S
C3198 H3212 0.961 . S
C3199 C3196 1.539 . S
C3199 H3213 0.958 . S
C3199 H3214 0.961 . S
C3199 H3215 0.960 . S
H3200 C3184 0.931 . S
H3201 C3189 0.929 . S
H3202 C3190 0.960 . S
H3203 C3190 0.962 . S
H3204 C3190 0.960 . S
H3205 C3191 0.961 . S
H3206 C3191 0.961 . S
H3207 C3191 0.961 . S
H3208 C3192 0.931 . S
H3209 C3197 0.930 . S
H3210 C3198 0.956 . S
H3211 C3198 0.961 . S
H3212 C3198 0.961 . S
H3213 C3199 0.958 . S
H3214 C3199 0.961 . S
H3215 C3199 0.960 . S
C3216 C3217 1.391 . S
C3216 C3218 1.394 . S
C3216 H3232 0.931 . S
C3217 C3216 1.391 . S
C3217 C3221 1.376 . S
C3218 C3216 1.394 . S
C3218 C3219 1.369 . S
C3218 C3222 1.531 . S
C3219 C3218 1.369 . S
C3219 C3220 1.410 . S
C3219 C3227 1.503 . S
C3220 C3219 1.410 . S
C3220 C3221 1.392 . S
C3220 C3223 1.511 . S
C3221 C3217 1.376 . S
C3221 C3220 1.392 . S
C3221 H3233 0.929 . S
C3222 C3218 1.531 . S
C3222 H3234 0.960 . S
C3222 H3235 0.962 . S
C3222 H3236 0.960 . S
C3223 C3220 1.511 . S
C3223 H3237 0.961 . S
C3223 H3238 0.961 . S
C3223 H3239 0.961 . S
C3224 C3225 1.370 . S
C3224 C3226 1.363 . S
C3224 H3240 0.931 . S
C3225 C3224 1.370 . S
C3225 C3229 1.408 . S
C3226 C3224 1.363 . S
C3226 C3227 1.370 . S
C3226 C3230 1.524 . S
C3227 C3219 1.503 . S
C3227 C3226 1.370 . S
C3227 C3228 1.403 . S
C3228 C3227 1.403 . S
C3228 C3229 1.404 . S
C3228 C3231 1.539 . S
C3229 C3225 1.408 . S
C3229 C3228 1.404 . S
C3229 H3241 0.930 . S
C3230 C3226 1.524 . S
C3230 H3242 0.956 . S
C3230 H3243 0.961 . S
C3230 H3244 0.961 . S
C3231 C3228 1.539 . S
C3231 H3245 0.958 . S
C3231 H3246 0.961 . S
C3231 H3247 0.960 . S
H3232 C3216 0.931 . S
H3233 C3221 0.929 . S
H3234 C3222 0.960 . S
H3235 C3222 0.962 . S
H3236 C3222 0.960 . S
H3237 C3223 0.961 . S
H3238 C3223 0.961 . S
H3239 C3223 0.961 . S
H3240 C3224 0.931 . S
H3241 C3229 0.930 . S
H3242 C3230 0.956 . S
H3243 C3230 0.961 . S
H3244 C3230 0.961 . S
H3245 C3231 0.958 . S
H3246 C3231 0.961 . S
H3247 C3231 0.960 . S
C3248 C3249 1.391 . S
C3248 C3250 1.394 . S
C3248 H3264 0.931 . S
C3249 C3248 1.391 . S
C3249 C3253 1.376 . S
C3250 C3248 1.394 . S
C3250 C3251 1.369 . S
C3250 C3254 1.531 . S
C3251 C3250 1.369 . S
C3251 C3252 1.410 . S
C3251 C3259 1.503 . S
C3252 C3251 1.410 . S
C3252 C3253 1.392 . S
C3252 C3255 1.511 . S
C3253 C3249 1.376 . S
C3253 C3252 1.392 . S
C3253 H3265 0.929 . S
C3254 C3250 1.531 . S
C3254 H3266 0.960 . S
C3254 H3267 0.962 . S
C3254 H3268 0.960 . S
C3255 C3252 1.511 . S
C3255 H3269 0.961 . S
C3255 H3270 0.961 . S
C3255 H3271 0.961 . S
C3256 C3257 1.370 . S
C3256 C3258 1.363 . S
C3256 H3272 0.931 . S
C3257 C3256 1.370 . S
C3257 C3261 1.408 . S
C3258 C3256 1.363 . S
C3258 C3259 1.370 . S
C3258 C3262 1.524 . S
C3259 C3251 1.503 . S
C3259 C3258 1.370 . S
C3259 C3260 1.403 . S
C3260 C3259 1.403 . S
C3260 C3261 1.404 . S
C3260 C3263 1.539 . S
C3261 C3257 1.408 . S
C3261 C3260 1.404 . S
C3261 H3273 0.930 . S
C3262 C3258 1.524 . S
C3262 H3274 0.956 . S
C3262 H3275 0.961 . S
C3262 H3276 0.961 . S
C3263 C3260 1.539 . S
C3263 H3277 0.958 . S
C3263 H3278 0.961 . S
C3263 H3279 0.960 . S
H3264 C3248 0.931 . S
H3265 C3253 0.929 . S
H3266 C3254 0.960 . S
H3267 C3254 0.962 . S
H3268 C3254 0.960 . S
H3269 C3255 0.961 . S
H3270 C3255 0.961 . S
H3271 C3255 0.961 . S
H3272 C3256 0.931 . S
H3273 C3261 0.930 . S
H3274 C3262 0.956 . S
H3275 C3262 0.961 . S
H3276 C3262 0.961 . S
H3277 C3263 0.958 . S
H3278 C3263 0.961 . S
H3279 C3263 0.960 . S
C3280 C3281 1.391 . S
C3280 C3282 1.394 . S
C3280 H3296 0.931 . S
C3281 C3280 1.391 . S
C3281 C3285 1.376 1_455 S
C3282 C3280 1.394 . S
C3282 C3283 1.369 . S
C3282 C3286 1.531 . S
C3283 C3282 1.369 . S
C3283 C3284 1.410 1_455 S
C3283 C3291 1.503 . S
C3284 C3283 1.410 1_655 S
C3284 C3285 1.392 . S
C3284 C3287 1.511 . S
C3285 C3281 1.376 1_655 S
C3285 C3284 1.392 . S
C3285 H3297 0.929 . S
C3286 C3282 1.531 . S
C3286 H3298 0.960 . S
C3286 H3299 0.962 . S
C3286 H3300 0.960 . S
C3287 C3284 1.511 . S
C3287 H3301 0.961 1_556 S
C3287 H3302 0.961 1_556 S
C3287 H3303 0.961 . S
C3288 C3289 1.370 . S
C3288 C3290 1.363 . S
C3288 H3304 0.931 . S
C3289 C3288 1.370 . S
C3289 C3293 1.408 1_554 S
C3290 C3288 1.363 . S
C3290 C3291 1.370 1_554 S
C3290 C3294 1.524 . S
C3291 C3283 1.503 . S
C3291 C3290 1.370 1_556 S
C3291 C3292 1.403 . S
C3292 C3291 1.403 . S
C3292 C3293 1.404 . S
C3292 C3295 1.539 1_455 S
C3293 C3289 1.408 1_556 S
C3293 C3292 1.404 . S
C3293 H3305 0.930 . S
C3294 C3290 1.524 . S
C3294 H3306 0.956 . S
C3294 H3307 0.961 . S
C3294 H3308 0.961 . S
C3295 C3292 1.539 1_655 S
C3295 H3309 0.958 1_655 S
C3295 H3310 0.961 . S
C3295 H3311 0.960 . S
H3296 C3280 0.931 . S
H3297 C3285 0.929 . S
H3298 C3286 0.960 . S
H3299 C3286 0.962 . S
H3300 C3286 0.960 . S
H3301 C3287 0.961 1_554 S
H3302 C3287 0.961 1_554 S
H3303 C3287 0.961 . S
H3304 C3288 0.931 . S
H3305 C3293 0.930 . S
H3306 C3294 0.956 . S
H3307 C3294 0.961 . S
H3308 C3294 0.961 . S
H3309 C3295 0.958 1_455 S
H3310 C3295 0.961 . S
H3311 C3295 0.960 . S
C3312 C3313 1.391 1_655 S
C3312 C3314 1.394 . S
C3312 H3328 0.931 . S
C3313 C3312 1.391 1_455 S
C3313 C3317 1.376 . S
C3314 C3312 1.394 . S
C3314 C3315 1.369 . S
C3314 C3318 1.531 . S
C3315 C3314 1.369 . S
C3315 C3316 1.410 . S
C3315 C3323 1.503 . S
C3316 C3315 1.410 . S
C3316 C3317 1.392 1_655 S
C3316 C3319 1.511 . S
C3317 C3313 1.376 . S
C3317 C3316 1.392 1_455 S
C3317 H3329 0.929 . S
C3318 C3314 1.531 . S
C3318 H3330 0.960 . S
C3318 H3331 0.962 . S
C3318 H3332 0.960 . S
C3319 C3316 1.511 . S
C3319 H3333 0.961 1_655 S
C3319 H3334 0.961 . S
C3319 H3335 0.961 . S
C3320 C3321 1.370 . S
C3320 C3322 1.363 . S
C3320 H3336 0.931 . S
C3321 C3320 1.370 . S
C3321 C3325 1.408 . S
C3322 C3320 1.363 . S
C3322 C3323 1.370 . S
C3322 C3326 1.524 . S
C3323 C3315 1.503 . S
C3323 C3322 1.370 . S
C3323 C3324 1.403 . S
C3324 C3323 1.403 . S
C3324 C3325 1.404 . S
C3324 C3327 1.539 . S
C3325 C3321 1.408 . S
C3325 C3324 1.404 . S
C3325 H3337 0.930 . S
C3326 C3322 1.524 . S
C3326 H3338 0.956 . S
C3326 H3339 0.961 . S
C3326 H3340 0.961 . S
C3327 C3324 1.539 . S
C3327 H3341 0.958 . S
C3327 H3342 0.961 . S
C3327 H3343 0.960 . S
H3328 C3312 0.931 . S
H3329 C3317 0.929 . S
H3330 C3318 0.960 . S
H3331 C3318 0.962 . S
H3332 C3318 0.960 . S
H3333 C3319 0.961 1_455 S
H3334 C3319 0.961 . S
H3335 C3319 0.961 . S
H3336 C3320 0.931 . S
H3337 C3325 0.930 . S
H3338 C3326 0.956 . S
H3339 C3326 0.961 . S
H3340 C3326 0.961 . S
H3341 C3327 0.958 . S
H3342 C3327 0.961 . S
H3343 C3327 0.960 . S
C3344 C3345 1.391 . S
C3344 C3346 1.394 . S
C3344 H3360 0.931 . S
C3345 C3344 1.391 . S
C3345 C3349 1.376 . S
C3346 C3344 1.394 . S
C3346 C3347 1.369 . S
C3346 C3350 1.531 . S
C3347 C3346 1.369 . S
C3347 C3348 1.410 . S
C3347 C3355 1.503 . S
C3348 C3347 1.410 . S
C3348 C3349 1.392 . S
C3348 C3351 1.511 . S
C3349 C3345 1.376 . S
C3349 C3348 1.392 . S
C3349 H3361 0.929 . S
C3350 C3346 1.531 . S
C3350 H3362 0.960 . S
C3350 H3363 0.962 . S
C3350 H3364 0.960 . S
C3351 C3348 1.511 . S
C3351 H3365 0.961 . S
C3351 H3366 0.961 . S
C3351 H3367 0.961 . S
C3352 C3353 1.370 . S
C3352 C3354 1.363 . S
C3352 H3368 0.931 . S
C3353 C3352 1.370 . S
C3353 C3357 1.408 . S
C3354 C3352 1.363 . S
C3354 C3355 1.370 . S
C3354 C3358 1.524 . S
C3355 C3347 1.503 . S
C3355 C3354 1.370 . S
C3355 C3356 1.403 . S
C3356 C3355 1.403 . S
C3356 C3357 1.404 . S
C3356 C3359 1.539 . S
C3357 C3353 1.408 . S
C3357 C3356 1.404 . S
C3357 H3369 0.930 . S
C3358 C3354 1.524 . S
C3358 H3370 0.956 . S
C3358 H3371 0.961 . S
C3358 H3372 0.961 . S
C3359 C3356 1.539 . S
C3359 H3373 0.958 . S
C3359 H3374 0.961 . S
C3359 H3375 0.960 . S
H3360 C3344 0.931 . S
H3361 C3349 0.929 . S
H3362 C3350 0.960 . S
H3363 C3350 0.962 . S
H3364 C3350 0.960 . S
H3365 C3351 0.961 . S
H3366 C3351 0.961 . S
H3367 C3351 0.961 . S
H3368 C3352 0.931 . S
H3369 C3357 0.930 . S
H3370 C3358 0.956 . S
H3371 C3358 0.961 . S
H3372 C3358 0.961 . S
H3373 C3359 0.958 . S
H3374 C3359 0.961 . S
H3375 C3359 0.960 . S
C3376 C3377 1.391 . S
C3376 C3378 1.394 . S
C3376 H3392 0.931 . S
C3377 C3376 1.391 . S
C3377 C3381 1.376 . S
C3378 C3376 1.394 . S
C3378 C3379 1.369 . S
C3378 C3382 1.531 . S
C3379 C3378 1.369 . S
C3379 C3380 1.410 . S
C3379 C3387 1.503 . S
C3380 C3379 1.410 . S
C3380 C3381 1.392 . S
C3380 C3383 1.511 . S
C3381 C3377 1.376 . S
C3381 C3380 1.392 . S
C3381 H3393 0.929 . S
C3382 C3378 1.531 . S
C3382 H3394 0.960 . S
C3382 H3395 0.962 . S
C3382 H3396 0.960 . S
C3383 C3380 1.511 . S
C3383 H3397 0.961 . S
C3383 H3398 0.961 . S
C3383 H3399 0.961 . S
C3384 C3385 1.370 . S
C3384 C3386 1.363 . S
C3384 H3400 0.931 . S
C3385 C3384 1.370 . S
C3385 C3389 1.408 . S
C3386 C3384 1.363 . S
C3386 C3387 1.370 . S
C3386 C3390 1.524 . S
C3387 C3379 1.503 . S
C3387 C3386 1.370 . S
C3387 C3388 1.403 . S
C3388 C3387 1.403 . S
C3388 C3389 1.404 . S
C3388 C3391 1.539 . S
C3389 C3385 1.408 . S
C3389 C3388 1.404 . S
C3389 H3401 0.930 . S
C3390 C3386 1.524 . S
C3390 H3402 0.956 . S
C3390 H3403 0.961 . S
C3390 H3404 0.961 . S
C3391 C3388 1.539 . S
C3391 H3405 0.958 . S
C3391 H3406 0.961 . S
C3391 H3407 0.960 . S
H3392 C3376 0.931 . S
H3393 C3381 0.929 . S
H3394 C3382 0.960 . S
H3395 C3382 0.962 . S
H3396 C3382 0.960 . S
H3397 C3383 0.961 . S
H3398 C3383 0.961 . S
H3399 C3383 0.961 . S
H3400 C3384 0.931 . S
H3401 C3389 0.930 . S
H3402 C3390 0.956 . S
H3403 C3390 0.961 . S
H3404 C3390 0.961 . S
H3405 C3391 0.958 . S
H3406 C3391 0.961 . S
H3407 C3391 0.960 . S
C3408 C3409 1.391 1_655 S
C3408 C3410 1.394 . S
C3408 H3424 0.931 . S
C3409 C3408 1.391 1_455 S
C3409 C3413 1.376 . S
C3410 C3408 1.394 . S
C3410 C3411 1.369 1_655 S
C3410 C3414 1.531 . S
C3411 C3410 1.369 1_455 S
C3411 C3412 1.410 . S
C3411 C3419 1.503 . S
C3412 C3411 1.410 . S
C3412 C3413 1.392 . S
C3412 C3415 1.511 . S
C3413 C3409 1.376 . S
C3413 C3412 1.392 . S
C3413 H3425 0.929 . S
C3414 C3410 1.531 . S
C3414 H3426 0.960 . S
C3414 H3427 0.962 . S
C3414 H3428 0.960 . S
C3415 C3412 1.511 . S
C3415 H3429 0.961 . S
C3415 H3430 0.961 . S
C3415 H3431 0.961 . S
C3416 C3417 1.370 . S
C3416 C3418 1.363 . S
C3416 H3432 0.931 . S
C3417 C3416 1.370 . S
C3417 C3421 1.408 . S
C3418 C3416 1.363 . S
C3418 C3419 1.370 . S
C3418 C3422 1.524 . S
C3419 C3411 1.503 . S
C3419 C3418 1.370 . S
C3419 C3420 1.403 . S
C3420 C3419 1.403 . S
C3420 C3421 1.404 . S
C3420 C3423 1.539 . S
C3421 C3417 1.408 . S
C3421 C3420 1.404 . S
C3421 H3433 0.930 . S
C3422 C3418 1.524 . S
C3422 H3434 0.956 . S
C3422 H3435 0.961 . S
C3422 H3436 0.961 . S
C3423 C3420 1.539 . S
C3423 H3437 0.958 1_455 S
C3423 H3438 0.961 . S
C3423 H3439 0.960 . S
H3424 C3408 0.931 . S
H3425 C3413 0.929 . S
H3426 C3414 0.960 . S
H3427 C3414 0.962 . S
H3428 C3414 0.960 . S
H3429 C3415 0.961 . S
H3430 C3415 0.961 . S
H3431 C3415 0.961 . S
H3432 C3416 0.931 . S
H3433 C3421 0.930 . S
H3434 C3422 0.956 . S
H3435 C3422 0.961 . S
H3436 C3422 0.961 . S
H3437 C3423 0.958 1_655 S
H3438 C3423 0.961 . S
H3439 C3423 0.960 . S
C3440 C3441 1.391 . S
C3440 C3442 1.394 . S
C3440 H3456 0.931 . S
C3441 C3440 1.391 . S
C3441 C3445 1.376 . S
C3442 C3440 1.394 . S
C3442 C3443 1.369 . S
C3442 C3446 1.531 . S
C3443 C3442 1.369 . S
C3443 C3444 1.410 . S
C3443 C3451 1.503 . S
C3444 C3443 1.410 . S
C3444 C3445 1.392 . S
C3444 C3447 1.511 . S
C3445 C3441 1.376 . S
C3445 C3444 1.392 . S
C3445 H3457 0.929 . S
C3446 C3442 1.531 . S
C3446 H3458 0.960 . S
C3446 H3459 0.962 . S
C3446 H3460 0.960 . S
C3447 C3444 1.511 . S
C3447 H3461 0.961 . S
C3447 H3462 0.961 . S
C3447 H3463 0.961 . S
C3448 C3449 1.370 . S
C3448 C3450 1.363 . S
C3448 H3464 0.931 . S
C3449 C3448 1.370 . S
C3449 C3453 1.408 . S
C3450 C3448 1.363 . S
C3450 C3451 1.370 . S
C3450 C3454 1.524 . S
C3451 C3443 1.503 . S
C3451 C3450 1.370 . S
C3451 C3452 1.403 . S
C3452 C3451 1.403 . S
C3452 C3453 1.404 . S
C3452 C3455 1.539 . S
C3453 C3449 1.408 . S
C3453 C3452 1.404 . S
C3453 H3465 0.930 . S
C3454 C3450 1.524 . S
C3454 H3466 0.956 . S
C3454 H3467 0.961 . S
C3454 H3468 0.961 . S
C3455 C3452 1.539 . S
C3455 H3469 0.958 . S
C3455 H3470 0.961 . S
C3455 H3471 0.960 . S
H3456 C3440 0.931 . S
H3457 C3445 0.929 . S
H3458 C3446 0.960 . S
H3459 C3446 0.962 . S
H3460 C3446 0.960 . S
H3461 C3447 0.961 . S
H3462 C3447 0.961 . S
H3463 C3447 0.961 . S
H3464 C3448 0.931 . S
H3465 C3453 0.930 . S
H3466 C3454 0.956 . S
H3467 C3454 0.961 . S
H3468 C3454 0.961 . S
H3469 C3455 0.958 . S
H3470 C3455 0.961 . S
H3471 C3455 0.960 . S
C3472 C3473 1.391 . S
C3472 C3474 1.394 . S
C3472 H3488 0.931 . S
C3473 C3472 1.391 . S
C3473 C3477 1.376 . S
C3474 C3472 1.394 . S
C3474 C3475 1.369 . S
C3474 C3478 1.531 . S
C3475 C3474 1.369 . S
C3475 C3476 1.410 . S
C3475 C3483 1.503 . S
C3476 C3475 1.410 . S
C3476 C3477 1.392 . S
C3476 C3479 1.511 . S
C3477 C3473 1.376 . S
C3477 C3476 1.392 . S
C3477 H3489 0.929 . S
C3478 C3474 1.531 . S
C3478 H3490 0.960 . S
C3478 H3491 0.962 . S
C3478 H3492 0.960 . S
C3479 C3476 1.511 . S
C3479 H3493 0.961 . S
C3479 H3494 0.961 . S
C3479 H3495 0.961 . S
C3480 C3481 1.370 . S
C3480 C3482 1.363 . S
C3480 H3496 0.931 . S
C3481 C3480 1.370 . S
C3481 C3485 1.408 . S
C3482 C3480 1.363 . S
C3482 C3483 1.370 . S
C3482 C3486 1.524 . S
C3483 C3475 1.503 . S
C3483 C3482 1.370 . S
C3483 C3484 1.403 . S
C3484 C3483 1.403 . S
C3484 C3485 1.404 . S
C3484 C3487 1.539 . S
C3485 C3481 1.408 . S
C3485 C3484 1.404 . S
C3485 H3497 0.930 . S
C3486 C3482 1.524 . S
C3486 H3498 0.956 . S
C3486 H3499 0.961 . S
C3486 H3500 0.961 . S
C3487 C3484 1.539 . S
C3487 H3501 0.958 . S
C3487 H3502 0.961 . S
C3487 H3503 0.960 . S
H3488 C3472 0.931 . S
H3489 C3477 0.929 . S
H3490 C3478 0.960 . S
H3491 C3478 0.962 . S
H3492 C3478 0.960 . S
H3493 C3479 0.961 . S
H3494 C3479 0.961 . S
H3495 C3479 0.961 . S
H3496 C3480 0.931 . S
H3497 C3485 0.930 . S
H3498 C3486 0.956 . S
H3499 C3486 0.961 . S
H3500 C3486 0.961 . S
H3501 C3487 0.958 . S
H3502 C3487 0.961 . S
H3503 C3487 0.960 . S
C3504 C3505 1.391 1_556 S
C3504 C3506 1.394 . S
C3504 H3520 0.931 . S
C3505 C3504 1.391 1_554 S
C3505 C3509 1.376 . S
C3506 C3504 1.394 . S
C3506 C3507 1.369 . S
C3506 C3510 1.531 . S
C3507 C3506 1.369 . S
C3507 C3508 1.410 . S
C3507 C3515 1.503 . S
C3508 C3507 1.410 . S
C3508 C3509 1.392 1_556 S
C3508 C3511 1.511 . S
C3509 C3505 1.376 . S
C3509 C3508 1.392 1_554 S
C3509 H3521 0.929 . S
C3510 C3506 1.531 . S
C3510 H3522 0.960 . S
C3510 H3523 0.962 . S
C3510 H3524 0.960 . S
C3511 C3508 1.511 . S
C3511 H3525 0.961 . S
C3511 H3526 0.961 . S
C3511 H3527 0.961 . S
C3512 C3513 1.370 . S
C3512 C3514 1.363 . S
C3512 H3528 0.931 . S
C3513 C3512 1.370 . S
C3513 C3517 1.408 . S
C3514 C3512 1.363 . S
C3514 C3515 1.370 . S
C3514 C3518 1.524 . S
C3515 C3507 1.503 . S
C3515 C3514 1.370 . S
C3515 C3516 1.403 . S
C3516 C3515 1.403 . S
C3516 C3517 1.404 . S
C3516 C3519 1.539 . S
C3517 C3513 1.408 . S
C3517 C3516 1.404 . S
C3517 H3529 0.930 . S
C3518 C3514 1.524 . S
C3518 H3530 0.956 . S
C3518 H3531 0.961 . S
C3518 H3532 0.961 . S
C3519 C3516 1.539 . S
C3519 H3533 0.958 . S
C3519 H3534 0.961 . S
C3519 H3535 0.960 . S
H3520 C3504 0.931 . S
H3521 C3509 0.929 . S
H3522 C3510 0.960 . S
H3523 C3510 0.962 . S
H3524 C3510 0.960 . S
H3525 C3511 0.961 . S
H3526 C3511 0.961 . S
H3527 C3511 0.961 . S
H3528 C3512 0.931 . S
H3529 C3517 0.930 . S
H3530 C3518 0.956 . S
H3531 C3518 0.961 . S
H3532 C3518 0.961 . S
H3533 C3519 0.958 . S
H3534 C3519 0.961 . S
H3535 C3519 0.960 . S
C3536 C3537 1.391 . S
C3536 C3538 1.394 . S
C3536 H3552 0.931 . S
C3537 C3536 1.391 . S
C3537 C3541 1.376 . S
C3538 C3536 1.394 . S
C3538 C3539 1.369 . S
C3538 C3542 1.531 . S
C3539 C3538 1.369 . S
C3539 C3540 1.410 . S
C3539 C3547 1.503 . S
C3540 C3539 1.410 . S
C3540 C3541 1.392 . S
C3540 C3543 1.511 . S
C3541 C3537 1.376 . S
C3541 C3540 1.392 . S
C3541 H3553 0.929 . S
C3542 C3538 1.531 . S
C3542 H3554 0.960 . S
C3542 H3555 0.962 . S
C3542 H3556 0.960 . S
C3543 C3540 1.511 . S
C3543 H3557 0.961 . S
C3543 H3558 0.961 . S
C3543 H3559 0.961 . S
C3544 C3545 1.370 . S
C3544 C3546 1.363 . S
C3544 H3560 0.931 . S
C3545 C3544 1.370 . S
C3545 C3549 1.408 . S
C3546 C3544 1.363 . S
C3546 C3547 1.370 . S
C3546 C3550 1.524 . S
C3547 C3539 1.503 . S
C3547 C3546 1.370 . S
C3547 C3548 1.403 . S
C3548 C3547 1.403 . S
C3548 C3549 1.404 . S
C3548 C3551 1.539 . S
C3549 C3545 1.408 . S
C3549 C3548 1.404 . S
C3549 H3561 0.930 . S
C3550 C3546 1.524 . S
C3550 H3562 0.956 . S
C3550 H3563 0.961 . S
C3550 H3564 0.961 . S
C3551 C3548 1.539 . S
C3551 H3565 0.958 . S
C3551 H3566 0.961 . S
C3551 H3567 0.960 . S
H3552 C3536 0.931 . S
H3553 C3541 0.929 . S
H3554 C3542 0.960 . S
H3555 C3542 0.962 . S
H3556 C3542 0.960 . S
H3557 C3543 0.961 . S
H3558 C3543 0.961 . S
H3559 C3543 0.961 . S
H3560 C3544 0.931 . S
H3561 C3549 0.930 . S
H3562 C3550 0.956 . S
H3563 C3550 0.961 . S
H3564 C3550 0.961 . S
H3565 C3551 0.958 . S
H3566 C3551 0.961 . S
H3567 C3551 0.960 . S
C3568 C3569 1.391 . S
C3568 C3570 1.394 . S
C3568 H3584 0.931 . S
C3569 C3568 1.391 . S
C3569 C3573 1.376 . S
C3570 C3568 1.394 . S
C3570 C3571 1.369 . S
C3570 C3574 1.531 . S
C3571 C3570 1.369 . S
C3571 C3572 1.410 . S
C3571 C3579 1.503 . S
C3572 C3571 1.410 . S
C3572 C3573 1.392 . S
C3572 C3575 1.511 . S
C3573 C3569 1.376 . S
C3573 C3572 1.392 . S
C3573 H3585 0.929 . S
C3574 C3570 1.531 . S
C3574 H3586 0.960 . S
C3574 H3587 0.962 . S
C3574 H3588 0.960 . S
C3575 C3572 1.511 . S
C3575 H3589 0.961 . S
C3575 H3590 0.961 . S
C3575 H3591 0.961 . S
C3576 C3577 1.370 . S
C3576 C3578 1.363 . S
C3576 H3592 0.931 . S
C3577 C3576 1.370 . S
C3577 C3581 1.408 . S
C3578 C3576 1.363 . S
C3578 C3579 1.370 . S
C3578 C3582 1.524 . S
C3579 C3571 1.503 . S
C3579 C3578 1.370 . S
C3579 C3580 1.403 . S
C3580 C3579 1.403 . S
C3580 C3581 1.404 . S
C3580 C3583 1.539 . S
C3581 C3577 1.408 . S
C3581 C3580 1.404 . S
C3581 H3593 0.930 . S
C3582 C3578 1.524 . S
C3582 H3594 0.956 . S
C3582 H3595 0.961 . S
C3582 H3596 0.961 . S
C3583 C3580 1.539 . S
C3583 H3597 0.958 . S
C3583 H3598 0.961 . S
C3583 H3599 0.960 . S
H3584 C3568 0.931 . S
H3585 C3573 0.929 . S
H3586 C3574 0.960 . S
H3587 C3574 0.962 . S
H3588 C3574 0.960 . S
H3589 C3575 0.961 . S
H3590 C3575 0.961 . S
H3591 C3575 0.961 . S
H3592 C3576 0.931 . S
H3593 C3581 0.930 . S
H3594 C3582 0.956 . S
H3595 C3582 0.961 . S
H3596 C3582 0.961 . S
H3597 C3583 0.958 . S
H3598 C3583 0.961 . S
H3599 C3583 0.960 . S
C3600 C3601 1.391 . S
C3600 C3602 1.394 . S
C3600 H3616 0.931 . S
C3601 C3600 1.391 . S
C3601 C3605 1.376 . S
C3602 C3600 1.394 . S
C3602 C3603 1.369 . S
C3602 C3606 1.531 . S
C3603 C3602 1.369 . S
C3603 C3604 1.410 . S
C3603 C3611 1.503 . S
C3604 C3603 1.410 . S
C3604 C3605 1.392 . S
C3604 C3607 1.511 . S
C3605 C3601 1.376 . S
C3605 C3604 1.392 . S
C3605 H3617 0.929 . S
C3606 C3602 1.531 . S
C3606 H3618 0.960 . S
C3606 H3619 0.962 . S
C3606 H3620 0.960 . S
C3607 C3604 1.511 . S
C3607 H3621 0.961 . S
C3607 H3622 0.961 . S
C3607 H3623 0.961 . S
C3608 C3609 1.370 . S
C3608 C3610 1.363 . S
C3608 H3624 0.931 . S
C3609 C3608 1.370 . S
C3609 C3613 1.408 . S
C3610 C3608 1.363 . S
C3610 C3611 1.370 . S
C3610 C3614 1.524 . S
C3611 C3603 1.503 . S
C3611 C3610 1.370 . S
C3611 C3612 1.403 . S
C3612 C3611 1.403 . S
C3612 C3613 1.404 . S
C3612 C3615 1.539 . S
C3613 C3609 1.408 . S
C3613 C3612 1.404 . S
C3613 H3625 0.930 . S
C3614 C3610 1.524 . S
C3614 H3626 0.956 . S
C3614 H3627 0.961 . S
C3614 H3628 0.961 . S
C3615 C3612 1.539 . S
C3615 H3629 0.958 . S
C3615 H3630 0.961 . S
C3615 H3631 0.960 . S
H3616 C3600 0.931 . S
H3617 C3605 0.929 . S
H3618 C3606 0.960 . S
H3619 C3606 0.962 . S
H3620 C3606 0.960 . S
H3621 C3607 0.961 . S
H3622 C3607 0.961 . S
H3623 C3607 0.961 . S
H3624 C3608 0.931 . S
H3625 C3613 0.930 . S
H3626 C3614 0.956 . S
H3627 C3614 0.961 . S
H3628 C3614 0.961 . S
H3629 C3615 0.958 . S
H3630 C3615 0.961 . S
H3631 C3615 0.960 . S
C3632 C3633 1.391 . S
C3632 C3634 1.394 . S
C3632 H3648 0.931 . S
C3633 C3632 1.391 . S
C3633 C3637 1.376 . S
C3634 C3632 1.394 . S
C3634 C3635 1.369 . S
C3634 C3638 1.531 . S
C3635 C3634 1.369 . S
C3635 C3636 1.410 . S
C3635 C3643 1.503 . S
C3636 C3635 1.410 . S
C3636 C3637 1.392 . S
C3636 C3639 1.511 . S
C3637 C3633 1.376 . S
C3637 C3636 1.392 . S
C3637 H3649 0.929 . S
C3638 C3634 1.531 . S
C3638 H3650 0.960 . S
C3638 H3651 0.962 . S
C3638 H3652 0.960 . S
C3639 C3636 1.511 . S
C3639 H3653 0.961 . S
C3639 H3654 0.961 . S
C3639 H3655 0.961 . S
C3640 C3641 1.370 . S
C3640 C3642 1.363 . S
C3640 H3656 0.931 . S
C3641 C3640 1.370 . S
C3641 C3645 1.408 . S
C3642 C3640 1.363 . S
C3642 C3643 1.370 . S
C3642 C3646 1.524 . S
C3643 C3635 1.503 . S
C3643 C3642 1.370 . S
C3643 C3644 1.403 . S
C3644 C3643 1.403 . S
C3644 C3645 1.404 . S
C3644 C3647 1.539 . S
C3645 C3641 1.408 . S
C3645 C3644 1.404 . S
C3645 H3657 0.930 . S
C3646 C3642 1.524 . S
C3646 H3658 0.956 . S
C3646 H3659 0.961 . S
C3646 H3660 0.961 . S
C3647 C3644 1.539 . S
C3647 H3661 0.958 . S
C3647 H3662 0.961 . S
C3647 H3663 0.960 . S
H3648 C3632 0.931 . S
H3649 C3637 0.929 . S
H3650 C3638 0.960 . S
H3651 C3638 0.962 . S
H3652 C3638 0.960 . S
H3653 C3639 0.961 . S
H3654 C3639 0.961 . S
H3655 C3639 0.961 . S
H3656 C3640 0.931 . S
H3657 C3645 0.930 . S
H3658 C3646 0.956 . S
H3659 C3646 0.961 . S
H3660 C3646 0.961 . S
H3661 C3647 0.958 . S
H3662 C3647 0.961 . S
H3663 C3647 0.960 . S
C3664 C3665 1.391 . S
C3664 C3666 1.394 . S
C3664 H3680 0.931 . S
C3665 C3664 1.391 . S
C3665 C3669 1.376 . S
C3666 C3664 1.394 . S
C3666 C3667 1.369 . S
C3666 C3670 1.531 . S
C3667 C3666 1.369 . S
C3667 C3668 1.410 . S
C3667 C3675 1.503 . S
C3668 C3667 1.410 . S
C3668 C3669 1.392 . S
C3668 C3671 1.511 . S
C3669 C3665 1.376 . S
C3669 C3668 1.392 . S
C3669 H3681 0.929 . S
C3670 C3666 1.531 . S
C3670 H3682 0.960 . S
C3670 H3683 0.962 . S
C3670 H3684 0.960 . S
C3671 C3668 1.511 . S
C3671 H3685 0.961 . S
C3671 H3686 0.961 . S
C3671 H3687 0.961 . S
C3672 C3673 1.370 . S
C3672 C3674 1.363 . S
C3672 H3688 0.931 . S
C3673 C3672 1.370 . S
C3673 C3677 1.408 . S
C3674 C3672 1.363 . S
C3674 C3675 1.370 . S
C3674 C3678 1.524 . S
C3675 C3667 1.503 . S
C3675 C3674 1.370 . S
C3675 C3676 1.403 . S
C3676 C3675 1.403 . S
C3676 C3677 1.404 . S
C3676 C3679 1.539 . S
C3677 C3673 1.408 . S
C3677 C3676 1.404 . S
C3677 H3689 0.930 . S
C3678 C3674 1.524 . S
C3678 H3690 0.956 . S
C3678 H3691 0.961 . S
C3678 H3692 0.961 . S
C3679 C3676 1.539 . S
C3679 H3693 0.958 . S
C3679 H3694 0.961 . S
C3679 H3695 0.960 . S
H3680 C3664 0.931 . S
H3681 C3669 0.929 . S
H3682 C3670 0.960 . S
H3683 C3670 0.962 . S
H3684 C3670 0.960 . S
H3685 C3671 0.961 . S
H3686 C3671 0.961 . S
H3687 C3671 0.961 . S
H3688 C3672 0.931 . S
H3689 C3677 0.930 . S
H3690 C3678 0.956 . S
H3691 C3678 0.961 . S
H3692 C3678 0.961 . S
H3693 C3679 0.958 . S
H3694 C3679 0.961 . S
H3695 C3679 0.960 . S
C3696 C3697 1.391 . S
C3696 C3698 1.394 . S
C3696 H3712 0.931 . S
C3697 C3696 1.391 . S
C3697 C3701 1.376 . S
C3698 C3696 1.394 . S
C3698 C3699 1.369 . S
C3698 C3702 1.531 . S
C3699 C3698 1.369 . S
C3699 C3700 1.410 . S
C3699 C3707 1.503 . S
C3700 C3699 1.410 . S
C3700 C3701 1.392 . S
C3700 C3703 1.511 . S
C3701 C3697 1.376 . S
C3701 C3700 1.392 . S
C3701 H3713 0.929 . S
C3702 C3698 1.531 . S
C3702 H3714 0.960 . S
C3702 H3715 0.962 . S
C3702 H3716 0.960 . S
C3703 C3700 1.511 . S
C3703 H3717 0.961 . S
C3703 H3718 0.961 . S
C3703 H3719 0.961 . S
C3704 C3705 1.370 . S
C3704 C3706 1.363 . S
C3704 H3720 0.931 . S
C3705 C3704 1.370 . S
C3705 C3709 1.408 . S
C3706 C3704 1.363 . S
C3706 C3707 1.370 . S
C3706 C3710 1.524 . S
C3707 C3699 1.503 . S
C3707 C3706 1.370 . S
C3707 C3708 1.403 . S
C3708 C3707 1.403 . S
C3708 C3709 1.404 . S
C3708 C3711 1.539 . S
C3709 C3705 1.408 . S
C3709 C3708 1.404 . S
C3709 H3721 0.930 . S
C3710 C3706 1.524 . S
C3710 H3722 0.956 . S
C3710 H3723 0.961 . S
C3710 H3724 0.961 . S
C3711 C3708 1.539 . S
C3711 H3725 0.958 . S
C3711 H3726 0.961 . S
C3711 H3727 0.960 . S
H3712 C3696 0.931 . S
H3713 C3701 0.929 . S
H3714 C3702 0.960 . S
H3715 C3702 0.962 . S
H3716 C3702 0.960 . S
H3717 C3703 0.961 . S
H3718 C3703 0.961 . S
H3719 C3703 0.961 . S
H3720 C3704 0.931 . S
H3721 C3709 0.930 . S
H3722 C3710 0.956 . S
H3723 C3710 0.961 . S
H3724 C3710 0.961 . S
H3725 C3711 0.958 . S
H3726 C3711 0.961 . S
H3727 C3711 0.960 . S
C3728 C3729 1.391 . S
C3728 C3730 1.394 . S
C3728 H3744 0.931 . S
C3729 C3728 1.391 . S
C3729 C3733 1.376 . S
C3730 C3728 1.394 . S
C3730 C3731 1.369 . S
C3730 C3734 1.531 . S
C3731 C3730 1.369 . S
C3731 C3732 1.410 . S
C3731 C3739 1.503 . S
C3732 C3731 1.410 . S
C3732 C3733 1.392 . S
C3732 C3735 1.511 . S
C3733 C3729 1.376 . S
C3733 C3732 1.392 . S
C3733 H3745 0.929 . S
C3734 C3730 1.531 . S
C3734 H3746 0.960 . S
C3734 H3747 0.962 . S
C3734 H3748 0.960 . S
C3735 C3732 1.511 . S
C3735 H3749 0.961 . S
C3735 H3750 0.961 . S
C3735 H3751 0.961 . S
C3736 C3737 1.370 . S
C3736 C3738 1.363 . S
C3736 H3752 0.931 . S
C3737 C3736 1.370 . S
C3737 C3741 1.408 . S
C3738 C3736 1.363 . S
C3738 C3739 1.370 . S
C3738 C3742 1.524 . S
C3739 C3731 1.503 . S
C3739 C3738 1.370 . S
C3739 C3740 1.403 . S
C3740 C3739 1.403 . S
C3740 C3741 1.404 . S
C3740 C3743 1.539 . S
C3741 C3737 1.408 . S
C3741 C3740 1.404 . S
C3741 H3753 0.930 . S
C3742 C3738 1.524 . S
C3742 H3754 0.956 . S
C3742 H3755 0.961 . S
C3742 H3756 0.961 . S
C3743 C3740 1.539 . S
C3743 H3757 0.958 . S
C3743 H3758 0.961 . S
C3743 H3759 0.960 . S
H3744 C3728 0.931 . S
H3745 C3733 0.929 . S
H3746 C3734 0.960 . S
H3747 C3734 0.962 . S
H3748 C3734 0.960 . S
H3749 C3735 0.961 . S
H3750 C3735 0.961 . S
H3751 C3735 0.961 . S
H3752 C3736 0.931 . S
H3753 C3741 0.930 . S
H3754 C3742 0.956 . S
H3755 C3742 0.961 . S
H3756 C3742 0.961 . S
H3757 C3743 0.958 . S
H3758 C3743 0.961 . S
H3759 C3743 0.960 . S
C3760 C3761 1.391 . S
C3760 C3762 1.394 . S
C3760 H3776 0.931 . S
C3761 C3760 1.391 . S
C3761 C3765 1.376 . S
C3762 C3760 1.394 . S
C3762 C3763 1.369 . S
C3762 C3766 1.531 . S
C3763 C3762 1.369 . S
C3763 C3764 1.410 . S
C3763 C3771 1.503 . S
C3764 C3763 1.410 . S
C3764 C3765 1.392 . S
C3764 C3767 1.511 . S
C3765 C3761 1.376 . S
C3765 C3764 1.392 . S
C3765 H3777 0.929 . S
C3766 C3762 1.531 . S
C3766 H3778 0.960 . S
C3766 H3779 0.962 . S
C3766 H3780 0.960 . S
C3767 C3764 1.511 . S
C3767 H3781 0.961 . S
C3767 H3782 0.961 . S
C3767 H3783 0.961 . S
C3768 C3769 1.370 . S
C3768 C3770 1.363 . S
C3768 H3784 0.931 . S
C3769 C3768 1.370 . S
C3769 C3773 1.408 . S
C3770 C3768 1.363 . S
C3770 C3771 1.370 . S
C3770 C3774 1.524 . S
C3771 C3763 1.503 . S
C3771 C3770 1.370 . S
C3771 C3772 1.403 . S
C3772 C3771 1.403 . S
C3772 C3773 1.404 . S
C3772 C3775 1.539 . S
C3773 C3769 1.408 . S
C3773 C3772 1.404 . S
C3773 H3785 0.930 . S
C3774 C3770 1.524 . S
C3774 H3786 0.956 . S
C3774 H3787 0.961 . S
C3774 H3788 0.961 . S
C3775 C3772 1.539 . S
C3775 H3789 0.958 . S
C3775 H3790 0.961 . S
C3775 H3791 0.960 . S
H3776 C3760 0.931 . S
H3777 C3765 0.929 . S
H3778 C3766 0.960 . S
H3779 C3766 0.962 . S
H3780 C3766 0.960 . S
H3781 C3767 0.961 . S
H3782 C3767 0.961 . S
H3783 C3767 0.961 . S
H3784 C3768 0.931 . S
H3785 C3773 0.930 . S
H3786 C3774 0.956 . S
H3787 C3774 0.961 . S
H3788 C3774 0.961 . S
H3789 C3775 0.958 . S
H3790 C3775 0.961 . S
H3791 C3775 0.960 . S
C3792 C3793 1.391 . S
C3792 C3794 1.394 . S
C3792 H3808 0.931 . S
C3793 C3792 1.391 . S
C3793 C3797 1.376 . S
C3794 C3792 1.394 . S
C3794 C3795 1.369 . S
C3794 C3798 1.531 . S
C3795 C3794 1.369 . S
C3795 C3796 1.410 . S
C3795 C3803 1.503 . S
C3796 C3795 1.410 . S
C3796 C3797 1.392 . S
C3796 C3799 1.511 . S
C3797 C3793 1.376 . S
C3797 C3796 1.392 . S
C3797 H3809 0.929 1_565 S
C3798 C3794 1.531 . S
C3798 H3810 0.960 . S
C3798 H3811 0.962 . S
C3798 H3812 0.960 . S
C3799 C3796 1.511 . S
C3799 H3813 0.961 . S
C3799 H3814 0.961 . S
C3799 H3815 0.961 . S
C3800 C3801 1.370 . S
C3800 C3802 1.363 . S
C3800 H3816 0.931 . S
C3801 C3800 1.370 . S
C3801 C3805 1.408 . S
C3802 C3800 1.363 . S
C3802 C3803 1.370 . S
C3802 C3806 1.524 . S
C3803 C3795 1.503 . S
C3803 C3802 1.370 . S
C3803 C3804 1.403 . S
C3804 C3803 1.403 . S
C3804 C3805 1.404 . S
C3804 C3807 1.539 . S
C3805 C3801 1.408 . S
C3805 C3804 1.404 . S
C3805 H3817 0.930 . S
C3806 C3802 1.524 . S
C3806 H3818 0.956 . S
C3806 H3819 0.961 . S
C3806 H3820 0.961 . S
C3807 C3804 1.539 . S
C3807 H3821 0.958 . S
C3807 H3822 0.961 . S
C3807 H3823 0.960 . S
H3808 C3792 0.931 . S
H3809 C3797 0.929 1_545 S
H3810 C3798 0.960 . S
H3811 C3798 0.962 . S
H3812 C3798 0.960 . S
H3813 C3799 0.961 . S
H3814 C3799 0.961 . S
H3815 C3799 0.961 . S
H3816 C3800 0.931 . S
H3817 C3805 0.930 . S
H3818 C3806 0.956 . S
H3819 C3806 0.961 . S
H3820 C3806 0.961 . S
H3821 C3807 0.958 . S
H3822 C3807 0.961 . S
H3823 C3807 0.960 . S
C3824 C3825 1.391 1_556 S
C3824 C3826 1.394 . S
C3824 H3840 0.931 . S
C3825 C3824 1.391 1_554 S
C3825 C3829 1.376 . S
C3826 C3824 1.394 . S
C3826 C3827 1.369 1_556 S
C3826 C3830 1.531 . S
C3827 C3826 1.369 1_554 S
C3827 C3828 1.410 . S
C3827 C3835 1.503 . S
C3828 C3827 1.410 . S
C3828 C3829 1.392 . S
C3828 C3831 1.511 1_565 S
C3829 C3825 1.376 . S
C3829 C3828 1.392 . S
C3829 H3841 0.929 . S
C3830 C3826 1.531 . S
C3830 H3842 0.960 . S
C3830 H3843 0.962 . S
C3830 H3844 0.960 . S
C3831 C3828 1.511 1_545 S
C3831 H3845 0.961 . S
C3831 H3846 0.961 . S
C3831 H3847 0.961 . S
C3832 C3833 1.370 1_565 S
C3832 C3834 1.363 . S
C3832 H3848 0.931 . S
C3833 C3832 1.370 1_545 S
C3833 C3837 1.408 . S
C3834 C3832 1.363 . S
C3834 C3835 1.370 . S
C3834 C3838 1.524 . S
C3835 C3827 1.503 . S
C3835 C3834 1.370 . S
C3835 C3836 1.378 1_564 S
C3836 C3835 1.378 1_546 S
C3836 C3837 1.405 1_556 S
C3836 C3839 1.562 . S
C3837 C3833 1.408 . S
C3837 C3836 1.405 1_554 S
C3837 H3849 0.930 1_554 S
C3838 C3834 1.524 . S
C3838 H3850 0.956 . S
C3838 H3851 0.961 . S
C3838 H3852 0.961 . S
C3839 C3836 1.562 . S
C3839 H3853 0.958 . S
C3839 H3854 0.961 . S
C3839 H3855 0.960 . S
H3840 C3824 0.931 . S
H3841 C3829 0.929 . S
H3842 C3830 0.960 . S
H3843 C3830 0.962 . S
H3844 C3830 0.960 . S
H3845 C3831 0.961 . S
H3846 C3831 0.961 . S
H3847 C3831 0.961 . S
H3848 C3832 0.931 . S
H3849 C3837 0.930 1_556 S
H3850 C3838 0.956 . S
H3851 C3838 0.961 . S
H3852 C3838 0.961 . S
H3853 C3839 0.958 . S
H3854 C3839 0.961 . S
H3855 C3839 0.960 . S
C3856 C3857 1.391 . S
C3856 C3858 1.394 . S
C3856 H3872 0.931 . S
C3857 C3856 1.391 . S
C3857 C3861 1.376 . S
C3858 C3856 1.394 . S
C3858 C3859 1.369 . S
C3858 C3862 1.531 . S
C3859 C3858 1.369 . S
C3859 C3860 1.410 . S
C3859 C3867 1.503 . S
C3860 C3859 1.410 . S
C3860 C3861 1.392 . S
C3860 C3863 1.511 . S
C3861 C3857 1.376 . S
C3861 C3860 1.392 . S
C3861 H3873 0.929 . S
C3862 C3858 1.531 . S
C3862 H3874 0.960 . S
C3862 H3875 0.962 . S
C3862 H3876 0.960 . S
C3863 C3860 1.511 . S
C3863 H3877 0.961 . S
C3863 H3878 0.961 . S
C3863 H3879 0.961 . S
C3864 C3865 1.370 . S
C3864 C3866 1.363 . S
C3864 H3880 0.931 . S
C3865 C3864 1.370 . S
C3865 C3869 1.408 . S
C3866 C3864 1.363 . S
C3866 C3867 1.370 . S
C3866 C3870 1.524 . S
C3867 C3859 1.503 . S
C3867 C3866 1.370 . S
C3867 C3868 1.403 . S
C3868 C3867 1.403 . S
C3868 C3869 1.404 . S
C3868 C3871 1.539 . S
C3869 C3865 1.408 . S
C3869 C3868 1.404 . S
C3869 H3881 0.930 . S
C3870 C3866 1.524 . S
C3870 H3882 0.956 . S
C3870 H3883 0.961 . S
C3870 H3884 0.961 . S
C3871 C3868 1.539 . S
C3871 H3885 0.958 . S
C3871 H3886 0.961 . S
C3871 H3887 0.960 . S
H3872 C3856 0.931 . S
H3873 C3861 0.929 . S
H3874 C3862 0.960 . S
H3875 C3862 0.962 . S
H3876 C3862 0.960 . S
H3877 C3863 0.961 . S
H3878 C3863 0.961 . S
H3879 C3863 0.961 . S
H3880 C3864 0.931 . S
H3881 C3869 0.930 . S
H3882 C3870 0.956 . S
H3883 C3870 0.961 . S
H3884 C3870 0.961 . S
H3885 C3871 0.958 . S
H3886 C3871 0.961 . S
H3887 C3871 0.960 . S
C3888 C3889 1.391 . S
C3888 C3890 1.394 . S
C3888 H3904 0.931 1_554 S
C3889 C3888 1.391 . S
C3889 C3893 1.376 . S
C3890 C3888 1.394 . S
C3890 C3891 1.369 . S
C3890 C3894 1.531 1_554 S
C3891 C3890 1.369 . S
C3891 C3892 1.410 . S
C3891 C3899 1.503 . S
C3892 C3891 1.410 . S
C3892 C3893 1.392 . S
C3892 C3895 1.511 . S
C3893 C3889 1.376 . S
C3893 C3892 1.392 . S
C3893 H3905 0.929 . S
C3894 C3890 1.531 1_556 S
C3894 H3906 0.960 . S
C3894 H3907 0.962 1_556 S
C3894 H3908 0.960 . S
C3895 C3892 1.511 . S
C3895 H3909 0.961 . S
C3895 H3910 0.961 . S
C3895 H3911 0.961 . S
C3896 C3897 1.370 . S
C3896 C3898 1.363 . S
C3896 H3912 0.931 . S
C3897 C3896 1.370 . S
C3897 C3901 1.408 . S
C3898 C3896 1.363 . S
C3898 C3899 1.370 . S
C3898 C3902 1.524 . S
C3899 C3891 1.503 . S
C3899 C3898 1.370 . S
C3899 C3900 1.403 . S
C3900 C3899 1.403 . S
C3900 C3901 1.404 . S
C3900 C3903 1.539 1_554 S
C3901 C3897 1.408 . S
C3901 C3900 1.404 . S
C3901 H3913 0.930 1_554 S
C3902 C3898 1.524 . S
C3902 H3914 0.956 . S
C3902 H3915 0.961 . S
C3902 H3916 0.961 . S
C3903 C3900 1.539 1_556 S
C3903 H3917 0.958 . S
C3903 H3918 0.961 . S
C3903 H3919 0.960 . S
H3904 C3888 0.931 1_556 S
H3905 C3893 0.929 . S
H3906 C3894 0.960 . S
H3907 C3894 0.962 1_554 S
H3908 C3894 0.960 . S
H3909 C3895 0.961 . S
H3910 C3895 0.961 . S
H3911 C3895 0.961 . S
H3912 C3896 0.931 . S
H3913 C3901 0.930 1_556 S
H3914 C3902 0.956 . S
H3915 C3902 0.961 . S
H3916 C3902 0.961 . S
H3917 C3903 0.958 . S
H3918 C3903 0.961 . S
H3919 C3903 0.960 . S
C3920 C3921 1.391 . S
C3920 C3922 1.394 . S
C3920 H3936 0.931 . S
C3921 C3920 1.391 . S
C3921 C3925 1.376 . S
C3922 C3920 1.394 . S
C3922 C3923 1.369 . S
C3922 C3926 1.531 . S
C3923 C3922 1.369 . S
C3923 C3924 1.410 . S
C3923 C3931 1.503 . S
C3924 C3923 1.410 . S
C3924 C3925 1.392 . S
C3924 C3927 1.511 . S
C3925 C3921 1.376 . S
C3925 C3924 1.392 . S
C3925 H3937 0.929 . S
C3926 C3922 1.531 . S
C3926 H3938 0.960 . S
C3926 H3939 0.962 . S
C3926 H3940 0.960 . S
C3927 C3924 1.511 . S
C3927 H3941 0.961 . S
C3927 H3942 0.961 . S
C3927 H3943 0.961 . S
C3928 C3929 1.370 . S
C3928 C3930 1.363 . S
C3928 H3944 0.931 . S
C3929 C3928 1.370 . S
C3929 C3933 1.408 . S
C3930 C3928 1.363 . S
C3930 C3931 1.370 . S
C3930 C3934 1.524 . S
C3931 C3923 1.503 . S
C3931 C3930 1.370 . S
C3931 C3932 1.403 . S
C3932 C3931 1.403 . S
C3932 C3933 1.404 . S
C3932 C3935 1.539 . S
C3933 C3929 1.408 . S
C3933 C3932 1.404 . S
C3933 H3945 0.930 . S
C3934 C3930 1.524 . S
C3934 H3946 0.956 . S
C3934 H3947 0.961 . S
C3934 H3948 0.961 . S
C3935 C3932 1.539 . S
C3935 H3949 0.958 . S
C3935 H3950 0.961 . S
C3935 H3951 0.960 . S
H3936 C3920 0.931 . S
H3937 C3925 0.929 . S
H3938 C3926 0.960 . S
H3939 C3926 0.962 . S
H3940 C3926 0.960 . S
H3941 C3927 0.961 . S
H3942 C3927 0.961 . S
H3943 C3927 0.961 . S
H3944 C3928 0.931 . S
H3945 C3933 0.930 . S
H3946 C3934 0.956 . S
H3947 C3934 0.961 . S
H3948 C3934 0.961 . S
H3949 C3935 0.958 . S
H3950 C3935 0.961 . S
H3951 C3935 0.960 . S
C3952 C3953 1.391 . S
C3952 C3954 1.394 . S
C3952 H3968 0.931 . S
C3953 C3952 1.391 . S
C3953 C3957 1.376 . S
C3954 C3952 1.394 . S
C3954 C3955 1.369 . S
C3954 C3958 1.531 . S
C3955 C3954 1.369 . S
C3955 C3956 1.410 . S
C3955 C3963 1.503 . S
C3956 C3955 1.410 . S
C3956 C3957 1.392 . S
C3956 C3959 1.511 . S
C3957 C3953 1.376 . S
C3957 C3956 1.392 . S
C3957 H3969 0.929 . S
C3958 C3954 1.531 . S
C3958 H3970 0.960 . S
C3958 H3971 0.962 . S
C3958 H3972 0.960 . S
C3959 C3956 1.511 . S
C3959 H3973 0.961 . S
C3959 H3974 0.961 . S
C3959 H3975 0.961 . S
C3960 C3961 1.370 . S
C3960 C3962 1.363 . S
C3960 H3976 0.931 . S
C3961 C3960 1.370 . S
C3961 C3965 1.408 . S
C3962 C3960 1.363 . S
C3962 C3963 1.370 . S
C3962 C3966 1.524 . S
C3963 C3955 1.503 . S
C3963 C3962 1.370 . S
C3963 C3964 1.403 . S
C3964 C3963 1.403 . S
C3964 C3965 1.404 . S
C3964 C3967 1.539 . S
C3965 C3961 1.408 . S
C3965 C3964 1.404 . S
C3965 H3977 0.930 . S
C3966 C3962 1.524 . S
C3966 H3978 0.956 . S
C3966 H3979 0.961 . S
C3966 H3980 0.961 . S
C3967 C3964 1.539 . S
C3967 H3981 0.958 . S
C3967 H3982 0.961 . S
C3967 H3983 0.960 . S
H3968 C3952 0.931 . S
H3969 C3957 0.929 . S
H3970 C3958 0.960 . S
H3971 C3958 0.962 . S
H3972 C3958 0.960 . S
H3973 C3959 0.961 . S
H3974 C3959 0.961 . S
H3975 C3959 0.961 . S
H3976 C3960 0.931 . S
H3977 C3965 0.930 . S
H3978 C3966 0.956 . S
H3979 C3966 0.961 . S
H3980 C3966 0.961 . S
H3981 C3967 0.958 . S
H3982 C3967 0.961 . S
H3983 C3967 0.960 . S
C3984 C3985 1.391 . S
C3984 C3986 1.394 . S
C3984 H4000 0.931 . S
C3985 C3984 1.391 . S
C3985 C3989 1.376 . S
C3986 C3984 1.394 . S
C3986 C3987 1.369 . S
C3986 C3990 1.531 . S
C3987 C3986 1.369 . S
C3987 C3988 1.410 . S
C3987 C3995 1.503 . S
C3988 C3987 1.410 . S
C3988 C3989 1.392 . S
C3988 C3991 1.511 . S
C3989 C3985 1.376 . S
C3989 C3988 1.392 . S
C3989 H4001 0.929 . S
C3990 C3986 1.531 . S
C3990 H4002 0.960 . S
C3990 H4003 0.962 . S
C3990 H4004 0.960 . S
C3991 C3988 1.511 . S
C3991 H4005 0.961 . S
C3991 H4006 0.961 . S
C3991 H4007 0.961 . S
C3992 C3993 1.370 . S
C3992 C3994 1.363 . S
C3992 H4008 0.931 . S
C3993 C3992 1.370 . S
C3993 C3997 1.408 . S
C3994 C3992 1.363 . S
C3994 C3995 1.370 . S
C3994 C3998 1.524 . S
C3995 C3987 1.503 . S
C3995 C3994 1.370 . S
C3995 C3996 1.403 . S
C3996 C3995 1.403 . S
C3996 C3997 1.404 . S
C3996 C3999 1.539 . S
C3997 C3993 1.408 . S
C3997 C3996 1.404 . S
C3997 H4009 0.930 . S
C3998 C3994 1.524 . S
C3998 H4010 0.956 . S
C3998 H4011 0.961 . S
C3998 H4012 0.961 . S
C3999 C3996 1.539 . S
C3999 H4013 0.958 . S
C3999 H4014 0.961 . S
C3999 H4015 0.960 . S
H4000 C3984 0.931 . S
H4001 C3989 0.929 . S
H4002 C3990 0.960 . S
H4003 C3990 0.962 . S
H4004 C3990 0.960 . S
H4005 C3991 0.961 . S
H4006 C3991 0.961 . S
H4007 C3991 0.961 . S
H4008 C3992 0.931 . S
H4009 C3997 0.930 . S
H4010 C3998 0.956 . S
H4011 C3998 0.961 . S
H4012 C3998 0.961 . S
H4013 C3999 0.958 . S
H4014 C3999 0.961 . S
H4015 C3999 0.960 . S
C4016 C4017 1.391 . S
C4016 C4018 1.394 . S
C4016 H4032 0.931 . S
C4017 C4016 1.391 . S
C4017 C4021 1.376 . S
C4018 C4016 1.394 . S
C4018 C4019 1.369 . S
C4018 C4022 1.531 . S
C4019 C4018 1.369 . S
C4019 C4020 1.410 . S
C4019 C4027 1.503 . S
C4020 C4019 1.410 . S
C4020 C4021 1.392 . S
C4020 C4023 1.511 . S
C4021 C4017 1.376 . S
C4021 C4020 1.392 . S
C4021 H4033 0.929 . S
C4022 C4018 1.531 . S
C4022 H4034 0.960 . S
C4022 H4035 0.962 . S
C4022 H4036 0.960 . S
C4023 C4020 1.511 . S
C4023 H4037 0.961 . S
C4023 H4038 0.961 . S
C4023 H4039 0.961 . S
C4024 C4025 1.370 . S
C4024 C4026 1.363 . S
C4024 H4040 0.931 . S
C4025 C4024 1.370 . S
C4025 C4029 1.408 . S
C4026 C4024 1.363 . S
C4026 C4027 1.370 . S
C4026 C4030 1.524 . S
C4027 C4019 1.503 . S
C4027 C4026 1.370 . S
C4027 C4028 1.403 . S
C4028 C4027 1.403 . S
C4028 C4029 1.404 . S
C4028 C4031 1.539 . S
C4029 C4025 1.408 . S
C4029 C4028 1.404 . S
C4029 H4041 0.930 . S
C4030 C4026 1.524 . S
C4030 H4042 0.956 . S
C4030 H4043 0.961 . S
C4030 H4044 0.961 . S
C4031 C4028 1.539 . S
C4031 H4045 0.958 . S
C4031 H4046 0.961 . S
C4031 H4047 0.960 . S
H4032 C4016 0.931 . S
H4033 C4021 0.929 . S
H4034 C4022 0.960 . S
H4035 C4022 0.962 . S
H4036 C4022 0.960 . S
H4037 C4023 0.961 . S
H4038 C4023 0.961 . S
H4039 C4023 0.961 . S
H4040 C4024 0.931 . S
H4041 C4029 0.930 . S
H4042 C4030 0.956 . S
H4043 C4030 0.961 . S
H4044 C4030 0.961 . S
H4045 C4031 0.958 . S
H4046 C4031 0.961 . S
H4047 C4031 0.960 . S
C4048 C4049 1.391 . S
C4048 C4050 1.394 . S
C4048 H4064 0.931 . S
C4049 C4048 1.391 . S
C4049 C4053 1.376 . S
C4050 C4048 1.394 . S
C4050 C4051 1.369 . S
C4050 C4054 1.531 . S
C4051 C4050 1.369 . S
C4051 C4052 1.410 . S
C4051 C4059 1.503 . S
C4052 C4051 1.410 . S
C4052 C4053 1.392 . S
C4052 C4055 1.511 . S
C4053 C4049 1.376 . S
C4053 C4052 1.392 . S
C4053 H4065 0.929 . S
C4054 C4050 1.531 . S
C4054 H4066 0.960 . S
C4054 H4067 0.962 . S
C4054 H4068 0.960 . S
C4055 C4052 1.511 . S
C4055 H4069 0.961 . S
C4055 H4070 0.961 . S
C4055 H4071 0.961 1_455 S
C4056 C4057 1.370 . S
C4056 C4058 1.363 . S
C4056 H4072 0.931 . S
C4057 C4056 1.370 . S
C4057 C4061 1.408 . S
C4058 C4056 1.363 . S
C4058 C4059 1.370 . S
C4058 C4062 1.524 . S
C4059 C4051 1.503 . S
C4059 C4058 1.370 . S
C4059 C4060 1.403 . S
C4060 C4059 1.403 . S
C4060 C4061 1.404 . S
C4060 C4063 1.539 . S
C4061 C4057 1.408 . S
C4061 C4060 1.404 . S
C4061 H4073 0.930 . S
C4062 C4058 1.524 . S
C4062 H4074 0.956 . S
C4062 H4075 0.961 . S
C4062 H4076 0.961 . S
C4063 C4060 1.539 . S
C4063 H4077 0.958 . S
C4063 H4078 0.925 1_455 S
C4063 H4079 0.960 . S
H4064 C4048 0.931 . S
H4065 C4053 0.929 . S
H4066 C4054 0.960 . S
H4067 C4054 0.962 . S
H4068 C4054 0.960 . S
H4069 C4055 0.961 . S
H4070 C4055 0.961 . S
H4071 C4055 0.961 1_655 S
H4072 C4056 0.931 . S
H4073 C4061 0.930 . S
H4074 C4062 0.956 . S
H4075 C4062 0.961 . S
H4076 C4062 0.961 . S
H4077 C4063 0.958 . S
H4078 C4063 0.925 1_655 S
H4079 C4063 0.960 . S
C4080 C4081 1.391 . S
C4080 C4082 1.394 . S
C4080 H4096 0.931 . S
C4081 C4080 1.391 . S
C4081 C4085 1.376 . S
C4082 C4080 1.394 . S
C4082 C4083 1.369 . S
C4082 C4086 1.531 . S
C4083 C4082 1.369 . S
C4083 C4084 1.410 . S
C4083 C4091 1.503 . S
C4084 C4083 1.410 . S
C4084 C4085 1.392 . S
C4084 C4087 1.511 . S
C4085 C4081 1.376 . S
C4085 C4084 1.392 . S
C4085 H4097 0.929 . S
C4086 C4082 1.531 . S
C4086 H4098 0.960 . S
C4086 H4099 0.962 . S
C4086 H4100 0.960 . S
C4087 C4084 1.511 . S
C4087 H4101 0.961 . S
C4087 H4102 0.961 . S
C4087 H4103 0.961 . S
C4088 C4089 1.370 . S
C4088 C4090 1.363 . S
C4088 H4104 0.931 . S
C4089 C4088 1.370 . S
C4089 C4093 1.408 . S
C4090 C4088 1.363 . S
C4090 C4091 1.370 . S
C4090 C4094 1.524 . S
C4091 C4083 1.503 . S
C4091 C4090 1.370 . S
C4091 C4092 1.403 . S
C4092 C4091 1.403 . S
C4092 C4093 1.404 . S
C4092 C4095 1.539 . S
C4093 C4089 1.408 . S
C4093 C4092 1.404 . S
C4093 H4105 0.930 . S
C4094 C4090 1.524 . S
C4094 H4106 0.956 . S
C4094 H4107 0.961 . S
C4094 H4108 0.961 . S
C4095 C4092 1.539 . S
C4095 H4109 0.958 . S
C4095 H4110 0.961 . S
C4095 H4111 0.960 . S
H4096 C4080 0.931 . S
H4097 C4085 0.929 . S
H4098 C4086 0.960 . S
H4099 C4086 0.962 . S
H4100 C4086 0.960 . S
H4101 C4087 0.961 . S
H4102 C4087 0.961 . S
H4103 C4087 0.961 . S
H4104 C4088 0.931 . S
H4105 C4093 0.930 . S
H4106 C4094 0.956 . S
H4107 C4094 0.961 . S
H4108 C4094 0.961 . S
H4109 C4095 0.958 . S
H4110 C4095 0.961 . S
H4111 C4095 0.960 . S
C4112 C4113 1.391 . S
C4112 C4114 1.394 . S
C4112 H4128 0.931 . S
C4113 C4112 1.391 . S
C4113 C4117 1.376 . S
C4114 C4112 1.394 . S
C4114 C4115 1.369 . S
C4114 C4118 1.531 . S
C4115 C4114 1.369 . S
C4115 C4116 1.410 . S
C4115 C4123 1.503 . S
C4116 C4115 1.410 . S
C4116 C4117 1.392 . S
C4116 C4119 1.511 . S
C4117 C4113 1.376 . S
C4117 C4116 1.392 . S
C4117 H4129 0.929 . S
C4118 C4114 1.531 . S
C4118 H4130 0.960 . S
C4118 H4131 0.962 . S
C4118 H4132 0.960 . S
C4119 C4116 1.511 . S
C4119 H4133 0.961 . S
C4119 H4134 0.961 . S
C4119 H4135 0.961 . S
C4120 C4121 1.370 . S
C4120 C4122 1.363 . S
C4120 H4136 0.931 . S
C4121 C4120 1.370 . S
C4121 C4125 1.408 . S
C4122 C4120 1.363 . S
C4122 C4123 1.370 . S
C4122 C4126 1.524 . S
C4123 C4115 1.503 . S
C4123 C4122 1.370 . S
C4123 C4124 1.403 . S
C4124 C4123 1.403 . S
C4124 C4125 1.404 . S
C4124 C4127 1.539 . S
C4125 C4121 1.408 . S
C4125 C4124 1.404 . S
C4125 H4137 0.930 . S
C4126 C4122 1.524 . S
C4126 H4138 0.956 . S
C4126 H4139 0.961 . S
C4126 H4140 0.961 . S
C4127 C4124 1.539 . S
C4127 H4141 0.958 . S
C4127 H4142 0.961 . S
C4127 H4143 0.960 . S
H4128 C4112 0.931 . S
H4129 C4117 0.929 . S
H4130 C4118 0.960 . S
H4131 C4118 0.962 . S
H4132 C4118 0.960 . S
H4133 C4119 0.961 . S
H4134 C4119 0.961 . S
H4135 C4119 0.961 . S
H4136 C4120 0.931 . S
H4137 C4125 0.930 . S
H4138 C4126 0.956 . S
H4139 C4126 0.961 . S
H4140 C4126 0.961 . S
H4141 C4127 0.958 . S
H4142 C4127 0.961 . S
H4143 C4127 0.960 . S
C4144 C4145 1.391 . S
C4144 C4146 1.394 . S
C4144 H4160 0.931 . S
C4145 C4144 1.391 . S
C4145 C4149 1.376 . S
C4146 C4144 1.394 . S
C4146 C4147 1.369 . S
C4146 C4150 1.531 . S
C4147 C4146 1.369 . S
C4147 C4148 1.410 . S
C4147 C4155 1.503 . S
C4148 C4147 1.410 . S
C4148 C4149 1.392 . S
C4148 C4151 1.511 . S
C4149 C4145 1.376 . S
C4149 C4148 1.392 . S
C4149 H4161 0.929 . S
C4150 C4146 1.531 . S
C4150 H4162 0.960 . S
C4150 H4163 0.962 . S
C4150 H4164 0.960 . S
C4151 C4148 1.511 . S
C4151 H4165 0.961 . S
C4151 H4166 0.961 . S
C4151 H4167 0.961 . S
C4152 C4153 1.370 . S
C4152 C4154 1.363 . S
C4152 H4168 0.931 . S
C4153 C4152 1.370 . S
C4153 C4157 1.408 . S
C4154 C4152 1.363 . S
C4154 C4155 1.370 . S
C4154 C4158 1.524 . S
C4155 C4147 1.503 . S
C4155 C4154 1.370 . S
C4155 C4156 1.403 . S
C4156 C4155 1.403 . S
C4156 C4157 1.404 . S
C4156 C4159 1.539 . S
C4157 C4153 1.408 . S
C4157 C4156 1.404 . S
C4157 H4169 0.930 . S
C4158 C4154 1.524 . S
C4158 H4170 0.956 . S
C4158 H4171 0.961 . S
C4158 H4172 0.961 . S
C4159 C4156 1.539 . S
C4159 H4173 0.958 . S
C4159 H4174 0.961 . S
C4159 H4175 0.960 . S
H4160 C4144 0.931 . S
H4161 C4149 0.929 . S
H4162 C4150 0.960 . S
H4163 C4150 0.962 . S
H4164 C4150 0.960 . S
H4165 C4151 0.961 . S
H4166 C4151 0.961 . S
H4167 C4151 0.961 . S
H4168 C4152 0.931 . S
H4169 C4157 0.930 . S
H4170 C4158 0.956 . S
H4171 C4158 0.961 . S
H4172 C4158 0.961 . S
H4173 C4159 0.958 . S
H4174 C4159 0.961 . S
H4175 C4159 0.960 . S
C4176 C4177 1.391 . S
C4176 C4178 1.394 . S
C4176 H4192 0.931 . S
C4177 C4176 1.391 . S
C4177 C4181 1.376 . S
C4178 C4176 1.394 . S
C4178 C4179 1.369 . S
C4178 C4182 1.531 1_455 S
C4179 C4178 1.369 . S
C4179 C4180 1.410 . S
C4179 C4187 1.503 . S
C4180 C4179 1.410 . S
C4180 C4181 1.392 . S
C4180 C4183 1.511 . S
C4181 C4177 1.376 . S
C4181 C4180 1.392 . S
C4181 H4193 0.929 . S
C4182 C4178 1.531 1_655 S
C4182 H4194 0.960 . S
C4182 H4195 0.962 . S
C4182 H4196 0.960 . S
C4183 C4180 1.511 . S
C4183 H4197 0.961 . S
C4183 H4198 0.961 . S
C4183 H4199 0.961 . S
C4184 C4185 1.370 . S
C4184 C4186 1.363 . S
C4184 H4200 0.931 . S
C4185 C4184 1.370 . S
C4185 C4189 1.408 . S
C4186 C4184 1.363 . S
C4186 C4187 1.370 . S
C4186 C4190 1.524 . S
C4187 C4179 1.503 . S
C4187 C4186 1.370 . S
C4187 C4188 1.403 . S
C4188 C4187 1.403 . S
C4188 C4189 1.404 . S
C4188 C4191 1.539 . S
C4189 C4185 1.408 . S
C4189 C4188 1.404 . S
C4189 H4201 0.930 . S
C4190 C4186 1.524 . S
C4190 H4202 0.956 . S
C4190 H4203 0.961 . S
C4190 H4204 0.961 . S
C4191 C4188 1.539 . S
C4191 H4205 0.958 . S
C4191 H4206 0.961 . S
C4191 H4207 0.960 . S
H4192 C4176 0.931 . S
H4193 C4181 0.929 . S
H4194 C4182 0.960 . S
H4195 C4182 0.962 . S
H4196 C4182 0.960 . S
H4197 C4183 0.961 . S
H4198 C4183 0.961 . S
H4199 C4183 0.961 . S
H4200 C4184 0.931 . S
H4201 C4189 0.930 . S
H4202 C4190 0.956 . S
H4203 C4190 0.961 . S
H4204 C4190 0.961 . S
H4205 C4191 0.958 . S
H4206 C4191 0.961 . S
H4207 C4191 0.960 . S
C4208 C4209 1.391 . S
C4208 C4210 1.394 . S
C4208 H4224 0.931 . S
C4209 C4208 1.391 . S
C4209 C4213 1.376 . S
C4210 C4208 1.394 . S
C4210 C4211 1.369 . S
C4210 C4214 1.531 . S
C4211 C4210 1.369 . S
C4211 C4212 1.410 . S
C4211 C4219 1.503 . S
C4212 C4211 1.410 . S
C4212 C4213 1.392 . S
C4212 C4215 1.511 . S
C4213 C4209 1.376 . S
C4213 C4212 1.392 . S
C4213 H4225 0.929 . S
C4214 C4210 1.531 . S
C4214 H4226 0.960 . S
C4214 H4227 0.962 . S
C4214 H4228 0.960 . S
C4215 C4212 1.511 . S
C4215 H4229 0.961 . S
C4215 H4230 0.961 . S
C4215 H4231 0.961 . S
C4216 C4217 1.370 . S
C4216 C4218 1.363 . S
C4216 H4232 0.931 . S
C4217 C4216 1.370 . S
C4217 C4221 1.408 . S
C4218 C4216 1.363 . S
C4218 C4219 1.370 . S
C4218 C4222 1.524 . S
C4219 C4211 1.503 . S
C4219 C4218 1.370 . S
C4219 C4220 1.403 . S
C4220 C4219 1.403 . S
C4220 C4221 1.404 . S
C4220 C4223 1.539 . S
C4221 C4217 1.408 . S
C4221 C4220 1.404 . S
C4221 H4233 0.930 . S
C4222 C4218 1.524 . S
C4222 H4234 0.956 . S
C4222 H4235 0.961 . S
C4222 H4236 0.961 . S
C4223 C4220 1.539 . S
C4223 H4237 0.958 . S
C4223 H4238 0.961 . S
C4223 H4239 0.960 . S
H4224 C4208 0.931 . S
H4225 C4213 0.929 . S
H4226 C4214 0.960 . S
H4227 C4214 0.962 . S
H4228 C4214 0.960 . S
H4229 C4215 0.961 . S
H4230 C4215 0.961 . S
H4231 C4215 0.961 . S
H4232 C4216 0.931 . S
H4233 C4221 0.930 . S
H4234 C4222 0.956 . S
H4235 C4222 0.961 . S
H4236 C4222 0.961 . S
H4237 C4223 0.958 . S
H4238 C4223 0.961 . S
H4239 C4223 0.960 . S
C4240 C4241 1.391 . S
C4240 C4242 1.394 . S
C4240 H4256 0.931 . S
C4241 C4240 1.391 . S
C4241 C4245 1.376 . S
C4242 C4240 1.394 . S
C4242 C4243 1.369 . S
C4242 C4246 1.531 . S
C4243 C4242 1.369 . S
C4243 C4244 1.410 . S
C4243 C4251 1.503 . S
C4244 C4243 1.410 . S
C4244 C4245 1.392 . S
C4244 C4247 1.511 . S
C4245 C4241 1.376 . S
C4245 C4244 1.392 . S
C4245 H4257 0.929 . S
C4246 C4242 1.531 . S
C4246 H4258 0.960 . S
C4246 H4259 0.962 . S
C4246 H4260 0.960 . S
C4247 C4244 1.511 . S
C4247 H4261 0.961 . S
C4247 H4262 0.961 . S
C4247 H4263 0.961 . S
C4248 C4249 1.370 . S
C4248 C4250 1.363 . S
C4248 H4264 0.931 . S
C4249 C4248 1.370 . S
C4249 C4253 1.408 . S
C4250 C4248 1.363 . S
C4250 C4251 1.370 . S
C4250 C4254 1.524 . S
C4251 C4243 1.503 . S
C4251 C4250 1.370 . S
C4251 C4252 1.403 . S
C4252 C4251 1.403 . S
C4252 C4253 1.404 . S
C4252 C4255 1.539 . S
C4253 C4249 1.408 . S
C4253 C4252 1.404 . S
C4253 H4265 0.930 . S
C4254 C4250 1.524 . S
C4254 H4266 0.956 . S
C4254 H4267 0.961 . S
C4254 H4268 0.961 . S
C4255 C4252 1.539 . S
C4255 H4269 0.958 . S
C4255 H4270 0.961 . S
C4255 H4271 0.960 . S
H4256 C4240 0.931 . S
H4257 C4245 0.929 . S
H4258 C4246 0.960 . S
H4259 C4246 0.962 . S
H4260 C4246 0.960 . S
H4261 C4247 0.961 . S
H4262 C4247 0.961 . S
H4263 C4247 0.961 . S
H4264 C4248 0.931 . S
H4265 C4253 0.930 . S
H4266 C4254 0.956 . S
H4267 C4254 0.961 . S
H4268 C4254 0.961 . S
H4269 C4255 0.958 . S
H4270 C4255 0.961 . S
H4271 C4255 0.960 . S
C4272 C4273 1.391 . S
C4272 C4274 1.394 . S
C4272 H4288 0.931 . S
C4273 C4272 1.391 . S
C4273 C4277 1.376 . S
C4274 C4272 1.394 . S
C4274 C4275 1.369 . S
C4274 C4278 1.531 . S
C4275 C4274 1.369 . S
C4275 C4276 1.410 . S
C4275 C4283 1.503 . S
C4276 C4275 1.410 . S
C4276 C4277 1.392 . S
C4276 C4279 1.511 . S
C4277 C4273 1.376 . S
C4277 C4276 1.392 . S
C4277 H4289 0.929 . S
C4278 C4274 1.531 . S
C4278 H4290 0.960 . S
C4278 H4291 0.962 . S
C4278 H4292 0.960 . S
C4279 C4276 1.511 . S
C4279 H4293 0.961 . S
C4279 H4294 0.961 . S
C4279 H4295 0.961 . S
C4280 C4281 1.370 . S
C4280 C4282 1.363 . S
C4280 H4296 0.931 . S
C4281 C4280 1.370 . S
C4281 C4285 1.408 . S
C4282 C4280 1.363 . S
C4282 C4283 1.370 . S
C4282 C4286 1.524 . S
C4283 C4275 1.503 . S
C4283 C4282 1.370 . S
C4283 C4284 1.403 . S
C4284 C4283 1.403 . S
C4284 C4285 1.404 . S
C4284 C4287 1.539 . S
C4285 C4281 1.408 . S
C4285 C4284 1.404 . S
C4285 H4297 0.930 . S
C4286 C4282 1.524 . S
C4286 H4298 0.956 . S
C4286 H4299 0.961 . S
C4286 H4300 0.961 . S
C4287 C4284 1.539 . S
C4287 H4301 0.958 . S
C4287 H4302 0.961 . S
C4287 H4303 0.960 . S
H4288 C4272 0.931 . S
H4289 C4277 0.929 . S
H4290 C4278 0.960 . S
H4291 C4278 0.962 . S
H4292 C4278 0.960 . S
H4293 C4279 0.961 . S
H4294 C4279 0.961 . S
H4295 C4279 0.961 . S
H4296 C4280 0.931 . S
H4297 C4285 0.930 . S
H4298 C4286 0.956 . S
H4299 C4286 0.961 . S
H4300 C4286 0.961 . S
H4301 C4287 0.958 . S
H4302 C4287 0.961 . S
H4303 C4287 0.960 . S
C4304 C4305 1.391 . S
C4304 C4306 1.394 . S
C4304 H4320 0.931 . S
C4305 C4304 1.391 . S
C4305 C4309 1.376 . S
C4306 C4304 1.394 . S
C4306 C4307 1.369 . S
C4306 C4310 1.531 . S
C4307 C4306 1.369 . S
C4307 C4308 1.410 . S
C4307 C4315 1.503 . S
C4308 C4307 1.410 . S
C4308 C4309 1.392 . S
C4308 C4311 1.511 . S
C4309 C4305 1.376 . S
C4309 C4308 1.392 . S
C4309 H4321 0.929 . S
C4310 C4306 1.531 . S
C4310 H4322 0.960 . S
C4310 H4323 0.962 . S
C4310 H4324 0.960 . S
C4311 C4308 1.511 . S
C4311 H4325 0.961 . S
C4311 H4326 0.961 . S
C4311 H4327 0.961 . S
C4312 C4313 1.370 . S
C4312 C4314 1.363 . S
C4312 H4328 0.931 . S
C4313 C4312 1.370 . S
C4313 C4317 1.408 . S
C4314 C4312 1.363 . S
C4314 C4315 1.370 . S
C4314 C4318 1.524 . S
C4315 C4307 1.503 . S
C4315 C4314 1.370 . S
C4315 C4316 1.403 . S
C4316 C4315 1.403 . S
C4316 C4317 1.404 . S
C4316 C4319 1.539 . S
C4317 C4313 1.408 . S
C4317 C4316 1.404 . S
C4317 H4329 0.930 . S
C4318 C4314 1.524 . S
C4318 H4330 0.956 . S
C4318 H4331 0.961 . S
C4318 H4332 0.961 . S
C4319 C4316 1.539 . S
C4319 H4333 0.958 . S
C4319 H4334 0.961 . S
C4319 H4335 0.960 . S
H4320 C4304 0.931 . S
H4321 C4309 0.929 . S
H4322 C4310 0.960 . S
H4323 C4310 0.962 . S
H4324 C4310 0.960 . S
H4325 C4311 0.961 . S
H4326 C4311 0.961 . S
H4327 C4311 0.961 . S
H4328 C4312 0.931 . S
H4329 C4317 0.930 . S
H4330 C4318 0.956 . S
H4331 C4318 0.961 . S
H4332 C4318 0.961 . S
H4333 C4319 0.958 . S
H4334 C4319 0.961 . S
H4335 C4319 0.960 . S
C4336 C4337 1.391 . S
C4336 C4338 1.394 . S
C4336 H4352 0.931 . S
C4337 C4336 1.391 . S
C4337 C4341 1.376 . S
C4338 C4336 1.394 . S
C4338 C4339 1.369 . S
C4338 C4342 1.531 . S
C4339 C4338 1.369 . S
C4339 C4340 1.410 . S
C4339 C4347 1.503 . S
C4340 C4339 1.410 . S
C4340 C4341 1.392 . S
C4340 C4343 1.511 . S
C4341 C4337 1.376 . S
C4341 C4340 1.392 . S
C4341 H4353 0.929 . S
C4342 C4338 1.531 . S
C4342 H4354 0.960 . S
C4342 H4355 0.962 . S
C4342 H4356 0.960 . S
C4343 C4340 1.511 . S
C4343 H4357 0.961 . S
C4343 H4358 0.961 . S
C4343 H4359 0.961 . S
C4344 C4345 1.370 . S
C4344 C4346 1.363 . S
C4344 H4360 0.931 . S
C4345 C4344 1.370 . S
C4345 C4349 1.408 . S
C4346 C4344 1.363 . S
C4346 C4347 1.370 . S
C4346 C4350 1.524 . S
C4347 C4339 1.503 . S
C4347 C4346 1.370 . S
C4347 C4348 1.403 . S
C4348 C4347 1.403 . S
C4348 C4349 1.404 . S
C4348 C4351 1.539 . S
C4349 C4345 1.408 . S
C4349 C4348 1.404 . S
C4349 H4361 0.930 . S
C4350 C4346 1.524 . S
C4350 H4362 0.956 . S
C4350 H4363 0.961 . S
C4350 H4364 0.961 . S
C4351 C4348 1.539 . S
C4351 H4365 0.958 . S
C4351 H4366 0.961 . S
C4351 H4367 0.960 . S
H4352 C4336 0.931 . S
H4353 C4341 0.929 . S
H4354 C4342 0.960 . S
H4355 C4342 0.962 . S
H4356 C4342 0.960 . S
H4357 C4343 0.961 . S
H4358 C4343 0.961 . S
H4359 C4343 0.961 . S
H4360 C4344 0.931 . S
H4361 C4349 0.930 . S
H4362 C4350 0.956 . S
H4363 C4350 0.961 . S
H4364 C4350 0.961 . S
H4365 C4351 0.958 . S
H4366 C4351 0.961 . S
H4367 C4351 0.960 . S
C4368 C4369 1.391 . S
C4368 C4370 1.394 . S
C4368 H4384 0.931 . S
C4369 C4368 1.391 . S
C4369 C4373 1.376 . S
C4370 C4368 1.394 . S
C4370 C4371 1.369 . S
C4370 C4374 1.531 . S
C4371 C4370 1.369 . S
C4371 C4372 1.410 . S
C4371 C4379 1.503 . S
C4372 C4371 1.410 . S
C4372 C4373 1.392 . S
C4372 C4375 1.511 . S
C4373 C4369 1.376 . S
C4373 C4372 1.392 . S
C4373 H4385 0.929 . S
C4374 C4370 1.531 . S
C4374 H4386 0.960 . S
C4374 H4387 0.962 . S
C4374 H4388 0.960 . S
C4375 C4372 1.511 . S
C4375 H4389 0.961 . S
C4375 H4390 0.961 . S
C4375 H4391 0.961 . S
C4376 C4377 1.370 . S
C4376 C4378 1.363 . S
C4376 H4392 0.931 . S
C4377 C4376 1.370 . S
C4377 C4381 1.408 . S
C4378 C4376 1.363 . S
C4378 C4379 1.370 . S
C4378 C4382 1.524 . S
C4379 C4371 1.503 . S
C4379 C4378 1.370 . S
C4379 C4380 1.403 . S
C4380 C4379 1.403 . S
C4380 C4381 1.404 . S
C4380 C4383 1.539 . S
C4381 C4377 1.408 . S
C4381 C4380 1.404 . S
C4381 H4393 0.930 . S
C4382 C4378 1.524 . S
C4382 H4394 0.956 . S
C4382 H4395 0.961 . S
C4382 H4396 0.961 . S
C4383 C4380 1.539 . S
C4383 H4397 0.958 . S
C4383 H4398 0.961 . S
C4383 H4399 0.960 . S
H4384 C4368 0.931 . S
H4385 C4373 0.929 . S
H4386 C4374 0.960 . S
H4387 C4374 0.962 . S
H4388 C4374 0.960 . S
H4389 C4375 0.961 . S
H4390 C4375 0.961 . S
H4391 C4375 0.961 . S
H4392 C4376 0.931 . S
H4393 C4381 0.930 . S
H4394 C4382 0.956 . S
H4395 C4382 0.961 . S
H4396 C4382 0.961 . S
H4397 C4383 0.958 . S
H4398 C4383 0.961 . S
H4399 C4383 0.960 . S
C4400 C4401 1.391 . S
C4400 C4402 1.394 . S
C4400 H4416 0.931 . S
C4401 C4400 1.391 . S
C4401 C4405 1.376 . S
C4402 C4400 1.394 . S
C4402 C4403 1.369 . S
C4402 C4406 1.531 . S
C4403 C4402 1.369 . S
C4403 C4404 1.410 . S
C4403 C4411 1.503 . S
C4404 C4403 1.410 . S
C4404 C4405 1.392 . S
C4404 C4407 1.511 . S
C4405 C4401 1.376 . S
C4405 C4404 1.392 . S
C4405 H4417 0.929 . S
C4406 C4402 1.531 . S
C4406 H4418 0.960 . S
C4406 H4419 0.962 . S
C4406 H4420 0.960 . S
C4407 C4404 1.511 . S
C4407 H4421 0.961 . S
C4407 H4422 0.961 . S
C4407 H4423 0.961 . S
C4408 C4409 1.370 . S
C4408 C4410 1.363 . S
C4408 H4424 0.931 . S
C4409 C4408 1.370 . S
C4409 C4413 1.408 . S
C4410 C4408 1.363 . S
C4410 C4411 1.370 . S
C4410 C4414 1.524 . S
C4411 C4403 1.503 . S
C4411 C4410 1.370 . S
C4411 C4412 1.403 . S
C4412 C4411 1.403 . S
C4412 C4413 1.404 . S
C4412 C4415 1.539 . S
C4413 C4409 1.408 . S
C4413 C4412 1.404 . S
C4413 H4425 0.930 . S
C4414 C4410 1.524 . S
C4414 H4426 0.956 . S
C4414 H4427 0.961 . S
C4414 H4428 0.961 . S
C4415 C4412 1.539 . S
C4415 H4429 0.958 . S
C4415 H4430 0.961 . S
C4415 H4431 0.960 . S
H4416 C4400 0.931 . S
H4417 C4405 0.929 . S
H4418 C4406 0.960 . S
H4419 C4406 0.962 . S
H4420 C4406 0.960 . S
H4421 C4407 0.961 . S
H4422 C4407 0.961 . S
H4423 C4407 0.961 . S
H4424 C4408 0.931 . S
H4425 C4413 0.930 . S
H4426 C4414 0.956 . S
H4427 C4414 0.961 . S
H4428 C4414 0.961 . S
H4429 C4415 0.958 . S
H4430 C4415 0.961 . S
H4431 C4415 0.960 . S
C4432 C4433 1.391 . S
C4432 C4434 1.394 . S
C4432 H4448 0.931 . S
C4433 C4432 1.391 . S
C4433 C4437 1.376 . S
C4434 C4432 1.394 . S
C4434 C4435 1.369 . S
C4434 C4438 1.531 . S
C4435 C4434 1.369 . S
C4435 C4436 1.410 . S
C4435 C4443 1.503 . S
C4436 C4435 1.410 . S
C4436 C4437 1.392 . S
C4436 C4439 1.511 . S
C4437 C4433 1.376 . S
C4437 C4436 1.392 . S
C4437 H4449 0.929 . S
C4438 C4434 1.531 . S
C4438 H4450 0.960 . S
C4438 H4451 0.962 . S
C4438 H4452 0.960 . S
C4439 C4436 1.511 . S
C4439 H4453 0.961 . S
C4439 H4454 0.961 . S
C4439 H4455 0.961 . S
C4440 C4441 1.370 . S
C4440 C4442 1.363 . S
C4440 H4456 0.931 . S
C4441 C4440 1.370 . S
C4441 C4445 1.408 . S
C4442 C4440 1.363 . S
C4442 C4443 1.370 . S
C4442 C4446 1.524 . S
C4443 C4435 1.503 . S
C4443 C4442 1.370 . S
C4443 C4444 1.403 . S
C4444 C4443 1.403 . S
C4444 C4445 1.404 . S
C4444 C4447 1.539 . S
C4445 C4441 1.408 . S
C4445 C4444 1.404 . S
C4445 H4457 0.930 . S
C4446 C4442 1.524 . S
C4446 H4458 0.956 . S
C4446 H4459 0.961 . S
C4446 H4460 0.961 . S
C4447 C4444 1.539 . S
C4447 H4461 0.958 . S
C4447 H4462 0.961 . S
C4447 H4463 0.960 . S
H4448 C4432 0.931 . S
H4449 C4437 0.929 . S
H4450 C4438 0.960 . S
H4451 C4438 0.962 . S
H4452 C4438 0.960 . S
H4453 C4439 0.961 . S
H4454 C4439 0.961 . S
H4455 C4439 0.961 . S
H4456 C4440 0.931 . S
H4457 C4445 0.930 . S
H4458 C4446 0.956 . S
H4459 C4446 0.961 . S
H4460 C4446 0.961 . S
H4461 C4447 0.958 . S
H4462 C4447 0.961 . S
H4463 C4447 0.960 . S
C4464 C4465 1.391 . S
C4464 C4466 1.394 . S
C4464 H4480 0.931 . S
C4465 C4464 1.391 . S
C4465 C4469 1.376 . S
C4466 C4464 1.394 . S
C4466 C4467 1.369 . S
C4466 C4470 1.531 . S
C4467 C4466 1.369 . S
C4467 C4468 1.410 . S
C4467 C4475 1.503 . S
C4468 C4467 1.410 . S
C4468 C4469 1.392 . S
C4468 C4471 1.511 . S
C4469 C4465 1.376 . S
C4469 C4468 1.392 . S
C4469 H4481 0.929 . S
C4470 C4466 1.531 . S
C4470 H4482 0.960 . S
C4470 H4483 0.962 . S
C4470 H4484 0.960 . S
C4471 C4468 1.511 . S
C4471 H4485 0.961 . S
C4471 H4486 0.961 . S
C4471 H4487 0.961 . S
C4472 C4473 1.370 . S
C4472 C4474 1.363 . S
C4472 H4488 0.931 . S
C4473 C4472 1.370 . S
C4473 C4477 1.408 . S
C4474 C4472 1.363 . S
C4474 C4475 1.370 . S
C4474 C4478 1.524 . S
C4475 C4467 1.503 . S
C4475 C4474 1.370 . S
C4475 C4476 1.403 . S
C4476 C4475 1.403 . S
C4476 C4477 1.404 . S
C4476 C4479 1.539 . S
C4477 C4473 1.408 . S
C4477 C4476 1.404 . S
C4477 H4489 0.930 . S
C4478 C4474 1.524 . S
C4478 H4490 0.956 . S
C4478 H4491 0.961 . S
C4478 H4492 0.961 . S
C4479 C4476 1.539 . S
C4479 H4493 0.958 . S
C4479 H4494 0.961 . S
C4479 H4495 0.960 . S
H4480 C4464 0.931 . S
H4481 C4469 0.929 . S
H4482 C4470 0.960 . S
H4483 C4470 0.962 . S
H4484 C4470 0.960 . S
H4485 C4471 0.961 . S
H4486 C4471 0.961 . S
H4487 C4471 0.961 . S
H4488 C4472 0.931 . S
H4489 C4477 0.930 . S
H4490 C4478 0.956 . S
H4491 C4478 0.961 . S
H4492 C4478 0.961 . S
H4493 C4479 0.958 . S
H4494 C4479 0.961 . S
H4495 C4479 0.960 . S
C4496 C4497 1.391 . S
C4496 C4498 1.394 . S
C4496 H4512 0.931 . S
C4497 C4496 1.391 . S
C4497 C4501 1.376 . S
C4498 C4496 1.394 . S
C4498 C4499 1.369 . S
C4498 C4502 1.531 . S
C4499 C4498 1.369 . S
C4499 C4500 1.410 . S
C4499 C4507 1.503 . S
C4500 C4499 1.410 . S
C4500 C4501 1.392 . S
C4500 C4503 1.511 . S
C4501 C4497 1.376 . S
C4501 C4500 1.392 . S
C4501 H4513 0.929 . S
C4502 C4498 1.531 . S
C4502 H4514 0.960 . S
C4502 H4515 0.962 . S
C4502 H4516 0.960 . S
C4503 C4500 1.511 . S
C4503 H4517 0.961 . S
C4503 H4518 0.961 . S
C4503 H4519 0.961 . S
C4504 C4505 1.370 . S
C4504 C4506 1.363 . S
C4504 H4520 0.931 . S
C4505 C4504 1.370 . S
C4505 C4509 1.408 . S
C4506 C4504 1.363 . S
C4506 C4507 1.370 . S
C4506 C4510 1.524 . S
C4507 C4499 1.503 . S
C4507 C4506 1.370 . S
C4507 C4508 1.403 . S
C4508 C4507 1.403 . S
C4508 C4509 1.404 . S
C4508 C4511 1.539 . S
C4509 C4505 1.408 . S
C4509 C4508 1.404 . S
C4509 H4521 0.930 . S
C4510 C4506 1.524 . S
C4510 H4522 0.956 . S
C4510 H4523 0.961 . S
C4510 H4524 0.961 . S
C4511 C4508 1.539 . S
C4511 H4525 0.958 . S
C4511 H4526 0.961 . S
C4511 H4527 0.960 . S
H4512 C4496 0.931 . S
H4513 C4501 0.929 . S
H4514 C4502 0.960 . S
H4515 C4502 0.962 . S
H4516 C4502 0.960 . S
H4517 C4503 0.961 . S
H4518 C4503 0.961 . S
H4519 C4503 0.961 . S
H4520 C4504 0.931 . S
H4521 C4509 0.930 . S
H4522 C4510 0.956 . S
H4523 C4510 0.961 . S
H4524 C4510 0.961 . S
H4525 C4511 0.958 . S
H4526 C4511 0.961 . S
H4527 C4511 0.960 . S
C4528 C4529 1.391 . S
C4528 C4530 1.394 . S
C4528 H4544 0.931 . S
C4529 C4528 1.391 . S
C4529 C4533 1.376 . S
C4530 C4528 1.394 . S
C4530 C4531 1.369 . S
C4530 C4534 1.531 . S
C4531 C4530 1.369 . S
C4531 C4532 1.410 . S
C4531 C4539 1.503 . S
C4532 C4531 1.410 . S
C4532 C4533 1.392 . S
C4532 C4535 1.511 . S
C4533 C4529 1.376 . S
C4533 C4532 1.392 . S
C4533 H4545 0.929 . S
C4534 C4530 1.531 . S
C4534 H4546 0.960 . S
C4534 H4547 0.962 . S
C4534 H4548 0.960 . S
C4535 C4532 1.511 . S
C4535 H4549 0.961 . S
C4535 H4550 0.961 . S
C4535 H4551 0.961 . S
C4536 C4537 1.370 . S
C4536 C4538 1.363 . S
C4536 H4552 0.931 . S
C4537 C4536 1.370 . S
C4537 C4541 1.408 . S
C4538 C4536 1.363 . S
C4538 C4539 1.370 . S
C4538 C4542 1.524 . S
C4539 C4531 1.503 . S
C4539 C4538 1.370 . S
C4539 C4540 1.403 . S
C4540 C4539 1.403 . S
C4540 C4541 1.404 . S
C4540 C4543 1.539 . S
C4541 C4537 1.408 . S
C4541 C4540 1.404 . S
C4541 H4553 0.930 . S
C4542 C4538 1.524 . S
C4542 H4554 0.956 . S
C4542 H4555 0.961 . S
C4542 H4556 0.961 . S
C4543 C4540 1.539 . S
C4543 H4557 0.958 . S
C4543 H4558 0.961 . S
C4543 H4559 0.960 . S
H4544 C4528 0.931 . S
H4545 C4533 0.929 . S
H4546 C4534 0.960 . S
H4547 C4534 0.962 . S
H4548 C4534 0.960 . S
H4549 C4535 0.961 . S
H4550 C4535 0.961 . S
H4551 C4535 0.961 . S
H4552 C4536 0.931 . S
H4553 C4541 0.930 . S
H4554 C4542 0.956 . S
H4555 C4542 0.961 . S
H4556 C4542 0.961 . S
H4557 C4543 0.958 . S
H4558 C4543 0.961 . S
H4559 C4543 0.960 . S
C4560 C4561 1.391 . S
C4560 C4562 1.394 . S
C4560 H4576 0.931 . S
C4561 C4560 1.391 . S
C4561 C4565 1.376 . S
C4562 C4560 1.394 . S
C4562 C4563 1.369 . S
C4562 C4566 1.531 . S
C4563 C4562 1.369 . S
C4563 C4564 1.410 . S
C4563 C4571 1.503 . S
C4564 C4563 1.410 . S
C4564 C4565 1.392 . S
C4564 C4567 1.511 . S
C4565 C4561 1.376 . S
C4565 C4564 1.392 . S
C4565 H4577 0.929 . S
C4566 C4562 1.531 . S
C4566 H4578 0.960 . S
C4566 H4579 0.962 . S
C4566 H4580 0.960 . S
C4567 C4564 1.511 . S
C4567 H4581 0.961 . S
C4567 H4582 0.961 . S
C4567 H4583 0.961 . S
C4568 C4569 1.370 . S
C4568 C4570 1.363 . S
C4568 H4584 0.931 . S
C4569 C4568 1.370 . S
C4569 C4573 1.408 . S
C4570 C4568 1.363 . S
C4570 C4571 1.370 . S
C4570 C4574 1.524 . S
C4571 C4563 1.503 . S
C4571 C4570 1.370 . S
C4571 C4572 1.403 . S
C4572 C4571 1.403 . S
C4572 C4573 1.404 . S
C4572 C4575 1.539 . S
C4573 C4569 1.408 . S
C4573 C4572 1.404 . S
C4573 H4585 0.930 . S
C4574 C4570 1.524 . S
C4574 H4586 0.956 . S
C4574 H4587 0.961 . S
C4574 H4588 0.961 . S
C4575 C4572 1.539 . S
C4575 H4589 0.958 . S
C4575 H4590 0.961 . S
C4575 H4591 0.960 . S
H4576 C4560 0.931 . S
H4577 C4565 0.929 . S
H4578 C4566 0.960 . S
H4579 C4566 0.962 . S
H4580 C4566 0.960 . S
H4581 C4567 0.961 . S
H4582 C4567 0.961 . S
H4583 C4567 0.961 . S
H4584 C4568 0.931 . S
H4585 C4573 0.930 . S
H4586 C4574 0.956 . S
H4587 C4574 0.961 . S
H4588 C4574 0.961 . S
H4589 C4575 0.958 . S
H4590 C4575 0.961 . S
H4591 C4575 0.960 . S
C4592 C4593 1.391 . S
C4592 C4594 1.394 . S
C4592 H4608 0.931 . S
C4593 C4592 1.391 . S
C4593 C4597 1.376 . S
C4594 C4592 1.394 . S
C4594 C4595 1.369 . S
C4594 C4598 1.531 . S
C4595 C4594 1.369 . S
C4595 C4596 1.410 . S
C4595 C4603 1.503 . S
C4596 C4595 1.410 . S
C4596 C4597 1.392 . S
C4596 C4599 1.511 . S
C4597 C4593 1.376 . S
C4597 C4596 1.392 . S
C4597 H4609 0.929 . S
C4598 C4594 1.531 . S
C4598 H4610 0.960 . S
C4598 H4611 0.962 . S
C4598 H4612 0.960 . S
C4599 C4596 1.511 . S
C4599 H4613 0.961 . S
C4599 H4614 0.961 . S
C4599 H4615 0.961 . S
C4600 C4601 1.370 . S
C4600 C4602 1.363 . S
C4600 H4616 0.931 . S
C4601 C4600 1.370 . S
C4601 C4605 1.408 . S
C4602 C4600 1.363 . S
C4602 C4603 1.370 . S
C4602 C4606 1.524 . S
C4603 C4595 1.503 . S
C4603 C4602 1.370 . S
C4603 C4604 1.403 . S
C4604 C4603 1.403 . S
C4604 C4605 1.404 . S
C4604 C4607 1.539 1_554 S
C4605 C4601 1.408 . S
C4605 C4604 1.404 . S
C4605 H4617 0.930 1_554 S
C4606 C4602 1.524 . S
C4606 H4618 0.956 . S
C4606 H4619 0.961 . S
C4606 H4620 0.961 . S
C4607 C4604 1.539 1_556 S
C4607 H4621 0.958 . S
C4607 H4622 0.961 . S
C4607 H4623 0.960 . S
H4608 C4592 0.931 . S
H4609 C4597 0.929 . S
H4610 C4598 0.960 . S
H4611 C4598 0.962 . S
H4612 C4598 0.960 . S
H4613 C4599 0.961 . S
H4614 C4599 0.961 . S
H4615 C4599 0.961 . S
H4616 C4600 0.931 . S
H4617 C4605 0.930 1_556 S
H4618 C4606 0.956 . S
H4619 C4606 0.961 . S
H4620 C4606 0.961 . S
H4621 C4607 0.958 . S
H4622 C4607 0.961 . S
H4623 C4607 0.960 . S
C4624 C4625 1.391 . S
C4624 C4626 1.394 . S
C4624 H4640 0.931 . S
C4625 C4624 1.391 . S
C4625 C4629 1.376 . S
C4626 C4624 1.394 . S
C4626 C4627 1.369 . S
C4626 C4630 1.531 . S
C4627 C4626 1.369 . S
C4627 C4628 1.410 . S
C4627 C4635 1.503 . S
C4628 C4627 1.410 . S
C4628 C4629 1.392 . S
C4628 C4631 1.511 . S
C4629 C4625 1.376 . S
C4629 C4628 1.392 . S
C4629 H4641 0.929 . S
C4630 C4626 1.531 . S
C4630 H4642 0.960 . S
C4630 H4643 0.962 . S
C4630 H4644 0.960 . S
C4631 C4628 1.511 . S
C4631 H4645 0.961 . S
C4631 H4646 0.961 . S
C4631 H4647 0.961 . S
C4632 C4633 1.370 . S
C4632 C4634 1.363 . S
C4632 H4648 0.931 . S
C4633 C4632 1.370 . S
C4633 C4637 1.408 . S
C4634 C4632 1.363 . S
C4634 C4635 1.370 . S
C4634 C4638 1.524 . S
C4635 C4627 1.503 . S
C4635 C4634 1.370 . S
C4635 C4636 1.403 . S
C4636 C4635 1.403 . S
C4636 C4637 1.404 . S
C4636 C4639 1.539 . S
C4637 C4633 1.408 . S
C4637 C4636 1.404 . S
C4637 H4649 0.930 . S
C4638 C4634 1.524 . S
C4638 H4650 0.956 . S
C4638 H4651 0.961 . S
C4638 H4652 0.961 . S
C4639 C4636 1.539 . S
C4639 H4653 0.958 . S
C4639 H4654 0.961 . S
C4639 H4655 0.960 . S
H4640 C4624 0.931 . S
H4641 C4629 0.929 . S
H4642 C4630 0.960 . S
H4643 C4630 0.962 . S
H4644 C4630 0.960 . S
H4645 C4631 0.961 . S
H4646 C4631 0.961 . S
H4647 C4631 0.961 . S
H4648 C4632 0.931 . S
H4649 C4637 0.930 . S
H4650 C4638 0.956 . S
H4651 C4638 0.961 . S
H4652 C4638 0.961 . S
H4653 C4639 0.958 . S
H4654 C4639 0.961 . S
H4655 C4639 0.960 . S
C4656 C4657 1.391 . S
C4656 C4658 1.394 . S
C4656 H4672 0.931 . S
C4657 C4656 1.391 . S
C4657 C4661 1.376 . S
C4658 C4656 1.394 . S
C4658 C4659 1.369 . S
C4658 C4662 1.531 . S
C4659 C4658 1.369 . S
C4659 C4660 1.410 . S
C4659 C4667 1.503 . S
C4660 C4659 1.410 . S
C4660 C4661 1.392 . S
C4660 C4663 1.511 . S
C4661 C4657 1.376 . S
C4661 C4660 1.392 . S
C4661 H4673 0.929 . S
C4662 C4658 1.531 . S
C4662 H4674 0.960 . S
C4662 H4675 0.977 . S
C4662 H4676 0.960 . S
C4663 C4660 1.511 . S
C4663 H4677 0.961 . S
C4663 H4678 0.961 . S
C4663 H4679 0.961 . S
C4664 C4665 1.338 1_556 S
C4664 C4666 1.355 1_556 S
C4664 H4680 0.973 . S
C4665 C4664 1.338 1_554 S
C4665 C4669 1.408 . S
C4666 C4664 1.355 1_554 S
C4666 C4667 1.370 . S
C4666 C4670 1.524 1_554 S
C4667 C4659 1.503 . S
C4667 C4666 1.370 . S
C4667 C4668 1.403 . S
C4668 C4667 1.403 . S
C4668 C4669 1.404 . S
C4668 C4671 1.539 . S
C4669 C4665 1.408 . S
C4669 C4668 1.404 . S
C4669 H4681 0.930 . S
C4670 C4666 1.524 1_556 S
C4670 H4682 0.956 . S
C4670 H4683 0.961 . S
C4670 H4684 0.961 . S
C4671 C4668 1.539 . S
C4671 H4685 0.958 . S
C4671 H4686 0.961 . S
C4671 H4687 0.960 . S
H4672 C4656 0.931 . S
H4673 C4661 0.929 . S
H4674 C4662 0.960 . S
H4675 C4662 0.977 . S
H4676 C4662 0.960 . S
H4677 C4663 0.961 . S
H4678 C4663 0.961 . S
H4679 C4663 0.961 . S
H4680 C4664 0.973 . S
H4681 C4669 0.930 . S
H4682 C4670 0.956 . S
H4683 C4670 0.961 . S
H4684 C4670 0.961 . S
H4685 C4671 0.958 . S
H4686 C4671 0.961 . S
H4687 C4671 0.960 . S
C4688 C4689 1.391 . S
C4688 C4690 1.394 . S
C4688 H4704 0.931 . S
C4689 C4688 1.391 . S
C4689 C4693 1.376 . S
C4690 C4688 1.394 . S
C4690 C4691 1.369 . S
C4690 C4694 1.531 . S
C4691 C4690 1.369 . S
C4691 C4692 1.410 . S
C4691 C4699 1.503 . S
C4692 C4691 1.410 . S
C4692 C4693 1.392 . S
C4692 C4695 1.511 . S
C4693 C4689 1.376 . S
C4693 C4692 1.392 . S
C4693 H4705 0.929 . S
C4694 C4690 1.531 . S
C4694 H4706 0.960 . S
C4694 H4707 0.962 . S
C4694 H4708 0.960 . S
C4695 C4692 1.511 . S
C4695 H4709 0.961 . S
C4695 H4710 0.961 . S
C4695 H4711 0.961 . S
C4696 C4697 1.370 . S
C4696 C4698 1.363 . S
C4696 H4712 0.931 . S
C4697 C4696 1.370 . S
C4697 C4701 1.408 . S
C4698 C4696 1.363 . S
C4698 C4699 1.370 . S
C4698 C4702 1.524 . S
C4699 C4691 1.503 . S
C4699 C4698 1.370 . S
C4699 C4700 1.403 . S
C4700 C4699 1.403 . S
C4700 C4701 1.404 . S
C4700 C4703 1.539 . S
C4701 C4697 1.408 . S
C4701 C4700 1.404 . S
C4701 H4713 0.930 . S
C4702 C4698 1.524 . S
C4702 H4714 0.956 . S
C4702 H4715 0.961 . S
C4702 H4716 0.961 . S
C4703 C4700 1.539 . S
C4703 H4717 0.958 . S
C4703 H4718 0.961 . S
C4703 H4719 0.960 . S
H4704 C4688 0.931 . S
H4705 C4693 0.929 . S
H4706 C4694 0.960 . S
H4707 C4694 0.962 . S
H4708 C4694 0.960 . S
H4709 C4695 0.961 . S
H4710 C4695 0.961 . S
H4711 C4695 0.961 . S
H4712 C4696 0.931 . S
H4713 C4701 0.930 . S
H4714 C4702 0.956 . S
H4715 C4702 0.961 . S
H4716 C4702 0.961 . S
H4717 C4703 0.958 . S
H4718 C4703 0.961 . S
H4719 C4703 0.960 . S
C4720 C4721 1.391 . S
C4720 C4722 1.394 . S
C4720 H4736 0.931 . S
C4721 C4720 1.391 . S
C4721 C4725 1.376 . S
C4722 C4720 1.394 . S
C4722 C4723 1.369 . S
C4722 C4726 1.531 . S
C4723 C4722 1.369 . S
C4723 C4724 1.410 . S
C4723 C4731 1.503 . S
C4724 C4723 1.410 . S
C4724 C4725 1.392 . S
C4724 C4727 1.511 . S
C4725 C4721 1.376 . S
C4725 C4724 1.392 . S
C4725 H4737 0.929 . S
C4726 C4722 1.531 . S
C4726 H4738 0.960 . S
C4726 H4739 0.962 . S
C4726 H4740 0.960 . S
C4727 C4724 1.511 . S
C4727 H4741 0.961 . S
C4727 H4742 0.961 . S
C4727 H4743 0.961 . S
C4728 C4729 1.370 . S
C4728 C4730 1.363 . S
C4728 H4744 0.931 . S
C4729 C4728 1.370 . S
C4729 C4733 1.408 . S
C4730 C4728 1.363 . S
C4730 C4731 1.370 . S
C4730 C4734 1.524 . S
C4731 C4723 1.503 . S
C4731 C4730 1.370 . S
C4731 C4732 1.403 . S
C4732 C4731 1.403 . S
C4732 C4733 1.404 . S
C4732 C4735 1.539 . S
C4733 C4729 1.408 . S
C4733 C4732 1.404 . S
C4733 H4745 0.930 . S
C4734 C4730 1.524 . S
C4734 H4746 0.956 . S
C4734 H4747 0.961 . S
C4734 H4748 0.961 . S
C4735 C4732 1.539 . S
C4735 H4749 0.958 . S
C4735 H4750 0.961 . S
C4735 H4751 0.960 . S
H4736 C4720 0.931 . S
H4737 C4725 0.929 . S
H4738 C4726 0.960 . S
H4739 C4726 0.962 . S
H4740 C4726 0.960 . S
H4741 C4727 0.961 . S
H4742 C4727 0.961 . S
H4743 C4727 0.961 . S
H4744 C4728 0.931 . S
H4745 C4733 0.930 . S
H4746 C4734 0.956 . S
H4747 C4734 0.961 . S
H4748 C4734 0.961 . S
H4749 C4735 0.958 . S
H4750 C4735 0.961 . S
H4751 C4735 0.960 . S
C1681 C109 2.041 . S
C1689 C392 2.042 . S
C1713 C61 1.651 . S
C1721 C494 1.820 . S
C1745 C74 1.851 . S
C1753 C560 1.883 . S
C1785 C646 1.384 . S
C1777 C96 1.506 . S
C1809 C25 1.416 . S
C1817 C730 1.345 . S
C1849 C812 1.890 . S
C1841 C40 1.838 . S
C1881 C914 1.915 . S
C1873 C46 1.900 . S
C1905 C5 1.775 . S
C1913 C980 2.111 . S
C1945 C410 1.573 . S
C1937 C229 1.337 . S
C1969 C249 0.851 . S
C1977 C478 0.835 . S
C2009 C578 0.982 . S
C2001 C271 0.759 . S
C2041 C644 1.731 . S
C2033 C172 1.658 1_556 S
C2065 C236 1.539 . S
C2073 C728 1.560 . S
C2105 C830 1.277 . S
C2097 C242 1.258 . S
C2137 C898 0.820 . S
C2129 C278 0.876 . S
C2169 C998 1.684 . S
C2161 C179 1.713 . S
C2201 C394 0.925 1_565 S
C2193 C159 0.757 1_556 S
C2225 C285 1.457 1_554 S
C2233 C1082 1.576 . S
C2265 C1150 1.217 . S
C2257 C333 1.256 . S
C2297 C1232 0.786 . S
C2289 C320 0.820 . S
C2321 C123 0.952 . S
C2329 C982 0.947 . S
C2353 C138 1.402 . S
C2361 C562 1.334 . S
C2385 C326 1.732 . S
C2393 C1334 1.720 . S
C2425 C1400 0.834 . S
C2417 C298 0.860 . S
C2457 C403 2.016 . S
C2449 C67 1.957 . S
C2489 C1407 1.747 . S
C2481 C110 1.754 . S
C2513 C88 1.835 . S
C2521 C571 1.858 . S
C2545 C75 1.114 . S
C2553 C1329 1.329 . S
C2585 C741 1.288 . S
C2577 C11 1.365 . S
C2609 C47 1.590 . S
C2617 C1159 1.833 . S
C2649 C903 1.759 1_556 S
C2641 C32 1.680 . S
C2681 C1495 2.113 . S
C2673 C26 2.099 . S
C2713 C399 1.658 . S
C2705 C152 1.695 . S
C2745 C1413 0.829 . S
C2737 C319 0.845 . S
C2769 C124 0.951 . S
C2777 C567 0.961 . S
C2801 C284 1.724 . S
C2809 C1327 1.736 . S
C2833 C145 1.299 . S
C2841 C739 1.496 . S
C2873 C1155 1.135 . S
C2865 C312 1.107 . S
C2897 C117 0.740 . S
C2905 C909 0.683 1_545 S
C2929 C291 1.592 . S
C2937 C1491 1.559 . S
C2961 C194 1.032 . S
C2969 C405 1.004 . S
C2993 C180 1.561 . S
C3001 C1071 1.539 . S
C3025 C263 1.180 . S
C3033 C825 1.141 . S
C3057 C243 0.846 . S
C3065 C1243 0.735 . S
C3097 C1497 0.969 . S
C3089 C277 0.995 . S
C3121 C215 1.234 . S
C3129 C573 1.279 . S
C3161 C651 1.622 . S
C3153 C256 1.583 . S
C3193 C487 0.894 . S
C3185 C200 0.915 . S
C3217 C81 2.045 . S
C3225 C1568 2.043 . S
C3257 C1418 1.818 . S
C3249 C89 1.653 . S
C3281 C102 1.819 . S
C3289 C1652 1.889 . S
C3313 C68 1.505 . S
C3321 C1318 1.378 . S
C3345 C53 1.433 . S
C3353 C1066 1.328 . S
C3385 C1148 1.883 . S
C3377 C12 1.859 1_655 S
C3417 C1250 1.915 . S
C3409 C18 1.900 . S
C3449 C1484 2.111 . S
C3441 C33 1.771 . S
C3481 C1586 1.580 . S
C3473 C257 1.380 . S
C3505 C193 0.881 . S
C3513 C1402 0.812 . S
C3545 C1670 0.986 . S
C3537 C201 0.761 . S
C3577 C1316 1.731 . S
C3569 C214 1.658 . S
C3609 C1064 1.556 . S
C3601 C264 1.544 . S
C3633 C186 1.267 . S
C3641 C1166 1.257 . S
C3673 C1234 0.861 . S
C3665 C208 0.862 . S
C3697 C221 1.711 . S
C3705 C1502 1.684 . S
C3737 C1570 0.930 . S
C3729 C313 0.729 . S
C3761 C131 1.365 . S
C3769 C746 1.586 . S
C3801 C814 1.200 . S
C3793 C151 1.267 1_565 S
C3833 C896 0.786 . S
C3825 C166 0.820 . S
C3865 C1486 0.910 . S
C3857 C305 0.954 . S
C3889 C292 1.402 . S
C3897 C1654 1.333 . S
C3929 C662 1.713 . S
C3921 C144 1.713 . S
C3961 C476 0.838 . S
C3953 C116 0.791 . S
C3985 C95 1.959 . S
C3993 C1579 2.016 . S
C4025 C483 1.750 . S
C4017 C82 1.758 . S
C4049 C60 1.804 . S
C4057 C1663 1.857 . S
C4081 C103 1.211 . S
C4089 C657 1.289 . S
C4113 C39 1.366 . S
C4121 C1077 1.290 . S
C4153 C823 1.833 . S
C4145 C19 1.588 . S
C4177 C4 1.691 . S
C4185 C1239 1.787 . S
C4209 C54 2.102 . S
C4217 C991 2.115 . S
C4249 C1575 1.651 . S
C4241 C334 1.703 . S
C4273 C165 0.819 . S
C4281 C489 0.800 . S
C4313 C1659 0.935 1_655 S
C4305 C306 0.959 . S
C4337 C130 1.715 . S
C4345 C655 1.734 . S
C4369 C327 1.259 . S
C4377 C1075 1.495 . S
C4409 C819 1.125 . S
C4401 C158 1.086 . S
C4433 C299 0.628 . S
C4441 C1245 0.757 . S
C4473 C987 1.575 . S
C4465 C137 1.558 . S
C4505 C1581 0.981 . S
C4497 C250 0.987 . S
C4537 C735 1.530 1_565 S
C4529 C222 1.550 . S
C4561 C235 1.154 . S
C4569 C1161 1.115 . S
C4601 C907 0.724 . S
C4593 C187 0.636 . S
C4625 C207 0.936 . S
C4633 C993 0.944 . S
C4657 C173 1.127 . S
C4665 C1665 1.314 . S
C4697 C1323 1.622 . S
C4689 C228 1.590 . S
C4729 C1411 0.887 . S
C4721 C270 0.849 . S
