# Generated by pormake.
# Topology anh, (6,3)-cn, num edge types: 1
# Building blocks:
#     Node 0, Type 0, BuildingBlock: HISSIN_clean_sbu_0, # of connection points: 6
#     Node 1, Type 0, BuildingBlock: HISSIN_clean_sbu_0, # of connection points: 6
#     Node 2, Type 0, BuildingBlock: HISSIN_clean_sbu_0, # of connection points: 6
#     Node 3, Type 1, BuildingBlock: OLANEW_clean_sbu_2, # of connection points: 3
#     Node 4, Type 1, BuildingBlock: OLANEW_clean_sbu_2, # of connection points: 3
#     Node 5, Type 1, BuildingBlock: OLANEW_clean_sbu_2, # of connection points: 3
#     Node 6, Type 1, BuildingBlock: OLANEW_clean_sbu_2, # of connection points: 3
#     Node 7, Type 1, BuildingBlock: OLANEW_clean_sbu_2, # of connection points: 3
#     Node 8, Type 1, BuildingBlock: OLANEW_clean_sbu_2, # of connection points: 3
#     Edge 9, Type (0, 1), BuildingBlock: OJICUG_clean_linker_0, # of connection points: 2
#     Edge 10, Type (0, 1), BuildingBlock: OJICUG_clean_linker_0, # of connection points: 2
#     Edge 11, Type (0, 1), BuildingBlock: OJICUG_clean_linker_0, # of connection points: 2
#     Edge 12, Type (0, 1), BuildingBlock: OJICUG_clean_linker_0, # of connection points: 2
#     Edge 13, Type (0, 1), BuildingBlock: OJICUG_clean_linker_0, # of connection points: 2
#     Edge 14, Type (0, 1), BuildingBlock: OJICUG_clean_linker_0, # of connection points: 2
#     Edge 15, Type (0, 1), BuildingBlock: OJICUG_clean_linker_0, # of connection points: 2
#     Edge 16, Type (0, 1), BuildingBlock: OJICUG_clean_linker_0, # of connection points: 2
#     Edge 17, Type (0, 1), BuildingBlock: OJICUG_clean_linker_0, # of connection points: 2
#     Edge 18, Type (0, 1), BuildingBlock: OJICUG_clean_linker_0, # of connection points: 2
#     Edge 19, Type (0, 1), BuildingBlock: OJICUG_clean_linker_0, # of connection points: 2
#     Edge 20, Type (0, 1), BuildingBlock: OJICUG_clean_linker_0, # of connection points: 2
#     Edge 21, Type (0, 1), BuildingBlock: OJICUG_clean_linker_0, # of connection points: 2
#     Edge 22, Type (0, 1), BuildingBlock: OJICUG_clean_linker_0, # of connection points: 2
#     Edge 23, Type (0, 1), BuildingBlock: OJICUG_clean_linker_0, # of connection points: 2
#     Edge 24, Type (0, 1), BuildingBlock: OJICUG_clean_linker_0, # of connection points: 2
#     Edge 25, Type (0, 1), BuildingBlock: OJICUG_clean_linker_0, # of connection points: 2
#     Edge 26, Type (0, 1), BuildingBlock: OJICUG_clean_linker_0, # of connection points: 2
# Relax obj value: 0.329
# Max RMSD: 0.145
# Mean RMSD: 0.120
data_MOF--net-anh--node1-HISSIN_clean_sbu_0--node2-OLANEW_clean_sbu_2--edge1-OJICUG_clean_linker_0
_symmetry_space_group_name_H-M    P1
_symmetry_Int_Tables_number       1
_symmetry_cell_setting            triclinic
loop_
_symmetry_equiv_pos_as_xyz
'x, y, z'
_cell_length_a     29.407937
_cell_length_b     29.353665
_cell_length_c     37.622807
_cell_angle_alpha  92.588218
_cell_angle_beta   90.439185
_cell_angle_gamma 120.12812
loop_
_atom_site_label
_atom_site_type_symbol
_atom_site_fract_x
_atom_site_fract_y
_atom_site_fract_z
_atom_type_partial_charge
Eu0 Eu 0.98743 0.43316 0.16064 0.0
Eu1 Eu 0.05223 0.55981 0.16172 0.0
C2 C 0.01816 0.50105 0.23417 0.0
C3 C 0.87466 0.29777 0.16767 0.0
C4 C 0.85108 0.31714 0.19151 0.0
C5 C 0.78818 0.22679 0.14752 0.0
C6 C 0.79654 0.29218 0.19285 0.0
C7 C 0.84299 0.25179 0.14627 0.0
C8 C 0.76449 0.24779 0.17007 0.0
C9 C 0.93049 0.3308 0.16027 0.0
O10 O 0.1132 0.5373 0.14465 0.0
O11 O 0.0736 0.45321 0.16363 0.0
C12 C 0.11492 0.49435 0.1509 0.0
O13 O 1.01351 0.45427 0.10472 0.0
O14 O 0.07286 0.63435 0.19045 0.0
O15 O 0.10878 0.63443 0.14029 0.0
O16 O 0.01801 0.5342 0.10603 0.0
C17 C 1.0137 0.49273 0.08821 0.0
O18 O 0.92311 0.45256 0.1475 0.0
O19 O 0.96686 0.54203 0.16073 0.0
O20 O 0.05869 0.53531 0.21694 0.0
O21 O 0.9388 0.35735 0.1319 0.0
O22 O 0.96181 0.35971 0.18707 0.0
O23 O 0.97869 0.46177 0.21603 0.0
C24 C 0.16208 0.69736 0.18558 0.0
C25 C 0.17282 0.74523 0.20269 0.0
C26 C 0.24973 0.71561 0.20276 0.0
C27 C 0.22174 0.77818 0.21976 0.0
C28 C 0.20064 0.68245 0.186 0.0
C29 C 0.26072 0.76378 0.21982 0.0
C30 C 0.10994 0.66216 0.16875 0.0
C31 C 0.92311 0.4975 0.15144 0.0
H32 H 0.87471 0.3531 0.20787 0.0
H33 H 0.76445 0.19272 0.1296 0.0
H34 H 0.77942 0.30859 0.21106 0.0
H35 H 0.86057 0.2369 0.12726 0.0
H36 H 0.14337 0.7571 0.20287 0.0
H37 H 0.27895 0.70346 0.20263 0.0
H38 H 0.22944 0.81543 0.23233 0.0
H39 H 0.1928 0.64516 0.17342 0.0
Eu40 Eu 0.54486 0.01171 0.48962 0.0
Eu41 Eu 0.48314 0.07606 0.50094 0.0
C42 C 0.52084 0.03932 0.56923 0.0
C43 C 0.58046 0.90612 0.49817 0.0
C44 C 0.52922 0.86869 0.50724 0.0
C45 C 0.61262 0.85124 0.52103 0.0
C46 C 0.51972 0.82264 0.52299 0.0
C47 C 0.62201 0.89705 0.50502 0.0
C48 C 0.56144 0.81373 0.53034 0.0
C49 C 0.59132 0.95606 0.48371 0.0
O50 O 0.56376 0.13755 0.48026 0.0
O51 O 0.61081 0.09749 0.49378 0.0
C52 C 0.60938 0.13919 0.48367 0.0
O53 O 0.54408 0.04335 0.43596 0.0
O54 O 0.46889 0.13237 0.53158 0.0
O55 O 0.42581 0.09668 0.48192 0.0
O56 O 0.46833 0.0449 0.44423 0.0
C57 C 0.50372 0.04569 0.42315 0.0
O58 O 0.45875 0.94935 0.47924 0.0
O59 O 0.41786 0.99011 0.50633 0.0
O60 O 0.5142 0.07637 0.55629 0.0
O61 O 0.55694 0.95317 0.46024 0.0
O62 O 0.6058 0.9953 0.50722 0.0
O63 O 0.52308 1.00394 0.54777 0.0
C64 C 0.45758 0.18705 0.49393 0.0
C65 C 0.49214 0.20472 0.46562 0.0
C66 C 0.47457 0.27601 0.50637 0.0
C67 C 0.5191 0.25801 0.45853 0.0
C68 C 0.44756 0.22259 0.51346 0.0
C69 C 0.5122 0.29451 0.47979 0.0
C70 C 0.43924 0.13425 0.5065 0.0
C71 C 0.41576 0.9476 0.49087 0.0
H72 H 0.4967 0.87542 0.50261 0.0
H73 H 0.6454 0.84505 0.52601 0.0
H74 H 0.48001 0.79461 0.53015 0.0
H75 H 0.6618 0.92571 0.4984 0.0
H76 H 0.50067 0.17788 0.45032 0.0
H77 H 0.46888 0.30328 0.5235 0.0
H78 H 0.54751 0.2711 0.43772 0.0
H79 H 0.42142 0.20964 0.5356 0.0
Eu80 Eu 0.49 0.51036 0.81858 0.0
Eu81 Eu 0.61594 0.5827 0.83333 0.0
C82 C 0.53925 0.54267 0.90122 0.0
C83 C 0.34678 0.47151 0.80483 0.0
C84 C 0.358 0.52354 0.80147 0.0
C85 C 0.25462 0.44347 0.81077 0.0
C86 C 0.31766 0.53544 0.80255 0.0
C87 C 0.29497 0.43159 0.80947 0.0
C88 C 0.2655 0.49553 0.80728 0.0
C89 C 0.38886 0.45863 0.80372 0.0
O90 O 0.60145 0.50046 0.8142 0.0
O91 O 0.51276 0.44704 0.82044 0.0
C92 C 0.55928 0.45278 0.81412 0.0
O93 O 0.52892 0.50993 0.76661 0.0
O94 O 0.68843 0.59848 0.86084 0.0
O95 O 0.69218 0.64559 0.8173 0.0
O96 O 0.59903 0.59175 0.7772 0.0
C97 C 0.56955 0.55205 0.75505 0.0
O98 O 0.50835 0.59548 0.81284 0.0
O99 O 0.59113 0.64469 0.83892 0.0
O100 O 0.58695 0.5676 0.88902 0.0
O101 O 0.42443 0.48242 0.78031 0.0
O102 O 0.40936 0.45792 0.83436 0.0
O103 O 0.49722 0.52016 0.87958 0.0
C104 C 0.75207 0.61517 0.81904 0.0
C105 C 0.73143 0.57912 0.78933 0.0
C106 C 0.82764 0.60317 0.82104 0.0
C107 C 0.75769 0.55363 0.77648 0.0
C108 C 0.80111 0.62843 0.83406 0.0
C109 C 0.80503 0.56392 0.79311 0.0
C110 C 0.71823 0.63112 0.83756 0.0
C111 C 0.54868 0.64159 0.82418 0.0
H112 H 0.39793 0.55491 0.79794 0.0
H113 H 0.21504 0.41199 0.81517 0.0
H114 H 0.3273 0.5758 0.79948 0.0
H115 H 0.28579 0.3913 0.81232 0.0
H116 H 0.69335 0.56815 0.77747 0.0
H117 H 0.86375 0.61138 0.8347 0.0
H118 H 0.73954 0.52373 0.75489 0.0
H119 H 0.81724 0.6557 0.85721 0.0
O120 O 0.45484 0.10912 0.27127 0.0
Cd121 Cd 0.44319 0.12376 0.20941 0.0
O122 O 0.51009 0.08431 0.25283 0.0
Cd123 Cd 0.54741 0.0366 0.25823 0.0
O124 O 0.4974 0.95161 0.25085 0.0
C125 C 0.46159 0.93055 0.27333 0.0
O126 O 0.46336 0.95906 0.3018 0.0
C127 C 0.48583 0.09196 0.27812 0.0
C128 C 0.54194 0.16303 0.18189 0.0
O129 O 0.52649 0.19403 0.19463 0.0
O130 O 0.50925 0.11328 0.1801 0.0
O131 O 0.69309 0.58926 0.60771 0.0
Cd132 Cd 0.72386 0.60583 0.54691 0.0
O133 O 0.61277 0.5466 0.58478 0.0
Cd134 Cd 0.5297 0.52281 0.58643 0.0
O135 O 0.50715 0.58084 0.57504 0.0
C136 C 0.53851 0.62606 0.58973 0.0
O137 O 0.57533 0.63075 0.61213 0.0
C138 C 0.6437 0.56407 0.61206 0.0
C139 C 0.66074 0.51296 0.50693 0.0
O140 O 0.64717 0.54805 0.51095 0.0
O141 O 0.70541 0.52331 0.52021 0.0
O142 O 1.00069 0.51913 0.91867 0.0
Cd143 Cd 1.0066 0.5365 0.85549 0.0
O144 O 0.9819 0.43606 0.9169 0.0
Cd145 Cd 0.9652 0.42603 0.85973 0.0
O146 O 0.93704 0.45171 0.81575 0.0
C147 C 0.88831 0.42899 0.80768 0.0
O148 O 0.85646 0.38407 0.82174 0.0
C149 C 0.99328 0.4787 0.93461 0.0
C150 C 0.0929 0.5322 0.82984 0.0
O151 O 0.04619 0.49298 0.82503 0.0
O152 O 0.09886 0.57454 0.84564 0.0
O153 O 0.06067 0.5814 0.40206 0.0
Cd154 Cd 0.11536 0.6467 0.45571 0.0
O155 O 0.98314 0.5086 0.41003 0.0
Cd156 Cd 0.90182 0.43076 0.41268 0.0
O157 O 0.81985 0.36016 0.42723 0.0
C158 C 0.81362 0.32144 0.44542 0.0
O159 O 0.85614 0.32129 0.45621 0.0
C160 C 0.01972 0.53869 0.3891 0.0
C161 C 0.21479 0.74762 0.4615 0.0
O162 O 0.21345 0.70325 0.45783 0.0
O163 O 0.1701 0.74545 0.46011 0.0
O164 O 0.54012 0.98635 0.73401 0.0
Cd165 Cd 0.5424 0.93409 0.78785 0.0
O166 O 0.54304 0.06316 0.74693 0.0
Cd167 Cd 0.54488 0.14378 0.7505 0.0
O168 O 0.54043 0.21937 0.7664 0.0
C169 C 0.57955 0.26651 0.77229 0.0
O170 O 0.62721 0.27403 0.76873 0.0
C171 C 0.5402 0.02791 0.72365 0.0
C172 C 0.54531 0.83625 0.79383 0.0
O173 O 0.50216 0.83587 0.78737 0.0
O174 O 0.58739 0.88168 0.79511 0.0
O175 O 0.57201 0.51081 0.06563 0.0
Cd176 Cd 0.62506 0.49764 0.1166 0.0
O177 O 0.49448 0.5058 0.07592 0.0
Cd178 Cd 0.41536 0.50643 0.07965 0.0
O179 O 0.34089 0.51158 0.09522 0.0
C180 C 0.30178 0.47749 0.11247 0.0
O181 O 0.30287 0.43554 0.12202 0.0
C182 C 0.53134 0.51292 0.05438 0.0
C183 C 0.72584 0.49954 0.12116 0.0
O184 O 0.68245 0.45711 0.11237 0.0
O185 O 0.7231 0.54175 0.12544 0.0
C186 C 0.20698 0.53261 0.12512 0.0
C187 C 0.16386 0.49148 0.1419 0.0
H188 H 0.28338 0.56105 0.10253 0.0
C189 C 0.16739 0.44654 0.14877 0.0
H190 H 0.20623 0.56796 0.11911 0.0
C191 C 0.21177 0.4427 0.13927 0.0
C192 C 0.25476 0.48345 0.12225 0.0
H193 H 0.13554 0.41381 0.16144 0.0
H194 H 0.21206 0.40709 0.14522 0.0
C195 C 0.25151 0.52864 0.11541 0.0
C196 C 0.70904 0.1898 0.4813 0.0
C197 C 0.66078 0.18766 0.47448 0.0
H198 H 0.79282 0.23179 0.47788 0.0
C199 C 0.66309 0.23103 0.45775 0.0
H200 H 0.70981 0.1578 0.49399 0.0
C201 C 0.71188 0.27441 0.44802 0.0
C202 C 0.76008 0.27606 0.45488 0.0
H203 H 0.62712 0.23126 0.45178 0.0
H204 H 0.7118 0.30664 0.43516 0.0
C205 C 0.75729 0.23283 0.47187 0.0
C206 C 0.50109 0.68976 0.80499 0.0
C207 C 0.54739 0.69165 0.81769 0.0
H208 H 0.46385 0.73252 0.78771 0.0
C209 C 0.5931 0.74192 0.82206 0.0
H210 H 0.46499 0.65224 0.80101 0.0
C211 C 0.59259 0.78825 0.81386 0.0
C212 C 0.54627 0.78631 0.80123 0.0
H213 H 0.62976 0.74557 0.83141 0.0
H214 H 0.62871 0.82582 0.81769 0.0
C215 C 0.50046 0.73613 0.79715 0.0
C216 C 0.82523 0.4514 0.13342 0.0
C217 C 0.87254 0.49811 0.14386 0.0
H218 H 0.74313 0.415 0.11802 0.0
C219 C 0.87093 0.54546 0.14606 0.0
H220 H 0.82421 0.41398 0.13125 0.0
C221 C 0.82404 0.54604 0.13829 0.0
C222 C 0.77677 0.49932 0.12791 0.0
H223 H 0.9061 0.58243 0.15381 0.0
H224 H 0.82486 0.58334 0.14064 0.0
C225 C 0.77838 0.45199 0.12562 0.0
C226 C 0.31485 0.8941 0.48737 0.0
C227 C 0.3638 0.89642 0.48458 0.0
H228 H 0.23033 0.84667 0.48187 0.0
C229 C 0.36277 0.84915 0.47379 0.0
H230 H 0.31351 0.92933 0.49527 0.0
C231 C 0.31497 0.80157 0.46623 0.0
C232 C 0.26603 0.79926 0.46865 0.0
H233 H 0.3992 0.84872 0.47117 0.0
H234 H 0.31647 0.76644 0.45832 0.0
C235 C 0.2669 0.84649 0.47937 0.0
C236 C 0.61315 0.40915 0.79762 0.0
C237 C 0.56392 0.40446 0.80432 0.0
H238 H 0.65648 0.37079 0.78264 0.0
C239 C 0.51923 0.35318 0.80034 0.0
H240 H 0.64865 0.44744 0.80012 0.0
C241 C 0.52369 0.30854 0.78995 0.0
C242 C 0.57305 0.31342 0.78325 0.0
H243 H 0.48045 0.34742 0.805 0.0
H244 H 0.48836 0.27017 0.78719 0.0
C245 C 0.6176 0.36469 0.78742 0.0
C246 C 0.5859 0.76937 0.57568 0.0
C247 C 0.55198 0.76568 0.54783 0.0
H248 H 0.60751 0.72823 0.61126 0.0
C249 C 0.5103 0.71576 0.53607 0.0
H250 H 0.61775 0.80742 0.58571 0.0
C251 C 0.5043 0.67018 0.55073 0.0
C252 C 0.53971 0.67382 0.57755 0.0
H253 H 0.4836 0.71182 0.51459 0.0
H254 H 0.47304 0.63212 0.54023 0.0
C255 C 0.57973 0.72397 0.59047 0.0
C256 C 0.88048 0.54817 0.78492 0.0
C257 C 0.82606 0.52813 0.78597 0.0
H258 H 0.94318 0.53181 0.78971 0.0
C259 C 0.79211 0.47328 0.7863 0.0
H260 H 0.90739 0.59022 0.78412 0.0
C261 C 0.81247 0.43971 0.78968 0.0
C262 C 0.86707 0.46051 0.79273 0.0
H263 H 0.74992 0.45671 0.7872 0.0
H264 H 0.7854 0.39819 0.79283 0.0
C265 C 0.90085 0.51457 0.788 0.0
C266 C 0.3182 0.82581 0.26977 0.0
C267 C 0.31335 0.8002 0.23635 0.0
H268 H 0.36936 0.88625 0.30825 0.0
C269 C 0.35894 0.81262 0.21763 0.0
H270 H 0.28372 0.81627 0.28502 0.0
C271 C 0.40809 0.85274 0.23088 0.0
C272 C 0.41248 0.88092 0.26317 0.0
H273 H 0.35629 0.79344 0.19179 0.0
H274 H 0.44216 0.86346 0.21492 0.0
C275 C 0.36734 0.86559 0.28316 0.0
C276 C 0.53273 0.38858 0.48266 0.0
C277 C 0.54975 0.35175 0.47844 0.0
H278 H 0.55498 0.46929 0.4943 0.0
C279 C 0.604 0.36994 0.47797 0.0
H280 H 0.49115 0.37563 0.48277 0.0
C281 C 0.64044 0.42333 0.48463 0.0
C282 C 0.62336 0.45959 0.49169 0.0
H283 H 0.61841 0.34253 0.47509 0.0
H284 H 0.68188 0.43567 0.48628 0.0
C285 C 0.5693 0.44217 0.48904 0.0
C286 C 0.17258 0.47301 0.79438 0.0
C287 C 0.22267 0.50814 0.8097 0.0
H288 H 0.09234 0.45341 0.78844 0.0
C289 C 0.23079 0.55407 0.82881 0.0
H290 H 0.16533 0.43791 0.77882 0.0
C291 C 0.18909 0.5634 0.83385 0.0
C292 C 0.13846 0.52676 0.8201 0.0
H293 H 0.2688 0.58174 0.8412 0.0
H294 H 0.19607 0.59807 0.84984 0.0
C295 C 0.13086 0.48211 0.79965 0.0
C296 C 0.68569 0.25896 0.17043 0.0
C297 C 0.70675 0.22525 0.16903 0.0
H298 H 0.61686 0.26561 0.17507 0.0
C299 C 0.6724 0.17044 0.16775 0.0
H300 H 0.71111 0.30136 0.17042 0.0
C301 C 0.61818 0.14988 0.16985 0.0
C302 C 0.59753 0.18385 0.17336 0.0
H303 H 0.68753 0.14354 0.16666 0.0
H304 H 0.59279 0.10755 0.17043 0.0
C305 C 0.63167 0.23849 0.17272 0.0
C306 C 1.00004 0.44325 0.0294 0.0
C307 C 1.00887 0.48913 0.04893 0.0
H308 H 0.98796 0.40377 0.978 0.0
C309 C 1.01247 0.53136 0.03057 0.0
H310 H 0.99693 0.40992 0.04275 0.0
C311 C 1.00742 0.52785 0.9935 0.0
C312 C 0.99844 0.48195 0.97392 0.0
H313 H 0.01923 0.56726 0.04479 0.0
H314 H 1.01043 0.5612 0.98023 0.0
C315 C 0.99477 0.43965 0.99227 0.0
C316 C 0.45146 0.04811 0.37161 0.0
C317 C 0.49864 0.0531 0.38503 0.0
H318 H 0.41063 0.05648 0.32739 0.0
C319 C 0.54132 0.06933 0.36253 0.0
H320 H 0.4177 0.03559 0.38819 0.0
C321 C 0.53719 0.08164 0.32756 0.0
C322 C 0.49018 0.07739 0.31448 0.0
H323 H 0.57837 0.07424 0.37226 0.0
H324 H 0.57128 0.09606 0.31118 0.0
C325 C 0.44736 0.0603 0.3368 0.0
C326 C 0.63482 0.59753 0.70867 0.0
C327 C 0.58621 0.55473 0.7178 0.0
H328 H 0.69082 0.63365 0.66841 0.0
C329 C 0.55609 0.51474 0.69159 0.0
H330 H 0.65943 0.62898 0.72815 0.0
C331 C 0.5744 0.51772 0.65696 0.0
C332 C 0.62318 0.56052 0.64815 0.0
H333 H 0.51878 0.48108 0.69788 0.0
H334 H 0.55103 0.48595 0.63739 0.0
C335 C 0.65315 0.6002 0.6744 0.0
C336 C 0.52531 0.07542 0.63284 0.0
C337 C 0.52594 0.03731 0.60884 0.0
H338 H 0.52938 0.10295 0.68746 0.0
C339 C 0.53198 0.99717 0.62315 0.0
H340 H 0.52085 0.10709 0.62296 0.0
C341 C 0.53691 0.9949 0.66006 0.0
C342 C 0.53613 0.03272 0.68422 0.0
H343 H 0.53282 0.96714 0.60582 0.0
H344 H 0.5413 0.96301 0.6696 0.0
C345 C 0.53039 0.0732 0.66999 0.0
C346 C 0.48571 0.51055 0.95764 0.0
C347 C 0.53444 0.53863 0.94099 0.0
H348 H 0.44581 0.48091 0.00665 0.0
C349 C 0.5805 0.5615 0.96289 0.0
H350 H 0.4493 0.49242 0.94186 0.0
C351 C 0.57845 0.55464 -0.0005 0.0
C352 C 0.53028 0.52512 0.01612 0.0
H353 H 0.61891 0.58381 0.95166 0.0
H354 H 0.61525 0.57185 0.01482 0.0
C355 C 0.48364 0.50414 0.99486 0.0
C356 C 0.97427 0.47382 0.29412 0.0
C357 C 0.01745 0.5081 0.27399 0.0
H358 H 0.94046 0.45589 0.346 0.0
C359 C 0.06049 0.55109 0.2923 0.0
H360 H 0.94027 0.44027 0.28102 0.0
C361 C 0.06052 0.55999 0.32917 0.0
C362 C 0.0175 0.52633 0.34955 0.0
H363 H 0.09451 0.57853 0.2781 0.0
H364 H 0.09482 0.59394 0.34165 0.0
C365 C 0.97431 0.48278 0.33145 0.0
loop_
_geom_bond_atom_site_label_1
_geom_bond_atom_site_label_2
_geom_bond_distance
_geom_bond_site_symmetry_2
_ccdc_geom_bond_type
Eu0 C9 2.828 . S
Eu0 O11 2.392 1_655 S
Eu0 O13 2.418 . S
Eu0 O18 2.373 . S
Eu0 O21 2.488 . S
Eu0 O22 2.471 . S
Eu0 O23 2.349 . S
Eu1 O10 2.373 . S
Eu1 O14 2.488 . S
Eu1 O15 2.471 . S
Eu1 O16 2.349 . S
Eu1 O19 2.392 1_455 S
Eu1 O20 2.418 . S
Eu1 C30 2.828 . S
C2 O20 1.244 . S
C2 O23 1.265 1_455 S
C3 C4 1.379 . S
C3 C7 1.373 . S
C3 C9 1.505 . S
C4 C3 1.379 . S
C4 C6 1.369 . S
C4 H32 0.930 . S
C5 C7 1.383 . S
C5 C8 1.382 . S
C5 H33 0.930 . S
C6 C4 1.369 . S
C6 C8 1.392 . S
C6 H34 0.930 . S
C7 C3 1.373 . S
C7 C5 1.383 . S
C7 H35 0.931 . S
C8 C5 1.382 . S
C8 C6 1.392 . S
C9 Eu0 2.828 . S
C9 C3 1.505 . S
C9 O21 1.249 . S
C9 O22 1.244 . S
O10 Eu1 2.373 . S
O10 C12 1.258 . S
O11 Eu0 2.392 1_455 S
O11 C12 1.242 . S
C12 O10 1.258 . S
C12 O11 1.242 . S
O13 Eu0 2.418 . S
O13 C17 1.244 . S
O14 Eu1 2.488 . S
O14 C30 1.249 . S
O15 Eu1 2.471 . S
O15 C30 1.244 . S
O16 Eu1 2.349 . S
O16 C17 1.265 1_455 S
C17 O13 1.244 . S
C17 O16 1.265 1_655 S
O18 Eu0 2.373 . S
O18 C31 1.258 . S
O19 Eu1 2.392 1_655 S
O19 C31 1.242 . S
O20 Eu1 2.418 . S
O20 C2 1.244 . S
O21 Eu0 2.488 . S
O21 C9 1.249 . S
O22 Eu0 2.471 . S
O22 C9 1.244 . S
O23 Eu0 2.349 . S
O23 C2 1.265 1_655 S
C24 C25 1.379 . S
C24 C28 1.373 . S
C24 C30 1.505 . S
C25 C24 1.379 . S
C25 C27 1.369 . S
C25 H36 0.930 . S
C26 C28 1.383 . S
C26 C29 1.382 . S
C26 H37 0.930 . S
C27 C25 1.369 . S
C27 C29 1.392 . S
C27 H38 0.930 . S
C28 C24 1.373 . S
C28 C26 1.383 . S
C28 H39 0.931 . S
C29 C26 1.382 . S
C29 C27 1.392 . S
C30 Eu1 2.828 . S
C30 O14 1.249 . S
C30 O15 1.244 . S
C30 C24 1.505 . S
C31 O18 1.258 . S
C31 O19 1.242 . S
H32 C4 0.930 . S
H33 C5 0.930 . S
H34 C6 0.930 . S
H35 C7 0.931 . S
H36 C25 0.930 . S
H37 C26 0.930 . S
H38 C27 0.930 . S
H39 C28 0.931 . S
Eu40 C49 2.828 . S
Eu40 O51 2.392 1_565 S
Eu40 O53 2.418 . S
Eu40 O58 2.373 . S
Eu40 O61 2.488 . S
Eu40 O62 2.471 . S
Eu40 O63 2.349 . S
Eu41 O50 2.373 . S
Eu41 O54 2.488 . S
Eu41 O55 2.471 . S
Eu41 O56 2.349 . S
Eu41 O59 2.392 1_545 S
Eu41 O60 2.418 . S
Eu41 C70 2.828 . S
C42 O60 1.244 . S
C42 O63 1.265 1_545 S
C43 C44 1.379 . S
C43 C47 1.373 . S
C43 C49 1.505 . S
C44 C43 1.379 . S
C44 C46 1.369 . S
C44 H72 0.930 . S
C45 C47 1.383 . S
C45 C48 1.382 . S
C45 H73 0.930 . S
C46 C44 1.369 . S
C46 C48 1.392 . S
C46 H74 0.930 . S
C47 C43 1.373 . S
C47 C45 1.383 . S
C47 H75 0.931 . S
C48 C45 1.382 . S
C48 C46 1.392 . S
C49 Eu40 2.828 . S
C49 C43 1.505 . S
C49 O61 1.249 . S
C49 O62 1.244 . S
O50 Eu41 2.373 . S
O50 C52 1.258 . S
O51 Eu40 2.392 1_545 S
O51 C52 1.242 . S
C52 O50 1.258 . S
C52 O51 1.242 . S
O53 Eu40 2.418 . S
O53 C57 1.244 1_565 S
O54 Eu41 2.488 . S
O54 C70 1.249 . S
O55 Eu41 2.471 . S
O55 C70 1.244 . S
O56 Eu41 2.349 . S
O56 C57 1.265 . S
C57 O53 1.244 1_545 S
C57 O56 1.265 . S
O58 Eu40 2.373 . S
O58 C71 1.258 . S
O59 Eu41 2.392 1_565 S
O59 C71 1.242 . S
O60 Eu41 2.418 . S
O60 C42 1.244 . S
O61 Eu40 2.488 . S
O61 C49 1.249 . S
O62 Eu40 2.471 . S
O62 C49 1.244 . S
O63 Eu40 2.349 . S
O63 C42 1.265 1_565 S
C64 C65 1.379 . S
C64 C68 1.373 . S
C64 C70 1.505 . S
C65 C64 1.379 . S
C65 C67 1.369 . S
C65 H76 0.930 . S
C66 C68 1.383 . S
C66 C69 1.382 . S
C66 H77 0.930 . S
C67 C65 1.369 . S
C67 C69 1.392 . S
C67 H78 0.930 . S
C68 C64 1.373 . S
C68 C66 1.383 . S
C68 H79 0.931 . S
C69 C66 1.382 . S
C69 C67 1.392 . S
C70 Eu41 2.828 . S
C70 O54 1.249 . S
C70 O55 1.244 . S
C70 C64 1.505 . S
C71 O58 1.258 . S
C71 O59 1.242 . S
H72 C44 0.930 . S
H73 C45 0.930 . S
H74 C46 0.930 . S
H75 C47 0.931 . S
H76 C65 0.930 . S
H77 C66 0.930 . S
H78 C67 0.930 . S
H79 C68 0.931 . S
Eu80 C89 2.828 . S
Eu80 O91 2.392 . S
Eu80 O93 2.418 . S
Eu80 O98 2.373 . S
Eu80 O101 2.488 . S
Eu80 O102 2.471 . S
Eu80 O103 2.349 . S
Eu81 O90 2.373 . S
Eu81 O94 2.488 . S
Eu81 O95 2.471 . S
Eu81 O96 2.349 . S
Eu81 O99 2.392 . S
Eu81 O100 2.418 . S
Eu81 C110 2.828 . S
C82 O100 1.244 . S
C82 O103 1.265 . S
C83 C84 1.379 . S
C83 C87 1.373 . S
C83 C89 1.505 . S
C84 C83 1.379 . S
C84 C86 1.369 . S
C84 H112 0.930 . S
C85 C87 1.383 . S
C85 C88 1.382 . S
C85 H113 0.930 . S
C86 C84 1.369 . S
C86 C88 1.392 . S
C86 H114 0.930 . S
C87 C83 1.373 . S
C87 C85 1.383 . S
C87 H115 0.931 . S
C88 C85 1.382 . S
C88 C86 1.392 . S
C89 Eu80 2.828 . S
C89 C83 1.505 . S
C89 O101 1.249 . S
C89 O102 1.244 . S
O90 Eu81 2.373 . S
O90 C92 1.258 . S
O91 Eu80 2.392 . S
O91 C92 1.242 . S
C92 O90 1.258 . S
C92 O91 1.242 . S
O93 Eu80 2.418 . S
O93 C97 1.244 . S
O94 Eu81 2.488 . S
O94 C110 1.249 . S
O95 Eu81 2.471 . S
O95 C110 1.244 . S
O96 Eu81 2.349 . S
O96 C97 1.265 . S
C97 O93 1.244 . S
C97 O96 1.265 . S
O98 Eu80 2.373 . S
O98 C111 1.258 . S
O99 Eu81 2.392 . S
O99 C111 1.242 . S
O100 Eu81 2.418 . S
O100 C82 1.244 . S
O101 Eu80 2.488 . S
O101 C89 1.249 . S
O102 Eu80 2.471 . S
O102 C89 1.244 . S
O103 Eu80 2.349 . S
O103 C82 1.265 . S
C104 C105 1.379 . S
C104 C108 1.373 . S
C104 C110 1.505 . S
C105 C104 1.379 . S
C105 C107 1.369 . S
C105 H116 0.930 . S
C106 C108 1.383 . S
C106 C109 1.382 . S
C106 H117 0.930 . S
C107 C105 1.369 . S
C107 C109 1.392 . S
C107 H118 0.930 . S
C108 C104 1.373 . S
C108 C106 1.383 . S
C108 H119 0.931 . S
C109 C106 1.382 . S
C109 C107 1.392 . S
C110 Eu81 2.828 . S
C110 O94 1.249 . S
C110 O95 1.244 . S
C110 C104 1.505 . S
C111 O98 1.258 . S
C111 O99 1.242 . S
H112 C84 0.930 . S
H113 C85 0.930 . S
H114 C86 0.930 . S
H115 C87 0.931 . S
H116 C105 0.930 . S
H117 C106 0.930 . S
H118 C107 0.930 . S
H119 C108 0.931 . S
O120 Cd121 2.300 . S
O120 C127 1.275 . S
Cd121 O120 2.300 . S
Cd121 O129 2.381 . S
Cd121 O130 2.378 . S
O122 Cd123 2.385 . S
O122 C127 1.255 1_565 S
Cd123 O122 2.385 . S
Cd123 O124 2.317 . S
O124 Cd123 2.317 . S
O124 C125 1.232 . S
C125 O124 1.232 . S
C125 O126 1.218 . S
O126 C125 1.218 . S
C127 O120 1.275 . S
C127 O122 1.255 1_545 S
C128 O129 1.258 . S
C128 O130 1.256 . S
O129 Cd121 2.381 . S
O129 C128 1.258 . S
O130 Cd121 2.378 . S
O130 C128 1.256 . S
O131 Cd132 2.300 . S
O131 C138 1.275 . S
Cd132 O131 2.300 . S
Cd132 O140 2.381 . S
Cd132 O141 2.378 . S
O133 Cd134 2.385 . S
O133 C138 1.255 . S
Cd134 O133 2.385 . S
Cd134 O135 2.317 . S
O135 Cd134 2.317 . S
O135 C136 1.232 . S
C136 O135 1.232 . S
C136 O137 1.218 . S
O137 C136 1.218 . S
C138 O131 1.275 . S
C138 O133 1.255 . S
C139 O140 1.258 . S
C139 O141 1.256 . S
O140 Cd132 2.381 . S
O140 C139 1.258 . S
O141 Cd132 2.378 . S
O141 C139 1.256 . S
O142 Cd143 2.300 . S
O142 C149 1.275 . S
Cd143 O142 2.300 . S
Cd143 O151 2.381 . S
Cd143 O152 2.378 . S
O144 Cd145 2.385 . S
O144 C149 1.255 1_655 S
Cd145 O144 2.385 . S
Cd145 O146 2.317 . S
O146 Cd145 2.317 . S
O146 C147 1.232 . S
C147 O146 1.232 . S
C147 O148 1.218 . S
O148 C147 1.218 . S
C149 O142 1.275 . S
C149 O144 1.255 1_455 S
C150 O151 1.258 . S
C150 O152 1.256 . S
O151 Cd143 2.381 . S
O151 C150 1.258 . S
O152 Cd143 2.378 . S
O152 C150 1.256 . S
O153 Cd154 2.300 . S
O153 C160 1.272 1_455 S
Cd154 O153 2.300 . S
Cd154 O162 2.381 . S
Cd154 O163 2.378 . S
O155 Cd156 2.385 . S
O155 C160 1.258 . S
Cd156 O155 2.385 . S
Cd156 O157 2.317 . S
O157 Cd156 2.317 . S
O157 C158 1.232 . S
C158 O157 1.232 . S
C158 O159 1.218 . S
O159 C158 1.218 . S
C160 O153 1.272 1_655 S
C160 O155 1.258 . S
C161 O162 1.258 . S
C161 O163 1.256 . S
O162 Cd154 2.381 . S
O162 C161 1.258 . S
O163 Cd154 2.378 . S
O163 C161 1.256 . S
O164 Cd165 2.300 . S
O164 C171 1.275 1_565 S
Cd165 O164 2.300 . S
Cd165 O173 2.381 . S
Cd165 O174 2.378 . S
O166 Cd167 2.385 . S
O166 C171 1.255 . S
Cd167 O166 2.385 . S
Cd167 O168 2.317 . S
O168 Cd167 2.317 . S
O168 C169 1.232 . S
C169 O168 1.232 . S
C169 O170 1.218 . S
O170 C169 1.218 . S
C171 O164 1.275 1_545 S
C171 O166 1.255 . S
C172 O173 1.258 . S
C172 O174 1.256 . S
O173 Cd165 2.381 . S
O173 C172 1.258 . S
O174 Cd165 2.378 . S
O174 C172 1.256 . S
O175 Cd176 2.300 . S
O175 C182 1.275 . S
Cd176 O175 2.300 . S
Cd176 O184 2.381 . S
Cd176 O185 2.378 . S
O177 Cd178 2.385 . S
O177 C182 1.255 . S
Cd178 O177 2.385 . S
Cd178 O179 2.317 . S
O179 Cd178 2.317 . S
O179 C180 1.232 . S
C180 O179 1.232 . S
C180 O181 1.218 . S
O181 C180 1.218 . S
C182 O175 1.275 . S
C182 O177 1.255 . S
C183 O184 1.258 . S
C183 O185 1.256 . S
O184 Cd176 2.381 . S
O184 C183 1.258 . S
O185 Cd176 2.378 . S
O185 C183 1.256 . S
C186 C187 1.387 . S
C186 H190 0.950 . S
C186 C195 1.390 . S
C187 C186 1.387 . S
C187 C189 1.387 . S
H188 C195 0.950 . S
C189 C187 1.387 . S
C189 C191 1.390 . S
C189 H193 0.950 . S
H190 C186 0.950 . S
C191 C189 1.390 . S
C191 C192 1.387 . S
C191 H194 0.950 . S
C192 C191 1.387 . S
C192 C195 1.387 . S
H193 C189 0.950 . S
H194 C191 0.950 . S
C195 C186 1.390 . S
C195 H188 0.950 . S
C195 C192 1.387 . S
C196 C197 1.387 . S
C196 H200 0.950 . S
C196 C205 1.390 . S
C197 C196 1.387 . S
C197 C199 1.387 . S
H198 C205 0.950 . S
C199 C197 1.387 . S
C199 C201 1.390 . S
C199 H203 0.950 . S
H200 C196 0.950 . S
C201 C199 1.390 . S
C201 C202 1.387 . S
C201 H204 0.950 . S
C202 C201 1.387 . S
C202 C205 1.387 . S
H203 C199 0.950 . S
H204 C201 0.950 . S
C205 C196 1.390 . S
C205 H198 0.950 . S
C205 C202 1.387 . S
C206 C207 1.387 . S
C206 H210 0.950 . S
C206 C215 1.390 . S
C207 C206 1.387 . S
C207 C209 1.387 . S
H208 C215 0.950 . S
C209 C207 1.387 . S
C209 C211 1.390 . S
C209 H213 0.950 . S
H210 C206 0.950 . S
C211 C209 1.390 . S
C211 C212 1.387 . S
C211 H214 0.950 . S
C212 C211 1.387 . S
C212 C215 1.387 . S
H213 C209 0.950 . S
H214 C211 0.950 . S
C215 C206 1.390 . S
C215 H208 0.950 . S
C215 C212 1.387 . S
C216 C217 1.387 . S
C216 H220 0.950 . S
C216 C225 1.390 . S
C217 C216 1.387 . S
C217 C219 1.387 . S
H218 C225 0.950 . S
C219 C217 1.387 . S
C219 C221 1.390 . S
C219 H223 0.950 . S
H220 C216 0.950 . S
C221 C219 1.390 . S
C221 C222 1.387 . S
C221 H224 0.950 . S
C222 C221 1.387 . S
C222 C225 1.387 . S
H223 C219 0.950 . S
H224 C221 0.950 . S
C225 C216 1.390 . S
C225 H218 0.950 . S
C225 C222 1.387 . S
C226 C227 1.387 . S
C226 H230 0.950 . S
C226 C235 1.390 . S
C227 C226 1.387 . S
C227 C229 1.387 . S
H228 C235 0.950 . S
C229 C227 1.387 . S
C229 C231 1.390 . S
C229 H233 0.950 . S
H230 C226 0.950 . S
C231 C229 1.390 . S
C231 C232 1.387 . S
C231 H234 0.950 . S
C232 C231 1.387 . S
C232 C235 1.387 . S
H233 C229 0.950 . S
H234 C231 0.950 . S
C235 C226 1.390 . S
C235 H228 0.950 . S
C235 C232 1.387 . S
C236 C237 1.387 . S
C236 H240 0.950 . S
C236 C245 1.390 . S
C237 C236 1.387 . S
C237 C239 1.387 . S
H238 C245 0.950 . S
C239 C237 1.387 . S
C239 C241 1.390 . S
C239 H243 0.950 . S
H240 C236 0.950 . S
C241 C239 1.390 . S
C241 C242 1.387 . S
C241 H244 0.950 . S
C242 C241 1.387 . S
C242 C245 1.387 . S
H243 C239 0.950 . S
H244 C241 0.950 . S
C245 C236 1.390 . S
C245 H238 0.950 . S
C245 C242 1.387 . S
C246 C247 1.387 . S
C246 H250 0.950 . S
C246 C255 1.390 . S
C247 C246 1.387 . S
C247 C249 1.387 . S
H248 C255 0.950 . S
C249 C247 1.387 . S
C249 C251 1.390 . S
C249 H253 0.950 . S
H250 C246 0.950 . S
C251 C249 1.390 . S
C251 C252 1.387 . S
C251 H254 0.950 . S
C252 C251 1.387 . S
C252 C255 1.387 . S
H253 C249 0.950 . S
H254 C251 0.950 . S
C255 C246 1.390 . S
C255 H248 0.950 . S
C255 C252 1.387 . S
C256 C257 1.387 . S
C256 H260 0.950 . S
C256 C265 1.390 . S
C257 C256 1.387 . S
C257 C259 1.387 . S
H258 C265 0.950 . S
C259 C257 1.387 . S
C259 C261 1.390 . S
C259 H263 0.950 . S
H260 C256 0.950 . S
C261 C259 1.390 . S
C261 C262 1.387 . S
C261 H264 0.950 . S
C262 C261 1.387 . S
C262 C265 1.387 . S
H263 C259 0.950 . S
H264 C261 0.950 . S
C265 C256 1.390 . S
C265 H258 0.950 . S
C265 C262 1.387 . S
C266 C267 1.387 . S
C266 H270 0.950 . S
C266 C275 1.390 . S
C267 C266 1.387 . S
C267 C269 1.387 . S
H268 C275 0.950 . S
C269 C267 1.387 . S
C269 C271 1.390 . S
C269 H273 0.950 . S
H270 C266 0.950 . S
C271 C269 1.390 . S
C271 C272 1.387 . S
C271 H274 0.950 . S
C272 C271 1.387 . S
C272 C275 1.387 . S
H273 C269 0.950 . S
H274 C271 0.950 . S
C275 C266 1.390 . S
C275 H268 0.950 . S
C275 C272 1.387 . S
C276 C277 1.387 . S
C276 H280 0.950 . S
C276 C285 1.390 . S
C277 C276 1.387 . S
C277 C279 1.387 . S
H278 C285 0.950 . S
C279 C277 1.387 . S
C279 C281 1.390 . S
C279 H283 0.950 . S
H280 C276 0.950 . S
C281 C279 1.390 . S
C281 C282 1.387 . S
C281 H284 0.950 . S
C282 C281 1.387 . S
C282 C285 1.387 . S
H283 C279 0.950 . S
H284 C281 0.950 . S
C285 C276 1.390 . S
C285 H278 0.950 . S
C285 C282 1.387 . S
C286 C287 1.387 . S
C286 H290 0.950 . S
C286 C295 1.390 . S
C287 C286 1.387 . S
C287 C289 1.387 . S
H288 C295 0.950 . S
C289 C287 1.387 . S
C289 C291 1.390 . S
C289 H293 0.950 . S
H290 C286 0.950 . S
C291 C289 1.390 . S
C291 C292 1.387 . S
C291 H294 0.950 . S
C292 C291 1.387 . S
C292 C295 1.387 . S
H293 C289 0.950 . S
H294 C291 0.950 . S
C295 C286 1.390 . S
C295 H288 0.950 . S
C295 C292 1.387 . S
C296 C297 1.387 . S
C296 H300 0.950 . S
C296 C305 1.390 . S
C297 C296 1.387 . S
C297 C299 1.387 . S
H298 C305 0.950 . S
C299 C297 1.387 . S
C299 C301 1.390 . S
C299 H303 0.950 . S
H300 C296 0.950 . S
C301 C299 1.390 . S
C301 C302 1.387 . S
C301 H304 0.950 . S
C302 C301 1.387 . S
C302 C305 1.387 . S
H303 C299 0.950 . S
H304 C301 0.950 . S
C305 C296 1.390 . S
C305 H298 0.950 . S
C305 C302 1.387 . S
C306 C307 1.387 . S
C306 H310 0.950 . S
C306 C315 1.390 . S
C307 C306 1.387 . S
C307 C309 1.387 1_455 S
H308 C315 0.950 1_556 S
C309 C307 1.387 1_655 S
C309 C311 1.390 . S
C309 H313 0.950 . S
H310 C306 0.950 . S
C311 C309 1.390 . S
C311 C312 1.387 1_654 S
C311 H314 0.950 1_554 S
C312 C311 1.387 1_456 S
C312 C315 1.387 1_556 S
H313 C309 0.950 . S
H314 C311 0.950 1_556 S
C315 C306 1.390 . S
C315 H308 0.950 1_554 S
C315 C312 1.387 1_554 S
C316 C317 1.387 . S
C316 H320 0.950 . S
C316 C325 1.390 . S
C317 C316 1.387 . S
C317 C319 1.387 1_545 S
H318 C325 0.950 . S
C319 C317 1.387 1_565 S
C319 C321 1.390 . S
C319 H323 0.950 . S
H320 C316 0.950 . S
C321 C319 1.390 . S
C321 C322 1.387 1_565 S
C321 H324 0.950 . S
C322 C321 1.387 1_545 S
C322 C325 1.387 . S
H323 C319 0.950 . S
H324 C321 0.950 . S
C325 C316 1.390 . S
C325 H318 0.950 . S
C325 C322 1.387 . S
C326 C327 1.387 . S
C326 H330 0.950 . S
C326 C335 1.390 . S
C327 C326 1.387 . S
C327 C329 1.387 . S
H328 C335 0.950 . S
C329 C327 1.387 . S
C329 C331 1.390 . S
C329 H333 0.950 . S
H330 C326 0.950 . S
C331 C329 1.390 . S
C331 C332 1.387 . S
C331 H334 0.950 . S
C332 C331 1.387 . S
C332 C335 1.387 . S
H333 C329 0.950 . S
H334 C331 0.950 . S
C335 C326 1.390 . S
C335 H328 0.950 . S
C335 C332 1.387 . S
C336 C337 1.387 . S
C336 H340 0.950 . S
C336 C345 1.390 . S
C337 C336 1.387 . S
C337 C339 1.387 1_545 S
H338 C345 0.950 . S
C339 C337 1.387 1_565 S
C339 C341 1.390 . S
C339 H343 0.950 . S
H340 C336 0.950 . S
C341 C339 1.390 . S
C341 C342 1.387 1_565 S
C341 H344 0.950 . S
C342 C341 1.387 1_545 S
C342 C345 1.387 . S
H343 C339 0.950 . S
H344 C341 0.950 . S
C345 C336 1.390 . S
C345 H338 0.950 . S
C345 C342 1.387 . S
C346 C347 1.387 . S
C346 H350 0.950 . S
C346 C355 1.390 . S
C347 C346 1.387 . S
C347 C349 1.387 . S
H348 C355 0.950 . S
C349 C347 1.387 . S
C349 C351 1.390 . S
C349 H353 0.950 . S
H350 C346 0.950 . S
C351 C349 1.390 . S
C351 C352 1.387 1_556 S
C351 H354 0.950 1_556 S
C352 C351 1.387 1_554 S
C352 C355 1.387 1_554 S
H353 C349 0.950 . S
H354 C351 0.950 1_554 S
C355 C346 1.390 . S
C355 H348 0.950 . S
C355 C352 1.387 1_556 S
C356 C357 1.387 . S
C356 H360 0.950 . S
C356 C365 1.390 . S
C357 C356 1.387 . S
C357 C359 1.387 1_655 S
H358 C365 0.950 . S
C359 C357 1.387 1_455 S
C359 C361 1.390 . S
C359 H363 0.950 . S
H360 C356 0.950 . S
C361 C359 1.390 . S
C361 C362 1.387 1_455 S
C361 H364 0.950 . S
C362 C361 1.387 1_655 S
C362 C365 1.387 . S
H363 C359 0.950 . S
H364 C361 0.950 . S
C365 C356 1.390 . S
C365 H358 0.950 . S
C365 C362 1.387 . S
C187 C12 3.156 . S
C192 C180 2.804 . S
C197 C52 3.163 . S
C202 C158 2.816 . S
C207 C111 2.966 . S
C212 C172 2.883 . S
C217 C31 3.057 . S
C222 C183 2.960 . S
C232 C161 2.956 . S
C227 C71 3.056 . S
C242 C169 2.864 . S
C237 C92 3.228 . S
C247 C48 0.757 . S
C252 C136 0.745 . S
C257 C109 0.788 . S
C262 C147 0.770 . S
C267 C29 0.767 . S
C272 C125 0.754 . S
C282 C139 0.520 . S
C277 C69 0.601 . S
C292 C150 0.401 . S
C287 C88 0.406 . S
C297 C8 0.421 . S
C302 C128 0.387 . S
C312 C149 1.069 . S
C307 C17 1.119 1_455 S
C317 C57 1.128 . S
C322 C127 1.071 . S
C327 C97 1.154 . S
C332 C138 1.083 . S
C342 C171 1.696 . S
C337 C42 1.705 . S
C352 C182 1.697 . S
C347 C82 1.765 . S
C357 C2 1.769 1_655 S
C362 C160 1.703 . S
