# Generated by pormake.
# Topology pth, (4,4)-cn, num edge types: 1
# Building blocks:
#     Node 0, Type 0, BuildingBlock: TATPOV_clean_sbu_0, # of connection points: 4
#     Node 1, Type 0, BuildingBlock: TATPOV_clean_sbu_0, # of connection points: 4
#     Node 2, Type 0, BuildingBlock: TATPOV_clean_sbu_0, # of connection points: 4
#     Node 3, Type 1, BuildingBlock: KOZSID_clean_sbu_0, # of connection points: 4
#     Node 4, Type 1, BuildingBlock: KOZSID_clean_sbu_0, # of connection points: 4
#     Node 5, Type 1, BuildingBlock: KOZSID_clean_sbu_0, # of connection points: 4
#     Edge 6, Type (0, 1), BuildingBlock: TEMPAE_clean_linker_10, # of connection points: 2
#     Edge 7, Type (0, 1), BuildingBlock: TEMPAE_clean_linker_10, # of connection points: 2
#     Edge 8, Type (0, 1), BuildingBlock: TEMPAE_clean_linker_10, # of connection points: 2
#     Edge 9, Type (0, 1), BuildingBlock: TEMPAE_clean_linker_10, # of connection points: 2
#     Edge 10, Type (0, 1), BuildingBlock: TEMPAE_clean_linker_10, # of connection points: 2
#     Edge 11, Type (0, 1), BuildingBlock: TEMPAE_clean_linker_10, # of connection points: 2
#     Edge 12, Type (0, 1), BuildingBlock: TEMPAE_clean_linker_10, # of connection points: 2
#     Edge 13, Type (0, 1), BuildingBlock: TEMPAE_clean_linker_10, # of connection points: 2
#     Edge 14, Type (0, 1), BuildingBlock: TEMPAE_clean_linker_10, # of connection points: 2
#     Edge 15, Type (0, 1), BuildingBlock: TEMPAE_clean_linker_10, # of connection points: 2
#     Edge 16, Type (0, 1), BuildingBlock: TEMPAE_clean_linker_10, # of connection points: 2
#     Edge 17, Type (0, 1), BuildingBlock: TEMPAE_clean_linker_10, # of connection points: 2
# Relax obj value: 0.036
# Max RMSD: 0.165
# Mean RMSD: 0.080
data_MOF--net-pth--node1-TATPOV_clean_sbu_0--node2-KOZSID_clean_sbu_0--edge1-TEMPAE_clean_linker_10
_symmetry_space_group_name_H-M    P1
_symmetry_Int_Tables_number       1
_symmetry_cell_setting            triclinic
loop_
_symmetry_equiv_pos_as_xyz
'x, y, z'
_cell_length_a     27.123451
_cell_length_b     26.792637
_cell_length_c     59.633219
_cell_angle_alpha  89.798608
_cell_angle_beta   89.655518
_cell_angle_gamma 121.18019
loop_
_atom_site_label
_atom_site_type_symbol
_atom_site_fract_x
_atom_site_fract_y
_atom_site_fract_z
_atom_type_partial_charge
Zn0 Zn 0.19569 0.04038 0.0247 0.0
Zn1 Zn 0.13898 0.09004 0.04132 0.0
O2 O 0.13641 0.03847 0.06748 0.0
O3 O 0.18655 0.00092 0.05475 0.0
O4 O 0.10675 0.13654 0.05424 0.0
O5 O 0.26606 0.118 0.01675 0.0
O6 O 0.21669 0.15648 0.02909 0.0
C7 C 0.15696 0.00556 0.07023 0.0
C8 C 0.08702 0.00719 0.00247 0.0
O9 O 0.08338 0.04021 0.01685 0.0
O10 O 0.13046 0.00119 0.00218 0.0
C11 C 0.061 0.11668 0.06594 0.0
O12 O 0.02958 0.06036 0.07006 0.0
C13 C 0.2621 0.16243 0.02004 0.0
Zn14 Zn 0.17249 0.18023 0.33283 0.0
Zn15 Zn 0.08678 0.13088 0.36327 0.0
O16 O 0.15841 0.15059 0.38176 0.0
O17 O 0.22868 0.18831 0.35665 0.0
O18 O 0.02365 0.10578 0.3864 0.0
O19 O 0.15671 0.24449 0.32573 0.0
O20 O 0.08276 0.19815 0.34869 0.0
C21 C 0.21126 0.17175 0.37658 0.0
C22 C 0.0858 0.05851 0.32402 0.0
O23 O 0.06318 0.06099 0.3425 0.0
O24 O 0.13028 0.10361 0.31629 0.0
C25 C 0.03236 0.14554 0.40024 0.0
O26 O 0.08181 0.19534 0.39931 0.0
C27 C 0.11212 0.23957 0.33485 0.0
Zn28 Zn 0.13224 0.95539 0.71646 0.0
Zn29 Zn 0.08298 0.00884 0.69714 0.0
O30 O 0.1351 0.00449 0.67278 0.0
O31 O 0.16483 0.94876 0.68698 0.0
O32 O 0.03859 0.03786 0.6801 0.0
O33 O 0.05616 0.88999 0.72829 0.0
O34 O 0.01678 0.93402 0.71166 0.0
C35 C 0.16314 0.97851 0.67081 0.0
C36 C 0.169 0.07264 0.73335 0.0
O37 O 0.13115 0.07085 0.72028 0.0
O38 O 0.17786 0.03058 0.73414 0.0
C39 C 0.0107 0.00754 0.66327 0.0
O40 O 0.01452 0.9621 0.65793 0.0
C41 C 0.01184 0.89205 0.72355 0.0
C42 C 0.06727 0.64952 0.1693 0.0
C43 C 0.12059 0.68487 0.15908 0.0
C44 C 0.15544 0.66492 0.16622 0.0
C45 C 0.12142 0.61862 0.18025 0.0
N46 N 0.0676 0.60841 0.18227 0.0
Co47 Co 0.00438 0.54679 0.20061 0.0
N48 N 0.05965 0.54006 0.21997 0.0
C49 C 0.11484 0.55832 0.21453 0.0
C50 C 0.14247 0.54599 0.23081 0.0
C51 C 0.10202 0.51752 0.24734 0.0
C52 C 0.05144 0.51393 0.24023 0.0
N53 N 0.94075 0.48469 0.21884 0.0
C54 C 0.94213 0.46293 0.2392 0.0
C55 C 0.88726 0.41902 0.24579 0.0
C56 C 0.8508 0.41241 0.22867 0.0
C57 C 0.88514 0.45267 0.21266 0.0
N58 N 0.94996 0.55437 0.18099 0.0
C59 C 0.89362 0.51494 0.17851 0.0
C60 C 0.8669 0.53493 0.16475 0.0
C61 C 0.90921 0.59029 0.15831 0.0
C62 C 0.95958 0.60081 0.16845 0.0
N63 N 0.00163 0.48739 0.18079 0.0
C64 C 0.0043 0.4047 0.15306 0.0
C65 C 0.99874 0.39678 0.17635 0.0
C66 C 0.99756 0.43843 0.18984 0.0
C67 C 0.00661 0.45412 0.14385 0.0
C68 C 0.00517 0.49493 0.15801 0.0
N69 N 0.00695 0.60583 0.22041 0.0
C70 C 0.95777 0.64631 0.23979 0.0
C71 C 0.01048 0.6939 0.24666 0.0
C72 C 0.06137 0.69575 0.24046 0.0
C73 C 0.05865 0.65125 0.22741 0.0
C74 C 0.95696 0.60287 0.22671 0.0
H75 H 0.09844 0.65411 0.22262 0.0
H76 H 0.9158 0.56727 0.22141 0.0
H77 H 0.99419 0.43117 0.20768 0.0
H78 H 0.008 0.53313 0.15058 0.0
C79 C 0.14103 0.59281 0.19538 0.0
C80 C 0.01641 0.6541 0.16581 0.0
C81 C 0.995 0.47782 0.25141 0.0
C82 C 0.86579 0.46733 0.19335 0.0
H83 H 0.13303 0.72142 0.14784 0.0
H84 H 0.2009 0.68401 0.1626 0.0
H85 H 0.1869 0.55695 0.23081 0.0
H86 H 0.10878 0.49968 0.2625 0.0
H87 H 0.87509 0.39356 0.26114 0.0
H88 H 0.80461 0.38276 0.22823 0.0
H89 H 0.8214 0.51357 0.16107 0.0
H90 H 0.90323 0.61968 0.14781 0.0
H91 H 0.99563 0.3587 0.18419 0.0
H92 H 0.01113 0.46207 0.12593 0.0
H93 H 0.91734 0.64262 0.24444 0.0
H94 H 0.10316 0.73203 0.24516 0.0
C95 C 0.49406 0.02696 0.55939 0.0
C96 C 0.44945 0.96994 0.56323 0.0
C97 C 0.4573 0.93585 0.54848 0.0
C98 C 0.5062 0.97374 0.53667 0.0
N99 N 0.53101 0.02984 0.54335 0.0
Co100 Co 0.6013 0.09942 0.53022 0.0
N101 N 0.61051 0.04976 0.50746 0.0
C102 C 0.57674 0.99132 0.50496 0.0
C103 C 0.59545 0.96917 0.48855 0.0
C104 C 0.64497 0.01604 0.48041 0.0
C105 C 0.65353 0.06415 0.49243 0.0
N106 N 0.67062 0.1692 0.51655 0.0
C107 C 0.7074 0.17216 0.50037 0.0
C108 C 0.75125 0.22924 0.49622 0.0
C109 C 0.74225 0.26353 0.5105 0.0
C110 C 0.69366 0.2256 0.52252 0.0
N111 N 0.59306 0.14872 0.55349 0.0
C112 C 0.62857 0.20675 0.5566 0.0
C113 C 0.61011 0.22899 0.57306 0.0
C114 C 0.5594 0.18267 0.58072 0.0
C115 C 0.5499 0.13447 0.56851 0.0
N116 N 0.65195 0.08778 0.55078 0.0
C117 C 0.72903 0.07277 0.57731 0.0
C118 C 0.7383 0.12824 0.5731 0.0
C119 C 0.69942 0.13466 0.56003 0.0
C120 C 0.6797 0.02471 0.56854 0.0
C121 C 0.64208 0.03314 0.55537 0.0
N122 N 0.55081 0.11139 0.50968 0.0
C123 C 0.51495 0.1719 0.49625 0.0
C124 C 0.47521 0.12746 0.48236 0.0
C125 C 0.47461 0.07486 0.48229 0.0
C126 C 0.51193 0.06761 0.49613 0.0
C127 C 0.55248 0.16338 0.50929 0.0
H128 H 0.50827 0.02609 0.49563 0.0
H129 H 0.582 0.19952 0.51911 0.0
H130 H 0.70922 0.17815 0.55744 0.0
H131 H 0.60589 0.99489 0.54879 0.0
C132 C 0.5289 0.95822 0.51882 0.0
C133 C 0.49742 0.0771 0.57043 0.0
C134 C 0.70476 0.12186 0.48982 0.0
C135 C 0.67349 0.24047 0.54146 0.0
H136 H 0.41402 0.95476 0.57506 0.0
H137 H 0.42986 0.88922 0.54627 0.0
H138 H 0.57623 0.9241 0.48354 0.0
H139 H 0.67252 0.01482 0.46749 0.0
H140 H 0.7872 0.24434 0.48467 0.0
H141 H 0.76958 0.31018 0.51268 0.0
H142 H 0.62936 0.27414 0.57795 0.0
H143 H 0.53154 0.18496 0.59318 0.0
H144 H 0.77548 0.16671 0.57987 0.0
H145 H 0.67088 0.98084 0.57131 0.0
H146 H 0.51696 0.21322 0.49741 0.0
H147 H 0.44575 0.03923 0.47154 0.0
C148 C 0.67508 0.58515 0.83027 0.0
C149 C 0.70963 0.56629 0.82092 0.0
C150 C 0.70542 0.52355 0.83471 0.0
C151 C 0.66884 0.5188 0.85163 0.0
N152 N 0.64907 0.55569 0.84944 0.0
Co153 Co 0.59484 0.56315 0.87022 0.0
N154 N 0.59443 0.50534 0.89187 0.0
C155 C 0.62478 0.47827 0.89011 0.0
C156 C 0.61637 0.44158 0.90769 0.0
C157 C 0.57822 0.44521 0.92153 0.0
C158 C 0.5655 0.48411 0.91151 0.0
N159 N 0.539 0.56897 0.89062 0.0
C160 C 0.51325 0.53955 0.90986 0.0
C161 C 0.47517 0.55483 0.91836 0.0
C162 C 0.47641 0.59497 0.90385 0.0
C163 C 0.51499 0.60183 0.88739 0.0
N164 N 0.59734 0.62285 0.84902 0.0
C165 C 0.5687 0.6516 0.85114 0.0
C166 C 0.58108 0.69188 0.83447 0.0
C167 C 0.62069 0.68941 0.82106 0.0
C168 C 0.63011 0.64756 0.83039 0.0
N169 N 0.52872 0.49935 0.85383 0.0
C170 C 0.43669 0.40982 0.82978 0.0
C171 C 0.4422 0.46421 0.83191 0.0
C172 C 0.48776 0.50779 0.84419 0.0
C173 C 0.47721 0.40041 0.84005 0.0
C174 C 0.52283 0.44557 0.85172 0.0
N175 N 0.66069 0.62677 0.88653 0.0
C176 C 0.70582 0.72045 0.90482 0.0
C177 C 0.75366 0.71641 0.91009 0.0
C178 C 0.75464 0.66724 0.90319 0.0
C179 C 0.70825 0.62347 0.89136 0.0
C180 C 0.65995 0.67525 0.89324 0.0
H181 H 0.71184 0.58741 0.88629 0.0
H182 H 0.62427 0.6804 0.88999 0.0
H183 H 0.48881 0.54787 0.84554 0.0
H184 H 0.55291 0.43585 0.8587 0.0
C185 C 0.6573 0.48477 0.87091 0.0
C186 C 0.67126 0.63355 0.82112 0.0
C187 C 0.52287 0.49637 0.92056 0.0
C188 C 0.53047 0.63963 0.869 0.0
H189 H 0.73646 0.58274 0.80602 0.0
H190 H 0.72809 0.50031 0.83305 0.0
H191 H 0.63457 0.41424 0.90987 0.0
H192 H 0.56068 0.42076 0.93697 0.0
H193 H 0.44909 0.53842 0.93346 0.0
H194 H 0.45205 0.61654 0.90513 0.0
H195 H 0.56379 0.72007 0.83244 0.0
H196 H 0.64079 0.7157 0.80619 0.0
H197 H 0.41126 0.47294 0.82426 0.0
H198 H 0.47455 0.35877 0.83859 0.0
H199 H 0.70328 0.75778 0.91 0.0
H200 H 0.79133 0.6628 0.90673 0.0
C201 C 0.08085 0.21783 0.07177 0.0
C202 C 0.04626 0.15772 0.07617 0.0
C203 C 0.07088 0.25802 0.08276 0.0
C204 C 0.02519 0.23772 0.09853 0.0
C205 C 0.98861 0.17701 0.10238 0.0
C206 C 0.99959 0.13769 0.09115 0.0
C207 C 0.11083 0.3224 0.07816 0.0
C208 C 0.93934 0.15373 0.11904 0.0
C209 C 0.04419 0.34051 0.14572 0.0
C210 C 0.00956 0.36233 0.13877 0.0
C211 C 0.04919 0.29969 0.13284 0.0
C212 C 0.01899 0.28025 0.1124 0.0
C213 C 0.98419 0.30229 0.10516 0.0
C214 C 0.97995 0.34321 0.11843 0.0
C215 C 0.08712 0.27763 0.14108 0.0
C216 C 0.95142 0.28254 0.08345 0.0
H217 H 0.11679 0.23379 0.06011 0.0
H218 H 0.97249 0.09135 0.09457 0.0
H219 H 0.08567 0.34322 0.07411 0.0
H220 H 0.13618 0.34389 0.0934 0.0
H221 H 0.14129 0.33079 0.0641 0.0
H222 H 0.91187 0.10539 0.11864 0.0
H223 H 0.95662 0.16698 0.13622 0.0
H224 H 0.91205 0.17254 0.11563 0.0
H225 H 0.06804 0.35589 0.16121 0.0
H226 H 0.95277 0.35957 0.11307 0.0
H227 H 0.122 0.28858 0.12868 0.0
H228 H 0.06156 0.22942 0.14282 0.0
H229 H 0.10704 0.29653 0.1575 0.0
H230 H 0.98182 0.29268 0.06922 0.0
H231 H 0.92607 0.30367 0.08023 0.0
H232 H 0.92161 0.23454 0.08381 0.0
C233 C 0.99617 0.18472 0.42984 0.0
C234 C 0.98587 0.13908 0.4154 0.0
C235 C 0.95165 0.18213 0.44284 0.0
C236 C 0.89539 0.13266 0.44143 0.0
C237 C 0.88495 0.08565 0.42742 0.0
C238 C 0.93035 0.0894 0.41455 0.0
C239 C 0.96452 0.23305 0.45765 0.0
C240 C 0.8255 0.03205 0.42557 0.0
C241 C 0.78755 0.1063 0.48774 0.0
C242 C 0.75558 0.12786 0.47783 0.0
C243 C 0.83337 0.10769 0.47612 0.0
C244 C 0.84715 0.13107 0.45408 0.0
C245 C 0.81498 0.15328 0.4441 0.0
C246 C 0.76932 0.15123 0.45613 0.0
C247 C 0.86659 0.08364 0.48732 0.0
C248 C 0.82846 0.17868 0.42066 0.0
H249 H 0.03894 0.22324 0.43067 0.0
H250 H 0.922 0.05397 0.40345 0.0
H251 H 0.93971 0.25302 0.45189 0.0
H252 H 0.95076 0.21786 0.47516 0.0
H253 H 0.01105 0.26722 0.45758 0.0
H254 H 0.82508 0.99816 0.41476 0.0
H255 H 0.80877 0.01293 0.44245 0.0
H256 H 0.79544 0.04428 0.41848 0.0
H257 H 0.77614 0.08778 0.50452 0.0
H258 H 0.7438 0.16716 0.44852 0.0
H259 H 0.91299 0.11775 0.488 0.0
H260 H 0.86301 0.04702 0.47736 0.0
H261 H 0.85084 0.06772 0.50464 0.0
H262 H 0.87377 0.21552 0.41963 0.0
H263 H 0.79971 0.19462 0.41545 0.0
H264 H 0.82393 0.14522 0.40856 0.0
C265 C 0.94977 0.8021 0.7464 0.0
C266 C 0.95542 0.849 0.73371 0.0
C267 C 0.89922 0.76545 0.75863 0.0
C268 C 0.85322 0.77601 0.75821 0.0
C269 C 0.85743 0.8214 0.74457 0.0
C270 C 0.90849 0.85733 0.73242 0.0
C271 C 0.89614 0.7171 0.77284 0.0
C272 C 0.80917 0.83383 0.74366 0.0
C273 C 0.71063 0.65469 0.78195 0.0
C274 C 0.71421 0.67272 0.80418 0.0
C275 C 0.75467 0.68895 0.76644 0.0
C276 C 0.8029 0.74235 0.77346 0.0
C277 C 0.80511 0.76176 0.79572 0.0
C278 C 0.76062 0.72651 0.81085 0.0
C279 C 0.7508 0.66687 0.74289 0.0
C280 C 0.85561 0.81857 0.80382 0.0
H281 H 0.98559 0.79502 0.74737 0.0
H282 H 0.91238 0.89337 0.72262 0.0
H283 H 0.89488 0.72672 0.79085 0.0
H284 H 0.85606 0.67511 0.76928 0.0
H285 H 0.93362 0.71171 0.76993 0.0
H286 H 0.81668 0.86661 0.73053 0.0
H287 H 0.76752 0.7932 0.74037 0.0
H288 H 0.80504 0.85055 0.76013 0.0
H289 H 0.67432 0.61291 0.77697 0.0
H290 H 0.76287 0.74005 0.82812 0.0
H291 H 0.78464 0.65593 0.74022 0.0
H292 H 0.75865 0.70123 0.73048 0.0
H293 H 0.70816 0.62739 0.73953 0.0
H294 H 0.89511 0.81593 0.80362 0.0
H295 H 0.84873 0.82923 0.82111 0.0
H296 H 0.86348 0.85486 0.79243 0.0
C297 C 0.16915 0.93727 0.09485 0.0
C298 C 0.13932 0.96574 0.08986 0.0
C299 C 0.14665 0.89068 0.11021 0.0
C300 C 0.09263 0.87161 0.12064 0.0
C301 C 0.06423 0.90271 0.11686 0.0
C302 C 0.08812 0.94973 0.10159 0.0
C303 C 0.17897 0.85947 0.11415 0.0
C304 C 0.00668 0.8838 0.12769 0.0
C305 C 0.01234 0.70932 0.13282 0.0
C306 C 0.02453 0.70823 0.1555 0.0
C307 C 0.03095 0.76239 0.12165 0.0
C308 C 0.0636 0.81555 0.13339 0.0
C309 C 0.0736 0.81439 0.15661 0.0
C310 C 0.05399 0.76056 0.16739 0.0
C311 C 0.01897 0.76165 0.09692 0.0
C312 C 0.10838 0.8699 0.16972 0.0
H313 H 0.20901 0.94979 0.08602 0.0
H314 H 0.06472 0.97144 0.09779 0.0
H315 H 0.18244 0.85354 0.13237 0.0
H316 H 0.15495 0.81542 0.10659 0.0
H317 H 0.22302 0.88342 0.1067 0.0
H318 H 0.99423 0.91705 0.1256 0.0
H319 H 0.97301 0.84255 0.11996 0.0
H320 H 0.00737 0.87508 0.14585 0.0
H321 H 0.99111 0.66889 0.1235 0.0
H322 H 0.06417 0.75943 0.18488 0.0
H323 H 0.05974 0.77869 0.08725 0.0
H324 H 0.00178 0.79039 0.09325 0.0
H325 H 0.98769 0.71701 0.09091 0.0
H326 H 0.15455 0.89052 0.16499 0.0
H327 H 0.10413 0.86161 0.1881 0.0
H328 H 0.09493 0.90157 0.16571 0.0
C329 C 0.24352 0.17485 0.41611 0.0
C330 C 0.25121 0.17091 0.39307 0.0
C331 C 0.27977 0.1706 0.43176 0.0
C332 C 0.32316 0.16009 0.42414 0.0
C333 C 0.33087 0.15597 0.40087 0.0
C334 C 0.29541 0.16238 0.38562 0.0
C335 C 0.27159 0.17716 0.45641 0.0
C336 C 0.37552 0.14317 0.39208 0.0
C337 C 0.45223 0.19158 0.45919 0.0
C338 C 0.43515 0.13619 0.46809 0.0
C339 C 0.41512 0.20049 0.44578 0.0
C340 C 0.36027 0.15252 0.44035 0.0
C341 C 0.34251 0.09655 0.44921 0.0
C342 C 0.37972 0.08926 0.46324 0.0
C343 C 0.43513 0.26111 0.43705 0.0
C344 C 0.2848 0.04401 0.44337 0.0
H345 H 0.2094 0.18155 0.42187 0.0
H346 H 0.30094 0.15847 0.36782 0.0
H347 H 0.25882 0.1359 0.46545 0.0
H348 H 0.31282 0.2116 0.4637 0.0
H349 H 0.23815 0.18855 0.45947 0.0
H350 H 0.37519 0.14018 0.3735 0.0
H351 H 0.41916 0.17777 0.39734 0.0
H352 H 0.3676 0.10136 0.39928 0.0
H353 H 0.49514 0.22814 0.46232 0.0
H354 H 0.36519 0.04656 0.47037 0.0
H355 H 0.40184 0.27251 0.44037 0.0
H356 H 0.44164 0.26271 0.41862 0.0
H357 H 0.47619 0.29468 0.44479 0.0
H358 H 0.24957 0.05145 0.44817 0.0
H359 H 0.2772 0.00357 0.45182 0.0
H360 H 0.28229 0.03715 0.42497 0.0
C361 C 0.26084 0.13967 0.75262 0.0
C362 C 0.20456 0.12448 0.74723 0.0
C363 C 0.29575 0.1884 0.76584 0.0
C364 C 0.27327 0.22187 0.77441 0.0
C365 C 0.21634 0.2067 0.7691 0.0
C366 C 0.18282 0.15851 0.75526 0.0
C367 C 0.35674 0.20399 0.77064 0.0
C368 C 0.19059 0.24063 0.77839 0.0
C369 C 0.35341 0.30834 0.82562 0.0
C370 C 0.39032 0.36357 0.81624 0.0
C371 C 0.31244 0.26256 0.81241 0.0
C372 C 0.3096 0.27208 0.7892 0.0
C373 C 0.34573 0.32839 0.77982 0.0
C374 C 0.38534 0.37374 0.79355 0.0
C375 C 0.27379 0.20346 0.82312 0.0
C376 C 0.34489 0.33994 0.75506 0.0
H377 H 0.27794 0.11377 0.74621 0.0
H378 H 0.13917 0.14657 0.75118 0.0
H379 H 0.38756 0.24982 0.76551 0.0
H380 H 0.36202 0.2006 0.78891 0.0
H381 H 0.36849 0.17516 0.76176 0.0
H382 H 0.14584 0.22343 0.77255 0.0
H383 H 0.19025 0.23888 0.79699 0.0
H384 H 0.21734 0.2872 0.77338 0.0
H385 H 0.35719 0.30087 0.84324 0.0
H386 H 0.41432 0.41653 0.78635 0.0
H387 H 0.2862 0.17236 0.81703 0.0
H388 H 0.22831 0.18599 0.81829 0.0
H389 H 0.27659 0.2051 0.84171 0.0
H390 H 0.36076 0.31557 0.74544 0.0
H391 H 0.3723 0.38703 0.75077 0.0
H392 H 0.30026 0.32419 0.74952 0.0
C393 C 0.94706 0.99102 0.63055 0.0
C394 C 0.9722 0.02089 0.65047 0.0
C395 C 0.90847 0.00094 0.61863 0.0
C396 C 0.89426 0.04142 0.6269 0.0
C397 C 0.91992 0.07223 0.64687 0.0
C398 C 0.95882 0.06178 0.65838 0.0
C399 C 0.88247 0.96765 0.59727 0.0
C400 C 0.9056 0.11554 0.65625 0.0
C401 C 0.83047 0.10113 0.58587 0.0
C402 C 0.77128 0.0654 0.59038 0.0
C403 C 0.87104 0.09424 0.59779 0.0
C404 C 0.85197 0.05082 0.61473 0.0
C405 C 0.79229 0.01505 0.61953 0.0
C406 C 0.75262 0.02259 0.60721 0.0
C407 C 0.93423 0.13276 0.59199 0.0
C408 C 0.77033 0.96857 0.63759 0.0
H409 H 0.95733 0.95953 0.62425 0.0
H410 H 0.97793 0.08491 0.6738 0.0
H411 H 0.83494 0.94035 0.59915 0.0
H412 H 0.89169 0.99852 0.58318 0.0
H413 H 0.89925 0.93893 0.59277 0.0
H414 H 0.92983 0.1365 0.67179 0.0
H415 H 0.9155 0.15007 0.64362 0.0
H416 H 0.85878 0.0933 0.66007 0.0
H417 H 0.84501 0.1338 0.57267 0.0
H418 H 0.70694 0.99532 0.61089 0.0
H419 H 0.9516 0.10558 0.58609 0.0
H420 H 0.95879 0.15619 0.60713 0.0
H421 H 0.94206 0.16538 0.57875 0.0
H422 H 0.7822 0.93581 0.63338 0.0
H423 H 0.72279 0.94575 0.63976 0.0
H424 H 0.79083 0.98827 0.65383 0.0
C425 C 0.98364 0.96198 0.99172 0.0
C426 C 0.03895 0.97251 0.98697 0.0
C427 C 0.9364 0.92359 0.97856 0.0
C428 C 0.94498 0.89591 0.96005 0.0
C429 C 0.00117 0.90867 0.95451 0.0
C430 C 0.04743 0.9465 0.96815 0.0
C431 C 0.87698 0.91056 0.98509 0.0
C432 C 0.01213 0.8807 0.93468 0.0
C433 C 0.82283 0.748 0.94174 0.0
C434 C 0.80195 0.76273 0.92301 0.0
C435 C 0.86873 0.79114 0.95417 0.0
C436 C 0.89483 0.85033 0.94747 0.0
C437 C 0.87385 0.86549 0.92856 0.0
C438 C 0.82724 0.82142 0.91663 0.0
C439 C 0.88943 0.77335 0.97442 0.0
C440 C 0.90122 0.92804 0.92075 0.0
H441 H 0.97679 0.98182 0.00629 0.0
H442 H 0.0902 0.95492 0.96427 0.0
H443 H 0.85542 0.91655 0.97046 0.0
H444 H 0.85015 0.86432 0.99055 0.0
H445 H 0.87814 0.93879 0.99893 0.0
H446 H 0.05887 0.89929 0.93146 0.0
H447 H 0.99169 0.83313 0.93776 0.0
H448 H 0.99246 0.88635 0.91936 0.0
H449 H 0.80277 0.70262 0.94681 0.0
H450 H 0.81126 0.83268 0.90202 0.0
H451 H 0.88803 0.79685 0.98947 0.0
H452 H 0.93489 0.78559 0.97184 0.0
H453 H 0.86308 0.72569 0.97784 0.0
H454 H 0.90034 0.9554 0.93448 0.0
H455 H 0.87914 0.9326 0.90594 0.0
H456 H 0.94712 0.94554 0.91629 0.0
C457 C 0.0893 0.00128 0.29179 0.0
C458 C 0.0638 0.00235 0.31221 0.0
C459 C 0.07467 0.94852 0.28152 0.0
C460 C 0.03318 0.89527 0.29179 0.0
C461 C 0.00516 0.89587 0.31182 0.0
C462 C 0.0209 0.9495 0.32185 0.0
C463 C 0.10549 0.94982 0.26012 0.0
C464 C 0.96017 0.83987 0.32307 0.0
C465 C 0.97669 0.76364 0.25391 0.0
C466 C 0.01254 0.74222 0.25961 0.0
C467 C 0.98086 0.81176 0.26501 0.0
C468 C 0.02219 0.8394 0.2821 0.0
C469 C 0.05709 0.81676 0.28846 0.0
C470 C 0.05175 0.76838 0.27718 0.0
C471 C 0.94277 0.83451 0.25781 0.0
C472 C 0.10173 0.84505 0.30659 0.0
H473 H 0.12218 0.04181 0.28408 0.0
H474 H 0.00085 0.94988 0.33757 0.0
H475 H 0.13158 0.92946 0.26314 0.0
H476 H 0.07383 0.92411 0.24692 0.0
H477 H 0.1345 0.99489 0.25368 0.0
H478 H 0.93856 0.84779 0.33731 0.0
H479 H 0.92702 0.81109 0.31081 0.0
H480 H 0.98064 0.81601 0.32947 0.0
H481 H 0.94667 0.74407 0.2402 0.0
H482 H 0.07881 0.75139 0.28195 0.0
H483 H 0.96926 0.87724 0.24918 0.0
H484 H 0.92233 0.84169 0.27262 0.0
H485 H 0.90841 0.80423 0.2462 0.0
H486 H 0.13561 0.88954 0.3011 0.0
H487 H 0.12259 0.81976 0.31061 0.0
H488 H 0.08178 0.84971 0.32212 0.0
C489 C 0.22787 0.04472 0.64049 0.0
C490 C 0.20113 0.99006 0.65119 0.0
C491 C 0.27355 0.0613 0.62525 0.0
C492 C 0.29175 0.02165 0.62026 0.0
C493 C 0.26171 0.96472 0.62965 0.0
C494 C 0.21724 0.94988 0.64525 0.0
C495 C 0.30502 0.12264 0.61585 0.0
C496 C 0.27868 0.92057 0.62422 0.0
C497 C 0.39444 0.05009 0.57166 0.0
C498 C 0.44626 0.06902 0.58296 0.0
C499 C 0.34377 0.03552 0.58348 0.0
C500 C 0.34552 0.04118 0.6071 0.0
C501 C 0.39844 0.06249 0.61846 0.0
C502 C 0.44803 0.07523 0.60626 0.0
C503 C 0.28805 0.01175 0.57084 0.0
C504 C 0.40234 0.07022 0.64358 0.0
H505 H 0.21585 0.0761 0.64519 0.0
H506 H 0.19636 0.90746 0.65342 0.0
H507 H 0.34836 0.1477 0.62349 0.0
H508 H 0.31142 0.12233 0.59748 0.0
H509 H 0.28166 0.14579 0.61928 0.0
H510 H 0.24648 0.87625 0.63055 0.0
H511 H 0.28375 0.91841 0.60583 0.0
H512 H 0.32085 0.93407 0.63195 0.0
H513 H 0.3933 0.04488 0.5536 0.0
H514 H 0.48802 0.08898 0.61496 0.0
H515 H 0.26662 0.03623 0.57519 0.0
H516 H 0.25818 0.96556 0.57579 0.0
H517 H 0.29478 0.01392 0.55238 0.0
H518 H 0.38334 0.09641 0.64886 0.0
H519 H 0.44752 0.09207 0.64954 0.0
H520 H 0.37727 0.02702 0.65199 0.0
C521 C 0.35431 0.22541 0.999 0.0
C522 C 0.30679 0.2199 0.01078 0.0
C523 C 0.39154 0.2763 0.98681 0.0
C524 C 0.38112 0.3229 0.98644 0.0
C525 C 0.33567 0.31927 -0.00048 0.0
C526 C 0.29897 0.26776 0.01155 0.0
C527 C 0.43988 0.27867 0.97319 0.0
C528 C 0.32366 0.36835 -0.00026 0.0
C529 C 0.50114 0.46399 0.96062 0.0
C530 C 0.48299 0.45756 0.93835 0.0
C531 C 0.46709 0.42179 0.97688 0.0
C532 C 0.41404 0.37231 0.97052 0.0
C533 C 0.39445 0.3675 0.94819 0.0
C534 C 0.42933 0.41032 0.93235 0.0
C535 C 0.48927 0.42857 0.00049 0.0
C536 C 0.33811 0.31554 0.94074 0.0
H537 H 0.36104 0.18893 0.99845 0.0
H538 H 0.26262 0.26413 0.02072 0.0
H539 H 0.43066 0.27812 0.95506 0.0
H540 H 0.48109 0.31979 0.97646 0.0
H541 H 0.44553 0.24129 0.97692 0.0
H542 H 0.29193 0.36209 0.01299 0.0
H543 H 0.364 0.41079 0.00241 0.0
H544 H 0.30629 0.37083 0.98325 0.0
H545 H 0.54301 0.5007 0.96504 0.0
H546 H 0.41589 0.40568 0.915 0.0
H547 H 0.50195 0.39593 0.00371 0.0
H548 H 0.45502 0.42027 0.01283 0.0
H549 H 0.52727 0.47276 0.0034 0.0
H550 H 0.3407 0.27559 0.9417 0.0
H551 H 0.32722 0.3206 0.92327 0.0
H552 H 0.3025 0.30886 0.95203 0.0
C553 C 0.12358 0.32441 0.31273 0.0
C554 C 0.0915 0.27889 0.32806 0.0
C555 C 0.10145 0.35736 0.30393 0.0
C556 C 0.04582 0.34447 0.31062 0.0
C557 C 0.01456 0.30088 0.32705 0.0
C558 C 0.03779 0.26854 0.3356 0.0
C559 C 0.13651 0.40406 0.28661 0.0
C560 C 0.95535 0.28622 0.33471 0.0
C561 C 0.01517 0.4599 0.29054 0.0
C562 C 0.99212 0.43799 0.2694 0.0
C563 C 0.02865 0.42764 0.30524 0.0
C564 C 0.01871 0.37256 0.29845 0.0
C565 C 0.99033 0.34821 0.27798 0.0
C566 C 0.97772 0.38146 0.26362 0.0
C567 C 0.05832 0.45485 0.327 0.0
C568 C 0.97843 0.28944 0.27017 0.0
H569 H 0.16534 0.33315 0.30699 0.0
H570 H 0.0128 0.2337 0.34757 0.0
H571 H 0.11403 0.39175 0.27026 0.0
H572 H 0.14099 0.44602 0.29165 0.0
H573 H 0.18025 0.41093 0.2842 0.0
H574 H 0.94067 0.25795 0.34993 0.0
H575 H 0.95481 0.32653 0.3383 0.0
H576 H 0.92398 0.26296 0.32113 0.0
H577 H 0.02678 0.50397 0.2948 0.0
H578 H 0.96062 0.36502 0.2471 0.0
H579 H 0.1052 0.47227 0.32508 0.0
H580 H 0.04202 0.42199 0.34075 0.0
H581 H 0.0523 0.49135 0.33189 0.0
H582 H 0.01964 0.29282 0.26533 0.0
H583 H 0.94932 0.2735 0.25548 0.0
H584 H 0.95871 0.25661 0.28387 0.0
loop_
_geom_bond_atom_site_label_1
_geom_bond_atom_site_label_2
_geom_bond_distance
_geom_bond_site_symmetry_2
_ccdc_geom_bond_type
Zn0 O3 2.031 1_545 S
Zn0 O5 2.049 1_554 S
Zn0 O10 2.067 1_554 S
Zn1 O2 1.962 . S
Zn1 O4 1.986 . S
Zn1 O6 1.996 . S
Zn1 O9 1.943 . S
O2 Zn1 1.962 . S
O2 C7 1.254 . S
O3 Zn0 2.031 1_565 S
O3 C7 1.269 1_565 S
O4 Zn1 1.986 . S
O4 C11 1.262 . S
O5 Zn0 2.049 1_556 S
O5 C13 1.260 1_556 S
O6 Zn1 1.996 . S
O6 C13 1.257 . S
C7 O2 1.254 . S
C7 O3 1.269 1_545 S
C8 O9 1.249 . S
C8 O10 1.270 1_554 S
O9 Zn1 1.943 . S
O9 C8 1.249 . S
O10 Zn0 2.067 1_556 S
O10 C8 1.270 1_556 S
C11 O4 1.262 . S
C11 O12 1.232 . S
O12 C11 1.232 . S
C13 O5 1.260 1_554 S
C13 O6 1.257 . S
Zn14 O17 2.031 . S
Zn14 O19 2.049 . S
Zn14 O24 2.067 . S
Zn15 O16 1.962 . S
Zn15 O18 1.986 1_455 S
Zn15 O20 1.996 . S
Zn15 O23 1.943 . S
O16 Zn15 1.962 . S
O16 C21 1.254 . S
O17 Zn14 2.031 . S
O17 C21 1.269 . S
O18 Zn15 1.986 1_655 S
O18 C25 1.262 . S
O19 Zn14 2.049 . S
O19 C27 1.260 . S
O20 Zn15 1.996 . S
O20 C27 1.257 . S
C21 O16 1.254 . S
C21 O17 1.269 . S
C22 O23 1.249 . S
C22 O24 1.270 . S
O23 Zn15 1.943 . S
O23 C22 1.249 . S
O24 Zn14 2.067 . S
O24 C22 1.270 . S
C25 O18 1.262 . S
C25 O26 1.232 . S
O26 C25 1.232 . S
C27 O19 1.260 . S
C27 O20 1.257 . S
Zn28 O31 2.031 1_565 S
Zn28 O33 2.049 . S
Zn28 O38 2.067 1_565 S
Zn29 O30 1.962 . S
Zn29 O32 1.986 1_455 S
Zn29 O34 1.996 1_545 S
Zn29 O37 1.943 . S
O30 Zn29 1.962 . S
O30 C35 1.254 . S
O31 Zn28 2.031 1_545 S
O31 C35 1.269 . S
O32 Zn29 1.986 1_655 S
O32 C39 1.261 . S
O33 Zn28 2.049 . S
O33 C41 1.260 . S
O34 Zn29 1.996 1_565 S
O34 C41 1.257 . S
C35 O30 1.254 . S
C35 O31 1.269 . S
C36 O37 1.249 . S
C36 O38 1.270 . S
O37 Zn29 1.943 . S
O37 C36 1.249 . S
O38 Zn28 2.067 1_545 S
O38 C36 1.270 . S
C39 O32 1.261 . S
C39 O40 1.227 1_655 S
O40 C39 1.227 1_455 S
C41 O33 1.260 . S
C41 O34 1.257 . S
C42 C43 1.443 . S
C42 N46 1.376 . S
C42 C80 1.389 . S
C43 C42 1.443 . S
C43 C44 1.340 . S
C43 H83 0.951 . S
C44 C43 1.340 . S
C44 C45 1.439 . S
C44 H84 0.950 . S
C45 C44 1.439 . S
C45 N46 1.374 . S
C45 C79 1.395 . S
N46 C42 1.376 . S
N46 C45 1.374 . S
N46 Co47 2.008 . S
Co47 N46 2.008 . S
Co47 N48 1.995 . S
Co47 N53 2.008 1_455 S
Co47 N58 1.995 . S
Co47 N63 2.282 . S
Co47 N69 2.282 . S
N48 Co47 1.995 . S
N48 C49 1.376 . S
N48 C52 1.383 . S
C49 N48 1.376 . S
C49 C50 1.446 . S
C49 C79 1.391 . S
C50 C49 1.446 . S
C50 C51 1.339 . S
C50 H85 0.949 . S
C51 C50 1.339 . S
C51 C52 1.439 . S
C51 H86 0.950 . S
C52 N48 1.383 . S
C52 C51 1.439 . S
C52 C81 1.392 . S
N53 Co47 2.008 1_655 S
N53 C54 1.376 1_655 S
N53 C57 1.374 . S
C54 N53 1.376 1_455 S
C54 C55 1.443 1_455 S
C54 C81 1.389 . S
C55 C54 1.443 1_655 S
C55 C56 1.340 . S
C55 H87 0.951 . S
C56 C55 1.340 . S
C56 C57 1.439 . S
C56 H88 0.950 . S
C57 N53 1.374 . S
C57 C56 1.439 . S
C57 C82 1.395 . S
N58 Co47 1.995 . S
N58 C59 1.376 1_455 S
N58 C62 1.383 . S
C59 N58 1.376 1_655 S
C59 C60 1.446 . S
C59 C82 1.391 . S
C60 C59 1.446 . S
C60 C61 1.339 . S
C60 H89 0.949 . S
C61 C60 1.339 . S
C61 C62 1.439 1_655 S
C61 H90 0.950 . S
C62 N58 1.383 . S
C62 C61 1.439 1_455 S
C62 C80 1.392 . S
N63 Co47 2.282 . S
N63 C66 1.332 . S
N63 C68 1.332 . S
C64 C65 1.386 . S
C64 C67 1.388 . S
C65 C64 1.386 . S
C65 C66 1.382 . S
C65 H91 0.950 1_455 S
C66 N63 1.332 . S
C66 C65 1.382 . S
C66 H77 0.952 1_455 S
C67 C64 1.388 . S
C67 C68 1.382 . S
C67 H92 0.950 . S
C68 N63 1.332 . S
C68 C67 1.382 . S
C68 H78 0.948 . S
N69 Co47 2.282 . S
N69 C73 1.332 . S
N69 C74 1.332 . S
C70 C71 1.388 . S
C70 C74 1.382 . S
C70 H93 0.950 1_455 S
C71 C70 1.388 . S
C71 C72 1.386 . S
C72 C71 1.386 . S
C72 C73 1.382 . S
C72 H94 0.950 . S
C73 N69 1.332 . S
C73 C72 1.382 . S
C73 H75 0.952 . S
C74 N69 1.332 . S
C74 C70 1.382 . S
C74 H76 0.948 1_455 S
H75 C73 0.952 . S
H76 C74 0.948 1_655 S
H77 C66 0.952 1_655 S
H78 C68 0.948 . S
C79 C45 1.395 . S
C79 C49 1.391 . S
C80 C42 1.389 . S
C80 C62 1.392 . S
C81 C52 1.392 . S
C81 C54 1.389 . S
C82 C57 1.395 . S
C82 C59 1.391 . S
H83 C43 0.951 . S
H84 C44 0.950 . S
H85 C50 0.949 . S
H86 C51 0.950 . S
H87 C55 0.951 . S
H88 C56 0.950 . S
H89 C60 0.949 . S
H90 C61 0.950 . S
H91 C65 0.950 1_655 S
H92 C67 0.950 . S
H93 C70 0.950 1_655 S
H94 C72 0.950 . S
C95 C96 1.443 1_545 S
C95 N99 1.376 . S
C95 C133 1.389 . S
C96 C95 1.443 1_565 S
C96 C97 1.340 . S
C96 H136 0.951 . S
C97 C96 1.340 . S
C97 C98 1.439 . S
C97 H137 0.950 . S
C98 C97 1.439 . S
C98 N99 1.374 1_565 S
C98 C132 1.395 . S
N99 C95 1.376 . S
N99 C98 1.374 1_545 S
N99 Co100 2.008 . S
Co100 N99 2.008 . S
Co100 N101 1.995 . S
Co100 N106 2.008 . S
Co100 N111 1.995 . S
Co100 N116 2.282 . S
Co100 N122 2.282 . S
N101 Co100 1.995 . S
N101 C102 1.376 1_545 S
N101 C105 1.383 . S
C102 N101 1.376 1_565 S
C102 C103 1.446 . S
C102 C132 1.391 . S
C103 C102 1.446 . S
C103 C104 1.339 . S
C103 H138 0.949 . S
C104 C103 1.339 . S
C104 C105 1.439 1_565 S
C104 H139 0.950 . S
C105 N101 1.383 . S
C105 C104 1.439 1_545 S
C105 C134 1.392 . S
N106 Co100 2.008 . S
N106 C107 1.376 . S
N106 C110 1.374 . S
C107 N106 1.376 . S
C107 C108 1.443 . S
C107 C134 1.389 . S
C108 C107 1.443 . S
C108 C109 1.340 . S
C108 H140 0.951 . S
C109 C108 1.340 . S
C109 C110 1.439 . S
C109 H141 0.950 . S
C110 N106 1.374 . S
C110 C109 1.439 . S
C110 C135 1.395 . S
N111 Co100 1.995 . S
N111 C112 1.376 . S
N111 C115 1.383 . S
C112 N111 1.376 . S
C112 C113 1.446 . S
C112 C135 1.391 . S
C113 C112 1.446 . S
C113 C114 1.339 . S
C113 H142 0.949 . S
C114 C113 1.339 . S
C114 C115 1.439 . S
C114 H143 0.950 . S
C115 N111 1.383 . S
C115 C114 1.439 . S
C115 C133 1.392 . S
N116 Co100 2.282 . S
N116 C119 1.332 . S
N116 C121 1.332 . S
C117 C118 1.386 . S
C117 C120 1.388 . S
C118 C117 1.386 . S
C118 C119 1.382 . S
C118 H144 0.950 . S
C119 N116 1.332 . S
C119 C118 1.382 . S
C119 H130 0.952 . S
C120 C117 1.388 . S
C120 C121 1.382 . S
C120 H145 0.950 1_545 S
C121 N116 1.332 . S
C121 C120 1.382 . S
C121 H131 0.948 . S
N122 Co100 2.282 . S
N122 C126 1.332 . S
N122 C127 1.332 . S
C123 C124 1.388 . S
C123 C127 1.382 . S
C123 H146 0.950 . S
C124 C123 1.388 . S
C124 C125 1.386 . S
C125 C124 1.386 . S
C125 C126 1.382 . S
C125 H147 0.950 . S
C126 N122 1.332 . S
C126 C125 1.382 . S
C126 H128 0.952 . S
C127 N122 1.332 . S
C127 C123 1.382 . S
C127 H129 0.948 . S
H128 C126 0.952 . S
H129 C127 0.948 . S
H130 C119 0.952 . S
H131 C121 0.948 . S
C132 C98 1.395 . S
C132 C102 1.391 . S
C133 C95 1.389 . S
C133 C115 1.392 . S
C134 C105 1.392 . S
C134 C107 1.389 . S
C135 C110 1.395 . S
C135 C112 1.391 . S
H136 C96 0.951 . S
H137 C97 0.950 . S
H138 C103 0.949 . S
H139 C104 0.950 . S
H140 C108 0.951 . S
H141 C109 0.950 . S
H142 C113 0.949 . S
H143 C114 0.950 . S
H144 C118 0.950 . S
H145 C120 0.950 1_565 S
H146 C123 0.950 . S
H147 C125 0.950 . S
C148 C149 1.443 . S
C148 N152 1.376 . S
C148 C186 1.389 . S
C149 C148 1.443 . S
C149 C150 1.340 . S
C149 H189 0.951 . S
C150 C149 1.340 . S
C150 C151 1.439 . S
C150 H190 0.950 . S
C151 C150 1.439 . S
C151 N152 1.374 . S
C151 C185 1.395 . S
N152 C148 1.376 . S
N152 C151 1.374 . S
N152 Co153 2.008 . S
Co153 N152 2.008 . S
Co153 N154 1.995 . S
Co153 N159 2.008 . S
Co153 N164 1.995 . S
Co153 N169 2.282 . S
Co153 N175 2.282 . S
N154 Co153 1.995 . S
N154 C155 1.376 . S
N154 C158 1.383 . S
C155 N154 1.376 . S
C155 C156 1.446 . S
C155 C185 1.391 . S
C156 C155 1.446 . S
C156 C157 1.339 . S
C156 H191 0.949 . S
C157 C156 1.339 . S
C157 C158 1.439 . S
C157 H192 0.950 . S
C158 N154 1.383 . S
C158 C157 1.439 . S
C158 C187 1.392 . S
N159 Co153 2.008 . S
N159 C160 1.376 . S
N159 C163 1.374 . S
C160 N159 1.376 . S
C160 C161 1.443 . S
C160 C187 1.389 . S
C161 C160 1.443 . S
C161 C162 1.340 . S
C161 H193 0.951 . S
C162 C161 1.340 . S
C162 C163 1.439 . S
C162 H194 0.950 . S
C163 N159 1.374 . S
C163 C162 1.439 . S
C163 C188 1.395 . S
N164 Co153 1.995 . S
N164 C165 1.376 . S
N164 C168 1.383 . S
C165 N164 1.376 . S
C165 C166 1.446 . S
C165 C188 1.391 . S
C166 C165 1.446 . S
C166 C167 1.339 . S
C166 H195 0.949 . S
C167 C166 1.339 . S
C167 C168 1.439 . S
C167 H196 0.950 . S
C168 N164 1.383 . S
C168 C167 1.439 . S
C168 C186 1.392 . S
N169 Co153 2.282 . S
N169 C172 1.332 . S
N169 C174 1.332 . S
C170 C171 1.386 . S
C170 C173 1.388 . S
C171 C170 1.386 . S
C171 C172 1.382 . S
C171 H197 0.950 . S
C172 N169 1.332 . S
C172 C171 1.382 . S
C172 H183 0.952 . S
C173 C170 1.388 . S
C173 C174 1.382 . S
C173 H198 0.950 . S
C174 N169 1.332 . S
C174 C173 1.382 . S
C174 H184 0.948 . S
N175 Co153 2.282 . S
N175 C179 1.332 . S
N175 C180 1.332 . S
C176 C177 1.388 . S
C176 C180 1.382 . S
C176 H199 0.950 . S
C177 C176 1.388 . S
C177 C178 1.386 . S
C178 C177 1.386 . S
C178 C179 1.382 . S
C178 H200 0.950 . S
C179 N175 1.332 . S
C179 C178 1.382 . S
C179 H181 0.952 . S
C180 N175 1.332 . S
C180 C176 1.382 . S
C180 H182 0.948 . S
H181 C179 0.952 . S
H182 C180 0.948 . S
H183 C172 0.952 . S
H184 C174 0.948 . S
C185 C151 1.395 . S
C185 C155 1.391 . S
C186 C148 1.389 . S
C186 C168 1.392 . S
C187 C158 1.392 . S
C187 C160 1.389 . S
C188 C163 1.395 . S
C188 C165 1.391 . S
H189 C149 0.951 . S
H190 C150 0.950 . S
H191 C156 0.949 . S
H192 C157 0.950 . S
H193 C161 0.951 . S
H194 C162 0.950 . S
H195 C166 0.949 . S
H196 C167 0.950 . S
H197 C171 0.950 . S
H198 C173 0.950 . S
H199 C176 0.950 . S
H200 C178 0.950 . S
C201 C202 1.391 . S
C201 C203 1.394 . S
C201 H217 0.931 . S
C202 C201 1.391 . S
C202 C206 1.376 . S
C203 C201 1.394 . S
C203 C204 1.369 . S
C203 C207 1.531 . S
C204 C203 1.369 . S
C204 C205 1.410 . S
C204 C212 1.503 . S
C205 C204 1.410 . S
C205 C206 1.392 . S
C205 C208 1.511 1_455 S
C206 C202 1.376 . S
C206 C205 1.392 . S
C206 H218 0.929 . S
C207 C203 1.531 . S
C207 H219 0.960 . S
C207 H220 0.962 . S
C207 H221 0.960 . S
C208 C205 1.511 1_655 S
C208 H222 0.961 . S
C208 H223 0.961 . S
C208 H224 0.961 . S
C209 C210 1.370 . S
C209 C211 1.363 . S
C209 H225 0.931 . S
C210 C209 1.370 . S
C210 C214 1.408 . S
C211 C209 1.363 . S
C211 C212 1.370 . S
C211 C215 1.524 . S
C212 C204 1.503 . S
C212 C211 1.370 . S
C212 C213 1.403 . S
C213 C212 1.403 . S
C213 C214 1.404 . S
C213 C216 1.539 . S
C214 C210 1.408 . S
C214 C213 1.404 . S
C214 H226 0.930 . S
C215 C211 1.524 . S
C215 H227 0.956 . S
C215 H228 0.961 . S
C215 H229 0.961 . S
C216 C213 1.539 . S
C216 H230 0.958 . S
C216 H231 0.961 . S
C216 H232 0.960 . S
H217 C201 0.931 . S
H218 C206 0.929 . S
H219 C207 0.960 . S
H220 C207 0.962 . S
H221 C207 0.960 . S
H222 C208 0.961 . S
H223 C208 0.961 . S
H224 C208 0.961 . S
H225 C209 0.931 . S
H226 C214 0.930 . S
H227 C215 0.956 . S
H228 C215 0.961 . S
H229 C215 0.961 . S
H230 C216 0.958 . S
H231 C216 0.961 . S
H232 C216 0.960 . S
C233 C234 1.391 . S
C233 C235 1.394 . S
C233 H249 0.931 . S
C234 C233 1.391 . S
C234 C238 1.376 . S
C235 C233 1.394 . S
C235 C236 1.369 . S
C235 C239 1.531 . S
C236 C235 1.369 . S
C236 C237 1.410 . S
C236 C244 1.503 . S
C237 C236 1.410 . S
C237 C238 1.392 . S
C237 C240 1.511 . S
C238 C234 1.376 . S
C238 C237 1.392 . S
C238 H250 0.929 . S
C239 C235 1.531 . S
C239 H251 0.960 . S
C239 H252 0.962 . S
C239 H253 0.960 . S
C240 C237 1.511 . S
C240 H254 0.961 . S
C240 H255 0.961 . S
C240 H256 0.961 . S
C241 C242 1.370 . S
C241 C243 1.363 . S
C241 H257 0.931 . S
C242 C241 1.370 . S
C242 C246 1.408 . S
C243 C241 1.363 . S
C243 C244 1.370 . S
C243 C247 1.524 1_545 S
C244 C236 1.503 . S
C244 C243 1.370 . S
C244 C245 1.403 . S
C245 C244 1.403 . S
C245 C246 1.404 . S
C245 C248 1.539 . S
C246 C242 1.408 . S
C246 C245 1.404 . S
C246 H258 0.930 . S
C247 C243 1.524 1_565 S
C247 H259 0.956 . S
C247 H260 0.961 . S
C247 H261 0.961 . S
C248 C245 1.539 . S
C248 H262 0.958 . S
C248 H263 0.961 . S
C248 H264 0.960 . S
H249 C233 0.931 . S
H250 C238 0.929 . S
H251 C239 0.960 . S
H252 C239 0.962 . S
H253 C239 0.960 . S
H254 C240 0.961 . S
H255 C240 0.961 . S
H256 C240 0.961 . S
H257 C241 0.931 . S
H258 C246 0.930 . S
H259 C247 0.956 . S
H260 C247 0.961 . S
H261 C247 0.961 . S
H262 C248 0.958 . S
H263 C248 0.961 . S
H264 C248 0.960 . S
C265 C266 1.391 . S
C265 C267 1.394 . S
C265 H281 0.931 1_655 S
C266 C265 1.391 . S
C266 C270 1.376 . S
C267 C265 1.394 . S
C267 C268 1.369 . S
C267 C271 1.531 . S
C268 C267 1.369 . S
C268 C269 1.410 . S
C268 C276 1.503 . S
C269 C268 1.410 . S
C269 C270 1.392 . S
C269 C272 1.511 . S
C270 C266 1.376 . S
C270 C269 1.392 . S
C270 H282 0.929 . S
C271 C267 1.531 . S
C271 H283 0.960 . S
C271 H284 0.962 . S
C271 H285 0.962 . S
C272 C269 1.511 . S
C272 H286 0.961 . S
C272 H287 0.961 . S
C272 H288 0.961 . S
C273 C274 1.370 . S
C273 C275 1.363 . S
C273 H289 0.931 . S
C274 C273 1.370 . S
C274 C278 1.408 . S
C275 C273 1.363 . S
C275 C276 1.370 . S
C275 C279 1.524 . S
C276 C268 1.503 . S
C276 C275 1.370 . S
C276 C277 1.403 . S
C277 C276 1.403 . S
C277 C278 1.404 . S
C277 C280 1.539 . S
C278 C274 1.408 . S
C278 C277 1.404 . S
C278 H290 0.930 . S
C279 C275 1.524 . S
C279 H291 0.956 . S
C279 H292 0.961 . S
C279 H293 0.961 . S
C280 C277 1.539 . S
C280 H294 0.958 . S
C280 H295 0.961 . S
C280 H296 0.960 . S
H281 C265 0.931 1_455 S
H282 C270 0.929 . S
H283 C271 0.960 . S
H284 C271 0.962 . S
H285 C271 0.962 . S
H286 C272 0.961 . S
H287 C272 0.961 . S
H288 C272 0.961 . S
H289 C273 0.931 . S
H290 C278 0.930 . S
H291 C279 0.956 . S
H292 C279 0.961 . S
H293 C279 0.961 . S
H294 C280 0.958 . S
H295 C280 0.961 . S
H296 C280 0.960 . S
C297 C298 1.391 . S
C297 C299 1.394 . S
C297 H313 0.931 . S
C298 C297 1.391 . S
C298 C302 1.376 . S
C299 C297 1.394 . S
C299 C300 1.369 . S
C299 C303 1.531 . S
C300 C299 1.369 . S
C300 C301 1.410 . S
C300 C308 1.503 . S
C301 C300 1.410 . S
C301 C302 1.392 . S
C301 C304 1.511 . S
C302 C298 1.376 . S
C302 C301 1.392 . S
C302 H314 0.929 . S
C303 C299 1.531 . S
C303 H315 0.960 . S
C303 H316 0.962 . S
C303 H317 0.960 . S
C304 C301 1.511 . S
C304 H318 0.961 1_455 S
C304 H319 0.965 1_455 S
C304 H320 0.961 1_455 S
C305 C306 1.370 . S
C305 C307 1.363 . S
C305 H321 0.931 . S
C306 C305 1.370 . S
C306 C310 1.408 . S
C307 C305 1.363 . S
C307 C308 1.370 . S
C307 C311 1.524 . S
C308 C300 1.503 . S
C308 C307 1.370 . S
C308 C309 1.403 . S
C309 C308 1.403 . S
C309 C310 1.404 . S
C309 C312 1.539 . S
C310 C306 1.408 . S
C310 C309 1.404 . S
C310 H322 0.930 . S
C311 C307 1.524 . S
C311 H323 0.956 . S
C311 H324 0.961 . S
C311 H325 0.961 . S
C312 C309 1.539 . S
C312 H326 0.958 . S
C312 H327 0.961 . S
C312 H328 0.960 . S
H313 C297 0.931 . S
H314 C302 0.929 . S
H315 C303 0.960 . S
H316 C303 0.962 . S
H317 C303 0.960 . S
H318 C304 0.961 1_655 S
H319 C304 0.965 1_655 S
H320 C304 0.961 1_655 S
H321 C305 0.931 . S
H322 C310 0.930 . S
H323 C311 0.956 . S
H324 C311 0.961 . S
H325 C311 0.961 . S
H326 C312 0.958 . S
H327 C312 0.961 . S
H328 C312 0.960 . S
C329 C330 1.391 . S
C329 C331 1.394 . S
C329 H345 0.931 . S
C330 C329 1.391 . S
C330 C334 1.376 . S
C331 C329 1.394 . S
C331 C332 1.369 . S
C331 C335 1.531 . S
C332 C331 1.369 . S
C332 C333 1.410 . S
C332 C340 1.503 . S
C333 C332 1.410 . S
C333 C334 1.392 . S
C333 C336 1.511 . S
C334 C330 1.376 . S
C334 C333 1.392 . S
C334 H346 0.929 . S
C335 C331 1.531 . S
C335 H347 0.960 . S
C335 H348 0.962 . S
C335 H349 0.960 . S
C336 C333 1.511 . S
C336 H350 0.961 . S
C336 H351 0.961 . S
C336 H352 0.961 . S
C337 C338 1.370 . S
C337 C339 1.363 . S
C337 H353 0.931 . S
C338 C337 1.370 . S
C338 C342 1.408 . S
C339 C337 1.363 . S
C339 C340 1.370 . S
C339 C343 1.524 . S
C340 C332 1.503 . S
C340 C339 1.370 . S
C340 C341 1.403 . S
C341 C340 1.403 . S
C341 C342 1.404 . S
C341 C344 1.539 1_545 S
C342 C338 1.408 . S
C342 C341 1.404 . S
C342 H354 0.930 . S
C343 C339 1.524 . S
C343 H355 0.956 . S
C343 H356 0.961 . S
C343 H357 0.961 . S
C344 C341 1.539 1_565 S
C344 H358 0.958 . S
C344 H359 0.961 . S
C344 H360 0.960 . S
H345 C329 0.931 . S
H346 C334 0.929 . S
H347 C335 0.960 . S
H348 C335 0.962 . S
H349 C335 0.960 . S
H350 C336 0.961 . S
H351 C336 0.961 . S
H352 C336 0.961 . S
H353 C337 0.931 . S
H354 C342 0.930 . S
H355 C343 0.956 . S
H356 C343 0.961 . S
H357 C343 0.961 . S
H358 C344 0.958 . S
H359 C344 0.961 . S
H360 C344 0.960 . S
C361 C362 1.391 . S
C361 C363 1.394 . S
C361 H377 0.931 . S
C362 C361 1.391 . S
C362 C366 1.376 . S
C363 C361 1.394 . S
C363 C364 1.369 . S
C363 C367 1.531 . S
C364 C363 1.369 . S
C364 C365 1.410 . S
C364 C372 1.503 . S
C365 C364 1.410 . S
C365 C366 1.392 . S
C365 C368 1.511 . S
C366 C362 1.376 . S
C366 C365 1.392 . S
C366 H378 0.929 . S
C367 C363 1.531 . S
C367 H379 0.960 . S
C367 H380 0.962 . S
C367 H381 0.960 . S
C368 C365 1.511 . S
C368 H382 0.961 . S
C368 H383 0.961 . S
C368 H384 0.961 . S
C369 C370 1.370 . S
C369 C371 1.363 . S
C369 H385 0.931 . S
C370 C369 1.370 . S
C370 C374 1.408 . S
C371 C369 1.363 . S
C371 C372 1.370 . S
C371 C375 1.524 . S
C372 C364 1.503 . S
C372 C371 1.370 . S
C372 C373 1.403 . S
C373 C372 1.403 . S
C373 C374 1.404 . S
C373 C376 1.539 . S
C374 C370 1.408 . S
C374 C373 1.404 . S
C374 H386 0.930 . S
C375 C371 1.524 . S
C375 H387 0.956 . S
C375 H388 0.961 . S
C375 H389 0.961 . S
C376 C373 1.539 . S
C376 H390 0.958 . S
C376 H391 0.961 . S
C376 H392 0.960 . S
H377 C361 0.931 . S
H378 C366 0.929 . S
H379 C367 0.960 . S
H380 C367 0.962 . S
H381 C367 0.960 . S
H382 C368 0.961 . S
H383 C368 0.961 . S
H384 C368 0.961 . S
H385 C369 0.931 . S
H386 C374 0.930 . S
H387 C375 0.956 . S
H388 C375 0.961 . S
H389 C375 0.961 . S
H390 C376 0.958 . S
H391 C376 0.961 . S
H392 C376 0.960 . S
C393 C394 1.391 . S
C393 C395 1.394 . S
C393 H409 0.931 . S
C394 C393 1.391 . S
C394 C398 1.376 . S
C395 C393 1.394 . S
C395 C396 1.369 . S
C395 C399 1.531 . S
C396 C395 1.369 . S
C396 C397 1.410 . S
C396 C404 1.503 . S
C397 C396 1.410 . S
C397 C398 1.392 . S
C397 C400 1.511 . S
C398 C394 1.376 . S
C398 C397 1.392 . S
C398 H410 0.929 . S
C399 C395 1.531 . S
C399 H411 0.960 1_545 S
C399 H412 0.962 . S
C399 H413 0.960 1_545 S
C400 C397 1.511 . S
C400 H414 0.961 . S
C400 H415 0.961 . S
C400 H416 0.961 . S
C401 C402 1.370 . S
C401 C403 1.363 . S
C401 H417 0.931 . S
C402 C401 1.370 . S
C402 C406 1.408 . S
C403 C401 1.363 . S
C403 C404 1.370 . S
C403 C407 1.524 . S
C404 C396 1.503 . S
C404 C403 1.370 . S
C404 C405 1.403 . S
C405 C404 1.403 . S
C405 C406 1.404 . S
C405 C408 1.539 1_545 S
C406 C402 1.408 . S
C406 C405 1.404 . S
C406 H418 0.930 1_545 S
C407 C403 1.524 . S
C407 H419 0.956 . S
C407 H420 0.961 . S
C407 H421 0.961 . S
C408 C405 1.539 1_565 S
C408 H422 0.958 . S
C408 H423 0.961 . S
C408 H424 0.960 . S
H409 C393 0.931 . S
H410 C398 0.929 . S
H411 C399 0.960 1_565 S
H412 C399 0.962 . S
H413 C399 0.960 1_565 S
H414 C400 0.961 . S
H415 C400 0.961 . S
H416 C400 0.961 . S
H417 C401 0.931 . S
H418 C406 0.930 1_565 S
H419 C407 0.956 . S
H420 C407 0.961 . S
H421 C407 0.961 . S
H422 C408 0.958 . S
H423 C408 0.961 . S
H424 C408 0.960 . S
C425 C426 1.391 1_655 S
C425 C427 1.394 . S
C425 H441 0.931 1_556 S
C426 C425 1.391 1_455 S
C426 C430 1.376 . S
C427 C425 1.394 . S
C427 C428 1.369 . S
C427 C431 1.531 . S
C428 C427 1.369 . S
C428 C429 1.410 . S
C428 C436 1.503 . S
C429 C428 1.410 . S
C429 C430 1.392 1_655 S
C429 C432 1.511 1_655 S
C430 C426 1.376 . S
C430 C429 1.392 1_455 S
C430 H442 0.929 . S
C431 C427 1.531 . S
C431 H443 0.960 . S
C431 H444 0.962 . S
C431 H445 0.960 . S
C432 C429 1.511 1_455 S
C432 H446 0.961 . S
C432 H447 0.961 1_455 S
C432 H448 0.961 . S
C433 C434 1.370 . S
C433 C435 1.363 . S
C433 H449 0.931 . S
C434 C433 1.370 . S
C434 C438 1.408 . S
C435 C433 1.363 . S
C435 C436 1.370 . S
C435 C439 1.524 . S
C436 C428 1.503 . S
C436 C435 1.370 . S
C436 C437 1.403 . S
C437 C436 1.403 . S
C437 C438 1.404 . S
C437 C440 1.539 . S
C438 C434 1.408 . S
C438 C437 1.404 . S
C438 H450 0.930 . S
C439 C435 1.524 . S
C439 H451 0.956 . S
C439 H452 0.961 . S
C439 H453 0.961 . S
C440 C437 1.539 . S
C440 H454 0.958 . S
C440 H455 0.961 . S
C440 H456 0.960 . S
H441 C425 0.931 1_554 S
H442 C430 0.929 . S
H443 C431 0.960 . S
H444 C431 0.962 . S
H445 C431 0.960 . S
H446 C432 0.961 . S
H447 C432 0.961 1_655 S
H448 C432 0.961 . S
H449 C433 0.931 . S
H450 C438 0.930 . S
H451 C439 0.956 . S
H452 C439 0.961 . S
H453 C439 0.961 . S
H454 C440 0.958 . S
H455 C440 0.961 . S
H456 C440 0.960 . S
C457 C458 1.391 . S
C457 C459 1.394 . S
C457 H473 0.931 1_565 S
C458 C457 1.391 . S
C458 C462 1.376 1_455 S
C459 C457 1.394 . S
C459 C460 1.369 . S
C459 C463 1.531 . S
C460 C459 1.369 . S
C460 C461 1.410 1_455 S
C460 C468 1.503 . S
C461 C460 1.410 1_655 S
C461 C462 1.392 . S
C461 C464 1.511 . S
C462 C458 1.376 1_655 S
C462 C461 1.392 . S
C462 H474 0.929 . S
C463 C459 1.531 . S
C463 H475 0.960 . S
C463 H476 0.962 . S
C463 H477 0.960 . S
C464 C461 1.511 . S
C464 H478 0.961 . S
C464 H479 0.961 . S
C464 H480 0.961 . S
C465 C466 1.370 . S
C465 C467 1.363 . S
C465 H481 0.931 . S
C466 C465 1.370 . S
C466 C470 1.408 . S
C467 C465 1.363 . S
C467 C468 1.370 . S
C467 C471 1.524 . S
C468 C460 1.503 . S
C468 C467 1.370 . S
C468 C469 1.403 . S
C469 C468 1.403 . S
C469 C470 1.404 . S
C469 C472 1.539 . S
C470 C466 1.408 . S
C470 C469 1.404 . S
C470 H482 0.930 . S
C471 C467 1.524 . S
C471 H483 0.956 . S
C471 H484 0.961 . S
C471 H485 0.961 . S
C472 C469 1.539 . S
C472 H486 0.958 . S
C472 H487 0.961 1_455 S
C472 H488 0.960 1_455 S
H473 C457 0.931 1_545 S
H474 C462 0.929 . S
H475 C463 0.960 . S
H476 C463 0.962 . S
H477 C463 0.960 . S
H478 C464 0.961 . S
H479 C464 0.961 . S
H480 C464 0.961 . S
H481 C465 0.931 . S
H482 C470 0.930 . S
H483 C471 0.956 . S
H484 C471 0.961 . S
H485 C471 0.961 . S
H486 C472 0.958 . S
H487 C472 0.961 1_655 S
H488 C472 0.960 1_655 S
C489 C490 1.391 . S
C489 C491 1.394 . S
C489 H505 0.931 . S
C490 C489 1.391 . S
C490 C494 1.376 . S
C491 C489 1.394 . S
C491 C492 1.369 . S
C491 C495 1.531 . S
C492 C491 1.369 . S
C492 C493 1.410 . S
C492 C500 1.503 . S
C493 C492 1.410 . S
C493 C494 1.392 . S
C493 C496 1.509 1_545 S
C494 C490 1.376 . S
C494 C493 1.392 . S
C494 H506 0.929 1_545 S
C495 C491 1.531 . S
C495 H507 0.960 . S
C495 H508 0.962 . S
C495 H509 0.960 . S
C496 C493 1.509 1_565 S
C496 H510 0.963 . S
C496 H511 0.963 . S
C496 H512 0.959 1_565 S
C497 C498 1.370 . S
C497 C499 1.363 . S
C497 H513 0.931 . S
C498 C497 1.370 . S
C498 C502 1.408 . S
C499 C497 1.363 . S
C499 C500 1.370 . S
C499 C503 1.524 1_545 S
C500 C492 1.503 . S
C500 C499 1.370 . S
C500 C501 1.403 . S
C501 C500 1.403 . S
C501 C502 1.404 . S
C501 C504 1.539 . S
C502 C498 1.408 . S
C502 C501 1.404 . S
C502 H514 0.930 . S
C503 C499 1.524 1_565 S
C503 H515 0.956 . S
C503 H516 0.961 . S
C503 H517 0.961 . S
C504 C501 1.539 . S
C504 H518 0.958 . S
C504 H519 0.961 . S
C504 H520 0.960 . S
H505 C489 0.931 . S
H506 C494 0.929 1_565 S
H507 C495 0.960 . S
H508 C495 0.962 . S
H509 C495 0.960 . S
H510 C496 0.963 . S
H511 C496 0.963 . S
H512 C496 0.959 1_545 S
H513 C497 0.931 . S
H514 C502 0.930 . S
H515 C503 0.956 . S
H516 C503 0.961 . S
H517 C503 0.961 . S
H518 C504 0.958 . S
H519 C504 0.961 . S
H520 C504 0.960 . S
C521 C522 1.391 . S
C521 C523 1.394 . S
C521 H537 0.931 . S
C522 C521 1.391 . S
C522 C526 1.376 . S
C523 C521 1.394 . S
C523 C524 1.369 . S
C523 C527 1.531 . S
C524 C523 1.369 . S
C524 C525 1.410 . S
C524 C532 1.503 . S
C525 C524 1.410 . S
C525 C526 1.392 . S
C525 C528 1.511 . S
C526 C522 1.376 . S
C526 C525 1.392 . S
C526 H538 0.929 . S
C527 C523 1.531 . S
C527 H539 0.960 . S
C527 H540 0.962 . S
C527 H541 0.960 . S
C528 C525 1.511 . S
C528 H542 0.961 . S
C528 H543 0.961 . S
C528 H544 0.961 . S
C529 C530 1.370 . S
C529 C531 1.363 . S
C529 H545 0.931 . S
C530 C529 1.370 . S
C530 C534 1.408 . S
C531 C529 1.363 . S
C531 C532 1.370 . S
C531 C535 1.524 . S
C532 C524 1.503 . S
C532 C531 1.370 . S
C532 C533 1.403 . S
C533 C532 1.403 . S
C533 C534 1.404 . S
C533 C536 1.539 . S
C534 C530 1.408 . S
C534 C533 1.404 . S
C534 H546 0.930 . S
C535 C531 1.524 . S
C535 H547 0.956 . S
C535 H548 0.961 . S
C535 H549 0.961 . S
C536 C533 1.539 . S
C536 H550 0.958 . S
C536 H551 0.961 . S
C536 H552 0.960 . S
H537 C521 0.931 . S
H538 C526 0.929 . S
H539 C527 0.960 . S
H540 C527 0.962 . S
H541 C527 0.960 . S
H542 C528 0.961 . S
H543 C528 0.961 . S
H544 C528 0.961 . S
H545 C529 0.931 . S
H546 C534 0.930 . S
H547 C535 0.956 . S
H548 C535 0.961 . S
H549 C535 0.961 . S
H550 C536 0.958 . S
H551 C536 0.961 . S
H552 C536 0.960 . S
C553 C554 1.391 . S
C553 C555 1.394 . S
C553 H569 0.931 . S
C554 C553 1.391 . S
C554 C558 1.376 . S
C555 C553 1.394 . S
C555 C556 1.369 . S
C555 C559 1.531 . S
C556 C555 1.369 . S
C556 C557 1.410 . S
C556 C564 1.503 . S
C557 C556 1.410 . S
C557 C558 1.392 . S
C557 C560 1.511 1_455 S
C558 C554 1.376 . S
C558 C557 1.392 . S
C558 H570 0.929 1_455 S
C559 C555 1.531 . S
C559 H571 0.960 . S
C559 H572 0.962 . S
C559 H573 0.960 . S
C560 C557 1.511 1_655 S
C560 H574 0.961 . S
C560 H575 0.961 . S
C560 H576 0.961 . S
C561 C562 1.370 . S
C561 C563 1.363 . S
C561 H577 0.931 . S
C562 C561 1.370 . S
C562 C566 1.408 . S
C563 C561 1.363 . S
C563 C564 1.370 . S
C563 C567 1.524 . S
C564 C556 1.503 . S
C564 C563 1.370 . S
C564 C565 1.403 . S
C565 C564 1.403 . S
C565 C566 1.404 . S
C565 C568 1.539 1_455 S
C566 C562 1.408 . S
C566 C565 1.404 . S
C566 H578 0.930 . S
C567 C563 1.524 . S
C567 H579 0.956 . S
C567 H580 0.961 . S
C567 H581 0.961 . S
C568 C565 1.539 1_655 S
C568 H582 0.958 1_655 S
C568 H583 0.961 . S
C568 H584 0.960 . S
H569 C553 0.931 . S
H570 C558 0.929 1_655 S
H571 C559 0.960 . S
H572 C559 0.962 . S
H573 C559 0.960 . S
H574 C560 0.961 . S
H575 C560 0.961 . S
H576 C560 0.961 . S
H577 C561 0.931 . S
H578 C566 0.930 . S
H579 C567 0.956 . S
H580 C567 0.961 . S
H581 C567 0.961 . S
H582 C568 0.958 1_455 S
H583 C568 0.961 . S
H584 C568 0.960 . S
C210 C64 1.346 . S
C202 C11 1.345 . S
C234 C25 1.373 . S
C242 C134 1.412 . S
C266 C41 1.395 1_655 S
C274 C186 1.439 . S
C298 C7 1.375 1_565 S
C306 C80 1.373 . S
C338 C124 1.432 . S
C330 C21 1.421 . S
C362 C36 1.431 . S
C370 C170 1.454 . S
C402 C117 1.403 . S
C394 C39 1.391 . S
C426 C8 1.393 1_566 S
C434 C177 1.452 . S
C466 C71 1.505 . S
C458 C22 1.473 1_565 S
C498 C133 1.431 . S
C490 C35 1.412 . S
C530 C187 1.434 . S
C522 C13 1.360 1_556 S
C554 C27 1.436 . S
C562 C81 1.488 . S
