# Generated by pormake.
# Topology ssa, (4,4)-cn, num edge types: 1
# Building blocks:
#     Node 0, Type 0, BuildingBlock: KOZSID_clean_sbu_0, # of connection points: 4
#     Node 1, Type 0, BuildingBlock: KOZSID_clean_sbu_0, # of connection points: 4
#     Node 2, Type 0, BuildingBlock: KOZSID_clean_sbu_0, # of connection points: 4
#     Node 3, Type 0, BuildingBlock: KOZSID_clean_sbu_0, # of connection points: 4
#     Node 4, Type 0, BuildingBlock: KOZSID_clean_sbu_0, # of connection points: 4
#     Node 5, Type 0, BuildingBlock: KOZSID_clean_sbu_0, # of connection points: 4
#     Node 6, Type 1, BuildingBlock: MUDLON_clean_sbu_0, # of connection points: 4
#     Node 7, Type 1, BuildingBlock: MUDLON_clean_sbu_0, # of connection points: 4
#     Node 8, Type 1, BuildingBlock: MUDLON_clean_sbu_0, # of connection points: 4
#     Node 9, Type 1, BuildingBlock: MUDLON_clean_sbu_0, # of connection points: 4
#     Node 10, Type 1, BuildingBlock: MUDLON_clean_sbu_0, # of connection points: 4
#     Node 11, Type 1, BuildingBlock: MUDLON_clean_sbu_0, # of connection points: 4
#     Edge 12, Type (0, 1), None
#     Edge 13, Type (0, 1), None
#     Edge 14, Type (0, 1), None
#     Edge 15, Type (0, 1), None
#     Edge 16, Type (0, 1), None
#     Edge 17, Type (0, 1), None
#     Edge 18, Type (0, 1), None
#     Edge 19, Type (0, 1), None
#     Edge 20, Type (0, 1), None
#     Edge 21, Type (0, 1), None
#     Edge 22, Type (0, 1), None
#     Edge 23, Type (0, 1), None
#     Edge 24, Type (0, 1), None
#     Edge 25, Type (0, 1), None
#     Edge 26, Type (0, 1), None
#     Edge 27, Type (0, 1), None
#     Edge 28, Type (0, 1), None
#     Edge 29, Type (0, 1), None
#     Edge 30, Type (0, 1), None
#     Edge 31, Type (0, 1), None
#     Edge 32, Type (0, 1), None
#     Edge 33, Type (0, 1), None
#     Edge 34, Type (0, 1), None
#     Edge 35, Type (0, 1), None
# Relax obj value: 0.024
# Max RMSD: 0.042
# Mean RMSD: 0.026
data_MOF--net-ssa--node1-KOZSID_clean_sbu_0--node2-MUDLON_clean_sbu_0--edge1-none
_symmetry_space_group_name_H-M    P1
_symmetry_Int_Tables_number       1
_symmetry_cell_setting            triclinic
loop_
_symmetry_equiv_pos_as_xyz
'x, y, z'
_cell_length_a     23.967644
_cell_length_b     25.36134
_cell_length_c     22.31191
_cell_angle_alpha  84.965664
_cell_angle_beta   89.849851
_cell_angle_gamma 125.63872
loop_
_atom_site_label
_atom_site_type_symbol
_atom_site_fract_x
_atom_site_fract_y
_atom_site_fract_z
_atom_type_partial_charge
C0 C 0.88585 0.49532 0.0456 0.0
C1 C 0.82345 0.46654 0.07834 0.0
C2 C 0.82122 0.42746 0.12579 0.0
C3 C 0.88269 0.43544 0.12039 0.0
N4 N 0.92528 0.47974 0.074 0.0
Co5 Co 0.01859 0.50484 0.04854 0.0
N6 N 1.00688 0.43376 0.1059 0.0
C7 C 0.9507 0.3883 0.14219 0.0
C8 C 0.95487 0.34052 0.16992 0.0
C9 C 0.01903 0.35873 0.15235 0.0
C10 C 0.05148 0.41837 0.11649 0.0
N11 N 0.11196 0.52994 0.02329 0.0
C12 C 0.15096 0.51485 0.05331 0.0
C13 C 0.2165 0.54828 0.02543 0.0
C14 C 0.21991 0.58839 0.978 0.0
C15 C 0.15626 0.57671 0.97914 0.0
N16 N 0.02866 0.57512 0.99044 0.0
C17 C 0.08559 0.62163 0.95527 0.0
C18 C 0.07669 0.66236 0.91911 0.0
C19 C 1.00919 0.63844 0.92975 0.0
C20 C 0.97976 0.58294 0.97109 0.0
N21 N 0.0632 0.56663 0.11235 0.0
C22 C 0.13628 0.64778 0.20507 0.0
C23 C 0.16375 0.66615 0.14555 0.0
C24 C 0.12618 0.62609 0.10034 0.0
C25 C 0.0711 0.5883 0.21716 0.0
C26 C 0.0364 0.54844 0.17101 0.0
N27 N 0.97568 0.4435 0.98512 0.0
C28 C 0.96434 0.42581 0.87944 0.0
C29 C 0.90333 0.36337 0.89295 0.0
C30 C 0.88092 0.34034 0.95342 0.0
C31 C 0.91711 0.3811 0.99837 0.0
C32 C 1.00032 0.46414 0.9259 0.0
H33 H 0.89452 0.36207 0.04317 0.0
H34 H 0.04624 0.51154 0.91262 0.0
H35 H 0.1498 0.64459 0.05595 0.0
H36 H 0.98807 0.503 0.18393 0.0
C37 C 0.89568 0.39278 0.14945 0.0
C38 C 0.9047 0.53397 0.98607 0.0
C39 C 0.12648 0.46815 0.1077 0.0
C40 C 0.14205 0.61861 0.94996 0.0
H41 H 0.78217 0.47056 0.06773 0.0
H42 H 0.77778 0.39348 0.15754 0.0
H43 H 0.91668 0.29844 0.20046 0.0
H44 H 0.04019 0.33248 0.16739 0.0
H45 H 0.25809 0.54554 0.03914 0.0
H46 H 0.26508 0.62529 0.94917 0.0
H47 H 0.1136 0.70219 0.88604 0.0
H48 H 0.98477 0.65876 0.90731 0.0
H49 H 0.21277 0.71264 0.13322 0.0
H50 H 0.04665 0.57252 0.26237 0.0
H51 H 0.98297 0.44595 0.83295 0.0
H52 H 0.8329 0.29294 0.9658 0.0
C53 C 0.63873 0.04188 0.64401 0.0
C54 C 0.63631 0.01018 0.69896 0.0
C55 C 0.57295 0.95114 0.7057 0.0
C56 C 0.5407 0.94998 0.65454 0.0
N57 N 0.58034 1.00371 0.61524 0.0
Co58 Co 0.55464 0.01974 0.53421 0.0
N59 N 0.45415 0.9496 0.55407 0.0
C60 C 0.42734 0.91004 0.60645 0.0
C61 C 0.35727 0.86824 0.60985 0.0
C62 C 0.33834 0.87971 0.55538 0.0
C63 C 0.39855 0.92742 0.52009 0.0
N64 N 0.52962 0.03225 0.45106 0.0
C65 C 0.47011 0.9933 0.42299 0.0
C66 C 0.47852 0.01611 0.36222 0.0
C67 C 0.54592 0.06742 0.35076 0.0
C68 C 0.57492 0.0743 0.40492 0.0
N69 N 0.65382 0.09317 0.51639 0.0
C70 C 0.68457 0.12653 0.46218 0.0
C71 C 0.75361 0.17439 0.46393 0.0
C72 C 0.76699 0.17224 0.52339 0.0
C73 C 0.70472 0.12373 0.55479 0.0
N74 N 0.56882 0.95708 0.50288 0.0
C75 C 0.57797 0.88467 0.42102 0.0
C76 C 0.63736 0.94264 0.43571 0.0
C77 C 0.63187 0.97723 0.47821 0.0
C78 C 0.51669 0.85874 0.45504 0.0
C79 C 0.51346 0.89487 0.49609 0.0
N80 N 0.54209 0.08311 0.56527 0.0
C81 C 0.57186 0.19256 0.56014 0.0
C82 C 0.54368 0.18058 0.61911 0.0
C83 C 0.51313 0.11828 0.64974 0.0
C84 C 0.51306 0.07077 0.62234 0.0
C85 C 0.56978 0.14309 0.5339 0.0
H86 H 0.49105 0.02468 0.64863 0.0
H87 H 0.59228 0.1543 0.48877 0.0
H88 H 0.67901 0.02097 0.48885 0.0
H89 H 0.46441 0.87176 0.5195 0.0
C90 C 0.46985 0.90923 0.64887 0.0
C91 C 0.69442 0.10934 0.62112 0.0
C92 C 0.40376 0.93627 0.45249 0.0
C93 C 0.64544 0.11532 0.4125 0.0
H94 H 0.67506 0.02858 0.73164 0.0
H95 H 0.55116 0.9155 0.74512 0.0
H96 H 0.32391 0.83112 0.6463 0.0
H97 H 0.28566 0.85146 0.54344 0.0
H98 H 0.44042 0.99757 0.32899 0.0
H99 H 0.57131 0.09487 0.30749 0.0
H100 H 0.78944 0.2083 0.42687 0.0
H101 H 0.81663 0.20377 0.5416 0.0
H102 H 0.68691 0.9623 0.41325 0.0
H103 H 0.47014 0.81147 0.44861 0.0
H104 H 0.59483 0.23956 0.53412 0.0
H105 H 0.49011 0.10629 0.69522 0.0
C106 C 0.66413 0.61709 0.95103 0.0
C107 C 0.67785 0.65912 0.89964 0.0
C108 C 0.61629 0.64697 0.88438 0.0
C109 C 0.56844 0.59913 0.9275 0.0
N110 N 0.59622 0.58161 0.97009 0.0
Co111 Co 0.54252 0.51098 0.03798 0.0
N112 N 0.45718 0.50601 0.0257 0.0
C113 C 0.44462 0.53019 0.97581 0.0
C114 C 0.38183 0.52017 0.98041 0.0
C115 C 0.35344 0.48826 0.03707 0.0
C116 C 0.40099 0.48113 0.0645 0.0
N117 N 0.48784 0.43911 0.1042 0.0
C118 C 0.42877 0.41904 0.1356 0.0
C119 C 0.40666 0.36469 0.17625 0.0
C120 C 0.45543 0.3528 0.17211 0.0
C121 C 0.50382 0.3994 0.12844 0.0
N122 N 0.62716 0.51671 0.05343 0.0
C123 C 0.6312 0.476 0.093 0.0
C124 C 0.69719 0.5018 0.10771 0.0
C125 C 0.73725 0.56068 0.07283 0.0
C126 C 0.69352 0.56701 0.03689 0.0
N127 N 0.56987 0.57569 0.09437 0.0
C128 C 0.59959 0.66281 0.17806 0.0
C129 C 0.59913 0.60814 0.19404 0.0
C130 C 0.58519 0.56576 0.15138 0.0
C131 C 0.58794 0.67497 0.11884 0.0
C132 C 0.57248 0.63036 0.07773 0.0
N133 N 0.51631 0.44668 0.9803 0.0
C134 C 0.54786 0.41411 0.89511 0.0
C135 C 0.47886 0.36476 0.88818 0.0
C136 C 0.42911 0.35564 0.93 0.0
C137 C 0.44885 0.39671 0.97575 0.0
C138 C 0.56537 0.45404 0.94138 0.0
H139 H 0.40938 0.38873 1.0068 0.0
H140 H 0.61893 0.49161 0.94449 0.0
H141 H 0.58401 0.52354 0.16564 0.0
H142 H 0.55979 0.6388 0.03338 0.0
C143 C 0.49796 0.57225 0.93161 0.0
C144 C 0.71472 0.60706 0.97705 0.0
C145 C 0.39207 0.44969 0.12669 0.0
C146 C 0.57187 0.41955 0.12254 0.0
H147 H 0.72691 0.69414 0.87489 0.0
H148 H 0.60758 0.67037 0.84638 0.0
H149 H 0.36054 0.53687 0.94771 0.0
H150 H 0.30364 0.47248 0.05566 0.0
H151 H 0.36097 0.33732 0.2067 0.0
H152 H 0.45784 0.31759 0.20084 0.0
H153 H 0.71406 0.48117 0.14108 0.0
H154 H 0.79273 0.59357 0.07233 0.0
H155 H 0.60622 0.59652 0.24004 0.0
H156 H 0.58553 0.71573 0.10571 0.0
H157 H 0.5882 0.42254 0.86461 0.0
H158 H 0.37498 0.31734 0.92725 0.0
C159 C 0.88387 0.39916 0.58004 0.0
C160 C 0.81546 0.36437 0.56608 0.0
C161 C 0.81308 0.39712 0.51526 0.0
C162 C 0.87981 0.44975 0.50042 0.0
N163 N 0.92513 0.45146 0.53747 0.0
Co164 Co 0.02547 0.52567 0.5379 0.0
N165 N 0.01812 0.58386 0.47624 0.0
C166 C 0.96097 0.56674 0.44781 0.0
C167 C 0.96946 0.61644 0.40952 0.0
C168 C 0.03658 0.66799 0.41239 0.0
C169 C 0.0661 0.6467 0.45208 0.0
N170 N 0.12422 0.59941 0.54208 0.0
C171 C 0.16246 0.66003 0.51147 0.0
C172 C 0.22738 0.6982 0.53388 0.0
C173 C 0.23151 0.65917 0.57687 0.0
C174 C 0.16866 0.60006 0.57979 0.0
N175 N 0.03272 0.46721 0.59844 0.0
C176 C 0.09126 0.4796 0.6202 0.0
C177 C 0.08232 0.42717 0.65369 0.0
C178 C 0.01325 0.37944 0.65581 0.0
C179 C 0.98309 0.4067 0.62581 0.0
N180 N 0.05284 0.49486 0.47009 0.0
C181 C 0.10957 0.47842 0.36607 0.0
C182 C 0.13835 0.48574 0.42176 0.0
C183 C 0.11008 0.49449 0.47223 0.0
C184 C 0.04909 0.47514 0.36454 0.0
C185 C 0.02099 0.48172 0.41673 0.0
N186 N 1.00004 0.55779 0.60387 0.0
C187 C 1.00344 0.57871 0.70803 0.0
C188 C 0.95332 0.59026 0.70084 0.0
C189 C 0.92957 0.58865 0.64363 0.0
C190 C 0.9528 0.57168 0.59631 0.0
C191 C 0.02684 0.56385 0.65914 0.0
H192 H 0.92928 0.56724 0.55481 0.0
H193 H 0.06454 0.55473 0.66767 0.0
H194 H 0.13805 0.5042 0.51152 0.0
H195 H 0.97489 0.47857 0.41206 0.0
C196 C 0.89934 0.50433 0.46044 0.0
C197 C 0.90881 0.37991 0.63238 0.0
C198 C 0.14082 0.68279 0.4594 0.0
C199 C 0.15203 0.54287 0.61317 0.0
H200 H 0.77127 0.32065 0.59028 0.0
H201 H 0.76737 0.38615 0.49404 0.0
H202 H 0.93136 0.61539 0.38265 0.0
H203 H 0.06027 0.71526 0.38707 0.0
H204 H 0.26851 0.74864 0.51953 0.0
H205 H 0.27573 0.67191 0.60177 0.0
H206 H 0.12094 0.42455 0.67576 0.0
H207 H 0.98874 0.33101 0.67894 0.0
H208 H 0.18559 0.48948 0.42555 0.0
H209 H 0.02427 0.4691 0.32263 0.0
H210 H 0.02246 0.57842 0.752 0.0
H211 H 0.88927 0.59534 0.63646 0.0
C212 C 0.38379 0.98849 0.13733 0.0
C213 C 0.39595 0.02355 0.1863 0.0
C214 C 0.46544 0.07048 0.18484 0.0
C215 C 0.49203 0.06302 0.1345 0.0
N216 N 0.44343 0.01572 0.10289 0.0
Co217 Co 0.46222 0.99172 0.0264 0.0
N218 N 0.55932 0.07154 1.01543 0.0
C219 C 0.59547 0.10922 0.05886 0.0
C220 C 0.66017 0.16221 0.03798 0.0
C221 C 0.66469 0.15818 0.97741 0.0
C222 C 0.60175 0.10318 0.96406 0.0
N223 N 0.48239 0.9685 0.95068 0.0
C224 C 0.53343 0.00649 0.90631 0.0
C225 C 0.53148 0.96745 0.86496 0.0
C226 C 0.47505 0.90488 0.88174 0.0
C227 C 0.44661 0.90808 0.93342 0.0
N228 N 0.36512 0.91307 0.03476 0.0
C229 C 0.33807 0.86299 1.00096 0.0
C230 C 0.26797 0.82006 1.00993 0.0
C231 C 0.25017 0.84342 0.05363 0.0
C232 C 0.31102 0.89823 0.07107 0.0
N233 N 0.43387 0.0404 0.97883 0.0
C234 C 0.42149 0.12208 0.89599 0.0
C235 C 0.3892 0.05654 0.88747 0.0
C236 C 0.39599 0.01639 0.92959 0.0
C237 C 0.45418 0.14399 0.94943 0.0
C238 C 0.45919 0.10236 0.99044 0.0
N239 N 0.49061 0.94207 0.07474 0.0
C240 C 0.57332 0.91829 0.09567 0.0
C241 C 0.53336 0.87524 0.14728 0.0
C242 C 0.47064 0.86536 0.16055 0.0
C243 C 0.45051 0.89903 0.12412 0.0
C244 C 0.55108 0.95067 0.06011 0.0
H245 H 0.40252 0.89028 0.13697 0.0
H246 H 0.58332 0.98333 0.02107 0.0
H247 H 0.37472 0.96742 0.91989 0.0
H248 H 0.48825 0.1222 0.02917 0.0
C249 C 0.56143 0.10241 0.1132 0.0
C250 C 0.31859 0.92374 0.13061 0.0
C251 C 0.5849 0.07886 0.90366 0.0
C252 C 0.37931 0.86115 0.95777 0.0
H253 H 0.359 0.01505 0.22084 0.0
H254 H 0.49316 0.10588 0.21669 0.0
H255 H 0.69818 0.2014 0.06292 0.0
H256 H 0.70949 0.19218 0.94716 0.0
H257 H 0.56676 0.9818 0.82663 0.0
H258 H 0.45522 0.86291 0.85724 0.0
H259 H 0.23373 0.77713 0.98726 0.0
H260 H 0.19834 0.82032 0.07253 0.0
H261 H 0.36433 0.03805 0.84626 0.0
H262 H 0.48007 0.19453 0.95752 0.0
H263 H 0.62222 0.92769 0.0829 0.0
H264 H 0.43784 0.83302 0.1997 0.0
C265 C 0.5277 0.64323 0.53124 0.0
C266 C 0.51352 0.67917 0.56325 0.0
C267 C 0.48257 0.64312 0.61811 0.0
C268 C 0.48064 0.58794 0.6171 0.0
N269 N 0.51007 0.58823 0.56572 0.0
Co270 Co 0.51625 0.51803 0.54295 0.0
N271 N 0.43875 0.45123 0.60161 0.0
C272 C 0.41118 0.46423 0.64569 0.0
C273 C 0.35734 0.40903 0.67881 0.0
C274 C 0.35229 0.35821 0.6557 0.0
C275 C 0.40473 0.38534 0.61044 0.0
N276 N 0.52252 0.44832 0.51829 0.0
C277 C 0.47803 0.38241 0.53075 0.0
C278 C 0.49832 0.35236 0.49622 0.0
C279 C 0.5602 0.40085 0.46637 0.0
C280 C 0.57357 0.458 0.4822 0.0
N281 N 0.59297 0.58571 0.48488 0.0
C282 C 0.6413 0.5824 0.45892 0.0
C283 C 0.68383 0.63518 0.41688 0.0
C284 C 0.65928 0.67262 0.41547 0.0
C285 C 0.60226 0.64006 0.45628 0.0
N286 N 0.58175 0.53574 0.60589 0.0
C287 C 0.67624 0.56193 0.69502 0.0
C288 C 0.62334 0.49783 0.68569 0.0
C289 C 0.57706 0.48594 0.64117 0.0
C290 C 0.68051 0.61263 0.65859 0.0
C291 C 0.63325 0.59864 0.6146 0.0
N292 N 0.45251 0.50155 0.47991 0.0
C293 C 0.43479 0.50482 0.37362 0.0
C294 C 0.37764 0.5048 0.38542 0.0
C295 C 0.35658 0.50011 0.4454 0.0
C296 C 0.39513 0.49928 0.49199 0.0
C297 C 0.47064 0.50189 0.42148 0.0
H298 H 0.37957 0.49861 0.53754 0.0
H299 H 0.51458 0.50225 0.41066 0.0
H300 H 0.53785 0.4361 0.63563 0.0
H301 H 0.63851 0.63885 0.58736 0.0
C302 C 0.43506 0.5286 0.65278 0.0
C303 C 0.55672 0.66023 0.46806 0.0
C304 C 0.42992 0.34976 0.58585 0.0
C305 C 0.62945 0.52129 0.45922 0.0
H306 H 0.52237 0.72535 0.54824 0.0
H307 H 0.459 0.65339 0.65225 0.0
H308 H 0.32593 0.40602 0.71577 0.0
H309 H 0.31632 0.30721 0.67251 0.0
H310 H 0.4731 0.30062 0.49499 0.0
H311 H 0.59135 0.39498 0.43637 0.0
H312 H 0.72353 0.64238 0.38646 0.0
H313 H 0.67954 0.71719 0.38619 0.0
H314 H 0.61762 0.45698 0.71242 0.0
H315 H 0.72043 0.66328 0.66369 0.0
H316 H 0.45054 0.50527 0.32789 0.0
H317 H 0.3107 0.49724 0.45616 0.0
Mg318 Mg 0.26741 0.49664 0.23126 0.0
C319 C 0.16874 0.47319 0.15102 0.0
O320 O 0.14706 0.42413 0.19258 0.0
C321 C 0.33223 0.49559 0.33716 0.0
O322 O 0.27395 0.4376 0.33689 0.0
C323 C 0.14793 0.4856 0.30886 0.0
O324 O 0.15385 0.52537 0.2633 0.0
O325 O 0.18287 0.46197 0.30567 0.0
O326 O 0.22853 0.52528 0.15583 0.0
O327 O 0.3166 0.46954 0.16555 0.0
C328 C 0.35457 0.44964 0.17372 0.0
O329 O 0.36065 0.43284 0.22939 0.0
O330 O 0.34947 0.53943 0.29332 0.0
Mg331 Mg 0.75233 0.23026 0.76988 0.0
C332 C 0.72916 0.15805 0.6576 0.0
O333 O 0.76905 0.21859 0.63307 0.0
C334 C 0.85662 0.32958 0.84485 0.0
O335 O 0.83364 0.359 0.81403 0.0
C336 C 0.61932 0.11729 0.84974 0.0
O337 O 0.60476 0.09059 0.79905 0.0
O338 O 0.66782 0.1787 0.84648 0.0
O339 O 0.7193 0.14779 0.71515 0.0
O340 O 0.80439 0.31547 0.694 0.0
C341 C 0.868 0.33868 0.68313 0.0
O342 O 0.89395 0.31926 0.72322 0.0
O343 O 0.83394 0.27147 0.83506 0.0
Mg344 Mg 0.58443 0.77859 0.29305 0.0
C345 C 0.56013 0.8452 0.18797 0.0
O346 O 0.62518 0.86797 0.18031 0.0
C347 C 0.54421 0.69364 0.42512 0.0
O348 O 0.5065 0.71337 0.4393 0.0
C349 C 0.57647 0.85006 0.37079 0.0
O350 O 0.51611 0.80349 0.3535 0.0
O351 O 0.63025 0.86085 0.34505 0.0
O352 O 0.52397 0.80127 0.23246 0.0
O353 O 0.63164 0.75708 0.226 0.0
C354 C 0.59348 0.69531 0.22588 0.0
O355 O 0.54007 0.65957 0.26492 0.0
O356 O 0.56917 0.70666 0.37068 0.0
Mg357 Mg 0.816 0.58586 0.83347 0.0
C358 C 0.72743 0.57764 0.74143 0.0
O359 O 0.77492 0.63931 0.74779 0.0
C360 C 0.85543 0.52503 0.94794 0.0
O361 O 0.78999 0.47746 0.96024 0.0
C362 C 0.76772 0.61639 0.94191 0.0
O363 O 0.80746 0.6015 0.96516 0.0
O364 O 0.77317 0.62839 0.88456 0.0
O365 O 0.72823 0.5344 0.77516 0.0
O366 O 0.89405 0.62346 0.75773 0.0
C367 C 0.91515 0.58747 0.75465 0.0
O368 O 0.8928 0.5386 0.79664 0.0
O369 O 0.8717 0.56459 0.90083 0.0
Mg370 Mg 0.26663 0.82039 0.30938 0.0
C371 C 0.16764 0.69442 0.25179 0.0
O372 O 0.12576 0.69893 0.2851 0.0
C373 C 0.34975 0.89375 0.41912 0.0
O374 O 0.28633 0.86447 0.44076 0.0
C375 C 0.18954 0.72926 0.41622 0.0
O376 O 0.24977 0.73918 0.41154 0.0
O377 O 0.17944 0.76293 0.37791 0.0
O378 O 0.23299 0.73654 0.25464 0.0
O379 O 0.29285 0.89672 0.23417 0.0
C380 C 0.27792 0.8815 0.1805 0.0
O381 O 0.229 0.82027 0.17493 0.0
O382 O 0.35824 0.88213 0.36604 0.0
Mg383 Mg 0.44988 0.24975 0.74035 0.0
C384 C 0.54152 0.2304 0.64754 0.0
O385 O 0.5797 0.29191 0.62461 0.0
C386 C 0.458 0.32249 0.83847 0.0
O387 O 0.39223 0.27813 0.83271 0.0
C388 C 0.43715 0.17118 0.84527 0.0
O389 O 0.50172 0.22142 0.83414 0.0
O390 O 0.39263 0.16566 0.80979 0.0
O391 O 0.49624 0.2112 0.69038 0.0
O392 O 0.40613 0.28714 0.67725 0.0
C393 C 0.428 0.30174 0.62184 0.0
O394 O 0.45977 0.27752 0.60352 0.0
O395 O 0.50167 0.32647 0.80167 0.0
loop_
_geom_bond_atom_site_label_1
_geom_bond_atom_site_label_2
_geom_bond_distance
_geom_bond_site_symmetry_2
_ccdc_geom_bond_type
C0 C1 1.443 . S
C0 N4 1.376 1_556 S
C0 C38 1.389 . S
C1 C0 1.443 . S
C1 C2 1.340 1_556 S
C1 H41 0.951 . S
C2 C1 1.340 1_554 S
C2 C3 1.439 . S
C2 H42 0.950 . S
C3 C2 1.439 . S
C3 N4 1.374 . S
C3 C37 1.395 . S
N4 C0 1.376 1_554 S
N4 C3 1.374 . S
N4 Co5 2.008 1_655 S
Co5 N4 2.008 1_455 S
Co5 N6 1.995 1_455 S
Co5 N11 2.008 . S
Co5 N16 1.995 1_554 S
Co5 N21 2.282 . S
Co5 N27 2.282 1_454 S
N6 Co5 1.995 1_655 S
N6 C7 1.376 . S
N6 C10 1.383 1_655 S
C7 N6 1.376 . S
C7 C8 1.446 . S
C7 C37 1.391 . S
C8 C7 1.446 . S
C8 C9 1.339 . S
C8 H43 0.949 . S
C9 C8 1.339 . S
C9 C10 1.439 1_655 S
C9 H44 0.950 1_655 S
C10 N6 1.383 1_455 S
C10 C9 1.439 1_455 S
C10 C39 1.392 . S
N11 Co5 2.008 . S
N11 C12 1.376 . S
N11 C15 1.374 1_554 S
C12 N11 1.376 . S
C12 C13 1.443 . S
C12 C39 1.389 . S
C13 C12 1.443 . S
C13 C14 1.340 1_554 S
C13 H45 0.951 . S
C14 C13 1.340 1_556 S
C14 C15 1.439 . S
C14 H46 0.950 . S
C15 N11 1.374 1_556 S
C15 C14 1.439 . S
C15 C40 1.395 . S
N16 Co5 1.995 1_556 S
N16 C17 1.376 . S
N16 C20 1.383 . S
C17 N16 1.376 . S
C17 C18 1.446 . S
C17 C40 1.391 . S
C18 C17 1.446 . S
C18 C19 1.339 . S
C18 H47 0.949 . S
C19 C18 1.339 . S
C19 C20 1.439 . S
C19 H48 0.950 . S
C20 N16 1.383 . S
C20 C19 1.439 . S
C20 C38 1.392 1_455 S
N21 Co5 2.282 . S
N21 C24 1.332 . S
N21 C26 1.332 . S
C22 C23 1.386 . S
C22 C25 1.388 . S
C23 C22 1.386 . S
C23 C24 1.382 . S
C23 H49 0.950 . S
C24 N21 1.332 . S
C24 C23 1.382 . S
C24 H35 0.952 . S
C25 C22 1.388 . S
C25 C26 1.382 . S
C25 H50 0.950 . S
C26 N21 1.332 . S
C26 C25 1.382 . S
C26 H36 0.942 1_455 S
N27 Co5 2.282 1_656 S
N27 C31 1.332 . S
N27 C32 1.332 . S
C28 C29 1.388 . S
C28 C32 1.382 . S
C28 H51 0.950 . S
C29 C28 1.388 . S
C29 C30 1.386 . S
C30 C29 1.386 . S
C30 C31 1.382 . S
C30 H52 0.950 . S
C31 N27 1.332 . S
C31 C30 1.382 . S
C31 H33 0.952 1_556 S
C32 N27 1.332 . S
C32 C28 1.382 . S
C32 H34 0.948 1_655 S
H33 C31 0.952 1_554 S
H34 C32 0.948 1_455 S
H35 C24 0.952 . S
H36 C26 0.942 1_655 S
C37 C3 1.395 . S
C37 C7 1.391 . S
C38 C0 1.389 . S
C38 C20 1.392 1_655 S
C39 C10 1.392 . S
C39 C12 1.389 . S
C40 C15 1.395 . S
C40 C17 1.391 . S
H41 C1 0.951 . S
H42 C2 0.950 . S
H43 C8 0.949 . S
H44 C9 0.950 1_455 S
H45 C13 0.951 . S
H46 C14 0.950 . S
H47 C18 0.949 . S
H48 C19 0.950 . S
H49 C23 0.950 . S
H50 C25 0.950 . S
H51 C28 0.950 . S
H52 C30 0.950 . S
C53 C54 1.443 . S
C53 N57 1.376 1_545 S
C53 C91 1.389 . S
C54 C53 1.443 . S
C54 C55 1.340 1_545 S
C54 H94 0.951 . S
C55 C54 1.340 1_565 S
C55 C56 1.439 . S
C55 H95 0.950 . S
C56 C55 1.439 . S
C56 N57 1.374 . S
C56 C90 1.395 . S
N57 C53 1.376 1_565 S
N57 C56 1.374 . S
N57 Co58 2.008 1_565 S
Co58 N57 2.008 1_545 S
Co58 N59 1.995 1_545 S
Co58 N64 2.008 . S
Co58 N69 1.995 . S
Co58 N74 2.282 1_545 S
Co58 N80 2.282 . S
N59 Co58 1.995 1_565 S
N59 C60 1.376 . S
N59 C63 1.383 . S
C60 N59 1.376 . S
C60 C61 1.446 . S
C60 C90 1.391 . S
C61 C60 1.446 . S
C61 C62 1.339 . S
C61 H96 0.949 . S
C62 C61 1.339 . S
C62 C63 1.439 . S
C62 H97 0.950 . S
C63 N59 1.383 . S
C63 C62 1.439 . S
C63 C92 1.392 . S
N64 Co58 2.008 . S
N64 C65 1.376 . S
N64 C68 1.374 . S
C65 N64 1.376 . S
C65 C66 1.443 . S
C65 C92 1.389 1_545 S
C66 C65 1.443 . S
C66 C67 1.340 . S
C66 H98 0.951 . S
C67 C66 1.340 . S
C67 C68 1.439 . S
C67 H99 0.950 . S
C68 N64 1.374 . S
C68 C67 1.439 . S
C68 C93 1.395 . S
N69 Co58 1.995 . S
N69 C70 1.376 . S
N69 C73 1.383 . S
C70 N69 1.376 . S
C70 C71 1.446 . S
C70 C93 1.391 . S
C71 C70 1.446 . S
C71 C72 1.339 . S
C71 H100 0.949 . S
C72 C71 1.339 . S
C72 C73 1.439 . S
C72 H101 0.950 . S
C73 N69 1.383 . S
C73 C72 1.439 . S
C73 C91 1.392 . S
N74 Co58 2.282 1_565 S
N74 C77 1.332 1_565 S
N74 C79 1.332 . S
C75 C76 1.386 . S
C75 C78 1.388 . S
C76 C75 1.386 . S
C76 C77 1.382 1_565 S
C76 H102 0.950 1_565 S
C77 N74 1.332 1_545 S
C77 C76 1.382 1_545 S
C77 H88 0.952 . S
C78 C75 1.388 . S
C78 C79 1.382 . S
C78 H103 0.950 . S
C79 N74 1.332 . S
C79 C78 1.382 . S
C79 H89 0.948 . S
N80 Co58 2.282 . S
N80 C84 1.332 . S
N80 C85 1.332 . S
C81 C82 1.388 . S
C81 C85 1.382 . S
C81 H104 0.950 . S
C82 C81 1.388 . S
C82 C83 1.386 . S
C83 C82 1.386 . S
C83 C84 1.382 . S
C83 H105 0.950 . S
C84 N80 1.332 . S
C84 C83 1.382 . S
C84 H86 0.952 1_545 S
C85 N80 1.332 . S
C85 C81 1.382 . S
C85 H87 0.948 . S
H86 C84 0.952 1_565 S
H87 C85 0.948 . S
H88 C77 0.952 . S
H89 C79 0.948 . S
C90 C56 1.395 . S
C90 C60 1.391 . S
C91 C53 1.389 . S
C91 C73 1.392 . S
C92 C63 1.392 . S
C92 C65 1.389 1_565 S
C93 C68 1.395 . S
C93 C70 1.391 . S
H94 C54 0.951 . S
H95 C55 0.950 . S
H96 C61 0.949 . S
H97 C62 0.950 . S
H98 C66 0.951 . S
H99 C67 0.950 . S
H100 C71 0.949 . S
H101 C72 0.950 . S
H102 C76 0.950 1_545 S
H103 C78 0.950 . S
H104 C81 0.950 . S
H105 C83 0.950 . S
C106 C107 1.443 . S
C106 N110 1.376 . S
C106 C144 1.389 . S
C107 C106 1.443 . S
C107 C108 1.340 . S
C107 H147 0.951 . S
C108 C107 1.340 . S
C108 C109 1.439 . S
C108 H148 0.950 . S
C109 C108 1.439 . S
C109 N110 1.374 . S
C109 C143 1.395 . S
N110 C106 1.376 . S
N110 C109 1.374 . S
N110 Co111 2.008 1_556 S
Co111 N110 2.008 1_554 S
Co111 N112 1.995 . S
Co111 N117 2.008 . S
Co111 N122 1.995 . S
Co111 N127 2.282 . S
Co111 N133 2.282 1_554 S
N112 Co111 1.995 . S
N112 C113 1.376 1_554 S
N112 C116 1.383 . S
C113 N112 1.376 1_556 S
C113 C114 1.446 . S
C113 C143 1.391 . S
C114 C113 1.446 . S
C114 C115 1.339 1_556 S
C114 H149 0.949 . S
C115 C114 1.339 1_554 S
C115 C116 1.439 . S
C115 H150 0.950 . S
C116 N112 1.383 . S
C116 C115 1.439 . S
C116 C145 1.392 . S
N117 Co111 2.008 . S
N117 C118 1.376 . S
N117 C121 1.374 . S
C118 N117 1.376 . S
C118 C119 1.443 . S
C118 C145 1.389 . S
C119 C118 1.443 . S
C119 C120 1.340 . S
C119 H151 0.951 . S
C120 C119 1.340 . S
C120 C121 1.439 . S
C120 H152 0.950 . S
C121 N117 1.374 . S
C121 C120 1.439 . S
C121 C146 1.395 . S
N122 Co111 1.995 . S
N122 C123 1.376 . S
N122 C126 1.383 1_554 S
C123 N122 1.376 . S
C123 C124 1.446 . S
C123 C146 1.391 . S
C124 C123 1.446 . S
C124 C125 1.321 1_554 S
C124 H153 0.949 . S
C125 C124 1.321 1_556 S
C125 C126 1.444 . S
C125 H154 0.960 . S
C126 N122 1.383 1_556 S
C126 C125 1.444 . S
C126 C144 1.392 . S
N127 Co111 2.282 . S
N127 C130 1.332 . S
N127 C132 1.332 . S
C128 C129 1.386 . S
C128 C131 1.388 . S
C129 C128 1.386 . S
C129 C130 1.382 . S
C129 H155 0.950 . S
C130 N127 1.332 . S
C130 C129 1.382 . S
C130 H141 0.952 . S
C131 C128 1.388 . S
C131 C132 1.382 . S
C131 H156 0.950 . S
C132 N127 1.332 . S
C132 C131 1.382 . S
C132 H142 0.948 . S
N133 Co111 2.282 1_556 S
N133 C137 1.332 . S
N133 C138 1.332 . S
C134 C135 1.388 . S
C134 C138 1.382 . S
C134 H157 0.950 . S
C135 C134 1.388 . S
C135 C136 1.386 . S
C136 C135 1.386 . S
C136 C137 1.382 . S
C136 H158 0.950 . S
C137 N133 1.332 . S
C137 C136 1.382 . S
C137 H139 0.952 . S
C138 N133 1.332 . S
C138 C134 1.382 . S
C138 H140 0.948 . S
H139 C137 0.952 . S
H140 C138 0.948 . S
H141 C130 0.952 . S
H142 C132 0.948 . S
C143 C109 1.395 . S
C143 C113 1.391 . S
C144 C106 1.389 . S
C144 C126 1.392 . S
C145 C116 1.392 . S
C145 C118 1.389 . S
C146 C121 1.395 . S
C146 C123 1.391 . S
H147 C107 0.951 . S
H148 C108 0.950 . S
H149 C114 0.949 . S
H150 C115 0.950 . S
H151 C119 0.951 . S
H152 C120 0.950 . S
H153 C124 0.949 . S
H154 C125 0.960 . S
H155 C129 0.950 . S
H156 C131 0.950 . S
H157 C134 0.950 . S
H158 C136 0.950 . S
C159 C160 1.443 . S
C159 N163 1.376 . S
C159 C197 1.389 . S
C160 C159 1.443 . S
C160 C161 1.340 . S
C160 H200 0.951 . S
C161 C160 1.340 . S
C161 C162 1.439 . S
C161 H201 0.950 . S
C162 C161 1.439 . S
C162 N163 1.374 . S
C162 C196 1.395 . S
N163 C159 1.376 . S
N163 C162 1.374 . S
N163 Co164 2.008 1_655 S
Co164 N163 2.008 1_455 S
Co164 N165 1.995 1_455 S
Co164 N170 2.008 . S
Co164 N175 1.995 . S
Co164 N180 2.282 . S
Co164 N186 2.282 1_455 S
N165 Co164 1.995 1_655 S
N165 C166 1.376 . S
N165 C169 1.383 1_655 S
C166 N165 1.376 . S
C166 C167 1.446 . S
C166 C196 1.391 . S
C167 C166 1.446 . S
C167 C168 1.339 . S
C167 H202 0.949 . S
C168 C167 1.339 . S
C168 C169 1.439 1_655 S
C168 H203 0.950 1_655 S
C169 N165 1.383 1_455 S
C169 C168 1.439 1_455 S
C169 C198 1.392 . S
N170 Co164 2.008 . S
N170 C171 1.376 . S
N170 C174 1.374 . S
C171 N170 1.376 . S
C171 C172 1.443 . S
C171 C198 1.389 . S
C172 C171 1.443 . S
C172 C173 1.340 . S
C172 H204 0.951 . S
C173 C172 1.340 . S
C173 C174 1.439 . S
C173 H205 0.950 . S
C174 N170 1.374 . S
C174 C173 1.439 . S
C174 C199 1.395 . S
N175 Co164 1.995 . S
N175 C176 1.376 . S
N175 C179 1.383 1_455 S
C176 N175 1.376 . S
C176 C177 1.446 . S
C176 C199 1.391 . S
C177 C176 1.446 . S
C177 C178 1.339 . S
C177 H206 0.949 . S
C178 C177 1.339 . S
C178 C179 1.439 1_455 S
C178 H207 0.950 1_455 S
C179 N175 1.383 1_655 S
C179 C178 1.439 1_655 S
C179 C197 1.392 . S
N180 Co164 2.282 . S
N180 C183 1.332 . S
N180 C185 1.332 . S
C181 C182 1.386 . S
C181 C184 1.388 . S
C182 C181 1.386 . S
C182 C183 1.382 . S
C182 H208 0.950 . S
C183 N180 1.332 . S
C183 C182 1.382 . S
C183 H194 0.952 . S
C184 C181 1.388 . S
C184 C185 1.382 . S
C184 H209 0.950 . S
C185 N180 1.332 . S
C185 C184 1.382 . S
C185 H195 0.948 1_455 S
N186 Co164 2.282 1_655 S
N186 C190 1.332 . S
N186 C191 1.332 . S
C187 C188 1.388 . S
C187 C191 1.382 . S
C187 H210 0.950 . S
C188 C187 1.388 . S
C188 C189 1.386 . S
C189 C188 1.386 . S
C189 C190 1.382 . S
C189 H211 0.950 . S
C190 N186 1.332 . S
C190 C189 1.382 . S
C190 H192 0.952 . S
C191 N186 1.332 . S
C191 C187 1.382 . S
C191 H193 0.948 1_655 S
H192 C190 0.952 . S
H193 C191 0.948 1_455 S
H194 C183 0.952 . S
H195 C185 0.948 1_655 S
C196 C162 1.395 . S
C196 C166 1.391 . S
C197 C159 1.389 . S
C197 C179 1.392 . S
C198 C169 1.392 . S
C198 C171 1.389 . S
C199 C174 1.395 . S
C199 C176 1.391 . S
H200 C160 0.951 . S
H201 C161 0.950 . S
H202 C167 0.949 . S
H203 C168 0.950 1_455 S
H204 C172 0.951 . S
H205 C173 0.950 . S
H206 C177 0.949 . S
H207 C178 0.950 1_655 S
H208 C182 0.950 . S
H209 C184 0.950 . S
H210 C187 0.950 . S
H211 C189 0.950 . S
C212 C213 1.443 1_565 S
C212 N216 1.376 1_565 S
C212 C250 1.389 . S
C213 C212 1.443 1_545 S
C213 C214 1.340 . S
C213 H253 0.951 1_545 S
C214 C213 1.340 . S
C214 C215 1.439 . S
C214 H254 0.950 . S
C215 C214 1.439 . S
C215 N216 1.374 . S
C215 C249 1.395 . S
N216 C212 1.376 1_545 S
N216 C215 1.374 . S
N216 Co217 2.008 . S
Co217 N216 2.008 . S
Co217 N218 1.995 . S
Co217 N223 2.008 1_544 S
Co217 N228 1.995 1_545 S
Co217 N233 2.282 1_554 S
Co217 N239 2.282 1_545 S
N218 Co217 1.995 . S
N218 C219 1.376 . S
N218 C222 1.383 1_554 S
C219 N218 1.376 . S
C219 C220 1.446 . S
C219 C249 1.391 . S
C220 C219 1.446 . S
C220 C221 1.339 1_554 S
C220 H255 0.949 . S
C221 C220 1.339 1_556 S
C221 C222 1.439 . S
C221 H256 0.950 . S
C222 N218 1.383 1_556 S
C222 C221 1.439 . S
C222 C251 1.392 . S
N223 Co217 2.008 1_566 S
N223 C224 1.376 1_565 S
N223 C227 1.374 . S
C224 N223 1.376 1_545 S
C224 C225 1.443 1_545 S
C224 C251 1.389 . S
C225 C224 1.443 1_565 S
C225 C226 1.340 . S
C225 H257 0.951 1_565 S
C226 C225 1.340 . S
C226 C227 1.439 . S
C226 H258 0.950 . S
C227 N223 1.374 . S
C227 C226 1.439 . S
C227 C252 1.395 . S
N228 Co217 1.995 1_565 S
N228 C229 1.376 1_554 S
N228 C232 1.383 . S
C229 N228 1.376 1_556 S
C229 C230 1.446 1_556 S
C229 C252 1.391 . S
C230 C229 1.446 1_554 S
C230 C231 1.339 . S
C230 H259 0.949 . S
C231 C230 1.339 . S
C231 C232 1.439 . S
C231 H260 0.950 . S
C232 N228 1.383 . S
C232 C231 1.439 . S
C232 C250 1.392 . S
N233 Co217 2.282 1_556 S
N233 C236 1.332 . S
N233 C238 1.332 . S
C234 C235 1.386 . S
C234 C237 1.388 . S
C235 C234 1.386 . S
C235 C236 1.382 . S
C235 H261 0.950 . S
C236 N233 1.332 . S
C236 C235 1.382 . S
C236 H247 0.952 1_545 S
C237 C234 1.388 . S
C237 C238 1.382 . S
C237 H262 0.950 . S
C238 N233 1.332 . S
C238 C237 1.382 . S
C238 H248 0.948 . S
N239 Co217 2.282 1_565 S
N239 C243 1.332 . S
N239 C244 1.332 . S
C240 C241 1.388 . S
C240 C244 1.382 . S
C240 H263 0.950 . S
C241 C240 1.388 . S
C241 C242 1.386 . S
C242 C241 1.386 . S
C242 C243 1.382 . S
C242 H264 0.950 . S
C243 N239 1.332 . S
C243 C242 1.382 . S
C243 H245 0.952 1_565 S
C244 N239 1.332 . S
C244 C240 1.382 . S
C244 H246 0.948 . S
H245 C243 0.952 1_545 S
H246 C244 0.948 . S
H247 C236 0.952 1_565 S
H248 C238 0.948 . S
C249 C215 1.395 . S
C249 C219 1.391 . S
C250 C212 1.389 . S
C250 C232 1.392 . S
C251 C222 1.392 . S
C251 C224 1.389 . S
C252 C227 1.395 . S
C252 C229 1.391 . S
H253 C213 0.951 1_565 S
H254 C214 0.950 . S
H255 C220 0.949 . S
H256 C221 0.950 . S
H257 C225 0.951 1_545 S
H258 C226 0.950 . S
H259 C230 0.949 . S
H260 C231 0.950 . S
H261 C235 0.950 . S
H262 C237 0.950 . S
H263 C240 0.950 . S
H264 C242 0.950 . S
C265 C266 1.443 . S
C265 N269 1.376 . S
C265 C303 1.389 . S
C266 C265 1.443 . S
C266 C267 1.340 . S
C266 H306 0.951 . S
C267 C266 1.340 . S
C267 C268 1.439 . S
C267 H307 0.950 . S
C268 C267 1.439 . S
C268 N269 1.374 . S
C268 C302 1.395 . S
N269 C265 1.376 . S
N269 C268 1.374 . S
N269 Co270 2.008 . S
Co270 N269 2.008 . S
Co270 N271 1.995 . S
Co270 N276 2.008 . S
Co270 N281 1.995 . S
Co270 N286 2.282 . S
Co270 N292 2.282 . S
N271 Co270 1.995 . S
N271 C272 1.376 . S
N271 C275 1.383 . S
C272 N271 1.376 . S
C272 C273 1.446 . S
C272 C302 1.391 . S
C273 C272 1.446 . S
C273 C274 1.339 . S
C273 H308 0.949 . S
C274 C273 1.339 . S
C274 C275 1.439 . S
C274 H309 0.950 . S
C275 N271 1.383 . S
C275 C274 1.439 . S
C275 C304 1.392 . S
N276 Co270 2.008 . S
N276 C277 1.376 . S
N276 C280 1.374 . S
C277 N276 1.376 . S
C277 C278 1.443 . S
C277 C304 1.389 . S
C278 C277 1.443 . S
C278 C279 1.340 . S
C278 H310 0.951 . S
C279 C278 1.340 . S
C279 C280 1.439 . S
C279 H311 0.950 . S
C280 N276 1.374 . S
C280 C279 1.439 . S
C280 C305 1.395 . S
N281 Co270 1.995 . S
N281 C282 1.376 . S
N281 C285 1.383 . S
C282 N281 1.376 . S
C282 C283 1.446 . S
C282 C305 1.391 . S
C283 C282 1.446 . S
C283 C284 1.339 . S
C283 H312 0.949 . S
C284 C283 1.339 . S
C284 C285 1.439 . S
C284 H313 0.950 . S
C285 N281 1.383 . S
C285 C284 1.439 . S
C285 C303 1.392 . S
N286 Co270 2.282 . S
N286 C289 1.332 . S
N286 C291 1.332 . S
C287 C288 1.386 . S
C287 C290 1.388 . S
C288 C287 1.386 . S
C288 C289 1.382 . S
C288 H314 0.950 . S
C289 N286 1.332 . S
C289 C288 1.382 . S
C289 H300 0.952 . S
C290 C287 1.388 . S
C290 C291 1.382 . S
C290 H315 0.950 . S
C291 N286 1.332 . S
C291 C290 1.382 . S
C291 H301 0.948 . S
N292 Co270 2.282 . S
N292 C296 1.332 . S
N292 C297 1.332 . S
C293 C294 1.388 . S
C293 C297 1.382 . S
C293 H316 0.950 . S
C294 C293 1.388 . S
C294 C295 1.386 . S
C295 C294 1.386 . S
C295 C296 1.382 . S
C295 H317 0.950 . S
C296 N292 1.332 . S
C296 C295 1.382 . S
C296 H298 0.952 . S
C297 N292 1.332 . S
C297 C293 1.382 . S
C297 H299 0.948 . S
H298 C296 0.952 . S
H299 C297 0.948 . S
H300 C289 0.952 . S
H301 C291 0.948 . S
C302 C268 1.395 . S
C302 C272 1.391 . S
C303 C265 1.389 . S
C303 C285 1.392 . S
C304 C275 1.392 . S
C304 C277 1.389 . S
C305 C280 1.395 . S
C305 C282 1.391 . S
H306 C266 0.951 . S
H307 C267 0.950 . S
H308 C273 0.949 . S
H309 C274 0.950 . S
H310 C278 0.951 . S
H311 C279 0.950 . S
H312 C283 0.949 . S
H313 C284 0.950 . S
H314 C288 0.950 . S
H315 C290 0.950 . S
H316 C293 0.950 . S
H317 C295 0.950 . S
Mg318 O325 2.141 . S
Mg318 O326 2.048 . S
Mg318 O327 2.048 . S
Mg318 O330 2.141 . S
C319 O320 1.313 . S
C319 O326 1.195 . S
O320 C319 1.313 . S
C321 O322 1.245 . S
C321 O330 1.289 . S
O322 C321 1.245 . S
C323 O324 1.245 . S
C323 O325 1.289 . S
O324 C323 1.245 . S
O325 Mg318 2.141 . S
O325 C323 1.289 . S
O326 Mg318 2.048 . S
O326 C319 1.195 . S
O327 Mg318 2.048 . S
O327 C328 1.195 . S
C328 O327 1.195 . S
C328 O329 1.313 . S
O329 C328 1.313 . S
O330 Mg318 2.141 . S
O330 C321 1.289 . S
Mg331 O338 2.141 . S
Mg331 O339 2.048 . S
Mg331 O340 2.048 . S
Mg331 O343 2.141 . S
C332 O333 1.313 . S
C332 O339 1.195 . S
O333 C332 1.313 . S
C334 O335 1.245 . S
C334 O343 1.289 . S
O335 C334 1.245 . S
C336 O337 1.245 . S
C336 O338 1.289 . S
O337 C336 1.245 . S
O338 Mg331 2.141 . S
O338 C336 1.289 . S
O339 Mg331 2.048 . S
O339 C332 1.195 . S
O340 Mg331 2.048 . S
O340 C341 1.195 . S
C341 O340 1.195 . S
C341 O342 1.313 . S
O342 C341 1.313 . S
O343 Mg331 2.141 . S
O343 C334 1.289 . S
Mg344 O351 2.141 . S
Mg344 O352 2.048 . S
Mg344 O353 2.048 . S
Mg344 O356 2.141 . S
C345 O346 1.313 . S
C345 O352 1.195 . S
O346 C345 1.313 . S
C347 O348 1.245 . S
C347 O356 1.289 . S
O348 C347 1.245 . S
C349 O350 1.245 . S
C349 O351 1.289 . S
O350 C349 1.245 . S
O351 Mg344 2.141 . S
O351 C349 1.289 . S
O352 Mg344 2.048 . S
O352 C345 1.195 . S
O353 Mg344 2.048 . S
O353 C354 1.195 . S
C354 O353 1.195 . S
C354 O355 1.313 . S
O355 C354 1.313 . S
O356 Mg344 2.141 . S
O356 C347 1.289 . S
Mg357 O364 2.141 . S
Mg357 O365 2.048 . S
Mg357 O366 2.048 . S
Mg357 O369 2.141 . S
C358 O359 1.313 . S
C358 O365 1.195 . S
O359 C358 1.313 . S
C360 O361 1.245 . S
C360 O369 1.289 . S
O361 C360 1.245 . S
C362 O363 1.245 . S
C362 O364 1.289 . S
O363 C362 1.245 . S
O364 Mg357 2.141 . S
O364 C362 1.289 . S
O365 Mg357 2.048 . S
O365 C358 1.195 . S
O366 Mg357 2.048 . S
O366 C367 1.195 . S
C367 O366 1.195 . S
C367 O368 1.313 . S
O368 C367 1.313 . S
O369 Mg357 2.141 . S
O369 C360 1.289 . S
Mg370 O377 2.141 . S
Mg370 O378 2.048 . S
Mg370 O379 2.048 . S
Mg370 O382 2.141 . S
C371 O372 1.313 . S
C371 O378 1.195 . S
O372 C371 1.313 . S
C373 O374 1.245 . S
C373 O382 1.289 . S
O374 C373 1.245 . S
C375 O376 1.245 . S
C375 O377 1.289 . S
O376 C375 1.245 . S
O377 Mg370 2.141 . S
O377 C375 1.289 . S
O378 Mg370 2.048 . S
O378 C371 1.195 . S
O379 Mg370 2.048 . S
O379 C380 1.195 . S
C380 O379 1.195 . S
C380 O381 1.313 . S
O381 C380 1.313 . S
O382 Mg370 2.141 . S
O382 C373 1.289 . S
Mg383 O390 2.141 . S
Mg383 O391 2.048 . S
Mg383 O392 2.048 . S
Mg383 O395 2.141 . S
C384 O385 1.313 . S
C384 O391 1.195 . S
O385 C384 1.313 . S
C386 O387 1.245 . S
C386 O395 1.289 . S
O387 C386 1.245 . S
C388 O389 1.245 . S
C388 O390 1.289 . S
O389 C388 1.245 . S
O390 Mg383 2.141 . S
O390 C388 1.289 . S
O391 Mg383 2.048 . S
O391 C384 1.195 . S
O392 Mg383 2.048 . S
O392 C393 1.195 . S
C393 O392 1.195 . S
C393 O394 1.313 . S
O394 C393 1.313 . S
O395 Mg383 2.141 . S
O395 C386 1.289 . S
C39 C319 2.098 . S
C91 C332 2.036 . S
C354 C128 1.600 . S
C367 C188 1.550 . S
C380 C250 1.816 . S
C393 C304 1.887 . S
C75 C349 1.593 . S
C144 C362 1.836 . S
C375 C198 1.748 . S
C388 C234 1.443 . S
C294 C321 1.616 . S
C334 C29 1.662 . S
C360 C38 1.870 . S
C92 C373 1.860 . S
C386 C135 1.544 . S
C181 C323 1.675 . S
C251 C336 1.935 . S
C303 C347 1.809 . S
C82 C384 1.653 . S
C328 C145 2.043 . S
C197 C341 1.970 . S
C241 C345 1.526 . S
C287 C358 1.505 . S
C22 C371 1.546 . S
