# Generated by pormake.
# Topology pts, (4,4)-cn, num edge types: 1
# Building blocks:
#     Node 0, Type 0, BuildingBlock: KOZSID_clean_sbu_0, # of connection points: 4
#     Node 1, Type 0, BuildingBlock: KOZSID_clean_sbu_0, # of connection points: 4
#     Node 2, Type 1, BuildingBlock: AZAVOO_clean_sbu_0, # of connection points: 4
#     Node 3, Type 1, BuildingBlock: AZAVOO_clean_sbu_0, # of connection points: 4
#     Edge 4, Type (0, 1), BuildingBlock: TEMPAE_clean_linker_10, # of connection points: 2
#     Edge 5, Type (0, 1), BuildingBlock: TEMPAE_clean_linker_10, # of connection points: 2
#     Edge 6, Type (0, 1), BuildingBlock: TEMPAE_clean_linker_10, # of connection points: 2
#     Edge 7, Type (0, 1), BuildingBlock: TEMPAE_clean_linker_10, # of connection points: 2
#     Edge 8, Type (0, 1), BuildingBlock: TEMPAE_clean_linker_10, # of connection points: 2
#     Edge 9, Type (0, 1), BuildingBlock: TEMPAE_clean_linker_10, # of connection points: 2
#     Edge 10, Type (0, 1), BuildingBlock: TEMPAE_clean_linker_10, # of connection points: 2
#     Edge 11, Type (0, 1), BuildingBlock: TEMPAE_clean_linker_10, # of connection points: 2
# Relax obj value: 0.000
# Max RMSD: 0.030
# Mean RMSD: 0.015
data_MOF--net-pts--node1-KOZSID_clean_sbu_0--node2-AZAVOO_clean_sbu_0--edge1-TEMPAE_clean_linker_10
_symmetry_space_group_name_H-M    P1
_symmetry_Int_Tables_number       1
_symmetry_cell_setting            triclinic
loop_
_symmetry_equiv_pos_as_xyz
'x, y, z'
_cell_length_a     27.006174
_cell_length_b     27.570513
_cell_length_c     40.360576
_cell_angle_alpha  86.012688
_cell_angle_beta   100.35911
_cell_angle_gamma 90.458865
loop_
_atom_site_label
_atom_site_type_symbol
_atom_site_fract_x
_atom_site_fract_y
_atom_site_fract_z
_atom_type_partial_charge
C0 C 0.648 0.12508 0.05833 0.0
C1 C 0.66669 0.17084 0.06589 0.0
C2 C 0.63488 0.20379 0.04623 0.0
C3 C 0.5989 0.17649 0.02768 0.0
N4 N 0.60533 0.12798 0.03463 0.0
Co5 Co 0.56413 0.07493 0.0115 0.0
N6 N 0.52178 0.12327 0.97922 0.0
C7 C 0.52667 0.17223 0.97762 0.0
C8 C 0.49236 0.19587 0.95274 0.0
C9 C 0.46333 0.15997 0.93777 0.0
C10 C 0.48142 0.1163 0.95469 0.0
N11 N 0.52288 0.02177 0.98859 0.0
C12 C 0.48146 0.02443 0.96388 0.0
C13 C 0.4621 0.97855 0.95712 0.0
C14 C 0.49247 0.94585 0.97799 0.0
C15 C 0.5282 0.97333 0.99652 0.0
N16 N 0.6067 0.02654 0.04355 0.0
C17 C 0.60165 0.97761 0.04548 0.0
C18 C 0.63663 0.95397 0.06991 0.0
C19 C 0.66662 0.98982 0.084 0.0
C20 C 0.64832 0.03341 0.067 0.0
N21 N 0.51587 0.07808 0.04323 0.0
C22 C 0.44253 0.08199 0.08486 0.0
C23 C 0.46375 0.03777 0.07955 0.0
C24 C 0.4999 0.03665 0.05886 0.0
C25 C 0.45958 0.12436 0.06957 0.0
C26 C 0.49604 0.12161 0.04918 0.0
N27 N 0.61228 0.07199 0.97984 0.0
C28 C 0.66639 0.02586 0.95182 0.0
C29 C 0.68534 0.06855 0.93808 0.0
C30 C 0.66645 0.11288 0.94523 0.0
C31 C 0.63022 0.11375 0.96585 0.0
C32 C 0.6301 0.02839 0.9724 0.0
H33 H 0.61784 0.14874 0.97045 0.0
H34 H 0.61727 0.99464 0.98222 0.0
H35 H 0.51401 0.00173 0.05575 0.0
H36 H 0.50706 0.15521 0.03819 0.0
C37 C 0.56239 0.19505 0.00086 0.0
C38 C 0.67347 0.07989 0.07273 0.0
C39 C 0.458 0.06941 0.94718 0.0
C40 C 0.56509 0.9548 0.02298 0.0
H41 H 0.70071 0.17966 0.08295 0.0
H42 H 0.63892 0.24294 0.04447 0.0
H43 H 0.48835 0.23465 0.9466 0.0
H44 H 0.43188 0.16543 0.91708 0.0
H45 H 0.42872 0.9694 0.93959 0.0
H46 H 0.48806 0.90676 0.98018 0.0
H47 H 0.64061 0.91521 0.07615 0.0
H48 H 0.69908 0.98435 0.10396 0.0
H49 H 0.45276 0.00393 0.09145 0.0
H50 H 0.44424 0.15957 0.07274 0.0
H51 H 0.67917 0.99054 0.94655 0.0
H52 H 0.68019 0.14701 0.93549 0.0
C53 C 0.09732 0.47727 0.56749 0.0
C54 C 0.14219 0.45977 0.58692 0.0
C55 C 0.18006 0.48428 0.57494 0.0
C56 C 0.1564 0.51507 0.54893 0.0
N57 N 0.10558 0.51179 0.54349 0.0
Co58 Co 0.05653 0.54993 0.50811 0.0
N59 N 0.11256 0.58384 0.48928 0.0
C60 C 0.1626 0.57644 0.49968 0.0
C61 C 0.1919 0.60353 0.48105 0.0
C62 C 0.15867 0.62996 0.45733 0.0
C63 C 0.11079 0.61772 0.4631 0.0
N64 N 0.00744 0.58897 0.4733 0.0
C65 C 0.01563 0.62386 0.44953 0.0
C66 C 0.97072 0.64373 0.43168 0.0
C67 C 0.93287 0.62023 0.44431 0.0
C68 C 0.95661 0.58781 0.46923 0.0
N69 N 1.0005 0.51505 0.52633 0.0
C70 C 0.95046 0.52095 0.51506 0.0
C71 C 0.92114 0.49168 0.53236 0.0
C72 C 0.95438 0.46508 0.55596 0.0
C73 C 0.00225 0.47967 0.55156 0.0
N74 N 0.05588 0.60153 0.53999 0.0
C75 C 0.05545 0.6739 0.58599 0.0
C76 C 0.01054 0.65373 0.57004 0.0
C77 C 0.01159 0.61813 0.54721 0.0
C78 C 0.10054 0.65721 0.57845 0.0
C79 C 0.0999 0.62127 0.5557 0.0
N80 N 0.05736 0.4983 0.47635 0.0
C81 C 0.01379 0.44651 0.43464 0.0
C82 C 0.05876 0.42301 0.43279 0.0
C83 C 0.10305 0.43853 0.45256 0.0
C84 C 0.10151 0.47581 0.47397 0.0
C85 C 0.01395 0.48378 0.45643 0.0
H86 H 0.13654 0.48547 0.4885 0.0
H87 H 0.97844 0.49992 0.45702 0.0
H88 H 0.97607 0.60463 0.5358 0.0
H89 H 0.13558 0.61025 0.55119 0.0
C90 C 0.18096 0.54495 0.52772 0.0
C91 C 0.04805 0.45856 0.57191 0.0
C92 C 0.065 0.63995 0.44337 0.0
C93 C 0.93214 0.55538 0.48886 0.0
H94 H 0.14724 0.43159 0.60727 0.0
H95 H 0.22013 0.47938 0.58363 0.0
H96 H 0.23258 0.60422 0.48446 0.0
H97 H 0.16861 0.6556 0.43807 0.0
H98 H 0.96563 0.6725 0.41172 0.0
H99 H 0.8928 0.62619 0.43636 0.0
H100 H 0.88046 0.49008 0.52839 0.0
H101 H 0.94451 0.438 0.57438 0.0
H102 H 0.97456 0.66501 0.57527 0.0
H103 H 0.13634 0.67227 0.58961 0.0
H104 H 0.97839 0.43541 0.42002 0.0
H105 H 0.13895 0.42191 0.45163 0.0
Mg106 Mg 0.10921 0.03147 0.27889 0.0
O107 O 0.03372 0.0328 0.24134 0.0
O108 O 0.97423 0.0117 0.27182 0.0
Mg109 Mg 0.00958 -0.00039 0.32744 0.0
C110 C 0.98783 0.02409 0.24372 0.0
C111 C 0.1978 0.05336 0.24622 0.0
O112 O 0.21334 0.026 0.27409 0.0
O113 O 0.08822 0.10423 0.29643 0.0
O114 O 0.03041 0.08057 0.32743 0.0
O115 O 0.12085 0.95188 0.27489 0.0
O116 O 0.07987 0.98208 0.31144 0.0
C117 C 0.05729 0.11363 0.3157 0.0
C118 C 0.095 0.94454 0.2988 0.0
O119 O 0.15179 0.06634 0.2395 0.0
Mg120 Mg 0.01963 0.0419 0.7433 0.0
O121 O 0.09699 0.0437 0.77879 0.0
O122 O 0.15469 0.04131 0.74526 0.0
Mg123 Mg 0.11656 0.03168 0.69109 0.0
C124 C 0.14265 0.04448 0.77419 0.0
C125 C 0.93487 0.04314 0.78118 0.0
O126 O 0.92227 0.01437 0.75642 0.0
O127 O 0.03065 0.12043 0.72337 0.0
O128 O 0.087 0.10934 0.69008 0.0
O129 O 0.01719 0.96084 0.74898 0.0
O130 O 0.05037 0.00246 0.70981 0.0
C131 C 0.0582 0.13683 0.70249 0.0
C132 C 0.04033 0.96087 0.72355 0.0
O133 O 0.97726 0.06441 0.78395 0.0
C134 C 0.40323 0.12039 0.12869 0.0
C135 C 0.40312 0.08364 0.10627 0.0
C136 C 0.36776 0.1207 0.15023 0.0
C137 C 0.3316 0.08315 0.14956 0.0
C138 C 0.3303 0.04685 0.12629 0.0
C139 C 0.36588 0.04767 0.10485 0.0
C140 C 0.37018 0.16019 0.17457 0.0
C141 C 0.29244 0.00609 0.12483 0.0
C142 C 0.28167 0.04546 0.22942 0.0
C143 C 0.23264 0.06469 0.22225 0.0
C144 C 0.31444 0.05215 0.20625 0.0
C145 C 0.29808 0.07913 0.17514 0.0
C146 C 0.24923 0.10005 0.1681 0.0
C147 C 0.21694 0.09241 0.19172 0.0
C148 C 0.36612 0.02901 0.2147 0.0
C149 C 0.23074 0.12951 0.13534 0.0
H150 H 0.43203 0.14815 0.13018 0.0
H151 H 0.36476 0.01976 0.0871 0.0
H152 H 0.3324 0.17661 0.17307 0.0
H153 H 0.38223 0.14432 0.20078 0.0
H154 H 0.39698 0.18941 0.16956 0.0
H155 H 0.29447 0.98237 0.10395 0.0
H156 H 0.29924 0.98337 0.14902 0.0
H157 H 0.25372 0.02106 0.12148 0.0
H158 H 0.29427 0.02406 0.25295 0.0
H159 H 0.1792 0.10752 0.18603 0.0
H160 H 0.3955 0.05692 0.21288 0.0
H161 H 0.36977 0.00188 0.19622 0.0
H162 H 0.37368 0.01052 0.24046 0.0
H163 H 0.25788 0.15882 0.13136 0.0
H164 H 0.19321 0.14613 0.13469 0.0
H165 H 0.2281 0.1059 0.11393 0.0
C166 C 0.02966 0.37056 0.58097 0.0
C167 C 0.04461 0.41462 0.59473 0.0
C168 C 0.0285 0.32795 0.60183 0.0
C169 C 0.04316 0.32959 0.63726 0.0
C170 C 0.05674 0.37452 0.65132 0.0
C171 C 0.05706 0.41672 0.62979 0.0
C172 C 0.01347 0.28085 0.58585 0.0
C173 C 0.07288 0.37763 0.6889 0.0
C174 C 0.01207 0.21632 0.68864 0.0
C175 C 0.05616 0.18889 0.69081 0.0
C176 C 0.00786 0.26343 0.67259 0.0
C177 C 0.04893 0.28343 0.65891 0.0
C178 C 0.09459 0.25704 0.66311 0.0
C179 C 0.09752 0.21003 0.67882 0.0
C180 C 0.95858 0.29054 0.66852 0.0
C181 C 0.13955 0.27734 0.64936 0.0
H182 H 0.01984 0.36938 0.55377 0.0
H183 H 0.06823 0.45118 0.6402 0.0
H184 H 0.04647 0.25604 0.58978 0.0
H185 H 0.984 0.26239 0.59798 0.0
H186 H 0.99904 0.28655 0.55829 0.0
H187 H 0.07744 0.41584 0.69601 0.0
H188 H 0.04503 0.35944 0.70264 0.0
H189 H 0.10933 0.35835 0.69745 0.0
H190 H 0.98001 0.20007 0.69786 0.0
H191 H 0.13197 0.1892 0.6809 0.0
H192 H 0.93987 0.29213 0.64163 0.0
H193 H 0.96509 0.32854 0.67559 0.0
H194 H 0.93264 0.27279 0.68407 0.0
H195 H 0.13092 0.27996 0.62135 0.0
H196 H 0.17368 0.25431 0.65769 0.0
H197 H 0.1481 0.31457 0.65751 0.0
C198 C 0.76429 0.05637 0.08258 0.0
C199 C 0.72495 0.08011 0.09334 0.0
C200 C 0.81101 0.04888 0.104 0.0
C201 C 0.81867 0.0665 0.13665 0.0
C202 C 0.77991 0.09312 0.14678 0.0
C203 C 0.73315 0.09891 0.12517 0.0
C204 C 0.85086 0.01944 0.0925 0.0
C205 C 0.78692 0.11337 0.18111 0.0
C206 C 0.90556 0.00139 0.21012 0.0
C207 C 0.948 0.0314 0.21358 0.0
C208 C 0.86428 0.01116 0.18408 0.0
C209 C 0.86487 0.05283 0.16156 0.0
C210 C 0.90829 0.08251 0.16432 0.0
C211 C 0.94973 0.07104 0.19011 0.0
C212 C 0.81931 0.97778 0.18143 0.0
C213 C 0.90991 0.12771 0.1412 0.0
H214 H 0.75755 0.04157 0.05797 0.0
H215 H 0.7024 0.1167 0.13357 0.0
H216 H 0.88775 0.03808 0.09713 0.0
H217 H 0.85542 0.98379 0.10731 0.0
H218 H 0.84105 0.01279 0.06527 0.0
H219 H 0.75574 0.13825 0.1834 0.0
H220 H 0.78857 0.08309 0.20088 0.0
H221 H 0.82301 0.13338 0.1862 0.0
H222 H 0.90436 0.97057 0.22817 0.0
H223 H 0.98237 0.09456 0.19303 0.0
H224 H 0.80832 0.96673 0.1552 0.0
H225 H 0.78673 0.99723 0.18765 0.0
H226 H 0.82679 0.94452 0.19877 0.0
H227 H 0.89911 0.11918 0.11442 0.0
H228 H 0.94777 0.14471 0.14487 0.0
H229 H 0.88223 0.15463 0.14612 0.0
C230 C 0.0184 0.74948 0.60281 0.0
C231 C 0.05529 0.71285 0.60968 0.0
C232 C 0.01859 0.78735 0.62426 0.0
C233 C 0.05696 0.78902 0.6531 0.0
C234 C 0.094 0.75196 0.66047 0.0
C235 C 0.09257 0.71415 0.63876 0.0
C236 C 0.97822 0.82612 0.61565 0.0
C237 C 0.13559 0.75273 0.69092 0.0
C238 C 0.07947 0.91563 0.68321 0.0
C239 C 0.05126 0.91506 0.70919 0.0
C240 C 0.08399 0.87392 0.66598 0.0
C241 C 0.05907 0.83081 0.67463 0.0
C242 C 0.03258 0.82926 0.70192 0.0
C243 C 0.02924 0.87139 0.71903 0.0
C244 C 0.11331 0.87678 0.63737 0.0
C245 C 0.00526 0.78401 0.71175 0.0
H246 H 0.98992 0.74925 0.58017 0.0
H247 H 0.12074 0.68557 0.64457 0.0
H248 H 0.95889 0.82967 0.63741 0.0
H249 H 0.99557 0.86178 0.61038 0.0
H250 H 0.94961 0.81814 0.59329 0.0
H251 H 0.16064 0.72038 0.69366 0.0
H252 H 0.15869 0.7859 0.68883 0.0
H253 H 0.11941 0.75422 0.71422 0.0
H254 H 0.09674 0.94905 0.67547 0.0
H255 H 0.00729 0.87066 0.73906 0.0
H256 H 0.08703 0.87438 0.61302 0.0
H257 H 0.13998 0.84576 0.64008 0.0
H258 H 0.1348 0.91119 0.63618 0.0
H259 H 0.97292 0.77735 0.69139 0.0
H260 H 0.99086 0.78712 0.73562 0.0
H261 H 0.03043 0.75181 0.71472 0.0
C262 C 0.40717 0.04433 0.89296 0.0
C263 C 0.40958 0.06752 0.92296 0.0
C264 C 0.36139 0.04052 0.87056 0.0
C265 C 0.31743 0.06212 0.87776 0.0
C266 C 0.32001 0.08668 0.9077 0.0
C267 C 0.36604 0.0885 0.93021 0.0
C268 C 0.36007 0.01323 0.83924 0.0
C269 C 0.27439 0.11151 0.9157 0.0
C270 C 0.21733 0.08995 0.8002 0.0
C271 C 0.1836 0.05164 0.80274 0.0
C272 C 0.25963 0.09526 0.82544 0.0
C273 C 0.26933 0.06029 0.85322 0.0
C274 C 0.2347 0.02198 0.85621 0.0
C275 C 0.19164 0.01854 0.83107 0.0
C276 C 0.29471 0.13747 0.82182 0.0
C277 C 0.24444 0.98333 0.88501 0.0
H278 H 0.4411 0.0285 0.88736 0.0
H279 H 0.36819 0.10656 0.95345 0.0
H280 H 0.33083 0.98457 0.83799 0.0
H281 H 0.34987 0.0384 0.8164 0.0
H282 H 0.39684 0.99594 0.83849 0.0
H283 H 0.28289 0.12952 0.93985 0.0
H284 H 0.25978 0.13926 0.89508 0.0
H285 H 0.24393 0.08471 0.91731 0.0
H286 H 0.21074 0.11558 0.77821 0.0
H287 H 0.1656 0.9887 0.8327 0.0
H288 H 0.33111 0.12389 0.81697 0.0
H289 H 0.30273 0.15641 0.84556 0.0
H290 H 0.27891 0.16421 0.80078 0.0
H291 H 0.27904 0.96272 0.88357 0.0
H292 H 0.2127 0.95735 0.88457 0.0
H293 H 0.25101 0.00021 0.90956 0.0
C294 C 0.08814 0.33979 0.42445 0.0
C295 C 0.05937 0.38123 0.41157 0.0
C296 C 0.08787 0.2991 0.4055 0.0
C297 C 0.05798 0.29974 0.37284 0.0
C298 C 0.02968 0.34183 0.35932 0.0
C299 C 0.03061 0.3821 0.37891 0.0
C300 C 0.11834 0.25479 0.42091 0.0
C301 C 0.99758 0.34386 0.32453 0.0
C302 C 0.08855 0.19952 0.31966 0.0
C303 C 0.05398 0.16361 0.32658 0.0
C304 C 0.08884 0.24513 0.33323 0.0
C305 C 0.05378 0.2549 0.35415 0.0
C306 C 0.01724 0.21974 0.35978 0.0
C307 C 0.01775 0.17462 0.34592 0.0
C308 C 0.12813 0.28195 0.32649 0.0
C309 C 0.97909 0.22881 0.38186 0.0
H310 H 0.10988 0.33861 0.44983 0.0
H311 H 0.00879 0.41429 0.36869 0.0
H312 H 0.09274 0.22388 0.42432 0.0
H313 H 0.14344 0.24379 0.40378 0.0
H314 H 0.14172 0.26116 0.44581 0.0
H315 H 0.98079 0.38045 0.31675 0.0
H316 H 0.02032 0.33391 0.30568 0.0
H317 H 0.96668 0.31701 0.32403 0.0
H318 H 0.11652 0.1915 0.30462 0.0
H319 H 0.99045 0.14743 0.35112 0.0
H320 H 0.15572 0.28601 0.35006 0.0
H321 H 0.1105 0.31809 0.31853 0.0
H322 H 0.14878 0.2711 0.30671 0.0
H323 H 0.99865 0.23162 0.4083 0.0
H324 H 0.95076 0.19933 0.38153 0.0
H325 H 0.95914 0.26376 0.37354 0.0
C326 C 0.72169 0.09899 0.88752 0.0
C327 C 0.72441 0.06703 0.91643 0.0
C328 C 0.75789 0.09766 0.86662 0.0
C329 C 0.79769 0.06335 0.87467 0.0
C330 C 0.80116 0.0315 0.90408 0.0
C331 C 0.76452 0.03375 0.92462 0.0
C332 C 0.75277 0.13214 0.83543 0.0
C333 C 0.84301 0.99437 0.91349 0.0
C334 C 0.85531 0.02257 0.80214 0.0
C335 C 0.90032 0.04907 0.80534 0.0
C336 C 0.82189 0.0268 0.82462 0.0
C337 C 0.83352 0.05846 0.85102 0.0
C338 C 0.87883 0.08544 0.85448 0.0
C339 C 0.91181 0.08037 0.83159 0.0
C340 C 0.77404 0.99729 0.82009 0.0
C341 C 0.89234 0.11969 0.88227 0.0
H342 H 0.69055 0.12444 0.88077 0.0
H343 H 0.7674 0.00951 0.94721 0.0
H344 H 0.78837 0.15236 0.83501 0.0
H345 H 0.74549 0.11123 0.81255 0.0
H346 H 0.72166 0.15876 0.83394 0.0
H347 H 0.84185 0.97397 0.93807 0.0
H348 H 0.84017 0.96802 0.89368 0.0
H349 H 0.88012 0.01244 0.91494 0.0
H350 H 0.84606 0.9982 0.78201 0.0
H351 H 0.94649 0.10096 0.83424 0.0
H352 H 0.74084 0.02186 0.81598 0.0
H353 H 0.77264 0.97365 0.84329 0.0
H354 H 0.77076 0.97404 0.7984 0.0
H355 H 0.86272 0.14799 0.88002 0.0
H356 H 0.92906 0.13787 0.88163 0.0
H357 H 0.89414 0.09954 0.90723 0.0
C358 C 0.05174 0.67799 0.38423 0.0
C359 C 0.06885 0.68182 0.4188 0.0
C360 C 0.05388 0.71801 0.36104 0.0
C361 C 0.07456 0.76231 0.37284 0.0
C362 C 0.09288 0.76582 0.40776 0.0
C363 C 0.08935 0.72558 0.43037 0.0
C364 C 0.03326 0.7132 0.3241 0.0
C365 C 0.11583 0.81221 0.4213 0.0
C366 C 0.12297 0.85917 0.31545 0.0
C367 C 0.0858 0.89511 0.31269 0.0
C368 C 0.11889 0.81464 0.33383 0.0
C369 C 0.07609 0.8057 0.34908 0.0
C370 C 0.0368 0.84056 0.34421 0.0
C371 C 0.04239 0.88511 0.32634 0.0
C372 C 0.16184 0.77861 0.3388 0.0
C373 C 0.98998 0.83185 0.35932 0.0
H374 H 0.03606 0.64386 0.37549 0.0
H375 H 0.1025 0.72821 0.4572 0.0
H376 H 0.00205 0.73959 0.3154 0.0
H377 H 0.06286 0.72201 0.30884 0.0
H378 H 0.01902 0.67604 0.31902 0.0
H379 H 0.13043 0.80813 0.4489 0.0
H380 H 0.1472 0.82377 0.40821 0.0
H381 H 0.08726 0.84176 0.41628 0.0
H382 H 0.15667 0.86698 0.30498 0.0
H383 H 0.01313 0.91243 0.32358 0.0
H384 H 0.14761 0.74171 0.33312 0.0
H385 H 0.18098 0.7766 0.36561 0.0
H386 H 0.19006 0.78887 0.32266 0.0
H387 H 0.97414 0.79549 0.35359 0.0
H388 H 0.96052 0.85983 0.34982 0.0
H389 H 0.99968 0.83245 0.3872 0.0
loop_
_geom_bond_atom_site_label_1
_geom_bond_atom_site_label_2
_geom_bond_distance
_geom_bond_site_symmetry_2
_ccdc_geom_bond_type
C0 C1 1.443 . S
C0 N4 1.376 . S
C0 C38 1.389 . S
C1 C0 1.443 . S
C1 C2 1.340 . S
C1 H41 0.951 . S
C2 C1 1.340 . S
C2 C3 1.439 . S
C2 H42 0.950 . S
C3 C2 1.439 . S
C3 N4 1.374 . S
C3 C37 1.395 . S
N4 C0 1.376 . S
N4 C3 1.374 . S
N4 Co5 2.008 . S
Co5 N4 2.008 . S
Co5 N6 1.995 1_554 S
Co5 N11 2.008 1_544 S
Co5 N16 1.995 1_545 S
Co5 N21 2.282 . S
Co5 N27 2.282 1_554 S
N6 Co5 1.995 1_556 S
N6 C7 1.376 . S
N6 C10 1.383 . S
C7 N6 1.376 . S
C7 C8 1.446 . S
C7 C37 1.391 1_556 S
C8 C7 1.446 . S
C8 C9 1.339 . S
C8 H43 0.949 . S
C9 C8 1.339 . S
C9 C10 1.439 . S
C9 H44 0.950 . S
C10 N6 1.383 . S
C10 C9 1.439 . S
C10 C39 1.392 . S
N11 Co5 2.008 1_566 S
N11 C12 1.376 1_565 S
N11 C15 1.374 . S
C12 N11 1.376 1_545 S
C12 C13 1.443 1_545 S
C12 C39 1.389 . S
C13 C12 1.443 1_565 S
C13 C14 1.340 . S
C13 H45 0.951 . S
C14 C13 1.340 . S
C14 C15 1.439 . S
C14 H46 0.950 . S
C15 N11 1.374 . S
C15 C14 1.439 . S
C15 C40 1.395 1_556 S
N16 Co5 1.995 1_565 S
N16 C17 1.376 . S
N16 C20 1.380 1_565 S
C17 N16 1.376 . S
C17 C18 1.446 . S
C17 C40 1.391 . S
C18 C17 1.446 . S
C18 C19 1.339 . S
C18 H47 0.949 . S
C19 C18 1.339 . S
C19 C20 1.420 1_565 S
C19 H48 0.950 . S
C20 N16 1.380 1_545 S
C20 C19 1.420 1_545 S
C20 C38 1.411 . S
N21 Co5 2.282 . S
N21 C24 1.332 . S
N21 C26 1.332 . S
C22 C23 1.386 . S
C22 C25 1.388 . S
C23 C22 1.386 . S
C23 C24 1.382 . S
C23 H49 0.950 1_545 S
C24 N21 1.332 . S
C24 C23 1.382 . S
C24 H35 0.952 1_545 S
C25 C22 1.388 . S
C25 C26 1.382 . S
C25 H50 0.950 . S
C26 N21 1.332 . S
C26 C25 1.382 . S
C26 H36 0.948 . S
N27 Co5 2.282 1_556 S
N27 C31 1.332 . S
N27 C32 1.332 . S
C28 C29 1.388 . S
C28 C32 1.382 . S
C28 H51 0.950 1_545 S
C29 C28 1.388 . S
C29 C30 1.386 . S
C30 C29 1.386 . S
C30 C31 1.382 . S
C30 H52 0.950 . S
C31 N27 1.332 . S
C31 C30 1.382 . S
C31 H33 0.952 . S
C32 N27 1.332 . S
C32 C28 1.382 . S
C32 H34 0.948 1_545 S
H33 C31 0.952 . S
H34 C32 0.948 1_565 S
H35 C24 0.952 1_565 S
H36 C26 0.948 . S
C37 C3 1.395 . S
C37 C7 1.391 1_554 S
C38 C0 1.389 . S
C38 C20 1.411 . S
C39 C10 1.392 . S
C39 C12 1.389 . S
C40 C15 1.395 1_554 S
C40 C17 1.391 . S
H41 C1 0.951 . S
H42 C2 0.950 . S
H43 C8 0.949 . S
H44 C9 0.950 . S
H45 C13 0.951 . S
H46 C14 0.950 . S
H47 C18 0.949 . S
H48 C19 0.950 . S
H49 C23 0.950 1_565 S
H50 C25 0.950 . S
H51 C28 0.950 1_565 S
H52 C30 0.950 . S
C53 C54 1.443 . S
C53 N57 1.376 . S
C53 C91 1.389 . S
C54 C53 1.443 . S
C54 C55 1.340 . S
C54 H94 0.951 . S
C55 C54 1.340 . S
C55 C56 1.439 . S
C55 H95 0.950 . S
C56 C55 1.439 . S
C56 N57 1.374 . S
C56 C90 1.395 . S
N57 C53 1.376 . S
N57 C56 1.374 . S
N57 Co58 2.008 . S
Co58 N57 2.008 . S
Co58 N59 1.995 . S
Co58 N64 2.008 . S
Co58 N69 1.995 . S
Co58 N74 2.282 . S
Co58 N80 2.282 . S
N59 Co58 1.995 . S
N59 C60 1.376 . S
N59 C63 1.383 . S
C60 N59 1.376 . S
C60 C61 1.446 . S
C60 C90 1.391 . S
C61 C60 1.446 . S
C61 C62 1.339 . S
C61 H96 0.949 . S
C62 C61 1.339 . S
C62 C63 1.439 . S
C62 H97 0.950 . S
C63 N59 1.383 . S
C63 C62 1.439 . S
C63 C92 1.392 . S
N64 Co58 2.008 . S
N64 C65 1.376 . S
N64 C68 1.374 1_455 S
C65 N64 1.376 . S
C65 C66 1.443 1_455 S
C65 C92 1.389 . S
C66 C65 1.443 1_655 S
C66 C67 1.340 . S
C66 H98 0.951 . S
C67 C66 1.340 . S
C67 C68 1.439 . S
C67 H99 0.950 . S
C68 N64 1.374 1_655 S
C68 C67 1.439 . S
C68 C93 1.395 . S
N69 Co58 1.995 . S
N69 C70 1.376 1_455 S
N69 C73 1.383 . S
C70 N69 1.376 1_655 S
C70 C71 1.446 . S
C70 C93 1.391 . S
C71 C70 1.446 . S
C71 C72 1.339 . S
C71 H100 0.949 . S
C72 C71 1.339 . S
C72 C73 1.439 1_655 S
C72 H101 0.950 . S
C73 N69 1.383 . S
C73 C72 1.439 1_455 S
C73 C91 1.392 . S
N74 Co58 2.282 . S
N74 C77 1.332 . S
N74 C79 1.332 . S
C75 C76 1.386 . S
C75 C78 1.388 . S
C76 C75 1.386 . S
C76 C77 1.382 . S
C76 H102 0.950 1_455 S
C77 N74 1.332 . S
C77 C76 1.382 . S
C77 H88 0.952 1_455 S
C78 C75 1.388 . S
C78 C79 1.382 . S
C78 H103 0.950 . S
C79 N74 1.332 . S
C79 C78 1.382 . S
C79 H89 0.948 . S
N80 Co58 2.282 . S
N80 C84 1.332 . S
N80 C85 1.332 . S
C81 C82 1.388 . S
C81 C85 1.382 . S
C81 H104 0.950 1_455 S
C82 C81 1.388 . S
C82 C83 1.386 . S
C83 C82 1.386 . S
C83 C84 1.382 . S
C83 H105 0.950 . S
C84 N80 1.332 . S
C84 C83 1.382 . S
C84 H86 0.952 . S
C85 N80 1.332 . S
C85 C81 1.382 . S
C85 H87 0.948 1_455 S
H86 C84 0.952 . S
H87 C85 0.948 1_655 S
H88 C77 0.952 1_655 S
H89 C79 0.948 . S
C90 C56 1.395 . S
C90 C60 1.391 . S
C91 C53 1.389 . S
C91 C73 1.392 . S
C92 C63 1.392 . S
C92 C65 1.389 . S
C93 C68 1.395 . S
C93 C70 1.391 . S
H94 C54 0.951 . S
H95 C55 0.950 . S
H96 C61 0.949 . S
H97 C62 0.950 . S
H98 C66 0.951 . S
H99 C67 0.950 . S
H100 C71 0.949 . S
H101 C72 0.950 . S
H102 C76 0.950 1_655 S
H103 C78 0.950 . S
H104 C81 0.950 1_655 S
H105 C83 0.950 . S
Mg106 O107 2.028 . S
Mg106 O113 1.986 . S
Mg106 O115 2.114 1_545 S
Mg106 O116 2.251 . S
Mg106 O119 2.010 . S
O107 Mg106 2.028 . S
O107 C110 1.250 1_455 S
O108 Mg109 2.028 . S
O108 C110 1.248 . S
Mg109 O108 2.028 . S
Mg109 O114 2.032 1_655 S
Mg109 O116 2.079 1_655 S
C110 O107 1.250 1_655 S
C110 O108 1.248 . S
C111 O112 1.264 . S
C111 O119 1.249 . S
O112 C111 1.264 . S
O113 Mg106 1.986 . S
O113 C117 1.246 . S
O114 Mg109 2.032 1_455 S
O114 C117 1.259 . S
O115 Mg106 2.114 1_565 S
O115 C118 1.252 . S
O116 Mg106 2.251 . S
O116 Mg109 2.079 1_455 S
O116 C118 1.273 1_545 S
C117 O113 1.246 . S
C117 O114 1.259 . S
C118 O115 1.252 . S
C118 O116 1.273 1_565 S
O119 Mg106 2.010 . S
O119 C111 1.249 . S
Mg120 O121 2.028 . S
Mg120 O127 1.986 . S
Mg120 O129 2.114 1_545 S
Mg120 O130 2.251 . S
Mg120 O133 2.010 1_455 S
O121 Mg120 2.028 . S
O121 C124 1.250 . S
O122 Mg123 2.028 . S
O122 C124 1.248 . S
Mg123 O122 2.028 . S
Mg123 O128 2.032 . S
Mg123 O130 2.079 . S
C124 O121 1.250 . S
C124 O122 1.248 . S
C125 O126 1.264 . S
C125 O133 1.249 . S
O126 C125 1.264 . S
O127 Mg120 1.986 . S
O127 C131 1.246 . S
O128 Mg123 2.032 . S
O128 C131 1.259 . S
O129 Mg120 2.114 1_565 S
O129 C132 1.252 . S
O130 Mg120 2.251 . S
O130 Mg123 2.079 . S
O130 C132 1.273 1_545 S
C131 O127 1.246 . S
C131 O128 1.259 . S
C132 O129 1.252 . S
C132 O130 1.273 1_565 S
O133 Mg120 2.010 1_655 S
O133 C125 1.249 . S
C134 C135 1.391 . S
C134 C136 1.394 . S
C134 H150 0.931 . S
C135 C134 1.391 . S
C135 C139 1.376 . S
C136 C134 1.394 . S
C136 C137 1.369 . S
C136 C140 1.531 . S
C137 C136 1.369 . S
C137 C138 1.410 . S
C137 C145 1.503 . S
C138 C137 1.410 . S
C138 C139 1.392 . S
C138 C141 1.511 . S
C139 C135 1.376 . S
C139 C138 1.392 . S
C139 H151 0.929 . S
C140 C136 1.531 . S
C140 H152 0.960 . S
C140 H153 0.962 . S
C140 H154 0.960 . S
C141 C138 1.511 . S
C141 H155 0.961 1_545 S
C141 H156 0.961 1_545 S
C141 H157 0.961 . S
C142 C143 1.370 . S
C142 C144 1.363 . S
C142 H158 0.931 1_545 S
C143 C142 1.370 . S
C143 C147 1.408 . S
C144 C142 1.363 . S
C144 C145 1.370 . S
C144 C148 1.524 1_545 S
C145 C137 1.503 . S
C145 C144 1.370 . S
C145 C146 1.403 . S
C146 C145 1.403 . S
C146 C147 1.404 . S
C146 C149 1.539 . S
C147 C143 1.408 . S
C147 C146 1.404 . S
C147 H159 0.930 . S
C148 C144 1.524 1_565 S
C148 H160 0.956 . S
C148 H161 0.961 . S
C148 H162 0.961 . S
C149 C146 1.539 . S
C149 H163 0.958 . S
C149 H164 0.961 . S
C149 H165 0.960 . S
H150 C134 0.931 . S
H151 C139 0.929 . S
H152 C140 0.960 . S
H153 C140 0.962 . S
H154 C140 0.960 . S
H155 C141 0.961 1_565 S
H156 C141 0.961 1_565 S
H157 C141 0.961 . S
H158 C142 0.931 1_565 S
H159 C147 0.930 . S
H160 C148 0.956 . S
H161 C148 0.961 . S
H162 C148 0.961 . S
H163 C149 0.958 . S
H164 C149 0.961 . S
H165 C149 0.960 . S
C166 C167 1.391 . S
C166 C168 1.394 . S
C166 H182 0.931 1_455 S
C167 C166 1.391 . S
C167 C171 1.376 . S
C168 C166 1.394 . S
C168 C169 1.369 . S
C168 C172 1.531 1_455 S
C169 C168 1.369 . S
C169 C170 1.410 . S
C169 C177 1.503 . S
C170 C169 1.410 . S
C170 C171 1.392 . S
C170 C173 1.511 . S
C171 C167 1.376 . S
C171 C170 1.392 . S
C171 H183 0.929 . S
C172 C168 1.531 1_655 S
C172 H184 0.960 . S
C172 H185 0.962 . S
C172 H186 0.960 . S
C173 C170 1.511 . S
C173 H187 0.961 . S
C173 H188 0.961 . S
C173 H189 0.961 . S
C174 C175 1.370 . S
C174 C176 1.363 . S
C174 H190 0.931 . S
C175 C174 1.370 . S
C175 C179 1.408 . S
C176 C174 1.363 . S
C176 C177 1.370 . S
C176 C180 1.524 . S
C177 C169 1.503 . S
C177 C176 1.370 . S
C177 C178 1.403 . S
C178 C177 1.403 . S
C178 C179 1.404 . S
C178 C181 1.539 . S
C179 C175 1.408 . S
C179 C178 1.404 . S
C179 H191 0.930 . S
C180 C176 1.524 . S
C180 H192 0.956 1_455 S
C180 H193 0.961 . S
C180 H194 0.961 . S
C181 C178 1.539 . S
C181 H195 0.958 . S
C181 H196 0.961 . S
C181 H197 0.960 . S
H182 C166 0.931 1_655 S
H183 C171 0.929 . S
H184 C172 0.960 . S
H185 C172 0.962 . S
H186 C172 0.960 . S
H187 C173 0.961 . S
H188 C173 0.961 . S
H189 C173 0.961 . S
H190 C174 0.931 . S
H191 C179 0.930 . S
H192 C180 0.956 1_655 S
H193 C180 0.961 . S
H194 C180 0.961 . S
H195 C181 0.958 . S
H196 C181 0.961 . S
H197 C181 0.960 . S
C198 C199 1.391 . S
C198 C200 1.394 . S
C198 H214 0.931 . S
C199 C198 1.391 . S
C199 C203 1.376 . S
C200 C198 1.394 . S
C200 C201 1.369 . S
C200 C204 1.531 . S
C201 C200 1.369 . S
C201 C202 1.410 . S
C201 C209 1.503 . S
C202 C201 1.410 . S
C202 C203 1.392 . S
C202 C205 1.511 . S
C203 C199 1.376 . S
C203 C202 1.392 . S
C203 H215 0.929 . S
C204 C200 1.531 . S
C204 H216 0.960 . S
C204 H217 0.962 . S
C204 H218 0.960 . S
C205 C202 1.511 . S
C205 H219 0.961 . S
C205 H220 0.961 . S
C205 H221 0.961 . S
C206 C207 1.370 . S
C206 C208 1.363 . S
C206 H222 0.931 1_545 S
C207 C206 1.370 . S
C207 C211 1.408 . S
C208 C206 1.363 . S
C208 C209 1.370 . S
C208 C212 1.524 1_545 S
C209 C201 1.503 . S
C209 C208 1.370 . S
C209 C210 1.403 . S
C210 C209 1.403 . S
C210 C211 1.404 . S
C210 C213 1.539 . S
C211 C207 1.408 . S
C211 C210 1.404 . S
C211 H223 0.930 . S
C212 C208 1.524 1_565 S
C212 H224 0.956 . S
C212 H225 0.961 . S
C212 H226 0.961 . S
C213 C210 1.539 . S
C213 H227 0.958 . S
C213 H228 0.961 . S
C213 H229 0.960 . S
H214 C198 0.931 . S
H215 C203 0.929 . S
H216 C204 0.960 . S
H217 C204 0.962 . S
H218 C204 0.960 . S
H219 C205 0.961 . S
H220 C205 0.961 . S
H221 C205 0.961 . S
H222 C206 0.931 1_565 S
H223 C211 0.930 . S
H224 C212 0.956 . S
H225 C212 0.961 . S
H226 C212 0.961 . S
H227 C213 0.958 . S
H228 C213 0.961 . S
H229 C213 0.960 . S
C230 C231 1.391 . S
C230 C232 1.394 . S
C230 H246 0.931 1_455 S
C231 C230 1.391 . S
C231 C235 1.376 . S
C232 C230 1.394 . S
C232 C233 1.369 . S
C232 C236 1.531 1_455 S
C233 C232 1.369 . S
C233 C234 1.410 . S
C233 C241 1.503 . S
C234 C233 1.410 . S
C234 C235 1.392 . S
C234 C237 1.511 . S
C235 C231 1.376 . S
C235 C234 1.392 . S
C235 H247 0.929 . S
C236 C232 1.531 1_655 S
C236 H248 0.960 . S
C236 H249 0.962 . S
C236 H250 0.960 . S
C237 C234 1.511 . S
C237 H251 0.961 . S
C237 H252 0.961 . S
C237 H253 0.961 . S
C238 C239 1.370 . S
C238 C240 1.363 . S
C238 H254 0.931 . S
C239 C238 1.370 . S
C239 C243 1.408 . S
C240 C238 1.363 . S
C240 C241 1.370 . S
C240 C244 1.524 . S
C241 C233 1.503 . S
C241 C240 1.370 . S
C241 C242 1.403 . S
C242 C241 1.403 . S
C242 C243 1.404 . S
C242 C245 1.539 1_455 S
C243 C239 1.408 . S
C243 C242 1.404 . S
C243 H255 0.930 . S
C244 C240 1.524 . S
C244 H256 0.956 . S
C244 H257 0.961 . S
C244 H258 0.961 . S
C245 C242 1.539 1_655 S
C245 H259 0.958 . S
C245 H260 0.961 . S
C245 H261 0.960 1_655 S
H246 C230 0.931 1_655 S
H247 C235 0.929 . S
H248 C236 0.960 . S
H249 C236 0.962 . S
H250 C236 0.960 . S
H251 C237 0.961 . S
H252 C237 0.961 . S
H253 C237 0.961 . S
H254 C238 0.931 . S
H255 C243 0.930 . S
H256 C244 0.956 . S
H257 C244 0.961 . S
H258 C244 0.961 . S
H259 C245 0.958 . S
H260 C245 0.961 . S
H261 C245 0.960 1_455 S
C262 C263 1.391 . S
C262 C264 1.394 . S
C262 H278 0.931 . S
C263 C262 1.391 . S
C263 C267 1.376 . S
C264 C262 1.394 . S
C264 C265 1.369 . S
C264 C268 1.531 . S
C265 C264 1.369 . S
C265 C266 1.410 . S
C265 C273 1.503 . S
C266 C265 1.410 . S
C266 C267 1.392 . S
C266 C269 1.511 . S
C267 C263 1.376 . S
C267 C266 1.392 . S
C267 H279 0.929 . S
C268 C264 1.531 . S
C268 H280 0.965 . S
C268 H281 0.962 . S
C268 H282 0.960 1_545 S
C269 C266 1.511 . S
C269 H283 0.961 . S
C269 H284 0.961 . S
C269 H285 0.961 . S
C270 C271 1.370 . S
C270 C272 1.363 . S
C270 H286 0.931 . S
C271 C270 1.370 . S
C271 C275 1.408 . S
C272 C270 1.363 . S
C272 C273 1.370 . S
C272 C276 1.524 . S
C273 C265 1.503 . S
C273 C272 1.370 . S
C273 C274 1.403 . S
C274 C273 1.403 . S
C274 C275 1.404 . S
C274 C277 1.539 1_545 S
C275 C271 1.408 . S
C275 C274 1.404 . S
C275 H287 0.930 1_545 S
C276 C272 1.524 . S
C276 H288 0.956 . S
C276 H289 0.961 . S
C276 H290 0.961 . S
C277 C274 1.539 1_565 S
C277 H291 0.958 . S
C277 H292 0.961 . S
C277 H293 0.960 . S
H278 C262 0.931 . S
H279 C267 0.929 . S
H280 C268 0.965 . S
H281 C268 0.962 . S
H282 C268 0.960 1_565 S
H283 C269 0.961 . S
H284 C269 0.961 . S
H285 C269 0.961 . S
H286 C270 0.931 . S
H287 C275 0.930 1_565 S
H288 C276 0.956 . S
H289 C276 0.961 . S
H290 C276 0.961 . S
H291 C277 0.958 . S
H292 C277 0.961 . S
H293 C277 0.960 . S
C294 C295 1.391 . S
C294 C296 1.394 . S
C294 H310 0.931 . S
C295 C294 1.391 . S
C295 C299 1.376 . S
C296 C294 1.394 . S
C296 C297 1.369 . S
C296 C300 1.531 . S
C297 C296 1.369 . S
C297 C298 1.410 . S
C297 C305 1.503 . S
C298 C297 1.410 . S
C298 C299 1.392 . S
C298 C301 1.511 . S
C299 C295 1.376 . S
C299 C298 1.392 . S
C299 H311 0.929 . S
C300 C296 1.531 . S
C300 H312 0.960 . S
C300 H313 0.962 . S
C300 H314 0.960 . S
C301 C298 1.511 . S
C301 H315 0.960 . S
C301 H316 0.961 . S
C301 H317 0.961 1_455 S
C302 C303 1.370 . S
C302 C304 1.363 . S
C302 H318 0.931 . S
C303 C302 1.370 . S
C303 C307 1.408 . S
C304 C302 1.363 . S
C304 C305 1.370 . S
C304 C308 1.524 . S
C305 C297 1.503 . S
C305 C304 1.370 . S
C305 C306 1.403 . S
C306 C305 1.403 . S
C306 C307 1.404 . S
C306 C309 1.539 1_455 S
C307 C303 1.408 . S
C307 C306 1.404 . S
C307 H319 0.930 . S
C308 C304 1.524 . S
C308 H320 0.956 . S
C308 H321 0.961 . S
C308 H322 0.961 . S
C309 C306 1.539 1_655 S
C309 H323 0.958 . S
C309 H324 0.961 . S
C309 H325 0.960 . S
H310 C294 0.931 . S
H311 C299 0.929 . S
H312 C300 0.960 . S
H313 C300 0.962 . S
H314 C300 0.960 . S
H315 C301 0.960 . S
H316 C301 0.961 . S
H317 C301 0.961 1_655 S
H318 C302 0.931 . S
H319 C307 0.930 . S
H320 C308 0.956 . S
H321 C308 0.961 . S
H322 C308 0.961 . S
H323 C309 0.958 . S
H324 C309 0.961 . S
H325 C309 0.960 . S
C326 C327 1.391 . S
C326 C328 1.394 . S
C326 H342 0.931 . S
C327 C326 1.391 . S
C327 C331 1.376 . S
C328 C326 1.394 . S
C328 C329 1.369 . S
C328 C332 1.531 . S
C329 C328 1.369 . S
C329 C330 1.410 . S
C329 C337 1.503 . S
C330 C329 1.410 . S
C330 C331 1.392 . S
C330 C333 1.504 1_545 S
C331 C327 1.376 . S
C331 C330 1.392 . S
C331 H343 0.929 . S
C332 C328 1.531 . S
C332 H344 0.960 . S
C332 H345 0.962 . S
C332 H346 0.960 . S
C333 C330 1.504 1_565 S
C333 H347 0.971 . S
C333 H348 0.965 . S
C333 H349 0.954 1_565 S
C334 C335 1.370 . S
C334 C336 1.363 . S
C334 H350 0.931 . S
C335 C334 1.370 . S
C335 C339 1.408 . S
C336 C334 1.363 . S
C336 C337 1.370 . S
C336 C340 1.524 . S
C337 C329 1.503 . S
C337 C336 1.370 . S
C337 C338 1.403 . S
C338 C337 1.403 . S
C338 C339 1.404 . S
C338 C341 1.539 . S
C339 C335 1.408 . S
C339 C338 1.404 . S
C339 H351 0.930 . S
C340 C336 1.524 . S
C340 H352 0.956 . S
C340 H353 0.961 1_545 S
C340 H354 0.961 1_545 S
C341 C338 1.539 . S
C341 H355 0.958 . S
C341 H356 0.961 . S
C341 H357 0.960 . S
H342 C326 0.931 . S
H343 C331 0.929 . S
H344 C332 0.960 . S
H345 C332 0.962 . S
H346 C332 0.960 . S
H347 C333 0.971 . S
H348 C333 0.965 . S
H349 C333 0.954 1_545 S
H350 C334 0.931 . S
H351 C339 0.930 . S
H352 C340 0.956 . S
H353 C340 0.961 1_565 S
H354 C340 0.961 1_565 S
H355 C341 0.958 . S
H356 C341 0.961 . S
H357 C341 0.960 . S
C358 C359 1.391 . S
C358 C360 1.394 . S
C358 H374 0.931 . S
C359 C358 1.391 . S
C359 C363 1.376 . S
C360 C358 1.394 . S
C360 C361 1.369 . S
C360 C364 1.531 . S
C361 C360 1.369 . S
C361 C362 1.410 . S
C361 C369 1.503 . S
C362 C361 1.410 . S
C362 C363 1.392 . S
C362 C365 1.511 1_455 S
C363 C359 1.376 . S
C363 C362 1.392 . S
C363 H375 0.929 1_455 S
C364 C360 1.531 . S
C364 H376 0.960 . S
C364 H377 0.962 . S
C364 H378 0.960 . S
C365 C362 1.511 1_655 S
C365 H379 0.961 . S
C365 H380 0.961 . S
C365 H381 0.961 . S
C366 C367 1.370 . S
C366 C368 1.363 . S
C366 H382 0.931 . S
C367 C366 1.370 . S
C367 C371 1.408 . S
C368 C366 1.363 . S
C368 C369 1.370 . S
C368 C372 1.524 . S
C369 C361 1.503 . S
C369 C368 1.370 . S
C369 C370 1.403 . S
C370 C369 1.403 . S
C370 C371 1.404 . S
C370 C373 1.539 . S
C371 C367 1.408 . S
C371 C370 1.404 . S
C371 H383 0.930 . S
C372 C368 1.524 . S
C372 H384 0.956 . S
C372 H385 0.961 . S
C372 H386 0.961 . S
C373 C370 1.539 . S
C373 H387 0.958 . S
C373 H388 0.961 . S
C373 H389 0.960 . S
H374 C358 0.931 . S
H375 C363 0.929 1_655 S
H376 C364 0.960 . S
H377 C364 0.962 . S
H378 C364 0.960 . S
H379 C365 0.961 . S
H380 C365 0.961 . S
H381 C365 0.961 . S
H382 C366 0.931 . S
H383 C371 0.930 . S
H384 C372 0.956 . S
H385 C372 0.961 . S
H386 C372 0.961 . S
H387 C373 0.958 . S
H388 C373 0.961 . S
H389 C373 0.960 . S
C143 C111 1.279 . S
C135 C22 1.496 . S
C175 C131 1.458 . S
C167 C91 1.493 . S
C207 C110 1.456 . S
C199 C38 1.492 . S
C239 C132 1.505 . S
C231 C75 1.500 . S
C271 C124 1.466 . S
C263 C39 1.499 . S
C303 C117 1.458 . S
C295 C82 1.490 . S
C335 C125 1.283 . S
C327 C29 1.499 . S
C359 C92 1.496 . S
C367 C118 1.505 . S
