# Generated by pormake.
# Topology wbl, (4,4)-cn, num edge types: 1
# Building blocks:
#     Node 0, Type 0, BuildingBlock: MUDLON_clean_sbu_0, # of connection points: 4
#     Node 1, Type 0, BuildingBlock: MUDLON_clean_sbu_0, # of connection points: 4
#     Node 2, Type 0, BuildingBlock: MUDLON_clean_sbu_0, # of connection points: 4
#     Node 3, Type 0, BuildingBlock: MUDLON_clean_sbu_0, # of connection points: 4
#     Node 4, Type 0, BuildingBlock: MUDLON_clean_sbu_0, # of connection points: 4
#     Node 5, Type 0, BuildingBlock: MUDLON_clean_sbu_0, # of connection points: 4
#     Node 6, Type 0, BuildingBlock: MUDLON_clean_sbu_0, # of connection points: 4
#     Node 7, Type 0, BuildingBlock: MUDLON_clean_sbu_0, # of connection points: 4
#     Node 8, Type 1, BuildingBlock: TATPOV_clean_sbu_0, # of connection points: 4
#     Node 9, Type 1, BuildingBlock: TATPOV_clean_sbu_0, # of connection points: 4
#     Node 10, Type 1, BuildingBlock: TATPOV_clean_sbu_0, # of connection points: 4
#     Node 11, Type 1, BuildingBlock: TATPOV_clean_sbu_0, # of connection points: 4
#     Node 12, Type 1, BuildingBlock: TATPOV_clean_sbu_0, # of connection points: 4
#     Node 13, Type 1, BuildingBlock: TATPOV_clean_sbu_0, # of connection points: 4
#     Node 14, Type 1, BuildingBlock: TATPOV_clean_sbu_0, # of connection points: 4
#     Node 15, Type 1, BuildingBlock: TATPOV_clean_sbu_0, # of connection points: 4
#     Edge 16, Type (0, 1), BuildingBlock: TEMPAE_clean_linker_10, # of connection points: 2
#     Edge 17, Type (0, 1), BuildingBlock: TEMPAE_clean_linker_10, # of connection points: 2
#     Edge 18, Type (0, 1), BuildingBlock: TEMPAE_clean_linker_10, # of connection points: 2
#     Edge 19, Type (0, 1), BuildingBlock: TEMPAE_clean_linker_10, # of connection points: 2
#     Edge 20, Type (0, 1), BuildingBlock: TEMPAE_clean_linker_10, # of connection points: 2
#     Edge 21, Type (0, 1), BuildingBlock: TEMPAE_clean_linker_10, # of connection points: 2
#     Edge 22, Type (0, 1), BuildingBlock: TEMPAE_clean_linker_10, # of connection points: 2
#     Edge 23, Type (0, 1), BuildingBlock: TEMPAE_clean_linker_10, # of connection points: 2
#     Edge 24, Type (0, 1), BuildingBlock: TEMPAE_clean_linker_10, # of connection points: 2
#     Edge 25, Type (0, 1), BuildingBlock: TEMPAE_clean_linker_10, # of connection points: 2
#     Edge 26, Type (0, 1), BuildingBlock: TEMPAE_clean_linker_10, # of connection points: 2
#     Edge 27, Type (0, 1), BuildingBlock: TEMPAE_clean_linker_10, # of connection points: 2
#     Edge 28, Type (0, 1), BuildingBlock: TEMPAE_clean_linker_10, # of connection points: 2
#     Edge 29, Type (0, 1), BuildingBlock: TEMPAE_clean_linker_10, # of connection points: 2
#     Edge 30, Type (0, 1), BuildingBlock: TEMPAE_clean_linker_10, # of connection points: 2
#     Edge 31, Type (0, 1), BuildingBlock: TEMPAE_clean_linker_10, # of connection points: 2
#     Edge 32, Type (0, 1), BuildingBlock: TEMPAE_clean_linker_10, # of connection points: 2
#     Edge 33, Type (0, 1), BuildingBlock: TEMPAE_clean_linker_10, # of connection points: 2
#     Edge 34, Type (0, 1), BuildingBlock: TEMPAE_clean_linker_10, # of connection points: 2
#     Edge 35, Type (0, 1), BuildingBlock: TEMPAE_clean_linker_10, # of connection points: 2
#     Edge 36, Type (0, 1), BuildingBlock: TEMPAE_clean_linker_10, # of connection points: 2
#     Edge 37, Type (0, 1), BuildingBlock: TEMPAE_clean_linker_10, # of connection points: 2
#     Edge 38, Type (0, 1), BuildingBlock: TEMPAE_clean_linker_10, # of connection points: 2
#     Edge 39, Type (0, 1), BuildingBlock: TEMPAE_clean_linker_10, # of connection points: 2
#     Edge 40, Type (0, 1), BuildingBlock: TEMPAE_clean_linker_10, # of connection points: 2
#     Edge 41, Type (0, 1), BuildingBlock: TEMPAE_clean_linker_10, # of connection points: 2
#     Edge 42, Type (0, 1), BuildingBlock: TEMPAE_clean_linker_10, # of connection points: 2
#     Edge 43, Type (0, 1), BuildingBlock: TEMPAE_clean_linker_10, # of connection points: 2
#     Edge 44, Type (0, 1), BuildingBlock: TEMPAE_clean_linker_10, # of connection points: 2
#     Edge 45, Type (0, 1), BuildingBlock: TEMPAE_clean_linker_10, # of connection points: 2
#     Edge 46, Type (0, 1), BuildingBlock: TEMPAE_clean_linker_10, # of connection points: 2
#     Edge 47, Type (0, 1), BuildingBlock: TEMPAE_clean_linker_10, # of connection points: 2
# Relax obj value: 0.243
# Max RMSD: 0.232
# Mean RMSD: 0.173
data_MOF--net-wbl--node1-MUDLON_clean_sbu_0--node2-TATPOV_clean_sbu_0--edge1-TEMPAE_clean_linker_10
_symmetry_space_group_name_H-M    P1
_symmetry_Int_Tables_number       1
_symmetry_cell_setting            triclinic
loop_
_symmetry_equiv_pos_as_xyz
'x, y, z'
_cell_length_a     34.985329
_cell_length_b     35.011605
_cell_length_c     74.505502
_cell_angle_alpha  91.35693
_cell_angle_beta   91.398961
_cell_angle_gamma 90.053449
loop_
_atom_site_label
_atom_site_type_symbol
_atom_site_fract_x
_atom_site_fract_y
_atom_site_fract_z
_atom_type_partial_charge
Mg0 Mg 0.18482 0.20852 0.35422 0.0
C1 C 0.14939 0.14939 0.37816 0.0
O2 O 0.12903 0.17848 0.38394 0.0
C3 C 0.1117 0.20454 0.3324 0.0
O4 O 0.11751 0.16795 0.33484 0.0
C5 C 0.22942 0.17369 0.32497 0.0
O6 O 0.19417 0.16926 0.31879 0.0
O7 O 0.23513 0.19433 0.33906 0.0
O8 O 0.17187 0.15389 0.36525 0.0
O9 O 0.19451 0.24322 0.37832 0.0
C10 C 0.16722 0.26426 0.38359 0.0
O11 O 0.13793 0.26962 0.37256 0.0
O12 O 0.13618 0.22854 0.33859 0.0
Mg13 Mg 0.02167 0.65294 0.5943 0.0
C14 C 0.0572 0.63861 0.63083 0.0
O15 O 0.02697 0.61665 0.63213 0.0
C16 C 0.03764 0.56854 0.58761 0.0
O17 O 0.06671 0.57569 0.59867 0.0
C18 C 0.07846 0.67948 0.5702 0.0
O19 O 0.09284 0.64917 0.57793 0.0
O20 O 0.04477 0.68985 0.57418 0.0
O21 O 0.06318 0.65507 0.61615 0.0
O22 O 0.96978 0.66681 0.60837 0.0
C23 C 0.94311 0.6421 0.60754 0.0
O24 O 0.94171 0.61806 0.59373 0.0
O25 O 0.01541 0.59558 0.58324 0.0
Mg26 Mg 0.53439 0.47465 0.84047 0.0
C27 C 0.57416 0.52602 0.86885 0.0
O28 O 0.59588 0.49601 0.87147 0.0
C29 C 0.6048 0.47971 0.81853 0.0
O30 O 0.61346 0.50395 0.83172 0.0
C31 C 0.46962 0.50079 0.81632 0.0
O32 O 0.49581 0.49689 0.80407 0.0
O33 O 0.4769 0.48945 0.83209 0.0
O34 O 0.55033 0.52577 0.85569 0.0
O35 O 0.5361 0.43233 0.86116 0.0
C36 C 0.56725 0.41494 0.86443 0.0
O37 O 0.59448 0.41647 0.85263 0.0
O38 O 0.57261 0.46285 0.81844 0.0
Mg39 Mg 0.64751 0.01327 0.11405 0.0
C40 C 0.72732 0.03171 0.12643 0.0
O41 O 0.72535 0.05253 0.11201 0.0
C42 C 0.60548 0.94151 0.10405 0.0
O43 O 0.59372 0.94786 0.12046 0.0
C44 C 0.66471 0.06447 0.08301 0.0
O45 O 0.67729 0.03192 0.0763 0.0
O46 O 0.64937 0.06479 0.09832 0.0
O47 O 0.70128 0.00715 0.12872 0.0
O48 O 0.60738 0.01933 0.13563 0.0
C49 C 0.61736 0.0361 0.15033 0.0
O50 O 0.65037 0.05406 0.15143 0.0
O51 O 0.63023 0.9638 0.09772 0.0
Mg52 Mg 0.03045 0.6238 0.91881 0.0
C53 C 0.00564 0.68725 0.8945 0.0
O54 O 0.98083 0.66114 0.88893 0.0
C55 C 0.97353 0.60754 0.9496 0.0
O56 O 0.99111 0.63473 0.95904 0.0
C57 C 0.08981 0.64803 0.9463 0.0
O58 O 0.06286 0.67323 0.94949 0.0
O59 O 0.08378 0.6223 0.93422 0.0
O60 O 0.02548 0.68125 0.90868 0.0
O61 O 0.03383 0.58817 0.89464 0.0
C62 C 0.00237 0.57418 0.88862 0.0
O63 O 0.97126 0.58034 0.89777 0.0
O64 O 0.9835 0.60022 0.93361 0.0
Mg65 Mg 0.5009 0.52717 0.18326 0.0
C66 C 0.43994 0.54649 0.15636 0.0
O67 O 0.44413 0.57937 0.16504 0.0
C68 C 0.53513 0.48606 0.21408 0.0
O69 O 0.54082 0.52195 0.219 0.0
C70 C 0.45897 0.5868 0.20548 0.0
O71 O 0.43008 0.5636 0.20194 0.0
O72 O 0.49172 0.5786 0.19946 0.0
O73 O 0.45688 0.51733 0.16256 0.0
O74 O 0.55043 0.53262 0.16675 0.0
C75 C 0.55017 0.55309 0.15288 0.0
O76 O 0.52157 0.57663 0.15007 0.0
O77 O 0.51546 0.47884 0.19981 0.0
Mg78 Mg 0.70069 0.9985 0.43432 0.0
C79 C 0.68214 0.06258 0.40737 0.0
O80 O 0.65618 0.07355 0.41884 0.0
C81 C 0.6154 0.99181 0.43476 0.0
O82 O 0.62115 0.99135 0.4174 0.0
C83 C 0.74875 0.05102 0.45731 0.0
O84 O 0.7245 0.07477 0.44977 0.0
O85 O 0.74544 0.0155 0.45363 0.0
O86 O 0.70336 0.03417 0.41094 0.0
O87 O 0.70722 0.94147 0.42313 0.0
C88 C 0.68447 0.91635 0.42872 0.0
O89 O 0.67135 0.92072 0.44501 0.0
O90 O 0.64376 0.99743 0.44554 0.0
Mg91 Mg 0.22179 0.1353 0.67443 0.0
C92 C 0.25385 0.09202 0.64355 0.0
O93 O 0.28428 0.09585 0.65414 0.0
C94 C 0.1685 0.19381 0.68923 0.0
O95 O 0.19859 0.1991 0.69991 0.0
C96 C 0.2335 0.09483 0.71071 0.0
O97 O 0.24314 0.12876 0.71724 0.0
O98 O 0.22404 0.09092 0.69418 0.0
O99 O 0.22229 0.10593 0.64866 0.0
O100 O 0.27179 0.17247 0.67607 0.0
C101 C 0.27906 0.19462 0.66328 0.0
O102 O 0.31076 0.21474 0.6638 0.0
O103 O 0.16976 0.16815 0.67694 0.0
Zn104 Zn 0.4323 0.74146 0.98396 0.0
Zn105 Zn 0.43556 0.68203 0.00659 0.0
O106 O 0.37844 0.68464 0.99946 0.0
O107 O 0.37564 0.73117 0.98012 0.0
O108 O 0.4389 0.64235 0.0258 0.0
O109 O 0.45154 0.77831 0.00334 0.0
O110 O 0.459 0.72823 0.02035 0.0
C111 C 0.35921 0.70503 0.98855 0.0
C112 C 0.48089 0.67847 0.97235 0.0
O113 O 0.46858 0.66201 0.98616 0.0
O114 O 0.47077 0.71235 0.96894 0.0
C115 C 0.41379 0.61733 0.02908 0.0
O116 O 0.38315 0.61422 0.0186 0.0
C117 C 0.46296 0.76389 0.01793 0.0
Zn118 Zn 0.42178 0.8693 0.31392 0.0
Zn119 Zn 0.46839 0.90558 0.29065 0.0
O120 O 0.42617 0.9442 0.296 0.0
O121 O 0.38751 0.9165 0.31455 0.0
O122 O 0.49966 0.93157 0.27188 0.0
O123 O 0.41366 0.82615 0.2957 0.0
O124 O 0.45272 0.8552 0.2777 0.0
C125 C 0.39648 0.94528 0.30552 0.0
C126 C 0.50022 0.88106 0.32705 0.0
O127 O 0.50467 0.89831 0.31236 0.0
O128 O 0.46838 0.86605 0.33059 0.0
C129 C 0.48339 0.95396 0.26085 0.0
O130 O 0.44654 0.96034 0.26204 0.0
C131 C 0.43149 0.8268 0.28112 0.0
Zn132 Zn 0.27923 0.87184 0.46256 0.0
Zn133 Zn 0.28081 0.92116 0.49152 0.0
O134 O 0.33642 0.92096 0.48392 0.0
O135 O 0.33753 0.87942 0.46128 0.0
O136 O 0.28132 0.95108 0.5148 0.0
O137 O 0.25476 0.83012 0.47715 0.0
O138 O 0.25611 0.87188 0.49962 0.0
C139 C 0.35472 0.90334 0.47171 0.0
C140 C 0.23491 0.94253 0.45838 0.0
O141 O 0.2475 0.95087 0.47416 0.0
O142 O 0.24365 0.911 0.45078 0.0
C143 C 0.27475 0.9865 0.5171 0.0
O144 O 0.26811 0.00781 0.50309 0.0
C145 C 0.24704 0.83901 0.49324 0.0
Zn146 Zn 0.28693 0.76382 0.75216 0.0
Zn147 Zn 0.22858 0.76334 0.77465 0.0
O148 O 0.24042 0.82099 0.77249 0.0
O149 O 0.28772 0.82122 0.75354 0.0
O150 O 0.1879 0.76021 0.7933 0.0
O151 O 0.32055 0.73327 0.76852 0.0
O152 O 0.26968 0.72682 0.78499 0.0
C153 C 0.26441 0.83927 0.76332 0.0
C154 C 0.21684 0.73031 0.737 0.0
O155 O 0.20278 0.74093 0.75191 0.0
O156 O 0.25196 0.73567 0.73407 0.0
C157 C 0.16395 0.78575 0.79788 0.0
O158 O 0.16406 0.81886 0.78995 0.0
C159 C 0.30427 0.71843 0.78162 0.0
Zn160 Zn 0.98958 0.21348 0.5652 0.0
Zn161 Zn 0.03018 0.22389 0.53518 0.0
O162 O 0.01319 0.27799 0.54108 0.0
O163 O 0.98166 0.27134 0.56603 0.0
O164 O 0.0591 0.22917 0.51237 0.0
O165 O 0.95235 0.17874 0.55138 0.0
O166 O 0.98681 0.18669 0.52747 0.0
C167 C 0.9949 0.2926 0.5541 0.0
C168 C 0.06951 0.19577 0.56967 0.0
O169 O 0.07078 0.20743 0.55364 0.0
O170 O 0.03776 0.19291 0.57737 0.0
C171 C 0.08329 0.25567 0.51015 0.0
O172 O 0.09053 0.28038 0.52335 0.0
C173 C 0.95813 0.17182 0.53491 0.0
Zn174 Zn 0.90408 0.36655 0.75826 0.0
Zn175 Zn 0.90835 0.42488 0.73655 0.0
O176 O 0.85029 0.42014 0.74114 0.0
O177 O 0.84709 0.37112 0.75895 0.0
O178 O 0.91211 0.46617 0.71809 0.0
O179 O 0.92915 0.33029 0.74123 0.0
O180 O 0.93714 0.37984 0.72415 0.0
C181 C 0.83064 0.39773 0.75056 0.0
C182 C 0.94615 0.43109 0.7737 0.0
O183 O 0.93693 0.44674 0.75893 0.0
O184 O 0.93646 0.39685 0.77639 0.0
C185 C 0.89005 0.49491 0.71677 0.0
O186 O 0.8625 0.49954 0.72829 0.0
C187 C 0.94265 0.34457 0.7273 0.0
Zn188 Zn 0.77471 0.39643 0.04589 0.0
Zn189 Zn 0.71859 0.39689 0.02045 0.0
O190 O 0.7222 0.34074 0.02773 0.0
O191 O 0.76734 0.33931 0.04875 0.0
O192 O 0.68133 0.39413 0.99937 0.0
O193 O 0.81328 0.41766 0.02898 0.0
O194 O 0.76521 0.42329 0.00965 0.0
C195 C 0.74196 0.3222 0.03916 0.0
C196 C 0.70751 0.44303 0.05459 0.0
O197 O 0.69348 0.42999 0.03973 0.0
O198 O 0.74109 0.43397 0.05969 0.0
C199 C 0.67667 0.42256 0.98926 0.0
O200 O 0.69459 0.45468 0.99344 0.0
C201 C 0.80019 0.42911 0.01406 0.0
Zn202 Zn 0.81472 0.26826 0.23971 0.0
Zn203 Zn 0.77906 0.23481 0.26684 0.0
O204 O 0.74223 0.2786 0.26064 0.0
O205 O 0.7704 0.30547 0.23804 0.0
O206 O 0.75775 0.21225 0.28915 0.0
O207 O 0.86196 0.27989 0.25471 0.0
O208 O 0.83365 0.24858 0.2759 0.0
C209 C 0.74259 0.30384 0.24859 0.0
C210 C 0.7937 0.18885 0.23268 0.0
O211 O 0.77747 0.19147 0.24778 0.0
O212 O 0.812 0.21685 0.22668 0.0
C213 C 0.72886 0.19036 0.28987 0.0
O214 O 0.70971 0.18114 0.275 0.0
C215 C 0.86285 0.26599 0.27022 0.0
C216 C 0.25174 0.12198 0.30408 0.0
C217 C 0.25953 0.14719 0.31864 0.0
C218 C 0.27607 0.09115 0.30026 0.0
C219 C 0.30901 0.08543 0.31126 0.0
C220 C 0.31857 0.1124 0.32512 0.0
C221 C 0.29375 0.14304 0.32862 0.0
C222 C 0.26509 0.06329 0.28523 0.0
C223 C 0.35365 0.10747 0.33705 0.0
C224 C 0.34179 0.98318 0.31771 0.0
C225 C 0.37338 0.98076 0.30651 0.0
C226 C 0.32063 0.01708 0.31931 0.0
C227 C 0.33123 0.04937 0.30944 0.0
C228 C 0.36282 0.04706 0.29798 0.0
C229 C 0.38354 0.01281 0.29666 0.0
C230 C 0.28705 0.0184 0.33168 0.0
C231 C 0.37492 0.08084 0.28723 0.0
H232 H 0.22555 0.12513 0.29618 0.0
H233 H 0.30013 0.16242 0.33986 0.0
H234 H 0.28996 0.05708 0.27669 0.0
H235 H 0.25597 0.03589 0.29099 0.0
H236 H 0.24131 0.07416 0.27663 0.0
H237 H 0.35948 0.1331 0.34577 0.0
H238 H 0.34956 0.08259 0.34576 0.0
H239 H 0.37912 0.10155 0.32886 0.0
H240 H 0.33373 0.95866 0.32539 0.0
H241 H 0.40793 0.01129 0.28798 0.0
H242 H 0.26061 0.02584 0.32402 0.0
H243 H 0.29171 0.04097 0.34222 0.0
H244 H 0.28242 0.99076 0.33833 0.0
H245 H 0.35076 0.09046 0.27855 0.0
H246 H 0.39965 0.07413 0.27864 0.0
H247 H 0.3828 0.10512 0.29643 0.0
C248 C 0.0876 0.73305 0.54878 0.0
C249 C 0.10231 0.7015 0.5579 0.0
C250 C 0.11088 0.75446 0.53761 0.0
C251 C 0.14978 0.74423 0.53566 0.0
C252 C 0.1646 0.71217 0.54466 0.0
C253 C 0.14069 0.69116 0.5556 0.0
C254 C 0.09403 0.78835 0.5281 0.0
C255 C 0.20596 0.70049 0.54307 0.0
C256 C 0.20516 0.78139 0.49632 0.0
C257 C 0.22441 0.81291 0.50425 0.0
C258 C 0.18061 0.75885 0.50634 0.0
C259 C 0.17551 0.76783 0.52477 0.0
C260 C 0.19556 0.79904 0.53294 0.0
C261 C 0.21962 0.82125 0.52258 0.0
C262 C 0.15965 0.72582 0.49717 0.0
C263 C 0.19133 0.80922 0.55261 0.0
H264 H 0.05798 0.74115 0.55044 0.0
H265 H 0.1524 0.66686 0.56259 0.0
H266 H 0.10873 0.81491 0.53289 0.0
H267 H 0.09862 0.78545 0.51344 0.0
H268 H 0.06291 0.79152 0.53035 0.0
H269 H 0.21276 0.67419 0.55056 0.0
H270 H 0.21289 0.69547 0.52876 0.0
H271 H 0.22483 0.72388 0.54833 0.0
H272 H 0.20846 0.7749 0.48215 0.0
H273 H 0.23442 0.84549 0.52885 0.0
H274 H 0.12834 0.73007 0.49815 0.0
H275 H 0.16676 0.69883 0.50399 0.0
H276 H 0.16679 0.72254 0.48276 0.0
H277 H 0.16104 0.81602 0.55535 0.0
H278 H 0.20929 0.83409 0.55697 0.0
H279 H 0.19943 0.78447 0.56091 0.0
C280 C 0.42154 0.54758 0.82757 0.0
C281 C 0.43682 0.52656 0.81316 0.0
C282 C 0.39608 0.57784 0.82457 0.0
C283 C 0.385 0.58664 0.80676 0.0
C284 C 0.39797 0.56355 0.79227 0.0
C285 C 0.42415 0.53407 0.79563 0.0
C286 C 0.38346 0.60213 0.84036 0.0
C287 C 0.38594 0.57137 0.77311 0.0
C288 C 0.30375 0.65529 0.79641 0.0
C289 C 0.32408 0.6876 0.79125 0.0
C290 C 0.32309 0.62239 0.8021 0.0
C291 C 0.36356 0.62235 0.80303 0.0
C292 C 0.384 0.65594 0.79907 0.0
C293 C 0.36402 0.68798 0.79298 0.0
C294 C 0.30033 0.58699 0.80594 0.0
C295 C 0.42713 0.65747 0.80041 0.0
H296 H 0.43141 0.54211 0.84118 0.0
H297 H 0.4357 0.51774 0.78447 0.0
H298 H 0.39794 0.63032 0.84013 0.0
H299 H 0.35223 0.60742 0.83953 0.0
H300 H 0.39053 0.58873 0.8534 0.0
H301 H 0.39447 0.548 0.76369 0.0
H302 H 0.35449 0.57515 0.77199 0.0
H303 H 0.39937 0.59831 0.76885 0.0
H304 H 0.27285 0.65481 0.79488 0.0
H305 H 0.37972 0.71304 0.78905 0.0
H306 H 0.31026 0.57432 0.81873 0.0
H307 H 0.30475 0.56526 0.79511 0.0
H308 H 0.26922 0.59298 0.8067 0.0
H309 H 0.43737 0.64697 0.81361 0.0
H310 H 0.43833 0.68684 0.79873 0.0
H311 H 0.43935 0.63854 0.78988 0.0
C312 C 0.60201 0.90094 0.07592 0.0
C313 C 0.58683 0.91161 0.09254 0.0
C314 C 0.58274 0.87478 0.06434 0.0
C315 C 0.54718 0.85952 0.06939 0.0
C316 C 0.53219 0.86949 0.08632 0.0
C317 C 0.55236 0.89517 0.09776 0.0
C318 C 0.59995 0.86422 0.04651 0.0
C319 C 0.49412 0.8542 0.09209 0.0
C320 C 0.47899 0.82796 0.03155 0.0
C321 C 0.48289 0.78813 0.03172 0.0
C322 C 0.49931 0.85145 0.04394 0.0
C323 C 0.52469 0.83473 0.05658 0.0
C324 C 0.52859 0.79452 0.05691 0.0
C325 C 0.50734 0.77165 0.04457 0.0
C326 C 0.4938 0.89421 0.04342 0.0
C327 C 0.55578 0.77573 0.07004 0.0
H328 H 0.62876 0.91337 0.07187 0.0
H329 H 0.54036 0.90336 0.11056 0.0
H330 H 0.60147 0.83269 0.0448 0.0
H331 H 0.58148 0.87496 0.03542 0.0
H332 H 0.62911 0.87627 0.04519 0.0
H333 H 0.48728 0.86342 0.10601 0.0
H334 H 0.47109 0.8643 0.08287 0.0
H335 H 0.49397 0.82253 0.09126 0.0
H336 H 0.45998 0.84081 0.0217 0.0
H337 H 0.5107 0.74088 0.04468 0.0
H338 H 0.52123 0.9083 0.04038 0.0
H339 H 0.48494 0.90531 0.05676 0.0
H340 H 0.47195 0.90255 0.03319 0.0
H341 H 0.58537 0.78579 0.0679 0.0
H342 H 0.55521 0.74407 0.06866 0.0
H343 H 0.54848 0.78395 0.08401 0.0
C344 C 0.15919 0.63111 0.94908 0.0
C345 C 0.1279 0.65221 0.95527 0.0
C346 C 0.19623 0.63801 0.95609 0.0
C347 C 0.20205 0.66645 0.96973 0.0
C348 C 0.17031 0.68642 0.97668 0.0
C349 C 0.13363 0.67918 0.96931 0.0
C350 C 0.22937 0.6162 0.94827 0.0
C351 C 0.17528 0.71662 0.99136 0.0
C352 C 0.29886 0.66868 0.99418 0.0
C353 C 0.31815 0.6968 0.98476 0.0
C354 C 0.26072 0.659 0.98973 0.0
C355 C 0.24159 0.67769 0.97547 0.0
C356 C 0.26065 0.70662 0.96619 0.0
C357 C 0.29857 0.71591 0.97099 0.0
C358 C 0.24114 0.62833 7e-05 0.0
C359 C 0.24129 0.72717 0.95085 0.0
H360 H 0.15503 0.61016 0.93826 0.0
H361 H 0.10955 0.69538 0.97429 0.0
H362 H 0.24792 0.63608 0.94102 0.0
H363 H 0.24712 0.60352 0.95912 0.0
H364 H 0.21978 0.59301 0.93876 0.0
H365 H 0.14746 0.72653 0.99663 0.0
H366 H 0.19294 0.70551 0.00265 0.0
H367 H 0.19056 0.74159 0.98608 0.0
H368 H 0.31369 0.65385 0.00488 0.0
H369 H 0.31314 0.73767 0.96362 0.0
H370 H 0.23403 0.60369 0.99096 0.0
H371 H 0.21385 0.6393 0.00543 0.0
H372 H 0.25923 0.61804 0.01142 0.0
H373 H 0.23332 0.70637 0.93993 0.0
H374 H 0.25983 0.7495 0.94525 0.0
H375 H 0.21452 0.74083 0.95543 0.0
C376 C 0.41707 0.63988 0.21627 0.0
C377 C 0.45323 0.62271 0.21587 0.0
C378 C 0.41134 0.67426 0.22591 0.0
C379 C 0.44231 0.69125 0.23575 0.0
C380 C 0.47884 0.67388 0.23546 0.0
C381 C 0.48397 0.64006 0.22532 0.0
C382 C 0.37221 0.69241 0.22556 0.0
C383 C 0.51238 0.69063 0.24611 0.0
C384 C 0.44144 0.79563 0.25097 0.0
C385 C 0.43062 0.79286 0.26889 0.0
C386 C 0.44392 0.7629 0.23979 0.0
C387 C 0.43637 0.72653 0.24685 0.0
C388 C 0.42476 0.72366 0.26483 0.0
C389 C 0.42158 0.7569 0.27556 0.0
C390 C 0.45545 0.76715 0.22054 0.0
C391 C 0.41719 0.68536 0.27297 0.0
H392 H 0.39333 0.62672 0.20881 0.0
H393 H 0.51192 0.62673 0.2251 0.0
H394 H 0.36062 0.69348 0.23928 0.0
H395 H 0.37424 0.7223 0.22103 0.0
H396 H 0.35166 0.6766 0.21653 0.0
H397 H 0.53881 0.67344 0.24455 0.0
H398 H 0.51813 0.72012 0.24177 0.0
H399 H 0.50553 0.69239 0.26057 0.0
H400 H 0.44828 0.82338 0.24574 0.0
H401 H 0.41352 0.7545 0.28945 0.0
H402 H 0.43469 0.75215 0.21134 0.0
H403 H 0.48379 0.75374 0.21853 0.0
H404 H 0.45716 0.79757 0.2167 0.0
H405 H 0.39512 0.66947 0.26488 0.0
H406 H 0.40748 0.68812 0.28703 0.0
H407 H 0.44366 0.66792 0.27284 0.0
C408 C 0.57468 0.96414 0.45843 0.0
C409 C 0.57764 0.98042 0.44149 0.0
C410 C 0.53961 0.94982 0.46421 0.0
C411 C 0.50652 0.9527 0.45299 0.0
C412 C 0.50929 0.96969 0.436 0.0
C413 C 0.54487 0.98293 0.43038 0.0
C414 C 0.53814 0.93073 0.48214 0.0
C415 C 0.47471 0.97364 0.42367 0.0
C416 C 0.41895 0.88965 0.45866 0.0
C417 C 0.39498 0.91404 0.46846 0.0
C418 C 0.45598 0.9012 0.45418 0.0
C419 C 0.46885 0.93851 0.45908 0.0
C420 C 0.44496 0.96299 0.46921 0.0
C421 C 0.40858 0.95028 0.47398 0.0
C422 C 0.48065 0.87378 0.44368 0.0
C423 C 0.45716 0.00323 0.47438 0.0
H424 H 0.60006 0.96142 0.46693 0.0
H425 H 0.54705 0.99521 0.41722 0.0
H426 H 0.51759 0.9458 0.49092 0.0
H427 H 0.52778 0.90091 0.48019 0.0
H428 H 0.5665 0.93023 0.48916 0.0
H429 H 0.4812 0.98956 0.41138 0.0
H430 H 0.46381 0.94492 0.41954 0.0
H431 H 0.45145 0.98868 0.43082 0.0
H432 H 0.40866 0.8616 0.45437 0.0
H433 H 0.39011 0.96948 0.48139 0.0
H434 H 0.51094 0.87544 0.44841 0.0
H435 H 0.47947 0.88134 0.42931 0.0
H436 H 0.47063 0.8438 0.44469 0.0
H437 H 0.4847 0.00289 0.48207 0.0
H438 H 0.4356 0.0184 0.48261 0.0
H439 H 0.46179 0.01973 0.46208 0.0
C440 C 0.24936 0.06301 0.73989 0.0
C441 C 0.23529 0.06066 0.72209 0.0
C442 C 0.25354 0.03001 0.75018 0.0
C443 C 0.24354 0.99394 0.74243 0.0
C444 C 0.22794 0.99167 0.72472 0.0
C445 C 0.22398 0.02498 0.71481 0.0
C446 C 0.26993 0.03357 0.76907 0.0
C447 C 0.2168 0.95381 0.71592 0.0
C448 C 0.29191 0.90109 0.75384 0.0
C449 C 0.26237 0.8814 0.76206 0.0
C450 C 0.28731 0.93909 0.74874 0.0
C451 C 0.25228 0.95794 0.75193 0.0
C452 C 0.22371 0.93945 0.76172 0.0
C453 C 0.2291 0.90129 0.7667 0.0
C454 C 0.31871 0.95782 0.7385 0.0
C455 C 0.18619 0.95877 0.76563 0.0
H456 H 0.25796 0.09049 0.74567 0.0
H457 H 0.21274 0.02283 0.70114 0.0
H458 H 0.25258 0.01695 0.77841 0.0
H459 H 0.29927 0.02158 0.76949 0.0
H460 H 0.27132 0.06377 0.77397 0.0
H461 H 0.20312 0.95721 0.70245 0.0
H462 H 0.24258 0.93567 0.71442 0.0
H463 H 0.19671 0.93834 0.72447 0.0
H464 H 0.31799 0.88613 0.75046 0.0
H465 H 0.2062 0.88637 0.77315 0.0
H466 H 0.32416 0.98727 0.74375 0.0
H467 H 0.30968 0.95988 0.72416 0.0
H468 H 0.34587 0.94145 0.73922 0.0
H469 H 0.19083 0.98894 0.77005 0.0
H470 H 0.17029 0.94381 0.77612 0.0
H471 H 0.16811 0.9589 0.75319 0.0
C472 C 0.67197 0.47945 0.8082 0.0
C473 C 0.63347 0.47006 0.80487 0.0
C474 C 0.70028 0.46786 0.79627 0.0
C475 C 0.68979 0.44697 0.78039 0.0
C476 C 0.65074 0.43912 0.77645 0.0
C477 C 0.62301 0.45035 0.78887 0.0
C478 C 0.74165 0.47645 0.80113 0.0
C479 C 0.63836 0.41783 0.75944 0.0
C480 C 0.77297 0.44034 0.74883 0.0
C481 C 0.79001 0.40611 0.7543 0.0
C482 C 0.73811 0.4526 0.756 0.0
C483 C 0.72036 0.43035 0.76908 0.0
C484 C 0.73567 0.39422 0.77337 0.0
C485 C 0.77007 0.38241 0.76581 0.0
C486 C 0.72198 0.49073 0.75064 0.0
C487 C 0.71778 0.36955 0.78727 0.0
H488 H 0.68028 0.49468 0.82052 0.0
H489 H 0.59321 0.44339 0.78612 0.0
H490 H 0.75746 0.44932 0.80303 0.0
H491 H 0.75532 0.49167 0.79009 0.0
H492 H 0.74485 0.49419 0.81364 0.0
H493 H 0.60696 0.41945 0.75698 0.0
H494 H 0.65304 0.42941 0.7477 0.0
H495 H 0.64647 0.38732 0.76041 0.0
H496 H 0.78789 0.45868 0.73979 0.0
H497 H 0.78265 0.35562 0.76992 0.0
H498 H 0.72869 0.51239 0.76137 0.0
H499 H 0.6904 0.48922 0.74898 0.0
H500 H 0.73426 0.50061 0.73794 0.0
H501 H 0.72172 0.3834 0.80075 0.0
H502 H 0.73072 0.34061 0.78764 0.0
H503 H 0.68661 0.36648 0.78461 0.0
C504 C 0.69552 0.10122 0.05874 0.0
C505 C 0.67306 0.10091 0.0741 0.0
C506 C 0.70685 0.13578 0.05124 0.0
C507 C 0.69533 0.17085 0.05925 0.0
C508 C 0.67154 0.17069 0.07436 0.0
C509 C 0.66075 0.13577 0.08161 0.0
C510 C 0.7322 0.13476 0.03513 0.0
C511 C 0.65841 0.20748 0.08321 0.0
C512 C 0.75458 0.26096 0.055 0.0
C513 C 0.7327 0.28162 0.04254 0.0
C514 C 0.74349 0.22426 0.06003 0.0
C515 C 0.7096 0.2078 0.05248 0.0
C516 C 0.68826 0.22777 0.03932 0.0
C517 C 0.70011 0.26439 0.03448 0.0
C518 C 0.76725 0.20374 0.07397 0.0
C519 C 0.65202 0.21115 0.03094 0.0
H520 H 0.70518 0.07446 0.05283 0.0
H521 H 0.64329 0.13584 0.09343 0.0
H522 H 0.71975 0.15242 0.0243 0.0
H523 H 0.76056 0.14715 0.0389 0.0
H524 H 0.73648 0.10526 0.02974 0.0
H525 H 0.63831 0.20246 0.09423 0.0
H526 H 0.6835 0.22352 0.08883 0.0
H527 H 0.6441 0.22586 0.07316 0.0
H528 H 0.7799 0.27388 0.06124 0.0
H529 H 0.68299 0.28006 0.02482 0.0
H530 H 0.7745 0.17458 0.069 0.0
H531 H 0.75054 0.20059 0.08632 0.0
H532 H 0.7942 0.2192 0.07759 0.0
H533 H 0.65721 0.1818 0.02562 0.0
H534 H 0.64049 0.22879 0.01985 0.0
H535 H 0.62993 0.20909 0.04131 0.0
C536 C 0.06368 0.25544 0.32561 0.0
C537 C 0.07615 0.21759 0.32337 0.0
C538 C 0.02895 0.26755 0.3178 0.0
C539 C 0.00662 0.24131 0.30729 0.0
C540 C 0.01944 0.20326 0.30474 0.0
C541 C 0.0539 0.19179 0.31294 0.0
C542 C 0.0159 0.30817 0.32101 0.0
C543 C 0.9967 0.17459 0.29338 0.0
C544 C 0.90014 0.25309 0.29853 0.0
C545 C 0.89923 0.26567 0.28079 0.0
C546 C 0.93503 0.24709 0.30773 0.0
C547 C 0.96976 0.25332 0.29887 0.0
C548 C 0.96903 0.26786 0.28131 0.0
C549 C 0.93376 0.27413 0.27253 0.0
C550 C 0.9347 0.23227 0.32659 0.0
C551 C 0.00544 0.27455 0.27136 0.0
H552 H 0.08065 0.27543 0.33379 0.0
H553 H 0.06351 0.16256 0.3111 0.0
H554 H 0.0117 0.32261 0.30802 0.0
H555 H 0.9879 0.30827 0.3277 0.0
H556 H 0.03665 0.32504 0.32949 0.0
H557 H 0.01117 0.14641 0.29236 0.0
H558 H 0.96814 0.17038 0.29918 0.0
H559 H 0.99205 0.18551 0.27964 0.0
H560 H 0.87359 0.24676 0.30506 0.0
H561 H 0.93337 0.28383 0.25882 0.0
H562 H 0.95444 0.24924 0.33553 0.0
H563 H 0.94491 0.20228 0.32656 0.0
H564 H 0.90567 0.23314 0.3323 0.0
H565 H 0.02578 0.29205 0.27972 0.0
H566 H 1.00011 0.28909 0.25844 0.0
H567 H 0.0195 0.24674 0.26848 0.0
C568 C 0.05368 0.49902 0.58592 0.0
C569 C 0.02945 0.52909 0.58105 0.0
C570 C 0.04539 0.46128 0.58041 0.0
C571 C 0.01205 0.45345 0.5698 0.0
C572 C 0.98769 0.4837 0.56465 0.0
C573 C 0.9967 0.52119 0.57033 0.0
C574 C 0.07212 0.42972 0.58613 0.0
C575 C 0.95191 0.47638 0.55334 0.0
C576 C 0.01275 0.35817 0.54464 0.0
C577 C 0.99359 0.33468 0.55652 0.0
C578 C 0.01749 0.39734 0.54839 0.0
C579 C 0.00263 0.41341 0.56435 0.0
C580 C 0.98126 0.39038 0.57584 0.0
C581 C 0.97699 0.35126 0.57178 0.0
C582 C 0.04026 0.42106 0.53576 0.0
C583 C 0.96468 0.40662 0.59292 0.0
H584 H 0.07903 0.50488 0.59419 0.0
H585 H 0.97776 0.54427 0.56652 0.0
H586 H 0.05658 0.40898 0.59432 0.0
H587 H 0.08259 0.41391 0.57414 0.0
H588 H 0.09719 0.44069 0.59412 0.0
H589 H 0.93649 0.50318 0.55011 0.0
H590 H 0.9592 0.46141 0.54059 0.0
H591 H 0.93231 0.45744 0.56053 0.0
H592 H 0.02555 0.34569 0.53277 0.0
H593 H 0.96198 0.33341 0.581 0.0
H594 H 0.0677 0.42979 0.54243 0.0
H595 H 0.02454 0.44754 0.53239 0.0
H596 H 0.04666 0.40519 0.5231 0.0
H597 H 0.98822 0.41477 0.60251 0.0
H598 H 0.9458 0.38587 0.59947 0.0
H599 H 0.94805 0.43286 0.59012 0.0
C600 C 0.8079 0.04121 0.47647 0.0
C601 C 0.78012 0.06584 0.46931 0.0
C602 C 0.83826 0.05541 0.48742 0.0
C603 C 0.84083 0.09513 0.49132 0.0
C604 C 0.81273 0.12004 0.48423 0.0
C605 C 0.78279 0.10512 0.47333 0.0
C606 C 0.86771 0.02799 0.49473 0.0
C607 C 0.81436 0.16258 0.4881 0.0
C608 C 0.89712 0.1343 0.53194 0.0
C609 C 0.93005 0.14864 0.52405 0.0
C610 C 0.86848 0.11557 0.52154 0.0
C611 C 0.87282 0.11098 0.50278 0.0
C612 C 0.90664 0.12401 0.49482 0.0
C613 C 0.93483 0.14269 0.50554 0.0
C614 C 0.83287 0.10203 0.53055 0.0
C615 C 0.91241 0.11953 0.47486 0.0
H616 H 0.80611 0.01083 0.47342 0.0
H617 H 0.76149 0.1244 0.46788 0.0
H618 H 0.89646 0.0357 0.48998 0.0
H619 H 0.86891 0.03009 0.50961 0.0
H620 H 0.86148 0.9979 0.49058 0.0
H621 H 0.79013 0.17802 0.48167 0.0
H622 H 0.81391 0.16831 0.50281 0.0
H623 H 0.8415 0.17445 0.48321 0.0
H624 H 0.89316 0.13859 0.54623 0.0
H625 H 0.96019 0.15351 0.4993 0.0
H626 H 0.82714 0.07161 0.52693 0.0
H627 H 0.80788 0.11877 0.52575 0.0
H628 H 0.83513 0.10513 0.54541 0.0
H629 H 0.90782 0.08936 0.47044 0.0
H630 H 0.94148 0.12848 0.47097 0.0
H631 H 0.89108 0.13707 0.46751 0.0
C632 C 0.1027 0.21414 0.67935 0.0
C633 C 0.13379 0.21737 0.69156 0.0
C634 C 0.06926 0.23562 0.68184 0.0
C635 C 0.06664 0.26027 0.69709 0.0
C636 C 0.09828 0.26426 0.70922 0.0
C637 C 0.1315 0.24294 0.70625 0.0
C638 C 0.03641 0.23108 0.66844 0.0
C639 C 0.09661 0.2901 0.72572 0.0
C640 C 0.99308 0.3384 0.704 0.0
C641 C 0.96904 0.32125 0.71629 0.0
C642 C 0.02355 0.31794 0.69645 0.0
C643 C 0.03007 0.27964 0.7014 0.0
C644 C 0.00397 0.26134 0.7126 0.0
C645 C 0.97372 0.28232 0.71984 0.0
C646 C 0.05032 0.33817 0.68424 0.0
C647 C 0.00971 0.22048 0.71813 0.0
H648 H 0.10431 0.19455 0.66791 0.0
H649 H 0.15541 0.24573 0.71572 0.0
H650 H 0.01285 0.21515 0.67459 0.0
H651 H 0.02498 0.25941 0.66467 0.0
H652 H 0.04496 0.21533 0.65606 0.0
H653 H 0.12422 0.2912 0.7334 0.0
H654 H 0.08882 0.31953 0.72185 0.0
H655 H 0.07413 0.27983 0.7347 0.0
H656 H 0.98953 0.36838 0.70107 0.0
H657 H 0.95495 0.26863 0.72911 0.0
H658 H 0.0577 0.31948 0.67261 0.0
H659 H 0.07733 0.34519 0.69173 0.0
H660 H 0.03779 0.36514 0.6792 0.0
H661 H 0.01492 0.20174 0.70624 0.0
H662 H 0.98472 0.20923 0.72527 0.0
H663 H 0.03529 0.21875 0.72719 0.0
C664 C 0.93072 0.59157 0.97493 0.0
C665 C 0.94501 0.58256 0.95793 0.0
C666 C 0.9056 0.56664 0.98332 0.0
C667 C 0.89502 0.53163 0.97462 0.0
C668 C 0.90882 0.52271 0.95734 0.0
C669 C 0.93338 0.54837 0.94916 0.0
C670 C 0.89093 0.57743 0.00164 0.0
C671 C 0.89861 0.4855 0.94771 0.0
C672 C 0.86448 0.45177 0.00484 0.0
C673 C 0.82457 0.45266 0.00268 0.0
C674 C 0.88776 0.47669 0.99543 0.0
C675 C 0.87068 0.5037 0.98389 0.0
C676 C 0.83043 0.50427 0.9814 0.0
C677 C 0.80787 0.47847 0.99069 0.0
C678 C 0.93063 0.47454 0.9981 0.0
C679 C 0.81111 0.53296 0.96939 0.0
H680 H 0.9394 0.61797 0.98175 0.0
H681 H 0.94433 0.54104 0.93604 0.0
H682 H 0.85924 0.57594 0.00151 0.0
H683 H 0.90166 0.55682 0.01166 0.0
H684 H 0.89996 0.60663 0.00611 0.0
H685 H 0.91074 0.48342 0.93408 0.0
H686 H 0.90947 0.4612 0.95565 0.0
H687 H 0.86711 0.48233 0.94645 0.0
H688 H 0.87754 0.43179 0.01403 0.0
H689 H 0.77702 0.47955 0.98908 0.0
H690 H 0.9415 0.50165 0.00433 0.0
H691 H 0.9445 0.47087 0.98494 0.0
H692 H 0.93947 0.4506 0.00679 0.0
H693 H 0.81733 0.56233 0.9746 0.0
H694 H 0.77961 0.52898 0.96852 0.0
H695 H 0.82256 0.5307 0.95566 0.0
C696 C 0.58152 0.46456 0.23781 0.0
C697 C 0.55779 0.45558 0.22284 0.0
C698 C 0.60868 0.43837 0.2442 0.0
C699 C 0.6122 0.40232 0.23541 0.0
C700 C 0.58639 0.392 0.22117 0.0
C701 C 0.55944 0.41875 0.21506 0.0
C702 C 0.63541 0.4504 0.25953 0.0
C703 C 0.58901 0.35372 0.21152 0.0
C704 C 0.71136 0.35897 0.2334 0.0
C705 C 0.70972 0.33017 0.24614 0.0
C706 C 0.67993 0.38272 0.22997 0.0
C707 C 0.64583 0.37766 0.23949 0.0
C708 C 0.64407 0.34912 0.25259 0.0
C709 C 0.67608 0.3257 0.25579 0.0
C710 C 0.68311 0.41296 0.21594 0.0
C711 C 0.60822 0.34293 0.26301 0.0
H712 H 0.58022 0.4928 0.24405 0.0
H713 H 0.54109 0.41143 0.20355 0.0
H714 H 0.63808 0.42743 0.26948 0.0
H715 H 0.66433 0.45559 0.25429 0.0
H716 H 0.62566 0.47693 0.26648 0.0
H717 H 0.56391 0.34811 0.20241 0.0
H718 H 0.61519 0.35288 0.20341 0.0
H719 H 0.59128 0.33036 0.22129 0.0
H720 H 0.73719 0.36278 0.2259 0.0
H721 H 0.67448 0.30347 0.26562 0.0
H722 H 0.67722 0.44156 0.22198 0.0
H723 H 0.66144 0.40771 0.20503 0.0
H724 H 0.71184 0.41356 0.20991 0.0
H725 H 0.59963 0.36993 0.26987 0.0
H726 H 0.61192 0.32052 0.27322 0.0
H727 H 0.58439 0.33438 0.25366 0.0
C728 C 0.12792 0.10781 0.40296 0.0
C729 C 0.1524 0.11422 0.3887 0.0
C730 C 0.13447 0.07741 0.41463 0.0
C731 C 0.16681 0.05371 0.4122 0.0
C732 C 0.1905 0.05901 0.39734 0.0
C733 C 0.18268 0.08883 0.38564 0.0
C734 C 0.10785 0.07182 0.42998 0.0
C735 C 0.22567 0.0348 0.3944 0.0
C736 C 0.21937 0.01005 0.45159 0.0
C737 C 0.21274 0.97103 0.44826 0.0
C738 C 0.20295 0.03755 0.44044 0.0
C739 C 0.17842 0.0257 0.42595 0.0
C740 C 0.16926 0.98654 0.42341 0.0
C741 C 0.18712 0.95952 0.43441 0.0
C742 C 0.21409 0.07897 0.44339 0.0
C743 C 0.14205 0.97302 0.40855 0.0
H744 H 0.10429 0.12715 0.40533 0.0
H745 H 0.20172 0.09346 0.37464 0.0
H746 H 0.10156 0.04104 0.43162 0.0
H747 H 0.12167 0.08262 0.44267 0.0
H748 H 0.08047 0.0874 0.42799 0.0
H749 H 0.24032 0.04181 0.38183 0.0
H750 H 0.24619 0.03918 0.40587 0.0
H751 H 0.21795 0.00407 0.39381 0.0
H752 H 0.23923 0.019 0.46228 0.0
H753 H 0.18155 0.92934 0.43199 0.0
H754 H 0.18828 0.09722 0.44407 0.0
H755 H 0.23091 0.08856 0.43188 0.0
H756 H 0.23152 0.08369 0.45592 0.0
H757 H 0.11631 0.99149 0.40801 0.0
H758 H 0.13291 0.94296 0.41029 0.0
H759 H 0.15619 0.97489 0.39544 0.0
C760 C 0.10517 0.68029 0.64693 0.0
C761 C 0.08153 0.64792 0.64682 0.0
C762 C 0.12631 0.69153 0.66236 0.0
C763 C 0.12448 0.66937 0.67795 0.0
C764 C 0.10138 0.63613 0.67783 0.0
C765 C 0.07977 0.62601 0.6623 0.0
C766 C 0.15007 0.72758 0.66205 0.0
C767 C 0.09943 0.61137 0.6941 0.0
C768 C 0.20812 0.6867 0.71031 0.0
C769 C 0.19225 0.71212 0.72288 0.0
C770 C 0.18574 0.67078 0.69617 0.0
C771 C 0.14687 0.68141 0.69431 0.0
C772 C 0.13043 0.70632 0.70723 0.0
C773 C 0.15327 0.72101 0.72153 0.0
C774 C 0.20402 0.64355 0.68291 0.0
C775 C 0.08929 0.71896 0.70546 0.0
H776 H 0.10639 0.69757 0.63508 0.0
H777 H 0.06152 0.60096 0.66226 0.0
H778 H 0.14092 0.74784 0.67279 0.0
H779 H 0.1806 0.72082 0.66477 0.0
H780 H 0.14765 0.74204 0.64896 0.0
H781 H 0.08113 0.58576 0.69161 0.0
H782 H 0.12858 0.60189 0.69814 0.0
H783 H 0.08791 0.62808 0.70558 0.0
H784 H 0.23817 0.67938 0.71148 0.0
H785 H 0.141 0.74074 0.73123 0.0
H786 H 0.20605 0.65731 0.66971 0.0
H787 H 0.18616 0.61753 0.68087 0.0
H788 H 0.2332 0.63488 0.68739 0.0
H789 H 0.08547 0.73619 0.69324 0.0
H790 H 0.08021 0.73643 0.71725 0.0
H791 H 0.07008 0.69384 0.70387 0.0
C792 C 0.53737 0.57818 0.88366 0.0
C793 C 0.57012 0.55511 0.88339 0.0
C794 C 0.52846 0.60007 0.89894 0.0
C795 C 0.55351 0.59982 0.91415 0.0
C796 C 0.5882 0.57915 0.91344 0.0
C797 C 0.59586 0.55649 0.89813 0.0
C798 C 0.49094 0.62144 0.89919 0.0
C799 C 0.61633 0.57946 0.92912 0.0
C800 C 0.52828 0.67747 0.94788 0.0
C801 C 0.50482 0.65744 0.95943 0.0
C802 C 0.5471 0.65848 0.93388 0.0
C803 C 0.54138 0.61877 0.9311 0.0
C804 C 0.51956 0.59805 0.94336 0.0
C805 C 0.50184 0.61764 0.95753 0.0
C806 C 0.57135 0.68125 0.92149 0.0
C807 C 0.51264 0.55566 0.94077 0.0
H808 H 0.5173 0.57737 0.87234 0.0
H809 H 0.62136 0.53892 0.89797 0.0
H810 H 0.4724 0.60945 0.90956 0.0
H811 H 0.49588 0.65198 0.9028 0.0
H812 H 0.4753 0.61968 0.88604 0.0
H813 H 0.64506 0.56956 0.92503 0.0
H814 H 0.61908 0.60851 0.93529 0.0
H815 H 0.60597 0.56018 0.93956 0.0
H816 H 0.53116 0.7082 0.94951 0.0
H817 H 0.48378 0.60208 0.96646 0.0
H818 H 0.55582 0.68475 0.90848 0.0
H819 H 0.59843 0.666 0.91868 0.0
H820 H 0.57827 0.71009 0.92722 0.0
H821 H 0.49535 0.55034 0.92827 0.0
H822 H 0.49729 0.54334 0.95217 0.0
H823 H 0.54012 0.54032 0.93923 0.0
C824 C 0.56591 0.00261 0.16655 0.0
C825 C 0.59531 0.0299 0.16674 0.0
C826 C 0.54799 0.99274 0.18243 0.0
C827 C 0.55934 0.01096 0.19887 0.0
C828 C 0.5879 0.03966 0.19905 0.0
C829 C 0.60573 0.04863 0.18299 0.0
C830 C 0.5178 0.96182 0.18167 0.0
C831 C 0.60039 0.06011 0.21628 0.0
C832 C 0.48905 0.00127 0.23649 0.0
C833 C 0.50478 0.9708 0.24607 0.0
C834 C 0.50737 0.01576 0.22154 0.0
C835 C 0.54194 0.99897 0.21587 0.0
C836 C 0.55856 0.96893 0.2258 0.0
C837 C 0.53991 0.95539 0.24088 0.0
C838 C 0.48914 0.04828 0.21151 0.0
C839 C 0.59523 0.95006 0.22007 0.0
H840 H 0.55774 0.98788 0.15408 0.0
H841 H 0.62834 0.06983 0.18324 0.0
H842 H 0.52732 0.9375 0.18995 0.0
H843 H 0.49084 0.97278 0.18738 0.0
H844 H 0.51169 0.951 0.16776 0.0
H845 H 0.62015 0.08421 0.21388 0.0
H846 H 0.57517 0.07131 0.22345 0.0
H847 H 0.61512 0.03975 0.22528 0.0
H848 H 0.46209 0.01358 0.24055 0.0
H849 H 0.55217 0.9318 0.24821 0.0
H850 H 0.4796 0.03813 0.19791 0.0
H851 H 0.51027 0.07146 0.20975 0.0
H852 H 0.46406 0.06033 0.21854 0.0
H853 H 0.59075 0.93584 0.20671 0.0
H854 H 0.60541 0.9284 0.22973 0.0
H855 H 0.618 0.97179 0.2187 0.0
C856 C 0.00429 0.71584 0.86405 0.0
C857 C 0.01923 0.71586 0.88171 0.0
C858 C 0.02373 0.73409 0.85038 0.0
C859 C 0.05879 0.75291 0.85452 0.0
C860 C 0.07161 0.75676 0.87264 0.0
C861 C 0.05162 0.73823 0.88604 0.0
C862 C 0.00872 0.72975 0.83128 0.0
C863 C 0.10856 0.77704 0.87769 0.0
C864 C 0.13627 0.7419 0.82011 0.0
C865 C 0.1365 0.77787 0.81221 0.0
C866 C 0.11101 0.73363 0.83379 0.0
C867 C 0.08521 0.76201 0.83983 0.0
C868 C 0.08507 0.79838 0.83192 0.0
C869 C 0.11074 0.80591 0.81817 0.0
C870 C 0.11209 0.69438 0.84182 0.0
C871 C 0.05795 0.8293 0.83802 0.0
H872 H 0.97897 0.69912 0.86057 0.0
H873 H 0.06312 0.73896 0.89969 0.0
H874 H 0.01182 0.75679 0.82399 0.0
H875 H 0.02558 0.70756 0.82413 0.0
H876 H 0.97817 0.72099 0.83067 0.0
H877 H 0.11093 0.78359 0.89234 0.0
H878 H 0.133 0.75856 0.87393 0.0
H879 H 0.11115 0.80404 0.87032 0.0
H880 H 0.15596 0.72 0.81561 0.0
H881 H 0.11072 0.83379 0.81216 0.0
H882 H 0.08369 0.68045 0.84013 0.0
H883 H 0.11868 0.69685 0.85645 0.0
H884 H 0.13379 0.67551 0.83556 0.0
H885 H 0.02799 0.81911 0.83648 0.0
H886 H 0.06105 0.85589 0.83034 0.0
H887 H 0.06316 0.83615 0.85248 0.0
C888 C 0.43681 0.51745 0.12527 0.0
C889 C 0.42593 0.54645 0.13744 0.0
C890 C 0.432 0.52196 0.10665 0.0
C891 C 0.41601 0.55625 0.10014 0.0
C892 C 0.40211 0.58411 0.11242 0.0
C893 C 0.40715 0.57881 0.13091 0.0
C894 C 0.44675 0.49132 0.09404 0.0
C895 C 0.3847 0.62104 0.10607 0.0
C896 C 0.44911 0.60051 0.05737 0.0
C897 C 0.41669 0.59607 0.04605 0.0
C898 C 0.45013 0.58554 0.07466 0.0
C899 C 0.41794 0.56555 0.0808 0.0
C900 C 0.38624 0.55859 0.06901 0.0
C901 C 0.38593 0.57402 0.05175 0.0
C902 C 0.48481 0.59312 0.08673 0.0
C903 C 0.35182 0.53662 0.07494 0.0
H904 H 0.45138 0.49232 0.13018 0.0
H905 H 0.39836 0.60117 0.14024 0.0
H906 H 0.42742 0.48741 0.0821 0.0
H907 H 0.47519 0.49992 0.08922 0.0
H908 H 0.44998 0.46351 0.10078 0.0
H909 H 0.37212 0.63807 0.11722 0.0
H910 H 0.40705 0.63855 0.09985 0.0
H911 H 0.36208 0.61522 0.09568 0.0
H912 H 0.47325 0.61703 0.053 0.0
H913 H 0.3609 0.5701 0.04305 0.0
H914 H 0.49565 0.56605 0.09236 0.0
H915 H 0.47679 0.61202 0.0982 0.0
H916 H 0.50838 0.60697 0.07955 0.0
H917 H 0.36083 0.51014 0.08175 0.0
H918 H 0.33217 0.52886 0.06349 0.0
H919 H 0.3358 0.55426 0.08477 0.0
C920 C 0.67578 0.88577 0.3983 0.0
C921 C 0.66055 0.89612 0.41494 0.0
C922 C 0.65167 0.87667 0.38346 0.0
C923 C 0.61156 0.87958 0.38522 0.0
C924 C 0.59611 0.88752 0.40229 0.0
C925 C 0.62085 0.89472 0.41705 0.0
C926 C 0.66918 0.86659 0.36566 0.0
C927 C 0.5536 0.89207 0.40471 0.0
C928 C 0.55243 0.91261 0.34516 0.0
C929 C 0.5316 0.87958 0.34052 0.0
C930 C 0.57903 0.9128 0.35957 0.0
C931 C 0.58592 0.8787 0.36902 0.0
C932 C 0.56643 0.84472 0.36367 0.0
C933 C 0.53882 0.84578 0.34971 0.0
C934 C 0.59835 0.94994 0.36522 0.0
C935 C 0.57406 0.80755 0.37296 0.0
H936 H 0.70648 0.88669 0.39666 0.0
H937 H 0.60886 0.9028 0.42986 0.0
H938 H 0.65346 0.84257 0.35886 0.0
H939 H 0.66722 0.8915 0.35676 0.0
H940 H 0.69978 0.85859 0.36725 0.0
H941 H 0.54626 0.89576 0.41905 0.0
H942 H 0.54336 0.91755 0.39742 0.0
H943 H 0.53787 0.86696 0.39897 0.0
H944 H 0.54646 0.93878 0.33812 0.0
H945 H 0.52275 0.82018 0.34599 0.0
H946 H 0.62986 0.94669 0.36498 0.0
H947 H 0.5908 0.95773 0.37922 0.0
H948 H 0.58997 0.97383 0.3564 0.0
H949 H 0.60528 0.80215 0.37404 0.0
H950 H 0.56012 0.7829 0.36577 0.0
H951 H 0.56318 0.80923 0.38681 0.0
C952 C 0.22449 0.06291 0.61555 0.0
C953 C 0.25715 0.0753 0.62528 0.0
C954 C 0.22699 0.04931 0.59776 0.0
C955 C 0.26309 0.0478 0.5896 0.0
C956 C 0.29624 0.05977 0.59945 0.0
C957 C 0.29289 0.07322 0.61722 0.0
C958 C 0.19101 0.03666 0.58771 0.0
C959 C 0.3352 0.05874 0.59116 0.0
C960 C 0.27605 0.97863 0.55034 0.0
C961 C 0.27262 0.00273 0.53559 0.0
C962 C 0.27291 0.99297 0.56795 0.0
C963 C 0.2664 0.03244 0.57094 0.0
C964 C 0.26322 0.05705 0.55616 0.0
C965 C 0.26627 0.04186 0.53863 0.0
C966 C 0.27632 0.9658 0.58336 0.0
C967 C 0.25639 0.09934 0.55886 0.0
H968 H 0.19691 0.06385 0.62185 0.0
H969 H 0.31821 0.08297 0.62466 0.0
H970 H 0.1872 0.05331 0.57531 0.0
H971 H 0.19341 0.00614 0.58354 0.0
H972 H 0.1651 0.04031 0.5959 0.0
H973 H 0.35808 0.06945 0.60059 0.0
H974 H 0.34226 0.02907 0.58688 0.0
H975 H 0.33508 0.07639 0.57899 0.0
H976 H 0.28085 0.94831 0.54814 0.0
H977 H 0.26356 0.06065 0.52732 0.0
H978 H 0.24987 0.96675 0.59128 0.0
H979 H 0.30034 0.97466 0.59254 0.0
H980 H 0.28121 0.93584 0.57874 0.0
H981 H 0.22865 0.10406 0.56545 0.0
H982 H 0.25598 0.11479 0.546 0.0
H983 H 0.27902 0.11198 0.56785 0.0
C984 C 0.61343 0.39045 0.88753 0.0
C985 C 0.57697 0.4046 0.88319 0.0
C986 C 0.6266 0.38923 0.90545 0.0
C987 C 0.6027 0.40241 0.91935 0.0
C988 C 0.56481 0.41387 0.91517 0.0
C989 C 0.55234 0.41471 0.89713 0.0
C990 C 0.66717 0.37665 0.90936 0.0
C991 C 0.53833 0.42796 0.92959 0.0
C992 C 0.63614 0.38385 0.96732 0.0
C993 C 0.65474 0.41833 0.97205 0.0
C994 C 0.61806 0.37852 0.95039 0.0
C995 C 0.61886 0.40827 0.93787 0.0
C996 C 0.63666 0.44348 0.94275 0.0
C997 C 0.6542 0.44814 0.9598 0.0
C998 C 0.59891 0.3408 0.94573 0.0
C999 C 0.63798 0.47601 0.92981 0.0
H1000 H 0.63258 0.38235 0.87688 0.0
H1001 H 0.52404 0.4256 0.89396 0.0
H1002 H 0.6846 0.40175 0.91386 0.0
H1003 H 0.66804 0.35589 0.92038 0.0
H1004 H 0.68058 0.36336 0.89738 0.0
H1005 H 0.5082 0.42948 0.9246 0.0
H1006 H 0.53975 0.40915 0.94136 0.0
H1007 H 0.54733 0.457 0.93427 0.0
H1008 H 0.63625 0.36071 0.97673 0.0
H1009 H 0.66835 0.47492 0.96334 0.0
H1010 H 0.61414 0.32625 0.93462 0.0
H1011 H 0.56905 0.34556 0.94096 0.0
H1012 H 0.59858 0.3215 0.95735 0.0
H1013 H 0.65138 0.46641 0.91714 0.0
H1014 H 0.65434 0.50089 0.93544 0.0
H1015 H 0.6085 0.48544 0.92635 0.0
C1016 C 0.75325 0.02396 0.15777 0.0
C1017 C 0.74948 0.04604 0.14235 0.0
C1018 C 0.76584 0.04051 0.17424 0.0
C1019 C 0.77344 0.08022 0.17534 0.0
C1020 C 0.77206 0.102 0.15956 0.0
C1021 C 0.76084 0.08444 0.1432 0.0
C1022 C 0.76875 0.01588 0.19055 0.0
C1023 C 0.77936 0.1446 0.16014 0.0
C1024 C 0.75242 0.1412 0.21644 0.0
C1025 C 0.78908 0.15446 0.22117 0.0
C1026 C 0.74695 0.11467 0.20219 0.0
C1027 C 0.77914 0.10031 0.193 0.0
C1028 C 0.81642 0.1106 0.19911 0.0
C1029 C 0.82094 0.13838 0.21287 0.0
C1030 C 0.70667 0.10471 0.19599 0.0
C1031 C 0.85143 0.09426 0.19034 0.0
H1032 H 0.74478 0.99415 0.15715 0.0
H1033 H 0.75803 0.10174 0.13137 0.0
H1034 H 0.7927 0.02521 0.19967 0.0
H1035 H 0.7419 0.01817 0.19811 0.0
H1036 H 0.7729 0.98534 0.1867 0.0
H1037 H 0.77775 0.15719 0.14659 0.0
H1038 H 0.75792 0.15902 0.16869 0.0
H1039 H 0.80799 0.15092 0.16619 0.0
H1040 H 0.72787 0.15388 0.22289 0.0
H1041 H 0.84934 0.14853 0.21672 0.0
H1042 H 0.70282 0.07328 0.19527 0.0
H1043 H 0.70131 0.11554 0.18227 0.0
H1044 H 0.68489 0.1171 0.20502 0.0
H1045 H 0.84774 0.06322 0.18742 0.0
H1046 H 0.87756 0.09867 0.19892 0.0
H1047 H 0.85584 0.10842 0.17738 0.0
C1048 C 0.18855 0.25712 0.41566 0.0
C1049 C 0.16337 0.27324 0.40299 0.0
C1050 C 0.18016 0.25778 0.434 0.0
C1051 C 0.14587 0.27506 0.43976 0.0
C1052 C 0.12205 0.29417 0.42724 0.0
C1053 C 0.13113 0.29307 0.40901 0.0
C1054 C 0.20649 0.2374 0.44694 0.0
C1055 C 0.08536 0.31318 0.43286 0.0
C1056 C 0.09412 0.23258 0.47869 0.0
C1057 C 0.10148 0.25963 0.49254 0.0
C1058 C 0.10926 0.23686 0.46161 0.0
C1059 C 0.13233 0.26905 0.45825 0.0
C1060 C 0.14079 0.29594 0.47227 0.0
C1061 C 0.12523 0.29092 0.48927 0.0
C1062 C 0.09978 0.20735 0.44704 0.0
C1063 C 0.16553 0.3304 0.46919 0.0
H1064 H 0.21366 0.24187 0.41117 0.0
H1065 H 0.1117 0.30594 0.39935 0.0
H1066 H 0.21099 0.2546 0.45951 0.0
H1067 H 0.19326 0.20992 0.4506 0.0
H1068 H 0.23474 0.23118 0.44104 0.0
H1069 H 0.07252 0.33064 0.42202 0.0
H1070 H 0.06437 0.291 0.43643 0.0
H1071 H 0.09043 0.3318 0.44494 0.0
H1072 H 0.07601 0.20819 0.48111 0.0
H1073 H 0.13117 0.3119 0.4999 0.0
H1074 H 0.12644 0.19549 0.44139 0.0
H1075 H 0.08359 0.22092 0.4359 0.0
H1076 H 0.08247 0.18336 0.45201 0.0
H1077 H 0.19311 0.32141 0.4634 0.0
H1078 H 0.17149 0.34726 0.48177 0.0
H1079 H 0.15114 0.34922 0.45935 0.0
C1080 C 0.93794 0.6459 0.64104 0.0
C1081 C 0.92448 0.63111 0.62436 0.0
C1082 C 0.9287 0.62827 0.65711 0.0
C1083 C 0.90511 0.59536 0.65651 0.0
C1084 C 0.88845 0.58265 0.63991 0.0
C1085 C 0.89833 0.60067 0.62404 0.0
C1086 C 0.94701 0.6429 0.67451 0.0
C1087 C 0.8628 0.54793 0.63867 0.0
C1088 C 0.92499 0.5175 0.69008 0.0
C1089 C 0.89467 0.52199 0.70193 0.0
C1090 C 0.92903 0.54173 0.67551 0.0
C1091 C 0.90204 0.57123 0.67263 0.0
C1092 C 0.8718 0.57649 0.68473 0.0
C1093 C 0.86847 0.55181 0.69924 0.0
C1094 C 0.96191 0.53529 0.66301 0.0
C1095 C 0.84268 0.60779 0.68216 0.0
H1096 H 0.95804 0.66951 0.6415 0.0
H1097 H 0.88746 0.58927 0.61126 0.0
H1098 H 0.9263 0.64272 0.68554 0.0
H1099 H 0.97109 0.62389 0.67831 0.0
H1100 H 0.95841 0.67233 0.6733 0.0
H1101 H 0.84811 0.54487 0.62533 0.0
H1102 H 0.88016 0.5219 0.64097 0.0
H1103 H 0.84091 0.54937 0.64919 0.0
H1104 H 0.94551 0.49472 0.69207 0.0
H1105 H 0.845 0.5556 0.70834 0.0
H1106 H 0.97923 0.56174 0.66225 0.0
H1107 H 0.95072 0.52835 0.64925 0.0
H1108 H 0.98094 0.5117 0.66737 0.0
H1109 H 0.85724 0.63584 0.68137 0.0
H1110 H 0.82195 0.60929 0.69321 0.0
H1111 H 0.82664 0.6029 0.66928 0.0
C1112 C 0.66524 0.1153 0.3863 0.0
C1113 C 0.68643 0.08235 0.39014 0.0
C1114 C 0.66951 0.13416 0.37 0.0
C1115 C 0.69545 0.11962 0.35725 0.0
C1116 C 0.71654 0.08614 0.36096 0.0
C1117 C 0.71184 0.06799 0.37734 0.0
C1118 C 0.64661 0.16987 0.36652 0.0
C1119 C 0.74442 0.06963 0.3477 0.0
C1120 C 0.68862 0.14727 0.30819 0.0
C1121 C 0.71834 0.17404 0.30729 0.0
C1122 C 0.68007 0.13008 0.32448 0.0
C1123 C 0.70171 0.13995 0.34023 0.0
C1124 C 0.73102 0.16771 0.33949 0.0
C1125 C 0.73898 0.18438 0.32306 0.0
C1126 C 0.6486 0.10058 0.32474 0.0
C1127 C 0.75475 0.17905 0.35598 0.0
H1128 H 0.64551 0.12657 0.39608 0.0
H1129 H 0.7282 0.04244 0.38011 0.0
H1130 H 0.66621 0.19441 0.36491 0.0
H1131 H 0.62967 0.16639 0.35381 0.0
H1132 H 0.62684 0.17686 0.37757 0.0
H1133 H 0.7578 0.04279 0.35241 0.0
H1134 H 0.72965 0.06365 0.33459 0.0
H1135 H 0.7674 0.09068 0.34536 0.0
H1136 H 0.67246 0.13916 0.2961 0.0
H1137 H 0.76189 0.20516 0.32254 0.0
H1138 H 0.62793 0.10812 0.3353 0.0
H1139 H 0.66091 0.07235 0.32807 0.0
H1140 H 0.63289 0.0978 0.31163 0.0
H1141 H 0.73591 0.18819 0.36705 0.0
H1142 H 0.77501 0.20263 0.35338 0.0
H1143 H 0.77138 0.15409 0.36069 0.0
C1144 C 0.26106 0.18018 0.6313 0.0
C1145 C 0.25235 0.1973 0.64785 0.0
C1146 C 0.23395 0.17931 0.61706 0.0
C1147 C 0.198 0.19711 0.61937 0.0
C1148 C 0.19028 0.21664 0.63575 0.0
C1149 C 0.21753 0.21621 0.64987 0.0
C1150 C 0.24313 0.15819 0.59981 0.0
C1151 C 0.1531 0.23764 0.63844 0.0
C1152 C 0.1346 0.2186 0.57873 0.0
C1153 C 0.10517 0.19181 0.58041 0.0
C1154 C 0.1655 0.2203 0.59111 0.0
C1155 C 0.16759 0.19366 0.6051 0.0
C1156 C 0.13907 0.16504 0.60614 0.0
C1157 C 0.10777 0.16496 0.594 0.0
C1158 C 0.19408 0.25246 0.58999 0.0
C1159 C 0.14035 0.13563 0.62062 0.0
H1160 H 0.2884 0.16605 0.62977 0.0
H1161 H 0.21162 0.23057 0.66254 0.0
H1162 H 0.22169 0.13529 0.59709 0.0
H1163 H 0.24136 0.17778 0.58836 0.0
H1164 H 0.27213 0.14535 0.60025 0.0
H1165 H 0.1527 0.25362 0.6515 0.0
H1166 H 0.14815 0.25804 0.62745 0.0
H1167 H 0.12894 0.21709 0.63791 0.0
H1168 H 0.13217 0.23993 0.56844 0.0
H1169 H 0.0849 0.14439 0.59537 0.0
H1170 H 0.22376 0.24192 0.59177 0.0
H1171 H 0.18903 0.27361 0.60101 0.0
H1172 H 0.19162 0.26732 0.57701 0.0
H1173 H 0.17011 0.12671 0.62364 0.0
H1174 H 0.12317 0.10992 0.61671 0.0
H1175 H 0.12851 0.14818 0.63311 0.0
C1176 C 0.96441 0.53896 0.86486 0.0
C1177 C 0.99975 0.55367 0.87103 0.0
C1178 C 0.96054 0.52046 0.84806 0.0
C1179 C 0.99285 0.5164 0.83711 0.0
C1180 C 0.02867 0.5312 0.84319 0.0
C1181 C 0.03173 0.5497 0.86013 0.0
C1182 C 0.92179 0.50504 0.84208 0.0
C1183 C 0.06369 0.52735 0.83186 0.0
C1184 C 0.9798 0.4346 0.80359 0.0
C1185 C 0.96502 0.45344 0.78853 0.0
C1186 C 0.9918 0.45507 0.8191 0.0
C1187 C 0.98877 0.49536 0.81961 0.0
C1188 C 0.97656 0.51473 0.80401 0.0
C1189 C 0.9649 0.4935 0.7886 0.0
C1190 C 0.005 0.43333 0.83539 0.0
C1191 C 0.97307 0.5577 0.80402 0.0
H1192 H 0.93952 0.54195 0.87315 0.0
H1193 H 0.05909 0.56119 0.86478 0.0
H1194 H 0.91288 0.51756 0.82909 0.0
H1195 H 0.92338 0.47363 0.83992 0.0
H1196 H 0.89938 0.51135 0.85203 0.0
H1197 H 0.08921 0.54124 0.83833 0.0
H1198 H 0.07013 0.49669 0.82935 0.0
H1199 H 0.05828 0.54029 0.81859 0.0
H1200 H 0.98053 0.40365 0.80356 0.0
H1201 H 0.95368 0.50828 0.77698 0.0
H1202 H 0.9826 0.43474 0.84567 0.0
H1203 H 0.03132 0.44636 0.84147 0.0
H1204 H 0.01075 0.4028 0.83208 0.0
H1205 H 0.94823 0.56656 0.8121 0.0
H1206 H 0.96887 0.56866 0.79023 0.0
H1207 H 0.99889 0.57136 0.81029 0.0
C1208 C 0.60068 0.51203 0.13944 0.0
C1209 C 0.5772 0.54439 0.13837 0.0
C1210 C 0.62205 0.49961 0.12478 0.0
C1211 C 0.6207 0.52057 0.10876 0.0
C1212 C 0.59864 0.55438 0.10787 0.0
C1213 C 0.57677 0.56569 0.12264 0.0
C1214 C 0.64481 0.46309 0.1262 0.0
C1215 C 0.59709 0.57792 0.09115 0.0
C1216 C 0.70191 0.49389 0.07833 0.0
C1217 C 0.68417 0.46712 0.06657 0.0
C1218 C 0.68088 0.51384 0.09129 0.0
C1219 C 0.64147 0.50586 0.09287 0.0
C1220 C 0.62305 0.48015 0.08048 0.0
C1221 C 0.64461 0.46143 0.06729 0.0
C1222 C 0.7012 0.54207 0.10384 0.0
C1223 C 0.58119 0.47043 0.08191 0.0
H1224 H 0.60112 0.49529 0.1515 0.0
H1225 H 0.55867 0.59071 0.1217 0.0
H1226 H 0.63427 0.44192 0.11591 0.0
H1227 H 0.67535 0.46862 0.12356 0.0
H1228 H 0.64286 0.45021 0.13964 0.0
H1229 H 0.58394 0.60637 0.09364 0.0
H1230 H 0.6262 0.58206 0.08593 0.0
H1231 H 0.57987 0.56268 0.08053 0.0
H1232 H 0.73245 0.49872 0.07761 0.0
H1233 H 0.63089 0.44067 0.05821 0.0
H1234 H 0.70392 0.52996 0.11744 0.0
H1235 H 0.68445 0.56887 0.10506 0.0
H1236 H 0.73029 0.54909 0.09923 0.0
H1237 H 0.57668 0.45495 0.09452 0.0
H1238 H 0.57054 0.45224 0.07043 0.0
H1239 H 0.56373 0.49682 0.08255 0.0
loop_
_geom_bond_atom_site_label_1
_geom_bond_atom_site_label_2
_geom_bond_distance
_geom_bond_site_symmetry_2
_ccdc_geom_bond_type
Mg0 O7 2.141 . S
Mg0 O8 2.048 . S
Mg0 O9 2.048 . S
Mg0 O12 2.141 . S
C1 O2 1.313 . S
C1 O8 1.195 . S
O2 C1 1.313 . S
C3 O4 1.245 . S
C3 O12 1.289 . S
O4 C3 1.245 . S
C5 O6 1.245 . S
C5 O7 1.289 . S
O6 C5 1.245 . S
O7 Mg0 2.141 . S
O7 C5 1.289 . S
O8 Mg0 2.048 . S
O8 C1 1.195 . S
O9 Mg0 2.048 . S
O9 C10 1.195 . S
C10 O9 1.195 . S
C10 O11 1.313 . S
O11 C10 1.313 . S
O12 Mg0 2.141 . S
O12 C3 1.289 . S
Mg13 O20 2.141 . S
Mg13 O21 2.048 . S
Mg13 O22 2.048 1_455 S
Mg13 O25 2.141 1_455 S
C14 O15 1.313 . S
C14 O21 1.195 . S
O15 C14 1.313 . S
C16 O17 1.245 . S
C16 O25 1.289 1_455 S
O17 C16 1.245 . S
C18 O19 1.245 . S
C18 O20 1.289 . S
O19 C18 1.245 . S
O20 Mg13 2.141 . S
O20 C18 1.289 . S
O21 Mg13 2.048 . S
O21 C14 1.195 . S
O22 Mg13 2.048 1_655 S
O22 C23 1.195 . S
C23 O22 1.195 . S
C23 O24 1.313 1_655 S
O24 C23 1.313 1_455 S
O25 Mg13 2.141 1_655 S
O25 C16 1.289 1_655 S
Mg26 O33 2.141 . S
Mg26 O34 2.048 . S
Mg26 O35 2.048 . S
Mg26 O38 2.141 . S
C27 O28 1.313 . S
C27 O34 1.195 . S
O28 C27 1.313 . S
C29 O30 1.245 . S
C29 O38 1.289 . S
O30 C29 1.245 . S
C31 O32 1.245 . S
C31 O33 1.289 . S
O32 C31 1.245 . S
O33 Mg26 2.141 . S
O33 C31 1.289 . S
O34 Mg26 2.048 . S
O34 C27 1.195 . S
O35 Mg26 2.048 . S
O35 C36 1.195 . S
C36 O35 1.195 . S
C36 O37 1.313 . S
O37 C36 1.313 . S
O38 Mg26 2.141 . S
O38 C29 1.289 . S
Mg39 O46 2.141 . S
Mg39 O47 2.048 . S
Mg39 O48 2.048 1_545 S
Mg39 O51 2.141 1_545 S
C40 O41 1.313 . S
C40 O47 1.195 . S
O41 C40 1.313 . S
C42 O43 1.245 . S
C42 O51 1.289 . S
O43 C42 1.245 . S
C44 O45 1.245 . S
C44 O46 1.289 . S
O45 C44 1.245 . S
O46 Mg39 2.141 . S
O46 C44 1.289 . S
O47 Mg39 2.048 . S
O47 C40 1.195 . S
O48 Mg39 2.048 1_565 S
O48 C49 1.195 . S
C49 O48 1.195 . S
C49 O50 1.313 . S
O50 C49 1.313 . S
O51 Mg39 2.141 1_565 S
O51 C42 1.289 . S
Mg52 O59 2.141 . S
Mg52 O60 2.048 . S
Mg52 O61 2.048 1_455 S
Mg52 O64 2.141 1_455 S
C53 O54 1.313 . S
C53 O60 1.195 . S
O54 C53 1.313 . S
C55 O56 1.245 . S
C55 O64 1.289 . S
O56 C55 1.245 . S
C57 O58 1.245 . S
C57 O59 1.289 . S
O58 C57 1.245 . S
O59 Mg52 2.141 . S
O59 C57 1.289 . S
O60 Mg52 2.048 . S
O60 C53 1.195 . S
O61 Mg52 2.048 1_655 S
O61 C62 1.195 . S
C62 O61 1.195 . S
C62 O63 1.313 . S
O63 C62 1.313 . S
O64 Mg52 2.141 1_655 S
O64 C55 1.289 . S
Mg65 O72 2.141 . S
Mg65 O73 2.048 . S
Mg65 O74 2.048 . S
Mg65 O77 2.141 . S
C66 O67 1.313 . S
C66 O73 1.195 . S
O67 C66 1.313 . S
C68 O69 1.245 . S
C68 O77 1.289 . S
O69 C68 1.245 . S
C70 O71 1.245 . S
C70 O72 1.289 . S
O71 C70 1.245 . S
O72 Mg65 2.141 . S
O72 C70 1.289 . S
O73 Mg65 2.048 . S
O73 C66 1.195 . S
O74 Mg65 2.048 . S
O74 C75 1.195 . S
C75 O74 1.195 . S
C75 O76 1.313 . S
O76 C75 1.313 . S
O77 Mg65 2.141 . S
O77 C68 1.289 . S
Mg78 O85 2.141 1_565 S
Mg78 O86 2.048 1_565 S
Mg78 O87 2.048 . S
Mg78 O90 2.141 . S
C79 O80 1.313 . S
C79 O86 1.195 . S
O80 C79 1.313 . S
C81 O82 1.245 1_565 S
C81 O90 1.289 . S
O82 C81 1.245 1_545 S
C83 O84 1.245 . S
C83 O85 1.289 . S
O84 C83 1.245 . S
O85 Mg78 2.141 1_545 S
O85 C83 1.289 . S
O86 Mg78 2.048 1_545 S
O86 C79 1.195 . S
O87 Mg78 2.048 . S
O87 C88 1.195 . S
C88 O87 1.195 . S
C88 O89 1.292 1_565 S
O89 C88 1.292 1_545 S
O90 Mg78 2.141 . S
O90 C81 1.289 . S
Mg91 O98 2.141 . S
Mg91 O99 2.048 . S
Mg91 O100 2.048 . S
Mg91 O103 2.141 . S
C92 O93 1.313 . S
C92 O99 1.195 . S
O93 C92 1.313 . S
C94 O95 1.245 . S
C94 O103 1.289 . S
O95 C94 1.245 . S
C96 O97 1.245 . S
C96 O98 1.289 . S
O97 C96 1.245 . S
O98 Mg91 2.141 . S
O98 C96 1.289 . S
O99 Mg91 2.048 . S
O99 C92 1.195 . S
O100 Mg91 2.048 . S
O100 C101 1.195 . S
C101 O100 1.195 . S
C101 O102 1.313 . S
O102 C101 1.313 . S
O103 Mg91 2.141 . S
O103 C94 1.289 . S
Zn104 O107 2.031 . S
Zn104 O109 2.049 1_556 S
Zn104 O114 2.067 . S
Zn105 O106 1.962 . S
Zn105 O108 1.986 . S
Zn105 O110 1.996 . S
Zn105 O113 1.943 . S
O106 Zn105 1.962 . S
O106 C111 1.254 . S
O107 Zn104 2.031 . S
O107 C111 1.269 1_556 S
O108 Zn105 1.986 . S
O108 C115 1.262 . S
O109 Zn104 2.049 1_554 S
O109 C117 1.260 . S
O110 Zn105 1.996 . S
O110 C117 1.257 . S
C111 O106 1.254 . S
C111 O107 1.269 1_554 S
C112 O113 1.249 1_556 S
C112 O114 1.270 . S
O113 Zn105 1.943 . S
O113 C112 1.249 1_554 S
O114 Zn104 2.067 . S
O114 C112 1.270 . S
C115 O108 1.262 . S
C115 O116 1.232 . S
O116 C115 1.232 . S
C117 O109 1.260 . S
C117 O110 1.257 . S
Zn118 O121 2.031 . S
Zn118 O123 2.049 . S
Zn118 O128 2.067 . S
Zn119 O120 1.962 . S
Zn119 O122 1.986 . S
Zn119 O124 1.996 . S
Zn119 O127 1.943 . S
O120 Zn119 1.962 . S
O120 C125 1.254 . S
O121 Zn118 2.031 . S
O121 C125 1.269 . S
O122 Zn119 1.986 . S
O122 C129 1.262 . S
O123 Zn118 2.049 . S
O123 C131 1.260 . S
O124 Zn119 1.996 . S
O124 C131 1.257 . S
C125 O120 1.254 . S
C125 O121 1.269 . S
C126 O127 1.249 . S
C126 O128 1.270 . S
O127 Zn119 1.943 . S
O127 C126 1.249 . S
O128 Zn118 2.067 . S
O128 C126 1.270 . S
C129 O122 1.262 . S
C129 O130 1.232 . S
O130 C129 1.232 . S
C131 O123 1.260 . S
C131 O124 1.257 . S
Zn132 O135 2.031 . S
Zn132 O137 2.049 . S
Zn132 O142 2.067 . S
Zn133 O134 1.962 . S
Zn133 O136 1.986 . S
Zn133 O138 1.996 . S
Zn133 O141 1.943 . S
O134 Zn133 1.962 . S
O134 C139 1.254 . S
O135 Zn132 2.031 . S
O135 C139 1.269 . S
O136 Zn133 1.986 . S
O136 C143 1.262 . S
O137 Zn132 2.049 . S
O137 C145 1.260 . S
O138 Zn133 1.996 . S
O138 C145 1.257 . S
C139 O134 1.254 . S
C139 O135 1.269 . S
C140 O141 1.249 . S
C140 O142 1.270 . S
O141 Zn133 1.943 . S
O141 C140 1.249 . S
O142 Zn132 2.067 . S
O142 C140 1.270 . S
C143 O136 1.262 . S
C143 O144 1.232 . S
O144 C143 1.232 . S
C145 O137 1.260 . S
C145 O138 1.257 . S
Zn146 O149 2.031 . S
Zn146 O151 2.049 . S
Zn146 O156 2.067 . S
Zn147 O148 1.962 . S
Zn147 O150 1.986 . S
Zn147 O152 1.996 . S
Zn147 O155 1.943 . S
O148 Zn147 1.962 . S
O148 C153 1.254 . S
O149 Zn146 2.031 . S
O149 C153 1.269 . S
O150 Zn147 1.986 . S
O150 C157 1.262 . S
O151 Zn146 2.049 . S
O151 C159 1.260 . S
O152 Zn147 1.996 . S
O152 C159 1.257 . S
C153 O148 1.254 . S
C153 O149 1.269 . S
C154 O155 1.249 . S
C154 O156 1.270 . S
O155 Zn147 1.943 . S
O155 C154 1.249 . S
O156 Zn146 2.067 . S
O156 C154 1.270 . S
C157 O150 1.262 . S
C157 O158 1.232 . S
O158 C157 1.232 . S
C159 O151 1.260 . S
C159 O152 1.257 . S
Zn160 O163 2.031 . S
Zn160 O165 2.049 . S
Zn160 O170 2.067 . S
Zn161 O162 1.962 . S
Zn161 O164 1.986 . S
Zn161 O166 1.996 . S
Zn161 O169 1.943 . S
O162 Zn161 1.962 . S
O162 C167 1.254 . S
O163 Zn160 2.031 . S
O163 C167 1.269 . S
O164 Zn161 1.986 . S
O164 C171 1.262 1_655 S
O165 Zn160 2.049 . S
O165 C173 1.260 . S
O166 Zn161 1.996 . S
O166 C173 1.257 . S
C167 O162 1.254 . S
C167 O163 1.269 . S
C168 O169 1.249 . S
C168 O170 1.270 . S
O169 Zn161 1.943 . S
O169 C168 1.249 . S
O170 Zn160 2.067 . S
O170 C168 1.270 . S
C171 O164 1.262 1_455 S
C171 O172 1.232 . S
O172 C171 1.232 . S
C173 O165 1.260 . S
C173 O166 1.257 . S
Zn174 O177 2.031 . S
Zn174 O179 2.049 . S
Zn174 O184 2.067 . S
Zn175 O176 1.962 . S
Zn175 O178 1.986 . S
Zn175 O180 1.996 . S
Zn175 O183 1.943 . S
O176 Zn175 1.962 . S
O176 C181 1.254 . S
O177 Zn174 2.031 . S
O177 C181 1.269 . S
O178 Zn175 1.986 . S
O178 C185 1.262 . S
O179 Zn174 2.049 . S
O179 C187 1.260 . S
O180 Zn175 1.996 . S
O180 C187 1.257 . S
C181 O176 1.254 . S
C181 O177 1.269 . S
C182 O183 1.249 . S
C182 O184 1.270 . S
O183 Zn175 1.943 . S
O183 C182 1.249 . S
O184 Zn174 2.067 . S
O184 C182 1.270 . S
C185 O178 1.262 . S
C185 O186 1.232 . S
O186 C185 1.232 . S
C187 O179 1.260 . S
C187 O180 1.257 . S
Zn188 O191 2.031 . S
Zn188 O193 2.049 . S
Zn188 O198 2.067 . S
Zn189 O190 1.962 . S
Zn189 O192 1.986 . S
Zn189 O194 1.996 . S
Zn189 O197 1.943 1_556 S
O190 Zn189 1.962 . S
O190 C195 1.254 1_556 S
O191 Zn188 2.031 . S
O191 C195 1.269 . S
O192 Zn189 1.986 . S
O192 C199 1.262 . S
O193 Zn188 2.049 . S
O193 C201 1.260 . S
O194 Zn189 1.996 . S
O194 C201 1.257 1_556 S
C195 O190 1.254 1_554 S
C195 O191 1.269 . S
C196 O197 1.249 . S
C196 O198 1.270 . S
O197 Zn189 1.943 1_554 S
O197 C196 1.249 . S
O198 Zn188 2.067 . S
O198 C196 1.270 . S
C199 O192 1.262 . S
C199 O200 1.232 . S
O200 C199 1.232 . S
C201 O193 1.260 . S
C201 O194 1.257 1_554 S
Zn202 O205 2.031 . S
Zn202 O207 2.049 . S
Zn202 O212 2.067 . S
Zn203 O204 1.962 . S
Zn203 O206 1.986 . S
Zn203 O208 1.996 . S
Zn203 O211 1.943 . S
O204 Zn203 1.962 . S
O204 C209 1.254 . S
O205 Zn202 2.031 . S
O205 C209 1.269 . S
O206 Zn203 1.986 . S
O206 C213 1.262 . S
O207 Zn202 2.049 . S
O207 C215 1.260 . S
O208 Zn203 1.996 . S
O208 C215 1.257 . S
C209 O204 1.254 . S
C209 O205 1.269 . S
C210 O211 1.249 . S
C210 O212 1.270 . S
O211 Zn203 1.943 . S
O211 C210 1.249 . S
O212 Zn202 2.067 . S
O212 C210 1.270 . S
C213 O206 1.262 . S
C213 O214 1.232 . S
O214 C213 1.232 . S
C215 O207 1.260 . S
C215 O208 1.257 . S
C216 C217 1.391 . S
C216 C218 1.394 . S
C216 H232 0.931 . S
C217 C216 1.391 . S
C217 C221 1.376 . S
C218 C216 1.394 . S
C218 C219 1.369 . S
C218 C222 1.531 1_545 S
C219 C218 1.369 . S
C219 C220 1.410 . S
C219 C227 1.503 1_545 S
C220 C219 1.410 . S
C220 C221 1.392 . S
C220 C223 1.511 . S
C221 C217 1.376 . S
C221 C220 1.392 . S
C221 H233 0.929 . S
C222 C218 1.531 1_565 S
C222 H234 0.960 . S
C222 H235 0.962 . S
C222 H236 0.960 . S
C223 C220 1.511 . S
C223 H237 0.961 . S
C223 H238 0.961 . S
C223 H239 0.961 . S
C224 C225 1.370 . S
C224 C226 1.363 . S
C224 H240 0.931 . S
C225 C224 1.370 . S
C225 C229 1.408 . S
C226 C224 1.363 . S
C226 C227 1.370 . S
C226 C230 1.524 . S
C227 C219 1.503 1_565 S
C227 C226 1.370 . S
C227 C228 1.403 . S
C228 C227 1.403 . S
C228 C229 1.404 . S
C228 C231 1.539 1_565 S
C229 C225 1.408 . S
C229 C228 1.404 . S
C229 H241 0.930 . S
C230 C226 1.524 . S
C230 H242 0.956 . S
C230 H243 0.961 . S
C230 H244 0.961 . S
C231 C228 1.539 1_545 S
C231 H245 0.958 . S
C231 H246 0.961 . S
C231 H247 0.960 . S
H232 C216 0.931 . S
H233 C221 0.929 . S
H234 C222 0.960 . S
H235 C222 0.962 . S
H236 C222 0.960 . S
H237 C223 0.961 . S
H238 C223 0.961 . S
H239 C223 0.961 . S
H240 C224 0.931 . S
H241 C229 0.930 . S
H242 C230 0.956 . S
H243 C230 0.961 . S
H244 C230 0.961 . S
H245 C231 0.958 . S
H246 C231 0.961 . S
H247 C231 0.960 . S
C248 C249 1.391 . S
C248 C250 1.394 . S
C248 H264 0.931 . S
C249 C248 1.391 . S
C249 C253 1.376 . S
C250 C248 1.394 . S
C250 C251 1.369 . S
C250 C254 1.531 . S
C251 C250 1.369 . S
C251 C252 1.410 . S
C251 C259 1.503 . S
C252 C251 1.410 . S
C252 C253 1.392 . S
C252 C255 1.511 . S
C253 C249 1.376 . S
C253 C252 1.392 . S
C253 H265 0.929 . S
C254 C250 1.531 . S
C254 H266 0.960 . S
C254 H267 0.962 . S
C254 H268 0.960 . S
C255 C252 1.511 . S
C255 H269 0.961 . S
C255 H270 0.961 . S
C255 H271 0.961 . S
C256 C257 1.370 . S
C256 C258 1.363 . S
C256 H272 0.931 . S
C257 C256 1.370 . S
C257 C261 1.408 . S
C258 C256 1.363 . S
C258 C259 1.370 . S
C258 C262 1.524 . S
C259 C251 1.503 . S
C259 C258 1.370 . S
C259 C260 1.403 . S
C260 C259 1.403 . S
C260 C261 1.404 . S
C260 C263 1.539 . S
C261 C257 1.408 . S
C261 C260 1.404 . S
C261 H273 0.930 . S
C262 C258 1.524 . S
C262 H274 0.956 . S
C262 H275 0.961 . S
C262 H276 0.961 . S
C263 C260 1.539 . S
C263 H277 0.958 . S
C263 H278 0.961 . S
C263 H279 0.960 . S
H264 C248 0.931 . S
H265 C253 0.929 . S
H266 C254 0.960 . S
H267 C254 0.962 . S
H268 C254 0.960 . S
H269 C255 0.961 . S
H270 C255 0.961 . S
H271 C255 0.961 . S
H272 C256 0.931 . S
H273 C261 0.930 . S
H274 C262 0.956 . S
H275 C262 0.961 . S
H276 C262 0.961 . S
H277 C263 0.958 . S
H278 C263 0.961 . S
H279 C263 0.960 . S
C280 C281 1.391 . S
C280 C282 1.394 . S
C280 H296 0.931 . S
C281 C280 1.391 . S
C281 C285 1.376 . S
C282 C280 1.394 . S
C282 C283 1.369 . S
C282 C286 1.531 . S
C283 C282 1.369 . S
C283 C284 1.410 . S
C283 C291 1.503 . S
C284 C283 1.410 . S
C284 C285 1.392 . S
C284 C287 1.511 . S
C285 C281 1.376 . S
C285 C284 1.392 . S
C285 H297 0.929 . S
C286 C282 1.531 . S
C286 H298 0.960 . S
C286 H299 0.962 . S
C286 H300 0.960 . S
C287 C284 1.511 . S
C287 H301 0.961 . S
C287 H302 0.961 . S
C287 H303 0.961 . S
C288 C289 1.370 . S
C288 C290 1.363 . S
C288 H304 0.931 . S
C289 C288 1.370 . S
C289 C293 1.408 . S
C290 C288 1.363 . S
C290 C291 1.370 . S
C290 C294 1.524 . S
C291 C283 1.503 . S
C291 C290 1.370 . S
C291 C292 1.403 . S
C292 C291 1.403 . S
C292 C293 1.404 . S
C292 C295 1.539 . S
C293 C289 1.408 . S
C293 C292 1.404 . S
C293 H305 0.930 . S
C294 C290 1.524 . S
C294 H306 0.956 . S
C294 H307 0.961 . S
C294 H308 0.961 . S
C295 C292 1.539 . S
C295 H309 0.958 . S
C295 H310 0.961 . S
C295 H311 0.960 . S
H296 C280 0.931 . S
H297 C285 0.929 . S
H298 C286 0.960 . S
H299 C286 0.962 . S
H300 C286 0.960 . S
H301 C287 0.961 . S
H302 C287 0.961 . S
H303 C287 0.961 . S
H304 C288 0.931 . S
H305 C293 0.930 . S
H306 C294 0.956 . S
H307 C294 0.961 . S
H308 C294 0.961 . S
H309 C295 0.958 . S
H310 C295 0.961 . S
H311 C295 0.960 . S
C312 C313 1.391 . S
C312 C314 1.394 . S
C312 H328 0.931 . S
C313 C312 1.391 . S
C313 C317 1.376 . S
C314 C312 1.394 . S
C314 C315 1.369 . S
C314 C318 1.531 . S
C315 C314 1.369 . S
C315 C316 1.410 . S
C315 C323 1.503 . S
C316 C315 1.410 . S
C316 C317 1.392 . S
C316 C319 1.511 . S
C317 C313 1.376 . S
C317 C316 1.392 . S
C317 H329 0.929 . S
C318 C314 1.531 . S
C318 H330 0.960 . S
C318 H331 0.962 . S
C318 H332 0.960 . S
C319 C316 1.511 . S
C319 H333 0.961 . S
C319 H334 0.961 . S
C319 H335 0.961 . S
C320 C321 1.370 . S
C320 C322 1.363 . S
C320 H336 0.931 . S
C321 C320 1.370 . S
C321 C325 1.408 . S
C322 C320 1.363 . S
C322 C323 1.370 . S
C322 C326 1.524 . S
C323 C315 1.503 . S
C323 C322 1.370 . S
C323 C324 1.403 . S
C324 C323 1.403 . S
C324 C325 1.404 . S
C324 C327 1.539 . S
C325 C321 1.408 . S
C325 C324 1.404 . S
C325 H337 0.930 . S
C326 C322 1.524 . S
C326 H338 0.956 . S
C326 H339 0.961 . S
C326 H340 0.961 . S
C327 C324 1.539 . S
C327 H341 0.958 . S
C327 H342 0.961 . S
C327 H343 0.960 . S
H328 C312 0.931 . S
H329 C317 0.929 . S
H330 C318 0.960 . S
H331 C318 0.962 . S
H332 C318 0.960 . S
H333 C319 0.961 . S
H334 C319 0.961 . S
H335 C319 0.961 . S
H336 C320 0.931 . S
H337 C325 0.930 . S
H338 C326 0.956 . S
H339 C326 0.961 . S
H340 C326 0.961 . S
H341 C327 0.958 . S
H342 C327 0.961 . S
H343 C327 0.960 . S
C344 C345 1.391 . S
C344 C346 1.394 . S
C344 H360 0.931 . S
C345 C344 1.391 . S
C345 C349 1.376 . S
C346 C344 1.394 . S
C346 C347 1.369 . S
C346 C350 1.531 . S
C347 C346 1.369 . S
C347 C348 1.410 . S
C347 C355 1.503 . S
C348 C347 1.410 . S
C348 C349 1.392 . S
C348 C351 1.511 . S
C349 C345 1.376 . S
C349 C348 1.392 . S
C349 H361 0.929 . S
C350 C346 1.531 . S
C350 H362 0.960 . S
C350 H363 0.962 . S
C350 H364 0.960 . S
C351 C348 1.511 . S
C351 H365 0.961 1_556 S
C351 H366 0.961 1_556 S
C351 H367 0.961 . S
C352 C353 1.370 . S
C352 C354 1.363 . S
C352 H368 0.931 . S
C353 C352 1.370 . S
C353 C357 1.408 1_554 S
C354 C352 1.363 . S
C354 C355 1.370 1_554 S
C354 C358 1.524 . S
C355 C347 1.503 . S
C355 C354 1.370 1_556 S
C355 C356 1.403 . S
C356 C355 1.403 . S
C356 C357 1.404 . S
C356 C359 1.539 . S
C357 C353 1.408 1_556 S
C357 C356 1.404 . S
C357 H369 0.930 . S
C358 C354 1.524 . S
C358 H370 0.956 . S
C358 H371 0.961 . S
C358 H372 0.961 . S
C359 C356 1.539 . S
C359 H373 0.958 . S
C359 H374 0.961 . S
C359 H375 0.960 . S
H360 C344 0.931 . S
H361 C349 0.929 . S
H362 C350 0.960 . S
H363 C350 0.962 . S
H364 C350 0.960 . S
H365 C351 0.961 1_554 S
H366 C351 0.961 1_554 S
H367 C351 0.961 . S
H368 C352 0.931 . S
H369 C357 0.930 . S
H370 C358 0.956 . S
H371 C358 0.961 . S
H372 C358 0.961 . S
H373 C359 0.958 . S
H374 C359 0.961 . S
H375 C359 0.960 . S
C376 C377 1.391 . S
C376 C378 1.394 . S
C376 H392 0.931 . S
C377 C376 1.391 . S
C377 C381 1.376 . S
C378 C376 1.394 . S
C378 C379 1.369 . S
C378 C382 1.531 . S
C379 C378 1.369 . S
C379 C380 1.410 . S
C379 C387 1.503 . S
C380 C379 1.410 . S
C380 C381 1.392 . S
C380 C383 1.511 . S
C381 C377 1.376 . S
C381 C380 1.392 . S
C381 H393 0.929 . S
C382 C378 1.531 . S
C382 H394 0.960 . S
C382 H395 0.962 . S
C382 H396 0.960 . S
C383 C380 1.511 . S
C383 H397 0.961 . S
C383 H398 0.961 . S
C383 H399 0.961 . S
C384 C385 1.370 . S
C384 C386 1.363 . S
C384 H400 0.931 . S
C385 C384 1.370 . S
C385 C389 1.408 . S
C386 C384 1.363 . S
C386 C387 1.370 . S
C386 C390 1.524 . S
C387 C379 1.503 . S
C387 C386 1.370 . S
C387 C388 1.403 . S
C388 C387 1.403 . S
C388 C389 1.404 . S
C388 C391 1.539 . S
C389 C385 1.408 . S
C389 C388 1.404 . S
C389 H401 0.930 . S
C390 C386 1.524 . S
C390 H402 0.956 . S
C390 H403 0.961 . S
C390 H404 0.961 . S
C391 C388 1.539 . S
C391 H405 0.958 . S
C391 H406 0.961 . S
C391 H407 0.960 . S
H392 C376 0.931 . S
H393 C381 0.929 . S
H394 C382 0.960 . S
H395 C382 0.962 . S
H396 C382 0.960 . S
H397 C383 0.961 . S
H398 C383 0.961 . S
H399 C383 0.961 . S
H400 C384 0.931 . S
H401 C389 0.930 . S
H402 C390 0.956 . S
H403 C390 0.961 . S
H404 C390 0.961 . S
H405 C391 0.958 . S
H406 C391 0.961 . S
H407 C391 0.960 . S
C408 C409 1.391 . S
C408 C410 1.394 . S
C408 H424 0.931 . S
C409 C408 1.391 . S
C409 C413 1.376 . S
C410 C408 1.394 . S
C410 C411 1.369 . S
C410 C414 1.531 . S
C411 C410 1.369 . S
C411 C412 1.410 . S
C411 C419 1.503 . S
C412 C411 1.410 . S
C412 C413 1.392 . S
C412 C415 1.511 . S
C413 C409 1.376 . S
C413 C412 1.392 . S
C413 H425 0.929 . S
C414 C410 1.531 . S
C414 H426 0.960 . S
C414 H427 0.962 . S
C414 H428 0.960 . S
C415 C412 1.511 . S
C415 H429 0.961 . S
C415 H430 0.961 . S
C415 H431 0.961 . S
C416 C417 1.370 . S
C416 C418 1.363 . S
C416 H432 0.931 . S
C417 C416 1.370 . S
C417 C421 1.408 . S
C418 C416 1.363 . S
C418 C419 1.370 . S
C418 C422 1.524 . S
C419 C411 1.503 . S
C419 C418 1.370 . S
C419 C420 1.403 . S
C420 C419 1.403 . S
C420 C421 1.404 . S
C420 C423 1.539 1_565 S
C421 C417 1.408 . S
C421 C420 1.404 . S
C421 H433 0.930 . S
C422 C418 1.524 . S
C422 H434 0.956 . S
C422 H435 0.961 . S
C422 H436 0.961 . S
C423 C420 1.539 1_545 S
C423 H437 0.958 . S
C423 H438 0.961 . S
C423 H439 0.960 . S
H424 C408 0.931 . S
H425 C413 0.929 . S
H426 C414 0.960 . S
H427 C414 0.962 . S
H428 C414 0.960 . S
H429 C415 0.961 . S
H430 C415 0.961 . S
H431 C415 0.961 . S
H432 C416 0.931 . S
H433 C421 0.930 . S
H434 C422 0.956 . S
H435 C422 0.961 . S
H436 C422 0.961 . S
H437 C423 0.958 . S
H438 C423 0.961 . S
H439 C423 0.960 . S
C440 C441 1.391 . S
C440 C442 1.394 . S
C440 H456 0.931 . S
C441 C440 1.391 . S
C441 C445 1.376 . S
C442 C440 1.394 . S
C442 C443 1.369 . S
C442 C446 1.531 . S
C443 C442 1.369 . S
C443 C444 1.410 . S
C443 C451 1.503 1_545 S
C444 C443 1.410 . S
C444 C445 1.392 . S
C444 C447 1.511 . S
C445 C441 1.376 . S
C445 C444 1.392 . S
C445 H457 0.929 . S
C446 C442 1.531 . S
C446 H458 0.967 . S
C446 H459 0.962 1_545 S
C446 H460 0.960 . S
C447 C444 1.511 . S
C447 H461 0.961 . S
C447 H462 0.961 . S
C447 H463 0.961 . S
C448 C449 1.370 . S
C448 C450 1.363 . S
C448 H464 0.931 . S
C449 C448 1.370 . S
C449 C453 1.408 . S
C450 C448 1.363 . S
C450 C451 1.370 . S
C450 C454 1.524 . S
C451 C443 1.503 1_565 S
C451 C450 1.370 . S
C451 C452 1.403 . S
C452 C451 1.403 . S
C452 C453 1.404 . S
C452 C455 1.539 1_565 S
C453 C449 1.408 . S
C453 C452 1.404 . S
C453 H465 0.930 . S
C454 C450 1.524 . S
C454 H466 0.956 . S
C454 H467 0.961 . S
C454 H468 0.961 . S
C455 C452 1.539 1_545 S
C455 H469 0.958 . S
C455 H470 0.961 . S
C455 H471 0.960 . S
H456 C440 0.931 . S
H457 C445 0.929 . S
H458 C446 0.967 . S
H459 C446 0.962 1_565 S
H460 C446 0.960 . S
H461 C447 0.961 . S
H462 C447 0.961 . S
H463 C447 0.961 . S
H464 C448 0.931 . S
H465 C453 0.930 . S
H466 C454 0.956 . S
H467 C454 0.961 . S
H468 C454 0.961 . S
H469 C455 0.958 . S
H470 C455 0.961 . S
H471 C455 0.960 . S
C472 C473 1.391 . S
C472 C474 1.394 . S
C472 H488 0.931 . S
C473 C472 1.391 . S
C473 C477 1.376 . S
C474 C472 1.394 . S
C474 C475 1.369 . S
C474 C478 1.531 . S
C475 C474 1.369 . S
C475 C476 1.410 . S
C475 C483 1.503 . S
C476 C475 1.410 . S
C476 C477 1.392 . S
C476 C479 1.511 . S
C477 C473 1.376 . S
C477 C476 1.392 . S
C477 H489 0.929 . S
C478 C474 1.531 . S
C478 H490 0.960 . S
C478 H491 0.962 . S
C478 H492 0.960 . S
C479 C476 1.511 . S
C479 H493 0.961 . S
C479 H494 0.961 . S
C479 H495 0.961 . S
C480 C481 1.370 . S
C480 C482 1.363 . S
C480 H496 0.931 . S
C481 C480 1.370 . S
C481 C485 1.408 . S
C482 C480 1.363 . S
C482 C483 1.370 . S
C482 C486 1.524 . S
C483 C475 1.503 . S
C483 C482 1.370 . S
C483 C484 1.403 . S
C484 C483 1.403 . S
C484 C485 1.404 . S
C484 C487 1.539 . S
C485 C481 1.408 . S
C485 C484 1.404 . S
C485 H497 0.930 . S
C486 C482 1.524 . S
C486 H498 0.956 . S
C486 H499 0.961 . S
C486 H500 0.961 . S
C487 C484 1.539 . S
C487 H501 0.958 . S
C487 H502 0.961 . S
C487 H503 0.960 . S
H488 C472 0.931 . S
H489 C477 0.929 . S
H490 C478 0.960 . S
H491 C478 0.962 . S
H492 C478 0.960 . S
H493 C479 0.961 . S
H494 C479 0.961 . S
H495 C479 0.961 . S
H496 C480 0.931 . S
H497 C485 0.930 . S
H498 C486 0.956 . S
H499 C486 0.961 . S
H500 C486 0.961 . S
H501 C487 0.958 . S
H502 C487 0.961 . S
H503 C487 0.960 . S
C504 C505 1.391 . S
C504 C506 1.394 . S
C504 H520 0.931 . S
C505 C504 1.391 . S
C505 C509 1.376 . S
C506 C504 1.394 . S
C506 C507 1.369 . S
C506 C510 1.531 . S
C507 C506 1.369 . S
C507 C508 1.410 . S
C507 C515 1.503 . S
C508 C507 1.410 . S
C508 C509 1.392 . S
C508 C511 1.511 . S
C509 C505 1.376 . S
C509 C508 1.392 . S
C509 H521 0.929 . S
C510 C506 1.531 . S
C510 H522 0.960 . S
C510 H523 0.962 . S
C510 H524 0.960 . S
C511 C508 1.511 . S
C511 H525 0.961 . S
C511 H526 0.961 . S
C511 H527 0.961 . S
C512 C513 1.370 . S
C512 C514 1.363 . S
C512 H528 0.931 . S
C513 C512 1.370 . S
C513 C517 1.408 . S
C514 C512 1.363 . S
C514 C515 1.370 . S
C514 C518 1.524 . S
C515 C507 1.503 . S
C515 C514 1.370 . S
C515 C516 1.403 . S
C516 C515 1.403 . S
C516 C517 1.404 . S
C516 C519 1.539 . S
C517 C513 1.408 . S
C517 C516 1.404 . S
C517 H529 0.888 1_554 S
C518 C514 1.524 . S
C518 H530 0.956 . S
C518 H531 0.961 . S
C518 H532 0.961 . S
C519 C516 1.539 . S
C519 H533 0.958 . S
C519 H534 0.961 . S
C519 H535 0.960 . S
H520 C504 0.931 . S
H521 C509 0.929 . S
H522 C510 0.960 . S
H523 C510 0.962 . S
H524 C510 0.960 . S
H525 C511 0.961 . S
H526 C511 0.961 . S
H527 C511 0.961 . S
H528 C512 0.931 . S
H529 C517 0.888 1_556 S
H530 C518 0.956 . S
H531 C518 0.961 . S
H532 C518 0.961 . S
H533 C519 0.958 . S
H534 C519 0.961 . S
H535 C519 0.960 . S
C536 C537 1.391 . S
C536 C538 1.394 . S
C536 H552 0.931 . S
C537 C536 1.391 . S
C537 C541 1.376 . S
C538 C536 1.394 . S
C538 C539 1.369 . S
C538 C542 1.531 . S
C539 C538 1.369 . S
C539 C540 1.410 . S
C539 C547 1.503 . S
C540 C539 1.410 . S
C540 C541 1.392 . S
C540 C543 1.511 . S
C541 C537 1.376 . S
C541 C540 1.392 . S
C541 H553 0.929 . S
C542 C538 1.531 . S
C542 H554 0.960 . S
C542 H555 0.962 . S
C542 H556 0.960 . S
C543 C540 1.511 . S
C543 H557 0.961 . S
C543 H558 0.961 . S
C543 H559 0.961 . S
C544 C545 1.370 . S
C544 C546 1.363 . S
C544 H560 0.931 . S
C545 C544 1.370 . S
C545 C549 1.408 . S
C546 C544 1.363 . S
C546 C547 1.370 1_655 S
C546 C550 1.524 . S
C547 C539 1.503 . S
C547 C546 1.370 1_455 S
C547 C548 1.403 . S
C548 C547 1.403 . S
C548 C549 1.404 1_455 S
C548 C551 1.539 . S
C549 C545 1.408 . S
C549 C548 1.404 1_655 S
C549 H561 0.930 . S
C550 C546 1.524 . S
C550 H562 0.956 . S
C550 H563 0.961 1_655 S
C550 H564 0.961 . S
C551 C548 1.539 . S
C551 H565 0.958 . S
C551 H566 0.961 . S
C551 H567 0.960 . S
H552 C536 0.931 . S
H553 C541 0.929 . S
H554 C542 0.960 . S
H555 C542 0.962 . S
H556 C542 0.960 . S
H557 C543 0.961 . S
H558 C543 0.961 . S
H559 C543 0.961 . S
H560 C544 0.931 . S
H561 C549 0.930 . S
H562 C550 0.956 . S
H563 C550 0.961 1_455 S
H564 C550 0.961 . S
H565 C551 0.958 . S
H566 C551 0.961 . S
H567 C551 0.960 . S
C568 C569 1.391 1_455 S
C568 C570 1.394 . S
C568 H584 0.931 . S
C569 C568 1.391 1_655 S
C569 C573 1.376 . S
C570 C568 1.394 . S
C570 C571 1.369 1_455 S
C570 C574 1.531 . S
C571 C570 1.369 1_655 S
C571 C572 1.410 . S
C571 C579 1.503 . S
C572 C571 1.410 . S
C572 C573 1.392 . S
C572 C575 1.511 . S
C573 C569 1.376 . S
C573 C572 1.392 . S
C573 H585 0.929 . S
C574 C570 1.531 . S
C574 H586 0.960 . S
C574 H587 0.962 . S
C574 H588 0.960 . S
C575 C572 1.511 . S
C575 H589 0.961 . S
C575 H590 0.961 . S
C575 H591 0.961 . S
C576 C577 1.370 . S
C576 C578 1.363 . S
C576 H592 0.931 . S
C577 C576 1.370 . S
C577 C581 1.408 . S
C578 C576 1.363 . S
C578 C579 1.370 . S
C578 C582 1.524 1_655 S
C579 C571 1.503 . S
C579 C578 1.370 . S
C579 C580 1.403 . S
C580 C579 1.403 . S
C580 C581 1.404 . S
C580 C583 1.539 . S
C581 C577 1.408 . S
C581 C580 1.404 . S
C581 H593 0.930 . S
C582 C578 1.524 1_455 S
C582 H594 0.956 . S
C582 H595 0.961 1_455 S
C582 H596 0.961 . S
C583 C580 1.539 . S
C583 H597 0.958 . S
C583 H598 0.961 . S
C583 H599 0.960 . S
H584 C568 0.931 . S
H585 C573 0.929 . S
H586 C574 0.960 . S
H587 C574 0.962 . S
H588 C574 0.960 . S
H589 C575 0.961 . S
H590 C575 0.961 . S
H591 C575 0.961 . S
H592 C576 0.931 . S
H593 C581 0.930 . S
H594 C582 0.956 . S
H595 C582 0.961 1_655 S
H596 C582 0.961 . S
H597 C583 0.958 . S
H598 C583 0.961 . S
H599 C583 0.960 . S
C600 C601 1.391 . S
C600 C602 1.394 . S
C600 H616 0.931 . S
C601 C600 1.391 . S
C601 C605 1.376 . S
C602 C600 1.394 . S
C602 C603 1.369 . S
C602 C606 1.531 . S
C603 C602 1.369 . S
C603 C604 1.410 . S
C603 C611 1.503 . S
C604 C603 1.410 . S
C604 C605 1.392 . S
C604 C607 1.511 . S
C605 C601 1.376 . S
C605 C604 1.392 . S
C605 H617 0.929 . S
C606 C602 1.531 . S
C606 H618 0.960 . S
C606 H619 0.962 . S
C606 H620 0.960 . S
C607 C604 1.511 . S
C607 H621 0.961 . S
C607 H622 0.961 . S
C607 H623 0.961 . S
C608 C609 1.370 . S
C608 C610 1.363 . S
C608 H624 0.931 . S
C609 C608 1.370 . S
C609 C613 1.408 . S
C610 C608 1.363 . S
C610 C611 1.370 . S
C610 C614 1.524 . S
C611 C603 1.503 . S
C611 C610 1.370 . S
C611 C612 1.403 . S
C612 C611 1.403 . S
C612 C613 1.404 . S
C612 C615 1.539 . S
C613 C609 1.408 . S
C613 C612 1.404 . S
C613 H625 0.930 . S
C614 C610 1.524 . S
C614 H626 0.956 . S
C614 H627 0.961 . S
C614 H628 0.961 . S
C615 C612 1.539 . S
C615 H629 0.958 . S
C615 H630 0.961 . S
C615 H631 0.960 . S
H616 C600 0.931 . S
H617 C605 0.929 . S
H618 C606 0.960 . S
H619 C606 0.962 . S
H620 C606 0.960 . S
H621 C607 0.961 . S
H622 C607 0.961 . S
H623 C607 0.961 . S
H624 C608 0.931 . S
H625 C613 0.930 . S
H626 C614 0.956 . S
H627 C614 0.961 . S
H628 C614 0.961 . S
H629 C615 0.958 . S
H630 C615 0.961 . S
H631 C615 0.960 . S
C632 C633 1.391 . S
C632 C634 1.394 . S
C632 H648 0.931 . S
C633 C632 1.391 . S
C633 C637 1.376 . S
C634 C632 1.394 . S
C634 C635 1.369 . S
C634 C638 1.531 1_455 S
C635 C634 1.369 . S
C635 C636 1.410 . S
C635 C643 1.503 1_455 S
C636 C635 1.410 . S
C636 C637 1.392 . S
C636 C639 1.511 . S
C637 C633 1.376 . S
C637 C636 1.392 . S
C637 H649 0.929 . S
C638 C634 1.531 1_655 S
C638 H650 0.960 . S
C638 H651 0.962 . S
C638 H652 0.960 . S
C639 C636 1.511 . S
C639 H653 0.961 . S
C639 H654 0.961 . S
C639 H655 0.961 . S
C640 C641 1.370 . S
C640 C642 1.363 . S
C640 H656 0.931 . S
C641 C640 1.370 . S
C641 C645 1.408 . S
C642 C640 1.363 . S
C642 C643 1.370 . S
C642 C646 1.524 1_655 S
C643 C635 1.503 1_655 S
C643 C642 1.370 . S
C643 C644 1.403 . S
C644 C643 1.403 . S
C644 C645 1.404 . S
C644 C647 1.539 . S
C645 C641 1.408 . S
C645 C644 1.404 . S
C645 H657 0.930 . S
C646 C642 1.524 1_455 S
C646 H658 0.956 . S
C646 H659 0.961 . S
C646 H660 0.961 1_455 S
C647 C644 1.539 . S
C647 H661 0.958 . S
C647 H662 0.961 . S
C647 H663 0.960 1_655 S
H648 C632 0.931 . S
H649 C637 0.929 . S
H650 C638 0.960 . S
H651 C638 0.962 . S
H652 C638 0.960 . S
H653 C639 0.961 . S
H654 C639 0.961 . S
H655 C639 0.961 . S
H656 C640 0.931 . S
H657 C645 0.930 . S
H658 C646 0.956 . S
H659 C646 0.961 . S
H660 C646 0.961 1_655 S
H661 C647 0.958 . S
H662 C647 0.961 . S
H663 C647 0.960 1_455 S
C664 C665 1.391 . S
C664 C666 1.394 . S
C664 H680 0.931 . S
C665 C664 1.391 . S
C665 C669 1.376 . S
C666 C664 1.394 . S
C666 C667 1.369 . S
C666 C670 1.531 1_556 S
C667 C666 1.369 . S
C667 C668 1.410 . S
C667 C675 1.503 . S
C668 C667 1.410 . S
C668 C669 1.392 . S
C668 C671 1.511 . S
C669 C665 1.376 . S
C669 C668 1.392 . S
C669 H681 0.929 . S
C670 C666 1.531 1_554 S
C670 H682 0.960 . S
C670 H683 0.962 . S
C670 H684 0.960 . S
C671 C668 1.511 . S
C671 H685 0.961 . S
C671 H686 0.961 . S
C671 H687 0.961 . S
C672 C673 1.370 . S
C672 C674 1.363 . S
C672 H688 0.931 . S
C673 C672 1.370 . S
C673 C677 1.408 . S
C674 C672 1.363 . S
C674 C675 1.370 . S
C674 C678 1.524 . S
C675 C667 1.503 . S
C675 C674 1.370 . S
C675 C676 1.403 . S
C676 C675 1.403 . S
C676 C677 1.404 . S
C676 C679 1.539 . S
C677 C673 1.408 . S
C677 C676 1.404 . S
C677 H689 0.930 . S
C678 C674 1.524 . S
C678 H690 0.956 . S
C678 H691 0.961 . S
C678 H692 0.961 . S
C679 C676 1.539 . S
C679 H693 0.958 . S
C679 H694 0.961 . S
C679 H695 0.960 . S
H680 C664 0.931 . S
H681 C669 0.929 . S
H682 C670 0.960 . S
H683 C670 0.962 . S
H684 C670 0.960 . S
H685 C671 0.961 . S
H686 C671 0.961 . S
H687 C671 0.961 . S
H688 C672 0.931 . S
H689 C677 0.930 . S
H690 C678 0.956 . S
H691 C678 0.961 . S
H692 C678 0.961 . S
H693 C679 0.958 . S
H694 C679 0.961 . S
H695 C679 0.960 . S
C696 C697 1.391 . S
C696 C698 1.394 . S
C696 H712 0.931 . S
C697 C696 1.391 . S
C697 C701 1.376 . S
C698 C696 1.394 . S
C698 C699 1.369 . S
C698 C702 1.531 . S
C699 C698 1.369 . S
C699 C700 1.410 . S
C699 C707 1.503 . S
C700 C699 1.410 . S
C700 C701 1.392 . S
C700 C703 1.511 . S
C701 C697 1.376 . S
C701 C700 1.392 . S
C701 H713 0.929 . S
C702 C698 1.531 . S
C702 H714 0.960 . S
C702 H715 0.962 . S
C702 H716 0.960 . S
C703 C700 1.511 . S
C703 H717 0.961 . S
C703 H718 0.961 . S
C703 H719 0.961 . S
C704 C705 1.370 . S
C704 C706 1.363 . S
C704 H720 0.931 . S
C705 C704 1.370 . S
C705 C709 1.408 . S
C706 C704 1.363 . S
C706 C707 1.370 . S
C706 C710 1.524 . S
C707 C699 1.503 . S
C707 C706 1.370 . S
C707 C708 1.403 . S
C708 C707 1.403 . S
C708 C709 1.404 . S
C708 C711 1.539 . S
C709 C705 1.408 . S
C709 C708 1.404 . S
C709 H721 0.930 . S
C710 C706 1.524 . S
C710 H722 0.956 . S
C710 H723 0.961 . S
C710 H724 0.961 . S
C711 C708 1.539 . S
C711 H725 0.958 . S
C711 H726 0.961 . S
C711 H727 0.960 . S
H712 C696 0.931 . S
H713 C701 0.929 . S
H714 C702 0.960 . S
H715 C702 0.962 . S
H716 C702 0.960 . S
H717 C703 0.961 . S
H718 C703 0.961 . S
H719 C703 0.961 . S
H720 C704 0.931 . S
H721 C709 0.930 . S
H722 C710 0.956 . S
H723 C710 0.961 . S
H724 C710 0.961 . S
H725 C711 0.958 . S
H726 C711 0.961 . S
H727 C711 0.960 . S
C728 C729 1.391 . S
C728 C730 1.394 . S
C728 H744 0.931 . S
C729 C728 1.391 . S
C729 C733 1.376 . S
C730 C728 1.394 . S
C730 C731 1.369 . S
C730 C734 1.531 1_545 S
C731 C730 1.369 . S
C731 C732 1.410 . S
C731 C739 1.503 . S
C732 C731 1.410 . S
C732 C733 1.392 . S
C732 C735 1.511 . S
C733 C729 1.376 . S
C733 C732 1.392 . S
C733 H745 0.929 . S
C734 C730 1.531 1_565 S
C734 H746 0.960 . S
C734 H747 0.962 . S
C734 H748 0.960 . S
C735 C732 1.511 . S
C735 H749 0.961 . S
C735 H750 0.961 . S
C735 H751 0.961 . S
C736 C737 1.370 1_545 S
C736 C738 1.363 . S
C736 H752 0.931 . S
C737 C736 1.370 1_565 S
C737 C741 1.408 . S
C738 C736 1.363 . S
C738 C739 1.370 . S
C738 C742 1.524 . S
C739 C731 1.503 . S
C739 C738 1.370 . S
C739 C740 1.403 1_545 S
C740 C739 1.403 1_565 S
C740 C741 1.404 . S
C740 C743 1.539 . S
C741 C737 1.408 . S
C741 C740 1.404 . S
C741 H753 0.930 . S
C742 C738 1.524 . S
C742 H754 0.956 . S
C742 H755 0.961 . S
C742 H756 0.961 . S
C743 C740 1.539 . S
C743 H757 0.958 . S
C743 H758 0.961 . S
C743 H759 0.960 . S
H744 C728 0.931 . S
H745 C733 0.929 . S
H746 C734 0.960 . S
H747 C734 0.962 . S
H748 C734 0.960 . S
H749 C735 0.961 . S
H750 C735 0.961 . S
H751 C735 0.961 . S
H752 C736 0.931 . S
H753 C741 0.930 . S
H754 C742 0.956 . S
H755 C742 0.961 . S
H756 C742 0.961 . S
H757 C743 0.958 . S
H758 C743 0.961 . S
H759 C743 0.960 . S
C760 C761 1.391 . S
C760 C762 1.394 . S
C760 H776 0.931 . S
C761 C760 1.391 . S
C761 C765 1.376 . S
C762 C760 1.394 . S
C762 C763 1.369 . S
C762 C766 1.531 . S
C763 C762 1.369 . S
C763 C764 1.410 . S
C763 C771 1.503 . S
C764 C763 1.410 . S
C764 C765 1.392 . S
C764 C767 1.511 . S
C765 C761 1.376 . S
C765 C764 1.392 . S
C765 H777 0.929 . S
C766 C762 1.531 . S
C766 H778 0.960 . S
C766 H779 0.962 . S
C766 H780 0.960 . S
C767 C764 1.511 . S
C767 H781 0.961 . S
C767 H782 0.961 . S
C767 H783 0.961 . S
C768 C769 1.370 . S
C768 C770 1.363 . S
C768 H784 0.931 . S
C769 C768 1.370 . S
C769 C773 1.408 . S
C770 C768 1.363 . S
C770 C771 1.370 . S
C770 C774 1.524 . S
C771 C763 1.503 . S
C771 C770 1.370 . S
C771 C772 1.403 . S
C772 C771 1.403 . S
C772 C773 1.404 . S
C772 C775 1.539 . S
C773 C769 1.408 . S
C773 C772 1.404 . S
C773 H785 0.930 . S
C774 C770 1.524 . S
C774 H786 0.956 . S
C774 H787 0.961 . S
C774 H788 0.961 . S
C775 C772 1.539 . S
C775 H789 0.958 . S
C775 H790 0.961 . S
C775 H791 0.960 . S
H776 C760 0.931 . S
H777 C765 0.929 . S
H778 C766 0.960 . S
H779 C766 0.962 . S
H780 C766 0.960 . S
H781 C767 0.961 . S
H782 C767 0.961 . S
H783 C767 0.961 . S
H784 C768 0.931 . S
H785 C773 0.930 . S
H786 C774 0.956 . S
H787 C774 0.961 . S
H788 C774 0.961 . S
H789 C775 0.958 . S
H790 C775 0.961 . S
H791 C775 0.960 . S
C792 C793 1.391 . S
C792 C794 1.394 . S
C792 H808 0.931 . S
C793 C792 1.391 . S
C793 C797 1.376 . S
C794 C792 1.394 . S
C794 C795 1.369 . S
C794 C798 1.531 . S
C795 C794 1.369 . S
C795 C796 1.410 . S
C795 C803 1.503 . S
C796 C795 1.410 . S
C796 C797 1.392 . S
C796 C799 1.511 . S
C797 C793 1.376 . S
C797 C796 1.392 . S
C797 H809 0.929 . S
C798 C794 1.531 . S
C798 H810 0.960 . S
C798 H811 0.962 . S
C798 H812 0.960 . S
C799 C796 1.511 . S
C799 H813 0.961 . S
C799 H814 0.961 . S
C799 H815 0.961 . S
C800 C801 1.370 . S
C800 C802 1.363 . S
C800 H816 0.931 . S
C801 C800 1.370 . S
C801 C805 1.408 . S
C802 C800 1.363 . S
C802 C803 1.370 . S
C802 C806 1.524 . S
C803 C795 1.503 . S
C803 C802 1.370 . S
C803 C804 1.403 . S
C804 C803 1.403 . S
C804 C805 1.404 . S
C804 C807 1.539 . S
C805 C801 1.408 . S
C805 C804 1.404 . S
C805 H817 0.930 . S
C806 C802 1.524 . S
C806 H818 0.956 . S
C806 H819 0.961 . S
C806 H820 0.961 . S
C807 C804 1.539 . S
C807 H821 0.958 . S
C807 H822 0.961 . S
C807 H823 0.960 . S
H808 C792 0.931 . S
H809 C797 0.929 . S
H810 C798 0.960 . S
H811 C798 0.962 . S
H812 C798 0.960 . S
H813 C799 0.961 . S
H814 C799 0.961 . S
H815 C799 0.961 . S
H816 C800 0.931 . S
H817 C805 0.930 . S
H818 C806 0.956 . S
H819 C806 0.961 . S
H820 C806 0.961 . S
H821 C807 0.958 . S
H822 C807 0.961 . S
H823 C807 0.960 . S
C824 C825 1.391 . S
C824 C826 1.394 . S
C824 H840 0.931 . S
C825 C824 1.391 . S
C825 C829 1.376 . S
C826 C824 1.394 . S
C826 C827 1.369 . S
C826 C830 1.531 . S
C827 C826 1.369 . S
C827 C828 1.410 . S
C827 C835 1.503 . S
C828 C827 1.410 . S
C828 C829 1.392 . S
C828 C831 1.511 . S
C829 C825 1.376 . S
C829 C828 1.392 . S
C829 H841 0.929 . S
C830 C826 1.531 . S
C830 H842 0.960 . S
C830 H843 0.962 . S
C830 H844 0.960 . S
C831 C828 1.511 . S
C831 H845 0.961 . S
C831 H846 0.961 . S
C831 H847 0.961 . S
C832 C833 1.370 . S
C832 C834 1.363 . S
C832 H848 0.931 . S
C833 C832 1.370 . S
C833 C837 1.408 . S
C834 C832 1.363 . S
C834 C835 1.370 . S
C834 C838 1.524 . S
C835 C827 1.503 . S
C835 C834 1.370 . S
C835 C836 1.403 . S
C836 C835 1.403 . S
C836 C837 1.404 . S
C836 C839 1.539 . S
C837 C833 1.408 . S
C837 C836 1.404 . S
C837 H849 0.930 . S
C838 C834 1.524 . S
C838 H850 0.956 . S
C838 H851 0.961 . S
C838 H852 0.961 . S
C839 C836 1.539 . S
C839 H853 0.958 . S
C839 H854 0.961 . S
C839 H855 0.960 . S
H840 C824 0.931 . S
H841 C829 0.929 . S
H842 C830 0.960 . S
H843 C830 0.962 . S
H844 C830 0.960 . S
H845 C831 0.961 . S
H846 C831 0.961 . S
H847 C831 0.961 . S
H848 C832 0.931 . S
H849 C837 0.930 . S
H850 C838 0.956 . S
H851 C838 0.961 . S
H852 C838 0.961 . S
H853 C839 0.958 . S
H854 C839 0.961 . S
H855 C839 0.960 . S
C856 C857 1.391 . S
C856 C858 1.394 . S
C856 H872 0.931 . S
C857 C856 1.391 . S
C857 C861 1.376 . S
C858 C856 1.394 . S
C858 C859 1.369 . S
C858 C862 1.531 . S
C859 C858 1.369 . S
C859 C860 1.410 . S
C859 C867 1.503 . S
C860 C859 1.410 . S
C860 C861 1.392 . S
C860 C863 1.511 . S
C861 C857 1.376 . S
C861 C860 1.392 . S
C861 H873 0.929 . S
C862 C858 1.531 . S
C862 H874 0.960 . S
C862 H875 0.962 . S
C862 H876 0.960 . S
C863 C860 1.511 . S
C863 H877 0.961 . S
C863 H878 0.961 . S
C863 H879 0.961 . S
C864 C865 1.370 . S
C864 C866 1.363 . S
C864 H880 0.931 . S
C865 C864 1.370 . S
C865 C869 1.408 . S
C866 C864 1.363 . S
C866 C867 1.370 . S
C866 C870 1.524 . S
C867 C859 1.503 . S
C867 C866 1.370 . S
C867 C868 1.403 . S
C868 C867 1.403 . S
C868 C869 1.404 . S
C868 C871 1.539 . S
C869 C865 1.408 . S
C869 C868 1.404 . S
C869 H881 0.930 . S
C870 C866 1.524 . S
C870 H882 0.956 . S
C870 H883 0.961 . S
C870 H884 0.961 . S
C871 C868 1.539 . S
C871 H885 0.958 . S
C871 H886 0.961 . S
C871 H887 0.960 . S
H872 C856 0.931 . S
H873 C861 0.929 . S
H874 C862 0.960 . S
H875 C862 0.962 . S
H876 C862 0.960 . S
H877 C863 0.961 . S
H878 C863 0.961 . S
H879 C863 0.961 . S
H880 C864 0.931 . S
H881 C869 0.930 . S
H882 C870 0.956 . S
H883 C870 0.961 . S
H884 C870 0.961 . S
H885 C871 0.958 . S
H886 C871 0.961 . S
H887 C871 0.960 . S
C888 C889 1.391 . S
C888 C890 1.394 . S
C888 H904 0.931 . S
C889 C888 1.391 . S
C889 C893 1.376 . S
C890 C888 1.394 . S
C890 C891 1.369 . S
C890 C894 1.531 . S
C891 C890 1.369 . S
C891 C892 1.410 . S
C891 C899 1.503 . S
C892 C891 1.410 . S
C892 C893 1.392 . S
C892 C895 1.511 . S
C893 C889 1.376 . S
C893 C892 1.392 . S
C893 H905 0.929 . S
C894 C890 1.531 . S
C894 H906 0.960 . S
C894 H907 0.962 . S
C894 H908 0.960 . S
C895 C892 1.511 . S
C895 H909 0.961 . S
C895 H910 0.961 . S
C895 H911 0.961 . S
C896 C897 1.370 . S
C896 C898 1.363 . S
C896 H912 0.931 . S
C897 C896 1.370 . S
C897 C901 1.408 . S
C898 C896 1.363 . S
C898 C899 1.370 . S
C898 C902 1.524 . S
C899 C891 1.503 . S
C899 C898 1.370 . S
C899 C900 1.403 . S
C900 C899 1.403 . S
C900 C901 1.404 . S
C900 C903 1.539 . S
C901 C897 1.408 . S
C901 C900 1.404 . S
C901 H913 0.930 . S
C902 C898 1.524 . S
C902 H914 0.956 . S
C902 H915 0.961 . S
C902 H916 0.961 . S
C903 C900 1.539 . S
C903 H917 0.958 . S
C903 H918 0.961 . S
C903 H919 0.960 . S
H904 C888 0.931 . S
H905 C893 0.929 . S
H906 C894 0.960 . S
H907 C894 0.962 . S
H908 C894 0.960 . S
H909 C895 0.961 . S
H910 C895 0.961 . S
H911 C895 0.961 . S
H912 C896 0.931 . S
H913 C901 0.930 . S
H914 C902 0.956 . S
H915 C902 0.961 . S
H916 C902 0.961 . S
H917 C903 0.958 . S
H918 C903 0.961 . S
H919 C903 0.960 . S
C920 C921 1.391 . S
C920 C922 1.394 . S
C920 H936 0.931 . S
C921 C920 1.391 . S
C921 C925 1.376 . S
C922 C920 1.394 . S
C922 C923 1.369 . S
C922 C926 1.531 . S
C923 C922 1.369 . S
C923 C924 1.410 . S
C923 C931 1.503 . S
C924 C923 1.410 . S
C924 C925 1.392 . S
C924 C927 1.511 . S
C925 C921 1.376 . S
C925 C924 1.392 . S
C925 H937 0.929 . S
C926 C922 1.531 . S
C926 H938 0.960 . S
C926 H939 0.962 . S
C926 H940 0.960 . S
C927 C924 1.511 . S
C927 H941 0.961 . S
C927 H942 0.961 . S
C927 H943 0.961 . S
C928 C929 1.370 . S
C928 C930 1.363 . S
C928 H944 0.931 . S
C929 C928 1.370 . S
C929 C933 1.408 . S
C930 C928 1.363 . S
C930 C931 1.370 . S
C930 C934 1.524 . S
C931 C923 1.503 . S
C931 C930 1.370 . S
C931 C932 1.403 . S
C932 C931 1.403 . S
C932 C933 1.404 . S
C932 C935 1.539 . S
C933 C929 1.408 . S
C933 C932 1.404 . S
C933 H945 0.930 . S
C934 C930 1.524 . S
C934 H946 0.956 . S
C934 H947 0.961 . S
C934 H948 0.961 . S
C935 C932 1.539 . S
C935 H949 0.958 . S
C935 H950 0.961 . S
C935 H951 0.960 . S
H936 C920 0.931 . S
H937 C925 0.929 . S
H938 C926 0.960 . S
H939 C926 0.962 . S
H940 C926 0.960 . S
H941 C927 0.961 . S
H942 C927 0.961 . S
H943 C927 0.961 . S
H944 C928 0.931 . S
H945 C933 0.930 . S
H946 C934 0.956 . S
H947 C934 0.961 . S
H948 C934 0.961 . S
H949 C935 0.958 . S
H950 C935 0.961 . S
H951 C935 0.960 . S
C952 C953 1.391 . S
C952 C954 1.394 . S
C952 H968 0.931 . S
C953 C952 1.391 . S
C953 C957 1.376 . S
C954 C952 1.394 . S
C954 C955 1.369 . S
C954 C958 1.531 . S
C955 C954 1.369 . S
C955 C956 1.410 . S
C955 C963 1.503 . S
C956 C955 1.410 . S
C956 C957 1.392 . S
C956 C959 1.511 . S
C957 C953 1.376 . S
C957 C956 1.392 . S
C957 H969 0.929 . S
C958 C954 1.531 . S
C958 H970 0.960 . S
C958 H971 0.962 . S
C958 H972 0.960 . S
C959 C956 1.511 . S
C959 H973 0.961 . S
C959 H974 0.961 . S
C959 H975 0.961 . S
C960 C961 1.370 1_565 S
C960 C962 1.363 1_565 S
C960 H976 0.931 . S
C961 C960 1.370 1_545 S
C961 C965 1.408 . S
C962 C960 1.363 1_545 S
C962 C963 1.370 . S
C962 C966 1.524 1_545 S
C963 C955 1.503 . S
C963 C962 1.370 . S
C963 C964 1.403 . S
C964 C963 1.403 . S
C964 C965 1.404 . S
C964 C967 1.539 . S
C965 C961 1.408 . S
C965 C964 1.404 . S
C965 H977 0.930 . S
C966 C962 1.524 1_565 S
C966 H978 0.956 . S
C966 H979 0.966 . S
C966 H980 0.961 . S
C967 C964 1.539 . S
C967 H981 0.958 . S
C967 H982 0.961 . S
C967 H983 0.960 . S
H968 C952 0.931 . S
H969 C957 0.929 . S
H970 C958 0.960 . S
H971 C958 0.962 . S
H972 C958 0.960 . S
H973 C959 0.961 . S
H974 C959 0.961 . S
H975 C959 0.961 . S
H976 C960 0.931 . S
H977 C965 0.930 . S
H978 C966 0.956 . S
H979 C966 0.966 . S
H980 C966 0.961 . S
H981 C967 0.958 . S
H982 C967 0.961 . S
H983 C967 0.960 . S
C984 C985 1.391 . S
C984 C986 1.394 . S
C984 H1000 0.931 . S
C985 C984 1.391 . S
C985 C989 1.376 . S
C986 C984 1.394 . S
C986 C987 1.369 . S
C986 C990 1.531 . S
C987 C986 1.369 . S
C987 C988 1.410 . S
C987 C995 1.503 . S
C988 C987 1.410 . S
C988 C989 1.392 . S
C988 C991 1.511 . S
C989 C985 1.376 . S
C989 C988 1.392 . S
C989 H1001 0.929 . S
C990 C986 1.531 . S
C990 H1002 0.960 . S
C990 H1003 0.962 . S
C990 H1004 0.960 . S
C991 C988 1.511 . S
C991 H1005 0.961 . S
C991 H1006 0.961 . S
C991 H1007 0.961 . S
C992 C993 1.370 . S
C992 C994 1.363 . S
C992 H1008 0.931 . S
C993 C992 1.370 . S
C993 C997 1.408 . S
C994 C992 1.363 . S
C994 C995 1.370 . S
C994 C998 1.524 . S
C995 C987 1.503 . S
C995 C994 1.370 . S
C995 C996 1.403 . S
C996 C995 1.403 . S
C996 C997 1.404 . S
C996 C999 1.539 . S
C997 C993 1.408 . S
C997 C996 1.404 . S
C997 H1009 0.930 . S
C998 C994 1.524 . S
C998 H1010 0.956 . S
C998 H1011 0.961 . S
C998 H1012 0.961 . S
C999 C996 1.539 . S
C999 H1013 0.958 . S
C999 H1014 0.961 . S
C999 H1015 0.960 . S
H1000 C984 0.931 . S
H1001 C989 0.929 . S
H1002 C990 0.960 . S
H1003 C990 0.962 . S
H1004 C990 0.960 . S
H1005 C991 0.961 . S
H1006 C991 0.961 . S
H1007 C991 0.961 . S
H1008 C992 0.931 . S
H1009 C997 0.930 . S
H1010 C998 0.956 . S
H1011 C998 0.961 . S
H1012 C998 0.961 . S
H1013 C999 0.958 . S
H1014 C999 0.961 . S
H1015 C999 0.960 . S
C1016 C1017 1.391 . S
C1016 C1018 1.394 . S
C1016 H1032 0.931 . S
C1017 C1016 1.391 . S
C1017 C1021 1.376 . S
C1018 C1016 1.394 . S
C1018 C1019 1.369 . S
C1018 C1022 1.531 . S
C1019 C1018 1.369 . S
C1019 C1020 1.410 . S
C1019 C1027 1.503 . S
C1020 C1019 1.410 . S
C1020 C1021 1.392 . S
C1020 C1023 1.511 . S
C1021 C1017 1.376 . S
C1021 C1020 1.392 . S
C1021 H1033 0.929 . S
C1022 C1018 1.531 . S
C1022 H1034 0.960 . S
C1022 H1035 0.962 . S
C1022 H1036 0.960 . S
C1023 C1020 1.511 . S
C1023 H1037 0.961 . S
C1023 H1038 0.961 . S
C1023 H1039 0.961 . S
C1024 C1025 1.370 . S
C1024 C1026 1.363 . S
C1024 H1040 0.931 . S
C1025 C1024 1.370 . S
C1025 C1029 1.408 . S
C1026 C1024 1.363 . S
C1026 C1027 1.370 . S
C1026 C1030 1.524 . S
C1027 C1019 1.503 . S
C1027 C1026 1.370 . S
C1027 C1028 1.403 . S
C1028 C1027 1.403 . S
C1028 C1029 1.404 . S
C1028 C1031 1.539 . S
C1029 C1025 1.408 . S
C1029 C1028 1.404 . S
C1029 H1041 0.930 . S
C1030 C1026 1.524 . S
C1030 H1042 0.956 . S
C1030 H1043 0.961 . S
C1030 H1044 0.961 . S
C1031 C1028 1.539 . S
C1031 H1045 0.958 . S
C1031 H1046 0.961 . S
C1031 H1047 0.960 . S
H1032 C1016 0.931 . S
H1033 C1021 0.929 . S
H1034 C1022 0.960 . S
H1035 C1022 0.962 . S
H1036 C1022 0.960 . S
H1037 C1023 0.961 . S
H1038 C1023 0.961 . S
H1039 C1023 0.961 . S
H1040 C1024 0.931 . S
H1041 C1029 0.930 . S
H1042 C1030 0.956 . S
H1043 C1030 0.961 . S
H1044 C1030 0.961 . S
H1045 C1031 0.958 . S
H1046 C1031 0.961 . S
H1047 C1031 0.960 . S
C1048 C1049 1.391 . S
C1048 C1050 1.394 . S
C1048 H1064 0.931 . S
C1049 C1048 1.391 . S
C1049 C1053 1.376 . S
C1050 C1048 1.394 . S
C1050 C1051 1.369 . S
C1050 C1054 1.531 . S
C1051 C1050 1.369 . S
C1051 C1052 1.410 . S
C1051 C1059 1.503 . S
C1052 C1051 1.410 . S
C1052 C1053 1.392 . S
C1052 C1055 1.511 . S
C1053 C1049 1.376 . S
C1053 C1052 1.392 . S
C1053 H1065 0.929 . S
C1054 C1050 1.531 . S
C1054 H1066 0.960 . S
C1054 H1067 0.962 . S
C1054 H1068 0.960 . S
C1055 C1052 1.511 . S
C1055 H1069 0.961 . S
C1055 H1070 0.961 . S
C1055 H1071 0.961 . S
C1056 C1057 1.370 . S
C1056 C1058 1.363 . S
C1056 H1072 0.931 1_455 S
C1057 C1056 1.370 . S
C1057 C1061 1.408 . S
C1058 C1056 1.363 . S
C1058 C1059 1.370 . S
C1058 C1062 1.524 . S
C1059 C1051 1.503 . S
C1059 C1058 1.370 . S
C1059 C1060 1.403 . S
C1060 C1059 1.403 . S
C1060 C1061 1.404 . S
C1060 C1063 1.539 . S
C1061 C1057 1.408 . S
C1061 C1060 1.404 . S
C1061 H1073 0.930 . S
C1062 C1058 1.524 . S
C1062 H1074 0.956 . S
C1062 H1075 0.961 . S
C1062 H1076 0.961 1_455 S
C1063 C1060 1.539 . S
C1063 H1077 0.958 . S
C1063 H1078 0.961 . S
C1063 H1079 0.960 . S
H1064 C1048 0.931 . S
H1065 C1053 0.929 . S
H1066 C1054 0.960 . S
H1067 C1054 0.962 . S
H1068 C1054 0.960 . S
H1069 C1055 0.961 . S
H1070 C1055 0.961 . S
H1071 C1055 0.961 . S
H1072 C1056 0.931 1_655 S
H1073 C1061 0.930 . S
H1074 C1062 0.956 . S
H1075 C1062 0.961 . S
H1076 C1062 0.961 1_655 S
H1077 C1063 0.958 . S
H1078 C1063 0.961 . S
H1079 C1063 0.960 . S
C1080 C1081 1.391 . S
C1080 C1082 1.394 . S
C1080 H1096 0.931 1_655 S
C1081 C1080 1.391 . S
C1081 C1085 1.376 . S
C1082 C1080 1.394 . S
C1082 C1083 1.369 . S
C1082 C1086 1.531 . S
C1083 C1082 1.369 . S
C1083 C1084 1.410 . S
C1083 C1091 1.503 . S
C1084 C1083 1.410 . S
C1084 C1085 1.392 . S
C1084 C1087 1.511 . S
C1085 C1081 1.376 . S
C1085 C1084 1.392 . S
C1085 H1097 0.929 . S
C1086 C1082 1.531 . S
C1086 H1098 0.960 . S
C1086 H1099 0.962 1_655 S
C1086 H1100 0.960 1_655 S
C1087 C1084 1.511 . S
C1087 H1101 0.961 . S
C1087 H1102 0.961 . S
C1087 H1103 0.961 . S
C1088 C1089 1.370 . S
C1088 C1090 1.363 . S
C1088 H1104 0.931 . S
C1089 C1088 1.370 . S
C1089 C1093 1.408 . S
C1090 C1088 1.363 . S
C1090 C1091 1.370 . S
C1090 C1094 1.524 . S
C1091 C1083 1.503 . S
C1091 C1090 1.370 . S
C1091 C1092 1.403 . S
C1092 C1091 1.403 . S
C1092 C1093 1.404 . S
C1092 C1095 1.539 . S
C1093 C1089 1.408 . S
C1093 C1092 1.404 . S
C1093 H1105 0.930 . S
C1094 C1090 1.524 . S
C1094 H1106 0.956 . S
C1094 H1107 0.961 . S
C1094 H1108 0.961 . S
C1095 C1092 1.539 . S
C1095 H1109 0.958 . S
C1095 H1110 0.961 . S
C1095 H1111 0.960 . S
H1096 C1080 0.931 1_455 S
H1097 C1085 0.929 . S
H1098 C1086 0.960 . S
H1099 C1086 0.962 1_455 S
H1100 C1086 0.960 1_455 S
H1101 C1087 0.961 . S
H1102 C1087 0.961 . S
H1103 C1087 0.961 . S
H1104 C1088 0.931 . S
H1105 C1093 0.930 . S
H1106 C1094 0.956 . S
H1107 C1094 0.961 . S
H1108 C1094 0.961 . S
H1109 C1095 0.958 . S
H1110 C1095 0.961 . S
H1111 C1095 0.960 . S
C1112 C1113 1.391 . S
C1112 C1114 1.394 . S
C1112 H1128 0.931 . S
C1113 C1112 1.391 . S
C1113 C1117 1.376 . S
C1114 C1112 1.394 . S
C1114 C1115 1.369 . S
C1114 C1118 1.531 . S
C1115 C1114 1.369 . S
C1115 C1116 1.410 . S
C1115 C1123 1.503 . S
C1116 C1115 1.410 . S
C1116 C1117 1.392 . S
C1116 C1119 1.511 . S
C1117 C1113 1.376 . S
C1117 C1116 1.392 . S
C1117 H1129 0.929 . S
C1118 C1114 1.531 . S
C1118 H1130 0.960 . S
C1118 H1131 0.962 . S
C1118 H1132 0.960 . S
C1119 C1116 1.511 . S
C1119 H1133 0.961 . S
C1119 H1134 0.961 . S
C1119 H1135 0.961 . S
C1120 C1121 1.370 . S
C1120 C1122 1.363 . S
C1120 H1136 0.931 . S
C1121 C1120 1.370 . S
C1121 C1125 1.408 . S
C1122 C1120 1.363 . S
C1122 C1123 1.370 . S
C1122 C1126 1.524 . S
C1123 C1115 1.503 . S
C1123 C1122 1.370 . S
C1123 C1124 1.403 . S
C1124 C1123 1.403 . S
C1124 C1125 1.404 . S
C1124 C1127 1.539 . S
C1125 C1121 1.408 . S
C1125 C1124 1.404 . S
C1125 H1137 0.930 . S
C1126 C1122 1.524 . S
C1126 H1138 0.956 . S
C1126 H1139 0.961 . S
C1126 H1140 0.961 . S
C1127 C1124 1.539 . S
C1127 H1141 0.958 . S
C1127 H1142 0.961 . S
C1127 H1143 0.960 . S
H1128 C1112 0.931 . S
H1129 C1117 0.929 . S
H1130 C1118 0.960 . S
H1131 C1118 0.962 . S
H1132 C1118 0.960 . S
H1133 C1119 0.961 . S
H1134 C1119 0.961 . S
H1135 C1119 0.961 . S
H1136 C1120 0.931 . S
H1137 C1125 0.930 . S
H1138 C1126 0.956 . S
H1139 C1126 0.961 . S
H1140 C1126 0.961 . S
H1141 C1127 0.958 . S
H1142 C1127 0.961 . S
H1143 C1127 0.960 . S
C1144 C1145 1.391 . S
C1144 C1146 1.394 . S
C1144 H1160 0.931 . S
C1145 C1144 1.391 . S
C1145 C1149 1.376 . S
C1146 C1144 1.394 . S
C1146 C1147 1.369 . S
C1146 C1150 1.531 . S
C1147 C1146 1.369 . S
C1147 C1148 1.410 . S
C1147 C1155 1.503 . S
C1148 C1147 1.410 . S
C1148 C1149 1.392 . S
C1148 C1151 1.511 . S
C1149 C1145 1.376 . S
C1149 C1148 1.392 . S
C1149 H1161 0.929 . S
C1150 C1146 1.531 . S
C1150 H1162 0.960 . S
C1150 H1163 0.962 . S
C1150 H1164 0.960 . S
C1151 C1148 1.511 . S
C1151 H1165 0.961 . S
C1151 H1166 0.961 . S
C1151 H1167 0.961 . S
C1152 C1153 1.370 . S
C1152 C1154 1.363 . S
C1152 H1168 0.931 . S
C1153 C1152 1.370 . S
C1153 C1157 1.408 1_455 S
C1154 C1152 1.363 . S
C1154 C1155 1.370 . S
C1154 C1158 1.524 . S
C1155 C1147 1.503 . S
C1155 C1154 1.370 . S
C1155 C1156 1.403 . S
C1156 C1155 1.403 . S
C1156 C1157 1.404 1_455 S
C1156 C1159 1.539 1_455 S
C1157 C1153 1.408 1_655 S
C1157 C1156 1.404 1_655 S
C1157 H1169 0.930 . S
C1158 C1154 1.524 . S
C1158 H1170 0.956 . S
C1158 H1171 0.961 . S
C1158 H1172 0.961 . S
C1159 C1156 1.539 1_655 S
C1159 H1173 0.958 1_655 S
C1159 H1174 0.961 . S
C1159 H1175 0.960 1_655 S
H1160 C1144 0.931 . S
H1161 C1149 0.929 . S
H1162 C1150 0.960 . S
H1163 C1150 0.962 . S
H1164 C1150 0.960 . S
H1165 C1151 0.961 . S
H1166 C1151 0.961 . S
H1167 C1151 0.961 . S
H1168 C1152 0.931 . S
H1169 C1157 0.930 . S
H1170 C1158 0.956 . S
H1171 C1158 0.961 . S
H1172 C1158 0.961 . S
H1173 C1159 0.958 1_455 S
H1174 C1159 0.961 . S
H1175 C1159 0.960 1_455 S
C1176 C1177 1.391 . S
C1176 C1178 1.394 . S
C1176 H1192 0.931 . S
C1177 C1176 1.391 . S
C1177 C1181 1.376 . S
C1178 C1176 1.394 . S
C1178 C1179 1.369 . S
C1178 C1182 1.531 . S
C1179 C1178 1.369 . S
C1179 C1180 1.410 . S
C1179 C1187 1.503 . S
C1180 C1179 1.410 . S
C1180 C1181 1.392 . S
C1180 C1183 1.511 . S
C1181 C1177 1.376 . S
C1181 C1180 1.392 . S
C1181 H1193 0.929 . S
C1182 C1178 1.531 . S
C1182 H1194 0.960 . S
C1182 H1195 0.962 . S
C1182 H1196 0.960 . S
C1183 C1180 1.511 . S
C1183 H1197 0.961 . S
C1183 H1198 0.961 . S
C1183 H1199 0.961 . S
C1184 C1185 1.370 . S
C1184 C1186 1.363 . S
C1184 H1200 0.931 . S
C1185 C1184 1.370 . S
C1185 C1189 1.408 . S
C1186 C1184 1.363 . S
C1186 C1187 1.370 . S
C1186 C1190 1.524 . S
C1187 C1179 1.503 . S
C1187 C1186 1.370 . S
C1187 C1188 1.403 . S
C1188 C1187 1.403 . S
C1188 C1189 1.404 . S
C1188 C1191 1.539 . S
C1189 C1185 1.408 . S
C1189 C1188 1.404 . S
C1189 H1201 0.930 . S
C1190 C1186 1.524 . S
C1190 H1202 0.956 . S
C1190 H1203 0.961 . S
C1190 H1204 0.961 . S
C1191 C1188 1.539 . S
C1191 H1205 0.958 . S
C1191 H1206 0.961 1_655 S
C1191 H1207 0.960 1_655 S
H1192 C1176 0.931 . S
H1193 C1181 0.929 . S
H1194 C1182 0.960 . S
H1195 C1182 0.962 . S
H1196 C1182 0.960 . S
H1197 C1183 0.961 . S
H1198 C1183 0.961 . S
H1199 C1183 0.961 . S
H1200 C1184 0.931 . S
H1201 C1189 0.930 . S
H1202 C1190 0.956 . S
H1203 C1190 0.961 . S
H1204 C1190 0.961 . S
H1205 C1191 0.958 . S
H1206 C1191 0.961 1_455 S
H1207 C1191 0.960 1_455 S
C1208 C1209 1.391 . S
C1208 C1210 1.394 . S
C1208 H1224 0.931 . S
C1209 C1208 1.391 . S
C1209 C1213 1.376 . S
C1210 C1208 1.394 . S
C1210 C1211 1.369 . S
C1210 C1214 1.531 . S
C1211 C1210 1.369 . S
C1211 C1212 1.410 . S
C1211 C1219 1.503 . S
C1212 C1211 1.410 . S
C1212 C1213 1.392 . S
C1212 C1215 1.511 . S
C1213 C1209 1.376 . S
C1213 C1212 1.392 . S
C1213 H1225 0.929 . S
C1214 C1210 1.531 . S
C1214 H1226 0.960 . S
C1214 H1227 0.962 . S
C1214 H1228 0.960 . S
C1215 C1212 1.511 . S
C1215 H1229 0.961 . S
C1215 H1230 0.961 . S
C1215 H1231 0.961 . S
C1216 C1217 1.370 . S
C1216 C1218 1.363 . S
C1216 H1232 0.931 . S
C1217 C1216 1.370 . S
C1217 C1221 1.408 . S
C1218 C1216 1.363 . S
C1218 C1219 1.370 . S
C1218 C1222 1.524 . S
C1219 C1211 1.503 . S
C1219 C1218 1.370 . S
C1219 C1220 1.403 . S
C1220 C1219 1.403 . S
C1220 C1221 1.404 . S
C1220 C1223 1.539 . S
C1221 C1217 1.408 . S
C1221 C1220 1.404 . S
C1221 H1233 0.930 . S
C1222 C1218 1.524 . S
C1222 H1234 0.956 . S
C1222 H1235 0.961 . S
C1222 H1236 0.961 . S
C1223 C1220 1.539 . S
C1223 H1237 0.958 . S
C1223 H1238 0.961 . S
C1223 H1239 0.960 . S
H1224 C1208 0.931 . S
H1225 C1213 0.929 . S
H1226 C1214 0.960 . S
H1227 C1214 0.962 . S
H1228 C1214 0.960 . S
H1229 C1215 0.961 . S
H1230 C1215 0.961 . S
H1231 C1215 0.961 . S
H1232 C1216 0.931 . S
H1233 C1221 0.930 . S
H1234 C1222 0.956 . S
H1235 C1222 0.961 . S
H1236 C1222 0.961 . S
H1237 C1223 0.958 . S
H1238 C1223 0.961 . S
H1239 C1223 0.960 . S
C225 C125 1.470 . S
C217 C5 1.463 . S
C257 C145 1.540 . S
C249 C18 1.498 . S
C289 C159 1.538 . S
C281 C31 1.474 . S
C313 C42 1.540 . S
C321 C117 1.515 . S
C345 C57 1.295 . S
C353 C111 1.312 . S
C377 C70 1.323 . S
C385 C131 1.297 . S
C417 C139 1.211 . S
C409 C81 1.158 . S
C449 C153 1.278 . S
C441 C96 1.285 . S
C473 C29 1.245 . S
C481 C181 1.270 . S
C513 C195 1.221 . S
C505 C44 1.241 . S
C537 C3 1.299 . S
C545 C215 1.296 . S
C577 C167 1.310 . S
C569 C16 1.239 1_655 S
C601 C83 1.507 . S
C609 C173 1.525 . S
C633 C94 1.564 . S
C641 C187 1.526 . S
C673 C201 1.537 1_556 S
C665 C55 1.541 . S
C697 C68 1.491 . S
C705 C209 1.476 . S
C737 C140 1.706 . S
C729 C1 1.638 . S
C769 C154 1.708 . S
C761 C14 1.645 . S
C793 C27 1.551 . S
C801 C112 1.646 . S
C825 C49 1.512 . S
C833 C129 1.513 . S
C857 C53 1.172 . S
C865 C157 1.183 . S
C897 C115 1.152 . S
C889 C66 1.132 . S
C929 C126 1.277 . S
C921 C88 1.290 . S
C961 C143 1.229 1_545 S
C953 C92 1.195 . S
C993 C199 1.225 . S
C985 C36 1.189 . S
C1025 C210 1.284 . S
C1017 C40 1.253 . S
C1049 C10 1.129 . S
C1057 C171 1.150 . S
C1089 C185 1.183 . S
C1081 C23 1.167 . S
C1121 C213 1.516 . S
C1113 C79 1.448 . S
C1145 C101 1.610 . S
C1153 C168 1.638 1_455 S
C1185 C182 1.705 . S
C1177 C62 1.667 . S
C1217 C196 1.712 . S
C1209 C75 1.702 . S
